
#######################################################################
#
#                 Cambridge Crystallographic Data Centre
#                                CCDC 
#
#######################################################################
#
# If this CIF has been generated from an entry in the Cambridge 
# Structural Database, then it will include bibliographic, chemical, 
# crystal, experimental, refinement or atomic coordinate data resulting 
# from the CCDC's data processing and validation procedures.
#
#######################################################################

data_PUCWOB
_symmetry_cell_setting           triclinic
_symmetry_space_group_name_H-M   'P -1'
_symmetry_Int_Tables_number      2
_space_group_name_Hall           '-P 1'
loop_
_symmetry_equiv_pos_site_id
_symmetry_equiv_pos_as_xyz
1 x,y,z
2 -x,-y,-z
_cell_length_a                   10.7604(10)
_cell_length_b                   13.3199(13)
_cell_length_c                   14.3765(14)
_cell_angle_alpha                69.7250(10)
_cell_angle_beta                 75.161(2)
_cell_angle_gamma                73.913(2)
_cell_volume                     1827.66
loop_
_atom_site_label
_atom_site_type_symbol
_atom_site_fract_x
_atom_site_fract_y
_atom_site_fract_z
C1 C 0.8174(3) 0.9371(3) 0.3941(3)
H1 H 0.8870 0.9282 0.3418
C2 C 0.6508(4) 0.9116(3) 0.5111(3)
H2 H 0.5828 0.8801 0.5556
C3 C 0.6776(4) 1.0064(3) 0.5075(3)
H3 H 0.6323 1.0514 0.5477
C4 C 0.8520(3) 1.1103(3) 0.4067(3)
C5 C 0.7763(3) 1.2152(3) 0.4059(2)
H4 H 0.6850 1.2289 0.4157
C6 C 0.8415(3) 1.2972(3) 0.3899(2)
C7 C 0.9772(4) 1.2780(3) 0.3758(3)
H5 H 1.0193 1.3338 0.3669
C8 C 1.0497(4) 1.1743(3) 0.3750(3)
H6 H 1.1409 1.1611 0.3643
C9 C 0.9878(4) 1.0906(3) 0.3899(3)
H7 H 1.0371 1.0215 0.3887
C10 C 0.6391(4) 1.4451(3) 0.3708(4)
H8 H 0.5856 1.4083 0.3590
C11 C 0.6077(4) 1.5496(3) 0.3738(4)
H9 H 0.5274 1.5972 0.3638
C12 C 0.8026(4) 1.4868(3) 0.4017(3)
H10 H 0.8849 1.4809 0.4151
C13 C 0.8226(4) 0.6384(3) 0.1291(3)
H11 H 0.8983 0.6253 0.1549
C14 C 0.6674(4) 0.6123(3) 0.0739(4)
H12 H 0.6153 0.5807 0.0542
C15 C 0.6453(4) 0.7183(3) 0.0715(4)
H13 H 0.5740 0.7723 0.0497
C16 C 0.8510(4) 0.4494(3) 0.1234(3)
C17 C 0.9862(4) 0.4239(3) 0.1150(3)
H14 H 1.0319 0.4777 0.1053
C18 C 1.0524(4) 0.3174(3) 0.1214(3)
H15 H 1.1433 0.2994 0.1166
C19 C 0.9850(4) 0.2369(3) 0.1347(3)
H16 H 1.0304 0.1659 0.1370
C20 C 0.8503(4) 0.2633(3) 0.1443(3)
C21 C 0.7792(4) 0.3694(3) 0.1391(3)
H17 H 0.6882 0.3866 0.1457
C22 C 0.8270(4) 0.0893(3) 0.1301(3)
H18 H 0.9105 0.0724 0.0933
C23 C 0.6302(4) 0.0824(3) 0.2108(3)
H19 H 0.5520 0.0580 0.2400
C24 C 0.6527(4) 0.1764(3) 0.2122(3)
H20 H 0.5950 0.2275 0.2422
C25 C 0.5258(3) 0.8178(2) 0.3241(2)
C26 C 0.4002(3) 0.8481(3) 0.2841(2)
C27 C 0.2944(3) 0.8037(3) 0.3465(3)
H21 H 0.3036 0.7568 0.4107
C28 C 0.1758(3) 0.8282(3) 0.3147(3)
H22 H 0.1055 0.7983 0.3572
C29 C 0.1627(3) 0.8978(3) 0.2186(3)
H23 H 0.0829 0.9151 0.1970
C30 C 0.2684(3) 0.9423(3) 0.1538(2)
C31 C 0.3868(3) 0.9166(3) 0.1866(2)
H24 H 0.4578 0.9450 0.1437
C32 C 0.2539(3) 1.0121(3) 0.0492(2)
C33 C 1.0291(3) 0.2794(3) 0.7460(3)
C34 C 0.8990(3) 0.3523(3) 0.7726(3)
C35 C 0.8496(3) 0.4454(3) 0.6999(3)
H25 H 0.8959 0.4609 0.6342
C36 C 0.7328(3) 0.5156(3) 0.7235(3)
C37 C 0.6629(4) 0.4907(4) 0.8214(3)
H26 H 0.5839 0.5366 0.8382
C38 C 0.7115(5) 0.3967(4) 0.8947(3)
H27 H 0.6646 0.3802 0.9602
C39 C 0.8285(4) 0.3282(4) 0.8701(3)
H28 H 0.8602 0.2657 0.9191
C40 C 0.6785(3) 0.6158(3) 0.6429(3)
Co1 Co 0.75753(4) 0.87913(3) 0.12995(3)
Co2 Co 0.72590(4) 0.72304(3) 0.41841(3)
N1 N 0.7383(3) 0.8688(2) 0.4398(2)
N2 N 0.7852(3) 1.0228(2) 0.4325(2)
N3 N 0.7652(3) 1.4042(2) 0.3884(2)
N4 N 0.7107(3) 1.5754(2) 0.3937(2)
N5 N 0.7435(3) 0.7337(2) 0.1062(2)
N6 N 0.7819(3) 0.5606(2) 0.1109(2)
N7 N 0.7395(3) 0.0275(2) 0.1600(2)
N8 N 0.7793(3) 0.1814(2) 0.1599(2)
O1 O 0.5218(2) 0.77415(19) 0.41786(17)
O2 O 0.6331(2) 0.83241(19) 0.26691(17)
O3 O 0.3550(2) 1.0346(2) -0.01384(17)
O4 O 0.1422(2) 1.04645(19) 0.02409(17)
O5 O 1.0720(2) 0.2006(2) 0.8169(2)
O6 O 1.0846(2) 0.3027(2) 0.65578(19)
O7 O 0.7558(3) 0.6341(2) 0.55855(19)
O8 O 0.5672(3) 0.6703(2) 0.6635(2)
Co1_2 Co 0.75753(4) -0.12087(3) 0.12995(3)
Co1A Co 0.24247(4) 1.12087(3) -0.12995(3)
Co1A_2 Co 1.24247(4) 0.12087(3) 0.87005(3)
Co2_2 Co 0.72590(4) 1.72304(3) 0.41841(3)
Co2A Co 1.27410(4) 0.27696(3) 0.58159(3)
N4_2 N 0.7107(3) 0.5754(2) 0.3937(2)
N7_2 N 0.7395(3) 1.0275(2) 0.1600(2)
O3A O 0.6450(2) 0.9654(2) 0.01384(17)
O4A O 0.8578(2) 0.95355(19) -0.02409(17)
O5A O 0.9280(2) 0.7994(2) 0.1831(2)
O6A O 0.9154(2) 0.6973(2) 0.34422(19)
loop_
_geom_bond_atom_site_label_1
_geom_bond_atom_site_label_2
_geom_bond_site_symmetry_1
_geom_bond_site_symmetry_2
C1 H1 1_555 1_555
C2 H2 1_555 1_555
C3 C2 1_555 1_555
H3 C3 1_555 1_555
C4 C5 1_555 1_555
C5 H4 1_555 1_555
C6 C5 1_555 1_555
C7 C6 1_555 1_555
H5 C7 1_555 1_555
C8 C7 1_555 1_555
H6 C8 1_555 1_555
C9 C4 1_555 1_555
H7 C9 1_555 1_555
C10 H8 1_555 1_555
C11 C10 1_555 1_555
H9 C11 1_555 1_555
C12 H10 1_555 1_555
C13 H11 1_555 1_555
C14 H12 1_555 1_555
C15 C14 1_555 1_555
H13 C15 1_555 1_555
C16 C17 1_555 1_555
C17 H14 1_555 1_555
C18 C17 1_555 1_555
H15 C18 1_555 1_555
C19 C18 1_555 1_555
H16 C19 1_555 1_555
C20 C19 1_555 1_555
C21 C16 1_555 1_555
H17 C21 1_555 1_555
C22 H18 1_555 1_555
C23 H19 1_555 1_555
C24 C23 1_555 1_555
H20 C24 1_555 1_555
C25 C26 1_555 1_555
C26 C27 1_555 1_555
C27 H21 1_555 1_555
C28 C27 1_555 1_555
H22 C28 1_555 1_555
C29 C28 1_555 1_555
H23 C29 1_555 1_555
C30 C29 1_555 1_555
C31 C26 1_555 1_555
H24 C31 1_555 1_555
C32 C30 1_555 1_555
C33 C34 1_555 1_555
C34 C35 1_555 1_555
C35 H25 1_555 1_555
C36 C35 1_555 1_555
C37 C36 1_555 1_555
H26 C37 1_555 1_555
C38 C37 1_555 1_555
H27 C38 1_555 1_555
C39 C34 1_555 1_555
H28 C39 1_555 1_555
C40 C36 1_555 1_555
Co1 N5 1_555 1_555
Co2 N1 1_555 1_555
N1 C1 1_555 1_555
N2 C1 1_555 1_555
N3 C6 1_555 1_555
N4 C11 1_555 1_555
N5 C13 1_555 1_555
N6 C13 1_555 1_555
N7 C22 1_555 1_555
N8 C20 1_555 1_555
O1 C25 1_555 1_555
O2 C25 1_555 1_555
O3 C32 1_555 1_555
O4 C32 1_555 1_555
O5 C33 1_555 1_555
O6 C33 1_555 1_555
O7 C40 1_555 1_555
O8 C40 1_555 1_555
Co1_2 N7 1_555 1_555
Co1A O3 1_555 1_555
Co1A_2 O5 1_555 1_555
Co2_2 N4 1_555 1_555
Co2A O6 1_555 1_555
N4_2 Co2 1_555 1_555
N7_2 Co1 1_555 1_555
O3A Co1 1_555 1_555
O4A Co1 1_555 1_555
O5A Co1 1_555 1_555
O6A Co2 1_555 1_555
C2 N1 1_555 1_555
C3 N2 1_555 1_555
C4 N2 1_555 1_555
C8 C9 1_555 1_555
C10 N3 1_555 1_555
C12 N3 1_555 1_555
C12 N4 1_555 1_555
C14 N6 1_555 1_555
C15 N5 1_555 1_555
C16 N6 1_555 1_555
C20 C21 1_555 1_555
C22 N8 1_555 1_555
C23 N7 1_555 1_555
C24 N8 1_555 1_555
C30 C31 1_555 1_555
C38 C39 1_555 1_555
Co1 O2 1_555 1_555
Co2 O1 1_555 1_555
Co2 O2 1_555 1_555
Co2 O7 1_555 1_555
O4 Co1A 1_555 1_555

#END
