
#######################################################################
#
#                 Cambridge Crystallographic Data Centre
#                                CCDC 
#
#######################################################################
#
# If this CIF has been generated from an entry in the Cambridge 
# Structural Database, then it will include bibliographic, chemical, 
# crystal, experimental, refinement or atomic coordinate data resulting 
# from the CCDC's data processing and validation procedures.
#
#######################################################################

data_PUCZOD
_symmetry_cell_setting           triclinic
_symmetry_space_group_name_H-M   'P -1'
_symmetry_Int_Tables_number      2
_space_group_name_Hall           '-P 1'
loop_
_symmetry_equiv_pos_site_id
_symmetry_equiv_pos_as_xyz
1 x,y,z
2 -x,-y,-z
_cell_length_a                   8.1568(5)
_cell_length_b                   10.2274(6)
_cell_length_c                   12.8309(7)
_cell_angle_alpha                100.579(1)
_cell_angle_beta                 101.561(1)
_cell_angle_gamma                104.852(1)
_cell_volume                     981.943
loop_
_atom_site_label
_atom_site_type_symbol
_atom_site_fract_x
_atom_site_fract_y
_atom_site_fract_z
Eu1 Eu 0.502853(11) 0.604591(8) 0.662099(6)
Na1 Na 0.69547(13) 0.44258(10) 0.87566(7)
O1 O 0.4541(2) 0.53198(16) 0.82702(12)
N1 N 0.6292(2) 0.86323(17) 0.77931(14)
C1 C 0.7629(3) 0.9497(2) 0.73561(17)
H1 H 0.8740 0.9897 0.7944
H2 H 0.7229 1.0286 0.7181
O2 O 0.2789(2) 0.44909(17) 0.92933(13)
N2 N 0.3489(2) 0.78107(18) 0.58236(13)
C2 C 0.8015(3) 0.8740(2) 0.63398(18)
N3 N 0.2490(2) 0.67546(17) 0.74476(14)
C3 C 0.4718(3) 0.9150(2) 0.78035(16)
O3 O 0.4804(2) 1.27196(16) 0.92991(14)
H3 H 0.399(4) 1.294(4) 0.918(4)
C4 C 0.3389(3) 0.8149(2) 0.82123(16)
H4 H 0.4008 0.8022 0.8916
H5 H 0.2487 0.8592 0.8364
C5 C 0.1023(3) 0.6841(2) 0.65955(17)
H6 H 0.0608 0.7624 0.6892
H7 H 0.0034 0.5968 0.6407
O4 O 0.9136(4) 0.9434(2) 0.5969(2)
O5 O 0.7187(2) 0.74473(16) 0.59430(13)
C6 C 0.1580(3) 0.7062(2) 0.55653(17)
H8 H 0.1313 0.6145 0.5044
H9 H 0.0902 0.7608 0.5208
O6 O 0.7784(2) 0.65318(16) 0.79815(13)
C7 C 0.3903(3) 0.9181(2) 0.66160(16)
H10 H 0.2813 0.9445 0.6591
H11 H 0.4734 0.9901 0.6395
O7 O 0.9877(2) 0.79792(19) 0.94321(16)
C8 C 0.7257(3) 0.8574(2) 0.88962(16)
H12 H 0.6406 0.8208 0.9304
H13 H 0.7991 0.9526 0.9323
O8 O 0.2425(2) 0.40291(17) 0.59154(14)
C9 C 0.8422(3) 0.7631(2) 0.87646(17)
H14 H 0.188(4) 0.350(3) 0.621(2)
H15 H 0.226(5) 0.353(4) 0.536(4)
C10 C 0.1795(3) 0.5783(2) 0.80836(17)
H16 H 0.0771 0.5017 0.7594
H17 H 0.1388 0.6284 0.8668
O9 O 0.3960(2) 0.56238(16) 0.45440(12)
C11 C 0.3163(3) 0.5171(2) 0.86001(16)
O10 O 0.4017(3) 0.6580(2) 0.31294(14)
C12 C 0.5279(3) 1.0629(2) 0.85762(17)
H18 H 0.5588 1.0542 0.9342
H19 H 0.6361 1.1189 0.8438
C13 C 0.3957(3) 1.1446(2) 0.84928(19)
H22 H 0.3671 1.1616 0.7752
H23 H 0.2860 1.0933 0.8644
O12 O 0.9210(3) 0.3347(2) 0.89727(19)
C14 C 0.3892(3) 0.7988(2) 0.47804(17)
H24 H 0.5047 0.8704 0.4937
H25 H 0.2994 0.8326 0.4366
C15 C 0.3933(3) 0.6633(2) 0.40797(17)
Eu1A Eu 0.497147(11) 0.395409(8) 0.337901(6)
Na1A Na 0.30453(13) 0.55742(10) 1.12434(7)
Na1_2 Na 0.69547(13) 1.44258(10) 0.87566(7)
Na1A_2 Na 0.30453(13) 0.55742(10) 0.12434(7)
O2A O 0.7211(2) 0.55091(17) 1.07067(13)
O3_2 O 0.4804(2) 0.27196(16) 0.92991(14)
H3_2 H 0.399(4) 0.294(4) 0.918(4)
O9A O 0.6040(2) 0.43762(16) 0.54560(12)
O10A O 0.5983(3) 0.3420(2) 0.68706(14)
O11 O 0.0502(4) 0.2263(2) 0.6913(2)
H20 H 0.123(4) 0.151(4) 0.630(3)
H21 H 0.014(7) 0.252(5) 0.748(4)
loop_
_geom_bond_atom_site_label_1
_geom_bond_atom_site_label_2
_geom_bond_site_symmetry_1
_geom_bond_site_symmetry_2
Eu1 O1 1_555 1_555
Na1 O1 1_555 1_555
O1 C11 1_555 1_555
N1 Eu1 1_555 1_555
C1 N1 1_555 1_555
H1 C1 1_555 1_555
H2 C1 1_555 1_555
O2 C11 1_555 1_555
N2 Eu1 1_555 1_555
C2 C1 1_555 1_555
N3 Eu1 1_555 1_555
C3 N1 1_555 1_555
O3 H3 1_555 1_555
C4 N3 1_555 1_555
H4 C4 1_555 1_555
H5 C4 1_555 1_555
C5 N3 1_555 1_555
H6 C5 1_555 1_555
H7 C5 1_555 1_555
O4 C2 1_555 1_555
O5 Eu1 1_555 1_555
C6 N2 1_555 1_555
H8 C6 1_555 1_555
H9 C6 1_555 1_555
O6 Eu1 1_555 1_555
C7 N2 1_555 1_555
H10 C7 1_555 1_555
H11 C7 1_555 1_555
O7 C9 1_555 1_555
C8 N1 1_555 1_555
H12 C8 1_555 1_555
H13 C8 1_555 1_555
O8 Eu1 1_555 1_555
C9 O6 1_555 1_555
H14 O8 1_555 1_555
H15 O8 1_555 1_555
C10 N3 1_555 1_555
H16 C10 1_555 1_555
H17 C10 1_555 1_555
O9 Eu1 1_555 1_555
C11 C10 1_555 1_555
O10 C15 1_555 1_555
C12 C3 1_555 1_555
H18 C12 1_555 1_555
H19 C12 1_555 1_555
O11 H20 1_555 1_555
H21 O11 1_555 1_555
C13 O3 1_555 1_555
H22 C13 1_555 1_555
H23 C13 1_555 1_555
O12 Na1 1_555 1_555
C14 N2 1_555 1_555
H24 C14 1_555 1_555
H25 C14 1_555 1_555
C15 O9 1_555 1_555
Eu1A O9 1_555 1_555
Na1A O2 1_555 1_555
Na1_2 O3 1_555 1_555
Na1A_2 O10 1_555 1_555
O2A Na1 1_555 1_555
O3_2 Na1 1_555 1_555
H3_2 O3_2 1_555 1_555
O9A Eu1 1_555 1_555
O10A Na1 1_555 1_555
Na1 O6 1_555 1_555
C2 O5 1_555 1_555
C3 C4 1_555 1_555
C3 C7 1_555 1_555
C5 C6 1_555 1_555
C8 C9 1_555 1_555
C12 C13 1_555 1_555
C14 C15 1_555 1_555
Eu1A O9A 1_555 1_555

#END
