
#######################################################################
#
#                 Cambridge Crystallographic Data Centre
#                                CCDC 
#
#######################################################################
#
# If this CIF has been generated from an entry in the Cambridge 
# Structural Database, then it will include bibliographic, chemical, 
# crystal, experimental, refinement or atomic coordinate data resulting 
# from the CCDC's data processing and validation procedures.
#
#######################################################################

data_PUDCUN
_symmetry_cell_setting           triclinic
_symmetry_space_group_name_H-M   'P -1'
_symmetry_Int_Tables_number      2
_space_group_name_Hall           '-P 1'
loop_
_symmetry_equiv_pos_site_id
_symmetry_equiv_pos_as_xyz
1 x,y,z
2 -x,-y,-z
_cell_length_a                   10.5277(2)
_cell_length_b                   11.3546(2)
_cell_length_c                   17.9779(3)
_cell_angle_alpha                89.436(1)
_cell_angle_beta                 84.930(1)
_cell_angle_gamma                85.119(1)
_cell_volume                     2132.86
loop_
_atom_site_label
_atom_site_type_symbol
_atom_site_fract_x
_atom_site_fract_y
_atom_site_fract_z
Cd1 Cd 0.86669(3) 0.08069(2) 0.062257(15)
Cd2 Cd 1.36713(3) -0.42956(2) 0.568518(15)
O8 O 1.1829(3) -0.3451(2) 0.64491(15)
O9 O 1.3349(3) -0.2303(2) 0.60889(16)
O10 O 1.0873(2) 0.0698(2) 0.03069(14)
O11 O 1.2926(3) 0.0234(2) 0.00802(16)
O12 O 1.3123(3) 0.8302(3) -0.13073(17)
O13 O 1.1339(3) 0.7464(2) -0.14163(15)
O14 O 0.7092(3) -0.3743(2) 0.40390(16)
O15 O 0.5469(3) -0.3834(3) 0.48704(15)
N1 N 0.8994(3) -0.0540(3) 0.15683(17)
N2 N 0.9426(3) -0.2935(3) 0.33351(18)
H5 H 0.873(3) -0.330(3) 0.347(2)
N3 N 1.2360(3) -0.3875(3) 0.47178(17)
N4 N 0.8465(3) 0.2257(3) -0.02872(17)
N5 N 0.8079(3) 0.4729(3) -0.20171(19)
H6 H 0.866(3) 0.525(3) -0.205(2)
N6 N 0.5182(3) 0.5337(3) -0.34681(16)
C1 C 0.8019(4) -0.1115(4) 0.1893(2)
H7 H 0.7202 -0.0975 0.1707
C2 C 0.8144(4) -0.1891(4) 0.2476(2)
H8 H 0.7423 -0.2268 0.2686
C3 C 0.9331(4) -0.2126(3) 0.2760(2)
C4 C 1.0351(4) -0.1549(3) 0.2420(2)
H9 H 1.1183 -0.1688 0.2586
C5 C 1.0131(4) -0.0780(3) 0.1844(2)
H10 H 1.0834 -0.0389 0.1624
C6 C 1.1529(4) -0.4630(4) 0.4538(2)
H11 H 1.1605 -0.5408 0.4738
C7 C 1.0574(4) -0.4343(4) 0.4081(2)
H12 H 1.0001 -0.4911 0.3978
C8 C 1.0442(4) -0.3221(3) 0.3767(2)
C9 C 1.1311(4) -0.2436(3) 0.3945(2)
H13 H 1.1270 -0.1658 0.3743
C10 C 1.2238(4) -0.2796(4) 0.4418(2)
H14 H 1.2819 -0.2244 0.4537
C11 C 0.7343(4) 0.2495(3) -0.0572(2)
H15 H 0.6639 0.2084 -0.0374
C12 C 0.7147(4) 0.3299(3) -0.1132(2)
H16 H 0.6325 0.3435 -0.1312
C13 C 0.8154(4) 0.3914(3) -0.1437(2)
C14 C 0.9318(4) 0.3715(3) -0.1115(2)
H17 H 1.0026 0.4144 -0.1282
C15 C 0.9422(4) 0.2891(3) -0.0556(2)
H18 H 1.0220 0.2762 -0.0347
C16 C 0.5945(4) 0.6172(4) -0.3309(2)
H19 H 0.5818 0.6926 -0.3537
C17 C 0.6899(4) 0.5998(3) -0.2833(2)
H20 H 0.7407 0.6622 -0.2737
C18 C 0.7115(4) 0.4893(3) -0.2493(2)
C19 C 0.6361(4) 0.4012(4) -0.2679(2)
H21 H 0.6497 0.3235 -0.2484
C20 C 0.5416(4) 0.4276(3) -0.3150(2)
H22 H 0.4894 0.3667 -0.3256
C21 C 1.2264(4) -0.2447(4) 0.6410(2)
C22 C 1.1458(5) -0.1375(4) 0.6732(3)
H23 H 1.0986 -0.1594 0.7207
H24 H 1.2022 -0.0756 0.6841
C23 C 1.0541(8) -0.0905(6) 0.6207(4)
H25 H 1.0247 -0.0084 0.6359
H26 H 1.1014 -0.0861 0.5708
C24 C 0.9472(7) -0.1494(6) 0.6129(6)
H27 H 0.9437 -0.2027 0.6568
H28 H 0.9737 -0.2017 0.5696
C25 C 0.7627(5) -0.1621(5) 0.5364(4)
H29 H 0.7663 -0.2486 0.5445
H30 H 0.8313 -0.1476 0.4969
C26 C 0.5953(6) -0.1909(4) 0.4488(3)
H31 H 0.6317 -0.1598 0.4006
H32 H 0.5015 -0.1722 0.4511
C27 C 0.6204(4) -0.3237(4) 0.4466(2)
C28 C 1.2013(4) 0.0816(3) 0.0443(2)
C29 C 1.2264(4) 0.1648(4) 0.1053(2)
H33 H 1.2642 0.1190 0.1462
H34 H 1.1445 0.2063 0.1258
C30 C 1.3181(4) 0.2560(4) 0.0750(2)
H35 H 1.3353 0.3078 0.1163
H36 H 1.4005 0.2143 0.0554
C31 C 1.2624(4) 0.3315(4) 0.0132(3)
H37 H 1.2369 0.2785 -0.0253
H38 H 1.1842 0.3782 0.0344
C32 C 1.3527(4) 0.4145(4) -0.0237(3)
H39 H 1.4307 0.3679 -0.0454
H40 H 1.3786 0.4674 0.0147
C33 C 1.2951(4) 0.4900(4) -0.0852(2)
H41 H 1.2596 0.4376 -0.1204
H42 H 1.2236 0.5439 -0.0625
C34 C 1.3907(4) 0.5621(4) -0.1281(3)
H43 H 1.4608 0.5079 -0.1520
H44 H 1.4284 0.6123 -0.0926
C35 C 1.3332(5) 0.6411(4) -0.1881(2)
H45 H 1.4027 0.6686 -0.2231
H46 H 1.2785 0.5953 -0.2170
C36 C 1.2546(5) 0.7460(4) -0.1524(2)
C37 C 0.7947(18) -0.1106(12) 0.6030(14)
H47 H 0.7406 -0.1385 0.6463
H48 H 0.7800 -0.0234 0.6002
C38 C 0.6414(12) -0.1268(10) 0.5064(8)
H49 H 0.5748 -0.1243 0.5490
H50 H 0.6459 -0.0445 0.4883
Cd1A Cd 1.13331(3) -0.08069(2) -0.062257(15)
Cd1A_2 Cd 1.13331(3) 0.91931(2) -0.062257(15)
Cd2A Cd 0.63287(3) -0.57044(2) 0.431482(15)
Cd2_2 Cd 0.36713(3) -0.42956(2) 0.568518(15)
Cd2_3 Cd 0.36713(3) 0.57044(2) -0.431482(15)
O10A O 0.9127(2) -0.0698(2) -0.03069(14)
O11A O 0.7074(3) -0.0234(2) -0.00802(16)
O12A O 0.6877(3) 0.1698(3) 0.13073(17)
O13A O 0.8661(3) 0.2536(2) 0.14163(15)
O14A O 1.2908(3) -0.6257(2) 0.59610(16)
O15_2 O 1.5469(3) -0.3834(3) 0.48704(15)
O15A O 1.4531(3) -0.6166(3) 0.51296(15)
N6_2 N 1.5182(3) -0.4663(3) 0.65319(16)
O1 O 1.0118(4) 0.6075(3) -0.23081(19)
H1 H 1.037(5) 0.654(4) -0.199(2)
H2 H 1.056(4) 0.620(5) -0.2717(16)
O2 O 1.5053(4) 0.0740(4) -0.0929(2)
H3 H 1.505(6) 0.014(4) -0.127(3)
H4 H 1.553(5) 0.040(4) -0.062(2)
O3 O 1.4674(6) -0.0930(5) 0.7236(4)
O5 O 1.6261(12) 0.1010(12) -0.2472(9)
O4? O 1.4806(12) -0.0587(10) 0.6656(9)
O6? O 1.5421(12) 0.1400(11) -0.2497(7)
O7? O 1.5159(12) -0.1202(13) 0.7993(7)
C39? C 0.8776(8) -0.0980(7) 0.5419(5)
H51? H 0.8532 -0.0123 0.5482
H52? H 0.9362 -0.1096 0.4958
C40? C 0.6998(9) -0.1262(8) 0.4598(5)
H53? H 0.6712 -0.0408 0.4610
H54? H 0.7656 -0.1399 0.4173
loop_
_geom_bond_atom_site_label_1
_geom_bond_atom_site_label_2
_geom_bond_site_symmetry_1
_geom_bond_site_symmetry_2
Cd1 O10 1_555 1_555
Cd2 O8 1_555 1_555
O1 H1 1_555 1_555
H2 O1 1_555 1_555
O2 H3 1_555 1_555
H4 O2 1_555 1_555
O8 C21 1_555 1_555
O9 Cd2 1_555 1_555
O10 C28 1_555 1_555
O11 C28 1_555 1_555
O12 C36 1_555 1_555
O13 C36 1_555 1_555
O14 C27 1_555 1_555
O15 C27 1_555 1_555
N1 Cd1 1_555 1_555
N2 H5 1_555 1_555
N3 Cd2 1_555 1_555
N4 Cd1 1_555 1_555
N5 H6 1_555 1_555
N6 C16 1_555 1_555
C1 N1 1_555 1_555
H7 C1 1_555 1_555
C2 C1 1_555 1_555
H8 C2 1_555 1_555
C3 N2 1_555 1_555
C4 C3 1_555 1_555
H9 C4 1_555 1_555
C5 N1 1_555 1_555
H10 C5 1_555 1_555
C6 N3 1_555 1_555
H11 C6 1_555 1_555
C7 C6 1_555 1_555
H12 C7 1_555 1_555
C8 N2 1_555 1_555
C9 C8 1_555 1_555
H13 C9 1_555 1_555
C10 N3 1_555 1_555
H14 C10 1_555 1_555
C11 N4 1_555 1_555
H15 C11 1_555 1_555
C12 C11 1_555 1_555
H16 C12 1_555 1_555
C13 N5 1_555 1_555
C14 C13 1_555 1_555
H17 C14 1_555 1_555
C15 N4 1_555 1_555
H18 C15 1_555 1_555
C16 H19 1_555 1_555
C17 C16 1_555 1_555
H20 C17 1_555 1_555
C18 N5 1_555 1_555
C19 C18 1_555 1_555
H21 C19 1_555 1_555
C20 N6 1_555 1_555
H22 C20 1_555 1_555
C21 O9 1_555 1_555
C22 C21 1_555 1_555
H23 C22 1_555 1_555
H24 C22 1_555 1_555
C23 C22 1_555 1_555
H25 C23 1_555 1_555
H26 C23 1_555 1_555
C24 C23 1_555 1_555
H27 C24 1_555 1_555
H28 C24 1_555 1_555
C25 H29 1_555 1_555
H30 C25 1_555 1_555
C26 H31 1_555 1_555
H32 C26 1_555 1_555
C27 C26 1_555 1_555
C28 C29 1_555 1_555
C29 H33 1_555 1_555
H34 C29 1_555 1_555
C30 C29 1_555 1_555
H35 C30 1_555 1_555
H36 C30 1_555 1_555
C31 C30 1_555 1_555
H37 C31 1_555 1_555
H38 C31 1_555 1_555
C32 C31 1_555 1_555
H39 C32 1_555 1_555
H40 C32 1_555 1_555
C33 C32 1_555 1_555
H41 C33 1_555 1_555
H42 C33 1_555 1_555
C34 C33 1_555 1_555
H43 C34 1_555 1_555
H44 C34 1_555 1_555
C35 C34 1_555 1_555
H45 C35 1_555 1_555
H46 C35 1_555 1_555
C36 C35 1_555 1_555
C37 C24 1_555 1_555
H47 C37 1_555 1_555
H48 C37 1_555 1_555
C38 C25 1_555 1_555
H49 C38 1_555 1_555
H50 C38 1_555 1_555
Cd1A O10 1_555 1_555
Cd1A_2 O12 1_555 1_555
Cd2A O14 1_555 1_555
Cd2_2 O15 1_555 1_555
Cd2_3 N6 1_555 1_555
O10A Cd1 1_555 1_555
O11A Cd1 1_555 1_555
O12A Cd1 1_555 1_555
O13A Cd1 1_555 1_555
O14A Cd2 1_555 1_555
O15_2 Cd2 1_555 1_555
O15A Cd2 1_555 1_555
N6_2 Cd2 1_555 1_555
O11 Cd1A 1_555 1_555
O13 Cd1A_2 1_555 1_555
O15 Cd2A 1_555 1_555
C2 C3 1_555 1_555
C4 C5 1_555 1_555
C7 C8 1_555 1_555
C9 C10 1_555 1_555
C12 C13 1_555 1_555
C14 C15 1_555 1_555
C17 C18 1_555 1_555
C19 C20 1_555 1_555
C25 C37 1_555 1_555
C26 C38 1_555 1_555
Cd1A O10A 1_555 1_555

#END
