
#######################################################################
#
#                 Cambridge Crystallographic Data Centre
#                                CCDC 
#
#######################################################################
#
# If this CIF has been generated from an entry in the Cambridge 
# Structural Database, then it will include bibliographic, chemical, 
# crystal, experimental, refinement or atomic coordinate data resulting 
# from the CCDC's data processing and validation procedures.
#
#######################################################################

data_PUDFOL
_symmetry_cell_setting           monoclinic
_symmetry_space_group_name_H-M   'P 21/n'
_symmetry_Int_Tables_number      14
_space_group_name_Hall           '-P 2yn'
loop_
_symmetry_equiv_pos_site_id
_symmetry_equiv_pos_as_xyz
1 x,y,z
2 1/2-x,1/2+y,1/2-z
3 -x,-y,-z
4 1/2+x,1/2-y,1/2+z
_cell_length_a                   14.3310(2)
_cell_length_b                   8.28530(10)
_cell_length_c                   18.4066(4)
_cell_angle_alpha                90
_cell_angle_beta                 90.173(2)
_cell_angle_gamma                90
_cell_volume                     2185.53
loop_
_atom_site_label
_atom_site_type_symbol
_atom_site_fract_x
_atom_site_fract_y
_atom_site_fract_z
Zn1 Zn 0.749865(18) 0.93072(4) 0.027175(16)
O1 O 0.29971(12) 0.7837(2) -0.11889(10)
O2 O 0.36330(12) 0.9429(2) -0.03569(11)
O3 O 1.23324(12) 0.8320(2) 0.10066(11)
O4 O 1.14544(12) 0.9843(2) 0.02825(11)
N1 N 0.69925(15) 0.4745(3) -0.06499(13)
H1 H 0.7177 0.3793 -0.0768
N2 N 0.70417(14) 0.7252(3) -0.02326(12)
N3 N 0.82668(15) 0.7721(3) 0.23468(12)
H2 H 0.8121 0.7395 0.2775
N4 N 0.80991(14) 0.8635(3) 0.12205(12)
C1 C 0.8678(2) 0.4652(5) 0.0505(2)
H3 H 0.8448 0.3578 0.0425
H4 H 0.8351 0.5132 0.0905
H5 H 0.9333 0.4608 0.0616
C2 C 0.85261(19) 0.5653(4) -0.01703(19)
H6 H 0.8822 0.6696 -0.0104
H7 H 0.8826 0.5123 -0.0577
C3 C 0.75224(18) 0.5906(3) -0.03480(15)
C4 C 0.60988(18) 0.5347(3) -0.07380(15)
C5 C 0.52857(19) 0.4658(3) -0.10084(16)
H8 H 0.5270 0.3601 -0.1178
C6 C 0.45049(18) 0.5624(3) -0.10116(15)
H9 H 0.3946 0.5208 -0.1189
C7 C 0.45254(16) 0.7221(3) -0.07550(13)
C8 C 0.53387(16) 0.7892(3) -0.04841(13)
H10 H 0.5354 0.8947 -0.0312
C9 C 0.61330(16) 0.6929(3) -0.04782(13)
C10 C 0.36513(16) 0.8206(3) -0.07776(13)
C11 C 0.6266(2) 0.7307(7) 0.2552(2)
H11 H 0.6478 0.6210 0.2520
H12 H 0.5596 0.7329 0.2544
H13 H 0.6486 0.7777 0.2998
C12 C 0.66321(19) 0.8241(4) 0.19282(17)
H14 H 0.6444 0.9358 0.1987
H15 H 0.6337 0.7840 0.1489
C13 C 0.76626(17) 0.8198(3) 0.18232(15)
C14 C 0.91585(18) 0.7851(3) 0.20712(14)
C15 C 1.00311(18) 0.7477(4) 0.23635(15)
H16 H 1.0097 0.7040 0.2826
C16 C 1.07886(19) 0.7791(4) 0.19300(15)
H17 H 1.1381 0.7542 0.2104
C17 C 1.07038(17) 0.8470(3) 0.12378(14)
C18 C 0.98261(17) 0.8799(3) 0.09446(14)
H18 H 0.9760 0.9235 0.0482
C19 C 0.90576(17) 0.8453(3) 0.13685(14)
C20 C 1.15653(17) 0.8891(3) 0.08178(14)
Zn1B Zn 0.250135(18) 1.06928(4) -0.027175(16)
Zn1B_2 Zn 1.250135(18) 1.06928(4) -0.027175(16)
O2B O 0.63670(12) 1.0571(2) 0.03569(11)
O4B O 0.85456(12) 1.0157(2) -0.02825(11)
O5 O 0.1043(2) 0.3931(5) 0.3096(2)
H19 H 0.1462 0.3929 0.3400
C21 C 0.1561(4) 0.2069(7) 0.2280(4)
H20 H 0.1903 0.1622 0.2681
H21 H 0.1904 0.1900 0.1839
H22 H 0.0964 0.1548 0.2244
C22 C 0.1435(5) 0.3701(8) 0.2388(4)
H23 H 0.1018 0.4134 0.2021
H24 H 0.2028 0.4260 0.2354
loop_
_geom_bond_atom_site_label_1
_geom_bond_atom_site_label_2
_geom_bond_site_symmetry_1
_geom_bond_site_symmetry_2
Zn1 N2 1_555 1_555
O1 C10 1_555 1_555
O2 C10 1_555 1_555
O3 C20 1_555 1_555
O4 C20 1_555 1_555
N1 H1 1_555 1_555
N2 C3 1_555 1_555
N3 H2 1_555 1_555
N4 Zn1 1_555 1_555
C1 H3 1_555 1_555
H4 C1 1_555 1_555
H5 C1 1_555 1_555
C2 C1 1_555 1_555
H6 C2 1_555 1_555
H7 C2 1_555 1_555
C3 N1 1_555 1_555
C4 N1 1_555 1_555
C5 C4 1_555 1_555
H8 C5 1_555 1_555
C6 C5 1_555 1_555
H9 C6 1_555 1_555
C7 C6 1_555 1_555
C8 C7 1_555 1_555
H10 C8 1_555 1_555
C9 N2 1_555 1_555
C10 C7 1_555 1_555
C11 H11 1_555 1_555
H12 C11 1_555 1_555
H13 C11 1_555 1_555
C12 C11 1_555 1_555
H14 C12 1_555 1_555
H15 C12 1_555 1_555
C13 N3 1_555 1_555
C14 N3 1_555 1_555
C15 C14 1_555 1_555
H16 C15 1_555 1_555
C16 C15 1_555 1_555
H17 C16 1_555 1_555
C17 C16 1_555 1_555
C18 C17 1_555 1_555
H18 C18 1_555 1_555
C19 N4 1_555 1_555
C20 C17 1_555 1_555
O5 H19 1_555 1_555
C21 H20 1_555 1_555
H21 C21 1_555 1_555
H22 C21 1_555 1_555
C22 O5 1_555 1_555
H23 C22 1_555 1_555
H24 C22 1_555 1_555
Zn1B O2 1_555 1_555
Zn1B_2 O4 1_555 1_555
O2B Zn1 1_555 1_555
O4B Zn1 1_555 1_555
N4 C13 1_555 1_555
C2 C3 1_555 1_555
C4 C9 1_555 1_555
C8 C9 1_555 1_555
C12 C13 1_555 1_555
C14 C19 1_555 1_555
C18 C19 1_555 1_555
C21 C22 1_555 1_555

#END
