
#######################################################################
#
#                 Cambridge Crystallographic Data Centre
#                                CCDC 
#
#######################################################################
#
# If this CIF has been generated from an entry in the Cambridge 
# Structural Database, then it will include bibliographic, chemical, 
# crystal, experimental, refinement or atomic coordinate data resulting 
# from the CCDC's data processing and validation procedures.
#
#######################################################################

data_PUDFIE
_symmetry_cell_setting           monoclinic
_symmetry_space_group_name_H-M   'C 2/c'
_symmetry_Int_Tables_number      15
_space_group_name_Hall           '-C 2yn'
loop_
_symmetry_equiv_pos_site_id
_symmetry_equiv_pos_as_xyz
1 x,y,z
2 -x,y,1/2-z
3 1/2+x,1/2+y,z
4 1/2-x,1/2+y,1/2-z
5 -x,-y,-z
6 x,-y,1/2+z
7 1/2-x,1/2-y,-z
8 1/2+x,1/2-y,1/2+z
_cell_length_a                   24.246(2)
_cell_length_b                   15.4248(14)
_cell_length_c                   9.3641(8)
_cell_angle_alpha                90
_cell_angle_beta                 96.443(2)
_cell_angle_gamma                90
_cell_volume                     3479.96
loop_
_atom_site_label
_atom_site_type_symbol
_atom_site_fract_x
_atom_site_fract_y
_atom_site_fract_z
Ni1 Ni 0.107397(11) 0.219877(16) 0.10284(3)
N1 N 0.02941(7) 0.27241(10) 0.03001(19)
C1 C -0.00947(9) 0.22204(14) -0.0441(2)
H1 H -0.0061 0.1609 -0.0351
C2 C -0.05347(9) 0.25509(14) -0.1315(3)
H2 H -0.0802 0.2185 -0.1832
C3 C -0.05707(9) 0.34508(14) -0.1410(2)
H3 H -0.0859 0.3703 -0.2048
N2 N -0.02137(7) 0.39689(11) -0.0635(2)
C4 C 0.02008(8) 0.35836(13) 0.0212(2)
N3 N 0.05361(7) 0.41578(11) 0.10245(19)
H4 H 0.0491 0.4703 0.0762
C5 C 0.09310(9) 0.40238(13) 0.2182(2)
N4 N 0.10699(8) 0.47471(12) 0.2937(2)
C6 C 0.14265(10) 0.46456(15) 0.4117(3)
H5 H 0.1539 0.5144 0.4669
C7 C 0.16385(10) 0.38527(15) 0.4571(3)
H6 H 0.1878 0.3791 0.5439
C8 C 0.14852(9) 0.31524(15) 0.3704(2)
H7 H 0.1624 0.2595 0.3984
N5 N 0.11456(7) 0.32312(11) 0.24754(19)
N6 N 0.18805(8) 0.17941(12) 0.1672(2)
C9 C 0.23499(10) 0.16805(15) 0.1751(2)
N7 N 0.2860(4) 0.1361(5) 0.1818(10)
C10 C 0.32280(9) 0.18091(15) 0.1124(2)
N8 N 0.35736(8) 0.20291(11) 0.0473(2)
N9 N 0.07772(8) 0.14256(12) 0.2541(2)
C11 C 0.07074(11) 0.08655(16) 0.3275(3)
N10 N 0.0638(2) 0.0365(3) 0.4422(5)
C12 C 0.07935(11) -0.04696(17) 0.4360(3)
N11 N 0.09520(8) -0.11586(12) 0.4609(2)
Ni1F Ni 0.392603(11) 0.280123(16) -0.10284(3)
Ni1E Ni 0.107397(11) -0.219877(16) 0.60284(3)
N8F N 0.14264(8) 0.29709(11) -0.0473(2)
N11E N 0.09520(8) 0.11586(12) -0.0391(2)
O1 O 0.3106(2) 0.4112(5) 0.3174(7)
C13 C 0.2678(2) 0.4291(4) 0.2035(5)
H8 H 0.2466 0.3749 0.1825
H9 H 0.2421 0.4715 0.2398
C14 C 0.2812(3) 0.4576(5) 0.0863(8)
H10 H 0.2478 0.4665 0.0189
H11 H 0.3056 0.4157 0.0456
H12 H 0.3008 0.5129 0.1030
C15? C 0.3017(3) 0.3748(5) 0.4357(8)
H13? H 0.3367 0.3694 0.4981
H14? H 0.2858 0.3171 0.4157
H15? H 0.2757 0.4101 0.4838
C16? C 0.3106(2) 0.4112(5) 0.3174(7)
H16? H 0.3384 0.3749 0.2756
H17? H 0.3289 0.4672 0.3435
N12? N 0.0462(3) -0.0185(5) -0.1198(9)
N13? N 0.2904(4) 0.1637(5) 0.2106(10)
O2? O 0.2678(2) 0.4291(4) 0.2035(5)
loop_
_geom_bond_atom_site_label_1
_geom_bond_atom_site_label_2
_geom_bond_site_symmetry_1
_geom_bond_site_symmetry_2
Ni1 N1 1_555 1_555
N1 C1 1_555 1_555
C1 H1 1_555 1_555
C2 C1 1_555 1_555
H2 C2 1_555 1_555
C3 C2 1_555 1_555
H3 C3 1_555 1_555
N2 C3 1_555 1_555
C4 N1 1_555 1_555
N3 C4 1_555 1_555
H4 N3 1_555 1_555
C5 N3 1_555 1_555
N4 C5 1_555 1_555
C6 N4 1_555 1_555
H5 C6 1_555 1_555
C7 C6 1_555 1_555
H6 C7 1_555 1_555
C8 C7 1_555 1_555
H7 C8 1_555 1_555
N5 Ni1 1_555 1_555
N6 Ni1 1_555 1_555
C9 N6 1_555 1_555
N7 C9 1_555 1_555
C10 N7 1_555 1_555
N8 C10 1_555 1_555
N9 Ni1 1_555 1_555
C11 N9 1_555 1_555
N10 C11 1_555 1_555
C12 N10 1_555 1_555
N11 C12 1_555 1_555
O1 C13 1_555 1_555
C13 H8 1_555 1_555
H9 C13 1_555 1_555
C14 C13 1_555 1_555
H10 C14 1_555 1_555
H11 C14 1_555 1_555
H12 C14 1_555 1_555
Ni1F N8 1_555 1_555
Ni1E N11 1_555 1_555
N8F Ni1 1_555 1_555
N11E Ni1 1_555 1_555
N2 C4 1_555 1_555
C5 N5 1_555 1_555
C8 N5 1_555 1_555

#END
