
#######################################################################
#
#                 Cambridge Crystallographic Data Centre
#                                CCDC 
#
#######################################################################
#
# If this CIF has been generated from an entry in the Cambridge 
# Structural Database, then it will include bibliographic, chemical, 
# crystal, experimental, refinement or atomic coordinate data resulting 
# from the CCDC's data processing and validation procedures.
#
#######################################################################

data_PUDGUS
_symmetry_cell_setting           monoclinic
_symmetry_space_group_name_H-M   'P 21/n'
_symmetry_Int_Tables_number      14
_space_group_name_Hall           '-P 2yn'
loop_
_symmetry_equiv_pos_site_id
_symmetry_equiv_pos_as_xyz
1 x,y,z
2 1/2-x,1/2+y,1/2-z
3 -x,-y,-z
4 1/2+x,1/2-y,1/2+z
_cell_length_a                   14.0754(5)
_cell_length_b                   8.1320(4)
_cell_length_c                   18.7324(8)
_cell_angle_alpha                90
_cell_angle_beta                 93.462(4)
_cell_angle_gamma                90
_cell_volume                     2140.22
loop_
_atom_site_label
_atom_site_type_symbol
_atom_site_fract_x
_atom_site_fract_y
_atom_site_fract_z
Co1 Co 0.75295(5) 0.91168(10) 0.03479(4)
O1 O 1.1282(2) 0.9685(5) -0.0510(2)
O2 O 1.2007(3) 0.7831(5) -0.1141(2)
O3 O 0.3540(2) 0.9908(5) 0.0199(2)
O4 O 0.2608(2) 0.8613(5) 0.0925(2)
N1 N 0.8016(3) 0.4559(6) -0.0621(3)
H1 H 0.7831 0.3582 -0.0737
N2 N 0.7972(3) 0.7086(6) -0.0183(2)
N3 N 0.6764(3) 0.7675(6) 0.2395(2)
H2 H 0.6913 0.7375 0.2828
N4 N 0.6931(3) 0.8457(6) 0.1273(2)
C1 C 0.5838(6) 0.5917(13) -0.0711(5)
H3 H 0.5949 0.5271 -0.1126
H4 H 0.5954 0.7056 -0.0810
H5 H 0.5190 0.5780 -0.0589
C2 C 0.4182(4) 0.7966(8) 0.1896(3)
H6 H 0.3575 0.7811 0.2054
C3 C 0.6494(4) 0.5365(9) -0.0098(4)
C4 C 0.7503(4) 0.5696(7) -0.0299(3)
C5 C 0.8896(4) 0.5233(7) -0.0732(3)
C6 C 0.8866(3) 0.6827(7) -0.0464(3)
C7 C 0.9642(3) 0.7865(7) -0.0490(3)
H7 H 0.9621 0.8939 -0.0322
C8 C 1.1310(3) 0.8301(7) -0.0821(3)
C9 C 1.0454(3) 0.7239(7) -0.0779(3)
C10 C 1.0476(4) 0.5621(7) -0.1031(3)
H8 H 1.1031 0.5225 -0.1214
C11 C 0.9693(4) 0.4596(7) -0.1017(3)
H9 H 0.9707 0.3526 -0.1192
C12 C 0.8813(5) 0.7549(17) 0.2717(5)
H10 H 0.9495 0.7528 0.2723
H11 H 0.8581 0.6469 0.2820
H12 H 0.8616 0.8308 0.3072
C13 C 0.8440(4) 0.8050(9) 0.2038(4)
H13 H 0.8706 0.7337 0.1686
H14 H 0.8672 0.9152 0.1954
C14 C 0.7377(4) 0.8065(7) 0.1895(3)
C15 C 0.5854(4) 0.7845(7) 0.2087(3)
C16 C 0.5957(4) 0.8370(7) 0.1384(3)
C17 C 0.3406(4) 0.9055(7) 0.0747(3)
C18 C 0.5172(4) 0.8756(7) 0.0938(3)
H15 H 0.5240 0.9130 0.0475
C19 C 0.4279(4) 0.8569(7) 0.1201(3)
C20 C 0.4965(4) 0.7598(8) 0.2350(3)
H16 H 0.4898 0.7203 0.2810
Co1B Co 0.24705(5) 1.08832(10) -0.03479(4)
Co1B_2 Co 1.24705(5) 1.08832(10) -0.03479(4)
O1B O 0.8718(2) 1.0315(5) 0.0510(2)
O3B O 0.6460(2) 1.0092(5) -0.0199(2)
loop_
_geom_bond_atom_site_label_1
_geom_bond_atom_site_label_2
_geom_bond_site_symmetry_1
_geom_bond_site_symmetry_2
Co1 N2 1_555 1_555
O1 C8 1_555 1_555
O2 C8 1_555 1_555
O3 C17 1_555 1_555
O4 C17 1_555 1_555
N1 H1 1_555 1_555
N2 C4 1_555 1_555
N3 H2 1_555 1_555
N4 Co1 1_555 1_555
C1 H3 1_555 1_555
H4 C1 1_555 1_555
H5 C1 1_555 1_555
C2 H6 1_555 1_555
C3 C1 1_555 1_555
C4 N1 1_555 1_555
C5 N1 1_555 1_555
C6 N2 1_555 1_555
C7 C6 1_555 1_555
H7 C7 1_555 1_555
C8 C9 1_555 1_555
C9 C7 1_555 1_555
C10 C9 1_555 1_555
H8 C10 1_555 1_555
C11 C5 1_555 1_555
H9 C11 1_555 1_555
C12 H10 1_555 1_555
H11 C12 1_555 1_555
H12 C12 1_555 1_555
C13 C12 1_555 1_555
H13 C13 1_555 1_555
H14 C13 1_555 1_555
C14 N3 1_555 1_555
C15 N3 1_555 1_555
C16 N4 1_555 1_555
C17 C19 1_555 1_555
C18 C16 1_555 1_555
H15 C18 1_555 1_555
C19 C2 1_555 1_555
C20 C2 1_555 1_555
H16 C20 1_555 1_555
Co1B O3 1_555 1_555
Co1B_2 O1 1_555 1_555
O1B Co1 1_555 1_555
O3B Co1 1_555 1_555
N4 C14 1_555 1_555
C3 C4 1_555 1_555
C5 C6 1_555 1_555
C10 C11 1_555 1_555
C13 C14 1_555 1_555
C15 C16 1_555 1_555
C15 C20 1_555 1_555
C18 C19 1_555 1_555

#END
