
#######################################################################
#
#                 Cambridge Crystallographic Data Centre
#                                CCDC 
#
#######################################################################
#
# If this CIF has been generated from an entry in the Cambridge 
# Structural Database, then it will include bibliographic, chemical, 
# crystal, experimental, refinement or atomic coordinate data resulting 
# from the CCDC's data processing and validation procedures.
#
#######################################################################

data_PUDGAY
_symmetry_cell_setting           monoclinic
_symmetry_space_group_name_H-M   'P 21/n'
_symmetry_Int_Tables_number      14
_space_group_name_Hall           '-P 2yn'
loop_
_symmetry_equiv_pos_site_id
_symmetry_equiv_pos_as_xyz
1 x,y,z
2 1/2-x,1/2+y,1/2-z
3 -x,-y,-z
4 1/2+x,1/2-y,1/2+z
_cell_length_a                   14.2994(3)
_cell_length_b                   8.0692(2)
_cell_length_c                   18.2695(5)
_cell_angle_alpha                90
_cell_angle_beta                 90.551(2)
_cell_angle_gamma                90
_cell_volume                     2107.92
loop_
_atom_site_label
_atom_site_type_symbol
_atom_site_fract_x
_atom_site_fract_y
_atom_site_fract_z
Zn1 Zn 0.25082(3) 0.57120(6) 1.02475(2)
O1 O 0.26634(18) 0.3417(4) 0.89323(16)
O2 O 0.35669(18) 0.4854(4) 0.97047(15)
O3 O -0.20619(18) 0.7287(4) 0.88540(16)
O4 O -0.13802(18) 0.5597(4) 0.96600(16)
N1 N 0.6757(2) 0.2741(4) 0.76267(19)
H1 H 0.6907 0.2433 0.7193
N2 N 0.6918(2) 0.3608(4) 0.87739(17)
N3 N 0.1988(2) 1.0363(4) 0.92932(18)
H2 H 0.2177 1.1330 0.9163
N4 N 0.2033(2) 0.7812(4) 0.97448(17)
C1 C 0.8775(3) 0.2391(7) 0.7422(3)
H3 H 0.8545 0.2877 0.6976
H4 H 0.8575 0.1256 0.7449
H5 H 0.9446 0.2436 0.7432
C2 C 0.8396(3) 0.3334(5) 0.8066(2)
H6 H 0.8704 0.2935 0.8507
H7 H 0.8559 0.4494 0.8010
C3 C 0.7360(3) 0.3211(5) 0.8168(2)
C4 C 0.5862(3) 0.2847(5) 0.7898(2)
C5 C 0.4984(3) 0.2495(5) 0.7593(2)
H8 H 0.4922 0.2059 0.7124
C6 C 0.4218(3) 0.2824(5) 0.8015(2)
H9 H 0.3624 0.2605 0.7827
C7 C 0.4305(3) 0.3486(5) 0.8730(2)
C8 C 0.3444(3) 0.3930(5) 0.9144(2)
C9 C 0.5182(3) 0.3767(5) 0.9041(2)
H10 H 0.5247 0.4169 0.9516
C10 C 0.5953(3) 0.3427(5) 0.8618(2)
C11 C 0.3722(5) 1.0384(9) 1.0439(4)
H11 H 0.3485 1.1489 1.0375
H12 H 0.4382 1.0429 1.0535
H13 H 0.3414 0.9868 1.0844
C12 C 0.3542(3) 0.9410(6) 0.9766(3)
H14 H 0.3835 0.8331 0.9817
H15 H 0.3829 0.9968 0.9355
C13 C 0.2518(3) 0.9180(5) 0.9607(2)
C14 C 0.1092(3) 0.9764(5) 0.9216(2)
C15 C 0.0276(3) 1.0465(5) 0.8950(2)
H16 H 0.0264 1.1539 0.8765
C16 C -0.0520(3) 0.9497(5) 0.8970(2)
H17 H -0.1083 0.9930 0.8797
C17 C -0.0499(3) 0.7875(5) 0.9247(2)
C18 C -0.1392(3) 0.6877(5) 0.9248(2)
C19 C 0.0320(3) 0.7178(5) 0.9514(2)
H18 H 0.0331 0.6102 0.9696
C20 C 0.1124(2) 0.8145(5) 0.9500(2)
Zn1B Zn -0.25082(3) 0.42880(6) 0.97525(2)
Zn1B_2 Zn 0.74918(3) 0.42880(6) 0.97525(2)
O4B O 0.13802(18) 0.4403(4) 1.03400(16)
N2B N 0.3082(2) 0.6392(4) 1.12261(17)
loop_
_geom_bond_atom_site_label_1
_geom_bond_atom_site_label_2
_geom_bond_site_symmetry_1
_geom_bond_site_symmetry_2
Zn1 O2 1_555 1_555
O1 C8 1_555 1_555
O2 C8 1_555 1_555
O3 C18 1_555 1_555
O4 C18 1_555 1_555
N1 H1 1_555 1_555
N2 C3 1_555 1_555
N3 H2 1_555 1_555
N4 Zn1 1_555 1_555
C1 H3 1_555 1_555
H4 C1 1_555 1_555
H5 C1 1_555 1_555
C2 C1 1_555 1_555
H6 C2 1_555 1_555
H7 C2 1_555 1_555
C3 N1 1_555 1_555
C4 N1 1_555 1_555
C5 C4 1_555 1_555
H8 C5 1_555 1_555
C6 C5 1_555 1_555
H9 C6 1_555 1_555
C7 C6 1_555 1_555
C8 C7 1_555 1_555
C9 C7 1_555 1_555
H10 C9 1_555 1_555
C10 N2 1_555 1_555
C11 H11 1_555 1_555
H12 C11 1_555 1_555
H13 C11 1_555 1_555
C12 C11 1_555 1_555
H14 C12 1_555 1_555
H15 C12 1_555 1_555
C13 N3 1_555 1_555
C14 N3 1_555 1_555
C15 C14 1_555 1_555
H16 C15 1_555 1_555
C16 C15 1_555 1_555
H17 C16 1_555 1_555
C17 C16 1_555 1_555
C18 C17 1_555 1_555
C19 C17 1_555 1_555
H18 C19 1_555 1_555
C20 N4 1_555 1_555
Zn1B O4 1_555 1_555
Zn1B_2 N2 1_555 1_555
O4B Zn1 1_555 1_555
N2B Zn1 1_555 1_555
N4 C13 1_555 1_555
C2 C3 1_555 1_555
C4 C10 1_555 1_555
C9 C10 1_555 1_555
C12 C13 1_555 1_555
C14 C20 1_555 1_555
C19 C20 1_555 1_555

#END
