
#######################################################################
#
#                 Cambridge Crystallographic Data Centre
#                                CCDC 
#
#######################################################################
#
# If this CIF has been generated from an entry in the Cambridge 
# Structural Database, then it will include bibliographic, chemical, 
# crystal, experimental, refinement or atomic coordinate data resulting 
# from the CCDC's data processing and validation procedures.
#
#######################################################################

data_PUDGIG
_symmetry_cell_setting           monoclinic
_symmetry_space_group_name_H-M   'P 21/n'
_symmetry_Int_Tables_number      14
_space_group_name_Hall           '-P 2yn'
loop_
_symmetry_equiv_pos_site_id
_symmetry_equiv_pos_as_xyz
1 x,y,z
2 1/2-x,1/2+y,1/2-z
3 -x,-y,-z
4 1/2+x,1/2-y,1/2+z
_cell_length_a                   14.0279(3)
_cell_length_b                   8.1674(3)
_cell_length_c                   18.7317(5)
_cell_angle_alpha                90
_cell_angle_beta                 94.300(2)
_cell_angle_gamma                90
_cell_volume                     2140.08
loop_
_atom_site_label
_atom_site_type_symbol
_atom_site_fract_x
_atom_site_fract_y
_atom_site_fract_z
C1 C 0.9195(2) 0.5931(5) 1.0720(2)
H1 H 0.9836 0.5719 1.0597
H2 H 0.9081 0.5356 1.1153
H3 H 0.9115 0.7085 1.0792
C2 C 0.85048(16) 0.5364(4) 1.01307(15)
H4 H 0.8629 0.5932 0.9692
H5 H 0.8594 0.4201 1.0053
C3 C 0.75024(15) 0.5669(3) 1.02982(12)
C4 C 0.61059(15) 0.5241(3) 1.07377(11)
C5 C 0.53072(16) 0.4611(3) 1.10289(13)
H6 H 0.5295 0.3550 1.1209
C6 C 0.45300(16) 0.5638(3) 1.10377(13)
H7 H 0.3974 0.5251 1.1220
C7 C 0.45493(14) 0.7244(3) 1.07812(10)
C8 C 0.53571(14) 0.7857(3) 1.04834(10)
H8 H 0.5372 0.8919 1.0306
C9 C 0.61372(14) 0.6823(3) 1.04618(10)
C10 C 0.36962(14) 0.8322(3) 1.08195(10)
C11 C -0.3854(2) 0.7565(8) 0.7258(2)
H9 H -0.4539 0.7612 0.7242
H10 H -0.3657 0.6472 0.7151
H11 H -0.3627 0.8310 0.6912
C12 C -0.34704(17) 0.8004(4) 0.79445(14)
H12 H -0.3733 0.7262 0.8284
H13 H -0.3704 0.9091 0.8046
C13 C -0.24018(15) 0.8018(3) 0.80968(12)
C14 C -0.08691(16) 0.7792(3) 0.79097(12)
C15 C 0.00218(16) 0.7535(3) 0.76562(13)
H14 H 0.0088 0.7120 0.7200
C16 C 0.08101(16) 0.7925(3) 0.81157(12)
H15 H 0.1418 0.7770 0.7961
C17 C 0.07212(14) 0.8543(3) 0.88013(11)
C18 C -0.01805(14) 0.8735(3) 0.90615(12)
H16 H -0.0245 0.9129 0.9521
C19 C -0.09730(14) 0.8322(3) 0.86146(11)
C20 C 0.15981(15) 0.9052(2) 0.92566(12)
Co1 Co 0.253924(18) 1.09136(4) 1.035860(15)
N1 N 0.69885(13) 0.4559(2) 1.06266(11)
H17 H 0.7173 0.3588 1.0748
N2 N 0.70272(11) 0.7068(2) 1.01795(9)
N3 N -0.17839(13) 0.7621(3) 0.76016(10)
H18 H -0.1938 0.7315 0.7169
N4 N -0.19484(12) 0.8421(2) 0.87174(9)
O1 O 0.29852(10) 0.7844(2) 1.11292(9)
O2 O 0.37346(10) 0.9717(2) 1.05242(8)
O3 O 0.24023(10) 0.8636(2) 0.90864(9)
O4 O 0.14642(10) 0.9922(2) 0.98031(8)
Co1B Co -0.253924(18) 0.90864(4) 0.964140(15)
Co1B_2 Co 0.746076(18) 0.90864(4) 0.964140(15)
N2B N 0.29728(11) 1.2932(2) 0.98205(9)
N4B N 0.19484(12) 1.1579(2) 1.12826(9)
O5 O 0.6173(10) 0.071(2) 1.1803(8)
H19 H 0.6657 0.0366 1.2063
H20 H 0.6126 0.1708 1.1932
loop_
_geom_bond_atom_site_label_1
_geom_bond_atom_site_label_2
_geom_bond_site_symmetry_1
_geom_bond_site_symmetry_2
C1 H1 1_555 1_555
H2 C1 1_555 1_555
H3 C1 1_555 1_555
C2 C1 1_555 1_555
H4 C2 1_555 1_555
H5 C2 1_555 1_555
C3 C2 1_555 1_555
C4 C5 1_555 1_555
C5 H6 1_555 1_555
C6 C5 1_555 1_555
H7 C6 1_555 1_555
C7 C6 1_555 1_555
C8 C7 1_555 1_555
H8 C8 1_555 1_555
C9 C4 1_555 1_555
C10 C7 1_555 1_555
C11 H9 1_555 1_555
H10 C11 1_555 1_555
H11 C11 1_555 1_555
C12 C11 1_555 1_555
H12 C12 1_555 1_555
H13 C12 1_555 1_555
C13 C12 1_555 1_555
C14 C15 1_555 1_555
C15 H14 1_555 1_555
C16 C15 1_555 1_555
H15 C16 1_555 1_555
C17 C16 1_555 1_555
C18 C17 1_555 1_555
H16 C18 1_555 1_555
C19 C14 1_555 1_555
C20 C17 1_555 1_555
Co1 O2 1_555 1_555
N1 C3 1_555 1_555
H17 N1 1_555 1_555
N2 C3 1_555 1_555
N3 C13 1_555 1_555
H18 N3 1_555 1_555
N4 C13 1_555 1_555
O1 C10 1_555 1_555
O2 C10 1_555 1_555
O3 C20 1_555 1_555
O4 C20 1_555 1_555
O5 H19 1_555 1_555
H20 O5 1_555 1_555
Co1B N4 1_555 1_555
Co1B_2 N2 1_555 1_555
N2B Co1 1_555 1_555
N4B Co1 1_555 1_555
C4 N1 1_555 1_555
C8 C9 1_555 1_555
C9 N2 1_555 1_555
C14 N3 1_555 1_555
C18 C19 1_555 1_555
C19 N4 1_555 1_555
Co1 O4 1_555 1_555

#END
