
#######################################################################
#
#                 Cambridge Crystallographic Data Centre
#                                CCDC 
#
#######################################################################
#
# If this CIF has been generated from an entry in the Cambridge 
# Structural Database, then it will include bibliographic, chemical, 
# crystal, experimental, refinement or atomic coordinate data resulting 
# from the CCDC's data processing and validation procedures.
#
#######################################################################

data_PUDJII
_symmetry_cell_setting           monoclinic
_symmetry_space_group_name_H-M   'P 21/c'
_symmetry_Int_Tables_number      14
_space_group_name_Hall           '-P 2ybc'
loop_
_symmetry_equiv_pos_site_id
_symmetry_equiv_pos_as_xyz
1 x,y,z
2 -x,1/2+y,1/2-z
3 -x,-y,-z
4 x,1/2-y,1/2+z
_cell_length_a                   11.857(4)
_cell_length_b                   13.886(5)
_cell_length_c                   13.460(5)
_cell_angle_alpha                90
_cell_angle_beta                 106.288(6)
_cell_angle_gamma                90
_cell_volume                     2127.19
loop_
_atom_site_label
_atom_site_type_symbol
_atom_site_fract_x
_atom_site_fract_y
_atom_site_fract_z
C1 C 0.6507(18) 0.1454(14) 0.7228(14)
H1 H 0.7259 0.1546 0.7705
C2 C 0.5567(16) 0.1390(14) 0.7608(15)
H2 H 0.5664 0.1432 0.8332
C3 C 0.4472(19) 0.1265(16) 0.6930(15)
H3 H 0.3798 0.1243 0.7179
C4 C 0.4356(17) 0.1172(14) 0.5896(15)
H4 H 0.3609 0.1052 0.5421
C5 C 0.5362(14) 0.1258(11) 0.5548(13)
N1 N 0.6426(7) 0.1297(7) 0.4277(6)
C6 C 0.5333(8) 0.1210(8) 0.4459(6)
C7 C 0.4333(7) 0.1077(9) 0.3634(8)
H5 H 0.3586 0.1018 0.3758
C8 C 0.4427(8) 0.1031(9) 0.2629(7)
H6 H 0.3744 0.0941 0.2066
C9 C 0.5520(9) 0.1118(10) 0.2448(6)
H7 H 0.5584 0.1086 0.1761
C10 C 0.6520(7) 0.1250(9) 0.3272(7)
H8 H 0.7267 0.1310 0.3148
C11 C 0.8858(15) 0.1716(12) 0.4796(13)
C12 C 0.8180(14) 0.0220(13) 0.5757(12)
C13 C 0.8888(17) 0.1867(13) 0.6758(13)
C14 C 0.7364(16) 0.2966(15) 0.5411(13)
C15 C 1.069(2) 0.1148(17) 0.1243(17)
H9 H 1.1157 0.0883 0.0799
H10 H 1.0110 0.1606 0.0826
C16 C 1.008(2) 0.0355(16) 0.1625(17)
H11 H 1.0661 -0.0135 0.1982
H12 H 0.9511 0.0041 0.1034
C17 C 1.2613(17) 0.3257(14) 0.3850(14)
H13 H 1.2140 0.3713 0.3333
H14 H 1.3030 0.2830 0.3481
C18 C 1.3521(18) 0.3829(15) 0.4637(17)
H15 H 1.4082 0.3387 0.5105
H16 H 1.3966 0.4245 0.4283
Fe1 Fe 0.7725(2) 0.15561(16) 0.55307(18)
N2 N 0.6437(13) 0.1394(10) 0.6187(11)
N3 N 0.9530(15) 0.1797(11) 0.4324(12)
N4 N 0.8487(13) -0.0561(10) 0.5914(11)
N5 N 0.9637(14) 0.2137(11) 0.7472(11)
N6 N 0.7206(17) 0.3702(12) 0.5408(13)
N7 N 0.9453(14) 0.0752(11) 0.2361(11)
H17 H 0.9266 0.0261 0.2746
H18 H 0.8769 0.1050 0.1998
N8 N 1.2942(15) 0.4404(12) 0.5217(12)
H19 H 1.234(11) 0.473(6) 0.477(8)
H20 H 1.346(8) 0.484(5) 0.559(4)
Ni1 Ni 1.05570(19) 0.17435(15) 0.33372(16)
O1 O 1.1467(12) 0.1641(10) 0.2129(10)
H21 H 1.1750 0.2248 0.2069
O2 O 1.1804(14) 0.2666(11) 0.4234(11)
H22 H 1.1511 0.3190 0.4500
N4B N 1.1513(13) 0.0561(10) 0.4086(11)
N5C N 0.9637(14) 0.2863(11) 0.2472(11)
Ni1B Ni 0.94430(19) -0.17435(15) 0.66628(16)
Ni1C Ni 1.05570(19) 0.32565(15) 0.83372(16)
O3 O 0.1412(16) 0.3753(17) 0.1368(12)
H23 H 0.1650 0.3599 0.0850
H24 H 0.0666 0.3785 0.1187
loop_
_geom_bond_atom_site_label_1
_geom_bond_atom_site_label_2
_geom_bond_site_symmetry_1
_geom_bond_site_symmetry_2
C1 H1 1_555 1_555
C2 C1 1_555 1_555
H2 C2 1_555 1_555
C3 C2 1_555 1_555
H3 C3 1_555 1_555
C4 C3 1_555 1_555
H4 C4 1_555 1_555
C5 C4 1_555 1_555
N1 C6 1_555 1_555
C6 C5 1_555 1_555
C7 C6 1_555 1_555
H5 C7 1_555 1_555
C8 C7 1_555 1_555
H6 C8 1_555 1_555
C9 C8 1_555 1_555
H7 C9 1_555 1_555
C10 N1 1_555 1_555
H8 C10 1_555 1_555
C11 Fe1 1_555 1_555
C12 Fe1 1_555 1_555
C13 Fe1 1_555 1_555
C14 Fe1 1_555 1_555
C15 H9 1_555 1_555
H10 C15 1_555 1_555
C16 C15 1_555 1_555
H11 C16 1_555 1_555
H12 C16 1_555 1_555
C17 H13 1_555 1_555
H14 C17 1_555 1_555
C18 C17 1_555 1_555
H15 C18 1_555 1_555
H16 C18 1_555 1_555
Fe1 N1 1_555 1_555
N2 C1 1_555 1_555
N3 C11 1_555 1_555
N4 C12 1_555 1_555
N5 C13 1_555 1_555
N6 C14 1_555 1_555
N7 C16 1_555 1_555
H17 N7 1_555 1_555
H18 N7 1_555 1_555
N8 C18 1_555 1_555
H19 N8 1_555 1_555
H20 N8 1_555 1_555
Ni1 N3 1_555 1_555
O1 C15 1_555 1_555
H21 O1 1_555 1_555
O2 C17 1_555 1_555
H22 O2 1_555 1_555
O3 H23 1_555 1_555
H24 O3 1_555 1_555
N4B Ni1 1_555 1_555
N5C Ni1 1_555 1_555
Ni1B N4 1_555 1_555
Ni1C N5 1_555 1_555
C5 N2 1_555 1_555
C9 C10 1_555 1_555
Fe1 N2 1_555 1_555
N7 Ni1 1_555 1_555
Ni1 O1 1_555 1_555
Ni1 O2 1_555 1_555

#END
