
#######################################################################
#
#                 Cambridge Crystallographic Data Centre
#                                CCDC 
#
#######################################################################
#
# If this CIF has been generated from an entry in the Cambridge 
# Structural Database, then it will include bibliographic, chemical, 
# crystal, experimental, refinement or atomic coordinate data resulting 
# from the CCDC's data processing and validation procedures.
#
#######################################################################

data_PUDLUX
_symmetry_cell_setting           monoclinic
_symmetry_space_group_name_H-M   'P 21/c'
_symmetry_Int_Tables_number      14
_space_group_name_Hall           '-P 2ybc'
loop_
_symmetry_equiv_pos_site_id
_symmetry_equiv_pos_as_xyz
1 x,y,z
2 -x,1/2+y,1/2-z
3 -x,-y,-z
4 x,1/2-y,1/2+z
_cell_length_a                   17.0598(5)
_cell_length_b                   7.7795(2)
_cell_length_c                   19.8051(8)
_cell_angle_alpha                90
_cell_angle_beta                 123.487(2)
_cell_angle_gamma                90
_cell_volume                     2192.17
loop_
_atom_site_label
_atom_site_type_symbol
_atom_site_fract_x
_atom_site_fract_y
_atom_site_fract_z
Dy1 Dy -0.13834(2) -0.81012(5) -0.55219(2)
Dy2 Dy -0.63747(2) -0.31713(5) -0.58698(2)
O1 O -0.5460(4) -0.4771(8) -0.6136(4)
O2 O -0.4224(4) -0.6482(8) -0.5489(3)
O3 O -0.3837(3) -0.5999(7) -0.6617(3)
O4 O -0.3268(4) -0.6364(7) -0.8082(3)
O5 O -0.2576(4) -0.7479(7) -0.6839(3)
O6 O -0.0676(4) -0.8852(8) -0.6182(3)
O7 O 0.0727(4) -1.0101(7) -0.5589(3)
O8 O -0.0842(3) -0.8691(7) -0.7600(3)
O9 O -0.1515(4) -0.8594(7) -0.9645(3)
O10 O -0.2272(3) -0.7637(7) -0.9090(3)
O11 O -0.7413(4) -0.4788(7) -0.7082(3)
H1 H -0.764(5) -0.448(4) -0.7569(8)
O12 O -0.6760(4) -0.6045(7) -0.5658(3)
H2 H -0.640(3) -0.675(3) -0.528(2)
O13 O -0.2743(4) -0.9268(7) -0.5569(3)
H3 H -0.304(3) -0.886(3) -0.537(4)
O14 O -0.1849(4) -1.0977(7) -0.6084(3)
H4 H -0.1469(19) -1.177(3) -0.604(4)
O15 O -0.4772(4) -0.1979(8) -0.5231(3)
O16 O -0.3826(4) 0.0309(8) -0.4667(3)
O17 O 0.0231(4) -0.7110(7) -0.4643(3)
O18 O 0.1159(4) -0.4782(8) -0.4202(3)
C1 C -0.4771(6) -0.5525(11) -0.6055(5)
C2 C -0.4624(5) -0.5294(10) -0.6719(4)
C3 C -0.5161(6) -0.4567(11) -0.7459(5)
H5 H -0.5733 -0.4008 -0.7671
C4 C -0.4674(6) -0.4830(11) -0.7849(5)
H6 H -0.4866 -0.4468 -0.8366
C5 C -0.3884(5) -0.5705(10) -0.7324(4)
C6 C -0.3176(5) -0.6542(10) -0.7411(4)
C7 C 0.0010(5) -0.9401(10) -0.6174(4)
C8 C -0.0019(5) -0.9286(10) -0.6939(4)
C9 C 0.0573(5) -0.9763(10) -0.7153(5)
H7 H 0.1179 -1.0191 -0.6813
C10 C 0.0092(5) -0.9487(10) -0.7997(5)
H8 H 0.0323 -0.9700 -0.8318
C11 C -0.0763(5) -0.8856(10) -0.8248(4)
C12 C -0.1578(5) -0.8340(10) -0.9049(4)
C13 C -0.7509(7) -0.6612(12) -0.7066(6)
H9 H -0.7002 -0.7190 -0.7061
H10 H -0.8102 -0.6986 -0.7540
C14 C -0.7476(7) -0.7022(13) -0.6321(5)
H11 H -0.8079 -0.6766 -0.6403
H12 H -0.7351 -0.8238 -0.6202
C15 C -0.2784(7) -1.1147(12) -0.5527(6)
H13 H -0.3391 -1.1505 -0.5641
H14 H -0.2297 -1.1559 -0.4994
C16 C -0.2638(6) -1.1822(12) -0.6147(5)
H15 H -0.2524 -1.3050 -0.6072
H16 H -0.3199 -1.1630 -0.6681
C17 C -0.4587(6) -0.0485(11) -0.4965(5)
C18 C 0.0403(5) -0.5534(10) -0.4671(5)
O15B O -0.5228(4) 0.1979(8) -0.4769(3)
O16B O -0.6174(4) -0.0309(8) -0.5333(3)
C17B C -0.5413(6) 0.0485(11) -0.5035(5)
O17B O -0.0231(4) -0.2890(7) -0.5357(3)
O18B O -0.1159(4) -0.5218(8) -0.5798(3)
C18B C -0.0403(5) -0.4466(10) -0.5329(5)
Dy1B Dy -0.86166(2) -0.18988(5) -0.44781(2)
Dy2B Dy -0.36253(2) -0.68287(5) -0.41302(2)
O1B O -0.4540(4) -0.5229(8) -0.3864(4)
O2B O -0.5776(4) -0.3518(8) -0.4511(3)
O3B O -0.6163(3) -0.4001(7) -0.3383(3)
O4B O -0.6732(4) -0.3636(7) -0.1918(3)
O5B O -0.7424(4) -0.2521(7) -0.3161(3)
O6B O -0.9324(4) -0.1148(8) -0.3818(3)
O7B O -1.0727(4) 0.0101(7) -0.4411(3)
O8B O -0.9158(3) -0.1309(7) -0.2400(3)
O9B O -0.8485(4) -0.1406(7) -0.0355(3)
O10B O -0.7728(3) -0.2363(7) -0.0910(3)
O11B O -0.2587(4) -0.5212(7) -0.2918(3)
H1B H -0.236(5) -0.552(4) -0.2431(8)
O12B O -0.3240(4) -0.3955(7) -0.4342(3)
H2B H -0.360(3) -0.325(3) -0.472(2)
O13B O -0.7257(4) -0.0732(7) -0.4431(3)
H3B H -0.696(3) -0.114(3) -0.463(4)
O14B O -0.8151(4) 0.0977(7) -0.3916(3)
H4B H -0.8531(19) 0.177(3) -0.396(4)
C1B C -0.5229(6) -0.4475(11) -0.3945(5)
C2B C -0.5376(5) -0.4706(10) -0.3281(4)
C3B C -0.4839(6) -0.5433(11) -0.2541(5)
H5B H -0.4267 -0.5992 -0.2329
C4B C -0.5326(6) -0.5170(11) -0.2151(5)
H6B H -0.5134 -0.5532 -0.1634
C5B C -0.6116(5) -0.4295(10) -0.2676(4)
C6B C -0.6824(5) -0.3458(10) -0.2589(4)
C7B C -1.0010(5) -0.0599(10) -0.3826(4)
C8B C -0.9981(5) -0.0714(10) -0.3061(4)
C9B C -1.0573(5) -0.0237(10) -0.2847(5)
H7B H -1.1179 0.0191 -0.3187
C10B C -1.0092(5) -0.0513(10) -0.2003(5)
H8B H -1.0323 -0.0300 -0.1682
C11B C -0.9237(5) -0.1144(10) -0.1752(4)
C12B C -0.8422(5) -0.1660(10) -0.0951(4)
C13B C -0.2491(7) -0.3388(12) -0.2934(6)
H9B H -0.2998 -0.2810 -0.2939
H10B H -0.1898 -0.3014 -0.2460
C14B C -0.2524(7) -0.2978(13) -0.3679(5)
H11B H -0.1921 -0.3234 -0.3597
H12B H -0.2649 -0.1762 -0.3798
C15B C -0.7216(7) 0.1147(12) -0.4473(6)
H13B H -0.6609 0.1505 -0.4359
H14B H -0.7703 0.1559 -0.5006
C16B C -0.7362(6) 0.1822(12) -0.3853(5)
H15B H -0.7476 0.3050 -0.3928
H16B H -0.6801 0.1630 -0.3319
Dy1_2 Dy -1.13834(2) 0.18988(5) -0.55219(2)
Dy1A Dy -0.86166(2) -0.31012(5) 0.05219(2)
Dy1B_2 Dy 0.13834(2) -1.18988(5) -0.44781(2)
Dy1B_3 Dy 0.13834(2) -0.18988(5) -0.44781(2)
Dy1C Dy -0.13834(2) -0.68988(5) -1.05219(2)
Dy2A Dy -0.36253(2) -0.81713(5) -0.91302(2)
Dy2B_2 Dy -0.36253(2) 0.31713(5) -0.41302(2)
Dy2C Dy -0.63747(2) -0.18287(5) -0.08698(2)
O4A O -0.6732(4) -0.1364(7) -0.6918(3)
O4C O -0.3268(4) -0.8636(7) -0.3082(3)
O7_2 O -0.9273(4) -0.0101(7) -0.5589(3)
O7B_2 O -0.0727(4) -0.9899(7) -0.4411(3)
O9A O -0.8485(4) -0.3594(7) -0.5355(3)
O9C O -0.1515(4) -0.6406(7) -0.4645(3)
O10A O -0.7728(3) -0.2637(7) -0.5910(3)
O10C O -0.2272(3) -0.7363(7) -0.4090(3)
O15B_2 O -0.5228(4) -0.8021(8) -0.4769(3)
O16_2 O -0.3826(4) -0.9691(8) -0.4667(3)
O17B_2 O -1.0231(4) -0.2890(7) -0.5357(3)
O18_2 O -0.8841(4) -0.4782(8) -0.4202(3)
loop_
_geom_bond_atom_site_label_1
_geom_bond_atom_site_label_2
_geom_bond_site_symmetry_1
_geom_bond_site_symmetry_2
Dy1 O5 1_555 1_555
Dy2 O1 1_555 1_555
O1 C1 1_555 1_555
O2 C1 1_555 1_555
O3 C2 1_555 1_555
O4 C6 1_555 1_555
O5 C6 1_555 1_555
O6 Dy1 1_555 1_555
O7 C7 1_555 1_555
O8 C8 1_555 1_555
O9 C12 1_555 1_555
O10 C12 1_555 1_555
O11 Dy2 1_555 1_555
H1 O11 1_555 1_555
O12 Dy2 1_555 1_555
H2 O12 1_555 1_555
O13 Dy1 1_555 1_555
H3 O13 1_555 1_555
O14 Dy1 1_555 1_555
H4 O14 1_555 1_555
O15 Dy2 1_555 1_555
O16 C17 1_555 1_555
O17 Dy1 1_555 1_555
O18 C18 1_555 1_555
C1 C2 1_555 1_555
C2 C3 1_555 1_555
C3 H5 1_555 1_555
C4 C3 1_555 1_555
H6 C4 1_555 1_555
C5 O3 1_555 1_555
C6 C5 1_555 1_555
C7 O6 1_555 1_555
C8 C7 1_555 1_555
C9 C8 1_555 1_555
H7 C9 1_555 1_555
C10 C9 1_555 1_555
H8 C10 1_555 1_555
C11 O8 1_555 1_555
C12 C11 1_555 1_555
C13 O11 1_555 1_555
H9 C13 1_555 1_555
H10 C13 1_555 1_555
C14 O12 1_555 1_555
H11 C14 1_555 1_555
H12 C14 1_555 1_555
C15 O13 1_555 1_555
H13 C15 1_555 1_555
H14 C15 1_555 1_555
C16 O14 1_555 1_555
H15 C16 1_555 1_555
H16 C16 1_555 1_555
C17 O15 1_555 1_555
C18 O17 1_555 1_555
O15B C17B 1_555 1_555
O16B Dy2 1_555 1_555
C17B C17 1_555 1_555
O17B C18B 1_555 1_555
O18B Dy1 1_555 1_555
C18B C18 1_555 1_555
Dy1B O5B 1_555 1_555
Dy2B O2 1_555 1_555
O1B Dy2B 1_555 1_555
O2B Dy2 1_555 1_555
O3B C2B 1_555 1_555
O4B C6B 1_555 1_555
O5B C6B 1_555 1_555
O6B Dy1B 1_555 1_555
O7B C7B 1_555 1_555
O8B C8B 1_555 1_555
O9B C12B 1_555 1_555
O10B C12B 1_555 1_555
O11B Dy2B 1_555 1_555
H1B O11B 1_555 1_555
O12B Dy2B 1_555 1_555
H2B O12B 1_555 1_555
O13B Dy1B 1_555 1_555
H3B O13B 1_555 1_555
O14B Dy1B 1_555 1_555
H4B O14B 1_555 1_555
C1B O1B 1_555 1_555
C2B C1B 1_555 1_555
C3B C2B 1_555 1_555
H5B C3B 1_555 1_555
C4B C3B 1_555 1_555
H6B C4B 1_555 1_555
C5B O3B 1_555 1_555
C6B C5B 1_555 1_555
C7B O6B 1_555 1_555
C8B C7B 1_555 1_555
C9B C8B 1_555 1_555
H7B C9B 1_555 1_555
C10B C9B 1_555 1_555
H8B C10B 1_555 1_555
C11B O8B 1_555 1_555
C12B C11B 1_555 1_555
C13B O11B 1_555 1_555
H9B C13B 1_555 1_555
H10B C13B 1_555 1_555
C14B O12B 1_555 1_555
H11B C14B 1_555 1_555
H12B C14B 1_555 1_555
C15B O13B 1_555 1_555
H13B C15B 1_555 1_555
H14B C15B 1_555 1_555
C16B O14B 1_555 1_555
H15B C16B 1_555 1_555
H16B C16B 1_555 1_555
Dy1_2 O7B 1_555 1_555
Dy1A O9B 1_555 1_555
Dy1B_2 O7 1_555 1_555
Dy1B_3 O18 1_555 1_555
Dy1C O9 1_555 1_555
Dy2A O4 1_555 1_555
Dy2B_2 O16 1_555 1_555
Dy2C O4B 1_555 1_555
O4A Dy2 1_555 1_555
O4C Dy2B 1_555 1_555
O7_2 Dy1B 1_555 1_555
O7B_2 Dy1 1_555 1_555
O9A Dy1B 1_555 1_555
O9C Dy1 1_555 1_555
O10A Dy2 1_555 1_555
O10C Dy2B 1_555 1_555
O15B_2 Dy2B 1_555 1_555
O16_2 Dy2B 1_555 1_555
O17B_2 Dy1B 1_555 1_555
O18_2 Dy1B 1_555 1_555
O10 Dy2A 1_555 1_555
C4 C5 1_555 1_555
C10 C11 1_555 1_555
C13 C14 1_555 1_555
C15 C16 1_555 1_555
O15B Dy2B_2 1_555 1_555
O16B C17B 1_555 1_555
O17B Dy1B_3 1_555 1_555
O18B C18B 1_555 1_555
O2B C1B 1_555 1_555
O10B Dy2C 1_555 1_555
C4B C5B 1_555 1_555
C10B C11B 1_555 1_555
C13B C14B 1_555 1_555
C15B C16B 1_555 1_555

#END
