
#######################################################################
#
#                 Cambridge Crystallographic Data Centre
#                                CCDC 
#
#######################################################################
#
# If this CIF has been generated from an entry in the Cambridge 
# Structural Database, then it will include bibliographic, chemical, 
# crystal, experimental, refinement or atomic coordinate data resulting 
# from the CCDC's data processing and validation procedures.
#
#######################################################################

data_PUDRIQ
_symmetry_cell_setting           monoclinic
_symmetry_space_group_name_H-M   'C 2/c'
_symmetry_Int_Tables_number      15
_space_group_name_Hall           '-C 2yn'
loop_
_symmetry_equiv_pos_site_id
_symmetry_equiv_pos_as_xyz
1 x,y,z
2 -x,y,1/2-z
3 1/2+x,1/2+y,z
4 1/2-x,1/2+y,1/2-z
5 -x,-y,-z
6 x,-y,1/2+z
7 1/2-x,1/2-y,-z
8 1/2+x,1/2-y,1/2+z
_cell_length_a                   17.904(3)
_cell_length_b                   6.5317(12)
_cell_length_c                   19.129(4)
_cell_angle_alpha                90
_cell_angle_beta                 109.182(4)
_cell_angle_gamma                90
_cell_volume                     2112.81
loop_
_atom_site_label
_atom_site_type_symbol
_atom_site_fract_x
_atom_site_fract_y
_atom_site_fract_z
Zn1 Zn 0.0000 0.97352(14) 0.2500
Cl1 Cl 0.08424(8) 1.1524(2) 0.21028(8)
N1 N 0.0703(3) 0.7685(7) 0.3249(3)
C1 C 0.0408(3) 0.5946(9) 0.3428(4)
H1 H -0.0147 0.5718 0.3238
C2 C 0.0882(3) 0.4482(9) 0.3879(3)
H2 H 0.0654 0.3270 0.3995
C3 C 0.1686(3) 0.4774(9) 0.4160(3)
H3 H 0.2019 0.3777 0.4473
C4 C 0.2002(3) 0.6564(9) 0.3977(3)
C5 C 0.1491(3) 0.7971(9) 0.3522(3)
H4 H 0.1706 0.9194 0.3397
N2 N 0.2796(3) 0.7048(7) 0.4221(3)
H5 H 0.2916 0.8270 0.4095
C6 C 0.3424(3) 0.5884(9) 0.4633(3)
O1 O 0.3349(2) 0.4130(6) 0.4859(2)
N3 N 0.4133(3) 0.6802(7) 0.4790(3)
H6 H 0.4161 0.8046 0.4624
C7 C 0.4849(3) 0.5770(8) 0.5230(3)
H7 H 0.4747 0.5036 0.5642
H8 H 0.5266 0.6804 0.5447
Zn1D Zn 1.0000 0.02648(14) 0.7500
Cl1A Cl -0.08424(8) 1.1524(2) 0.28972(8)
N1D N 0.9297(3) 0.2315(7) 0.6751(3)
N1A N -0.0703(3) 0.7685(7) 0.1751(3)
C1D C 0.9592(3) 0.4054(9) 0.6572(4)
H1D H 1.0147 0.4282 0.6762
C2D C 0.9118(3) 0.5518(9) 0.6121(3)
H2D H 0.9346 0.6730 0.6005
C3D C 0.8314(3) 0.5226(9) 0.5840(3)
H3D H 0.7981 0.6223 0.5527
C4D C 0.7998(3) 0.3436(9) 0.6023(3)
C5D C 0.8509(3) 0.2029(9) 0.6478(3)
H4D H 0.8294 0.0806 0.6603
N2D N 0.7204(3) 0.2952(7) 0.5779(3)
H5D H 0.7084 0.1730 0.5905
C6D C 0.6576(3) 0.4116(9) 0.5367(3)
O1D O 0.6651(2) 0.5870(6) 0.5141(2)
N3D N 0.5867(3) 0.3198(7) 0.5210(3)
H6D H 0.5839 0.1954 0.5376
C7D C 0.5151(3) 0.4230(8) 0.4770(3)
H7D H 0.5253 0.4964 0.4358
H8D H 0.4734 0.3196 0.4553
C8 C 0.3156(4) 0.1551(11) 0.3226(4)
H9 H 0.2608 0.2031 0.3091
H10 H 0.3187 0.0430 0.2897
H11 H 0.3496 0.2680 0.3179
O2 O 0.3415(3) 0.0832(6) 0.3980(3)
H12 H 0.3428 0.1817 0.4266
loop_
_geom_bond_atom_site_label_1
_geom_bond_atom_site_label_2
_geom_bond_site_symmetry_1
_geom_bond_site_symmetry_2
Zn1 Cl1 1_555 1_555
N1 Zn1 1_555 1_555
C1 N1 1_555 1_555
H1 C1 1_555 1_555
C2 C1 1_555 1_555
H2 C2 1_555 1_555
C3 C2 1_555 1_555
H3 C3 1_555 1_555
C4 C3 1_555 1_555
C5 N1 1_555 1_555
H4 C5 1_555 1_555
N2 C4 1_555 1_555
H5 N2 1_555 1_555
C6 N2 1_555 1_555
O1 C6 1_555 1_555
N3 C6 1_555 1_555
H6 N3 1_555 1_555
C7 N3 1_555 1_555
H7 C7 1_555 1_555
H8 C7 1_555 1_555
C8 H9 1_555 1_555
H10 C8 1_555 1_555
H11 C8 1_555 1_555
O2 C8 1_555 1_555
H12 O2 1_555 1_555
Zn1D N1D 1_555 1_555
Cl1A Zn1 1_555 1_555
N1D C1D 1_555 1_555
N1A Zn1 1_555 1_555
C1D H1D 1_555 1_555
C2D C1D 1_555 1_555
H2D C2D 1_555 1_555
C3D C2D 1_555 1_555
H3D C3D 1_555 1_555
C4D C3D 1_555 1_555
C5D N1D 1_555 1_555
H4D C5D 1_555 1_555
N2D C4D 1_555 1_555
H5D N2D 1_555 1_555
C6D N2D 1_555 1_555
O1D C6D 1_555 1_555
N3D C6D 1_555 1_555
H6D N3D 1_555 1_555
C7D C7 1_555 1_555
H7D C7D 1_555 1_555
H8D C7D 1_555 1_555
C4 C5 1_555 1_555
C4D C5D 1_555 1_555
N3D C7D 1_555 1_555

#END
