
#######################################################################
#
#                 Cambridge Crystallographic Data Centre
#                                CCDC 
#
#######################################################################
#
# If this CIF has been generated from an entry in the Cambridge 
# Structural Database, then it will include bibliographic, chemical, 
# crystal, experimental, refinement or atomic coordinate data resulting 
# from the CCDC's data processing and validation procedures.
#
#######################################################################

data_PUDTAK
_symmetry_cell_setting           tetragonal
_symmetry_space_group_name_H-M   'I -4 2 m'
_symmetry_Int_Tables_number      121
_space_group_name_Hall           'I -4 2'
loop_
_symmetry_equiv_pos_site_id
_symmetry_equiv_pos_as_xyz
1 x,y,z
2 -x,-y,z
3 y,-x,-z
4 -y,x,-z
5 -x,y,-z
6 x,-y,-z
7 -y,-x,z
8 y,x,z
9 1/2+x,1/2+y,1/2+z
10 1/2-x,1/2-y,1/2+z
11 1/2+y,1/2-x,1/2-z
12 1/2-y,1/2+x,1/2-z
13 1/2-x,1/2+y,1/2-z
14 1/2+x,1/2-y,1/2-z
15 1/2-y,1/2-x,1/2+z
16 1/2+y,1/2+x,1/2+z
_cell_length_a                   22.1918(4)
_cell_length_b                   22.1918(4)
_cell_length_c                   18.5523(7)
_cell_angle_alpha                90
_cell_angle_beta                 90
_cell_angle_gamma                90
_cell_volume                     9136.56
loop_
_atom_site_label
_atom_site_type_symbol
_atom_site_fract_x
_atom_site_fract_y
_atom_site_fract_z
O1 O 0.0406(8) 0.50000 0.00000
H13 H 0.0507 0.5188 0.0351
H13E H 0.0507 0.4812 -0.0351
O2 O 0.9691(4) 0.9691(4) 0.0459(10)
H14 H 0.9421 0.9421 0.0492
H15 H 0.9827 0.9827 0.0855
O3 O 0.8551(17) 0.8551(17) 0.178(3)
H16 H 0.8578 0.8576 0.1327
H17 H 0.8774 0.8772 0.2041
O4 O 1.0478(17) 0.9522(17) 0.094(3)
H18 H 1.0703 0.977 0.0737
H18F H 1.023 0.9297 0.0737
O5 O 1.00000 0.876(2) 0.00000
H20 H 0.975 0.8557 -0.0248
H20D H 1.025 0.8557 0.0248
Cd1 Cd -0.189165(18) 0.691363(19) 0.37991(2)
Cd2 Cd -0.19577(2) 0.591339(19) 0.21811(2)
Cd3 Cd -0.020970(19) 0.769090(19) 0.40231(2)
N1 N -0.1020(2) 0.6333(2) 0.2518(3)
N2 N -0.1025(2) 0.6721(2) 0.3068(3)
N3 N -0.0481(2) 0.6901(3) 0.3211(3)
N4 N -0.0100(2) 0.6634(2) 0.2749(3)
N5 N -0.1005(2) 0.6777(2) 0.5938(3)
N6 N -0.0616(3) 0.7084(2) 0.5531(3)
N7 N -0.0808(2) 0.7114(2) 0.4875(3)
N8 N -0.1333(2) 0.6821(2) 0.4823(3)
N9 N -0.2379(2) 0.7212(2) 0.2689(3)
N10 N -0.2427(2) 0.6880(2) 0.2091(3)
N11 N -0.1067(2) 0.8238(2) 0.3732(3)
N12 N -0.1606(2) 0.7981(2) 0.3806(3)
N13 N -0.2165(3) 0.5990(3) 0.3401(3)
N14 N -0.2319(4) 0.5561(3) 0.3742(4)
N15 N -0.2490(7) 0.5152(5) 0.4064(7)
N16 N -0.2876(2) 0.5458(3) 0.1865(3)
N17 N -0.3202(6) 0.5306(6) 0.2356(8)
N18 N -0.3511(11) 0.5130(12) 0.2814(15)
N21 N -0.2772(3) 0.7228(3) 0.4347(4)
N22 N -0.3151(3) 0.6849(3) 0.4371(7)
N23 N -0.3502(10) 0.6498(10) 0.4613(17)
N25 N 0.0000(4) 0.82790 0.50000
N26 N -0.0389(7) 0.8715(7) 0.5213(8)
C1 C -0.0440(3) 0.6289(3) 0.2324(3)
C2 C -0.0216(4) 0.5915(4) 0.1723(4)
C3 C -0.1445(3) 0.6607(3) 0.5492(4)
C4 C -0.1988(5) 0.6273(4) 0.5696(5)
C5 C -0.2882(3) 0.7118(3) 0.1739(5)
C6 C -0.3126(4) 0.6874(4) 0.1043(5)
C7 C -0.1173(3) 0.8827(3) 0.3689(5)
C8 C -0.0700(3) 0.9300(3) 0.3593(7)
Cd1G Cd -0.308637(19) 0.810835(18) 0.37991(2)
Cd1K Cd -0.191363(19) 0.310835(18) 0.12009(2)
Cd1N Cd -0.191363(19) 0.689165(18) -0.12009(2)
Cd2G Cd -0.408661(19) 0.80423(2) 0.21811(2)
Cd2J Cd 0.091339(19) 0.69577(2) 0.28189(2)
Cd2N Cd -0.091339(19) 0.69577(2) 0.71811(2)
Cd2K Cd -0.091339(19) 0.30423(2) 0.28189(2)
Cd3G Cd -0.230910(19) 0.979030(19) 0.40231(2)
Cd3D Cd 0.020970(19) 0.769090(19) 0.59769(2)
Cd3K Cd -0.269090(19) 0.479030(19) 0.09769(2)
Cd3N Cd -0.269090(19) 0.520970(19) -0.09769(2)
N1K N -0.1333(2) 0.3980(2) 0.2482(3)
N1G N -0.3667(2) 0.8980(2) 0.2518(3)
N2K N -0.1721(2) 0.3975(2) 0.1932(3)
N2G N -0.3279(2) 0.8975(2) 0.3068(3)
N3K N -0.1901(3) 0.4519(2) 0.1789(3)
N3G N -0.3099(3) 0.9519(2) 0.3211(3)
N4K N -0.1634(2) 0.4900(2) 0.2251(3)
N4M N -0.5100(2) 0.8366(2) 0.2251(3)
N5N N -0.1777(2) 0.6005(2) 0.0938(3)
N5I N -0.3995(2) 0.8223(2) 0.0938(3)
N6N N -0.2084(2) 0.5616(3) 0.0531(3)
N6D N 0.0616(3) 0.7084(2) 0.4469(3)
N6B N -0.2916(2) 1.0616(3) 0.4469(3)
N7N N -0.2114(2) 0.5808(2) -0.0125(3)
N7G N -0.2886(2) 0.9192(2) 0.4875(3)
N8N N -0.1821(2) 0.6333(2) -0.0177(3)
N8G N -0.3179(2) 0.8667(2) 0.4823(3)
N9G N -0.2788(2) 0.7621(2) 0.2689(3)
N10G N -0.3120(2) 0.7573(2) 0.2091(3)
N11G N -0.1762(2) 0.8933(2) 0.3732(3)
N12G N -0.2019(2) 0.8394(2) 0.3806(3)
N13G N -0.4010(3) 0.7835(3) 0.3401(3)
N14G N -0.4439(3) 0.7681(4) 0.3742(4)
N15G N -0.4848(5) 0.7510(7) 0.4064(7)
N16J N 0.0458(3) 0.7876(2) 0.3135(3)
N16G N -0.4542(3) 0.7124(2) 0.1865(3)
N16L N -0.2124(2) 1.0458(3) 0.3135(3)
N17J N 0.0306(6) 0.8202(6) 0.2644(8)
N18J N 0.0130(12) 0.8511(11) 0.2186(15)
N25B N -0.17210 1.0000(4) 0.50000
N26D N 0.0389(7) 0.8715(7) 0.4787(8)
C1K C -0.1289(3) 0.4560(3) 0.2676(3)
C2K C -0.0915(4) 0.4784(4) 0.3277(4)
C3N C -0.1607(3) 0.6445(3) 0.0492(4)
C4N C -0.1273(4) 0.6988(5) 0.0696(5)
N19? N -0.3314(8) 0.5583(8) 0.2140(10)
N20? N -0.3777(16) 0.5691(16) 0.2469(18)
N24? N -0.3541(10) 0.6459(10) 0.4218(18)
N27? N -0.4140(7) 0.4363(9) -0.0329(10)
H1? H -0.0176 0.6159 0.1299
H2? H -0.0495 0.5594 0.1632
H3? H 0.017 0.575 0.1848
H4? H -0.1312 0.7054 0.1206
H5? H -0.1433 0.7329 0.0441
H6? H -0.0856 0.6939 0.0576
H7? H -0.2798 0.6753 0.0739
H8? H -0.3358 0.718 0.0806
H9? H -0.3378 0.6532 0.1141
H10? H -0.4682 0.4147 0.1248
H11? H -0.4196 0.4649 0.1128
H12? H -0.4327 0.4409 0.1907
H19? H 1.0535 0.9465 0.1392
loop_
_geom_bond_atom_site_label_1
_geom_bond_atom_site_label_2
_geom_bond_site_symmetry_1
_geom_bond_site_symmetry_2
Cd1 N2 1_555 1_555
Cd2 N1 1_555 1_555
Cd3 N3 1_555 1_555
N1 N2 1_555 1_555
N2 N3 1_555 1_555
N3 N4 1_555 1_555
N4 C1 1_555 1_555
N5 N6 1_555 1_555
N6 N7 1_555 1_555
N7 Cd3 1_555 1_555
N8 Cd1 1_555 1_555
N9 Cd1 1_555 1_555
N10 Cd2 1_555 1_555
N11 Cd3 1_555 1_555
N12 Cd1 1_555 1_555
N13 Cd1 1_555 1_555
N14 N13 1_555 1_555
N15 N14 1_555 1_555
N16 Cd2 1_555 1_555
N17 N16 1_555 1_555
N18 N17 1_555 1_555
N21 Cd1 1_555 1_555
N22 N21 1_555 1_555
N23 N22 1_555 1_555
N25 Cd3 1_555 1_555
N26 N25 1_555 1_555
C1 N1 1_555 1_555
C2 C1 1_555 1_555
C3 N5 1_555 1_555
C4 C3 1_555 1_555
C5 N10 1_555 1_555
C6 C5 1_555 1_555
C7 N11 1_555 1_555
C8 C7 1_555 1_555
O1 H13 1_555 1_555
O2 H14 1_555 1_555
H15 O2 1_555 1_555
O3 H16 1_555 1_555
H17 O3 1_555 1_555
O4 H18 1_555 1_555
O5 H20 1_555 1_555
Cd1G N21 1_555 1_555
Cd1K N2K 1_555 1_555
Cd1N N8N 1_555 1_555
Cd2G N1G 1_555 1_555
Cd2J N4 1_555 1_555
Cd2N N5 1_555 1_555
Cd2K N1K 1_555 1_555
Cd3G N3G 1_555 1_555
Cd3D N6 1_555 1_555
Cd3K N16 1_555 1_555
Cd3N N7N 1_555 1_555
N1K N2K 1_555 1_555
N1G N2G 1_555 1_555
N2K N3K 1_555 1_555
N2G Cd1G 1_555 1_555
N3K Cd3K 1_555 1_555
N3G N2G 1_555 1_555
N4K Cd2 1_555 1_555
N4M Cd2G 1_555 1_555
N5N Cd2 1_555 1_555
N5I Cd2G 1_555 1_555
N6N Cd3K 1_555 1_555
N6D Cd3 1_555 1_555
N6B Cd3G 1_555 1_555
N7N N6N 1_555 1_555
N7G Cd3G 1_555 1_555
N8N N7N 1_555 1_555
N8G Cd1G 1_555 1_555
N9G N9 1_555 1_555
N10G C5 1_555 1_555
N11G C7 1_555 1_555
N12G N12 1_555 1_555
N13G Cd1G 1_555 1_555
N14G N13G 1_555 1_555
N15G N14G 1_555 1_555
N16J Cd3 1_555 1_555
N16G Cd2G 1_555 1_555
N16L Cd3G 1_555 1_555
N17J N16J 1_555 1_555
N18J N17J 1_555 1_555
N25B Cd3G 1_555 1_555
N26D N25 1_555 1_555
C1K N1K 1_555 1_555
C2K C1K 1_555 1_555
C3N N5N 1_555 1_555
C4N C3N 1_555 1_555
H13E O1 1_555 1_555
H18F O4 1_555 1_555
H20D O5 1_555 1_555
Cd2 N13 1_555 1_555
N7 N8 1_555 1_555
N8 C3 1_555 1_555
N9 N10 1_555 1_555
N11 N12 1_555 1_555
N25 Cd3D 1_555 1_555
Cd1G N9G 1_555 1_555
Cd1G N12G 1_555 1_555
Cd2G N10G 1_555 1_555
Cd2G N13G 1_555 1_555
Cd2J N16J 1_555 1_555
Cd3G N11G 1_555 1_555
N3K N4K 1_555 1_555
N4K C1K 1_555 1_555
N5N N6N 1_555 1_555
N7G N8G 1_555 1_555
N8N C3N 1_555 1_555
N9G N10G 1_555 1_555
N11G N12G 1_555 1_555

#END
