
#######################################################################
#
#                 Cambridge Crystallographic Data Centre
#                                CCDC 
#
#######################################################################
#
# If this CIF has been generated from an entry in the Cambridge 
# Structural Database, then it will include bibliographic, chemical, 
# crystal, experimental, refinement or atomic coordinate data resulting 
# from the CCDC's data processing and validation procedures.
#
#######################################################################

data_PUDTIS
_symmetry_cell_setting           monoclinic
_symmetry_space_group_name_H-M   'P 21/c'
_symmetry_Int_Tables_number      14
_space_group_name_Hall           '-P 2ybc'
loop_
_symmetry_equiv_pos_site_id
_symmetry_equiv_pos_as_xyz
1 x,y,z
2 -x,1/2+y,1/2-z
3 -x,-y,-z
4 x,1/2-y,1/2+z
_cell_length_a                   8.2795(17)
_cell_length_b                   12.504(3)
_cell_length_c                   19.464(5)
_cell_angle_alpha                90
_cell_angle_beta                 108.73(3)
_cell_angle_gamma                90
_cell_volume                     1908.33
loop_
_atom_site_label
_atom_site_type_symbol
_atom_site_fract_x
_atom_site_fract_y
_atom_site_fract_z
C1 C 0.7571(3) 0.23220(18) 0.21420(13)
H1 H 0.6933 0.2742 0.2354
C2 C 0.8322(4) 0.10943(19) 0.15321(14)
H2 H 0.8284 0.0502 0.1239
C3 C 0.9709(4) 0.1720(2) 0.18270(15)
H3 H 1.0784 0.1638 0.1779
C4 C 1.0295(4) 0.3360(2) 0.26296(13)
H4 H 1.1224 0.3048 0.3018
H5 H 0.9631 0.3803 0.2848
C5 C 1.1026(3) 0.40529(19) 0.21613(13)
H6 H 1.1867 0.4531 0.2474
H7 H 1.1611 0.3596 0.1915
C6 C 0.9719(3) 0.4714(2) 0.15997(14)
H8 H 0.9080 0.5142 0.1839
H9 H 0.8924 0.4240 0.1261
C7 C 1.0541(3) 0.54460(19) 0.11845(14)
H10 H 1.1060 0.5012 0.0899
H11 H 1.1440 0.5852 0.1529
C8 C 0.9300(4) 0.6214(2) 0.06867(15)
H12 H 0.8398 0.5809 0.0342
H13 H 0.8783 0.6651 0.0971
C9 C 1.0132(4) 0.6936(2) 0.02754(15)
H14 H 1.0378 0.6526 -0.0103
H15 H 1.1205 0.7198 0.0604
C10 C 0.7810(3) 0.79034(19) -0.06920(12)
H16 H 0.7512 0.7341 -0.1022
C11 C 0.7867(5) 0.9410(2) -0.01895(16)
H17 H 0.7617 1.0114 -0.0106
C12 C 0.9073(5) 0.8804(2) 0.02786(16)
H18 H 0.9784 0.9001 0.0736
C13 C 0.4545(3) 0.13940(16) 0.28793(11)
C14 C 0.4881(3) 0.14568(15) 0.36869(10)
C15 C 0.4833(3) 0.05182(15) 0.40645(11)
H19 H 0.4644 -0.0126 0.3813
C16 C 0.5055(3) 0.05060(15) 0.48055(11)
C17 C 0.5348(3) 0.14938(16) 0.51617(11)
H20 H 0.5501 0.1521 0.5656
C18 C 0.5414(3) 0.24315(16) 0.47929(11)
H21 H 0.5606 0.3076 0.5045
C19 C 0.5199(3) 0.24318(16) 0.40553(11)
C20 C 0.5525(3) 0.34729(16) 0.37208(11)
N1 N 0.9206(3) 0.24989(15) 0.22097(10)
N2 N 0.6977(3) 0.14700(14) 0.17336(10)
N3 N 0.7068(3) 0.88437(15) -0.08012(10)
N4 N 0.9040(3) 0.78480(16) -0.00532(11)
O1 O 0.4832(3) 0.04885(12) 0.26390(8)
O2 O 0.4030(2) 0.21835(13) 0.24927(8)
O3 O 0.6816(2) 0.35584(13) 0.35443(9)
O4 O 0.4481(2) 0.42334(12) 0.37073(9)
Zn1 Zn 0.48379(3) 0.059070(19) 0.164222(13)
C1B C 0.2429(3) 0.76780(18) -0.21420(13)
H1B H 0.3067 0.7258 -0.2354
C2B C 0.1678(4) 0.89057(19) -0.15321(14)
H2B H 0.1716 0.9498 -0.1239
C3B C 0.0291(4) 0.8280(2) -0.18270(15)
H3B H -0.0784 0.8362 -0.1779
C4B C -0.0295(4) 0.6640(2) -0.26296(13)
H4B H -0.1224 0.6952 -0.3018
H5B H 0.0369 0.6197 -0.2848
C5B C -0.1026(3) 0.59471(19) -0.21613(13)
H6B H -0.1867 0.5469 -0.2474
H7B H -0.1611 0.6404 -0.1915
C6B C 0.0281(3) 0.5286(2) -0.15997(14)
H8B H 0.0920 0.4858 -0.1839
H9B H 0.1076 0.5760 -0.1261
C7B C -0.0541(3) 0.45540(19) -0.11845(14)
H10B H -0.1060 0.4988 -0.0899
H11B H -0.1440 0.4148 -0.1529
C8B C 0.0700(4) 0.3786(2) -0.06867(15)
H12B H 0.1602 0.4191 -0.0342
H13B H 0.1217 0.3349 -0.0971
C9B C -0.0132(4) 0.3064(2) -0.02754(15)
H14B H -0.0378 0.3474 0.0103
H15B H -0.1205 0.2802 -0.0604
C10B C 0.2190(3) 0.20966(19) 0.06920(12)
H16B H 0.2488 0.2659 0.1022
C11B C 0.2133(5) 0.0590(2) 0.01895(16)
H17B H 0.2383 -0.0114 0.0106
C12B C 0.0927(5) 0.1196(2) -0.02786(16)
H18B H 0.0216 0.0999 -0.0736
C13B C 0.5455(3) -0.13940(16) 0.71207(11)
C14B C 0.5119(3) -0.14568(15) 0.63131(10)
C15B C 0.5167(3) -0.05182(15) 0.59355(11)
H19B H 0.5356 0.0126 0.6187
C16B C 0.4945(3) -0.05060(15) 0.51945(11)
C17B C 0.4652(3) -0.14938(16) 0.48383(11)
H20B H 0.4499 -0.1521 0.4344
C18B C 0.4586(3) -0.24315(16) 0.52071(11)
H21B H 0.4394 -0.3076 0.4955
C19B C 0.4801(3) -0.24318(16) 0.59447(11)
C20B C 0.4475(3) -0.34729(16) 0.62792(11)
N1B N 0.0794(3) 0.75011(15) -0.22097(10)
N2B N 0.3023(3) 0.85300(14) -0.17336(10)
N3B N 0.2932(3) 0.11563(15) 0.08012(10)
N4B N 0.0960(3) 0.21520(16) 0.00532(11)
O1B O 0.5168(3) -0.04885(12) 0.73610(8)
O1B_2 O 0.5168(3) 0.95115(12) -0.26390(8)
O2B O 0.5970(2) -0.21835(13) 0.75073(8)
O3B O 0.3184(2) -0.35584(13) 0.64557(9)
O4B O 0.5519(2) -0.42334(12) 0.62927(9)
O4A O 0.5519(2) -0.07666(12) 0.12927(9)
O4C O 0.4481(2) 1.07666(12) -0.12927(9)
Zn1B Zn 0.51621(3) 0.940930(19) -0.164222(13)
Zn1A Zn 0.51621(3) 0.559070(19) 0.335778(13)
Zn1B_2 Zn 0.51621(3) -0.059070(19) 0.835778(13)
Zn1C Zn 0.48379(3) -0.559070(19) 0.664222(13)
loop_
_geom_bond_atom_site_label_1
_geom_bond_atom_site_label_2
_geom_bond_site_symmetry_1
_geom_bond_site_symmetry_2
C1 H1 1_555 1_555
C2 H2 1_555 1_555
C3 C2 1_555 1_555
H3 C3 1_555 1_555
C4 H4 1_555 1_555
H5 C4 1_555 1_555
C5 C4 1_555 1_555
H6 C5 1_555 1_555
H7 C5 1_555 1_555
C6 C5 1_555 1_555
H8 C6 1_555 1_555
H9 C6 1_555 1_555
C7 C6 1_555 1_555
H10 C7 1_555 1_555
H11 C7 1_555 1_555
C8 C7 1_555 1_555
H12 C8 1_555 1_555
H13 C8 1_555 1_555
C9 C8 1_555 1_555
H14 C9 1_555 1_555
H15 C9 1_555 1_555
C10 H16 1_555 1_555
C11 H17 1_555 1_555
C12 C11 1_555 1_555
H18 C12 1_555 1_555
C13 C14 1_555 1_555
C14 C15 1_555 1_555
C15 H19 1_555 1_555
C16 C15 1_555 1_555
C17 C16 1_555 1_555
H20 C17 1_555 1_555
C18 C17 1_555 1_555
H21 C18 1_555 1_555
C19 C14 1_555 1_555
C20 C19 1_555 1_555
N1 C1 1_555 1_555
N2 C1 1_555 1_555
N3 C10 1_555 1_555
N4 C9 1_555 1_555
O1 C13 1_555 1_555
O2 C13 1_555 1_555
O3 C20 1_555 1_555
O4 C20 1_555 1_555
Zn1 N2 1_555 1_555
C1B H1B 1_555 1_555
C2B H2B 1_555 1_555
C3B C2B 1_555 1_555
H3B C3B 1_555 1_555
C4B H4B 1_555 1_555
H5B C4B 1_555 1_555
C5B C4B 1_555 1_555
H6B C5B 1_555 1_555
H7B C5B 1_555 1_555
C6B C5B 1_555 1_555
H8B C6B 1_555 1_555
H9B C6B 1_555 1_555
C7B C6B 1_555 1_555
H10B C7B 1_555 1_555
H11B C7B 1_555 1_555
C8B C7B 1_555 1_555
H12B C8B 1_555 1_555
H13B C8B 1_555 1_555
C9B C8B 1_555 1_555
H14B C9B 1_555 1_555
H15B C9B 1_555 1_555
C10B H16B 1_555 1_555
C11B H17B 1_555 1_555
C12B C11B 1_555 1_555
H18B C12B 1_555 1_555
C13B C14B 1_555 1_555
C14B C15B 1_555 1_555
C15B H19B 1_555 1_555
C16B C16 1_555 1_555
C17B C16B 1_555 1_555
H20B C17B 1_555 1_555
C18B C17B 1_555 1_555
H21B C18B 1_555 1_555
C19B C14B 1_555 1_555
C20B C19B 1_555 1_555
N1B C1B 1_555 1_555
N2B C1B 1_555 1_555
N3B Zn1 1_555 1_555
N4B C9B 1_555 1_555
O1B C13B 1_555 1_555
O1B_2 Zn1B 1_555 1_555
O2B C13B 1_555 1_555
O3B C20B 1_555 1_555
O4B C20B 1_555 1_555
O4A Zn1 1_555 1_555
O4C Zn1B 1_555 1_555
Zn1B N3 1_555 1_555
Zn1A O4 1_555 1_555
Zn1B_2 O1B 1_555 1_555
Zn1C O4B 1_555 1_555
C2 N2 1_555 1_555
C3 N1 1_555 1_555
C4 N1 1_555 1_555
C10 N4 1_555 1_555
C11 N3 1_555 1_555
C12 N4 1_555 1_555
C18 C19 1_555 1_555
O1 Zn1 1_555 1_555
C2B N2B 1_555 1_555
C3B N1B 1_555 1_555
C4B N1B 1_555 1_555
C10B N3B 1_555 1_555
C10B N4B 1_555 1_555
C11B N3B 1_555 1_555
C12B N4B 1_555 1_555
C15B C16B 1_555 1_555
C18B C19B 1_555 1_555
N2B Zn1B 1_555 1_555

#END
