
#######################################################################
#
#                 Cambridge Crystallographic Data Centre
#                                CCDC 
#
#######################################################################
#
# If this CIF has been generated from an entry in the Cambridge 
# Structural Database, then it will include bibliographic, chemical, 
# crystal, experimental, refinement or atomic coordinate data resulting 
# from the CCDC's data processing and validation procedures.
#
#######################################################################

data_PUDTEO
_symmetry_cell_setting           monoclinic
_symmetry_space_group_name_H-M   'P 21/c'
_symmetry_Int_Tables_number      14
_space_group_name_Hall           '-P 2ybc'
loop_
_symmetry_equiv_pos_site_id
_symmetry_equiv_pos_as_xyz
1 x,y,z
2 -x,1/2+y,1/2-z
3 -x,-y,-z
4 x,1/2-y,1/2+z
_cell_length_a                   8.2499(16)
_cell_length_b                   12.370(3)
_cell_length_c                   19.628(5)
_cell_angle_alpha                90
_cell_angle_beta                 108.48(3)
_cell_angle_gamma                90
_cell_volume                     1899.77
loop_
_atom_site_label
_atom_site_type_symbol
_atom_site_fract_x
_atom_site_fract_y
_atom_site_fract_z
C1 C 0.4486(3) 0.65147(17) 0.62926(10)
C2 C 0.4805(3) 0.75622(16) 0.59617(10)
C3 C 0.4612(3) 0.75482(18) 0.52269(11)
H1 H 0.4444 0.6892 0.4984
C4 C 0.4666(3) 0.84879(17) 0.48563(10)
H2 H 0.4509 0.8450 0.4366
C5 C 0.4950(3) 0.94928(16) 0.51948(10)
C6 C 0.5157(3) 0.94969(17) 0.59316(10)
H3 H 0.5337 1.0154 0.6174
C7 C 0.5105(3) 0.85606(17) 0.63139(10)
C8 C 0.5413(3) 0.86631(18) 0.71094(10)
C9 C 0.2433(3) 0.76529(18) 0.78393(12)
H4 H 0.3057 0.7222 0.7624
C10 C 0.0327(3) 0.8283(2) 0.81666(14)
H5 H -0.0743 0.8379 0.8221
C11 C 0.1730(3) 0.8889(2) 0.84566(13)
H6 H 0.1791 0.9483 0.8754
C12 C -0.0325(3) 0.6638(2) 0.73605(13)
H7 H 0.0323 0.6183 0.7138
H8 H -0.1253 0.6963 0.6981
C13 C -0.1057(3) 0.5947(2) 0.78305(13)
H9 H -0.1655 0.6413 0.8068
H10 H -0.1889 0.5454 0.7526
C14 C 0.0246(3) 0.5301(2) 0.83906(13)
H11 H 0.1028 0.5791 0.8722
H12 H 0.0903 0.4868 0.8160
C15 C -0.0576(3) 0.4559(2) 0.88098(14)
H13 H -0.1116 0.4999 0.9086
H14 H -0.1462 0.4135 0.8473
C16 C 0.0677(3) 0.3805(2) 0.93116(14)
H15 H 0.1556 0.4228 0.9653
H16 H 0.1227 0.3369 0.9037
C17 C -0.0152(3) 0.3068(2) 0.97162(14)
H17 H -0.0424 0.3480 1.0086
H18 H -0.1215 0.2794 0.9388
C18 C 0.0951(5) 0.1188(3) 0.97336(15)
H19 H 0.0255 0.0981 0.9280
C19 C 0.2153(5) 0.0580(3) 1.01977(15)
H20 H 0.2434 -0.0125 1.0115
C20 C 0.2138(3) 0.2111(2) 1.06910(12)
H21 H 0.2404 0.2682 1.1016
N1 N 0.2899(3) 0.11594(16) 1.08098(9)
N2 N 0.0944(3) 0.21549(17) 1.00501(10)
N3 N 0.0791(3) 0.74949(16) 0.77753(10)
N4 N 0.3057(2) 0.85028(15) 0.82482(10)
O1 O 0.5550(2) 0.57484(12) 0.63140(8)
O2 O 0.3179(2) 0.64126(14) 0.64640(9)
O3 O 0.5895(2) 0.78825(14) 0.75191(8)
O4 O 0.5159(2) 0.95948(13) 0.73342(8)
Co1 Co 0.52067(4) 0.93888(2) 0.833133(14)
C1B C 0.5514(3) 1.34853(17) 0.37074(10)
C2B C 0.5195(3) 1.24378(16) 0.40383(10)
C3B C 0.5388(3) 1.24518(18) 0.47731(11)
H1B H 0.5556 1.3108 0.5016
C4B C 0.5334(3) 1.15121(17) 0.51437(10)
H2B H 0.5491 1.1550 0.5634
C5B C 0.5050(3) 1.05072(16) 0.48052(10)
C6B C 0.4843(3) 1.05031(17) 0.40684(10)
H3B H 0.4663 0.9846 0.3826
C7B C 0.4895(3) 1.14394(17) 0.36861(10)
C8B C 0.4587(3) 1.13369(18) 0.28906(10)
C9B C 0.7567(3) 0.23471(18) 1.21607(12)
H4B H 0.6943 0.2778 1.2376
C10B C 0.9673(3) 0.1717(2) 1.18334(14)
H5B H 1.0743 0.1621 1.1779
C11B C 0.8270(3) 0.1111(2) 1.15434(13)
H6B H 0.8209 0.0517 1.1246
C12B C 1.0325(3) 0.3362(2) 1.26395(13)
H7B H 0.9677 0.3817 1.2862
H8B H 1.1253 0.3037 1.3019
C13B C 1.1057(3) 0.4053(2) 1.21695(13)
H9B H 1.1655 0.3587 1.1932
H10B H 1.1889 0.4546 1.2474
C14B C 0.9754(3) 0.4699(2) 1.16094(13)
H11B H 0.8972 0.4209 1.1278
H12B H 0.9097 0.5132 1.1840
C15B C 1.0576(3) 0.5441(2) 1.11902(14)
H13B H 1.1116 0.5001 1.0914
H14B H 1.1462 0.5865 1.1527
C16B C 0.9323(3) 0.6195(2) 1.06884(14)
H15B H 0.8444 0.5772 1.0347
H16B H 0.8773 0.6631 1.0963
C17B C 1.0152(3) 0.6932(2) 1.02838(14)
H17B H 1.0424 0.6520 0.9914
H18B H 1.1215 0.7206 1.0612
C18B C 0.9049(5) 0.8812(3) 1.02664(15)
H19B H 0.9745 0.9019 1.0720
C19B C 0.7847(5) 0.9420(3) 0.98023(15)
H20B H 0.7566 1.0125 0.9885
C20B C 0.7862(3) 0.7889(2) 0.93090(12)
H21B H 0.7596 0.7318 0.8984
N1B N 0.7101(3) 0.88406(16) 0.91902(9)
N2B N 0.9056(3) 0.78451(17) 0.99499(10)
N3B N 0.9209(3) 0.25051(16) 1.22247(10)
N4B N 0.6943(2) 0.14972(15) 1.17518(10)
O1B O 0.4450(2) 1.42516(12) 0.36860(8)
O1A O 0.4450(2) 1.07484(12) 0.86860(8)
O1C O 0.5550(2) -0.07484(12) 1.13140(8)
O2B O 0.6821(2) 1.35874(14) 0.35360(9)
O3B O 0.4105(2) 1.21175(14) 0.24809(8)
O4B O 0.4841(2) 1.04052(13) 0.26658(8)
O4B_2 O 0.4841(2) 0.04052(13) 1.26658(8)
Co1B Co 0.47933(4) 0.06112(2) 1.166867(14)
Co1A Co 0.47933(4) 0.43888(2) 0.666867(14)
Co1C Co 0.52067(4) 1.56112(2) 0.333133(14)
Co1B_2 Co 0.47933(4) 1.06112(2) 0.166867(14)
loop_
_geom_bond_atom_site_label_1
_geom_bond_atom_site_label_2
_geom_bond_site_symmetry_1
_geom_bond_site_symmetry_2
C1 C2 1_555 1_555
C2 C3 1_555 1_555
C3 H1 1_555 1_555
C4 C3 1_555 1_555
H2 C4 1_555 1_555
C5 C4 1_555 1_555
C6 C5 1_555 1_555
H3 C6 1_555 1_555
C7 C2 1_555 1_555
C8 C7 1_555 1_555
C9 H4 1_555 1_555
C10 H5 1_555 1_555
C11 C10 1_555 1_555
H6 C11 1_555 1_555
C12 H7 1_555 1_555
H8 C12 1_555 1_555
C13 C12 1_555 1_555
H9 C13 1_555 1_555
H10 C13 1_555 1_555
C14 C13 1_555 1_555
H11 C14 1_555 1_555
H12 C14 1_555 1_555
C15 C14 1_555 1_555
H13 C15 1_555 1_555
H14 C15 1_555 1_555
C16 C15 1_555 1_555
H15 C16 1_555 1_555
H16 C16 1_555 1_555
C17 C16 1_555 1_555
H17 C17 1_555 1_555
H18 C17 1_555 1_555
C18 H19 1_555 1_555
C19 C18 1_555 1_555
H20 C19 1_555 1_555
C20 H21 1_555 1_555
N1 C19 1_555 1_555
N2 C17 1_555 1_555
N3 C9 1_555 1_555
N4 C9 1_555 1_555
O1 C1 1_555 1_555
O2 C1 1_555 1_555
O3 C8 1_555 1_555
O4 C8 1_555 1_555
Co1 N4 1_555 1_555
C1B C2B 1_555 1_555
C2B C3B 1_555 1_555
C3B H1B 1_555 1_555
C4B C3B 1_555 1_555
H2B C4B 1_555 1_555
C5B C5 1_555 1_555
C6B C5B 1_555 1_555
H3B C6B 1_555 1_555
C7B C2B 1_555 1_555
C8B C7B 1_555 1_555
C9B H4B 1_555 1_555
C10B H5B 1_555 1_555
C11B C10B 1_555 1_555
H6B C11B 1_555 1_555
C12B H7B 1_555 1_555
H8B C12B 1_555 1_555
C13B C12B 1_555 1_555
H9B C13B 1_555 1_555
H10B C13B 1_555 1_555
C14B C13B 1_555 1_555
H11B C14B 1_555 1_555
H12B C14B 1_555 1_555
C15B C14B 1_555 1_555
H13B C15B 1_555 1_555
H14B C15B 1_555 1_555
C16B C15B 1_555 1_555
H15B C16B 1_555 1_555
H16B C16B 1_555 1_555
C17B C16B 1_555 1_555
H17B C17B 1_555 1_555
H18B C17B 1_555 1_555
C18B H19B 1_555 1_555
C19B C18B 1_555 1_555
H20B C19B 1_555 1_555
C20B H21B 1_555 1_555
N1B Co1 1_555 1_555
N2B C17B 1_555 1_555
N3B C9B 1_555 1_555
N4B C9B 1_555 1_555
O1B C1B 1_555 1_555
O1A Co1 1_555 1_555
O1C Co1B 1_555 1_555
O2B C1B 1_555 1_555
O3B C8B 1_555 1_555
O4B C8B 1_555 1_555
O4B_2 Co1B 1_555 1_555
Co1B N1 1_555 1_555
Co1A O1 1_555 1_555
Co1C O1B 1_555 1_555
Co1B_2 O4B 1_555 1_555
C6 C7 1_555 1_555
C10 N3 1_555 1_555
C11 N4 1_555 1_555
C12 N3 1_555 1_555
C18 N2 1_555 1_555
C20 N1 1_555 1_555
C20 N2 1_555 1_555
O4 Co1 1_555 1_555
C4B C5B 1_555 1_555
C6B C7B 1_555 1_555
C10B N3B 1_555 1_555
C11B N4B 1_555 1_555
C12B N3B 1_555 1_555
C18B N2B 1_555 1_555
C19B N1B 1_555 1_555
C20B N1B 1_555 1_555
C20B N2B 1_555 1_555
N4B Co1B 1_555 1_555

#END
