
#######################################################################
#
#                 Cambridge Crystallographic Data Centre
#                                CCDC 
#
#######################################################################
#
# If this CIF has been generated from an entry in the Cambridge 
# Structural Database, then it will include bibliographic, chemical, 
# crystal, experimental, refinement or atomic coordinate data resulting 
# from the CCDC's data processing and validation procedures.
#
#######################################################################

data_PUDVEQ
_symmetry_cell_setting           monoclinic
_symmetry_space_group_name_H-M   'P 21/n'
_symmetry_Int_Tables_number      14
_space_group_name_Hall           '-P 2yn'
loop_
_symmetry_equiv_pos_site_id
_symmetry_equiv_pos_as_xyz
1 x,y,z
2 1/2-x,1/2+y,1/2-z
3 -x,-y,-z
4 1/2+x,1/2-y,1/2+z
_cell_length_a                   8.848(3)
_cell_length_b                   13.555(5)
_cell_length_c                   19.518(7)
_cell_angle_alpha                90
_cell_angle_beta                 90.147(4)
_cell_angle_gamma                90
_cell_volume                     2340.88
loop_
_atom_site_label
_atom_site_type_symbol
_atom_site_fract_x
_atom_site_fract_y
_atom_site_fract_z
Cd1 Cd 0.50007(5) 0.99518(3) 0.24252(3)
C1 C 0.6235(9) 1.1964(6) 0.3227(4)
C2 C 0.3688(9) 1.1967(6) 0.3201(4)
N1 N 0.4961(7) 1.1467(5) 0.3118(4)
N2 N 0.2557(9) 1.2341(7) 0.3279(5)
N3 N 0.7403(9) 1.2339(7) 0.3298(5)
N4 N 0.5140(10) 1.0922(5) 0.1454(4)
C3 C 0.4853(12) 0.7744(7) 0.4542(5)
C4 C 0.5141(12) 1.2242(6) 0.0358(4)
N5 N 0.5303(13) 1.3974(7) -0.0020(4)
C5 C 0.5966(13) 1.1792(8) 0.1490(6)
H1 H 0.6525 1.1936 0.1894
C6 C 1.1275(12) 0.9714(16) 0.2456(9)
N6 N 0.4690(13) 0.6026(7) 0.4978(4)
N7 N 0.4850(11) 0.9016(6) 0.3423(4)
C7 C 0.5101(15) 1.2959(7) -0.0238(5)
H2 H 0.5910 1.2785 -0.0566
H3 H 0.4120 1.2896 -0.0479
C8 C 0.5403(16) 0.9253(8) 0.3988(6)
H4 H 0.5815 0.9897 0.4030
C9 C 0.8725(11) 0.9691(15) 0.2526(8)
C10 C 0.5462(18) 0.8644(8) 0.4560(6)
H5 H 0.5939 0.8871 0.4967
C11 C 0.4582(17) 1.0720(8) 0.0909(6)
H6 H 0.4182 1.0074 0.0859
N8 N 0.7557(11) 0.9906(7) 0.2495(10)
N9 N 1.2442(11) 0.9946(7) 0.2378(10)
C12 C 0.4049(15) 1.4350(9) 0.0348(7)
H7 H 0.3816 1.3906 0.0736
H8 H 0.3153 1.4373 0.0044
C13 C 0.4037(14) 0.7497(8) 0.3951(5)
H9 H 0.3469 0.6904 0.3929
C14 C 0.5993(13) 1.2453(8) 0.0953(6)
H10 H 0.6575 1.3040 0.0983
C15 C 0.4905(16) 0.7055(8) 0.5152(5)
H11 H 0.5895 0.7130 0.5384
H12 H 0.4112 0.7254 0.5481
C16 C 0.4466(17) 1.1351(7) 0.0335(6)
H13 H 0.3919 1.1151 -0.0060
C17 C 0.5938(15) 0.5634(9) 0.4625(7)
H14 H 0.6835 0.5631 0.4929
H15 H 0.6168 0.6052 0.4222
C18 C 0.4413(17) 0.5432(9) 0.5615(6)
H16 H 0.3549 0.5705 0.5874
H17 H 0.5318 0.5440 0.5914
C19 C 0.5616(17) 1.4613(9) -0.0621(6)
H18 H 0.4730 1.4628 -0.0931
H19 H 0.6495 1.4358 -0.0879
C20 C 0.4078(13) 0.8137(8) 0.3401(6)
H20 H 0.3555 0.7964 0.2993
N10 N 1.0014(9) 0.9159(13) 0.2587(9)
O1 O 0.5043(6) 0.8555(4) 0.1723(3)
Cd1B Cd 0.49993(5) 2.00482(3) -0.24252(3)
Cd1_2 Cd 1.50007(5) 0.99518(3) 0.24252(3)
Cd1B_2 Cd 0.49993(5) 0.00482(3) 0.75748(3)
Cd1_3 Cd -0.49993(5) 0.99518(3) 0.24252(3)
C1B C 0.3765(9) 1.8036(6) -0.3227(4)
C2B C 0.6312(9) 1.8033(6) -0.3201(4)
N1B N 0.5039(7) 1.8533(5) -0.3118(4)
N2B N 0.7443(9) 1.7659(7) -0.3279(5)
N3B N 0.2597(9) 1.7661(7) -0.3298(5)
N4B N 0.4860(10) 1.9078(5) -0.1454(4)
C3B C 0.5147(12) 0.2256(7) 0.5458(5)
C4B C 0.4859(12) 1.7758(6) -0.0358(4)
N5B N 0.4697(13) 1.6026(7) 0.0020(4)
C5B C 0.4034(13) 1.8208(8) -0.1490(6)
H1B H 0.3475 1.8064 -0.1894
C6_2 C 0.1275(12) 0.9714(16) 0.2456(9)
N6B N 0.5310(13) 0.3974(7) 0.5022(4)
N7B N 0.5150(11) 0.0984(6) 0.6577(4)
N7B_2 N 0.5150(11) 2.0984(6) -0.3423(4)
C7B C 0.4899(15) 1.7041(7) 0.0238(5)
H2B H 0.4090 1.7215 0.0566
H3B H 0.5880 1.7104 0.0479
C8B C 0.4597(16) 0.0747(8) 0.6012(6)
H4B H 0.4185 0.0103 0.5970
C9_2 C -0.1275(11) 0.9691(15) 0.2526(8)
C10B C 0.4538(18) 0.1356(8) 0.5440(6)
H5B H 0.4061 0.1129 0.5033
C11B C 0.5418(17) 1.9280(8) -0.0909(6)
H6B H 0.5818 1.9926 -0.0859
N8_2 N -0.2443(11) 0.9906(7) 0.2495(10)
N8B N 0.2443(11) 2.0094(7) -0.2495(10)
N9_2 N 0.2442(11) 0.9946(7) 0.2378(10)
N9B N 0.7558(11) 2.0054(7) -0.2378(10)
C12B C 0.5951(15) 1.5650(9) -0.0348(7)
H7B H 0.6184 1.6094 -0.0736
H8B H 0.6847 1.5627 -0.0044
C13B C 0.5963(14) 0.2503(8) 0.6049(5)
H9B H 0.6531 0.3096 0.6071
C14B C 0.4007(13) 1.7547(8) -0.0953(6)
H10B H 0.3425 1.6960 -0.0983
C15B C 0.5095(16) 0.2945(8) 0.4848(5)
H11B H 0.4105 0.2870 0.4616
H12B H 0.5888 0.2746 0.4519
C16B C 0.5534(17) 1.8649(7) -0.0335(6)
H13B H 0.6081 1.8849 0.0060
C17B C 0.4062(15) 0.4366(9) 0.5375(7)
H14B H 0.3165 0.4369 0.5071
H15B H 0.3832 0.3948 0.5778
C18B C 0.5587(17) 0.4568(9) 0.4385(6)
H16B H 0.6451 0.4295 0.4126
H17B H 0.4682 0.4560 0.4086
C19B C 0.4384(17) 1.5387(9) 0.0621(6)
H18B H 0.5270 1.5372 0.0931
H19B H 0.3505 1.5642 0.0879
C20B C 0.5922(13) 0.1863(8) 0.6599(6)
H20B H 0.6445 0.2036 0.7007
N10_2 N 0.0014(9) 0.9159(13) 0.2587(9)
O1B O 0.4957(6) 2.1445(4) -0.1723(3)
loop_
_geom_bond_atom_site_label_1
_geom_bond_atom_site_label_2
_geom_bond_site_symmetry_1
_geom_bond_site_symmetry_2
Cd1 N1 1_555 1_555
C1 N1 1_555 1_555
C2 N1 1_555 1_555
N2 C2 1_555 1_555
N3 C1 1_555 1_555
N4 Cd1 1_555 1_555
C3 C10 1_555 1_555
C4 C7 1_555 1_555
N5 C7 1_555 1_555
C5 N4 1_555 1_555
H1 C5 1_555 1_555
C6 N9 1_555 1_555
N6 C15 1_555 1_555
N7 Cd1 1_555 1_555
C7 H2 1_555 1_555
H3 C7 1_555 1_555
C8 N7 1_555 1_555
H4 C8 1_555 1_555
C9 N8 1_555 1_555
C10 C8 1_555 1_555
H5 C10 1_555 1_555
C11 N4 1_555 1_555
H6 C11 1_555 1_555
N8 Cd1 1_555 1_555
N9 Cd1_2 1_555 1_555
C12 N5 1_555 1_555
H7 C12 1_555 1_555
H8 C12 1_555 1_555
C13 C3 1_555 1_555
H9 C13 1_555 1_555
C14 C4 1_555 1_555
H10 C14 1_555 1_555
C15 C3 1_555 1_555
H11 C15 1_555 1_555
H12 C15 1_555 1_555
C16 C4 1_555 1_555
H13 C16 1_555 1_555
C17 N6 1_555 1_555
H14 C17 1_555 1_555
H15 C17 1_555 1_555
C18 N6 1_555 1_555
H16 C18 1_555 1_555
H17 C18 1_555 1_555
C19 N5 1_555 1_555
H18 C19 1_555 1_555
H19 C19 1_555 1_555
C20 N7 1_555 1_555
H20 C20 1_555 1_555
N10 C6 1_555 1_555
O1 Cd1 1_555 1_555
Cd1B N1B 1_555 1_555
Cd1B_2 N7B 1_555 1_555
Cd1_3 N8_2 1_555 1_555
C1B N1B 1_555 1_555
C2B N1B 1_555 1_555
N2B C2B 1_555 1_555
N3B C1B 1_555 1_555
N4B Cd1B 1_555 1_555
C3B C10B 1_555 1_555
C4B C7B 1_555 1_555
N5B C7B 1_555 1_555
C5B N4B 1_555 1_555
H1B C5B 1_555 1_555
C6_2 N9_2 1_555 1_555
N6B C15B 1_555 1_555
N7B C8B 1_555 1_555
N7B_2 Cd1B 1_555 1_555
C7B H2B 1_555 1_555
H3B C7B 1_555 1_555
C8B H4B 1_555 1_555
C9_2 N8_2 1_555 1_555
C10B C8B 1_555 1_555
H5B C10B 1_555 1_555
C11B N4B 1_555 1_555
H6B C11B 1_555 1_555
N8B Cd1B 1_555 1_555
N9_2 Cd1 1_555 1_555
N9B Cd1B 1_555 1_555
C12B C19 1_555 1_555
H7B C12B 1_555 1_555
H8B C12B 1_555 1_555
C13B C3B 1_555 1_555
H9B C13B 1_555 1_555
C14B C4B 1_555 1_555
H10B C14B 1_555 1_555
C15B C3B 1_555 1_555
H11B C15B 1_555 1_555
H12B C15B 1_555 1_555
C16B C4B 1_555 1_555
H13B C16B 1_555 1_555
C17B C18 1_555 1_555
H14B C17B 1_555 1_555
H15B C17B 1_555 1_555
C18B C17 1_555 1_555
H16B C18B 1_555 1_555
H17B C18B 1_555 1_555
C19B C12 1_555 1_555
H18B C19B 1_555 1_555
H19B C19B 1_555 1_555
C20B N7B 1_555 1_555
H20B C20B 1_555 1_555
N10_2 C6_2 1_555 1_555
O1B Cd1B 1_555 1_555
C5 C14 1_555 1_555
C9 N10 1_555 1_555
C11 C16 1_555 1_555
C13 C20 1_555 1_555
N5B C12B 1_555 1_555
N5B C19B 1_555 1_555
C5B C14B 1_555 1_555
N6B C17B 1_555 1_555
N6B C18B 1_555 1_555
C9_2 N10_2 1_555 1_555
C11B C16B 1_555 1_555
C13B C20B 1_555 1_555

#END
