
#######################################################################
#
#                 Cambridge Crystallographic Data Centre
#                                CCDC 
#
#######################################################################
#
# If this CIF has been generated from an entry in the Cambridge 
# Structural Database, then it will include bibliographic, chemical, 
# crystal, experimental, refinement or atomic coordinate data resulting 
# from the CCDC's data processing and validation procedures.
#
#######################################################################

data_PUDWIV
_symmetry_cell_setting           monoclinic
_symmetry_space_group_name_H-M   'P 21/c'
_symmetry_Int_Tables_number      14
_space_group_name_Hall           '-P 2ybc'
loop_
_symmetry_equiv_pos_site_id
_symmetry_equiv_pos_as_xyz
1 x,y,z
2 -x,1/2+y,1/2-z
3 -x,-y,-z
4 x,1/2-y,1/2+z
_cell_length_a                   7.6386(4)
_cell_length_b                   16.1453(9)
_cell_length_c                   8.1907(5)
_cell_angle_alpha                90
_cell_angle_beta                 105.5320(10)
_cell_angle_gamma                90
_cell_volume                     973.249
loop_
_atom_site_label
_atom_site_type_symbol
_atom_site_fract_x
_atom_site_fract_y
_atom_site_fract_z
Sb1 Sb 0.314341(18) 0.416706(9) 0.778863(17)
Br1 Br -0.04108(3) 0.394660(16) 0.38927(3)
Cl1 Cl 0.29212(8) 0.27552(3) 0.70578(7)
Cl2 Cl 0.11252(8) 0.40671(4) 0.95091(8)
Cl3 Cl 0.58342(7) 0.39489(4) 1.00245(7)
C1 C -0.2171(3) 0.31409(13) 0.4306(3)
H1 H -0.3146 0.3055 0.3247
H2 H -0.1555 0.2603 0.4638
C2 C -0.3005(3) 0.34311(13) 0.5689(3)
H3 H -0.2024 0.3492 0.6752
H4 H -0.3844 0.2997 0.5879
C3 C -0.4036(3) 0.42424(12) 0.5324(3)
C4 C -0.5626(3) 0.43134(14) 0.4003(3)
H5 H -0.6070 0.3845 0.3314
C5 C -0.3433(3) 0.49408(14) 0.6317(3)
H6 H -0.2361 0.4907 0.7227
Sb1B Sb -1.314341(18) 0.583294(9) 0.221137(17)
Sb1B_2 Sb 0.685659(18) 0.583294(9) 1.221137(17)
Sb1B_3 Sb -0.314341(18) 0.583294(9) 0.221137(17)
Sb1_2 Sb -0.685659(18) 0.416706(9) 0.778863(17)
Sb1_3 Sb -1.685659(18) 0.416706(9) -0.221137(17)
Br1B Br -0.95892(3) 0.605340(16) 0.61073(3)
Br1B_2 Br 0.04108(3) 0.605340(16) 0.61073(3)
Br1_2 Br -1.04108(3) 0.394660(16) 0.38927(3)
Cl1B Cl -1.29212(8) 0.72448(3) 0.29422(7)
Cl2B Cl -1.11252(8) 0.59329(4) 0.04909(8)
Cl3B Cl 0.41658(7) 0.60511(4) 0.99755(7)
Cl3B_2 Cl -1.58342(7) 0.60511(4) -0.00245(7)
Cl3_2 Cl -1.41658(7) 0.39489(4) 0.00245(7)
C1B C -0.7829(3) 0.68591(13) 0.5694(3)
H1B H -0.6854 0.6945 0.6753
H2B H -0.8445 0.7397 0.5362
C2B C -0.6995(3) 0.65689(13) 0.4311(3)
H3B H -0.7976 0.6508 0.3248
H4B H -0.6156 0.7003 0.4121
C3B C -0.5964(3) 0.57576(12) 0.4676(3)
C3_2 C 0.5964(3) 0.42424(12) 0.5324(3)
C3B_2 C -1.5964(3) 0.57576(12) 0.4676(3)
C4B C -0.4374(3) 0.56866(14) 0.5997(3)
C4_2 C 0.4374(3) 0.43134(14) 0.4003(3)
C4B_2 C -1.4374(3) 0.56866(14) 0.5997(3)
H5B H -0.3930 0.6155 0.6686
H5_2 H 0.3930 0.3845 0.3314
H5B_2 H -1.3930 0.6155 0.6686
C5B C -0.6567(3) 0.50592(14) 0.3683(3)
C5_2 C 0.6567(3) 0.49408(14) 0.6317(3)
C5B_2 C -1.6567(3) 0.50592(14) 0.3683(3)
H6B H -0.7639 0.5093 0.2773
H6_2 H 0.7639 0.4907 0.7227
H6B_2 H -1.7639 0.5093 0.2773
loop_
_geom_bond_atom_site_label_1
_geom_bond_atom_site_label_2
_geom_bond_site_symmetry_1
_geom_bond_site_symmetry_2
Sb1 Br1 1_555 1_555
Br1 C1 1_555 1_555
Cl1 Sb1 1_555 1_555
Cl2 Sb1 1_555 1_555
Cl3 Sb1 1_555 1_555
C1 H1 1_555 1_555
H2 C1 1_555 1_555
C2 C1 1_555 1_555
H3 C2 1_555 1_555
H4 C2 1_555 1_555
C3 C2 1_555 1_555
C4 C3 1_555 1_555
H5 C4 1_555 1_555
C5 C3 1_555 1_555
H6 C5 1_555 1_555
Sb1B Br1B 1_555 1_555
Sb1B_2 Cl3 1_555 1_555
Sb1B_3 Br1 1_555 1_555
Sb1_2 C3 1_555 1_555
Sb1_3 Cl3B_2 1_555 1_555
Br1B Sb1_2 1_555 1_555
Br1B_2 Sb1 1_555 1_555
Br1_2 Sb1B 1_555 1_555
Cl1B Sb1B 1_555 1_555
Cl2B Sb1B 1_555 1_555
Cl3B Sb1 1_555 1_555
Cl3B_2 Sb1B 1_555 1_555
Cl3_2 Sb1B 1_555 1_555
C1B Br1B 1_555 1_555
H1B C1B 1_555 1_555
H2B C1B 1_555 1_555
C2B C1B 1_555 1_555
H3B C2B 1_555 1_555
H4B C2B 1_555 1_555
C3B Sb1B_3 1_555 1_555
C3_2 Sb1 1_555 1_555
C3B_2 Sb1B 1_555 1_555
C4B C5 1_555 1_555
C4_2 Sb1 1_555 1_555
C4B_2 Sb1B 1_555 1_555
H5B C4B 1_555 1_555
H5_2 C4_2 1_555 1_555
H5B_2 C4B_2 1_555 1_555
C5B C4 1_555 1_555
C5_2 Sb1 1_555 1_555
C5B_2 Sb1B 1_555 1_555
H6B C5B 1_555 1_555
H6_2 C5_2 1_555 1_555
H6B_2 C5B_2 1_555 1_555
C4 Sb1_2 1_555 1_555
C5 Sb1_2 1_555 1_555
Sb1B_2 Cl3B 1_555 1_555
Sb1B_3 Br1B_2 1_555 1_555
Sb1B_3 C4B 1_555 1_555
Sb1B_3 C5B 1_555 1_555
Sb1_2 Br1_2 1_555 1_555
Sb1_3 Cl3_2 1_555 1_555
C2B C3B 1_555 1_555
C3B C4B 1_555 1_555
C3B C5B 1_555 1_555
C3_2 C4_2 1_555 1_555
C3_2 C5_2 1_555 1_555
C3B_2 C4B_2 1_555 1_555
C3B_2 C5B_2 1_555 1_555

#END
