
#######################################################################
#
#                 Cambridge Crystallographic Data Centre
#                                CCDC 
#
#######################################################################
#
# If this CIF has been generated from an entry in the Cambridge 
# Structural Database, then it will include bibliographic, chemical, 
# crystal, experimental, refinement or atomic coordinate data resulting 
# from the CCDC's data processing and validation procedures.
#
#######################################################################

data_PUDWAN
_symmetry_cell_setting           monoclinic
_symmetry_space_group_name_H-M   'P 21/n'
_symmetry_Int_Tables_number      14
_space_group_name_Hall           '-P 2yn'
loop_
_symmetry_equiv_pos_site_id
_symmetry_equiv_pos_as_xyz
1 x,y,z
2 1/2-x,1/2+y,1/2-z
3 -x,-y,-z
4 1/2+x,1/2-y,1/2+z
_cell_length_a                   6.543(3)
_cell_length_b                   12.190(5)
_cell_length_c                   12.043(5)
_cell_angle_alpha                90
_cell_angle_beta                 105.30(4)
_cell_angle_gamma                90
_cell_volume                     926.496
loop_
_atom_site_label
_atom_site_type_symbol
_atom_site_fract_x
_atom_site_fract_y
_atom_site_fract_z
Cu1 Cu 0.93363(3) 0.120594(15) 0.498379(16)
P1 P 0.62890(6) 0.20331(3) 0.46538(3)
N1 N 0.3870(2) 0.38415(10) 0.48734(11)
N2 N 0.19916(19) 0.20613(10) 0.46660(11)
N3 N 0.2912(2) 0.29205(10) 0.29826(11)
C1 C 0.3966(2) 0.13893(12) 0.50170(13)
H1 H 0.3696 0.0665 0.4634
H2 H 0.4315 0.1264 0.5858
C2 C 0.1407(2) 0.22545(12) 0.33932(13)
H3 H 0.1263 0.1535 0.2999
H4 H 0.0005 0.2618 0.3169
C3 C 0.2330(2) 0.31601(12) 0.52357(14)
H5 H 0.0958 0.3553 0.5065
H6 H 0.2814 0.3054 0.6080
C4 C 0.6039(2) 0.34073(13) 0.52585(14)
H7 H 0.6460 0.3362 0.6109
H8 H 0.7022 0.3920 0.5024
C5 C 0.4957(2) 0.23446(13) 0.31238(13)
H9 H 0.5906 0.2806 0.2801
H10 H 0.4707 0.1651 0.2681
C6 C 0.3216(3) 0.39746(12) 0.36153(14)
H11 H 0.4305 0.4409 0.3375
H12 H 0.1874 0.4394 0.3400
N4 N 1.0663(2) 0.01034(10) 0.62530(12)
N5 N 1.1924(2) 0.01803(10) 0.71365(12)
N6 N 1.3175(2) 0.02372(13) 0.80458(13)
Cu1_2 Cu -0.06637(3) 0.120594(15) 0.498379(16)
Cu1B Cu 1.06637(3) -0.120594(15) 0.501621(16)
N2_2 N 1.19916(19) 0.20613(10) 0.46660(11)
N4B N 0.9337(2) -0.01034(10) 0.37470(12)
loop_
_geom_bond_atom_site_label_1
_geom_bond_atom_site_label_2
_geom_bond_site_symmetry_1
_geom_bond_site_symmetry_2
Cu1 P1 1_555 1_555
P1 C1 1_555 1_555
N1 C3 1_555 1_555
N2 C1 1_555 1_555
N3 C2 1_555 1_555
C1 H1 1_555 1_555
H2 C1 1_555 1_555
C2 N2 1_555 1_555
H3 C2 1_555 1_555
H4 C2 1_555 1_555
C3 N2 1_555 1_555
H5 C3 1_555 1_555
H6 C3 1_555 1_555
C4 P1 1_555 1_555
H7 C4 1_555 1_555
H8 C4 1_555 1_555
C5 P1 1_555 1_555
H9 C5 1_555 1_555
H10 C5 1_555 1_555
C6 N1 1_555 1_555
H11 C6 1_555 1_555
H12 C6 1_555 1_555
N4 Cu1 1_555 1_555
N5 N4 1_555 1_555
N6 N5 1_555 1_555
Cu1_2 N2 1_555 1_555
Cu1B N4 1_555 1_555
N2_2 Cu1 1_555 1_555
N4B Cu1 1_555 1_555
N1 C4 1_555 1_555
N3 C5 1_555 1_555
N3 C6 1_555 1_555
Cu1B N4B 1_555 1_555

#END
