
#######################################################################
#
#                 Cambridge Crystallographic Data Centre
#                                CCDC 
#
#######################################################################
#
# If this CIF has been generated from an entry in the Cambridge 
# Structural Database, then it will include bibliographic, chemical, 
# crystal, experimental, refinement or atomic coordinate data resulting 
# from the CCDC's data processing and validation procedures.
#
#######################################################################

data_PUFPIR
_symmetry_cell_setting           monoclinic
_symmetry_space_group_name_H-M   'P 21/c'
_symmetry_Int_Tables_number      14
_space_group_name_Hall           '-P 2ybc'
loop_
_symmetry_equiv_pos_site_id
_symmetry_equiv_pos_as_xyz
1 x,y,z
2 -x,1/2+y,1/2-z
3 -x,-y,-z
4 x,1/2-y,1/2+z
_cell_length_a                   25.655(3)
_cell_length_b                   15.5887(16)
_cell_length_c                   16.5118(17)
_cell_angle_alpha                90
_cell_angle_beta                 91.4720(10)
_cell_angle_gamma                90
_cell_volume                     6601.35
loop_
_atom_site_label
_atom_site_type_symbol
_atom_site_fract_x
_atom_site_fract_y
_atom_site_fract_z
C1 C 0.4295(4) 0.6092(8) 0.9889(8)
H1 H 0.4174 0.6395 0.9407
H2 H 0.4181 0.5501 0.9843
S1 S 0.12176(14) 1.06827(18) 0.7168(2)
I1 I 0.04831(2) 1.10223(4) 0.49163(4)
I2 I 0.04173(2) 0.93439(4) 0.28673(4)
I3 I 0.53838(2) 0.88298(4) 0.98398(5)
Cu1 Cu 0.04895(5) 0.92684(9) 0.44338(8)
Cu2 Cu 0.45799(5) 0.94906(8) 1.06812(9)
Cu3 Cu 0.48464(5) 0.94317(9) 0.85877(9)
Cu4 Cu -0.02706(5) 0.99972(10) 0.38286(8)
S2 S 0.42538(8) 0.75712(15) 1.08048(15)
S3 S 0.06410(8) 0.72793(16) 0.44013(14)
S4 S 0.38156(11) 1.01821(17) 0.7718(2)
N1 N 0.1506(2) 0.7349(4) 0.5343(4)
N2 N 0.1099(2) 0.8661(4) 0.4939(4)
S5 S 0.35297(14) 0.4098(2) 0.8880(3)
C2 C 0.1885(3) 0.8672(5) 0.5705(5)
H3 H 0.2151 0.8984 0.5962
C3 C 0.2292(3) 0.6391(5) 0.6156(5)
H4 H 0.2027 0.6100 0.5877
C4 C 0.2252(3) 0.6455(5) 0.8605(5)
C5 C 0.1892(3) 0.7788(5) 0.5732(5)
C6 C 0.3798(3) 0.8172(6) 1.0262(6)
C7 C 0.2692(3) 0.5930(5) 0.6559(5)
N3 N 0.4239(2) 0.8745(5) 0.8221(4)
N4 N 0.3896(3) 0.9014(4) 1.0225(4)
C8 C 0.3048(3) 0.8285(5) 0.9477(5)
N5 N 0.3453(2) 0.8604(5) 0.7410(4)
C9 C 0.2619(3) 0.7818(5) 0.9045(5)
N6 N 0.3389(2) 0.7789(4) 0.9896(4)
C10 C 0.3076(3) 0.7264(5) 0.7036(5)
C11 C 0.1837(3) 0.7782(5) 0.8189(5)
C12 C 0.3478(3) 0.7750(5) 0.7490(5)
C13 C 0.2632(3) 0.6929(5) 0.9017(5)
H5 H 0.2904 0.6642 0.9282
C14 C 0.1491(3) 0.9087(6) 0.5302(5)
H6 H 0.1495 0.9683 0.5279
C15 C 0.2222(3) 0.8234(6) 0.8627(5)
H7 H 0.2210 0.8830 0.8636
C16 C 0.3828(3) 0.9059(6) 0.7791(6)
N7 N 0.1496(3) 0.9117(4) 0.7696(4)
C17 C 0.2682(3) 0.7705(5) 0.6612(5)
H8 H 0.2683 0.8302 0.6624
C18 C 0.2293(3) 0.7289(5) 0.6175(5)
C19 C 0.1438(3) 0.8271(5) 0.7715(5)
C20 C 0.1855(3) 0.6888(5) 0.8197(5)
H9 H 0.1596 0.6579 0.7923
C21 C 0.3872(3) 0.7376(6) 0.7955(5)
H10 H 0.3885 0.6785 0.8032
N8 N 0.2252(3) 0.4555(4) 0.6458(4)
N9 N 0.2805(3) 0.5224(5) 0.8696(5)
C22 C 0.1138(3) 0.7795(6) 0.4951(5)
C23 C 0.2707(3) 0.4981(6) 0.6515(5)
C24 C 0.3118(3) 0.9164(5) 0.9448(5)
H11 H 0.2880 0.9517 0.9174
C25 C 0.3548(3) 0.9496(6) 0.9833(5)
H12 H 0.3599 1.0086 0.9821
C26 C 0.3077(3) 0.6378(5) 0.6989(5)
H13 H 0.3343 0.6074 0.7252
C27 C 0.3182(3) 0.4535(6) 0.6523(6)
H14 H 0.3499 0.4823 0.6558
C28 C 0.0735(4) 0.6175(6) 0.4738(6)
H15 H 0.0561 0.5796 0.4351
H16 H 0.1105 0.6044 0.4736
C29 C 0.0546(4) 0.5995(6) 0.5523(6)
H17 H 0.0738 0.6341 0.5916
H18 H 0.0615 0.5397 0.5649
N10 N 0.2720(3) 0.3223(5) 0.6447(6)
C30 C 0.1906(3) 0.4934(6) 0.8505(5)
H19 H 0.1565 0.5124 0.8422
C31 C 0.4243(3) 0.7903(6) 0.8299(5)
H20 H 0.4512 0.7654 0.8604
C32 C 0.3160(4) 0.3652(6) 0.6476(6)
H21 H 0.3471 0.3347 0.6465
C33 C 0.2023(4) 0.4080(6) 0.8550(6)
H22 H 0.1749 0.3689 0.8516
N11 N 0.2502(4) 0.3780(5) 0.8640(6)
S6 S 0.17160(11) 0.30743(17) 0.6416(2)
C34 C 0.0703(3) 0.8390(6) 0.6836(5)
H23 H 0.0429 0.8135 0.6546
C35 C 0.1030(3) 0.7884(6) 0.7275(5)
H24 H 0.0984 0.7292 0.7285
C36 C 0.1157(3) 0.9564(6) 0.7251(6)
C37 C 0.1777(4) 1.0917(7) 0.7813(7)
H25 H 0.2028 1.0455 0.7767
H26 H 0.1940 1.1439 0.7623
C38 C 0.2283(3) 0.3702(6) 0.6429(6)
C39 C 0.4072(4) 0.6473(6) 1.0587(7)
H27 H 0.4167 0.6126 1.1055
H28 H 0.3695 0.6449 1.0520
C40 C 0.1212(4) 0.3870(7) 0.6424(7)
H29 H 0.1271 0.4259 0.6876
H30 H 0.1215 0.4202 0.5927
I4 I 0.53295(3) 1.04805(6) 0.77402(4)
N12 N 0.0756(3) 0.9238(5) 0.6799(4)
C41 C 0.0613(5) 0.2973(8) 0.7279(8)
H31 H 0.0859 0.2510 0.7327
H32 H 0.0265 0.2748 0.7297
H33 H 0.0669 0.3368 0.7718
C42 C 0.0682(4) 0.3420(7) 0.6503(8)
H34 H 0.0408 0.3844 0.6435
H35 H 0.0641 0.3007 0.6066
C43 C 0.2317(3) 0.5501(6) 0.8589(5)
C44 C -0.0047(4) 0.6167(7) 0.5614(7)
H36 H -0.0110 0.6774 0.5603
H37 H -0.0159 0.5936 0.6120
H38 H -0.0238 0.5898 0.5176
C45 C 0.2875(4) 0.4379(7) 0.8724(6)
C46 C 0.3197(4) 1.0416(8) 0.7221(7)
H39 H 0.2957 0.9952 0.7330
H40 H 0.3056 1.0934 0.7456
C47 C 0.1651(5) 1.1023(8) 0.8662(7)
H41 H 0.1527 1.0483 0.8877
H42 H 0.1375 1.1445 0.8710
C48 C 0.3218(5) 1.0525(8) 0.6402(7)
H43 H 0.3301 0.9978 0.6156
H44 H 0.3500 1.0918 0.6288
C49 C 0.4915(5) 0.6120(8) 0.9944(9)
H45 H 0.5033 0.6680 0.9792
H46 H 0.5054 0.5700 0.9583
H47 H 0.5031 0.5997 1.0489
C50 C 0.2153(5) 1.1330(10) 0.9169(9)
H48 H 0.2385 1.0853 0.9252
H49 H 0.2049 1.1549 0.9684
H50 H 0.2328 1.1773 0.8876
C51 C 0.3507(5) 0.2976(8) 0.9133(8)
H51 H 0.3768 0.2839 0.9548
H52 H 0.3166 0.2823 0.9329
C52 C 0.2695(5) 1.0883(9) 0.5985(9)
H53 H 0.2533 1.0439 0.5663
H54 H 0.2775 1.1362 0.5644
H55 H 0.2460 1.1063 0.6395
C53 C 0.4169(6) 0.2622(9) 0.8068(9)
H56 H 0.4208 0.3173 0.7818
H57 H 0.4213 0.2180 0.7670
H58 H 0.4427 0.2555 0.8494
C54 C 0.3606(5) 0.2549(9) 0.8431(8)
H59 H 0.3357 0.2748 0.8020
H60 H 0.3536 0.1946 0.8520
I1B I -0.04831(2) 0.89777(4) 0.50837(4)
I3B I 0.46162(2) 1.11702(4) 1.01602(5)
Cu1B Cu -0.04895(5) 1.07316(9) 0.55662(8)
Cu2B Cu 0.54201(5) 1.05094(8) 0.93188(9)
Cu3B Cu 0.51536(5) 1.05683(9) 1.14123(9)
Cu4B Cu 0.02706(5) 1.00028(10) 0.61714(8)
I4B I 0.46705(3) 0.95195(6) 1.22598(4)
N12B N -0.0756(3) 1.0762(5) 0.3201(4)
loop_
_geom_bond_atom_site_label_1
_geom_bond_atom_site_label_2
_geom_bond_site_symmetry_1
_geom_bond_site_symmetry_2
C1 H1 1_555 1_555
H2 C1 1_555 1_555
S1 C36 1_555 1_555
I1 Cu1 1_555 1_555
I2 Cu1 1_555 1_555
I3 Cu2 1_555 1_555
Cu1 Cu4 1_555 1_555
Cu2 N4 1_555 1_555
Cu3 I3 1_555 1_555
Cu4 I1 1_555 1_555
S2 C6 1_555 1_555
S3 C22 1_555 1_555
S4 C16 1_555 1_555
N1 C5 1_555 1_555
N2 Cu1 1_555 1_555
S5 C45 1_555 1_555
C2 H3 1_555 1_555
C3 H4 1_555 1_555
C4 C13 1_555 1_555
C5 C2 1_555 1_555
C6 N4 1_555 1_555
C7 C3 1_555 1_555
N3 Cu3 1_555 1_555
N4 C25 1_555 1_555
C8 C9 1_555 1_555
N5 C12 1_555 1_555
C9 C13 1_555 1_555
N6 C6 1_555 1_555
C10 C12 1_555 1_555
C11 C15 1_555 1_555
C12 C21 1_555 1_555
C13 H5 1_555 1_555
C14 N2 1_555 1_555
H6 C14 1_555 1_555
C15 C9 1_555 1_555
H7 C15 1_555 1_555
C16 N3 1_555 1_555
N7 C19 1_555 1_555
C17 C10 1_555 1_555
H8 C17 1_555 1_555
C18 C3 1_555 1_555
C19 C11 1_555 1_555
C20 C4 1_555 1_555
H9 C20 1_555 1_555
C21 H10 1_555 1_555
N8 C23 1_555 1_555
N9 C43 1_555 1_555
C22 N1 1_555 1_555
C23 C7 1_555 1_555
C24 C8 1_555 1_555
H11 C24 1_555 1_555
C25 C24 1_555 1_555
H12 C25 1_555 1_555
C26 C7 1_555 1_555
H13 C26 1_555 1_555
C27 C23 1_555 1_555
H14 C27 1_555 1_555
C28 S3 1_555 1_555
H15 C28 1_555 1_555
H16 C28 1_555 1_555
C29 C28 1_555 1_555
H17 C29 1_555 1_555
H18 C29 1_555 1_555
N10 C32 1_555 1_555
C30 H19 1_555 1_555
C31 N3 1_555 1_555
H20 C31 1_555 1_555
C32 C27 1_555 1_555
H21 C32 1_555 1_555
C33 C30 1_555 1_555
H22 C33 1_555 1_555
N11 C33 1_555 1_555
S6 C38 1_555 1_555
C34 H23 1_555 1_555
C35 C19 1_555 1_555
H24 C35 1_555 1_555
C36 N7 1_555 1_555
C37 S1 1_555 1_555
H25 C37 1_555 1_555
H26 C37 1_555 1_555
C38 N8 1_555 1_555
C39 C1 1_555 1_555
H27 C39 1_555 1_555
H28 C39 1_555 1_555
C40 S6 1_555 1_555
H29 C40 1_555 1_555
H30 C40 1_555 1_555
I4 Cu3 1_555 1_555
N12 C34 1_555 1_555
C41 H31 1_555 1_555
H32 C41 1_555 1_555
H33 C41 1_555 1_555
C42 C40 1_555 1_555
H34 C42 1_555 1_555
H35 C42 1_555 1_555
C43 C4 1_555 1_555
C44 C29 1_555 1_555
H36 C44 1_555 1_555
H37 C44 1_555 1_555
H38 C44 1_555 1_555
C45 N9 1_555 1_555
C46 S4 1_555 1_555
H39 C46 1_555 1_555
H40 C46 1_555 1_555
C47 C37 1_555 1_555
H41 C47 1_555 1_555
H42 C47 1_555 1_555
C48 C46 1_555 1_555
H43 C48 1_555 1_555
H44 C48 1_555 1_555
C49 C1 1_555 1_555
H45 C49 1_555 1_555
H46 C49 1_555 1_555
H47 C49 1_555 1_555
C50 C47 1_555 1_555
H48 C50 1_555 1_555
H49 C50 1_555 1_555
H50 C50 1_555 1_555
C51 S5 1_555 1_555
H51 C51 1_555 1_555
H52 C51 1_555 1_555
C52 C48 1_555 1_555
H53 C52 1_555 1_555
H54 C52 1_555 1_555
H55 C52 1_555 1_555
C53 H56 1_555 1_555
H57 C53 1_555 1_555
H58 C53 1_555 1_555
C54 C51 1_555 1_555
H59 C54 1_555 1_555
H60 C54 1_555 1_555
I1B Cu1 1_555 1_555
I3B Cu2 1_555 1_555
Cu1B I1 1_555 1_555
Cu2B I3 1_555 1_555
Cu3B Cu2 1_555 1_555
Cu4B I1 1_555 1_555
I4B Cu2 1_555 1_555
N12B Cu4 1_555 1_555
I2 Cu4 1_555 1_555
Cu3 Cu2B 1_555 1_555
Cu4 I1B 1_555 1_555
S2 C39 1_555 1_555
N2 C22 1_555 1_555
C2 C14 1_555 1_555
C5 C18 1_555 1_555
C8 N6 1_555 1_555
N5 C16 1_555 1_555
C10 C26 1_555 1_555
C11 C20 1_555 1_555
C17 C18 1_555 1_555
C21 C31 1_555 1_555
N10 C38 1_555 1_555
C30 C43 1_555 1_555
N11 C45 1_555 1_555
C34 C35 1_555 1_555
C36 N12 1_555 1_555
I4 Cu2B 1_555 1_555
N12 Cu4B 1_555 1_555
C41 C42 1_555 1_555
C53 C54 1_555 1_555
I1B Cu1B 1_555 1_555
I1B Cu4B 1_555 1_555
I3B Cu2B 1_555 1_555
I3B Cu3B 1_555 1_555
Cu1B Cu4B 1_555 1_555
Cu3B I4B 1_555 1_555

#END
