
#######################################################################
#
#                 Cambridge Crystallographic Data Centre
#                                CCDC 
#
#######################################################################
#
# If this CIF has been generated from an entry in the Cambridge 
# Structural Database, then it will include bibliographic, chemical, 
# crystal, experimental, refinement or atomic coordinate data resulting 
# from the CCDC's data processing and validation procedures.
#
#######################################################################

data_PUFTUH
_symmetry_cell_setting           orthorhombic
_symmetry_space_group_name_H-M   'F d d d'
_symmetry_Int_Tables_number      70
_space_group_name_Hall           '-F 2uv 2vw'
loop_
_symmetry_equiv_pos_site_id
_symmetry_equiv_pos_as_xyz
1 x,y,z
2 1/4-x,1/4-y,z
3 x,1/4-y,1/4-z
4 1/4-x,y,1/4-z
5 x,1/2+y,1/2+z
6 1/4-x,3/4-y,1/2+z
7 x,3/4-y,3/4-z
8 1/4-x,1/2+y,3/4-z
9 1/2+x,y,1/2+z
10 3/4-x,1/4-y,1/2+z
11 1/2+x,1/4-y,3/4-z
12 3/4-x,y,3/4-z
13 1/2+x,1/2+y,z
14 3/4-x,3/4-y,z
15 1/2+x,3/4-y,1/4-z
16 3/4-x,1/2+y,1/4-z
17 -x,-y,-z
18 3/4+x,3/4+y,-z
19 -x,3/4+y,3/4+z
20 3/4+x,-y,3/4+z
21 -x,1/2-y,1/2-z
22 3/4+x,1/4+y,1/2-z
23 -x,1/4+y,1/4+z
24 3/4+x,1/2-y,1/4+z
25 1/2-x,-y,1/2-z
26 1/4+x,3/4+y,1/2-z
27 1/2-x,3/4+y,1/4+z
28 1/4+x,-y,1/4+z
29 1/2-x,1/2-y,-z
30 1/4+x,1/4+y,-z
31 1/2-x,1/4+y,3/4+z
32 1/4+x,1/2-y,3/4+z
_cell_length_a                   16.1234(8)
_cell_length_b                   24.8317(17)
_cell_length_c                   40.287(2)
_cell_angle_alpha                90
_cell_angle_beta                 90
_cell_angle_gamma                90
_cell_volume                     16129.8
loop_
_atom_site_label
_atom_site_type_symbol
_atom_site_fract_x
_atom_site_fract_y
_atom_site_fract_z
C1 C 0.29318(16) 0.31269(11) 0.11994(5)
C2 C 0.24313(15) 0.28740(9) 0.14793(5)
C3 C 0.26319(19) 0.23686(11) 0.15976(7)
H1 H 0.3076 0.2183 0.1505
C4 C 0.21781(19) 0.21321(11) 0.18545(7)
H2 H 0.2322 0.1794 0.1936
C5 C 0.15106(16) 0.24100(9) 0.19858(6)
C6 C 0.12941(17) 0.29144(11) 0.18717(7)
H3 H 0.0844 0.3097 0.1962
C7 C 0.17640(16) 0.31463(10) 0.16174(6)
H4 H 0.1627 0.3488 0.1540
C8 C -0.02010(19) 0.18977(12) 0.18930(6)
H5 H -0.0690 0.1681 0.1920
H6 H 0.0135 0.1750 0.1719
H7 H -0.0358 0.2259 0.1837
C9 C 0.02808(16) 0.19016(9) 0.22086(6)
C10 C 0.12665(14) 0.20587(9) 0.25722(5)
C11 C 0.20218(15) 0.22361(9) 0.27427(6)
C12 C 0.2470(2) 0.26940(12) 0.26569(8)
H8 H 0.2304 0.2908 0.2480
C13 C 0.3168(2) 0.28248(16) 0.28398(10)
H9 H 0.3478 0.3128 0.2785
C14 C 0.3399(2) 0.25070(17) 0.31009(10)
H10 H 0.3871 0.2587 0.3224
C15 C 0.29122(19) 0.20610(12) 0.31788(7)
H11 H 0.3063 0.1850 0.3360
Cd1 Cd 0.3750 0.3750 0.070329(4)
N1 N 0.06899(12) 0.17647(8) 0.27207(4)
N2 N 0.00616(13) 0.16629(8) 0.24886(5)
N3 N 0.10333(12) 0.21575(8) 0.22483(5)
N4 N 0.22371(12) 0.19221(7) 0.30051(5)
O1 O 0.27228(12) 0.35848(8) 0.10989(5)
O2 O 0.35193(14) 0.28729(9) 0.10751(5)
C1M C 0.45682(16) 0.43731(11) 0.11994(5)
C2M C 0.50687(15) 0.46260(9) 0.14793(5)
C3M C 0.48681(19) 0.51314(11) 0.15976(7)
H1M H 0.4424 0.5317 0.1505
C4M C 0.53219(19) 0.53679(11) 0.18545(7)
H2M H 0.5178 0.5706 0.1936
C5M C 0.59894(16) 0.50900(9) 0.19858(6)
C6M C 0.62059(17) 0.45856(11) 0.18717(7)
H3M H 0.6656 0.4403 0.1962
C7M C 0.57360(16) 0.43537(10) 0.16174(6)
H4M H 0.5873 0.4012 0.1540
C8M C 0.77010(19) 0.56023(12) 0.18930(6)
H5M H 0.8190 0.5819 0.1920
H6M H 0.7365 0.5750 0.1719
H7M H 0.7858 0.5241 0.1837
C9M C 0.72192(16) 0.55984(9) 0.22086(6)
C10M C 0.62335(14) 0.54413(9) 0.25722(5)
C11M C 0.54782(15) 0.52639(9) 0.27427(6)
C12M C 0.5030(2) 0.48060(12) 0.26569(8)
H8M H 0.5196 0.4592 0.2480
C13M C 0.4332(2) 0.46752(16) 0.28398(10)
H9M H 0.4022 0.4372 0.2785
C14M C 0.4101(2) 0.49930(17) 0.31009(10)
H10M H 0.3629 0.4913 0.3224
C15M C 0.45878(19) 0.54390(12) 0.31788(7)
H11M H 0.4437 0.5650 0.3360
N1M N 0.68101(12) 0.57353(8) 0.27207(4)
N2M N 0.74384(13) 0.58371(8) 0.24886(5)
N3M N 0.64667(12) 0.53425(8) 0.22483(5)
N4M N 0.52629(12) 0.55779(7) 0.30051(5)
O1M O 0.47772(12) 0.39152(8) 0.10989(5)
O2M O 0.39807(14) 0.46271(9) 0.10751(5)
Cd1V Cd 0.6250 0.6250 0.320329(4)
Cd1W Cd 0.1250 0.1250 0.320329(4)
N1DA N 0.43101(12) 0.42647(8) 0.02207(4)
N1EA N 0.31899(12) 0.32353(8) 0.02207(4)
N4DA N 0.27629(12) 0.44221(7) 0.05051(5)
N4EA N 0.47371(12) 0.30779(7) 0.05051(5)
loop_
_geom_bond_atom_site_label_1
_geom_bond_atom_site_label_2
_geom_bond_site_symmetry_1
_geom_bond_site_symmetry_2
C1 C2 1_555 1_555
C2 C3 1_555 1_555
C3 H1 1_555 1_555
C4 C3 1_555 1_555
H2 C4 1_555 1_555
C5 C4 1_555 1_555
C6 C5 1_555 1_555
H3 C6 1_555 1_555
C7 C2 1_555 1_555
H4 C7 1_555 1_555
C8 H5 1_555 1_555
H6 C8 1_555 1_555
H7 C8 1_555 1_555
C9 C8 1_555 1_555
C10 C11 1_555 1_555
C11 C12 1_555 1_555
C12 H8 1_555 1_555
C13 C12 1_555 1_555
H9 C13 1_555 1_555
C14 C13 1_555 1_555
H10 C14 1_555 1_555
C15 C14 1_555 1_555
H11 C15 1_555 1_555
Cd1 O1 1_555 1_555
N1 C10 1_555 1_555
N2 C9 1_555 1_555
N3 C5 1_555 1_555
N4 C11 1_555 1_555
O1 C1 1_555 1_555
O2 C1 1_555 1_555
C1M C2M 1_555 1_555
C2M C3M 1_555 1_555
C3M H1M 1_555 1_555
C4M C3M 1_555 1_555
H2M C4M 1_555 1_555
C5M C4M 1_555 1_555
C6M C5M 1_555 1_555
H3M C6M 1_555 1_555
C7M C2M 1_555 1_555
H4M C7M 1_555 1_555
C8M H5M 1_555 1_555
H6M C8M 1_555 1_555
H7M C8M 1_555 1_555
C9M C8M 1_555 1_555
C10M C11M 1_555 1_555
C11M C12M 1_555 1_555
C12M H8M 1_555 1_555
C13M C12M 1_555 1_555
H9M C13M 1_555 1_555
C14M C13M 1_555 1_555
H10M C14M 1_555 1_555
C15M C14M 1_555 1_555
H11M C15M 1_555 1_555
N1M C10M 1_555 1_555
N2M C9M 1_555 1_555
N3M C5M 1_555 1_555
N4M C11M 1_555 1_555
O1M Cd1 1_555 1_555
O2M Cd1 1_555 1_555
Cd1V N1M 1_555 1_555
Cd1W N1 1_555 1_555
N1DA Cd1 1_555 1_555
N1EA Cd1 1_555 1_555
N4DA Cd1 1_555 1_555
N4EA Cd1 1_555 1_555
C6 C7 1_555 1_555
C9 N3 1_555 1_555
C10 N3 1_555 1_555
C15 N4 1_555 1_555
Cd1 O2 1_555 1_555
N1 N2 1_555 1_555
N4 Cd1W 1_555 1_555
C1M O1M 1_555 1_555
C1M O2M 1_555 1_555
C6M C7M 1_555 1_555
C9M N3M 1_555 1_555
C10M N3M 1_555 1_555
C15M N4M 1_555 1_555
N1M N2M 1_555 1_555
N4M Cd1V 1_555 1_555

#END
