
#######################################################################
#
#                 Cambridge Crystallographic Data Centre
#                                CCDC 
#
#######################################################################
#
# If this CIF has been generated from an entry in the Cambridge 
# Structural Database, then it will include bibliographic, chemical, 
# crystal, experimental, refinement or atomic coordinate data resulting 
# from the CCDC's data processing and validation procedures.
#
#######################################################################

data_PUFTEQ
_symmetry_cell_setting           triclinic
_symmetry_space_group_name_H-M   'P -1'
_symmetry_Int_Tables_number      2
_space_group_name_Hall           '-P 1'
loop_
_symmetry_equiv_pos_site_id
_symmetry_equiv_pos_as_xyz
1 x,y,z
2 -x,-y,-z
_cell_length_a                   7.506(2)
_cell_length_b                   7.986(2)
_cell_length_c                   9.014(3)
_cell_angle_alpha                104.130(3)
_cell_angle_beta                 91.820(4)
_cell_angle_gamma                114.491(3)
_cell_volume                     471.39
loop_
_atom_site_label
_atom_site_type_symbol
_atom_site_fract_x
_atom_site_fract_y
_atom_site_fract_z
N1 N 0.2845(6) -0.8494(6) 0.2942(5)
Cd1 Cd 0.29915(6) -0.11353(5) 0.13636(5)
O1 O 0.2802(6) -0.4165(5) 0.1163(5)
O2 O 0.3020(7) -0.2363(5) 0.3504(5)
O3 O -0.0539(6) -0.2630(6) 0.1203(5)
H1 H -0.0937 -0.1802 0.1447
H2 H -0.130(11) -0.373(11) 0.042(10)
I1 I 0.73878(5) 0.08172(5) 0.16902(4)
C1 C 0.2864(8) -0.3898(7) 0.2605(7)
C2 C 0.2736(7) -0.5484(7) 0.3280(6)
C3 C 0.2335(8) -0.5448(7) 0.4779(7)
H3 H 0.2198 -0.4409 0.5406
C4 C 0.2145(9) -0.6963(9) 0.5315(7)
H4 H 0.1827 -0.6989 0.6300
C5 C 0.2429(8) -0.8449(7) 0.4385(6)
H5 H 0.2328 -0.9459 0.4770
C6 C 0.3004(8) -0.7017(7) 0.2418(6)
H6 H 0.3310 -0.7026 0.1425
N1_2 N 0.2845(6) 0.1506(6) 0.2942(5)
N1A N 0.7155(6) -0.1506(6) -0.2942(5)
N1A_2 N 0.7155(6) 0.8494(6) -0.2942(5)
Cd1A Cd 0.70085(6) 0.11353(5) -0.13636(5)
Cd1_2 Cd 0.29915(6) -1.11353(5) 0.13636(5)
Cd1A_2 Cd 0.70085(6) 1.11353(5) -0.13636(5)
O1A O 0.7198(6) 0.4165(5) -0.1163(5)
O2A O 0.6980(7) 0.2363(5) -0.3504(5)
O3A O 1.0539(6) 0.2630(6) -0.1203(5)
H1A H 1.0937 0.1802 -0.1447
H2A H 1.130(11) 0.373(11) -0.042(10)
I1A I 0.26122(5) -0.08172(5) -0.16902(4)
C1A C 0.7136(8) 0.3898(7) -0.2605(7)
C2A C 0.7264(7) 0.5484(7) -0.3280(6)
C3A C 0.7665(8) 0.5448(7) -0.4779(7)
H3A H 0.7802 0.4409 -0.5406
C4A C 0.7855(9) 0.6963(9) -0.5315(7)
H4A H 0.8173 0.6989 -0.6300
C5A C 0.7571(8) 0.8449(7) -0.4385(6)
H5A H 0.7672 0.9459 -0.4770
C6A C 0.6996(8) 0.7017(7) -0.2418(6)
H6A H 0.6690 0.7026 -0.1425
loop_
_geom_bond_atom_site_label_1
_geom_bond_atom_site_label_2
_geom_bond_site_symmetry_1
_geom_bond_site_symmetry_2
N1 C5 1_555 1_555
Cd1 O1 1_555 1_555
O1 C1 1_555 1_555
O2 Cd1 1_555 1_555
O3 Cd1 1_555 1_555
H1 O3 1_555 1_555
H2 O3 1_555 1_555
I1 Cd1 1_555 1_555
C1 O2 1_555 1_555
C2 C1 1_555 1_555
C3 C2 1_555 1_555
H3 C3 1_555 1_555
C4 C3 1_555 1_555
H4 C4 1_555 1_555
C5 C4 1_555 1_555
H5 C5 1_555 1_555
C6 N1 1_555 1_555
H6 C6 1_555 1_555
N1_2 Cd1 1_555 1_555
N1A Cd1A 1_555 1_555
N1A_2 Cd1A_2 1_555 1_555
Cd1A I1 1_555 1_555
Cd1_2 N1 1_555 1_555
O1A Cd1A 1_555 1_555
O2A Cd1A 1_555 1_555
O3A Cd1A 1_555 1_555
H1A O3A 1_555 1_555
H2A O3A 1_555 1_555
I1A Cd1 1_555 1_555
C1A O1A 1_555 1_555
C2A C1A 1_555 1_555
C3A C2A 1_555 1_555
H3A C3A 1_555 1_555
C4A C3A 1_555 1_555
H4A C4A 1_555 1_555
C5A N1A_2 1_555 1_555
H5A C5A 1_555 1_555
C6A N1A_2 1_555 1_555
H6A C6A 1_555 1_555
C2 C6 1_555 1_555
Cd1A I1A 1_555 1_555
O2A C1A 1_555 1_555
C2A C6A 1_555 1_555
C4A C5A 1_555 1_555

#END
