
#######################################################################
#
#                 Cambridge Crystallographic Data Centre
#                                CCDC 
#
#######################################################################
#
# If this CIF has been generated from an entry in the Cambridge 
# Structural Database, then it will include bibliographic, chemical, 
# crystal, experimental, refinement or atomic coordinate data resulting 
# from the CCDC's data processing and validation procedures.
#
#######################################################################

data_PUFTUG
_symmetry_cell_setting           triclinic
_symmetry_space_group_name_H-M   'P -1'
_symmetry_Int_Tables_number      2
_space_group_name_Hall           '-P 1'
loop_
_symmetry_equiv_pos_site_id
_symmetry_equiv_pos_as_xyz
1 x,y,z
2 -x,-y,-z
_cell_length_a                   10.123(6)
_cell_length_b                   11.203(6)
_cell_length_c                   11.880(12)
_cell_angle_alpha                96.106(11)
_cell_angle_beta                 95.865(12)
_cell_angle_gamma                116.076(8)
_cell_volume                     1186.43
loop_
_atom_site_label
_atom_site_type_symbol
_atom_site_fract_x
_atom_site_fract_y
_atom_site_fract_z
Cd1 Cd 0.439295(9) 0.810513(8) 0.464992(7)
S1 S 0.33609(3) 0.80963(3) 0.05195(3)
S2 S 0.33087(3) 0.80590(3) -0.12256(3)
O1 O 0.35217(8) 0.80998(8) 0.27531(7)
O2 O 0.18605(9) 0.67130(8) 0.36541(7)
O3 O 0.37344(8) 0.96855(7) -0.44407(6)
O4 O 0.32979(8) 0.79594(7) -0.35424(7)
N1 N 0.51302(9) 0.64534(9) 0.39492(8)
N2 N 0.64115(9) 0.82538(9) 0.59502(8)
C1 C 0.45076(13) 0.55755(12) 0.29760(11)
H1 H 0.3692 0.5572 0.2535
C2 C 0.50146(14) 0.46588(12) 0.25822(12)
H2 H 0.4534 0.4052 0.1902
C3 C 0.62226(14) 0.46655(11) 0.32080(12)
H3 H 0.6578 0.4064 0.2956
C4 C 0.69313(12) 0.55896(11) 0.42391(11)
C5 C 0.82124(13) 0.56628(12) 0.49403(12)
H4 H 0.8604 0.5081 0.4718
C6 C 0.88591(13) 0.65737(13) 0.59257(13)
H5 H 0.9695 0.6607 0.6363
C7 C 0.82916(12) 0.74858(12) 0.63119(11)
C8 C 0.89029(13) 0.84346(13) 0.73339(11)
H6 H 0.9736 0.8502 0.7802
C9 C 0.82849(13) 0.92521(14) 0.76419(12)
H7 H 0.8693 0.9883 0.8315
C10 C 0.70184(13) 0.91322(12) 0.69296(11)
H8 H 0.6590 0.9685 0.7150
C11 C 0.70162(11) 0.74328(11) 0.56363(10)
C12 C 0.63441(11) 0.64730(10) 0.45788(10)
C13 C 0.22015(12) 0.72350(10) 0.27851(10)
C14 C 0.10516(11) 0.68383(10) 0.17257(10)
C15 C -0.04518(12) 0.60863(11) 0.18075(11)
H9 H -0.0706 0.5842 0.2508
C16 C -0.15586(13) 0.57010(12) 0.08801(12)
H10 H -0.2552 0.5205 0.0955
C17 C -0.11964(13) 0.60490(12) -0.01595(12)
H11 H -0.1947 0.5794 -0.0788
C18 C 0.02790(12) 0.67769(11) -0.02782(11)
H12 H 0.0512 0.7000 -0.0989
C19 C 0.14204(11) 0.71796(10) 0.06558(10)
C20 C 0.29379(11) 0.94351(10) -0.15129(9)
C21 C 0.26367(12) 1.01927(11) -0.06565(11)
H13 H 0.2658 0.9998 0.0085
C22 C 0.23096(14) 1.12211(12) -0.08882(11)
H14 H 0.2111 1.1710 -0.0305
C23 C 0.22755(14) 1.15297(12) -0.19775(12)
H15 H 0.2035 1.2212 -0.2137
C24 C 0.25996(12) 1.08214(11) -0.28265(11)
H16 H 0.2590 1.1043 -0.3559
C25 C 0.29454(11) 0.97714(10) -0.26206(9)
C26 C 0.33390(11) 0.90852(11) -0.35903(10)
Cd1_2 Cd 0.439295(9) 0.810513(8) -0.535008(7)
Cd1A Cd 0.560705(9) 1.189487(8) -0.464992(7)
O3_2 O 0.37344(8) 0.96855(7) 0.55593(6)
O3A O 0.62656(8) 1.03145(7) 0.44407(6)
O4_2 O 0.32979(8) 0.79594(7) 0.64576(7)
O5 O 0.9680(4) 0.1175(5) 0.5629(4)
H17 H 0.8778(4) 0.092(3) 0.5704(12)
H18 H 1.0174(8) 0.1675(15) 0.6261(6)
loop_
_geom_bond_atom_site_label_1
_geom_bond_atom_site_label_2
_geom_bond_site_symmetry_1
_geom_bond_site_symmetry_2
Cd1 O1 1_555 1_555
S1 S2 1_555 1_555
S2 C20 1_555 1_555
O1 C13 1_555 1_555
O2 Cd1 1_555 1_555
O3 C26 1_555 1_555
O4 C26 1_555 1_555
N1 Cd1 1_555 1_555
N2 Cd1 1_555 1_555
C1 N1 1_555 1_555
H1 C1 1_555 1_555
C2 C1 1_555 1_555
H2 C2 1_555 1_555
C3 C2 1_555 1_555
H3 C3 1_555 1_555
C4 C3 1_555 1_555
C5 C4 1_555 1_555
H4 C5 1_555 1_555
C6 C5 1_555 1_555
H5 C6 1_555 1_555
C7 C6 1_555 1_555
C8 C7 1_555 1_555
H6 C8 1_555 1_555
C9 C8 1_555 1_555
H7 C9 1_555 1_555
C10 N2 1_555 1_555
H8 C10 1_555 1_555
C11 N2 1_555 1_555
C12 N1 1_555 1_555
C13 O2 1_555 1_555
C14 C13 1_555 1_555
C15 C14 1_555 1_555
H9 C15 1_555 1_555
C16 C15 1_555 1_555
H10 C16 1_555 1_555
C17 C16 1_555 1_555
H11 C17 1_555 1_555
C18 C17 1_555 1_555
H12 C18 1_555 1_555
C19 S1 1_555 1_555
C20 C21 1_555 1_555
C21 H13 1_555 1_555
C22 C21 1_555 1_555
H14 C22 1_555 1_555
C23 C22 1_555 1_555
H15 C23 1_555 1_555
C24 C23 1_555 1_555
H16 C24 1_555 1_555
C25 C20 1_555 1_555
C26 C25 1_555 1_555
O5 H17 1_555 1_555
H18 O5 1_555 1_555
Cd1_2 O3 1_555 1_555
Cd1A O3 1_555 1_555
O3_2 Cd1 1_555 1_555
O3A Cd1 1_555 1_555
O4_2 Cd1 1_555 1_555
O4 Cd1_2 1_555 1_555
C4 C12 1_555 1_555
C7 C11 1_555 1_555
C9 C10 1_555 1_555
C11 C12 1_555 1_555
C14 C19 1_555 1_555
C18 C19 1_555 1_555
C24 C25 1_555 1_555

#END
