
#######################################################################
#
#                 Cambridge Crystallographic Data Centre
#                                CCDC 
#
#######################################################################
#
# If this CIF has been generated from an entry in the Cambridge 
# Structural Database, then it will include bibliographic, chemical, 
# crystal, experimental, refinement or atomic coordinate data resulting 
# from the CCDC's data processing and validation procedures.
#
#######################################################################

data_PUFVUJ
_symmetry_cell_setting           monoclinic
_symmetry_space_group_name_H-M   'C 2/c'
_symmetry_Int_Tables_number      15
_space_group_name_Hall           '-C 2yn'
loop_
_symmetry_equiv_pos_site_id
_symmetry_equiv_pos_as_xyz
1 x,y,z
2 -x,y,1/2-z
3 1/2+x,1/2+y,z
4 1/2-x,1/2+y,1/2-z
5 -x,-y,-z
6 x,-y,1/2+z
7 1/2-x,1/2-y,-z
8 1/2+x,1/2-y,1/2+z
_cell_length_a                   22.691(2)
_cell_length_b                   6.7093(4)
_cell_length_c                   22.587(2)
_cell_angle_alpha                90
_cell_angle_beta                 96.580(8)
_cell_angle_gamma                90
_cell_volume                     3416.01
loop_
_atom_site_label
_atom_site_type_symbol
_atom_site_fract_x
_atom_site_fract_y
_atom_site_fract_z
C1 C 0.40798(9) 0.1991(4) 0.84954(8)
C2 C 0.40020(9) 0.2780(4) 0.78586(9)
C3 C 0.42059(10) 0.1699(4) 0.73999(9)
H1 H 0.4387 0.0453 0.7480
C4 C 0.41444(10) 0.2454(4) 0.68180(9)
H2 H 0.4290 0.1740 0.6508
C5 C 0.38660(8) 0.4265(3) 0.67090(9)
C6 C 0.36611(14) 0.5358(5) 0.71603(11)
H3 H 0.3473 0.6592 0.7078
C7 C 0.37348(14) 0.4616(5) 0.77380(11)
H4 H 0.3603 0.5363 0.8049
C8 C 0.48070(9) 0.6727(4) 0.61818(10)
H5 H 0.5074 0.5739 0.6047
H6 H 0.4812 0.6634 0.6611
H7 H 0.4934 0.8048 0.6077
C9 C 0.41943(9) 0.6358(3) 0.58911(9)
C10 C 0.32932(8) 0.5172(3) 0.57134(9)
C11 C 0.27408(9) 0.4065(3) 0.57600(9)
C12 C 0.27245(9) 0.2089(4) 0.59428(10)
H8 H 0.3077 0.1391 0.6064
C13 C 0.21753(10) 0.1163(4) 0.59435(11)
H9 H 0.2151 -0.0164 0.6072
C14 C 0.16665(9) 0.2219(4) 0.57526(10)
H10 H 0.1298 0.1577 0.5751
C15 C 0.22040(9) 0.5031(4) 0.55745(9)
H11 H 0.2214 0.6365 0.5449
Cd1 Cd 0.075718(6) 0.58832(2) 0.534749(6)
Cl1 Cl 0.03553(2) 0.28538(9) 0.47377(2)
N1 N 0.37977(7) 0.5120(3) 0.61173(7)
N2 N 0.39449(7) 0.7121(3) 0.53866(7)
N3 N 0.33728(7) 0.6364(3) 0.52708(8)
N4 N 0.16746(7) 0.4120(3) 0.55688(8)
O1 O 0.39126(8) 0.3085(3) 0.88939(7)
O2 O 0.43101(7) 0.0313(3) 0.85918(7)
Cd1C Cd 0.424282(6) 0.08832(2) 0.965251(6)
Cd1D Cd -0.075718(6) 0.41168(2) 0.465251(6)
Cd1F Cd 0.424282(6) 0.91168(2) 0.465251(6)
Cl1D Cl -0.03553(2) 0.71462(9) 0.52623(2)
N2F N 0.10551(7) 0.7879(3) 0.46134(7)
O1C O 0.10874(8) 0.8085(3) 0.61061(7)
O2C O 0.06899(7) 0.5313(3) 0.64082(7)
loop_
_geom_bond_atom_site_label_1
_geom_bond_atom_site_label_2
_geom_bond_site_symmetry_1
_geom_bond_site_symmetry_2
C1 C2 1_555 1_555
C2 C3 1_555 1_555
C3 H1 1_555 1_555
C4 C3 1_555 1_555
H2 C4 1_555 1_555
C5 C4 1_555 1_555
C6 C5 1_555 1_555
H3 C6 1_555 1_555
C7 C2 1_555 1_555
H4 C7 1_555 1_555
C8 H5 1_555 1_555
H6 C8 1_555 1_555
H7 C8 1_555 1_555
C9 C8 1_555 1_555
C10 C11 1_555 1_555
C11 C12 1_555 1_555
C12 H8 1_555 1_555
C13 C12 1_555 1_555
H9 C13 1_555 1_555
C14 C13 1_555 1_555
H10 C14 1_555 1_555
C15 C11 1_555 1_555
H11 C15 1_555 1_555
Cd1 Cl1 1_555 1_555
Cl1 Cd1D 1_555 1_555
N1 C5 1_555 1_555
N2 C9 1_555 1_555
N3 C10 1_555 1_555
N4 C14 1_555 1_555
O1 C1 1_555 1_555
O2 C1 1_555 1_555
Cd1C O1 1_555 1_555
Cd1D Cl1D 1_555 1_555
Cd1F N2 1_555 1_555
Cl1D Cd1 1_555 1_555
N2F Cd1 1_555 1_555
O1C Cd1 1_555 1_555
O2C Cd1 1_555 1_555
C6 C7 1_555 1_555
C9 N1 1_555 1_555
C10 N1 1_555 1_555
C15 N4 1_555 1_555
Cd1 N4 1_555 1_555
N2 N3 1_555 1_555
O2 Cd1C 1_555 1_555

#END
