
#######################################################################
#
#                 Cambridge Crystallographic Data Centre
#                                CCDC 
#
#######################################################################
#
# If this CIF has been generated from an entry in the Cambridge 
# Structural Database, then it will include bibliographic, chemical, 
# crystal, experimental, refinement or atomic coordinate data resulting 
# from the CCDC's data processing and validation procedures.
#
#######################################################################

data_PUFVET
_symmetry_cell_setting           monoclinic
_symmetry_space_group_name_H-M   'P 21/n'
_symmetry_Int_Tables_number      14
_space_group_name_Hall           '-P 2yn'
loop_
_symmetry_equiv_pos_site_id
_symmetry_equiv_pos_as_xyz
1 x,y,z
2 1/2-x,1/2+y,1/2-z
3 -x,-y,-z
4 1/2+x,1/2-y,1/2+z
_cell_length_a                   10.5251(10)
_cell_length_b                   14.5451(15)
_cell_length_c                   12.9901(11)
_cell_angle_alpha                90
_cell_angle_beta                 107.745(7)
_cell_angle_gamma                90
_cell_volume                     1894.02
loop_
_atom_site_label
_atom_site_type_symbol
_atom_site_fract_x
_atom_site_fract_y
_atom_site_fract_z
C1 C 0.5669(6) 0.9330(4) 0.3029(5)
C2 C 0.4746(6) 0.8634(4) 0.3262(4)
C3 C 0.4274(6) 0.7905(4) 0.2572(5)
H1 H 0.4515 0.7858 0.1927
C4 C 0.3449(6) 0.7236(4) 0.2801(5)
H2 H 0.3133 0.6731 0.2327
C5 C 0.3108(5) 0.7334(4) 0.3748(5)
C6 C 0.3513(6) 0.8064(4) 0.4433(5)
H3 H 0.3229 0.8124 0.5058
C7 C 0.4347(6) 0.8719(4) 0.4196(5)
H4 H 0.4650 0.9225 0.4669
C8 C 0.0151(6) 0.7119(5) 0.2597(5)
H5 H 0.0487 0.7751 0.2704
H6 H -0.0789 0.7111 0.2572
H7 H 0.0234 0.6880 0.1916
C9 C 0.0937(5) 0.6537(4) 0.3505(4)
C10 C 0.2593(5) 0.5995(4) 0.4817(4)
C11 C 0.3914(5) 0.5816(4) 0.5591(4)
C12 C 0.5117(6) 0.6119(4) 0.5490(5)
H8 H 0.5135 0.6495 0.4896
C13 C 0.6279(6) 0.5872(4) 0.6254(5)
H9 H 0.7115 0.6060 0.6188
C14 C 0.6220(6) 0.5348(4) 0.7121(5)
H10 H 0.7012 0.5192 0.7678
C15 C 0.4988(6) 0.5052(5) 0.7166(5)
H11 H 0.4952 0.4670 0.7750
Br1 Br 0.21900(8) 0.29383(5) 0.55665(6)
Cd1 Cd 0.17705(4) 0.45709(3) 0.63345(3)
N1 N 0.2271(5) 0.6632(3) 0.3996(4)
N2 N 0.0470(5) 0.5870(3) 0.3987(4)
N3 N 0.1522(5) 0.5534(3) 0.4809(4)
N4 N 0.3850(5) 0.5284(3) 0.6421(4)
O1 O 0.6046(4) 0.9214(3) 0.2195(3)
O2 O 0.6034(5) 0.9997(3) 0.3680(4)
O3 O 0.2858(5) 0.4110(3) 0.8085(4)
H12 H 0.242(6) 0.446(3) 0.838(4)
Cd1B Cd -0.17705(4) 0.54291(3) 0.36655(3)
Cd1C Cd 0.67705(4) 1.04291(3) 0.13345(3)
N2B N -0.0470(5) 0.4130(3) 0.6013(4)
O1C O 0.1046(4) 0.5786(3) 0.7195(3)
O4 O 0.6432(6) 0.7612(4) 0.1060(5)
H13 H 0.622(5) 0.813(2) 0.126(5)
H14 H 0.726(2) 0.763(4) 0.137(5)
O5 O 0.2762(11) 0.5845(7) 0.0657(6)
H15 H 0.335(7) 0.566(9) 0.040(8)
H16 H 0.205(5) 0.579(9) 0.017(6)
loop_
_geom_bond_atom_site_label_1
_geom_bond_atom_site_label_2
_geom_bond_site_symmetry_1
_geom_bond_site_symmetry_2
C1 C2 1_555 1_555
C2 C3 1_555 1_555
C3 H1 1_555 1_555
C4 C3 1_555 1_555
H2 C4 1_555 1_555
C5 C4 1_555 1_555
C6 C5 1_555 1_555
H3 C6 1_555 1_555
C7 C2 1_555 1_555
H4 C7 1_555 1_555
C8 H5 1_555 1_555
H6 C8 1_555 1_555
H7 C8 1_555 1_555
C9 C8 1_555 1_555
C10 C11 1_555 1_555
C11 C12 1_555 1_555
C12 H8 1_555 1_555
C13 C12 1_555 1_555
H9 C13 1_555 1_555
C14 C13 1_555 1_555
H10 C14 1_555 1_555
C15 C14 1_555 1_555
H11 C15 1_555 1_555
Br1 Cd1 1_555 1_555
Cd1 N3 1_555 1_555
N1 C5 1_555 1_555
N2 C9 1_555 1_555
N3 C10 1_555 1_555
N4 C11 1_555 1_555
O1 C1 1_555 1_555
O2 C1 1_555 1_555
O3 Cd1 1_555 1_555
H12 O3 1_555 1_555
O4 H13 1_555 1_555
H14 O4 1_555 1_555
O5 H15 1_555 1_555
H16 O5 1_555 1_555
Cd1B N2 1_555 1_555
Cd1C O1 1_555 1_555
N2B Cd1 1_555 1_555
O1C Cd1 1_555 1_555
C6 C7 1_555 1_555
C9 N1 1_555 1_555
C10 N1 1_555 1_555
C15 N4 1_555 1_555
Cd1 N4 1_555 1_555
N2 N3 1_555 1_555

#END
