
#######################################################################
#
#                 Cambridge Crystallographic Data Centre
#                                CCDC 
#
#######################################################################
#
# If this CIF has been generated from an entry in the Cambridge 
# Structural Database, then it will include bibliographic, chemical, 
# crystal, experimental, refinement or atomic coordinate data resulting 
# from the CCDC's data processing and validation procedures.
#
#######################################################################

data_PUFWOE
_symmetry_cell_setting           monoclinic
_symmetry_space_group_name_H-M   'C 2/c'
_symmetry_Int_Tables_number      15
_space_group_name_Hall           '-C 2yn'
loop_
_symmetry_equiv_pos_site_id
_symmetry_equiv_pos_as_xyz
1 x,y,z
2 -x,y,1/2-z
3 1/2+x,1/2+y,z
4 1/2-x,1/2+y,1/2-z
5 -x,-y,-z
6 x,-y,1/2+z
7 1/2-x,1/2-y,-z
8 1/2+x,1/2-y,1/2+z
_cell_length_a                   23.3727(14)
_cell_length_b                   6.8588(3)
_cell_length_c                   22.3411(15)
_cell_angle_alpha                90
_cell_angle_beta                 97.911(5)
_cell_angle_gamma                90
_cell_volume                     3547.39
loop_
_atom_site_label
_atom_site_type_symbol
_atom_site_fract_x
_atom_site_fract_y
_atom_site_fract_z
C1 C 0.39767(19) 0.2060(8) 0.8531(2)
C2 C 0.3929(2) 0.2972(8) 0.7920(2)
C3 C 0.4188(2) 0.2130(9) 0.7466(2)
H1 H 0.4397 0.0965 0.7542
C4 C 0.4144(3) 0.2982(9) 0.6894(2)
H2 H 0.4326 0.2411 0.6588
C5 C 0.3832(2) 0.4663(7) 0.6788(2)
C6 C 0.3571(3) 0.5530(10) 0.7233(3)
H3 H 0.3358 0.6686 0.7153
C7 C 0.3624(3) 0.4699(10) 0.7799(3)
H4 H 0.3451 0.5304 0.8106
C8 C 0.4693(2) 0.7453(9) 0.6308(2)
H5 H 0.4974 0.6446 0.6260
H6 H 0.4666 0.7625 0.6734
H7 H 0.4813 0.8669 0.6142
C9 C 0.41233(19) 0.6874(7) 0.59864(19)
C10 C 0.32903(19) 0.5411(7) 0.5754(2)
C11 C 0.27788(19) 0.4180(7) 0.5774(2)
C12 C 0.2806(2) 0.2218(8) 0.5932(2)
H8 H 0.3164 0.1609 0.6055
C13 C 0.2297(2) 0.1186(8) 0.5906(2)
H9 H 0.2303 -0.0142 0.6010
C14 C 0.1778(2) 0.2117(8) 0.5724(2)
H10 H 0.1434 0.1397 0.5708
C15 C 0.22370(19) 0.5014(7) 0.5599(2)
H11 H 0.2218 0.6345 0.5497
Cd1 Cd 0.084264(14) 0.56738(5) 0.532763(14)
I1 I 0.033529(13) 0.23982(5) 0.472799(14)
N1 N 0.37636(16) 0.5547(6) 0.61959(16)
N2 N 0.38803(17) 0.7508(6) 0.54527(18)
N3 N 0.33552(16) 0.6582(6) 0.53022(17)
N4 N 0.17457(16) 0.4014(6) 0.55699(18)
O1 O 0.37768(16) 0.2960(6) 0.89498(15)
O2 O 0.42305(16) 0.0435(6) 0.86194(16)
Cd1C Cd 0.415736(14) 0.06738(5) 0.967237(14)
Cd1D Cd -0.084264(14) 0.43262(5) 0.467237(14)
Cd1F Cd 0.415736(14) 0.93262(5) 0.467237(14)
I1D I -0.033529(13) 0.76018(5) 0.527201(14)
N2F N 0.11197(17) 0.7492(6) 0.45473(18)
O1C O 0.12232(16) 0.7960(6) 0.60502(15)
O2C O 0.07695(16) 0.5435(6) 0.63806(16)
loop_
_geom_bond_atom_site_label_1
_geom_bond_atom_site_label_2
_geom_bond_site_symmetry_1
_geom_bond_site_symmetry_2
C1 C2 1_555 1_555
C2 C3 1_555 1_555
C3 H1 1_555 1_555
C4 C3 1_555 1_555
H2 C4 1_555 1_555
C5 C4 1_555 1_555
C6 C5 1_555 1_555
H3 C6 1_555 1_555
C7 C2 1_555 1_555
H4 C7 1_555 1_555
C8 H5 1_555 1_555
H6 C8 1_555 1_555
H7 C8 1_555 1_555
C9 C8 1_555 1_555
C10 C11 1_555 1_555
C11 C12 1_555 1_555
C12 H8 1_555 1_555
C13 C12 1_555 1_555
H9 C13 1_555 1_555
C14 C13 1_555 1_555
H10 C14 1_555 1_555
C15 C11 1_555 1_555
H11 C15 1_555 1_555
Cd1 I1 1_555 1_555
I1 Cd1D 1_555 1_555
N1 C5 1_555 1_555
N2 C9 1_555 1_555
N3 C10 1_555 1_555
N4 C14 1_555 1_555
O1 C1 1_555 1_555
O2 C1 1_555 1_555
Cd1C O1 1_555 1_555
Cd1D I1D 1_555 1_555
Cd1F N2 1_555 1_555
I1D Cd1 1_555 1_555
N2F Cd1 1_555 1_555
O1C Cd1 1_555 1_555
O2C Cd1 1_555 1_555
C6 C7 1_555 1_555
C9 N1 1_555 1_555
C10 N1 1_555 1_555
C15 N4 1_555 1_555
Cd1 N4 1_555 1_555
N2 N3 1_555 1_555
O2 Cd1C 1_555 1_555

#END
