
#######################################################################
#
#                 Cambridge Crystallographic Data Centre
#                                CCDC 
#
#######################################################################
#
# If this CIF has been generated from an entry in the Cambridge 
# Structural Database, then it will include bibliographic, chemical, 
# crystal, experimental, refinement or atomic coordinate data resulting 
# from the CCDC's data processing and validation procedures.
#
#######################################################################

data_PUFWEU
_symmetry_cell_setting           monoclinic
_symmetry_space_group_name_H-M   'C 2/c'
_symmetry_Int_Tables_number      15
_space_group_name_Hall           '-C 2yn'
loop_
_symmetry_equiv_pos_site_id
_symmetry_equiv_pos_as_xyz
1 x,y,z
2 -x,y,1/2-z
3 1/2+x,1/2+y,z
4 1/2-x,1/2+y,1/2-z
5 -x,-y,-z
6 x,-y,1/2+z
7 1/2-x,1/2-y,-z
8 1/2+x,1/2-y,1/2+z
_cell_length_a                   22.946(3)
_cell_length_b                   6.7007(6)
_cell_length_c                   22.396(3)
_cell_angle_alpha                90
_cell_angle_beta                 97.210(11)
_cell_angle_gamma                90
_cell_volume                     3416.25
loop_
_atom_site_label
_atom_site_type_symbol
_atom_site_fract_x
_atom_site_fract_y
_atom_site_fract_z
C1 C 0.4035(2) 0.1993(8) 0.8511(2)
C2 C 0.3969(2) 0.2844(8) 0.7880(2)
C3 C 0.4195(2) 0.1856(8) 0.7425(2)
H1 H 0.4387 0.0629 0.7502
C4 C 0.4139(2) 0.2657(9) 0.6852(2)
H2 H 0.4301 0.1997 0.6541
C5 C 0.38478(19) 0.4407(9) 0.67423(17)
C6 C 0.3621(3) 0.5430(9) 0.7191(2)
H3 H 0.3426 0.6651 0.7110
C7 C 0.3686(3) 0.4626(9) 0.7766(2)
H4 H 0.3534 0.5309 0.8079
C8 C 0.4751(2) 0.7059(9) 0.6246(2)
H5 H 0.5019 0.5977 0.6186
H6 H 0.4733 0.7234 0.6673
H7 H 0.4891 0.8281 0.6080
C9 C 0.4159(2) 0.6578(7) 0.59395(18)
C10 C 0.32885(19) 0.5281(7) 0.57314(19)
C11 C 0.27538(18) 0.4100(8) 0.57639(17)
C12 C 0.2752(2) 0.2134(8) 0.5940(2)
H8 H 0.3108 0.1474 0.6066
C13 C 0.2226(2) 0.1136(8) 0.5932(2)
H9 H 0.2217 -0.0203 0.6056
C14 C 0.1713(2) 0.2146(8) 0.57385(19)
H10 H 0.1354 0.1464 0.5730
C15 C 0.2217(2) 0.5002(8) 0.55828(18)
H11 H 0.2214 0.6352 0.5468
Cd1 Cd 0.079186(15) 0.57834(6) 0.533561(14)
Br1 Br 0.03393(2) 0.26121(8) 0.47408(2)
N1 N 0.37809(16) 0.5300(6) 0.61501(15)
N2 N 0.39163(15) 0.7311(6) 0.54181(15)
N3 N 0.33690(16) 0.6472(6) 0.52918(16)
N4 N 0.17042(15) 0.4049(7) 0.55630(15)
O1 O 0.38527(16) 0.3027(5) 0.89201(13)
O2 O 0.42758(15) 0.0334(5) 0.86025(13)
Cd1C Cd 0.420814(15) 0.07834(6) 0.966439(14)
Cd1D Cd -0.079186(15) 0.42166(6) 0.466439(14)
Cd1F Cd 0.420814(15) 0.92166(6) 0.466439(14)
Br1D Br -0.03393(2) 0.73879(8) 0.52592(2)
N2F N 0.10837(15) 0.7689(6) 0.45819(15)
O1C O 0.11473(16) 0.8027(5) 0.60799(13)
O2C O 0.07242(15) 0.5334(5) 0.63975(13)
loop_
_geom_bond_atom_site_label_1
_geom_bond_atom_site_label_2
_geom_bond_site_symmetry_1
_geom_bond_site_symmetry_2
C1 C2 1_555 1_555
C2 C3 1_555 1_555
C3 H1 1_555 1_555
C4 C3 1_555 1_555
H2 C4 1_555 1_555
C5 C4 1_555 1_555
C6 C5 1_555 1_555
H3 C6 1_555 1_555
C7 C2 1_555 1_555
H4 C7 1_555 1_555
C8 H5 1_555 1_555
H6 C8 1_555 1_555
H7 C8 1_555 1_555
C9 C8 1_555 1_555
C10 C11 1_555 1_555
C11 C12 1_555 1_555
C12 H8 1_555 1_555
C13 C12 1_555 1_555
H9 C13 1_555 1_555
C14 C13 1_555 1_555
H10 C14 1_555 1_555
C15 C11 1_555 1_555
H11 C15 1_555 1_555
Cd1 Br1 1_555 1_555
Br1 Cd1D 1_555 1_555
N1 C5 1_555 1_555
N2 C9 1_555 1_555
N3 C10 1_555 1_555
N4 C14 1_555 1_555
O1 C1 1_555 1_555
O2 C1 1_555 1_555
Cd1C O1 1_555 1_555
Cd1D Br1D 1_555 1_555
Cd1F N2 1_555 1_555
Br1D Cd1 1_555 1_555
N2F Cd1 1_555 1_555
O1C Cd1 1_555 1_555
O2C Cd1 1_555 1_555
C6 C7 1_555 1_555
C9 N1 1_555 1_555
C10 N1 1_555 1_555
C15 N4 1_555 1_555
Cd1 N4 1_555 1_555
N2 N3 1_555 1_555
O2 Cd1C 1_555 1_555

#END
