
#######################################################################
#
#                 Cambridge Crystallographic Data Centre
#                                CCDC 
#
#######################################################################
#
# If this CIF has been generated from an entry in the Cambridge 
# Structural Database, then it will include bibliographic, chemical, 
# crystal, experimental, refinement or atomic coordinate data resulting 
# from the CCDC's data processing and validation procedures.
#
#######################################################################

data_PUFXIY
_symmetry_cell_setting           monoclinic
_symmetry_space_group_name_H-M   'P 21/n'
_symmetry_Int_Tables_number      14
_space_group_name_Hall           '-P 2yn'
loop_
_symmetry_equiv_pos_site_id
_symmetry_equiv_pos_as_xyz
1 x,y,z
2 1/2-x,1/2+y,1/2-z
3 -x,-y,-z
4 1/2+x,1/2-y,1/2+z
_cell_length_a                   8.1962(4)
_cell_length_b                   12.3291(7)
_cell_length_c                   12.9758(6)
_cell_angle_alpha                90
_cell_angle_beta                 97.760(5)
_cell_angle_gamma                90
_cell_volume                     1299.22
loop_
_atom_site_label
_atom_site_type_symbol
_atom_site_fract_x
_atom_site_fract_y
_atom_site_fract_z
O12 O 1.0955(15) 0.0359(7) 0.6785(11)
H13 H 1.181(13) 0.011(12) 0.654(14)
H14 H 1.06(2) -0.021(8) 0.705(14)
Mn1 Mn 0.96260(7) 0.36380(5) 0.70273(4)
O1 O 1.0249(3) 0.5178(2) 0.78555(18)
O2 O 1.0570(4) 0.2456(3) 0.8215(3)
O3 O 0.9047(4) 0.2290(3) 0.5915(3)
O4 O 1.1772(3) 0.3944(2) 0.62988(19)
O5 O 0.7513(3) 0.3496(2) 0.7980(2)
O6 O 0.8177(3) 0.4563(2) 0.58580(19)
C1 C 0.9481(4) 0.5441(3) 0.8594(3)
Mn2 Mn 0.95382(6) 0.68692(4) 0.70684(4)
H1 H 0.979(4) 0.205(3) 0.835(4)
H2 H 1.129(4) 0.203(3) 0.802(4)
H3 H 0.969(4) 0.181(3) 0.575(4)
H4 H 0.812(2) 0.198(3) 0.592(4)
C2 C 0.6978(5) 0.3639(3) 0.8845(3)
C3 C 0.7178(4) 0.5336(3) 0.5691(3)
C4 C 0.9556(4) 0.4695(3) 0.9522(2)
O7 O 0.8740(3) 0.6329(2) 0.85773(19)
O8 O 1.1264(4) 0.6245(3) 0.6096(2)
O9 O 1.1646(3) 0.7613(2) 0.7983(2)
O10 O 0.9304(4) 0.8186(3) 0.5961(3)
O11 O 0.7229(3) 0.6194(2) 0.62238(19)
C5 C 0.7837(5) 0.4336(3) 0.9692(3)
C6 C 0.5781(4) 0.5196(3) 0.4778(3)
H5 H 1.0203 0.4052 0.9395
H6 H 1.129(6) 0.5569(10) 0.597(3)
H7 H 1.102(6) 0.654(3) 0.5505(18)
H8 H 0.7915 0.3939 1.0343
H9 H 0.7172 0.4976 0.9760
C7 C 0.5480(4) 0.6217(3) 0.4135(3)
H10 H 0.6109 0.4622 0.4325
C8 C 0.6879(4) 0.6571(3) 0.3558(3)
H11 H 0.5241 0.6803 0.4590
H12 H 0.4507 0.6107 0.3630
O10A O 0.5696(4) 0.3186(3) 0.9039(3)
C4B C 1.0444(4) 0.5305(3) 1.0478(2)
Mn2A Mn 0.54618(6) 0.18692(4) 0.79316(4)
C6B C 0.4219(4) 0.4804(3) 0.5222(3)
C1B C 1.0519(4) 0.4559(3) 1.1406(3)
H5B H 0.9797 0.5948 1.0605
C5B C 1.2163(5) 0.5664(3) 1.0308(3)
O9A O 0.3354(3) 0.2613(2) 0.7017(2)
C7B C 0.4520(4) 0.3783(3) 0.5865(3)
H10B H 0.3891 0.5378 0.5675
C3B C 0.2822(4) 0.4664(3) 0.4309(3)
O1B O 0.9751(3) 0.4822(2) 1.21445(18)
O7B O 1.1260(3) 0.3671(2) 1.14227(19)
H8B H 1.2085 0.6061 0.9657
H9B H 1.2828 0.5024 1.0240
C2B C 1.3022(5) 0.6361(3) 1.1155(3)
C8B C 0.3121(4) 0.3429(3) 0.6442(3)
H11B H 0.4759 0.3197 0.5410
H12B H 0.5493 0.3893 0.6370
O11B O 0.2771(3) 0.3806(2) 0.37762(19)
O6B O 0.1823(3) 0.5437(2) 0.41420(19)
O9C O 0.6646(3) 0.7387(2) 0.2983(2)
O4B O 0.8228(3) 0.6056(2) 0.37012(19)
Mn1B Mn 1.03740(7) 0.63620(5) 1.29727(4)
Mn2B Mn 1.04618(6) 0.31308(4) 1.29316(4)
O5B O 1.2487(3) 0.6504(2) 1.2020(2)
O10C O 1.4304(4) 0.6814(3) 1.0961(3)
Mn1B_2 Mn 1.03740(7) 0.63620(5) 0.29727(4)
O4_2 O 0.1772(3) 0.3944(2) 0.62988(19)
Mn2B_2 Mn 0.04618(6) 0.31308(4) 0.29316(4)
Mn1B_3 Mn 0.03740(7) 0.63620(5) 0.29727(4)
Mn2C Mn 0.45382(6) 0.81308(4) 0.20684(4)
O2B O 0.9430(4) 0.7544(3) 1.1785(3)
O3B O 1.0953(4) 0.7710(3) 1.4085(3)
O4B_2 O 0.8228(3) 0.6056(2) 1.37012(19)
O6B_2 O 1.1823(3) 0.5437(2) 1.41420(19)
O9B O 0.8354(3) 0.2387(2) 1.2017(2)
O8B O 0.8736(4) 0.3755(3) 1.3904(2)
O10B O 1.0696(4) 0.1814(3) 1.4039(3)
O11B_2 O 1.2771(3) 0.3806(2) 1.37762(19)
Mn2C_2 Mn 1.45382(6) 0.81308(4) 1.20684(4)
Mn1_2 Mn -0.03740(7) 0.36380(5) 0.70273(4)
H1B H 1.021(4) 0.795(3) 1.165(4)
H2B H 0.871(4) 0.797(3) 1.198(4)
H3B H 1.031(4) 0.819(3) 1.425(4)
H4B H 1.188(2) 0.802(3) 1.408(4)
H6B H 0.871(6) 0.4431(10) 1.403(3)
H7B H 0.898(6) 0.346(3) 1.4495(18)
loop_
_geom_bond_atom_site_label_1
_geom_bond_atom_site_label_2
_geom_bond_site_symmetry_1
_geom_bond_site_symmetry_2
Mn1 O1 1_555 1_555
O1 C1 1_555 1_555
O2 Mn1 1_555 1_555
O3 Mn1 1_555 1_555
O4 Mn1 1_555 1_555
O5 Mn1 1_555 1_555
O6 Mn1 1_555 1_555
C1 C4 1_555 1_555
Mn2 O1 1_555 1_555
H1 O2 1_555 1_555
H2 O2 1_555 1_555
H3 O3 1_555 1_555
H4 O3 1_555 1_555
C2 O5 1_555 1_555
C3 O6 1_555 1_555
C4 C5 1_555 1_555
O7 C1 1_555 1_555
O8 Mn2 1_555 1_555
O9 Mn2 1_555 1_555
O10 Mn2 1_555 1_555
O11 Mn2 1_555 1_555
C5 C2 1_555 1_555
C6 C3 1_555 1_555
H5 C4 1_555 1_555
H6 O8 1_555 1_555
H7 O8 1_555 1_555
H8 C5 1_555 1_555
H9 C5 1_555 1_555
C7 C6 1_555 1_555
H10 C6 1_555 1_555
C8 C7 1_555 1_555
H11 C7 1_555 1_555
H12 C7 1_555 1_555
O12 H13 1_555 1_555
H14 O12 1_555 1_555
O10A C2 1_555 1_555
C4B C4 1_555 1_555
Mn2A O10A 1_555 1_555
C6B C6 1_555 1_555
C1B C4B 1_555 1_555
H5B C4B 1_555 1_555
C5B C4B 1_555 1_555
O9A Mn2A 1_555 1_555
C7B C6B 1_555 1_555
H10B C6B 1_555 1_555
C3B C6B 1_555 1_555
O1B C1B 1_555 1_555
O7B C1B 1_555 1_555
H8B C5B 1_555 1_555
H9B C5B 1_555 1_555
C2B C5B 1_555 1_555
C8B O9A 1_555 1_555
H11B C7B 1_555 1_555
H12B C7B 1_555 1_555
O11B C3B 1_555 1_555
O6B C3B 1_555 1_555
O9C C8 1_555 1_555
O4B C8 1_555 1_555
Mn1B O1B 1_555 1_555
Mn2B O1B 1_555 1_555
O5B C2B 1_555 1_555
O10C C2B 1_555 1_555
Mn1B_2 O4B 1_555 1_555
O4_2 C8B 1_555 1_555
Mn2B_2 O11B 1_555 1_555
Mn1B_3 O6B 1_555 1_555
Mn2C O9C 1_555 1_555
O2B Mn1B 1_555 1_555
O3B Mn1B 1_555 1_555
O4B_2 Mn1B 1_555 1_555
O6B_2 Mn1B 1_555 1_555
O9B Mn2B 1_555 1_555
O8B Mn2B 1_555 1_555
O10B Mn2B 1_555 1_555
O11B_2 Mn2B 1_555 1_555
Mn2C_2 O10C 1_555 1_555
Mn1_2 O4_2 1_555 1_555
H1B O2B 1_555 1_555
H2B O2B 1_555 1_555
H3B O3B 1_555 1_555
H4B O3B 1_555 1_555
H6B O8B 1_555 1_555
H7B O8B 1_555 1_555
Mn2 O7 1_555 1_555
C3 O11 1_555 1_555
C7B C8B 1_555 1_555
O7B Mn2B 1_555 1_555
Mn1B O5B 1_555 1_555

#END
