
#######################################################################
#
#                 Cambridge Crystallographic Data Centre
#                                CCDC 
#
#######################################################################
#
# If this CIF has been generated from an entry in the Cambridge 
# Structural Database, then it will include bibliographic, chemical, 
# crystal, experimental, refinement or atomic coordinate data resulting 
# from the CCDC's data processing and validation procedures.
#
#######################################################################

data_PUFYOG
_symmetry_cell_setting           monoclinic
_symmetry_space_group_name_H-M   'P c'
_symmetry_Int_Tables_number      7
_space_group_name_Hall           'P -2yc'
loop_
_symmetry_equiv_pos_site_id
_symmetry_equiv_pos_as_xyz
1 x,y,z
2 x,-y,1/2+z
_cell_length_a                   8.0602(7)
_cell_length_b                   13.9053(9)
_cell_length_c                   13.1597(13)
_cell_angle_alpha                90
_cell_angle_beta                 103.943(7)
_cell_angle_gamma                90
_cell_volume                     1431.48
loop_
_atom_site_label
_atom_site_type_symbol
_atom_site_fract_x
_atom_site_fract_y
_atom_site_fract_z
C1 C 0.8093(3) 0.10457(17) 0.1274(2)
C2 C 0.6813(3) 0.07679(14) 0.18929(17)
C3 C 0.7343(4) 0.03199(19) 0.2863(2)
H1 H 0.8514 0.0165 0.3131
C4 C 0.6143(3) 0.00963(18) 0.34440(19)
H2 H 0.6498 -0.0209 0.4107
C5 C 0.4453(3) 0.03231(13) 0.30449(16)
C6 C 0.3887(3) 0.07488(17) 0.20630(17)
H3 H 0.2710 0.0887 0.1788
C7 C 0.5094(3) 0.09673(16) 0.14928(17)
H4 H 0.4732 0.1256 0.0822
C8 C 0.1954(4) -0.1389(2) 0.2735(2)
H5 H 0.1023 -0.1827 0.2783
H6 H 0.3017 -0.1754 0.2817
H7 H 0.1679 -0.1071 0.2051
C9 C 0.2169(3) -0.06493(17) 0.35807(18)
C10 C 0.2943(3) 0.06571(14) 0.44899(15)
C11 C 0.2184(5) 0.68305(18) 0.6068(3)
C12 C 0.3450(4) 0.60517(18) 0.6559(2)
C13 C 0.5169(5) 0.61525(19) 0.6639(2)
H8 H 0.5592 0.6739 0.6429
C14 C 0.6323(4) 0.53994(19) 0.7030(3)
H9 H 0.7514 0.5469 0.7086
C15 C 0.5656(4) 0.45530(17) 0.7328(2)
C16 C 0.3908(4) 0.4450(2) 0.7289(2)
H10 H 0.3486 0.3876 0.7527
C17 C 0.2808(5) 0.5203(2) 0.6895(2)
H11 H 0.1619 0.5143 0.6854
C18 C 0.8413(6) 0.4346(2) 0.9386(3)
H12 H 0.9075 0.4053 1.0035
H13 H 0.7373 0.4637 0.9512
H14 H 0.9102 0.4843 0.9154
C19 C 0.7937(4) 0.3591(2) 0.8558(2)
C20 C 0.6639(3) 0.28501(16) 0.71202(18)
C21 C 0.5526(3) 0.26806(15) 0.60615(18)
C22 C 0.4779(3) 0.17753(13) 0.58020(17)
H15 H 0.4959 0.1276 0.6310
C23 C 0.3769(3) 0.16070(15) 0.47934(17)
C24 C 0.3503(4) 0.23428(17) 0.40357(18)
H16 H 0.2809 0.2232 0.3353
C25 C 0.4269(6) 0.32337(18) 0.4300(3)
H17 H 0.4100 0.3732 0.3792
C26 C 0.5271(5) 0.3401(2) 0.5290(2)
H18 H 0.5797 0.4012 0.5453
N1 N 0.1339(3) -0.06096(12) 0.43358(14)
N2 N 0.1829(3) 0.02315(12) 0.49122(14)
N3 N 0.3215(2) 0.01289(12) 0.36568(13)
N4 N 0.8521(3) 0.27068(15) 0.86012(17)
N5 N 0.7678(3) 0.22316(13) 0.76860(15)
N6 N 0.6768(3) 0.37259(14) 0.76305(17)
O1 O 0.7520(2) 0.14655(15) 0.03978(14)
O2 O 0.9645(3) 0.08770(15) 0.16194(18)
O3 O 0.2551(3) 0.73508(14) 0.5378(2)
O4 O 0.0810(4) 0.69133(19) 0.6333(2)
Cd1 Cd 0.999994(17) 0.181102(8) -0.000004(15)
N1A N 1.1339(3) 0.06096(12) -0.06642(14)
N4_2 N 0.8521(3) 0.27068(15) -0.13988(17)
O3A O 1.2551(3) 0.26492(14) 0.0378(2)
O4A O 1.0810(4) 0.30867(19) 0.1333(2)
Cd1_2 Cd 0.999994(17) 0.181102(8) 0.999996(15)
Cd1A Cd -0.000006(17) -0.181102(8) 0.499996(15)
Cd1A_2 Cd -0.000006(17) 0.818898(8) 0.499996(15)
C27 C 0.9493(8) 0.2985(5) 0.5483(7)
C28 C 0.8983(11) 0.2225(7) 0.4699(11)
H19 H 0.7747 0.2120 0.4567
H20 H 0.9586 0.1629 0.4958
H21 H 0.9274 0.2419 0.4047
N7 N 0.9820(8) 0.3560(5) 0.6045(6)
O5 O 0.4982(5) 0.2765(3) 0.9182(3)
loop_
_geom_bond_atom_site_label_1
_geom_bond_atom_site_label_2
_geom_bond_site_symmetry_1
_geom_bond_site_symmetry_2
C1 C2 1_555 1_555
C2 C3 1_555 1_555
C3 H1 1_555 1_555
C4 C3 1_555 1_555
H2 C4 1_555 1_555
C5 C4 1_555 1_555
C6 C5 1_555 1_555
H3 C6 1_555 1_555
C7 C2 1_555 1_555
H4 C7 1_555 1_555
C8 H5 1_555 1_555
H6 C8 1_555 1_555
H7 C8 1_555 1_555
C9 C8 1_555 1_555
C10 C23 1_555 1_555
C11 C12 1_555 1_555
C12 C13 1_555 1_555
C13 H8 1_555 1_555
C14 C13 1_555 1_555
H9 C14 1_555 1_555
C15 C14 1_555 1_555
C16 C15 1_555 1_555
H10 C16 1_555 1_555
C17 C12 1_555 1_555
H11 C17 1_555 1_555
C18 H12 1_555 1_555
H13 C18 1_555 1_555
H14 C18 1_555 1_555
C19 C18 1_555 1_555
C20 C21 1_555 1_555
C21 C22 1_555 1_555
C22 H15 1_555 1_555
C23 C22 1_555 1_555
C24 C23 1_555 1_555
H16 C24 1_555 1_555
C25 C24 1_555 1_555
H17 C25 1_555 1_555
C26 C21 1_555 1_555
H18 C26 1_555 1_555
N1 C9 1_555 1_555
N2 C10 1_555 1_555
N3 C5 1_555 1_555
N4 C19 1_555 1_555
N5 C20 1_555 1_555
N6 C15 1_555 1_555
O1 C1 1_555 1_555
O2 C1 1_555 1_555
O3 C11 1_555 1_555
O4 C11 1_555 1_555
Cd1 O1 1_555 1_555
C27 C28 1_555 1_555
C28 H19 1_555 1_555
H20 C28 1_555 1_555
H21 C28 1_555 1_555
N7 C27 1_555 1_555
N1A Cd1 1_555 1_555
N4_2 Cd1 1_555 1_555
O3A Cd1 1_555 1_555
O4A Cd1 1_555 1_555
Cd1_2 N4 1_555 1_555
Cd1A N1 1_555 1_555
Cd1A_2 O3 1_555 1_555
C6 C7 1_555 1_555
C9 N3 1_555 1_555
C10 N3 1_555 1_555
C16 C17 1_555 1_555
C19 N6 1_555 1_555
C20 N6 1_555 1_555
C25 C26 1_555 1_555
N1 N2 1_555 1_555
N4 N5 1_555 1_555
O2 Cd1 1_555 1_555
O4 Cd1A_2 1_555 1_555

#END
