
#######################################################################
#
#                 Cambridge Crystallographic Data Centre
#                                CCDC 
#
#######################################################################
#
# If this CIF has been generated from an entry in the Cambridge 
# Structural Database, then it will include bibliographic, chemical, 
# crystal, experimental, refinement or atomic coordinate data resulting 
# from the CCDC's data processing and validation procedures.
#
#######################################################################

data_PUFZIB
_symmetry_cell_setting           monoclinic
_symmetry_space_group_name_H-M   'C 2/c'
_symmetry_Int_Tables_number      15
_space_group_name_Hall           '-C 2yn'
loop_
_symmetry_equiv_pos_site_id
_symmetry_equiv_pos_as_xyz
1 x,y,z
2 -x,y,1/2-z
3 1/2+x,1/2+y,z
4 1/2-x,1/2+y,1/2-z
5 -x,-y,-z
6 x,-y,1/2+z
7 1/2-x,1/2-y,-z
8 1/2+x,1/2-y,1/2+z
_cell_length_a                   15.9545(17)
_cell_length_b                   14.4298(11)
_cell_length_c                   17.542(2)
_cell_angle_alpha                90
_cell_angle_beta                 101.080(9)
_cell_angle_gamma                90
_cell_volume                     3963.24
loop_
_atom_site_label
_atom_site_type_symbol
_atom_site_fract_x
_atom_site_fract_y
_atom_site_fract_z
C1 C 0.85369(19) 0.2937(2) 0.66743(19)
C2 C 0.76810(18) 0.2618(2) 0.62323(19)
C3 C 0.7386(2) 0.1739(2) 0.6372(2)
H1 H 0.7719 0.1337 0.6739
C4 C 0.65917(18) 0.1465(2) 0.59627(19)
C5 C 0.60949(19) 0.2040(2) 0.5422(2)
H2 H 0.5554 0.1837 0.5149
C6 C 0.63995(19) 0.2921(2) 0.52849(19)
C7 C 0.71974(19) 0.3204(2) 0.56946(19)
H3 H 0.7409 0.3802 0.5604
C8 C 0.6154(3) 0.0894(3) 0.7530(2)
H4 H 0.5867 0.0600 0.7913
H5 H 0.5910 0.1511 0.7402
H6 H 0.6765 0.0951 0.7745
C9 C 0.60301(19) 0.0317(2) 0.6814(2)
C10 C 0.6077(2) -0.0173(2) 0.5645(2)
C11 C 0.6270(2) -0.0236(3) 0.4857(2)
H7 H 0.6052 -0.0824 0.4618
H8 H 0.6889 -0.0206 0.4889
H9 H 0.5997 0.0281 0.4541
C12 C 0.6002(2) 0.4377(2) 0.4531(2)
C13 C 0.5293(2) 0.4802(2) 0.3954(2)
C14 C 0.5238(2) 0.5762(3) 0.3933(2)
H10 H 0.5642 0.6122 0.4279
C15 C 0.4597(3) 0.6198(3) 0.3408(2)
H11 H 0.4560 0.6855 0.3392
C16 C 0.4013(2) 0.5669(3) 0.2911(2)
C17 C 0.4076(2) 0.4721(3) 0.2911(3)
H12 H 0.3682 0.4364 0.2553
C18 C 0.4717(2) 0.4288(3) 0.3433(2)
H13 H 0.4761 0.3632 0.3433
Cd1 Cd 1.0000 0.35651(2) 0.7500
Cl1 Cl 0.31936(8) 0.62068(10) 0.22625(7)
N1 N 0.57067(17) -0.05132(19) 0.67391(17)
N2 N 0.57384(16) -0.08285(19) 0.60003(17)
N3 N 0.62615(16) 0.05752(19) 0.61339(17)
N4 N 0.58610(16) 0.3483(2) 0.47409(16)
H14 H 0.5377 0.3230 0.4509
O1 O 0.88411(15) 0.36711(19) 0.64730(14)
O2 O 0.89136(14) 0.24517(16) 0.72339(15)
O3 O 0.66542(16) 0.48097(18) 0.47878(18)
C1A C 1.14631(19) 0.2937(2) 0.83257(19)
C2A C 1.23190(18) 0.2618(2) 0.87677(19)
C3A C 1.2614(2) 0.1739(2) 0.8628(2)
H1A H 1.2281 0.1337 0.8261
C4A C 1.34083(18) 0.1465(2) 0.90373(19)
C5A C 1.39051(19) 0.2040(2) 0.9578(2)
H2A H 1.4446 0.1837 0.9851
C6A C 1.36005(19) 0.2921(2) 0.97151(19)
C7A C 1.28026(19) 0.3204(2) 0.93054(19)
H3A H 1.2591 0.3802 0.9396
C8A C 1.3846(3) 0.0894(3) 0.7470(2)
H4A H 1.4133 0.0600 0.7087
H5A H 1.4090 0.1511 0.7598
H6A H 1.3235 0.0951 0.7255
C9A C 1.39699(19) 0.0317(2) 0.8186(2)
C10A C 1.3923(2) -0.0173(2) 0.9355(2)
C11A C 1.3730(2) -0.0236(3) 1.0143(2)
H7A H 1.3948 -0.0824 1.0382
H8A H 1.3111 -0.0206 1.0111
H9A H 1.4003 0.0281 1.0459
C12A C 1.3998(2) 0.4377(2) 1.0469(2)
C13A C 1.4707(2) 0.4802(2) 1.1046(2)
C14A C 1.4762(2) 0.5762(3) 1.1067(2)
H10A H 1.4358 0.6122 1.0721
C15A C 1.5403(3) 0.6198(3) 1.1592(2)
H11A H 1.5440 0.6855 1.1608
C16A C 1.5987(2) 0.5669(3) 1.2089(2)
C17A C 1.5924(2) 0.4721(3) 1.2089(3)
H12A H 1.6318 0.4364 1.2447
C18A C 1.5283(2) 0.4288(3) 1.1567(2)
H13A H 1.5239 0.3632 1.1567
Cl1A Cl 1.68064(8) 0.62068(10) 1.27375(7)
N1A N 1.42933(17) -0.05132(19) 0.82609(17)
N2A N 1.42616(16) -0.08285(19) 0.89997(17)
N3A N 1.37385(16) 0.05752(19) 0.88661(17)
N4A N 1.41390(16) 0.3483(2) 1.02591(16)
H14A H 1.4623 0.3230 1.0491
O1A O 1.11589(15) 0.36711(19) 0.85270(14)
O2A O 1.10864(14) 0.24517(16) 0.77661(15)
O3A O 1.33458(16) 0.48097(18) 1.02122(18)
Cd1B Cd 0.5000 -0.14349(2) 0.7500
Cd1B_2 Cd 1.5000 -0.14349(2) 0.7500
N1B N 1.07067(17) 0.44868(19) 0.67391(17)
N1C N 0.92933(17) 0.44868(19) 0.82609(17)
O4 O 0.41446(17) 0.26552(19) 0.44888(18)
C19 C 0.3295(3) 0.2977(4) 0.4182(3)
H15 H 0.2885 0.2627 0.4420
H16 H 0.3167 0.2886 0.3618
H17 H 0.3253 0.3637 0.4300
H18 H 0.423(3) 0.2118(18) 0.434(3)
loop_
_geom_bond_atom_site_label_1
_geom_bond_atom_site_label_2
_geom_bond_site_symmetry_1
_geom_bond_site_symmetry_2
C1 C2 1_555 1_555
C2 C3 1_555 1_555
C3 H1 1_555 1_555
C4 C3 1_555 1_555
C5 C4 1_555 1_555
H2 C5 1_555 1_555
C6 C5 1_555 1_555
C7 C2 1_555 1_555
H3 C7 1_555 1_555
C8 H4 1_555 1_555
H5 C8 1_555 1_555
H6 C8 1_555 1_555
C9 C8 1_555 1_555
C10 C11 1_555 1_555
C11 H7 1_555 1_555
H8 C11 1_555 1_555
H9 C11 1_555 1_555
C12 C13 1_555 1_555
C13 C14 1_555 1_555
C14 H10 1_555 1_555
C15 C14 1_555 1_555
H11 C15 1_555 1_555
C16 C15 1_555 1_555
C17 C16 1_555 1_555
H12 C17 1_555 1_555
C18 C13 1_555 1_555
H13 C18 1_555 1_555
Cd1 O1 1_555 1_555
Cl1 C16 1_555 1_555
N1 C9 1_555 1_555
N2 C10 1_555 1_555
N3 C4 1_555 1_555
N4 C6 1_555 1_555
H14 N4 1_555 1_555
O1 C1 1_555 1_555
O2 C1 1_555 1_555
O3 C12 1_555 1_555
O4 C19 1_555 1_555
C19 H15 1_555 1_555
H16 C19 1_555 1_555
H17 C19 1_555 1_555
H18 O4 1_555 1_555
C1A C2A 1_555 1_555
C2A C3A 1_555 1_555
C3A H1A 1_555 1_555
C4A C3A 1_555 1_555
C5A C4A 1_555 1_555
H2A C5A 1_555 1_555
C6A C5A 1_555 1_555
C7A C2A 1_555 1_555
H3A C7A 1_555 1_555
C8A H4A 1_555 1_555
H5A C8A 1_555 1_555
H6A C8A 1_555 1_555
C9A C8A 1_555 1_555
C10A C11A 1_555 1_555
C11A H7A 1_555 1_555
H8A C11A 1_555 1_555
H9A C11A 1_555 1_555
C12A C13A 1_555 1_555
C13A C14A 1_555 1_555
C14A H10A 1_555 1_555
C15A C14A 1_555 1_555
H11A C15A 1_555 1_555
C16A C15A 1_555 1_555
C17A C16A 1_555 1_555
H12A C17A 1_555 1_555
C18A C13A 1_555 1_555
H13A C18A 1_555 1_555
Cl1A C16A 1_555 1_555
N1A C9A 1_555 1_555
N2A C10A 1_555 1_555
N3A C4A 1_555 1_555
N4A C6A 1_555 1_555
H14A N4A 1_555 1_555
O1A Cd1 1_555 1_555
O2A Cd1 1_555 1_555
O3A C12A 1_555 1_555
Cd1B N1 1_555 1_555
Cd1B_2 N1A 1_555 1_555
N1B Cd1 1_555 1_555
N1C Cd1 1_555 1_555
C6 C7 1_555 1_555
C9 N3 1_555 1_555
C10 N3 1_555 1_555
C12 N4 1_555 1_555
C17 C18 1_555 1_555
Cd1 O2 1_555 1_555
N1 N2 1_555 1_555
C1A O1A 1_555 1_555
C1A O2A 1_555 1_555
C6A C7A 1_555 1_555
C9A N3A 1_555 1_555
C10A N3A 1_555 1_555
C12A N4A 1_555 1_555
C17A C18A 1_555 1_555
N1A N2A 1_555 1_555

#END
