
#######################################################################
#
#                 Cambridge Crystallographic Data Centre
#                                CCDC 
#
#######################################################################
#
# If this CIF has been generated from an entry in the Cambridge 
# Structural Database, then it will include bibliographic, chemical, 
# crystal, experimental, refinement or atomic coordinate data resulting 
# from the CCDC's data processing and validation procedures.
#
#######################################################################

data_PUFZAT
_symmetry_cell_setting           monoclinic
_symmetry_space_group_name_H-M   'P 21/n'
_symmetry_Int_Tables_number      14
_space_group_name_Hall           '-P 2yn'
loop_
_symmetry_equiv_pos_site_id
_symmetry_equiv_pos_as_xyz
1 x,y,z
2 1/2-x,1/2+y,1/2-z
3 -x,-y,-z
4 1/2+x,1/2-y,1/2+z
_cell_length_a                   7.7951(4)
_cell_length_b                   33.6231(18)
_cell_length_c                   9.7341(5)
_cell_angle_alpha                90
_cell_angle_beta                 109.695(4)
_cell_angle_gamma                90
_cell_volume                     2402.01
loop_
_atom_site_label
_atom_site_type_symbol
_atom_site_fract_x
_atom_site_fract_y
_atom_site_fract_z
C1 C 0.1065(4) 0.16956(8) 0.4281(3)
C2 C 0.0993(4) 0.14076(8) 0.3085(3)
C3 C 0.1304(4) 0.15424(8) 0.1845(3)
H1 H 0.1468 0.1819 0.1727
C4 C 0.1379(4) 0.12771(8) 0.0769(3)
H2 H 0.1624 0.1370 -0.0068
C5 C 0.1092(3) 0.08753(8) 0.0935(3)
C6 C 0.0723(4) 0.07336(8) 0.2153(3)
H3 H 0.0485 0.0459 0.2240
C7 C 0.0711(4) 0.10010(8) 0.3234(3)
H4 H 0.0509 0.0907 0.4087
C8 C -0.0895(4) 0.09672(9) -0.2386(3)
H5 H -0.0185 0.1205 -0.2427
H6 H -0.1710 0.1027 -0.1836
H7 H -0.1618 0.0886 -0.3380
C9 C 0.0364(4) 0.06394(8) -0.1653(3)
C10 C 0.2232(3) 0.02621(8) -0.0001(3)
C11 C 0.6057(4) 0.19381(8) 0.1840(3)
C12 C 0.5967(4) 0.15006(8) 0.2070(3)
C13 C 0.5928(4) 0.12412(8) 0.0948(3)
H8 H 0.6087 0.1342 0.0087
C14 C 0.5658(4) 0.08371(8) 0.1071(3)
H9 H 0.5669 0.0659 0.0316
C15 C 0.5373(3) 0.06970(7) 0.2319(3)
C16 C 0.5472(4) 0.09479(8) 0.3483(3)
H10 H 0.5327 0.0846 0.4347
C17 C 0.5788(4) 0.13515(8) 0.3355(3)
H11 H 0.5881 0.1526 0.4144
C18 C 0.7438(4) 0.00703(9) 0.4627(3)
H12 H 0.7119 0.0201 0.5408
H13 H 0.8273 0.0240 0.4331
H14 H 0.8029 -0.0185 0.4980
C19 C 0.5761(4) 0.00011(8) 0.3359(3)
C20 C 0.3460(3) 0.00915(7) 0.1352(3)
N1 N 0.1222(3) 0.06062(6) -0.0167(2)
N2 N 0.0797(3) 0.03401(8) -0.2329(3)
N3 N 0.2002(3) 0.00984(7) -0.1270(3)
N4 N 0.3460(3) -0.02840(7) 0.1698(3)
N5 N 0.4873(3) 0.02891(6) 0.2374(2)
N6 N 0.4932(3) -0.03395(7) 0.2973(3)
O1 O 0.1245(3) 0.15713(7) 0.5535(2)
O2 O 0.0994(3) 0.20651(6) 0.4008(2)
O3 O 0.5814(3) 0.20715(6) 0.0585(2)
O4 O 0.6317(3) 0.21754(6) 0.2920(2)
O5 O 0.4349(3) 0.24194(7) 0.6840(3)
O6 O -0.1746(3) 0.22096(7) 0.5842(3)
O7 O 0.2231(4) 0.19471(7) 0.8637(3)
Cd1 Cd 0.13226(3) 0.225278(5) 0.63896(2)
H15 H 0.501(5) 0.2212(9) 0.715(5)
H16 H 0.473(6) 0.2647(13) 0.743(5)
H17 H -0.212(5) 0.2043(10) 0.633(4)
H18 H -0.250(5) 0.2254(11) 0.501(3)
H19 H 0.173(5) 0.2061(12) 0.921(4)
H20 H 0.308(4) 0.1809(11) 0.851(4)
O3C O 0.0814(3) 0.29285(6) 0.5585(2)
O4C O 0.1317(3) 0.28246(6) 0.7920(2)
Cd1C Cd 0.63226(3) 0.274722(5) 0.13896(2)
O8 O -0.0699(4) 0.22679(8) 0.9227(3)
H21 H -0.160(4) 0.2255(11) 0.838(3)
H22 H -0.081(6) 0.2359(11) 1.004(3)
O9 O 0.6545(4) 0.17864(8) 0.7418(3)
H23 H 0.581(5) 0.1546(12) 0.726(4)
H24 H 0.718(6) 0.1847(12) 0.835(5)
O10 O 0.5586(4) -0.11631(8) 0.2933(4)
H25 H 0.559(5) -0.0924(6) 0.311(4)
H26 H 0.667(3) -0.1227(11) 0.318(4)
loop_
_geom_bond_atom_site_label_1
_geom_bond_atom_site_label_2
_geom_bond_site_symmetry_1
_geom_bond_site_symmetry_2
C1 C2 1_555 1_555
C2 C3 1_555 1_555
C3 H1 1_555 1_555
C4 C3 1_555 1_555
H2 C4 1_555 1_555
C5 C4 1_555 1_555
C6 C5 1_555 1_555
H3 C6 1_555 1_555
C7 C2 1_555 1_555
H4 C7 1_555 1_555
C8 H5 1_555 1_555
H6 C8 1_555 1_555
H7 C8 1_555 1_555
C9 C8 1_555 1_555
C10 C20 1_555 1_555
C11 C12 1_555 1_555
C12 C13 1_555 1_555
C13 H8 1_555 1_555
C14 C13 1_555 1_555
H9 C14 1_555 1_555
C15 C14 1_555 1_555
C16 C15 1_555 1_555
H10 C16 1_555 1_555
C17 C12 1_555 1_555
H11 C17 1_555 1_555
C18 H12 1_555 1_555
H13 C18 1_555 1_555
H14 C18 1_555 1_555
C19 C18 1_555 1_555
C20 N4 1_555 1_555
N1 C5 1_555 1_555
N2 C9 1_555 1_555
N3 C10 1_555 1_555
N4 N6 1_555 1_555
N5 C15 1_555 1_555
N6 C19 1_555 1_555
O1 C1 1_555 1_555
O2 C1 1_555 1_555
O3 C11 1_555 1_555
O4 C11 1_555 1_555
O5 Cd1 1_555 1_555
O6 Cd1 1_555 1_555
O7 Cd1 1_555 1_555
Cd1 O1 1_555 1_555
H15 O5 1_555 1_555
H16 O5 1_555 1_555
H17 O6 1_555 1_555
H18 O6 1_555 1_555
H19 O7 1_555 1_555
H20 O7 1_555 1_555
O8 H21 1_555 1_555
H22 O8 1_555 1_555
O9 H23 1_555 1_555
H24 O9 1_555 1_555
O10 H25 1_555 1_555
H26 O10 1_555 1_555
O3C Cd1 1_555 1_555
O4C Cd1 1_555 1_555
Cd1C O3 1_555 1_555
C6 C7 1_555 1_555
C9 N1 1_555 1_555
C10 N1 1_555 1_555
C16 C17 1_555 1_555
C19 N5 1_555 1_555
C20 N5 1_555 1_555
N2 N3 1_555 1_555
O2 Cd1 1_555 1_555
O4 Cd1C 1_555 1_555

#END
