
#######################################################################
#
#                 Cambridge Crystallographic Data Centre
#                                CCDC 
#
#######################################################################
#
# If this CIF has been generated from an entry in the Cambridge 
# Structural Database, then it will include bibliographic, chemical, 
# crystal, experimental, refinement or atomic coordinate data resulting 
# from the CCDC's data processing and validation procedures.
#
#######################################################################

data_PUFZUM
_symmetry_cell_setting           triclinic
_symmetry_space_group_name_H-M   'P -1'
_symmetry_Int_Tables_number      2
_space_group_name_Hall           '-P 1'
loop_
_symmetry_equiv_pos_site_id
_symmetry_equiv_pos_as_xyz
1 x,y,z
2 -x,-y,-z
_cell_length_a                   8.661(2)
_cell_length_b                   8.753(2)
_cell_length_c                   11.159(3)
_cell_angle_alpha                88.110(8)
_cell_angle_beta                 81.502(7)
_cell_angle_gamma                89.813(10)
_cell_volume                     836.217
loop_
_atom_site_label
_atom_site_type_symbol
_atom_site_fract_x
_atom_site_fract_y
_atom_site_fract_z
Ni1 Ni 0.5000 0.5000 0.5000
S1 S 0.73976(6) 0.43573(6) 0.58844(5)
S2 S 0.46123(7) 0.68201(6) 0.66788(5)
P1 P 0.64607(7) 0.57524(7) 0.71650(5)
O1 O 0.5953(2) 0.48949(19) 0.84272(15)
O2 O 0.7711(2) 0.6930(2) 0.75100(15)
N1 N 0.3710(2) 0.3357(2) 0.61516(17)
N2 N 0.0259(2) 0.0611(2) 0.95949(18)
C1 C 0.6944(3) 0.3733(3) 0.8926(2)
H1 H 0.7730 0.3345 0.8257
C2 C 0.5865(3) 0.2446(3) 0.9442(2)
H2 H 0.5378 0.2009 0.8792
H3 H 0.5053 0.2840 1.0061
H4 H 0.6464 0.1653 0.9810
C3 C 0.7778(3) 0.4463(3) 0.9858(2)
H5 H 0.8473 0.5272 0.9464
H6 H 0.8393 0.3688 1.0230
H7 H 0.7009 0.4903 1.0486
C4 C 0.8388(3) 0.8094(3) 0.6614(2)
H8 H 0.7952 0.7981 0.5840
C5 C 1.0132(3) 0.7830(3) 0.6398(3)
H9 H 1.0350 0.6822 0.6055
H10 H 1.0544 0.7876 0.7168
H11 H 1.0634 0.8621 0.5831
C6 C 0.7934(3) 0.9641(3) 0.7138(3)
H12 H 0.6795 0.9747 0.7249
H13 H 0.8410 1.0454 0.6581
H14 H 0.8303 0.9718 0.7923
C7 C 0.4224(3) 0.1924(3) 0.6265(2)
H15 H 0.5144 0.1624 0.5755
C8 C 0.3473(3) 0.0860(3) 0.7094(2)
H16 H 0.3865 -0.0153 0.7138
C9 C 0.2132(3) 0.1289(3) 0.7867(2)
C10 C 0.1577(3) 0.2772(3) 0.7726(2)
H17 H 0.0653 0.3102 0.8217
C11 C 0.2384(3) 0.3754(3) 0.6868(2)
H18 H 0.1990 0.4758 0.6775
C12 C 0.1396(3) 0.0206(3) 0.8798(2)
H19 H 0.1765 -0.0817 0.8815
Ni1_2 Ni -0.5000 -0.5000 1.5000
S1A S 0.26024(6) 0.56427(6) 0.41156(5)
S2A S 0.53877(7) 0.31799(6) 0.33212(5)
P1A P 0.35393(7) 0.42476(7) 0.28350(5)
O1A O 0.4047(2) 0.51051(19) 0.15728(15)
O2A O 0.2289(2) 0.3070(2) 0.24900(15)
N1A N -0.3710(2) -0.3357(2) 1.38484(17)
N1A_2 N 0.6290(2) 0.6643(2) 0.38484(17)
N2A N -0.0259(2) -0.0611(2) 1.04051(18)
C1A C 0.3056(3) 0.6267(3) 0.1074(2)
H1A H 0.2270 0.6655 0.1743
C2A C 0.4135(3) 0.7554(3) 0.0558(2)
H2A H 0.4622 0.7991 0.1208
H3A H 0.4947 0.7160 -0.0061
H4A H 0.3536 0.8347 0.0190
C3A C 0.2222(3) 0.5537(3) 0.0142(2)
H5A H 0.1527 0.4728 0.0536
H6A H 0.1607 0.6312 -0.0230
H7A H 0.2991 0.5097 -0.0486
C4A C 0.1612(3) 0.1906(3) 0.3386(2)
H8A H 0.2048 0.2019 0.4160
C5A C -0.0132(3) 0.2170(3) 0.3602(3)
H9A H -0.0350 0.3178 0.3945
H10A H -0.0544 0.2124 0.2832
H11A H -0.0634 0.1379 0.4169
C6A C 0.2066(3) 0.0359(3) 0.2862(3)
H12A H 0.3205 0.0253 0.2751
H13A H 0.1590 -0.0454 0.3419
H14A H 0.1697 0.0282 0.2077
C7A C -0.4224(3) -0.1924(3) 1.3735(2)
H15A H -0.5144 -0.1624 1.4245
C8A C -0.3473(3) -0.0860(3) 1.2906(2)
H16A H -0.3865 0.0153 1.2862
C9A C -0.2132(3) -0.1289(3) 1.2133(2)
C10A C -0.1577(3) -0.2772(3) 1.2274(2)
H17A H -0.0653 -0.3102 1.1783
C11A C -0.2384(3) -0.3754(3) 1.3132(2)
H18A H -0.1990 -0.4758 1.3225
C12A C -0.1396(3) -0.0206(3) 1.1202(2)
H19A H -0.1765 0.0817 1.1185
loop_
_geom_bond_atom_site_label_1
_geom_bond_atom_site_label_2
_geom_bond_site_symmetry_1
_geom_bond_site_symmetry_2
Ni1 S1 1_555 1_555
S1 P1 1_555 1_555
S2 Ni1 1_555 1_555
P1 S2 1_555 1_555
O1 P1 1_555 1_555
O2 P1 1_555 1_555
N1 Ni1 1_555 1_555
N2 C12 1_555 1_555
C1 O1 1_555 1_555
H1 C1 1_555 1_555
C2 C1 1_555 1_555
H2 C2 1_555 1_555
H3 C2 1_555 1_555
H4 C2 1_555 1_555
C3 C1 1_555 1_555
H5 C3 1_555 1_555
H6 C3 1_555 1_555
H7 C3 1_555 1_555
C4 O2 1_555 1_555
H8 C4 1_555 1_555
C5 C4 1_555 1_555
H9 C5 1_555 1_555
H10 C5 1_555 1_555
H11 C5 1_555 1_555
C6 C4 1_555 1_555
H12 C6 1_555 1_555
H13 C6 1_555 1_555
H14 C6 1_555 1_555
C7 N1 1_555 1_555
H15 C7 1_555 1_555
C8 C7 1_555 1_555
H16 C8 1_555 1_555
C9 C8 1_555 1_555
C10 C9 1_555 1_555
H17 C10 1_555 1_555
C11 N1 1_555 1_555
H18 C11 1_555 1_555
C12 C9 1_555 1_555
H19 C12 1_555 1_555
Ni1_2 N1A 1_555 1_555
S1A Ni1 1_555 1_555
S2A Ni1 1_555 1_555
P1A S1A 1_555 1_555
O1A P1A 1_555 1_555
O2A P1A 1_555 1_555
N1A C7A 1_555 1_555
N1A_2 Ni1 1_555 1_555
N2A N2 1_555 1_555
C1A O1A 1_555 1_555
H1A C1A 1_555 1_555
C2A C1A 1_555 1_555
H2A C2A 1_555 1_555
H3A C2A 1_555 1_555
H4A C2A 1_555 1_555
C3A C1A 1_555 1_555
H5A C3A 1_555 1_555
H6A C3A 1_555 1_555
H7A C3A 1_555 1_555
C4A O2A 1_555 1_555
H8A C4A 1_555 1_555
C5A C4A 1_555 1_555
H9A C5A 1_555 1_555
H10A C5A 1_555 1_555
H11A C5A 1_555 1_555
C6A C4A 1_555 1_555
H12A C6A 1_555 1_555
H13A C6A 1_555 1_555
H14A C6A 1_555 1_555
C7A H15A 1_555 1_555
C8A C7A 1_555 1_555
H16A C8A 1_555 1_555
C9A C8A 1_555 1_555
C10A C9A 1_555 1_555
H17A C10A 1_555 1_555
C11A N1A 1_555 1_555
H18A C11A 1_555 1_555
C12A N2A 1_555 1_555
H19A C12A 1_555 1_555
C10 C11 1_555 1_555
S2A P1A 1_555 1_555
C9A C12A 1_555 1_555
C10A C11A 1_555 1_555

#END
