
#######################################################################
#
#                 Cambridge Crystallographic Data Centre
#                                CCDC 
#
#######################################################################
#
# If this CIF has been generated from an entry in the Cambridge 
# Structural Database, then it will include bibliographic, chemical, 
# crystal, experimental, refinement or atomic coordinate data resulting 
# from the CCDC's data processing and validation procedures.
#
#######################################################################

data_PUFZUN
_symmetry_cell_setting           monoclinic
_symmetry_space_group_name_H-M   'C 2/c'
_symmetry_Int_Tables_number      15
_space_group_name_Hall           '-C 2yn'
loop_
_symmetry_equiv_pos_site_id
_symmetry_equiv_pos_as_xyz
1 x,y,z
2 -x,y,1/2-z
3 1/2+x,1/2+y,z
4 1/2-x,1/2+y,1/2-z
5 -x,-y,-z
6 x,-y,1/2+z
7 1/2-x,1/2-y,-z
8 1/2+x,1/2-y,1/2+z
_cell_length_a                   16.4014(16)
_cell_length_b                   14.6012(19)
_cell_length_c                   17.7766(18)
_cell_angle_alpha                90
_cell_angle_beta                 104.979(8)
_cell_angle_gamma                90
_cell_volume                     4112.49
loop_
_atom_site_label
_atom_site_type_symbol
_atom_site_fract_x
_atom_site_fract_y
_atom_site_fract_z
C1 C 0.8554(2) 0.3021(3) 0.6703(2)
C2 C 0.7699(2) 0.2694(2) 0.6256(2)
C3 C 0.7394(3) 0.1852(3) 0.6435(2)
H1 H 0.7721 0.1478 0.6830
C4 C 0.6600(3) 0.1581(3) 0.6018(2)
C5 C 0.6103(3) 0.2119(3) 0.5438(3)
H2 H 0.5566 0.1916 0.5160
C6 C 0.6407(3) 0.2967(3) 0.5267(3)
C7 C 0.7218(3) 0.3242(3) 0.5671(2)
H3 H 0.7438 0.3799 0.5545
C8 C 0.6119(4) 0.1117(3) 0.7537(3)
H4 H 0.5924 0.0804 0.7939
H5 H 0.5796 0.1675 0.7390
H6 H 0.6712 0.1268 0.7733
C9 C 0.6005(3) 0.0515(3) 0.6849(2)
C10 C 0.6075(2) -0.0033(3) 0.5731(2)
C11 C 0.6297(3) -0.0132(3) 0.4977(3)
H7 H 0.6074 -0.0705 0.4734
H8 H 0.6906 -0.0127 0.5067
H9 H 0.6056 0.0373 0.4637
C12 C 0.5954(3) 0.4388(3) 0.4523(3)
C13 C 0.5230(3) 0.4795(3) 0.3918(3)
C14 C 0.5001(7) 0.5647(6) 0.3943(5)
H10 H 0.5321 0.6025 0.4338
C15 C 0.4302(6) 0.6029(6) 0.3410(5)
H11 H 0.4142 0.6634 0.3481
C16 C 0.3902(3) 0.5591(4) 0.2858(3)
C17 C 0.4158(6) 0.4653(6) 0.2653(5)
H12 H 0.3867 0.4344 0.2199
C18 C 0.4843(5) 0.4277(6) 0.3172(5)
H13 H 0.5067 0.3713 0.3068
Cd1 Cd 1.0000 0.38010(2) 0.7500
Br1 Br 0.29578(4) 0.61014(5) 0.21108(4)
N1 N 0.5672(2) -0.0306(2) 0.67744(18)
N2 N 0.5721(2) -0.0656(2) 0.60624(19)
N3 N 0.6260(2) 0.0722(2) 0.6197(2)
N4 N 0.5871(2) 0.3498(3) 0.4687(3)
H14 H 0.5433 0.3218 0.4398
O1 O 0.8848(2) 0.3729(2) 0.64657(16)
O2 O 0.89477(19) 0.26026(18) 0.72947(17)
O3 O 0.6560(2) 0.4857(2) 0.4844(2)
C1A C 1.1446(2) 0.3021(3) 0.8297(2)
C2A C 1.2301(2) 0.2694(2) 0.8744(2)
C3A C 1.2606(3) 0.1852(3) 0.8565(2)
H1A H 1.2279 0.1478 0.8170
C4A C 1.3400(3) 0.1581(3) 0.8982(2)
C5A C 1.3897(3) 0.2119(3) 0.9562(3)
H2A H 1.4434 0.1916 0.9840
C6A C 1.3593(3) 0.2967(3) 0.9733(3)
C7A C 1.2782(3) 0.3242(3) 0.9329(2)
H3A H 1.2562 0.3799 0.9455
C8A C 1.3881(4) 0.1117(3) 0.7463(3)
H4A H 1.4076 0.0804 0.7061
H5A H 1.4204 0.1675 0.7610
H6A H 1.3288 0.1268 0.7267
C9A C 1.3995(3) 0.0515(3) 0.8151(2)
C10A C 1.3925(2) -0.0033(3) 0.9269(2)
C11A C 1.3703(3) -0.0132(3) 1.0023(3)
H7A H 1.3926 -0.0705 1.0266
H8A H 1.3094 -0.0127 0.9933
H9A H 1.3944 0.0373 1.0363
C12A C 1.4046(3) 0.4388(3) 1.0477(3)
C13A C 1.4770(3) 0.4795(3) 1.1082(3)
C14A C 1.4999(7) 0.5647(6) 1.1057(5)
H10A H 1.4679 0.6025 1.0662
C15A C 1.5698(6) 0.6029(6) 1.1590(5)
H11A H 1.5858 0.6634 1.1519
C16A C 1.6098(3) 0.5591(4) 1.2142(3)
C17A C 1.5842(6) 0.4653(6) 1.2347(5)
H12A H 1.6133 0.4344 1.2801
C18A C 1.5157(5) 0.4277(6) 1.1828(5)
H13A H 1.4933 0.3713 1.1932
Br1A Br 1.70422(4) 0.61014(5) 1.28892(4)
N1A N 1.4328(2) -0.0306(2) 0.82256(18)
N2A N 1.4279(2) -0.0656(2) 0.89376(19)
N3A N 1.3740(2) 0.0722(2) 0.8803(2)
N4A N 1.4129(2) 0.3498(3) 1.0313(3)
H14A H 1.4567 0.3218 1.0602
O1A O 1.1152(2) 0.3729(2) 0.85343(16)
O2A O 1.10523(19) 0.26026(18) 0.77053(17)
O3A O 1.3440(2) 0.4857(2) 1.0156(2)
Cd1B Cd 0.5000 -0.11990(2) 0.7500
Cd1B_2 Cd 1.5000 -0.11990(2) 0.7500
N1B N 1.0672(2) 0.4694(2) 0.67744(18)
N1C N 0.9328(2) 0.4694(2) 0.82256(18)
O5 O 0.4237(3) 0.2564(3) 0.3936(3)
O6 O 0.2810(10) 0.3467(11) 0.4250(10)
O8 O 0.4128(11) 0.2139(10) 0.6014(8)
C19? C 0.5262(8) 0.5733(8) 0.3821(7)
H15? H 0.5709 0.6078 0.4128
C20? C 0.4621(8) 0.6159(8) 0.3261(7)
H16? H 0.4648 0.6784 0.3146
C21? C 0.3838(13) 0.4800(13) 0.3118(11)
H17? H 0.3325 0.4486 0.2931
C22? C 0.4499(12) 0.4350(14) 0.3684(11)
H18? H 0.4421 0.3768 0.3880
O4? O 0.4257(6) 0.2474(6) 0.4516(6)
O7? O 0.2900(14) 0.3151(15) 0.4674(14)
O9? O 0.3629(17) 0.2336(15) 0.5747(13)
loop_
_geom_bond_atom_site_label_1
_geom_bond_atom_site_label_2
_geom_bond_site_symmetry_1
_geom_bond_site_symmetry_2
C1 C2 1_555 1_555
C2 C3 1_555 1_555
C3 H1 1_555 1_555
C4 C3 1_555 1_555
C5 C4 1_555 1_555
H2 C5 1_555 1_555
C6 C5 1_555 1_555
C7 C2 1_555 1_555
H3 C7 1_555 1_555
C8 H4 1_555 1_555
H5 C8 1_555 1_555
H6 C8 1_555 1_555
C9 C8 1_555 1_555
C10 C11 1_555 1_555
C11 H7 1_555 1_555
H8 C11 1_555 1_555
H9 C11 1_555 1_555
C12 C13 1_555 1_555
C13 C14 1_555 1_555
C14 H10 1_555 1_555
C15 C14 1_555 1_555
H11 C15 1_555 1_555
C16 C15 1_555 1_555
C17 C16 1_555 1_555
H12 C17 1_555 1_555
C18 C13 1_555 1_555
H13 C18 1_555 1_555
Cd1 O1 1_555 1_555
Br1 C16 1_555 1_555
N1 C9 1_555 1_555
N2 C10 1_555 1_555
N3 C4 1_555 1_555
N4 C6 1_555 1_555
H14 N4 1_555 1_555
O1 C1 1_555 1_555
O2 C1 1_555 1_555
O3 C12 1_555 1_555
C1A C2A 1_555 1_555
C2A C3A 1_555 1_555
C3A H1A 1_555 1_555
C4A C3A 1_555 1_555
C5A C4A 1_555 1_555
H2A C5A 1_555 1_555
C6A C5A 1_555 1_555
C7A C2A 1_555 1_555
H3A C7A 1_555 1_555
C8A H4A 1_555 1_555
H5A C8A 1_555 1_555
H6A C8A 1_555 1_555
C9A C8A 1_555 1_555
C10A C11A 1_555 1_555
C11A H7A 1_555 1_555
H8A C11A 1_555 1_555
H9A C11A 1_555 1_555
C12A C13A 1_555 1_555
C13A C14A 1_555 1_555
C14A H10A 1_555 1_555
C15A C14A 1_555 1_555
H11A C15A 1_555 1_555
C16A C15A 1_555 1_555
C17A C16A 1_555 1_555
H12A C17A 1_555 1_555
C18A C13A 1_555 1_555
H13A C18A 1_555 1_555
Br1A C16A 1_555 1_555
N1A C9A 1_555 1_555
N2A C10A 1_555 1_555
N3A C4A 1_555 1_555
N4A C6A 1_555 1_555
H14A N4A 1_555 1_555
O1A Cd1 1_555 1_555
O2A Cd1 1_555 1_555
O3A C12A 1_555 1_555
Cd1B N1 1_555 1_555
Cd1B_2 N1A 1_555 1_555
N1B Cd1 1_555 1_555
N1C Cd1 1_555 1_555
C6 C7 1_555 1_555
C9 N3 1_555 1_555
C10 N3 1_555 1_555
C12 N4 1_555 1_555
C17 C18 1_555 1_555
Cd1 O2 1_555 1_555
N1 N2 1_555 1_555
C1A O1A 1_555 1_555
C1A O2A 1_555 1_555
C6A C7A 1_555 1_555
C9A N3A 1_555 1_555
C10A N3A 1_555 1_555
C12A N4A 1_555 1_555
C17A C18A 1_555 1_555
N1A N2A 1_555 1_555

#END
