
#######################################################################
#
#                 Cambridge Crystallographic Data Centre
#                                CCDC 
#
#######################################################################
#
# If this CIF has been generated from an entry in the Cambridge 
# Structural Database, then it will include bibliographic, chemical, 
# crystal, experimental, refinement or atomic coordinate data resulting 
# from the CCDC's data processing and validation procedures.
#
#######################################################################

data_PUGBEA
_symmetry_cell_setting           monoclinic
_symmetry_space_group_name_H-M   'C 2/c'
_symmetry_Int_Tables_number      15
_space_group_name_Hall           '-C 2yn'
loop_
_symmetry_equiv_pos_site_id
_symmetry_equiv_pos_as_xyz
1 x,y,z
2 -x,y,1/2-z
3 1/2+x,1/2+y,z
4 1/2-x,1/2+y,1/2-z
5 -x,-y,-z
6 x,-y,1/2+z
7 1/2-x,1/2-y,-z
8 1/2+x,1/2-y,1/2+z
_cell_length_a                   16.3344(15)
_cell_length_b                   14.7183(12)
_cell_length_c                   17.7411(17)
_cell_angle_alpha                90
_cell_angle_beta                 102.989(7)
_cell_angle_gamma                90
_cell_volume                     4156.09
loop_
_atom_site_label
_atom_site_type_symbol
_atom_site_fract_x
_atom_site_fract_y
_atom_site_fract_z
C1 C 0.8566(3) 0.2934(3) 0.6717(3)
C2 C 0.7719(3) 0.2620(3) 0.6283(3)
C3 C 0.7407(3) 0.1774(3) 0.6446(3)
H1 H 0.7732 0.1383 0.6824
C4 C 0.6613(3) 0.1522(3) 0.6043(3)
C5 C 0.6140(3) 0.2069(3) 0.5490(3)
H2 H 0.5598 0.1876 0.5222
C6 C 0.6447(3) 0.2910(3) 0.5314(3)
C7 C 0.7251(3) 0.3174(3) 0.5707(3)
H3 H 0.7479 0.3732 0.5580
C8 C 0.6125(5) 0.1009(4) 0.7578(4)
H4 H 0.5891 0.0697 0.7970
H5 H 0.5832 0.1589 0.7444
H6 H 0.6725 0.1123 0.7783
C9 C 0.6012(3) 0.0429(4) 0.6870(3)
C10 C 0.6080(3) -0.0065(3) 0.5723(3)
C11 C 0.6290(4) -0.0127(4) 0.4954(4)
H7 H 0.6045 -0.0682 0.4692
H8 H 0.6902 -0.0143 0.5020
H9 H 0.6062 0.0403 0.4642
C12 C 0.6007(3) 0.4343(4) 0.4597(4)
C13 C 0.5313(3) 0.4741(4) 0.4004(4)
C14 C 0.5190(4) 0.5669(4) 0.3987(4)
H10 H 0.5560 0.6042 0.4348
C15 C 0.4528(4) 0.6071(4) 0.3449(4)
H11 H 0.4442 0.6709 0.3453
C16 C 0.4025(3) 0.5553(4) 0.2936(3)
C17 C 0.4156(5) 0.4625(5) 0.2903(5)
H12 H 0.3802 0.4266 0.2518
C18 C 0.4804(5) 0.4226(5) 0.3435(5)
H13 H 0.4901 0.3591 0.3409
Cd1 Cd 1.0000 0.36931(3) 0.7500
I1 I 0.30154(3) 0.61291(3) 0.21215(3)
N1 N 0.5674(2) -0.0380(3) 0.6775(3)
N2 N 0.5720(2) -0.0698(3) 0.6047(3)
N3 N 0.6263(2) 0.0666(3) 0.6213(3)
N4 N 0.5925(3) 0.3445(3) 0.4755(3)
H14 H 0.5487 0.3167 0.4468
O1 O 0.8889(3) 0.3609(3) 0.6456(2)
O2 O 0.8931(2) 0.2535(2) 0.7321(2)
O3 O 0.6605(2) 0.4810(3) 0.4937(3)
C1A C 1.1434(3) 0.2934(3) 0.8283(3)
C2A C 1.2281(3) 0.2620(3) 0.8717(3)
C3A C 1.2593(3) 0.1774(3) 0.8554(3)
H1A H 1.2268 0.1383 0.8176
C4A C 1.3387(3) 0.1522(3) 0.8957(3)
C5A C 1.3860(3) 0.2069(3) 0.9510(3)
H2A H 1.4402 0.1876 0.9778
C6A C 1.3553(3) 0.2910(3) 0.9686(3)
C7A C 1.2749(3) 0.3174(3) 0.9293(3)
H3A H 1.2521 0.3732 0.9420
C8A C 1.3875(5) 0.1009(4) 0.7422(4)
H4A H 1.4109 0.0697 0.7030
H5A H 1.4168 0.1589 0.7556
H6A H 1.3275 0.1123 0.7217
C9A C 1.3988(3) 0.0429(4) 0.8130(3)
C10A C 1.3920(3) -0.0065(3) 0.9277(3)
C11A C 1.3710(4) -0.0127(4) 1.0046(4)
H7A H 1.3955 -0.0682 1.0308
H8A H 1.3098 -0.0143 0.9980
H9A H 1.3938 0.0403 1.0358
C12A C 1.3993(3) 0.4343(4) 1.0403(4)
C13A C 1.4687(3) 0.4741(4) 1.0996(4)
C14A C 1.4810(4) 0.5669(4) 1.1013(4)
H10A H 1.4440 0.6042 1.0652
C15A C 1.5472(4) 0.6071(4) 1.1551(4)
H11A H 1.5558 0.6709 1.1547
C16A C 1.5975(3) 0.5553(4) 1.2064(3)
C17A C 1.5844(5) 0.4625(5) 1.2097(5)
H12A H 1.6198 0.4266 1.2482
C18A C 1.5196(5) 0.4226(5) 1.1565(5)
H13A H 1.5099 0.3591 1.1591
I1A I 1.69846(3) 0.61291(3) 1.28785(3)
N1A N 1.4326(2) -0.0380(3) 0.8225(3)
N2A N 1.4280(2) -0.0698(3) 0.8953(3)
N3A N 1.3737(2) 0.0666(3) 0.8787(3)
N4A N 1.4075(3) 0.3445(3) 1.0245(3)
H14A H 1.4513 0.3167 1.0532
O1A O 1.1111(3) 0.3609(3) 0.8544(2)
O2A O 1.1069(2) 0.2535(2) 0.7679(2)
O3A O 1.3395(2) 0.4810(3) 1.0063(3)
Cd1B Cd 0.5000 -0.13069(3) 0.7500
Cd1B_2 Cd 1.5000 -0.13069(3) 0.7500
N1B N 1.0674(2) 0.4620(3) 0.6775(3)
N1C N 0.9326(2) 0.4620(3) 0.8225(3)
O4 O 0.4274(4) 0.2499(4) 0.4522(4)
O6 O 0.2840(7) 0.3613(7) 0.4119(7)
O8 O 0.3712(12) 0.2208(8) 0.5853(8)
O5? O 0.4272(7) 0.2579(8) 0.4009(8)
O7? O 0.2874(14) 0.3164(17) 0.4656(14)
O9? O 0.416(2) 0.2101(19) 0.6027(17)
loop_
_geom_bond_atom_site_label_1
_geom_bond_atom_site_label_2
_geom_bond_site_symmetry_1
_geom_bond_site_symmetry_2
C1 C2 1_555 1_555
C2 C3 1_555 1_555
C3 H1 1_555 1_555
C4 C3 1_555 1_555
C5 C4 1_555 1_555
H2 C5 1_555 1_555
C6 C5 1_555 1_555
C7 C2 1_555 1_555
H3 C7 1_555 1_555
C8 H4 1_555 1_555
H5 C8 1_555 1_555
H6 C8 1_555 1_555
C9 C8 1_555 1_555
C10 C11 1_555 1_555
C11 H7 1_555 1_555
H8 C11 1_555 1_555
H9 C11 1_555 1_555
C12 C13 1_555 1_555
C13 C14 1_555 1_555
C14 H10 1_555 1_555
C15 C14 1_555 1_555
H11 C15 1_555 1_555
C16 C15 1_555 1_555
C17 C16 1_555 1_555
H12 C17 1_555 1_555
C18 C13 1_555 1_555
H13 C18 1_555 1_555
Cd1 O1 1_555 1_555
I1 C16 1_555 1_555
N1 C9 1_555 1_555
N2 C10 1_555 1_555
N3 C4 1_555 1_555
N4 C6 1_555 1_555
H14 N4 1_555 1_555
O1 C1 1_555 1_555
O2 C1 1_555 1_555
O3 C12 1_555 1_555
C1A C2A 1_555 1_555
C2A C3A 1_555 1_555
C3A H1A 1_555 1_555
C4A C3A 1_555 1_555
C5A C4A 1_555 1_555
H2A C5A 1_555 1_555
C6A C5A 1_555 1_555
C7A C2A 1_555 1_555
H3A C7A 1_555 1_555
C8A H4A 1_555 1_555
H5A C8A 1_555 1_555
H6A C8A 1_555 1_555
C9A C8A 1_555 1_555
C10A C11A 1_555 1_555
C11A H7A 1_555 1_555
H8A C11A 1_555 1_555
H9A C11A 1_555 1_555
C12A C13A 1_555 1_555
C13A C14A 1_555 1_555
C14A H10A 1_555 1_555
C15A C14A 1_555 1_555
H11A C15A 1_555 1_555
C16A C15A 1_555 1_555
C17A C16A 1_555 1_555
H12A C17A 1_555 1_555
C18A C13A 1_555 1_555
H13A C18A 1_555 1_555
I1A C16A 1_555 1_555
N1A C9A 1_555 1_555
N2A C10A 1_555 1_555
N3A C4A 1_555 1_555
N4A C6A 1_555 1_555
H14A N4A 1_555 1_555
O1A Cd1 1_555 1_555
O2A Cd1 1_555 1_555
O3A C12A 1_555 1_555
Cd1B N1 1_555 1_555
Cd1B_2 N1A 1_555 1_555
N1B Cd1 1_555 1_555
N1C Cd1 1_555 1_555
C6 C7 1_555 1_555
C9 N3 1_555 1_555
C10 N3 1_555 1_555
C12 N4 1_555 1_555
C17 C18 1_555 1_555
Cd1 O2 1_555 1_555
N1 N2 1_555 1_555
C1A O1A 1_555 1_555
C1A O2A 1_555 1_555
C6A C7A 1_555 1_555
C9A N3A 1_555 1_555
C10A N3A 1_555 1_555
C12A N4A 1_555 1_555
C17A C18A 1_555 1_555
N1A N2A 1_555 1_555

#END
