
#######################################################################
#
#                 Cambridge Crystallographic Data Centre
#                                CCDC 
#
#######################################################################
#
# If this CIF has been generated from an entry in the Cambridge 
# Structural Database, then it will include bibliographic, chemical, 
# crystal, experimental, refinement or atomic coordinate data resulting 
# from the CCDC's data processing and validation procedures.
#
#######################################################################

data_PUGBOK
_symmetry_cell_setting           triclinic
_symmetry_space_group_name_H-M   'P -1'
_symmetry_Int_Tables_number      2
_space_group_name_Hall           '-P 1'
loop_
_symmetry_equiv_pos_site_id
_symmetry_equiv_pos_as_xyz
1 x,y,z
2 -x,-y,-z
_cell_length_a                   13.4053(17)
_cell_length_b                   16.064(2)
_cell_length_c                   18.422(3)
_cell_angle_alpha                97.401(12)
_cell_angle_beta                 100.732(11)
_cell_angle_gamma                93.576(11)
_cell_volume                     3849.97
loop_
_atom_site_label
_atom_site_type_symbol
_atom_site_fract_x
_atom_site_fract_y
_atom_site_fract_z
C1 C -0.0496(9) 0.8692(6) -0.2974(6)
C2 C 0.0012(10) 0.7767(7) -0.2154(5)
H1 H -0.0155 0.7361 -0.1861
C3 C 0.1035(9) 0.7997(7) -0.2103(5)
C4 C 0.1227(10) 0.8637(7) -0.2507(6)
H2 H 0.1909 0.8829 -0.2489
C5 C 0.1841(9) 0.7596(7) -0.1641(6)
C6 C 0.1697(9) 0.6757(7) -0.1541(5)
H3 H 0.1091 0.6434 -0.1788
C7 C 0.2445(9) 0.6381(7) -0.1075(6)
H4 H 0.2335 0.5810 -0.1022
C8 C 0.3347(9) 0.6847(7) -0.0691(5)
C9 C 0.3498(10) 0.7680(7) -0.0805(6)
H5 H 0.4103 0.8005 -0.0559
C10 C 0.2765(9) 0.8040(7) -0.1278(5)
H6 H 0.2898 0.8600 -0.1355
C11 C 0.4110(10) 0.6465(7) -0.0158(5)
C12 C 0.3836(8) 0.5796(7) 0.0203(5)
H7 H 0.3155 0.5562 0.0081
C13 C 0.5450(8) 0.5857(6) 0.0885(5)
C14 C 0.5122(9) 0.6759(6) 0.0028(5)
H8 H 0.5355 0.7177 -0.0229
C15 C 0.9089(9) 0.9129(6) 0.1248(5)
C16 C 0.9580(9) 0.8112(7) 0.1970(5)
H9 H 0.9431 0.7592 0.2128
C17 C 1.0509(9) 0.8542(6) 0.2290(5)
C18 C 1.0661(11) 0.9291(7) 0.1989(6)
H10 H 1.1294 0.9608 0.2160
C19 C 1.1259(10) 0.8215(7) 0.2874(5)
C20 C 1.0914(10) 0.7628(7) 0.3287(5)
H11 H 1.0212 0.7477 0.3226
C21 C 1.1598(9) 0.7265(7) 0.3787(6)
H12 H 1.1347 0.6856 0.4044
C22 C 1.2641(10) 0.7484(7) 0.3920(5)
C23 C 1.2970(10) 0.8111(7) 0.3526(5)
H13 H 1.3667 0.8292 0.3614
C24 C 1.2299(9) 0.8468(7) 0.3015(6)
H14 H 1.2546 0.8883 0.2761
C25 C 1.3385(10) 0.7094(7) 0.4452(5)
C26 C 1.3204(10) 0.6297(7) 0.4632(6)
H15 H 1.2572 0.5997 0.4412
C27 C 1.4782(10) 0.6366(7) 0.5388(6)
C28 C 1.4312(10) 0.7493(6) 0.4813(6)
H16 H 1.4461 0.8046 0.4724
C29 C 0.6151(8) 0.8637(6) 0.1272(5)
C30 C 0.5433(5) 0.9284(4) 0.1443(3)
C31 C 0.4922(9) 0.9671(6) 0.0879(5)
H17 H 0.5050 0.9549 0.0394
C32 C 0.4205(6) 1.0251(5) 0.1023(4)
H18 H 0.3874 1.0524 0.0636
C33 C 0.3995(5) 1.0414(4) 0.1725(4)
C34 C 0.4508(8) 1.0011(6) 0.2282(4)
H19 H 0.4368 1.0122 0.2765
C35 C 0.5213(6) 0.9458(4) 0.2157(4)
H20 H 0.5549 0.9196 0.2550
C36 C 0.3268(7) 1.1056(5) 0.1903(5)
Cd1 Cd 0.73715(6) 0.73842(5) 0.08636(4)
N1 N -0.0774(7) 0.8069(6) -0.2585(4)
N2 N 0.0486(7) 0.9001(6) -0.2928(5)
N3 N -0.1197(8) 0.9032(6) -0.3409(5)
N4 N 0.5796(7) 0.6480(5) 0.0558(4)
N5 N 0.4488(7) 0.5467(5) 0.0716(4)
N6 N 0.6105(7) 0.5570(6) 0.1435(5)
N7 N 1.0004(8) 0.9585(6) 0.1498(5)
N8 N 0.8856(7) 0.8368(5) 0.1446(4)
N9 N 0.8391(8) 0.9462(6) 0.0784(5)
N10 N 1.3856(8) 0.5923(6) 0.5092(5)
N11 N 1.5031(8) 0.7168(5) 0.5282(5)
N12 N 1.5474(8) 0.6004(6) 0.5823(5)
O1 O 0.6348(6) 0.8519(4) 0.0621(4)
O2 O 0.6525(4) 0.8208(3) 0.1764(2)
O3 O 0.3157(6) 1.1203(5) 0.2576(4)
O4 O 0.2832(4) 1.1441(3) 0.1396(3)
O5 O 0.7594(4) 0.7480(3) -0.0319(3)
H21 H 0.7412 0.7936 -0.0438
H22 H -0.179(7) 0.888(5) -0.346(4)
H23 H -0.100(6) 0.938(5) -0.365(4)
H24 H 0.8221(17) 0.749(4) -0.026(4)
H25 H 0.781(3) 0.920(4) 0.063(4)
H26 H 0.859(6) 0.987(3) 0.059(4)
H27 H 1.602(4) 0.632(4) 0.601(4)
H28 H 1.532(7) 0.564(4) 0.608(4)
C37 C 1.0462(9) 1.0773(6) 0.5877(5)
C38 C 0.8792(10) 1.0726(7) 0.5270(5)
H29 H 0.8108 1.0507 0.5196
C39 C 0.9038(9) 1.1362(6) 0.4854(5)
C40 C 1.0048(9) 1.1662(6) 0.5002(5)
H30 H 1.0244 1.2082 0.4733
C41 C 0.8237(9) 1.1738(6) 0.4333(5)
C42 C 0.8424(8) 1.2578(7) 0.4222(5)
H31 H 0.9047 1.2883 0.4456
C43 C 0.7695(10) 1.2963(7) 0.3768(6)
H32 H 0.7818 1.3532 0.3715
C44 C 0.6775(8) 1.2507(7) 0.3390(5)
C45 C 0.6617(9) 1.1674(7) 0.3496(6)
H33 H 0.6011 1.1355 0.3245
C46 C 0.7336(9) 1.1299(7) 0.3966(6)
H34 H 0.7201 1.0735 0.4032
C47 C 0.5969(9) 1.2926(6) 0.2919(5)
C48 C 0.6196(9) 1.3609(7) 0.2554(6)
H35 H 0.6881 1.3821 0.2617
C49 C 0.4515(9) 1.3646(7) 0.2048(5)
C50 C 0.4952(8) 1.2675(6) 0.2837(5)
H36 H 0.4766 1.2229 0.3083
C51 C 0.1635(8) 1.3896(7) 0.2219(6)
C52 C 0.0919(5) 1.4531(4) 0.1961(4)
C53 C 0.0570(8) 1.5067(6) 0.2482(5)
H37 H 0.0858 1.5092 0.2991
C54 C -0.0209(6) 1.5577(5) 0.2266(4)
H38 H -0.0465 1.5922 0.2628
C55 C -0.0601(5) 1.5568(4) 0.1512(4)
C56 C -0.0220(8) 1.5049(5) 0.0974(4)
H39 H -0.0467 1.5058 0.0463
C57 C 0.0525(6) 1.4522(4) 0.1198(4)
H40 H 0.0765 1.4159 0.0840
C58 C -0.1402(7) 1.6128(6) 0.1261(5)
Cd2 Cd 0.24897(9) 1.24766(7) 0.25450(6)
N13 N 1.0777(7) 1.1398(5) 0.5507(4)
N14 N 0.9477(8) 1.0423(5) 0.5759(4)
N15 N 1.1155(8) 1.0472(5) 0.6371(5)
N16 N 0.4203(7) 1.3033(5) 0.2422(4)
N17 N 0.5494(8) 1.3971(6) 0.2125(5)
N18 N 0.3793(8) 1.3994(6) 0.1575(4)
O6 O 0.2027(6) 1.3939(5) 0.2887(4)
O7 O 0.1776(4) 1.3312(3) 0.1728(3)
O8 O -0.1558(6) 1.6286(4) 0.0607(4)
O9 O -0.1899(4) 1.6476(3) 0.1733(3)
O10 O 0.2829(4) 1.2604(3) 0.3839(3)
H41 H 0.326(4) 1.237(4) 0.410(3)
H42 H 0.246(5) 1.280(5) 0.413(4)
H43 H 1.172(3) 1.076(4) 0.651(4)
H44 H 1.094(6) 1.014(4) 0.664(3)
C59 C 1.9892(9) 1.1450(7) 1.0362(5)
C60 C 1.9489(8) 1.2526(7) 0.9701(5)
H45 H 1.9680 1.3044 0.9556
C61 C 1.8489(9) 1.2177(7) 0.9440(5)
C62 C 1.8263(9) 1.1429(7) 0.9701(6)
H46 H 1.7595 1.1169 0.9553
C63 C 1.7714(9) 1.2558(7) 0.8912(5)
C64 C 1.7996(9) 1.3162(7) 0.8498(6)
H47 H 1.8684 1.3369 0.8570
C65 C 1.7266(11) 1.3467(7) 0.7972(6)
H48 H 1.7477 1.3884 0.7704
C66 C 1.6230(10) 1.3170(7) 0.7831(5)
C67 C 1.5958(9) 1.2573(7) 0.8270(5)
H49 H 1.5269 1.2373 0.8213
C68 C 1.6696(10) 1.2272(7) 0.8794(5)
H50 H 1.6492 1.1863 0.9071
C69 C 1.5467(9) 1.3467(7) 0.7255(5)
C70 C 1.5641(10) 1.4229(7) 0.7006(6)
H51 H 1.6247 1.4568 0.7221
C71 C 1.4099(9) 1.3978(7) 0.6150(5)
C72 C 1.4571(8) 1.2996(6) 0.6902(5)
H52 H 1.4438 1.2472 0.7056
C73 C 1.1178(8) 1.3624(6) 0.5429(5)
C74 C 1.0571(6) 1.4339(5) 0.5203(4)
C75 C 1.0185(9) 1.4840(7) 0.5723(6)
H53 H 1.0312 1.4739 0.6222
C76 C 1.4828(8) 1.0087(6) 0.5708(4)
H54 H 1.4715 1.0142 0.6199
C77 C 1.4250(5) 1.0506(4) 0.5199(4)
C78 C 1.4431(5) 1.0413(4) 0.4479(4)
H55 H 1.4050 1.0691 0.4117
C79 C 1.0393(8) 1.4502(5) 0.4472(5)
H56 H 1.0661 1.4170 0.4108
C80 C 1.3480(8) 1.1079(5) 0.5424(5)
Cd3 Cd 1.23137(6) 1.23181(5) 0.58671(4)
N19 N 2.0190(7) 1.2175(5) 1.0141(4)
N20 N 1.8955(8) 1.1049(6) 1.0160(5)
N21 N 2.0585(9) 1.1070(6) 1.0801(6)
N22 N 1.3876(7) 1.3226(5) 0.6359(4)
N23 N 1.4966(8) 1.4502(5) 0.6461(5)
N24 N 1.3436(8) 1.4282(6) 0.5615(5)
O11 O 1.1218(6) 1.3446(4) 0.6076(4)
O12 O 1.1604(4) 1.3197(3) 0.4955(3)
O13 O 1.3331(5) 1.1132(4) 0.6089(3)
O14 O 1.3052(4) 1.1528(3) 0.4974(3)
O15 O 1.2185(4) 1.2315(3) 0.7079(2)
H57 H 2.052(7) 1.061(3) 1.095(5)
H58 H 2.120(2) 1.122(5) 1.084(5)
H59 H 1.369(6) 1.462(4) 0.538(4)
H60 H 1.304(5) 1.392(4) 0.531(3)
H61 H 1.250(5) 1.206(4) 0.740(3)
H62 H 1.192(6) 1.269(3) 0.731(3)
C73A C 0.8822(8) 1.6376(6) 0.4571(5)
C74A C 0.9429(6) 1.5661(5) 0.4797(4)
C75A C 0.9815(9) 1.5160(7) 0.4277(6)
H53A H 0.9688 1.5261 0.3778
C79A C 0.9607(8) 1.5498(5) 0.5528(5)
H56A H 0.9339 1.5830 0.5892
O11A O 0.8782(6) 1.6554(4) 0.3924(4)
O12A O 0.8396(4) 1.6803(3) 0.5045(3)
C76A C 1.5172(8) 0.9913(6) 0.4292(4)
H54A H 1.5285 0.9858 0.3801
C77A C 1.5750(5) 0.9494(4) 0.4801(4)
C78A C 1.5569(5) 0.9587(4) 0.5521(4)
H55A H 1.5950 0.9309 0.5883
C80A C 1.6520(8) 0.8921(5) 0.4576(5)
O13A O 1.6669(5) 0.8868(4) 0.3911(3)
O14A O 1.6948(4) 0.8472(3) 0.5026(3)
C1A C 0.0496(9) 1.1308(6) 0.2974(6)
C2A C -0.0012(10) 1.2233(7) 0.2154(5)
H1A H 0.0155 1.2639 0.1861
C3A C -0.1035(9) 1.2003(7) 0.2103(5)
C4A C -0.1227(10) 1.1363(7) 0.2507(6)
H2A H -0.1909 1.1171 0.2489
C5A C -0.1841(9) 1.2404(7) 0.1641(6)
C6A C -0.1697(9) 1.3243(7) 0.1541(5)
H3A H -0.1091 1.3566 0.1788
C7A C -0.2445(9) 1.3619(7) 0.1075(6)
H4A H -0.2335 1.4190 0.1022
C8A C -0.3347(9) 1.3153(7) 0.0691(5)
C9A C -0.3498(10) 1.2320(7) 0.0805(6)
H5A H -0.4103 1.1995 0.0559
C10A C -0.2765(9) 1.1960(7) 0.1278(5)
H6A H -0.2898 1.1400 0.1355
C11A C -0.4110(10) 1.3535(7) 0.0158(5)
C12A C -0.3836(8) 1.4204(7) -0.0203(5)
H7A H -0.3155 1.4438 -0.0081
C13A C -0.5450(8) 1.4143(6) -0.0885(5)
C14A C -0.5122(9) 1.3241(6) -0.0028(5)
H8A H -0.5355 1.2823 0.0229
C15A C -0.9089(9) 1.0871(6) -0.1248(5)
C16A C -0.9580(9) 1.1888(7) -0.1970(5)
H9A H -0.9431 1.2408 -0.2128
C17A C -1.0509(9) 1.1458(6) -0.2290(5)
C18A C -1.0661(11) 1.0709(7) -0.1989(6)
H10A H -1.1294 1.0392 -0.2160
C19A C -1.1259(10) 1.1785(7) -0.2874(5)
C20A C -1.0914(10) 1.2372(7) -0.3287(5)
H11A H -1.0212 1.2523 -0.3226
C21A C -1.1598(9) 1.2735(7) -0.3787(6)
H12A H -1.1347 1.3144 -0.4044
C22A C -1.2641(10) 1.2516(7) -0.3920(5)
C23A C -1.2970(10) 1.1889(7) -0.3526(5)
H13A H -1.3667 1.1708 -0.3614
C24A C -1.2299(9) 1.1532(7) -0.3015(6)
H14A H -1.2546 1.1117 -0.2761
C25A C -1.3385(10) 1.2906(7) -0.4452(5)
C26A C -1.3204(10) 1.3703(7) -0.4632(6)
H15A H -1.2572 1.4003 -0.4412
C27A C -1.4782(10) 1.3634(7) -0.5388(6)
C28A C -1.4312(10) 1.2507(6) -0.4813(6)
H16A H -1.4461 1.1954 -0.4724
C29A C -0.6151(8) 1.1363(6) -0.1272(5)
C30A C -0.5433(5) 1.0716(4) -0.1443(3)
C31A C -0.4922(9) 1.0329(6) -0.0879(5)
H17A H -0.5050 1.0451 -0.0394
C32A C -0.4205(6) 0.9749(5) -0.1023(4)
H18A H -0.3874 0.9476 -0.0636
C33A C -0.3995(5) 0.9586(4) -0.1725(4)
C34A C -0.4508(8) 0.9989(6) -0.2282(4)
H19A H -0.4368 0.9878 -0.2765
C35A C -0.5213(6) 1.0542(4) -0.2157(4)
H20A H -0.5549 1.0804 -0.2550
C36A C -0.3268(7) 0.8944(5) -0.1903(5)
Cd1A Cd -0.73715(6) 1.26158(5) -0.08636(4)
N1A N 0.0774(7) 1.1931(6) 0.2585(4)
N2A N -0.0486(7) 1.0999(6) 0.2928(5)
N3A N 0.1197(8) 1.0968(6) 0.3409(5)
N4A N -0.5796(7) 1.3520(5) -0.0558(4)
N5A N -0.4488(7) 1.4533(5) -0.0716(4)
N6A N -0.6105(7) 1.4430(6) -0.1435(5)
N7A N -1.0004(8) 1.0415(6) -0.1498(5)
N8A N -0.8856(7) 1.1632(5) -0.1446(4)
N9A N -0.8391(8) 1.0538(6) -0.0784(5)
N10A N -1.3856(8) 1.4077(6) -0.5092(5)
N11A N -1.5031(8) 1.2832(5) -0.5282(5)
N12A N -1.5474(8) 1.3996(6) -0.5823(5)
O1A O -0.6348(6) 1.1481(4) -0.0621(4)
O2A O -0.6525(4) 1.1792(3) -0.1764(2)
O3A O -0.3157(6) 0.8797(5) -0.2576(4)
O4A O -0.2832(4) 0.8559(3) -0.1396(3)
O5A O -0.7594(4) 1.2520(3) 0.0319(3)
H21A H -0.7412 1.2064 0.0438
H22A H 0.179(7) 1.112(5) 0.346(4)
H23A H 0.100(6) 1.062(5) 0.365(4)
H24A H -0.8221(17) 1.251(4) 0.026(4)
H25A H -0.781(3) 1.080(4) -0.063(4)
H26A H -0.859(6) 1.013(3) -0.059(4)
H27A H -1.602(4) 1.368(4) -0.601(4)
H28A H -1.532(7) 1.436(4) -0.608(4)
C37A C -1.0462(9) 0.9227(6) -0.5877(5)
C38A C -0.8792(10) 0.9274(7) -0.5270(5)
H29A H -0.8108 0.9493 -0.5196
C39A C -0.9038(9) 0.8638(6) -0.4854(5)
C40A C -1.0048(9) 0.8338(6) -0.5002(5)
H30A H -1.0244 0.7918 -0.4733
C41A C -0.8237(9) 0.8262(6) -0.4333(5)
C42A C -0.8424(8) 0.7422(7) -0.4222(5)
H31A H -0.9047 0.7117 -0.4456
C43A C -0.7695(10) 0.7037(7) -0.3768(6)
H32A H -0.7818 0.6468 -0.3715
C44A C -0.6775(8) 0.7493(7) -0.3390(5)
C45A C -0.6617(9) 0.8326(7) -0.3496(6)
H33A H -0.6011 0.8645 -0.3245
C46A C -0.7336(9) 0.8701(7) -0.3966(6)
H34A H -0.7201 0.9265 -0.4032
C47A C -0.5969(9) 0.7074(6) -0.2919(5)
C48A C -0.6196(9) 0.6391(7) -0.2554(6)
H35A H -0.6881 0.6179 -0.2617
C49A C -0.4515(9) 0.6354(7) -0.2048(5)
C50A C -0.4952(8) 0.7325(6) -0.2837(5)
H36A H -0.4766 0.7771 -0.3083
C51A C -0.1635(8) 0.6104(7) -0.2219(6)
C52A C -0.0919(5) 0.5469(4) -0.1961(4)
C53A C -0.0570(8) 0.4933(6) -0.2482(5)
H37A H -0.0858 0.4908 -0.2991
C54A C 0.0209(6) 0.4423(5) -0.2266(4)
H38A H 0.0465 0.4078 -0.2628
C55A C 0.0601(5) 0.4432(4) -0.1512(4)
C56A C 0.0220(8) 0.4951(5) -0.0974(4)
H39A H 0.0467 0.4942 -0.0463
C57A C -0.0525(6) 0.5478(4) -0.1198(4)
H40A H -0.0765 0.5841 -0.0840
C58A C 0.1402(7) 0.3872(6) -0.1261(5)
Cd2A Cd -0.24897(9) 0.75234(7) -0.25450(6)
N13A N -1.0777(7) 0.8602(5) -0.5507(4)
N14A N -0.9477(8) 0.9577(5) -0.5759(4)
N15A N -1.1155(8) 0.9528(5) -0.6371(5)
N16A N -0.4203(7) 0.6967(5) -0.2422(4)
N17A N -0.5494(8) 0.6029(6) -0.2125(5)
N18A N -0.3793(8) 0.6006(6) -0.1575(4)
O6A O -0.2027(6) 0.6061(5) -0.2887(4)
O7A O -0.1776(4) 0.6688(3) -0.1728(3)
O8A O 0.1558(6) 0.3714(4) -0.0607(4)
O9A O 0.1899(4) 0.3524(3) -0.1733(3)
O10A O -0.2829(4) 0.7396(3) -0.3839(3)
H41A H -0.326(4) 0.763(4) -0.410(3)
H42A H -0.246(5) 0.720(5) -0.413(4)
H43A H -1.172(3) 0.924(4) -0.651(4)
H44A H -1.094(6) 0.986(4) -0.664(3)
C59A C -1.9892(9) 0.8550(7) -1.0362(5)
C60A C -1.9489(8) 0.7474(7) -0.9701(5)
H45A H -1.9680 0.6956 -0.9556
C61A C -1.8489(9) 0.7823(7) -0.9440(5)
C62A C -1.8263(9) 0.8571(7) -0.9701(6)
H46A H -1.7595 0.8831 -0.9553
C63A C -1.7714(9) 0.7442(7) -0.8912(5)
C64A C -1.7996(9) 0.6838(7) -0.8498(6)
H47A H -1.8684 0.6631 -0.8570
C65A C -1.7266(11) 0.6533(7) -0.7972(6)
H48A H -1.7477 0.6116 -0.7704
C66A C -1.6230(10) 0.6830(7) -0.7831(5)
C67A C -1.5958(9) 0.7427(7) -0.8270(5)
H49A H -1.5269 0.7627 -0.8213
C68A C -1.6696(10) 0.7728(7) -0.8794(5)
H50A H -1.6492 0.8137 -0.9071
C69A C -1.5467(9) 0.6533(7) -0.7255(5)
C70A C -1.5641(10) 0.5771(7) -0.7006(6)
H51A H -1.6247 0.5432 -0.7221
C71A C -1.4099(9) 0.6022(7) -0.6150(5)
C72A C -1.4571(8) 0.7004(6) -0.6902(5)
H52A H -1.4438 0.7528 -0.7056
Cd3A Cd -1.23137(6) 0.76819(5) -0.58671(4)
N19A N -2.0190(7) 0.7825(5) -1.0141(4)
N20A N -1.8955(8) 0.8951(6) -1.0160(5)
N21A N -2.0585(9) 0.8930(6) -1.0801(6)
N22A N -1.3876(7) 0.6774(5) -0.6359(4)
N23A N -1.4966(8) 0.5498(5) -0.6461(5)
N24A N -1.3436(8) 0.5718(6) -0.5615(5)
O15A O -1.2185(4) 0.7685(3) -0.7079(2)
H57A H -2.052(7) 0.939(3) -1.095(5)
H58A H -2.120(2) 0.878(5) -1.084(5)
H59A H -1.369(6) 0.538(4) -0.538(4)
H60A H -1.304(5) 0.608(4) -0.531(3)
H61A H -1.250(5) 0.794(4) -0.740(3)
H62A H -1.192(6) 0.731(3) -0.731(3)
Cd1_2 Cd -0.26285(6) 1.73842(5) 0.08636(4)
Cd1A_2 Cd 0.26285(6) 0.26158(5) -0.08636(4)
O8_2 O 0.8442(6) 0.6286(4) 0.0607(4)
O8A_2 O -0.8442(6) 1.3714(4) -0.0607(4)
O9_2 O 0.8101(4) 0.6476(3) 0.1733(3)
O9A_2 O -0.8101(4) 1.3524(3) -0.1733(3)
Cd3A_2 Cd 0.76863(6) 1.76819(5) 0.41329(4)
Cd3A_3 Cd 1.76863(6) 0.76819(5) 0.41329(4)
O11A_2 O -1.1218(6) 0.6554(4) -0.6076(4)
O12A_2 O -1.1604(4) 0.6803(3) -0.4955(3)
O13A_2 O -1.3331(5) 0.8868(4) -0.6089(3)
O14A_2 O -1.3052(4) 0.8472(3) -0.4974(3)
loop_
_geom_bond_atom_site_label_1
_geom_bond_atom_site_label_2
_geom_bond_site_symmetry_1
_geom_bond_site_symmetry_2
C1 N1 1_555 1_555
C2 H1 1_555 1_555
C3 C2 1_555 1_555
C4 C3 1_555 1_555
H2 C4 1_555 1_555
C5 C3 1_555 1_555
C6 C5 1_555 1_555
H3 C6 1_555 1_555
C7 C6 1_555 1_555
H4 C7 1_555 1_555
C8 C7 1_555 1_555
C9 C8 1_555 1_555
H5 C9 1_555 1_555
C10 C5 1_555 1_555
H6 C10 1_555 1_555
C11 C8 1_555 1_555
C12 C11 1_555 1_555
H7 C12 1_555 1_555
C13 N4 1_555 1_555
C14 C11 1_555 1_555
H8 C14 1_555 1_555
C15 N7 1_555 1_555
C16 H9 1_555 1_555
C17 C16 1_555 1_555
C18 C17 1_555 1_555
H10 C18 1_555 1_555
C19 C17 1_555 1_555
C20 C19 1_555 1_555
H11 C20 1_555 1_555
C21 C20 1_555 1_555
H12 C21 1_555 1_555
C22 C21 1_555 1_555
C23 C22 1_555 1_555
H13 C23 1_555 1_555
C24 C19 1_555 1_555
H14 C24 1_555 1_555
C25 C22 1_555 1_555
C26 C25 1_555 1_555
H15 C26 1_555 1_555
C27 N10 1_555 1_555
C28 C25 1_555 1_555
H16 C28 1_555 1_555
C29 C30 1_555 1_555
C30 C31 1_555 1_555
C31 H17 1_555 1_555
C32 C31 1_555 1_555
H18 C32 1_555 1_555
C33 C32 1_555 1_555
C34 C33 1_555 1_555
H19 C34 1_555 1_555
C35 C30 1_555 1_555
H20 C35 1_555 1_555
C36 C33 1_555 1_555
Cd1 N4 1_555 1_555
N1 C2 1_555 1_555
N2 C1 1_555 1_555
N3 C1 1_555 1_555
N4 C14 1_555 1_555
N5 C12 1_555 1_555
N6 C13 1_555 1_555
N7 C18 1_555 1_555
N8 C15 1_555 1_555
N9 C15 1_555 1_555
N10 C26 1_555 1_555
N11 C27 1_555 1_555
N12 C27 1_555 1_555
O1 C29 1_555 1_555
O2 C29 1_555 1_555
O3 C36 1_555 1_555
O4 C36 1_555 1_555
O5 Cd1 1_555 1_555
H21 O5 1_555 1_555
H22 N3 1_555 1_555
H23 N3 1_555 1_555
H24 O5 1_555 1_555
H25 N9 1_555 1_555
H26 N9 1_555 1_555
H27 N12 1_555 1_555
H28 N12 1_555 1_555
C37 N13 1_555 1_555
C38 H29 1_555 1_555
C39 C38 1_555 1_555
C40 C39 1_555 1_555
H30 C40 1_555 1_555
C41 C39 1_555 1_555
C42 C41 1_555 1_555
H31 C42 1_555 1_555
C43 C42 1_555 1_555
H32 C43 1_555 1_555
C44 C43 1_555 1_555
C45 C44 1_555 1_555
H33 C45 1_555 1_555
C46 C41 1_555 1_555
H34 C46 1_555 1_555
C47 C44 1_555 1_555
C48 C47 1_555 1_555
H35 C48 1_555 1_555
C49 N16 1_555 1_555
C50 C47 1_555 1_555
H36 C50 1_555 1_555
C51 C52 1_555 1_555
C52 C53 1_555 1_555
C53 H37 1_555 1_555
C54 C53 1_555 1_555
H38 C54 1_555 1_555
C55 C54 1_555 1_555
C56 C55 1_555 1_555
H39 C56 1_555 1_555
C57 C52 1_555 1_555
H40 C57 1_555 1_555
C58 C55 1_555 1_555
Cd2 O3 1_555 1_555
N13 C40 1_555 1_555
N14 C37 1_555 1_555
N15 C37 1_555 1_555
N16 C50 1_555 1_555
N17 C48 1_555 1_555
N18 C49 1_555 1_555
O6 C51 1_555 1_555
O7 C51 1_555 1_555
O8 C58 1_555 1_555
O9 C58 1_555 1_555
O10 Cd2 1_555 1_555
H41 O10 1_555 1_555
H42 O10 1_555 1_555
H43 N15 1_555 1_555
H44 N15 1_555 1_555
C59 N19 1_555 1_555
C60 H45 1_555 1_555
C61 C60 1_555 1_555
C62 C61 1_555 1_555
H46 C62 1_555 1_555
C63 C61 1_555 1_555
C64 C63 1_555 1_555
H47 C64 1_555 1_555
C65 C64 1_555 1_555
H48 C65 1_555 1_555
C66 C65 1_555 1_555
C67 C66 1_555 1_555
H49 C67 1_555 1_555
C68 C63 1_555 1_555
H50 C68 1_555 1_555
C69 C66 1_555 1_555
C70 C69 1_555 1_555
H51 C70 1_555 1_555
C71 N22 1_555 1_555
C72 C69 1_555 1_555
H52 C72 1_555 1_555
C73 C74 1_555 1_555
C74 C75 1_555 1_555
C75 H53 1_555 1_555
C76 H54 1_555 1_555
C77 C76 1_555 1_555
C78 C77 1_555 1_555
H55 C78 1_555 1_555
C79 C74 1_555 1_555
H56 C79 1_555 1_555
C80 C77 1_555 1_555
Cd3 N13 1_555 1_555
N19 C60 1_555 1_555
N20 C59 1_555 1_555
N21 C59 1_555 1_555
N22 C72 1_555 1_555
N23 C70 1_555 1_555
N24 C71 1_555 1_555
O11 C73 1_555 1_555
O12 C73 1_555 1_555
O13 C80 1_555 1_555
O14 C80 1_555 1_555
O15 Cd3 1_555 1_555
H57 N21 1_555 1_555
H58 N21 1_555 1_555
H59 N24 1_555 1_555
H60 N24 1_555 1_555
H61 O15 1_555 1_555
H62 O15 1_555 1_555
C73A C74A 1_555 1_555
C74A C75A 1_555 1_555
C75A C79 1_555 1_555
H53A C75A 1_555 1_555
C79A C75 1_555 1_555
H56A C79A 1_555 1_555
O11A C73A 1_555 1_555
O12A C73A 1_555 1_555
C76A C78 1_555 1_555
H54A C76A 1_555 1_555
C77A C76A 1_555 1_555
C78A C76 1_555 1_555
H55A C78A 1_555 1_555
C80A C77A 1_555 1_555
O13A C80A 1_555 1_555
O14A C80A 1_555 1_555
C1A N1A 1_555 1_555
C2A H1A 1_555 1_555
C3A C2A 1_555 1_555
C4A C3A 1_555 1_555
H2A C4A 1_555 1_555
C5A C3A 1_555 1_555
C6A C5A 1_555 1_555
H3A C6A 1_555 1_555
C7A C6A 1_555 1_555
H4A C7A 1_555 1_555
C8A C7A 1_555 1_555
C9A C8A 1_555 1_555
H5A C9A 1_555 1_555
C10A C5A 1_555 1_555
H6A C10A 1_555 1_555
C11A C8A 1_555 1_555
C12A C11A 1_555 1_555
H7A C12A 1_555 1_555
C13A N4A 1_555 1_555
C14A C11A 1_555 1_555
H8A C14A 1_555 1_555
C15A N7A 1_555 1_555
C16A H9A 1_555 1_555
C17A C16A 1_555 1_555
C18A C17A 1_555 1_555
H10A C18A 1_555 1_555
C19A C17A 1_555 1_555
C20A C19A 1_555 1_555
H11A C20A 1_555 1_555
C21A C20A 1_555 1_555
H12A C21A 1_555 1_555
C22A C21A 1_555 1_555
C23A C22A 1_555 1_555
H13A C23A 1_555 1_555
C24A C19A 1_555 1_555
H14A C24A 1_555 1_555
C25A C22A 1_555 1_555
C26A C25A 1_555 1_555
H15A C26A 1_555 1_555
C27A N10A 1_555 1_555
C28A C25A 1_555 1_555
H16A C28A 1_555 1_555
C29A C30A 1_555 1_555
C30A C31A 1_555 1_555
C31A H17A 1_555 1_555
C32A C31A 1_555 1_555
H18A C32A 1_555 1_555
C33A C32A 1_555 1_555
C34A C33A 1_555 1_555
H19A C34A 1_555 1_555
C35A C30A 1_555 1_555
H20A C35A 1_555 1_555
C36A C33A 1_555 1_555
Cd1A N4A 1_555 1_555
N1A Cd2 1_555 1_555
N2A C1A 1_555 1_555
N3A C1A 1_555 1_555
N4A C14A 1_555 1_555
N5A C12A 1_555 1_555
N6A C13A 1_555 1_555
N7A C18A 1_555 1_555
N8A C15A 1_555 1_555
N9A C15A 1_555 1_555
N10A C26A 1_555 1_555
N11A C27A 1_555 1_555
N12A C27A 1_555 1_555
O1A C29A 1_555 1_555
O2A C29A 1_555 1_555
O3A C36A 1_555 1_555
O4A C36A 1_555 1_555
O5A Cd1A 1_555 1_555
H21A O5A 1_555 1_555
H22A N3A 1_555 1_555
H23A N3A 1_555 1_555
H24A O5A 1_555 1_555
H25A N9A 1_555 1_555
H26A N9A 1_555 1_555
H27A N12A 1_555 1_555
H28A N12A 1_555 1_555
C37A N13A 1_555 1_555
C38A H29A 1_555 1_555
C39A C38A 1_555 1_555
C40A C39A 1_555 1_555
H30A C40A 1_555 1_555
C41A C39A 1_555 1_555
C42A C41A 1_555 1_555
H31A C42A 1_555 1_555
C43A C42A 1_555 1_555
H32A C43A 1_555 1_555
C44A C43A 1_555 1_555
C45A C44A 1_555 1_555
H33A C45A 1_555 1_555
C46A C41A 1_555 1_555
H34A C46A 1_555 1_555
C47A C44A 1_555 1_555
C48A C47A 1_555 1_555
H35A C48A 1_555 1_555
C49A N16A 1_555 1_555
C50A C47A 1_555 1_555
H36A C50A 1_555 1_555
C51A C52A 1_555 1_555
C52A C53A 1_555 1_555
C53A H37A 1_555 1_555
C54A C53A 1_555 1_555
H38A C54A 1_555 1_555
C55A C54A 1_555 1_555
C56A C55A 1_555 1_555
H39A C56A 1_555 1_555
C57A C52A 1_555 1_555
H40A C57A 1_555 1_555
C58A C55A 1_555 1_555
Cd2A N1 1_555 1_555
N13A C40A 1_555 1_555
N14A C37A 1_555 1_555
N15A C37A 1_555 1_555
N16A C50A 1_555 1_555
N17A C48A 1_555 1_555
N18A C49A 1_555 1_555
O6A C51A 1_555 1_555
O7A C51A 1_555 1_555
O8A C58A 1_555 1_555
O9A C58A 1_555 1_555
O10A Cd2A 1_555 1_555
H41A O10A 1_555 1_555
H42A O10A 1_555 1_555
H43A N15A 1_555 1_555
H44A N15A 1_555 1_555
C59A N19A 1_555 1_555
C60A H45A 1_555 1_555
C61A C60A 1_555 1_555
C62A C61A 1_555 1_555
H46A C62A 1_555 1_555
C63A C61A 1_555 1_555
C64A C63A 1_555 1_555
H47A C64A 1_555 1_555
C65A C64A 1_555 1_555
H48A C65A 1_555 1_555
C66A C65A 1_555 1_555
C67A C66A 1_555 1_555
H49A C67A 1_555 1_555
C68A C63A 1_555 1_555
H50A C68A 1_555 1_555
C69A C66A 1_555 1_555
C70A C69A 1_555 1_555
H51A C70A 1_555 1_555
C71A N22A 1_555 1_555
C72A C69A 1_555 1_555
H52A C72A 1_555 1_555
Cd3A N13A 1_555 1_555
N19A C60A 1_555 1_555
N20A C59A 1_555 1_555
N21A C59A 1_555 1_555
N22A C72A 1_555 1_555
N23A C70A 1_555 1_555
N24A C71A 1_555 1_555
O15A Cd3A 1_555 1_555
H57A N21A 1_555 1_555
H58A N21A 1_555 1_555
H59A N24A 1_555 1_555
H60A N24A 1_555 1_555
H61A O15A 1_555 1_555
H62A O15A 1_555 1_555
Cd1_2 O8 1_555 1_555
Cd1A_2 O8A 1_555 1_555
O8_2 Cd1 1_555 1_555
O8A_2 Cd1A 1_555 1_555
O9_2 Cd1 1_555 1_555
O9A_2 Cd1A 1_555 1_555
Cd3A_2 O11A 1_555 1_555
Cd3A_3 O13A 1_555 1_555
O11A_2 Cd3A 1_555 1_555
O12A_2 Cd3A 1_555 1_555
O13A_2 Cd3A 1_555 1_555
O14A_2 Cd3A 1_555 1_555
C4 N2 1_555 1_555
C9 C10 1_555 1_555
C13 N5 1_555 1_555
C16 N8 1_555 1_555
C23 C24 1_555 1_555
C28 N11 1_555 1_555
C34 C35 1_555 1_555
Cd1 N8 1_555 1_555
Cd1 O1 1_555 1_555
Cd1 O2 1_555 1_555
O4 Cd2 1_555 1_555
C38 N14 1_555 1_555
C45 C46 1_555 1_555
C49 N17 1_555 1_555
C56 C57 1_555 1_555
Cd2 N16 1_555 1_555
Cd2 O6 1_555 1_555
Cd2 O7 1_555 1_555
O9 Cd1_2 1_555 1_555
C62 N20 1_555 1_555
C67 C68 1_555 1_555
C71 N23 1_555 1_555
Cd3 N22 1_555 1_555
Cd3 O11 1_555 1_555
Cd3 O12 1_555 1_555
Cd3 O13 1_555 1_555
Cd3 O14 1_555 1_555
C74A C79A 1_555 1_555
O12A Cd3A_2 1_555 1_555
C77A C78A 1_555 1_555
O14A Cd3A_3 1_555 1_555
C2A N1A 1_555 1_555
C4A N2A 1_555 1_555
C9A C10A 1_555 1_555
C13A N5A 1_555 1_555
C16A N8A 1_555 1_555
C23A C24A 1_555 1_555
C28A N11A 1_555 1_555
C34A C35A 1_555 1_555
Cd1A N8A 1_555 1_555
Cd1A O1A 1_555 1_555
Cd1A O2A 1_555 1_555
O3A Cd2A 1_555 1_555
O4A Cd2A 1_555 1_555
C38A N14A 1_555 1_555
C45A C46A 1_555 1_555
C49A N17A 1_555 1_555
C56A C57A 1_555 1_555
Cd2A N16A 1_555 1_555
Cd2A O6A 1_555 1_555
Cd2A O7A 1_555 1_555
O9A Cd1A_2 1_555 1_555
C62A N20A 1_555 1_555
C67A C68A 1_555 1_555
C71A N23A 1_555 1_555
Cd3A N22A 1_555 1_555

#END
