
#######################################################################
#
#                 Cambridge Crystallographic Data Centre
#                                CCDC 
#
#######################################################################
#
# If this CIF has been generated from an entry in the Cambridge 
# Structural Database, then it will include bibliographic, chemical, 
# crystal, experimental, refinement or atomic coordinate data resulting 
# from the CCDC's data processing and validation procedures.
#
#######################################################################

data_PUGCIF
_symmetry_cell_setting           monoclinic
_symmetry_space_group_name_H-M   'P 2/c'
_symmetry_Int_Tables_number      13
_space_group_name_Hall           '-P 2yc'
loop_
_symmetry_equiv_pos_site_id
_symmetry_equiv_pos_as_xyz
1 x,y,z
2 -x,y,1/2-z
3 -x,-y,-z
4 x,-y,1/2+z
_cell_length_a                   10.5714(13)
_cell_length_b                   8.7185(9)
_cell_length_c                   18.318(2)
_cell_angle_alpha                90
_cell_angle_beta                 96.235(10)
_cell_angle_gamma                90
_cell_volume                     1678.32
loop_
_atom_site_label
_atom_site_type_symbol
_atom_site_fract_x
_atom_site_fract_y
_atom_site_fract_z
C1 C 0.4686(3) 0.6532(4) 0.0714(2)
C2 C 0.3246(3) 0.4717(4) 0.0985(2)
H1 H 0.2941 0.4034 0.1322
C3 C 0.2635(3) 0.4747(4) 0.0280(2)
C4 C 0.3164(3) 0.5749(4) -0.0194(2)
H2 H 0.2787 0.5810 -0.0682
C5 C 0.1505(3) 0.3783(4) 0.0048(2)
C6 C 0.0727(3) 0.3257(4) 0.0560(2)
H3 H 0.0919 0.3518 0.1057
C7 C -0.0325(3) 0.2356(4) 0.0348(2)
H4 H -0.0835 0.2018 0.0705
C8 C -0.0648(3) 0.1939(4) -0.0382(2)
C9 C 0.0135(3) 0.2472(4) -0.0896(2)
H5 H -0.0062 0.2219 -0.1394
C10 C 0.1193(3) 0.3363(4) -0.0686(2)
H6 H 0.1710 0.3692 -0.1042
C11 C -0.1801(3) 0.1012(4) -0.0611(2)
C12 C -0.2380(4) 0.0092(4) -0.0123(2)
H7 H -0.1995 0.0034 0.0364
C13 C -0.3937(3) -0.0632(4) -0.1012(2)
C14 C -0.2419(3) 0.1053(4) -0.1310(2)
H8 H -0.2085 0.1658 -0.1668
C15 C 0.7569(4) 0.4586(6) 0.2343(2)
C16 C 1.0000 0.4541(8) 0.2500
H9 H 1.0000 0.5619 0.2500
C17 C 0.8851(4) 0.3750(6) 0.2408(2)
C18 C 0.8856(4) 0.2161(6) 0.2412(3)
H10 H 0.8084 0.1618 0.2355
C19 C 1.0000 0.1373(8) 0.2500
H11 H 1.0000 0.0295 0.2500
Cd1 Cd 0.5000 0.54503(5) 0.2500
N1 N 0.4248(3) 0.5599(3) 0.12203(17)
N2 N 0.4167(3) 0.6622(3) 0.00036(17)
N3 N 0.57366(12) 0.74202(16) 0.08809(8)
H12 H 0.5994 0.7878 0.0534
H13 H 0.6122 0.7329 0.1354
N4 N -0.34369(12) -0.07070(16) -0.02952(8)
N5 N -0.35100(12) 0.02316(16) -0.14982(8)
N6 N -0.50095(12) -0.14852(16) -0.11885(8)
H14 H -0.5244 -0.2240 -0.0810
H15 H -0.5236 -0.1729 -0.1698
O1 O 0.65784(12) 0.37729(16) 0.23088(8)
H16 H 0.5436 0.8596 0.2761
O2 O 0.75673(12) 0.60183(16) 0.23414(8)
O3 O 0.50000(12) 0.80489(16) 0.25000(8)
C15A C 1.2431(4) 0.4586(6) 0.2657(2)
C17A C 1.1149(4) 0.3750(6) 0.2592(2)
C18A C 1.1144(4) 0.2161(6) 0.2588(3)
H10A H 1.1916 0.1618 0.2645
O1A O 1.34216(12) 0.37729(16) 0.26912(8)
O2A O 1.24327(12) 0.60183(16) 0.26586(8)
H16A H 0.4564 0.8596 0.2239
C1A C 0.5314(3) 0.6532(4) 0.4286(2)
C2A C 0.6754(3) 0.4717(4) 0.4015(2)
H1A H 0.7059 0.4034 0.3678
C3A C 0.7365(3) 0.4747(4) 0.4720(2)
C4A C 0.6836(3) 0.5749(4) 0.5194(2)
H2A H 0.7213 0.5810 0.5682
C5A C 0.8495(3) 0.3783(4) 0.4952(2)
C6A C 0.9273(3) 0.3257(4) 0.4440(2)
H3A H 0.9081 0.3518 0.3943
C7A C 1.0325(3) 0.2356(4) 0.4652(2)
H4A H 1.0835 0.2018 0.4295
C8A C 1.0648(3) 0.1939(4) 0.5382(2)
C9A C 0.9865(3) 0.2472(4) 0.5896(2)
H5A H 1.0062 0.2219 0.6394
C10A C 0.8807(3) 0.3363(4) 0.5686(2)
H6A H 0.8290 0.3692 0.6042
C11A C 1.1801(3) 0.1012(4) 0.5611(2)
C12A C 1.2380(4) 0.0092(4) 0.5123(2)
H7A H 1.1995 0.0034 0.4636
C13A C 1.3937(3) -0.0632(4) 0.6012(2)
C14A C 1.2419(3) 0.1053(4) 0.6310(2)
H8A H 1.2085 0.1658 0.6668
N1A N 0.5752(3) 0.5599(3) 0.37797(17)
N2A N 0.5833(3) 0.6622(3) 0.49964(17)
N3A N 0.42634(12) 0.74202(16) 0.41191(8)
H12A H 0.4006 0.7878 0.4466
H13A H 0.3878 0.7329 0.3646
N4A N 1.34369(12) -0.07070(16) 0.52952(8)
N5A N 1.35100(12) 0.02316(16) 0.64982(8)
N6A N 1.50095(12) -0.14852(16) 0.61885(8)
H14A H 1.5244 -0.2240 0.5810
H15A H 1.5236 -0.1729 0.6698
Cd1_2 Cd 1.5000 0.54503(5) 0.2500
O1A_2 O 0.34216(12) 0.37729(16) 0.26912(8)
O2A_2 O 0.24327(12) 0.60183(16) 0.26586(8)
loop_
_geom_bond_atom_site_label_1
_geom_bond_atom_site_label_2
_geom_bond_site_symmetry_1
_geom_bond_site_symmetry_2
C1 N1 1_555 1_555
C2 H1 1_555 1_555
C3 C2 1_555 1_555
C4 C3 1_555 1_555
H2 C4 1_555 1_555
C5 C3 1_555 1_555
C6 C5 1_555 1_555
H3 C6 1_555 1_555
C7 C6 1_555 1_555
H4 C7 1_555 1_555
C8 C7 1_555 1_555
C9 C8 1_555 1_555
H5 C9 1_555 1_555
C10 C5 1_555 1_555
H6 C10 1_555 1_555
C11 C8 1_555 1_555
C12 C11 1_555 1_555
H7 C12 1_555 1_555
C13 N4 1_555 1_555
C14 C11 1_555 1_555
H8 C14 1_555 1_555
C15 C17 1_555 1_555
C16 H9 1_555 1_555
C17 C16 1_555 1_555
C18 C17 1_555 1_555
H10 C18 1_555 1_555
C19 C18 1_555 1_555
H11 C19 1_555 1_555
Cd1 N1 1_555 1_555
N1 C2 1_555 1_555
N2 C1 1_555 1_555
N3 C1 1_555 1_555
H12 N3 1_555 1_555
H13 N3 1_555 1_555
N4 C12 1_555 1_555
N5 C13 1_555 1_555
N6 C13 1_555 1_555
H14 N6 1_555 1_555
H15 N6 1_555 1_555
O1 C15 1_555 1_555
H16 O3 1_555 1_555
O2 C15 1_555 1_555
O3 Cd1 1_555 1_555
C15A C17A 1_555 1_555
C17A C16 1_555 1_555
C18A C19 1_555 1_555
H10A C18A 1_555 1_555
O1A C15A 1_555 1_555
O2A C15A 1_555 1_555
H16A O3 1_555 1_555
C1A N1A 1_555 1_555
C2A H1A 1_555 1_555
C3A C2A 1_555 1_555
C4A C3A 1_555 1_555
H2A C4A 1_555 1_555
C5A C3A 1_555 1_555
C6A C5A 1_555 1_555
H3A C6A 1_555 1_555
C7A C6A 1_555 1_555
H4A C7A 1_555 1_555
C8A C7A 1_555 1_555
C9A C8A 1_555 1_555
H5A C9A 1_555 1_555
C10A C5A 1_555 1_555
H6A C10A 1_555 1_555
C11A C8A 1_555 1_555
C12A C11A 1_555 1_555
H7A C12A 1_555 1_555
C13A N4A 1_555 1_555
C14A C11A 1_555 1_555
H8A C14A 1_555 1_555
N1A Cd1 1_555 1_555
N2A C1A 1_555 1_555
N3A C1A 1_555 1_555
H12A N3A 1_555 1_555
H13A N3A 1_555 1_555
N4A C12A 1_555 1_555
N5A C13A 1_555 1_555
N6A C13A 1_555 1_555
H14A N6A 1_555 1_555
H15A N6A 1_555 1_555
Cd1_2 O1A 1_555 1_555
O1A_2 Cd1 1_555 1_555
O2A_2 Cd1 1_555 1_555
C4 N2 1_555 1_555
C9 C10 1_555 1_555
C14 N5 1_555 1_555
Cd1 O1 1_555 1_555
Cd1 O2 1_555 1_555
C17A C18A 1_555 1_555
O2A Cd1_2 1_555 1_555
C2A N1A 1_555 1_555
C4A N2A 1_555 1_555
C9A C10A 1_555 1_555
C14A N5A 1_555 1_555

#END
