
#######################################################################
#
#                 Cambridge Crystallographic Data Centre
#                                CCDC 
#
#######################################################################
#
# If this CIF has been generated from an entry in the Cambridge 
# Structural Database, then it will include bibliographic, chemical, 
# crystal, experimental, refinement or atomic coordinate data resulting 
# from the CCDC's data processing and validation procedures.
#
#######################################################################

data_PUGCAX
_symmetry_cell_setting           triclinic
_symmetry_space_group_name_H-M   'P -1'
_symmetry_Int_Tables_number      2
_space_group_name_Hall           '-P 1'
loop_
_symmetry_equiv_pos_site_id
_symmetry_equiv_pos_as_xyz
1 x,y,z
2 -x,-y,-z
_cell_length_a                   8.062(5)
_cell_length_b                   10.585(10)
_cell_length_c                   13.759(15)
_cell_angle_alpha                68.01(8)
_cell_angle_beta                 75.44(7)
_cell_angle_gamma                71.43(6)
_cell_volume                     1020.31
loop_
_atom_site_label
_atom_site_type_symbol
_atom_site_fract_x
_atom_site_fract_y
_atom_site_fract_z
C1 C 0.7714(9) 0.7541(6) 0.3804(5)
C2 C 0.7350(10) 0.7602(6) 0.2196(5)
H1 H 0.7160 0.7153 0.1765
C3 C 0.7507(9) 0.8994(6) 0.1711(4)
C4 C 0.7732(9) 0.9583(6) 0.2413(4)
H2 H 0.7840 1.0526 0.2138
C5 C 0.7418(9) 0.9746(6) 0.0583(5)
C6 C 0.8207(10) 0.9049(7) -0.0171(5)
H3 H 0.8813 0.8083 0.0059
C7 C 0.8126(10) 0.9727(7) -0.1235(5)
H4 H 0.8666 0.9219 -0.1722
C8 C 0.7260(9) 1.1154(6) -0.1610(5)
C9 C 0.6469(10) 1.1845(7) -0.0858(5)
H5 H 0.5859 1.2811 -0.1086
C10 C 0.6553(10) 1.1157(6) 0.0211(5)
H6 H 0.6007 1.1662 0.0700
C11 C 0.7204(9) 1.1879(6) -0.2749(5)
C12 C 0.6922(8) 1.1254(6) -0.3400(4)
H7 H 0.6754 1.0329 -0.3086
C13 C 0.7056(9) 1.3223(6) -0.4851(4)
C14 C 0.7460(10) 1.3225(6) -0.3265(5)
H8 H 0.7699 1.3687 -0.2861
C15 C 0.5493(9) 0.8042(6) 0.6669(4)
C16 C 0.6829(9) 0.7054(6) 0.7405(4)
C17 C 0.6223(10) 0.6006(7) 0.8274(5)
H9 H 0.5044 0.5938 0.8360
C18 C 0.7293(11) 0.5076(7) 0.9004(5)
H10 H 0.6855 0.4369 0.9586
C19 C 0.9008(11) 0.5162(7) 0.8896(5)
H11 H 0.9756 0.4506 0.9396
C20 C 0.9630(10) 0.6201(7) 0.8065(5)
H12 H 1.0800 0.6271 0.8005
C21 C 0.8559(9) 0.7162(6) 0.7300(4)
C22 C 0.9464(8) 0.8203(6) 0.6409(5)
Cd1 Cd 0.74123(6) 1.03738(4) 0.44934(3)
N1 N 0.7804(7) 0.8904(5) 0.3440(4)
N2 N 0.7447(8) 0.6875(5) 0.3199(4)
N3 N 0.7882(9) 0.6811(6) 0.4812(4)
N4 N 0.6873(7) 1.1874(5) -0.4443(4)
N5 N 0.7389(8) 1.3900(5) -0.4287(4)
N6 N 0.6944(8) 1.3917(5) -0.5874(4)
O1 O 0.5727(6) 0.9194(4) 0.6013(3)
O2 O 0.4084(7) 0.7676(5) 0.6793(4)
O3 O 0.9313(6) 0.8421(4) 0.5466(3)
O4 O 1.0358(6) 0.8754(5) 0.6684(3)
H13 H 0.781(10) 0.606(9) 0.506(6)
H14 H 0.834(10) 0.707(8) 0.520(6)
H15 H 0.694(10) 1.482(8) -0.615(6)
H16 H 0.655(10) 1.355(8) -0.620(6)
Cd1_2 Cd 0.74123(6) 1.03738(4) -0.55066(3)
Cd1A Cd 0.25877(6) 0.96262(4) 0.55066(3)
Cd1A_2 Cd 1.25877(6) 0.96262(4) 0.55066(3)
N4_2 N 0.6873(7) 1.1874(5) 0.5557(4)
O1A O 0.4273(6) 1.0806(4) 0.3987(3)
O2A O 0.5916(7) 1.2324(5) 0.3207(4)
O4A O 0.9642(6) 1.1246(5) 0.3316(3)
loop_
_geom_bond_atom_site_label_1
_geom_bond_atom_site_label_2
_geom_bond_site_symmetry_1
_geom_bond_site_symmetry_2
C1 N1 1_555 1_555
C2 H1 1_555 1_555
C3 C2 1_555 1_555
C4 C3 1_555 1_555
H2 C4 1_555 1_555
C5 C3 1_555 1_555
C6 C5 1_555 1_555
H3 C6 1_555 1_555
C7 C6 1_555 1_555
H4 C7 1_555 1_555
C8 C7 1_555 1_555
C9 C8 1_555 1_555
H5 C9 1_555 1_555
C10 C5 1_555 1_555
H6 C10 1_555 1_555
C11 C8 1_555 1_555
C12 C11 1_555 1_555
H7 C12 1_555 1_555
C13 N4 1_555 1_555
C14 C11 1_555 1_555
H8 C14 1_555 1_555
C15 C16 1_555 1_555
C16 C17 1_555 1_555
C17 H9 1_555 1_555
C18 C17 1_555 1_555
H10 C18 1_555 1_555
C19 C18 1_555 1_555
H11 C19 1_555 1_555
C20 C19 1_555 1_555
H12 C20 1_555 1_555
C21 C16 1_555 1_555
C22 C21 1_555 1_555
Cd1 N1 1_555 1_555
N1 C4 1_555 1_555
N2 C1 1_555 1_555
N3 C1 1_555 1_555
N4 C12 1_555 1_555
N5 C13 1_555 1_555
N6 C13 1_555 1_555
O1 C15 1_555 1_555
O2 C15 1_555 1_555
O3 C22 1_555 1_555
O4 C22 1_555 1_555
H13 N3 1_555 1_555
H14 N3 1_555 1_555
H15 N6 1_555 1_555
H16 N6 1_555 1_555
Cd1_2 N4 1_555 1_555
Cd1A O1 1_555 1_555
Cd1A_2 O4 1_555 1_555
N4_2 Cd1 1_555 1_555
O1A Cd1 1_555 1_555
O2A Cd1 1_555 1_555
O4A Cd1 1_555 1_555
C2 N2 1_555 1_555
C9 C10 1_555 1_555
C14 N5 1_555 1_555
C20 C21 1_555 1_555
Cd1 O1 1_555 1_555
Cd1 O3 1_555 1_555
O2 Cd1A 1_555 1_555
Cd1A O1A 1_555 1_555

#END
