
#######################################################################
#
#                 Cambridge Crystallographic Data Centre
#                                CCDC 
#
#######################################################################
#
# If this CIF has been generated from an entry in the Cambridge 
# Structural Database, then it will include bibliographic, chemical, 
# crystal, experimental, refinement or atomic coordinate data resulting 
# from the CCDC's data processing and validation procedures.
#
#######################################################################

data_PUGDOM
_symmetry_cell_setting           monoclinic
_symmetry_space_group_name_H-M   'P 21/c'
_symmetry_Int_Tables_number      14
_space_group_name_Hall           '-P 2ybc'
loop_
_symmetry_equiv_pos_site_id
_symmetry_equiv_pos_as_xyz
1 x,y,z
2 -x,1/2+y,1/2-z
3 -x,-y,-z
4 x,1/2-y,1/2+z
_cell_length_a                   10.195(2)
_cell_length_b                   12.0920(18)
_cell_length_c                   11.544(3)
_cell_angle_alpha                90
_cell_angle_beta                 92.321(19)
_cell_angle_gamma                90
_cell_volume                     1421.95
loop_
_atom_site_label
_atom_site_type_symbol
_atom_site_fract_x
_atom_site_fract_y
_atom_site_fract_z
C1 C 0.6088(7) 0.6562(7) 0.4130(6)
C2 C 0.4727(7) 0.6818(7) 0.3648(6)
C3 C 0.3645(6) 0.6502(7) 0.4290(5)
H1 H 0.3789(12) 0.606(3) 0.497(5)
C4 C 0.2377(6) 0.6813(7) 0.3960(6)
C5 C 0.2182(7) 0.7462(7) 0.2975(7)
H2 H 0.1336 0.7718 0.2762
C6 C 0.3235(7) 0.7731(8) 0.2307(6)
H3 H 0.3089 0.8132 0.1616
C7 C 0.4483(7) 0.7420(7) 0.2641(6)
H4 H 0.5186 0.7618 0.2181
C8 C 0.1198(5) 0.6452(8) 0.4634(6)
C9 C 0.9668(7) 0.5028(8) 0.7621(6)
H5 H 1.0450 0.5038 0.7216
C10 C 0.7543(7) 0.5535(7) 0.7727(6)
H6 H 0.6799 0.5903 0.7410
C11 C 0.7431(7) 0.5011(7) 0.8782(6)
C12 C 0.8562(7) 0.4483(7) 0.9194(6)
H7 H 0.8541 0.4097 0.9900
C13 C 0.6173(7) 0.5010(7) 0.9411(6)
C14 C 0.4974(7) 0.5057(7) 0.8801(6)
H8 H 0.4947 0.5090 0.7986
C15 C 0.6183(7) 0.4944(8) 1.0613(6)
H9 H 0.6990 0.4900 1.1034
Cd1 Cd 0.84607(5) 0.62480(6) 0.52409(5)
N1 N 0.8627(5) 0.5554(6) 0.7129(5)
N2 N 0.9695(6) 0.4498(6) 0.8624(5)
O1 O 0.6228(4) 0.6203(6) 0.5152(4)
O2 O 0.7057(4) 0.6727(5) 0.3501(4)
O3 O 0.0154(5) 0.7001(5) 0.4439(4)
O4 O 0.1302(5) 0.5659(5) 0.5323(4)
O5 O 0.8200(5) 0.7942(5) 0.6248(5)
C9B C 0.0332(7) 0.4972(8) 1.2379(6)
H5B H -0.0450 0.4962 1.2784
C10B C 0.2457(7) 0.4465(7) 1.2273(6)
H6B H 0.3201 0.4097 1.2590
C11B C 0.2569(7) 0.4989(7) 1.1218(6)
C12B C 0.1438(7) 0.5517(7) 1.0806(6)
H7B H 0.1459 0.5903 1.0100
C13B C 0.3827(7) 0.4990(7) 1.0589(6)
C14B C 0.5026(7) 0.4943(7) 1.1199(6)
H8B H 0.5053 0.4910 1.2014
C15B C 0.3817(7) 0.5056(8) 0.9387(6)
H9B H 0.3010 0.5100 0.8966
N1B N 0.1373(5) 0.4446(6) 1.2871(5)
N2B N 0.0305(6) 0.5502(6) 1.1376(5)
C1B C 0.3912(7) 0.3438(7) 0.5870(6)
C2B C 0.5273(7) 0.3182(7) 0.6352(6)
C3B C 0.6355(6) 0.3498(7) 0.5710(5)
H1B H 0.6211(12) 0.394(3) 0.503(5)
C4B C 0.7623(6) 0.3187(7) 0.6040(6)
C5B C 0.7818(7) 0.2538(7) 0.7025(7)
H2B H 0.8664 0.2282 0.7238
C6B C 0.6765(7) 0.2269(8) 0.7693(6)
H3B H 0.6911 0.1868 0.8384
C7B C 0.5517(7) 0.2580(7) 0.7359(6)
H4B H 0.4814 0.2382 0.7819
C8B C 0.8802(5) 0.3548(8) 0.5366(6)
Cd1B Cd 0.15393(5) 0.37520(6) 0.47591(5)
O1B O 0.3772(4) 0.3797(6) 0.4848(4)
O2B O 0.2943(4) 0.3273(5) 0.6499(4)
O3B O 0.9846(5) 0.2999(5) 0.5561(4)
O4B O 0.8698(5) 0.4341(5) 0.4677(4)
O5B O 0.1800(5) 0.2058(5) 0.3752(5)
Cd1_2 Cd -0.15393(5) 0.62480(6) 0.52409(5)
Cd1B_2 Cd 0.15393(5) 0.37520(6) 1.47591(5)
Cd1B_3 Cd 1.15393(5) 0.37520(6) 0.47591(5)
N1B_2 N 0.1373(5) 0.4446(6) 0.2871(5)
O3_2 O 1.0154(5) 0.7001(5) 0.4439(4)
O3B_2 O -0.0154(5) 0.2999(5) 0.5561(4)
loop_
_geom_bond_atom_site_label_1
_geom_bond_atom_site_label_2
_geom_bond_site_symmetry_1
_geom_bond_site_symmetry_2
C1 C2 1_555 1_555
C2 C3 1_555 1_555
C3 H1 1_555 1_555
C4 C3 1_555 1_555
C5 C4 1_555 1_555
H2 C5 1_555 1_555
C6 C5 1_555 1_555
H3 C6 1_555 1_555
C7 C2 1_555 1_555
H4 C7 1_555 1_555
C8 C4 1_555 1_555
C9 H5 1_555 1_555
C10 H6 1_555 1_555
C11 C10 1_555 1_555
C12 C11 1_555 1_555
H7 C12 1_555 1_555
C13 C11 1_555 1_555
C14 C13 1_555 1_555
H8 C14 1_555 1_555
C15 C13 1_555 1_555
H9 C15 1_555 1_555
Cd1 N1 1_555 1_555
N1 C9 1_555 1_555
N2 C9 1_555 1_555
O1 C1 1_555 1_555
O2 C1 1_555 1_555
O3 C8 1_555 1_555
O4 C8 1_555 1_555
O5 Cd1 1_555 1_555
C9B H5B 1_555 1_555
C10B H6B 1_555 1_555
C11B C10B 1_555 1_555
C12B C11B 1_555 1_555
H7B C12B 1_555 1_555
C13B C11B 1_555 1_555
C14B C15 1_555 1_555
H8B C14B 1_555 1_555
C15B C14 1_555 1_555
H9B C15B 1_555 1_555
N1B C9B 1_555 1_555
N2B C9B 1_555 1_555
C1B C2B 1_555 1_555
C2B C3B 1_555 1_555
C3B H1B 1_555 1_555
C4B C3B 1_555 1_555
C5B C4B 1_555 1_555
H2B C5B 1_555 1_555
C6B C5B 1_555 1_555
H3B C6B 1_555 1_555
C7B C2B 1_555 1_555
H4B C7B 1_555 1_555
C8B C4B 1_555 1_555
Cd1B O4 1_555 1_555
O1B C1B 1_555 1_555
O2B C1B 1_555 1_555
O3B C8B 1_555 1_555
O4B Cd1 1_555 1_555
O5B Cd1B 1_555 1_555
Cd1_2 O3 1_555 1_555
Cd1B_2 N1B 1_555 1_555
Cd1B_3 O3B 1_555 1_555
N1B_2 Cd1B 1_555 1_555
O3_2 Cd1 1_555 1_555
O3B_2 Cd1B 1_555 1_555
C6 C7 1_555 1_555
C10 N1 1_555 1_555
C12 N2 1_555 1_555
Cd1 O1 1_555 1_555
Cd1 O2 1_555 1_555
C10B N1B 1_555 1_555
C12B N2B 1_555 1_555
C13B C14B 1_555 1_555
C13B C15B 1_555 1_555
C6B C7B 1_555 1_555
C8B O4B 1_555 1_555
Cd1B O1B 1_555 1_555
Cd1B O2B 1_555 1_555

#END
