
#######################################################################
#
#                 Cambridge Crystallographic Data Centre
#                                CCDC 
#
#######################################################################
#
# If this CIF has been generated from an entry in the Cambridge 
# Structural Database, then it will include bibliographic, chemical, 
# crystal, experimental, refinement or atomic coordinate data resulting 
# from the CCDC's data processing and validation procedures.
#
#######################################################################

data_PUGDEC
_symmetry_cell_setting           monoclinic
_symmetry_space_group_name_H-M   'C 2/c'
_symmetry_Int_Tables_number      15
_space_group_name_Hall           '-C 2yn'
loop_
_symmetry_equiv_pos_site_id
_symmetry_equiv_pos_as_xyz
1 x,y,z
2 -x,y,1/2-z
3 1/2+x,1/2+y,z
4 1/2-x,1/2+y,1/2-z
5 -x,-y,-z
6 x,-y,1/2+z
7 1/2-x,1/2-y,-z
8 1/2+x,1/2-y,1/2+z
_cell_length_a                   24.951(3)
_cell_length_b                   7.5167(6)
_cell_length_c                   20.373(2)
_cell_angle_alpha                90
_cell_angle_beta                 97.103(9)
_cell_angle_gamma                90
_cell_volume                     3791.62
loop_
_atom_site_label
_atom_site_type_symbol
_atom_site_fract_x
_atom_site_fract_y
_atom_site_fract_z
C1 C 0.33017(15) 0.5841(5) 0.35797(18)
C2 C 0.35165(15) 0.5095(5) 0.42554(17)
C3 C 0.40222(16) 0.5623(5) 0.45573(18)
H1 H 0.4241 0.6383 0.4329
C4 C 0.42088(16) 0.5033(5) 0.51975(19)
H2 H 0.4556 0.5383 0.5402
C5 C 0.38817(16) 0.3923(5) 0.55374(18)
C6 C 0.33825(16) 0.3380(5) 0.52273(18)
H3 H 0.3162 0.2625 0.5455
C7 C 0.31988(15) 0.3932(5) 0.45809(19)
H4 H 0.2862 0.3521 0.4366
C8 C 0.40854(16) 0.3341(5) 0.62388(18)
C9 C 0.26048(14) 0.5935(5) 0.63212(17)
C10 C 0.25566(14) 0.6742(5) 0.56355(16)
C11 C 0.29136(14) 0.8082(5) 0.54803(17)
H5 H 0.3194 0.8478 0.5806
C12 C 0.21439(15) 0.6172(5) 0.51511(18)
H6 H 0.1901 0.5268 0.5254
C13 C 0.39546(15) 0.6825(5) 0.76937(18)
H7 H 0.3785 0.6255 0.7307
C14 C 0.47106(15) 0.7218(5) 0.84482(19)
H8 H 0.5076 0.6947 0.8603
C15 C 0.44453(15) 0.8470(5) 0.87951(18)
C16 C 0.39028(15) 0.8811(5) 0.85428(18)
H9 H 0.3701 0.9626 0.8770
C17 C 0.47252(14) 0.9300(5) 0.94062(18)
C18 C 0.44469(16) 0.9712(5) 0.99418(19)
H10 H 0.4068 0.9523 0.9904
C19 C 0.52874(15) 0.9610(5) 0.94731(19)
H11 H 0.5485 0.9353 0.9115
Cd1 Cd 0.271990(10) 0.85882(4) 0.757462(12)
Cd2 Cd 0.5000 0.40140(5) 0.7500
N1 N 0.36595(12) 0.8014(4) 0.79869(14)
N2 N 0.44742(13) 0.6368(4) 0.79027(17)
O1 O 0.28708(11) 0.5209(4) 0.32841(13)
O2 O 0.35678(12) 0.7108(4) 0.33617(14)
O3 O 0.29232(11) 0.6644(3) 0.67787(12)
O4 O 0.23201(11) 0.4566(4) 0.63966(12)
O5 O 0.45086(14) 0.4121(4) 0.65019(15)
O6 O 0.38346(12) 0.2145(4) 0.65053(14)
O7 O 0.19826(11) 0.6575(4) 0.76753(13)
O8 O 0.55832(13) 0.1783(4) 0.72682(15)
H12 H 0.1778(19) 0.689(9) 0.7326(16)
H13 H 0.180(2) 0.670(7) 0.7991(18)
C9F C 0.23952(14) 0.9065(5) 0.36788(17)
C10F C 0.24434(14) 0.8258(5) 0.43645(16)
C11F C 0.20864(14) 0.6918(5) 0.45197(17)
H5F H 0.1806 0.6522 0.4194
C12F C 0.28561(15) 0.8828(5) 0.48489(18)
H6F H 0.3099 0.9732 0.4746
O3F O 0.20768(11) 0.8356(3) 0.32213(12)
O4F O 0.26799(11) 1.0434(4) 0.36034(12)
C13D C 0.60454(15) 1.3175(5) 1.23063(18)
H7D H 0.6215 1.3745 1.2693
C14D C 0.52894(15) 1.2782(5) 1.15518(19)
H8D H 0.4924 1.3053 1.1397
C15D C 0.55547(15) 1.1530(5) 1.12049(18)
C16D C 0.60972(15) 1.1189(5) 1.14572(18)
H9D H 0.6299 1.0374 1.1230
C17D C 0.52748(14) 1.0700(5) 1.05938(18)
C18D C 0.55531(16) 1.0288(5) 1.00582(19)
H10D H 0.5932 1.0477 1.0096
C19D C 0.47126(15) 1.0390(5) 1.05269(19)
H11D H 0.4515 1.0647 1.0885
N1D N 0.63405(12) 1.1986(4) 1.20131(14)
N2D N 0.55258(13) 1.3632(4) 1.20973(17)
C1A C 0.66983(15) 0.5841(5) 1.14203(18)
C2A C 0.64835(15) 0.5095(5) 1.07446(17)
C3A C 0.59778(16) 0.5623(5) 1.04427(18)
H1A H 0.5759 0.6383 1.0671
C4A C 0.57912(16) 0.5033(5) 0.98025(19)
H2A H 0.5444 0.5383 0.9598
C5A C 0.61183(16) 0.3923(5) 0.94626(18)
C6A C 0.66175(16) 0.3380(5) 0.97727(18)
H3A H 0.6838 0.2625 0.9545
C7A C 0.68012(15) 0.3932(5) 1.04191(19)
H4A H 0.7138 0.3521 1.0634
C8A C 0.59146(16) 0.3341(5) 0.87612(18)
O1A O 0.71292(11) 0.5209(4) 1.17159(13)
O2A O 0.64322(12) 0.7108(4) 1.16383(14)
O5A O 0.54914(14) 0.4121(4) 0.84981(15)
O6A O 0.61654(12) 0.2145(4) 0.84947(14)
O8A O 0.44168(13) 0.1783(4) 0.77318(15)
Cd1C Cd 0.228010(10) 1.35882(4) 0.742538(12)
O7C O 0.30174(11) 1.1575(4) 0.73247(13)
H12C H 0.3222(19) 1.189(9) 0.7674(16)
H13C H 0.320(2) 1.170(7) 0.7009(18)
Cd1C_2 Cd 0.228010(10) 0.35882(4) 0.742538(12)
Cd1D Cd 0.728010(10) 1.14118(4) 1.242538(12)
Cd1E Cd 0.271990(10) 1.14118(4) 0.257462(12)
Cd1F Cd 0.228010(10) 0.64118(4) 0.242538(12)
Cd1G Cd 0.771990(10) 0.64118(4) 1.257462(12)
Cd2D Cd 0.5000 1.59860(5) 1.2500
N1C N 0.13405(12) 1.3014(4) 0.70131(14)
N2A N 0.55258(13) 0.6368(4) 0.70973(17)
O1E O 0.28708(11) 1.4791(4) 0.82841(13)
O1F O 0.21292(11) 0.9791(4) 0.67159(13)
O3C O 0.20768(11) 1.1644(3) 0.82213(12)
O4_2 O 0.23201(11) 1.4566(4) 0.63966(12)
O4C O 0.26799(11) 0.9566(4) 0.86034(12)
O7_2 O 0.19826(11) 1.6575(4) 0.76753(13)
loop_
_geom_bond_atom_site_label_1
_geom_bond_atom_site_label_2
_geom_bond_site_symmetry_1
_geom_bond_site_symmetry_2
C1 C2 1_555 1_555
C2 C3 1_555 1_555
C3 H1 1_555 1_555
C4 C3 1_555 1_555
H2 C4 1_555 1_555
C5 C4 1_555 1_555
C6 C5 1_555 1_555
H3 C6 1_555 1_555
C7 C2 1_555 1_555
H4 C7 1_555 1_555
C8 C5 1_555 1_555
C9 C10 1_555 1_555
C10 C11 1_555 1_555
C11 H5 1_555 1_555
C12 C10 1_555 1_555
H6 C12 1_555 1_555
C13 H7 1_555 1_555
C14 H8 1_555 1_555
C15 C14 1_555 1_555
C16 C15 1_555 1_555
H9 C16 1_555 1_555
C17 C15 1_555 1_555
C18 C17 1_555 1_555
H10 C18 1_555 1_555
C19 C17 1_555 1_555
H11 C19 1_555 1_555
Cd1 N1 1_555 1_555
Cd2 N2 1_555 1_555
N1 C13 1_555 1_555
N2 C13 1_555 1_555
O1 C1 1_555 1_555
O2 C1 1_555 1_555
O3 C9 1_555 1_555
O4 C9 1_555 1_555
O5 C8 1_555 1_555
O6 C8 1_555 1_555
O7 Cd1 1_555 1_555
O8 Cd2 1_555 1_555
H12 O7 1_555 1_555
H13 O7 1_555 1_555
C9F C10F 1_555 1_555
C10F C11F 1_555 1_555
C11F C12 1_555 1_555
H5F C11F 1_555 1_555
C12F C11 1_555 1_555
H6F C12F 1_555 1_555
O3F C9F 1_555 1_555
O4F C9F 1_555 1_555
C13D H7D 1_555 1_555
C14D H8D 1_555 1_555
C15D C14D 1_555 1_555
C16D C15D 1_555 1_555
H9D C16D 1_555 1_555
C17D C15D 1_555 1_555
C18D C19 1_555 1_555
H10D C18D 1_555 1_555
C19D C18 1_555 1_555
H11D C19D 1_555 1_555
N1D C13D 1_555 1_555
N2D C13D 1_555 1_555
C1A C2A 1_555 1_555
C2A C3A 1_555 1_555
C3A H1A 1_555 1_555
C4A C3A 1_555 1_555
H2A C4A 1_555 1_555
C5A C4A 1_555 1_555
C6A C5A 1_555 1_555
H3A C6A 1_555 1_555
C7A C2A 1_555 1_555
H4A C7A 1_555 1_555
C8A C5A 1_555 1_555
O1A C1A 1_555 1_555
O2A C1A 1_555 1_555
O5A Cd2 1_555 1_555
O6A C8A 1_555 1_555
O8A Cd2 1_555 1_555
Cd1C O7C 1_555 1_555
O7C Cd1 1_555 1_555
H12C O7C 1_555 1_555
H13C O7C 1_555 1_555
Cd1C_2 O4 1_555 1_555
Cd1D N1D 1_555 1_555
Cd1E O4F 1_555 1_555
Cd1F O1 1_555 1_555
Cd1G O1A 1_555 1_555
Cd2D N2D 1_555 1_555
N1C Cd1C 1_555 1_555
N2A Cd2 1_555 1_555
O1E Cd1C 1_555 1_555
O1F Cd1 1_555 1_555
O3C Cd1C 1_555 1_555
O4_2 Cd1C 1_555 1_555
O4C Cd1 1_555 1_555
O7_2 Cd1C 1_555 1_555
C6 C7 1_555 1_555
C14 N2 1_555 1_555
C16 N1 1_555 1_555
Cd1 O3 1_555 1_555
Cd2 O5 1_555 1_555
O7 Cd1C_2 1_555 1_555
C10F C12F 1_555 1_555
O3F Cd1F 1_555 1_555
C14D N2D 1_555 1_555
C16D N1D 1_555 1_555
C17D C18D 1_555 1_555
C17D C19D 1_555 1_555
C6A C7A 1_555 1_555
C8A O5A 1_555 1_555

#END
