
#######################################################################
#
#                 Cambridge Crystallographic Data Centre
#                                CCDC 
#
#######################################################################
#
# If this CIF has been generated from an entry in the Cambridge 
# Structural Database, then it will include bibliographic, chemical, 
# crystal, experimental, refinement or atomic coordinate data resulting 
# from the CCDC's data processing and validation procedures.
#
#######################################################################

data_PUGHUW
_symmetry_cell_setting           monoclinic
_symmetry_space_group_name_H-M   'P 21/n'
_symmetry_Int_Tables_number      14
_space_group_name_Hall           '-P 2yn'
loop_
_symmetry_equiv_pos_site_id
_symmetry_equiv_pos_as_xyz
1 x,y,z
2 1/2-x,1/2+y,1/2-z
3 -x,-y,-z
4 1/2+x,1/2-y,1/2+z
_cell_length_a                   16.7094(3)
_cell_length_b                   20.2857(4)
_cell_length_c                   17.1936(3)
_cell_angle_alpha                90
_cell_angle_beta                 99.178(2)
_cell_angle_gamma                90
_cell_volume                     5753.36
loop_
_atom_site_label
_atom_site_type_symbol
_atom_site_fract_x
_atom_site_fract_y
_atom_site_fract_z
Mn1 Mn 0.24957(3) 0.33421(3) 1.03614(3)
Mn2 Mn 0.44546(4) 0.37409(3) 1.13934(4)
Mn3 Mn 0.05220(4) 0.35504(3) 0.91695(3)
S1 S 0.22833(6) 0.72822(5) 0.95422(6)
S2 S 0.34295(8) 0.43047(6) 0.55568(7)
S3 S 0.04115(6) 0.48581(5) 1.39286(6)
N1 N 0.4216(3) 0.4478(3) 1.2331(3)
N2 N 0.6908(3) 0.3493(2) 1.2388(3)
N3 N -0.1580(3) 0.3749(2) 0.7482(3)
O1 O 0.3317(2) 0.75731(17) 0.5059(2)
O2 O -0.15713(18) 0.23383(17) 1.51927(18)
O3 O 0.32283(18) 0.41845(15) 1.07214(17)
O4 O 0.25116(19) 0.36620(18) 0.91521(18)
O5 O 0.24656(17) 0.80952(15) 1.33953(16)
O6 O 0.13857(18) 0.39339(17) 1.04128(18)
O7 O 0.5607(2) 0.3628(3) 1.1962(2)
O8 O 0.11598(19) 0.80824(18) 1.29913(19)
O9 O -0.03354(19) 0.19589(16) 1.5541(2)
O10 O 0.44038(18) 0.45800(16) 1.0600(2)
O11 O 0.13072(18) 0.38992(17) 0.84886(18)
O12 O -0.05224(19) 0.37470(17) 0.84216(19)
O13 O 0.44516(19) 0.75258(17) 0.5875(2)
O14 O 0.00892(19) 0.39609(19) 1.01387(18)
O15 O 0.15162(18) 0.72476(16) 0.90673(17)
O16 O 0.28917(18) 0.76819(15) 0.92893(17)
O17 O 0.4209(2) 0.40159(18) 0.5641(2)
O18 O 0.2845(3) 0.41394(17) 0.48892(19)
O19 O -0.02105(19) 0.53390(15) 1.38913(17)
O20 O 0.11831(19) 0.50004(16) 1.43597(18)
C1 C 0.3662(3) 0.4626(2) 1.0484(2)
C2 C 0.3288(2) 0.5247(2) 1.0130(2)
C3 C 0.2478(3) 0.5348(2) 1.0073(3)
H1 H 0.2140 0.5008 1.0184
C4 C 0.2157(3) 0.5966(2) 0.9848(3)
H2 H 0.1602 0.6038 0.9801
C5 C 0.2662(2) 0.6469(2) 0.9696(2)
C6 C 0.3470(3) 0.6366(2) 0.9722(2)
H3 H 0.3806 0.6703 0.9599
C7 C 0.3780(3) 0.5747(2) 0.9936(3)
H4 H 0.4330 0.5668 0.9948
C8 C 0.2165(2) 0.75296(19) 1.0511(2)
C9 C 0.1408(2) 0.7584(2) 1.0701(2)
H5 H 0.0954 0.7508 1.0324
C10 C 0.1323(2) 0.7755(2) 1.1467(2)
H6 H 0.0804 0.7801 1.1593
C11 C 0.1978(2) 0.7858(2) 1.2041(2)
C12 C 0.2742(2) 0.7803(2) 1.1839(2)
H7 H 0.3197 0.7873 1.2217
C13 C 0.2833(2) 0.7642(2) 1.1070(2)
H8 H 0.3349 0.7611 1.0936
C14 C 0.1866(2) 0.8029(2) 1.2878(2)
C15 C 0.2054(3) 0.3825(2) 0.8548(2)
C16 C 0.2395(2) 0.3940(2) 0.7798(2)
C17 C 0.3196(3) 0.3829(3) 0.7780(3)
H9 H 0.3532 0.3686 0.8233
C18 C 0.3512(3) 0.3925(3) 0.7099(3)
H10 H 0.4058 0.3843 0.7090
C19 C 0.3021(3) 0.4143(2) 0.6429(3)
C20 C 0.2224(3) 0.4244(2) 0.6420(2)
H11 H 0.1892 0.4383 0.5963
C21 C 0.1910(3) 0.4137(2) 0.7108(2)
H12 H 0.1358 0.4198 0.7106
C22 C 0.3543(3) 0.5176(2) 0.5567(2)
C23 C 0.2942(3) 0.5567(2) 0.5183(2)
H13 H 0.2460 0.5380 0.4934
C24 C 0.3052(2) 0.6237(2) 0.5165(2)
H14 H 0.2644 0.6501 0.4895
C25 C 0.3749(2) 0.6526(2) 0.5537(2)
C26 C 0.4337(3) 0.6126(3) 0.5939(3)
H15 H 0.4809 0.6312 0.6209
C27 C 0.4236(3) 0.5450(3) 0.5946(4)
H16 H 0.4644 0.5183 0.6210
C28 C 0.3841(2) 0.7265(2) 0.5482(2)
C29 C 0.0720(3) 0.4044(2) 1.0611(2)
C30 C 0.0671(2) 0.4282(2) 1.1429(2)
C31 C -0.0052(3) 0.4529(3) 1.1594(3)
H17 H -0.0496 0.4564 1.1196
C32 C -0.0116(3) 0.4724(2) 1.2355(3)
H18 H -0.0600 0.4903 1.2460
C33 C 0.0520(2) 0.4656(2) 1.2947(2)
C34 C 0.1245(3) 0.4417(2) 1.2791(2)
H19 H 0.1686 0.4375 1.3194
C35 C 0.1315(2) 0.4237(2) 1.2026(3)
H20 H 0.1810 0.4083 1.1917
C36 C 0.0063(2) 0.4120(2) 1.4299(2)
C37 C 0.0600(2) 0.3668(2) 1.4701(2)
H21 H 0.1156 0.3744 1.4767
C38 C 0.0301(2) 0.3106(2) 1.5000(2)
H22 H 0.0657 0.2804 1.5276
C39 C -0.0515(2) 0.2987(2) 1.4893(2)
C40 C -0.1030(2) 0.3443(2) 1.4484(3)
H23 H -0.1585 0.3361 1.4403
C41 C -0.0751(2) 0.4010(2) 1.4193(3)
H24 H -0.1110 0.4316 1.3928
C42 C -0.0834(3) 0.2374(2) 1.5237(2)
C43 C 0.3942(4) 0.4705(3) 1.2841(4)
C44 C 0.3619(5) 0.4936(4) 1.3511(4)
H25 H 0.3051 0.4834 1.3448
H26 H 0.3692 0.5404 1.3559
H27 H 0.3895 0.4724 1.3977
C45 C 0.6377(6) 0.4538(4) 1.2025(6)
H28 H 0.6938 0.4651 1.2179
H29 H 0.6055 0.4777 1.2344
H30 H 0.6209 0.4651 1.1481
C46 C 0.6263(4) 0.3785(3) 1.2138(4)
C47 C 0.7696(6) 0.3777(6) 1.2552(8)
H31 H 0.8084 0.3441 1.2738
H32 H 0.7704 0.4111 1.2949
H33 H 0.7832 0.3970 1.2080
C48 C 0.6795(6) 0.2778(4) 1.2527(7)
H34 H 0.7310 0.2580 1.2719
H35 H 0.6561 0.2571 1.2042
H36 H 0.6440 0.2723 1.2909
C49 C -0.0305(4) 0.3381(3) 0.7144(3)
H37 H -0.0633 0.3332 0.6636
H38 H -0.0083 0.2960 0.7322
H39 H 0.0129 0.3683 0.7107
C50 C -0.0819(3) 0.3643(3) 0.7724(3)
C51 C -0.2065(3) 0.3992(3) 0.8053(4)
H40 H -0.2616 0.4050 0.7800
H41 H -0.1852 0.4407 0.8260
H42 H -0.2048 0.3680 0.8474
C52 C -0.1966(4) 0.3638(3) 0.6677(3)
H43 H -0.2531 0.3748 0.6625
H44 H -0.1910 0.3183 0.6543
H45 H -0.1713 0.3910 0.6328
Mn1A Mn 0.25043(3) 0.83421(3) 0.46386(3)
Mn1A_2 Mn 0.25043(3) 0.83421(3) 1.46386(3)
Mn1C Mn -0.25043(3) 0.16579(3) 1.53614(3)
Mn2A Mn 0.05454(4) 0.87409(3) 1.36066(4)
Mn2C Mn -0.05454(4) 0.12591(3) 1.63934(4)
Mn3A Mn 0.44780(4) 0.85504(3) 0.58305(3)
O1A O 0.1683(2) 0.25731(17) 0.9941(2)
O2C O 0.34287(18) 0.26617(17) 1.01927(18)
O5A O 0.25344(17) 0.30952(15) 1.16047(16)
O8A O 0.38402(19) 0.30824(18) 1.20087(19)
O9C O 0.46646(19) 0.30411(16) 1.0541(2)
O13A O 0.05484(19) 0.25258(17) 0.9125(2)
N4 N 0.4740(3) 0.7033(4) 0.2307(4)
O21 O 0.3987(3) 0.6319(3) 0.2878(4)
C53 C 0.4518(4) 0.7298(4) 0.3633(4)
H46 H 0.4238 0.7106 0.4023
H47 H 0.4301 0.7728 0.3494
H48 H 0.5085 0.7335 0.3841
C54 C 0.4410(4) 0.6860(5) 0.2901(4)
C55 C 0.5178(5) 0.7637(4) 0.2324(4)
H49 H 0.5384 0.7690 0.1837
H50 H 0.5621 0.7630 0.2754
H51 H 0.4823 0.7997 0.2391
C56 C 0.4613(5) 0.6586(5) 0.1598(4)
H52 H 0.4887 0.6765 0.1196
H53 H 0.4044 0.6551 0.1401
H54 H 0.4827 0.6157 0.1745
loop_
_geom_bond_atom_site_label_1
_geom_bond_atom_site_label_2
_geom_bond_site_symmetry_1
_geom_bond_site_symmetry_2
Mn1 O3 1_555 1_555
Mn2 N1 1_555 1_555
Mn3 O11 1_555 1_555
S1 O15 1_555 1_555
S2 O17 1_555 1_555
S3 O19 1_555 1_555
N1 C43 1_555 1_555
N2 C46 1_555 1_555
N3 C50 1_555 1_555
O1 C28 1_555 1_555
O2 C42 1_555 1_555
O3 Mn2 1_555 1_555
O4 Mn1 1_555 1_555
O5 C14 1_555 1_555
O6 Mn1 1_555 1_555
O7 Mn2 1_555 1_555
O8 C14 1_555 1_555
O9 C42 1_555 1_555
O10 Mn2 1_555 1_555
O11 C15 1_555 1_555
O12 Mn3 1_555 1_555
O13 C28 1_555 1_555
O14 Mn3 1_555 1_555
O16 S1 1_555 1_555
O18 S2 1_555 1_555
O20 S3 1_555 1_555
C1 O3 1_555 1_555
C2 C1 1_555 1_555
C3 C2 1_555 1_555
H1 C3 1_555 1_555
C4 C3 1_555 1_555
H2 C4 1_555 1_555
C5 S1 1_555 1_555
C6 C5 1_555 1_555
H3 C6 1_555 1_555
C7 C2 1_555 1_555
H4 C7 1_555 1_555
C8 S1 1_555 1_555
C9 C8 1_555 1_555
H5 C9 1_555 1_555
C10 C9 1_555 1_555
H6 C10 1_555 1_555
C11 C10 1_555 1_555
C12 C11 1_555 1_555
H7 C12 1_555 1_555
C13 C8 1_555 1_555
H8 C13 1_555 1_555
C14 C11 1_555 1_555
C15 O4 1_555 1_555
C16 C15 1_555 1_555
C17 C16 1_555 1_555
H9 C17 1_555 1_555
C18 C17 1_555 1_555
H10 C18 1_555 1_555
C19 S2 1_555 1_555
C20 C19 1_555 1_555
H11 C20 1_555 1_555
C21 C16 1_555 1_555
H12 C21 1_555 1_555
C22 S2 1_555 1_555
C23 C22 1_555 1_555
H13 C23 1_555 1_555
C24 C23 1_555 1_555
H14 C24 1_555 1_555
C25 C24 1_555 1_555
C26 C25 1_555 1_555
H15 C26 1_555 1_555
C27 C22 1_555 1_555
H16 C27 1_555 1_555
C28 C25 1_555 1_555
C29 O6 1_555 1_555
C30 C29 1_555 1_555
C31 C30 1_555 1_555
H17 C31 1_555 1_555
C32 C31 1_555 1_555
H18 C32 1_555 1_555
C33 S3 1_555 1_555
C34 C33 1_555 1_555
H19 C34 1_555 1_555
C35 C30 1_555 1_555
H20 C35 1_555 1_555
C36 S3 1_555 1_555
C37 C36 1_555 1_555
H21 C37 1_555 1_555
C38 C37 1_555 1_555
H22 C38 1_555 1_555
C39 C38 1_555 1_555
C40 C39 1_555 1_555
H23 C40 1_555 1_555
C41 C36 1_555 1_555
H24 C41 1_555 1_555
C42 C39 1_555 1_555
C43 C44 1_555 1_555
C44 H25 1_555 1_555
H26 C44 1_555 1_555
H27 C44 1_555 1_555
C45 H28 1_555 1_555
H29 C45 1_555 1_555
H30 C45 1_555 1_555
C46 O7 1_555 1_555
C47 N2 1_555 1_555
H31 C47 1_555 1_555
H32 C47 1_555 1_555
H33 C47 1_555 1_555
C48 N2 1_555 1_555
H34 C48 1_555 1_555
H35 C48 1_555 1_555
H36 C48 1_555 1_555
C49 H37 1_555 1_555
H38 C49 1_555 1_555
H39 C49 1_555 1_555
C50 O12 1_555 1_555
C51 N3 1_555 1_555
H40 C51 1_555 1_555
H41 C51 1_555 1_555
H42 C51 1_555 1_555
C52 N3 1_555 1_555
H43 C52 1_555 1_555
H44 C52 1_555 1_555
H45 C52 1_555 1_555
N4 C54 1_555 1_555
O21 C54 1_555 1_555
C53 H46 1_555 1_555
H47 C53 1_555 1_555
H48 C53 1_555 1_555
C54 C53 1_555 1_555
C55 N4 1_555 1_555
H49 C55 1_555 1_555
H50 C55 1_555 1_555
H51 C55 1_555 1_555
C56 N4 1_555 1_555
H52 C56 1_555 1_555
H53 C56 1_555 1_555
H54 C56 1_555 1_555
Mn1A O1 1_555 1_555
Mn1A_2 O5 1_555 1_555
Mn1C O2 1_555 1_555
Mn2A O8 1_555 1_555
Mn2C O9 1_555 1_555
Mn3A O13 1_555 1_555
O1A Mn1 1_555 1_555
O2C Mn1 1_555 1_555
O5A Mn1 1_555 1_555
O8A Mn2 1_555 1_555
O9C Mn2 1_555 1_555
O13A Mn3 1_555 1_555
O10 C1 1_555 1_555
O14 C29 1_555 1_555
C4 C5 1_555 1_555
C6 C7 1_555 1_555
C12 C13 1_555 1_555
C18 C19 1_555 1_555
C20 C21 1_555 1_555
C26 C27 1_555 1_555
C32 C33 1_555 1_555
C34 C35 1_555 1_555
C40 C41 1_555 1_555
C45 C46 1_555 1_555
C49 C50 1_555 1_555

#END
