
#######################################################################
#
#                 Cambridge Crystallographic Data Centre
#                                CCDC 
#
#######################################################################
#
# If this CIF has been generated from an entry in the Cambridge 
# Structural Database, then it will include bibliographic, chemical, 
# crystal, experimental, refinement or atomic coordinate data resulting 
# from the CCDC's data processing and validation procedures.
#
#######################################################################

data_PUGHAC
_symmetry_cell_setting           monoclinic
_symmetry_space_group_name_H-M   'P 21/n'
_symmetry_Int_Tables_number      14
_space_group_name_Hall           '-P 2yn'
loop_
_symmetry_equiv_pos_site_id
_symmetry_equiv_pos_as_xyz
1 x,y,z
2 1/2-x,1/2+y,1/2-z
3 -x,-y,-z
4 1/2+x,1/2-y,1/2+z
_cell_length_a                   16.7094(3)
_cell_length_b                   20.2857(4)
_cell_length_c                   17.1936(3)
_cell_angle_alpha                90
_cell_angle_beta                 99.178(2)
_cell_angle_gamma                90
_cell_volume                     5753.36
loop_
_atom_site_label
_atom_site_type_symbol
_atom_site_fract_x
_atom_site_fract_y
_atom_site_fract_z
Mn1 Mn 0.03628(3) 0.83793(2) 0.24945(3)
Mn2 Mn 0.15001(3) 0.88419(3) 0.44488(3)
Mn3 Mn -0.08870(3) 0.85701(3) 0.05124(3)
S1 S -0.09969(5) 0.51886(4) 0.54224(5)
S2 S 0.56093(5) 0.72651(4) 0.27533(5)
S3 S -0.04430(5) 0.43167(4) 0.15342(5)
N1 N -0.2435(3) 0.88410(19) -0.1698(2)
N2 N 0.2532(2) 0.8452(3) 0.6849(3)
O1 O -0.0059(2) 0.75864(14) 0.17317(16)
O2 O 0.01953(16) 0.77519(14) 0.34582(14)
O3 O 0.42533(14) 0.42244(12) 0.17897(14)
O4 O -0.41157(15) 0.37213(15) 0.25176(15)
O5 O 0.16433(13) 0.80811(12) 0.25509(13)
O6 O -0.46230(15) 0.60645(13) 0.63659(14)
O7 O 0.21094(14) 0.81666(13) 0.38489(13)
O8 O 0.20814(17) 0.88179(16) 0.56328(16)
O9 O 0.06261(15) 0.81211(12) 0.46854(14)
O10 O 0.43616(16) 0.46447(13) 0.06259(14)
O11 O 0.24113(17) 0.96307(14) 0.42120(16)
O12 O -0.33985(15) 0.39016(13) 0.37130(14)
O13 O -0.16656(19) 0.87327(15) -0.05222(17)
O14 O -0.07719(16) 0.75500(12) 0.05320(14)
O15 O -0.49172(15) 0.59718(15) 0.50767(15)
O16 O -0.10162(14) 0.47131(12) 0.47979(14)
O17 O -0.05441(14) 0.50506(12) 0.61910(14)
O18 O 0.60942(14) 0.72474(13) 0.35235(15)
O19 O 0.58594(14) 0.76704(12) 0.21455(14)
O20 O -0.05500(18) 0.40065(14) 0.07738(17)
O21 O 0.02477(16) 0.41509(13) 0.21197(17)
C1 C 0.0272(2) 0.77126(17) 0.4192(2)
C2 C -0.00764(19) 0.70996(17) 0.45160(19)
C3 C -0.0491(2) 0.66433(18) 0.40000(19)
H1 H -0.0577 0.6730 0.3462
C4 C -0.0779(2) 0.60611(18) 0.42745(19)
H2 H -0.1046 0.5752 0.3926
C5 C -0.06622(18) 0.59481(16) 0.50816(18)
C6 C -0.0264(2) 0.64026(17) 0.56110(19)
H3 H -0.0195 0.6322 0.6150
C7 C 0.0028(2) 0.69758(17) 0.53246(19)
H4 H 0.0298 0.7282 0.5674
C8 C -0.20097(19) 0.53564(16) 0.55369(19)
C9 C -0.2620(2) 0.52584(19) 0.48961(19)
H5 H -0.2501 0.5081 0.4429
C10 C -0.3405(2) 0.54287(19) 0.4965(2)
H6 H -0.3821 0.5363 0.4544
C11 C -0.3577(2) 0.56993(16) 0.56688(19)
C12 C -0.2964(2) 0.57713(18) 0.63140(19)
H7 H -0.3086 0.5931 0.6789
C13 C -0.2170(2) 0.56052(17) 0.62487(19)
H8 H -0.1755 0.5659 0.6673
C14 C -0.4423(2) 0.59244(17) 0.5712(2)
C15 C 0.2190(2) 0.80415(16) 0.31427(19)
C16 C 0.30295(19) 0.78287(16) 0.30272(18)
C17 C 0.36199(19) 0.77183(16) 0.36908(18)
H9 H 0.3482 0.7763 0.4191
C18 C 0.4403(2) 0.75449(16) 0.36130(19)
H10 H 0.4789 0.7467 0.4056
C19 C 0.46049(19) 0.74890(16) 0.28588(18)
C20 C 0.4025(2) 0.75976(17) 0.21922(18)
H11 H 0.4166 0.7561 0.1692
C21 C 0.3243(2) 0.77599(17) 0.22774(18)
H12 H 0.2854 0.7824 0.1833
C22 C 0.54792(19) 0.64497(17) 0.23835(19)
C23 C 0.5309(2) 0.59451(18) 0.2884(2)
H13 H 0.5362 0.6015 0.3424
C24 C 0.5060(2) 0.53401(17) 0.2563(2)
H14 H 0.4946 0.4998 0.2888
C25 C 0.4981(2) 0.52417(16) 0.17502(19)
C26 C 0.5225(2) 0.57300(17) 0.1268(2)
H15 H 0.5225 0.5646 0.0736
C27 C 0.5469(2) 0.63402(17) 0.1582(2)
H16 H 0.5623 0.6672 0.1263
C28 C 0.4529(2) 0.46560(17) 0.1368(2)
C29 C -0.0422(2) 0.72802(17) 0.11575(19)
C30 C -0.04398(19) 0.65420(17) 0.12190(18)
C31 C -0.0752(2) 0.61395(19) 0.0589(2)
H17 H -0.0962 0.6327 0.0106
C32 C -0.0752(2) 0.54598(19) 0.0676(2)
H18 H -0.0961 0.5192 0.0254
C33 C -0.0438(2) 0.51831(17) 0.1396(2)
C34 C -0.0126(2) 0.55792(18) 0.2038(2)
H19 H 0.0079 0.5391 0.2522
C35 C -0.0128(2) 0.62526(17) 0.19411(19)
H20 H 0.0083 0.6520 0.2364
C36 C -0.1332(2) 0.41882(17) 0.1956(2)
C37 C -0.2049(3) 0.4018(3) 0.1476(2)
H21 H -0.2063 0.3967 0.0936
C38 C -0.2741(3) 0.3924(3) 0.1806(2)
H22 H -0.3225 0.3815 0.1485
C39 C -0.2723(2) 0.39912(17) 0.26186(19)
C40 C -0.2000(2) 0.41584(16) 0.30905(19)
H23 H -0.1980 0.4200 0.3632
C41 C -0.1304(2) 0.42646(17) 0.2762(2)
H24 H -0.0823 0.4386 0.3079
C42 C -0.3480(2) 0.38619(17) 0.2970(2)
C43 C -0.2315(3) 0.8708(2) -0.0958(3)
C44 C -0.3063(4) 0.8491(3) -0.0622(5)
H25 H -0.3526 0.8496 -0.1032
H26 H -0.3153 0.8788 -0.0210
H27 H -0.2982 0.8053 -0.0414
C45 C -0.3170(4) 0.8809(3) -0.2248(4)
H28 H -0.3067 0.8939 -0.2760
H29 H -0.3564 0.9101 -0.2084
H30 H -0.3375 0.8366 -0.2272
C46 C -0.1718(4) 0.9065(3) -0.2043(4)
H31 H -0.1878 0.9150 -0.2595
H32 H -0.1309 0.8728 -0.1972
H33 H -0.1504 0.9461 -0.1784
C47 C 0.2312(3) 0.8398(4) 0.6155(3)
C48 C 0.2302(3) 0.7646(3) 0.5884(3)
H34 H 0.2723 0.7410 0.6214
H35 H 0.2389 0.7623 0.5346
H36 H 0.1786 0.7454 0.5928
C49 C 0.2814(3) 0.7942(3) 0.7428(3)
H37 H 0.2948 0.8140 0.7940
H38 H 0.3285 0.7731 0.7289
H39 H 0.2393 0.7621 0.7437
C50 C 0.2553(4) 0.9190(3) 0.7108(5)
H40 H 0.2731 0.9219 0.7666
H41 H 0.2020 0.9375 0.6979
H42 H 0.2922 0.9429 0.6837
C51 C 0.2978(3) 0.9574(2) 0.3674(2)
H43 H 0.3288 0.9973 0.3682
H44 H 0.2690 0.9501 0.3151
H45 H 0.3336 0.9210 0.3826
H46 H 0.230(3) 1.009(3) 0.426(3)
Mn1A Mn -0.53628(3) 0.33793(2) 0.25055(3)
Mn1A_2 Mn 0.46372(3) 0.33793(2) 0.25055(3)
Mn1C Mn -0.46372(3) 0.66207(2) 0.74945(3)
Mn2A Mn 0.34999(3) 0.38419(3) 0.05512(3)
Mn3A Mn -0.41130(3) 0.35701(3) 0.44876(3)
Mn3C Mn -0.58870(3) 0.64299(3) 0.55124(3)
O3A O 0.07467(14) 0.92244(12) 0.32103(14)
O4A O -0.08843(15) 0.87213(15) 0.24824(15)
O6C O 0.03770(15) 0.89355(13) 0.13659(14)
O10A O 0.06384(16) 0.96447(13) 0.43741(14)
O12A O -0.16015(15) 0.89016(13) 0.12870(14)
O15C O 0.00828(15) 0.90282(15) 0.00767(15)
N3 N 0.2634(3) 1.2025(2) 0.4622(3)
O22 O 0.2523(2) 1.09831(16) 0.4220(2)
C52 C 0.2269(4) 1.1494(3) 0.4524(3)
C53 C 0.1422(3) 1.1506(3) 0.4788(3)
H47 H 0.1172 1.1081 0.4699
H48 H 0.1088 1.1833 0.4490
H49 H 0.1483 1.1612 0.5339
C54 C 0.2363(3) 1.2623(2) 0.4982(3)
H50 H 0.2763 1.2963 0.4982
H51 H 0.2292 1.2530 0.5514
H52 H 0.1858 1.2768 0.4686
C55 C 0.3501(3) 1.2016(3) 0.4404(3)
H53 H 0.3742 1.2444 0.4494
H54 H 0.3471 1.1900 0.3859
H55 H 0.3826 1.1697 0.4725
loop_
_geom_bond_atom_site_label_1
_geom_bond_atom_site_label_2
_geom_bond_site_symmetry_1
_geom_bond_site_symmetry_2
Mn1 O1 1_555 1_555
Mn2 O7 1_555 1_555
Mn3 O13 1_555 1_555
S1 O16 1_555 1_555
S2 O18 1_555 1_555
S3 O20 1_555 1_555
N1 C43 1_555 1_555
N2 C47 1_555 1_555
O1 C29 1_555 1_555
O2 Mn1 1_555 1_555
O3 C28 1_555 1_555
O4 C42 1_555 1_555
O5 Mn1 1_555 1_555
O6 C14 1_555 1_555
O7 C15 1_555 1_555
O8 Mn2 1_555 1_555
O9 Mn2 1_555 1_555
O10 C28 1_555 1_555
O11 Mn2 1_555 1_555
O12 C42 1_555 1_555
O13 C43 1_555 1_555
O14 Mn3 1_555 1_555
O15 C14 1_555 1_555
O17 S1 1_555 1_555
O19 S2 1_555 1_555
O21 S3 1_555 1_555
C1 O2 1_555 1_555
C2 C1 1_555 1_555
C3 C2 1_555 1_555
H1 C3 1_555 1_555
C4 C3 1_555 1_555
H2 C4 1_555 1_555
C5 S1 1_555 1_555
C6 C5 1_555 1_555
H3 C6 1_555 1_555
C7 C2 1_555 1_555
H4 C7 1_555 1_555
C8 S1 1_555 1_555
C9 C8 1_555 1_555
H5 C9 1_555 1_555
C10 C9 1_555 1_555
H6 C10 1_555 1_555
C11 C10 1_555 1_555
C12 C11 1_555 1_555
H7 C12 1_555 1_555
C13 C8 1_555 1_555
H8 C13 1_555 1_555
C14 C11 1_555 1_555
C15 O5 1_555 1_555
C16 C15 1_555 1_555
C17 C16 1_555 1_555
H9 C17 1_555 1_555
C18 C17 1_555 1_555
H10 C18 1_555 1_555
C19 S2 1_555 1_555
C20 C19 1_555 1_555
H11 C20 1_555 1_555
C21 C16 1_555 1_555
H12 C21 1_555 1_555
C22 S2 1_555 1_555
C23 C22 1_555 1_555
H13 C23 1_555 1_555
C24 C23 1_555 1_555
H14 C24 1_555 1_555
C25 C24 1_555 1_555
C26 C25 1_555 1_555
H15 C26 1_555 1_555
C27 C22 1_555 1_555
H16 C27 1_555 1_555
C28 C25 1_555 1_555
C29 O14 1_555 1_555
C30 C29 1_555 1_555
C31 C30 1_555 1_555
H17 C31 1_555 1_555
C32 C31 1_555 1_555
H18 C32 1_555 1_555
C33 S3 1_555 1_555
C34 C33 1_555 1_555
H19 C34 1_555 1_555
C35 C30 1_555 1_555
H20 C35 1_555 1_555
C36 S3 1_555 1_555
C37 C36 1_555 1_555
H21 C37 1_555 1_555
C38 C37 1_555 1_555
H22 C38 1_555 1_555
C39 C38 1_555 1_555
C40 C39 1_555 1_555
H23 C40 1_555 1_555
C41 C36 1_555 1_555
H24 C41 1_555 1_555
C42 C39 1_555 1_555
C43 C44 1_555 1_555
C44 H25 1_555 1_555
H26 C44 1_555 1_555
H27 C44 1_555 1_555
C45 N1 1_555 1_555
H28 C45 1_555 1_555
H29 C45 1_555 1_555
H30 C45 1_555 1_555
C46 N1 1_555 1_555
H31 C46 1_555 1_555
H32 C46 1_555 1_555
H33 C46 1_555 1_555
C47 O8 1_555 1_555
C48 C47 1_555 1_555
H34 C48 1_555 1_555
H35 C48 1_555 1_555
H36 C48 1_555 1_555
C49 N2 1_555 1_555
H37 C49 1_555 1_555
H38 C49 1_555 1_555
H39 C49 1_555 1_555
C50 N2 1_555 1_555
H40 C50 1_555 1_555
H41 C50 1_555 1_555
H42 C50 1_555 1_555
C51 O11 1_555 1_555
H43 C51 1_555 1_555
H44 C51 1_555 1_555
H45 C51 1_555 1_555
H46 O11 1_555 1_555
N3 C52 1_555 1_555
O22 C52 1_555 1_555
C52 C53 1_555 1_555
C53 H47 1_555 1_555
H48 C53 1_555 1_555
H49 C53 1_555 1_555
C54 N3 1_555 1_555
H50 C54 1_555 1_555
H51 C54 1_555 1_555
H52 C54 1_555 1_555
C55 N3 1_555 1_555
H53 C55 1_555 1_555
H54 C55 1_555 1_555
H55 C55 1_555 1_555
Mn1A O4 1_555 1_555
Mn1A_2 O3 1_555 1_555
Mn1C O6 1_555 1_555
Mn2A O3 1_555 1_555
Mn3A O12 1_555 1_555
Mn3C O15 1_555 1_555
O3A Mn1 1_555 1_555
O4A Mn1 1_555 1_555
O6C Mn1 1_555 1_555
O10A Mn2 1_555 1_555
O12A Mn3 1_555 1_555
O15C Mn3 1_555 1_555
Mn2 O3A 1_555 1_555
O9 C1 1_555 1_555
O10 Mn2A 1_555 1_555
C4 C5 1_555 1_555
C6 C7 1_555 1_555
C12 C13 1_555 1_555
C18 C19 1_555 1_555
C20 C21 1_555 1_555
C26 C27 1_555 1_555
C32 C33 1_555 1_555
C34 C35 1_555 1_555
C40 C41 1_555 1_555

#END
