
#######################################################################
#
#                 Cambridge Crystallographic Data Centre
#                                CCDC 
#
#######################################################################
#
# If this CIF has been generated from an entry in the Cambridge 
# Structural Database, then it will include bibliographic, chemical, 
# crystal, experimental, refinement or atomic coordinate data resulting 
# from the CCDC's data processing and validation procedures.
#
#######################################################################

data_PUGJEI
_symmetry_cell_setting           monoclinic
_symmetry_space_group_name_H-M   'P 21/n'
_symmetry_Int_Tables_number      14
_space_group_name_Hall           '-P 2yn'
loop_
_symmetry_equiv_pos_site_id
_symmetry_equiv_pos_as_xyz
1 x,y,z
2 1/2-x,1/2+y,1/2-z
3 -x,-y,-z
4 1/2+x,1/2-y,1/2+z
_cell_length_a                   16.7094(3)
_cell_length_b                   20.2857(4)
_cell_length_c                   17.1936(3)
_cell_angle_alpha                90
_cell_angle_beta                 99.178(2)
_cell_angle_gamma                90
_cell_volume                     5753.36
loop_
_atom_site_label
_atom_site_type_symbol
_atom_site_fract_x
_atom_site_fract_y
_atom_site_fract_z
Mn1 Mn 0.03479(4) 0.16486(3) 0.24894(4)
Mn2 Mn 0.14082(5) 0.12122(4) 0.44521(4)
Mn3 Mn -0.08633(4) 0.14359(4) 0.05064(4)
S1 S -0.10429(7) 0.48405(6) 0.54291(7)
S2 S 0.55085(7) 0.27200(6) 0.27372(7)
S3 S -0.05194(9) 0.56815(6) 0.15331(10)
N1 N 0.2439(4) 0.1506(3) 0.6910(3)
N2 N -0.2514(4) 0.1206(3) -0.1638(4)
O1 O -0.0049(3) 0.24263(18) 0.1686(2)
O2 O 0.4302(2) 0.58019(16) 0.1790(2)
O3 O -0.4116(2) 0.6326(2) 0.2529(2)
O4 O 0.0177(2) 0.23113(19) 0.3431(2)
O5 O 0.1614(2) 0.19097(16) 0.2544(2)
O6 O -0.4612(2) 0.39384(19) 0.6376(2)
O7 O 0.2049(3) 0.1842(2) 0.3847(2)
O8 O 0.0570(2) 0.19399(18) 0.4668(2)
O9 O 0.1978(3) 0.1246(3) 0.5642(3)
O10 O 0.4442(3) 0.54093(19) 0.0625(2)
O11 O 0.2306(3) 0.0398(3) 0.4280(3)
O12 O -0.3432(2) 0.61031(18) 0.3719(2)
O13 O -0.1613(3) 0.12553(19) -0.0544(3)
O14 O -0.0833(2) 0.24588(17) 0.0531(2)
O15 O -0.4888(2) 0.3999(2) 0.5078(2)
O16 O -0.1071(2) 0.53225(16) 0.4808(2)
O17 O -0.0599(2) 0.49776(17) 0.6199(2)
O18 O 0.5990(2) 0.27421(18) 0.3507(2)
O19 O 0.5761(2) 0.23217(16) 0.2129(2)
O20 O -0.0625(3) 0.5985(2) 0.0770(3)
O21 O 0.0170(2) 0.58450(19) 0.2122(3)
C1 C 0.0239(3) 0.2346(3) 0.4163(3)
C2 C -0.0098(3) 0.2959(2) 0.4491(3)
C3 C -0.0507(3) 0.3417(3) 0.3983(3)
H1 H -0.0587 0.3340 0.3443
C4 C -0.0797(3) 0.3987(3) 0.4270(3)
H2 H -0.1065 0.4298 0.3924
C5 C -0.0690(3) 0.4098(2) 0.5075(3)
C6 C -0.0294(3) 0.3650(2) 0.5599(3)
H3 H -0.0231 0.3726 0.6139
C7 C 0.0009(3) 0.3077(2) 0.5305(3)
H4 H 0.0285 0.2771 0.5651
C8 C -0.2041(3) 0.4657(2) 0.5542(3)
C9 C -0.2641(3) 0.4734(3) 0.4890(3)
H5 H -0.2522 0.4906 0.4420
C10 C -0.3412(3) 0.4547(3) 0.4963(3)
H6 H -0.3827 0.4588 0.4536
C11 C -0.3580(3) 0.4296(2) 0.5679(3)
C12 C -0.2983(3) 0.4252(2) 0.6324(3)
H7 H -0.3104 0.4106 0.6805
C13 C -0.2200(3) 0.4428(2) 0.6252(3)
H8 H -0.1785 0.4391 0.6679
C14 C -0.4405(3) 0.4066(2) 0.5718(3)
C15 C 0.2145(3) 0.1948(2) 0.3135(3)
C16 C 0.2976(3) 0.2143(2) 0.3022(3)
C17 C 0.3558(3) 0.2254(2) 0.3688(3)
H9 H 0.3420 0.2209 0.4188
C18 C 0.4322(3) 0.2427(2) 0.3603(3)
H10 H 0.4708 0.2508 0.4045
C19 C 0.4529(3) 0.2482(2) 0.2851(3)
C20 C 0.3957(3) 0.2371(2) 0.2181(3)
H11 H 0.4097 0.2412 0.1681
C21 C 0.3184(3) 0.2201(2) 0.2273(3)
H12 H 0.2795 0.2124 0.1832
C22 C 0.5371(3) 0.3530(2) 0.2355(3)
C23 C 0.5220(3) 0.4036(2) 0.2876(3)
H13 H 0.5264 0.3962 0.3415
C24 C 0.5003(3) 0.4649(2) 0.2552(3)
H14 H 0.4899 0.4994 0.2876
C25 C 0.4941(3) 0.4750(2) 0.1739(3)
C26 C 0.5135(3) 0.4259(2) 0.1254(3)
H15 H 0.5120 0.4340 0.0719
C27 C 0.5355(3) 0.3639(2) 0.1563(3)
H16 H 0.5489 0.3304 0.1239
C28 C 0.4561(3) 0.5368(2) 0.1369(3)
C29 C -0.0458(3) 0.2728(2) 0.1142(3)
C30 C -0.0498(3) 0.3461(2) 0.1224(3)
C31 C -0.0834(4) 0.3864(3) 0.0596(3)
H17 H -0.1058 0.3676 0.0117
C32 C -0.0834(4) 0.4543(3) 0.0685(4)
H18 H -0.1046 0.4813 0.0265
C33 C -0.0518(3) 0.4814(2) 0.1402(3)
C34 C -0.0184(3) 0.4421(2) 0.2039(3)
H19 H 0.0027 0.4610 0.2521
C35 C -0.0174(3) 0.3747(2) 0.1937(3)
H20 H 0.0053 0.3480 0.2354
C36 C -0.1384(3) 0.5828(2) 0.1954(3)
C37 C -0.2079(4) 0.6026(4) 0.1493(4)
H21 H -0.2089 0.6091 0.0956
C38 C -0.2757(4) 0.6129(4) 0.1817(4)
H22 H -0.3233 0.6258 0.1497
C39 C -0.2751(3) 0.6043(2) 0.2624(3)
C40 C -0.2046(3) 0.5854(2) 0.3093(3)
H23 H -0.2031 0.5802 0.3632
C41 C -0.1365(3) 0.5742(2) 0.2764(3)
H24 H -0.0889 0.5608 0.3079
C42 C -0.3500(3) 0.6167(2) 0.2977(3)
C43 C 0.2239(6) 0.2348(4) 0.5963(6)
C44 C 0.2209(7) 0.1617(4) 0.6187(5)
C45 C 0.2728(7) 0.2003(6) 0.7478(7)
C46 C 0.2406(8) 0.0759(6) 0.7127(8)
C47 C -0.2938(5) 0.1567(4) -0.0463(7)
H25 H -0.3449 0.1591 -0.0809
H26 H -0.2789 0.1997 -0.0258
H27 H -0.2986 0.1273 -0.0035
C48 C -0.2294(4) 0.1312(3) -0.0915(5)
C49 C -0.3296(5) 0.1301(5) -0.2085(6)
H28 H -0.3288 0.1180 -0.2624
H29 H -0.3449 0.1755 -0.2061
H30 H -0.3682 0.1030 -0.1874
C50 C -0.1872(5) 0.0974(4) -0.2081(5)
H31 H -0.2101 0.0910 -0.2624
H32 H -0.1653 0.0565 -0.1861
H33 H -0.1449 0.1297 -0.2043
H34 H 0.2167 0.0043 0.4550
H35 H 0.2683 0.0287 0.3978
Mn1A Mn -0.53479(4) 0.66486(3) 0.25106(4)
Mn1A_2 Mn 0.46521(4) 0.66486(3) 0.25106(4)
Mn1C Mn -0.46521(4) 0.33514(3) 0.74894(4)
Mn2A Mn 0.35918(5) 0.62122(4) 0.05479(4)
Mn3A Mn -0.41367(4) 0.64359(4) 0.44936(4)
Mn3C Mn -0.58633(4) 0.35641(4) 0.55064(4)
O2A O 0.0698(2) 0.08019(16) 0.3210(2)
O3A O -0.0884(2) 0.1326(2) 0.2471(2)
O6C O 0.0388(2) 0.10616(19) 0.1376(2)
O10A O 0.0558(3) 0.04093(19) 0.4375(2)
O12A O -0.1568(2) 0.11031(18) 0.1281(2)
O15C O 0.0112(2) 0.1001(2) 0.0078(2)
N3 N 0.2375(9) -0.1913(8) 0.4663(6)
O22 O 0.2644(9) -0.1004(5) 0.4213(6)
C51 C 0.3570(6) -0.2102(8) 0.4426(7)
H36 H 0.3360 -0.2540 0.4457
H37 H 0.3919 -0.1997 0.4909
H38 H 0.3872 -0.2077 0.3996
C52 C 0.2852(6) -0.1601(6) 0.4287(11)
C53 C 0.2345(6) -0.2560(8) 0.5032(7)
H39 H 0.1852 -0.2599 0.5248
H40 H 0.2800 -0.2607 0.5445
H41 H 0.2363 -0.2898 0.4644
C54 C 0.1483(6) -0.1571(5) 0.4715(6)
H42 H 0.1178 -0.1856 0.5005
H43 H 0.1191 -0.1507 0.4193
H44 H 0.1564 -0.1154 0.4978
O23 O 0.3388(6) 0.0252(6) 0.3441(8)
loop_
_geom_bond_atom_site_label_1
_geom_bond_atom_site_label_2
_geom_bond_site_symmetry_1
_geom_bond_site_symmetry_2
Mn1 O1 1_555 1_555
Mn2 O7 1_555 1_555
Mn3 O13 1_555 1_555
S1 O16 1_555 1_555
S2 O18 1_555 1_555
S3 O20 1_555 1_555
N1 C44 1_555 1_555
N2 C48 1_555 1_555
O1 C29 1_555 1_555
O2 C28 1_555 1_555
O3 C42 1_555 1_555
O4 Mn1 1_555 1_555
O5 Mn1 1_555 1_555
O6 C14 1_555 1_555
O7 C15 1_555 1_555
O8 Mn2 1_555 1_555
O9 Mn2 1_555 1_555
O10 C28 1_555 1_555
O11 Mn2 1_555 1_555
O12 C42 1_555 1_555
O13 C48 1_555 1_555
O14 Mn3 1_555 1_555
O15 C14 1_555 1_555
O17 S1 1_555 1_555
O19 S2 1_555 1_555
O21 S3 1_555 1_555
C1 O4 1_555 1_555
C2 C1 1_555 1_555
C3 C2 1_555 1_555
H1 C3 1_555 1_555
C4 C3 1_555 1_555
H2 C4 1_555 1_555
C5 S1 1_555 1_555
C6 C5 1_555 1_555
H3 C6 1_555 1_555
C7 C2 1_555 1_555
H4 C7 1_555 1_555
C8 S1 1_555 1_555
C9 C8 1_555 1_555
H5 C9 1_555 1_555
C10 C9 1_555 1_555
H6 C10 1_555 1_555
C11 C10 1_555 1_555
C12 C11 1_555 1_555
H7 C12 1_555 1_555
C13 C8 1_555 1_555
H8 C13 1_555 1_555
C14 C11 1_555 1_555
C15 O5 1_555 1_555
C16 C15 1_555 1_555
C17 C16 1_555 1_555
H9 C17 1_555 1_555
C18 C17 1_555 1_555
H10 C18 1_555 1_555
C19 S2 1_555 1_555
C20 C19 1_555 1_555
H11 C20 1_555 1_555
C21 C16 1_555 1_555
H12 C21 1_555 1_555
C22 S2 1_555 1_555
C23 C22 1_555 1_555
H13 C23 1_555 1_555
C24 C23 1_555 1_555
H14 C24 1_555 1_555
C25 C24 1_555 1_555
C26 C25 1_555 1_555
H15 C26 1_555 1_555
C27 C22 1_555 1_555
H16 C27 1_555 1_555
C28 C25 1_555 1_555
C29 O14 1_555 1_555
C30 C29 1_555 1_555
C31 C30 1_555 1_555
H17 C31 1_555 1_555
C32 C31 1_555 1_555
H18 C32 1_555 1_555
C33 S3 1_555 1_555
C34 C33 1_555 1_555
H19 C34 1_555 1_555
C35 C30 1_555 1_555
H20 C35 1_555 1_555
C36 S3 1_555 1_555
C37 C36 1_555 1_555
H21 C37 1_555 1_555
C38 C37 1_555 1_555
H22 C38 1_555 1_555
C39 C38 1_555 1_555
C40 C39 1_555 1_555
H23 C40 1_555 1_555
C41 C36 1_555 1_555
H24 C41 1_555 1_555
C42 C39 1_555 1_555
C43 C44 1_555 1_555
C44 O9 1_555 1_555
C45 N1 1_555 1_555
C46 N1 1_555 1_555
C47 H25 1_555 1_555
H26 C47 1_555 1_555
H27 C47 1_555 1_555
C48 C47 1_555 1_555
C49 N2 1_555 1_555
H28 C49 1_555 1_555
H29 C49 1_555 1_555
H30 C49 1_555 1_555
C50 N2 1_555 1_555
H31 C50 1_555 1_555
H32 C50 1_555 1_555
H33 C50 1_555 1_555
H34 O11 1_555 1_555
H35 O11 1_555 1_555
N3 C52 1_555 1_555
O22 C52 1_555 1_555
C51 H36 1_555 1_555
H37 C51 1_555 1_555
H38 C51 1_555 1_555
C52 C51 1_555 1_555
C53 N3 1_555 1_555
H39 C53 1_555 1_555
H40 C53 1_555 1_555
H41 C53 1_555 1_555
C54 N3 1_555 1_555
H42 C54 1_555 1_555
H43 C54 1_555 1_555
H44 C54 1_555 1_555
Mn1A O3 1_555 1_555
Mn1A_2 O2 1_555 1_555
Mn1C O6 1_555 1_555
Mn2A O2 1_555 1_555
Mn3A O12 1_555 1_555
Mn3C O15 1_555 1_555
O2A Mn1 1_555 1_555
O3A Mn1 1_555 1_555
O6C Mn1 1_555 1_555
O10A Mn2 1_555 1_555
O12A Mn3 1_555 1_555
O15C Mn3 1_555 1_555
Mn2 O2A 1_555 1_555
O8 C1 1_555 1_555
O10 Mn2A 1_555 1_555
C4 C5 1_555 1_555
C6 C7 1_555 1_555
C12 C13 1_555 1_555
C18 C19 1_555 1_555
C20 C21 1_555 1_555
C26 C27 1_555 1_555
C32 C33 1_555 1_555
C34 C35 1_555 1_555
C40 C41 1_555 1_555

#END
