
#######################################################################
#
#                 Cambridge Crystallographic Data Centre
#                                CCDC 
#
#######################################################################
#
# If this CIF has been generated from an entry in the Cambridge 
# Structural Database, then it will include bibliographic, chemical, 
# crystal, experimental, refinement or atomic coordinate data resulting 
# from the CCDC's data processing and validation procedures.
#
#######################################################################

data_PUGLUA
_symmetry_cell_setting           monoclinic
_symmetry_space_group_name_H-M   'P 21/c'
_symmetry_Int_Tables_number      14
_space_group_name_Hall           '-P 2ybc'
loop_
_symmetry_equiv_pos_site_id
_symmetry_equiv_pos_as_xyz
1 x,y,z
2 -x,1/2+y,1/2-z
3 -x,-y,-z
4 x,1/2-y,1/2+z
_cell_length_a                   12.8050(11)
_cell_length_b                   21.5075(16)
_cell_length_c                   10.2905(7)
_cell_angle_alpha                90
_cell_angle_beta                 105.406(8)
_cell_angle_gamma                90
_cell_volume                     2732.21
loop_
_atom_site_label
_atom_site_type_symbol
_atom_site_fract_x
_atom_site_fract_y
_atom_site_fract_z
Hg1 Hg 0.57303(3) -0.03217(2) 0.37916(4)
Cu1 Cu 0.93152(10) -0.03662(5) 0.37819(11)
O1 O 1.0224(5) -0.0625(3) 0.5518(6)
O2 O 0.8052(6) -0.0366(3) 0.4456(6)
O3 O 0.7049(6) -0.0636(4) 0.5814(7)
O4 O 0.6040(8) -0.1059(5) 0.2603(11)
O5 O 0.4318(9) -0.1066(7) 0.1857(13)
O6 O 0.5470(7) 0.0549(4) 0.4578(8)
O7 O 0.5254(8) 0.0800(5) 0.2436(10)
N1 N 0.8429(8) -0.0261(4) 0.1861(8)
N2 N 1.0428(7) -0.0592(4) 0.2826(8)
C1 C 0.7418(10) -0.0042(6) 0.1468(11)
H1 H 0.7106 0.0140 0.2119
C2 C 0.6819(12) -0.0074(7) 0.0156(12)
H2 H 0.6087 0.0062 -0.0090
C3 C 0.7283(13) -0.0304(6) -0.0809(12)
H3 H 0.6886 -0.0316 -0.1731
C4 C 0.8318(12) -0.0514(6) -0.0416(11)
H4 H 0.8650 -0.0680 -0.1063
C5 C 0.8892(10) -0.0484(5) 0.0935(10)
C6 C 1.0017(10) -0.0679(5) 0.1474(10)
C7 C 1.0650(12) -0.0947(5) 0.0709(12)
H5 H 1.0357 -0.1017 -0.0230
C8 C 1.1700(13) -0.1109(6) 0.1328(15)
H6 H 1.2135 -0.1296 0.0819
C9 C 1.2130(11) -0.1001(6) 0.2693(13)
H7 H 1.2862 -0.1098 0.3133
C10 C 1.1444(10) -0.0746(5) 0.3384(11)
H8 H 1.1724 -0.0678 0.4325
C11 C 0.7932(8) -0.0667(5) 0.5489(9)
C12 C 0.8783(7) -0.1073(4) 0.6298(8)
C13 C 0.9861(8) -0.1045(4) 0.6241(9)
C14 C 1.0610(8) -0.1491(4) 0.7012(9)
C15 C 1.0258(8) -0.1928(4) 0.7771(9)
H9 H 1.0768 -0.2216 0.8278
C16 C 0.9179(9) -0.1968(4) 0.7833(9)
C17 C 0.8461(8) -0.1541(4) 0.7076(9)
H10 H 0.7721 -0.1564 0.7079
C18 C 1.1765(8) -0.1506(5) 0.6870(9)
H11 H 1.1951 -0.1081 0.6609
C19 C 1.2608(9) -0.1694(6) 0.8160(11)
H12 H 1.2489 -0.1457 0.8921
H13 H 1.3335 -0.1606 0.8065
H14 H 1.2542 -0.2140 0.8322
C20 C 1.1813(10) -0.1959(5) 0.5726(11)
H15 H 1.1644 -0.2381 0.5969
H16 H 1.2542 -0.1953 0.5589
H17 H 1.1284 -0.1832 0.4893
C21 C 0.8821(9) -0.2467(5) 0.8668(10)
H18 H 0.9397 -0.2500 0.9539
C22 C 0.8765(11) -0.3095(5) 0.7960(12)
H19 H 0.8197 -0.3083 0.7107
H20 H 0.8599 -0.3421 0.8539
H21 H 0.9464 -0.3183 0.7779
C23 C 0.7768(11) -0.2343(6) 0.9014(13)
H22 H 0.7808 -0.1940 0.9468
H23 H 0.7638 -0.2672 0.9613
H24 H 0.7174 -0.2338 0.8186
C24 C 0.5185(10) -0.1248(7) 0.1821(13)
C25 C 0.5303(11) -0.1707(6) 0.0740(14)
H25 H 0.4680 -0.1989 0.0525
H26 H 0.5971 -0.1948 0.1073
H27 H 0.5335 -0.1479 -0.0073
C26 C 0.5289(10) 0.0961(5) 0.3614(13)
C27 C 0.4956(12) 0.1590(6) 0.3946(16)
H28 H 0.5152 0.1897 0.3348
H29 H 0.5327 0.1690 0.4884
H30 H 0.4171 0.1597 0.3825
Hg1B Hg 0.42697(3) 0.03217(2) 0.62084(4)
Cu1B Cu 1.06848(10) 0.03662(5) 0.62181(11)
O1B O 0.9776(5) 0.0625(3) 0.4482(6)
O6B O 0.4530(7) -0.0549(4) 0.5422(8)
loop_
_geom_bond_atom_site_label_1
_geom_bond_atom_site_label_2
_geom_bond_site_symmetry_1
_geom_bond_site_symmetry_2
Hg1 O2 1_555 1_555
Cu1 O1 1_555 1_555
O1 C13 1_555 1_555
O2 Cu1 1_555 1_555
O3 Hg1 1_555 1_555
O4 Hg1 1_555 1_555
O5 Hg1 1_555 1_555
O6 Hg1 1_555 1_555
O7 Hg1 1_555 1_555
N1 Cu1 1_555 1_555
N2 Cu1 1_555 1_555
C1 N1 1_555 1_555
H1 C1 1_555 1_555
C2 C1 1_555 1_555
H2 C2 1_555 1_555
C3 C2 1_555 1_555
H3 C3 1_555 1_555
C4 C3 1_555 1_555
H4 C4 1_555 1_555
C5 N1 1_555 1_555
C6 N2 1_555 1_555
C7 C6 1_555 1_555
H5 C7 1_555 1_555
C8 C7 1_555 1_555
H6 C8 1_555 1_555
C9 C8 1_555 1_555
H7 C9 1_555 1_555
C10 N2 1_555 1_555
H8 C10 1_555 1_555
C11 O2 1_555 1_555
C12 C11 1_555 1_555
C13 C12 1_555 1_555
C14 C13 1_555 1_555
C15 C14 1_555 1_555
H9 C15 1_555 1_555
C16 C15 1_555 1_555
C17 C12 1_555 1_555
H10 C17 1_555 1_555
C18 C14 1_555 1_555
H11 C18 1_555 1_555
C19 C18 1_555 1_555
H12 C19 1_555 1_555
H13 C19 1_555 1_555
H14 C19 1_555 1_555
C20 C18 1_555 1_555
H15 C20 1_555 1_555
H16 C20 1_555 1_555
H17 C20 1_555 1_555
C21 C16 1_555 1_555
H18 C21 1_555 1_555
C22 C21 1_555 1_555
H19 C22 1_555 1_555
H20 C22 1_555 1_555
H21 C22 1_555 1_555
C23 C21 1_555 1_555
H22 C23 1_555 1_555
H23 C23 1_555 1_555
H24 C23 1_555 1_555
C24 O4 1_555 1_555
C25 C24 1_555 1_555
H25 C25 1_555 1_555
H26 C25 1_555 1_555
H27 C25 1_555 1_555
C26 O6 1_555 1_555
C27 C26 1_555 1_555
H28 C27 1_555 1_555
H29 C27 1_555 1_555
H30 C27 1_555 1_555
Hg1B O6 1_555 1_555
Cu1B O1 1_555 1_555
O1B Cu1 1_555 1_555
O6B Hg1 1_555 1_555
O3 C11 1_555 1_555
O5 C24 1_555 1_555
O7 C26 1_555 1_555
C4 C5 1_555 1_555
C5 C6 1_555 1_555
C9 C10 1_555 1_555
C16 C17 1_555 1_555
Hg1B O6B 1_555 1_555
Cu1B O1B 1_555 1_555

#END
