
#######################################################################
#
#                 Cambridge Crystallographic Data Centre
#                                CCDC 
#
#######################################################################
#
# If this CIF has been generated from an entry in the Cambridge 
# Structural Database, then it will include bibliographic, chemical, 
# crystal, experimental, refinement or atomic coordinate data resulting 
# from the CCDC's data processing and validation procedures.
#
#######################################################################

data_PUGNUC
_symmetry_cell_setting           triclinic
_symmetry_space_group_name_H-M   'P -1'
_symmetry_Int_Tables_number      2
_space_group_name_Hall           '-P 1'
loop_
_symmetry_equiv_pos_site_id
_symmetry_equiv_pos_as_xyz
1 x,y,z
2 -x,-y,-z
_cell_length_a                   10.8707(11)
_cell_length_b                   11.0487(11)
_cell_length_c                   11.5363(12)
_cell_angle_alpha                83.1390(10)
_cell_angle_beta                 65.2670(10)
_cell_angle_gamma                79.0900(10)
_cell_volume                     1234.48
loop_
_atom_site_label
_atom_site_type_symbol
_atom_site_fract_x
_atom_site_fract_y
_atom_site_fract_z
Cd1 Cd 0.0000 1.0000 0.0000
Cd2 Cd 0.06147(2) 0.65980(2) -0.01329(2)
Cl1 Cl -0.08494(9) 0.49092(8) 0.16895(7)
Cl2 Cl -0.15902(8) 0.82357(7) 0.07252(8)
Cl3 Cl -0.14829(10) 1.15360(8) 0.18534(7)
O1 O 0.1529(3) 1.0171(2) 0.3604(2)
N1 N 0.1170(3) 0.8884(2) 0.1185(2)
N2 N 0.1465(3) 0.7653(2) 0.0925(2)
N3 N 0.2500(3) 0.7933(2) 0.2113(2)
N4 N 0.2439(3) 0.5325(2) 0.0465(2)
C1 C 0.1805(3) 0.9033(3) 0.1891(3)
C2 C 0.2263(3) 0.7094(3) 0.1481(3)
C3 C 0.2826(3) 0.5774(3) 0.1275(3)
C4 C 0.3668(4) 0.5072(3) 0.1795(3)
H1 H 0.3920 0.5407 0.2350
C5 C 0.4136(4) 0.3849(3) 0.1472(3)
H2 H 0.4712 0.3353 0.1809
C6 C 0.3750(4) 0.3377(3) 0.0661(3)
H3 H 0.4053 0.2559 0.0437
C7 C 0.2892(3) 0.4148(3) 0.0173(3)
H4 H 0.2625 0.3828 -0.0380
C8 C 0.3159(3) 0.7644(3) 0.3004(3)
C9 C 0.2361(4) 0.7281(3) 0.4236(3)
H5 H 0.1429 0.7275 0.4492
C10 C 0.2974(4) 0.6927(3) 0.5080(3)
H6 H 0.2437 0.6707 0.5921
C11 C 0.4357(4) 0.6889(3) 0.4713(4)
C12 C 0.5117(4) 0.7265(4) 0.3482(4)
H7 H 0.6052 0.7257 0.3220
C13 C 0.4524(3) 0.7657(3) 0.2616(3)
H8 H 0.5049 0.7924 0.1788
C14 C 0.4993(6) 0.6455(4) 0.5667(5)
H9 H 0.5161 0.7155 0.5966
H10 H 0.5843 0.5918 0.5261
H11 H 0.4377 0.6017 0.6377
C15 C 0.1798(4) 1.0269(3) 0.2293(3)
H12 H 0.2679 1.0538 0.1801
H13 H 0.1097 1.0869 0.2144
C16 C 0.1426(4) 1.1234(3) 0.4175(3)
C17 C 0.1266(4) 1.2405(3) 0.3644(3)
H14 H 0.1231 1.2523 0.2846
C18 C 0.1156(4) 1.3410(4) 0.4324(4)
H15 H 0.1049 1.4203 0.3970
C19 C 0.1201(5) 1.3255(5) 0.5492(4)
H16 H 0.1123 1.3936 0.5934
C20 C 0.1364(4) 1.2073(5) 0.6016(4)
H17 H 0.1408 1.1961 0.6811
C21 C 0.1463(4) 1.1061(4) 0.5369(3)
H18 H 0.1554 1.0269 0.5733
Cd2A Cd -0.06147(2) 0.34020(2) 0.01329(2)
Cl1A Cl 0.08494(9) 0.50908(8) -0.16895(7)
Cl2A Cl 0.15902(8) 0.17643(7) -0.07252(8)
O1A O -0.1529(3) -0.0171(2) -0.3604(2)
N1A N -0.1170(3) 0.1116(2) -0.1185(2)
N2A N -0.1465(3) 0.2347(2) -0.0925(2)
N3A N -0.2500(3) 0.2067(2) -0.2113(2)
N4A N -0.2439(3) 0.4675(2) -0.0465(2)
C1A C -0.1805(3) 0.0967(3) -0.1891(3)
C2A C -0.2263(3) 0.2906(3) -0.1481(3)
C3A C -0.2826(3) 0.4226(3) -0.1275(3)
C4A C -0.3668(4) 0.4928(3) -0.1795(3)
H1A H -0.3920 0.4593 -0.2350
C5A C -0.4136(4) 0.6151(3) -0.1472(3)
H2A H -0.4712 0.6647 -0.1809
C6A C -0.3750(4) 0.6623(3) -0.0661(3)
H3A H -0.4053 0.7441 -0.0437
C7A C -0.2892(3) 0.5852(3) -0.0173(3)
H4A H -0.2625 0.6172 0.0380
C8A C -0.3159(3) 0.2356(3) -0.3004(3)
C9A C -0.2361(4) 0.2719(3) -0.4236(3)
H5A H -0.1429 0.2725 -0.4492
C10A C -0.2974(4) 0.3073(3) -0.5080(3)
H6A H -0.2437 0.3293 -0.5921
C11A C -0.4357(4) 0.3111(3) -0.4713(4)
C12A C -0.5117(4) 0.2735(4) -0.3482(4)
H7A H -0.6052 0.2743 -0.3220
C13A C -0.4524(3) 0.2343(3) -0.2616(3)
H8A H -0.5049 0.2076 -0.1788
C14A C -0.4993(6) 0.3545(4) -0.5667(5)
H9A H -0.5161 0.2845 -0.5966
H10A H -0.5843 0.4082 -0.5261
H11A H -0.4377 0.3983 -0.6377
C15A C -0.1798(4) -0.0269(3) -0.2293(3)
H12A H -0.2679 -0.0538 -0.1801
H13A H -0.1097 -0.0869 -0.2144
C16A C -0.1426(4) -0.1234(3) -0.4175(3)
C17A C -0.1266(4) -0.2405(3) -0.3644(3)
H14A H -0.1231 -0.2523 -0.2846
C18A C -0.1156(4) -0.3410(4) -0.4324(4)
H15A H -0.1049 -0.4203 -0.3970
C19A C -0.1201(5) -0.3255(5) -0.5492(4)
H16A H -0.1123 -0.3936 -0.5934
C20A C -0.1364(4) -0.2073(5) -0.6016(4)
H17A H -0.1408 -0.1961 -0.6811
C21A C -0.1463(4) -0.1061(4) -0.5369(3)
H18A H -0.1554 -0.0269 -0.5733
Cl3A Cl 0.14829(10) 0.84640(8) -0.18534(7)
Cd1_2 Cd 0.0000 0.0000 0.0000
Cd2A_2 Cd -0.06147(2) 1.34020(2) 0.01329(2)
Cl2A_2 Cl 0.15902(8) 1.17643(7) -0.07252(8)
Cl3_2 Cl -0.14829(10) 0.15360(8) 0.18534(7)
N1A_2 N -0.1170(3) 1.1116(2) -0.1185(2)
N5 N 0.5593(7) 0.0789(6) 0.0929(7)
C22 C 0.5484(6) 0.0597(5) 0.1929(9)
C23 C 0.5431(6) 0.0354(5) 0.3226(7)
H19 H 0.5662 -0.0516 0.3372
H20 H 0.4522 0.0638 0.3835
H21 H 0.6072 0.0782 0.3321
loop_
_geom_bond_atom_site_label_1
_geom_bond_atom_site_label_2
_geom_bond_site_symmetry_1
_geom_bond_site_symmetry_2
Cd1 Cl2 1_555 1_555
Cd2 Cl1 1_555 1_555
Cl1 Cd2A 1_555 1_555
Cl2 Cd2 1_555 1_555
Cl3 Cd1 1_555 1_555
O1 C15 1_555 1_555
N1 Cd1 1_555 1_555
N2 Cd2 1_555 1_555
N3 C1 1_555 1_555
N4 Cd2 1_555 1_555
C1 N1 1_555 1_555
C2 N2 1_555 1_555
C3 N4 1_555 1_555
C4 C3 1_555 1_555
H1 C4 1_555 1_555
C5 C4 1_555 1_555
H2 C5 1_555 1_555
C6 C5 1_555 1_555
H3 C6 1_555 1_555
C7 N4 1_555 1_555
H4 C7 1_555 1_555
C8 N3 1_555 1_555
C9 C8 1_555 1_555
H5 C9 1_555 1_555
C10 C9 1_555 1_555
H6 C10 1_555 1_555
C11 C10 1_555 1_555
C12 C11 1_555 1_555
H7 C12 1_555 1_555
C13 C8 1_555 1_555
H8 C13 1_555 1_555
C14 C11 1_555 1_555
H9 C14 1_555 1_555
H10 C14 1_555 1_555
H11 C14 1_555 1_555
C15 C1 1_555 1_555
H12 C15 1_555 1_555
H13 C15 1_555 1_555
C16 O1 1_555 1_555
C17 C16 1_555 1_555
H14 C17 1_555 1_555
C18 C17 1_555 1_555
H15 C18 1_555 1_555
C19 C18 1_555 1_555
H16 C19 1_555 1_555
C20 C19 1_555 1_555
H17 C20 1_555 1_555
C21 C16 1_555 1_555
H18 C21 1_555 1_555
N5 C22 1_555 1_555
C22 C23 1_555 1_555
C23 H19 1_555 1_555
H20 C23 1_555 1_555
H21 C23 1_555 1_555
Cd2A Cl1A 1_555 1_555
Cl1A Cd2 1_555 1_555
Cl2A Cd2A 1_555 1_555
O1A C15A 1_555 1_555
N1A N2A 1_555 1_555
N2A Cd2A 1_555 1_555
N3A C1A 1_555 1_555
N4A Cd2A 1_555 1_555
C1A N1A 1_555 1_555
C2A N2A 1_555 1_555
C3A N4A 1_555 1_555
C4A C3A 1_555 1_555
H1A C4A 1_555 1_555
C5A C4A 1_555 1_555
H2A C5A 1_555 1_555
C6A C5A 1_555 1_555
H3A C6A 1_555 1_555
C7A N4A 1_555 1_555
H4A C7A 1_555 1_555
C8A N3A 1_555 1_555
C9A C8A 1_555 1_555
H5A C9A 1_555 1_555
C10A C9A 1_555 1_555
H6A C10A 1_555 1_555
C11A C10A 1_555 1_555
C12A C11A 1_555 1_555
H7A C12A 1_555 1_555
C13A C8A 1_555 1_555
H8A C13A 1_555 1_555
C14A C11A 1_555 1_555
H9A C14A 1_555 1_555
H10A C14A 1_555 1_555
H11A C14A 1_555 1_555
C15A C1A 1_555 1_555
H12A C15A 1_555 1_555
H13A C15A 1_555 1_555
C16A O1A 1_555 1_555
C17A C16A 1_555 1_555
H14A C17A 1_555 1_555
C18A C17A 1_555 1_555
H15A C18A 1_555 1_555
C19A C18A 1_555 1_555
H16A C19A 1_555 1_555
C20A C19A 1_555 1_555
H17A C20A 1_555 1_555
C21A C16A 1_555 1_555
H18A C21A 1_555 1_555
Cl3A Cd1 1_555 1_555
Cd1_2 Cl2A 1_555 1_555
Cd2A_2 Cl3 1_555 1_555
Cl2A_2 Cd1 1_555 1_555
Cl3_2 Cd2A 1_555 1_555
N1A_2 Cd1 1_555 1_555
Cd2 Cl3A 1_555 1_555
N1 N2 1_555 1_555
N3 C2 1_555 1_555
C2 C3 1_555 1_555
C6 C7 1_555 1_555
C12 C13 1_555 1_555
C20 C21 1_555 1_555
N1A Cd1_2 1_555 1_555
N3A C2A 1_555 1_555
C2A C3A 1_555 1_555
C6A C7A 1_555 1_555
C12A C13A 1_555 1_555
C20A C21A 1_555 1_555
Cd1_2 Cl3_2 1_555 1_555
Cd2A_2 Cl2A_2 1_555 1_555

#END
