
#######################################################################
#
#                 Cambridge Crystallographic Data Centre
#                                CCDC 
#
#######################################################################
#
# If this CIF has been generated from an entry in the Cambridge 
# Structural Database, then it will include bibliographic, chemical, 
# crystal, experimental, refinement or atomic coordinate data resulting 
# from the CCDC's data processing and validation procedures.
#
#######################################################################

data_PUGTAM
_symmetry_cell_setting           monoclinic
_symmetry_space_group_name_H-M   'P 21/n'
_symmetry_Int_Tables_number      14
_space_group_name_Hall           '-P 2yn'
loop_
_symmetry_equiv_pos_site_id
_symmetry_equiv_pos_as_xyz
1 x,y,z
2 1/2-x,1/2+y,1/2-z
3 -x,-y,-z
4 1/2+x,1/2-y,1/2+z
_cell_length_a                   12.478(5)
_cell_length_b                   14.581(4)
_cell_length_c                   5.765(14)
_cell_angle_alpha                90
_cell_angle_beta                 98.1(1)
_cell_angle_gamma                90
_cell_volume                     1038.43
loop_
_atom_site_label
_atom_site_type_symbol
_atom_site_fract_x
_atom_site_fract_y
_atom_site_fract_z
P1 P 0.1433(2) -0.0994(2) -0.2715(6)
P2 P 0.2313(2) 0.0941(2) -0.2181(6)
O1 O 0.0562(5) -0.0599(4) -0.1342(13)
O2 O 0.1569(6) -0.0918(4) -0.5329(15)
O3 O 0.1683(6) -0.1980(4) -0.1918(14)
O4 O 0.1911(5) 0.1089(4) -0.4724(13)
O5 O 0.1557(5) 0.1245(4) -0.0486(13)
O6 O 0.3427(5) 0.1340(4) -0.1493(14)
O7 O 0.2817(5) -0.0389(4) 0.0906(15)
C1 C 0.2645(8) -0.0289(6) -0.1609(25)
C2 C 0.3666(8) -0.0515(6) -0.2717(21)
C3 C 0.4146(8) -0.1476(7) -0.2207(21)
Cd1 Cd 0.1152(1) 0.0233(1) 0.2237(2)
C4 C 0.5081(8) -0.1637(6) -0.3597(21)
N1 N 0.5425(7) -0.2618(5) -0.3382(18)
Cd1B Cd -0.1152(1) -0.0233(1) -0.2237(2)
Cd1_2 Cd 0.1152(1) 0.0233(1) -0.7763(2)
O1B O -0.0562(5) 0.0599(4) 0.1342(13)
O2_2 O 0.1569(6) -0.0918(4) 0.4671(15)
O4_2 O 0.1911(5) 0.1089(4) 0.5276(13)
O8 O 0.1926(7) 0.2757(5) 0.2572(16)
loop_
_geom_bond_atom_site_label_1
_geom_bond_atom_site_label_2
_geom_bond_site_symmetry_1
_geom_bond_site_symmetry_2
P1 O1 1_555 1_555
P2 O4 1_555 1_555
O1 Cd1 1_555 1_555
O2 P1 1_555 1_555
O3 P1 1_555 1_555
O4 Cd1_2 1_555 1_555
O5 P2 1_555 1_555
O6 P2 1_555 1_555
O7 C1 1_555 1_555
C1 P1 1_555 1_555
C2 C1 1_555 1_555
C3 C2 1_555 1_555
Cd1 O5 1_555 1_555
C4 C3 1_555 1_555
N1 C4 1_555 1_555
Cd1B O1 1_555 1_555
Cd1_2 O2 1_555 1_555
O1B Cd1 1_555 1_555
O2_2 Cd1 1_555 1_555
O4_2 Cd1 1_555 1_555
P2 C1 1_555 1_555
O7 Cd1 1_555 1_555
Cd1B O1B 1_555 1_555

#END
