
#######################################################################
#
#                 Cambridge Crystallographic Data Centre
#                                CCDC 
#
#######################################################################
#
# If this CIF has been generated from an entry in the Cambridge 
# Structural Database, then it will include bibliographic, chemical, 
# crystal, experimental, refinement or atomic coordinate data resulting 
# from the CCDC's data processing and validation procedures.
#
#######################################################################

data_PUHKUA
_symmetry_cell_setting           triclinic
_symmetry_space_group_name_H-M   'P -1'
_symmetry_Int_Tables_number      2
_space_group_name_Hall           '-P 1'
loop_
_symmetry_equiv_pos_site_id
_symmetry_equiv_pos_as_xyz
1 x,y,z
2 -x,-y,-z
_cell_length_a                   13.115(2)
_cell_length_b                   13.996(3)
_cell_length_c                   21.612(4)
_cell_angle_alpha                97.051(3)
_cell_angle_beta                 100.361(3)
_cell_angle_gamma                101.623(3)
_cell_volume                     3769.94
loop_
_atom_site_label
_atom_site_type_symbol
_atom_site_fract_x
_atom_site_fract_y
_atom_site_fract_z
C1 C 0.4328(6) 0.7940(7) 0.3128(4)
H1 H 0.3760 0.8013 0.2826
C2 C 0.4217(7) 0.7082(7) 0.3395(4)
H2 H 0.3587 0.6596 0.3283
C3 C 0.5071(7) 0.6975(8) 0.3831(4)
H3 H 0.5029 0.6409 0.4018
C4 C 0.5984(7) 0.7709(7) 0.3989(4)
H4 H 0.6562 0.7630 0.4282
C5 C 0.6067(6) 0.8576(6) 0.3720(3)
C6 C 0.6966(6) 0.9416(6) 0.3877(3)
C7 C 0.6834(5) 1.0191(6) 0.3534(3)
C8 C 0.7655(6) 1.1051(7) 0.3687(4)
H5 H 0.7596 1.1579 0.3471
C9 C 0.8561(6) 1.1123(8) 0.4160(4)
H6 H 0.9095 1.1700 0.4250
C10 C 0.8684(6) 1.0369(8) 0.4494(4)
H7 H 0.9289 1.0425 0.4808
C11 C 0.7876(6) 0.9521(6) 0.4348(3)
H8 H 0.7942 0.9003 0.4572
N1 N 0.5751(4) 1.1302(4) 0.2643(3)
C12 C 0.6276(5) 1.1509(6) 0.2154(3)
H9 H 0.6428 1.0999 0.1893
C13 C 0.6575(6) 1.2480(7) 0.2054(4)
H10 H 0.6926 1.2619 0.1727
C14 C 0.6348(8) 1.3242(5) 0.2443(5)
H11 H 0.6548 1.3891 0.2376
C15 C 0.5823(8) 1.3035(5) 0.2932(4)
H12 H 0.5671 1.3545 0.3192
C16 C 0.5524(6) 1.2064(6) 0.3032(3)
C17 C 0.4994(7) 1.1730(8) 0.3520(4)
C18 C 0.4945(6) 1.0739(6) 0.3595(4)
C19 C 0.4519(6) 1.0429(7) 0.4108(4)
H13 H 0.4488 0.9784 0.4182
C20 C 0.4144(6) 1.1064(7) 0.4504(4)
H14 H 0.3890 1.0845 0.4849
C21 C 0.4139(8) 1.1977(9) 0.4406(5)
H15 H 0.3844 1.2383 0.4662
C22 C 0.4588(9) 1.2324(9) 0.3909(6)
H16 H 0.4607 1.2972 0.3846
C23 C 0.3739(7) 0.9894(8) 0.1703(4)
H17 H 0.4342 1.0003 0.1528
C24 C 0.2774(7) 0.9914(8) 0.1326(4)
H18 H 0.2728 0.9997 0.0903
C25 C 0.1877(6) 0.9809(8) 0.1588(4)
C26 C 0.1977(6) 0.9654(7) 0.2215(4)
H19 H 0.1391 0.9563 0.2406
C27 C 0.2966(6) 0.9638(7) 0.2545(4)
H20 H 0.3032 0.9558 0.2971
C28 C 0.0793(8) 0.9902(11) 0.1220(6)
C29 C 0.6993(5) 0.9279(8) 0.2095(3)
H21 H 0.7475 0.9817 0.2359
C30 C 0.7356(6) 0.8713(7) 0.1666(4)
H22 H 0.8070 0.8868 0.1644
C31 C 0.6666(7) 0.7903(7) 0.1262(3)
C32 C 0.5599(6) 0.7721(7) 0.1323(4)
H23 H 0.5096 0.7202 0.1055
C33 C 0.5312(6) 0.8294(7) 0.1766(4)
H24 H 0.4608 0.8128 0.1809
C34 C 0.7012(8) 0.7230(8) 0.0771(4)
Ir1 Ir 0.54336(2) 0.99511(3) 0.291510(13)
N2 N 0.5209(5) 0.8668(5) 0.3284(3)
N3 N 0.3853(5) 0.9730(6) 0.2302(3)
N4 N 0.5958(5) 0.9102(6) 0.2161(3)
O1 O 0.0042(5) 0.9751(7) 0.1481(4)
O2 O 0.0752(6) 0.9987(11) 0.0649(5)
O3 O 0.7979(7) 0.7355(7) 0.0812(4)
O4 O 0.6385(7) 0.6618(6) 0.0403(3)
C35 C 0.9792(7) 0.4562(8) 0.2683(5)
H25 H 1.0018 0.4829 0.2344
C36 C 0.9683(8) 0.3515(9) 0.2674(6)
H26 H 0.9841 0.3104 0.2350
C37 C 0.9323(9) 0.3176(8) 0.3187(6)
H27 H 0.9228 0.2505 0.3208
C38 C 0.9104(8) 0.3772(9) 0.3657(5)
H28 H 0.8872 0.3510 0.3996
C39 C 0.9223(6) 0.4789(7) 0.3641(4)
C40 C 0.9021(4) 0.5535(4) 0.4123(2)
C41 C 0.9204(4) 0.6502(4) 0.40038(19)
C42 C 0.9053(4) 0.7254(3) 0.4437(2)
H29 H 0.9175 0.7901 0.4357
C43 C 0.8718(4) 0.7039(4) 0.4989(2)
H30 H 0.8616 0.7542 0.5279
C44 C 0.8534(5) 0.6072(5) 0.5108(2)
H31 H 0.8310 0.5929 0.5478
C45 C 0.8686(5) 0.5320(4) 0.4676(3)
H32 H 0.8563 0.4674 0.4755
C46 C 0.9489(6) 0.8729(7) 0.3073(4)
H33 H 0.8844 0.8406 0.2803
C47 C 0.9755(6) 0.9741(8) 0.3164(4)
H34 H 0.9303 1.0092 0.2959
C48 C 1.0703(7) 1.0230(7) 0.3564(4)
H35 H 1.0904 1.0917 0.3631
C49 C 1.1348(7) 0.9695(7) 0.3863(4)
H36 H 1.1985 1.0021 0.4140
C50 C 1.1061(6) 0.8678(7) 0.3757(3)
C51 C 1.1674(5) 0.7999(6) 0.4038(3)
C52 C 1.1248(6) 0.6985(7) 0.3802(3)
C53 C 1.1808(6) 0.6353(7) 0.4050(4)
H37 H 1.1567 0.5681 0.3894
C54 C 1.2716(6) 0.6661(8) 0.4523(4)
H38 H 1.3069 0.6202 0.4685
C55 C 1.3088(6) 0.7637(7) 0.4750(4)
H39 H 1.3696 0.7845 0.5073
C56 C 1.2590(6) 0.8325(7) 0.4514(4)
H40 H 1.2859 0.8996 0.4669
C57 C 0.7954(6) 0.5749(7) 0.2046(4)
H41 H 0.8499 0.5556 0.1877
C58 C 0.6904(6) 0.5390(6) 0.1714(3)
H42 H 0.6754 0.4954 0.1331
C59 C 0.6091(6) 0.5678(7) 0.1952(4)
C60 C 0.6358(6) 0.6326(7) 0.2525(4)
H43 H 0.5834 0.6551 0.2699
C61 C 0.7413(6) 0.6631(7) 0.2832(4)
H44 H 0.7578 0.7049 0.3223
C62 C 0.4901(8) 0.5267(8) 0.1620(5)
C63 C 1.1466(6) 0.6546(7) 0.2348(4)
H45 H 1.1785 0.6297 0.2694
C64 C 1.1964(7) 0.6631(8) 0.1864(4)
H46 H 1.2585 0.6405 0.1868
C65 C 1.1550(7) 0.7061(8) 0.1347(4)
C66 C 1.0601(8) 0.7346(7) 0.1358(4)
H47 H 1.0279 0.7606 0.1018
C67 C 1.0119(7) 0.7235(7) 0.1899(4)
H48 H 0.9511 0.7470 0.1923
C68 C 1.2089(10) 0.7179(9) 0.0784(4)
Ir2 Ir 0.98073(2) 0.66793(2) 0.320429(13)
N5 N 0.9586(5) 0.5189(5) 0.3156(3)
N6 N 1.0108(5) 0.8175(5) 0.3352(3)
N7 N 0.8198(5) 0.6368(5) 0.2607(3)
N8 N 1.0531(5) 0.6798(5) 0.2370(3)
O5 O 0.4218(5) 0.5478(7) 0.1894(4)
O6 O 0.4764(6) 0.4728(7) 0.1097(4)
O7 O 1.1554(8) 0.7416(9) 0.0331(5)
O8 O 1.2976(7) 0.7045(13) 0.0853(4)
Mg1 Mg 0.5000 0.5000 0.0000
K1 K -0.1354(3) 0.9239(10) 0.0236(2)
C1A C -0.4328(6) 1.2060(7) -0.3128(4)
H1A H -0.3760 1.1987 -0.2826
C2A C -0.4217(7) 1.2918(7) -0.3395(4)
H2A H -0.3587 1.3404 -0.3283
C3A C -0.5071(7) 1.3025(8) -0.3831(4)
H3A H -0.5029 1.3591 -0.4018
C4A C -0.5984(7) 1.2291(7) -0.3989(4)
H4A H -0.6562 1.2370 -0.4282
C5A C -0.6067(6) 1.1424(6) -0.3720(3)
C6A C -0.6966(6) 1.0584(6) -0.3877(3)
C7A C -0.6834(5) 0.9809(6) -0.3534(3)
C8A C -0.7655(6) 0.8949(7) -0.3687(4)
H5A H -0.7596 0.8421 -0.3471
C9A C -0.8561(6) 0.8877(8) -0.4160(4)
H6A H -0.9095 0.8300 -0.4250
C10A C -0.8684(6) 0.9631(8) -0.4494(4)
H7A H -0.9289 0.9575 -0.4808
C11A C -0.7876(6) 1.0479(6) -0.4348(3)
H8A H -0.7942 1.0997 -0.4572
N1A N -0.5751(4) 0.8698(4) -0.2643(3)
C12A C -0.6276(5) 0.8491(6) -0.2154(3)
H9A H -0.6428 0.9001 -0.1893
C13A C -0.6575(6) 0.7520(7) -0.2054(4)
H10A H -0.6926 0.7381 -0.1727
C14A C -0.6348(8) 0.6758(5) -0.2443(5)
H11A H -0.6548 0.6109 -0.2376
C15A C -0.5823(8) 0.6965(5) -0.2932(4)
H12A H -0.5671 0.6455 -0.3192
C16A C -0.5524(6) 0.7936(6) -0.3032(3)
C17A C -0.4994(7) 0.8270(8) -0.3520(4)
C18A C -0.4945(6) 0.9261(6) -0.3595(4)
C19A C -0.4519(6) 0.9571(7) -0.4108(4)
H13A H -0.4488 1.0216 -0.4182
C20A C -0.4144(6) 0.8936(7) -0.4504(4)
H14A H -0.3890 0.9155 -0.4849
C21A C -0.4139(8) 0.8023(9) -0.4406(5)
H15A H -0.3844 0.7617 -0.4662
C22A C -0.4588(9) 0.7676(9) -0.3909(6)
H16A H -0.4607 0.7028 -0.3846
C23A C -0.3739(7) 1.0106(8) -0.1703(4)
H17A H -0.4342 0.9997 -0.1528
C24A C -0.2774(7) 1.0086(8) -0.1326(4)
H18A H -0.2728 1.0003 -0.0903
C25A C -0.1877(6) 1.0191(8) -0.1588(4)
C26A C -0.1977(6) 1.0346(7) -0.2215(4)
H19A H -0.1391 1.0437 -0.2406
C27A C -0.2966(6) 1.0362(7) -0.2545(4)
H20A H -0.3032 1.0442 -0.2971
C28A C -0.0793(8) 1.0098(11) -0.1220(6)
C29A C -0.6993(5) 1.0721(8) -0.2095(3)
H21A H -0.7475 1.0183 -0.2359
C30A C -0.7356(6) 1.1287(7) -0.1666(4)
H22A H -0.8070 1.1132 -0.1644
C31A C -0.6666(7) 1.2097(7) -0.1262(3)
C32A C -0.5599(6) 1.2279(7) -0.1323(4)
H23A H -0.5096 1.2798 -0.1055
C33A C -0.5312(6) 1.1706(7) -0.1766(4)
H24A H -0.4608 1.1872 -0.1809
C34A C -0.7012(8) 1.2770(8) -0.0771(4)
Ir1A Ir -0.54336(2) 1.00489(3) -0.291510(13)
N2A N -0.5209(5) 1.1332(5) -0.3284(3)
N3A N -0.3853(5) 1.0270(6) -0.2302(3)
N4A N -0.5958(5) 1.0898(6) -0.2161(3)
O1A O -0.0042(5) 1.0249(7) -0.1481(4)
O2A O -0.0752(6) 1.0013(11) -0.0649(5)
O3A O -0.7979(7) 1.2645(7) -0.0812(4)
O4A O -0.6385(7) 1.3382(6) -0.0403(3)
K1A K 0.1354(3) 1.0761(10) -0.0236(2)
C35A C 0.0208(7) 0.5438(8) -0.2683(5)
H25A H -0.0018 0.5171 -0.2344
C36A C 0.0317(8) 0.6485(9) -0.2674(6)
H26A H 0.0159 0.6896 -0.2350
C37A C 0.0677(9) 0.6824(8) -0.3187(6)
H27A H 0.0772 0.7495 -0.3208
C38A C 0.0896(8) 0.6228(9) -0.3657(5)
H28A H 0.1128 0.6490 -0.3996
C39A C 0.0777(6) 0.5211(7) -0.3641(4)
C40A C 0.0979(4) 0.4465(4) -0.4123(2)
C41A C 0.0796(4) 0.3498(4) -0.40038(19)
C42A C 0.0947(4) 0.2746(3) -0.4437(2)
H29A H 0.0825 0.2099 -0.4357
C43A C 0.1282(4) 0.2961(4) -0.4989(2)
H30A H 0.1384 0.2458 -0.5279
C44A C 0.1466(5) 0.3928(5) -0.5108(2)
H31A H 0.1690 0.4071 -0.5478
C45A C 0.1314(5) 0.4680(4) -0.4676(3)
H32A H 0.1437 0.5326 -0.4755
C46A C 0.0511(6) 0.1271(7) -0.3073(4)
H33A H 0.1156 0.1594 -0.2803
C47A C 0.0245(6) 0.0259(8) -0.3164(4)
H34A H 0.0697 -0.0092 -0.2959
C48A C -0.0703(7) -0.0230(7) -0.3564(4)
H35A H -0.0904 -0.0917 -0.3631
C49A C -0.1348(7) 0.0305(7) -0.3863(4)
H36A H -0.1985 -0.0021 -0.4140
C50A C -0.1061(6) 0.1322(7) -0.3757(3)
C51A C -0.1674(5) 0.2001(6) -0.4038(3)
C52A C -0.1248(6) 0.3015(7) -0.3802(3)
C53A C -0.1808(6) 0.3647(7) -0.4050(4)
H37A H -0.1567 0.4319 -0.3894
C54A C -0.2716(6) 0.3339(8) -0.4523(4)
H38A H -0.3069 0.3798 -0.4685
C55A C -0.3088(6) 0.2363(7) -0.4750(4)
H39A H -0.3696 0.2155 -0.5073
C56A C -0.2590(6) 0.1675(7) -0.4514(4)
H40A H -0.2859 0.1004 -0.4669
C57A C 0.2046(6) 0.4251(7) -0.2046(4)
H41A H 0.1501 0.4444 -0.1877
C58A C 0.3096(6) 0.4610(6) -0.1714(3)
H42A H 0.3246 0.5046 -0.1331
C59A C 0.3909(6) 0.4322(7) -0.1952(4)
C60A C 0.3642(6) 0.3674(7) -0.2525(4)
H43A H 0.4166 0.3449 -0.2699
C61A C 0.2587(6) 0.3369(7) -0.2832(4)
H44A H 0.2422 0.2951 -0.3223
C62A C 0.5099(8) 0.4733(8) -0.1620(5)
C63A C -0.1466(6) 0.3454(7) -0.2348(4)
H45A H -0.1785 0.3703 -0.2694
C64A C -0.1964(7) 0.3369(8) -0.1864(4)
H46A H -0.2585 0.3595 -0.1868
C65A C -0.1550(7) 0.2939(8) -0.1347(4)
C66A C -0.0601(8) 0.2654(7) -0.1358(4)
H47A H -0.0279 0.2394 -0.1018
C67A C -0.0119(7) 0.2765(7) -0.1899(4)
H48A H 0.0489 0.2530 -0.1923
C68A C -0.2089(10) 0.2821(9) -0.0784(4)
Ir2A Ir 0.01927(2) 0.33207(2) -0.320429(13)
N5A N 0.0414(5) 0.4811(5) -0.3156(3)
N6A N -0.0108(5) 0.1825(5) -0.3352(3)
N7A N 0.1802(5) 0.3632(5) -0.2607(3)
N8A N -0.0531(5) 0.3202(5) -0.2370(3)
O5A O 0.5782(5) 0.4522(7) -0.1894(4)
O6A O 0.5236(6) 0.5272(7) -0.1097(4)
O7A O -0.1554(8) 0.2584(9) -0.0331(5)
O8A O -0.2976(7) 0.2955(13) -0.0853(4)
O4A_2 O 0.3615(7) 0.3382(6) -0.0403(3)
Mg1_2 Mg -0.5000 1.5000 0.0000
loop_
_geom_bond_atom_site_label_1
_geom_bond_atom_site_label_2
_geom_bond_site_symmetry_1
_geom_bond_site_symmetry_2
C1 H1 1_555 1_555
C2 C1 1_555 1_555
H2 C2 1_555 1_555
C3 C2 1_555 1_555
H3 C3 1_555 1_555
C4 C3 1_555 1_555
H4 C4 1_555 1_555
C5 C4 1_555 1_555
C6 C5 1_555 1_555
C7 C6 1_555 1_555
C8 C7 1_555 1_555
H5 C8 1_555 1_555
C9 C8 1_555 1_555
H6 C9 1_555 1_555
C10 C9 1_555 1_555
H7 C10 1_555 1_555
C11 C6 1_555 1_555
H8 C11 1_555 1_555
N1 C12 1_555 1_555
C12 H9 1_555 1_555
C13 C12 1_555 1_555
H10 C13 1_555 1_555
C14 C13 1_555 1_555
H11 C14 1_555 1_555
C15 C14 1_555 1_555
H12 C15 1_555 1_555
C16 N1 1_555 1_555
C17 C16 1_555 1_555
C18 C17 1_555 1_555
C19 C18 1_555 1_555
H13 C19 1_555 1_555
C20 C19 1_555 1_555
H14 C20 1_555 1_555
C21 C20 1_555 1_555
H15 C21 1_555 1_555
C22 C17 1_555 1_555
H16 C22 1_555 1_555
C23 H17 1_555 1_555
C24 C23 1_555 1_555
H18 C24 1_555 1_555
C25 C24 1_555 1_555
C26 C25 1_555 1_555
H19 C26 1_555 1_555
C27 C26 1_555 1_555
H20 C27 1_555 1_555
C28 C25 1_555 1_555
C29 H21 1_555 1_555
C30 C29 1_555 1_555
H22 C30 1_555 1_555
C31 C30 1_555 1_555
C32 C31 1_555 1_555
H23 C32 1_555 1_555
C33 C32 1_555 1_555
H24 C33 1_555 1_555
C34 C31 1_555 1_555
Ir1 C7 1_555 1_555
N2 C1 1_555 1_555
N3 C23 1_555 1_555
N4 C29 1_555 1_555
O1 C28 1_555 1_555
O2 C28 1_555 1_555
O3 C34 1_555 1_555
O4 C34 1_555 1_555
C35 H25 1_555 1_555
C36 C35 1_555 1_555
H26 C36 1_555 1_555
C37 C36 1_555 1_555
H27 C37 1_555 1_555
C38 C37 1_555 1_555
H28 C38 1_555 1_555
C39 C38 1_555 1_555
C40 C39 1_555 1_555
C41 C40 1_555 1_555
C42 C41 1_555 1_555
H29 C42 1_555 1_555
C43 C42 1_555 1_555
H30 C43 1_555 1_555
C44 C43 1_555 1_555
H31 C44 1_555 1_555
C45 C40 1_555 1_555
H32 C45 1_555 1_555
C46 H33 1_555 1_555
C47 C46 1_555 1_555
H34 C47 1_555 1_555
C48 C47 1_555 1_555
H35 C48 1_555 1_555
C49 C48 1_555 1_555
H36 C49 1_555 1_555
C50 C49 1_555 1_555
C51 C50 1_555 1_555
C52 C51 1_555 1_555
C53 C52 1_555 1_555
H37 C53 1_555 1_555
C54 C53 1_555 1_555
H38 C54 1_555 1_555
C55 C54 1_555 1_555
H39 C55 1_555 1_555
C56 C51 1_555 1_555
H40 C56 1_555 1_555
C57 H41 1_555 1_555
C58 C57 1_555 1_555
H42 C58 1_555 1_555
C59 C58 1_555 1_555
C60 C59 1_555 1_555
H43 C60 1_555 1_555
C61 C60 1_555 1_555
H44 C61 1_555 1_555
C62 C59 1_555 1_555
C63 H45 1_555 1_555
C64 C63 1_555 1_555
H46 C64 1_555 1_555
C65 C64 1_555 1_555
C66 C65 1_555 1_555
H47 C66 1_555 1_555
C67 C66 1_555 1_555
H48 C67 1_555 1_555
C68 C65 1_555 1_555
Ir2 C41 1_555 1_555
N5 C35 1_555 1_555
N6 C46 1_555 1_555
N7 C57 1_555 1_555
N8 C63 1_555 1_555
O5 C62 1_555 1_555
O6 C62 1_555 1_555
O7 C68 1_555 1_555
O8 C68 1_555 1_555
Mg1 O4 1_555 1_555
K1 O2 1_555 1_555
C1A H1A 1_555 1_555
C2A C1A 1_555 1_555
H2A C2A 1_555 1_555
C3A C2A 1_555 1_555
H3A C3A 1_555 1_555
C4A C3A 1_555 1_555
H4A C4A 1_555 1_555
C5A C4A 1_555 1_555
C6A C5A 1_555 1_555
C7A C6A 1_555 1_555
C8A C7A 1_555 1_555
H5A C8A 1_555 1_555
C9A C8A 1_555 1_555
H6A C9A 1_555 1_555
C10A C9A 1_555 1_555
H7A C10A 1_555 1_555
C11A C6A 1_555 1_555
H8A C11A 1_555 1_555
N1A C12A 1_555 1_555
C12A H9A 1_555 1_555
C13A C12A 1_555 1_555
H10A C13A 1_555 1_555
C14A C13A 1_555 1_555
H11A C14A 1_555 1_555
C15A C14A 1_555 1_555
H12A C15A 1_555 1_555
C16A N1A 1_555 1_555
C17A C16A 1_555 1_555
C18A C17A 1_555 1_555
C19A C18A 1_555 1_555
H13A C19A 1_555 1_555
C20A C19A 1_555 1_555
H14A C20A 1_555 1_555
C21A C20A 1_555 1_555
H15A C21A 1_555 1_555
C22A C17A 1_555 1_555
H16A C22A 1_555 1_555
C23A H17A 1_555 1_555
C24A C23A 1_555 1_555
H18A C24A 1_555 1_555
C25A C24A 1_555 1_555
C26A C25A 1_555 1_555
H19A C26A 1_555 1_555
C27A C26A 1_555 1_555
H20A C27A 1_555 1_555
C28A C25A 1_555 1_555
C29A H21A 1_555 1_555
C30A C29A 1_555 1_555
H22A C30A 1_555 1_555
C31A C30A 1_555 1_555
C32A C31A 1_555 1_555
H23A C32A 1_555 1_555
C33A C32A 1_555 1_555
H24A C33A 1_555 1_555
C34A C31A 1_555 1_555
Ir1A C7A 1_555 1_555
N2A C1A 1_555 1_555
N3A C23A 1_555 1_555
N4A C29A 1_555 1_555
O1A C28A 1_555 1_555
O2A K1 1_555 1_555
O3A C34A 1_555 1_555
O4A C34A 1_555 1_555
K1A O2 1_555 1_555
C35A H25A 1_555 1_555
C36A C35A 1_555 1_555
H26A C36A 1_555 1_555
C37A C36A 1_555 1_555
H27A C37A 1_555 1_555
C38A C37A 1_555 1_555
H28A C38A 1_555 1_555
C39A C38A 1_555 1_555
C40A C39A 1_555 1_555
C41A C40A 1_555 1_555
C42A C41A 1_555 1_555
H29A C42A 1_555 1_555
C43A C42A 1_555 1_555
H30A C43A 1_555 1_555
C44A C43A 1_555 1_555
H31A C44A 1_555 1_555
C45A C40A 1_555 1_555
H32A C45A 1_555 1_555
C46A H33A 1_555 1_555
C47A C46A 1_555 1_555
H34A C47A 1_555 1_555
C48A C47A 1_555 1_555
H35A C48A 1_555 1_555
C49A C48A 1_555 1_555
H36A C49A 1_555 1_555
C50A C49A 1_555 1_555
C51A C50A 1_555 1_555
C52A C51A 1_555 1_555
C53A C52A 1_555 1_555
H37A C53A 1_555 1_555
C54A C53A 1_555 1_555
H38A C54A 1_555 1_555
C55A C54A 1_555 1_555
H39A C55A 1_555 1_555
C56A C51A 1_555 1_555
H40A C56A 1_555 1_555
C57A H41A 1_555 1_555
C58A C57A 1_555 1_555
H42A C58A 1_555 1_555
C59A C58A 1_555 1_555
C60A C59A 1_555 1_555
H43A C60A 1_555 1_555
C61A C60A 1_555 1_555
H44A C61A 1_555 1_555
C62A C59A 1_555 1_555
C63A H45A 1_555 1_555
C64A C63A 1_555 1_555
H46A C64A 1_555 1_555
C65A C64A 1_555 1_555
C66A C65A 1_555 1_555
H47A C66A 1_555 1_555
C67A C66A 1_555 1_555
H48A C67A 1_555 1_555
C68A C65A 1_555 1_555
Ir2A C41A 1_555 1_555
N5A C35A 1_555 1_555
N6A C46A 1_555 1_555
N7A C57A 1_555 1_555
N8A C63A 1_555 1_555
O5A C62A 1_555 1_555
O6A Mg1 1_555 1_555
O7A C68A 1_555 1_555
O8A C68A 1_555 1_555
O4A_2 Mg1 1_555 1_555
Mg1_2 O4A 1_555 1_555
C5 N2 1_555 1_555
C10 C11 1_555 1_555
N1 Ir1 1_555 1_555
C15 C16 1_555 1_555
C18 Ir1 1_555 1_555
C21 C22 1_555 1_555
C27 N3 1_555 1_555
C33 N4 1_555 1_555
Ir1 N2 1_555 1_555
Ir1 N3 1_555 1_555
Ir1 N4 1_555 1_555
C39 N5 1_555 1_555
C44 C45 1_555 1_555
C50 N6 1_555 1_555
C52 Ir2 1_555 1_555
C55 C56 1_555 1_555
C61 N7 1_555 1_555
C67 N8 1_555 1_555
Ir2 N5 1_555 1_555
Ir2 N6 1_555 1_555
Ir2 N7 1_555 1_555
Ir2 N8 1_555 1_555
O6 Mg1 1_555 1_555
C5A N2A 1_555 1_555
C10A C11A 1_555 1_555
N1A Ir1A 1_555 1_555
C15A C16A 1_555 1_555
C18A Ir1A 1_555 1_555
C21A C22A 1_555 1_555
C27A N3A 1_555 1_555
C28A O2A 1_555 1_555
C33A N4A 1_555 1_555
Ir1A N2A 1_555 1_555
Ir1A N3A 1_555 1_555
Ir1A N4A 1_555 1_555
O2A K1A 1_555 1_555
C39A N5A 1_555 1_555
C44A C45A 1_555 1_555
C50A N6A 1_555 1_555
C52A Ir2A 1_555 1_555
C55A C56A 1_555 1_555
C61A N7A 1_555 1_555
C62A O6A 1_555 1_555
C67A N8A 1_555 1_555
Ir2A N5A 1_555 1_555
Ir2A N6A 1_555 1_555
Ir2A N7A 1_555 1_555
Ir2A N8A 1_555 1_555

#END
