
#######################################################################
#
#                 Cambridge Crystallographic Data Centre
#                                CCDC 
#
#######################################################################
#
# If this CIF has been generated from an entry in the Cambridge 
# Structural Database, then it will include bibliographic, chemical, 
# crystal, experimental, refinement or atomic coordinate data resulting 
# from the CCDC's data processing and validation procedures.
#
#######################################################################

data_PUHKOT
_symmetry_cell_setting           triclinic
_symmetry_space_group_name_H-M   'P -1'
_symmetry_Int_Tables_number      2
_space_group_name_Hall           '-P 1'
loop_
_symmetry_equiv_pos_site_id
_symmetry_equiv_pos_as_xyz
1 x,y,z
2 -x,-y,-z
_cell_length_a                   7.4610(15)
_cell_length_b                   10.721(2)
_cell_length_c                   11.701(2)
_cell_angle_alpha                109.72(3)
_cell_angle_beta                 90.10(3)
_cell_angle_gamma                102.92(3)
_cell_volume                     855.714
loop_
_atom_site_label
_atom_site_type_symbol
_atom_site_fract_x
_atom_site_fract_y
_atom_site_fract_z
Pb1 Pb 0.76187(2) 0.029805(17) 0.601979(13)
O1 O 0.6798(6) 0.2761(5) 0.6889(4)
O2 O 0.9615(6) 0.2666(4) 0.6423(4)
O3 O 0.7995(6) -0.2407(5) 0.1437(5)
H1 H 0.8311 -0.3082 0.1465
O4 O 1.1923(6) 0.5007(4) 0.8890(3)
H2 H 1.2721 0.5388 0.9460
C1 C 0.8449(8) 0.3338(6) 0.6845(5)
C2 C 0.9012(8) 0.4889(6) 0.7318(6)
H3 H 0.8219 0.5223 0.6892
H4 H 0.8802 0.5217 0.8175
C3 C 1.0981(8) 0.5484(5) 0.7178(5)
C4 C 1.1459(10) 0.6010(6) 0.6257(6)
H5 H 1.0530 0.6059 0.5753
C5 C 1.3273(10) 0.6461(7) 0.6070(6)
H6 H 1.3558 0.6801 0.5442
C6 C 1.4641(10) 0.6410(7) 0.6797(6)
H7 H 1.5865 0.6687 0.6652
C7 C 1.4221(9) 0.5938(6) 0.7770(6)
H8 H 1.5162 0.5935 0.8289
C8 C 1.2403(8) 0.5481(5) 0.7949(5)
C9 C 0.7658(7) 0.0291(5) 0.3582(5)
C10 C 0.7743(8) 0.0257(7) 0.2278(5)
H9 H 0.6655 -0.0388 0.1794
H10 H 0.7718 0.1151 0.2260
C11 C 0.9411(7) -0.0131(6) 0.1715(4)
C12 C 0.9491(7) -0.1495(6) 0.1294(4)
C13 C 1.1053(8) -0.1886(7) 0.0786(5)
H11 H 1.1097 -0.2799 0.0523
C14 C 1.2530(9) -0.0917(8) 0.0675(6)
H12 H 1.3572 -0.1176 0.0332
C15 C 1.2474(9) 0.0435(7) 0.1069(5)
H13 H 1.3478 0.1088 0.0996
C16 C 1.0910(9) 0.0828(6) 0.1580(5)
H14 H 1.0871 0.1741 0.1833
O5 O 0.9083(5) 0.0283(4) 0.4142(3)
O6 O 0.6204(5) 0.0363(4) 0.4101(3)
O7 O 0.6888(6) -0.2332(5) 0.4561(4)
H15 H 0.7696 -0.2339 0.4061
H16 H 0.5860 -0.2720 0.4161
Pb1A Pb 1.23813(2) -0.029805(17) 0.398021(13)
Pb1A_2 Pb 0.23813(2) -0.029805(17) 0.398021(13)
O5A O 1.0917(5) -0.0283(4) 0.5858(3)
O6A O 0.3796(5) -0.0363(4) 0.5899(3)
O8 O 0.4261(6) 0.6318(6) 0.0817(4)
H17 H 0.3977 0.6548 0.1537
H18 H 0.5291 0.6783 0.0746
loop_
_geom_bond_atom_site_label_1
_geom_bond_atom_site_label_2
_geom_bond_site_symmetry_1
_geom_bond_site_symmetry_2
Pb1 O1 1_555 1_555
O1 C1 1_555 1_555
O2 Pb1 1_555 1_555
O3 H1 1_555 1_555
O4 H2 1_555 1_555
C1 O2 1_555 1_555
C2 C1 1_555 1_555
H3 C2 1_555 1_555
H4 C2 1_555 1_555
C3 C2 1_555 1_555
C4 C3 1_555 1_555
H5 C4 1_555 1_555
C5 C4 1_555 1_555
H6 C5 1_555 1_555
C6 C5 1_555 1_555
H7 C6 1_555 1_555
C7 C6 1_555 1_555
H8 C7 1_555 1_555
C8 O4 1_555 1_555
C9 C10 1_555 1_555
C10 H9 1_555 1_555
H10 C10 1_555 1_555
C11 C10 1_555 1_555
C12 O3 1_555 1_555
C13 C12 1_555 1_555
H11 C13 1_555 1_555
C14 C13 1_555 1_555
H12 C14 1_555 1_555
C15 C14 1_555 1_555
H13 C15 1_555 1_555
C16 C11 1_555 1_555
H14 C16 1_555 1_555
O5 Pb1 1_555 1_555
O6 Pb1 1_555 1_555
O7 Pb1 1_555 1_555
H15 O7 1_555 1_555
H16 O7 1_555 1_555
O8 H17 1_555 1_555
H18 O8 1_555 1_555
Pb1A O5 1_555 1_555
Pb1A_2 O6 1_555 1_555
O5A Pb1 1_555 1_555
O6A Pb1 1_555 1_555
C3 C8 1_555 1_555
C7 C8 1_555 1_555
C9 O5 1_555 1_555
C9 O6 1_555 1_555
C11 C12 1_555 1_555
C15 C16 1_555 1_555
Pb1A O5A 1_555 1_555
Pb1A_2 O6A 1_555 1_555

#END
