
#######################################################################
#
#                 Cambridge Crystallographic Data Centre
#                                CCDC 
#
#######################################################################
#
# If this CIF has been generated from an entry in the Cambridge 
# Structural Database, then it will include bibliographic, chemical, 
# crystal, experimental, refinement or atomic coordinate data resulting 
# from the CCDC's data processing and validation procedures.
#
#######################################################################

data_PUHLIP
_symmetry_cell_setting           triclinic
_symmetry_space_group_name_H-M   'P -1'
_symmetry_Int_Tables_number      2
_space_group_name_Hall           '-P 1'
loop_
_symmetry_equiv_pos_site_id
_symmetry_equiv_pos_as_xyz
1 x,y,z
2 -x,-y,-z
_cell_length_a                   8.0421(4)
_cell_length_b                   16.7490(7)
_cell_length_c                   17.8590(5)
_cell_angle_alpha                63.935(4)
_cell_angle_beta                 85.106(4)
_cell_angle_gamma                84.616(4)
_cell_volume                     2148.75
loop_
_atom_site_label
_atom_site_type_symbol
_atom_site_fract_x
_atom_site_fract_y
_atom_site_fract_z
Cu1 Cu 0.33385(8) 0.09224(4) 0.44194(4)
Cu2 Cu 0.44465(8) 0.20756(4) 0.23082(4)
Cu3 Cu 0.63643(8) 0.25696(5) 0.36016(4)
Cu4 Cu 0.59411(9) 0.11762(5) 0.70376(4)
Cu5 Cu 0.80942(8) 0.49218(4) 0.03707(4)
Cu6 Cu 0.75249(9) 0.86976(5) 0.02820(5)
Cu7 Cu 0.50104(9) 0.71669(5) 0.09533(5)
C1 C 0.2627(6) 0.0756(3) 0.2364(3)
C2 C 0.6050(5) 0.3458(3) 0.1150(3)
C3 C 0.4575(6) 0.0762(3) 0.5839(3)
C4 C 0.5953(6) 0.9106(3) 0.1490(3)
C5 C 0.8117(5) 0.6427(3) -0.1070(3)
C6 C 0.1829(6) 0.1011(3) 0.3061(3)
C7 C 0.5867(5) 0.3678(3) 0.1916(3)
C8 C 0.4906(6) 0.1726(3) 0.5201(3)
C9 C 0.5760(6) 0.8095(3) 0.1847(3)
C10 C 0.9150(6) 0.6611(3) -0.0472(3)
C11 C 0.1246(6) 0.0188(3) 0.3841(3)
C12 C 0.7638(6) 0.3799(3) 0.2121(3)
C13 C 0.6662(6) 0.1975(3) 0.5274(3)
C14 C 0.3855(7) 0.7961(3) 0.1957(3)
C15 C 0.7985(6) 0.7115(3) -0.0050(3)
O1 O 0.3783(4) 0.1252(2) 0.1907(2)
O2 O 0.5665(4) 0.2710(2) 0.1255(2)
O3 O 0.3918(4) 0.0282(2) 0.5584(2)
O4 O 0.6643(5) 0.9504(2) 0.0772(2)
O5 O 0.7426(4) 0.5679(2) -0.07597(19)
O6 O 0.7047(5) 0.1395(2) 0.3228(2)
H1 H 0.8088 0.1402 0.3037
H2 H 0.6917 0.0882 0.3660
O7 O 0.2115(4) 0.0128(2) 0.2279(2)
O8 O 0.6548(4) 0.4049(2) 0.04592(19)
O9 O 0.4883(4) 0.0494(2) 0.6593(2)
O10 O 0.5390(5) 0.9491(2) 0.1929(2)
O11 O 0.7993(4) 0.6990(2) -0.1799(2)
O12 O 0.5022(5) 0.8722(2) -0.0370(2)
H3 H 0.4338 0.9182 -0.0415
H4 H 0.5254 0.8758 -0.0874
O13 O 0.2978(4) 0.1454(2) 0.32604(19)
O14 O 0.5106(4) 0.3008(2) 0.25927(19)
O15 O 0.4714(4) 0.1823(2) 0.44054(19)
O16 O 0.6545(4) 0.7766(2) 0.1309(2)
O17 O 0.9704(4) 0.5794(2) 0.01508(19)
O18 O 0.8242(8) 0.9742(3) -0.0735(3)
H5 H 0.8834 1.0051 -0.0601
H6 H 0.8820 0.9569 -0.1066
O19 O 0.0360(4) 0.1553(2) 0.2738(2)
H7 H 0.0612 0.2035 0.2358
O20 O 0.4969(4) 0.4514(2) 0.1680(2)
H8 H 0.4181 0.4543 0.1404
O21 O 0.3754(5) 0.2288(2) 0.5431(2)
H9 H 0.2796 0.2191 0.5384
O22 O 0.6335(5) 0.7672(3) 0.2661(2)
H10 H 0.7303 0.7796 0.2657
O23 O 1.0434(4) 0.7127(2) -0.0948(2)
H11 H 1.0507 0.7538 -0.0823
O24 O 0.5286(7) 0.5826(3) 0.2200(3)
H12 H 0.4405 0.5769 0.2547
H13 H 0.5382 0.5356 0.2093
O25 O 0.0034(4) -0.0186(2) 0.3799(2)
O26 O 0.8558(4) 0.4335(2) 0.1560(2)
O27 O 0.7153(5) 0.1845(2) 0.5975(2)
O28 O 0.2986(5) 0.8211(3) 0.2445(2)
O29 O 0.6705(4) 0.6734(2) 0.0350(2)
O30 O 0.3229(5) 0.6743(3) 0.0592(3)
H14 H 0.3393 0.6546 0.0165
H15 H 0.2490 0.6539 0.0989
O31 O 0.2093(4) -0.0043(2) 0.4484(2)
O32 O 0.8059(4) 0.3349(2) 0.2859(2)
O33 O 0.7533(5) 0.2339(2) 0.4602(2)
O34 O 0.3268(5) 0.7616(3) 0.1546(2)
O35 O 0.8450(5) 0.7847(3) -0.0144(2)
O36 O 0.1077(5) 0.1659(3) 0.4949(3)
H16 H 0.0656 0.1128 0.5318
H17 H 0.0867 0.1520 0.4632
O37 O 1.0369(8) 0.8783(4) 0.0639(6)
H18 H 1.1151 0.8383 0.0695
H19 H 0.9985 0.8717 0.1122
Cu2A Cu 0.55535(8) 0.79244(4) -0.23082(4)
Cu4A Cu 0.40589(9) -0.11762(5) 0.29624(4)
Cu4A_2 Cu 0.40589(9) 0.88238(5) 0.29624(4)
Cu5A Cu 1.19058(8) 0.50782(4) -0.03707(4)
O7A O 0.7885(4) -0.0128(2) 0.7721(2)
O10A O 0.4610(5) 0.0509(2) 0.8071(2)
O11A O 0.2007(4) 0.3010(2) 0.1799(2)
O17A O 1.0296(4) 0.4206(2) -0.01508(19)
O28A O 0.7014(5) 0.1789(3) 0.7555(2)
O38 O 0.479(3) 0.3921(8) 0.3850(8)
H20 H 0.4382 0.4456 0.3650
H21 H 0.5086 0.3767 0.4343
N1 N 0.8365(5) 0.0005(3) 0.2434(3)
H22 H 0.7368 -0.0048 0.2642
H23 H 0.8399 0.0465 0.1969
H24 H 0.8842 -0.0604 0.2510
H25 H 0.9157 -0.0014 0.2774
O39 O 0.1563(7) 0.3863(4) 0.2901(3)
H26 H 0.1821 0.3436 0.2769
H27 H 0.1238 0.4323 0.2475
O40 O 0.1001(5) 0.5630(3) 0.1587(3)
H28 H 0.0302 0.5953 0.1734
H29 H 0.0688 0.5711 0.1116
O41 O 0.0774(8) 0.1656(4) 0.7443(4)
O42 O 0.8348(5) 0.1414(3) 0.0855(3)
H30 H 0.8884 0.1244 0.0503
H31 H 0.7314 0.1548 0.0688
O43 O 0.1446(10) 0.3817(5) 0.7609(5)
H32 H 0.1946 0.3288 0.7588
H33 H 0.2672 0.3782 0.7701
O44 O 0.161(6) 0.460(3) 0.6032(13)
H34 H 0.1547 0.4350 0.6563
H35 H 0.1054 0.4282 0.6015
O45 O 0.431(2) 0.3954(7) 0.5426(9)
H36 H 0.4410 0.3933 0.5893
H37 H 0.3708 0.3375 0.5661
O46 O 0.067(3) 0.6873(12) 0.4145(10)
H38 H -0.0118 0.7194 0.4436
H39 H 0.1478 0.7266 0.4111
O47 O 0.048(4) 0.4150(11) 0.4308(10)
H40 H 0.0447 0.4754 0.3858
H41 H 0.0595 0.3762 0.3968
O48 O 0.329(3) 0.5741(10) 0.3651(8)
H42 H 0.3518 0.5339 0.4133
H43 H 0.2233 0.5796 0.3604
loop_
_geom_bond_atom_site_label_1
_geom_bond_atom_site_label_2
_geom_bond_site_symmetry_1
_geom_bond_site_symmetry_2
Cu1 O3 1_555 1_555
Cu2 O1 1_555 1_555
Cu3 O6 1_555 1_555
Cu4 O9 1_555 1_555
Cu5 O5 1_555 1_555
Cu6 O4 1_555 1_555
Cu7 O16 1_555 1_555
C1 C6 1_555 1_555
C2 C7 1_555 1_555
C3 C8 1_555 1_555
C4 C9 1_555 1_555
C5 C10 1_555 1_555
C6 C11 1_555 1_555
C7 C12 1_555 1_555
C8 C13 1_555 1_555
C9 C14 1_555 1_555
C10 C15 1_555 1_555
C11 O25 1_555 1_555
C12 O26 1_555 1_555
C13 O27 1_555 1_555
C14 O28 1_555 1_555
C15 O29 1_555 1_555
O1 C1 1_555 1_555
O2 Cu2 1_555 1_555
O3 C3 1_555 1_555
O4 C4 1_555 1_555
O5 C5 1_555 1_555
O6 H1 1_555 1_555
H2 O6 1_555 1_555
O7 C1 1_555 1_555
O8 Cu5 1_555 1_555
O9 C3 1_555 1_555
O10 C4 1_555 1_555
O11 C5 1_555 1_555
O12 Cu6 1_555 1_555
H3 O12 1_555 1_555
H4 O12 1_555 1_555
O13 Cu1 1_555 1_555
O14 Cu2 1_555 1_555
O15 Cu1 1_555 1_555
O16 Cu6 1_555 1_555
O17 Cu5 1_555 1_555
O18 Cu6 1_555 1_555
H5 O18 1_555 1_555
H6 O18 1_555 1_555
O19 C6 1_555 1_555
H7 O19 1_555 1_555
O20 C7 1_555 1_555
H8 O20 1_555 1_555
O21 C8 1_555 1_555
H9 O21 1_555 1_555
O22 C9 1_555 1_555
H10 O22 1_555 1_555
O23 C10 1_555 1_555
H11 O23 1_555 1_555
O24 Cu7 1_555 1_555
H12 O24 1_555 1_555
H13 O24 1_555 1_555
O26 Cu5 1_555 1_555
O27 Cu4 1_555 1_555
O28 Cu4A_2 1_555 1_555
O29 Cu7 1_555 1_555
O30 Cu7 1_555 1_555
H14 O30 1_555 1_555
H15 O30 1_555 1_555
O31 Cu1 1_555 1_555
O32 Cu3 1_555 1_555
O33 Cu3 1_555 1_555
O34 Cu7 1_555 1_555
O35 Cu6 1_555 1_555
O36 Cu1 1_555 1_555
H16 O36 1_555 1_555
H17 O36 1_555 1_555
O37 Cu6 1_555 1_555
H18 O37 1_555 1_555
H19 O37 1_555 1_555
O38 H20 1_555 1_555
H21 O38 1_555 1_555
N1 H22 1_555 1_555
H23 N1 1_555 1_555
H24 N1 1_555 1_555
H25 N1 1_555 1_555
O39 H26 1_555 1_555
H27 O39 1_555 1_555
O40 H28 1_555 1_555
H29 O40 1_555 1_555
O42 H30 1_555 1_555
H31 O42 1_555 1_555
O43 H32 1_555 1_555
H33 O43 1_555 1_555
O44 H34 1_555 1_555
H35 O44 1_555 1_555
O45 H36 1_555 1_555
H37 O45 1_555 1_555
O46 H38 1_555 1_555
H39 O46 1_555 1_555
O47 H40 1_555 1_555
H41 O47 1_555 1_555
O48 H42 1_555 1_555
H43 O48 1_555 1_555
Cu2A O11 1_555 1_555
Cu4A O7 1_555 1_555
Cu4A_2 O10 1_555 1_555
Cu5A O17 1_555 1_555
O7A Cu4 1_555 1_555
O10A Cu4 1_555 1_555
O11A Cu2 1_555 1_555
O17A Cu5 1_555 1_555
O28A Cu4 1_555 1_555
Cu2 O13 1_555 1_555
Cu3 O14 1_555 1_555
Cu3 O15 1_555 1_555
C2 O2 1_555 1_555
C2 O8 1_555 1_555
C6 O13 1_555 1_555
C7 O14 1_555 1_555
C8 O15 1_555 1_555
C9 O16 1_555 1_555
C10 O17 1_555 1_555
C11 O31 1_555 1_555
C12 O32 1_555 1_555
C13 O33 1_555 1_555
C14 O34 1_555 1_555
C15 O35 1_555 1_555
Cu5A O17A 1_555 1_555

#END
