
#######################################################################
#
#                 Cambridge Crystallographic Data Centre
#                                CCDC 
#
#######################################################################
#
# If this CIF has been generated from an entry in the Cambridge 
# Structural Database, then it will include bibliographic, chemical, 
# crystal, experimental, refinement or atomic coordinate data resulting 
# from the CCDC's data processing and validation procedures.
#
#######################################################################

data_PUHLOU01
_symmetry_cell_setting           monoclinic
_symmetry_space_group_name_H-M   'P 21/c'
_symmetry_Int_Tables_number      14
_space_group_name_Hall           '-P 2ybc'
loop_
_symmetry_equiv_pos_site_id
_symmetry_equiv_pos_as_xyz
1 x,y,z
2 -x,1/2+y,1/2-z
3 -x,-y,-z
4 x,1/2-y,1/2+z
_cell_length_a                   15.7848(10)
_cell_length_b                   12.9426(5)
_cell_length_c                   12.4989(6)
_cell_angle_alpha                90
_cell_angle_beta                 111.695(7)
_cell_angle_gamma                90
_cell_volume                     2372.6
loop_
_atom_site_label
_atom_site_type_symbol
_atom_site_fract_x
_atom_site_fract_y
_atom_site_fract_z
Ag1 Ag 0.616897(17) 0.55651(2) 0.56138(2)
P1 P 0.73541(6) 0.50367(7) 0.50224(7)
O1 O 0.53254(16) 0.43228(18) 0.61713(19)
O2 O 0.64016(18) 0.4569(2) 0.7903(2)
N1 N 0.44301(19) 0.1855(2) 0.8667(2)
C1 C 0.7047(2) 0.5108(3) 0.3465(3)
C2 C 0.6249(2) 0.4596(3) 0.2772(3)
H1 H 0.5908 0.4208 0.3118
C3 C 0.5957(3) 0.4655(3) 0.1579(3)
H2 H 0.5420 0.4302 0.1112
C4 C 0.6447(3) 0.5229(3) 0.1068(3)
H3 H 0.6240 0.5274 0.0253
C5 C 0.7233(3) 0.5734(3) 0.1738(3)
H4 H 0.7569 0.6123 0.1385
C6 C 0.7537(3) 0.5672(3) 0.2944(3)
H5 H 0.8081 0.6017 0.3406
C7 C 0.7681(2) 0.3690(3) 0.5345(3)
C8 C 0.8082(2) 0.3115(3) 0.4705(3)
H6 H 0.8213 0.3439 0.4102
C9 C 0.8288(3) 0.2086(3) 0.4943(3)
H7 H 0.8558 0.1705 0.4502
C10 C 0.8104(2) 0.1602(3) 0.5825(3)
H8 H 0.8247 0.0892 0.5988
C11 C 0.7710(2) 0.2162(3) 0.6465(3)
H9 H 0.7578 0.1831 0.7064
C12 C 0.7506(2) 0.3201(3) 0.6239(3)
H10 H 0.7246 0.3581 0.6693
C13 C 0.8410(2) 0.5772(3) 0.5612(3)
C14 C 0.9273(3) 0.5336(3) 0.5928(3)
H11 H 0.9336 0.4615 0.5833
C15 C 1.0046(3) 0.5956(3) 0.6385(3)
H12 H 1.0634 0.5650 0.6619
C16 C 0.9970(3) 0.7001(3) 0.6502(3)
H13 H 1.0501 0.7416 0.6814
C17 C 0.9110(3) 0.7448(3) 0.6162(4)
H14 H 0.9052 0.8174 0.6222
C18 C 0.8334(3) 0.6835(3) 0.5735(3)
H15 H 0.7749 0.7142 0.5526
C19 C 0.5704(2) 0.4146(3) 0.7242(3)
C20 C 0.5262(2) 0.3326(3) 0.7732(3)
C21 C 0.5621(2) 0.3085(3) 0.8893(3)
H16 H 0.6159 0.3417 0.9391
C22 C 0.5186(2) 0.2356(3) 0.9323(3)
H17 H 0.5438 0.2204 1.0122
C23 C 0.4093(2) 0.2076(3) 0.7536(3)
H18 H 0.3564 0.1720 0.7054
C24 C 0.4482(2) 0.2798(3) 0.7043(3)
H19 H 0.4218 0.2934 0.6241
Ag1A Ag 0.383103(17) 0.05651(2) 0.93862(2)
Ag1B Ag 0.383103(17) 0.44349(2) 0.43862(2)
O1B O 0.46746(16) 0.56772(18) 0.38287(19)
N1A N 0.55699(19) 0.6855(2) 0.6333(2)
O3 O 0.7835(2) 0.5725(3) 0.9327(2)
H20 H 0.747(3) 0.527(3) 0.895(4)
C25 C 0.8218(3) 0.6073(5) 0.8549(4)
H21 H 0.8239 0.6838 0.8568
H22 H 0.7822 0.5860 0.7761
C26 C 0.9158(4) 0.5665(7) 0.8804(5)
H23 H 0.9416 0.5984 0.8280
H24 H 0.9132 0.4914 0.8698
H25 H 0.9543 0.5831 0.9601
loop_
_geom_bond_atom_site_label_1
_geom_bond_atom_site_label_2
_geom_bond_site_symmetry_1
_geom_bond_site_symmetry_2
Ag1 P1 1_555 1_555
P1 C1 1_555 1_555
O1 Ag1 1_555 1_555
O2 C19 1_555 1_555
N1 C22 1_555 1_555
C1 C2 1_555 1_555
C2 H1 1_555 1_555
C3 C2 1_555 1_555
H2 C3 1_555 1_555
C4 C3 1_555 1_555
H3 C4 1_555 1_555
C5 C4 1_555 1_555
H4 C5 1_555 1_555
C6 C1 1_555 1_555
H5 C6 1_555 1_555
C7 P1 1_555 1_555
C8 C7 1_555 1_555
H6 C8 1_555 1_555
C9 C8 1_555 1_555
H7 C9 1_555 1_555
C10 C9 1_555 1_555
H8 C10 1_555 1_555
C11 C10 1_555 1_555
H9 C11 1_555 1_555
C12 C7 1_555 1_555
H10 C12 1_555 1_555
C13 P1 1_555 1_555
C14 C13 1_555 1_555
H11 C14 1_555 1_555
C15 C14 1_555 1_555
H12 C15 1_555 1_555
C16 C15 1_555 1_555
H13 C16 1_555 1_555
C17 C16 1_555 1_555
H14 C17 1_555 1_555
C18 C13 1_555 1_555
H15 C18 1_555 1_555
C19 O1 1_555 1_555
C20 C19 1_555 1_555
C21 C20 1_555 1_555
H16 C21 1_555 1_555
C22 C21 1_555 1_555
H17 C22 1_555 1_555
C23 N1 1_555 1_555
H18 C23 1_555 1_555
C24 C20 1_555 1_555
H19 C24 1_555 1_555
O3 H20 1_555 1_555
C25 O3 1_555 1_555
H21 C25 1_555 1_555
H22 C25 1_555 1_555
C26 C25 1_555 1_555
H23 C26 1_555 1_555
H24 C26 1_555 1_555
H25 C26 1_555 1_555
Ag1A N1 1_555 1_555
Ag1B O1 1_555 1_555
O1B Ag1 1_555 1_555
N1A Ag1 1_555 1_555
C5 C6 1_555 1_555
C11 C12 1_555 1_555
C17 C18 1_555 1_555
C23 C24 1_555 1_555
Ag1B O1B 1_555 1_555

#END
