
#######################################################################
#
#                 Cambridge Crystallographic Data Centre
#                                CCDC 
#
#######################################################################
#
# If this CIF has been generated from an entry in the Cambridge 
# Structural Database, then it will include bibliographic, chemical, 
# crystal, experimental, refinement or atomic coordinate data resulting 
# from the CCDC's data processing and validation procedures.
#
#######################################################################

data_PUHLOV
_symmetry_cell_setting           triclinic
_symmetry_space_group_name_H-M   'P -1'
_symmetry_Int_Tables_number      2
_space_group_name_Hall           '-P 1'
loop_
_symmetry_equiv_pos_site_id
_symmetry_equiv_pos_as_xyz
1 x,y,z
2 -x,-y,-z
_cell_length_a                   5.004(2)
_cell_length_b                   11.251(3)
_cell_length_c                   14.649(14)
_cell_angle_alpha                81.56(4)
_cell_angle_beta                 88.99(5)
_cell_angle_gamma                78.73(3)
_cell_volume                     800.024
loop_
_atom_site_label
_atom_site_type_symbol
_atom_site_fract_x
_atom_site_fract_y
_atom_site_fract_z
Ag1 Ag 0.14120(5) 0.71902(3) -0.303294(15)
O1 O 0.2779(4) 0.9230(2) 0.06640(14)
N1 N 0.3628(5) 0.9184(2) -0.08524(16)
H1 H 0.4672(5) 0.9707(2) -0.08514(16)
C1 C 0.0419(5) 0.7541(3) -0.09653(19)
C2 C 0.2415(6) 0.8809(3) -0.00417(19)
N2 N 0.1731(5) 0.8000(2) -0.17532(15)
C3 C -0.0539(6) 0.7396(3) 0.0668(2)
H2 H -0.0311(6) 0.7629(3) 0.1240(2)
C4 C 0.3255(6) 0.8768(3) -0.1653(2)
H3 H 0.4172(6) 0.9061(3) -0.2170(2)
C5 C 0.0723(6) 0.7908(3) -0.01077(19)
N3 N 0.6423(6) 0.4967(3) -0.29540(18)
O2 O 0.5613(5) 0.5129(2) -0.37658(15)
N4 N -0.1005(5) 0.6678(3) -0.57632(16)
H4 H -0.0277(5) 0.6229(3) -0.61634(16)
N5 N -0.0835(5) 0.7137(2) -0.42670(15)
O3 O 0.4969(5) 0.5422(3) -0.23488(17)
O4 O 0.8729(5) 0.4358(3) -0.27408(17)
C6 C -0.3410(6) 0.7509(3) -0.59800(19)
C7 C -0.3406(6) 0.7880(3) -0.43659(19)
C8 C 0.0189(6) 0.6565(3) -0.4953(2)
H5 H 0.1878(6) 0.6043(3) -0.4859(2)
C9 C -0.4641(6) 0.8132(3) -0.52859(19)
C10 C -0.8153(7) 0.9240(4) -0.6354(2)
H6 H -0.9734(7) 0.9830(4) -0.6486(2)
C11 C -0.4575(7) 0.7731(3) -0.6860(2)
H7 H -0.3769(7) 0.7299(3) -0.7321(2)
C12 C -0.6923(7) 0.8593(4) -0.7040(2)
H8 H -0.7703(7) 0.8747(4) -0.7628(2)
C13 C -0.7037(6) 0.9009(3) -0.5488(2)
H9 H -0.7872(6) 0.9436(3) -0.5029(2)
C14 C -0.2456(6) 0.6201(3) -0.0270(2)
H10 H -0.3549(6) 0.5634(3) -0.0321(2)
C15 C -0.2118(7) 0.6548(3) 0.0583(2)
H11 H -0.2962(7) 0.6205(3) 0.1099(2)
C16 C -0.1207(6) 0.6680(3) -0.1039(2)
H12 H -0.1441(6) 0.6433(3) -0.1606(2)
O5 O -0.4499(4) 0.8320(2) -0.37006(14)
Ag1_2 Ag -0.85880(5) 0.71902(3) -0.303294(15)
O5_2 O 0.5501(4) 0.8320(2) -0.37006(14)
loop_
_geom_bond_atom_site_label_1
_geom_bond_atom_site_label_2
_geom_bond_site_symmetry_1
_geom_bond_site_symmetry_2
Ag1 N2 1_555 1_555
O1 C2 1_555 1_555
N1 H1 1_555 1_555
C1 N2 1_555 1_555
C2 N1 1_555 1_555
N2 C4 1_555 1_555
C3 H2 1_555 1_555
C4 N1 1_555 1_555
H3 C4 1_555 1_555
C5 C1 1_555 1_555
N3 O2 1_555 1_555
N4 H4 1_555 1_555
N5 Ag1 1_555 1_555
O3 Ag1 1_555 1_555
O4 N3 1_555 1_555
C6 N4 1_555 1_555
C7 N5 1_555 1_555
C8 N4 1_555 1_555
H5 C8 1_555 1_555
C9 C6 1_555 1_555
C10 H6 1_555 1_555
C11 C6 1_555 1_555
H7 C11 1_555 1_555
C12 C10 1_555 1_555
H8 C12 1_555 1_555
C13 C9 1_555 1_555
H9 C13 1_555 1_555
C14 H10 1_555 1_555
C15 C3 1_555 1_555
H11 C15 1_555 1_555
C16 C1 1_555 1_555
H12 C16 1_555 1_555
O5 C7 1_555 1_555
Ag1_2 O5 1_555 1_555
O5_2 Ag1 1_555 1_555
C2 C5 1_555 1_555
C3 C5 1_555 1_555
N3 O3 1_555 1_555
N5 C8 1_555 1_555
C7 C9 1_555 1_555
C10 C13 1_555 1_555
C11 C12 1_555 1_555
C14 C15 1_555 1_555
C14 C16 1_555 1_555

#END
