
#######################################################################
#
#                 Cambridge Crystallographic Data Centre
#                                CCDC 
#
#######################################################################
#
# If this CIF has been generated from an entry in the Cambridge 
# Structural Database, then it will include bibliographic, chemical, 
# crystal, experimental, refinement or atomic coordinate data resulting 
# from the CCDC's data processing and validation procedures.
#
#######################################################################

data_PUHNAI01
_symmetry_cell_setting           monoclinic
_symmetry_space_group_name_H-M   'P 21/n'
_symmetry_Int_Tables_number      14
_space_group_name_Hall           '-P 2yn'
loop_
_symmetry_equiv_pos_site_id
_symmetry_equiv_pos_as_xyz
1 x,y,z
2 1/2-x,1/2+y,1/2-z
3 -x,-y,-z
4 1/2+x,1/2-y,1/2+z
_cell_length_a                   9.716(2)
_cell_length_b                   8.900(3)
_cell_length_c                   10.123(2)
_cell_angle_alpha                90
_cell_angle_beta                 104.247(12)
_cell_angle_gamma                90
_cell_volume                     848.437
loop_
_atom_site_label
_atom_site_type_symbol
_atom_site_fract_x
_atom_site_fract_y
_atom_site_fract_z
Cd1 Cd 0.5000 0.5000 0.5000
O1 O 0.6209(3) 0.5291(4) 0.7286(3)
H1 H 0.667(5) 0.603(6) 0.728(6)
H2 H 0.674(5) 0.465(6) 0.782(5)
N1 N 0.2117(3) 0.0756(4) 0.9472(4)
O2 O 0.4540(3) 0.2614(3) 0.5558(3)
O3 O 0.2841(3) 0.2116(3) 0.3678(3)
C1 C 0.2980(4) 0.1744(5) 1.0269(4)
H3 H 0.2734 0.2105 1.1042
C2 C 0.4204(5) 0.2240(5) 0.9992(5)
H4 H 0.4770 0.2942 1.0557
C3 C 0.4599(4) 0.1684(5) 0.8855(5)
H5 H 0.5426 0.2022 0.8647
C4 C 0.3758(4) 0.0634(5) 0.8042(4)
C5 C 0.2512(4) 0.0216(5) 0.8393(4)
H6 H 0.1922 -0.0480 0.7844
C6 C 0.4167(4) -0.0116(5) 0.6857(4)
H7 H 0.4110 -0.1195 0.6966
H8 H 0.5150 0.0127 0.6901
C7 C 0.3275(4) 0.0304(5) 0.5445(4)
H9 H 0.3394 -0.0479 0.4816
H10 H 0.2285 0.0295 0.5476
C8 C 0.3573(4) 0.1802(5) 0.4854(4)
Cd1A Cd 0.0000 0.0000 1.0000
Cd1A_2 Cd 1.0000 1.0000 0.0000
O1B O 0.3791(3) 0.4709(4) 0.2714(3)
H1B H 0.333(5) 0.397(6) 0.272(6)
H2B H 0.326(5) 0.535(6) 0.218(5)
N1B N 0.7883(3) 0.9244(4) 0.0528(4)
N1A N 0.2883(3) 0.5756(4) 0.5528(4)
N1C N 0.7117(3) 0.4244(4) 0.4472(4)
O2B O 0.5460(3) 0.7386(3) 0.4442(3)
O3B O 0.7159(3) 0.7884(3) 0.6322(3)
C1B C 0.7020(4) 0.8256(5) -0.0269(4)
H3B H 0.7266 0.7895 -0.1042
C2B C 0.5796(5) 0.7760(5) 0.0008(5)
H4B H 0.5230 0.7058 -0.0557
C3B C 0.5401(4) 0.8316(5) 0.1145(5)
H5B H 0.4574 0.7978 0.1353
C4B C 0.6242(4) 0.9366(5) 0.1958(4)
C5B C 0.7488(4) 0.9784(5) 0.1607(4)
H6B H 0.8078 1.0480 0.2156
C6B C 0.5833(4) 1.0116(5) 0.3143(4)
H7B H 0.5890 1.1195 0.3034
H8B H 0.4850 0.9873 0.3099
C7B C 0.6725(4) 0.9696(5) 0.4555(4)
H9B H 0.6606 1.0479 0.5184
H10B H 0.7715 0.9705 0.4524
C8B C 0.6427(4) 0.8198(5) 0.5146(4)
loop_
_geom_bond_atom_site_label_1
_geom_bond_atom_site_label_2
_geom_bond_site_symmetry_1
_geom_bond_site_symmetry_2
Cd1 O1 1_555 1_555
O1 H1 1_555 1_555
H2 O1 1_555 1_555
N1 C1 1_555 1_555
O2 Cd1 1_555 1_555
O3 C8 1_555 1_555
C1 H3 1_555 1_555
C2 C1 1_555 1_555
H4 C2 1_555 1_555
C3 C2 1_555 1_555
H5 C3 1_555 1_555
C4 C3 1_555 1_555
C5 N1 1_555 1_555
H6 C5 1_555 1_555
C6 C4 1_555 1_555
H7 C6 1_555 1_555
H8 C6 1_555 1_555
C7 C6 1_555 1_555
H9 C7 1_555 1_555
H10 C7 1_555 1_555
C8 O2 1_555 1_555
Cd1A N1 1_555 1_555
Cd1A_2 N1B 1_555 1_555
O1B Cd1 1_555 1_555
H1B O1B 1_555 1_555
H2B O1B 1_555 1_555
N1B C1B 1_555 1_555
N1A Cd1 1_555 1_555
N1C Cd1 1_555 1_555
O2B Cd1 1_555 1_555
O3B C8B 1_555 1_555
C1B H3B 1_555 1_555
C2B C1B 1_555 1_555
H4B C2B 1_555 1_555
C3B C2B 1_555 1_555
H5B C3B 1_555 1_555
C4B C3B 1_555 1_555
C5B N1B 1_555 1_555
H6B C5B 1_555 1_555
C6B C4B 1_555 1_555
H7B C6B 1_555 1_555
H8B C6B 1_555 1_555
C7B C6B 1_555 1_555
H9B C7B 1_555 1_555
H10B C7B 1_555 1_555
C8B O2B 1_555 1_555
C4 C5 1_555 1_555
C7 C8 1_555 1_555
C4B C5B 1_555 1_555
C7B C8B 1_555 1_555

#END
