
#######################################################################
#
#                 Cambridge Crystallographic Data Centre
#                                CCDC 
#
#######################################################################
#
# If this CIF has been generated from an entry in the Cambridge 
# Structural Database, then it will include bibliographic, chemical, 
# crystal, experimental, refinement or atomic coordinate data resulting 
# from the CCDC's data processing and validation procedures.
#
#######################################################################

data_PUHNAI
_symmetry_cell_setting           monoclinic
_symmetry_space_group_name_H-M   'P 21/n'
_symmetry_Int_Tables_number      14
_space_group_name_Hall           '-P 2yn'
loop_
_symmetry_equiv_pos_site_id
_symmetry_equiv_pos_as_xyz
1 x,y,z
2 1/2-x,1/2+y,1/2-z
3 -x,-y,-z
4 1/2+x,1/2-y,1/2+z
_cell_length_a                   9.6934(4)
_cell_length_b                   8.9082(4)
_cell_length_c                   10.1199(5)
_cell_angle_alpha                90
_cell_angle_beta                 104.309(2)
_cell_angle_gamma                90
_cell_volume                     846.751
loop_
_atom_site_label
_atom_site_type_symbol
_atom_site_fract_x
_atom_site_fract_y
_atom_site_fract_z
Cd1 Cd 0.5000 0.0000 0.0000
N1 N 0.28876(11) 0.07564(12) 0.05233(11)
O1 O 0.61972(13) 0.02896(15) 0.22844(12)
O2 O 0.21558(10) 0.21211(11) 0.63186(10)
O3 O 0.04577(10) 0.26152(10) 0.44405(10)
C1 C 0.20346(15) 0.17483(15) -0.02640(14)
C2 C 0.07951(16) 0.22538(17) 0.00161(16)
C3 C 0.04061(15) 0.16952(16) 0.11451(15)
C4 C 0.12544(13) 0.06336(15) 0.19621(13)
C5 C 0.24972(16) 0.02120(15) 0.16092(16)
C6 C 0.08326(19) -0.01072(15) 0.31409(17)
C7 C 0.17242(17) 0.03087(17) 0.45527(15)
C8 C 0.14245(13) 0.18100(13) 0.51422(13)
H1 H 0.2335(18) 0.208(2) -0.1008(18)
H2 H 0.0224(18) 0.296(2) -0.0590(18)
H3 H -0.0467(19) 0.199(2) 0.1376(18)
H4 H 0.314(2) -0.048(2) 0.2165(19)
H5 H -0.022(2) 0.0146(17) 0.302(2)
H6 H 0.0908(17) -0.1217(19) 0.3076(17)
H7 H 0.274(3) 0.037(3) 0.460(2)
H8 H 0.158(2) -0.041(2) 0.525(2)
H9 H 0.673(2) 0.105(3) 0.217(2)
H10 H 0.672(3) -0.041(3) 0.266(3)
Cd1A Cd 0.0000 0.5000 0.5000
Cd1A_2 Cd 1.0000 -0.5000 -0.5000
N1B N 0.71124(11) -0.07564(12) -0.05233(11)
O1B O 0.38028(13) -0.02896(15) -0.22844(12)
O2B O 0.78442(10) -0.21211(11) -0.63186(10)
O3B O 0.95423(10) -0.26152(10) -0.44405(10)
O3A O 0.45423(10) -0.23848(10) 0.05595(10)
O3C O 0.54577(10) 0.23848(10) -0.05595(10)
C1B C 0.79654(15) -0.17483(15) 0.02640(14)
C2B C 0.92049(16) -0.22538(17) -0.00161(16)
C3B C 0.95939(15) -0.16952(16) -0.11451(15)
C4B C 0.87456(13) -0.06336(15) -0.19621(13)
C5B C 0.75028(16) -0.02120(15) -0.16092(16)
C6B C 0.91674(19) 0.01072(15) -0.31409(17)
C7B C 0.82758(17) -0.03087(17) -0.45527(15)
C8B C 0.85755(13) -0.18100(13) -0.51422(13)
H1B H 0.7665(18) -0.208(2) 0.1008(18)
H2B H 0.9776(18) -0.296(2) 0.0590(18)
H3B H 1.0467(19) -0.199(2) -0.1376(18)
H4B H 0.686(2) 0.048(2) -0.2165(19)
H5B H 1.022(2) -0.0146(17) -0.302(2)
H6B H 0.9092(17) 0.1217(19) -0.3076(17)
H7B H 0.726(3) -0.037(3) -0.460(2)
H8B H 0.842(2) 0.041(2) -0.525(2)
H9B H 0.327(2) -0.105(3) -0.217(2)
H10B H 0.328(3) 0.041(3) -0.266(3)
loop_
_geom_bond_atom_site_label_1
_geom_bond_atom_site_label_2
_geom_bond_site_symmetry_1
_geom_bond_site_symmetry_2
Cd1 N1 1_555 1_555
N1 C1 1_555 1_555
O1 Cd1 1_555 1_555
O2 C8 1_555 1_555
O3 C8 1_555 1_555
C1 C2 1_555 1_555
C2 C3 1_555 1_555
C3 C4 1_555 1_555
C4 C5 1_555 1_555
C5 N1 1_555 1_555
C6 C4 1_555 1_555
C7 C6 1_555 1_555
C8 C7 1_555 1_555
H1 C1 1_555 1_555
H2 C2 1_555 1_555
H3 C3 1_555 1_555
H4 C5 1_555 1_555
H5 C6 1_555 1_555
H6 C6 1_555 1_555
H7 C7 1_555 1_555
H8 C7 1_555 1_555
H9 O1 1_555 1_555
H10 O1 1_555 1_555
Cd1A O3 1_555 1_555
Cd1A_2 O3B 1_555 1_555
N1B Cd1 1_555 1_555
O1B Cd1 1_555 1_555
O2B C8B 1_555 1_555
O3B C8B 1_555 1_555
O3A Cd1 1_555 1_555
O3C Cd1 1_555 1_555
C1B N1B 1_555 1_555
C2B C1B 1_555 1_555
C3B C2B 1_555 1_555
C4B C3B 1_555 1_555
C5B N1B 1_555 1_555
C6B C4B 1_555 1_555
C7B C6B 1_555 1_555
C8B C7B 1_555 1_555
H1B C1B 1_555 1_555
H2B C2B 1_555 1_555
H3B C3B 1_555 1_555
H4B C5B 1_555 1_555
H5B C6B 1_555 1_555
H6B C6B 1_555 1_555
H7B C7B 1_555 1_555
H8B C7B 1_555 1_555
H9B O1B 1_555 1_555
H10B O1B 1_555 1_555
C4B C5B 1_555 1_555

#END
