
#######################################################################
#
#                 Cambridge Crystallographic Data Centre
#                                CCDC 
#
#######################################################################
#
# If this CIF has been generated from an entry in the Cambridge 
# Structural Database, then it will include bibliographic, chemical, 
# crystal, experimental, refinement or atomic coordinate data resulting 
# from the CCDC's data processing and validation procedures.
#
#######################################################################

data_PUHNIR
_symmetry_cell_setting           monoclinic
_symmetry_space_group_name_H-M   'P 21/n'
_symmetry_Int_Tables_number      14
_space_group_name_Hall           '-P 2yn'
loop_
_symmetry_equiv_pos_site_id
_symmetry_equiv_pos_as_xyz
1 x,y,z
2 1/2-x,1/2+y,1/2-z
3 -x,-y,-z
4 1/2+x,1/2-y,1/2+z
_cell_length_a                   12.7057(11)
_cell_length_b                   14.5644(13)
_cell_length_c                   16.6985(14)
_cell_angle_alpha                90
_cell_angle_beta                 105.643(3)
_cell_angle_gamma                90
_cell_volume                     2975.62
loop_
_atom_site_label
_atom_site_type_symbol
_atom_site_fract_x
_atom_site_fract_y
_atom_site_fract_z
C1 C 0.5845(4) 0.6244(3) 1.2008(3)
C2 C 0.5614(3) 0.5295(3) 1.1793(2)
C3 C 0.6362(4) 0.4675(3) 1.2329(3)
C4 C 0.4818(3) 0.4973(3) 1.1135(2)
H1 H 0.4730 0.4339 1.1109
C5 C 0.4090(4) 0.5487(3) 1.0467(2)
C6 C 0.4297(4) 0.6391(3) 1.0276(3)
H2 H 0.4907 0.6690 1.0606
C7 C 0.3625(4) 0.6852(3) 0.9613(3)
H3 H 0.3783 0.7452 0.9495
C8 C 0.2718(4) 0.6415(3) 0.9129(3)
H4 H 0.2249 0.6732 0.8693
C9 C 0.2490(4) 0.5525(3) 0.9274(3)
H5 H 0.1877 0.5240 0.8934
C10 C 0.3182(4) 0.5040(3) 0.9937(3)
C11 C 0.2166(4) 0.3657(3) 0.9546(3)
H6 H 0.2188 0.3743 0.8974
H7 H 0.1468 0.3876 0.9601
C12 C 0.2320(4) 0.2661(3) 0.9784(3)
H8 H 0.2403 0.2600 1.0382
C13 C 0.1339(4) 0.2104(3) 0.9311(3)
H9 H 0.0676 0.2330 0.9425
H10 H 0.1256 0.2141 0.8717
C14 C 0.0819(3) 0.0522(3) 0.9244(2)
C15 C -0.0211(4) 0.0691(3) 0.8697(3)
H11 H -0.0426 0.1288 0.8535
C16 C -0.0902(4) -0.0035(3) 0.8401(3)
H12 H -0.1595 0.0079 0.8052
C17 C -0.0585(4) -0.0928(3) 0.8615(3)
H13 H -0.1057 -0.1410 0.8401
C18 C 0.0420(4) -0.1105(3) 0.9137(3)
H14 H 0.0626 -0.1709 0.9280
C19 C 0.1154(4) -0.0383(3) 0.9464(2)
C20 C 0.2257(4) -0.0523(3) 0.9986(3)
H15 H 0.2741 -0.0041 0.9997
C21 C 0.2681(4) -0.1264(3) 1.0459(3)
C22 C 0.3819(5) -0.1295(3) 1.0872(3)
C23 C 0.2059(4) -0.2061(3) 1.0585(3)
N1 N 0.6057(3) 0.6992(3) 1.2210(2)
N2 N 0.7001(3) 0.4206(3) 1.2745(2)
N3 N 0.1599(4) -0.2696(3) 1.0710(3)
N4 N 0.4738(4) -0.1320(3) 1.1187(3)
O1 O 0.1547(3) 0.1179(2) 0.95927(19)
O2 O 0.3055(3) 0.4149(2) 1.01075(19)
O3 O 0.3285(2) 0.2313(2) 0.95929(19)
H16 H 0.3780 0.2265 1.0023
Ag1 Ag 0.34720(3) 0.15693(3) 0.83109(2)
N1B N 0.3943(3) 0.3008(3) 0.7790(2)
N2C N 0.2001(3) 0.0794(3) 0.7745(2)
N4B N 0.5262(4) 0.1320(3) 0.8813(3)
Ag1B Ag 0.65280(3) -0.15693(3) 1.16891(2)
Ag1B_2 Ag 0.65280(3) 0.84307(3) 1.16891(2)
Ag1C Ag 0.84720(3) 0.34307(3) 1.33109(2)
C24 C 0.3878(5) 0.9145(4) 0.3260(4)
H17 H 0.4237 0.9297 0.2826
Cl1 Cl 0.48422(14) 0.86262(11) 0.41062(12)
Cl2 Cl 0.33866(14) 1.01512(10) 0.35955(9)
Cl3 Cl 0.28030(15) 0.83523(11) 0.28531(11)
F1 F 0.5547(4) 0.0876(3) 1.1036(3)
F2 F 0.5659(3) 0.0334(3) 1.2569(2)
F3 F 0.3779(3) 0.0739(3) 1.1552(2)
F4 F 0.4658(4) 0.1875(3) 1.2776(2)
F5 F 0.4555(3) 0.2372(3) 1.1250(2)
F6 F 0.6430(3) 0.1962(3) 1.2292(2)
Sb1 Sb 0.50995(3) 0.13485(2) 1.192152(19)
loop_
_geom_bond_atom_site_label_1
_geom_bond_atom_site_label_2
_geom_bond_site_symmetry_1
_geom_bond_site_symmetry_2
C1 C2 1_555 1_555
C2 C3 1_555 1_555
C3 N2 1_555 1_555
C4 C2 1_555 1_555
H1 C4 1_555 1_555
C5 C4 1_555 1_555
C6 C5 1_555 1_555
H2 C6 1_555 1_555
C7 C6 1_555 1_555
H3 C7 1_555 1_555
C8 C7 1_555 1_555
H4 C8 1_555 1_555
C9 C8 1_555 1_555
H5 C9 1_555 1_555
C10 C5 1_555 1_555
C11 H6 1_555 1_555
H7 C11 1_555 1_555
C12 C11 1_555 1_555
H8 C12 1_555 1_555
C13 C12 1_555 1_555
H9 C13 1_555 1_555
H10 C13 1_555 1_555
C14 C15 1_555 1_555
C15 H11 1_555 1_555
C16 C15 1_555 1_555
H12 C16 1_555 1_555
C17 C16 1_555 1_555
H13 C17 1_555 1_555
C18 C17 1_555 1_555
H14 C18 1_555 1_555
C19 C14 1_555 1_555
C20 C19 1_555 1_555
H15 C20 1_555 1_555
C21 C20 1_555 1_555
C22 C21 1_555 1_555
C23 C21 1_555 1_555
N1 C1 1_555 1_555
N2 Ag1C 1_555 1_555
N3 C23 1_555 1_555
N4 C22 1_555 1_555
O1 C13 1_555 1_555
O2 C10 1_555 1_555
O3 C12 1_555 1_555
H16 O3 1_555 1_555
Ag1 O3 1_555 1_555
C24 H17 1_555 1_555
Cl1 C24 1_555 1_555
Cl2 C24 1_555 1_555
Cl3 C24 1_555 1_555
F1 Sb1 1_555 1_555
F2 Sb1 1_555 1_555
F3 Sb1 1_555 1_555
F4 Sb1 1_555 1_555
F5 Sb1 1_555 1_555
F6 Sb1 1_555 1_555
N1B Ag1 1_555 1_555
N2C Ag1 1_555 1_555
N4B Ag1 1_555 1_555
Ag1B N4 1_555 1_555
Ag1B_2 N1 1_555 1_555
C9 C10 1_555 1_555
C11 O2 1_555 1_555
C14 O1 1_555 1_555
C18 C19 1_555 1_555

#END
