
#######################################################################
#
#                 Cambridge Crystallographic Data Centre
#                                CCDC 
#
#######################################################################
#
# If this CIF has been generated from an entry in the Cambridge 
# Structural Database, then it will include bibliographic, chemical, 
# crystal, experimental, refinement or atomic coordinate data resulting 
# from the CCDC's data processing and validation procedures.
#
#######################################################################

data_PUHQUF
_symmetry_cell_setting           monoclinic
_symmetry_space_group_name_H-M   'P 21/c'
_symmetry_Int_Tables_number      14
_space_group_name_Hall           '-P 2ybc'
loop_
_symmetry_equiv_pos_site_id
_symmetry_equiv_pos_as_xyz
1 x,y,z
2 -x,1/2+y,1/2-z
3 -x,-y,-z
4 x,1/2-y,1/2+z
_cell_length_a                   15.3464(11)
_cell_length_b                   6.9951(5)
_cell_length_c                   17.2844(12)
_cell_angle_alpha                90
_cell_angle_beta                 96.6290(10)
_cell_angle_gamma                90
_cell_volume                     1843.07
loop_
_atom_site_label
_atom_site_type_symbol
_atom_site_fract_x
_atom_site_fract_y
_atom_site_fract_z
Pb1 Pb 0.402858(9) 0.234749(19) -0.017420(8)
S1 S 0.25615(7) -0.17058(17) -0.11614(6)
O1 O 0.43147(15) -0.1252(4) 0.00541(15)
O2 O 0.42527(16) -0.4252(4) 0.04577(16)
O3 O 0.3148(2) -0.3281(5) -0.12513(18)
O4 O 0.1728(2) -0.1882(5) -0.16536(18)
O5 O 0.29504(18) 0.0181(4) -0.12329(15)
N1 N 0.4155(2) 0.1825(5) 0.12289(17)
N2 N 0.2610(2) 0.2622(4) 0.0397(2)
C1 C 0.4933(2) 0.1312(5) 0.1606(2)
H1 H 0.5424 0.1327 0.1337
C2 C 0.5031(3) 0.0765(6) 0.2376(2)
H2 H 0.5576 0.0398 0.2622
C3 C 0.4304(3) 0.0773(6) 0.2774(2)
H3 H 0.4351 0.0400 0.3294
C4 C 0.3511(3) 0.1333(6) 0.2399(2)
H4 H 0.3018 0.1355 0.2665
C5 C 0.3442(3) 0.1870(5) 0.1619(2)
C6 C 0.2604(3) 0.2435(5) 0.1169(3)
C7 C 0.1840(4) 0.2756(6) 0.1507(4)
H5 H 0.1837 0.2637 0.2042
C8 C 0.1089(3) 0.3251(8) 0.1042(4)
H6 H 0.0572 0.3459 0.1262
C9 C 0.1097(3) 0.3439(7) 0.0258(4)
H7 H 0.0592 0.3776 -0.0063
C10 C 0.1878(3) 0.3116(6) -0.0047(3)
H8 H 0.1892 0.3248 -0.0581
C11 C 0.3901(3) -0.2673(5) 0.0288(2)
C12 C 0.2956(3) -0.2376(4) 0.0411(3)
C13 C 0.2730(3) -0.2575(5) 0.1167(3)
H9 H 0.3152 -0.2949 0.1568
C14 C 0.1877(3) -0.2215(6) 0.1319(3)
H10 H 0.1731 -0.2319 0.1825
C15 C 0.1244(3) -0.1702(6) 0.0723(3)
H11 H 0.0674 -0.1455 0.0829
C16 C 0.1451(2) -0.1554(6) -0.0030(3)
H12 H 0.1019 -0.1232 -0.0431
C17 C 0.2304(2) -0.1884(5) -0.0192(2)
Pb1B Pb 0.597142(9) -0.234749(19) 0.017420(8)
Pb1_2 Pb 0.402858(9) -0.765251(19) -0.017420(8)
O1B O 0.56853(15) 0.1252(4) -0.00541(15)
O2_2 O 0.42527(16) 0.5748(4) 0.04577(16)
O6 O 0.0809(3) 0.4682(6) -0.1967(3)
H13 H 0.1149 0.5621 -0.1834
H14 H 0.0420 0.5073 -0.2324
O7 O 0.0420(2) 0.0904(6) -0.1850(2)
H15 H 0.0845 0.0127 -0.1844
H16 H 0.0594 0.2030 -0.1938
loop_
_geom_bond_atom_site_label_1
_geom_bond_atom_site_label_2
_geom_bond_site_symmetry_1
_geom_bond_site_symmetry_2
Pb1 O1 1_555 1_555
S1 O3 1_555 1_555
O1 C11 1_555 1_555
O2 C11 1_555 1_555
O4 S1 1_555 1_555
O5 Pb1 1_555 1_555
N1 Pb1 1_555 1_555
N2 Pb1 1_555 1_555
C1 N1 1_555 1_555
H1 C1 1_555 1_555
C2 C1 1_555 1_555
H2 C2 1_555 1_555
C3 C2 1_555 1_555
H3 C3 1_555 1_555
C4 C3 1_555 1_555
H4 C4 1_555 1_555
C5 N1 1_555 1_555
C6 N2 1_555 1_555
C7 C6 1_555 1_555
H5 C7 1_555 1_555
C8 C7 1_555 1_555
H6 C8 1_555 1_555
C9 C8 1_555 1_555
H7 C9 1_555 1_555
C10 N2 1_555 1_555
H8 C10 1_555 1_555
C11 C12 1_555 1_555
C12 C13 1_555 1_555
C13 H9 1_555 1_555
C14 C13 1_555 1_555
H10 C14 1_555 1_555
C15 C14 1_555 1_555
H11 C15 1_555 1_555
C16 C15 1_555 1_555
H12 C16 1_555 1_555
C17 S1 1_555 1_555
O6 H13 1_555 1_555
H14 O6 1_555 1_555
O7 H15 1_555 1_555
H16 O7 1_555 1_555
Pb1B O1 1_555 1_555
Pb1_2 O2 1_555 1_555
O1B Pb1 1_555 1_555
O2_2 Pb1 1_555 1_555
S1 O5 1_555 1_555
C4 C5 1_555 1_555
C5 C6 1_555 1_555
C9 C10 1_555 1_555
C12 C17 1_555 1_555
C16 C17 1_555 1_555
Pb1B O1B 1_555 1_555

#END
