
#######################################################################
#
#                 Cambridge Crystallographic Data Centre
#                                CCDC 
#
#######################################################################
#
# If this CIF has been generated from an entry in the Cambridge 
# Structural Database, then it will include bibliographic, chemical, 
# crystal, experimental, refinement or atomic coordinate data resulting 
# from the CCDC's data processing and validation procedures.
#
#######################################################################

data_PUHRUG
_symmetry_cell_setting           triclinic
_symmetry_space_group_name_H-M   'P -1'
_symmetry_Int_Tables_number      2
_space_group_name_Hall           '-P 1'
loop_
_symmetry_equiv_pos_site_id
_symmetry_equiv_pos_as_xyz
1 x,y,z
2 -x,-y,-z
_cell_length_a                   6.9122(4)
_cell_length_b                   10.0328(5)
_cell_length_c                   16.7456(9)
_cell_angle_alpha                86.8220(10)
_cell_angle_beta                 84.2100(10)
_cell_angle_gamma                80.7710(10)
_cell_volume                     1139.49
loop_
_atom_site_label
_atom_site_type_symbol
_atom_site_fract_x
_atom_site_fract_y
_atom_site_fract_z
Cu1 Cu 0.06345(5) 0.16501(3) 0.247474(17)
O1 O -0.2554(3) 1.07048(19) 0.26910(13)
O2 O -0.0541(3) 0.35317(17) 0.24333(11)
O3 O 0.1918(3) 0.46515(19) 0.26226(12)
O4 O 0.0528(3) 0.96685(17) 0.25491(10)
O5 O 0.3884(3) 0.2070(2) 0.22304(13)
H1 H 0.489(4) 0.165(3) 0.2398(18)
H2 H 0.362(5) 0.2875(19) 0.2338(19)
N1 N -0.2981(4) 0.4364(2) -0.00903(14)
N2 N -0.3058(4) 0.4306(2) 0.50868(14)
N3 N 0.0735(3) 0.1569(2) 0.12699(13)
N4 N 0.0851(3) 0.1613(2) 0.36631(13)
C1 C -0.1526(5) 0.3472(3) 0.55036(17)
H3 H -0.2147 0.2988 0.5967
H4 H -0.0697 0.4063 0.5715
C2 C -0.1293(5) 0.3582(3) -0.05256(17)
H5 H -0.0398 0.4206 -0.0763
H6 H -0.1754 0.3150 -0.0973
C3 C 0.1232(4) 0.1509(3) -0.03844(18)
H7 H 0.1412 0.1486 -0.0954
C4 C -0.4673(4) 0.3578(3) 0.49701(18)
H8 H -0.5319 0.3322 0.5498
H9 H -0.4150 0.2741 0.4683
C5 C 0.2344(4) 0.0554(3) 0.00767(18)
H10 H 0.3287 -0.0133 -0.0168
C6 C -0.4586(4) 0.3589(3) 0.01158(18)
H11 H -0.4119 0.2774 0.0446
H12 H -0.5022 0.3290 -0.0381
C7 C -0.0140(4) 0.2497(3) -0.00209(17)
C8 C -0.3847(4) 0.5539(3) 0.55103(17)
H13 H -0.2761 0.6037 0.5592
H14 H -0.4486 0.5304 0.6044
C9 C -0.3711(4) 0.5567(3) -0.05738(17)
H15 H -0.4137 0.5290 -0.1078
H16 H -0.2640 0.6109 -0.0716
C10 C 0.1134(5) 0.1464(3) 0.53032(18)
H17 H 0.1234 0.1402 0.5866
C11 C -0.0233(4) 0.2453(3) 0.49772(16)
C12 C -0.3987(4) 0.8273(3) 0.24824(15)
H18 H -0.4912 0.9083 0.2477
C13 C 0.2053(4) 0.0623(3) 0.09015(17)
H19 H 0.2822 -0.0029 0.1221
C14 C -0.1298(4) 0.5885(3) 0.25201(14)
C15 C -0.3263(4) 0.5851(3) 0.24274(17)
H20 H -0.3696 0.5010 0.2377
C16 C 0.2351(4) 0.0567(3) 0.48069(18)
H21 H 0.3297 -0.0113 0.5024
C17 C -0.4595(4) 0.7040(3) 0.24079(17)
H22 H -0.5936 0.7008 0.2343
C18 C -0.0310(4) 0.2481(3) 0.41507(16)
H23 H -0.1241 0.3154 0.3918
C19 C -0.1320(4) 0.9664(3) 0.26089(15)
C20 C -0.2003(4) 0.8321(2) 0.25656(14)
C21 C 0.2174(4) 0.0674(3) 0.39949(17)
H24 H 0.3021 0.0059 0.3655
C22 C -0.0351(4) 0.2482(3) 0.08150(16)
H25 H -0.1307 0.3146 0.1075
C23 C -0.0687(4) 0.7126(3) 0.25844(15)
H26 H 0.0658 0.7154 0.2642
C24 C 0.0186(4) 0.4603(3) 0.25266(14)
Cu1_2 Cu 0.06345(5) -0.83499(3) 0.247474(17)
Cu1_3 Cu 0.06345(5) 1.16501(3) 0.247474(17)
Cu1A Cu -1.06345(5) 0.83499(3) -0.247474(17)
Cu1A_2 Cu -1.06345(5) 0.83499(3) 0.752526(17)
O1_2 O -0.2554(3) 0.07048(19) 0.26910(13)
O2_2 O -0.0541(3) -0.64683(17) 0.24333(11)
O3_2 O 0.1918(3) -0.53485(19) 0.26226(12)
O4_2 O 0.0528(3) -0.03315(17) 0.25491(10)
O4_3 O 0.0528(3) -1.03315(17) 0.25491(10)
O5_2 O 0.3884(3) -0.7930(2) 0.22304(13)
H1_2 H 0.489(4) -0.835(3) 0.2398(18)
H2_2 H 0.362(5) -0.7125(19) 0.2338(19)
N1A N -0.7019(4) 0.5636(2) 0.00903(14)
N2A N -0.6942(4) 0.5694(2) 0.49132(14)
N3A N -1.0735(3) 0.8431(2) -0.12699(13)
N3_2 N 0.0735(3) -0.8431(2) 0.12699(13)
N4A N -1.0851(3) 0.8387(2) 0.63369(13)
N4_2 N 0.0851(3) -0.8387(2) 0.36631(13)
C1A C -0.8474(5) 0.6528(3) 0.44964(17)
H3A H -0.7853 0.7012 0.4033
H4A H -0.9303 0.5937 0.4285
C2A C -0.8707(5) 0.6418(3) 0.05256(17)
H5A H -0.9602 0.5794 0.0763
H6A H -0.8246 0.6850 0.0973
C3A C -1.1232(4) 0.8491(3) 0.03844(18)
H7A H -1.1412 0.8514 0.0954
C4A C -0.5327(4) 0.6422(3) 0.50299(18)
H8A H -0.4681 0.6678 0.4502
H9A H -0.5850 0.7259 0.5317
C5A C -1.2344(4) 0.9446(3) -0.00767(18)
H10A H -1.3287 1.0133 0.0168
C6A C -0.5414(4) 0.6411(3) -0.01158(18)
H11A H -0.5881 0.7226 -0.0446
H12A H -0.4978 0.6710 0.0381
C7A C -0.9860(4) 0.7503(3) 0.00209(17)
C8A C -0.6153(4) 0.4461(3) 0.44897(17)
H13A H -0.7239 0.3963 0.4408
H14A H -0.5514 0.4696 0.3956
C9A C -0.6289(4) 0.4433(3) 0.05738(17)
H15A H -0.5863 0.4710 0.1078
H16A H -0.7360 0.3891 0.0716
C10A C -1.1134(5) 0.8536(3) 0.46968(18)
H17A H -1.1234 0.8598 0.4134
C11A C -0.9767(4) 0.7547(3) 0.50228(16)
C12_2 C -0.3987(4) -0.1727(3) 0.24824(15)
H18_2 H -0.4912 -0.0917 0.2477
C13A C -1.2053(4) 0.9377(3) -0.09015(17)
H19A H -1.2822 1.0029 -0.1221
C14_2 C -0.1298(4) -0.4115(3) 0.25201(14)
C15_2 C -0.3263(4) -0.4149(3) 0.24274(17)
H20_2 H -0.3696 -0.4990 0.2377
C16A C -1.2351(4) 0.9433(3) 0.51931(18)
H21A H -1.3297 1.0113 0.4976
C17_2 C -0.4595(4) -0.2960(3) 0.24079(17)
H22_2 H -0.5936 -0.2992 0.2343
C18A C -0.9690(4) 0.7519(3) 0.58493(16)
H23A H -0.8759 0.6846 0.6082
C19_2 C -0.1320(4) -0.0336(3) 0.26089(15)
C20_2 C -0.2003(4) -0.1679(2) 0.25656(14)
C21A C -1.2174(4) 0.9326(3) 0.60051(17)
H24A H -1.3021 0.9941 0.6345
C22A C -0.9649(4) 0.7518(3) -0.08150(16)
H25A H -0.8693 0.6854 -0.1075
C23_2 C -0.0687(4) -0.2874(3) 0.25844(15)
H26_2 H 0.0658 -0.2846 0.2642
C24_2 C 0.0186(4) -0.5397(3) 0.25266(14)
loop_
_geom_bond_atom_site_label_1
_geom_bond_atom_site_label_2
_geom_bond_site_symmetry_1
_geom_bond_site_symmetry_2
Cu1 O2 1_555 1_555
O1 C19 1_555 1_555
O2 C24 1_555 1_555
O3 C24 1_555 1_555
O4 C19 1_555 1_555
O5 Cu1 1_555 1_555
H1 O5 1_555 1_555
H2 O5 1_555 1_555
N1 C2 1_555 1_555
N2 C1 1_555 1_555
N3 Cu1 1_555 1_555
N4 Cu1 1_555 1_555
C1 H3 1_555 1_555
H4 C1 1_555 1_555
C2 H5 1_555 1_555
H6 C2 1_555 1_555
C3 H7 1_555 1_555
C4 N2 1_555 1_555
H8 C4 1_555 1_555
H9 C4 1_555 1_555
C5 C3 1_555 1_555
H10 C5 1_555 1_555
C6 N1 1_555 1_555
H11 C6 1_555 1_555
H12 C6 1_555 1_555
C7 C2 1_555 1_555
C8 N2 1_555 1_555
H13 C8 1_555 1_555
H14 C8 1_555 1_555
C9 N1 1_555 1_555
H15 C9 1_555 1_555
H16 C9 1_555 1_555
C10 H17 1_555 1_555
C11 C1 1_555 1_555
C12 H18 1_555 1_555
C13 N3 1_555 1_555
H19 C13 1_555 1_555
C14 C15 1_555 1_555
C15 H20 1_555 1_555
C16 C10 1_555 1_555
H21 C16 1_555 1_555
C17 C12 1_555 1_555
H22 C17 1_555 1_555
C18 N4 1_555 1_555
H23 C18 1_555 1_555
C19 C20 1_555 1_555
C20 C12 1_555 1_555
C21 N4 1_555 1_555
H24 C21 1_555 1_555
C22 N3 1_555 1_555
H25 C22 1_555 1_555
C23 C14 1_555 1_555
H26 C23 1_555 1_555
C24 C14 1_555 1_555
Cu1_2 O2_2 1_555 1_555
Cu1_3 O4 1_555 1_555
Cu1A N3A 1_555 1_555
Cu1A_2 N4A 1_555 1_555
O1_2 C19_2 1_555 1_555
O2_2 C24_2 1_555 1_555
O3_2 C24_2 1_555 1_555
O4_2 Cu1 1_555 1_555
O4_3 Cu1_2 1_555 1_555
O5_2 Cu1_2 1_555 1_555
H1_2 O5_2 1_555 1_555
H2_2 O5_2 1_555 1_555
N1A C2A 1_555 1_555
N2A C1A 1_555 1_555
N3A C13A 1_555 1_555
N3_2 Cu1_2 1_555 1_555
N4A C18A 1_555 1_555
N4_2 Cu1_2 1_555 1_555
C1A H3A 1_555 1_555
H4A C1A 1_555 1_555
C2A H5A 1_555 1_555
H6A C2A 1_555 1_555
C3A H7A 1_555 1_555
C4A C8 1_555 1_555
H8A C4A 1_555 1_555
H9A C4A 1_555 1_555
C5A C3A 1_555 1_555
H10A C5A 1_555 1_555
C6A C9 1_555 1_555
H11A C6A 1_555 1_555
H12A C6A 1_555 1_555
C7A C2A 1_555 1_555
C8A C4 1_555 1_555
H13A C8A 1_555 1_555
H14A C8A 1_555 1_555
C9A C6 1_555 1_555
H15A C9A 1_555 1_555
H16A C9A 1_555 1_555
C10A H17A 1_555 1_555
C11A C1A 1_555 1_555
C12_2 H18_2 1_555 1_555
C13A C5A 1_555 1_555
H19A C13A 1_555 1_555
C14_2 C15_2 1_555 1_555
C15_2 H20_2 1_555 1_555
C16A C10A 1_555 1_555
H21A C16A 1_555 1_555
C17_2 C12_2 1_555 1_555
H22_2 C17_2 1_555 1_555
C18A C11A 1_555 1_555
H23A C18A 1_555 1_555
C19_2 O4_2 1_555 1_555
C20_2 C12_2 1_555 1_555
C21A N4A 1_555 1_555
H24A C21A 1_555 1_555
C22A N3A 1_555 1_555
H25A C22A 1_555 1_555
C23_2 C14_2 1_555 1_555
H26_2 C23_2 1_555 1_555
C24_2 C14_2 1_555 1_555
C3 C7 1_555 1_555
C5 C13 1_555 1_555
C7 C22 1_555 1_555
C10 C11 1_555 1_555
C11 C18 1_555 1_555
C15 C17 1_555 1_555
C16 C21 1_555 1_555
C20 C23 1_555 1_555
N1A C6A 1_555 1_555
N1A C9A 1_555 1_555
N2A C4A 1_555 1_555
N2A C8A 1_555 1_555
C3A C7A 1_555 1_555
C7A C22A 1_555 1_555
C10A C11A 1_555 1_555
C15_2 C17_2 1_555 1_555
C16A C21A 1_555 1_555
C19_2 C20_2 1_555 1_555
C20_2 C23_2 1_555 1_555

#END
