
#######################################################################
#
#                 Cambridge Crystallographic Data Centre
#                                CCDC 
#
#######################################################################
#
# If this CIF has been generated from an entry in the Cambridge 
# Structural Database, then it will include bibliographic, chemical, 
# crystal, experimental, refinement or atomic coordinate data resulting 
# from the CCDC's data processing and validation procedures.
#
#######################################################################

data_PUHTIW
_symmetry_cell_setting           monoclinic
_symmetry_space_group_name_H-M   'P 21/c'
_symmetry_Int_Tables_number      14
_space_group_name_Hall           '-P 2ybc'
loop_
_symmetry_equiv_pos_site_id
_symmetry_equiv_pos_as_xyz
1 x,y,z
2 -x,1/2+y,1/2-z
3 -x,-y,-z
4 x,1/2-y,1/2+z
_cell_length_a                   21.8692(16)
_cell_length_b                   8.8517(6)
_cell_length_c                   9.9827(8)
_cell_angle_alpha                90
_cell_angle_beta                 100.151(6)
_cell_angle_gamma                90
_cell_volume                     1902.2
loop_
_atom_site_label
_atom_site_type_symbol
_atom_site_fract_x
_atom_site_fract_y
_atom_site_fract_z
C1 C 0.40669(12) 0.0456(3) -0.2110(2)
H1 H 0.3765 -0.0107 -0.2668
C2 C 0.46736(13) 0.0400(3) -0.2307(3)
H2 H 0.4782 -0.0200 -0.2993
C3 C 0.51209(12) 0.1243(3) -0.1476(3)
C4 C 0.49727(12) 0.2123(3) -0.0441(3)
H3 H 0.5279 0.2674 0.0116
C5 C 0.43659(12) 0.2179(3) -0.0241(2)
H4 H 0.4264 0.2772 0.0457
C6 C 0.39001(10) 0.1357(3) -0.1073(2)
C7 C 0.31504(10) 0.2022(3) 0.0177(2)
C8 C 0.08686(12) 0.4466(3) 0.1636(2)
H5 H 0.1158 0.5163 0.2060
C9 C 0.02663(13) 0.4521(4) 0.1859(3)
H6 H 0.0145 0.5259 0.2420
C10 C -0.01572(12) 0.3465(4) 0.1238(3)
C11 C 0.00043(13) 0.2387(4) 0.0372(3)
H7 H -0.0289 0.1700 -0.0052
C12 C 0.06063(13) 0.2337(3) 0.0141(3)
H8 H 0.0720 0.1612 -0.0443
C13 C 0.10495(11) 0.3370(3) 0.0777(2)
C14 C 0.17962(11) 0.2690(3) -0.0483(2)
C15 C 0.26634(13) 0.6792(3) 0.2963(3)
H9 H 0.2886 0.6460 0.3791
C16 C 0.22430(18) 0.8852(4) 0.1534(3)
H10 H 0.2522 0.9419 0.1084
H11 H 0.2065 0.8041 0.0956
H12 H 0.1918 0.9503 0.1726
C17 C 0.28133(19) 0.9310(4) 0.3862(4)
H13 H 0.2471 0.9804 0.4163
H14 H 0.3056 0.8781 0.4612
H15 H 0.3068 1.0050 0.3522
Co1 Co 0.246530(14) 0.35982(3) 0.22734(3)
N1 N 0.57585(12) 0.1199(4) -0.1702(3)
N2 N 0.32762(9) 0.1413(2) -0.09293(17)
N3 N 0.29935(9) 0.2537(2) 0.11327(19)
N4 N -0.07929(13) 0.3518(4) 0.1502(3)
N5 N 0.16710(9) 0.3332(2) 0.06040(18)
N6 N 0.19618(10) 0.2171(3) -0.1420(2)
N7 N 0.25790(11) 0.8243(2) 0.2787(2)
O1 O 0.61519(11) 0.1945(4) -0.0967(3)
O2 O 0.58758(13) 0.0429(5) -0.2638(4)
O3 O -0.11534(13) 0.2519(5) 0.1018(3)
O4 O -0.09355(14) 0.4554(5) 0.2210(3)
O5 O 0.24632(10) 0.5826(2) 0.20889(18)
Co1C Co 0.246530(14) 0.14018(3) -0.27266(3)
N2C N 0.32762(9) 0.3587(2) 0.40707(17)
N6C N 0.19618(10) 0.2829(3) 0.3580(2)
loop_
_geom_bond_atom_site_label_1
_geom_bond_atom_site_label_2
_geom_bond_site_symmetry_1
_geom_bond_site_symmetry_2
C1 H1 1_555 1_555
C2 C1 1_555 1_555
H2 C2 1_555 1_555
C3 C2 1_555 1_555
C4 C3 1_555 1_555
H3 C4 1_555 1_555
C5 C4 1_555 1_555
H4 C5 1_555 1_555
C6 C1 1_555 1_555
C7 N2 1_555 1_555
C8 H5 1_555 1_555
C9 C8 1_555 1_555
H6 C9 1_555 1_555
C10 C9 1_555 1_555
C11 C10 1_555 1_555
H7 C11 1_555 1_555
C12 C11 1_555 1_555
H8 C12 1_555 1_555
C13 C8 1_555 1_555
C14 N5 1_555 1_555
C15 H9 1_555 1_555
C16 H10 1_555 1_555
H11 C16 1_555 1_555
H12 C16 1_555 1_555
C17 H13 1_555 1_555
H14 C17 1_555 1_555
H15 C17 1_555 1_555
Co1 N3 1_555 1_555
N1 C3 1_555 1_555
N2 C6 1_555 1_555
N3 C7 1_555 1_555
N4 C10 1_555 1_555
N5 C13 1_555 1_555
N6 C14 1_555 1_555
N7 C15 1_555 1_555
O1 N1 1_555 1_555
O2 N1 1_555 1_555
O3 N4 1_555 1_555
O4 N4 1_555 1_555
O5 C15 1_555 1_555
Co1C N2 1_555 1_555
N2C Co1 1_555 1_555
N6C Co1 1_555 1_555
C5 C6 1_555 1_555
C12 C13 1_555 1_555
C16 N7 1_555 1_555
C17 N7 1_555 1_555
Co1 N5 1_555 1_555
Co1 O5 1_555 1_555
N6 Co1C 1_555 1_555

#END
