
#######################################################################
#
#                 Cambridge Crystallographic Data Centre
#                                CCDC 
#
#######################################################################
#
# If this CIF has been generated from an entry in the Cambridge 
# Structural Database, then it will include bibliographic, chemical, 
# crystal, experimental, refinement or atomic coordinate data resulting 
# from the CCDC's data processing and validation procedures.
#
#######################################################################

data_PUHTES
_symmetry_cell_setting           monoclinic
_symmetry_space_group_name_H-M   'P 21/c'
_symmetry_Int_Tables_number      14
_space_group_name_Hall           '-P 2ybc'
loop_
_symmetry_equiv_pos_site_id
_symmetry_equiv_pos_as_xyz
1 x,y,z
2 -x,1/2+y,1/2-z
3 -x,-y,-z
4 x,1/2-y,1/2+z
_cell_length_a                   9.785(3)
_cell_length_b                   12.356(2)
_cell_length_c                   17.850(4)
_cell_angle_alpha                90
_cell_angle_beta                 99.559(2)
_cell_angle_gamma                90
_cell_volume                     2128.16
loop_
_atom_site_label
_atom_site_type_symbol
_atom_site_fract_x
_atom_site_fract_y
_atom_site_fract_z
C1 C 0.26875(18) -0.14344(12) 0.31985(9)
C2 C 0.17989(19) -0.05018(12) 0.28319(8)
H1 H 0.0830 -0.0685 0.2849
C3 C 0.1936(2) -0.03654(14) 0.19910(9)
H2 H 0.2910 -0.0313 0.1951
H3 H 0.1566 -0.1004 0.1713
C4 C 0.1186(2) 0.06275(15) 0.16243(10)
H4 H 0.0195 0.0529 0.1593
H5 H 0.1379 0.0705 0.1111
C5 C 0.1633(2) 0.16551(14) 0.20745(10)
H6 H 0.1051 0.2248 0.1838
C6 C 0.1330(2) 0.15185(14) 0.28861(10)
H7 H 0.1598 0.2171 0.3176
H8 H 0.0343 0.1411 0.2870
C7 C 0.2122(2) 0.05525(13) 0.32766(9)
H9 H 0.1885 0.0467 0.3780
H10 H 0.3108 0.0696 0.3335
C8 C 0.3140(2) 0.19815(14) 0.20859(10)
C9 C 0.64364(19) 0.15946(12) 0.36882(9)
H11 H 0.6565 0.2340 0.3690
C10 C 0.65119(17) 0.09703(13) 0.43108(8)
H12 H 0.6699 0.1200 0.4814
C11 C 0.60365(17) -0.00366(12) 0.32978(8)
H13 H 0.5836 -0.0639 0.2986
C12 C 0.62805(17) -0.10377(13) 0.45236(9)
H14 H 0.5627 -0.1555 0.4258
H15 H 0.5966 -0.0851 0.4995
C13 C 0.76758(16) -0.15711(12) 0.47099(8)
C14 C 0.88512(18) -0.11324(14) 0.44907(9)
H16 H 0.8783 -0.0491 0.4214
C15 C 1.01216(19) -0.16348(15) 0.46771(11)
H17 H 1.0900 -0.1343 0.4517
C16 C 1.02296(19) -0.25688(16) 0.51008(11)
H18 H 1.1089 -0.2898 0.5239
C17 C 0.90668(18) -0.30224(14) 0.53235(9)
H19 H 0.9148 -0.3657 0.5608
C18 C 0.77854(16) -0.25356(12) 0.51251(8)
C19 C 0.64901(18) -0.30062(13) 0.53515(10)
H20 H 0.6259 -0.2593 0.5775
H21 H 0.5732 -0.2925 0.4930
C20 C 0.64394(19) -0.45501(12) 0.62419(8)
H22 H 0.6285 -0.4133 0.6653
C21 C 0.67567(18) -0.58996(13) 0.55355(9)
H23 H 0.6869 -0.6603 0.5371
C22 C 0.67997(19) -0.50032(14) 0.51112(9)
H24 H 0.6934 -0.4972 0.4608
O1 O 0.30810(13) -0.14809(9) 0.38854(6)
O2 O 0.30090(18) -0.21351(10) 0.27393(7)
O3 O 0.36872(16) 0.26656(10) 0.25459(8)
O4 O 0.38185(14) 0.15379(10) 0.16067(7)
Co1 Co 0.58188(3) 0.163209(16) 0.199462(11)
N1 N 0.61394(14) 0.09605(10) 0.30478(7)
N2 N 0.62601(13) -0.00679(10) 0.40605(6)
N3 N 0.66068(14) -0.41468(10) 0.55676(7)
N4 N 0.65211(15) -0.56183(10) 0.62477(7)
O2A O 0.69910(18) 0.28649(10) 0.22607(7)
Co1A Co 0.41812(3) -0.336791(16) 0.300538(11)
Co1C Co 0.58188(3) -0.663209(16) 0.699462(11)
N4C N 0.65211(15) 0.06183(10) 0.12477(7)
loop_
_geom_bond_atom_site_label_1
_geom_bond_atom_site_label_2
_geom_bond_site_symmetry_1
_geom_bond_site_symmetry_2
C1 C2 1_555 1_555
C2 H1 1_555 1_555
C3 C2 1_555 1_555
H2 C3 1_555 1_555
H3 C3 1_555 1_555
C4 C3 1_555 1_555
H4 C4 1_555 1_555
H5 C4 1_555 1_555
C5 C4 1_555 1_555
H6 C5 1_555 1_555
C6 C5 1_555 1_555
H7 C6 1_555 1_555
H8 C6 1_555 1_555
C7 C2 1_555 1_555
H9 C7 1_555 1_555
H10 C7 1_555 1_555
C8 C5 1_555 1_555
C9 H11 1_555 1_555
C10 C9 1_555 1_555
H12 C10 1_555 1_555
C11 H13 1_555 1_555
C12 H14 1_555 1_555
H15 C12 1_555 1_555
C13 C12 1_555 1_555
C14 C13 1_555 1_555
H16 C14 1_555 1_555
C15 C14 1_555 1_555
H17 C15 1_555 1_555
C16 C15 1_555 1_555
H18 C16 1_555 1_555
C17 C16 1_555 1_555
H19 C17 1_555 1_555
C18 C13 1_555 1_555
C19 C18 1_555 1_555
H20 C19 1_555 1_555
H21 C19 1_555 1_555
C20 H22 1_555 1_555
C21 H23 1_555 1_555
C22 C21 1_555 1_555
H24 C22 1_555 1_555
O1 C1 1_555 1_555
O2 C1 1_555 1_555
O3 C8 1_555 1_555
O4 C8 1_555 1_555
Co1 O4 1_555 1_555
N1 C9 1_555 1_555
N2 C10 1_555 1_555
N3 C19 1_555 1_555
N4 C20 1_555 1_555
O2A Co1 1_555 1_555
Co1A O2 1_555 1_555
Co1C N4 1_555 1_555
N4C Co1 1_555 1_555
C6 C7 1_555 1_555
C11 N1 1_555 1_555
C11 N2 1_555 1_555
C12 N2 1_555 1_555
C17 C18 1_555 1_555
C20 N3 1_555 1_555
C21 N4 1_555 1_555
C22 N3 1_555 1_555
Co1 N1 1_555 1_555

#END
