
#######################################################################
#
#                 Cambridge Crystallographic Data Centre
#                                CCDC 
#
#######################################################################
#
# If this CIF has been generated from an entry in the Cambridge 
# Structural Database, then it will include bibliographic, chemical, 
# crystal, experimental, refinement or atomic coordinate data resulting 
# from the CCDC's data processing and validation procedures.
#
#######################################################################

data_PUHVUL
_symmetry_cell_setting           monoclinic
_symmetry_space_group_name_H-M   'P 21/n'
_symmetry_Int_Tables_number      14
_space_group_name_Hall           '-P 2yn'
loop_
_symmetry_equiv_pos_site_id
_symmetry_equiv_pos_as_xyz
1 x,y,z
2 1/2-x,1/2+y,1/2-z
3 -x,-y,-z
4 1/2+x,1/2-y,1/2+z
_cell_length_a                   13.5177(13)
_cell_length_b                   7.8151(7)
_cell_length_c                   16.3815(16)
_cell_angle_alpha                90
_cell_angle_beta                 105.9880(10)
_cell_angle_gamma                90
_cell_volume                     1663.64
loop_
_atom_site_label
_atom_site_type_symbol
_atom_site_fract_x
_atom_site_fract_y
_atom_site_fract_z
Ca1 Ca -0.03024(3) 0.73199(5) -0.03630(2)
O1 O 0.13614(11) 0.71883(18) 0.06342(9)
O2 O 0.17880(11) 0.44177(18) 0.09274(9)
C1 C 0.19681(15) 0.5995(3) 0.09691(12)
C2 C 0.30554(15) 0.6591(3) 0.14306(12)
H1 H 0.3027 0.7641 0.1772
C3 C 0.36813(16) 0.6948(3) 0.07862(13)
H2 H 0.3223 0.6991 0.0200
H3 H 0.4056 0.8047 0.0915
C4 C 0.44328(16) 0.5450(3) 0.08921(14)
H4 H 0.4103 0.4439 0.0564
H5 H 0.5052 0.5767 0.0714
C5 C 0.46954(16) 0.5122(3) 0.18362(14)
H6 H 0.5017 0.3984 0.1984
H7 H 0.5160 0.6014 0.2161
N1 N 0.36515(14) 0.5202(2) 0.19917(11)
H8 H 0.3719(19) 0.542(3) 0.2524(11)
H9 H 0.3339(18) 0.426(2) 0.1853(15)
O3 O 0.07574(11) 0.82890(19) -0.12582(9)
O4 O 0.05729(11) 1.0672(2) -0.05780(9)
C6 C 0.10168(15) 0.9775(3) -0.10027(12)
C7 C 0.19624(15) 1.0570(3) -0.11861(13)
H10 H 0.1749 1.1590 -0.1562
C8 C 0.27868(16) 1.1100(3) -0.03832(14)
H11 H 0.2658 1.2267 -0.0201
H12 H 0.2820 1.0289 0.0088
C9 C 0.37676(16) 1.1036(3) -0.06692(15)
H13 H 0.3828 1.2062 -0.1007
H14 H 0.4384 1.0959 -0.0176
C10 C 0.36426(16) 0.9424(3) -0.12097(14)
H15 H 0.4018 0.9525 -0.1648
H16 H 0.3898 0.8406 -0.0854
N2 N 0.24971(13) 0.9306(2) -0.16118(11)
H17 H 0.2416(19) 0.947(3) -0.2149(11)
H18 H 0.2262(18) 0.831(2) -0.1566(15)
O5 O -0.03995(11) 0.53197(19) 0.08375(9)
H19 H -0.0034(17) 0.555(3) 0.1264(12)
H20 H -0.0915(15) 0.516(3) 0.0947(16)
O6 O -0.15013(11) 0.93335(19) -0.13128(9)
H21 H -0.140(2) 1.023(2) -0.1128(16)
H22 H -0.2080(13) 0.920(3) -0.1470(15)
Ca1B Ca 0.03024(3) 0.26801(5) 0.03630(2)
Ca1B_2 Ca 0.03024(3) 1.26801(5) 0.03630(2)
O2B O -0.17880(11) 0.55823(18) -0.09274(9)
O4B O -0.05729(11) 0.9328(2) 0.05780(9)
O5B O 0.03995(11) 0.46803(19) -0.08375(9)
Br1 Br 0.39471(2) 0.09604(3) 0.21768(2)
Br2 Br 0.25796(2) 0.51410(3) -0.14487(2)
loop_
_geom_bond_atom_site_label_1
_geom_bond_atom_site_label_2
_geom_bond_site_symmetry_1
_geom_bond_site_symmetry_2
Ca1 O1 1_555 1_555
O1 C1 1_555 1_555
O2 C1 1_555 1_555
C1 C2 1_555 1_555
C2 H1 1_555 1_555
C3 C2 1_555 1_555
H2 C3 1_555 1_555
H3 C3 1_555 1_555
C4 C3 1_555 1_555
H4 C4 1_555 1_555
H5 C4 1_555 1_555
C5 C4 1_555 1_555
H6 C5 1_555 1_555
H7 C5 1_555 1_555
N1 C2 1_555 1_555
H8 N1 1_555 1_555
H9 N1 1_555 1_555
O3 Ca1 1_555 1_555
O4 C6 1_555 1_555
C6 O3 1_555 1_555
C7 C6 1_555 1_555
H10 C7 1_555 1_555
C8 C7 1_555 1_555
H11 C8 1_555 1_555
H12 C8 1_555 1_555
C9 C8 1_555 1_555
H13 C9 1_555 1_555
H14 C9 1_555 1_555
C10 C9 1_555 1_555
H15 C10 1_555 1_555
H16 C10 1_555 1_555
N2 C7 1_555 1_555
H17 N2 1_555 1_555
H18 N2 1_555 1_555
O5 Ca1 1_555 1_555
H19 O5 1_555 1_555
H20 O5 1_555 1_555
O6 Ca1 1_555 1_555
H21 O6 1_555 1_555
H22 O6 1_555 1_555
Ca1B O2 1_555 1_555
Ca1B_2 O4 1_555 1_555
O2B Ca1 1_555 1_555
O4B Ca1 1_555 1_555
O5B Ca1 1_555 1_555
C5 N1 1_555 1_555
C10 N2 1_555 1_555
O5 Ca1B 1_555 1_555
Ca1B O5B 1_555 1_555

#END
