
#######################################################################
#
#                 Cambridge Crystallographic Data Centre
#                                CCDC 
#
#######################################################################
#
# If this CIF has been generated from an entry in the Cambridge 
# Structural Database, then it will include bibliographic, chemical, 
# crystal, experimental, refinement or atomic coordinate data resulting 
# from the CCDC's data processing and validation procedures.
#
#######################################################################

data_PUHWAS
_symmetry_cell_setting           monoclinic
_symmetry_space_group_name_H-M   'C 2'
_symmetry_Int_Tables_number      5
_space_group_name_Hall           'C 2y'
loop_
_symmetry_equiv_pos_site_id
_symmetry_equiv_pos_as_xyz
1 x,y,z
2 -x,y,-z
3 1/2+x,1/2+y,z
4 1/2-x,1/2+y,-z
_cell_length_a                   20.598(4)
_cell_length_b                   7.6790(14)
_cell_length_c                   9.7974(17)
_cell_angle_alpha                90
_cell_angle_beta                 95.553(3)
_cell_angle_gamma                90
_cell_volume                     1542.4
loop_
_atom_site_label
_atom_site_type_symbol
_atom_site_fract_x
_atom_site_fract_y
_atom_site_fract_z
Br1 Br 0.37540(4) 1.09421(9) 0.15097(8)
Br2 Br 0.10606(3) 1.00362(10) 0.25148(8)
Ca1 Ca 0.24385(7) 1.07014(19) 0.24436(14)
O1 O 0.2716(3) 0.9454(7) 0.4504(5)
O2 O 0.2708(3) 0.8369(7) 0.6609(5)
C1 C 0.2904(4) 0.9420(10) 0.5743(7)
C2 C 0.4312(4) 1.0180(13) 0.7985(8)
H1 H 0.4409 0.9220 0.8647
H2 H 0.4559 1.1229 0.8316
C3 C 0.3396(4) 1.0783(11) 0.6270(7)
H3 H 0.3195 1.1961 0.6121
C4 C 0.4476(5) 0.9670(15) 0.6575(10)
H4 H 0.4938 0.9928 0.6462
H5 H 0.4396 0.8413 0.6411
C5 C 0.4034(4) 1.0742(15) 0.5621(8)
H6 H 0.3974 1.0203 0.4699
H7 H 0.4210 1.1932 0.5537
N1 N 0.3596(3) 1.0545(9) 0.7784(7)
H8 H 0.355(5) 1.158(7) 0.810(9)
H9 H 0.329(3) 1.018(13) 0.825(8)
O3 O 0.2091(3) 1.2300(7) 0.0488(5)
O4 O 0.2576(3) 1.3016(7) -0.1370(5)
C6 C 0.2177(4) 1.2171(9) -0.0749(7)
C7 C 0.1793(3) 1.0762(11) -0.1614(7)
H10 H 0.2095 0.9779 -0.1773
C8 C 0.0625(4) 1.0712(17) -0.1556(9)
H11 H 0.0524 1.1906 -0.1259
H12 H 0.0258 0.9932 -0.1391
C9 C 0.0761(4) 1.0679(14) -0.3068(8)
H13 H 0.0729 0.9483 -0.3445
H14 H 0.0456 1.1447 -0.3632
C10 C 0.1457(4) 1.1358(10) -0.3005(8)
H15 H 0.1459 1.2644 -0.3072
H16 H 0.1683 1.0871 -0.3766
N2 N 0.1246(3) 1.0075(10) -0.0836(6)
H17 H 0.119(4) 0.898(6) -0.098(9)
H18 H 0.123(4) 1.028(12) 0.003(5)
Ca1C Ca 0.25615(7) 0.57014(19) 0.75564(14)
Ca1C_2 Ca 0.25615(7) 1.57014(19) -0.24436(14)
O2C O 0.2292(3) 1.3369(7) 0.3391(5)
O4C O 0.2424(3) 0.8016(7) 0.1370(5)
loop_
_geom_bond_atom_site_label_1
_geom_bond_atom_site_label_2
_geom_bond_site_symmetry_1
_geom_bond_site_symmetry_2
Br1 Ca1 1_555 1_555
Br2 Ca1 1_555 1_555
Ca1 O1 1_555 1_555
O1 C1 1_555 1_555
O2 C1 1_555 1_555
C1 C3 1_555 1_555
C2 H1 1_555 1_555
H2 C2 1_555 1_555
C3 H3 1_555 1_555
C4 C2 1_555 1_555
H4 C4 1_555 1_555
H5 C4 1_555 1_555
C5 C3 1_555 1_555
H6 C5 1_555 1_555
H7 C5 1_555 1_555
N1 C2 1_555 1_555
H8 N1 1_555 1_555
H9 N1 1_555 1_555
O3 Ca1 1_555 1_555
O4 C6 1_555 1_555
C6 O3 1_555 1_555
C7 C6 1_555 1_555
H10 C7 1_555 1_555
C8 H11 1_555 1_555
H12 C8 1_555 1_555
C9 C8 1_555 1_555
H13 C9 1_555 1_555
H14 C9 1_555 1_555
C10 C7 1_555 1_555
H15 C10 1_555 1_555
H16 C10 1_555 1_555
N2 C7 1_555 1_555
H17 N2 1_555 1_555
H18 N2 1_555 1_555
Ca1C O2 1_555 1_555
Ca1C_2 O4 1_555 1_555
O2C Ca1 1_555 1_555
O4C Ca1 1_555 1_555
C3 N1 1_555 1_555
C4 C5 1_555 1_555
C8 N2 1_555 1_555
C9 C10 1_555 1_555

#END
