
#######################################################################
#
#                 Cambridge Crystallographic Data Centre
#                                CCDC 
#
#######################################################################
#
# If this CIF has been generated from an entry in the Cambridge 
# Structural Database, then it will include bibliographic, chemical, 
# crystal, experimental, refinement or atomic coordinate data resulting 
# from the CCDC's data processing and validation procedures.
#
#######################################################################

data_PUHXUN
_symmetry_cell_setting           monoclinic
_symmetry_space_group_name_H-M   'P 21/n'
_symmetry_Int_Tables_number      14
_space_group_name_Hall           '-P 2yn'
loop_
_symmetry_equiv_pos_site_id
_symmetry_equiv_pos_as_xyz
1 x,y,z
2 1/2-x,1/2+y,1/2-z
3 -x,-y,-z
4 1/2+x,1/2-y,1/2+z
_cell_length_a                   13.6326(4)
_cell_length_b                   14.6432(4)
_cell_length_c                   14.9395(5)
_cell_angle_alpha                90
_cell_angle_beta                 93.1320(10)
_cell_angle_gamma                90
_cell_volume                     2977.84
loop_
_atom_site_label
_atom_site_type_symbol
_atom_site_fract_x
_atom_site_fract_y
_atom_site_fract_z
Cd1 Cd 0.000060(11) 0.126238(11) 1.154428(10)
O1 O 0.08955(14) 0.02711(14) 1.23813(16)
O2 O 0.18896(15) 0.13398(12) 1.19395(13)
O3 O 0.29829(17) 0.10834(13) 1.54942(13)
O4 O 0.39795(17) -0.00621(15) 1.58995(13)
O5 O 0.13092(11) -0.04727(12) 0.88892(11)
O6 O 0.17286(17) -0.05312(16) 0.74867(12)
O7 O 0.36635(15) 0.22227(11) 0.66562(10)
O8 O 0.47892(11) 0.27451(10) 0.76395(11)
O9 O 0.0710(4) -0.0112(4) 1.0633(4)
N1 N 0.03052(14) 0.18816(14) 1.02045(13)
N2 N -0.0989(2) 0.10486(16) 0.41064(14)
C1 C 0.17330(18) 0.06291(16) 1.23463(14)
C2 C 0.25375(16) 0.01598(14) 1.29075(14)
C3 C 0.26730(17) 0.04486(15) 1.37911(14)
H1 H 0.2325 0.0952 1.3981
C4 C 0.33166(17) 0.00022(15) 1.43970(14)
C5 C 0.38184(17) -0.07620(17) 1.41106(15)
H2 H 0.4230 -0.1085 1.4513
C6 C 0.37041(18) -0.10404(16) 1.32269(15)
H3 H 0.4050 -0.1547 1.3040
C7 C 0.30809(15) -0.05776(14) 1.26085(14)
C8 C 0.34754(18) 0.03256(16) 1.53385(15)
C9 C 0.30327(15) -0.08708(14) 1.16542(13)
C10 C 0.29392(16) -0.17905(15) 1.14275(15)
H4 H 0.2885 -0.2228 1.1873
C11 C 0.29280(17) -0.20517(14) 1.05362(16)
H5 H 0.2861 -0.2666 1.0389
C12 C 0.30145(16) -0.14156(14) 0.98627(14)
H6 H 0.2998 -0.1604 0.9268
C13 C 0.31260(14) -0.04925(13) 1.00706(13)
C14 C 0.31292(15) -0.02317(13) 1.09693(13)
H7 H 0.3197 0.0383 1.1116
C15 C 0.33150(14) 0.01983(13) 0.93717(12)
C16 C 0.27963(14) 0.02446(14) 0.85269(13)
C17 C 0.30813(15) 0.08751(15) 0.78973(13)
H8 H 0.2753 0.0887 0.7335
C18 C 0.38426(15) 0.14892(13) 0.80819(13)
C19 C 0.43502(15) 0.14464(15) 0.89154(15)
H9 H 0.4864 0.1849 0.9052
C20 C 0.40923(15) 0.08080(15) 0.95391(14)
H10 H 0.4447 0.0782 1.0088
C21 C 0.18803(16) -0.03048(15) 0.82792(15)
C22 C 0.41138(16) 0.21945(14) 0.74096(14)
C23 C 0.11742(19) 0.1848(2) 0.98372(18)
H11 H 0.1694 0.1556 1.0148
C24 C 0.1331(2) 0.2231(2) 0.90141(18)
H12 H 0.1948 0.2188 0.8780
C25 C 0.0586(2) 0.26752(18) 0.85361(15)
C26 C -0.0306(2) 0.2715(2) 0.89255(18)
H13 H -0.0834 0.3012 0.8632
C27 C -0.04172(19) 0.2319(2) 0.97426(17)
H14 H -0.1028 0.2355 0.9989
C28 C 0.0747(3) 0.3131(2) 0.76484(17)
H15 H 0.1424 0.3038 0.7503
H16 H 0.0644 0.3782 0.7712
C29 C 0.0080(3) 0.2784(2) 0.68724(18)
H17 H -0.0595 0.2931 0.6991
H18 H 0.0240 0.3107 0.6332
C30 C 0.0151(3) 0.1775(2) 0.67038(18)
H19 H -0.0197 0.1451 0.7156
H20 H 0.0836 0.1592 0.6764
C31 C -0.0267(2) 0.15002(19) 0.57877(17)
C32 C 0.0340(2) 0.12243(19) 0.51436(18)
H21 H 0.1012 0.1187 0.5279
C33 C -0.0029(2) 0.1001(2) 0.42962(18)
H22 H 0.0392 0.0818 0.3861
C34 C -0.1610(2) 0.1304(2) 0.4709(2)
H23 H -0.2280 0.1325 0.4556
C35 C -0.1267(2) 0.1537(2) 0.55612(19)
H24 H -0.1703 0.1719 0.5984
H25 H 0.329(3) 0.134(2) 1.595(3)
H26 H -0.116(3) 0.088(3) 0.362(3)
Cd1B Cd -0.000060(11) -0.126238(11) 0.845572(10)
Cd1C Cd 0.500060(11) 0.373762(11) 0.654428(10)
O5B O -0.13092(11) 0.04727(12) 1.11108(11)
O8C O -0.02108(11) 0.22549(10) 1.26395(11)
loop_
_geom_bond_atom_site_label_1
_geom_bond_atom_site_label_2
_geom_bond_site_symmetry_1
_geom_bond_site_symmetry_2
Cd1 O1 1_555 1_555
O1 C1 1_555 1_555
O2 Cd1 1_555 1_555
O3 C8 1_555 1_555
O4 C8 1_555 1_555
O5 C21 1_555 1_555
O6 C21 1_555 1_555
O7 C22 1_555 1_555
O8 C22 1_555 1_555
O9 Cd1 1_555 1_555
N1 Cd1 1_555 1_555
N2 C33 1_555 1_555
C1 O2 1_555 1_555
C2 C1 1_555 1_555
C3 C2 1_555 1_555
H1 C3 1_555 1_555
C4 C3 1_555 1_555
C5 C4 1_555 1_555
H2 C5 1_555 1_555
C6 C5 1_555 1_555
H3 C6 1_555 1_555
C7 C2 1_555 1_555
C8 C4 1_555 1_555
C9 C7 1_555 1_555
C10 C9 1_555 1_555
H4 C10 1_555 1_555
C11 C10 1_555 1_555
H5 C11 1_555 1_555
C12 C11 1_555 1_555
H6 C12 1_555 1_555
C13 C12 1_555 1_555
C14 C9 1_555 1_555
H7 C14 1_555 1_555
C15 C13 1_555 1_555
C16 C15 1_555 1_555
C17 C16 1_555 1_555
H8 C17 1_555 1_555
C18 C17 1_555 1_555
C19 C18 1_555 1_555
H9 C19 1_555 1_555
C20 C15 1_555 1_555
H10 C20 1_555 1_555
C21 C16 1_555 1_555
C22 C18 1_555 1_555
C23 N1 1_555 1_555
H11 C23 1_555 1_555
C24 C23 1_555 1_555
H12 C24 1_555 1_555
C25 C24 1_555 1_555
C26 C25 1_555 1_555
H13 C26 1_555 1_555
C27 N1 1_555 1_555
H14 C27 1_555 1_555
C28 C25 1_555 1_555
H15 C28 1_555 1_555
H16 C28 1_555 1_555
C29 C28 1_555 1_555
H17 C29 1_555 1_555
H18 C29 1_555 1_555
C30 C29 1_555 1_555
H19 C30 1_555 1_555
H20 C30 1_555 1_555
C31 C30 1_555 1_555
C32 C31 1_555 1_555
H21 C32 1_555 1_555
C33 C32 1_555 1_555
H22 C33 1_555 1_555
C34 N2 1_555 1_555
H23 C34 1_555 1_555
C35 C31 1_555 1_555
H24 C35 1_555 1_555
H25 O3 1_555 1_555
H26 N2 1_555 1_555
Cd1B O5 1_555 1_555
Cd1C O8 1_555 1_555
O5B Cd1 1_555 1_555
O8C Cd1 1_555 1_555
C6 C7 1_555 1_555
C13 C14 1_555 1_555
C19 C20 1_555 1_555
C26 C27 1_555 1_555
C34 C35 1_555 1_555

#END
