
#######################################################################
#
#                 Cambridge Crystallographic Data Centre
#                                CCDC 
#
#######################################################################
#
# If this CIF has been generated from an entry in the Cambridge 
# Structural Database, then it will include bibliographic, chemical, 
# crystal, experimental, refinement or atomic coordinate data resulting 
# from the CCDC's data processing and validation procedures.
#
#######################################################################

data_PUHXOH
_symmetry_cell_setting           monoclinic
_symmetry_space_group_name_H-M   'P 21/n'
_symmetry_Int_Tables_number      14
_space_group_name_Hall           '-P 2yn'
loop_
_symmetry_equiv_pos_site_id
_symmetry_equiv_pos_as_xyz
1 x,y,z
2 1/2-x,1/2+y,1/2-z
3 -x,-y,-z
4 1/2+x,1/2-y,1/2+z
_cell_length_a                   13.1031(6)
_cell_length_b                   14.7315(7)
_cell_length_c                   15.0041(7)
_cell_angle_alpha                90
_cell_angle_beta                 91.2020(10)
_cell_angle_gamma                90
_cell_volume                     2895.58
loop_
_atom_site_label
_atom_site_type_symbol
_atom_site_fract_x
_atom_site_fract_y
_atom_site_fract_z
Zn1 Zn 0.99906(3) 0.88663(3) 0.64802(2)
O1 O 0.89253(17) 0.95912(16) 0.70310(15)
O2 O 0.79085(18) 0.83707(17) 0.69718(16)
O3 O 0.6609(3) 0.8769(2) 1.0177(2)
H1 H 0.6462 0.8611 1.0682
O4 O 0.6069(2) 1.0093(2) 1.06479(16)
O5 O 0.88086(16) 1.03636(16) 0.37497(15)
O6 O 0.8225(2) 1.0436(2) 0.23574(17)
O7 O 0.6348(2) 0.76784(17) 0.14640(14)
O8 O 0.52731(16) 0.70587(15) 0.24025(14)
N1 N 0.9651(2) 0.8459(2) 0.52220(16)
H2 H 1.112(3) 0.922(3) -0.139(3)
N2 N 1.0901(3) 0.9035(2) -0.0921(2)
C1 C 0.8088(3) 0.9162(2) 0.7180(2)
C2 C 0.7332(2) 0.9707(2) 0.77057(19)
C3 C 0.7121(2) 0.9408(2) 0.8557(2)
H3 H 0.7366 0.8846 0.8745
C4 C 0.6551(2) 0.9931(2) 0.9136(2)
C5 C 0.6181(2) 1.0761(2) 0.8847(2)
H4 H 0.5826 1.1130 0.9236
C6 C 0.6336(2) 1.1047(2) 0.7984(2)
H5 H 0.6061 1.1597 0.7792
C7 C 0.6900(2) 1.0521(2) 0.73948(19)
C8 C 0.6372(3) 0.9623(3) 1.0065(2)
C9 C 0.6968(2) 1.0804(2) 0.64435(19)
C10 C 0.7072(2) 1.1705(2) 0.6201(2)
H6 H 0.7118 1.2152 0.6637
C11 C 0.7107(3) 1.1941(2) 0.5311(2)
H7 H 0.7190 1.2547 0.5155
C12 C 0.7020(2) 1.1295(2) 0.4650(2)
H8 H 0.7046 1.1467 0.4055
C13 C 0.6894(2) 1.0381(2) 0.48730(19)
C14 C 0.6874(2) 1.0150(2) 0.57716(19)
H9 H 0.6796 0.9544 0.5930
C15 C 0.6716(2) 0.9672(2) 0.41811(19)
C16 C 0.5934(2) 0.9044(2) 0.4319(2)
H10 H 0.5571 0.9071 0.4844
C17 C 0.5688(2) 0.8383(2) 0.3696(2)
H11 H 0.5182 0.7960 0.3814
C18 C 0.6196(2) 0.8352(2) 0.28931(19)
C19 C 0.6956(2) 0.8980(2) 0.2744(2)
H12 H 0.7286 0.8971 0.2201
C20 C 0.7246(2) 0.9625(2) 0.33765(19)
C21 C 0.5925(2) 0.7659(2) 0.2199(2)
C22 C 0.8161(3) 1.0199(2) 0.3142(2)
C23 C 0.8794(3) 0.8045(3) 0.4968(2)
H13 H 0.8261 0.8022 0.5366
C24 C 0.8657(3) 0.7650(3) 0.4145(2)
H14 H 0.8032 0.7386 0.3992
C25 C 0.9436(3) 0.7640(3) 0.3544(2)
C26 C 1.0281(3) 0.8130(4) 0.3785(3)
H15 H 1.0808 0.8196 0.3384
C27 C 1.0365(3) 0.8524(4) 0.4605(3)
H16 H 1.0952 0.8856 0.4742
C28 C 0.9316(4) 0.7110(3) 0.2682(2)
H17 H 0.8605 0.7136 0.2490
H18 H 0.9478 0.6479 0.2804
C29 C 0.9972(3) 0.7431(3) 0.1906(2)
H19 H 1.0686 0.7419 0.2093
H20 H 0.9885 0.7014 0.1410
C30 C 0.9697(3) 0.8384(4) 0.1598(3)
H21 H 0.8959 0.8437 0.1556
H22 H 0.9941 0.8816 0.2041
C31 C 1.0137(3) 0.8626(3) 0.0710(2)
C32 C 0.9507(3) 0.8839(3) -0.0016(2)
H23 H 0.8803 0.8848 0.0052
C33 C 0.9899(3) 0.9032(3) -0.0817(2)
H24 H 0.9466 0.9165 -0.1298
C34 C 1.1543(3) 0.8859(3) -0.0245(3)
H25 H 1.2243 0.8880 -0.0332
C35 C 1.1181(3) 0.8647(3) 0.0571(2)
H26 H 1.1634 0.8517 0.1038
Zn1B Zn 1.00094(3) 1.11337(3) 0.35198(2)
Zn1C Zn 0.49906(3) 0.61337(3) 0.14802(2)
O5B O 1.11914(16) 0.96364(16) 0.62503(15)
O8C O 1.02731(16) 0.79413(15) 0.74025(14)
loop_
_geom_bond_atom_site_label_1
_geom_bond_atom_site_label_2
_geom_bond_site_symmetry_1
_geom_bond_site_symmetry_2
Zn1 O1 1_555 1_555
O1 C1 1_555 1_555
O2 C1 1_555 1_555
O3 H1 1_555 1_555
O4 C8 1_555 1_555
O5 C22 1_555 1_555
O6 C22 1_555 1_555
O7 C21 1_555 1_555
O8 C21 1_555 1_555
N1 Zn1 1_555 1_555
H2 N2 1_555 1_555
N2 C33 1_555 1_555
C1 C2 1_555 1_555
C2 C3 1_555 1_555
C3 H3 1_555 1_555
C4 C3 1_555 1_555
C5 C4 1_555 1_555
H4 C5 1_555 1_555
C6 C5 1_555 1_555
H5 C6 1_555 1_555
C7 C2 1_555 1_555
C8 O3 1_555 1_555
C9 C7 1_555 1_555
C10 C9 1_555 1_555
H6 C10 1_555 1_555
C11 C10 1_555 1_555
H7 C11 1_555 1_555
C12 C11 1_555 1_555
H8 C12 1_555 1_555
C13 C12 1_555 1_555
C14 C9 1_555 1_555
H9 C14 1_555 1_555
C15 C13 1_555 1_555
C16 C15 1_555 1_555
H10 C16 1_555 1_555
C17 C16 1_555 1_555
H11 C17 1_555 1_555
C18 C17 1_555 1_555
C19 C18 1_555 1_555
H12 C19 1_555 1_555
C20 C15 1_555 1_555
C21 C18 1_555 1_555
C22 C20 1_555 1_555
C23 N1 1_555 1_555
H13 C23 1_555 1_555
C24 C23 1_555 1_555
H14 C24 1_555 1_555
C25 C24 1_555 1_555
C26 C25 1_555 1_555
H15 C26 1_555 1_555
C27 N1 1_555 1_555
H16 C27 1_555 1_555
C28 C25 1_555 1_555
H17 C28 1_555 1_555
H18 C28 1_555 1_555
C29 C28 1_555 1_555
H19 C29 1_555 1_555
H20 C29 1_555 1_555
C30 C29 1_555 1_555
H21 C30 1_555 1_555
H22 C30 1_555 1_555
C31 C30 1_555 1_555
C32 C31 1_555 1_555
H23 C32 1_555 1_555
C33 C32 1_555 1_555
H24 C33 1_555 1_555
C34 N2 1_555 1_555
H25 C34 1_555 1_555
C35 C31 1_555 1_555
H26 C35 1_555 1_555
Zn1B O5 1_555 1_555
Zn1C O8 1_555 1_555
O5B Zn1 1_555 1_555
O8C Zn1 1_555 1_555
C4 C8 1_555 1_555
C6 C7 1_555 1_555
C13 C14 1_555 1_555
C19 C20 1_555 1_555
C26 C27 1_555 1_555
C34 C35 1_555 1_555

#END
