
#######################################################################
#
#                 Cambridge Crystallographic Data Centre
#                                CCDC 
#
#######################################################################
#
# If this CIF has been generated from an entry in the Cambridge 
# Structural Database, then it will include bibliographic, chemical, 
# crystal, experimental, refinement or atomic coordinate data resulting 
# from the CCDC's data processing and validation procedures.
#
#######################################################################

data_PUJRAN
_symmetry_cell_setting           triclinic
_symmetry_space_group_name_H-M   'P -1'
_symmetry_Int_Tables_number      2
_space_group_name_Hall           '-P 1'
loop_
_symmetry_equiv_pos_site_id
_symmetry_equiv_pos_as_xyz
1 x,y,z
2 -x,-y,-z
_cell_length_a                   12.294(2)
_cell_length_b                   12.999(3)
_cell_length_c                   13.679(3)
_cell_angle_alpha                62.98(3)
_cell_angle_beta                 73.74(3)
_cell_angle_gamma                74.63(3)
_cell_volume                     1845.09
loop_
_atom_site_label
_atom_site_type_symbol
_atom_site_fract_x
_atom_site_fract_y
_atom_site_fract_z
P1 P -0.0260(1) 0.4126(1) 0.2078(1)
P2 P 0.5156(1) 0.2927(1) 0.1059(1)
N1 N 0.1892(4) 0.4248(4) 0.0962(4)
N2 N 0.3047(4) 0.4024(4) 0.0773(4)
N3 N 0.1703(7) 0.7056(6) -0.0511(7)
N4 N 0.3395(7) 0.5156(8) -0.1966(6)
Ag1 Ag 0.10573(4) 0.55682(4) -0.05453(4)
Ag2 Ag 0.40045(5) 0.54516(4) -0.07040(4)
C1 C -0.0836(6) 0.2981(6) 0.3374(5)
C2 C -0.1210(8) 0.3114(9) 0.4368(7)
C3 C -0.1590(12) 0.2180(11) 0.5320(7)
C4 C -0.1568(10) 0.1153(11) 0.5290(8)
C5 C -0.1201(9) 0.1008(8) 0.4303(8)
C6 C -0.0817(7) 0.1936(7) 0.3343(6)
C7 C -0.0371(6) 0.5414(6) 0.2332(6)
C8 C 0.0219(8) 0.5359(7) 0.3091(7)
C9 C 0.0093(11) 0.6372(10) 0.3266(10)
C10 C -0.0640(12) 0.7343(9) 0.2759(11)
C11 C -0.1203(11) 0.7373(8) 0.2011(10)
C12 C -0.1116(8) 0.6418(7) 0.1806(7)
C13 C 0.1298(5) 0.3605(5) 0.1931(4)
C14 C 0.1846(6) 0.2654(5) 0.2740(5)
C15 C 0.2998(5) 0.2381(5) 0.2518(5)
C16 C 0.3585(5) 0.3102(5) 0.1519(5)
C17 C 0.5663(6) 0.1601(5) 0.2184(6)
C18 C 0.5834(8) 0.1695(7) 0.3089(7)
C19 C 0.6191(10) 0.0712(9) 0.3972(8)
C20 C 0.6431(10) -0.0367(10) 0.3944(10)
C21 C 0.6288(13) -0.0465(8) 0.3057(11)
C22 C 0.5889(11) 0.0518(7) 0.2150(9)
C23 C 0.5329(6) 0.2604(6) -0.0134(6)
C24 C 0.4673(8) 0.1909(7) -0.0157(7)
C25 C 0.4867(10) 0.1653(9) -0.1079(8)
C26 C 0.5735(11) 0.2095(10) -0.1969(9)
C27 C 0.6347(9) 0.2803(10) -0.1966(8)
C28 C 0.6157(7) 0.3070(7) -0.1053(6)
C29 C 0.1501(8) 0.7910(8) -0.0448(9)
C30 C 0.1235(14) 0.9036(13) -0.0377(19)
C31 C 0.3650(9) 0.4996(11) -0.2750(8)
C32 C 0.3960(13) 0.4730(18) -0.3721(11)
H1 H -0.1201(8) 0.3835(9) 0.4398(7)
H2 H -0.1879(12) 0.2268(11) 0.6011(7)
H3 H -0.1814(10) 0.0512(11) 0.5970(8)
H4 H -0.1206(9) 0.0279(8) 0.4287(8)
H5 H -0.0539(7) 0.1850(7) 0.2651(6)
H6 H 0.0698(8) 0.4651(7) 0.3482(7)
H7 H 0.0531(11) 0.6378(10) 0.3744(10)
H8 H -0.0770(12) 0.8010(9) 0.2929(11)
H9 H -0.1670(11) 0.8089(8) 0.1617(10)
H10 H -0.1554(8) 0.6436(7) 0.1316(7)
H11 H 0.1409(6) 0.2203(5) 0.3442(5)
H12 H 0.3403(5) 0.1706(5) 0.3037(5)
H13 H 0.5709(8) 0.2450(7) 0.3102(7)
H14 H 0.6269(10) 0.0778(9) 0.4620(8)
H15 H 0.6699(10) -0.1049(10) 0.4556(10)
H16 H 0.6463(13) -0.1221(8) 0.3036(11)
H17 H 0.5779(11) 0.0438(7) 0.1521(9)
H18 H 0.4079(8) 0.1598(7) 0.0469(7)
H19 H 0.4402(10) 0.1177(9) -0.1099(8)
H20 H 0.5900(11) 0.1891(10) -0.2593(9)
H21 H 0.6924(9) 0.3131(10) -0.2604(8)
H22 H 0.6604(7) 0.3578(7) -0.1060(6)
Ag1A Ag -0.10573(4) 0.44318(4) 0.05453(4)
P1A P 0.0260(1) 0.5874(1) -0.2078(1)
Ag2A Ag 0.59955(5) 0.45484(4) 0.07040(4)
P2A P 0.4844(1) 0.7073(1) -0.1059(1)
Cl1 Cl 0.3217(2) 0.3943(2) -0.5828(2)
O1 O 0.2684(8) 0.4949(7) -0.5615(7)
O2 O 0.2378(9) 0.3175(7) -0.5463(7)
O3 O 0.4114(10) 0.3331(9) -0.5213(11)
O4 O 0.3647(9) 0.4261(8) -0.6980(7)
Cl2 Cl 0.1713(2) 0.0754(2) -0.8755(2)
O5 O 0.0899(11) 0.0002(11) -0.8178(9)
O6 O 0.2495(8) 0.0485(7) -0.8027(6)
O7 O 0.2347(7) 0.0561(7) -0.9727(6)
O8 O 0.1221(9) 0.1957(7) -0.9089(7)
loop_
_geom_bond_atom_site_label_1
_geom_bond_atom_site_label_2
_geom_bond_site_symmetry_1
_geom_bond_site_symmetry_2
P1 C1 1_555 1_555
P2 C16 1_555 1_555
Cl1 O1 1_555 1_555
Cl2 O5 1_555 1_555
O2 Cl1 1_555 1_555
O3 Cl1 1_555 1_555
O4 Cl1 1_555 1_555
O6 Cl2 1_555 1_555
O7 Cl2 1_555 1_555
O8 Cl2 1_555 1_555
N1 N2 1_555 1_555
N2 Ag2 1_555 1_555
N3 Ag1 1_555 1_555
N4 Ag2 1_555 1_555
Ag1 N1 1_555 1_555
Ag2 P2A 1_555 1_555
C1 C2 1_555 1_555
C2 C3 1_555 1_555
C3 C4 1_555 1_555
C4 C5 1_555 1_555
C5 C6 1_555 1_555
C6 C1 1_555 1_555
C7 P1 1_555 1_555
C8 C7 1_555 1_555
C9 C8 1_555 1_555
C10 C9 1_555 1_555
C11 C10 1_555 1_555
C12 C7 1_555 1_555
C13 P1 1_555 1_555
C14 C13 1_555 1_555
C15 C14 1_555 1_555
C16 N2 1_555 1_555
C17 P2 1_555 1_555
C18 C17 1_555 1_555
C19 C18 1_555 1_555
C20 C19 1_555 1_555
C21 C20 1_555 1_555
C22 C17 1_555 1_555
C23 P2 1_555 1_555
C24 C23 1_555 1_555
C25 C24 1_555 1_555
C26 C25 1_555 1_555
C27 C26 1_555 1_555
C28 C23 1_555 1_555
C29 N3 1_555 1_555
C30 C29 1_555 1_555
C31 N4 1_555 1_555
C32 C31 1_555 1_555
H1 C2 1_555 1_555
H2 C3 1_555 1_555
H3 C4 1_555 1_555
H4 C5 1_555 1_555
H5 C6 1_555 1_555
H6 C8 1_555 1_555
H7 C9 1_555 1_555
H8 C10 1_555 1_555
H9 C11 1_555 1_555
H10 C12 1_555 1_555
H11 C14 1_555 1_555
H12 C15 1_555 1_555
H13 C18 1_555 1_555
H14 C19 1_555 1_555
H15 C20 1_555 1_555
H16 C21 1_555 1_555
H17 C22 1_555 1_555
H18 C24 1_555 1_555
H19 C25 1_555 1_555
H20 C26 1_555 1_555
H21 C27 1_555 1_555
H22 C28 1_555 1_555
Ag1A P1 1_555 1_555
P1A Ag1 1_555 1_555
Ag2A P2 1_555 1_555
N1 C13 1_555 1_555
C11 C12 1_555 1_555
C15 C16 1_555 1_555
C21 C22 1_555 1_555
C27 C28 1_555 1_555

#END
