
#######################################################################
#
#                 Cambridge Crystallographic Data Centre
#                                CCDC 
#
#######################################################################
#
# If this CIF has been generated from an entry in the Cambridge 
# Structural Database, then it will include bibliographic, chemical, 
# crystal, experimental, refinement or atomic coordinate data resulting 
# from the CCDC's data processing and validation procedures.
#
#######################################################################

data_PUJTUJ
_symmetry_cell_setting           orthorhombic
_symmetry_space_group_name_H-M   'P n n a'
_symmetry_Int_Tables_number      52
_space_group_name_Hall           '-P 2a 2bc'
loop_
_symmetry_equiv_pos_site_id
_symmetry_equiv_pos_as_xyz
1 x,y,z
2 1/2-x,-y,z
3 x,1/2-y,1/2-z
4 1/2-x,1/2+y,1/2-z
5 -x,-y,-z
6 1/2+x,y,-z
7 -x,1/2+y,1/2+z
8 1/2+x,1/2-y,1/2+z
_cell_length_a                   10.015(3)
_cell_length_b                   15.746(13)
_cell_length_c                   18.996(3)
_cell_angle_alpha                90
_cell_angle_beta                 90
_cell_angle_gamma                90
_cell_volume                     2995.6
loop_
_atom_site_label
_atom_site_type_symbol
_atom_site_fract_x
_atom_site_fract_y
_atom_site_fract_z
N1 N 0.6959(8) 0.6911(5) 0.6806(3)
C1 C 0.720(1) 0.7739(6) 0.6682(4)
C2 C 0.8640(9) 0.7928(6) 0.6808(4)
Si1 Si 0.9587(4) 0.8442(2) 0.6067(2)
C3 C 0.850(1) 0.893(1) 0.5401(6)
C4 C 1.072(1) 0.9304(8) 0.6379(6)
C5 C 1.055(2) 0.760(1) 0.5598(7)
C6 C 0.614(1) 0.8252(6) 0.6491(5)
C7 C 0.489(1) 0.7928(8) 0.6443(6)
C8 C 0.468(1) 0.7072(8) 0.6569(6)
C9 C 0.572(1) 0.6589(7) 0.6765(5)
Cl1 Cl 1.1396(4) 0.7500 0.7500
Cl2 Cl 0.7500 0.5000 0.7560(2)
Sb1 Sb 0.90291(7) 0.65974(4) 0.71341(3)
H1 H 0.8961 0.9132 0.5027
H2 H 0.8068 0.9446 0.5642
H3 H 0.7690 0.8627 0.5234
H4 H 1.1535 0.8962 0.6502
H5 H 1.0340 0.9476 0.6800
H6 H 1.0962 0.9685 0.6021
H7 H 1.1328 0.7472 0.5896
H8 H 1.0871 0.7822 0.5172
H9 H 1.0033 0.7115 0.5534
H10 H 0.6304 0.8858 0.6401
H11 H 0.4127 0.8287 0.6290
H12 H 0.3767 0.6823 0.6532
H13 H 0.5577 0.5997 0.6882
C2B C 0.8640(9) 0.7072(6) 0.8192(4)
C1B C 0.720(1) 0.7261(6) 0.8318(4)
N1B N 0.6959(8) 0.8089(5) 0.8194(3)
C9B C 0.572(1) 0.8411(7) 0.8235(5)
C8B C 0.468(1) 0.7928(8) 0.8431(6)
C7B C 0.489(1) 0.7072(8) 0.8557(6)
C6B C 0.614(1) 0.6748(6) 0.8509(5)
H10B H 0.6304 0.6142 0.8599
H11B H 0.4127 0.6713 0.8710
H12B H 0.3767 0.8177 0.8468
H13B H 0.5577 0.9003 0.8118
Sb1B Sb 0.90291(7) 0.84026(4) 0.78659(3)
Si1B Si 0.9587(4) 0.6558(2) 0.8933(2)
C3B C 0.850(1) 0.607(1) 0.9599(6)
H1B H 0.8961 0.5868 0.9973
H2B H 0.8068 0.5554 0.9358
H3B H 0.7690 0.6373 0.9766
C4B C 1.072(1) 0.5696(8) 0.8621(6)
H4B H 1.1535 0.6038 0.8498
H5B H 1.0340 0.5524 0.8200
H6B H 1.0962 0.5315 0.8979
C5B C 1.055(2) 0.740(1) 0.9402(7)
H7B H 1.1328 0.7528 0.9104
H8B H 1.0871 0.7178 0.9828
H9B H 1.0033 0.7885 0.9466
Sb1A Sb 0.59709(7) 0.34026(4) 0.71341(3)
Cl2B Cl 0.7500 1.0000 0.7440(2)
C10 C 0.7500 0.5000 0.3214(9)
C11 C 0.7500 0.5000 0.399(1)
C12 C 0.633(2) 0.509(2) 0.431(2)
C15 C 0.630(3) 0.503(3) 0.506(2)
C16 C 0.7500 0.5000 0.544(1)
H17 H 0.5522 0.5171 0.4013
H18 H 0.5447 0.5046 0.5327
H21 H 0.7500 0.5000 0.5955
C15A C 0.870(3) 0.497(3) 0.506(2)
C12A C 0.867(2) 0.491(2) 0.431(2)
H17A H 0.9478 0.4829 0.4013
H18A H 0.9553 0.4954 0.5327
C13? C 0.717(3) 0.569(2) 0.439(2)
C14? C 0.712(4) 0.571(2) 0.511(2)
H14? H 0.7068 0.5516 0.3059
H15? H 0.8418 0.5033 0.3059
H16? H 0.7136 0.4589 0.2865
H19? H 0.6821 0.6168 0.4124
H20? H 0.6817 0.6173 0.5384
loop_
_geom_bond_atom_site_label_1
_geom_bond_atom_site_label_2
_geom_bond_site_symmetry_1
_geom_bond_site_symmetry_2
N1 C1 1_555 1_555
C1 C2 1_555 1_555
C2 Si1 1_555 1_555
Si1 C3 1_555 1_555
C3 H1 1_555 1_555
C4 Si1 1_555 1_555
C5 Si1 1_555 1_555
C6 C1 1_555 1_555
C7 C6 1_555 1_555
C8 C7 1_555 1_555
C9 N1 1_555 1_555
Cl1 Sb1 1_555 1_555
Cl2 Sb1 1_555 1_555
Sb1 N1 1_555 1_555
C10 C11 1_555 1_555
C11 C12 1_555 1_555
C12 C15 1_555 1_555
C15 C16 1_555 1_555
C16 H21 1_555 1_555
H2 C3 1_555 1_555
H3 C3 1_555 1_555
H4 C4 1_555 1_555
H5 C4 1_555 1_555
H6 C4 1_555 1_555
H7 C5 1_555 1_555
H8 C5 1_555 1_555
H9 C5 1_555 1_555
H10 C6 1_555 1_555
H11 C7 1_555 1_555
H12 C8 1_555 1_555
H13 C9 1_555 1_555
H17 C12 1_555 1_555
H18 C15 1_555 1_555
C2B Sb1 1_555 1_555
C1B C2B 1_555 1_555
N1B C1B 1_555 1_555
C9B N1B 1_555 1_555
C8B C9B 1_555 1_555
C7B C8B 1_555 1_555
C6B C1B 1_555 1_555
H10B C6B 1_555 1_555
H11B C7B 1_555 1_555
H12B C8B 1_555 1_555
H13B C9B 1_555 1_555
Sb1B C2 1_555 1_555
Si1B C2B 1_555 1_555
C3B Si1B 1_555 1_555
H1B C3B 1_555 1_555
H2B C3B 1_555 1_555
H3B C3B 1_555 1_555
C4B Si1B 1_555 1_555
H4B C4B 1_555 1_555
H5B C4B 1_555 1_555
H6B C4B 1_555 1_555
C5B Si1B 1_555 1_555
H7B C5B 1_555 1_555
H8B C5B 1_555 1_555
H9B C5B 1_555 1_555
Sb1A Cl2 1_555 1_555
Cl2B Sb1B 1_555 1_555
C15A C16 1_555 1_555
C12A C11 1_555 1_555
H17A C12A 1_555 1_555
H18A C15A 1_555 1_555
C2 Sb1 1_555 1_555
C8 C9 1_555 1_555
Cl1 Sb1B 1_555 1_555
C2B Sb1B 1_555 1_555
N1B Sb1B 1_555 1_555
C7B C6B 1_555 1_555
C15A C12A 1_555 1_555

#END
