
#######################################################################
#
#                 Cambridge Crystallographic Data Centre
#                                CCDC 
#
#######################################################################
#
# If this CIF has been generated from an entry in the Cambridge 
# Structural Database, then it will include bibliographic, chemical, 
# crystal, experimental, refinement or atomic coordinate data resulting 
# from the CCDC's data processing and validation procedures.
#
#######################################################################

data_PUJXAV
_symmetry_cell_setting           triclinic
_symmetry_space_group_name_H-M   'P -1'
_symmetry_Int_Tables_number      2
_space_group_name_Hall           '-P 1'
loop_
_symmetry_equiv_pos_site_id
_symmetry_equiv_pos_as_xyz
1 x,y,z
2 -x,-y,-z
_cell_length_a                   8.3722(17)
_cell_length_b                   9.1502(18)
_cell_length_c                   9.5444(19)
_cell_angle_alpha                92.040(2)
_cell_angle_beta                 94.167(3)
_cell_angle_gamma                91.720(3)
_cell_volume                     728.386
loop_
_atom_site_label
_atom_site_type_symbol
_atom_site_fract_x
_atom_site_fract_y
_atom_site_fract_z
Cu1 Cu 0.25885(3) 0.37978(3) 0.64491(3)
O1 O 0.16699(19) 0.57421(16) 0.60323(16)
N1 N 0.3320(2) 0.1737(2) 0.6659(2)
O2 O -0.01226(19) 0.68519(16) 0.46431(17)
O3 O 0.34014(19) 0.37446(17) 0.45138(16)
O4 O 0.50128(19) 0.49419(17) 0.31698(16)
C1 C 0.4745(3) 0.1432(3) 0.7271(2)
H1 H 0.5416 0.2217 0.7672
N2 N 0.7649(2) -0.1415(2) 0.7645(2)
H2 H 0.7263 -0.1887 0.6868
N3 N 0.7842(2) -0.4057(2) 1.1508(2)
O5 O 0.7477(3) 0.0633(2) 0.9028(2)
C2 C 0.8347(3) -0.2994(2) 1.0701(2)
H3 H 0.8547 -0.2040 1.1115
C3 C 0.8594(3) -0.3221(3) 0.9288(2)
C4 C 0.7561(3) -0.5410(3) 1.0910(3)
H4 H 0.7187 -0.6170 1.1468
C5 C 0.2365(3) 0.0624(3) 0.6088(3)
H5 H 0.1360 0.0839 0.5627
C6 C 0.6912(3) -0.0223(3) 0.8087(3)
C7 C 0.9075(3) -0.1959(3) 0.8411(2)
H6 H 0.9600 -0.1165 0.9028
H7 H 0.9848 -0.2289 0.7738
C8 C 0.7797(3) -0.5728(3) 0.9520(3)
H8 H 0.7606 -0.6693 0.9131
C9 C 0.8316(3) -0.4619(3) 0.8702(2)
H9 H 0.8481 -0.4815 0.7740
C10 C 0.4554(3) 0.4634(2) 0.4321(2)
C11 C 0.0441(3) 0.5755(2) 0.5189(2)
C12 C 0.2800(3) -0.0804(3) 0.6149(3)
H10 H 0.2094 -0.1569 0.5759
C13 C 0.5295(3) 0.0014(3) 0.7348(2)
C14 C 0.4278(3) -0.1119(3) 0.6787(3)
H11 H 0.4596 -0.2105 0.6841
O1A O -0.16699(19) 0.42579(16) 0.39677(16)
O2A O 0.01226(19) 0.31481(16) 0.53569(17)
C11A C -0.0441(3) 0.4245(2) 0.4811(2)
O3A O 0.65986(19) 0.62554(17) 0.54862(16)
O4A O 0.49872(19) 0.50581(17) 0.68302(16)
C10A C 0.5446(3) 0.5366(2) 0.5679(2)
Cu1A Cu -0.25885(3) 0.62022(3) 0.35509(3)
N1A N -0.3320(2) 0.8263(2) 0.3341(2)
C1A C -0.4745(3) 0.8568(3) 0.2729(2)
H1A H -0.5416 0.7783 0.2328
N2A N -0.7649(2) 1.1415(2) 0.2355(2)
H2A H -0.7263 1.1887 0.3132
N3A N -0.7842(2) 1.4057(2) -0.1508(2)
O5A O -0.7477(3) 0.9367(2) 0.0972(2)
C2A C -0.8347(3) 1.2994(2) -0.0701(2)
H3A H -0.8547 1.2040 -0.1115
C3A C -0.8594(3) 1.3221(3) 0.0712(2)
C4A C -0.7561(3) 1.5410(3) -0.0910(3)
H4A H -0.7187 1.6170 -0.1468
C5A C -0.2365(3) 0.9376(3) 0.3912(3)
H5A H -0.1360 0.9161 0.4373
C6A C -0.6912(3) 1.0223(3) 0.1913(3)
C7A C -0.9075(3) 1.1959(3) 0.1589(2)
H6A H -0.9600 1.1165 0.0972
H7A H -0.9848 1.2289 0.2262
C8A C -0.7797(3) 1.5728(3) 0.0480(3)
H8A H -0.7606 1.6693 0.0869
C9A C -0.8316(3) 1.4619(3) 0.1298(2)
H9A H -0.8481 1.4815 0.2260
C12A C -0.2800(3) 1.0804(3) 0.3851(3)
H10A H -0.2094 1.1569 0.4241
C13A C -0.5295(3) 0.9986(3) 0.2652(2)
C14A C -0.4278(3) 1.1119(3) 0.3213(3)
H11A H -0.4596 1.2105 0.3159
Cu1_2 Cu -0.74115(3) 1.37978(3) -0.35509(3)
Cu1A_2 Cu 0.74115(3) -0.37978(3) 1.35509(3)
Cu1A_3 Cu 0.74115(3) 0.62022(3) 0.35509(3)
O3A_2 O -0.34014(19) 0.62554(17) 0.54862(16)
O4_2 O -0.49872(19) 0.49419(17) 0.31698(16)
N3_2 N -0.2158(2) 0.5943(2) 0.1508(2)
N3A_2 N 0.2158(2) 0.4057(2) 0.8492(2)
loop_
_geom_bond_atom_site_label_1
_geom_bond_atom_site_label_2
_geom_bond_site_symmetry_1
_geom_bond_site_symmetry_2
Cu1 O1 1_555 1_555
O1 C11 1_555 1_555
N1 Cu1 1_555 1_555
O2 C11 1_555 1_555
O3 Cu1 1_555 1_555
O4 C10 1_555 1_555
C1 N1 1_555 1_555
H1 C1 1_555 1_555
N2 H2 1_555 1_555
N3 C2 1_555 1_555
O5 C6 1_555 1_555
C2 H3 1_555 1_555
C3 C2 1_555 1_555
C4 N3 1_555 1_555
H4 C4 1_555 1_555
C5 N1 1_555 1_555
H5 C5 1_555 1_555
C6 N2 1_555 1_555
C7 N2 1_555 1_555
H6 C7 1_555 1_555
H7 C7 1_555 1_555
C8 C4 1_555 1_555
H8 C8 1_555 1_555
C9 C3 1_555 1_555
H9 C9 1_555 1_555
C10 O3 1_555 1_555
C11 C11A 1_555 1_555
C12 C5 1_555 1_555
H10 C12 1_555 1_555
C13 C1 1_555 1_555
C14 C12 1_555 1_555
H11 C14 1_555 1_555
O1A C11A 1_555 1_555
O2A Cu1 1_555 1_555
C11A O2A 1_555 1_555
O3A C10A 1_555 1_555
O4A Cu1 1_555 1_555
C10A C10 1_555 1_555
Cu1A O2 1_555 1_555
N1A Cu1A 1_555 1_555
C1A N1A 1_555 1_555
H1A C1A 1_555 1_555
N2A H2A 1_555 1_555
N3A C2A 1_555 1_555
O5A C6A 1_555 1_555
C2A H3A 1_555 1_555
C3A C2A 1_555 1_555
C4A N3A 1_555 1_555
H4A C4A 1_555 1_555
C5A N1A 1_555 1_555
H5A C5A 1_555 1_555
C6A N2A 1_555 1_555
C7A N2A 1_555 1_555
H6A C7A 1_555 1_555
H7A C7A 1_555 1_555
C8A C4A 1_555 1_555
H8A C8A 1_555 1_555
C9A C3A 1_555 1_555
H9A C9A 1_555 1_555
C12A C5A 1_555 1_555
H10A C12A 1_555 1_555
C13A C1A 1_555 1_555
C14A C12A 1_555 1_555
H11A C14A 1_555 1_555
Cu1_2 N3A 1_555 1_555
Cu1A_2 N3 1_555 1_555
Cu1A_3 O4 1_555 1_555
O3A_2 Cu1A 1_555 1_555
O4_2 Cu1A 1_555 1_555
N3_2 Cu1A 1_555 1_555
N3A_2 Cu1 1_555 1_555
C3 C7 1_555 1_555
C6 C13 1_555 1_555
C8 C9 1_555 1_555
C13 C14 1_555 1_555
O1A Cu1A 1_555 1_555
O3A Cu1A_3 1_555 1_555
O4A C10A 1_555 1_555
C3A C7A 1_555 1_555
C6A C13A 1_555 1_555
C8A C9A 1_555 1_555
C13A C14A 1_555 1_555

#END
