
#######################################################################
#
#                 Cambridge Crystallographic Data Centre
#                                CCDC 
#
#######################################################################
#
# If this CIF has been generated from an entry in the Cambridge 
# Structural Database, then it will include bibliographic, chemical, 
# crystal, experimental, refinement or atomic coordinate data resulting 
# from the CCDC's data processing and validation procedures.
#
#######################################################################

data_PUJXEZ
_symmetry_cell_setting           monoclinic
_symmetry_space_group_name_H-M   'P 21/n'
_symmetry_Int_Tables_number      14
_space_group_name_Hall           '-P 2yn'
loop_
_symmetry_equiv_pos_site_id
_symmetry_equiv_pos_as_xyz
1 x,y,z
2 1/2-x,1/2+y,1/2-z
3 -x,-y,-z
4 1/2+x,1/2-y,1/2+z
_cell_length_a                   11.801(3)
_cell_length_b                   8.782(2)
_cell_length_c                   18.877(4)
_cell_angle_alpha                90
_cell_angle_beta                 99.315(3)
_cell_angle_gamma                90
_cell_volume                     1930.55
loop_
_atom_site_label
_atom_site_type_symbol
_atom_site_fract_x
_atom_site_fract_y
_atom_site_fract_z
Cd1 Cd 0.64578(2) 0.18493(3) 0.254678(16)
O1 O 0.6611(2) -0.3219(3) 0.23469(14)
O2 O 0.6855(2) -0.0747(3) 0.24384(17)
O3 O 0.4634(2) 0.0894(3) 0.24420(16)
O4 O 0.5499(2) 0.4104(3) 0.25781(16)
H1 H 0.5930 0.4869 0.2465
H2 H 0.5333 0.4274 0.3014
O5 O 0.3361(2) -0.0699(3) 0.18750(16)
O6 O 0.4855(2) 0.3370(4) 0.57473(15)
N1 N 0.6494(3) 0.1616(4) 0.37824(18)
C1 C 0.6237(3) -0.1891(5) 0.2427(2)
N2 N 0.1249(3) 0.3007(4) 0.62942(17)
C2 C 0.4298(4) -0.0440(5) 0.2264(2)
N3 N 0.3716(3) 0.3389(4) 0.46633(17)
H3 H 0.3584 0.3002 0.4228
C3 C 0.0983(4) 0.3125(6) 0.4812(2)
H4 H 0.0883 0.3168 0.4303
C4 C 0.4665(4) 0.2992(5) 0.5108(2)
C5 C 0.5690(3) 0.2320(4) 0.4081(2)
H5 H 0.5198 0.3019 0.3795
C6 C 0.2047(4) 0.3634(4) 0.5956(2)
H6 H 0.2715 0.4050 0.6239
C7 C 0.1951(4) 0.3707(5) 0.5217(2)
C8 C 0.6256(4) 0.1080(5) 0.5199(2)
H7 H 0.6178 0.0897 0.5685
C9 C 0.5527(3) 0.2094(5) 0.4784(2)
C10 C 0.2895(4) 0.4450(5) 0.4885(2)
H8 H 0.2540 0.5045 0.4461
H9 H 0.3313 0.5172 0.5236
C11 C 0.7174(4) 0.0634(5) 0.4192(3)
H10 H 0.7744 0.0108 0.3985
C12 C 0.0153(4) 0.2473(6) 0.5155(3)
H11 H -0.0523 0.2054 0.4883
C13 C 0.7091(4) 0.0344(5) 0.4900(2)
H12 H 0.7601 -0.0350 0.5176
C14 C 0.0311(4) 0.2437(5) 0.5889(3)
H13 H -0.0266 0.1990 0.6119
C15 C 0.5011(3) -0.1788(4) 0.2554(2)
H14 H 0.4608 -0.2716 0.2350
H15 H 0.5021 -0.1819 0.3079
Cd1A Cd 0.85422(2) -0.31507(3) 0.245322(16)
Cd1C Cd 0.14578(2) 0.31507(3) 0.754678(16)
O1A O 0.8389(2) 0.1781(3) 0.26531(14)
N2C N 0.6249(3) 0.1993(4) 0.12942(17)
O7 O 0.3056(2) 0.1898(3) 0.33057(13)
H16 H 0.3485 0.1683 0.2986
H17 H 0.2577 0.2619 0.3144
O8 O 0.2956(3) 0.6859(3) 0.33701(18)
H18 H 0.3614 0.6636 0.3630
H19 H 0.2562 0.6030 0.3267
O9 O 0.6597(3) 0.5604(3) 0.82505(18)
H20 H 0.7094 0.6342 0.8285
H21 H 0.6014 0.5823 0.7922
loop_
_geom_bond_atom_site_label_1
_geom_bond_atom_site_label_2
_geom_bond_site_symmetry_1
_geom_bond_site_symmetry_2
Cd1 O2 1_555 1_555
O1 C1 1_555 1_555
O2 C1 1_555 1_555
O3 Cd1 1_555 1_555
O4 Cd1 1_555 1_555
H1 O4 1_555 1_555
H2 O4 1_555 1_555
O5 C2 1_555 1_555
O6 C4 1_555 1_555
N1 Cd1 1_555 1_555
C1 C15 1_555 1_555
N2 C6 1_555 1_555
C2 O3 1_555 1_555
N3 H3 1_555 1_555
C3 H4 1_555 1_555
C4 N3 1_555 1_555
C5 N1 1_555 1_555
H5 C5 1_555 1_555
C6 H6 1_555 1_555
C7 C3 1_555 1_555
C8 H7 1_555 1_555
C9 C4 1_555 1_555
C10 N3 1_555 1_555
H8 C10 1_555 1_555
H9 C10 1_555 1_555
C11 N1 1_555 1_555
H10 C11 1_555 1_555
C12 C3 1_555 1_555
H11 C12 1_555 1_555
C13 C8 1_555 1_555
H12 C13 1_555 1_555
C14 N2 1_555 1_555
H13 C14 1_555 1_555
C15 C2 1_555 1_555
H14 C15 1_555 1_555
H15 C15 1_555 1_555
O7 H16 1_555 1_555
H17 O7 1_555 1_555
O8 H18 1_555 1_555
H19 O8 1_555 1_555
O9 H20 1_555 1_555
H21 O9 1_555 1_555
Cd1A O1 1_555 1_555
Cd1C N2 1_555 1_555
O1A Cd1 1_555 1_555
N2C Cd1 1_555 1_555
C5 C9 1_555 1_555
C6 C7 1_555 1_555
C7 C10 1_555 1_555
C8 C9 1_555 1_555
C11 C13 1_555 1_555
C12 C14 1_555 1_555

#END
