
#######################################################################
#
#                 Cambridge Crystallographic Data Centre
#                                CCDC 
#
#######################################################################
#
# If this CIF has been generated from an entry in the Cambridge 
# Structural Database, then it will include bibliographic, chemical, 
# crystal, experimental, refinement or atomic coordinate data resulting 
# from the CCDC's data processing and validation procedures.
#
#######################################################################

data_PUJXID
_symmetry_cell_setting           triclinic
_symmetry_space_group_name_H-M   'P -1'
_symmetry_Int_Tables_number      2
_space_group_name_Hall           '-P 1'
loop_
_symmetry_equiv_pos_site_id
_symmetry_equiv_pos_as_xyz
1 x,y,z
2 -x,-y,-z
_cell_length_a                   8.5854(9)
_cell_length_b                   12.7952(14)
_cell_length_c                   13.1067(14)
_cell_angle_alpha                103.0380(10)
_cell_angle_beta                 102.9430(10)
_cell_angle_gamma                103.3480(10)
_cell_volume                     1305.62
loop_
_atom_site_label
_atom_site_type_symbol
_atom_site_fract_x
_atom_site_fract_y
_atom_site_fract_z
Cd1 Cd 0.33849(3) 0.095500(17) 0.652778(17)
Cd2 Cd 0.44629(3) 0.401530(17) 0.671152(18)
O1 O 0.2842(3) 0.52883(17) 0.69690(18)
O2 O 0.7319(3) 0.38872(18) 0.64336(19)
O3 O 0.5487(3) 0.25017(18) 0.66206(19)
C1 C 0.6907(4) 0.2919(2) 0.6510(2)
N1 N 0.4310(3) 0.1239(2) 0.8406(2)
C2 C 0.5868(4) 0.1268(3) 0.8889(3)
H1 H 0.6602 0.1193 0.8449
C3 C 0.6473(4) 0.1399(3) 0.9996(3)
C4 C 0.8049(4) 0.2185(3) 0.6496(3)
H2 H 0.7458 0.1471 0.5907
H3 H 0.8267 0.2003 0.7200
C5 C 0.5375(5) 0.1481(3) 1.0606(3)
H4 H 0.5732 0.1553 1.1366
C6 C 0.3276(4) 0.1337(3) 0.9022(3)
H5 H 0.2166 0.1320 0.8684
C7 C 0.3760(5) 0.1460(3) 1.0128(3)
H6 H 0.3002 0.1529 1.0551
O4 O 0.5112(3) 0.58216(17) 0.64811(17)
O5 O 1.0501(3) 0.10065(17) 0.63650(18)
O6 O 0.2481(3) 0.06420(18) 0.46858(17)
H7 H 0.2295 0.1250 0.4538
H8 H 0.1542 0.0084 0.4402
O7 O 0.5129(3) 0.97836(17) 0.62728(18)
O8 O 1.2483(3) 0.25917(17) 0.69180(18)
C8 C 0.3771(4) 0.5961(2) 0.6633(2)
C9 C 0.3209(4) 0.6934(3) 0.6389(3)
H9 H 0.2661 0.7209 0.6940
H10 H 0.2360 0.6659 0.5664
O9 O 0.2683(3) 0.90189(17) 0.64584(19)
C10 C 0.4089(4) 0.8960(2) 0.6367(2)
C11 C 0.4599(4) 0.7918(2) 0.6388(3)
H11 H 0.5553 0.8096 0.7050
H12 H 0.4992 0.7688 0.5741
C12 C 1.0948(4) 0.2051(3) 0.6554(2)
C13 C 0.9711(4) 0.2689(3) 0.6324(3)
H13 H 0.9517 0.2713 0.5557
H14 H 1.0197 0.3472 0.6806
O10 O 0.3175(3) 0.3541(2) 0.49011(18)
H15 H 0.2667 0.2811 0.4642
H16 H 0.3919 0.3718 0.4552
N2 N 1.3845(3) 0.5226(2) 1.1474(2)
C14 C 1.2633(4) 0.4263(3) 1.1204(3)
H17 H 1.2558 0.3879 1.1741
C15 C 1.1621(5) 0.4366(3) 0.9406(3)
H18 H 1.0867 0.4062 0.8687
C16 C 1.3938(5) 0.5768(3) 1.0717(3)
H19 H 1.4791 0.6461 1.0907
C17 C 1.2848(5) 0.5363(3) 0.9675(3)
H20 H 1.2945 0.5767 0.9155
C18 C 0.8252(4) 0.1422(3) 1.0488(3)
H21 H 0.8347 0.1262 1.1200
H22 H 0.8517 0.0820 0.9999
O11 O 0.9799(3) 0.2021(2) 0.89602(19)
N3 N 0.9475(3) 0.2494(2) 1.0656(2)
H23 H 0.9762 0.3020 1.1284
C19 C 1.1479(4) 0.3797(3) 1.0180(3)
C20 C 1.0168(4) 0.2692(3) 0.9878(3)
Cd1_2 Cd 0.33849(3) 1.095500(17) 0.652778(17)
Cd1_3 Cd 1.33849(3) 0.095500(17) 0.652778(17)
Cd2_2 Cd 1.44629(3) 0.401530(17) 0.671152(18)
Cd2A Cd 1.55371(3) 0.598470(17) 1.328848(18)
O5_2 O 0.0501(3) 0.10065(17) 0.63650(18)
O7_2 O 0.5129(3) -0.02164(17) 0.62728(18)
O8_2 O 0.2483(3) 0.25917(17) 0.69180(18)
O9_2 O 0.2683(3) -0.09811(17) 0.64584(19)
N2A N 0.6155(3) 0.4774(2) 0.8526(2)
O12 O 0.0039(3) 0.5836(2) 0.7304(2)
H24 H -0.0839 0.5259 0.6965
H25 H 0.0928 0.5662 0.7208
O13 O 0.0327(3) 0.2141(3) 0.3320(2)
H26 H -0.0706 0.1934 0.3333
H27 H 0.0869 0.1725 0.3597
O14 O 0.1384(4) 0.0577(3) 0.1774(3)
H28 H 0.1100 -0.0120 0.1777
H29 H 0.1030 0.0975 0.2252
loop_
_geom_bond_atom_site_label_1
_geom_bond_atom_site_label_2
_geom_bond_site_symmetry_1
_geom_bond_site_symmetry_2
Cd1 O3 1_555 1_555
Cd2 O1 1_555 1_555
O1 C8 1_555 1_555
O2 Cd2 1_555 1_555
O3 Cd2 1_555 1_555
C1 O2 1_555 1_555
N1 Cd1 1_555 1_555
C2 N1 1_555 1_555
H1 C2 1_555 1_555
C3 C2 1_555 1_555
C4 C1 1_555 1_555
H2 C4 1_555 1_555
H3 C4 1_555 1_555
C5 C3 1_555 1_555
H4 C5 1_555 1_555
C6 N1 1_555 1_555
H5 C6 1_555 1_555
C7 C5 1_555 1_555
H6 C7 1_555 1_555
O4 Cd2 1_555 1_555
O5 C12 1_555 1_555
O6 Cd1 1_555 1_555
H7 O6 1_555 1_555
H8 O6 1_555 1_555
O7 C10 1_555 1_555
O8 C12 1_555 1_555
C8 O4 1_555 1_555
C9 C8 1_555 1_555
H9 C9 1_555 1_555
H10 C9 1_555 1_555
O9 C10 1_555 1_555
C10 C11 1_555 1_555
C11 C9 1_555 1_555
H11 C11 1_555 1_555
H12 C11 1_555 1_555
C12 C13 1_555 1_555
C13 C4 1_555 1_555
H13 C13 1_555 1_555
H14 C13 1_555 1_555
O10 Cd2 1_555 1_555
H15 O10 1_555 1_555
H16 O10 1_555 1_555
N2 C14 1_555 1_555
C14 H17 1_555 1_555
C15 H18 1_555 1_555
C16 N2 1_555 1_555
H19 C16 1_555 1_555
C17 C15 1_555 1_555
H20 C17 1_555 1_555
C18 C3 1_555 1_555
H21 C18 1_555 1_555
H22 C18 1_555 1_555
O11 C20 1_555 1_555
N3 C18 1_555 1_555
H23 N3 1_555 1_555
C19 C14 1_555 1_555
C20 N3 1_555 1_555
O12 H24 1_555 1_555
H25 O12 1_555 1_555
O13 H26 1_555 1_555
H27 O13 1_555 1_555
O14 H28 1_555 1_555
H29 O14 1_555 1_555
Cd1_2 O7 1_555 1_555
Cd1_3 O5 1_555 1_555
Cd2_2 O8 1_555 1_555
Cd2A N2 1_555 1_555
O5_2 Cd1 1_555 1_555
O7_2 Cd1 1_555 1_555
O8_2 Cd1 1_555 1_555
O9_2 Cd1 1_555 1_555
N2A Cd2 1_555 1_555
Cd2 O8_2 1_555 1_555
O3 C1 1_555 1_555
C6 C7 1_555 1_555
O8 Cd1_3 1_555 1_555
O9 Cd1_2 1_555 1_555
C15 C19 1_555 1_555
C16 C17 1_555 1_555
C19 C20 1_555 1_555

#END
