
#######################################################################
#
#                 Cambridge Crystallographic Data Centre
#                                CCDC 
#
#######################################################################
#
# If this CIF has been generated from an entry in the Cambridge 
# Structural Database, then it will include bibliographic, chemical, 
# crystal, experimental, refinement or atomic coordinate data resulting 
# from the CCDC's data processing and validation procedures.
#
#######################################################################

data_PUJXOJ
_symmetry_cell_setting           monoclinic
_symmetry_space_group_name_H-M   'P 21/n'
_symmetry_Int_Tables_number      14
_space_group_name_Hall           '-P 2yn'
loop_
_symmetry_equiv_pos_site_id
_symmetry_equiv_pos_as_xyz
1 x,y,z
2 1/2-x,1/2+y,1/2-z
3 -x,-y,-z
4 1/2+x,1/2-y,1/2+z
_cell_length_a                   10.3300(14)
_cell_length_b                   16.304(2)
_cell_length_c                   12.9998(18)
_cell_angle_alpha                90
_cell_angle_beta                 94.292(2)
_cell_angle_gamma                90
_cell_volume                     2183.29
loop_
_atom_site_label
_atom_site_type_symbol
_atom_site_fract_x
_atom_site_fract_y
_atom_site_fract_z
Cd1 Cd 0.71535(2) 0.11643(2) 0.07507(2)
O1 O 0.87848(16) 0.12301(11) 0.21057(13)
O2 O 0.95776(16) 0.10063(11) 0.06141(13)
O3 O 1.57638(15) 0.14446(12) 0.20218(13)
O4 O 1.47017(16) 0.10221(11) 0.05941(13)
O5 O 0.35749(19) 0.42376(12) 0.06341(13)
O6 O 0.69161(16) -0.02217(10) 0.08765(13)
H1 H 0.6397 -0.0409 0.0348
H2 H 0.6565 -0.0359 0.1460
N1 N 0.74662(19) 0.25915(12) 0.05433(15)
N2 N 0.5032(2) 0.42443(12) 0.20208(15)
H3 H 0.5193 0.4104 0.2671
N3 N 0.19125(19) 0.38301(11) 0.39150(15)
C1 C 0.8450(2) 0.28761(16) 0.00276(19)
H4 H 0.8981 0.2494 -0.0299
C2 C 0.8722(2) 0.37018(16) -0.0047(2)
H5 H 0.9429 0.3885 -0.0414
C3 C 0.7945(2) 0.42577(16) 0.04217(19)
H6 H 0.8114 0.4829 0.0381
C4 C 0.6914(2) 0.39752(15) 0.09548(18)
C5 C 0.6726(2) 0.31401(15) 0.09987(18)
H7 H 0.6035 0.2941 0.1372
C6 C 0.6070(3) 0.45903(15) 0.1461(2)
H8 H 0.6632 0.4927 0.1946
H9 H 0.5679 0.4962 0.0922
C7 C 0.3841(2) 0.41352(15) 0.15688(18)
C8 C 0.2869(2) 0.40190(14) 0.33141(18)
H10 H 0.3648 0.4245 0.3630
C9 C 0.2779(2) 0.39015(14) 0.22501(19)
C10 C 0.1629(3) 0.35881(17) 0.1787(2)
H11 H 0.1528 0.3508 0.1062
C11 C 0.0633(3) 0.33948(18) 0.2401(2)
H12 H -0.0165 0.3183 0.2102
C12 C 0.0816(2) 0.35146(16) 0.34557(19)
H13 H 0.0136 0.3367 0.3873
C13 C 0.9739(2) 0.11412(13) 0.15634(19)
C14 C 1.1084(2) 0.11993(15) 0.21165(18)
H14 H 1.1201 0.0727 0.2592
H15 H 1.1120 0.1703 0.2543
C15 C 1.2223(2) 0.12152(15) 0.14365(18)
H16 H 1.2190 0.0725 0.0986
H17 H 1.2162 0.1708 0.0990
C16 C 1.3500(2) 0.12281(16) 0.2099(2)
H18 H 1.3512 0.1722 0.2543
H19 H 1.3527 0.0743 0.2558
C17 C 1.4719(2) 0.12292(14) 0.15185(19)
Cd1_2 Cd 1.71535(2) 0.11643(2) 0.07507(2)
Cd1C Cd 0.21535(2) 0.38357(2) 0.57507(2)
O3_2 O 0.57638(15) 0.14446(12) 0.20218(13)
O4_2 O 0.47017(16) 0.10221(11) 0.05941(13)
N3C N 0.69125(19) 0.11699(11) -0.10850(15)
O7 O 1.09946(17) 0.12395(11) -0.10207(13)
H20 H 1.1774 0.1038 -0.0924
H21 H 1.0602 0.1199 -0.0454
O8 O 1.13478(19) 0.28612(13) -0.10650(15)
H22 H 1.2192 0.2865 -0.0994
H23 H 1.1087 0.3041 -0.1676
O9 O 0.9004(2) 0.19073(12) 0.40612(15)
H24 H 0.9083 0.1526 0.4529
H25 H 0.8995 0.1686 0.3452
loop_
_geom_bond_atom_site_label_1
_geom_bond_atom_site_label_2
_geom_bond_site_symmetry_1
_geom_bond_site_symmetry_2
Cd1 O1 1_555 1_555
O1 C13 1_555 1_555
O2 Cd1 1_555 1_555
O3 C17 1_555 1_555
O4 C17 1_555 1_555
O5 C7 1_555 1_555
O6 Cd1 1_555 1_555
H1 O6 1_555 1_555
H2 O6 1_555 1_555
N1 Cd1 1_555 1_555
N2 H3 1_555 1_555
N3 C8 1_555 1_555
C1 N1 1_555 1_555
H4 C1 1_555 1_555
C2 C1 1_555 1_555
H5 C2 1_555 1_555
C3 C2 1_555 1_555
H6 C3 1_555 1_555
C4 C3 1_555 1_555
C5 N1 1_555 1_555
H7 C5 1_555 1_555
C6 N2 1_555 1_555
H8 C6 1_555 1_555
H9 C6 1_555 1_555
C7 N2 1_555 1_555
C8 H10 1_555 1_555
C9 C7 1_555 1_555
C10 C9 1_555 1_555
H11 C10 1_555 1_555
C11 C10 1_555 1_555
H12 C11 1_555 1_555
C12 N3 1_555 1_555
H13 C12 1_555 1_555
C13 O2 1_555 1_555
C14 C13 1_555 1_555
H14 C14 1_555 1_555
H15 C14 1_555 1_555
C15 C14 1_555 1_555
H16 C15 1_555 1_555
H17 C15 1_555 1_555
C16 C15 1_555 1_555
H18 C16 1_555 1_555
H19 C16 1_555 1_555
C17 C16 1_555 1_555
O7 H20 1_555 1_555
H21 O7 1_555 1_555
O8 H22 1_555 1_555
H23 O8 1_555 1_555
O9 H24 1_555 1_555
H25 O9 1_555 1_555
Cd1_2 O3 1_555 1_555
Cd1C N3 1_555 1_555
O3_2 Cd1 1_555 1_555
O4_2 Cd1 1_555 1_555
N3C Cd1 1_555 1_555
O4 Cd1_2 1_555 1_555
C4 C5 1_555 1_555
C4 C6 1_555 1_555
C8 C9 1_555 1_555
C11 C12 1_555 1_555

#END
