
#######################################################################
#
#                 Cambridge Crystallographic Data Centre
#                                CCDC 
#
#######################################################################
#
# If this CIF has been generated from an entry in the Cambridge 
# Structural Database, then it will include bibliographic, chemical, 
# crystal, experimental, refinement or atomic coordinate data resulting 
# from the CCDC's data processing and validation procedures.
#
#######################################################################

data_PUKBOO
_symmetry_cell_setting           triclinic
_symmetry_space_group_name_H-M   'P -1'
_symmetry_Int_Tables_number      2
_space_group_name_Hall           '-P 1'
loop_
_symmetry_equiv_pos_site_id
_symmetry_equiv_pos_as_xyz
1 x,y,z
2 -x,-y,-z
_cell_length_a                   6.5167(9)
_cell_length_b                   11.8741(16)
_cell_length_c                   12.6240(17)
_cell_angle_alpha                95.531(2)
_cell_angle_beta                 102.070(2)
_cell_angle_gamma                91.744(2)
_cell_volume                     949.517
loop_
_atom_site_label
_atom_site_type_symbol
_atom_site_fract_x
_atom_site_fract_y
_atom_site_fract_z
Co1 Co 0.88614(7) 0.74844(4) 0.28545(4)
Co2 Co 0.5000 1.0000 0.5000
P1 P 0.39027(13) 0.79849(7) 0.32895(7)
P2 P 0.12004(13) 1.00280(7) 0.31451(7)
N1 N 0.8418(4) 0.5685(2) 0.2764(2)
N2 N 0.8088(4) 0.6996(3) 0.1128(2)
C1 C 0.3448(5) 0.9350(3) 0.2714(3)
C2 C 0.3274(6) 0.9257(3) 0.1490(3)
H1 H 0.3135 0.9997 0.1244
H2 H 0.2064 0.8779 0.1134
H3 H 0.4514 0.8937 0.1317
C3 C 0.8500(6) 0.5045(3) 0.3575(3)
H4 H 0.8733 0.5401 0.4282
C4 C 0.8257(7) 0.3874(4) 0.3423(4)
H5 H 0.8313 0.3457 0.4014
C5 C 0.7934(7) 0.3344(4) 0.2391(4)
H6 H 0.7785 0.2558 0.2277
C6 C 0.7826(6) 0.3978(3) 0.1500(4)
C7 C 0.7430(6) 0.3508(4) 0.0390(4)
H7 H 0.7273 0.2725 0.0232
C8 C 0.7276(6) 0.4152(4) -0.0432(4)
H8 H 0.7040 0.3809 -0.1144
C9 C 0.7469(6) 0.5364(4) -0.0232(3)
C10 C 0.7265(6) 0.6098(4) -0.1048(3)
H9 H 0.7006 0.5806 -0.1777
C11 C 0.7444(6) 0.7230(4) -0.0775(3)
H10 H 0.7290 0.7720 -0.1315
C12 C 0.7864(6) 0.7662(4) 0.0324(3)
H11 H 0.7991 0.8444 0.0501
C13 C 0.7895(5) 0.5863(3) 0.0864(3)
C14 C 0.8063(5) 0.5158(3) 0.1725(3)
O1 O 0.5828(4) 0.7551(2) 0.2944(2)
O2 O 0.4219(4) 0.8306(2) 0.45233(19)
O3 O 0.1976(3) 0.7191(2) 0.28563(19)
O4 O 0.1906(4) 1.0324(2) 0.43636(19)
O5 O -0.0763(4) 0.9275(2) 0.2735(2)
O6 O 0.0882(4) 1.1155(2) 0.2579(2)
O7 O 0.5263(4) 1.0094(2) 0.3287(2)
H12 H 0.6331 0.9821 0.3142
O8 O 0.9872(4) 0.7848(2) 0.4606(2)
H13 H 1.1146 0.7940 0.4694
H14 H 0.9267 0.8307 0.4934
Co1A Co 0.11386(7) 1.25156(4) 0.71455(4)
P1A P 0.60973(13) 1.20151(7) 0.67105(7)
P2A P 0.87996(13) 0.99720(7) 0.68549(7)
N1A N 0.1582(4) 1.4315(2) 0.7236(2)
N2A N 0.1912(4) 1.3004(3) 0.8872(2)
C1A C 0.6552(5) 1.0650(3) 0.7286(3)
C2A C 0.6726(6) 1.0743(3) 0.8510(3)
H1A H 0.6865 1.0003 0.8756
H2A H 0.7936 1.1221 0.8866
H3A H 0.5486 1.1063 0.8683
C3A C 0.1500(6) 1.4955(3) 0.6425(3)
H4A H 0.1267 1.4599 0.5718
C4A C 0.1743(7) 1.6126(4) 0.6577(4)
H5A H 0.1687 1.6543 0.5986
C5A C 0.2066(7) 1.6656(4) 0.7609(4)
H6A H 0.2215 1.7442 0.7723
C6A C 0.2174(6) 1.6022(3) 0.8500(4)
C7A C 0.2570(6) 1.6492(4) 0.9610(4)
H7A H 0.2727 1.7275 0.9768
C8A C 0.2724(6) 1.5848(4) 1.0432(4)
H8A H 0.2960 1.6191 1.1144
C9A C 0.2531(6) 1.4636(4) 1.0232(3)
C10A C 0.2735(6) 1.3902(4) 1.1048(3)
H9A H 0.2994 1.4194 1.1777
C11A C 0.2556(6) 1.2770(4) 1.0775(3)
H10A H 0.2710 1.2280 1.1315
C12A C 0.2136(6) 1.2338(4) 0.9676(3)
H11A H 0.2009 1.1556 0.9499
C13A C 0.2105(5) 1.4137(3) 0.9136(3)
C14A C 0.1937(5) 1.4842(3) 0.8275(3)
O1A O 0.4172(4) 1.2449(2) 0.7056(2)
O2A O 0.5781(4) 1.1694(2) 0.54767(19)
O3A O 0.8024(3) 1.2809(2) 0.71437(19)
O4A O 0.8094(4) 0.9676(2) 0.56364(19)
O5A O 1.0763(4) 1.0725(2) 0.7265(2)
O6A O 0.9118(4) 0.8845(2) 0.7421(2)
O7A O 0.4737(4) 0.9906(2) 0.6713(2)
H12A H 0.3669 1.0179 0.6858
O8A O 0.0128(4) 1.2152(2) 0.5394(2)
H13A H -0.1146 1.2060 0.5306
H14A H 0.0733 1.1693 0.5066
Co1_2 Co -0.11386(7) 0.74844(4) 0.28545(4)
Co1A_2 Co 1.11386(7) 1.25156(4) 0.71455(4)
O3_2 O 1.1976(3) 0.7191(2) 0.28563(19)
O3A_2 O -0.1976(3) 1.2809(2) 0.71437(19)
O5_2 O 0.9237(4) 0.9275(2) 0.2735(2)
O5A_2 O 0.0763(4) 1.0725(2) 0.7265(2)
N3 N 0.3470(6) 0.5197(3) 0.3904(3)
H15 H 0.3234 0.5317 0.4614
H16 H 0.2955 0.4503 0.3552
H17 H 0.2803 0.5789 0.3497
H18 H 0.4937 0.5312 0.3931
O9 O 0.3458(5) 0.2742(3) 0.3711(3)
H19 H 0.4180 0.2614 0.4298
H20 H 0.3070 0.3393 0.3667
loop_
_geom_bond_atom_site_label_1
_geom_bond_atom_site_label_2
_geom_bond_site_symmetry_1
_geom_bond_site_symmetry_2
Co1 N1 1_555 1_555
Co2 O2 1_555 1_555
P1 C1 1_555 1_555
P2 C1 1_555 1_555
N1 C3 1_555 1_555
N2 Co1 1_555 1_555
C1 C2 1_555 1_555
C2 H1 1_555 1_555
H2 C2 1_555 1_555
H3 C2 1_555 1_555
C3 H4 1_555 1_555
C4 C3 1_555 1_555
H5 C4 1_555 1_555
C5 C4 1_555 1_555
H6 C5 1_555 1_555
C6 C5 1_555 1_555
C7 C6 1_555 1_555
H7 C7 1_555 1_555
C8 C7 1_555 1_555
H8 C8 1_555 1_555
C9 C8 1_555 1_555
C10 C9 1_555 1_555
H9 C10 1_555 1_555
C11 C10 1_555 1_555
H10 C11 1_555 1_555
C12 N2 1_555 1_555
H11 C12 1_555 1_555
C13 N2 1_555 1_555
C14 N1 1_555 1_555
O1 Co1 1_555 1_555
O2 P1 1_555 1_555
O3 P1 1_555 1_555
O4 Co2 1_555 1_555
O5 P2 1_555 1_555
O6 P2 1_555 1_555
O7 Co2 1_555 1_555
H12 O7 1_555 1_555
O8 Co1 1_555 1_555
H13 O8 1_555 1_555
H14 O8 1_555 1_555
N3 H15 1_555 1_555
H16 N3 1_555 1_555
H17 N3 1_555 1_555
H18 N3 1_555 1_555
O9 H19 1_555 1_555
H20 O9 1_555 1_555
Co1A N1A 1_555 1_555
P1A C1A 1_555 1_555
P2A C1A 1_555 1_555
N1A C3A 1_555 1_555
N2A Co1A 1_555 1_555
C1A C2A 1_555 1_555
C2A H1A 1_555 1_555
H2A C2A 1_555 1_555
H3A C2A 1_555 1_555
C3A H4A 1_555 1_555
C4A C3A 1_555 1_555
H5A C4A 1_555 1_555
C5A C4A 1_555 1_555
H6A C5A 1_555 1_555
C6A C5A 1_555 1_555
C7A C6A 1_555 1_555
H7A C7A 1_555 1_555
C8A C7A 1_555 1_555
H8A C8A 1_555 1_555
C9A C8A 1_555 1_555
C10A C9A 1_555 1_555
H9A C10A 1_555 1_555
C11A C10A 1_555 1_555
H10A C11A 1_555 1_555
C12A N2A 1_555 1_555
H11A C12A 1_555 1_555
C13A N2A 1_555 1_555
C14A N1A 1_555 1_555
O1A Co1A 1_555 1_555
O2A Co2 1_555 1_555
O3A P1A 1_555 1_555
O4A Co2 1_555 1_555
O5A P2A 1_555 1_555
O6A P2A 1_555 1_555
O7A Co2 1_555 1_555
H12A O7A 1_555 1_555
O8A Co1A 1_555 1_555
H13A O8A 1_555 1_555
H14A O8A 1_555 1_555
Co1_2 O3 1_555 1_555
Co1A_2 O3A 1_555 1_555
O3_2 Co1 1_555 1_555
O3A_2 Co1A 1_555 1_555
O5_2 Co1 1_555 1_555
O5A_2 Co1A 1_555 1_555
P1 O1 1_555 1_555
P2 O4 1_555 1_555
C1 O7 1_555 1_555
C6 C14 1_555 1_555
C9 C13 1_555 1_555
C11 C12 1_555 1_555
C13 C14 1_555 1_555
O5 Co1_2 1_555 1_555
P1A O1A 1_555 1_555
P1A O2A 1_555 1_555
P2A O4A 1_555 1_555
C1A O7A 1_555 1_555
C6A C14A 1_555 1_555
C9A C13A 1_555 1_555
C11A C12A 1_555 1_555
C13A C14A 1_555 1_555
O5A Co1A_2 1_555 1_555

#END
