
#######################################################################
#
#                 Cambridge Crystallographic Data Centre
#                                CCDC 
#
#######################################################################
#
# If this CIF has been generated from an entry in the Cambridge 
# Structural Database, then it will include bibliographic, chemical, 
# crystal, experimental, refinement or atomic coordinate data resulting 
# from the CCDC's data processing and validation procedures.
#
#######################################################################

data_PUKDEG
_symmetry_cell_setting           triclinic
_symmetry_space_group_name_H-M   'P -1'
_symmetry_Int_Tables_number      2
_space_group_name_Hall           '-P 1'
loop_
_symmetry_equiv_pos_site_id
_symmetry_equiv_pos_as_xyz
1 x,y,z
2 -x,-y,-z
_cell_length_a                   8.0430(3)
_cell_length_b                   10.7219(4)
_cell_length_c                   11.5496(4)
_cell_angle_alpha                70.8380(10)
_cell_angle_beta                 82.3400(10)
_cell_angle_gamma                69.0250(10)
_cell_volume                     878.328
loop_
_atom_site_label
_atom_site_type_symbol
_atom_site_fract_x
_atom_site_fract_y
_atom_site_fract_z
Cd1 Cd 0.19053(2) 0.45219(2) 0.37505(2)
O1 O 0.3759(2) 0.35993(18) 0.21194(17)
O2 O 0.4693(2) 0.47459(18) 0.29995(15)
O3 O -0.1175(3) 0.3909(2) 0.51433(19)
O4 O 0.0320(2) 0.31475(17) 0.36440(15)
N1 N 0.3329(2) 0.28054(16) 0.54695(14)
N2 N 1.0229(2) -0.36745(16) 1.22023(14)
N3 N 0.6653(4) 0.2590(3) -0.0074(2)
N4 N -0.0857(4) 0.0542(3) 0.3321(3)
C1 C 0.3577(3) 0.1455(2) 0.56308(18)
H1 H 0.3055 0.1240 0.5083
C2 C 0.4562(3) 0.0374(2) 0.65633(19)
H2 H 0.4701 -0.0547 0.6633
C3 C 0.5349(3) 0.0657(2) 0.74026(17)
C4 C 0.5059(3) 0.2063(2) 0.72532(18)
H3 H 0.5534 0.2307 0.7803
C5 C 0.4064(3) 0.3088(2) 0.62855(18)
H4 H 0.3894 0.4019 0.6195
C6 C 0.6418(3) -0.0523(2) 0.83731(19)
H5 H 0.6548 -0.1423 0.8382
C7 C 0.7216(3) -0.0393(2) 0.92426(19)
H6 H 0.7103 0.0511 0.9214
C8 C 0.8256(3) -0.1547(2) 1.02402(17)
C9 C 0.8905(3) -0.1246(2) 1.11347(18)
H7 H 0.8691 -0.0320 1.1090
C10 C 0.9861(3) -0.2318(2) 1.20834(18)
H8 H 1.0277 -0.2091 1.2675
C11 C 0.9630(3) -0.3974(2) 1.13342(18)
H9 H 0.9885 -0.4910 1.1395
C12 C 0.8653(3) -0.2960(2) 1.03552(19)
H10 H 0.8261 -0.3215 0.9774
C13 C 0.4841(3) 0.4120(2) 0.22311(19)
C14 C 0.6493(3) 0.4010(2) 0.1388(2)
H11 H 0.6470 0.4945 0.0904
H12 H 0.7549 0.3575 0.1887
C15 C 0.6611(3) 0.3203(2) 0.0569(2)
C16 C -0.0829(3) 0.31716(19) 0.44644(18)
C17 C -0.1901(3) 0.2194(3) 0.4660(2)
H13 H -0.1829 0.1631 0.5515
H14 H -0.3141 0.2757 0.4491
C18 C -0.1312(3) 0.1269(3) 0.3904(3)
Cd1_2 Cd 1.19053(2) -0.54781(2) 1.37505(2)
Cd1A Cd -0.19053(2) 0.54781(2) 0.62495(2)
O3A O 0.1175(3) 0.6091(2) 0.48567(19)
N2_2 N 0.0229(2) 0.63255(16) 0.22023(14)
loop_
_geom_bond_atom_site_label_1
_geom_bond_atom_site_label_2
_geom_bond_site_symmetry_1
_geom_bond_site_symmetry_2
Cd1 O1 1_555 1_555
O1 C13 1_555 1_555
O2 Cd1 1_555 1_555
O3 C16 1_555 1_555
O4 Cd1 1_555 1_555
N1 Cd1 1_555 1_555
N2 C10 1_555 1_555
N3 C15 1_555 1_555
N4 C18 1_555 1_555
C1 N1 1_555 1_555
H1 C1 1_555 1_555
C2 C1 1_555 1_555
H2 C2 1_555 1_555
C3 C2 1_555 1_555
C4 C3 1_555 1_555
H3 C4 1_555 1_555
C5 N1 1_555 1_555
H4 C5 1_555 1_555
C6 C3 1_555 1_555
H5 C6 1_555 1_555
C7 C6 1_555 1_555
H6 C7 1_555 1_555
C8 C7 1_555 1_555
C9 C8 1_555 1_555
H7 C9 1_555 1_555
C10 C9 1_555 1_555
H8 C10 1_555 1_555
C11 N2 1_555 1_555
H9 C11 1_555 1_555
C12 C8 1_555 1_555
H10 C12 1_555 1_555
C13 O2 1_555 1_555
C14 C13 1_555 1_555
H11 C14 1_555 1_555
H12 C14 1_555 1_555
C15 C14 1_555 1_555
C16 O4 1_555 1_555
C17 C16 1_555 1_555
H13 C17 1_555 1_555
H14 C17 1_555 1_555
C18 C17 1_555 1_555
Cd1_2 N2 1_555 1_555
Cd1A O3 1_555 1_555
O3A Cd1 1_555 1_555
N2_2 Cd1 1_555 1_555
C4 C5 1_555 1_555
C11 C12 1_555 1_555

#END
