
#######################################################################
#
#                 Cambridge Crystallographic Data Centre
#                                CCDC 
#
#######################################################################
#
# If this CIF has been generated from an entry in the Cambridge 
# Structural Database, then it will include bibliographic, chemical, 
# crystal, experimental, refinement or atomic coordinate data resulting 
# from the CCDC's data processing and validation procedures.
#
#######################################################################

data_PUKJIO02
_symmetry_cell_setting           orthorhombic
_symmetry_space_group_name_H-M   'P n n m'
_symmetry_Int_Tables_number      58
_space_group_name_Hall           '-P 2 2n'
loop_
_symmetry_equiv_pos_site_id
_symmetry_equiv_pos_as_xyz
1 x,y,z
2 1/2-x,1/2+y,1/2+z
3 1/2+x,1/2-y,1/2+z
4 x,y,-z
5 -x,-y,-z
6 1/2+x,1/2-y,1/2-z
7 1/2-x,1/2+y,1/2-z
8 -x,-y,z
_cell_length_a                   6.120(1)
_cell_length_b                   7.339(1)
_cell_length_c                   7.173(1)
_cell_angle_alpha                90
_cell_angle_beta                 90
_cell_angle_gamma                90
_cell_volume                     322.173
loop_
_atom_site_label
_atom_site_type_symbol
_atom_site_fract_x
_atom_site_fract_y
_atom_site_fract_z
Cu1 Cu 0.0000 0.0000 -0.5000
N1 N 0.2992(5) -0.4178(4) -0.1992(4)
N2 N 0.1652(7) -0.3075(6) -0.5000
C1 C 0.2439(5) -0.3711(4) -0.3439(4)
N1F N 0.2008(5) 0.0822(4) -0.3008(4)
N1E N -0.2008(5) -0.0822(4) -0.3008(4)
N1B N -0.2008(5) -0.0822(4) -0.6992(4)
N1A N 0.2008(5) 0.0822(4) -0.6992(4)
C1C C 0.2439(5) -0.3711(4) -0.6561(4)
N1C N 0.2992(5) -0.4178(4) -0.8008(4)
N1G N -0.2992(5) 0.4178(4) -0.1992(4)
N2D N -0.1652(7) 0.3075(6) -0.5000
C1G C -0.2439(5) 0.3711(4) -0.3439(4)
C1D C -0.2439(5) 0.3711(4) -0.6561(4)
N1D N -0.2992(5) 0.4178(4) -0.8008(4)
Cu1A Cu 0.5000 -0.5000 0.0000
Cu1A_2 Cu 0.5000 -0.5000 -1.0000
Cu1A_3 Cu -0.5000 0.5000 0.0000
Cu1A_4 Cu -0.5000 0.5000 -1.0000
loop_
_geom_bond_atom_site_label_1
_geom_bond_atom_site_label_2
_geom_bond_site_symmetry_1
_geom_bond_site_symmetry_2
Cu1 N2 1_555 1_555
N1 C1 1_555 1_555
N2 C1 1_555 1_555
N1F Cu1 1_555 1_555
N1E Cu1 1_555 1_555
N1B Cu1 1_555 1_555
N1A Cu1 1_555 1_555
C1C N2 1_555 1_555
N1C C1C 1_555 1_555
N1G C1G 1_555 1_555
N2D Cu1 1_555 1_555
C1G N2D 1_555 1_555
C1D N2D 1_555 1_555
N1D C1D 1_555 1_555
Cu1A N1 1_555 1_555
Cu1A_2 N1C 1_555 1_555
Cu1A_3 N1G 1_555 1_555
Cu1A_4 N1D 1_555 1_555

#END
