
#######################################################################
#
#                 Cambridge Crystallographic Data Centre
#                                CCDC 
#
#######################################################################
#
# If this CIF has been generated from an entry in the Cambridge 
# Structural Database, then it will include bibliographic, chemical, 
# crystal, experimental, refinement or atomic coordinate data resulting 
# from the CCDC's data processing and validation procedures.
#
#######################################################################

data_PUKLAK
_symmetry_cell_setting           monoclinic
_symmetry_space_group_name_H-M   'C 2/c'
_symmetry_Int_Tables_number      15
_space_group_name_Hall           '-C 2yn'
loop_
_symmetry_equiv_pos_site_id
_symmetry_equiv_pos_as_xyz
1 x,y,z
2 -x,y,1/2-z
3 1/2+x,1/2+y,z
4 1/2-x,1/2+y,1/2-z
5 -x,-y,-z
6 x,-y,1/2+z
7 1/2-x,1/2-y,-z
8 1/2+x,1/2-y,1/2+z
_cell_length_a                   38.9328(8)
_cell_length_b                   10.0326(2)
_cell_length_c                   20.2312(4)
_cell_angle_alpha                90
_cell_angle_beta                 115.347(2)
_cell_angle_gamma                90
_cell_volume                     7141.51
loop_
_atom_site_label
_atom_site_type_symbol
_atom_site_fract_x
_atom_site_fract_y
_atom_site_fract_z
Mo1 Mo 0.406548(15) 0.34628(5) 0.55137(3)
Cu1 Cu 0.34274(2) 0.48456(9) 0.51563(5)
Br1 Br 0.37384(2) 0.59642(7) 0.66671(4)
Cu2 Cu 0.39639(2) 0.33610(8) 0.67549(4)
Cu3 Cu 0.43032(2) 0.58234(8) 0.61481(5)
N1 N 0.49668(13) 0.7614(5) 0.6651(3)
S1 S 0.45186(4) 0.37731(16) 0.66542(9)
S2 S 0.35394(5) 0.27259(16) 0.56008(10)
S3 S 0.39289(5) 0.54509(17) 0.49475(9)
S4 S 0.42516(7) 0.2114(2) 0.49235(14)
N2 N 0.45794(14) 0.7507(5) 0.6387(3)
N3 N 0.29374(15) 0.5733(6) 0.4650(3)
C1 C 0.44503(19) 0.8764(6) 0.6262(4)
N4 N 0.26286(15) 0.5454(6) 0.4768(3)
C2 C 0.50764(19) 0.8902(7) 0.6703(4)
C3 C 0.2831(2) 0.6703(9) 0.4144(5)
C4 C 0.5496(2) 0.1642(9) 0.5426(4)
H1 H 0.5278 0.2183 0.5345
H2 H 0.5422 0.0722 0.5352
H3 H 0.5598 0.1897 0.5088
C5 C 0.5228(2) 0.5966(7) 0.6089(4)
H4 H 0.5288 0.6712 0.5852
H5 H 0.4981 0.5622 0.5755
C6 C 0.5480(2) 0.9301(8) 0.6974(5)
H6 H 0.5637 0.8520 0.7099
H7 H 0.5549 0.9855 0.7399
H8 H 0.5515 0.9788 0.6599
C7 C 0.2332(2) 0.6250(8) 0.4338(5)
C8 C 0.6138(2) 0.1302(7) 0.6546(4)
H9 H 0.6259 0.0714 0.6359
C9 C 0.5525(2) 0.4885(7) 0.6242(4)
H10 H 0.5559 0.4721 0.5801
H11 H 0.5766 0.5199 0.6615
C10 C 0.62810(19) 0.1804(7) 0.7252(4)
C11 C 0.4031(2) 0.9044(8) 0.5943(5)
H12 H 0.3894 0.8219 0.5862
H13 H 0.3955 0.9507 0.5487
H14 H 0.3976 0.9586 0.6277
C12 C 0.2504(2) 0.3069(8) 0.4771(4)
H15 H 0.2254 0.3192 0.4374
H16 H 0.2681 0.2879 0.4561
C13 C 0.3105(3) 0.7305(11) 0.3875(6)
H17 H 0.3345 0.6856 0.4103
H18 H 0.3139 0.8235 0.3999
H19 H 0.3004 0.7206 0.3354
C14 C 0.6660(2) 0.1534(11) 0.7873(5)
H20 H 0.6679 0.2011 0.8299
H21 H 0.6858 0.1822 0.7743
H22 H 0.6686 0.0596 0.7976
C15 C 0.1946(2) 0.6145(10) 0.4361(6)
H23 H 0.1955 0.5449 0.4694
H24 H 0.1754 0.5943 0.3881
H25 H 0.1887 0.6977 0.4524
C16 C 0.2458(2) 0.7048(9) 0.3949(5)
H26 H 0.2320 0.7702 0.3616
C17 C 0.26266(19) 0.4361(7) 0.5228(4)
H27 H 0.2452 0.4552 0.5442
H28 H 0.2879 0.4247 0.5622
C18 C 0.47472(19) 0.9637(7) 0.6459(4)
H29 H 0.4730 1.0562 0.6432
N5 N 0.57258(14) 0.2606(5) 0.6666(3)
N6 N 0.60293(14) 0.2604(5) 0.7331(3)
C19 C 0.57873(19) 0.1836(6) 0.6182(4)
C20 C 0.52055(17) 0.6453(6) 0.6781(4)
H30 H 0.5106 0.5745 0.6976
H31 H 0.5459 0.6666 0.7145
C21 C 0.54219(18) 0.3590(6) 0.6494(4)
H32 H 0.5378 0.3751 0.6925
H33 H 0.5189 0.3243 0.6113
N3F N 0.20626(15) -0.0733(6) 0.5350(3)
N4F N 0.23714(15) -0.0454(6) 0.5232(3)
C3F C 0.2169(2) -0.1703(9) 0.5856(5)
C7F C 0.2668(2) -0.1250(8) 0.5662(5)
C12F C 0.2496(2) 0.1931(8) 0.5229(4)
H15F H 0.2746 0.1808 0.5626
H16F H 0.2319 0.2121 0.5439
C13F C 0.1895(3) -0.2305(11) 0.6125(6)
H17F H 0.1655 -0.1856 0.5897
H18F H 0.1861 -0.3235 0.6001
H19F H 0.1996 -0.2206 0.6646
C15F C 0.3054(2) -0.1145(10) 0.5639(6)
H23F H 0.3045 -0.0449 0.5306
H24F H 0.3246 -0.0943 0.6119
H25F H 0.3113 -0.1977 0.5476
C16F C 0.2542(2) -0.2048(9) 0.6051(5)
H26F H 0.2680 -0.2702 0.6384
C17F C 0.23734(19) 0.0639(7) 0.4772(4)
H27F H 0.2548 0.0448 0.4558
H28F H 0.2121 0.0753 0.4378
Mo1A Mo 0.593452(15) 0.34628(5) 0.94863(3)
Cu1A Cu 0.65726(2) 0.48456(9) 0.98437(5)
Br1A Br 0.62616(2) 0.59642(7) 0.83329(4)
Cu2A Cu 0.60361(2) 0.33610(8) 0.82451(4)
Cu3A Cu 0.56968(2) 0.58234(8) 0.88519(5)
N1A N 0.50332(13) 0.7614(5) 0.8349(3)
S1A S 0.54814(4) 0.37731(16) 0.83458(9)
S2A S 0.64606(5) 0.27259(16) 0.93992(10)
S3A S 0.60711(5) 0.54509(17) 1.00525(9)
S4A S 0.57484(7) 0.2114(2) 1.00765(14)
N2A N 0.54206(14) 0.7507(5) 0.8613(3)
C1A C 0.55497(19) 0.8764(6) 0.8738(4)
C2A C 0.49236(19) 0.8902(7) 0.8297(4)
C4A C 0.4504(2) 0.1642(9) 0.9574(4)
H1A H 0.4722 0.2183 0.9655
H2A H 0.4578 0.0722 0.9648
H3A H 0.4402 0.1897 0.9912
C5A C 0.4772(2) 0.5966(7) 0.8911(4)
H4A H 0.4712 0.6712 0.9148
H5A H 0.5019 0.5622 0.9245
C6A C 0.4520(2) 0.9301(8) 0.8026(5)
H6A H 0.4363 0.8520 0.7901
H7A H 0.4451 0.9855 0.7601
H8A H 0.4485 0.9788 0.8401
C8A C 0.3862(2) 0.1302(7) 0.8454(4)
H9A H 0.3741 0.0714 0.8641
C9A C 0.4475(2) 0.4885(7) 0.8758(4)
H10A H 0.4441 0.4721 0.9199
H11A H 0.4234 0.5199 0.8385
C10A C 0.37190(19) 0.1804(7) 0.7748(4)
C11A C 0.5969(2) 0.9044(8) 0.9057(5)
H12A H 0.6106 0.8219 0.9138
H13A H 0.6045 0.9507 0.9513
H14A H 0.6024 0.9586 0.8723
C14A C 0.3340(2) 0.1534(11) 0.7127(5)
H20A H 0.3321 0.2011 0.6701
H21A H 0.3142 0.1822 0.7257
H22A H 0.3314 0.0596 0.7024
C18A C 0.52528(19) 0.9637(7) 0.8541(4)
H29A H 0.5270 1.0562 0.8568
N5A N 0.42742(14) 0.2606(5) 0.8334(3)
N6A N 0.39707(14) 0.2604(5) 0.7669(3)
C19A C 0.42127(19) 0.1836(6) 0.8818(4)
C20A C 0.47945(17) 0.6453(6) 0.8219(4)
H30A H 0.4894 0.5745 0.8024
H31A H 0.4541 0.6666 0.7855
C21A C 0.45781(18) 0.3590(6) 0.8506(4)
H32A H 0.4622 0.3751 0.8075
H33A H 0.4811 0.3243 0.8887
Cu1F Cu 0.15726(2) 0.01544(9) 0.48437(5)
N3A N 0.70626(15) 0.5733(6) 1.0350(3)
O1 O 0.3090(5) 0.0506(17) 0.3921(10)
O2 O 0.3577(6) 0.163(2) 0.4706(13)
O3 O 0.1963(6) -0.233(2) 0.1839(12)
C22 C 0.2305(6) -0.143(2) 0.2035(12)
O4? O 0.1934(7) -0.096(3) 0.2139(13)
C23? C 0.1634(8) -0.194(3) 0.1915(16)
loop_
_geom_bond_atom_site_label_1
_geom_bond_atom_site_label_2
_geom_bond_site_symmetry_1
_geom_bond_site_symmetry_2
Mo1 S1 1_555 1_555
Cu1 Br1 1_555 1_555
Br1 Cu2 1_555 1_555
Cu2 S1 1_555 1_555
Cu3 Br1 1_555 1_555
N1 N2 1_555 1_555
S1 Cu3 1_555 1_555
S2 Mo1 1_555 1_555
S3 Mo1 1_555 1_555
S4 Mo1 1_555 1_555
N2 Cu3 1_555 1_555
N3 Cu1 1_555 1_555
C1 N2 1_555 1_555
N4 N3 1_555 1_555
C2 N1 1_555 1_555
C3 N3 1_555 1_555
C4 H1 1_555 1_555
H2 C4 1_555 1_555
H3 C4 1_555 1_555
C5 H4 1_555 1_555
H5 C5 1_555 1_555
C6 C2 1_555 1_555
H6 C6 1_555 1_555
H7 C6 1_555 1_555
H8 C6 1_555 1_555
C7 N4 1_555 1_555
C8 H9 1_555 1_555
C9 C5 1_555 1_555
H10 C9 1_555 1_555
H11 C9 1_555 1_555
C10 C8 1_555 1_555
C11 C1 1_555 1_555
H12 C11 1_555 1_555
H13 C11 1_555 1_555
H14 C11 1_555 1_555
C12 H15 1_555 1_555
H16 C12 1_555 1_555
C13 C3 1_555 1_555
H17 C13 1_555 1_555
H18 C13 1_555 1_555
H19 C13 1_555 1_555
C14 C10 1_555 1_555
H20 C14 1_555 1_555
H21 C14 1_555 1_555
H22 C14 1_555 1_555
C15 C7 1_555 1_555
H23 C15 1_555 1_555
H24 C15 1_555 1_555
H25 C15 1_555 1_555
C16 C3 1_555 1_555
H26 C16 1_555 1_555
C17 N4 1_555 1_555
H27 C17 1_555 1_555
H28 C17 1_555 1_555
C18 C1 1_555 1_555
H29 C18 1_555 1_555
N5 N6 1_555 1_555
N6 C10 1_555 1_555
C19 C4 1_555 1_555
C20 N1 1_555 1_555
H30 C20 1_555 1_555
H31 C20 1_555 1_555
C21 C9 1_555 1_555
H32 C21 1_555 1_555
H33 C21 1_555 1_555
O3 C22 1_555 1_555
N3F N4F 1_555 1_555
N4F C7F 1_555 1_555
C3F N3F 1_555 1_555
C7F C15F 1_555 1_555
C12F C12 1_555 1_555
H15F C12F 1_555 1_555
H16F C12F 1_555 1_555
C13F C3F 1_555 1_555
H17F C13F 1_555 1_555
H18F C13F 1_555 1_555
H19F C13F 1_555 1_555
C15F H23F 1_555 1_555
H24F C15F 1_555 1_555
H25F C15F 1_555 1_555
C16F C3F 1_555 1_555
H26F C16F 1_555 1_555
C17F N4F 1_555 1_555
H27F C17F 1_555 1_555
H28F C17F 1_555 1_555
Mo1A S1A 1_555 1_555
Cu1A Br1A 1_555 1_555
Br1A Cu2A 1_555 1_555
Cu2A N6 1_555 1_555
Cu3A Br1A 1_555 1_555
N1A N2A 1_555 1_555
S1A Cu2A 1_555 1_555
S2A Mo1A 1_555 1_555
S3A Mo1A 1_555 1_555
S4A Mo1A 1_555 1_555
N2A Cu3A 1_555 1_555
C1A N2A 1_555 1_555
C2A N1A 1_555 1_555
C4A H1A 1_555 1_555
H2A C4A 1_555 1_555
H3A C4A 1_555 1_555
C5A H4A 1_555 1_555
H5A C5A 1_555 1_555
C6A C2A 1_555 1_555
H6A C6A 1_555 1_555
H7A C6A 1_555 1_555
H8A C6A 1_555 1_555
C8A H9A 1_555 1_555
C9A C5A 1_555 1_555
H10A C9A 1_555 1_555
H11A C9A 1_555 1_555
C10A C8A 1_555 1_555
C11A C1A 1_555 1_555
H12A C11A 1_555 1_555
H13A C11A 1_555 1_555
H14A C11A 1_555 1_555
C14A C10A 1_555 1_555
H20A C14A 1_555 1_555
H21A C14A 1_555 1_555
H22A C14A 1_555 1_555
C18A C1A 1_555 1_555
H29A C18A 1_555 1_555
N5A N6A 1_555 1_555
N6A Cu2 1_555 1_555
C19A C4A 1_555 1_555
C20A N1A 1_555 1_555
H30A C20A 1_555 1_555
H31A C20A 1_555 1_555
C21A C9A 1_555 1_555
H32A C21A 1_555 1_555
H33A C21A 1_555 1_555
Cu1F N3F 1_555 1_555
N3A Cu1A 1_555 1_555
Cu1 S2 1_555 1_555
Cu1 S3 1_555 1_555
Cu2 S2 1_555 1_555
Cu3 S3 1_555 1_555
C2 C18 1_555 1_555
C5 C20 1_555 1_555
C7 C16 1_555 1_555
C8 C19 1_555 1_555
C12 C17 1_555 1_555
N5 C19 1_555 1_555
N5 C21 1_555 1_555
C7F C16F 1_555 1_555
C12F C17F 1_555 1_555
Cu1A S2A 1_555 1_555
Cu1A S3A 1_555 1_555
Cu2A S2A 1_555 1_555
Cu3A S1A 1_555 1_555
Cu3A S3A 1_555 1_555
C2A C18A 1_555 1_555
C5A C20A 1_555 1_555
C8A C19A 1_555 1_555
C10A N6A 1_555 1_555
N5A C19A 1_555 1_555
N5A C21A 1_555 1_555

#END
