
#######################################################################
#
#                 Cambridge Crystallographic Data Centre
#                                CCDC 
#
#######################################################################
#
# If this CIF has been generated from an entry in the Cambridge 
# Structural Database, then it will include bibliographic, chemical, 
# crystal, experimental, refinement or atomic coordinate data resulting 
# from the CCDC's data processing and validation procedures.
#
#######################################################################

data_PUKSUK
_symmetry_cell_setting           monoclinic
_symmetry_space_group_name_H-M   'P 21/c'
_symmetry_Int_Tables_number      14
_space_group_name_Hall           '-P 2ybc'
loop_
_symmetry_equiv_pos_site_id
_symmetry_equiv_pos_as_xyz
1 x,y,z
2 -x,1/2+y,1/2-z
3 -x,-y,-z
4 x,1/2-y,1/2+z
_cell_length_a                   19.2053(18)
_cell_length_b                   10.9942(8)
_cell_length_c                   11.2597(9)
_cell_angle_alpha                90
_cell_angle_beta                 106.833(7)
_cell_angle_gamma                90
_cell_volume                     2275.58
loop_
_atom_site_label
_atom_site_type_symbol
_atom_site_fract_x
_atom_site_fract_y
_atom_site_fract_z
Er1 Er 0.238828(10) 0.174214(15) 0.689145(16)
Er2 Er 0.266534(10) 0.516691(15) 0.549020(16)
Cl1 Cl 0.25180(7) 0.28262(9) 0.48225(9)
Cl2 Cl 0.10726(6) 0.20991(11) 0.68513(10)
Cl3 Cl 0.24914(6) 0.42007(9) 0.74972(9)
Cl4 Cl 0.24866(6) 0.53810(9) 0.30920(9)
Cl5 Cl 0.40435(6) 0.51397(11) 0.62430(11)
Cl6 Cl 0.24856(6) 0.73745(9) 0.58604(10)
N1 N -0.1331(2) -0.0023(3) 0.0241(4)
C1 C 0.1004(2) -0.0706(4) 0.3186(4)
C2 C 0.1414(3) -0.0073(4) 0.4293(4)
N2 N 0.3626(2) 0.2123(3) 0.8169(3)
C3 C 0.5284(2) 0.3673(4) 0.9040(4)
C4 C 0.5990(2) 0.3959(4) 0.9740(4)
C5 C 0.5232(3) 0.2200(5) 1.0614(4)
N3 N 0.1723(2) 0.0445(3) 0.5180(3)
C6 C 0.1263(3) -0.1797(4) 0.2841(4)
C7 C 0.0195(3) -0.1933(4) 0.1083(4)
N4 N 0.6738(2) 0.5493(3) 0.8865(3)
C8 C 0.6403(2) 0.4829(4) 0.9263(4)
C9 C 0.0347(2) -0.0205(4) 0.2482(4)
C10 C 0.4202(3) 0.2413(4) 0.8764(4)
C11 C -0.0055(2) -0.0842(4) 0.1438(4)
C12 C 0.6320(2) 0.3378(4) 1.0866(4)
C13 C 0.4914(2) 0.2778(4) 0.9487(4)
C14 C -0.0760(3) -0.0379(4) 0.0759(4)
C15 C 0.0856(3) -0.2403(4) 0.1784(4)
C16 C 0.5935(3) 0.2506(4) 1.1308(4)
H1 H 0.504(3) 0.408(5) 0.825(5)
H2 H -0.008(3) -0.233(5) 0.041(6)
H3 H 0.017(3) 0.052(5) 0.270(5)
H4 H 0.681(3) 0.357(4) 1.130(4)
H5 H 0.167(4) -0.216(6) 0.329(6)
H6 H 0.499(3) 0.161(5) 1.088(5)
H7 H 0.104(3) -0.316(6) 0.157(5)
H8 H 0.619(3) 0.212(5) 1.210(5)
Er1A Er 0.761172(10) 0.674214(15) 0.810855(16)
Er1C Er 0.238828(10) 0.325786(15) 0.189145(16)
Er2A Er -0.266534(10) 0.016691(15) -0.049020(16)
Cl4C Cl 0.24866(6) -0.03810(9) 0.80920(9)
N1A N 0.1331(2) 0.4977(3) 0.4759(4)
N4A N 0.3262(2) 0.0493(3) 0.6135(3)
loop_
_geom_bond_atom_site_label_1
_geom_bond_atom_site_label_2
_geom_bond_site_symmetry_1
_geom_bond_site_symmetry_2
Er1 Cl1 1_555 1_555
Er2 Cl1 1_555 1_555
Cl2 Er1 1_555 1_555
Cl3 Er1 1_555 1_555
Cl4 Er2 1_555 1_555
Cl5 Er2 1_555 1_555
Cl6 Er2 1_555 1_555
N1 C14 1_555 1_555
C1 C2 1_555 1_555
C2 N3 1_555 1_555
N2 Er1 1_555 1_555
C3 C4 1_555 1_555
C4 C8 1_555 1_555
C5 C13 1_555 1_555
N3 Er1 1_555 1_555
C6 C1 1_555 1_555
C7 C11 1_555 1_555
N4 C8 1_555 1_555
C9 C1 1_555 1_555
C10 N2 1_555 1_555
C11 C9 1_555 1_555
C12 C4 1_555 1_555
C13 C3 1_555 1_555
C14 C11 1_555 1_555
C15 C6 1_555 1_555
C16 C5 1_555 1_555
H1 C3 1_555 1_555
H2 C7 1_555 1_555
H3 C9 1_555 1_555
H4 C12 1_555 1_555
H5 C6 1_555 1_555
H6 C5 1_555 1_555
H7 C15 1_555 1_555
H8 C16 1_555 1_555
Er1A N4 1_555 1_555
Er1C Cl4 1_555 1_555
Er2A N1 1_555 1_555
Cl4C Er1 1_555 1_555
N1A Er2 1_555 1_555
N4A Er1 1_555 1_555
Er2 Cl3 1_555 1_555
C7 C15 1_555 1_555
C10 C13 1_555 1_555
C12 C16 1_555 1_555

#END
