
#######################################################################
#
#                 Cambridge Crystallographic Data Centre
#                                CCDC 
#
#######################################################################
#
# If this CIF has been generated from an entry in the Cambridge 
# Structural Database, then it will include bibliographic, chemical, 
# crystal, experimental, refinement or atomic coordinate data resulting 
# from the CCDC's data processing and validation procedures.
#
#######################################################################

data_PUKSEV
_symmetry_cell_setting           orthorhombic
_symmetry_space_group_name_H-M   'P b c n'
_symmetry_Int_Tables_number      60
_space_group_name_Hall           '-P 2n 2ab'
loop_
_symmetry_equiv_pos_site_id
_symmetry_equiv_pos_as_xyz
1 x,y,z
2 1/2-x,1/2-y,1/2+z
3 1/2+x,1/2-y,-z
4 -x,y,1/2-z
5 -x,-y,-z
6 1/2+x,1/2+y,1/2-z
7 1/2-x,1/2+y,z
8 x,-y,1/2+z
_cell_length_a                   7.4721(15)
_cell_length_b                   11.751(2)
_cell_length_c                   15.160(3)
_cell_angle_alpha                90
_cell_angle_beta                 90
_cell_angle_gamma                90
_cell_volume                     1331.12
loop_
_atom_site_label
_atom_site_type_symbol
_atom_site_fract_x
_atom_site_fract_y
_atom_site_fract_z
Zn1 Zn 0.5000 0.67317(3) 0.7500
O1 O 0.3141(5) 0.5414(2) 0.7217(2)
O2 O 0.2784(4) 0.6768(2) 0.64097(16)
N1 N 0.2246(4) 0.5831(3) 0.6601(2)
N2 N 0.3529(3) 0.77832(18) 0.83067(13)
N3 N 0.0730(3) 1.0156(2) 0.98803(15)
C1 C 0.1801(3) 0.7602(3) 0.84846(18)
H1 H 0.1254 0.6958 0.8251
C2 C 0.0797(4) 0.8323(2) 0.9010(2)
H2 H -0.0401 0.8170 0.9126
C3 C 0.1610(4) 0.9279(2) 0.93474(16)
C4 C 0.3377(4) 0.9481(2) 0.91631(17)
H3 H 0.3951 1.0125 0.9380
C5 C 0.4286(4) 0.8713(2) 0.86523(17)
H4 H 0.5493 0.8843 0.8541
N2D N -0.3529(3) 1.22168(18) 1.16933(13)
N3D N -0.0730(3) 0.9844(2) 1.01197(15)
C1D C -0.1801(3) 1.2398(3) 1.15154(18)
H1D H -0.1254 1.3042 1.1749
C2D C -0.0797(4) 1.1677(2) 1.0990(2)
H2D H 0.0401 1.1830 1.0874
C3D C -0.1610(4) 1.0721(2) 1.06526(16)
C4D C -0.3377(4) 1.0519(2) 1.08369(17)
H3D H -0.3951 0.9875 1.0620
C5D C -0.4286(4) 1.1287(2) 1.13477(17)
H4D H -0.5493 1.1157 1.1459
O1C O 0.6859(5) 0.5414(2) 0.7783(2)
O2C O 0.7216(4) 0.6768(2) 0.85903(16)
N1C N 0.7754(4) 0.5831(3) 0.8399(2)
Zn1D Zn -0.5000 1.32683(3) 1.2500
N2C N 0.6471(3) 0.77832(18) 0.66933(13)
loop_
_geom_bond_atom_site_label_1
_geom_bond_atom_site_label_2
_geom_bond_site_symmetry_1
_geom_bond_site_symmetry_2
Zn1 O1 1_555 1_555
O1 N1 1_555 1_555
O2 Zn1 1_555 1_555
N1 O2 1_555 1_555
N2 Zn1 1_555 1_555
N3 C3 1_555 1_555
C1 N2 1_555 1_555
H1 C1 1_555 1_555
C2 C1 1_555 1_555
H2 C2 1_555 1_555
C3 C2 1_555 1_555
C4 C3 1_555 1_555
H3 C4 1_555 1_555
C5 N2 1_555 1_555
H4 C5 1_555 1_555
N2D C1D 1_555 1_555
N3D N3 1_555 1_555
C1D H1D 1_555 1_555
C2D C1D 1_555 1_555
H2D C2D 1_555 1_555
C3D N3D 1_555 1_555
C4D C3D 1_555 1_555
H3D C4D 1_555 1_555
C5D N2D 1_555 1_555
H4D C5D 1_555 1_555
O1C Zn1 1_555 1_555
O2C Zn1 1_555 1_555
N1C O1C 1_555 1_555
Zn1D N2D 1_555 1_555
N2C Zn1 1_555 1_555
C4 C5 1_555 1_555
C2D C3D 1_555 1_555
C4D C5D 1_555 1_555
O2C N1C 1_555 1_555

#END
