
#######################################################################
#
#                 Cambridge Crystallographic Data Centre
#                                CCDC 
#
#######################################################################
#
# If this CIF has been generated from an entry in the Cambridge 
# Structural Database, then it will include bibliographic, chemical, 
# crystal, experimental, refinement or atomic coordinate data resulting 
# from the CCDC's data processing and validation procedures.
#
#######################################################################

data_PUKSOE
_symmetry_cell_setting           monoclinic
_symmetry_space_group_name_H-M   'P 21/c'
_symmetry_Int_Tables_number      14
_space_group_name_Hall           '-P 2ybc'
loop_
_symmetry_equiv_pos_site_id
_symmetry_equiv_pos_as_xyz
1 x,y,z
2 -x,1/2+y,1/2-z
3 -x,-y,-z
4 x,1/2-y,1/2+z
_cell_length_a                   19.1803(16)
_cell_length_b                   11.0937(9)
_cell_length_c                   11.2489(9)
_cell_angle_alpha                90
_cell_angle_beta                 106.662(6)
_cell_angle_gamma                90
_cell_volume                     2293.05
loop_
_atom_site_label
_atom_site_type_symbol
_atom_site_fract_x
_atom_site_fract_y
_atom_site_fract_z
Dy1 Dy 0.232618(15) 0.51859(2) 0.45130(3)
Dy2 Dy 0.261584(15) 0.32407(2) 0.80888(3)
Cl1 Cl 0.24859(10) 0.28509(14) 0.52033(15)
Cl2 Cl 0.25036(9) 0.42097(14) 0.24876(15)
Cl3 Cl 0.25199(10) 0.53934(14) 0.69342(14)
Cl4 Cl 0.39439(9) 0.28725(17) 0.81531(16)
Cl5 Cl 0.09386(10) 0.51407(16) 0.37616(19)
Cl6 Cl 0.25094(9) 0.73908(14) 0.41440(16)
N1 N 0.1356(3) 0.2858(6) 0.6839(6)
N2 N 0.6323(4) 0.5003(6) 1.4764(6)
C1 C 0.0079(4) 0.2202(6) 0.5513(7)
C2 C -0.0292(4) 0.1313(6) 0.5956(7)
C3 C 0.4652(4) 0.5192(6) 1.2512(7)
C4 C 0.5058(4) 0.5828(6) 1.3564(6)
C5 C 0.0789(4) 0.2571(6) 0.6237(6)
C6 C 0.5757(4) 0.5366(6) 1.4245(7)
C7 C -0.0242(4) 0.2790(7) 0.4388(7)
N3 N 0.3288(3) 0.4537(5) 0.9833(5)
N4 N -0.1730(3) -0.0529(5) 0.6121(6)
C8 C -0.0996(4) 0.1027(6) 0.5248(6)
C9 C -0.1398(4) 0.0146(6) 0.5730(7)
C10 C 0.3590(4) 0.5050(6) 1.0715(7)
C11 C 0.3745(4) 0.6782(6) 1.2152(7)
C12 C 0.4002(4) 0.5684(6) 1.1814(6)
C13 C 0.4806(4) 0.6907(7) 1.3905(7)
C14 C -0.1323(4) 0.1605(6) 0.4129(7)
C15 C 0.4145(4) 0.7372(7) 1.3204(7)
C16 C -0.0936(4) 0.2483(7) 0.3691(7)
H1 H 0.320(5) 0.705(9) 1.161(10)
H2 H 0.483(4) 0.449(6) 1.235(6)
H3 H -0.001(5) 0.347(8) 0.404(9)
H4 H -0.013(4) 0.095(8) 0.672(8)
H5 H -0.181(4) 0.145(6) 0.369(6)
H6 H -0.117(6) 0.280(11) 0.296(11)
H7 H 0.505(4) 0.725(7) 1.455(8)
H8 H 0.407(5) 0.806(9) 1.347(9)
Dy1B Dy 0.767382(15) 0.48141(2) 1.54870(3)
Dy2B Dy 0.738416(15) 0.67593(2) 1.19112(3)
Dy2A Dy -0.261584(15) -0.17593(2) 0.69112(3)
Dy2A_2 Dy 0.738416(15) 0.82407(2) 1.69112(3)
Dy2C Dy 0.261584(15) 0.17593(2) 0.30888(3)
Dy2C_2 Dy 1.261584(15) 1.17593(2) 1.30888(3)
Cl1B Cl 0.75141(10) 0.71491(14) 1.47967(15)
Cl1A Cl 0.75141(10) 0.78509(14) 0.97967(15)
Cl1C Cl 0.24859(10) 0.21491(14) 1.02033(15)
Cl2B Cl 0.74964(9) 0.57903(14) 1.75124(15)
Cl2A Cl 0.74964(9) 0.92097(14) 1.25124(15)
Cl2C Cl 0.25036(9) 0.07903(14) 0.74876(15)
Cl3B Cl 0.74801(10) 0.46066(14) 1.30658(14)
Cl4B Cl 0.60561(9) 0.71275(17) 1.18469(16)
Cl5B Cl 0.90614(10) 0.48593(16) 1.62384(19)
Cl6B Cl 0.74906(9) 0.26092(14) 1.58560(16)
N1B N 0.8644(3) 0.7142(6) 1.3161(6)
N2B N 0.3677(4) 0.4997(6) 0.5236(6)
C1B C 0.9921(4) 0.7798(6) 1.4487(7)
C2B C 1.0292(4) 0.8687(6) 1.4044(7)
C3B C 0.5348(4) 0.4808(6) 0.7488(7)
C4B C 0.4942(4) 0.4172(6) 0.6436(6)
C5B C 0.9211(4) 0.7429(6) 1.3763(6)
C6B C 0.4243(4) 0.4634(6) 0.5755(7)
C7B C 1.0242(4) 0.7210(7) 1.5612(7)
N3B N 0.6712(3) 0.5463(5) 1.0167(5)
N4B N 1.1730(3) 1.0529(5) 1.3879(6)
N4A N 0.1730(3) 0.4471(5) 0.8879(6)
N4C N 0.8270(3) 0.5529(5) 1.1121(6)
C8B C 1.0996(4) 0.8973(6) 1.4752(6)
C9B C 1.1398(4) 0.9854(6) 1.4270(7)
C10B C 0.6410(4) 0.4950(6) 0.9285(7)
C11B C 0.6255(4) 0.3218(6) 0.7848(7)
C12B C 0.5998(4) 0.4316(6) 0.8186(6)
C13B C 0.5194(4) 0.3093(7) 0.6095(7)
C14B C 1.1323(4) 0.8395(6) 1.5871(7)
C15B C 0.5855(4) 0.2628(7) 0.6796(7)
C16B C 1.0936(4) 0.7517(7) 1.6309(7)
H1B H 0.680(5) 0.295(9) 0.839(10)
H2B H 0.517(4) 0.551(6) 0.765(6)
H3B H 1.001(5) 0.653(8) 1.596(9)
H4B H 1.013(4) 0.905(8) 1.328(8)
H5B H 1.181(4) 0.855(6) 1.631(6)
H6B H 1.117(6) 0.720(11) 1.704(11)
H7B H 0.495(4) 0.275(7) 0.545(8)
H8B H 0.593(5) 0.194(9) 0.653(9)
loop_
_geom_bond_atom_site_label_1
_geom_bond_atom_site_label_2
_geom_bond_site_symmetry_1
_geom_bond_site_symmetry_2
Dy1 Cl1 1_555 1_555
Dy2 Cl3 1_555 1_555
Cl1 Dy2C 1_555 1_555
Cl2 Dy1 1_555 1_555
Cl3 Dy1 1_555 1_555
Cl4 Dy2 1_555 1_555
Cl5 Dy1 1_555 1_555
Cl6 Dy1 1_555 1_555
N1 Dy2 1_555 1_555
N2 C6 1_555 1_555
C1 C2 1_555 1_555
C2 C8 1_555 1_555
C3 C4 1_555 1_555
C4 C6 1_555 1_555
C5 N1 1_555 1_555
C7 C1 1_555 1_555
N3 Dy2 1_555 1_555
N4 C9 1_555 1_555
C8 C9 1_555 1_555
C10 N3 1_555 1_555
C11 C12 1_555 1_555
C12 C3 1_555 1_555
C13 C4 1_555 1_555
C14 C8 1_555 1_555
C15 C11 1_555 1_555
C16 C7 1_555 1_555
H1 C11 1_555 1_555
H2 C3 1_555 1_555
H3 C7 1_555 1_555
H4 C2 1_555 1_555
H5 C14 1_555 1_555
H6 C16 1_555 1_555
H7 C13 1_555 1_555
H8 C15 1_555 1_555
Dy1B N2 1_555 1_555
Dy2B Cl1A 1_555 1_555
Dy2A N4 1_555 1_555
Dy2A_2 Cl1B 1_555 1_555
Dy2C Cl2 1_555 1_555
Dy2C_2 N4B 1_555 1_555
Cl1B Dy1B 1_555 1_555
Cl1C Dy2 1_555 1_555
Cl2B Dy1B 1_555 1_555
Cl2A Dy2B 1_555 1_555
Cl2C Dy2 1_555 1_555
Cl3B Dy1B 1_555 1_555
Cl4B Dy2B 1_555 1_555
Cl5B Dy1B 1_555 1_555
Cl6B Dy1B 1_555 1_555
N1B Dy2B 1_555 1_555
N2B Dy1 1_555 1_555
C1B C2B 1_555 1_555
C2B C8B 1_555 1_555
C3B C4B 1_555 1_555
C4B C6B 1_555 1_555
C5B N1B 1_555 1_555
C6B N2B 1_555 1_555
C7B C1B 1_555 1_555
N3B Dy2B 1_555 1_555
N4B C9B 1_555 1_555
N4A Dy2 1_555 1_555
N4C Dy2B 1_555 1_555
C8B C9B 1_555 1_555
C10B N3B 1_555 1_555
C11B C12B 1_555 1_555
C12B C3B 1_555 1_555
C13B C4B 1_555 1_555
C14B C8B 1_555 1_555
C15B C11B 1_555 1_555
C16B C7B 1_555 1_555
H1B C11B 1_555 1_555
H2B C3B 1_555 1_555
H3B C7B 1_555 1_555
H4B C2B 1_555 1_555
H5B C14B 1_555 1_555
H6B C16B 1_555 1_555
H7B C13B 1_555 1_555
H8B C15B 1_555 1_555
C1 C5 1_555 1_555
C10 C12 1_555 1_555
C13 C15 1_555 1_555
C14 C16 1_555 1_555
Dy2B Cl3B 1_555 1_555
Dy2A_2 Cl2B 1_555 1_555
C1B C5B 1_555 1_555
C10B C12B 1_555 1_555
C13B C15B 1_555 1_555
C14B C16B 1_555 1_555

#END
