
#######################################################################
#
#                 Cambridge Crystallographic Data Centre
#                                CCDC 
#
#######################################################################
#
# If this CIF has been generated from an entry in the Cambridge 
# Structural Database, then it will include bibliographic, chemical, 
# crystal, experimental, refinement or atomic coordinate data resulting 
# from the CCDC's data processing and validation procedures.
#
#######################################################################

data_PUKTEV
_symmetry_cell_setting           monoclinic
_symmetry_space_group_name_H-M   'P 21/c'
_symmetry_Int_Tables_number      14
_space_group_name_Hall           '-P 2ybc'
loop_
_symmetry_equiv_pos_site_id
_symmetry_equiv_pos_as_xyz
1 x,y,z
2 -x,1/2+y,1/2-z
3 -x,-y,-z
4 x,1/2-y,1/2+z
_cell_length_a                   19.1167(19)
_cell_length_b                   10.8656(8)
_cell_length_c                   11.2700(10)
_cell_angle_alpha                90
_cell_angle_beta                 107.247(11)
_cell_angle_gamma                90
_cell_volume                     2235.68
loop_
_atom_site_label
_atom_site_type_symbol
_atom_site_fract_x
_atom_site_fract_y
_atom_site_fract_z
Yb1 Yb 0.260991(11) 0.172726(19) 0.44986(2)
Yb2 Yb 0.234052(12) 0.514854(19) 0.28374(2)
Cl1 Cl 0.24673(8) 0.28127(11) 0.23191(14)
Cl2 Cl 0.25190(7) 0.73611(12) 0.33897(14)
Cl3 Cl 0.09703(7) 0.51453(13) 0.22173(16)
Cl4 Cl 0.25118(7) 0.53804(12) 0.06299(13)
Cl5 Cl 0.25153(8) 0.41910(11) 0.50100(13)
Cl6 Cl 0.39164(7) 0.20848(13) 0.57762(14)
N1 N 0.3277(3) 0.0427(5) 0.3463(5)
N2 N 0.1380(3) 0.2107(5) 0.4545(5)
N3 N -0.1746(3) 0.5470(5) 0.2096(5)
N4 N 0.6342(3) -0.0042(5) 0.1580(6)
C1 C 0.5054(3) -0.0850(5) 0.1489(6)
C2 C -0.0994(3) 0.3946(5) 0.3727(6)
C3 C 0.3735(3) -0.1820(6) 0.1585(6)
C4 C -0.1318(3) 0.3369(5) 0.4535(6)
C5 C 0.0096(3) 0.2770(5) 0.4582(6)
C6 C 0.5768(3) -0.0382(5) 0.1522(6)
C7 C 0.3995(3) -0.0718(5) 0.2191(6)
C8 C 0.4659(3) -0.0216(5) 0.2144(6)
C9 C 0.3587(3) -0.0085(5) 0.2889(6)
C10 C -0.0282(3) 0.3663(5) 0.3744(6)
C11 C 0.0809(3) 0.2406(5) 0.4562(6)
C12 C -0.1405(3) 0.4810(5) 0.2841(6)
C13 C 0.4807(3) -0.1957(6) 0.0882(6)
C14 C -0.0230(3) 0.2189(6) 0.5387(7)
C15 C 0.4135(3) -0.2428(5) 0.0915(6)
C16 C -0.0933(4) 0.2503(6) 0.5372(7)
H1 H 0.396(4) -0.323(6) 0.047(7)
H2 H 0.001(4) 0.156(7) 0.593(7)
H3 H 0.483(3) 0.052(5) 0.253(6)
H4 H -0.174(4) 0.352(6) 0.452(7)
H5 H 0.507(4) -0.232(6) 0.039(7)
H6 H 0.330(5) -0.218(8) 0.167(9)
H7 H -0.113(6) 0.216(9) 0.590(10)
H8 H -0.009(4) 0.403(7) 0.318(8)
Yb1A Yb -0.260991(11) 0.672726(19) 0.05014(2)
Yb1C Yb 0.260991(11) 0.327274(19) -0.05014(2)
Yb2A Yb 0.765948(12) 0.014854(19) 0.21626(2)
Cl4C Cl 0.25118(7) -0.03804(12) 0.56299(13)
N3A N 0.1746(3) 0.0470(5) 0.2904(5)
N4A N 0.3658(3) 0.4958(5) 0.3420(6)
loop_
_geom_bond_atom_site_label_1
_geom_bond_atom_site_label_2
_geom_bond_site_symmetry_1
_geom_bond_site_symmetry_2
Yb1 Cl1 1_555 1_555
Yb2 Cl1 1_555 1_555
Cl2 Yb2 1_555 1_555
Cl3 Yb2 1_555 1_555
Cl4 Yb2 1_555 1_555
Cl5 Yb1 1_555 1_555
Cl6 Yb1 1_555 1_555
N1 Yb1 1_555 1_555
N2 Yb1 1_555 1_555
N3 C12 1_555 1_555
N4 C6 1_555 1_555
C1 C6 1_555 1_555
C2 C4 1_555 1_555
C3 C7 1_555 1_555
C4 C16 1_555 1_555
C5 C10 1_555 1_555
C7 C8 1_555 1_555
C8 C1 1_555 1_555
C9 N1 1_555 1_555
C10 C2 1_555 1_555
C11 N2 1_555 1_555
C12 C2 1_555 1_555
C13 C1 1_555 1_555
C14 C5 1_555 1_555
C15 C3 1_555 1_555
C16 C14 1_555 1_555
H1 C15 1_555 1_555
H2 C14 1_555 1_555
H3 C8 1_555 1_555
H4 C4 1_555 1_555
H5 C13 1_555 1_555
H6 C3 1_555 1_555
H7 C16 1_555 1_555
H8 C10 1_555 1_555
Yb1A N3 1_555 1_555
Yb1C Cl4 1_555 1_555
Yb2A N4 1_555 1_555
Cl4C Yb1 1_555 1_555
N3A Yb1 1_555 1_555
N4A Yb2 1_555 1_555
Yb2 Cl5 1_555 1_555
C5 C11 1_555 1_555
C7 C9 1_555 1_555
C13 C15 1_555 1_555

#END
