
#######################################################################
#
#                 Cambridge Crystallographic Data Centre
#                                CCDC 
#
#######################################################################
#
# If this CIF has been generated from an entry in the Cambridge 
# Structural Database, then it will include bibliographic, chemical, 
# crystal, experimental, refinement or atomic coordinate data resulting 
# from the CCDC's data processing and validation procedures.
#
#######################################################################

data_PUKTIZ
_symmetry_cell_setting           monoclinic
_symmetry_space_group_name_H-M   'P 21/c'
_symmetry_Int_Tables_number      14
_space_group_name_Hall           '-P 2ybc'
loop_
_symmetry_equiv_pos_site_id
_symmetry_equiv_pos_as_xyz
1 x,y,z
2 -x,1/2+y,1/2-z
3 -x,-y,-z
4 x,1/2-y,1/2+z
_cell_length_a                   19.224(4)
_cell_length_b                   11.054(2)
_cell_length_c                   11.277(2)
_cell_angle_alpha                90
_cell_angle_beta                 106.95(3)
_cell_angle_gamma                90
_cell_volume                     2292.29
loop_
_atom_site_label
_atom_site_type_symbol
_atom_site_fract_x
_atom_site_fract_y
_atom_site_fract_z
Y1 Y 0.238703(19) 0.17482(3) 0.68978(3)
Y2 Y 0.266929(19) 0.51777(3) 0.54875(3)
Cl1 Cl 0.25180(6) 0.28387(9) 0.48118(9)
Cl2 Cl 0.24875(6) 0.73878(9) 0.58561(10)
Cl3 Cl 0.24950(6) 0.42038(9) 0.75045(9)
Cl4 Cl 0.24842(6) 0.53878(9) 0.30795(9)
Cl5 Cl 0.40540(5) 0.51382(10) 0.62432(11)
Cl6 Cl 0.10635(5) 0.21120(10) 0.68465(10)
N1 N 0.3636(2) 0.2124(3) 0.8166(4)
N2 N 0.67347(19) 0.5501(3) 0.8875(3)
N3 N 0.17143(19) 0.0450(3) 0.5164(3)
N4 N -0.13257(19) -0.0021(3) 0.0243(4)
C1 C 0.6404(2) 0.4842(4) 0.9266(4)
C2 C 0.1411(2) -0.0061(4) 0.4290(4)
C3 C 0.1002(2) -0.0693(4) 0.3187(4)
C4 C -0.0055(2) -0.0827(4) 0.1439(4)
C5 C 0.5993(2) 0.3966(4) 0.9745(4)
C6 C 0.0344(2) -0.0197(4) 0.2486(4)
C7 C 0.4921(2) 0.2791(4) 0.9489(4)
C8 C 0.4203(2) 0.2419(4) 0.8759(4)
C9 C 0.6319(2) 0.3388(4) 1.0862(4)
C10 C 0.5285(2) 0.3683(4) 0.9038(4)
C11 C 0.1262(2) -0.1783(4) 0.2847(4)
C12 C -0.0762(2) -0.0379(4) 0.0758(4)
C13 C 0.0192(2) -0.1925(4) 0.1087(4)
C14 C 0.5239(2) 0.2202(4) 1.0614(4)
C15 C 0.5939(2) 0.2519(4) 1.1308(4)
C16 C 0.0857(2) -0.2388(4) 0.1794(4)
H1 H 0.685(3) 0.357(5) 1.140(5)
H2 H 0.497(3) 0.158(5) 1.088(5)
H3 H 0.173(3) -0.214(5) 0.337(5)
H4 H 0.508(3) 0.408(4) 0.825(5)
H5 H 0.620(3) 0.211(5) 1.211(5)
H6 H -0.010(3) -0.235(5) 0.031(5)
H7 H 0.013(3) 0.060(5) 0.272(5)
H8 H 0.100(3) -0.314(5) 0.150(5)
Y1A Y 0.761297(19) 0.67482(3) 0.81022(3)
Y1C Y 0.238703(19) 0.32518(3) 0.18978(3)
Y2A Y -0.266929(19) 0.01777(3) -0.04875(3)
Cl4C Cl 0.24842(6) -0.03878(9) 0.80795(9)
N2A N 0.32653(19) 0.0501(3) 0.6125(3)
N4A N 0.13257(19) 0.4979(3) 0.4757(4)
loop_
_geom_bond_atom_site_label_1
_geom_bond_atom_site_label_2
_geom_bond_site_symmetry_1
_geom_bond_site_symmetry_2
Y1 Cl1 1_555 1_555
Y2 Cl1 1_555 1_555
Cl2 Y2 1_555 1_555
Cl3 Y1 1_555 1_555
Cl4 Y2 1_555 1_555
Cl5 Y2 1_555 1_555
Cl6 Y1 1_555 1_555
N1 Y1 1_555 1_555
N2 C1 1_555 1_555
N3 Y1 1_555 1_555
N4 C12 1_555 1_555
C1 C5 1_555 1_555
C2 N3 1_555 1_555
C3 C2 1_555 1_555
C4 C6 1_555 1_555
C5 C9 1_555 1_555
C6 C3 1_555 1_555
C7 C8 1_555 1_555
C8 N1 1_555 1_555
C9 C15 1_555 1_555
C10 C5 1_555 1_555
C11 C3 1_555 1_555
C12 C4 1_555 1_555
C13 C4 1_555 1_555
C14 C7 1_555 1_555
C15 C14 1_555 1_555
C16 C11 1_555 1_555
H1 C9 1_555 1_555
H2 C14 1_555 1_555
H3 C11 1_555 1_555
H4 C10 1_555 1_555
H5 C15 1_555 1_555
H6 C13 1_555 1_555
H7 C6 1_555 1_555
H8 C16 1_555 1_555
Y1A N2 1_555 1_555
Y1C Cl4 1_555 1_555
Y2A N4 1_555 1_555
Cl4C Y1 1_555 1_555
N2A Y1 1_555 1_555
N4A Y2 1_555 1_555
Y2 Cl3 1_555 1_555
C7 C10 1_555 1_555
C13 C16 1_555 1_555

#END
