
#######################################################################
#
#                 Cambridge Crystallographic Data Centre
#                                CCDC 
#
#######################################################################
#
# If this CIF has been generated from an entry in the Cambridge 
# Structural Database, then it will include bibliographic, chemical, 
# crystal, experimental, refinement or atomic coordinate data resulting 
# from the CCDC's data processing and validation procedures.
#
#######################################################################

data_PUKVEW
_symmetry_cell_setting           monoclinic
_symmetry_space_group_name_H-M   'C 2'
_symmetry_Int_Tables_number      5
_space_group_name_Hall           'C 2y'
loop_
_symmetry_equiv_pos_site_id
_symmetry_equiv_pos_as_xyz
1 x,y,z
2 -x,y,-z
3 1/2+x,1/2+y,z
4 1/2-x,1/2+y,-z
_cell_length_a                   15.870(4)
_cell_length_b                   7.189(3)
_cell_length_c                   8.906(3)
_cell_angle_alpha                90
_cell_angle_beta                 115.85(2)
_cell_angle_gamma                90
_cell_volume                     914.41
loop_
_atom_site_label
_atom_site_type_symbol
_atom_site_fract_x
_atom_site_fract_y
_atom_site_fract_z
Cd1 Cd 0.2472(1) 0.5132(1) -0.0005(2)
Cl1 Cl 0.2780(1) 0.2675(10) 0.2296(2)
Cl2 Cl 0.3002(2) 0.2688(10) -0.1566(3)
O1 O 0.0928(6) 0.435(2) -0.145(2)
O2 O 0.0969(6) 0.119(2) -0.122(2)
N1 N -0.0909(6) 0.081(1) -0.274(1)
C1 C 0.0572(5) 0.275(3) -0.160(1)
C2 C -0.0493(5) 0.273(3) -0.239(1)
C3 C -0.1035(9) 0.325(2) -0.423(2)
C4 C -0.1522(9) 0.129(3) -0.451(2)
Cl1C Cl 0.2220(1) 0.7675(10) -0.2296(2)
Cl2C Cl 0.1998(2) 0.7688(10) 0.1566(3)
Cd1C Cd 0.2528(1) 0.0132(1) 0.0005(2)
O2C O 0.4031(6) 0.619(2) 0.122(2)
O3 O 0.5063(7) 0.255(3) 0.326(2)
loop_
_geom_bond_atom_site_label_1
_geom_bond_atom_site_label_2
_geom_bond_site_symmetry_1
_geom_bond_site_symmetry_2
Cd1 Cl1 1_555 1_555
Cl1 Cd1C 1_555 1_555
Cl2 Cd1 1_555 1_555
O1 Cd1 1_555 1_555
O2 C1 1_555 1_555
N1 C2 1_555 1_555
C1 O1 1_555 1_555
C2 C1 1_555 1_555
C3 C2 1_555 1_555
C4 N1 1_555 1_555
Cl1C Cd1 1_555 1_555
Cl2C Cd1 1_555 1_555
Cd1C Cl2 1_555 1_555
O2C Cd1 1_555 1_555
O2 Cd1C 1_555 1_555
C3 C4 1_555 1_555

#END
