
#######################################################################
#
#                 Cambridge Crystallographic Data Centre
#                                CCDC 
#
#######################################################################
#
# If this CIF has been generated from an entry in the Cambridge 
# Structural Database, then it will include bibliographic, chemical, 
# crystal, experimental, refinement or atomic coordinate data resulting 
# from the CCDC's data processing and validation procedures.
#
#######################################################################

data_PULDOR
_symmetry_cell_setting           monoclinic
_symmetry_space_group_name_H-M   'P 21/n'
_symmetry_Int_Tables_number      14
_space_group_name_Hall           '-P 2yn'
loop_
_symmetry_equiv_pos_site_id
_symmetry_equiv_pos_as_xyz
1 x,y,z
2 1/2-x,1/2+y,1/2-z
3 -x,-y,-z
4 1/2+x,1/2-y,1/2+z
_cell_length_a                   9.2276(8)
_cell_length_b                   18.9344(15)
_cell_length_c                   12.0368(10)
_cell_angle_alpha                90
_cell_angle_beta                 104.7420(10)
_cell_angle_gamma                90
_cell_volume                     2033.83
loop_
_atom_site_label
_atom_site_type_symbol
_atom_site_fract_x
_atom_site_fract_y
_atom_site_fract_z
Mn1 Mn 0.57482(4) 0.509207(17) 0.68803(3)
N1 N 0.3856(2) 0.50727(11) 0.78033(18)
N2 N 0.6262(2) 0.42653(10) 0.82916(16)
N3 N 0.7849(2) 0.44779(11) 0.67876(18)
O1 O 0.44539(18) 0.43658(8) 0.55626(14)
O2 O 0.53147(19) 0.40270(9) 0.40749(14)
O3 O 0.7865(2) 0.09074(9) 0.69495(16)
O4 O 0.7021(2) 0.11863(11) 0.84441(17)
O5 O 0.4993(3) 0.18562(12) 0.88652(18)
H1 H 0.5787 0.1690 0.8799
O6 O 0.3208(3) 0.25318(14) 0.7869(2)
C1 C 0.5048(2) 0.39226(11) 0.50376(18)
C2 C 0.5493(2) 0.32207(11) 0.56005(18)
C3 C 0.6569(3) 0.28006(13) 0.5305(2)
H2 H 0.6977 0.2929 0.4703
C4 C 0.7025(3) 0.21884(13) 0.5918(2)
H3 H 0.7753 0.1911 0.5719
C5 C 0.6445(3) 0.19676(12) 0.6819(2)
C6 C 0.5300(3) 0.23801(12) 0.70861(19)
C7 C 0.4859(2) 0.29978(12) 0.64641(19)
H4 H 0.4108 0.3271 0.6637
C8 C 0.4414(3) 0.22520(14) 0.7981(2)
C9 C 0.7148(3) 0.13058(13) 0.7444(2)
C10 C 0.2623(3) 0.54676(15) 0.7475(2)
H5 H 0.2544 0.5779 0.6865
C11 C 0.1459(3) 0.54328(16) 0.8001(3)
H6 H 0.0604 0.5707 0.7740
C12 C 0.1587(4) 0.49857(17) 0.8918(3)
H7 H 0.0827 0.4960 0.9297
C13 C 0.2852(3) 0.45761(15) 0.9271(2)
H8 H 0.2960 0.4272 0.9894
C14 C 0.3965(3) 0.46218(13) 0.8686(2)
C15 C 0.5331(3) 0.41785(13) 0.89729(19)
C16 C 0.5638(3) 0.36898(15) 0.9863(2)
H9 H 0.4991 0.3636 1.0336
C17 C 0.6911(4) 0.32878(16) 1.0032(3)
H10 H 0.7136 0.2961 1.0628
C18 C 0.7857(3) 0.33679(15) 0.9321(3)
H11 H 0.8719 0.3095 0.9425
C19 C 0.7496(3) 0.38664(12) 0.8443(2)
C20 C 0.8370(3) 0.39725(13) 0.7578(2)
C21 C 0.9607(3) 0.35656(16) 0.7540(3)
H12 H 0.9967 0.3226 0.8100
C22 C 1.0298(4) 0.36693(19) 0.6667(3)
H13 H 1.1124 0.3398 0.6628
C23 C 0.9754(4) 0.41777(18) 0.5851(3)
H14 H 1.0199 0.4254 0.5250
C24 C 0.8531(3) 0.45729(14) 0.5945(2)
H15 H 0.8167 0.4919 0.5397
Mn1A Mn 0.92518(4) 0.009207(17) 0.81197(3)
Mn1B Mn 0.42518(4) 0.490793(17) 0.31197(3)
O2B O 0.46853(19) 0.59730(9) 0.59251(14)
O3A O 0.7135(2) 0.59074(9) 0.80505(16)
O7 O 0.0552(19) 0.2003(10) 0.7370(13)
H16 H -0.0116 0.2055 0.7736
H17 H 0.0644 0.1608 0.7057
loop_
_geom_bond_atom_site_label_1
_geom_bond_atom_site_label_2
_geom_bond_site_symmetry_1
_geom_bond_site_symmetry_2
Mn1 N1 1_555 1_555
N1 C10 1_555 1_555
N2 Mn1 1_555 1_555
N3 Mn1 1_555 1_555
O1 Mn1 1_555 1_555
O2 C1 1_555 1_555
O3 C9 1_555 1_555
O4 C9 1_555 1_555
O5 H1 1_555 1_555
O6 C8 1_555 1_555
C1 O1 1_555 1_555
C2 C1 1_555 1_555
C3 C2 1_555 1_555
H2 C3 1_555 1_555
C4 C3 1_555 1_555
H3 C4 1_555 1_555
C5 C4 1_555 1_555
C6 C5 1_555 1_555
C7 C2 1_555 1_555
H4 C7 1_555 1_555
C8 O5 1_555 1_555
C9 C5 1_555 1_555
C10 H5 1_555 1_555
C11 C10 1_555 1_555
H6 C11 1_555 1_555
C12 C11 1_555 1_555
H7 C12 1_555 1_555
C13 C12 1_555 1_555
H8 C13 1_555 1_555
C14 N1 1_555 1_555
C15 N2 1_555 1_555
C16 C15 1_555 1_555
H9 C16 1_555 1_555
C17 C16 1_555 1_555
H10 C17 1_555 1_555
C18 C17 1_555 1_555
H11 C18 1_555 1_555
C19 N2 1_555 1_555
C20 N3 1_555 1_555
C21 C20 1_555 1_555
H12 C21 1_555 1_555
C22 C21 1_555 1_555
H13 C22 1_555 1_555
C23 C22 1_555 1_555
H14 C23 1_555 1_555
C24 N3 1_555 1_555
H15 C24 1_555 1_555
O7 H16 1_555 1_555
H17 O7 1_555 1_555
Mn1A O3 1_555 1_555
Mn1B O2 1_555 1_555
O2B Mn1 1_555 1_555
O3A Mn1 1_555 1_555
C6 C7 1_555 1_555
C6 C8 1_555 1_555
C13 C14 1_555 1_555
C14 C15 1_555 1_555
C18 C19 1_555 1_555
C19 C20 1_555 1_555
C23 C24 1_555 1_555

#END
