
#######################################################################
#
#                 Cambridge Crystallographic Data Centre
#                                CCDC 
#
#######################################################################
#
# If this CIF has been generated from an entry in the Cambridge 
# Structural Database, then it will include bibliographic, chemical, 
# crystal, experimental, refinement or atomic coordinate data resulting 
# from the CCDC's data processing and validation procedures.
#
#######################################################################

data_PULDUX
_symmetry_cell_setting           monoclinic
_symmetry_space_group_name_H-M   'P 21/n'
_symmetry_Int_Tables_number      14
_space_group_name_Hall           '-P 2yn'
loop_
_symmetry_equiv_pos_site_id
_symmetry_equiv_pos_as_xyz
1 x,y,z
2 1/2-x,1/2+y,1/2-z
3 -x,-y,-z
4 1/2+x,1/2-y,1/2+z
_cell_length_a                   9.2154(5)
_cell_length_b                   19.1965(10)
_cell_length_c                   12.1439(7)
_cell_angle_alpha                90
_cell_angle_beta                 104.3370(10)
_cell_angle_gamma                90
_cell_volume                     2081.39
loop_
_atom_site_label
_atom_site_type_symbol
_atom_site_fract_x
_atom_site_fract_y
_atom_site_fract_z
Cd1 Cd 0.07993(2) 1.009581(10) 0.684814(16)
N1 N -0.1148(3) 1.00323(13) 0.7826(2)
N2 N 0.1305(3) 0.92388(12) 0.8275(2)
N3 N 0.2910(3) 0.94513(13) 0.6751(2)
O1 O 0.0375(2) 0.89848(11) 0.40406(18)
O2 O -0.0649(2) 0.93382(10) 0.54208(17)
O3 O -0.1755(3) 0.75807(18) 0.7868(3)
O4 O -0.0065(4) 0.68527(16) 0.8779(2)
H1 H 0.0722 0.6683 0.8706
O5 O 0.1951(3) 0.61862(14) 0.8363(2)
O6 O 0.2795(3) 0.59321(12) 0.6875(2)
C1 C 0.0037(3) 0.88992(15) 0.4977(2)
C2 C 0.0506(3) 0.82235(14) 0.5577(2)
C3 C -0.0134(3) 0.80081(14) 0.6437(2)
H2 H -0.0882 0.8281 0.6608
C4 C 0.0293(3) 0.74005(15) 0.7055(2)
C5 C 0.1434(3) 0.69860(15) 0.6792(2)
C6 C 0.2040(3) 0.72071(16) 0.5910(3)
H3 H 0.2779 0.6935 0.5721
C7 C 0.1600(3) 0.78080(16) 0.5304(3)
H4 H 0.2031 0.7935 0.4717
C8 C -0.0597(4) 0.72743(19) 0.7937(3)
C9 C 0.2099(4) 0.63201(16) 0.7380(3)
C10 C -0.2389(4) 1.04184(19) 0.7538(3)
H5 H -0.2492 1.0729 0.6935
C11 C -0.3525(4) 1.0379(2) 0.8090(4)
H6 H -0.4388 1.0646 0.7854
C12 C -0.3346(5) 0.9937(2) 0.8993(4)
H7 H -0.4085 0.9906 0.9392
C13 C -0.2074(4) 0.9538(2) 0.9314(3)
H8 H -0.1941 0.9239 0.9933
C14 C -0.0988(3) 0.95882(16) 0.8701(2)
C15 C 0.0381(3) 0.91546(16) 0.8957(2)
C16 C 0.0708(4) 0.8675(2) 0.9845(3)
H9 H 0.0077 0.8624 1.0331
C17 C 0.1982(5) 0.8279(2) 0.9988(3)
H10 H 0.2216 0.7954 1.0573
C18 C 0.2912(4) 0.8360(2) 0.9273(3)
H11 H 0.3775 0.8093 0.9368
C19 C 0.2542(3) 0.88478(15) 0.8405(3)
C20 C 0.3422(3) 0.89582(16) 0.7543(3)
C21 C 0.4657(4) 0.8556(2) 0.7510(4)
H12 H 0.5014 0.8222 0.8065
C22 C 0.5350(5) 0.8662(2) 0.6636(4)
H13 H 0.6177 0.8394 0.6596
C23 C 0.4823(5) 0.9157(2) 0.5833(4)
H14 H 0.5279 0.9231 0.5240
C24 C 0.3598(4) 0.95451(19) 0.5921(3)
H15 H 0.3239 0.9886 0.5377
Cd1A Cd 0.42007(2) 0.509581(10) 0.815186(16)
Cd1B Cd -0.07993(2) 0.990419(10) 0.315186(16)
O1B O -0.0375(2) 1.10152(11) 0.59594(18)
O6A O 0.2205(3) 1.09321(12) 0.8125(2)
O7 O 0.5554(8) 0.6979(4) 0.7289(6)
H16 H 0.5262 0.6632 0.6854
H17 H 0.6395 0.6965 0.7774
loop_
_geom_bond_atom_site_label_1
_geom_bond_atom_site_label_2
_geom_bond_site_symmetry_1
_geom_bond_site_symmetry_2
Cd1 N1 1_555 1_555
N1 C10 1_555 1_555
N2 Cd1 1_555 1_555
N3 Cd1 1_555 1_555
O1 C1 1_555 1_555
O2 Cd1 1_555 1_555
O3 C8 1_555 1_555
O4 H1 1_555 1_555
O5 C9 1_555 1_555
O6 C9 1_555 1_555
C1 O2 1_555 1_555
C2 C1 1_555 1_555
C3 C2 1_555 1_555
H2 C3 1_555 1_555
C4 C3 1_555 1_555
C5 C4 1_555 1_555
C6 C5 1_555 1_555
H3 C6 1_555 1_555
C7 C2 1_555 1_555
H4 C7 1_555 1_555
C8 O4 1_555 1_555
C9 C5 1_555 1_555
C10 H5 1_555 1_555
C11 C10 1_555 1_555
H6 C11 1_555 1_555
C12 C11 1_555 1_555
H7 C12 1_555 1_555
C13 C12 1_555 1_555
H8 C13 1_555 1_555
C14 N1 1_555 1_555
C15 N2 1_555 1_555
C16 C15 1_555 1_555
H9 C16 1_555 1_555
C17 C16 1_555 1_555
H10 C17 1_555 1_555
C18 C17 1_555 1_555
H11 C18 1_555 1_555
C19 N2 1_555 1_555
C20 N3 1_555 1_555
C21 C20 1_555 1_555
H12 C21 1_555 1_555
C22 C21 1_555 1_555
H13 C22 1_555 1_555
C23 C22 1_555 1_555
H14 C23 1_555 1_555
C24 N3 1_555 1_555
H15 C24 1_555 1_555
O7 H16 1_555 1_555
H17 O7 1_555 1_555
Cd1A O6 1_555 1_555
Cd1B O1 1_555 1_555
O1B Cd1 1_555 1_555
O6A Cd1 1_555 1_555
C4 C8 1_555 1_555
C6 C7 1_555 1_555
C13 C14 1_555 1_555
C14 C15 1_555 1_555
C18 C19 1_555 1_555
C19 C20 1_555 1_555
C23 C24 1_555 1_555

#END
