
#######################################################################
#
#                 Cambridge Crystallographic Data Centre
#                                CCDC 
#
#######################################################################
#
# If this CIF has been generated from an entry in the Cambridge 
# Structural Database, then it will include bibliographic, chemical, 
# crystal, experimental, refinement or atomic coordinate data resulting 
# from the CCDC's data processing and validation procedures.
#
#######################################################################

data_PULFIM
_symmetry_cell_setting           triclinic
_symmetry_space_group_name_H-M   'P -1'
_symmetry_Int_Tables_number      2
_space_group_name_Hall           '-P 1'
loop_
_symmetry_equiv_pos_site_id
_symmetry_equiv_pos_as_xyz
1 x,y,z
2 -x,-y,-z
_cell_length_a                   6.052(3)
_cell_length_b                   11.181(5)
_cell_length_c                   14.074(6)
_cell_angle_alpha                75.53(4)
_cell_angle_beta                 86.78(4)
_cell_angle_gamma                83.52(4)
_cell_volume                     915.863
loop_
_atom_site_label
_atom_site_type_symbol
_atom_site_fract_x
_atom_site_fract_y
_atom_site_fract_z
Na1 Na 0.2470(2) 0.43691(12) 0.54652(9)
Na2 Na 0.4343(2) 0.82145(12) 0.39787(9)
Na3 Na 0.2302(2) 0.09009(12) -0.02772(9)
O1 O 0.3665(4) 0.6369(2) 0.54163(16)
H1 H 0.4724 0.6326 0.5806
H2 H 0.2477 0.6632 0.5693
O2 O 0.1967(4) 0.2321(2) 0.53629(16)
H3 H 0.1244 0.2437 0.4836
H4 H 0.1041 0.2127 0.5842
O3 O 0.4096(4) 0.3219(2) 0.69302(16)
H5 H 0.3032 0.2937 0.7316
H6 H 0.4878 0.3565 0.7250
O4 O 0.2770(8) 0.9513(3) 0.4934(3)
H7 H 0.1896 0.9075 0.5343
H8 H 0.2854 1.0171 0.5136
O5 O 0.0880(4) 0.8694(2) 0.31374(17)
H9 H 0.0642 0.8445 0.2629
H10 H 0.0892 0.9481 0.2953
O6 O 0.5668(5) 0.9933(3) 0.2830(2)
H11 H 0.6870 0.9642 0.2585
H12 H 0.5767 1.0711 0.2761
O7 O 0.5891(4) 0.0711(2) -0.10521(15)
H13 H 0.6514 0.1354 -0.1353
H14 H 0.5942 0.0234 -0.1442
O8 O -0.1173(4) 0.1013(2) 0.06551(17)
H15 H -0.0720 0.1044 0.1210
H16 H -0.2095 0.1657 0.0460
C1 C 0.1483(5) 0.3532(2) 0.11377(19)
H17 H 0.0690 0.3437 0.0577
C2 C 0.3556(5) 0.2650(3) 0.1257(2)
O9 O 0.4192(4) 0.2082(2) 0.06445(17)
O10 O 0.4738(4) 0.2554(2) 0.20295(17)
H18 H 0.4119 0.3002 0.2367
C3 C -0.0170(4) 0.3401(2) 0.20403(17)
H19 H -0.1639 0.3478 0.1758
C4 C -0.0017(5) 0.2146(3) 0.2780(2)
O11 O 0.0353(5) 0.1210(2) 0.24387(17)
O12 O -0.0351(4) 0.2117(2) 0.36687(15)
C5 C -0.0188(5) 0.4564(2) 0.24302(18)
H20 H -0.1680 0.4765 0.2692
C6 C 0.1517(5) 0.4487(2) 0.32084(18)
O13 O 0.3427(4) 0.3895(2) 0.31352(16)
O14 O 0.1012(4) 0.5005(2) 0.38757(15)
C7 C 0.0266(5) 0.5562(2) 0.14703(18)
H21 H -0.1084 0.5740 0.1085
C8 C 0.0863(5) 0.6788(2) 0.16325(19)
O15 O 0.2871(4) 0.6923(2) 0.16500(18)
O16 O -0.0710(4) 0.75820(19) 0.17293(17)
C9 C 0.2058(5) 0.4892(3) 0.0926(2)
H22 H 0.3520 0.4921 0.1163
H23 H 0.2043 0.5273 0.0226
Na1A Na -0.2470(2) 0.56309(12) 0.45348(9)
Na1A_2 Na 0.7530(2) 0.56309(12) 0.45348(9)
Na2A Na 0.5657(2) 0.17855(12) 0.60213(9)
Na3A Na 0.7698(2) -0.09009(12) 0.02772(9)
Na3A_2 Na -0.2302(2) -0.09009(12) 0.02772(9)
Na3A_3 Na -0.2302(2) 0.90991(12) 0.02772(9)
O1A O 0.6335(4) 0.3631(2) 0.45837(16)
H1A H 0.5276 0.3674 0.4194
H2A H 0.7523 0.3368 0.4307
O2A O 0.8033(4) 0.7679(2) 0.46371(16)
H3A H 0.8756 0.7563 0.5164
H4A H 0.8959 0.7873 0.4158
O3A O 0.5904(4) 0.6781(2) 0.30698(16)
H5A H 0.6968 0.7063 0.2684
H6A H 0.5122 0.6435 0.2750
O7A O 0.4109(4) -0.0711(2) 0.10521(15)
H13A H 0.3486 -0.1354 0.1353
H14A H 0.4058 -0.0234 0.1442
O8A O 0.1173(4) -0.1013(2) -0.06551(17)
H15A H 0.0720 -0.1044 -0.1210
H16A H 0.2095 -0.1657 -0.0460
O14A O -0.1012(4) 0.4995(2) 0.61243(15)
O16A O 0.0710(4) 0.24180(19) -0.17293(17)
loop_
_geom_bond_atom_site_label_1
_geom_bond_atom_site_label_2
_geom_bond_site_symmetry_1
_geom_bond_site_symmetry_2
Na1 O1 1_555 1_555
Na2 O1 1_555 1_555
Na3 O7 1_555 1_555
O1 H1 1_555 1_555
H2 O1 1_555 1_555
O2 Na1 1_555 1_555
H3 O2 1_555 1_555
H4 O2 1_555 1_555
O3 Na1 1_555 1_555
H5 O3 1_555 1_555
H6 O3 1_555 1_555
O4 Na2 1_555 1_555
H7 O4 1_555 1_555
H8 O4 1_555 1_555
O5 Na2 1_555 1_555
H9 O5 1_555 1_555
H10 O5 1_555 1_555
O6 Na2 1_555 1_555
H11 O6 1_555 1_555
H12 O6 1_555 1_555
O7 H13 1_555 1_555
H14 O7 1_555 1_555
O8 Na3 1_555 1_555
H15 O8 1_555 1_555
H16 O8 1_555 1_555
C1 H17 1_555 1_555
C2 C1 1_555 1_555
O9 Na3 1_555 1_555
O10 C2 1_555 1_555
H18 O10 1_555 1_555
C3 C1 1_555 1_555
H19 C3 1_555 1_555
C4 C3 1_555 1_555
O11 C4 1_555 1_555
O12 C4 1_555 1_555
C5 C3 1_555 1_555
H20 C5 1_555 1_555
C6 C5 1_555 1_555
O13 C6 1_555 1_555
O14 Na1 1_555 1_555
C7 C5 1_555 1_555
H21 C7 1_555 1_555
C8 C7 1_555 1_555
O15 C8 1_555 1_555
O16 C8 1_555 1_555
C9 C1 1_555 1_555
H22 C9 1_555 1_555
H23 C9 1_555 1_555
Na1A O14 1_555 1_555
Na1A_2 O1 1_555 1_555
Na2A O2 1_555 1_555
Na3A O7 1_555 1_555
Na3A_2 O8 1_555 1_555
Na3A_3 O16 1_555 1_555
O1A Na1 1_555 1_555
H1A O1A 1_555 1_555
H2A O1A 1_555 1_555
O2A Na2 1_555 1_555
H3A O2A 1_555 1_555
H4A O2A 1_555 1_555
O3A Na2 1_555 1_555
H5A O3A 1_555 1_555
H6A O3A 1_555 1_555
O7A Na3 1_555 1_555
H13A O7A 1_555 1_555
H14A O7A 1_555 1_555
O8A Na3 1_555 1_555
H15A O8A 1_555 1_555
H16A O8A 1_555 1_555
O14A Na1 1_555 1_555
O16A Na3 1_555 1_555
O3 Na2A 1_555 1_555
C2 O9 1_555 1_555
C6 O14 1_555 1_555
C7 C9 1_555 1_555
Na1A O14A 1_555 1_555
Na1A_2 O1A 1_555 1_555
Na1A_2 O2A 1_555 1_555
Na1A_2 O3A 1_555 1_555
Na2A O1A 1_555 1_555
Na3A O7A 1_555 1_555
Na3A_2 O8A 1_555 1_555

#END
