
#######################################################################
#
#                 Cambridge Crystallographic Data Centre
#                                CCDC 
#
#######################################################################
#
# If this CIF has been generated from an entry in the Cambridge 
# Structural Database, then it will include bibliographic, chemical, 
# crystal, experimental, refinement or atomic coordinate data resulting 
# from the CCDC's data processing and validation procedures.
#
#######################################################################

data_PULJUC
_symmetry_cell_setting           orthorhombic
_symmetry_space_group_name_H-M   'P c a 21'
_symmetry_Int_Tables_number      29
_space_group_name_Hall           'P 2c -2ac'
loop_
_symmetry_equiv_pos_site_id
_symmetry_equiv_pos_as_xyz
1 x,y,z
2 -x,-y,1/2+z
3 1/2+x,-y,z
4 1/2-x,y,1/2+z
_cell_length_a                   7.1414(14)
_cell_length_b                   6.1100(12)
_cell_length_c                   26.740(5)
_cell_angle_alpha                90
_cell_angle_beta                 90
_cell_angle_gamma                90
_cell_volume                     1166.77
loop_
_atom_site_label
_atom_site_type_symbol
_atom_site_fract_x
_atom_site_fract_y
_atom_site_fract_z
Sn1 Sn 0.20221(6) 0.35650(7) 0.35116(2)
S1 S 0.2131(3) 0.7405(4) 0.31711(6)
S2 S -0.0018(3) 0.5712(3) 0.41371(5)
C1 C 0.2825(10) 0.7334(15) 0.2536(3)
C2 C 0.2352(10) 0.5644(13) 0.2211(3)
H1 H 0.1662 0.4421 0.2330
C3 C 0.2880(10) 0.5740(17) 0.1717(3)
H2 H 0.2570 0.4564 0.1500
C4 C 0.3850(10) 0.7508(15) 0.1532(3)
H3 H 0.4180 0.7573 0.1188
C5 C 0.4337(10) 0.9187(15) 0.1851(3)
H4 H 0.5022 1.0408 0.1729
C6 C 0.3826(12) 0.9086(16) 0.2349(3)
H5 H 0.4171 1.0246 0.2567
C7 C -0.0425(9) 0.3792(12) 0.4622(3)
C8 C -0.1164(11) 0.1725(13) 0.4538(3)
H6 H -0.1431 0.1258 0.4206
C9 C -0.1515(11) 0.0328(14) 0.4943(3)
H7 H -0.2019 -0.1091 0.4888
C10 C -0.1118(12) 0.1043(16) 0.5424(3)
H8 H -0.1395 0.0118 0.5700
C11 C -0.0330(12) 0.3068(15) 0.5510(3)
H9 H -0.0006 0.3497 0.5840
C12 C -0.0009(11) 0.4484(14) 0.5111(2)
H10 H 0.0488 0.5904 0.5168
Sn1B Sn -0.29779(6) 0.64350(7) 0.35116(2)
S2B S 0.4982(3) 0.4288(3) 0.41371(5)
loop_
_geom_bond_atom_site_label_1
_geom_bond_atom_site_label_2
_geom_bond_site_symmetry_1
_geom_bond_site_symmetry_2
Sn1 S1 1_555 1_555
S1 C1 1_555 1_555
S2 Sn1 1_555 1_555
C1 C2 1_555 1_555
C2 H1 1_555 1_555
C3 C2 1_555 1_555
H2 C3 1_555 1_555
C4 C3 1_555 1_555
H3 C4 1_555 1_555
C5 C4 1_555 1_555
H4 C5 1_555 1_555
C6 C1 1_555 1_555
H5 C6 1_555 1_555
C7 S2 1_555 1_555
C8 C7 1_555 1_555
H6 C8 1_555 1_555
C9 C8 1_555 1_555
H7 C9 1_555 1_555
C10 C9 1_555 1_555
H8 C10 1_555 1_555
C11 C10 1_555 1_555
H9 C11 1_555 1_555
C12 C7 1_555 1_555
H10 C12 1_555 1_555
Sn1B S2 1_555 1_555
S2B Sn1 1_555 1_555
C5 C6 1_555 1_555
C11 C12 1_555 1_555

#END
