
#######################################################################
#
#                 Cambridge Crystallographic Data Centre
#                                CCDC 
#
#######################################################################
#
# If this CIF has been generated from an entry in the Cambridge 
# Structural Database, then it will include bibliographic, chemical, 
# crystal, experimental, refinement or atomic coordinate data resulting 
# from the CCDC's data processing and validation procedures.
#
#######################################################################

data_PULJEN
_symmetry_cell_setting           monoclinic
_symmetry_space_group_name_H-M   'C 2/c'
_symmetry_Int_Tables_number      15
_space_group_name_Hall           '-C 2yn'
loop_
_symmetry_equiv_pos_site_id
_symmetry_equiv_pos_as_xyz
1 x,y,z
2 -x,y,1/2-z
3 1/2+x,1/2+y,z
4 1/2-x,1/2+y,1/2-z
5 -x,-y,-z
6 x,-y,1/2+z
7 1/2-x,1/2-y,-z
8 1/2+x,1/2-y,1/2+z
_cell_length_a                   18.8827(5)
_cell_length_b                   9.8114(2)
_cell_length_c                   19.5013(4)
_cell_angle_alpha                90
_cell_angle_beta                 108.692(3)
_cell_angle_gamma                90
_cell_volume                     3422.36
loop_
_atom_site_label
_atom_site_type_symbol
_atom_site_fract_x
_atom_site_fract_y
_atom_site_fract_z
C1 C 0.43398(17) 0.2744(3) 0.14011(15)
H1 H 0.4491 0.3096 0.188
C2 C 0.47452(17) 0.1683(3) 0.12459(15)
H2 H 0.5162 0.1316 0.1614
C3 C 0.45411(16) 0.1157(3) 0.05486(14)
C4 C 0.39287(17) 0.1744(3) 0.00412(15)
H3 H 0.377 0.1419 -0.0443
C5 C 0.35465(17) 0.2797(3) 0.02344(14)
H4 H 0.3128 0.3182 -0.0124
C6 C 0.49713(18) -0.0020(3) 0.03772(15)
H5 H 0.5482 -0.0024 0.0731
H6 H 0.4725 -0.0883 0.0438
C7 C 0.20978(16) 0.6094(2) 0.00620(13)
C8 C 0.20017(15) 0.6710(2) 0.07411(13)
C9 C 0.14903(16) 0.7715(3) 0.07411(13)
H7 H 0.1153 0.8049 0.03
C10 C 0.14804(16) 0.8230(3) 0.14035(14)
H8 H 0.1134 0.892 0.1421
C11 C 0.19822(16) 0.7722(3) 0.20355(13)
C12 C 0.24756(16) 0.6696(3) 0.19895(14)
H9 H 0.2817 0.634 0.2423
C13 C 0.20342(18) 0.8278(3) 0.27706(14)
Cu1 Cu 0.317384(19) 0.47899(3) 0.118623(15)
N1 N 0.37438(13) 0.3298(2) 0.09090(12)
N2 N 0.24837(13) 0.6200(2) 0.13555(11)
O1 O 0.26143(11) 0.52129(18) 0.01666(9)
O2 O 0.15496(11) 0.91524(19) 0.27931(9)
O3 O 0.40957(12) 0.6308(2) 0.12637(11)
O4 O 0.16810(11) 0.64617(19) -0.05404(9)
O5 O 0.25516(14) 0.7879(2) 0.33106(10)
H10 H 0.389(3) 0.699(4) 0.105(3)
H11 H 0.439(3) 0.655(6) 0.1655(17)
C1D C 0.56602(17) -0.2744(3) -0.14011(15)
H1D H 0.5509 -0.3096 -0.188
C2D C 0.52548(17) -0.1683(3) -0.12459(15)
H2D H 0.4838 -0.1316 -0.1614
C3D C 0.54589(16) -0.1157(3) -0.05486(14)
C4D C 0.60713(17) -0.1744(3) -0.00412(15)
H3D H 0.623 -0.1419 0.0443
C5D C 0.64535(17) -0.2797(3) -0.02344(14)
H4D H 0.6872 -0.3182 0.0124
C6D C 0.50287(18) 0.0020(3) -0.03772(15)
H5D H 0.4518 0.0024 -0.0731
H6D H 0.5275 0.0883 -0.0438
N1D N 0.62562(13) -0.3298(2) -0.09090(12)
C7D C 0.79022(16) -0.6094(2) -0.00620(13)
C8D C 0.79983(15) -0.6710(2) -0.07411(13)
C9D C 0.85097(16) -0.7715(3) -0.07411(13)
H7D H 0.8847 -0.8049 -0.03
C10D C 0.85196(16) -0.8230(3) -0.14035(14)
H8D H 0.8866 -0.892 -0.1421
C11D C 0.80178(16) -0.7722(3) -0.20355(13)
C12D C 0.75244(16) -0.6696(3) -0.19895(14)
H9D H 0.7183 -0.634 -0.2423
C13D C 0.79658(18) -0.8278(3) -0.27706(14)
Cu1D Cu 0.682616(19) -0.47899(3) -0.118623(15)
N2D N 0.75163(13) -0.6200(2) -0.13555(11)
O1D O 0.73857(11) -0.52129(18) -0.01666(9)
O2D O 0.84504(11) -0.91524(19) -0.27931(9)
O3D O 0.59043(12) -0.6308(2) -0.12637(11)
O4D O 0.83190(11) -0.64617(19) 0.05404(9)
O5D O 0.74484(14) -0.7879(2) -0.33106(10)
H10D H 0.611(3) -0.699(4) -0.105(3)
H11D H 0.561(3) -0.655(6) -0.1655(17)
Cu1C Cu 0.182616(19) 0.97899(3) 0.381377(15)
Cu1G Cu 0.817384(19) -0.97899(3) -0.381377(15)
O2C O 0.34504(11) 0.41524(19) 0.22069(9)
O2G O 0.65496(11) -0.41524(19) -0.22069(9)
O5C O 0.24484(14) 0.2879(2) 0.16894(10)
O5G O 0.75516(14) -0.2879(2) -0.16894(10)
O6 O 0.500 0.7549(4) 0.250
O7 O 0.1076(2) 0.4074(3) 0.20885(18)
O8 O 0.19424(15) 0.4849(2) -0.16428(11)
O9 O 0.5132(3) 0.5578(6) 0.0680(3)
O10 O 0.1095(6) 0.2390(15) 0.1487(5)
loop_
_geom_bond_atom_site_label_1
_geom_bond_atom_site_label_2
_geom_bond_site_symmetry_1
_geom_bond_site_symmetry_2
C1 H1 1_555 1_555
C2 C1 1_555 1_555
H2 C2 1_555 1_555
C3 C2 1_555 1_555
C4 C3 1_555 1_555
H3 C4 1_555 1_555
C5 C4 1_555 1_555
H4 C5 1_555 1_555
C6 C3 1_555 1_555
H5 C6 1_555 1_555
H6 C6 1_555 1_555
C7 C8 1_555 1_555
C8 C9 1_555 1_555
C9 H7 1_555 1_555
C10 C9 1_555 1_555
H8 C10 1_555 1_555
C11 C10 1_555 1_555
C12 C11 1_555 1_555
H9 C12 1_555 1_555
C13 C11 1_555 1_555
Cu1 N1 1_555 1_555
N1 C1 1_555 1_555
N2 C8 1_555 1_555
O1 C7 1_555 1_555
O2 C13 1_555 1_555
O3 Cu1 1_555 1_555
O4 C7 1_555 1_555
O5 C13 1_555 1_555
H10 O3 1_555 1_555
H11 O3 1_555 1_555
C1D H1D 1_555 1_555
C2D C1D 1_555 1_555
H2D C2D 1_555 1_555
C3D C2D 1_555 1_555
C4D C3D 1_555 1_555
H3D C4D 1_555 1_555
C5D C4D 1_555 1_555
H4D C5D 1_555 1_555
C6D C6 1_555 1_555
H5D C6D 1_555 1_555
H6D C6D 1_555 1_555
N1D C1D 1_555 1_555
C7D C8D 1_555 1_555
C8D C9D 1_555 1_555
C9D H7D 1_555 1_555
C10D C9D 1_555 1_555
H8D C10D 1_555 1_555
C11D C10D 1_555 1_555
C12D C11D 1_555 1_555
H9D C12D 1_555 1_555
C13D C11D 1_555 1_555
Cu1D N1D 1_555 1_555
N2D C8D 1_555 1_555
O1D C7D 1_555 1_555
O2D C13D 1_555 1_555
O3D Cu1D 1_555 1_555
O4D C7D 1_555 1_555
O5D C13D 1_555 1_555
H10D O3D 1_555 1_555
H11D O3D 1_555 1_555
Cu1C O2 1_555 1_555
Cu1G O2D 1_555 1_555
O2C Cu1 1_555 1_555
O2G Cu1D 1_555 1_555
O5C Cu1 1_555 1_555
O5G Cu1D 1_555 1_555
C5 N1 1_555 1_555
C12 N2 1_555 1_555
Cu1 N2 1_555 1_555
Cu1 O1 1_555 1_555
O5 Cu1C 1_555 1_555
C3D C6D 1_555 1_555
C5D N1D 1_555 1_555
C12D N2D 1_555 1_555
Cu1D N2D 1_555 1_555
Cu1D O1D 1_555 1_555
O5D Cu1G 1_555 1_555

#END
