
#######################################################################
#
#                 Cambridge Crystallographic Data Centre
#                                CCDC 
#
#######################################################################
#
# If this CIF has been generated from an entry in the Cambridge 
# Structural Database, then it will include bibliographic, chemical, 
# crystal, experimental, refinement or atomic coordinate data resulting 
# from the CCDC's data processing and validation procedures.
#
#######################################################################

data_PULKOX
_symmetry_cell_setting           monoclinic
_symmetry_space_group_name_H-M   'C 2/c'
_symmetry_Int_Tables_number      15
_space_group_name_Hall           '-C 2yn'
loop_
_symmetry_equiv_pos_site_id
_symmetry_equiv_pos_as_xyz
1 x,y,z
2 -x,y,1/2-z
3 1/2+x,1/2+y,z
4 1/2-x,1/2+y,1/2-z
5 -x,-y,-z
6 x,-y,1/2+z
7 1/2-x,1/2-y,-z
8 1/2+x,1/2-y,1/2+z
_cell_length_a                   47.699(10)
_cell_length_b                   9.018(5)
_cell_length_c                   17.330(5)
_cell_angle_alpha                90
_cell_angle_beta                 111.024(5)
_cell_angle_gamma                90
_cell_volume                     6958.25
loop_
_atom_site_label
_atom_site_type_symbol
_atom_site_fract_x
_atom_site_fract_y
_atom_site_fract_z
C1 C 0.15963(14) 0.0209(7) 0.5013(4)
C2 C 0.17078(14) 0.0530(7) 0.4380(4)
C3 C 0.20177(15) 0.0743(8) 0.4584(4)
H1 H 0.2095 0.0943 0.4160
C4 C 0.22118(15) 0.0664(8) 0.5396(4)
C5 C 0.21012(14) 0.0383(7) 0.6031(4)
C6 C 0.17903(15) 0.0161(7) 0.5826(4)
H2 H 0.1713 -0.0024 0.6252
C7 C 0.11527(15) -0.1148(7) 0.4955(4)
C8 C 0.08282(15) -0.1417(8) 0.4410(4)
H3 H 0.0803 -0.2485 0.4270
H4 H 0.0699 -0.1179 0.4730
C9 C 0.06869(17) -0.1485(8) 0.2885(5)
H5 H 0.0500 -0.2076 0.2738
H6 H 0.0858 -0.2180 0.3019
C10 C 0.06761(18) -0.0510(9) 0.2154(4)
H7 H 0.0669 -0.1150 0.1683
H8 H 0.0490 0.0093 0.1979
C11 C 0.11995(16) -0.0201(8) 0.2201(4)
H9 H 0.1209 0.0218 0.1682
H10 H 0.1161 -0.1278 0.2114
C12 C 0.15045(17) 0.0020(9) 0.2889(4)
C13 C 0.23069(16) 0.0307(9) 0.6926(4)
H11 H 0.2188 0.0105 0.7273
H12 H 0.2412 0.1256 0.7090
H13 H 0.2454 -0.0487 0.6997
C14 C 0.25471(16) 0.0900(9) 0.5613(5)
H14 H 0.2650 0.0809 0.6212
H15 H 0.2582 0.1891 0.5434
H16 H 0.2625 0.0151 0.5332
C15 C 0.08681(17) 0.1919(8) 0.1929(4)
H17 H 0.1048 0.2541 0.2088
H18 H 0.0712 0.2422 0.2078
H19 H 0.0794 0.1746 0.1331
C16 C 0.04417(15) 0.0267(8) 0.3532(5)
H20 H 0.0474 0.0878 0.4024
H21 H 0.0280 -0.0447 0.3473
H22 H 0.0385 0.0904 0.3042
C17 C 0.07731(19) 0.4426(9) 0.5780(8)
C18 C 0.0541(2) 0.4011(11) 0.6064(11)
H23 H 0.0568 0.4087 0.6633
C19 C 0.0262(4) 0.3466(15) 0.547(2)
C20 C 0.0229(4) 0.3347(18) 0.469(2)
C21 C 0.0445(2) 0.3777(12) 0.4377(11)
H24 H 0.0409 0.3725 0.3802
C22 C 0.07192(18) 0.4292(9) 0.4935(8)
C23 C 0.10626(17) 0.3884(8) 0.4204(5)
C24 C 0.1373(2) 0.4259(9) 0.4218(5)
H25 H 0.1479 0.3324 0.4202
H26 H 0.1353 0.4826 0.3712
C25 C 0.1785(2) 0.4231(12) 0.5569(6)
H27 H 0.1708 0.3201 0.5514
H28 H 0.1968 0.4218 0.5426
C26 C 0.1868(4) 0.463(2) 0.6382(6)
H29 H 0.2049 0.5262 0.6515
H30 H 0.1930 0.3715 0.6715
C27 C 0.1554(3) 0.4493(15) 0.7231(6)
H31 H 0.1644 0.4899 0.7798
H32 H 0.1634 0.3478 0.7240
C28 C 0.1219(2) 0.4392(9) 0.7010(6)
C29 C 0.0039(3) 0.2984(15) 0.5886(17)
H33 H 0.0125 0.3205 0.6478
H34 H 0.0000 0.1917 0.5807
H35 H -0.0151 0.3527 0.5637
C30 C -0.0070(3) 0.2691(15) 0.4100(18)
H36 H -0.0068 0.2663 0.3536
H37 H -0.0237 0.3311 0.4112
H38 H -0.0094 0.1683 0.4278
C31 C 0.16966(18) 0.6403(9) 0.4684(5)
H39 H 0.1539 0.6986 0.4275
H40 H 0.1838 0.6038 0.4435
H41 H 0.1803 0.7028 0.5162
C32 C 0.1785(2) 0.6768(11) 0.7101(6)
H42 H 0.1851 0.7392 0.6735
H43 H 0.1958 0.6528 0.7598
H44 H 0.1635 0.7302 0.7257
N1 N 0.14843(13) 0.0636(6) 0.3583(3)
N2 N 0.12795(12) -0.0009(7) 0.4734(3)
N3 N 0.07199(12) -0.0537(6) 0.3618(3)
N4 N 0.09415(13) 0.0494(6) 0.2365(3)
N5 N 0.10626(15) 0.4881(7) 0.6260(5)
N6 N 0.09700(14) 0.4692(8) 0.4702(5)
N7 N 0.15599(13) 0.5138(6) 0.4953(4)
N8 N 0.16546(13) 0.5411(6) 0.6675(3)
O1 O 0.12720(10) -0.2000(5) 0.5555(3)
O2 O 0.17325(12) -0.0457(7) 0.2787(3)
O3 O 0.09179(13) 0.2878(6) 0.3722(3)
O4 O 0.1129(2) 0.3730(7) 0.7506(4)
Cu1 Cu 0.108470(18) 0.06760(9) 0.36132(5)
Cu2 Cu 0.128850(17) 0.55967(9) 0.56089(5)
O1_2 O 0.12720(10) 0.8000(5) 0.5555(3)
Cu2_2 Cu 0.128850(17) -0.44033(9) 0.56089(5)
C33 C 0.24222(18) -0.1904(10) 0.3913(5)
H45 H 0.2453 -0.0963 0.3671
H46 H 0.2596 -0.2550 0.3999
H47 H 0.2399 -0.1715 0.4444
O5 O 0.21641(12) -0.2593(7) 0.3377(4)
H48 H 0.2043 -0.1947 0.3102
O6 O 0.03754(10) 0.4212(12) 0.2661(14)
H49 H 0.0175 0.4610 0.2469
H50 H 0.0525 0.4849 0.2585
O7 O 0.0000 0.6546(5) 0.2500
H51 H 0.0078 0.7067 0.2136
H51A H -0.0078 0.7067 0.2864
loop_
_geom_bond_atom_site_label_1
_geom_bond_atom_site_label_2
_geom_bond_site_symmetry_1
_geom_bond_site_symmetry_2
C1 C2 1_555 1_555
C2 C3 1_555 1_555
C3 H1 1_555 1_555
C4 C3 1_555 1_555
C5 C4 1_555 1_555
C6 C1 1_555 1_555
H2 C6 1_555 1_555
C7 C8 1_555 1_555
C8 H3 1_555 1_555
H4 C8 1_555 1_555
C9 H5 1_555 1_555
H6 C9 1_555 1_555
C10 C9 1_555 1_555
H7 C10 1_555 1_555
H8 C10 1_555 1_555
C11 H9 1_555 1_555
H10 C11 1_555 1_555
C12 C11 1_555 1_555
C13 C5 1_555 1_555
H11 C13 1_555 1_555
H12 C13 1_555 1_555
H13 C13 1_555 1_555
C14 C4 1_555 1_555
H14 C14 1_555 1_555
H15 C14 1_555 1_555
H16 C14 1_555 1_555
C15 H17 1_555 1_555
H18 C15 1_555 1_555
H19 C15 1_555 1_555
C16 H20 1_555 1_555
H21 C16 1_555 1_555
H22 C16 1_555 1_555
C17 C18 1_555 1_555
C18 H23 1_555 1_555
C19 C18 1_555 1_555
C20 C19 1_555 1_555
C21 C20 1_555 1_555
H24 C21 1_555 1_555
C22 C17 1_555 1_555
C23 C24 1_555 1_555
C24 H25 1_555 1_555
H26 C24 1_555 1_555
C25 H27 1_555 1_555
H28 C25 1_555 1_555
C26 C25 1_555 1_555
H29 C26 1_555 1_555
H30 C26 1_555 1_555
C27 H31 1_555 1_555
H32 C27 1_555 1_555
C28 C27 1_555 1_555
C29 C19 1_555 1_555
H33 C29 1_555 1_555
H34 C29 1_555 1_555
H35 C29 1_555 1_555
C30 C20 1_555 1_555
H36 C30 1_555 1_555
H37 C30 1_555 1_555
H38 C30 1_555 1_555
C31 H39 1_555 1_555
H40 C31 1_555 1_555
H41 C31 1_555 1_555
C32 H42 1_555 1_555
H43 C32 1_555 1_555
H44 C32 1_555 1_555
C33 H45 1_555 1_555
H46 C33 1_555 1_555
H47 C33 1_555 1_555
N1 C2 1_555 1_555
N2 C1 1_555 1_555
N3 C8 1_555 1_555
N4 C10 1_555 1_555
N5 C17 1_555 1_555
N6 C22 1_555 1_555
N7 C24 1_555 1_555
N8 C26 1_555 1_555
O1 C7 1_555 1_555
O2 C12 1_555 1_555
O3 C23 1_555 1_555
O4 C28 1_555 1_555
O5 C33 1_555 1_555
H48 O5 1_555 1_555
Cu1 N1 1_555 1_555
Cu2 N5 1_555 1_555
O6 H49 1_555 1_555
H50 O6 1_555 1_555
O7 H51 1_555 1_555
O1_2 Cu2 1_555 1_555
Cu2_2 O1 1_555 1_555
H51A O7 1_555 1_555
C5 C6 1_555 1_555
C7 N2 1_555 1_555
C9 N3 1_555 1_555
C11 N4 1_555 1_555
C12 N1 1_555 1_555
C15 N4 1_555 1_555
C16 N3 1_555 1_555
C21 C22 1_555 1_555
C23 N6 1_555 1_555
C25 N7 1_555 1_555
C27 N8 1_555 1_555
C28 N5 1_555 1_555
C31 N7 1_555 1_555
C32 N8 1_555 1_555
N2 Cu1 1_555 1_555
N3 Cu1 1_555 1_555
N4 Cu1 1_555 1_555
N6 Cu2 1_555 1_555
N7 Cu2 1_555 1_555
N8 Cu2 1_555 1_555
O3 Cu1 1_555 1_555

#END
