
#######################################################################
#
#                 Cambridge Crystallographic Data Centre
#                                CCDC 
#
#######################################################################
#
# If this CIF has been generated from an entry in the Cambridge 
# Structural Database, then it will include bibliographic, chemical, 
# crystal, experimental, refinement or atomic coordinate data resulting 
# from the CCDC's data processing and validation procedures.
#
#######################################################################

data_PULKIR
_symmetry_cell_setting           monoclinic
_symmetry_space_group_name_H-M   'P 21/c'
_symmetry_Int_Tables_number      14
_space_group_name_Hall           '-P 2ybc'
loop_
_symmetry_equiv_pos_site_id
_symmetry_equiv_pos_as_xyz
1 x,y,z
2 -x,1/2+y,1/2-z
3 -x,-y,-z
4 x,1/2-y,1/2+z
_cell_length_a                   11.9992(10)
_cell_length_b                   14.1922(11)
_cell_length_c                   10.0039(8)
_cell_angle_alpha                90
_cell_angle_beta                 114.2240(10)
_cell_angle_gamma                90
_cell_volume                     1553.61
loop_
_atom_site_label
_atom_site_type_symbol
_atom_site_fract_x
_atom_site_fract_y
_atom_site_fract_z
Cu1 Cu -0.06822(5) 0.12373(4) -0.27028(5)
Cl1 Cl 0.44096(10) 0.27600(8) 0.29931(13)
Cl2 Cl 0.53080(10) 0.09226(9) 0.18533(13)
O1 O 0.1591(3) -0.0981(2) -0.1519(4)
O2 O -0.0288(3) 0.2999(2) 0.0610(3)
N1 N 0.0815(3) 0.0545(3) -0.1913(4)
N2 N -0.1483(4) -0.0012(3) -0.3658(4)
N3 N -0.2281(3) 0.1649(3) -0.2635(4)
N4 N 0.0079(3) 0.1986(3) -0.0974(4)
C1 C 0.1353(4) 0.1834(3) -0.0243(4)
C2 C 0.2165(4) 0.2354(3) 0.0917(5)
H1 H 0.1891 0.2884 0.1277
C3 C 0.3411(4) 0.2083(3) 0.1559(5)
C4 C 0.3799(4) 0.1303(3) 0.1034(5)
C5 C 0.2982(4) 0.0775(3) -0.0135(5)
H2 H 0.3262 0.0244 -0.0487
C6 C 0.1764(4) 0.1029(3) -0.0775(4)
C7 C 0.0751(4) -0.0389(3) -0.2045(5)
C8 C -0.0569(4) -0.0753(3) -0.2860(5)
H3 H -0.0824 -0.1059 -0.2141
H4 H -0.0577 -0.1240 -0.3572
C9 C -0.1797(4) -0.0053(3) -0.5241(5)
H5 H -0.2392 0.0442 -0.5741
H6 H -0.1058 0.0041 -0.5413
H7 H -0.2152 -0.0671 -0.5622
C10 C -0.2608(4) -0.0042(3) -0.3362(5)
H8 H -0.3334 0.0072 -0.4288
H9 H -0.2690 -0.0677 -0.3004
C11 C -0.2576(5) 0.0690(3) -0.2230(5)
H10 H -0.1951 0.0509 -0.1254
H11 H -0.3379 0.0709 -0.2171
C12 C -0.3313(4) 0.2000(3) -0.3947(5)
H12 H -0.3500 0.1545 -0.4749
H13 H -0.4031 0.2079 -0.3726
H14 H -0.3095 0.2607 -0.4241
C13 C -0.1984(4) 0.2332(3) -0.1410(5)
H15 H -0.2349 0.2949 -0.1821
H16 H -0.2371 0.2114 -0.0761
C14 C -0.0617(4) 0.2471(3) -0.0484(4)
Cu1C Cu -0.06822(5) 0.37627(4) 0.22972(5)
O2C O -0.0288(3) 0.2001(2) -0.4390(3)
loop_
_geom_bond_atom_site_label_1
_geom_bond_atom_site_label_2
_geom_bond_site_symmetry_1
_geom_bond_site_symmetry_2
Cu1 N1 1_555 1_555
Cl1 C3 1_555 1_555
Cl2 C4 1_555 1_555
O1 C7 1_555 1_555
O2 C14 1_555 1_555
N1 C6 1_555 1_555
N2 Cu1 1_555 1_555
N3 Cu1 1_555 1_555
N4 Cu1 1_555 1_555
C1 N4 1_555 1_555
C2 C1 1_555 1_555
H1 C2 1_555 1_555
C3 C2 1_555 1_555
C4 C3 1_555 1_555
C5 C4 1_555 1_555
H2 C5 1_555 1_555
C6 C1 1_555 1_555
C7 N1 1_555 1_555
C8 N2 1_555 1_555
H3 C8 1_555 1_555
H4 C8 1_555 1_555
C9 N2 1_555 1_555
H5 C9 1_555 1_555
H6 C9 1_555 1_555
H7 C9 1_555 1_555
C10 N2 1_555 1_555
H8 C10 1_555 1_555
H9 C10 1_555 1_555
C11 N3 1_555 1_555
H10 C11 1_555 1_555
H11 C11 1_555 1_555
C12 N3 1_555 1_555
H12 C12 1_555 1_555
H13 C12 1_555 1_555
H14 C12 1_555 1_555
C13 N3 1_555 1_555
H15 C13 1_555 1_555
H16 C13 1_555 1_555
C14 N4 1_555 1_555
Cu1C O2 1_555 1_555
O2C Cu1 1_555 1_555
C5 C6 1_555 1_555
C7 C8 1_555 1_555
C10 C11 1_555 1_555
C13 C14 1_555 1_555

#END
