
#######################################################################
#
#                 Cambridge Crystallographic Data Centre
#                                CCDC 
#
#######################################################################
#
# If this CIF has been generated from an entry in the Cambridge 
# Structural Database, then it will include bibliographic, chemical, 
# crystal, experimental, refinement or atomic coordinate data resulting 
# from the CCDC's data processing and validation procedures.
#
#######################################################################

data_PULMUG
_symmetry_cell_setting           triclinic
_symmetry_space_group_name_H-M   'P -1'
_symmetry_Int_Tables_number      2
_space_group_name_Hall           '-P 1'
loop_
_symmetry_equiv_pos_site_id
_symmetry_equiv_pos_as_xyz
1 x,y,z
2 -x,-y,-z
_cell_length_a                   10.0794(5)
_cell_length_b                   10.9385(5)
_cell_length_c                   13.1424(6)
_cell_angle_alpha                71.242(2)
_cell_angle_beta                 88.181(2)
_cell_angle_gamma                76.717(2)
_cell_volume                     1333.93
loop_
_atom_site_label
_atom_site_type_symbol
_atom_site_fract_x
_atom_site_fract_y
_atom_site_fract_z
Ni1 Ni 0.55078(4) 0.56617(4) 0.16637(3)
S1 S 0.00889(8) 0.23983(8) 0.65951(7)
N1 N 0.4147(3) 0.8955(3) 0.2695(3)
N2 N 0.4709(4) 0.9588(3) 0.1781(3)
N3 N 0.5155(3) 0.7398(3) 0.2052(2)
N4 N 0.8801(3) 0.6973(3) 0.0021(2)
N5 N 0.7982(4) 0.7296(4) -0.0884(3)
N6 N 0.6970(3) 0.6288(3) 0.0596(2)
O1 O -0.1299(2) 0.2511(2) 0.6279(2)
O2 O 0.0362(3) 0.2875(2) 0.7446(2)
O3 O 0.4217(2) 0.5001(2) 0.28377(19)
O4 O 0.2420(3) 0.5208(3) 0.1792(2)
O5 O 0.4033(2) -0.3786(2) 0.85131(17)
O6 O 0.2811(2) -0.4092(2) 0.73084(19)
O7 O 0.3967(2) 0.6490(2) 0.05002(19)
C1 C 0.0924(3) 0.3158(3) 0.5453(3)
C2 C 0.2169(4) 0.3434(4) 0.5590(3)
H1 H 0.2542 0.3253 0.6276
C3 C 0.2845(4) 0.3982(4) 0.4689(3)
H2 H 0.3680 0.4173 0.4770
C4 C 0.2300(3) 0.4252(3) 0.3669(3)
C5 C 0.1037(4) 0.4002(3) 0.3550(3)
H3 H 0.0657 0.4198 0.2864
C6 C 0.0337(4) 0.3463(4) 0.4441(3)
H4 H -0.0517 0.3309 0.4360
C7 C 0.3032(3) 0.4867(3) 0.2682(3)
C8 C 0.0950(3) 0.0701(3) 0.6950(3)
C9 C 0.1946(4) 0.0198(3) 0.7752(3)
H5 H 0.2158 0.0739 0.8113
C10 C 0.2641(4) -0.1122(3) 0.8027(3)
H6 H 0.3322 -0.1467 0.8572
C11 C 0.2326(3) -0.1924(3) 0.7493(2)
C12 C 0.1294(4) -0.1402(4) 0.6705(4)
H7 H 0.1060 -0.1943 0.6354
C13 C 0.0601(4) -0.0088(4) 0.6428(4)
H8 H -0.0094 0.0256 0.5893
C14 C 0.3091(3) -0.3349(3) 0.7782(2)
C15 C 0.4216(4) 0.9853(4) 0.4205(4)
C16 C 0.4525(5) 0.8880(5) 0.5191(4)
H9 H 0.4198 0.8116 0.5332
C17 C 0.4689(5) 1.0988(5) 0.4022(4)
H10 H 0.4480 1.1668 0.3367
C18 C 0.3342(4) 0.9691(5) 0.3359(4)
H11 H 0.2657 0.9226 0.3711
H12 H 0.2872 1.0562 0.2895
C19 C 0.5293(4) 0.8613(4) 0.1432(3)
H13 H 0.5768 0.8744 0.0803
C20 C 0.4409(4) 0.7672(4) 0.2831(3)
H14 H 0.4110 0.7047 0.3397
C21 C 1.0025(3) 0.8718(3) -0.0010(3)
C22 C 1.1048(3) 0.8956(4) 0.0534(3)
H15 H 1.1759 0.8254 0.0898
C23 C 0.8977(4) 0.9786(4) -0.0541(3)
H16 H 0.8280 0.9648 -0.0907
C24 C 1.0122(4) 0.7330(4) -0.0030(3)
H17 H 1.0547 0.7245 -0.0684
H18 H 1.0708 0.6706 0.0574
C25 C 0.6907(4) 0.6856(4) -0.0492(3)
H19 H 0.6161 0.6925 -0.0923
C26 C 0.8178(3) 0.6386(3) 0.0879(3)
H20 H 0.8539 0.6084 0.1581
H21 H 0.406(4) 0.636(4) -0.010(2)
H22 H 0.336(4) 0.609(5) 0.084(4)
N1A N 0.5853(3) 1.1045(3) 0.7305(3)
N2A N 0.5291(4) 1.0412(3) 0.8219(3)
N3A N 0.4845(3) 1.2602(3) 0.7948(2)
C15A C 0.5784(4) 1.0147(4) 0.5795(4)
C16A C 0.5475(5) 1.1120(5) 0.4809(4)
H9A H 0.5802 1.1884 0.4668
C17A C 0.5311(5) 0.9012(5) 0.5978(4)
H10A H 0.5520 0.8332 0.6633
C18A C 0.6658(4) 1.0309(5) 0.6641(4)
H11A H 0.7343 1.0774 0.6289
H12A H 0.7128 0.9438 0.7105
C19A C 0.4707(4) 1.1387(4) 0.8568(3)
H13A H 0.4232 1.1256 0.9197
C20A C 0.5591(4) 1.2328(4) 0.7169(3)
H14A H 0.5890 1.2953 0.6603
N4A N 1.1199(3) 1.3027(3) -0.0021(2)
N5A N 1.2018(4) 1.2704(4) 0.0884(3)
N6A N 1.3030(3) 1.3712(3) -0.0596(2)
C21A C 0.9975(3) 1.1282(3) 0.0010(3)
C22A C 0.8952(3) 1.1044(4) -0.0534(3)
H15A H 0.8241 1.1746 -0.0898
C23A C 1.1023(4) 1.0214(4) 0.0541(3)
H16A H 1.1720 1.0352 0.0907
C24A C 0.9878(4) 1.2670(4) 0.0030(3)
H17A H 0.9453 1.2755 0.0684
H18A H 0.9292 1.3294 -0.0574
C25A C 1.3093(4) 1.3144(4) 0.0492(3)
H19A H 1.3839 1.3075 0.0923
C26A C 1.1822(3) 1.3614(3) -0.0879(3)
H20A H 1.1461 1.3916 -0.1581
Ni1A Ni 0.44922(4) -0.56617(4) 0.83363(3)
S1A S 0.99111(8) -0.23983(8) 0.34049(7)
O1A O 1.1299(2) -0.2511(2) 0.3721(2)
O2A O 0.9638(3) -0.2875(2) 0.2554(2)
O3A O 0.5783(2) -0.5001(2) 0.71623(19)
O4A O 0.7580(3) -0.5208(3) 0.8208(2)
O5A O 0.5967(2) 0.3786(2) 0.14869(17)
O6A O 0.7189(2) 0.4092(2) 0.26916(19)
O7A O 0.6033(2) -0.6490(2) 0.94998(19)
C1A C 0.9076(3) -0.3158(3) 0.4547(3)
C2A C 0.7831(4) -0.3434(4) 0.4410(3)
H1A H 0.7458 -0.3253 0.3724
C3A C 0.7155(4) -0.3982(4) 0.5311(3)
H2A H 0.6320 -0.4173 0.5230
C4A C 0.7700(3) -0.4252(3) 0.6331(3)
C5A C 0.8963(4) -0.4002(3) 0.6450(3)
H3A H 0.9343 -0.4198 0.7136
C6A C 0.9663(4) -0.3463(4) 0.5559(3)
H4A H 1.0517 -0.3309 0.5640
C7A C 0.6968(3) -0.4867(3) 0.7318(3)
C8A C 0.9050(3) -0.0701(3) 0.3050(3)
C9A C 0.8054(4) -0.0198(3) 0.2248(3)
H5A H 0.7842 -0.0739 0.1887
C10A C 0.7359(4) 0.1122(3) 0.1973(3)
H6A H 0.6678 0.1467 0.1428
C11A C 0.7674(3) 0.1924(3) 0.2507(2)
C12A C 0.8706(4) 0.1402(4) 0.3295(4)
H7A H 0.8940 0.1943 0.3646
C13A C 0.9399(4) 0.0088(4) 0.3572(4)
H8A H 1.0094 -0.0256 0.4107
C14A C 0.6909(3) 0.3349(3) 0.2218(2)
H21A H 0.594(4) -0.636(4) 1.010(2)
H22A H 0.664(4) -0.609(5) 0.916(4)
Ni1A_2 Ni 0.44922(4) 1.43383(4) 0.83363(3)
Ni1A_3 Ni 1.44922(4) 1.43383(4) -0.16637(3)
N3A_2 N 0.4845(3) -0.7398(3) 0.7948(2)
N6A_2 N 0.3030(3) -0.6288(3) 0.9404(2)
O8 O 0.366(3) 0.617(2) 0.5217(18)
H23 H 0.2968 0.6559 0.4781
H24 H 0.3396 0.6096 0.5851
loop_
_geom_bond_atom_site_label_1
_geom_bond_atom_site_label_2
_geom_bond_site_symmetry_1
_geom_bond_site_symmetry_2
Ni1 N3 1_555 1_555
S1 O1 1_555 1_555
N1 N2 1_555 1_555
N2 C19 1_555 1_555
N3 C19 1_555 1_555
N4 N5 1_555 1_555
N5 C25 1_555 1_555
N6 Ni1 1_555 1_555
O2 S1 1_555 1_555
O3 Ni1 1_555 1_555
O4 C7 1_555 1_555
O5 C14 1_555 1_555
O6 C14 1_555 1_555
O7 Ni1 1_555 1_555
C1 S1 1_555 1_555
C2 C1 1_555 1_555
H1 C2 1_555 1_555
C3 C2 1_555 1_555
H2 C3 1_555 1_555
C4 C3 1_555 1_555
C5 C4 1_555 1_555
H3 C5 1_555 1_555
C6 C1 1_555 1_555
H4 C6 1_555 1_555
C7 O3 1_555 1_555
C8 S1 1_555 1_555
C9 C8 1_555 1_555
H5 C9 1_555 1_555
C10 C9 1_555 1_555
H6 C10 1_555 1_555
C11 C10 1_555 1_555
C12 C11 1_555 1_555
H7 C12 1_555 1_555
C13 C8 1_555 1_555
H8 C13 1_555 1_555
C14 C11 1_555 1_555
C15 C16 1_555 1_555
C16 H9 1_555 1_555
C17 C15 1_555 1_555
H10 C17 1_555 1_555
C18 N1 1_555 1_555
H11 C18 1_555 1_555
H12 C18 1_555 1_555
C19 H13 1_555 1_555
C20 N1 1_555 1_555
H14 C20 1_555 1_555
C21 C22 1_555 1_555
C22 H15 1_555 1_555
C23 C21 1_555 1_555
H16 C23 1_555 1_555
C24 N4 1_555 1_555
H17 C24 1_555 1_555
H18 C24 1_555 1_555
C25 N6 1_555 1_555
H19 C25 1_555 1_555
C26 N4 1_555 1_555
H20 C26 1_555 1_555
H21 O7 1_555 1_555
H22 O7 1_555 1_555
O8 H23 1_555 1_555
H24 O8 1_555 1_555
N1A N2A 1_555 1_555
N2A C19A 1_555 1_555
N3A C19A 1_555 1_555
C15A C16A 1_555 1_555
C16A C17 1_555 1_555
H9A C16A 1_555 1_555
C17A C16 1_555 1_555
H10A C17A 1_555 1_555
C18A N1A 1_555 1_555
H11A C18A 1_555 1_555
H12A C18A 1_555 1_555
C19A H13A 1_555 1_555
C20A N1A 1_555 1_555
H14A C20A 1_555 1_555
N4A N5A 1_555 1_555
N5A C25A 1_555 1_555
N6A C25A 1_555 1_555
C21A C22A 1_555 1_555
C22A C23 1_555 1_555
H15A C22A 1_555 1_555
C23A C22 1_555 1_555
H16A C23A 1_555 1_555
C24A N4A 1_555 1_555
H17A C24A 1_555 1_555
H18A C24A 1_555 1_555
C25A H19A 1_555 1_555
C26A N4A 1_555 1_555
H20A C26A 1_555 1_555
Ni1A O5 1_555 1_555
S1A O1A 1_555 1_555
O2A S1A 1_555 1_555
O3A Ni1A 1_555 1_555
O4A C7A 1_555 1_555
O5A Ni1 1_555 1_555
O6A Ni1 1_555 1_555
O7A Ni1A 1_555 1_555
C1A S1A 1_555 1_555
C2A C1A 1_555 1_555
H1A C2A 1_555 1_555
C3A C2A 1_555 1_555
H2A C3A 1_555 1_555
C4A C3A 1_555 1_555
C5A C4A 1_555 1_555
H3A C5A 1_555 1_555
C6A C1A 1_555 1_555
H4A C6A 1_555 1_555
C7A O3A 1_555 1_555
C8A S1A 1_555 1_555
C9A C8A 1_555 1_555
H5A C9A 1_555 1_555
C10A C9A 1_555 1_555
H6A C10A 1_555 1_555
C11A C10A 1_555 1_555
C12A C11A 1_555 1_555
H7A C12A 1_555 1_555
C13A C8A 1_555 1_555
H8A C13A 1_555 1_555
C14A O5A 1_555 1_555
H21A O7A 1_555 1_555
H22A O7A 1_555 1_555
Ni1A_2 N3A 1_555 1_555
Ni1A_3 N6A 1_555 1_555
N3A_2 Ni1A 1_555 1_555
N6A_2 Ni1A 1_555 1_555
N3 C20 1_555 1_555
N6 C26 1_555 1_555
O6 Ni1A 1_555 1_555
C4 C7 1_555 1_555
C5 C6 1_555 1_555
C12 C13 1_555 1_555
C15 C18 1_555 1_555
C21 C24 1_555 1_555
N3A C20A 1_555 1_555
C15A C17A 1_555 1_555
C15A C18A 1_555 1_555
N6A C26A 1_555 1_555
C21A C23A 1_555 1_555
C21A C24A 1_555 1_555
O6A C14A 1_555 1_555
C4A C7A 1_555 1_555
C5A C6A 1_555 1_555
C11A C14A 1_555 1_555
C12A C13A 1_555 1_555

#END
