
#######################################################################
#
#                 Cambridge Crystallographic Data Centre
#                                CCDC 
#
#######################################################################
#
# If this CIF has been generated from an entry in the Cambridge 
# Structural Database, then it will include bibliographic, chemical, 
# crystal, experimental, refinement or atomic coordinate data resulting 
# from the CCDC's data processing and validation procedures.
#
#######################################################################

data_PULMEQ
_symmetry_cell_setting           monoclinic
_symmetry_space_group_name_H-M   'P 21/c'
_symmetry_Int_Tables_number      14
_space_group_name_Hall           '-P 2ybc'
loop_
_symmetry_equiv_pos_site_id
_symmetry_equiv_pos_as_xyz
1 x,y,z
2 -x,1/2+y,1/2-z
3 -x,-y,-z
4 x,1/2-y,1/2+z
_cell_length_a                   13.818(3)
_cell_length_b                   9.5436(19)
_cell_length_c                   15.309(3)
_cell_angle_alpha                90
_cell_angle_beta                 116.08(3)
_cell_angle_gamma                90
_cell_volume                     1813.29
loop_
_atom_site_label
_atom_site_type_symbol
_atom_site_fract_x
_atom_site_fract_y
_atom_site_fract_z
Zn1 Zn 0.46474(5) 0.07207(5) 0.83707(4)
S1 S 0.13432(10) 0.48794(12) 0.97990(8)
O1 O 0.0637(3) 0.6095(3) 0.9574(2)
O2 O 0.1904(3) 0.4589(4) 1.0845(2)
H1 H 0.1472 0.4288 1.1033
O3 O 0.0837(3) 0.3638(3) 0.9228(3)
C1 C 0.3462(4) 0.8569(5) 0.8723(3)
O4 O 0.2720(3) 0.9405(3) 0.8534(3)
O5 O 0.4367(3) 0.8845(3) 0.8710(2)
O6 O 0.5047(3) 0.3677(3) 0.8500(2)
O7 O 0.4010(3) 0.0794(4) 0.6920(3)
O8 O 0.4018(3) 0.2182(3) 0.8829(2)
N1 N 0.6245(3) 0.0615(4) 0.8737(3)
C2 C 0.7918(4) -0.0626(5) 0.9546(3)
H2 H 0.8284 -0.1427 0.9868
C3 C 0.8480(4) 0.0482(5) 0.9381(3)
C4 C 0.2377(4) 0.5344(5) 0.9452(3)
C5 C 0.7887(4) 0.1621(5) 0.8843(3)
H3 H 0.8227 0.2356 0.8690
C6 C 0.3771(4) 0.4605(5) 0.9016(3)
C7 C 0.4344(4) 0.3428(5) 0.8777(3)
C8 C 0.2993(4) 0.4284(4) 0.9339(3)
H4 H 0.2891 0.3362 0.9477
C9 C 0.6784(4) 0.1643(5) 0.8539(3)
H5 H 0.6395 0.2407 0.8178
C10 C 0.6814(4) -0.0527(5) 0.9229(3)
H6 H 0.6452 -0.1261 0.9356
C11 C 0.9670(4) 0.0517(5) 0.9766(3)
H7 H 0.9977 0.1333 0.9668
C12 C 0.3955(4) 0.6003(5) 0.8863(3)
H8 H 0.4500 0.6227 0.8687
C13 C 0.2514(4) 0.6734(5) 0.9241(3)
H9 H 0.2065 0.7432 0.9279
C14 C 0.3323(4) 0.7064(5) 0.8973(3)
H10 H 0.418(5) 0.017(5) 0.660(4)
H11 H 0.334(2) 0.056(6) 0.665(4)
N1B N 1.3755(3) -0.0615(4) 1.1263(3)
C2B C 1.2082(4) 0.0626(5) 1.0454(3)
H2B H 1.1716 0.1427 1.0132
C3B C 1.1520(4) -0.0482(5) 1.0619(3)
C5B C 1.2113(4) -0.1621(5) 1.1157(3)
H3B H 1.1773 -0.2356 1.1310
C9B C 1.3216(4) -0.1643(5) 1.1461(3)
H5B H 1.3605 -0.2407 1.1822
C10B C 1.3186(4) 0.0527(5) 1.0771(3)
H6B H 1.3548 0.1261 1.0644
C11B C 1.0330(4) -0.0517(5) 1.0234(3)
H7B H 1.0023 -0.1333 1.0332
Zn1B Zn 1.53526(5) -0.07207(5) 1.16293(4)
S1B S 1.86568(10) -0.48794(12) 1.02010(8)
O1B O 1.9363(3) -0.6095(3) 1.0426(2)
O2B O 1.8096(3) -0.4589(4) 0.9155(2)
H1B H 1.8528 -0.4288 0.8967
O3B O 1.9163(3) -0.3638(3) 1.0772(3)
C1B C 1.6538(4) -0.8569(5) 1.1277(3)
O4B O 1.7280(3) -0.9405(3) 1.1466(3)
O5B O 1.5633(3) -0.8845(3) 1.1290(2)
O6B O 1.4953(3) -0.3677(3) 1.1500(2)
O7B O 1.5990(3) -0.0794(4) 1.3080(3)
O8B O 1.5982(3) -0.2182(3) 1.1171(2)
C4B C 1.7623(4) -0.5344(5) 1.0548(3)
C6B C 1.6229(4) -0.4605(5) 1.0984(3)
C7B C 1.5656(4) -0.3428(5) 1.1223(3)
C8B C 1.7007(4) -0.4284(4) 1.0661(3)
H4B H 1.7109 -0.3362 1.0523
C12B C 1.6045(4) -0.6003(5) 1.1137(3)
H8B H 1.5500 -0.6227 1.1313
C13B C 1.7486(4) -0.6734(5) 1.0759(3)
H9B H 1.7935 -0.7432 1.0721
C14B C 1.6677(4) -0.7064(5) 1.1027(3)
H10B H 1.582(5) -0.017(5) 1.340(4)
H11B H 1.666(2) -0.056(6) 1.335(4)
Zn1_2 Zn 0.46474(5) 1.07207(5) 0.83707(4)
Zn1B_2 Zn 1.53526(5) -1.07207(5) 1.16293(4)
O5_2 O 0.4367(3) -0.1155(3) 0.8710(2)
O5B_2 O 1.5633(3) 0.1155(3) 1.1290(2)
N2 N 0.1115 0.1065 0.7246
C15 C 0.0367 0.0813 0.7695
C16 C 0.1302 0.2583 0.7138
O9 O 0.0819 0.1090 0.8490
C17 C 0.1796 0.0724 0.7672
loop_
_geom_bond_atom_site_label_1
_geom_bond_atom_site_label_2
_geom_bond_site_symmetry_1
_geom_bond_site_symmetry_2
Zn1 O7 1_555 1_555
S1 O1 1_555 1_555
O2 S1 1_555 1_555
H1 O2 1_555 1_555
O3 S1 1_555 1_555
C1 O4 1_555 1_555
O5 C1 1_555 1_555
O6 C7 1_555 1_555
O7 H10 1_555 1_555
O8 Zn1 1_555 1_555
N1 Zn1 1_555 1_555
C2 H2 1_555 1_555
C3 C2 1_555 1_555
C4 S1 1_555 1_555
C5 C3 1_555 1_555
H3 C5 1_555 1_555
C6 C7 1_555 1_555
C7 O8 1_555 1_555
C8 C4 1_555 1_555
H4 C8 1_555 1_555
C9 N1 1_555 1_555
H5 C9 1_555 1_555
C10 N1 1_555 1_555
H6 C10 1_555 1_555
C11 C3 1_555 1_555
H7 C11 1_555 1_555
C12 C6 1_555 1_555
H8 C12 1_555 1_555
C13 C4 1_555 1_555
H9 C13 1_555 1_555
C14 C1 1_555 1_555
H11 O7 1_555 1_555
N2 C15 1_555 1_555
C15 O9 1_555 1_555
C16 N2 1_555 1_555
C17 N2 1_555 1_555
N1B C9B 1_555 1_555
C2B H2B 1_555 1_555
C3B C2B 1_555 1_555
C5B C3B 1_555 1_555
H3B C5B 1_555 1_555
C9B C5B 1_555 1_555
H5B C9B 1_555 1_555
C10B N1B 1_555 1_555
H6B C10B 1_555 1_555
C11B C11 1_555 1_555
H7B C11B 1_555 1_555
Zn1B N1B 1_555 1_555
S1B O1B 1_555 1_555
O2B S1B 1_555 1_555
H1B O2B 1_555 1_555
O3B S1B 1_555 1_555
C1B O4B 1_555 1_555
O5B C1B 1_555 1_555
O6B C7B 1_555 1_555
O7B Zn1B 1_555 1_555
O8B Zn1B 1_555 1_555
C4B S1B 1_555 1_555
C6B C7B 1_555 1_555
C7B O8B 1_555 1_555
C8B C4B 1_555 1_555
H4B C8B 1_555 1_555
C12B C6B 1_555 1_555
H8B C12B 1_555 1_555
C13B C4B 1_555 1_555
H9B C13B 1_555 1_555
C14B C1B 1_555 1_555
H10B O7B 1_555 1_555
H11B O7B 1_555 1_555
Zn1_2 O5 1_555 1_555
Zn1B_2 O5B 1_555 1_555
O5_2 Zn1 1_555 1_555
O5B_2 Zn1B 1_555 1_555
C2 C10 1_555 1_555
C5 C9 1_555 1_555
C6 C8 1_555 1_555
C12 C14 1_555 1_555
C13 C14 1_555 1_555
C2B C10B 1_555 1_555
C3B C11B 1_555 1_555
C6B C8B 1_555 1_555
C12B C14B 1_555 1_555
C13B C14B 1_555 1_555

#END
