
#######################################################################
#
#                 Cambridge Crystallographic Data Centre
#                                CCDC 
#
#######################################################################
#
# If this CIF has been generated from an entry in the Cambridge 
# Structural Database, then it will include bibliographic, chemical, 
# crystal, experimental, refinement or atomic coordinate data resulting 
# from the CCDC's data processing and validation procedures.
#
#######################################################################

data_PULMAM
_symmetry_cell_setting           monoclinic
_symmetry_space_group_name_H-M   'P 21/c'
_symmetry_Int_Tables_number      14
_space_group_name_Hall           '-P 2ybc'
loop_
_symmetry_equiv_pos_site_id
_symmetry_equiv_pos_as_xyz
1 x,y,z
2 -x,1/2+y,1/2-z
3 -x,-y,-z
4 x,1/2-y,1/2+z
_cell_length_a                   9.642(4)
_cell_length_b                   16.575(8)
_cell_length_c                   19.660(9)
_cell_angle_alpha                90
_cell_angle_beta                 90.784(6)
_cell_angle_gamma                90
_cell_volume                     3141.69
loop_
_atom_site_label
_atom_site_type_symbol
_atom_site_fract_x
_atom_site_fract_y
_atom_site_fract_z
Zn1 Zn 0.41781(6) 0.07892(4) 0.06253(3)
S1 S -0.0091(2) 0.23596(16) -0.19794(10)
O1 O 0.2593(4) 0.0945(3) 0.0039(2)
N1 N 0.4453(5) -0.0085(3) 0.1347(2)
N2 N 0.5587(5) -0.3219(3) 0.3741(3)
O2 O 0.1232(6) 0.2681(6) -0.1897(4)
O3 O -0.1169(7) 0.2897(6) -0.2139(4)
O4 O -0.4015(5) 0.0757(2) 0.0191(2)
O5 O -0.0064(18) 0.1721(7) -0.2471(4)
H1 H 0.0457 0.1362 -0.2337
C1 C -0.0520(6) 0.1883(4) -0.1190(3)
O6 O 0.1159(4) 0.0781(3) 0.0911(2)
C2 C 0.1390(6) 0.0942(3) 0.0311(3)
C3 C 0.0221(5) 0.1213(3) -0.0170(3)
C4 C 0.4927(6) -0.1269(4) 0.2343(3)
C5 C 0.3688(7) -0.0821(4) 0.2311(3)
H2 H 0.2997 -0.0913 0.2628
C6 C 0.0536(5) 0.1575(4) -0.0776(3)
H3 H 0.1455 0.1614 -0.0911
C7 C 0.5648(7) -0.0494(4) 0.1377(3)
H4 H 0.6323 -0.0382 0.1057
C8 C 0.3495(6) -0.0248(4) 0.1815(3)
H5 H 0.2666 0.0039 0.1802
C9 C 0.5921(7) -0.1077(4) 0.1865(3)
H6 H 0.6773 -0.1341 0.1873
C10 C -0.1898(6) 0.1830(4) -0.0987(3)
H7 H -0.2599 0.2063 -0.1251
C11 C -0.1167(5) 0.1099(3) 0.0021(3)
H8 H -0.1383 0.0811 0.0411
C12 C -0.2218(5) 0.1432(4) -0.0396(3)
O7 O -0.4553(4) 0.1886(3) -0.0351(3)
C13 C -0.3718(5) 0.1356(4) -0.0180(3)
C14 C 0.4049(7) -0.2405(5) 0.3074(4)
H9 H 0.3146 -0.2301 0.2927
C15 C 0.5152(7) -0.1931(4) 0.2841(3)
C16 C 0.6483(7) -0.2121(4) 0.3080(4)
H10 H 0.7242 -0.1819 0.2942
C17 C 0.4314(8) -0.3018(4) 0.3516(3)
H11 H 0.3566 -0.3317 0.3672
C18 C 0.6664(7) -0.2763(4) 0.3522(3)
H12 H 0.7555 -0.2887 0.3675
Zn1_2 Zn -0.58219(6) 0.07892(4) 0.06253(3)
Zn1A Zn 0.58219(6) -0.42108(4) 0.43747(3)
N2A N 0.4413(5) 0.1781(3) 0.1259(3)
O4_2 O 0.5985(5) 0.0757(2) 0.0191(2)
O8 O 0.8818(8) 0.0865(5) 0.1797(4)
O9 O 0.913(2) -0.0348(9) 0.2786(7)
C19 C 0.5095 0.0743 0.3589
O10 O 0.6296 0.0638 0.3126
C20 C 0.3301 -0.0261 0.3972
C21 C 0.5561 -0.0419 0.4096
N3 N 0.4814 0.0005 0.3959
loop_
_geom_bond_atom_site_label_1
_geom_bond_atom_site_label_2
_geom_bond_site_symmetry_1
_geom_bond_site_symmetry_2
Zn1 O1 1_555 1_555
S1 O2 1_555 1_555
O1 C2 1_555 1_555
N1 Zn1 1_555 1_555
N2 C17 1_555 1_555
O3 S1 1_555 1_555
O4 C13 1_555 1_555
O5 S1 1_555 1_555
H1 O5 1_555 1_555
C1 S1 1_555 1_555
O6 C2 1_555 1_555
C2 C3 1_555 1_555
C3 C6 1_555 1_555
C4 C5 1_555 1_555
C5 H2 1_555 1_555
C6 C1 1_555 1_555
H3 C6 1_555 1_555
C7 N1 1_555 1_555
H4 C7 1_555 1_555
C8 N1 1_555 1_555
H5 C8 1_555 1_555
C9 C4 1_555 1_555
H6 C9 1_555 1_555
C10 C1 1_555 1_555
H7 C10 1_555 1_555
C11 C3 1_555 1_555
H8 C11 1_555 1_555
C12 C10 1_555 1_555
O7 C13 1_555 1_555
C13 C12 1_555 1_555
C14 H9 1_555 1_555
C15 C4 1_555 1_555
C16 C15 1_555 1_555
H10 C16 1_555 1_555
C17 C14 1_555 1_555
H11 C17 1_555 1_555
C18 N2 1_555 1_555
H12 C18 1_555 1_555
C19 O10 1_555 1_555
C20 N3 1_555 1_555
C21 N3 1_555 1_555
N3 C19 1_555 1_555
Zn1_2 O4 1_555 1_555
Zn1A N2 1_555 1_555
N2A Zn1 1_555 1_555
O4_2 Zn1 1_555 1_555
C5 C8 1_555 1_555
C7 C9 1_555 1_555
C11 C12 1_555 1_555
C14 C15 1_555 1_555
C16 C18 1_555 1_555

#END
