
#######################################################################
#
#                 Cambridge Crystallographic Data Centre
#                                CCDC 
#
#######################################################################
#
# If this CIF has been generated from an entry in the Cambridge 
# Structural Database, then it will include bibliographic, chemical, 
# crystal, experimental, refinement or atomic coordinate data resulting 
# from the CCDC's data processing and validation procedures.
#
#######################################################################

data_PULQOE
_symmetry_cell_setting           triclinic
_symmetry_space_group_name_H-M   'P -1'
_symmetry_Int_Tables_number      2
_space_group_name_Hall           '-P 1'
loop_
_symmetry_equiv_pos_site_id
_symmetry_equiv_pos_as_xyz
1 x,y,z
2 -x,-y,-z
_cell_length_a                   14.431(5)
_cell_length_b                   15.645(5)
_cell_length_c                   18.541(5)
_cell_angle_alpha                87.253(5)
_cell_angle_beta                 72.501(5)
_cell_angle_gamma                63.291(5)
_cell_volume                     3547.62
loop_
_atom_site_label
_atom_site_type_symbol
_atom_site_fract_x
_atom_site_fract_y
_atom_site_fract_z
C25 C -0.0083(6) 0.7314(4) 0.5500(4)
C26 C 0.1399(5) 0.6796(4) 0.6075(4)
H27 H 0.1808 0.6359 0.5613
H28 H 0.1472 0.6415 0.6502
C27 C 0.2645(5) 0.7478(5) 0.5456(4)
C28 C 0.3966(5) 0.8118(5) 0.5150(4)
H29 H 0.4338 0.7627 0.4722
H30 H 0.4493 0.8051 0.5400
C29 C 0.3499(5) 0.9888(5) 0.5237(4)
H31 H 0.4168 0.9743 0.5357
C30 C 0.3309(5) 1.0621(5) 0.4641(4)
H32 H 0.3895 1.0811 0.4479
C31 C 0.1799(7) 1.2326(5) 0.4730(4)
H33 H 0.1324 1.2827 0.5148
H34 H 0.2372 1.2483 0.4436
C32 C 0.1872(6) 1.1279(5) 0.5776(4)
C33 C 0.2376(6) 1.0000(5) 0.6616(4)
H35 H 0.1876 1.0532 0.7007
H36 H 0.3068 0.9691 0.6719
C34 C 0.0901(6) 0.9525(5) 0.7090(3)
C35 C -0.0164(5) 0.8645(5) 0.7602(3)
H37 H -0.0620 0.9223 0.7953
H38 H 0.0047 0.8103 0.7899
C36 C -0.1752(5) 0.9297(5) 0.7134(3)
C37 C -0.3326(5) 0.9556(5) 0.6727(4)
H39 H -0.3704 1.0108 0.7106
H40 H -0.3740 0.9193 0.6835
C38 C -0.3547(5) 1.0838(6) 0.5863(4)
C39 C -0.1642(5) 0.7941(5) 0.6566(4)
H41 H -0.2055 0.7594 0.6811
C40 C -0.0616(5) 0.7657(4) 0.6821(3)
H42 H -0.0546 0.7169 0.7180
C41 C 0.1842(5) 0.7862(5) 0.6772(4)
H43 H 0.2065 0.7382 0.7125
C42 C 0.2638(5) 0.8294(5) 0.6482(4)
H44 H 0.3202 0.8064 0.6735
N5 N -0.1173(5) 0.7685(4) 0.5750(3)
N6 N 0.0274(4) 0.7287(4) 0.6118(3)
N7 N 0.1869(4) 0.7442(4) 0.6083(3)
N8 N 0.3100(4) 0.7961(4) 0.5678(3)
N9 N 0.3576(5) 0.9056(4) 0.4871(3)
N10 N 0.2291(5) 1.1412(4) 0.5037(3)
N11 N 0.2536(4) 1.0372(4) 0.5889(3)
N12 N 0.1944(4) 0.9315(4) 0.6658(3)
N13 N 0.0807(4) 0.8699(4) 0.7140(3)
N14 N -0.0807(4) 0.8539(4) 0.7168(3)
N15 N -0.2254(4) 0.8959(4) 0.6792(3)
N16 N -0.3294(4) 0.9891(4) 0.5977(3)
O5 O 0.0513(4) 0.7032(4) 0.4842(3)
O6 O 0.2855(4) 0.7149(4) 0.4817(3)
O7 O -0.2104(4) 1.0135(4) 0.7372(3)
O8 O 0.0181(4) 1.0325(3) 0.7382(3)
O9 O 0.1052(5) 1.1864(4) 0.6252(3)
O10 O -0.3687(5) 1.1447(4) 0.6311(3)
C25A C 0.0083(6) 1.2686(4) 0.4500(4)
C26A C -0.1399(5) 1.3204(4) 0.3925(4)
H27A H -0.1808 1.3641 0.4387
H28A H -0.1472 1.3585 0.3498
C27A C -0.2645(5) 1.2522(5) 0.4544(4)
C28A C -0.3966(5) 1.1882(5) 0.4850(4)
H29A H -0.4338 1.2373 0.5278
H30A H -0.4493 1.1949 0.4600
C29A C -0.3499(5) 1.0112(5) 0.4763(4)
H31A H -0.4168 1.0257 0.4643
C30A C -0.3309(5) 0.9379(5) 0.5359(4)
H32A H -0.3895 0.9189 0.5521
C31A C -0.1799(7) 0.7674(5) 0.5270(4)
H33A H -0.1324 0.7173 0.4852
H34A H -0.2372 0.7517 0.5564
C32A C -0.1872(6) 0.8721(5) 0.4224(4)
C33A C -0.2376(6) 1.0000(5) 0.3384(4)
H35A H -0.1876 0.9468 0.2993
H36A H -0.3068 1.0309 0.3281
C34A C -0.0901(6) 1.0475(5) 0.2910(3)
C35A C 0.0164(5) 1.1355(5) 0.2398(3)
H37A H 0.0620 1.0777 0.2047
H38A H -0.0047 1.1897 0.2101
C36A C 0.1752(5) 1.0703(5) 0.2866(3)
C37A C 0.3326(5) 1.0444(5) 0.3273(4)
H39A H 0.3704 0.9892 0.2894
H40A H 0.3740 1.0807 0.3165
C38A C 0.3547(5) 0.9162(6) 0.4137(4)
C39A C 0.1642(5) 1.2059(5) 0.3434(4)
H41A H 0.2055 1.2406 0.3189
C40A C 0.0616(5) 1.2343(4) 0.3179(3)
H42A H 0.0546 1.2831 0.2820
C41A C -0.1842(5) 1.2138(5) 0.3228(4)
H43A H -0.2065 1.2618 0.2875
C42A C -0.2638(5) 1.1706(5) 0.3518(4)
H44A H -0.3202 1.1936 0.3265
N5A N 0.1173(5) 1.2315(4) 0.4250(3)
N6A N -0.0274(4) 1.2713(4) 0.3882(3)
N7A N -0.1869(4) 1.2558(4) 0.3917(3)
N8A N -0.3100(4) 1.2039(4) 0.4322(3)
N9A N -0.3576(5) 1.0944(4) 0.5129(3)
N10A N -0.2291(5) 0.8588(4) 0.4963(3)
N11A N -0.2536(4) 0.9628(4) 0.4111(3)
N12A N -0.1944(4) 1.0685(4) 0.3342(3)
N13A N -0.0807(4) 1.1301(4) 0.2860(3)
N14A N 0.0807(4) 1.1461(4) 0.2832(3)
N15A N 0.2254(4) 1.1041(4) 0.3208(3)
N16A N 0.3294(4) 1.0109(4) 0.4023(3)
O5A O -0.0513(4) 1.2968(4) 0.5158(3)
O6A O -0.2855(4) 1.2851(4) 0.5183(3)
O7A O 0.2104(4) 0.9865(4) 0.2628(3)
O8A O -0.0181(4) 0.9675(3) 0.2618(3)
O9A O -0.1052(5) 0.8136(4) 0.3748(3)
O10A O 0.3687(5) 0.8553(4) 0.3689(3)
C43 C 1.3437(5) 0.5418(5) -0.0048(4)
H45 H 1.3756 0.4940 0.0274
H46 H 1.3857 0.5774 -0.0189
C44 C 1.1784(5) 0.5824(5) 0.1028(4)
C45 C 1.0215(5) 0.6648(5) 0.2177(3)
H47 H 1.0649 0.6103 0.2404
H48 H 1.0044 0.7227 0.2468
C46 C 0.9020(5) 0.5845(5) 0.2452(3)
C47 C 0.7451(5) 0.5494(5) 0.2795(3)
H49 H 0.7895 0.4990 0.3046
H50 H 0.6743 0.5868 0.3167
C48 C 0.7997(5) 0.4133(4) 0.1905(3)
C49 C 0.6335(5) 0.5466(4) 0.1973(3)
H51 H 0.5676 0.5645 0.2411
C50 C 0.7357(5) 0.7102(4) 0.2423(3)
H52 H 0.6758 0.7470 0.2882
C51 C 0.8241(5) 0.7461(4) 0.2204(3)
H53 H 0.8051 0.8007 0.2554
C52 C 1.0750(5) 0.7467(5) 0.1012(3)
H54 H 1.0712 0.7974 0.1329
C53 C 1.1787(5) 0.7088(5) 0.0303(4)
H55 H 1.2244 0.7401 0.0298
C54 C 1.3477(5) 0.5358(4) -0.1437(3)
H56 H 1.4039 0.5574 -0.1630
C55 C 1.2005(5) 0.7095(4) -0.1120(3)
H57 H 1.1566 0.7524 -0.1414
H58 H 1.2623 0.7220 -0.1184
C56 C 1.0242(5) 0.7703(4) -0.0104(4)
C57 C 0.8741(5) 0.8343(4) 0.1093(4)
H59 H 0.8351 0.8714 0.0751
H60 H 0.8642 0.8792 0.1486
C58 C 0.7485(5) 0.7665(4) 0.1222(3)
C59 C 0.6013(5) 0.7187(4) 0.1741(4)
H61 H 0.5483 0.7385 0.2245
H62 H 0.5692 0.7634 0.1401
C60 C 0.6311(5) 0.5996(5) 0.0771(4)
N17 N 1.3535(4) 0.4926(4) -0.0734(3)
N18 N 1.2334(4) 0.6069(4) 0.0382(3)
N19 N 1.0869(4) 0.6629(4) 0.1406(3)
N20 N 0.9220(4) 0.6620(4) 0.2239(3)
N21 N 0.7956(4) 0.6107(4) 0.2534(3)
N22 N 0.7312(4) 0.5066(4) 0.2203(3)
N23 N 0.6228(4) 0.6241(4) 0.1494(3)
N24 N 0.6992(4) 0.7241(4) 0.1758(3)
N25 N 0.8267(4) 0.7724(3) 0.1443(3)
N26 N 0.9875(4) 0.7836(4) 0.0678(3)
N27 N 1.1355(4) 0.7308(4) -0.0324(3)
N28 N 1.2405(4) 0.6109(4) -0.1416(3)
O11 O 1.2071(4) 0.5013(3) 0.1231(3)
O12 O 0.9693(4) 0.5064(3) 0.2548(3)
O13 O 0.8822(4) 0.3594(3) 0.2054(3)
O14 O 0.9678(4) 0.7921(3) -0.0517(3)
O15 O 0.7279(4) 0.7906(3) 0.0631(2)
O16 O 0.6236(4) 0.6512(3) 0.0261(3)
C43A C 0.6563(5) 0.4582(5) 0.0048(4)
H45A H 0.6244 0.5060 -0.0274
H46A H 0.6143 0.4226 0.0189
C44A C 0.8216(5) 0.4176(5) -0.1028(4)
C45A C 0.9785(5) 0.3352(5) -0.2177(3)
H47A H 0.9351 0.3897 -0.2404
H48A H 0.9956 0.2773 -0.2468
C46A C 1.0980(5) 0.4155(5) -0.2452(3)
C47A C 1.2549(5) 0.4506(5) -0.2795(3)
H49A H 1.2105 0.5010 -0.3046
H50A H 1.3257 0.4132 -0.3167
C48A C 1.2003(5) 0.5867(4) -0.1905(3)
C49A C 1.3665(5) 0.4534(4) -0.1973(3)
H51A H 1.4324 0.4355 -0.2411
C50A C 1.2643(5) 0.2898(4) -0.2423(3)
H52A H 1.3242 0.2530 -0.2882
C51A C 1.1759(5) 0.2539(4) -0.2204(3)
H53A H 1.1949 0.1993 -0.2554
C52A C 0.9250(5) 0.2533(5) -0.1012(3)
H54A H 0.9288 0.2026 -0.1329
C53A C 0.8213(5) 0.2912(5) -0.0303(4)
H55A H 0.7756 0.2599 -0.0298
C54A C 0.6523(5) 0.4642(4) 0.1437(3)
H56A H 0.5961 0.4426 0.1630
C55A C 0.7995(5) 0.2905(4) 0.1120(3)
H57A H 0.8434 0.2476 0.1414
H58A H 0.7377 0.2780 0.1184
C56A C 0.9758(5) 0.2297(4) 0.0104(4)
C57A C 1.1259(5) 0.1657(4) -0.1093(4)
H59A H 1.1649 0.1286 -0.0751
H60A H 1.1358 0.1208 -0.1486
C58A C 1.2515(5) 0.2335(4) -0.1222(3)
C59A C 1.3987(5) 0.2813(4) -0.1741(4)
H61A H 1.4517 0.2615 -0.2245
H62A H 1.4308 0.2366 -0.1401
C60A C 1.3689(5) 0.4004(5) -0.0771(4)
N17A N 0.6465(4) 0.5074(4) 0.0734(3)
N18A N 0.7666(4) 0.3931(4) -0.0382(3)
N19A N 0.9131(4) 0.3371(4) -0.1406(3)
N20A N 1.0780(4) 0.3380(4) -0.2239(3)
N21A N 1.2044(4) 0.3893(4) -0.2534(3)
N22A N 1.2688(4) 0.4934(4) -0.2203(3)
N23A N 1.3772(4) 0.3759(4) -0.1494(3)
N24A N 1.3008(4) 0.2759(4) -0.1758(3)
N25A N 1.1733(4) 0.2276(3) -0.1443(3)
N26A N 1.0125(4) 0.2164(4) -0.0678(3)
N27A N 0.8645(4) 0.2692(4) 0.0324(3)
N28A N 0.7595(4) 0.3891(4) 0.1416(3)
O11A O 0.7929(4) 0.4987(3) -0.1231(3)
O12A O 1.0307(4) 0.4936(3) -0.2548(3)
O13A O 1.1178(4) 0.6406(3) -0.2054(3)
O14A O 1.0322(4) 0.2079(3) 0.0517(3)
O15A O 1.2721(4) 0.2094(3) -0.0631(2)
O16A O 1.3764(4) 0.3488(3) -0.0261(3)
O17 O 0.4204(6) 0.1116(6) 0.5907(5)
O18 O 0.3499(9) 0.4191(10) 0.5338(6)
O19 O 0.5002(9) 0.5926(9) 0.3976(7)
O20 O 0.2962(12) 0.2877(11) 0.5765(8)
O21 O 0.6122(6) 0.1973(5) 0.9675(4)
Cd1 Cd 0.57294(3) 0.12347(3) 0.19497(2)
Cd2 Cd 0.41433(4) 0.38655(3) 0.29087(3)
C1 C 0.4543(6) 0.0415(5) 0.1176(4)
H1 H 0.5184 -0.0146 0.1134
C2 C 0.3480(5) 0.2030(5) 0.1543(4)
H2 H 0.3371 0.2600 0.1768
C3 C 0.2667(5) 0.2039(5) 0.1283(4)
C4 C 0.2815(6) 0.1202(6) 0.0965(4)
H3 H 0.2286 0.1195 0.0780
C5 C 0.3737(7) 0.0379(6) 0.0918(4)
H4 H 0.3836 -0.0201 0.0719
C6 C 0.1650(5) 0.2974(5) 0.1358(4)
H5 H 0.1023 0.2849 0.1480
H6 H 0.1539 0.3402 0.1772
C7 C 0.0614(7) 0.4196(7) 0.0677(6)
H7 H 0.0325 0.4673 0.1105
H8 H 0.0134 0.3899 0.0748
C8 C 0.7782(5) 0.0714(4) 0.1010(3)
C9 C 0.8927(5) 0.0356(4) 0.0482(3)
C10 C 0.9785(5) 0.0132(4) 0.0767(3)
H9 H 0.9642 0.0218 0.1289
C11 C 0.9161(5) 0.0214(4) -0.0296(3)
H10 H 0.8600 0.0355 -0.0501
C12 C 0.1023(5) 0.4706(4) 0.4466(4)
C13 C 0.0149(6) 0.4810(5) 0.4236(4)
H11 H 0.0245 0.4688 0.3726
C14 C 0.0852(5) 0.4906(5) 0.5232(4)
H12 H 0.1435 0.4844 0.5385
C15 C 0.3777(5) 0.5640(5) 0.1806(4)
H13 H 0.4232 0.5114 0.1442
C16 C 0.3510(6) 0.6544(5) 0.1571(4)
H14 H 0.3816 0.6622 0.1069
C17 C 0.2791(6) 0.7319(5) 0.2084(4)
H15 H 0.2577 0.7940 0.1939
C18 C 0.2389(8) 0.7168(5) 0.2820(4)
C19 C 0.2712(7) 0.6229(5) 0.3011(4)
H16 H 0.2412 0.6129 0.3506
C20 C 0.1250(9) 0.8029(8) 0.3416(7)
C21 C 0.2134(5) 0.4388(5) 0.3894(4)
C22 C 0.0645(8) 0.4679(8) -0.0048(6)
H17 H 0.1012 0.4210 -0.0491
H18 H 0.1007 0.5080 -0.0087
C23 C 0.0630(8) 0.9253(8) 0.4303(6)
H19 H 0.0231 0.9711 0.4002
H20 H 0.0171 0.8976 0.4597
C24 C 0.0842(8) 0.9766(8) 0.4828(6)
H21 H 0.1143 1.0199 0.4636
H22 H 0.1189 0.9347 0.5164
Cl1 Cl 0.60918(13) -0.04150(11) 0.24049(10)
Cl2 Cl 0.56884(14) 0.39595(13) 0.31970(11)
Cl3 Cl 0.46670(13) 0.20632(11) 0.32973(8)
Cl4 Cl 0.51275(13) 0.30941(11) 0.15321(9)
N1 N 0.4408(4) 0.1239(4) 0.1482(3)
N2 N 0.3430(4) 0.5474(4) 0.2513(3)
N3 N 0.1706(8) 0.8424(7) 0.3748(5)
H23 H 0.2101 0.8660 0.3407
H24 H 0.2125 0.8002 0.4003
N4 N 0.1735(4) 0.3445(4) 0.0647(3)
H25 H 0.2016 0.3007 0.0244
H26 H 0.2178 0.3719 0.0601
O1 O 0.7576(3) 0.0931(3) 0.1702(2)
O2 O 0.7049(3) 0.0775(3) 0.0741(3)
O3 O 0.2852(4) 0.4486(4) 0.4090(3)
O4 O 0.2305(4) 0.4036(4) 0.3232(3)
C1A C -0.4543(6) 0.9585(5) -0.1176(4)
H1A H -0.5184 1.0146 -0.1134
C2A C -0.3480(5) 0.7970(5) -0.1543(4)
H2A H -0.3371 0.7400 -0.1768
C3A C -0.2667(5) 0.7961(5) -0.1283(4)
C4A C -0.2815(6) 0.8798(6) -0.0965(4)
H3A H -0.2286 0.8805 -0.0780
C5A C -0.3737(7) 0.9621(6) -0.0918(4)
H4A H -0.3836 1.0201 -0.0719
C6A C -0.1650(5) 0.7026(5) -0.1358(4)
H5A H -0.1023 0.7151 -0.1480
H6A H -0.1539 0.6598 -0.1772
C7A C -0.0614(7) 0.5804(7) -0.0677(6)
H7A H -0.0325 0.5327 -0.1105
H8A H -0.0134 0.6101 -0.0748
C22A C -0.0645(8) 0.5321(8) 0.0048(6)
H17A H -0.1012 0.5790 0.0491
H18A H -0.1007 0.4920 0.0087
N1A N -0.4408(4) 0.8761(4) -0.1482(3)
N4A N -0.1735(4) 0.6555(4) -0.0647(3)
H25A H -0.2016 0.6993 -0.0244
H26A H -0.2178 0.6281 -0.0601
C8A C 1.2218(5) -0.0714(4) -0.1010(3)
C9A C 1.1073(5) -0.0356(4) -0.0482(3)
C10A C 1.0215(5) -0.0132(4) -0.0767(3)
H9A H 1.0358 -0.0218 -0.1289
C11A C 1.0839(5) -0.0214(4) 0.0296(3)
H10A H 1.1400 -0.0355 0.0501
O1A O 1.2424(3) -0.0931(3) -0.1702(2)
O2A O 1.2951(3) -0.0775(3) -0.0741(3)
C12A C -0.1023(5) 0.5294(4) 0.5534(4)
C13A C -0.0149(6) 0.5190(5) 0.5764(4)
H11A H -0.0245 0.5312 0.6274
C14A C -0.0852(5) 0.5094(5) 0.4768(4)
H12A H -0.1435 0.5156 0.4615
C21A C -0.2134(5) 0.5612(5) 0.6106(4)
O3A O -0.2852(4) 0.5514(4) 0.5910(3)
O4A O -0.2305(4) 0.5964(4) 0.6768(3)
Cd1A Cd -0.57294(3) 0.87653(3) -0.19497(2)
Cd2A Cd -0.41433(4) 0.61345(3) -0.29087(3)
C15A C -0.3777(5) 0.4360(5) -0.1806(4)
H13A H -0.4232 0.4886 -0.1442
C16A C -0.3510(6) 0.3456(5) -0.1571(4)
H14A H -0.3816 0.3378 -0.1069
C17A C -0.2791(6) 0.2681(5) -0.2084(4)
H15A H -0.2577 0.2060 -0.1939
C18A C -0.2389(8) 0.2832(5) -0.2820(4)
C19A C -0.2712(7) 0.3771(5) -0.3011(4)
H16A H -0.2412 0.3871 -0.3506
C20A C -0.1250(9) 0.1971(8) -0.3416(7)
C23A C -0.0630(8) 0.0747(8) -0.4303(6)
H19A H -0.0231 0.0289 -0.4002
H20A H -0.0171 0.1024 -0.4597
C24A C -0.0842(8) 0.0234(8) -0.4828(6)
H21A H -0.1143 -0.0199 -0.4636
H22A H -0.1189 0.0653 -0.5164
Cl1A Cl -0.60918(13) 1.04150(11) -0.24049(10)
Cl2A Cl -0.56884(14) 0.60405(13) -0.31970(11)
Cl3A Cl -0.46670(13) 0.79368(11) -0.32973(8)
Cl4A Cl -0.51275(13) 0.69059(11) -0.15321(9)
N2A N -0.3430(4) 0.4526(4) -0.2513(3)
N3A N -0.1706(8) 0.1576(7) -0.3748(5)
H23A H -0.2101 0.1340 -0.3407
H24A H -0.2125 0.1998 -0.4003
Cd1A_2 Cd 1.42706(3) -0.12347(3) -0.19497(2)
Cd2A_2 Cd -0.41433(4) 0.61345(3) 0.70913(3)
O1A_2 O -0.7576(3) 0.9069(3) -0.1702(2)
O2A_2 O -0.7049(3) 0.9225(3) -0.0741(3)
O3A_2 O -0.2852(4) 0.5514(4) -0.4090(3)
O4A_2 O -0.2305(4) 0.5964(4) -0.3232(3)
loop_
_geom_bond_atom_site_label_1
_geom_bond_atom_site_label_2
_geom_bond_site_symmetry_1
_geom_bond_site_symmetry_2
Cd1 Cl1 1_555 1_555
Cd2 Cl2 1_555 1_555
C1 H1 1_555 1_555
C2 H2 1_555 1_555
C3 C2 1_555 1_555
C4 C3 1_555 1_555
H3 C4 1_555 1_555
C5 C1 1_555 1_555
H4 C5 1_555 1_555
C6 C3 1_555 1_555
H5 C6 1_555 1_555
H6 C6 1_555 1_555
C7 H7 1_555 1_555
H8 C7 1_555 1_555
C8 C9 1_555 1_555
C9 C10 1_555 1_555
C10 H9 1_555 1_555
C11 C9 1_555 1_555
H10 C11 1_555 1_555
C12 C13 1_555 1_555
C13 H11 1_555 1_555
C14 C12 1_555 1_555
H12 C14 1_555 1_555
C15 H13 1_555 1_555
C16 C15 1_555 1_555
H14 C16 1_555 1_555
C17 C16 1_555 1_555
H15 C17 1_555 1_555
C18 C17 1_555 1_555
C19 C18 1_555 1_555
H16 C19 1_555 1_555
C20 C18 1_555 1_555
C21 C12 1_555 1_555
C22 C7 1_555 1_555
H17 C22 1_555 1_555
H18 C22 1_555 1_555
C23 H19 1_555 1_555
H20 C23 1_555 1_555
C24 C23 1_555 1_555
H21 C24 1_555 1_555
H22 C24 1_555 1_555
Cl3 Cd1 1_555 1_555
Cl4 Cd1 1_555 1_555
N1 Cd1 1_555 1_555
N2 Cd2 1_555 1_555
N3 C20 1_555 1_555
H23 N3 1_555 1_555
H24 N3 1_555 1_555
N4 C6 1_555 1_555
H25 N4 1_555 1_555
H26 N4 1_555 1_555
O1 Cd1 1_555 1_555
O2 Cd1 1_555 1_555
O3 Cd2 1_555 1_555
O4 Cd2 1_555 1_555
C25 N5 1_555 1_555
C26 H27 1_555 1_555
H28 C26 1_555 1_555
C27 N7 1_555 1_555
C28 H29 1_555 1_555
H30 C28 1_555 1_555
C29 H31 1_555 1_555
C30 C29 1_555 1_555
H32 C30 1_555 1_555
C31 H33 1_555 1_555
H34 C31 1_555 1_555
C32 N10 1_555 1_555
C33 H35 1_555 1_555
H36 C33 1_555 1_555
C34 N12 1_555 1_555
C35 H37 1_555 1_555
H38 C35 1_555 1_555
C36 N14 1_555 1_555
C37 H39 1_555 1_555
H40 C37 1_555 1_555
C38 N16 1_555 1_555
C39 H41 1_555 1_555
C40 C39 1_555 1_555
H42 C40 1_555 1_555
C41 H43 1_555 1_555
C42 C41 1_555 1_555
H44 C42 1_555 1_555
N5 C39 1_555 1_555
N6 C25 1_555 1_555
N7 C26 1_555 1_555
N8 C27 1_555 1_555
N9 C28 1_555 1_555
N10 C30 1_555 1_555
N11 C29 1_555 1_555
N12 C33 1_555 1_555
N13 C34 1_555 1_555
N14 C35 1_555 1_555
N15 C36 1_555 1_555
N16 C37 1_555 1_555
O5 C25 1_555 1_555
O6 C27 1_555 1_555
O7 C36 1_555 1_555
O8 C34 1_555 1_555
O9 C32 1_555 1_555
O10 C38 1_555 1_555
C43 H45 1_555 1_555
H46 C43 1_555 1_555
C44 N18 1_555 1_555
C45 H47 1_555 1_555
H48 C45 1_555 1_555
C46 N20 1_555 1_555
C47 H49 1_555 1_555
H50 C47 1_555 1_555
C48 N22 1_555 1_555
C49 H51 1_555 1_555
C50 H52 1_555 1_555
C51 C50 1_555 1_555
H53 C51 1_555 1_555
C52 H54 1_555 1_555
C53 C52 1_555 1_555
H55 C53 1_555 1_555
C54 H56 1_555 1_555
C55 H57 1_555 1_555
H58 C55 1_555 1_555
C56 N26 1_555 1_555
C57 H59 1_555 1_555
H60 C57 1_555 1_555
C58 N24 1_555 1_555
C59 H61 1_555 1_555
H62 C59 1_555 1_555
C60 N23 1_555 1_555
N17 C43 1_555 1_555
N18 C43 1_555 1_555
N19 C44 1_555 1_555
N20 C45 1_555 1_555
N21 C46 1_555 1_555
N22 C47 1_555 1_555
N23 C49 1_555 1_555
N24 C50 1_555 1_555
N25 C51 1_555 1_555
N26 C52 1_555 1_555
N27 C53 1_555 1_555
N28 C54 1_555 1_555
O11 C44 1_555 1_555
O12 C46 1_555 1_555
O13 C48 1_555 1_555
O14 C56 1_555 1_555
O15 C58 1_555 1_555
O16 C60 1_555 1_555
C1A H1A 1_555 1_555
C2A H2A 1_555 1_555
C3A C2A 1_555 1_555
C4A C3A 1_555 1_555
H3A C4A 1_555 1_555
C5A C1A 1_555 1_555
H4A C5A 1_555 1_555
C6A C3A 1_555 1_555
H5A C6A 1_555 1_555
H6A C6A 1_555 1_555
C7A H7A 1_555 1_555
H8A C7A 1_555 1_555
C22A C22 1_555 1_555
H17A C22A 1_555 1_555
H18A C22A 1_555 1_555
N1A C1A 1_555 1_555
N4A C6A 1_555 1_555
H25A N4A 1_555 1_555
H26A N4A 1_555 1_555
C8A C9A 1_555 1_555
C9A C10A 1_555 1_555
C10A C11 1_555 1_555
H9A C10A 1_555 1_555
C11A C10 1_555 1_555
H10A C11A 1_555 1_555
O1A C8A 1_555 1_555
O2A C8A 1_555 1_555
C12A C13A 1_555 1_555
C13A C14 1_555 1_555
H11A C13A 1_555 1_555
C14A C13 1_555 1_555
H12A C14A 1_555 1_555
C21A C12A 1_555 1_555
O3A C21A 1_555 1_555
O4A C21A 1_555 1_555
Cd1A N1A 1_555 1_555
Cd2A Cl2A 1_555 1_555
C15A H13A 1_555 1_555
C16A C15A 1_555 1_555
H14A C16A 1_555 1_555
C17A C16A 1_555 1_555
H15A C17A 1_555 1_555
C18A C17A 1_555 1_555
C19A C18A 1_555 1_555
H16A C19A 1_555 1_555
C20A C18A 1_555 1_555
C23A H19A 1_555 1_555
H20A C23A 1_555 1_555
C24A C23A 1_555 1_555
H21A C24A 1_555 1_555
H22A C24A 1_555 1_555
Cl1A Cd1A 1_555 1_555
Cl3A Cd1A 1_555 1_555
Cl4A Cd1A 1_555 1_555
N2A Cd2A 1_555 1_555
N3A C20A 1_555 1_555
H23A N3A 1_555 1_555
H24A N3A 1_555 1_555
Cd1A_2 O1A 1_555 1_555
Cd2A_2 O3A 1_555 1_555
O1A_2 Cd1A 1_555 1_555
O2A_2 Cd1A 1_555 1_555
O3A_2 Cd2A 1_555 1_555
O4A_2 Cd2A 1_555 1_555
C25A N5A 1_555 1_555
C26A H27A 1_555 1_555
H28A C26A 1_555 1_555
C27A N7A 1_555 1_555
C28A H29A 1_555 1_555
H30A C28A 1_555 1_555
C29A H31A 1_555 1_555
C30A N16 1_555 1_555
H32A C30A 1_555 1_555
C31A N5 1_555 1_555
H33A C31A 1_555 1_555
H34A C31A 1_555 1_555
C32A N10A 1_555 1_555
C33A H35A 1_555 1_555
H36A C33A 1_555 1_555
C34A N12A 1_555 1_555
C35A H37A 1_555 1_555
H38A C35A 1_555 1_555
C36A N14A 1_555 1_555
C37A H39A 1_555 1_555
H40A C37A 1_555 1_555
C38A N9 1_555 1_555
C39A H41A 1_555 1_555
C40A C39A 1_555 1_555
H42A C40A 1_555 1_555
C41A H43A 1_555 1_555
C42A C41A 1_555 1_555
H44A C42A 1_555 1_555
N5A C31 1_555 1_555
N6A C25A 1_555 1_555
N7A C26A 1_555 1_555
N8A C27A 1_555 1_555
N9A C38 1_555 1_555
N10A C30A 1_555 1_555
N11A C29A 1_555 1_555
N12A C33A 1_555 1_555
N13A C34A 1_555 1_555
N14A C35A 1_555 1_555
N15A C36A 1_555 1_555
N16A C30 1_555 1_555
O5A C25A 1_555 1_555
O6A C27A 1_555 1_555
O7A C36A 1_555 1_555
O8A C34A 1_555 1_555
O9A C32A 1_555 1_555
O10A C38A 1_555 1_555
C43A H45A 1_555 1_555
H46A C43A 1_555 1_555
C44A N18A 1_555 1_555
C45A H47A 1_555 1_555
H48A C45A 1_555 1_555
C46A N20A 1_555 1_555
C47A H49A 1_555 1_555
H50A C47A 1_555 1_555
C48A N28 1_555 1_555
C49A C54 1_555 1_555
H51A C49A 1_555 1_555
C50A H52A 1_555 1_555
C51A C50A 1_555 1_555
H53A C51A 1_555 1_555
C52A H54A 1_555 1_555
C53A C52A 1_555 1_555
H55A C53A 1_555 1_555
C54A C49 1_555 1_555
H56A C54A 1_555 1_555
C55A H57A 1_555 1_555
H58A C55A 1_555 1_555
C56A N26A 1_555 1_555
C57A H59A 1_555 1_555
H60A C57A 1_555 1_555
C58A N24A 1_555 1_555
C59A H61A 1_555 1_555
H62A C59A 1_555 1_555
C60A N17 1_555 1_555
N17A C60 1_555 1_555
N18A C43A 1_555 1_555
N19A C44A 1_555 1_555
N20A C45A 1_555 1_555
N21A C46A 1_555 1_555
N22A C47A 1_555 1_555
N23A C49A 1_555 1_555
N24A C50A 1_555 1_555
N25A C51A 1_555 1_555
N26A C52A 1_555 1_555
N27A C53A 1_555 1_555
N28A C48 1_555 1_555
O11A C44A 1_555 1_555
O12A C46A 1_555 1_555
O13A C48A 1_555 1_555
O14A C56A 1_555 1_555
O15A C58A 1_555 1_555
O16A C60A 1_555 1_555
Cd2 Cl3 1_555 1_555
Cd2 Cl4 1_555 1_555
C1 N1 1_555 1_555
C2 N1 1_555 1_555
C4 C5 1_555 1_555
C7 N4 1_555 1_555
C8 O1 1_555 1_555
C8 O2 1_555 1_555
C15 N2 1_555 1_555
C19 N2 1_555 1_555
C21 O3 1_555 1_555
C21 O4 1_555 1_555
C23 N3 1_555 1_555
C26 N6 1_555 1_555
C28 N8 1_555 1_555
C29 N9 1_555 1_555
C31 N10 1_555 1_555
C32 N11 1_555 1_555
C33 N11 1_555 1_555
C35 N13 1_555 1_555
C37 N15 1_555 1_555
C39 N15 1_555 1_555
C40 N6 1_555 1_555
C40 N14 1_555 1_555
C41 N7 1_555 1_555
C41 N13 1_555 1_555
C42 N8 1_555 1_555
C42 N12 1_555 1_555
C45 N19 1_555 1_555
C47 N21 1_555 1_555
C49 N22 1_555 1_555
C50 N21 1_555 1_555
C51 N20 1_555 1_555
C52 N19 1_555 1_555
C53 N18 1_555 1_555
C54 N17 1_555 1_555
C55 N27 1_555 1_555
C55 N28 1_555 1_555
C56 N27 1_555 1_555
C57 N25 1_555 1_555
C57 N26 1_555 1_555
C58 N25 1_555 1_555
C59 N23 1_555 1_555
C59 N24 1_555 1_555
C2A N1A 1_555 1_555
C4A C5A 1_555 1_555
C7A C22A 1_555 1_555
C7A N4A 1_555 1_555
C9A C11A 1_555 1_555
O2A Cd1A_2 1_555 1_555
C12A C14A 1_555 1_555
O4A Cd2A_2 1_555 1_555
Cd2A Cl3A 1_555 1_555
Cd2A Cl4A 1_555 1_555
C15A N2A 1_555 1_555
C19A N2A 1_555 1_555
C23A N3A 1_555 1_555
C26A N6A 1_555 1_555
C28A N8A 1_555 1_555
C28A N9A 1_555 1_555
C29A C30A 1_555 1_555
C29A N9A 1_555 1_555
C31A N10A 1_555 1_555
C32A N11A 1_555 1_555
C33A N11A 1_555 1_555
C35A N13A 1_555 1_555
C37A N15A 1_555 1_555
C37A N16A 1_555 1_555
C38A N16A 1_555 1_555
C39A N5A 1_555 1_555
C39A N15A 1_555 1_555
C40A N6A 1_555 1_555
C40A N14A 1_555 1_555
C41A N7A 1_555 1_555
C41A N13A 1_555 1_555
C42A N8A 1_555 1_555
C42A N12A 1_555 1_555
C43A N17A 1_555 1_555
C45A N19A 1_555 1_555
C47A N21A 1_555 1_555
C48A N22A 1_555 1_555
C49A N22A 1_555 1_555
C50A N21A 1_555 1_555
C51A N20A 1_555 1_555
C52A N19A 1_555 1_555
C53A N18A 1_555 1_555
C54A N17A 1_555 1_555
C54A N28A 1_555 1_555
C55A N27A 1_555 1_555
C55A N28A 1_555 1_555
C56A N27A 1_555 1_555
C57A N25A 1_555 1_555
C57A N26A 1_555 1_555
C58A N25A 1_555 1_555
C59A N23A 1_555 1_555
C59A N24A 1_555 1_555
C60A N23A 1_555 1_555

#END
