
#######################################################################
#
#                 Cambridge Crystallographic Data Centre
#                                CCDC 
#
#######################################################################
#
# If this CIF has been generated from an entry in the Cambridge 
# Structural Database, then it will include bibliographic, chemical, 
# crystal, experimental, refinement or atomic coordinate data resulting 
# from the CCDC's data processing and validation procedures.
#
#######################################################################

data_PULQUK
_symmetry_cell_setting           monoclinic
_symmetry_space_group_name_H-M   'P 21/c'
_symmetry_Int_Tables_number      14
_space_group_name_Hall           '-P 2ybc'
loop_
_symmetry_equiv_pos_site_id
_symmetry_equiv_pos_as_xyz
1 x,y,z
2 -x,1/2+y,1/2-z
3 -x,-y,-z
4 x,1/2-y,1/2+z
_cell_length_a                   13.819(5)
_cell_length_b                   19.687(5)
_cell_length_c                   14.400(5)
_cell_angle_alpha                90
_cell_angle_beta                 97.101(5)
_cell_angle_gamma                90
_cell_volume                     3887.54
loop_
_atom_site_label
_atom_site_type_symbol
_atom_site_fract_x
_atom_site_fract_y
_atom_site_fract_z
C1 C 0.4729(2) 0.86601(17) 0.3796(2)
H1 H 0.4819 0.9015 0.4223
C2 C 0.0963(3) 1.08800(19) 0.2796(3)
H2 H 0.1490 1.1060 0.3234
H3 H 0.0414 1.1189 0.2776
C3 C 0.0267(5) 1.0214(4) 0.4012(4)
H4 H 0.0721 1.0464 0.4453
H5 H -0.0329 1.0479 0.3916
C4 C 0.4817(3) 0.74709(17) 0.3464(2)
C5 C 0.4930(2) 0.80046(17) 0.4094(2)
H6 H 0.5142 0.7920 0.4721
C6 C 0.1286(3) 1.08260(17) 0.1839(2)
C7 C 0.1940(3) 1.0721(2) 0.0146(3)
H7 H 0.2161 1.0687 -0.0436
C8 C 0.5105(3) 0.67613(17) 0.3764(3)
C9 C 0.4395(2) 0.87979(16) 0.2865(2)
C10 C 0.0619(3) 1.07772(19) 0.1036(3)
H8 H -0.0047 1.0778 0.1079
C11 C 0.4235(2) 0.95276(18) 0.2539(3)
C12 C 0.4264(3) 0.8266(2) 0.2244(3)
H9 H 0.4033 0.8350 0.1620
C13 C 0.0952(3) 1.0728(2) 0.0179(3)
H10 H 0.0517 1.0700 -0.0367
C14 C 0.4472(3) 0.7603(2) 0.2538(3)
H11 H 0.4379 0.7248 0.2111
C15 C 0.2265(3) 1.08130(18) 0.1729(2)
H12 H 0.2717 1.0842 0.2262
C16 C 0.0053(9) 0.9620(6) 0.4442(8)
H13 H -0.0417 0.9376 0.4022
H14 H 0.0638 0.9356 0.4565
Cd1 Cd 0.427556(16) 1.046461(11) 0.085127(16)
Cl1 Cl 0.39478(6) 1.00645(5) -0.08422(6)
N1 N 0.2599(2) 1.07607(15) 0.0898(2)
N2 N 0.0675(2) 1.02028(17) 0.3117(2)
H15 H 0.0231 1.0022 0.2677
H16 H 0.1202 0.9930 0.3175
O1 O 0.5098(2) 0.63073(13) 0.31513(19)
O2 O 0.5349(3) 0.66298(15) 0.4601(2)
O3 O 0.45009(19) 0.99955(13) 0.3078(2)
O4 O 0.38486(19) 0.95927(13) 0.1694(2)
C2B C -0.0963(3) 0.91200(19) 0.7204(3)
H2B H -0.1490 0.8940 0.6766
H3B H -0.0414 0.8811 0.7224
C3B C -0.0267(5) 0.9786(4) 0.5988(4)
H4B H -0.0721 0.9536 0.5547
H5B H 0.0329 0.9521 0.6084
C6B C -0.1286(3) 0.91740(17) 0.8161(2)
C7B C -0.1940(3) 0.9279(2) 0.9854(3)
H7B H -0.2161 0.9313 1.0436
C10B C -0.0619(3) 0.92228(19) 0.8964(3)
H8B H 0.0047 0.9222 0.8921
C13B C -0.0952(3) 0.9272(2) 0.9821(3)
H10B H -0.0517 0.9300 1.0367
C15B C -0.2265(3) 0.91870(18) 0.8271(2)
H12B H -0.2717 0.9158 0.7738
C16B C -0.0053(9) 1.0380(6) 0.5558(8)
H13B H 0.0417 1.0624 0.5978
H14B H -0.0638 1.0644 0.5435
N1B N -0.2599(2) 0.92393(15) 0.9102(2)
N2B N -0.0675(2) 0.97972(17) 0.6883(2)
H15B H -0.0231 0.9978 0.7323
H16B H -0.1202 1.0070 0.6825
C1A C 0.5271(2) 0.36601(17) 0.1204(2)
H1A H 0.5181 0.4015 0.0777
C4A C 0.5183(3) 0.24709(17) 0.1536(2)
C5A C 0.5070(2) 0.30046(17) 0.0906(2)
H6A H 0.4858 0.2920 0.0279
C8A C 0.4895(3) 0.17613(17) 0.1236(3)
C9A C 0.5605(2) 0.37979(16) 0.2135(2)
C11A C 0.5765(2) 0.45276(18) 0.2461(3)
C12A C 0.5736(3) 0.3266(2) 0.2756(3)
H9A H 0.5967 0.3350 0.3380
C14A C 0.5528(3) 0.2603(2) 0.2462(3)
H11A H 0.5621 0.2248 0.2889
Cd1A Cd 0.572444(16) 0.546461(11) 0.414873(16)
Cl1A Cl 0.60522(6) 0.50645(5) 0.58422(6)
O1A O 0.4902(2) 0.13073(13) 0.18487(19)
O2A O 0.4651(3) 0.16298(15) 0.0399(2)
O3A O 0.54991(19) 0.49955(13) 0.1922(2)
O4A O 0.61514(19) 0.45927(13) 0.3306(2)
Cd1_2 Cd 0.427556(16) 0.046461(11) 0.085127(16)
Cd1B Cd -0.427556(16) 0.953539(11) 0.914873(16)
Cd1B_2 Cd 0.572444(16) 0.953539(11) -0.085127(16)
Cd1C Cd 0.427556(16) 0.453539(11) 0.585127(16)
Cl1B Cl 0.60522(6) 0.99355(5) 0.08422(6)
Cl1C Cl 0.39478(6) 0.49355(5) 0.41578(6)
N1A N 0.7401(2) 0.57607(15) 0.4102(2)
O1A_2 O 0.4902(2) 1.13073(13) 0.18487(19)
O2A_2 O 0.4651(3) 1.16298(15) 0.0399(2)
C19 C 0.3042(2) 0.86766(18) 0.5775(2)
H17 H 0.3724 0.8566 0.5993
C20 C 0.1467(2) 1.14792(19) 0.7890(2)
H18 H 0.1908 1.1839 0.8128
H19 H 0.1177 1.1291 0.8413
C21 C 0.2826(2) 1.09710(18) 0.5365(2)
C22 C 0.0253(2) 0.83969(17) 0.2744(2)
C23 C 0.1694(2) 0.83295(17) 0.6494(2)
C24 C 0.1867(2) 0.80008(18) 0.3467(2)
H20 H 0.2086 0.8203 0.2915
H21 H 0.2114 0.7539 0.3520
C25 C 0.3204(2) 1.03740(17) 0.6766(2)
H22 H 0.3865 1.0288 0.7075
C26 C 0.2516(2) 0.80870(17) 0.5205(2)
H23 H 0.2937 0.7688 0.5189
C27 C 0.2347(3) 1.21011(18) 0.5893(3)
H24 H 0.2706 1.2371 0.6384
H25 H 0.2565 1.2234 0.5304
C28 C 0.3570(2) 0.98415(18) 0.5243(2)
H26 H 0.4200 0.9712 0.5568
H27 H 0.3676 1.0015 0.4633
C29 C 0.2728(3) 0.92146(18) 0.7327(2)
H28 H 0.3422 0.9176 0.7530
H29 H 0.2385 0.9073 0.7842
C30 C -0.0819(2) 0.76398(17) 0.3335(2)
H30 H -0.1103 0.7262 0.2949
C31 C 0.2842(2) 1.10970(18) 0.6986(2)
H31 H 0.3346 1.1362 0.7365
C32 C 0.2518(2) 0.90523(17) 0.4252(2)
C33 C 0.0714(3) 1.23031(17) 0.5027(3)
C34 C 0.1837(2) 1.02768(18) 0.7556(2)
C35 C 0.0243(2) 0.74815(17) 0.3768(2)
H32 H 0.0435 0.7019 0.3619
C36 C 0.1006(3) 0.73985(17) 0.5475(3)
H33 H 0.0739 0.7264 0.6039
H34 H 0.1358 0.7012 0.5266
N3 N 0.2581(2) 1.13903(15) 0.6064(2)
N4 N 0.3169(2) 1.03773(14) 0.5762(2)
N5 N 0.2958(2) 0.92420(14) 0.51130(19)
N6 N 0.2272(2) 0.83820(14) 0.42839(19)
N7 N 0.08138(19) 0.79819(14) 0.3348(2)
N8 N -0.07041(19) 0.82366(14) 0.27784(19)
N9 N 0.0208(2) 0.75657(15) 0.4758(2)
N10 N 0.1683(2) 0.79507(15) 0.5697(2)
N11 N 0.2474(2) 0.87623(15) 0.65464(19)
N12 N 0.24956(19) 0.99234(15) 0.71084(19)
N13 N 0.2017(2) 1.09533(15) 0.7486(2)
N14 N 0.1322(2) 1.22543(16) 0.5858(2)
O5 O 0.11156(18) 0.82850(14) 0.70693(17)
O6 O 0.11838(17) 1.00282(13) 0.79567(17)
O7 O 0.0952(2) 1.22508(15) 0.42447(19)
O8 O 0.23767(17) 0.94196(12) 0.35613(16)
O9 O 0.05476(17) 0.88439(13) 0.22597(17)
O10 O 0.27549(19) 1.11106(14) 0.45351(18)
C19B C -0.3042(2) 1.13234(18) 0.4225(2)
H17B H -0.3724 1.1434 0.4007
C20B C -0.1467(2) 0.85208(19) 0.2110(2)
H18B H -0.1908 0.8161 0.1872
H19B H -0.1177 0.8709 0.1587
C21B C -0.2826(2) 0.90290(18) 0.4635(2)
C22B C -0.0253(2) 1.16031(17) 0.7256(2)
C23B C -0.1694(2) 1.16705(17) 0.3506(2)
C24B C -0.1867(2) 1.19992(18) 0.6533(2)
H20B H -0.2086 1.1797 0.7085
H21B H -0.2114 1.2461 0.6480
C25B C -0.3204(2) 0.96260(17) 0.3234(2)
H22B H -0.3865 0.9712 0.2925
C26B C -0.2516(2) 1.19130(17) 0.4795(2)
H23B H -0.2937 1.2312 0.4811
C27B C -0.2347(3) 0.78989(18) 0.4107(3)
H24B H -0.2706 0.7629 0.3616
H25B H -0.2565 0.7766 0.4696
C28B C -0.3570(2) 1.01585(18) 0.4757(2)
H26B H -0.4200 1.0288 0.4432
H27B H -0.3676 0.9985 0.5367
C29B C -0.2728(3) 1.07854(18) 0.2673(2)
H28B H -0.3422 1.0824 0.2470
H29B H -0.2385 1.0927 0.2158
C30B C 0.0819(2) 1.23602(17) 0.6665(2)
H30B H 0.1103 1.2738 0.7051
C31B C -0.2842(2) 0.89030(18) 0.3014(2)
H31B H -0.3346 0.8638 0.2635
C32B C -0.2518(2) 1.09477(17) 0.5748(2)
C33B C -0.0714(3) 0.76969(17) 0.4973(3)
C34B C -0.1837(2) 0.97232(18) 0.2444(2)
C35B C -0.0243(2) 1.25185(17) 0.6232(2)
H32B H -0.0435 1.2981 0.6381
C36B C -0.1006(3) 1.26015(17) 0.4525(3)
H33B H -0.0739 1.2736 0.3961
H34B H -0.1358 1.2988 0.4734
N3B N -0.2581(2) 0.86097(15) 0.3936(2)
N4B N -0.3169(2) 0.96227(14) 0.4238(2)
N5B N -0.2958(2) 1.07580(14) 0.48870(19)
N6B N -0.2272(2) 1.16180(14) 0.57161(19)
N7B N -0.08138(19) 1.20181(14) 0.6652(2)
N8B N 0.07041(19) 1.17634(14) 0.72216(19)
N9B N -0.0208(2) 1.24343(15) 0.5242(2)
N10B N -0.1683(2) 1.20493(15) 0.4303(2)
N11B N -0.2474(2) 1.12377(15) 0.34536(19)
N12B N -0.24956(19) 1.00766(15) 0.28916(19)
N13B N -0.2017(2) 0.90467(15) 0.2514(2)
N14B N -0.1322(2) 0.77457(16) 0.4142(2)
O5B O -0.11156(18) 1.17150(14) 0.29307(17)
O6B O -0.11838(17) 0.99718(13) 0.20433(17)
O7B O -0.0952(2) 0.77492(15) 0.57553(19)
O8B O -0.23767(17) 1.05804(12) 0.64387(16)
O9B O -0.05476(17) 1.11561(13) 0.77403(17)
O10B O -0.27549(19) 0.88894(14) 0.54649(18)
O11 O 0.5567(3) 0.85533(19) 0.6315(2)
O12 O 0.2862(4) 0.8502(2) 0.9557(3)
O13 O 0.2012(3) 0.9083(2) 0.1090(3)
O14 O 0.3499(3) 0.2178(2) 0.8748(3)
C17? C 0.0664(9) 1.0389(7) 0.4841(8)
C18? C -0.0154(9) 1.0552(7) 0.4597(8)
loop_
_geom_bond_atom_site_label_1
_geom_bond_atom_site_label_2
_geom_bond_site_symmetry_1
_geom_bond_site_symmetry_2
C1 H1 1_555 1_555
C2 H2 1_555 1_555
H3 C2 1_555 1_555
C3 H4 1_555 1_555
H5 C3 1_555 1_555
C4 C5 1_555 1_555
C5 C1 1_555 1_555
H6 C5 1_555 1_555
C6 C2 1_555 1_555
C7 H7 1_555 1_555
C8 C4 1_555 1_555
C9 C1 1_555 1_555
C10 C6 1_555 1_555
H8 C10 1_555 1_555
C11 C9 1_555 1_555
C12 C9 1_555 1_555
H9 C12 1_555 1_555
C13 C7 1_555 1_555
H10 C13 1_555 1_555
C14 C4 1_555 1_555
H11 C14 1_555 1_555
C15 C6 1_555 1_555
H12 C15 1_555 1_555
C16 C3 1_555 1_555
H13 C16 1_555 1_555
H14 C16 1_555 1_555
Cd1 Cl1 1_555 1_555
Cl1 Cd1B_2 1_555 1_555
N1 C7 1_555 1_555
N2 C2 1_555 1_555
H15 N2 1_555 1_555
H16 N2 1_555 1_555
O1 C8 1_555 1_555
O2 C8 1_555 1_555
O3 C11 1_555 1_555
O4 C11 1_555 1_555
C19 H17 1_555 1_555
C20 H18 1_555 1_555
H19 C20 1_555 1_555
C21 N3 1_555 1_555
C22 N7 1_555 1_555
C23 N10 1_555 1_555
C24 H20 1_555 1_555
H21 C24 1_555 1_555
C25 H22 1_555 1_555
C26 C19 1_555 1_555
H23 C26 1_555 1_555
C27 H24 1_555 1_555
H25 C27 1_555 1_555
C28 H26 1_555 1_555
H27 C28 1_555 1_555
C29 H28 1_555 1_555
H29 C29 1_555 1_555
C30 H30 1_555 1_555
C31 C25 1_555 1_555
H31 C31 1_555 1_555
C32 N5 1_555 1_555
C33 N14 1_555 1_555
C34 N12 1_555 1_555
C35 C30 1_555 1_555
H32 C35 1_555 1_555
C36 H33 1_555 1_555
H34 C36 1_555 1_555
N3 C27 1_555 1_555
N4 C21 1_555 1_555
N5 C19 1_555 1_555
N6 C24 1_555 1_555
N7 C24 1_555 1_555
N8 C22 1_555 1_555
N9 C35 1_555 1_555
N10 C26 1_555 1_555
N11 C19 1_555 1_555
N12 C25 1_555 1_555
N13 C20 1_555 1_555
N14 C27 1_555 1_555
O5 C23 1_555 1_555
O6 C34 1_555 1_555
O7 C33 1_555 1_555
O8 C32 1_555 1_555
O9 C22 1_555 1_555
O10 C21 1_555 1_555
C2B H2B 1_555 1_555
H3B C2B 1_555 1_555
C3B H4B 1_555 1_555
H5B C3B 1_555 1_555
C6B C2B 1_555 1_555
C7B H7B 1_555 1_555
C10B C6B 1_555 1_555
H8B C10B 1_555 1_555
C13B C7B 1_555 1_555
H10B C13B 1_555 1_555
C15B C6B 1_555 1_555
H12B C15B 1_555 1_555
C16B C16 1_555 1_555
H13B C16B 1_555 1_555
H14B C16B 1_555 1_555
N1B C7B 1_555 1_555
N2B C2B 1_555 1_555
H15B N2B 1_555 1_555
H16B N2B 1_555 1_555
C1A H1A 1_555 1_555
C4A C5A 1_555 1_555
C5A C1A 1_555 1_555
H6A C5A 1_555 1_555
C8A C4A 1_555 1_555
C9A C1A 1_555 1_555
C11A C9A 1_555 1_555
C12A C9A 1_555 1_555
H9A C12A 1_555 1_555
C14A C4A 1_555 1_555
H11A C14A 1_555 1_555
Cd1A O1 1_555 1_555
Cl1A Cd1A 1_555 1_555
O1A C8A 1_555 1_555
O2A C8A 1_555 1_555
O3A C11A 1_555 1_555
O4A C11A 1_555 1_555
Cd1_2 O1A 1_555 1_555
Cd1B N1B 1_555 1_555
Cd1B_2 Cl1B 1_555 1_555
Cd1C Cl1A 1_555 1_555
Cl1B Cd1 1_555 1_555
Cl1C Cd1A 1_555 1_555
N1A Cd1A 1_555 1_555
O1A_2 Cd1 1_555 1_555
O2A_2 Cd1 1_555 1_555
C19B H17B 1_555 1_555
C20B N8 1_555 1_555
H18B C20B 1_555 1_555
H19B C20B 1_555 1_555
C21B N3B 1_555 1_555
C22B N7B 1_555 1_555
C23B N10B 1_555 1_555
C24B H20B 1_555 1_555
H21B C24B 1_555 1_555
C25B H22B 1_555 1_555
C26B C19B 1_555 1_555
H23B C26B 1_555 1_555
C27B H24B 1_555 1_555
H25B C27B 1_555 1_555
C28B H26B 1_555 1_555
H27B C28B 1_555 1_555
C29B H28B 1_555 1_555
H29B C29B 1_555 1_555
C30B N14 1_555 1_555
H30B C30B 1_555 1_555
C31B C25B 1_555 1_555
H31B C31B 1_555 1_555
C32B N5B 1_555 1_555
C33B N9 1_555 1_555
C34B N12B 1_555 1_555
C35B C30B 1_555 1_555
H32B C35B 1_555 1_555
C36B H33B 1_555 1_555
H34B C36B 1_555 1_555
N3B C27B 1_555 1_555
N4B C21B 1_555 1_555
N5B C19B 1_555 1_555
N6B C24B 1_555 1_555
N7B C24B 1_555 1_555
N8B C20 1_555 1_555
N9B C33 1_555 1_555
N10B C26B 1_555 1_555
N11B C19B 1_555 1_555
N12B C25B 1_555 1_555
N13B C20B 1_555 1_555
N14B C30 1_555 1_555
O5B C23B 1_555 1_555
O6B C34B 1_555 1_555
O7B C33B 1_555 1_555
O8B C32B 1_555 1_555
O9B C22B 1_555 1_555
O10B C21B 1_555 1_555
C3 N2 1_555 1_555
C10 C13 1_555 1_555
C12 C14 1_555 1_555
C15 N1 1_555 1_555
Cd1 N1 1_555 1_555
Cd1 O4 1_555 1_555
O2 Cd1A 1_555 1_555
C23 N11 1_555 1_555
C25 N4 1_555 1_555
C26 N6 1_555 1_555
C28 N4 1_555 1_555
C28 N5 1_555 1_555
C29 N11 1_555 1_555
C29 N12 1_555 1_555
C30 N8 1_555 1_555
C31 N3 1_555 1_555
C31 N13 1_555 1_555
C32 N6 1_555 1_555
C34 N13 1_555 1_555
C35 N7 1_555 1_555
C36 N9 1_555 1_555
C36 N10 1_555 1_555
C3B C16B 1_555 1_555
C3B N2B 1_555 1_555
C10B C13B 1_555 1_555
C15B N1B 1_555 1_555
C12A C14A 1_555 1_555
Cd1A O4A 1_555 1_555
O2A Cd1_2 1_555 1_555
Cd1C Cl1C 1_555 1_555
C22B N8B 1_555 1_555
C23B N11B 1_555 1_555
C25B N4B 1_555 1_555
C26B N6B 1_555 1_555
C27B N14B 1_555 1_555
C28B N4B 1_555 1_555
C28B N5B 1_555 1_555
C29B N11B 1_555 1_555
C29B N12B 1_555 1_555
C30B N8B 1_555 1_555
C31B N3B 1_555 1_555
C31B N13B 1_555 1_555
C32B N6B 1_555 1_555
C33B N14B 1_555 1_555
C34B N13B 1_555 1_555
C35B N7B 1_555 1_555
C35B N9B 1_555 1_555
C36B N9B 1_555 1_555
C36B N10B 1_555 1_555

#END
