
#######################################################################
#
#                 Cambridge Crystallographic Data Centre
#                                CCDC 
#
#######################################################################
#
# If this CIF has been generated from an entry in the Cambridge 
# Structural Database, then it will include bibliographic, chemical, 
# crystal, experimental, refinement or atomic coordinate data resulting 
# from the CCDC's data processing and validation procedures.
#
#######################################################################

data_PULVUO
_symmetry_cell_setting           triclinic
_symmetry_space_group_name_H-M   'P -1'
_symmetry_Int_Tables_number      2
_space_group_name_Hall           '-P 1'
loop_
_symmetry_equiv_pos_site_id
_symmetry_equiv_pos_as_xyz
1 x,y,z
2 -x,-y,-z
_cell_length_a                   13.249(5)
_cell_length_b                   17.813(5)
_cell_length_c                   23.940(5)
_cell_angle_alpha                82.266(5)
_cell_angle_beta                 78.135(5)
_cell_angle_gamma                83.648(5)
_cell_volume                     5458.85
loop_
_atom_site_label
_atom_site_type_symbol
_atom_site_fract_x
_atom_site_fract_y
_atom_site_fract_z
O1 O -0.1172(9) -0.3538(6) -0.2406(5)
O3 O -0.1248(10) -0.2079(7) -0.2082(5)
O6 O -0.3022(9) -0.2844(7) -0.1846(5)
O7 O -0.3524(8) -0.2229(6) -0.2926(5)
O8 O -0.1768(9) -0.1459(6) -0.3141(5)
O9 O -0.2684(9) -0.1691(6) -0.4008(4)
O10 O -0.1698(8) -0.2895(6) -0.3483(5)
O11 O -0.1460(9) -0.3350(6) -0.1263(4)
O12 O -0.4202(8) -0.1252(6) -0.4525(5)
O13 O -0.4453(9) -0.2521(6) -0.3829(5)
O14 O -0.2731(10) -0.3167(6) -0.4349(5)
O15 O -0.0724(9) -0.2299(6) -0.4605(5)
O16 O -0.0786(9) -0.0936(6) -0.4301(4)
O17 O -0.4570(9) -0.0918(6) -0.3447(5)
O18 O -0.2861(9) -0.0200(6) -0.3650(5)
O19 O -0.2400(9) -0.1902(6) -0.5065(5)
O20 O -0.2477(9) -0.0519(6) -0.4738(5)
O21 O -0.3656(10) -0.0712(7) -0.2620(5)
O22 O -0.5470(9) -0.2105(6) -0.2786(5)
O23 O -0.3489(9) -0.3686(6) -0.3300(5)
O24 O -0.0840(9) -0.3797(6) -0.4189(5)
O25 O 0.1110(9) -0.3199(7) -0.4533(5)
O26 O 0.0213(9) -0.2105(6) -0.3779(5)
O27 O -0.1035(9) -0.0197(6) -0.3367(5)
O28 O -0.0531(12) -0.4504(9) -0.0758(7)
O29 O -0.2298(13) -0.3890(9) -0.0227(7)
O30 O -0.0438(12) -0.2761(9) -0.0719(7)
O31 O -0.3312(9) -0.2608(7) -0.0653(5)
O32 O -0.3187(10) -0.4216(7) -0.1035(5)
O33 O -0.1508(10) -0.4850(7) -0.1576(5)
O34 O 0.0496(9) -0.3984(6) -0.1828(5)
O35 O 0.0449(10) -0.2624(7) -0.1503(5)
O36 O -0.1661(10) -0.1888(7) -0.0887(5)
O37 O -0.4740(9) -0.3086(7) -0.1177(5)
O38 O -0.3148(10) -0.1406(7) -0.1427(6)
O39 O -0.0264(9) -0.1151(6) -0.1746(5)
O40 O 0.0729(10) -0.2805(7) -0.2596(5)
O41 O -0.0113(9) -0.4756(6) -0.2582(5)
O42 O -0.2959(9) -0.4356(6) -0.2137(5)
O43 O 0.0291(9) -0.3575(6) -0.3405(5)
O44 O -0.4595(10) -0.3387(7) -0.2283(5)
O45 O -0.4715(9) -0.1766(7) -0.1889(5)
O46 O -0.1909(9) -0.0559(6) -0.2250(5)
O47 O 0.0243(10) -0.1331(7) -0.2896(5)
O48 O -0.4269(10) -0.2577(7) -0.5015(6)
O49 O -0.4384(10) 0.0299(7) -0.4355(6)
O50 O -0.0685(10) -0.1058(6) -0.5479(5)
O51 O -0.5717(10) -0.3512(8) -0.3091(5)
O52 O -0.5834(10) -0.0630(7) -0.2442(6)
O53 O -0.2716(11) 0.0690(8) -0.2858(6)
O54 O 0.1030(11) -0.0664(7) -0.3975(6)
O55 O -0.1726(9) -0.4446(6) -0.3143(5)
O56 O -0.2435(11) -0.4696(6) -0.4082(5)
O57 O -0.1757(11) -0.5712(7) -0.2375(6)
O58 O -0.4929(10) -0.4535(8) -0.1402(6)
O59 O -0.5125(12) -0.1679(8) -0.0721(6)
O60 O -0.1966(12) -0.0340(7) -0.1111(6)
O61 O 0.1707(10) -0.1687(7) -0.2237(5)
O62 O 0.1826(9) -0.4207(7) -0.2848(6)
O63 O 0.1325(11) -0.3871(8) -0.0847(6)
O64 O -0.2246(12) -0.5406(7) -0.0392(6)
O65 O -0.2356(12) -0.2532(8) 0.0285(6)
W1 W -0.41468(6) -0.21211(5) -0.12074(4)
W2 W -0.23922(6) -0.02587(4) -0.29373(4)
W3 W -0.01434(6) -0.10624(4) -0.36263(3)
W4 W -0.19538(6) -0.45492(4) -0.08254(3)
W5 W 0.02048(6) -0.36137(4) -0.11050(3)
W6 W -0.17815(6) -0.11042(4) -0.15151(4)
W7 W -0.14041(6) -0.13478(4) -0.48225(3)
W8 W 0.05732(6) -0.38388(4) -0.26595(3)
W9 W -0.40488(6) -0.38605(4) -0.16301(3)
W10 W -0.15885(6) -0.47669(4) -0.23735(3)
W11 W 0.04710(6) -0.19131(4) -0.22014(3)
W12 W -0.20492(6) -0.27917(4) -0.04098(3)
W13 W -0.36890(6) -0.05392(4) -0.41207(3)
W14 W -0.35859(6) -0.22786(4) -0.45557(3)
W15 W -0.47901(6) -0.12725(4) -0.26195(3)
W16 W -0.46873(6) -0.30105(4) -0.30465(3)
W17 W -0.00418(6) -0.29763(4) -0.40726(3)
W18 W -0.22113(6) -0.39121(4) -0.37918(3)
As1 As -0.23976(12) -0.20776(8) -0.33669(7)
As2 As -0.17416(12) -0.29466(9) -0.19140(7)
O2 O -0.036(2) -0.3987(17) -0.9406(13)
H1 H -0.0802 -0.3659 -0.9622
H2 H -0.0442 -0.4508 -0.9437
O4 O -0.053(2) -0.3901(15) -0.8268(12)
H3 H -0.0959 -0.3576 -0.8495
H4 H 0.0180 -0.3804 -0.8407
O5 O -0.1603(14) -0.9052(9) -0.4580(8)
H5 H -0.2268 -0.9166 -0.4629
H6 H -0.1109 -0.9100 -0.4931
O66 O -1.503(3) -0.085(2) -0.7371(16)
H7 H -1.5709 -0.0982 -0.7179
H8 H -1.5088 -0.0334 -0.7555
Cu1 Cu -1.0000 -0.5000 -0.5000
Cu7 Cu -1.4261(4) -0.1700(3) -0.8044(2)
C31 C -1.499(3) -0.033(2) -0.9681(15)
C32 C -1.404(4) -0.081(2) -0.974(2)
H33 H -1.3463 -0.0779 -1.0055
C33 C -1.423(4) -0.131(3) -0.923(2)
H34 H -1.3927 -0.1821 -0.9261
C34 C -1.534(3) -0.047(2) -0.8754(19)
H35 H -1.5796 -0.0376 -0.8400
C35 C -1.552(3) -0.0090(16) -0.9196(13)
H36 H -1.6019 0.0344 -0.9196
C36 C -1.385(2) -0.2202(14) -0.6890(14)
H37 H -1.4391 -0.1826 -0.6759
C37 C -1.3248(18) -0.2621(11) -0.6528(10)
H38 H -1.3373 -0.2516 -0.6136
C38 C -1.2457(18) -0.3168(11) -0.6717(10)
C39 C -1.230(2) -0.3323(13) -0.7271(12)
H39 H -1.1789 -0.3710 -0.7416
C40 C -1.287(3) -0.290(2) -0.7649(16)
H40 H -1.2761 -0.3008 -0.8041
C41 C -1.1809(15) -0.3593(10) -0.6344(8)
C42 C -1.1421(17) -0.4312(10) -0.6387(9)
H41 H -1.1520 -0.4562 -0.6701
C43 C -1.0865(17) -0.4692(13) -0.5973(10)
H42 H -1.0551 -0.5196 -0.6026
C44 C -1.1616(17) -0.3307(12) -0.5877(8)
H43 H -1.1837 -0.2784 -0.5830
C45 C -1.1132(17) -0.3735(12) -0.5500(9)
H44 H -1.1077 -0.3517 -0.5163
N13 N -1.364(2) -0.2330(13) -0.7477(10)
N14 N -1.0732(12) -0.4422(10) -0.5546(7)
N15 N -1.456(2) -0.1090(17) -0.8731(13)
Cu7A Cu -1.5739(4) 0.1700(3) -1.1956(2)
Cu7A_2 Cu -0.5739(4) -0.8300(3) -0.1956(2)
C31A C -1.501(3) 0.033(2) -1.0319(15)
C32A C -1.596(4) 0.081(2) -1.026(2)
H33A H -1.6537 0.0779 -0.9945
C33A C -1.577(4) 0.131(3) -1.077(2)
H34A H -1.6073 0.1821 -1.0739
C34A C -1.466(3) 0.047(2) -1.1246(19)
H35A H -1.4204 0.0376 -1.1600
C35A C -1.448(3) 0.0090(16) -1.0804(13)
H36A H -1.3981 -0.0344 -1.0804
C36A C -0.615(2) -0.7798(14) -0.3110(14)
H37A H -0.5609 -0.8174 -0.3241
C37A C -0.6752(18) -0.7379(11) -0.3472(10)
H38A H -0.6627 -0.7484 -0.3864
C38A C -0.7543(18) -0.6832(11) -0.3283(10)
C39A C -0.770(2) -0.6677(13) -0.2729(12)
H39A H -0.8211 -0.6290 -0.2584
C40A C -0.713(3) -0.710(2) -0.2351(16)
H40A H -0.7239 -0.6992 -0.1959
C41A C -0.8191(15) -0.6407(10) -0.3656(8)
C42A C -0.8579(17) -0.5688(10) -0.3613(9)
H41A H -0.8480 -0.5438 -0.3299
C43A C -0.9135(17) -0.5308(13) -0.4027(10)
H42A H -0.9449 -0.4804 -0.3974
C44A C -0.8384(17) -0.6693(12) -0.4123(8)
H43A H -0.8163 -0.7216 -0.4170
C45A C -0.8868(17) -0.6265(12) -0.4500(9)
H44A H -0.8923 -0.6483 -0.4837
N13A N -1.636(2) 0.2330(13) -1.2523(10)
N13A_2 N -0.636(2) -0.7670(13) -0.2523(10)
N14A N -0.9268(12) -0.5578(10) -0.4454(7)
N15A N -1.544(2) 0.1090(17) -1.1269(13)
Cu2 Cu 0.0480(3) -0.99935(18) -0.14076(13)
Cu3 Cu 0.2979(3) -1.32815(17) 0.22969(13)
Cu6 Cu -0.2245(2) -0.57363(13) -0.45756(11)
C1 C 0.178(3) -1.076(2) 0.0053(16)
H9 H 0.2304 -1.0589 0.0222
C2 C 0.0584(16) -1.1624(13) 0.0028(10)
H10 H 0.0270 -1.2087 0.0183
C3 C 0.2097(19) -1.1450(13) 0.1185(11)
H11 H 0.2226 -1.0922 0.1113
C4 C 0.1595(18) -1.1803(12) 0.0814(8)
C5 C 0.1479(19) -1.2546(11) 0.0918(10)
H12 H 0.1158 -1.2790 0.0673
C6 C 0.1877(19) -1.2991(14) 0.1399(10)
H13 H 0.1800 -1.3527 0.1475
C7 C 0.2397(17) -1.1927(12) 0.1628(9)
H14 H 0.2698 -1.1701 0.1890
C8 C 0.126(2) -1.1370(12) 0.0304(9)
C9 C 0.4052(17) -1.4429(13) 0.2943(11)
H15 H 0.3810 -1.4760 0.2724
C10 C 0.3927(19) -1.3301(13) 0.3304(10)
H16 H 0.3615 -1.2809 0.3328
C11 C 0.4561(17) -1.3576(10) 0.3685(10)
H17 H 0.4675 -1.3257 0.3955
C12 C 0.4750(17) -1.4733(11) 0.3308(8)
H18 H 0.5044 -1.5249 0.3294
C13 C 0.4991(14) -1.4305(10) 0.3699(8)
C14 C 0.5601(13) -1.4631(9) 0.4114(8)
C15 C 0.5727(15) -1.4260(10) 0.4569(7)
H19 H 0.5351 -1.3779 0.4642
C16 C 0.6205(16) -1.5342(11) 0.4054(9)
H20 H 0.6181 -1.5609 0.3735
C17 C 0.6845(18) -1.5618(11) 0.4433(9)
H21 H 0.7220 -1.6107 0.4395
C18 C 0.6398(14) -1.4590(10) 0.4909(8)
H22 H 0.6478 -1.4319 0.5216
C19 C -0.1332(16) -0.7175(10) -0.4174(8)
H23 H -0.1406 -0.7304 -0.4539
C20 C -0.1256(16) -0.6278(12) -0.3620(8)
H24 H -0.1365 -0.5752 -0.3554
C21 C -0.0977(17) -0.7754(10) -0.3791(8)
H25 H -0.0948 -0.8279 -0.3851
C22 C -0.0808(14) -0.6782(9) -0.3232(7)
H26 H -0.0618 -0.6603 -0.2911
C23 C -0.0670(15) -0.7544(9) -0.3290(8)
C24 C -0.0258(14) -0.8130(9) -0.2874(7)
C25 C -0.0341(16) -0.8907(9) -0.2897(8)
H27 H -0.0558 -0.9068 -0.3218
C26 C -0.0120(15) -0.9426(11) -0.2466(8)
H28 H -0.0249 -0.9944 -0.2473
C27 C 0.0129(17) -0.7914(11) -0.2436(9)
H29 H 0.0193 -0.7389 -0.2410
C28 C 0.0397(18) -0.8521(11) -0.2002(8)
H30 H 0.0691 -0.8391 -0.1697
C29 C 0.0328(17) -1.1188(12) -0.0484(10)
H31 H -0.0135 -1.1377 -0.0682
C30 C 0.155(3) -1.033(2) -0.0472(15)
H32 H 0.1904 -0.9890 -0.0650
N1 N 0.0286(14) -0.9248(10) -0.2028(7)
N2 N 0.0708(16) -1.0571(10) -0.0697(9)
N4 N 0.2328(15) -1.2678(10) 0.1733(7)
N10 N 0.3711(13) -1.3695(10) 0.2884(8)
N11 N 0.6945(13) -1.5253(9) 0.4872(7)
N12 N -0.1542(13) -0.6476(8) -0.4077(7)
Cu6_2 Cu 0.7755(2) -1.57363(13) 0.54244(11)
N11_2 N -0.3055(13) -0.5253(9) -0.5128(7)
Cu4 Cu 0.3126(2) -0.39927(15) -0.12258(11)
C50 C 0.280(2) -0.2799(14) -0.0554(11)
H53 H 0.3065 -0.2525 -0.0305
H54 H 0.2070 -0.2821 -0.0410
C51 C 0.294(2) -0.2345(14) -0.1166(11)
H55 H 0.2351 -0.1993 -0.1205
H56 H 0.3540 -0.2062 -0.1228
C52 C 0.303(3) -0.5578(16) -0.1302(15)
H57 H 0.2376 -0.5790 -0.1234
H58 H 0.3554 -0.5991 -0.1270
C53 C 0.321(4) -0.525(2) -0.1829(15)
H59 H 0.3919 -0.5388 -0.1994
H60 H 0.2793 -0.5463 -0.2043
N5 N 0.3082(14) -0.2886(11) -0.1596(10)
H62 H 0.3148 -0.2753 -0.1977
N6 N 0.3279(13) -0.3564(10) -0.0543(8)
H63 H 0.3604 -0.3803 -0.0265
N16 N 0.3082(13) -0.5110(10) -0.0864(7)
H67 H 0.3065 -0.5268 -0.0490
N17 N 0.3116(18) -0.4427(12) -0.1957(8)
H68 H 0.3027 -0.4153 -0.2290
Cu5 Cu 0.29127(19) -0.08863(13) -0.38747(10)
C46 C 0.225(3) 0.041(2) -0.3325(18)
H45 H 0.1621 0.0557 -0.3461
H46 H 0.2244 0.0683 -0.3004
C47 C 0.314(3) 0.064(2) -0.3770(16)
H47 H 0.3750 0.0625 -0.3606
H48 H 0.3002 0.1156 -0.3934
C48 C 0.294(2) -0.2107(14) -0.4538(12)
H49 H 0.2221 -0.2021 -0.4572
H50 H 0.3286 -0.2425 -0.4823
C49 C 0.2993(19) -0.2489(13) -0.3963(10)
H51 H 0.3688 -0.2713 -0.3969
H52 H 0.2542 -0.2892 -0.3873
N3 N 0.337(2) -0.1356(11) -0.4627(7)
H61 H 0.3770 -0.1157 -0.4952
N7 N 0.2430(15) -0.0413(10) -0.3144(7)
H64 H 0.2282 -0.0643 -0.2782
N8 N 0.2677(15) -0.1966(8) -0.3502(8)
H65 H 0.2450 -0.2105 -0.3125
N9 N 0.3362(15) 0.0148(9) -0.4222(7)
H66 H 0.3648 0.0282 -0.4592
O67? O -0.9609(13) -0.5515(9) -0.8919(8)
O68? O -0.9402(12) -0.6859(9) -0.9544(7)
O69? O -0.7448(13) -0.6343(9) -0.9595(7)
loop_
_geom_bond_atom_site_label_1
_geom_bond_atom_site_label_2
_geom_bond_site_symmetry_1
_geom_bond_site_symmetry_2
O1 W8 1_555 1_555
O2 H1 1_555 1_555
H2 O2 1_555 1_555
O3 W6 1_555 1_555
O4 H3 1_555 1_555
H4 O4 1_555 1_555
O5 H5 1_555 1_555
H6 O5 1_555 1_555
O6 W1 1_555 1_555
O7 W15 1_555 1_555
O8 W2 1_555 1_555
O9 W7 1_555 1_555
O10 W17 1_555 1_555
O11 W4 1_555 1_555
O12 W13 1_555 1_555
O13 W14 1_555 1_555
O14 W14 1_555 1_555
O15 W7 1_555 1_555
O16 W3 1_555 1_555
O17 W13 1_555 1_555
O18 W2 1_555 1_555
O19 W7 1_555 1_555
O20 W7 1_555 1_555
O21 W2 1_555 1_555
O22 W15 1_555 1_555
O23 W16 1_555 1_555
O24 W17 1_555 1_555
O25 W17 1_555 1_555
O26 W3 1_555 1_555
O27 W2 1_555 1_555
O28 W4 1_555 1_555
O29 W4 1_555 1_555
O30 W5 1_555 1_555
O31 W1 1_555 1_555
O32 W4 1_555 1_555
O33 W4 1_555 1_555
O34 W5 1_555 1_555
O35 W5 1_555 1_555
O36 W6 1_555 1_555
O37 W1 1_555 1_555
O38 W1 1_555 1_555
O39 W6 1_555 1_555
O40 W8 1_555 1_555
O41 W8 1_555 1_555
O42 W9 1_555 1_555
O43 W8 1_555 1_555
O44 W9 1_555 1_555
O45 W1 1_555 1_555
O46 W2 1_555 1_555
O47 W3 1_555 1_555
O48 W14 1_555 1_555
O49 W13 1_555 1_555
O50 W7 1_555 1_555
O51 W16 1_555 1_555
O52 W15 1_555 1_555
O53 W2 1_555 1_555
O54 W3 1_555 1_555
O55 W10 1_555 1_555
O56 W18 1_555 1_555
O57 W10 1_555 1_555
O58 W9 1_555 1_555
O59 W1 1_555 1_555
O60 W6 1_555 1_555
O61 W11 1_555 1_555
O62 W8 1_555 1_555
O63 W5 1_555 1_555
O64 W4 1_555 1_555
O65 W12 1_555 1_555
O66 H7 1_555 1_555
H8 O66 1_555 1_555
W3 O8 1_555 1_555
W5 O11 1_555 1_555
W6 O38 1_555 1_555
W7 O16 1_555 1_555
W8 O34 1_555 1_555
W9 O6 1_555 1_555
W10 O1 1_555 1_555
W11 O3 1_555 1_555
W12 O11 1_555 1_555
W13 O9 1_555 1_555
W14 O9 1_555 1_555
W15 O17 1_555 1_555
W16 O7 1_555 1_555
W17 O15 1_555 1_555
W18 O10 1_555 1_555
Cu1 N14 1_555 1_555
Cu2 N1 1_555 1_555
Cu3 N4 1_555 1_555
Cu4 N5 1_555 1_555
Cu5 N3 1_555 1_555
Cu6 N12 1_555 1_555
Cu7 N13 1_555 1_555
C1 H9 1_555 1_555
C2 H10 1_555 1_555
C3 H11 1_555 1_555
C4 C3 1_555 1_555
C5 C4 1_555 1_555
H12 C5 1_555 1_555
C6 C5 1_555 1_555
H13 C6 1_555 1_555
C7 C3 1_555 1_555
H14 C7 1_555 1_555
C8 C1 1_555 1_555
C9 H15 1_555 1_555
C10 H16 1_555 1_555
C11 C10 1_555 1_555
H17 C11 1_555 1_555
C12 C9 1_555 1_555
H18 C12 1_555 1_555
C13 C11 1_555 1_555
C14 C13 1_555 1_555
C15 C14 1_555 1_555
H19 C15 1_555 1_555
C16 C14 1_555 1_555
H20 C16 1_555 1_555
C17 C16 1_555 1_555
H21 C17 1_555 1_555
C18 C15 1_555 1_555
H22 C18 1_555 1_555
C19 H23 1_555 1_555
C20 H24 1_555 1_555
C21 C19 1_555 1_555
H25 C21 1_555 1_555
C22 C20 1_555 1_555
H26 C22 1_555 1_555
C23 C21 1_555 1_555
C24 C23 1_555 1_555
C25 C24 1_555 1_555
H27 C25 1_555 1_555
C26 C25 1_555 1_555
H28 C26 1_555 1_555
C27 C24 1_555 1_555
H29 C27 1_555 1_555
C28 C27 1_555 1_555
H30 C28 1_555 1_555
C29 C2 1_555 1_555
H31 C29 1_555 1_555
C30 C1 1_555 1_555
H32 C30 1_555 1_555
C31 C32 1_555 1_555
C32 H33 1_555 1_555
C33 C32 1_555 1_555
H34 C33 1_555 1_555
C34 H35 1_555 1_555
C35 C31 1_555 1_555
H36 C35 1_555 1_555
C36 H37 1_555 1_555
C37 C36 1_555 1_555
H38 C37 1_555 1_555
C38 C37 1_555 1_555
C39 C38 1_555 1_555
H39 C39 1_555 1_555
C40 C39 1_555 1_555
H40 C40 1_555 1_555
C41 C38 1_555 1_555
C42 C41 1_555 1_555
H41 C42 1_555 1_555
C43 C42 1_555 1_555
H42 C43 1_555 1_555
C44 C41 1_555 1_555
H43 C44 1_555 1_555
C45 C44 1_555 1_555
H44 C45 1_555 1_555
C46 H45 1_555 1_555
H46 C46 1_555 1_555
C47 C46 1_555 1_555
H47 C47 1_555 1_555
H48 C47 1_555 1_555
C48 H49 1_555 1_555
H50 C48 1_555 1_555
C49 C48 1_555 1_555
H51 C49 1_555 1_555
H52 C49 1_555 1_555
C50 H53 1_555 1_555
H54 C50 1_555 1_555
C51 C50 1_555 1_555
H55 C51 1_555 1_555
H56 C51 1_555 1_555
C52 H57 1_555 1_555
H58 C52 1_555 1_555
C53 C52 1_555 1_555
H59 C53 1_555 1_555
H60 C53 1_555 1_555
N1 C26 1_555 1_555
N2 Cu2 1_555 1_555
N3 C48 1_555 1_555
H61 N3 1_555 1_555
N4 C6 1_555 1_555
N5 C51 1_555 1_555
H62 N5 1_555 1_555
N6 Cu4 1_555 1_555
H63 N6 1_555 1_555
N7 Cu5 1_555 1_555
H64 N7 1_555 1_555
N8 Cu5 1_555 1_555
H65 N8 1_555 1_555
N9 Cu5 1_555 1_555
H66 N9 1_555 1_555
N10 Cu3 1_555 1_555
N11 C17 1_555 1_555
N12 C19 1_555 1_555
N13 C36 1_555 1_555
N14 C43 1_555 1_555
N15 Cu7 1_555 1_555
N16 Cu4 1_555 1_555
H67 N16 1_555 1_555
N17 Cu4 1_555 1_555
H68 N17 1_555 1_555
As1 O7 1_555 1_555
As2 O1 1_555 1_555
Cu6_2 N11 1_555 1_555
Cu7A N13A 1_555 1_555
Cu7A_2 N13A_2 1_555 1_555
C31A C31 1_555 1_555
C32A C31A 1_555 1_555
H33A C32A 1_555 1_555
C33A C32A 1_555 1_555
H34A C33A 1_555 1_555
C34A H35A 1_555 1_555
C35A C31A 1_555 1_555
H36A C35A 1_555 1_555
C36A H37A 1_555 1_555
C37A C36A 1_555 1_555
H38A C37A 1_555 1_555
C38A C37A 1_555 1_555
C39A C38A 1_555 1_555
H39A C39A 1_555 1_555
C40A C39A 1_555 1_555
H40A C40A 1_555 1_555
C41A C38A 1_555 1_555
C42A C41A 1_555 1_555
H41A C42A 1_555 1_555
C43A C42A 1_555 1_555
H42A C43A 1_555 1_555
C44A C41A 1_555 1_555
H43A C44A 1_555 1_555
C45A C44A 1_555 1_555
H44A C45A 1_555 1_555
N11_2 Cu6 1_555 1_555
N13A_2 C36A 1_555 1_555
N14A Cu1 1_555 1_555
N15A Cu7A 1_555 1_555
O3 As2 1_555 1_555
O6 As2 1_555 1_555
O8 As1 1_555 1_555
O9 As1 1_555 1_555
O10 As1 1_555 1_555
O11 As2 1_555 1_555
O12 W14 1_555 1_555
O13 W16 1_555 1_555
O14 W18 1_555 1_555
O18 W13 1_555 1_555
O19 W14 1_555 1_555
O20 W13 1_555 1_555
O21 W15 1_555 1_555
O22 W16 1_555 1_555
O23 W18 1_555 1_555
O24 W18 1_555 1_555
O26 W17 1_555 1_555
O27 W3 1_555 1_555
O28 W5 1_555 1_555
O29 W12 1_555 1_555
O30 W12 1_555 1_555
O31 W12 1_555 1_555
O32 W9 1_555 1_555
O33 W10 1_555 1_555
O35 W11 1_555 1_555
O36 W12 1_555 1_555
O37 W9 1_555 1_555
O39 W11 1_555 1_555
O40 W11 1_555 1_555
O41 W10 1_555 1_555
O42 W10 1_555 1_555
O43 W17 1_555 1_555
O44 W16 1_555 1_555
O45 W15 1_555 1_555
O46 W6 1_555 1_555
O47 W11 1_555 1_555
O55 W18 1_555 1_555
C2 C8 1_555 1_555
C4 C8 1_555 1_555
C7 N4 1_555 1_555
C9 N10 1_555 1_555
C10 N10 1_555 1_555
C12 C13 1_555 1_555
C18 N11 1_555 1_555
C20 N12 1_555 1_555
C22 C23 1_555 1_555
C28 N1 1_555 1_555
C29 N2 1_555 1_555
C30 N2 1_555 1_555
C33 N15 1_555 1_555
C34 C35 1_555 1_555
C34 N15 1_555 1_555
C40 N13 1_555 1_555
C45 N14 1_555 1_555
C46 N7 1_555 1_555
C47 N9 1_555 1_555
C49 N8 1_555 1_555
C50 N6 1_555 1_555
C52 N16 1_555 1_555
C53 N17 1_555 1_555
C33A N15A 1_555 1_555
C34A C35A 1_555 1_555
C34A N15A 1_555 1_555
C40A N13A_2 1_555 1_555
C43A N14A 1_555 1_555
C45A N14A 1_555 1_555

#END
