
#######################################################################
#
#                 Cambridge Crystallographic Data Centre
#                                CCDC 
#
#######################################################################
#
# If this CIF has been generated from an entry in the Cambridge 
# Structural Database, then it will include bibliographic, chemical, 
# crystal, experimental, refinement or atomic coordinate data resulting 
# from the CCDC's data processing and validation procedures.
#
#######################################################################

data_PULVIC
_symmetry_cell_setting           monoclinic
_symmetry_space_group_name_H-M   'P 21/c'
_symmetry_Int_Tables_number      14
_space_group_name_Hall           '-P 2ybc'
loop_
_symmetry_equiv_pos_site_id
_symmetry_equiv_pos_as_xyz
1 x,y,z
2 -x,1/2+y,1/2-z
3 -x,-y,-z
4 x,1/2-y,1/2+z
_cell_length_a                   9.8387(10)
_cell_length_b                   17.0628(17)
_cell_length_c                   7.8502(8)
_cell_angle_alpha                90
_cell_angle_beta                 106.694(5)
_cell_angle_gamma                90
_cell_volume                     1262.31
loop_
_atom_site_label
_atom_site_type_symbol
_atom_site_fract_x
_atom_site_fract_y
_atom_site_fract_z
Co1 Co 0.69424(3) 0.241541(16) 0.70861(4)
Cl1 Cl 0.62235(7) 0.11139(3) 0.74252(7)
O1 O 0.75467(16) 0.27566(8) 0.97192(19)
O2 O 0.91321(17) 0.30965(9) 1.2186(2)
N1 N 0.4908(2) 0.28815(10) 0.6191(2)
N2 N 0.7347(2) 0.36520(10) 0.6813(2)
C1 C 0.8687(2) 0.31406(12) 1.0539(3)
C2 C 0.9405(2) 0.36525(12) 0.9518(3)
C3 C 1.0774(2) 0.39091(13) 1.0371(3)
C4 C 1.1497(3) 0.44049(13) 0.9538(3)
C5 C 1.0832(3) 0.46653(14) 0.7831(3)
C6 C 0.9476(3) 0.44121(13) 0.6951(3)
C7 C 0.8751(2) 0.39047(12) 0.7772(3)
C8 C 0.6181(2) 0.40707(12) 0.7273(3)
C9 C 0.4807(2) 0.36570(13) 0.6419(3)
C10 C 0.3509(3) 0.40417(14) 0.5927(3)
C11 C 0.2296(3) 0.36186(15) 0.5126(3)
C12 C 0.2404(3) 0.28248(15) 0.4833(3)
C13 C 0.3718(3) 0.24744(14) 0.5406(3)
H1 H 0.3456 0.4588 0.6137
H2 H 0.1397 0.3870 0.4781
H3 H 0.1588 0.2527 0.4249
H4 H 0.3789 0.1926 0.5241
H5 H 0.6129 0.4619 0.6843
H6 H 0.6361 0.4080 0.8580
H7 H 0.9034 0.4587 0.5772
H8 H 1.1308 0.5019 0.7262
H9 H 1.2439 0.4565 1.0131
H10 H 1.1224 0.3740 1.1552
H11 H 0.723(2) 0.3706(13) 0.570(3)
Co1C Co 0.69424(3) 0.258459(16) 1.20861(4)
O1C O 0.75467(16) 0.22434(8) 0.47192(19)
O2C O 0.91321(17) 0.19035(9) 0.7186(2)
loop_
_geom_bond_atom_site_label_1
_geom_bond_atom_site_label_2
_geom_bond_site_symmetry_1
_geom_bond_site_symmetry_2
Co1 Cl1 1_555 1_555
O1 Co1 1_555 1_555
O2 C1 1_555 1_555
N1 Co1 1_555 1_555
N2 Co1 1_555 1_555
C1 O1 1_555 1_555
C2 C1 1_555 1_555
C3 C2 1_555 1_555
C4 C3 1_555 1_555
C5 C4 1_555 1_555
C6 C5 1_555 1_555
C7 N2 1_555 1_555
C8 N2 1_555 1_555
C9 N1 1_555 1_555
C10 C9 1_555 1_555
C11 C10 1_555 1_555
C12 C11 1_555 1_555
C13 N1 1_555 1_555
H1 C10 1_555 1_555
H2 C11 1_555 1_555
H3 C12 1_555 1_555
H4 C13 1_555 1_555
H5 C8 1_555 1_555
H6 C8 1_555 1_555
H7 C6 1_555 1_555
H8 C5 1_555 1_555
H9 C4 1_555 1_555
H10 C3 1_555 1_555
H11 N2 1_555 1_555
Co1C O1 1_555 1_555
O1C Co1 1_555 1_555
O2C Co1 1_555 1_555
O2 Co1C 1_555 1_555
C2 C7 1_555 1_555
C6 C7 1_555 1_555
C8 C9 1_555 1_555
C12 C13 1_555 1_555

#END
