
#######################################################################
#
#                 Cambridge Crystallographic Data Centre
#                                CCDC 
#
#######################################################################
#
# If this CIF has been generated from an entry in the Cambridge 
# Structural Database, then it will include bibliographic, chemical, 
# crystal, experimental, refinement or atomic coordinate data resulting 
# from the CCDC's data processing and validation procedures.
#
#######################################################################

data_PULWAV
_symmetry_cell_setting           monoclinic
_symmetry_space_group_name_H-M   'P 21/c'
_symmetry_Int_Tables_number      14
_space_group_name_Hall           '-P 2ybc'
loop_
_symmetry_equiv_pos_site_id
_symmetry_equiv_pos_as_xyz
1 x,y,z
2 -x,1/2+y,1/2-z
3 -x,-y,-z
4 x,1/2-y,1/2+z
_cell_length_a                   6.9713(2)
_cell_length_b                   9.5303(3)
_cell_length_c                   13.5647(4)
_cell_angle_alpha                90
_cell_angle_beta                 98.031(2)
_cell_angle_gamma                90
_cell_volume                     892.381
loop_
_atom_site_label
_atom_site_type_symbol
_atom_site_fract_x
_atom_site_fract_y
_atom_site_fract_z
Ni1 Ni 0.5000 0.0000 0.5000
S1 S 0.94746(16) 0.21622(12) 0.64802(7)
O1 O 0.8214(4) 0.0771(3) 0.79527(17)
O2 O 0.7456(5) 0.0605(4) 0.4373(3)
N1 N 0.6513(4) 0.0270(3) 0.6496(2)
N2 N 0.5770(4) -0.0517(3) 0.7254(2)
N3 N 0.5980(5) -0.2795(3) 0.9994(2)
C1 C 0.7972(5) 0.1013(4) 0.6930(2)
C2 C 0.6842(5) -0.0199(4) 0.8067(2)
C3 C 0.6796(5) -0.0795(4) 0.9055(2)
C4 C 0.7530(6) -0.0096(5) 0.9918(3)
C5 C 0.7457(6) -0.0755(4) 1.0814(3)
C6 C 0.6691(6) -0.2078(4) 1.0825(3)
C7 C 0.6045(6) -0.2131(4) 0.9128(3)
H1 H 0.552(5) -0.259(4) 0.858(3)
H2 H 0.783(5) 0.079(4) 0.987(3)
H3 H 0.788(6) -0.029(4) 1.141(3)
H4 H 0.666(7) -0.256(5) 1.143(3)
H5 H 0.82(2) -0.010(11) 0.460(13)
H6 H 0.710(9) 0.106(6) 0.380(3)
Ni1A Ni 0.5000 -0.5000 1.0000
Ni1A_2 Ni 0.5000 0.5000 0.0000
S1B S 0.05254(16) -0.21622(12) 0.35198(7)
O1B O 0.1786(4) -0.0771(3) 0.20473(17)
O2B O 0.2544(5) -0.0605(4) 0.5627(3)
N1B N 0.3487(4) -0.0270(3) 0.3504(2)
N2B N 0.4230(4) 0.0517(3) 0.2746(2)
N3B N 0.4020(5) 0.2795(3) 0.0006(2)
N3A N 0.4020(5) 0.2205(3) 0.5006(2)
N3C N 0.5980(5) -0.2205(3) 0.4994(2)
C1B C 0.2028(5) -0.1013(4) 0.3070(2)
C2B C 0.3158(5) 0.0199(4) 0.1933(2)
C3B C 0.3204(5) 0.0795(4) 0.0945(2)
C4B C 0.2470(6) 0.0096(5) 0.0082(3)
C5B C 0.2543(6) 0.0755(4) -0.0814(3)
C6B C 0.3309(6) 0.2078(4) -0.0825(3)
C7B C 0.3955(6) 0.2131(4) 0.0872(3)
H1B H 0.448(5) 0.259(4) 0.142(3)
H2B H 0.217(5) -0.079(4) 0.013(3)
H3B H 0.212(6) 0.029(4) -0.141(3)
H4B H 0.334(7) 0.256(5) -0.143(3)
H5B H 0.18(2) 0.010(11) 0.540(13)
H6B H 0.290(9) -0.106(6) 0.620(3)
loop_
_geom_bond_atom_site_label_1
_geom_bond_atom_site_label_2
_geom_bond_site_symmetry_1
_geom_bond_site_symmetry_2
Ni1 O2 1_555 1_555
S1 C1 1_555 1_555
O1 C1 1_555 1_555
O2 H5 1_555 1_555
N1 Ni1 1_555 1_555
N2 N1 1_555 1_555
N3 C6 1_555 1_555
C1 N1 1_555 1_555
C2 O1 1_555 1_555
C3 C2 1_555 1_555
C4 C3 1_555 1_555
C5 C4 1_555 1_555
C6 C5 1_555 1_555
C7 N3 1_555 1_555
H1 C7 1_555 1_555
H2 C4 1_555 1_555
H3 C5 1_555 1_555
H4 C6 1_555 1_555
H6 O2 1_555 1_555
Ni1A N3 1_555 1_555
Ni1A_2 N3B 1_555 1_555
S1B C1B 1_555 1_555
O1B C1B 1_555 1_555
O2B Ni1 1_555 1_555
N1B Ni1 1_555 1_555
N2B N1B 1_555 1_555
N3B C6B 1_555 1_555
N3A Ni1 1_555 1_555
N3C Ni1 1_555 1_555
C1B N1B 1_555 1_555
C2B O1B 1_555 1_555
C3B C2B 1_555 1_555
C4B C3B 1_555 1_555
C5B C4B 1_555 1_555
C6B C5B 1_555 1_555
C7B N3B 1_555 1_555
H1B C7B 1_555 1_555
H2B C4B 1_555 1_555
H3B C5B 1_555 1_555
H4B C6B 1_555 1_555
H5B O2B 1_555 1_555
H6B O2B 1_555 1_555
N2 C2 1_555 1_555
C3 C7 1_555 1_555
N2B C2B 1_555 1_555
C3B C7B 1_555 1_555

#END
