
#######################################################################
#
#                 Cambridge Crystallographic Data Centre
#                                CCDC 
#
#######################################################################
#
# If this CIF has been generated from an entry in the Cambridge 
# Structural Database, then it will include bibliographic, chemical, 
# crystal, experimental, refinement or atomic coordinate data resulting 
# from the CCDC's data processing and validation procedures.
#
#######################################################################

data_PULWEZ
_symmetry_cell_setting           tetragonal
_symmetry_space_group_name_H-M   'I 41/a'
_symmetry_Int_Tables_number      88
_space_group_name_Hall           '-I 4ad'
loop_
_symmetry_equiv_pos_site_id
_symmetry_equiv_pos_as_xyz
1 x,y,z
2 1/2-x,-y,1/2+z
3 3/4-y,1/4+x,1/4+z
4 3/4+y,3/4-x,3/4+z
5 1/2+x,1/2+y,1/2+z
6 -x,1/2-y,z
7 1/4-y,3/4+x,3/4+z
8 1/4+y,1/4-x,1/4+z
9 -x,-y,-z
10 1/2+x,y,1/2-z
11 1/4+y,3/4-x,3/4-z
12 1/4-y,1/4+x,1/4-z
13 1/2-x,1/2-y,1/2-z
14 x,1/2+y,-z
15 3/4+y,1/4-x,1/4-z
16 3/4-y,3/4+x,3/4-z
_cell_length_a                   17.636(2)
_cell_length_b                   17.636(2)
_cell_length_c                   13.5345(15)
_cell_angle_alpha                90
_cell_angle_beta                 90
_cell_angle_gamma                90
_cell_volume                     4209.62
loop_
_atom_site_label
_atom_site_type_symbol
_atom_site_fract_x
_atom_site_fract_y
_atom_site_fract_z
Cu1 Cu 0.26454(3) 0.51394(3) 0.04693(4)
Cl1 Cl 0.25754(7) 0.41198(5) -0.05895(7)
N1 N 0.33113(18) 0.66669(16) -0.0346(2)
N2 N 0.30205(16) 0.59782(16) -0.0520(2)
N3 N 0.29545(16) 0.58868(16) -0.1483(2)
C1 C 0.3202(2) 0.6535(2) -0.1935(3)
C2 C 0.3425(2) 0.7040(2) -0.1210(3)
C3 C 0.3686(3) 0.7767(2) -0.1432(4)
H1 H 0.3829 0.8109 -0.0944
C4 C 0.3719(3) 0.7942(3) -0.2409(4)
H2 H 0.3888 0.8421 -0.2592
C5 C 0.3509(3) 0.7434(3) -0.3145(3)
H3 H 0.3552 0.7582 -0.3802
C6 C 0.3241(2) 0.6726(3) -0.2937(3)
H4 H 0.3093 0.6391 -0.3431
C7 C 0.3432(2) 0.6920(2) 0.0668(3)
H5 H 0.3783 0.7343 0.0666
H6 H 0.3662 0.6512 0.1043
C8 C 0.2717(2) 0.7157(2) 0.1166(3)
H7 H 0.2354 0.6745 0.1137
H8 H 0.2503 0.7588 0.0818
C9 C 0.2853(2) 0.7372(2) 0.2238(3)
H9 H 0.3061 0.6938 0.2584
H10 H 0.3226 0.7775 0.2264
Cu1B Cu 0.23606(3) 0.51454(3) 0.29693(4)
Cu1C Cu 0.26394(3) 0.48546(3) -0.20307(4)
Cu1L Cu 0.23546(3) 0.98606(3) 0.45307(4)
Cu1O Cu 0.23606(3) 1.01454(3) 0.70307(4)
Cu1A Cu 0.23546(3) 0.48606(3) 0.54693(4)
Cu1M Cu 0.26454(3) 1.01394(3) 0.95307(4)
Cu1M_2 Cu 0.26454(3) 0.01394(3) 0.95307(4)
Cu1N Cu 0.26394(3) -0.01454(3) 1.20307(4)
Cl1B Cl 0.33802(5) 0.50754(7) 0.19105(7)
Cl1A Cl 0.24246(7) 0.58802(5) 0.44105(7)
Cl1L Cl 0.24246(7) 1.08802(5) 0.55895(7)
Cl1O Cl 0.33802(5) 1.00754(7) 0.80895(7)
Cl1M Cl 0.25754(7) -0.08802(5) 1.05895(7)
Cl1O_2 Cl 0.33802(5) 0.00754(7) 0.80895(7)
N1L N 0.16887(18) 0.83331(16) 0.5346(2)
N1A N 0.16887(18) 0.33331(16) 0.4654(2)
N1M N 0.33113(18) 0.16669(16) 1.0346(2)
N2L N 0.19795(16) 0.90218(16) 0.5520(2)
N2B N 0.15218(16) 0.55205(16) 0.1980(2)
N2O N 0.15218(16) 1.05205(16) 0.8020(2)
N2A N 0.19795(16) 0.40218(16) 0.4480(2)
N2M N 0.30205(16) 0.09782(16) 1.0520(2)
N3L N 0.20455(16) 0.91132(16) 0.6483(2)
N3B N 0.16132(16) 0.54545(16) 0.1017(2)
N3A N 0.20455(16) 0.41132(16) 0.3517(2)
N3M N 0.29545(16) 0.08868(16) 1.1483(2)
N3O N 0.16132(16) 0.04545(16) 0.8983(2)
C1L C 0.1798(2) 0.8465(2) 0.6935(3)
C1A C 0.1798(2) 0.3465(2) 0.3065(3)
C1M C 0.3202(2) 0.1535(2) 1.1935(3)
C2L C 0.1575(2) 0.7960(2) 0.6210(3)
C2A C 0.1575(2) 0.2960(2) 0.3790(3)
C2M C 0.3425(2) 0.2040(2) 1.1210(3)
C3L C 0.1314(3) 0.7233(2) 0.6432(4)
C3A C 0.1314(3) 0.2233(2) 0.3568(4)
C3M C 0.3686(3) 0.2767(2) 1.1432(4)
H1L H 0.1171 0.6891 0.5944
H1A H 0.1171 0.1891 0.4056
H1M H 0.3829 0.3109 1.0944
C4L C 0.1281(3) 0.7058(3) 0.7409(4)
C4A C 0.1281(3) 0.2058(3) 0.2591(4)
C4M C 0.3719(3) 0.2942(3) 1.2409(4)
H2L H 0.1112 0.6579 0.7592
H2A H 0.1112 0.1579 0.2408
H2M H 0.3888 0.3421 1.2592
C5L C 0.1491(3) 0.7566(3) 0.8145(3)
C5A C 0.1491(3) 0.2566(3) 0.1855(3)
C5M C 0.3509(3) 0.2434(3) 1.3145(3)
H3L H 0.1448 0.7418 0.8802
H3A H 0.1448 0.2418 0.1198
H3M H 0.3552 0.2582 1.3802
C6L C 0.1759(2) 0.8274(3) 0.7937(3)
C6A C 0.1759(2) 0.3274(3) 0.2063(3)
C6M C 0.3241(2) 0.1726(3) 1.2937(3)
H4L H 0.1907 0.8609 0.8431
H4A H 0.1907 0.3609 0.1569
H4M H 0.3093 0.1391 1.3431
C7L C 0.1568(2) 0.8080(2) 0.4332(3)
C7A C 0.1568(2) 0.3080(2) 0.5668(3)
C7M C 0.3432(2) 0.1920(2) 0.9332(3)
H5L H 0.1217 0.7657 0.4334
H5A H 0.1217 0.2657 0.5666
H5M H 0.3783 0.2343 0.9334
H6L H 0.1338 0.8488 0.3957
H6A H 0.1338 0.3488 0.6043
H6M H 0.3662 0.1512 0.8957
C8L C 0.2283(2) 0.7843(2) 0.3834(3)
C8A C 0.2283(2) 0.2843(2) 0.6166(3)
C8M C 0.2717(2) 0.2157(2) 0.8834(3)
H7L H 0.2646 0.8255 0.3863
H7A H 0.2646 0.3255 0.6137
H7M H 0.2354 0.1745 0.8863
H8L H 0.2497 0.7412 0.4182
H8A H 0.2497 0.2412 0.5818
H8M H 0.2503 0.2588 0.9182
C9L C 0.2147(2) 0.7628(2) 0.2762(3)
C9A C 0.2147(2) 0.2628(2) 0.7238(3)
C9M C 0.2853(2) 0.2372(2) 0.7762(3)
H9L H 0.1939 0.8062 0.2416
H9A H 0.1939 0.3062 0.7584
H9M H 0.3061 0.1938 0.7416
H10L H 0.1774 0.7225 0.2736
H10A H 0.1774 0.2225 0.7264
H10M H 0.3226 0.2775 0.7736
loop_
_geom_bond_atom_site_label_1
_geom_bond_atom_site_label_2
_geom_bond_site_symmetry_1
_geom_bond_site_symmetry_2
Cu1 Cl1 1_555 1_555
Cl1 Cu1C 1_555 1_555
N1 N2 1_555 1_555
N2 Cu1 1_555 1_555
N3 N2 1_555 1_555
C1 N3 1_555 1_555
C2 N1 1_555 1_555
C3 C2 1_555 1_555
H1 C3 1_555 1_555
C4 C3 1_555 1_555
H2 C4 1_555 1_555
C5 C4 1_555 1_555
H3 C5 1_555 1_555
C6 C1 1_555 1_555
H4 C6 1_555 1_555
C7 N1 1_555 1_555
H5 C7 1_555 1_555
H6 C7 1_555 1_555
C8 C7 1_555 1_555
H7 C8 1_555 1_555
H8 C8 1_555 1_555
C9 C8 1_555 1_555
H9 C9 1_555 1_555
H10 C9 1_555 1_555
Cu1B Cl1B 1_555 1_555
Cu1C N3 1_555 1_555
Cu1L Cl1L 1_555 1_555
Cu1O Cl1L 1_555 1_555
Cu1A Cl1A 1_555 1_555
Cu1M Cl1O 1_555 1_555
Cu1M_2 Cl1M 1_555 1_555
Cu1N Cl1M 1_555 1_555
Cl1B Cu1 1_555 1_555
Cl1A Cu1B 1_555 1_555
Cl1O Cu1O 1_555 1_555
Cl1O_2 Cu1M_2 1_555 1_555
N1L N2L 1_555 1_555
N1A N2A 1_555 1_555
N1M N2M 1_555 1_555
N2L Cu1L 1_555 1_555
N2B Cu1B 1_555 1_555
N2O Cu1O 1_555 1_555
N2A Cu1A 1_555 1_555
N2M Cu1M_2 1_555 1_555
N3L Cu1O 1_555 1_555
N3B Cu1 1_555 1_555
N3A Cu1B 1_555 1_555
N3M Cu1N 1_555 1_555
N3O Cu1M_2 1_555 1_555
C1L N3L 1_555 1_555
C1A N3A 1_555 1_555
C1M N3M 1_555 1_555
C2L N1L 1_555 1_555
C2A N1A 1_555 1_555
C2M N1M 1_555 1_555
C3L C2L 1_555 1_555
C3A C2A 1_555 1_555
C3M C2M 1_555 1_555
H1L C3L 1_555 1_555
H1A C3A 1_555 1_555
H1M C3M 1_555 1_555
C4L C3L 1_555 1_555
C4A C3A 1_555 1_555
C4M C3M 1_555 1_555
H2L C4L 1_555 1_555
H2A C4A 1_555 1_555
H2M C4M 1_555 1_555
C5L C4L 1_555 1_555
C5A C4A 1_555 1_555
C5M C4M 1_555 1_555
H3L C5L 1_555 1_555
H3A C5A 1_555 1_555
H3M C5M 1_555 1_555
C6L C1L 1_555 1_555
C6A C1A 1_555 1_555
C6M C1M 1_555 1_555
H4L C6L 1_555 1_555
H4A C6A 1_555 1_555
H4M C6M 1_555 1_555
C7L N1L 1_555 1_555
C7A N1A 1_555 1_555
C7M N1M 1_555 1_555
H5L C7L 1_555 1_555
H5A C7A 1_555 1_555
H5M C7M 1_555 1_555
H6L C7L 1_555 1_555
H6A C7A 1_555 1_555
H6M C7M 1_555 1_555
C8L C7L 1_555 1_555
C8A C7A 1_555 1_555
C8M C7M 1_555 1_555
H7L C8L 1_555 1_555
H7A C8A 1_555 1_555
H7M C8M 1_555 1_555
H8L C8L 1_555 1_555
H8A C8A 1_555 1_555
H8M C8M 1_555 1_555
C9L C9 1_555 1_555
C9A C8A 1_555 1_555
C9M C8M 1_555 1_555
H9L C9L 1_555 1_555
H9A C9A 1_555 1_555
H9M C9M 1_555 1_555
H10L C9L 1_555 1_555
H10A C9A 1_555 1_555
H10M C9M 1_555 1_555
C1 C2 1_555 1_555
C5 C6 1_555 1_555
N2L N3L 1_555 1_555
N2B N3B 1_555 1_555
N2A N3A 1_555 1_555
N2M N3M 1_555 1_555
C1L C2L 1_555 1_555
C1A C2A 1_555 1_555
C1M C2M 1_555 1_555
C5L C6L 1_555 1_555
C5A C6A 1_555 1_555
C5M C6M 1_555 1_555
C8L C9L 1_555 1_555
C9A C9M 1_555 1_555

#END
