
#######################################################################
#
#                 Cambridge Crystallographic Data Centre
#                                CCDC 
#
#######################################################################
#
# If this CIF has been generated from an entry in the Cambridge 
# Structural Database, then it will include bibliographic, chemical, 
# crystal, experimental, refinement or atomic coordinate data resulting 
# from the CCDC's data processing and validation procedures.
#
#######################################################################

data_PUMDIM
_symmetry_cell_setting           trigonal
_symmetry_space_group_name_H-M   'P 3 1 c'
_symmetry_Int_Tables_number      159
_space_group_name_Hall           "P 3 -2'c"
loop_
_symmetry_equiv_pos_site_id
_symmetry_equiv_pos_as_xyz
1 x,y,z
2 -y,x-y,z
3 -x+y,-x,z
4 y,x,1/2+z
5 x-y,-y,1/2+z
6 -x,-x+y,1/2+z
_cell_length_a                   16.2712(4)
_cell_length_b                   16.2712(4)
_cell_length_c                   17.2772(8)
_cell_angle_alpha                90
_cell_angle_beta                 90
_cell_angle_gamma                120
_cell_volume                     3961.35
loop_
_atom_site_label
_atom_site_type_symbol
_atom_site_fract_x
_atom_site_fract_y
_atom_site_fract_z
Co1 Co 0.94408(5) 0.59801(5) 0.79344(4)
Co2 Co 0.96506(5) 0.72431(5) 0.95064(4)
O1 O 0.8289(3) 0.6123(3) 0.7768(3)
O2 O 0.8763(3) 0.7269(3) 0.8637(3)
O3 O 0.7204(4) 0.9187(3) 0.8831(3)
O4 O 0.6723(4) 0.9463(3) 0.7703(3)
O5 O 0.7450(4) 0.8024(4) 0.5484(4)
O6 O 0.6393(3) 0.8475(3) 0.5145(3)
O7 O 0.4019(4) 0.5392(3) 0.3605(3)
O8 O 0.3690(3) 0.4054(3) 0.4132(2)
O9 O 0.4636(3) 0.4016(3) 0.6910(3)
O10 O 0.4601(4) 0.5153(4) 0.7557(3)
O11 O 0.9746(3) 0.8534(3) 0.9891(3)
O12 O 1.0591(4) 0.7401(4) 1.0421(4)
C1 C 0.7535(4) 0.7052(4) 0.7783(3)
C2 C 0.7533(4) 0.7823(4) 0.8114(4)
H1 H 0.7917 0.8129 0.8538
C3 C 0.6939(4) 0.8141(4) 0.7796(4)
C4 C 0.6372(4) 0.7687(4) 0.7167(4)
H2 H 0.6002 0.7914 0.6948
C5 C 0.6354(4) 0.6880(4) 0.6858(3)
C6 C 0.6935(4) 0.6579(4) 0.7170(3)
H3 H 0.6925 0.6046 0.6964
C7 C 0.8242(4) 0.6792(4) 0.8093(3)
C8 C 0.6965(4) 0.9005(4) 0.8138(4)
C9 C 0.5716(4) 0.6387(4) 0.6178(3)
C10 C 0.5819(4) 0.6879(4) 0.5499(3)
C11 C 0.5237(4) 0.6423(4) 0.4848(3)
H4 H 0.5298 0.6768 0.4402
C12 C 0.4578(4) 0.5460(4) 0.4877(3)
C13 C 0.4478(4) 0.4959(4) 0.5565(3)
H5 H 0.4053 0.4310 0.5584
C14 C 0.5008(4) 0.5422(4) 0.6219(3)
C15 C 0.6607(4) 0.7865(4) 0.5379(3)
C16 C 0.4054(4) 0.4950(4) 0.4176(3)
C17 C 0.4754(4) 0.4855(4) 0.6956(3)
Co1A Co 0.40199(5) 0.34607(7) 0.79344(4)
Co1B Co 0.65393(7) 1.05592(5) 0.79344(4)
Co1D Co 0.34607(7) 0.40199(5) 0.29344(4)
Co2B Co 0.75925(7) 1.03494(5) 0.95064(4)
Co2C Co 0.72431(5) 0.96506(5) 0.45064(4)
Co2D Co 0.24075(7) 0.27569(5) 0.45064(4)
O3A O 1.0813(3) 0.8017(5) 0.8831(3)
O4A O 1.0537(3) 0.7260(5) 0.7703(3)
O6C O 0.8475(3) 0.6393(3) 1.0145(3)
O7D O 0.8627(5) 0.4608(3) 0.8605(3)
O8D O 0.9636(4) 0.5946(3) 0.9132(2)
O9B O 0.9380(4) 0.5364(3) 0.6910(3)
Co3 Co 0.6667 0.3333 0.67580(8)
O13 O 0.5595(3) 0.2341(3) 0.7466(3)
O14 O 0.5669(5) 0.3435(5) 0.6065(4)
O13A O 0.7659(3) 0.3254(4) 0.7466(3)
O14A O 0.6565(5) 0.2234(7) 0.6065(4)
O13B O 0.6746(4) 0.4405(3) 0.7466(3)
O14B O 0.7766(7) 0.4331(5) 0.6065(4)
O15 O 0.0000 0.0000 0.8888(7)
O16 O 0.0000 0.0000 0.7218(13)
loop_
_geom_bond_atom_site_label_1
_geom_bond_atom_site_label_2
_geom_bond_site_symmetry_1
_geom_bond_site_symmetry_2
Co1 O1 1_555 1_555
Co2 O2 1_555 1_555
O1 C7 1_555 1_555
O2 C7 1_555 1_555
O3 C8 1_555 1_555
O4 C8 1_555 1_555
O5 C15 1_555 1_555
O6 C15 1_555 1_555
O7 C16 1_555 1_555
O8 C16 1_555 1_555
O9 C17 1_555 1_555
O10 C17 1_555 1_555
O11 Co2 1_555 1_555
O12 Co2 1_555 1_555
C1 C2 1_555 1_555
C2 H1 1_555 1_555
C3 C2 1_555 1_555
C4 C3 1_555 1_555
H2 C4 1_555 1_555
C5 C4 1_555 1_555
C6 C1 1_555 1_555
H3 C6 1_555 1_555
C7 C1 1_555 1_555
C8 C3 1_555 1_555
C9 C5 1_555 1_555
C10 C9 1_555 1_555
C11 C10 1_555 1_555
H4 C11 1_555 1_555
C12 C11 1_555 1_555
C13 C12 1_555 1_555
H5 C13 1_555 1_555
C14 C9 1_555 1_555
C15 C10 1_555 1_555
C16 C12 1_555 1_555
C17 C14 1_555 1_555
Co3 O13 1_555 1_555
O14 Co3 1_555 1_555
Co1A O9 1_555 1_555
Co1B O4 1_555 1_555
Co1D O7 1_555 1_555
Co2B O3 1_555 1_555
Co2C O6 1_555 1_555
Co2D O8 1_555 1_555
O3A Co2 1_555 1_555
O4A Co1 1_555 1_555
O6C Co2 1_555 1_555
O7D Co1 1_555 1_555
O8D Co1 1_555 1_555
O9B Co1 1_555 1_555
O13A Co3 1_555 1_555
O14A Co3 1_555 1_555
O13B Co3 1_555 1_555
O14B Co3 1_555 1_555
Co2 O8D 1_555 1_555
O8 Co1D 1_555 1_555
C5 C6 1_555 1_555
C13 C14 1_555 1_555

#END
