
#######################################################################
#
#                 Cambridge Crystallographic Data Centre
#                                CCDC 
#
#######################################################################
#
# If this CIF has been generated from an entry in the Cambridge 
# Structural Database, then it will include bibliographic, chemical, 
# crystal, experimental, refinement or atomic coordinate data resulting 
# from the CCDC's data processing and validation procedures.
#
#######################################################################

data_PUMZUT
_symmetry_cell_setting           triclinic
_symmetry_space_group_name_H-M   'P -1'
_symmetry_Int_Tables_number      2
_space_group_name_Hall           '-P 1'
loop_
_symmetry_equiv_pos_site_id
_symmetry_equiv_pos_as_xyz
1 x,y,z
2 -x,-y,-z
_cell_length_a                   9.597(2)
_cell_length_b                   10.525(2)
_cell_length_c                   12.360(3)
_cell_angle_alpha                73.492(11)
_cell_angle_beta                 69.486(9)
_cell_angle_gamma                66.600(9)
_cell_volume                     1057.75
loop_
_atom_site_label
_atom_site_type_symbol
_atom_site_fract_x
_atom_site_fract_y
_atom_site_fract_z
Tb1 Tb 0.56107(3) 0.31799(3) 0.23770(2)
Tb2 Tb 0.09169(3) 0.32903(3) 0.70691(2)
N1 N 0.2354(6) 0.1067(5) 0.2719(5)
H1 H 0.3340 0.1125 0.2488
P1 P 0.15739(17) 0.32249(15) 0.39519(13)
O1 O 0.1681(6) 0.3062(5) 0.5178(4)
O2 O 0.3042(5) 0.3409(5) 0.3030(4)
O3 O 0.0069(5) 0.4306(5) 0.3688(4)
O4 O -0.0752(6) 0.9035(5) 0.2716(6)
O5 O 0.8043(6) 0.1361(5) 0.2406(6)
O6 O -0.3195(6) 0.8634(5) 0.2495(5)
O7 O 0.5505(5) 0.0947(5) 0.2358(5)
O8 O -0.3295(5) 0.6052(5) 0.3679(4)
O9 O 0.5378(5) 0.4899(5) 0.3401(4)
O10 O -0.1217(5) 0.5611(5) 0.1608(4)
O11 O 0.7648(5) 0.4230(5) 0.1427(4)
O12 O 0.4294(6) 0.5466(5) 0.1376(4)
O13 O 0.6048(5) 0.3220(5) 0.0345(4)
O14 O -0.0689(6) 0.2923(6) 0.9100(5)
O15 O -0.1572(5) 0.3450(5) 0.6983(5)
O16 O 0.5415(8) 0.2156(6) 0.4475(5)
C1 C 0.1570(8) 0.1490(7) 0.3908(6)
H2 H 0.2105 0.0789 0.4465
H3 H 0.0488 0.1503 0.4151
C2 C 0.2538(9) -0.0436(7) 0.2792(6)
H4 H 0.1508 -0.0544 0.3038
H5 H 0.3106 -0.1033 0.3366
C3 C 0.3446(9) -0.0872(8) 0.1588(7)
H6 H 0.4509 -0.0848 0.1385
H7 H 0.3521 -0.1830 0.1628
C4 C 0.2684(10) 0.0051(10) 0.0667(8)
H8 H 0.1665 -0.0047 0.0821
H9 H 0.3328 -0.0226 -0.0086
C5 C 0.2465(10) 0.1582(9) 0.0625(7)
H10 H 0.1910 0.2182 0.0044
H11 H 0.3488 0.1699 0.0396
C6 C 0.1537(8) 0.2012(8) 0.1814(6)
H12 H 0.1436 0.2974 0.1785
H13 H 0.0487 0.1959 0.2019
C7 C -0.1874(7) 1.0109(7) 0.2528(6)
C8 C -0.3314(7) 0.9865(7) 0.2455(6)
C9 C -0.3513(7) 0.5380(6) 0.3108(6)
C10 C -0.2238(7) 0.5052(6) 0.1931(6)
C11 C 0.4491(7) 0.5655(6) 0.0298(6)
Tb1_2 Tb -0.43893(3) 1.31799(3) 0.23770(2)
Tb1_3 Tb -0.43893(3) 0.31799(3) 0.23770(2)
Tb1A Tb -0.56107(3) 0.68201(3) 0.76230(2)
Tb1A_2 Tb 0.43893(3) 0.68201(3) -0.23770(2)
Tb2A Tb -0.09169(3) 0.67097(3) 0.29309(2)
Tb2A_2 Tb 0.90831(3) -0.32903(3) 0.29309(2)
Tb2A_3 Tb 0.90831(3) 0.67097(3) 0.29309(2)
N1A N -0.2354(6) 0.8933(5) 0.7281(5)
H1A H -0.3340 0.8875 0.7512
P1A P -0.15739(17) 0.67751(15) 0.60481(13)
O1A O -0.1681(6) 0.6938(5) 0.4822(4)
O2A O -0.3042(5) 0.6591(5) 0.6970(4)
O3A O -0.0069(5) 0.5694(5) 0.6312(4)
O4A O 0.0752(6) 0.0965(5) 0.7284(6)
O4_2 O 0.9248(6) -0.0965(5) 0.2716(6)
O5_2 O -0.1957(6) 1.1361(5) 0.2406(6)
O5A O -0.8043(6) 0.8639(5) 0.7594(6)
O6A O 0.3195(6) 0.1366(5) 0.7505(5)
O6_2 O 0.6805(6) -0.1366(5) 0.2495(5)
O7_2 O -0.4495(5) 1.0947(5) 0.2358(5)
O7A O -0.5505(5) 0.9053(5) 0.7642(5)
O8A O 0.3295(5) 0.3948(5) 0.6321(4)
O8_2 O 0.6705(5) 0.6052(5) 0.3679(4)
O9_2 O -0.4622(5) 0.4899(5) 0.3401(4)
O9A O -0.5378(5) 0.5101(5) 0.6599(4)
O10A O 0.1217(5) 0.4389(5) 0.8392(4)
O10_2 O 0.8783(5) 0.5611(5) 0.1608(4)
O11_2 O -0.2352(5) 0.4230(5) 0.1427(4)
O11A O -0.7648(5) 0.5770(5) 0.8573(4)
O12A O 0.5706(6) 0.4534(5) -0.1376(4)
O12A_2 O -0.4294(6) 0.4534(5) 0.8624(4)
O13A O 0.3952(5) 0.6780(5) -0.0345(4)
O13A_2 O -0.6048(5) 0.6780(5) 0.9655(4)
O14A O 0.0689(6) 0.7077(6) 0.0900(5)
O15A O 0.1572(5) 0.6550(5) 0.3017(5)
O16A O -0.5415(8) 0.7844(6) 0.5525(5)
C1A C -0.1570(8) 0.8510(7) 0.6092(6)
H2A H -0.2105 0.9211 0.5535
H3A H -0.0488 0.8497 0.5849
C2A C -0.2538(9) 1.0436(7) 0.7208(6)
H4A H -0.1508 1.0544 0.6962
H5A H -0.3106 1.1033 0.6634
C3A C -0.3446(9) 1.0872(8) 0.8412(7)
H6A H -0.4509 1.0848 0.8615
H7A H -0.3521 1.1830 0.8372
C4A C -0.2684(10) 0.9949(10) 0.9333(8)
H8A H -0.1665 1.0047 0.9179
H9A H -0.3328 1.0226 1.0086
C5A C -0.2465(10) 0.8418(9) 0.9375(7)
H10A H -0.1910 0.7818 0.9956
H11A H -0.3488 0.8301 0.9604
C6A C -0.1537(8) 0.7988(8) 0.8186(6)
H12A H -0.1436 0.7026 0.8215
H13A H -0.0487 0.8041 0.7981
C7_2 C 0.8126(7) 0.0109(7) 0.2528(6)
C8_2 C 0.6686(7) -0.0135(7) 0.2455(6)
C9_2 C 0.6487(7) 0.5380(6) 0.3108(6)
C10_2 C 0.7762(7) 0.5052(6) 0.1931(6)
C11A C 0.5509(7) 0.4345(6) -0.0298(6)
O17 O 0.2508(7) 0.6725(6) 0.4811(5)
H14 H 0.2220 0.6671 0.4254
H15 H 0.2738 0.5927 0.5246
loop_
_geom_bond_atom_site_label_1
_geom_bond_atom_site_label_2
_geom_bond_site_symmetry_1
_geom_bond_site_symmetry_2
Tb1 O2 1_555 1_555
Tb2 O1 1_555 1_555
N1 H1 1_555 1_555
P1 O1 1_555 1_555
O2 P1 1_555 1_555
O3 P1 1_555 1_555
O4 C7 1_555 1_555
O5 Tb1 1_555 1_555
O6 C8 1_555 1_555
O7 Tb1 1_555 1_555
O8 C9 1_555 1_555
O9 Tb1 1_555 1_555
O10 C10 1_555 1_555
O11 Tb1 1_555 1_555
O12 Tb1 1_555 1_555
O13 Tb1 1_555 1_555
O14 Tb2 1_555 1_555
O15 Tb2 1_555 1_555
O16 Tb1 1_555 1_555
C1 N1 1_555 1_555
H2 C1 1_555 1_555
H3 C1 1_555 1_555
C2 N1 1_555 1_555
H4 C2 1_555 1_555
H5 C2 1_555 1_555
C3 C2 1_555 1_555
H6 C3 1_555 1_555
H7 C3 1_555 1_555
C4 C3 1_555 1_555
H8 C4 1_555 1_555
H9 C4 1_555 1_555
C5 C4 1_555 1_555
H10 C5 1_555 1_555
H11 C5 1_555 1_555
C6 N1 1_555 1_555
H12 C6 1_555 1_555
H13 C6 1_555 1_555
C7 C8 1_555 1_555
C8 O7_2 1_555 1_555
C9 C10 1_555 1_555
C10 O11_2 1_555 1_555
C11 O12 1_555 1_555
O17 H14 1_555 1_555
H15 O17 1_555 1_555
Tb1_2 O5_2 1_555 1_555
Tb1_3 O9_2 1_555 1_555
Tb1A O2A 1_555 1_555
Tb1A_2 O12A 1_555 1_555
Tb2A O3 1_555 1_555
Tb2A_2 O4_2 1_555 1_555
Tb2A_3 O8_2 1_555 1_555
N1A H1A 1_555 1_555
P1A O1A 1_555 1_555
O1A Tb2A 1_555 1_555
O2A P1A 1_555 1_555
O3A Tb2 1_555 1_555
O4A Tb2 1_555 1_555
O4_2 C7_2 1_555 1_555
O5_2 C7 1_555 1_555
O5A Tb1A 1_555 1_555
O6A Tb2 1_555 1_555
O6_2 Tb2A_2 1_555 1_555
O7_2 Tb1_2 1_555 1_555
O7A Tb1A 1_555 1_555
O8A Tb2 1_555 1_555
O8_2 C9_2 1_555 1_555
O9_2 C9 1_555 1_555
O9A Tb1A 1_555 1_555
O10A Tb2 1_555 1_555
O10_2 Tb2A_3 1_555 1_555
O11_2 Tb1_3 1_555 1_555
O11A Tb1A 1_555 1_555
O12A C11A 1_555 1_555
O12A_2 Tb1A 1_555 1_555
O13A C11 1_555 1_555
O13A_2 Tb1A 1_555 1_555
O14A Tb2A 1_555 1_555
O15A Tb2A 1_555 1_555
O16A Tb1A 1_555 1_555
C1A N1A 1_555 1_555
H2A C1A 1_555 1_555
H3A C1A 1_555 1_555
C2A N1A 1_555 1_555
H4A C2A 1_555 1_555
H5A C2A 1_555 1_555
C3A C2A 1_555 1_555
H6A C3A 1_555 1_555
H7A C3A 1_555 1_555
C4A C3A 1_555 1_555
H8A C4A 1_555 1_555
H9A C4A 1_555 1_555
C5A C4A 1_555 1_555
H10A C5A 1_555 1_555
H11A C5A 1_555 1_555
C6A N1A 1_555 1_555
H12A C6A 1_555 1_555
H13A C6A 1_555 1_555
C7_2 O5 1_555 1_555
C8_2 O7 1_555 1_555
C9_2 O9 1_555 1_555
C10_2 O11 1_555 1_555
C11A O13 1_555 1_555
P1 C1 1_555 1_555
O4 Tb2A 1_555 1_555
O6 Tb2A 1_555 1_555
O8 Tb2A 1_555 1_555
O10 Tb2A 1_555 1_555
C5 C6 1_555 1_555
C11 C11A 1_555 1_555
Tb1A_2 O13A 1_555 1_555
P1A O3A 1_555 1_555
P1A C1A 1_555 1_555
O6_2 C8_2 1_555 1_555
O10_2 C10_2 1_555 1_555
C5A C6A 1_555 1_555
C7_2 C8_2 1_555 1_555
C9_2 C10_2 1_555 1_555

#END
