
#######################################################################
#
#                 Cambridge Crystallographic Data Centre
#                                CCDC 
#
#######################################################################
#
# If this CIF has been generated from an entry in the Cambridge 
# Structural Database, then it will include bibliographic, chemical, 
# crystal, experimental, refinement or atomic coordinate data resulting 
# from the CCDC's data processing and validation procedures.
#
#######################################################################

data_PUMZIH
_symmetry_cell_setting           triclinic
_symmetry_space_group_name_H-M   'P -1'
_symmetry_Int_Tables_number      2
_space_group_name_Hall           '-P 1'
loop_
_symmetry_equiv_pos_site_id
_symmetry_equiv_pos_as_xyz
1 x,y,z
2 -x,-y,-z
_cell_length_a                   9.6595(3)
_cell_length_b                   10.6553(1)
_cell_length_c                   12.3775(1)
_cell_angle_alpha                73.620(1)
_cell_angle_beta                 69.557(2)
_cell_angle_gamma                66.538(1)
_cell_volume                     1079.78
loop_
_atom_site_label
_atom_site_type_symbol
_atom_site_fract_x
_atom_site_fract_y
_atom_site_fract_z
Sm1 Sm 0.40988(3) 0.66955(2) 0.29118(2)
Sm2 Sm -0.05923(3) 0.68446(2) 0.76037(2)
P1 P 0.34543(13) 0.67977(12) 0.60438(10)
N1 N 0.2675(5) 0.8930(4) 0.7269(4)
H1 H 0.1696 0.8873 0.7488
O1 O 0.3340(5) 0.6965(4) 0.4821(3)
O2 O 0.1990(4) 0.6634(4) 0.6971(3)
O3 O 0.5058(4) 0.4285(4) 0.3695(3)
O4 O 0.4257(5) 0.9026(4) 0.2642(5)
O5 O -0.3037(4) 0.8675(4) 0.7620(4)
O6 O 0.1782(5) 0.8632(4) 0.2509(4)
O7 O -0.0491(4) 0.9090(4) 0.7619(4)
O8 O 0.3764(4) 0.5592(4) 0.1589(3)
O9 O -0.2654(4) 0.5804(4) 0.8560(3)
O10 O 0.1712(4) 0.6036(4) 0.3663(3)
O11 O -0.0393(4) 0.5111(4) 0.6592(3)
O12 O -0.1023(4) 0.6770(4) 0.9675(3)
O13 O 0.0714(4) 0.4551(4) 0.8621(3)
O14 O 0.6605(4) 0.6543(4) 0.2996(4)
H2 H 0.6707 0.7340 0.2760
H3 H 0.7325 0.5981 0.2559
O15 O 0.5719(5) 0.7028(5) 0.0851(4)
H4 H 0.5687 0.6484 0.0479
H5 H 0.6661 0.6846 0.0846
O16 O -0.0366(7) 0.7844(5) 0.5477(4)
H6 H -0.1272 0.8331 0.5385
H7 H 0.0041 0.7188 0.5082
C1 C 0.3477(6) 0.8498(5) 0.6099(5)
H8 H 0.4557 0.8465 0.5879
H9 H 0.2975 0.9193 0.5529
C2 C 0.2485(7) 1.0415(6) 0.7214(5)
H10 H 0.1952 1.1004 0.6623
H11 H 0.3509 1.0512 0.6993
C3 C 0.1558(8) 1.0868(6) 0.8379(6)
H12 H 0.0503 1.0851 0.8563
H13 H 0.1487 1.1815 0.8335
C4 C 0.2307(9) 0.9937(7) 0.9343(6)
H14 H 0.1647 1.0216 1.0089
H15 H 0.3316 1.0029 0.9207
C5 C 0.2522(8) 0.8436(7) 0.9374(5)
H16 H 0.3052 0.7842 0.9966
H17 H 0.1504 0.8329 0.9583
C6 C 0.3475(7) 0.7998(6) 0.8194(5)
H18 H 0.4514 0.8053 0.8003
H19 H 0.3583 0.7045 0.8224
C7 C 0.3124(6) 1.0089(5) 0.2495(5)
C8 C 0.1674(6) 0.9849(5) 0.2461(4)
C9 C 0.2757(5) 0.5020(5) 0.1928(4)
C10 C 0.1495(6) 0.5360(5) 0.3105(4)
C11 C -0.0505(5) 0.5641(5) 1.0307(4)
Sm1A Sm -0.40988(3) 1.33045(2) 0.70882(2)
Sm1A_2 Sm 0.59012(3) 0.33045(2) 0.70882(2)
Sm1A_3 Sm -0.40988(3) 0.33045(2) 0.70882(2)
Sm2A Sm 0.05923(3) 1.31554(2) 0.23963(2)
Sm2A_2 Sm 1.05923(3) 0.31554(2) 0.23963(2)
Sm2A_3 Sm 0.05923(3) 0.31554(2) 0.23963(2)
Sm2A_4 Sm 0.05923(3) 0.31554(2) 1.23963(2)
P1A P 0.65457(13) 0.32023(12) 0.39562(10)
N1A N 0.7325(5) 0.1070(4) 0.2731(4)
H1A H 0.8304 0.1127 0.2512
O1A O 0.6660(5) 0.3035(4) 0.5179(3)
O2A O 0.8010(4) 0.3366(4) 0.3029(3)
O3A O 0.4942(4) 0.5715(4) 0.6305(3)
O4A O -0.4257(5) 1.0974(4) 0.7358(5)
O4A_2 O 0.5743(5) 0.0974(4) 0.7358(5)
O5A O 0.3037(4) 1.1325(4) 0.2380(4)
O5A_2 O 1.3037(4) 0.1325(4) 0.2380(4)
O6A O -0.1782(5) 1.1368(4) 0.7491(4)
O6A_2 O 0.8218(5) 0.1368(4) 0.7491(4)
O7A O 0.0491(4) 1.0910(4) 0.2381(4)
O7A_2 O 1.0491(4) 0.0910(4) 0.2381(4)
O8A O -0.3764(4) 0.4408(4) 0.8411(3)
O8A_2 O 0.6236(4) 0.4408(4) 0.8411(3)
O9A O 0.2654(4) 0.4196(4) 0.1440(3)
O9A_2 O 1.2654(4) 0.4196(4) 0.1440(3)
O10A O -0.1712(4) 0.3964(4) 0.6337(3)
O10A_2 O 0.8288(4) 0.3964(4) 0.6337(3)
O11A O 0.0393(4) 0.4889(4) 0.3408(3)
O11A_2 O 1.0393(4) 0.4889(4) 0.3408(3)
O12A O 0.1023(4) 0.3230(4) 1.0325(3)
O12A_2 O 1.1023(4) 0.3230(4) 0.0325(3)
O13A O -0.0714(4) 0.5449(4) 1.1379(3)
O13A_2 O 0.9286(4) 0.5449(4) 0.1379(3)
O14A O 0.3395(4) 0.3457(4) 0.7004(4)
H2A H 0.3293 0.2660 0.7240
H3A H 0.2675 0.4019 0.7441
O15A O 0.4281(5) 0.2972(5) 0.9149(4)
H4A H 0.4313 0.3516 0.9521
H5A H 0.3339 0.3154 0.9154
O16A O 1.0366(7) 0.2156(5) 0.4523(4)
H6A H 1.1272 0.1669 0.4615
H7A H 0.9959 0.2812 0.4918
C1A C 0.6523(6) 0.1502(5) 0.3901(5)
H8A H 0.5443 0.1535 0.4121
H9A H 0.7025 0.0807 0.4471
C2A C 0.7515(7) -0.0415(6) 0.2786(5)
H10A H 0.8048 -0.1004 0.3377
H11A H 0.6491 -0.0512 0.3007
C3A C 0.8442(8) -0.0868(6) 0.1621(6)
H12A H 0.9497 -0.0851 0.1437
H13A H 0.8513 -0.1815 0.1665
C4A C 0.7693(9) 0.0063(7) 0.0657(6)
H14A H 0.8353 -0.0216 -0.0089
H15A H 0.6684 -0.0029 0.0793
C5A C 0.7478(8) 0.1564(7) 0.0626(5)
H16A H 0.6948 0.2158 0.0034
H17A H 0.8496 0.1671 0.0417
C6A C 0.6525(7) 0.2002(6) 0.1806(5)
H18A H 0.5486 0.1947 0.1997
H19A H 0.6417 0.2955 0.1776
C7A C -0.3124(6) 0.9911(5) 0.7505(5)
C8A C -0.1674(6) 1.0151(5) 0.7539(4)
C9A C -0.2757(5) 0.4980(5) 0.8072(4)
C10A C -0.1495(6) 0.4640(5) 0.6895(4)
C11A C 0.0505(5) 0.4359(5) 0.9693(4)
O17 O 0.2482(5) 0.3296(5) 0.5198(4)
H20 H 0.2762 0.3361 0.5754
H21 H 0.2265 0.4087 0.4767
loop_
_geom_bond_atom_site_label_1
_geom_bond_atom_site_label_2
_geom_bond_site_symmetry_1
_geom_bond_site_symmetry_2
Sm1 O1 1_555 1_555
Sm2 O2 1_555 1_555
P1 O1 1_555 1_555
N1 H1 1_555 1_555
O2 P1 1_555 1_555
O3 Sm1 1_555 1_555
O4 Sm1 1_555 1_555
O5 Sm2 1_555 1_555
O6 Sm1 1_555 1_555
O7 Sm2 1_555 1_555
O8 Sm1 1_555 1_555
O9 Sm2 1_555 1_555
O10 Sm1 1_555 1_555
O11 Sm2 1_555 1_555
O12 Sm2 1_555 1_555
O13 Sm2 1_555 1_555
O14 Sm1 1_555 1_555
H2 O14 1_555 1_555
H3 O14 1_555 1_555
O15 Sm1 1_555 1_555
H4 O15 1_555 1_555
H5 O15 1_555 1_555
O16 Sm2 1_555 1_555
H6 O16 1_555 1_555
H7 O16 1_555 1_555
C1 P1 1_555 1_555
H8 C1 1_555 1_555
H9 C1 1_555 1_555
C2 N1 1_555 1_555
H10 C2 1_555 1_555
H11 C2 1_555 1_555
C3 C2 1_555 1_555
H12 C3 1_555 1_555
H13 C3 1_555 1_555
C4 C3 1_555 1_555
H14 C4 1_555 1_555
H15 C4 1_555 1_555
C5 C4 1_555 1_555
H16 C5 1_555 1_555
H17 C5 1_555 1_555
C6 N1 1_555 1_555
H18 C6 1_555 1_555
H19 C6 1_555 1_555
C7 O4 1_555 1_555
C8 O6 1_555 1_555
C9 O8 1_555 1_555
C10 O10 1_555 1_555
C11 O12 1_555 1_555
O17 H20 1_555 1_555
H21 O17 1_555 1_555
Sm1A O4A 1_555 1_555
Sm1A_2 O1A 1_555 1_555
Sm1A_3 O8A 1_555 1_555
Sm2A O5A 1_555 1_555
Sm2A_2 O2A 1_555 1_555
Sm2A_3 O9A 1_555 1_555
Sm2A_4 O12A 1_555 1_555
P1A O3 1_555 1_555
N1A H1A 1_555 1_555
O1A P1A 1_555 1_555
O2A P1A 1_555 1_555
O3A P1 1_555 1_555
O4A C7A 1_555 1_555
O4A_2 Sm1A_2 1_555 1_555
O5A C7 1_555 1_555
O5A_2 Sm2A_2 1_555 1_555
O6A Sm1A 1_555 1_555
O6A_2 Sm1A_2 1_555 1_555
O7A C8 1_555 1_555
O7A_2 Sm2A_2 1_555 1_555
O8A C9A 1_555 1_555
O8A_2 Sm1A_2 1_555 1_555
O9A C9 1_555 1_555
O9A_2 Sm2A_2 1_555 1_555
O10A Sm1A_3 1_555 1_555
O10A_2 Sm1A_2 1_555 1_555
O11A C10 1_555 1_555
O11A_2 Sm2A_2 1_555 1_555
O12A C11A 1_555 1_555
O12A_2 Sm2A_2 1_555 1_555
O13A C11 1_555 1_555
O13A_2 Sm2A_2 1_555 1_555
O14A Sm1A_2 1_555 1_555
H2A O14A 1_555 1_555
H3A O14A 1_555 1_555
O15A Sm1A_2 1_555 1_555
H4A O15A 1_555 1_555
H5A O15A 1_555 1_555
O16A Sm2A_2 1_555 1_555
H6A O16A 1_555 1_555
H7A O16A 1_555 1_555
C1A P1A 1_555 1_555
H8A C1A 1_555 1_555
H9A C1A 1_555 1_555
C2A N1A 1_555 1_555
H10A C2A 1_555 1_555
H11A C2A 1_555 1_555
C3A C2A 1_555 1_555
H12A C3A 1_555 1_555
H13A C3A 1_555 1_555
C4A C3A 1_555 1_555
H14A C4A 1_555 1_555
H15A C4A 1_555 1_555
C5A C4A 1_555 1_555
H16A C5A 1_555 1_555
H17A C5A 1_555 1_555
C6A N1A 1_555 1_555
H18A C6A 1_555 1_555
H19A C6A 1_555 1_555
C7A O5 1_555 1_555
C8A O7 1_555 1_555
C9A O9 1_555 1_555
C10A O11 1_555 1_555
C11A O13 1_555 1_555
N1 C1 1_555 1_555
C5 C6 1_555 1_555
C7 C8 1_555 1_555
C9 C10 1_555 1_555
C11 C11A 1_555 1_555
Sm1A_2 O3A 1_555 1_555
Sm2A O7A 1_555 1_555
Sm2A_3 O11A 1_555 1_555
Sm2A_4 O13A 1_555 1_555
N1A C1A 1_555 1_555
O6A C8A 1_555 1_555
O10A C10A 1_555 1_555
C5A C6A 1_555 1_555
C7A C8A 1_555 1_555
C9A C10A 1_555 1_555

#END
