
#######################################################################
#
#                 Cambridge Crystallographic Data Centre
#                                CCDC 
#
#######################################################################
#
# If this CIF has been generated from an entry in the Cambridge 
# Structural Database, then it will include bibliographic, chemical, 
# crystal, experimental, refinement or atomic coordinate data resulting 
# from the CCDC's data processing and validation procedures.
#
#######################################################################

data_PUMZAZ
_symmetry_cell_setting           monoclinic
_symmetry_space_group_name_H-M   'P 21/c'
_symmetry_Int_Tables_number      14
_space_group_name_Hall           '-P 2ybc'
loop_
_symmetry_equiv_pos_site_id
_symmetry_equiv_pos_as_xyz
1 x,y,z
2 -x,1/2+y,1/2-z
3 -x,-y,-z
4 x,1/2-y,1/2+z
_cell_length_a                   10.5870(5)
_cell_length_b                   26.0488(11)
_cell_length_c                   11.7631(5)
_cell_angle_alpha                90
_cell_angle_beta                 98.326(3)
_cell_angle_gamma                90
_cell_volume                     3209.82
loop_
_atom_site_label
_atom_site_type_symbol
_atom_site_fract_x
_atom_site_fract_y
_atom_site_fract_z
O2 O 0.4364(4) 0.95413(19) 0.8932(5)
H3 H 0.4083 0.9841 0.8763
H4 H 0.4441 0.9482 0.9650
O3 O 0.5817(7) 0.8707(3) 0.3201(6)
H5 H 0.5985 0.8389 0.3193
H6 H 0.5097 0.8747 0.2786
O4 O 0.7107(11) 1.0921(2) 0.7891(6)
H7 H 0.6920 1.1221 0.8100
H8 H 0.6537 1.0702 0.7990
O5 O 0.6554(8) 0.9480(3) 0.1627(7)
Gd1 Gd 0.852791(18) 0.911316(7) 0.862639(17)
Gd2 Gd 0.360222(18) 0.786707(7) 0.945403(16)
Gd3 Gd 0.774828(18) 1.034330(7) 0.460966(17)
P1 P 0.91061(10) 0.91279(4) 0.56003(9)
N1 N 0.8682(4) 0.83693(13) 0.3840(3)
H9 H 0.8192 0.8612 0.3432
O6 O 0.8603(3) 0.91444(12) 0.6731(3)
O7 O 0.8426(3) 0.94945(12) 0.4711(3)
O8 O 1.0536(3) 0.91823(12) 0.5710(3)
O9 O 0.5328(3) 0.84447(13) 1.0194(3)
O10 O 0.7138(3) 0.88375(13) 0.9955(3)
O11 O 0.5249(3) 0.79983(13) 0.8145(3)
O12 O 0.6930(3) 0.84712(13) 0.7827(3)
O13 O 1.1330(3) 0.78634(11) 0.9420(3)
O14 O 0.9532(3) 0.83204(12) 0.9081(3)
O15 O 1.2706(3) 0.87256(11) 0.9322(3)
O16 O 1.0897(3) 0.91541(11) 0.8727(3)
O17 O 0.3358(3) 0.71500(11) 0.8200(3)
O18 O 0.3527(4) 0.69041(12) 0.6419(3)
O19 O 0.2639(3) 0.80843(11) 0.7416(3)
O20 O 0.2930(3) 0.78501(11) 0.5639(3)
O21 O 0.9383(3) 0.94368(12) 1.0504(3)
O22 O 1.0783(3) 0.99990(11) 1.1406(3)
O23 O 0.6357(3) 1.00979(13) 0.6008(3)
O24 O 0.4344(3) 0.99506(13) 0.6265(3)
O25 O 0.6672(3) 0.96459(15) 0.8178(3)
H10 H 0.6575 0.9784 0.7516
H11 H 0.5954 0.9613 0.8413
O26 O 0.5480(4) 0.73345(15) 1.0298(4)
O27 O 0.9184(3) 1.03533(12) 0.6404(3)
H12 H 0.9871 1.0232 0.6217
H13 H 0.9191 1.0245 0.7086
O28 O 0.6653(3) 1.09645(12) 0.3216(3)
H14 H 0.6025 1.1050 0.3550
H15 H 0.6360 1.0817 0.2588
O29 O 0.8217(4) 1.00860(13) 0.2747(3)
H16 H 0.8480 1.0311 0.2312
H17 H 0.7671 0.9886 0.2376
O30 O 0.7144(4) 1.11208(14) 0.5577(3)
H18 H 0.6382 1.1161 0.5245
H19 H 0.7124 1.1060 0.6284
C1 C 0.8692(5) 0.84731(16) 0.5099(4)
H20 H 0.9291 0.8238 0.5529
H21 H 0.7852 0.8393 0.5288
C2 C 0.8107(6) 0.78512(18) 0.3527(5)
H22 H 0.7249 0.7837 0.3725
H23 H 0.8612 0.7587 0.3959
C3 C 0.8063(7) 0.7755(2) 0.2246(5)
H24 H 0.7717 0.7415 0.2062
H25 H 0.7495 0.8003 0.1821
C4 C 0.9357(8) 0.7794(2) 0.1871(5)
H26 H 0.9276 0.7758 0.1042
H27 H 0.9900 0.7520 0.2218
C5 C 0.9955(7) 0.8312(2) 0.2231(5)
H28 H 1.0815 0.8325 0.2039
H29 H 0.9462 0.8584 0.1815
C6 C 0.9996(5) 0.8394(2) 0.3514(5)
H30 H 1.0529 0.8133 0.3931
H31 H 1.0370 0.8727 0.3726
C7 C 0.6194(4) 0.85521(16) 0.9630(4)
C8 C 0.6122(4) 0.83188(16) 0.8422(4)
C9 C 1.0721(4) 0.82710(16) 0.9203(4)
C10 C 1.1512(4) 0.87613(15) 0.9071(3)
C11 C 0.3298(4) 0.72253(15) 0.7147(4)
C12 C 0.2913(4) 0.77714(15) 0.6680(4)
C13 C 1.0046(4) 0.98336(16) 1.0557(4)
C14 C 0.5197(4) 1.00135(15) 0.5656(4)
Gd1B Gd 1.147209(18) 1.088684(7) 1.137361(17)
Gd1_2 Gd -0.147209(18) 0.911316(7) 0.862639(17)
Gd1B_2 Gd 1.147209(18) 1.088684(7) 0.137361(17)
Gd2_2 Gd 1.360222(18) 0.786707(7) 0.945403(16)
Gd2C Gd 0.360222(18) 0.713293(7) 0.445403(16)
Gd2C_2 Gd 0.360222(18) 0.713293(7) 1.445403(16)
Gd2B Gd 1.639778(18) 1.213293(7) 1.054597(16)
Gd3B Gd 1.225172(18) 0.965670(7) 0.539034(17)
Gd3B_2 Gd 0.225172(18) 0.965670(7) 0.539034(17)
P1B P 1.08939(10) 1.08721(4) 0.43997(9)
N1B N 1.1318(4) 1.16307(13) 0.6160(3)
H9B H 1.1808 1.1388 0.6568
O6B O 1.1397(3) 1.08556(12) 0.3269(3)
O6B_2 O 1.1397(3) 1.08556(12) 1.3269(3)
O7B O 1.1574(3) 1.05055(12) 0.5289(3)
O8B O 0.9464(3) 1.08177(12) 0.4290(3)
O9B O 1.4672(3) 1.15553(13) 0.9806(3)
O9_2 O 1.5328(3) 0.84447(13) 1.0194(3)
O10B O 1.2862(3) 1.11625(13) 1.0045(3)
O11B O 1.4751(3) 1.20017(13) 1.1855(3)
O11_2 O 1.5249(3) 0.79983(13) 0.8145(3)
O12B O 1.3070(3) 1.15288(13) 1.2173(3)
O13_2 O 0.1330(3) 0.78634(11) 0.9420(3)
O14_2 O -0.0468(3) 0.83204(12) 0.9081(3)
O14B O 1.0468(3) 1.16796(12) 1.0919(3)
O15_2 O 0.2706(3) 0.87256(11) 0.9322(3)
O16_2 O 0.0897(3) 0.91541(11) 0.8727(3)
O16B O 0.9103(3) 1.08459(11) 1.1273(3)
O17C O 0.3358(3) 0.78500(11) 1.3200(3)
O17_2 O 1.3358(3) 0.71500(11) 0.8200(3)
O18C O 0.3527(4) 0.80959(12) 1.1419(3)
O18C_2 O 1.3527(4) 0.80959(12) 1.1419(3)
O19C O 0.2639(3) 0.69157(11) 1.2416(3)
O19_2 O 1.2639(3) 0.80843(11) 0.7416(3)
O20C O 0.2930(3) 0.71499(11) 1.0639(3)
O20C_2 O 1.2930(3) 0.71499(11) 1.0639(3)
O21B O 1.0617(3) 1.05632(12) 0.9496(3)
O22B O 0.9217(3) 1.00010(11) 0.8594(3)
O23B O 0.3643(3) 0.99021(13) 0.3992(3)
O23B_2 O 1.3643(3) 0.99021(13) 0.3992(3)
O24B O 0.5656(3) 1.00494(13) 0.3735(3)
O24_2 O 1.4344(3) 0.99506(13) 0.6265(3)
O25B O 1.3328(3) 1.03541(15) 1.1822(3)
H10B H 1.3425 1.0216 1.2484
H11B H 1.4046 1.0387 1.1587
O26_2 O 1.5480(4) 0.73345(15) 1.0298(4)
O27B O 1.0816(3) 0.96467(12) 0.3596(3)
H12B H 1.0129 0.9768 0.3783
H13B H 1.0809 0.9755 0.2914
O28B O 1.3347(3) 0.90355(12) 0.6784(3)
H14B H 1.3975 0.8950 0.6450
H15B H 1.3640 0.9183 0.7412
O29B O 1.1783(4) 0.99140(13) 0.7253(3)
H16B H 1.1520 0.9689 0.7688
H17B H 1.2329 1.0114 0.7624
O30B O 1.2856(4) 0.88792(14) 0.4423(3)
H18B H 1.3618 0.8839 0.4755
H19B H 1.2876 0.8940 0.3716
C1B C 1.1308(5) 1.15269(16) 0.4901(4)
H20B H 1.0709 1.1762 0.4471
H21B H 1.2148 1.1607 0.4712
C2B C 1.1893(6) 1.21488(18) 0.6473(5)
H22B H 1.2751 1.2163 0.6275
H23B H 1.1388 1.2413 0.6041
C3B C 1.1937(7) 1.2245(2) 0.7754(5)
H24B H 1.2283 1.2585 0.7938
H25B H 1.2505 1.1997 0.8179
C4B C 1.0643(8) 1.2206(2) 0.8129(5)
H26B H 1.0724 1.2242 0.8958
H27B H 1.0100 1.2480 0.7782
C5B C 1.0045(7) 1.1688(2) 0.7769(5)
H28B H 0.9185 1.1675 0.7961
H29B H 1.0538 1.1416 0.8185
C6B C 1.0004(5) 1.1606(2) 0.6486(5)
H30B H 0.9471 1.1867 0.6069
H31B H 0.9630 1.1273 0.6274
C7B C 1.3806(4) 1.14479(16) 1.0370(4)
C8B C 1.3878(4) 1.16812(16) 1.1578(4)
C9_2 C 0.0721(4) 0.82710(16) 0.9203(4)
C10_2 C 0.1512(4) 0.87613(15) 0.9071(3)
C11C C 0.3298(4) 0.77747(15) 1.2147(4)
C12C C 0.2913(4) 0.72286(15) 1.1680(4)
C13B C 0.9954(4) 1.01664(16) 0.9443(4)
C14B C 0.4803(4) 0.99865(15) 0.4344(4)
O1 O 0.5571(4) 0.8740(2) 0.5612(4)
H1 H 0.5523 0.8890 0.4966
H2 H 0.5541 0.8416 0.5519
O31? O 0.7326(10) 0.9119(3) 0.2236(7)
loop_
_geom_bond_atom_site_label_1
_geom_bond_atom_site_label_2
_geom_bond_site_symmetry_1
_geom_bond_site_symmetry_2
O1 H1 1_555 1_555
H2 O1 1_555 1_555
O2 H3 1_555 1_555
H4 O2 1_555 1_555
O3 H5 1_555 1_555
H6 O3 1_555 1_555
O4 H7 1_555 1_555
H8 O4 1_555 1_555
Gd1 O6 1_555 1_555
Gd2 O9 1_555 1_555
Gd3 O7 1_555 1_555
P1 O6 1_555 1_555
N1 H9 1_555 1_555
O7 P1 1_555 1_555
O8 P1 1_555 1_555
O9 C7 1_555 1_555
O10 Gd1 1_555 1_555
O11 Gd2 1_555 1_555
O12 Gd1 1_555 1_555
O13 C9 1_555 1_555
O14 Gd1 1_555 1_555
O15 C10 1_555 1_555
O16 Gd1 1_555 1_555
O17 Gd2 1_555 1_555
O18 C11 1_555 1_555
O19 Gd2 1_555 1_555
O20 C12 1_555 1_555
O21 Gd1 1_555 1_555
O22 C13 1_555 1_555
O23 Gd3 1_555 1_555
O24 C14 1_555 1_555
O25 Gd1 1_555 1_555
H10 O25 1_555 1_555
H11 O25 1_555 1_555
O26 Gd2 1_555 1_555
O27 Gd3 1_555 1_555
H12 O27 1_555 1_555
H13 O27 1_555 1_555
O28 Gd3 1_555 1_555
H14 O28 1_555 1_555
H15 O28 1_555 1_555
O29 Gd3 1_555 1_555
H16 O29 1_555 1_555
H17 O29 1_555 1_555
O30 Gd3 1_555 1_555
H18 O30 1_555 1_555
H19 O30 1_555 1_555
C1 P1 1_555 1_555
H20 C1 1_555 1_555
H21 C1 1_555 1_555
C2 N1 1_555 1_555
H22 C2 1_555 1_555
H23 C2 1_555 1_555
C3 C2 1_555 1_555
H24 C3 1_555 1_555
H25 C3 1_555 1_555
C4 C3 1_555 1_555
H26 C4 1_555 1_555
H27 C4 1_555 1_555
C5 C4 1_555 1_555
H28 C5 1_555 1_555
H29 C5 1_555 1_555
C6 N1 1_555 1_555
H30 C6 1_555 1_555
H31 C6 1_555 1_555
C7 O10 1_555 1_555
C8 O11 1_555 1_555
C9 O14 1_555 1_555
C10 O16 1_555 1_555
C11 O17 1_555 1_555
C12 O19 1_555 1_555
C13 O21 1_555 1_555
C14 O23 1_555 1_555
Gd1B O22 1_555 1_555
Gd1_2 O14_2 1_555 1_555
Gd1B_2 O6B 1_555 1_555
Gd2_2 O13 1_555 1_555
Gd2C O18 1_555 1_555
Gd2C_2 O17C 1_555 1_555
Gd2B O9B 1_555 1_555
Gd3B O8 1_555 1_555
Gd3B_2 O24 1_555 1_555
P1B O6B 1_555 1_555
N1B H9B 1_555 1_555
O6B_2 Gd1B 1_555 1_555
O7B Gd3B 1_555 1_555
O8B Gd3 1_555 1_555
O9B C7B 1_555 1_555
O9_2 Gd2_2 1_555 1_555
O10B Gd1B 1_555 1_555
O11B Gd2B 1_555 1_555
O11_2 Gd2_2 1_555 1_555
O12B Gd1B 1_555 1_555
O13_2 Gd2 1_555 1_555
O14_2 C9_2 1_555 1_555
O14B Gd1B 1_555 1_555
O15_2 Gd2 1_555 1_555
O16_2 Gd1_2 1_555 1_555
O16B Gd1B 1_555 1_555
O17C C11C 1_555 1_555
O17_2 Gd2_2 1_555 1_555
O18C Gd2 1_555 1_555
O18C_2 Gd2_2 1_555 1_555
O19C Gd2C_2 1_555 1_555
O19_2 Gd2_2 1_555 1_555
O20C Gd2 1_555 1_555
O20C_2 Gd2_2 1_555 1_555
O21B Gd1B 1_555 1_555
O22B Gd1 1_555 1_555
O23B Gd3B_2 1_555 1_555
O23B_2 Gd3B 1_555 1_555
O24B Gd3 1_555 1_555
O24_2 Gd3B 1_555 1_555
O25B Gd1B 1_555 1_555
H10B O25B 1_555 1_555
H11B O25B 1_555 1_555
O26_2 Gd2_2 1_555 1_555
O27B Gd3B 1_555 1_555
H12B O27B 1_555 1_555
H13B O27B 1_555 1_555
O28B Gd3B 1_555 1_555
H14B O28B 1_555 1_555
H15B O28B 1_555 1_555
O29B Gd3B 1_555 1_555
H16B O29B 1_555 1_555
H17B O29B 1_555 1_555
O30B Gd3B 1_555 1_555
H18B O30B 1_555 1_555
H19B O30B 1_555 1_555
C1B P1B 1_555 1_555
H20B C1B 1_555 1_555
H21B C1B 1_555 1_555
C2B N1B 1_555 1_555
H22B C2B 1_555 1_555
H23B C2B 1_555 1_555
C3B C2B 1_555 1_555
H24B C3B 1_555 1_555
H25B C3B 1_555 1_555
C4B C3B 1_555 1_555
H26B C4B 1_555 1_555
H27B C4B 1_555 1_555
C5B C4B 1_555 1_555
H28B C5B 1_555 1_555
H29B C5B 1_555 1_555
C6B N1B 1_555 1_555
H30B C6B 1_555 1_555
H31B C6B 1_555 1_555
C7B O10B 1_555 1_555
C8B O11B 1_555 1_555
C9_2 O13_2 1_555 1_555
C10_2 O15_2 1_555 1_555
C11C O18C 1_555 1_555
C12C O19C 1_555 1_555
C13B C13 1_555 1_555
C14B C14 1_555 1_555
N1 C1 1_555 1_555
O12 C8 1_555 1_555
O15 Gd2_2 1_555 1_555
O20 Gd2C 1_555 1_555
C5 C6 1_555 1_555
C7 C8 1_555 1_555
C9 C10 1_555 1_555
C11 C12 1_555 1_555
P1B O7B 1_555 1_555
P1B O8B 1_555 1_555
N1B C1B 1_555 1_555
O12B C8B 1_555 1_555
O16_2 C10_2 1_555 1_555
O20C C12C 1_555 1_555
O21B C13B 1_555 1_555
O22B C13B 1_555 1_555
O23B C14B 1_555 1_555
O24B C14B 1_555 1_555
C5B C6B 1_555 1_555
C7B C8B 1_555 1_555
C9_2 C10_2 1_555 1_555
C11C C12C 1_555 1_555

#END
