
#######################################################################
#
#                 Cambridge Crystallographic Data Centre
#                                CCDC 
#
#######################################################################
#
# If this CIF has been generated from an entry in the Cambridge 
# Structural Database, then it will include bibliographic, chemical, 
# crystal, experimental, refinement or atomic coordinate data resulting 
# from the CCDC's data processing and validation procedures.
#
#######################################################################

data_PUMZED
_symmetry_cell_setting           triclinic
_symmetry_space_group_name_H-M   'P -1'
_symmetry_Int_Tables_number      2
_space_group_name_Hall           '-P 1'
loop_
_symmetry_equiv_pos_site_id
_symmetry_equiv_pos_as_xyz
1 x,y,z
2 -x,-y,-z
_cell_length_a                   9.625(2)
_cell_length_b                   10.591(3)
_cell_length_c                   12.367(3)
_cell_angle_alpha                73.497(9)
_cell_angle_beta                 69.512(9)
_cell_angle_gamma                66.561(8)
_cell_volume                     1067.99
loop_
_atom_site_label
_atom_site_type_symbol
_atom_site_fract_x
_atom_site_fract_y
_atom_site_fract_z
Gd1 Gd 0.90898(4) 0.67029(3) 0.29221(3)
Gd2 Gd 0.43928(4) 0.68315(3) 0.76160(3)
P1 P 0.8434(2) 0.67843(18) 0.60473(17)
N1 N 0.7651(8) 0.8937(7) 0.7271(7)
H3 H 0.6669 0.8879 0.7498
C1 C 0.8434(10) 0.8517(8) 0.6093(7)
H4 H 0.9512 0.8504 0.5854
H5 H 0.7904 0.9213 0.5533
C2 C 0.8471(11) 0.7984(9) 0.8188(8)
H6 H 0.9517 0.8036 0.7992
H7 H 0.8573 0.7026 0.8217
C3 C 0.7510(14) 0.8430(11) 0.9376(10)
H8 H 0.6485 0.8330 0.9585
H9 H 0.8037 0.7830 0.9970
C4 C 0.7309(14) 0.9943(11) 0.9338(9)
H10 H 0.6653 1.0226 1.0085
H11 H 0.8327 1.0030 0.9197
C5 C 0.6560(13) 1.0872(10) 0.8378(10)
H12 H 0.5500 1.0855 0.8571
H13 H 0.6488 1.1824 0.8335
C6 C 0.7460(11) 1.0442(9) 0.7197(8)
H14 H 0.8486 1.0550 0.6956
H15 H 0.6898 1.1032 0.6620
C7 C 0.8136(9) 1.0102(8) 0.2503(8)
C8 C 0.6683(9) 0.9862(8) 0.2451(7)
C9 C 0.6492(9) 0.5360(8) 0.3103(6)
C10 C 0.7759(9) 0.5042(8) 0.1921(7)
C11 C 0.5492(9) 0.4364(8) 0.9688(7)
O2 O 0.8327(8) 0.6948(7) 0.4818(6)
O3 O 0.6966(6) 0.6607(6) 0.6964(6)
O4 O 0.9940(7) 0.5698(6) 0.6317(6)
O5 O 0.9255(8) 0.9021(7) 0.2684(9)
O6 O 0.8038(8) 1.1348(7) 0.2391(8)
O7 O 0.6799(8) 0.8629(7) 0.2502(7)
O8 O 0.5492(7) 1.0932(6) 0.2364(6)
O9 O 0.5388(7) 0.4905(6) 0.3393(6)
O10 O 0.6709(7) 0.6040(6) 0.3668(6)
O11 O 0.7651(7) 0.4219(6) 0.1423(6)
O12 O 0.8770(7) 0.5619(7) 0.1577(6)
O13 O 0.5702(7) 0.4538(6) 0.8626(5)
O14 O 0.6039(7) 0.3216(6) 1.0338(5)
O15 O 1.0707(8) 0.7043(8) 0.0890(6)
O16 O 1.1583(7) 0.6540(6) 0.3011(6)
O17 O 0.4612(10) 0.7840(7) 0.5494(6)
Gd1A Gd 1.09102(4) 0.32971(3) 0.70779(3)
Gd1A_2 Gd 0.09102(4) 1.32971(3) 0.70779(3)
Gd1A_3 Gd 0.09102(4) 0.32971(3) 0.70779(3)
Gd2A Gd 1.56072(4) 0.31685(3) 0.23840(3)
Gd2A_2 Gd 0.56072(4) 1.31685(3) 0.23840(3)
Gd2A_3 Gd 0.56072(4) 0.31685(3) 0.23840(3)
Gd2A_4 Gd 0.56072(4) 0.31685(3) 1.23840(3)
P1A P 1.1566(2) 0.32157(18) 0.39527(17)
N1A N 1.2349(8) 0.1063(7) 0.2729(7)
H3A H 1.3331 0.1121 0.2502
C1A C 1.1566(10) 0.1483(8) 0.3907(7)
H4A H 1.0488 0.1496 0.4146
H5A H 1.2096 0.0787 0.4467
C2A C 1.1529(11) 0.2016(9) 0.1812(8)
H6A H 1.0483 0.1964 0.2008
H7A H 1.1427 0.2974 0.1783
C3A C 1.2490(14) 0.1570(11) 0.0624(10)
H8A H 1.3515 0.1670 0.0415
H9A H 1.1963 0.2170 0.0030
C4A C 1.2691(14) 0.0057(11) 0.0662(9)
H10A H 1.3347 -0.0226 -0.0085
H11A H 1.1673 -0.0030 0.0803
C5A C 1.3440(13) -0.0872(10) 0.1622(10)
H12A H 1.4500 -0.0855 0.1429
H13A H 1.3512 -0.1824 0.1665
C6A C 1.2540(11) -0.0442(9) 0.2803(8)
H14A H 1.1514 -0.0550 0.3044
H15A H 1.3102 -0.1032 0.3380
C7A C 0.1864(9) 0.9898(8) 0.7497(8)
C8A C 0.3317(9) 1.0138(8) 0.7549(7)
C9A C 0.3508(9) 0.4640(8) 0.6897(6)
C10A C 0.2241(9) 0.4958(8) 0.8079(7)
C11A C 0.4508(9) 0.5636(8) 1.0312(7)
O2A O 1.1673(8) 0.3052(7) 0.5182(6)
O3A O 1.3034(6) 0.3393(6) 0.3036(6)
O4A O 1.0060(7) 0.4302(6) 0.3683(6)
O5A O 0.0745(8) 1.0979(7) 0.7316(9)
O5A_2 O 1.0745(8) 0.0979(7) 0.7316(9)
O6A O 0.1962(8) 0.8652(7) 0.7609(8)
O6_2 O 1.8038(8) 0.1348(7) 0.2391(8)
O7A O 0.3201(8) 1.1371(7) 0.7498(7)
O7A_2 O 1.3201(8) 0.1371(7) 0.7498(7)
O8A O 0.4508(7) 0.9068(6) 0.7636(6)
O8_2 O 1.5492(7) 0.0932(6) 0.2364(6)
O9A O 0.4612(7) 0.5095(6) 0.6607(6)
O9_2 O 1.5388(7) 0.4905(6) 0.3393(6)
O10A O 0.3291(7) 0.3960(6) 0.6332(6)
O10A_2 O 1.3291(7) 0.3960(6) 0.6332(6)
O11A O 0.2349(7) 0.5781(6) 0.8577(6)
O11_2 O 1.7651(7) 0.4219(6) 0.1423(6)
O12A O 0.1230(7) 0.4381(7) 0.8423(6)
O12A_2 O 1.1230(7) 0.4381(7) 0.8423(6)
O13A O 0.4298(7) 0.5462(6) 1.1374(5)
O13A_2 O 1.4298(7) 0.5462(6) 0.1374(5)
O14A O 0.3961(7) 0.6784(6) 0.9662(5)
O14_2 O 1.6039(7) 0.3216(6) 0.0338(5)
O15A O 0.9293(8) 0.2957(8) 0.9110(6)
O16A O 0.8417(7) 0.3460(6) 0.6989(6)
O17A O 1.5388(10) 0.2160(7) 0.4506(6)
O1 O 1.2499(9) 0.6713(7) 0.4815(7)
H1 H 1.2725 0.5916 0.5245
H2 H 1.2218 0.6646 0.4260
loop_
_geom_bond_atom_site_label_1
_geom_bond_atom_site_label_2
_geom_bond_site_symmetry_1
_geom_bond_site_symmetry_2
O1 H1 1_555 1_555
H2 O1 1_555 1_555
Gd1 O2 1_555 1_555
Gd2 O3 1_555 1_555
P1 C1 1_555 1_555
N1 H3 1_555 1_555
C1 N1 1_555 1_555
H4 C1 1_555 1_555
H5 C1 1_555 1_555
C2 N1 1_555 1_555
H6 C2 1_555 1_555
H7 C2 1_555 1_555
C3 C2 1_555 1_555
H8 C3 1_555 1_555
H9 C3 1_555 1_555
C4 C3 1_555 1_555
H10 C4 1_555 1_555
H11 C4 1_555 1_555
C5 C4 1_555 1_555
H12 C5 1_555 1_555
H13 C5 1_555 1_555
C6 N1 1_555 1_555
H14 C6 1_555 1_555
H15 C6 1_555 1_555
C7 C8 1_555 1_555
C8 O7 1_555 1_555
C9 C10 1_555 1_555
C10 O11 1_555 1_555
C11 O13 1_555 1_555
O2 P1 1_555 1_555
O3 P1 1_555 1_555
O4 P1 1_555 1_555
O5 Gd1 1_555 1_555
O6 C7 1_555 1_555
O7 Gd1 1_555 1_555
O8 C8 1_555 1_555
O9 C9 1_555 1_555
O10 Gd1 1_555 1_555
O11 Gd2A_3 1_555 1_555
O12 Gd1 1_555 1_555
O13 Gd2 1_555 1_555
O14 C11 1_555 1_555
O15 Gd1 1_555 1_555
O16 Gd1 1_555 1_555
O17 Gd2 1_555 1_555
Gd1A O4 1_555 1_555
Gd1A_2 O5A 1_555 1_555
Gd1A_3 O10A 1_555 1_555
Gd2A O3A 1_555 1_555
Gd2A_2 O6 1_555 1_555
Gd2A_3 O9 1_555 1_555
Gd2A_4 O14 1_555 1_555
P1A C1A 1_555 1_555
N1A H3A 1_555 1_555
C1A N1A 1_555 1_555
H4A C1A 1_555 1_555
H5A C1A 1_555 1_555
C2A N1A 1_555 1_555
H6A C2A 1_555 1_555
H7A C2A 1_555 1_555
C3A C2A 1_555 1_555
H8A C3A 1_555 1_555
H9A C3A 1_555 1_555
C4A C3A 1_555 1_555
H10A C4A 1_555 1_555
H11A C4A 1_555 1_555
C5A C4A 1_555 1_555
H12A C5A 1_555 1_555
H13A C5A 1_555 1_555
C6A N1A 1_555 1_555
H14A C6A 1_555 1_555
H15A C6A 1_555 1_555
C7A C8A 1_555 1_555
C8A O7A 1_555 1_555
C9A C10A 1_555 1_555
C10A O11A 1_555 1_555
C11A C11 1_555 1_555
O2A Gd1A 1_555 1_555
O3A P1A 1_555 1_555
O4A Gd1 1_555 1_555
O5A C7A 1_555 1_555
O5A_2 Gd1A 1_555 1_555
O6A Gd2 1_555 1_555
O6_2 Gd2A 1_555 1_555
O7A Gd1A_2 1_555 1_555
O7A_2 Gd1A 1_555 1_555
O8A Gd2 1_555 1_555
O8_2 Gd2A 1_555 1_555
O9A Gd2 1_555 1_555
O9_2 Gd2A 1_555 1_555
O10A C9A 1_555 1_555
O10A_2 Gd1A 1_555 1_555
O11A Gd2 1_555 1_555
O11_2 Gd2A 1_555 1_555
O12A Gd1A_3 1_555 1_555
O12A_2 Gd1A 1_555 1_555
O13A Gd2A_4 1_555 1_555
O13A_2 Gd2A 1_555 1_555
O14A Gd2 1_555 1_555
O14_2 Gd2A 1_555 1_555
O15A Gd1A 1_555 1_555
O16A Gd1A 1_555 1_555
O17A Gd2A 1_555 1_555
C5 C6 1_555 1_555
C7 O5 1_555 1_555
C9 O10 1_555 1_555
C10 O12 1_555 1_555
O8 Gd2A_2 1_555 1_555
P1A O2A 1_555 1_555
P1A O4A 1_555 1_555
C5A C6A 1_555 1_555
C7A O6A 1_555 1_555
C8A O8A 1_555 1_555
C9A O9A 1_555 1_555
C10A O12A 1_555 1_555
C11A O13A 1_555 1_555
C11A O14A 1_555 1_555

#END
