
#######################################################################
#
#                 Cambridge Crystallographic Data Centre
#                                CCDC 
#
#######################################################################
#
# If this CIF has been generated from an entry in the Cambridge 
# Structural Database, then it will include bibliographic, chemical, 
# crystal, experimental, refinement or atomic coordinate data resulting 
# from the CCDC's data processing and validation procedures.
#
#######################################################################

data_PUNBAC
_symmetry_cell_setting           triclinic
_symmetry_space_group_name_H-M   'P -1'
_symmetry_Int_Tables_number      2
_space_group_name_Hall           '-P 1'
loop_
_symmetry_equiv_pos_site_id
_symmetry_equiv_pos_as_xyz
1 x,y,z
2 -x,-y,-z
_cell_length_a                   9.581(3)
_cell_length_b                   10.495(3)
_cell_length_c                   12.354(4)
_cell_angle_alpha                73.344(15)
_cell_angle_beta                 69.465(15)
_cell_angle_gamma                66.584(14)
_cell_volume                     1051.71
loop_
_atom_site_label
_atom_site_type_symbol
_atom_site_fract_x
_atom_site_fract_y
_atom_site_fract_z
Dy1 Dy 0.59216(2) 0.828666(19) 0.206343(17)
Dy2 Dy -0.06182(2) 1.181260(19) 0.262830(16)
N1 N 0.2630(4) 1.3925(4) 0.2278(3)
H1 H 0.1646 1.3857 0.2511
P1 P 0.34130(13) 1.17698(11) 0.10483(9)
C1 C 0.3419(6) 1.3505(4) 0.1101(4)
H2 H 0.4503 1.3488 0.0865
H3 H 0.2891 1.4211 0.0538
C2 C 0.3468(6) 1.2973(5) 0.3184(4)
H4 H 0.4517 1.3035 0.2976
H5 H 0.3576 1.2005 0.3217
C3 C 0.2526(7) 1.3411(6) 0.4382(5)
H6 H 0.1501 1.3294 0.4607
H7 H 0.3078 1.2806 0.4965
C4 C 0.2304(7) 1.4931(6) 0.4351(5)
H8 H 0.1650 1.5201 0.5104
H9 H 0.3322 1.5029 0.4208
C5 C 0.1533(7) 1.5896(6) 0.3398(5)
H10 H 0.1487 1.6851 0.3349
H11 H 0.0459 1.5896 0.3600
C6 C 0.2435(6) 1.5438(5) 0.2213(4)
H12 H 0.1869 1.6034 0.1636
H13 H 0.3466 1.5547 0.1965
C7 C 0.8311(5) 0.5131(4) 0.2550(4)
C8 C 0.6880(5) 0.4881(5) 0.2459(4)
C9 C -0.2760(5) 0.9952(4) 0.3067(4)
C10 C -0.1488(5) 0.9619(4) 0.1894(4)
C11 C 0.0506(5) 0.9353(4) 0.4699(4)
O1 O 0.4921(4) 1.0685(3) 0.1315(3)
O2 O 0.1945(4) 1.1578(3) 0.1974(3)
O3 O 0.6698(4) 0.8068(4) 0.0177(3)
O4 O 0.8178(4) 0.6368(3) 0.2512(3)
O5 O -0.0511(4) 1.4048(3) 0.2649(3)
O6 O 0.5758(4) 0.5963(3) 0.2273(4)
O7 O -0.3033(4) 1.3626(3) 0.2585(4)
O8 O -0.2650(4) 1.0767(3) 0.3574(3)
O9 O 0.6212(4) 0.9379(3) 0.3393(3)
O10 O -0.0372(4) 1.0091(3) 0.1606(3)
O11 O 0.8296(4) 0.8948(3) 0.1318(3)
O12 O 0.0696(4) 0.9530(3) 0.3629(3)
O13 O -0.1057(4) 1.1786(3) 0.4655(3)
O14 O 0.4342(4) 0.7890(4) 0.4096(3)
H14 H 0.3679 0.7524 0.4125
H15 H 0.3853 0.8674 0.4339
O15 O 0.3443(4) 0.8441(3) 0.1987(3)
H16 H 0.3261 0.8269 0.1427
H17 H 0.2770 0.9229 0.2153
O16 O -0.0418(5) 1.2850(4) 0.0538(3)
H18 H 0.0524 1.2512 0.0132
H19 H -0.1041 1.2656 0.0311
Dy1_2 Dy -0.40784(2) 1.828666(19) 0.206343(17)
Dy1A Dy 0.40784(2) 1.171334(19) -0.206343(17)
Dy1_3 Dy -0.40784(2) 0.828666(19) 0.206343(17)
Dy2_2 Dy 0.93818(2) 0.181260(19) 0.262830(16)
Dy2A Dy 0.06182(2) 0.818740(19) 0.737170(16)
Dy2_3 Dy 0.93818(2) 1.181260(19) 0.262830(16)
Dy2A_2 Dy 1.06182(2) 0.818740(19) -0.262830(16)
N1A N 0.7370(4) 0.6075(4) -0.2278(3)
H1A H 0.8354 0.6143 -0.2511
P1A P 0.65870(13) 0.82302(11) -0.10483(9)
C1A C 0.6581(6) 0.6495(4) -0.1101(4)
H2A H 0.5497 0.6512 -0.0865
H3A H 0.7109 0.5789 -0.0538
C2A C 0.6532(6) 0.7027(5) -0.3184(4)
H4A H 0.5483 0.6965 -0.2976
H5A H 0.6424 0.7995 -0.3217
C3A C 0.7474(7) 0.6589(6) -0.4382(5)
H6A H 0.8499 0.6706 -0.4607
H7A H 0.6922 0.7194 -0.4965
C4A C 0.7696(7) 0.5069(6) -0.4351(5)
H8A H 0.8350 0.4799 -0.5104
H9A H 0.6678 0.4971 -0.4208
C5A C 0.8467(7) 0.4104(6) -0.3398(5)
H10A H 0.8513 0.3149 -0.3349
H11A H 0.9541 0.4104 -0.3600
C6A C 0.7565(6) 0.4562(5) -0.2213(4)
H12A H 0.8131 0.3966 -0.1636
H13A H 0.6534 0.4453 -0.1965
C7_2 C -0.1689(5) 1.5131(4) 0.2550(4)
C8_2 C -0.3120(5) 1.4881(5) 0.2459(4)
C9_2 C 0.7240(5) 0.9952(4) 0.3067(4)
C10_2 C 0.8512(5) 0.9619(4) 0.1894(4)
C11A C -0.0506(5) 1.0647(4) 0.5301(4)
O1A O 0.5079(4) 0.9315(3) -0.1315(3)
O2A O 0.8055(4) 0.8422(3) -0.1974(3)
O3A O 0.3302(4) 1.1932(4) -0.0177(3)
O4_2 O -0.1822(4) 1.6368(3) 0.2512(3)
O4A O 0.1822(4) 1.3632(3) -0.2512(3)
O5_2 O 0.9489(4) 0.4048(3) 0.2649(3)
O5A O 1.0511(4) 0.5952(3) -0.2649(3)
O6_2 O -0.4242(4) 1.5963(3) 0.2273(4)
O6A O 0.4242(4) 1.4037(3) -0.2273(4)
O7_2 O 0.6967(4) 0.3626(3) 0.2585(4)
O7A O 1.3033(4) 0.6374(3) -0.2585(4)
O8_2 O 0.7350(4) 1.0767(3) 0.3574(3)
O8A O 1.2650(4) 0.9233(3) -0.3574(3)
O9_2 O -0.3788(4) 0.9379(3) 0.3393(3)
O9A O 0.3788(4) 1.0621(3) -0.3393(3)
O10_2 O 0.9628(4) 1.0091(3) 0.1606(3)
O10A O 1.0372(4) 0.9909(3) -0.1606(3)
O11_2 O -0.1704(4) 0.8948(3) 0.1318(3)
O11A O 0.1704(4) 1.1052(3) -0.1318(3)
O12A O -0.0696(4) 1.0470(3) 0.6371(3)
O12A_2 O 0.9304(4) 1.0470(3) -0.3629(3)
O13A O 0.1057(4) 0.8214(3) 0.5345(3)
O13A_2 O 1.1057(4) 0.8214(3) -0.4655(3)
O14A O 0.5658(4) 1.2110(4) -0.4096(3)
H14A H 0.6321 1.2476 -0.4125
H15A H 0.6147 1.1326 -0.4339
O15A O 0.6557(4) 1.1559(3) -0.1987(3)
H16A H 0.6739 1.1731 -0.1427
H17A H 0.7230 1.0771 -0.2153
O16A O 1.0418(5) 0.7150(4) -0.0538(3)
H18A H 0.9476 0.7488 -0.0132
H19A H 1.1041 0.7344 -0.0311
O17 O 0.2502(5) 0.8262(4) 0.0183(3)
H20 H 0.3192 0.8651 -0.0228
H21 H 0.1718 0.8857 0.0563
loop_
_geom_bond_atom_site_label_1
_geom_bond_atom_site_label_2
_geom_bond_site_symmetry_1
_geom_bond_site_symmetry_2
Dy1 O1 1_555 1_555
Dy2 O2 1_555 1_555
N1 H1 1_555 1_555
P1 C1 1_555 1_555
C1 N1 1_555 1_555
H2 C1 1_555 1_555
H3 C1 1_555 1_555
C2 N1 1_555 1_555
H4 C2 1_555 1_555
H5 C2 1_555 1_555
C3 C2 1_555 1_555
H6 C3 1_555 1_555
H7 C3 1_555 1_555
C4 C3 1_555 1_555
H8 C4 1_555 1_555
H9 C4 1_555 1_555
C5 C4 1_555 1_555
H10 C5 1_555 1_555
H11 C5 1_555 1_555
C6 N1 1_555 1_555
H12 C6 1_555 1_555
H13 C6 1_555 1_555
C7 C8 1_555 1_555
C8 O6 1_555 1_555
C9 C10 1_555 1_555
C10 O10 1_555 1_555
C11 O12 1_555 1_555
O1 P1 1_555 1_555
O2 P1 1_555 1_555
O3 Dy1 1_555 1_555
O4 Dy1 1_555 1_555
O5 Dy2 1_555 1_555
O6 Dy1 1_555 1_555
O7 Dy2 1_555 1_555
O8 Dy2 1_555 1_555
O9 Dy1 1_555 1_555
O10 Dy2 1_555 1_555
O11 Dy1 1_555 1_555
O12 Dy2 1_555 1_555
O13 Dy2 1_555 1_555
O14 Dy1 1_555 1_555
H14 O14 1_555 1_555
H15 O14 1_555 1_555
O15 Dy1 1_555 1_555
H16 O15 1_555 1_555
H17 O15 1_555 1_555
O16 Dy2 1_555 1_555
H18 O16 1_555 1_555
H19 O16 1_555 1_555
O17 H20 1_555 1_555
H21 O17 1_555 1_555
Dy1_2 O4_2 1_555 1_555
Dy1A O1A 1_555 1_555
Dy1_3 O9_2 1_555 1_555
Dy2_2 O5_2 1_555 1_555
Dy2A O12A 1_555 1_555
Dy2_3 O8_2 1_555 1_555
Dy2A_2 O2A 1_555 1_555
N1A H1A 1_555 1_555
P1A O3 1_555 1_555
C1A N1A 1_555 1_555
H2A C1A 1_555 1_555
H3A C1A 1_555 1_555
C2A N1A 1_555 1_555
H4A C2A 1_555 1_555
H5A C2A 1_555 1_555
C3A C2A 1_555 1_555
H6A C3A 1_555 1_555
H7A C3A 1_555 1_555
C4A C3A 1_555 1_555
H8A C4A 1_555 1_555
H9A C4A 1_555 1_555
C5A C4A 1_555 1_555
H10A C5A 1_555 1_555
H11A C5A 1_555 1_555
C6A N1A 1_555 1_555
H12A C6A 1_555 1_555
H13A C6A 1_555 1_555
C7_2 O5 1_555 1_555
C8_2 O7 1_555 1_555
C9_2 O9 1_555 1_555
C10_2 O11 1_555 1_555
C11A C11 1_555 1_555
O1A P1A 1_555 1_555
O2A P1A 1_555 1_555
O3A P1 1_555 1_555
O4_2 C7_2 1_555 1_555
O4A Dy1A 1_555 1_555
O5_2 C7 1_555 1_555
O5A Dy2A_2 1_555 1_555
O6_2 Dy1_2 1_555 1_555
O6A Dy1A 1_555 1_555
O7_2 C8 1_555 1_555
O7A Dy2A_2 1_555 1_555
O8_2 C9_2 1_555 1_555
O8A Dy2A_2 1_555 1_555
O9_2 C9 1_555 1_555
O9A Dy1A 1_555 1_555
O10_2 Dy2_3 1_555 1_555
O10A Dy2A_2 1_555 1_555
O11_2 C10 1_555 1_555
O11A Dy1A 1_555 1_555
O12A C11A 1_555 1_555
O12A_2 Dy2A_2 1_555 1_555
O13A C11 1_555 1_555
O13A_2 Dy2A_2 1_555 1_555
O14A Dy1A 1_555 1_555
H14A O14A 1_555 1_555
H15A O14A 1_555 1_555
O15A Dy1A 1_555 1_555
H16A O15A 1_555 1_555
H17A O15A 1_555 1_555
O16A Dy2A_2 1_555 1_555
H18A O16A 1_555 1_555
H19A O16A 1_555 1_555
C5 C6 1_555 1_555
C7 O4 1_555 1_555
C9 O8 1_555 1_555
O13 C11A 1_555 1_555
Dy1A O3A 1_555 1_555
Dy1_3 O11_2 1_555 1_555
Dy2_2 O7_2 1_555 1_555
Dy2A O13A 1_555 1_555
P1A C1A 1_555 1_555
C5A C6A 1_555 1_555
C7_2 C8_2 1_555 1_555
C8_2 O6_2 1_555 1_555
C9_2 C10_2 1_555 1_555
C10_2 O10_2 1_555 1_555

#END
