
#######################################################################
#
#                 Cambridge Crystallographic Data Centre
#                                CCDC 
#
#######################################################################
#
# If this CIF has been generated from an entry in the Cambridge 
# Structural Database, then it will include bibliographic, chemical, 
# crystal, experimental, refinement or atomic coordinate data resulting 
# from the CCDC's data processing and validation procedures.
#
#######################################################################

data_PUNBOQ
_symmetry_cell_setting           triclinic
_symmetry_space_group_name_H-M   'P -1'
_symmetry_Int_Tables_number      2
_space_group_name_Hall           '-P 1'
loop_
_symmetry_equiv_pos_site_id
_symmetry_equiv_pos_as_xyz
1 x,y,z
2 -x,-y,-z
_cell_length_a                   9.4871(2)
_cell_length_b                   10.3467(2)
_cell_length_c                   12.3129(1)
_cell_angle_alpha                73.082(2)
_cell_angle_beta                 69.581(1)
_cell_angle_gamma                66.441(1)
_cell_volume                     1022
loop_
_atom_site_label
_atom_site_type_symbol
_atom_site_fract_x
_atom_site_fract_y
_atom_site_fract_z
Yb1 Yb 0.90560(4) 0.67304(3) 0.29615(3)
Yb2 Yb 0.43682(4) 0.67811(3) 0.76450(3)
P1 P 0.8381(2) 0.6752(2) 0.60496(19)
N1 N 0.7613(9) 0.8926(7) 0.7273(7)
H1 H 0.6623 0.8848 0.7518
C1 C 0.8361(12) 0.8531(10) 0.6093(8)
H2 H 0.9449 0.8535 0.5832
H3 H 0.7789 0.9248 0.5546
C2 C 0.8464(12) 0.7979(11) 0.8167(9)
H4 H 0.9512 0.8066 0.7951
H5 H 0.8605 0.6993 0.8184
C3 C 0.7551(15) 0.8356(13) 0.9389(10)
H6 H 0.8140 0.7733 0.9957
H7 H 0.6519 0.8230 0.9629
C4 C 0.7332(15) 0.9934(12) 0.9338(10)
H8 H 0.6701 1.0211 1.0097
H9 H 0.8365 1.0035 0.9167
C5 C 0.6509(13) 1.0901(11) 0.8399(9)
H10 H 0.5438 1.0864 0.8614
H11 H 0.6424 1.1880 0.8355
C6 C 0.7387(14) 1.0477(10) 0.7225(10)
H12 H 0.8420 1.0604 0.6972
H13 H 0.6796 1.1090 0.6655
C7 C 0.6703(10) 0.9888(9) 0.2458(8)
C8 C 0.8120(11) 1.0161(10) 0.2577(8)
C9 C 0.6482(10) 0.5405(9) 0.3100(8)
C10 C 0.7762(10) 0.5087(9) 0.1941(8)
C11 C 0.4477(10) 0.5672(8) 1.0283(7)
O1 O 0.8284(9) 0.6911(7) 0.4807(6)
O2 O 0.6899(7) 0.6554(7) 0.6983(6)
O3 O 1.0086(7) 0.4353(7) 0.3669(6)
O4 O 0.6837(8) 0.8644(7) 0.2472(7)
O5 O 0.4489(8) 0.9022(7) 0.7671(6)
O6 O 0.9245(9) 0.9049(8) 0.2797(9)
O7 O 0.1966(8) 0.8592(8) 0.7556(7)
O8 O 0.6695(8) 0.6066(7) 0.3692(6)
O9 O 0.4656(8) 0.5070(7) 0.6617(6)
O10 O 0.8786(8) 0.5649(7) 0.1645(6)
O11 O 0.2356(8) 0.5736(7) 0.8572(6)
O12 O 0.3930(8) 0.6801(7) 0.9622(6)
O13 O 0.5691(8) 0.4526(7) 0.8626(6)
O14 O 1.1508(8) 0.6549(7) 0.3037(7)
H14 H 1.2368 0.6217 0.2527
H15 H 1.1806 0.6613 0.3590
O15 O 1.0625(9) 0.7182(9) 0.0965(7)
O16 O 0.4555(10) 0.7862(9) 0.5559(7)
Yb1A Yb 0.09440(4) 1.32696(3) 0.70385(3)
Yb1A_2 Yb 1.09440(4) 0.32696(3) 0.70385(3)
Yb1A_3 Yb 0.09440(4) 0.32696(3) 0.70385(3)
Yb2A Yb 0.56318(4) 1.32189(3) 0.23550(3)
Yb2A_2 Yb 0.56318(4) 0.32189(3) 0.23550(3)
Yb2A_3 Yb 1.56318(4) 0.32189(3) 0.23550(3)
Yb2A_4 Yb 0.56318(4) 0.32189(3) 1.23550(3)
P1A P 1.1619(2) 0.3248(2) 0.39504(19)
N1A N 1.2387(9) 0.1074(7) 0.2727(7)
H1A H 1.3377 0.1152 0.2482
C1A C 1.1639(12) 0.1469(10) 0.3907(8)
H2A H 1.0551 0.1465 0.4168
H3A H 1.2211 0.0752 0.4454
C2A C 1.1536(12) 0.2021(11) 0.1833(9)
H4A H 1.0488 0.1934 0.2049
H5A H 1.1395 0.3007 0.1816
C3A C 1.2449(15) 0.1644(13) 0.0611(10)
H6A H 1.1860 0.2267 0.0043
H7A H 1.3481 0.1770 0.0371
C4A C 1.2668(15) 0.0066(12) 0.0662(10)
H8A H 1.3299 -0.0211 -0.0097
H9A H 1.1635 -0.0035 0.0833
C5A C 1.3491(13) -0.0901(11) 0.1601(9)
H10A H 1.4562 -0.0864 0.1386
H11A H 1.3576 -0.1880 0.1645
C6A C 1.2613(14) -0.0477(10) 0.2775(10)
H12A H 1.1580 -0.0604 0.3028
H13A H 1.3204 -0.1090 0.3345
C7A C 0.3297(10) 1.0112(9) 0.7542(8)
C8A C 0.1880(11) 0.9839(10) 0.7423(8)
C9A C 0.3518(10) 0.4595(9) 0.6900(8)
C10A C 0.2238(10) 0.4913(9) 0.8059(8)
C11A C 0.5523(10) 0.4328(8) 0.9717(7)
O1A O 1.1716(9) 0.3089(7) 0.5193(6)
O2A O 1.3101(7) 0.3446(7) 0.3017(6)
O3A O 0.9914(7) 0.5647(7) 0.6331(6)
O4A O 0.3163(8) 1.1356(7) 0.7528(7)
O4A_2 O 1.3163(8) 0.1356(7) 0.7528(7)
O5A O 0.5511(8) 1.0978(7) 0.2329(6)
O5A_2 O 1.5511(8) 0.0978(7) 0.2329(6)
O6A O 0.0755(9) 1.0951(8) 0.7203(9)
O6A_2 O 1.0755(9) 0.0951(8) 0.7203(9)
O7A O 0.8034(8) 1.1408(8) 0.2444(7)
O7A_2 O 1.8034(8) 0.1408(8) 0.2444(7)
O8A O 0.3305(8) 0.3934(7) 0.6308(6)
O8A_2 O 1.3305(8) 0.3934(7) 0.6308(6)
O9A O 0.5344(8) 0.4930(7) 0.3383(6)
O9A_2 O 1.5344(8) 0.4930(7) 0.3383(6)
O10A O 0.1214(8) 0.4351(7) 0.8355(6)
O10A_2 O 1.1214(8) 0.4351(7) 0.8355(6)
O11A O 0.7644(8) 0.4264(7) 0.1428(6)
O11A_2 O 1.7644(8) 0.4264(7) 0.1428(6)
O12A O 0.6070(8) 0.3199(7) 1.0378(6)
O12A_2 O 1.6070(8) 0.3199(7) 0.0378(6)
O13A O 0.4309(8) 0.5474(7) 1.1374(6)
O13A_2 O 1.4309(8) 0.5474(7) 0.1374(6)
O14A O 0.8492(8) 0.3451(7) 0.6963(7)
H14A H 0.7632 0.3783 0.7473
H15A H 0.8194 0.3387 0.6410
O15A O 0.9375(9) 0.2818(9) 0.9035(7)
O16A O 1.5445(10) 0.2138(9) 0.4441(7)
O17 O 0.7512(10) 0.3246(8) 0.5178(8)
H16 H 0.8263 0.2646 0.4771
H17 H 0.7273 0.4069 0.4749
loop_
_geom_bond_atom_site_label_1
_geom_bond_atom_site_label_2
_geom_bond_site_symmetry_1
_geom_bond_site_symmetry_2
Yb1 O1 1_555 1_555
Yb2 O2 1_555 1_555
P1 C1 1_555 1_555
N1 H1 1_555 1_555
C1 N1 1_555 1_555
H2 C1 1_555 1_555
H3 C1 1_555 1_555
C2 N1 1_555 1_555
H4 C2 1_555 1_555
H5 C2 1_555 1_555
C3 C2 1_555 1_555
H6 C3 1_555 1_555
H7 C3 1_555 1_555
C4 C3 1_555 1_555
H8 C4 1_555 1_555
H9 C4 1_555 1_555
C5 C4 1_555 1_555
H10 C5 1_555 1_555
H11 C5 1_555 1_555
C6 N1 1_555 1_555
H12 C6 1_555 1_555
H13 C6 1_555 1_555
C7 C8 1_555 1_555
C8 O6 1_555 1_555
C9 C10 1_555 1_555
C10 O10 1_555 1_555
C11 O12 1_555 1_555
O1 P1 1_555 1_555
O2 P1 1_555 1_555
O3 Yb1 1_555 1_555
O4 Yb1 1_555 1_555
O5 Yb2 1_555 1_555
O6 Yb1 1_555 1_555
O7 Yb2 1_555 1_555
O8 Yb1 1_555 1_555
O9 Yb2 1_555 1_555
O10 Yb1 1_555 1_555
O11 Yb2 1_555 1_555
O12 Yb2 1_555 1_555
O13 Yb2 1_555 1_555
O14 Yb1 1_555 1_555
H14 O14 1_555 1_555
H15 O14 1_555 1_555
O15 Yb1 1_555 1_555
O16 Yb2 1_555 1_555
O17 H16 1_555 1_555
H17 O17 1_555 1_555
Yb1A O4A 1_555 1_555
Yb1A_2 O1A 1_555 1_555
Yb1A_3 O8A 1_555 1_555
Yb2A O5A 1_555 1_555
Yb2A_2 O9A 1_555 1_555
Yb2A_3 O2A 1_555 1_555
Yb2A_4 O12A 1_555 1_555
P1A O3 1_555 1_555
N1A H1A 1_555 1_555
C1A P1A 1_555 1_555
H2A C1A 1_555 1_555
H3A C1A 1_555 1_555
C2A N1A 1_555 1_555
H4A C2A 1_555 1_555
H5A C2A 1_555 1_555
C3A C2A 1_555 1_555
H6A C3A 1_555 1_555
H7A C3A 1_555 1_555
C4A C3A 1_555 1_555
H8A C4A 1_555 1_555
H9A C4A 1_555 1_555
C5A C4A 1_555 1_555
H10A C5A 1_555 1_555
H11A C5A 1_555 1_555
C6A N1A 1_555 1_555
H12A C6A 1_555 1_555
H13A C6A 1_555 1_555
C7A O5 1_555 1_555
C8A O7 1_555 1_555
C9A O9 1_555 1_555
C10A O11 1_555 1_555
C11A C11 1_555 1_555
O1A P1A 1_555 1_555
O2A P1A 1_555 1_555
O3A P1 1_555 1_555
O4A C7A 1_555 1_555
O4A_2 Yb1A_2 1_555 1_555
O5A C7 1_555 1_555
O5A_2 Yb2A_3 1_555 1_555
O6A Yb1A 1_555 1_555
O6A_2 Yb1A_2 1_555 1_555
O7A C8 1_555 1_555
O7A_2 Yb2A_3 1_555 1_555
O8A C9A 1_555 1_555
O8A_2 Yb1A_2 1_555 1_555
O9A C9 1_555 1_555
O9A_2 Yb2A_3 1_555 1_555
O10A Yb1A_3 1_555 1_555
O10A_2 Yb1A_2 1_555 1_555
O11A C10 1_555 1_555
O11A_2 Yb2A_3 1_555 1_555
O12A C11A 1_555 1_555
O12A_2 Yb2A_3 1_555 1_555
O13A C11 1_555 1_555
O13A_2 Yb2A_3 1_555 1_555
O14A Yb1A_2 1_555 1_555
H14A O14A 1_555 1_555
H15A O14A 1_555 1_555
O15A Yb1A_2 1_555 1_555
O16A Yb2A_3 1_555 1_555
C5 C6 1_555 1_555
C7 O4 1_555 1_555
C9 O8 1_555 1_555
O13 C11A 1_555 1_555
Yb1A_2 O3A 1_555 1_555
Yb2A O7A 1_555 1_555
Yb2A_2 O11A 1_555 1_555
Yb2A_4 O13A 1_555 1_555
N1A C1A 1_555 1_555
C5A C6A 1_555 1_555
C7A C8A 1_555 1_555
C8A O6A 1_555 1_555
C9A C10A 1_555 1_555
C10A O10A 1_555 1_555

#END
