
#######################################################################
#
#                 Cambridge Crystallographic Data Centre
#                                CCDC 
#
#######################################################################
#
# If this CIF has been generated from an entry in the Cambridge 
# Structural Database, then it will include bibliographic, chemical, 
# crystal, experimental, refinement or atomic coordinate data resulting 
# from the CCDC's data processing and validation procedures.
#
#######################################################################

data_PUNBEG
_symmetry_cell_setting           triclinic
_symmetry_space_group_name_H-M   'P -1'
_symmetry_Int_Tables_number      2
_space_group_name_Hall           '-P 1'
loop_
_symmetry_equiv_pos_site_id
_symmetry_equiv_pos_as_xyz
1 x,y,z
2 -x,-y,-z
_cell_length_a                   9.5550(2)
_cell_length_b                   10.4579(2)
_cell_length_c                   12.3349(1)
_cell_angle_alpha                73.328(2)
_cell_angle_beta                 69.472(1)
_cell_angle_gamma                66.558(1)
_cell_volume                     1043.33
loop_
_atom_site_label
_atom_site_type_symbol
_atom_site_fract_x
_atom_site_fract_y
_atom_site_fract_z
Ho1 Ho 0.93757(3) 0.18072(3) 0.26342(3)
Ho2 Ho 1.59276(3) -0.17164(3) 0.20586(3)
P1 P 1.3403(2) 0.17645(17) 0.10498(16)
N1 N 1.2627(7) 0.3920(6) 0.2285(5)
H1 H 1.1637 0.3858 0.2523
C1 C 1.3389(9) 0.3519(7) 0.1096(6)
H2 H 1.4471 0.3520 0.0840
H3 H 1.2830 0.4226 0.0548
C2 C 1.2434(9) 0.5442(8) 0.2212(7)
H4 H 1.1857 0.6042 0.1639
H5 H 1.3467 0.5555 0.1960
C3 C 1.1535(11) 0.5879(8) 0.3411(8)
H6 H 1.1461 0.6845 0.3366
H7 H 1.0467 0.5856 0.3619
C4 C 1.2320(12) 0.4932(10) 0.4361(8)
H8 H 1.1676 0.5207 0.5117
H9 H 1.3348 0.5022 0.4205
C5 C 1.2515(12) 0.3400(9) 0.4385(8)
H10 H 1.1480 0.3299 0.4607
H11 H 1.3065 0.2777 0.4968
C6 C 1.3453(9) 0.2974(8) 0.3179(7)
H12 H 1.4505 0.3033 0.2971
H13 H 1.3561 0.2003 0.3207
C7 C 0.7238(8) -0.0051(7) 0.3064(7)
C8 C 0.8510(8) -0.0378(7) 0.1894(6)
C9 C 0.8310(8) 0.5122(7) 0.2550(6)
C10 C 0.6876(8) 0.4882(7) 0.2447(7)
C11 C 1.0503(8) -0.0655(6) 0.4702(6)
O1 O 1.1943(6) 0.1570(5) 0.1986(5)
O2 O 1.4921(6) 0.0684(5) 0.1308(5)
O3 O 1.3300(6) 0.1928(5) -0.0170(5)
O4 O 0.6196(6) -0.0630(5) 0.3389(5)
O5 O 0.7349(6) 0.0758(5) 0.3583(5)
O6 O 0.8297(6) -0.1063(5) 0.1322(5)
O7 O 0.9626(6) 0.0097(6) 0.1602(5)
O8 O 0.8185(7) 0.6364(5) 0.2524(6)
O9 O 0.9502(6) 0.4036(5) 0.2649(5)
O10 O 0.5759(7) 0.5973(6) 0.2242(6)
O11 O 0.6959(6) 0.3621(5) 0.2583(6)
O12 O 1.0690(6) -0.0473(5) 0.3628(5)
O13 O 1.1064(6) -0.1803(5) 0.5352(5)
O14 O 1.4330(7) -0.2116(7) 0.4073(5)
H14 H 1.3370 -0.2024 0.4449
H15 H 1.4563 -0.1658 0.4415
O15 O 1.3443(6) -0.1545(5) 0.1966(5)
H16 H 1.3018 -0.0661 0.1972
H17 H 1.2988 -0.2029 0.2561
O16 O 0.9558(8) 0.2861(6) 0.0545(5)
H18 H 1.0156 0.2357 0.0019
H19 H 0.9860 0.3569 0.0404
Ho1A Ho 1.06243(3) -0.18072(3) 0.73658(3)
Ho1A_2 Ho 2.06243(3) -0.18072(3) -0.26342(3)
Ho1_2 Ho 1.93757(3) 0.18072(3) 0.26342(3)
Ho1_3 Ho 1.93757(3) -0.81928(3) 0.26342(3)
Ho2A Ho 1.40724(3) 0.17164(3) -0.20586(3)
Ho2_2 Ho 0.59276(3) -0.17164(3) 0.20586(3)
Ho2_3 Ho 0.59276(3) 0.82836(3) 0.20586(3)
P1A P 1.6597(2) -0.17645(17) -0.10498(16)
N1A N 1.7373(7) -0.3920(6) -0.2285(5)
H1A H 1.8363 -0.3858 -0.2523
C1A C 1.6611(9) -0.3519(7) -0.1096(6)
H2A H 1.5529 -0.3520 -0.0840
H3A H 1.7170 -0.4226 -0.0548
C2A C 1.7566(9) -0.5442(8) -0.2212(7)
H4A H 1.8143 -0.6042 -0.1639
H5A H 1.6533 -0.5555 -0.1960
C3A C 1.8465(11) -0.5879(8) -0.3411(8)
H6A H 1.8539 -0.6845 -0.3366
H7A H 1.9533 -0.5856 -0.3619
C4A C 1.7680(12) -0.4932(10) -0.4361(8)
H8A H 1.8324 -0.5207 -0.5117
H9A H 1.6652 -0.5022 -0.4205
C5A C 1.7485(12) -0.3400(9) -0.4385(8)
H10A H 1.8520 -0.3299 -0.4607
H11A H 1.6935 -0.2777 -0.4968
C6A C 1.6547(9) -0.2974(8) -0.3179(7)
H12A H 1.5495 -0.3033 -0.2971
H13A H 1.6439 -0.2003 -0.3207
C7_2 C 1.7238(8) -0.0051(7) 0.3064(7)
C8_2 C 1.8510(8) -0.0378(7) 0.1894(6)
C9_2 C 1.8310(8) -0.4878(7) 0.2550(6)
C10_2 C 1.6876(8) -0.5118(7) 0.2447(7)
C11A C 0.9497(8) 0.0655(6) 0.5298(6)
O1A O 1.8057(6) -0.1570(5) -0.1986(5)
O2A O 1.5079(6) -0.0684(5) -0.1308(5)
O3A O 1.6700(6) -0.1928(5) 0.0170(5)
O4_2 O 1.6196(6) -0.0630(5) 0.3389(5)
O4A O 1.3804(6) 0.0630(5) -0.3389(5)
O5_2 O 1.7349(6) 0.0758(5) 0.3583(5)
O5A O 2.2651(6) -0.0758(5) -0.3583(5)
O6_2 O 1.8297(6) -0.1063(5) 0.1322(5)
O6A O 1.1703(6) 0.1063(5) -0.1322(5)
O7_2 O 1.9626(6) 0.0097(6) 0.1602(5)
O7A O 2.0374(6) -0.0097(6) -0.1602(5)
O8_2 O 1.8185(7) -0.3636(5) 0.2524(6)
O8A O 1.1815(7) 0.3636(5) -0.2524(6)
O9_2 O 1.9502(6) -0.5964(5) 0.2649(5)
O9A O 2.0498(6) -0.4036(5) -0.2649(5)
O10_2 O 1.5759(7) -0.4027(6) 0.2242(6)
O10A O 1.4241(7) 0.4027(6) -0.2242(6)
O11_2 O 1.6959(6) -0.6379(5) 0.2583(6)
O11A O 2.3041(6) -0.3621(5) -0.2583(6)
O12A O 0.9310(6) 0.0473(5) 0.6372(5)
O12A_2 O 1.9310(6) 0.0473(5) -0.3628(5)
O13A O 0.8936(6) 0.1803(5) 0.4648(5)
O13_2 O 2.1064(6) -0.1803(5) -0.4648(5)
O14A O 1.5670(7) 0.2116(7) -0.4073(5)
H14A H 1.6630 0.2024 -0.4449
H15A H 1.5437 0.1658 -0.4415
O15A O 1.6557(6) 0.1545(5) -0.1966(5)
H16A H 1.6982 0.0661 -0.1972
H17A H 1.7012 0.2029 -0.2561
O16A O 2.0442(8) -0.2861(6) -0.0545(5)
H18A H 1.9844 -0.2357 -0.0019
H19A H 2.0140 -0.3569 -0.0404
O17 O 1.2509(7) -0.1739(6) 0.0172(6)
H20 H 1.2278 -0.0929 -0.0257
H21 H 1.2796 -0.1675 0.0728
loop_
_geom_bond_atom_site_label_1
_geom_bond_atom_site_label_2
_geom_bond_site_symmetry_1
_geom_bond_site_symmetry_2
Ho1 O1 1_555 1_555
Ho2 O2 1_555 1_555
P1 C1 1_555 1_555
N1 H1 1_555 1_555
C1 N1 1_555 1_555
H2 C1 1_555 1_555
H3 C1 1_555 1_555
C2 N1 1_555 1_555
H4 C2 1_555 1_555
H5 C2 1_555 1_555
C3 C2 1_555 1_555
H6 C3 1_555 1_555
H7 C3 1_555 1_555
C4 C3 1_555 1_555
H8 C4 1_555 1_555
H9 C4 1_555 1_555
C5 C4 1_555 1_555
H10 C5 1_555 1_555
H11 C5 1_555 1_555
C6 N1 1_555 1_555
H12 C6 1_555 1_555
H13 C6 1_555 1_555
C7 C8 1_555 1_555
C8 O6 1_555 1_555
C9 C10 1_555 1_555
C10 O10 1_555 1_555
C11 O12 1_555 1_555
O1 P1 1_555 1_555
O2 P1 1_555 1_555
O3 P1 1_555 1_555
O4 C7 1_555 1_555
O5 Ho1 1_555 1_555
O6 Ho2_2 1_555 1_555
O7 Ho1 1_555 1_555
O8 C9 1_555 1_555
O9 Ho1 1_555 1_555
O10 Ho2_3 1_555 1_555
O11 Ho1 1_555 1_555
O12 Ho1 1_555 1_555
O13 C11 1_555 1_555
O14 Ho2 1_555 1_555
H14 O14 1_555 1_555
H15 O14 1_555 1_555
O15 Ho2 1_555 1_555
H16 O15 1_555 1_555
H17 O15 1_555 1_555
O16 Ho1 1_555 1_555
H18 O16 1_555 1_555
H19 O16 1_555 1_555
O17 H20 1_555 1_555
H21 O17 1_555 1_555
Ho1A O13 1_555 1_555
Ho1A_2 O1A 1_555 1_555
Ho1_2 O5_2 1_555 1_555
Ho1_3 O9_2 1_555 1_555
Ho2A O3 1_555 1_555
Ho2_2 O4 1_555 1_555
Ho2_3 O8 1_555 1_555
P1A C1A 1_555 1_555
N1A H1A 1_555 1_555
C1A N1A 1_555 1_555
H2A C1A 1_555 1_555
H3A C1A 1_555 1_555
C2A N1A 1_555 1_555
H4A C2A 1_555 1_555
H5A C2A 1_555 1_555
C3A C2A 1_555 1_555
H6A C3A 1_555 1_555
H7A C3A 1_555 1_555
C4A C3A 1_555 1_555
H8A C4A 1_555 1_555
H9A C4A 1_555 1_555
C5A C4A 1_555 1_555
H10A C5A 1_555 1_555
H11A C5A 1_555 1_555
C6A N1A 1_555 1_555
H12A C6A 1_555 1_555
H13A C6A 1_555 1_555
C7_2 C8_2 1_555 1_555
C8_2 O6_2 1_555 1_555
C9_2 C10_2 1_555 1_555
C10_2 O10_2 1_555 1_555
C11A C11 1_555 1_555
O1A P1A 1_555 1_555
O2A Ho2A 1_555 1_555
O3A Ho2 1_555 1_555
O4_2 Ho2 1_555 1_555
O4A Ho2A 1_555 1_555
O5_2 C7_2 1_555 1_555
O5A Ho1A_2 1_555 1_555
O6_2 Ho2 1_555 1_555
O6A Ho2A 1_555 1_555
O7_2 Ho1_2 1_555 1_555
O7A Ho1A_2 1_555 1_555
O8_2 Ho2 1_555 1_555
O8A Ho2A 1_555 1_555
O9_2 C9_2 1_555 1_555
O9A Ho1A_2 1_555 1_555
O10_2 Ho2 1_555 1_555
O10A Ho2A 1_555 1_555
O11_2 Ho1_3 1_555 1_555
O11A Ho1A_2 1_555 1_555
O12A Ho1A 1_555 1_555
O12A_2 Ho1A_2 1_555 1_555
O13A Ho1 1_555 1_555
O13_2 Ho1A_2 1_555 1_555
O14A Ho2A 1_555 1_555
H14A O14A 1_555 1_555
H15A O14A 1_555 1_555
O15A Ho2A 1_555 1_555
H16A O15A 1_555 1_555
H17A O15A 1_555 1_555
O16A Ho1A_2 1_555 1_555
H18A O16A 1_555 1_555
H19A O16A 1_555 1_555
C5 C6 1_555 1_555
C7 O5 1_555 1_555
C8 O7 1_555 1_555
C9 O9 1_555 1_555
C10 O11 1_555 1_555
P1A O2A 1_555 1_555
P1A O3A 1_555 1_555
C5A C6A 1_555 1_555
C7_2 O4_2 1_555 1_555
C8_2 O7_2 1_555 1_555
C9_2 O8_2 1_555 1_555
C10_2 O11_2 1_555 1_555
C11A O12A 1_555 1_555
C11A O13A 1_555 1_555

#END
