
#######################################################################
#
#                 Cambridge Crystallographic Data Centre
#                                CCDC 
#
#######################################################################
#
# If this CIF has been generated from an entry in the Cambridge 
# Structural Database, then it will include bibliographic, chemical, 
# crystal, experimental, refinement or atomic coordinate data resulting 
# from the CCDC's data processing and validation procedures.
#
#######################################################################

data_PUNBUW
_symmetry_cell_setting           triclinic
_symmetry_space_group_name_H-M   'P -1'
_symmetry_Int_Tables_number      2
_space_group_name_Hall           '-P 1'
loop_
_symmetry_equiv_pos_site_id
_symmetry_equiv_pos_as_xyz
1 x,y,z
2 -x,-y,-z
_cell_length_a                   9.566(4)
_cell_length_b                   10.458(4)
_cell_length_c                   12.360(5)
_cell_angle_alpha                73.314(19)
_cell_angle_beta                 69.540(16)
_cell_angle_gamma                66.572(16)
_cell_volume                     1047.1
loop_
_atom_site_label
_atom_site_type_symbol
_atom_site_fract_x
_atom_site_fract_y
_atom_site_fract_z
Y1 Y -0.56235(5) -0.31978(4) 0.26342(4)
Y2 Y -0.09278(5) -0.32802(4) -0.20549(4)
P1 P -0.15996(13) -0.32373(12) 0.10508(10)
N1 N -0.2377(5) -0.1077(4) 0.2277(3)
H1 H -0.3363 -0.1143 0.2513
O1 O -0.1693(4) -0.3082(4) -0.0178(3)
O2 O -0.3072(4) -0.3424(3) 0.1972(3)
O3 O -0.0083(4) -0.4323(3) 0.1324(3)
O4 O -0.7646(4) -0.4251(4) 0.3576(3)
O5 O 0.1206(4) -0.5629(4) 0.3384(3)
O6 O -0.5369(4) -0.4914(4) 0.1610(3)
O7 O 0.3291(4) -0.6060(4) 0.1319(3)
O8 O 0.0759(4) -0.9043(4) 0.2253(4)
O9 O -0.8032(4) -0.1395(4) 0.2575(4)
O10 O 0.3177(4) -0.8636(4) 0.2511(3)
O11 O -0.5518(4) -0.0969(3) 0.2660(3)
O12 O -0.4301(4) -0.5482(4) 0.3627(3)
O13 O -0.6063(4) -0.3211(3) 0.4645(3)
O14 O 0.1555(4) -0.3447(4) -0.1978(3)
O15 O 0.0661(5) -0.2886(5) -0.4078(3)
O16 O -0.5430(5) -0.2162(4) 0.0545(3)
C1 C -0.1604(6) -0.1498(5) 0.1099(4)
H2 H -0.0520 -0.1507 0.0853
H3 H -0.2146 -0.0791 0.0542
C2 C -0.2576(7) 0.0439(5) 0.2222(5)
H4 H -0.3138 0.1041 0.1642
H5 H -0.1543 0.0547 0.1980
C3 C -0.3482(7) 0.0898(6) 0.3401(5)
H6 H -0.3543 0.1860 0.3351
H7 H -0.4551 0.0882 0.3605
C4 C -0.2690(8) -0.0066(7) 0.4348(5)
H8 H -0.3337 0.0204 0.5102
H9 H -0.1672 0.0038 0.4196
C5 C -0.2461(8) -0.1607(7) 0.4382(5)
H10 H -0.1895 -0.2214 0.4960
H11 H -0.3484 -0.1731 0.4615
C6 C -0.1538(6) -0.2033(6) 0.3189(5)
H12 H -0.0487 -0.1972 0.2979
H13 H -0.1429 -0.3004 0.3221
C7 C -0.7759(5) -0.5066(5) 0.3066(4)
C8 C -0.6488(5) -0.5387(5) 0.1894(4)
C9 C 0.1879(6) -1.0131(5) 0.2453(4)
C10 C 0.3291(5) -0.9873(5) 0.2549(4)
C11 C -0.4497(5) -0.5653(5) 0.4706(4)
Y1_2 Y 0.43765(5) -0.31978(4) 0.26342(4)
Y1_3 Y 0.43765(5) -1.31978(4) 0.26342(4)
Y1A Y 0.56235(5) -0.68022(4) -0.26342(4)
Y1A_2 Y -0.43765(5) -0.68022(4) 0.73658(4)
Y2A Y 0.09278(5) -0.67198(4) 0.20549(4)
Y2A_2 Y -0.90722(5) -0.67198(4) 0.20549(4)
Y2A_3 Y -0.90722(5) 0.32802(4) 0.20549(4)
P1A P 0.15996(13) -0.67627(12) -0.10508(10)
N1A N 0.2377(5) -0.8923(4) -0.2277(3)
H1A H 0.3363 -0.8857 -0.2513
O1A O 0.1693(4) -0.6918(4) 0.0178(3)
O2A O 0.3072(4) -0.6576(3) -0.1972(3)
O3A O 0.0083(4) -0.5677(3) -0.1324(3)
O4_2 O 0.2354(4) -0.4251(4) 0.3576(3)
O4A O 0.7646(4) -0.5749(4) -0.3576(3)
O5A O -0.1206(4) -0.4371(4) -0.3384(3)
O5_2 O -0.8794(4) -0.5629(4) 0.3384(3)
O6_2 O 0.4631(4) -0.4914(4) 0.1610(3)
O6A O 0.5369(4) -0.5086(4) -0.1610(3)
O7A O -0.3291(4) -0.3940(4) -0.1319(3)
O7_2 O -0.6709(4) -0.6060(4) 0.1319(3)
O8A O -0.0759(4) -0.0957(4) -0.2253(4)
O8_2 O -0.9241(4) 0.0957(4) 0.2253(4)
O9_2 O 0.1968(4) -1.1395(4) 0.2575(4)
O9A O 0.8032(4) -0.8605(4) -0.2575(4)
O10A O -0.3177(4) -0.1364(4) -0.2511(3)
O10_2 O -0.6823(4) 0.1364(4) 0.2511(3)
O11_2 O 0.4482(4) -1.0969(3) 0.2660(3)
O11A O 0.5518(4) -0.9031(3) -0.2660(3)
O12A O -0.5699(4) -0.4518(4) 0.6373(3)
O12A_2 O 0.4301(4) -0.4518(4) -0.3627(3)
O13A O -0.3937(4) -0.6789(3) 0.5355(3)
O13A_2 O 0.6063(4) -0.6789(3) -0.4645(3)
O14A O -0.1555(4) -0.6553(4) 0.1978(3)
O15A O -0.0661(5) -0.7114(5) 0.4078(3)
O16A O 0.5430(5) -0.7838(4) -0.0545(3)
C1A C 0.1604(6) -0.8502(5) -0.1099(4)
H2A H 0.0520 -0.8493 -0.0853
H3A H 0.2146 -0.9209 -0.0542
C2A C 0.2576(7) -1.0439(5) -0.2222(5)
H4A H 0.3138 -1.1041 -0.1642
H5A H 0.1543 -1.0547 -0.1980
C3A C 0.3482(7) -1.0898(6) -0.3401(5)
H6A H 0.3543 -1.1860 -0.3351
H7A H 0.4551 -1.0882 -0.3605
C4A C 0.2690(8) -0.9934(7) -0.4348(5)
H8A H 0.3337 -1.0204 -0.5102
H9A H 0.1672 -1.0038 -0.4196
C5A C 0.2461(8) -0.8393(7) -0.4382(5)
H10A H 0.1895 -0.7786 -0.4960
H11A H 0.3484 -0.8269 -0.4615
C6A C 0.1538(6) -0.7967(6) -0.3189(5)
H12A H 0.0487 -0.8028 -0.2979
H13A H 0.1429 -0.6996 -0.3221
C7_2 C 0.2241(5) -0.5066(5) 0.3066(4)
C8_2 C 0.3512(5) -0.5387(5) 0.1894(4)
C9_2 C -0.8121(6) -0.0131(5) 0.2453(4)
C10_2 C -0.6709(5) 0.0127(5) 0.2549(4)
C11A C -0.5503(5) -0.4347(5) 0.5294(4)
O17 O 0.2503(5) -0.3253(4) -0.0179(3)
H14 H 0.2728 -0.4062 0.0252
H15 H 0.2211 -0.3315 -0.0732
loop_
_geom_bond_atom_site_label_1
_geom_bond_atom_site_label_2
_geom_bond_site_symmetry_1
_geom_bond_site_symmetry_2
Y1 O2 1_555 1_555
Y2 O1 1_555 1_555
P1 O1 1_555 1_555
N1 H1 1_555 1_555
O2 P1 1_555 1_555
O3 P1 1_555 1_555
O4 Y1 1_555 1_555
O5 Y2A 1_555 1_555
O6 Y1 1_555 1_555
O7 Y2A 1_555 1_555
O8 C9 1_555 1_555
O9 Y1 1_555 1_555
O10 C10 1_555 1_555
O11 Y1 1_555 1_555
O12 Y1 1_555 1_555
O13 Y1 1_555 1_555
O14 Y2 1_555 1_555
O15 Y2 1_555 1_555
O16 Y1 1_555 1_555
C1 P1 1_555 1_555
H2 C1 1_555 1_555
H3 C1 1_555 1_555
C2 N1 1_555 1_555
H4 C2 1_555 1_555
H5 C2 1_555 1_555
C3 C2 1_555 1_555
H6 C3 1_555 1_555
H7 C3 1_555 1_555
C4 C3 1_555 1_555
H8 C4 1_555 1_555
H9 C4 1_555 1_555
C5 C4 1_555 1_555
H10 C5 1_555 1_555
H11 C5 1_555 1_555
C6 N1 1_555 1_555
H12 C6 1_555 1_555
H13 C6 1_555 1_555
C7 O4 1_555 1_555
C8 O6 1_555 1_555
C9 C10 1_555 1_555
C10 O11_2 1_555 1_555
C11 O12 1_555 1_555
O17 H14 1_555 1_555
H15 O17 1_555 1_555
Y1_2 O4_2 1_555 1_555
Y1_3 O9_2 1_555 1_555
Y1A O2A 1_555 1_555
Y1A_2 O12A 1_555 1_555
Y2A O3 1_555 1_555
Y2A_2 O5_2 1_555 1_555
Y2A_3 O8_2 1_555 1_555
P1A O1A 1_555 1_555
N1A H1A 1_555 1_555
O1A Y2A 1_555 1_555
O2A P1A 1_555 1_555
O3A Y2 1_555 1_555
O4_2 C7_2 1_555 1_555
O4A Y1A 1_555 1_555
O5A Y2 1_555 1_555
O5_2 C7 1_555 1_555
O6_2 Y1_2 1_555 1_555
O6A Y1A 1_555 1_555
O7A Y2 1_555 1_555
O7_2 C8 1_555 1_555
O8A Y2 1_555 1_555
O8_2 C9_2 1_555 1_555
O9_2 C9 1_555 1_555
O9A Y1A 1_555 1_555
O10A Y2 1_555 1_555
O10_2 Y2A_3 1_555 1_555
O11_2 Y1_3 1_555 1_555
O11A Y1A 1_555 1_555
O12A C11A 1_555 1_555
O12A_2 Y1A 1_555 1_555
O13A C11 1_555 1_555
O13A_2 Y1A 1_555 1_555
O14A Y2A 1_555 1_555
O15A Y2A 1_555 1_555
O16A Y1A 1_555 1_555
C1A P1A 1_555 1_555
H2A C1A 1_555 1_555
H3A C1A 1_555 1_555
C2A N1A 1_555 1_555
H4A C2A 1_555 1_555
H5A C2A 1_555 1_555
C3A C2A 1_555 1_555
H6A C3A 1_555 1_555
H7A C3A 1_555 1_555
C4A C3A 1_555 1_555
H8A C4A 1_555 1_555
H9A C4A 1_555 1_555
C5A C4A 1_555 1_555
H10A C5A 1_555 1_555
H11A C5A 1_555 1_555
C6A N1A 1_555 1_555
H12A C6A 1_555 1_555
H13A C6A 1_555 1_555
C7_2 O5 1_555 1_555
C8_2 O7 1_555 1_555
C9_2 O9 1_555 1_555
C10_2 O11 1_555 1_555
C11A O13 1_555 1_555
N1 C1 1_555 1_555
O8 Y2A 1_555 1_555
O10 Y2A 1_555 1_555
C5 C6 1_555 1_555
C7 C8 1_555 1_555
C11 C11A 1_555 1_555
Y1A_2 O13A 1_555 1_555
Y2A_2 O7_2 1_555 1_555
P1A O3A 1_555 1_555
N1A C1A 1_555 1_555
O6_2 C8_2 1_555 1_555
O10_2 C10_2 1_555 1_555
C5A C6A 1_555 1_555
C7_2 C8_2 1_555 1_555
C9_2 C10_2 1_555 1_555

#END
