
#######################################################################
#
#                 Cambridge Crystallographic Data Centre
#                                CCDC 
#
#######################################################################
#
# If this CIF has been generated from an entry in the Cambridge 
# Structural Database, then it will include bibliographic, chemical, 
# crystal, experimental, refinement or atomic coordinate data resulting 
# from the CCDC's data processing and validation procedures.
#
#######################################################################

data_PUNCOR
_symmetry_cell_setting           monoclinic
_symmetry_space_group_name_H-M   'P 21/c'
_symmetry_Int_Tables_number      14
_space_group_name_Hall           '-P 2ybc'
loop_
_symmetry_equiv_pos_site_id
_symmetry_equiv_pos_as_xyz
1 x,y,z
2 -x,1/2+y,1/2-z
3 -x,-y,-z
4 x,1/2-y,1/2+z
_cell_length_a                   13.1713(6)
_cell_length_b                   12.5430(4)
_cell_length_c                   14.3799(8)
_cell_angle_alpha                90
_cell_angle_beta                 110.601(6)
_cell_angle_gamma                90
_cell_volume                     2223.75
loop_
_atom_site_label
_atom_site_type_symbol
_atom_site_fract_x
_atom_site_fract_y
_atom_site_fract_z
Cd1 Cd 0.29563(5) 0.13880(4) 0.77233(5)
C1 C 0.2267(6) -0.1136(5) 0.7932(6)
H1 H 0.1608 -0.0921 0.7973
C2 C 0.3808(7) -0.1118(5) 0.7746(6)
H2 H 0.4420 -0.0875 0.7629
C3 C 0.3621(7) -0.2152(5) 0.7924(6)
H3 H 0.4072 -0.2733 0.7962
C4 C 0.1988(6) -0.3067(6) 0.8166(6)
H4 H 0.1271 -0.2816 0.8108
H5 H 0.1898 -0.3559 0.7623
C5 C 0.3085(6) -0.6188(5) 0.8586(6)
H6 H 0.3003 -0.6468 0.9154
C6 C 0.3177(7) -0.6057(6) 0.7120(7)
H7 H 0.3163 -0.6233 0.6488
C7 C 0.3393(7) -0.5074(6) 0.7546(7)
H8 H 0.3555 -0.4462 0.7262
C8 C 0.3499(5) -0.4328(5) 0.9243(6)
H9 H 0.3777 -0.4659 0.9894
H10 H 0.4045 -0.3835 0.9195
C9 C -0.0823(6) -0.3418(6) 0.9452(7)
H11 H -0.1246 -0.3118 0.9782
C10 C 0.0259(6) -0.3688(6) 0.9890(6)
H12 H 0.0692 -0.3624 1.0556
C11 C -0.0327(6) -0.4042(6) 0.8309(6)
H13 H -0.0337 -0.4271 0.7691
C12 C 0.1606(6) -0.4504(6) 0.9195(6)
H14 H 0.1900 -0.4901 0.9810
H15 H 0.1489 -0.5006 0.8654
C13 C 0.4485(7) -0.0750(6) 1.0705(7)
H16 H 0.4656 -0.0028 1.0754
C14 C 0.3493(7) -0.1136(6) 1.0251(6)
H17 H 0.2862 -0.0751 0.9932
C15 C 0.4637(6) -0.2421(6) 1.0874(6)
H18 H 0.4915 -0.3101 1.1062
C16 C 0.2691(6) -0.2989(6) 1.0102(6)
H19 H 0.2818 -0.3463 1.0665
H20 H 0.2036 -0.2590 1.0027
C17 C 0.2463(5) -0.3694(5) 0.9155(5)
N1 N 0.2957(5) -0.0477(4) 0.7764(6)
N2 N 0.2612(5) -0.2159(4) 0.8038(5)
N3 N 0.2982(5) -0.6742(4) 0.7781(5)
N4 N 0.3325(5) -0.5160(4) 0.8479(5)
N5 N -0.1176(5) -0.3654(5) 0.8468(5)
N6 N 0.0555(5) -0.4071(4) 0.9133(5)
N7 N 0.3596(5) -0.2228(4) 1.0355(5)
N8 N 0.5229(5) -0.1553(5) 1.1093(5)
Br1 Br 0.20035(9) 0.13737(8) 0.91745(9)
Br2 Br 0.38597(7) 0.12695(7) 0.62786(7)
Cd1_2 Cd 0.29563(5) -0.86120(4) 0.77233(5)
Cd1A Cd -0.29563(5) -0.36120(4) 0.72767(5)
Cd1B Cd 0.70437(5) -0.13880(4) 1.22767(5)
N3_2 N 0.2982(5) 0.3258(4) 0.7781(5)
N5A N 0.1176(5) 0.1346(5) 0.6532(5)
N8B N 0.4771(5) 0.1553(5) 0.8907(5)
O1 O -0.0363(9) -0.1647(8) 0.7220(10)
O2? O -0.0350(15) -0.1362(14) 0.7784(16)
loop_
_geom_bond_atom_site_label_1
_geom_bond_atom_site_label_2
_geom_bond_site_symmetry_1
_geom_bond_site_symmetry_2
Cd1 N1 1_555 1_555
C1 H1 1_555 1_555
C2 H2 1_555 1_555
C3 C2 1_555 1_555
H3 C3 1_555 1_555
C4 H4 1_555 1_555
H5 C4 1_555 1_555
C5 H6 1_555 1_555
C6 H7 1_555 1_555
C7 C6 1_555 1_555
H8 C7 1_555 1_555
C8 H9 1_555 1_555
H10 C8 1_555 1_555
C9 H11 1_555 1_555
C10 C9 1_555 1_555
H12 C10 1_555 1_555
C11 H13 1_555 1_555
C12 H14 1_555 1_555
H15 C12 1_555 1_555
C13 H16 1_555 1_555
C14 C13 1_555 1_555
H17 C14 1_555 1_555
C15 H18 1_555 1_555
C16 H19 1_555 1_555
H20 C16 1_555 1_555
C17 C4 1_555 1_555
N1 C1 1_555 1_555
N2 C1 1_555 1_555
N3 C5 1_555 1_555
N4 C5 1_555 1_555
N5 C9 1_555 1_555
N6 C10 1_555 1_555
N7 C14 1_555 1_555
N8 C13 1_555 1_555
Br1 Cd1 1_555 1_555
Br2 Cd1 1_555 1_555
Cd1_2 N3 1_555 1_555
Cd1A N5 1_555 1_555
Cd1B N8 1_555 1_555
N3_2 Cd1 1_555 1_555
N5A Cd1 1_555 1_555
N8B Cd1 1_555 1_555
C2 N1 1_555 1_555
C3 N2 1_555 1_555
C4 N2 1_555 1_555
C6 N3 1_555 1_555
C7 N4 1_555 1_555
C8 C17 1_555 1_555
C8 N4 1_555 1_555
C11 N5 1_555 1_555
C11 N6 1_555 1_555
C12 C17 1_555 1_555
C12 N6 1_555 1_555
C15 N7 1_555 1_555
C15 N8 1_555 1_555
C16 C17 1_555 1_555
C16 N7 1_555 1_555

#END
