
#######################################################################
#
#                 Cambridge Crystallographic Data Centre
#                                CCDC 
#
#######################################################################
#
# If this CIF has been generated from an entry in the Cambridge 
# Structural Database, then it will include bibliographic, chemical, 
# crystal, experimental, refinement or atomic coordinate data resulting 
# from the CCDC's data processing and validation procedures.
#
#######################################################################

data_PUNCIL
_symmetry_cell_setting           monoclinic
_symmetry_space_group_name_H-M   'P 21/c'
_symmetry_Int_Tables_number      14
_space_group_name_Hall           '-P 2ybc'
loop_
_symmetry_equiv_pos_site_id
_symmetry_equiv_pos_as_xyz
1 x,y,z
2 -x,1/2+y,1/2-z
3 -x,-y,-z
4 x,1/2-y,1/2+z
_cell_length_a                   12.5080(6)
_cell_length_b                   12.7540(7)
_cell_length_c                   15.2650(7)
_cell_angle_alpha                90
_cell_angle_beta                 104.782(5)
_cell_angle_gamma                90
_cell_volume                     2354.58
loop_
_atom_site_label
_atom_site_type_symbol
_atom_site_fract_x
_atom_site_fract_y
_atom_site_fract_z
Cd1 Cd 0.226580(17) 0.225595(18) 0.082023(14)
C1 C 0.4916(2) 0.2484(2) 0.17009(19)
H1 H 0.4792 0.3143 0.1917
C2 C 0.4665(3) 0.0955(3) 0.1125(3)
H2 H 0.4322 0.0345 0.0858
C3 C 0.5772(3) 0.1118(3) 0.1376(3)
H3 H 0.6319 0.0652 0.1313
C4 C 0.6961(2) 0.2654(2) 0.21321(19)
H4 H 0.6848 0.3111 0.2609
H5 H 0.7518 0.2143 0.2412
C5 C 0.7689(2) 0.2583(2) 0.07336(18)
H6 H 0.7066 0.2591 0.0203
H7 H 0.7759 0.1873 0.0971
C6 C 0.9674(2) 0.2355(2) 0.07653(18)
H8 H 0.9799 0.1821 0.1194
C7 C 0.8850(2) 0.3575(3) -0.0170(2)
H9 H 0.8323 0.4032 -0.0505
C8 C 0.9920(3) 0.3500(3) -0.0189(2)
H10 H 1.0257 0.3910 -0.0547
C9 C 0.8556(3) 0.4720(3) 0.4249(2)
H11 H 0.8672 0.4653 0.4873
C10 C 0.8708(3) 0.3955(3) 0.3691(2)
H12 H 0.8948 0.3276 0.3855
C11 C 0.8159(3) 0.5365(3) 0.2924(2)
H13 H 0.7952 0.5830 0.2441
C12 C 0.8514(2) 0.3823(2) 0.20021(19)
H14 H 0.8759 0.4322 0.1615
H15 H 0.9071 0.3278 0.2160
C13 C 0.7420(2) 0.3323(2) 0.14597(19)
C14 C 0.6524(2) 0.4139(2) 0.1044(2)
H16 H 0.6452 0.4615 0.1521
H17 H 0.5824 0.3774 0.0836
C15 C 0.7242(2) 0.5676(3) 0.0321(2)
H18 H 0.7602 0.6009 0.0858
C16 C 0.6600(3) 0.5324(3) -0.1081(2)
H19 H 0.6439 0.5371 -0.1710
C17 C 0.6279(3) 0.4537(3) -0.0618(2)
H20 H 0.5855 0.3957 -0.0859
N1 N 0.4124(2) 0.1827(2) 0.13261(18)
N2 N 0.59255(18) 0.2098(2) 0.17368(16)
N3 N 1.04379(18) 0.2734(2) 0.03925(15)
N4 N 0.86946(17) 0.2839(2) 0.04481(14)
N5 N 0.8207(2) 0.5613(2) 0.37665(16)
N6 N 0.84436(18) 0.4363(2) 0.28370(16)
N7 N 0.7204(2) 0.6051(2) -0.04862(17)
N8 N 0.67057(19) 0.4765(2) 0.02889(16)
O1 O 0.22277(19) 0.2818(2) 0.22804(15)
H21 H 0.2847(19) 0.297(3) 0.264(2)
H22 H 0.180(3) 0.334(2) 0.226(3)
O2 O 0.2319(2) 0.1770(2) -0.06333(16)
H23 H 0.202(3) 0.123(2) -0.087(3)
H24 H 0.294(2) 0.189(3) -0.075(3)
Cd1_2 Cd 1.226580(17) 0.225595(18) 0.082023(14)
Cd1A Cd 0.773420(17) 0.725595(18) 0.417977(14)
Cd1B Cd 0.773420(17) 0.774405(18) -0.082023(14)
N3_2 N 0.04379(18) 0.2734(2) 0.03925(15)
N5A N 0.1793(2) 0.0613(2) 0.12335(16)
N7B N 0.2796(2) 0.3949(2) 0.04862(17)
N9 N 0.4823(3) 0.3032(3) 0.38311(19)
O3 O 0.4152(2) 0.3659(2) 0.33571(19)
O4 O 0.4477(3) 0.2372(3) 0.4269(2)
O5 O 0.5808(2) 0.3080(2) 0.38540(17)
N10 N 0.8990(2) 0.0257(3) 0.2360(2)
O6 O 0.9083(2) -0.0417(3) 0.2948(2)
O7 O 0.8464(3) 0.0095(2) 0.1578(2)
O8 O 0.9463(3) 0.1102(3) 0.25662(18)
loop_
_geom_bond_atom_site_label_1
_geom_bond_atom_site_label_2
_geom_bond_site_symmetry_1
_geom_bond_site_symmetry_2
Cd1 N1 1_555 1_555
C1 H1 1_555 1_555
C2 H2 1_555 1_555
C3 C2 1_555 1_555
H3 C3 1_555 1_555
C4 H4 1_555 1_555
H5 C4 1_555 1_555
C5 H6 1_555 1_555
H7 C5 1_555 1_555
C6 H8 1_555 1_555
C7 H9 1_555 1_555
C8 C7 1_555 1_555
H10 C8 1_555 1_555
C9 H11 1_555 1_555
C10 C9 1_555 1_555
H12 C10 1_555 1_555
C11 H13 1_555 1_555
C12 H14 1_555 1_555
H15 C12 1_555 1_555
C13 C4 1_555 1_555
C14 C13 1_555 1_555
H16 C14 1_555 1_555
H17 C14 1_555 1_555
C15 H18 1_555 1_555
C16 H19 1_555 1_555
C17 C16 1_555 1_555
H20 C17 1_555 1_555
N1 C1 1_555 1_555
N2 C1 1_555 1_555
N3 C6 1_555 1_555
N4 C5 1_555 1_555
N5 C9 1_555 1_555
N6 C10 1_555 1_555
N7 C15 1_555 1_555
N8 C14 1_555 1_555
O1 Cd1 1_555 1_555
H21 O1 1_555 1_555
H22 O1 1_555 1_555
O2 Cd1 1_555 1_555
H23 O2 1_555 1_555
H24 O2 1_555 1_555
N9 O3 1_555 1_555
O4 N9 1_555 1_555
O5 N9 1_555 1_555
N10 O6 1_555 1_555
O7 N10 1_555 1_555
O8 N10 1_555 1_555
Cd1_2 N3 1_555 1_555
Cd1A N5 1_555 1_555
Cd1B N7 1_555 1_555
N3_2 Cd1 1_555 1_555
N5A Cd1 1_555 1_555
N7B Cd1 1_555 1_555
C2 N1 1_555 1_555
C3 N2 1_555 1_555
C4 N2 1_555 1_555
C5 C13 1_555 1_555
C6 N4 1_555 1_555
C7 N4 1_555 1_555
C8 N3 1_555 1_555
C11 N5 1_555 1_555
C11 N6 1_555 1_555
C12 C13 1_555 1_555
C12 N6 1_555 1_555
C15 N8 1_555 1_555
C16 N7 1_555 1_555
C17 N8 1_555 1_555

#END
