
#######################################################################
#
#                 Cambridge Crystallographic Data Centre
#                                CCDC 
#
#######################################################################
#
# If this CIF has been generated from an entry in the Cambridge 
# Structural Database, then it will include bibliographic, chemical, 
# crystal, experimental, refinement or atomic coordinate data resulting 
# from the CCDC's data processing and validation procedures.
#
#######################################################################

data_PUNDAE
_symmetry_cell_setting           monoclinic
_symmetry_space_group_name_H-M   'C 2/c'
_symmetry_Int_Tables_number      15
_space_group_name_Hall           '-C 2yn'
loop_
_symmetry_equiv_pos_site_id
_symmetry_equiv_pos_as_xyz
1 x,y,z
2 -x,y,1/2-z
3 1/2+x,1/2+y,z
4 1/2-x,1/2+y,1/2-z
5 -x,-y,-z
6 x,-y,1/2+z
7 1/2-x,1/2-y,-z
8 1/2+x,1/2-y,1/2+z
_cell_length_a                   42.4374(12)
_cell_length_b                   10.5633(3)
_cell_length_c                   18.6767(4)
_cell_angle_alpha                90
_cell_angle_beta                 112.985(2)
_cell_angle_gamma                90
_cell_volume                     7707.67
loop_
_atom_site_label
_atom_site_type_symbol
_atom_site_fract_x
_atom_site_fract_y
_atom_site_fract_z
Cd1 Cd 1.0000 0.68644(3) 0.2500
Cd2 Cd 0.909595(6) 0.38705(2) 0.252309(12)
Cd3 Cd 1.174080(6) 0.45635(2) 0.761660(13)
C1 C 0.84326(9) 0.2226(3) 0.65078(18)
H1 H 0.8629 0.2081 0.6952
C2 C 0.79520(9) 0.2957(4) 0.57212(19)
H2 H 0.7752 0.3434 0.5520
C3 C 0.80444(9) 0.2068(4) 0.53298(19)
H3 H 0.7922 0.1812 0.4819
C4 C 0.85673(9) 0.0613(3) 0.56965(19)
H4 H 0.8729 0.0324 0.6199
H5 H 0.8419 -0.0095 0.5452
C5 C 0.87721(8) 0.0947(3) 0.51949(17)
C6 C 0.85112(8) 0.1220(3) 0.43550(16)
C7 C 0.87902(8) 0.2442(3) 0.36055(18)
H6 H 0.8765 0.3234 0.3794
C8 C 0.87560(9) 0.0400(3) 0.33931(18)
H7 H 0.8708 -0.0458 0.3403
C9 C 0.89164(9) 0.0962(3) 0.29785(18)
H8 H 0.8999 0.0544 0.2648
C10 C 0.89756(9) -0.0252(3) 0.51469(17)
H9 H 0.9145 -0.0005 0.4943
H10 H 0.8819 -0.0835 0.4777
C11 C 0.94566(9) -0.0659(3) 0.64780(19)
H11 H 0.9603 0.0012 0.6506
C12 C 0.95020(9) -0.1570(3) 0.70144(19)
H12 H 0.9690 -0.1632 0.7484
C13 C 0.90269(9) -0.1974(3) 0.60860(19)
H13 H 0.8821 -0.2356 0.5778
C14 C 0.90403(8) 0.2007(3) 0.55327(18)
H14 H 0.9139 0.2193 0.5155
H15 H 0.9223 0.1678 0.5993
C15 C 0.86803(8) 0.4050(3) 0.52902(18)
H16 H 0.8543 0.3974 0.4764
C16 C 0.86806(8) 0.5003(3) 0.57590(17)
H17 H 0.8539 0.5710 0.5608
C17 C 0.90610(8) 0.3695(3) 0.64630(18)
H18 H 0.9233 0.3310 0.6882
C18 C 0.98112(8) 0.4600(3) 0.33575(18)
C19 C 1.01798(8) 0.4746(4) 0.39249(18)
H19 H 1.0213 0.5610 0.4115
H20 H 1.0327 0.4614 0.3645
C20 C 1.02934(9) 0.3859(4) 0.46192(18)
H21 H 1.0304 0.3002 0.4444
H22 H 1.0126 0.3877 0.4853
C21 C 1.06415(9) 0.4220(4) 0.52278(19)
H23 H 1.0809 0.4197 0.4994
H24 H 1.0631 0.5081 0.5399
C22 C 1.07569(9) 0.3347(3) 0.59280(18)
H25 H 1.0594 0.3395 0.6175
H26 H 1.0759 0.2482 0.5755
C23 C 1.11054(9) 0.3677(3) 0.65110(17)
C24 C 1.31097(10) 0.1760(4) 0.6495(2)
C25 C 1.30711(13) 0.3032(5) 0.6100(3)
H27 H 1.3119 0.2915 0.5637
H28 H 1.3248 0.3583 0.6446
C26 C 1.27476(17) 0.3703(6) 0.5870(4)
H29 H 1.2577 0.3193 0.5476
H30 H 1.2771 0.4480 0.5618
C27 C 1.26116(15) 0.4032(6) 0.6419(3)
H31 H 1.2572 0.3256 0.6649
H32 H 1.2785 0.4508 0.6830
C28 C 1.22836(14) 0.4793(6) 0.6141(3)
H33 H 1.2131 0.4448 0.5645
H34 H 1.2338 0.5654 0.6048
C29 C 1.20913(10) 0.4847(4) 0.6671(2)
C30 C 0.98284(11) 0.8507(3) 0.3386(2)
C31 C 0.97730(11) 0.9477(4) 0.3933(2)
H35 H 0.9766 1.0314 0.3713
H36 H 0.9551 0.9323 0.3950
C32 C 1.00352(11) 0.9482(4) 0.4746(2)
H37 H 1.0259 0.9624 0.4736
H38 H 1.0038 0.8660 0.4980
N1 N 0.81972(7) 0.3061(3) 0.64678(15)
N2 N 0.83568(7) 0.1605(3) 0.58325(15)
N3 N 0.86775(7) 0.1352(2) 0.37976(14)
N4 N 0.89399(7) 0.2247(3) 0.31187(14)
N5 N 0.91514(7) -0.0925(2) 0.58853(14)
N6 N 0.92320(7) -0.2390(3) 0.67692(14)
N7 N 0.89245(6) 0.3196(2) 0.57423(14)
N8 N 0.89210(7) 0.4792(2) 0.65010(14)
O1 O 0.96268(6) 0.3772(3) 0.34707(13)
O2 O 0.96989(6) 0.5338(2) 0.27802(13)
O3 O 1.21450(7) 0.3993(3) 0.71705(16)
O4 O 1.18703(8) 0.5684(3) 0.65718(16)
O5 O 1.28658(8) 0.1096(3) 0.6455(2)
O6 O 1.34052(7) 0.1364(3) 0.68556(15)
O7 O 0.95938(8) 0.8287(3) 0.27635(16)
O8 O 1.01246(7) 0.7964(3) 0.36122(15)
O9 O 1.11514(6) 0.4738(2) 0.68574(13)
O10 O 1.13483(7) 0.2916(3) 0.66636(15)
Cd1D Cd 1.0000 1.31356(3) 0.7500
Cd2A Cd 1.090405(6) 0.38705(2) 0.247691(12)
Cd2E Cd 0.909595(6) -0.38705(2) 0.752309(12)
Cd2E_2 Cd 0.909595(6) 0.61295(2) 0.752309(12)
Cd2D Cd 1.090405(6) 0.61295(2) 0.747691(12)
Cd2E_3 Cd 0.909595(6) 0.61295(2) -0.247691(12)
Cd2E_4 Cd 0.909595(6) -0.38705(2) -0.247691(12)
Cd2_2 Cd 0.909595(6) -0.61295(2) 0.252309(12)
Cd3A Cd 0.825920(6) 0.45635(2) -0.261660(13)
Cd3A_2 Cd 0.825920(6) 0.45635(2) 0.738340(13)
Cd3C Cd 1.325920(6) -0.04365(2) 0.738340(13)
Cd3D Cd 0.825920(6) -0.45635(2) 0.238340(13)
Cd3C_2 Cd 1.325920(6) 0.95635(2) 0.738340(13)
C1E C 0.84326(9) -0.2226(3) 0.15078(18)
H1E H 0.8629 -0.2081 0.1952
C2E C 0.79520(9) -0.2957(4) 0.07212(19)
H2E H 0.7752 -0.3434 0.0520
C3E C 0.80444(9) -0.2068(4) 0.03298(19)
H3E H 0.7922 -0.1812 -0.0181
C4E C 0.85673(9) -0.0613(3) 0.06965(19)
H4E H 0.8729 -0.0324 0.1199
H5E H 0.8419 0.0095 0.0452
C5E C 0.87721(8) -0.0947(3) 0.01949(17)
C6E C 0.85112(8) -0.1220(3) -0.06450(16)
C7E C 0.87902(8) -0.2442(3) -0.13945(18)
H6E H 0.8765 -0.3234 -0.1206
C8E C 0.87560(9) -0.0400(3) -0.16069(18)
H7E H 0.8708 0.0458 -0.1597
C9E C 0.89164(9) -0.0962(3) -0.20215(18)
H8E H 0.8999 -0.0544 -0.2352
C10E C 0.89756(9) 0.0252(3) 0.01469(17)
H9E H 0.9145 0.0005 -0.0057
H10E H 0.8819 0.0835 -0.0223
C11E C 0.94566(9) 0.0659(3) 0.14780(19)
H11E H 0.9603 -0.0012 0.1506
C12E C 0.95020(9) 0.1570(3) 0.20144(19)
H12E H 0.9690 0.1632 0.2484
C13E C 0.90269(9) 0.1974(3) 0.10860(19)
H13E H 0.8821 0.2356 0.0778
C14E C 0.90403(8) -0.2007(3) 0.05327(18)
H14E H 0.9139 -0.2193 0.0155
H15E H 0.9223 -0.1678 0.0993
C15E C 0.86803(8) -0.4050(3) 0.02902(18)
H16E H 0.8543 -0.3974 -0.0236
C16E C 0.86806(8) -0.5003(3) 0.07590(17)
H17E H 0.8539 -0.5710 0.0608
C17E C 0.90610(8) -0.3695(3) 0.14630(18)
H18E H 0.9233 -0.3310 0.1882
C18A C 1.01888(8) 0.4600(3) 0.16425(18)
C19A C 0.98202(8) 0.4746(4) 0.10751(18)
H19A H 0.9787 0.5610 0.0885
H20A H 0.9673 0.4614 0.1355
C20A C 0.97066(9) 0.3859(4) 0.03808(18)
H21A H 0.9696 0.3002 0.0556
H22A H 0.9874 0.3877 0.0147
C21A C 0.93585(9) 0.4220(4) -0.02278(19)
H23A H 0.9191 0.4197 0.0006
H24A H 0.9369 0.5081 -0.0399
C22A C 0.92431(9) 0.3347(3) -0.09280(18)
H25A H 0.9406 0.3395 -0.1175
H26A H 0.9241 0.2482 -0.0755
C23A C 0.88946(9) 0.3677(3) -0.15110(17)
C24C C 1.18903(10) 0.6760(4) 0.8505(2)
C25C C 1.19289(13) 0.8032(5) 0.8900(3)
H27C H 1.1881 0.7915 0.9363
H28C H 1.1752 0.8583 0.8554
C26C C 1.22524(17) 0.8703(6) 0.9130(4)
H29C H 1.2423 0.8193 0.9524
H30C H 1.2229 0.9480 0.9382
C27C C 1.23884(15) 0.9032(6) 0.8581(3)
H31C H 1.2428 0.8256 0.8351
H32C H 1.2215 0.9508 0.8170
C28C C 1.27164(14) 0.9793(6) 0.8859(3)
H33C H 1.2869 0.9448 0.9355
H34C H 1.2662 1.0654 0.8952
C29C C 1.29087(10) 0.9847(4) 0.8329(2)
C30D C 1.01716(11) 1.1493(3) 0.6614(2)
C31D C 1.02270(11) 1.0523(4) 0.6067(2)
H35D H 1.0234 0.9686 0.6287
H36D H 1.0449 1.0677 0.6050
C32D C 0.99648(11) 1.0518(4) 0.5254(2)
H37D H 0.9741 1.0376 0.5264
H38D H 0.9962 1.1340 0.5020
N1E N 0.81972(7) -0.3061(3) 0.14678(15)
N1A N 1.18028(7) 0.3061(3) 0.85322(15)
N1_2 N 0.81972(7) 0.3061(3) -0.35322(15)
N2E N 0.83568(7) -0.1605(3) 0.08325(15)
N3E N 0.86775(7) -0.1352(2) -0.12024(14)
N4E N 0.89399(7) -0.2247(3) -0.18813(14)
N4A N 1.10601(7) 0.2247(3) 0.18813(14)
N5E N 0.91514(7) 0.0925(2) 0.08853(14)
N6E N 0.92320(7) 0.2390(3) 0.17692(14)
N6D N 1.07680(7) 0.2390(3) 0.32308(14)
N7E N 0.89245(6) -0.3196(2) 0.07423(14)
N8E N 0.89210(7) -0.4792(2) 0.15010(14)
N8E_2 N 0.89210(7) 0.5208(2) 0.15010(14)
N8D N 1.10790(7) 0.5208(2) 0.34990(14)
O1A O 1.03732(6) 0.3772(3) 0.15293(13)
O2A O 1.03011(6) 0.5338(2) 0.22198(13)
O3C O 1.28550(7) 0.8993(3) 0.78295(16)
O3A O 0.78550(7) 0.3993(3) -0.21705(16)
O4C O 1.31297(8) 1.0684(3) 0.84282(16)
O4A O 0.81297(8) 0.5684(3) -0.15718(16)
O5C O 1.21342(8) 0.6096(3) 0.8545(2)
O5B O 0.78658(8) 0.6096(3) -0.3545(2)
O6C O 1.15948(7) 0.6364(3) 0.81444(15)
O6B O 0.84052(7) 0.6364(3) -0.31444(15)
O7D O 1.04062(8) 1.1713(3) 0.72365(16)
O7A O 1.04062(8) 0.8287(3) 0.22365(16)
O8D O 0.98754(7) 1.2036(3) 0.63878(15)
O8A O 0.98754(7) 0.7964(3) 0.13878(15)
O9A O 0.88486(6) 0.4738(2) -0.18574(13)
O9D O 0.88486(6) 0.5262(2) 0.31426(13)
O9E O 1.11514(6) 0.5262(2) 0.18574(13)
O10A O 0.86517(7) 0.2916(3) -0.16636(15)
O11 O 0.83365(9) 0.7753(3) 0.44431(18)
H39 H 0.8167(12) 0.827(5) 0.423(3)
H40 H 0.8399(14) 0.752(5) 0.408(3)
O12 O 0.72700(11) 0.6934(4) 0.1676(2)
H41 H 0.7176(15) 0.765(4) 0.172(4)
H42 H 0.7465(11) 0.683(6) 0.207(3)
O13 O 0.72001(9) 0.4489(4) 0.1022(3)
H43 H 0.7390(12) 0.404(6) 0.124(4)
H44 H 0.7268(18) 0.517(5) 0.135(4)
loop_
_geom_bond_atom_site_label_1
_geom_bond_atom_site_label_2
_geom_bond_site_symmetry_1
_geom_bond_site_symmetry_2
Cd1 O2 1_555 1_555
Cd2 N4 1_555 1_555
Cd3 O3 1_555 1_555
C1 H1 1_555 1_555
C2 H2 1_555 1_555
C3 C2 1_555 1_555
H3 C3 1_555 1_555
C4 H4 1_555 1_555
H5 C4 1_555 1_555
C5 C4 1_555 1_555
C6 C5 1_555 1_555
C7 H6 1_555 1_555
C8 H7 1_555 1_555
C9 C8 1_555 1_555
H8 C9 1_555 1_555
C10 C5 1_555 1_555
H9 C10 1_555 1_555
H10 C10 1_555 1_555
C11 H11 1_555 1_555
C12 C11 1_555 1_555
H12 C12 1_555 1_555
C13 H13 1_555 1_555
C14 C5 1_555 1_555
H14 C14 1_555 1_555
H15 C14 1_555 1_555
C15 H16 1_555 1_555
C16 C15 1_555 1_555
H17 C16 1_555 1_555
C17 H18 1_555 1_555
C18 C19 1_555 1_555
C19 H19 1_555 1_555
H20 C19 1_555 1_555
C20 C19 1_555 1_555
H21 C20 1_555 1_555
H22 C20 1_555 1_555
C21 C20 1_555 1_555
H23 C21 1_555 1_555
H24 C21 1_555 1_555
C22 C21 1_555 1_555
H25 C22 1_555 1_555
H26 C22 1_555 1_555
C23 C22 1_555 1_555
C24 C25 1_555 1_555
C25 H27 1_555 1_555
H28 C25 1_555 1_555
C26 C25 1_555 1_555
H29 C26 1_555 1_555
H30 C26 1_555 1_555
C27 C26 1_555 1_555
H31 C27 1_555 1_555
H32 C27 1_555 1_555
C28 C27 1_555 1_555
H33 C28 1_555 1_555
H34 C28 1_555 1_555
C29 C28 1_555 1_555
C30 C31 1_555 1_555
C31 H35 1_555 1_555
H36 C31 1_555 1_555
C32 C31 1_555 1_555
H37 C32 1_555 1_555
H38 C32 1_555 1_555
N1 C1 1_555 1_555
N2 C1 1_555 1_555
N3 C6 1_555 1_555
N4 C7 1_555 1_555
N5 C10 1_555 1_555
N6 C12 1_555 1_555
N7 C14 1_555 1_555
N8 C16 1_555 1_555
O1 Cd2 1_555 1_555
O2 C18 1_555 1_555
O3 C29 1_555 1_555
O4 Cd3 1_555 1_555
O5 C24 1_555 1_555
O6 C24 1_555 1_555
O7 Cd1 1_555 1_555
O8 Cd1 1_555 1_555
O9 Cd3 1_555 1_555
O10 Cd3 1_555 1_555
O11 H39 1_555 1_555
H40 O11 1_555 1_555
O12 H41 1_555 1_555
H42 O12 1_555 1_555
O13 H43 1_555 1_555
H44 O13 1_555 1_555
Cd1D O7D 1_555 1_555
Cd2A N4A 1_555 1_555
Cd2E N6 1_555 1_555
Cd2E_2 N8 1_555 1_555
Cd2D O9 1_555 1_555
Cd2E_3 O9A 1_555 1_555
Cd2E_4 N4E 1_555 1_555
Cd2_2 N8E 1_555 1_555
Cd3A N1_2 1_555 1_555
Cd3A_2 N1 1_555 1_555
Cd3C O5 1_555 1_555
Cd3D N1E 1_555 1_555
Cd3C_2 O3C 1_555 1_555
C1E H1E 1_555 1_555
C2E H2E 1_555 1_555
C3E C2E 1_555 1_555
H3E C3E 1_555 1_555
C4E H4E 1_555 1_555
H5E C4E 1_555 1_555
C5E C4E 1_555 1_555
C6E C5E 1_555 1_555
C7E H6E 1_555 1_555
C8E H7E 1_555 1_555
C9E C8E 1_555 1_555
H8E C9E 1_555 1_555
C10E C5E 1_555 1_555
H9E C10E 1_555 1_555
H10E C10E 1_555 1_555
C11E H11E 1_555 1_555
C12E C11E 1_555 1_555
H12E C12E 1_555 1_555
C13E H13E 1_555 1_555
C14E C5E 1_555 1_555
H14E C14E 1_555 1_555
H15E C14E 1_555 1_555
C15E H16E 1_555 1_555
C16E C15E 1_555 1_555
H17E C16E 1_555 1_555
C17E H18E 1_555 1_555
C18A C19A 1_555 1_555
C19A H19A 1_555 1_555
H20A C19A 1_555 1_555
C20A C19A 1_555 1_555
H21A C20A 1_555 1_555
H22A C20A 1_555 1_555
C21A C20A 1_555 1_555
H23A C21A 1_555 1_555
H24A C21A 1_555 1_555
C22A C21A 1_555 1_555
H25A C22A 1_555 1_555
H26A C22A 1_555 1_555
C23A C22A 1_555 1_555
C24C C25C 1_555 1_555
C25C H27C 1_555 1_555
H28C C25C 1_555 1_555
C26C C25C 1_555 1_555
H29C C26C 1_555 1_555
H30C C26C 1_555 1_555
C27C C26C 1_555 1_555
H31C C27C 1_555 1_555
H32C C27C 1_555 1_555
C28C C27C 1_555 1_555
H33C C28C 1_555 1_555
H34C C28C 1_555 1_555
C29C C28C 1_555 1_555
C30D C31D 1_555 1_555
C31D H35D 1_555 1_555
H36D C31D 1_555 1_555
C32D C32 1_555 1_555
H37D C32D 1_555 1_555
H38D C32D 1_555 1_555
N1E C1E 1_555 1_555
N1A Cd3 1_555 1_555
N2E C1E 1_555 1_555
N3E C6E 1_555 1_555
N4E C7E 1_555 1_555
N5E C10E 1_555 1_555
N6E Cd2 1_555 1_555
N6D Cd2A 1_555 1_555
N7E C14E 1_555 1_555
N8E C16E 1_555 1_555
N8E_2 Cd2 1_555 1_555
N8D Cd2A 1_555 1_555
O1A Cd2A 1_555 1_555
O2A Cd1 1_555 1_555
O3C C29C 1_555 1_555
O3A Cd3A 1_555 1_555
O4C Cd3C_2 1_555 1_555
O4A Cd3A 1_555 1_555
O5C Cd3 1_555 1_555
O5B Cd3A 1_555 1_555
O6C Cd3 1_555 1_555
O6B Cd3A 1_555 1_555
O7D C30D 1_555 1_555
O7A Cd1 1_555 1_555
O8D Cd1D 1_555 1_555
O8A Cd1 1_555 1_555
O9A Cd3A 1_555 1_555
O9D Cd2 1_555 1_555
O9E Cd2A 1_555 1_555
O10A Cd3A 1_555 1_555
C2 N1 1_555 1_555
C3 N2 1_555 1_555
C4 N2 1_555 1_555
C7 N3 1_555 1_555
C8 N3 1_555 1_555
C9 N4 1_555 1_555
C11 N5 1_555 1_555
C13 N5 1_555 1_555
C13 N6 1_555 1_555
C15 N7 1_555 1_555
C17 N7 1_555 1_555
C17 N8 1_555 1_555
C18 O1 1_555 1_555
C23 O9 1_555 1_555
C23 O10 1_555 1_555
C29 O4 1_555 1_555
C30 O7 1_555 1_555
C30 O8 1_555 1_555
O6 Cd3C 1_555 1_555
C2E N1E 1_555 1_555
C3E N2E 1_555 1_555
C4E N2E 1_555 1_555
C7E N3E 1_555 1_555
C8E N3E 1_555 1_555
C9E N4E 1_555 1_555
C11E N5E 1_555 1_555
C12E N6E 1_555 1_555
C13E N5E 1_555 1_555
C13E N6E 1_555 1_555
C15E N7E 1_555 1_555
C17E N7E 1_555 1_555
C17E N8E 1_555 1_555
C18A O1A 1_555 1_555
C18A O2A 1_555 1_555
C23A O9A 1_555 1_555
C23A O10A 1_555 1_555
C24C O5C 1_555 1_555
C24C O6C 1_555 1_555
C29C O4C 1_555 1_555
C30D O8D 1_555 1_555
C31D C32D 1_555 1_555

#END
