
#######################################################################
#
#                 Cambridge Crystallographic Data Centre
#                                CCDC 
#
#######################################################################
#
# If this CIF has been generated from an entry in the Cambridge 
# Structural Database, then it will include bibliographic, chemical, 
# crystal, experimental, refinement or atomic coordinate data resulting 
# from the CCDC's data processing and validation procedures.
#
#######################################################################

data_PUNFAG
_symmetry_cell_setting           monoclinic
_symmetry_space_group_name_H-M   'C 2'
_symmetry_Int_Tables_number      5
_space_group_name_Hall           'C 2y'
loop_
_symmetry_equiv_pos_site_id
_symmetry_equiv_pos_as_xyz
1 x,y,z
2 -x,y,-z
3 1/2+x,1/2+y,z
4 1/2-x,1/2+y,-z
_cell_length_a                   18.458(4)
_cell_length_b                   9.1264(13)
_cell_length_c                   12.181(2)
_cell_angle_alpha                90
_cell_angle_beta                 108.88(2)
_cell_angle_gamma                90
_cell_volume                     1941.55
loop_
_atom_site_label
_atom_site_type_symbol
_atom_site_fract_x
_atom_site_fract_y
_atom_site_fract_z
Cd1 Cd 0.5000 0.55931(7) 1.0000
Cd2 Cd 0.60219(3) 0.23618(5) 0.86428(4)
C1 C 0.5808(5) 0.4780(9) 0.6615(6)
H1 H 0.5379 0.4254 0.6183
C2 C 0.6718(4) 0.6423(9) 0.7114(6)
H2 H 0.7030 0.7220 0.7105
C3 C 0.6829(4) 0.5415(9) 0.7968(6)
H3 H 0.7233 0.5418 0.8663
C4 C 0.5727(4) 0.6797(9) 0.5133(6)
C5 C 0.5000 0.7742(11) 0.5000
C6 C 0.5109(5) 0.8814(9) 0.6039(6)
C7 C 0.4109(5) 0.8649(10) 0.7053(6)
H4 H 0.3746 0.9272 0.6570
C8 C 0.4052(4) 0.7930(9) 0.7972(6)
H5 H 0.3632 0.7958 0.8234
C9 C 0.5153(4) 0.7394(10) 0.7851(5)
H6 H 0.5642 0.7007 0.8004
C10 C 0.2301(4) 0.5167(9) 0.5978(6)
H7 H 0.1853 0.5657 0.5569
C11 C 0.2517(4) 0.5072(8) 0.7181(6)
C12 C 0.3201(4) 0.4362(7) 0.7801(5)
C13 C 0.3660(4) 0.3758(8) 0.7201(5)
C14 C 0.3422(4) 0.3846(9) 0.5979(6)
H8 H 0.3720 0.3435 0.5572
C15 C 0.2743(5) 0.4543(10) 0.5390(6)
H9 H 0.2584 0.4591 0.4584
C16 C 0.4451(4) 0.3107(8) 0.7773(6)
C17 C 0.3426(4) 0.4180(9) 0.9105(6)
C18 C 0.1972(4) 0.5730(8) 0.7752(7)
N1 N 0.6258(4) 0.4393(7) 0.7655(5)
N2 N 0.6047(3) 0.6029(7) 0.6257(5)
N3 N 0.4812(3) 0.8289(7) 0.6955(4)
N4 N 0.4714(3) 0.7136(7) 0.8476(5)
O1 O 0.2172(3) 0.5835(8) 0.8810(5)
O2 O 0.1334(3) 0.6138(7) 0.7121(6)
O3 O 0.3768(3) 0.5246(6) 0.9755(4)
O4 O 0.3269(3) 0.2988(6) 0.9467(4)
O5 O 0.4720(3) 0.2261(8) 0.7216(4)
O6 O 0.4833(3) 0.3488(6) 0.8774(4)
O7 O 0.5671(4) 0.0391(8) 0.9550(7)
H10 H 0.521(2) 0.053(14) 0.926(2)
H11 H 0.601(5) -0.025(10) 0.984(9)
Cd1_2 Cd 0.5000 0.55931(7) 0.0000
Cd2A Cd 0.39781(3) 0.23618(5) 0.13572(4)
Cd2B Cd 0.10219(3) 0.73618(5) 0.86428(4)
Cd2A_2 Cd 0.39781(3) 0.23618(5) 1.13572(4)
Cd2C Cd 0.89781(3) 0.73618(5) 1.13572(4)
C1A C 0.4192(5) 0.4780(9) 0.3385(6)
H1A H 0.4621 0.4254 0.3817
C2A C 0.3282(4) 0.6423(9) 0.2886(6)
H2A H 0.2970 0.7220 0.2895
C3A C 0.3171(4) 0.5415(9) 0.2032(6)
H3A H 0.2767 0.5418 0.1337
C4A C 0.4273(4) 0.6797(9) 0.4867(6)
C6A C 0.4891(5) 0.8814(9) 0.3961(6)
C7A C 0.5891(5) 0.8649(10) 0.2947(6)
H4A H 0.6254 0.9272 0.3430
C8A C 0.5948(4) 0.7930(9) 0.2028(6)
H5A H 0.6368 0.7958 0.1766
C9A C 0.4847(4) 0.7394(10) 0.2149(5)
H6A H 0.4358 0.7007 0.1996
C10A C 0.7699(4) 0.5167(9) 1.4022(6)
H7A H 0.8147 0.5657 1.4431
C11A C 0.7483(4) 0.5072(8) 1.2819(6)
C12A C 0.6799(4) 0.4362(7) 1.2199(5)
C13A C 0.6340(4) 0.3758(8) 1.2799(5)
C14A C 0.6578(4) 0.3846(9) 1.4021(6)
H8A H 0.6280 0.3435 1.4428
C15A C 0.7257(5) 0.4543(10) 1.4610(6)
H9A H 0.7416 0.4591 1.5416
C16A C 0.5549(4) 0.3107(8) 1.2227(6)
C17A C 0.6574(4) 0.4180(9) 1.0895(6)
C18A C 0.8028(4) 0.5730(8) 1.2248(7)
N1A N 0.3742(4) 0.4393(7) 0.2345(5)
N2A N 0.3953(3) 0.6029(7) 0.3743(5)
N3A N 0.5188(3) 0.8289(7) 0.3045(4)
N4A N 0.5286(3) 0.7136(7) 0.1524(5)
N4A_2 N 0.5286(3) 0.7136(7) 1.1524(5)
O1A O 0.7828(3) 0.5835(8) 1.1190(5)
O1B O 0.7172(3) 0.0835(8) 0.8810(5)
O1C O 0.2828(3) 0.0835(8) 0.1190(5)
O2A O 0.8666(3) 0.6138(7) 1.2879(6)
O2B O 0.6334(3) 0.1138(7) 0.7121(6)
O2C O 0.3666(3) 0.1138(7) 0.2879(6)
O3A O 0.6232(3) 0.5246(6) 1.0245(4)
O4A O 0.6731(3) 0.2988(6) 1.0533(4)
O4_2 O 0.3269(3) 0.2988(6) -0.0533(4)
O5A O 0.5280(3) 0.2261(8) 1.2784(4)
O5A_2 O 0.5280(3) 0.2261(8) 0.2784(4)
O6A O 0.5167(3) 0.3488(6) 1.1226(4)
O6A_2 O 0.5167(3) 0.3488(6) 0.1226(4)
O7A O 0.4329(4) 0.0391(8) 0.0450(7)
H10A H 0.479(2) 0.053(14) 0.074(2)
H11A H 0.399(5) -0.025(10) 0.016(9)
O8 O 0.5000 0.220(3) 0.5000
O9 O 0.1739(4) 0.3202(7) 0.9928(6)
H12 H 0.175(6) 0.232(5) 1.017(9)
H13 H 0.212(4) 0.340(11) 0.970(9)
loop_
_geom_bond_atom_site_label_1
_geom_bond_atom_site_label_2
_geom_bond_site_symmetry_1
_geom_bond_site_symmetry_2
Cd1 N4 1_555 1_555
Cd2 N1 1_555 1_555
C1 H1 1_555 1_555
C2 H2 1_555 1_555
C3 C2 1_555 1_555
H3 C3 1_555 1_555
C4 C5 1_555 1_555
C5 C6 1_555 1_555
C6 N3 1_555 1_555
C7 H4 1_555 1_555
C8 C7 1_555 1_555
H5 C8 1_555 1_555
C9 H6 1_555 1_555
C10 H7 1_555 1_555
C11 C10 1_555 1_555
C12 C11 1_555 1_555
C13 C12 1_555 1_555
C14 C13 1_555 1_555
H8 C14 1_555 1_555
C15 C10 1_555 1_555
H9 C15 1_555 1_555
C16 C13 1_555 1_555
C17 C12 1_555 1_555
C18 C11 1_555 1_555
N1 C1 1_555 1_555
N2 C1 1_555 1_555
N3 C7 1_555 1_555
N4 C8 1_555 1_555
O1 C18 1_555 1_555
O2 C18 1_555 1_555
O3 Cd1 1_555 1_555
O4 C17 1_555 1_555
O5 Cd2 1_555 1_555
O6 Cd1 1_555 1_555
O7 Cd2 1_555 1_555
H10 O7 1_555 1_555
H11 O7 1_555 1_555
O9 H12 1_555 1_555
H13 O9 1_555 1_555
Cd1_2 N4A 1_555 1_555
Cd2A N1A 1_555 1_555
Cd2B O1 1_555 1_555
Cd2A_2 O4 1_555 1_555
Cd2C O1A 1_555 1_555
C1A H1A 1_555 1_555
C2A H2A 1_555 1_555
C3A C2A 1_555 1_555
H3A C3A 1_555 1_555
C4A C5 1_555 1_555
C6A C5 1_555 1_555
C7A H4A 1_555 1_555
C8A C7A 1_555 1_555
H5A C8A 1_555 1_555
C9A H6A 1_555 1_555
C10A H7A 1_555 1_555
C11A C10A 1_555 1_555
C12A C11A 1_555 1_555
C13A C12A 1_555 1_555
C14A C13A 1_555 1_555
H8A C14A 1_555 1_555
C15A C10A 1_555 1_555
H9A C15A 1_555 1_555
C16A C13A 1_555 1_555
C17A C12A 1_555 1_555
C18A C11A 1_555 1_555
N1A C1A 1_555 1_555
N2A C1A 1_555 1_555
N3A C6A 1_555 1_555
N4A C8A 1_555 1_555
N4A_2 Cd1 1_555 1_555
O1A C18A 1_555 1_555
O1B Cd2 1_555 1_555
O1C Cd2A 1_555 1_555
O2A Cd2C 1_555 1_555
O2B Cd2 1_555 1_555
O2C Cd2A 1_555 1_555
O3A Cd1 1_555 1_555
O4A Cd2 1_555 1_555
O4_2 Cd2A 1_555 1_555
O5A Cd2A_2 1_555 1_555
O5A_2 Cd2A 1_555 1_555
O6A Cd1 1_555 1_555
O6A_2 Cd1_2 1_555 1_555
O7A Cd2A 1_555 1_555
H10A O7A 1_555 1_555
H11A O7A 1_555 1_555
Cd2 O6 1_555 1_555
C2 N2 1_555 1_555
C3 N1 1_555 1_555
C4 N2 1_555 1_555
C9 N3 1_555 1_555
C9 N4 1_555 1_555
C14 C15 1_555 1_555
C16 O5 1_555 1_555
C16 O6 1_555 1_555
C17 O3 1_555 1_555
O2 Cd2B 1_555 1_555
Cd2A O6A_2 1_555 1_555
Cd2A_2 O6A 1_555 1_555
C2A N2A 1_555 1_555
C3A N1A 1_555 1_555
C4A N2A 1_555 1_555
C7A N3A 1_555 1_555
C9A N3A 1_555 1_555
C9A N4A 1_555 1_555
C14A C15A 1_555 1_555
C16A O5A 1_555 1_555
C16A O6A 1_555 1_555
C17A O3A 1_555 1_555
C17A O4A 1_555 1_555
C18A O2A 1_555 1_555

#END
