
#######################################################################
#
#                 Cambridge Crystallographic Data Centre
#                                CCDC 
#
#######################################################################
#
# If this CIF has been generated from an entry in the Cambridge 
# Structural Database, then it will include bibliographic, chemical, 
# crystal, experimental, refinement or atomic coordinate data resulting 
# from the CCDC's data processing and validation procedures.
#
#######################################################################

data_PUNFEK
_symmetry_cell_setting           monoclinic
_symmetry_space_group_name_H-M   'C 2/c'
_symmetry_Int_Tables_number      15
_space_group_name_Hall           '-C 2yn'
loop_
_symmetry_equiv_pos_site_id
_symmetry_equiv_pos_as_xyz
1 x,y,z
2 -x,y,1/2-z
3 1/2+x,1/2+y,z
4 1/2-x,1/2+y,1/2-z
5 -x,-y,-z
6 x,-y,1/2+z
7 1/2-x,1/2-y,-z
8 1/2+x,1/2-y,1/2+z
_cell_length_a                   12.0208(5)
_cell_length_b                   17.8086(8)
_cell_length_c                   24.6623(12)
_cell_angle_alpha                90
_cell_angle_beta                 91.135(4)
_cell_angle_gamma                90
_cell_volume                     5278.51
loop_
_atom_site_label
_atom_site_type_symbol
_atom_site_fract_x
_atom_site_fract_y
_atom_site_fract_z
Cd1 Cd 0.818272(17) 0.100885(12) 0.170866(10)
C1 C 0.7950(2) 0.26414(15) 0.12114(14)
H1 H 0.7537 0.2747 0.1517
C2 C 0.8960(2) 0.20743(17) 0.06368(14)
H2 H 0.9388 0.1708 0.0471
C3 C 0.8732(2) 0.27585(16) 0.04245(14)
H3 H 0.8964 0.2945 0.0093
C4 C 0.7574(2) 0.38649(14) 0.07550(12)
H4 H 0.6857 0.3844 0.0928
H5 H 0.7437 0.3975 0.0374
C5 C 0.8243(2) 0.45176(15) 0.10057(12)
C6 C 0.8654(2) 0.43630(16) 0.15883(13)
H6 H 0.8912 0.3847 0.1606
H7 H 0.9292 0.4683 0.1662
C7 C 0.6947(2) 0.40666(18) 0.21670(13)
H8 H 0.6662 0.3646 0.1989
C8 C 0.6544(3) 0.43856(16) 0.26136(14)
H9 H 0.5925 0.4220 0.2800
C9 C 0.7969(3) 0.50281(17) 0.23884(15)
H10 H 0.8529 0.5388 0.2384
C10 C 0.7562(2) 0.52617(15) 0.09519(14)
H11 H 0.7859 0.5617 0.1215
H12 H 0.7685 0.5470 0.0595
C11 C 0.5768(2) 0.54810(14) 0.14391(13)
H13 H 0.6086 0.5699 0.1748
C12 C 0.4584(3) 0.50689(17) 0.08580(15)
H14 H 0.3913 0.4940 0.0689
C13 C 0.5592(2) 0.49451(17) 0.06501(14)
H15 H 0.5743 0.4729 0.0316
C14 C 0.9304(2) 0.46093(15) 0.06567(13)
H16 H 0.9700 0.4135 0.0657
H17 H 0.9070 0.4714 0.0286
C15 C 1.1057(2) 0.50919(16) 0.11093(13)
H18 H 1.1326 0.4625 0.1218
C16 C 1.0901(3) 0.62711(16) 0.09725(14)
H19 H 1.1056 0.6783 0.0974
C17 C 0.9992(2) 0.59592(17) 0.07481(12)
H20 H 0.9413 0.6208 0.0568
C18 C 0.7791(3) 0.19260(16) 0.25880(14)
C19 C 0.7664(2) 0.23357(16) 0.31180(13)
C20 C 0.8580(3) 0.24817(18) 0.34481(15)
H21 H 0.9281 0.2319 0.3346
C21 C 0.8460(3) 0.28668(18) 0.39271(15)
H22 H 0.9092 0.2986 0.4133
C22 C 0.7422(2) 0.30837(16) 0.41136(13)
C23 C 0.6480(2) 0.29086(15) 0.37955(13)
C24 C 0.6629(2) 0.25619(15) 0.32994(14)
H23 H 0.6008 0.2476 0.3077
C25 C 0.5282(3) 0.30521(16) 0.39391(15)
C26 C 0.7457(3) 0.35071(18) 0.46430(15)
N1 N 0.84739(19) 0.19988(13) 0.11278(11)
N2 N 0.80902(18) 0.31233(12) 0.07971(10)
N3 N 0.78565(19) 0.44753(12) 0.20207(11)
N4 N 0.7190(2) 0.49972(14) 0.27546(12)
N5 N 0.63561(18) 0.52009(13) 0.10283(10)
N6 N 0.46829(19) 0.54101(12) 0.13525(11)
N7 N 1.00780(18) 0.52003(12) 0.08353(10)
N8 N 1.15775(19) 0.57296(12) 0.12017(11)
O1 O 0.69795(17) 0.18661(11) 0.22655(9)
O2 O 0.87261(19) 0.16471(14) 0.24924(10)
O3 O 0.45830(17) 0.31106(13) 0.35727(10)
O4 O 0.50223(17) 0.30605(13) 0.44416(10)
O5 O 0.6620(2) 0.34848(14) 0.49559(10)
H24 H 0.6022 0.3297 0.4771
O6 O 0.82951(19) 0.38692(14) 0.47656(10)
Cd1C Cd 0.681728(17) 0.600885(12) 0.329134(10)
Cd1B Cd 0.318272(17) 0.600885(12) 0.170866(10)
Cd1B_2 Cd 1.318272(17) 0.600885(12) 0.170866(10)
N4C N 0.7810(2) -0.00028(14) 0.22454(12)
N6B N 0.96829(19) 0.04101(12) 0.13525(11)
N8B N 0.65775(19) 0.07296(12) 0.12017(11)
O7 O 0.5000 0.11634(19) 0.2500
H25 H 0.551(3) 0.144(2) 0.240(2)
H25A H 0.449(3) 0.144(2) 0.260(2)
O8 O 0.0000 0.3274(4) 0.2500
H26? H 0.013(11) 0.285(2) 0.263(4)
loop_
_geom_bond_atom_site_label_1
_geom_bond_atom_site_label_2
_geom_bond_site_symmetry_1
_geom_bond_site_symmetry_2
Cd1 N1 1_555 1_555
C1 H1 1_555 1_555
C2 H2 1_555 1_555
C3 C2 1_555 1_555
H3 C3 1_555 1_555
C4 H4 1_555 1_555
H5 C4 1_555 1_555
C5 C4 1_555 1_555
C6 C5 1_555 1_555
H6 C6 1_555 1_555
H7 C6 1_555 1_555
C7 H8 1_555 1_555
C8 C7 1_555 1_555
H9 C8 1_555 1_555
C9 H10 1_555 1_555
C10 C5 1_555 1_555
H11 C10 1_555 1_555
H12 C10 1_555 1_555
C11 H13 1_555 1_555
C12 H14 1_555 1_555
C13 C12 1_555 1_555
H15 C13 1_555 1_555
C14 C5 1_555 1_555
H16 C14 1_555 1_555
H17 C14 1_555 1_555
C15 H18 1_555 1_555
C16 H19 1_555 1_555
C17 C16 1_555 1_555
H20 C17 1_555 1_555
C18 C19 1_555 1_555
C19 C20 1_555 1_555
C20 H21 1_555 1_555
C21 C20 1_555 1_555
H22 C21 1_555 1_555
C22 C21 1_555 1_555
C23 C22 1_555 1_555
C24 C19 1_555 1_555
H23 C24 1_555 1_555
C25 C23 1_555 1_555
C26 C22 1_555 1_555
N1 C1 1_555 1_555
N2 C1 1_555 1_555
N3 C6 1_555 1_555
N4 C8 1_555 1_555
N5 C10 1_555 1_555
N6 C11 1_555 1_555
N7 C14 1_555 1_555
N8 C15 1_555 1_555
O1 Cd1 1_555 1_555
O2 Cd1 1_555 1_555
O3 C25 1_555 1_555
O4 C25 1_555 1_555
O5 C26 1_555 1_555
H24 O5 1_555 1_555
O6 C26 1_555 1_555
O7 H25 1_555 1_555
Cd1C N4 1_555 1_555
Cd1B N6 1_555 1_555
Cd1B_2 N8 1_555 1_555
N4C Cd1 1_555 1_555
N6B Cd1 1_555 1_555
N8B Cd1 1_555 1_555
H25A O7 1_555 1_555
C2 N1 1_555 1_555
C3 N2 1_555 1_555
C4 N2 1_555 1_555
C7 N3 1_555 1_555
C9 N3 1_555 1_555
C9 N4 1_555 1_555
C11 N5 1_555 1_555
C12 N6 1_555 1_555
C13 N5 1_555 1_555
C15 N7 1_555 1_555
C16 N8 1_555 1_555
C17 N7 1_555 1_555
C18 O1 1_555 1_555
C18 O2 1_555 1_555
C23 C24 1_555 1_555

#END
