
#######################################################################
#
#                 Cambridge Crystallographic Data Centre
#                                CCDC 
#
#######################################################################
#
# If this CIF has been generated from an entry in the Cambridge 
# Structural Database, then it will include bibliographic, chemical, 
# crystal, experimental, refinement or atomic coordinate data resulting 
# from the CCDC's data processing and validation procedures.
#
#######################################################################

data_PUNKOA
_symmetry_cell_setting           orthorhombic
_symmetry_space_group_name_H-M   'P 21 21 21'
_symmetry_Int_Tables_number      19
_space_group_name_Hall           'P 2ac 2ab'
loop_
_symmetry_equiv_pos_site_id
_symmetry_equiv_pos_as_xyz
1 x,y,z
2 1/2-x,-y,1/2+z
3 -x,1/2+y,1/2-z
4 1/2+x,1/2-y,-z
_cell_length_a                   12.8572(5)
_cell_length_b                   16.5936(6)
_cell_length_c                   18.0686(7)
_cell_angle_alpha                90
_cell_angle_beta                 90
_cell_angle_gamma                90
_cell_volume                     3854.89
loop_
_atom_site_label
_atom_site_type_symbol
_atom_site_fract_x
_atom_site_fract_y
_atom_site_fract_z
I1 I 0.11397(3) 0.87196(2) 0.98482(2)
I2 I 0.33066(3) 0.95651(2) 0.80987(2)
I3 I 0.31387(3) 0.68164(2) 0.86389(2)
I4 I -0.03692(3) 0.63479(2) 0.95470(3)
I5 I 0.26492(3) 0.61324(3) 1.10172(2)
Ag1 Ag 0.16718(4) 0.70141(3) 0.98812(3)
Ag2 Ag 0.32325(5) 0.84161(3) 0.92082(3)
Ag3 Ag -0.08929(4) 0.79846(3) 0.97731(4)
I3C I -0.18613(3) 0.81836(2) 1.13611(2)
I4C I 0.46308(3) 0.86521(2) 1.04530(3)
I5C I -0.23508(3) 0.88676(3) 0.89828(2)
Ag2C Ag -0.17675(5) 0.65839(3) 1.07918(3)
Ag3C Ag 0.41071(4) 0.70154(3) 1.02269(4)
Mn1 Mn -0.17466(6) 0.78253(4) 0.59199(4)
N1 N -0.1252(3) 0.8267(3) 0.4800(2)
N2 N -0.3097(3) 0.8642(2) 0.6012(2)
N3 N -0.2288(3) 0.6916(3) 0.5106(2)
N4 N -0.0667(4) 0.8621(3) 0.6557(2)
C1 C -0.1993(4) 0.7020(3) 0.4395(3)
C2 C -0.1436(4) 0.7769(3) 0.4221(3)
C3 C -0.3721(4) 0.8546(3) 0.6601(3)
C4 C -0.2801(5) 0.6246(4) 0.5289(3)
H1 H -0.3003 0.6181 0.5780
N5 N -0.2642(4) 0.7420(3) 0.6923(2)
C5 C -0.0477(5) 0.9224(4) 0.3977(4)
H2 H -0.0163 0.9724 0.3907
C6 C -0.1115(5) 0.7976(4) 0.3512(3)
H3 H -0.1215 0.7623 0.3119
C7 C 0.0082(4) 0.8225(5) 0.6935(3)
C8 C -0.0644(5) 0.8715(5) 0.3402(3)
H4 H -0.0439 0.8865 0.2928
N6 N -0.0351(4) 0.7070(3) 0.6225(3)
C9 C -0.3489(4) 0.7863(3) 0.7092(3)
C10 C -0.0168(6) 0.6308(4) 0.5988(4)
H5 H -0.0640 0.6063 0.5670
C11 C -0.3049(5) 0.5650(3) 0.4799(4)
H6 H -0.3406 0.5191 0.4949
C12 C 0.0295(5) 0.7407(4) 0.6702(3)
C13 C -0.3824(6) 0.7048(5) 0.8150(3)
H7 H -0.4222 0.6920 0.8563
C14 C -0.2397(6) 0.6813(4) 0.7366(3)
H8 H -0.1808 0.6510 0.7256
C15 C -0.4095(5) 0.9807(4) 0.5658(4)
H9 H -0.4207 1.0225 0.5324
C16 C -0.4099(5) 0.7687(4) 0.7705(3)
H10 H -0.4684 0.7995 0.7813
C17 C -0.2972(7) 0.6608(4) 0.7982(3)
H11 H -0.2776 0.6174 0.8277
C18 C -0.4711(6) 0.9710(4) 0.6247(5)
H12 H -0.5257 1.0066 0.6332
C19 C -0.0790(5) 0.8974(4) 0.4667(3)
H13 H -0.0673 0.9317 0.5065
C20 C -0.3290(5) 0.9271(3) 0.5560(3)
H14 H -0.2851 0.9347 0.5157
C21 C -0.2233(5) 0.6439(4) 0.3869(3)
H15 H -0.2043 0.6516 0.3378
C22 C -0.4532(5) 0.9079(4) 0.6728(4)
H16 H -0.4958 0.9010 0.7140
C23 C 0.1180(6) 0.6973(7) 0.6948(5)
H17 H 0.1632 0.7205 0.7288
C24 C 0.1370(6) 0.6216(7) 0.6688(6)
H18 H 0.1955 0.5933 0.6843
C25 C -0.0267(8) 0.9830(6) 0.7203(5)
H19 H -0.0367 1.0380 0.7268
C26 C -0.0831(6) 0.9408(5) 0.6682(4)
H20 H -0.1338 0.9676 0.6409
C27 C 0.0626(6) 0.8625(7) 0.7491(4)
H21 H 0.1114 0.8346 0.7772
C28 C 0.0455(7) 0.9411(8) 0.7628(5)
H22 H 0.0816 0.9672 0.8004
C29 C -0.2748(6) 0.5755(4) 0.4072(4)
H23 H -0.2896 0.5361 0.3721
C30 C 0.0705(8) 0.5889(6) 0.6208(5)
H24 H 0.0831 0.5376 0.6020
loop_
_geom_bond_atom_site_label_1
_geom_bond_atom_site_label_2
_geom_bond_site_symmetry_1
_geom_bond_site_symmetry_2
I1 Ag1 1_555 1_555
I2 Ag2 1_555 1_555
I3 Ag1 1_555 1_555
I4 Ag1 1_555 1_555
I5 Ag1 1_555 1_555
Ag2 I1 1_555 1_555
Ag3 I1 1_555 1_555
Mn1 N1 1_555 1_555
N1 C2 1_555 1_555
N2 Mn1 1_555 1_555
N3 Mn1 1_555 1_555
N4 Mn1 1_555 1_555
C1 N3 1_555 1_555
C2 C1 1_555 1_555
C3 N2 1_555 1_555
C4 N3 1_555 1_555
H1 C4 1_555 1_555
N5 Mn1 1_555 1_555
C5 H2 1_555 1_555
C6 C2 1_555 1_555
H3 C6 1_555 1_555
C7 N4 1_555 1_555
C8 C5 1_555 1_555
H4 C8 1_555 1_555
N6 Mn1 1_555 1_555
C9 C3 1_555 1_555
C10 N6 1_555 1_555
H5 C10 1_555 1_555
C11 C4 1_555 1_555
H6 C11 1_555 1_555
C12 C7 1_555 1_555
C13 H7 1_555 1_555
C14 N5 1_555 1_555
H8 C14 1_555 1_555
C15 H9 1_555 1_555
C16 C9 1_555 1_555
H10 C16 1_555 1_555
C17 C13 1_555 1_555
H11 C17 1_555 1_555
C18 C15 1_555 1_555
H12 C18 1_555 1_555
C19 N1 1_555 1_555
H13 C19 1_555 1_555
C20 N2 1_555 1_555
H14 C20 1_555 1_555
C21 C1 1_555 1_555
H15 C21 1_555 1_555
C22 C3 1_555 1_555
H16 C22 1_555 1_555
C23 C12 1_555 1_555
H17 C23 1_555 1_555
C24 C23 1_555 1_555
H18 C24 1_555 1_555
C25 H19 1_555 1_555
C26 N4 1_555 1_555
H20 C26 1_555 1_555
C27 C7 1_555 1_555
H21 C27 1_555 1_555
C28 C25 1_555 1_555
H22 C28 1_555 1_555
C29 C11 1_555 1_555
H23 C29 1_555 1_555
C30 C10 1_555 1_555
H24 C30 1_555 1_555
I3C Ag3 1_555 1_555
I4C Ag2 1_555 1_555
I5C Ag3 1_555 1_555
Ag2C I4 1_555 1_555
Ag3C I3 1_555 1_555
I3 Ag2 1_555 1_555
I4 Ag3 1_555 1_555
I5 Ag3C 1_555 1_555
N5 C9 1_555 1_555
C5 C19 1_555 1_555
C6 C8 1_555 1_555
N6 C12 1_555 1_555
C13 C16 1_555 1_555
C14 C17 1_555 1_555
C15 C20 1_555 1_555
C18 C22 1_555 1_555
C21 C29 1_555 1_555
C24 C30 1_555 1_555
C25 C26 1_555 1_555
C27 C28 1_555 1_555
I3C Ag2C 1_555 1_555
I4C Ag3C 1_555 1_555

#END
