
#######################################################################
#
#                 Cambridge Crystallographic Data Centre
#                                CCDC 
#
#######################################################################
#
# If this CIF has been generated from an entry in the Cambridge 
# Structural Database, then it will include bibliographic, chemical, 
# crystal, experimental, refinement or atomic coordinate data resulting 
# from the CCDC's data processing and validation procedures.
#
#######################################################################

data_PUNKIU
_symmetry_cell_setting           orthorhombic
_symmetry_space_group_name_H-M   'P 21 21 21'
_symmetry_Int_Tables_number      19
_space_group_name_Hall           'P 2ac 2ab'
loop_
_symmetry_equiv_pos_site_id
_symmetry_equiv_pos_as_xyz
1 x,y,z
2 1/2-x,-y,1/2+z
3 -x,1/2+y,1/2-z
4 1/2+x,1/2-y,-z
_cell_length_a                   12.8912(8)
_cell_length_b                   16.4601(10)
_cell_length_c                   17.9069(11)
_cell_angle_alpha                90
_cell_angle_beta                 90
_cell_angle_gamma                90
_cell_volume                     3799.67
loop_
_atom_site_label
_atom_site_type_symbol
_atom_site_fract_x
_atom_site_fract_y
_atom_site_fract_z
I1 I 0.61446(3) 0.12867(3) 0.98176(2)
I2 I 0.81473(4) 0.32326(3) 0.86261(2)
I3 I 0.83097(3) 0.04498(3) 0.80450(2)
I4 I 0.46244(3) 0.36614(3) 0.95876(3)
I5 I 0.76611(4) 0.38860(3) 1.10400(3)
Ag1 Ag 0.66847(5) 0.30024(4) 0.98890(3)
Ag2 Ag 0.82237(5) 0.16086(4) 0.91629(3)
Ag3 Ag 0.41032(5) 0.20053(4) 0.97689(4)
I2C I 0.31473(4) 0.17674(3) 1.13739(2)
I4C I 0.96244(3) 0.13386(3) 1.04124(3)
I5C I 0.26611(4) 0.11140(3) 0.89600(3)
Ag2C Ag 0.32237(5) 0.33914(4) 1.08371(3)
Ag3C Ag 0.91032(5) 0.29947(4) 1.02311(4)
Zn1 Zn 0.67373(5) -0.28637(4) 0.90573(3)
N1 N 0.6211(3) -0.3290(3) 1.0140(3)
N2 N 0.7269(4) -0.1959(3) 0.9816(3)
N3 N 0.8069(4) -0.3614(3) 0.9017(2)
C1 C 0.6971(4) -0.2036(4) 1.0540(3)
N4 N 0.5783(4) -0.3689(4) 0.8442(3)
C2 C 0.7785(5) -0.1279(4) 0.9606(4)
H1 H 0.7983 -0.1225 0.9109
C3 C 0.8702(4) -0.3515(4) 0.8427(3)
C4 C 0.8281(5) -0.4236(4) 0.9486(4)
H2 H 0.7849 -0.4313 0.9896
N5 N 0.7559(4) -0.2433(3) 0.8069(3)
C5 C 0.6419(4) -0.2785(4) 1.0719(3)
C6 C 0.6113(5) -0.2989(4) 1.1446(3)
H3 H 0.6229 -0.2631 1.1839
C7 C 0.8442(4) -0.2847(4) 0.7917(3)
C8 C 0.5460(5) -0.4253(5) 1.0988(4)
H4 H 0.5158 -0.4759 1.1065
C9 C 0.5637(5) -0.3728(5) 1.1573(4)
H5 H 0.5436 -0.3871 1.2054
C10 C 0.8027(5) -0.0670(4) 1.0095(4)
H6 H 0.8395 -0.0216 0.9937
C11 C 0.5139(6) -0.1398(5) 0.9005(4)
H7 H 0.5603 -0.1141 0.9325
N6 N 0.5348(4) -0.2151(4) 0.8788(3)
C12 C 0.7196(5) -0.1434(4) 1.1054(3)
H8 H 0.7000 -0.1491 1.1551
C13 C 0.4968(5) -0.3352(6) 0.8086(4)
C14 C 0.3831(6) -0.2113(7) 0.8034(5)
H9 H 0.3398 -0.2363 0.7687
C15 C 0.4709(5) -0.2514(5) 0.8310(4)
C16 C 0.8765(6) -0.2008(6) 0.6858(4)
H10 H 0.9177 -0.1860 0.6454
C17 C 0.7283(6) -0.1840(4) 0.7609(4)
H11 H 0.6667 -0.1564 0.7704
C18 C 0.7861(7) -0.1612(5) 0.6998(4)
H12 H 0.7637 -0.1195 0.6686
C19 C 0.9062(5) -0.2629(5) 0.7322(4)
H13 H 0.9681 -0.2903 0.7236
C20 C 0.5744(5) -0.4005(4) 1.0290(4)
H14 H 0.5605 -0.4351 0.9892
C21 C 0.7715(6) -0.0747(4) 1.0821(4)
H15 H 0.7853 -0.0333 1.1160
C22 C 0.9114(6) -0.4770(4) 0.9390(4)
H16 H 0.9234 -0.5190 0.9726
C23 C 0.5392(8) -0.4968(6) 0.7872(5)
H17 H 0.5507 -0.5524 0.7830
C24 C 0.5989(6) -0.4485(5) 0.8322(4)
H18 H 0.6563 -0.4715 0.8557
C25 C 0.9737(6) -0.4655(5) 0.8794(5)
H19 H 1.0304 -0.4994 0.8717
C26 C 0.9534(6) -0.4041(5) 0.8305(4)
H20 H 0.9953 -0.3972 0.7887
C27 C 0.4576(7) -0.4566(9) 0.7468(5)
H21 H 0.4181 -0.4855 0.7124
C28 C 0.4380(6) -0.3772(7) 0.7586(5)
H22 H 0.3847 -0.3514 0.7329
C29 C 0.3627(7) -0.1352(8) 0.8282(7)
H23 H 0.3041 -0.1082 0.8111
C30 C 0.4266(7) -0.0978(6) 0.8779(5)
H24 H 0.4121 -0.0460 0.8959
loop_
_geom_bond_atom_site_label_1
_geom_bond_atom_site_label_2
_geom_bond_site_symmetry_1
_geom_bond_site_symmetry_2
I1 Ag1 1_555 1_555
I2 Ag1 1_555 1_555
I3 Ag2 1_555 1_555
I4 Ag1 1_555 1_555
I5 Ag1 1_555 1_555
Ag2 I1 1_555 1_555
Ag3 I1 1_555 1_555
Zn1 N1 1_555 1_555
N1 C5 1_555 1_555
N2 Zn1 1_555 1_555
N3 Zn1 1_555 1_555
C1 N2 1_555 1_555
N4 Zn1 1_555 1_555
C2 N2 1_555 1_555
H1 C2 1_555 1_555
C3 N3 1_555 1_555
C4 N3 1_555 1_555
H2 C4 1_555 1_555
N5 Zn1 1_555 1_555
C5 C1 1_555 1_555
C6 C5 1_555 1_555
H3 C6 1_555 1_555
C7 C3 1_555 1_555
C8 H4 1_555 1_555
C9 C6 1_555 1_555
H5 C9 1_555 1_555
C10 C2 1_555 1_555
H6 C10 1_555 1_555
C11 H7 1_555 1_555
N6 Zn1 1_555 1_555
C12 C1 1_555 1_555
H8 C12 1_555 1_555
C13 N4 1_555 1_555
C14 H9 1_555 1_555
C15 N6 1_555 1_555
C16 H10 1_555 1_555
C17 N5 1_555 1_555
H11 C17 1_555 1_555
C18 C16 1_555 1_555
H12 C18 1_555 1_555
C19 C7 1_555 1_555
H13 C19 1_555 1_555
C20 N1 1_555 1_555
H14 C20 1_555 1_555
C21 C10 1_555 1_555
H15 C21 1_555 1_555
C22 C4 1_555 1_555
H16 C22 1_555 1_555
C23 H17 1_555 1_555
C24 N4 1_555 1_555
H18 C24 1_555 1_555
C25 C22 1_555 1_555
H19 C25 1_555 1_555
C26 C3 1_555 1_555
H20 C26 1_555 1_555
C27 C23 1_555 1_555
H21 C27 1_555 1_555
C28 C13 1_555 1_555
H22 C28 1_555 1_555
C29 C14 1_555 1_555
H23 C29 1_555 1_555
C30 C11 1_555 1_555
H24 C30 1_555 1_555
I2C Ag3 1_555 1_555
I4C Ag2 1_555 1_555
I5C Ag3 1_555 1_555
Ag2C I4 1_555 1_555
Ag3C I2 1_555 1_555
I2 Ag2 1_555 1_555
I4 Ag3 1_555 1_555
I5 Ag3C 1_555 1_555
N5 C7 1_555 1_555
C8 C9 1_555 1_555
C8 C20 1_555 1_555
C11 N6 1_555 1_555
C12 C21 1_555 1_555
C13 C15 1_555 1_555
C14 C15 1_555 1_555
C16 C19 1_555 1_555
C17 C18 1_555 1_555
C23 C24 1_555 1_555
C25 C26 1_555 1_555
C27 C28 1_555 1_555
C29 C30 1_555 1_555
I2C Ag2C 1_555 1_555
I4C Ag3C 1_555 1_555

#END
