
#######################################################################
#
#                 Cambridge Crystallographic Data Centre
#                                CCDC 
#
#######################################################################
#
# If this CIF has been generated from an entry in the Cambridge 
# Structural Database, then it will include bibliographic, chemical, 
# crystal, experimental, refinement or atomic coordinate data resulting 
# from the CCDC's data processing and validation procedures.
#
#######################################################################

data_PUNKUG
_symmetry_cell_setting           orthorhombic
_symmetry_space_group_name_H-M   'P 21 21 21'
_symmetry_Int_Tables_number      19
_space_group_name_Hall           'P 2ac 2ab'
loop_
_symmetry_equiv_pos_site_id
_symmetry_equiv_pos_as_xyz
1 x,y,z
2 1/2-x,-y,1/2+z
3 -x,1/2+y,1/2-z
4 1/2+x,1/2-y,-z
_cell_length_a                   12.8965(7)
_cell_length_b                   16.2412(9)
_cell_length_c                   17.6013(10)
_cell_angle_alpha                90
_cell_angle_beta                 90
_cell_angle_gamma                90
_cell_volume                     3686.67
loop_
_atom_site_label
_atom_site_type_symbol
_atom_site_fract_x
_atom_site_fract_y
_atom_site_fract_z
I1 I 0.03754(3) 0.86724(2) 0.03668(2)
Ag1 Ag 0.17752(5) 0.83678(3) -0.09056(3)
Ag2 Ag -0.17101(4) 0.80126(3) 0.01051(3)
Ag3 Ag 0.08990(4) 0.69856(3) 0.02198(4)
I2 I 0.17970(3) 0.67054(2) -0.140349(19)
I3 I -0.26758(3) 0.89163(2) -0.10684(2)
I4 I -0.11589(3) 0.62835(2) 0.02293(2)
I5 I -0.33328(3) 0.54653(2) 0.205241(19)
I2C I -0.32030(3) 0.82946(2) 0.140349(19)
I3C I 0.23242(3) 0.60837(2) 0.10684(2)
Ag3C Ag -0.41010(4) 0.80144(3) -0.02198(4)
Ag1C Ag -0.32248(5) 0.66322(3) 0.09056(3)
I1C I -0.46246(3) 0.63276(2) -0.03668(2)
Fe1 Fe 0.16848(5) 0.70892(4) -0.59874(3)
N1 N 0.1172(3) 0.6684(2) -0.4997(2)
N2 N 0.2971(3) 0.6434(2) -0.5939(2)
N3 N 0.2232(3) 0.7976(2) -0.5333(2)
C1 C 0.3204(4) 0.5829(3) -0.5447(3)
H1 H 0.2771 0.5745 -0.5032
N4 N 0.0959(3) 0.6242(3) -0.6580(2)
C2 C 0.1949(3) 0.7931(3) -0.4594(2)
C3 C 0.2756(4) 0.8655(3) -0.5557(3)
H2 H 0.2966 0.8691 -0.6062
C4 C 0.1090(4) 0.6972(3) -0.3659(3)
H3 H 0.1213 0.7333 -0.3259
C5 C 0.3642(4) 0.6562(3) -0.6527(3)
N5 N 0.2372(3) 0.7513(2) -0.6927(2)
C6 C 0.1384(3) 0.7184(3) -0.4393(2)
N6 N 0.0390(3) 0.7709(3) -0.6202(2)
C7 C 0.3330(4) 0.7204(3) -0.7051(2)
C8 C 0.0139(4) 0.8467(3) -0.5976(3)
H4 H 0.0573 0.8734 -0.5634
C9 C 0.2187(4) 0.8553(3) -0.4082(3)
H5 H 0.1999 0.8501 -0.3574
C10 C 0.0699(4) 0.5968(3) -0.4857(3)
H6 H 0.0551 0.5624 -0.5265
C11 C 0.2005(4) 0.8080(3) -0.7412(3)
H7 H 0.1336 0.8280 -0.7343
C12 C 0.1253(5) 0.5450(3) -0.6680(3)
H8 H 0.1884 0.5277 -0.6480
C13 C 0.0049(4) 0.6479(4) -0.6887(3)
C14 C -0.0245(4) 0.7320(3) -0.6683(3)
C15 C 0.2700(4) 0.9243(3) -0.4326(3)
H9 H 0.2849 0.9670 -0.3992
C16 C 0.0614(4) 0.6219(4) -0.3526(3)
H10 H 0.0431 0.6063 -0.3035
C17 C 0.2991(4) 0.9288(3) -0.5082(3)
H11 H 0.3345 0.9747 -0.5262
C18 C 0.2595(5) 0.8378(4) -0.8016(3)
H12 H 0.2321 0.8766 -0.8347
C19 C 0.0416(4) 0.5709(3) -0.4131(3)
H13 H 0.0100 0.5200 -0.4058
C20 C 0.4062(4) 0.5326(3) -0.5534(3)
H14 H 0.4185 0.4904 -0.5188
C21 C 0.3948(4) 0.7496(4) -0.7639(3)
H15 H 0.4612 0.7285 -0.7710
C22 C 0.4721(4) 0.5447(4) -0.6121(4)
H16 H 0.5300 0.5113 -0.6188
C23 C -0.1152(4) 0.7700(5) -0.6957(4)
H17 H -0.1586 0.7427 -0.7296
C24 C -0.1382(5) 0.8484(5) -0.6713(4)
H18 H -0.1981 0.8746 -0.6880
C25 C -0.0728(5) 0.8872(4) -0.6226(3)
H19 H -0.0867 0.9406 -0.6064
C26 C 0.3576(5) 0.8093(4) -0.8114(3)
H20 H 0.3990 0.8302 -0.8500
C27 C 0.0650(5) 0.4889(4) -0.7068(4)
H21 H 0.0846 0.4338 -0.7095
C28 C -0.0250(6) 0.5156(5) -0.7417(4)
H22 H -0.0649 0.4796 -0.7706
C29 C 0.4507(4) 0.6083(4) -0.6618(3)
H23 H 0.4956 0.6187 -0.7020
C30 C -0.0542(5) 0.5959(5) -0.7327(4)
H24 H -0.1139 0.6153 -0.7562
loop_
_geom_bond_atom_site_label_1
_geom_bond_atom_site_label_2
_geom_bond_site_symmetry_1
_geom_bond_site_symmetry_2
I1 Ag1 1_555 1_555
Ag1 I2 1_555 1_555
Ag2 I1 1_555 1_555
Ag3 I1 1_555 1_555
I2 Ag3 1_555 1_555
I3 Ag2 1_555 1_555
I4 Ag2 1_555 1_555
I5 Ag1C 1_555 1_555
Fe1 N1 1_555 1_555
N1 C6 1_555 1_555
N2 Fe1 1_555 1_555
N3 Fe1 1_555 1_555
C1 N2 1_555 1_555
H1 C1 1_555 1_555
N4 Fe1 1_555 1_555
C2 N3 1_555 1_555
C3 N3 1_555 1_555
H2 C3 1_555 1_555
C4 H3 1_555 1_555
C5 N2 1_555 1_555
N5 Fe1 1_555 1_555
C6 C2 1_555 1_555
N6 Fe1 1_555 1_555
C7 C5 1_555 1_555
C8 N6 1_555 1_555
H4 C8 1_555 1_555
C9 C2 1_555 1_555
H5 C9 1_555 1_555
C10 N1 1_555 1_555
H6 C10 1_555 1_555
C11 N5 1_555 1_555
H7 C11 1_555 1_555
C12 N4 1_555 1_555
H8 C12 1_555 1_555
C13 N4 1_555 1_555
C14 N6 1_555 1_555
C15 C9 1_555 1_555
H9 C15 1_555 1_555
C16 C4 1_555 1_555
H10 C16 1_555 1_555
C17 C3 1_555 1_555
H11 C17 1_555 1_555
C18 C11 1_555 1_555
H12 C18 1_555 1_555
C19 C10 1_555 1_555
H13 C19 1_555 1_555
C20 C1 1_555 1_555
H14 C20 1_555 1_555
C21 C7 1_555 1_555
H15 C21 1_555 1_555
C22 C20 1_555 1_555
H16 C22 1_555 1_555
C23 C14 1_555 1_555
H17 C23 1_555 1_555
C24 C23 1_555 1_555
H18 C24 1_555 1_555
C25 C8 1_555 1_555
H19 C25 1_555 1_555
C26 C18 1_555 1_555
H20 C26 1_555 1_555
C27 C12 1_555 1_555
H21 C27 1_555 1_555
C28 C27 1_555 1_555
H22 C28 1_555 1_555
C29 C5 1_555 1_555
H23 C29 1_555 1_555
C30 C13 1_555 1_555
H24 C30 1_555 1_555
I2C Ag2 1_555 1_555
I3C Ag3 1_555 1_555
Ag3C I3 1_555 1_555
Ag1C I4 1_555 1_555
I1C Ag3C 1_555 1_555
Ag3 I4 1_555 1_555
C4 C6 1_555 1_555
N5 C7 1_555 1_555
C13 C14 1_555 1_555
C15 C17 1_555 1_555
C16 C19 1_555 1_555
C21 C26 1_555 1_555
C22 C29 1_555 1_555
C24 C25 1_555 1_555
C28 C30 1_555 1_555
I2C Ag3C 1_555 1_555
I2C Ag1C 1_555 1_555
Ag1C I1C 1_555 1_555

#END
