
#######################################################################
#
#                 Cambridge Crystallographic Data Centre
#                                CCDC 
#
#######################################################################
#
# If this CIF has been generated from an entry in the Cambridge 
# Structural Database, then it will include bibliographic, chemical, 
# crystal, experimental, refinement or atomic coordinate data resulting 
# from the CCDC's data processing and validation procedures.
#
#######################################################################

data_PUNLER
_symmetry_cell_setting           orthorhombic
_symmetry_space_group_name_H-M   'P 21 21 21'
_symmetry_Int_Tables_number      19
_space_group_name_Hall           'P 2ac 2ab'
loop_
_symmetry_equiv_pos_site_id
_symmetry_equiv_pos_as_xyz
1 x,y,z
2 1/2-x,-y,1/2+z
3 -x,1/2+y,1/2-z
4 1/2+x,1/2-y,-z
_cell_length_a                   12.9200(7)
_cell_length_b                   16.3786(9)
_cell_length_c                   17.7812(10)
_cell_angle_alpha                90
_cell_angle_beta                 90
_cell_angle_gamma                90
_cell_volume                     3762.71
loop_
_atom_site_label
_atom_site_type_symbol
_atom_site_fract_x
_atom_site_fract_y
_atom_site_fract_z
I1 I 0.03751(3) 0.63326(2) 0.03848(3)
Ag1 Ag 0.17811(5) 0.66201(3) -0.08706(3)
Ag2 Ag -0.16986(4) 0.69897(3) 0.01039(3)
Ag3 Ag 0.08989(4) 0.80023(3) 0.02260(4)
I2 I 0.18325(3) 0.82638(2) -0.13847(2)
I3 I -0.26746(3) 0.60994(2) -0.10566(2)
I4 I -0.11523(3) 0.87099(2) 0.02031(2)
I5 I -0.33178(3) 0.95466(2) 0.19989(2)
I2C I -0.31675(3) 0.67362(2) 0.13847(2)
I3C I 0.23254(3) 0.89006(2) 0.10566(2)
Ag3C Ag -0.41011(4) 0.69977(3) -0.02260(4)
Ag1C Ag -0.32189(5) 0.83799(3) 0.08706(3)
I1C I -0.46249(3) 0.86674(2) -0.03848(3)
Ni1 Ni 0.17107(5) 0.78890(4) -0.59645(3)
N1 N 0.3045(3) 0.8596(2) -0.5955(2)
N2 N 0.2273(3) 0.6987(2) -0.5252(2)
N3 N 0.1186(3) 0.8302(3) -0.4916(2)
C1 C 0.1963(4) 0.7049(3) -0.4523(3)
N4 N 0.0870(4) 0.8734(3) -0.6580(2)
C2 C 0.1112(5) 0.8004(4) -0.3602(3)
H1 H 0.1232 0.7644 -0.3208
C3 C 0.3263(5) 0.9206(3) -0.5476(3)
H2 H 0.2833 0.9283 -0.5063
C4 C 0.1404(4) 0.7802(3) -0.4334(3)
C5 C 0.2783(5) 0.6313(3) -0.5462(3)
H3 H 0.2993 0.6270 -0.5961
C6 C 0.3394(4) 0.7824(3) -0.7067(3)
N5 N 0.2469(4) 0.7468(3) -0.6938(2)
C7 C 0.0448(5) 0.9268(4) -0.4061(4)
H4 H 0.0141 0.9775 -0.3980
C8 C 0.3012(5) 0.5686(3) -0.4985(4)
H5 H 0.3369 0.5229 -0.5154
C9 C 0.0641(5) 0.8751(5) -0.3471(3)
H6 H 0.0457 0.8900 -0.2984
N6 N 0.0358(4) 0.7231(3) -0.6210(2)
C10 C 0.3672(4) 0.8487(3) -0.6552(3)
C11 C 0.0002(4) 0.8448(5) -0.6897(3)
C12 C 0.2184(5) 0.6437(4) -0.4006(3)
H7 H 0.1986 0.6493 -0.3506
C13 C 0.0120(5) 0.6471(4) -0.5986(3)
H8 H 0.0553 0.6212 -0.5643
C14 C 0.2738(6) 0.6623(4) -0.8015(3)
H9 H 0.2490 0.6221 -0.8338
C15 C 0.2699(5) 0.5747(4) -0.4244(4)
H10 H 0.2836 0.5326 -0.3908
C16 C 0.2148(5) 0.6887(4) -0.7409(3)
H11 H 0.1503 0.6649 -0.7328
C17 C 0.4019(5) 0.7577(4) -0.7655(3)
H12 H 0.4659 0.7824 -0.7731
C18 C -0.1152(5) 0.7215(6) -0.6972(5)
H13 H -0.1580 0.7475 -0.7318
C19 C 0.0717(4) 0.9021(3) -0.4775(3)
H14 H 0.0569 0.9365 -0.5177
C20 C 0.1108(6) 0.9531(4) -0.6684(4)
H15 H 0.1711 0.9731 -0.6465
C21 C -0.0274(5) 0.7607(4) -0.6691(3)
C22 C -0.0738(6) 0.6059(5) -0.6242(4)
H16 H -0.0872 0.5529 -0.6083
C23 C -0.1375(6) 0.6431(6) -0.6723(5)
H17 H -0.1968 0.6165 -0.6891
C24 C 0.4734(5) 0.9626(4) -0.6171(4)
H18 H 0.5296 0.9971 -0.6248
C25 C 0.0510(7) 1.0060(5) -0.7093(4)
H19 H 0.0671 1.0612 -0.7123
C26 C 0.4100(5) 0.9725(4) -0.5571(4)
H20 H 0.4225 1.0139 -0.5225
C27 C 0.3692(6) 0.6965(5) -0.8129(3)
H21 H 0.4113 0.6786 -0.8520
C28 C 0.4518(5) 0.8992(4) -0.6667(4)
H22 H 0.4946 0.8907 -0.7080
C29 C -0.0359(8) 0.9734(7) -0.7467(5)
H23 H -0.0763 1.0061 -0.7777
C30 C -0.0593(6) 0.8938(7) -0.7365(5)
H24 H -0.1161 0.8715 -0.7611
loop_
_geom_bond_atom_site_label_1
_geom_bond_atom_site_label_2
_geom_bond_site_symmetry_1
_geom_bond_site_symmetry_2
I1 Ag1 1_555 1_555
Ag1 I2 1_555 1_555
Ag2 I1 1_555 1_555
Ag3 I1 1_555 1_555
I2 Ag3 1_555 1_555
I3 Ag2 1_555 1_555
I4 Ag2 1_555 1_555
I5 Ag1C 1_555 1_555
Ni1 N1 1_555 1_555
N1 C3 1_555 1_555
N2 Ni1 1_555 1_555
N3 Ni1 1_555 1_555
C1 N2 1_555 1_555
N4 Ni1 1_555 1_555
C2 H1 1_555 1_555
C3 H2 1_555 1_555
C4 N3 1_555 1_555
C5 N2 1_555 1_555
H3 C5 1_555 1_555
C6 N5 1_555 1_555
N5 Ni1 1_555 1_555
C7 H4 1_555 1_555
C8 C5 1_555 1_555
H5 C8 1_555 1_555
C9 C2 1_555 1_555
H6 C9 1_555 1_555
N6 Ni1 1_555 1_555
C10 N1 1_555 1_555
C11 N4 1_555 1_555
C12 C1 1_555 1_555
H7 C12 1_555 1_555
C13 N6 1_555 1_555
H8 C13 1_555 1_555
C14 H9 1_555 1_555
C15 C8 1_555 1_555
H10 C15 1_555 1_555
C16 N5 1_555 1_555
H11 C16 1_555 1_555
C17 C6 1_555 1_555
H12 C17 1_555 1_555
C18 H13 1_555 1_555
C19 N3 1_555 1_555
H14 C19 1_555 1_555
C20 N4 1_555 1_555
H15 C20 1_555 1_555
C21 N6 1_555 1_555
C22 C13 1_555 1_555
H16 C22 1_555 1_555
C23 C18 1_555 1_555
H17 C23 1_555 1_555
C24 H18 1_555 1_555
C25 C20 1_555 1_555
H19 C25 1_555 1_555
C26 C3 1_555 1_555
H20 C26 1_555 1_555
C27 C14 1_555 1_555
H21 C27 1_555 1_555
C28 C10 1_555 1_555
H22 C28 1_555 1_555
C29 C25 1_555 1_555
H23 C29 1_555 1_555
C30 C11 1_555 1_555
H24 C30 1_555 1_555
I2C Ag2 1_555 1_555
I3C Ag3 1_555 1_555
Ag3C I3 1_555 1_555
Ag1C I4 1_555 1_555
I1C Ag3C 1_555 1_555
Ag3 I4 1_555 1_555
C1 C4 1_555 1_555
C2 C4 1_555 1_555
C6 C10 1_555 1_555
C7 C9 1_555 1_555
C7 C19 1_555 1_555
C11 C21 1_555 1_555
C12 C15 1_555 1_555
C14 C16 1_555 1_555
C17 C27 1_555 1_555
C18 C21 1_555 1_555
C22 C23 1_555 1_555
C24 C26 1_555 1_555
C24 C28 1_555 1_555
C29 C30 1_555 1_555
I2C Ag3C 1_555 1_555
I2C Ag1C 1_555 1_555
Ag1C I1C 1_555 1_555

#END
