
#######################################################################
#
#                 Cambridge Crystallographic Data Centre
#                                CCDC 
#
#######################################################################
#
# If this CIF has been generated from an entry in the Cambridge 
# Structural Database, then it will include bibliographic, chemical, 
# crystal, experimental, refinement or atomic coordinate data resulting 
# from the CCDC's data processing and validation procedures.
#
#######################################################################

data_PUNLAN
_symmetry_cell_setting           orthorhombic
_symmetry_space_group_name_H-M   'P 21 21 21'
_symmetry_Int_Tables_number      19
_space_group_name_Hall           'P 2ac 2ab'
loop_
_symmetry_equiv_pos_site_id
_symmetry_equiv_pos_as_xyz
1 x,y,z
2 1/2-x,-y,1/2+z
3 -x,1/2+y,1/2-z
4 1/2+x,1/2-y,-z
_cell_length_a                   12.9149(19)
_cell_length_b                   16.413(3)
_cell_length_c                   17.864(3)
_cell_angle_alpha                90
_cell_angle_beta                 90
_cell_angle_gamma                90
_cell_volume                     3786.67
loop_
_atom_site_label
_atom_site_type_symbol
_atom_site_fract_x
_atom_site_fract_y
_atom_site_fract_z
Ag1 Ag 0.32217(5) 0.16128(3) 0.91479(3)
I1 I 0.46267(3) 0.13348(2) 1.03986(3)
I2 I 0.31588(3) 0.32471(2) 0.862205(19)
Ag2 Ag 0.66943(4) 0.19948(3) 1.01079(3)
Ag3 Ag 0.41039(4) 0.29991(3) 1.02262(4)
I3 I 0.76706(3) 0.11074(2) 0.89529(2)
I4 I 0.61505(3) 0.37121(2) 1.01920(2)
I5 I 0.83150(3) 0.45524(2) 1.197397(19)
I2C I 0.81588(3) 0.17529(2) 1.137795(19)
I3C I 0.26706(3) 0.38926(2) 1.10471(2)
Ag3C Ag 0.91039(4) 0.20009(3) 0.97738(4)
Ag1C Ag 0.82217(5) 0.33872(3) 1.08521(3)
I1C I 0.96267(3) 0.36652(2) 0.96014(3)
Co1 Co 0.82789(5) 0.21256(3) 0.59549(3)
N1 N 0.8799(3) 0.1702(2) 0.4886(2)
N2 N 0.6931(3) 0.1393(2) 0.5972(2)
N3 N 0.7722(3) 0.3035(2) 0.5215(2)
C1 C 0.8031(4) 0.2962(3) 0.4490(2)
C2 C 0.6727(5) 0.0782(3) 0.5490(3)
H1 H 0.7157 0.0710 0.5077
C3 C 0.6589(4) 0.2165(3) 0.7076(3)
C4 C 0.7210(5) 0.3704(3) 0.5424(3)
H2 H 0.6998 0.3748 0.5920
N4 N 0.9181(4) 0.1290(3) 0.6577(2)
C5 C 0.8591(4) 0.2200(3) 0.4307(2)
C6 C 0.6323(4) 0.1497(3) 0.6567(3)
N5 N 0.7483(4) 0.2539(2) 0.6942(2)
C7 C 0.9266(4) 0.0988(3) 0.4747(3)
H3 H 0.9406 0.0642 0.5147
N6 N 0.9650(4) 0.2802(3) 0.6215(2)
C8 C 0.9879(6) 0.3561(4) 0.5993(3)
H4 H 0.9430 0.3816 0.5660
C9 C 0.8960(6) 0.0496(4) 0.6683(4)
H5 H 0.8374 0.0282 0.6453
C10 C 0.9551(5) 0.0744(3) 0.4032(4)
H6 H 0.9861 0.0241 0.3949
C11 C 0.6981(5) 0.4327(3) 0.4944(3)
H7 H 0.6627 0.4786 0.5109
C12 C 0.9360(5) 0.1265(4) 0.3454(3)
H8 H 0.9551 0.1119 0.2970
C13 C 0.8892(5) 0.1997(4) 0.3579(3)
H9 H 0.8775 0.2356 0.3185
C14 C 0.7795(5) 0.3565(3) 0.3976(3)
H10 H 0.7979 0.3501 0.3477
C15 C 0.7290(5) 0.4255(3) 0.4203(3)
H11 H 0.7156 0.4672 0.3864
C16 C 0.5961(5) 0.2399(4) 0.7674(3)
H12 H 0.5332 0.2137 0.7754
C17 C 0.7201(6) 0.3378(4) 0.8021(3)
H13 H 0.7439 0.3784 0.8341
C18 C 0.5895(5) 0.0257(4) 0.5589(4)
H14 H 0.5773 -0.0159 0.5247
C19 C 0.9557(8) -0.0011(5) 0.7114(5)
H15 H 0.9419 -0.0567 0.7142
C20 C 0.6264(6) 0.3009(5) 0.8140(3)
H16 H 0.5841 0.3173 0.8534
C21 C 1.0030(4) 0.1604(4) 0.6913(3)
C22 C 0.5267(6) 0.0353(4) 0.6182(5)
H17 H 0.4705 0.0008 0.6256
C23 C 0.7791(5) 0.3129(4) 0.7406(3)
H18 H 0.8423 0.3383 0.7318
C24 C 1.1157(5) 0.2852(7) 0.6971(5)
H19 H 1.1584 0.2605 0.7323
C25 C 1.0289(4) 0.2443(4) 0.6703(3)
C26 C 1.0741(7) 0.3987(5) 0.6228(5)
H20 H 1.0872 0.4511 0.6054
C27 C 1.1383(6) 0.3626(6) 0.6714(6)
H21 H 1.1976 0.3894 0.6877
C28 C 0.5480(5) 0.0983(4) 0.6683(4)
H22 H 0.5056 0.1061 0.7098
C29 C 1.0614(6) 0.1145(7) 0.7412(5)
H23 H 1.1156 0.1383 0.7676
C30 C 1.0383(7) 0.0338(7) 0.7511(5)
H24 H 1.0772 0.0023 0.7840
loop_
_geom_bond_atom_site_label_1
_geom_bond_atom_site_label_2
_geom_bond_site_symmetry_1
_geom_bond_site_symmetry_2
Ag1 I1 1_555 1_555
I1 Ag2 1_555 1_555
I2 Ag1 1_555 1_555
Ag2 I3 1_555 1_555
Ag3 I1 1_555 1_555
I3 Ag3C 1_555 1_555
I4 Ag2 1_555 1_555
I5 Ag1C 1_555 1_555
Co1 N1 1_555 1_555
N1 C5 1_555 1_555
N2 Co1 1_555 1_555
N3 Co1 1_555 1_555
C1 N3 1_555 1_555
C2 N2 1_555 1_555
H1 C2 1_555 1_555
C3 C6 1_555 1_555
C4 N3 1_555 1_555
H2 C4 1_555 1_555
N4 Co1 1_555 1_555
C5 C1 1_555 1_555
C6 N2 1_555 1_555
N5 Co1 1_555 1_555
C7 N1 1_555 1_555
H3 C7 1_555 1_555
N6 Co1 1_555 1_555
C8 N6 1_555 1_555
H4 C8 1_555 1_555
C9 N4 1_555 1_555
H5 C9 1_555 1_555
C10 C7 1_555 1_555
H6 C10 1_555 1_555
C11 C4 1_555 1_555
H7 C11 1_555 1_555
C12 C10 1_555 1_555
H8 C12 1_555 1_555
C13 C5 1_555 1_555
H9 C13 1_555 1_555
C14 C1 1_555 1_555
H10 C14 1_555 1_555
C15 C11 1_555 1_555
H11 C15 1_555 1_555
C16 C3 1_555 1_555
H12 C16 1_555 1_555
C17 H13 1_555 1_555
C18 C2 1_555 1_555
H14 C18 1_555 1_555
C19 C9 1_555 1_555
H15 C19 1_555 1_555
C20 C16 1_555 1_555
H16 C20 1_555 1_555
C21 N4 1_555 1_555
C22 C18 1_555 1_555
H17 C22 1_555 1_555
C23 N5 1_555 1_555
H18 C23 1_555 1_555
C24 H19 1_555 1_555
C25 N6 1_555 1_555
C26 C8 1_555 1_555
H20 C26 1_555 1_555
C27 C24 1_555 1_555
H21 C27 1_555 1_555
C28 C6 1_555 1_555
H22 C28 1_555 1_555
C29 C21 1_555 1_555
H23 C29 1_555 1_555
C30 C19 1_555 1_555
H24 C30 1_555 1_555
I2C Ag2 1_555 1_555
I3C Ag3 1_555 1_555
Ag3C I2C 1_555 1_555
Ag1C I4 1_555 1_555
I1C Ag3C 1_555 1_555
I2 Ag3 1_555 1_555
Ag3 I4 1_555 1_555
C3 N5 1_555 1_555
C12 C13 1_555 1_555
C14 C15 1_555 1_555
C17 C20 1_555 1_555
C17 C23 1_555 1_555
C21 C25 1_555 1_555
C22 C28 1_555 1_555
C24 C25 1_555 1_555
C26 C27 1_555 1_555
C29 C30 1_555 1_555
I2C Ag1C 1_555 1_555
Ag1C I1C 1_555 1_555

#END
