
#######################################################################
#
#                 Cambridge Crystallographic Data Centre
#                                CCDC 
#
#######################################################################
#
# If this CIF has been generated from an entry in the Cambridge 
# Structural Database, then it will include bibliographic, chemical, 
# crystal, experimental, refinement or atomic coordinate data resulting 
# from the CCDC's data processing and validation procedures.
#
#######################################################################

data_PUNNET
_symmetry_cell_setting           monoclinic
_symmetry_space_group_name_H-M   'P 21/n'
_symmetry_Int_Tables_number      14
_space_group_name_Hall           '-P 2yn'
loop_
_symmetry_equiv_pos_site_id
_symmetry_equiv_pos_as_xyz
1 x,y,z
2 1/2-x,1/2+y,1/2-z
3 -x,-y,-z
4 1/2+x,1/2-y,1/2+z
_cell_length_a                   9.0198(18)
_cell_length_b                   19.230(4)
_cell_length_c                   12.410(3)
_cell_angle_alpha                90
_cell_angle_beta                 93.14(3)
_cell_angle_gamma                90
_cell_volume                     2149.29
loop_
_atom_site_label
_atom_site_type_symbol
_atom_site_fract_x
_atom_site_fract_y
_atom_site_fract_z
C1 C 0.5626(2) 0.81605(12) 0.82028(18)
H1 H 0.5857 0.8551 0.7802
C2 C 0.8730(2) 0.95558(11) 0.80844(18)
H2 H 0.8649 0.9811 0.8715
C3 C 0.6331(2) 0.86879(11) 1.26409(16)
H3 H 0.6181 0.8272 1.2269
C4 C 0.7906(2) 0.90905(11) 1.11083(17)
C5 C 1.1507(2) 0.88252(11) 0.99111(17)
H4 H 1.1264 0.9180 0.9424
C6 C 0.5909(3) 0.94049(12) 1.42073(19)
H5 H 0.5501 0.9467 1.4873
C7 C 0.5663(2) 0.87852(11) 1.36365(17)
C8 C 0.7210(2) 0.92039(11) 1.22068(16)
C9 C 0.7408(2) 0.98283(11) 1.27703(18)
H6 H 0.7968 1.0182 1.2483
C10 C 0.4700(2) 0.82236(11) 1.41053(17)
C11 C 1.1417(3) 0.78936(12) 1.08824(19)
H7 H 1.1072 0.7484 1.1177
C12 C 0.4388(3) 0.73001(14) 0.8876(2)
H8 H 0.3634 0.6991 0.9026
C13 C 0.8885(3) 0.93085(14) 0.63420(19)
H9 H 0.8925 0.9345 0.5597
C14 C 0.6764(3) 0.99291(12) 1.37779(19)
H10 H 0.6914 1.0345 1.4151
C15 C 0.2977(3) 0.80560(13) 0.7481(2)
H11 H 0.3082 0.8530 0.7254
H12 H 0.2094 0.8010 0.7873
H13 H 0.2906 0.7759 0.6859
C16 C 1.2743(3) 0.81940(12) 1.1153(2)
H14 H 1.3470 0.8036 1.1655
C17 C 0.8938(3) 0.87144(13) 0.69450(19)
H15 H 0.9030 0.8268 0.6667
C18 C 1.4013(3) 0.92791(14) 1.0477(2)
H16 H 1.3749 0.9640 0.9967
H17 H 1.4880 0.9041 1.0256
H18 H 1.4216 0.9481 1.1177
C19 C 0.5803(3) 0.72877(13) 0.9305(2)
H19 H 0.6186 0.6966 0.9806
C20 C 0.8697(3) 1.05846(13) 0.6819(2)
H20 H 0.8811 1.0849 0.7474
H21 H 0.7757 1.0692 0.6457
H22 H 0.9482 1.0700 0.6358
Cu1 Cu 0.86433(3) 0.810285(13) 0.93986(2)
N1 N 0.6580(2) 0.78279(10) 0.88767(15)
N2 N 0.4276(2) 0.78554(10) 0.81789(15)
N3 N 0.88328(19) 0.88713(9) 0.80473(14)
N4 N 0.8758(2) 0.98426(10) 0.70737(16)
N5 N 1.06488(19) 0.82884(9) 1.01003(14)
N6 N 1.2787(2) 0.87875(10) 1.05230(16)
O1 O 0.77245(17) 0.84817(8) 1.07143(12)
O2 O 0.85554(19) 0.95791(8) 1.06868(13)
O3 O 0.41306(18) 0.83287(8) 1.50001(13)
O4 O 0.45535(16) 0.76690(7) 1.35315(12)
Cu1C Cu 0.36433(3) 0.689715(13) 1.43986(2)
O4C O 0.95535(16) 0.73310(7) 0.85315(12)
loop_
_geom_bond_atom_site_label_1
_geom_bond_atom_site_label_2
_geom_bond_site_symmetry_1
_geom_bond_site_symmetry_2
C1 H1 1_555 1_555
C2 H2 1_555 1_555
C3 H3 1_555 1_555
C4 C8 1_555 1_555
C5 H4 1_555 1_555
C6 H5 1_555 1_555
C7 C3 1_555 1_555
C8 C3 1_555 1_555
C9 C8 1_555 1_555
H6 C9 1_555 1_555
C10 C7 1_555 1_555
C11 H7 1_555 1_555
C12 H8 1_555 1_555
C13 H9 1_555 1_555
C14 C6 1_555 1_555
H10 C14 1_555 1_555
C15 H11 1_555 1_555
H12 C15 1_555 1_555
H13 C15 1_555 1_555
C16 C11 1_555 1_555
H14 C16 1_555 1_555
C17 C13 1_555 1_555
H15 C17 1_555 1_555
C18 H16 1_555 1_555
H17 C18 1_555 1_555
H18 C18 1_555 1_555
C19 C12 1_555 1_555
H19 C19 1_555 1_555
C20 H20 1_555 1_555
H21 C20 1_555 1_555
H22 C20 1_555 1_555
Cu1 N1 1_555 1_555
N1 C1 1_555 1_555
N2 C1 1_555 1_555
N3 C2 1_555 1_555
N4 C2 1_555 1_555
N5 C5 1_555 1_555
N6 C5 1_555 1_555
O1 C4 1_555 1_555
O2 C4 1_555 1_555
O3 C10 1_555 1_555
O4 C10 1_555 1_555
Cu1C O4 1_555 1_555
O4C Cu1 1_555 1_555
C6 C7 1_555 1_555
C9 C14 1_555 1_555
C11 N5 1_555 1_555
C12 N2 1_555 1_555
C13 N4 1_555 1_555
C15 N2 1_555 1_555
C16 N6 1_555 1_555
C17 N3 1_555 1_555
C18 N6 1_555 1_555
C19 N1 1_555 1_555
C20 N4 1_555 1_555
Cu1 N3 1_555 1_555
Cu1 N5 1_555 1_555
Cu1 O1 1_555 1_555

#END
