
#######################################################################
#
#                 Cambridge Crystallographic Data Centre
#                                CCDC 
#
#######################################################################
#
# If this CIF has been generated from an entry in the Cambridge 
# Structural Database, then it will include bibliographic, chemical, 
# crystal, experimental, refinement or atomic coordinate data resulting 
# from the CCDC's data processing and validation procedures.
#
#######################################################################

data_PUNQUL
_symmetry_cell_setting           triclinic
_symmetry_space_group_name_H-M   'P -1'
_symmetry_Int_Tables_number      2
_space_group_name_Hall           '-P 1'
loop_
_symmetry_equiv_pos_site_id
_symmetry_equiv_pos_as_xyz
1 x,y,z
2 -x,-y,-z
_cell_length_a                   9.2525(19)
_cell_length_b                   9.883(2)
_cell_length_c                   11.946(2)
_cell_angle_alpha                103.58(3)
_cell_angle_beta                 98.23(3)
_cell_angle_gamma                111.75(3)
_cell_volume                     953.656
loop_
_atom_site_label
_atom_site_type_symbol
_atom_site_fract_x
_atom_site_fract_y
_atom_site_fract_z
Zn1 Zn 0.96787(5) 0.71716(4) 0.30209(4)
Zn2 Zn 0.75420(5) 0.18370(5) 0.33064(4)
Cl1 Cl 0.80683(13) 0.62696(12) 0.11798(9)
O1 O 1.0958(3) 0.5987(3) 0.3178(2)
O2 O 0.9079(3) 0.1776(3) 0.4676(2)
O3 O 0.9013(3) 0.4034(3) 0.3429(3)
O4 O 1.0632(3) -0.0614(3) 0.3190(2)
O5 O 0.9773(3) 0.1450(3) 0.2589(2)
O6 O 1.1604(3) 0.2924(3) 0.5720(2)
O7 O 1.3209(3) -0.0046(3) 0.3916(3)
O8 O 0.6266(3) 0.2159(3) 0.4614(2)
N1 N 0.6056(4) -0.0529(3) 0.2598(3)
N2 N 0.5760(4) 0.1781(4) 0.1950(3)
C1 C 0.5643(5) 0.2940(5) 0.1631(4)
H1 H 0.6501 0.3932 0.1984
C2 C 1.0554(4) 0.2362(4) 0.4740(3)
C3 C 1.1673(4) 0.4070(4) 0.3520(4)
H2 H 1.2179 0.4107 0.2845
H3 H 1.2524 0.4769 0.4254
C4 C 1.0426(4) 0.4713(4) 0.3363(3)
C5 C 1.2507(4) 0.1952(4) 0.3587(3)
H4 H 1.3403 0.2660 0.4293
H5 H 1.2894 0.2084 0.2872
C6 C 1.2124(4) 0.0316(4) 0.3586(3)
C7 C 1.1113(4) 0.2436(4) 0.3601(3)
C8 C 0.4314(6) 0.2763(5) 0.0798(4)
H6 H 0.4287 0.3618 0.0577
C9 C 0.3054(5) 0.1358(5) 0.0303(4)
H7 H 0.2138 0.1231 -0.0257
C10 C 0.3113(5) 0.0094(5) 0.0623(3)
C11 C 0.3651(5) -0.3505(4) 0.1722(4)
H8 H 0.2843 -0.4528 0.1422
C12 C 0.3430(4) -0.2343(4) 0.1327(3)
C13 C 0.4679(4) -0.0877(4) 0.1795(3)
C14 C 0.5038(5) -0.3151(5) 0.2541(4)
H9 H 0.5192 -0.3924 0.2821
C15 C 0.6232(5) -0.1637(4) 0.2966(4)
H10 H 0.7192 -0.1402 0.3533
C16 C 0.4517(4) 0.0371(4) 0.1444(3)
C17 C 0.2010(5) -0.2593(5) 0.0503(4)
H11 H 0.1156 -0.3592 0.0189
C18 C 0.1859(5) -0.1431(5) 0.0160(4)
H12 H 0.0905 -0.1630 -0.0396
Zn1_2 Zn 0.96787(5) -0.28284(4) 0.30209(4)
Zn1A Zn 1.03213(5) 0.28284(4) 0.69791(4)
O4_2 O 1.0632(3) 0.9386(3) 0.3190(2)
O6A O 0.8396(3) 0.7076(3) 0.4280(2)
loop_
_geom_bond_atom_site_label_1
_geom_bond_atom_site_label_2
_geom_bond_site_symmetry_1
_geom_bond_site_symmetry_2
Zn1 Cl1 1_555 1_555
Zn2 O2 1_555 1_555
O1 Zn1 1_555 1_555
O2 C2 1_555 1_555
O3 Zn2 1_555 1_555
O4 C6 1_555 1_555
O5 Zn2 1_555 1_555
O6 C2 1_555 1_555
O7 C6 1_555 1_555
O8 Zn2 1_555 1_555
N1 Zn2 1_555 1_555
N2 Zn2 1_555 1_555
C1 N2 1_555 1_555
H1 C1 1_555 1_555
C2 C7 1_555 1_555
C3 H2 1_555 1_555
H3 C3 1_555 1_555
C4 O1 1_555 1_555
C5 H4 1_555 1_555
H5 C5 1_555 1_555
C6 C5 1_555 1_555
C7 O5 1_555 1_555
C8 C1 1_555 1_555
H6 C8 1_555 1_555
C9 C8 1_555 1_555
H7 C9 1_555 1_555
C10 C9 1_555 1_555
C11 H8 1_555 1_555
C12 C11 1_555 1_555
C13 N1 1_555 1_555
C14 C11 1_555 1_555
H9 C14 1_555 1_555
C15 N1 1_555 1_555
H10 C15 1_555 1_555
C16 N2 1_555 1_555
C17 C12 1_555 1_555
H11 C17 1_555 1_555
C18 C10 1_555 1_555
H12 C18 1_555 1_555
Zn1_2 O4 1_555 1_555
Zn1A O6 1_555 1_555
O4_2 Zn1 1_555 1_555
O6A Zn1 1_555 1_555
O3 C4 1_555 1_555
C3 C4 1_555 1_555
C3 C7 1_555 1_555
C5 C7 1_555 1_555
C10 C16 1_555 1_555
C12 C13 1_555 1_555
C13 C16 1_555 1_555
C14 C15 1_555 1_555
C17 C18 1_555 1_555

#END
