
#######################################################################
#
#                 Cambridge Crystallographic Data Centre
#                                CCDC 
#
#######################################################################
#
# If this CIF has been generated from an entry in the Cambridge 
# Structural Database, then it will include bibliographic, chemical, 
# crystal, experimental, refinement or atomic coordinate data resulting 
# from the CCDC's data processing and validation procedures.
#
#######################################################################

data_PUNQIA
_symmetry_cell_setting           orthorhombic
_symmetry_space_group_name_H-M   'C m c m'
_symmetry_Int_Tables_number      63
_space_group_name_Hall           '-C 2n 2'
loop_
_symmetry_equiv_pos_site_id
_symmetry_equiv_pos_as_xyz
1 x,y,z
2 -x,-y,1/2+z
3 -x,y,1/2-z
4 x,-y,-z
5 1/2+x,1/2+y,z
6 1/2-x,1/2-y,1/2+z
7 1/2-x,1/2+y,1/2-z
8 1/2+x,1/2-y,-z
9 -x,-y,-z
10 x,y,1/2-z
11 x,-y,1/2+z
12 -x,y,z
13 1/2-x,1/2-y,-z
14 1/2+x,1/2+y,1/2-z
15 1/2+x,1/2-y,1/2+z
16 1/2-x,1/2+y,z
_cell_length_a                   9.8695(6)
_cell_length_b                   11.3999(7)
_cell_length_c                   5.6115(3)
_cell_angle_alpha                90
_cell_angle_beta                 90
_cell_angle_gamma                90
_cell_volume                     631.357
loop_
_atom_site_label
_atom_site_type_symbol
_atom_site_fract_x
_atom_site_fract_y
_atom_site_fract_z
Ag1 Ag 0.0000 0.0000 0.0000
C1 C 0.0000 0.1481(3) 0.2500
C2 C 0.1188(3) 0.2147(2) 0.2500
C3 C 0.0000 0.3954(3) 0.2500
C4 C 0.1205(3) 0.3356(2) 0.2500
F1 F 0.24008(16) 0.16046(15) 0.2500
F2 F 0.2383(2) 0.39529(16) 0.2500
F3 F 0.0000 0.51358(19) 0.2500
C2B C -0.1188(3) 0.2147(2) 0.2500
C4B C -0.1205(3) 0.3356(2) 0.2500
F1B F -0.24008(16) 0.16046(15) 0.2500
F2B F -0.2383(2) 0.39529(16) 0.2500
Ag1A Ag 0.0000 0.0000 0.5000
C1A C 0.0000 -0.1481(3) -0.2500
loop_
_geom_bond_atom_site_label_1
_geom_bond_atom_site_label_2
_geom_bond_site_symmetry_1
_geom_bond_site_symmetry_2
Ag1 C1 1_555 1_555
C1 C2 1_555 1_555
C2 C4 1_555 1_555
C3 C4 1_555 1_555
C4 F2 1_555 1_555
F1 C2 1_555 1_555
F3 C3 1_555 1_555
C2B C1 1_555 1_555
C4B C3 1_555 1_555
F1B C2B 1_555 1_555
F2B C4B 1_555 1_555
Ag1A C1 1_555 1_555
C1A Ag1 1_555 1_555
C2B C4B 1_555 1_555

#END
