
#######################################################################
#
#                 Cambridge Crystallographic Data Centre
#                                CCDC 
#
#######################################################################
#
# If this CIF has been generated from an entry in the Cambridge 
# Structural Database, then it will include bibliographic, chemical, 
# crystal, experimental, refinement or atomic coordinate data resulting 
# from the CCDC's data processing and validation procedures.
#
#######################################################################

data_PUNSAT
_symmetry_cell_setting           monoclinic
_symmetry_space_group_name_H-M   'P 21'
_symmetry_Int_Tables_number      4
_space_group_name_Hall           'P 2yb'
loop_
_symmetry_equiv_pos_site_id
_symmetry_equiv_pos_as_xyz
1 x,y,z
2 -x,1/2+y,-z
_cell_length_a                   4.9904(17)
_cell_length_b                   19.473(7)
_cell_length_c                   9.891(3)
_cell_angle_alpha                90
_cell_angle_beta                 93.762(5)
_cell_angle_gamma                90
_cell_volume                     959.117
loop_
_atom_site_label
_atom_site_type_symbol
_atom_site_fract_x
_atom_site_fract_y
_atom_site_fract_z
Zn1 Zn 1.55274(8) 1.23688(2) 0.51013(4)
S1 S 2.06507(19) 1.29839(5) 0.63765(11)
N1 N 1.4941(7) 1.13341(17) 0.5157(4)
C1 C 1.6456(8) 1.0916(2) 0.5938(4)
H1 H 1.7853 1.1099 0.6494
C2 C 1.6009(9) 1.0211(2) 0.5947(5)
H2 H 1.7072 0.9926 0.6514
C3 C 1.3979(8) 0.9944(2) 0.5108(4)
H3 H 1.3637 0.9474 0.5114
C4 C 1.2445(8) 1.0367(2) 0.4255(4)
C5 C 1.2970(8) 1.1064(2) 0.4316(4)
H4 H 1.1928 1.1358 0.3758
N2 N 1.0421(6) 1.00913(16) 0.3367(3)
H5 H 0.9782 0.9698 0.3574
C6 C 0.9379(9) 1.0391(2) 0.2207(5)
O1 O 1.0061(6) 1.09534(16) 0.1816(3)
C7 C 0.7163(8) 0.9996(2) 0.1424(4)
C8 C 0.5860(7) 0.9433(2) 0.1928(4)
H6 H 0.6351 0.9273 0.2795
C9 C 0.3815(8) 0.9105(2) 0.1146(4)
H7 H 0.2957 0.8727 0.1499
C10 C 0.3053(9) 0.9329(2) -0.0130(5)
C11 C 0.4334(9) 0.9892(3) -0.0642(5)
H8 H 0.3824 1.0047 -0.1511
C12 C 0.6363(11) 1.0230(3) 0.0114(5)
H9 H 0.7193 1.0610 -0.0243
C13 C 0.0943(8) 0.8986(2) -0.1069(5)
O2 O 0.0657(7) 0.91382(18) -0.2254(3)
N3 N -0.0509(6) 0.84923(17) -0.0506(3)
H10 H -0.0189 0.8427 0.0349
C14 C -0.2489(8) 0.8072(2) -0.1155(4)
C15 C -0.4072(9) 0.7668(2) -0.0332(4)
H11 H -0.3815 0.7691 0.0607
C16 C -0.5987(9) 0.7244(2) -0.0925(4)
H12 H -0.7055 0.6977 -0.0396
C17 C -0.6310(8) 0.7217(2) -0.2302(5)
H13 H -0.7629 0.6929 -0.2694
N4 N -0.4823(7) 0.75840(15) -0.3118(3)
C18 C -0.2921(8) 0.8009(2) -0.2548(4)
H14 H -0.1876 0.8266 -0.3107
O3 O 1.9418(5) 1.24332(18) 0.5477(2)
O4 O 1.9771(6) 1.36504(15) 0.5888(3)
O5 O 1.9994(7) 1.28654(17) 0.7754(3)
O6 O 2.3600(5) 1.29151(17) 0.6311(3)
Zn1A Zn -0.55274(8) 0.73688(2) -0.51013(4)
Zn1_2 Zn 2.55274(8) 1.23688(2) 0.51013(4)
N4A N 1.4823(7) 1.25840(15) 0.3118(3)
O6_2 O 1.3600(5) 1.29151(17) 0.6311(3)
loop_
_geom_bond_atom_site_label_1
_geom_bond_atom_site_label_2
_geom_bond_site_symmetry_1
_geom_bond_site_symmetry_2
Zn1 N1 1_555 1_555
S1 O3 1_555 1_555
N1 C1 1_555 1_555
C1 H1 1_555 1_555
C2 C1 1_555 1_555
H2 C2 1_555 1_555
C3 C2 1_555 1_555
H3 C3 1_555 1_555
C4 C3 1_555 1_555
C5 N1 1_555 1_555
H4 C5 1_555 1_555
N2 C4 1_555 1_555
H5 N2 1_555 1_555
C6 N2 1_555 1_555
O1 C6 1_555 1_555
C7 C6 1_555 1_555
C8 C7 1_555 1_555
H6 C8 1_555 1_555
C9 C8 1_555 1_555
H7 C9 1_555 1_555
C10 C9 1_555 1_555
C11 C10 1_555 1_555
H8 C11 1_555 1_555
C12 C7 1_555 1_555
H9 C12 1_555 1_555
C13 C10 1_555 1_555
O2 C13 1_555 1_555
N3 C13 1_555 1_555
H10 N3 1_555 1_555
C14 N3 1_555 1_555
C15 C14 1_555 1_555
H11 C15 1_555 1_555
C16 C15 1_555 1_555
H12 C16 1_555 1_555
C17 C16 1_555 1_555
H13 C17 1_555 1_555
N4 C17 1_555 1_555
C18 C14 1_555 1_555
H14 C18 1_555 1_555
O3 Zn1 1_555 1_555
O4 S1 1_555 1_555
O5 S1 1_555 1_555
O6 S1 1_555 1_555
Zn1A N4 1_555 1_555
Zn1_2 O6 1_555 1_555
N4A Zn1 1_555 1_555
O6_2 Zn1 1_555 1_555
C4 C5 1_555 1_555
C11 C12 1_555 1_555
N4 C18 1_555 1_555

#END
