
#######################################################################
#
#                 Cambridge Crystallographic Data Centre
#                                CCDC 
#
#######################################################################
#
# If this CIF has been generated from an entry in the Cambridge 
# Structural Database, then it will include bibliographic, chemical, 
# crystal, experimental, refinement or atomic coordinate data resulting 
# from the CCDC's data processing and validation procedures.
#
#######################################################################

data_PUNSUN
_symmetry_cell_setting           monoclinic
_symmetry_space_group_name_H-M   'C 2/c'
_symmetry_Int_Tables_number      15
_space_group_name_Hall           '-C 2yn'
loop_
_symmetry_equiv_pos_site_id
_symmetry_equiv_pos_as_xyz
1 x,y,z
2 -x,y,1/2-z
3 1/2+x,1/2+y,z
4 1/2-x,1/2+y,1/2-z
5 -x,-y,-z
6 x,-y,1/2+z
7 1/2-x,1/2-y,-z
8 1/2+x,1/2-y,1/2+z
_cell_length_a                   18.755(4)
_cell_length_b                   16.299(3)
_cell_length_c                   8.9294(18)
_cell_angle_alpha                90
_cell_angle_beta                 112.59(3)
_cell_angle_gamma                90
_cell_volume                     2520.19
loop_
_atom_site_label
_atom_site_type_symbol
_atom_site_fract_x
_atom_site_fract_y
_atom_site_fract_z
La1 La 0.5000 0.027928(17) 0.2500
O1 O 0.4671(2) 0.15409(19) 0.3702(4)
O2 O 0.4734(3) 0.2864(2) 0.4327(5)
O3 O 0.07540(18) 0.47922(18) 0.0874(4)
O4 O 0.14004(18) 0.4345(2) -0.0557(4)
O5 O 0.5761(2) -0.1072(2) 0.3769(5)
H1 H 0.557(4) -0.124(4) 0.445(6)
H2 H 0.566(4) -0.141(3) 0.300(6)
N1 N 0.3422(2) 0.3235(2) 0.1755(5)
N2 N 0.2755(2) 0.4250(2) 0.2032(5)
C1 C 0.4432(3) 0.2268(3) 0.3447(6)
C2 C 0.3730(3) 0.2401(3) 0.1873(6)
H3 H 0.3879 0.2297 0.0939
H4 H 0.3322 0.2003 0.1817
C3 C 0.3702(3) 0.3927(3) 0.1282(8)
H5 H 0.4113 0.3951 0.0911
C4 C 0.3278(3) 0.4568(3) 0.1450(7)
H6 H 0.3332 0.5127 0.1213
C5 C 0.2850(3) 0.3442(3) 0.2203(6)
H7 H 0.2559 0.3078 0.2579
C6 C 0.2114(3) 0.4675(3) 0.2237(6)
H8 H 0.2242 0.5264 0.2447
H9 H 0.2033 0.4446 0.3186
C7 C 0.1375(2) 0.4587(2) 0.0732(5)
La1B La 0.0000 0.527928(17) 0.2500
La1F La 0.0000 0.472072(17) -0.2500
La1B_2 La 1.0000 -0.472072(17) 0.2500
La1D La 0.5000 -0.027928(17) -0.2500
O1B O 0.9671(2) -0.34591(19) 0.3702(4)
O1A O 0.5329(2) 0.15409(19) 0.1298(4)
O2B O 0.9734(3) -0.2136(2) 0.4327(5)
O3B O 0.57540(18) -0.02078(18) 0.0874(4)
O3C O 0.42460(18) -0.02078(18) 0.4126(4)
O3F O 0.42460(18) 0.02078(18) -0.0874(4)
O3G O 0.57540(18) 0.02078(18) 0.5874(4)
O4B O 0.64004(18) -0.0655(2) -0.0557(4)
O4G O 0.64004(18) 0.0655(2) 0.4443(4)
O4F O 0.35996(18) 0.0655(2) 0.0557(4)
O5A O 0.4239(2) -0.1072(2) 0.1231(5)
H1A H 0.443(4) -0.124(4) 0.055(6)
H2A H 0.434(4) -0.141(3) 0.200(6)
N1B N 0.8422(2) -0.1765(2) 0.1755(5)
N2B N 0.7755(2) -0.0750(2) 0.2032(5)
C1B C 0.9432(3) -0.2732(3) 0.3447(6)
C2B C 0.8730(3) -0.2599(3) 0.1873(6)
H3B H 0.8879 -0.2703 0.0939
H4B H 0.8322 -0.2997 0.1817
C3B C 0.8702(3) -0.1073(3) 0.1282(8)
H5B H 0.9113 -0.1049 0.0911
C4B C 0.8278(3) -0.0432(3) 0.1450(7)
H6B H 0.8332 0.0127 0.1213
C5B C 0.7850(3) -0.1558(3) 0.2203(6)
H7B H 0.7559 -0.1922 0.2579
C6B C 0.7114(3) -0.0325(3) 0.2237(6)
H8B H 0.7242 0.0264 0.2447
H9B H 0.7033 -0.0554 0.3186
C7B C 0.6375(2) -0.0413(2) 0.0732(5)
Cl1 Cl 0.6051(3) 0.7650(4) 0.1961(7)
O6 O 0.75146(18) 0.83621(17) 0.5894(4)
H10 H 0.782(3) 0.846(3) 0.676(4)
H11 H 0.758(3) 0.801(3) 0.538(5)
O7 O 0.460(2) 0.560(2) 0.087(5)
O8? O 0.484(2) 0.556(2) 0.072(5)
loop_
_geom_bond_atom_site_label_1
_geom_bond_atom_site_label_2
_geom_bond_site_symmetry_1
_geom_bond_site_symmetry_2
La1 O1 1_555 1_555
O1 C1 1_555 1_555
O2 C1 1_555 1_555
O3 C7 1_555 1_555
O4 C7 1_555 1_555
O5 La1 1_555 1_555
H1 O5 1_555 1_555
H2 O5 1_555 1_555
N1 C2 1_555 1_555
N2 C4 1_555 1_555
C1 C2 1_555 1_555
C2 H3 1_555 1_555
H4 C2 1_555 1_555
C3 N1 1_555 1_555
H5 C3 1_555 1_555
C4 C3 1_555 1_555
H6 C4 1_555 1_555
C5 N1 1_555 1_555
H7 C5 1_555 1_555
C6 N2 1_555 1_555
H8 C6 1_555 1_555
H9 C6 1_555 1_555
C7 C6 1_555 1_555
O6 H10 1_555 1_555
H11 O6 1_555 1_555
La1B O3 1_555 1_555
La1F O3 1_555 1_555
La1B_2 O1B 1_555 1_555
La1D O3B 1_555 1_555
O1B C1B 1_555 1_555
O1A La1 1_555 1_555
O2B C1B 1_555 1_555
O3B La1 1_555 1_555
O3C La1 1_555 1_555
O3F La1 1_555 1_555
O3G La1 1_555 1_555
O4B La1D 1_555 1_555
O4G La1 1_555 1_555
O4F La1 1_555 1_555
O5A La1 1_555 1_555
H1A O5A 1_555 1_555
H2A O5A 1_555 1_555
N1B C2B 1_555 1_555
N2B C4B 1_555 1_555
C1B C2B 1_555 1_555
C2B H3B 1_555 1_555
H4B C2B 1_555 1_555
C3B N1B 1_555 1_555
H5B C3B 1_555 1_555
C4B C3B 1_555 1_555
H6B C4B 1_555 1_555
C5B N1B 1_555 1_555
H7B C5B 1_555 1_555
C6B N2B 1_555 1_555
H8B C6B 1_555 1_555
H9B C6B 1_555 1_555
C7B O3B 1_555 1_555
O4 La1F 1_555 1_555
N2 C5 1_555 1_555
La1D O3F 1_555 1_555
O4B C7B 1_555 1_555
N2B C5B 1_555 1_555
C6B C7B 1_555 1_555

#END
