
#######################################################################
#
#                 Cambridge Crystallographic Data Centre
#                                CCDC 
#
#######################################################################
#
# If this CIF has been generated from an entry in the Cambridge 
# Structural Database, then it will include bibliographic, chemical, 
# crystal, experimental, refinement or atomic coordinate data resulting 
# from the CCDC's data processing and validation procedures.
#
#######################################################################

data_PUNSAS
_symmetry_cell_setting           triclinic
_symmetry_space_group_name_H-M   'P -1'
_symmetry_Int_Tables_number      2
_space_group_name_Hall           '-P 1'
loop_
_symmetry_equiv_pos_site_id
_symmetry_equiv_pos_as_xyz
1 x,y,z
2 -x,-y,-z
_cell_length_a                   8.328(6)
_cell_length_b                   10.43(2)
_cell_length_c                   10.618(3)
_cell_angle_alpha                61.49(9)
_cell_angle_beta                 71.48(9)
_cell_angle_gamma                81.66(10)
_cell_volume                     768.453
loop_
_atom_site_label
_atom_site_type_symbol
_atom_site_fract_x
_atom_site_fract_y
_atom_site_fract_z
Ag1 Ag 0.4803(1) 0.1271(1) 0.0376(1)
Ag2 Ag 0.1476(1) 0.1016(1) -0.0047(1)
Ag3 Ag 0.2624(1) 0.3885(1) -0.0113(1)
N1 N 0.0133(10) -0.0145(8) 0.7753(7)
N2 N 0.6586(10) 0.4724(7) -0.7501(6)
O1 O 0.3832(8) 0.0707(6) 0.2708(6)
O2 O 0.2007(9) 0.2601(6) 0.2252(5)
O3 O 0.5575(8) 0.2013(6) -0.1983(5)
O4 O 0.3043(8) 0.1862(6) -0.2304(6)
C1 C -0.0360(13) 0.1125(9) 0.6757(8)
C2 C 0.0460(12) 0.1674(9) 0.5256(8)
C3 C 0.1798(12) 0.0917(9) 0.4727(8)
C4 C 0.2278(13) -0.0367(9) 0.5785(8)
C5 C 0.1398(12) -0.0865(9) 0.7283(8)
C6 C 0.2618(12) 0.1454(9) 0.3100(8)
C7 C 0.7452(12) 0.4605(9) -0.6589(8)
C8 C 0.6874(13) 0.3791(9) -0.5059(9)
C9 C 0.5297(12) 0.3074(9) -0.4428(8)
C10 C 0.4448(13) 0.3222(9) -0.5393(8)
C11 C 0.5087(12) 0.4019(9) -0.6893(8)
C12 C 0.4566(14) 0.2251(10) -0.2745(9)
H1 H -0.1282(13) 0.1644(9) 0.7097(8)
H2 H 0.0113(12) 0.2578(9) 0.4570(8)
H3 H 0.3206(13) -0.0905(9) 0.5486(8)
H4 H 0.1724(12) -0.1761(9) 0.7996(8)
H5 H 0.8509(12) 0.5099(9) -0.7011(8)
H6 H 0.7529(13) 0.3715(9) -0.4439(9)
H7 H 0.3378(13) 0.2755(9) -0.5006(8)
H8 H 0.4464(12) 0.4082(9) -0.7530(8)
Ag1A Ag 0.5197(1) -0.1271(1) -0.0376(1)
Ag2A Ag -0.1476(1) -0.1016(1) 1.0047(1)
N1A N -0.0133(10) 0.0145(8) 0.2247(7)
Ag3A Ag 0.7376(1) 0.6115(1) -0.9887(1)
N2A N 0.3414(10) 0.5276(7) -0.2499(6)
B1 B 0.8159(15) 0.3503(11) -0.1038(10)
F1 F 0.8562(7) 0.4233(5) -0.2593(5)
F2 F 0.8241(7) 0.2017(5) -0.0571(5)
F3 F 0.6532(7) 0.3858(5) -0.0371(5)
F4 F 0.9329(7) 0.3856(5) -0.0585(5)
loop_
_geom_bond_atom_site_label_1
_geom_bond_atom_site_label_2
_geom_bond_site_symmetry_1
_geom_bond_site_symmetry_2
Ag1 Ag2 1_555 1_555
Ag2 Ag3 1_555 1_555
Ag3 Ag1 1_555 1_555
N1 C1 1_555 1_555
N2 C7 1_555 1_555
O1 Ag1 1_555 1_555
O2 Ag3 1_555 1_555
O3 Ag1 1_555 1_555
O4 Ag2 1_555 1_555
B1 F1 1_555 1_555
F2 B1 1_555 1_555
F3 B1 1_555 1_555
F4 B1 1_555 1_555
C1 C2 1_555 1_555
C2 C3 1_555 1_555
C3 C4 1_555 1_555
C4 C5 1_555 1_555
C5 N1 1_555 1_555
C6 O1 1_555 1_555
C7 C8 1_555 1_555
C8 C9 1_555 1_555
C9 C10 1_555 1_555
C10 C11 1_555 1_555
C11 N2 1_555 1_555
C12 O3 1_555 1_555
H1 C1 1_555 1_555
H2 C2 1_555 1_555
H3 C4 1_555 1_555
H4 C5 1_555 1_555
H5 C7 1_555 1_555
H6 C8 1_555 1_555
H7 C10 1_555 1_555
H8 C11 1_555 1_555
Ag1A Ag1 1_555 1_555
Ag2A N1 1_555 1_555
N1A Ag2 1_555 1_555
Ag3A N2 1_555 1_555
N2A Ag3 1_555 1_555
O2 C6 1_555 1_555
O4 C12 1_555 1_555
C3 C6 1_555 1_555
C9 C12 1_555 1_555

#END
