
#######################################################################
#
#                 Cambridge Crystallographic Data Centre
#                                CCDC 
#
#######################################################################
#
# If this CIF has been generated from an entry in the Cambridge 
# Structural Database, then it will include bibliographic, chemical, 
# crystal, experimental, refinement or atomic coordinate data resulting 
# from the CCDC's data processing and validation procedures.
#
#######################################################################

data_PUNTIC
_symmetry_cell_setting           monoclinic
_symmetry_space_group_name_H-M   'P 21/n'
_symmetry_Int_Tables_number      14
_space_group_name_Hall           '-P 2yn'
loop_
_symmetry_equiv_pos_site_id
_symmetry_equiv_pos_as_xyz
1 x,y,z
2 1/2-x,1/2+y,1/2-z
3 -x,-y,-z
4 1/2+x,1/2-y,1/2+z
_cell_length_a                   8.5454(17)
_cell_length_b                   26.275(5)
_cell_length_c                   11.130(2)
_cell_angle_alpha                90
_cell_angle_beta                 103.57(3)
_cell_angle_gamma                90
_cell_volume                     2429.26
loop_
_atom_site_label
_atom_site_type_symbol
_atom_site_fract_x
_atom_site_fract_y
_atom_site_fract_z
Nd1 Nd 0.74038(2) 1.010933(8) 0.989954(19)
O1 O 0.7020(4) 0.93458(12) 1.0995(3)
O2 O 0.4401(4) 0.91652(12) 1.0777(3)
O3 O 0.1569(6) 0.71725(16) 0.9725(4)
O4 O 0.2308(6) 0.63601(18) 1.0061(4)
O5 O 0.9879(4) 1.01416(11) 0.8829(3)
O6 O 0.7526(4) 1.03720(12) 0.7678(3)
O7 O 0.7646(4) 1.04513(14) 0.2133(3)
O8 O 0.5157(4) 1.02256(12) 0.1239(3)
O9 O 0.7969(4) 0.92833(12) 0.8770(3)
H1 H 0.744(6) 0.9007(14) 0.877(5)
H2 H 0.823(7) 0.930(2) 0.807(3)
O10 O 0.8858(4) 1.09470(12) 1.0111(3)
H3 H 0.986(3) 1.092(2) 1.041(5)
H4 H 0.855(6) 1.1230(13) 1.034(5)
N1 N 0.5145(4) 0.82165(13) 1.1816(3)
N2 N 0.3947(5) 0.74882(15) 1.1715(4)
N3 N 0.8785(5) 1.07561(15) 0.5835(3)
N4 N 0.6837(4) 1.07875(14) 0.4227(3)
C1 C 0.5870(5) 0.90743(15) 1.1121(4)
C2 C 0.6412(5) 0.85866(16) 1.1822(4)
H5 H 0.7246 0.8425 1.1464
H6 H 0.6921 0.8675 1.2691
C3 C 0.5261(6) 0.77260(18) 1.1556(4)
H7 H 0.6133 0.7571 1.1300
C4 C 0.3716(6) 0.82921(19) 1.2155(5)
H8 H 0.3327 0.8606 1.2394
C5 C 0.2972(6) 0.7839(2) 1.2085(5)
H9 H 0.1955 0.7774 1.2261
C6 C 0.3630(7) 0.69446(18) 1.1503(5)
H10 H 0.3247 0.6803 1.2207
H11 H 0.4653 0.6772 1.1481
C7 C 0.2381(7) 0.6825(2) 1.0299(5)
C8 C 0.9025(5) 1.03438(16) 0.7859(4)
C9 C 0.9891(6) 1.0555(2) 0.6936(4)
H12 H 1.0626 1.0830 0.7331
H13 H 1.0552 1.0283 0.6688
C10 C 0.7722(5) 1.04751(19) 0.5043(4)
H14 H 0.7617 1.0115 0.5060
C11 C 0.8540(7) 1.12626(19) 0.5526(5)
H15 H 0.9114 1.1544 0.5952
C12 C 0.7338(7) 1.12810(19) 0.4511(5)
H16 H 0.6909 1.1578 0.4069
C13 C 0.5549(5) 1.06324(18) 0.3186(4)
H17 H 0.4851 1.0929 0.2891
H18 H 0.4882 1.0370 0.3466
C14 C 0.6184(5) 1.04208(16) 0.2123(4)
Nd1B Nd 0.25962(2) 0.989067(8) 1.010046(19)
Nd1B_2 Nd 1.25962(2) 0.989067(8) 1.010046(19)
Nd1_2 Nd 0.74038(2) 1.010933(8) -0.010046(19)
Nd1B_3 Nd 0.25962(2) 0.989067(8) 0.010046(19)
O2B O 0.5599(4) 1.08348(12) 0.9223(3)
O5B O 1.0121(4) 0.98584(11) 1.1171(3)
O7_2 O 0.7646(4) 1.04513(14) 1.2133(3)
O8_2 O 0.5157(4) 1.02256(12) 1.1239(3)
O8B O 0.4843(4) 0.97744(12) 0.8761(3)
Cl1 Cl 0.59498(18) 0.82692(5) 0.86331(14)
O11 O 0.3989(5) 0.56379(16) 1.1585(4)
H19 H 0.348(6) 0.582(2) 1.101(5)
H20 H 0.499(2) 0.569(3) 1.170(6)
O12 O 0.0719(6) 0.55160(16) 0.8991(5)
H21 H 0.101(8) 0.5810(14) 0.929(7)
H22 H -0.020(5) 0.556(3) 0.848(6)
O13 O 0.7878(6) 0.18163(17) 0.1188(5)
H23 H 0.692(4) 0.176(3) 0.123(8)
H24 H 0.796(8) 0.2115(15) 0.093(8)
O14 O 0.8566(8) 0.7518(3) 0.0305(6)
H25 H 0.944(7) 0.745(4) 0.009(9)
H26 H 0.805(10) 0.774(3) -0.022(7)
O15 O 0.4408(7) 0.7176(2) 0.7868(7)
H27 H 0.487(12) 0.744(2) 0.826(7)
H28 H 0.412(13) 0.727(3) 0.710(3)
loop_
_geom_bond_atom_site_label_1
_geom_bond_atom_site_label_2
_geom_bond_site_symmetry_1
_geom_bond_site_symmetry_2
Nd1 O1 1_555 1_555
O1 C1 1_555 1_555
O2 C1 1_555 1_555
O3 C7 1_555 1_555
O4 C7 1_555 1_555
O5 Nd1 1_555 1_555
O6 Nd1 1_555 1_555
O7 C14 1_555 1_555
O8 C14 1_555 1_555
O9 Nd1 1_555 1_555
H1 O9 1_555 1_555
H2 O9 1_555 1_555
O10 Nd1 1_555 1_555
H3 O10 1_555 1_555
H4 O10 1_555 1_555
N1 C2 1_555 1_555
N2 C3 1_555 1_555
N3 C9 1_555 1_555
N4 C10 1_555 1_555
C1 C2 1_555 1_555
C2 H5 1_555 1_555
H6 C2 1_555 1_555
C3 N1 1_555 1_555
H7 C3 1_555 1_555
C4 N1 1_555 1_555
H8 C4 1_555 1_555
C5 N2 1_555 1_555
H9 C5 1_555 1_555
C6 N2 1_555 1_555
H10 C6 1_555 1_555
H11 C6 1_555 1_555
C7 C6 1_555 1_555
C8 O5 1_555 1_555
C9 C8 1_555 1_555
H12 C9 1_555 1_555
H13 C9 1_555 1_555
C10 N3 1_555 1_555
H14 C10 1_555 1_555
C11 N3 1_555 1_555
H15 C11 1_555 1_555
C12 N4 1_555 1_555
H16 C12 1_555 1_555
C13 N4 1_555 1_555
H17 C13 1_555 1_555
H18 C13 1_555 1_555
C14 C13 1_555 1_555
O11 H19 1_555 1_555
H20 O11 1_555 1_555
O12 H21 1_555 1_555
H22 O12 1_555 1_555
O13 H23 1_555 1_555
H24 O13 1_555 1_555
O14 H25 1_555 1_555
H26 O14 1_555 1_555
O15 H27 1_555 1_555
H28 O15 1_555 1_555
Nd1B O2 1_555 1_555
Nd1B_2 O5 1_555 1_555
Nd1_2 O7 1_555 1_555
Nd1B_3 O8 1_555 1_555
O2B Nd1 1_555 1_555
O5B Nd1 1_555 1_555
O7_2 Nd1 1_555 1_555
O8_2 Nd1 1_555 1_555
O8B Nd1 1_555 1_555
O6 C8 1_555 1_555
O8 Nd1_2 1_555 1_555
C4 C5 1_555 1_555
C11 C12 1_555 1_555
Nd1B O8_2 1_555 1_555
Nd1B O8B 1_555 1_555
Nd1B_2 O5B 1_555 1_555

#END
