
#######################################################################
#
#                 Cambridge Crystallographic Data Centre
#                                CCDC 
#
#######################################################################
#
# If this CIF has been generated from an entry in the Cambridge 
# Structural Database, then it will include bibliographic, chemical, 
# crystal, experimental, refinement or atomic coordinate data resulting 
# from the CCDC's data processing and validation procedures.
#
#######################################################################

data_PUNTOI
_symmetry_cell_setting           triclinic
_symmetry_space_group_name_H-M   'P -1'
_symmetry_Int_Tables_number      2
_space_group_name_Hall           '-P 1'
loop_
_symmetry_equiv_pos_site_id
_symmetry_equiv_pos_as_xyz
1 x,y,z
2 -x,-y,-z
_cell_length_a                   8.852(5)
_cell_length_b                   12.220(6)
_cell_length_c                   12.502(6)
_cell_angle_alpha                90.00(5)
_cell_angle_beta                 105.12(9)
_cell_angle_gamma                100.38(10)
_cell_volume                     1282.6
loop_
_atom_site_label
_atom_site_type_symbol
_atom_site_fract_x
_atom_site_fract_y
_atom_site_fract_z
Nd1 Nd 0.33724(4) 0.62792(2) 0.46053(3)
O1 O 0.1994(6) 0.4265(4) 0.4557(4)
O2 O 0.3820(5) 0.3288(4) 0.5446(4)
O3 O 0.4848(6) -0.2051(4) 0.5982(5)
O4 O 0.2502(6) -0.1778(4) 0.5061(4)
O5 O 0.3355(6) 0.5340(4) 0.2821(4)
O6 O 0.5172(6) 0.4409(4) 0.3735(4)
O7 O 0.1882(6) 0.4075(5) -0.2675(4)
O8 O -0.0708(6) 0.3725(4) -0.3509(4)
O9 O 0.3821(7) 0.7755(4) 0.3252(5)
H1 H 0.444(9) 0.775(8) 0.284(6)
H2 H 0.315(8) 0.816(7) 0.299(7)
O10 O 0.1624(6) 0.5986(4) 0.6012(5)
H3 H 0.180(9) 0.535(4) 0.628(7)
H4 H 0.067(5) 0.586(6) 0.560(7)
N1 N 0.1512(7) 0.1462(5) 0.5528(6)
N2 N 0.2786(7) 0.0200(4) 0.6261(5)
N3 N 0.3371(7) 0.4482(5) 0.0812(4)
N4 N 0.1346(7) 0.4266(5) -0.0618(5)
C1 C 0.2425(8) 0.3397(5) 0.4985(6)
C2 C 0.1079(8) 0.2397(5) 0.4877(7)
H5 H 0.0196 0.2643 0.5103
H6 H 0.0675 0.2139 0.4086
C3 C 0.0720(9) 0.0956(6) 0.6241(7)
H7 H -0.0222 0.1128 0.6375
C4 C 0.1515(9) 0.0161(6) 0.6728(7)
H8 H 0.1258 -0.0323 0.7275
C5 C 0.2743(9) 0.0990(5) 0.5548(6)
H9 H 0.3481 0.1188 0.5117
C6 C 0.4040(10) -0.0476(6) 0.6567(8)
H10 H 0.4124 -0.0714 0.7334
H11 H 0.5073 -0.0009 0.6556
C7 C 0.3732(8) -0.1501(5) 0.5799(6)
C8 C 0.4300(8) 0.4692(5) 0.2875(5)
C9 C 0.4548(10) 0.4245(7) 0.1800(6)
H12 H 0.5627 0.4583 0.1744
H13 H 0.4489 0.3429 0.1831
C10 C 0.2217(9) 0.3729(6) 0.0158(6)
H14 H 0.2050 0.2946 0.0236
C11 C 0.3231(10) 0.5523(7) 0.0441(6)
H15 H 0.3899 0.6207 0.0756
C12 C 0.1984(10) 0.5395(7) -0.0444(6)
H16 H 0.1598 0.5974 -0.0878
C13 C -0.0001(9) 0.3768(8) -0.1565(6)
H17 H -0.0909 0.4149 -0.1605
H18 H -0.0347 0.2973 -0.1440
C14 C 0.0442(8) 0.3860(5) -0.2663(5)
Nd1A Nd 0.66276(4) 0.37208(2) 0.53947(3)
Nd1_2 Nd 0.33724(4) -0.37208(2) 0.46053(3)
Nd1A_2 Nd -0.33724(4) 0.37208(2) -0.46053(3)
O2A O 0.6180(5) 0.6712(4) 0.4554(4)
O3_2 O 0.4848(6) 0.7949(4) 0.5982(5)
O4_2 O 0.2502(6) 0.8222(4) 0.5061(4)
O6A O 0.4828(6) 0.5591(4) 0.6265(4)
O8A O 0.0708(6) 0.6275(4) 0.3509(4)
O11 O 0.5928(8) 0.7455(6) 0.1997(6)
H19 H 0.630(13) 0.766(10) 0.146(7)
H20 H 0.644(13) 0.699(8) 0.237(8)
O12 O 0.7749(14) 0.8262(11) 0.7577(13)
H21 H 0.81(2) 0.896(5) 0.76(2)
H22 H 0.674(4) 0.818(16) 0.74(2)
O13 O -0.0403(19) 0.6728(13) -0.2111(13)
O14 O 0.792(2) 0.8810(16) 0.0583(17)
O15 O 0.271(4) 0.775(2) 0.809(3)
Cl1 Cl 0.1657(5) 0.9213(3) 0.1682(5)
O16? O 0.069(6) 0.739(4) -0.209(4)
O17? O 0.282(5) 0.852(3) 0.923(4)
loop_
_geom_bond_atom_site_label_1
_geom_bond_atom_site_label_2
_geom_bond_site_symmetry_1
_geom_bond_site_symmetry_2
Nd1 O1 1_555 1_555
O1 C1 1_555 1_555
O2 C1 1_555 1_555
O3 C7 1_555 1_555
O4 C7 1_555 1_555
O5 Nd1 1_555 1_555
O6 C8 1_555 1_555
O7 C14 1_555 1_555
O8 C14 1_555 1_555
O9 Nd1 1_555 1_555
H1 O9 1_555 1_555
H2 O9 1_555 1_555
O10 Nd1 1_555 1_555
H3 O10 1_555 1_555
H4 O10 1_555 1_555
N1 C2 1_555 1_555
N2 C4 1_555 1_555
N3 C9 1_555 1_555
N4 C10 1_555 1_555
C1 C2 1_555 1_555
C2 H5 1_555 1_555
H6 C2 1_555 1_555
C3 N1 1_555 1_555
H7 C3 1_555 1_555
C4 C3 1_555 1_555
H8 C4 1_555 1_555
C5 N1 1_555 1_555
H9 C5 1_555 1_555
C6 N2 1_555 1_555
H10 C6 1_555 1_555
H11 C6 1_555 1_555
C7 C6 1_555 1_555
C8 O5 1_555 1_555
C9 C8 1_555 1_555
H12 C9 1_555 1_555
H13 C9 1_555 1_555
C10 N3 1_555 1_555
H14 C10 1_555 1_555
C11 N3 1_555 1_555
H15 C11 1_555 1_555
C12 N4 1_555 1_555
H16 C12 1_555 1_555
C13 N4 1_555 1_555
H17 C13 1_555 1_555
H18 C13 1_555 1_555
C14 C13 1_555 1_555
O11 H19 1_555 1_555
H20 O11 1_555 1_555
O12 H21 1_555 1_555
H22 O12 1_555 1_555
Nd1A O2 1_555 1_555
Nd1_2 O3 1_555 1_555
Nd1A_2 O8 1_555 1_555
O2A Nd1 1_555 1_555
O3_2 Nd1 1_555 1_555
O4_2 Nd1 1_555 1_555
O6A Nd1 1_555 1_555
O8A Nd1 1_555 1_555
O4 Nd1_2 1_555 1_555
O6 Nd1A 1_555 1_555
N2 C5 1_555 1_555
C11 C12 1_555 1_555

#END
