
#######################################################################
#
#                 Cambridge Crystallographic Data Centre
#                                CCDC 
#
#######################################################################
#
# If this CIF has been generated from an entry in the Cambridge 
# Structural Database, then it will include bibliographic, chemical, 
# crystal, experimental, refinement or atomic coordinate data resulting 
# from the CCDC's data processing and validation procedures.
#
#######################################################################

data_PUNTEY
_symmetry_cell_setting           triclinic
_symmetry_space_group_name_H-M   'P -1'
_symmetry_Int_Tables_number      2
_space_group_name_Hall           '-P 1'
loop_
_symmetry_equiv_pos_site_id
_symmetry_equiv_pos_as_xyz
1 x,y,z
2 -x,-y,-z
_cell_length_a                   8.5690(17)
_cell_length_b                   10.862(2)
_cell_length_c                   13.422(3)
_cell_angle_alpha                81.02(3)
_cell_angle_beta                 74.79(3)
_cell_angle_gamma                79.69(3)
_cell_volume                     1178.18
loop_
_atom_site_label
_atom_site_type_symbol
_atom_site_fract_x
_atom_site_fract_y
_atom_site_fract_z
Nd1 Nd 0.25230(4) 1.00670(3) 0.48616(3)
O1 O 0.3485(8) 1.1464(6) 0.3412(5)
O2 O 0.3287(9) 1.2454(10) 0.1869(6)
O3 O 1.0973(11) 1.1554(14) -0.0165(7)
O4 O 1.1792(9) 1.1154(8) -0.1796(5)
O5 O 0.0105(6) 0.8808(4) 0.5364(4)
O6 O 0.2437(6) 0.7712(4) 0.5590(4)
O7 O 0.2267(6) 0.2191(4) 0.5554(4)
O8 O 0.4605(6) 0.0973(4) 0.5564(4)
O9 O 0.2518(7) 0.9025(6) 0.3362(4)
H1 H 0.263(13) 0.947(7) 0.278(4)
H2 H 0.209(13) 0.839(6) 0.334(7)
O10 O 0.1393(9) 0.9950(6) 0.6745(4)
H3 H 0.147(13) 1.057(7) 0.705(7)
H4 H 0.065(10) 0.955(9) 0.715(6)
N1 N 0.6535(9) 1.2669(9) 0.1304(6)
N2 N 0.7900(10) 1.2473(9) -0.0273(6)
N3 N 0.1077(8) 0.5576(5) 0.6442(5)
N4 N 0.2957(8) 0.3994(5) 0.6515(5)
C1 C 0.4022(10) 1.2029(8) 0.2550(6)
C2 C 0.5744(11) 1.2275(13) 0.2384(7)
H5 H 0.5744 1.2937 0.2814
H6 H 0.6401 1.1498 0.2632
C3 C 0.7386(11) 1.1852(10) 0.0650(7)
H7 H 0.7591 1.0965 0.0819
C4 C 0.6509(13) 1.3840(11) 0.0778(8)
H8 H 0.5977 1.4600 0.1057
C5 C 0.7353(14) 1.3742(12) -0.0190(9)
H9 H 0.7548 1.4416 -0.0729
C6 C 0.8987(12) 1.1918(13) -0.1169(7)
H10 H 0.9011 1.2537 -0.1796
H11 H 0.8562 1.1173 -0.1279
C7 C 1.0736(12) 1.1517(11) -0.1019(7)
C8 C 0.0942(8) 0.7764(6) 0.5650(5)
C9 C 0.0057(9) 0.6651(6) 0.6015(7)
H12 H -0.0947 0.6879 0.6555
H13 H -0.0272 0.6411 0.5426
C10 C 0.2208(9) 0.4789(6) 0.5869(6)
H14 H 0.2436 0.4794 0.5137
C11 C 0.1148(12) 0.5280(8) 0.7461(6)
H15 H 0.0493 0.5704 0.8030
C12 C 0.2308(12) 0.4285(8) 0.7509(7)
H16 H 0.2620 0.3861 0.8116
C13 C 0.4239(9) 0.2950(7) 0.6188(7)
H17 H 0.4662 0.2531 0.6794
H18 H 0.5154 0.3288 0.5662
C14 C 0.3636(8) 0.1997(6) 0.5739(6)
Nd1A Nd -0.25230(4) 0.99330(3) 0.51384(3)
Nd1_2 Nd 0.25230(4) 0.00670(3) 0.48616(3)
Nd1A_2 Nd 0.74770(4) -0.00670(3) 0.51384(3)
O5A O -0.0105(6) 1.1192(4) 0.4636(4)
O7_2 O 0.2267(6) 1.2191(4) 0.5554(4)
O8_2 O 0.4605(6) 1.0973(4) 0.5564(4)
O8A O 0.5395(6) 0.9027(4) 0.4436(4)
O11 O 0.3542(17) 0.4727(10) 0.3501(8)
O12 O 0.1817(12) 0.6417(10) 0.3589(7)
O13 O 0.3798(13) 0.6130(11) 0.2221(7)
N5 N 0.2986(12) 0.5732(10) 0.3102(7)
O14 O 0.0301(9) 0.1773(7) 0.1935(5)
H19 H 0.011(15) 0.181(11) 0.134(5)
H20 H 0.104(12) 0.114(8) 0.199(9)
O15 O 0.637(2) 0.7228(17) 0.0249(14)
O16 O 0.495(3) 0.090(2) 0.837(2)
O17? O 0.585(3) 0.056(3) 0.866(2)
loop_
_geom_bond_atom_site_label_1
_geom_bond_atom_site_label_2
_geom_bond_site_symmetry_1
_geom_bond_site_symmetry_2
Nd1 O1 1_555 1_555
O1 C1 1_555 1_555
O2 C1 1_555 1_555
O3 C7 1_555 1_555
O4 C7 1_555 1_555
O5 Nd1 1_555 1_555
O6 Nd1 1_555 1_555
O7 C14 1_555 1_555
O8 C14 1_555 1_555
O9 Nd1 1_555 1_555
H1 O9 1_555 1_555
H2 O9 1_555 1_555
O10 Nd1 1_555 1_555
H3 O10 1_555 1_555
H4 O10 1_555 1_555
N1 C2 1_555 1_555
N2 C3 1_555 1_555
N3 C9 1_555 1_555
N4 C10 1_555 1_555
C1 C2 1_555 1_555
C2 H5 1_555 1_555
H6 C2 1_555 1_555
C3 N1 1_555 1_555
H7 C3 1_555 1_555
C4 N1 1_555 1_555
H8 C4 1_555 1_555
C5 N2 1_555 1_555
H9 C5 1_555 1_555
C6 N2 1_555 1_555
H10 C6 1_555 1_555
H11 C6 1_555 1_555
C7 C6 1_555 1_555
C8 O5 1_555 1_555
C9 C8 1_555 1_555
H12 C9 1_555 1_555
H13 C9 1_555 1_555
C10 N3 1_555 1_555
H14 C10 1_555 1_555
C11 N3 1_555 1_555
H15 C11 1_555 1_555
C12 N4 1_555 1_555
H16 C12 1_555 1_555
C13 N4 1_555 1_555
H17 C13 1_555 1_555
H18 C13 1_555 1_555
C14 C13 1_555 1_555
O11 N5 1_555 1_555
O12 N5 1_555 1_555
O13 N5 1_555 1_555
O14 H19 1_555 1_555
H20 O14 1_555 1_555
Nd1A O5 1_555 1_555
Nd1_2 O7 1_555 1_555
Nd1A_2 O8 1_555 1_555
O5A Nd1 1_555 1_555
O7_2 Nd1 1_555 1_555
O8_2 Nd1 1_555 1_555
O8A Nd1 1_555 1_555
O6 C8 1_555 1_555
O8 Nd1_2 1_555 1_555
C4 C5 1_555 1_555
C11 C12 1_555 1_555
Nd1A O5A 1_555 1_555

#END
