
#######################################################################
#
#                 Cambridge Crystallographic Data Centre
#                                CCDC 
#
#######################################################################
#
# If this CIF has been generated from an entry in the Cambridge 
# Structural Database, then it will include bibliographic, chemical, 
# crystal, experimental, refinement or atomic coordinate data resulting 
# from the CCDC's data processing and validation procedures.
#
#######################################################################

data_PUNYON
_symmetry_cell_setting           monoclinic
_symmetry_space_group_name_H-M   'P 21/c'
_symmetry_Int_Tables_number      14
_space_group_name_Hall           '-P 2ybc'
loop_
_symmetry_equiv_pos_site_id
_symmetry_equiv_pos_as_xyz
1 x,y,z
2 -x,1/2+y,1/2-z
3 -x,-y,-z
4 x,1/2-y,1/2+z
_cell_length_a                   9.5399(19)
_cell_length_b                   13.783(3)
_cell_length_c                   15.154(3)
_cell_angle_alpha                90
_cell_angle_beta                 91.02(3)
_cell_angle_gamma                90
_cell_volume                     1992.26
loop_
_atom_site_label
_atom_site_type_symbol
_atom_site_fract_x
_atom_site_fract_y
_atom_site_fract_z
Ni1 Ni 0.78596(5) -0.11429(4) 0.05199(3)
Ni2 Ni 1.46389(5) -0.26676(4) 0.52093(3)
Ni3 Ni 0.69252(5) 0.10290(3) 0.15238(3)
O1 O 1.4249(3) -0.1801(2) 0.41298(19)
O2 O 0.9073(3) 0.0782(2) 0.15647(19)
O3 O 0.9386(3) -0.0829(2) 0.14178(19)
O4 O 1.3818(3) 0.16886(19) 0.44911(18)
O5 O 1.2190(3) 0.2565(2) 0.37567(19)
O6 O 1.3327(3) -0.1744(2) 0.58921(18)
O7 O 0.5199(3) -0.1237(2) -0.16609(18)
O8 O 0.9233(3) -0.1792(2) -0.03409(18)
H1 H 0.9740 -0.1485 -0.0672
H2 H 0.9682 -0.2182 -0.0041
O9 O 0.6862(3) 0.1316(2) 0.01879(18)
O10 O 1.3053(3) -0.0855(2) 0.71020(19)
O11 O 0.6493(3) -0.0429(2) 0.13233(18)
O12 O 0.4821(3) -0.1572(2) 0.13873(18)
O13 O 0.6175(3) -0.1495(2) -0.03210(18)
O14 O 1.2621(3) -0.2569(2) 0.3288(2)
O15 O 0.8169(3) 0.0062(2) -0.02646(18)
C1 C 1.1319(4) 0.0878(3) 0.2799(3)
H3 H 1.0885 0.1458 0.2641
C2 C 1.1538(4) -0.0864(3) 0.2652(3)
H4 H 1.1252 -0.1445 0.2394
C3 C 1.2400(4) 0.0878(3) 0.3439(3)
C4 C 1.3048(4) 0.0001(3) 0.3671(3)
H5 H 1.3780 -0.0003 0.4085
C5 C 1.2832(4) 0.1794(3) 0.3928(3)
C6 C 0.6216(4) -0.1259(3) -0.1136(3)
H6 H 0.7085 -0.1088 -0.1357
C7 C 1.3224(4) -0.1819(3) 0.3592(3)
C8 C 1.3632(4) -0.1532(3) 0.6681(3)
H7 H 1.4322 -0.1895 0.6970
C9 C 1.0887(4) 0.0007(3) 0.2396(2)
C10 C 0.9682(4) -0.0012(3) 0.1732(2)
C11 C 0.7628(4) 0.0874(3) -0.0362(3)
H8 H 0.7798 0.1192 -0.0891
C12 C 0.5416(4) -0.0816(3) 0.1645(3)
H9 H 0.5026 -0.0503 0.2125
C13 C 1.2602(4) -0.0866(3) 0.3287(3)
Ni1A Ni 1.21404(5) 0.38571(4) 0.44801(3)
Ni2B Ni 1.53611(5) 0.26676(4) 0.47907(3)
Ni2A Ni 0.53611(5) 0.23324(4) -0.02093(3)
Ni2C Ni 0.46389(5) -0.23324(4) 0.02093(3)
Ni3B Ni 0.30748(5) -0.10290(3) -0.15238(3)
Ni3B_2 Ni 1.30748(5) -0.10290(3) 0.84762(3)
Ni3A Ni 1.30748(5) -0.39710(3) 0.34762(3)
O4B O 1.6182(3) -0.16886(19) 0.55089(18)
O5A O 0.7810(3) -0.2435(2) 0.12433(19)
O7B O 0.4801(3) 0.1237(2) 0.16609(18)
O9A O 1.3138(3) -0.3684(2) 0.48121(18)
O10B O 0.6947(3) 0.0855(2) 0.28980(19)
O12C O 1.4821(3) -0.3428(2) 0.63873(18)
O13C O 1.6175(3) -0.3505(2) 0.46790(18)
O14A O 0.7379(3) 0.2431(2) 0.1712(2)
N1 N 0.7267(4) -0.0841(3) 0.3898(2)
H10 H 0.6681 -0.1053 0.4315
H11 H 0.6846 -0.0345 0.3613
C14 C 0.7524(5) -0.1637(3) 0.3262(3)
H12 H 0.8014 -0.1386 0.2763
H13 H 0.6645 -0.1908 0.3067
H14 H 0.8081 -0.2132 0.3543
C15 C 0.8587(5) -0.0488(3) 0.4330(3)
H15 H 0.9012 -0.1006 0.4663
H16 H 0.8377 0.0041 0.4719
H17 H 0.9222 -0.0270 0.3887
O16 O 1.0543(3) -0.3085(2) 0.0637(2)
H18 H 1.1401 -0.3117 0.0639
H19 H 1.0275 -0.2976 0.1139
loop_
_geom_bond_atom_site_label_1
_geom_bond_atom_site_label_2
_geom_bond_site_symmetry_1
_geom_bond_site_symmetry_2
Ni1 O3 1_555 1_555
Ni2 O1 1_555 1_555
Ni3 O2 1_555 1_555
O1 C7 1_555 1_555
O2 C10 1_555 1_555
O3 C10 1_555 1_555
O4 C5 1_555 1_555
O5 C5 1_555 1_555
O6 Ni2 1_555 1_555
O7 C6 1_555 1_555
O8 Ni1 1_555 1_555
H1 O8 1_555 1_555
H2 O8 1_555 1_555
O9 Ni3 1_555 1_555
O10 C8 1_555 1_555
O11 Ni1 1_555 1_555
O12 C12 1_555 1_555
O13 Ni1 1_555 1_555
O14 C7 1_555 1_555
O15 Ni1 1_555 1_555
C1 H3 1_555 1_555
C2 H4 1_555 1_555
C3 C1 1_555 1_555
C4 C3 1_555 1_555
H5 C4 1_555 1_555
C5 C3 1_555 1_555
C6 O13 1_555 1_555
H6 C6 1_555 1_555
C7 C13 1_555 1_555
C8 O6 1_555 1_555
H7 C8 1_555 1_555
C9 C1 1_555 1_555
C10 C9 1_555 1_555
C11 O9 1_555 1_555
H8 C11 1_555 1_555
C12 O11 1_555 1_555
H9 C12 1_555 1_555
C13 C2 1_555 1_555
N1 H10 1_555 1_555
H11 N1 1_555 1_555
C14 N1 1_555 1_555
H12 C14 1_555 1_555
H13 C14 1_555 1_555
H14 C14 1_555 1_555
C15 N1 1_555 1_555
H15 C15 1_555 1_555
H16 C15 1_555 1_555
H17 C15 1_555 1_555
O16 H18 1_555 1_555
H19 O16 1_555 1_555
Ni1A O5 1_555 1_555
Ni2B O4 1_555 1_555
Ni2A O9 1_555 1_555
Ni2C O12 1_555 1_555
Ni3B O7 1_555 1_555
Ni3B_2 O10 1_555 1_555
Ni3A O14 1_555 1_555
O4B Ni2 1_555 1_555
O5A Ni1 1_555 1_555
O7B Ni3 1_555 1_555
O9A Ni2 1_555 1_555
O10B Ni3 1_555 1_555
O12C Ni2 1_555 1_555
O13C Ni2 1_555 1_555
O14A Ni3 1_555 1_555
Ni3 O11 1_555 1_555
O13 Ni2C 1_555 1_555
O15 C11 1_555 1_555
C2 C9 1_555 1_555
C4 C13 1_555 1_555
Ni3A O9A 1_555 1_555

#END
