
#######################################################################
#
#                 Cambridge Crystallographic Data Centre
#                                CCDC 
#
#######################################################################
#
# If this CIF has been generated from an entry in the Cambridge 
# Structural Database, then it will include bibliographic, chemical, 
# crystal, experimental, refinement or atomic coordinate data resulting 
# from the CCDC's data processing and validation procedures.
#
#######################################################################

data_PUNYED
_symmetry_cell_setting           monoclinic
_symmetry_space_group_name_H-M   'P 21/c'
_symmetry_Int_Tables_number      14
_space_group_name_Hall           '-P 2ybc'
loop_
_symmetry_equiv_pos_site_id
_symmetry_equiv_pos_as_xyz
1 x,y,z
2 -x,1/2+y,1/2-z
3 -x,-y,-z
4 x,1/2-y,1/2+z
_cell_length_a                   9.6159(19)
_cell_length_b                   13.904(3)
_cell_length_c                   15.346(3)
_cell_angle_alpha                90
_cell_angle_beta                 91.18(3)
_cell_angle_gamma                90
_cell_volume                     2051.32
loop_
_atom_site_label
_atom_site_type_symbol
_atom_site_fract_x
_atom_site_fract_y
_atom_site_fract_z
Co1 Co 0.28871(5) -0.11497(3) 0.05273(3)
Co2 Co 0.96514(5) -0.26451(3) 0.51998(3)
Co3 Co 0.19454(5) 0.10371(3) 0.15281(3)
O1 O 0.9244(3) -0.17794(17) 0.41152(15)
O2 O 0.4099(2) 0.07732(16) 0.15795(15)
O3 O 0.4396(3) -0.08182(17) 0.14434(16)
O4 O 0.8754(3) 0.16776(17) 0.44980(16)
O5 O 0.7158(3) 0.25331(16) 0.37579(16)
O6 O 0.8353(3) -0.17175(19) 0.58991(16)
O7 O 0.0224(3) -0.12469(18) -0.16504(15)
O8 O 0.4276(3) -0.17791(18) -0.03349(17)
H1 H 0.4755 -0.1387 -0.0592
H2 H 0.4765 -0.2192 -0.0100
O9 O 0.1887(3) 0.13245(17) 0.01845(14)
O10 O 0.8082(3) -0.08471(18) 0.70922(15)
O11 O 0.1480(3) -0.04403(17) 0.13253(16)
O12 O -0.0149(3) -0.15777(18) 0.13943(16)
O13 O 0.1194(2) -0.15042(17) -0.03342(15)
O14 O 0.7627(3) -0.25421(17) 0.32943(18)
O15 O 0.3164(3) 0.00781(17) -0.02554(16)
C1 C 0.6313(3) 0.0867(2) 0.2810(2)
H3 H 0.5882 0.1442 0.2653
C2 C 0.6534(4) -0.0848(2) 0.2659(2)
H4 H 0.6245 -0.1422 0.2401
C3 C 0.7373(4) 0.0864(2) 0.3446(2)
C4 C 0.8032(4) 0.0001(2) 0.3667(2)
H5 H 0.8767 0.0003 0.4070
C5 C 0.7790(4) 0.1772(2) 0.3933(2)
C6 C 0.1223(4) -0.1263(2) -0.1134(2)
H6 H 0.2081 -0.1081 -0.1349
C7 C 0.8225(4) -0.1804(2) 0.3583(2)
C8 C 0.8642(4) -0.1509(3) 0.6670(2)
H7 H 0.9324 -0.1872 0.6956
C9 C 0.5898(3) 0.0007(2) 0.2411(2)
C10 C 0.4710(3) -0.0013(2) 0.1756(2)
C11 C 0.2629(4) 0.0881(2) -0.0360(2)
H8 H 0.2786 0.1188 -0.0887
C12 C 0.0416(4) -0.0825(3) 0.1643(2)
H9 H 0.0017 -0.0511 0.2111
C13 C 0.7602(4) -0.0863(2) 0.3289(2)
Co1A Co 0.71129(5) 0.38503(3) 0.44727(3)
Co2B Co 1.03486(5) 0.26451(3) 0.48002(3)
Co2A Co 0.03486(5) 0.23549(3) -0.01998(3)
Co2C Co -0.03486(5) -0.23549(3) 0.01998(3)
Co3B Co -0.19454(5) -0.10371(3) -0.15281(3)
Co3B_2 Co 0.80546(5) -0.10371(3) 0.84719(3)
Co3A Co 0.80546(5) -0.39629(3) 0.34719(3)
O4B O 1.1246(3) -0.16776(17) 0.55020(16)
O5A O 0.2842(3) -0.24669(16) 0.12421(16)
O7B O -0.0224(3) 0.12469(18) 0.16504(15)
O9A O 0.8113(3) -0.36755(17) 0.48155(14)
O10B O 0.1918(3) 0.08471(18) 0.29078(15)
O12C O 0.9851(3) -0.34223(18) 0.63943(16)
O13C O 1.1194(2) -0.34958(17) 0.46658(15)
O14A O 0.2373(3) 0.24579(17) 0.17057(18)
N1 N 0.7701(4) 0.4154(3) 0.1104(3)
H10 H 0.8110 0.4653 0.1382
H11 H 0.8282 0.3949 0.0691
C14 C 0.6395(6) 0.4485(4) 0.0684(3)
H12 H 0.5802 0.4755 0.1116
H13 H 0.5935 0.3951 0.0407
H14 H 0.6599 0.4966 0.0255
C15 C 0.7476(6) 0.3366(3) 0.1737(3)
H15 H 0.6984 0.3611 0.2228
H16 H 0.8359 0.3114 0.1931
H17 H 0.6941 0.2864 0.1462
O16 O 0.4417(3) 0.1904(3) 0.4387(3)
H18 H 0.3566 0.1872 0.4348
H19 H 0.4770 0.2077 0.3931
loop_
_geom_bond_atom_site_label_1
_geom_bond_atom_site_label_2
_geom_bond_site_symmetry_1
_geom_bond_site_symmetry_2
Co1 O3 1_555 1_555
Co2 O1 1_555 1_555
Co3 O2 1_555 1_555
O1 C7 1_555 1_555
O2 C10 1_555 1_555
O3 C10 1_555 1_555
O4 C5 1_555 1_555
O5 C5 1_555 1_555
O6 Co2 1_555 1_555
O7 C6 1_555 1_555
O8 Co1 1_555 1_555
H1 O8 1_555 1_555
H2 O8 1_555 1_555
O9 Co3 1_555 1_555
O10 C8 1_555 1_555
O11 Co1 1_555 1_555
O12 C12 1_555 1_555
O13 Co1 1_555 1_555
O14 C7 1_555 1_555
O15 Co1 1_555 1_555
C1 H3 1_555 1_555
C2 H4 1_555 1_555
C3 C1 1_555 1_555
C4 C3 1_555 1_555
H5 C4 1_555 1_555
C5 C3 1_555 1_555
C6 O13 1_555 1_555
H6 C6 1_555 1_555
C7 C13 1_555 1_555
C8 O6 1_555 1_555
H7 C8 1_555 1_555
C9 C1 1_555 1_555
C10 C9 1_555 1_555
C11 O9 1_555 1_555
H8 C11 1_555 1_555
C12 O11 1_555 1_555
H9 C12 1_555 1_555
C13 C2 1_555 1_555
N1 H10 1_555 1_555
H11 N1 1_555 1_555
C14 N1 1_555 1_555
H12 C14 1_555 1_555
H13 C14 1_555 1_555
H14 C14 1_555 1_555
C15 N1 1_555 1_555
H15 C15 1_555 1_555
H16 C15 1_555 1_555
H17 C15 1_555 1_555
O16 H18 1_555 1_555
H19 O16 1_555 1_555
Co1A O5 1_555 1_555
Co2B O4 1_555 1_555
Co2A O9 1_555 1_555
Co2C O12 1_555 1_555
Co3B O7 1_555 1_555
Co3B_2 O10 1_555 1_555
Co3A O14 1_555 1_555
O4B Co2 1_555 1_555
O5A Co1 1_555 1_555
O7B Co3 1_555 1_555
O9A Co2 1_555 1_555
O10B Co3 1_555 1_555
O12C Co2 1_555 1_555
O13C Co2 1_555 1_555
O14A Co3 1_555 1_555
Co3 O11 1_555 1_555
O13 Co2C 1_555 1_555
O15 C11 1_555 1_555
C2 C9 1_555 1_555
C4 C13 1_555 1_555
Co3A O9A 1_555 1_555

#END
