
#######################################################################
#
#                 Cambridge Crystallographic Data Centre
#                                CCDC 
#
#######################################################################
#
# If this CIF has been generated from an entry in the Cambridge 
# Structural Database, then it will include bibliographic, chemical, 
# crystal, experimental, refinement or atomic coordinate data resulting 
# from the CCDC's data processing and validation procedures.
#
#######################################################################

data_PUNYIH
_symmetry_cell_setting           monoclinic
_symmetry_space_group_name_H-M   'P 21/c'
_symmetry_Int_Tables_number      14
_space_group_name_Hall           '-P 2ybc'
loop_
_symmetry_equiv_pos_site_id
_symmetry_equiv_pos_as_xyz
1 x,y,z
2 -x,1/2+y,1/2-z
3 -x,-y,-z
4 x,1/2-y,1/2+z
_cell_length_a                   9.756(2)
_cell_length_b                   14.139(3)
_cell_length_c                   15.733(3)
_cell_angle_alpha                90
_cell_angle_beta                 90.96(3)
_cell_angle_gamma                90
_cell_volume                     2169.91
loop_
_atom_site_label
_atom_site_type_symbol
_atom_site_fract_x
_atom_site_fract_y
_atom_site_fract_z
Mn1 Mn -0.20265(5) -0.11774(4) 0.05220(3)
Mn2 Mn -0.30316(5) 0.10292(4) 0.15455(3)
Mn3 Mn 0.46790(5) -0.25960(4) 0.51628(3)
O1 O 0.4247(3) -0.17477(18) 0.40662(17)
O2 O -0.0842(3) 0.07546(17) 0.16175(17)
O3 O -0.0534(3) -0.08045(18) 0.14722(18)
O4 O 0.3618(3) 0.16443(18) 0.45361(18)
O5 O 0.2045(3) 0.24660(18) 0.38006(19)
O6 O -0.3426(3) 0.1622(2) 0.41114(18)
O7 O -0.4738(3) -0.1214(2) -0.16403(17)
O8 O -0.0583(3) -0.1793(2) -0.03772(19)
H1 H -0.0085 -0.2234 -0.0235
H2 H -0.0155 -0.1373 -0.0615
O9 O -0.3070(3) 0.13485(19) 0.01769(16)
O10 O -0.3128(3) 0.07969(19) 0.29274(17)
O11 O -0.3521(3) -0.04804(18) 0.13390(17)
O12 O -0.5102(3) -0.16241(19) 0.13667(18)
O13 O -0.3743(3) -0.15120(19) -0.03771(16)
O14 O 0.2687(3) -0.25061(18) 0.3265(2)
O15 O -0.1834(3) 0.01097(18) -0.02339(18)
C1 C 0.1299(4) 0.0844(2) 0.2847(2)
H3 H 0.0871 0.1409 0.2698
C2 C 0.1571(4) -0.0835(2) 0.2662(2)
H4 H 0.1314 -0.1395 0.2394
C3 C 0.2321(4) 0.0837(2) 0.3479(2)
C4 C 0.2984(4) -0.0006(2) 0.3681(2)
H5 H 0.3689 -0.0008 0.4086
C5 C 0.2684(4) 0.1721(2) 0.3966(2)
C6 C -0.3740(4) -0.1244(3) -0.1145(2)
H6 H -0.2903 -0.1049 -0.1359
C7 C 0.3239(4) -0.1776(2) 0.3555(2)
C8 C -0.3687(4) 0.1434(3) 0.3353(2)
H7 H -0.4354 0.1797 0.3078
C9 C 0.0920(4) 0.0010(2) 0.2439(2)
C10 C -0.0240(4) -0.0020(2) 0.1788(2)
C11 C -0.2369(4) 0.0891(3) -0.0354(2)
H8 H -0.2246 0.1169 -0.0884
C12 C -0.4584(4) -0.0872(3) 0.1621(2)
H9 H -0.5023 -0.0567 0.2064
C13 C 0.2603(4) -0.0845(2) 0.3284(2)
Mn1A Mn 0.20265(5) 0.38226(4) 0.44780(3)
Mn2B Mn -0.69684(5) -0.10292(4) -0.15455(3)
Mn2A Mn 0.30316(5) -0.39708(4) 0.34545(3)
Mn3B Mn 0.53210(5) 0.25960(4) 0.48372(3)
Mn3B_2 Mn -0.46790(5) 0.25960(4) 0.48372(3)
Mn3A Mn -0.46790(5) 0.24040(4) -0.01628(3)
Mn3C Mn -0.53210(5) -0.24040(4) 0.01628(3)
O4B O 0.6382(3) -0.16443(18) 0.54639(18)
O5A O -0.2045(3) -0.25340(18) 0.11994(19)
O6B O 0.3426(3) -0.1622(2) 0.58886(18)
O7B O -0.5262(3) 0.1214(2) 0.16403(17)
O9A O 0.3070(3) -0.36515(19) 0.48231(16)
O12C O 0.4898(3) -0.33759(19) 0.63667(18)
O13C O 0.6257(3) -0.34880(19) 0.46229(16)
O14A O -0.2687(3) 0.24939(18) 0.1735(2)
N1 N -0.2626(4) -0.0862(3) 0.3873(3)
H10 H -0.3019 -0.0367 0.3605
H11 H -0.3200 -0.1056 0.4279
C14 C -0.2446(7) -0.1637(4) 0.3255(4)
H12 H -0.1823 -0.1440 0.2823
H13 H -0.3316 -0.1792 0.2997
H14 H -0.2082 -0.2183 0.3542
C15 C -0.1346(6) -0.0548(5) 0.4277(4)
H15 H -0.0914 -0.1072 0.4561
H16 H -0.1537 -0.0060 0.4682
H17 H -0.0746 -0.0305 0.3852
O16 O 0.0675(4) -0.3120(3) 0.0561(3)
H18 H 0.0296 -0.2904 0.0980
H19 H 0.1481 -0.3218 0.0686
loop_
_geom_bond_atom_site_label_1
_geom_bond_atom_site_label_2
_geom_bond_site_symmetry_1
_geom_bond_site_symmetry_2
Mn1 O3 1_555 1_555
Mn2 O2 1_555 1_555
Mn3 O1 1_555 1_555
O1 C7 1_555 1_555
O2 C10 1_555 1_555
O3 C10 1_555 1_555
O4 C5 1_555 1_555
O5 C5 1_555 1_555
O6 C8 1_555 1_555
O7 C6 1_555 1_555
O8 Mn1 1_555 1_555
H1 O8 1_555 1_555
H2 O8 1_555 1_555
O9 Mn2 1_555 1_555
O10 Mn2 1_555 1_555
O11 Mn1 1_555 1_555
O12 C12 1_555 1_555
O13 Mn1 1_555 1_555
O14 C7 1_555 1_555
O15 Mn1 1_555 1_555
C1 H3 1_555 1_555
C2 H4 1_555 1_555
C3 C1 1_555 1_555
C4 C3 1_555 1_555
H5 C4 1_555 1_555
C5 C3 1_555 1_555
C6 O13 1_555 1_555
H6 C6 1_555 1_555
C7 C13 1_555 1_555
C8 O10 1_555 1_555
H7 C8 1_555 1_555
C9 C1 1_555 1_555
C10 C9 1_555 1_555
C11 O9 1_555 1_555
H8 C11 1_555 1_555
C12 O11 1_555 1_555
H9 C12 1_555 1_555
C13 C2 1_555 1_555
N1 H10 1_555 1_555
H11 N1 1_555 1_555
C14 N1 1_555 1_555
H12 C14 1_555 1_555
H13 C14 1_555 1_555
H14 C14 1_555 1_555
C15 N1 1_555 1_555
H15 C15 1_555 1_555
H16 C15 1_555 1_555
H17 C15 1_555 1_555
O16 H18 1_555 1_555
H19 O16 1_555 1_555
Mn1A O5 1_555 1_555
Mn2B O7 1_555 1_555
Mn2A O14 1_555 1_555
Mn3B O4 1_555 1_555
Mn3B_2 O6 1_555 1_555
Mn3A O9 1_555 1_555
Mn3C O12 1_555 1_555
O4B Mn3 1_555 1_555
O5A Mn1 1_555 1_555
O6B Mn3 1_555 1_555
O7B Mn2 1_555 1_555
O9A Mn3 1_555 1_555
O12C Mn3 1_555 1_555
O13C Mn3 1_555 1_555
O14A Mn2 1_555 1_555
Mn2 O11 1_555 1_555
O13 Mn3C 1_555 1_555
O15 C11 1_555 1_555
C2 C9 1_555 1_555
C4 C13 1_555 1_555
Mn2A O9A 1_555 1_555

#END
