
#######################################################################
#
#                 Cambridge Crystallographic Data Centre
#                                CCDC 
#
#######################################################################
#
# If this CIF has been generated from an entry in the Cambridge 
# Structural Database, then it will include bibliographic, chemical, 
# crystal, experimental, refinement or atomic coordinate data resulting 
# from the CCDC's data processing and validation procedures.
#
#######################################################################

data_PUNYUT
_symmetry_cell_setting           triclinic
_symmetry_space_group_name_H-M   'P -1'
_symmetry_Int_Tables_number      2
_space_group_name_Hall           '-P 1'
loop_
_symmetry_equiv_pos_site_id
_symmetry_equiv_pos_as_xyz
1 x,y,z
2 -x,-y,-z
_cell_length_a                   9.86380(10)
_cell_length_b                   9.992
_cell_length_c                   13.3253(2)
_cell_angle_alpha                111.518(8)
_cell_angle_beta                 102.326(14)
_cell_angle_gamma                99.351(11)
_cell_volume                     1150.98
loop_
_atom_site_label
_atom_site_type_symbol
_atom_site_fract_x
_atom_site_fract_y
_atom_site_fract_z
Cu1 Cu -0.14534(6) -0.65742(6) 0.15908(4)
Mo1 Mo 0.36913(4) -0.42137(4) 0.46570(3)
Mo2 Mo 0.23158(4) -0.74456(4) 0.22643(3)
Mo3 Mo 0.50542(4) -0.50523(5) 0.23125(3)
Mo4 Mo 0.71431(4) -0.26824(4) 0.48623(3)
C1 C 0.0845(5) -0.2910(5) 0.1082(4)
C2 C 0.2281(5) -0.2331(5) 0.1011(4)
C3 C -0.1897(5) -0.4145(5) 0.0962(4)
H1 H -0.2838 -0.4596 0.0885
C4 C -0.0251(5) -0.2300(5) 0.0779(4)
H2 H -0.0058 -0.1482 0.0605
C5 C 0.6000(5) -0.0138(5) 0.2065(4)
C6 C 0.6483(5) 0.0910(5) 0.1667(4)
H3 H 0.5841 0.1020 0.1100
C7 C 0.0524(5) -0.4104(5) 0.1369(4)
H4 H 0.1264 -0.4482 0.1620
C8 C 0.4507(5) -0.1090(5) 0.1461(4)
C9 C 0.8327(6) 0.0647(7) 0.3381(5)
H5 H 0.8979 0.0589 0.3971
C10 C 0.6921(5) -0.0251(6) 0.2944(5)
H6 H 0.6611 -0.0912 0.3241
C11 C 0.8737(5) 0.1625(6) 0.2924(4)
H7 H 0.9680 0.2218 0.3216
C12 C -0.1637(5) -0.2915(6) 0.0736(4)
H8 H -0.2379 -0.2498 0.0555
N1 N 0.3496(4) -0.1607(4) 0.1884(3)
N2 N -0.0835(4) -0.4729(4) 0.1293(3)
N3 N 0.3965(4) -0.1531(5) 0.0374(3)
N4 N 0.2544(4) -0.2305(4) 0.0080(3)
N5 N 0.3607(4) -0.1352(5) 0.3004(3)
H9 H 0.2865 -0.1666 0.3178
H10 H 0.4418 -0.0880 0.3520
N6 N 0.7841(4) 0.1759(4) 0.2078(3)
O1 O -0.0456(4) -0.5335(4) 0.3222(3)
H11 H 0.0414 -0.5305 0.3501
H12 H -0.0898 -0.4836 0.3642
O2 O 0.8615(4) -0.3170(4) 0.4529(3)
O3 O 0.7692(4) -0.0805(4) 0.5549(3)
O4 O 0.1960(4) -0.9302(4) 0.1904(4)
O5 O 0.0774(3) -0.7159(4) 0.1585(3)
O6 O 0.4978(3) -0.2506(4) 0.5248(3)
O7 O 0.4470(4) -0.4636(4) 0.1203(3)
O8 O 0.2146(4) -0.3788(4) 0.4840(3)
O9 O 0.6562(3) -0.5638(4) 0.2159(3)
O10 O 0.3366(3) -0.4817(4) 0.3078(3)
O11 O 0.3833(4) -0.7128(4) 0.1710(3)
O12 O 0.2595(3) -0.6725(4) 0.3833(3)
O13 O 0.5744(3) -0.5023(3) 0.4248(2)
O14 O 0.5971(3) -0.3028(4) 0.3428(3)
Cu1_2 Cu -1.14534(6) -1.65742(6) 0.15908(4)
Cu1A Cu 0.14534(6) -0.34258(6) -0.15908(4)
Cu1_3 Cu 0.85466(6) 0.34258(6) 0.15908(4)
Cu1A_2 Cu 1.14534(6) -0.34258(6) 0.84092(4)
Cu1A_3 Cu -0.85466(6) -1.34258(6) -0.15908(4)
Cu1_4 Cu 0.85466(6) -0.65742(6) 0.15908(4)
Cu1A_4 Cu 0.14534(6) -0.34258(6) 0.84092(4)
Mo1A Mo 0.63087(4) -0.57863(4) 0.53430(3)
Mo2A Mo 0.76842(4) -0.25544(4) 0.77357(3)
Mo3A Mo 0.49458(4) -0.49477(5) 0.76875(3)
Mo4A Mo 0.28569(4) -0.73176(4) 0.51377(3)
C1_2 C -0.9155(5) -1.2910(5) 0.1082(4)
C2_2 C -0.7719(5) -1.2331(5) 0.1011(4)
C3_2 C -1.1897(5) -1.4145(5) 0.0962(4)
H1_2 H -1.2838 -1.4596 0.0885
C4_2 C -1.0251(5) -1.2300(5) 0.0779(4)
H2_2 H -1.0058 -1.1482 0.0605
C5_2 C -0.4000(5) -1.0138(5) 0.2065(4)
C6_2 C -0.3517(5) -0.9090(5) 0.1667(4)
H3_2 H -0.4159 -0.8980 0.1100
C7_2 C -0.9476(5) -1.4104(5) 0.1369(4)
H4_2 H -0.8736 -1.4482 0.1620
C8_2 C -0.5493(5) -1.1090(5) 0.1461(4)
C9_2 C -0.1673(6) -0.9353(7) 0.3381(5)
H5_2 H -0.1021 -0.9411 0.3971
C10_2 C -0.3079(5) -1.0251(6) 0.2944(5)
H6_2 H -0.3389 -1.0912 0.3241
C11_2 C -0.1263(5) -0.8375(6) 0.2924(4)
H7_2 H -0.0320 -0.7782 0.3216
C12_2 C -1.1637(5) -1.2915(6) 0.0736(4)
H8_2 H -1.2379 -1.2498 0.0555
N1_2 N -0.6504(4) -1.1607(4) 0.1884(3)
N2_2 N -1.0835(4) -1.4729(4) 0.1293(3)
N3_2 N -0.6035(4) -1.1531(5) 0.0374(3)
N4_2 N -0.7456(4) -1.2305(4) 0.0080(3)
N4A N -0.2544(4) -0.7695(4) -0.0080(3)
N4A_2 N -1.2544(4) -1.7695(4) -0.0080(3)
N5_2 N -0.6393(4) -1.1352(5) 0.3004(3)
H9_2 H -0.7135 -1.1666 0.3178
H10_2 H -0.5582 -1.0880 0.3520
N6_2 N -0.2159(4) -0.8241(4) 0.2078(3)
N6_3 N -1.2159(4) -1.8241(4) 0.2078(3)
O1_2 O -1.0456(4) -1.5335(4) 0.3222(3)
H11_2 H -0.9586 -1.5305 0.3501
H12_2 H -1.0898 -1.4836 0.3642
O2A O 0.1385(4) -0.6830(4) 0.5471(3)
O3A O 0.2308(4) -0.9195(4) 0.4451(3)
O4A O 0.8040(4) -0.0698(4) 0.8096(4)
O5A O 0.9226(3) -0.2841(4) 0.8415(3)
O5_2 O -0.9226(3) -1.7159(4) 0.1585(3)
O6A O 0.5022(3) -0.7494(4) 0.4752(3)
O7A O 0.5530(4) -0.5364(4) 0.8797(3)
O8A O 0.7854(4) -0.6212(4) 0.5160(3)
O9_2 O -1.3438(3) -1.5638(4) 0.2159(3)
O9_3 O -0.3438(3) -0.5638(4) 0.2159(3)
O9A O 0.3438(3) -0.4362(4) 0.7841(3)
O10A O 0.6634(3) -0.5183(4) 0.6922(3)
O11A O 0.6167(4) -0.2872(4) 0.8290(3)
O12A O 0.7405(3) -0.3275(4) 0.6167(3)
O13A O 0.4256(3) -0.4977(3) 0.5752(2)
O14A O 0.4029(3) -0.6972(4) 0.6572(3)
loop_
_geom_bond_atom_site_label_1
_geom_bond_atom_site_label_2
_geom_bond_site_symmetry_1
_geom_bond_site_symmetry_2
Cu1 N2 1_555 1_555
Mo1 O6 1_555 1_555
Mo2 O4 1_555 1_555
Mo3 O7 1_555 1_555
Mo4 O2 1_555 1_555
C1 C2 1_555 1_555
C2 N1 1_555 1_555
C3 H1 1_555 1_555
C4 C1 1_555 1_555
H2 C4 1_555 1_555
C5 C6 1_555 1_555
C6 H3 1_555 1_555
C7 C1 1_555 1_555
H4 C7 1_555 1_555
C8 C5 1_555 1_555
C9 H5 1_555 1_555
C10 C5 1_555 1_555
H6 C10 1_555 1_555
C11 C9 1_555 1_555
H7 C11 1_555 1_555
C12 C3 1_555 1_555
H8 C12 1_555 1_555
N1 C8 1_555 1_555
N2 C3 1_555 1_555
N3 C8 1_555 1_555
N4 C2 1_555 1_555
N5 N1 1_555 1_555
H9 N5 1_555 1_555
H10 N5 1_555 1_555
N6 C6 1_555 1_555
O1 Cu1 1_555 1_555
H11 O1 1_555 1_555
H12 O1 1_555 1_555
O3 Mo4 1_555 1_555
O5 Cu1 1_555 1_555
O6 Mo4 1_555 1_555
O8 Mo1 1_555 1_555
O9 Mo3 1_555 1_555
O10 Mo1 1_555 1_555
O11 Mo2 1_555 1_555
O12 Mo1 1_555 1_555
O13 Mo1 1_555 1_555
O14 Mo3 1_555 1_555
Cu1_2 N2_2 1_555 1_555
Cu1A N4 1_555 1_555
Cu1_3 N6 1_555 1_555
Cu1A_2 O5A 1_555 1_555
Cu1A_3 N4_2 1_555 1_555
Cu1_4 O9 1_555 1_555
Cu1A_4 O9A 1_555 1_555
Mo1A O13 1_555 1_555
Mo2A O4A 1_555 1_555
Mo3A O7A 1_555 1_555
Mo4A O12 1_555 1_555
C1_2 C2_2 1_555 1_555
C2_2 N1_2 1_555 1_555
C3_2 H1_2 1_555 1_555
C4_2 C1_2 1_555 1_555
H2_2 C4_2 1_555 1_555
C5_2 C6_2 1_555 1_555
C6_2 H3_2 1_555 1_555
C7_2 C1_2 1_555 1_555
H4_2 C7_2 1_555 1_555
C8_2 C5_2 1_555 1_555
C9_2 H5_2 1_555 1_555
C10_2 C5_2 1_555 1_555
H6_2 C10_2 1_555 1_555
C11_2 C9_2 1_555 1_555
H7_2 C11_2 1_555 1_555
C12_2 C3_2 1_555 1_555
H8_2 C12_2 1_555 1_555
N1_2 C8_2 1_555 1_555
N2_2 C3_2 1_555 1_555
N3_2 C8_2 1_555 1_555
N4_2 C2_2 1_555 1_555
N4A Cu1 1_555 1_555
N4A_2 Cu1_2 1_555 1_555
N5_2 N1_2 1_555 1_555
H9_2 N5_2 1_555 1_555
H10_2 N5_2 1_555 1_555
N6_2 Cu1 1_555 1_555
N6_3 Cu1_2 1_555 1_555
O1_2 Cu1_2 1_555 1_555
H11_2 O1_2 1_555 1_555
H12_2 O1_2 1_555 1_555
O2A Mo4A 1_555 1_555
O3A Mo4A 1_555 1_555
O5A Mo2A 1_555 1_555
O5_2 Cu1_2 1_555 1_555
O6A Mo1A 1_555 1_555
O8A Mo1A 1_555 1_555
O9_2 Cu1_2 1_555 1_555
O9_3 Cu1 1_555 1_555
O9A Mo3A 1_555 1_555
O10A Mo1A 1_555 1_555
O11A Mo2A 1_555 1_555
O12A Mo4 1_555 1_555
O13A Mo1 1_555 1_555
O14A Mo3A 1_555 1_555
Mo2 O5 1_555 1_555
Mo2 O10 1_555 1_555
Mo2 O12 1_555 1_555
Mo3 O10 1_555 1_555
Mo3 O11 1_555 1_555
Mo3 O13 1_555 1_555
Mo4 O13 1_555 1_555
Mo4 O14 1_555 1_555
C4 C12 1_555 1_555
C7 N2 1_555 1_555
C9 C10 1_555 1_555
C11 N6 1_555 1_555
N3 N4 1_555 1_555
Mo1A O12A 1_555 1_555
Mo1A O13A 1_555 1_555
Mo2A O10A 1_555 1_555
Mo2A O12A 1_555 1_555
Mo3A O10A 1_555 1_555
Mo3A O11A 1_555 1_555
Mo3A O13A 1_555 1_555
Mo4A O6A 1_555 1_555
Mo4A O13A 1_555 1_555
Mo4A O14A 1_555 1_555
C4_2 C12_2 1_555 1_555
C6_2 N6_2 1_555 1_555
C7_2 N2_2 1_555 1_555
C9_2 C10_2 1_555 1_555
C11_2 N6_2 1_555 1_555
N3_2 N4_2 1_555 1_555

#END
