
#######################################################################
#
#                 Cambridge Crystallographic Data Centre
#                                CCDC 
#
#######################################################################
#
# If this CIF has been generated from an entry in the Cambridge 
# Structural Database, then it will include bibliographic, chemical, 
# crystal, experimental, refinement or atomic coordinate data resulting 
# from the CCDC's data processing and validation procedures.
#
#######################################################################

data_PUNZEE
_symmetry_cell_setting           triclinic
_symmetry_space_group_name_H-M   'P -1'
_symmetry_Int_Tables_number      2
_space_group_name_Hall           '-P 1'
loop_
_symmetry_equiv_pos_site_id
_symmetry_equiv_pos_as_xyz
1 x,y,z
2 -x,-y,-z
_cell_length_a                   6.9347(7)
_cell_length_b                   9.8188(10)
_cell_length_c                   10.3731(10)
_cell_angle_alpha                78.8830(10)
_cell_angle_beta                 86.0230(10)
_cell_angle_gamma                78.4870(10)
_cell_volume                     678.761
loop_
_atom_site_label
_atom_site_type_symbol
_atom_site_fract_x
_atom_site_fract_y
_atom_site_fract_z
Ni1 Ni 0.5000 0.5000 0.5000
Ni2 Ni 0.29276(4) 1.04522(3) 0.55066(3)
P1 P 0.46488(8) 0.73925(5) 0.68148(5)
P2 P 0.14902(8) 0.78973(5) 0.48099(5)
O1 O 0.5496(2) 0.59618(16) 0.64690(16)
O2 O 0.5216(2) 0.86818(15) 0.58680(15)
O3 O 0.5091(2) 0.73824(17) 0.82374(16)
O4 O 0.2822(2) 0.66887(16) 0.43046(15)
O5 O 0.1973(2) 0.93700(15) 0.41583(15)
O6 O -0.0693(2) 0.78943(15) 0.46933(16)
O7 O 0.1322(2) 0.92063(15) 0.68953(15)
H1 H 0.017(2) 0.959(3) 0.664(3)
O8 O 0.2846(3) 0.40067(17) 0.61535(18)
H2 H 0.205(4) 0.385(3) 0.564(2)
H3 H 0.339(4) 0.3230(18) 0.661(2)
O9 O 0.4217(3) 1.11880(17) 0.69588(17)
H4 H 0.5448(17) 1.105(3) 0.677(2)
H5 H 0.404(4) 1.074(3) 0.7736(15)
N1 N 0.2629(3) 0.5158(2) 1.0812(2)
H8 H 0.344(5) 0.442(2) 1.113(4)
C1 C 0.1937(3) 0.7786(2) 0.6590(2)
C2 C 0.0753(3) 0.6758(2) 0.7443(2)
H9 H -0.0635 0.7106 0.7279
H10 H 0.1116 0.5847 0.7171
C3 C 0.1048(3) 0.6552(2) 0.8896(2)
C4 C 0.0085(4) 0.7512(3) 0.9674(3)
H11 H -0.0810 0.8304 0.9300
C5 C 0.0463(5) 0.7284(3) 1.1016(3)
H12 H -0.0153 0.7931 1.1532
C6 C 0.1762(4) 0.6087(3) 1.1560(3)
H13 H 0.2033 0.5926 1.2448
C7 C 0.2312(3) 0.5363(2) 0.9516(2)
H14 H 0.2953 0.4695 0.9028
Ni2A Ni 0.70724(4) -0.04522(3) 0.44934(3)
Ni2A_2 Ni 0.70724(4) 0.95478(3) 0.44934(3)
Ni2A_3 Ni -0.29276(4) 0.95478(3) 0.44934(3)
Ni2_2 Ni 0.29276(4) 0.04522(3) 0.55066(3)
Ni2_3 Ni 1.29276(4) 0.04522(3) 0.55066(3)
P1A P 0.53512(8) 0.26075(5) 0.31852(5)
P2A P 0.85098(8) 0.21027(5) 0.51901(5)
O1A O 0.4504(2) 0.40382(16) 0.35310(16)
O2A O 0.4784(2) 0.13182(15) 0.41320(15)
O2A_2 O 0.4784(2) 1.13182(15) 0.41320(15)
O2_2 O 0.5216(2) -0.13182(15) 0.58680(15)
O3A O 0.4909(2) 0.26176(17) 0.17626(16)
O4A O 0.7178(2) 0.33113(16) 0.56954(15)
O5A O 0.8027(2) 0.06300(15) 0.58417(15)
O6A O 1.0693(2) 0.21057(15) 0.53067(16)
O6A_2 O 0.0693(2) 1.21057(15) 0.53067(16)
O6_2 O 0.9307(2) -0.21057(15) 0.46933(16)
O7A O 0.8678(2) 0.07937(15) 0.31047(15)
H1A H 0.983(2) 0.041(3) 0.336(3)
O8A O 0.7154(3) 0.59933(17) 0.38465(18)
H2A H 0.795(4) 0.615(3) 0.436(2)
H3A H 0.661(4) 0.6770(18) 0.339(2)
O9A O 0.5783(3) -0.11880(17) 0.30412(17)
H4A H 0.4552(17) -0.105(3) 0.323(2)
H5A H 0.596(4) -0.074(3) 0.2264(15)
N1A N 0.7371(3) 0.4842(2) -0.0812(2)
H8A H 0.656(5) 0.558(2) -0.113(4)
C1A C 0.8063(3) 0.2214(2) 0.3410(2)
C2A C 0.9247(3) 0.3242(2) 0.2557(2)
H9A H 1.0635 0.2894 0.2721
H10A H 0.8884 0.4153 0.2829
C3A C 0.8952(3) 0.3448(2) 0.1104(2)
C4A C 0.9915(4) 0.2488(3) 0.0326(3)
H11A H 1.0810 0.1696 0.0700
C5A C 0.9537(5) 0.2716(3) -0.1016(3)
H12A H 1.0153 0.2069 -0.1532
C6A C 0.8238(4) 0.3913(3) -0.1560(3)
H13A H 0.7967 0.4074 -0.2448
C7A C 0.7688(3) 0.4637(2) 0.0484(2)
H14A H 0.7047 0.5305 0.0972
O10 O 0.3533(4) 0.9619(3) 0.9358(2)
H6 H 0.408(5) 0.885(2) 0.912(4)
H7 H 0.435(4) 1.016(3) 0.933(4)
loop_
_geom_bond_atom_site_label_1
_geom_bond_atom_site_label_2
_geom_bond_site_symmetry_1
_geom_bond_site_symmetry_2
Ni1 O1 1_555 1_555
Ni2 O2 1_555 1_555
P1 O1 1_555 1_555
P2 O4 1_555 1_555
O2 P1 1_555 1_555
O3 P1 1_555 1_555
O4 Ni1 1_555 1_555
O5 Ni2 1_555 1_555
O6 P2 1_555 1_555
O7 Ni2 1_555 1_555
H1 O7 1_555 1_555
O8 Ni1 1_555 1_555
H2 O8 1_555 1_555
H3 O8 1_555 1_555
O9 Ni2 1_555 1_555
H4 O9 1_555 1_555
H5 O9 1_555 1_555
O10 H6 1_555 1_555
H7 O10 1_555 1_555
N1 H8 1_555 1_555
C1 P1 1_555 1_555
C2 C1 1_555 1_555
H9 C2 1_555 1_555
H10 C2 1_555 1_555
C3 C2 1_555 1_555
C4 C3 1_555 1_555
H11 C4 1_555 1_555
C5 C4 1_555 1_555
H12 C5 1_555 1_555
C6 N1 1_555 1_555
H13 C6 1_555 1_555
C7 N1 1_555 1_555
H14 C7 1_555 1_555
Ni2A O2A 1_555 1_555
Ni2A_2 O2 1_555 1_555
Ni2A_3 O6 1_555 1_555
Ni2_2 O2A 1_555 1_555
Ni2_3 O6A 1_555 1_555
P1A O1A 1_555 1_555
P2A O4A 1_555 1_555
O1A Ni1 1_555 1_555
O2A P1A 1_555 1_555
O2A_2 Ni2 1_555 1_555
O2_2 Ni2A 1_555 1_555
O3A P1A 1_555 1_555
O4A Ni1 1_555 1_555
O5A Ni2A 1_555 1_555
O6A P2A 1_555 1_555
O6A_2 Ni2 1_555 1_555
O6_2 Ni2A 1_555 1_555
O7A Ni2A 1_555 1_555
H1A O7A 1_555 1_555
O8A Ni1 1_555 1_555
H2A O8A 1_555 1_555
H3A O8A 1_555 1_555
O9A Ni2A 1_555 1_555
H4A O9A 1_555 1_555
H5A O9A 1_555 1_555
N1A H8A 1_555 1_555
C1A P1A 1_555 1_555
C2A C1A 1_555 1_555
H9A C2A 1_555 1_555
H10A C2A 1_555 1_555
C3A C2A 1_555 1_555
C4A C3A 1_555 1_555
H11A C4A 1_555 1_555
C5A C4A 1_555 1_555
H12A C5A 1_555 1_555
C6A N1A 1_555 1_555
H13A C6A 1_555 1_555
C7A N1A 1_555 1_555
H14A C7A 1_555 1_555
P2 O5 1_555 1_555
P2 C1 1_555 1_555
O7 C1 1_555 1_555
C3 C7 1_555 1_555
C5 C6 1_555 1_555
Ni2A_2 O2A_2 1_555 1_555
Ni2_2 O2_2 1_555 1_555
P2A O5A 1_555 1_555
P2A C1A 1_555 1_555
O7A C1A 1_555 1_555
C3A C7A 1_555 1_555
C5A C6A 1_555 1_555

#END
