
#######################################################################
#
#                 Cambridge Crystallographic Data Centre
#                                CCDC 
#
#######################################################################
#
# If this CIF has been generated from an entry in the Cambridge 
# Structural Database, then it will include bibliographic, chemical, 
# crystal, experimental, refinement or atomic coordinate data resulting 
# from the CCDC's data processing and validation procedures.
#
#######################################################################

data_PUNZOO
_symmetry_cell_setting           monoclinic
_symmetry_space_group_name_H-M   'P 21/c'
_symmetry_Int_Tables_number      14
_space_group_name_Hall           '-P 2ybc'
loop_
_symmetry_equiv_pos_site_id
_symmetry_equiv_pos_as_xyz
1 x,y,z
2 -x,1/2+y,1/2-z
3 -x,-y,-z
4 x,1/2-y,1/2+z
_cell_length_a                   9.3805(7)
_cell_length_b                   14.6598(10)
_cell_length_c                   9.6699(7)
_cell_angle_alpha                90
_cell_angle_beta                 92.6650(10)
_cell_angle_gamma                90
_cell_volume                     1328.33
loop_
_atom_site_label
_atom_site_type_symbol
_atom_site_fract_x
_atom_site_fract_y
_atom_site_fract_z
Eu1 Eu 1.38787(2) 1.115046(13) 0.98268(2)
N1 N 1.1265(3) 1.1617(2) 0.8948(3)
O1 O 1.3648(3) 1.2518(2) 0.8446(3)
O2 O 0.6227(3) 1.13240(19) 0.8915(3)
O3 O 1.5221(4) 1.2436(3) 1.1054(4)
H1 H 1.528(6) 1.297(4) 1.065(5)
H2 H 1.505(6) 1.258(4) 1.171(6)
O4 O 1.2545(3) 1.3331(2) 0.6769(3)
O5 O 1.4659(3) 0.9635(2) 0.8569(3)
O6 O 0.7596(3) 1.01416(19) 0.9627(3)
C1 C 1.4008(5) 0.9898(3) 0.7470(4)
O7 O 1.3506(3) 1.0688(2) 0.7393(3)
C2 C 1.2549(4) 1.2767(3) 0.7726(4)
C3 C 1.1163(4) 1.2322(3) 0.8060(4)
H3 H 1.025(5) 1.072(3) 0.986(4)
C4 C 1.3878(7) 0.9243(4) 0.6287(6)
H4 H 1.4830 0.9055 0.6057
H5 H 1.3380 0.8704 0.6591
C5 C 1.3106(6) 0.9601(4) 0.4980(5)
H6 H 1.3424 0.9257 0.4194
H7 H 1.3376 1.0232 0.4850
C6 C 1.1519(8) 0.9545(6) 0.4988(7)
C7 C 1.0759(13) 0.9862(9) 0.6068(13)
H8 H 1.1095 0.9538 0.6894
H9 H 1.1009 1.0499 0.6205
C8 C 1.0897(13) 1.0201(9) 0.4015(13)
H10 H 1.1182 1.0811 0.4299
H11 H 1.1255 1.0090 0.3105
C9 C 0.8717(4) 1.1442(3) 0.8718(4)
C10 C 0.8636(5) 1.2165(3) 0.7821(5)
H12 H 0.7755 1.2356 0.7445
C11 C 0.9866(5) 1.2610(3) 0.7477(5)
H13 H 0.9824 1.3098 0.6861
C12 C 1.0061(4) 1.1193(3) 0.9261(4)
C13 C 0.7405(4) 1.0932(3) 0.9124(4)
Eu1_2 Eu 2.38787(2) 1.115046(13) 0.98268(2)
Eu1_3 Eu 0.38787(2) 1.115046(13) 0.98268(2)
Eu1C Eu 1.38787(2) 1.384954(13) 0.48268(2)
Eu1B Eu 1.61213(2) 0.884954(13) 1.01732(2)
Eu1B_2 Eu 0.61213(2) 0.884954(13) 1.01732(2)
Eu1B_3 Eu 0.61213(2) 0.884954(13) 0.01732(2)
Eu1_4 Eu 0.38787(2) 1.115046(13) -0.01732(2)
Eu1C_2 Eu 2.38787(2) 1.384954(13) 0.48268(2)
N1_2 N 2.1265(3) 1.1617(2) 0.8948(3)
O1_2 O 2.3648(3) 1.2518(2) 0.8446(3)
O2_2 O 1.6227(3) 1.13240(19) 0.8915(3)
O2_3 O 2.6227(3) 1.13240(19) 0.8915(3)
O3_2 O 2.5221(4) 1.2436(3) 1.1054(4)
H1_2 H 2.528(6) 1.297(4) 1.065(5)
H2_2 H 2.505(6) 1.258(4) 1.171(6)
O4_2 O 2.2545(3) 1.3331(2) 0.6769(3)
O4C O 1.2545(3) 1.1669(2) 1.1769(3)
O4C_2 O 2.2545(3) 1.1669(2) 1.1769(3)
O5B O 0.5341(3) 1.0365(2) 0.1431(3)
O5B_2 O 1.5341(3) 1.0365(2) 1.1431(3)
O5_2 O 2.4659(3) 0.9635(2) 0.8569(3)
O5B_3 O 2.5341(3) 1.0365(2) 1.1431(3)
O6_2 O 1.7596(3) 1.01416(19) 0.9627(3)
O6B O 1.2404(3) 0.98584(19) 1.0373(3)
O6B_2 O 2.2404(3) 0.98584(19) 1.0373(3)
C1B C 0.5992(5) 1.0102(3) 0.2530(4)
O7B O 0.6494(3) 0.9312(2) 0.2607(3)
O7_2 O 2.3506(3) 1.0688(2) 0.7393(3)
C2_2 C 2.2549(4) 1.2767(3) 0.7726(4)
C3_2 C 2.1163(4) 1.2322(3) 0.8060(4)
H3_2 H 2.025(5) 1.072(3) 0.986(4)
C4B C 0.6122(7) 1.0757(4) 0.3713(6)
H4B H 0.5170 1.0945 0.3943
H5B H 0.6620 1.1296 0.3409
C5B C 0.6894(6) 1.0399(4) 0.5020(5)
H6B H 0.6576 1.0743 0.5806
H7B H 0.6624 0.9768 0.5150
C6B C 0.8481(8) 1.0455(6) 0.5012(7)
C7B C 0.9241(13) 1.0138(9) 0.3932(13)
H8B H 0.8905 1.0462 0.3106
H9B H 0.8991 0.9501 0.3795
C8B C 0.9103(13) 0.9799(9) 0.5985(13)
H10B H 0.8818 0.9189 0.5701
H11B H 0.8745 0.9910 0.6895
C9_2 C 1.8717(4) 1.1442(3) 0.8718(4)
C10_2 C 1.8636(5) 1.2165(3) 0.7821(5)
H12_2 H 1.7755 1.2356 0.7445
C11_2 C 1.9866(5) 1.2610(3) 0.7477(5)
H13_2 H 1.9824 1.3098 0.6861
C12_2 C 2.0061(4) 1.1193(3) 0.9261(4)
C13_2 C 1.7405(4) 1.0932(3) 0.9124(4)
loop_
_geom_bond_atom_site_label_1
_geom_bond_atom_site_label_2
_geom_bond_site_symmetry_1
_geom_bond_site_symmetry_2
Eu1 N1 1_555 1_555
N1 C3 1_555 1_555
O1 Eu1 1_555 1_555
O2 C13 1_555 1_555
O3 Eu1 1_555 1_555
H1 O3 1_555 1_555
H2 O3 1_555 1_555
O4 C2 1_555 1_555
O5 Eu1 1_555 1_555
O6 C13 1_555 1_555
C1 O5 1_555 1_555
O7 Eu1 1_555 1_555
C2 O1 1_555 1_555
C3 C2 1_555 1_555
H3 C12 1_555 1_555
C4 C1 1_555 1_555
H4 C4 1_555 1_555
H5 C4 1_555 1_555
C5 C4 1_555 1_555
H6 C5 1_555 1_555
H7 C5 1_555 1_555
C6 C5 1_555 1_555
C7 C6 1_555 1_555
H8 C7 1_555 1_555
H9 C7 1_555 1_555
C8 C6 1_555 1_555
H10 C8 1_555 1_555
H11 C8 1_555 1_555
C9 C10 1_555 1_555
C10 H12 1_555 1_555
C11 C3 1_555 1_555
H13 C11 1_555 1_555
C12 N1 1_555 1_555
C13 C9 1_555 1_555
Eu1_2 N1_2 1_555 1_555
Eu1_3 O2 1_555 1_555
Eu1C O4 1_555 1_555
Eu1B O5 1_555 1_555
Eu1B_2 O6 1_555 1_555
Eu1B_3 O5B 1_555 1_555
Eu1_4 O5B 1_555 1_555
Eu1C_2 O4_2 1_555 1_555
N1_2 C3_2 1_555 1_555
O1_2 Eu1_2 1_555 1_555
O2_2 Eu1 1_555 1_555
O2_3 Eu1_2 1_555 1_555
O3_2 Eu1_2 1_555 1_555
H1_2 O3_2 1_555 1_555
H2_2 O3_2 1_555 1_555
O4_2 C2_2 1_555 1_555
O4C Eu1 1_555 1_555
O4C_2 Eu1_2 1_555 1_555
O5B C1B 1_555 1_555
O5B_2 Eu1 1_555 1_555
O5_2 Eu1_2 1_555 1_555
O5B_3 Eu1_2 1_555 1_555
O6_2 Eu1B 1_555 1_555
O6B Eu1 1_555 1_555
O6B_2 Eu1_2 1_555 1_555
C1B O7B 1_555 1_555
O7B Eu1B_3 1_555 1_555
O7_2 Eu1_2 1_555 1_555
C2_2 O1_2 1_555 1_555
C3_2 C2_2 1_555 1_555
H3_2 C12_2 1_555 1_555
C4B C1B 1_555 1_555
H4B C4B 1_555 1_555
H5B C4B 1_555 1_555
C5B C4B 1_555 1_555
H6B C5B 1_555 1_555
H7B C5B 1_555 1_555
C6B C5B 1_555 1_555
C7B C8 1_555 1_555
H8B C7B 1_555 1_555
H9B C7B 1_555 1_555
C8B C7 1_555 1_555
H10B C8B 1_555 1_555
H11B C8B 1_555 1_555
C9_2 C10_2 1_555 1_555
C10_2 H12_2 1_555 1_555
C11_2 C3_2 1_555 1_555
H13_2 C11_2 1_555 1_555
C12_2 N1_2 1_555 1_555
C13_2 O2_2 1_555 1_555
C1 O7 1_555 1_555
C9 C12 1_555 1_555
C10 C11 1_555 1_555
Eu1B O5B_2 1_555 1_555
O6_2 C13_2 1_555 1_555
C6B C7B 1_555 1_555
C6B C8B 1_555 1_555
C9_2 C12_2 1_555 1_555
C9_2 C13_2 1_555 1_555
C10_2 C11_2 1_555 1_555

#END
