
#######################################################################
#
#                 Cambridge Crystallographic Data Centre
#                                CCDC 
#
#######################################################################
#
# If this CIF has been generated from an entry in the Cambridge 
# Structural Database, then it will include bibliographic, chemical, 
# crystal, experimental, refinement or atomic coordinate data resulting 
# from the CCDC's data processing and validation procedures.
#
#######################################################################

data_PUNZUU
_symmetry_cell_setting           monoclinic
_symmetry_space_group_name_H-M   'P 21/c'
_symmetry_Int_Tables_number      14
_space_group_name_Hall           '-P 2ybc'
loop_
_symmetry_equiv_pos_site_id
_symmetry_equiv_pos_as_xyz
1 x,y,z
2 -x,1/2+y,1/2-z
3 -x,-y,-z
4 x,1/2-y,1/2+z
_cell_length_a                   9.4528(9)
_cell_length_b                   14.7166(14)
_cell_length_c                   9.7420(9)
_cell_angle_alpha                90
_cell_angle_beta                 92.7990(10)
_cell_angle_gamma                90
_cell_volume                     1353.62
loop_
_atom_site_label
_atom_site_type_symbol
_atom_site_fract_x
_atom_site_fract_y
_atom_site_fract_z
H1 H 1.523(7) -0.296(2) 1.574(6)
Nd1 Nd 1.387090(19) -0.115236(14) 1.482821(19)
N1 N 1.1248(3) -0.1625(2) 1.3922(3)
C1 C 0.7416(4) -0.0939(3) 1.4121(4)
C2 C 0.8722(4) -0.1453(3) 1.3720(4)
C3 C 0.8633(4) -0.2175(3) 1.2831(4)
H2 H 0.7755 -0.2366 1.2467
C4 C 1.0057(4) -0.1197(3) 1.4241(4)
H3 H 1.0127 -0.0706 1.4840
C5 C 1.4011(4) 0.0090(3) 1.2444(4)
C6 C 1.3868(6) 0.0749(4) 1.1285(5)
H4 H 1.3370 0.1281 1.1597
H5 H 1.4809 0.0942 1.1055
C7 C 1.1517(7) 0.0467(5) 0.9993(6)
C8 C 1.0873(12) -0.0172(8) 0.9026(11)
H6 H 1.1217 -0.0053 0.8122
H7 H 1.1165 -0.0782 0.9290
C9 C 1.0748(11) 0.0127(8) 1.1054(11)
H8 H 1.1010 -0.0506 1.1173
H9 H 1.1072 0.0441 1.1887
C10 C 1.2513(4) -0.2783(3) 1.2727(4)
C11 C 1.1140(4) -0.2326(3) 1.3056(4)
C12 C 0.9848(4) -0.2618(3) 1.2480(4)
H10 H 0.9802 -0.3103 1.1867
C13 C 1.3094(6) 0.0394(4) 0.9982(5)
H11 H 1.3347 -0.0238 0.9858
H12 H 1.3417 0.0731 0.9201
O1 O 1.3533(3) -0.0701(2) 1.2347(3)
O2 O 0.7616(3) -0.01555(18) 1.4631(3)
O3 O 1.4639(3) 0.03518(19) 1.3554(3)
O4 O 1.2501(3) -0.3341(2) 1.1777(3)
O5 O 1.5194(3) -0.2458(2) 1.6092(3)
H13 H 1.4844 -0.2548 1.6834
O6 O 0.6249(3) -0.13377(18) 1.3928(3)
O7 O 1.3597(3) -0.25408(19) 1.3455(3)
H1B H 0.477(7) 0.296(2) 1.426(6)
Nd1B Nd 0.612910(19) 0.115236(14) 1.517179(19)
Nd1B_2 Nd 1.612910(19) 0.115236(14) 1.517179(19)
Nd1C Nd 1.387090(19) -0.384764(14) 0.982821(19)
Nd1_2 Nd 0.387090(19) -0.115236(14) 1.482821(19)
Nd1B_3 Nd 0.612910(19) 0.115236(14) 0.517179(19)
Nd1_3 Nd 0.387090(19) -0.115236(14) 0.482821(19)
Nd1A Nd 0.612910(19) 0.384764(14) 2.017179(19)
N1B N 0.8752(3) 0.1625(2) 1.6078(3)
C1B C 1.2584(4) 0.0939(3) 1.5879(4)
C2B C 1.1278(4) 0.1453(3) 1.6280(4)
C3B C 1.1367(4) 0.2175(3) 1.7169(4)
H2B H 1.2245 0.2366 1.7533
C4B C 0.9943(4) 0.1197(3) 1.5759(4)
H3B H 0.9873 0.0706 1.5160
C5B C 0.5989(4) -0.0090(3) 0.7556(4)
C6B C 0.6132(6) -0.0749(4) 0.8715(5)
H4B H 0.6630 -0.1281 0.8403
H5B H 0.5191 -0.0942 0.8945
C7B C 0.8483(7) -0.0467(5) 1.0007(6)
C8B C 0.9127(12) 0.0172(8) 1.0974(11)
H6B H 0.8783 0.0053 1.1878
H7B H 0.8835 0.0782 1.0710
C9B C 0.9252(11) -0.0127(8) 0.8946(11)
H8B H 0.8990 0.0506 0.8827
H9B H 0.8928 -0.0441 0.8113
C10B C 0.7487(4) 0.2783(3) 1.7273(4)
C11B C 0.8860(4) 0.2326(3) 1.6944(4)
C12B C 1.0152(4) 0.2618(3) 1.7520(4)
H10B H 1.0198 0.3103 1.8133
C13B C 0.6906(6) -0.0394(4) 1.0018(5)
H11B H 0.6653 0.0238 1.0142
H12B H 0.6583 -0.0731 1.0799
O1B O 0.6467(3) 0.0701(2) 0.7653(3)
O1B_2 O 0.6467(3) 0.0701(2) 1.7653(3)
O2B O 1.2384(3) 0.01555(18) 1.5369(3)
O3B O 0.5361(3) -0.03518(19) 0.6446(3)
O3B_2 O 1.5361(3) -0.03518(19) 1.6446(3)
O3B_3 O 0.5361(3) -0.03518(19) 1.6446(3)
O3_2 O 0.4639(3) 0.03518(19) 1.3554(3)
O4B O 0.7499(3) 0.3341(2) 1.8223(3)
O4C O 1.2501(3) -0.1659(2) 1.6777(3)
O4A O 0.7499(3) 0.1659(2) 1.3223(3)
O5B O 0.4806(3) 0.2458(2) 1.3908(3)
H13B H 0.5156 0.2548 1.3166
O6B O 1.3751(3) 0.13377(18) 1.6072(3)
O6_2 O 1.6249(3) -0.13377(18) 1.3928(3)
O6B_2 O 0.3751(3) 0.13377(18) 1.6072(3)
O7B O 0.6403(3) 0.25408(19) 1.6545(3)
loop_
_geom_bond_atom_site_label_1
_geom_bond_atom_site_label_2
_geom_bond_site_symmetry_1
_geom_bond_site_symmetry_2
H1 O5 1_555 1_555
Nd1 N1 1_555 1_555
N1 C4 1_555 1_555
C1 C2 1_555 1_555
C2 C3 1_555 1_555
C3 H2 1_555 1_555
C4 C2 1_555 1_555
H3 C4 1_555 1_555
C5 C6 1_555 1_555
C6 H4 1_555 1_555
H5 C6 1_555 1_555
C7 C8 1_555 1_555
C8 H6 1_555 1_555
H7 C8 1_555 1_555
C9 C7 1_555 1_555
H8 C9 1_555 1_555
H9 C9 1_555 1_555
C10 C11 1_555 1_555
C11 N1 1_555 1_555
C12 C3 1_555 1_555
H10 C12 1_555 1_555
C13 C6 1_555 1_555
H11 C13 1_555 1_555
H12 C13 1_555 1_555
O1 Nd1 1_555 1_555
O2 C1 1_555 1_555
O3 Nd1 1_555 1_555
O4 C10 1_555 1_555
O5 Nd1 1_555 1_555
H13 O5 1_555 1_555
O6 C1 1_555 1_555
O7 Nd1 1_555 1_555
H1B O5B 1_555 1_555
Nd1B O2 1_555 1_555
Nd1B_2 O3 1_555 1_555
Nd1C O4 1_555 1_555
Nd1_2 O6 1_555 1_555
Nd1B_3 O1B 1_555 1_555
Nd1_3 O3B 1_555 1_555
Nd1A O4B 1_555 1_555
N1B Nd1B 1_555 1_555
C1B C2B 1_555 1_555
C2B C3B 1_555 1_555
C3B H2B 1_555 1_555
C4B N1B 1_555 1_555
H3B C4B 1_555 1_555
C5B C6B 1_555 1_555
C6B H4B 1_555 1_555
H5B C6B 1_555 1_555
C7B C8B 1_555 1_555
C8B C9 1_555 1_555
H6B C8B 1_555 1_555
H7B C8B 1_555 1_555
C9B C8 1_555 1_555
H8B C9B 1_555 1_555
H9B C9B 1_555 1_555
C10B C11B 1_555 1_555
C11B N1B 1_555 1_555
C12B C3B 1_555 1_555
H10B C12B 1_555 1_555
C13B C6B 1_555 1_555
H11B C13B 1_555 1_555
H12B C13B 1_555 1_555
O1B C5B 1_555 1_555
O1B_2 Nd1B 1_555 1_555
O2B Nd1 1_555 1_555
O3B Nd1B_3 1_555 1_555
O3B_2 Nd1 1_555 1_555
O3B_3 Nd1B 1_555 1_555
O3_2 Nd1B 1_555 1_555
O4B C10B 1_555 1_555
O4C Nd1 1_555 1_555
O4A Nd1B 1_555 1_555
O5B Nd1B 1_555 1_555
H13B O5B 1_555 1_555
O6B Nd1B_2 1_555 1_555
O6_2 Nd1 1_555 1_555
O6B_2 Nd1B 1_555 1_555
O7B Nd1B 1_555 1_555
C5 O1 1_555 1_555
C5 O3 1_555 1_555
C7 C13 1_555 1_555
C10 O7 1_555 1_555
C11 C12 1_555 1_555
Nd1B_2 O3B_2 1_555 1_555
Nd1_2 O3B_3 1_555 1_555
Nd1_2 O3_2 1_555 1_555
C1B O2B 1_555 1_555
C1B O6B 1_555 1_555
C2B C4B 1_555 1_555
C5B O3B 1_555 1_555
C7B C9B 1_555 1_555
C7B C13B 1_555 1_555
C10B O7B 1_555 1_555
C11B C12B 1_555 1_555

#END
