
#######################################################################
#
#                 Cambridge Crystallographic Data Centre
#                                CCDC 
#
#######################################################################
#
# If this CIF has been generated from an entry in the Cambridge 
# Structural Database, then it will include bibliographic, chemical, 
# crystal, experimental, refinement or atomic coordinate data resulting 
# from the CCDC's data processing and validation procedures.
#
#######################################################################

data_PUPBAE
_symmetry_cell_setting           monoclinic
_symmetry_space_group_name_H-M   'P 21/c'
_symmetry_Int_Tables_number      14
_space_group_name_Hall           '-P 2ybc'
loop_
_symmetry_equiv_pos_site_id
_symmetry_equiv_pos_as_xyz
1 x,y,z
2 -x,1/2+y,1/2-z
3 -x,-y,-z
4 x,1/2-y,1/2+z
_cell_length_a                   9.4027(7)
_cell_length_b                   14.6827(10)
_cell_length_c                   9.6860(7)
_cell_angle_alpha                90
_cell_angle_beta                 92.6700(10)
_cell_angle_gamma                90
_cell_volume                     1335.77
loop_
_atom_site_label
_atom_site_type_symbol
_atom_site_fract_x
_atom_site_fract_y
_atom_site_fract_z
H1 H 1.022(5) 0.208(2) 1.067(5)
Sm1 Sm 0.887802(13) 0.385037(9) 0.982582(14)
N1 N 0.6260(2) 0.16179(15) 1.3936(2)
O1 O 0.8515(2) 0.43090(15) 0.7378(2)
O2 O 0.2605(2) 0.01438(13) 1.4627(2)
O3 O 0.9653(2) 0.53588(14) 0.8569(2)
O4 O 0.7530(2) 0.33344(14) 1.1773(2)
O5 O 1.0222(2) 0.25573(17) 1.1070(2)
H2 H 0.9873 0.2462 1.1816
O6 O 0.1236(2) 0.13259(13) 1.3915(2)
O7 O 0.8633(2) 0.25245(13) 1.3451(2)
C1 C 0.2410(3) 0.09251(19) 1.4120(3)
C2 C 0.3719(3) 0.14423(19) 1.3719(3)
C3 C 0.3634(3) 0.2168(2) 1.2819(3)
H3 H 0.2755 0.2357 1.2444
C4 C 0.5063(3) 0.11930(18) 1.4254(3)
H4 H 0.5131 0.0705 1.4865
C5 C 0.9007(3) 0.5096(2) 0.7466(3)
C6 C 0.8882(5) 0.5752(3) 0.6282(4)
H5 H 0.8391 0.6292 0.6585
H6 H 0.9832 0.5935 0.6049
C7 C 0.8108(5) 0.5397(3) 0.4983(4)
H7 H 0.8376 0.4766 0.4852
H8 H 0.8422 0.5740 0.4198
C8 C 0.6527(6) 0.5452(4) 0.4996(5)
C9 C 0.5880(9) 0.4802(6) 0.4013(9)
H9 H 0.6255 0.4908 0.3110
H10 H 0.6149 0.4190 0.4298
C10 C 0.5754(9) 0.5134(6) 0.6109(9)
H11 H 0.6078 0.5468 0.6929
H12 H 0.6005 0.4500 0.6262
C11 C 0.7543(3) 0.27670(18) 1.2724(3)
C12 C 0.6152(3) 0.23215(18) 1.3056(3)
C13 C 0.4868(3) 0.2613(2) 1.2476(4)
H13 H 0.4829 0.3101 1.1864
H1B H -0.022(5) 0.792(2) -0.067(5)
Sm1B Sm 0.112198(13) 0.614963(9) 0.017418(14)
Sm1C Sm 0.887802(13) 0.114963(9) 1.482582(14)
Sm1A Sm 0.112198(13) -0.114963(9) 1.517418(14)
Sm1B_2 Sm 1.112198(13) 0.614963(9) 1.017418(14)
Sm1C_2 Sm -0.112198(13) 0.114963(9) 1.482582(14)
Sm1_2 Sm -0.112198(13) 0.385037(9) -0.017418(14)
Sm1B_3 Sm 0.112198(13) 0.614963(9) 1.017418(14)
Sm1C_3 Sm 0.887802(13) 0.114963(9) 0.482582(14)
Sm1_3 Sm -0.112198(13) 0.385037(9) 0.982582(14)
N1C N 0.6260(2) 0.33821(15) 0.8936(2)
N1A N 0.3740(2) 0.66179(15) 0.1064(2)
O1B O 0.1485(2) 0.56910(15) 0.2622(2)
O2C O 0.2605(2) 0.48562(13) 0.9627(2)
O2A O 0.7395(2) 0.51438(13) 1.0373(2)
O2C_2 O 0.2605(2) 0.48562(13) -0.0373(2)
O3B O 0.0347(2) 0.46412(14) 0.1431(2)
O3B_2 O 1.0347(2) 0.46412(14) 1.1431(2)
O3_2 O -0.0347(2) 0.53588(14) -0.1431(2)
O4C O 0.7530(2) 0.16656(14) 0.6773(2)
O4B O 0.2470(2) 0.66656(14) -0.1773(2)
O5B O -0.0222(2) 0.74427(17) -0.1070(2)
H2B H 0.0127 0.7538 -0.1816
O6C O 0.1236(2) 0.36741(13) 0.8915(2)
O6C_2 O 1.1236(2) 0.36741(13) 0.8915(2)
O6A O -0.1236(2) 0.63259(13) 0.1085(2)
O7C O 0.8633(2) 0.24755(13) 0.8451(2)
O7A O 0.1367(2) 0.75245(13) 0.1549(2)
C1C C 0.2410(3) 0.40749(19) 0.9120(3)
C2C C 0.3719(3) 0.35577(19) 0.8719(3)
C3C C 0.3634(3) 0.2832(2) 0.7819(3)
H3C H 0.2755 0.2643 0.7444
C4C C 0.5063(3) 0.38070(18) 0.9254(3)
H4C H 0.5131 0.4295 0.9865
C5B C 0.0993(3) 0.4904(2) 0.2534(3)
C6B C 0.1118(5) 0.4248(3) 0.3718(4)
H5B H 0.1609 0.3708 0.3415
H6B H 0.0168 0.4065 0.3951
C7B C 0.1892(5) 0.4603(3) 0.5017(4)
H7B H 0.1624 0.5234 0.5148
H8B H 0.1578 0.4260 0.5802
C8B C 0.3473(6) 0.4548(4) 0.5004(5)
C9B C 0.4120(9) 0.5198(6) 0.5987(9)
H9B H 0.3745 0.5092 0.6890
H10B H 0.3851 0.5810 0.5702
C10B C 0.4246(9) 0.4866(6) 0.3891(9)
H11B H 0.3922 0.4532 0.3071
H12B H 0.3995 0.5500 0.3738
C11C C 0.7543(3) 0.22330(18) 0.7724(3)
C12C C 0.6152(3) 0.26785(18) 0.8056(3)
C13C C 0.4868(3) 0.2387(2) 0.7476(4)
H13C H 0.4829 0.1899 0.6864
loop_
_geom_bond_atom_site_label_1
_geom_bond_atom_site_label_2
_geom_bond_site_symmetry_1
_geom_bond_site_symmetry_2
H1 O5 1_555 1_555
Sm1 O1 1_555 1_555
N1 C4 1_555 1_555
O1 C5 1_555 1_555
O2 C1 1_555 1_555
O3 Sm1 1_555 1_555
O4 Sm1 1_555 1_555
O5 Sm1 1_555 1_555
H2 O5 1_555 1_555
O6 C1 1_555 1_555
O7 C11 1_555 1_555
C1 C2 1_555 1_555
C2 C3 1_555 1_555
C3 H3 1_555 1_555
C4 C2 1_555 1_555
H4 C4 1_555 1_555
C5 O3 1_555 1_555
C6 C5 1_555 1_555
H5 C6 1_555 1_555
H6 C6 1_555 1_555
C7 C6 1_555 1_555
H7 C7 1_555 1_555
H8 C7 1_555 1_555
C8 C7 1_555 1_555
C9 C8 1_555 1_555
H9 C9 1_555 1_555
H10 C9 1_555 1_555
C10 C8 1_555 1_555
H11 C10 1_555 1_555
H12 C10 1_555 1_555
C11 O4 1_555 1_555
C12 N1 1_555 1_555
C13 C3 1_555 1_555
H13 C13 1_555 1_555
H1B O5B 1_555 1_555
Sm1B N1A 1_555 1_555
Sm1C N1 1_555 1_555
Sm1A O2 1_555 1_555
Sm1B_2 O3 1_555 1_555
Sm1C_2 O6 1_555 1_555
Sm1_2 O3B 1_555 1_555
Sm1B_3 O2C 1_555 1_555
Sm1C_3 O4C 1_555 1_555
Sm1_3 O6C 1_555 1_555
N1C Sm1 1_555 1_555
O1B Sm1B 1_555 1_555
O2C C1C 1_555 1_555
O2A Sm1 1_555 1_555
O2C_2 Sm1B 1_555 1_555
O3B Sm1B 1_555 1_555
O3B_2 Sm1 1_555 1_555
O3_2 Sm1B 1_555 1_555
O4C C11C 1_555 1_555
O4B Sm1B 1_555 1_555
O5B Sm1B 1_555 1_555
H2B O5B 1_555 1_555
O6C C1C 1_555 1_555
O6C_2 Sm1 1_555 1_555
O6A Sm1B 1_555 1_555
O7C Sm1 1_555 1_555
O7A Sm1B 1_555 1_555
C1C C2C 1_555 1_555
C2C C3C 1_555 1_555
C3C H3C 1_555 1_555
C4C N1C 1_555 1_555
H4C C4C 1_555 1_555
C5B O1B 1_555 1_555
C6B C5B 1_555 1_555
H5B C6B 1_555 1_555
H6B C6B 1_555 1_555
C7B C6B 1_555 1_555
H7B C7B 1_555 1_555
H8B C7B 1_555 1_555
C8B C7B 1_555 1_555
C9B C10 1_555 1_555
H9B C9B 1_555 1_555
H10B C9B 1_555 1_555
C10B C9 1_555 1_555
H11B C10B 1_555 1_555
H12B C10B 1_555 1_555
C11C O7C 1_555 1_555
C12C N1C 1_555 1_555
C13C C3C 1_555 1_555
H13C C13C 1_555 1_555
O7 Sm1C 1_555 1_555
C11 C12 1_555 1_555
C12 C13 1_555 1_555
Sm1B_2 O3B_2 1_555 1_555
Sm1_2 O3_2 1_555 1_555
O3B C5B 1_555 1_555
C2C C4C 1_555 1_555
C8B C9B 1_555 1_555
C8B C10B 1_555 1_555
C11C C12C 1_555 1_555
C12C C13C 1_555 1_555

#END
