
#######################################################################
#
#                 Cambridge Crystallographic Data Centre
#                                CCDC 
#
#######################################################################
#
# If this CIF has been generated from an entry in the Cambridge 
# Structural Database, then it will include bibliographic, chemical, 
# crystal, experimental, refinement or atomic coordinate data resulting 
# from the CCDC's data processing and validation procedures.
#
#######################################################################

data_PUPDIP
_symmetry_cell_setting           trigonal
_symmetry_space_group_name_H-M   'P 31 2 1'
_symmetry_Int_Tables_number      152
_space_group_name_Hall           'P 31 2"'
loop_
_symmetry_equiv_pos_site_id
_symmetry_equiv_pos_as_xyz
1 x,y,z
2 -y,x-y,1/3+z
3 -x+y,-x,2/3+z
4 y,x,-z
5 x-y,-y,2/3-z
6 -x,-x+y,1/3-z
_cell_length_a                   10.8114(3)
_cell_length_b                   10.8114(3)
_cell_length_c                   18.5284(6)
_cell_angle_alpha                90
_cell_angle_beta                 90
_cell_angle_gamma                120
_cell_volume                     1875.57
loop_
_atom_site_label
_atom_site_type_symbol
_atom_site_fract_x
_atom_site_fract_y
_atom_site_fract_z
Rh1 Rh 1.00513(3) 0.17002(3) 0.977233(11)
C1 C 1.0474(4) 0.1801(3) 0.88073(17)
O1 O 1.0745(3) 0.1914(3) 0.82098(12)
C2 C 0.8396(5) -0.0003(5) 0.9626(2)
O2 O 0.7359(4) -0.1042(4) 0.9536(2)
C3 C 1.0336(4) 0.2640(3) 1.12910(15)
O3 O 0.9580(3) 0.1691(2) 1.08280(11)
C4 C 1.1645(4) 0.3859(4) 1.11878(16)
C5 C 1.2424(4) 0.4892(4) 1.18142(17)
H1 H 1.1776 0.5175 1.2044
H2 H 1.2693 0.4405 1.2182
C6 C 1.3755(4) 0.6215(5) 1.15486(19)
H3 H 1.4326 0.6923 1.1932
C7 C 1.4609(5) 0.5760(5) 1.10620(19)
H4 H 1.4504 0.4821 1.1186
H5 H 1.5624 0.6498 1.0999
C8 C 1.3612(4) 0.5709(4) 1.04480(18)
H6 H 1.4051 0.5987 0.9957
C9 C 1.2279(4) 0.4294(4) 1.05020(16)
O4 O 1.1816(3) 0.3622(2) 0.99080(11)
C10 C 1.3447(5) 0.6861(4) 1.0865(2)
C11 C 1.2033(5) 0.6821(5) 1.0824(2)
H7 H 1.1258 0.5855 1.0935
H8 H 1.1900 0.7087 1.0336
H9 H 1.2023 0.7497 1.1173
C12 C 1.4631(6) 0.8366(5) 1.0693(3)
H10 H 1.5556 0.8406 1.0715
H11 H 1.4615 0.9034 1.1045
H12 H 1.4487 0.8630 1.0207
C3E C 0.9664(4) 0.2304(5) 1.20423(15)
O3E O 1.0420(3) 0.2111(4) 1.25053(11)
C4E C 0.8355(4) 0.2214(6) 1.21455(16)
C5E C 0.7576(4) 0.2468(6) 1.15191(17)
H1E H 0.8224 0.3399 1.1289
H2E H 0.7307 0.1712 1.1151
C6E C 0.6245(4) 0.2460(6) 1.17847(19)
H3E H 0.5674 0.2597 1.1401
C7E C 0.5391(5) 0.1151(7) 1.22713(19)
H4E H 0.5496 0.0317 1.2147
H5E H 0.4376 0.0874 1.2334
C8E C 0.6388(4) 0.2097(6) 1.28853(18)
H6E H 0.5949 0.1936 1.3376
C9E C 0.7721(4) 0.2015(6) 1.28313(16)
O4E O 0.8184(3) 0.1806(4) 1.34253(11)
C10E C 0.6553(5) 0.3414(6) 1.2468(2)
C11E C 0.7967(5) 0.4788(7) 1.2509(2)
H7E H 0.8742 0.4597 1.2398
H8E H 0.8100 0.5187 1.2997
H9E H 0.7977 0.5474 1.2160
C12E C 0.5369(6) 0.3735(8) 1.2640(3)
H10E H 0.4444 0.2850 1.2618
H11E H 0.5385 0.4419 1.2288
H12E H 0.5513 0.4143 1.3126
Rh1C Rh 1.17002(3) 0.00513(3) 1.022767(11)
C1C C 1.1801(3) 0.0474(4) 1.11927(17)
O1C O 1.1914(3) 0.0745(3) 1.17902(12)
C2C C 0.9997(5) -0.1604(5) 1.0374(2)
O2C O 0.8958(4) -0.2641(4) 1.0464(2)
Rh1E Rh 0.99487(3) 0.16489(4) 1.356100(11)
O3C O 1.1691(2) -0.0420(3) 0.91720(11)
O4C O 1.3622(2) 0.1816(3) 1.00920(11)
loop_
_geom_bond_atom_site_label_1
_geom_bond_atom_site_label_2
_geom_bond_site_symmetry_1
_geom_bond_site_symmetry_2
Rh1 C1 1_555 1_555
C1 O1 1_555 1_555
C2 Rh1 1_555 1_555
O2 C2 1_555 1_555
C3 O3 1_555 1_555
O3 Rh1 1_555 1_555
C4 C3 1_555 1_555
C5 C4 1_555 1_555
H1 C5 1_555 1_555
H2 C5 1_555 1_555
C6 C5 1_555 1_555
H3 C6 1_555 1_555
C7 C6 1_555 1_555
H4 C7 1_555 1_555
H5 C7 1_555 1_555
C8 C7 1_555 1_555
H6 C8 1_555 1_555
C9 C4 1_555 1_555
O4 Rh1 1_555 1_555
C10 C6 1_555 1_555
C11 C10 1_555 1_555
H7 C11 1_555 1_555
H8 C11 1_555 1_555
H9 C11 1_555 1_555
C12 C10 1_555 1_555
H10 C12 1_555 1_555
H11 C12 1_555 1_555
H12 C12 1_555 1_555
C3E C3 1_555 1_555
O3E C3E 1_555 1_555
C4E C3E 1_555 1_555
C5E C4E 1_555 1_555
H1E C5E 1_555 1_555
H2E C5E 1_555 1_555
C6E C5E 1_555 1_555
H3E C6E 1_555 1_555
C7E C6E 1_555 1_555
H4E C7E 1_555 1_555
H5E C7E 1_555 1_555
C8E C7E 1_555 1_555
H6E C8E 1_555 1_555
C9E C4E 1_555 1_555
O4E C9E 1_555 1_555
C10E C6E 1_555 1_555
C11E C10E 1_555 1_555
H7E C11E 1_555 1_555
H8E C11E 1_555 1_555
H9E C11E 1_555 1_555
C12E C10E 1_555 1_555
H10E C12E 1_555 1_555
H11E C12E 1_555 1_555
H12E C12E 1_555 1_555
Rh1C Rh1 1_555 1_555
C1C Rh1C 1_555 1_555
O1C C1C 1_555 1_555
C2C Rh1C 1_555 1_555
O2C C2C 1_555 1_555
Rh1E O3E 1_555 1_555
O3C Rh1C 1_555 1_555
O4C Rh1C 1_555 1_555
C8 C9 1_555 1_555
C8 C10 1_555 1_555
C9 O4 1_555 1_555
C8E C9E 1_555 1_555
C8E C10E 1_555 1_555
O4E Rh1E 1_555 1_555

#END
