
#######################################################################
#
#                 Cambridge Crystallographic Data Centre
#                                CCDC 
#
#######################################################################
#
# If this CIF has been generated from an entry in the Cambridge 
# Structural Database, then it will include bibliographic, chemical, 
# crystal, experimental, refinement or atomic coordinate data resulting 
# from the CCDC's data processing and validation procedures.
#
#######################################################################

data_PUPFUD
_symmetry_cell_setting           triclinic
_symmetry_space_group_name_H-M   'P -1'
_symmetry_Int_Tables_number      2
_space_group_name_Hall           '-P 1'
loop_
_symmetry_equiv_pos_site_id
_symmetry_equiv_pos_as_xyz
1 x,y,z
2 -x,-y,-z
_cell_length_a                   10.370(2)
_cell_length_b                   10.700(2)
_cell_length_c                   10.810(2)
_cell_angle_alpha                98.29(3)
_cell_angle_beta                 116.81(3)
_cell_angle_gamma                91.25(3)
_cell_volume                     1054.21
loop_
_atom_site_label
_atom_site_type_symbol
_atom_site_fract_x
_atom_site_fract_y
_atom_site_fract_z
Cu1 Cu 0.00438(7) 0.41483(6) 0.14069(6)
S1 S 0.17730(13) 0.49073(11) 0.02094(12)
S2 S -0.01125(13) 0.19639(10) 0.10415(12)
S3 S 0.13921(12) 0.51060(10) 0.37019(12)
N1 N 0.3639(4) 0.3600(4) 0.4392(4)
N2 N 0.0894(4) 0.1256(3) -0.0861(4)
N3 N 0.3148(4) 0.4385(4) -0.1450(4)
N4 N 0.1804(4) 0.2778(4) 0.4559(4)
N5 N 0.3397(4) 0.3024(4) -0.0087(4)
C1 C 0.2278(5) 0.3804(4) 0.4232(4)
N6 N -0.1316(4) 0.1675(4) -0.1847(4)
C2 C 0.2762(5) 0.4101(4) -0.0483(5)
C3 C -0.0190(5) 0.1625(4) -0.0597(4)
C4 C 0.3255(5) 0.2337(4) 0.0914(5)
H1 H 0.2803 0.2848 0.1398
H2 H 0.4213 0.2200 0.1612
C5 C 0.4619(5) 0.4527(5) 0.4294(4)
H3 H 0.4079 0.4982 0.3532
H4 H 0.5340 0.4100 0.4098
C6 C 0.0377(6) 0.2568(5) 0.4501(6)
H5 H 0.0203 0.3299 0.5012
H6 H 0.0351 0.1838 0.4915
H7 H -0.0359 0.2427 0.3538
C7 C 0.3978(5) 0.2416(5) 0.4771(5)
H8 H 0.4829 0.2045 0.4926
C8 C 0.2841(6) 0.1912(5) 0.4870(5)
H9 H 0.2759 0.1122 0.5105
C9 C 0.2772(6) 0.5517(5) -0.2132(6)
H10 H 0.2768 0.6220 -0.1473
H11 H 0.1828 0.5345 -0.2930
H12 H 0.3477 0.5722 -0.2437
C10 C 0.0451(7) 0.1089(5) -0.2291(6)
H13 H 0.1007 0.0838 -0.2742
C11 C 0.2354(5) 0.1064(4) 0.0213(6)
H14 H 0.2829 0.0528 -0.0225
H15 H 0.2271 0.0644 0.0914
C12 C -0.0924(7) 0.1357(5) -0.2901(5)
H16 H -0.1508 0.1334 -0.3859
C13 C -0.2783(6) 0.1969(5) -0.2088(6)
H17 H -0.2799 0.2171 -0.1201
H18 H -0.3467 0.1246 -0.2650
H19 H -0.3040 0.2681 -0.2570
C14 C 0.4020(6) 0.3516(5) -0.1660(6)
H20 H 0.4429 0.3522 -0.2267
C15 C 0.4170(6) 0.2655(5) -0.0822(6)
H21 H 0.4690 0.1950 -0.0750
S3A S 0.86079(12) 0.48940(10) 0.62981(12)
N1A N 0.6361(4) 0.6400(4) 0.5608(4)
N4A N 0.8196(4) 0.7222(4) 0.5441(4)
C1A C 0.7722(5) 0.6196(4) 0.5768(4)
C5A C 0.5381(5) 0.5473(5) 0.5706(4)
H3A H 0.5921 0.5018 0.6468
H4A H 0.4660 0.5900 0.5902
C6A C 0.9623(6) 0.7432(5) 0.5499(6)
H5A H 0.9797 0.6701 0.4988
H6A H 0.9649 0.8162 0.5085
H7A H 1.0359 0.7573 0.6462
C7A C 0.6022(5) 0.7584(5) 0.5229(5)
H8A H 0.5171 0.7955 0.5074
C8A C 0.7159(6) 0.8088(5) 0.5130(5)
H9A H 0.7241 0.8878 0.4895
Cu1A Cu -0.00438(7) 0.58517(6) -0.14069(6)
S1A S -0.17730(13) 0.50927(11) -0.02094(12)
S2A S 0.01125(13) 0.80361(10) -0.10415(12)
N2A N -0.0894(4) 0.8744(3) 0.0861(4)
N3A N -0.3148(4) 0.5615(4) 0.1450(4)
N5A N -0.3397(4) 0.6976(4) 0.0087(4)
N6A N 0.1316(4) 0.8325(4) 0.1847(4)
C2A C -0.2762(5) 0.5899(4) 0.0483(5)
C3A C 0.0190(5) 0.8375(4) 0.0597(4)
C4A C -0.3255(5) 0.7663(4) -0.0914(5)
H1A H -0.2803 0.7152 -0.1398
H2A H -0.4213 0.7800 -0.1612
C9A C -0.2772(6) 0.4483(5) 0.2132(6)
H10A H -0.2768 0.3780 0.1473
H11A H -0.1828 0.4655 0.2930
H12A H -0.3477 0.4278 0.2437
C10A C -0.0451(7) 0.8911(5) 0.2291(6)
H13A H -0.1007 0.9162 0.2742
C11A C -0.2354(5) 0.8936(4) -0.0213(6)
H14A H -0.2829 0.9472 0.0225
H15A H -0.2271 0.9356 -0.0914
C12A C 0.0924(7) 0.8643(5) 0.2901(5)
H16A H 0.1508 0.8666 0.3859
C13A C 0.2783(6) 0.8031(5) 0.2088(6)
H17A H 0.2799 0.7829 0.1201
H18A H 0.3467 0.8754 0.2650
H19A H 0.3040 0.7319 0.2570
C14A C -0.4020(6) 0.6484(5) 0.1660(6)
H20A H -0.4429 0.6478 0.2267
C15A C -0.4170(6) 0.7345(5) 0.0822(6)
H21A H -0.4690 0.8050 0.0750
Cu1A_2 Cu 0.99562(7) 0.58517(6) 0.85931(6)
S3A_2 S -0.13921(12) 0.48940(10) -0.37019(12)
F1 F 0.7798(3) 0.0335(3) 0.3722(3)
F2 F 0.6607(5) 0.2101(4) 0.3541(5)
B1 B 0.6493(6) 0.0861(5) 0.3026(6)
F3 F 0.5493(6) 0.0294(6) 0.3257(11)
F4 F 0.6091(9) 0.0682(8) 0.1682(5)
loop_
_geom_bond_atom_site_label_1
_geom_bond_atom_site_label_2
_geom_bond_site_symmetry_1
_geom_bond_site_symmetry_2
Cu1 S1 1_555 1_555
S1 C2 1_555 1_555
S2 Cu1 1_555 1_555
S3 Cu1 1_555 1_555
N1 C1 1_555 1_555
N2 C3 1_555 1_555
N3 C2 1_555 1_555
N4 C1 1_555 1_555
N5 C2 1_555 1_555
C1 S3 1_555 1_555
N6 C3 1_555 1_555
C3 S2 1_555 1_555
C4 N5 1_555 1_555
H1 C4 1_555 1_555
H2 C4 1_555 1_555
C5 N1 1_555 1_555
H3 C5 1_555 1_555
H4 C5 1_555 1_555
C6 N4 1_555 1_555
H5 C6 1_555 1_555
H6 C6 1_555 1_555
H7 C6 1_555 1_555
C7 N1 1_555 1_555
H8 C7 1_555 1_555
C8 N4 1_555 1_555
H9 C8 1_555 1_555
C9 N3 1_555 1_555
H10 C9 1_555 1_555
H11 C9 1_555 1_555
H12 C9 1_555 1_555
C10 N2 1_555 1_555
H13 C10 1_555 1_555
C11 N2 1_555 1_555
H14 C11 1_555 1_555
H15 C11 1_555 1_555
C12 N6 1_555 1_555
H16 C12 1_555 1_555
C13 N6 1_555 1_555
H17 C13 1_555 1_555
H18 C13 1_555 1_555
H19 C13 1_555 1_555
C14 N3 1_555 1_555
H20 C14 1_555 1_555
C15 N5 1_555 1_555
H21 C15 1_555 1_555
F1 B1 1_555 1_555
F2 B1 1_555 1_555
B1 F3 1_555 1_555
F4 B1 1_555 1_555
S3A C1A 1_555 1_555
N1A C1A 1_555 1_555
N4A C1A 1_555 1_555
C5A C5 1_555 1_555
H3A C5A 1_555 1_555
H4A C5A 1_555 1_555
C6A N4A 1_555 1_555
H5A C6A 1_555 1_555
H6A C6A 1_555 1_555
H7A C6A 1_555 1_555
C7A N1A 1_555 1_555
H8A C7A 1_555 1_555
C8A N4A 1_555 1_555
H9A C8A 1_555 1_555
Cu1A S1 1_555 1_555
S1A Cu1 1_555 1_555
S2A Cu1A 1_555 1_555
N2A C3A 1_555 1_555
N3A C2A 1_555 1_555
N5A C2A 1_555 1_555
N6A C3A 1_555 1_555
C2A S1A 1_555 1_555
C3A S2A 1_555 1_555
C4A N5A 1_555 1_555
H1A C4A 1_555 1_555
H2A C4A 1_555 1_555
C9A N3A 1_555 1_555
H10A C9A 1_555 1_555
H11A C9A 1_555 1_555
H12A C9A 1_555 1_555
C10A N2A 1_555 1_555
H13A C10A 1_555 1_555
C11A N2A 1_555 1_555
H14A C11A 1_555 1_555
H15A C11A 1_555 1_555
C12A N6A 1_555 1_555
H16A C12A 1_555 1_555
C13A N6A 1_555 1_555
H17A C13A 1_555 1_555
H18A C13A 1_555 1_555
H19A C13A 1_555 1_555
C14A N3A 1_555 1_555
H20A C14A 1_555 1_555
C15A N5A 1_555 1_555
H21A C15A 1_555 1_555
Cu1A_2 S3A 1_555 1_555
S3A_2 Cu1A 1_555 1_555
C4 C11 1_555 1_555
C7 C8 1_555 1_555
C10 C12 1_555 1_555
C14 C15 1_555 1_555
N1A C5A 1_555 1_555
C7A C8A 1_555 1_555
Cu1A S1A 1_555 1_555
C4A C11A 1_555 1_555
C10A C12A 1_555 1_555
C14A C15A 1_555 1_555

#END
