
#######################################################################
#
#                 Cambridge Crystallographic Data Centre
#                                CCDC 
#
#######################################################################
#
# If this CIF has been generated from an entry in the Cambridge 
# Structural Database, then it will include bibliographic, chemical, 
# crystal, experimental, refinement or atomic coordinate data resulting 
# from the CCDC's data processing and validation procedures.
#
#######################################################################

data_PUPGEN
_symmetry_cell_setting           monoclinic
_symmetry_space_group_name_H-M   'C 2/c'
_symmetry_Int_Tables_number      15
_space_group_name_Hall           '-C 2yn'
loop_
_symmetry_equiv_pos_site_id
_symmetry_equiv_pos_as_xyz
1 x,y,z
2 -x,y,1/2-z
3 1/2+x,1/2+y,z
4 1/2-x,1/2+y,1/2-z
5 -x,-y,-z
6 x,-y,1/2+z
7 1/2-x,1/2-y,-z
8 1/2+x,1/2-y,1/2+z
_cell_length_a                   22.3056(16)
_cell_length_b                   7.1247(5)
_cell_length_c                   14.0410(10)
_cell_angle_alpha                90
_cell_angle_beta                 109.9420(10)
_cell_angle_gamma                90
_cell_volume                     2097.61
loop_
_atom_site_label
_atom_site_type_symbol
_atom_site_fract_x
_atom_site_fract_y
_atom_site_fract_z
C1 C 0.2972(2) 1.0426(6) 0.5465(3)
H1 H 0.3296 1.0822 0.5235
C2 C 0.24500(19) 0.9604(6) 0.6443(3)
C3 C 0.2042(2) 0.9423(6) 0.5471(3)
C4 C 0.1365(2) 0.8839(5) 0.5001(3)
C5 C 0.2383(2) 0.9396(6) 0.7461(3)
C6 C 0.47782(19) 0.9422(6) 1.0212(3)
Dy1 Dy 0.381690(8) 1.11511(3) 0.811177(14)
N1 N 0.30341(16) 1.0242(5) 0.6433(3)
N2 N 0.23772(17) 0.9964(5) 0.4853(3)
O1 O 0.18886(15) 0.8770(4) 0.7567(2)
O2 O 0.28647(14) 0.9929(5) 0.8201(2)
O3 O 0.10888(15) 0.8146(5) 0.5561(2)
O4 O 0.11119(16) 0.9074(4) 0.4063(2)
O5 O 0.42053(14) 0.9311(4) 0.9657(2)
O6 O 0.50334(14) 0.8713(4) 1.1066(2)
O7 O 0.42117(15) 1.2607(4) 0.6968(2)
H2 H 0.409(2) 1.362(4) 0.669(4)
H3 H 0.4472(19) 1.224(6) 0.672(3)
O8 O 0.4126(2) 0.8291(5) 0.7632(3)
H4 H 0.400(3) 0.779(8) 0.707(2)
H5 H 0.438(3) 0.755(7) 0.800(3)
C1C C 0.2028(2) 1.5426(6) 0.9535(3)
H1C H 0.1704 1.5822 0.9765
C2C C 0.25500(19) 1.4604(6) 0.8557(3)
C3C C 0.2958(2) 1.4423(6) 0.9529(3)
C4C C 0.3635(2) 1.3839(5) 0.9999(3)
C5C C 0.2617(2) 1.4396(6) 0.7539(3)
C6D C 0.52218(19) 1.0578(6) 0.9788(3)
Dy1C Dy 0.118310(8) 1.61511(3) 0.688823(14)
Dy1C_2 Dy 0.118310(8) 0.61511(3) 0.688823(14)
Dy1D Dy 0.618310(8) 0.88489(3) 1.188823(14)
N1C N 0.19659(16) 1.5242(5) 0.8567(3)
N2C N 0.26228(17) 1.4964(5) 1.0147(3)
O1C O 0.31114(15) 1.3770(4) 0.7433(2)
O1_2 O 0.18886(15) 1.8770(4) 0.7567(2)
O2C O 0.21353(14) 1.4929(5) 0.6799(2)
O3C O 0.39112(15) 1.3146(5) 0.9439(2)
O3_2 O 0.10888(15) 1.8146(5) 0.5561(2)
O4C O 0.38881(16) 1.4074(4) 1.0937(2)
O5D O 0.57947(14) 1.0689(4) 1.0343(2)
O5C O 0.07947(14) 1.4311(4) 0.5343(2)
O6D O 0.49666(14) 1.1287(4) 0.8934(2)
O6G O 0.00334(14) 1.6287(4) 0.6066(2)
O7C O 0.07883(15) 1.7607(4) 0.8032(2)
H2C H 0.091(2) 1.862(4) 0.831(4)
H3C H 0.0528(19) 1.724(6) 0.828(3)
O8C O 0.0874(2) 1.3291(5) 0.7368(3)
H4C H 0.100(3) 1.279(8) 0.793(2)
H5C H 0.062(3) 1.255(7) 0.700(3)
O9 O 0.4808(2) 0.5766(6) 0.8862(4)
H6 H 0.473(3) 0.479(6) 0.915(5)
H7 H 0.516(2) 0.562(9) 0.875(6)
loop_
_geom_bond_atom_site_label_1
_geom_bond_atom_site_label_2
_geom_bond_site_symmetry_1
_geom_bond_site_symmetry_2
C1 H1 1_555 1_555
C2 C3 1_555 1_555
C3 C4 1_555 1_555
C4 O3 1_555 1_555
C5 C2 1_555 1_555
C6 O5 1_555 1_555
Dy1 N1 1_555 1_555
N1 C1 1_555 1_555
N2 C1 1_555 1_555
O1 C5 1_555 1_555
O2 C5 1_555 1_555
O3 Dy1C_2 1_555 1_555
O4 C4 1_555 1_555
O5 Dy1 1_555 1_555
O6 C6 1_555 1_555
O7 Dy1 1_555 1_555
H2 O7 1_555 1_555
H3 O7 1_555 1_555
O8 Dy1 1_555 1_555
H4 O8 1_555 1_555
H5 O8 1_555 1_555
O9 H6 1_555 1_555
H7 O9 1_555 1_555
C1C H1C 1_555 1_555
C2C C3C 1_555 1_555
C3C C4C 1_555 1_555
C4C O3C 1_555 1_555
C5C C2C 1_555 1_555
C6D C6 1_555 1_555
Dy1C N1C 1_555 1_555
Dy1C_2 O1 1_555 1_555
Dy1D O6 1_555 1_555
N1C C1C 1_555 1_555
N2C C1C 1_555 1_555
O1C Dy1 1_555 1_555
O1_2 Dy1C 1_555 1_555
O2C C5C 1_555 1_555
O3C Dy1 1_555 1_555
O3_2 Dy1C 1_555 1_555
O4C C4C 1_555 1_555
O5D C6D 1_555 1_555
O5C Dy1C 1_555 1_555
O6D Dy1 1_555 1_555
O6G Dy1C 1_555 1_555
O7C Dy1C 1_555 1_555
H2C O7C 1_555 1_555
H3C O7C 1_555 1_555
O8C Dy1C 1_555 1_555
H4C O8C 1_555 1_555
H5C O8C 1_555 1_555
C2 N1 1_555 1_555
C3 N2 1_555 1_555
Dy1 O2 1_555 1_555
C2C N1C 1_555 1_555
C3C N2C 1_555 1_555
C5C O1C 1_555 1_555
C6D O6D 1_555 1_555
Dy1C O2C 1_555 1_555
Dy1D O5D 1_555 1_555

#END
