
#######################################################################
#
#                 Cambridge Crystallographic Data Centre
#                                CCDC 
#
#######################################################################
#
# If this CIF has been generated from an entry in the Cambridge 
# Structural Database, then it will include bibliographic, chemical, 
# crystal, experimental, refinement or atomic coordinate data resulting 
# from the CCDC's data processing and validation procedures.
#
#######################################################################

data_PUPGAJ01
_symmetry_cell_setting           monoclinic
_symmetry_space_group_name_H-M   'P 21/c'
_symmetry_Int_Tables_number      14
_space_group_name_Hall           '-P 2ybc'
loop_
_symmetry_equiv_pos_site_id
_symmetry_equiv_pos_as_xyz
1 x,y,z
2 -x,1/2+y,1/2-z
3 -x,-y,-z
4 x,1/2-y,1/2+z
_cell_length_a                   7.4725(11)
_cell_length_b                   17.173(3)
_cell_length_c                   8.5294(12)
_cell_angle_alpha                90
_cell_angle_beta                 110.873(2)
_cell_angle_gamma                90
_cell_volume                     1022.71
loop_
_atom_site_label
_atom_site_type_symbol
_atom_site_fract_x
_atom_site_fract_y
_atom_site_fract_z
Nd1 Nd 0.17100(4) 0.589336(16) 0.24885(3)
O1 O 0.2826(5) 0.7003(2) 0.4539(5)
N1 N -0.3092(7) 0.7769(3) 0.1662(6)
H1 H -0.4155 0.7986 0.1068
N2 N -0.0852(6) 0.6885(3) 0.2557(6)
C1 C -0.0230(8) 0.7555(3) 0.3484(7)
C2 C 0.1747(8) 0.7531(3) 0.4771(6)
C3 C -0.2589(8) 0.7035(3) 0.1520(7)
H2 H -0.3375 0.6674 0.0777
O2 O 0.2273(5) 0.7983(2) 0.5982(5)
O3 O -0.1014(5) 0.5149(2) 0.2836(5)
C4 C -0.1661(8) 0.8962(3) 0.3321(7)
C5 C -0.1588(7) 0.8126(3) 0.2949(6)
C6 C -0.0908(8) 0.4894(3) 0.4231(7)
O4 O -0.0775(6) 0.9189(2) 0.4782(5)
O5 O 0.5242(5) 0.5860(2) 0.3871(5)
H3 H 0.5598 0.5518 0.3310
H4 H 0.5850 0.5775 0.4920
O6 O -0.2155(5) 0.4497(2) 0.4551(5)
O7 O 0.3431(6) 0.5495(2) 0.0525(5)
H5 H 0.2956 0.5108 -0.0133
H6 H 0.3664 0.5858 -0.0075
O8 O -0.2584(6) 0.9415(2) 0.2134(5)
Nd1C Nd 0.17100(4) 0.910664(16) -0.25115(3)
Nd1C_2 Nd 0.17100(4) 0.910664(16) 0.74885(3)
Nd1B Nd -0.17100(4) 0.410664(16) 0.75115(3)
Nd1A Nd -0.17100(4) 1.089336(16) 0.25115(3)
Nd1B_2 Nd -0.17100(4) 0.410664(16) -0.24885(3)
O1C O 0.2826(5) 0.7997(2) -0.0461(5)
N1C N -0.3092(7) 0.7231(3) -0.3338(6)
H1C H -0.4155 0.7014 -0.3932
N2C N -0.0852(6) 0.8115(3) -0.2443(6)
C1C C -0.0230(8) 0.7445(3) -0.1516(7)
C2C C 0.1747(8) 0.7469(3) -0.0229(6)
C3C C -0.2589(8) 0.7965(3) -0.3480(7)
H2C H -0.3375 0.8326 -0.4223
O2C O 0.2273(5) 0.7017(2) 0.0982(5)
O2_2 O 0.2273(5) 0.7983(2) -0.4018(5)
O3B O 0.1014(5) 0.4851(2) 0.7164(5)
O3C O -0.1014(5) 0.9851(2) -0.2164(5)
C4C C -0.1661(8) 0.6038(3) -0.1679(7)
C5C C -0.1588(7) 0.6874(3) -0.2051(6)
C6B C 0.0908(8) 0.5106(3) 0.5769(7)
O4C O -0.0775(6) 0.5811(2) -0.0218(5)
O4_2 O -0.0775(6) 0.9189(2) -0.5218(5)
O5C O 0.5242(5) 0.9140(2) -0.1129(5)
H3C H 0.5598 0.9482 -0.1690
H4C H 0.5850 0.9225 -0.0080
O6B O 0.2155(5) 0.5503(2) 0.5449(5)
O6A O 0.2155(5) 0.9497(2) 0.0449(5)
O7C O 0.3431(6) 0.9505(2) -0.4475(5)
H5C H 0.2956 0.9892 -0.5133
H6C H 0.3664 0.9142 -0.5075
O8C O -0.2584(6) 0.5585(2) -0.2866(5)
O8A O 0.2584(6) 0.4415(2) 0.2866(5)
O8B O 0.2584(6) 1.0585(2) -0.2134(5)
O9 O 0.4039(6) 0.6476(3) 0.8198(5)
H7 H 0.3657 0.6170 0.7348
H8 H 0.3800 0.6946 0.7845
loop_
_geom_bond_atom_site_label_1
_geom_bond_atom_site_label_2
_geom_bond_site_symmetry_1
_geom_bond_site_symmetry_2
Nd1 O1 1_555 1_555
O1 C2 1_555 1_555
N1 H1 1_555 1_555
N2 Nd1 1_555 1_555
C1 N2 1_555 1_555
C2 C1 1_555 1_555
C3 N1 1_555 1_555
H2 C3 1_555 1_555
O2 C2 1_555 1_555
O3 Nd1 1_555 1_555
C4 C5 1_555 1_555
C5 N1 1_555 1_555
C6 O3 1_555 1_555
O4 C4 1_555 1_555
O5 Nd1 1_555 1_555
H3 O5 1_555 1_555
H4 O5 1_555 1_555
O6 C6 1_555 1_555
O7 Nd1 1_555 1_555
H5 O7 1_555 1_555
H6 O7 1_555 1_555
O8 C4 1_555 1_555
O9 H7 1_555 1_555
H8 O9 1_555 1_555
Nd1C O1C 1_555 1_555
Nd1C_2 O2 1_555 1_555
Nd1B O6 1_555 1_555
Nd1A O8 1_555 1_555
Nd1B_2 O8C 1_555 1_555
O1C C2C 1_555 1_555
N1C H1C 1_555 1_555
N2C Nd1C 1_555 1_555
C1C N2C 1_555 1_555
C2C C1C 1_555 1_555
C3C N1C 1_555 1_555
H2C C3C 1_555 1_555
O2C Nd1 1_555 1_555
O2_2 Nd1C 1_555 1_555
O3B Nd1B 1_555 1_555
O3C Nd1C 1_555 1_555
C4C C5C 1_555 1_555
C5C N1C 1_555 1_555
C6B C6 1_555 1_555
O4C Nd1 1_555 1_555
O4_2 Nd1C 1_555 1_555
O5C Nd1C 1_555 1_555
H3C O5C 1_555 1_555
H4C O5C 1_555 1_555
O6B Nd1 1_555 1_555
O6A Nd1C 1_555 1_555
O7C Nd1C 1_555 1_555
H5C O7C 1_555 1_555
H6C O7C 1_555 1_555
O8C C4C 1_555 1_555
O8A Nd1 1_555 1_555
O8B Nd1C 1_555 1_555
N2 C3 1_555 1_555
C1 C5 1_555 1_555
O4 Nd1C_2 1_555 1_555
N2C C3C 1_555 1_555
C1C C5C 1_555 1_555
C2C O2C 1_555 1_555
O3B C6B 1_555 1_555
C4C O4C 1_555 1_555
C6B O6B 1_555 1_555

#END
