
#######################################################################
#
#                 Cambridge Crystallographic Data Centre
#                                CCDC 
#
#######################################################################
#
# If this CIF has been generated from an entry in the Cambridge 
# Structural Database, then it will include bibliographic, chemical, 
# crystal, experimental, refinement or atomic coordinate data resulting 
# from the CCDC's data processing and validation procedures.
#
#######################################################################

data_PUPGAJ
_symmetry_cell_setting           monoclinic
_symmetry_space_group_name_H-M   'P 21/c'
_symmetry_Int_Tables_number      14
_space_group_name_Hall           '-P 2ybc'
loop_
_symmetry_equiv_pos_site_id
_symmetry_equiv_pos_as_xyz
1 x,y,z
2 -x,1/2+y,1/2-z
3 -x,-y,-z
4 x,1/2-y,1/2+z
_cell_length_a                   7.4758(7)
_cell_length_b                   17.1834(16)
_cell_length_c                   8.5399(8)
_cell_angle_alpha                90
_cell_angle_beta                 110.8840(10)
_cell_angle_gamma                90
_cell_volume                     1024.96
loop_
_atom_site_label
_atom_site_type_symbol
_atom_site_fract_x
_atom_site_fract_y
_atom_site_fract_z
C1 C 0.5904(5) 0.48961(19) 0.0757(4)
C2 C 0.6667(5) 0.60366(19) 0.6695(4)
C3 C 0.3258(5) 0.74694(18) 0.5235(4)
C4 C 0.6611(5) 0.6882(2) 0.7070(4)
C5 C 0.5227(5) 0.74452(19) 0.6503(4)
C6 C 0.7581(5) 0.7964(2) 0.8483(5)
H1 H 0.850(6) 0.830(2) 0.929(5)
H2 H 0.901(6) 0.707(3) 0.878(5)
N1 N 0.5851(4) 0.81150(16) 0.7423(4)
N2 N 0.8087(5) 0.72295(18) 0.8335(4)
Nd1 Nd 0.32909(2) 0.589318(10) 0.25105(2)
O1 O 0.5781(4) 0.58093(14) 0.5225(3)
O2 O 0.7577(4) 0.55849(14) 0.7869(3)
O3 O 0.2723(3) 0.70147(14) 0.4005(3)
O4 O 0.2178(3) 0.79961(13) 0.5463(3)
O5 O 0.6011(4) 0.51486(15) 0.2153(3)
O6 O 0.7149(3) 0.44999(14) 0.0442(3)
O8 O -0.0225(4) 0.58585(16) 0.1133(3)
H5 H -0.089(6) 0.576(3) 0.0171(19)
H6 H -0.072(6) 0.563(3) 0.171(4)
O9 O 0.1571(4) 0.54966(17) 0.4472(3)
H7 H 0.154(6) 0.5864(15) 0.506(4)
H8 H 0.218(7) 0.5164(18) 0.513(4)
C1B C 0.4096(5) 0.51039(19) -0.0757(4)
C2B C 0.3333(5) 0.39634(19) -0.6695(4)
C3B C 0.6742(5) 0.25306(18) -0.5235(4)
C4B C 0.3389(5) 0.3118(2) -0.7070(4)
C5B C 0.4773(5) 0.25548(19) -0.6503(4)
C6B C 0.2419(5) 0.2036(2) -0.8483(5)
H1B H 0.150(6) 0.170(2) -0.929(5)
H2B H 0.099(6) 0.293(3) -0.878(5)
N1B N 0.4149(4) 0.18850(16) -0.7423(4)
N1A N 0.4149(4) 0.31150(16) -0.2423(4)
N1C N 0.5851(4) 0.68850(16) 0.2423(4)
N2B N 0.1913(5) 0.27705(18) -0.8335(4)
Nd1B Nd 0.67091(2) 0.410682(10) -0.25105(2)
Nd1_2 Nd 0.32909(2) 0.589318(10) -0.74895(2)
Nd1A Nd 0.67091(2) 0.089318(10) -0.75105(2)
Nd1B_2 Nd 0.67091(2) 0.410682(10) 0.74895(2)
Nd1C Nd 0.32909(2) 0.910682(10) 0.75105(2)
O1B O 0.4219(4) 0.41907(14) -0.5225(3)
O2B O 0.2423(4) 0.44151(14) -0.7869(3)
O2_2 O 0.7577(4) 0.55849(14) -0.2131(3)
O2B_2 O 0.2423(4) 0.44151(14) 0.2131(3)
O3B O 0.7277(3) 0.29853(14) -0.4005(3)
O4B O 0.7822(3) 0.20039(13) -0.5463(3)
O4A O 0.7822(3) 0.29961(13) -0.0463(3)
O4C O 0.2178(3) 0.70039(13) 0.0463(3)
O5B O 0.3989(4) 0.48514(15) -0.2153(3)
O6B O 0.2851(3) 0.55001(14) -0.0442(3)
O8B O 1.0225(4) 0.41415(16) -0.1133(3)
H5B H 1.089(6) 0.424(3) -0.0171(19)
H6B H 1.072(6) 0.437(3) -0.171(4)
O9B O 0.8429(4) 0.45034(17) -0.4472(3)
H7B H 0.846(6) 0.4136(15) -0.506(4)
H8B H 0.782(7) 0.4836(18) -0.513(4)
O7 O 0.0969(5) 0.64751(19) 0.6809(3)
H3 H 0.132(6) 0.6933(9) 0.718(5)
H4 H 0.145(6) 0.6151(16) 0.762(4)
loop_
_geom_bond_atom_site_label_1
_geom_bond_atom_site_label_2
_geom_bond_site_symmetry_1
_geom_bond_site_symmetry_2
C1 O5 1_555 1_555
C2 C4 1_555 1_555
C3 C5 1_555 1_555
C4 C5 1_555 1_555
C5 N1 1_555 1_555
C6 H1 1_555 1_555
H2 N2 1_555 1_555
N1 C6 1_555 1_555
N2 C4 1_555 1_555
Nd1 O1 1_555 1_555
O1 C2 1_555 1_555
O2 C2 1_555 1_555
O3 C3 1_555 1_555
O4 C3 1_555 1_555
O5 Nd1 1_555 1_555
O6 C1 1_555 1_555
O7 H3 1_555 1_555
H4 O7 1_555 1_555
O8 Nd1 1_555 1_555
H5 O8 1_555 1_555
H6 O8 1_555 1_555
O9 Nd1 1_555 1_555
H7 O9 1_555 1_555
H8 O9 1_555 1_555
C1B C1 1_555 1_555
C2B C4B 1_555 1_555
C3B C5B 1_555 1_555
C4B C5B 1_555 1_555
C5B N1B 1_555 1_555
C6B H1B 1_555 1_555
H2B N2B 1_555 1_555
N1B C6B 1_555 1_555
N1A Nd1B 1_555 1_555
N1C Nd1 1_555 1_555
N2B C4B 1_555 1_555
Nd1B O6 1_555 1_555
Nd1_2 O2B 1_555 1_555
Nd1A N1B 1_555 1_555
Nd1B_2 O2 1_555 1_555
Nd1C N1 1_555 1_555
O1B C2B 1_555 1_555
O2B C2B 1_555 1_555
O2_2 Nd1B 1_555 1_555
O2B_2 Nd1 1_555 1_555
O3B C3B 1_555 1_555
O4B C3B 1_555 1_555
O4A Nd1B 1_555 1_555
O4C Nd1 1_555 1_555
O5B C1B 1_555 1_555
O6B Nd1 1_555 1_555
O8B Nd1B 1_555 1_555
H5B O8B 1_555 1_555
H6B O8B 1_555 1_555
O9B Nd1B 1_555 1_555
H7B O9B 1_555 1_555
H8B O9B 1_555 1_555
C6 N2 1_555 1_555
Nd1 O3 1_555 1_555
O4 Nd1C 1_555 1_555
C1B O6B 1_555 1_555
C6B N2B 1_555 1_555
Nd1B O1B 1_555 1_555
Nd1B O3B 1_555 1_555
Nd1B O5B 1_555 1_555
Nd1A O4B 1_555 1_555

#END
