
#######################################################################
#
#                 Cambridge Crystallographic Data Centre
#                                CCDC 
#
#######################################################################
#
# If this CIF has been generated from an entry in the Cambridge 
# Structural Database, then it will include bibliographic, chemical, 
# crystal, experimental, refinement or atomic coordinate data resulting 
# from the CCDC's data processing and validation procedures.
#
#######################################################################

data_PUPGIS
_symmetry_cell_setting           monoclinic
_symmetry_space_group_name_H-M   'P 21/c'
_symmetry_Int_Tables_number      14
_space_group_name_Hall           '-P 2ybc'
loop_
_symmetry_equiv_pos_site_id
_symmetry_equiv_pos_as_xyz
1 x,y,z
2 -x,1/2+y,1/2-z
3 -x,-y,-z
4 x,1/2-y,1/2+z
_cell_length_a                   9.4763(19)
_cell_length_b                   27.970(6)
_cell_length_c                   7.8016(16)
_cell_angle_alpha                90
_cell_angle_beta                 99.89(3)
_cell_angle_gamma                90
_cell_volume                     2037.1
loop_
_atom_site_label
_atom_site_type_symbol
_atom_site_fract_x
_atom_site_fract_y
_atom_site_fract_z
Cu1 Cu 0.31862(4) 0.286754(14) 0.02787(6)
S1 S 0.14615(9) 0.34324(3) -0.08523(11)
S2 S 0.29324(9) 0.27544(3) 0.32196(11)
S3 S 0.56089(9) 0.30357(3) 0.00784(13)
N1 N 0.4755(3) 0.39754(10) -0.0134(4)
N2 N 0.0452(3) 0.42267(10) 0.0548(4)
N3 N 0.0040(3) 0.29738(9) 0.2731(4)
N4 N 0.1388(3) 0.34767(10) 0.4365(4)
N5 N 0.2751(3) 0.41505(9) 0.1290(4)
N6 N 0.5838(3) 0.37576(10) -0.2219(4)
C1 C 0.1569(3) 0.39400(11) 0.0348(4)
C2 C 0.5405(3) 0.35970(12) -0.0758(4)
C3 C 0.1419(4) 0.30711(12) 0.3434(4)
C4 C -0.0846(4) 0.33202(12) 0.3224(5)
H1 H -0.1837 0.3335 0.2908
C5 C 0.6529(4) 0.34613(15) -0.3384(5)
H2 H 0.7415 0.3338 -0.2758
H3 H 0.6717 0.3651 -0.4345
H4 H 0.5909 0.3200 -0.3812
C6 C 0.5445(4) 0.42321(12) -0.2505(5)
H5 H 0.5615 0.4421 -0.3429
C7 C -0.0013(4) 0.36305(14) 0.4242(5)
H6 H -0.0320 0.3900 0.4770
C8 C 0.2351(4) 0.45588(12) 0.2109(5)
H7 H 0.2958 0.4762 0.2837
C9 C 0.0936(4) 0.46040(12) 0.1657(5)
H8 H 0.0374 0.4844 0.2017
C10 C -0.0421(4) 0.25729(13) 0.1578(5)
H9 H 0.0098 0.2576 0.0624
H10 H -0.1428 0.2600 0.1139
H11 H -0.0236 0.2279 0.2210
C11 C 0.4203(3) 0.39675(12) 0.1502(4)
H12 H 0.4221 0.3642 0.1934
H13 H 0.4819 0.4159 0.2359
C12 C 0.4776(4) 0.43686(11) -0.1209(4)
H14 H 0.4398 0.4669 -0.1059
C13 C -0.1013(4) 0.41462(13) -0.0312(5)
H15 H -0.1293 0.3825 -0.0091
H16 H -0.1079 0.4193 -0.1542
H17 H -0.1637 0.4368 0.0130
C14 C 0.2647(4) 0.37057(14) 0.5369(5)
H18 H 0.3396 0.3719 0.4684
H19 H 0.2969 0.3524 0.6408
H20 H 0.2405 0.4024 0.5677
Cu1C Cu 0.31862(4) 0.213246(14) 0.52787(6)
S2C S 0.29324(9) 0.22456(3) -0.17804(11)
F1 F 0.3932(2) 0.51797(8) 0.5985(3)
F2 F 0.1716(3) 0.53957(9) 0.4604(3)
F3 F 0.2712(2) 0.57767(9) 0.7038(3)
F4 F 0.1979(3) 0.50091(11) 0.7201(4)
B1 B 0.2568(4) 0.53337(15) 0.6199(5)
loop_
_geom_bond_atom_site_label_1
_geom_bond_atom_site_label_2
_geom_bond_site_symmetry_1
_geom_bond_site_symmetry_2
Cu1 S1 1_555 1_555
S1 C1 1_555 1_555
S2 Cu1 1_555 1_555
S3 Cu1 1_555 1_555
N1 C2 1_555 1_555
N2 C1 1_555 1_555
N3 C3 1_555 1_555
N4 C3 1_555 1_555
N5 C1 1_555 1_555
N6 C2 1_555 1_555
C2 S3 1_555 1_555
C3 S2 1_555 1_555
C4 N3 1_555 1_555
H1 C4 1_555 1_555
C5 N6 1_555 1_555
H2 C5 1_555 1_555
H3 C5 1_555 1_555
H4 C5 1_555 1_555
C6 N6 1_555 1_555
H5 C6 1_555 1_555
C7 N4 1_555 1_555
H6 C7 1_555 1_555
C8 N5 1_555 1_555
H7 C8 1_555 1_555
C9 N2 1_555 1_555
H8 C9 1_555 1_555
C10 N3 1_555 1_555
H9 C10 1_555 1_555
H10 C10 1_555 1_555
H11 C10 1_555 1_555
C11 N1 1_555 1_555
H12 C11 1_555 1_555
H13 C11 1_555 1_555
C12 N1 1_555 1_555
H14 C12 1_555 1_555
C13 N2 1_555 1_555
H15 C13 1_555 1_555
H16 C13 1_555 1_555
H17 C13 1_555 1_555
C14 N4 1_555 1_555
H18 C14 1_555 1_555
H19 C14 1_555 1_555
H20 C14 1_555 1_555
F1 B1 1_555 1_555
F2 B1 1_555 1_555
F3 B1 1_555 1_555
F4 B1 1_555 1_555
Cu1C S2 1_555 1_555
S2C Cu1 1_555 1_555
N5 C11 1_555 1_555
C4 C7 1_555 1_555
C6 C12 1_555 1_555
C8 C9 1_555 1_555

#END
