
#######################################################################
#
#                 Cambridge Crystallographic Data Centre
#                                CCDC 
#
#######################################################################
#
# If this CIF has been generated from an entry in the Cambridge 
# Structural Database, then it will include bibliographic, chemical, 
# crystal, experimental, refinement or atomic coordinate data resulting 
# from the CCDC's data processing and validation procedures.
#
#######################################################################

data_PUPJEQ
_symmetry_cell_setting           trigonal
_symmetry_space_group_name_H-M   'P -3 c 1'
_symmetry_Int_Tables_number      165
_space_group_name_Hall           '-P 3 2"c'
loop_
_symmetry_equiv_pos_site_id
_symmetry_equiv_pos_as_xyz
1 x,y,z
2 -y,x-y,z
3 -x+y,-x,z
4 y,x,1/2-z
5 x-y,-y,1/2-z
6 -x,-x+y,1/2-z
7 -x,-y,-z
8 y,-x+y,-z
9 x-y,x,-z
10 -y,-x,1/2+z
11 -x+y,y,1/2+z
12 x,x-y,1/2+z
_cell_length_a                   20.4114(8)
_cell_length_b                   20.4114(8)
_cell_length_c                   9.7836(7)
_cell_angle_alpha                90
_cell_angle_beta                 90
_cell_angle_gamma                120
_cell_volume                     3530
loop_
_atom_site_label
_atom_site_type_symbol
_atom_site_fract_x
_atom_site_fract_y
_atom_site_fract_z
Zn1 Zn 0.6667 0.3333 0.58462(9)
O1 O 0.7149(3) 0.1244(2) 0.8411(3)
O2 O 0.7167(2) 0.2866(2) 0.7119(3)
O3 O 0.6638(3) 0.1689(3) 0.6376(4)
O4 O 0.6248(2) 0.2371(2) 0.4560(3)
H1 H 0.6270 0.2200 0.5341
H2 H 0.6533 0.2292 0.4034
C1 C 0.7412(4) 0.0990(4) 0.9448(5)
C2 C 0.7921(3) 0.1445(3) 1.0426(5)
H5 H 0.8091 0.1961 1.0436
C3 C 0.8185(3) 0.1133(3) 1.1402(5)
H6 H 0.8535 0.1448 1.2049
C4 C 0.7939(3) 0.0374(3) 1.1429(4)
C5 C 0.7418(4) -0.0070(3) 1.0453(5)
H7 H 0.7239 -0.0588 1.0455
C6 C 0.7151(5) 0.0226(4) 0.9470(6)
H8 H 0.6797 -0.0090 0.8829
C7 C 0.7385(4) 0.2024(3) 0.8393(5)
H9 H 0.7932 0.2317 0.8315
H10 H 0.7240 0.2163 0.9241
C8 C 0.7026(3) 0.2197(4) 0.7201(5)
C9 C 0.8210(4) 0.0000 1.2500
C10 C 0.8355(4) -0.0595(4) 1.1804(7)
H11 H 0.7908 -0.0953 1.1322
H12 H 0.8479 -0.0854 1.2485
H13 H 0.8767 -0.0347 1.1171
Zn1D Zn 0.3334 -0.3333 1.91538(9)
O1D O 0.5905(4) -0.1244(2) 1.6589(3)
O2D O 0.4301(3) -0.2866(2) 1.7881(3)
O2A O 0.7134(2) 0.4301(3) 0.7119(3)
O2B O 0.5699(3) 0.2833(2) 0.7119(3)
O3D O 0.4949(4) -0.1689(3) 1.8624(4)
O4A O 0.7629(2) 0.3877(3) 0.4560(3)
O4B O 0.6123(3) 0.3752(2) 0.4560(3)
H1A H 0.7800 0.4070 0.5341
H1B H 0.5930 0.3730 0.5341
H2A H 0.7708 0.4241 0.4034
H2B H 0.5759 0.3467 0.4034
C1D C 0.6422(6) -0.0990(4) 1.5552(5)
C2D C 0.6476(4) -0.1445(3) 1.4574(5)
H5D H 0.6130 -0.1961 1.4564
C3D C 0.7052(4) -0.1133(3) 1.3598(5)
H6D H 0.7087 -0.1448 1.2951
C4D C 0.7565(4) -0.0374(3) 1.3571(4)
C5D C 0.7488(5) 0.0070(3) 1.4547(5)
H7D H 0.7827 0.0588 1.4545
C6D C 0.6925(6) -0.0226(4) 1.5530(6)
H8D H 0.6887 0.0090 1.6171
C7D C 0.5361(5) -0.2024(3) 1.6607(5)
H9D H 0.5615 -0.2317 1.6685
H10D H 0.5077 -0.2163 1.5759
C8D C 0.4829(5) -0.2197(4) 1.7799(5)
C10D C 0.8950(6) 0.0595(4) 1.3196(7)
H11D H 0.8861 0.0953 1.3678
H12D H 0.9333 0.0854 1.2515
H13D H 0.9114 0.0347 1.3829
O5 O 0.3956(14) 0.9397(13) 0.745(3)
H3 H 0.4256 0.9796 0.7013
H4 H 0.3582 0.9114 0.6944
loop_
_geom_bond_atom_site_label_1
_geom_bond_atom_site_label_2
_geom_bond_site_symmetry_1
_geom_bond_site_symmetry_2
Zn1 O2 1_555 1_555
O1 C1 1_555 1_555
O2 C8 1_555 1_555
O3 C8 1_555 1_555
O4 Zn1 1_555 1_555
H1 O4 1_555 1_555
H2 O4 1_555 1_555
O5 H3 1_555 1_555
H4 O5 1_555 1_555
C1 C2 1_555 1_555
C2 H5 1_555 1_555
C3 C2 1_555 1_555
H6 C3 1_555 1_555
C4 C3 1_555 1_555
C5 C4 1_555 1_555
H7 C5 1_555 1_555
C6 C1 1_555 1_555
H8 C6 1_555 1_555
C7 O1 1_555 1_555
H9 C7 1_555 1_555
H10 C7 1_555 1_555
C8 C7 1_555 1_555
C9 C4 1_555 1_555
C10 C9 1_555 1_555
H11 C10 1_555 1_555
H12 C10 1_555 1_555
H13 C10 1_555 1_555
Zn1D O2D 1_555 1_555
O1D C1D 1_555 1_555
O2D C8D 1_555 1_555
O2A Zn1 1_555 1_555
O2B Zn1 1_555 1_555
O3D C8D 1_555 1_555
O4A Zn1 1_555 1_555
O4B Zn1 1_555 1_555
H1A O4A 1_555 1_555
H1B O4B 1_555 1_555
H2A O4A 1_555 1_555
H2B O4B 1_555 1_555
C1D C2D 1_555 1_555
C2D H5D 1_555 1_555
C3D C2D 1_555 1_555
H6D C3D 1_555 1_555
C4D C9 1_555 1_555
C5D C4D 1_555 1_555
H7D C5D 1_555 1_555
C6D C1D 1_555 1_555
H8D C6D 1_555 1_555
C7D O1D 1_555 1_555
H9D C7D 1_555 1_555
H10D C7D 1_555 1_555
C8D C7D 1_555 1_555
C10D C9 1_555 1_555
H11D C10D 1_555 1_555
H12D C10D 1_555 1_555
H13D C10D 1_555 1_555
C5 C6 1_555 1_555
C3D C4D 1_555 1_555
C5D C6D 1_555 1_555

#END
