
#######################################################################
#
#                 Cambridge Crystallographic Data Centre
#                                CCDC 
#
#######################################################################
#
# If this CIF has been generated from an entry in the Cambridge 
# Structural Database, then it will include bibliographic, chemical, 
# crystal, experimental, refinement or atomic coordinate data resulting 
# from the CCDC's data processing and validation procedures.
#
#######################################################################

data_PUPLUJ
_symmetry_cell_setting           monoclinic
_symmetry_space_group_name_H-M   'P 21/n'
_symmetry_Int_Tables_number      14
_space_group_name_Hall           '-P 2yn'
loop_
_symmetry_equiv_pos_site_id
_symmetry_equiv_pos_as_xyz
1 x,y,z
2 1/2-x,1/2+y,1/2-z
3 -x,-y,-z
4 1/2+x,1/2-y,1/2+z
_cell_length_a                   9.4980(2)
_cell_length_b                   15.7090(3)
_cell_length_c                   21.2630(3)
_cell_angle_alpha                90
_cell_angle_beta                 90.8370(10)
_cell_angle_gamma                90
_cell_volume                     3172.19
loop_
_atom_site_label
_atom_site_type_symbol
_atom_site_fract_x
_atom_site_fract_y
_atom_site_fract_z
C1 C 0.4893(3) -0.10321(15) -0.09748(11)
C2 C 0.5603(3) -0.16130(15) -0.14301(11)
C3 C 0.7042(3) -0.16423(17) -0.14624(12)
H1 H 0.7596 -0.1306 -0.1197
C4 C 0.7660(3) -0.21785(19) -0.18953(13)
C5 C 0.6890(4) -0.2686(2) -0.23056(15)
H2 H 0.7319 -0.3048 -0.2591
C6 C 0.5444(3) -0.2621(2) -0.22649(16)
C7 C 0.4779(3) -0.21105(18) -0.18353(14)
H3 H 0.3802 -0.2098 -0.1815
C8 C 0.9863(2) -0.14472(14) -0.01432(11)
C9 C 0.9917(3) -0.23872(15) -0.02759(13)
C10 C 0.8721(3) -0.28741(18) -0.01670(15)
H4 H 0.7922 -0.2628 0.0004
C11 C 0.8742(4) -0.3727(2) -0.03180(18)
C12 C 0.9894(4) -0.4112(2) -0.05738(18)
H5 H 0.9886 -0.4687 -0.0679
C13 C 1.1074(4) -0.3611(2) -0.06702(15)
C14 C 1.1106(3) -0.27486(17) -0.05253(13)
H6 H 1.1908 -0.2425 -0.0595
C15 C 0.4815(2) -0.14735(15) 0.06950(11)
C16 C 0.4633(3) -0.23150(15) 0.10236(11)
C17 C 0.3317(3) -0.26969(18) 0.10270(13)
H7 H 0.2557 -0.2443 0.0820
C18 C 0.3149(3) -0.3457(2) 0.13396(15)
C19 C 0.4237(4) -0.3854(2) 0.16535(15)
H8 H 0.4106 -0.4368 0.1862
C20 C 0.5526(3) -0.34605(18) 0.16463(14)
C21 C 0.5757(3) -0.26995(17) 0.13380(13)
H9 H 0.6645 -0.2450 0.1341
N1 N 0.9206(3) -0.2201(2) -0.19267(13)
N2 N 0.4573(4) -0.3135(2) -0.27057(18)
N3 N 0.7450(5) -0.4234(2) -0.0204(2)
N4 N 1.2356(5) -0.3993(2) -0.09430(17)
N5 N 0.1725(4) -0.3847(2) 0.13463(16)
N6 N 0.6698(4) -0.38557(19) 0.20043(15)
O1 O 0.56150(18) -0.06215(11) -0.05832(8)
O2 O 0.35860(18) -0.09754(13) -0.10177(9)
O3 O 0.9866(2) -0.16292(19) -0.16819(13)
O4 O 0.9750(3) -0.2793(2) -0.21994(16)
O5 O 0.5133(4) -0.3375(3) -0.31875(19)
O6 O 0.3354(3) -0.3245(2) -0.25948(17)
O7 O 0.87628(19) -0.11725(12) 0.00973(10)
O8 O 1.08944(18) -0.10116(11) -0.02936(9)
O9 O 0.6445(4) -0.3876(2) 0.0030(3)
O10 O 0.7508(5) -0.49908(18) -0.0321(2)
O11 O 1.2261(4) -0.4740(2) -0.1107(2)
O12 O 1.3403(4) -0.3566(2) -0.0974(2)
O13 O 0.59827(18) -0.11107(12) 0.07428(9)
O14 O 0.37525(17) -0.12090(11) 0.03952(9)
O15 O 0.0822(3) -0.3554(2) 0.10141(18)
O16 O 0.1583(4) -0.4466(3) 0.16735(18)
O17 O 0.6417(3) -0.44495(19) 0.23481(14)
O18 O 0.7871(3) -0.35601(19) 0.19360(17)
O19 O 0.8573(2) -0.01986(14) 0.12413(9)
H10 H 0.826(3) 0.0131(17) 0.1490(13)
H11 H 0.866(3) -0.0653(14) 0.1408(14)
O20 O 0.84544(19) 0.01022(13) -0.08640(9)
H12 H 0.9297(19) 0.0085(19) -0.0925(16)
H13 H 0.812(3) 0.0346(19) -0.1168(11)
Nd1 Nd 0.721756(11) 0.001768(7) 0.017452(5)
O2B O 0.64140(18) 0.09754(13) 0.10177(9)
O8B O 0.91056(18) 0.10116(11) 0.02936(9)
O14B O 0.62475(17) 0.12090(11) -0.03952(9)
Nd1B Nd 0.278244(11) -0.001768(7) -0.017452(5)
Nd1B_2 Nd 1.278244(11) -0.001768(7) -0.017452(5)
C22 C -0.0611(4) 0.4642(3) 0.2610(2)
H14 H -0.1211 0.4205 0.2772
H15 H -0.0600 0.4607 0.2159
H16 H -0.0960 0.5190 0.2733
C23 C 0.0780(4) 0.4530(2) 0.28535(15)
N7 N 0.1861(4) 0.4447(2) 0.30635(16)
loop_
_geom_bond_atom_site_label_1
_geom_bond_atom_site_label_2
_geom_bond_site_symmetry_1
_geom_bond_site_symmetry_2
C1 C2 1_555 1_555
C2 C3 1_555 1_555
C3 H1 1_555 1_555
C4 C3 1_555 1_555
C5 C4 1_555 1_555
H2 C5 1_555 1_555
C6 C5 1_555 1_555
C7 C2 1_555 1_555
H3 C7 1_555 1_555
C8 C9 1_555 1_555
C9 C10 1_555 1_555
C10 H4 1_555 1_555
C11 C10 1_555 1_555
C12 C11 1_555 1_555
H5 C12 1_555 1_555
C13 C12 1_555 1_555
C14 C9 1_555 1_555
H6 C14 1_555 1_555
C15 C16 1_555 1_555
C16 C17 1_555 1_555
C17 H7 1_555 1_555
C18 C17 1_555 1_555
C19 C18 1_555 1_555
H8 C19 1_555 1_555
C20 C19 1_555 1_555
C21 C16 1_555 1_555
H9 C21 1_555 1_555
N1 C4 1_555 1_555
N2 C6 1_555 1_555
N3 C11 1_555 1_555
N4 C13 1_555 1_555
N5 C18 1_555 1_555
N6 C20 1_555 1_555
O1 C1 1_555 1_555
O2 C1 1_555 1_555
O3 N1 1_555 1_555
O4 N1 1_555 1_555
O5 N2 1_555 1_555
O6 N2 1_555 1_555
O7 C8 1_555 1_555
O8 C8 1_555 1_555
O9 N3 1_555 1_555
O10 N3 1_555 1_555
O11 N4 1_555 1_555
O12 N4 1_555 1_555
O13 C15 1_555 1_555
O14 C15 1_555 1_555
O15 N5 1_555 1_555
O16 N5 1_555 1_555
O17 N6 1_555 1_555
O18 N6 1_555 1_555
O19 H10 1_555 1_555
H11 O19 1_555 1_555
O20 H12 1_555 1_555
H13 O20 1_555 1_555
Nd1 O1 1_555 1_555
C22 H14 1_555 1_555
H15 C22 1_555 1_555
H16 C22 1_555 1_555
C23 C22 1_555 1_555
N7 C23 1_555 1_555
O2B Nd1 1_555 1_555
O8B Nd1 1_555 1_555
O14B Nd1 1_555 1_555
Nd1B O2 1_555 1_555
Nd1B_2 O8 1_555 1_555
C6 C7 1_555 1_555
C13 C14 1_555 1_555
C20 C21 1_555 1_555
O7 Nd1 1_555 1_555
O13 Nd1 1_555 1_555
O14 Nd1B 1_555 1_555
O19 Nd1 1_555 1_555
O20 Nd1 1_555 1_555

#END
