
#######################################################################
#
#                 Cambridge Crystallographic Data Centre
#                                CCDC 
#
#######################################################################
#
# If this CIF has been generated from an entry in the Cambridge 
# Structural Database, then it will include bibliographic, chemical, 
# crystal, experimental, refinement or atomic coordinate data resulting 
# from the CCDC's data processing and validation procedures.
#
#######################################################################

data_PUPMUJ
_symmetry_cell_setting           monoclinic
_symmetry_space_group_name_H-M   'C 2/c'
_symmetry_Int_Tables_number      15
_space_group_name_Hall           '-C 2yn'
loop_
_symmetry_equiv_pos_site_id
_symmetry_equiv_pos_as_xyz
1 x,y,z
2 -x,y,1/2-z
3 1/2+x,1/2+y,z
4 1/2-x,1/2+y,1/2-z
5 -x,-y,-z
6 x,-y,1/2+z
7 1/2-x,1/2-y,-z
8 1/2+x,1/2-y,1/2+z
_cell_length_a                   17.773(7)
_cell_length_b                   7.371(4)
_cell_length_c                   13.609(5)
_cell_angle_alpha                90
_cell_angle_beta                 106.445(16)
_cell_angle_gamma                90
_cell_volume                     1709.91
loop_
_atom_site_label
_atom_site_type_symbol
_atom_site_fract_x
_atom_site_fract_y
_atom_site_fract_z
Zn1 Zn 0.5000 0.91748(3) 0.2500
O1 O 0.50169(6) 1.07814(14) 0.36541(9)
O2 O 0.37593(6) 1.15816(16) 0.33300(9)
N1 N 0.27837(7) 0.68579(17) 0.16205(10)
H1 H 0.2275 0.6885 0.1544
N2 N 0.40244(7) 0.76706(16) 0.20738(9)
C1 C 0.28111(8) 0.39657(19) 0.06408(11)
C2 C 0.32181(8) 0.2331(2) 0.07343(11)
H2 H 0.3709 0.2207 0.1240
C3 C 0.29148(9) 0.08825(19) 0.00965(12)
H3 H 0.3202 -0.0219 0.0161
C4 C 0.31827(8) 0.55218(19) 0.12619(11)
C5 C 0.39491(9) 0.60497(19) 0.15494(11)
H4 H 0.4368 0.5398 0.1409
C6 C 0.33042(8) 0.81051(19) 0.21053(11)
H5 H 0.3177 0.9158 0.2428
C7 C 0.47302(8) 1.34343(19) 0.44363(10)
C8 C 0.54232(8) 1.33936(19) 0.52371(11)
H6 H 0.5711 1.2295 0.5401
C9 C 0.56936(8) 1.49557(19) 0.57959(11)
H7 H 0.6168 1.4926 0.6337
C10 C 0.44659(8) 1.18027(19) 0.37602(11)
Zn1D Zn 0.5000 2.08252(3) 0.7500
Zn1F Zn 0.0000 -0.41748(3) -0.2500
O1D O 0.49831(6) 1.92186(14) 0.63459(9)
O1A O 0.49831(6) 1.07814(14) 0.13459(9)
O2D O 0.62407(6) 1.84184(16) 0.66700(9)
N1F N 0.22163(7) -0.18579(17) -0.16205(10)
H1F H 0.2725 -0.1885 -0.1544
N2F N 0.09756(7) -0.26706(16) -0.20738(9)
N2A N 0.59756(7) 0.76706(16) 0.29262(9)
C1F C 0.21889(8) 0.10343(19) -0.06408(11)
C2F C 0.17819(8) 0.2669(2) -0.07343(11)
H2F H 0.1291 0.2793 -0.1240
C3F C 0.20852(9) 0.41175(19) -0.00965(12)
H3F H 0.1798 0.5219 -0.0161
C4F C 0.18173(8) -0.05218(19) -0.12619(11)
C5F C 0.10509(9) -0.10497(19) -0.15494(11)
H4F H 0.0632 -0.0398 -0.1409
C6F C 0.16958(8) -0.31051(19) -0.21053(11)
H5F H 0.1823 -0.4158 -0.2428
C7D C 0.52698(8) 1.65657(19) 0.55637(10)
C8D C 0.45768(8) 1.66064(19) 0.47629(11)
H6D H 0.4289 1.7705 0.4599
C9D C 0.43064(8) 1.50443(19) 0.42041(11)
H7D H 0.3832 1.5074 0.3663
C10D C 0.55341(8) 1.81973(19) 0.62398(11)
loop_
_geom_bond_atom_site_label_1
_geom_bond_atom_site_label_2
_geom_bond_site_symmetry_1
_geom_bond_site_symmetry_2
Zn1 O1 1_555 1_555
O1 C10 1_555 1_555
O2 C10 1_555 1_555
N1 H1 1_555 1_555
N2 Zn1 1_555 1_555
C1 C2 1_555 1_555
C2 H2 1_555 1_555
C3 C2 1_555 1_555
H3 C3 1_555 1_555
C4 N1 1_555 1_555
C5 N2 1_555 1_555
H4 C5 1_555 1_555
C6 N1 1_555 1_555
H5 C6 1_555 1_555
C7 C8 1_555 1_555
C8 H6 1_555 1_555
C9 C8 1_555 1_555
H7 C9 1_555 1_555
C10 C7 1_555 1_555
Zn1D O1D 1_555 1_555
Zn1F N2F 1_555 1_555
O1D C10D 1_555 1_555
O1A Zn1 1_555 1_555
O2D C10D 1_555 1_555
N1F H1F 1_555 1_555
N2F C5F 1_555 1_555
N2A Zn1 1_555 1_555
C1F C3 1_555 1_555
C2F C1F 1_555 1_555
H2F C2F 1_555 1_555
C3F C1 1_555 1_555
H3F C3F 1_555 1_555
C4F N1F 1_555 1_555
C5F C4F 1_555 1_555
H4F C5F 1_555 1_555
C6F N1F 1_555 1_555
H5F C6F 1_555 1_555
C7D C9 1_555 1_555
C8D C7D 1_555 1_555
H6D C8D 1_555 1_555
C9D C7 1_555 1_555
H7D C9D 1_555 1_555
C10D C7D 1_555 1_555
N2 C6 1_555 1_555
C1 C4 1_555 1_555
C4 C5 1_555 1_555
N2F C6F 1_555 1_555
C1F C4F 1_555 1_555
C2F C3F 1_555 1_555
C8D C9D 1_555 1_555

#END
