
#######################################################################
#
#                 Cambridge Crystallographic Data Centre
#                                CCDC 
#
#######################################################################
#
# If this CIF has been generated from an entry in the Cambridge 
# Structural Database, then it will include bibliographic, chemical, 
# crystal, experimental, refinement or atomic coordinate data resulting 
# from the CCDC's data processing and validation procedures.
#
#######################################################################

data_PUPMIX
_symmetry_cell_setting           monoclinic
_symmetry_space_group_name_H-M   'P 21/c'
_symmetry_Int_Tables_number      14
_space_group_name_Hall           '-P 2ybc'
loop_
_symmetry_equiv_pos_site_id
_symmetry_equiv_pos_as_xyz
1 x,y,z
2 -x,1/2+y,1/2-z
3 -x,-y,-z
4 x,1/2-y,1/2+z
_cell_length_a                   6.2991(13)
_cell_length_b                   8.2673(17)
_cell_length_c                   26.200(5)
_cell_angle_alpha                90
_cell_angle_beta                 90.05(3)
_cell_angle_gamma                90
_cell_volume                     1364.41
loop_
_atom_site_label
_atom_site_type_symbol
_atom_site_fract_x
_atom_site_fract_y
_atom_site_fract_z
Zn1 Zn 0.38798(5) 0.74016(3) 0.298224(11)
C1 C 1.0989(6) 1.0442(5) 0.45580(12)
H1 H 1.1689 1.0763 0.4262
C2 C 0.9007(5) 0.9792(3) 0.45211(10)
C3 C 0.8010(6) 0.9362(5) 0.49730(12)
H2 H 0.6645 0.8934 0.4962
C4 C 0.7950(5) 0.9539(3) 0.40317(11)
C5 C 0.6188(5) 0.8696(3) 0.39006(10)
H3 H 0.5297 0.8164 0.4128
C6 C 0.7486(5) 0.9599(3) 0.31988(11)
H4 H 0.7690 0.9827 0.2855
C7 C -0.0865(6) 0.5251(4) 0.41966(12)
H5 H 0.0357 0.5735 0.4324
C8 C -0.2325(7) 0.4573(5) 0.45298(13)
H6 H -0.2085 0.4609 0.4880
C9 C -0.4121(6) 0.3851(5) 0.43422(12)
H7 H -0.5095 0.3396 0.4567
C10 C -0.4502(5) 0.3790(4) 0.38204(11)
H8 H -0.5728 0.3304 0.3695
C11 C -0.3029(4) 0.4465(3) 0.34868(10)
C12 C -0.1217(5) 0.5210(3) 0.36744(10)
C13 C 0.0381(5) 0.5944(3) 0.33156(11)
C14 C -0.3520(4) 0.4368(3) 0.29251(10)
N1 N 0.5913(4) 0.8744(3) 0.33800(8)
N2 N 0.8763(4) 1.0101(3) 0.35742(9)
H9 H 0.9892 1.0675 0.3538
O1 O 0.0214(4) 0.5721(3) 0.28586(8)
O2 O 0.1862(4) 0.6780(3) 0.35112(8)
O3 O -0.4561(3) 0.5473(2) 0.27118(7)
O4 O -0.2969(4) 0.3096(2) 0.26970(7)
Zn1B Zn 1.61202(5) 1.25984(3) 0.701776(11)
Zn1_2 Zn -0.61202(5) 0.74016(3) 0.298224(11)
Zn1A Zn -0.38798(5) 0.24016(3) 0.201776(11)
Zn1B_2 Zn 2.61202(5) 1.25984(3) 0.701776(11)
Zn1C Zn 2.38798(5) 1.75984(3) 0.798224(11)
C1B C 0.9011(6) 0.9558(5) 0.54420(12)
H1B H 0.8311 0.9237 0.5738
C2B C 1.0993(5) 1.0208(3) 0.54789(10)
C3B C 1.1990(6) 1.0638(5) 0.50270(12)
H2B H 1.3355 1.1066 0.5038
C4B C 1.2050(5) 1.0461(3) 0.59683(11)
C5B C 1.3812(5) 1.1304(3) 0.60994(10)
H3B H 1.4703 1.1836 0.5872
C6B C 1.2514(5) 1.0401(3) 0.68012(11)
H4B H 1.2310 1.0173 0.7145
C7B C 2.0865(6) 1.4749(4) 0.58034(12)
H5B H 1.9643 1.4265 0.5676
C8B C 2.2325(7) 1.5427(5) 0.54702(13)
H6B H 2.2085 1.5391 0.5120
C9B C 2.4121(6) 1.6149(5) 0.56578(12)
H7B H 2.5095 1.6604 0.5433
C10B C 2.4502(5) 1.6210(4) 0.61796(11)
H8B H 2.5728 1.6696 0.6305
C11B C 2.3029(4) 1.5535(3) 0.65132(10)
C12B C 2.1217(5) 1.4790(3) 0.63256(10)
C13B C 1.9619(5) 1.4056(3) 0.66844(11)
C14B C 2.3520(4) 1.5632(3) 0.70749(10)
N1B N 1.4087(4) 1.1256(3) 0.66200(8)
N2B N 1.1237(4) 0.9899(3) 0.64258(9)
H9B H 1.0108 0.9325 0.6462
O1B O 1.9786(4) 1.4279(3) 0.71414(8)
O2B O 1.8138(4) 1.3220(3) 0.64888(8)
O3B O 2.4561(3) 1.4527(2) 0.72882(7)
O3_2 O 0.5439(3) 0.5473(2) 0.27118(7)
O3B_2 O 1.4561(3) 1.4527(2) 0.72882(7)
O4B O 2.2969(4) 1.6904(2) 0.73030(7)
O4A O 0.2969(4) 0.8096(2) 0.23030(7)
O4C O 1.7031(4) 1.1904(2) 0.76970(7)
O5 O 0.8233(6) 0.7054(5) 0.19071(12)
H10 H 0.842(10) 0.758(5) 0.206(2)
H11 H 0.769(7) 0.654(5) 0.2065(16)
loop_
_geom_bond_atom_site_label_1
_geom_bond_atom_site_label_2
_geom_bond_site_symmetry_1
_geom_bond_site_symmetry_2
Zn1 N1 1_555 1_555
C1 H1 1_555 1_555
C2 C1 1_555 1_555
C3 C2 1_555 1_555
H2 C3 1_555 1_555
C4 C2 1_555 1_555
C5 C4 1_555 1_555
H3 C5 1_555 1_555
C6 H4 1_555 1_555
C7 H5 1_555 1_555
C8 C7 1_555 1_555
H6 C8 1_555 1_555
C9 C8 1_555 1_555
H7 C9 1_555 1_555
C10 C9 1_555 1_555
H8 C10 1_555 1_555
C11 C10 1_555 1_555
C12 C7 1_555 1_555
C13 C12 1_555 1_555
C14 C11 1_555 1_555
N1 C5 1_555 1_555
N2 C4 1_555 1_555
H9 N2 1_555 1_555
O1 C13 1_555 1_555
O2 Zn1 1_555 1_555
O3 C14 1_555 1_555
O4 C14 1_555 1_555
O5 H10 1_555 1_555
H11 O5 1_555 1_555
Zn1B N1B 1_555 1_555
Zn1_2 O3 1_555 1_555
Zn1A O4 1_555 1_555
Zn1B_2 O3B 1_555 1_555
Zn1C O4B 1_555 1_555
C1B C3 1_555 1_555
H1B C1B 1_555 1_555
C2B C1B 1_555 1_555
C3B C1 1_555 1_555
H2B C3B 1_555 1_555
C4B C2B 1_555 1_555
C5B C4B 1_555 1_555
H3B C5B 1_555 1_555
C6B H4B 1_555 1_555
C7B H5B 1_555 1_555
C8B C7B 1_555 1_555
H6B C8B 1_555 1_555
C9B C8B 1_555 1_555
H7B C9B 1_555 1_555
C10B C9B 1_555 1_555
H8B C10B 1_555 1_555
C11B C10B 1_555 1_555
C12B C7B 1_555 1_555
C13B C12B 1_555 1_555
C14B C11B 1_555 1_555
N1B C5B 1_555 1_555
N2B C4B 1_555 1_555
H9B N2B 1_555 1_555
O1B C13B 1_555 1_555
O2B Zn1B 1_555 1_555
O3B C14B 1_555 1_555
O3_2 Zn1 1_555 1_555
O3B_2 Zn1B 1_555 1_555
O4B C14B 1_555 1_555
O4A Zn1 1_555 1_555
O4C Zn1B 1_555 1_555
C6 N1 1_555 1_555
C6 N2 1_555 1_555
C11 C12 1_555 1_555
C13 O2 1_555 1_555
C2B C3B 1_555 1_555
C6B N1B 1_555 1_555
C6B N2B 1_555 1_555
C11B C12B 1_555 1_555
C13B O2B 1_555 1_555

#END
