
#######################################################################
#
#                 Cambridge Crystallographic Data Centre
#                                CCDC 
#
#######################################################################
#
# If this CIF has been generated from an entry in the Cambridge 
# Structural Database, then it will include bibliographic, chemical, 
# crystal, experimental, refinement or atomic coordinate data resulting 
# from the CCDC's data processing and validation procedures.
#
#######################################################################

data_PUPMAQ
_symmetry_cell_setting           monoclinic
_symmetry_space_group_name_H-M   'P 21'
_symmetry_Int_Tables_number      4
_space_group_name_Hall           'P 2yb'
loop_
_symmetry_equiv_pos_site_id
_symmetry_equiv_pos_as_xyz
1 x,y,z
2 -x,1/2+y,-z
_cell_length_a                   17.5380(5)
_cell_length_b                   6.9480(2)
_cell_length_c                   19.1470(6)
_cell_angle_alpha                90
_cell_angle_beta                 101.6840(12)
_cell_angle_gamma                90
_cell_volume                     2284.79
loop_
_atom_site_label
_atom_site_type_symbol
_atom_site_fract_x
_atom_site_fract_y
_atom_site_fract_z
C1 C 0.6534(2) 0.3484(6) 0.4901(2)
C2 C 0.7354(3) 0.3109(7) 0.4784(3)
C3 C 0.8015(3) 0.3472(8) 0.5308(3)
C4 C 0.8757(3) 0.3332(10) 0.5176(3)
H1 H 0.9190 0.3636 0.5526
C5 C 0.8837(3) 0.2734(9) 0.4517(3)
C6 C 0.8210(3) 0.2330(9) 0.3982(3)
H2 H 0.8279 0.1935 0.3535
C7 C 0.7468(3) 0.2528(8) 0.4126(3)
H3 H 0.7037 0.2261 0.3768
C8 C 0.6673(3) 0.7151(9) 0.7260(2)
C9 C 0.7543(3) 0.7247(9) 0.7537(2)
C10 C 0.7962(3) 0.6031(7) 0.8047(3)
C11 C 0.8759(3) 0.6220(8) 0.8288(3)
H4 H 0.9033 0.5404 0.8635
C12 C 0.9123(3) 0.7648(9) 0.7995(3)
C13 C 0.8751(3) 0.8891(10) 0.7496(3)
H5 H 0.9024 0.9842 0.7309
C14 C 0.7944(3) 0.8709(10) 0.7270(3)
H6 H 0.7675 0.9571 0.6938
C15 C 0.4747(2) 0.7026(7) 0.4006(2)
C16 C 0.4382(4) 0.7010(12) 0.3234(3)
H7 H 0.4746 0.6513 0.2967
H8 H 0.4237 0.8297 0.3080
H9 H 0.3926 0.6209 0.3158
N1 N 0.7940(3) 0.3925(12) 0.6029(3)
N2 N 0.9634(3) 0.2480(10) 0.4379(3)
N3 N 0.7573(2) 0.4446(7) 0.8340(2)
N4 N 0.9981(3) 0.7781(9) 0.8215(3)
O1 O 0.64343(19) 0.4976(5) 0.5216(2)
O2 O 0.60331(15) 0.2238(5) 0.46489(15)
O3 O 0.6520(2) 0.8829(5) 0.5291(3)
H10 H 0.642(4) 0.977(6) 0.503(3)
H11 H 0.682(3) 0.828(9) 0.510(3)
O4 O 0.7522(4) 0.2942(10) 0.6303(3)
O5 O 0.49035(18) 0.7201(6) 0.66786(17)
H12 H 0.528(2) 0.738(9) 0.701(2)
H13 H 0.451(2) 0.682(9) 0.679(3)
O6 O 0.8321(4) 0.5181(16) 0.6320(4)
O7 O 1.0170(3) 0.3008(11) 0.4838(3)
O8 O 0.9703(3) 0.1724(11) 0.3829(3)
O9 O 0.64662(17) 0.6923(8) 0.66025(16)
O10 O 0.6239(2) 0.7405(7) 0.76856(18)
O11 O 0.7008(3) 0.3733(7) 0.7986(2)
O12 O 0.7820(3) 0.3975(10) 0.8953(2)
O13 O 1.0300(2) 0.6805(9) 0.8719(3)
O14 O 1.0324(2) 0.8872(10) 0.7887(3)
O15 O 0.4841(2) 0.5467(5) 0.43493(17)
O16 O 0.49665(18) 0.8589(5) 0.43205(16)
Nd1 Nd 0.541917(12) 0.69875(3) 0.557811(11)
O2A O 0.39669(15) 0.7238(5) 0.53511(15)
O15A O 0.5159(2) 1.0467(5) 0.56507(17)
O16A O 0.50335(18) 0.3589(5) 0.56795(16)
Nd1A Nd 0.458083(12) 0.19875(3) 0.442189(11)
Nd1A_2 Nd 0.458083(12) 1.19875(3) 0.442189(11)
C17 C 0.3568(2) 0.4285(8) 0.7788(2)
C18 C 0.2706(3) 0.3799(7) 0.7586(2)
C19 C 0.2363(3) 0.2892(8) 0.6956(3)
C20 C 0.1572(3) 0.2540(9) 0.6761(3)
H14 H 0.1353 0.1917 0.6338
C21 C 0.1123(3) 0.3176(10) 0.7237(3)
C22 C 0.1431(3) 0.4090(11) 0.7856(3)
H15 H 0.1112 0.4511 0.8158
C23 C 0.2230(3) 0.4390(10) 0.8033(3)
H16 H 0.2446 0.4999 0.8460
C24 C 0.3460(2) 0.2449(6) 1.0105(2)
C25 C 0.2579(2) 0.2545(6) 0.9940(3)
C26 C 0.2116(3) 0.1148(7) 0.9538(3)
C27 C 0.1319(3) 0.1222(8) 0.9391(3)
H17 H 0.1024 0.0279 0.9115
C28 C 0.0974(3) 0.2721(8) 0.9662(3)
C29 C 0.1388(3) 0.4119(9) 1.0079(3)
H18 H 0.1136 0.5112 1.0268
C30 C 0.2191(3) 0.4008(8) 1.0212(3)
H19 H 0.2481 0.4949 1.0494
C31 C 0.5414(2) 0.4174(7) 1.0967(2)
C32 C 0.5522(4) 0.4256(10) 1.1755(2)
H20 H 0.5749 0.5470 1.1923
H21 H 0.5860 0.3231 1.1963
H22 H 0.5026 0.4122 1.1889
N5 N 0.2833(3) 0.2192(8) 0.6453(3)
N6 N 0.0275(3) 0.2788(11) 0.7058(4)
N7 N 0.2483(2) -0.0448(8) 0.9213(3)
N8 N 0.0117(3) 0.2831(8) 0.9483(3)
O17 O 0.6129(2) 0.2149(7) 0.9257(3)
H23 H 0.651(3) 0.270(9) 0.918(4)
H24 H 0.621(4) 0.107(5) 0.944(4)
O18 O 0.5337(2) 0.4855(7) 0.82436(19)
H25 H 0.573(2) 0.541(8) 0.819(3)
H26 H 0.492(2) 0.498(10) 0.796(3)
O19 O 0.3890(2) 0.4949(7) 0.73241(19)
O20 O 0.38701(19) 0.3957(6) 0.84233(18)
O21 O 0.3420(3) 0.1302(8) 0.6689(3)
O22 O 0.2588(3) 0.2537(8) 0.5829(2)
O23 O 0.0035(3) 0.1782(11) 0.6541(3)
O24 O -0.0119(3) 0.3491(10) 0.7437(3)
O25 O 0.2960(3) -0.0024(8) 0.8868(3)
O26 O 0.2272(3) -0.2069(7) 0.9314(4)
O27 O -0.0225(2) 0.1868(9) 0.8988(3)
O28 O -0.0204(2) 0.3895(9) 0.9838(3)
O29 O 0.38130(16) 0.3874(5) 0.99392(17)
O30 O 0.37530(17) 0.0946(5) 1.04006(19)
O31 O 0.5286(2) 0.5715(5) 1.06091(17)
O32 O 0.54258(17) 0.2606(5) 1.06454(17)
Nd2 Nd 0.498881(12) 0.41902(3) 0.938052(11)
O30A O 0.62470(17) 0.5946(5) 0.95994(19)
O31A O 0.4714(2) 0.0715(5) 0.93909(17)
O32A O 0.45742(17) 0.7606(5) 0.93546(17)
Nd2A Nd 0.501119(12) -0.08098(3) 1.061948(11)
Nd2A_2 Nd 0.501119(12) 0.91902(3) 1.061948(11)
loop_
_geom_bond_atom_site_label_1
_geom_bond_atom_site_label_2
_geom_bond_site_symmetry_1
_geom_bond_site_symmetry_2
C1 C2 1_555 1_555
C2 C3 1_555 1_555
C3 C4 1_555 1_555
C4 H1 1_555 1_555
C5 C4 1_555 1_555
C6 C5 1_555 1_555
H2 C6 1_555 1_555
C7 C2 1_555 1_555
H3 C7 1_555 1_555
C8 C9 1_555 1_555
C9 C10 1_555 1_555
C10 C11 1_555 1_555
C11 H4 1_555 1_555
C12 C11 1_555 1_555
C13 C12 1_555 1_555
H5 C13 1_555 1_555
C14 C9 1_555 1_555
H6 C14 1_555 1_555
C15 C16 1_555 1_555
C16 H7 1_555 1_555
H8 C16 1_555 1_555
H9 C16 1_555 1_555
N1 C3 1_555 1_555
N2 C5 1_555 1_555
N3 C10 1_555 1_555
N4 C12 1_555 1_555
O1 C1 1_555 1_555
O2 C1 1_555 1_555
O3 H10 1_555 1_555
H11 O3 1_555 1_555
O4 N1 1_555 1_555
O5 H12 1_555 1_555
H13 O5 1_555 1_555
O6 N1 1_555 1_555
O7 N2 1_555 1_555
O8 N2 1_555 1_555
O9 C8 1_555 1_555
O10 C8 1_555 1_555
O11 N3 1_555 1_555
O12 N3 1_555 1_555
O13 N4 1_555 1_555
O14 N4 1_555 1_555
O15 C15 1_555 1_555
O16 C15 1_555 1_555
Nd1 O1 1_555 1_555
C17 C18 1_555 1_555
C18 C19 1_555 1_555
C19 C20 1_555 1_555
C20 H14 1_555 1_555
C21 C20 1_555 1_555
C22 C21 1_555 1_555
H15 C22 1_555 1_555
C23 C18 1_555 1_555
H16 C23 1_555 1_555
C24 C25 1_555 1_555
C25 C26 1_555 1_555
C26 C27 1_555 1_555
C27 H17 1_555 1_555
C28 C27 1_555 1_555
C29 C28 1_555 1_555
H18 C29 1_555 1_555
C30 C25 1_555 1_555
H19 C30 1_555 1_555
C31 C32 1_555 1_555
C32 H20 1_555 1_555
H21 C32 1_555 1_555
H22 C32 1_555 1_555
N5 C19 1_555 1_555
N6 C21 1_555 1_555
N7 C26 1_555 1_555
N8 C28 1_555 1_555
O17 H23 1_555 1_555
H24 O17 1_555 1_555
O18 H25 1_555 1_555
H26 O18 1_555 1_555
O19 C17 1_555 1_555
O20 C17 1_555 1_555
O21 N5 1_555 1_555
O22 N5 1_555 1_555
O23 N6 1_555 1_555
O24 N6 1_555 1_555
O25 N7 1_555 1_555
O26 N7 1_555 1_555
O27 N8 1_555 1_555
O28 N8 1_555 1_555
O29 C24 1_555 1_555
O30 C24 1_555 1_555
O31 C31 1_555 1_555
O32 C31 1_555 1_555
Nd2 O17 1_555 1_555
O2A Nd1 1_555 1_555
O15A Nd1 1_555 1_555
O16A Nd1 1_555 1_555
Nd1A O2 1_555 1_555
Nd1A_2 O16 1_555 1_555
O30A Nd2 1_555 1_555
O31A Nd2 1_555 1_555
O32A Nd2 1_555 1_555
Nd2A O30 1_555 1_555
Nd2A_2 O31 1_555 1_555
C6 C7 1_555 1_555
C13 C14 1_555 1_555
O3 Nd1 1_555 1_555
O5 Nd1 1_555 1_555
O9 Nd1 1_555 1_555
O15 Nd1 1_555 1_555
O15 Nd1A 1_555 1_555
O16 Nd1 1_555 1_555
C22 C23 1_555 1_555
C29 C30 1_555 1_555
O18 Nd2 1_555 1_555
O20 Nd2 1_555 1_555
O29 Nd2 1_555 1_555
O31 Nd2 1_555 1_555
O32 Nd2 1_555 1_555
O32 Nd2A 1_555 1_555
O15A Nd1A_2 1_555 1_555
O16A Nd1A 1_555 1_555
O31A Nd2A 1_555 1_555
O32A Nd2A_2 1_555 1_555

#END
