
#######################################################################
#
#                 Cambridge Crystallographic Data Centre
#                                CCDC 
#
#######################################################################
#
# If this CIF has been generated from an entry in the Cambridge 
# Structural Database, then it will include bibliographic, chemical, 
# crystal, experimental, refinement or atomic coordinate data resulting 
# from the CCDC's data processing and validation procedures.
#
#######################################################################

data_PUPMET
_symmetry_cell_setting           monoclinic
_symmetry_space_group_name_H-M   'P 21/c'
_symmetry_Int_Tables_number      14
_space_group_name_Hall           '-P 2ybc'
loop_
_symmetry_equiv_pos_site_id
_symmetry_equiv_pos_as_xyz
1 x,y,z
2 -x,1/2+y,1/2-z
3 -x,-y,-z
4 x,1/2-y,1/2+z
_cell_length_a                   12.9233(16)
_cell_length_b                   8.1664(10)
_cell_length_c                   9.1301(11)
_cell_angle_alpha                90
_cell_angle_beta                 106.578(2)
_cell_angle_gamma                90
_cell_volume                     923.509
loop_
_atom_site_label
_atom_site_type_symbol
_atom_site_fract_x
_atom_site_fract_y
_atom_site_fract_z
Zn1 Zn 0.88371(3) 1.05651(4) 0.86362(4)
C1 C 0.5723(4) 0.4123(5) 0.6124(5)
H1 H 0.6206 0.3517 0.6879
C2 C 0.5814(3) 0.5807(4) 0.6098(4)
C3 C 0.5082(3) 0.6654(4) 0.4967(5)
H2 H 0.5132 0.7789 0.4939
C4 C 0.6688(3) 0.6683(4) 0.7204(4)
C5 C 0.6990(3) 0.8268(4) 0.7264(4)
H3 H 0.6629 0.9078 0.6596
C6 C 0.8129(3) 0.7089(4) 0.9128(4)
H4 H 0.8703 0.6891 0.9993
C7 C 0.8367(2) 1.2185(3) 0.5731(4)
C8 C 0.9364(2) 1.3128(3) 0.6729(3)
N1 N 0.7908(2) 0.8516(3) 0.8455(3)
N2 N 0.7427(3) 0.5970(4) 0.8414(4)
H5 H 0.7434 0.4955 0.8669
O1 O 0.80500(19) 1.1018(3) 0.6359(3)
O2 O 0.79667(18) 1.2628(3) 0.4380(3)
O3 O 0.96945(18) 1.4266(2) 0.6035(3)
O4 O 0.97529(18) 1.2677(3) 0.8056(3)
Zn1B Zn 0.11629(3) -0.05651(4) 0.13638(4)
Zn1A Zn 0.11629(3) -0.44349(4) 0.63638(4)
Zn1A_2 Zn 1.11629(3) 1.55651(4) 0.63638(4)
Zn1C Zn -0.11629(3) -0.55651(4) 0.36362(4)
Zn1C_2 Zn 0.88371(3) 1.44349(4) 0.36362(4)
C1B C 0.4277(4) 0.5877(5) 0.3876(5)
H1B H 0.3794 0.6483 0.3121
C2B C 0.4186(3) 0.4193(4) 0.3902(4)
C3B C 0.4918(3) 0.3346(4) 0.5033(5)
H2B H 0.4868 0.2211 0.5061
C4B C 0.3312(3) 0.3317(4) 0.2796(4)
C5B C 0.3010(3) 0.1732(4) 0.2736(4)
H3B H 0.3371 0.0922 0.3404
C6B C 0.1871(3) 0.2911(4) 0.0872(4)
H4B H 0.1297 0.3109 0.0007
C7B C 0.1633(2) -0.2185(3) 0.4269(4)
C8B C 0.0636(2) -0.3128(3) 0.3271(3)
N1B N 0.2092(2) 0.1484(3) 0.1545(3)
N2B N 0.2573(3) 0.4030(4) 0.1586(4)
H5B H 0.2566 0.5045 0.1331
O1B O 0.19500(19) -0.1018(3) 0.3641(3)
O2B O 0.20333(18) -0.2628(3) 0.5620(3)
O2A O 0.20333(18) -0.2372(3) 0.0620(3)
O2C O 0.79667(18) 1.2372(3) 0.9380(3)
O3B O 0.03055(18) -0.4266(2) 0.3965(3)
O3A O 0.03055(18) -0.0734(2) -0.1035(3)
O3A_2 O 1.03055(18) 0.9266(2) 0.8965(3)
O3C O -0.03055(18) 0.0734(2) 0.1035(3)
O3C_2 O 0.96945(18) 1.0734(2) 1.1035(3)
O4B O 0.02471(18) -0.2677(3) 0.1944(3)
loop_
_geom_bond_atom_site_label_1
_geom_bond_atom_site_label_2
_geom_bond_site_symmetry_1
_geom_bond_site_symmetry_2
Zn1 N1 1_555 1_555
C1 H1 1_555 1_555
C2 C1 1_555 1_555
C3 C2 1_555 1_555
H2 C3 1_555 1_555
C4 C2 1_555 1_555
C5 C4 1_555 1_555
H3 C5 1_555 1_555
C6 H4 1_555 1_555
C7 C8 1_555 1_555
C8 O3 1_555 1_555
N1 C5 1_555 1_555
N2 C4 1_555 1_555
H5 N2 1_555 1_555
O1 Zn1 1_555 1_555
O2 C7 1_555 1_555
O3 Zn1A_2 1_555 1_555
O4 Zn1 1_555 1_555
Zn1B N1B 1_555 1_555
Zn1A O2B 1_555 1_555
Zn1C O3B 1_555 1_555
Zn1C_2 O2 1_555 1_555
C1B C3 1_555 1_555
H1B C1B 1_555 1_555
C2B C1B 1_555 1_555
C3B C1 1_555 1_555
H2B C3B 1_555 1_555
C4B C2B 1_555 1_555
C5B C4B 1_555 1_555
H3B C5B 1_555 1_555
C6B H4B 1_555 1_555
C7B C8B 1_555 1_555
C8B O3B 1_555 1_555
N1B C5B 1_555 1_555
N2B C4B 1_555 1_555
H5B N2B 1_555 1_555
O1B Zn1B 1_555 1_555
O2B C7B 1_555 1_555
O2A Zn1B 1_555 1_555
O2C Zn1 1_555 1_555
O3B Zn1A 1_555 1_555
O3A Zn1B 1_555 1_555
O3A_2 Zn1 1_555 1_555
O3C Zn1B 1_555 1_555
O3C_2 Zn1 1_555 1_555
O4B Zn1B 1_555 1_555
C6 N1 1_555 1_555
C6 N2 1_555 1_555
C7 O1 1_555 1_555
C8 O4 1_555 1_555
O3 Zn1C_2 1_555 1_555
C2B C3B 1_555 1_555
C6B N1B 1_555 1_555
C6B N2B 1_555 1_555
C7B O1B 1_555 1_555
C8B O4B 1_555 1_555

#END
