
#######################################################################
#
#                 Cambridge Crystallographic Data Centre
#                                CCDC 
#
#######################################################################
#
# If this CIF has been generated from an entry in the Cambridge 
# Structural Database, then it will include bibliographic, chemical, 
# crystal, experimental, refinement or atomic coordinate data resulting 
# from the CCDC's data processing and validation procedures.
#
#######################################################################

data_PUPNEU
_symmetry_cell_setting           monoclinic
_symmetry_space_group_name_H-M   'C 2/c'
_symmetry_Int_Tables_number      15
_space_group_name_Hall           '-C 2yn'
loop_
_symmetry_equiv_pos_site_id
_symmetry_equiv_pos_as_xyz
1 x,y,z
2 -x,y,1/2-z
3 1/2+x,1/2+y,z
4 1/2-x,1/2+y,1/2-z
5 -x,-y,-z
6 x,-y,1/2+z
7 1/2-x,1/2-y,-z
8 1/2+x,1/2-y,1/2+z
_cell_length_a                   25.7152(19)
_cell_length_b                   12.4412(9)
_cell_length_c                   17.4887(12)
_cell_angle_alpha                90
_cell_angle_beta                 131.2260(10)
_cell_angle_gamma                90
_cell_volume                     4208.18
loop_
_atom_site_label
_atom_site_type_symbol
_atom_site_fract_x
_atom_site_fract_y
_atom_site_fract_z
Zn1 Zn 0.5000 -0.39713(2) 0.7500
Zn2 Zn 0.274010(13) -1.297010(19) 0.862940(17)
C1 C 0.47801(10) -0.74914(17) 0.92797(15)
C2 C 0.44243(11) -0.82752(18) 0.85261(15)
H1 H 0.4358 -0.8189 0.7939
C3 C 0.41690(11) -0.91758(17) 0.86374(15)
H2 H 0.3933 -0.9690 0.8124
C4 C 0.42601(10) -0.93290(16) 0.95102(15)
C5 C 0.46264(11) -0.85549(17) 1.02644(15)
H3 H 0.4698 -0.8645 1.0856
C6 C 0.48865(11) -0.76572(18) 1.01610(15)
H4 H 0.5136 -0.7156 1.0684
C7 C 0.39817(10) -1.02937(17) 0.96096(14)
C8 C 0.35799(12) -1.10980(18) 0.89521(16)
H5 H 0.3411 -1.1142 0.8292
C9 C 0.37844(11) -1.14844(17) 1.03240(16)
H6 H 0.3794 -1.1830 1.0805
C10 C 0.49959(11) -0.64956(17) 0.91086(15)
C11 C 0.47374(11) -0.59756(17) 0.82394(16)
H7 H 0.4380 -0.6230 0.7587
C12 C 0.55499(11) -0.49697(18) 0.94659(15)
H8 H 0.5862 -0.4408 0.9833
C13 C 0.69466(11) -0.09860(16) 0.91299(14)
H9 H 0.6765 -0.0854 0.8471
C14 C 0.66620(10) -0.17965(16) 0.93015(14)
C15 C 0.69384(10) -0.19901(15) 1.02889(14)
H10 H 0.6752 -0.2528 1.0414
C16 C 0.74948(10) -0.13829(16) 1.10943(14)
C17 C 0.77727(10) -0.05822(16) 1.09105(14)
H11 H 0.8146 -0.0182 1.1449
C18 C 0.74954(11) -0.03713(16) 0.99218(15)
C19 C 0.77580(11) 0.05512(17) 0.97110(16)
C20 C 0.60394(10) -0.23996(17) 0.84111(14)
C21 C 0.77746(11) -0.15604(16) 1.21564(15)
N1 N 0.34543(9) -1.18434(14) 0.93939(13)
N2 N 0.41004(9) -1.05607(14) 1.04776(12)
H12 H 0.4340 -1.0190 1.1029
N3 N 0.50799(9) -0.50184(14) 0.84610(12)
N4 N 0.55150(9) -0.58347(15) 0.98802(13)
H13 H 0.5773 -0.5960 1.0521
O1 O 0.76020(8) 0.05575(13) 0.88516(11)
O2 O 0.80905(9) 0.12903(13) 1.03320(12)
O3 O 0.74239(8) -0.21676(12) 1.22521(11)
O4 O 0.83113(9) -0.11012(13) 1.28898(11)
O5 O 0.58751(7) -0.32548(12) 0.86006(10)
O6 O 0.57097(9) -0.20207(13) 0.75471(11)
O7 O 0.19223(9) -1.22014(15) 0.83109(12)
H14 H 0.1975 -1.1863 0.8788
H15 H 0.1795 -1.1819 0.7889
Zn2A Zn 0.725990(13) -1.297010(19) 0.637060(17)
Zn2B Zn 0.774010(13) 0.202990(19) 0.862940(17)
Zn2G Zn 0.774010(13) -0.202990(19) 1.362940(17)
Zn2C Zn 0.225990(13) 0.202990(19) 0.637060(17)
Zn2F Zn 0.225990(13) -0.202990(19) 0.137060(17)
C1A C 0.52199(10) -0.74914(17) 0.57203(15)
C2A C 0.55757(11) -0.82752(18) 0.64739(15)
H1A H 0.5642 -0.8189 0.7061
C3A C 0.58310(11) -0.91758(17) 0.63626(15)
H2A H 0.6067 -0.9690 0.6876
C4A C 0.57399(10) -0.93290(16) 0.54898(15)
C5A C 0.53736(11) -0.85549(17) 0.47356(15)
H3A H 0.5302 -0.8645 0.4144
C6A C 0.51135(11) -0.76572(18) 0.48390(15)
H4A H 0.4864 -0.7156 0.4316
C7A C 0.60183(10) -1.02937(17) 0.53904(14)
C8A C 0.64201(12) -1.10980(18) 0.60479(16)
H5A H 0.6589 -1.1142 0.6708
C9A C 0.62156(11) -1.14844(17) 0.46760(16)
H6A H 0.6206 -1.1830 0.4195
C10A C 0.50041(11) -0.64956(17) 0.58914(15)
C11A C 0.52626(11) -0.59756(17) 0.67606(16)
H7A H 0.5620 -0.6230 0.7413
C12A C 0.44501(11) -0.49697(18) 0.55341(15)
H8A H 0.4138 -0.4408 0.5167
C13A C 0.30534(11) -0.09860(16) 0.58701(14)
H9A H 0.3235 -0.0854 0.6529
C14A C 0.33380(10) -0.17965(16) 0.56985(14)
C15A C 0.30616(10) -0.19901(15) 0.47111(14)
H10A H 0.3248 -0.2528 0.4586
C16A C 0.25052(10) -0.13829(16) 0.39057(14)
C17A C 0.22273(10) -0.05822(16) 0.40895(14)
H11A H 0.1854 -0.0182 0.3551
C18A C 0.25046(11) -0.03713(16) 0.50782(15)
C19A C 0.22420(11) 0.05512(17) 0.52890(16)
C20A C 0.39606(10) -0.23996(17) 0.65889(14)
C21A C 0.22254(11) -0.15604(16) 0.28436(15)
N1A N 0.65457(9) -1.18434(14) 0.56061(13)
N2A N 0.58996(9) -1.05607(14) 0.45224(12)
H12A H 0.5660 -1.0190 0.3971
N3A N 0.49201(9) -0.50184(14) 0.65390(12)
N4A N 0.44850(9) -0.58347(15) 0.51198(13)
H13A H 0.4227 -0.5960 0.4479
O1A O 0.23980(8) 0.05575(13) 0.61484(11)
O1B O 0.26020(8) -1.44425(13) 0.88516(11)
O1C O 0.73980(8) -1.44425(13) 0.61484(11)
O2A O 0.19095(9) 0.12903(13) 0.46680(12)
O3A O 0.25761(8) -0.21676(12) 0.27479(11)
O3G O 0.24239(8) -1.28324(12) 0.72521(11)
O3F O 0.75761(8) -1.28324(12) 0.77479(11)
O4A O 0.16887(9) -0.11012(13) 0.21102(11)
O5A O 0.41249(7) -0.32548(12) 0.63994(10)
O6A O 0.42903(9) -0.20207(13) 0.74529(11)
O7A O 0.80777(9) -1.22014(15) 0.66891(12)
H14A H 0.8025 -1.1863 0.6212
H15A H 0.8205 -1.1819 0.7111
O8 O 0.15991(12) 0.89374(18) 0.67356(16)
H16 H 0.1936 0.8457 0.6797
H17 H 0.1683 0.9756 0.6913
O9 O 0.5000 0.03191(19) 0.2500
H18 H 0.5241 0.0670 0.2527
H18A H 0.4759 0.0670 0.2473
loop_
_geom_bond_atom_site_label_1
_geom_bond_atom_site_label_2
_geom_bond_site_symmetry_1
_geom_bond_site_symmetry_2
Zn1 N3 1_555 1_555
Zn2 N1 1_555 1_555
C1 C2 1_555 1_555
C2 H1 1_555 1_555
C3 C2 1_555 1_555
H2 C3 1_555 1_555
C4 C3 1_555 1_555
C5 C4 1_555 1_555
H3 C5 1_555 1_555
C6 C1 1_555 1_555
H4 C6 1_555 1_555
C7 C4 1_555 1_555
C8 C7 1_555 1_555
H5 C8 1_555 1_555
C9 H6 1_555 1_555
C10 C1 1_555 1_555
C11 C10 1_555 1_555
H7 C11 1_555 1_555
C12 H8 1_555 1_555
C13 H9 1_555 1_555
C14 C13 1_555 1_555
C15 C14 1_555 1_555
H10 C15 1_555 1_555
C16 C15 1_555 1_555
C17 C16 1_555 1_555
H11 C17 1_555 1_555
C18 C13 1_555 1_555
C19 C18 1_555 1_555
C20 C14 1_555 1_555
C21 C16 1_555 1_555
N1 C8 1_555 1_555
N2 C7 1_555 1_555
H12 N2 1_555 1_555
N3 C11 1_555 1_555
N4 C10 1_555 1_555
H13 N4 1_555 1_555
O1 C19 1_555 1_555
O2 C19 1_555 1_555
O3 C21 1_555 1_555
O4 C21 1_555 1_555
O5 Zn1 1_555 1_555
O6 C20 1_555 1_555
O7 Zn2 1_555 1_555
H14 O7 1_555 1_555
H15 O7 1_555 1_555
O8 H16 1_555 1_555
H17 O8 1_555 1_555
O9 H18 1_555 1_555
Zn2A N1A 1_555 1_555
Zn2B O1 1_555 1_555
Zn2G O3 1_555 1_555
Zn2C O1A 1_555 1_555
Zn2F O3A 1_555 1_555
C1A C2A 1_555 1_555
C2A H1A 1_555 1_555
C3A C2A 1_555 1_555
H2A C3A 1_555 1_555
C4A C3A 1_555 1_555
C5A C4A 1_555 1_555
H3A C5A 1_555 1_555
C6A C1A 1_555 1_555
H4A C6A 1_555 1_555
C7A C4A 1_555 1_555
C8A C7A 1_555 1_555
H5A C8A 1_555 1_555
C9A H6A 1_555 1_555
C10A C1A 1_555 1_555
C11A C10A 1_555 1_555
H7A C11A 1_555 1_555
C12A H8A 1_555 1_555
C13A H9A 1_555 1_555
C14A C13A 1_555 1_555
C15A C14A 1_555 1_555
H10A C15A 1_555 1_555
C16A C15A 1_555 1_555
C17A C16A 1_555 1_555
H11A C17A 1_555 1_555
C18A C13A 1_555 1_555
C19A C18A 1_555 1_555
C20A C14A 1_555 1_555
C21A C16A 1_555 1_555
N1A C8A 1_555 1_555
N2A C7A 1_555 1_555
H12A N2A 1_555 1_555
N3A Zn1 1_555 1_555
N4A C10A 1_555 1_555
H13A N4A 1_555 1_555
O1A C19A 1_555 1_555
O1B Zn2 1_555 1_555
O1C Zn2A 1_555 1_555
O2A C19A 1_555 1_555
O3A C21A 1_555 1_555
O3G Zn2 1_555 1_555
O3F Zn2A 1_555 1_555
O4A C21A 1_555 1_555
O5A Zn1 1_555 1_555
O6A C20A 1_555 1_555
O7A Zn2A 1_555 1_555
H14A O7A 1_555 1_555
H15A O7A 1_555 1_555
H18A O9 1_555 1_555
C5 C6 1_555 1_555
C9 N1 1_555 1_555
C9 N2 1_555 1_555
C12 N3 1_555 1_555
C12 N4 1_555 1_555
C17 C18 1_555 1_555
C20 O5 1_555 1_555
C5A C6A 1_555 1_555
C9A N1A 1_555 1_555
C9A N2A 1_555 1_555
C11A N3A 1_555 1_555
C12A N3A 1_555 1_555
C12A N4A 1_555 1_555
C17A C18A 1_555 1_555
C20A O5A 1_555 1_555

#END
