
#######################################################################
#
#                 Cambridge Crystallographic Data Centre
#                                CCDC 
#
#######################################################################
#
# If this CIF has been generated from an entry in the Cambridge 
# Structural Database, then it will include bibliographic, chemical, 
# crystal, experimental, refinement or atomic coordinate data resulting 
# from the CCDC's data processing and validation procedures.
#
#######################################################################

data_PUPNEV
_symmetry_cell_setting           monoclinic
_symmetry_space_group_name_H-M   'P 21'
_symmetry_Int_Tables_number      4
_space_group_name_Hall           'P 2yb'
loop_
_symmetry_equiv_pos_site_id
_symmetry_equiv_pos_as_xyz
1 x,y,z
2 -x,1/2+y,-z
_cell_length_a                   5.9625(15)
_cell_length_b                   7.7353(19)
_cell_length_c                   13.482(3)
_cell_angle_alpha                90
_cell_angle_beta                 97.483(3)
_cell_angle_gamma                90
_cell_volume                     616.517
loop_
_atom_site_label
_atom_site_type_symbol
_atom_site_fract_x
_atom_site_fract_y
_atom_site_fract_z
Ce1 Ce -0.37417(5) -0.57013(11) -0.32732(2)
O1 O -0.4884(12) 0.0407(11) -0.5038(6)
O2 O -0.7958(11) -0.1996(10) -0.5189(5)
O3 O -0.7771(11) -0.5090(9) -0.3258(5)
O4 O -0.5073(10) -0.2521(9) -0.3175(4)
O5 O -0.5844(11) 0.1507(9) -0.3627(5)
O6 O -1.0895(11) -0.3522(10) -0.3540(5)
C1 C -0.8812(14) -0.3688(17) -0.3388(7)
C2 C -0.6077(14) 0.0436(12) -0.4309(6)
C3 C -0.7871(14) -0.0946(15) -0.4311(6)
H1 H -0.9340 -0.0376 -0.4317
C4 C -0.7391(14) -0.2022(13) -0.3334(6)
H2 H -0.7735 -0.1320 -0.2768
O7 O -0.0601(11) -0.7802(9) -0.2725(6)
O8 O -0.4978(15) -0.7196(12) -0.1689(6)
O9 O -0.2011(19) -0.4490(13) -0.1574(7)
C5 C -0.458(3) -0.626(2) -0.0791(10)
H3 H -0.4660 -0.7044 -0.0235
H4 H -0.5764 -0.5403 -0.0779
C6 C -0.235(2) -0.5379(19) -0.0656(8)
H5 H -0.2298 -0.4553 -0.0112
H6 H -0.1160 -0.6221 -0.0487
Ce1_2 Ce -1.37417(5) -0.57013(11) -0.32732(2)
Ce1_3 Ce -0.37417(5) 0.42987(11) -0.32732(2)
Ce1A Ce -0.62583(5) -0.07013(11) -0.67268(2)
O1A O -0.5116(12) -0.4593(11) -0.4962(6)
O2A O -0.2042(11) -0.6996(10) -0.4811(5)
O5_2 O -0.5844(11) -0.8493(9) -0.3627(5)
O6_2 O -0.0895(11) -0.3522(10) -0.3540(5)
Cl1 Cl 0.2305(4) -0.5618(5) 0.13768(16)
loop_
_geom_bond_atom_site_label_1
_geom_bond_atom_site_label_2
_geom_bond_site_symmetry_1
_geom_bond_site_symmetry_2
Ce1 O3 1_555 1_555
O1 C2 1_555 1_555
O2 C3 1_555 1_555
O3 C1 1_555 1_555
O4 Ce1 1_555 1_555
O5 C2 1_555 1_555
O6 C1 1_555 1_555
C1 C4 1_555 1_555
C2 C3 1_555 1_555
C3 H1 1_555 1_555
C4 O4 1_555 1_555
H2 C4 1_555 1_555
O7 Ce1 1_555 1_555
O8 Ce1 1_555 1_555
O9 Ce1 1_555 1_555
C5 O8 1_555 1_555
H3 C5 1_555 1_555
H4 C5 1_555 1_555
C6 O9 1_555 1_555
H5 C6 1_555 1_555
H6 C6 1_555 1_555
Ce1_2 O6 1_555 1_555
Ce1_3 O5 1_555 1_555
Ce1A O1 1_555 1_555
O1A Ce1 1_555 1_555
O2A Ce1 1_555 1_555
O5_2 Ce1 1_555 1_555
O6_2 Ce1 1_555 1_555
O2 Ce1A 1_555 1_555
C3 C4 1_555 1_555
C5 C6 1_555 1_555

#END
