
#######################################################################
#
#                 Cambridge Crystallographic Data Centre
#                                CCDC 
#
#######################################################################
#
# If this CIF has been generated from an entry in the Cambridge 
# Structural Database, then it will include bibliographic, chemical, 
# crystal, experimental, refinement or atomic coordinate data resulting 
# from the CCDC's data processing and validation procedures.
#
#######################################################################

data_PUPNAR
_symmetry_cell_setting           monoclinic
_symmetry_space_group_name_H-M   'P 21'
_symmetry_Int_Tables_number      4
_space_group_name_Hall           'P 2yb'
loop_
_symmetry_equiv_pos_site_id
_symmetry_equiv_pos_as_xyz
1 x,y,z
2 -x,1/2+y,-z
_cell_length_a                   5.9636(10)
_cell_length_b                   7.7537(13)
_cell_length_c                   13.545(2)
_cell_angle_alpha                90
_cell_angle_beta                 97.902(2)
_cell_angle_gamma                90
_cell_volume                     620.373
loop_
_atom_site_label
_atom_site_type_symbol
_atom_site_fract_x
_atom_site_fract_y
_atom_site_fract_z
Ce1 Ce 0.37252(9) 0.56993(14) 0.32764(4)
O1 O 0.489(2) -0.0398(14) 0.5018(8)
O2 O 0.7941(16) 0.2039(13) 0.5181(7)
O3 O 0.7767(17) 0.5118(12) 0.3270(7)
O4 O 0.5078(15) 0.2510(12) 0.3184(7)
O5 O 0.5781(19) -0.1510(12) 0.3623(7)
O6 O 1.0888(17) 0.3500(14) 0.3547(8)
C1 C 0.878(2) 0.367(2) 0.3373(9)
C2 C 0.607(2) -0.0431(18) 0.4324(10)
C3 C 0.789(2) 0.0970(19) 0.4323(8)
H1 H 0.9373 0.0415 0.4336
C4 C 0.737(2) 0.2039(18) 0.3350(9)
H2 H 0.7701 0.1326 0.2791
O7 O 0.0552(18) 0.7824(14) 0.2734(10)
O8 O 0.489(3) 0.7216(17) 0.1682(9)
O9 O 0.197(3) 0.4520(18) 0.1569(10)
C5 C 0.453(5) 0.630(3) 0.0777(19)
H3 H 0.5754 0.5485 0.0752
H4 H 0.4527 0.7099 0.0224
C6 C 0.237(4) 0.538(3) 0.0684(15)
H5 H 0.1149 0.6196 0.0497
H6 H 0.2326 0.4539 0.0152
Ce1_2 Ce 0.37252(9) -0.43007(14) 0.32764(4)
Ce1_3 Ce 1.37252(9) 0.56993(14) 0.32764(4)
Ce1A Ce 0.62748(9) 0.06993(14) 0.67236(4)
O1A O 0.511(2) 0.4602(14) 0.4982(8)
O2A O 0.2059(16) 0.7039(13) 0.4819(7)
O5_2 O 0.5781(19) 0.8490(12) 0.3623(7)
O6_2 O 0.0888(17) 0.3500(14) 0.3547(8)
Cl1 Cl -0.2249(8) 0.5622(10) -0.1387(3)
loop_
_geom_bond_atom_site_label_1
_geom_bond_atom_site_label_2
_geom_bond_site_symmetry_1
_geom_bond_site_symmetry_2
Ce1 O3 1_555 1_555
O1 C2 1_555 1_555
O2 C3 1_555 1_555
O3 C1 1_555 1_555
O4 Ce1 1_555 1_555
O5 C2 1_555 1_555
O6 C1 1_555 1_555
C1 C4 1_555 1_555
C2 C3 1_555 1_555
C3 H1 1_555 1_555
C4 O4 1_555 1_555
H2 C4 1_555 1_555
O7 Ce1 1_555 1_555
O8 Ce1 1_555 1_555
O9 Ce1 1_555 1_555
C5 O8 1_555 1_555
H3 C5 1_555 1_555
H4 C5 1_555 1_555
C6 O9 1_555 1_555
H5 C6 1_555 1_555
H6 C6 1_555 1_555
Ce1_2 O5 1_555 1_555
Ce1_3 O6 1_555 1_555
Ce1A O1 1_555 1_555
O1A Ce1 1_555 1_555
O2A Ce1 1_555 1_555
O5_2 Ce1 1_555 1_555
O6_2 Ce1 1_555 1_555
O2 Ce1A 1_555 1_555
C3 C4 1_555 1_555
C5 C6 1_555 1_555

#END
