
#######################################################################
#
#                 Cambridge Crystallographic Data Centre
#                                CCDC 
#
#######################################################################
#
# If this CIF has been generated from an entry in the Cambridge 
# Structural Database, then it will include bibliographic, chemical, 
# crystal, experimental, refinement or atomic coordinate data resulting 
# from the CCDC's data processing and validation procedures.
#
#######################################################################

data_PUPQAT
_symmetry_cell_setting           rhombohedral
_symmetry_space_group_name_H-M   'R -3'
_symmetry_Int_Tables_number      148
_space_group_name_Hall           '-R 3'
loop_
_symmetry_equiv_pos_site_id
_symmetry_equiv_pos_as_xyz
1 x,y,z
2 -y,x-y,z
3 -x+y,-x,z
4 2/3+x,1/3+y,1/3+z
5 2/3-y,1/3+x-y,1/3+z
6 2/3-x+y,1/3-x,1/3+z
7 1/3+x,2/3+y,2/3+z
8 1/3-y,2/3+x-y,2/3+z
9 1/3-x+y,2/3-x,2/3+z
10 -x,-y,-z
11 y,-x+y,-z
12 x-y,x,-z
13 1/3-x,2/3-y,2/3-z
14 1/3+y,2/3-x+y,2/3-z
15 1/3+x-y,2/3+x,2/3-z
16 2/3-x,1/3-y,1/3-z
17 2/3+y,1/3-x+y,1/3-z
18 2/3+x-y,1/3+x,1/3-z
_cell_length_a                   23.783(3)
_cell_length_b                   23.783(3)
_cell_length_c                   13.842(3)
_cell_angle_alpha                90
_cell_angle_beta                 90
_cell_angle_gamma                120
_cell_volume                     6780.52
loop_
_atom_site_label
_atom_site_type_symbol
_atom_site_fract_x
_atom_site_fract_y
_atom_site_fract_z
C1 C 0.5712(3) 0.7787(3) 0.6841(4)
C2 C 0.5797(3) 0.7645(3) 0.7854(4)
C3 C 0.6221(3) 0.7453(2) 0.8205(4)
C4 C 0.6643(3) 0.7293(3) 0.7635(4)
C5 C 0.5475(4) 0.7685(4) 0.9407(5)
C6 C 0.5921(3) 0.7512(4) 0.9766(5)
C7 C 0.5029(5) 0.7802(7) 1.0053(7)
H1 H 0.5212 0.8268 1.0104
H2 H 0.5048 0.7645 1.0692
C8 C 0.4416(7) 0.7551(12) 0.9827(14)
H3 H 0.4185 0.7099 0.9998
H4 H 0.4236 0.7774 1.0173
H5 H 0.4376 0.7595 0.9145
C9 C 0.6003(5) 0.7390(6) 1.0835(6)
N1 N 0.6303(2) 0.7415(2) 0.9158(4)
N2 N 0.5431(3) 0.7768(3) 0.8466(4)
N3 N 0.7205(3) 0.7381(2) 0.7958(3)
N4 N 0.7450(3) 0.7166(3) 0.7263(4)
N5 N 0.7049(3) 0.6955(3) 0.6538(4)
N6 N 0.6529(2) 0.7029(2) 0.6758(3)
N7 N 0.5632(3) 0.7434(2) 0.6060(4)
N8 N 0.5526(3) 0.7744(3) 0.5318(4)
N9 N 0.5543(3) 0.8264(3) 0.5657(4)
N10 N 0.5659(3) 0.8300(2) 0.6616(4)
Zn1 Zn 0.75806(4) 0.76198(3) 0.92662(5)
C10 C 0.6156(14) 0.7890(14) 1.139(2)
H6 H 0.5993 0.8151 1.1122
H7 H 0.5968 0.7740 1.2024
H8 H 0.6620 0.8145 1.1456
C1E C 0.8742(4) 0.7621(3) 1.0174(4)
C1L C 0.7621(3) 0.8880(3) 0.9826(4)
C1G C 0.5546(3) 0.4592(4) 1.3508(4)
C1K C 0.7925(4) 0.5712(3) 1.3159(4)
C1Q C 0.4592(4) 0.9045(3) 0.6492(4)
C2E C 0.8515(4) 0.7536(3) 1.1187(4)
C2L C 0.7536(3) 0.9022(3) 0.8813(4)
C2G C 0.5688(3) 0.4819(4) 1.4521(4)
C2K C 0.8152(4) 0.5797(3) 1.2146(4)
C2Q C 0.4819(4) 0.9130(3) 0.5479(4)
C3E C 0.7899(4) 0.7112(3) 1.1538(4)
C3L C 0.7112(3) 0.9214(2) 0.8462(4)
C3G C 0.5880(2) 0.5435(4) 1.4872(4)
C3K C 0.8768(4) 0.6221(3) 1.1795(4)
C3Q C 0.5435(4) 0.9554(3) 0.5128(4)
C4E C 0.7317(4) 0.6690(3) 1.0968(4)
C4L C 0.6690(3) 0.9374(3) 0.9032(4)
C4G C 0.6040(3) 0.6017(4) 1.4302(4)
C4K C 0.9350(4) 0.6643(3) 1.2365(4)
C4Q C 0.6017(4) 0.9976(3) 0.5698(4)
C5E C 0.8877(6) 0.7858(4) 1.2740(5)
C5L C 0.7858(4) 0.8982(4) 0.7260(5)
C5G C 0.5648(4) 0.4457(6) 1.6074(5)
C5K C 0.7790(6) 0.5475(4) 1.0593(5)
C5Q C 0.4457(6) 0.8808(4) 0.3926(5)
C6E C 0.8258(5) 0.7412(3) 1.3099(5)
C6L C 0.7412(3) 0.9155(4) 0.6901(5)
C6G C 0.5821(4) 0.5076(5) 1.6433(5)
C6K C 0.8409(5) 0.5921(3) 1.0234(5)
C6Q C 0.5076(5) 0.9254(3) 0.3567(5)
C7E C 0.9440(9) 0.8304(5) 1.3386(7)
C7L C 0.8304(5) 0.8865(7) 0.6614(7)
C7G C 0.5531(7) 0.3894(9) 1.6720(7)
C7K C 0.7227(9) 0.5029(5) 0.9947(7)
C7Q C 0.3894(9) 0.8362(5) 0.3280(7)
H1E H 0.9723 0.8121 1.3437
H1L H 0.8121 0.8399 0.6563
H1G H 0.5065 0.3611 1.6771
H1K H 0.6944 0.5212 0.9896
H1Q H 0.3611 0.8545 0.3229
H2E H 0.9264 0.8285 1.4025
H2L H 0.8285 0.9022 0.5975
H2G H 0.5688 0.4070 1.7359
H2K H 0.7403 0.5048 0.9308
H2Q H 0.4070 0.8381 0.2641
C8E C 0.9802(14) 0.8917(7) 1.3160(14)
C8L C 0.8917(7) 0.9116(12) 0.6840(14)
C8G C 0.5782(12) 0.3532(14) 1.6494(14)
C8K C 0.6865(14) 0.4416(7) 1.0173(14)
C8Q C 0.3532(14) 0.7749(7) 0.3506(14)
H3E H 0.9581 0.9148 1.3331
H3L H 0.9148 0.9568 0.6669
H3G H 0.6234 0.3753 1.6665
H3K H 0.7086 0.4185 1.0002
H3Q H 0.3753 0.7518 0.3335
H4E H 1.0205 0.9097 1.3506
H4L H 0.9097 0.8893 0.6494
H4G H 0.5559 0.3129 1.6840
H4K H 0.6462 0.4236 0.9827
H4Q H 0.3129 0.7569 0.3160
H5E H 0.9886 0.8957 1.2478
H5L H 0.8957 0.9072 0.7522
H5G H 0.5738 0.3448 1.5812
H5K H 0.6781 0.4376 1.0855
H5Q H 0.3448 0.7709 0.4188
C9E C 0.8054(8) 0.7330(5) 1.4168(6)
C9L C 0.7330(5) 0.9277(6) 0.5832(6)
C9G C 0.5943(6) 0.5280(8) 1.7502(6)
C9K C 0.8613(8) 0.6003(5) 0.9165(6)
C9Q C 0.5280(8) 0.9336(5) 0.2498(6)
N1E N 0.7779(3) 0.7030(2) 1.2491(4)
N1L N 0.7030(2) 0.9252(2) 0.7509(4)
N1G N 0.5918(2) 0.5555(3) 1.5825(4)
N1K N 0.8888(3) 0.6303(2) 1.0842(4)
N1Q N 0.5555(3) 0.9636(2) 0.4175(4)
N2E N 0.9004(4) 0.7902(3) 1.1799(4)
N2L N 0.7902(3) 0.8899(3) 0.8201(4)
N2G N 0.5565(3) 0.4330(4) 1.5133(4)
N2K N 0.7663(4) 0.5431(3) 1.1534(4)
N2Q N 0.4330(4) 0.8764(3) 0.4867(4)
N3E N 0.6843(4) 0.6128(3) 1.1291(3)
N3L N 0.6128(3) 0.9286(2) 0.8709(3)
N3G N 0.5952(2) 0.6491(4) 1.4625(3)
N3K N 0.9824(4) 0.7205(3) 1.2042(3)
N3Q N 0.6491(4) 1.0538(3) 0.5375(3)
N3G_2 N 0.5952(2) 0.6491(4) 0.4625(3)
N3J N 0.7381(2) 1.0176(4) 1.2042(3)
N4E N 0.6383(4) 0.5883(3) 1.0596(4)
N4L N 0.5883(3) 0.9501(3) 0.9404(4)
N4G N 0.6167(3) 0.6951(4) 1.3930(4)
N4K N 1.0284(4) 0.7450(3) 1.2737(4)
N4Q N 0.6951(4) 1.0783(3) 0.6070(4)
N5E N 0.6573(4) 0.6284(3) 0.9871(4)
N5L N 0.6284(3) 0.9712(3) 1.0129(4)
N5G N 0.6378(3) 0.6761(4) 1.3205(4)
N5K N 1.0094(4) 0.7049(3) 1.3462(4)
N5Q N 0.6761(4) 1.0382(3) 0.6795(4)
N6E N 0.7167(3) 0.6804(2) 1.0091(3)
N6L N 0.6804(2) 0.9638(2) 0.9909(3)
N6G N 0.6304(2) 0.6167(3) 1.3425(3)
N6K N 0.9500(3) 0.6529(2) 1.3242(3)
N6Q N 0.6167(3) 0.9862(2) 0.6575(3)
N6M N 1.0362(2) 0.7167(3) 0.9909(3)
N7E N 0.8469(4) 0.7701(3) 0.9393(4)
N7L N 0.7701(3) 0.9233(2) 1.0607(4)
N7G N 0.5899(2) 0.4865(4) 1.2727(4)
N7K N 0.8198(4) 0.5632(3) 1.3940(4)
N7Q N 0.4865(4) 0.8965(3) 0.7273(4)
N7M N 1.0767(2) 0.8469(4) 1.0607(4)
N8E N 0.8885(4) 0.7807(3) 0.8651(4)
N8L N 0.7807(3) 0.8923(3) 1.1349(4)
N8G N 0.5589(3) 0.4449(4) 1.1985(4)
N8K N 0.7782(4) 0.5526(3) 1.4682(4)
N8Q N 0.4449(4) 0.8859(3) 0.8015(4)
N9E N 0.9388(4) 0.7790(3) 0.8990(4)
N9L N 0.7790(3) 0.8403(3) 1.1010(4)
N9G N 0.5069(3) 0.3946(4) 1.2324(4)
N9K N 0.7279(4) 0.5543(3) 1.4343(4)
N9Q N 0.3946(4) 0.8876(3) 0.7676(4)
N10E N 0.9308(4) 0.7674(3) 0.9949(4)
N10L N 0.7674(3) 0.8367(2) 1.0051(4)
N10G N 0.5033(2) 0.4026(4) 1.3283(4)
N10K N 0.7359(4) 0.5659(3) 1.3384(4)
N10Q N 0.4026(4) 0.8992(3) 0.6717(4)
N10P N 0.4967(2) 0.5974(4) 0.6717(4)
N10D N 0.8367(2) 1.0692(4) 0.9949(4)
Zn1E Zn 0.67059(5) 0.57527(4) 1.25995(5)
Zn1L Zn 0.57527(4) 0.90469(3) 0.74005(5)
Zn1G Zn 0.57135(3) 0.66275(5) 0.59329(5)
Zn1J Zn 0.76198(3) 1.00392(5) 1.07338(5)
Zn1K Zn 0.99608(5) 0.75806(4) 1.07338(5)
Zn1G_2 Zn 0.57135(3) 0.66275(5) 1.59329(5)
Zn1P Zn 0.42865(3) 0.33725(5) 1.40671(5)
Zn1O Zn 0.90861(4) 0.57135(3) 1.40671(5)
Zn1Q Zn 0.66275(5) 1.09139(4) 0.40671(5)
Zn1H Zn 0.33725(5) 0.90861(4) 0.59329(5)
C10E C 0.8401(20) 0.7177(14) 1.472(2)
C10L C 0.7177(14) 0.8777(14) 0.528(2)
C10G C 0.5443(14) 0.4933(20) 1.806(2)
C10K C 0.8266(20) 0.6156(14) 0.861(2)
C10Q C 0.4933(20) 0.9489(14) 0.194(2)
H6E H 0.8825 0.7340 1.4455
H6L H 0.7340 0.8516 0.5545
H6G H 0.5182 0.4509 1.7789
H6K H 0.7842 0.5993 0.8878
H6Q H 0.4509 0.9326 0.2211
H7E H 0.8439 0.7365 1.5357
H7L H 0.7365 0.8927 0.4643
H7G H 0.5593 0.4895 1.8691
H7K H 0.8228 0.5968 0.7976
H7Q H 0.4895 0.9301 0.1309
H8E H 0.8192 0.6713 1.4789
H8L H 0.6713 0.8522 0.5211
H8G H 0.5188 0.5142 1.8123
H8K H 0.8475 0.6620 0.8544
H8Q H 0.5142 0.9953 0.1877
O1 O 0.3403(25) 0.6224(19) 0.638(2)
O1Q O 0.3846(31) 0.6736(25) 0.695(2)
O1A O 0.3776(19) 0.7179(31) 0.638(2)
O1O O 0.3264(25) 0.7109(19) 0.695(2)
O1B O 0.2821(31) 0.6597(25) 0.638(2)
O1P O 0.2891(19) 0.6154(31) 0.695(2)
C11? C 0.1159(10) 0.6524(10) 0.2168(14)
H9? H 0.1092 0.6573 0.1497
H10? H 0.1565 0.6533 0.2246
H11? H 0.0963 0.4502 1.0803
loop_
_geom_bond_atom_site_label_1
_geom_bond_atom_site_label_2
_geom_bond_site_symmetry_1
_geom_bond_site_symmetry_2
O1 O1Q 1_555 1_555
C1 C2 1_555 1_555
C2 C3 1_555 1_555
C3 C4 1_555 1_555
C4 N3 1_555 1_555
C5 C6 1_555 1_555
C6 C9 1_555 1_555
C7 C5 1_555 1_555
H1 C7 1_555 1_555
H2 C7 1_555 1_555
C8 C7 1_555 1_555
H3 C8 1_555 1_555
H4 C8 1_555 1_555
H5 C8 1_555 1_555
C9 C10 1_555 1_555
N1 C3 1_555 1_555
N2 C2 1_555 1_555
N3 N4 1_555 1_555
N4 N5 1_555 1_555
N5 N6 1_555 1_555
N6 C4 1_555 1_555
N7 C1 1_555 1_555
N8 N7 1_555 1_555
N9 N8 1_555 1_555
N10 C1 1_555 1_555
Zn1 N3 1_555 1_555
C10 H6 1_555 1_555
H7 C10 1_555 1_555
H8 C10 1_555 1_555
O1Q O1A 1_555 1_555
O1A O1O 1_555 1_555
O1O O1B 1_555 1_555
O1B O1P 1_555 1_555
O1P O1 1_555 1_555
C1E C2E 1_555 1_555
C1L C2L 1_555 1_555
C1G C2G 1_555 1_555
C1K C2K 1_555 1_555
C1Q C2Q 1_555 1_555
C2E C3E 1_555 1_555
C2L C3L 1_555 1_555
C2G C3G 1_555 1_555
C2K C3K 1_555 1_555
C2Q C3Q 1_555 1_555
C3E C4E 1_555 1_555
C3L C4L 1_555 1_555
C3G C4G 1_555 1_555
C3K C4K 1_555 1_555
C3Q C4Q 1_555 1_555
C4E N3E 1_555 1_555
C4L N3L 1_555 1_555
C4G N3G 1_555 1_555
C4K N3K 1_555 1_555
C4Q N3Q 1_555 1_555
C5E C6E 1_555 1_555
C5L C6L 1_555 1_555
C5G C6G 1_555 1_555
C5K C6K 1_555 1_555
C5Q C6Q 1_555 1_555
C6E C9E 1_555 1_555
C6L C9L 1_555 1_555
C6G C9G 1_555 1_555
C6K C9K 1_555 1_555
C6Q C9Q 1_555 1_555
C7E C5E 1_555 1_555
C7L C5L 1_555 1_555
C7G C5G 1_555 1_555
C7K C5K 1_555 1_555
C7Q C5Q 1_555 1_555
H1E C7E 1_555 1_555
H1L C7L 1_555 1_555
H1G C7G 1_555 1_555
H1K C7K 1_555 1_555
H1Q C7Q 1_555 1_555
H2E C7E 1_555 1_555
H2L C7L 1_555 1_555
H2G C7G 1_555 1_555
H2K C7K 1_555 1_555
H2Q C7Q 1_555 1_555
C8E C7E 1_555 1_555
C8L C7L 1_555 1_555
C8G C7G 1_555 1_555
C8K C7K 1_555 1_555
C8Q C7Q 1_555 1_555
H3E C8E 1_555 1_555
H3L C8L 1_555 1_555
H3G C8G 1_555 1_555
H3K C8K 1_555 1_555
H3Q C8Q 1_555 1_555
H4E C8E 1_555 1_555
H4L C8L 1_555 1_555
H4G C8G 1_555 1_555
H4K C8K 1_555 1_555
H4Q C8Q 1_555 1_555
H5E C8E 1_555 1_555
H5L C8L 1_555 1_555
H5G C8G 1_555 1_555
H5K C8K 1_555 1_555
H5Q C8Q 1_555 1_555
C9E C10E 1_555 1_555
C9L C10L 1_555 1_555
C9G C10G 1_555 1_555
C9K C10K 1_555 1_555
C9Q C10Q 1_555 1_555
N1E C3E 1_555 1_555
N1L C3L 1_555 1_555
N1G C3G 1_555 1_555
N1K C3K 1_555 1_555
N1Q C3Q 1_555 1_555
N2E C2E 1_555 1_555
N2L C2L 1_555 1_555
N2G C2G 1_555 1_555
N2K C2K 1_555 1_555
N2Q C2Q 1_555 1_555
N3E N4E 1_555 1_555
N3L N4L 1_555 1_555
N3G N4G 1_555 1_555
N3K N4K 1_555 1_555
N3Q N4Q 1_555 1_555
N3G_2 Zn1G 1_555 1_555
N3J Zn1J 1_555 1_555
N4E N5E 1_555 1_555
N4L N5L 1_555 1_555
N4G N5G 1_555 1_555
N4K N5K 1_555 1_555
N4Q N5Q 1_555 1_555
N5E N6E 1_555 1_555
N5L N6L 1_555 1_555
N5G N6G 1_555 1_555
N5K N6K 1_555 1_555
N5Q N6Q 1_555 1_555
N6E Zn1 1_555 1_555
N6L C4L 1_555 1_555
N6G C4G 1_555 1_555
N6K C4K 1_555 1_555
N6Q C4Q 1_555 1_555
N6M Zn1K 1_555 1_555
N7E Zn1 1_555 1_555
N7L C1L 1_555 1_555
N7G C1G 1_555 1_555
N7K C1K 1_555 1_555
N7Q C1Q 1_555 1_555
N7M Zn1K 1_555 1_555
N8E N7E 1_555 1_555
N8L N7L 1_555 1_555
N8G N7G 1_555 1_555
N8K N7K 1_555 1_555
N8Q N7Q 1_555 1_555
N9E N8E 1_555 1_555
N9L N8L 1_555 1_555
N9G N8G 1_555 1_555
N9K N8K 1_555 1_555
N9Q N8Q 1_555 1_555
N10E C1E 1_555 1_555
N10L Zn1 1_555 1_555
N10G C1G 1_555 1_555
N10K C1K 1_555 1_555
N10Q C1Q 1_555 1_555
N10P Zn1G 1_555 1_555
N10D Zn1J 1_555 1_555
Zn1E N3E 1_555 1_555
Zn1L N10 1_555 1_555
Zn1G N6 1_555 1_555
Zn1J N6L 1_555 1_555
Zn1K N3K 1_555 1_555
Zn1G_2 N3G 1_555 1_555
Zn1P N10G 1_555 1_555
Zn1O N6K 1_555 1_555
Zn1Q N3Q 1_555 1_555
Zn1H N10Q 1_555 1_555
C10E H6E 1_555 1_555
C10L H6L 1_555 1_555
C10G H6G 1_555 1_555
C10K H6K 1_555 1_555
C10Q H6Q 1_555 1_555
H7E C10E 1_555 1_555
H7L C10L 1_555 1_555
H7G C10G 1_555 1_555
H7K C10K 1_555 1_555
H7Q C10Q 1_555 1_555
H8E C10E 1_555 1_555
H8L C10L 1_555 1_555
H8G C10G 1_555 1_555
H8K C10K 1_555 1_555
H8Q C10Q 1_555 1_555
C5 N2 1_555 1_555
C6 N1 1_555 1_555
N7 Zn1G 1_555 1_555
N9 N10 1_555 1_555
C1E N7E 1_555 1_555
C1L N10L 1_555 1_555
C4E N6E 1_555 1_555
C5E N2E 1_555 1_555
C5L N2L 1_555 1_555
C5G N2G 1_555 1_555
C5K N2K 1_555 1_555
C5Q N2Q 1_555 1_555
C6E N1E 1_555 1_555
C6L N1L 1_555 1_555
C6G N1G 1_555 1_555
C6K N1K 1_555 1_555
C6Q N1Q 1_555 1_555
N3L Zn1L 1_555 1_555
N6G Zn1E 1_555 1_555
N6Q Zn1L 1_555 1_555
N7L Zn1J 1_555 1_555
N7G Zn1E 1_555 1_555
N7K Zn1O 1_555 1_555
N7Q Zn1L 1_555 1_555
N9E N10E 1_555 1_555
N9L N10L 1_555 1_555
N9G N10G 1_555 1_555
N9K N10K 1_555 1_555
N9Q N10Q 1_555 1_555
N10E Zn1K 1_555 1_555
N10K Zn1E 1_555 1_555

#END
