
#######################################################################
#
#                 Cambridge Crystallographic Data Centre
#                                CCDC 
#
#######################################################################
#
# If this CIF has been generated from an entry in the Cambridge 
# Structural Database, then it will include bibliographic, chemical, 
# crystal, experimental, refinement or atomic coordinate data resulting 
# from the CCDC's data processing and validation procedures.
#
#######################################################################

data_PUPQOH
_symmetry_cell_setting           monoclinic
_symmetry_space_group_name_H-M   'P 21/n'
_symmetry_Int_Tables_number      14
_space_group_name_Hall           '-P 2yn'
loop_
_symmetry_equiv_pos_site_id
_symmetry_equiv_pos_as_xyz
1 x,y,z
2 1/2-x,1/2+y,1/2-z
3 -x,-y,-z
4 1/2+x,1/2-y,1/2+z
_cell_length_a                   10.064(2)
_cell_length_b                   13.053(3)
_cell_length_c                   12.178(2)
_cell_angle_alpha                90
_cell_angle_beta                 101.49(3)
_cell_angle_gamma                90
_cell_volume                     1567.71
loop_
_atom_site_label
_atom_site_type_symbol
_atom_site_fract_x
_atom_site_fract_y
_atom_site_fract_z
Hg1 Hg 0.64831(2) 0.089103(18) 0.40505(2)
Br1 Br 0.73503(10) -0.06893(6) 0.34056(8)
N1 N 1.0135(5) 0.1018(4) 0.9185(4)
N2 N 0.6209(5) -0.0295(4) 0.6659(4)
C1 C 0.8932(5) 0.1469(4) 0.6631(5)
N3 N 1.1115(5) 0.2164(4) 1.0388(4)
N4 N 1.0699(6) 0.1214(4) 1.0271(4)
N5 N 1.0536(5) 0.2841(4) 0.7064(4)
N6 N 0.6832(5) 0.0449(4) 0.6148(4)
C2 C 0.7960(6) 0.0690(4) 0.6890(5)
C3 C 0.9554(6) 0.2388(5) 0.5174(5)
C4 C 0.9864(5) 0.2055(4) 0.7417(4)
N7 N 0.8022(5) 0.0106(4) 0.7800(5)
N8 N 0.8825(5) 0.1654(4) 0.5521(4)
C5 C 1.0230(5) 0.1891(4) 0.8638(4)
C6 C 0.9460(7) 0.2499(6) 0.3924(5)
H1 H 0.9613 0.3210 0.3752
H2 H 0.8553 0.2315 0.3538
C7 C 1.0386(6) 0.3033(5) 0.5966(5)
C8 C 1.1195(8) 0.3929(6) 0.5662(6)
H3 H 1.0835 0.4123 0.4891
H4 H 1.1080 0.4508 0.6133
N9 N 0.6923(5) -0.0516(4) 0.7656(4)
C9 C 1.2620(9) 0.3714(8) 0.5785(10)
H5 H 1.3077 0.4311 0.5586
H6 H 1.2745 0.3156 0.5303
H7 H 1.2988 0.3533 0.6549
C10 C 1.0483(10) 0.1831(10) 0.3497(7)
H8 H 1.0389 0.1925 0.2703
H9 H 1.0324 0.1125 0.3651
H10 H 1.1383 0.2020 0.3866
N10 N 1.0818(5) 0.2607(4) 0.9362(4)
H11 H 0.856(7) 0.004(5) 0.846(6)
Hg1C Hg 1.14831(2) 0.410897(18) 0.90505(2)
N10C N 0.5818(5) 0.2393(4) 0.4362(4)
loop_
_geom_bond_atom_site_label_1
_geom_bond_atom_site_label_2
_geom_bond_site_symmetry_1
_geom_bond_site_symmetry_2
Hg1 Br1 1_555 1_555
N1 N4 1_555 1_555
N2 N6 1_555 1_555
C1 C2 1_555 1_555
N3 N4 1_555 1_555
N5 C4 1_555 1_555
N6 Hg1 1_555 1_555
C2 N6 1_555 1_555
C3 N8 1_555 1_555
C4 C1 1_555 1_555
N7 C2 1_555 1_555
N8 C1 1_555 1_555
C5 N1 1_555 1_555
C6 C3 1_555 1_555
H1 C6 1_555 1_555
H2 C6 1_555 1_555
C7 N5 1_555 1_555
C8 C7 1_555 1_555
H3 C8 1_555 1_555
H4 C8 1_555 1_555
N9 N2 1_555 1_555
C9 C8 1_555 1_555
H5 C9 1_555 1_555
H6 C9 1_555 1_555
H7 C9 1_555 1_555
C10 C6 1_555 1_555
H8 C10 1_555 1_555
H9 C10 1_555 1_555
H10 C10 1_555 1_555
N10 N3 1_555 1_555
H11 N7 1_555 1_555
Hg1C N10 1_555 1_555
N10C Hg1 1_555 1_555
C3 C7 1_555 1_555
C4 C5 1_555 1_555
N7 N9 1_555 1_555
C5 N10 1_555 1_555

#END
