
#######################################################################
#
#                 Cambridge Crystallographic Data Centre
#                                CCDC 
#
#######################################################################
#
# If this CIF has been generated from an entry in the Cambridge 
# Structural Database, then it will include bibliographic, chemical, 
# crystal, experimental, refinement or atomic coordinate data resulting 
# from the CCDC's data processing and validation procedures.
#
#######################################################################

data_PUPQUN
_symmetry_cell_setting           triclinic
_symmetry_space_group_name_H-M   'P -1'
_symmetry_Int_Tables_number      2
_space_group_name_Hall           '-P 1'
loop_
_symmetry_equiv_pos_site_id
_symmetry_equiv_pos_as_xyz
1 x,y,z
2 -x,-y,-z
_cell_length_a                   7.2484(14)
_cell_length_b                   16.064(3)
_cell_length_c                   17.506(3)
_cell_angle_alpha                73.78(3)
_cell_angle_beta                 79.86(3)
_cell_angle_gamma                83.75(3)
_cell_volume                     1922.82
loop_
_atom_site_label
_atom_site_type_symbol
_atom_site_fract_x
_atom_site_fract_y
_atom_site_fract_z
O1 O 0.952(2) 0.9333(13) 0.5174(11)
Hg1 Hg 0.77930(4) 0.833006(18) 0.148754(15)
N1 N 0.7118(6) 1.0134(3) 0.0818(3)
N2 N 0.6183(6) 1.1743(3) -0.0162(3)
N3 N 0.8360(7) 0.9457(3) -0.1033(3)
N4 N 0.9030(8) 0.8632(4) -0.1009(3)
N5 N 0.9091(7) 0.8196(3) -0.0245(3)
N6 N 0.8465(7) 0.8739(3) 0.0211(3)
N7 N 0.8707(7) 1.1495(4) -0.1829(3)
N8 N 0.8361(8) 1.1657(4) -0.2594(3)
N9 N 0.6620(7) 1.1523(4) -0.2576(3)
N10 N 0.5769(7) 1.1290(4) -0.1806(3)
C1 C 0.4121(9) 1.3020(4) 0.0617(4)
H1 H 0.3391 1.2899 0.0279
C2 C 0.3804(12) 1.3789(5) 0.0834(5)
H2 H 0.2855 1.4185 0.0634
C3 C 0.4858(13) 1.3996(5) 0.1343(5)
H3 H 0.4635 1.4520 0.1483
C4 C 0.6210(12) 1.3404(5) 0.1622(5)
H4 H 0.6912 1.3529 0.1968
C5 C 0.6625(11) 1.2611(4) 0.1421(4)
H5 H 0.7582 1.2222 0.1621
C6 C 0.7322(8) 1.0266(4) 0.0020(3)
C7 C 0.7086(8) 1.1283(4) -0.1378(3)
C8 C 0.6827(7) 1.1071(4) -0.0475(3)
C9 C 0.6216(9) 1.0584(4) 0.2023(4)
C10 C 0.6040(8) 1.1626(4) 0.0623(4)
C11 C 0.8052(8) 0.9500(4) -0.0281(4)
C12 C 0.5544(8) 1.2427(4) 0.0908(4)
C13 C 0.5728(13) 1.0147(5) 0.3688(4)
H6 H 0.5570 1.0000 0.4248
C14 C 0.7638(10) 1.0153(4) 0.2425(4)
H7 H 0.8769 1.0003 0.2136
C15 C 0.4519(10) 1.0798(4) 0.2457(4)
H8 H 0.3539 1.1091 0.2191
C16 C 0.7419(11) 0.9937(5) 0.3261(4)
H9 H 0.8403 0.9653 0.3529
C17 C 0.4302(11) 1.0565(5) 0.3300(4)
H10 H 0.3166 1.0701 0.3595
C18 C 0.6469(8) 1.0785(4) 0.1140(4)
O2 O 0.7554(7) 0.7958(4) 0.2776(3)
H11 H 0.8006 0.7442 0.2800
H12 H 0.6452 0.7905 0.3040
O3 O 0.6306(8) 0.6996(4) 0.1448(3)
H13 H 0.5554 0.7153 0.1105
H14 H 0.6065 0.6846 0.1959
Hg1A Hg 1.22070(4) 1.166994(18) -0.148754(15)
Hg1A_2 Hg 0.22070(4) 1.166994(18) -0.148754(15)
N7A N 1.1293(7) 0.8505(4) 0.1829(3)
N10A N 0.4231(7) 0.8710(4) 0.1806(3)
Hg2 Hg 0.24958(3) 0.708171(16) 0.432742(16)
N11 N 0.3777(7) 0.4604(4) 0.3878(3)
N12 N 0.4426(8) 0.5125(4) 0.3136(3)
N13 N 0.4195(7) 0.5941(4) 0.3141(3)
N14 N 0.3363(6) 0.5972(3) 0.3888(3)
N15 N 0.0977(6) 0.2826(3) 0.5353(3)
N16 N 0.1866(7) 0.2113(3) 0.5180(3)
N17 N 0.3695(7) 0.2154(3) 0.5143(3)
N18 N 0.4018(6) 0.2911(3) 0.5282(3)
N19 N 0.1932(6) 0.5652(3) 0.5472(3)
N20 N 0.1259(6) 0.3999(3) 0.6461(3)
C19 C 0.0340(8) 0.4490(4) 0.7654(3)
C20 C 0.1049(9) 0.4898(4) 0.8118(4)
H15 H 0.1878 0.5332 0.7870
C21 C 0.0567(10) 0.4685(5) 0.8940(4)
H16 H 0.1040 0.4985 0.9240
C22 C 0.2327(7) 0.4939(4) 0.5182(3)
C23 C -0.0841(9) 0.3818(4) 0.8043(4)
H17 H -0.1310 0.3516 0.7744
C24 C 0.0915(7) 0.4689(4) 0.6768(3)
C25 C 0.1197(8) 0.5538(4) 0.6260(4)
C26 C 0.2323(8) 0.3304(4) 0.5411(3)
C27 C 0.0832(9) 0.6347(4) 0.6516(4)
C28 C 0.2248(9) 0.6923(4) 0.6346(4)
H18 H 0.3418 0.6794 0.6074
C29 C 0.3136(8) 0.5155(4) 0.4321(3)
C30 C 0.1967(8) 0.4111(3) 0.5674(4)
C31 C -0.0945(9) 0.6567(4) 0.6923(4)
H19 H -0.1909 0.6193 0.7042
C32 C 0.1913(10) 0.7692(4) 0.6583(4)
H20 H 0.2865 0.8073 0.6471
C33 C -0.1244(11) 0.7341(5) 0.7142(5)
H21 H -0.2418 0.7488 0.7400
C34 C 0.0181(11) 0.7892(5) 0.6982(5)
H22 H -0.0026 0.8403 0.7144
C35 C -0.1316(9) 0.3599(5) 0.8870(4)
H23 H -0.2119 0.3157 0.9125
C36 C -0.0609(10) 0.4032(5) 0.9319(4)
H24 H -0.0927 0.3882 0.9877
O4 O 0.2435(8) 0.8372(3) 0.4407(3)
H25 H 0.1391 0.8634 0.4534
H26 H 0.3127 0.8704 0.4027
Hg2A Hg -0.24958(3) 0.291829(16) 0.567258(16)
Hg2A_2 Hg 0.75042(3) 0.291829(16) 0.567258(16)
N15A N -0.0977(6) 0.7174(3) 0.4647(3)
N18A N 0.5982(6) 0.7089(3) 0.4718(3)
loop_
_geom_bond_atom_site_label_1
_geom_bond_atom_site_label_2
_geom_bond_site_symmetry_1
_geom_bond_site_symmetry_2
Hg1 N6 1_555 1_555
N1 C6 1_555 1_555
N2 C8 1_555 1_555
N3 N4 1_555 1_555
N4 N5 1_555 1_555
N5 N6 1_555 1_555
N6 C11 1_555 1_555
N7 N8 1_555 1_555
N8 N9 1_555 1_555
N9 N10 1_555 1_555
N10 C7 1_555 1_555
C1 H1 1_555 1_555
C2 C1 1_555 1_555
H2 C2 1_555 1_555
C3 C2 1_555 1_555
H3 C3 1_555 1_555
C4 C3 1_555 1_555
H4 C4 1_555 1_555
C5 C4 1_555 1_555
H5 C5 1_555 1_555
C6 C8 1_555 1_555
C7 N7 1_555 1_555
C8 C7 1_555 1_555
C9 C14 1_555 1_555
C10 N2 1_555 1_555
C11 N3 1_555 1_555
C12 C1 1_555 1_555
C13 H6 1_555 1_555
C14 H7 1_555 1_555
C15 C9 1_555 1_555
H8 C15 1_555 1_555
C16 C13 1_555 1_555
H9 C16 1_555 1_555
C17 C13 1_555 1_555
H10 C17 1_555 1_555
C18 N1 1_555 1_555
O2 Hg1 1_555 1_555
H11 O2 1_555 1_555
H12 O2 1_555 1_555
O3 Hg1 1_555 1_555
H13 O3 1_555 1_555
H14 O3 1_555 1_555
Hg2 N14 1_555 1_555
N11 N12 1_555 1_555
N12 N13 1_555 1_555
N13 N14 1_555 1_555
N14 C29 1_555 1_555
N15 N16 1_555 1_555
N16 N17 1_555 1_555
N17 N18 1_555 1_555
N18 C26 1_555 1_555
N19 Hg2 1_555 1_555
N20 C24 1_555 1_555
C19 C20 1_555 1_555
C20 H15 1_555 1_555
C21 C20 1_555 1_555
H16 C21 1_555 1_555
C22 N19 1_555 1_555
C23 C19 1_555 1_555
H17 C23 1_555 1_555
C24 C19 1_555 1_555
C25 N19 1_555 1_555
C26 N15 1_555 1_555
C27 C25 1_555 1_555
C28 C27 1_555 1_555
H18 C28 1_555 1_555
C29 N11 1_555 1_555
C30 N20 1_555 1_555
C31 C27 1_555 1_555
H19 C31 1_555 1_555
C32 C28 1_555 1_555
H20 C32 1_555 1_555
C33 C31 1_555 1_555
H21 C33 1_555 1_555
C34 C32 1_555 1_555
H22 C34 1_555 1_555
C35 C23 1_555 1_555
H23 C35 1_555 1_555
C36 C21 1_555 1_555
H24 C36 1_555 1_555
O4 Hg2 1_555 1_555
H25 O4 1_555 1_555
H26 O4 1_555 1_555
Hg1A N7 1_555 1_555
Hg1A_2 N10 1_555 1_555
N7A Hg1 1_555 1_555
N10A Hg1 1_555 1_555
Hg2A N15 1_555 1_555
Hg2A_2 N18 1_555 1_555
N15A Hg2 1_555 1_555
N18A Hg2 1_555 1_555
C5 C12 1_555 1_555
C6 C11 1_555 1_555
C9 C18 1_555 1_555
C10 C12 1_555 1_555
C10 C18 1_555 1_555
C14 C16 1_555 1_555
C15 C17 1_555 1_555
C22 C29 1_555 1_555
C22 C30 1_555 1_555
C24 C25 1_555 1_555
C26 C30 1_555 1_555
C33 C34 1_555 1_555
C35 C36 1_555 1_555

#END
