
#######################################################################
#
#                 Cambridge Crystallographic Data Centre
#                                CCDC 
#
#######################################################################
#
# If this CIF has been generated from an entry in the Cambridge 
# Structural Database, then it will include bibliographic, chemical, 
# crystal, experimental, refinement or atomic coordinate data resulting 
# from the CCDC's data processing and validation procedures.
#
#######################################################################

data_PUPQIB
_symmetry_cell_setting           tetragonal
_symmetry_space_group_name_H-M   'I 41/a'
_symmetry_Int_Tables_number      88
_space_group_name_Hall           '-I 4ad'
loop_
_symmetry_equiv_pos_site_id
_symmetry_equiv_pos_as_xyz
1 x,y,z
2 3/4-y,1/4+x,1/4+z
3 1/2-x,-y,1/2+z
4 3/4+y,3/4-x,3/4+z
5 1/2+x,1/2+y,1/2+z
6 1/4-y,3/4+x,3/4+z
7 -x,1/2-y,z
8 1/4+y,1/4-x,1/4+z
9 -x,-y,-z
10 1/4+y,3/4-x,3/4-z
11 1/2+x,y,1/2-z
12 1/4-y,1/4+x,1/4-z
13 1/2-x,1/2-y,1/2-z
14 3/4+y,1/4-x,1/4-z
15 x,1/2+y,-z
16 3/4-y,3/4+x,3/4-z
_cell_length_a                   19.431(7)
_cell_length_b                   19.431(7)
_cell_length_c                   18.713(4)
_cell_angle_alpha                90
_cell_angle_beta                 90
_cell_angle_gamma                90
_cell_volume                     7065.35
loop_
_atom_site_label
_atom_site_type_symbol
_atom_site_fract_x
_atom_site_fract_y
_atom_site_fract_z
Zn1 Zn 0.14722(3) 0.40655(3) 0.08272(3)
N1 N 0.2182(2) 0.4254(2) 0.1587(2)
N2 N 0.2912(2) 0.4192(2) 0.2457(2)
N3 N 0.1655(2) 0.1978(2) 0.1268(2)
C1 C 0.1364(3) 0.2413(3) 0.3379(3)
N4 N 0.1638(2) 0.3043(2) 0.0932(2)
N5 N 0.1870(2) 0.3514(2) 0.3261(2)
N6 N 0.1400(2) 0.2307(2) 0.2675(2)
N7 N 0.1642(3) 0.1993(3) 0.0551(3)
C2 C 0.1663(2) 0.2808(2) 0.2256(3)
C3 C 0.1937(2) 0.3398(2) 0.2563(3)
N8 N 0.3123(2) 0.4691(2) 0.2004(2)
C4 C 0.2341(2) 0.3935(2) 0.2186(3)
N9 N 0.1634(3) 0.2629(2) 0.0351(2)
C5 C 0.1652(2) 0.2621(2) 0.1490(3)
C6 C 0.1391(3) 0.3274(3) 0.4413(3)
C7 C 0.1055(5) 0.3750(4) 0.5760(4)
H1 H 0.0938 0.3913 0.6212
N10 N 0.2684(2) 0.4736(2) 0.1485(2)
C8 C 0.1548(3) 0.3057(3) 0.3674(3)
C9 C 0.1135(3) 0.1814(3) 0.3809(3)
C10 C 0.1502(3) 0.1597(3) 0.4407(3)
H2 H 0.1887 0.1839 0.4562
C11 C 0.0721(4) 0.0655(4) 0.4552(4)
H3 H 0.0585 0.0265 0.4804
C12 C 0.0634(4) 0.3306(4) 0.5422(3)
H4 H 0.0230 0.3162 0.5641
C13 C 0.1286(4) 0.1020(3) 0.4764(4)
H5 H 0.1531 0.0873 0.5162
C14 C 0.0357(4) 0.0867(4) 0.3967(4)
H6 H -0.0030 0.0625 0.3819
C15 C 0.0571(3) 0.1450(3) 0.3592(3)
H7 H 0.0327 0.1592 0.3191
C16 C 0.1650(5) 0.3964(4) 0.5445(4)
H8 H 0.1944 0.4264 0.5684
C17 C 0.0803(3) 0.3064(3) 0.4753(3)
H9 H 0.0512 0.2753 0.4527
C18 C 0.1815(4) 0.3729(4) 0.4765(4)
H10 H 0.2216 0.3882 0.4545
Zn1A Zn 0.34345(3) 0.39722(3) 0.33272(3)
Zn1M Zn 0.15655(3) 0.10278(3) 0.16728(3)
N2C N 0.1692(2) 0.4588(2) -0.0043(2)
N3K N 0.0522(2) 0.4155(2) 0.1232(2)
loop_
_geom_bond_atom_site_label_1
_geom_bond_atom_site_label_2
_geom_bond_site_symmetry_1
_geom_bond_site_symmetry_2
Zn1 N1 1_555 1_555
N1 C4 1_555 1_555
N2 N8 1_555 1_555
N3 N7 1_555 1_555
C1 N6 1_555 1_555
N4 Zn1 1_555 1_555
N5 C3 1_555 1_555
N6 C2 1_555 1_555
N7 N9 1_555 1_555
C2 C3 1_555 1_555
C3 C4 1_555 1_555
N8 N10 1_555 1_555
C4 N2 1_555 1_555
N9 N4 1_555 1_555
C5 N3 1_555 1_555
C6 C8 1_555 1_555
C7 H1 1_555 1_555
N10 N1 1_555 1_555
C8 C1 1_555 1_555
C9 C1 1_555 1_555
C10 C9 1_555 1_555
H2 C10 1_555 1_555
C11 H3 1_555 1_555
C12 C7 1_555 1_555
H4 C12 1_555 1_555
C13 C10 1_555 1_555
H5 C13 1_555 1_555
C14 C11 1_555 1_555
H6 C14 1_555 1_555
C15 C9 1_555 1_555
H7 C15 1_555 1_555
C16 C7 1_555 1_555
H8 C16 1_555 1_555
C17 C6 1_555 1_555
H9 C17 1_555 1_555
C18 C6 1_555 1_555
H10 C18 1_555 1_555
Zn1A N2 1_555 1_555
Zn1M N3 1_555 1_555
N2C Zn1 1_555 1_555
N3K Zn1 1_555 1_555
N4 C5 1_555 1_555
N5 C8 1_555 1_555
C2 C5 1_555 1_555
C11 C13 1_555 1_555
C12 C17 1_555 1_555
C14 C15 1_555 1_555
C16 C18 1_555 1_555

#END
