
#######################################################################
#
#                 Cambridge Crystallographic Data Centre
#                                CCDC 
#
#######################################################################
#
# If this CIF has been generated from an entry in the Cambridge 
# Structural Database, then it will include bibliographic, chemical, 
# crystal, experimental, refinement or atomic coordinate data resulting 
# from the CCDC's data processing and validation procedures.
#
#######################################################################

data_PUPREY
_symmetry_cell_setting           monoclinic
_symmetry_space_group_name_H-M   'P 21/c'
_symmetry_Int_Tables_number      14
_space_group_name_Hall           '-P 2ybc'
loop_
_symmetry_equiv_pos_site_id
_symmetry_equiv_pos_as_xyz
1 x,y,z
2 -x,1/2+y,1/2-z
3 -x,-y,-z
4 x,1/2-y,1/2+z
_cell_length_a                   6.0640(9)
_cell_length_b                   15.119(2)
_cell_length_c                   9.7113(14)
_cell_angle_alpha                90
_cell_angle_beta                 101.644(2)
_cell_angle_gamma                90
_cell_volume                     872.025
loop_
_atom_site_label
_atom_site_type_symbol
_atom_site_fract_x
_atom_site_fract_y
_atom_site_fract_z
Cd1 Cd 0.38702(4) 0.596106(17) 0.17446(3)
Fe1 Fe 0.0000 0.5000 0.5000
O1 O 0.1119(4) 0.52070(15) 0.3071(2)
O2 O 0.3179(4) 0.44855(16) 0.1814(2)
O3 O -0.1891(5) 0.41373(17) 0.0579(3)
O4 O -0.1835(4) 0.28645(16) -0.0488(2)
O5 O 0.3032(4) 0.43636(17) 0.5823(2)
O6 O 0.5247(4) 0.32066(17) 0.6385(2)
O7 O -0.0772(4) 0.37821(16) 0.3817(2)
O8 O 0.7142(5) 0.59474(17) 0.0999(3)
H1 H 0.8035 0.5511 0.1193
H2 H 0.7488 0.6379 0.0523
C1 C 0.1787(5) 0.4496(2) 0.2604(3)
C2 C 0.1041(5) 0.3601(2) 0.3098(3)
C3 C 0.0314(6) 0.2971(2) 0.1854(3)
H3 H 0.1656 0.2757 0.1562
H4 H -0.0419 0.2464 0.2179
C4 C -0.1247(5) 0.3348(2) 0.0583(3)
C5 C 0.3044(6) 0.3186(2) 0.4102(3)
H5 H 0.2666 0.2576 0.4261
H6 H 0.4312 0.3177 0.3632
C6 C 0.3808(5) 0.3623(2) 0.5524(3)
H7 H -0.121(7) 0.3305(16) 0.411(4)
Cd1B Cd -0.38702(4) 0.403894(17) 0.82554(3)
Cd1B_2 Cd -0.38702(4) 0.403894(17) -0.17446(3)
Cd1B_3 Cd 0.61298(4) 0.403894(17) 0.82554(3)
Cd1_2 Cd 0.38702(4) 0.596106(17) 1.17446(3)
Cd1_3 Cd -0.61298(4) 0.596106(17) 0.17446(3)
O1B O -0.1119(4) 0.47930(15) 0.6929(2)
O2B O -0.3179(4) 0.55145(16) 0.8186(2)
O3B O 0.1891(5) 0.58627(17) 0.9421(3)
O3B_2 O 0.1891(5) 0.58627(17) -0.0579(3)
O3_2 O -0.1891(5) 0.41373(17) 1.0579(3)
O4B O 0.1835(4) 0.71355(16) 1.0488(2)
O4B_2 O 0.1835(4) 0.71355(16) 0.0488(2)
O4_2 O -0.1835(4) 0.28645(16) 0.9512(2)
O5B O -0.3032(4) 0.56364(17) 0.4177(2)
O6B O -0.5247(4) 0.67934(17) 0.3615(2)
O6B_2 O 0.4753(4) 0.67934(17) 0.3615(2)
O6_2 O -0.4753(4) 0.32066(17) 0.6385(2)
O7B O 0.0772(4) 0.62179(16) 0.6183(2)
O8B O -0.7142(5) 0.40526(17) 0.9001(3)
H1B H -0.8035 0.4489 0.8807
H2B H -0.7488 0.3621 0.9477
C1B C -0.1787(5) 0.5504(2) 0.7396(3)
C2B C -0.1041(5) 0.6399(2) 0.6902(3)
C3B C -0.0314(6) 0.7029(2) 0.8146(3)
H3B H -0.1656 0.7243 0.8438
H4B H 0.0419 0.7536 0.7821
C4B C 0.1247(5) 0.6652(2) 0.9417(3)
C5B C -0.3044(6) 0.6814(2) 0.5898(3)
H5B H -0.2666 0.7424 0.5739
H6B H -0.4312 0.6823 0.6368
C6B C -0.3808(5) 0.6377(2) 0.4476(3)
H7B H 0.121(7) 0.6695(16) 0.589(4)
loop_
_geom_bond_atom_site_label_1
_geom_bond_atom_site_label_2
_geom_bond_site_symmetry_1
_geom_bond_site_symmetry_2
Cd1 O1 1_555 1_555
Fe1 O1 1_555 1_555
O1 C1 1_555 1_555
O2 Cd1 1_555 1_555
O3 C4 1_555 1_555
O4 C4 1_555 1_555
O5 Fe1 1_555 1_555
O6 C6 1_555 1_555
O7 Fe1 1_555 1_555
O8 Cd1 1_555 1_555
H1 O8 1_555 1_555
H2 O8 1_555 1_555
C1 O2 1_555 1_555
C2 O7 1_555 1_555
C3 C2 1_555 1_555
H3 C3 1_555 1_555
H4 C3 1_555 1_555
C4 C3 1_555 1_555
C5 C2 1_555 1_555
H5 C5 1_555 1_555
H6 C5 1_555 1_555
C6 O5 1_555 1_555
H7 O7 1_555 1_555
Cd1B O1B 1_555 1_555
Cd1B_2 O3 1_555 1_555
Cd1B_3 O6 1_555 1_555
Cd1_2 O3B 1_555 1_555
Cd1_3 O6B 1_555 1_555
O1B Fe1 1_555 1_555
O2B Cd1B 1_555 1_555
O3B C4B 1_555 1_555
O3B_2 Cd1 1_555 1_555
O3_2 Cd1B 1_555 1_555
O4B Cd1_2 1_555 1_555
O4B_2 Cd1 1_555 1_555
O4_2 Cd1B 1_555 1_555
O5B Fe1 1_555 1_555
O6B C6B 1_555 1_555
O6B_2 Cd1 1_555 1_555
O6_2 Cd1B 1_555 1_555
O7B Fe1 1_555 1_555
O8B Cd1B 1_555 1_555
H1B O8B 1_555 1_555
H2B O8B 1_555 1_555
C1B O1B 1_555 1_555
C2B O7B 1_555 1_555
C3B C2B 1_555 1_555
H3B C3B 1_555 1_555
H4B C3B 1_555 1_555
C4B O4B 1_555 1_555
C5B C2B 1_555 1_555
H5B C5B 1_555 1_555
H6B C5B 1_555 1_555
C6B O5B 1_555 1_555
H7B O7B 1_555 1_555
O4 Cd1B_2 1_555 1_555
C1 C2 1_555 1_555
C5 C6 1_555 1_555
O2B C1B 1_555 1_555
C1B C2B 1_555 1_555
C3B C4B 1_555 1_555
C5B C6B 1_555 1_555

#END
