
#######################################################################
#
#                 Cambridge Crystallographic Data Centre
#                                CCDC 
#
#######################################################################
#
# If this CIF has been generated from an entry in the Cambridge 
# Structural Database, then it will include bibliographic, chemical, 
# crystal, experimental, refinement or atomic coordinate data resulting 
# from the CCDC's data processing and validation procedures.
#
#######################################################################

data_PUPRAU
_symmetry_cell_setting           orthorhombic
_symmetry_space_group_name_H-M   'P b c n'
_symmetry_Int_Tables_number      60
_space_group_name_Hall           '-P 2n 2ab'
loop_
_symmetry_equiv_pos_site_id
_symmetry_equiv_pos_as_xyz
1 x,y,z
2 1/2-x,1/2-y,1/2+z
3 -x,y,1/2-z
4 1/2+x,1/2-y,-z
5 -x,-y,-z
6 1/2+x,1/2+y,1/2-z
7 x,-y,1/2+z
8 1/2-x,1/2+y,z
_cell_length_a                   9.5499(19)
_cell_length_b                   26.263(5)
_cell_length_c                   15.567(3)
_cell_angle_alpha                90
_cell_angle_beta                 90
_cell_angle_gamma                90
_cell_volume                     3904.34
loop_
_atom_site_label
_atom_site_type_symbol
_atom_site_fract_x
_atom_site_fract_y
_atom_site_fract_z
Hg1 Hg 0.5000 0.282402(19) 0.2500
Hg2 Hg 0.12703(4) 0.390480(15) 0.15266(2)
Br1 Br 0.24887(14) 0.46833(4) 0.17034(10)
O1 O 0.5000 0.3920(8) 0.2500
H1 H 0.4252 0.4065 0.2335
N1 N 0.3936(7) 0.2887(3) 0.1326(4)
N2 N 0.3271(8) 0.3287(3) 0.1040(5)
N3 N 0.3139(9) 0.3240(3) 0.0190(5)
N4 N 0.3699(8) 0.2802(3) -0.0061(5)
N5 N 0.5605(6) 0.2005(2) 0.1438(4)
N6 N 0.5369(6) 0.1247(2) 0.0232(4)
N7 N 0.4428(8) 0.1540(3) -0.1404(4)
N8 N 0.3437(8) 0.1590(3) -0.2011(4)
N9 N 0.2320(7) 0.1771(3) -0.1660(4)
N10 N 0.2559(7) 0.1872(3) -0.0814(5)
C1 C 0.4179(8) 0.2581(3) 0.0652(4)
C2 C 0.4831(7) 0.2086(3) 0.0730(5)
C3 C 0.4670(8) 0.1694(3) 0.0135(5)
C4 C 0.6171(7) 0.1182(3) 0.0920(5)
C5 C 0.6248(7) 0.1570(3) 0.1557(5)
C6 C 0.7078(7) 0.1525(3) 0.2363(5)
C7 C 0.7911(9) 0.1938(3) 0.2610(6)
H2 H 0.7965 0.2227 0.2266
C8 C 0.8664(9) 0.1911(5) 0.3380(6)
H3 H 0.9245 0.2178 0.3547
C9 C 0.8526(10) 0.1476(4) 0.3894(6)
H4 H 0.9000 0.1459 0.4415
C10 C 0.7730(10) 0.1088(4) 0.3649(6)
H5 H 0.7657 0.0803 0.4000
C11 C 0.7002(9) 0.1101(3) 0.2874(5)
H6 H 0.6467 0.0823 0.2704
C12 C 0.6943(7) 0.0690(3) 0.0961(5)
C13 C 0.8374(9) 0.0682(3) 0.1107(6)
H7 H 0.8855 0.0980 0.1239
C14 C 0.9072(11) 0.0220(4) 0.1054(8)
H8 H 1.0040 0.0213 0.1118
C15 C 0.8381(12) -0.0222(4) 0.0913(8)
H9 H 0.8863 -0.0530 0.0913
C16 C 0.6958(12) -0.0212(3) 0.0769(7)
H10 H 0.6481 -0.0515 0.0666
C17 C 0.6222(9) 0.0250(3) 0.0777(6)
H11 H 0.5268 0.0259 0.0660
C18 C 0.3845(8) 0.1721(3) -0.0676(5)
Hg1A Hg 0.0000 0.217598(19) -0.2500
Hg1A_2 Hg 1.0000 0.217598(19) 0.7500
Hg2B Hg 0.87297(4) 0.390480(15) 0.34734(2)
Hg2C Hg 0.62703(4) 0.109520(15) -0.15266(2)
Hg2A Hg 0.37297(4) 0.109520(15) -0.34734(2)
Hg2A_2 Hg 0.37297(4) 0.109520(15) 0.65266(2)
Hg2C_2 Hg 0.62703(4) 0.109520(15) 0.84734(2)
Br1B Br 0.75113(14) 0.46833(4) 0.32966(10)
H1B H 0.5748 0.4065 0.2665
N1B N 0.6064(7) 0.2887(3) 0.3674(4)
N2B N 0.6729(8) 0.3287(3) 0.3960(5)
N3B N 0.6861(9) 0.3240(3) 0.4810(5)
N4B N 0.6301(8) 0.2802(3) 0.5061(5)
N5B N 0.4395(6) 0.2005(2) 0.3562(4)
N6B N 0.4631(6) 0.1247(2) 0.4768(4)
N7B N 0.5572(8) 0.1540(3) 0.6404(4)
N7C N -0.0572(8) 0.3460(3) 0.1404(4)
N7A N 1.0572(8) 0.3460(3) 0.3596(4)
N8B N 0.6563(8) 0.1590(3) 0.7011(4)
N8A N 0.1563(8) 0.3410(3) 0.2989(4)
N8C N 0.8437(8) 0.3410(3) 0.2011(4)
N9B N 0.7680(7) 0.1771(3) 0.6660(4)
N9A N 0.2680(7) 0.3229(3) 0.3340(4)
N9C N 0.7320(7) 0.3229(3) 0.1660(4)
N10B N 0.7441(7) 0.1872(3) 0.5814(5)
C1B C 0.5821(8) 0.2581(3) 0.4348(4)
C2B C 0.5169(7) 0.2086(3) 0.4270(5)
C3B C 0.5330(8) 0.1694(3) 0.4865(5)
C4B C 0.3829(7) 0.1182(3) 0.4080(5)
C5B C 0.3752(7) 0.1570(3) 0.3443(5)
C6B C 0.2922(7) 0.1525(3) 0.2637(5)
C7B C 0.2089(9) 0.1938(3) 0.2390(6)
H2B H 0.2035 0.2227 0.2734
C8B C 0.1336(9) 0.1911(5) 0.1620(6)
H3B H 0.0755 0.2178 0.1453
C9B C 0.1474(10) 0.1476(4) 0.1106(6)
H4B H 0.1000 0.1459 0.0585
C10B C 0.2270(10) 0.1088(4) 0.1351(6)
H5B H 0.2343 0.0803 0.1000
C11B C 0.2998(9) 0.1101(3) 0.2126(5)
H6B H 0.3533 0.0823 0.2296
C12B C 0.3057(7) 0.0690(3) 0.4039(5)
C13B C 0.1626(9) 0.0682(3) 0.3893(6)
H7B H 0.1145 0.0980 0.3761
C14B C 0.0928(11) 0.0220(4) 0.3946(8)
H8B H -0.0040 0.0213 0.3882
C15B C 0.1619(12) -0.0222(4) 0.4087(8)
H9B H 0.1137 -0.0530 0.4087
C16B C 0.3042(12) -0.0212(3) 0.4231(7)
H10B H 0.3519 -0.0515 0.4334
C17B C 0.3778(9) 0.0250(3) 0.4223(6)
H11B H 0.4732 0.0259 0.4340
C18B C 0.6155(8) 0.1721(3) 0.5676(5)
loop_
_geom_bond_atom_site_label_1
_geom_bond_atom_site_label_2
_geom_bond_site_symmetry_1
_geom_bond_site_symmetry_2
Hg1 O1 1_555 1_555
Hg2 Br1 1_555 1_555
O1 H1 1_555 1_555
N1 Hg1 1_555 1_555
N2 Hg2 1_555 1_555
N3 N2 1_555 1_555
N4 N3 1_555 1_555
N5 Hg1 1_555 1_555
N6 C3 1_555 1_555
N7 N8 1_555 1_555
N8 N9 1_555 1_555
N9 N10 1_555 1_555
N10 C18 1_555 1_555
C1 N1 1_555 1_555
C2 N5 1_555 1_555
C3 C2 1_555 1_555
C4 N6 1_555 1_555
C5 N5 1_555 1_555
C6 C5 1_555 1_555
C7 C6 1_555 1_555
H2 C7 1_555 1_555
C8 C7 1_555 1_555
H3 C8 1_555 1_555
C9 C8 1_555 1_555
H4 C9 1_555 1_555
C10 C9 1_555 1_555
H5 C10 1_555 1_555
C11 C6 1_555 1_555
H6 C11 1_555 1_555
C12 C4 1_555 1_555
C13 C12 1_555 1_555
H7 C13 1_555 1_555
C14 C13 1_555 1_555
H8 C14 1_555 1_555
C15 C14 1_555 1_555
H9 C15 1_555 1_555
C16 C15 1_555 1_555
H10 C16 1_555 1_555
C17 C12 1_555 1_555
H11 C17 1_555 1_555
C18 N7 1_555 1_555
Hg1A N9 1_555 1_555
Hg1A_2 N9B 1_555 1_555
Hg2B Br1B 1_555 1_555
Hg2C N7 1_555 1_555
Hg2A N8 1_555 1_555
Hg2A_2 N7B 1_555 1_555
Hg2C_2 N8B 1_555 1_555
H1B O1 1_555 1_555
N1B Hg1 1_555 1_555
N2B Hg2B 1_555 1_555
N3B N2B 1_555 1_555
N4B N3B 1_555 1_555
N5B Hg1 1_555 1_555
N6B C3B 1_555 1_555
N7B N8B 1_555 1_555
N7C Hg2 1_555 1_555
N7A Hg2B 1_555 1_555
N8B N9B 1_555 1_555
N8A Hg2 1_555 1_555
N8C Hg2B 1_555 1_555
N9B N10B 1_555 1_555
N9A Hg1 1_555 1_555
N9C Hg1 1_555 1_555
N10B C18B 1_555 1_555
C1B N1B 1_555 1_555
C2B N5B 1_555 1_555
C3B C2B 1_555 1_555
C4B N6B 1_555 1_555
C5B N5B 1_555 1_555
C6B C5B 1_555 1_555
C7B C6B 1_555 1_555
H2B C7B 1_555 1_555
C8B C7B 1_555 1_555
H3B C8B 1_555 1_555
C9B C8B 1_555 1_555
H4B C9B 1_555 1_555
C10B C9B 1_555 1_555
H5B C10B 1_555 1_555
C11B C6B 1_555 1_555
H6B C11B 1_555 1_555
C12B C4B 1_555 1_555
C13B C12B 1_555 1_555
H7B C13B 1_555 1_555
C14B C13B 1_555 1_555
H8B C14B 1_555 1_555
C15B C14B 1_555 1_555
H9B C15B 1_555 1_555
C16B C15B 1_555 1_555
H10B C16B 1_555 1_555
C17B C12B 1_555 1_555
H11B C17B 1_555 1_555
C18B N7B 1_555 1_555
N1 N2 1_555 1_555
N4 C1 1_555 1_555
C1 C2 1_555 1_555
C3 C18 1_555 1_555
C4 C5 1_555 1_555
C10 C11 1_555 1_555
C16 C17 1_555 1_555
N1B N2B 1_555 1_555
N4B C1B 1_555 1_555
N8A N9A 1_555 1_555
N8C N9C 1_555 1_555
C1B C2B 1_555 1_555
C3B C18B 1_555 1_555
C4B C5B 1_555 1_555
C10B C11B 1_555 1_555
C16B C17B 1_555 1_555

#END
