
#######################################################################
#
#                 Cambridge Crystallographic Data Centre
#                                CCDC 
#
#######################################################################
#
# If this CIF has been generated from an entry in the Cambridge 
# Structural Database, then it will include bibliographic, chemical, 
# crystal, experimental, refinement or atomic coordinate data resulting 
# from the CCDC's data processing and validation procedures.
#
#######################################################################

data_PUPTEA
_symmetry_cell_setting           triclinic
_symmetry_space_group_name_H-M   'P -1'
_symmetry_Int_Tables_number      2
_space_group_name_Hall           '-P 1'
loop_
_symmetry_equiv_pos_site_id
_symmetry_equiv_pos_as_xyz
1 x,y,z
2 -x,-y,-z
_cell_length_a                   9.543(4)
_cell_length_b                   10.818(2)
_cell_length_c                   11.781(2)
_cell_angle_alpha                116.096(3)
_cell_angle_beta                 98.893(4)
_cell_angle_gamma                102.291(4)
_cell_volume                     1023.61
loop_
_atom_site_label
_atom_site_type_symbol
_atom_site_fract_x
_atom_site_fract_y
_atom_site_fract_z
Cu1 Cu -0.00785(6) -0.02404(6) 0.34953(5)
O1 O -0.1165(3) 0.0527(3) 0.4747(3)
O2 O -0.1925(4) 0.2298(4) 0.4611(4)
O3 O -0.1660(3) -0.2165(3) 0.2596(3)
O4 O -0.2461(4) -0.1320(3) 0.1296(3)
N1 N 0.1257(4) -0.1093(4) 0.2468(3)
N2 N 0.1309(4) 0.1622(4) 0.3725(4)
N3 N 0.5920(4) 0.2999(4) 0.2558(4)
N4 N 0.5981(4) 0.0712(4) 0.1668(4)
N5 N 1.0059(5) 0.4502(5) 0.1916(5)
C1 C 0.1193(5) -0.2480(5) 0.1897(5)
C2 C 0.2288(6) -0.2922(5) 0.1304(5)
C3 C 0.3460(6) -0.1942(5) 0.1322(5)
C4 C 0.3554(5) -0.0473(5) 0.1929(4)
C5 C 0.4705(5) 0.0698(5) 0.2047(4)
C6 C 0.6681(5) 0.2117(5) 0.2007(4)
C7 C 0.8119(5) 0.2565(5) 0.1757(4)
C8 C 0.8806(6) 0.1580(6) 0.1087(5)
C9 C 1.0114(6) 0.2054(6) 0.0832(6)
C10 C 1.0682(6) 0.3511(6) 0.1263(6)
C11 C 0.8789(6) 0.4017(6) 0.2157(5)
C12 C 0.4677(5) 0.2113(5) 0.2604(4)
C13 C 0.3515(5) 0.2501(5) 0.3175(4)
C14 C 0.3392(5) 0.3903(5) 0.3795(5)
C15 C 0.2268(6) 0.4136(5) 0.4374(5)
C16 C 0.1247(5) 0.2980(5) 0.4338(5)
C17 C 0.2429(5) 0.1389(4) 0.3154(4)
C18 C 0.2425(5) -0.0089(5) 0.2501(4)
C19 C -0.2130(5) 0.1210(5) 0.4735(4)
C20 C -0.3610(5) 0.0582(5) 0.4893(4)
C21 C -0.4478(5) 0.1467(5) 0.5387(5)
C22 C -0.4135(5) -0.0889(5) 0.4506(5)
C23 C -0.2554(5) -0.2297(5) 0.1611(4)
C24 C -0.3799(5) -0.3715(5) 0.0776(4)
C25 C -0.4537(5) -0.4109(5) -0.0511(5)
C26 C -0.4285(5) -0.4614(5) 0.1286(5)
H1 H 0.223(5) -0.386(5) 0.088(4)
H2 H -0.406(4) 0.244(4) 0.564(4)
H3 H -0.381(5) -0.439(5) 0.212(5)
H4 H 0.415(5) -0.228(5) 0.093(4)
H5 H -0.430(5) -0.355(5) -0.082(5)
H6 H 0.412(5) 0.466(5) 0.382(4)
H7 H 0.038(6) -0.316(5) 0.191(5)
H8 H 0.633(6) -0.005(6) 0.136(5)
H9 H 0.220(5) 0.505(5) 0.472(5)
H10 H 0.838(6) 0.062(5) 0.075(5)
H11 H 0.049(7) 0.313(6) 0.467(5)
H12 H 1.165(6) 0.385(6) 0.110(5)
H13 H -0.353(6) -0.145(5) 0.420(5)
H14 H 0.832(6) 0.474(6) 0.268(5)
H15 H 1.066(7) 0.142(7) 0.036(6)
Cu1A Cu -0.99215(6) 0.02404(6) 0.65047(5)
Cu1A_2 Cu 0.00785(6) 0.02404(6) 0.65047(5)
Cu1_2 Cu -1.00785(6) -0.02404(6) 0.34953(5)
Cu1A_3 Cu -0.99215(6) -0.97596(6) -0.34953(5)
O1A O -0.8835(3) -0.0527(3) 0.5253(3)
O1A_2 O 0.1165(3) -0.0527(3) 0.5253(3)
O1_2 O -1.1165(3) 0.0527(3) 0.4747(3)
O2A O -0.8075(4) -0.2298(4) 0.5389(4)
O3A O -0.8340(3) -0.7835(3) -0.2596(3)
O3A_2 O -0.8340(3) 0.2165(3) 0.7404(3)
O4A O -0.7539(4) -0.8680(3) -0.1296(3)
N1A N -1.1257(4) 0.1093(4) 0.7532(3)
N2A N -1.1309(4) -0.1622(4) 0.6275(4)
N3A N -1.5920(4) -0.2999(4) 0.7442(4)
N4A N -1.5981(4) -0.0712(4) 0.8332(4)
N5A N -2.0059(5) -0.4502(5) 0.8084(5)
C1A C -1.1193(5) 0.2480(5) 0.8103(5)
C2A C -1.2288(6) 0.2922(5) 0.8696(5)
C3A C -1.3460(6) 0.1942(5) 0.8678(5)
C4A C -1.3554(5) 0.0473(5) 0.8071(4)
C5A C -1.4705(5) -0.0698(5) 0.7953(4)
C6A C -1.6681(5) -0.2117(5) 0.7993(4)
C7A C -1.8119(5) -0.2565(5) 0.8243(4)
C8A C -1.8806(6) -0.1580(6) 0.8913(5)
C9A C -2.0114(6) -0.2054(6) 0.9168(6)
C10A C -2.0682(6) -0.3511(6) 0.8737(6)
C11A C -1.8789(6) -0.4017(6) 0.7843(5)
C12A C -1.4677(5) -0.2113(5) 0.7396(4)
C13A C -1.3515(5) -0.2501(5) 0.6825(4)
C14A C -1.3392(5) -0.3903(5) 0.6205(5)
C15A C -1.2268(6) -0.4136(5) 0.5626(5)
C16A C -1.1247(5) -0.2980(5) 0.5662(5)
C17A C -1.2429(5) -0.1389(4) 0.6846(4)
C18A C -1.2425(5) 0.0089(5) 0.7499(4)
C19A C -0.7870(5) -0.1210(5) 0.5265(4)
C20A C -0.6390(5) -0.0582(5) 0.5107(4)
C21A C -0.5522(5) -0.1467(5) 0.4613(5)
C22A C -0.5865(5) 0.0889(5) 0.5494(5)
C23A C -0.7446(5) -0.7703(5) -0.1611(4)
C24A C -0.6201(5) -0.6285(5) -0.0776(4)
C25A C -0.5463(5) -0.5891(5) 0.0511(5)
C26A C -0.5715(5) -0.5386(5) -0.1286(5)
H1A H -1.223(5) 0.386(5) 0.912(4)
H2A H -0.594(4) -0.244(4) 0.436(4)
H3A H -0.619(5) -0.561(5) -0.212(5)
H4A H -1.415(5) 0.228(5) 0.907(4)
H5A H -0.570(5) -0.645(5) 0.082(5)
H6A H -1.412(5) -0.466(5) 0.618(4)
H7A H -1.038(6) 0.316(5) 0.809(5)
H8A H -1.633(6) 0.005(6) 0.864(5)
H9A H -1.220(5) -0.505(5) 0.528(5)
H10A H -1.838(6) -0.062(5) 0.925(5)
H11A H -1.049(7) -0.313(6) 0.533(5)
H12A H -2.165(6) -0.385(6) 0.890(5)
H13A H -0.647(6) 0.145(5) 0.580(5)
H14A H -1.832(6) -0.474(6) 0.732(5)
H15A H -2.066(7) -0.142(7) 0.964(6)
loop_
_geom_bond_atom_site_label_1
_geom_bond_atom_site_label_2
_geom_bond_site_symmetry_1
_geom_bond_site_symmetry_2
Cu1 O1 1_555 1_555
O1 C19 1_555 1_555
O2 C19 1_555 1_555
O3 Cu1 1_555 1_555
O4 C23 1_555 1_555
N1 Cu1 1_555 1_555
N2 Cu1 1_555 1_555
N3 C6 1_555 1_555
N4 C5 1_555 1_555
N5 C10 1_555 1_555
C1 N1 1_555 1_555
C2 C1 1_555 1_555
C3 C2 1_555 1_555
C4 C3 1_555 1_555
C5 C4 1_555 1_555
C6 N4 1_555 1_555
C7 C6 1_555 1_555
C8 C7 1_555 1_555
C9 C8 1_555 1_555
C10 C9 1_555 1_555
C11 N5 1_555 1_555
C12 N3 1_555 1_555
C13 C12 1_555 1_555
C14 C13 1_555 1_555
C15 C14 1_555 1_555
C16 N2 1_555 1_555
C17 N2 1_555 1_555
C18 N1 1_555 1_555
C19 C20 1_555 1_555
C20 C21 1_555 1_555
C21 H2 1_555 1_555
C22 C20 1_555 1_555
C23 O3 1_555 1_555
C24 C23 1_555 1_555
C25 C24 1_555 1_555
C26 C24 1_555 1_555
H1 C2 1_555 1_555
H3 C26 1_555 1_555
H4 C3 1_555 1_555
H5 C25 1_555 1_555
H6 C14 1_555 1_555
H7 C1 1_555 1_555
H8 N4 1_555 1_555
H9 C15 1_555 1_555
H10 C8 1_555 1_555
H11 C16 1_555 1_555
H12 C10 1_555 1_555
H13 C22 1_555 1_555
H14 C11 1_555 1_555
H15 C9 1_555 1_555
Cu1A O1A 1_555 1_555
Cu1A_2 O1 1_555 1_555
Cu1_2 O1A 1_555 1_555
Cu1A_3 O3A 1_555 1_555
O1A C19A 1_555 1_555
O1A_2 Cu1 1_555 1_555
O1_2 Cu1A 1_555 1_555
O2A C19A 1_555 1_555
O3A C23A 1_555 1_555
O3A_2 Cu1A 1_555 1_555
O4A C23A 1_555 1_555
N1A Cu1A 1_555 1_555
N2A Cu1A 1_555 1_555
N3A C6A 1_555 1_555
N4A C5A 1_555 1_555
N5A C10A 1_555 1_555
C1A N1A 1_555 1_555
C2A C1A 1_555 1_555
C3A C2A 1_555 1_555
C4A C3A 1_555 1_555
C5A C4A 1_555 1_555
C6A N4A 1_555 1_555
C7A C6A 1_555 1_555
C8A C7A 1_555 1_555
C9A C8A 1_555 1_555
C10A C9A 1_555 1_555
C11A N5A 1_555 1_555
C12A N3A 1_555 1_555
C13A C12A 1_555 1_555
C14A C13A 1_555 1_555
C15A C14A 1_555 1_555
C16A N2A 1_555 1_555
C17A N2A 1_555 1_555
C18A N1A 1_555 1_555
C19A C20A 1_555 1_555
C20A C21A 1_555 1_555
C21A C22 1_555 1_555
C22A C21 1_555 1_555
C23A C24A 1_555 1_555
C24A C25A 1_555 1_555
C25A C26 1_555 1_555
C26A C25 1_555 1_555
H1A C2A 1_555 1_555
H2A C21A 1_555 1_555
H3A C26A 1_555 1_555
H4A C3A 1_555 1_555
H5A C25A 1_555 1_555
H6A C14A 1_555 1_555
H7A C1A 1_555 1_555
H8A N4A 1_555 1_555
H9A C15A 1_555 1_555
H10A C8A 1_555 1_555
H11A C16A 1_555 1_555
H12A C10A 1_555 1_555
H13A C22A 1_555 1_555
H14A C11A 1_555 1_555
H15A C9A 1_555 1_555
C4 C18 1_555 1_555
C5 C12 1_555 1_555
C7 C11 1_555 1_555
C13 C17 1_555 1_555
C15 C16 1_555 1_555
C17 C18 1_555 1_555
Cu1A_2 O1A_2 1_555 1_555
Cu1_2 O1_2 1_555 1_555
C4A C18A 1_555 1_555
C5A C12A 1_555 1_555
C7A C11A 1_555 1_555
C13A C17A 1_555 1_555
C15A C16A 1_555 1_555
C17A C18A 1_555 1_555
C20A C22A 1_555 1_555
C24A C26A 1_555 1_555

#END
