
#######################################################################
#
#                 Cambridge Crystallographic Data Centre
#                                CCDC 
#
#######################################################################
#
# If this CIF has been generated from an entry in the Cambridge 
# Structural Database, then it will include bibliographic, chemical, 
# crystal, experimental, refinement or atomic coordinate data resulting 
# from the CCDC's data processing and validation procedures.
#
#######################################################################

data_PUPTIE
_symmetry_cell_setting           triclinic
_symmetry_space_group_name_H-M   'P -1'
_symmetry_Int_Tables_number      2
_space_group_name_Hall           '-P 1'
loop_
_symmetry_equiv_pos_site_id
_symmetry_equiv_pos_as_xyz
1 x,y,z
2 -x,-y,-z
_cell_length_a                   9.4860(13)
_cell_length_b                   11.1545(16)
_cell_length_c                   11.8539(16)
_cell_angle_alpha                63.275(2)
_cell_angle_beta                 69.956(2)
_cell_angle_gamma                82.180(2)
_cell_volume                     1052.19
loop_
_atom_site_label
_atom_site_type_symbol
_atom_site_fract_x
_atom_site_fract_y
_atom_site_fract_z
Cu1 Cu -0.01534(5) 0.37280(5) 0.15117(5)
O1 O -0.2480(3) 0.2576(3) 0.4042(3)
O2 O -0.1725(3) 0.4632(3) 0.2447(3)
O3 O -0.1204(3) 0.4221(3) 0.0224(3)
O4 O 1.1641(4) -0.2582(4) 0.3793(4)
N1 N 0.1140(4) 0.2225(3) 0.1235(3)
N2 N 0.1161(4) 0.3569(3) 0.2573(3)
N3 N 0.5751(4) 0.1126(4) 0.3335(4)
N4 N 0.5587(4) -0.0149(3) 0.2385(3)
C1 C -0.3833(4) 0.4439(4) 0.4314(4)
C2 C -0.2594(4) 0.3827(4) 0.3551(4)
C3 C 0.2240(4) 0.1912(4) 0.1817(4)
C4 C -0.4698(5) 0.3661(4) 0.5606(4)
C5 C 0.2284(4) 0.2681(4) 0.2502(4)
C6 C -0.3641(4) 0.4341(4) 0.0061(4)
C7 C 0.4506(4) 0.1533(4) 0.2938(4)
C8 C 0.1137(5) 0.4314(4) 0.3197(4)
H1 H 0.0369 0.4921 0.3246
C9 C 0.3415(4) 0.2521(4) 0.3075(4)
C10 C 0.3143(5) 0.0169(4) 0.1103(4)
C11 C 0.4427(4) 0.0731(4) 0.2348(4)
C12 C -0.4573(5) 0.4021(4) -0.0464(4)
C13 C -0.4090(4) 0.5325(4) 0.0524(4)
H2 H -0.3482 0.5544 0.0878
C14 C 0.8370(5) -0.1458(4) 0.2678(4)
H3 H 0.7896 -0.1626 0.2194
C15 C 0.7759(4) -0.0549(4) 0.3203(4)
C16 C 0.3279(4) 0.0899(4) 0.1758(4)
C17 C 0.9786(5) -0.0980(4) 0.4133(5)
C18 C 0.2028(5) 0.0474(5) 0.0534(4)
C19 C 0.2220(5) 0.4211(5) 0.3773(4)
C20 C -0.4150(5) 0.5791(4) 0.3705(4)
C21 C 0.6377(4) 0.0135(4) 0.2967(4)
C22 C 0.1060(5) 0.1509(5) 0.0612(5)
C23 C 0.9679(5) -0.2125(5) 0.2860(5)
C24 C 1.0358(5) -0.1885(4) 0.3610(4)
C25 C 0.3346(5) 0.3320(5) 0.3734(4)
C26 C 0.8485(5) -0.0307(5) 0.3921(5)
C27 C -0.2183(5) 0.3615(4) 0.0140(4)
O5 O -0.2021(4) 0.2528(4) 0.0086(4)
H4 H 1.030(5) -0.089(4) 0.469(4)
H5 H 0.209(5) 0.474(4) 0.424(4)
H6 H -0.418(5) 0.335(4) -0.077(4)
H7 H 0.192(4) 0.006(4) 0.009(4)
H8 H 0.605(5) 0.145(4) 0.361(4)
H9 H 0.377(5) -0.057(4) 0.107(4)
H10 H -0.356(5) 0.629(4) 0.284(4)
H11 H -0.458(5) 0.282(4) 0.597(4)
H12 H 0.043(5) 0.166(5) 0.037(4)
H13 H 0.798(5) 0.016(4) 0.431(4)
H14 H 0.399(5) 0.328(4) 0.413(4)
H15 H 1.012(5) -0.269(4) 0.240(4)
H16 H 1.189(9) -0.240(8) 0.432(8)
Cu1A Cu -0.98466(5) 0.62720(5) 0.84883(5)
Cu1A_2 Cu 0.01534(5) 0.62720(5) -0.15117(5)
Cu1A_3 Cu -0.98466(5) 0.62720(5) -0.15117(5)
Cu1_2 Cu -1.01534(5) 0.37280(5) 0.15117(5)
O1A O -0.7520(3) 0.7424(3) 0.5958(3)
O2A O -0.8275(3) 0.5368(3) 0.7553(3)
O2A_2 O -0.8275(3) 0.5368(3) -0.2447(3)
O3A O -0.8796(3) 0.5779(3) -0.0224(3)
O3A_2 O 0.1204(3) 0.5779(3) -0.0224(3)
O3_2 O -1.1204(3) 0.4221(3) 0.0224(3)
O4A O -2.1641(4) 1.2582(4) -0.3793(4)
N1A N -1.1140(4) 0.7775(3) -0.1235(3)
N2A N -1.1161(4) 0.6431(3) -0.2573(3)
N3A N -1.5751(4) 0.8874(4) -0.3335(4)
N4A N -1.5587(4) 1.0149(3) -0.2385(3)
C1A C -0.6167(4) 0.5561(4) 0.5686(4)
C2A C -0.7406(4) 0.6173(4) 0.6449(4)
C3A C -1.2240(4) 0.8088(4) -0.1817(4)
C4A C -0.5302(5) 0.6339(4) 0.4394(4)
C5A C -1.2284(4) 0.7319(4) -0.2502(4)
C6A C -0.6359(4) 0.5659(4) -0.0061(4)
C7A C -1.4506(4) 0.8467(4) -0.2938(4)
C8A C -1.1137(5) 0.5686(4) -0.3197(4)
H1A H -1.0369 0.5079 -0.3246
C9A C -1.3415(4) 0.7479(4) -0.3075(4)
C10A C -1.3143(5) 0.9831(4) -0.1103(4)
C11A C -1.4427(4) 0.9269(4) -0.2348(4)
C12A C -0.5427(5) 0.5979(4) 0.0464(4)
C13A C -0.5910(4) 0.4675(4) -0.0524(4)
H2A H -0.6518 0.4456 -0.0878
C14A C -1.8370(5) 1.1458(4) -0.2678(4)
H3A H -1.7896 1.1626 -0.2194
C15A C -1.7759(4) 1.0549(4) -0.3203(4)
C16A C -1.3279(4) 0.9101(4) -0.1758(4)
C17A C -1.9786(5) 1.0980(4) -0.4133(5)
C18A C -1.2028(5) 0.9526(5) -0.0534(4)
C19A C -1.2220(5) 0.5789(5) -0.3773(4)
C20A C -0.5850(5) 0.4209(4) 0.6295(4)
C21A C -1.6377(4) 0.9865(4) -0.2967(4)
C22A C -1.1060(5) 0.8491(5) -0.0612(5)
C23A C -1.9679(5) 1.2125(5) -0.2860(5)
C24A C -2.0358(5) 1.1885(4) -0.3610(4)
C25A C -1.3346(5) 0.6680(5) -0.3734(4)
C26A C -1.8485(5) 1.0307(5) -0.3921(5)
C27A C -0.7817(5) 0.6385(4) -0.0140(4)
O5A O -0.7979(4) 0.7472(4) -0.0086(4)
H4A H -2.030(5) 1.089(4) -0.469(4)
H5A H -1.209(5) 0.526(4) -0.424(4)
H6A H -0.582(5) 0.665(4) 0.077(4)
H7A H -1.192(4) 0.994(4) -0.009(4)
H8A H -1.605(5) 0.855(4) -0.361(4)
H9A H -1.377(5) 1.057(4) -0.107(4)
H10A H -0.644(5) 0.371(4) 0.716(4)
H11A H -0.542(5) 0.718(4) 0.403(4)
H12A H -1.043(5) 0.834(5) -0.037(4)
H13A H -1.798(5) 0.984(4) -0.431(4)
H14A H -1.399(5) 0.672(4) -0.413(4)
H15A H -2.012(5) 1.269(4) -0.240(4)
H16A H -2.189(9) 1.240(8) -0.432(8)
loop_
_geom_bond_atom_site_label_1
_geom_bond_atom_site_label_2
_geom_bond_site_symmetry_1
_geom_bond_site_symmetry_2
Cu1 O2 1_555 1_555
O1 C2 1_555 1_555
O2 C2 1_555 1_555
O3 Cu1 1_555 1_555
O4 C24 1_555 1_555
N1 Cu1 1_555 1_555
N2 Cu1 1_555 1_555
N3 C7 1_555 1_555
N4 C11 1_555 1_555
C1 C2 1_555 1_555
C3 N1 1_555 1_555
C4 C1 1_555 1_555
C5 N2 1_555 1_555
C6 C12 1_555 1_555
C7 C9 1_555 1_555
C8 N2 1_555 1_555
H1 C8 1_555 1_555
C9 C5 1_555 1_555
C10 C16 1_555 1_555
C11 C7 1_555 1_555
C12 H6 1_555 1_555
C13 C6 1_555 1_555
H2 C13 1_555 1_555
C14 H3 1_555 1_555
C15 C14 1_555 1_555
C16 C3 1_555 1_555
C17 C24 1_555 1_555
C18 C10 1_555 1_555
C19 C8 1_555 1_555
C20 C1 1_555 1_555
C21 N3 1_555 1_555
C22 N1 1_555 1_555
C23 C14 1_555 1_555
C24 C23 1_555 1_555
C25 C9 1_555 1_555
C26 C15 1_555 1_555
C27 O3 1_555 1_555
O5 C27 1_555 1_555
H4 C17 1_555 1_555
H5 C19 1_555 1_555
H7 C18 1_555 1_555
H8 N3 1_555 1_555
H9 C10 1_555 1_555
H10 C20 1_555 1_555
H11 C4 1_555 1_555
H12 C22 1_555 1_555
H13 C26 1_555 1_555
H14 C25 1_555 1_555
H15 C23 1_555 1_555
H16 O4 1_555 1_555
Cu1A O2A 1_555 1_555
Cu1A_2 O3 1_555 1_555
Cu1A_3 O2A_2 1_555 1_555
Cu1_2 O3A 1_555 1_555
O1A C2A 1_555 1_555
O2A C2A 1_555 1_555
O3A Cu1A_3 1_555 1_555
O3A_2 Cu1 1_555 1_555
O3_2 Cu1A_3 1_555 1_555
O4A C24A 1_555 1_555
N1A Cu1A_3 1_555 1_555
N2A Cu1A_3 1_555 1_555
N3A C7A 1_555 1_555
N4A C11A 1_555 1_555
C1A C2A 1_555 1_555
C3A N1A 1_555 1_555
C4A C20 1_555 1_555
C5A N2A 1_555 1_555
C6A C12A 1_555 1_555
C7A C9A 1_555 1_555
C8A N2A 1_555 1_555
H1A C8A 1_555 1_555
C9A C5A 1_555 1_555
C10A C16A 1_555 1_555
C11A C7A 1_555 1_555
C12A C13 1_555 1_555
C13A C12 1_555 1_555
H2A C13A 1_555 1_555
C14A H3A 1_555 1_555
C15A C14A 1_555 1_555
C16A C3A 1_555 1_555
C17A C24A 1_555 1_555
C18A C10A 1_555 1_555
C19A C8A 1_555 1_555
C20A C4 1_555 1_555
C21A N3A 1_555 1_555
C22A N1A 1_555 1_555
C23A C14A 1_555 1_555
C24A C23A 1_555 1_555
C25A C9A 1_555 1_555
C26A C15A 1_555 1_555
C27A O3A 1_555 1_555
O5A C27A 1_555 1_555
H4A C17A 1_555 1_555
H5A C19A 1_555 1_555
H6A C12A 1_555 1_555
H7A C18A 1_555 1_555
H8A N3A 1_555 1_555
H9A C10A 1_555 1_555
H10A C20A 1_555 1_555
H11A C4A 1_555 1_555
H12A C22A 1_555 1_555
H13A C26A 1_555 1_555
H14A C25A 1_555 1_555
H15A C23A 1_555 1_555
H16A O4A 1_555 1_555
N4 C21 1_555 1_555
C3 C5 1_555 1_555
C6 C27 1_555 1_555
C11 C16 1_555 1_555
C15 C21 1_555 1_555
C17 C26 1_555 1_555
C18 C22 1_555 1_555
C19 C25 1_555 1_555
Cu1A_2 O3A_2 1_555 1_555
Cu1_2 O3_2 1_555 1_555
N4A C21A 1_555 1_555
C1A C4A 1_555 1_555
C1A C20A 1_555 1_555
C3A C5A 1_555 1_555
C6A C13A 1_555 1_555
C6A C27A 1_555 1_555
C11A C16A 1_555 1_555
C15A C21A 1_555 1_555
C17A C26A 1_555 1_555
C18A C22A 1_555 1_555
C19A C25A 1_555 1_555

#END
