
#######################################################################
#
#                 Cambridge Crystallographic Data Centre
#                                CCDC 
#
#######################################################################
#
# If this CIF has been generated from an entry in the Cambridge 
# Structural Database, then it will include bibliographic, chemical, 
# crystal, experimental, refinement or atomic coordinate data resulting 
# from the CCDC's data processing and validation procedures.
#
#######################################################################

data_PUPTOK
_symmetry_cell_setting           triclinic
_symmetry_space_group_name_H-M   'P -1'
_symmetry_Int_Tables_number      2
_space_group_name_Hall           '-P 1'
loop_
_symmetry_equiv_pos_site_id
_symmetry_equiv_pos_as_xyz
1 x,y,z
2 -x,-y,-z
_cell_length_a                   8.9081(10)
_cell_length_b                   10.6632(12)
_cell_length_c                   11.2363(12)
_cell_angle_alpha                61.9260(10)
_cell_angle_beta                 79.444(2)
_cell_angle_gamma                76.451(2)
_cell_volume                     912.218
loop_
_atom_site_label
_atom_site_type_symbol
_atom_site_fract_x
_atom_site_fract_y
_atom_site_fract_z
Cd1 Cd 0.5000 0.5000 0.5000
O1 O 0.3835(3) 0.4855(2) 0.3378(2)
O2 O 0.2937(3) 0.7052(2) 0.1829(2)
O3 O -0.3571(3) -0.2195(3) 1.5970(2)
N1 N 0.4778(3) 0.2591(3) 0.6579(3)
N2 N 0.2718(3) 0.5032(3) 0.6395(2)
N3 N 0.0063(3) 0.1966(3) 1.0678(3)
N4 N 0.1609(3) -0.0053(3) 1.0786(2)
H1 H 0.1789 -0.0868 1.0920
C1 C 0.1709(4) 0.6208(4) 0.6302(3)
C2 C 0.0469(4) 0.6212(4) 0.7250(4)
C3 C 0.0265(4) 0.4935(3) 0.8356(3)
C4 C 0.1290(4) 0.3678(3) 0.8488(3)
C5 C 0.1146(4) 0.2292(3) 0.9586(3)
C6 C 0.2127(4) 0.1059(3) 0.9637(3)
C7 C 0.3394(4) 0.1087(3) 0.8643(3)
C8 C 0.4421(4) -0.0148(4) 0.8663(3)
C9 C 0.5578(4) 0.0029(4) 0.7644(4)
C10 C 0.5720(4) 0.1403(4) 0.6637(4)
C11 C 0.3600(4) 0.2455(3) 0.7569(3)
C12 C 0.2531(4) 0.3752(3) 0.7480(3)
C13 C 0.0371(4) 0.0544(3) 1.1378(3)
C14 C -0.0557(4) -0.0259(3) 1.2629(3)
C15 C -0.1740(4) 0.0540(4) 1.3105(3)
C16 C -0.2722(4) -0.0118(4) 1.4220(3)
C17 C -0.2553(4) -0.1619(3) 1.4888(3)
C18 C -0.1374(4) -0.2430(3) 1.4421(3)
C19 C -0.0374(4) -0.1757(3) 1.3293(3)
C20 C 0.3642(4) 0.5815(3) 0.2150(3)
C21 C 0.4338(3) 0.5375(3) 0.1043(3)
C22 C 0.3763(4) 0.6133(3) -0.0230(3)
C23 C 0.5571(4) 0.4238(3) 0.1261(3)
H2 H -0.356(5) -0.308(5) 1.614(4)
H3 H -0.119(3) -0.345(3) 1.485(3)
H4 H 0.048(4) -0.235(4) 1.294(3)
H5 H -0.358(4) 0.043(3) 1.454(3)
H6 H 0.291(4) 0.687(3) -0.040(3)
H7 H 0.658(4) 0.148(4) 0.595(4)
H8 H 0.180(4) 0.710(4) 0.550(4)
H9 H -0.061(4) 0.487(4) 0.900(4)
H10 H -0.189(4) 0.156(4) 1.269(3)
H11 H 0.594(4) 0.379(4) 0.208(4)
H12 H 0.627(4) -0.081(4) 0.764(3)
H13 H 0.429(4) -0.111(4) 0.938(4)
H14 H -0.020(5) 0.703(4) 0.711(4)
Cd1_2 Cd 0.5000 0.5000 -0.5000
O1A O 0.6165(3) 0.5145(2) -0.3378(2)
O1A_2 O 0.6165(3) 0.5145(2) 0.6622(2)
O2A O 0.7063(3) 0.2948(2) -0.1829(2)
O3A O 1.3571(3) 1.2195(3) -0.5970(2)
N1A N 0.5222(3) 0.7409(3) 0.3421(3)
N2A N 0.7282(3) 0.4968(3) 0.3605(2)
N3A N 0.9937(3) 0.8034(3) -0.0678(3)
N4A N 0.8391(3) 1.0053(3) -0.0786(2)
H1A H 0.8211 1.0868 -0.0920
C1A C 0.8291(4) 0.3792(4) 0.3698(3)
C2A C 0.9531(4) 0.3788(4) 0.2750(4)
C3A C 0.9735(4) 0.5065(3) 0.1644(3)
C4A C 0.8710(4) 0.6322(3) 0.1512(3)
C5A C 0.8854(4) 0.7708(3) 0.0414(3)
C6A C 0.7873(4) 0.8941(3) 0.0363(3)
C7A C 0.6606(4) 0.8913(3) 0.1357(3)
C8A C 0.5579(4) 1.0148(4) 0.1337(3)
C9A C 0.4422(4) 0.9971(4) 0.2356(4)
C10A C 0.4280(4) 0.8597(4) 0.3363(4)
C11A C 0.6400(4) 0.7545(3) 0.2431(3)
C12A C 0.7469(4) 0.6248(3) 0.2520(3)
C13A C 0.9629(4) 0.9456(3) -0.1378(3)
C14A C 1.0557(4) 1.0259(3) -0.2629(3)
C15A C 1.1740(4) 0.9460(4) -0.3105(3)
C16A C 1.2722(4) 1.0118(4) -0.4220(3)
C17A C 1.2553(4) 1.1619(3) -0.4888(3)
C18A C 1.1374(4) 1.2430(3) -0.4421(3)
C19A C 1.0374(4) 1.1757(3) -0.3293(3)
C20A C 0.6358(4) 0.4185(3) -0.2150(3)
C21A C 0.5662(3) 0.4625(3) -0.1043(3)
C22A C 0.6237(4) 0.3867(3) 0.0230(3)
C23A C 0.4429(4) 0.5762(3) -0.1261(3)
H2A H 1.356(5) 1.308(5) -0.614(4)
H3A H 1.119(3) 1.345(3) -0.485(3)
H4A H 0.952(4) 1.235(4) -0.294(3)
H5A H 1.358(4) 0.957(3) -0.454(3)
H6A H 0.709(4) 0.313(3) 0.040(3)
H7A H 0.342(4) 0.852(4) 0.405(4)
H8A H 0.820(4) 0.290(4) 0.450(4)
H9A H 1.061(4) 0.513(4) 0.100(4)
H10A H 1.189(4) 0.844(4) -0.269(3)
H11A H 0.406(4) 0.621(4) -0.208(4)
H12A H 0.373(4) 1.081(4) 0.236(3)
H13A H 0.571(4) 1.111(4) 0.062(4)
H14A H 1.020(5) 0.297(4) 0.289(4)
loop_
_geom_bond_atom_site_label_1
_geom_bond_atom_site_label_2
_geom_bond_site_symmetry_1
_geom_bond_site_symmetry_2
Cd1 O1 1_555 1_555
O1 C20 1_555 1_555
O2 C20 1_555 1_555
O3 C17 1_555 1_555
N1 Cd1 1_555 1_555
N2 Cd1 1_555 1_555
N3 C5 1_555 1_555
N4 H1 1_555 1_555
C1 N2 1_555 1_555
C2 C1 1_555 1_555
C3 C2 1_555 1_555
C4 C3 1_555 1_555
C5 C4 1_555 1_555
C6 N4 1_555 1_555
C7 C6 1_555 1_555
C8 C7 1_555 1_555
C9 C8 1_555 1_555
C10 N1 1_555 1_555
C11 N1 1_555 1_555
C12 N2 1_555 1_555
C13 N3 1_555 1_555
C14 C13 1_555 1_555
C15 C14 1_555 1_555
C16 C15 1_555 1_555
C17 C16 1_555 1_555
C18 C17 1_555 1_555
C19 C14 1_555 1_555
C20 C21 1_555 1_555
C21 C22 1_555 1_555
C22 H6 1_555 1_555
C23 C21 1_555 1_555
H2 O3 1_555 1_555
H3 C18 1_555 1_555
H4 C19 1_555 1_555
H5 C16 1_555 1_555
H7 C10 1_555 1_555
H8 C1 1_555 1_555
H9 C3 1_555 1_555
H10 C15 1_555 1_555
H11 C23 1_555 1_555
H12 C9 1_555 1_555
H13 C8 1_555 1_555
H14 C2 1_555 1_555
Cd1_2 O1A 1_555 1_555
O1A C20A 1_555 1_555
O1A_2 Cd1 1_555 1_555
O2A C20A 1_555 1_555
O3A C17A 1_555 1_555
N1A Cd1 1_555 1_555
N2A Cd1 1_555 1_555
N3A C5A 1_555 1_555
N4A H1A 1_555 1_555
C1A N2A 1_555 1_555
C2A C1A 1_555 1_555
C3A C2A 1_555 1_555
C4A C3A 1_555 1_555
C5A C4A 1_555 1_555
C6A N4A 1_555 1_555
C7A C6A 1_555 1_555
C8A C7A 1_555 1_555
C9A C8A 1_555 1_555
C10A N1A 1_555 1_555
C11A N1A 1_555 1_555
C12A N2A 1_555 1_555
C13A N3A 1_555 1_555
C14A C13A 1_555 1_555
C15A C14A 1_555 1_555
C16A C15A 1_555 1_555
C17A C16A 1_555 1_555
C18A C17A 1_555 1_555
C19A C14A 1_555 1_555
C20A C21A 1_555 1_555
C21A C22A 1_555 1_555
C22A C23 1_555 1_555
C23A C22 1_555 1_555
H2A O3A 1_555 1_555
H3A C18A 1_555 1_555
H4A C19A 1_555 1_555
H5A C16A 1_555 1_555
H6A C22A 1_555 1_555
H7A C10A 1_555 1_555
H8A C1A 1_555 1_555
H9A C3A 1_555 1_555
H10A C15A 1_555 1_555
H11A C23A 1_555 1_555
H12A C9A 1_555 1_555
H13A C8A 1_555 1_555
H14A C2A 1_555 1_555
N4 C13 1_555 1_555
C4 C12 1_555 1_555
C5 C6 1_555 1_555
C7 C11 1_555 1_555
C9 C10 1_555 1_555
C11 C12 1_555 1_555
C18 C19 1_555 1_555
N4A C13A 1_555 1_555
C4A C12A 1_555 1_555
C5A C6A 1_555 1_555
C7A C11A 1_555 1_555
C9A C10A 1_555 1_555
C11A C12A 1_555 1_555
C18A C19A 1_555 1_555
C21A C23A 1_555 1_555

#END
