
#######################################################################
#
#                 Cambridge Crystallographic Data Centre
#                                CCDC 
#
#######################################################################
#
# If this CIF has been generated from an entry in the Cambridge 
# Structural Database, then it will include bibliographic, chemical, 
# crystal, experimental, refinement or atomic coordinate data resulting 
# from the CCDC's data processing and validation procedures.
#
#######################################################################

data_PUPVEB
_symmetry_cell_setting           triclinic
_symmetry_space_group_name_H-M   'P -1'
_symmetry_Int_Tables_number      2
_space_group_name_Hall           '-P 1'
loop_
_symmetry_equiv_pos_site_id
_symmetry_equiv_pos_as_xyz
1 x,y,z
2 -x,-y,-z
_cell_length_a                   6.489(2)
_cell_length_b                   6.514(2)
_cell_length_c                   6.461(2)
_cell_angle_alpha                108.63(2)
_cell_angle_beta                 109.48(2)
_cell_angle_gamma                77.49(2)
_cell_volume                     242.119
loop_
_atom_site_label
_atom_site_type_symbol
_atom_site_fract_x
_atom_site_fract_y
_atom_site_fract_z
Sr1 Sr 0.9769(2) 0.1880(2) 0.3058(2)
C1 C 0.992(2) 0.398(1) -0.108(2)
C2 C 1.531(2) 0.055(2) 0.427(2)
O1 O 0.985(1) 0.219(1) -0.078(1)
O2 O 0.985(1) 0.432(1) -0.290(1)
O3 O 1.381(1) 0.170(2) 0.324(2)
O4 O 1.725(1) 0.018(1) 0.420(1)
O5 O 0.581(2) 0.377(3) 0.169(3)
C1A C 1.008(2) 0.602(1) 0.108(2)
O1A O 1.015(1) 0.781(1) 0.078(1)
O2A O 1.015(1) 0.568(1) 0.290(1)
C2A C 1.469(2) -0.055(2) 0.573(2)
O3A O 1.619(1) -0.170(2) 0.676(2)
O4A O 1.275(1) -0.018(1) 0.580(1)
O1A_2 O 1.015(1) -0.219(1) 0.078(1)
O2_2 O 0.985(1) 0.432(1) 0.710(1)
O4_2 O 0.725(1) 0.018(1) 0.420(1)
Sr1A Sr 1.0231(2) 0.8120(2) -0.3058(2)
Sr1A_2 Sr 1.0231(2) -0.1880(2) -0.3058(2)
Sr1A_3 Sr 1.0231(2) 0.8120(2) 0.6942(2)
Sr1_2 Sr 0.9769(2) 1.1880(2) 0.3058(2)
Sr1A_4 Sr 1.0231(2) -0.1880(2) 0.6942(2)
Sr1_3 Sr 0.9769(2) 0.1880(2) -0.6942(2)
Sr1A_5 Sr 2.0231(2) -0.1880(2) 0.6942(2)
Sr1_4 Sr 1.9769(2) 0.1880(2) 0.3058(2)
O1_2 O 0.985(1) 1.219(1) -0.078(1)
O2A_2 O 1.015(1) 0.568(1) -0.710(1)
O3A_2 O 0.619(1) 0.830(2) -0.324(2)
O4_3 O 0.725(1) 1.018(1) -0.580(1)
O4A_2 O 1.275(1) 0.982(1) -0.420(1)
O5A O 1.419(2) 0.623(3) -0.169(3)
loop_
_geom_bond_atom_site_label_1
_geom_bond_atom_site_label_2
_geom_bond_site_symmetry_1
_geom_bond_site_symmetry_2
Sr1 O1 1_555 1_555
C1 O1 1_555 1_555
C2 O3 1_555 1_555
O1 Sr1A_2 1_555 1_555
O2 C1 1_555 1_555
O3 Sr1 1_555 1_555
O4 C2 1_555 1_555
O5 Sr1 1_555 1_555
C1A C1 1_555 1_555
O1A C1A 1_555 1_555
O2A Sr1 1_555 1_555
C2A C2 1_555 1_555
O3A C2A 1_555 1_555
O4A Sr1 1_555 1_555
O1A_2 Sr1 1_555 1_555
O2_2 Sr1 1_555 1_555
O4_2 Sr1 1_555 1_555
Sr1A O2 1_555 1_555
Sr1A_2 O1A_2 1_555 1_555
Sr1A_3 O2A 1_555 1_555
Sr1_2 O1A 1_555 1_555
Sr1A_4 O4A 1_555 1_555
Sr1_3 O2 1_555 1_555
Sr1A_5 O4 1_555 1_555
Sr1_4 O4 1_555 1_555
O1_2 Sr1A 1_555 1_555
O2A_2 Sr1A 1_555 1_555
O3A_2 Sr1A 1_555 1_555
O4_3 Sr1A 1_555 1_555
O4A_2 Sr1A 1_555 1_555
O5A Sr1A 1_555 1_555
C1A O2A 1_555 1_555
O1A Sr1A 1_555 1_555
C2A O4A 1_555 1_555
O3A Sr1A_5 1_555 1_555
O2_2 Sr1A_3 1_555 1_555
O4_2 Sr1A_4 1_555 1_555
Sr1_2 O1_2 1_555 1_555
Sr1_3 O2A_2 1_555 1_555

#END
