
#######################################################################
#
#                 Cambridge Crystallographic Data Centre
#                                CCDC 
#
#######################################################################
#
# If this CIF has been generated from an entry in the Cambridge 
# Structural Database, then it will include bibliographic, chemical, 
# crystal, experimental, refinement or atomic coordinate data resulting 
# from the CCDC's data processing and validation procedures.
#
#######################################################################

data_PUPXUU
_symmetry_cell_setting           monoclinic
_symmetry_space_group_name_H-M   'C c'
_symmetry_Int_Tables_number      9
_space_group_name_Hall           'C -2yc'
loop_
_symmetry_equiv_pos_site_id
_symmetry_equiv_pos_as_xyz
1 x,y,z
2 x,-y,1/2+z
3 1/2+x,1/2+y,z
4 1/2+x,1/2-y,1/2+z
_cell_length_a                   10.8987(11)
_cell_length_b                   23.385(3)
_cell_length_c                   12.4357(12)
_cell_angle_alpha                90
_cell_angle_beta                 91.741(2)
_cell_angle_gamma                90
_cell_volume                     3167.98
loop_
_atom_site_label
_atom_site_type_symbol
_atom_site_fract_x
_atom_site_fract_y
_atom_site_fract_z
Cd1 Cd 0.91735(4) 0.791234(17) 0.55630(4)
C1 C 1.4528(9) 0.6016(4) 0.5144(8)
H1 H 1.5237 0.5795 0.5181
C2 C 1.3684(8) 0.5964(4) 0.5925(8)
H2 H 1.3836 0.5718 0.6500
C3 C 1.3279(6) 0.6713(3) 0.4246(5)
H3 H 1.3149 0.6972 0.3685
C4 C 1.4345(6) 0.6395(3) 0.4299(6)
H4 H 1.4930 0.6434 0.3775
C5 C 1.2615(6) 0.6271(3) 0.5870(5)
H5 H 1.2035 0.6226 0.6397
C6 C 1.2398(6) 0.6652(3) 0.5024(5)
N1 N 0.9001(5) 0.6947(2) 0.4892(4)
C7 C 0.7967(6) 0.6683(3) 0.4595(6)
H6 H 0.7235 0.6887 0.4625
C8 C 1.0060(6) 0.6084(3) 0.4489(5)
H7 H 1.0796 0.5883 0.4470
C9 C 0.7921(6) 0.6127(3) 0.4248(6)
H8 H 0.7173 0.5962 0.4046
C10 C 0.8971(6) 0.5818(3) 0.4200(5)
H9 H 0.8956 0.5438 0.3979
C11 C 1.0053(6) 0.6649(3) 0.4805(5)
C12 C 1.1231(6) 0.6983(3) 0.4972(5)
N2 N 1.1141(5) 0.7529(3) 0.5018(5)
C13 C 1.1922(6) 0.8392(3) 0.5852(6)
H10 H 1.1899 0.8258 0.6589
H11 H 1.2553 0.8684 0.5813
C14 C 1.2224(6) 0.7902(3) 0.5120(6)
H12 H 1.2439 0.8045 0.4418
H13 H 1.2918 0.7688 0.5418
N3 N 1.0714(5) 0.8640(2) 0.5524(5)
H14 H 1.0764 0.8760 0.4831
C15 C 1.0378(7) 0.9134(3) 0.6172(6)
H15 H 1.0915 0.9454 0.6027
H16 H 1.0457 0.9042 0.6932
C16 C 0.9050(8) 0.9289(3) 0.5874(7)
H17 H 0.8789 0.9612 0.6298
H18 H 0.8976 0.9391 0.5119
N4 N 0.8283(6) 0.8784(2) 0.6094(5)
C17 C 0.7201(7) 0.8822(3) 0.6472(6)
N5 N 0.7176(6) 0.7783(3) 0.6459(5)
C18 C 0.6536(6) 0.8264(3) 0.6649(5)
C19 C 0.5485(7) 0.7236(3) 0.7126(6)
H19 H 0.5152 0.6881 0.7285
C20 C 0.5367(6) 0.8254(3) 0.7048(5)
H20 H 0.4945 0.8593 0.7167
C21 C 0.6679(7) 0.7287(3) 0.6727(6)
H21 H 0.7141 0.6956 0.6648
N6 N 1.0926(6) 0.6827(3) 0.8355(6)
C22 C 1.0423(7) 0.7232(3) 0.7769(6)
N7 N 0.9905(6) 0.7565(3) 0.7265(5)
C23 C 0.4833(7) 0.7732(3) 0.7269(6)
H22 H 0.4036 0.7717 0.7514
N8 N 1.3098(6) 0.6853(3) 0.8935(5)
C24 C 1.2092(8) 0.6864(3) 0.8659(6)
C25 C 0.6590(8) 0.9366(3) 0.6803(7)
C26 C 0.5569(8) 0.9570(4) 0.6248(8)
H23 H 0.5247 0.9379 0.5646
C27 C 0.7126(10) 0.9664(4) 0.7701(9)
H24 H 0.7838 0.9530 0.8047
C28 C 0.5527(13) 1.0358(4) 0.7508(12)
H25 H 0.5155 1.0690 0.7749
C29 C 0.6555(11) 1.0160(4) 0.8043(9)
H26 H 0.6873 1.0358 0.8638
C30 C 0.5026(10) 1.0080(4) 0.6625(10)
H27 H 0.4330 1.0228 0.6274
Cd1C Cd 1.41735(4) 0.708766(17) 1.05630(4)
N8C N 0.8098(6) 0.8147(3) 0.3935(5)
P1 P 0.1656(2) 0.95244(10) 0.29781(18)
F1 F 0.0872(6) 0.8969(2) 0.3245(4)
F2 F 0.1375(8) 0.9773(3) 0.4098(6)
F3 F 0.2780(6) 0.9255(3) 0.3525(8)
F4 F 0.0491(6) 0.9802(3) 0.2471(8)
F5 F 0.2430(5) 1.0069(2) 0.2684(4)
F6 F 0.1912(11) 0.9271(3) 0.1873(6)
loop_
_geom_bond_atom_site_label_1
_geom_bond_atom_site_label_2
_geom_bond_site_symmetry_1
_geom_bond_site_symmetry_2
Cd1 N1 1_555 1_555
C1 H1 1_555 1_555
C2 C1 1_555 1_555
H2 C2 1_555 1_555
C3 H3 1_555 1_555
C4 C1 1_555 1_555
H4 C4 1_555 1_555
C5 C2 1_555 1_555
H5 C5 1_555 1_555
C6 C3 1_555 1_555
N1 C7 1_555 1_555
C7 H6 1_555 1_555
C8 H7 1_555 1_555
C9 C7 1_555 1_555
H8 C9 1_555 1_555
C10 C8 1_555 1_555
H9 C10 1_555 1_555
C11 N1 1_555 1_555
C12 C6 1_555 1_555
N2 Cd1 1_555 1_555
C13 H10 1_555 1_555
H11 C13 1_555 1_555
C14 N2 1_555 1_555
H12 C14 1_555 1_555
H13 C14 1_555 1_555
N3 Cd1 1_555 1_555
H14 N3 1_555 1_555
C15 N3 1_555 1_555
H15 C15 1_555 1_555
H16 C15 1_555 1_555
C16 C15 1_555 1_555
H17 C16 1_555 1_555
H18 C16 1_555 1_555
N4 Cd1 1_555 1_555
C17 N4 1_555 1_555
N5 Cd1 1_555 1_555
C18 C17 1_555 1_555
C19 H19 1_555 1_555
C20 C18 1_555 1_555
H20 C20 1_555 1_555
C21 N5 1_555 1_555
H21 C21 1_555 1_555
N6 C22 1_555 1_555
C22 N7 1_555 1_555
N7 Cd1 1_555 1_555
C23 C19 1_555 1_555
H22 C23 1_555 1_555
N8 C24 1_555 1_555
C24 N6 1_555 1_555
P1 F1 1_555 1_555
F2 P1 1_555 1_555
F3 P1 1_555 1_555
F4 P1 1_555 1_555
F5 P1 1_555 1_555
F6 P1 1_555 1_555
C25 C17 1_555 1_555
C26 C25 1_555 1_555
H23 C26 1_555 1_555
C27 C25 1_555 1_555
H24 C27 1_555 1_555
C28 H25 1_555 1_555
C29 C27 1_555 1_555
H26 C29 1_555 1_555
C30 C26 1_555 1_555
H27 C30 1_555 1_555
Cd1C N8 1_555 1_555
N8C Cd1 1_555 1_555
C3 C4 1_555 1_555
C5 C6 1_555 1_555
C8 C11 1_555 1_555
C9 C10 1_555 1_555
C11 C12 1_555 1_555
C12 N2 1_555 1_555
C13 C14 1_555 1_555
C13 N3 1_555 1_555
C16 N4 1_555 1_555
N5 C18 1_555 1_555
C19 C21 1_555 1_555
C20 C23 1_555 1_555
C28 C29 1_555 1_555
C28 C30 1_555 1_555

#END
