
#######################################################################
#
#                 Cambridge Crystallographic Data Centre
#                                CCDC 
#
#######################################################################
#
# If this CIF has been generated from an entry in the Cambridge 
# Structural Database, then it will include bibliographic, chemical, 
# crystal, experimental, refinement or atomic coordinate data resulting 
# from the CCDC's data processing and validation procedures.
#
#######################################################################

data_PUPXEE
_symmetry_cell_setting           orthorhombic
_symmetry_space_group_name_H-M   'P 21 21 21'
_symmetry_Int_Tables_number      19
_space_group_name_Hall           'P 2ac 2ab'
loop_
_symmetry_equiv_pos_site_id
_symmetry_equiv_pos_as_xyz
1 x,y,z
2 1/2-x,-y,1/2+z
3 -x,1/2+y,1/2-z
4 1/2+x,1/2-y,-z
_cell_length_a                   10.991(2)
_cell_length_b                   11.328(2)
_cell_length_c                   11.500(2)
_cell_angle_alpha                90
_cell_angle_beta                 90
_cell_angle_gamma                90
_cell_volume                     1431.82
loop_
_atom_site_label
_atom_site_type_symbol
_atom_site_fract_x
_atom_site_fract_y
_atom_site_fract_z
Zn1 Zn 0.20402(6) -0.15477(5) 1.07373(6)
Zn2 Zn 0.00780(5) 0.25488(5) 0.87107(5)
C1 C 0.1133(4) 0.0248(4) 0.9198(5)
C2 C 0.1978(5) 0.1126(4) 0.9746(4)
C3 C 0.3078(5) 0.1109(4) 1.0335(4)
C4 C 0.3966(4) 0.0198(4) 1.0760(5)
C5 C 0.2527(5) 0.2947(4) 1.0093(5)
C6 C 0.2465(4) 0.4254(5) 1.0230(5)
C7 C 0.1698(8) 0.4724(5) 1.1015(7)
H1 H 0.1238 0.4227 1.1486
C8 C 0.1579(8) 0.5945(5) 1.1136(7)
H2 H 0.1046 0.6248 1.1689
C9 C 0.2945(9) 0.6236(5) 0.9695(7)
H3 H 0.3384 0.6743 0.9218
C10 C 0.3097(8) 0.5028(6) 0.9546(7)
H4 H 0.3629 0.4746 0.8981
Cl1 Cl 0.0942(2) -0.11658(19) 1.22907(17)
N1 N 0.1641(4) 0.2296(3) 0.9606(4)
N2 N 0.3426(4) 0.2275(3) 1.0541(4)
N3 N 0.2225(4) 0.6692(4) 1.0464(4)
O1 O 0.1306(4) -0.0864(3) 0.9326(4)
O2 O 0.0255(3) 0.0658(3) 0.8633(3)
O3 O 0.3712(3) -0.0905(3) 1.0708(4)
O4 O 0.4960(3) 0.0561(3) 1.1149(3)
O5 O 0.0097(4) 0.2611(3) 0.6983(3)
H5 H 0.0165 0.1941 0.6569
H6 H 0.0038 0.3310 0.6616
Zn1_2 Zn 0.20402(6) 0.84523(5) 1.07373(6)
Zn2C Zn 0.50780(5) 0.24512(5) 1.12893(5)
N2C N -0.1574(4) 0.2725(3) 0.9459(4)
N3_2 N 0.2225(4) -0.3308(4) 1.0464(4)
O4C O -0.0040(3) 0.4439(3) 0.8851(3)
loop_
_geom_bond_atom_site_label_1
_geom_bond_atom_site_label_2
_geom_bond_site_symmetry_1
_geom_bond_site_symmetry_2
Zn1 Cl1 1_555 1_555
Zn2 N1 1_555 1_555
C1 C2 1_555 1_555
C2 C3 1_555 1_555
C3 C4 1_555 1_555
C4 O3 1_555 1_555
C5 C6 1_555 1_555
C6 C7 1_555 1_555
C7 H1 1_555 1_555
C8 C7 1_555 1_555
H2 C8 1_555 1_555
C9 H3 1_555 1_555
C10 C6 1_555 1_555
H4 C10 1_555 1_555
N1 C2 1_555 1_555
N2 C3 1_555 1_555
N3 C8 1_555 1_555
O1 Zn1 1_555 1_555
O2 Zn2 1_555 1_555
O3 Zn1 1_555 1_555
O4 C4 1_555 1_555
O5 Zn2 1_555 1_555
H5 O5 1_555 1_555
H6 O5 1_555 1_555
Zn1_2 N3 1_555 1_555
Zn2C N2 1_555 1_555
N2C Zn2 1_555 1_555
N3_2 Zn1 1_555 1_555
O4C Zn2 1_555 1_555
C1 O1 1_555 1_555
C1 O2 1_555 1_555
C5 N1 1_555 1_555
C5 N2 1_555 1_555
C9 C10 1_555 1_555
C9 N3 1_555 1_555
O4 Zn2C 1_555 1_555

#END
