
#######################################################################
#
#                 Cambridge Crystallographic Data Centre
#                                CCDC 
#
#######################################################################
#
# If this CIF has been generated from an entry in the Cambridge 
# Structural Database, then it will include bibliographic, chemical, 
# crystal, experimental, refinement or atomic coordinate data resulting 
# from the CCDC's data processing and validation procedures.
#
#######################################################################

data_PUPXOO
_symmetry_cell_setting           monoclinic
_symmetry_space_group_name_H-M   'C c'
_symmetry_Int_Tables_number      9
_space_group_name_Hall           'C -2yc'
loop_
_symmetry_equiv_pos_site_id
_symmetry_equiv_pos_as_xyz
1 x,y,z
2 x,-y,1/2+z
3 1/2+x,1/2+y,z
4 1/2+x,1/2-y,1/2+z
_cell_length_a                   10.7523(3)
_cell_length_b                   22.9551(7)
_cell_length_c                   12.2789(3)
_cell_angle_alpha                90
_cell_angle_beta                 93.4070(10)
_cell_angle_gamma                90
_cell_volume                     3025.32
loop_
_atom_site_label
_atom_site_type_symbol
_atom_site_fract_x
_atom_site_fract_y
_atom_site_fract_z
Cd1 Cd 0.448673(16) 0.792818(6) 0.680463(16)
C1 C 0.5796(3) 0.61220(13) 0.8205(3)
H1 H 0.6555 0.5960 0.8448
C2 C 0.3597(2) 0.60707(12) 0.7876(2)
H2 H 0.2851 0.5866 0.7874
C3 C 0.5735(2) 0.66907(12) 0.7824(3)
H3 H 0.6471 0.6902 0.7804
C4 C -0.0729(3) 0.63777(14) 0.7998(3)
H4 H -0.1292 0.6409 0.8541
C5 C 0.0365(2) 0.67051(13) 0.8075(2)
H5 H 0.0519 0.6962 0.8652
C6 C 0.0967(2) 0.62607(12) 0.6406(2)
H6 H 0.1539 0.6216 0.5873
C7 C -0.0988(3) 0.60119(17) 0.7134(4)
H7 H -0.1733 0.5805 0.7084
C8 C 0.1222(2) 0.66422(11) 0.7279(2)
C9 C -0.0146(3) 0.59492(16) 0.6336(3)
H8 H -0.0321 0.5699 0.5752
N1 N 0.4672(2) 0.69465(10) 0.7487(2)
C10 C 0.4709(3) 0.58002(12) 0.8216(3)
H9 H 0.4722 0.5414 0.8445
C11 C 0.3604(2) 0.66433(11) 0.7544(2)
C12 C 0.2415(2) 0.69778(11) 0.7338(2)
N2 N 0.25046(19) 0.75279(10) 0.7285(2)
C13 C 0.1427(3) 0.79189(12) 0.7169(3)
H10 H 0.1213 0.8055 0.7882
H11 H 0.0715 0.7711 0.6839
C14 C 0.1741(3) 0.84380(13) 0.6454(3)
H12 H 0.1770 0.8314 0.5700
H13 H 0.1104 0.8735 0.6491
N3 N 0.2955(2) 0.86761(10) 0.6841(2)
H14 H 0.2898 0.8786 0.7549
N4 N 0.5441(2) 0.88091(10) 0.6292(2)
C15 C 0.7144(2) 0.82537(12) 0.5739(2)
C16 C 0.6522(3) 0.88250(12) 0.5939(2)
N5 N 0.6474(2) 0.77721(11) 0.5937(2)
N6 N 0.5511(3) 0.81990(13) 0.8493(2)
N7 N 0.7768(3) 0.81995(15) 0.8993(3)
C17 C 0.6566(3) 0.81740(13) 0.8740(3)
C18 C 0.3336(3) 0.91886(13) 0.6231(3)
H15 H 0.2818 0.9519 0.6398
H16 H 0.3231 0.9113 0.5454
C19 C 0.8295(3) 0.82157(13) 0.5302(2)
H17 H 0.8749 0.8552 0.5183
C20 C 0.7186(3) 0.93725(12) 0.5633(3)
C21 C 0.6927(3) 0.72561(13) 0.5647(3)
H18 H 0.6451 0.6925 0.5752
C22 C 0.8068(3) 0.71903(13) 0.5197(3)
H19 H 0.8351 0.6824 0.5006
C23 C 0.8772(3) 0.76790(15) 0.5041(3)
H20 H 0.9556 0.7649 0.4764
C24 C 0.7345(4) 1.01914(16) 0.4433(4)
H21 H 0.7027 1.0409 0.3842
C25 C 0.8298(3) 0.95364(15) 0.6194(3)
H22 H 0.8613 0.9321 0.6789
C26 C 0.8930(4) 1.00281(18) 0.5851(4)
H23 H 0.9681 1.0137 0.6210
C27 C 0.8438(5) 1.03564(16) 0.4974(5)
H24 H 0.8853 1.0688 0.4755
N8 N 0.8758(3) 0.73961(15) 1.0039(2)
C28 C 0.8239(3) 0.77675(13) 0.9544(2)
C29 C 0.6706(3) 0.97009(13) 0.4759(3)
H25 H 0.5959 0.9594 0.4393
C30 C 0.4695(3) 0.93262(13) 0.6543(3)
H26 H 0.4964 0.9660 0.6133
H27 H 0.4800 0.9417 0.7315
Cd1C Cd 0.948673(16) 0.707182(6) 1.180463(16)
N8C N 0.3758(3) 0.76039(15) 0.5039(2)
Cl1 Cl 0.69203(10) 0.55386(4) 0.42629(8)
O1 O 0.8077(3) 0.5784(2) 0.4052(3)
O2 O 0.6037(4) 0.5628(2) 0.3364(4)
O3 O 0.6569(5) 0.5765(3) 0.5277(5)
O4 O 0.6876(7) 0.4974(2) 0.4482(6)
loop_
_geom_bond_atom_site_label_1
_geom_bond_atom_site_label_2
_geom_bond_site_symmetry_1
_geom_bond_site_symmetry_2
Cd1 N1 1_555 1_555
Cl1 O1 1_555 1_555
C1 H1 1_555 1_555
C2 H2 1_555 1_555
C3 C1 1_555 1_555
H3 C3 1_555 1_555
C4 H4 1_555 1_555
C5 C4 1_555 1_555
H5 C5 1_555 1_555
C6 H6 1_555 1_555
C7 C4 1_555 1_555
H7 C7 1_555 1_555
C8 C5 1_555 1_555
C9 C6 1_555 1_555
H8 C9 1_555 1_555
N1 C3 1_555 1_555
C10 C1 1_555 1_555
H9 C10 1_555 1_555
C11 C2 1_555 1_555
C12 C8 1_555 1_555
N2 Cd1 1_555 1_555
C13 N2 1_555 1_555
H10 C13 1_555 1_555
H11 C13 1_555 1_555
C14 C13 1_555 1_555
H12 C14 1_555 1_555
H13 C14 1_555 1_555
N3 Cd1 1_555 1_555
H14 N3 1_555 1_555
N4 Cd1 1_555 1_555
C15 C16 1_555 1_555
C16 N4 1_555 1_555
N5 Cd1 1_555 1_555
N6 Cd1 1_555 1_555
N7 C17 1_555 1_555
C17 N6 1_555 1_555
C18 N3 1_555 1_555
H15 C18 1_555 1_555
H16 C18 1_555 1_555
C19 C15 1_555 1_555
H17 C19 1_555 1_555
C20 C16 1_555 1_555
C21 N5 1_555 1_555
H18 C21 1_555 1_555
C22 C21 1_555 1_555
H19 C22 1_555 1_555
C23 C19 1_555 1_555
H20 C23 1_555 1_555
C24 H21 1_555 1_555
C25 C20 1_555 1_555
H22 C25 1_555 1_555
C26 C25 1_555 1_555
H23 C26 1_555 1_555
C27 C24 1_555 1_555
H24 C27 1_555 1_555
N8 C28 1_555 1_555
C28 N7 1_555 1_555
O2 Cl1 1_555 1_555
O3 Cl1 1_555 1_555
C29 C20 1_555 1_555
H25 C29 1_555 1_555
O4 Cl1 1_555 1_555
C30 N4 1_555 1_555
H26 C30 1_555 1_555
H27 C30 1_555 1_555
Cd1C N8 1_555 1_555
N8C Cd1 1_555 1_555
C2 C10 1_555 1_555
C6 C8 1_555 1_555
C7 C9 1_555 1_555
N1 C11 1_555 1_555
C11 C12 1_555 1_555
C12 N2 1_555 1_555
C14 N3 1_555 1_555
C15 N5 1_555 1_555
C18 C30 1_555 1_555
C22 C23 1_555 1_555
C24 C29 1_555 1_555
C26 C27 1_555 1_555

#END
