
#######################################################################
#
#                 Cambridge Crystallographic Data Centre
#                                CCDC 
#
#######################################################################
#
# If this CIF has been generated from an entry in the Cambridge 
# Structural Database, then it will include bibliographic, chemical, 
# crystal, experimental, refinement or atomic coordinate data resulting 
# from the CCDC's data processing and validation procedures.
#
#######################################################################

data_PUQBIN
_symmetry_cell_setting           monoclinic
_symmetry_space_group_name_H-M   'P 2/c'
_symmetry_Int_Tables_number      13
_space_group_name_Hall           '-P 2yc'
loop_
_symmetry_equiv_pos_site_id
_symmetry_equiv_pos_as_xyz
1 x,y,z
2 -x,y,1/2-z
3 -x,-y,-z
4 x,-y,1/2+z
_cell_length_a                   15.5273(2)
_cell_length_b                   9.44080(10)
_cell_length_c                   17.3990(2)
_cell_angle_alpha                90
_cell_angle_beta                 111.9880(10)
_cell_angle_gamma                90
_cell_volume                     2365
loop_
_atom_site_label
_atom_site_type_symbol
_atom_site_fract_x
_atom_site_fract_y
_atom_site_fract_z
C1 C 0.45059(15) 0.2359(3) 1.09683(12)
H1 H 0.4295 0.2314 1.1403
C2 C 0.52790(15) 0.1588(3) 1.10236(14)
H2 H 0.5592 0.1054 1.1495
C3 C 0.55868(14) 0.1612(2) 1.03753(13)
C4 C 0.64489(18) 0.0777(3) 1.04178(17)
C5 C 0.51092(13) 0.2433(2) 0.96971(12)
H3 H 0.5299 0.2467 0.9250
C6 C 0.43488(12) 0.3205(2) 0.96785(11)
C7 C 0.38190(12) 0.4166(2) 0.89969(11)
C8 C 0.39296(13) 0.4214(2) 0.82425(11)
H4 H 0.4348 0.3612 0.8139
C9 C 0.34113(12) 0.5168(2) 0.76455(10)
C10 C 0.34537(13) 0.5127(3) 0.67893(11)
C11 C 0.28321(13) 0.6091(3) 0.78339(11)
H5 H 0.2512 0.6790 0.7459
C12 C 0.27345(14) 0.5962(2) 0.85886(11)
H6 H 0.2328 0.6567 0.8707
C13 C 0.16205(17) 0.1748(3) 0.91944(14)
H7 H 0.2148 0.1179 0.9351
C14 C 0.07625(19) 0.1156(3) 0.87054(16)
H8 H 0.0728 0.0215 0.8540
C15 C -0.00173(17) 0.1959(3) 0.84739(14)
H9 H -0.0591 0.1570 0.8156
C16 C 0.00496(14) 0.3381(3) 0.87191(12)
C17 C 0.09404(13) 0.3902(2) 0.92106(11)
C18 C 0.10420(13) 0.5330(2) 0.94957(11)
C19 C -0.07314(16) 0.4301(3) 0.85187(16)
H10 H -0.1318 0.3967 0.8191
C20 C -0.06358(17) 0.5648(3) 0.87948(17)
H11 H -0.1159 0.6220 0.8664
C21 C 0.02576(15) 0.6214(3) 0.92863(14)
C22 C 0.03980(19) 0.7605(3) 0.95930(17)
H12 H -0.0102 0.8223 0.9465
C23 C 0.1264(2) 0.8047(3) 1.00761(17)
H13 H 0.1360 0.8965 1.0285
C24 C 0.20050(16) 0.7112(3) 1.02551(13)
H14 H 0.2596 0.7425 1.0587
Cu1 Cu 0.294623(14) 0.43825(3) 1.016586(12)
N1 N 0.40467(10) 0.31696(19) 1.03124(9)
N2 N 0.32011(10) 0.50038(19) 0.91532(9)
N3 N 0.17105(11) 0.3084(2) 0.94418(10)
N4 N 0.19048(11) 0.57921(19) 0.99717(10)
O1 O 0.7090(6) 0.0621(9) 1.1147(7)
O2 O 0.65597(13) 0.05883(19) 0.97615(13)
O3 O 0.39163(11) 0.4209(2) 0.66232(9)
O4 O 0.29585(10) 0.60548(18) 0.62809(8)
Cu1C Cu 0.294623(14) 0.56175(3) 0.516586(12)
O3C O 0.39163(11) 0.5791(2) 1.16232(9)
O4C O 0.29585(10) 0.39452(18) 1.12809(8)
O5 O 0.1787(4) -0.1175(5) 0.6291(3)
O6 O 0.5740(11) 0.118(2) 0.8005(5)
O7 O 0.2499(4) 0.1139(7) 0.7426(3)
O8? O 0.6804(6) 0.0071(10) 1.1047(7)
O9? O 0.2452(10) -0.0931(11) 0.6111(6)
O10? O 0.6125(14) 0.044(2) 0.8122(7)
O11? O 0.1899(17) -0.018(4) 0.7290(8)
loop_
_geom_bond_atom_site_label_1
_geom_bond_atom_site_label_2
_geom_bond_site_symmetry_1
_geom_bond_site_symmetry_2
C1 H1 1_555 1_555
C2 C1 1_555 1_555
H2 C2 1_555 1_555
C3 C2 1_555 1_555
C4 C3 1_555 1_555
C5 C3 1_555 1_555
H3 C5 1_555 1_555
C6 C5 1_555 1_555
C7 C6 1_555 1_555
C8 C7 1_555 1_555
H4 C8 1_555 1_555
C9 C8 1_555 1_555
C10 C9 1_555 1_555
C11 C9 1_555 1_555
H5 C11 1_555 1_555
C12 C11 1_555 1_555
H6 C12 1_555 1_555
C13 H7 1_555 1_555
C14 C13 1_555 1_555
H8 C14 1_555 1_555
C15 C14 1_555 1_555
H9 C15 1_555 1_555
C16 C15 1_555 1_555
C17 C16 1_555 1_555
C18 C17 1_555 1_555
C19 C16 1_555 1_555
H10 C19 1_555 1_555
C20 C19 1_555 1_555
H11 C20 1_555 1_555
C21 C18 1_555 1_555
C22 C21 1_555 1_555
H12 C22 1_555 1_555
C23 C22 1_555 1_555
H13 C23 1_555 1_555
C24 C23 1_555 1_555
H14 C24 1_555 1_555
Cu1 N1 1_555 1_555
N1 C1 1_555 1_555
N2 C7 1_555 1_555
N3 C13 1_555 1_555
N4 C18 1_555 1_555
O1 C4 1_555 1_555
O2 C4 1_555 1_555
O3 C10 1_555 1_555
O4 C10 1_555 1_555
Cu1C O3 1_555 1_555
O3C Cu1 1_555 1_555
O4C Cu1 1_555 1_555
C6 N1 1_555 1_555
C12 N2 1_555 1_555
C17 N3 1_555 1_555
C20 C21 1_555 1_555
C24 N4 1_555 1_555
Cu1 N2 1_555 1_555
Cu1 N3 1_555 1_555
Cu1 N4 1_555 1_555
O4 Cu1C 1_555 1_555

#END
