
#######################################################################
#
#                 Cambridge Crystallographic Data Centre
#                                CCDC 
#
#######################################################################
#
# If this CIF has been generated from an entry in the Cambridge 
# Structural Database, then it will include bibliographic, chemical, 
# crystal, experimental, refinement or atomic coordinate data resulting 
# from the CCDC's data processing and validation procedures.
#
#######################################################################

data_PUQBOT
_symmetry_cell_setting           monoclinic
_symmetry_space_group_name_H-M   'P 21/c'
_symmetry_Int_Tables_number      14
_space_group_name_Hall           '-P 2ybc'
loop_
_symmetry_equiv_pos_site_id
_symmetry_equiv_pos_as_xyz
1 x,y,z
2 -x,1/2+y,1/2-z
3 -x,-y,-z
4 x,1/2-y,1/2+z
_cell_length_a                   9.39060(10)
_cell_length_b                   23.3411(3)
_cell_length_c                   7.66540(10)
_cell_angle_alpha                90
_cell_angle_beta                 98.7890(10)
_cell_angle_gamma                90
_cell_volume                     1660.43
loop_
_atom_site_label
_atom_site_type_symbol
_atom_site_fract_x
_atom_site_fract_y
_atom_site_fract_z
C1 C 0.9636(4) 0.75480(17) 0.4326(6)
H1 H 0.8991 0.7824 0.4598
C2 C 0.9280(4) 0.69756(16) 0.4474(5)
H2 H 0.8422 0.6873 0.4856
C3 C 1.0217(4) 0.65588(15) 0.4046(5)
C4 C 0.9872(4) 0.59307(15) 0.4268(5)
C5 C 1.1473(4) 0.67339(15) 0.3466(5)
H3 H 1.2109 0.6464 0.3133
C6 C 1.3153(4) 0.75255(15) 0.2867(5)
C7 C 1.3325(4) 0.80916(15) 0.2360(5)
H4 H 1.2557 0.8346 0.2296
C8 C 1.4633(4) 0.82761(16) 0.1951(5)
C9 C 1.4789(4) 0.88761(15) 0.1289(5)
C10 C 1.5745(4) 0.78855(17) 0.2091(5)
H5 H 1.6658 0.7996 0.1894
C11 C 1.5474(4) 0.73231(17) 0.2531(6)
H6 H 1.6222 0.7059 0.2578
C12 C 0.4531(4) 0.55349(15) 0.2028(5)
C13 C 0.5396(5) 0.5841(2) 0.0833(7)
H7 H 0.5434 0.5613 -0.0201
H8 H 0.4954 0.6203 0.0493
H9 H 0.6356 0.5903 0.1439
C14 C 1.1778(4) 0.73180(15) 0.3385(5)
N1 N 1.0869(3) 0.77213(13) 0.3808(4)
N2 N 1.4206(4) 0.71382(14) 0.2889(5)
Nd1 Nd 0.719903(18) 0.504606(7) 0.55659(2)
O1 O 0.8802(3) 0.58217(11) 0.4975(4)
O2 O 1.0674(3) 0.55672(10) 0.3706(4)
O3 O 1.3640(3) 0.91437(10) 0.0788(3)
O4 O 1.6042(3) 0.90611(11) 0.1286(4)
O5 O 0.3185(3) 0.55646(12) 0.1773(3)
O6 O 0.5170(3) 0.52349(11) 0.3269(3)
O7 O 0.8211(3) 0.48933(12) 0.2651(4)
O8 O 0.8575(3) 0.53888(13) 0.8537(4)
H10 H 0.820(5) 0.4530(12) 0.214(6)
H11 H 0.916(3) 0.5033(18) 0.276(7)
H13 H 0.936(4) 0.5632(19) 0.876(6)
H15 H 0.839(5) 0.522(2) 0.958(4)
Nd1B Nd 1.280097(18) 0.495394(7) 0.44341(2)
Nd1A Nd 1.280097(18) 1.004606(7) -0.05659(2)
Nd1C Nd 1.719903(18) 0.995394(7) 0.05659(2)
Nd1B_2 Nd 0.280097(18) 0.495394(7) 0.44341(2)
O2B O 0.9326(3) 0.44328(10) 0.6294(4)
O3A O 0.6360(3) 0.41437(10) 0.4212(3)
O4C O 0.6042(3) 0.59389(11) 0.6286(4)
O5B O 0.6815(3) 0.44354(12) 0.8227(3)
O6B O 0.4830(3) 0.47651(11) 0.6731(3)
O9 O 0.1001(3) 0.60677(12) 0.9292(4)
H12 H 0.093(5) 0.6468(8) 0.927(6)
H14 H 0.177(4) 0.5964(18) 1.019(5)
loop_
_geom_bond_atom_site_label_1
_geom_bond_atom_site_label_2
_geom_bond_site_symmetry_1
_geom_bond_site_symmetry_2
C1 H1 1_555 1_555
C2 C1 1_555 1_555
H2 C2 1_555 1_555
C3 C2 1_555 1_555
C4 C3 1_555 1_555
C5 C3 1_555 1_555
H3 C5 1_555 1_555
C6 C7 1_555 1_555
C7 H4 1_555 1_555
C8 C7 1_555 1_555
C9 C8 1_555 1_555
C10 C8 1_555 1_555
H5 C10 1_555 1_555
C11 C10 1_555 1_555
H6 C11 1_555 1_555
C12 C13 1_555 1_555
C13 H7 1_555 1_555
H8 C13 1_555 1_555
H9 C13 1_555 1_555
C14 C5 1_555 1_555
N1 C1 1_555 1_555
N2 C6 1_555 1_555
Nd1 O1 1_555 1_555
O1 C4 1_555 1_555
O2 C4 1_555 1_555
O3 C9 1_555 1_555
O4 C9 1_555 1_555
O5 C12 1_555 1_555
O6 C12 1_555 1_555
O7 Nd1 1_555 1_555
O8 Nd1 1_555 1_555
O9 H12 1_555 1_555
H10 O7 1_555 1_555
H11 O7 1_555 1_555
H13 O8 1_555 1_555
H14 O9 1_555 1_555
H15 O8 1_555 1_555
Nd1B O2 1_555 1_555
Nd1A O3 1_555 1_555
Nd1C O4 1_555 1_555
Nd1B_2 O5 1_555 1_555
O2B Nd1 1_555 1_555
O3A Nd1 1_555 1_555
O4C Nd1 1_555 1_555
O5B Nd1 1_555 1_555
O6B Nd1 1_555 1_555
C6 C14 1_555 1_555
C11 N2 1_555 1_555
C14 N1 1_555 1_555
Nd1 O6 1_555 1_555
O6 Nd1B_2 1_555 1_555
Nd1B_2 O6B 1_555 1_555

#END
