
#######################################################################
#
#                 Cambridge Crystallographic Data Centre
#                                CCDC 
#
#######################################################################
#
# If this CIF has been generated from an entry in the Cambridge 
# Structural Database, then it will include bibliographic, chemical, 
# crystal, experimental, refinement or atomic coordinate data resulting 
# from the CCDC's data processing and validation procedures.
#
#######################################################################

data_PUQDIQ
_symmetry_cell_setting           monoclinic
_symmetry_space_group_name_H-M   'P 21/c'
_symmetry_Int_Tables_number      14
_space_group_name_Hall           '-P 2ybc'
loop_
_symmetry_equiv_pos_site_id
_symmetry_equiv_pos_as_xyz
1 x,y,z
2 -x,1/2+y,1/2-z
3 -x,-y,-z
4 x,1/2-y,1/2+z
_cell_length_a                   11.5741(10)
_cell_length_b                   14.1549(12)
_cell_length_c                   10.9185(9)
_cell_angle_alpha                90
_cell_angle_beta                 102.2340(10)
_cell_angle_gamma                90
_cell_volume                     1748.16
loop_
_atom_site_label
_atom_site_type_symbol
_atom_site_fract_x
_atom_site_fract_y
_atom_site_fract_z
Sb1 Sb 0.21220(4) 0.07725(3) 0.34828(3)
F1 F 0.3150(5) 0.1731(3) 0.3262(5)
F2 F 0.1140(4) -0.0198(4) 0.3723(5)
F3 F 0.1379(5) 0.1569(3) 0.4425(4)
F4 F 0.3170(4) 0.0386(3) 0.4928(3)
F5 F 0.1106(4) 0.1143(4) 0.2030(4)
F6 F 0.2875(4) -0.0026(3) 0.2554(3)
Ag1 Ag 0.73351(4) 0.13954(5) 0.95149(6)
S1 S 0.24533(11) 0.10657(12) 0.98609(13)
C1 C 0.3231(4) 0.1049(4) 0.8699(5)
C2 C 0.2532(5) 0.1094(4) 0.7539(5)
H1 H 0.2815 0.1096 0.6803
C3 C 0.1333(5) 0.1136(5) 0.7576(5)
H2 H 0.0725 0.1170 0.6868
C4 C 0.1161(4) 0.1123(4) 0.8763(5)
C5 C 0.0048(5) 0.1175(4) 0.9123(5)
N1 N -0.0855(4) 0.1226(4) 0.9354(5)
C6 C 0.4488(4) 0.1030(4) 0.8991(5)
N2 N 0.5486(4) 0.1025(4) 0.9218(4)
Ag1_2 Ag -0.26649(4) 0.13954(5) 0.95149(6)
N1_2 N 0.9145(4) 0.1226(4) 0.9354(5)
C7 C 0.7369(8) 0.2324(5) 0.6432(8)
H3 H 0.7530 0.1861 0.5888
C8 C 0.6288(9) 0.2364(7) 0.6596(9)
C9 C 0.6000(17) 0.3095(9) 0.7439(11)
H4 H 0.5240 0.3175 0.7575
C10 C 0.689(2) 0.3633(9) 0.7990(13)
H5 H 0.6761 0.4112 0.8527
C11 C 0.804(2) 0.3499(11) 0.7783(12)
H6 H 0.8634 0.3867 0.8262
C12 C 0.8358(10) 0.2931(11) 0.7015(14)
H7 H 0.9112 0.2905 0.6847
C13 C 0.5311(10) 0.1883(10) 0.6065(10)
H8 H 0.5510 0.1408 0.5518
H9 H 0.4742 0.2309 0.5592
H10 H 0.4983 0.1588 0.6706
loop_
_geom_bond_atom_site_label_1
_geom_bond_atom_site_label_2
_geom_bond_site_symmetry_1
_geom_bond_site_symmetry_2
Sb1 F1 1_555 1_555
F2 Sb1 1_555 1_555
F3 Sb1 1_555 1_555
F4 Sb1 1_555 1_555
F5 Sb1 1_555 1_555
F6 Sb1 1_555 1_555
Ag1 N2 1_555 1_555
S1 C1 1_555 1_555
C1 C2 1_555 1_555
C2 H1 1_555 1_555
C3 C2 1_555 1_555
H2 C3 1_555 1_555
C4 S1 1_555 1_555
C5 C4 1_555 1_555
N1 C5 1_555 1_555
C6 C1 1_555 1_555
N2 C6 1_555 1_555
C7 H3 1_555 1_555
C8 C7 1_555 1_555
C9 C8 1_555 1_555
H4 C9 1_555 1_555
C10 C9 1_555 1_555
H5 C10 1_555 1_555
C11 C10 1_555 1_555
H6 C11 1_555 1_555
C12 C7 1_555 1_555
H7 C12 1_555 1_555
C13 C8 1_555 1_555
H8 C13 1_555 1_555
H9 C13 1_555 1_555
H10 C13 1_555 1_555
Ag1_2 N1 1_555 1_555
N1_2 Ag1 1_555 1_555
C3 C4 1_555 1_555
C11 C12 1_555 1_555

#END
