
#######################################################################
#
#                 Cambridge Crystallographic Data Centre
#                                CCDC 
#
#######################################################################
#
# If this CIF has been generated from an entry in the Cambridge 
# Structural Database, then it will include bibliographic, chemical, 
# crystal, experimental, refinement or atomic coordinate data resulting 
# from the CCDC's data processing and validation procedures.
#
#######################################################################

data_PUQDOW
_symmetry_cell_setting           orthorhombic
_symmetry_space_group_name_H-M   'P b c a'
_symmetry_Int_Tables_number      61
_space_group_name_Hall           '-P 2ac 2ab'
loop_
_symmetry_equiv_pos_site_id
_symmetry_equiv_pos_as_xyz
1 x,y,z
2 1/2-x,-y,1/2+z
3 -x,1/2+y,1/2-z
4 1/2+x,1/2-y,-z
5 -x,-y,-z
6 1/2+x,y,1/2-z
7 x,1/2-y,1/2+z
8 1/2-x,1/2+y,z
_cell_length_a                   22.8411(9)
_cell_length_b                   12.5825(5)
_cell_length_c                   22.9745(10)
_cell_angle_alpha                90
_cell_angle_beta                 90
_cell_angle_gamma                90
_cell_volume                     6602.83
loop_
_atom_site_label
_atom_site_type_symbol
_atom_site_fract_x
_atom_site_fract_y
_atom_site_fract_z
Ag1 Ag 0.75343(2) -1.12565(3) -0.46894(2)
S1 S 0.74824(6) -0.74569(10) -0.32163(6)
S2 S 0.83192(6) -0.49139(10) -0.22443(7)
S3 S 0.73886(6) -0.24720(10) -0.12692(7)
S4 S 0.59818(7) -1.50130(10) -0.47961(6)
S5 S 0.50303(7) -1.73440(10) -0.58301(6)
S6 S 0.40225(7) -1.99563(10) -0.51170(7)
N1 N 0.7691(2) -0.9983(4) -0.4004(2)
N2 N 0.7573(2) 0.0063(4) -0.0444(2)
N3 N 0.6786(2) -1.2431(3) -0.4835(2)
N4 N 0.3221(2) -2.2458(4) -0.5422(2)
C1 C 0.7841(2) -0.9277(4) -0.3744(2)
C2 C 0.8006(3) -0.8371(4) -0.3413(2)
C3 C 0.7997(2) -0.6727(4) -0.2847(2)
C4 C 0.8541(3) -0.7178(4) -0.2888(3)
H1 H 0.8879 -0.6886 -0.2719
C5 C 0.8538(3) -0.8116(4) -0.3208(3)
H2 H 0.8875 -0.8529 -0.3274
C6 C 0.7808(2) -0.5782(4) -0.2534(2)
C7 C 0.7257(3) -0.5456(4) -0.2404(2)
H3 H 0.6920 -0.5829 -0.2521
C8 C 0.7236(3) -0.4516(4) -0.2081(2)
H4 H 0.6884 -0.4190 -0.1965
C9 C 0.7779(2) -0.4117(4) -0.1950(2)
C10 C 0.7925(2) -0.3175(4) -0.1636(2)
C11 C 0.7893(3) -0.1543(4) -0.1041(2)
C12 C 0.8437(3) -0.1764(4) -0.1230(3)
H5 H 0.8764 -0.1338 -0.1146
C13 C 0.8467(2) -0.2699(4) -0.1566(3)
H6 H 0.8815 -0.2969 -0.1725
C14 C 0.7711(2) -0.0656(4) -0.0712(2)
C15 C 0.6523(2) -1.3127(4) -0.5015(2)
C16 C 0.6194(2) -1.4001(3) -0.5243(2)
C17 C 0.6009(2) -1.4148(4) -0.5803(3)
H7 H 0.6086 -1.3669 -0.6108
C18 C 0.5700(2) -1.5072(4) -0.5870(2)
H8 H 0.5548 -1.5297 -0.6229
C19 C 0.5634(2) -1.5638(4) -0.5367(2)
C20 C 0.5315(2) -1.6622(3) -0.5259(2)
C21 C 0.4744(2) -1.8291(4) -0.5358(2)
C22 C 0.4871(2) -1.8031(4) -0.4798(3)
H9 H 0.4751 -1.8442 -0.4478
C23 C 0.5200(2) -1.7084(4) -0.4742(3)
H10 H 0.5325 -1.6806 -0.4383
C24 C 0.4435(2) -1.9198(4) -0.5580(2)
C25 C 0.4426(3) -1.9596(4) -0.6124(3)
H11 H 0.4627 -1.9283 -0.6436
C26 C 0.4084(3) -2.0530(4) -0.6181(3)
H12 H 0.4032 -2.0903 -0.6532
C27 C 0.3843(2) -2.0815(4) -0.5667(3)
C28 C 0.3492(2) -2.1742(4) -0.5538(3)
Ag1A Ag 0.74657(2) 0.12565(3) 0.03106(2)
Ag1C Ag 0.25343(2) -2.37435(3) -0.53106(2)
N2A N 0.7427(2) -1.0063(4) -0.5444(2)
N4C N 0.8221(2) -1.2542(4) -0.4578(2)
Sb1 Sb 0.462827(19) -0.36513(4) 0.280869(19)
F1 F 0.5291(2) -0.4483(4) 0.2673(2)
F2 F 0.4201(2) -0.4454(4) 0.2279(2)
F3 F 0.4404(2) -0.4568(4) 0.3401(2)
F4 F 0.4866(2) -0.2764(4) 0.2214(2)
F5 F 0.5051(2) -0.2858(4) 0.33373(19)
F6 F 0.3981(2) -0.2801(4) 0.2933(2)
loop_
_geom_bond_atom_site_label_1
_geom_bond_atom_site_label_2
_geom_bond_site_symmetry_1
_geom_bond_site_symmetry_2
Ag1 N1 1_555 1_555
S1 C2 1_555 1_555
S2 C6 1_555 1_555
S3 C10 1_555 1_555
S4 C16 1_555 1_555
S5 C20 1_555 1_555
S6 C24 1_555 1_555
N1 C1 1_555 1_555
N2 C14 1_555 1_555
N3 Ag1 1_555 1_555
N4 C28 1_555 1_555
C1 C2 1_555 1_555
C2 C5 1_555 1_555
C3 S1 1_555 1_555
C4 C3 1_555 1_555
H1 C4 1_555 1_555
C5 C4 1_555 1_555
H2 C5 1_555 1_555
C6 C3 1_555 1_555
C7 C6 1_555 1_555
H3 C7 1_555 1_555
C8 C7 1_555 1_555
H4 C8 1_555 1_555
C9 S2 1_555 1_555
C10 C9 1_555 1_555
C11 S3 1_555 1_555
C12 C11 1_555 1_555
H5 C12 1_555 1_555
C13 C10 1_555 1_555
H6 C13 1_555 1_555
C14 C11 1_555 1_555
C15 N3 1_555 1_555
C16 C15 1_555 1_555
C17 C16 1_555 1_555
H7 C17 1_555 1_555
C18 C17 1_555 1_555
H8 C18 1_555 1_555
C19 S4 1_555 1_555
C20 C19 1_555 1_555
C21 S5 1_555 1_555
C22 C21 1_555 1_555
H9 C22 1_555 1_555
C23 C20 1_555 1_555
H10 C23 1_555 1_555
C24 C21 1_555 1_555
C25 C24 1_555 1_555
H11 C25 1_555 1_555
C26 C25 1_555 1_555
H12 C26 1_555 1_555
C27 S6 1_555 1_555
C28 C27 1_555 1_555
Sb1 F1 1_555 1_555
F2 Sb1 1_555 1_555
F3 Sb1 1_555 1_555
F4 Sb1 1_555 1_555
F5 Sb1 1_555 1_555
F6 Sb1 1_555 1_555
Ag1A N2 1_555 1_555
Ag1C N4 1_555 1_555
N2A Ag1 1_555 1_555
N4C Ag1 1_555 1_555
C8 C9 1_555 1_555
C12 C13 1_555 1_555
C18 C19 1_555 1_555
C22 C23 1_555 1_555
C26 C27 1_555 1_555

#END
