
#######################################################################
#
#                 Cambridge Crystallographic Data Centre
#                                CCDC 
#
#######################################################################
#
# If this CIF has been generated from an entry in the Cambridge 
# Structural Database, then it will include bibliographic, chemical, 
# crystal, experimental, refinement or atomic coordinate data resulting 
# from the CCDC's data processing and validation procedures.
#
#######################################################################

data_PUQFAJ
_symmetry_cell_setting           triclinic
_symmetry_space_group_name_H-M   'P -1'
_symmetry_Int_Tables_number      2
_space_group_name_Hall           '-P 1'
loop_
_symmetry_equiv_pos_site_id
_symmetry_equiv_pos_as_xyz
1 x,y,z
2 -x,-y,-z
_cell_length_a                   9.177(5)
_cell_length_b                   9.337(5)
_cell_length_c                   11.582(7)
_cell_angle_alpha                67.587(18)
_cell_angle_beta                 89.67(2)
_cell_angle_gamma                69.782(19)
_cell_volume                     851.785
loop_
_atom_site_label
_atom_site_type_symbol
_atom_site_fract_x
_atom_site_fract_y
_atom_site_fract_z
Pb1 Pb 0.48563(3) 0.20189(3) 0.356257(19)
O1 O 0.2592(6) 0.2593(5) 0.1733(4)
O2 O 0.3447(6) 0.7085(5) 0.5013(4)
O3 O 0.4688(5) 0.9377(5) 0.4188(3)
O4 O 0.7672(6) 0.0157(5) 0.3710(5)
O5 O 0.7406(6) 0.2468(6) 0.2089(4)
O6 O 0.2169(6) 0.3007(6) 0.4467(4)
H1 H 0.2220 0.2059 0.5041
H2 H 0.1227 0.3684 0.3887
N1 N 0.0406(7) 0.4405(7) -0.2530(5)
N2 N 0.2668(6) 0.5018(6) 0.0309(4)
H3 H 0.2767 0.5622 -0.0402
N3 N 0.3115(6) 0.5373(6) 0.1285(4)
C1 C 0.0998(8) 0.4631(8) -0.1594(5)
H4 H 0.0989 0.5689 -0.1754
C2 C 0.1626(7) 0.3392(7) -0.0401(5)
C3 C 0.1611(8) 0.1818(8) -0.0161(6)
H5 H 0.1994 0.0959 0.0637
C4 C 0.1028(9) 0.1549(9) -0.1108(7)
H6 H 0.1007 0.0507 -0.0966
C5 C 0.0464(9) 0.2865(9) -0.2292(6)
H7 H 0.0113 0.2664 -0.2945
C6 C 0.2330(7) 0.3627(7) 0.0637(5)
C7 C 0.3665(7) 0.6539(7) 0.0936(5)
H8 H 0.3842 0.6983 0.0105
C8 C 0.4019(7) 0.7178(7) 0.1829(5)
C9 C 0.3548(7) 0.6739(7) 0.3036(5)
H9 H 0.3055 0.5974 0.3301
C10 C 0.3817(7) 0.7440(7) 0.3815(5)
C11 C 0.4528(7) 0.8657(7) 0.3431(5)
C12 C 0.5084(8) 0.8973(7) 0.2269(5)
H10 H 0.5651 0.9669 0.2023
C13 C 0.4808(7) 0.8273(7) 0.1481(5)
H11 H 0.5157 0.8540 0.0699
C14 C 0.2599(9) 0.6000(8) 0.5473(6)
H12 H 0.2476 0.5812 0.6336
H13 H 0.1584 0.6504 0.4971
H14 H 0.3168 0.4954 0.5421
C15 C 0.8248(8) 0.1119(8) 0.2953(6)
C16 C 0.9993(9) 0.0607(10) 0.3137(8)
H15 H 1.0294 0.1383 0.2459
H16 H 1.0477 -0.0489 0.3147
H17 H 1.0329 0.0597 0.3925
Pb1A Pb 0.51437(3) 0.79811(3) 0.643743(19)
Pb1_2 Pb 0.48563(3) 1.20189(3) 0.356257(19)
O2A O 0.6553(6) 0.2915(5) 0.4987(4)
O3A O 0.5312(5) 0.0623(5) 0.5812(3)
O3_2 O 0.4688(5) -0.0623(5) 0.4188(3)
loop_
_geom_bond_atom_site_label_1
_geom_bond_atom_site_label_2
_geom_bond_site_symmetry_1
_geom_bond_site_symmetry_2
Pb1 O1 1_555 1_555
O1 C6 1_555 1_555
O2 C10 1_555 1_555
O3 C11 1_555 1_555
O4 Pb1 1_555 1_555
O5 C15 1_555 1_555
O6 Pb1 1_555 1_555
H1 O6 1_555 1_555
H2 O6 1_555 1_555
N1 C1 1_555 1_555
N2 H3 1_555 1_555
N3 N2 1_555 1_555
C1 H4 1_555 1_555
C2 C1 1_555 1_555
C3 C2 1_555 1_555
H5 C3 1_555 1_555
C4 C3 1_555 1_555
H6 C4 1_555 1_555
C5 N1 1_555 1_555
H7 C5 1_555 1_555
C6 N2 1_555 1_555
C7 N3 1_555 1_555
H8 C7 1_555 1_555
C8 C7 1_555 1_555
C9 C8 1_555 1_555
H9 C9 1_555 1_555
C10 C9 1_555 1_555
C11 C10 1_555 1_555
C12 C11 1_555 1_555
H10 C12 1_555 1_555
C13 C8 1_555 1_555
H11 C13 1_555 1_555
C14 O2 1_555 1_555
H12 C14 1_555 1_555
H13 C14 1_555 1_555
H14 C14 1_555 1_555
C15 O4 1_555 1_555
C16 C15 1_555 1_555
H15 C16 1_555 1_555
H16 C16 1_555 1_555
H17 C16 1_555 1_555
Pb1A O2 1_555 1_555
Pb1_2 O3 1_555 1_555
O2A Pb1 1_555 1_555
O3A Pb1 1_555 1_555
O3_2 Pb1 1_555 1_555
O3 Pb1A 1_555 1_555
C2 C6 1_555 1_555
C4 C5 1_555 1_555
C12 C13 1_555 1_555

#END
