
#######################################################################
#
#                 Cambridge Crystallographic Data Centre
#                                CCDC 
#
#######################################################################
#
# If this CIF has been generated from an entry in the Cambridge 
# Structural Database, then it will include bibliographic, chemical, 
# crystal, experimental, refinement or atomic coordinate data resulting 
# from the CCDC's data processing and validation procedures.
#
#######################################################################

data_PUQFIQ
_symmetry_cell_setting           monoclinic
_symmetry_space_group_name_H-M   'C 2/c'
_symmetry_Int_Tables_number      15
_space_group_name_Hall           '-C 2yn'
loop_
_symmetry_equiv_pos_site_id
_symmetry_equiv_pos_as_xyz
1 x,y,z
2 -x,y,1/2-z
3 1/2+x,1/2+y,z
4 1/2-x,1/2+y,1/2-z
5 -x,-y,-z
6 x,-y,1/2+z
7 1/2-x,1/2-y,-z
8 1/2+x,1/2-y,1/2+z
_cell_length_a                   26.376(5)
_cell_length_b                   12.404(3)
_cell_length_c                   7.095(1)
_cell_angle_alpha                90
_cell_angle_beta                 96.10(3)
_cell_angle_gamma                90
_cell_volume                     2308.11
loop_
_atom_site_label
_atom_site_type_symbol
_atom_site_fract_x
_atom_site_fract_y
_atom_site_fract_z
Mn1 Mn 0.50000 0.11259(4) 0.25000
Cl1 Cl 0.24574(2) 0.04243(5) -0.47526(9)
O1 O 0.46427(6) 0.1297(1) -0.0424(2)
O2 O 0.56372(6) 0.0174(1) 0.2057(2)
N1 N 0.45537(7) 0.2618(2) 0.3204(3)
C1 C 0.37772(9) 0.1237(2) -0.1788(3)
C2 C 0.34066(9) 0.0687(2) -0.2946(3)
C3 C 0.29205(9) 0.1128(2) -0.3288(3)
C4 C 0.2796(1) 0.2093(2) -0.2492(4)
C5 C 0.3171(1) 0.2650(2) -0.1345(4)
C6 C 0.3659(1) 0.2218(2) -0.0997(3)
C7 C 0.43047(9) 0.0753(2) -0.1386(3)
C8 C 0.47400(8) 0.3600(2) 0.2844(3)
C9 C 0.4471(1) 0.4541(2) 0.3073(4)
C10 C 0.3995(1) 0.4461(2) 0.3732(4)
C11 C 0.38093(9) 0.3461(2) 0.4143(4)
C12 C 0.40936(9) 0.2562(2) 0.3868(3)
H2 H 0.3483 0.0017 -0.3499
H3 H 0.2460 0.2375 -0.2721
H4 H 0.3092 0.3322 -0.0802
H5 H 0.3913 0.2597 -0.0212
H6 H 0.4608 0.5222 0.2788
H7 H 0.3799 0.5090 0.3896
H8 H 0.3486 0.3395 0.4614
H9 H 0.3962 0.1874 0.4153
O2D O 0.43628(6) -0.0174(1) -0.2057(2)
Mn1D Mn 0.50000 -0.11259(4) -0.25000
O1D O 0.53573(6) -0.1297(1) 0.0424(2)
C7D C 0.56953(9) -0.0753(2) 0.1386(3)
O1A O 0.53573(6) 0.1297(1) 0.5424(2)
O2A O 0.43628(6) 0.0174(1) 0.2943(2)
C8A C 0.52600(8) 0.3600(2) 0.2156(3)
N1A N 0.54463(7) 0.2618(2) 0.1796(3)
C12A C 0.59064(9) 0.2562(2) 0.1132(3)
C11A C 0.61907(9) 0.3461(2) 0.0857(4)
C10A C 0.6005(1) 0.4461(2) 0.1268(4)
C9A C 0.5529(1) 0.4541(2) 0.1927(4)
H6A H 0.5392 0.5222 0.2212
H7A H 0.6201 0.5090 0.1104
H8A H 0.6514 0.3395 0.0386
H9A H 0.6038 0.1874 0.0847
C1D C 0.62228(9) -0.1237(2) 0.1788(3)
C2D C 0.65934(9) -0.0687(2) 0.2946(3)
C3D C 0.70795(9) -0.1128(2) 0.3288(3)
Cl1D Cl 0.75426(2) -0.04243(5) 0.47526(9)
C4D C 0.7204(1) -0.2093(2) 0.2492(4)
C5D C 0.6829(1) -0.2650(2) 0.1345(4)
C6D C 0.6341(1) -0.2218(2) 0.0997(3)
H5D H 0.6087 -0.2597 0.0212
H4D H 0.6908 -0.3322 0.0802
H3D H 0.7540 -0.2375 0.2721
H2D H 0.6517 -0.0017 0.3499
O3 O 0.50000 -0.3073(2) 0.25000
H1 H 0.514(2) -0.265(4) 0.151(7)
H1A H 0.486(2) -0.265(4) 0.349(7)
loop_
_geom_bond_atom_site_label_1
_geom_bond_atom_site_label_2
_geom_bond_site_symmetry_1
_geom_bond_site_symmetry_2
Mn1 O1 1_555 1_555
Cl1 C3 1_555 1_555
O1 C7 1_555 1_555
O2 Mn1 1_555 1_555
O3 H1 1_555 1_555
N1 Mn1 1_555 1_555
C1 C2 1_555 1_555
C2 C3 1_555 1_555
C3 C4 1_555 1_555
C4 C5 1_555 1_555
C5 C6 1_555 1_555
C6 C1 1_555 1_555
C7 C1 1_555 1_555
C8 N1 1_555 1_555
C9 C8 1_555 1_555
C10 C9 1_555 1_555
C11 C10 1_555 1_555
C12 N1 1_555 1_555
H2 C2 1_555 1_555
H3 C4 1_555 1_555
H4 C5 1_555 1_555
H5 C6 1_555 1_555
H6 C9 1_555 1_555
H7 C10 1_555 1_555
H8 C11 1_555 1_555
H9 C12 1_555 1_555
O2D C7 1_555 1_555
Mn1D O2D 1_555 1_555
O1D Mn1D 1_555 1_555
C7D O2 1_555 1_555
O1A Mn1 1_555 1_555
O2A Mn1 1_555 1_555
C8A C8 1_555 1_555
N1A Mn1 1_555 1_555
C12A N1A 1_555 1_555
C11A C12A 1_555 1_555
C10A C11A 1_555 1_555
C9A C8A 1_555 1_555
H6A C9A 1_555 1_555
H7A C10A 1_555 1_555
H8A C11A 1_555 1_555
H9A C12A 1_555 1_555
C1D C7D 1_555 1_555
C2D C1D 1_555 1_555
C3D C2D 1_555 1_555
Cl1D C3D 1_555 1_555
C4D C3D 1_555 1_555
C5D C4D 1_555 1_555
C6D C1D 1_555 1_555
H5D C6D 1_555 1_555
H4D C5D 1_555 1_555
H3D C4D 1_555 1_555
H2D C2D 1_555 1_555
H1A O3 1_555 1_555
C11 C12 1_555 1_555
O1D C7D 1_555 1_555
C8A N1A 1_555 1_555
C10A C9A 1_555 1_555
C5D C6D 1_555 1_555

#END
