
#######################################################################
#
#                 Cambridge Crystallographic Data Centre
#                                CCDC 
#
#######################################################################
#
# If this CIF has been generated from an entry in the Cambridge 
# Structural Database, then it will include bibliographic, chemical, 
# crystal, experimental, refinement or atomic coordinate data resulting 
# from the CCDC's data processing and validation procedures.
#
#######################################################################

data_PUQFEN
_symmetry_cell_setting           rhombohedral
_symmetry_space_group_name_H-M   'R -3'
_symmetry_Int_Tables_number      148
_space_group_name_Hall           '-R 3'
loop_
_symmetry_equiv_pos_site_id
_symmetry_equiv_pos_as_xyz
1 x,y,z
2 -y,x-y,z
3 -x+y,-x,z
4 2/3+x,1/3+y,1/3+z
5 2/3-y,1/3+x-y,1/3+z
6 2/3-x+y,1/3-x,1/3+z
7 1/3+x,2/3+y,2/3+z
8 1/3-y,2/3+x-y,2/3+z
9 1/3-x+y,2/3-x,2/3+z
10 -x,-y,-z
11 y,-x+y,-z
12 x-y,x,-z
13 1/3-x,2/3-y,2/3-z
14 1/3+y,2/3-x+y,2/3-z
15 1/3+x-y,2/3+x,2/3-z
16 2/3-x,1/3-y,1/3-z
17 2/3+y,1/3-x+y,1/3-z
18 2/3+x-y,1/3+x,1/3-z
_cell_length_a                   33.916(11)
_cell_length_b                   33.916(11)
_cell_length_c                   6.263(2)
_cell_angle_alpha                90
_cell_angle_beta                 90
_cell_angle_gamma                120
_cell_volume                     6239.11
loop_
_atom_site_label
_atom_site_type_symbol
_atom_site_fract_x
_atom_site_fract_y
_atom_site_fract_z
Cu1 Cu -0.5000 0.0000 0.0000
O1 O -0.57412(9) -0.03318(9) -0.7676(4)
H1 H -0.5690 -0.0430 -0.6572
O2 O -0.47932(9) -0.03058(8) 0.1868(4)
O3 O -0.36410(11) 0.18133(10) 0.8073(5)
O4 O -0.38213(10) 0.24686(9) 0.7116(5)
H2 H -0.3646 0.2456 0.7847
N1 N -0.44900(10) 0.03692(10) 0.3761(5)
N2 N -0.46827(10) 0.04914(10) 0.2108(4)
C1 C -0.57669(12) 0.00397(13) -0.7046(6)
C2 C -0.43828(12) -0.02348(12) 0.5036(6)
C3 C -0.43486(14) -0.06140(14) 0.4508(7)
H3 H -0.4440 -0.0743 0.3160
C4 C -0.41820(17) -0.08014(16) 0.5941(8)
H4 H -0.4165 -0.1058 0.5577
C5 C -0.59606(16) 0.06038(16) -0.7930(7)
H5 H -0.6074 0.0729 -0.8905
C6 C -0.59373(13) 0.02257(15) -0.8483(6)
H6 H -0.6036 0.0094 -0.9823
C7 C -0.45708(12) -0.00527(12) 0.3448(6)
C8 C -0.46359(13) 0.08953(13) 0.2067(6)
H7 H -0.4778 0.0943 0.0905
C9 C -0.44085(13) 0.12858(13) 0.3459(6)
C10 C -0.41235(13) 0.13376(13) 0.5171(6)
H8 H -0.4065 0.1104 0.5496
C11 C -0.39280(13) 0.17266(13) 0.6384(6)
C12 C -0.40106(13) 0.20794(13) 0.5906(6)
C13 C -0.42803(15) 0.20401(14) 0.4209(7)
H9 H -0.4331 0.2278 0.3869
C14 C -0.44768(14) 0.16489(14) 0.3001(7)
H10 H -0.4660 0.1626 0.1849
C15 C -0.35532(17) 0.14672(15) 0.8732(8)
H11 H -0.3351 0.1571 0.9936
H12 H -0.3415 0.1393 0.7581
H13 H -0.3834 0.1202 0.9128
Cu1_2 Cu -0.5000 0.0000 -1.0000
Cu1_3 Cu -0.5000 0.0000 1.0000
O1_2 O -0.57412(9) -0.03318(9) 0.2324(4)
O1I O -0.42588(9) 0.03318(9) -0.2324(4)
O1I_2 O -0.42588(9) 0.03318(9) 0.7676(4)
H1_2 H -0.5690 -0.0430 0.3428
H1I H -0.4310 0.0430 -0.3428
H1I_2 H -0.4310 0.0430 0.6572
O2I O -0.52068(9) 0.03058(8) -0.1868(4)
O3I O -0.63590(11) -0.18133(10) -0.8073(5)
O4I O -0.61787(10) -0.24686(9) -0.7116(5)
H2I H -0.6354 -0.2456 -0.7847
N1I N -0.55100(10) -0.03692(10) -0.3761(5)
N2I N -0.53173(10) -0.04914(10) -0.2108(4)
C1I C -0.42331(12) -0.00397(13) 0.7046(6)
C2I C -0.56172(12) 0.02348(12) -0.5036(6)
C3I C -0.56514(14) 0.06140(14) -0.4508(7)
H3I H -0.5560 0.0743 -0.3160
C4I C -0.58180(17) 0.08014(16) -0.5941(8)
H4I H -0.5835 0.1058 -0.5577
C5I C -0.40394(16) -0.06038(16) 0.7930(7)
H5I H -0.3926 -0.0729 0.8905
C6I C -0.40627(13) -0.02257(15) 0.8483(6)
H6I H -0.3964 -0.0094 0.9823
C7I C -0.54292(12) 0.00527(12) -0.3448(6)
C8I C -0.53641(13) -0.08953(13) -0.2067(6)
H7I H -0.5222 -0.0943 -0.0905
C9I C -0.55915(13) -0.12858(13) -0.3459(6)
C10I C -0.58765(13) -0.13376(13) -0.5171(6)
H8I H -0.5935 -0.1104 -0.5496
C11I C -0.60720(13) -0.17266(13) -0.6384(6)
C12I C -0.59894(13) -0.20794(13) -0.5906(6)
C13I C -0.57197(15) -0.20401(14) -0.4209(7)
H9I H -0.5669 -0.2278 -0.3869
C14I C -0.55232(14) -0.16489(14) -0.3001(7)
H10I H -0.5340 -0.1626 -0.1849
C15I C -0.64468(17) -0.14672(15) -0.8732(8)
H11I H -0.6649 -0.1571 -0.9936
H12I H -0.6585 -0.1393 -0.7581
H13I H -0.6166 -0.1202 -0.9128
loop_
_geom_bond_atom_site_label_1
_geom_bond_atom_site_label_2
_geom_bond_site_symmetry_1
_geom_bond_site_symmetry_2
Cu1 O2 1_555 1_555
O1 H1 1_555 1_555
O2 C7 1_555 1_555
O3 C11 1_555 1_555
O4 H2 1_555 1_555
N1 N2 1_555 1_555
N2 Cu1 1_555 1_555
C1 O1 1_555 1_555
C2 C3 1_555 1_555
C3 H3 1_555 1_555
C4 C3 1_555 1_555
H4 C4 1_555 1_555
C5 H5 1_555 1_555
C6 C1 1_555 1_555
H6 C6 1_555 1_555
C7 N1 1_555 1_555
C8 N2 1_555 1_555
H7 C8 1_555 1_555
C9 C8 1_555 1_555
C10 C9 1_555 1_555
H8 C10 1_555 1_555
C11 C10 1_555 1_555
C12 O4 1_555 1_555
C13 C12 1_555 1_555
H9 C13 1_555 1_555
C14 C9 1_555 1_555
H10 C14 1_555 1_555
C15 O3 1_555 1_555
H11 C15 1_555 1_555
H12 C15 1_555 1_555
H13 C15 1_555 1_555
Cu1_2 O1 1_555 1_555
Cu1_3 O1I_2 1_555 1_555
O1_2 Cu1 1_555 1_555
O1I Cu1 1_555 1_555
O1I_2 H1I_2 1_555 1_555
H1_2 O1_2 1_555 1_555
H1I O1I 1_555 1_555
O2I Cu1 1_555 1_555
O3I C11I 1_555 1_555
O4I H2I 1_555 1_555
N1I N2I 1_555 1_555
N2I Cu1 1_555 1_555
C1I C2 1_555 1_555
C2I C1 1_555 1_555
C3I C2I 1_555 1_555
H3I C3I 1_555 1_555
C4I C5 1_555 1_555
H4I C4I 1_555 1_555
C5I C4 1_555 1_555
H5I C5I 1_555 1_555
C6I C1I 1_555 1_555
H6I C6I 1_555 1_555
C7I O2I 1_555 1_555
C8I N2I 1_555 1_555
H7I C8I 1_555 1_555
C9I C8I 1_555 1_555
C10I C9I 1_555 1_555
H8I C10I 1_555 1_555
C11I C10I 1_555 1_555
C12I O4I 1_555 1_555
C13I C12I 1_555 1_555
H9I C13I 1_555 1_555
C14I C9I 1_555 1_555
H10I C14I 1_555 1_555
C15I O3I 1_555 1_555
H11I C15I 1_555 1_555
H12I C15I 1_555 1_555
H13I C15I 1_555 1_555
C2 C7 1_555 1_555
C5 C6 1_555 1_555
C11 C12 1_555 1_555
C13 C14 1_555 1_555
O1I_2 C1I 1_555 1_555
N1I C7I 1_555 1_555
C2I C7I 1_555 1_555
C3I C4I 1_555 1_555
C5I C6I 1_555 1_555
C11I C12I 1_555 1_555
C13I C14I 1_555 1_555

#END
