
#######################################################################
#
#                 Cambridge Crystallographic Data Centre
#                                CCDC 
#
#######################################################################
#
# If this CIF has been generated from an entry in the Cambridge 
# Structural Database, then it will include bibliographic, chemical, 
# crystal, experimental, refinement or atomic coordinate data resulting 
# from the CCDC's data processing and validation procedures.
#
#######################################################################

data_PUQGAJ01
_symmetry_cell_setting           monoclinic
_symmetry_space_group_name_H-M   'P 21/c'
_symmetry_Int_Tables_number      14
_space_group_name_Hall           '-P 2ybc'
loop_
_symmetry_equiv_pos_site_id
_symmetry_equiv_pos_as_xyz
1 x,y,z
2 -x,1/2+y,1/2-z
3 -x,-y,-z
4 x,1/2-y,1/2+z
_cell_length_a                   7.4940(11)
_cell_length_b                   15.355(2)
_cell_length_c                   9.4009(14)
_cell_angle_alpha                90
_cell_angle_beta                 98.413(2)
_cell_angle_gamma                90
_cell_volume                     1070.12
loop_
_atom_site_label
_atom_site_type_symbol
_atom_site_fract_x
_atom_site_fract_y
_atom_site_fract_z
Co1 Co 0.0000 0.5000 0.5000
Cl1 Cl 0.20061(7) 0.43179(4) 0.35327(6)
S1 S 0.46119(10) 0.86590(4) 0.38777(6)
N1 N 0.1375(2) 0.62685(11) 0.48432(19)
N2 N 0.8140(2) 0.95816(11) 0.79735(18)
C1 C 0.3135(3) 0.63405(14) 0.5315(2)
H1 H 0.3717 0.5866 0.5793
C2 C 0.4148(3) 0.70682(14) 0.5143(2)
H2 H 0.5363 0.7088 0.5527
C3 C 0.3335(3) 0.77696(14) 0.4393(2)
C4 C 0.1498(3) 0.77243(16) 0.3907(3)
H3 H 0.0894 0.8187 0.3410
C5 C 0.0589(3) 0.69710(16) 0.4181(3)
H4 H -0.0651 0.6952 0.3886
C6 C 0.6455(3) 0.92970(14) 0.8003(2)
H5 H 0.6015 0.9310 0.8877
C7 C 0.5337(3) 0.89872(14) 0.6820(2)
H6 H 0.4174 0.8803 0.6902
C8 C 0.5962(3) 0.89534(14) 0.5507(2)
C9 C 0.7705(3) 0.92370(16) 0.5454(2)
H7 H 0.8182 0.9221 0.4595
C10 C 0.8725(3) 0.95443(16) 0.6695(2)
H8 H 0.9889 0.9737 0.6640
Co1C Co 1.0000 1.0000 1.0000
Co1C_2 Co -1.0000 1.0000 0.0000
Cl1B Cl -0.20061(7) 0.56821(4) 0.64673(6)
S1C S -0.53881(10) 0.63410(4) -0.11223(6)
N1C N -0.8625(2) 0.87315(11) -0.01568(19)
N1B N -0.1375(2) 0.37315(11) 0.51568(19)
N2C N -0.1860(2) 0.54184(11) 0.29735(18)
N2A N 0.1860(2) 0.45816(11) 0.70265(18)
C1C C -0.6865(3) 0.86595(14) 0.0315(2)
H1C H -0.6283 0.9134 0.0793
C2C C -0.5852(3) 0.79318(14) 0.0143(2)
H2C H -0.4637 0.7912 0.0527
C3C C -0.6665(3) 0.72304(14) -0.0607(2)
C4C C -0.8502(3) 0.72757(16) -0.1093(3)
H3C H -0.9106 0.6813 -0.1590
C5C C -0.9411(3) 0.80290(16) -0.0819(3)
H4C H -1.0651 0.8048 -0.1114
C6C C -0.3545(3) 0.57030(14) 0.3003(2)
H5C H -0.3985 0.5690 0.3877
C7C C -0.4663(3) 0.60128(14) 0.1820(2)
H6C H -0.5826 0.6197 0.1902
C8C C -0.4038(3) 0.60466(14) 0.0507(2)
C9C C -0.2295(3) 0.57630(16) 0.0454(2)
H7C H -0.1818 0.5779 -0.0405
C10C C -0.1275(3) 0.54557(16) 0.1695(2)
H8C H -0.0111 0.5263 0.1640
loop_
_geom_bond_atom_site_label_1
_geom_bond_atom_site_label_2
_geom_bond_site_symmetry_1
_geom_bond_site_symmetry_2
Co1 Cl1 1_555 1_555
S1 C3 1_555 1_555
N1 Co1 1_555 1_555
N2 C6 1_555 1_555
C1 N1 1_555 1_555
H1 C1 1_555 1_555
C2 C1 1_555 1_555
H2 C2 1_555 1_555
C3 C2 1_555 1_555
C4 C3 1_555 1_555
H3 C4 1_555 1_555
C5 N1 1_555 1_555
H4 C5 1_555 1_555
C6 H5 1_555 1_555
C7 C6 1_555 1_555
H6 C7 1_555 1_555
C8 S1 1_555 1_555
C9 C8 1_555 1_555
H7 C9 1_555 1_555
C10 N2 1_555 1_555
H8 C10 1_555 1_555
Co1C N2 1_555 1_555
Co1C_2 N1C 1_555 1_555
Cl1B Co1 1_555 1_555
S1C C3C 1_555 1_555
N1C C1C 1_555 1_555
N1B Co1 1_555 1_555
N2C Co1 1_555 1_555
N2A Co1 1_555 1_555
C1C H1C 1_555 1_555
C2C C1C 1_555 1_555
H2C C2C 1_555 1_555
C3C C2C 1_555 1_555
C4C C3C 1_555 1_555
H3C C4C 1_555 1_555
C5C N1C 1_555 1_555
H4C C5C 1_555 1_555
C6C N2C 1_555 1_555
H5C C6C 1_555 1_555
C7C C6C 1_555 1_555
H6C C7C 1_555 1_555
C8C S1C 1_555 1_555
C9C C8C 1_555 1_555
H7C C9C 1_555 1_555
C10C N2C 1_555 1_555
H8C C10C 1_555 1_555
C4 C5 1_555 1_555
C7 C8 1_555 1_555
C9 C10 1_555 1_555
C4C C5C 1_555 1_555
C7C C8C 1_555 1_555
C9C C10C 1_555 1_555

#END
