
#######################################################################
#
#                 Cambridge Crystallographic Data Centre
#                                CCDC 
#
#######################################################################
#
# If this CIF has been generated from an entry in the Cambridge 
# Structural Database, then it will include bibliographic, chemical, 
# crystal, experimental, refinement or atomic coordinate data resulting 
# from the CCDC's data processing and validation procedures.
#
#######################################################################

data_PUQGUE
_symmetry_cell_setting           monoclinic
_symmetry_space_group_name_H-M   'P 21/c'
_symmetry_Int_Tables_number      14
_space_group_name_Hall           '-P 2ybc'
loop_
_symmetry_equiv_pos_site_id
_symmetry_equiv_pos_as_xyz
1 x,y,z
2 -x,1/2+y,1/2-z
3 -x,-y,-z
4 x,1/2-y,1/2+z
_cell_length_a                   12.4987(15)
_cell_length_b                   19.160(2)
_cell_length_c                   13.6336(17)
_cell_angle_alpha                90
_cell_angle_beta                 111.633(2)
_cell_angle_gamma                90
_cell_volume                     3034.94
loop_
_atom_site_label
_atom_site_type_symbol
_atom_site_fract_x
_atom_site_fract_y
_atom_site_fract_z
Co1 Co 0.47219(5) -0.08408(3) 0.27355(4)
Co2 Co 0.21089(5) -0.06173(3) 0.31764(4)
Co3 Co 0.29518(5) 0.03530(3) 0.17769(4)
Co4 Co 0.03018(5) 0.05253(3) 0.20478(5)
O1 O 0.4234(2) -0.50215(15) 0.2261(2)
O2 O 0.5519(2) -0.42039(16) 0.3141(2)
O3 O 0.0426(2) -0.39499(15) 0.1880(2)
O4 O -0.1843(2) -0.46535(17) -0.0320(2)
O5 O -0.1479(2) -0.46528(15) 0.1414(2)
O6 O 0.2251(2) -0.15805(16) 0.2564(2)
O7 O 0.4127(2) -0.17860(16) 0.2962(3)
O8 O -0.2841(2) -0.37030(15) 0.2484(2)
O9 O -0.0942(2) -0.35101(15) 0.3080(2)
O10 O -0.4621(2) -0.13351(15) 0.1571(2)
O11 O -0.6496(2) -0.06098(15) 0.1237(2)
O12 O -0.6762(3) -0.03780(19) -0.0432(2)
O13 O -0.0748(2) -0.03144(16) 0.2039(3)
O14 O 0.0520(2) -0.10598(16) 0.3120(2)
O15 O 0.3648(2) -0.02254(15) 0.3193(2)
H1 H 0.4055 0.0046 0.3736
O16 O 0.1438(2) -0.00958(15) 0.1707(2)
H2 H 0.1035 -0.0350 0.1087
C1 C 0.4513(3) -0.4421(2) 0.2656(3)
C2 C 0.3551(3) -0.3921(2) 0.2522(3)
C3 C 0.2421(3) -0.4166(2) 0.2218(3)
H3 H 0.2259 -0.4636 0.2066
C4 C 0.1554(3) -0.3706(2) 0.2146(3)
C5 C 0.1758(4) -0.3002(2) 0.2341(3)
H4 H 0.1160 -0.2702 0.2304
C6 C 0.2872(3) -0.2746(2) 0.2594(3)
C7 C 0.3768(4) -0.3212(2) 0.2692(3)
H5 H 0.4515 -0.3046 0.2872
C8 C -0.0155(4) -0.4095(3) 0.0785(4)
H6 H 0.0346 -0.4362 0.0527
H7 H -0.0341 -0.3660 0.0394
C9 C -0.1250(4) -0.4502(2) 0.0606(3)
C10 C 0.3105(4) -0.1978(2) 0.2726(3)
C11 C -0.1971(4) -0.3314(2) 0.2683(3)
C12 C -0.2185(3) -0.2546(2) 0.2459(3)
C13 C -0.3312(3) -0.2284(2) 0.2082(3)
H8 H -0.3932 -0.2583 0.1970
C14 C -0.3492(3) -0.1578(2) 0.1877(3)
C15 C -0.2584(3) -0.1124(2) 0.2017(3)
H9 H -0.2720 -0.0652 0.1861
C16 C -0.1461(3) -0.1387(2) 0.2397(3)
C17 C -0.1270(4) -0.2091(2) 0.2620(3)
H10 H -0.0520 -0.2262 0.2882
C18 C -0.5088(4) -0.0997(3) 0.0568(3)
H11 H -0.5224 -0.1340 0.0011
H12 H -0.4540 -0.0658 0.0506
C19 C -0.6210(4) -0.0633(2) 0.0441(3)
C20 C -0.0490(3) -0.0887(2) 0.2536(3)
O17 O 0.6162(2) -0.11679(17) 0.4061(2)
H13 H 0.6711 -0.0918 0.4120
H14 H 0.6449 -0.1551 0.4105
O18 O 0.2856(2) -0.08601(17) 0.4816(2)
H15 H 0.3628 -0.0871 0.5078
H16 H 0.2629 -0.0508 0.5137
O19 O 0.2144(3) 0.08191(18) 0.0269(2)
H17 H 0.2156 0.0641 -0.0334
H18 H 0.1523 0.1093 0.0132
O20 O -0.0973(2) 0.07158(17) 0.0602(2)
H19 H -0.1707 0.0580 0.0466
H20 H -0.0975 0.1194 0.0600
Co1_2 Co -0.52781(5) -0.08408(3) 0.27355(4)
Co1A Co 0.52781(5) -0.58408(3) 0.22645(4)
Co2A Co -0.21089(5) -0.56173(3) 0.18236(4)
Co3A Co -0.29518(5) -0.46470(3) 0.32231(4)
Co3_2 Co -0.70482(5) 0.03530(3) 0.17769(4)
Co3A_2 Co 0.70482(5) -0.46470(3) 0.32231(4)
Co4A Co -0.03018(5) -0.44747(3) 0.29522(5)
O1A O 0.5766(2) -0.00215(15) 0.2739(2)
O2A O 0.4481(2) 0.07961(16) 0.1859(2)
O3A O -0.0426(2) 0.10501(15) 0.3120(2)
O5A O 0.1479(2) 0.03472(15) 0.3586(2)
O8A O 0.2841(2) 0.12970(15) 0.2516(2)
O9A O 0.0942(2) 0.14899(15) 0.1920(2)
O10_2 O 0.5379(2) -0.13351(15) 0.1571(2)
O11_2 O 0.3504(2) -0.06098(15) 0.1237(2)
O21 O -0.5202(3) 0.10259(19) 0.4375(2)
H21 H -0.5729 0.1136 0.3836
H22 H -0.5488 0.1080 0.4815
O22 O -1.1370(4) 0.2925(2) 0.0246(3)
H23 H -1.1028 0.3034 0.0856
H24 H -1.1405 0.2500 0.0299
O23 O -0.3330(4) -0.2603(3) 0.4469(3)
H25 H -0.2629 -0.2563 0.4784
O24 O -0.0350(7) 0.3292(5) 0.4490(7)
O25 O 0.1227(8) 0.2958(5) 0.4685(8)
O26? O -0.0937(10) 0.3143(7) 0.4481(10)
loop_
_geom_bond_atom_site_label_1
_geom_bond_atom_site_label_2
_geom_bond_site_symmetry_1
_geom_bond_site_symmetry_2
Co1 O7 1_555 1_555
Co2 O6 1_555 1_555
Co3 O15 1_555 1_555
Co4 O13 1_555 1_555
O1 C1 1_555 1_555
O2 C1 1_555 1_555
O3 C4 1_555 1_555
O4 C9 1_555 1_555
O5 C9 1_555 1_555
O6 C10 1_555 1_555
O7 C10 1_555 1_555
O8 C11 1_555 1_555
O9 C11 1_555 1_555
O10 C14 1_555 1_555
O11 C19 1_555 1_555
O12 C19 1_555 1_555
O13 C20 1_555 1_555
O14 Co2 1_555 1_555
O15 Co1 1_555 1_555
H1 O15 1_555 1_555
O16 Co2 1_555 1_555
H2 O16 1_555 1_555
C1 C2 1_555 1_555
C2 C3 1_555 1_555
C3 H3 1_555 1_555
C4 C3 1_555 1_555
C5 C4 1_555 1_555
H4 C5 1_555 1_555
C6 C5 1_555 1_555
C7 C2 1_555 1_555
H5 C7 1_555 1_555
C8 O3 1_555 1_555
H6 C8 1_555 1_555
H7 C8 1_555 1_555
C9 C8 1_555 1_555
C10 C6 1_555 1_555
C11 C12 1_555 1_555
C12 C13 1_555 1_555
C13 H8 1_555 1_555
C14 C13 1_555 1_555
C15 C14 1_555 1_555
H9 C15 1_555 1_555
C16 C15 1_555 1_555
C17 C12 1_555 1_555
H10 C17 1_555 1_555
C18 O10 1_555 1_555
H11 C18 1_555 1_555
H12 C18 1_555 1_555
C19 C18 1_555 1_555
C20 O14 1_555 1_555
O17 Co1 1_555 1_555
H13 O17 1_555 1_555
H14 O17 1_555 1_555
O18 Co2 1_555 1_555
H15 O18 1_555 1_555
H16 O18 1_555 1_555
O19 Co3 1_555 1_555
H17 O19 1_555 1_555
H18 O19 1_555 1_555
O20 Co4 1_555 1_555
H19 O20 1_555 1_555
H20 O20 1_555 1_555
O21 H21 1_555 1_555
H22 O21 1_555 1_555
O22 H23 1_555 1_555
H24 O22 1_555 1_555
O23 H25 1_555 1_555
Co1_2 O10 1_555 1_555
Co1A O1 1_555 1_555
Co2A O5 1_555 1_555
Co3A O8 1_555 1_555
Co3_2 O11 1_555 1_555
Co3A_2 O2 1_555 1_555
Co4A O3 1_555 1_555
O1A Co1 1_555 1_555
O2A Co3 1_555 1_555
O3A Co4 1_555 1_555
O5A Co2 1_555 1_555
O8A Co3 1_555 1_555
O9A Co4 1_555 1_555
O10_2 Co1 1_555 1_555
O11_2 Co1 1_555 1_555
Co2 O15 1_555 1_555
Co3 O16 1_555 1_555
Co3 O11_2 1_555 1_555
Co4 O16 1_555 1_555
Co4 O5A 1_555 1_555
O5 Co4A 1_555 1_555
O9 Co4A 1_555 1_555
O11 Co1_2 1_555 1_555
C6 C7 1_555 1_555
C16 C17 1_555 1_555
C16 C20 1_555 1_555

#END
