
#######################################################################
#
#                 Cambridge Crystallographic Data Centre
#                                CCDC 
#
#######################################################################
#
# If this CIF has been generated from an entry in the Cambridge 
# Structural Database, then it will include bibliographic, chemical, 
# crystal, experimental, refinement or atomic coordinate data resulting 
# from the CCDC's data processing and validation procedures.
#
#######################################################################

data_PUQHOZ
_symmetry_cell_setting           triclinic
_symmetry_space_group_name_H-M   'P -1'
_symmetry_Int_Tables_number      2
_space_group_name_Hall           '-P 1'
loop_
_symmetry_equiv_pos_site_id
_symmetry_equiv_pos_as_xyz
1 x,y,z
2 -x,-y,-z
_cell_length_a                   9.8886(19)
_cell_length_b                   11.102(2)
_cell_length_c                   11.914(2)
_cell_angle_alpha                64.317(3)
_cell_angle_beta                 78.159(3)
_cell_angle_gamma                68.485(3)
_cell_volume                     1094.94
loop_
_atom_site_label
_atom_site_type_symbol
_atom_site_fract_x
_atom_site_fract_y
_atom_site_fract_z
Co1 Co -0.17536(10) 0.05584(10) 0.51737(9)
Co2 Co -0.06762(11) 0.00893(10) 0.27518(9)
O1 O -0.1709(5) -0.7827(5) 0.5566(5)
O2 O -0.0885(6) -0.6491(5) 0.3737(5)
O3 O -0.4830(6) -0.4650(5) 0.7575(5)
O4 O -0.6736(5) -0.2089(5) 0.6201(5)
O5 O -0.7528(6) -0.1638(5) 0.7938(5)
O6 O -0.2133(6) -0.1098(5) 0.5019(5)
O7 O -0.1055(5) -0.1725(5) 0.3433(5)
O8 O -0.0020(5) 0.0757(5) 0.3751(4)
H1 H -0.0172 0.1648 0.3351
N1 N 0.0745(7) 0.0061(6) 0.1276(6)
N2 N 0.6572(6) 0.0348(6) -0.3370(6)
C1 C -0.1540(8) -0.6679(8) 0.4785(7)
C2 C -0.2165(7) -0.5466(7) 0.5197(7)
C3 C -0.3228(8) -0.5533(7) 0.6177(7)
H2 H -0.3564 -0.6329 0.6558
C4 C -0.3800(8) -0.4444(7) 0.6601(7)
C5 C -0.3309(8) -0.3281(8) 0.6054(7)
H3 H -0.3678 -0.2550 0.6355
C6 C -0.2273(7) -0.3195(8) 0.5062(7)
C7 C -0.1709(7) -0.4261(7) 0.4612(7)
H4 H -0.1024 -0.4176 0.3917
C8 C -0.5494(8) -0.3618(8) 0.8099(7)
H5 H -0.5926 -0.4061 0.8940
H6 H -0.4734 -0.3292 0.8195
C9 C -0.6682(8) -0.2339(8) 0.7311(7)
C10 C -0.1774(7) -0.1917(7) 0.4462(7)
C11 C 0.1794(9) -0.1107(8) 0.1276(7)
H7 H 0.1745 -0.1981 0.1916
C12 C 0.2950(9) -0.1125(8) 0.0400(8)
H8 H 0.3679 -0.1990 0.0457
C13 C 0.3041(8) 0.0134(8) -0.0566(7)
C14 C 0.1927(10) 0.1345(9) -0.0594(9)
H9 H 0.1922 0.2231 -0.1242
C15 C 0.0809(11) 0.1249(9) 0.0342(9)
H10 H 0.0048 0.2091 0.0304
C16 C 0.4272(8) 0.0193(8) -0.1519(7)
C17 C 0.5507(9) -0.0974(9) -0.1444(8)
H11 H 0.5591 -0.1849 -0.0755
C18 C 0.6604(9) -0.0850(8) -0.2380(7)
H12 H 0.7424 -0.1660 -0.2313
C19 C 0.5405(8) 0.1469(8) -0.3428(7)
H13 H 0.5367 0.2334 -0.4118
C20 C 0.4248(8) 0.1446(8) -0.2545(7)
H14 H 0.3445 0.2276 -0.2639
Co1A Co -0.82464(10) -0.05584(10) 0.48263(9)
Co1A_2 Co 0.17536(10) -0.05584(10) 0.48263(9)
Co1_2 Co -0.17536(10) -0.94416(10) 0.51737(9)
Co1_3 Co 0.82464(10) 0.05584(10) -0.48263(9)
Co2A Co -0.93238(11) -0.00893(10) 0.72482(9)
O1_2 O -0.1709(5) 0.2173(5) 0.5566(5)
O4A O -0.3264(5) 0.2089(5) 0.3799(5)
O5A O -0.2472(6) 0.1638(5) 0.2062(5)
O8A O 0.0020(5) -0.0757(5) 0.6249(4)
H1A H 0.0172 -0.1648 0.6649
N2_2 N -0.3428(6) 0.0348(6) 0.6630(6)
O9 O -0.7249(10) 0.4351(8) 0.8091(8)
H15 H -0.7960 0.5047 0.7675
H16 H -0.6494 0.4644 0.7911
O10 O -1.0644(15) 0.4604(15) 0.8040(14)
O11 O -0.7547(16) 0.4249(14) 1.0468(12)
O12? O -0.948(5) 0.473(4) 0.867(4)
loop_
_geom_bond_atom_site_label_1
_geom_bond_atom_site_label_2
_geom_bond_site_symmetry_1
_geom_bond_site_symmetry_2
Co1 O6 1_555 1_555
Co2 O7 1_555 1_555
O1 C1 1_555 1_555
O2 C1 1_555 1_555
O3 C4 1_555 1_555
O4 C9 1_555 1_555
O5 C9 1_555 1_555
O6 C10 1_555 1_555
O7 C10 1_555 1_555
O8 Co1 1_555 1_555
H1 O8 1_555 1_555
N1 Co2 1_555 1_555
N2 C18 1_555 1_555
C1 C2 1_555 1_555
C2 C3 1_555 1_555
C3 H2 1_555 1_555
C4 C3 1_555 1_555
C5 C4 1_555 1_555
H3 C5 1_555 1_555
C6 C5 1_555 1_555
C7 C2 1_555 1_555
H4 C7 1_555 1_555
C8 O3 1_555 1_555
H5 C8 1_555 1_555
H6 C8 1_555 1_555
C9 C8 1_555 1_555
C10 C6 1_555 1_555
C11 N1 1_555 1_555
H7 C11 1_555 1_555
C12 C11 1_555 1_555
H8 C12 1_555 1_555
C13 C12 1_555 1_555
C14 C13 1_555 1_555
H9 C14 1_555 1_555
C15 N1 1_555 1_555
H10 C15 1_555 1_555
C16 C13 1_555 1_555
C17 C16 1_555 1_555
H11 C17 1_555 1_555
C18 C17 1_555 1_555
H12 C18 1_555 1_555
C19 N2 1_555 1_555
H13 C19 1_555 1_555
C20 C16 1_555 1_555
H14 C20 1_555 1_555
O9 H15 1_555 1_555
H16 O9 1_555 1_555
Co1A O4 1_555 1_555
Co1A_2 O8 1_555 1_555
Co1_2 O1 1_555 1_555
Co1_3 N2 1_555 1_555
Co2A O5 1_555 1_555
O1_2 Co1 1_555 1_555
O4A Co1 1_555 1_555
O5A Co2 1_555 1_555
O8A Co1 1_555 1_555
H1A O8A 1_555 1_555
N2_2 Co1 1_555 1_555
Co2 O8 1_555 1_555
C6 C7 1_555 1_555
C14 C15 1_555 1_555
C19 C20 1_555 1_555
Co1A_2 O8A 1_555 1_555

#END
