
#######################################################################
#
#                 Cambridge Crystallographic Data Centre
#                                CCDC 
#
#######################################################################
#
# If this CIF has been generated from an entry in the Cambridge 
# Structural Database, then it will include bibliographic, chemical, 
# crystal, experimental, refinement or atomic coordinate data resulting 
# from the CCDC's data processing and validation procedures.
#
#######################################################################

data_PUQHAL01
_symmetry_cell_setting           monoclinic
_symmetry_space_group_name_H-M   'P 21/c'
_symmetry_Int_Tables_number      14
_space_group_name_Hall           '-P 2ybc'
loop_
_symmetry_equiv_pos_site_id
_symmetry_equiv_pos_as_xyz
1 x,y,z
2 -x,1/2+y,1/2-z
3 -x,-y,-z
4 x,1/2-y,1/2+z
_cell_length_a                   12.4166(16)
_cell_length_b                   19.045(3)
_cell_length_c                   13.6377(18)
_cell_angle_alpha                90
_cell_angle_beta                 111.917(2)
_cell_angle_gamma                90
_cell_volume                     2991.88
loop_
_atom_site_label
_atom_site_type_symbol
_atom_site_fract_x
_atom_site_fract_y
_atom_site_fract_z
C1 C 1.3730(4) 0.7096(2) 0.7585(4)
H1 H 1.4485 0.7270 0.7822
C2 C 1.3536(4) 0.6389(2) 0.7388(4)
C3 C 1.2405(4) 0.6130(2) 0.7010(3)
H2 H 1.2265 0.5655 0.6854
C4 C 1.1488(4) 0.6582(2) 0.6867(4)
C5 C 1.1679(4) 0.7291(2) 0.7079(3)
H3 H 1.1055 0.7590 0.6979
C6 C 1.2806(4) 0.7557(2) 0.7436(3)
C7 C 0.9882(4) 0.5989(3) 0.5583(4)
H4 H 0.9723 0.6332 0.5021
H5 H 1.0448 0.5659 0.5522
C8 C 0.8785(4) 0.5602(2) 0.5458(4)
C9 C 1.3025(4) 0.8329(2) 0.7649(4)
C10 C 1.4522(4) 0.5885(2) 0.7536(4)
C11 C 1.8556(4) 0.8902(2) 0.7530(3)
C12 C 1.8769(4) 0.8192(2) 0.7685(4)
H6 H 1.9521 0.8023 0.7869
C13 C 1.7862(4) 0.7726(2) 0.7573(4)
C14 C 1.6745(4) 0.7983(2) 0.7311(4)
H7 H 1.6137 0.7680 0.7252
C15 C 1.6541(4) 0.8693(2) 0.7135(3)
C16 C 1.7427(4) 0.9154(2) 0.7230(3)
H8 H 1.7271 0.9629 0.7094
C17 C 1.4835(5) 0.9108(3) 0.5798(4)
H9 H 1.5353 0.9377 0.5559
H10 H 1.4638 0.8678 0.5387
C18 C 1.3749(4) 0.9523(3) 0.5611(4)
C19 C 1.9537(4) 0.9406(2) 0.7670(4)
C20 C 1.8101(4) 0.6954(2) 0.7687(4)
Ni1 Ni 1.70932(5) 0.56187(3) 0.81497(5)
Ni2 Ni 0.79504(5) 0.46399(3) 0.68138(4)
Ni3 Ni 1.46948(5) 0.94804(3) 0.79000(5)
Ni4 Ni 0.97072(5) 0.58197(3) 0.77030(5)
O1 O 1.0353(3) 0.63383(16) 0.6580(2)
O2 O 0.8226(3) 0.5344(2) 0.4595(3)
O3 O 0.8488(3) 0.55724(15) 0.6256(2)
O4 O 1.2154(3) 0.87224(16) 0.7438(3)
O5 O 1.4059(3) 0.85184(15) 0.8036(2)
O6 O 1.5537(3) 0.60757(16) 0.8094(3)
O7 O 1.4252(3) 0.53000(16) 0.7078(3)
O8 O 1.9118(3) 0.67592(16) 0.7906(3)
O9 O 1.7237(3) 0.65575(16) 0.7528(3)
O10 O 2.0552(3) 0.91826(16) 0.8145(3)
O11 O 1.9255(3) 1.00139(16) 0.7300(3)
O12 O 1.5412(3) 0.89388(16) 0.6873(2)
O13 O 1.3156(3) 0.9695(2) 0.4696(3)
O14 O 1.3518(3) 0.96783(16) 0.6415(2)
O15 O 1.7821(3) 0.59160(19) 0.9737(3)
H11 H 1.7900 0.5538 1.0089
H12 H 1.7300 0.6153 0.9852
O16 O 0.7152(3) 0.41725(18) 0.5314(2)
H13 H 0.6471 0.4109 0.5307
H14 H 0.7344 0.3753 0.5245
O17 O 1.6434(3) 0.50799(15) 0.6731(2)
H15 H 1.6119 0.5341 0.6194
O18 O 1.1130(3) 0.61339(18) 0.9025(3)
H16 H 1.1056 0.5981 0.9582
H17 H 1.1749 0.5969 0.8985
O19 O 1.5924(3) 0.92914(19) 0.9348(3)
H18 H 1.6454 0.9035 0.9282
H19 H 1.6216 0.9679 0.9634
O20 O 1.8640(3) 0.52290(15) 0.8181(2)
H20 H 1.8997 0.4984 0.8727
Ni1A Ni 1.29068(5) 1.06187(3) 0.68503(5)
Ni2A Ni 1.20496(5) 0.96399(3) 0.81862(4)
Ni2A_2 Ni 2.20496(5) 0.96399(3) 0.81862(4)
Ni2_2 Ni 1.79504(5) 0.46399(3) 0.68138(4)
Ni3A Ni 1.53052(5) 0.44804(3) 0.71000(5)
Ni4_2 Ni 1.97072(5) 0.58197(3) 0.77030(5)
Ni4A Ni 2.02928(5) 1.08197(3) 0.72970(5)
O4A O 0.7846(3) 0.37224(16) 0.7562(3)
O7A O 1.5748(3) 1.03000(16) 0.7922(3)
O8_2 O 0.9118(3) 0.67592(16) 0.7906(3)
O10A O 0.9448(3) 0.41826(16) 0.6855(3)
O11A O 1.0745(3) 0.50139(16) 0.7700(3)
O14A O 1.6482(3) 0.46783(16) 0.8585(2)
O17_2 O 0.6434(3) 0.50799(15) 0.6731(2)
O17A O 1.3566(3) 1.00799(15) 0.8269(2)
H15_2 H 0.6119 0.5341 0.6194
H15A H 1.3881 1.0341 0.8806
O20_2 O 0.8640(3) 0.52290(15) 0.8181(2)
H20_2 H 0.8997 0.4984 0.8727
O21 O 0.4679(6) 0.3318(3) 0.4471(4)
H21 H 0.4352 0.3380 0.3807
H22 H 0.4531 0.3665 0.4792
O22 O 0.3651(6) 0.2197(4) 0.5302(4)
H23 H 0.3764 0.2430 0.4819
H24 H 0.4172 0.1900 0.5565
O23 O 0.8220(6) 0.2400(3) 0.0475(4)
H25 H 0.7821 0.2739 0.0113
H26 H 0.8897 0.2546 0.0850
O24 O 0.9810(3) 0.3946(2) 0.9420(3)
H27 H 1.0286 0.4150 0.9199
H28 H 0.9502 0.3629 0.8967
loop_
_geom_bond_atom_site_label_1
_geom_bond_atom_site_label_2
_geom_bond_site_symmetry_1
_geom_bond_site_symmetry_2
C1 H1 1_555 1_555
C2 C1 1_555 1_555
C3 C2 1_555 1_555
H2 C3 1_555 1_555
C4 C3 1_555 1_555
C5 C4 1_555 1_555
H3 C5 1_555 1_555
C6 C1 1_555 1_555
C7 H4 1_555 1_555
H5 C7 1_555 1_555
C8 C7 1_555 1_555
C9 C6 1_555 1_555
C10 C2 1_555 1_555
C11 C12 1_555 1_555
C12 H6 1_555 1_555
C13 C12 1_555 1_555
C14 C13 1_555 1_555
H7 C14 1_555 1_555
C15 C14 1_555 1_555
C16 C11 1_555 1_555
H8 C16 1_555 1_555
C17 H9 1_555 1_555
H10 C17 1_555 1_555
C18 C17 1_555 1_555
C19 C11 1_555 1_555
C20 C13 1_555 1_555
Ni1 O6 1_555 1_555
Ni2 O3 1_555 1_555
Ni3 O5 1_555 1_555
Ni4 O1 1_555 1_555
O1 C4 1_555 1_555
O2 C8 1_555 1_555
O3 C8 1_555 1_555
O4 C9 1_555 1_555
O5 C9 1_555 1_555
O6 C10 1_555 1_555
O7 C10 1_555 1_555
O8 C20 1_555 1_555
O9 C20 1_555 1_555
O10 C19 1_555 1_555
O11 C19 1_555 1_555
O12 C15 1_555 1_555
O13 C18 1_555 1_555
O14 C18 1_555 1_555
O15 Ni1 1_555 1_555
H11 O15 1_555 1_555
H12 O15 1_555 1_555
O16 Ni2 1_555 1_555
H13 O16 1_555 1_555
H14 O16 1_555 1_555
O17 Ni1 1_555 1_555
H15 O17 1_555 1_555
O18 Ni4 1_555 1_555
H16 O18 1_555 1_555
H17 O18 1_555 1_555
O19 Ni3 1_555 1_555
H18 O19 1_555 1_555
H19 O19 1_555 1_555
O20 Ni1 1_555 1_555
H20 O20 1_555 1_555
O21 H21 1_555 1_555
H22 O21 1_555 1_555
O22 H23 1_555 1_555
H24 O22 1_555 1_555
O23 H25 1_555 1_555
H26 O23 1_555 1_555
O24 H27 1_555 1_555
H28 O24 1_555 1_555
Ni1A O14 1_555 1_555
Ni2A O4 1_555 1_555
Ni2A_2 O10 1_555 1_555
Ni2_2 O17 1_555 1_555
Ni3A O7 1_555 1_555
Ni4_2 O8 1_555 1_555
Ni4A O11 1_555 1_555
O4A Ni2 1_555 1_555
O7A Ni3 1_555 1_555
O8_2 Ni4 1_555 1_555
O10A Ni2 1_555 1_555
O11A Ni4 1_555 1_555
O14A Ni1 1_555 1_555
O17_2 Ni2 1_555 1_555
O17A Ni3 1_555 1_555
H15_2 O17_2 1_555 1_555
H15A O17A 1_555 1_555
O20_2 Ni2 1_555 1_555
H20_2 O20_2 1_555 1_555
C5 C6 1_555 1_555
C7 O1 1_555 1_555
C15 C16 1_555 1_555
C17 O12 1_555 1_555
Ni1 O9 1_555 1_555
Ni3 O12 1_555 1_555
Ni3 O14 1_555 1_555
Ni4 O3 1_555 1_555
Ni4 O20_2 1_555 1_555
O17 Ni3A 1_555 1_555
O20 Ni2_2 1_555 1_555
O20 Ni4_2 1_555 1_555
Ni1A O17A 1_555 1_555
Ni2A O17A 1_555 1_555
Ni3A O14A 1_555 1_555

#END
