
#######################################################################
#
#                 Cambridge Crystallographic Data Centre
#                                CCDC 
#
#######################################################################
#
# If this CIF has been generated from an entry in the Cambridge 
# Structural Database, then it will include bibliographic, chemical, 
# crystal, experimental, refinement or atomic coordinate data resulting 
# from the CCDC's data processing and validation procedures.
#
#######################################################################

data_PUQJAN
_symmetry_cell_setting           monoclinic
_symmetry_space_group_name_H-M   'P 21'
_symmetry_Int_Tables_number      4
_space_group_name_Hall           'P 2yb'
loop_
_symmetry_equiv_pos_site_id
_symmetry_equiv_pos_as_xyz
1 x,y,z
2 -x,1/2+y,-z
_cell_length_a                   13.7493(7)
_cell_length_b                   17.5847(8)
_cell_length_c                   14.0579(8)
_cell_angle_alpha                90
_cell_angle_beta                 94.540(3)
_cell_angle_gamma                90
_cell_volume                     3388.22
loop_
_atom_site_label
_atom_site_type_symbol
_atom_site_fract_x
_atom_site_fract_y
_atom_site_fract_z
U1 U 0.65841(6) 0.98598(4) 0.86460(6)
O1 O 0.7411(6) 0.9880(7) 0.9671(6)
O2 O 0.5746(6) 0.9859(7) 0.7674(6)
O3 O 0.7833(8) 0.9099(7) 0.8015(9)
O4 O 0.8411(11) 0.8291(8) 0.7034(11)
O5 O 0.6884(9) 0.8435(9) 0.7066(8)
O6 O 0.5111(6) 0.9806(7) 0.9479(6)
O7 O 0.7541(10) 1.0736(7) 0.7859(11)
O8 O 0.6248(8) 0.8570(5) 0.9012(8)
O9 O 0.3939(7) 0.6122(5) 1.0941(6)
O10 O 0.3802(6) 0.9208(5) 0.8088(6)
O11 O 0.1644(7) 0.6561(7) 0.9530(7)
O12 O 0.1967(7) 1.0540(5) 0.8779(7)
O13 O -0.0012(8) 0.7727(5) 1.0372(7)
O14 O 0.2094(6) 1.1519(5) 1.1031(7)
O15 O 0.0297(8) 0.8716(6) 1.2785(7)
O16 O 0.4125(6) 1.1369(5) 1.2972(6)
O17 O 0.2210(7) 0.8706(5) 1.4908(7)
O18 O 0.6485(7) 1.0389(5) 1.3203(6)
O19 O 0.4610(8) 0.7693(5) 1.5208(7)
O20 O 0.7202(7) 0.9126(6) 1.1515(7)
O21 O 0.5306(7) 0.6589(6) 1.3402(7)
N1 N 0.7723(8) 0.8571(7) 0.7426(8)
N2 N 0.6419(7) 0.7497(5) 0.9954(7)
N3 N 0.5293(8) 0.7503(6) 0.8719(7)
N4 N 0.4420(8) 0.6488(5) 0.9455(7)
N5 N 0.5495(7) 0.6506(6) 1.0716(7)
N6 N 0.3747(9) 0.7872(6) 0.7878(9)
N7 N 0.2370(8) 0.8524(7) 0.7801(8)
N8 N 0.1469(9) 0.7432(7) 0.8328(9)
N9 N 0.2896(9) 0.6855(7) 0.8571(9)
N10 N 0.1172(9) 0.9426(6) 0.8353(10)
N11 N 0.0602(8) 1.0113(6) 0.9491(8)
N12 N -0.0193(9) 0.9018(7) 1.0143(8)
N13 N 0.0330(9) 0.8309(6) 0.8954(8)
N14 N 0.0633(8) 1.0811(7) 1.0994(8)
N15 N 0.1450(8) 1.1075(6) 1.2396(8)
N16 N 0.0707(7) 0.9955(6) 1.3103(6)
N17 N 0.0029(8) 0.9657(6) 1.1651(8)
N18 N 0.2710(8) 1.1030(6) 1.3653(7)
N19 N 0.4163(7) 1.0705(6) 1.4405(7)
N20 N 0.3415(7) 0.9636(5) 1.5142(7)
N21 N 0.1980(7) 0.9954(6) 1.4420(7)
N22 N 0.5687(8) 1.0008(5) 1.4504(7)
N23 N 0.6889(8) 0.9286(6) 1.4076(8)
N24 N 0.6069(8) 0.8222(6) 1.4796(7)
N25 N 0.4964(8) 0.8985(6) 1.5340(9)
N26 N 0.7388(8) 0.8390(6) 1.2875(8)
N27 N 0.7240(9) 0.7810(7) 1.1479(9)
N28 N 0.6346(9) 0.6806(7) 1.2198(10)
N29 N 0.6681(9) 0.7326(7) 1.3654(9)
C1 C 0.6005(10) 0.7943(7) 0.9185(9)
C2 C 0.5292(9) 0.6711(6) 0.9059(9)
H1 H 0.5460 0.6357 0.8558
C3 C 0.6068(9) 0.6702(6) 0.9904(9)
H2 H 0.6592 0.6337 0.9818
C4 C 0.4561(9) 0.6358(6) 1.0404(9)
C5 C 0.4796(9) 0.7767(8) 0.7840(9)
H3 H 0.4906 0.7405 0.7340
H4 H 0.5081 0.8247 0.7668
C6 C 0.3503(11) 0.6248(7) 0.8885(10)
H5 H 0.3677 0.5962 0.8334
H6 H 0.3139 0.5912 0.9273
C7 C 0.3354(9) 0.8612(7) 0.7959(8)
C8 C 0.2051(11) 0.7778(8) 0.7614(10)
H7 H 0.1751 0.7716 0.6963
C9 C 0.3035(11) 0.7331(8) 0.7783(11)
H8 H 0.3131 0.7016 0.7222
C10 C 0.1967(10) 0.6924(8) 0.8889(10)
C11 C 0.1723(10) 0.9209(8) 0.7572(9)
H9 H 0.2127 0.9634 0.7406
H10 H 0.1277 0.9094 0.7021
C12 C 0.0466(10) 0.7632(8) 0.8394(10)
H11 H 0.0137 0.7210 0.8676
H12 H 0.0161 0.7709 0.7756
C13 C 0.1318(10) 1.0056(7) 0.8862(10)
C14 C -0.0132(10) 0.9582(7) 0.9308(10)
H13 H -0.0762 0.9816 0.9109
C15 C 0.0242(9) 0.9071(9) 0.8545(9)
H14 H -0.0211 0.9071 0.7971
C16 C 0.0024(9) 0.8300(9) 0.9859(10)
C17 C 0.0411(10) 1.0850(7) 0.9955(9)
H15 H 0.0807 1.1243 0.9694
H16 H -0.0269 1.0987 0.9817
C18 C -0.0619(10) 0.9219(10) 1.0965(10)
H17 H -0.0825 0.8761 1.1276
H18 H -0.1198 0.9520 1.0791
C19 C 0.1497(9) 1.1192(7) 1.1430(9)
C20 C 0.0551(10) 1.0707(7) 1.2646(10)
H19 H 0.0144 1.1043 1.3005
C21 C 0.0058(9) 1.0496(8) 1.1644(9)
H20 H -0.0605 1.0705 1.1562
C22 C 0.0357(10) 0.9365(7) 1.2563(10)
C23 C 0.2058(10) 1.1498(7) 1.3054(10)
H21 H 0.1654 1.1793 1.3453
H22 H 0.2439 1.1852 1.2706
C24 C 0.0931(8) 0.9873(10) 1.4133(7)
H23 H 0.0714 0.9376 1.4330
H24 H 0.0572 1.0253 1.4461
C25 C 0.3698(8) 1.1084(7) 1.3594(9)
C26 C 0.3476(9) 1.0458(7) 1.5056(9)
H25 H 0.3587 1.0706 1.5680
C27 C 0.2447(11) 1.0671(8) 1.4545(9)
H26 H 0.2082 1.1018 1.4931
C28 C 0.2491(9) 0.9341(9) 1.4812(9)
C29 C 0.5204(9) 1.0760(7) 1.4631(10)
H27 H 0.5334 1.0928 1.5286
H28 H 0.5475 1.1134 1.4219
C30 C 0.4069(9) 0.9197(7) 1.5757(8)
H29 H 0.3737 0.8738 1.5936
H30 H 0.4236 0.9486 1.6335
C31 C 0.6383(8) 0.9976(6) 1.3851(8)
C32 C 0.6589(10) 0.8939(8) 1.4894(10)
H31 H 0.7144 0.8890 1.5372
C33 C 0.5816(9) 0.9467(7) 1.5270(9)
H32 H 0.6037 0.9705 1.5880
C34 C 0.5200(11) 0.8243(7) 1.5151(9)
C35 C 0.7659(9) 0.9006(8) 1.3537(9)
H33 H 0.8188 0.8831 1.3980
H34 H 0.7905 0.9426 1.3179
C36 C 0.6574(10) 0.7491(8) 1.4671(9)
H35 H 0.7214 0.7508 1.5014
H36 H 0.6206 0.7084 1.4941
C37 C 0.7254(9) 0.8507(7) 1.1926(9)
C38 C 0.7309(10) 0.7226(8) 1.2173(10)
H37 H 0.7843 0.6874 1.2066
C39 C 0.7466(9) 0.7605(8) 1.3140(9)
H38 H 0.8105 0.7483 1.3462
C40 C 0.6028(10) 0.6877(7) 1.3123(8)
C41 C 0.7342(10) 0.7714(8) 1.0481(9)
H39 H 0.7828 0.7326 1.0394
H40 H 0.7573 0.8186 1.0221
C42 C 0.5975(10) 0.6239(8) 1.1615(9)
H41 H 0.5509 0.5949 1.1952
H42 H 0.6501 0.5898 1.1479
U1A U 0.34159(6) 0.48598(4) 1.13540(6)
O9A O 0.6061(7) 1.1122(5) 0.9059(6)
Re1 Re 0.99938(7) 0.75641(6) 0.51201(7)
O22 O 0.9862(19) 0.8517(6) 0.5364(14)
O23 O 0.8902(12) 0.7130(15) 0.4762(16)
O24 O 1.0518(13) 0.7117(10) 0.6162(9)
O25 O 1.0665(14) 0.7408(8) 0.4152(11)
O26 O -0.0388(9) 0.7194(8) 1.2199(9)
O27 O 0.5255(10) 0.9579(9) 1.1326(9)
O28 O 0.8369(9) 1.0881(7) 1.3016(11)
O29 O 0.9520(15) 1.0018(15) 0.5984(14)
O30 O 0.2774(10) 0.7155(9) 1.5446(10)
loop_
_geom_bond_atom_site_label_1
_geom_bond_atom_site_label_2
_geom_bond_site_symmetry_1
_geom_bond_site_symmetry_2
U1 O1 1_555 1_555
O2 U1 1_555 1_555
O3 U1 1_555 1_555
O4 N1 1_555 1_555
O5 N1 1_555 1_555
O6 U1 1_555 1_555
O7 U1 1_555 1_555
O8 U1 1_555 1_555
O9 C4 1_555 1_555
O10 C7 1_555 1_555
O11 C10 1_555 1_555
O12 C13 1_555 1_555
O13 C16 1_555 1_555
O14 C19 1_555 1_555
O15 C22 1_555 1_555
O16 C25 1_555 1_555
O17 C28 1_555 1_555
O18 C31 1_555 1_555
O19 C34 1_555 1_555
O20 C37 1_555 1_555
O21 C40 1_555 1_555
N1 O3 1_555 1_555
N2 C1 1_555 1_555
N3 C1 1_555 1_555
N4 C2 1_555 1_555
N5 C3 1_555 1_555
N6 C5 1_555 1_555
N7 C7 1_555 1_555
N8 C8 1_555 1_555
N9 C6 1_555 1_555
N10 C11 1_555 1_555
N11 C13 1_555 1_555
N12 C14 1_555 1_555
N13 C12 1_555 1_555
N14 C17 1_555 1_555
N15 C19 1_555 1_555
N16 C20 1_555 1_555
N17 C18 1_555 1_555
N18 C23 1_555 1_555
N19 C25 1_555 1_555
N20 C26 1_555 1_555
N21 C24 1_555 1_555
N22 C29 1_555 1_555
N23 C31 1_555 1_555
N24 C32 1_555 1_555
N25 C30 1_555 1_555
N26 C35 1_555 1_555
N27 C37 1_555 1_555
N28 C38 1_555 1_555
N29 C36 1_555 1_555
C1 O8 1_555 1_555
C2 N3 1_555 1_555
H1 C2 1_555 1_555
C3 N2 1_555 1_555
H2 C3 1_555 1_555
C4 N4 1_555 1_555
C5 N3 1_555 1_555
H3 C5 1_555 1_555
H4 C5 1_555 1_555
C6 N4 1_555 1_555
H5 C6 1_555 1_555
H6 C6 1_555 1_555
C7 N6 1_555 1_555
C8 N7 1_555 1_555
H7 C8 1_555 1_555
C9 N6 1_555 1_555
H8 C9 1_555 1_555
C10 N8 1_555 1_555
C11 N7 1_555 1_555
H9 C11 1_555 1_555
H10 C11 1_555 1_555
C12 N8 1_555 1_555
H11 C12 1_555 1_555
H12 C12 1_555 1_555
C13 N10 1_555 1_555
C14 N11 1_555 1_555
H13 C14 1_555 1_555
C15 N10 1_555 1_555
H14 C15 1_555 1_555
C16 N12 1_555 1_555
C17 N11 1_555 1_555
H15 C17 1_555 1_555
H16 C17 1_555 1_555
C18 N12 1_555 1_555
H17 C18 1_555 1_555
H18 C18 1_555 1_555
C19 N14 1_555 1_555
C20 N15 1_555 1_555
H19 C20 1_555 1_555
C21 N14 1_555 1_555
H20 C21 1_555 1_555
C22 N16 1_555 1_555
C23 N15 1_555 1_555
H21 C23 1_555 1_555
H22 C23 1_555 1_555
C24 N16 1_555 1_555
H23 C24 1_555 1_555
H24 C24 1_555 1_555
C25 N18 1_555 1_555
C26 N19 1_555 1_555
H25 C26 1_555 1_555
C27 N18 1_555 1_555
H26 C27 1_555 1_555
C28 N20 1_555 1_555
C29 N19 1_555 1_555
H27 C29 1_555 1_555
H28 C29 1_555 1_555
C30 N20 1_555 1_555
H29 C30 1_555 1_555
H30 C30 1_555 1_555
C31 N22 1_555 1_555
C32 N23 1_555 1_555
H31 C32 1_555 1_555
C33 N22 1_555 1_555
H32 C33 1_555 1_555
C34 N24 1_555 1_555
C35 N23 1_555 1_555
H33 C35 1_555 1_555
H34 C35 1_555 1_555
C36 N24 1_555 1_555
H35 C36 1_555 1_555
H36 C36 1_555 1_555
C37 N26 1_555 1_555
C38 N27 1_555 1_555
H37 C38 1_555 1_555
C39 N26 1_555 1_555
H38 C39 1_555 1_555
C40 N28 1_555 1_555
C41 N2 1_555 1_555
H39 C41 1_555 1_555
H40 C41 1_555 1_555
C42 N5 1_555 1_555
H41 C42 1_555 1_555
H42 C42 1_555 1_555
Re1 O22 1_555 1_555
O23 Re1 1_555 1_555
O24 Re1 1_555 1_555
O25 Re1 1_555 1_555
U1A O9 1_555 1_555
O9A U1 1_555 1_555
N5 C4 1_555 1_555
N9 C9 1_555 1_555
N9 C10 1_555 1_555
N13 C15 1_555 1_555
N13 C16 1_555 1_555
N17 C21 1_555 1_555
N17 C22 1_555 1_555
N21 C27 1_555 1_555
N21 C28 1_555 1_555
N25 C33 1_555 1_555
N25 C34 1_555 1_555
N27 C41 1_555 1_555
N28 C42 1_555 1_555
N29 C39 1_555 1_555
N29 C40 1_555 1_555
C2 C3 1_555 1_555
C8 C9 1_555 1_555
C14 C15 1_555 1_555
C20 C21 1_555 1_555
C26 C27 1_555 1_555
C32 C33 1_555 1_555
C38 C39 1_555 1_555

#END
