
#######################################################################
#
#                 Cambridge Crystallographic Data Centre
#                                CCDC 
#
#######################################################################
#
# If this CIF has been generated from an entry in the Cambridge 
# Structural Database, then it will include bibliographic, chemical, 
# crystal, experimental, refinement or atomic coordinate data resulting 
# from the CCDC's data processing and validation procedures.
#
#######################################################################

data_PUQJOB
_symmetry_cell_setting           monoclinic
_symmetry_space_group_name_H-M   'P 21/c'
_symmetry_Int_Tables_number      14
_space_group_name_Hall           '-P 2ybc'
loop_
_symmetry_equiv_pos_site_id
_symmetry_equiv_pos_as_xyz
1 x,y,z
2 -x,1/2+y,1/2-z
3 -x,-y,-z
4 x,1/2-y,1/2+z
_cell_length_a                   12.7269(5)
_cell_length_b                   15.9343(7)
_cell_length_c                   16.6695(4)
_cell_angle_alpha                90
_cell_angle_beta                 91.641(3)
_cell_angle_gamma                90
_cell_volume                     3379.09
loop_
_atom_site_label
_atom_site_type_symbol
_atom_site_fract_x
_atom_site_fract_y
_atom_site_fract_z
U1 U 0.675112(15) 0.955246(13) 0.692502(11)
O1 O 0.5615(3) 0.9677(3) 0.7496(2)
O2 O 0.7851(3) 0.9434(3) 0.6317(2)
O3 O 0.6560(3) 1.0959(2) 0.6524(2)
O4 O 0.5325(3) 1.1918(3) 0.6254(2)
O5 O 0.4056(3) 1.1601(2) 0.3696(2)
O6 O 0.5122(3) 1.2271(3) 0.4582(2)
O7 O 0.7802(3) 1.0329(2) 0.7845(2)
O8 O 0.9864(3) 1.2623(3) 1.0335(2)
O9 O 1.0381(3) 0.9700(3) 0.7227(2)
O10 O 1.2417(3) 1.2073(3) 0.9645(2)
O11 O 1.1506(3) 0.8220(3) 0.8221(2)
O12 O 1.3721(3) 1.0630(3) 1.0533(2)
O13 O 0.7422(3) 0.8506(3) 0.7809(2)
H1 H 0.8043 0.8610 0.8022
H2 H 0.7022 0.8539 0.8217
N1 N 0.5530(3) 0.9845(3) 0.5698(3)
N2 N 0.7457(3) 1.1400(3) 0.8739(3)
N3 N 0.8797(3) 1.1538(3) 0.7931(3)
N4 N 0.9669(3) 1.2398(3) 0.8962(3)
N5 N 0.8258(3) 1.2368(3) 0.9709(2)
N6 N 1.0547(3) 1.1107(3) 0.7557(3)
N7 N 1.1990(4) 1.0324(3) 0.7511(3)
N8 N 1.2776(4) 1.1231(3) 0.8545(3)
N9 N 1.1409(4) 1.2100(3) 0.8477(3)
N10 N 1.2800(3) 0.9238(3) 0.8326(3)
N11 N 1.2779(3) 0.8214(3) 0.9224(3)
N12 N 1.3531(4) 0.9230(3) 1.0188(3)
N13 N 1.3831(4) 1.0152(3) 0.9219(3)
C1 C 0.5353(4) 1.0640(3) 0.5481(3)
C2 C 0.5761(4) 1.1244(4) 0.6121(3)
C3 C 0.4816(4) 1.0808(4) 0.4746(3)
C4 C 0.4661(4) 1.1652(4) 0.4334(3)
C5 C 0.8002(4) 1.1028(4) 0.8143(3)
C6 C 0.8814(4) 1.2321(4) 0.8374(3)
H3 H 0.8773 1.2808 0.8016
C7 C 0.7825(4) 1.2251(4) 0.8903(3)
H4 H 0.7292 1.2673 0.8761
C8 C 0.9319(4) 1.2477(4) 0.9733(3)
C9 C 0.9502(4) 1.1355(4) 0.7277(3)
H5 H 0.9201 1.0907 0.6950
H6 H 0.9558 1.1849 0.6941
C10 C 1.0689(4) 1.2737(4) 0.8735(3)
H7 H 1.0578 1.3140 0.8304
H8 H 1.1002 1.3034 0.9190
C11 C 1.0912(4) 1.0308(4) 0.7416(3)
C12 C 1.2386(4) 1.1146(3) 0.7721(3)
H9 H 1.2906 1.1339 0.7340
C13 C 1.1392(4) 1.1713(4) 0.7696(3)
H10 H 1.1416 1.2130 0.7265
C14 C 1.2219(4) 1.1825(4) 0.8962(3)
C15 C 1.2628(4) 0.9581(4) 0.7523(3)
H11 H 1.3303 0.9711 0.7298
H12 H 1.2291 0.9158 0.7186
C16 C 1.3808(4) 1.0970(4) 0.8829(3)
H13 H 1.4082 1.1385 0.9206
H14 H 1.4272 1.0955 0.8378
C17 C 1.2276(4) 0.8532(4) 0.8558(3)
C18 C 1.3688(4) 0.8713(4) 0.9480(3)
H15 H 1.4325 0.8370 0.9535
C19 C 1.3773(4) 0.9373(4) 0.8800(3)
H16 H 1.4396 0.9280 0.8480
C20 C 1.3681(4) 1.0077(4) 1.0031(3)
C21 C 0.7588(4) 1.2537(4) 1.0379(3)
H17 H 0.7974 1.2880 1.0768
H18 H 0.6984 1.2858 1.0188
C22 C 0.6445(4) 1.1095(4) 0.9005(3)
H19 H 0.6200 1.0657 0.8642
H20 H 0.5941 1.1552 0.8971
U1B U 0.324888(15) 1.044754(13) 0.307498(11)
U1B_2 U 1.324888(15) 1.044754(13) 1.307498(11)
O1B O 0.4385(3) 1.0323(3) 0.2504(2)
O2B O 0.2149(3) 1.0566(3) 0.3683(2)
O3B O 0.3440(3) 0.9041(2) 0.3476(2)
O4B O 0.4675(3) 0.8082(3) 0.3746(2)
O5B O 0.5944(3) 0.8399(2) 0.6304(2)
O6B O 0.4878(3) 0.7729(3) 0.5418(2)
O7B O 1.2198(3) 0.9671(2) 1.2155(2)
O7B_2 O 0.2198(3) 0.9671(2) 0.2155(2)
O8B O 1.0136(3) 0.7377(3) 0.9665(2)
O9B O 0.9619(3) 1.0300(3) 1.2773(2)
O10B O 0.7583(3) 0.7927(3) 1.0355(2)
O11B O 0.8494(3) 1.1780(3) 1.1779(2)
O12B O 0.6279(3) 0.9370(3) 0.9467(2)
O13B O 0.2578(3) 1.1494(3) 0.2191(2)
H1B H 0.1957 1.1390 0.1978
H2B H 0.2978 1.1461 0.1783
N1B N 0.4470(3) 1.0155(3) 0.4302(3)
N2B N 1.2543(3) 0.8600(3) 1.1261(3)
N3B N 1.1203(3) 0.8462(3) 1.2069(3)
N4B N 1.0331(3) 0.7602(3) 1.1038(3)
N5B N 1.1742(3) 0.7632(3) 1.0291(2)
N6B N 0.9453(3) 0.8893(3) 1.2443(3)
N7B N 0.8010(4) 0.9676(3) 1.2489(3)
N8B N 0.7224(4) 0.8769(3) 1.1455(3)
N9B N 0.8591(4) 0.7900(3) 1.1523(3)
N10B N 0.7200(3) 1.0762(3) 1.1674(3)
N11B N 0.7221(3) 1.1786(3) 1.0776(3)
N12B N 0.6469(4) 1.0770(3) 0.9812(3)
N13B N 0.6169(4) 0.9848(3) 1.0781(3)
C1B C 0.4647(4) 0.9360(3) 0.4519(3)
C2B C 0.4239(4) 0.8756(4) 0.3879(3)
C3B C 0.5184(4) 0.9192(4) 0.5254(3)
C4B C 0.5339(4) 0.8348(4) 0.5666(3)
C5B C 1.1998(4) 0.8972(4) 1.1857(3)
C6B C 1.1186(4) 0.7679(4) 1.1626(3)
H3B H 1.1227 0.7192 1.1984
C7B C 1.2175(4) 0.7749(4) 1.1097(3)
H4B H 1.2708 0.7327 1.1239
C8B C 1.0681(4) 0.7523(4) 1.0267(3)
C9B C 1.0498(4) 0.8645(4) 1.2723(3)
H5B H 1.0799 0.9093 1.3050
H6B H 1.0442 0.8151 1.3059
C10B C 0.9311(4) 0.7263(4) 1.1265(3)
H7B H 0.9422 0.6860 1.1696
H8B H 0.8998 0.6966 1.0810
C11B C 0.9088(4) 0.9692(4) 1.2584(3)
C12B C 0.7614(4) 0.8854(3) 1.2279(3)
H9B H 0.7094 0.8661 1.2660
C13B C 0.8608(4) 0.8287(4) 1.2304(3)
H10B H 0.8584 0.7870 1.2735
C14B C 0.7781(4) 0.8175(4) 1.1038(3)
C15B C 0.7372(4) 1.0419(4) 1.2477(3)
H11B H 0.6697 1.0289 1.2702
H12B H 0.7709 1.0842 1.2814
C16B C 0.6192(4) 0.9030(4) 1.1171(3)
H13B H 0.5918 0.8615 1.0794
H14B H 0.5728 0.9045 1.1622
C17B C 0.7724(4) 1.1468(4) 1.1442(3)
C18B C 0.6312(4) 1.1287(4) 1.0520(3)
H15B H 0.5675 1.1630 1.0465
C19B C 0.6227(4) 1.0627(4) 1.1200(3)
H16B H 0.5604 1.0720 1.1520
C20B C 0.6319(4) 0.9923(4) 0.9969(3)
C21B C 1.2412(4) 0.7463(4) 0.9621(3)
H17B H 1.2026 0.7120 0.9232
H18B H 1.3016 0.7142 0.9812
C22B C 1.3555(4) 0.8905(4) 1.0995(3)
H19B H 1.3800 0.9343 1.1358
H20B H 1.4059 0.8448 1.1029
O14 O 0.9327(3) 0.8552(3) 0.8399(3)
H21 H 0.9682 0.8199 0.8738
H22 H 0.9690 0.8823 0.8123
O15 O 0.3411(4) 1.2635(3) 0.6063(3)
H23 H 0.4010 1.2443 0.6083
H24 H 0.3260 1.2879 0.5577
O16 O 0.5940(3) 1.2812(3) 0.7685(2)
H25 H 0.5728 1.2489 0.7312
H26 H 0.5312 1.3016 0.7842
O17 O 0.1719(4) 1.1466(4) 0.5851(3)
H27 H 0.2283 1.1757 0.5773
H28 H 0.1788 1.1320 0.6348
O18 O 1.0971(8) 0.9207(6) 0.5666(6)
O19 O 1.3004(8) 0.9981(7) 0.5699(5)
O20? O 1.2190(12) 0.9841(9) 0.5438(7)
loop_
_geom_bond_atom_site_label_1
_geom_bond_atom_site_label_2
_geom_bond_site_symmetry_1
_geom_bond_site_symmetry_2
U1 O1 1_555 1_555
O2 U1 1_555 1_555
O3 U1 1_555 1_555
O4 C2 1_555 1_555
O5 C4 1_555 1_555
O6 C4 1_555 1_555
O7 U1 1_555 1_555
O8 C8 1_555 1_555
O9 C11 1_555 1_555
O10 C14 1_555 1_555
O11 C17 1_555 1_555
O12 C20 1_555 1_555
O13 U1 1_555 1_555
H1 O13 1_555 1_555
H2 O13 1_555 1_555
N1 U1 1_555 1_555
N2 C5 1_555 1_555
N3 C5 1_555 1_555
N4 C6 1_555 1_555
N5 C7 1_555 1_555
N6 C9 1_555 1_555
N7 C11 1_555 1_555
N8 C12 1_555 1_555
N9 C10 1_555 1_555
N10 C15 1_555 1_555
N11 C17 1_555 1_555
N12 C18 1_555 1_555
N13 C16 1_555 1_555
C1 N1 1_555 1_555
C2 O3 1_555 1_555
C3 C1 1_555 1_555
C4 C3 1_555 1_555
C5 O7 1_555 1_555
C6 N3 1_555 1_555
H3 C6 1_555 1_555
C7 N2 1_555 1_555
H4 C7 1_555 1_555
C8 N4 1_555 1_555
C9 N3 1_555 1_555
H5 C9 1_555 1_555
H6 C9 1_555 1_555
C10 N4 1_555 1_555
H7 C10 1_555 1_555
H8 C10 1_555 1_555
C11 N6 1_555 1_555
C12 N7 1_555 1_555
H9 C12 1_555 1_555
C13 N6 1_555 1_555
H10 C13 1_555 1_555
C14 N8 1_555 1_555
C15 N7 1_555 1_555
H11 C15 1_555 1_555
H12 C15 1_555 1_555
C16 N8 1_555 1_555
H13 C16 1_555 1_555
H14 C16 1_555 1_555
C17 N10 1_555 1_555
C18 N11 1_555 1_555
H15 C18 1_555 1_555
C19 N10 1_555 1_555
H16 C19 1_555 1_555
C20 N12 1_555 1_555
C21 N5 1_555 1_555
H17 C21 1_555 1_555
H18 C21 1_555 1_555
C22 N2 1_555 1_555
H19 C22 1_555 1_555
H20 C22 1_555 1_555
O14 H21 1_555 1_555
H22 O14 1_555 1_555
O15 H23 1_555 1_555
H24 O15 1_555 1_555
O16 H25 1_555 1_555
H26 O16 1_555 1_555
O17 H27 1_555 1_555
H28 O17 1_555 1_555
U1B O5 1_555 1_555
U1B_2 O7B 1_555 1_555
O1B U1B 1_555 1_555
O2B U1B 1_555 1_555
O3B U1B 1_555 1_555
O4B C2B 1_555 1_555
O5B U1 1_555 1_555
O6B C4B 1_555 1_555
O7B C5B 1_555 1_555
O7B_2 U1B 1_555 1_555
O8B C8B 1_555 1_555
O9B C11B 1_555 1_555
O10B C14B 1_555 1_555
O11B C17B 1_555 1_555
O12B C20B 1_555 1_555
O13B U1B 1_555 1_555
H1B O13B 1_555 1_555
H2B O13B 1_555 1_555
N1B C3 1_555 1_555
N2B C5B 1_555 1_555
N3B C5B 1_555 1_555
N4B C6B 1_555 1_555
N5B C7B 1_555 1_555
N6B C9B 1_555 1_555
N7B C11B 1_555 1_555
N8B C12B 1_555 1_555
N9B C10B 1_555 1_555
N10B C15B 1_555 1_555
N11B C21 1_555 1_555
N12B C22 1_555 1_555
N13B C16B 1_555 1_555
C1B N1B 1_555 1_555
C2B O3B 1_555 1_555
C3B N1 1_555 1_555
C4B O5B 1_555 1_555
C6B N3B 1_555 1_555
H3B C6B 1_555 1_555
C7B N2B 1_555 1_555
H4B C7B 1_555 1_555
C8B N4B 1_555 1_555
C9B N3B 1_555 1_555
H5B C9B 1_555 1_555
H6B C9B 1_555 1_555
C10B N4B 1_555 1_555
H7B C10B 1_555 1_555
H8B C10B 1_555 1_555
C11B N6B 1_555 1_555
C12B N7B 1_555 1_555
H9B C12B 1_555 1_555
C13B N6B 1_555 1_555
H10B C13B 1_555 1_555
C14B N8B 1_555 1_555
C15B N7B 1_555 1_555
H11B C15B 1_555 1_555
H12B C15B 1_555 1_555
C16B N8B 1_555 1_555
H13B C16B 1_555 1_555
H14B C16B 1_555 1_555
C17B N10B 1_555 1_555
C18B N11B 1_555 1_555
H15B C18B 1_555 1_555
C19B N10B 1_555 1_555
H16B C19B 1_555 1_555
C20B N12B 1_555 1_555
C21B N11 1_555 1_555
H17B C21B 1_555 1_555
H18B C21B 1_555 1_555
C22B N12 1_555 1_555
H19B C22B 1_555 1_555
H20B C22B 1_555 1_555
N5 C8 1_555 1_555
N9 C13 1_555 1_555
N9 C14 1_555 1_555
N13 C19 1_555 1_555
N13 C20 1_555 1_555
C1 C2 1_555 1_555
C6 C7 1_555 1_555
C12 C13 1_555 1_555
C18 C19 1_555 1_555
U1B N1B 1_555 1_555
N2B C22B 1_555 1_555
N5B C8B 1_555 1_555
N5B C21B 1_555 1_555
N9B C13B 1_555 1_555
N9B C14B 1_555 1_555
N11B C17B 1_555 1_555
N12B C18B 1_555 1_555
N13B C19B 1_555 1_555
N13B C20B 1_555 1_555
C1B C2B 1_555 1_555
C1B C3B 1_555 1_555
C3B C4B 1_555 1_555
C6B C7B 1_555 1_555
C12B C13B 1_555 1_555
C18B C19B 1_555 1_555

#END
