
#######################################################################
#
#                 Cambridge Crystallographic Data Centre
#                                CCDC 
#
#######################################################################
#
# If this CIF has been generated from an entry in the Cambridge 
# Structural Database, then it will include bibliographic, chemical, 
# crystal, experimental, refinement or atomic coordinate data resulting 
# from the CCDC's data processing and validation procedures.
#
#######################################################################

data_PUQKOB
_symmetry_cell_setting           triclinic
_symmetry_space_group_name_H-M   'P -1'
_symmetry_Int_Tables_number      2
_space_group_name_Hall           '-P 1'
loop_
_symmetry_equiv_pos_site_id
_symmetry_equiv_pos_as_xyz
1 x,y,z
2 -x,-y,-z
_cell_length_a                   5.218(2)
_cell_length_b                   6.841(3)
_cell_length_c                   9.469(4)
_cell_angle_alpha                79.30(4)
_cell_angle_beta                 87.85(4)
_cell_angle_gamma                75.85(4)
_cell_volume                     322.043
loop_
_atom_site_label
_atom_site_type_symbol
_atom_site_fract_x
_atom_site_fract_y
_atom_site_fract_z
N1 N 0.3026(3) -0.0749(3) 0.1775(2)
N2 N 0.5291(3) -0.1296(2) 0.1573(1)
N3 N 0.7569(3) -0.1866(3) 0.1405(2)
O1 O 0.2339(3) -0.2782(2) -0.0688(1)
C1 C 0.3531(3) -0.2928(2) -0.1868(2)
C2 C 0.2519(3) -0.1850(3) -0.3239(2)
C3 C 0.3984(4) -0.2093(3) -0.4439(2)
C4 C 0.6531(4) -0.3404(3) -0.4345(2)
C5 C 0.7454(4) -0.4467(3) -0.3039(2)
N4 N 0.5971(3) -0.4225(2) -0.1850(2)
Mn1 Mn 0.0000 0.0000 0.0000
H1 H 0.0841(3) -0.0971(3) -0.3317(2)
H2 H 0.3294(4) -0.1384(3) -0.5331(2)
H3 H 0.7558(4) -0.3537(3) -0.5162(2)
H4 H 0.9116(4) -0.5369(3) -0.2957(2)
H5 H 0.6608(3) -0.4931(2) -0.1037(2)
Mn1_2 Mn 1.0000 0.0000 0.0000
N1A N 0.6974(3) 0.0749(3) -0.1775(2)
N2A N 0.4709(3) 0.1296(2) -0.1573(1)
N3A N 0.2431(3) 0.1866(3) -0.1405(2)
N1A_2 N -0.3026(3) 0.0749(3) -0.1775(2)
N3_2 N -0.2431(3) -0.1866(3) 0.1405(2)
O1A O -0.2339(3) 0.2782(2) 0.0688(1)
C1A C -0.3531(3) 0.2928(2) 0.1868(2)
C2A C -0.2519(3) 0.1850(3) 0.3239(2)
C3A C -0.3984(4) 0.2093(3) 0.4439(2)
C4A C -0.6531(4) 0.3404(3) 0.4345(2)
C5A C -0.7454(4) 0.4467(3) 0.3039(2)
N4A N -0.5971(3) 0.4225(2) 0.1850(2)
H5A H -0.6608(3) 0.4931(2) 0.1037(2)
H4A H -0.9116(4) 0.5369(3) 0.2957(2)
H3A H -0.7558(4) 0.3537(3) 0.5162(2)
H2A H -0.3294(4) 0.1384(3) 0.5331(2)
H1A H -0.0841(3) 0.0971(3) 0.3317(2)
loop_
_geom_bond_atom_site_label_1
_geom_bond_atom_site_label_2
_geom_bond_site_symmetry_1
_geom_bond_site_symmetry_2
N1 N2 1_555 1_555
N2 N3 1_555 1_555
N3 Mn1_2 1_555 1_555
O1 C1 1_555 1_555
C1 C2 1_555 1_555
C2 C3 1_555 1_555
C3 C4 1_555 1_555
C4 C5 1_555 1_555
C5 N4 1_555 1_555
N4 C1 1_555 1_555
Mn1 N1 1_555 1_555
H1 C2 1_555 1_555
H2 C3 1_555 1_555
H3 C4 1_555 1_555
H4 C5 1_555 1_555
H5 N4 1_555 1_555
Mn1_2 N1A 1_555 1_555
N1A N2A 1_555 1_555
N2A N3A 1_555 1_555
N3A Mn1 1_555 1_555
N1A_2 Mn1 1_555 1_555
N3_2 Mn1 1_555 1_555
O1A Mn1 1_555 1_555
C1A O1A 1_555 1_555
C2A C1A 1_555 1_555
C3A C2A 1_555 1_555
C4A C3A 1_555 1_555
C5A C4A 1_555 1_555
N4A C1A 1_555 1_555
H5A N4A 1_555 1_555
H4A C5A 1_555 1_555
H3A C4A 1_555 1_555
H2A C3A 1_555 1_555
H1A C2A 1_555 1_555
O1 Mn1 1_555 1_555
C5A N4A 1_555 1_555

#END
