
#######################################################################
#
#                 Cambridge Crystallographic Data Centre
#                                CCDC 
#
#######################################################################
#
# If this CIF has been generated from an entry in the Cambridge 
# Structural Database, then it will include bibliographic, chemical, 
# crystal, experimental, refinement or atomic coordinate data resulting 
# from the CCDC's data processing and validation procedures.
#
#######################################################################

data_PUQKIV
_symmetry_cell_setting           monoclinic
_symmetry_space_group_name_H-M   'P 21/n'
_symmetry_Int_Tables_number      14
_space_group_name_Hall           '-P 2yn'
loop_
_symmetry_equiv_pos_site_id
_symmetry_equiv_pos_as_xyz
1 x,y,z
2 1/2-x,1/2+y,1/2-z
3 -x,-y,-z
4 1/2+x,1/2-y,1/2+z
_cell_length_a                   10.210(5)
_cell_length_b                   15.460(6)
_cell_length_c                   10.880(4)
_cell_angle_alpha                90
_cell_angle_beta                 95.86(3)
_cell_angle_gamma                90
_cell_volume                     1708.4
loop_
_atom_site_label
_atom_site_type_symbol
_atom_site_fract_x
_atom_site_fract_y
_atom_site_fract_z
Mn1 Mn 0.0009(1) 0.4981(1) 0.2490(1)
N1 N 0.1441(3) 0.5375(3) 0.1174(3)
N2 N 0.1458(3) 0.5338(2) 0.0116(3)
N3 N 0.1511(3) 0.5300(2) -0.0942(3)
N4 N 0.1547(3) 0.5240(2) 0.4066(3)
N5 N 0.1437(3) 0.5319(2) 0.5118(3)
N6 N 0.1395(3) 0.5410(2) 0.6169(3)
N7 N 0.0784(3) 0.3602(2) 0.2388(3)
C1 C 0.0049(4) 0.2971(3) 0.1867(4)
C2 C 0.0477(5) 0.2127(3) 0.1733(4)
C3 C 0.1749(5) 0.1948(3) 0.2183(4)
C4 C 0.2526(4) 0.2591(3) 0.2733(5)
C5 C 0.2009(4) 0.3403(3) 0.2813(4)
C6 C -0.0448(7) 0.1455(3) 0.1084(8)
C7 C -0.0427(8) 0.0685(5) 0.1495(10)
N8 N -0.0693(3) 0.6382(2) 0.2521(3)
C8 C -0.0526(4) 0.6880(3) 0.3535(4)
C9 C -0.0871(4) 0.7739(3) 0.3585(4)
C10 C -0.1469(4) 0.8101(3) 0.2529(5)
C11 C -0.1666(4) 0.7609(3) 0.1476(4)
C12 C -0.1254(4) 0.6766(3) 0.1506(4)
C13 C -0.0530(6) 0.8271(3) 0.4744(4)
C14 C 0.0573(8) 0.8876(5) 0.4635(6)
H1 H -0.0815(4) 0.3101(3) 0.1570(4)
H2 H 0.2084(5) 0.1393(3) 0.2117(4)
H3 H 0.3390(4) 0.2477(3) 0.3046(5)
H4 H 0.2544(4) 0.3836(3) 0.3185(4)
H5 H -0.1340(7) 0.1670(3) 0.1088(8)
H6 H -0.0264(7) 0.1429(3) 0.0227(8)
H7 H -0.0796(70) 0.0301(8) 0.0857(22)
H8 H -0.0935(63) 0.0653(12) 0.2189(44)
H9 H 0.0466(11) 0.0519(19) 0.1748(69)
H10 H -0.0149(4) 0.6625(3) 0.4261(4)
H11 H -0.1740(4) 0.8676(3) 0.2523(5)
H12 H -0.2074(4) 0.7846(3) 0.0750(4)
H13 H -0.1374(4) 0.6445(3) 0.0781(4)
H14 H -0.1300(6) 0.8597(3) 0.4922(4)
H15 H -0.0299(6) 0.7883(3) 0.5434(4)
H16 H 0.0792(32) 0.9164(23) 0.5410(14)
H17 H 0.0319(18) 0.9297(18) 0.4007(31)
H18 H 0.1325(16) 0.8560(6) 0.4416(43)
N3B N -0.1511(3) 0.4700(2) 0.0942(3)
Mn1B Mn -0.0009(1) 0.5019(1) -0.2490(1)
N6B N -0.1395(3) 0.4590(2) 0.3831(3)
Mn1B_2 Mn -0.0009(1) 0.5019(1) 0.7510(1)
loop_
_geom_bond_atom_site_label_1
_geom_bond_atom_site_label_2
_geom_bond_site_symmetry_1
_geom_bond_site_symmetry_2
Mn1 N1 1_555 1_555
N1 N2 1_555 1_555
N2 N3 1_555 1_555
N3 Mn1B 1_555 1_555
N4 Mn1 1_555 1_555
N5 N4 1_555 1_555
N6 N5 1_555 1_555
N7 Mn1 1_555 1_555
C1 N7 1_555 1_555
C2 C1 1_555 1_555
C3 C2 1_555 1_555
C4 C3 1_555 1_555
C5 N7 1_555 1_555
C6 C2 1_555 1_555
C7 C6 1_555 1_555
N8 Mn1 1_555 1_555
C8 N8 1_555 1_555
C9 C8 1_555 1_555
C10 C9 1_555 1_555
C11 C10 1_555 1_555
C12 N8 1_555 1_555
C13 C9 1_555 1_555
C14 C13 1_555 1_555
H1 C1 1_555 1_555
H2 C3 1_555 1_555
H3 C4 1_555 1_555
H4 C5 1_555 1_555
H5 C6 1_555 1_555
H6 C6 1_555 1_555
H7 C7 1_555 1_555
H8 C7 1_555 1_555
H9 C7 1_555 1_555
H10 C8 1_555 1_555
H11 C10 1_555 1_555
H12 C11 1_555 1_555
H13 C12 1_555 1_555
H14 C13 1_555 1_555
H15 C13 1_555 1_555
H16 C14 1_555 1_555
H17 C14 1_555 1_555
H18 C14 1_555 1_555
N3B Mn1 1_555 1_555
N6B Mn1 1_555 1_555
Mn1B_2 N6 1_555 1_555
C4 C5 1_555 1_555
C11 C12 1_555 1_555

#END
