
#######################################################################
#
#                 Cambridge Crystallographic Data Centre
#                                CCDC 
#
#######################################################################
#
# If this CIF has been generated from an entry in the Cambridge 
# Structural Database, then it will include bibliographic, chemical, 
# crystal, experimental, refinement or atomic coordinate data resulting 
# from the CCDC's data processing and validation procedures.
#
#######################################################################

data_PUQTEB
_symmetry_cell_setting           triclinic
_symmetry_space_group_name_H-M   'P -1'
_symmetry_Int_Tables_number      2
_space_group_name_Hall           '-P 1'
loop_
_symmetry_equiv_pos_site_id
_symmetry_equiv_pos_as_xyz
1 x,y,z
2 -x,-y,-z
_cell_length_a                   7.8154(9)
_cell_length_b                   8.6537(10)
_cell_length_c                   8.7182(10)
_cell_angle_alpha                84.306(2)
_cell_angle_beta                 75.901(2)
_cell_angle_gamma                66.299(2)
_cell_volume                     523.634
loop_
_atom_site_label
_atom_site_type_symbol
_atom_site_fract_x
_atom_site_fract_y
_atom_site_fract_z
Cd1 Cd 0.46664(5) 0.10987(4) 0.79045(4)
O1 O 0.7176(5) -0.0501(4) 0.9049(4)
O2 O 0.7230(5) -0.2922(5) 1.0145(4)
N1 N 1.2153(7) -0.7551(5) 0.6458(6)
C1 C 0.7848(6) -0.2105(6) 0.9051(5)
O3 O 1.3115(5) -0.1042(4) 0.4651(4)
C2 C 1.1505(7) -0.5754(6) 0.6459(6)
C3 C 1.2410(7) -0.4932(6) 0.5324(5)
C4 C 1.0012(7) -0.4802(6) 0.7656(6)
O4 O 1.3871(5) -0.3015(5) 0.2909(4)
O5 O 0.4621(6) -0.1337(5) 0.7203(5)
H1 H 0.5750 -0.1867 0.7366
H2 H 0.3987 -0.1305 0.6522
C5 C 0.9449(6) -0.3076(6) 0.7741(5)
C6 C 1.1913(6) -0.3212(6) 0.5420(5)
C7 C 1.0430(6) -0.2265(6) 0.6636(5)
C8 C 1.3021(6) -0.2366(6) 0.4251(5)
H3 H 1.005(7) -0.112(6) 0.653(6)
H4 H 0.941(8) -0.534(7) 0.837(6)
H5 H 1.250(8) -0.792(7) 0.544(7)
H6 H 1.149(9) -0.782(8) 0.691(8)
H7 H 1.332(7) -0.556(6) 0.457(6)
Cd1A Cd 0.53336(5) -0.10987(4) 1.20955(4)
Cd1_2 Cd 1.46664(5) -0.89013(4) 0.79045(4)
Cd1A_2 Cd 1.53336(5) -0.10987(4) 0.20955(4)
O2A O 0.2770(5) 0.2922(5) 0.9855(4)
N1_2 N 0.2153(7) 0.2449(5) 0.6458(6)
O3A O 0.6885(5) 0.1042(4) 0.5349(4)
O4A O 0.6129(5) 0.3015(5) 0.7091(4)
H5_2 H 0.250(8) 0.208(7) 0.544(7)
H6_2 H 0.149(9) 0.218(8) 0.691(8)
O6 O 0.3952(8) -0.3912(6) 0.8915(6)
H8 H 0.3272 -0.3872 0.9832
H9 H 0.4512 -0.4791 0.8346
O7 O 0.9356(7) 0.1508(7) 0.9014(6)
H10 H 0.8759 0.1291 0.8424
H11 H 0.8390 0.2188 0.9636
loop_
_geom_bond_atom_site_label_1
_geom_bond_atom_site_label_2
_geom_bond_site_symmetry_1
_geom_bond_site_symmetry_2
Cd1 O1 1_555 1_555
O1 C1 1_555 1_555
O2 C1 1_555 1_555
N1 C2 1_555 1_555
C1 C5 1_555 1_555
O3 C8 1_555 1_555
C2 C3 1_555 1_555
C3 C6 1_555 1_555
C4 C2 1_555 1_555
O4 C8 1_555 1_555
O5 Cd1 1_555 1_555
H1 O5 1_555 1_555
H2 O5 1_555 1_555
C5 C4 1_555 1_555
C6 C7 1_555 1_555
C7 C5 1_555 1_555
C8 C6 1_555 1_555
H3 C7 1_555 1_555
H4 C4 1_555 1_555
H5 N1 1_555 1_555
H6 N1 1_555 1_555
H7 C3 1_555 1_555
O6 H8 1_555 1_555
H9 O6 1_555 1_555
O7 H10 1_555 1_555
H11 O7 1_555 1_555
Cd1A O2 1_555 1_555
Cd1_2 N1 1_555 1_555
Cd1A_2 O3 1_555 1_555
O2A Cd1 1_555 1_555
N1_2 Cd1 1_555 1_555
O3A Cd1 1_555 1_555
O4A Cd1 1_555 1_555
H5_2 N1_2 1_555 1_555
H6_2 N1_2 1_555 1_555
O4 Cd1A_2 1_555 1_555

#END
