
#######################################################################
#
#                 Cambridge Crystallographic Data Centre
#                                CCDC 
#
#######################################################################
#
# If this CIF has been generated from an entry in the Cambridge 
# Structural Database, then it will include bibliographic, chemical, 
# crystal, experimental, refinement or atomic coordinate data resulting 
# from the CCDC's data processing and validation procedures.
#
#######################################################################

data_PUQTEB01
_symmetry_cell_setting           triclinic
_symmetry_space_group_name_H-M   'P -1'
_symmetry_Int_Tables_number      2
_space_group_name_Hall           '-P 1'
loop_
_symmetry_equiv_pos_site_id
_symmetry_equiv_pos_as_xyz
1 x,y,z
2 -x,-y,-z
_cell_length_a                   7.7683(16)
_cell_length_b                   8.6089(17)
_cell_length_c                   8.6695(17)
_cell_angle_alpha                84.04(3)
_cell_angle_beta                 76.23(3)
_cell_angle_gamma                66.04(3)
_cell_volume                     514.581
loop_
_atom_site_label
_atom_site_type_symbol
_atom_site_fract_x
_atom_site_fract_y
_atom_site_fract_z
Cd1 Cd 0.96575(2) 0.10793(2) -0.20958(2)
O1 O 0.7760(3) 0.2954(2) -0.0174(2)
O2 O 0.7809(3) 0.0500(2) 0.0931(2)
O3 O 0.1881(3) 0.1024(2) 0.5352(2)
O4 O 0.1124(3) 0.3004(3) 0.7101(2)
N1 N 0.2874(3) 0.7569(3) 0.3556(3)
H1 H 0.376(3) 0.792(4) 0.296(3)
H2 H 0.255(4) 0.802(4) 0.4518(19)
C1 C 0.7148(4) 0.2112(3) 0.0925(3)
C2 C 0.5546(4) 0.3079(3) 0.2263(3)
C3 C 0.4996(4) 0.4830(3) 0.2343(3)
H3 H 0.5646 0.5383 0.1566
C4 C 0.3504(4) 0.5774(3) 0.3554(3)
C5 C 0.2577(4) 0.4943(3) 0.4697(3)
H4 H 0.1597 0.5565 0.5556
C6 C 0.3085(4) 0.3199(3) 0.4585(3)
C7 C 0.4568(4) 0.2258(3) 0.3360(3)
H5 H 0.4905 0.1074 0.3277
C8 C 0.1976(4) 0.2352(3) 0.5751(3)
O5 O 0.9688(3) -0.1391(2) -0.2801(2)
H6 H 0.918(5) -0.130(4) -0.355(3)
H7 H 0.953(5) -0.214(3) -0.213(3)
Cd1_2 Cd -0.03425(2) 0.10793(2) 0.79042(2)
Cd1A Cd 0.03425(2) 0.89207(2) 0.20958(2)
Cd1A_2 Cd 1.03425(2) -0.10793(2) 0.20958(2)
O2A O 1.2191(3) -0.0500(2) -0.0931(2)
O3_2 O 1.1881(3) 0.1024(2) -0.4648(2)
O4_2 O 1.1124(3) 0.3004(3) -0.2899(2)
N1A N 0.7126(3) 0.2431(3) -0.3556(3)
O6 O 0.5655(4) 0.8480(4) 0.0981(3)
H8 H 0.5115 0.8412 0.0259
H9 H 0.6673 0.8747 0.0529
O7 O 0.8879(4) 0.6082(3) -0.1024(3)
H10 H 0.8040 0.5667 -0.0806
H11 H 0.9693 0.5150 -0.1450
loop_
_geom_bond_atom_site_label_1
_geom_bond_atom_site_label_2
_geom_bond_site_symmetry_1
_geom_bond_site_symmetry_2
Cd1 O1 1_555 1_555
O1 C1 1_555 1_555
O2 Cd1 1_555 1_555
O3 C8 1_555 1_555
O4 C8 1_555 1_555
N1 H1 1_555 1_555
H2 N1 1_555 1_555
C1 O2 1_555 1_555
C2 C1 1_555 1_555
C3 C2 1_555 1_555
H3 C3 1_555 1_555
C4 N1 1_555 1_555
C5 C4 1_555 1_555
H4 C5 1_555 1_555
C6 C5 1_555 1_555
C7 C2 1_555 1_555
H5 C7 1_555 1_555
C8 C6 1_555 1_555
O5 Cd1 1_555 1_555
H6 O5 1_555 1_555
H7 O5 1_555 1_555
O6 H8 1_555 1_555
H9 O6 1_555 1_555
O7 H10 1_555 1_555
H11 O7 1_555 1_555
Cd1_2 O3 1_555 1_555
Cd1A N1 1_555 1_555
Cd1A_2 O2 1_555 1_555
O2A Cd1 1_555 1_555
O3_2 Cd1 1_555 1_555
O4_2 Cd1 1_555 1_555
N1A Cd1 1_555 1_555
O4 Cd1_2 1_555 1_555
C3 C4 1_555 1_555
C6 C7 1_555 1_555
Cd1A_2 O2A 1_555 1_555

#END
