
#######################################################################
#
#                 Cambridge Crystallographic Data Centre
#                                CCDC 
#
#######################################################################
#
# If this CIF has been generated from an entry in the Cambridge 
# Structural Database, then it will include bibliographic, chemical, 
# crystal, experimental, refinement or atomic coordinate data resulting 
# from the CCDC's data processing and validation procedures.
#
#######################################################################

data_PUQWEE
_symmetry_cell_setting           trigonal
_symmetry_space_group_name_H-M   'P -3 c 1'
_symmetry_Int_Tables_number      165
_space_group_name_Hall           '-P 3 2"c'
loop_
_symmetry_equiv_pos_site_id
_symmetry_equiv_pos_as_xyz
1 x,y,z
2 -y,x-y,z
3 -x+y,-x,z
4 y,x,1/2-z
5 -x,-x+y,1/2-z
6 x-y,-y,1/2-z
7 -x,-y,-z
8 y,-x+y,-z
9 x-y,x,-z
10 -y,-x,1/2+z
11 x,x-y,1/2+z
12 -x+y,y,1/2+z
_cell_length_a                   11.0615(8)
_cell_length_b                   11.0615(8)
_cell_length_c                   31.618(4)
_cell_angle_alpha                90
_cell_angle_beta                 90
_cell_angle_gamma                120
_cell_volume                     3350.37
loop_
_atom_site_label
_atom_site_type_symbol
_atom_site_fract_x
_atom_site_fract_y
_atom_site_fract_z
Co1 Co 1.0000 1.0000 0.5000
C1 C 1.2666(7) 1.2467(6) 0.45573(12)
H1 H 1.2577 1.3146 0.4704
C2 C 1.2432(9) 1.0590(7) 0.43483(15)
H2 H 1.2089 0.9636 0.4320
C3 C 1.4706(10) 1.4069(8) 0.40907(13)
H3 H 1.5614 1.4193 0.4162
H4 H 1.4630 1.4823 0.4220
C4 C 1.4587(7) 1.4133(6) 0.36110(7)
C5 C 1.4326(10) 1.5136(9) 0.34379(11)
H5 H 1.4203 1.5739 0.3614
C6 C 1.4251(10) 1.5238(9) 0.30016(11)
H6 H 1.4076 1.5908 0.2886
C7 C 1.4435(7) 1.4336(6) 0.27384(7)
C8 C 1.4696(9) 1.3334(8) 0.29114(10)
H7 H 1.4819 1.2730 0.2735
C9 C 1.4771(9) 1.3231(8) 0.33478(11)
H8 H 1.4946 1.2561 0.3464
N1 N 1.1870(4) 1.1114(3) 0.46163(9)
N2 N 1.3607(6) 1.2725(5) 0.42611(10)
N3 N 1.3495(9) 1.1518(7) 0.41304(14)
Co1C Co 1.0000 1.0000 0.0000
C1C C 1.2467(6) 1.2666(7) 0.04427(12)
C1A C 0.7533(6) 1.0199(9) 0.45573(12)
C1D C 0.7334(7) 0.9801(9) 0.04427(12)
C1B C 0.9801(9) 0.7334(7) 0.45573(12)
C1E C 1.0199(9) 0.7533(6) 0.04427(12)
H1C H 1.3146 1.2577 0.0296
H1A H 0.6854 0.9431 0.4704
H1D H 0.7423 1.0569 0.0296
H1B H 1.0569 0.7423 0.4704
H1E H 0.9431 0.6854 0.0296
C2C C 1.0590(7) 1.2432(9) 0.06517(15)
C2A C 0.9410(7) 1.1842(11) 0.43483(15)
C2D C 0.7568(9) 0.8158(11) 0.06517(15)
C2B C 0.8158(11) 0.7568(9) 0.43483(15)
C2E C 1.1842(11) 0.9410(7) 0.06517(15)
H2C H 0.9636 1.2089 0.0680
H2A H 1.0364 1.2453 0.4320
H2D H 0.7911 0.7547 0.0680
H2B H 0.7547 0.7911 0.4320
H2E H 1.2453 1.0364 0.0680
C3C C 1.4069(8) 1.4706(10) 0.09093(13)
C3A C 0.5931(8) 1.0637(13) 0.40907(13)
C3D C 0.5294(10) 0.9363(13) 0.09093(13)
C3B C 0.9363(13) 0.5294(10) 0.40907(13)
C3E C 1.0637(13) 0.5931(8) 0.09093(13)
H3C H 1.4193 1.5614 0.0838
H3A H 0.5807 1.1421 0.4162
H3D H 0.4386 0.8579 0.0838
H3B H 0.8579 0.4386 0.4162
H3E H 1.1421 0.5807 0.0838
H4C H 1.4823 1.4630 0.0780
H4A H 0.5177 0.9807 0.4220
H4D H 0.5370 1.0193 0.0780
H4B H 1.0193 0.5370 0.4220
H4E H 0.9807 0.5177 0.0780
C4C C 1.4133(6) 1.4587(7) 0.13890(7)
C4A C 0.5867(6) 1.0454(9) 0.36110(7)
C4D C 0.5413(7) 0.9546(9) 0.13890(7)
C4B C 0.9546(9) 0.5413(7) 0.36110(7)
C4E C 1.0454(9) 0.5867(6) 0.13890(7)
C5C C 1.5136(9) 1.4326(10) 0.15621(11)
C5A C 0.4864(9) 0.9190(13) 0.34379(11)
C5D C 0.5674(10) 1.0810(13) 0.15621(11)
C5B C 1.0810(13) 0.5674(10) 0.34379(11)
C5E C 0.9190(13) 0.4864(9) 0.15621(11)
H5C H 1.5739 1.4203 0.1386
H5A H 0.4261 0.8464 0.3614
H5D H 0.5797 1.1536 0.1386
H5B H 1.1536 0.5797 0.3614
H5E H 0.8464 0.4261 0.1386
C6C C 1.5238(9) 1.4251(10) 0.19984(11)
C6A C 0.4762(9) 0.9013(13) 0.30016(11)
C6D C 0.5749(10) 1.0987(13) 0.19984(11)
C6B C 1.0987(13) 0.5749(10) 0.30016(11)
C6E C 0.9013(13) 0.4762(9) 0.19984(11)
H6C H 1.5908 1.4076 0.2114
H6A H 0.4092 0.8168 0.2886
H6D H 0.5924 1.1832 0.2114
H6B H 1.1832 0.5924 0.2886
H6E H 0.8168 0.4092 0.2114
C7C C 1.4336(6) 1.4435(7) 0.22616(7)
C7A C 0.5664(6) 1.0099(9) 0.27384(7)
C7D C 0.5565(7) 0.9901(9) 0.22616(7)
C7B C 0.9901(9) 0.5565(7) 0.27384(7)
C7E C 1.0099(9) 0.5664(6) 0.22616(7)
C8C C 1.3334(8) 1.4696(9) 0.20886(10)
C8A C 0.6666(8) 1.1362(12) 0.29114(10)
C8D C 0.5304(9) 0.8638(12) 0.20886(10)
C8B C 0.8638(12) 0.5304(9) 0.29114(10)
C8E C 1.1362(12) 0.6666(8) 0.20886(10)
H7C H 1.2730 1.4819 0.2265
H7A H 0.7270 1.2089 0.2735
H7D H 0.5181 0.7911 0.2265
H7B H 0.7911 0.5181 0.2735
H7E H 1.2089 0.7270 0.2265
C9C C 1.3231(8) 1.4771(9) 0.16522(11)
C9A C 0.6769(8) 1.1540(12) 0.33478(11)
C9D C 0.5229(9) 0.8460(12) 0.16522(11)
C9B C 0.8460(12) 0.5229(9) 0.33478(11)
C9E C 1.1540(12) 0.6769(8) 0.16522(11)
H8C H 1.2561 1.4946 0.1536
H8A H 0.7439 1.2385 0.3464
H8D H 0.5054 0.7615 0.1536
H8B H 0.7615 0.5054 0.3464
H8E H 1.2385 0.7439 0.1536
N1C N 1.1114(3) 1.1870(4) 0.03837(9)
N1A N 0.8886(3) 1.0756(5) 0.46163(9)
N1D N 0.8130(4) 0.9244(5) 0.03837(9)
N1B N 0.9244(5) 0.8130(4) 0.46163(9)
N1E N 1.0756(5) 0.8886(3) 0.03837(9)
N1F N 0.8130(4) 0.8886(3) 0.53837(9)
N1G N 1.1114(3) 0.9244(5) 0.53837(9)
N1H N 1.0756(5) 1.1870(4) 0.53837(9)
N2C N 1.2725(5) 1.3607(6) 0.07389(10)
N2A N 0.7275(5) 1.0882(8) 0.42611(10)
N2D N 0.6393(6) 0.9118(8) 0.07389(10)
N2B N 0.9118(8) 0.6393(6) 0.42611(10)
N2E N 1.0882(8) 0.7275(5) 0.07389(10)
N3C N 1.1518(7) 1.3495(9) 0.08696(14)
N3A N 0.8482(7) 1.1977(11) 0.41304(14)
N3D N 0.6505(9) 0.8023(11) 0.08696(14)
N3B N 0.8023(11) 0.6505(9) 0.41304(14)
N3E N 1.1977(11) 0.8482(7) 0.08696(14)
P1 P 0.6667 0.3333 0.02501(7)
F1 F 0.7098(6) 0.4639(4) 0.05430(15)
F2 F 0.6280(8) 0.1989(6) -0.00106(16)
F1A F 0.5361(4) 0.2459(7) 0.05430(15)
F1B F 0.7541(7) 0.2902(6) 0.05430(15)
F2A F 0.8011(6) 0.4291(10) -0.00106(16)
F2B F 0.5709(10) 0.3720(8) -0.00106(16)
O1 O 0.0000 0.0000 0.163(2)
H9 H 0.0000 0.0000 0.1359
H10? H 0.0836 0.0302 0.1708
C10? C 0.6538(4) 1.0533(5) 0.15650(10)
C11? C 0.6612(4) 1.0620(5) 0.20103(11)
C12? C 0.4383(4) 0.9233(7) 0.20568(10)
C13? C 0.4324(3) 0.9090(7) 0.16241(10)
H11? H 0.7281 1.1171 0.1400
H12? H 0.7469 1.1235 0.2132
H13? H 0.3553 0.8840 0.2209
H14? H 0.3452 0.8641 0.1495
loop_
_geom_bond_atom_site_label_1
_geom_bond_atom_site_label_2
_geom_bond_site_symmetry_1
_geom_bond_site_symmetry_2
Co1 N1 1_555 1_555
C1 H1 1_555 1_555
C2 H2 1_555 1_555
C3 H3 1_555 1_555
H4 C3 1_555 1_555
C4 C3 1_555 1_555
C5 C4 1_555 1_555
H5 C5 1_555 1_555
C6 C5 1_555 1_555
H6 C6 1_555 1_555
C7 C6 1_555 1_555
C8 C7 1_555 1_555
H7 C8 1_555 1_555
C9 C4 1_555 1_555
H8 C9 1_555 1_555
N1 C1 1_555 1_555
N2 C1 1_555 1_555
N3 C2 1_555 1_555
P1 F1 1_555 1_555
F2 P1 1_555 1_555
O1 H9 1_555 1_555
Co1C N1C 1_555 1_555
C1C H1C 1_555 1_555
C1A H1A 1_555 1_555
C1D H1D 1_555 1_555
C1B H1B 1_555 1_555
C1E H1E 1_555 1_555
C2C H2C 1_555 1_555
C2A H2A 1_555 1_555
C2D H2D 1_555 1_555
C2B H2B 1_555 1_555
C2E H2E 1_555 1_555
C3C H3C 1_555 1_555
C3A H3A 1_555 1_555
C3D H3D 1_555 1_555
C3B H3B 1_555 1_555
C3E H3E 1_555 1_555
H4C C3C 1_555 1_555
H4A C3A 1_555 1_555
H4D C3D 1_555 1_555
H4B C3B 1_555 1_555
H4E C3E 1_555 1_555
C4C C3C 1_555 1_555
C4A C3A 1_555 1_555
C4D C3D 1_555 1_555
C4B C3B 1_555 1_555
C4E C3E 1_555 1_555
C5C C4C 1_555 1_555
C5A C4A 1_555 1_555
C5D C4D 1_555 1_555
C5B C4B 1_555 1_555
C5E C4E 1_555 1_555
H5C C5C 1_555 1_555
H5A C5A 1_555 1_555
H5D C5D 1_555 1_555
H5B C5B 1_555 1_555
H5E C5E 1_555 1_555
C6C C5C 1_555 1_555
C6A C5A 1_555 1_555
C6D C5D 1_555 1_555
C6B C5B 1_555 1_555
C6E C5E 1_555 1_555
H6C C6C 1_555 1_555
H6A C6A 1_555 1_555
H6D C6D 1_555 1_555
H6B C6B 1_555 1_555
H6E C6E 1_555 1_555
C7C C7 1_555 1_555
C7A C6A 1_555 1_555
C7D C6D 1_555 1_555
C7B C6B 1_555 1_555
C7E C6E 1_555 1_555
C8C C7C 1_555 1_555
C8A C7A 1_555 1_555
C8D C7D 1_555 1_555
C8B C7B 1_555 1_555
C8E C7E 1_555 1_555
H7C C8C 1_555 1_555
H7A C8A 1_555 1_555
H7D C8D 1_555 1_555
H7B C8B 1_555 1_555
H7E C8E 1_555 1_555
C9C C4C 1_555 1_555
C9A C4A 1_555 1_555
C9D C4D 1_555 1_555
C9B C4B 1_555 1_555
C9E C4E 1_555 1_555
H8C C9C 1_555 1_555
H8A C9A 1_555 1_555
H8D C9D 1_555 1_555
H8B C9B 1_555 1_555
H8E C9E 1_555 1_555
N1C C1C 1_555 1_555
N1A Co1 1_555 1_555
N1D Co1C 1_555 1_555
N1B Co1 1_555 1_555
N1E Co1C 1_555 1_555
N1F Co1 1_555 1_555
N1G Co1 1_555 1_555
N1H Co1 1_555 1_555
N2C C1C 1_555 1_555
N2A C1A 1_555 1_555
N2D C1D 1_555 1_555
N2B C1B 1_555 1_555
N2E C1E 1_555 1_555
N3C C2C 1_555 1_555
N3A C2A 1_555 1_555
N3D C2D 1_555 1_555
N3B C2B 1_555 1_555
N3E C2E 1_555 1_555
F1A P1 1_555 1_555
F1B P1 1_555 1_555
F2A P1 1_555 1_555
F2B P1 1_555 1_555
C2 N1 1_555 1_555
C3 N2 1_555 1_555
C8 C9 1_555 1_555
N2 N3 1_555 1_555
C1A N1A 1_555 1_555
C1D N1D 1_555 1_555
C1B N1B 1_555 1_555
C1E N1E 1_555 1_555
C2C N1C 1_555 1_555
C2A N1A 1_555 1_555
C2D N1D 1_555 1_555
C2B N1B 1_555 1_555
C2E N1E 1_555 1_555
C3C N2C 1_555 1_555
C3A N2A 1_555 1_555
C3D N2D 1_555 1_555
C3B N2B 1_555 1_555
C3E N2E 1_555 1_555
C6C C7C 1_555 1_555
C7A C7D 1_555 1_555
C7B C7E 1_555 1_555
C8C C9C 1_555 1_555
C8A C9A 1_555 1_555
C8D C9D 1_555 1_555
C8B C9B 1_555 1_555
C8E C9E 1_555 1_555
N2C N3C 1_555 1_555
N2A N3A 1_555 1_555
N2D N3D 1_555 1_555
N2B N3B 1_555 1_555
N2E N3E 1_555 1_555

#END
