
#######################################################################
#
#                 Cambridge Crystallographic Data Centre
#                                CCDC 
#
#######################################################################
#
# If this CIF has been generated from an entry in the Cambridge 
# Structural Database, then it will include bibliographic, chemical, 
# crystal, experimental, refinement or atomic coordinate data resulting 
# from the CCDC's data processing and validation procedures.
#
#######################################################################

data_PUQXUV
_symmetry_cell_setting           hexagonal
_symmetry_space_group_name_H-M   'P 62 2 2'
_symmetry_Int_Tables_number      180
_space_group_name_Hall           "P 62 2' (0,0,4)"
loop_
_symmetry_equiv_pos_site_id
_symmetry_equiv_pos_as_xyz
1 x,y,z
2 x-y,x,1/3+z
3 -y,x-y,2/3+z
4 -x,-y,z
5 -x+y,-x,1/3+z
6 y,-x+y,2/3+z
7 -y,-x,2/3-z
8 x-y,-y,-z
9 x,x-y,1/3-z
10 y,x,2/3-z
11 -x+y,y,-z
12 -x,-x+y,1/3-z
_cell_length_a                   21.250(3)
_cell_length_b                   21.250(3)
_cell_length_c                   7.7200(15)
_cell_angle_alpha                90
_cell_angle_beta                 90
_cell_angle_gamma                120
_cell_volume                     3019.02
loop_
_atom_site_label
_atom_site_type_symbol
_atom_site_fract_x
_atom_site_fract_y
_atom_site_fract_z
Zn1 Zn 0.40194(5) 0.70097(3) 0.1667
F1 F 0.2535(3) 0.1559(2) -0.1225(11)
F2 F 0.3023(4) 0.2308(3) 0.0879(9)
F3 F 0.1899(3) 0.1870(2) 0.0303(10)
O2 O 0.3624(3) 0.6013(2) 0.0927(6)
O3 O 0.2934(2) 0.5356(2) 0.3143(6)
C1 C 0.3230(3) 0.5426(3) 0.1717(8)
C2 C 0.3107(3) 0.4735(3) 0.0846(7)
C3 C 0.2727(4) 0.4092(3) 0.1665(9)
H1 H 0.2536 0.4079 0.2756
C4 C 0.2612(4) 0.3445(4) 0.0923(11)
H2 H 0.2360 0.3010 0.1529
C5 C 0.3371(3) 0.4754(3) -0.0813(9)
H3 H 0.3624 0.5192 -0.1408
C6 C 0.3252(3) 0.4112(3) -0.1566(9)
H4 H 0.3431 0.4127 -0.2674
C7 C 0.2880(3) 0.3453(3) -0.0738(9)
C8 C 0.2769(4) 0.2769(4) -0.1667
C9 C 0.2553(5) 0.2125(4) -0.0411(16)
Zn1I Zn 0.70097(3) 0.40194(5) -0.5000
Zn1D Zn 0.29903(6) 0.59806(5) 0.5000
Zn1K Zn 0.59806(5) 0.29903(6) -0.8334
F1I F 0.1559(2) 0.2535(3) -0.2108(11)
F2I F 0.2308(3) 0.3023(4) -0.4212(9)
F3I F 0.1870(2) 0.1899(3) -0.3636(10)
O2I O 0.6013(2) 0.3624(3) -0.4260(6)
O2H O 0.3624(3) 0.7611(4) 0.2406(6)
O3I O 0.5356(2) 0.2934(2) -0.6476(6)
O3B O 0.4644(2) 0.7578(3) -0.0190(6)
O3F O 0.4644(2) 0.7066(2) 0.3524(6)
C1I C 0.5426(3) 0.3230(3) -0.5050(8)
C2I C 0.4735(3) 0.3107(3) -0.4179(7)
C3I C 0.4092(3) 0.2727(4) -0.4998(9)
H1I H 0.4079 0.2536 -0.6089
C4I C 0.3445(4) 0.2612(4) -0.4256(11)
H2I H 0.3010 0.2360 -0.4862
C5I C 0.4754(3) 0.3371(3) -0.2520(9)
H3I H 0.5192 0.3624 -0.1925
C6I C 0.4112(3) 0.3252(3) -0.1767(9)
H4I H 0.4127 0.3431 -0.0659
C7I C 0.3453(3) 0.2880(3) -0.2595(9)
C9I C 0.2125(4) 0.2553(5) -0.2922(16)
O1 O 0.5000 0.5000 0.3333
loop_
_geom_bond_atom_site_label_1
_geom_bond_atom_site_label_2
_geom_bond_site_symmetry_1
_geom_bond_site_symmetry_2
Zn1 O2 1_555 1_555
F1 C9 1_555 1_555
F2 C9 1_555 1_555
F3 C9 1_555 1_555
O2 C1 1_555 1_555
O3 C1 1_555 1_555
C1 C2 1_555 1_555
C2 C3 1_555 1_555
C3 H1 1_555 1_555
C4 C3 1_555 1_555
H2 C4 1_555 1_555
C5 C2 1_555 1_555
H3 C5 1_555 1_555
C6 C5 1_555 1_555
H4 C6 1_555 1_555
C7 C4 1_555 1_555
C8 C7 1_555 1_555
C9 C8 1_555 1_555
Zn1I O2I 1_555 1_555
Zn1D O3 1_555 1_555
Zn1K O3I 1_555 1_555
F1I C9I 1_555 1_555
F2I C9I 1_555 1_555
F3I C9I 1_555 1_555
O2I C1I 1_555 1_555
O2H Zn1 1_555 1_555
O3I C1I 1_555 1_555
O3B Zn1 1_555 1_555
O3F Zn1 1_555 1_555
C1I C2I 1_555 1_555
C2I C3I 1_555 1_555
C3I H1I 1_555 1_555
C4I C3I 1_555 1_555
H2I C4I 1_555 1_555
C5I C2I 1_555 1_555
H3I C5I 1_555 1_555
C6I C5I 1_555 1_555
H4I C6I 1_555 1_555
C7I C8 1_555 1_555
C9I C8 1_555 1_555
C6 C7 1_555 1_555
C4I C7I 1_555 1_555
C6I C7I 1_555 1_555

#END
