
#######################################################################
#
#                 Cambridge Crystallographic Data Centre
#                                CCDC 
#
#######################################################################
#
# If this CIF has been generated from an entry in the Cambridge 
# Structural Database, then it will include bibliographic, chemical, 
# crystal, experimental, refinement or atomic coordinate data resulting 
# from the CCDC's data processing and validation procedures.
#
#######################################################################

data_PUQXOP
_symmetry_cell_setting           tetragonal
_symmetry_space_group_name_H-M   'P 4/n c c'
_symmetry_Int_Tables_number      130
_space_group_name_Hall           '-P 4a 2ac'
loop_
_symmetry_equiv_pos_site_id
_symmetry_equiv_pos_as_xyz
1 x,y,z
2 1/2-x,1/2-y,z
3 1/2-y,x,z
4 y,1/2-x,z
5 -x,1/2+y,1/2-z
6 1/2+x,-y,1/2-z
7 1/2+y,1/2+x,1/2-z
8 -y,-x,1/2-z
9 -x,-y,-z
10 1/2+x,1/2+y,-z
11 1/2+y,-x,-z
12 -y,1/2+x,-z
13 x,1/2-y,1/2+z
14 1/2-x,y,1/2+z
15 1/2-y,1/2-x,1/2+z
16 y,x,1/2+z
_cell_length_a                   25.912(4)
_cell_length_b                   25.912(4)
_cell_length_c                   22.760(5)
_cell_angle_alpha                90
_cell_angle_beta                 90
_cell_angle_gamma                90
_cell_volume                     15281.8
loop_
_atom_site_label
_atom_site_type_symbol
_atom_site_fract_x
_atom_site_fract_y
_atom_site_fract_z
Yb1 Yb 0.00014(5) 0.05941(5) 0.60046(5)
Yb2 Yb -0.06381(4) 0.06381(4) 0.7500
Br1 Br -0.18318(13) 0.27480(12) 0.55598(13)
Br2 Br -0.01766(12) -0.21305(11) 0.73183(15)
N1 N -0.1118(7) 0.2310(7) 0.7717(8)
H1 H -0.1289 0.2578 0.7581
N2 N -0.0740(6) 0.1520(7) 0.7752(8)
N3 N 0.1204(8) -0.0639(8) 0.6543(8)
H2 H 0.1292 -0.0925 0.6727
N4 N 0.0723(8) 0.0010(8) 0.6180(8)
O1 O -0.0703(6) 0.1053(6) 0.5519(7)
O2 O -0.0554(6) 0.1065(6) 0.6634(6)
O3 O -0.0973(7) -0.0261(6) 0.7347(7)
O4 O -0.0164(5) 0.0157(6) 0.6853(6)
C1 C -0.0837(9) 0.1020(9) 0.4914(10)
H3 H -0.1213 0.1028 0.4873
H4 H -0.0703 0.0697 0.4750
H5 H -0.0686 0.1313 0.4703
C2 C -0.0958(10) 0.1450(10) 0.5808(11)
C3 C -0.1244(9) 0.1848(10) 0.5576(11)
H6 H -0.1283 0.1867 0.5162
C4 C -0.1476(10) 0.2220(9) 0.5918(11)
C5 C -0.1400(9) 0.2207(9) 0.6505(10)
H7 H -0.1556 0.2464 0.6745
C6 C -0.1100(9) 0.1832(9) 0.6763(10)
C7 C -0.0858(10) 0.1428(11) 0.6437(11)
C8 C -0.0979(9) 0.1869(10) 0.7392(11)
C9 C -0.0934(9) 0.2249(9) 0.8309(11)
C10 C -0.0933(10) 0.2538(11) 0.8817(12)
H8 H -0.1106 0.2861 0.8823
C11 C -0.0697(9) 0.2377(9) 0.9292(10)
H9 H -0.0704 0.2568 0.9649
C12 C -0.0436(9) 0.1912(10) 0.9244(11)
H10 H -0.0250 0.1805 0.9582
C13 C -0.0414(9) 0.1611(10) 0.8807(11)
H11 H -0.0222 0.1298 0.8820
C14 C -0.0684(9) 0.1759(9) 0.8305(10)
C15 C -0.1511(10) -0.0480(10) 0.7393(11)
H12 H -0.1503 -0.0850 0.7304
H13 H -0.1738 -0.0305 0.7112
H14 H -0.1643 -0.0429 0.7792
C16 C -0.0576(9) -0.0605(10) 0.7219(9)
C17 C -0.0589(9) -0.1113(9) 0.7311(9)
H15 H -0.0887 -0.1264 0.7484
C18 C -0.0174(11) -0.1426(11) 0.7156(12)
C19 C 0.0250(10) -0.1185(10) 0.6889(9)
H16 H 0.0536 -0.1391 0.6772
C20 C 0.0268(10) -0.0666(10) 0.6792(10)
C21 C -0.0158(9) -0.0345(10) 0.6937(9)
C22 C 0.0724(11) -0.0439(10) 0.6507(11)
C23 C 0.1529(11) -0.0323(10) 0.6246(11)
C24 C 0.2047(11) -0.0366(12) 0.6148(12)
H17 H 0.2243 -0.0651 0.6287
C25 C 0.2270(11) 0.0039(11) 0.5830(11)
H18 H 0.2633 0.0032 0.5775
C26 C 0.2002(10) 0.0444(10) 0.5590(10)
H19 H 0.2172 0.0707 0.5373
C27 C 0.1457(10) 0.0452(10) 0.5681(11)
H20 H 0.1248 0.0720 0.5525
C28 C 0.1252(9) 0.0065(10) 0.5996(10)
C29 C 0.0808(12) 0.0929(11) 0.4369(12)
H21 H 0.0956 0.0848 0.3983
H22 H 0.1086 0.1019 0.4643
H23 H 0.0570 0.1221 0.4332
C30 C 0.0515(9) 0.0458(9) 0.4602(10)
O5 O 0.0294(6) 0.0515(6) 0.5098(7)
O6 O 0.0497(6) 0.0072(6) 0.4286(7)
C31 C 0.0995(13) 0.1868(12) 0.6190(15)
H24 H 0.0823 0.2201 0.6132
H25 H 0.1273 0.1830 0.5901
H26 H 0.1140 0.1853 0.6587
C32 C 0.0599(8) 0.1426(7) 0.6110(8)
O7 O 0.0298(8) 0.1470(7) 0.5801(8)
O8 O 0.0681(8) 0.1081(9) 0.6455(9)
Yb1G Yb -0.05941(5) -0.00014(5) 0.89954(5)
Yb1H Yb -0.00014(5) -0.05941(5) 0.39954(5)
Br1G Br -0.27480(12) 0.18318(13) 0.94402(13)
Br2G Br 0.21305(11) 0.01766(12) 0.76817(15)
N1G N -0.2310(7) 0.1118(7) 0.7283(8)
H1G H -0.2578 0.1289 0.7419
N2G N -0.1520(7) 0.0740(6) 0.7248(8)
N3G N 0.0639(8) -0.1204(8) 0.8457(8)
H2G H 0.0925 -0.1292 0.8273
N4G N -0.0010(8) -0.0723(8) 0.8820(8)
O1G O -0.1053(6) 0.0703(6) 0.9481(7)
O2G O -0.1065(6) 0.0554(6) 0.8366(6)
O3G O 0.0261(6) 0.0973(7) 0.7653(7)
O4G O -0.0157(6) 0.0164(5) 0.8147(6)
C1G C -0.1020(9) 0.0837(9) 1.0086(10)
H3G H -0.1028 0.1213 1.0127
H4G H -0.0697 0.0703 1.0250
H5G H -0.1313 0.0686 1.0297
C2G C -0.1450(10) 0.0958(10) 0.9192(11)
C3G C -0.1848(10) 0.1244(9) 0.9424(11)
H6G H -0.1867 0.1283 0.9838
C4G C -0.2220(9) 0.1476(10) 0.9082(11)
C5G C -0.2207(9) 0.1400(9) 0.8495(10)
H7G H -0.2464 0.1556 0.8255
C6G C -0.1832(9) 0.1100(9) 0.8237(10)
C7G C -0.1428(11) 0.0858(10) 0.8563(11)
C8G C -0.1869(10) 0.0979(9) 0.7608(11)
C9G C -0.2249(9) 0.0934(9) 0.6691(11)
C10G C -0.2538(11) 0.0933(10) 0.6183(12)
H8G H -0.2861 0.1106 0.6177
C11G C -0.2377(9) 0.0697(9) 0.5708(10)
H9G H -0.2568 0.0704 0.5351
C12G C -0.1912(10) 0.0436(9) 0.5756(11)
H10G H -0.1805 0.0250 0.5418
C13G C -0.1611(10) 0.0414(9) 0.6193(11)
H11G H -0.1298 0.0222 0.6180
C14G C -0.1759(9) 0.0684(9) 0.6695(10)
C15G C 0.0480(10) 0.1511(10) 0.7607(11)
H12G H 0.0850 0.1503 0.7696
H13G H 0.0305 0.1738 0.7888
H14G H 0.0429 0.1643 0.7208
C16G C 0.0605(10) 0.0576(9) 0.7781(9)
C17G C 0.1113(9) 0.0589(9) 0.7689(9)
H15G H 0.1264 0.0887 0.7516
C18G C 0.1426(11) 0.0174(11) 0.7844(12)
C19G C 0.1185(10) -0.0250(10) 0.8111(9)
H16G H 0.1391 -0.0536 0.8228
C20G C 0.0666(10) -0.0268(10) 0.8208(10)
C21G C 0.0345(10) 0.0158(9) 0.8063(9)
C22G C 0.0439(10) -0.0724(11) 0.8493(11)
C23G C 0.0323(10) -0.1529(11) 0.8754(11)
C24G C 0.0366(12) -0.2047(11) 0.8852(12)
H17G H 0.0651 -0.2243 0.8713
C25G C -0.0039(11) -0.2270(11) 0.9170(11)
H18G H -0.0032 -0.2633 0.9225
C26G C -0.0444(10) -0.2002(10) 0.9410(10)
H19G H -0.0707 -0.2172 0.9627
C27G C -0.0452(10) -0.1457(10) 0.9319(11)
H20G H -0.0720 -0.1248 0.9475
C28G C -0.0065(10) -0.1252(9) 0.9004(10)
C29H C -0.0808(12) -0.0929(11) 0.5631(12)
H21H H -0.0956 -0.0848 0.6017
H22H H -0.1086 -0.1019 0.5357
H23H H -0.0570 -0.1221 0.5668
C30H C -0.0515(9) -0.0458(9) 0.5398(10)
O5H O -0.0294(6) -0.0515(6) 0.4902(7)
O5G O -0.0515(6) -0.0294(6) 0.9902(7)
O6H O -0.0497(6) -0.0072(6) 0.5714(7)
O6O O 0.0072(6) 0.0497(6) 0.9286(7)
C31G C -0.1868(12) -0.0995(13) 0.8810(15)
H24G H -0.2201 -0.0823 0.8868
H25G H -0.1830 -0.1273 0.9099
H26G H -0.1853 -0.1140 0.8413
C32G C -0.1426(7) -0.0599(8) 0.8890(8)
O7G O -0.1470(7) -0.0298(8) 0.9199(8)
O8G O -0.1081(9) -0.0681(8) 0.8545(9)
Cl1 Cl -0.1538(2) 0.3462(2) 0.7500
loop_
_geom_bond_atom_site_label_1
_geom_bond_atom_site_label_2
_geom_bond_site_symmetry_1
_geom_bond_site_symmetry_2
Yb1 N4 1_555 1_555
Yb2 N2 1_555 1_555
Br1 C4 1_555 1_555
Br2 C18 1_555 1_555
N1 H1 1_555 1_555
N2 C8 1_555 1_555
N3 H2 1_555 1_555
N4 C22 1_555 1_555
O1 Yb1 1_555 1_555
O2 Yb1 1_555 1_555
O3 Yb2 1_555 1_555
O4 Yb1 1_555 1_555
C1 O1 1_555 1_555
H3 C1 1_555 1_555
H4 C1 1_555 1_555
H5 C1 1_555 1_555
C2 O1 1_555 1_555
C3 C2 1_555 1_555
H6 C3 1_555 1_555
C4 C3 1_555 1_555
C5 C4 1_555 1_555
H7 C5 1_555 1_555
C6 C5 1_555 1_555
C7 O2 1_555 1_555
C8 N1 1_555 1_555
C9 N1 1_555 1_555
C10 C9 1_555 1_555
H8 C10 1_555 1_555
C11 C10 1_555 1_555
H9 C11 1_555 1_555
C12 C11 1_555 1_555
H10 C12 1_555 1_555
C13 C12 1_555 1_555
H11 C13 1_555 1_555
C14 N2 1_555 1_555
C15 O3 1_555 1_555
H12 C15 1_555 1_555
H13 C15 1_555 1_555
H14 C15 1_555 1_555
C16 O3 1_555 1_555
C17 C16 1_555 1_555
H15 C17 1_555 1_555
C18 C17 1_555 1_555
C19 C18 1_555 1_555
H16 C19 1_555 1_555
C20 C19 1_555 1_555
C21 O4 1_555 1_555
C22 N3 1_555 1_555
C23 N3 1_555 1_555
C24 C23 1_555 1_555
H17 C24 1_555 1_555
C25 C24 1_555 1_555
H18 C25 1_555 1_555
C26 C25 1_555 1_555
H19 C26 1_555 1_555
C27 C26 1_555 1_555
H20 C27 1_555 1_555
C28 N4 1_555 1_555
C29 H21 1_555 1_555
H22 C29 1_555 1_555
H23 C29 1_555 1_555
C30 C29 1_555 1_555
O5 Yb1 1_555 1_555
O6 C30 1_555 1_555
C31 H24 1_555 1_555
H25 C31 1_555 1_555
H26 C31 1_555 1_555
C32 C31 1_555 1_555
O7 Yb1 1_555 1_555
O8 Yb1 1_555 1_555
Yb1G N4G 1_555 1_555
Yb1H O6 1_555 1_555
Br1G C4G 1_555 1_555
Br2G C18G 1_555 1_555
N1G H1G 1_555 1_555
N2G Yb2 1_555 1_555
N3G H2G 1_555 1_555
N4G C22G 1_555 1_555
O1G Yb1G 1_555 1_555
O2G Yb2 1_555 1_555
O3G Yb2 1_555 1_555
O4G Yb2 1_555 1_555
C1G O1G 1_555 1_555
H3G C1G 1_555 1_555
H4G C1G 1_555 1_555
H5G C1G 1_555 1_555
C2G O1G 1_555 1_555
C3G C2G 1_555 1_555
H6G C3G 1_555 1_555
C4G C3G 1_555 1_555
C5G C4G 1_555 1_555
H7G C5G 1_555 1_555
C6G C5G 1_555 1_555
C7G O2G 1_555 1_555
C8G N1G 1_555 1_555
C9G N1G 1_555 1_555
C10G C9G 1_555 1_555
H8G C10G 1_555 1_555
C11G C10G 1_555 1_555
H9G C11G 1_555 1_555
C12G C11G 1_555 1_555
H10G C12G 1_555 1_555
C13G C12G 1_555 1_555
H11G C13G 1_555 1_555
C14G N2G 1_555 1_555
C15G O3G 1_555 1_555
H12G C15G 1_555 1_555
H13G C15G 1_555 1_555
H14G C15G 1_555 1_555
C16G O3G 1_555 1_555
C17G C16G 1_555 1_555
H15G C17G 1_555 1_555
C18G C17G 1_555 1_555
C19G C18G 1_555 1_555
H16G C19G 1_555 1_555
C20G C19G 1_555 1_555
C21G O4G 1_555 1_555
C22G N3G 1_555 1_555
C23G N3G 1_555 1_555
C24G C23G 1_555 1_555
H17G C24G 1_555 1_555
C25G C24G 1_555 1_555
H18G C25G 1_555 1_555
C26G C25G 1_555 1_555
H19G C26G 1_555 1_555
C27G C26G 1_555 1_555
H20G C27G 1_555 1_555
C28G N4G 1_555 1_555
C29H H21H 1_555 1_555
H22H C29H 1_555 1_555
H23H C29H 1_555 1_555
C30H C29H 1_555 1_555
O5H Yb1H 1_555 1_555
O5G Yb1G 1_555 1_555
O6H Yb1 1_555 1_555
O6O Yb1G 1_555 1_555
C31G H24G 1_555 1_555
H25G C31G 1_555 1_555
H26G C31G 1_555 1_555
C32G C31G 1_555 1_555
O7G Yb1G 1_555 1_555
O8G Yb1G 1_555 1_555
Yb2 O2 1_555 1_555
Yb2 O4 1_555 1_555
C2 C7 1_555 1_555
C6 C7 1_555 1_555
C6 C8 1_555 1_555
C9 C14 1_555 1_555
C13 C14 1_555 1_555
C16 C21 1_555 1_555
C20 C21 1_555 1_555
C20 C22 1_555 1_555
C23 C28 1_555 1_555
C27 C28 1_555 1_555
C30 O5 1_555 1_555
C32 O7 1_555 1_555
C32 O8 1_555 1_555
Yb1G O2G 1_555 1_555
Yb1G O4G 1_555 1_555
N2G C8G 1_555 1_555
C2G C7G 1_555 1_555
C6G C7G 1_555 1_555
C6G C8G 1_555 1_555
C9G C14G 1_555 1_555
C13G C14G 1_555 1_555
C16G C21G 1_555 1_555
C20G C21G 1_555 1_555
C20G C22G 1_555 1_555
C23G C28G 1_555 1_555
C27G C28G 1_555 1_555
C30H O5H 1_555 1_555
C30H O6H 1_555 1_555
C32G O7G 1_555 1_555
C32G O8G 1_555 1_555

#END
