
#######################################################################
#
#                 Cambridge Crystallographic Data Centre
#                                CCDC 
#
#######################################################################
#
# If this CIF has been generated from an entry in the Cambridge 
# Structural Database, then it will include bibliographic, chemical, 
# crystal, experimental, refinement or atomic coordinate data resulting 
# from the CCDC's data processing and validation procedures.
#
#######################################################################

data_PUQYAC
_symmetry_cell_setting           hexagonal
_symmetry_space_group_name_H-M   'P 64 2 2'
_symmetry_Int_Tables_number      181
_space_group_name_Hall           "P 64 2' (0,0,2)"
loop_
_symmetry_equiv_pos_site_id
_symmetry_equiv_pos_as_xyz
1 x,y,z
2 -y,x-y,1/3+z
3 -x+y,-x,2/3+z
4 -x,-y,z
5 y,-x+y,1/3+z
6 x-y,x,2/3+z
7 y,x,1/3-z
8 x-y,-y,-z
9 -x,-x+y,2/3-z
10 -y,-x,1/3-z
11 -x+y,y,-z
12 x,x-y,2/3-z
_cell_length_a                   21.260(3)
_cell_length_b                   21.260(3)
_cell_length_c                   7.7300(15)
_cell_angle_alpha                90
_cell_angle_beta                 90
_cell_angle_gamma                120
_cell_volume                     3025.78
loop_
_atom_site_label
_atom_site_type_symbol
_atom_site_fract_x
_atom_site_fract_y
_atom_site_fract_z
Zn1 Zn 0.70091(3) 0.40183(5) 0.0000
O2 O 0.7610(3) 0.3616(3) 0.0742(6)
C1 C 0.7811(3) 0.3224(3) -0.0038(7)
C2 C 0.8642(3) 0.2730(4) -0.0002(10)
H1 H 0.8466 0.2542 -0.1096
C3 C 0.9137(3) 0.3252(3) 0.3236(10)
H2 H 0.9295 0.3427 0.4347
F1 F 0.9287(3) 0.2305(3) 0.5843(10)
F2 F 0.9964(4) 0.1864(2) 0.5309(12)
C4 C 0.8613(3) 0.3370(4) 0.2479(8)
H3 H 0.8429 0.3622 0.3075
C5 C 0.8365(3) 0.3108(3) 0.0826(8)
C6 C 1.0000 0.2765(4) 0.3333
C7 C 0.9169(4) 0.2618(4) 0.0719(10)
H4 H 0.9352 0.2367 0.0108
C8 C 0.9431(3) 0.2887(3) 0.2408(10)
F3 F 0.9024(3) 0.1558(2) 0.3747(12)
C9 C 0.9576(5) 0.2126(4) 0.4591(17)
O3 O 0.7579(3) 0.2935(3) -0.1462(6)
Zn1B Zn 0.70092(6) 0.29909(3) -0.3333
Zn1C Zn 1.29909(3) 0.59817(5) 1.0000
Zn1E Zn 1.29908(6) 0.70091(3) 0.6667
O2H O 1.2390(3) 0.6006(4) 0.5925(6)
O2J O 0.6006(4) 0.3616(3) -0.0742(6)
C1H C 1.2189(3) 0.5413(4) 0.6705(7)
C2H C 1.1358(3) 0.4088(5) 0.6669(10)
H1H H 1.1534 0.4076 0.7763
C3H C 1.0863(3) 0.4115(4) 0.3431(10)
H2H H 1.0705 0.4132 0.2320
F1H F 1.0713(3) 0.3018(4) 0.0824(10)
F2H F 1.0036(4) 0.1900(4) 0.1358(12)
C4H C 1.1387(3) 0.4757(5) 0.4188(8)
H3H H 1.1571 0.5193 0.3592
C5H C 1.1635(3) 0.4743(4) 0.5841(8)
C7H C 1.0831(4) 0.3449(6) 0.5948(10)
H4H H 1.0648 0.3015 0.6559
C8H C 1.0569(3) 0.3456(4) 0.4259(10)
F3H F 1.0976(3) 0.2534(4) 0.2920(12)
C9H C 1.0424(5) 0.2550(6) 0.2076(17)
O3H O 1.2421(3) 0.5356(4) 0.8129(6)
O3A O 0.7065(3) 0.4644(4) 0.1871(6)
O3K O 0.7579(3) 0.4644(4) -0.1871(6)
O1 O 1.0000 0.5000 -0.1667
loop_
_geom_bond_atom_site_label_1
_geom_bond_atom_site_label_2
_geom_bond_site_symmetry_1
_geom_bond_site_symmetry_2
Zn1 O2 1_555 1_555
O2 C1 1_555 1_555
C1 C5 1_555 1_555
C2 H1 1_555 1_555
C3 H2 1_555 1_555
F1 C9 1_555 1_555
F2 C9 1_555 1_555
C4 C3 1_555 1_555
H3 C4 1_555 1_555
C5 C2 1_555 1_555
C6 C8 1_555 1_555
C7 C2 1_555 1_555
H4 C7 1_555 1_555
C8 C3 1_555 1_555
F3 C9 1_555 1_555
C9 C6 1_555 1_555
O3 C1 1_555 1_555
Zn1B O3 1_555 1_555
Zn1C O3H 1_555 1_555
Zn1E O2H 1_555 1_555
O2H C1H 1_555 1_555
O2J Zn1 1_555 1_555
C1H C5H 1_555 1_555
C2H H1H 1_555 1_555
C3H H2H 1_555 1_555
F1H C9H 1_555 1_555
F2H C9H 1_555 1_555
C4H C3H 1_555 1_555
H3H C4H 1_555 1_555
C5H C2H 1_555 1_555
C7H C2H 1_555 1_555
H4H C7H 1_555 1_555
C8H C6 1_555 1_555
F3H C9H 1_555 1_555
C9H C6 1_555 1_555
O3H C1H 1_555 1_555
O3A Zn1 1_555 1_555
O3K Zn1 1_555 1_555
C4 C5 1_555 1_555
C7 C8 1_555 1_555
C3H C8H 1_555 1_555
C4H C5H 1_555 1_555
C7H C8H 1_555 1_555

#END
