
#######################################################################
#
#                 Cambridge Crystallographic Data Centre
#                                CCDC 
#
#######################################################################
#
# If this CIF has been generated from an entry in the Cambridge 
# Structural Database, then it will include bibliographic, chemical, 
# crystal, experimental, refinement or atomic coordinate data resulting 
# from the CCDC's data processing and validation procedures.
#
#######################################################################

data_PURDIQ
_symmetry_cell_setting           hexagonal
_symmetry_space_group_name_H-M   'P 63/m'
_symmetry_Int_Tables_number      176
_space_group_name_Hall           '-P 6c'
loop_
_symmetry_equiv_pos_site_id
_symmetry_equiv_pos_as_xyz
1 x,y,z
2 x-y,x,1/2+z
3 -y,x-y,z
4 -x,-y,1/2+z
5 -x+y,-x,z
6 y,-x+y,1/2+z
7 -x,-y,-z
8 -x+y,-x,1/2-z
9 y,-x+y,-z
10 x,y,1/2-z
11 x-y,x,-z
12 -y,x-y,1/2-z
_cell_length_a                   12.40610(10)
_cell_length_b                   12.40610(10)
_cell_length_c                   28.8478(6)
_cell_angle_alpha                90
_cell_angle_beta                 90
_cell_angle_gamma                120
_cell_volume                     3845.16
loop_
_atom_site_label
_atom_site_type_symbol
_atom_site_fract_x
_atom_site_fract_y
_atom_site_fract_z
Fe1 Fe 0.70995(2) 0.51065(2) 0.695670(8)
Na1 Na 1.00336(11) 0.79034(11) 0.7500
C1 C 0.56411(19) 0.4818(2) 0.60585(7)
C2 C 0.4692(3) 0.4036(2) 0.57004(8)
C3 C 0.6543(2) 0.6133(2) 0.59584(7)
C4 C 0.73272(18) 0.69978(19) 0.62982(7)
C5 C 0.8071(2) 0.82589(19) 0.61705(8)
C6 C 0.8047(2) 0.8659(2) 0.57242(9)
C7 C 0.7312(2) 0.7817(2) 0.53885(9)
C8 C 0.5253(3) 0.5616(3) 0.7500
C9 C 1.1617(2) 0.7249(2) 0.66126(11)
C10 C 0.6575(2) 0.6578(2) 0.55076(8)
N1 N 0.56586(15) 0.43397(15) 0.64563(6)
O1 O 0.47122(13) 0.31371(13) 0.65271(5)
O2 O 0.82824(17) 0.57617(18) 0.7500
O3 O 0.6667 0.3333 0.70715(8)
O4 O 1.16955(19) 0.9979(2) 0.7500
O5 O 0.73675(13) 0.66961(13) 0.67379(5)
O6 O 0.59590(17) 0.49985(18) 0.7500
O7 O 1.06124(16) 0.72620(16) 0.68370(6)
H1 H 0.870(3) 0.542(3) 0.7500
H2 H 1.212(2) 1.011(3) 0.7730(7)
H3 H 0.9965(19) 0.674(3) 0.6714(12)
H4 H 1.1621 0.7393 0.6283
H5 H 1.1564 0.6459 0.6637
H6 H 1.2404 0.7904 0.6729
H7 H 0.4173 0.3215 0.5810
H8 H 0.4197 0.4415 0.5628
H9 H 0.5106 0.3997 0.5430
H10 H 0.8561 0.8816 0.6387
H11 H 0.8527 0.9493 0.5655
H12 H 0.7328 0.8091 0.5087
H13 H 0.6062 0.6029 0.5289
H14 H 0.5779 0.6497 0.7500
H15 H 0.4738 0.5388 0.7764
Fe1I Fe 0.70995(2) 0.51065(2) 0.804330(8)
Fe1D Fe 0.80070(3) 0.29005(2) 0.695670(8)
Fe1G Fe 0.80070(3) 0.29005(2) 0.804330(8)
Fe1B Fe 0.48935(2) 0.19930(3) 0.695670(8)
Fe1K Fe 0.48935(2) 0.19930(3) 0.804330(8)
Fe1D_2 Fe 0.80070(3) 1.29005(2) 0.695670(8)
Fe1G_2 Fe 0.80070(3) 1.29005(2) 0.804330(8)
Fe1B_2 Fe 1.48935(2) 1.19930(3) 0.695670(8)
Fe1K_2 Fe 1.48935(2) 1.19930(3) 0.804330(8)
Na1D Na 0.78698(16) 0.99664(11) 0.7500
Na1B Na 1.20966(11) 1.21302(16) 0.7500
C1D C 0.91769(28) 0.43589(19) 0.60585(7)
C1I C 0.56411(19) 0.4818(2) 0.89415(7)
C1G C 0.91769(28) 0.43589(19) 0.89415(7)
C1B C 0.5182(2) 0.08231(28) 0.60585(7)
C1K C 0.5182(2) 0.08231(28) 0.89415(7)
C2D C 0.9344(4) 0.5308(3) 0.57004(8)
C2I C 0.4692(3) 0.4036(2) 0.92996(8)
C2G C 0.9344(4) 0.5308(3) 0.92996(8)
C2B C 0.5964(2) 0.0656(4) 0.57004(8)
C2K C 0.5964(2) 0.0656(4) 0.92996(8)
C3D C 0.9590(3) 0.3457(2) 0.59584(7)
C3I C 0.6543(2) 0.6133(2) 0.90416(7)
C3G C 0.9590(3) 0.3457(2) 0.90416(7)
C3B C 0.3867(2) 0.0410(3) 0.59584(7)
C3K C 0.3867(2) 0.0410(3) 0.90416(7)
C4D C 0.96706(26) 0.26728(18) 0.62982(7)
C4I C 0.73272(18) 0.69978(19) 0.87018(7)
C4G C 0.96706(26) 0.26728(18) 0.87018(7)
C4B C 0.30022(19) 0.03294(26) 0.62982(7)
C4K C 0.30022(19) 0.03294(26) 0.87018(7)
C5D C 1.01879(28) 0.1929(2) 0.61705(8)
C5I C 0.8071(2) 0.82589(19) 0.88295(8)
C5G C 1.01879(28) 0.1929(2) 0.88295(8)
C5B C 0.17411(19) -0.01879(28) 0.61705(8)
C5K C 0.17411(19) -0.01879(28) 0.88295(8)
C6D C 1.0612(3) 0.1953(2) 0.57242(9)
C6I C 0.8047(2) 0.8659(2) 0.92758(9)
C6G C 1.0612(3) 0.1953(2) 0.92758(9)
C6B C 0.1341(2) -0.0612(3) 0.57242(9)
C6K C 0.1341(2) -0.0612(3) 0.92758(9)
C7D C 1.0505(3) 0.2688(2) 0.53885(9)
C7I C 0.7312(2) 0.7817(2) 0.96115(9)
C7G C 1.0505(3) 0.2688(2) 0.96115(9)
C7B C 0.2183(2) -0.0505(3) 0.53885(9)
C7K C 0.2183(2) -0.0505(3) 0.96115(9)
C8D C 1.0363(4) 0.4747(3) 0.7500
C8B C 0.4384(3) -0.0363(4) 0.7500
C9I C 1.1617(2) 0.7249(2) 0.83874(11)
C9D C 0.5632(3) 0.8383(2) 0.66126(11)
C9G C 0.5632(3) 0.8383(2) 0.83874(11)
C9B C 1.2751(2) 1.4368(3) 0.66126(11)
C9K C 1.2751(2) 1.4368(3) 0.83874(11)
C10D C 1.0003(3) 0.3425(2) 0.55076(8)
C10I C 0.6575(2) 0.6578(2) 0.94924(8)
C10G C 1.0003(3) 0.3425(2) 0.94924(8)
C10B C 0.3422(2) -0.0003(3) 0.55076(8)
C10K C 0.3422(2) -0.0003(3) 0.94924(8)
N1D N 0.86811(21) 0.43414(15) 0.64563(6)
N1I N 0.56586(15) 0.43397(15) 0.85437(6)
N1G N 0.86811(21) 0.43414(15) 0.85437(6)
N1B N 0.56603(15) 0.13189(21) 0.64563(6)
N1K N 0.56603(15) 0.13189(21) 0.85437(6)
O1D O 0.84249(18) 0.52878(13) 0.65271(5)
O1I O 0.47122(13) 0.31371(13) 0.84729(5)
O1G O 0.84249(18) 0.52878(13) 0.84729(5)
O1B O 0.68629(13) 0.15751(18) 0.65271(5)
O1K O 0.68629(13) 0.15751(18) 0.84729(5)
O2D O 0.74793(25) 1.17176(17) 0.7500
O2B O 1.42383(18) 1.25207(25) 0.7500
O2D_2 O 0.74793(25) 0.17176(17) 0.7500
O2B_2 O 0.42383(18) 0.25207(25) 0.7500
O3I O 0.6667 0.3333 0.79285(8)
O4D O 0.82835(28) 0.83045(19) 0.7500
O4B O 1.0021(2) 1.17165(28) 0.7500
O5D O 0.93286(18) 0.26325(13) 0.67379(5)
O5I O 0.73675(13) 0.66961(13) 0.82621(5)
O5G O 0.93286(18) 0.26325(13) 0.82621(5)
O5B O 0.33039(13) 0.06714(18) 0.67379(5)
O5K O 0.33039(13) 0.06714(18) 0.82621(5)
O6D O 0.90395(25) 0.40410(17) 0.7500
O6B O 0.50015(18) 0.09605(25) 0.7500
O7I O 1.06124(16) 0.72620(16) 0.81630(6)
O7D O 0.66496(23) 0.93876(16) 0.68370(6)
O7G O 0.66496(23) 0.93876(16) 0.81630(6)
O7B O 1.27380(16) 1.33504(23) 0.68370(6)
O7K O 1.27380(16) 1.33504(23) 0.81630(6)
H1D H 0.672(4) 1.130(3) 0.7500
H1B H 1.458(3) 1.328(4) 0.7500
H1D_2 H 0.672(4) 0.130(3) 0.7500
H1B_2 H 0.458(3) 0.328(4) 0.7500
H2I H 1.212(2) 1.011(3) 0.7270(7)
H2D H 0.799(4) 0.788(2) 0.7730(7)
H2G H 0.799(4) 0.788(2) 0.7270(7)
H2B H 0.989(3) 1.201(4) 0.7730(7)
H2K H 0.989(3) 1.201(4) 0.7270(7)
H3I H 0.9965(19) 0.674(3) 0.8286(12)
H3D H 0.6775(36) 1.0035(19) 0.6714(12)
H3G H 0.6775(36) 1.0035(19) 0.8286(12)
H3B H 1.326(3) 1.3225(36) 0.6714(12)
H3K H 1.326(3) 1.3225(36) 0.8286(12)
H4I H 1.1621 0.7393 0.8717
H4D H 0.5772 0.8379 0.6283
H4G H 0.5772 0.8379 0.8717
H4B H 1.2607 1.4228 0.6283
H4K H 1.2607 1.4228 0.8717
H5I H 1.1564 0.6459 0.8363
H5D H 0.4895 0.8436 0.6637
H5G H 0.4895 0.8436 0.8363
H5B H 1.3541 1.5105 0.6637
H5K H 1.3541 1.5105 0.8363
H6I H 1.2404 0.7904 0.8271
H6D H 0.5500 0.7596 0.6729
H6G H 0.5500 0.7596 0.8271
H6B H 1.2096 1.4500 0.6729
H6K H 1.2096 1.4500 0.8271
H7D H 0.9042 0.5827 0.5810
H7I H 0.4173 0.3215 0.9190
H7G H 0.9042 0.5827 0.9190
H7B H 0.6785 0.0958 0.5810
H7K H 0.6785 0.0958 0.9190
H8D H 1.0218 0.5803 0.5628
H8I H 0.4197 0.4415 0.9372
H8G H 1.0218 0.5803 0.9372
H8B H 0.5585 -0.0218 0.5628
H8K H 0.5585 -0.0218 0.9372
H9D H 0.8891 0.4894 0.5430
H9I H 0.5106 0.3997 0.9570
H9G H 0.8891 0.4894 0.9570
H9B H 0.6003 0.1109 0.5430
H9K H 0.6003 0.1109 0.9570
H10D H 1.0255 0.1439 0.6387
H10I H 0.8561 0.8816 0.8613
H10G H 1.0255 0.1439 0.8613
H10B H 0.1184 -0.0255 0.6387
H10K H 0.1184 -0.0255 0.8613
H11D H 1.0966 0.1473 0.5655
H11I H 0.8527 0.9493 0.9345
H11G H 1.0966 0.1473 0.9345
H11B H 0.0507 -0.0966 0.5655
H11K H 0.0507 -0.0966 0.9345
H12D H 1.0763 0.2672 0.5087
H12I H 0.7328 0.8091 0.9913
H12G H 1.0763 0.2672 0.9913
H12B H 0.1909 -0.0763 0.5087
H12K H 0.1909 -0.0763 0.9913
H13D H 0.9967 0.3938 0.5289
H13I H 0.6062 0.6029 0.9711
H13G H 0.9967 0.3938 0.9711
H13B H 0.3971 0.0033 0.5289
H13K H 0.3971 0.0033 0.9711
H14D H 1.0718 0.4221 0.7500
H14B H 0.3503 -0.0718 0.7500
H15I H 0.4738 0.5388 0.7236
H15D H 1.0650 0.5262 0.7764
H15G H 1.0650 0.5262 0.7236
H15B H 0.4612 -0.0650 0.7764
H15K H 0.4612 -0.0650 0.7236
loop_
_geom_bond_atom_site_label_1
_geom_bond_atom_site_label_2
_geom_bond_site_symmetry_1
_geom_bond_site_symmetry_2
Fe1 N1 1_555 1_555
Na1 O2 1_555 1_555
C1 C2 1_555 1_555
C2 H7 1_555 1_555
C3 C1 1_555 1_555
C4 C3 1_555 1_555
C5 C4 1_555 1_555
C6 C5 1_555 1_555
C7 C6 1_555 1_555
C8 O6 1_555 1_555
C9 O7 1_555 1_555
C10 C3 1_555 1_555
N1 C1 1_555 1_555
O1 N1 1_555 1_555
O2 Fe1 1_555 1_555
O3 Fe1 1_555 1_555
O4 Na1 1_555 1_555
O5 Fe1 1_555 1_555
O6 Fe1 1_555 1_555
O7 Na1 1_555 1_555
H1 O2 1_555 1_555
H2 O4 1_555 1_555
H3 O7 1_555 1_555
H4 C9 1_555 1_555
H5 C9 1_555 1_555
H6 C9 1_555 1_555
H8 C2 1_555 1_555
H9 C2 1_555 1_555
H10 C5 1_555 1_555
H11 C6 1_555 1_555
H12 C7 1_555 1_555
H13 C10 1_555 1_555
H14 C8 1_555 1_555
H15 C8 1_555 1_555
Fe1I O2 1_555 1_555
Fe1D O3 1_555 1_555
Fe1G N1G 1_555 1_555
Fe1B O1 1_555 1_555
Fe1K N1K 1_555 1_555
Fe1D_2 O2D 1_555 1_555
Fe1G_2 O2D 1_555 1_555
Fe1B_2 O2B 1_555 1_555
Fe1K_2 O2B 1_555 1_555
Na1D O2D 1_555 1_555
Na1B O4 1_555 1_555
C1D C2D 1_555 1_555
C1I C2I 1_555 1_555
C1G C2G 1_555 1_555
C1B C2B 1_555 1_555
C1K C2K 1_555 1_555
C2D H7D 1_555 1_555
C2I H7I 1_555 1_555
C2G H7G 1_555 1_555
C2B H7B 1_555 1_555
C2K H7K 1_555 1_555
C3D C1D 1_555 1_555
C3I C1I 1_555 1_555
C3G C1G 1_555 1_555
C3B C1B 1_555 1_555
C3K C1K 1_555 1_555
C4D C3D 1_555 1_555
C4I C3I 1_555 1_555
C4G C3G 1_555 1_555
C4B C3B 1_555 1_555
C4K C3K 1_555 1_555
C5D C4D 1_555 1_555
C5I C4I 1_555 1_555
C5G C4G 1_555 1_555
C5B C4B 1_555 1_555
C5K C4K 1_555 1_555
C6D C5D 1_555 1_555
C6I C5I 1_555 1_555
C6G C5G 1_555 1_555
C6B C5B 1_555 1_555
C6K C5K 1_555 1_555
C7D C6D 1_555 1_555
C7I C6I 1_555 1_555
C7G C6G 1_555 1_555
C7B C6B 1_555 1_555
C7K C6K 1_555 1_555
C8D O6D 1_555 1_555
C8B O6B 1_555 1_555
C9I O7I 1_555 1_555
C9D O7D 1_555 1_555
C9G O7G 1_555 1_555
C9B O7B 1_555 1_555
C9K O7K 1_555 1_555
C10D C3D 1_555 1_555
C10I C3I 1_555 1_555
C10G C3G 1_555 1_555
C10B C3B 1_555 1_555
C10K C3K 1_555 1_555
N1D Fe1D 1_555 1_555
N1I Fe1I 1_555 1_555
N1G C1G 1_555 1_555
N1B Fe1B 1_555 1_555
N1K C1K 1_555 1_555
O1D Fe1 1_555 1_555
O1I Fe1K 1_555 1_555
O1G Fe1I 1_555 1_555
O1B Fe1D 1_555 1_555
O1K Fe1G 1_555 1_555
O2D H1D 1_555 1_555
O2B Na1B 1_555 1_555
O2D_2 Fe1D 1_555 1_555
O2B_2 Fe1B 1_555 1_555
O3I Fe1I 1_555 1_555
O4D Na1 1_555 1_555
O4B Na1D 1_555 1_555
O5D Fe1D 1_555 1_555
O5I Fe1I 1_555 1_555
O5G Fe1G 1_555 1_555
O5B Fe1B 1_555 1_555
O5K Fe1K 1_555 1_555
O6D Fe1D 1_555 1_555
O6B Fe1B 1_555 1_555
O7I Na1 1_555 1_555
O7D Na1D 1_555 1_555
O7G Na1D 1_555 1_555
O7B Na1B 1_555 1_555
O7K Na1B 1_555 1_555
H1B O2B 1_555 1_555
H1D_2 O2D_2 1_555 1_555
H1B_2 O2B_2 1_555 1_555
H2I O4 1_555 1_555
H2D O4D 1_555 1_555
H2G O4D 1_555 1_555
H2B O4B 1_555 1_555
H2K O4B 1_555 1_555
H3I O7I 1_555 1_555
H3D O7D 1_555 1_555
H3G O7G 1_555 1_555
H3B O7B 1_555 1_555
H3K O7K 1_555 1_555
H4I C9I 1_555 1_555
H4D C9D 1_555 1_555
H4G C9G 1_555 1_555
H4B C9B 1_555 1_555
H4K C9K 1_555 1_555
H5I C9I 1_555 1_555
H5D C9D 1_555 1_555
H5G C9G 1_555 1_555
H5B C9B 1_555 1_555
H5K C9K 1_555 1_555
H6I C9I 1_555 1_555
H6D C9D 1_555 1_555
H6G C9G 1_555 1_555
H6B C9B 1_555 1_555
H6K C9K 1_555 1_555
H8D C2D 1_555 1_555
H8I C2I 1_555 1_555
H8G C2G 1_555 1_555
H8B C2B 1_555 1_555
H8K C2K 1_555 1_555
H9D C2D 1_555 1_555
H9I C2I 1_555 1_555
H9G C2G 1_555 1_555
H9B C2B 1_555 1_555
H9K C2K 1_555 1_555
H10D C5D 1_555 1_555
H10I C5I 1_555 1_555
H10G C5G 1_555 1_555
H10B C5B 1_555 1_555
H10K C5K 1_555 1_555
H11D C6D 1_555 1_555
H11I C6I 1_555 1_555
H11G C6G 1_555 1_555
H11B C6B 1_555 1_555
H11K C6K 1_555 1_555
H12D C7D 1_555 1_555
H12I C7I 1_555 1_555
H12G C7G 1_555 1_555
H12B C7B 1_555 1_555
H12K C7K 1_555 1_555
H13D C10D 1_555 1_555
H13I C10I 1_555 1_555
H13G C10G 1_555 1_555
H13B C10B 1_555 1_555
H13K C10K 1_555 1_555
H14D C8D 1_555 1_555
H14B C8B 1_555 1_555
H15I C8 1_555 1_555
H15D C8D 1_555 1_555
H15G C8D 1_555 1_555
H15B C8B 1_555 1_555
H15K C8B 1_555 1_555
C4 O5 1_555 1_555
C7 C10 1_555 1_555
O3 Fe1B 1_555 1_555
O6 Fe1I 1_555 1_555
Fe1G O2D_2 1_555 1_555
Fe1G O3I 1_555 1_555
Fe1G O6D 1_555 1_555
Fe1K O2B_2 1_555 1_555
Fe1K O3I 1_555 1_555
Fe1K O6B 1_555 1_555
Na1D O4D 1_555 1_555
Na1B O4B 1_555 1_555
C1D N1D 1_555 1_555
C1I N1I 1_555 1_555
C1B N1B 1_555 1_555
C4D O5D 1_555 1_555
C4I O5I 1_555 1_555
C4G O5G 1_555 1_555
C4B O5B 1_555 1_555
C4K O5K 1_555 1_555
C7D C10D 1_555 1_555
C7I C10I 1_555 1_555
C7G C10G 1_555 1_555
C7B C10B 1_555 1_555
C7K C10K 1_555 1_555
N1D O1D 1_555 1_555
N1I O1I 1_555 1_555
N1G O1G 1_555 1_555
N1B O1B 1_555 1_555
N1K O1K 1_555 1_555

#END
