
#######################################################################
#
#                 Cambridge Crystallographic Data Centre
#                                CCDC 
#
#######################################################################
#
# If this CIF has been generated from an entry in the Cambridge 
# Structural Database, then it will include bibliographic, chemical, 
# crystal, experimental, refinement or atomic coordinate data resulting 
# from the CCDC's data processing and validation procedures.
#
#######################################################################

data_PURHER
_symmetry_cell_setting           monoclinic
_symmetry_space_group_name_H-M   'P 21/c'
_symmetry_Int_Tables_number      14
_space_group_name_Hall           '-P 2ybc'
loop_
_symmetry_equiv_pos_site_id
_symmetry_equiv_pos_as_xyz
1 x,y,z
2 -x,1/2+y,1/2-z
3 -x,-y,-z
4 x,1/2-y,1/2+z
_cell_length_a                   19.1540(13)
_cell_length_b                   7.9390(4)
_cell_length_c                   13.9360(10)
_cell_angle_alpha                90
_cell_angle_beta                 93.613(6)
_cell_angle_gamma                90
_cell_volume                     2114.95
loop_
_atom_site_label
_atom_site_type_symbol
_atom_site_fract_x
_atom_site_fract_y
_atom_site_fract_z
Zn1 Zn 0.25264(2) 0.40985(3) 0.40528(2)
Cl1 Cl 0.56541(3) -0.36051(7) 0.39290(4)
Cl2 Cl 0.47759(3) 0.27108(6) 0.35049(4)
Cl3 Cl -0.16163(3) 0.05905(7) 0.46020(5)
Cl4 Cl 0.03903(3) 0.05942(9) 0.21366(4)
O1 O 0.32525(8) 0.26272(19) 0.36392(11)
O2 O 0.29229(8) 0.1122(2) 0.48747(12)
O3 O 0.15535(8) 0.38121(19) 0.43523(11)
O4 O 0.15737(8) 0.2472(2) 0.29728(11)
O5 O 0.28437(7) 0.97410(18) 0.03015(10)
N1 N 0.25858(9) 0.6046(2) 0.31119(12)
N2 N 0.24264(11) 1.1614(2) 0.13473(15)
C1 C 0.26349(10) 1.0108(3) 0.11113(14)
C2 C 0.26303(10) 0.8732(2) 0.18463(14)
C3 C 0.21622(12) 0.8728(3) 0.25643(16)
H1 H 0.1860 0.9631 0.2635
C4 C 0.21527(11) 0.7362(3) 0.31707(16)
H2 H 0.1831 0.7351 0.3643
C5 C 0.30463(11) 0.6066(3) 0.24265(15)
H3 H 0.3353 0.5165 0.2385
C6 C 0.30809(11) 0.7375(3) 0.17821(15)
H4 H 0.3403 0.7349 0.1310
C7 C 0.33190(11) 0.1392(3) 0.42233(15)
C8 C 0.39099(10) 0.0187(2) 0.40899(14)
C9 C 0.38107(11) -0.1500(3) 0.43268(15)
H5 H 0.3380 -0.1831 0.4537
C10 C 0.43302(11) -0.2697(3) 0.42591(15)
H6 H 0.4250 -0.3819 0.4408
C11 C 0.49713(11) -0.2180(3) 0.39640(15)
C12 C 0.50947(11) -0.0523(3) 0.37248(15)
H7 H 0.5531 -0.0198 0.3532
C13 C 0.45622(11) 0.0649(2) 0.37758(14)
C14 C 0.12706(10) 0.2869(2) 0.36965(15)
C15 C 0.05454(10) 0.2264(2) 0.38706(15)
C16 C 0.02638(11) 0.2735(3) 0.47245(16)
H8 H 0.0532 0.3397 0.5158
C17 C -0.03976(12) 0.2258(3) 0.49553(17)
H9 H -0.0575 0.2604 0.5529
C18 C -0.07901(11) 0.1258(3) 0.43187(17)
C19 C -0.05368(11) 0.0746(3) 0.34601(16)
H10 H -0.0805 0.0069 0.3036
C20 C 0.01265(11) 0.1263(3) 0.32444(15)
H11 H 0.2449(14) 1.241(4) 0.096(2)
H12 H 0.2281(14) 1.185(4) 0.191(2)
Zn1C Zn 0.25264(2) 1.09015(3) -0.09472(2)
O5C O 0.28437(7) 0.52590(18) 0.53015(10)
loop_
_geom_bond_atom_site_label_1
_geom_bond_atom_site_label_2
_geom_bond_site_symmetry_1
_geom_bond_site_symmetry_2
Zn1 O1 1_555 1_555
Cl1 C11 1_555 1_555
Cl2 C13 1_555 1_555
Cl3 C18 1_555 1_555
Cl4 C20 1_555 1_555
O1 C7 1_555 1_555
O2 C7 1_555 1_555
O3 Zn1 1_555 1_555
O4 C14 1_555 1_555
O5 C1 1_555 1_555
N1 Zn1 1_555 1_555
N2 C1 1_555 1_555
C1 C2 1_555 1_555
C2 C3 1_555 1_555
C3 H1 1_555 1_555
C4 N1 1_555 1_555
H2 C4 1_555 1_555
C5 N1 1_555 1_555
H3 C5 1_555 1_555
C6 C2 1_555 1_555
H4 C6 1_555 1_555
C7 C8 1_555 1_555
C8 C9 1_555 1_555
C9 H5 1_555 1_555
C10 C9 1_555 1_555
H6 C10 1_555 1_555
C11 C10 1_555 1_555
C12 C11 1_555 1_555
H7 C12 1_555 1_555
C13 C8 1_555 1_555
C14 O3 1_555 1_555
C15 C14 1_555 1_555
C16 C15 1_555 1_555
H8 C16 1_555 1_555
C17 C16 1_555 1_555
H9 C17 1_555 1_555
C18 C17 1_555 1_555
C19 C18 1_555 1_555
H10 C19 1_555 1_555
C20 C15 1_555 1_555
H11 N2 1_555 1_555
H12 N2 1_555 1_555
Zn1C O5 1_555 1_555
O5C Zn1 1_555 1_555
C3 C4 1_555 1_555
C5 C6 1_555 1_555
C12 C13 1_555 1_555
C19 C20 1_555 1_555

#END
