
#######################################################################
#
#                 Cambridge Crystallographic Data Centre
#                                CCDC 
#
#######################################################################
#
# If this CIF has been generated from an entry in the Cambridge 
# Structural Database, then it will include bibliographic, chemical, 
# crystal, experimental, refinement or atomic coordinate data resulting 
# from the CCDC's data processing and validation procedures.
#
#######################################################################

data_PURJIX
_symmetry_cell_setting           monoclinic
_symmetry_space_group_name_H-M   'C 2/c'
_symmetry_Int_Tables_number      15
_space_group_name_Hall           '-C 2yn'
loop_
_symmetry_equiv_pos_site_id
_symmetry_equiv_pos_as_xyz
1 x,y,z
2 -x,y,1/2-z
3 1/2+x,1/2+y,z
4 1/2-x,1/2+y,1/2-z
5 -x,-y,-z
6 x,-y,1/2+z
7 1/2-x,1/2-y,-z
8 1/2+x,1/2-y,1/2+z
_cell_length_a                   24.174(5)
_cell_length_b                   9.850(2)
_cell_length_c                   7.6135(15)
_cell_angle_alpha                90
_cell_angle_beta                 92.44(3)
_cell_angle_gamma                90
_cell_volume                     1811.24
loop_
_atom_site_label
_atom_site_type_symbol
_atom_site_fract_x
_atom_site_fract_y
_atom_site_fract_z
Cd1 Cd 0.2500 0.2500 1.0000
S1 S 0.31494(4) 0.70616(9) 0.80081(12)
O1 O 0.43099(13) 0.4946(4) 0.6234(5)
H1 H 0.4511(18) 0.553(4) 0.578(6)
O2 O 0.48551(11) 0.3293(3) 0.5279(4)
N1 N 0.33088(10) 0.1962(3) 0.8535(3)
N2 N 0.26096(12) 0.4774(3) 0.9296(4)
C1 C 0.36200(13) 0.2910(4) 0.7766(4)
H2 H 0.3506 0.3811 0.7806
C2 C 0.40952(13) 0.2612(3) 0.6928(4)
C3 C 0.42573(14) 0.1251(4) 0.6869(5)
H3 H 0.4576 0.1004 0.6308
C4 C 0.39424(15) 0.0288(4) 0.7642(5)
H4 H 0.4045 -0.0621 0.7617
C5 C 0.34731(13) 0.0679(3) 0.8459(4)
H5 H 0.3261 0.0015 0.8980
C6 C 0.44482(13) 0.3656(4) 0.6082(5)
C7 C 0.28255(12) 0.5729(3) 0.8770(4)
S1F S 0.18506(4) -0.20616(9) 1.19919(12)
O1F O 0.06901(13) 0.0054(4) 1.3766(5)
H1F H 0.0489(18) -0.053(4) 1.422(6)
O2F O 0.01449(11) 0.1707(3) 1.4721(4)
N1F N 0.16912(10) 0.3038(3) 1.1465(3)
N2F N 0.23904(12) 0.0226(3) 1.0704(4)
C1F C 0.13800(13) 0.2090(4) 1.2234(4)
H2F H 0.1494 0.1189 1.2194
C2F C 0.09048(13) 0.2388(3) 1.3072(4)
C3F C 0.07427(14) 0.3749(4) 1.3131(5)
H3F H 0.0424 0.3996 1.3692
C4F C 0.10576(15) 0.4712(4) 1.2358(5)
H4F H 0.0955 0.5621 1.2383
C5F C 0.15269(13) 0.4321(3) 1.1541(4)
H5F H 0.1739 0.4985 1.1020
C6F C 0.05518(13) 0.1344(4) 1.3918(5)
C7F C 0.21745(12) -0.0729(3) 1.1230(4)
Cd1C Cd 0.2500 -0.2500 1.5000
Cd1C_2 Cd 0.2500 0.7500 0.5000
S1C S 0.18506(4) 0.20616(9) 0.69919(12)
S1E S 0.31494(4) 0.29384(9) 1.30081(12)
O3 O 0.5000 0.1570(6) 0.2500
H6 H 0.486(4) 0.205(2) 0.328(8)
H6A H 0.514(4) 0.205(2) 0.172(8)
loop_
_geom_bond_atom_site_label_1
_geom_bond_atom_site_label_2
_geom_bond_site_symmetry_1
_geom_bond_site_symmetry_2
Cd1 N1 1_555 1_555
S1 C7 1_555 1_555
O1 H1 1_555 1_555
O2 C6 1_555 1_555
N1 C1 1_555 1_555
N2 Cd1 1_555 1_555
C1 H2 1_555 1_555
C2 C1 1_555 1_555
C3 C2 1_555 1_555
H3 C3 1_555 1_555
C4 C3 1_555 1_555
H4 C4 1_555 1_555
C5 N1 1_555 1_555
H5 C5 1_555 1_555
C6 O1 1_555 1_555
C7 N2 1_555 1_555
O3 H6 1_555 1_555
S1F C7F 1_555 1_555
O1F H1F 1_555 1_555
O2F C6F 1_555 1_555
N1F Cd1 1_555 1_555
N2F Cd1 1_555 1_555
C1F N1F 1_555 1_555
H2F C1F 1_555 1_555
C2F C1F 1_555 1_555
C3F C2F 1_555 1_555
H3F C3F 1_555 1_555
C4F C3F 1_555 1_555
H4F C4F 1_555 1_555
C5F N1F 1_555 1_555
H5F C5F 1_555 1_555
C6F O1F 1_555 1_555
C7F N2F 1_555 1_555
Cd1C S1F 1_555 1_555
Cd1C_2 S1 1_555 1_555
S1C Cd1 1_555 1_555
S1E Cd1 1_555 1_555
H6A O3 1_555 1_555
C2 C6 1_555 1_555
C4 C5 1_555 1_555
C2F C6F 1_555 1_555
C4F C5F 1_555 1_555

#END
