
#######################################################################
#
#                 Cambridge Crystallographic Data Centre
#                                CCDC 
#
#######################################################################
#
# If this CIF has been generated from an entry in the Cambridge 
# Structural Database, then it will include bibliographic, chemical, 
# crystal, experimental, refinement or atomic coordinate data resulting 
# from the CCDC's data processing and validation procedures.
#
#######################################################################

data_PURMAS
_symmetry_cell_setting           triclinic
_symmetry_space_group_name_H-M   'P -1'
_symmetry_Int_Tables_number      2
_space_group_name_Hall           '-P 1'
loop_
_symmetry_equiv_pos_site_id
_symmetry_equiv_pos_as_xyz
1 x,y,z
2 -x,-y,-z
_cell_length_a                   6.6999(2)
_cell_length_b                   9.4854(3)
_cell_length_c                   10.8772(4)
_cell_angle_alpha                115.7860(10)
_cell_angle_beta                 91.0540(10)
_cell_angle_gamma                106.0560(11)
_cell_volume                     590.412
loop_
_atom_site_label
_atom_site_type_symbol
_atom_site_fract_x
_atom_site_fract_y
_atom_site_fract_z
C1 C 0.0182(3) 0.7543(2) 0.23015(17)
C2 C -0.1239(3) 0.6007(2) 0.19722(18)
C3 C -0.2418(3) 0.5101(2) 0.0648(2)
H1 H -0.3402 0.4074 0.0396
C4 C -0.2124(3) 0.5730(2) -0.02923(19)
H2 H -0.2910 0.5137 -0.1176
C5 C -0.0650(3) 0.7249(2) 0.01034(18)
H3 H -0.0432 0.7665 -0.0532
C6 C 0.1480(3) 0.8715(2) 0.37129(17)
C7 C -0.1652(3) 0.5304(2) 0.29909(19)
K1 K 0.32104(6) 0.61412(5) 0.48726(4)
N1 N 0.0483(2) 0.81474(18) 0.13778(14)
N2 N 0.5186(2) 0.95273(19) 0.17275(17)
H4 H 0.5317 0.8974 0.2203
H5 H 0.5489 0.9093 0.0864
N3 N 0.0801(2) 1.17388(19) 0.29926(16)
H6 H -0.0136 1.1847 0.2463
H7 H 0.0308 1.1586 0.3704
O1 O 0.27265(19) 1.00442(14) 0.37803(12)
O2 O 0.1271(2) 0.83614(16) 0.46749(13)
O3 O -0.3217(2) 0.5522(2) 0.35710(17)
O4 O -0.0512(2) 0.45304(17) 0.31197(15)
O5 O 0.2417(2) 1.03657(17) 0.05062(14)
O6 O 0.5777(2) 1.12417(16) 0.24623(15)
O7 O 0.2897(2) 1.26918(16) 0.32143(15)
O8 O 0.5476(2) 0.78799(18) 0.33398(14)
H8 H 0.6034 0.8737 0.4103
H9 H 0.5997 0.7141 0.3297
V1 V 0.28048(4) 1.05082(3) 0.20249(3)
K1_2 K -0.67896(6) 0.61412(5) 0.48726(4)
K1_3 K 0.32104(6) 1.61412(5) 0.48726(4)
K1A K -0.32104(6) 0.38588(5) 0.51274(4)
K1A_2 K 0.67896(6) 1.38588(5) 0.51274(4)
O3_2 O 0.6783(2) 0.5522(2) 0.35710(17)
O3A O 0.3217(2) 0.4478(2) 0.64290(17)
O4A O 0.0512(2) 0.54696(17) 0.68803(15)
O6A O 0.4223(2) 0.87583(16) 0.75377(15)
O7_2 O 0.2897(2) 0.26918(16) 0.32143(15)
O7A O 0.7103(2) 0.73082(16) 0.67857(15)
loop_
_geom_bond_atom_site_label_1
_geom_bond_atom_site_label_2
_geom_bond_site_symmetry_1
_geom_bond_site_symmetry_2
C1 C2 1_555 1_555
C2 C3 1_555 1_555
C3 H1 1_555 1_555
C4 C3 1_555 1_555
H2 C4 1_555 1_555
C5 C4 1_555 1_555
H3 C5 1_555 1_555
C6 C1 1_555 1_555
C7 C2 1_555 1_555
K1 O2 1_555 1_555
N1 C1 1_555 1_555
N2 H4 1_555 1_555
H5 N2 1_555 1_555
N3 H6 1_555 1_555
H7 N3 1_555 1_555
O1 C6 1_555 1_555
O2 C6 1_555 1_555
O3 C7 1_555 1_555
O4 C7 1_555 1_555
O5 V1 1_555 1_555
O6 N2 1_555 1_555
O7 N3 1_555 1_555
O8 K1 1_555 1_555
H8 O8 1_555 1_555
H9 O8 1_555 1_555
V1 N1 1_555 1_555
K1_2 O3 1_555 1_555
K1_3 O7 1_555 1_555
K1A O3 1_555 1_555
K1A_2 O6 1_555 1_555
O3_2 K1 1_555 1_555
O3A K1 1_555 1_555
O4A K1 1_555 1_555
O6A K1 1_555 1_555
O7_2 K1 1_555 1_555
O7A K1 1_555 1_555
C5 N1 1_555 1_555
K1 O4 1_555 1_555
N2 V1 1_555 1_555
N3 V1 1_555 1_555
O1 V1 1_555 1_555
O4 K1A 1_555 1_555
O6 V1 1_555 1_555
O7 V1 1_555 1_555
O7 K1A_2 1_555 1_555
K1A O4A 1_555 1_555

#END
