
#######################################################################
#
#                 Cambridge Crystallographic Data Centre
#                                CCDC 
#
#######################################################################
#
# If this CIF has been generated from an entry in the Cambridge 
# Structural Database, then it will include bibliographic, chemical, 
# crystal, experimental, refinement or atomic coordinate data resulting 
# from the CCDC's data processing and validation procedures.
#
#######################################################################

data_PURNAT
_symmetry_cell_setting           monoclinic
_symmetry_space_group_name_H-M   'P 21/c'
_symmetry_Int_Tables_number      14
_space_group_name_Hall           '-P 2ybc'
loop_
_symmetry_equiv_pos_site_id
_symmetry_equiv_pos_as_xyz
1 x,y,z
2 -x,1/2+y,1/2-z
3 -x,-y,-z
4 x,1/2-y,1/2+z
_cell_length_a                   10.7559(3)
_cell_length_b                   26.0962(8)
_cell_length_c                   25.7709(9)
_cell_angle_alpha                90
_cell_angle_beta                 95.306(3)
_cell_angle_gamma                90
_cell_volume                     7202.59
loop_
_atom_site_label
_atom_site_type_symbol
_atom_site_fract_x
_atom_site_fract_y
_atom_site_fract_z
W1 W 0.15662(9) 0.69738(4) 0.26160(4)
W2 W 0.47566(9) 0.69998(4) 0.25953(4)
W3 W 0.13156(8) 0.79646(4) 0.16064(4)
W4 W 0.44899(9) 0.79937(4) 0.15943(4)
W5 W 0.28726(9) 0.90817(3) 0.17921(4)
W6 W 0.14530(9) 0.92665(4) 0.30323(5)
W7 W 0.49304(10) 0.92843(4) 0.30051(5)
W8 W 0.34470(9) 0.71586(4) 0.37207(4)
W9 W 0.16829(10) 0.83405(4) 0.39277(4)
W10 W 0.51647(10) 0.83792(4) 0.39258(5)
Co1 Co -0.00963(13) 0.81762(5) 0.28188(6)
W11 W 0.64354(14) 0.82197(6) 0.28153(7)
Si1 Si 0.3168(5) 0.8151(2) 0.2786(3)
O1 O 0.3228(15) 0.7534(6) 0.2882(7)
O2 O 0.2995(13) 0.8260(5) 0.2165(7)
O3 O 0.4458(16) 0.8417(6) 0.3038(8)
O4 O 0.1986(14) 0.8411(6) 0.3045(7)
O5 O 0.4107(14) 0.8712(6) 0.1439(7)
O6 O 0.5329(16) 0.7855(6) 0.1080(7)
O7 O 0.5443(16) 0.9914(7) 0.3067(8)
O8 O 0.0618(16) 0.6469(6) 0.2445(8)
O9 O 0.3185(16) 0.9388(7) 0.3176(8)
O10 O 0.5636(16) 0.6497(6) 0.2425(8)
O11 O 0.5301(16) 0.9069(6) 0.3712(8)
O12 O 0.4653(16) 0.7657(7) 0.3884(7)
O13 O 0.2757(16) 0.9619(7) 0.1412(8)
O14 O 0.6416(16) 0.8957(6) 0.2841(7)
O15 O 0.1811(14) 0.9235(6) 0.2322(7)
O16 O 0.0313(15) 0.7791(6) 0.1091(7)
O17 O 0.4219(17) 0.9244(7) 0.2295(8)
O18 O 0.5802(17) 0.8440(7) 0.4556(8)
O19 O 0.1348(16) 0.8352(6) 0.4547(8)
O20 O 0.2811(16) 0.7844(6) 0.1248(8)
O21 O 0.1596(15) 0.7348(6) 0.1980(7)
O22 O 0.2114(14) 0.6798(6) 0.3309(7)
O23 O 0.1604(15) 0.8688(6) 0.1420(8)
O24 O 0.0892(15) 0.9884(6) 0.3092(7)
O25 O 0.0100(15) 0.8162(6) 0.3584(7)
O26 O -0.0082(15) 0.8926(6) 0.2856(7)
O27 O 0.3581(16) 0.6797(7) 0.4261(8)
O28 O 0.3138(14) 0.6659(6) 0.2440(7)
O29 O 0.5915(16) 0.7495(7) 0.2817(8)
O30 O 0.6551(17) 0.8202(7) 0.3591(9)
O31 O 0.1360(16) 0.9041(6) 0.3728(8)
O32 O 0.3425(15) 0.8505(6) 0.4020(7)
O33 O 0.4416(16) 0.7363(6) 0.1944(7)
O34 O 0.5718(15) 0.8214(6) 0.2107(7)
O35 O 0.2210(16) 0.7643(7) 0.3877(8)
O36 O 0.8146(15) 0.8115(6) 0.2730(7)
O37 O 0.0279(15) 0.8179(6) 0.2100(8)
O38 O 0.4561(16) 0.6813(7) 0.3296(8)
O39 O 0.0465(16) 0.7459(6) 0.2810(8)
Co2 Co -0.1123(3) 0.75007(12) 0.05586(15)
O40 O 0.0197(18) 0.7495(7) -0.0001(8)
H1 H 0.0979 0.7513 -0.0026
H2 H -0.0173 0.7593 -0.0289
O41 O -0.2255(18) 0.7516(8) 0.1166(9)
H3 H -0.2308 0.7269 0.1377
H4 H -0.2866 0.7717 0.1200
O42 O -0.253(3) 0.7315(10) 0.0005(12)
H5 H -0.3282 0.7331 -0.0129
H6 H -0.2228 0.7031 -0.0087
N1 N -0.0731(16) 0.6719(4) 0.0720(7)
C1 C -0.0610(17) 0.6361(6) 0.0325(5)
H7 H -0.0719 0.6424 -0.0031
N2 N -0.0297(16) 0.5890(5) 0.0560(7)
C2 C -0.0224(18) 0.5958(6) 0.1099(6)
H8 H -0.0031 0.5706 0.1349
C3 C -0.0492(18) 0.6470(6) 0.1198(6)
H9 H -0.0509 0.6620 0.1525
C4 C -0.017(2) 0.5450(7) 0.0278(8)
C5 C -0.0334(19) 0.4971(7) 0.0491(10)
H10 H -0.0543 0.4950 0.0832
C6 C 0.020(2) 0.5470(9) -0.0220(8)
H11 H 0.0360 0.5785 -0.0371
N3 N -0.1599(15) 0.8266(5) 0.0377(8)
C7 C -0.0664(12) 0.8624(6) 0.0305(9)
H12 H 0.0190 0.8560 0.0334
N4 N -0.1237(16) 0.9094(5) 0.0181(9)
C8 C -0.2526(15) 0.9027(6) 0.0177(10)
H13 H -0.3130 0.9279 0.0107
C9 C -0.2750(12) 0.8516(6) 0.0298(10)
H14 H -0.3529 0.8367 0.0322
C10 C -0.062(2) 0.9553(8) 0.0103(10)
C11 C 0.053(2) 0.9660(10) 0.0367(12)
H15 H 0.0885 0.9434 0.0619
C12 C -0.114(2) 0.9906(9) -0.0258(10)
H16 H -0.1931 0.9842 -0.0427
N1B N 0.0731(16) 0.3281(4) -0.0720(7)
C1B C 0.0610(17) 0.3639(6) -0.0325(5)
H7B H 0.0719 0.3576 0.0031
N2B N 0.0297(16) 0.4110(5) -0.0560(7)
C2B C 0.0224(18) 0.4042(6) -0.1099(6)
H8B H 0.0031 0.4294 -0.1349
C3B C 0.0492(18) 0.3530(6) -0.1198(6)
H9B H 0.0509 0.3380 -0.1525
C4B C 0.017(2) 0.4550(7) -0.0278(8)
C5B C 0.0334(19) 0.5029(7) -0.0491(10)
H10B H 0.0543 0.5050 -0.0832
C6B C -0.020(2) 0.4530(9) 0.0220(8)
H11B H -0.0360 0.4215 0.0371
N3B N 0.1599(15) 1.1734(5) -0.0377(8)
C7B C 0.0664(12) 1.1376(6) -0.0305(9)
H12B H -0.0190 1.1440 -0.0334
N4B N 0.1237(16) 1.0906(5) -0.0181(9)
C8B C 0.2526(15) 1.0973(6) -0.0177(10)
H13B H 0.3130 1.0721 -0.0107
C9B C 0.2750(12) 1.1484(6) -0.0298(10)
H14B H 0.3529 1.1633 -0.0322
C10B C 0.062(2) 1.0447(8) -0.0103(10)
C11B C -0.053(2) 1.0340(10) -0.0367(12)
H15B H -0.0885 1.0566 -0.0619
C12B C 0.114(2) 1.0094(9) 0.0258(10)
H16B H 0.1931 1.0158 0.0427
W1B W -0.15662(9) 0.30262(4) -0.26160(4)
W2B W -0.47566(9) 0.30002(4) -0.25953(4)
W3B W -0.13156(8) 0.20354(4) -0.16064(4)
W4B W -0.44899(9) 0.20063(4) -0.15943(4)
W5B W -0.28726(9) 0.09183(3) -0.17921(4)
W6B W -0.14530(9) 0.07335(4) -0.30323(5)
W7B W -0.49304(10) 0.07157(4) -0.30051(5)
W8B W -0.34470(9) 0.28414(4) -0.37207(4)
W9B W -0.16829(10) 0.16595(4) -0.39277(4)
W10B W -0.51647(10) 0.16208(4) -0.39258(5)
Co1B Co 0.00963(13) 0.18238(5) -0.28188(6)
W11B W -0.64354(14) 0.17803(6) -0.28153(7)
Si1B Si -0.3168(5) 0.1849(2) -0.2786(3)
O1B O -0.3228(15) 0.2466(6) -0.2882(7)
O2B O -0.2995(13) 0.1740(5) -0.2165(7)
O3B O -0.4458(16) 0.1583(6) -0.3038(8)
O4B O -0.1986(14) 0.1589(6) -0.3045(7)
O5B O -0.4107(14) 0.1288(6) -0.1439(7)
O6B O -0.5329(16) 0.2145(6) -0.1080(7)
O7B O -0.5443(16) 0.0086(7) -0.3067(8)
O8B O -0.0618(16) 0.3531(6) -0.2445(8)
O9B O -0.3185(16) 0.0612(7) -0.3176(8)
O10B O -0.5636(16) 0.3503(6) -0.2425(8)
O11B O -0.5301(16) 0.0931(6) -0.3712(8)
O12B O -0.4653(16) 0.2343(7) -0.3884(7)
O13B O -0.2757(16) 0.0381(7) -0.1412(8)
O14B O -0.6416(16) 0.1043(6) -0.2841(7)
O15B O -0.1811(14) 0.0765(6) -0.2322(7)
O16B O -0.0313(15) 0.2209(6) -0.1091(7)
O17B O -0.4219(17) 0.0756(7) -0.2295(8)
O18B O -0.5802(17) 0.1560(7) -0.4556(8)
O19B O -0.1348(16) 0.1648(6) -0.4547(8)
O20B O -0.2811(16) 0.2156(6) -0.1248(8)
O21B O -0.1596(15) 0.2652(6) -0.1980(7)
O22B O -0.2114(14) 0.3202(6) -0.3309(7)
O23B O -0.1604(15) 0.1312(6) -0.1420(8)
O24B O -0.0892(15) 0.0116(6) -0.3092(7)
O25B O -0.0100(15) 0.1838(6) -0.3584(7)
O26B O 0.0082(15) 0.1074(6) -0.2856(7)
O27B O -0.3581(16) 0.3203(7) -0.4261(8)
O28B O -0.3138(14) 0.3341(6) -0.2440(7)
O29B O -0.5915(16) 0.2505(7) -0.2817(8)
O30B O -0.6551(17) 0.1798(7) -0.3591(9)
O31B O -0.1360(16) 0.0959(6) -0.3728(8)
O32B O -0.3425(15) 0.1495(6) -0.4020(7)
O33B O -0.4416(16) 0.2637(6) -0.1944(7)
O34B O -0.5718(15) 0.1786(6) -0.2107(7)
O35B O -0.2210(16) 0.2357(7) -0.3877(8)
O36B O -0.8146(15) 0.1885(6) -0.2730(7)
O37B O -0.0279(15) 0.1821(6) -0.2100(8)
O38B O -0.4561(16) 0.3187(7) -0.3296(8)
O39B O -0.0465(16) 0.2541(6) -0.2810(8)
Co2B Co 0.1123(3) 0.24993(12) -0.05586(15)
O40B O -0.0197(18) 0.2505(7) 0.0001(8)
H1B H -0.0979 0.2487 0.0026
H2B H 0.0173 0.2407 0.0289
O41B O 0.2255(18) 0.2484(8) -0.1166(9)
H3B H 0.2308 0.2731 -0.1377
H4B H 0.2866 0.2283 -0.1200
O42B O 0.253(3) 0.2685(10) -0.0005(12)
H5B H 0.3282 0.2669 0.0129
H6B H 0.2228 0.2969 0.0087
Co1_2 Co 0.99037(13) 0.81762(5) 0.28188(6)
Co1B_2 Co -0.99037(13) 0.18238(5) -0.28188(6)
O36_2 O -0.1854(15) 0.8115(6) 0.2730(7)
O36B_2 O 0.1854(15) 0.1885(6) -0.2730(7)
Co2B_2 Co 0.1123(3) 1.24993(12) -0.05586(15)
N3B_2 N 0.1599(15) 0.1734(5) -0.0377(8)
N5 N 0.6980(16) 0.4187(5) -0.0739(6)
C13 C 0.6808(17) 0.4265(5) -0.1277(6)
H17 H 0.6611 0.4574 -0.1443
N6 N 0.6983(15) 0.3796(6) -0.1521(5)
H18 H 0.6928 0.3743 -0.1852
C14 C 0.7264(17) 0.3429(4) -0.1134(7)
H19 H 0.7423 0.3084 -0.1189
C15 C 0.7261(18) 0.3670(6) -0.0651(6)
H20 H 0.7420 0.3514 -0.0327
N7 N 0.6456(17) 0.5956(6) 0.1589(5)
H21 H 0.6531 0.5983 0.1923
C16 C 0.6665(17) 0.5514(5) 0.1306(6)
H22 H 0.6911 0.5197 0.1446
N8 N 0.6441(14) 0.5630(5) 0.0778(5)
C17 C 0.6093(16) 0.6143(5) 0.0734(6)
H23 H 0.5890 0.6321 0.0425
C18 C 0.6102(16) 0.6345(5) 0.1235(7)
H24 H 0.5906 0.6680 0.1319
C19 C 0.6796(14) 0.4549(4) -0.0376(5)
C20 C 0.6476(15) 0.4394(4) 0.0113(6)
H25 H 0.6342 0.4049 0.0179
C21 C 0.6359(16) 0.4758(6) 0.0504(5)
H26 H 0.6146 0.4655 0.0830
C22 C 0.6561(16) 0.5277(5) 0.0404(6)
C23 C 0.6881(15) 0.5431(4) -0.0085(6)
H27 H 0.7016 0.5776 -0.0151
C24 C 0.6999(14) 0.5067(5) -0.0476(5)
H28 H 0.7211 0.5170 -0.0801
N9 N 0.7792(15) 0.8876(5) 0.1638(10)
H29 H 0.7864 0.8552 0.1694
C25 C 0.8763(12) 0.9214(6) 0.1564(10)
H30 H 0.9603 0.9128 0.1566
N10 N 0.8256(15) 0.9702(5) 0.1486(10)
C26 C 0.6971(14) 0.9666(6) 0.1512(11)
H31 H 0.6404 0.9935 0.1474
C27 C 0.6684(12) 0.9156(6) 0.1606(10)
H32 H 0.5892 0.9025 0.1641
N11 N 1.1436(16) 1.2303(4) 0.1186(9)
H33 H 1.1386 1.2632 0.1182
C28 C 1.0442(12) 1.1965(5) 0.1198(9)
H34 H 0.9606 1.2054 0.1204
N12 N 1.0916(15) 1.1469(4) 0.1202(9)
C29 C 1.2203(15) 1.1502(6) 0.1191(11)
H35 H 1.2753 1.1227 0.1191
C30 C 1.2525(13) 1.2017(7) 0.1182(10)
H36 H 1.3327 1.2148 0.1174
C31 C 0.8904(16) 1.0141(5) 0.1418(8)
C32 C 1.0054(17) 1.0222(6) 0.1704(8)
H37 H 1.0372 0.9978 0.1943
C33 C 1.0727(15) 1.0671(7) 0.1631(8)
H38 H 1.1492 1.0725 0.1822
C34 C 1.0249(15) 1.1038(6) 0.1272(8)
C35 C 0.9098(15) 1.0956(6) 0.0985(7)
H39 H 0.8780 1.1201 0.0746
C36 C 0.8426(13) 1.0508(7) 0.1058(8)
H40 H 0.7660 1.0454 0.0868
O43 O -0.195(2) 0.7085(8) 0.2125(10)
O44 O 0.217(3) 0.8173(11) 0.0196(12)
O45 O 0.656(3) 0.5542(12) 0.2622(14)
O46 O 0.824(3) 0.9742(12) 0.3194(15)
W12? W -0.00963(13) 0.81762(5) 0.28188(6)
Co3? Co 0.64354(14) 0.82197(6) 0.28153(7)
loop_
_geom_bond_atom_site_label_1
_geom_bond_atom_site_label_2
_geom_bond_site_symmetry_1
_geom_bond_site_symmetry_2
W1 O1 1_555 1_555
W2 O1 1_555 1_555
W3 O2 1_555 1_555
W4 O2 1_555 1_555
W5 O2 1_555 1_555
W6 O4 1_555 1_555
W7 O3 1_555 1_555
W8 O1 1_555 1_555
W9 O4 1_555 1_555
W10 O3 1_555 1_555
Co1 O4 1_555 1_555
W11 O3 1_555 1_555
Si1 O1 1_555 1_555
O2 Si1 1_555 1_555
O3 Si1 1_555 1_555
O4 Si1 1_555 1_555
O5 W4 1_555 1_555
O6 W4 1_555 1_555
O7 W7 1_555 1_555
O8 W1 1_555 1_555
O9 W6 1_555 1_555
O10 W2 1_555 1_555
O11 W7 1_555 1_555
O12 W8 1_555 1_555
O13 W5 1_555 1_555
O14 W7 1_555 1_555
O15 W5 1_555 1_555
O16 W3 1_555 1_555
O17 W5 1_555 1_555
O18 W10 1_555 1_555
O19 W9 1_555 1_555
O20 W3 1_555 1_555
O21 W1 1_555 1_555
O22 W1 1_555 1_555
O23 W3 1_555 1_555
O24 W6 1_555 1_555
O25 W9 1_555 1_555
O26 W6 1_555 1_555
O27 W8 1_555 1_555
O28 W1 1_555 1_555
O29 W2 1_555 1_555
O30 W10 1_555 1_555
O31 W6 1_555 1_555
O32 W9 1_555 1_555
O33 W2 1_555 1_555
O34 W4 1_555 1_555
O35 W8 1_555 1_555
O36 W11 1_555 1_555
O37 W3 1_555 1_555
O38 W2 1_555 1_555
O39 W1 1_555 1_555
Co2 O16 1_555 1_555
O40 Co2 1_555 1_555
H1 O40 1_555 1_555
H2 O40 1_555 1_555
O41 Co2 1_555 1_555
H3 O41 1_555 1_555
H4 O41 1_555 1_555
O42 Co2 1_555 1_555
H5 O42 1_555 1_555
H6 O42 1_555 1_555
N1 Co2 1_555 1_555
C1 N1 1_555 1_555
H7 C1 1_555 1_555
N2 C1 1_555 1_555
C2 N2 1_555 1_555
H8 C2 1_555 1_555
C3 N1 1_555 1_555
H9 C3 1_555 1_555
C4 N2 1_555 1_555
C5 C4 1_555 1_555
H10 C5 1_555 1_555
C6 C4 1_555 1_555
H11 C6 1_555 1_555
N3 Co2 1_555 1_555
C7 N3 1_555 1_555
H12 C7 1_555 1_555
N4 C7 1_555 1_555
C8 N4 1_555 1_555
H13 C8 1_555 1_555
C9 N3 1_555 1_555
H14 C9 1_555 1_555
C10 N4 1_555 1_555
C11 C10 1_555 1_555
H15 C11 1_555 1_555
C12 C10 1_555 1_555
H16 C12 1_555 1_555
N5 C13 1_555 1_555
C13 H17 1_555 1_555
N6 C13 1_555 1_555
H18 N6 1_555 1_555
C14 N6 1_555 1_555
H19 C14 1_555 1_555
C15 N5 1_555 1_555
H20 C15 1_555 1_555
N7 H21 1_555 1_555
C16 N7 1_555 1_555
H22 C16 1_555 1_555
N8 C16 1_555 1_555
C17 N8 1_555 1_555
H23 C17 1_555 1_555
C18 N7 1_555 1_555
H24 C18 1_555 1_555
C19 N5 1_555 1_555
C20 C19 1_555 1_555
H25 C20 1_555 1_555
C21 C20 1_555 1_555
H26 C21 1_555 1_555
C22 N8 1_555 1_555
C23 C22 1_555 1_555
H27 C23 1_555 1_555
C24 C19 1_555 1_555
H28 C24 1_555 1_555
N9 H29 1_555 1_555
C25 N9 1_555 1_555
H30 C25 1_555 1_555
N10 C25 1_555 1_555
C26 N10 1_555 1_555
H31 C26 1_555 1_555
C27 N9 1_555 1_555
H32 C27 1_555 1_555
N11 H33 1_555 1_555
C28 N11 1_555 1_555
H34 C28 1_555 1_555
N12 C28 1_555 1_555
C29 N12 1_555 1_555
H35 C29 1_555 1_555
C30 N11 1_555 1_555
H36 C30 1_555 1_555
C31 N10 1_555 1_555
C32 C31 1_555 1_555
H37 C32 1_555 1_555
C33 C32 1_555 1_555
H38 C33 1_555 1_555
C34 N12 1_555 1_555
C35 C34 1_555 1_555
H39 C35 1_555 1_555
C36 C31 1_555 1_555
H40 C36 1_555 1_555
N1B C1B 1_555 1_555
C1B H7B 1_555 1_555
N2B C1B 1_555 1_555
C2B N2B 1_555 1_555
H8B C2B 1_555 1_555
C3B N1B 1_555 1_555
H9B C3B 1_555 1_555
C4B N2B 1_555 1_555
C5B C6 1_555 1_555
H10B C5B 1_555 1_555
C6B C5 1_555 1_555
H11B C6B 1_555 1_555
N3B C7B 1_555 1_555
C7B H12B 1_555 1_555
N4B C7B 1_555 1_555
C8B N4B 1_555 1_555
H13B C8B 1_555 1_555
C9B N3B 1_555 1_555
H14B C9B 1_555 1_555
C10B N4B 1_555 1_555
C11B C12 1_555 1_555
H15B C11B 1_555 1_555
C12B C11 1_555 1_555
H16B C12B 1_555 1_555
W1B O1B 1_555 1_555
W2B O1B 1_555 1_555
W3B O2B 1_555 1_555
W4B O2B 1_555 1_555
W5B O2B 1_555 1_555
W6B O4B 1_555 1_555
W7B O3B 1_555 1_555
W8B O1B 1_555 1_555
W9B O4B 1_555 1_555
W10B O3B 1_555 1_555
Co1B O4B 1_555 1_555
W11B O3B 1_555 1_555
Si1B O1B 1_555 1_555
O2B Si1B 1_555 1_555
O3B Si1B 1_555 1_555
O4B Si1B 1_555 1_555
O5B W4B 1_555 1_555
O6B W4B 1_555 1_555
O7B W7B 1_555 1_555
O8B W1B 1_555 1_555
O9B W6B 1_555 1_555
O10B W2B 1_555 1_555
O11B W7B 1_555 1_555
O12B W8B 1_555 1_555
O13B W5B 1_555 1_555
O14B W7B 1_555 1_555
O15B W5B 1_555 1_555
O16B W3B 1_555 1_555
O17B W5B 1_555 1_555
O18B W10B 1_555 1_555
O19B W9B 1_555 1_555
O20B W3B 1_555 1_555
O21B W1B 1_555 1_555
O22B W1B 1_555 1_555
O23B W3B 1_555 1_555
O24B W6B 1_555 1_555
O25B W9B 1_555 1_555
O26B W6B 1_555 1_555
O27B W8B 1_555 1_555
O28B W1B 1_555 1_555
O29B W2B 1_555 1_555
O30B W10B 1_555 1_555
O31B W6B 1_555 1_555
O32B W9B 1_555 1_555
O33B W2B 1_555 1_555
O34B W4B 1_555 1_555
O35B W8B 1_555 1_555
O36B W11B 1_555 1_555
O37B W3B 1_555 1_555
O38B W2B 1_555 1_555
O39B W1B 1_555 1_555
Co2B N1B 1_555 1_555
O40B Co2B 1_555 1_555
H1B O40B 1_555 1_555
H2B O40B 1_555 1_555
O41B Co2B 1_555 1_555
H3B O41B 1_555 1_555
H4B O41B 1_555 1_555
O42B Co2B 1_555 1_555
H5B O42B 1_555 1_555
H6B O42B 1_555 1_555
Co1_2 O36 1_555 1_555
Co1B_2 O36B 1_555 1_555
O36_2 Co1 1_555 1_555
O36B_2 Co1B 1_555 1_555
Co2B_2 N3B 1_555 1_555
N3B_2 Co2B 1_555 1_555
W2 O28 1_555 1_555
W3 O21 1_555 1_555
W4 O20 1_555 1_555
W4 O33 1_555 1_555
W5 O5 1_555 1_555
W5 O23 1_555 1_555
W6 O15 1_555 1_555
W7 O9 1_555 1_555
W7 O17 1_555 1_555
W8 O22 1_555 1_555
W8 O38 1_555 1_555
W9 O31 1_555 1_555
W9 O35 1_555 1_555
W10 O11 1_555 1_555
W10 O12 1_555 1_555
W10 O32 1_555 1_555
Co1 O25 1_555 1_555
Co1 O26 1_555 1_555
Co1 O37 1_555 1_555
Co1 O39 1_555 1_555
W11 O14 1_555 1_555
W11 O29 1_555 1_555
W11 O30 1_555 1_555
W11 O34 1_555 1_555
C2 C3 1_555 1_555
C8 C9 1_555 1_555
C14 C15 1_555 1_555
C17 C18 1_555 1_555
C21 C22 1_555 1_555
C23 C24 1_555 1_555
C26 C27 1_555 1_555
C29 C30 1_555 1_555
C33 C34 1_555 1_555
C35 C36 1_555 1_555
C2B C3B 1_555 1_555
C4B C5B 1_555 1_555
C4B C6B 1_555 1_555
C8B C9B 1_555 1_555
C10B C11B 1_555 1_555
C10B C12B 1_555 1_555
W2B O28B 1_555 1_555
W3B O21B 1_555 1_555
W4B O20B 1_555 1_555
W4B O33B 1_555 1_555
W5B O5B 1_555 1_555
W5B O23B 1_555 1_555
W6B O15B 1_555 1_555
W7B O9B 1_555 1_555
W7B O17B 1_555 1_555
W8B O22B 1_555 1_555
W8B O38B 1_555 1_555
W9B O31B 1_555 1_555
W9B O35B 1_555 1_555
W10B O11B 1_555 1_555
W10B O12B 1_555 1_555
W10B O32B 1_555 1_555
Co1B O25B 1_555 1_555
Co1B O26B 1_555 1_555
Co1B O37B 1_555 1_555
Co1B O39B 1_555 1_555
W11B O14B 1_555 1_555
W11B O29B 1_555 1_555
W11B O30B 1_555 1_555
W11B O34B 1_555 1_555
O16B Co2B 1_555 1_555

#END
