
#######################################################################
#
#                 Cambridge Crystallographic Data Centre
#                                CCDC 
#
#######################################################################
#
# If this CIF has been generated from an entry in the Cambridge 
# Structural Database, then it will include bibliographic, chemical, 
# crystal, experimental, refinement or atomic coordinate data resulting 
# from the CCDC's data processing and validation procedures.
#
#######################################################################

data_PURPUO
_symmetry_cell_setting           monoclinic
_symmetry_space_group_name_H-M   'C 2/c'
_symmetry_Int_Tables_number      15
_space_group_name_Hall           '-C 2yn'
loop_
_symmetry_equiv_pos_site_id
_symmetry_equiv_pos_as_xyz
1 x,y,z
2 -x,y,1/2-z
3 1/2+x,1/2+y,z
4 1/2-x,1/2+y,1/2-z
5 -x,-y,-z
6 x,-y,1/2+z
7 1/2-x,1/2-y,-z
8 1/2+x,1/2-y,1/2+z
_cell_length_a                   24.160(3)
_cell_length_b                   4.6101(6)
_cell_length_c                   8.8375(11)
_cell_angle_alpha                90
_cell_angle_beta                 102.420(2)
_cell_angle_gamma                90
_cell_volume                     961.285
loop_
_atom_site_label
_atom_site_type_symbol
_atom_site_fract_x
_atom_site_fract_y
_atom_site_fract_z
Pb1 Pb 0.199379(7) 0.48988(3) 0.094453(18)
S1 S 0.11570(4) 0.0648(3) 0.30022(12)
F1 F 0.25112(12) 0.4566(5) 0.3773(3)
O1 O 0.11107(12) 0.2474(6) 0.1626(3)
O2 O 0.11710(12) 0.2393(6) 0.4403(3)
O3 O 0.16328(11) -0.1392(7) 0.3209(3)
C1 C 0.05295(16) -0.1459(9) 0.2721(4)
H1 H 0.0506 -0.2682 0.1817
H2 H 0.0545 -0.2710 0.3612
C2 C 0.0000 0.0453(12) 0.2500
H3 H 0.0021 0.1686 0.3400
Pb1C Pb 0.300621(7) 0.98988(3) 0.405547(18)
Pb1C_2 Pb 0.300621(7) -0.01012(3) 0.405547(18)
Pb1E Pb 0.199379(7) 0.51012(3) 0.594453(18)
Pb1A Pb -0.199379(7) 0.48988(3) 0.405547(18)
Pb1D Pb -0.199379(7) 0.51012(3) -0.094453(18)
Pb1F Pb 0.300621(7) 1.01012(3) -0.094453(18)
S1A S -0.11570(4) 0.0648(3) 0.19978(12)
F1C F 0.24888(12) 0.9566(5) 0.1227(3)
F1E F 0.25112(12) 0.5434(5) -0.1227(3)
F1_2 F 0.25112(12) 1.4566(5) 0.3773(3)
F1F F 0.24888(12) 1.0434(5) 0.6227(3)
O1A O -0.11107(12) 0.2474(6) 0.3374(3)
O1C O 0.38893(12) 0.7474(6) 0.3374(3)
O2A O -0.11710(12) 0.2393(6) 0.0597(3)
O2E O 0.11710(12) 0.7607(6) -0.0597(3)
O2F O 0.38290(12) 1.2607(6) 0.5597(3)
O3A O -0.16328(11) -0.1392(7) 0.1791(3)
C1A C -0.05295(16) -0.1459(9) 0.2279(4)
H1A H -0.0506 -0.2682 0.3183
H2A H -0.0545 -0.2710 0.1388
H3A H -0.0021 0.1686 0.1600
loop_
_geom_bond_atom_site_label_1
_geom_bond_atom_site_label_2
_geom_bond_site_symmetry_1
_geom_bond_site_symmetry_2
Pb1 F1 1_555 1_555
S1 O1 1_555 1_555
F1 Pb1C_2 1_555 1_555
O1 Pb1 1_555 1_555
O2 S1 1_555 1_555
O3 S1 1_555 1_555
C1 S1 1_555 1_555
H1 C1 1_555 1_555
H2 C1 1_555 1_555
C2 C1 1_555 1_555
H3 C2 1_555 1_555
Pb1C F1C 1_555 1_555
Pb1E F1 1_555 1_555
Pb1A O1A 1_555 1_555
Pb1D O2A 1_555 1_555
Pb1F F1C 1_555 1_555
S1A O1A 1_555 1_555
F1C Pb1 1_555 1_555
F1E Pb1 1_555 1_555
F1_2 Pb1C 1_555 1_555
F1F Pb1C 1_555 1_555
O1C Pb1C 1_555 1_555
O2A S1A 1_555 1_555
O2E Pb1 1_555 1_555
O2F Pb1C 1_555 1_555
O3A S1A 1_555 1_555
C1A C2 1_555 1_555
H1A C1A 1_555 1_555
H2A C1A 1_555 1_555
H3A C2 1_555 1_555
O2 Pb1E 1_555 1_555
Pb1F F1E 1_555 1_555
S1A C1A 1_555 1_555

#END
