
#######################################################################
#
#                 Cambridge Crystallographic Data Centre
#                                CCDC 
#
#######################################################################
#
# If this CIF has been generated from an entry in the Cambridge 
# Structural Database, then it will include bibliographic, chemical, 
# crystal, experimental, refinement or atomic coordinate data resulting 
# from the CCDC's data processing and validation procedures.
#
#######################################################################

data_PURPAU
_symmetry_cell_setting           orthorhombic
_symmetry_space_group_name_H-M   'P 21 21 21'
_symmetry_Int_Tables_number      19
_space_group_name_Hall           'P 2ac 2ab'
loop_
_symmetry_equiv_pos_site_id
_symmetry_equiv_pos_as_xyz
1 x,y,z
2 1/2-x,-y,1/2+z
3 -x,1/2+y,1/2-z
4 1/2+x,1/2-y,-z
_cell_length_a                   5.4533(3)
_cell_length_b                   17.5926(10)
_cell_length_c                   20.5420(13)
_cell_angle_alpha                90
_cell_angle_beta                 90
_cell_angle_gamma                90
_cell_volume                     1970.75
loop_
_atom_site_label
_atom_site_type_symbol
_atom_site_fract_x
_atom_site_fract_y
_atom_site_fract_z
Zn1 Zn 0.50160(7) 0.377933(16) 0.739590(14)
N1 N 0.2372(5) 0.32511(13) 0.79285(12)
H1 H 0.0896 0.3444 0.7822
H2 H 0.2361 0.2752 0.7831
N2 N 1.1340(5) 0.58022(15) 1.15172(13)
H3 H 1.2279 0.5687 1.1839
H4 H 1.1414 0.6248 1.1347
O1 O 0.5993(4) 0.46176(11) 0.79469(11)
O2 O 0.9656(5) 0.46350(11) 0.74726(10)
O3 O 1.2601(5) 0.80501(11) 0.79259(12)
O4 O 1.4298(5) 0.70343(12) 0.74595(11)
O5 O 0.5997(4) 0.77153(13) 0.95391(10)
O6 O 0.4170(5) 0.65843(14) 0.96101(13)
C1 C 0.8513(6) 0.56823(16) 0.81321(14)
C2 C 1.0407(5) 0.61251(15) 0.78969(14)
H5 H 1.1454 0.5925 0.7584
C3 C 1.0785(6) 0.68611(15) 0.81158(13)
C4 C 0.9283(6) 0.71454(15) 0.85986(13)
H6 H 0.9533 0.7636 0.8753
C5 C 0.7388(6) 0.67035(16) 0.88594(14)
C6 C 0.7005(6) 0.59679(16) 0.86149(14)
H7 H 0.5733 0.5672 0.8778
C7 C 0.8073(6) 0.49188(16) 0.78253(14)
C8 C 1.2746(6) 0.73362(16) 0.78088(14)
C9 C 0.5828(6) 0.70486(17) 0.93646(14)
C10 C 0.2777(5) 0.33459(15) 0.86197(14)
C11 C 0.1209(6) 0.3764(2) 0.90002(15)
H8 H -0.0191 0.3978 0.8818
C12 C 0.1712(6) 0.3868(2) 0.96603(16)
H9 H 0.0666 0.4164 0.9912
C13 C 0.3731(6) 0.35391(17) 0.99425(14)
C14 C 0.5292(7) 0.31217(16) 0.95504(13)
H10 H 0.6689 0.2905 0.9732
C15 C 0.4826(7) 0.30192(16) 0.88945(13)
H11 H 0.5889 0.2731 0.8640
C16 C 0.4259(7) 0.36076(19) 1.06606(15)
H12 H 0.4803 0.3116 1.0818
H13 H 0.2738 0.3728 1.0882
C17 C 0.9654(6) 0.52512(17) 1.12649(13)
C18 C 0.9556(7) 0.45387(17) 1.15424(15)
H14 H 1.0658 0.4407 1.1869
C19 C 0.7828(7) 0.40222(18) 1.13357(15)
H15 H 0.7784 0.3543 1.1527
C20 C 0.6151(6) 0.41938(17) 1.08512(14)
C21 C 0.6290(7) 0.49069(19) 1.05770(15)
H16 H 0.5194 0.5037 1.0248
C22 C 0.8020(7) 0.54390(18) 1.07766(15)
H17 H 0.8077 0.5917 1.0583
H18 H 0.332(9) 0.680(2) 0.987(2)
Zn1A Zn 0.99840(7) 0.622067(16) 1.239590(14)
Zn1B Zn 1.49840(7) 0.877933(16) 0.760410(14)
N2A N 0.3660(5) 0.41978(15) 0.65172(13)
H3A H 0.2721 0.4313 0.6839
H4A H 0.3586 0.3752 0.6347
O3B O 0.7399(5) 0.30501(11) 0.70741(12)
loop_
_geom_bond_atom_site_label_1
_geom_bond_atom_site_label_2
_geom_bond_site_symmetry_1
_geom_bond_site_symmetry_2
Zn1 N1 1_555 1_555
N1 H1 1_555 1_555
H2 N1 1_555 1_555
N2 H3 1_555 1_555
H4 N2 1_555 1_555
O1 Zn1 1_555 1_555
O2 C7 1_555 1_555
O3 C8 1_555 1_555
O4 C8 1_555 1_555
O5 C9 1_555 1_555
O6 C9 1_555 1_555
C1 C2 1_555 1_555
C2 H5 1_555 1_555
C3 C2 1_555 1_555
C4 C3 1_555 1_555
H6 C4 1_555 1_555
C5 C4 1_555 1_555
C6 C1 1_555 1_555
H7 C6 1_555 1_555
C7 O1 1_555 1_555
C8 C3 1_555 1_555
C9 C5 1_555 1_555
C10 N1 1_555 1_555
C11 C10 1_555 1_555
H8 C11 1_555 1_555
C12 C11 1_555 1_555
H9 C12 1_555 1_555
C13 C12 1_555 1_555
C14 C13 1_555 1_555
H10 C14 1_555 1_555
C15 C10 1_555 1_555
H11 C15 1_555 1_555
C16 C13 1_555 1_555
H12 C16 1_555 1_555
H13 C16 1_555 1_555
C17 N2 1_555 1_555
C18 C17 1_555 1_555
H14 C18 1_555 1_555
C19 C18 1_555 1_555
H15 C19 1_555 1_555
C20 C16 1_555 1_555
C21 C20 1_555 1_555
H16 C21 1_555 1_555
C22 C17 1_555 1_555
H17 C22 1_555 1_555
H18 O6 1_555 1_555
Zn1A N2 1_555 1_555
Zn1B O3 1_555 1_555
N2A Zn1 1_555 1_555
H3A N2A 1_555 1_555
H4A N2A 1_555 1_555
O3B Zn1 1_555 1_555
C1 C7 1_555 1_555
C5 C6 1_555 1_555
C14 C15 1_555 1_555
C19 C20 1_555 1_555
C21 C22 1_555 1_555

#END
