
#######################################################################
#
#                 Cambridge Crystallographic Data Centre
#                                CCDC 
#
#######################################################################
#
# If this CIF has been generated from an entry in the Cambridge 
# Structural Database, then it will include bibliographic, chemical, 
# crystal, experimental, refinement or atomic coordinate data resulting 
# from the CCDC's data processing and validation procedures.
#
#######################################################################

data_PURQAV
_symmetry_cell_setting           monoclinic
_symmetry_space_group_name_H-M   'C 2/c'
_symmetry_Int_Tables_number      15
_space_group_name_Hall           '-C 2yn'
loop_
_symmetry_equiv_pos_site_id
_symmetry_equiv_pos_as_xyz
1 x,y,z
2 -x,y,1/2-z
3 1/2+x,1/2+y,z
4 1/2-x,1/2+y,1/2-z
5 -x,-y,-z
6 x,-y,1/2+z
7 1/2-x,1/2-y,-z
8 1/2+x,1/2-y,1/2+z
_cell_length_a                   26.455(3)
_cell_length_b                   4.6117(6)
_cell_length_c                   8.8053(11)
_cell_angle_alpha                90
_cell_angle_beta                 97.715(2)
_cell_angle_gamma                90
_cell_volume                     1064.54
loop_
_atom_site_label
_atom_site_type_symbol
_atom_site_fract_x
_atom_site_fract_y
_atom_site_fract_z
Pb1 Pb 0.204487(9) 0.01154(4) 0.85785(2)
S1 S 0.12884(5) 0.4289(3) 0.57174(15)
F1 F 0.25107(16) -0.0430(7) 1.1242(4)
O1 O 0.12576(15) 0.2488(8) 0.7069(4)
O2 O 0.13062(15) 0.2540(9) 0.4339(4)
O3 O 0.17051(15) 0.6410(9) 0.5942(4)
C1 C 0.0705(2) 0.6261(13) 0.5396(6)
H1 H 0.0673 0.7513 0.6291
H2 H 0.0704 0.7521 0.4485
C2 C 0.0253(2) 0.4163(14) 0.5142(7)
H3 H 0.0254 0.2907 0.6054
H4 H 0.0287 0.2906 0.4250
Pb1E Pb 0.204487(9) -0.01154(4) 0.35785(2)
Pb1E_2 Pb 0.204487(9) -0.01154(4) 1.35785(2)
Pb1F Pb 0.295513(9) -0.51154(4) 1.14215(2)
Pb1D Pb -0.204487(9) 0.98846(4) 0.14215(2)
Pb1A Pb -0.204487(9) 1.01154(4) 0.64215(2)
Pb1C Pb 0.295513(9) 0.51154(4) 0.64215(2)
S1D S -0.12884(5) 0.5711(3) 0.42826(15)
F1E F 0.25107(16) 0.0430(7) 0.6242(4)
F1F F 0.24893(16) -0.4570(7) 0.8758(4)
F1_2 F 0.25107(16) -0.0430(7) 0.1242(4)
F1C F 0.24893(16) 0.4570(7) 0.3758(4)
O1D O -0.12576(15) 0.7512(8) 0.2931(4)
O1E O 0.12576(15) -0.2488(8) 0.2069(4)
O2D O -0.13062(15) 0.7460(9) 0.5661(4)
O2E O 0.13062(15) -0.2540(9) 0.9339(4)
O3D O -0.17051(15) 0.3590(9) 0.4058(4)
C1D C -0.0705(2) 0.3739(13) 0.4604(6)
H1D H -0.0673 0.2487 0.3709
H2D H -0.0704 0.2479 0.5515
C2D C -0.0253(2) 0.5837(14) 0.4858(7)
H3D H -0.0254 0.7093 0.3946
H4D H -0.0287 0.7094 0.5750
loop_
_geom_bond_atom_site_label_1
_geom_bond_atom_site_label_2
_geom_bond_site_symmetry_1
_geom_bond_site_symmetry_2
Pb1 F1 1_555 1_555
S1 O1 1_555 1_555
F1 Pb1E_2 1_555 1_555
O1 Pb1 1_555 1_555
O2 S1 1_555 1_555
O3 S1 1_555 1_555
C1 S1 1_555 1_555
H1 C1 1_555 1_555
H2 C1 1_555 1_555
C2 C1 1_555 1_555
H3 C2 1_555 1_555
H4 C2 1_555 1_555
Pb1E O2 1_555 1_555
Pb1F F1 1_555 1_555
Pb1D O1D 1_555 1_555
Pb1A O2D 1_555 1_555
Pb1C F1E 1_555 1_555
S1D O1D 1_555 1_555
F1E Pb1 1_555 1_555
F1F Pb1 1_555 1_555
F1_2 Pb1E 1_555 1_555
F1C Pb1E 1_555 1_555
O1E Pb1E 1_555 1_555
O2D S1D 1_555 1_555
O2E Pb1 1_555 1_555
O3D S1D 1_555 1_555
C1D S1D 1_555 1_555
H1D C1D 1_555 1_555
H2D C1D 1_555 1_555
C2D C2 1_555 1_555
H3D C2D 1_555 1_555
H4D C2D 1_555 1_555
Pb1E F1E 1_555 1_555
Pb1F F1F 1_555 1_555
Pb1C F1C 1_555 1_555
C1D C2D 1_555 1_555

#END
