
#######################################################################
#
#                 Cambridge Crystallographic Data Centre
#                                CCDC 
#
#######################################################################
#
# If this CIF has been generated from an entry in the Cambridge 
# Structural Database, then it will include bibliographic, chemical, 
# crystal, experimental, refinement or atomic coordinate data resulting 
# from the CCDC's data processing and validation procedures.
#
#######################################################################

data_PURQID
_symmetry_cell_setting           monoclinic
_symmetry_space_group_name_H-M   'C 2/c'
_symmetry_Int_Tables_number      15
_space_group_name_Hall           '-C 2yn'
loop_
_symmetry_equiv_pos_site_id
_symmetry_equiv_pos_as_xyz
1 x,y,z
2 -x,y,1/2-z
3 1/2+x,1/2+y,z
4 1/2-x,1/2+y,1/2-z
5 -x,-y,-z
6 x,-y,1/2+z
7 1/2-x,1/2-y,-z
8 1/2+x,1/2-y,1/2+z
_cell_length_a                   22.150(19)
_cell_length_b                   9.893(8)
_cell_length_c                   16.447(14)
_cell_angle_alpha                90
_cell_angle_beta                 114.538(15)
_cell_angle_gamma                90
_cell_volume                     3278.54
loop_
_atom_site_label
_atom_site_type_symbol
_atom_site_fract_x
_atom_site_fract_y
_atom_site_fract_z
Ce1 Ce 0.66455(3) 0.38721(7) 0.79392(4)
O1 O 0.6742(5) 0.6293(9) 0.8518(6)
C1 C 0.7359(7) 0.6242(13) 0.9064(8)
H1 H 0.595(5) 0.771(12) 0.821(8)
H2 H 0.567(7) 0.846(7) 0.867(10)
Na1 Na 0.5000 0.6057(9) 0.7500
O2 O 0.7693(4) 0.5162(9) 0.9122(6)
C2 C 0.7648(6) 0.7454(13) 0.9649(7)
H3 H 0.8140 0.7342 0.9965
O3 O 0.7749(5) 0.9858(9) 0.7972(6)
C3 C 0.7497(7) 0.8732(12) 0.9097(8)
H4 H 0.7691 0.9510 0.9500
H5 H 0.7010 0.8863 0.8809
O4 O 0.7973(5) 0.7692(9) 0.8178(6)
C4 C 0.7763(6) 0.8734(12) 0.8369(8)
O5 O 0.5682(4) 0.4242(11) 0.8407(6)
C5 C 0.6021(6) 0.3939(13) 0.9223(8)
O6 O 0.6611(4) 0.3455(10) 0.9467(6)
C6 C 0.5727(7) 0.4033(15) 0.9892(9)
H6 H 0.6075 0.4354 1.0465
H7 H 0.5595 0.3115 0.9993
O7 O 0.4273(5) 0.5515(11) 0.8184(6)
C7 C 0.5127(6) 0.4965(15) 0.9627(7)
H8 H 0.5273 0.5894 0.9550
O8 O 0.4360(5) 0.3395(12) 0.8633(6)
C8 C 0.4562(7) 0.4580(17) 0.8767(9)
O9 O 0.7648(5) 0.2320(10) 0.8736(6)
O10 O 0.6212(7) 0.1430(13) 0.7821(9)
O11 O 0.5672(8) 0.7694(16) 0.8434(14)
H9 H 0.753(12) 0.155(9) 0.849(10)
H10 H 0.611(10) 0.18(3) 0.731(8)
H11 H 0.773(6) 0.284(10) 0.839(7)
H12 H 0.588(7) 0.10(2) 0.784(14)
Ce1D Ce 0.33545(3) 0.61279(7) 1.20608(4)
Ce1C Ce 0.83545(3) 0.88721(7) 0.70608(4)
Ce1A Ce 0.33545(3) 0.38721(7) 0.70608(4)
Ce1F Ce 0.83545(3) 1.11279(7) 1.20608(4)
Ce1E Ce 0.66455(3) 0.61279(7) 1.29392(4)
O1F O 0.8258(5) 0.8707(9) 1.1482(6)
O1D O 0.3258(5) 0.3707(9) 1.1482(6)
C1F C 0.7641(7) 0.8758(13) 1.0936(8)
H1A H 0.405(5) 0.771(12) 0.679(8)
H2A H 0.433(7) 0.846(7) 0.633(10)
Na1D Na 0.5000 0.3943(9) 1.2500
O2F O 0.7307(4) 0.9838(9) 1.0878(6)
O2D O 0.2307(4) 0.4838(9) 1.0878(6)
C2F C 0.7352(6) 0.7546(13) 1.0351(7)
H3F H 0.6860 0.7658 1.0035
O3F O 0.7251(5) 0.5142(9) 1.2028(6)
O3C O 0.7251(5) 0.4858(9) 0.7028(6)
O3G O 0.2749(5) 0.5142(9) 1.2972(6)
C3F C 0.7503(7) 0.6268(12) 1.0903(8)
H4F H 0.7309 0.5490 1.0500
H5F H 0.7990 0.6137 1.1191
O4F O 0.7027(5) 0.7308(9) 1.1822(6)
O4C O 0.7027(5) 0.2692(9) 0.6822(6)
O4G O 0.2973(5) 0.7308(9) 1.3178(6)
C4F C 0.7237(6) 0.6266(12) 1.1631(8)
O5D O 0.4318(4) 0.5758(11) 1.1593(6)
O5A O 0.4318(4) 0.4242(11) 0.6593(6)
C5D C 0.3979(6) 0.6061(13) 1.0777(8)
O6D O 0.3389(4) 0.6545(10) 1.0533(6)
C6D C 0.4273(7) 0.5967(15) 1.0108(9)
H6D H 0.3925 0.5646 0.9535
H7D H 0.4405 0.6885 1.0007
O7D O 0.5727(5) 0.4485(11) 1.1816(6)
O7A O 0.5727(5) 0.5515(11) 0.6816(6)
O7E O 0.4273(5) 0.4485(11) 1.3184(6)
C7D C 0.4873(6) 0.5035(15) 1.0373(7)
H8D H 0.4727 0.4106 1.0450
O8D O 0.5640(5) 0.6605(12) 1.1367(6)
O8A O 0.5640(5) 0.3395(12) 0.6367(6)
O8E O 0.4360(5) 0.6605(12) 1.3633(6)
C8D C 0.5438(7) 0.5420(17) 1.1233(9)
O9D O 0.2352(5) 0.7680(10) 1.1264(6)
O10D O 0.3788(7) 0.8570(13) 1.2179(9)
O11A O 0.4328(8) 0.7694(16) 0.6566(14)
H9D H 0.247(12) 0.845(9) 1.151(10)
H10D H 0.389(10) 0.82(3) 1.269(8)
H11D H 0.227(6) 0.716(10) 1.161(7)
H12D H 0.412(7) 0.90(2) 1.216(14)
O12 O 0.6594(6) 0.0457(12) 0.6701(7)
H13 H 0.678(10) 0.10(2) 0.649(17)
H14 H 0.620(5) 0.03(3) 0.631(13)
O13 O 0.6090(13) 0.017(3) 0.9379(15)
H15 H 0.589(15) 0.00(4) 0.974(18)
O14 O 0.3808(13) 0.844(3) 0.8233(16)
H16 H 0.427(3) 0.83(3) 0.84(2)
O15 O 0.547(2) 0.096(4) 0.559(3)
H17 H 0.547(14) 0.17(3) 0.524(18)
H18 H 0.510(9) 0.09(4) 0.56(2)
loop_
_geom_bond_atom_site_label_1
_geom_bond_atom_site_label_2
_geom_bond_site_symmetry_1
_geom_bond_site_symmetry_2
Ce1 O1 1_555 1_555
O1 C1 1_555 1_555
C1 O2 1_555 1_555
H1 O11 1_555 1_555
H2 O11 1_555 1_555
Na1 O5 1_555 1_555
O2 Ce1 1_555 1_555
C2 C1 1_555 1_555
H3 C2 1_555 1_555
O3 C4 1_555 1_555
C3 C2 1_555 1_555
H4 C3 1_555 1_555
H5 C3 1_555 1_555
O4 C4 1_555 1_555
C4 C3 1_555 1_555
O5 Ce1 1_555 1_555
C5 O5 1_555 1_555
O6 Ce1 1_555 1_555
C6 C5 1_555 1_555
H6 C6 1_555 1_555
H7 C6 1_555 1_555
O7 Na1 1_555 1_555
C7 C6 1_555 1_555
H8 C7 1_555 1_555
O8 C8 1_555 1_555
C8 O7 1_555 1_555
O9 Ce1 1_555 1_555
O10 Ce1 1_555 1_555
O11 Na1 1_555 1_555
H9 O9 1_555 1_555
H10 O10 1_555 1_555
H11 O9 1_555 1_555
H12 O10 1_555 1_555
O12 H13 1_555 1_555
H14 O12 1_555 1_555
O13 H15 1_555 1_555
O14 H16 1_555 1_555
O15 H17 1_555 1_555
H18 O15 1_555 1_555
Ce1D O1D 1_555 1_555
Ce1C O3 1_555 1_555
Ce1A O7 1_555 1_555
Ce1F O1F 1_555 1_555
Ce1E O3F 1_555 1_555
O1F C1F 1_555 1_555
C1F O2F 1_555 1_555
H1A O11A 1_555 1_555
H2A O11A 1_555 1_555
Na1D O5D 1_555 1_555
O2F Ce1F 1_555 1_555
O2D Ce1D 1_555 1_555
C2F C2 1_555 1_555
H3F C2F 1_555 1_555
O3F C4F 1_555 1_555
O3C Ce1 1_555 1_555
O3G Ce1D 1_555 1_555
C3F C2F 1_555 1_555
H4F C3F 1_555 1_555
H5F C3F 1_555 1_555
O4F Ce1E 1_555 1_555
O4C Ce1 1_555 1_555
O4G Ce1D 1_555 1_555
C4F C3F 1_555 1_555
O5D Ce1D 1_555 1_555
O5A Na1 1_555 1_555
C5D O5D 1_555 1_555
O6D Ce1D 1_555 1_555
C6D C5D 1_555 1_555
H6D C6D 1_555 1_555
H7D C6D 1_555 1_555
O7D Ce1E 1_555 1_555
O7A Ce1 1_555 1_555
O7E Ce1D 1_555 1_555
C7D C7 1_555 1_555
H8D C7D 1_555 1_555
O8D Ce1E 1_555 1_555
O8A Ce1 1_555 1_555
O8E Ce1D 1_555 1_555
C8D O7D 1_555 1_555
O9D Ce1D 1_555 1_555
O10D Ce1D 1_555 1_555
O11A Na1 1_555 1_555
H9D O9D 1_555 1_555
H10D O10D 1_555 1_555
H11D O9D 1_555 1_555
H12D O10D 1_555 1_555
Na1 O7A 1_555 1_555
O4 Ce1C 1_555 1_555
C5 O6 1_555 1_555
C7 C8 1_555 1_555
O8 Ce1A 1_555 1_555
Ce1A O5A 1_555 1_555
C1F C2F 1_555 1_555
Na1D O7D 1_555 1_555
Na1D O7E 1_555 1_555
O4F C4F 1_555 1_555
C5D O6D 1_555 1_555
C6D C7D 1_555 1_555
C7D C8D 1_555 1_555
O8D C8D 1_555 1_555

#END
