
#######################################################################
#
#                 Cambridge Crystallographic Data Centre
#                                CCDC 
#
#######################################################################
#
# If this CIF has been generated from an entry in the Cambridge 
# Structural Database, then it will include bibliographic, chemical, 
# crystal, experimental, refinement or atomic coordinate data resulting 
# from the CCDC's data processing and validation procedures.
#
#######################################################################

data_PURROK
_symmetry_cell_setting           monoclinic
_symmetry_space_group_name_H-M   'C 2/c'
_symmetry_Int_Tables_number      15
_space_group_name_Hall           '-C 2yn'
loop_
_symmetry_equiv_pos_site_id
_symmetry_equiv_pos_as_xyz
1 x,y,z
2 -x,y,1/2-z
3 1/2+x,1/2+y,z
4 1/2-x,1/2+y,1/2-z
5 -x,-y,-z
6 x,-y,1/2+z
7 1/2-x,1/2-y,-z
8 1/2+x,1/2-y,1/2+z
_cell_length_a                   24.08(2)
_cell_length_b                   7.976(7)
_cell_length_c                   7.481(7)
_cell_angle_alpha                90
_cell_angle_beta                 100.551(11)
_cell_angle_gamma                90
_cell_volume                     1412.52
loop_
_atom_site_label
_atom_site_type_symbol
_atom_site_fract_x
_atom_site_fract_y
_atom_site_fract_z
Cd1 Cd 0.5000 0.47950(6) -0.2500
C1 C 0.5840(2) 0.6479(6) -0.0108(7)
C2 C 0.63320(17) 0.6895(6) 0.1360(6)
C3 C 0.6245(2) 0.7442(6) 0.3142(6)
C4 C 0.67238(19) 0.7712(6) 0.4441(6)
H1 H 0.6673 0.8160 0.5547
C5 C 0.7274(2) 0.7372(6) 0.4234(6)
C6 C 0.7320(2) 0.6865(6) 0.2536(6)
H2 H 0.7683 0.6669 0.2323
C7 C 0.68847(19) 0.6613(6) 0.1106(6)
H3 H 0.6956 0.6260 -0.0015
C8 C 0.5634(2) 0.8887(6) 0.4576(8)
H4 H 0.5934 0.9699 0.4729
H5 H 0.5631 0.8334 0.5714
H6 H 0.5279 0.9442 0.4180
O1 O 0.53606(14) 0.6267(4) 0.0113(5)
O2 O 0.59644(14) 0.6324(4) -0.1693(4)
O3 O 0.57186(15) 0.7731(4) 0.3303(5)
Cd1D Cd 0.5000 0.52050(6) 0.2500
Cd1F Cd 1.0000 1.02050(6) 1.2500
Cd1B Cd 1.0000 0.97950(6) 0.7500
C1F C 0.9160(2) 0.8521(6) 1.0108(7)
C2F C 0.86680(17) 0.8105(6) 0.8640(6)
C3F C 0.8755(2) 0.7558(6) 0.6858(6)
C4F C 0.82762(19) 0.7288(6) 0.5559(6)
H1F H 0.8327 0.6840 0.4453
C5F C 0.7726(2) 0.7628(6) 0.5766(6)
C6F C 0.7680(2) 0.8135(6) 0.7464(6)
H2F H 0.7317 0.8331 0.7677
C7F C 0.81153(19) 0.8387(6) 0.8894(6)
H3F H 0.8044 0.8740 1.0015
C8F C 0.9366(2) 0.6113(6) 0.5424(8)
H4F H 0.9066 0.5301 0.5271
H5F H 0.9369 0.6666 0.4286
H6F H 0.9721 0.5558 0.5820
O1F O 0.96394(14) 0.8733(4) 0.9887(5)
O1A O 0.46394(14) 0.6267(4) -0.5113(5)
O1D O 0.46394(14) 0.3733(4) -0.0113(5)
O1E O 0.53606(14) 0.3733(4) -0.4887(5)
O2F O 0.90356(14) 0.8676(4) 1.1693(4)
O2A O 0.40356(14) 0.6324(4) -0.3307(4)
O3F O 0.92814(15) 0.7269(4) 0.6697(5)
O3D O 0.42814(15) 0.2269(4) -0.3303(5)
O3E O 0.57186(15) 0.2269(4) -0.1697(5)
loop_
_geom_bond_atom_site_label_1
_geom_bond_atom_site_label_2
_geom_bond_site_symmetry_1
_geom_bond_site_symmetry_2
Cd1 O1 1_555 1_555
C1 C2 1_555 1_555
C2 C3 1_555 1_555
C3 C4 1_555 1_555
C4 H1 1_555 1_555
C5 C4 1_555 1_555
C6 C5 1_555 1_555
H2 C6 1_555 1_555
C7 C2 1_555 1_555
H3 C7 1_555 1_555
C8 H4 1_555 1_555
H5 C8 1_555 1_555
H6 C8 1_555 1_555
O1 C1 1_555 1_555
O2 Cd1 1_555 1_555
O3 C3 1_555 1_555
Cd1D O1 1_555 1_555
Cd1F O1F 1_555 1_555
Cd1B O1F 1_555 1_555
C1F C2F 1_555 1_555
C2F C3F 1_555 1_555
C3F C4F 1_555 1_555
C4F H1F 1_555 1_555
C5F C5 1_555 1_555
C6F C5F 1_555 1_555
H2F C6F 1_555 1_555
C7F C2F 1_555 1_555
H3F C7F 1_555 1_555
C8F H4F 1_555 1_555
H5F C8F 1_555 1_555
H6F C8F 1_555 1_555
O1F C1F 1_555 1_555
O1A Cd1 1_555 1_555
O1D Cd1 1_555 1_555
O1E Cd1 1_555 1_555
O2F Cd1F 1_555 1_555
O2A Cd1 1_555 1_555
O3F Cd1B 1_555 1_555
O3D Cd1 1_555 1_555
O3E Cd1 1_555 1_555
C1 O2 1_555 1_555
C6 C7 1_555 1_555
C8 O3 1_555 1_555
O3 Cd1D 1_555 1_555
Cd1D O1D 1_555 1_555
C1F O2F 1_555 1_555
C3F O3F 1_555 1_555
C4F C5F 1_555 1_555
C6F C7F 1_555 1_555
C8F O3F 1_555 1_555

#END
