
#######################################################################
#
#                 Cambridge Crystallographic Data Centre
#                                CCDC 
#
#######################################################################
#
# If this CIF has been generated from an entry in the Cambridge 
# Structural Database, then it will include bibliographic, chemical, 
# crystal, experimental, refinement or atomic coordinate data resulting 
# from the CCDC's data processing and validation procedures.
#
#######################################################################

data_PURRAW
_symmetry_cell_setting           monoclinic
_symmetry_space_group_name_H-M   'C c'
_symmetry_Int_Tables_number      9
_space_group_name_Hall           'C -2yc'
loop_
_symmetry_equiv_pos_site_id
_symmetry_equiv_pos_as_xyz
1 x,y,z
2 x,-y,1/2+z
3 1/2+x,1/2+y,z
4 1/2+x,1/2-y,1/2+z
_cell_length_a                   20.351(4)
_cell_length_b                   7.3805(16)
_cell_length_c                   18.116(4)
_cell_angle_alpha                90
_cell_angle_beta                 98.893(4)
_cell_angle_gamma                90
_cell_volume                     2688.32
loop_
_atom_site_label
_atom_site_type_symbol
_atom_site_fract_x
_atom_site_fract_y
_atom_site_fract_z
O1 O 0.8073(3) 1.0693(7) 0.4816(3)
O2 O 0.7494(3) 0.8207(7) 0.4604(3)
N1 N 0.6660(3) 0.8781(9) 0.3114(3)
C1 C 0.6053(5) 0.9188(12) 0.2719(5)
H1 H 0.5878 1.0353 0.2660
Ni1 Ni 0.73432(6) 1.02238(11) 0.38134(6)
O3 O 0.8077(3) 1.0304(7) 0.8095(3)
O4 O 0.7482(3) 0.7804(7) 0.8045(3)
N2 N 0.6146(3) 0.6279(8) 0.2662(4)
N3 N 0.6672(3) 0.8325(9) -0.0717(3)
C2 C 0.7907(4) 0.8818(11) 0.7781(4)
C3 C 0.4982(4) 0.3660(10) 0.1640(4)
C4 C 0.8184(3) 0.8205(10) 0.7113(4)
C5 C 0.6013(4) 0.4311(10) 0.2550(5)
H2 H 0.5736 0.3885 0.2904
H3 H 0.6429 0.3645 0.2635
C6 C 0.7956(4) 0.9063(10) 0.6406(4)
C7 C 0.6021(4) 0.4043(10) 0.1152(4)
C8 C 0.8618(4) 0.6704(12) 0.7154(4)
C9 C 0.4996(4) 0.3413(10) 0.0301(4)
C10 C 0.4659(4) 0.3401(10) 0.0914(5)
H4 H 0.4201 0.3213 0.0834
C11 C 0.5738(5) 0.7689(12) 0.2424(6)
H5 H 0.5326 0.7631 0.2120
C12 C 0.6041(4) 0.3947(10) -0.0224(4)
H6 H 0.5774 0.3421 -0.0661
H7 H 0.6456 0.3284 -0.0128
C13 C 0.6757(4) 0.4483(12) 0.1283(5)
H8 H 0.6905 0.4644 0.1808
H9 H 0.6833 0.5578 0.1023
H10 H 0.7000 0.3506 0.1101
C14 C 0.5665(4) 0.3981(10) 0.1760(4)
C15 C 0.8652(4) 0.6972(11) 0.5820(4)
C16 C 0.4610(4) 0.3135(14) -0.0478(5)
H11 H 0.4910 0.3171 -0.0838
H12 H 0.4284 0.4078 -0.0586
H13 H 0.4390 0.1980 -0.0503
C17 C 0.5685(4) 0.3747(9) 0.0424(4)
N4 N 0.6181(3) 0.5864(9) -0.0379(4)
C18 C 0.4561(4) 0.3668(12) 0.2263(5)
H14 H 0.4841 0.3861 0.2734
H15 H 0.4337 0.2526 0.2273
H16 H 0.4238 0.4624 0.2177
C19 C 0.6736(4) 0.6587(11) -0.0582(4)
H17 H 0.7119 0.5928 -0.0621
C20 C 0.8852(4) 0.6176(11) 0.6496(5)
H18 H 0.9159 0.5235 0.6524
C21 C 0.6704(4) 0.6992(11) 0.3063(4)
H19 H 0.7071 0.6315 0.3275
C22 C 0.6043(5) 0.8708(12) -0.0602(5)
H20 H 0.5852 0.9854 -0.0656
C23 C 0.5733(5) 0.7239(13) -0.0402(7)
H21 H 0.5300 0.7167 -0.0300
C24 C 0.8185(4) 0.8400(10) 0.5784(4)
C25 C 0.7914(4) 0.9166(11) 0.5024(4)
C26 C 0.7472(6) 1.0598(11) 0.6369(6)
H22 H 0.7381 1.0862 0.6862
H23 H 0.7067 1.0268 0.6054
H24 H 0.7658 1.1650 0.6168
C27 C 0.8816(6) 0.5709(15) 0.7881(5)
H25 H 0.8610 0.6271 0.8264
H26 H 0.9291 0.5753 0.8019
H27 H 0.8675 0.4470 0.7823
C28 C 0.8902(6) 0.6333(18) 0.5110(5)
H28 H 0.8704 0.7058 0.4694
H29 H 0.8782 0.5086 0.5017
H30 H 0.9377 0.6453 0.5171
Ni1A Ni 0.73432(6) 0.97762(11) 0.88134(6)
Ni1A_2 Ni 0.73432(6) 0.97762(11) -0.11866(6)
O3A O 0.8077(3) 0.9696(7) 0.3095(3)
O4A O 0.7482(3) 1.2196(7) 0.3045(3)
N3A N 0.6672(3) 1.1675(9) 0.4283(3)
loop_
_geom_bond_atom_site_label_1
_geom_bond_atom_site_label_2
_geom_bond_site_symmetry_1
_geom_bond_site_symmetry_2
O1 Ni1 1_555 1_555
O2 Ni1 1_555 1_555
N1 C1 1_555 1_555
C1 H1 1_555 1_555
Ni1 N1 1_555 1_555
O3 C2 1_555 1_555
O4 C2 1_555 1_555
N2 C5 1_555 1_555
N3 C19 1_555 1_555
C2 C4 1_555 1_555
C3 C10 1_555 1_555
C4 C6 1_555 1_555
C5 H2 1_555 1_555
H3 C5 1_555 1_555
C6 C24 1_555 1_555
C7 C13 1_555 1_555
C8 C4 1_555 1_555
C9 C10 1_555 1_555
C10 H4 1_555 1_555
C11 C1 1_555 1_555
H5 C11 1_555 1_555
C12 H6 1_555 1_555
H7 C12 1_555 1_555
C13 H8 1_555 1_555
H9 C13 1_555 1_555
H10 C13 1_555 1_555
C14 C3 1_555 1_555
C15 C20 1_555 1_555
C16 C9 1_555 1_555
H11 C16 1_555 1_555
H12 C16 1_555 1_555
H13 C16 1_555 1_555
C17 C7 1_555 1_555
N4 C12 1_555 1_555
C18 C3 1_555 1_555
H14 C18 1_555 1_555
H15 C18 1_555 1_555
H16 C18 1_555 1_555
C19 N4 1_555 1_555
H17 C19 1_555 1_555
C20 C8 1_555 1_555
H18 C20 1_555 1_555
C21 N1 1_555 1_555
H19 C21 1_555 1_555
C22 N3 1_555 1_555
H20 C22 1_555 1_555
C23 N4 1_555 1_555
H21 C23 1_555 1_555
C24 C15 1_555 1_555
C25 O1 1_555 1_555
C26 C6 1_555 1_555
H22 C26 1_555 1_555
H23 C26 1_555 1_555
H24 C26 1_555 1_555
C27 C8 1_555 1_555
H25 C27 1_555 1_555
H26 C27 1_555 1_555
H27 C27 1_555 1_555
C28 C15 1_555 1_555
H28 C28 1_555 1_555
H29 C28 1_555 1_555
H30 C28 1_555 1_555
Ni1A O3 1_555 1_555
Ni1A_2 N3 1_555 1_555
O3A Ni1 1_555 1_555
O4A Ni1 1_555 1_555
N3A Ni1 1_555 1_555
O2 C25 1_555 1_555
O4 Ni1A 1_555 1_555
N2 C11 1_555 1_555
N2 C21 1_555 1_555
C5 C14 1_555 1_555
C7 C14 1_555 1_555
C9 C17 1_555 1_555
C12 C17 1_555 1_555
C22 C23 1_555 1_555
C24 C25 1_555 1_555

#END
