
#######################################################################
#
#                 Cambridge Crystallographic Data Centre
#                                CCDC 
#
#######################################################################
#
# If this CIF has been generated from an entry in the Cambridge 
# Structural Database, then it will include bibliographic, chemical, 
# crystal, experimental, refinement or atomic coordinate data resulting 
# from the CCDC's data processing and validation procedures.
#
#######################################################################

data_PURRIF
_symmetry_cell_setting           monoclinic
_symmetry_space_group_name_H-M   'P 21/c'
_symmetry_Int_Tables_number      14
_space_group_name_Hall           '-P 2ybc'
loop_
_symmetry_equiv_pos_site_id
_symmetry_equiv_pos_as_xyz
1 x,y,z
2 -x,1/2+y,1/2-z
3 -x,-y,-z
4 x,1/2-y,1/2+z
_cell_length_a                   15.5326(13)
_cell_length_b                   16.3710(14)
_cell_length_c                   16.3241(14)
_cell_angle_alpha                90
_cell_angle_beta                 100.4630(10)
_cell_angle_gamma                90
_cell_volume                     4081.94
loop_
_atom_site_label
_atom_site_type_symbol
_atom_site_fract_x
_atom_site_fract_y
_atom_site_fract_z
Cu1 Cu 0.25188(3) 0.38262(2) 0.97407(2)
Cu2 Cu 0.74004(3) 0.38778(3) 0.47624(3)
O1 O 0.22394(18) 0.24533(16) 0.93755(16)
H1 H 0.2150 0.2160 0.9781
H2 H 0.2059 0.2268 0.8888
O2 O 0.30515(16) 0.34817(15) 1.09040(14)
H3 H 0.3303 0.3850 1.1229
H4 H 0.2882 0.3057 1.1129
O3 O 0.27772(18) 0.51717(15) 1.01676(16)
H5 H 0.2718 0.5628 0.9916
H6 H 0.2897 0.5184 1.0697
O4 O 0.19807(16) 0.42587(15) 0.86021(14)
H7 H 0.2067 0.4767 0.8686
H8 H 0.1991 0.4082 0.8114
O5 O 0.7354(2) 0.50754(17) 0.50842(18)
H9 H 0.7400 0.5469 0.4755
H10 H 0.7402 0.5189 0.5599
O6 O 0.8002(2) 0.38108(19) 0.62735(19)
H11 H 0.7703 0.4106 0.6547
H12 H 0.8087 0.3317 0.6427
O7 O 0.74444(19) 0.26730(17) 0.45940(17)
H13 H 0.7503 0.2470 0.4128
H14 H 0.7470 0.2345 0.5001
O8 O 0.69091(18) 0.42344(14) 0.34117(6)
H15 H 0.6829 0.3851 0.3054
H16 H 0.7071 0.4695 0.3252
N1 N 0.61591(19) 0.37385(18) 0.49696(18)
N2 N 0.37302(18) 0.37063(17) 0.94617(17)
N3 N 0.86656(19) 0.39480(18) 0.46118(18)
N4 N 1.13207(18) 0.38766(18) 0.00753(17)
C1 C 0.5168(2) 0.3102(2) 0.5742(2)
C2 C 0.6004(2) 0.3257(2) 0.5590(2)
H17 H 0.6478 0.3015 0.5935
C3 C 0.5474(2) 0.4081(2) 0.4478(2)
H18 H 0.5575 0.4423 0.4050
C4 C 0.4630(3) 0.3950(3) 0.4579(3)
H19 H 0.4169 0.4192 0.4218
C5 C 0.4466(2) 0.3453(3) 0.5222(2)
H20 H 0.3896 0.3359 0.5301
C6 C 0.5061(3) 0.2571(2) 0.6471(2)
H21 H 0.4582 0.2192 0.6303
H22 H 0.5591 0.2256 0.6649
N5 N 0.48775(19) 0.30861(19) 0.71850(17)
H23 H 0.4356 0.3335 0.7036
H24 H 0.5291 0.3476 0.7301
C7 C 0.4868(3) 0.2573(2) 0.7958(2)
H25 H 0.4404 0.2170 0.7842
H26 H 0.5420 0.2286 0.8106
C8 C 0.4726(2) 0.3099(2) 0.8674(2)
C9 C 0.3886(2) 0.3253(2) 0.8821(2)
H27 H 0.3412 0.3031 0.8459
C10 C 0.4420(2) 0.4025(2) 0.9984(2)
H28 H 0.4317 0.4348 1.0424
C11 C 0.5274(2) 0.3890(2) 0.9889(2)
H29 H 0.5738 0.4109 1.0266
C12 C 0.5428(2) 0.3423(2) 0.9226(2)
H30 H 0.5998 0.3327 0.9149
C13 C 0.9804(2) 0.4407(2) 0.3907(2)
C14 C 0.8935(2) 0.4388(2) 0.4015(2)
H31 H 0.8524 0.4695 0.3657
C15 C 0.9270(2) 0.3506(2) 0.5128(2)
H32 H 0.9088 0.3185 0.5535
C16 C 1.0142(2) 0.3511(3) 0.5074(2)
H33 H 1.0545 0.3214 0.5450
C17 C 1.0413(2) 0.3967(2) 0.4453(2)
H34 H 1.1000 0.3975 0.4404
C18 C 1.0065(2) 0.4898(2) 0.3214(2)
H35 H 1.0629 0.5152 0.3410
H36 H 0.9639 0.5328 0.3050
N6 N 1.01199(19) 0.43673(18) 0.24724(17)
H37 H 1.0528 0.3978 0.2619
H38 H 0.9602 0.4119 0.2299
C19 C 1.0353(3) 0.4872(2) 0.1776(2)
H39 H 1.0912 0.5137 0.1967
H40 H 0.9916 0.5295 0.1627
C20 C 1.0411(2) 0.4368(2) 0.1012(2)
C21 C 1.1215(2) 0.4265(2) 0.0773(2)
H41 H 1.1709 0.4476 0.1116
C22 C 1.0606(2) 0.3556(2) -0.0408(2)
H42 H 1.0672 0.3276 -0.0888
C23 C 0.9783(3) 0.3628(3) -0.0218(2)
H43 H 0.9302 0.3399 -0.0566
C24 C 0.9676(3) 0.4044(3) 0.0495(2)
H44 H 0.9122 0.4106 0.0628
Cu1_2 Cu 1.25188(3) 0.38262(2) -0.02593(2)
N4_2 N 0.13207(18) 0.38766(18) 1.00753(17)
S1 S 0.75778(6) 0.65229(6) 0.33794(5)
O9 O 0.77791(15) 0.64154(14) 0.42855(12)
O10 O 0.82870(16) 0.61939(17) 0.30003(15)
O11 O 0.7414(3) 0.73711(16) 0.31614(17)
O12 O 0.67632(16) 0.6038(2) 0.30557(17)
S2 S 0.79062(6) 0.16059(6) 0.66628(6)
O16 O 0.7237(3) 0.1792(3) 0.7142(2)
O17 O 0.83357(18) 0.08271(17) 0.69257(17)
O18 O 0.8557(3) 0.2255(2) 0.6797(3)
O19 O 0.7523(2) 0.15633(17) 0.57745(16)
S3 S 0.34295(7) 0.50939(6) 0.25521(6)
O20 O 0.3727(2) 0.4318(2) 0.2229(2)
O21 O 0.4130(2) 0.5593(2) 0.2868(2)
O22 O 0.2829(3) 0.5477(2) 0.18638(18)
O23 O 0.29162(19) 0.48712(19) 0.31925(16)
O27 O 0.1822(2) 0.14815(19) 0.78915(18)
H45 H 0.1843 0.1870 0.7550
H46 H 0.2265 0.1167 0.7993
O28 O 0.9710(4) 0.7320(6) 0.2426(4)
H47 H 0.9850 0.6817 0.2457
H48 H 0.9598 0.7543 0.2866
O29 O 0.1984(3) 0.6913(2) 0.1632(2)
O31 O 0.5499(6) 0.4661(6) 0.1754(6)
O13? O 0.8296(8) 0.6968(9) 0.3124(6)
O14? O 0.6784(8) 0.7022(10) 0.3181(6)
O15? O 0.7450(12) 0.5755(7) 0.2974(5)
O24? O 0.4368(4) 0.4874(7) 0.2876(6)
O25? O 0.3428(8) 0.6036(4) 0.2523(7)
O26? O 0.3119(6) 0.4776(7) 0.1770(4)
O30? O 0.3002(13) 0.7072(11) 0.1851(10)
O32? O 0.5884(18) 0.4915(18) 0.2336(16)
loop_
_geom_bond_atom_site_label_1
_geom_bond_atom_site_label_2
_geom_bond_site_symmetry_1
_geom_bond_site_symmetry_2
Cu1 O1 1_555 1_555
Cu2 O5 1_555 1_555
O1 H1 1_555 1_555
H2 O1 1_555 1_555
O2 Cu1 1_555 1_555
H3 O2 1_555 1_555
H4 O2 1_555 1_555
O3 Cu1 1_555 1_555
H5 O3 1_555 1_555
H6 O3 1_555 1_555
O4 Cu1 1_555 1_555
H7 O4 1_555 1_555
H8 O4 1_555 1_555
O5 H9 1_555 1_555
H10 O5 1_555 1_555
O6 Cu2 1_555 1_555
H11 O6 1_555 1_555
H12 O6 1_555 1_555
O7 Cu2 1_555 1_555
H13 O7 1_555 1_555
H14 O7 1_555 1_555
O8 Cu2 1_555 1_555
H15 O8 1_555 1_555
H16 O8 1_555 1_555
N1 Cu2 1_555 1_555
N2 Cu1 1_555 1_555
N3 Cu2 1_555 1_555
N4 C21 1_555 1_555
C1 C2 1_555 1_555
C2 N1 1_555 1_555
H17 C2 1_555 1_555
C3 N1 1_555 1_555
H18 C3 1_555 1_555
C4 C3 1_555 1_555
H19 C4 1_555 1_555
C5 C1 1_555 1_555
H20 C5 1_555 1_555
C6 C1 1_555 1_555
H21 C6 1_555 1_555
H22 C6 1_555 1_555
N5 C6 1_555 1_555
H23 N5 1_555 1_555
H24 N5 1_555 1_555
C7 N5 1_555 1_555
H25 C7 1_555 1_555
H26 C7 1_555 1_555
C8 C7 1_555 1_555
C9 N2 1_555 1_555
H27 C9 1_555 1_555
C10 N2 1_555 1_555
H28 C10 1_555 1_555
C11 C10 1_555 1_555
H29 C11 1_555 1_555
C12 C8 1_555 1_555
H30 C12 1_555 1_555
C13 C14 1_555 1_555
C14 N3 1_555 1_555
H31 C14 1_555 1_555
C15 N3 1_555 1_555
H32 C15 1_555 1_555
C16 C15 1_555 1_555
H33 C16 1_555 1_555
C17 C13 1_555 1_555
H34 C17 1_555 1_555
C18 C13 1_555 1_555
H35 C18 1_555 1_555
H36 C18 1_555 1_555
N6 C18 1_555 1_555
H37 N6 1_555 1_555
H38 N6 1_555 1_555
C19 N6 1_555 1_555
H39 C19 1_555 1_555
H40 C19 1_555 1_555
C20 C19 1_555 1_555
C21 C20 1_555 1_555
H41 C21 1_555 1_555
C22 N4 1_555 1_555
H42 C22 1_555 1_555
C23 C22 1_555 1_555
H43 C23 1_555 1_555
C24 C20 1_555 1_555
H44 C24 1_555 1_555
S1 O9 1_555 1_555
O10 S1 1_555 1_555
O11 S1 1_555 1_555
O12 S1 1_555 1_555
S2 O16 1_555 1_555
O17 S2 1_555 1_555
O18 S2 1_555 1_555
O19 S2 1_555 1_555
S3 O20 1_555 1_555
O21 S3 1_555 1_555
O22 S3 1_555 1_555
O23 S3 1_555 1_555
O27 H45 1_555 1_555
H46 O27 1_555 1_555
O28 H47 1_555 1_555
H48 O28 1_555 1_555
Cu1_2 N4 1_555 1_555
N4_2 Cu1 1_555 1_555
C4 C5 1_555 1_555
C8 C9 1_555 1_555
C11 C12 1_555 1_555
C16 C17 1_555 1_555
C23 C24 1_555 1_555

#END
