
#######################################################################
#
#                 Cambridge Crystallographic Data Centre
#                                CCDC 
#
#######################################################################
#
# If this CIF has been generated from an entry in the Cambridge 
# Structural Database, then it will include bibliographic, chemical, 
# crystal, experimental, refinement or atomic coordinate data resulting 
# from the CCDC's data processing and validation procedures.
#
#######################################################################

data_PURSAX
_symmetry_cell_setting           triclinic
_symmetry_space_group_name_H-M   'P -1'
_symmetry_Int_Tables_number      2
_space_group_name_Hall           '-P 1'
loop_
_symmetry_equiv_pos_site_id
_symmetry_equiv_pos_as_xyz
1 x,y,z
2 -x,-y,-z
_cell_length_a                   7.897(5)
_cell_length_b                   8.014(5)
_cell_length_c                   11.804(7)
_cell_angle_alpha                84.329(9)
_cell_angle_beta                 77.657(10)
_cell_angle_gamma                73.374(10)
_cell_volume                     698.692
loop_
_atom_site_label
_atom_site_type_symbol
_atom_site_fract_x
_atom_site_fract_y
_atom_site_fract_z
Zn1 Zn 0.02556(18) 0.74312(16) 0.50796(11)
C1 C 0.0615(13) 0.4887(13) 0.2124(9)
C2 C 0.1736(13) 0.5735(13) 0.1376(8)
H1 H 0.1879 0.6759 0.1601
C3 C 0.2655(14) 0.5093(13) 0.0293(9)
H2 H 0.3383 0.5699 -0.0198
C4 C 0.2487(14) 0.3557(13) -0.0053(9)
C5 C 0.1316(13) 0.2728(13) 0.0692(8)
H3 H 0.1152 0.1717 0.0462
C6 C 0.0405(14) 0.3369(13) 0.1752(9)
C7 C 0.3581(13) 0.2732(13) -0.1143(8)
C8 C 0.4229(13) 0.3783(13) -0.2080(9)
H4 H 0.3849 0.4990 -0.2035
C9 C 0.5413(14) 0.3047(14) -0.3057(8)
C10 C 0.6031(13) 0.1233(13) -0.3114(8)
C11 C 0.5357(13) 0.0205(13) -0.2219(8)
H5 H 0.5709 -0.1000 -0.2275
C12 C 0.4166(14) 0.0944(13) -0.1241(9)
H6 H 0.3754 0.0227 -0.0642
C13 C 0.5497(15) 0.5908(13) -0.3844(9)
H7 H 0.6063 0.6442 -0.4528
H8 H 0.5834 0.6213 -0.3174
H9 H 0.4212 0.6312 -0.3770
C14 C -0.0925(16) 0.0996(13) 0.2165(9)
H10 H -0.1796 0.0604 0.2746
H11 H 0.0223 0.0142 0.2101
H12 H -0.1305 0.1154 0.1432
C15 C 0.7454(14) 0.0314(14) -0.4109(9)
C16 C -0.0146(13) 0.5598(13) 0.3328(8)
O1 O -0.0775(9) 0.2594(9) 0.2481(6)
O2 O 0.0104(10) 0.7046(9) 0.3487(6)
O3 O 0.6062(10) 0.4067(9) -0.3934(6)
O4 O 0.8129(9) 0.1125(9) -0.4957(6)
O5 O 0.7928(9) -0.1346(9) -0.4002(6)
O6 O -0.0986(9) 0.4812(9) 0.4121(6)
Zn1A Zn 0.97444(18) 0.25688(16) -0.50796(11)
Zn1_2 Zn 1.02556(18) -0.25688(16) -0.49204(11)
Zn1A_2 Zn -0.02556(18) 0.25688(16) 0.49204(11)
O4A O 0.1871(9) 0.8875(9) 0.4957(6)
O5_2 O -0.2072(9) 0.8654(9) 0.5998(6)
O6A O 0.0986(9) 0.5188(9) 0.5879(6)
loop_
_geom_bond_atom_site_label_1
_geom_bond_atom_site_label_2
_geom_bond_site_symmetry_1
_geom_bond_site_symmetry_2
Zn1 O2 1_555 1_555
C1 C2 1_555 1_555
C2 H1 1_555 1_555
C3 C2 1_555 1_555
H2 C3 1_555 1_555
C4 C3 1_555 1_555
C5 C4 1_555 1_555
H3 C5 1_555 1_555
C6 C1 1_555 1_555
C7 C4 1_555 1_555
C8 C7 1_555 1_555
H4 C8 1_555 1_555
C9 C8 1_555 1_555
C10 C9 1_555 1_555
C11 C10 1_555 1_555
H5 C11 1_555 1_555
C12 C7 1_555 1_555
H6 C12 1_555 1_555
C13 H7 1_555 1_555
H8 C13 1_555 1_555
H9 C13 1_555 1_555
C14 H10 1_555 1_555
H11 C14 1_555 1_555
H12 C14 1_555 1_555
C15 C10 1_555 1_555
C16 C1 1_555 1_555
O1 C6 1_555 1_555
O2 C16 1_555 1_555
O3 C9 1_555 1_555
O4 C15 1_555 1_555
O5 C15 1_555 1_555
O6 C16 1_555 1_555
Zn1A O4 1_555 1_555
Zn1_2 O5 1_555 1_555
Zn1A_2 O6 1_555 1_555
O4A Zn1 1_555 1_555
O5_2 Zn1 1_555 1_555
O6A Zn1 1_555 1_555
C5 C6 1_555 1_555
C11 C12 1_555 1_555
C13 O3 1_555 1_555
C14 O1 1_555 1_555

#END
