
#######################################################################
#
#                 Cambridge Crystallographic Data Centre
#                                CCDC 
#
#######################################################################
#
# If this CIF has been generated from an entry in the Cambridge 
# Structural Database, then it will include bibliographic, chemical, 
# crystal, experimental, refinement or atomic coordinate data resulting 
# from the CCDC's data processing and validation procedures.
#
#######################################################################

data_PURTIF
_symmetry_cell_setting           orthorhombic
_symmetry_space_group_name_H-M   'P b c a'
_symmetry_Int_Tables_number      61
_space_group_name_Hall           '-P 2ac 2ab'
loop_
_symmetry_equiv_pos_site_id
_symmetry_equiv_pos_as_xyz
1 x,y,z
2 1/2-x,-y,1/2+z
3 1/2+x,1/2-y,-z
4 -x,1/2+y,1/2-z
5 -x,-y,-z
6 1/2+x,y,1/2-z
7 1/2-x,1/2+y,z
8 x,1/2-y,1/2+z
_cell_length_a                   21.384(6)
_cell_length_b                   17.425(10)
_cell_length_c                   26.048(10)
_cell_angle_alpha                90
_cell_angle_beta                 90
_cell_angle_gamma                90
_cell_volume                     9705.91
loop_
_atom_site_label
_atom_site_type_symbol
_atom_site_fract_x
_atom_site_fract_y
_atom_site_fract_z
H29 H -0.1624 0.2038 -0.4341
H30 H -0.1292 0.2616 -0.4735
Cl1 Cl -0.2357(15) 0.2608(19) -0.4864(11)
Cl2 Cl -0.1655(12) 0.3266(15) -0.4033(9)
C62 C -0.1547(8) 0.3015(11) -0.4118(7)
H31 H -0.1222 0.3347 -0.4274
H32 H -0.1338 0.2679 -0.3864
Cl3 Cl -0.2090(8) 0.3600(7) -0.3795(5)
Cl4 Cl -0.1860(11) 0.2461(12) -0.4583(9)
C63 C -0.2214(15) 0.2780(40) -0.4469(18)
H33 H -0.2273 0.3053 -0.4799
H34 H -0.2477 0.2314 -0.4467
Cl5 Cl -0.1426(8) 0.2552(10) -0.4371(7)
Cl6 Cl -0.2396(9) 0.3370(10) -0.3957(7)
C64 C -0.1187(19) 0.0685(16) -0.5020(20)
H35 H -0.1577 0.0968 -0.5100
H36 H -0.1126 0.0695 -0.4644
Cl7 Cl -0.0555(3) 0.1132(5) -0.5322(3)
Cl8 Cl -0.1258(7) -0.0277(9) -0.5230(6)
C65 C -0.1090(30) 0.0530(30) -0.5000(30)
H37 H -0.1095 0.0244 -0.4673
H38 H -0.0657 0.0667 -0.5086
Cl9 Cl -0.1550(20) 0.1360(20) -0.4941(17)
Cl10 Cl -0.1423(6) -0.0028(8) -0.5491(6)
C66 C -0.0620(10) 0.1514(15) -0.5224(9)
H39 H -0.0207 0.1390 -0.5074
H40 H -0.0560 0.1819 -0.5541
Cl11 Cl -0.1095(19) 0.2000(20) -0.4781(14)
Cl12 Cl -0.1056(16) 0.0674(15) -0.5347(12)
Mn1 Mn -0.07660(4) 0.18691(5) -0.26536(4)
N1 N -0.0615(2) 0.2925(3) -0.29165(19)
N2 N -0.0414(2) 0.1434(3) -0.3288(2)
N3 N -0.0919(2) 0.0819(3) -0.2390(2)
N4 N -0.1139(2) 0.2302(3) -0.2029(2)
C1 C -0.0879(3) 0.3594(3) -0.2743(2)
C2 C -0.0655(3) 0.4210(4) -0.3048(3)
H1 H -0.0777 0.4732 -0.3015
C3 C -0.0248(3) 0.3938(4) -0.3385(3)
H2 H -0.0014 0.4227 -0.3628
C4 C -0.0229(3) 0.3118(4) -0.3314(2)
C5 C 0.0088(3) 0.2605(4) -0.3632(2)
C6 C -0.0039(3) 0.1811(4) -0.3641(2)
C7 C 0.0152(3) 0.1291(4) -0.4033(2)
H3 H 0.0418 0.1402 -0.4316
C8 C -0.0120(3) 0.0608(4) -0.3926(3)
H4 H -0.0090 0.0154 -0.4127
C9 C -0.0458(3) 0.0689(3) -0.3459(2)
C10 C -0.0725(3) 0.0078(4) -0.3190(3)
C11 C -0.0909(3) 0.0148(4) -0.2673(3)
C12 C -0.1080(3) -0.0480(4) -0.2342(3)
H5 H -0.1134 -0.1000 -0.2443
C13 C -0.1148(3) -0.0197(4) -0.1864(3)
H6 H -0.1237 -0.0484 -0.1563
C14 C -0.1062(3) 0.0615(4) -0.1893(3)
C15 C -0.1183(3) 0.1130(4) -0.1493(3)
C16 C -0.1259(3) 0.1923(4) -0.1571(3)
C17 C -0.1528(3) 0.2452(4) -0.1211(3)
H7 H -0.1637 0.2343 -0.0865
C18 C -0.1599(3) 0.3127(4) -0.1452(3)
H8 H -0.1786 0.3575 -0.1311
C19 C -0.1344(3) 0.3054(4) -0.1955(2)
C20 C -0.1248(3) 0.3653(4) -0.2296(3)
C21 C 0.0560(3) 0.2899(4) -0.4011(3)
C22 C 0.1184(4) 0.2868(5) -0.3889(3)
H9 H 0.1311 0.2670 -0.3565
C23 C 0.1629(4) 0.3123(6) -0.4233(4)
H10 H 0.2059 0.3109 -0.4143
C24 C 0.1454(5) 0.3393(5) -0.4699(4)
H11 H 0.1763 0.3561 -0.4935
C25 C 0.0830(5) 0.3427(5) -0.4833(3)
H12 H 0.0711 0.3610 -0.5162
C26 C 0.0383(4) 0.3193(4) -0.4487(3)
H13 H -0.0047 0.3232 -0.4572
C27 C -0.0749(3) -0.0679(4) -0.3461(3)
C28 C -0.0319(3) -0.1243(4) -0.3367(3)
H14 H -0.0033 -0.1186 -0.3091
C29 C -0.0296(4) -0.1894(4) -0.3668(3)
H15 H 0.0014 -0.2274 -0.3605
C30 C -0.0713(5) -0.1993(5) -0.4053(4)
H16 H -0.0690 -0.2435 -0.4266
C31 C -0.1163(6) -0.1458(5) -0.4133(4)
H17 H -0.1473 -0.1542 -0.4389
C32 C -0.1175(5) -0.0788(5) -0.3845(4)
H18 H -0.1480 -0.0405 -0.3914
C33 C -0.1278(3) 0.0841(4) -0.0968(3)
C34 C -0.1865(4) 0.0670(5) -0.0770(3)
H19 H -0.2222 0.0724 -0.0984
C35 C -0.1940(4) 0.0430(6) -0.0284(3)
H20 H -0.2349 0.0324 -0.0159
C36 C -0.1433(4) 0.0334(4) 0.0036(3)
H21 H -0.1485 0.0160 0.0379
C37 C -0.0848(4) 0.0500(5) -0.0157(3)
H22 H -0.0492 0.0439 0.0157
C38 C -0.0772(4) 0.0745(4) -0.0636(3)
H23 H -0.0363 0.0858 -0.0756
C39 C -0.1530(3) 0.4425(4) -0.2186(2)
C40 C -0.2099(3) 0.4630(4) -0.2394(3)
H24 H -0.2310 0.4277 -0.2612
C41 C -0.2369(3) 0.5326(4) -0.2295(3)
H25 H -0.2759 0.5455 -0.2447
C42 C -0.2073(4) 0.5838(4) -0.1974(3)
H26 H -0.2255 0.6325 -0.1907
C43 C -0.1519(4) 0.5644(5) -0.1753(3)
H27 H -0.1315 0.5997 -0.1531
C44 C -0.1245(4) 0.4926(5) -0.1849(3)
H28 H -0.0866 0.4786 -0.1684
C45 C -0.2739(3) 0.1382(5) -0.3501(3)
C46 C -0.2211(4) 0.1670(4) -0.3224(3)
N5 N -0.1766(4) 0.1873(6) -0.3030(5)
C47 C -0.2598(4) 0.0924(5) -0.3929(4)
N6 N -0.2444(4) 0.0582(6) -0.4288(4)
C48 C -0.3348(3) 0.1478(5) -0.3339(3)
C49 C -0.3836(4) 0.1060(4) -0.3642(3)
N7 N -0.4191(4) 0.0762(5) -0.3874(4)
C50 C -0.3586(3) 0.1921(4) -0.2940(3)
C51 C -0.3208(4) 0.2421(6) -0.2640(4)
N8 N -0.2940(4) 0.2834(4) -0.2389(3)
C52 C -0.4230(3) 0.1876(4) -0.2799(3)
N9 N -0.4753(5) 0.1833(6) -0.2685(6)
N9E N 0.0247(5) 0.1833(6) -0.2315(6)
Mn1E Mn -0.57660(4) 0.18691(5) -0.23464(4)
C53? C 0.7259(14) 0.1330(30) 0.6676(19)
C54? C 0.7320(20) 0.0750(20) 0.6286(15)
N10? N 0.7410(30) 0.0310(30) 0.5978(18)
C55? C 0.7826(16) 0.1600(50) 0.6880(30)
N11? N 0.8330(20) 0.1740(50) 0.7010(40)
C56? C 0.6697(14) 0.1570(30) 0.6880(20)
C57? C 0.6740(20) 0.2240(40) 0.7240(30)
N12? N 0.6690(30) 0.2660(30) 0.7554(18)
C58? C 0.6086(14) 0.1360(20) 0.6758(15)
C59? C 0.5930(20) 0.0820(30) 0.6370(20)
N13? N 0.5770(40) 0.0520(40) 0.6010(20)
C60? C 0.5571(16) 0.1650(30) 0.7048(18)
N14? N 0.5240(40) 0.2010(50) 0.7310(40)
C61? C 0.8340(30) 0.2550(40) 0.5500(30)
loop_
_geom_bond_atom_site_label_1
_geom_bond_atom_site_label_2
_geom_bond_site_symmetry_1
_geom_bond_site_symmetry_2
Mn1 N1 1_555 1_555
N1 C1 1_555 1_555
N2 Mn1 1_555 1_555
N3 Mn1 1_555 1_555
N4 Mn1 1_555 1_555
C1 C2 1_555 1_555
C2 H1 1_555 1_555
C3 C2 1_555 1_555
H2 C3 1_555 1_555
C4 N1 1_555 1_555
C5 C4 1_555 1_555
C6 N2 1_555 1_555
C7 C6 1_555 1_555
H3 C7 1_555 1_555
C8 C7 1_555 1_555
H4 C8 1_555 1_555
C9 N2 1_555 1_555
C10 C9 1_555 1_555
C11 N3 1_555 1_555
C12 C11 1_555 1_555
H5 C12 1_555 1_555
C13 C12 1_555 1_555
H6 C13 1_555 1_555
C14 N3 1_555 1_555
C15 C14 1_555 1_555
C16 N4 1_555 1_555
C17 C16 1_555 1_555
H7 C17 1_555 1_555
C18 C17 1_555 1_555
H8 C18 1_555 1_555
C19 N4 1_555 1_555
C20 C1 1_555 1_555
C21 C5 1_555 1_555
C22 C21 1_555 1_555
H9 C22 1_555 1_555
C23 C22 1_555 1_555
H10 C23 1_555 1_555
C24 C23 1_555 1_555
H11 C24 1_555 1_555
C25 C24 1_555 1_555
H12 C25 1_555 1_555
C26 C21 1_555 1_555
H13 C26 1_555 1_555
C27 C10 1_555 1_555
C28 C27 1_555 1_555
H14 C28 1_555 1_555
C29 C28 1_555 1_555
H15 C29 1_555 1_555
C30 C29 1_555 1_555
H16 C30 1_555 1_555
C31 C30 1_555 1_555
H17 C31 1_555 1_555
C32 C27 1_555 1_555
H18 C32 1_555 1_555
C33 C15 1_555 1_555
C34 C33 1_555 1_555
H19 C34 1_555 1_555
C35 C34 1_555 1_555
H20 C35 1_555 1_555
C36 C35 1_555 1_555
H21 C36 1_555 1_555
C37 C36 1_555 1_555
H22 C37 1_555 1_555
C38 C33 1_555 1_555
H23 C38 1_555 1_555
C39 C20 1_555 1_555
C40 C39 1_555 1_555
H24 C40 1_555 1_555
C41 C40 1_555 1_555
H25 C41 1_555 1_555
C42 C41 1_555 1_555
H26 C42 1_555 1_555
C43 C42 1_555 1_555
H27 C43 1_555 1_555
C44 C39 1_555 1_555
H28 C44 1_555 1_555
C45 C46 1_555 1_555
C46 N5 1_555 1_555
N5 Mn1 1_555 1_555
C47 C45 1_555 1_555
N6 C47 1_555 1_555
C48 C45 1_555 1_555
C49 C48 1_555 1_555
N7 C49 1_555 1_555
C50 C48 1_555 1_555
C51 C50 1_555 1_555
N8 C51 1_555 1_555
C52 C50 1_555 1_555
N9 C52 1_555 1_555
N9E Mn1 1_555 1_555
Mn1E N9 1_555 1_555
C3 C4 1_555 1_555
C5 C6 1_555 1_555
C8 C9 1_555 1_555
C10 C11 1_555 1_555
C13 C14 1_555 1_555
C15 C16 1_555 1_555
C18 C19 1_555 1_555
C19 C20 1_555 1_555
C25 C26 1_555 1_555
C31 C32 1_555 1_555
C37 C38 1_555 1_555
C43 C44 1_555 1_555

#END
