
#######################################################################
#
#                 Cambridge Crystallographic Data Centre
#                                CCDC 
#
#######################################################################
#
# If this CIF has been generated from an entry in the Cambridge 
# Structural Database, then it will include bibliographic, chemical, 
# crystal, experimental, refinement or atomic coordinate data resulting 
# from the CCDC's data processing and validation procedures.
#
#######################################################################

data_PURTOM
_symmetry_cell_setting           monoclinic
_symmetry_space_group_name_H-M   'P 21/c'
_symmetry_Int_Tables_number      14
_space_group_name_Hall           '-P 2ybc'
loop_
_symmetry_equiv_pos_site_id
_symmetry_equiv_pos_as_xyz
1 x,y,z
2 -x,1/2+y,1/2-z
3 -x,-y,-z
4 x,1/2-y,1/2+z
_cell_length_a                   10.190(2)
_cell_length_b                   13.390(3)
_cell_length_c                   10.450(2)
_cell_angle_alpha                90
_cell_angle_beta                 106.02(3)
_cell_angle_gamma                90
_cell_volume                     1370.47
loop_
_atom_site_label
_atom_site_type_symbol
_atom_site_fract_x
_atom_site_fract_y
_atom_site_fract_z
O1 O 0.25013(12) 0.21560(10) 0.34295(12)
O2 O 0.17046(13) 0.06398(9) -0.08604(12)
O3 O -0.03414(13) -0.25677(9) -0.49482(12)
N1 N 0.07778(14) -0.09453(11) -0.36724(13)
O4 O 0.04346(13) -0.22103(10) -0.66991(12)
O5 O 0.29700(12) 0.15717(10) 0.15978(12)
O6 O -0.00485(14) -0.04015(10) -0.15714(13)
N2 N 0.47944(15) 0.32594(12) 0.40589(15)
C1 C 0.03277(18) -0.20523(13) -0.55573(17)
C2 C 0.32633(17) 0.20456(13) 0.26759(17)
C3 C 0.09840(19) 0.00412(13) -0.16923(17)
C4 C 0.14119(18) -0.01758(12) -0.29419(17)
C5 C 0.2376(2) 0.03873(15) -0.33192(19)
H1 H 0.2825 0.0905 -0.2781
C6 C 0.1996(2) -0.06045(14) -0.52770(19)
H2 H 0.2159 -0.0753 -0.6089
C7 C 0.10733(17) -0.11587(13) -0.48180(16)
C8 C 0.46397(17) 0.25604(13) 0.30983(17)
C9 C 0.56623(19) 0.23455(15) 0.25040(19)
H3 H 0.5539 0.1848 0.1861
C10 C 0.2670(2) 0.01743(15) -0.4504(2)
H4 H 0.3312 0.0550 -0.4777
C11 C 0.5968(2) 0.37708(16) 0.4389(2)
H5 H 0.6081 0.4263 0.5039
C12 C 0.7017(2) 0.36088(17) 0.3820(2)
H6 H 0.7810 0.3989 0.4073
C13 C 0.6872(2) 0.28791(17) 0.2875(2)
H7 H 0.7574 0.2744 0.2490
Li1 Li 0.1034(3) 0.1122(2) 0.0638(3)
Li2 Li 0.0506(3) 0.1975(3) 0.3167(3)
Li3 Li 0.2998(3) 0.3290(3) 0.4705(3)
O2C O 0.17046(13) 0.43602(9) 0.41396(12)
O3A O 0.03414(13) 0.24323(9) -0.00518(12)
O3B O 0.03414(13) 0.25677(9) 0.49482(12)
N1B N -0.07778(14) 0.09453(11) 0.36724(13)
O4A O -0.04346(13) 0.27897(10) 0.16991(12)
O5C O 0.29700(12) 0.34283(10) 0.65978(12)
O6B O 0.00485(14) 0.04015(10) 0.15714(13)
Li1A Li -0.1034(3) -0.3878(2) -0.5638(3)
Li1B Li -0.1034(3) -0.1122(2) -0.0638(3)
Li2B Li -0.0506(3) -0.1975(3) -0.3167(3)
Li2A Li -0.0506(3) -0.3025(3) -0.8167(3)
Li3C Li 0.2998(3) 0.1710(3) -0.0295(3)
loop_
_geom_bond_atom_site_label_1
_geom_bond_atom_site_label_2
_geom_bond_site_symmetry_1
_geom_bond_site_symmetry_2
O1 C2 1_555 1_555
O2 C3 1_555 1_555
O3 C1 1_555 1_555
N1 C4 1_555 1_555
O4 C1 1_555 1_555
O5 C2 1_555 1_555
O6 C3 1_555 1_555
N2 C8 1_555 1_555
C1 C7 1_555 1_555
C2 C8 1_555 1_555
C3 C4 1_555 1_555
C4 C5 1_555 1_555
C5 H1 1_555 1_555
C6 H2 1_555 1_555
C7 N1 1_555 1_555
C8 C9 1_555 1_555
C9 H3 1_555 1_555
C10 C5 1_555 1_555
H4 C10 1_555 1_555
C11 N2 1_555 1_555
H5 C11 1_555 1_555
C12 C11 1_555 1_555
H6 C12 1_555 1_555
C13 C9 1_555 1_555
H7 C13 1_555 1_555
Li1 O2 1_555 1_555
Li2 O1 1_555 1_555
Li3 O1 1_555 1_555
O2C Li3 1_555 1_555
O3A Li1 1_555 1_555
O3B Li2 1_555 1_555
N1B Li2 1_555 1_555
O4A Li2 1_555 1_555
O5C Li3 1_555 1_555
O6B Li1 1_555 1_555
Li1A O3 1_555 1_555
Li1B O6 1_555 1_555
Li2B O3 1_555 1_555
Li2A O4 1_555 1_555
Li3C O2 1_555 1_555
N1 Li2B 1_555 1_555
O5 Li1 1_555 1_555
O5 Li3C 1_555 1_555
N2 Li3 1_555 1_555
C6 C7 1_555 1_555
C6 C10 1_555 1_555
C12 C13 1_555 1_555

#END
