
#######################################################################
#
#                 Cambridge Crystallographic Data Centre
#                                CCDC 
#
#######################################################################
#
# If this CIF has been generated from an entry in the Cambridge 
# Structural Database, then it will include bibliographic, chemical, 
# crystal, experimental, refinement or atomic coordinate data resulting 
# from the CCDC's data processing and validation procedures.
#
#######################################################################

data_PURTIG
_symmetry_cell_setting           monoclinic
_symmetry_space_group_name_H-M   'P 21/c'
_symmetry_Int_Tables_number      14
_space_group_name_Hall           '-P 2ybc'
loop_
_symmetry_equiv_pos_site_id
_symmetry_equiv_pos_as_xyz
1 x,y,z
2 -x,1/2+y,1/2-z
3 -x,-y,-z
4 x,1/2-y,1/2+z
_cell_length_a                   11.510(2)
_cell_length_b                   15.330(3)
_cell_length_c                   10.930(2)
_cell_angle_alpha                90
_cell_angle_beta                 99.98(3)
_cell_angle_gamma                90
_cell_volume                     1899.4
loop_
_atom_site_label
_atom_site_type_symbol
_atom_site_fract_x
_atom_site_fract_y
_atom_site_fract_z
O1 O -0.59905(14) -0.06888(10) -0.16375(13)
O2 O -0.31664(14) 0.19171(10) 0.00452(12)
N1 N -0.59187(15) 0.10772(11) -0.37048(14)
O3 O -0.55687(15) 0.27159(10) -0.43380(13)
O4 O -0.52552(15) 0.06519(10) -0.13308(13)
O5 O -0.34784(14) 0.23527(10) -0.19393(13)
N2 N -0.14966(16) 0.32785(12) -0.16004(14)
O6 O -0.11895(16) 0.42308(12) -0.35146(15)
O7 O -0.60401(16) 0.23942(11) -0.63580(13)
C1 C -0.0528(2) 0.37720(16) -0.14592(19)
C2 C -0.60602(19) 0.02482(15) -0.33762(18)
C3 C -0.6583(2) 0.06701(17) -0.5814(2)
H1 H -0.6766 0.0835 -0.6644
C4 C -0.2885(2) 0.23226(14) -0.08613(19)
C5 C -0.6176(2) 0.12791(15) -0.49078(18)
C6 C -0.5743(2) 0.00571(16) -0.19949(18)
C7 C -0.5922(2) 0.22089(16) -0.5233(2)
C8 C -0.1744(2) 0.28416(15) -0.06184(18)
C9 C -0.6428(2) -0.04000(15) -0.4231(2)
H2 H -0.6482 -0.0975 -0.3975
C10 C -0.1036(2) 0.29103(17) 0.0538(2)
H3 H -0.1229 0.2613 0.1217
O8 O 0.06170(17) 0.46305(14) -0.26130(16)
C11 C 0.0226(2) 0.38586(17) -0.0348(2)
H4 H 0.0901 0.4201 -0.0282
C12 C -0.0348(3) 0.42560(17) -0.2624(2)
C13 C -0.6715(2) -0.01835(18) -0.5471(2)
H5 H -0.6991 -0.0605 -0.6062
C14 C -0.0048(3) 0.34225(19) 0.0668(2)
H6 H 0.0437 0.3476 0.1439
Li1 Li -0.4688(4) 0.1309(2) 0.0100(3)
Li2 Li -0.7283(4) -0.1539(3) -0.1785(3)
Li3 Li -0.5193(4) 0.2101(3) -0.2547(3)
O1B O -0.40095(14) 0.06888(10) 0.16375(13)
O2B O -0.68336(14) -0.19171(10) -0.00452(12)
O3C O -0.55687(15) 0.22841(10) 0.06620(13)
N2A N -0.85034(16) -0.17215(12) -0.33996(14)
O6A O -0.88105(16) -0.07692(12) -0.14854(15)
O7C O -0.60401(16) 0.26058(11) -0.13580(13)
Li1B Li -0.5312(4) -0.1309(2) -0.0100(3)
Li1C Li -0.4688(4) 0.3691(2) -0.4900(3)
Li2A Li -0.2717(4) 0.3461(3) -0.3215(3)
Li2B Li -0.2717(4) 0.1539(3) 0.1785(3)
Li3C Li -0.5193(4) 0.2899(3) -0.7547(3)
N3 N -0.1559(2) -0.04890(19) 0.9749(2)
H7 H -0.115(2) -0.045(2) 0.911(2)
H8 H -0.130(3) -0.0079(17) 1.031(2)
C15 C -0.2822(3) -0.0356(2) 0.9236(3)
H9 H -0.2924 0.0199 0.8822
H10 H -0.3271 -0.0367 0.9898
H11 H -0.3090 -0.0812 0.8653
C16 C -0.1318(4) -0.1330(2) 1.0396(4)
H12 H -0.0488 -0.1380 1.0707
H13 H -0.1565 -0.1798 0.9827
H14 H -0.1745 -0.1359 1.1076
O9 O -0.1749(10) -0.2232(11) 0.7624(15)
H15 H -0.224(18) -0.224(17) 0.694(12)
H16 H -0.237(15) -0.250(16) 0.77(3)
loop_
_geom_bond_atom_site_label_1
_geom_bond_atom_site_label_2
_geom_bond_site_symmetry_1
_geom_bond_site_symmetry_2
O1 C6 1_555 1_555
O2 C4 1_555 1_555
N1 C2 1_555 1_555
O3 C7 1_555 1_555
O4 C6 1_555 1_555
O5 C4 1_555 1_555
N2 C1 1_555 1_555
O6 C12 1_555 1_555
O7 C7 1_555 1_555
C1 C11 1_555 1_555
C2 C6 1_555 1_555
C3 H1 1_555 1_555
C4 C8 1_555 1_555
C5 N1 1_555 1_555
C7 C5 1_555 1_555
C8 N2 1_555 1_555
C9 C2 1_555 1_555
H2 C9 1_555 1_555
C10 C8 1_555 1_555
H3 C10 1_555 1_555
O8 C12 1_555 1_555
C11 H4 1_555 1_555
C12 C1 1_555 1_555
C13 C3 1_555 1_555
H5 C13 1_555 1_555
C14 C10 1_555 1_555
H6 C14 1_555 1_555
Li1 O2 1_555 1_555
Li2 O1 1_555 1_555
Li3 N1 1_555 1_555
N3 H7 1_555 1_555
H8 N3 1_555 1_555
C15 N3 1_555 1_555
H9 C15 1_555 1_555
H10 C15 1_555 1_555
H11 C15 1_555 1_555
C16 N3 1_555 1_555
H12 C16 1_555 1_555
H13 C16 1_555 1_555
H14 C16 1_555 1_555
O9 H15 1_555 1_555
H16 O9 1_555 1_555
O1B Li1 1_555 1_555
O2B Li2 1_555 1_555
O3C Li1 1_555 1_555
N2A Li2 1_555 1_555
O6A Li2 1_555 1_555
O7C Li3 1_555 1_555
Li1B O1 1_555 1_555
Li1C O3 1_555 1_555
Li2A N2 1_555 1_555
Li2B O2 1_555 1_555
Li3C O7 1_555 1_555
O3 Li3 1_555 1_555
O4 Li1 1_555 1_555
O5 Li3 1_555 1_555
O6 Li2A 1_555 1_555
C3 C5 1_555 1_555
C9 C13 1_555 1_555
C11 C14 1_555 1_555
O1B Li2B 1_555 1_555
O2B Li1B 1_555 1_555

#END
