
#######################################################################
#
#                 Cambridge Crystallographic Data Centre
#                                CCDC 
#
#######################################################################
#
# If this CIF has been generated from an entry in the Cambridge 
# Structural Database, then it will include bibliographic, chemical, 
# crystal, experimental, refinement or atomic coordinate data resulting 
# from the CCDC's data processing and validation procedures.
#
#######################################################################

data_PURVED
_symmetry_cell_setting           monoclinic
_symmetry_space_group_name_H-M   'P 21/n'
_symmetry_Int_Tables_number      14
_space_group_name_Hall           '-P 2yn'
loop_
_symmetry_equiv_pos_site_id
_symmetry_equiv_pos_as_xyz
1 x,y,z
2 1/2-x,1/2+y,1/2-z
3 -x,-y,-z
4 1/2+x,1/2-y,1/2+z
_cell_length_a                   9.979(4)
_cell_length_b                   9.871(3)
_cell_length_c                   16.057(6)
_cell_angle_alpha                90
_cell_angle_beta                 99.95
_cell_angle_gamma                90
_cell_volume                     1557.87
loop_
_atom_site_label
_atom_site_type_symbol
_atom_site_fract_x
_atom_site_fract_y
_atom_site_fract_z
Zn1 Zn 0.4028(1) 0.1987 0.2037(1)
Br1 Br 0.3846(1) 0.0804(1) 0.0742(1)
Br2 Br 0.5444(1) 0.1004(1) 0.3235(1)
S1 S 0.5247(2) 0.4028(2) 0.1874(2)
S2 S 0.2065(2) 0.2665(3) 0.2560(2)
C1 C 0.4253(9) 0.5044(9) 0.1176(6)
C2 C 0.2805(9) 0.4763(10) 0.0761(6)
C3 C 0.2430(11) 0.5933(11) 0.0180(7)
C4 C 0.3592(10) 0.6920(10) 0.0358(6)
N1 N 0.4625(7) 0.6243(7) 0.0957(5)
C5 C 0.5915(9) 0.6881(10) 0.1256(6)
C6 C 0.4381(9) 0.7026(10) 0.2980(7)
C7 C 0.4578(12) 0.6259(15) 0.3802(7)
C8 C 0.6024(11) 0.5786(13) 0.3950(8)
C9 C 0.6704(10) 0.6585(12) 0.3336(7)
N2 N 0.5587(7) 0.7163(8) 0.2750(5)
C10 C 0.5829(9) 0.7876(9) 0.1982(6)
H1 H 0.2160(9) 0.4661(10) 0.1136(6)
H2 H 0.2809(9) 0.3954(10) 0.0430(6)
H3 H 0.1593(11) 0.6339(11) 0.0271(7)
H4 H 0.2335(11) 0.5679(11) -0.0404(7)
H5 H 0.3278(10) 0.7734(10) 0.0590(6)
H6 H 0.3961(10) 0.7153(10) -0.0137(6)
H7 H 0.6183(9) 0.7371(10) 0.0795(6)
H8 H 0.6601(9) 0.6215(10) 0.1445(6)
H9 H 0.3963(12) 0.5505(15) 0.3760(7)
H10 H 0.4373(12) 0.6863(15) 0.4232(7)
H11 H 0.6081(11) 0.4822(13) 0.3885(8)
H12 H 0.6424(11) 0.6028(13) 0.4517(8)
H13 H 0.7210(10) 0.5967(12) 0.3048(7)
H14 H 0.7308(10) 0.7273(12) 0.3606(7)
H15 H 0.6651(9) 0.8398(9) 0.2108(6)
H16 H 0.5087(9) 0.8491(9) 0.1811(6)
S2A S 0.2935(2) 0.7665(3) 0.2440(2)
Zn1A Zn 0.0972(1) 0.6987 0.2963(1)
loop_
_geom_bond_atom_site_label_1
_geom_bond_atom_site_label_2
_geom_bond_site_symmetry_1
_geom_bond_site_symmetry_2
Zn1 Br1 1_555 1_555
Br2 Zn1 1_555 1_555
S1 Zn1 1_555 1_555
S2 Zn1 1_555 1_555
C1 S1 1_555 1_555
C2 C1 1_555 1_555
C3 C2 1_555 1_555
C4 C3 1_555 1_555
N1 C1 1_555 1_555
C5 N1 1_555 1_555
C6 C7 1_555 1_555
C7 C8 1_555 1_555
C8 C9 1_555 1_555
C9 N2 1_555 1_555
N2 C6 1_555 1_555
C10 C5 1_555 1_555
H1 C2 1_555 1_555
H2 C2 1_555 1_555
H3 C3 1_555 1_555
H4 C3 1_555 1_555
H5 C4 1_555 1_555
H6 C4 1_555 1_555
H7 C5 1_555 1_555
H8 C5 1_555 1_555
H9 C7 1_555 1_555
H10 C7 1_555 1_555
H11 C8 1_555 1_555
H12 C8 1_555 1_555
H13 C9 1_555 1_555
H14 C9 1_555 1_555
H15 C10 1_555 1_555
H16 C10 1_555 1_555
S2A C6 1_555 1_555
Zn1A S2A 1_555 1_555
C4 N1 1_555 1_555
N2 C10 1_555 1_555

#END
