
#######################################################################
#
#                 Cambridge Crystallographic Data Centre
#                                CCDC 
#
#######################################################################
#
# If this CIF has been generated from an entry in the Cambridge 
# Structural Database, then it will include bibliographic, chemical, 
# crystal, experimental, refinement or atomic coordinate data resulting 
# from the CCDC's data processing and validation procedures.
#
#######################################################################

data_PURVIH
_symmetry_cell_setting           monoclinic
_symmetry_space_group_name_H-M   'C 2/c'
_symmetry_Int_Tables_number      15
_space_group_name_Hall           '-C 2yn'
loop_
_symmetry_equiv_pos_site_id
_symmetry_equiv_pos_as_xyz
1 x,y,z
2 -x,y,1/2-z
3 1/2+x,1/2+y,z
4 1/2-x,1/2+y,1/2-z
5 -x,-y,-z
6 x,-y,1/2+z
7 1/2-x,1/2-y,-z
8 1/2+x,1/2-y,1/2+z
_cell_length_a                   19.188(3)
_cell_length_b                   9.987(2)
_cell_length_c                   15.964(3)
_cell_angle_alpha                90
_cell_angle_beta                 123.120(11)
_cell_angle_gamma                90
_cell_volume                     2562.16
loop_
_atom_site_label
_atom_site_type_symbol
_atom_site_fract_x
_atom_site_fract_y
_atom_site_fract_z
Cu1 Cu 0.3291(1) 0.1699(1) 0.0488(1)
Cl1 Cl 0.3168(1) -0.0537(1) 0.0667(1)
S1 S 0.4460(1) 0.2714(1) 0.0706(1)
C1 C 0.5231(2) 0.1582(4) 0.1081(3)
C2 C 0.5302(3) 0.0273(4) 0.1571(3)
C3 C 0.5985(3) -0.0469(4) 0.1571(3)
C4 C 0.6459(3) 0.0584(4) 0.1405(3)
N1 N 0.5879(2) 0.1727(3) 0.1013(2)
C5 C 0.6093(2) 0.2904(4) 0.0659(3)
C6 C 0.6794(2) 0.3719(5) 0.1514(3)
N2 N 0.6548(2) 0.4397(3) 0.2115(2)
C7 C 0.6052(3) 0.5640(4) 0.1751(3)
C8 C 0.6105(3) 0.6189(5) 0.2660(4)
C9 C 0.6289(3) 0.4967(4) 0.3315(3)
C10 C 0.6699(2) 0.4018(4) 0.2993(2)
S2 S 0.2739(1) 0.2652(1) 0.1371(1)
H1 H 0.4782(3) -0.0220(4) 0.1198(3)
H2 H 0.5443(3) 0.0406(4) 0.2249(3)
H3 H 0.6346(3) -0.0919(4) 0.2206(3)
H4 H 0.5754(3) -0.1130(4) 0.1040(3)
H5 H 0.6973(3) 0.0814(4) 0.2027(3)
H6 H 0.6586(3) 0.0284(4) 0.0925(3)
H7 H 0.5604(2) 0.3467(4) 0.0282(3)
H8 H 0.6260(2) 0.2624(4) 0.0212(3)
H9 H 0.7257(2) 0.3127(5) 0.1941(3)
H10 H 0.6986(2) 0.4379(5) 0.1238(3)
H11 H 0.5480(3) 0.5451(4) 0.1222(3)
H12 H 0.6286(3) 0.6264(4) 0.1502(3)
H13 H 0.5584(3) 0.6602(5) 0.2482(4)
H14 H 0.6548(3) 0.6845(5) 0.2996(4)
H15 H 0.6658(3) 0.5193(4) 0.4017(3)
H16 H 0.5781(3) 0.4588(4) 0.3205(3)
S2A S 0.7261(1) 0.2652(1) 0.3629(1)
Cu1A Cu 0.6709(1) 0.1699(1) 0.4512(1)
S2F S 0.2261(1) 0.2348(1) -0.1371(1)
Cu1F Cu 0.1709(1) 0.3301(1) -0.0488(1)
S2G S 0.7739(1) 0.2348(1) 0.6371(1)
Cu1G Cu 0.8291(1) 0.3301(1) 0.5488(1)
loop_
_geom_bond_atom_site_label_1
_geom_bond_atom_site_label_2
_geom_bond_site_symmetry_1
_geom_bond_site_symmetry_2
Cu1 Cl1 1_555 1_555
S1 Cu1 1_555 1_555
C1 S1 1_555 1_555
C2 C1 1_555 1_555
C3 C2 1_555 1_555
C4 C3 1_555 1_555
N1 C1 1_555 1_555
C5 N1 1_555 1_555
C6 C5 1_555 1_555
N2 C6 1_555 1_555
C7 N2 1_555 1_555
C8 C7 1_555 1_555
C9 C8 1_555 1_555
C10 N2 1_555 1_555
S2 Cu1 1_555 1_555
H1 C2 1_555 1_555
H2 C2 1_555 1_555
H3 C3 1_555 1_555
H4 C3 1_555 1_555
H5 C4 1_555 1_555
H6 C4 1_555 1_555
H7 C5 1_555 1_555
H8 C5 1_555 1_555
H9 C6 1_555 1_555
H10 C6 1_555 1_555
H11 C7 1_555 1_555
H12 C7 1_555 1_555
H13 C8 1_555 1_555
H14 C8 1_555 1_555
H15 C9 1_555 1_555
H16 C9 1_555 1_555
S2A C10 1_555 1_555
Cu1A S2A 1_555 1_555
S2F Cu1 1_555 1_555
Cu1F S2 1_555 1_555
S2G Cu1A 1_555 1_555
Cu1G S2A 1_555 1_555
C4 N1 1_555 1_555
C9 C10 1_555 1_555
S2F Cu1F 1_555 1_555
S2G Cu1G 1_555 1_555

#END
