
#######################################################################
#
#                 Cambridge Crystallographic Data Centre
#                                CCDC 
#
#######################################################################
#
# If this CIF has been generated from an entry in the Cambridge 
# Structural Database, then it will include bibliographic, chemical, 
# crystal, experimental, refinement or atomic coordinate data resulting 
# from the CCDC's data processing and validation procedures.
#
#######################################################################

data_PURVEE
_symmetry_cell_setting           monoclinic
_symmetry_space_group_name_H-M   'P 21/c'
_symmetry_Int_Tables_number      14
_space_group_name_Hall           '-P 2ybc'
loop_
_symmetry_equiv_pos_site_id
_symmetry_equiv_pos_as_xyz
1 x,y,z
2 -x,1/2+y,1/2-z
3 -x,-y,-z
4 x,1/2-y,1/2+z
_cell_length_a                   15.8582(6)
_cell_length_b                   13.8304(6)
_cell_length_c                   32.7069(12)
_cell_angle_alpha                90
_cell_angle_beta                 91.618(2)
_cell_angle_gamma                90
_cell_volume                     7170.59
loop_
_atom_site_label
_atom_site_type_symbol
_atom_site_fract_x
_atom_site_fract_y
_atom_site_fract_z
C1 C 0.7421(4) 0.3687(4) 0.48447(15)
C2 C 0.6598(4) 0.3574(5) 0.4696(2)
H1 H 0.6220 0.3160 0.4833
C3 C 0.6326(4) 0.4065(7) 0.4345(2)
H2 H 0.5764 0.3988 0.4243
C4 C 0.6879(6) 0.4670(6) 0.41442(17)
C5 C 0.7702(5) 0.4783(4) 0.42932(18)
H3 H 0.8080 0.5196 0.4156
C6 C 0.7974(4) 0.4291(4) 0.46435(17)
H4 H 0.8537 0.4369 0.4745
Co1 Co 1.01677(5) -0.44249(5) 0.65472(2)
Cl1 Cl 0.91765(11) -0.42169(13) 0.70052(5)
Cl2 Cl 1.06939(15) -0.59061(13) 0.65056(6)
C7 C 0.8266(3) -0.0325(4) 0.55981(16)
C8 C 0.8833(3) -0.1018(4) 0.57626(16)
C9 C 0.8507(3) -0.1816(4) 0.59647(16)
C10 C 0.7644(3) -0.1954(4) 0.60079(16)
C11 C 0.7086(3) -0.1245(4) 0.58539(16)
C12 C 0.7402(3) -0.0451(4) 0.56356(15)
C13 C 0.9776(3) -0.0935(4) 0.5706(2)
H5 H 1.0025 -0.0537 0.5926
H6 H 0.9881 -0.0635 0.5441
H7 H 1.0030 -0.1581 0.5715
C14 C 0.9110(3) -0.2551(4) 0.61476(15)
H8 H 0.9649 -0.2230 0.6225
H9 H 0.8869 -0.2825 0.6398
N1 N 0.9271(3) -0.3329(3) 0.58593(13)
N2 N 0.9677(3) -0.4152(3) 0.59809(15)
C15 C 0.9727(4) -0.4691(5) 0.56523(19)
H10 H 0.9979 -0.5314 0.5647
C16 C 0.9362(5) -0.4232(5) 0.5311(2)
H11 H 0.9316 -0.4470 0.5039
C17 C 0.9087(5) -0.3365(5) 0.54546(17)
H12 H 0.8813 -0.2873 0.5297
C18 C 0.7331(4) -0.2842(4) 0.6215(2)
H13 H 0.7761 -0.3351 0.6204
H14 H 0.6811 -0.3065 0.6076
H15 H 0.7217 -0.2694 0.6501
C19 C 0.6792(3) 0.0241(4) 0.54312(17)
H16 H 0.6679 0.0778 0.5617
H17 H 0.6263 -0.0097 0.5363
H18 H 0.7036 0.0492 0.5181
C20 C 0.6137(3) -0.1370(4) 0.58966(18)
H19 H 0.5892 -0.1518 0.5622
H20 H 0.6046 -0.1945 0.6070
C21 C 0.5636(3) -0.0542(4) 0.60721(17)
C22 C 0.4857(3) -0.0316(4) 0.58879(18)
C23 C 0.4374(3) 0.0452(4) 0.60515(18)
C24 C 0.4682(3) 0.0970(4) 0.63914(18)
C25 C 0.5454(3) 0.0725(4) 0.65786(17)
C26 C 0.5920(3) -0.0062(4) 0.64269(16)
C27 C 0.4510(4) -0.0897(5) 0.5532(2)
H21 H 0.4879 -0.0825 0.5299
H22 H 0.3943 -0.0665 0.5456
H23 H 0.4481 -0.1581 0.5610
C28 C 0.3519(4) 0.0670(4) 0.58668(19)
C29 C 0.2807(4) 0.0395(5) 0.6062(2)
H24 H 0.2856 0.0025 0.6306
C30 C 0.2011(4) 0.0651(5) 0.5908(2)
H25 H 0.1523 0.0462 0.6049
C31 C 0.1927(4) 0.1172(4) 0.55540(18)
C32 C 0.2636(5) 0.1418(6) 0.5348(2)
H26 H 0.2589 0.1761 0.5097
C33 C 0.3413(4) 0.1166(6) 0.5507(3)
H27 H 0.3900 0.1343 0.5362
S1 S 0.09144(10) 0.14995(13) 0.53510(5)
C34 C 0.0634(5) 0.2472(6) 0.5679(2)
H28 H 0.0662 0.2252 0.5964
H29 H 0.0060 0.2687 0.5609
H30 H 0.1028 0.3010 0.5645
C35 C 0.4157(4) 0.1788(5) 0.6555(2)
H31 H 0.3614 0.1812 0.6405
H32 H 0.4456 0.2401 0.6520
H33 H 0.4061 0.1681 0.6846
C36 C 0.6694(3) -0.0403(4) 0.66566(18)
H34 H 0.6772 -0.1096 0.6609
H35 H 0.6631 -0.0285 0.6950
H36 H 0.7187 -0.0049 0.6561
C37 C 0.5754(4) 0.1268(4) 0.69667(18)
H37 H 0.5387 0.1841 0.6997
H38 H 0.5658 0.0842 0.7204
C38 C 0.6657(4) 0.1609(4) 0.69955(18)
C39 C 0.7194(4) 0.1371(4) 0.73311(16)
C40 C 0.8019(4) 0.1722(4) 0.73520(17)
C41 C 0.8323(4) 0.2353(5) 0.70578(18)
C42 C 0.7811(4) 0.2579(4) 0.67112(18)
C43 C 0.6981(3) 0.2231(4) 0.66871(18)
C44 C 0.6877(5) 0.0750(5) 0.7672(2)
H39 H 0.6890 0.0069 0.7589
H40 H 0.6296 0.0934 0.7731
H41 H 0.7237 0.0841 0.7917
C45 C 0.8610(4) 0.1380(5) 0.76874(17)
H42 H 0.8505 0.0684 0.7737
H43 H 0.9197 0.1447 0.7596
N3 N 0.8526(3) 0.1906(4) 0.80714(14)
N4 N 0.8940(3) 0.1596(3) 0.84172(13)
C46 C 0.8678(4) 0.2177(5) 0.87108(18)
H44 H 0.8856 0.2129 0.8990
C47 C 0.8119(5) 0.2856(6) 0.8561(2)
H45 H 0.7850 0.3354 0.8709
C48 C 0.8032(5) 0.2660(6) 0.8151(2)
H46 H 0.7684 0.2999 0.7958
C49 C 0.9174(4) 0.2818(6) 0.7125(2)
H47 H 0.9360 0.2735 0.7411
H48 H 0.9134 0.3509 0.7061
H49 H 0.9582 0.2512 0.6946
C50 C 0.6393(4) 0.2557(5) 0.6343(2)
H50 H 0.6582 0.3183 0.6240
H51 H 0.5820 0.2620 0.6445
H52 H 0.6396 0.2078 0.6122
C51 C 0.8142(4) 0.3204(4) 0.63749(18)
H53 H 0.8743 0.3341 0.6441
H54 H 0.7839 0.3829 0.6383
C52 C 0.8084(4) 0.2835(4) 0.59383(19)
C53 C 0.7769(4) 0.3425(4) 0.5620(2)
C54 C 0.7752(4) 0.3074(4) 0.5212(2)
C55 C 0.8004(3) 0.2132(4) 0.51241(17)
C56 C 0.8311(3) 0.1545(4) 0.54436(17)
C57 C 0.8378(3) 0.1905(4) 0.58449(17)
C58 C 0.7489(6) 0.4461(5) 0.5706(3)
H55 H 0.6969 0.4449 0.5861
H56 H 0.7385 0.4802 0.5447
H57 H 0.7932 0.4796 0.5866
S2 S 0.6367(2) 0.5261(2) 0.37052(8)
C59 C 0.7135(6) 0.6071(6) 0.3612(3)
H58 H 0.7372 0.6315 0.3872
H59 H 0.6898 0.6611 0.3452
H60 H 0.7581 0.5758 0.3458
C60 C 0.7965(4) 0.1776(5) 0.46936(19)
H61 H 0.7690 0.2263 0.4518
H62 H 0.7642 0.1173 0.4679
H63 H 0.8539 0.1659 0.4601
C61 C 0.8822(4) 0.1292(4) 0.61747(18)
H64 H 0.8410 0.0866 0.6301
H65 H 0.9078 0.1716 0.6384
H66 H 0.9262 0.0900 0.6051
C62 C 0.8604(3) 0.0519(4) 0.53474(17)
H67 H 0.8459 0.0389 0.5056
H68 H 0.9227 0.0509 0.5376
Co1A Co 0.98323(5) 0.05751(5) 0.84528(2)
N4A N 1.1060(3) -0.3404(3) 0.65828(13)
loop_
_geom_bond_atom_site_label_1
_geom_bond_atom_site_label_2
_geom_bond_site_symmetry_1
_geom_bond_site_symmetry_2
C1 C2 1_555 1_555
C2 H1 1_555 1_555
C3 C2 1_555 1_555
H2 C3 1_555 1_555
C4 C3 1_555 1_555
C5 C4 1_555 1_555
H3 C5 1_555 1_555
C6 C1 1_555 1_555
H4 C6 1_555 1_555
Co1 Cl1 1_555 1_555
Cl2 Co1 1_555 1_555
C7 C8 1_555 1_555
C8 C9 1_555 1_555
C9 C10 1_555 1_555
C10 C11 1_555 1_555
C11 C12 1_555 1_555
C12 C7 1_555 1_555
C13 C8 1_555 1_555
H5 C13 1_555 1_555
H6 C13 1_555 1_555
H7 C13 1_555 1_555
C14 C9 1_555 1_555
H8 C14 1_555 1_555
H9 C14 1_555 1_555
N1 C14 1_555 1_555
N2 Co1 1_555 1_555
C15 N2 1_555 1_555
H10 C15 1_555 1_555
C16 C15 1_555 1_555
H11 C16 1_555 1_555
C17 N1 1_555 1_555
H12 C17 1_555 1_555
C18 C10 1_555 1_555
H13 C18 1_555 1_555
H14 C18 1_555 1_555
H15 C18 1_555 1_555
C19 C12 1_555 1_555
H16 C19 1_555 1_555
H17 C19 1_555 1_555
H18 C19 1_555 1_555
C20 C11 1_555 1_555
H19 C20 1_555 1_555
H20 C20 1_555 1_555
C21 C20 1_555 1_555
C22 C21 1_555 1_555
C23 C22 1_555 1_555
C24 C23 1_555 1_555
C25 C24 1_555 1_555
C26 C21 1_555 1_555
C27 C22 1_555 1_555
H21 C27 1_555 1_555
H22 C27 1_555 1_555
H23 C27 1_555 1_555
C28 C23 1_555 1_555
C29 C28 1_555 1_555
H24 C29 1_555 1_555
C30 C29 1_555 1_555
H25 C30 1_555 1_555
C31 C30 1_555 1_555
C32 C31 1_555 1_555
H26 C32 1_555 1_555
C33 C28 1_555 1_555
H27 C33 1_555 1_555
S1 C31 1_555 1_555
C34 S1 1_555 1_555
H28 C34 1_555 1_555
H29 C34 1_555 1_555
H30 C34 1_555 1_555
C35 C24 1_555 1_555
H31 C35 1_555 1_555
H32 C35 1_555 1_555
H33 C35 1_555 1_555
C36 C26 1_555 1_555
H34 C36 1_555 1_555
H35 C36 1_555 1_555
H36 C36 1_555 1_555
C37 C25 1_555 1_555
H37 C37 1_555 1_555
H38 C37 1_555 1_555
C38 C37 1_555 1_555
C39 C38 1_555 1_555
C40 C39 1_555 1_555
C41 C40 1_555 1_555
C42 C41 1_555 1_555
C43 C38 1_555 1_555
C44 C39 1_555 1_555
H39 C44 1_555 1_555
H40 C44 1_555 1_555
H41 C44 1_555 1_555
C45 C40 1_555 1_555
H42 C45 1_555 1_555
H43 C45 1_555 1_555
N3 C45 1_555 1_555
N4 N3 1_555 1_555
C46 N4 1_555 1_555
H44 C46 1_555 1_555
C47 C46 1_555 1_555
H45 C47 1_555 1_555
C48 N3 1_555 1_555
H46 C48 1_555 1_555
C49 C41 1_555 1_555
H47 C49 1_555 1_555
H48 C49 1_555 1_555
H49 C49 1_555 1_555
C50 C43 1_555 1_555
H50 C50 1_555 1_555
H51 C50 1_555 1_555
H52 C50 1_555 1_555
C51 C42 1_555 1_555
H53 C51 1_555 1_555
H54 C51 1_555 1_555
C52 C51 1_555 1_555
C53 C52 1_555 1_555
C54 C1 1_555 1_555
C55 C54 1_555 1_555
C56 C55 1_555 1_555
C57 C52 1_555 1_555
C58 C53 1_555 1_555
H55 C58 1_555 1_555
H56 C58 1_555 1_555
H57 C58 1_555 1_555
S2 C4 1_555 1_555
C59 S2 1_555 1_555
H58 C59 1_555 1_555
H59 C59 1_555 1_555
H60 C59 1_555 1_555
C60 C55 1_555 1_555
H61 C60 1_555 1_555
H62 C60 1_555 1_555
H63 C60 1_555 1_555
C61 C57 1_555 1_555
H64 C61 1_555 1_555
H65 C61 1_555 1_555
H66 C61 1_555 1_555
C62 C7 1_555 1_555
H67 C62 1_555 1_555
H68 C62 1_555 1_555
Co1A N4 1_555 1_555
N4A Co1 1_555 1_555
C5 C6 1_555 1_555
N1 N2 1_555 1_555
C16 C17 1_555 1_555
C25 C26 1_555 1_555
C32 C33 1_555 1_555
C42 C43 1_555 1_555
C47 C48 1_555 1_555
C53 C54 1_555 1_555
C56 C57 1_555 1_555
C56 C62 1_555 1_555

#END
