
#######################################################################
#
#                 Cambridge Crystallographic Data Centre
#                                CCDC 
#
#######################################################################
#
# If this CIF has been generated from an entry in the Cambridge 
# Structural Database, then it will include bibliographic, chemical, 
# crystal, experimental, refinement or atomic coordinate data resulting 
# from the CCDC's data processing and validation procedures.
#
#######################################################################

data_PURVAB
_symmetry_cell_setting           monoclinic
_symmetry_space_group_name_H-M   'C 2/c'
_symmetry_Int_Tables_number      15
_space_group_name_Hall           '-C 2yn'
loop_
_symmetry_equiv_pos_site_id
_symmetry_equiv_pos_as_xyz
1 x,y,z
2 -x,y,1/2-z
3 1/2+x,1/2+y,z
4 1/2-x,1/2+y,1/2-z
5 -x,-y,-z
6 x,-y,1/2+z
7 1/2-x,1/2-y,-z
8 1/2+x,1/2-y,1/2+z
_cell_length_a                   25.238(4)
_cell_length_b                   11.0839(19)
_cell_length_c                   23.897(4)
_cell_angle_alpha                90
_cell_angle_beta                 119.300(3)
_cell_angle_gamma                90
_cell_volume                     5829.64
loop_
_atom_site_label
_atom_site_type_symbol
_atom_site_fract_x
_atom_site_fract_y
_atom_site_fract_z
Zn1 Zn 0.21479(2) 0.09095(4) 0.320561(19)
O1 O 0.19671(12) 0.2289(2) 0.25661(11)
O2 O 0.24592(12) -0.0027(2) 0.40914(12)
O3 O 0.33703(16) 0.2109(3) 0.57020(13)
H1 H 0.3447 0.2487 0.6028
O4 O 0.13814(17) 0.1425(3) 0.32482(17)
O5 O 0.1158(2) -0.0400(5) 0.2981(2)
O6 O 0.05881(19) 0.0696(5) 0.3203(2)
N1 N 0.22826(13) 0.3820(3) 0.21497(13)
N2 N 0.27602(13) 0.4638(3) 0.23514(13)
N3 N 0.28542(14) 0.2011(3) 0.38792(12)
N4 N 0.30391(14) 0.1620(3) 0.45008(13)
H2 H 0.3292 0.2033 0.4828
N5 N 0.1048(2) 0.0610(6) 0.31527(19)
C1 C 0.13956(18) 0.4818(4) 0.13097(19)
H3 H 0.1459 0.5459 0.1586
C2 C 0.0909(2) 0.4837(5) 0.0681(2)
H4 H 0.0652 0.5503 0.0531
C3 C 0.0815(2) 0.3863(5) 0.0289(2)
H5 H 0.0494 0.3872 -0.0131
C4 C 0.1188(2) 0.2881(5) 0.0509(2)
H6 H 0.1110 0.2214 0.0244
C5 C 0.16757(19) 0.2869(4) 0.11178(18)
H7 H 0.1935 0.2207 0.1262
C6 C 0.17773(16) 0.3845(3) 0.15122(16)
C7 C 0.23562(17) 0.3088(4) 0.26385(16)
C8 C 0.29023(16) 0.3455(3) 0.31840(16)
C9 C 0.31339(17) 0.4403(3) 0.29729(16)
C10 C 0.37196(18) 0.5065(4) 0.33262(18)
H8 H 0.3744 0.5669 0.3051
H9 H 0.4051 0.4509 0.3457
H10 H 0.3742 0.5445 0.3698
C11 C 0.31191(16) 0.2978(3) 0.38203(16)
C12 C 0.35992(17) 0.3605(4) 0.44003(16)
C13 C 0.3430(2) 0.4425(4) 0.47104(19)
H11 H 0.3023 0.4628 0.4543
C14 C 0.3867(3) 0.4956(4) 0.5275(2)
H12 H 0.3752 0.5503 0.5492
C15 C 0.4458(3) 0.4676(5) 0.5510(2)
H13 H 0.4750 0.5045 0.5883
C16 C 0.4633(2) 0.3857(5) 0.5205(2)
H14 H 0.5041 0.3660 0.5375
C17 C 0.42058(19) 0.3325(4) 0.4647(2)
H15 H 0.4325 0.2776 0.4435
C18 C 0.28105(18) 0.0583(4) 0.45724(18)
C19 C 0.29844(17) 0.0193(4) 0.52316(17)
C20 C 0.32395(19) 0.0933(4) 0.57686(18)
C21 C 0.3341(2) 0.0504(4) 0.63594(18)
H16 H 0.3496 0.1020 0.6711
C22 C 0.32132(19) -0.0686(4) 0.64303(18)
C23 C 0.3323(2) -0.1144(5) 0.7077(2)
H17 H 0.3497 -0.0511 0.7389
H18 H 0.3598 -0.1817 0.7206
H19 H 0.2945 -0.1395 0.7043
C24 C 0.2967(2) -0.1427(4) 0.58968(19)
H20 H 0.2879 -0.2227 0.5935
C25 C 0.28529(19) -0.0993(4) 0.53148(18)
H21 H 0.2681 -0.1505 0.4961
Zn1C Zn 0.28521(2) 0.59095(4) 0.179439(19)
N2C N 0.22398(13) -0.0362(3) 0.26486(13)
loop_
_geom_bond_atom_site_label_1
_geom_bond_atom_site_label_2
_geom_bond_site_symmetry_1
_geom_bond_site_symmetry_2
Zn1 O1 1_555 1_555
O1 C7 1_555 1_555
O2 Zn1 1_555 1_555
O3 H1 1_555 1_555
O4 Zn1 1_555 1_555
O5 N5 1_555 1_555
O6 N5 1_555 1_555
N1 N2 1_555 1_555
N2 C9 1_555 1_555
N3 Zn1 1_555 1_555
N4 N3 1_555 1_555
H2 N4 1_555 1_555
N5 O4 1_555 1_555
C1 H3 1_555 1_555
C2 C1 1_555 1_555
H4 C2 1_555 1_555
C3 C2 1_555 1_555
H5 C3 1_555 1_555
C4 C3 1_555 1_555
H6 C4 1_555 1_555
C5 C4 1_555 1_555
H7 C5 1_555 1_555
C6 N1 1_555 1_555
C7 N1 1_555 1_555
C8 C7 1_555 1_555
C9 C8 1_555 1_555
C10 C9 1_555 1_555
H8 C10 1_555 1_555
H9 C10 1_555 1_555
H10 C10 1_555 1_555
C11 N3 1_555 1_555
C12 C11 1_555 1_555
C13 C12 1_555 1_555
H11 C13 1_555 1_555
C14 C13 1_555 1_555
H12 C14 1_555 1_555
C15 C14 1_555 1_555
H13 C15 1_555 1_555
C16 C15 1_555 1_555
H14 C16 1_555 1_555
C17 C12 1_555 1_555
H15 C17 1_555 1_555
C18 O2 1_555 1_555
C19 C18 1_555 1_555
C20 O3 1_555 1_555
C21 C20 1_555 1_555
H16 C21 1_555 1_555
C22 C21 1_555 1_555
C23 C22 1_555 1_555
H17 C23 1_555 1_555
H18 C23 1_555 1_555
H19 C23 1_555 1_555
C24 C22 1_555 1_555
H20 C24 1_555 1_555
C25 C19 1_555 1_555
H21 C25 1_555 1_555
Zn1C N2 1_555 1_555
N2C Zn1 1_555 1_555
N4 C18 1_555 1_555
C1 C6 1_555 1_555
C5 C6 1_555 1_555
C8 C11 1_555 1_555
C16 C17 1_555 1_555
C19 C20 1_555 1_555
C24 C25 1_555 1_555

#END
