
#######################################################################
#
#                 Cambridge Crystallographic Data Centre
#                                CCDC 
#
#######################################################################
#
# If this CIF has been generated from an entry in the Cambridge 
# Structural Database, then it will include bibliographic, chemical, 
# crystal, experimental, refinement or atomic coordinate data resulting 
# from the CCDC's data processing and validation procedures.
#
#######################################################################

data_PURVON
_symmetry_cell_setting           monoclinic
_symmetry_space_group_name_H-M   'C 2/c'
_symmetry_Int_Tables_number      15
_space_group_name_Hall           '-C 2yn'
loop_
_symmetry_equiv_pos_site_id
_symmetry_equiv_pos_as_xyz
1 x,y,z
2 -x,y,1/2-z
3 1/2+x,1/2+y,z
4 1/2-x,1/2+y,1/2-z
5 -x,-y,-z
6 x,-y,1/2+z
7 1/2-x,1/2-y,-z
8 1/2+x,1/2-y,1/2+z
_cell_length_a                   18.117(3)
_cell_length_b                   9.9315(12)
_cell_length_c                   18.113(3)
_cell_angle_alpha                90
_cell_angle_beta                 90.704(11)
_cell_angle_gamma                90
_cell_volume                     3258.81
loop_
_atom_site_label
_atom_site_type_symbol
_atom_site_fract_x
_atom_site_fract_y
_atom_site_fract_z
S1 S -0.0970(1) 0.6256(1) 0.3062(1)
C1 C -0.1389(2) 0.5301(4) 0.2421(2)
C2 C -0.1136(3) 0.5150(5) 0.1637(2)
C3 C -0.1643(3) 0.4147(7) 0.1286(3)
C4 C -0.2243(3) 0.3899(5) 0.1828(3)
N1 N -0.1991(2) 0.4582(3) 0.2506(2)
C5 C -0.2408(2) 0.4466(5) 0.3177(3)
C6 C -0.2271(2) 0.3124(5) 0.3572(2)
N2 N -0.1509(2) 0.3006(3) 0.3841(2)
C7 C -0.1283(3) 0.3648(5) 0.4538(2)
C8 C -0.0450(3) 0.3424(6) 0.4565(3)
C9 C -0.0299(3) 0.2358(5) 0.3993(3)
C10 C -0.0990(2) 0.2279(4) 0.3530(2)
S2 S -0.1085(1) 0.1361(1) 0.2761(1)
H1 H -0.1165(3) 0.6005(5) 0.1380(20)
H2 H -0.0630(3) 0.4831(5) 0.1626(2)
H3 H -0.1381(3) 0.3319(7) 0.1181(3)
H4 H -0.1847(3) 0.4500(7) 0.0828(3)
H5 H -0.2707(3) 0.4273(5) 0.1653(3)
H6 H -0.2307(3) 0.2942(5) 0.1914(3)
H7 H -0.2930(2) 0.4548(5) 0.3059(3)
H8 H -0.2275(2) 0.5199(5) 0.3506(3)
H9 H -0.2604(2) 0.3049(5) 0.3986(2)
H10 H -0.2378(2) 0.2389(5) 0.3235(2)
H11 H -0.1521(3) 0.3226(5) 0.4955(2)
H12 H -0.1401(3) 0.4601(5) 0.4535(2)
H13 H -0.0189(3) 0.4249(6) 0.4450(3)
H14 H -0.0293(3) 0.3120(6) 0.5052(3)
H15 H 0.0119(3) 0.2609(5) 0.3694(3)
H16 H -0.0196(3) 0.1499(5) 0.4227(3)
Cu1 Cu 0.0000 0.0274(1) 0.2500
Br1 Br 0.0503(1) -0.1184(1) 0.3563(1)
Cu2 Cu 0.0000 0.7353(1) 0.2500
S1A S 0.0970(1) 0.6256(1) 0.1938(1)
C1A C 0.1389(2) 0.5301(4) 0.2579(2)
C2A C 0.1136(3) 0.5150(5) 0.3363(2)
C3A C 0.1643(3) 0.4147(7) 0.3714(3)
C4A C 0.2243(3) 0.3899(5) 0.3172(3)
N1A N 0.1991(2) 0.4582(3) 0.2494(2)
C5A C 0.2408(2) 0.4466(5) 0.1823(3)
C6A C 0.2271(2) 0.3124(5) 0.1428(2)
N2A N 0.1509(2) 0.3006(3) 0.1159(2)
C7A C 0.1283(3) 0.3648(5) 0.0462(2)
C8A C 0.0450(3) 0.3424(6) 0.0435(3)
C9A C 0.0299(3) 0.2358(5) 0.1007(3)
C10A C 0.0990(2) 0.2279(4) 0.1470(2)
S2A S 0.1085(1) 0.1361(1) 0.2239(1)
H1A H 0.1165(3) 0.6005(5) 0.3620(20)
H2A H 0.0630(3) 0.4831(5) 0.3374(2)
H3A H 0.1381(3) 0.3319(7) 0.3819(3)
H4A H 0.1847(3) 0.4500(7) 0.4172(3)
H5A H 0.2707(3) 0.4273(5) 0.3347(3)
H6A H 0.2307(3) 0.2942(5) 0.3086(3)
H7A H 0.2930(2) 0.4548(5) 0.1941(3)
H8A H 0.2275(2) 0.5199(5) 0.1494(3)
H9A H 0.2604(2) 0.3049(5) 0.1014(2)
H10A H 0.2378(2) 0.2389(5) 0.1765(2)
H11A H 0.1521(3) 0.3226(5) 0.0045(2)
H12A H 0.1401(3) 0.4601(5) 0.0465(2)
H13A H 0.0189(3) 0.4249(6) 0.0550(3)
H14A H 0.0293(3) 0.3120(6) -0.0052(3)
H15A H -0.0119(3) 0.2609(5) 0.1306(3)
H16A H 0.0196(3) 0.1499(5) 0.0773(3)
Br1A Br -0.0503(1) -0.1184(1) 0.1437(1)
Cu2_2 Cu 0.0000 -0.2647(1) 0.2500
Br1_2 Br 0.0503(1) 0.8816(1) 0.3563(1)
Br1A_2 Br -0.0503(1) 0.8816(1) 0.1437(1)
C11 C -0.3843(4) 0.3770(7) 0.0374(4)
N3 N -0.3220(3) 0.4401(5) 0.0030(2)
O1 O -0.3066(3) 0.5530(5) 0.0186(3)
O2 O -0.2861(3) 0.3746(5) -0.0390(3)
H17 H -0.3895(4) 0.2866(7) 0.0193(4)
H18 H -0.4283(4) 0.4272(7) 0.0259(4)
H19 H -0.3767(4) 0.3752(7) 0.0899(4)
loop_
_geom_bond_atom_site_label_1
_geom_bond_atom_site_label_2
_geom_bond_site_symmetry_1
_geom_bond_site_symmetry_2
S1 C1 1_555 1_555
C1 C2 1_555 1_555
C2 C3 1_555 1_555
C3 C4 1_555 1_555
C4 N1 1_555 1_555
N1 C1 1_555 1_555
C5 N1 1_555 1_555
C6 C5 1_555 1_555
N2 C6 1_555 1_555
C7 N2 1_555 1_555
C8 C7 1_555 1_555
C9 C8 1_555 1_555
C10 N2 1_555 1_555
S2 C10 1_555 1_555
C11 N3 1_555 1_555
N3 O1 1_555 1_555
O2 N3 1_555 1_555
H1 C2 1_555 1_555
H2 C2 1_555 1_555
H3 C3 1_555 1_555
H4 C3 1_555 1_555
H5 C4 1_555 1_555
H6 C4 1_555 1_555
H7 C5 1_555 1_555
H8 C5 1_555 1_555
H9 C6 1_555 1_555
H10 C6 1_555 1_555
H11 C7 1_555 1_555
H12 C7 1_555 1_555
H13 C8 1_555 1_555
H14 C8 1_555 1_555
H15 C9 1_555 1_555
H16 C9 1_555 1_555
H17 C11 1_555 1_555
H18 C11 1_555 1_555
H19 C11 1_555 1_555
Cu1 S2 1_555 1_555
Br1 Cu1 1_555 1_555
Cu2 S1 1_555 1_555
S1A Cu2 1_555 1_555
C1A S1A 1_555 1_555
C2A C1A 1_555 1_555
C3A C2A 1_555 1_555
C4A C3A 1_555 1_555
N1A C1A 1_555 1_555
C5A N1A 1_555 1_555
C6A C5A 1_555 1_555
N2A C6A 1_555 1_555
C7A N2A 1_555 1_555
C8A C7A 1_555 1_555
C9A C8A 1_555 1_555
C10A N2A 1_555 1_555
S2A Cu1 1_555 1_555
H1A C2A 1_555 1_555
H2A C2A 1_555 1_555
H3A C3A 1_555 1_555
H4A C3A 1_555 1_555
H5A C4A 1_555 1_555
H6A C4A 1_555 1_555
H7A C5A 1_555 1_555
H8A C5A 1_555 1_555
H9A C6A 1_555 1_555
H10A C6A 1_555 1_555
H11A C7A 1_555 1_555
H12A C7A 1_555 1_555
H13A C8A 1_555 1_555
H14A C8A 1_555 1_555
H15A C9A 1_555 1_555
H16A C9A 1_555 1_555
Br1A Cu1 1_555 1_555
Cu2_2 Br1 1_555 1_555
Br1_2 Cu2 1_555 1_555
Br1A_2 Cu2 1_555 1_555
C9 C10 1_555 1_555
C4A N1A 1_555 1_555
C9A C10A 1_555 1_555
C10A S2A 1_555 1_555
Br1A Cu2_2 1_555 1_555

#END
