
#######################################################################
#
#                 Cambridge Crystallographic Data Centre
#                                CCDC 
#
#######################################################################
#
# If this CIF has been generated from an entry in the Cambridge 
# Structural Database, then it will include bibliographic, chemical, 
# crystal, experimental, refinement or atomic coordinate data resulting 
# from the CCDC's data processing and validation procedures.
#
#######################################################################

data_PURVAZ
_symmetry_cell_setting           orthorhombic
_symmetry_space_group_name_H-M   'P n a 21'
_symmetry_Int_Tables_number      33
_space_group_name_Hall           'P 2c -2n'
loop_
_symmetry_equiv_pos_site_id
_symmetry_equiv_pos_as_xyz
1 x,y,z
2 -x,-y,1/2+z
3 1/2-x,1/2+y,1/2+z
4 1/2+x,1/2-y,z
_cell_length_a                   10.339(4)
_cell_length_b                   10.074(5)
_cell_length_c                   16.832(7)
_cell_angle_alpha                90
_cell_angle_beta                 90
_cell_angle_gamma                90
_cell_volume                     1753.14
loop_
_atom_site_label
_atom_site_type_symbol
_atom_site_fract_x
_atom_site_fract_y
_atom_site_fract_z
Co1 Co 0.7162(1) 0.0152(1) 0.9802(2)
N1 N 0.8095(11) -0.0499(14) 0.8863(7)
C1 C 0.8706(11) -0.1081(11) 0.8401(7)
S1 S 0.9492(3) -0.1906(4) 0.7743(2)
N2 N 0.8010(1) -0.0523(11) 1.0724(6)
C2 C 0.8585(10) -0.1104(9) 1.1199(6)
S2 S 0.9452(3) -0.1902(3) 1.1846(2)
S3 S 0.6851(3) 0.2426(2) 0.9686(3)
S4 S 0.5111(2) -0.0774(2) 0.9826(2)
C3 C 0.7383(9) 0.3317(9) 1.0454(6)
C4 C 0.8162(12) 0.2784(9) 1.1135(6)
C5 C 0.8547(11) 0.4040(12) 1.1621(8)
C6 C 0.7546(11) 0.5032(10) 1.1325(7)
N3 N 0.7127(7) 0.4562(8) 1.0561(5)
C7 C 0.6373(9) 0.5386(10) 1.0027(6)
C8 C 0.9233(8) 0.5202(8) 0.9082(6)
C9 C 0.9723(9) 0.4370(12) 0.8408(6)
C10 C 0.8523(14) 0.4008(17) 0.7940(8)
C11 C 0.7519(13) 0.5005(13) 0.8232(6)
N4 N 0.8010(7) 0.5470(7) 0.8978(5)
C12 C 0.7200(8) 0.6254(7) 0.9509(7)
H1 H 0.8924(12) 0.2320(9) 1.0945(6)
H2 H 0.7651(12) 0.2180(9) 1.1145(6)
H3 H 0.8470(11) 0.3889(12) 1.2188(8)
H4 H 0.9420(11) 0.4326(12) 1.1498(8)
H5 H 0.6821(11) 0.5077(10) 1.1690(7)
H6 H 0.7926(11) 0.5909(10) 1.1279(7)
H7 H 0.5797(9) 0.5941(10) 1.0337(6)
H8 H 0.5845(9) 0.4820(10) 0.9692(6)
H9 H 1.0325(9) 0.4869(12) 0.8082(6)
H10 H 1.0154(9) 0.3580(12) 0.8605(6)
H11 H 0.8670(14) 0.4100(17) 0.7374(8)
H12 H 0.8254(14) 0.3105(17) 0.8053(8)
H13 H 0.6684(13) 0.4583(13) 0.8300(6)
H14 H 0.7429(13) 0.5733(13) 0.7858(6)
H15 H 0.7746(8) 0.6807(7) 0.9841(7)
H16 H 0.6650(8) 0.6833(7) 0.9197(7)
S4C S 1.0111(2) 0.5774(2) 0.9826(2)
Co1C Co 1.2162(1) 0.4848(1) 0.9802(2)
loop_
_geom_bond_atom_site_label_1
_geom_bond_atom_site_label_2
_geom_bond_site_symmetry_1
_geom_bond_site_symmetry_2
Co1 N1 1_555 1_555
N1 C1 1_555 1_555
C1 S1 1_555 1_555
N2 Co1 1_555 1_555
C2 N2 1_555 1_555
S2 C2 1_555 1_555
S3 Co1 1_555 1_555
S4 Co1 1_555 1_555
C3 S3 1_555 1_555
C4 C3 1_555 1_555
C5 C4 1_555 1_555
C6 C5 1_555 1_555
N3 C3 1_555 1_555
C7 N3 1_555 1_555
C8 C9 1_555 1_555
C9 C10 1_555 1_555
C10 C11 1_555 1_555
C11 N4 1_555 1_555
N4 C8 1_555 1_555
C12 C7 1_555 1_555
H1 C4 1_555 1_555
H2 C4 1_555 1_555
H3 C5 1_555 1_555
H4 C5 1_555 1_555
H5 C6 1_555 1_555
H6 C6 1_555 1_555
H7 C7 1_555 1_555
H8 C7 1_555 1_555
H9 C9 1_555 1_555
H10 C9 1_555 1_555
H11 C10 1_555 1_555
H12 C10 1_555 1_555
H13 C11 1_555 1_555
H14 C11 1_555 1_555
H15 C12 1_555 1_555
H16 C12 1_555 1_555
S4C C8 1_555 1_555
Co1C S4C 1_555 1_555
C6 N3 1_555 1_555
N4 C12 1_555 1_555

#END
