
#######################################################################
#
#                 Cambridge Crystallographic Data Centre
#                                CCDC 
#
#######################################################################
#
# If this CIF has been generated from an entry in the Cambridge 
# Structural Database, then it will include bibliographic, chemical, 
# crystal, experimental, refinement or atomic coordinate data resulting 
# from the CCDC's data processing and validation procedures.
#
#######################################################################

data_PURWUV
_symmetry_cell_setting           monoclinic
_symmetry_space_group_name_H-M   'P 21/n'
_symmetry_Int_Tables_number      14
_space_group_name_Hall           '-P 2yn'
loop_
_symmetry_equiv_pos_site_id
_symmetry_equiv_pos_as_xyz
1 x,y,z
2 1/2-x,1/2+y,1/2-z
3 -x,-y,-z
4 1/2+x,1/2-y,1/2+z
_cell_length_a                   13.0585(9)
_cell_length_b                   26.0298(18)
_cell_length_c                   16.2349(11)
_cell_angle_alpha                90
_cell_angle_beta                 101.517(2)
_cell_angle_gamma                90
_cell_volume                     5407.3
loop_
_atom_site_label
_atom_site_type_symbol
_atom_site_fract_x
_atom_site_fract_y
_atom_site_fract_z
Co1 Co 0.77073(6) 0.23259(3) 0.82863(5)
Cl1 Cl 0.74134(13) 0.25793(6) 0.95300(9)
Cl2 Cl 0.92935(13) 0.20732(7) 0.81468(11)
C1 C 0.5976(4) 0.11731(19) 0.1642(3)
C2 C 0.5219(4) 0.0904(2) 0.1085(3)
C3 C 0.4356(4) 0.0739(2) 0.1390(3)
Br1 Br 0.32920(5) 0.03602(3) 0.06270(4)
C4 C 0.4189(4) 0.0816(2) 0.2185(4)
C5 C 0.4929(4) 0.1116(2) 0.2723(3)
C6 C 0.5810(4) 0.13023(18) 0.2454(3)
C7 C 0.5331(5) 0.0788(3) 0.0196(4)
H1 H 0.6063 0.0710 0.0189
H2 H 0.5108 0.1088 -0.0161
H3 H 0.4894 0.0492 -0.0017
C8 C 0.3212(4) 0.0600(3) 0.2439(4)
H4 H 0.3199 0.0704 0.3018
H5 H 0.3219 0.0224 0.2404
H6 H 0.2589 0.0734 0.2060
C9 C 0.6554(5) 0.1657(2) 0.3010(4)
H7 H 0.6162 0.1881 0.3321
H8 H 0.6927 0.1867 0.2664
H9 H 0.7058 0.1454 0.3409
C10 C 0.4755(4) 0.1275(2) 0.3595(3)
H10 H 0.4689 0.1654 0.3599
H11 H 0.4075 0.1131 0.3663
C11 C 0.5561(4) 0.1123(2) 0.4359(3)
C12 C 0.5832(4) 0.1484(2) 0.5018(3)
C13 C 0.6590(4) 0.1351(2) 0.5724(3)
C14 C 0.7079(4) 0.0881(2) 0.5788(3)
C15 C 0.6798(4) 0.05116(19) 0.5161(3)
C16 C 0.6008(4) 0.06322(19) 0.4451(3)
C17 C 0.5293(5) 0.2000(2) 0.4981(4)
H12 H 0.5724 0.2260 0.4777
H13 H 0.5196 0.2094 0.5545
H14 H 0.4612 0.1979 0.4599
C18 C 0.6856(5) 0.1739(2) 0.6463(3)
H15 H 0.7622 0.1772 0.6647
H16 H 0.6563 0.2082 0.6284
N1 N 0.6381(4) 0.15362(18) 0.7167(3)
N2 N 0.6663(4) 0.17545(17) 0.7927(3)
C19 C 0.5666(6) 0.1180(3) 0.7185(4)
H17 H 0.5337 0.0981 0.6716
C20 C 0.5476(7) 0.1140(3) 0.7961(4)
H18 H 0.5007 0.0911 0.8153
C21 C 0.6124(6) 0.1515(3) 0.8432(4)
H19 H 0.6169 0.1585 0.9012
C22 C 0.7922(5) 0.0762(2) 0.6559(4)
H20 H 0.7670 0.0494 0.6895
H21 H 0.8084 0.1073 0.6899
H22 H 0.8553 0.0641 0.6380
C23 C 0.5568(4) 0.0204(2) 0.3848(4)
H23 H 0.4843 0.0284 0.3585
H24 H 0.5589 -0.0120 0.4158
H25 H 0.5986 0.0172 0.3413
C24 C 0.7299(5) -0.0015(2) 0.5242(4)
H26 H 0.6775 -0.0259 0.5379
H27 H 0.7882 -0.0005 0.5736
C25 C 0.7728(4) -0.02490(19) 0.4514(3)
C26 C 0.7435(4) -0.07428(19) 0.4250(4)
C27 C 0.7852(5) -0.0948(2) 0.3604(4)
Br2 Br 0.74803(8) -0.16202(3) 0.32286(6)
C28 C 0.8538(5) -0.06782(19) 0.3164(4)
C29 C 0.8805(4) -0.01703(18) 0.3463(4)
C30 C 0.8431(4) 0.00306(18) 0.4133(3)
C31 C 0.6732(5) -0.1074(2) 0.4660(4)
H28 H 0.6654 -0.1412 0.4388
H29 H 0.6045 -0.0911 0.4599
H30 H 0.7041 -0.1115 0.5258
C32 C 0.8953(7) -0.0928(2) 0.2464(5)
H31 H 0.8384 -0.0969 0.1974
H32 H 0.9242 -0.1266 0.2648
H33 H 0.9502 -0.0712 0.2314
C33 C 0.8854(5) 0.0541(2) 0.4494(4)
H34 H 0.9588 0.0573 0.4447
H35 H 0.8801 0.0560 0.5087
H36 H 0.8448 0.0820 0.4181
C34 C 0.9576(5) 0.0140(2) 0.3065(4)
H37 H 1.0227 0.0178 0.3493
H38 H 0.9751 -0.0069 0.2602
C35 C 0.9257(4) 0.06709(18) 0.2714(3)
C36 C 0.9998(4) 0.10683(19) 0.2902(3)
C37 C 0.9739(4) 0.15548(18) 0.2556(3)
C38 C 0.8760(4) 0.16524(18) 0.2054(3)
C39 C 0.8018(4) 0.12626(18) 0.1889(3)
C40 C 0.8300(4) 0.07612(18) 0.2187(3)
C41 C 1.1055(4) 0.0972(2) 0.3441(4)
H39 H 1.0984 0.0916 0.4023
H40 H 1.1506 0.1271 0.3415
H41 H 1.1368 0.0668 0.3235
C42 C 1.0566(4) 0.1973(2) 0.2707(3)
H42 H 1.0224 0.2312 0.2597
H43 H 1.0929 0.1964 0.3304
N3 N 1.1336(3) 0.19123(15) 0.2171(3)
N4 N 1.2297(4) 0.21220(16) 0.2410(3)
C43 C 1.2799(5) 0.1998(2) 0.1800(4)
H44 H 1.3501 0.2090 0.1792
C44 C 1.2174(5) 0.1723(2) 0.1195(4)
H45 H 1.2347 0.1596 0.0691
C45 C 1.1248(5) 0.1663(2) 0.1446(4)
H46 H 1.0655 0.1478 0.1160
C46 C 0.8509(5) 0.2177(2) 0.1651(5)
H47 H 0.9106 0.2408 0.1827
H48 H 0.7893 0.2320 0.1828
H49 H 0.8366 0.2142 0.1037
C47 C 0.7570(5) 0.03121(19) 0.1872(4)
H50 H 0.7066 0.0268 0.2241
H51 H 0.7981 -0.0003 0.1875
H52 H 0.7194 0.0383 0.1298
C48 C 0.6963(4) 0.1380(2) 0.1361(3)
H53 H 0.6955 0.1247 0.0788
H54 H 0.6896 0.1758 0.1315
Co1C Co 1.27073(6) 0.26741(3) 0.32863(5)
N4C N 0.7297(4) 0.28780(16) 0.7410(3)
loop_
_geom_bond_atom_site_label_1
_geom_bond_atom_site_label_2
_geom_bond_site_symmetry_1
_geom_bond_site_symmetry_2
Co1 Cl1 1_555 1_555
Cl2 Co1 1_555 1_555
C1 C2 1_555 1_555
C2 C3 1_555 1_555
C3 Br1 1_555 1_555
C4 C3 1_555 1_555
C5 C4 1_555 1_555
C6 C1 1_555 1_555
C7 C2 1_555 1_555
H1 C7 1_555 1_555
H2 C7 1_555 1_555
H3 C7 1_555 1_555
C8 C4 1_555 1_555
H4 C8 1_555 1_555
H5 C8 1_555 1_555
H6 C8 1_555 1_555
C9 C6 1_555 1_555
H7 C9 1_555 1_555
H8 C9 1_555 1_555
H9 C9 1_555 1_555
C10 C5 1_555 1_555
H10 C10 1_555 1_555
H11 C10 1_555 1_555
C11 C10 1_555 1_555
C12 C11 1_555 1_555
C13 C12 1_555 1_555
C14 C13 1_555 1_555
C15 C14 1_555 1_555
C16 C11 1_555 1_555
C17 C12 1_555 1_555
H12 C17 1_555 1_555
H13 C17 1_555 1_555
H14 C17 1_555 1_555
C18 C13 1_555 1_555
H15 C18 1_555 1_555
H16 C18 1_555 1_555
N1 C18 1_555 1_555
N2 Co1 1_555 1_555
C19 N1 1_555 1_555
H17 C19 1_555 1_555
C20 C19 1_555 1_555
H18 C20 1_555 1_555
C21 N2 1_555 1_555
H19 C21 1_555 1_555
C22 C14 1_555 1_555
H20 C22 1_555 1_555
H21 C22 1_555 1_555
H22 C22 1_555 1_555
C23 C16 1_555 1_555
H23 C23 1_555 1_555
H24 C23 1_555 1_555
H25 C23 1_555 1_555
C24 C15 1_555 1_555
H26 C24 1_555 1_555
H27 C24 1_555 1_555
C25 C24 1_555 1_555
C26 C25 1_555 1_555
C27 C26 1_555 1_555
Br2 C27 1_555 1_555
C28 C27 1_555 1_555
C29 C28 1_555 1_555
C30 C25 1_555 1_555
C31 C26 1_555 1_555
H28 C31 1_555 1_555
H29 C31 1_555 1_555
H30 C31 1_555 1_555
C32 C28 1_555 1_555
H31 C32 1_555 1_555
H32 C32 1_555 1_555
H33 C32 1_555 1_555
C33 C30 1_555 1_555
H34 C33 1_555 1_555
H35 C33 1_555 1_555
H36 C33 1_555 1_555
C34 C29 1_555 1_555
H37 C34 1_555 1_555
H38 C34 1_555 1_555
C35 C34 1_555 1_555
C36 C35 1_555 1_555
C37 C36 1_555 1_555
C38 C37 1_555 1_555
C39 C38 1_555 1_555
C40 C35 1_555 1_555
C41 C36 1_555 1_555
H39 C41 1_555 1_555
H40 C41 1_555 1_555
H41 C41 1_555 1_555
C42 C37 1_555 1_555
H42 C42 1_555 1_555
H43 C42 1_555 1_555
N3 C42 1_555 1_555
N4 N3 1_555 1_555
C43 N4 1_555 1_555
H44 C43 1_555 1_555
C44 C43 1_555 1_555
H45 C44 1_555 1_555
C45 N3 1_555 1_555
H46 C45 1_555 1_555
C46 C38 1_555 1_555
H47 C46 1_555 1_555
H48 C46 1_555 1_555
H49 C46 1_555 1_555
C47 C40 1_555 1_555
H50 C47 1_555 1_555
H51 C47 1_555 1_555
H52 C47 1_555 1_555
C48 C1 1_555 1_555
H53 C48 1_555 1_555
H54 C48 1_555 1_555
Co1C N4 1_555 1_555
N4C Co1 1_555 1_555
C5 C6 1_555 1_555
C15 C16 1_555 1_555
N1 N2 1_555 1_555
C20 C21 1_555 1_555
C29 C30 1_555 1_555
C39 C40 1_555 1_555
C39 C48 1_555 1_555
C44 C45 1_555 1_555

#END
