
#######################################################################
#
#                 Cambridge Crystallographic Data Centre
#                                CCDC 
#
#######################################################################
#
# If this CIF has been generated from an entry in the Cambridge 
# Structural Database, then it will include bibliographic, chemical, 
# crystal, experimental, refinement or atomic coordinate data resulting 
# from the CCDC's data processing and validation procedures.
#
#######################################################################

data_PURWUW
_symmetry_cell_setting           monoclinic
_symmetry_space_group_name_H-M   'P 21/c'
_symmetry_Int_Tables_number      14
_space_group_name_Hall           '-P 2ybc'
loop_
_symmetry_equiv_pos_site_id
_symmetry_equiv_pos_as_xyz
1 x,y,z
2 -x,1/2+y,1/2-z
3 -x,-y,-z
4 x,1/2-y,1/2+z
_cell_length_a                   13.2294(13)
_cell_length_b                   13.0352(13)
_cell_length_c                   22.349(2)
_cell_angle_alpha                90
_cell_angle_beta                 105.585(2)
_cell_angle_gamma                90
_cell_volume                     3712.34
loop_
_atom_site_label
_atom_site_type_symbol
_atom_site_fract_x
_atom_site_fract_y
_atom_site_fract_z
Cu1 Cu 0.67837(5) 0.26685(5) 0.59659(3)
O1 O 0.6230(3) 0.2754(3) 0.48123(17)
H1 H 0.6550 0.2882 0.4538
H2 H 0.5598 0.2935 0.4650
N1 N 0.7551(3) 0.4010(3) 0.59703(19)
N2 N 0.9020(3) 0.6027(3) 0.75454(19)
H3 H 0.9640 0.5963 0.7454
H4 H 0.8846 0.5408 0.7666
N3 N 1.1906(3) 0.6891(3) 0.9072(2)
N4 N 0.5489(3) 0.3418(3) 0.60662(18)
N5 N 0.4027(3) 0.4113(3) 0.76081(19)
H5 H 0.3697 0.4703 0.7465
H6 H 0.4721 0.4222 0.7681
N6 N 0.4021(3) 0.6339(3) 0.90882(19)
C1 C 0.8145(4) 0.5627(4) 0.6441(2)
C2 C 0.7581(4) 0.4723(4) 0.6407(2)
H7 H 0.7207 0.4607 0.6699
C3 C 0.8078(4) 0.4201(4) 0.5545(2)
H8 H 0.8079 0.3707 0.5245
C4 C 0.8615(4) 0.5099(4) 0.5537(3)
H9 H 0.8944 0.5223 0.5225
C5 C 0.8661(4) 0.5816(4) 0.5996(3)
H10 H 0.9038 0.6421 0.6004
C6 C 0.8204(4) 0.6353(4) 0.6974(2)
H11 H 0.8368 0.7036 0.6856
H12 H 0.7527 0.6380 0.7063
C7 C 0.9141(4) 0.6772(4) 0.8071(2)
H13 H 0.9201 0.7462 0.7921
H14 H 0.8521 0.6746 0.8224
C8 C 1.0089(4) 0.6533(4) 0.8590(2)
C9 C 1.1017(4) 0.7032(4) 0.8623(3)
H15 H 1.1028 0.7502 0.8312
C10 C 1.1870(4) 0.6232(4) 0.9525(3)
H16 H 1.2473 0.6136 0.9848
C11 C 1.0982(5) 0.5689(4) 0.9533(3)
H17 H 1.0987 0.5229 0.9851
C12 C 1.0084(4) 0.5845(4) 0.9056(3)
H18 H 0.9475 0.5484 0.9051
C13 C 0.4103(4) 0.3579(4) 0.6570(2)
C14 C 0.5036(4) 0.3175(4) 0.6522(2)
H19 H 0.5378 0.2706 0.6821
C15 C 0.4990(4) 0.4099(4) 0.5646(2)
H20 H 0.5293 0.4295 0.5333
C16 C 0.4045(4) 0.4524(4) 0.5657(3)
H21 H 0.3711 0.4989 0.5352
C17 C 0.3599(4) 0.4259(4) 0.6120(3)
H22 H 0.2957 0.4538 0.6131
C18 C 0.3697(4) 0.3313(4) 0.7115(2)
H23 H 0.2937 0.3270 0.6983
H24 H 0.3969 0.2650 0.7279
C19 C 0.3792(4) 0.3846(4) 0.8209(2)
H25 H 0.4110 0.3192 0.8359
H26 H 0.3039 0.3786 0.8145
C20 C 0.4220(4) 0.4673(4) 0.8683(2)
C21 C 0.3639(4) 0.5551(4) 0.8705(2)
H27 H 0.2960 0.5597 0.8446
C22 C 0.4993(4) 0.6246(4) 0.9461(2)
H28 H 0.5268 0.6790 0.9724
C23 C 0.5606(4) 0.5395(4) 0.9477(3)
H29 H 0.6272 0.5358 0.9751
C24 C 0.5214(4) 0.4595(4) 0.9079(3)
H30 H 0.5616 0.4010 0.9079
O2 O 0.7352(3) 0.2588(3) 0.70956(16)
H31 H 0.7452 0.3092 0.7347
H32 H 0.7641 0.2079 0.7312
Cu1A Cu 0.32163(5) 0.76685(5) 0.90341(3)
Cu1A_2 Cu 1.32163(5) 0.76685(5) 0.90341(3)
N3A N 0.8094(3) 0.1891(3) 0.5928(2)
N6A N 0.5979(3) 0.1339(3) 0.59118(19)
S1 S 0.14641(11) 0.53713(11) 0.69437(7)
O3 O 0.1244(3) 0.5294(3) 0.62723(18)
O4 O 0.2570(3) 0.5691(3) 0.72041(18)
O5 O 0.1315(4) 0.4373(3) 0.7203(2)
O6 O 0.0798(3) 0.6166(3) 0.71157(19)
S2 S 0.70872(10) 0.46809(10) 0.81796(6)
O7 O 0.7530(3) 0.4672(5) 0.88478(8)
O8 O 0.6702(4) 0.5702(2) 0.7981(3)
O9 O 0.6229(3) 0.3953(3) 0.8010(2)
O10 O 0.7891(3) 0.4398(3) 0.78777(19)
O15 O 0.4191(3) 0.3276(4) 0.43004(19)
H33 H 0.3716 0.2821 0.4256
H34 H 0.4192 0.3446 0.3933
O16 O 0.2716(4) 0.1869(4) 0.4383(2)
H35 H 0.2254 0.1565 0.4101
H36 H 0.2555 0.1738 0.4719
O17 O 0.1241(4) 0.1053(4) 0.3385(2)
H37 H 0.0683 0.1396 0.3353
H38 H 0.1164 0.0775 0.3031
O18 O 0.4447(4) 0.3833(4) 0.3163(2)
H39 H 0.5029 0.3516 0.3235
H40 H 0.4359 0.4093 0.2804
O19 O 0.6511(4) 0.1972(3) 0.8566(3)
H41 H 0.6688 0.1606 0.8296
H42 H 0.6806 0.2549 0.8554
O20 O 0.0728(4) 0.6851(4) 0.5380(2)
H43 H 0.0982 0.7356 0.5612
H44 H 0.1041 0.6336 0.5580
O21 O -0.0558(4) 0.1957(3) 0.3539(2)
H45 H -0.1033 0.1536 0.3358
H46 H -0.0626 0.2432 0.3297
O22 O -0.0934(4) 0.6720(3) 0.4273(2)
H47 H -0.0838 0.6300 0.4002
H48 H -0.0354 0.6729 0.4553
O23 O 0.2241(4) 0.1741(4) 0.5498(2)
H49 H 0.2102 0.2307 0.5647
H50 H 0.2339 0.1317 0.5798
O11? O 0.7211(6) 0.5725(2) 0.8410(4)
O12? O 0.6073(3) 0.4570(6) 0.7731(3)
O13? O 0.7157(6) 0.3978(5) 0.8692(3)
O14? O 0.7910(4) 0.4447(6) 0.7882(3)
loop_
_geom_bond_atom_site_label_1
_geom_bond_atom_site_label_2
_geom_bond_site_symmetry_1
_geom_bond_site_symmetry_2
Cu1 O1 1_555 1_555
O1 H1 1_555 1_555
H2 O1 1_555 1_555
N1 Cu1 1_555 1_555
N2 H3 1_555 1_555
H4 N2 1_555 1_555
N3 C9 1_555 1_555
N4 Cu1 1_555 1_555
N5 H5 1_555 1_555
H6 N5 1_555 1_555
N6 C21 1_555 1_555
C1 C2 1_555 1_555
C2 N1 1_555 1_555
H7 C2 1_555 1_555
C3 N1 1_555 1_555
H8 C3 1_555 1_555
C4 C3 1_555 1_555
H9 C4 1_555 1_555
C5 C1 1_555 1_555
H10 C5 1_555 1_555
C6 N2 1_555 1_555
H11 C6 1_555 1_555
H12 C6 1_555 1_555
C7 N2 1_555 1_555
H13 C7 1_555 1_555
H14 C7 1_555 1_555
C8 C7 1_555 1_555
C9 C8 1_555 1_555
H15 C9 1_555 1_555
C10 N3 1_555 1_555
H16 C10 1_555 1_555
C11 C10 1_555 1_555
H17 C11 1_555 1_555
C12 C8 1_555 1_555
H18 C12 1_555 1_555
C13 C14 1_555 1_555
C14 N4 1_555 1_555
H19 C14 1_555 1_555
C15 N4 1_555 1_555
H20 C15 1_555 1_555
C16 C15 1_555 1_555
H21 C16 1_555 1_555
C17 C13 1_555 1_555
H22 C17 1_555 1_555
C18 N5 1_555 1_555
H23 C18 1_555 1_555
H24 C18 1_555 1_555
C19 N5 1_555 1_555
H25 C19 1_555 1_555
H26 C19 1_555 1_555
C20 C19 1_555 1_555
C21 C20 1_555 1_555
H27 C21 1_555 1_555
C22 N6 1_555 1_555
H28 C22 1_555 1_555
C23 C22 1_555 1_555
H29 C23 1_555 1_555
C24 C20 1_555 1_555
H30 C24 1_555 1_555
O2 Cu1 1_555 1_555
H31 O2 1_555 1_555
H32 O2 1_555 1_555
S1 O3 1_555 1_555
O4 S1 1_555 1_555
O5 S1 1_555 1_555
O6 S1 1_555 1_555
S2 O7 1_555 1_555
O8 S2 1_555 1_555
O9 S2 1_555 1_555
O10 S2 1_555 1_555
O15 H33 1_555 1_555
H34 O15 1_555 1_555
O16 H35 1_555 1_555
H36 O16 1_555 1_555
O17 H37 1_555 1_555
H38 O17 1_555 1_555
O18 H39 1_555 1_555
H40 O18 1_555 1_555
O19 H41 1_555 1_555
H42 O19 1_555 1_555
O20 H43 1_555 1_555
H44 O20 1_555 1_555
O21 H45 1_555 1_555
H46 O21 1_555 1_555
O22 H47 1_555 1_555
H48 O22 1_555 1_555
O23 H49 1_555 1_555
H50 O23 1_555 1_555
Cu1A N6 1_555 1_555
Cu1A_2 N3 1_555 1_555
N3A Cu1 1_555 1_555
N6A Cu1 1_555 1_555
C1 C6 1_555 1_555
C4 C5 1_555 1_555
C11 C12 1_555 1_555
C13 C18 1_555 1_555
C16 C17 1_555 1_555
C23 C24 1_555 1_555

#END
