
#######################################################################
#
#                 Cambridge Crystallographic Data Centre
#                                CCDC 
#
#######################################################################
#
# If this CIF has been generated from an entry in the Cambridge 
# Structural Database, then it will include bibliographic, chemical, 
# crystal, experimental, refinement or atomic coordinate data resulting 
# from the CCDC's data processing and validation procedures.
#
#######################################################################

data_PURXUX
_symmetry_cell_setting           triclinic
_symmetry_space_group_name_H-M   'P -1'
_symmetry_Int_Tables_number      2
_space_group_name_Hall           '-P 1'
loop_
_symmetry_equiv_pos_site_id
_symmetry_equiv_pos_as_xyz
1 x,y,z
2 -x,-y,-z
_cell_length_a                   8.7475(12)
_cell_length_b                   9.6869(13)
_cell_length_c                   10.3943(11)
_cell_angle_alpha                82.6660(10)
_cell_angle_beta                 77.5720(10)
_cell_angle_gamma                76.0640(10)
_cell_volume                     832.141
loop_
_atom_site_label
_atom_site_type_symbol
_atom_site_fract_x
_atom_site_fract_y
_atom_site_fract_z
Ag1 Ag -0.15523(3) -0.11205(2) 0.56189(2)
O1 O -0.2523(2) -0.15449(19) 0.81374(18)
O2 O -0.4045(3) 0.4994(2) 1.1251(2)
O3 O -0.2064(3) -0.23476(19) 1.01586(19)
O4 O 0.0610(2) -0.0982(2) 0.7975(2)
O5 O -0.1993(3) 0.5169(2) 0.9591(2)
H1 H -0.2176 0.5987 0.9804
O6 O 0.0974(2) 0.1128(2) 0.7255(2)
N1 N -0.9691(3) 0.6964(2) 0.5572(2)
N2 N 0.0218(3) 0.0320(2) 0.7981(2)
N3 N -0.3420(3) 0.0776(2) 0.5508(2)
C1 C -0.1418(3) 0.2353(3) 0.9156(3)
H2 H -0.0660 0.2873 0.8735
C2 C -0.2294(3) 0.0099(2) 0.9536(2)
C3 C -0.3011(3) 0.4488(3) 1.0356(3)
C4 C -0.2253(3) -0.1399(3) 0.9227(3)
C5 C -0.2761(3) 0.2979(3) 1.0033(2)
C6 C -0.5524(4) 0.2475(3) 0.6685(3)
H3 H -0.6080 0.2796 0.7498
C7 C -0.5967(3) 0.3171(3) 0.5533(3)
C8 C -0.7461(4) 0.5360(3) 0.4411(3)
H4 H -0.6772 0.5138 0.3613
C9 C -0.1221(3) 0.0943(3) 0.8915(2)
C10 C -0.5100(4) 0.2612(3) 0.4376(3)
H5 H -0.5359 0.3034 0.3573
C11 C -0.3602(3) 0.0763(3) 1.0426(3)
H6 H -0.4337 0.0235 1.0883
C12 C -0.7272(3) 0.4469(3) 0.5543(3)
C13 C -0.8355(3) 0.4874(3) 0.6689(3)
H7 H -0.8292 0.4310 0.7478
C14 C -0.3854(3) 0.2174(3) 1.0658(3)
H8 H -0.4766 0.2589 1.1241
C15 C -0.4271(4) 0.1319(3) 0.6632(3)
H9 H -0.3992 0.0881 0.7423
C16 C -0.3859(4) 0.1440(3) 0.4393(3)
H10 H -0.3296 0.1091 0.3593
C17 C -0.8657(4) 0.6563(3) 0.4464(3)
H11 H -0.8760 0.7137 0.3685
C18 C -0.9516(3) 0.6102(3) 0.6660(3)
H12 H -1.0223 0.6348 0.7443
Ag1_2 Ag -1.15523(3) 0.88795(2) 0.56189(2)
N1_2 N 0.0309(3) -0.3036(2) 0.5572(2)
loop_
_geom_bond_atom_site_label_1
_geom_bond_atom_site_label_2
_geom_bond_site_symmetry_1
_geom_bond_site_symmetry_2
Ag1 O1 1_555 1_555
O1 C4 1_555 1_555
O2 C3 1_555 1_555
O3 C4 1_555 1_555
O4 N2 1_555 1_555
O5 H1 1_555 1_555
O6 N2 1_555 1_555
N1 C17 1_555 1_555
N2 C9 1_555 1_555
N3 Ag1 1_555 1_555
C1 H2 1_555 1_555
C2 C4 1_555 1_555
C3 O5 1_555 1_555
C5 C1 1_555 1_555
C6 H3 1_555 1_555
C7 C6 1_555 1_555
C8 H4 1_555 1_555
C9 C1 1_555 1_555
C10 C7 1_555 1_555
H5 C10 1_555 1_555
C11 C2 1_555 1_555
H6 C11 1_555 1_555
C12 C7 1_555 1_555
C13 C12 1_555 1_555
H7 C13 1_555 1_555
C14 C5 1_555 1_555
H8 C14 1_555 1_555
C15 N3 1_555 1_555
H9 C15 1_555 1_555
C16 N3 1_555 1_555
H10 C16 1_555 1_555
C17 C8 1_555 1_555
H11 C17 1_555 1_555
C18 N1 1_555 1_555
H12 C18 1_555 1_555
Ag1_2 N1 1_555 1_555
N1_2 Ag1 1_555 1_555
C2 C9 1_555 1_555
C3 C5 1_555 1_555
C6 C15 1_555 1_555
C8 C12 1_555 1_555
C10 C16 1_555 1_555
C11 C14 1_555 1_555
C13 C18 1_555 1_555

#END
