
#######################################################################
#
#                 Cambridge Crystallographic Data Centre
#                                CCDC 
#
#######################################################################
#
# If this CIF has been generated from an entry in the Cambridge 
# Structural Database, then it will include bibliographic, chemical, 
# crystal, experimental, refinement or atomic coordinate data resulting 
# from the CCDC's data processing and validation procedures.
#
#######################################################################

data_PURXOR
_symmetry_cell_setting           triclinic
_symmetry_space_group_name_H-M   'P -1'
_symmetry_Int_Tables_number      2
_space_group_name_Hall           '-P 1'
loop_
_symmetry_equiv_pos_site_id
_symmetry_equiv_pos_as_xyz
1 x,y,z
2 -x,-y,-z
_cell_length_a                   6.9462(2)
_cell_length_b                   11.3568(3)
_cell_length_c                   13.6154(4)
_cell_angle_alpha                78.6580(10)
_cell_angle_beta                 86.4840(10)
_cell_angle_gamma                89.6060(10)
_cell_volume                     1051.1
loop_
_atom_site_label
_atom_site_type_symbol
_atom_site_fract_x
_atom_site_fract_y
_atom_site_fract_z
Ag1 Ag 1.23730(3) -0.183741(17) 0.992428(17)
N1 N 1.2473(3) 0.6261(2) 0.99935(16)
C1 C 1.1795(3) 0.4233(2) 1.08107(17)
H1 H 1.1327 0.3699 1.1382
N2 N 1.2469(4) 0.0046(2) 0.99323(18)
C2 C 1.1800(4) 0.5449(2) 1.07950(18)
H2 H 1.1318 0.5720 1.1363
C3 C 1.2500(3) 0.3803(2) 0.99617(17)
C4 C 1.3189(3) 0.4653(2) 0.91334(17)
H3 H 1.3668 0.4410 0.8552
C5 C 1.2782(4) 0.1655(2) 1.08097(19)
H4 H 1.2993 0.1898 1.1408
C6 C 1.3156(3) 0.5850(2) 0.91806(18)
H5 H 1.3629 0.6403 0.8622
C7 C 1.2210(4) 0.0874(3) 0.9095(2)
H6 H 1.2010 0.0608 0.8505
C8 C 1.2491(3) 0.2513(2) 0.99437(18)
C9 C 1.2758(4) 0.0453(2) 1.0776(2)
H7 H 1.2949 -0.0103 1.1362
C10 C 1.2228(4) 0.2080(3) 0.90676(19)
H8 H 1.2064 0.2614 0.8467
Ag1_2 Ag 1.23730(3) 0.816259(17) 0.992428(17)
N1_2 N 1.2473(3) -0.3739(2) 0.99935(16)
O1 O 0.7130(3) 0.8490(2) 0.3374(2)
H9 H 0.612(3) 0.887(4) 0.349(4)
H10 H 0.809(4) 0.888(4) 0.350(4)
O2 O 0.5093(4) -0.1972(2) 0.70992(19)
C11 C 0.6031(6) -0.2641(5) 0.6461(4)
H11 H 0.7399 -0.2598 0.6515
H12 H 0.5729 -0.2322 0.5781
H13 H 0.5612 -0.3462 0.6645
H14 H 0.568(8) -0.137(5) 0.701(4)
O3 O 1.1306(4) -0.1692(3) 0.79132(17)
H15 H 1.069(5) -0.110(3) 0.761(3)
H16 H 1.230(4) -0.178(4) 0.754(3)
O4 O 1.2156(4) -0.2148(2) 1.22177(15)
O5 O 1.4041(4) -0.3665(3) 1.25772(17)
N3 N 1.2914(4) -0.2918(2) 1.28155(16)
C12 C 1.2428(4) -0.2998(2) 1.38918(17)
C13 C 1.1942(4) -0.0704(2) 1.36069(19)
C14 C 1.1883(3) -0.4253(2) 1.55051(18)
C15 C 1.1835(4) -0.1971(2) 1.42417(18)
C16 C 1.2488(3) -0.4118(2) 1.44968(18)
H17 H 1.2927 -0.4775 1.4236
C17 C 1.1267(4) -0.3252(3) 1.58765(18)
H18 H 1.0861 -0.3337 1.6551
C18 C 1.1247(4) -0.2127(3) 1.5259(2)
H19 H 1.0838 -0.1467 1.5525
O6 O 1.2644(3) -0.62858(19) 1.57202(15)
O7 O 1.1204(4) -0.5644(2) 1.70368(14)
O8 O 1.3612(3) -0.0320(2) 1.33116(19)
O9 O 1.0420(3) -0.0153(2) 1.34649(17)
C19 C 1.1882(4) -0.5464(3) 1.61770(19)
H20 H 1.253(5) -0.6986(13) 1.600(2)
loop_
_geom_bond_atom_site_label_1
_geom_bond_atom_site_label_2
_geom_bond_site_symmetry_1
_geom_bond_site_symmetry_2
Ag1 N2 1_555 1_555
N1 C2 1_555 1_555
C1 H1 1_555 1_555
N2 C7 1_555 1_555
C2 C1 1_555 1_555
H2 C2 1_555 1_555
C3 C1 1_555 1_555
C4 C3 1_555 1_555
H3 C4 1_555 1_555
C5 H4 1_555 1_555
C6 N1 1_555 1_555
H5 C6 1_555 1_555
C7 H6 1_555 1_555
C8 C3 1_555 1_555
C9 N2 1_555 1_555
H7 C9 1_555 1_555
C10 C7 1_555 1_555
H8 C10 1_555 1_555
O1 H9 1_555 1_555
H10 O1 1_555 1_555
O2 C11 1_555 1_555
C11 H11 1_555 1_555
H12 C11 1_555 1_555
H13 C11 1_555 1_555
H14 O2 1_555 1_555
O3 H15 1_555 1_555
H16 O3 1_555 1_555
O4 N3 1_555 1_555
O5 N3 1_555 1_555
N3 C12 1_555 1_555
C12 C15 1_555 1_555
C13 C15 1_555 1_555
C14 C16 1_555 1_555
C15 C18 1_555 1_555
C16 C12 1_555 1_555
H17 C16 1_555 1_555
C17 C14 1_555 1_555
H18 C17 1_555 1_555
C18 C17 1_555 1_555
H19 C18 1_555 1_555
O6 C19 1_555 1_555
O7 C19 1_555 1_555
O8 C13 1_555 1_555
O9 C13 1_555 1_555
C19 C14 1_555 1_555
H20 O6 1_555 1_555
Ag1_2 N1 1_555 1_555
N1_2 Ag1 1_555 1_555
C4 C6 1_555 1_555
C5 C8 1_555 1_555
C5 C9 1_555 1_555
C8 C10 1_555 1_555

#END
