
#######################################################################
#
#                 Cambridge Crystallographic Data Centre
#                                CCDC 
#
#######################################################################
#
# If this CIF has been generated from an entry in the Cambridge 
# Structural Database, then it will include bibliographic, chemical, 
# crystal, experimental, refinement or atomic coordinate data resulting 
# from the CCDC's data processing and validation procedures.
#
#######################################################################

data_PURXAC
_symmetry_cell_setting           orthorhombic
_symmetry_space_group_name_H-M   'P b c a'
_symmetry_Int_Tables_number      61
_space_group_name_Hall           '-P 2ac 2ab'
loop_
_symmetry_equiv_pos_site_id
_symmetry_equiv_pos_as_xyz
1 x,y,z
2 1/2-x,-y,1/2+z
3 -x,1/2+y,1/2-z
4 1/2+x,1/2-y,-z
5 -x,-y,-z
6 1/2+x,y,1/2-z
7 x,1/2-y,1/2+z
8 1/2-x,1/2+y,z
_cell_length_a                   21.8030(10)
_cell_length_b                   19.3128(9)
_cell_length_c                   33.4302(14)
_cell_angle_alpha                90
_cell_angle_beta                 90
_cell_angle_gamma                90
_cell_volume                     14076.7
loop_
_atom_site_label
_atom_site_type_symbol
_atom_site_fract_x
_atom_site_fract_y
_atom_site_fract_z
C1 C 1.0951(2) 0.5892(3) 0.39573(12)
C2 C 1.1164(2) 0.5435(2) 0.36672(19)
C3 C 1.1260(2) 0.5666(3) 0.32783(16)
C4 C 1.1143(2) 0.6352(3) 0.31795(12)
C5 C 1.0931(2) 0.6809(2) 0.34695(17)
C6 C 1.0834(2) 0.6578(3) 0.38585(14)
Zn1 Zn 0.71634(4) 0.38034(4) 0.24969(3)
Br1 Br 0.63270(5) 0.31797(5) 0.22376(3)
Br2 Br 0.80208(4) 0.32173(5) 0.27588(3)
C7 C 0.8351(3) 0.6734(4) 0.3494(2)
C8 C 0.8119(3) 0.6282(4) 0.3220(2)
C9 C 0.8033(3) 0.5631(5) 0.3335(2)
C10 C 0.8143(4) 0.5352(4) 0.3710(3)
C11 C 0.8380(3) 0.5837(4) 0.40090(19)
C12 C 0.8468(3) 0.6527(4) 0.3894(2)
C13 C 0.7970(4) 0.6506(4) 0.2789(2)
H1 H 0.8351 0.6620 0.2648
H2 H 0.7703 0.6914 0.2795
H3 H 0.7761 0.6127 0.2650
C14 C 0.7787(4) 0.5071(4) 0.3034(2)
H4 H 0.7919 0.5191 0.2759
H5 H 0.7963 0.4614 0.3102
N1 N 0.7117(3) 0.5029(3) 0.30463(18)
N2 N 0.6805(3) 0.4468(3) 0.29000(19)
C15 C 0.6199(4) 0.4594(5) 0.2979(2)
H6 H 0.5872 0.4297 0.2903
C16 C 0.6127(4) 0.5182(5) 0.3176(3)
H7 H 0.5748 0.5370 0.3265
C17 C 0.6692(4) 0.5473(5) 0.3229(2)
H8 H 0.6780 0.5896 0.3363
C18 C 0.8027(4) 0.4610(4) 0.3845(2)
H9 H 0.8415 0.4353 0.3846
H10 H 0.7738 0.4387 0.3661
H11 H 0.7853 0.4612 0.4115
C19 C 0.8627(4) 0.7076(4) 0.42032(19)
H12 H 0.8519 0.6908 0.4471
H13 H 0.8397 0.7501 0.4146
H14 H 0.9068 0.7174 0.4192
C20 C 0.8508(3) 0.5604(4) 0.4434(2)
H15 H 0.8181 0.5799 0.4606
H16 H 0.8462 0.5095 0.4441
C21 C 0.9105(4) 0.5775(4) 0.4625(2)
C22 C 0.9117(4) 0.6097(4) 0.4991(2)
C23 C 0.9719(4) 0.6253(4) 0.51666(19)
Br3 Br 0.97297(5) 0.66922(5) 0.56890(2)
C24 C 1.0275(4) 0.6091(4) 0.4984(2)
C25 C 1.0239(4) 0.5802(4) 0.4606(2)
C26 C 0.9669(4) 0.5620(4) 0.4444(2)
C27 C 0.8476(4) 0.6333(6) 0.5200(2)
H17 H 0.8508 0.6816 0.5287
H18 H 0.8393 0.6037 0.5432
H19 H 0.8141 0.6288 0.5007
C28 C 1.0851(4) 0.6295(5) 0.5223(2)
H20 H 1.0916 0.6795 0.5202
H21 H 1.1208 0.6050 0.5115
H22 H 1.0795 0.6168 0.5505
C29 C 0.9657(4) 0.5217(3) 0.40533(19)
H23 H 0.9992 0.4879 0.4051
H24 H 0.9706 0.5537 0.3828
H25 H 0.9264 0.4974 0.4028
C30 C 1.0839(3) 0.5636(4) 0.4404(2)
H26 H 1.0888 0.5127 0.4407
H27 H 1.1172 0.5831 0.4571
C31 C 1.1332(4) 0.4686(4) 0.3764(2)
H28 H 1.1754 0.4667 0.3864
H29 H 1.1297 0.4404 0.3522
H30 H 1.1052 0.4507 0.3969
C32 C 1.1526(3) 0.5214(5) 0.2972(2)
H31 H 1.1479 0.5436 0.2707
H32 H 1.1297 0.4771 0.2967
C33 C 1.3090(4) 0.4547(5) 0.3023(2)
H33 H 1.3397 0.4211 0.2969
N3 N 1.2209(3) 0.5062(4) 0.30463(18)
N4 N 1.2481(3) 0.4495(3) 0.28984(17)
C34 C 1.3194(5) 0.5175(6) 0.3244(3)
H34 H 1.3569 0.5329 0.3359
C35 C 1.2583(4) 0.5539(6) 0.3253(3)
H35 H 1.2478 0.5973 0.3368
C36 C 1.0686(3) 0.7117(4) 0.4189(2)
H36 H 1.0241 0.7188 0.4203
H37 H 1.0888 0.7557 0.4126
H38 H 1.0835 0.6947 0.4447
C37 C 1.1261(4) 0.6606(4) 0.2762(2)
H39 H 1.0980 0.6376 0.2576
H40 H 1.1686 0.6501 0.2686
H41 H 1.1196 0.7108 0.2750
C38 C 1.0788(3) 0.7555(4) 0.3381(2)
H42 H 1.0838 0.7619 0.3089
H43 H 1.1112 0.7835 0.3511
C39 C 1.0192(4) 0.8531(4) 0.3693(2)
C40 C 0.9612(4) 0.8791(3) 0.38146(19)
Br4 Br 0.95977(5) 0.96292(5) 0.41089(3)
C41 C 0.9059(3) 0.8491(4) 0.3732(2)
C42 C 0.9063(3) 0.7865(4) 0.3502(2)
C43 C 0.9632(4) 0.7572(4) 0.3401(2)
C44 C 1.0171(3) 0.7883(4) 0.3496(2)
C45 C 1.0737(4) 0.8933(4) 0.3803(3)
H44 H 1.0892 0.8772 0.4062
H45 H 1.0628 0.9424 0.3822
H46 H 1.1054 0.8871 0.3598
C46 C 0.8456(3) 0.8830(4) 0.3887(2)
H47 H 0.8103 0.8596 0.3766
H48 H 0.8451 0.9321 0.3813
H49 H 0.8436 0.8786 0.4179
C47 C 0.9639(4) 0.6926(4) 0.3092(2)
H50 H 0.9613 0.6491 0.3242
H51 H 1.0020 0.6934 0.2936
H52 H 0.9288 0.6962 0.2910
C48 C 0.8458(3) 0.7519(4) 0.33853(19)
H53 H 0.8411 0.7566 0.3092
H54 H 0.8123 0.7789 0.3510
Zn1E Zn 1.21634(4) 0.38034(4) 0.25031(3)
N4E N 0.7481(3) 0.4495(3) 0.21016(17)
loop_
_geom_bond_atom_site_label_1
_geom_bond_atom_site_label_2
_geom_bond_site_symmetry_1
_geom_bond_site_symmetry_2
C1 C2 1_555 1_555
C2 C3 1_555 1_555
C3 C4 1_555 1_555
C4 C5 1_555 1_555
C5 C6 1_555 1_555
C6 C1 1_555 1_555
Zn1 Br1 1_555 1_555
Br2 Zn1 1_555 1_555
C7 C8 1_555 1_555
C8 C9 1_555 1_555
C9 C10 1_555 1_555
C10 C11 1_555 1_555
C11 C12 1_555 1_555
C12 C7 1_555 1_555
C13 C8 1_555 1_555
H1 C13 1_555 1_555
H2 C13 1_555 1_555
H3 C13 1_555 1_555
C14 C9 1_555 1_555
H4 C14 1_555 1_555
H5 C14 1_555 1_555
N1 C14 1_555 1_555
N2 Zn1 1_555 1_555
C15 N2 1_555 1_555
H6 C15 1_555 1_555
C16 C15 1_555 1_555
H7 C16 1_555 1_555
C17 N1 1_555 1_555
H8 C17 1_555 1_555
C18 C10 1_555 1_555
H9 C18 1_555 1_555
H10 C18 1_555 1_555
H11 C18 1_555 1_555
C19 C12 1_555 1_555
H12 C19 1_555 1_555
H13 C19 1_555 1_555
H14 C19 1_555 1_555
C20 C11 1_555 1_555
H15 C20 1_555 1_555
H16 C20 1_555 1_555
C21 C20 1_555 1_555
C22 C21 1_555 1_555
C23 C22 1_555 1_555
Br3 C23 1_555 1_555
C24 C23 1_555 1_555
C25 C24 1_555 1_555
C26 C21 1_555 1_555
C27 C22 1_555 1_555
H17 C27 1_555 1_555
H18 C27 1_555 1_555
H19 C27 1_555 1_555
C28 C24 1_555 1_555
H20 C28 1_555 1_555
H21 C28 1_555 1_555
H22 C28 1_555 1_555
C29 C26 1_555 1_555
H23 C29 1_555 1_555
H24 C29 1_555 1_555
H25 C29 1_555 1_555
C30 C1 1_555 1_555
H26 C30 1_555 1_555
H27 C30 1_555 1_555
C31 C2 1_555 1_555
H28 C31 1_555 1_555
H29 C31 1_555 1_555
H30 C31 1_555 1_555
C32 C3 1_555 1_555
H31 C32 1_555 1_555
H32 C32 1_555 1_555
C33 H33 1_555 1_555
N3 C32 1_555 1_555
N4 C33 1_555 1_555
C34 C33 1_555 1_555
H34 C34 1_555 1_555
C35 N3 1_555 1_555
H35 C35 1_555 1_555
C36 C6 1_555 1_555
H36 C36 1_555 1_555
H37 C36 1_555 1_555
H38 C36 1_555 1_555
C37 C4 1_555 1_555
H39 C37 1_555 1_555
H40 C37 1_555 1_555
H41 C37 1_555 1_555
C38 C5 1_555 1_555
H42 C38 1_555 1_555
H43 C38 1_555 1_555
C39 C40 1_555 1_555
C40 Br4 1_555 1_555
C41 C40 1_555 1_555
C42 C41 1_555 1_555
C43 C42 1_555 1_555
C44 C38 1_555 1_555
C45 C39 1_555 1_555
H44 C45 1_555 1_555
H45 C45 1_555 1_555
H46 C45 1_555 1_555
C46 C41 1_555 1_555
H47 C46 1_555 1_555
H48 C46 1_555 1_555
H49 C46 1_555 1_555
C47 C43 1_555 1_555
H50 C47 1_555 1_555
H51 C47 1_555 1_555
H52 C47 1_555 1_555
C48 C7 1_555 1_555
H53 C48 1_555 1_555
H54 C48 1_555 1_555
Zn1E N4 1_555 1_555
N4E Zn1 1_555 1_555
N1 N2 1_555 1_555
C16 C17 1_555 1_555
C25 C26 1_555 1_555
C25 C30 1_555 1_555
N3 N4 1_555 1_555
C34 C35 1_555 1_555
C39 C44 1_555 1_555
C42 C48 1_555 1_555
C43 C44 1_555 1_555

#END
