
#######################################################################
#
#                 Cambridge Crystallographic Data Centre
#                                CCDC 
#
#######################################################################
#
# If this CIF has been generated from an entry in the Cambridge 
# Structural Database, then it will include bibliographic, chemical, 
# crystal, experimental, refinement or atomic coordinate data resulting 
# from the CCDC's data processing and validation procedures.
#
#######################################################################

data_PURYEH
_symmetry_cell_setting           triclinic
_symmetry_space_group_name_H-M   'P -1'
_symmetry_Int_Tables_number      2
_space_group_name_Hall           '-P 1'
loop_
_symmetry_equiv_pos_site_id
_symmetry_equiv_pos_as_xyz
1 x,y,z
2 -x,-y,-z
_cell_length_a                   7.7634(6)
_cell_length_b                   8.0585(6)
_cell_length_c                   12.0462(10)
_cell_angle_alpha                90.534(2)
_cell_angle_beta                 95.521(2)
_cell_angle_gamma                111.775(2)
_cell_volume                     695.781
loop_
_atom_site_label
_atom_site_type_symbol
_atom_site_fract_x
_atom_site_fract_y
_atom_site_fract_z
Ag1 Ag 0.16254(2) 0.426744(18) 0.219969(13)
S1 S 0.59867(6) 0.75437(6) 0.28518(4)
O1 O 0.4996(2) 0.56878(19) 0.30871(13)
O2 O 0.6901(2) 0.7811(2) 0.18459(12)
O3 O 0.4990(2) 0.8703(2) 0.30347(13)
C1 C 0.7917(3) 0.8296(2) 0.39669(17)
F1 F 0.8923(2) 1.00233(17) 0.38974(15)
F2 F 0.9061(2) 0.7422(2) 0.38950(13)
F3 F 0.7313(2) 0.8046(3) 0.49684(12)
N1 N -0.0234(3) 0.3969(2) 0.35073(16)
C2 C -0.1535(3) 0.3513(3) 0.39684(17)
C3 C -0.3217(3) 0.2918(3) 0.4532(2)
N2 N 0.2184(2) 0.59987(19) 0.07097(13)
C4 C 0.2020(2) 0.7606(2) 0.06424(15)
C5 C 0.1209(3) 0.8136(2) 0.16138(16)
C6 C 0.1531(3) 1.0045(3) 0.16857(18)
N3 N 0.1771(3) 1.1524(3) 0.1750(2)
C7 C 0.2534(3) 0.8665(2) -0.02622(16)
C8 C 0.3262(3) 0.8070(3) -0.11244(17)
C9 C 0.3429(3) 0.6415(3) -0.10609(16)
C10 C 0.2874(3) 0.5431(2) -0.01364(16)
H1 H -0.39548 0.35891 0.42983
H2 H -0.28788 0.31085 0.53175
H3 H -0.39051 0.16863 0.43586
H4 H 0.17593 0.78453 0.22853
H5 H -0.00984 0.74757 0.15375
H6 H 0.23895 0.97850 -0.02930
H7 H 0.36412 0.87836 -0.17448
H8 H 0.39138 0.59707 -0.16396
H9 H 0.29828 0.42963 -0.00970
Ag1_2 Ag 0.16254(2) 1.426744(18) 0.219969(13)
N3_2 N 0.1771(3) 0.1524(3) 0.1750(2)
loop_
_geom_bond_atom_site_label_1
_geom_bond_atom_site_label_2
_geom_bond_site_symmetry_1
_geom_bond_site_symmetry_2
Ag1 O1 1_555 1_555
S1 O1 1_555 1_555
O2 S1 1_555 1_555
O3 S1 1_555 1_555
C1 S1 1_555 1_555
F1 C1 1_555 1_555
F2 C1 1_555 1_555
F3 C1 1_555 1_555
N1 Ag1 1_555 1_555
C2 N1 1_555 1_555
C3 C2 1_555 1_555
N2 Ag1 1_555 1_555
C4 N2 1_555 1_555
C5 C4 1_555 1_555
C6 C5 1_555 1_555
N3 C6 1_555 1_555
C7 C4 1_555 1_555
C8 C7 1_555 1_555
C9 C8 1_555 1_555
C10 N2 1_555 1_555
H1 C3 1_555 1_555
H2 C3 1_555 1_555
H3 C3 1_555 1_555
H4 C5 1_555 1_555
H5 C5 1_555 1_555
H6 C7 1_555 1_555
H7 C8 1_555 1_555
H8 C9 1_555 1_555
H9 C10 1_555 1_555
Ag1_2 N3 1_555 1_555
N3_2 Ag1 1_555 1_555
C9 C10 1_555 1_555

#END
