
#######################################################################
#
#                 Cambridge Crystallographic Data Centre
#                                CCDC 
#
#######################################################################
#
# If this CIF has been generated from an entry in the Cambridge 
# Structural Database, then it will include bibliographic, chemical, 
# crystal, experimental, refinement or atomic coordinate data resulting 
# from the CCDC's data processing and validation procedures.
#
#######################################################################

data_PURYEI
_symmetry_cell_setting           monoclinic
_symmetry_space_group_name_H-M   'C c'
_symmetry_Int_Tables_number      9
_space_group_name_Hall           'C -2yc'
loop_
_symmetry_equiv_pos_site_id
_symmetry_equiv_pos_as_xyz
1 x,y,z
2 x,-y,1/2+z
3 1/2+x,1/2+y,z
4 1/2+x,1/2-y,1/2+z
_cell_length_a                   11.7169(5)
_cell_length_b                   17.4525(6)
_cell_length_c                   14.9378(6)
_cell_angle_alpha                90
_cell_angle_beta                 112.1150(6)
_cell_angle_gamma                90
_cell_volume                     2829.89
loop_
_atom_site_label
_atom_site_type_symbol
_atom_site_fract_x
_atom_site_fract_y
_atom_site_fract_z
Ag1 Ag 1.40949(3) -0.07051(3) 1.20666(3)
C1 C 0.9798(5) -0.0045(3) 0.9788(4)
N1 N 1.2232(5) -0.0396(3) 1.1029(4)
C2 C 0.7590(6) -0.0445(3) 0.8876(5)
H1 H 0.7784 -0.0949 0.9080
C3 C 0.8130(5) 0.0863(3) 0.8813(5)
H2 H 0.8692 0.1265 0.8978
C4 C 1.0579(6) 0.0503(4) 1.0371(5)
H3 H 1.0301 0.1002 1.0366
C5 C 0.8517(5) 0.0125(3) 0.9159(4)
C6 C 1.1489(5) -0.0921(3) 1.0467(5)
H4 H 1.1796 -0.1415 1.0489
C7 C 1.0273(6) -0.0782(3) 0.9843(5)
H5 H 0.9791 -0.1176 0.9471
C8 C 1.1766(6) 0.0313(3) 1.0960(5)
H6 H 1.2273 0.0699 1.1330
C9 C 0.6398(6) -0.0251(3) 0.8296(5)
H7 H 0.5808 -0.0637 0.8125
C10 C 0.6916(6) 0.0998(3) 0.8229(5)
H8 H 0.6691 0.1493 0.8004
N2 N 0.6039(5) 0.0449(3) 0.7966(4)
O1 O 1.3548(4) -0.2615(3) 1.4792(4)
N3 N 1.2632(4) -0.2196(3) 1.4528(3)
C11 C 1.1541(5) -0.2460(3) 1.3720(3)
C12 C 1.1594(4) -0.2548(2) 1.2815(4)
C13 C 1.0555(5) -0.2840(3) 1.2091(4)
H9 H 1.0555 -0.2912 1.1474
C14 C 1.0520(5) -0.2619(3) 1.3921(4)
H10 H 1.0523 -0.2532 1.4536
C15 C 0.8342(5) -0.3117(3) 1.3409(4)
O2 O 0.8272(4) -0.2829(3) 1.4150(4)
O3 O 0.7572(5) -0.3540(4) 1.2834(4)
C16 C 0.9472(5) -0.2913(3) 1.3191(4)
O4 O 1.2579(4) -0.1592(3) 1.4907(3)
C17 C 0.9507(5) -0.3026(3) 1.2278(4)
H11 H 0.8822 -0.3229 1.1786
O5 O 1.3150(4) -0.1655(3) 1.2928(3)
O6 O 1.2938(6) -0.2677(3) 1.1983(5)
C18 C 1.2674(5) -0.2283(3) 1.2569(4)
O7 O 1.4232(5) -0.1963(3) 1.1112(4)
H12 H 1.377(6) -0.213(3) 1.140(5)
H13 H 1.386(4) -0.207(5) 1.0513(18)
Ag2 Ag 1.24870(3) -0.03167(3) 1.35137(3)
N4 N 2.0579(5) 0.0204(3) 1.7627(4)
N5 N 1.4338(5) -0.0241(3) 1.4549(4)
C19 C 1.6318(5) -0.0782(3) 1.5391(4)
H14 H 1.6831 -0.1208 1.5521
C20 C 2.0037(6) -0.0487(4) 1.7502(4)
H15 H 2.0510 -0.0910 1.7799
C21 C 1.8651(6) 0.0735(3) 1.6612(5)
H16 H 1.8208 0.1171 1.6323
C22 C 1.6785(5) -0.0081(3) 1.5837(4)
C23 C 1.8080(5) 0.0019(3) 1.6475(4)
C24 C 1.4768(6) 0.0424(3) 1.4986(5)
H17 H 1.4237 0.0841 1.4858
C25 C 1.8814(5) -0.0593(3) 1.6953(5)
H18 H 1.8471 -0.1079 1.6901
C26 C 1.5954(6) 0.0516(3) 1.5613(5)
H19 H 1.6210 0.0992 1.5896
C27 C 1.9873(6) 0.0783(4) 1.7180(5)
H20 H 2.0238 0.1265 1.7257
C28 C 1.5116(6) -0.0848(3) 1.4764(4)
H21 H 1.4828 -0.1320 1.4480
Ag1A Ag 0.40949(3) 0.07051(3) 0.70666(3)
N2A N 1.6039(5) -0.0449(3) 1.2966(4)
Ag2A Ag 2.24870(3) 0.03167(3) 1.85137(3)
N4A N 1.0579(5) -0.0204(3) 1.2627(4)
O8 O 0.1522(6) -0.2559(4) 0.6322(5)
H22 H 0.085(4) -0.267(6) 0.639(5)
H23 H 0.194(6) -0.231(5) 0.684(4)
O9 O 0.0792(8) -0.2414(5) 0.8997(9)
H24 H 0.155(3) -0.227(5) 0.916(5)
H25 H 0.063(5) -0.266(6) 0.846(4)
loop_
_geom_bond_atom_site_label_1
_geom_bond_atom_site_label_2
_geom_bond_site_symmetry_1
_geom_bond_site_symmetry_2
Ag1 N1 1_555 1_555
C1 C4 1_555 1_555
N1 C6 1_555 1_555
C2 H1 1_555 1_555
C3 H2 1_555 1_555
C4 H3 1_555 1_555
C5 C1 1_555 1_555
C6 H4 1_555 1_555
C7 C1 1_555 1_555
H5 C7 1_555 1_555
C8 N1 1_555 1_555
H6 C8 1_555 1_555
C9 C2 1_555 1_555
H7 C9 1_555 1_555
C10 C3 1_555 1_555
H8 C10 1_555 1_555
N2 C9 1_555 1_555
O1 N3 1_555 1_555
N3 C11 1_555 1_555
C11 C12 1_555 1_555
C12 C13 1_555 1_555
C13 H9 1_555 1_555
C14 C11 1_555 1_555
H10 C14 1_555 1_555
C15 O2 1_555 1_555
O3 C15 1_555 1_555
C16 C14 1_555 1_555
O4 N3 1_555 1_555
C17 C13 1_555 1_555
H11 C17 1_555 1_555
O5 Ag1 1_555 1_555
O6 C18 1_555 1_555
C18 C12 1_555 1_555
O7 Ag1 1_555 1_555
H12 O7 1_555 1_555
H13 O7 1_555 1_555
Ag2 O5 1_555 1_555
N4 C20 1_555 1_555
N5 Ag2 1_555 1_555
C19 H14 1_555 1_555
C20 H15 1_555 1_555
C21 H16 1_555 1_555
C22 C19 1_555 1_555
C23 C21 1_555 1_555
C24 N5 1_555 1_555
H17 C24 1_555 1_555
C25 C20 1_555 1_555
H18 C25 1_555 1_555
C26 C22 1_555 1_555
H19 C26 1_555 1_555
C27 N4 1_555 1_555
H20 C27 1_555 1_555
C28 N5 1_555 1_555
H21 C28 1_555 1_555
O8 H22 1_555 1_555
H23 O8 1_555 1_555
O9 H24 1_555 1_555
H25 O9 1_555 1_555
Ag1A N2 1_555 1_555
N2A Ag1 1_555 1_555
Ag2A N4 1_555 1_555
N4A Ag2 1_555 1_555
C2 C5 1_555 1_555
C3 C5 1_555 1_555
C4 C8 1_555 1_555
C6 C7 1_555 1_555
C10 N2 1_555 1_555
C15 C16 1_555 1_555
C16 C17 1_555 1_555
O5 C18 1_555 1_555
C19 C28 1_555 1_555
C21 C27 1_555 1_555
C22 C23 1_555 1_555
C23 C25 1_555 1_555
C24 C26 1_555 1_555

#END
