
#######################################################################
#
#                 Cambridge Crystallographic Data Centre
#                                CCDC 
#
#######################################################################
#
# If this CIF has been generated from an entry in the Cambridge 
# Structural Database, then it will include bibliographic, chemical, 
# crystal, experimental, refinement or atomic coordinate data resulting 
# from the CCDC's data processing and validation procedures.
#
#######################################################################

data_PURZUY
_symmetry_cell_setting           triclinic
_symmetry_space_group_name_H-M   'P -1'
_symmetry_Int_Tables_number      2
_space_group_name_Hall           '-P 1'
loop_
_symmetry_equiv_pos_site_id
_symmetry_equiv_pos_as_xyz
1 x,y,z
2 -x,-y,-z
_cell_length_a                   14.5426(8)
_cell_length_b                   20.273(1)
_cell_length_c                   21.491(1)
_cell_angle_alpha                79.420(1)
_cell_angle_beta                 82.373(1)
_cell_angle_gamma                75.450(1)
_cell_volume                     6003.54
loop_
_atom_site_label
_atom_site_type_symbol
_atom_site_fract_x
_atom_site_fract_y
_atom_site_fract_z
Ag1 Ag 0.390908(17) -0.189703(13) 0.372996(11)
Ag2 Ag 0.68221(2) -0.141613(13) 0.292366(11)
Ag3 Ag 0.976965(16) -0.272991(12) 0.216937(11)
Ag4 Ag 1.207287(16) -0.277715(13) -0.013911(12)
Ag5 Ag 0.200120(17) -0.346370(13) 0.794100(12)
Ag6 Ag 0.216540(16) -0.217900(12) 0.598810(12)
Ag7 Ag 0.20668(2) -0.091390(14) 0.803550(12)
Ag8 Ag 0.657898(16) -0.382211(14) 0.281332(13)
S1 S 0.17473(5) -0.16636(4) 0.44409(4)
O1 O 0.24662(18) -0.13492(15) 0.45758(14)
O2 O 0.1995(2) -0.20165(14) 0.38963(12)
O3 O 0.13111(18) -0.20299(14) 0.49931(11)
C1 C 0.0778(3) -0.0927(2) 0.41942(17)
F1 F 0.1079(2) -0.04999(13) 0.37098(13)
F2 F 0.00689(15) -0.11310(13) 0.40149(12)
F3 F 0.0431(2) -0.05737(15) 0.46684(14)
S2 S 0.47771(6) -0.04347(4) 0.37782(4)
O4 O 0.4954(2) -0.04863(17) 0.31107(14)
O5 O 0.45824(19) -0.10509(13) 0.41673(12)
O6 O 0.5390(2) -0.01224(18) 0.4024(2)
C2 C 0.3620(3) 0.0183(2) 0.3831(2)
F4 F 0.29195(18) -0.00704(14) 0.37120(16)
F5 F 0.3606(2) 0.07599(13) 0.34157(14)
F6 F 0.3404(2) 0.03702(16) 0.43994(13)
S3 S 0.93117(7) -0.08906(4) 0.20723(4)
O7 O 0.9504(2) -0.14766(13) 0.17492(14)
O8 O 0.8899(3) -0.02549(15) 0.16769(15)
O9 O 0.8898(3) -0.0970(2) 0.27083(14)
C3 C 1.0497(4) -0.0783(2) 0.2139(2)
F7 F 1.0989(2) -0.13261(16) 0.25126(17)
F8 F 1.0999(3) -0.0741(3) 0.15910(16)
F9 F 1.0472(3) -0.02388(15) 0.24021(16)
S4 S 1.21782(5) -0.29580(4) 0.15801(4)
O10 O 1.15579(16) -0.28926(13) 0.21597(11)
O11 O 1.16724(18) -0.27933(16) 0.10132(12)
O12 O 1.30085(18) -0.26852(14) 0.15288(13)
C4 C 1.2659(3) -0.3885(2) 0.1640(2)
F10 F 1.3279(2) -0.40419(16) 0.11476(15)
F11 F 1.3114(2) -0.41253(13) 0.21639(13)
F12 F 1.1969(2) -0.42109(14) 0.16706(16)
S5 S 1.15803(6) -0.44493(5) -0.04106(4)
O13 O 1.1562(3) -0.38214(15) -0.0189(2)
O14 O 1.2359(2) -0.4676(3) -0.08564(15)
O15 O 1.0660(2) -0.44973(16) -0.05463(13)
C5 C 1.1829(3) -0.5060(2) 0.0310(2)
F13 F 1.2689(2) -0.50793(16) 0.04794(14)
F14 F 1.1189(2) -0.4894(2) 0.07849(13)
F15 F 1.1823(3) -0.56898(15) 0.0242(2)
S6 S 0.24455(5) -0.41969(4) 0.64111(4)
O16 O 0.2608(2) -0.35214(12) 0.61552(13)
O17 O 0.33069(16) -0.47280(12) 0.64937(12)
O18 O 0.1708(2) -0.42159(16) 0.69219(13)
C6 C 0.1963(3) -0.44223(18) 0.57577(17)
F16 F 0.2575(2) -0.44215(17) 0.52386(11)
F17 F 0.1774(2) -0.50426(12) 0.59024(12)
F18 F 0.1160(2) -0.39780(15) 0.56060(16)
N1 N 0.46118(17) -0.27965(13) 0.44681(12)
C7 C 0.5567(2) -0.29605(16) 0.44724(14)
C8 C 0.6068(2) -0.24563(15) 0.40516(14)
O19 O 0.58510(16) -0.22490(12) 0.35101(10)
C9 C 0.6058(2) -0.35580(18) 0.48204(18)
C10 C 0.5543(3) -0.4005(2) 0.5189(2)
C11 C 0.4561(3) -0.3832(2) 0.52089(18)
C12 C 0.4120(2) -0.32242(17) 0.48355(16)
N2 N 0.72796(18) -0.17954(13) 0.38857(12)
C13 C 0.6800(2) -0.21989(15) 0.43102(14)
C14 C 0.6962(2) -0.23441(17) 0.49458(15)
C15 C 0.7633(3) -0.2070(2) 0.51540(17)
C16 C 0.8136(3) -0.16745(19) 0.47203(18)
C17 C 0.7940(2) -0.15520(17) 0.40864(17)
N3 N 0.3708(2) -0.15154(14) 0.26864(13)
C18 C 0.4300(2) -0.18243(17) 0.22314(15)
C19 C 0.4870(2) -0.25464(17) 0.24003(14)
O20 O 0.56719(17) -0.27127(14) 0.21493(12)
C20 C 0.4420(3) -0.1502(2) 0.16050(17)
C21 C 0.3885(3) -0.0830(2) 0.14443(18)
C22 C 0.3263(3) -0.05206(19) 0.1900(2)
C23 C 0.3192(3) -0.08723(18) 0.25145(18)
N4 N 0.50485(17) -0.36419(13) 0.31088(13)
C24 C 0.4423(2) -0.30615(15) 0.28614(14)
C25 C 0.3451(2) -0.29727(15) 0.29970(15)
C26 C 0.3095(2) -0.34850(17) 0.34030(17)
C27 C 0.3720(2) -0.40634(18) 0.36633(18)
C28 C 0.4694(2) -0.41251(16) 0.35049(16)
N5 N 0.66523(18) -0.10026(13) 0.19175(12)
C29 C 0.7085(2) -0.13799(15) 0.14600(14)
C30 C 0.7687(2) -0.20837(15) 0.16851(14)
O21 O 0.77866(17) -0.22892(12) 0.22476(10)
C31 C 0.7008(2) -0.11175(17) 0.08185(15)
C32 C 0.6467(3) -0.04494(18) 0.06496(15)
C33 C 0.6036(3) -0.00670(18) 0.11163(17)
C34 C 0.6140(2) -0.03638(17) 0.17509(16)
N6 N 0.91330(17) -0.28268(12) 0.12907(11)
C35 C 0.8202(2) -0.25408(15) 0.12129(14)
C36 C 0.7733(2) -0.26804(17) 0.07509(16)
C37 C 0.8256(3) -0.31243(19) 0.03380(16)
C38 C 0.9208(2) -0.34071(18) 0.04012(16)
C39 C 0.9626(2) -0.32458(16) 0.08837(15)
N7 N 0.97462(17) -0.30329(12) 0.32421(11)
C40 C 0.9122(2) -0.33673(14) 0.36024(14)
C41 C 0.8426(2) -0.36016(14) 0.32875(13)
O22 O 0.75938(15) -0.34983(12) 0.35125(11)
C42 C 0.9075(2) -0.35029(16) 0.42636(14)
C43 C 0.9708(2) -0.32924(18) 0.45680(15)
C44 C 1.0349(2) -0.29498(18) 0.42030(15)
C45 C 1.0338(2) -0.28169(16) 0.35468(15)
N8 N 0.80775(17) -0.40845(12) 0.24228(12)
C46 C 0.8764(2) -0.39945(14) 0.27439(13)
C47 C 0.9725(2) -0.42831(15) 0.25996(15)
C48 C 0.9993(2) -0.46667(16) 0.21066(16)
C49 C 0.9296(2) -0.47415(16) 0.17658(16)
C50 C 0.8350(2) -0.44441(16) 0.19422(15)
N9 N 0.35815(19) -0.32155(15) 0.94081(13)
C51 C 0.4083(2) -0.28472(18) 0.89706(16)
C52 C 0.3646(2) -0.20881(19) 0.87854(16)
O23 O 0.3795(2) -0.18206(17) 0.82385(13)
C53 C 0.4953(3) -0.3138(2) 0.86648(18)
C54 C 0.5333(3) -0.3837(2) 0.88120(19)
C55 C 0.4817(3) -0.4224(2) 0.9256(2)
C56 C 0.3961(3) -0.39018(19) 0.95393(17)
N10 N 0.2350(2) -0.11493(14) 0.90467(13)
C57 C 0.3050(2) -0.16828(16) 0.92709(15)
C58 C 0.3234(2) -0.18275(18) 0.99054(16)
C59 C 0.2686(3) -0.14115(19) 1.03245(16)
C60 C 0.1967(3) -0.08689(18) 1.01027(17)
C61 C 0.1817(3) -0.07552(17) 0.94614(17)
N11 N 0.05646(18) -0.20491(13) 0.97894(12)
C62 C 0.0120(2) -0.19416(15) 0.92544(14)
C63 C 0.0586(2) -0.24345(15) 0.87967(14)
O24 O 0.14485(16) -0.25492(13) 0.86723(11)
C64 C -0.0683(2) -0.14215(17) 0.91374(16)
C65 C -0.1071(3) -0.10017(18) 0.95946(18)
C66 C -0.0655(3) -0.11277(17) 1.01565(18)
C67 C 0.0164(2) -0.16561(17) 1.02389(16)
N12 N 0.04417(17) -0.31967(13) 0.80892(12)
C68 C -0.0016(2) -0.27945(15) 0.85271(13)
C69 C -0.0975(2) -0.27500(17) 0.87360(15)
C70 C -0.1483(2) -0.31105(18) 0.84739(17)
C71 C -0.1021(2) -0.35041(17) 0.80134(17)
C72 C -0.0059(2) -0.35353(16) 0.78383(15)
N13 N 0.35258(17) -0.38941(13) 0.77279(12)
C73 C 0.4059(2) -0.35488(15) 0.72829(14)
C74 C 0.3570(2) -0.28184(16) 0.70389(14)
O25 O 0.27448(16) -0.25699(12) 0.72090(11)
C75 C 0.4970(2) -0.38572(17) 0.70514(15)
C76 C 0.5368(2) -0.45433(17) 0.72915(16)
C77 C 0.4827(2) -0.48938(17) 0.77486(16)
C78 C 0.3910(2) -0.45543(16) 0.79516(15)
N14 N 0.36487(17) -0.20783(12) 0.60296(12)
C79 C 0.4104(2) -0.23827(16) 0.65543(15)
C80 C 0.4967(3) -0.2262(2) 0.66518(17)
C81 C 0.5370(3) -0.1809(2) 0.6208(2)
C82 C 0.4917(2) -0.15025(17) 0.56673(17)
C83 C 0.4064(2) -0.16556(15) 0.55930(15)
N15 N 0.06357(18) -0.20839(14) 0.64410(12)
C84 C 0.0179(2) -0.16755(16) 0.68668(14)
C85 C 0.0732(2) -0.12814(16) 0.71369(14)
O26 O 0.06148(18) -0.12655(13) 0.77058(11)
C86 C -0.0773(2) -0.1640(2) 0.70966(17)
C87 C -0.1262(2) -0.2047(2) 0.68807(18)
C88 C -0.0786(3) -0.2487(2) 0.64665(18)
C89 C 0.0157(2) -0.24864(18) 0.62518(16)
N16 N 0.2091(2) -0.07587(13) 0.69883(12)
C90 C 0.1405(2) -0.09073(15) 0.67089(14)
C91 C 0.1290(2) -0.06976(16) 0.60619(15)
C92 C 0.1913(2) -0.03324(17) 0.56893(15)
C93 C 0.2637(2) -0.02018(17) 0.59728(16)
C94 C 0.2697(2) -0.04253(17) 0.66211(16)
H1 H 0.67335 -0.36608 0.48078
H2 H 0.58634 -0.44245 0.54248
H3 H 0.41923 -0.41210 0.54706
H4 H 0.34448 -0.31090 0.48422
H5 H 0.66197 -0.26283 0.52378
H6 H 0.77412 -0.21562 0.55910
H7 H 0.86060 -0.14890 0.48493
H8 H 0.82926 -0.12838 0.37840
H9 H 0.48512 -0.17316 0.12978
H10 H 0.39522 -0.05898 0.10237
H11 H 0.28822 -0.00676 0.17949
H12 H 0.27612 -0.06504 0.28266
H13 H 0.30285 -0.25653 0.28149
H14 H 0.24263 -0.34352 0.34989
H15 H 0.34926 -0.44174 0.39478
H16 H 0.51242 -0.45283 0.36862
H17 H 0.73184 -0.13888 0.05012
H18 H 0.63988 -0.02615 0.02149
H19 H 0.56728 0.03917 0.10107
H20 H 0.58346 -0.01008 0.20751
H21 H 0.70740 -0.24799 0.07155
H22 H 0.79550 -0.32306 0.00149
H23 H 0.95753 -0.37068 0.01212
H24 H 1.02850 -0.34400 0.09261
H25 H 0.86181 -0.37352 0.45009
H26 H 0.97000 -0.33821 0.50181
H27 H 1.07969 -0.28054 0.43996
H28 H 1.07660 -0.25629 0.33032
H29 H 1.01937 -0.42179 0.28365
H30 H 1.06455 -0.48744 0.20051
H31 H 0.94589 -0.49911 0.14178
H32 H 0.78712 -0.44998 0.17081
H33 H 0.52832 -0.28592 0.83573
H34 H 0.59320 -0.40471 0.86145
H35 H 0.50537 -0.47074 0.93639
H36 H 0.36165 -0.41746 0.98430
H37 H 0.37308 -0.22074 1.00493
H38 H 0.28045 -0.14988 1.07597
H39 H 0.15790 -0.05770 1.03824
H40 H 0.13156 -0.03826 0.93109
H41 H -0.09669 -0.13517 0.87498
H42 H -0.16155 -0.06332 0.95207
H43 H -0.09209 -0.08588 1.04831
H44 H 0.04500 -0.17419 1.06273
H45 H -0.12780 -0.24769 0.90533
H46 H -0.21375 -0.30868 0.86090
H47 H -0.13559 -0.37483 0.78208
H48 H 0.02574 -0.38103 0.75252
H49 H 0.53202 -0.36045 0.67322
H50 H 0.59949 -0.47637 0.71442
H51 H 0.50782 -0.53612 0.79220
H52 H 0.35412 -0.48014 0.82626
H53 H 0.52769 -0.24900 0.70210
H54 H 0.59511 -0.17101 0.62724
H55 H 0.51832 -0.11919 0.53520
H56 H 0.37618 -0.14519 0.52156
H57 H -0.10806 -0.13436 0.73946
H58 H -0.19170 -0.20222 0.70177
H59 H -0.10976 -0.27865 0.63287
H60 H 0.04778 -0.27845 0.59578
H61 H 0.07945 -0.08027 0.58792
H62 H 0.18433 -0.01760 0.52498
H63 H 0.30834 0.00358 0.57292
H64 H 0.31966 -0.03357 0.68122
Ag4_2 Ag 0.207287(16) -0.277715(13) 0.986089(12)
Ag7A Ag 0.79332(2) 0.091390(14) 0.196450(12)
Ag8A Ag 0.342102(16) -0.617789(14) 0.718668(13)
O8A O 0.1101(3) 0.02549(15) 0.83231(15)
O17A O 0.66931(16) -0.52720(12) 0.35063(12)
N9_2 N 1.35815(19) -0.32155(15) -0.05919(13)
N11_2 N 1.05646(18) -0.20491(13) -0.02106(12)
O24_2 O 1.14485(16) -0.25492(13) -0.13277(11)
S7 S 0.36679(7) 0.14495(5) 0.08756(4)
O27 O 0.4639(2) 0.15346(16) 0.06954(15)
O28 O 0.2949(2) 0.20498(16) 0.06827(14)
O29 O 0.3524(3) 0.08066(16) 0.07857(14)
C95 C 0.3592(3) 0.1376(2) 0.17346(18)
F19 F 0.27260(18) 0.12741(15) 0.19898(12)
F20 F 0.42398(18) 0.08575(14) 0.19916(11)
F21 F 0.3662(2) 0.19508(14) 0.19263(14)
S8 S 0.78878(7) -0.40996(5) 0.63210(5)
O30 O 0.8195(3) -0.35405(16) 0.59035(19)
O31 O 0.8094(4) -0.4214(2) 0.69680(18)
O32 O 0.6955(2) -0.4166(2) 0.62266(18)
C96 C 0.8658(4) -0.4849(2) 0.6012(2)
F22 F 0.8489(3) -0.4823(2) 0.54054(16)
F23 F 0.9557(2) -0.48764(19) 0.6019(2)
F24 F 0.8510(3) -0.54310(15) 0.63373(17)
O33 O 0.4596(2) 0.24859(15) -0.04715(14)
C97 C 0.4369(3) 0.3173(2) -0.0355(2)
C98 C 0.4335(4) 0.3658(3) -0.0976(3)
H65 H 0.45470 0.22122 0.00001
H66 H 0.37598 0.32657 -0.01184
H67 H 0.48354 0.32371 -0.01161
H68 H 0.49834 0.34710 -0.12198
H69 H 0.37764 0.36313 -0.12009
H70 H 0.42525 0.41203 -0.08870
loop_
_geom_bond_atom_site_label_1
_geom_bond_atom_site_label_2
_geom_bond_site_symmetry_1
_geom_bond_site_symmetry_2
Ag1 O1 1_555 1_555
Ag2 O4 1_555 1_555
Ag3 O7 1_555 1_555
Ag4 O11 1_555 1_555
Ag5 O18 1_555 1_555
Ag6 O3 1_555 1_555
Ag7 O23 1_555 1_555
Ag8 O20 1_555 1_555
S1 O1 1_555 1_555
O2 Ag1 1_555 1_555
O3 S1 1_555 1_555
C1 S1 1_555 1_555
F1 C1 1_555 1_555
F2 C1 1_555 1_555
F3 C1 1_555 1_555
S2 O4 1_555 1_555
O5 Ag1 1_555 1_555
O6 S2 1_555 1_555
C2 S2 1_555 1_555
F4 C2 1_555 1_555
F5 C2 1_555 1_555
F6 C2 1_555 1_555
S3 O7 1_555 1_555
O8 S3 1_555 1_555
O9 S3 1_555 1_555
C3 S3 1_555 1_555
F7 C3 1_555 1_555
F8 C3 1_555 1_555
F9 C3 1_555 1_555
S4 O10 1_555 1_555
O10 Ag3 1_555 1_555
O11 S4 1_555 1_555
O12 S4 1_555 1_555
C4 S4 1_555 1_555
F10 C4 1_555 1_555
F11 C4 1_555 1_555
F12 C4 1_555 1_555
S5 O13 1_555 1_555
O13 Ag4 1_555 1_555
O14 S5 1_555 1_555
O15 S5 1_555 1_555
C5 S5 1_555 1_555
F13 C5 1_555 1_555
F14 C5 1_555 1_555
F15 C5 1_555 1_555
S6 O16 1_555 1_555
O16 Ag6 1_555 1_555
O17 S6 1_555 1_555
O18 S6 1_555 1_555
C6 S6 1_555 1_555
F16 C6 1_555 1_555
F17 C6 1_555 1_555
F18 C6 1_555 1_555
N1 Ag1 1_555 1_555
C7 N1 1_555 1_555
C8 C7 1_555 1_555
O19 Ag1 1_555 1_555
C9 C7 1_555 1_555
C10 C9 1_555 1_555
C11 C10 1_555 1_555
C12 N1 1_555 1_555
N2 Ag2 1_555 1_555
C13 C8 1_555 1_555
C14 C13 1_555 1_555
C15 C14 1_555 1_555
C16 C15 1_555 1_555
C17 N2 1_555 1_555
N3 Ag1 1_555 1_555
C18 N3 1_555 1_555
C19 C18 1_555 1_555
O20 C19 1_555 1_555
C20 C18 1_555 1_555
C21 C20 1_555 1_555
C22 C21 1_555 1_555
C23 N3 1_555 1_555
N4 Ag8 1_555 1_555
C24 C19 1_555 1_555
C25 C24 1_555 1_555
C26 C25 1_555 1_555
C27 C26 1_555 1_555
C28 N4 1_555 1_555
N5 Ag2 1_555 1_555
C29 N5 1_555 1_555
C30 C29 1_555 1_555
O21 Ag2 1_555 1_555
C31 C29 1_555 1_555
C32 C31 1_555 1_555
C33 C32 1_555 1_555
C34 N5 1_555 1_555
N6 Ag3 1_555 1_555
C35 C30 1_555 1_555
C36 C35 1_555 1_555
C37 C36 1_555 1_555
C38 C37 1_555 1_555
C39 N6 1_555 1_555
N7 Ag3 1_555 1_555
C40 N7 1_555 1_555
C41 C40 1_555 1_555
O22 Ag8 1_555 1_555
C42 C40 1_555 1_555
C43 C42 1_555 1_555
C44 C43 1_555 1_555
C45 N7 1_555 1_555
N8 Ag8 1_555 1_555
C46 C41 1_555 1_555
C47 C46 1_555 1_555
C48 C47 1_555 1_555
C49 C48 1_555 1_555
C50 N8 1_555 1_555
N9 C51 1_555 1_555
C51 C52 1_555 1_555
C52 O23 1_555 1_555
C53 C51 1_555 1_555
C54 C53 1_555 1_555
C55 C54 1_555 1_555
C56 N9 1_555 1_555
N10 Ag7 1_555 1_555
C57 C52 1_555 1_555
C58 C57 1_555 1_555
C59 C58 1_555 1_555
C60 C59 1_555 1_555
C61 N10 1_555 1_555
N11 C62 1_555 1_555
C62 C63 1_555 1_555
C63 O24 1_555 1_555
O24 Ag5 1_555 1_555
C64 C62 1_555 1_555
C65 C64 1_555 1_555
C66 C65 1_555 1_555
C67 N11 1_555 1_555
N12 Ag5 1_555 1_555
C68 C63 1_555 1_555
C69 C68 1_555 1_555
C70 C69 1_555 1_555
C71 C70 1_555 1_555
C72 N12 1_555 1_555
N13 Ag5 1_555 1_555
C73 N13 1_555 1_555
C74 C73 1_555 1_555
O25 Ag5 1_555 1_555
C75 C73 1_555 1_555
C76 C75 1_555 1_555
C77 C76 1_555 1_555
C78 N13 1_555 1_555
N14 Ag6 1_555 1_555
C79 C74 1_555 1_555
C80 C79 1_555 1_555
C81 C80 1_555 1_555
C82 C81 1_555 1_555
C83 N14 1_555 1_555
N15 Ag6 1_555 1_555
C84 N15 1_555 1_555
C85 C84 1_555 1_555
O26 Ag7 1_555 1_555
C86 C84 1_555 1_555
C87 C86 1_555 1_555
C88 C87 1_555 1_555
C89 N15 1_555 1_555
N16 Ag7 1_555 1_555
C90 C85 1_555 1_555
C91 C90 1_555 1_555
C92 C91 1_555 1_555
C93 C92 1_555 1_555
C94 N16 1_555 1_555
H1 C9 1_555 1_555
H2 C10 1_555 1_555
H3 C11 1_555 1_555
H4 C12 1_555 1_555
H5 C14 1_555 1_555
H6 C15 1_555 1_555
H7 C16 1_555 1_555
H8 C17 1_555 1_555
H9 C20 1_555 1_555
H10 C21 1_555 1_555
H11 C22 1_555 1_555
H12 C23 1_555 1_555
H13 C25 1_555 1_555
H14 C26 1_555 1_555
H15 C27 1_555 1_555
H16 C28 1_555 1_555
H17 C31 1_555 1_555
H18 C32 1_555 1_555
H19 C33 1_555 1_555
H20 C34 1_555 1_555
H21 C36 1_555 1_555
H22 C37 1_555 1_555
H23 C38 1_555 1_555
H24 C39 1_555 1_555
H25 C42 1_555 1_555
H26 C43 1_555 1_555
H27 C44 1_555 1_555
H28 C45 1_555 1_555
H29 C47 1_555 1_555
H30 C48 1_555 1_555
H31 C49 1_555 1_555
H32 C50 1_555 1_555
H33 C53 1_555 1_555
H34 C54 1_555 1_555
H35 C55 1_555 1_555
H36 C56 1_555 1_555
H37 C58 1_555 1_555
H38 C59 1_555 1_555
H39 C60 1_555 1_555
H40 C61 1_555 1_555
H41 C64 1_555 1_555
H42 C65 1_555 1_555
H43 C66 1_555 1_555
H44 C67 1_555 1_555
H45 C69 1_555 1_555
H46 C70 1_555 1_555
H47 C71 1_555 1_555
H48 C72 1_555 1_555
H49 C75 1_555 1_555
H50 C76 1_555 1_555
H51 C77 1_555 1_555
H52 C78 1_555 1_555
H53 C80 1_555 1_555
H54 C81 1_555 1_555
H55 C82 1_555 1_555
H56 C83 1_555 1_555
H57 C86 1_555 1_555
H58 C87 1_555 1_555
H59 C88 1_555 1_555
H60 C89 1_555 1_555
H61 C91 1_555 1_555
H62 C92 1_555 1_555
H63 C93 1_555 1_555
H64 C94 1_555 1_555
S7 O27 1_555 1_555
O28 S7 1_555 1_555
O29 S7 1_555 1_555
C95 S7 1_555 1_555
F19 C95 1_555 1_555
F20 C95 1_555 1_555
F21 C95 1_555 1_555
S8 O30 1_555 1_555
O31 S8 1_555 1_555
O32 S8 1_555 1_555
C96 S8 1_555 1_555
F22 C96 1_555 1_555
F23 C96 1_555 1_555
F24 C96 1_555 1_555
O33 C97 1_555 1_555
C97 C98 1_555 1_555
C98 H68 1_555 1_555
H65 O33 1_555 1_555
H66 C97 1_555 1_555
H67 C97 1_555 1_555
H69 C98 1_555 1_555
H70 C98 1_555 1_555
Ag4_2 N9 1_555 1_555
Ag7A O8 1_555 1_555
Ag8A O17 1_555 1_555
O8A Ag7 1_555 1_555
O17A Ag8 1_555 1_555
N9_2 Ag4 1_555 1_555
N11_2 Ag4 1_555 1_555
O24_2 Ag4 1_555 1_555
Ag2 O19 1_555 1_555
Ag3 O21 1_555 1_555
Ag6 O25 1_555 1_555
S1 O2 1_555 1_555
S2 O5 1_555 1_555
C8 O19 1_555 1_555
C11 C12 1_555 1_555
N2 C13 1_555 1_555
C16 C17 1_555 1_555
C22 C23 1_555 1_555
N4 C24 1_555 1_555
C27 C28 1_555 1_555
C30 O21 1_555 1_555
C33 C34 1_555 1_555
N6 C35 1_555 1_555
C38 C39 1_555 1_555
C41 O22 1_555 1_555
C44 C45 1_555 1_555
N8 C46 1_555 1_555
C49 C50 1_555 1_555
C55 C56 1_555 1_555
N10 C57 1_555 1_555
C60 C61 1_555 1_555
N11 Ag4_2 1_555 1_555
O24 Ag4_2 1_555 1_555
C66 C67 1_555 1_555
N12 C68 1_555 1_555
C71 C72 1_555 1_555
C74 O25 1_555 1_555
C77 C78 1_555 1_555
N14 C79 1_555 1_555
C82 C83 1_555 1_555
C85 O26 1_555 1_555
C88 C89 1_555 1_555
N16 C90 1_555 1_555
C93 C94 1_555 1_555

#END
