
#######################################################################
#
#                 Cambridge Crystallographic Data Centre
#                                CCDC 
#
#######################################################################
#
# If this CIF has been generated from an entry in the Cambridge 
# Structural Database, then it will include bibliographic, chemical, 
# crystal, experimental, refinement or atomic coordinate data resulting 
# from the CCDC's data processing and validation procedures.
#
#######################################################################

data_PUSNOI
_symmetry_cell_setting           monoclinic
_symmetry_space_group_name_H-M   'P 21/c'
_symmetry_Int_Tables_number      14
_space_group_name_Hall           '-P 2ybc'
loop_
_symmetry_equiv_pos_site_id
_symmetry_equiv_pos_as_xyz
1 x,y,z
2 -x,1/2+y,1/2-z
3 -x,-y,-z
4 x,1/2-y,1/2+z
_cell_length_a                   9.9555(6)
_cell_length_b                   16.4810(10)
_cell_length_c                   16.1393(10)
_cell_angle_alpha                90
_cell_angle_beta                 100.6730(10)
_cell_angle_gamma                90
_cell_volume                     2602.27
loop_
_atom_site_label
_atom_site_type_symbol
_atom_site_fract_x
_atom_site_fract_y
_atom_site_fract_z
Co1 Co 0.99141(4) 0.14933(2) 0.45688(2)
O1 O 1.0911(2) 0.04315(14) 0.37283(15)
N1 N 1.0273(2) 0.25210(14) 0.53399(14)
O2 O 1.0609(2) 0.07473(12) 0.56649(13)
H1 H 1.0184 0.0515 0.6010
H2 H 1.1435 0.0598 0.5791
C1 C 1.1400(3) 0.25609(18) 0.59413(19)
H3 H 1.2007 0.2127 0.6007
N2 N 0.8726(3) 0.45003(15) 0.56495(16)
H4 H 0.8725 0.4791 0.6092
O3 O 1.1937(2) 0.14660(14) 0.44224(16)
C2 C 1.1688(3) 0.32254(19) 0.6467(2)
H5 H 1.2470 0.3235 0.6884
O4 O 1.81960(18) 0.08182(11) 0.44359(13)
N3 N 0.3252(2) 0.71054(15) 0.35582(15)
H6 H 0.3488 0.7447 0.3962
C3 C 1.0806(3) 0.38673(19) 0.6363(2)
H7 H 1.0982 0.4318 0.6713
O5 O 1.6968(2) 0.17107(13) 0.50025(15)
N4 N 0.0768(2) 0.71682(14) 0.15513(14)
C4 C 0.9643(3) 0.38472(18) 0.57330(18)
O6 O 0.7769(3) 0.43605(15) 0.42793(15)
C5 C 0.9411(3) 0.31507(17) 0.52368(17)
H8 H 0.8631 0.3123 0.4820
O7 O 0.3739(3) 0.58830(14) 0.30531(15)
C6 C 0.7841(3) 0.47207(18) 0.4945(2)
O8 O 0.6597(2) 0.71417(13) 0.64075(13)
H9 H 0.6992 0.7553 0.6297
C7 C 0.6960(3) 0.54462(17) 0.50199(19)
C8 C 0.7165(3) 0.59663(16) 0.57089(19)
H10 H 0.7851 0.5857 0.6170
C9 C 0.6354(3) 0.66429(16) 0.57098(18)
C10 C 0.5301(3) 0.68043(18) 0.50447(18)
H11 H 0.4743 0.7255 0.5058
C11 C 0.5085(3) 0.62820(18) 0.43531(18)
C12 C 0.5917(3) 0.56121(18) 0.43403(19)
H12 H 0.5779 0.5270 0.3874
C13 C 0.3976(3) 0.64050(18) 0.36034(19)
C14 C 0.2149(3) 0.73335(17) 0.29167(18)
C15 C 0.1336(3) 0.79768(18) 0.30798(19)
H13 H 0.1532 0.8254 0.3590
C16 C 0.0234(3) 0.8198(2) 0.2475(2)
H14 H -0.0328 0.8625 0.2570
C17 C -0.0022(3) 0.77779(19) 0.17249(19)
H15 H -0.0777 0.7924 0.1322
C18 C 0.1847(3) 0.69582(17) 0.21367(18)
H16 H 0.2416 0.6545 0.2015
C19 C 1.1979(3) 0.08206(19) 0.40114(19)
C20 C 1.3346(3) 0.05314(16) 0.38670(18)
C21 C 1.4521(3) 0.09039(16) 0.42919(18)
H17 H 1.4454 0.1328 0.4662
C22 C 1.5797(3) 0.06488(16) 0.41686(17)
C23 C 1.5865(3) -0.00010(17) 0.36230(18)
H18 H 1.6717 -0.0179 0.3541
C24 C 1.4704(3) -0.03904(18) 0.31986(19)
C25 C 1.3442(3) -0.01104(18) 0.33255(19)
H19 H 1.2648 -0.0357 0.3043
C26 C 1.4819(4) -0.1083(2) 0.2605(2)
H20 H 1.5765 -0.1189 0.2600
H21 H 1.4360 -0.0941 0.2047
H22 H 1.4403 -0.1559 0.2790
C27 C 1.7056(3) 0.10947(17) 0.45820(18)
Co1_2 Co 1.99141(4) 0.14933(2) 0.45688(2)
Co1A Co 0.00859(4) 0.64933(2) 0.04312(2)
O4_2 O 0.81960(18) 0.08182(11) 0.44359(13)
N4A N 0.9232(2) 0.21682(14) 0.34487(14)
O9 O 0.8737(3) 0.00248(14) 0.23881(14)
loop_
_geom_bond_atom_site_label_1
_geom_bond_atom_site_label_2
_geom_bond_site_symmetry_1
_geom_bond_site_symmetry_2
Co1 N1 1_555 1_555
O1 C19 1_555 1_555
N1 C1 1_555 1_555
O2 Co1 1_555 1_555
H1 O2 1_555 1_555
H2 O2 1_555 1_555
C1 H3 1_555 1_555
N2 H4 1_555 1_555
O3 Co1 1_555 1_555
C2 C1 1_555 1_555
H5 C2 1_555 1_555
O4 C27 1_555 1_555
N3 H6 1_555 1_555
C3 C2 1_555 1_555
H7 C3 1_555 1_555
O5 C27 1_555 1_555
N4 C17 1_555 1_555
C4 N2 1_555 1_555
O6 C6 1_555 1_555
C5 N1 1_555 1_555
H8 C5 1_555 1_555
O7 C13 1_555 1_555
C6 N2 1_555 1_555
O8 H9 1_555 1_555
C7 C6 1_555 1_555
C8 C7 1_555 1_555
H10 C8 1_555 1_555
C9 O8 1_555 1_555
C10 C9 1_555 1_555
H11 C10 1_555 1_555
C11 C10 1_555 1_555
C12 C7 1_555 1_555
H12 C12 1_555 1_555
C13 N3 1_555 1_555
C14 N3 1_555 1_555
C15 C14 1_555 1_555
H13 C15 1_555 1_555
C16 C15 1_555 1_555
H14 C16 1_555 1_555
C17 C16 1_555 1_555
H15 C17 1_555 1_555
C18 N4 1_555 1_555
H16 C18 1_555 1_555
C19 O3 1_555 1_555
C20 C19 1_555 1_555
C21 C20 1_555 1_555
H17 C21 1_555 1_555
C22 C21 1_555 1_555
C23 C22 1_555 1_555
H18 C23 1_555 1_555
C24 C23 1_555 1_555
C25 C20 1_555 1_555
H19 C25 1_555 1_555
C26 C24 1_555 1_555
H20 C26 1_555 1_555
H21 C26 1_555 1_555
H22 C26 1_555 1_555
C27 C22 1_555 1_555
Co1_2 O4 1_555 1_555
Co1A N4 1_555 1_555
O4_2 Co1 1_555 1_555
N4A Co1 1_555 1_555
C3 C4 1_555 1_555
C4 C5 1_555 1_555
C8 C9 1_555 1_555
C11 C12 1_555 1_555
C11 C13 1_555 1_555
C14 C18 1_555 1_555
C24 C25 1_555 1_555

#END
