
#######################################################################
#
#                 Cambridge Crystallographic Data Centre
#                                CCDC 
#
#######################################################################
#
# If this CIF has been generated from an entry in the Cambridge 
# Structural Database, then it will include bibliographic, chemical, 
# crystal, experimental, refinement or atomic coordinate data resulting 
# from the CCDC's data processing and validation procedures.
#
#######################################################################

data_PUSXIL
_symmetry_cell_setting           tetragonal
_symmetry_space_group_name_H-M   'I -4 2 d'
_symmetry_Int_Tables_number      122
_space_group_name_Hall           'I -4 2bw'
loop_
_symmetry_equiv_pos_site_id
_symmetry_equiv_pos_as_xyz
1 x,y,z
2 y,-x,-z
3 -x,-y,z
4 -y,x,-z
5 x,1/2-y,1/4-z
6 1/2-y,-x,3/4+z
7 -x,1/2+y,1/4-z
8 1/2+y,x,3/4+z
9 1/2+x,1/2+y,1/2+z
10 1/2+y,1/2-x,1/2-z
11 1/2-x,1/2-y,1/2+z
12 1/2-y,1/2+x,1/2-z
13 1/2+x,-y,3/4-z
14 -y,1/2-x,1/4+z
15 1/2-x,y,3/4-z
16 y,1/2+x,1/4+z
_cell_length_a                   18.310(6)
_cell_length_b                   18.310(6)
_cell_length_c                   23.222(11)
_cell_angle_alpha                90
_cell_angle_beta                 90
_cell_angle_gamma                90
_cell_volume                     7785.32
loop_
_atom_site_label
_atom_site_type_symbol
_atom_site_fract_x
_atom_site_fract_y
_atom_site_fract_z
Zn1 Zn 0.28051(4) 0.22488(4) 0.22233(3)
Zn2 Zn 0.13207(6) 0.2500 0.1250
C1 C 0.2727(4) 0.4539(3) 0.1509(3)
C2 C 0.2787(4) 0.4944(4) 0.1000(3)
H1 H 0.2780 0.4704 0.0648
C3 C 0.2858(4) 0.5715(4) 0.1014(3)
C4 C 0.2867(4) 0.6072(3) 0.1533(3)
H2 H 0.2920 0.6576 0.1544
C5 C 0.2798(4) 0.5680(3) 0.2039(3)
C6 C 0.2733(4) 0.4909(4) 0.2026(3)
H3 H 0.2694 0.4651 0.2370
C7 C 0.2884(5) 0.6121(4) 0.0450(3)
C8 C 0.2761(4) 0.6088(4) 0.2604(3)
O1 O 0.2943(3) 0.3269(3) 0.2010(2)
O2 O 0.1819(3) 0.3420(3) 0.1397(2)
O3 O 0.3052(3) 0.3336(3) 0.0932(2)
O4 O 0.2939(3) 0.6796(3) 0.0481(2)
O5 O 0.2810(5) 0.5784(3) -0.0003(2)
O6 O 0.2883(4) 0.6752(3) 0.2590(2)
O7 O 0.2646(3) 0.5715(2) 0.30577(17)
P1 P 0.26261(10) 0.35775(9) 0.14601(7)
Zn1I Zn -0.27512(4) 0.21949(4) 0.27767(3)
Zn1D Zn 0.28051(4) 0.27512(4) 0.02767(3)
Zn1E Zn 0.27512(4) 0.71949(4) -0.02767(3)
Zn1K Zn 0.27512(4) 0.78051(4) 0.27767(3)
Zn1M Zn -0.22488(4) 0.21949(4) 0.47233(3)
Zn1N Zn 0.21949(4) 0.22488(4) 0.52767(3)
Zn2K Zn 0.2500 0.63207(6) 0.3750
Zn2I Zn -0.2500 0.36793(6) 0.3750
C1I C -0.0461(3) 0.2273(4) 0.3491(3)
C2I C -0.0056(4) 0.2213(4) 0.4000(3)
H1I H -0.0296 0.2220 0.4352
C3I C 0.0715(4) 0.2142(4) 0.3986(3)
C4I C 0.1072(3) 0.2133(4) 0.3467(3)
H2I H 0.1576 0.2080 0.3456
C5I C 0.0680(3) 0.2202(4) 0.2961(3)
C6I C -0.0091(4) 0.2267(4) 0.2974(3)
H3I H -0.0349 0.2306 0.2630
C7I C 0.1121(4) 0.2116(5) 0.4550(3)
C8I C 0.1088(4) 0.2239(4) 0.2396(3)
O1I O -0.1731(3) 0.2057(3) 0.2990(2)
O2I O -0.1580(3) 0.3181(3) 0.3603(2)
O2D O 0.1819(3) 0.1580(3) 0.1103(2)
O3I O -0.1664(3) 0.1948(3) 0.4068(2)
O3D O 0.3052(3) 0.1664(3) 0.1568(2)
O3M O -0.3336(3) 0.1948(3) 0.3432(2)
O4I O 0.1796(3) 0.2061(3) 0.4519(2)
O4M O 0.3204(3) 0.2061(3) 0.2981(2)
O4F O -0.2939(3) 0.1796(3) 0.2019(2)
O5I O 0.0784(3) 0.2190(5) 0.5003(2)
O6I O 0.1752(3) 0.2117(4) 0.2410(2)
O6B O -0.2883(4) 0.3248(3) 0.2590(2)
O7I O 0.0715(2) 0.2354(3) 0.19423(17)
O7G O 0.0715(2) 0.2646(3) 0.05577(17)
P1I P -0.14225(9) 0.23739(10) 0.35399(7)
O8 O 0.0451(10) 0.2500 0.6250
H4? H 0.0587 0.2576 0.5745
H5? H 0.0319 0.2912 0.6483
H6? H 0.0236 0.2051 0.6390
O9? O -0.011(2) 0.2500 0.6250
loop_
_geom_bond_atom_site_label_1
_geom_bond_atom_site_label_2
_geom_bond_site_symmetry_1
_geom_bond_site_symmetry_2
Zn1 O1 1_555 1_555
Zn2 O2 1_555 1_555
C1 C2 1_555 1_555
C2 H1 1_555 1_555
C3 C2 1_555 1_555
C4 C3 1_555 1_555
H2 C4 1_555 1_555
C5 C4 1_555 1_555
C6 C1 1_555 1_555
H3 C6 1_555 1_555
C7 C3 1_555 1_555
C8 C5 1_555 1_555
O1 P1 1_555 1_555
O2 P1 1_555 1_555
O3 P1 1_555 1_555
O4 C7 1_555 1_555
O5 C7 1_555 1_555
O6 C8 1_555 1_555
O7 C8 1_555 1_555
P1 C1 1_555 1_555
Zn1I O1I 1_555 1_555
Zn1D O3 1_555 1_555
Zn1E O4 1_555 1_555
Zn1K O6 1_555 1_555
Zn1M O3I 1_555 1_555
Zn1N O4I 1_555 1_555
Zn2K O7 1_555 1_555
Zn2I O2I 1_555 1_555
C1I C2I 1_555 1_555
C2I H1I 1_555 1_555
C3I C2I 1_555 1_555
C4I C3I 1_555 1_555
H2I C4I 1_555 1_555
C5I C4I 1_555 1_555
C6I C1I 1_555 1_555
H3I C6I 1_555 1_555
C7I C3I 1_555 1_555
C8I C5I 1_555 1_555
O1I P1I 1_555 1_555
O2I P1I 1_555 1_555
O2D Zn2 1_555 1_555
O3I P1I 1_555 1_555
O3D Zn1 1_555 1_555
O3M Zn1I 1_555 1_555
O4I C7I 1_555 1_555
O4M Zn1 1_555 1_555
O4F Zn1I 1_555 1_555
O5I C7I 1_555 1_555
O6I Zn1 1_555 1_555
O6B Zn1I 1_555 1_555
O7I Zn2 1_555 1_555
O7G Zn2 1_555 1_555
P1I C1I 1_555 1_555
C5 C6 1_555 1_555
C5I C6I 1_555 1_555
C8I O6I 1_555 1_555
C8I O7I 1_555 1_555

#END
