
#######################################################################
#
#                 Cambridge Crystallographic Data Centre
#                                CCDC 
#
#######################################################################
#
# If this CIF has been generated from an entry in the Cambridge 
# Structural Database, then it will include bibliographic, chemical, 
# crystal, experimental, refinement or atomic coordinate data resulting 
# from the CCDC's data processing and validation procedures.
#
#######################################################################

data_PUSXIL01
_symmetry_cell_setting           tetragonal
_symmetry_space_group_name_H-M   'I -4 2 d'
_symmetry_Int_Tables_number      122
_space_group_name_Hall           'I -4 2bw'
loop_
_symmetry_equiv_pos_site_id
_symmetry_equiv_pos_as_xyz
1 x,y,z
2 -x,-y,z
3 y,-x,-z
4 -y,x,-z
5 1/2-x,y,3/4-z
6 1/2+x,-y,3/4-z
7 1/2-y,-x,3/4+z
8 1/2+y,x,3/4+z
9 1/2+x,1/2+y,1/2+z
10 1/2-x,1/2-y,1/2+z
11 1/2+y,1/2-x,1/2-z
12 1/2-y,1/2+x,1/2-z
13 -x,1/2+y,1/4-z
14 x,1/2-y,1/4-z
15 -y,1/2-x,1/4+z
16 y,1/2+x,1/4+z
_cell_length_a                   18.218(4)
_cell_length_b                   18.218(4)
_cell_length_c                   23.552(7)
_cell_angle_alpha                90
_cell_angle_beta                 90
_cell_angle_gamma                90
_cell_volume                     7816.8
loop_
_atom_site_label
_atom_site_type_symbol
_atom_site_fract_x
_atom_site_fract_y
_atom_site_fract_z
Zn1 Zn 0.28309(7) 0.27122(8) 0.02850(5)
Zn2 Zn 0.13068(11) 0.2500 0.1250
P1 P 0.2620(2) 0.14023(19) 0.10779(12)
O1 O 0.2983(5) 0.1719(5) 0.0554(4)
O2 O 0.1807(5) 0.1578(5) 0.1113(3)
O3 O 0.3017(5) 0.1596(5) 0.1623(4)
O4 O 0.2795(7) -0.1890(6) 0.1970(4)
O5 O 0.2809(8) -0.0893(6) 0.2457(4)
O6 O 0.2811(6) -0.1751(5) -0.0130(4)
O7 O 0.2603(6) -0.0682(5) -0.0564(3)
C1 C 0.2708(8) 0.0428(7) 0.0998(5)
C2 C 0.2723(9) -0.0012(7) 0.1481(5)
H1 H 0.2705 0.0210 0.1837
C3 C 0.2763(9) -0.0776(7) 0.1448(5)
C4 C 0.2779(8) -0.1114(7) 0.0932(5)
H2 H 0.2829 -0.1621 0.0908
C5 C 0.2720(8) -0.0696(7) 0.0446(4)
C6 C 0.2689(8) 0.0068(7) 0.0483(4)
H3 H 0.2654 0.0342 0.0151
C7 C 0.2810(9) -0.1228(10) 0.1995(6)
C8 C 0.2693(9) -0.1085(7) -0.0124(5)
Zn1M Zn 0.28309(7) 0.22878(8) 0.22150(5)
Zn1O Zn 0.27122(8) -0.21691(7) 0.27850(5)
Zn1B Zn 0.27122(8) -0.28309(7) -0.02850(5)
Zn1B_2 Zn 0.27122(8) 0.71691(7) -0.02850(5)
Zn1O_2 Zn 0.27122(8) 0.78309(7) 0.27850(5)
Zn2B Zn 0.2500 -0.13068(11) -0.1250
Zn2K Zn 0.2500 0.63068(11) 0.3750
P1M P 0.2620(2) 0.35977(19) 0.14221(12)
O1M O 0.2983(5) 0.3281(5) 0.1946(4)
O2M O 0.1807(5) 0.3422(5) 0.1387(3)
O3M O 0.3017(5) 0.3404(5) 0.0877(4)
O4M O 0.2795(7) 0.6890(6) 0.0530(4)
O4G O 0.3110(6) 0.2795(7) -0.0530(4)
O4J O 0.3110(6) 0.2205(7) 0.3030(4)
O5M O 0.2809(8) 0.5893(6) 0.0043(4)
O6M O 0.2811(6) 0.6751(5) 0.2630(4)
O6C O 0.1751(5) 0.2811(6) 0.0130(4)
O6N O 0.1751(5) 0.2189(6) 0.2370(4)
O7M O 0.2603(6) 0.5682(5) 0.3064(3)
O7C O 0.0682(5) 0.2603(6) 0.0564(3)
O7N O 0.0682(5) 0.2397(6) 0.1936(3)
C1M C 0.2708(8) 0.4572(7) 0.1502(5)
C2M C 0.2723(9) 0.5012(7) 0.1019(5)
H1M H 0.2705 0.4790 0.0663
C3M C 0.2763(9) 0.5776(7) 0.1052(5)
C4M C 0.2779(8) 0.6114(7) 0.1568(5)
H2M H 0.2829 0.6621 0.1592
C5M C 0.2720(8) 0.5696(7) 0.2054(4)
C6M C 0.2689(8) 0.4932(7) 0.2017(4)
H3M H 0.2654 0.4658 0.2349
C7M C 0.2810(9) 0.6228(10) 0.0505(6)
C8M C 0.2693(9) 0.6085(7) 0.2624(5)
O8 O 0.193(2) 0.012(2) 0.3403(17)
H4 H 0.1757 0.0041 0.3803
H5 H 0.2166 0.0621 0.3392
H6 H 0.1989 -0.0367 0.3023
loop_
_geom_bond_atom_site_label_1
_geom_bond_atom_site_label_2
_geom_bond_site_symmetry_1
_geom_bond_site_symmetry_2
Zn1 O1 1_555 1_555
Zn2 O2 1_555 1_555
P1 O1 1_555 1_555
O2 P1 1_555 1_555
O3 P1 1_555 1_555
O4 C7 1_555 1_555
O5 C7 1_555 1_555
O6 C8 1_555 1_555
O7 C8 1_555 1_555
C1 P1 1_555 1_555
C2 C1 1_555 1_555
H1 C2 1_555 1_555
C3 C2 1_555 1_555
C4 C3 1_555 1_555
H2 C4 1_555 1_555
C5 C4 1_555 1_555
C6 C1 1_555 1_555
H3 C6 1_555 1_555
C7 C3 1_555 1_555
C8 C5 1_555 1_555
O8 H4 1_555 1_555
H5 O8 1_555 1_555
H6 O8 1_555 1_555
Zn1M O3 1_555 1_555
Zn1O O4 1_555 1_555
Zn1B O6 1_555 1_555
Zn1B_2 O4M 1_555 1_555
Zn1O_2 O6M 1_555 1_555
Zn2B O7 1_555 1_555
Zn2K O7M 1_555 1_555
P1M O1M 1_555 1_555
O1M Zn1M 1_555 1_555
O2M Zn2 1_555 1_555
O3M Zn1 1_555 1_555
O4M C7M 1_555 1_555
O4G Zn1 1_555 1_555
O4J Zn1M 1_555 1_555
O5M C7M 1_555 1_555
O6M C8M 1_555 1_555
O6C Zn1 1_555 1_555
O6N Zn1M 1_555 1_555
O7M C8M 1_555 1_555
O7C Zn2 1_555 1_555
O7N Zn2 1_555 1_555
C1M P1M 1_555 1_555
C2M C1M 1_555 1_555
H1M C2M 1_555 1_555
C3M C2M 1_555 1_555
C4M C3M 1_555 1_555
H2M C4M 1_555 1_555
C5M C4M 1_555 1_555
C6M C1M 1_555 1_555
H3M C6M 1_555 1_555
C7M C3M 1_555 1_555
C8M C5M 1_555 1_555
C5 C6 1_555 1_555
P1M O2M 1_555 1_555
P1M O3M 1_555 1_555
C5M C6M 1_555 1_555

#END
