
#######################################################################
#
#                 Cambridge Crystallographic Data Centre
#                                CCDC 
#
#######################################################################
#
# If this CIF has been generated from an entry in the Cambridge 
# Structural Database, then it will include bibliographic, chemical, 
# crystal, experimental, refinement or atomic coordinate data resulting 
# from the CCDC's data processing and validation procedures.
#
#######################################################################

data_PUSXUY
_symmetry_cell_setting           triclinic
_symmetry_space_group_name_H-M   'P -1'
_symmetry_Int_Tables_number      2
_space_group_name_Hall           '-P 1'
loop_
_symmetry_equiv_pos_site_id
_symmetry_equiv_pos_as_xyz
1 x,y,z
2 -x,-y,-z
_cell_length_a                   10.0924(6)
_cell_length_b                   11.0595(7)
_cell_length_c                   13.9619(8)
_cell_angle_alpha                66.8310(10)
_cell_angle_beta                 83.4210(10)
_cell_angle_gamma                71.2790(10)
_cell_volume                     1356.77
loop_
_atom_site_label
_atom_site_type_symbol
_atom_site_fract_x
_atom_site_fract_y
_atom_site_fract_z
Co1 Co 0.17648(3) 0.48219(3) 0.90908(2)
O1 O -0.02412(15) 0.54816(17) 1.15071(13)
O2 O 0.61820(15) 0.50371(17) 1.09685(12)
O3 O 0.67152(16) 0.51945(18) 1.23785(13)
O4 O -0.67227(17) 1.26323(17) 0.36163(13)
H1 H -0.6945 1.2927 0.4085
C1 C 0.5819(2) 0.5223(2) 1.18209(17)
O5 O 0.15144(16) 0.47847(18) 1.05463(12)
N1 N -0.25886(19) 0.74259(19) 0.03395(14)
C2 C 0.4302(2) 0.5531(2) 1.20876(16)
O6 O -0.2195(2) 0.81613(18) 0.29399(13)
N2 N -0.3421(2) 0.99839(19) 0.15777(14)
H2 H -0.3908 1.0839 0.1381
C3 C 0.3383(2) 0.5287(2) 1.15644(16)
H3 H 0.3727 0.4901 1.1068
N3 N -0.1305(2) 0.9340(2) 0.60184(15)
H4 H -0.1074 0.8793 0.5687
C4 C 0.1011(2) 0.5278(2) 1.12255(16)
O7 O -0.2715(2) 1.1412(2) 0.59813(16)
C5 C 0.1962(2) 0.5609(2) 1.17703(15)
N4 N 0.08534(19) 0.7019(2) 0.83420(15)
C6 C -0.2992(2) 0.9341(2) 0.25851(17)
C7 C 0.0112(2) 0.7538(2) 0.74573(18)
H5 H 0.0023 0.6929 0.7180
C8 C -0.3151(2) 0.9396(2) 0.08135(17)
C9 C 0.1441(2) 0.6213(2) 1.24953(17)
H6 H 0.0489 0.6443 1.2633
C10 C -0.4528(2) 1.1609(2) 0.45535(17)
H7 H -0.4849 1.2113 0.4977
C11 C 0.2350(2) 0.6472(2) 1.30144(18)
H8 H 0.2002 0.6879 1.3498
C12 C -0.2378(2) 1.0509(2) 0.56181(18)
C13 C -0.0530(2) 0.8937(2) 0.69334(17)
C14 C -0.3330(3) 1.0261(2) -0.02289(18)
H9 H -0.3574 1.1212 -0.0425
C15 C 0.0379(3) 0.9308(3) 0.8257(2)
H10 H 0.0481 0.9894 0.8553
C16 C -0.4875(2) 1.1094(2) 0.31045(17)
H11 H -0.5430 1.1245 0.2557
C17 C 0.0972(2) 0.7903(2) 0.87366(19)
H12 H 0.1472 0.7557 0.9356
C18 C 0.3772(2) 0.6130(2) 1.28167(18)
H13 H 0.4374 0.6300 1.3172
C19 C -0.2695(2) 0.9930(2) 0.40756(17)
H14 H -0.1811 0.9285 0.4189
C20 C -0.3186(2) 1.0666(2) 0.47186(16)
C21 C -0.5385(2) 1.1802(2) 0.37680(17)
C22 C -0.3539(2) 1.0166(2) 0.32597(16)
C23 C -0.0367(3) 0.9847(2) 0.7335(2)
H15 H -0.0749 1.0795 0.6993
C24 C -0.2771(2) 0.7977(2) 0.10665(17)
H16 H -0.2639 0.7389 0.1764
C25 C -0.3140(3) 0.9687(3) -0.09735(18)
H17 H -0.3262 1.0249 -0.1677
C26 C -0.2768(2) 0.8273(2) -0.06606(18)
H18 H -0.2637 0.7895 -0.1166
Co1A Co -0.17648(3) 0.51781(3) 0.09092(2)
Co1A_2 Co -0.17648(3) 0.51781(3) 1.09092(2)
Co1A_3 Co 0.82352(3) 0.51781(3) 1.09092(2)
O1A O 0.02412(15) 0.45184(17) 0.84929(13)
O2A O 0.38180(15) 0.49629(17) 0.90315(12)
O3A O 0.32848(16) 0.48055(18) 0.76215(13)
N1A N 0.25886(19) 0.25741(19) 0.96605(14)
O8 O -0.44322(19) 1.28457(17) 0.06798(13)
H19 H -0.3897 1.3293 0.0699
H20 H -0.4969 1.3339 0.0150
O9 O -0.2339(2) 0.6293(2) 0.48936(15)
H21 H -0.2500 0.6423 0.4260
H22 H -0.2876 0.5848 0.5277
O10 O 0.7148(2) 0.4191(2) 1.44787(15)
H23 H 0.6700 0.4389 1.3930
H24 H 0.6975 0.3489 1.4947
O11 O -0.0099(2) 0.7065(2) 0.52940(19)
H25 H 0.0150 0.6471 0.5897
H26 H 0.0029 0.6624 0.4883
loop_
_geom_bond_atom_site_label_1
_geom_bond_atom_site_label_2
_geom_bond_site_symmetry_1
_geom_bond_site_symmetry_2
Co1 O5 1_555 1_555
O1 C4 1_555 1_555
O2 C1 1_555 1_555
O3 C1 1_555 1_555
O4 H1 1_555 1_555
C1 C2 1_555 1_555
O5 C4 1_555 1_555
N1 C24 1_555 1_555
C2 C3 1_555 1_555
O6 C6 1_555 1_555
N2 H2 1_555 1_555
C3 H3 1_555 1_555
N3 H4 1_555 1_555
C4 C5 1_555 1_555
O7 C12 1_555 1_555
C5 C3 1_555 1_555
N4 Co1 1_555 1_555
C6 N2 1_555 1_555
C7 N4 1_555 1_555
H5 C7 1_555 1_555
C8 N2 1_555 1_555
C9 C5 1_555 1_555
H6 C9 1_555 1_555
C10 H7 1_555 1_555
C11 C9 1_555 1_555
H8 C11 1_555 1_555
C12 N3 1_555 1_555
C13 N3 1_555 1_555
C14 C8 1_555 1_555
H9 C14 1_555 1_555
C15 H10 1_555 1_555
C16 H11 1_555 1_555
C17 N4 1_555 1_555
H12 C17 1_555 1_555
C18 C2 1_555 1_555
H13 C18 1_555 1_555
C19 H14 1_555 1_555
C20 C10 1_555 1_555
C21 O4 1_555 1_555
C22 C6 1_555 1_555
C23 C13 1_555 1_555
H15 C23 1_555 1_555
C24 C8 1_555 1_555
H16 C24 1_555 1_555
C25 C14 1_555 1_555
H17 C25 1_555 1_555
C26 N1 1_555 1_555
H18 C26 1_555 1_555
O8 H19 1_555 1_555
H20 O8 1_555 1_555
O9 H21 1_555 1_555
H22 O9 1_555 1_555
O10 H23 1_555 1_555
H24 O10 1_555 1_555
O11 H25 1_555 1_555
H26 O11 1_555 1_555
Co1A N1 1_555 1_555
Co1A_2 O1 1_555 1_555
Co1A_3 O2 1_555 1_555
O1A Co1 1_555 1_555
O2A Co1 1_555 1_555
O3A Co1 1_555 1_555
N1A Co1 1_555 1_555
O3 Co1A_3 1_555 1_555
C7 C13 1_555 1_555
C10 C21 1_555 1_555
C11 C18 1_555 1_555
C12 C20 1_555 1_555
C15 C17 1_555 1_555
C15 C23 1_555 1_555
C16 C21 1_555 1_555
C16 C22 1_555 1_555
C19 C20 1_555 1_555
C19 C22 1_555 1_555
C25 C26 1_555 1_555

#END
