
#######################################################################
#
#                 Cambridge Crystallographic Data Centre
#                                CCDC 
#
#######################################################################
#
# If this CIF has been generated from an entry in the Cambridge 
# Structural Database, then it will include bibliographic, chemical, 
# crystal, experimental, refinement or atomic coordinate data resulting 
# from the CCDC's data processing and validation procedures.
#
#######################################################################

data_PUSXOS
_symmetry_cell_setting           monoclinic
_symmetry_space_group_name_H-M   'P 21/n'
_symmetry_Int_Tables_number      14
_space_group_name_Hall           '-P 2yn'
loop_
_symmetry_equiv_pos_site_id
_symmetry_equiv_pos_as_xyz
1 x,y,z
2 1/2-x,1/2+y,1/2-z
3 -x,-y,-z
4 1/2+x,1/2-y,1/2+z
_cell_length_a                   7.2427(4)
_cell_length_b                   25.0077(14)
_cell_length_c                   15.4019(8)
_cell_angle_alpha                90
_cell_angle_beta                 99.4770(10)
_cell_angle_gamma                90
_cell_volume                     2751.57
loop_
_atom_site_label
_atom_site_type_symbol
_atom_site_fract_x
_atom_site_fract_y
_atom_site_fract_z
Co1 Co 0.81731(6) 0.426129(17) 0.17466(3)
O1 O 0.2534(4) 0.45380(11) 0.04153(17)
N1 N 0.8726(4) 0.36532(11) 0.08220(19)
C1 C 0.8376(5) 0.37169(16) -0.0048(2)
H1 H 0.8002 0.4051 -0.0277
O2 O 0.9212(4) 0.48589(10) 0.10123(17)
H2 H 1.0350 0.4944 0.1019
H3 H 0.8537 0.5115 0.0776
O3 O 0.5401(3) 0.44947(9) 0.11854(16)
N2 N 0.9957(5) 0.22149(12) 0.0939(2)
H4 H 0.9981 0.1970 0.0549
C2 C 0.8553(6) 0.33020(18) -0.0620(2)
H5 H 0.8316 0.3359 -0.1224
O4 O 1.0879(4) 0.41364(12) 0.24392(18)
H6 H 1.1077 0.4389 0.2811
H7 H 1.1932 0.4041 0.2315
N3 N 1.1998(5) 0.03589(12) 0.00507(19)
H8 H 1.1516 0.0670 -0.0065
O5 O 0.4120(4) 0.36042(15) 0.27117(19)
C3 C 0.9082(6) 0.28041(16) -0.0293(2)
H9 H 0.9186 0.2520 -0.0672
O6 O 0.7014(3) 0.36711(9) 0.24323(15)
N4 N 1.3019(4) 0.01830(11) -0.21630(18)
C4 C 0.9458(5) 0.27319(14) 0.0616(2)
N5 N 0.5325(5) 0.24040(14) 0.1822(3)
C5 C 0.9275(5) 0.31708(14) 0.1147(2)
H10 H 0.9544 0.3128 0.1754
O7 O 0.5277(10) 0.19395(15) 0.1643(4)
C6 C 1.0402(5) 0.20586(14) 0.1791(2)
O8 O 0.5825(7) 0.25586(15) 0.2560(3)
C7 C 1.0693(5) 0.14696(13) 0.1942(2)
O9 O 1.0519(6) 0.23678(11) 0.24108(19)
O10 O 1.0031(4) 0.05597(10) 0.36909(16)
H11 H 0.9921 0.0233 0.3683
C8 C 1.1341(5) 0.11299(14) 0.1345(2)
H12 H 1.1641 0.1265 0.0823
O11 O 1.2649(4) -0.02617(10) 0.11219(16)
C9 C 1.1540(5) 0.05869(13) 0.1530(2)
C10 C 1.1150(5) 0.03851(13) 0.2325(2)
H13 H 1.1325 0.0024 0.2456
C11 C 1.0498(5) 0.07278(14) 0.2919(2)
C12 C 1.2127(5) 0.01905(13) 0.0896(2)
C13 C 1.2561(5) 0.00836(13) -0.0657(2)
C14 C 1.2518(5) 0.03766(13) -0.1429(2)
H14 H 1.2115 0.0730 -0.1433
C15 C 1.3577(5) -0.03305(14) -0.2150(2)
H15 H 1.3938 -0.0475 -0.2653
C16 C 1.3633(5) -0.06488(14) -0.1419(3)
H16 H 1.4014 -0.1003 -0.1439
C17 C 1.3130(5) -0.04490(14) -0.0655(2)
H17 H 1.3169 -0.0662 -0.0158
C18 C 0.3950(5) 0.42821(13) 0.0752(2)
C19 C 0.3961(5) 0.36824(14) 0.0622(2)
C20 C 0.3328(5) 0.34830(17) -0.0215(2)
H18 H 0.2824 0.3715 -0.0663
C21 C 0.3440(6) 0.29430(18) -0.0389(3)
H19 H 0.3056 0.2815 -0.0958
C22 C 0.4118(6) 0.25948(17) 0.0277(3)
H20 H 0.4203 0.2231 0.0163
C23 C 0.4670(5) 0.27896(15) 0.1116(3)
C24 C 0.4645(5) 0.33353(13) 0.1310(2)
C25 C 0.5307(5) 0.35512(13) 0.2229(2)
C26 C 1.0275(5) 0.12704(14) 0.2724(2)
H21 H 0.9842 0.1500 0.3121
Co1C Co 1.31731(6) 0.073871(17) -0.32534(3)
N4C N 0.8019(4) 0.48170(11) 0.28370(18)
O12 O 1.0065(9) 0.3206(2) 0.3777(3)
H22 H 0.9977 0.2929 0.3446
H23 H 0.9587 0.3465 0.3470
O13 O 0.9609(19) 0.1452(3) -0.0566(3)
loop_
_geom_bond_atom_site_label_1
_geom_bond_atom_site_label_2
_geom_bond_site_symmetry_1
_geom_bond_site_symmetry_2
Co1 N1 1_555 1_555
O1 C18 1_555 1_555
N1 C1 1_555 1_555
C1 H1 1_555 1_555
O2 Co1 1_555 1_555
H2 O2 1_555 1_555
H3 O2 1_555 1_555
O3 Co1 1_555 1_555
N2 H4 1_555 1_555
C2 C1 1_555 1_555
H5 C2 1_555 1_555
O4 Co1 1_555 1_555
H6 O4 1_555 1_555
H7 O4 1_555 1_555
N3 H8 1_555 1_555
O5 C25 1_555 1_555
C3 C2 1_555 1_555
H9 C3 1_555 1_555
O6 Co1 1_555 1_555
N4 C14 1_555 1_555
C4 N2 1_555 1_555
N5 O7 1_555 1_555
C5 N1 1_555 1_555
H10 C5 1_555 1_555
C6 N2 1_555 1_555
O8 N5 1_555 1_555
C7 C6 1_555 1_555
O9 C6 1_555 1_555
O10 H11 1_555 1_555
C8 C7 1_555 1_555
H12 C8 1_555 1_555
O11 C12 1_555 1_555
C9 C8 1_555 1_555
C10 C9 1_555 1_555
H13 C10 1_555 1_555
C11 O10 1_555 1_555
C12 N3 1_555 1_555
C13 N3 1_555 1_555
C14 C13 1_555 1_555
H14 C14 1_555 1_555
C15 N4 1_555 1_555
H15 C15 1_555 1_555
C16 C15 1_555 1_555
H16 C16 1_555 1_555
C17 C13 1_555 1_555
H17 C17 1_555 1_555
C18 O3 1_555 1_555
C19 C18 1_555 1_555
C20 C19 1_555 1_555
H18 C20 1_555 1_555
C21 C20 1_555 1_555
H19 C21 1_555 1_555
C22 C21 1_555 1_555
H20 C22 1_555 1_555
C23 N5 1_555 1_555
C24 C19 1_555 1_555
C25 O6 1_555 1_555
C26 C7 1_555 1_555
H21 C26 1_555 1_555
O12 H22 1_555 1_555
H23 O12 1_555 1_555
Co1C N4 1_555 1_555
N4C Co1 1_555 1_555
C3 C4 1_555 1_555
C4 C5 1_555 1_555
C9 C12 1_555 1_555
C10 C11 1_555 1_555
C11 C26 1_555 1_555
C16 C17 1_555 1_555
C22 C23 1_555 1_555
C23 C24 1_555 1_555
C24 C25 1_555 1_555

#END
