
#######################################################################
#
#                 Cambridge Crystallographic Data Centre
#                                CCDC 
#
#######################################################################
#
# If this CIF has been generated from an entry in the Cambridge 
# Structural Database, then it will include bibliographic, chemical, 
# crystal, experimental, refinement or atomic coordinate data resulting 
# from the CCDC's data processing and validation procedures.
#
#######################################################################

data_PUSYAF
_symmetry_cell_setting           triclinic
_symmetry_space_group_name_H-M   'P -1'
_symmetry_Int_Tables_number      2
_space_group_name_Hall           '-P 1'
loop_
_symmetry_equiv_pos_site_id
_symmetry_equiv_pos_as_xyz
1 x,y,z
2 -x,-y,-z
_cell_length_a                   10.0129(19)
_cell_length_b                   10.724(2)
_cell_length_c                   13.961(3)
_cell_angle_alpha                73.385(3)
_cell_angle_beta                 73.609(4)
_cell_angle_gamma                64.888(3)
_cell_volume                     1278.19
loop_
_atom_site_label
_atom_site_type_symbol
_atom_site_fract_x
_atom_site_fract_y
_atom_site_fract_z
Co1 Co 0.7150(4) 0.3683(4) 0.0300(3)
O1 O 0.915(2) 0.376(2) 0.0517(19)
N1 N 0.636(3) 0.349(3) 0.195(2)
C1 C 0.653(4) 0.434(4) 0.240(3)
H1 H 0.7102 0.4878 0.2026
O2 O 0.926(2) 0.175(2) 0.0346(19)
N2 N 0.399(3) 0.197(3) 0.408(2)
H2 H 0.3317 0.2303 0.4580
C2 C 0.588(4) 0.445(4) 0.341(3)
H3 H 0.6009 0.5067 0.3698
O3 O 1.410(2) -0.145(2) 0.1767(17)
H4 H 1.4898 -0.1612 0.1925
N3 N 0.217(3) -0.280(3) 0.3486(19)
H5 H 0.2660 -0.2289 0.3120
C3 C 0.506(4) 0.366(4) 0.397(3)
H6 H 0.4617 0.3729 0.4640
O4 O 0.504(3) 0.020(3) 0.323(2)
N4 N 0.213(3) -0.406(3) 0.1335(19)
C4 C 0.489(4) 0.275(3) 0.351(2)
O5 O 0.059(3) -0.017(3) 0.710(2)
H7 H 0.1038 0.0090 0.7367
C5 C 0.556(4) 0.271(3) 0.250(2)
H8 H 0.5433 0.2122 0.2181
O6 O 0.116(4) -0.354(3) 0.511(2)
C6 C 0.410(4) 0.074(3) 0.391(2)
C7 C 0.303(4) 0.007(3) 0.459(2)
O7 O 1.603(2) 0.248(2) 0.0312(17)
O8 O 1.412(3) 0.428(2) -0.0281(19)
C8 C 0.226(4) 0.033(4) 0.556(3)
H9 H 0.2357 0.0997 0.5813
C9 C 0.136(4) -0.037(4) 0.616(2)
C10 C 0.120(4) -0.137(4) 0.578(3)
H10 H 0.0596 -0.1859 0.6183
C11 C 0.196(4) -0.164(3) 0.482(2)
C12 C 0.287(4) -0.093(3) 0.423(2)
H11 H 0.3383 -0.1124 0.3585
C13 C 0.173(4) -0.275(3) 0.449(2)
C14 C 0.190(4) -0.362(3) 0.298(2)
C15 C 0.118(4) -0.454(4) 0.343(3)
H12 H 0.0871 -0.4721 0.4136
C16 C 0.092(5) -0.519(5) 0.282(3)
H13 H 0.0429 -0.5816 0.3107
C17 C 0.138(4) -0.491(4) 0.179(3)
H14 H 0.1153 -0.5327 0.1387
C18 C 0.239(4) -0.345(3) 0.193(2)
H15 H 0.2929 -0.2865 0.1625
C19 C 1.148(3) 0.185(3) 0.062(2)
C20 C 1.233(3) 0.269(3) 0.029(2)
H16 H 1.1922 0.3616 -0.0047
C21 C 1.379(3) 0.214(3) 0.045(2)
C22 C 1.440(3) 0.075(3) 0.095(2)
H17 H 1.5380 0.0389 0.1067
C23 C 1.355(3) -0.008(3) 0.127(2)
C24 C 1.209(3) 0.045(3) 0.109(2)
H18 H 1.1533 -0.0113 0.1282
C25 C 0.987(3) 0.249(3) 0.049(2)
C26 C 1.470(3) 0.304(3) 0.014(2)
Co1_2 Co 1.7150(4) 0.3683(4) 0.0300(3)
Co1A Co 0.2850(4) -0.3683(4) -0.0300(3)
Co1A_2 Co 1.2850(4) 0.6317(4) -0.0300(3)
N4A N 0.787(3) 0.406(3) -0.1335(19)
O7_2 O 0.603(2) 0.248(2) 0.0312(17)
O8A O 0.588(3) 0.572(2) 0.0281(19)
O9 O 0.122(4) 0.071(3) 0.856(2)
H19 H 0.0502 0.1097 0.9013
H20 H 0.1397 -0.0165 0.8719
O10 O 0.675(4) -0.208(4) 0.233(3)
H21 H 0.7529 -0.2603 0.1992
H22 H 0.6940 -0.1394 0.2375
O11 O 0.245(4) -0.652(4) 0.579(3)
H23 H 0.1988 -0.5667 0.5859
H24 H 0.1796 -0.6888 0.5936
loop_
_geom_bond_atom_site_label_1
_geom_bond_atom_site_label_2
_geom_bond_site_symmetry_1
_geom_bond_site_symmetry_2
Co1 O1 1_555 1_555
O1 C25 1_555 1_555
N1 Co1 1_555 1_555
C1 N1 1_555 1_555
H1 C1 1_555 1_555
O2 Co1 1_555 1_555
N2 H2 1_555 1_555
C2 C1 1_555 1_555
H3 C2 1_555 1_555
O3 H4 1_555 1_555
N3 H5 1_555 1_555
C3 C2 1_555 1_555
H6 C3 1_555 1_555
O4 C6 1_555 1_555
N4 C17 1_555 1_555
C4 N2 1_555 1_555
O5 H7 1_555 1_555
C5 N1 1_555 1_555
H8 C5 1_555 1_555
O6 C13 1_555 1_555
C6 N2 1_555 1_555
C7 C6 1_555 1_555
O7 C26 1_555 1_555
O8 C26 1_555 1_555
C8 C7 1_555 1_555
H9 C8 1_555 1_555
C9 O5 1_555 1_555
C10 C9 1_555 1_555
H10 C10 1_555 1_555
C11 C10 1_555 1_555
C12 C7 1_555 1_555
H11 C12 1_555 1_555
C13 N3 1_555 1_555
C14 N3 1_555 1_555
C15 C14 1_555 1_555
H12 C15 1_555 1_555
C16 C15 1_555 1_555
H13 C16 1_555 1_555
C17 C16 1_555 1_555
H14 C17 1_555 1_555
C18 N4 1_555 1_555
H15 C18 1_555 1_555
C19 C20 1_555 1_555
C20 H16 1_555 1_555
C21 C20 1_555 1_555
C22 C21 1_555 1_555
H17 C22 1_555 1_555
C23 O3 1_555 1_555
C24 C19 1_555 1_555
H18 C24 1_555 1_555
C25 O2 1_555 1_555
C26 C21 1_555 1_555
O9 H19 1_555 1_555
H20 O9 1_555 1_555
O10 H21 1_555 1_555
H22 O10 1_555 1_555
O11 H23 1_555 1_555
H24 O11 1_555 1_555
Co1_2 O7 1_555 1_555
Co1A N4 1_555 1_555
Co1A_2 O8 1_555 1_555
N4A Co1 1_555 1_555
O7_2 Co1 1_555 1_555
O8A Co1 1_555 1_555
C3 C4 1_555 1_555
C4 C5 1_555 1_555
C8 C9 1_555 1_555
C11 C12 1_555 1_555
C11 C13 1_555 1_555
C14 C18 1_555 1_555
C19 C25 1_555 1_555
C22 C23 1_555 1_555
C23 C24 1_555 1_555

#END
