
#######################################################################
#
#                 Cambridge Crystallographic Data Centre
#                                CCDC 
#
#######################################################################
#
# If this CIF has been generated from an entry in the Cambridge 
# Structural Database, then it will include bibliographic, chemical, 
# crystal, experimental, refinement or atomic coordinate data resulting 
# from the CCDC's data processing and validation procedures.
#
#######################################################################

data_PUTFER
_symmetry_cell_setting           triclinic
_symmetry_space_group_name_H-M   'P -1'
_symmetry_Int_Tables_number      2
_space_group_name_Hall           '-P 1'
loop_
_symmetry_equiv_pos_site_id
_symmetry_equiv_pos_as_xyz
1 x,y,z
2 -x,-y,-z
_cell_length_a                   8.0232(16)
_cell_length_b                   9.792(2)
_cell_length_c                   11.459(2)
_cell_angle_alpha                103.88(3)
_cell_angle_beta                 110.33(3)
_cell_angle_gamma                93.54(3)
_cell_volume                     809.05
loop_
_atom_site_label
_atom_site_type_symbol
_atom_site_fract_x
_atom_site_fract_y
_atom_site_fract_z
Cu1 Cu 0.5000 1.0000 0.5000
Cu2 Cu 0.33093(5) 1.06667(4) 0.02199(4)
P1 P 0.60477(11) 1.05504(9) 0.26691(7)
O1 O 0.7884(3) 1.0151(3) 0.3231(2)
O2 O 0.4817(3) 1.0426(3) 0.3401(2)
O3 O 0.5090(3) 0.9726(2) 0.12218(19)
O4 O 0.3457(3) 1.3977(2) 0.0281(2)
O5 O 0.1741(3) 1.1589(3) -0.0965(2)
N1 N 0.4857(4) 1.2518(3) 0.1475(2)
N2 N 0.1504(3) 0.8820(3) -0.0562(3)
N3 N -0.3640(4) 0.1961(3) -0.4002(3)
C1 C 0.6198(4) 1.2369(3) 0.2545(3)
C2 C 0.7469(5) 1.3493(4) 0.3423(3)
H1 H 0.8360 1.3366 0.4149
C3 C 0.7393(5) 1.4838(4) 0.3201(4)
H2 H 0.8249 1.5614 0.3776
C4 C 0.6075(5) 1.5007(4) 0.2152(4)
H3 H 0.6036 1.5902 0.2009
C5 C 0.4744(5) 1.3834(3) 0.1258(3)
C6 C 0.1952(5) 0.7656(3) -0.0189(3)
H4 H 0.3005 0.7754 0.0526
C7 C 0.0942(5) 0.6325(4) -0.0804(3)
H5 H 0.1312 0.5550 -0.0502
C8 C -0.0645(4) 0.6137(3) -0.1886(3)
C9 C -0.1148(4) 0.7366(3) -0.2229(3)
H6 H -0.2223 0.7309 -0.2913
C10 C -0.0062(4) 0.8660(3) -0.1560(3)
H7 H -0.0429 0.9463 -0.1811
C11 C -0.4298(5) 0.3122(4) -0.4241(3)
H8 H -0.5436 0.3011 -0.4877
C12 C -0.3373(5) 0.4477(4) -0.3590(3)
H9 H -0.3889 0.5253 -0.3801
C13 C -0.1689(4) 0.4701(3) -0.2627(3)
C14 C -0.1022(6) 0.3481(4) -0.2393(4)
H10 H 0.0118 0.3558 -0.1768
C15 C -0.2022(6) 0.2164(4) -0.3071(4)
H11 H -0.1546 0.1370 -0.2871
H12 H 0.240(6) 1.240(3) -0.058(3)
H13 H 0.185(5) 1.131(4) -0.169(2)
Cu2A Cu -0.33093(5) -0.06667(4) -0.02199(4)
P1A P -0.60477(11) -0.05504(9) -0.26691(7)
O1A O -0.7884(3) -0.0151(3) -0.3231(2)
O2A O -0.4817(3) -0.0426(3) -0.3401(2)
O3A O -0.5090(3) 0.0274(2) -0.12218(19)
O4A O -0.3457(3) -0.3977(2) -0.0281(2)
O5A O -0.1741(3) -0.1589(3) 0.0965(2)
N1A N -0.4857(4) -0.2518(3) -0.1475(2)
N2A N -0.1504(3) 0.1180(3) 0.0562(3)
N3A N 0.3640(4) 0.8039(3) 0.4002(3)
C1A C -0.6198(4) -0.2369(3) -0.2545(3)
C2A C -0.7469(5) -0.3493(4) -0.3423(3)
H1A H -0.8360 -0.3366 -0.4149
C3A C -0.7393(5) -0.4838(4) -0.3201(4)
H2A H -0.8249 -0.5614 -0.3776
C4A C -0.6075(5) -0.5007(4) -0.2152(4)
H3A H -0.6036 -0.5902 -0.2009
C5A C -0.4744(5) -0.3834(3) -0.1258(3)
C6A C -0.1952(5) 0.2344(3) 0.0189(3)
H4A H -0.3005 0.2246 -0.0526
C7A C -0.0942(5) 0.3675(4) 0.0804(3)
H5A H -0.1312 0.4450 0.0502
C8A C 0.0645(4) 0.3863(3) 0.1886(3)
C9A C 0.1148(4) 0.2634(3) 0.2229(3)
H6A H 0.2223 0.2691 0.2913
C10A C 0.0062(4) 0.1340(3) 0.1560(3)
H7A H 0.0429 0.0537 0.1811
C11A C 0.4298(5) 0.6878(4) 0.4241(3)
H8A H 0.5436 0.6989 0.4877
C12A C 0.3373(5) 0.5523(4) 0.3590(3)
H9A H 0.3889 0.4747 0.3801
C13A C 0.1689(4) 0.5299(3) 0.2627(3)
C14A C 0.1022(6) 0.6519(4) 0.2393(4)
H10A H -0.0118 0.6442 0.1768
C15A C 0.2022(6) 0.7836(4) 0.3071(4)
H11A H 0.1546 0.8630 0.2871
H12A H -0.240(6) -0.240(3) 0.058(3)
H13A H -0.185(5) -0.131(4) 0.169(2)
Cu1_2 Cu -0.5000 0.0000 -0.5000
Cu2_2 Cu -0.66907(5) 0.06667(4) 0.02199(4)
Cu2A_2 Cu 0.66907(5) 0.93333(4) -0.02199(4)
O2A_2 O 0.5183(3) 0.9574(3) 0.6599(2)
O3_2 O -0.4910(3) -0.0274(2) 0.12218(19)
O3A_2 O 0.4910(3) 1.0274(2) -0.12218(19)
N3_2 N 0.6360(4) 1.1961(3) 0.5998(3)
O6 O 0.8272(4) 0.8798(4) 0.5173(3)
H14 H 0.818(5) 0.912(5) 0.454(3)
H15 H 0.937(2) 0.897(5) 0.565(3)
loop_
_geom_bond_atom_site_label_1
_geom_bond_atom_site_label_2
_geom_bond_site_symmetry_1
_geom_bond_site_symmetry_2
Cu1 O2 1_555 1_555
Cu2 O3 1_555 1_555
P1 O1 1_555 1_555
O2 P1 1_555 1_555
O3 P1 1_555 1_555
O4 C5 1_555 1_555
O5 Cu2 1_555 1_555
N1 Cu2 1_555 1_555
N2 Cu2 1_555 1_555
N3 C11 1_555 1_555
C1 P1 1_555 1_555
C2 C1 1_555 1_555
H1 C2 1_555 1_555
C3 C2 1_555 1_555
H2 C3 1_555 1_555
C4 C3 1_555 1_555
H3 C4 1_555 1_555
C5 N1 1_555 1_555
C6 N2 1_555 1_555
H4 C6 1_555 1_555
C7 C6 1_555 1_555
H5 C7 1_555 1_555
C8 C7 1_555 1_555
C9 C8 1_555 1_555
H6 C9 1_555 1_555
C10 N2 1_555 1_555
H7 C10 1_555 1_555
C11 H8 1_555 1_555
C12 C11 1_555 1_555
H9 C12 1_555 1_555
C13 C8 1_555 1_555
C14 C13 1_555 1_555
H10 C14 1_555 1_555
C15 N3 1_555 1_555
H11 C15 1_555 1_555
H12 O5 1_555 1_555
H13 O5 1_555 1_555
O6 H14 1_555 1_555
H15 O6 1_555 1_555
Cu2A O3A 1_555 1_555
P1A O1A 1_555 1_555
O2A P1A 1_555 1_555
O3A P1A 1_555 1_555
O4A C5A 1_555 1_555
O5A Cu2A 1_555 1_555
N1A Cu2A 1_555 1_555
N2A Cu2A 1_555 1_555
N3A Cu1 1_555 1_555
C1A P1A 1_555 1_555
C2A C1A 1_555 1_555
H1A C2A 1_555 1_555
C3A C2A 1_555 1_555
H2A C3A 1_555 1_555
C4A C3A 1_555 1_555
H3A C4A 1_555 1_555
C5A N1A 1_555 1_555
C6A N2A 1_555 1_555
H4A C6A 1_555 1_555
C7A C6A 1_555 1_555
H5A C7A 1_555 1_555
C8A C7A 1_555 1_555
C9A C8A 1_555 1_555
H6A C9A 1_555 1_555
C10A N2A 1_555 1_555
H7A C10A 1_555 1_555
C11A N3A 1_555 1_555
H8A C11A 1_555 1_555
C12A C11A 1_555 1_555
H9A C12A 1_555 1_555
C13A C8A 1_555 1_555
C14A C13A 1_555 1_555
H10A C14A 1_555 1_555
C15A N3A 1_555 1_555
H11A C15A 1_555 1_555
H12A O5A 1_555 1_555
H13A O5A 1_555 1_555
Cu1_2 N3 1_555 1_555
Cu2_2 O3A 1_555 1_555
Cu2A_2 O3 1_555 1_555
O2A_2 Cu1 1_555 1_555
O3_2 Cu2A 1_555 1_555
O3A_2 Cu2 1_555 1_555
N3_2 Cu1 1_555 1_555
N1 C1 1_555 1_555
C4 C5 1_555 1_555
C9 C10 1_555 1_555
C12 C13 1_555 1_555
C14 C15 1_555 1_555
O2A Cu1_2 1_555 1_555
N1A C1A 1_555 1_555
C4A C5A 1_555 1_555
C9A C10A 1_555 1_555
C12A C13A 1_555 1_555
C14A C15A 1_555 1_555
Cu2_2 O3_2 1_555 1_555
Cu2A_2 O3A_2 1_555 1_555

#END
