
#######################################################################
#
#                 Cambridge Crystallographic Data Centre
#                                CCDC 
#
#######################################################################
#
# If this CIF has been generated from an entry in the Cambridge 
# Structural Database, then it will include bibliographic, chemical, 
# crystal, experimental, refinement or atomic coordinate data resulting 
# from the CCDC's data processing and validation procedures.
#
#######################################################################

data_PUTGUG
_symmetry_cell_setting           monoclinic
_symmetry_space_group_name_H-M   'P 21/c'
_symmetry_Int_Tables_number      14
_space_group_name_Hall           '-P 2ybc'
loop_
_symmetry_equiv_pos_site_id
_symmetry_equiv_pos_as_xyz
1 x,y,z
2 -x,1/2+y,1/2-z
3 -x,-y,-z
4 x,1/2-y,1/2+z
_cell_length_a                   17.869(8)
_cell_length_b                   18.024(6)
_cell_length_c                   26.692(9)
_cell_angle_alpha                90
_cell_angle_beta                 102.15(4)
_cell_angle_gamma                90
_cell_volume                     8404.15
loop_
_atom_site_label
_atom_site_type_symbol
_atom_site_fract_x
_atom_site_fract_y
_atom_site_fract_z
Zn1 Zn 0.3575(2) -0.5206(2) -0.3120(1)
O1 O 0.022(1) -0.579(1) -0.3738(6)
O2 O -0.0638(9) -0.444(1) -0.3731(7)
O3 O -0.032(1) -0.296(1) -0.3979(7)
O4 O 0.072(1) -0.194(1) -0.3590(8)
O5 O 0.337(1) -0.141(1) -0.1837(7)
O6 O 0.476(1) -0.151(1) -0.1141(7)
O7 O 0.5833(8) -0.1263(8) -0.1823(5)
O8 O 0.556(1) -0.2837(10) -0.2321(6)
N1 N 0.278(1) -0.527(1) -0.3799(7)
N2 N 0.428(1) -0.448(1) -0.3392(7)
N3 N 0.426(1) -0.495(1) -0.2399(7)
N4 N 0.275(1) -0.567(1) -0.2844(9)
C1 C 0.210(2) -0.563(1) -0.3915(9)
C2 C 0.185(2) -0.565(2) -0.449(1)
C3 C 0.231(1) -0.518(1) -0.4680(9)
C4 C 0.293(2) -0.487(2) -0.426(1)
C5 C 0.352(2) -0.447(2) -0.4287(10)
C6 C 0.422(2) -0.420(2) -0.390(1)
C7 C 0.485(2) -0.387(2) -0.405(1)
C8 C 0.526(2) -0.379(1) -0.3588(10)
C9 C 0.496(1) -0.417(1) -0.3172(9)
C10 C 0.536(1) -0.430(1) -0.2626(9)
C11 C 0.493(1) -0.466(1) -0.2318(8)
C12 C 0.523(1) -0.474(1) -0.1735(9)
C13 C 0.472(2) -0.509(2) -0.151(1)
C14 C 0.410(2) -0.529(2) -0.1938(10)
C15 C 0.345(2) -0.558(2) -0.193(1)
C16 C 0.277(2) -0.583(2) -0.228(1)
C17 C 0.219(2) -0.624(2) -0.219(1)
C18 C 0.168(1) -0.642(1) -0.2655(8)
C19 C 0.208(1) -0.605(1) -0.3041(10)
C20 C 0.179(2) -0.616(2) -0.359(1)
C21 C 0.121(1) -0.667(1) -0.3826(8)
C22 C 0.042(1) -0.644(1) -0.3864(8)
C23 C -0.003(2) -0.704(2) -0.414(1)
C24 C 0.023(2) -0.772(2) -0.4259(10)
C25 C 0.096(2) -0.788(2) -0.420(1)
C26 C 0.143(2) -0.734(2) -0.396(1)
C27 C 0.611(1) -0.396(1) -0.2475(8)
C28 C 0.626(1) -0.321(1) -0.2281(7)
C29 C 0.708(2) -0.305(1) -0.2165(9)
C30 C 0.764(2) -0.347(2) -0.220(1)
C31 C 0.748(2) -0.418(2) -0.231(1)
C32 C 0.668(1) -0.440(1) -0.2470(8)
C33 C 0.123(2) -0.596(2) -0.480(1)
C34 C 0.236(2) -0.498(2) -0.523(1)
C35 C 0.279(2) -0.546(2) -0.546(1)
C36 C 0.496(2) -0.371(3) -0.454(1)
C37 C 0.467(3) -0.300(3) -0.469(2)
C38 C 0.601(2) -0.340(1) -0.3542(9)
C39 C 0.598(2) -0.448(1) -0.1431(10)
C40 C 0.479(1) -0.528(2) -0.0996(10)
C41 C 0.510(2) -0.598(2) -0.089(1)
C42 C 0.204(2) -0.643(2) -0.171(1)
C43 C 0.238(2) -0.706(2) -0.160(1)
C44 C 0.101(2) -0.688(1) -0.2734(9)
C45 C -0.063(2) -0.574(2) -0.378(1)
C46 C -0.067(2) -0.511(2) -0.347(1)
C47 C -0.077(2) -0.380(2) -0.349(1)
C48 C -0.101(2) -0.313(2) -0.385(1)
C49 C -0.029(2) -0.223(2) -0.4230(19)
C50 C 0.048(2) -0.196(2) -0.417(1)
C51 C 0.145(2) -0.175(2) -0.344(1)
C52 C 0.200(2) -0.156(2) -0.363(1)
C53 C 0.271(2) -0.131(2) -0.343(1)
C54 C 0.302(2) -0.140(1) -0.290(1)
C55 C 0.244(2) -0.156(1) -0.2633(10)
C56 C 0.173(2) -0.179(1) -0.2848(9)
C57 C 0.113(2) -0.207(2) -0.261(1)
C58 C 0.133(2) -0.211(2) -0.205(1)
C59 C 0.204(2) -0.184(1) -0.1822(9)
C60 C 0.261(2) -0.160(1) -0.205(1)
C61 C 0.348(2) -0.113(2) -0.134(1)
C62 C 0.431(2) -0.101(2) -0.116(1)
C63 C 0.552(2) -0.143(2) -0.098(1)
C64 C 0.601(1) -0.176(1) -0.1334(9)
C65 C 0.520(1) -0.156(1) -0.2194(9)
C66 C 0.543(2) -0.211(2) -0.256(1)
H1 H 0.3538 -0.4318 -0.4632
H2 H 0.3413 -0.5667 -0.1593
H3 H -0.0576 -0.6967 -0.4260
H4 H -0.0107 -0.8098 -0.4395
H5 H 0.1151 -0.8329 -0.4306
H6 H 0.1978 -0.7445 -0.3895
H7 H 0.7210 -0.2558 -0.2042
H8 H 0.8148 -0.3297 -0.2159
H9 H 0.7871 -0.4535 -0.2285
H10 H 0.6583 -0.4891 -0.2582
H11 H 0.0959 -0.6240 -0.4605
H12 H 0.0924 -0.5591 -0.4991
H13 H 0.1414 -0.6288 -0.5040
H14 H 0.2559 -0.4487 -0.5232
H15 H 0.1840 -0.4970 -0.5431
H16 H 0.2596 -0.5945 -0.5428
H17 H 0.2748 -0.5325 -0.5797
H18 H 0.3300 -0.5428 -0.5269
H19 H 0.4699 -0.4064 -0.4774
H20 H 0.5486 -0.3711 -0.4538
H21 H 0.4898 -0.2649 -0.4434
H22 H 0.4747 -0.2880 -0.5007
H23 H 0.4121 -0.3005 -0.4691
H24 H 0.6261 -0.3377 -0.3191
H25 H 0.6325 -0.3647 -0.3732
H26 H 0.5924 -0.2900 -0.3669
H27 H 0.6262 -0.4879 -0.1245
H28 H 0.6289 -0.4280 -0.1658
H29 H 0.5910 -0.4101 -0.1200
H30 H 0.4292 -0.5266 -0.0932
H31 H 0.5107 -0.4924 -0.0795
H32 H 0.5127 -0.6107 -0.0540
H33 H 0.4796 -0.6353 -0.1100
H34 H 0.5610 -0.6010 -0.0955
H35 H 0.2242 -0.6066 -0.1450
H36 H 0.1497 -0.6467 -0.1718
H37 H 0.2314 -0.7257 -0.1271
H38 H 0.2166 -0.7434 -0.1852
H39 H 0.2913 -0.7033 -0.1588
H40 H 0.0652 -0.6673 -0.2556
H41 H 0.0786 -0.6906 -0.3090
H42 H 0.1145 -0.7366 -0.2608
H43 H -0.0869 -0.5682 -0.4136
H44 H -0.0802 -0.6197 -0.3663
H45 H -0.0268 -0.5129 -0.3176
H46 H -0.1151 -0.5137 -0.3366
H47 H -0.1203 -0.3893 -0.3339
H48 H -0.0347 -0.3670 -0.3250
H49 H -0.1181 -0.2709 -0.3687
H50 H -0.1385 -0.3234 -0.4157
H51 H -0.0508 -0.2260 -0.4587
H52 H -0.0580 -0.1873 -0.4080
H53 H 0.0513 -0.1483 -0.4308
H54 H 0.0795 -0.2297 -0.4306
H55 H 0.1886 -0.1553 -0.3998
H56 H 0.3024 -0.1100 -0.3650
H57 H 0.3533 -0.1348 -0.2744
H58 H 0.0639 -0.2199 -0.2799
H59 H 0.1010 -0.2315 -0.1846
H60 H 0.2172 -0.1820 -0.1455
H61 H 0.3223 -0.0660 -0.1330
H62 H 0.3292 -0.1461 -0.1112
H63 H 0.4383 -0.0822 -0.0831
H64 H 0.4442 -0.0672 -0.1394
H65 H 0.5625 -0.0902 -0.0947
H66 H 0.5671 -0.1645 -0.0649
H67 H 0.5862 -0.2253 -0.1408
H68 H 0.6534 -0.1731 -0.1171
H69 H 0.4859 -0.1802 -0.2020
H70 H 0.4949 -0.1163 -0.2393
H71 H 0.5895 -0.1956 -0.2648
H72 H 0.5040 -0.2150 -0.2859
O7A O 0.4167(8) -0.6263(8) -0.3177(5)
Zn1A Zn 0.6425(2) -0.0206(2) -0.1880(1)
P1 P 0.2324(8) -0.2683(9) -0.0197(4)
F1 F 0.300(2) -0.226(2) -0.040(1)
F2 F 0.201(2) -0.194(2) -0.034(1)
F3 F 0.275(1) -0.250(1) 0.0334(8)
F4 F 0.267(3) -0.333(3) -0.013(2)
F5 F 0.185(1) -0.288(1) -0.0722(8)
F6 F 0.160(2) -0.297(1) -0.0001(10)
P2 P 0.679(1) -0.310(1) -0.0034(5)
F7 F 0.769(2) -0.314(2) 0.023(1)
F8 F 0.595(2) -0.308(2) -0.034(1)
F9 F 0.660(2) -0.251(2) 0.025(1)
F10 F 0.664(2) -0.353(2) 0.041(1)
F11 F 0.691(3) -0.396(3) -0.015(2)
F12 F 0.708(2) -0.324(2) -0.052(2)
O9 O 0.068(2) -0.429(2) -0.221(1)
O10 O 0.146(4) -0.516(4) 0.047(3)
N5 N 0.149(2) -0.389(2) -0.387(1)
N6 N 0.382(2) -0.342(1) -0.1448(9)
C67 C 0.201(2) -0.355(2) -0.380(1)
C68 C 0.248(2) -0.338(2) -0.340(1)
C69 C 0.234(2) -0.369(2) -0.291(1)
C70 C 0.173(2) -0.410(2) -0.300(1)
C71 C 0.125(2) -0.431(2) -0.349(1)
C72 C 0.095(2) -0.404(2) -0.436(1)
C73 C 0.306(2) -0.357(2) -0.152(1)
C74 C 0.261(2) -0.365(2) -0.200(1)
C75 C 0.287(2) -0.356(1) -0.245(1)
C76 C 0.362(2) -0.338(1) -0.2347(10)
C77 C 0.412(2) -0.324(2) -0.186(1)
C78 C 0.429(2) -0.330(2) -0.095(1)
H73 H 0.2126 -0.3335 -0.4105
H74 H 0.2914 -0.3070 -0.3402
H75 H 0.1593 -0.4323 -0.2712
H76 H 0.0838 -0.4652 -0.3549
H77 H 0.0723 -0.3596 -0.4500
H78 H 0.1213 -0.4274 -0.4589
H79 H 0.0558 -0.4371 -0.4295
H80 H 0.2841 -0.3613 -0.1216
H81 H 0.2088 -0.3752 -0.2027
H82 H 0.3854 -0.3350 -0.2634
H83 H 0.4613 -0.3008 -0.1844
H84 H 0.4273 -0.3717 -0.0736
H85 H 0.4808 -0.3207 -0.0972
H86 H 0.4105 -0.2874 -0.0795
F13? F 0.709(3) 0.759(3) 0.978(2)
O11? O 0.012(5) 0.600(5) 0.834(3)
O12? O 0.012(3) 0.556(4) 0.807(2)
O13? O 0.053(4) 0.523(5) 0.786(3)
O14? O -0.034(4) 0.496(4) 0.805(3)
O15? O 0.122(3) 0.489(3) 0.985(2)
loop_
_geom_bond_atom_site_label_1
_geom_bond_atom_site_label_2
_geom_bond_site_symmetry_1
_geom_bond_site_symmetry_2
Zn1 N1 1_555 1_555
O1 C22 1_555 1_555
O2 C46 1_555 1_555
O3 C48 1_555 1_555
O4 C50 1_555 1_555
O5 C60 1_555 1_555
O6 C62 1_555 1_555
O7 C64 1_555 1_555
O8 C28 1_555 1_555
N1 C1 1_555 1_555
N2 Zn1 1_555 1_555
N3 Zn1 1_555 1_555
N4 Zn1 1_555 1_555
C1 C2 1_555 1_555
C2 C3 1_555 1_555
C3 C4 1_555 1_555
C4 N1 1_555 1_555
C5 C4 1_555 1_555
C6 N2 1_555 1_555
C7 C6 1_555 1_555
C8 C7 1_555 1_555
C9 N2 1_555 1_555
C10 C9 1_555 1_555
C11 N3 1_555 1_555
C12 C11 1_555 1_555
C13 C12 1_555 1_555
C14 N3 1_555 1_555
C15 C14 1_555 1_555
C16 N4 1_555 1_555
C17 C16 1_555 1_555
C18 C17 1_555 1_555
C19 N4 1_555 1_555
C20 C1 1_555 1_555
C21 C20 1_555 1_555
C22 C21 1_555 1_555
C23 C22 1_555 1_555
C24 C23 1_555 1_555
C25 C24 1_555 1_555
C26 C21 1_555 1_555
C27 C10 1_555 1_555
C28 C27 1_555 1_555
C29 C28 1_555 1_555
C30 C29 1_555 1_555
C31 C30 1_555 1_555
C32 C27 1_555 1_555
C33 C2 1_555 1_555
C34 C3 1_555 1_555
C35 C34 1_555 1_555
C36 C7 1_555 1_555
C37 C36 1_555 1_555
C38 C8 1_555 1_555
C39 C12 1_555 1_555
C40 C13 1_555 1_555
C41 C40 1_555 1_555
C42 C17 1_555 1_555
C43 C42 1_555 1_555
C44 C18 1_555 1_555
C45 O1 1_555 1_555
C46 C45 1_555 1_555
C47 O2 1_555 1_555
C48 C47 1_555 1_555
C49 O3 1_555 1_555
C50 C49 1_555 1_555
C51 O4 1_555 1_555
C52 C51 1_555 1_555
C53 C52 1_555 1_555
C54 C53 1_555 1_555
C55 C54 1_555 1_555
C56 C51 1_555 1_555
C57 C56 1_555 1_555
C58 C57 1_555 1_555
C59 C58 1_555 1_555
C60 C55 1_555 1_555
C61 O5 1_555 1_555
C62 C61 1_555 1_555
C63 O6 1_555 1_555
C64 C63 1_555 1_555
C65 O7 1_555 1_555
C66 O8 1_555 1_555
H1 C5 1_555 1_555
H2 C15 1_555 1_555
H3 C23 1_555 1_555
H4 C24 1_555 1_555
H5 C25 1_555 1_555
H6 C26 1_555 1_555
H7 C29 1_555 1_555
H8 C30 1_555 1_555
H9 C31 1_555 1_555
H10 C32 1_555 1_555
H11 C33 1_555 1_555
H12 C33 1_555 1_555
H13 C33 1_555 1_555
H14 C34 1_555 1_555
H15 C34 1_555 1_555
H16 C35 1_555 1_555
H17 C35 1_555 1_555
H18 C35 1_555 1_555
H19 C36 1_555 1_555
H20 C36 1_555 1_555
H21 C37 1_555 1_555
H22 C37 1_555 1_555
H23 C37 1_555 1_555
H24 C38 1_555 1_555
H25 C38 1_555 1_555
H26 C38 1_555 1_555
H27 C39 1_555 1_555
H28 C39 1_555 1_555
H29 C39 1_555 1_555
H30 C40 1_555 1_555
H31 C40 1_555 1_555
H32 C41 1_555 1_555
H33 C41 1_555 1_555
H34 C41 1_555 1_555
H35 C42 1_555 1_555
H36 C42 1_555 1_555
H37 C43 1_555 1_555
H38 C43 1_555 1_555
H39 C43 1_555 1_555
H40 C44 1_555 1_555
H41 C44 1_555 1_555
H42 C44 1_555 1_555
H43 C45 1_555 1_555
H44 C45 1_555 1_555
H45 C46 1_555 1_555
H46 C46 1_555 1_555
H47 C47 1_555 1_555
H48 C47 1_555 1_555
H49 C48 1_555 1_555
H50 C48 1_555 1_555
H51 C49 1_555 1_555
H52 C49 1_555 1_555
H53 C50 1_555 1_555
H54 C50 1_555 1_555
H55 C52 1_555 1_555
H56 C53 1_555 1_555
H57 C54 1_555 1_555
H58 C57 1_555 1_555
H59 C58 1_555 1_555
H60 C59 1_555 1_555
H61 C61 1_555 1_555
H62 C61 1_555 1_555
H63 C62 1_555 1_555
H64 C62 1_555 1_555
H65 C63 1_555 1_555
H66 C63 1_555 1_555
H67 C64 1_555 1_555
H68 C64 1_555 1_555
H69 C65 1_555 1_555
H70 C65 1_555 1_555
H71 C66 1_555 1_555
H72 C66 1_555 1_555
P1 F1 1_555 1_555
F2 P1 1_555 1_555
F3 P1 1_555 1_555
F4 P1 1_555 1_555
F5 P1 1_555 1_555
F6 P1 1_555 1_555
P2 F7 1_555 1_555
F8 P2 1_555 1_555
F9 P2 1_555 1_555
F10 P2 1_555 1_555
F11 P2 1_555 1_555
F12 P2 1_555 1_555
N5 C67 1_555 1_555
N6 C73 1_555 1_555
C67 C68 1_555 1_555
C68 C69 1_555 1_555
C69 C70 1_555 1_555
C70 C71 1_555 1_555
C71 N5 1_555 1_555
C72 N5 1_555 1_555
C73 C74 1_555 1_555
C74 C75 1_555 1_555
C75 C69 1_555 1_555
C76 C75 1_555 1_555
C77 N6 1_555 1_555
C78 N6 1_555 1_555
H73 C67 1_555 1_555
H74 C68 1_555 1_555
H75 C70 1_555 1_555
H76 C71 1_555 1_555
H77 C72 1_555 1_555
H78 C72 1_555 1_555
H79 C72 1_555 1_555
H80 C73 1_555 1_555
H81 C74 1_555 1_555
H82 C76 1_555 1_555
H83 C77 1_555 1_555
H84 C78 1_555 1_555
H85 C78 1_555 1_555
H86 C78 1_555 1_555
O7A Zn1 1_555 1_555
Zn1A O7 1_555 1_555
C5 C6 1_555 1_555
C8 C9 1_555 1_555
C10 C11 1_555 1_555
C13 C14 1_555 1_555
C15 C16 1_555 1_555
C18 C19 1_555 1_555
C19 C20 1_555 1_555
C25 C26 1_555 1_555
C31 C32 1_555 1_555
C55 C56 1_555 1_555
C59 C60 1_555 1_555
C65 C66 1_555 1_555
C76 C77 1_555 1_555

#END
