
#######################################################################
#
#                 Cambridge Crystallographic Data Centre
#                                CCDC 
#
#######################################################################
#
# If this CIF has been generated from an entry in the Cambridge 
# Structural Database, then it will include bibliographic, chemical, 
# crystal, experimental, refinement or atomic coordinate data resulting 
# from the CCDC's data processing and validation procedures.
#
#######################################################################

data_PUTGIW
_symmetry_cell_setting           orthorhombic
_symmetry_space_group_name_H-M   'P 21 21 21'
_symmetry_Int_Tables_number      19
_space_group_name_Hall           'P 2ac 2ab'
loop_
_symmetry_equiv_pos_site_id
_symmetry_equiv_pos_as_xyz
1 x,y,z
2 1/2-x,-y,1/2+z
3 1/2+x,1/2-y,-z
4 -x,1/2+y,1/2-z
_cell_length_a                   11.2155(4)
_cell_length_b                   12.9155(5)
_cell_length_c                   14.2723(6)
_cell_angle_alpha                90
_cell_angle_beta                 90
_cell_angle_gamma                90
_cell_volume                     2067.4
loop_
_atom_site_label
_atom_site_type_symbol
_atom_site_fract_x
_atom_site_fract_y
_atom_site_fract_z
C1 C 1.1078(3) 0.2183(2) 0.1059(2)
C2 C 1.1311(3) 0.3248(3) 0.1041(3)
H1 H 1.0796 0.3702 0.0737
C3 C 1.2325(3) 0.3611(3) 0.1487(3)
H2 H 1.2495 0.4316 0.1495
C4 C 1.3083(3) 0.2916(3) 0.1922(3)
H3 H 1.3773 0.3165 0.2205
C5 C 1.1862(3) 0.1540(2) 0.1538(2)
C6 C 1.1624(3) 0.0424(2) 0.1662(2)
C7 C 1.2252(3) -0.1119(3) 0.2308(3)
H4 H 1.2817 -0.1491 0.2645
C8 C 1.1262(3) -0.1629(3) 0.1979(3)
H5 H 1.1162 -0.2333 0.2090
C9 C 1.0418(3) -0.1079(3) 0.1483(3)
H6 H 0.9728 -0.1405 0.1274
C10 C 1.0604(3) -0.0033(3) 0.1296(3)
C11 C 0.9722(3) 0.0570(3) 0.0713(2)
C12 C 1.0057(3) 0.1734(3) 0.0504(3)
C13 C 1.0162(3) 0.0767(3) -0.0873(2)
C14 C 0.8101(3) 0.1630(3) 0.1065(2)
N1 N 1.0367(3) 0.1705(2) -0.0485(2)
H7 H 1.0648 0.2226 -0.0788
N2 N 0.9659(3) 0.0141(2) -0.0237(2)
H8 H 0.9337 -0.0445 -0.0371
N3 N 0.8927(2) 0.2246(2) 0.0690(2)
H9 H 0.8803 0.2889 0.0569
N4 N 0.8573(2) 0.0654(2) 0.1175(2)
H10 H 0.8233 0.0160 0.1478
N5 N 1.2437(3) -0.0105(2) 0.2162(2)
N6 N 1.2858(2) 0.1897(2) 0.1952(2)
O1 O 1.4793(2) 0.0294(2) 0.13533(18)
H11 H 1.5372 -0.0159 0.1235
H12 H 1.4434 0.0191 0.0875
O2 O 1.5442(2) 0.1693(2) 0.27416(19)
H13 H 1.6056 0.1699 0.2197
H14 H 1.5795 0.1897 0.3276
O3 O 1.0371(2) 0.05574(18) -0.17044(17)
O4 O 1.3457(2) 0.13114(19) 0.39271(18)
H15 H 1.2738 0.0959 0.4184
H16 H 1.3249 0.1999 0.4014
O5 O 0.7076(2) 0.18802(18) 0.12941(18)
Co1 Co 1.39675(4) 0.07476(3) 0.25887(3)
O3A O 1.4629(2) -0.05574(18) 0.32956(17)
Co1A Co 1.10325(4) -0.07476(3) -0.24113(3)
O6 O 1.6128(3) 0.2069(2) 0.4504(2)
H17 H 1.6908 0.1947 0.4731
H18 H 1.5802 0.2534 0.4811
O7 O 1.0093(3) 0.1568(2) 0.4208(3)
H19 H 1.0556 0.1007 0.4262
H20 H 0.9424 0.1531 0.4570
Cl1 Cl 1.68439(9) -0.12883(7) 0.08040(8)
Cl2 Cl 1.17278(9) -0.03716(6) 0.45884(7)
loop_
_geom_bond_atom_site_label_1
_geom_bond_atom_site_label_2
_geom_bond_site_symmetry_1
_geom_bond_site_symmetry_2
C1 C2 1_555 1_555
C2 H1 1_555 1_555
C3 C2 1_555 1_555
H2 C3 1_555 1_555
C4 C3 1_555 1_555
H3 C4 1_555 1_555
C5 C1 1_555 1_555
C6 C5 1_555 1_555
C7 H4 1_555 1_555
C8 C7 1_555 1_555
H5 C8 1_555 1_555
C9 C8 1_555 1_555
H6 C9 1_555 1_555
C10 C6 1_555 1_555
C11 C10 1_555 1_555
C12 C1 1_555 1_555
C13 N1 1_555 1_555
C14 N3 1_555 1_555
N1 C12 1_555 1_555
H7 N1 1_555 1_555
N2 C11 1_555 1_555
H8 N2 1_555 1_555
N3 C12 1_555 1_555
H9 N3 1_555 1_555
N4 C11 1_555 1_555
H10 N4 1_555 1_555
N5 C6 1_555 1_555
N6 C4 1_555 1_555
O1 H11 1_555 1_555
H12 O1 1_555 1_555
O2 H13 1_555 1_555
H14 O2 1_555 1_555
O3 C13 1_555 1_555
O4 H15 1_555 1_555
H16 O4 1_555 1_555
O5 C14 1_555 1_555
Co1 N5 1_555 1_555
O6 H17 1_555 1_555
H18 O6 1_555 1_555
O7 H19 1_555 1_555
H20 O7 1_555 1_555
O3A Co1 1_555 1_555
Co1A O3 1_555 1_555
C5 N6 1_555 1_555
C7 N5 1_555 1_555
C9 C10 1_555 1_555
C11 C12 1_555 1_555
C13 N2 1_555 1_555
C14 N4 1_555 1_555
N6 Co1 1_555 1_555
O1 Co1 1_555 1_555
O2 Co1 1_555 1_555
O4 Co1 1_555 1_555

#END
