
#######################################################################
#
#                 Cambridge Crystallographic Data Centre
#                                CCDC 
#
#######################################################################
#
# If this CIF has been generated from an entry in the Cambridge 
# Structural Database, then it will include bibliographic, chemical, 
# crystal, experimental, refinement or atomic coordinate data resulting 
# from the CCDC's data processing and validation procedures.
#
#######################################################################

data_PUTNEZ
_symmetry_cell_setting           monoclinic
_symmetry_space_group_name_H-M   'C 2/c'
_symmetry_Int_Tables_number      15
_space_group_name_Hall           '-C 2yn'
loop_
_symmetry_equiv_pos_site_id
_symmetry_equiv_pos_as_xyz
1 x,y,z
2 -x,y,1/2-z
3 1/2+x,1/2+y,z
4 1/2-x,1/2+y,1/2-z
5 -x,-y,-z
6 x,-y,1/2+z
7 1/2-x,1/2-y,-z
8 1/2+x,1/2-y,1/2+z
_cell_length_a                   12.2092(11)
_cell_length_b                   14.6932(9)
_cell_length_c                   8.9998(10)
_cell_angle_alpha                90
_cell_angle_beta                 108.256(12)
_cell_angle_gamma                90
_cell_volume                     1533.23
loop_
_atom_site_label
_atom_site_type_symbol
_atom_site_fract_x
_atom_site_fract_y
_atom_site_fract_z
Mn1 Mn 0.64475(5) 0.03762(4) 0.89676(8)
O1 O 0.5907(4) 0.1575(3) 0.8283(7)
O2 O 0.8069(4) 0.4657(3) 0.8725(6)
O3 O 0.7075(4) 0.5228(3) 0.6434(6)
O4 O 0.4349(4) 0.9220(3) 0.6313(5)
C1 C 0.5000 0.1951(5) 0.7500
C2 C 0.5000 0.2972(5) 0.7500
C3 C 0.6023(4) 0.3440(4) 0.7838(7)
H1 H 0.6718 0.3123 0.8134
C4 C 0.6025(4) 0.4392(3) 0.7740(7)
C5 C 0.7130(4) 0.4804(4) 0.7691(7)
C6 C 0.5000 0.4886(5) 0.7500
C7 C 0.5000 0.5902(5) 0.7500
C8 C 0.4215(5) 0.6390(4) 0.6314(8)
H2 H 0.3682 0.6079 0.5505
C9 C 0.4212(6) 0.7339(4) 0.6316(8)
C10 C 0.5000 0.7807(5) 0.7500
C11 C 0.5000 0.8823(5) 0.7500
H3 H 0.364(5) 0.770(4) 0.546(7)
O1A O 0.4093(4) 0.1575(3) 0.6717(7)
O2A O 0.1931(4) 0.4657(3) 0.6275(6)
O3A O 0.2925(4) 0.5228(3) 0.8566(6)
O4A O 0.5651(4) 0.9220(3) 0.8687(5)
C3A C 0.3977(4) 0.3440(4) 0.7162(7)
H1A H 0.3282 0.3123 0.6866
C4A C 0.3975(4) 0.4392(3) 0.7260(7)
C5A C 0.2870(4) 0.4804(4) 0.7309(7)
C8A C 0.5785(5) 0.6390(4) 0.8686(8)
H2A H 0.6318 0.6079 0.9495
C9A C 0.5788(6) 0.7339(4) 0.8684(8)
H3A H 0.636(5) 0.770(4) 0.954(7)
Mn1A Mn 0.35525(5) 0.03762(4) 0.60324(8)
Mn1_2 Mn 0.64475(5) 1.03762(4) 0.89676(8)
Mn1A_2 Mn 0.35525(5) 1.03762(4) 0.60324(8)
Mn1B Mn 0.14475(5) 0.53762(4) 0.89676(8)
Mn1C Mn 0.85525(5) 0.53762(4) 0.60324(8)
Mn1F Mn 0.85525(5) 0.46238(4) 1.10324(8)
Mn1G Mn 0.14475(5) 0.46238(4) 0.39676(8)
O2F O 0.6931(4) 0.0343(3) 1.1275(6)
O2G O 0.3069(4) 0.0343(3) 0.3725(6)
O3B O 0.2075(4) 0.0228(3) 0.6434(6)
O3C O 0.7925(4) 0.0228(3) 0.8566(6)
O4_2 O 0.4349(4) -0.0780(3) 0.6313(5)
O4A_2 O 0.5651(4) -0.0780(3) 0.8687(5)
loop_
_geom_bond_atom_site_label_1
_geom_bond_atom_site_label_2
_geom_bond_site_symmetry_1
_geom_bond_site_symmetry_2
Mn1 O1 1_555 1_555
O1 C1 1_555 1_555
O2 C5 1_555 1_555
O3 C5 1_555 1_555
O4 C11 1_555 1_555
C1 C2 1_555 1_555
C2 C3 1_555 1_555
C3 H1 1_555 1_555
C4 C3 1_555 1_555
C5 C4 1_555 1_555
C6 C4 1_555 1_555
C7 C6 1_555 1_555
C8 C7 1_555 1_555
H2 C8 1_555 1_555
C9 C8 1_555 1_555
C10 C9 1_555 1_555
C11 C10 1_555 1_555
H3 C9 1_555 1_555
O1A C1 1_555 1_555
O2A C5A 1_555 1_555
O3A C5A 1_555 1_555
O4A C11 1_555 1_555
C3A C2 1_555 1_555
H1A C3A 1_555 1_555
C4A C6 1_555 1_555
C5A C4A 1_555 1_555
C8A C7 1_555 1_555
H2A C8A 1_555 1_555
C9A C10 1_555 1_555
H3A C9A 1_555 1_555
Mn1A O1A 1_555 1_555
Mn1_2 O4A 1_555 1_555
Mn1A_2 O4 1_555 1_555
Mn1B O3A 1_555 1_555
Mn1C O3 1_555 1_555
Mn1F O2 1_555 1_555
Mn1G O2A 1_555 1_555
O2F Mn1 1_555 1_555
O2G Mn1A 1_555 1_555
O3B Mn1A 1_555 1_555
O3C Mn1 1_555 1_555
O4_2 Mn1A 1_555 1_555
O4A_2 Mn1 1_555 1_555
C3A C4A 1_555 1_555
C8A C9A 1_555 1_555

#END
