
#######################################################################
#
#                 Cambridge Crystallographic Data Centre
#                                CCDC 
#
#######################################################################
#
# If this CIF has been generated from an entry in the Cambridge 
# Structural Database, then it will include bibliographic, chemical, 
# crystal, experimental, refinement or atomic coordinate data resulting 
# from the CCDC's data processing and validation procedures.
#
#######################################################################

data_PUTSUU
_symmetry_cell_setting           triclinic
_symmetry_space_group_name_H-M   'P -1'
_symmetry_Int_Tables_number      2
_space_group_name_Hall           '-P 1'
loop_
_symmetry_equiv_pos_site_id
_symmetry_equiv_pos_as_xyz
1 x,y,z
2 -x,-y,-z
_cell_length_a                   8.6570(3)
_cell_length_b                   12.0738(4)
_cell_length_c                   12.2001(3)
_cell_angle_alpha                68.719(2)
_cell_angle_beta                 69.779(2)
_cell_angle_gamma                85.744(2)
_cell_volume                     1113.09
loop_
_atom_site_label
_atom_site_type_symbol
_atom_site_fract_x
_atom_site_fract_y
_atom_site_fract_z
Cu1 Cu 0.31055(6) 0.52760(4) 0.98840(4)
Cu2 Cu 0.40092(6) 0.61194(4) 0.55820(4)
O1 O 0.4537(3) 0.6333(2) 0.9896(2)
O2 O 0.4886(3) 0.7181(2) 0.6082(2)
O3 O 0.2073(3) 0.4527(2) 1.1918(2)
O4 O 0.0322(3) 0.3010(2) 1.3404(2)
O5 O 0.4632(4) 0.7295(3) 0.3829(3)
N1 N 0.3628(4) 0.5865(3) 0.8059(3)
N2 N 0.3051(4) 0.5331(3) 0.7407(3)
N3 N 0.1592(4) 0.4134(3) 1.0125(3)
C1 C 0.7353(6) 1.0122(4) 0.8679(4)
H1 H 0.7182 0.9796 0.9559
H2 H 0.6818 1.0857 0.8488
H3 H 0.8513 1.0264 0.8214
C2 C 0.6633(5) 0.9244(4) 0.8324(4)
C3 C 0.5899(5) 0.8188(3) 0.9210(4)
H4 H 0.5860 0.8016 1.0027
C4 C 0.5194(4) 0.7338(3) 0.8950(4)
C5 C 0.5275(4) 0.7608(3) 0.7704(3)
C6 C 0.6067(5) 0.8697(4) 0.6799(4)
H5 H 0.6141 0.8877 0.5973
C7 C 0.6736(5) 0.9504(4) 0.7089(4)
H6 H 0.7252 1.0218 0.6468
C8 C 0.4583(4) 0.6841(3) 0.7265(3)
C9 C 0.1988(4) 0.4410(3) 0.8010(3)
H7 H 0.1680 0.4119 0.7502
C10 C 0.1237(4) 0.3791(3) 0.9303(3)
C11 C 0.0746(4) 0.3379(3) 1.1292(3)
C12 C -0.0190(4) 0.2525(3) 1.1232(4)
C13 C 0.0097(4) 0.2767(3) 0.9978(4)
C14 C 0.1093(4) 0.3676(3) 1.2237(3)
C15 C 0.0745(5) 0.3270(4) 1.4347(4)
H8 H 0.1931 0.3287 1.4151
H9 H 0.0362 0.4039 1.4375
C16 C -0.0073(6) 0.2315(5) 1.5565(4)
H10 H 0.0181 0.2455 1.6212
H11 H 0.0314 0.1560 1.5525
H12 H -0.1245 0.2309 1.5749
C17 C -0.1223(5) 0.1485(4) 1.2331(4)
H13 H -0.1746 0.1035 1.2035
H14 H -0.2050 0.1776 1.2905
H15 H -0.0529 0.0984 1.2749
C18 C -0.0599(5) 0.2109(4) 0.9412(4)
H16 H -0.1327 0.1459 1.0065
H17 H 0.0282 0.1807 0.8882
H18 H -0.1200 0.2639 0.8924
C19 C 0.6062(6) 0.8120(4) 0.3198(5)
H19 H 0.6088 0.8590 0.2365
H20 H 0.7042 0.7685 0.3156
H21 H 0.6006 0.8634 0.3653
Cl1 Cl 0.29067(13) 0.48562(10) 0.50616(9)
H22 H 0.441(6) 0.717(4) 0.326(3)
Cu1A Cu 0.68945(6) 0.47240(4) 1.01160(4)
Cu2A Cu 0.59908(6) 0.38806(4) 0.44180(4)
O1A O 0.5463(3) 0.3667(2) 1.0104(2)
Cl1A Cl 0.70933(13) 0.51438(10) 0.49384(9)
O6 O 0.3740(5) 0.6578(3) 0.2248(3)
H23 H 0.406(5) 0.664(4) 0.1488(18)
H24 H 0.316(5) 0.595(3) 0.270(3)
loop_
_geom_bond_atom_site_label_1
_geom_bond_atom_site_label_2
_geom_bond_site_symmetry_1
_geom_bond_site_symmetry_2
Cu1 O1 1_555 1_555
Cu2 O2 1_555 1_555
O1 C4 1_555 1_555
O2 C8 1_555 1_555
O3 Cu1 1_555 1_555
O4 C14 1_555 1_555
O5 Cu2 1_555 1_555
N1 Cu1 1_555 1_555
N2 Cu2 1_555 1_555
N3 Cu1 1_555 1_555
C1 H1 1_555 1_555
H2 C1 1_555 1_555
H3 C1 1_555 1_555
C2 C1 1_555 1_555
C3 C2 1_555 1_555
H4 C3 1_555 1_555
C4 C3 1_555 1_555
C5 C4 1_555 1_555
C6 C5 1_555 1_555
H5 C6 1_555 1_555
C7 C2 1_555 1_555
H6 C7 1_555 1_555
C8 N1 1_555 1_555
C9 N2 1_555 1_555
H7 C9 1_555 1_555
C10 N3 1_555 1_555
C11 N3 1_555 1_555
C12 C11 1_555 1_555
C13 C10 1_555 1_555
C14 O3 1_555 1_555
C15 O4 1_555 1_555
H8 C15 1_555 1_555
H9 C15 1_555 1_555
C16 C15 1_555 1_555
H10 C16 1_555 1_555
H11 C16 1_555 1_555
H12 C16 1_555 1_555
C17 C12 1_555 1_555
H13 C17 1_555 1_555
H14 C17 1_555 1_555
H15 C17 1_555 1_555
C18 C13 1_555 1_555
H16 C18 1_555 1_555
H17 C18 1_555 1_555
H18 C18 1_555 1_555
C19 O5 1_555 1_555
H19 C19 1_555 1_555
H20 C19 1_555 1_555
H21 C19 1_555 1_555
Cl1 Cu2 1_555 1_555
H22 O5 1_555 1_555
O6 H23 1_555 1_555
H24 O6 1_555 1_555
Cu1A O1 1_555 1_555
Cu2A Cl1 1_555 1_555
O1A Cu1 1_555 1_555
Cl1A Cu2 1_555 1_555
N1 N2 1_555 1_555
C5 C8 1_555 1_555
C6 C7 1_555 1_555
C9 C10 1_555 1_555
C11 C14 1_555 1_555
C12 C13 1_555 1_555
Cu1A O1A 1_555 1_555
Cu2A Cl1A 1_555 1_555

#END
