
#######################################################################
#
#                 Cambridge Crystallographic Data Centre
#                                CCDC 
#
#######################################################################
#
# If this CIF has been generated from an entry in the Cambridge 
# Structural Database, then it will include bibliographic, chemical, 
# crystal, experimental, refinement or atomic coordinate data resulting 
# from the CCDC's data processing and validation procedures.
#
#######################################################################

data_PUTSEC
_symmetry_cell_setting           monoclinic
_symmetry_space_group_name_H-M   'C 2/c'
_symmetry_Int_Tables_number      15
_space_group_name_Hall           '-C 2yn'
loop_
_symmetry_equiv_pos_site_id
_symmetry_equiv_pos_as_xyz
1 x,y,z
2 1/2+x,1/2+y,z
3 x,-y,1/2+z
4 1/2+x,1/2-y,1/2+z
5 -x,-y,-z
6 1/2-x,1/2-y,-z
7 -x,y,1/2-z
8 1/2-x,1/2+y,1/2-z
_cell_length_a                   21.407(6)
_cell_length_b                   11.860(3)
_cell_length_c                   13.912(2)
_cell_angle_alpha                90
_cell_angle_beta                 91.04(2)
_cell_angle_gamma                90
_cell_volume                     3531.49
loop_
_atom_site_label
_atom_site_type_symbol
_atom_site_fract_x
_atom_site_fract_y
_atom_site_fract_z
Ni1 Ni 0.55288(5) 0.09230(9) 0.01109(8)
N1 N 0.6518(2) 0.0879(5) 0.0182(4)
C1 C 0.6538(3) 0.0736(6) -0.0798(5)
C2 C 0.7104(3) 0.0790(6) -0.1270(5)
H1 H 0.7117(3) 0.0709(6) -0.1942(5)
C3 C 0.7639(3) 0.0964(6) -0.0745(6)
H2 H 0.8025(3) 0.1000(6) -0.1055(6)
C4 C 0.7615(3) 0.1089(6) 0.0258(5)
H3 H 0.7980(3) 0.1195(6) 0.0632(5)
C5 C 0.7048(3) 0.1051(6) 0.0664(5)
O1 O 0.5993(2) 0.0594(4) -0.1189(3)
Cl1 Cl 0.69836(9) 0.1264(2) 0.18868(13)
N2 N 0.5538(2) 0.2652(4) 0.0119(4)
C6 C 0.5493(3) 0.2724(6) 0.1092(5)
C7 C 0.5568(3) 0.3753(6) 0.1559(5)
H4 H 0.5533(3) 0.3795(6) 0.2230(5)
C8 C 0.5691(3) 0.4693(6) 0.1048(5)
H5 H 0.5755(3) 0.5384(6) 0.1366(5)
C9 C 0.5725(3) 0.4636(6) 0.0029(5)
H6 H 0.5799(3) 0.5277(6) -0.0350(5)
C10 C 0.5644(3) 0.3592(6) -0.0359(5)
O2 O 0.5388(2) 0.1742(4) 0.1494(3)
Cl2 Cl 0.56906(10) 0.3444(2) -0.16046(12)
N3 N 0.3989(3) 0.1973(5) 0.0397(4)
C11 C 0.4160(3) 0.1478(6) -0.0427(5)
C12 C 0.3856(3) 0.1718(6) -0.1305(5)
H7 H 0.3981(3) 0.1364(6) -0.1875(5)
C13 C 0.3370(3) 0.2486(6) -0.1318(5)
H8 H 0.3160(3) 0.2655(6) -0.1900(5)
C14 C 0.3191(3) 0.3005(6) -0.0480(5)
H9 H 0.2867(3) 0.3539(6) -0.0467(5)
C15 C 0.3517(3) 0.2693(6) 0.0332(5)
O3 O 0.4626(2) 0.0737(4) -0.0387(3)
Cl3 Cl 0.33164(10) 0.3323(2) 0.14257(13)
Na1 Na 0.56342(12) -0.1091(2) -0.1925(2)
O4 O 0.5000 0.0406(5) -0.2500
H10 H 0.5154 0.0784(5) -0.2909
Ni1D Ni 0.44712(5) -0.09230(9) -0.01109(8)
N1D N 0.3482(2) -0.0879(5) -0.0182(4)
C1D C 0.3462(3) -0.0736(6) 0.0798(5)
C2D C 0.2896(3) -0.0790(6) 0.1270(5)
H1D H 0.2883(3) -0.0709(6) 0.1942(5)
C3D C 0.2361(3) -0.0964(6) 0.0745(6)
H2D H 0.1975(3) -0.1000(6) 0.1055(6)
C4D C 0.2385(3) -0.1089(6) -0.0258(5)
H3D H 0.2020(3) -0.1195(6) -0.0632(5)
C5D C 0.2952(3) -0.1051(6) -0.0664(5)
Cl1D Cl 0.30164(9) -0.1264(2) -0.18868(13)
O1D O 0.4007(2) -0.0594(4) 0.1189(3)
N2D N 0.4462(2) -0.2652(4) -0.0119(4)
C6D C 0.4507(3) -0.2724(6) -0.1092(5)
C7D C 0.4432(3) -0.3753(6) -0.1559(5)
H4D H 0.4467(3) -0.3795(6) -0.2230(5)
C8D C 0.4309(3) -0.4693(6) -0.1048(5)
H5D H 0.4245(3) -0.5384(6) -0.1366(5)
C9D C 0.4275(3) -0.4636(6) -0.0029(5)
H6D H 0.4201(3) -0.5277(6) 0.0350(5)
C10D C 0.4356(3) -0.3592(6) 0.0359(5)
Cl2D Cl 0.43094(10) -0.3444(2) 0.16046(12)
O2D O 0.4612(2) -0.1742(4) -0.1494(3)
O3D O 0.5374(2) -0.0737(4) 0.0387(3)
C11D C 0.5840(3) -0.1478(6) 0.0427(5)
N3D N 0.6011(3) -0.1973(5) -0.0397(4)
C15D C 0.6483(3) -0.2693(6) -0.0332(5)
C14D C 0.6809(3) -0.3005(6) 0.0480(5)
C13D C 0.6630(3) -0.2486(6) 0.1318(5)
C12D C 0.6144(3) -0.1718(6) 0.1305(5)
H7D H 0.6019(3) -0.1364(6) 0.1875(5)
H8D H 0.6840(3) -0.2655(6) 0.1900(5)
H9D H 0.7133(3) -0.3539(6) 0.0467(5)
Cl3D Cl 0.66836(10) -0.3323(2) -0.14257(13)
H10F H 0.4846 0.0784(5) -0.2091
O2B O 0.5388(2) -0.1742(4) -0.3506(3)
Na1D Na 0.43658(12) 0.1091(2) 0.1925(2)
Na1F Na 0.43658(12) -0.1091(2) -0.3075(2)
Na1B Na 0.56342(12) 0.1091(2) 0.3075(2)
O2F O 0.4612(2) 0.1742(4) 0.3506(3)
O4D O 0.5000 -0.0406(5) 0.2500
H10D H 0.4846 -0.0784(5) 0.2909
H10B H 0.5154 -0.0784(5) 0.2091
loop_
_geom_bond_atom_site_label_1
_geom_bond_atom_site_label_2
_geom_bond_site_symmetry_1
_geom_bond_site_symmetry_2
Ni1 N1 1_555 1_555
N1 C1 1_555 1_555
C1 C2 1_555 1_555
C2 H1 1_555 1_555
C3 C2 1_555 1_555
H2 C3 1_555 1_555
C4 C3 1_555 1_555
H3 C4 1_555 1_555
C5 N1 1_555 1_555
O1 Ni1 1_555 1_555
Cl1 C5 1_555 1_555
N2 Ni1 1_555 1_555
C6 N2 1_555 1_555
C7 C6 1_555 1_555
H4 C7 1_555 1_555
C8 C7 1_555 1_555
H5 C8 1_555 1_555
C9 C8 1_555 1_555
H6 C9 1_555 1_555
C10 N2 1_555 1_555
O2 Ni1 1_555 1_555
Cl2 C10 1_555 1_555
N3 C11 1_555 1_555
C11 C12 1_555 1_555
C12 H7 1_555 1_555
C13 C12 1_555 1_555
H8 C13 1_555 1_555
C14 C13 1_555 1_555
H9 C14 1_555 1_555
C15 N3 1_555 1_555
O3 Ni1 1_555 1_555
Cl3 C15 1_555 1_555
Na1 O1 1_555 1_555
O4 Na1 1_555 1_555
H10 O4 1_555 1_555
Ni1D O3 1_555 1_555
N1D Ni1D 1_555 1_555
C1D N1D 1_555 1_555
C2D C1D 1_555 1_555
H1D C2D 1_555 1_555
C3D C2D 1_555 1_555
H2D C3D 1_555 1_555
C4D C3D 1_555 1_555
H3D C4D 1_555 1_555
C5D N1D 1_555 1_555
Cl1D C5D 1_555 1_555
O1D Ni1D 1_555 1_555
N2D Ni1D 1_555 1_555
C6D N2D 1_555 1_555
C7D C6D 1_555 1_555
H4D C7D 1_555 1_555
C8D C7D 1_555 1_555
H5D C8D 1_555 1_555
C9D C8D 1_555 1_555
H6D C9D 1_555 1_555
C10D N2D 1_555 1_555
Cl2D C10D 1_555 1_555
O2D Na1 1_555 1_555
O3D Ni1 1_555 1_555
C11D O3D 1_555 1_555
N3D Na1 1_555 1_555
C15D N3D 1_555 1_555
C14D C15D 1_555 1_555
C13D C14D 1_555 1_555
C12D C11D 1_555 1_555
H7D C12D 1_555 1_555
H8D C13D 1_555 1_555
H9D C14D 1_555 1_555
Cl3D C15D 1_555 1_555
H10F O4 1_555 1_555
O2B Na1 1_555 1_555
Na1D O2 1_555 1_555
Na1F O4 1_555 1_555
Na1B O2 1_555 1_555
O2F Na1D 1_555 1_555
O4D Na1D 1_555 1_555
H10D O4D 1_555 1_555
H10B O4D 1_555 1_555
C1 O1 1_555 1_555
C4 C5 1_555 1_555
C6 O2 1_555 1_555
C9 C10 1_555 1_555
N3 Na1D 1_555 1_555
C11 O3 1_555 1_555
C14 C15 1_555 1_555
Ni1D O3D 1_555 1_555
Ni1D O2D 1_555 1_555
C1D O1D 1_555 1_555
C4D C5D 1_555 1_555
O1D Na1D 1_555 1_555
C6D O2D 1_555 1_555
C9D C10D 1_555 1_555
O2D Na1F 1_555 1_555
C11D N3D 1_555 1_555
C13D C12D 1_555 1_555
O2B Na1F 1_555 1_555
Na1B O2F 1_555 1_555
Na1B O4D 1_555 1_555

#END
