
#######################################################################
#
#                 Cambridge Crystallographic Data Centre
#                                CCDC 
#
#######################################################################
#
# If this CIF has been generated from an entry in the Cambridge 
# Structural Database, then it will include bibliographic, chemical, 
# crystal, experimental, refinement or atomic coordinate data resulting 
# from the CCDC's data processing and validation procedures.
#
#######################################################################

data_PUTSIG
_symmetry_cell_setting           monoclinic
_symmetry_space_group_name_H-M   'C 2/c'
_symmetry_Int_Tables_number      15
_space_group_name_Hall           '-C 2yn'
loop_
_symmetry_equiv_pos_site_id
_symmetry_equiv_pos_as_xyz
1 x,y,z
2 1/2+x,1/2+y,z
3 x,-y,1/2+z
4 1/2+x,1/2-y,1/2+z
5 -x,-y,-z
6 1/2-x,1/2-y,-z
7 -x,y,1/2-z
8 1/2-x,1/2+y,1/2-z
_cell_length_a                   21.590(13)
_cell_length_b                   11.916(9)
_cell_length_c                   13.879(10)
_cell_angle_alpha                90
_cell_angle_beta                 91.37(6)
_cell_angle_gamma                90
_cell_volume                     3569.58
loop_
_atom_site_label
_atom_site_type_symbol
_atom_site_fract_x
_atom_site_fract_y
_atom_site_fract_z
Co1 Co 0.44749(7) 0.09268(13) 0.98887(11)
Na1 Na 0.4359(2) -0.1122(3) 1.1929(3)
O1 O 0.5000 0.0364(8) 1.2500
H1 H 0.4961(53) 0.0794(19) 1.2015(11)
N1 N 0.3465(3) 0.0906(6) 0.9821(5)
C1 C 0.3450(4) 0.0718(8) 1.0784(6)
C2 C 0.2888(4) 0.0771(9) 1.1280(7)
H2 H 0.2879(4) 0.0689(9) 1.1953(7)
C3 C 0.2358(5) 0.0946(10) 1.0744(8)
H3 H 0.1976(5) 0.0970(10) 1.1054(8)
C4 C 0.2370(5) 0.1088(9) 0.9757(7)
H4 H 0.2002(5) 0.1190(9) 0.9391(7)
C5 C 0.2932(4) 0.1075(8) 0.9332(6)
O2 O 0.3995(3) 0.0563(6) 1.1193(4)
Cl1 Cl 0.29959(14) 0.1315(3) 0.8112(2)
N2 N 0.4460(4) 0.2705(6) 0.9871(5)
C6 C 0.4503(4) 0.2751(7) 0.8901(6)
C7 C 0.4426(5) 0.3787(7) 0.8416(6)
H5 H 0.4452(5) 0.3828(7) 0.7742(6)
C8 C 0.4314(5) 0.4725(8) 0.8946(7)
H6 H 0.4269(5) 0.5420(8) 0.8632(7)
C9 C 0.4265(5) 0.4672(8) 0.9941(6)
H7 H 0.4176(5) 0.5312(8) 1.0308(6)
C10 C 0.4353(5) 0.3647(8) 1.0360(6)
O3 O 0.4613(3) 0.1772(5) 0.8504(4)
Cl2 Cl 0.43052(14) 0.3490(2) 1.1601(2)
N3 N 0.6018(3) 0.1971(6) 0.9636(5)
C11 C 0.5839(4) 0.1483(7) 1.0458(7)
C12 C 0.6145(4) 0.1722(8) 1.1349(7)
H8 H 0.6018(4) 0.1382(8) 1.1923(7)
C13 C 0.6627(5) 0.2459(9) 1.1350(7)
H9 H 0.6838(5) 0.2623(9) 1.1934(7)
C14 C 0.6815(5) 0.2976(8) 1.0502(6)
H10 H 0.7148(5) 0.3484(8) 1.0497(6)
C15 C 0.6487(4) 0.2702(8) 0.9682(6)
O4 O 0.5371(3) 0.0764(5) 1.0407(5)
Cl3 Cl 0.66864(14) 0.3305(3) 0.8599(2)
Co1D Co 0.55251(7) -0.09268(13) 1.01113(11)
N1D N 0.6535(3) -0.0906(6) 1.0179(5)
C1D C 0.6550(4) -0.0718(8) 0.9216(6)
C2D C 0.7112(4) -0.0771(9) 0.8720(7)
H2D H 0.7121(4) -0.0689(9) 0.8047(7)
C3D C 0.7642(5) -0.0946(10) 0.9256(8)
H3D H 0.8024(5) -0.0970(10) 0.8946(8)
C4D C 0.7630(5) -0.1088(9) 1.0243(7)
H4D H 0.7998(5) -0.1190(9) 1.0609(7)
C5D C 0.7068(4) -0.1075(8) 1.0668(6)
Cl1D Cl 0.70041(14) -0.1315(3) 1.1888(2)
O2D O 0.6005(3) -0.0563(6) 0.8807(4)
N2D N 0.5540(4) -0.2705(6) 1.0129(5)
C6D C 0.5497(4) -0.2751(7) 1.1099(6)
C7D C 0.5574(5) -0.3787(7) 1.1584(6)
H5D H 0.5548(5) -0.3828(7) 1.2258(6)
C8D C 0.5686(5) -0.4725(8) 1.1054(7)
H6D H 0.5731(5) -0.5420(8) 1.1368(7)
C9D C 0.5735(5) -0.4672(8) 1.0059(6)
H7D H 0.5824(5) -0.5312(8) 0.9692(6)
C10D C 0.5647(5) -0.3647(8) 0.9640(6)
Cl2D Cl 0.56948(14) -0.3490(2) 0.8399(2)
O3D O 0.5387(3) -0.1772(5) 1.1496(4)
O4D O 0.4629(3) -0.0764(5) 0.9593(5)
C11D C 0.4161(4) -0.1483(7) 0.9542(7)
N3D N 0.3982(3) -0.1971(6) 1.0364(5)
C15D C 0.3513(4) -0.2702(8) 1.0318(6)
C14D C 0.3185(5) -0.2976(8) 0.9498(6)
H10D H 0.2852(5) -0.3484(8) 0.9503(6)
Cl3D Cl 0.33136(14) -0.3305(3) 1.1401(2)
C12D C 0.3855(4) -0.1722(8) 0.8651(7)
H8D H 0.3982(4) -0.1382(8) 0.8077(7)
H1F H 0.5039(53) 0.0794(19) 1.2985(11)
O3B O 0.4613(3) -0.1772(5) 1.3504(4)
Na1F Na 0.5641(2) -0.1122(3) 1.3071(3)
Na1D Na 0.5641(2) 0.1122(3) 0.8071(3)
Na1B Na 0.4359(2) 0.1122(3) 0.6929(3)
C13D C 0.3373(5) -0.2459(9) 0.8650(7)
H9D H 0.3162(5) -0.2623(9) 0.8066(7)
O1B O 0.5000 -0.0364(8) 0.7500
O3F O 0.5387(3) 0.1772(5) 0.6496(4)
H1B H 0.4961(53) -0.0794(19) 0.7015(11)
H1D H 0.5039(53) -0.0794(19) 0.7985(11)
loop_
_geom_bond_atom_site_label_1
_geom_bond_atom_site_label_2
_geom_bond_site_symmetry_1
_geom_bond_site_symmetry_2
Co1 N1 1_555 1_555
Na1 O1 1_555 1_555
O1 H1 1_555 1_555
N1 C1 1_555 1_555
C1 C2 1_555 1_555
C2 H2 1_555 1_555
C3 C2 1_555 1_555
H3 C3 1_555 1_555
C4 C3 1_555 1_555
H4 C4 1_555 1_555
C5 N1 1_555 1_555
O2 Co1 1_555 1_555
Cl1 C5 1_555 1_555
N2 Co1 1_555 1_555
C6 N2 1_555 1_555
C7 C6 1_555 1_555
H5 C7 1_555 1_555
C8 C7 1_555 1_555
H6 C8 1_555 1_555
C9 C8 1_555 1_555
H7 C9 1_555 1_555
C10 N2 1_555 1_555
O3 Co1 1_555 1_555
Cl2 C10 1_555 1_555
N3 C11 1_555 1_555
C11 C12 1_555 1_555
C12 H8 1_555 1_555
C13 C12 1_555 1_555
H9 C13 1_555 1_555
C14 C13 1_555 1_555
H10 C14 1_555 1_555
C15 N3 1_555 1_555
O4 Co1 1_555 1_555
Cl3 C15 1_555 1_555
Co1D O4 1_555 1_555
N1D Co1D 1_555 1_555
C1D N1D 1_555 1_555
C2D C1D 1_555 1_555
H2D C2D 1_555 1_555
C3D C2D 1_555 1_555
H3D C3D 1_555 1_555
C4D C3D 1_555 1_555
H4D C4D 1_555 1_555
C5D N1D 1_555 1_555
Cl1D C5D 1_555 1_555
O2D Co1D 1_555 1_555
N2D Co1D 1_555 1_555
C6D N2D 1_555 1_555
C7D C6D 1_555 1_555
H5D C7D 1_555 1_555
C8D C7D 1_555 1_555
H6D C8D 1_555 1_555
C9D C8D 1_555 1_555
H7D C9D 1_555 1_555
C10D N2D 1_555 1_555
Cl2D C10D 1_555 1_555
O3D Na1 1_555 1_555
O4D Co1 1_555 1_555
C11D O4D 1_555 1_555
N3D Na1 1_555 1_555
C15D N3D 1_555 1_555
C14D C15D 1_555 1_555
H10D C14D 1_555 1_555
Cl3D C15D 1_555 1_555
C12D C11D 1_555 1_555
H8D C12D 1_555 1_555
H1F O1 1_555 1_555
O3B Na1 1_555 1_555
Na1F O1 1_555 1_555
Na1D O3 1_555 1_555
Na1B O3 1_555 1_555
C13D C14D 1_555 1_555
H9D C13D 1_555 1_555
O1B Na1D 1_555 1_555
O3F Na1D 1_555 1_555
H1B O1B 1_555 1_555
H1D O1B 1_555 1_555
Na1 O2 1_555 1_555
C1 O2 1_555 1_555
C4 C5 1_555 1_555
C6 O3 1_555 1_555
C9 C10 1_555 1_555
N3 Na1D 1_555 1_555
C11 O4 1_555 1_555
C14 C15 1_555 1_555
Co1D O4D 1_555 1_555
Co1D O3D 1_555 1_555
C1D O2D 1_555 1_555
C4D C5D 1_555 1_555
O2D Na1D 1_555 1_555
C6D O3D 1_555 1_555
C9D C10D 1_555 1_555
O3D Na1F 1_555 1_555
C11D N3D 1_555 1_555
C12D C13D 1_555 1_555
O3B Na1F 1_555 1_555
Na1B O1B 1_555 1_555
Na1B O3F 1_555 1_555

#END
