
#######################################################################
#
#                 Cambridge Crystallographic Data Centre
#                                CCDC 
#
#######################################################################
#
# If this CIF has been generated from an entry in the Cambridge 
# Structural Database, then it will include bibliographic, chemical, 
# crystal, experimental, refinement or atomic coordinate data resulting 
# from the CCDC's data processing and validation procedures.
#
#######################################################################

data_PUTSOM
_symmetry_cell_setting           triclinic
_symmetry_space_group_name_H-M   'P -1'
_symmetry_Int_Tables_number      2
_space_group_name_Hall           '-P 1'
loop_
_symmetry_equiv_pos_site_id
_symmetry_equiv_pos_as_xyz
1 x,y,z
2 -x,-y,-z
_cell_length_a                   7.2614(19)
_cell_length_b                   11.316(2)
_cell_length_c                   12.105(3)
_cell_angle_alpha                112.204(10)
_cell_angle_beta                 93.119(14)
_cell_angle_gamma                105.192(13)
_cell_volume                     875.521
loop_
_atom_site_label
_atom_site_type_symbol
_atom_site_fract_x
_atom_site_fract_y
_atom_site_fract_z
Co1 Co 0.41994(11) -0.55381(8) -0.40714(7)
Na1 Na -0.0069(3) -0.4211(2) -0.3606(2)
N1 N 0.2356(6) -0.7343(4) -0.4066(4)
C1 C 0.0715(8) -0.7083(5) -0.4379(5)
O1 O 0.1074(5) -0.6077(4) -0.4680(3)
C2 C -0.1111(8) -0.7846(6) -0.4310(6)
H1 H -0.2253 -0.7702 -0.4556
C3 C -0.1170(8) -0.8798(6) -0.3875(6)
H2 H -0.2381 -0.9308 -0.3815
C4 C 0.0479(8) -0.9051(6) -0.3517(6)
H3 H 0.0430 -0.9700 -0.3204
C5 C 0.2180(8) -0.8289(6) -0.3650(5)
Cl1 Cl 0.4352(2) -0.85569(18) -0.32820(16)
N2 N 0.4357(7) -0.4633(5) -0.2139(4)
C6 C 0.6335(8) -0.4195(6) -0.1961(5)
O2 O 0.7037(5) -0.4599(4) -0.2937(4)
C7 C 0.7382(9) -0.3377(6) -0.0782(5)
H4 H 0.8741 -0.3050 -0.0652
C8 C 0.6411(9) -0.3064(7) 0.0169(6)
H5 H 0.7111 -0.2526 0.0956
C9 C 0.4404(9) -0.3529(7) -0.0009(6)
H6 H 0.3716 -0.3329 0.0639
C10 C 0.3478(8) -0.4299(6) -0.1186(6)
Cl2 Cl 0.0955(2) -0.4946(2) -0.15030(16)
N3 N 0.3247(6) -0.2471(5) -0.3012(4)
C11 C 0.4821(8) -0.2666(5) -0.3504(5)
O3 O 0.4566(5) -0.3830(4) -0.4418(3)
C12 C 0.6635(8) -0.1695(6) -0.3036(5)
H7 H 0.7721 -0.1834 -0.3392
C13 C 0.6803(8) -0.0530(6) -0.2044(6)
H8 H 0.8023 0.0119 -0.1707
C14 C 0.5212(8) -0.0305(6) -0.1542(6)
H9 H 0.5288 0.0492 -0.0877
C15 C 0.3505(8) -0.1319(6) -0.2074(5)
Cl3 Cl 0.1385(2) -0.11267(18) -0.14881(17)
O3A O 0.5434(5) -0.6170(4) -0.5582(3)
Na1A Na 0.0069(3) -0.5789(2) -0.6394(2)
O1A O -0.1074(5) -0.3923(4) -0.5320(3)
O2_2 O -0.2963(5) -0.4599(4) -0.2937(4)
Na1_2 Na 0.9931(3) -0.4211(2) -0.3606(2)
Co1A Co 0.58006(11) -0.44619(8) -0.59286(7)
loop_
_geom_bond_atom_site_label_1
_geom_bond_atom_site_label_2
_geom_bond_site_symmetry_1
_geom_bond_site_symmetry_2
Co1 N1 1_555 1_555
Na1 O1 1_555 1_555
N1 C1 1_555 1_555
C1 O1 1_555 1_555
O1 Co1 1_555 1_555
C2 C1 1_555 1_555
H1 C2 1_555 1_555
C3 C2 1_555 1_555
H2 C3 1_555 1_555
C4 C3 1_555 1_555
H3 C4 1_555 1_555
C5 N1 1_555 1_555
Cl1 C5 1_555 1_555
N2 Co1 1_555 1_555
C6 N2 1_555 1_555
O2 Co1 1_555 1_555
C7 C6 1_555 1_555
H4 C7 1_555 1_555
C8 C7 1_555 1_555
H5 C8 1_555 1_555
C9 C8 1_555 1_555
H6 C9 1_555 1_555
C10 N2 1_555 1_555
Cl2 Na1 1_555 1_555
N3 Na1 1_555 1_555
C11 N3 1_555 1_555
O3 Co1 1_555 1_555
C12 C11 1_555 1_555
H7 C12 1_555 1_555
C13 C12 1_555 1_555
H8 C13 1_555 1_555
C14 C13 1_555 1_555
H9 C14 1_555 1_555
C15 N3 1_555 1_555
Cl3 Na1 1_555 1_555
O3A Co1 1_555 1_555
Na1A O1 1_555 1_555
O1A Na1 1_555 1_555
O2_2 Na1 1_555 1_555
Na1_2 O2 1_555 1_555
Co1A O3 1_555 1_555
C4 C5 1_555 1_555
C6 O2 1_555 1_555
C9 C10 1_555 1_555
C10 Cl2 1_555 1_555
C11 O3 1_555 1_555
C14 C15 1_555 1_555
C15 Cl3 1_555 1_555
O3A Co1A 1_555 1_555
Na1A O1A 1_555 1_555

#END
