
#######################################################################
#
#                 Cambridge Crystallographic Data Centre
#                                CCDC 
#
#######################################################################
#
# If this CIF has been generated from an entry in the Cambridge 
# Structural Database, then it will include bibliographic, chemical, 
# crystal, experimental, refinement or atomic coordinate data resulting 
# from the CCDC's data processing and validation procedures.
#
#######################################################################

data_PUTTUV
_symmetry_cell_setting           triclinic
_symmetry_space_group_name_H-M   'P -1'
_symmetry_Int_Tables_number      2
_space_group_name_Hall           '-P 1'
loop_
_symmetry_equiv_pos_site_id
_symmetry_equiv_pos_as_xyz
1 x,y,z
2 -x,-y,-z
_cell_length_a                   10.0727(8)
_cell_length_b                   11.9217(8)
_cell_length_c                   12.1250(9)
_cell_angle_alpha                117.917(7)
_cell_angle_beta                 96.693(6)
_cell_angle_gamma                103.418(6)
_cell_volume                     1207.74
loop_
_atom_site_label
_atom_site_type_symbol
_atom_site_fract_x
_atom_site_fract_y
_atom_site_fract_z
Zn1 Zn 0.39324(3) 0.29141(3) 0.51319(3)
N1 N 0.4395(2) 0.26416(19) 0.66499(19)
N2 N 0.5549(2) 0.1012(2) 0.96979(19)
N3 N 0.2436(2) 0.11353(19) 0.37326(19)
N4 N -0.0049(2) -0.3685(2) 0.03222(19)
N5 N 0.7950(2) 0.1468(2) 0.4267(2)
O1 O 0.54421(17) 0.28176(17) 0.42558(16)
O2 O 0.70044(19) 0.43740(18) 0.61248(16)
O3 O 0.66063(19) 0.55079(17) 0.44350(18)
O4 O 0.8395(2) 0.64745(18) 0.39401(19)
O5 O 0.7497(3) 0.1770(3) 0.5210(3)
O6 O 0.8066(3) 0.0376(2) 0.3613(2)
C1 C 0.6677(3) 0.3604(2) 0.4960(2)
C2 C 0.7814(2) 0.3504(2) 0.4231(2)
C3 C 0.8316(2) 0.4429(2) 0.3847(2)
C4 C 0.9388(3) 0.4319(2) 0.3218(2)
H1 H 0.9736 0.4954 0.2993
C5 C 0.9948(3) 0.3297(3) 0.2921(2)
H2 H 1.0665 0.3241 0.2497
C6 C 0.9444(3) 0.2366(2) 0.3251(2)
H3 H 0.9795 0.1655 0.3038
C7 C 0.8407(2) 0.2490(2) 0.3907(2)
C8 C 0.7755(3) 0.5565(2) 0.4086(2)
C9 C 0.2302(3) 0.0662(3) 0.2466(2)
H4 H 0.2907 0.1160 0.2213
C10 C 0.1305(3) -0.0530(3) 0.1535(3)
H5 H 0.1238 -0.0819 0.0666
C11 C 0.0403(3) -0.1302(2) 0.1869(3)
C12 C 0.0551(3) -0.0812(3) 0.3174(3)
H6 H -0.0033 -0.1299 0.3450
C13 C 0.1556(3) 0.0391(2) 0.4060(2)
H7 H 0.1631 0.0706 0.4934
C14 C -0.0680(3) -0.2632(3) 0.0863(3)
H8 H -0.1397 -0.2882 0.1250
H9 H -0.1140 -0.2542 0.0173
C15 C 0.0515(3) -0.3963(3) 0.1292(2)
H10 H -0.0233 -0.4201 0.1658
H11 H 0.1247 -0.3159 0.1985
C16 C -0.1118(3) -0.4920(3) -0.0728(3)
H12 H -0.1484 -0.4760 -0.1399
H13 H -0.1897 -0.5177 -0.0402
C17 C 0.4125(3) 0.3344(3) 0.7778(3)
H14 H 0.3614 0.3921 0.7849
C18 C 0.4562(3) 0.3259(3) 0.8839(3)
H15 H 0.4337 0.3767 0.9604
C19 C 0.5329(3) 0.2434(2) 0.8783(2)
C20 C 0.5579(3) 0.1676(3) 0.7602(3)
H16 H 0.6068 0.1076 0.7501
C21 C 0.5104(3) 0.1811(3) 0.6581(3)
H17 H 0.5289 0.1293 0.5796
C22 C 0.5892(3) 0.2382(3) 0.9951(3)
H18 H 0.6911 0.2802 1.0236
H19 H 0.5501 0.2891 1.0644
C23 C 0.6260(3) 0.1017(3) 1.0822(3)
H20 H 0.5939 0.1541 1.1565
H21 H 0.7272 0.1436 1.1018
C24 C 0.4043(3) 0.0388(3) 0.9427(3)
H22 H 0.3552 0.0366 0.8676
H23 H 0.3703 0.0910 1.0157
N1A N 0.5605(2) -0.26416(19) 1.33501(19)
N2A N 0.4451(2) -0.1012(2) 1.03021(19)
C17A C 0.5875(3) -0.3344(3) 1.2222(3)
H14A H 0.6386 -0.3921 1.2151
C18A C 0.5438(3) -0.3259(3) 1.1161(3)
H15A H 0.5663 -0.3767 1.0396
C19A C 0.4671(3) -0.2434(2) 1.1217(2)
C20A C 0.4421(3) -0.1676(3) 1.2398(3)
H16A H 0.3932 -0.1076 1.2499
C21A C 0.4896(3) -0.1811(3) 1.3419(3)
H17A H 0.4711 -0.1293 1.4204
C22A C 0.4108(3) -0.2382(3) 1.0049(3)
H18A H 0.3089 -0.2802 0.9764
H19A H 0.4499 -0.2891 0.9356
C23A C 0.3740(3) -0.1017(3) 0.9178(3)
H20A H 0.4061 -0.1541 0.8435
H21A H 0.2728 -0.1436 0.8982
C24A C 0.5957(3) -0.0388(3) 1.0573(3)
H22A H 0.6448 -0.0366 1.1324
H23A H 0.6297 -0.0910 0.9843
N3A N -0.2436(2) -1.11353(19) -0.37326(19)
N4A N 0.0049(2) -0.6315(2) -0.03222(19)
C9A C -0.2302(3) -1.0662(3) -0.2466(2)
H4A H -0.2907 -1.1160 -0.2213
C10A C -0.1305(3) -0.9470(3) -0.1535(3)
H5A H -0.1238 -0.9181 -0.0666
C11A C -0.0403(3) -0.8698(2) -0.1869(3)
C12A C -0.0551(3) -0.9188(3) -0.3174(3)
H6A H 0.0033 -0.8701 -0.3450
C13A C -0.1556(3) -1.0391(2) -0.4060(2)
H7A H -0.1631 -1.0706 -0.4934
C14A C 0.0680(3) -0.7368(3) -0.0863(3)
H8A H 0.1397 -0.7118 -0.1250
H9A H 0.1140 -0.7458 -0.0173
C15A C -0.0515(3) -0.6037(3) -0.1292(2)
H10A H 0.0233 -0.5799 -0.1658
H11A H -0.1247 -0.6841 -0.1985
C16A C 0.1118(3) -0.5080(3) 0.0728(3)
H12A H 0.1484 -0.5240 0.1399
H13A H 0.1897 -0.4823 0.0402
Zn1A Zn -0.39324(3) -1.29141(3) -0.51319(3)
N5A N -0.7950(2) -1.1468(2) -0.4267(2)
O1A O -0.54421(17) -1.28176(17) -0.42558(16)
O2A O -0.70044(19) -1.43740(18) -0.61248(16)
O3A O -0.66063(19) -1.55079(17) -0.44350(18)
O4A O -0.8395(2) -1.64745(18) -0.39401(19)
O5A O -0.7497(3) -1.1770(3) -0.5210(3)
O6A O -0.8066(3) -1.0376(2) -0.3613(2)
C1A C -0.6677(3) -1.3604(2) -0.4960(2)
C2A C -0.7814(2) -1.3504(2) -0.4231(2)
C3A C -0.8316(2) -1.4429(2) -0.3847(2)
C4A C -0.9388(3) -1.4319(2) -0.3218(2)
H1A H -0.9736 -1.4954 -0.2993
C5A C -0.9948(3) -1.3297(3) -0.2921(2)
H2A H -1.0665 -1.3241 -0.2497
C6A C -0.9444(3) -1.2366(2) -0.3251(2)
H3A H -0.9795 -1.1655 -0.3038
C7A C -0.8407(2) -1.2490(2) -0.3907(2)
C8A C -0.7755(3) -1.5565(2) -0.4086(2)
Zn1_2 Zn -0.60676(3) -1.70859(3) -0.48681(3)
Zn1A_2 Zn 0.60676(3) -0.29141(3) 1.48681(3)
Zn1A_3 Zn 0.60676(3) 0.70859(3) 0.48681(3)
N1A_2 N -0.4395(2) -1.26416(19) -0.66499(19)
O3_2 O -0.33937(19) -1.44921(17) -0.55650(18)
O3A_2 O 0.33937(19) 0.44921(17) 0.55650(18)
O7 O 0.6189(3) 0.6559(2) 0.7708(2)
H24 H 0.6350 0.5817 0.7333
H25 H 0.5428 0.6336 0.7158
loop_
_geom_bond_atom_site_label_1
_geom_bond_atom_site_label_2
_geom_bond_site_symmetry_1
_geom_bond_site_symmetry_2
Zn1 N1 1_555 1_555
N1 C17 1_555 1_555
N2 C22 1_555 1_555
N3 Zn1 1_555 1_555
N4 C14 1_555 1_555
N5 O5 1_555 1_555
O1 Zn1 1_555 1_555
O2 C1 1_555 1_555
O3 C8 1_555 1_555
O4 C8 1_555 1_555
O6 N5 1_555 1_555
C1 O1 1_555 1_555
C2 C1 1_555 1_555
C3 C2 1_555 1_555
C4 C3 1_555 1_555
H1 C4 1_555 1_555
C5 C4 1_555 1_555
H2 C5 1_555 1_555
C6 C5 1_555 1_555
H3 C6 1_555 1_555
C7 N5 1_555 1_555
C8 C3 1_555 1_555
C9 N3 1_555 1_555
H4 C9 1_555 1_555
C10 C9 1_555 1_555
H5 C10 1_555 1_555
C11 C10 1_555 1_555
C12 C11 1_555 1_555
H6 C12 1_555 1_555
C13 N3 1_555 1_555
H7 C13 1_555 1_555
C14 C11 1_555 1_555
H8 C14 1_555 1_555
H9 C14 1_555 1_555
C15 N4 1_555 1_555
H10 C15 1_555 1_555
H11 C15 1_555 1_555
C16 N4 1_555 1_555
H12 C16 1_555 1_555
H13 C16 1_555 1_555
C17 H14 1_555 1_555
C18 C17 1_555 1_555
H15 C18 1_555 1_555
C19 C18 1_555 1_555
C20 C19 1_555 1_555
H16 C20 1_555 1_555
C21 N1 1_555 1_555
H17 C21 1_555 1_555
C22 C19 1_555 1_555
H18 C22 1_555 1_555
H19 C22 1_555 1_555
C23 N2 1_555 1_555
H20 C23 1_555 1_555
H21 C23 1_555 1_555
C24 N2 1_555 1_555
H22 C24 1_555 1_555
H23 C24 1_555 1_555
O7 H24 1_555 1_555
H25 O7 1_555 1_555
N1A C17A 1_555 1_555
N2A C22A 1_555 1_555
C17A H14A 1_555 1_555
C18A C17A 1_555 1_555
H15A C18A 1_555 1_555
C19A C18A 1_555 1_555
C20A C19A 1_555 1_555
H16A C20A 1_555 1_555
C21A N1A 1_555 1_555
H17A C21A 1_555 1_555
C22A C19A 1_555 1_555
H18A C22A 1_555 1_555
H19A C22A 1_555 1_555
C23A C24 1_555 1_555
H20A C23A 1_555 1_555
H21A C23A 1_555 1_555
C24A C23 1_555 1_555
H22A C24A 1_555 1_555
H23A C24A 1_555 1_555
N3A C9A 1_555 1_555
N4A C14A 1_555 1_555
C9A H4A 1_555 1_555
C10A C9A 1_555 1_555
H5A C10A 1_555 1_555
C11A C10A 1_555 1_555
C12A C11A 1_555 1_555
H6A C12A 1_555 1_555
C13A N3A 1_555 1_555
H7A C13A 1_555 1_555
C14A C11A 1_555 1_555
H8A C14A 1_555 1_555
H9A C14A 1_555 1_555
C15A C16 1_555 1_555
H10A C15A 1_555 1_555
H11A C15A 1_555 1_555
C16A C15 1_555 1_555
H12A C16A 1_555 1_555
H13A C16A 1_555 1_555
Zn1A N3A 1_555 1_555
N5A O5A 1_555 1_555
O1A Zn1A 1_555 1_555
O2A C1A 1_555 1_555
O3A C8A 1_555 1_555
O4A C8A 1_555 1_555
O6A N5A 1_555 1_555
C1A O1A 1_555 1_555
C2A C1A 1_555 1_555
C3A C2A 1_555 1_555
C4A C3A 1_555 1_555
H1A C4A 1_555 1_555
C5A C4A 1_555 1_555
H2A C5A 1_555 1_555
C6A C5A 1_555 1_555
H3A C6A 1_555 1_555
C7A N5A 1_555 1_555
C8A C3A 1_555 1_555
Zn1_2 O3A 1_555 1_555
Zn1A_2 N1A 1_555 1_555
Zn1A_3 O3 1_555 1_555
N1A_2 Zn1A 1_555 1_555
O3_2 Zn1A 1_555 1_555
O3A_2 Zn1 1_555 1_555
C2 C7 1_555 1_555
C6 C7 1_555 1_555
C12 C13 1_555 1_555
C20 C21 1_555 1_555
N2A C23A 1_555 1_555
N2A C24A 1_555 1_555
C20A C21A 1_555 1_555
N4A C15A 1_555 1_555
N4A C16A 1_555 1_555
C12A C13A 1_555 1_555
C2A C7A 1_555 1_555
C6A C7A 1_555 1_555

#END
