
#######################################################################
#
#                 Cambridge Crystallographic Data Centre
#                                CCDC 
#
#######################################################################
#
# If this CIF has been generated from an entry in the Cambridge 
# Structural Database, then it will include bibliographic, chemical, 
# crystal, experimental, refinement or atomic coordinate data resulting 
# from the CCDC's data processing and validation procedures.
#
#######################################################################

data_PUTYOT
_symmetry_cell_setting           monoclinic
_symmetry_space_group_name_H-M   'P 21/c'
_symmetry_Int_Tables_number      14
_space_group_name_Hall           '-P 2ybc'
loop_
_symmetry_equiv_pos_site_id
_symmetry_equiv_pos_as_xyz
1 x,y,z
2 -x,1/2+y,1/2-z
3 -x,-y,-z
4 x,1/2-y,1/2+z
_cell_length_a                   11.656(2)
_cell_length_b                   5.5714(10)
_cell_length_c                   21.744(4)
_cell_angle_alpha                90
_cell_angle_beta                 93.859(4)
_cell_angle_gamma                90
_cell_volume                     1408.86
loop_
_atom_site_label
_atom_site_type_symbol
_atom_site_fract_x
_atom_site_fract_y
_atom_site_fract_z
Zn1 Zn 0.00330(5) 0.35546(8) 0.32828(2)
P1 P 0.13507(10) 0.8556(2) 0.30692(5)
O1 O 0.1174(2) 0.8744(5) 0.23687(11)
O2 O 0.1188(3) 0.6026(4) 0.33015(12)
O3 O 0.0657(3) 1.0364(5) 0.33951(12)
O4 O 0.7157(3) 0.9539(6) 0.3578(2)
O5 O 0.6702(3) 1.2877(6) 0.30946(18)
H1 H 0.7403 1.2988 0.3090
N1 N -0.0796(3) 0.3821(6) 0.40595(14)
N2 N -0.1810(3) 0.5101(6) 0.48099(17)
C1 C 0.2836(4) 0.9288(7) 0.32255(17)
C2 C 0.3259(4) 1.1469(8) 0.30199(17)
H2 H 0.2744 1.2600 0.2849
C3 C 0.4405(4) 1.1987(7) 0.30633(18)
H3 H 0.4659 1.3454 0.2920
C4 C 0.5201(4) 1.0332(7) 0.33211(19)
C5 C 0.4790(4) 0.8210(8) 0.35473(18)
H4 H 0.5302 0.7111 0.3735
C6 C 0.3639(4) 0.7699(7) 0.34996(18)
H5 H 0.3386 0.6251 0.3655
C7 C -0.1498(4) 0.5489(8) 0.4237(2)
H6 H -0.1748 0.6784 0.3993
C8 C -0.0665(4) 0.2267(8) 0.4546(2)
H7 H -0.0214 0.0887 0.4556
C9 C -0.1286(4) 0.3032(8) 0.5012(2)
H8 H -0.1345 0.2296 0.5392
C10 C -0.2614(4) 0.6526(9) 0.5139(2)
H9 H -0.2578 0.8175 0.4998
H10 H -0.2372 0.6508 0.5574
C11 C -0.3838(4) 0.5689(8) 0.50602(19)
C12 C -0.4182(4) 0.3577(8) 0.47651(19)
H11 H -0.3632 0.2599 0.4602
C13 C -0.4693(4) 0.7098(7) 0.52909(19)
H12 H -0.4492 0.8534 0.5488
C14 C 0.6437(5) 1.0818(9) 0.3347(2)
Zn1B Zn -1.00330(5) 0.64454(8) 0.67172(2)
Zn1_2 Zn 0.00330(5) 1.35546(8) 0.32828(2)
Zn1A Zn -0.00330(5) 0.85546(8) 0.17172(2)
Zn1B_2 Zn -1.00330(5) -0.35546(8) 0.67172(2)
Zn1C Zn -0.99670(5) 0.14454(8) 0.82828(2)
P1B P -1.13507(10) 0.1444(2) 0.69308(5)
O1B O -1.1174(2) 0.1256(5) 0.76313(11)
O1A O -0.1174(2) 0.3744(5) 0.26313(11)
O1C O -0.8826(2) 0.6256(5) 0.73687(11)
O2B O -1.1188(3) 0.3974(4) 0.66985(12)
O3B O -1.0657(3) -0.0364(5) 0.66049(12)
O3_2 O 0.0657(3) 0.0364(5) 0.33951(12)
O3B_2 O -1.0657(3) 0.9636(5) 0.66049(12)
O4B O -1.7157(3) 0.0461(6) 0.6422(2)
O5B O -1.6702(3) -0.2877(6) 0.69054(18)
H1B H -1.7403 -0.2988 0.6910
N1B N -0.9204(3) 0.6179(6) 0.59405(14)
N2B N -0.8190(3) 0.4899(6) 0.51901(17)
C1B C -1.2836(4) 0.0712(7) 0.67745(17)
C2B C -1.3259(4) -0.1469(8) 0.69801(17)
H2B H -1.2744 -0.2600 0.7151
C3B C -1.4405(4) -0.1987(7) 0.69367(18)
H3B H -1.4659 -0.3454 0.7080
C4B C -1.5201(4) -0.0332(7) 0.66789(19)
C5B C -1.4790(4) 0.1790(8) 0.64527(18)
H4B H -1.5302 0.2889 0.6265
C6B C -1.3639(4) 0.2301(7) 0.65004(18)
H5B H -1.3386 0.3749 0.6345
C7B C -0.8502(4) 0.4511(8) 0.5763(2)
H6B H -0.8252 0.3216 0.6007
C8B C -0.9335(4) 0.7733(8) 0.5454(2)
H7B H -0.9786 0.9113 0.5444
C9B C -0.8714(4) 0.6968(8) 0.4988(2)
H8B H -0.8655 0.7704 0.4608
C10B C -0.7386(4) 0.3474(9) 0.4861(2)
H9B H -0.7422 0.1825 0.5002
H10B H -0.7628 0.3492 0.4426
C11B C -0.6162(4) 0.4311(8) 0.49398(19)
C12B C -0.5818(4) 0.6423(8) 0.52349(19)
H11B H -0.6368 0.7401 0.5398
C13B C -0.5307(4) 0.2902(7) 0.47091(19)
H12B H -0.5508 0.1466 0.4512
C14B C -1.6437(5) -0.0818(9) 0.6653(2)
loop_
_geom_bond_atom_site_label_1
_geom_bond_atom_site_label_2
_geom_bond_site_symmetry_1
_geom_bond_site_symmetry_2
Zn1 O2 1_555 1_555
P1 O1 1_555 1_555
O1 Zn1A 1_555 1_555
O2 P1 1_555 1_555
O3 P1 1_555 1_555
O4 C14 1_555 1_555
O5 H1 1_555 1_555
N1 Zn1 1_555 1_555
N2 C7 1_555 1_555
C1 P1 1_555 1_555
C2 C1 1_555 1_555
H2 C2 1_555 1_555
C3 C2 1_555 1_555
H3 C3 1_555 1_555
C4 C3 1_555 1_555
C5 C4 1_555 1_555
H4 C5 1_555 1_555
C6 C1 1_555 1_555
H5 C6 1_555 1_555
C7 N1 1_555 1_555
H6 C7 1_555 1_555
C8 N1 1_555 1_555
H7 C8 1_555 1_555
C9 N2 1_555 1_555
H8 C9 1_555 1_555
C10 N2 1_555 1_555
H9 C10 1_555 1_555
H10 C10 1_555 1_555
C11 C10 1_555 1_555
C12 C11 1_555 1_555
H11 C12 1_555 1_555
C13 C11 1_555 1_555
H12 C13 1_555 1_555
C14 O5 1_555 1_555
Zn1B O1C 1_555 1_555
Zn1_2 O3 1_555 1_555
Zn1B_2 O3B 1_555 1_555
Zn1C O1B 1_555 1_555
P1B O1B 1_555 1_555
O1A Zn1 1_555 1_555
O2B Zn1B 1_555 1_555
O3B P1B 1_555 1_555
O3_2 Zn1 1_555 1_555
O3B_2 Zn1B 1_555 1_555
O4B C14B 1_555 1_555
O5B H1B 1_555 1_555
N1B Zn1B 1_555 1_555
N2B C7B 1_555 1_555
C1B P1B 1_555 1_555
C2B C1B 1_555 1_555
H2B C2B 1_555 1_555
C3B C2B 1_555 1_555
H3B C3B 1_555 1_555
C4B C3B 1_555 1_555
C5B C4B 1_555 1_555
H4B C5B 1_555 1_555
C6B C1B 1_555 1_555
H5B C6B 1_555 1_555
C7B N1B 1_555 1_555
H6B C7B 1_555 1_555
C8B N1B 1_555 1_555
H7B C8B 1_555 1_555
C9B N2B 1_555 1_555
H8B C9B 1_555 1_555
C10B N2B 1_555 1_555
H9B C10B 1_555 1_555
H10B C10B 1_555 1_555
C11B C10B 1_555 1_555
C12B C13 1_555 1_555
H11B C12B 1_555 1_555
C13B C12 1_555 1_555
H12B C13B 1_555 1_555
C14B O5B 1_555 1_555
C4 C14 1_555 1_555
C5 C6 1_555 1_555
C8 C9 1_555 1_555
P1B O2B 1_555 1_555
C4B C14B 1_555 1_555
C5B C6B 1_555 1_555
C8B C9B 1_555 1_555
C11B C12B 1_555 1_555
C11B C13B 1_555 1_555

#END
