
#######################################################################
#
#                 Cambridge Crystallographic Data Centre
#                                CCDC 
#
#######################################################################
#
# If this CIF has been generated from an entry in the Cambridge 
# Structural Database, then it will include bibliographic, chemical, 
# crystal, experimental, refinement or atomic coordinate data resulting 
# from the CCDC's data processing and validation procedures.
#
#######################################################################

data_PUTYUZ
_symmetry_cell_setting           triclinic
_symmetry_space_group_name_H-M   'P -1'
_symmetry_Int_Tables_number      2
_space_group_name_Hall           '-P 1'
loop_
_symmetry_equiv_pos_site_id
_symmetry_equiv_pos_as_xyz
1 x,y,z
2 -x,-y,-z
_cell_length_a                   10.4078(11)
_cell_length_b                   14.294(2)
_cell_length_c                   16.0271(13)
_cell_angle_alpha                86.884(2)
_cell_angle_beta                 80.178(3)
_cell_angle_gamma                73.201(2)
_cell_volume                     2249.1
loop_
_atom_site_label
_atom_site_type_symbol
_atom_site_fract_x
_atom_site_fract_y
_atom_site_fract_z
C1 C 0.4923(4) 0.8775(3) 0.4608(3)
H1 H 0.5031 0.8746 0.4021
C2 C 0.4052(5) 0.8881(3) 0.5906(3)
H2 H 0.3424 0.8939 0.6402
C3 C 0.5378(5) 0.8778(4) 0.5861(3)
H3 H 0.5832 0.8759 0.6316
C4 C 0.7390(5) 0.8449(4) 0.4660(3)
H4 H 0.7888 0.8644 0.5047
H5 H 0.7493 0.8817 0.4139
C5 C 0.7999(5) 0.7396(3) 0.4476(3)
C6 C 0.9247(5) 0.7116(3) 0.3972(3)
H6 H 0.9680 0.7581 0.3747
C7 C 0.9856(5) 0.6137(4) 0.3801(3)
H7 H 1.0715 0.5940 0.3474
C8 C 0.9207(5) 0.5454(4) 0.4109(3)
H8 H 0.9611 0.4800 0.3968
C9 C 0.7978(5) 0.5722(3) 0.4620(3)
C10 C 0.7370(5) 0.6689(3) 0.4782(3)
H9 H 0.6508 0.6878 0.5108
C11 C 0.7250(5) 0.4965(3) 0.4968(3)
H10 H 0.7880 0.4424 0.5210
H11 H 0.6510 0.5257 0.5416
C12 C 0.6996(5) 0.3672(3) 0.4020(3)
H12 H 0.7555 0.3107 0.4225
C13 C 0.6299(5) 0.3746(3) 0.3369(3)
H13 H 0.6308 0.3223 0.3045
C14 C 0.5857(5) 0.5182(4) 0.3822(3)
H14 H 0.5508 0.5856 0.3885
C15 C 0.0201(5) 1.0660(3) 0.0894(3)
H15 H -0.0718 1.0917 0.1105
C16 C 0.2220(5) 0.9712(4) 0.0699(3)
H16 H 0.2987 0.9191 0.0739
C17 C 0.2170(5) 1.0503(4) 0.0167(3)
H17 H 0.2891 1.0612 -0.0217
C18 C 0.0364(6) 1.2040(4) -0.0072(4)
H18 H -0.0563 1.2116 -0.0153
H19 H 0.0902 1.2067 -0.0626
C19 C 0.0383(5) 1.2872(3) 0.0448(3)
C20 C -0.0488(5) 1.3098(4) 0.1205(3)
H20 H -0.1097 1.2736 0.1386
C21 C -0.0469(5) 1.3850(3) 0.1694(3)
H21 H -0.1046 1.3981 0.2211
C22 C 0.0399(5) 1.4415(4) 0.1427(3)
H22 H 0.0396 1.4930 0.1758
C23 C 0.1267(5) 1.4214(4) 0.0670(3)
C24 C 0.1262(6) 1.3448(4) 0.0169(3)
H23 H 0.1840 1.3319 -0.0348
C25 C 0.2166(6) 1.4880(3) 0.0404(3)
H24 H 0.1633 1.5467 0.0169
H25 H 0.2435 1.5060 0.0902
C26 C 0.4433(6) 1.3684(4) -0.0127(3)
H26 H 0.4507 1.3248 0.0326
C27 C 0.5334(5) 1.3647(4) -0.0824(3)
H27 H 0.6151 1.3157 -0.0943
C28 C 0.3721(5) 1.4897(3) -0.0936(3)
H28 H 0.3175 1.5468 -0.1141
C29 C -0.1096(5) 0.8304(3) 0.6813(3)
C30 C -0.1979(5) 0.8460(3) 0.7562(3)
H29 H -0.2073 0.9005 0.7884
C31 C -0.2734(5) 0.7818(3) 0.7848(3)
H30 H -0.3345 0.7944 0.8352
C32 C -0.2585(4) 0.7002(3) 0.7393(3)
C33 C -0.1680(4) 0.6822(3) 0.6649(3)
H31 H -0.1567 0.6267 0.6335
C34 C -0.0943(4) 0.7466(3) 0.6373(3)
H32 H -0.0320 0.7333 0.5874
C35 C -0.3442(4) 0.6322(3) 0.7675(3)
C36 C 0.4326(4) 0.8043(3) 0.2669(3)
C37 C 0.5639(5) 0.7440(4) 0.2586(3)
H33 H 0.5787 0.6769 0.2650
C38 C 0.6752(5) 0.7820(3) 0.2406(3)
H34 H 0.7627 0.7399 0.2370
C39 C 0.6575(5) 0.8817(4) 0.2281(3)
C40 C 0.5246(5) 0.9423(3) 0.2325(3)
H35 H 0.5098 1.0087 0.2211
C41 C 0.4150(5) 0.9047(3) 0.2535(3)
H36 H 0.3273 0.9470 0.2589
C42 C 0.7738(5) 0.9261(3) 0.2148(3)
N1 N 0.3765(4) 0.8887(3) 0.5102(2)
N2 N 0.5941(4) 0.8705(3) 0.5034(2)
N3 N 0.5588(4) 0.4682(3) 0.3253(3)
N4 N 0.6708(4) 0.4598(3) 0.4310(3)
N5 N 0.0970(4) 0.9815(3) 0.1154(2)
N6 N 0.0885(4) 1.1094(3) 0.0302(2)
N7 N 0.3386(4) 1.4481(3) -0.0207(2)
N8 N 0.4918(4) 1.4406(3) -0.1336(2)
O1 O -0.0051(3) 0.9802(2) 0.6939(2)
O2 O -0.1344(3) 0.9802(2) 0.57732(19)
O3 O 0.0962(3) 0.8645(2) 0.5760(2)
O4 O -0.2943(3) 0.5464(2) 0.7358(2)
O5 O -0.4536(3) 0.6581(2) 0.8142(2)
O6 O 0.2316(3) 0.7940(2) 0.3920(2)
O7 O 0.3307(3) 0.6524(2) 0.2982(2)
O8 O 0.1876(3) 0.8045(2) 0.2423(2)
O9 O 0.7573(3) 1.0113(2) 0.1962(2)
O10 O 0.8886(3) 0.8654(2) 0.22558(19)
P1 P -0.03180(11) 0.92173(8) 0.62936(7)
P2 P 0.28586(11) 0.76139(8) 0.30234(7)
Zn1 Zn 0.19887(5) 0.89535(3) 0.47238(3)
Zn2 Zn 0.42342(5) 0.52913(3) 0.24754(3)
Zn3 Zn 0.04065(5) 0.91887(3) 0.22506(3)
C1A C -0.4923(4) 0.1225(3) 0.5392(3)
H1A H -0.5031 0.1254 0.5979
C2A C -0.4052(5) 0.1119(3) 0.4094(3)
H2A H -0.3424 0.1061 0.3598
C3A C -0.5378(5) 0.1222(4) 0.4139(3)
H3A H -0.5832 0.1241 0.3684
C4A C -0.7390(5) 0.1551(4) 0.5340(3)
H4A H -0.7888 0.1356 0.4953
H5A H -0.7493 0.1183 0.5861
C5A C -0.7999(5) 0.2604(3) 0.5524(3)
C6A C -0.9247(5) 0.2884(3) 0.6028(3)
H6A H -0.9680 0.2419 0.6253
C7A C -0.9856(5) 0.3863(4) 0.6199(3)
H7A H -1.0715 0.4060 0.6526
C8A C -0.9207(5) 0.4546(4) 0.5891(3)
H8A H -0.9611 0.5200 0.6032
C9A C -0.7978(5) 0.4278(3) 0.5380(3)
C10A C -0.7370(5) 0.3311(3) 0.5218(3)
H9A H -0.6508 0.3122 0.4892
C11A C -0.7250(5) 0.5035(3) 0.5032(3)
H10A H -0.7880 0.5576 0.4790
H11A H -0.6510 0.4743 0.4584
C12A C -0.6996(5) 0.6328(3) 0.5980(3)
H12A H -0.7555 0.6893 0.5775
C13A C -0.6299(5) 0.6254(3) 0.6631(3)
H13A H -0.6308 0.6777 0.6955
C14A C -0.5857(5) 0.4818(4) 0.6178(3)
H14A H -0.5508 0.4144 0.6115
C15A C -0.0201(5) -0.0660(3) 0.9106(3)
H15A H 0.0718 -0.0917 0.8895
C16A C -0.2220(5) 0.0288(4) 0.9301(3)
H16A H -0.2987 0.0809 0.9261
C17A C -0.2170(5) -0.0503(4) 0.9833(3)
H17A H -0.2891 -0.0612 1.0217
C18A C -0.0364(6) -0.2040(4) 1.0072(4)
H18A H 0.0563 -0.2116 1.0153
H19A H -0.0902 -0.2067 1.0626
C19A C -0.0383(5) -0.2872(3) 0.9552(3)
C20A C 0.0488(5) -0.3098(4) 0.8795(3)
H20A H 0.1097 -0.2736 0.8614
C21A C 0.0469(5) -0.3850(3) 0.8306(3)
H21A H 0.1046 -0.3981 0.7789
C22A C -0.0399(5) -0.4415(4) 0.8573(3)
H22A H -0.0396 -0.4930 0.8242
C23A C -0.1267(5) -0.4214(4) 0.9330(3)
C24A C -0.1262(6) -0.3448(4) 0.9831(3)
H23A H -0.1840 -0.3319 1.0348
C25A C -0.2166(6) -0.4880(3) 0.9596(3)
H24A H -0.1633 -0.5467 0.9831
H25A H -0.2435 -0.5060 0.9098
C26A C -0.4433(6) -0.3684(4) 1.0127(3)
H26A H -0.4507 -0.3248 0.9674
C27A C -0.5334(5) -0.3647(4) 1.0824(3)
H27A H -0.6151 -0.3157 1.0943
C28A C -0.3721(5) -0.4897(3) 1.0936(3)
H28A H -0.3175 -0.5468 1.1141
C29A C 0.1096(5) 0.1696(3) 0.3187(3)
C30A C 0.1979(5) 0.1540(3) 0.2438(3)
H29A H 0.2073 0.0995 0.2116
C31A C 0.2734(5) 0.2182(3) 0.2152(3)
H30A H 0.3345 0.2056 0.1648
C32A C 0.2585(4) 0.2998(3) 0.2607(3)
C33A C 0.1680(4) 0.3178(3) 0.3351(3)
H31A H 0.1567 0.3733 0.3665
C34A C 0.0943(4) 0.2534(3) 0.3627(3)
H32A H 0.0320 0.2667 0.4126
C35A C 0.3442(4) 0.3678(3) 0.2325(3)
C36A C -0.4326(4) 0.1957(3) 0.7331(3)
C37A C -0.5639(5) 0.2560(4) 0.7414(3)
H33A H -0.5787 0.3231 0.7350
C38A C -0.6752(5) 0.2180(3) 0.7594(3)
H34A H -0.7627 0.2601 0.7630
C39A C -0.6575(5) 0.1183(4) 0.7719(3)
C40A C -0.5246(5) 0.0577(3) 0.7675(3)
H35A H -0.5098 -0.0087 0.7789
C41A C -0.4150(5) 0.0953(3) 0.7465(3)
H36A H -0.3273 0.0530 0.7411
C42A C -0.7738(5) 0.0739(3) 0.7852(3)
N1A N -0.3765(4) 0.1113(3) 0.4898(2)
N2A N -0.5941(4) 0.1295(3) 0.4966(2)
N3A N -0.5588(4) 0.5318(3) 0.6747(3)
N4A N -0.6708(4) 0.5402(3) 0.5690(3)
N5A N -0.0970(4) 0.0185(3) 0.8846(2)
N6A N -0.0885(4) -0.1094(3) 0.9698(2)
N7A N -0.3386(4) -0.4481(3) 1.0207(2)
N8A N -0.4918(4) -0.4406(3) 1.1336(2)
N8_2 N -0.5082(4) 0.4406(3) 0.8664(2)
N8A_2 N 0.5082(4) 0.5594(3) 0.1336(2)
O1A O 0.0051(3) 0.0198(2) 0.3061(2)
O1_2 O -0.0051(3) -0.0198(2) 0.6939(2)
O1A_2 O 0.0051(3) 1.0198(2) 0.3061(2)
O2A O 0.1344(3) 0.0198(2) 0.42268(19)
O2_2 O -0.1344(3) -0.0198(2) 0.57732(19)
O2A_2 O 0.1344(3) 1.0198(2) 0.42268(19)
O3A O -0.0962(3) 0.1355(2) 0.4240(2)
O4A O 0.2943(3) 0.4536(2) 0.2642(2)
O5A O 0.4536(3) 0.3419(2) 0.1858(2)
O6A O -0.2316(3) 0.2060(2) 0.6080(2)
O7A O -0.3307(3) 0.3476(2) 0.7018(2)
O8A O -0.1876(3) 0.1955(2) 0.7577(2)
O9A O -0.7573(3) -0.0113(2) 0.8038(2)
O10A O -0.8886(3) 0.1346(2) 0.77442(19)
O10_2 O -0.1114(3) 0.8654(2) 0.22558(19)
O10A_2 O 0.1114(3) 0.1346(2) 0.77442(19)
P1A P 0.03180(11) 0.07827(8) 0.37064(7)
P2A P -0.28586(11) 0.23861(8) 0.69766(7)
Zn1A Zn -0.19887(5) 0.10465(3) 0.52762(3)
Zn1_2 Zn 0.19887(5) -0.10465(3) 0.47238(3)
Zn1A_2 Zn -0.19887(5) 1.10465(3) 0.52762(3)
Zn2A Zn -0.42342(5) 0.47087(3) 0.75246(3)
Zn2_2 Zn -0.57658(5) -0.47087(3) 1.24754(3)
Zn2A_2 Zn 0.57658(5) 1.47087(3) -0.24754(3)
Zn3A Zn -0.04065(5) 0.08113(3) 0.77494(3)
Zn3_2 Zn 0.04065(5) -0.08113(3) 0.22506(3)
Zn3_3 Zn 1.04065(5) 0.91887(3) 0.22506(3)
Zn3A_2 Zn -1.04065(5) 0.08113(3) 0.77494(3)
Zn3A_3 Zn -0.04065(5) 1.08113(3) 0.77494(3)
O11 O 0.0850(4) 0.6678(2) 0.1682(2)
H37 H 0.1441 0.6947 0.1431
H38 H 0.0727 0.6942 0.2163
O12 O 0.3257(4) 0.8094(2) 0.8805(2)
H39 H 0.3996 0.8011 0.8459
H40 H 0.3414 0.7508 0.8986
O13 O 0.5369(6) 0.8728(4) 0.9969(4)
H41 H 0.5462 0.8242 1.0305
H42 H 0.5301 0.8552 0.9484
loop_
_geom_bond_atom_site_label_1
_geom_bond_atom_site_label_2
_geom_bond_site_symmetry_1
_geom_bond_site_symmetry_2
C1 H1 1_555 1_555
C2 H2 1_555 1_555
C3 C2 1_555 1_555
H3 C3 1_555 1_555
C4 H4 1_555 1_555
H5 C4 1_555 1_555
C5 C4 1_555 1_555
C6 C5 1_555 1_555
H6 C6 1_555 1_555
C7 C6 1_555 1_555
H7 C7 1_555 1_555
C8 C7 1_555 1_555
H8 C8 1_555 1_555
C9 C8 1_555 1_555
C10 C5 1_555 1_555
H9 C10 1_555 1_555
C11 C9 1_555 1_555
H10 C11 1_555 1_555
H11 C11 1_555 1_555
C12 H12 1_555 1_555
C13 C12 1_555 1_555
H13 C13 1_555 1_555
C14 H14 1_555 1_555
C15 H15 1_555 1_555
C16 H16 1_555 1_555
C17 C16 1_555 1_555
H17 C17 1_555 1_555
C18 H18 1_555 1_555
H19 C18 1_555 1_555
C19 C18 1_555 1_555
C20 C19 1_555 1_555
H20 C20 1_555 1_555
C21 C20 1_555 1_555
H21 C21 1_555 1_555
C22 C21 1_555 1_555
H22 C22 1_555 1_555
C23 C22 1_555 1_555
C24 C19 1_555 1_555
H23 C24 1_555 1_555
C25 C23 1_555 1_555
H24 C25 1_555 1_555
H25 C25 1_555 1_555
C26 H26 1_555 1_555
C27 C26 1_555 1_555
H27 C27 1_555 1_555
C28 H28 1_555 1_555
C29 C30 1_555 1_555
C30 H29 1_555 1_555
C31 C30 1_555 1_555
H30 C31 1_555 1_555
C32 C31 1_555 1_555
C33 C32 1_555 1_555
H31 C33 1_555 1_555
C34 C29 1_555 1_555
H32 C34 1_555 1_555
C35 C32 1_555 1_555
C36 C37 1_555 1_555
C37 H33 1_555 1_555
C38 C37 1_555 1_555
H34 C38 1_555 1_555
C39 C38 1_555 1_555
C40 C39 1_555 1_555
H35 C40 1_555 1_555
C41 C36 1_555 1_555
H36 C41 1_555 1_555
C42 C39 1_555 1_555
N1 C1 1_555 1_555
N2 C1 1_555 1_555
N3 C13 1_555 1_555
N4 C11 1_555 1_555
N5 C15 1_555 1_555
N6 C15 1_555 1_555
N7 C25 1_555 1_555
N8 C27 1_555 1_555
O1 P1 1_555 1_555
O2 P1 1_555 1_555
O3 P1 1_555 1_555
O4 C35 1_555 1_555
O5 C35 1_555 1_555
O6 P2 1_555 1_555
O7 P2 1_555 1_555
O8 P2 1_555 1_555
O9 C42 1_555 1_555
O10 C42 1_555 1_555
O11 H37 1_555 1_555
H38 O11 1_555 1_555
O12 H39 1_555 1_555
H40 O12 1_555 1_555
O13 H41 1_555 1_555
H42 O13 1_555 1_555
P1 C29 1_555 1_555
P2 C36 1_555 1_555
Zn1 N1 1_555 1_555
Zn2 N3 1_555 1_555
Zn3 N5 1_555 1_555
C1A H1A 1_555 1_555
C2A H2A 1_555 1_555
C3A C2A 1_555 1_555
H3A C3A 1_555 1_555
C4A H4A 1_555 1_555
H5A C4A 1_555 1_555
C5A C4A 1_555 1_555
C6A C5A 1_555 1_555
H6A C6A 1_555 1_555
C7A C6A 1_555 1_555
H7A C7A 1_555 1_555
C8A C7A 1_555 1_555
H8A C8A 1_555 1_555
C9A C8A 1_555 1_555
C10A C5A 1_555 1_555
H9A C10A 1_555 1_555
C11A C9A 1_555 1_555
H10A C11A 1_555 1_555
H11A C11A 1_555 1_555
C12A H12A 1_555 1_555
C13A C12A 1_555 1_555
H13A C13A 1_555 1_555
C14A H14A 1_555 1_555
C15A H15A 1_555 1_555
C16A H16A 1_555 1_555
C17A C16A 1_555 1_555
H17A C17A 1_555 1_555
C18A H18A 1_555 1_555
H19A C18A 1_555 1_555
C19A C18A 1_555 1_555
C20A C19A 1_555 1_555
H20A C20A 1_555 1_555
C21A C20A 1_555 1_555
H21A C21A 1_555 1_555
C22A C21A 1_555 1_555
H22A C22A 1_555 1_555
C23A C22A 1_555 1_555
C24A C19A 1_555 1_555
H23A C24A 1_555 1_555
C25A C23A 1_555 1_555
H24A C25A 1_555 1_555
H25A C25A 1_555 1_555
C26A H26A 1_555 1_555
C27A C26A 1_555 1_555
H27A C27A 1_555 1_555
C28A H28A 1_555 1_555
C29A C30A 1_555 1_555
C30A H29A 1_555 1_555
C31A C30A 1_555 1_555
H30A C31A 1_555 1_555
C32A C31A 1_555 1_555
C33A C32A 1_555 1_555
H31A C33A 1_555 1_555
C34A C29A 1_555 1_555
H32A C34A 1_555 1_555
C35A C32A 1_555 1_555
C36A C37A 1_555 1_555
C37A H33A 1_555 1_555
C38A C37A 1_555 1_555
H34A C38A 1_555 1_555
C39A C38A 1_555 1_555
C40A C39A 1_555 1_555
H35A C40A 1_555 1_555
C41A C36A 1_555 1_555
H36A C41A 1_555 1_555
C42A C39A 1_555 1_555
N1A C1A 1_555 1_555
N2A C1A 1_555 1_555
N3A C13A 1_555 1_555
N4A C11A 1_555 1_555
N5A C15A 1_555 1_555
N6A C15A 1_555 1_555
N7A C25A 1_555 1_555
N8A C27A 1_555 1_555
N8_2 Zn2A 1_555 1_555
N8A_2 Zn2 1_555 1_555
O1A P1A 1_555 1_555
O1_2 Zn3A 1_555 1_555
O1A_2 Zn3 1_555 1_555
O2A P1A 1_555 1_555
O2_2 Zn1A 1_555 1_555
O2A_2 Zn1 1_555 1_555
O3A P1A 1_555 1_555
O4A Zn2 1_555 1_555
O5A C35A 1_555 1_555
O6A P2A 1_555 1_555
O7A P2A 1_555 1_555
O8A P2A 1_555 1_555
O9A C42A 1_555 1_555
O10A C42A 1_555 1_555
O10_2 Zn3 1_555 1_555
O10A_2 Zn3A 1_555 1_555
P1A C29A 1_555 1_555
P2A C36A 1_555 1_555
Zn1A N1A 1_555 1_555
Zn1_2 O2A 1_555 1_555
Zn1A_2 O2 1_555 1_555
Zn2A O4 1_555 1_555
Zn2_2 N8A 1_555 1_555
Zn2A_2 N8 1_555 1_555
Zn3A N5A 1_555 1_555
Zn3_2 O1A 1_555 1_555
Zn3_3 O10 1_555 1_555
Zn3A_2 O10A 1_555 1_555
Zn3A_3 O1 1_555 1_555
C2 N1 1_555 1_555
C3 N2 1_555 1_555
C4 N2 1_555 1_555
C9 C10 1_555 1_555
C12 N4 1_555 1_555
C14 N3 1_555 1_555
C14 N4 1_555 1_555
C16 N5 1_555 1_555
C17 N6 1_555 1_555
C18 N6 1_555 1_555
C23 C24 1_555 1_555
C26 N7 1_555 1_555
C28 N7 1_555 1_555
C28 N8 1_555 1_555
C33 C34 1_555 1_555
C40 C41 1_555 1_555
O3 Zn1 1_555 1_555
O6 Zn1 1_555 1_555
O7 Zn2 1_555 1_555
O8 Zn3 1_555 1_555
C2A N1A 1_555 1_555
C3A N2A 1_555 1_555
C4A N2A 1_555 1_555
C9A C10A 1_555 1_555
C12A N4A 1_555 1_555
C14A N3A 1_555 1_555
C14A N4A 1_555 1_555
C16A N5A 1_555 1_555
C17A N6A 1_555 1_555
C18A N6A 1_555 1_555
C23A C24A 1_555 1_555
C26A N7A 1_555 1_555
C28A N7A 1_555 1_555
C28A N8A 1_555 1_555
C33A C34A 1_555 1_555
C35A O4A 1_555 1_555
C40A C41A 1_555 1_555
N3A Zn2A 1_555 1_555
O3A Zn1A 1_555 1_555
O6A Zn1A 1_555 1_555
O7A Zn2A 1_555 1_555
O8A Zn3A 1_555 1_555

#END
