
#######################################################################
#
#                 Cambridge Crystallographic Data Centre
#                                CCDC 
#
#######################################################################
#
# If this CIF has been generated from an entry in the Cambridge 
# Structural Database, then it will include bibliographic, chemical, 
# crystal, experimental, refinement or atomic coordinate data resulting 
# from the CCDC's data processing and validation procedures.
#
#######################################################################

data_PUTZEK
_symmetry_cell_setting           triclinic
_symmetry_space_group_name_H-M   'P -1'
_symmetry_Int_Tables_number      2
_space_group_name_Hall           '-P 1'
loop_
_symmetry_equiv_pos_site_id
_symmetry_equiv_pos_as_xyz
1 x,y,z
2 -x,-y,-z
_cell_length_a                   9.8809(15)
_cell_length_b                   10.9757(17)
_cell_length_c                   14.284(2)
_cell_angle_alpha                69.836(3)
_cell_angle_beta                 72.732(3)
_cell_angle_gamma                74.874(3)
_cell_volume                     1366.7
loop_
_atom_site_label
_atom_site_type_symbol
_atom_site_fract_x
_atom_site_fract_y
_atom_site_fract_z
Ni1 Ni 0.72556(5) 0.29485(5) 0.26894(4)
P1 P 0.86559(11) -0.42944(10) 0.11988(8)
C1 C 0.8259(4) -0.2729(3) 0.1468(3)
C2 C 0.8574(4) -0.1587(4) 0.0719(3)
H1 H 0.8974 -0.1611 0.0047
C3 C 0.7671(4) -0.2641(4) 0.2452(3)
H2 H 0.7443 -0.3395 0.2976
C4 C 0.7483(4) 0.0955(4) 0.2168(3)
C5 C 0.7732(4) -0.0329(4) 0.1929(3)
C6 C 0.8313(4) -0.0404(4) 0.0939(3)
H3 H 0.8531 0.0351 0.0414
C7 C 0.7407(5) -0.1459(4) 0.2684(3)
H4 H 0.7009 -0.1433 0.3356
C8 C 0.5175(4) 0.4799(4) 0.1502(3)
H5 H 0.5908 0.5276 0.1113
C9 C 0.4018(4) 0.3348(4) 0.2599(3)
H6 H 0.3800 0.2599 0.3131
C10 C 0.3079(5) 0.4213(4) 0.2066(3)
H7 H 0.2114 0.4182 0.2161
C11 C 0.3270(4) 0.6393(4) 0.0665(3)
H8 H 0.2320 0.6363 0.0618
H9 H 0.3897 0.6509 -0.0014
C12 C 0.3181(4) 0.7546(4) 0.1038(3)
C13 C 0.4413(4) 0.8051(4) 0.0876(3)
H10 H 0.5296 0.7679 0.0534
C14 C 0.4326(4) 0.9092(4) 0.1219(3)
H11 H 0.5160 0.9410 0.1116
C15 C 0.3033(5) 0.9683(4) 0.1714(3)
C16 C 0.1824(4) 0.9168(4) 0.1887(3)
H12 H 0.0942 0.9538 0.2232
C17 C 0.1908(4) 0.8116(4) 0.1555(3)
H13 H 0.1078 0.7778 0.1684
C18 C 0.0477(5) 1.2069(4) 0.2232(3)
H14 H 0.0505 1.2472 0.1538
C19 C 0.1146(5) 1.0943(5) 0.3640(4)
H15 H 0.1694 1.0425 0.4113
C20 C -0.0279(5) 1.1436(5) 0.3848(3)
H16 H -0.0880 1.1309 0.4499
C21 C 0.3016(5) 1.0901(4) 0.1991(4)
H17 H 0.3750 1.0710 0.2372
H18 H 0.3254 1.1604 0.1368
C22 C 0.7146(5) 0.3882(4) 0.4423(3)
H19 H 0.7814 0.4405 0.3982
C23 C 0.5638(5) 0.2607(5) 0.4991(3)
H20 H 0.5034 0.2060 0.5030
C24 C 0.5759(5) 0.2923(5) 0.5790(3)
H21 H 0.5269 0.2629 0.6468
C25 C 0.7160(5) 0.4374(5) 0.6010(3)
H22 H 0.7157 0.3789 0.6697
H23 H 0.6477 0.5175 0.6063
C26 C 0.8628(5) 0.4702(5) 0.5508(3)
C27 C 0.9832(6) 0.3721(5) 0.5514(3)
H24 H 0.9732 0.2849 0.5862
C28 C 1.1188(5) 0.4025(5) 0.5006(4)
H25 H 1.1987 0.3351 0.5016
N1 N 0.5337(3) 0.3717(3) 0.2251(2)
N2 N 0.3827(4) 0.5142(3) 0.1360(2)
N3 N -0.0697(4) 1.2140(3) 0.2966(2)
N4 N 0.1622(4) 1.1350(3) 0.2603(3)
N5 N 0.6522(3) 0.3202(3) 0.4128(2)
N6 N 0.6711(4) 0.3735(3) 0.5426(2)
O1 O 0.7810(3) -0.5201(2) 0.20805(18)
O2 O 0.8199(3) -0.3982(2) 0.01900(18)
H26 H 0.8725 -0.4389 -0.0290
O3 O 1.0289(3) -0.4737(3) 0.10448(19)
O4 O 0.7929(3) 0.1927(2) 0.14956(19)
O5 O 0.6848(3) 0.0999(2) 0.3077(2)
Ni1A Ni 1.27444(5) 0.70515(5) 0.73106(4)
Ni1_2 Ni -0.27444(5) 1.29485(5) 0.26894(4)
Ni1_3 Ni 0.72556(5) -0.70515(5) 0.26894(4)
Ni1A_2 Ni 1.27444(5) 1.70515(5) 0.73106(4)
Ni1A_3 Ni 2.27444(5) -0.29485(5) 0.73106(4)
P1A P 1.13441(11) 1.42944(10) 0.88012(8)
C1A C 1.1741(4) 1.2729(3) 0.8532(3)
C2A C 1.1426(4) 1.1587(4) 0.9281(3)
H1A H 1.1026 1.1611 0.9953
C3A C 1.2329(4) 1.2641(4) 0.7548(3)
H2A H 1.2557 1.3395 0.7024
C4A C 1.2517(4) 0.9045(4) 0.7832(3)
C5A C 1.2268(4) 1.0329(4) 0.8071(3)
C6A C 1.1687(4) 1.0404(4) 0.9061(3)
H3A H 1.1469 0.9649 0.9586
C7A C 1.2593(5) 1.1459(4) 0.7316(3)
H4A H 1.2991 1.1433 0.6644
C8A C 1.4825(4) 0.5201(4) 0.8498(3)
H5A H 1.4092 0.4724 0.8887
C9A C 1.5982(4) 0.6652(4) 0.7401(3)
H6A H 1.6200 0.7401 0.6869
C10A C 1.6921(5) 0.5787(4) 0.7934(3)
H7A H 1.7886 0.5818 0.7839
C11A C 1.6730(4) 0.3607(4) 0.9335(3)
H8A H 1.7680 0.3637 0.9382
H9A H 1.6103 0.3491 1.0014
C12A C 1.6819(4) 0.2454(4) 0.8962(3)
C13A C 1.5587(4) 0.1949(4) 0.9124(3)
H10A H 1.4704 0.2321 0.9466
C14A C 1.5674(4) 0.0908(4) 0.8781(3)
H11A H 1.4840 0.0590 0.8884
C15A C 1.6967(5) 0.0317(4) 0.8286(3)
C16A C 1.8176(4) 0.0832(4) 0.8113(3)
H12A H 1.9058 0.0462 0.7768
C17A C 1.8092(4) 0.1884(4) 0.8445(3)
H13A H 1.8922 0.2222 0.8316
C18A C 1.9523(5) -0.2069(4) 0.7768(3)
H14A H 1.9495 -0.2472 0.8462
C19A C 1.8854(5) -0.0943(5) 0.6360(4)
H15A H 1.8306 -0.0425 0.5887
C20A C 2.0279(5) -0.1436(5) 0.6152(3)
H16A H 2.0880 -0.1309 0.5501
C21A C 1.6984(5) -0.0901(4) 0.8009(4)
H17A H 1.6250 -0.0710 0.7628
H18A H 1.6746 -0.1604 0.8632
C22A C 1.2854(5) 0.6118(4) 0.5577(3)
H19A H 1.2186 0.5595 0.6018
C23A C 1.4362(5) 0.7393(5) 0.5009(3)
H20A H 1.4966 0.7940 0.4970
C24A C 1.4241(5) 0.7077(5) 0.4210(3)
H21A H 1.4731 0.7371 0.3532
C25A C 1.2840(5) 0.5626(5) 0.3990(3)
H22A H 1.2843 0.6211 0.3303
H23A H 1.3523 0.4825 0.3937
C26A C 1.1372(5) 0.5298(5) 0.4492(3)
C27A C 1.0168(6) 0.6279(5) 0.4486(3)
H24A H 1.0268 0.7151 0.4138
C28A C 0.8812(5) 0.5975(5) 0.4994(4)
H25A H 0.8013 0.6649 0.4984
N1A N 1.4663(3) 0.6283(3) 0.7749(2)
N2A N 1.6173(4) 0.4858(3) 0.8640(2)
N3A N 2.0697(4) -0.2140(3) 0.7034(2)
N3_2 N 0.9303(4) 0.2140(3) 0.2966(2)
N3A_2 N 1.0697(4) 0.7860(3) 0.7034(2)
N4A N 1.8378(4) -0.1350(3) 0.7397(3)
N5A N 1.3478(3) 0.6798(3) 0.5872(2)
N6A N 1.3289(4) 0.6265(3) 0.4574(2)
O1A O 1.2190(3) 1.5201(2) 0.79195(18)
O1_2 O 0.7810(3) 0.4799(2) 0.20805(18)
O1A_2 O 1.2190(3) 0.5201(2) 0.79195(18)
O2A O 1.1801(3) 1.3982(2) 0.98100(18)
H26A H 1.1275 1.4389 1.0290
O3A O 0.9711(3) 1.4737(3) 0.89552(19)
O4A O 1.2071(3) 0.8073(2) 0.85044(19)
O5A O 1.3152(3) 0.9001(2) 0.6923(2)
O6 O 0.3545(8) 0.0600(6) 0.4930(4)
H27 H 0.4334 0.0696 0.4487
H28 H 0.3401 -0.0181 0.5074
loop_
_geom_bond_atom_site_label_1
_geom_bond_atom_site_label_2
_geom_bond_site_symmetry_1
_geom_bond_site_symmetry_2
Ni1 N1 1_555 1_555
P1 C1 1_555 1_555
C1 C2 1_555 1_555
C2 H1 1_555 1_555
C3 C1 1_555 1_555
H2 C3 1_555 1_555
C4 C5 1_555 1_555
C5 C6 1_555 1_555
C6 C2 1_555 1_555
H3 C6 1_555 1_555
C7 C3 1_555 1_555
H4 C7 1_555 1_555
C8 H5 1_555 1_555
C9 H6 1_555 1_555
C10 C9 1_555 1_555
H7 C10 1_555 1_555
C11 H8 1_555 1_555
H9 C11 1_555 1_555
C12 C11 1_555 1_555
C13 C12 1_555 1_555
H10 C13 1_555 1_555
C14 C13 1_555 1_555
H11 C14 1_555 1_555
C15 C14 1_555 1_555
C16 C15 1_555 1_555
H12 C16 1_555 1_555
C17 C12 1_555 1_555
H13 C17 1_555 1_555
C18 H14 1_555 1_555
C19 H15 1_555 1_555
C20 C19 1_555 1_555
H16 C20 1_555 1_555
C21 C15 1_555 1_555
H17 C21 1_555 1_555
H18 C21 1_555 1_555
C22 H19 1_555 1_555
C23 H20 1_555 1_555
C24 C23 1_555 1_555
H21 C24 1_555 1_555
C25 H22 1_555 1_555
H23 C25 1_555 1_555
C26 C25 1_555 1_555
C27 C26 1_555 1_555
H24 C27 1_555 1_555
C28 C27 1_555 1_555
H25 C28 1_555 1_555
N1 C8 1_555 1_555
N2 C8 1_555 1_555
N3 C18 1_555 1_555
N4 C18 1_555 1_555
N5 Ni1 1_555 1_555
N6 C22 1_555 1_555
O1 P1 1_555 1_555
O2 P1 1_555 1_555
H26 O2 1_555 1_555
O3 P1 1_555 1_555
O4 Ni1 1_555 1_555
O5 Ni1 1_555 1_555
O6 H27 1_555 1_555
H28 O6 1_555 1_555
Ni1A N1A 1_555 1_555
Ni1_2 N3 1_555 1_555
Ni1_3 O1 1_555 1_555
Ni1A_2 O1A 1_555 1_555
Ni1A_3 N3A 1_555 1_555
P1A C1A 1_555 1_555
C1A C2A 1_555 1_555
C2A H1A 1_555 1_555
C3A C1A 1_555 1_555
H2A C3A 1_555 1_555
C4A C5A 1_555 1_555
C5A C6A 1_555 1_555
C6A C2A 1_555 1_555
H3A C6A 1_555 1_555
C7A C3A 1_555 1_555
H4A C7A 1_555 1_555
C8A H5A 1_555 1_555
C9A H6A 1_555 1_555
C10A C9A 1_555 1_555
H7A C10A 1_555 1_555
C11A H8A 1_555 1_555
H9A C11A 1_555 1_555
C12A C11A 1_555 1_555
C13A C12A 1_555 1_555
H10A C13A 1_555 1_555
C14A C13A 1_555 1_555
H11A C14A 1_555 1_555
C15A C14A 1_555 1_555
C16A C15A 1_555 1_555
H12A C16A 1_555 1_555
C17A C12A 1_555 1_555
H13A C17A 1_555 1_555
C18A H14A 1_555 1_555
C19A H15A 1_555 1_555
C20A C19A 1_555 1_555
H16A C20A 1_555 1_555
C21A C15A 1_555 1_555
H17A C21A 1_555 1_555
H18A C21A 1_555 1_555
C22A H19A 1_555 1_555
C23A H20A 1_555 1_555
C24A C23A 1_555 1_555
H21A C24A 1_555 1_555
C25A H22A 1_555 1_555
H23A C25A 1_555 1_555
C26A C28 1_555 1_555
C27A C26A 1_555 1_555
H24A C27A 1_555 1_555
C28A C26 1_555 1_555
H25A C28A 1_555 1_555
N1A C8A 1_555 1_555
N2A C8A 1_555 1_555
N3A C18A 1_555 1_555
N3_2 Ni1 1_555 1_555
N3A_2 Ni1A 1_555 1_555
N4A C18A 1_555 1_555
N5A Ni1A 1_555 1_555
N6A C22A 1_555 1_555
O1A P1A 1_555 1_555
O1_2 Ni1 1_555 1_555
O1A_2 Ni1A 1_555 1_555
O2A P1A 1_555 1_555
H26A O2A 1_555 1_555
O3A P1A 1_555 1_555
O4A Ni1A 1_555 1_555
O5A Ni1A 1_555 1_555
C4 O4 1_555 1_555
C4 O5 1_555 1_555
C5 C7 1_555 1_555
C9 N1 1_555 1_555
C10 N2 1_555 1_555
C11 N2 1_555 1_555
C16 C17 1_555 1_555
C19 N4 1_555 1_555
C20 N3 1_555 1_555
C21 N4 1_555 1_555
C22 N5 1_555 1_555
C23 N5 1_555 1_555
C24 N6 1_555 1_555
C25 N6 1_555 1_555
C4A O4A 1_555 1_555
C4A O5A 1_555 1_555
C5A C7A 1_555 1_555
C9A N1A 1_555 1_555
C10A N2A 1_555 1_555
C11A N2A 1_555 1_555
C16A C17A 1_555 1_555
C19A N4A 1_555 1_555
C20A N3A 1_555 1_555
C21A N4A 1_555 1_555
C22A N5A 1_555 1_555
C23A N5A 1_555 1_555
C24A N6A 1_555 1_555
C25A C26A 1_555 1_555
C25A N6A 1_555 1_555
C27A C28A 1_555 1_555

#END
