
#######################################################################
#
#                 Cambridge Crystallographic Data Centre
#                                CCDC 
#
#######################################################################
#
# If this CIF has been generated from an entry in the Cambridge 
# Structural Database, then it will include bibliographic, chemical, 
# crystal, experimental, refinement or atomic coordinate data resulting 
# from the CCDC's data processing and validation procedures.
#
#######################################################################

data_PUTZAG
_symmetry_cell_setting           triclinic
_symmetry_space_group_name_H-M   'P -1'
_symmetry_Int_Tables_number      2
_space_group_name_Hall           '-P 1'
loop_
_symmetry_equiv_pos_site_id
_symmetry_equiv_pos_as_xyz
1 x,y,z
2 -x,-y,-z
_cell_length_a                   10.251(8)
_cell_length_b                   12.455(11)
_cell_length_c                   12.852(11)
_cell_angle_alpha                72.734(14)
_cell_angle_beta                 77.094(14)
_cell_angle_gamma                83.361(17)
_cell_volume                     1525.22
loop_
_atom_site_label
_atom_site_type_symbol
_atom_site_fract_x
_atom_site_fract_y
_atom_site_fract_z
C1 C 0.6540(5) 0.8699(4) -0.3551(4)
C2 C 0.5531(5) 0.8750(4) -0.4125(4)
H1 H 0.5758 0.8815 -0.4883
C3 C 0.4221(4) 0.8706(4) -0.3616(4)
H2 H 0.3570 0.8758 -0.4032
C4 C 0.3834(4) 0.8585(4) -0.2480(4)
C5 C 0.4842(5) 0.8537(4) -0.1893(4)
H3 H 0.4614 0.8466 -0.1134
C6 C 0.6172(5) 0.8592(4) -0.2419(4)
H4 H 0.6828 0.8557 -0.2011
C7 C 0.2416(5) 0.8507(4) -0.1923(3)
C8 C 0.6616(5) 0.8323(4) 0.2484(4)
C9 C 0.5169(5) 0.8503(4) 0.2340(4)
C10 C 0.4918(5) 0.8740(4) 0.1289(4)
H5 H 0.5623 0.8762 0.0686
C11 C 0.3607(4) 0.8947(4) 0.1130(4)
H6 H 0.3445 0.9112 0.0414
C12 C 0.2531(5) 0.8914(4) 0.2010(4)
C13 C 0.2821(5) 0.8671(4) 0.3054(4)
H7 H 0.2125 0.8642 0.3665
C14 C 0.4134(4) 0.8470(4) 0.3212(4)
H8 H 0.4304 0.8311 0.3925
C15 C -0.0870(5) 0.6156(4) 0.0823(4)
H9 H -0.0553 0.6064 0.1470
C16 C -0.1316(5) 0.6858(4) -0.0802(4)
H10 H -0.1355 0.7351 -0.1499
C17 C -0.1862(5) 0.5842(4) -0.0375(4)
H11 H -0.2347 0.5511 -0.0718
C18 C -0.1905(5) 0.4281(4) 0.1398(4)
H12 H -0.1159 0.3949 0.1757
H13 H -0.2028 0.3806 0.0953
C19 C -0.3146(5) 0.4283(4) 0.2277(4)
C20 C -0.4361(5) 0.4559(4) 0.1947(4)
H14 H -0.4373 0.4781 0.1191
C21 C -0.5565(5) 0.4516(4) 0.2701(4)
H15 H -0.6375 0.4695 0.2462
C22 C -0.5532(5) 0.4208(4) 0.3793(4)
H16 H -0.6334 0.4191 0.4307
C23 C -0.4352(5) 0.3918(4) 0.4172(4)
H17 H -0.4362 0.3701 0.4932
C24 C -0.3129(5) 0.3949(4) 0.3409(4)
C25 C -0.1882(5) 0.3608(4) 0.3842(4)
H18 H -0.1335 0.3102 0.3454
H19 H -0.2101 0.3206 0.4625
C26 C -0.1677(5) 0.5640(4) 0.3674(4)
H20 H -0.2589 0.5833 0.3727
C27 C 0.0220(5) 0.4647(4) 0.3609(4)
H21 H 0.0864 0.4057 0.3608
C28 C 0.0430(5) 0.5721(4) 0.3524(4)
H22 H 0.1263 0.5995 0.3449
N1 N -0.0694(4) 0.7039(3) -0.0030(3)
N2 N -0.1561(4) 0.5396(3) 0.0659(3)
N3 N -0.0748(4) 0.6346(3) 0.3563(3)
N4 N -0.1109(4) 0.4596(3) 0.3698(3)
O1 O 0.8378(3) 0.9957(3) -0.5092(3)
O2 O 0.9088(3) 0.8640(3) -0.3381(3)
O3 O 0.8605(3) 0.7850(3) -0.4834(2)
O4 O 0.1545(3) 0.8457(3) -0.2470(3)
O5 O 0.2116(3) 0.8419(3) -0.0905(3)
O6 O 0.0826(3) 1.0338(3) 0.0942(3)
O7 O 0.0579(3) 0.8258(3) 0.1309(2)
O8 O -0.0082(3) 0.9144(3) 0.2859(3)
O9 O 0.6802(3) 0.8133(3) 0.3465(3)
O10 O 0.7526(3) 0.8338(3) 0.1715(3)
P1 P 0.82616(13) 0.87856(10) -0.42633(10)
P2 P 0.08752(13) 0.91907(11) 0.17334(10)
Zn1 Zn 0.01838(5) 0.84296(4) -0.01373(4)
Zn2 Zn -0.05215(5) 1.04717(4) 0.34703(4)
Zn3 Zn -0.13472(5) 0.79112(4) 0.36259(4)
C1A C -0.6540(5) 1.1301(4) 0.3551(4)
C2A C -0.5531(5) 1.1250(4) 0.4125(4)
H1A H -0.5758 1.1185 0.4883
C3A C -0.4221(4) 1.1294(4) 0.3616(4)
H2A H -0.3570 1.1242 0.4032
C4A C -0.3834(4) 1.1415(4) 0.2480(4)
C5A C -0.4842(5) 1.1463(4) 0.1893(4)
H3A H -0.4614 1.1534 0.1134
C6A C -0.6172(5) 1.1408(4) 0.2419(4)
H4A H -0.6828 1.1443 0.2011
C7A C -0.2416(5) 1.1493(4) 0.1923(3)
C8A C -0.6616(5) 1.1677(4) -0.2484(4)
C9A C -0.5169(5) 1.1497(4) -0.2340(4)
C10A C -0.4918(5) 1.1260(4) -0.1289(4)
H5A H -0.5623 1.1238 -0.0686
C11A C -0.3607(4) 1.1053(4) -0.1130(4)
H6A H -0.3445 1.0888 -0.0414
C12A C -0.2531(5) 1.1086(4) -0.2010(4)
C13A C -0.2821(5) 1.1329(4) -0.3054(4)
H7A H -0.2125 1.1358 -0.3665
C14A C -0.4134(4) 1.1530(4) -0.3212(4)
H8A H -0.4304 1.1689 -0.3925
C15A C 0.0870(5) 1.3844(4) -0.0823(4)
H9A H 0.0553 1.3936 -0.1470
C16A C 0.1316(5) 1.3142(4) 0.0802(4)
H10A H 0.1355 1.2649 0.1499
C17A C 0.1862(5) 1.4158(4) 0.0375(4)
H11A H 0.2347 1.4489 0.0718
C18A C 0.1905(5) 1.5719(4) -0.1398(4)
H12A H 0.1159 1.6051 -0.1757
H13A H 0.2028 1.6194 -0.0953
C19A C 0.3146(5) 1.5717(4) -0.2277(4)
C20A C 0.4361(5) 1.5441(4) -0.1947(4)
H14A H 0.4373 1.5219 -0.1191
C21A C 0.5565(5) 1.5484(4) -0.2701(4)
H15A H 0.6375 1.5305 -0.2462
C22A C 0.5532(5) 1.5792(4) -0.3793(4)
H16A H 0.6334 1.5809 -0.4307
C23A C 0.4352(5) 1.6082(4) -0.4172(4)
H17A H 0.4362 1.6299 -0.4932
C24A C 0.3129(5) 1.6051(4) -0.3409(4)
C25A C 0.1882(5) 1.6392(4) -0.3842(4)
H18A H 0.1335 1.6898 -0.3454
H19A H 0.2101 1.6794 -0.4625
C26A C 0.1677(5) 1.4360(4) -0.3674(4)
H20A H 0.2589 1.4167 -0.3727
C27A C -0.0220(5) 1.5353(4) -0.3609(4)
H21A H -0.0864 1.5943 -0.3608
C28A C -0.0430(5) 1.4279(4) -0.3524(4)
H22A H -0.1263 1.4005 -0.3449
N1A N 0.0694(4) 1.2961(3) 0.0030(3)
N2A N 0.1561(4) 1.4604(3) -0.0659(3)
N3A N 0.0748(4) 1.3654(3) -0.3563(3)
N4A N 0.1109(4) 1.5404(3) -0.3698(3)
O1A O -0.8378(3) 1.0043(3) 0.5092(3)
O1_2 O -0.1622(3) 0.9957(3) 0.4908(3)
O1A_2 O 0.1622(3) 1.0043(3) -0.4908(3)
O2A O -0.9088(3) 1.1360(3) 0.3381(3)
O2_2 O -0.0912(3) 0.8640(3) -0.3381(3)
O2A_2 O 0.0912(3) 1.1360(3) 0.3381(3)
O3A O -0.8605(3) 1.2150(3) 0.4834(2)
O3_2 O -0.1395(3) 0.7850(3) 0.5166(2)
O3A_2 O 0.1395(3) 1.2150(3) -0.5166(2)
O4A O -0.1545(3) 1.1543(3) 0.2470(3)
O5A O -0.2116(3) 1.1581(3) 0.0905(3)
O6A O -0.0826(3) 0.9662(3) -0.0942(3)
O7A O -0.0579(3) 1.1742(3) -0.1309(2)
O8A O 0.0082(3) 1.0856(3) -0.2859(3)
O9A O -0.6802(3) 1.1867(3) -0.3465(3)
O9_2 O -0.3198(3) 0.8133(3) 0.3465(3)
O9A_2 O 0.3198(3) 1.1867(3) -0.3465(3)
O10A O -0.7526(3) 1.1662(3) -0.1715(3)
P1A P -0.82616(13) 1.12144(10) 0.42633(10)
P2A P -0.08752(13) 1.08093(11) -0.17334(10)
Zn1A Zn -0.01838(5) 1.15704(4) 0.01373(4)
Zn2A Zn 0.05215(5) 0.95283(4) -0.34703(4)
Zn2_2 Zn -1.05215(5) 1.04717(4) 0.34703(4)
Zn2_3 Zn 0.94785(5) 1.04717(4) -0.65297(4)
Zn2A_2 Zn -0.94785(5) 0.95283(4) 0.65297(4)
Zn2A_3 Zn 1.05215(5) 0.95283(4) -0.34703(4)
Zn3A Zn 0.13472(5) 1.20888(4) -0.36259(4)
Zn3_2 Zn 0.86528(5) 0.79112(4) -0.63741(4)
Zn3_3 Zn 0.86528(5) 0.79112(4) 0.36259(4)
Zn3A_2 Zn -0.86528(5) 1.20888(4) -0.36259(4)
Zn3A_3 Zn -0.86528(5) 1.20888(4) 0.63741(4)
O11 O 0.2896(3) 0.6399(3) 0.0883(3)
H23 H 0.2479 0.6937 0.1122
H24 H 0.3177 0.6675 0.0189
loop_
_geom_bond_atom_site_label_1
_geom_bond_atom_site_label_2
_geom_bond_site_symmetry_1
_geom_bond_site_symmetry_2
C1 C2 1_555 1_555
C2 H1 1_555 1_555
C3 C2 1_555 1_555
H2 C3 1_555 1_555
C4 C3 1_555 1_555
C5 C4 1_555 1_555
H3 C5 1_555 1_555
C6 C1 1_555 1_555
H4 C6 1_555 1_555
C7 C4 1_555 1_555
C8 C9 1_555 1_555
C9 C10 1_555 1_555
C10 H5 1_555 1_555
C11 C10 1_555 1_555
H6 C11 1_555 1_555
C12 C11 1_555 1_555
C13 C12 1_555 1_555
H7 C13 1_555 1_555
C14 C9 1_555 1_555
H8 C14 1_555 1_555
C15 H9 1_555 1_555
C16 H10 1_555 1_555
C17 C16 1_555 1_555
H11 C17 1_555 1_555
C18 H12 1_555 1_555
H13 C18 1_555 1_555
C19 C18 1_555 1_555
C20 C19 1_555 1_555
H14 C20 1_555 1_555
C21 C20 1_555 1_555
H15 C21 1_555 1_555
C22 C21 1_555 1_555
H16 C22 1_555 1_555
C23 C22 1_555 1_555
H17 C23 1_555 1_555
C24 C19 1_555 1_555
C25 C24 1_555 1_555
H18 C25 1_555 1_555
H19 C25 1_555 1_555
C26 H20 1_555 1_555
C27 H21 1_555 1_555
C28 C27 1_555 1_555
H22 C28 1_555 1_555
N1 C15 1_555 1_555
N2 C15 1_555 1_555
N3 C26 1_555 1_555
N4 C25 1_555 1_555
O1 P1 1_555 1_555
O2 P1 1_555 1_555
O3 P1 1_555 1_555
O4 C7 1_555 1_555
O5 C7 1_555 1_555
O6 P2 1_555 1_555
O7 P2 1_555 1_555
O8 P2 1_555 1_555
O9 C8 1_555 1_555
O10 C8 1_555 1_555
O11 H23 1_555 1_555
H24 O11 1_555 1_555
P1 C1 1_555 1_555
P2 C12 1_555 1_555
Zn1 N1 1_555 1_555
Zn2 O8 1_555 1_555
Zn3 N3 1_555 1_555
C1A C2A 1_555 1_555
C2A H1A 1_555 1_555
C3A C2A 1_555 1_555
H2A C3A 1_555 1_555
C4A C3A 1_555 1_555
C5A C4A 1_555 1_555
H3A C5A 1_555 1_555
C6A C1A 1_555 1_555
H4A C6A 1_555 1_555
C7A C4A 1_555 1_555
C8A C9A 1_555 1_555
C9A C10A 1_555 1_555
C10A H5A 1_555 1_555
C11A C10A 1_555 1_555
H6A C11A 1_555 1_555
C12A C11A 1_555 1_555
C13A C12A 1_555 1_555
H7A C13A 1_555 1_555
C14A C9A 1_555 1_555
H8A C14A 1_555 1_555
C15A H9A 1_555 1_555
C16A H10A 1_555 1_555
C17A C16A 1_555 1_555
H11A C17A 1_555 1_555
C18A H12A 1_555 1_555
H13A C18A 1_555 1_555
C19A C18A 1_555 1_555
C20A C19A 1_555 1_555
H14A C20A 1_555 1_555
C21A C20A 1_555 1_555
H15A C21A 1_555 1_555
C22A C21A 1_555 1_555
H16A C22A 1_555 1_555
C23A C22A 1_555 1_555
H17A C23A 1_555 1_555
C24A C19A 1_555 1_555
C25A C24A 1_555 1_555
H18A C25A 1_555 1_555
H19A C25A 1_555 1_555
C26A H20A 1_555 1_555
C27A H21A 1_555 1_555
C28A C27A 1_555 1_555
H22A C28A 1_555 1_555
N1A C15A 1_555 1_555
N2A C15A 1_555 1_555
N3A C26A 1_555 1_555
N4A C25A 1_555 1_555
O1A P1A 1_555 1_555
O1_2 Zn2 1_555 1_555
O1A_2 Zn2A 1_555 1_555
O2A P1A 1_555 1_555
O2_2 Zn2A 1_555 1_555
O2A_2 Zn2 1_555 1_555
O3A P1A 1_555 1_555
O3_2 Zn3 1_555 1_555
O3A_2 Zn3A 1_555 1_555
O4A Zn2 1_555 1_555
O5A C7A 1_555 1_555
O6A Zn1 1_555 1_555
O7A P2A 1_555 1_555
O8A P2A 1_555 1_555
O9A C8A 1_555 1_555
O9_2 Zn3 1_555 1_555
O9A_2 Zn3A 1_555 1_555
O10A C8A 1_555 1_555
P1A C1A 1_555 1_555
P2A C12A 1_555 1_555
Zn1A O6 1_555 1_555
Zn2A O4 1_555 1_555
Zn2_2 O2A 1_555 1_555
Zn2_3 O1 1_555 1_555
Zn2A_2 O1A 1_555 1_555
Zn2A_3 O2 1_555 1_555
Zn3A N3A 1_555 1_555
Zn3_2 O3 1_555 1_555
Zn3_3 O9 1_555 1_555
Zn3A_2 O9A 1_555 1_555
Zn3A_3 O3A 1_555 1_555
C5 C6 1_555 1_555
C13 C14 1_555 1_555
C16 N1 1_555 1_555
C17 N2 1_555 1_555
C18 N2 1_555 1_555
C23 C24 1_555 1_555
C26 N4 1_555 1_555
C27 N4 1_555 1_555
C28 N3 1_555 1_555
O5 Zn1 1_555 1_555
O7 Zn1 1_555 1_555
O8 Zn3 1_555 1_555
C5A C6A 1_555 1_555
C7A O4A 1_555 1_555
C13A C14A 1_555 1_555
C16A N1A 1_555 1_555
C17A N2A 1_555 1_555
C18A N2A 1_555 1_555
C23A C24A 1_555 1_555
C26A N4A 1_555 1_555
C27A N4A 1_555 1_555
C28A N3A 1_555 1_555
N1A Zn1A 1_555 1_555
O5A Zn1A 1_555 1_555
O6A P2A 1_555 1_555
O7A Zn1A 1_555 1_555
O8A Zn2A 1_555 1_555
O8A Zn3A 1_555 1_555

#END
