
#######################################################################
#
#                 Cambridge Crystallographic Data Centre
#                                CCDC 
#
#######################################################################
#
# If this CIF has been generated from an entry in the Cambridge 
# Structural Database, then it will include bibliographic, chemical, 
# crystal, experimental, refinement or atomic coordinate data resulting 
# from the CCDC's data processing and validation procedures.
#
#######################################################################

data_PUVDIT
_symmetry_cell_setting           tetragonal
_symmetry_space_group_name_H-M   'I 4/m'
_symmetry_Int_Tables_number      87
_space_group_name_Hall           '-I 4'
loop_
_symmetry_equiv_pos_site_id
_symmetry_equiv_pos_as_xyz
1 x,y,z
2 -y,x,z
3 y,-x,z
4 1/2+x,1/2+y,1/2+z
5 1/2-y,1/2+x,1/2+z
6 1/2+y,1/2-x,1/2+z
7 -x,-y,z
8 1/2-x,1/2-y,1/2+z
9 -x,-y,-z
10 y,-x,-z
11 -y,x,-z
12 1/2-x,1/2-y,1/2-z
13 1/2+y,1/2-x,1/2-z
14 1/2-y,1/2+x,1/2-z
15 x,y,-z
16 1/2+x,1/2+y,1/2-z
_cell_length_a                   10.901(2)
_cell_length_b                   10.901(2)
_cell_length_c                   17.403(2)
_cell_angle_alpha                90
_cell_angle_beta                 90
_cell_angle_gamma                90
_cell_volume                     2068.03
loop_
_atom_site_label
_atom_site_type_symbol
_atom_site_fract_x
_atom_site_fract_y
_atom_site_fract_z
Cu1 Cu -0.5000 0.0000 0.7500
S1 S -0.44119(7) -0.13819(7) 0.65802(4)
S2 S -0.3704(1) -0.2607(1) 0.5000
C1 C -0.4741(2) -0.0587(3) 0.5702(1)
C2 C -0.4462(4) -0.1164(4) 0.5000
C3 C -0.5691(3) -0.2446(4) 0.6603(2)
C4 C -0.2145(6) -0.2075(6) 0.5000
H1 H -0.6421 -0.2007 0.6601
H2 H -0.5623 -0.2791 0.7107
H3 H -0.5567 -0.3006 0.6199
H4 H -0.1929 -0.1606 0.4570
H5 H -0.1572 -0.2847 0.5000
C1F C -0.5259(2) 0.0587(3) 0.5702(1)
S1F S -0.55881(7) 0.13819(7) 0.65802(4)
C3F C -0.4309(3) 0.2446(4) 0.6603(2)
H1F H -0.3579 0.2007 0.6601
H2F H -0.4377 0.2791 0.7107
H3F H -0.4433 0.3006 0.6199
C2H C -0.5538(4) 0.1164(4) 0.5000
S2H S -0.6296(1) 0.2607(1) 0.5000
C4H C -0.7855(6) 0.2075(6) 0.5000
H4F H -0.8071 0.1606 0.4570
H4H H -0.8071 0.1606 0.5430
H5H H -0.8428 0.2847 0.5000
C1H C -0.5259(2) 0.0587(3) 0.4298(1)
S1H S -0.55881(7) 0.13819(7) 0.34198(4)
C3H C -0.4309(3) 0.2446(4) 0.3397(2)
H1H H -0.3579 0.2007 0.3399
H2H H -0.4377 0.2791 0.2893
H3H H -0.4433 0.3006 0.3801
C1N C -0.4741(2) -0.0587(3) 0.4298(1)
S1N S -0.44119(7) -0.13819(7) 0.34198(4)
C3N C -0.5691(3) -0.2446(4) 0.3397(2)
H1N H -0.6421 -0.2007 0.3399
H2N H -0.5623 -0.2791 0.2893
H3N H -0.5567 -0.3006 0.3801
H4N H -0.1929 -0.1606 0.5430
S1L S -0.63819(7) -0.05881(7) 0.84198(4)
S1M S -0.36181(7) 0.05881(7) 0.84198(4)
Cu1N Cu -0.5000 0.0000 0.2500
P1 P 0.0000 0.0000 0.3347(1)
F1 F 0.0000 0.0000 0.2432(3)
F2 F -0.1408(3) 0.0350(3) 0.3336(2)
F3 F 0.0000 0.0000 0.4236(3)
F2A F -0.0350(3) -0.1408(3) 0.3336(2)
F2B F 0.0350(3) 0.1408(3) 0.3336(2)
F2F F 0.1408(3) -0.0350(3) 0.3336(2)
loop_
_geom_bond_atom_site_label_1
_geom_bond_atom_site_label_2
_geom_bond_site_symmetry_1
_geom_bond_site_symmetry_2
Cu1 S1 1_555 1_555
S1 C1 1_555 1_555
S2 C2 1_555 1_555
P1 F1 1_555 1_555
F2 P1 1_555 1_555
F3 P1 1_555 1_555
C1 C2 1_555 1_555
C2 C1N 1_555 1_555
C3 S1 1_555 1_555
C4 S2 1_555 1_555
H1 C3 1_555 1_555
H2 C3 1_555 1_555
H3 C3 1_555 1_555
H4 C4 1_555 1_555
H5 C4 1_555 1_555
C1F C1 1_555 1_555
S1F Cu1 1_555 1_555
C3F S1F 1_555 1_555
H1F C3F 1_555 1_555
H2F C3F 1_555 1_555
H3F C3F 1_555 1_555
C2H C1F 1_555 1_555
S2H C2H 1_555 1_555
C4H S2H 1_555 1_555
H4F C4H 1_555 1_555
H4H C4H 1_555 1_555
H5H C4H 1_555 1_555
C1H C2H 1_555 1_555
S1H C1H 1_555 1_555
C3H S1H 1_555 1_555
H1H C3H 1_555 1_555
H2H C3H 1_555 1_555
H3H C3H 1_555 1_555
C1N C1H 1_555 1_555
S1N C1N 1_555 1_555
C3N S1N 1_555 1_555
H1N C3N 1_555 1_555
H2N C3N 1_555 1_555
H3N C3N 1_555 1_555
H4N C4 1_555 1_555
F2A P1 1_555 1_555
F2B P1 1_555 1_555
F2F P1 1_555 1_555
S1L Cu1 1_555 1_555
S1M Cu1 1_555 1_555
Cu1N S1H 1_555 1_555
C1F S1F 1_555 1_555
S1N Cu1N 1_555 1_555

#END
