
#######################################################################
#
#                 Cambridge Crystallographic Data Centre
#                                CCDC 
#
#######################################################################
#
# If this CIF has been generated from an entry in the Cambridge 
# Structural Database, then it will include bibliographic, chemical, 
# crystal, experimental, refinement or atomic coordinate data resulting 
# from the CCDC's data processing and validation procedures.
#
#######################################################################

data_PUVNIE
_symmetry_cell_setting           monoclinic
_symmetry_space_group_name_H-M   'P 21/n'
_symmetry_Int_Tables_number      14
_space_group_name_Hall           '-P 2yn'
loop_
_symmetry_equiv_pos_site_id
_symmetry_equiv_pos_as_xyz
1 x,y,z
2 1/2-x,1/2+y,1/2-z
3 -x,-y,-z
4 1/2+x,1/2-y,1/2+z
_cell_length_a                   13.317(4)
_cell_length_b                   7.462(3)
_cell_length_c                   16.550(5)
_cell_angle_alpha                90
_cell_angle_beta                 103.21(3)
_cell_angle_gamma                90
_cell_volume                     1601.08
loop_
_atom_site_label
_atom_site_type_symbol
_atom_site_fract_x
_atom_site_fract_y
_atom_site_fract_z
Co1 Co 0.46007(3) 0.24932(8) 0.09123(3)
N1 N 0.5229(2) -0.0118(4) 0.1219(2)
N2 N 0.5645(2) -0.0931(4) 0.0781(2)
N3 N 0.6067(2) -0.1786(5) 0.0359(2)
N4 N 0.5971(2) 0.3231(5) 0.0500(2)
N5 N 0.6011(2) 0.4078(4) -0.0092(2)
N6 N 0.6077(2) 0.4905(4) -0.0688(2)
N7 N 0.5354(2) 0.3432(4) 0.2120(2)
C1 C 0.5782(2) 0.5059(5) 0.2189(2)
H1 H 0.5640 0.5802 0.1726
C2 C 0.6427(2) 0.5712(5) 0.2912(2)
C3 C 0.6619(2) 0.4585(5) 0.3601(2)
H2 H 0.7045 0.4972 0.4096
C4 C 0.6181(2) 0.2890(5) 0.3555(2)
C5 C 0.5555(2) 0.2371(6) 0.2798(2)
H3 H 0.5260 0.1236 0.2758
C6 C 0.6910(3) 0.7542(6) 0.2924(2)
H4 H 0.6437 0.8336 0.2570
H5 H 0.7534 0.7455 0.2728
H6 H 0.7066 0.8002 0.3480
C7 C 0.6390(3) 0.1634(6) 0.4292(2)
H7 H 0.5974 0.0578 0.4159
H8 H 0.6223 0.2224 0.4761
H9 H 0.7106 0.1305 0.4425
N8 N 0.3212(2) 0.1534(4) 0.1203(2)
C8 C 0.2647(2) 0.2530(6) 0.1609(2)
H10 H 0.2906 0.3636 0.1819
C9 C 0.1694(3) 0.1992(5) 0.1733(2)
C10 C 0.1323(3) 0.0334(5) 0.1412(2)
H11 H 0.0688 -0.0072 0.1482
C11 C 0.1893(3) -0.0720(6) 0.0987(2)
C12 C 0.2836(3) -0.0058(5) 0.0905(2)
H12 H 0.3230 -0.0756 0.0629
C13 C 0.1084(3) 0.3172(6) 0.2183(3)
H13 H 0.1060 0.2634 0.2705
H14 H 0.0395 0.3309 0.1852
H15 H 0.1408 0.4326 0.2279
C14 C 0.1510(3) -0.2528(6) 0.0624(3)
H16 H 0.2088 -0.3265 0.0586
H17 H 0.1075 -0.2364 0.0081
H18 H 0.1125 -0.3100 0.0976
Co1B Co 0.53993(3) -0.24932(8) -0.09123(3)
Co1_2 Co 0.46007(3) -0.75068(8) 0.09123(3)
Co1B_2 Co 0.53993(3) 0.75068(8) -0.09123(3)
N1B N 0.4771(2) 0.0118(4) -0.1219(2)
N2B N 0.4355(2) 0.0931(4) -0.0781(2)
N3B N 0.3933(2) 0.1786(5) -0.0359(2)
N4B N 0.4029(2) -0.3231(5) -0.0500(2)
N5B N 0.3989(2) -0.4078(4) 0.0092(2)
N6B N 0.3923(2) -0.4905(4) 0.0688(2)
N6_2 N 0.6077(2) -0.5095(4) -0.0688(2)
N6B_2 N 0.3923(2) 0.5095(4) 0.0688(2)
N7B N 0.4646(2) -0.3432(4) -0.2120(2)
C1B C 0.4218(2) -0.5059(5) -0.2189(2)
H1B H 0.4360 -0.5802 -0.1726
C2B C 0.3573(2) -0.5712(5) -0.2912(2)
C3B C 0.3381(2) -0.4585(5) -0.3601(2)
H2B H 0.2955 -0.4972 -0.4096
C4B C 0.3819(2) -0.2890(5) -0.3555(2)
C5B C 0.4445(2) -0.2371(6) -0.2798(2)
H3B H 0.4740 -0.1236 -0.2758
C6B C 0.3090(3) -0.7542(6) -0.2924(2)
H4B H 0.3563 -0.8336 -0.2570
H5B H 0.2466 -0.7455 -0.2728
H6B H 0.2934 -0.8002 -0.3480
C7B C 0.3610(3) -0.1634(6) -0.4292(2)
H7B H 0.4026 -0.0578 -0.4159
H8B H 0.3777 -0.2224 -0.4761
H9B H 0.2894 -0.1305 -0.4425
N8B N 0.6788(2) -0.1534(4) -0.1203(2)
C8B C 0.7353(2) -0.2530(6) -0.1609(2)
H10B H 0.7094 -0.3636 -0.1819
C9B C 0.8306(3) -0.1992(5) -0.1733(2)
C10B C 0.8677(3) -0.0334(5) -0.1412(2)
H11B H 0.9312 0.0072 -0.1482
C11B C 0.8107(3) 0.0720(6) -0.0987(2)
C12B C 0.7164(3) 0.0058(5) -0.0905(2)
H12B H 0.6770 0.0756 -0.0629
C13B C 0.8916(3) -0.3172(6) -0.2183(3)
H13B H 0.8940 -0.2634 -0.2705
H14B H 0.9605 -0.3309 -0.1852
H15B H 0.8592 -0.4326 -0.2279
C14B C 0.8490(3) 0.2528(6) -0.0624(3)
H16B H 0.7912 0.3265 -0.0586
H17B H 0.8925 0.2364 -0.0081
H18B H 0.8875 0.3100 -0.0976
loop_
_geom_bond_atom_site_label_1
_geom_bond_atom_site_label_2
_geom_bond_site_symmetry_1
_geom_bond_site_symmetry_2
Co1 N1 1_555 1_555
N1 N2 1_555 1_555
N2 N3 1_555 1_555
N3 Co1B 1_555 1_555
N4 Co1 1_555 1_555
N5 N4 1_555 1_555
N6 N5 1_555 1_555
N7 Co1 1_555 1_555
C1 N7 1_555 1_555
H1 C1 1_555 1_555
C2 C1 1_555 1_555
C3 C2 1_555 1_555
H2 C3 1_555 1_555
C4 C3 1_555 1_555
C5 N7 1_555 1_555
H3 C5 1_555 1_555
C6 C2 1_555 1_555
H4 C6 1_555 1_555
H5 C6 1_555 1_555
H6 C6 1_555 1_555
C7 C4 1_555 1_555
H7 C7 1_555 1_555
H8 C7 1_555 1_555
H9 C7 1_555 1_555
N8 Co1 1_555 1_555
C8 N8 1_555 1_555
H10 C8 1_555 1_555
C9 C8 1_555 1_555
C10 C9 1_555 1_555
H11 C10 1_555 1_555
C11 C10 1_555 1_555
C12 N8 1_555 1_555
H12 C12 1_555 1_555
C13 C9 1_555 1_555
H13 C13 1_555 1_555
H14 C13 1_555 1_555
H15 C13 1_555 1_555
C14 C11 1_555 1_555
H16 C14 1_555 1_555
H17 C14 1_555 1_555
H18 C14 1_555 1_555
Co1B N1B 1_555 1_555
Co1_2 N6B 1_555 1_555
Co1B_2 N6 1_555 1_555
N1B N2B 1_555 1_555
N2B N3B 1_555 1_555
N3B Co1 1_555 1_555
N4B Co1B 1_555 1_555
N5B N4B 1_555 1_555
N6B N5B 1_555 1_555
N6_2 Co1B 1_555 1_555
N6B_2 Co1 1_555 1_555
N7B Co1B 1_555 1_555
C1B N7B 1_555 1_555
H1B C1B 1_555 1_555
C2B C1B 1_555 1_555
C3B C2B 1_555 1_555
H2B C3B 1_555 1_555
C4B C3B 1_555 1_555
C5B N7B 1_555 1_555
H3B C5B 1_555 1_555
C6B C2B 1_555 1_555
H4B C6B 1_555 1_555
H5B C6B 1_555 1_555
H6B C6B 1_555 1_555
C7B C4B 1_555 1_555
H7B C7B 1_555 1_555
H8B C7B 1_555 1_555
H9B C7B 1_555 1_555
N8B Co1B 1_555 1_555
C8B N8B 1_555 1_555
H10B C8B 1_555 1_555
C9B C8B 1_555 1_555
C10B C9B 1_555 1_555
H11B C10B 1_555 1_555
C11B C10B 1_555 1_555
C12B N8B 1_555 1_555
H12B C12B 1_555 1_555
C13B C9B 1_555 1_555
H13B C13B 1_555 1_555
H14B C13B 1_555 1_555
H15B C13B 1_555 1_555
C14B C11B 1_555 1_555
H16B C14B 1_555 1_555
H17B C14B 1_555 1_555
H18B C14B 1_555 1_555
C4 C5 1_555 1_555
C11 C12 1_555 1_555
C4B C5B 1_555 1_555
C11B C12B 1_555 1_555

#END
