
#######################################################################
#
#                 Cambridge Crystallographic Data Centre
#                                CCDC 
#
#######################################################################
#
# If this CIF has been generated from an entry in the Cambridge 
# Structural Database, then it will include bibliographic, chemical, 
# crystal, experimental, refinement or atomic coordinate data resulting 
# from the CCDC's data processing and validation procedures.
#
#######################################################################

data_PUWVEJ
_symmetry_cell_setting           tetragonal
_symmetry_space_group_name_H-M   'P 4/n'
_symmetry_Int_Tables_number      85
_space_group_name_Hall           '-P 4a'
loop_
_symmetry_equiv_pos_site_id
_symmetry_equiv_pos_as_xyz
1 x,y,z
2 1/2-x,1/2-y,z
3 1/2-y,x,z
4 y,1/2-x,z
5 -x,-y,-z
6 1/2+x,1/2+y,-z
7 1/2+y,-x,-z
8 -y,1/2+x,-z
_cell_length_a                   15.06460(10)
_cell_length_b                   15.06460(10)
_cell_length_c                   8.68520(10)
_cell_angle_alpha                90
_cell_angle_beta                 90
_cell_angle_gamma                90
_cell_volume                     1971.04
loop_
_atom_site_label
_atom_site_type_symbol
_atom_site_fract_x
_atom_site_fract_y
_atom_site_fract_z
Ag1 Ag 0.2500 0.7500 0.0000
N1 N 0.17629(14) 0.84010(13) -0.1728(2)
N2 N 0.08650(13) 0.95857(13) -0.6901(2)
C1 C 0.1351(2) 0.80459(18) -0.2946(3)
H1 H 0.1225 0.7442 -0.2924
C2 C 0.1104(2) 0.85163(17) -0.4220(3)
H2 H 0.0819 0.8236 -0.5035
C3 C 0.12844(14) 0.94155(15) -0.4281(3)
C4 C 0.17011(16) 0.97917(15) -0.3028(3)
H3 H 0.1832 1.0395 -0.3019
C5 C 0.19206(16) 0.92662(16) -0.1792(3)
H4 H 0.2196 0.9533 -0.0952
C6 C 0.10609(16) 0.99508(16) -0.5643(3)
H5 H 0.1064 1.0567 -0.5573
C7 C 0.11438(18) 1.08795(17) -0.8536(3)
H6 H 0.1554 1.1098 -0.7832
C8 C 0.07047(15) 1.01034(15) -0.8231(3)
C9 C 0.00860(14) 0.97581(14) -0.9314(3)
C10 C -0.03832(16) 0.89571(15) -0.9056(3)
H7 H -0.0281 0.8636 -0.8159
C11 C 0.0979(2) 1.13465(18) -0.9900(3)
H8 H 0.1283 1.1872 -1.0092
Ag1B Ag -0.2500 1.2500 -2.0000
Ag1B_2 Ag 0.7500 0.2500 -2.0000
N1D N -0.17629(14) 1.15990(13) -1.8272(2)
N1A N 0.32371(14) 0.65990(13) -0.1728(2)
N1E N 0.67629(14) 0.34010(13) -1.8272(2)
N1F N 0.34010(13) 0.82371(14) 0.1728(2)
N1G N 0.15990(13) 0.67629(14) 0.1728(2)
N2D N -0.08650(13) 1.04143(13) -1.3099(2)
N2A N 0.41350(13) 0.54143(13) -0.6901(2)
N2E N 0.58650(13) 0.45857(13) -1.3099(2)
C1D C -0.1351(2) 1.19541(18) -1.7054(3)
C1A C 0.3649(2) 0.69541(18) -0.2946(3)
C1E C 0.6351(2) 0.30459(18) -1.7054(3)
H1D H -0.1225 1.2558 -1.7076
H1A H 0.3775 0.7558 -0.2924
H1E H 0.6225 0.2442 -1.7076
C2D C -0.1104(2) 1.14837(17) -1.5780(3)
C2A C 0.3896(2) 0.64837(17) -0.4220(3)
C2E C 0.6104(2) 0.35163(17) -1.5780(3)
H2D H -0.0819 1.1764 -1.4965
H2A H 0.4181 0.6764 -0.5035
H2E H 0.5819 0.3236 -1.4965
C3D C -0.12844(14) 1.05845(15) -1.5719(3)
C3A C 0.37156(14) 0.55845(15) -0.4281(3)
C3E C 0.62844(14) 0.44155(15) -1.5719(3)
C4D C -0.17011(16) 1.02083(15) -1.6972(3)
C4A C 0.32989(16) 0.52083(15) -0.3028(3)
C4E C 0.67011(16) 0.47917(15) -1.6972(3)
H3D H -0.1832 0.9605 -1.6981
H3A H 0.3168 0.4605 -0.3019
H3E H 0.6832 0.5395 -1.6981
C5D C -0.19206(16) 1.07338(16) -1.8208(3)
C5A C 0.30794(16) 0.57338(16) -0.1792(3)
C5E C 0.69206(16) 0.42662(16) -1.8208(3)
H4D H -0.2196 1.0467 -1.9048
H4A H 0.2804 0.5467 -0.0952
H4E H 0.7196 0.4533 -1.9048
C6D C -0.10609(16) 1.00492(16) -1.4357(3)
C6A C 0.39391(16) 0.50492(16) -0.5643(3)
C6E C 0.60609(16) 0.49508(16) -1.4357(3)
H5D H -0.1064 0.9433 -1.4427
H5A H 0.3936 0.4433 -0.5573
H5E H 0.6064 0.5567 -1.4427
C7D C -0.11438(18) 0.91205(17) -1.1464(3)
C7A C 0.38562(18) 0.41205(17) -0.8536(3)
C7E C 0.61438(18) 0.58795(17) -1.1464(3)
H6D H -0.1554 0.8902 -1.2168
H6A H 0.3446 0.3902 -0.7832
H6E H 0.6554 0.6098 -1.2168
C8D C -0.07047(15) 0.98966(15) -1.1769(3)
C8A C 0.42953(15) 0.48966(15) -0.8231(3)
C8E C 0.57047(15) 0.51034(15) -1.1769(3)
C9D C -0.00860(14) 1.02419(14) -1.0686(3)
C9A C 0.49140(14) 0.52419(14) -0.9314(3)
C9E C 0.50860(14) 0.47581(14) -1.0686(3)
C10D C 0.03832(16) 1.10429(15) -1.0944(3)
C10A C 0.53832(16) 0.60429(15) -0.9056(3)
C10E C 0.46168(16) 0.39571(15) -1.0944(3)
H7D H 0.0281 1.1364 -1.1841
H7A H 0.5281 0.6364 -0.8159
H7E H 0.4719 0.3636 -1.1841
C11D C -0.0979(2) 0.86535(18) -1.0100(3)
C11A C 0.4021(2) 0.36535(18) -0.9900(3)
C11E C 0.5979(2) 0.63465(18) -1.0100(3)
H8D H -0.1283 0.8128 -0.9908
H8A H 0.3717 0.3128 -1.0092
H8E H 0.6283 0.6872 -0.9908
P1 P 0.2500 1.2500 -0.4530(2)
F1 F 0.28350(18) 1.15237(16) -0.4582(5)
F2 F 0.2500 1.2500 -0.6339(10)
F3 F 0.2500 1.2500 -0.2824(9)
F1A F 0.21650(18) 1.34763(16) -0.4582(5)
F1B F 0.34763(16) 1.28350(18) -0.4582(5)
F1C F 0.15237(16) 1.21650(18) -0.4582(5)
loop_
_geom_bond_atom_site_label_1
_geom_bond_atom_site_label_2
_geom_bond_site_symmetry_1
_geom_bond_site_symmetry_2
Ag1 N1 1_555 1_555
N1 C1 1_555 1_555
N2 C6 1_555 1_555
C1 H1 1_555 1_555
C2 C1 1_555 1_555
H2 C2 1_555 1_555
C3 C2 1_555 1_555
C4 C3 1_555 1_555
H3 C4 1_555 1_555
C5 N1 1_555 1_555
H4 C5 1_555 1_555
C6 C3 1_555 1_555
H5 C6 1_555 1_555
C7 H6 1_555 1_555
C8 N2 1_555 1_555
C9 C8 1_555 1_555
C10 C9 1_555 1_555
H7 C10 1_555 1_555
C11 C7 1_555 1_555
H8 C11 1_555 1_555
P1 F1 1_555 1_555
F2 P1 1_555 1_555
F3 P1 1_555 1_555
Ag1B N1D 1_555 1_555
Ag1B_2 N1E 1_555 1_555
N1D C1D 1_555 1_555
N1A Ag1 1_555 1_555
N1E C1E 1_555 1_555
N1F Ag1 1_555 1_555
N1G Ag1 1_555 1_555
N2D C6D 1_555 1_555
N2A C6A 1_555 1_555
N2E C6E 1_555 1_555
C1D H1D 1_555 1_555
C1A N1A 1_555 1_555
C1E H1E 1_555 1_555
H1A C1A 1_555 1_555
C2D C1D 1_555 1_555
C2A C1A 1_555 1_555
C2E C1E 1_555 1_555
H2D C2D 1_555 1_555
H2A C2A 1_555 1_555
H2E C2E 1_555 1_555
C3D C2D 1_555 1_555
C3A C2A 1_555 1_555
C3E C2E 1_555 1_555
C4D C3D 1_555 1_555
C4A C3A 1_555 1_555
C4E C3E 1_555 1_555
H3D C4D 1_555 1_555
H3A C4A 1_555 1_555
H3E C4E 1_555 1_555
C5D N1D 1_555 1_555
C5A N1A 1_555 1_555
C5E N1E 1_555 1_555
H4D C5D 1_555 1_555
H4A C5A 1_555 1_555
H4E C5E 1_555 1_555
C6D C3D 1_555 1_555
C6A C3A 1_555 1_555
C6E C3E 1_555 1_555
H5D C6D 1_555 1_555
H5A C6A 1_555 1_555
H5E C6E 1_555 1_555
C7D H6D 1_555 1_555
C7A H6A 1_555 1_555
C7E H6E 1_555 1_555
C8D N2D 1_555 1_555
C8A N2A 1_555 1_555
C8E N2E 1_555 1_555
C9D C9 1_555 1_555
C9A C8A 1_555 1_555
C9E C8E 1_555 1_555
C10D C11 1_555 1_555
C10A C9A 1_555 1_555
C10E C9E 1_555 1_555
H7D C10D 1_555 1_555
H7A C10A 1_555 1_555
H7E C10E 1_555 1_555
C11D C10 1_555 1_555
C11A C7A 1_555 1_555
C11E C7E 1_555 1_555
H8D C11D 1_555 1_555
H8A C11A 1_555 1_555
H8E C11E 1_555 1_555
F1A P1 1_555 1_555
F1B P1 1_555 1_555
F1C P1 1_555 1_555
C4 C5 1_555 1_555
C7 C8 1_555 1_555
C4D C5D 1_555 1_555
C4A C5A 1_555 1_555
C4E C5E 1_555 1_555
C7D C8D 1_555 1_555
C7D C11D 1_555 1_555
C7A C8A 1_555 1_555
C7E C8E 1_555 1_555
C8D C9D 1_555 1_555
C9D C10D 1_555 1_555
C9A C9E 1_555 1_555
C10A C11E 1_555 1_555
C10E C11A 1_555 1_555

#END
