
#######################################################################
#
#                 Cambridge Crystallographic Data Centre
#                                CCDC 
#
#######################################################################
#
# If this CIF has been generated from an entry in the Cambridge 
# Structural Database, then it will include bibliographic, chemical, 
# crystal, experimental, refinement or atomic coordinate data resulting 
# from the CCDC's data processing and validation procedures.
#
#######################################################################

data_PUWWAG
_symmetry_cell_setting           monoclinic
_symmetry_space_group_name_H-M   'C 2/c'
_symmetry_Int_Tables_number      15
_space_group_name_Hall           '-C 2yn'
loop_
_symmetry_equiv_pos_site_id
_symmetry_equiv_pos_as_xyz
1 x,y,z
2 -x,y,1/2-z
3 1/2+x,1/2+y,z
4 1/2-x,1/2+y,1/2-z
5 -x,-y,-z
6 x,-y,1/2+z
7 1/2-x,1/2-y,-z
8 1/2+x,1/2-y,1/2+z
_cell_length_a                   20.7414(3)
_cell_length_b                   17.0358(3)
_cell_length_c                   24.2926(4)
_cell_angle_alpha                90
_cell_angle_beta                 111.4430(10)
_cell_angle_gamma                90
_cell_volume                     7989.55
loop_
_atom_site_label
_atom_site_type_symbol
_atom_site_fract_x
_atom_site_fract_y
_atom_site_fract_z
Ag1 Ag 0.254480(14) 0.027805(14) 0.254449(10)
N1 N 0.27864(14) -0.00869(14) 0.34718(11)
N2 N 0.31843(14) -0.22656(13) 0.47842(12)
N3 N 0.36217(14) -0.79389(15) 0.57986(13)
N4 N 0.32190(14) -0.99819(15) 0.69765(11)
N5 N 0.15155(15) 0.02966(15) 0.17532(13)
N6 N 0.06319(13) 0.24123(16) 0.09917(13)
C1 C 0.29741(17) 0.04190(17) 0.39255(14)
H1 H 0.2985 0.0952 0.3845
C2 C 0.31502(19) 0.01868(17) 0.45020(14)
H2 H 0.3270 0.0558 0.4804
C3 C 0.31489(17) -0.06011(17) 0.46311(13)
H3 H 0.3267 -0.0770 0.5020
C4 C 0.29683(14) -0.11354(16) 0.41713(12)
C5 C 0.27856(15) -0.08528(16) 0.36028(13)
H4 H 0.2655 -0.1212 0.3293
C6 C 0.29900(15) -0.19872(17) 0.42714(14)
H5 H 0.2857 -0.2326 0.3949
C7 C 0.32436(15) -0.30824(16) 0.48881(13)
C8 C 0.36198(16) -0.33226(17) 0.54666(14)
C9 C 0.36920(16) -0.41226(17) 0.55897(14)
H6 H 0.3955 -0.4282 0.5973
C10 C 0.33902(15) -0.46910(16) 0.51674(14)
C11 C 0.30082(16) -0.44368(18) 0.45942(14)
H7 H 0.2798 -0.4805 0.4300
C12 C 0.29370(16) -0.36450(17) 0.44561(14)
H8 H 0.2682 -0.3488 0.4071
C13 C 0.3933(2) -0.2731(2) 0.59504(16)
H9 H 0.4169 -0.2999 0.6317
H10 H 0.3574 -0.2406 0.5989
H11 H 0.4257 -0.2409 0.5854
C14 C 0.34475(15) -0.55406(17) 0.53275(14)
C15 C 0.35856(18) -0.57643(18) 0.59115(15)
H12 H 0.3640 -0.5382 0.6199
C16 C 0.3642(2) -0.6548(2) 0.60678(16)
H13 H 0.3743 -0.6687 0.6461
C17 C 0.35502(16) -0.71328(17) 0.56458(16)
C18 C 0.34150(14) -0.69235(17) 0.50603(14)
C19 C 0.33656(14) -0.61314(17) 0.49163(14)
H14 H 0.3273 -0.5991 0.4525
C20 C 0.3323(2) -0.7542(2) 0.45957(18)
H15 H 0.3378 -0.8052 0.4774
H16 H 0.3664 -0.7470 0.4419
H17 H 0.2868 -0.7498 0.4297
C21 C 0.33969(16) -0.81819(17) 0.61855(15)
H18 H 0.3173 -0.7831 0.6349
C22 C 0.34775(15) -0.89990(17) 0.63848(13)
C23 C 0.38443(17) -0.95453(19) 0.61902(15)
H19 H 0.4054 -0.9399 0.5927
C24 C 0.3892(2) -1.02990(19) 0.63911(18)
H20 H 0.4133 -1.0675 0.6266
C25 C 0.35759(18) -1.04962(19) 0.67838(15)
H21 H 0.3613 -1.1011 0.6920
C26 C 0.31830(16) -0.92514(17) 0.67772(14)
H22 H 0.2942 -0.8885 0.6912
C27 C 0.1194(2) -0.03698(19) 0.15025(17)
H23 H 0.1395 -0.0846 0.1662
C28 C 0.0591(2) -0.0380(2) 0.1028(2)
H24 H 0.0382 -0.0854 0.0871
C29 C 0.02906(18) 0.0324(2) 0.07796(18)
H25 H -0.0122 0.0331 0.0453
C30 C 0.06146(15) 0.10164(18) 0.10262(15)
C31 C 0.12266(16) 0.09746(18) 0.15138(15)
H26 H 0.1445 0.1440 0.1681
C32 C 0.03361(16) 0.1781(2) 0.07725(16)
H27 H -0.0070 0.1799 0.0441
C33 C 0.03979(15) 0.31359(18) 0.06960(15)
C34 C 0.01780(18) 0.32020(19) 0.00878(16)
H28 H 0.0138 0.2755 -0.0142
C35 C 0.00176(18) 0.39250(19) -0.01806(15)
H29 H -0.0133 0.3955 -0.0591
C36 C 0.00738(15) 0.46066(17) 0.01413(14)
C37 C 0.03002(16) 0.45217(19) 0.07556(14)
H30 H 0.0343 0.4970 0.0984
C38 C 0.04636(16) 0.38052(19) 0.10407(14)
C39 C 0.0692(2) 0.3747(2) 0.17010(16)
H31 H 0.0700 0.4261 0.1865
H32 H 0.1148 0.3523 0.1859
H33 H 0.0375 0.3419 0.1802
Ag1E Ag 0.254480(14) -1.027805(14) -0.245551(10)
Ag1E_2 Ag 0.254480(14) -1.027805(14) 0.754449(10)
Ag1D Ag -0.254480(14) 0.972195(14) -0.254449(10)
N1E N 0.27864(14) -0.99131(14) -0.15282(11)
N2E N 0.31843(14) -0.77344(13) -0.02158(12)
N3E N 0.36217(14) -0.20611(15) 0.07986(13)
N4E N 0.32190(14) -0.00181(15) 0.19765(11)
N4_2 N 0.32190(14) -0.99819(15) -0.30235(11)
N5D N -0.15155(15) 0.97034(15) -0.17532(13)
N5E N 0.15155(15) -1.02966(15) -0.32468(13)
N6D N -0.06319(13) 0.75877(16) -0.09917(13)
C1E C 0.29741(17) -1.04190(17) -0.10745(14)
H1E H 0.2985 -1.0952 -0.1155
C2E C 0.31502(19) -1.01868(17) -0.04980(14)
H2E H 0.3270 -1.0558 -0.0196
C3E C 0.31489(17) -0.93989(17) -0.03689(13)
H3E H 0.3267 -0.9230 0.0020
C4E C 0.29683(14) -0.88646(16) -0.08287(12)
C5E C 0.27856(15) -0.91472(16) -0.13972(13)
H4E H 0.2655 -0.8788 -0.1707
C6E C 0.29900(15) -0.80128(17) -0.07286(14)
H5E H 0.2857 -0.7674 -0.1051
C7E C 0.32436(15) -0.69176(16) -0.01119(13)
C8E C 0.36198(16) -0.66774(17) 0.04666(14)
C9E C 0.36920(16) -0.58774(17) 0.05897(14)
H6E H 0.3955 -0.5718 0.0973
C10E C 0.33902(15) -0.53090(16) 0.01674(14)
C11E C 0.30082(16) -0.55632(18) -0.04058(14)
H7E H 0.2798 -0.5195 -0.0700
C12E C 0.29370(16) -0.63550(17) -0.05439(14)
H8E H 0.2682 -0.6512 -0.0929
C13E C 0.3933(2) -0.7269(2) 0.09504(16)
H9E H 0.4169 -0.7001 0.1317
H10E H 0.3574 -0.7594 0.0989
H11E H 0.4257 -0.7591 0.0854
C14E C 0.34475(15) -0.44594(17) 0.03275(14)
C15E C 0.35856(18) -0.42357(18) 0.09115(15)
H12E H 0.3640 -0.4618 0.1199
C16E C 0.3642(2) -0.3452(2) 0.10678(16)
H13E H 0.3743 -0.3313 0.1461
C17E C 0.35502(16) -0.28672(17) 0.06458(16)
C18E C 0.34150(14) -0.30765(17) 0.00603(14)
C19E C 0.33656(14) -0.38686(17) -0.00837(14)
H14E H 0.3273 -0.4009 -0.0475
C20E C 0.3323(2) -0.2458(2) -0.04043(18)
H15E H 0.3378 -0.1948 -0.0226
H16E H 0.3664 -0.2530 -0.0581
H17E H 0.2868 -0.2502 -0.0703
C21E C 0.33969(16) -0.18181(17) 0.11855(15)
H18E H 0.3173 -0.2169 0.1349
C22E C 0.34775(15) -0.10010(17) 0.13848(13)
C23E C 0.38443(17) -0.04547(19) 0.11902(15)
H19E H 0.4054 -0.0601 0.0927
C24E C 0.3892(2) 0.02990(19) 0.13911(18)
H20E H 0.4133 0.0675 0.1266
C25E C 0.35759(18) 0.04962(19) 0.17838(15)
H21E H 0.3613 0.1011 0.1920
C26E C 0.31830(16) -0.07486(17) 0.17772(14)
H22E H 0.2942 -0.1115 0.1912
C27D C -0.1194(2) 1.03698(19) -0.15025(17)
H23D H -0.1395 1.0846 -0.1662
C28D C -0.0591(2) 1.0380(2) -0.1028(2)
H24D H -0.0382 1.0854 -0.0871
C29D C -0.02906(18) 0.9676(2) -0.07796(18)
H25D H 0.0122 0.9669 -0.0453
C30D C -0.06146(15) 0.89836(18) -0.10262(15)
C31D C -0.12266(16) 0.90254(18) -0.15138(15)
H26D H -0.1445 0.8560 -0.1681
C32D C -0.03361(16) 0.8219(2) -0.07725(16)
H27D H 0.0070 0.8201 -0.0441
C33D C -0.03979(15) 0.68641(18) -0.06960(15)
C34D C -0.01780(18) 0.67980(19) -0.00878(16)
H28D H -0.0138 0.7245 0.0142
C35D C -0.00176(18) 0.60750(19) 0.01806(15)
H29D H 0.0133 0.6045 0.0591
C36D C -0.00738(15) 0.53934(17) -0.01413(14)
C37D C -0.03002(16) 0.54783(19) -0.07556(14)
H30D H -0.0343 0.5030 -0.0984
C38D C -0.04636(16) 0.61948(19) -0.10407(14)
C39D C -0.0692(2) 0.6253(2) -0.17010(16)
H31D H -0.0700 0.5739 -0.1865
H32D H -0.1148 0.6477 -0.1859
H33D H -0.0375 0.6581 -0.1802
S1 S 0.20543(5) 0.73241(4) 0.23178(4)
O1 O 0.2337(2) 0.6894(3) 0.1971(2)
O2 O 0.2197(2) 0.6999(3) 0.28829(18)
O3 O 0.21595(17) 0.81361(15) 0.23160(15)
F1 F 0.09699(19) 0.6453(2) 0.18500(18)
F2 F 0.0800(2) 0.7434(4) 0.2262(2)
F3 F 0.08942(17) 0.7542(2) 0.14388(15)
C40 C 0.1141(2) 0.7192(3) 0.1944(2)
O4 O 0.4237(2) -0.4332(2) 0.72705(13)
O5? O 0.4886(4) -0.5715(3) 0.7618(3)
loop_
_geom_bond_atom_site_label_1
_geom_bond_atom_site_label_2
_geom_bond_site_symmetry_1
_geom_bond_site_symmetry_2
Ag1 N1 1_555 1_555
N1 C1 1_555 1_555
N2 C6 1_555 1_555
N3 C17 1_555 1_555
N4 C25 1_555 1_555
N5 Ag1 1_555 1_555
N6 C32 1_555 1_555
C1 H1 1_555 1_555
C2 C1 1_555 1_555
H2 C2 1_555 1_555
C3 C2 1_555 1_555
H3 C3 1_555 1_555
C4 C3 1_555 1_555
C5 N1 1_555 1_555
H4 C5 1_555 1_555
C6 C4 1_555 1_555
H5 C6 1_555 1_555
C7 N2 1_555 1_555
C8 C7 1_555 1_555
C9 C8 1_555 1_555
H6 C9 1_555 1_555
C10 C9 1_555 1_555
C11 C10 1_555 1_555
H7 C11 1_555 1_555
C12 C7 1_555 1_555
H8 C12 1_555 1_555
C13 C8 1_555 1_555
H9 C13 1_555 1_555
H10 C13 1_555 1_555
H11 C13 1_555 1_555
C14 C10 1_555 1_555
C15 C14 1_555 1_555
H12 C15 1_555 1_555
C16 C15 1_555 1_555
H13 C16 1_555 1_555
C17 C16 1_555 1_555
C18 C17 1_555 1_555
C19 C14 1_555 1_555
H14 C19 1_555 1_555
C20 C18 1_555 1_555
H15 C20 1_555 1_555
H16 C20 1_555 1_555
H17 C20 1_555 1_555
C21 N3 1_555 1_555
H18 C21 1_555 1_555
C22 C21 1_555 1_555
C23 C22 1_555 1_555
H19 C23 1_555 1_555
C24 C23 1_555 1_555
H20 C24 1_555 1_555
C25 C24 1_555 1_555
H21 C25 1_555 1_555
C26 N4 1_555 1_555
H22 C26 1_555 1_555
C27 N5 1_555 1_555
H23 C27 1_555 1_555
C28 C27 1_555 1_555
H24 C28 1_555 1_555
C29 C28 1_555 1_555
H25 C29 1_555 1_555
C30 C29 1_555 1_555
C31 N5 1_555 1_555
H26 C31 1_555 1_555
C32 C30 1_555 1_555
H27 C32 1_555 1_555
C33 N6 1_555 1_555
C34 C33 1_555 1_555
H28 C34 1_555 1_555
C35 C34 1_555 1_555
H29 C35 1_555 1_555
C36 C35 1_555 1_555
C37 C36 1_555 1_555
H30 C37 1_555 1_555
C38 C33 1_555 1_555
C39 C38 1_555 1_555
H31 C39 1_555 1_555
H32 C39 1_555 1_555
H33 C39 1_555 1_555
S1 O1 1_555 1_555
O2 S1 1_555 1_555
O3 S1 1_555 1_555
F1 C40 1_555 1_555
F2 C40 1_555 1_555
F3 C40 1_555 1_555
C40 S1 1_555 1_555
Ag1E N1E 1_555 1_555
Ag1E_2 N4 1_555 1_555
Ag1D N5D 1_555 1_555
N1E C1E 1_555 1_555
N2E C6E 1_555 1_555
N3E C17E 1_555 1_555
N4E Ag1 1_555 1_555
N4_2 Ag1E 1_555 1_555
N5D C27D 1_555 1_555
N5E Ag1E 1_555 1_555
N6D C32D 1_555 1_555
C1E H1E 1_555 1_555
C2E C1E 1_555 1_555
H2E C2E 1_555 1_555
C3E C2E 1_555 1_555
H3E C3E 1_555 1_555
C4E C3E 1_555 1_555
C5E N1E 1_555 1_555
H4E C5E 1_555 1_555
C6E C4E 1_555 1_555
H5E C6E 1_555 1_555
C7E N2E 1_555 1_555
C8E C7E 1_555 1_555
C9E C8E 1_555 1_555
H6E C9E 1_555 1_555
C10E C9E 1_555 1_555
C11E C10E 1_555 1_555
H7E C11E 1_555 1_555
C12E C7E 1_555 1_555
H8E C12E 1_555 1_555
C13E C8E 1_555 1_555
H9E C13E 1_555 1_555
H10E C13E 1_555 1_555
H11E C13E 1_555 1_555
C14E C10E 1_555 1_555
C15E C14E 1_555 1_555
H12E C15E 1_555 1_555
C16E C15E 1_555 1_555
H13E C16E 1_555 1_555
C17E C16E 1_555 1_555
C18E C17E 1_555 1_555
C19E C14E 1_555 1_555
H14E C19E 1_555 1_555
C20E C18E 1_555 1_555
H15E C20E 1_555 1_555
H16E C20E 1_555 1_555
H17E C20E 1_555 1_555
C21E N3E 1_555 1_555
H18E C21E 1_555 1_555
C22E C21E 1_555 1_555
C23E C22E 1_555 1_555
H19E C23E 1_555 1_555
C24E C23E 1_555 1_555
H20E C24E 1_555 1_555
C25E N4E 1_555 1_555
H21E C25E 1_555 1_555
C26E N4E 1_555 1_555
H22E C26E 1_555 1_555
C27D H23D 1_555 1_555
C28D C27D 1_555 1_555
H24D C28D 1_555 1_555
C29D C28D 1_555 1_555
H25D C29D 1_555 1_555
C30D C29D 1_555 1_555
C31D N5D 1_555 1_555
H26D C31D 1_555 1_555
C32D C30D 1_555 1_555
H27D C32D 1_555 1_555
C33D N6D 1_555 1_555
C34D C33D 1_555 1_555
H28D C34D 1_555 1_555
C35D C34D 1_555 1_555
H29D C35D 1_555 1_555
C36D C36 1_555 1_555
C37D C36D 1_555 1_555
H30D C37D 1_555 1_555
C38D C33D 1_555 1_555
C39D C38D 1_555 1_555
H31D C39D 1_555 1_555
H32D C39D 1_555 1_555
H33D C39D 1_555 1_555
C4 C5 1_555 1_555
C11 C12 1_555 1_555
C18 C19 1_555 1_555
C22 C26 1_555 1_555
C30 C31 1_555 1_555
C37 C38 1_555 1_555
C4E C5E 1_555 1_555
C11E C12E 1_555 1_555
C18E C19E 1_555 1_555
C22E C26E 1_555 1_555
C24E C25E 1_555 1_555
C30D C31D 1_555 1_555
C35D C36D 1_555 1_555
C37D C38D 1_555 1_555

#END
