
#######################################################################
#
#                 Cambridge Crystallographic Data Centre
#                                CCDC 
#
#######################################################################
#
# If this CIF has been generated from an entry in the Cambridge 
# Structural Database, then it will include bibliographic, chemical, 
# crystal, experimental, refinement or atomic coordinate data resulting 
# from the CCDC's data processing and validation procedures.
#
#######################################################################

data_PUWXAH
_symmetry_cell_setting           monoclinic
_symmetry_space_group_name_H-M   'P 2/c'
_symmetry_Int_Tables_number      13
_space_group_name_Hall           '-P 2yc'
loop_
_symmetry_equiv_pos_site_id
_symmetry_equiv_pos_as_xyz
1 x,y,z
2 -x,y,1/2-z
3 -x,-y,-z
4 x,-y,1/2+z
_cell_length_a                   9.753(3)
_cell_length_b                   12.751(2)
_cell_length_c                   14.174(4)
_cell_angle_alpha                90
_cell_angle_beta                 109.41(1)
_cell_angle_gamma                90
_cell_volume                     1662.5
loop_
_atom_site_label
_atom_site_type_symbol
_atom_site_fract_x
_atom_site_fract_y
_atom_site_fract_z
Mn1 Mn 0.5000 0.5000 0.0000
Mn2 Mn 0.55674(6) 0.72422(4) 0.14858(4)
O1 O 0.6716(3) 0.5852(2) 0.1173(2)
O2 O 0.8034(3) 0.7282(2) 0.1480(2)
O3 O 1.3508(3) 0.6921(2) 0.1852(2)
O4 O 1.3768(3) 0.5675(3) 0.0861(2)
O5 O 1.1311(4) 0.2333(3) 0.1201(4)
O6 O 0.9030(4) 0.2395(3) 0.1145(4)
C1 C 0.9196(4) 0.5679(3) 0.1290(2)
C2 C 1.0502(4) 0.6169(3) 0.1358(3)
C3 C 1.1688(4) 0.5573(3) 0.1350(2)
C4 C 1.1578(4) 0.4485(3) 0.1289(3)
C5 C 1.0300(4) 0.3995(3) 0.1254(3)
C6 C 0.9094(4) 0.4603(3) 0.1249(3)
C7 C 0.7927(4) 0.6314(3) 0.1307(3)
C8 C 1.3072(4) 0.6081(3) 0.1356(3)
C9 C 1.0143(5) 0.2841(3) 0.1192(4)
O7 O 0.4510(3) -0.1176(2) 0.3112(2)
O8 O 0.5134(3) 0.2194(2) 0.0007(2)
O9 O 0.5294(4) 0.3667(2) 0.0888(2)
C10 C 0.5000 0.0451(4) 0.2500
C11 C 0.5123(4) 0.0992(3) 0.1680(3)
C12 C 0.5111(4) 0.2084(3) 0.1680(3)
C13 C 0.5000 0.2617(4) 0.2500
C14 C 0.5000 -0.0722(4) 0.2500
C15 C 0.5197(4) 0.2697(3) 0.0795(3)
Na1 Na 0.8261(4) 0.9390(3) 0.1708(3)
H1 H 1.1279 0.1550 0.1234
H2 H 1.0584 0.6950 0.1413
H3 H 1.2428 0.4057 0.1271
H4 H 0.8162 0.4253 0.1217
H5 H 0.5218 0.0599 0.1094
H6 H 0.5000 0.3402 0.2500
Mn1_2 Mn 1.5000 0.5000 0.0000
Mn1A Mn 0.5000 0.5000 0.5000
Mn1_3 Mn -0.5000 0.5000 0.0000
Mn2B Mn 0.44326(6) 0.27578(4) -0.14858(4)
Mn2A Mn 1.44326(6) 0.72422(4) 0.35142(4)
Mn2_2 Mn 1.55674(6) 0.72422(4) 0.14858(4)
Mn2A_2 Mn 0.44326(6) -0.27578(4) 0.35142(4)
Mn2_3 Mn 0.55674(6) -0.27578(4) 0.14858(4)
Mn2C Mn 0.55674(6) 0.27578(4) 0.64858(4)
Mn2C_2 Mn -0.44326(6) 0.27578(4) -0.35142(4)
Mn2B_2 Mn -0.55674(6) 0.27578(4) -0.14858(4)
O1B O 0.3284(3) 0.4148(2) -0.1173(2)
O2B O 0.1966(3) 0.2718(2) -0.1480(2)
O3B O -0.3508(3) 0.3079(2) -0.1852(2)
O3A O 0.6492(3) 0.6921(2) 0.3148(2)
O3_2 O 0.3508(3) 0.6921(2) 0.1852(2)
O3C O 0.3508(3) 0.3079(2) -0.3148(2)
O3B_2 O 0.6492(3) 0.3079(2) -0.1852(2)
O4B O -0.3768(3) 0.4325(3) -0.0861(2)
O4_2 O 0.3768(3) 0.5675(3) 0.0861(2)
O4B_2 O 0.6232(3) 0.4325(3) -0.0861(2)
O5B O -0.1311(4) 0.7667(3) -0.1201(4)
O6B O 0.0970(4) 0.7605(3) -0.1145(4)
C1B C 0.0804(4) 0.4321(3) -0.1290(2)
C2B C -0.0502(4) 0.3831(3) -0.1358(3)
C3B C -0.1688(4) 0.4427(3) -0.1350(2)
C4B C -0.1578(4) 0.5515(3) -0.1289(3)
C5B C -0.0300(4) 0.6005(3) -0.1254(3)
C6B C 0.0906(4) 0.5397(3) -0.1249(3)
C7B C 0.2073(4) 0.3686(3) -0.1307(3)
C8B C -0.3072(4) 0.3919(3) -0.1356(3)
C9B C -0.0143(5) 0.7159(3) -0.1192(4)
O7A O 0.5490(3) -0.1176(2) 0.1888(2)
O7A_2 O 0.5490(3) 0.8824(2) 0.1888(2)
O7C O 0.4510(3) 0.1176(2) -0.1888(2)
O8A O 0.4866(3) 0.2194(2) 0.4993(2)
O8B O 0.4866(3) 0.7806(2) -0.0007(2)
O9A O 0.4706(4) 0.3667(2) 0.4112(2)
O9B O 0.4706(4) 0.6333(2) -0.0888(2)
C11A C 0.4877(4) 0.0992(3) 0.3320(3)
C12A C 0.4889(4) 0.2084(3) 0.3320(3)
C15A C 0.4803(4) 0.2697(3) 0.4205(3)
Na1B Na 0.1739(4) 0.0610(3) -0.1708(3)
H1B H -0.1279 0.8450 -0.1234
H2B H -0.0584 0.3050 -0.1413
H3B H -0.2428 0.5943 -0.1271
H4B H 0.1838 0.5747 -0.1217
H5A H 0.4782 0.0599 0.3906
O10 O 0.2545(4) 0.0741(3) 0.4949(3)
O11 O 0.1221(6) 0.0180(3) 0.1292(4)
O12? O 0.1243(6) -0.0673(5) 0.3409(6)
loop_
_geom_bond_atom_site_label_1
_geom_bond_atom_site_label_2
_geom_bond_site_symmetry_1
_geom_bond_site_symmetry_2
Mn1 O1 1_555 1_555
Mn2 O1 1_555 1_555
O1 C7 1_555 1_555
O2 Mn2 1_555 1_555
O3 C8 1_555 1_555
O4 C8 1_555 1_555
O5 C9 1_555 1_555
O6 C9 1_555 1_555
C1 C2 1_555 1_555
C2 C3 1_555 1_555
C3 C4 1_555 1_555
C4 C5 1_555 1_555
C5 C6 1_555 1_555
C6 C1 1_555 1_555
C7 O2 1_555 1_555
C8 C3 1_555 1_555
C9 C5 1_555 1_555
O7 C14 1_555 1_555
O8 C15 1_555 1_555
O9 Mn1 1_555 1_555
C10 C11 1_555 1_555
C11 C12 1_555 1_555
C12 C13 1_555 1_555
C13 H6 1_555 1_555
C14 C10 1_555 1_555
C15 O9 1_555 1_555
Na1 O2 1_555 1_555
H1 O5 1_555 1_555
H2 C2 1_555 1_555
H3 C4 1_555 1_555
H4 C6 1_555 1_555
H5 C11 1_555 1_555
Mn1_2 O4 1_555 1_555
Mn1A O9A 1_555 1_555
Mn1_3 O4B 1_555 1_555
Mn2B O8 1_555 1_555
Mn2A O3 1_555 1_555
Mn2_2 O3 1_555 1_555
Mn2A_2 O7 1_555 1_555
Mn2_3 O7A 1_555 1_555
Mn2C O8A 1_555 1_555
Mn2C_2 O3B 1_555 1_555
Mn2B_2 O3B 1_555 1_555
O1B Mn1 1_555 1_555
O2B Mn2B 1_555 1_555
O3B C8B 1_555 1_555
O3A Mn2 1_555 1_555
O3_2 Mn2 1_555 1_555
O3C Mn2B 1_555 1_555
O3B_2 Mn2B 1_555 1_555
O4B Mn2B_2 1_555 1_555
O4_2 Mn1 1_555 1_555
O4B_2 Mn1 1_555 1_555
O5B C9B 1_555 1_555
O6B C9B 1_555 1_555
C1B C2B 1_555 1_555
C2B C3B 1_555 1_555
C3B C4B 1_555 1_555
C4B C5B 1_555 1_555
C5B C6B 1_555 1_555
C6B C1B 1_555 1_555
C7B O1B 1_555 1_555
C8B O4B 1_555 1_555
C9B C5B 1_555 1_555
O7A C14 1_555 1_555
O7A_2 Mn2 1_555 1_555
O7C Mn2B 1_555 1_555
O8A C15A 1_555 1_555
O8B Mn2 1_555 1_555
O9A C15A 1_555 1_555
O9B Mn1 1_555 1_555
C11A C10 1_555 1_555
C12A C13 1_555 1_555
C15A C12A 1_555 1_555
Na1B O2B 1_555 1_555
H1B O5B 1_555 1_555
H2B C2B 1_555 1_555
H3B C4B 1_555 1_555
H4B C6B 1_555 1_555
H5A C11A 1_555 1_555
Mn2 O4_2 1_555 1_555
O4 Mn2_2 1_555 1_555
C1 C7 1_555 1_555
C12 C15 1_555 1_555
Mn2B O1B 1_555 1_555
Mn2B O4B_2 1_555 1_555
O2B C7B 1_555 1_555
C1B C7B 1_555 1_555
C3B C8B 1_555 1_555
C11A C12A 1_555 1_555

#END
