
#######################################################################
#
#                 Cambridge Crystallographic Data Centre
#                                CCDC 
#
#######################################################################
#
# If this CIF has been generated from an entry in the Cambridge 
# Structural Database, then it will include bibliographic, chemical, 
# crystal, experimental, refinement or atomic coordinate data resulting 
# from the CCDC's data processing and validation procedures.
#
#######################################################################

data_PUWYOW
_symmetry_cell_setting           triclinic
_symmetry_space_group_name_H-M   'P -1'
_symmetry_Int_Tables_number      2
_space_group_name_Hall           '-P 1'
loop_
_symmetry_equiv_pos_site_id
_symmetry_equiv_pos_as_xyz
1 x,y,z
2 -x,-y,-z
_cell_length_a                   11.968(2)
_cell_length_b                   12.369(3)
_cell_length_c                   14.349(3)
_cell_angle_alpha                97.20(3)
_cell_angle_beta                 112.67(3)
_cell_angle_gamma                101.36(3)
_cell_volume                     1873.45
loop_
_atom_site_label
_atom_site_type_symbol
_atom_site_fract_x
_atom_site_fract_y
_atom_site_fract_z
Mn1 Mn 0.57585(6) 0.57976(5) 0.11521(4)
Mn2 Mn 0.66321(6) 0.62627(6) -0.07465(4)
Cu1 Cu 0.5000 0.5000 -0.5000
Cu2 Cu 1.0000 1.0000 0.0000
O1 O 0.8597(3) 0.8749(3) -0.0169(2)
O2 O 0.6668(3) 0.7775(3) -0.1298(2)
O3 O 0.7133(3) 0.5725(3) -0.2004(2)
O4 O 0.5493(3) 0.5032(3) -0.3537(2)
O5 O 0.6345(3) 0.6954(3) 0.0582(2)
O6 O 0.6023(3) 0.4751(2) -0.0118(2)
O7 O 0.4701(3) 0.5453(3) -0.1676(2)
N1 N 0.6724(3) 0.5968(3) -0.4515(3)
N2 N 0.8921(4) 0.9954(3) -0.1465(3)
N3 N 0.5447(3) 0.7288(3) 0.1954(3)
N4 N 0.2509(3) 0.4152(3) -0.2296(2)
N5 N 0.8383(3) 0.5888(3) 0.0223(3)
C1 C 0.7350(4) 0.6180(4) -0.3484(3)
C2 C 0.6611(4) 0.5611(4) -0.2959(3)
C3 C 0.2513(4) 0.5054(4) -0.2731(3)
C4 C 0.7794(4) 0.9186(4) -0.1820(3)
C5 C 0.6901(4) 0.8981(4) -0.2823(3)
H1 H 0.6126 0.8420 -0.3054
C6 C 0.1414(4) 0.3358(4) -0.2579(3)
H2 H 0.1417 0.2715 -0.2280
C7 C 0.3780(4) 0.5861(4) -0.2392(3)
H3 H 0.3788 0.6618 -0.2065
H4 H 0.3966 0.5932 -0.3000
C8 C 0.0290(4) 0.4397(5) -0.3712(4)
H5 H -0.0481 0.4482 -0.4190
C9 C 0.9296(5) 0.4601(4) 0.1175(4)
H6 H 0.9198 0.3905 0.1388
C10 C 0.8550(4) 0.6897(4) -0.2961(4)
H7 H 0.8980 0.7033 -0.2229
C11 C 1.0477(5) 0.5315(5) 0.1490(4)
H8 H 1.1199 0.5119 0.1928
C12 C 0.7663(4) 0.8521(4) -0.1034(3)
C13 C 0.9179(5) 1.0535(4) -0.2114(4)
H9 H 0.9974 1.1069 -0.1875
C14 C 1.0603(5) 0.6314(5) 0.1164(4)
H10 H 1.1407 0.6822 0.1376
C15 C 0.7154(5) 0.9605(5) -0.3485(4)
H11 H 0.6543 0.9507 -0.4173
C16 C 0.9534(4) 0.6553(4) 0.0527(3)
H12 H 0.9620 0.7234 0.0288
C17 C 0.9106(5) 0.7412(5) -0.3536(4)
H13 H 0.9932 0.7905 -0.3203
C18 C 0.1407(4) 0.5211(5) -0.3441(4)
H14 H 0.1417 0.5859 -0.3733
C19 C 0.8453(5) 0.7203(5) -0.4591(4)
H15 H 0.8816 0.7561 -0.4995
C20 C 0.8248(4) 0.4905(4) 0.0543(3)
C21 C 0.6937(4) 0.4144(4) 0.0148(4)
H16 H 0.6871 0.3744 0.0689
H17 H 0.6772 0.3568 -0.0468
C22 C 0.8315(5) 1.0376(5) -0.3125(4)
H18 H 0.8520 1.0798 -0.3574
C23 C 0.0311(5) 0.3460(5) -0.3280(4)
H19 H -0.0445 0.2888 -0.3473
C24 C 0.7267(5) 0.6469(5) -0.5060(4)
H20 H 0.6825 0.6316 -0.5793
C27 C 0.5699(4) 0.8198(4) 0.1575(3)
C28 C 0.5007(5) 0.7381(5) 0.2693(4)
H24 H 0.4797 0.6732 0.2945
C29 C 0.6137(5) 0.8036(4) 0.0747(4)
H25 H 0.5500 0.8129 0.0095
H26 H 0.6927 0.8625 0.0937
C30 C 0.5548(5) 0.9228(4) 0.1924(4)
H27 H 0.5729 0.9860 0.1641
C31 C 0.5123(6) 0.9318(5) 0.2702(5)
H28 H 0.5018 1.0017 0.2964
C32 C 0.4857(6) 0.8382(5) 0.3085(4)
H29 H 0.4571 0.8430 0.3618
Mn1A Mn 0.42415(6) 0.42024(5) -1.11521(4)
Mn1A_2 Mn 0.42415(6) 0.42024(5) -0.11521(4)
Mn1_2 Mn 0.57585(6) 0.57976(5) -0.88479(4)
Mn2A Mn 0.33679(6) 0.37373(6) -0.92535(4)
Cu2_2 Cu 0.0000 0.0000 -1.0000
O1A O 0.1403(3) 0.1251(3) -0.9831(2)
O1A_2 O 1.1403(3) 1.1251(3) 0.0169(2)
O2A O 0.3332(3) 0.2225(3) -0.8702(2)
O3A O 0.2867(3) 0.4275(3) -0.7996(2)
O4A O 0.4507(3) 0.4968(3) -0.6463(2)
O5A O 0.3655(3) 0.3046(3) -1.0582(2)
O6A O 0.3977(3) 0.5249(2) -0.9882(2)
O6A_2 O 0.3977(3) 0.5249(2) 0.0118(2)
O6_2 O 0.6023(3) 0.4751(2) -1.0118(2)
O7A O 0.5299(3) 0.4547(3) -0.8324(2)
O7A_2 O 0.5299(3) 0.4547(3) 0.1676(2)
O7_2 O 0.4701(3) 0.5453(3) -1.1676(2)
N1A N 0.3276(3) 0.4032(3) -0.5485(3)
N2A N 0.1079(4) 0.0046(3) -0.8535(3)
N2A_2 N 1.1079(4) 1.0046(3) 0.1465(3)
N3A N 0.4553(3) 0.2712(3) -1.1954(3)
N4A N 0.7491(3) 0.5848(3) -0.7704(2)
N4A_2 N 0.7491(3) 0.5848(3) 0.2296(2)
N4_2 N 0.2509(3) 0.4152(3) -1.2296(2)
N5A N 0.1617(3) 0.4112(3) -1.0223(3)
C1A C 0.2650(4) 0.3820(4) -0.6516(3)
C2A C 0.3389(4) 0.4389(4) -0.7041(3)
C3A C 0.7487(4) 0.4946(4) -0.7269(3)
C4A C 0.2206(4) 0.0814(4) -0.8180(3)
C5A C 0.3099(4) 0.1019(4) -0.7177(3)
H1A H 0.3874 0.1580 -0.6946
C6A C 0.8586(4) 0.6642(4) -0.7421(3)
H2A H 0.8583 0.7285 -0.7720
C7A C 0.6220(4) 0.4139(4) -0.7608(3)
H3A H 0.6212 0.3382 -0.7935
H4A H 0.6034 0.4068 -0.7000
C8A C 0.9710(4) 0.5603(5) -0.6288(4)
H5A H 1.0481 0.5518 -0.5810
C9A C 0.0704(5) 0.5399(4) -1.1175(4)
H6A H 0.0802 0.6095 -1.1388
C10A C 0.1450(4) 0.3103(4) -0.7039(4)
H7A H 0.1020 0.2967 -0.7771
C11A C -0.0477(5) 0.4685(5) -1.1490(4)
H8A H -0.1199 0.4881 -1.1928
C12A C 0.2337(4) 0.1479(4) -0.8966(3)
C13A C 0.0821(5) -0.0535(4) -0.7886(4)
H9A H 0.0026 -0.1069 -0.8125
C14A C -0.0603(5) 0.3686(5) -1.1164(4)
H10A H -0.1407 0.3178 -1.1376
C15A C 0.2846(5) 0.0395(5) -0.6515(4)
H11A H 0.3457 0.0493 -0.5827
C16A C 0.0466(4) 0.3447(4) -1.0527(3)
H12A H 0.0380 0.2766 -1.0288
C17A C 0.0894(5) 0.2588(5) -0.6464(4)
H13A H 0.0068 0.2095 -0.6797
C18A C 0.8593(4) 0.4789(5) -0.6559(4)
H14A H 0.8583 0.4141 -0.6267
C19A C 0.1547(5) 0.2797(5) -0.5409(4)
H15A H 0.1184 0.2439 -0.5005
C20A C 0.1752(4) 0.5095(4) -1.0543(3)
C21A C 0.3063(4) 0.5856(4) -1.0148(4)
H16A H 0.3129 0.6256 -1.0689
H17A H 0.3228 0.6432 -0.9532
C22A C 0.1685(5) -0.0376(5) -0.6875(4)
H18A H 0.1480 -0.0798 -0.6426
C23A C 0.9689(5) 0.6540(5) -0.6720(4)
H19A H 1.0445 0.7112 -0.6527
C24A C 0.2733(5) 0.3531(5) -0.4940(4)
H20A H 0.3175 0.3684 -0.4207
C27A C 0.4301(4) 0.1802(4) -1.1575(3)
C28A C 0.4993(5) 0.2619(5) -1.2693(4)
H24A H 0.5203 0.3268 -1.2945
C29A C 0.3863(5) 0.1964(4) -1.0747(4)
H25A H 0.4500 0.1871 -1.0095
H26A H 0.3073 0.1375 -1.0937
C30A C 0.4452(5) 0.0772(4) -1.1924(4)
H27A H 0.4271 0.0140 -1.1641
C31A C 0.4877(6) 0.0682(5) -1.2702(5)
H28A H 0.4982 -0.0017 -1.2964
C32A C 0.5143(6) 0.1618(5) -1.3085(4)
H29A H 0.5429 0.1570 -1.3618
Cl1 Cl 0.65846(10) 0.27729(10) 0.50842(8)
O8 O 0.6244(4) 0.1568(3) 0.4967(3)
O9 O 0.7257(4) 0.3322(4) 0.6162(3)
O10 O 0.7357(4) 0.3071(4) 0.4558(3)
O12 O 0.5456(4) 0.3119(3) 0.4649(3)
Cl2 Cl -0.19566(13) 0.11850(12) 0.09377(12)
O11 O -0.0946(4) 0.1525(4) 0.0647(3)
O13 O -0.2143(5) 0.2129(4) 0.1456(4)
O14 O -0.1577(4) 0.0483(3) 0.1682(3)
O15 O -0.3067(4) 0.0535(4) 0.0072(4)
C25 C -0.1686(6) 0.0908(5) 0.4034(5)
H21 H -0.1979 0.1171 0.3386
H22 H -0.0972 0.1496 0.4571
H23 H -0.2369 0.0747 0.4255
C26 C -0.1303(6) -0.0099(6) 0.3872(5)
N6 N -0.0972(7) -0.0882(6) 0.3756(5)
loop_
_geom_bond_atom_site_label_1
_geom_bond_atom_site_label_2
_geom_bond_site_symmetry_1
_geom_bond_site_symmetry_2
Mn1 O5 1_555 1_555
Mn2 O2 1_555 1_555
Cu1 O4 1_555 1_555
Cu2 O1 1_555 1_555
O1 C12 1_555 1_555
O2 C12 1_555 1_555
O3 Mn2 1_555 1_555
O4 C2 1_555 1_555
O5 Mn2 1_555 1_555
O6 Mn1 1_555 1_555
O7 Mn2 1_555 1_555
N1 Cu1 1_555 1_555
N2 Cu2 1_555 1_555
N3 Mn1 1_555 1_555
N4 C3 1_555 1_555
N5 Mn2 1_555 1_555
C1 N1 1_555 1_555
C2 O3 1_555 1_555
C3 C7 1_555 1_555
C4 N2 1_555 1_555
C5 C4 1_555 1_555
H1 C5 1_555 1_555
C6 N4 1_555 1_555
H2 C6 1_555 1_555
C7 O7 1_555 1_555
H3 C7 1_555 1_555
H4 C7 1_555 1_555
C8 H5 1_555 1_555
C9 H6 1_555 1_555
C10 C1 1_555 1_555
H7 C10 1_555 1_555
C11 C9 1_555 1_555
H8 C11 1_555 1_555
C12 C4 1_555 1_555
C13 N2 1_555 1_555
H9 C13 1_555 1_555
C14 C11 1_555 1_555
H10 C14 1_555 1_555
C15 C5 1_555 1_555
H11 C15 1_555 1_555
C16 N5 1_555 1_555
H12 C16 1_555 1_555
C17 C10 1_555 1_555
H13 C17 1_555 1_555
C18 C3 1_555 1_555
H14 C18 1_555 1_555
C19 C17 1_555 1_555
H15 C19 1_555 1_555
C20 N5 1_555 1_555
C21 O6 1_555 1_555
H16 C21 1_555 1_555
H17 C21 1_555 1_555
C22 C13 1_555 1_555
H18 C22 1_555 1_555
C23 C6 1_555 1_555
H19 C23 1_555 1_555
C24 N1 1_555 1_555
H20 C24 1_555 1_555
Cl1 O8 1_555 1_555
Cl2 O11 1_555 1_555
O9 Cl1 1_555 1_555
O10 Cl1 1_555 1_555
O12 Cl1 1_555 1_555
O13 Cl2 1_555 1_555
O14 Cl2 1_555 1_555
O15 Cl2 1_555 1_555
C25 H21 1_555 1_555
H22 C25 1_555 1_555
H23 C25 1_555 1_555
C26 C25 1_555 1_555
N6 C26 1_555 1_555
C27 N3 1_555 1_555
C28 N3 1_555 1_555
H24 C28 1_555 1_555
C29 O5 1_555 1_555
H25 C29 1_555 1_555
H26 C29 1_555 1_555
C30 C27 1_555 1_555
H27 C30 1_555 1_555
C31 C30 1_555 1_555
H28 C31 1_555 1_555
C32 C28 1_555 1_555
H29 C32 1_555 1_555
Mn1A O5A 1_555 1_555
Mn1A_2 O6 1_555 1_555
Mn1_2 O6A 1_555 1_555
Mn2A O2A 1_555 1_555
Cu2_2 O1A 1_555 1_555
O1A C12A 1_555 1_555
O1A_2 Cu2 1_555 1_555
O2A C12A 1_555 1_555
O3A Mn2A 1_555 1_555
O4A Cu1 1_555 1_555
O5A Mn2A 1_555 1_555
O6A Mn1A 1_555 1_555
O6A_2 Mn1 1_555 1_555
O6_2 Mn1A 1_555 1_555
O7A Mn1_2 1_555 1_555
O7A_2 Mn1 1_555 1_555
O7_2 Mn1A 1_555 1_555
N1A Cu1 1_555 1_555
N2A Cu2_2 1_555 1_555
N2A_2 Cu2 1_555 1_555
N3A Mn1A 1_555 1_555
N4A Mn1_2 1_555 1_555
N4A_2 Mn1 1_555 1_555
N4_2 Mn1A 1_555 1_555
N5A Mn2A 1_555 1_555
C1A N1A 1_555 1_555
C2A O3A 1_555 1_555
C3A N4A 1_555 1_555
C4A N2A 1_555 1_555
C5A C4A 1_555 1_555
H1A C5A 1_555 1_555
C6A N4A 1_555 1_555
H2A C6A 1_555 1_555
C7A O7A 1_555 1_555
H3A C7A 1_555 1_555
H4A C7A 1_555 1_555
C8A H5A 1_555 1_555
C9A H6A 1_555 1_555
C10A C1A 1_555 1_555
H7A C10A 1_555 1_555
C11A C9A 1_555 1_555
H8A C11A 1_555 1_555
C12A C4A 1_555 1_555
C13A N2A 1_555 1_555
H9A C13A 1_555 1_555
C14A C11A 1_555 1_555
H10A C14A 1_555 1_555
C15A C5A 1_555 1_555
H11A C15A 1_555 1_555
C16A N5A 1_555 1_555
H12A C16A 1_555 1_555
C17A C10A 1_555 1_555
H13A C17A 1_555 1_555
C18A C3A 1_555 1_555
H14A C18A 1_555 1_555
C19A C17A 1_555 1_555
H15A C19A 1_555 1_555
C20A N5A 1_555 1_555
C21A O6A 1_555 1_555
H16A C21A 1_555 1_555
H17A C21A 1_555 1_555
C22A C13A 1_555 1_555
H18A C22A 1_555 1_555
C23A C6A 1_555 1_555
H19A C23A 1_555 1_555
C24A N1A 1_555 1_555
H20A C24A 1_555 1_555
C27A N3A 1_555 1_555
C28A N3A 1_555 1_555
H24A C28A 1_555 1_555
C29A O5A 1_555 1_555
H25A C29A 1_555 1_555
H26A C29A 1_555 1_555
C30A C27A 1_555 1_555
H27A C30A 1_555 1_555
C31A C30A 1_555 1_555
H28A C31A 1_555 1_555
C32A C28A 1_555 1_555
H29A C32A 1_555 1_555
Mn2 O6 1_555 1_555
O7 Mn1A_2 1_555 1_555
N4 Mn1A_2 1_555 1_555
C1 C2 1_555 1_555
C8 C18 1_555 1_555
C8 C23 1_555 1_555
C9 C20 1_555 1_555
C14 C16 1_555 1_555
C15 C22 1_555 1_555
C19 C24 1_555 1_555
C20 C21 1_555 1_555
C27 C29 1_555 1_555
C31 C32 1_555 1_555
Mn1A_2 O6A_2 1_555 1_555
Mn1_2 O6_2 1_555 1_555
Mn2A O6A 1_555 1_555
Mn2A O7A 1_555 1_555
O4A C2A 1_555 1_555
C1A C2A 1_555 1_555
C3A C7A 1_555 1_555
C8A C18A 1_555 1_555
C8A C23A 1_555 1_555
C9A C20A 1_555 1_555
C14A C16A 1_555 1_555
C15A C22A 1_555 1_555
C19A C24A 1_555 1_555
C20A C21A 1_555 1_555
C27A C29A 1_555 1_555
C31A C32A 1_555 1_555

#END
