
#######################################################################
#
#                 Cambridge Crystallographic Data Centre
#                                CCDC 
#
#######################################################################
#
# If this CIF has been generated from an entry in the Cambridge 
# Structural Database, then it will include bibliographic, chemical, 
# crystal, experimental, refinement or atomic coordinate data resulting 
# from the CCDC's data processing and validation procedures.
#
#######################################################################

data_PUWYAI
_symmetry_cell_setting           triclinic
_symmetry_space_group_name_H-M   'P -1'
_symmetry_Int_Tables_number      2
_space_group_name_Hall           '-P 1'
loop_
_symmetry_equiv_pos_site_id
_symmetry_equiv_pos_as_xyz
1 x,y,z
2 -x,-y,-z
_cell_length_a                   12.260(5)
_cell_length_b                   12.366(6)
_cell_length_c                   19.101(9)
_cell_angle_alpha                78.180(16)
_cell_angle_beta                 84.625(16)
_cell_angle_gamma                89.511(17)
_cell_volume                     2821.81
loop_
_atom_site_label
_atom_site_type_symbol
_atom_site_fract_x
_atom_site_fract_y
_atom_site_fract_z
Co1 Co 0.43157(13) 1.25782(14) 0.31433(8)
Co2 Co 0.41494(12) 1.12225(13) 0.19077(7)
Co3 Co 0.21464(12) 1.12429(13) 0.30827(7)
Co4 Co 0.27626(12) 1.34094(13) 0.18923(7)
Co5 Co -0.19019(13) 1.13936(16) 0.42317(8)
Co6 Co 0.62662(13) 1.23308(13) -0.07874(8)
O1 O 0.4394(6) 1.2873(6) 0.2015(4)
O2 O 0.3842(6) 1.0970(7) 0.3030(4)
O3 O 0.2647(6) 1.2855(7) 0.3025(4)
O4 O 0.5712(7) 1.1847(7) 0.3540(4)
O5 O 0.4003(8) 1.3086(9) 0.4116(4)
O6 O 0.5319(7) 1.3994(7) 0.2828(4)
O7 O 0.2545(6) 1.1703(6) 0.1953(4)
O8 O 0.5405(6) 1.0163(7) 0.2252(4)
O9 O 0.5112(6) 1.1676(7) 0.0921(4)
O10 O 0.3596(6) 0.9829(7) 0.1543(4)
O11 O 0.0586(6) 1.1752(7) 0.3418(4)
O12 O 0.2078(7) 1.0121(8) 0.4075(4)
O13 O 0.1286(7) 1.0074(7) 0.2712(4)
O14 O 0.1355(7) 1.4181(7) 0.2219(4)
O15 O 0.3412(7) 1.4992(7) 0.1556(4)
O16 O 0.2177(6) 1.3621(7) 0.0889(4)
O17 O -0.0491(7) 1.2271(9) 0.4292(4)
O18 O 0.2504(7) 0.8474(7) 0.4730(4)
O19 O 0.6645(7) 1.0522(8) 0.4212(4)
O20 O -0.2628(8) 1.2963(8) 0.3865(5)
O21 O -0.1417(8) 1.1244(10) 0.3153(5)
O22 O -0.1169(12) 0.9837(11) 0.4615(5)
O23 O 0.6631(7) 1.2396(7) 0.0280(4)
O24 O 0.4504(7) 1.6203(7) 0.0787(4)
O25 O 0.2928(6) 0.9188(7) 0.0657(4)
O26 O 0.5893(7) 1.2286(7) -0.1836(4)
O27 O 0.4654(6) 1.1668(7) -0.0396(4)
O28 O 0.7773(6) 1.3146(7) -0.1216(4)
O29 O 0.0640(7) 0.9628(7) 0.1762(4)
O30 O 0.6417(7) 1.4952(7) 0.1928(4)
O31 O 0.0952(6) 1.3291(7) 0.0169(4)
O32 O 0.3445(10) 1.4385(12) 0.4715(6)
O33 O 0.5848(7) 0.8810(9) 0.3157(4)
O34 O 0.0355(8) 1.4655(9) 0.3147(5)
C1 C 0.5973(10) 1.2218(11) 0.0843(6)
C2 C 0.6243(10) 1.2770(10) 0.1468(6)
H1 H 0.6926 1.3214 0.1327
H2 H 0.6360 1.2192 0.1896
C3 C 0.5280(9) 1.3530(9) 0.1656(6)
C4 C 0.4987(9) 1.4281(11) 0.0964(6)
H3 H 0.4601 1.3843 0.0682
H4 H 0.5667 1.4588 0.0673
C5 C 0.4257(10) 1.5228(10) 0.1121(6)
C6 C 0.5718(10) 1.4236(11) 0.2171(6)
C7 C 0.1352(9) 1.3122(9) 0.0768(5)
C8 C 0.0872(9) 1.2142(9) 0.1359(6)
H5 H 0.0587 1.2423 0.1790
H6 H 0.0252 1.1801 0.1182
C9 C 0.1748(9) 1.1255(9) 0.1569(5)
C10 C 0.2314(9) 1.0928(9) 0.0869(5)
H7 H 0.1745 1.0800 0.0559
H8 H 0.2787 1.1549 0.0599
C11 C 0.2988(9) 0.9917(9) 0.1034(6)
C12 C 0.1164(9) 1.0262(10) 0.2043(5)
C13 C 0.2591(10) 0.9237(12) 0.4170(5)
C14 C 0.3467(9) 0.9027(11) 0.3555(6)
H9 H 0.3834 0.8314 0.3710
H10 H 0.3103 0.8993 0.3118
C15 C 0.4312(10) 0.9969(11) 0.3388(6)
C16 C 0.4784(9) 1.0138(9) 0.4079(6)
H11 H 0.4978 0.9410 0.4360
H12 H 0.4209 1.0458 0.4373
C17 C 0.5807(10) 1.0902(11) 0.3935(6)
C18 C 0.5273(10) 0.9642(12) 0.2898(6)
C19 C 0.0416(9) 1.2262(11) 0.3925(6)
C20 C 0.1365(10) 1.2900(12) 0.4087(6)
H13 H 0.1873 1.2380 0.4355
H14 H 0.1092 1.3413 0.4398
C21 C 0.1999(9) 1.3570(10) 0.3391(6)
C22 C 0.2721(11) 1.4466(13) 0.3575(7)
H15 H 0.2254 1.5038 0.3741
H16 H 0.3195 1.4824 0.3143
C23 C 0.3443(11) 1.3911(16) 0.4182(7)
C24 C 0.1159(11) 1.4209(11) 0.2888(6)
Na1 Na 0.7760(4) 0.8055(4) 0.1537(2)
Na2 Na 0.7994(4) 1.0818(4) 0.0431(2)
Na3 Na 0.0000 1.5000 0.0000
Na4 Na 0.5000 1.5000 0.5000
Na5 Na 0.376(2) 1.292(2) 0.5953(12)
Na6 Na -0.042(2) 1.536(2) 0.4186(13)
O35 O 0.9196(7) 0.9275(7) 0.0810(4)
O36 O 0.6613(6) 0.9568(7) 0.1099(4)
O37 O 0.7100(7) 0.6849(7) 0.0783(4)
O38 O 0.8006(8) 0.9038(9) 0.2561(5)
O39 O 0.6169(8) 0.7066(10) 0.2289(5)
O40 O 0.8950(9) 0.6645(8) 0.1996(6)
O41 O 0.9306(7) 1.2099(7) -0.0215(4)
O42 O 0.8269(8) 1.1096(8) 0.1583(5)
O43 O -0.0180(8) 1.4974(10) 0.1251(5)
O44 O 0.1905(7) 1.5619(8) -0.0145(4)
O45 O 0.4172(11) 1.4744(11) 0.6197(6)
O46 O 0.5466(12) 1.3013(12) 0.5177(8)
O47 O -0.2045(14) 1.6357(17) 0.3565(10)
O48 O 0.2849(13) 1.1850(14) 0.5575(8)
O49 O 0.070(2) 1.675(3) 0.3812(14)
O50 O -0.185(2) 1.409(3) 0.4948(15)
Co1A Co -0.43157(13) 0.74218(14) 0.68567(8)
Co2A Co -0.41494(12) 0.87775(13) 0.80923(7)
Co3A Co -0.21464(12) 0.87571(13) 0.69173(7)
Co4A Co -0.27626(12) 0.65906(13) 0.81077(7)
Co5A Co 0.19019(13) 0.86064(16) 0.57683(8)
Co5_2 Co 0.80981(13) 1.13936(16) 0.42317(8)
Co5A_2 Co -0.80981(13) 0.86064(16) 0.57683(8)
Co6A Co -0.62662(13) 0.76692(13) 1.07874(8)
Co6_2 Co -0.37338(13) 0.23308(13) 0.92126(8)
Co6_3 Co -0.37338(13) 1.23308(13) 0.92126(8)
Co6A_2 Co 0.37338(13) 0.76692(13) 0.07874(8)
Co6A_3 Co 0.37338(13) 1.76692(13) 0.07874(8)
O1A O -0.4394(6) 0.7127(6) 0.7985(4)
O2A O -0.3842(6) 0.9030(7) 0.6970(4)
O3A O -0.2647(6) 0.7145(7) 0.6975(4)
O4A O -0.5712(7) 0.8153(7) 0.6460(4)
O5A O -0.4003(8) 0.6914(9) 0.5884(4)
O6A O -0.5319(7) 0.6006(7) 0.7172(4)
O7A O -0.2545(6) 0.8297(6) 0.8047(4)
O8A O -0.5405(6) 0.9837(7) 0.7748(4)
O9A O -0.5112(6) 0.8324(7) 0.9079(4)
O10A O -0.3596(6) 1.0171(7) 0.8457(4)
O11A O -0.0586(6) 0.8248(7) 0.6582(4)
O12A O -0.2078(7) 0.9879(8) 0.5925(4)
O13A O -0.1286(7) 0.9926(7) 0.7288(4)
O14A O -0.1355(7) 0.5819(7) 0.7781(4)
O15A O -0.3412(7) 0.5008(7) 0.8444(4)
O16A O -0.2177(6) 0.6379(7) 0.9111(4)
O17A O 0.0491(7) 0.7729(9) 0.5708(4)
O18A O -0.2504(7) 1.1526(7) 0.5270(4)
O19A O -0.6645(7) 0.9478(8) 0.5788(4)
O19_2 O -0.3355(7) 1.0522(8) 0.4212(4)
O19A_2 O 0.3355(7) 0.9478(8) 0.5788(4)
O20A O 0.2628(8) 0.7037(8) 0.6135(5)
O21A O 0.1417(8) 0.8756(10) 0.6847(5)
O22A O 0.1169(12) 1.0163(11) 0.5385(5)
O23A O -0.6631(7) 0.7604(7) 0.9720(4)
O24A O -0.4504(7) 0.3797(7) 0.9213(4)
O24_2 O -0.5496(7) 0.6203(7) 1.0787(4)
O24A_2 O 0.5496(7) 1.3797(7) -0.0787(4)
O25A O -0.2928(6) 1.0812(7) 0.9343(4)
O25_2 O -0.7072(6) 0.9188(7) 1.0657(4)
O25A_2 O 0.7072(6) 1.0812(7) -0.0657(4)
O26A O -0.5893(7) 0.7714(7) 1.1836(4)
O27A O -0.4654(6) 0.8332(7) 1.0396(4)
O28A O -0.7773(6) 0.6854(7) 1.1216(4)
O29A O -0.0640(7) 1.0372(7) 0.8238(4)
O30A O -0.6417(7) 0.5048(7) 0.8072(4)
O31A O -0.0952(6) 0.6709(7) 0.9831(4)
O31A_2 O -0.0952(6) 1.6709(7) -0.0169(4)
O32A O -0.3445(10) 0.5615(12) 0.5285(6)
O32A_2 O 0.6555(10) 1.5615(12) 0.5285(6)
O33A O -0.5848(7) 1.1190(9) 0.6843(4)
O33_2 O -0.4152(7) 0.8810(9) 0.3157(4)
O33A_2 O 0.4152(7) 1.1190(9) 0.6843(4)
O34A O -0.0355(8) 0.5345(9) 0.6853(5)
C1A C -0.5973(10) 0.7782(11) 0.9157(6)
C2A C -0.6243(10) 0.7230(10) 0.8532(6)
H1A H -0.6926 0.6786 0.8673
H2A H -0.6360 0.7808 0.8104
C3A C -0.5280(9) 0.6470(9) 0.8344(6)
C4A C -0.4987(9) 0.5719(11) 0.9036(6)
H3A H -0.4601 0.6157 0.9318
H4A H -0.5667 0.5412 0.9327
C5A C -0.4257(10) 0.4772(10) 0.8879(6)
C6A C -0.5718(10) 0.5764(11) 0.7829(6)
C7A C -0.1352(9) 0.6878(9) 0.9232(5)
C7A_2 C -0.1352(9) 1.6878(9) -0.0768(5)
C8A C -0.0872(9) 0.7858(9) 0.8641(6)
H5A H -0.0587 0.7577 0.8210
H6A H -0.0252 0.8199 0.8818
C9A C -0.1748(9) 0.8745(9) 0.8431(5)
C10A C -0.2314(9) 0.9072(9) 0.9131(5)
H7A H -0.1745 0.9200 0.9441
H8A H -0.2787 0.8451 0.9401
C11A C -0.2988(9) 1.0083(9) 0.8966(6)
C12A C -0.1164(9) 0.9738(10) 0.7957(5)
C13A C -0.2591(10) 1.0763(12) 0.5830(5)
C14A C -0.3467(9) 1.0973(11) 0.6445(6)
H9A H -0.3834 1.1686 0.6290
H10A H -0.3103 1.1007 0.6882
C15A C -0.4312(10) 1.0031(11) 0.6612(6)
C16A C -0.4784(9) 0.9862(9) 0.5921(6)
H11A H -0.4978 1.0590 0.5640
H12A H -0.4209 0.9542 0.5627
C17A C -0.5807(10) 0.9098(11) 0.6065(6)
C18A C -0.5273(10) 1.0358(12) 0.7102(6)
C19A C -0.0416(9) 0.7738(11) 0.6075(6)
C20A C -0.1365(10) 0.7100(12) 0.5913(6)
H13A H -0.1873 0.7620 0.5645
H14A H -0.1092 0.6587 0.5602
C21A C -0.1999(9) 0.6430(10) 0.6609(6)
C22A C -0.2721(11) 0.5534(13) 0.6425(7)
H15A H -0.2254 0.4962 0.6259
H16A H -0.3195 0.5176 0.6857
C23A C -0.3443(11) 0.6089(16) 0.5818(7)
C24A C -0.1159(11) 0.5791(11) 0.7112(6)
Na1A Na -0.7760(4) 1.1945(4) 0.8463(2)
Na2A Na -0.7994(4) 0.9182(4) 0.9569(2)
Na2_2 Na -0.2006(4) 1.0818(4) 1.0431(2)
Na2A_2 Na 0.2006(4) 0.9182(4) -0.0431(2)
Na3_2 Na 0.0000 0.5000 1.0000
Na4_2 Na -0.5000 0.5000 0.5000
Na5A Na -0.376(2) 0.708(2) 0.4047(12)
Na5_2 Na -0.624(2) 1.292(2) 0.5953(12)
Na5_3 Na 0.376(2) 0.292(2) 0.5953(12)
Na5A_2 Na -0.376(2) 1.708(2) 0.4047(12)
Na5A_3 Na 0.624(2) 0.708(2) 0.4047(12)
Na6A Na 0.042(2) 0.464(2) 0.5814(13)
O35A O -0.9196(7) 1.0725(7) 0.9190(4)
O36A O -0.6613(6) 1.0432(7) 0.8901(4)
O37A O -0.7100(7) 1.3151(7) 0.9217(4)
O38A O -0.8006(8) 1.0962(9) 0.7439(5)
O39A O -0.6169(8) 1.2934(10) 0.7711(5)
O40A O -0.8950(9) 1.3355(8) 0.8004(6)
O41A O -0.9306(7) 0.7901(7) 1.0215(4)
O42A O -0.8269(8) 0.8904(8) 0.8417(5)
O43A O 0.0180(8) 1.5026(10) -0.1251(5)
O44A O -0.1905(7) 1.4381(8) 0.0145(4)
O45A O -0.4172(11) 0.5256(11) 0.3803(6)
O45A_2 O 0.5828(11) 1.5256(11) 0.3803(6)
O46A O -0.5466(12) 0.6987(12) 0.4823(8)
O46A_2 O 0.4534(12) 1.6987(12) 0.4823(8)
O47A O 0.2045(14) 0.3643(17) 0.6435(10)
O47_2 O -0.2045(14) 0.6357(17) 0.3565(10)
O47A_2 O 0.2045(14) 1.3643(17) 0.6435(10)
O48A O -0.2849(13) 0.8150(14) 0.4425(8)
O49A O -0.070(2) 0.325(3) 0.6188(14)
O50A O 0.185(2) 0.591(3) 0.5052(15)
O51 O 0.0940(8) 0.7474(9) 0.2280(5)
O52 O -0.1626(11) 1.4032(12) 0.2592(7)
O53 O -0.0325(9) 0.8736(9) 0.3570(5)
loop_
_geom_bond_atom_site_label_1
_geom_bond_atom_site_label_2
_geom_bond_site_symmetry_1
_geom_bond_site_symmetry_2
Co1 O1 1_555 1_555
Co2 O1 1_555 1_555
Co3 O2 1_555 1_555
Co4 O1 1_555 1_555
Co5 O17 1_555 1_555
Co6 O23 1_555 1_555
O1 C3 1_555 1_555
O2 Co1 1_555 1_555
O3 Co1 1_555 1_555
O4 Co1 1_555 1_555
O5 Co1 1_555 1_555
O6 Co1 1_555 1_555
O7 Co2 1_555 1_555
O8 Co2 1_555 1_555
O9 Co2 1_555 1_555
O10 Co2 1_555 1_555
O11 Co3 1_555 1_555
O12 Co3 1_555 1_555
O13 Co3 1_555 1_555
O14 Co4 1_555 1_555
O15 Co4 1_555 1_555
O16 Co4 1_555 1_555
O17 C19 1_555 1_555
O18 C13 1_555 1_555
O19 C17 1_555 1_555
O20 Co5 1_555 1_555
O21 Co5 1_555 1_555
O22 Co5 1_555 1_555
O23 C1 1_555 1_555
O24 C5 1_555 1_555
O25 C11 1_555 1_555
O26 Co6 1_555 1_555
O27 Co6 1_555 1_555
O28 Co6 1_555 1_555
O29 C12 1_555 1_555
O30 C6 1_555 1_555
O31 C7 1_555 1_555
O32 C23 1_555 1_555
O33 C18 1_555 1_555
O34 C24 1_555 1_555
C1 O9 1_555 1_555
C2 C1 1_555 1_555
H1 C2 1_555 1_555
H2 C2 1_555 1_555
C3 C2 1_555 1_555
C4 C3 1_555 1_555
H3 C4 1_555 1_555
H4 C4 1_555 1_555
C5 O15 1_555 1_555
C6 O6 1_555 1_555
C7 O16 1_555 1_555
C8 C7 1_555 1_555
H5 C8 1_555 1_555
H6 C8 1_555 1_555
C9 O7 1_555 1_555
C10 C9 1_555 1_555
H7 C10 1_555 1_555
H8 C10 1_555 1_555
C11 O10 1_555 1_555
C12 O13 1_555 1_555
C13 O12 1_555 1_555
C14 C13 1_555 1_555
H9 C14 1_555 1_555
H10 C14 1_555 1_555
C15 O2 1_555 1_555
C16 C15 1_555 1_555
H11 C16 1_555 1_555
H12 C16 1_555 1_555
C17 O4 1_555 1_555
C18 O8 1_555 1_555
C19 O11 1_555 1_555
C20 C19 1_555 1_555
H13 C20 1_555 1_555
H14 C20 1_555 1_555
C21 O3 1_555 1_555
C22 C21 1_555 1_555
H15 C22 1_555 1_555
H16 C22 1_555 1_555
C23 O5 1_555 1_555
C24 O14 1_555 1_555
Na1 O35 1_555 1_555
Na2 O23 1_555 1_555
Na3 O31 1_555 1_555
Na4 O32 1_555 1_555
Na5 O32 1_555 1_555
Na6 O34 1_555 1_555
O35 Na2 1_555 1_555
O36 Na1 1_555 1_555
O37 Na1 1_555 1_555
O38 Na1 1_555 1_555
O39 Na1 1_555 1_555
O40 Na1 1_555 1_555
O41 Na2 1_555 1_555
O42 Na2 1_555 1_555
O43 Na3 1_555 1_555
O44 Na3 1_555 1_555
O45 Na4 1_555 1_555
O46 Na4 1_555 1_555
O47 Na6 1_555 1_555
O48 Na5 1_555 1_555
O49 Na6 1_555 1_555
O50 Na6 1_555 1_555
Co1A O1A 1_555 1_555
Co2A O1A 1_555 1_555
Co3A O2A 1_555 1_555
Co4A O1A 1_555 1_555
Co5A O18 1_555 1_555
Co5_2 O19 1_555 1_555
Co5A_2 O19A 1_555 1_555
Co6A O23A 1_555 1_555
Co6_2 O24A 1_555 1_555
Co6_3 O25A 1_555 1_555
Co6A_2 O25 1_555 1_555
Co6A_3 O24 1_555 1_555
O1A C3A 1_555 1_555
O2A Co1A 1_555 1_555
O3A Co1A 1_555 1_555
O4A Co1A 1_555 1_555
O5A Co1A 1_555 1_555
O6A Co1A 1_555 1_555
O7A Co2A 1_555 1_555
O8A Co2A 1_555 1_555
O9A Co2A 1_555 1_555
O10A Co2A 1_555 1_555
O11A Co3A 1_555 1_555
O12A Co3A 1_555 1_555
O13A Co3A 1_555 1_555
O14A Co4A 1_555 1_555
O15A Co4A 1_555 1_555
O16A Co4A 1_555 1_555
O17A Co5A 1_555 1_555
O18A Co5 1_555 1_555
O19A C17A 1_555 1_555
O19_2 Co5 1_555 1_555
O19A_2 Co5A 1_555 1_555
O20A Co5A 1_555 1_555
O21A Co5A 1_555 1_555
O22A Co5A 1_555 1_555
O23A C1A 1_555 1_555
O24A C5A 1_555 1_555
O24_2 Co6A 1_555 1_555
O24A_2 Co6 1_555 1_555
O25A C11A 1_555 1_555
O25_2 Co6A 1_555 1_555
O25A_2 Co6 1_555 1_555
O26A Co6A 1_555 1_555
O27A Co6A 1_555 1_555
O28A Co6A 1_555 1_555
O29A C12A 1_555 1_555
O30A C6A 1_555 1_555
O31A C7A 1_555 1_555
O31A_2 Na3 1_555 1_555
O32A C23A 1_555 1_555
O32A_2 Na4 1_555 1_555
O33A C18A 1_555 1_555
O33_2 Na5A 1_555 1_555
O33A_2 Na5 1_555 1_555
O34A C24A 1_555 1_555
C1A O9A 1_555 1_555
C2A C1A 1_555 1_555
H1A C2A 1_555 1_555
H2A C2A 1_555 1_555
C3A C2A 1_555 1_555
C4A C3A 1_555 1_555
H3A C4A 1_555 1_555
H4A C4A 1_555 1_555
C5A O15A 1_555 1_555
C6A O6A 1_555 1_555
C7A O16A 1_555 1_555
C7A_2 O31A_2 1_555 1_555
C8A C7A 1_555 1_555
H5A C8A 1_555 1_555
H6A C8A 1_555 1_555
C9A O7A 1_555 1_555
C10A C9A 1_555 1_555
H7A C10A 1_555 1_555
H8A C10A 1_555 1_555
C11A O10A 1_555 1_555
C12A O13A 1_555 1_555
C13A O12A 1_555 1_555
C14A C13A 1_555 1_555
H9A C14A 1_555 1_555
H10A C14A 1_555 1_555
C15A O2A 1_555 1_555
C16A C15A 1_555 1_555
H11A C16A 1_555 1_555
H12A C16A 1_555 1_555
C17A O4A 1_555 1_555
C18A O8A 1_555 1_555
C19A O11A 1_555 1_555
C20A C19A 1_555 1_555
H13A C20A 1_555 1_555
H14A C20A 1_555 1_555
C21A O3A 1_555 1_555
C22A C21A 1_555 1_555
H15A C22A 1_555 1_555
H16A C22A 1_555 1_555
C23A O5A 1_555 1_555
C24A O14A 1_555 1_555
Na1A O35A 1_555 1_555
Na2A O23A 1_555 1_555
Na2_2 O25A 1_555 1_555
Na2A_2 O25 1_555 1_555
Na3_2 O31A 1_555 1_555
Na4_2 O32A 1_555 1_555
Na5A O32A 1_555 1_555
Na5_2 O33A 1_555 1_555
Na5_3 O47A 1_555 1_555
Na5A_2 O47 1_555 1_555
Na5A_3 O33 1_555 1_555
Na6A O34A 1_555 1_555
O35A Na2A 1_555 1_555
O36A Na1A 1_555 1_555
O37A Na1A 1_555 1_555
O38A Na1A 1_555 1_555
O39A Na1A 1_555 1_555
O40A Na1A 1_555 1_555
O41A Na2A 1_555 1_555
O42A Na2A 1_555 1_555
O43A Na3 1_555 1_555
O44A Na3 1_555 1_555
O45A Na4_2 1_555 1_555
O45A_2 Na4 1_555 1_555
O46A Na4_2 1_555 1_555
O46A_2 Na4 1_555 1_555
O47A Na6A 1_555 1_555
O47_2 Na5A 1_555 1_555
O47A_2 Na5 1_555 1_555
O48A Na5A 1_555 1_555
O49A Na6A 1_555 1_555
O50A Na6A 1_555 1_555
Co2 O2 1_555 1_555
Co3 O3 1_555 1_555
Co3 O7 1_555 1_555
Co4 O3 1_555 1_555
Co4 O7 1_555 1_555
C3 C6 1_555 1_555
C4 C5 1_555 1_555
C8 C9 1_555 1_555
C9 C12 1_555 1_555
C10 C11 1_555 1_555
C14 C15 1_555 1_555
C15 C18 1_555 1_555
C16 C17 1_555 1_555
C20 C21 1_555 1_555
C21 C24 1_555 1_555
C22 C23 1_555 1_555
Na2 O36 1_555 1_555
Na2 O25A_2 1_555 1_555
Na5 O45 1_555 1_555
Na5 O46 1_555 1_555
Co2A O2A 1_555 1_555
Co3A O3A 1_555 1_555
Co3A O7A 1_555 1_555
Co4A O3A 1_555 1_555
Co4A O7A 1_555 1_555
O17A C19A 1_555 1_555
O18A C13A 1_555 1_555
O25_2 Na2A 1_555 1_555
C3A C6A 1_555 1_555
C4A C5A 1_555 1_555
C8A C9A 1_555 1_555
C9A C12A 1_555 1_555
C10A C11A 1_555 1_555
C14A C15A 1_555 1_555
C15A C18A 1_555 1_555
C16A C17A 1_555 1_555
C20A C21A 1_555 1_555
C21A C24A 1_555 1_555
C22A C23A 1_555 1_555
Na2A O36A 1_555 1_555
Na5A O45A 1_555 1_555
Na5A O46A 1_555 1_555

#END
