
#######################################################################
#
#                 Cambridge Crystallographic Data Centre
#                                CCDC 
#
#######################################################################
#
# If this CIF has been generated from an entry in the Cambridge 
# Structural Database, then it will include bibliographic, chemical, 
# crystal, experimental, refinement or atomic coordinate data resulting 
# from the CCDC's data processing and validation procedures.
#
#######################################################################

data_PUXKID
_symmetry_cell_setting           triclinic
_symmetry_space_group_name_H-M   'P 1'
_symmetry_Int_Tables_number      1
_space_group_name_Hall           'P 1'
loop_
_symmetry_equiv_pos_site_id
_symmetry_equiv_pos_as_xyz
1 x,y,z
_cell_length_a                   10.7527(3)
_cell_length_b                   13.4007(4)
_cell_length_c                   13.9343(4)
_cell_angle_alpha                72.255(3)
_cell_angle_beta                 84.485(2)
_cell_angle_gamma                77.181(2)
_cell_volume                     1863.78
loop_
_atom_site_label
_atom_site_type_symbol
_atom_site_fract_x
_atom_site_fract_y
_atom_site_fract_z
C1 C 2.6051(19) -1.1528(14) 1.8313(13)
C2 C 2.5747(17) -1.0462(16) 1.8477(16)
H1 H 2.6396 -1.0088 1.8424
C3 C 2.4633(19) -1.0053(15) 1.8687(18)
H2 H 2.4452 -0.9354 1.8722
C4 C 2.3555(17) -1.0682(16) 1.8889(14)
C5 C 2.389(2) -1.1643(16) 1.8783(17)
H3 H 2.3256 -1.2043 1.8913
C6 C 2.5128(13) -1.2150(12) 1.8489(12)
H4 H 2.5298 -1.2837 1.8422
C7 C 1.9683(16) -0.9053(14) 1.6789(11)
C8 C 2.053(2) -0.8517(15) 1.6934(17)
H5 H 2.0629 -0.7887 1.6444
C9 C 2.125(2) -0.8849(16) 1.7757(15)
H6 H 2.1701 -0.8398 1.7899
C10 C 2.1284(13) -0.9809(13) 1.8348(11)
C11 C 2.0509(16) -1.0396(14) 1.8262(11)
H7 H 2.0495 -1.1050 1.8744
C12 C 1.9774(18) -1.0080(15) 1.7524(16)
H8 H 1.9272 -1.0535 1.7455
C13 C 2.7392(15) -1.3875(14) 1.3871(13)
C14 C 2.6624(17) -1.4569(14) 1.3692(13)
H9 H 2.6721 -1.5277 1.4089
C15 C 2.5765(18) -1.4176(16) 1.2940(17)
H10 H 2.5212 -1.4609 1.2908
C16 C 2.564(2) -1.3139(17) 1.2185(15)
C17 C 2.6387(19) -1.2481(16) 1.2417(15)
H11 H 2.6272 -1.1766 1.2037
C18 C 2.7298(16) -1.2863(13) 1.3200(10)
H12 H 2.7831 -1.2425 1.3256
N1 N 1.5757(15) -0.6296(13) 1.1241(12)
C19 C 1.4393(13) -0.5878(13) 1.1188(13)
C20 C 1.3697(18) -0.5968(16) 1.2129(14)
H13 H 1.2849 -0.5621 1.2156
C21 C 1.429(2) -0.6553(19) 1.2944(16)
H14 H 1.3806 -0.6669 1.3541
C22 C 1.5635(18) -0.7042(17) 1.3021(11)
H15 H 1.6002 -0.7476 1.3625
C23 C 1.6322(18) -0.6810(17) 1.2125(14)
H16 H 1.7207 -0.7017 1.2131
N2 N 1.4754(13) -0.5159(12) 0.9419(11)
C24 C 1.4369(15) -0.4646(12) 0.8515(14)
H17 H 1.4921 -0.4583 0.7953
C25 C 1.296(2) -0.4160(17) 0.8437(16)
H18 H 1.2662 -0.3797 0.7794
C26 C 1.2136(17) -0.4198(15) 0.9171(17)
H19 H 1.1281 -0.3864 0.9089
C27 C 1.2648(18) -0.4786(15) 1.0093(15)
H20 H 1.2106 -0.4868 1.0660
C28 C 1.3905(13) -0.5253(12) 1.0216(12)
N3 N 2.1271(12) -0.6626(12) 0.9372(10)
C29 C 2.0766(18) -0.6093(14) 0.8547(13)
H21 H 1.9915 -0.5753 0.8568
C30 C 2.1377(18) -0.5967(13) 0.7600(15)
H22 H 2.0903 -0.5670 0.7020
C31 C 2.263(2) -0.6270(15) 0.7529(14)
H23 H 2.3097 -0.6142 0.6923
C32 C 2.3179(18) -0.6823(16) 0.8497(15)
H24 H 2.4059 -0.7049 0.8548
C33 C 2.2407(16) -0.7013(12) 0.9339(9)
N4 N 2.2323(14) -0.7713(11) 1.1164(11)
C34 C 2.2825(15) -0.8264(12) 1.2076(10)
H25 H 2.2267 -0.8224 1.2623
C35 C 2.3946(15) -0.8834(13) 1.2312(13)
H26 H 2.4186 -0.9252 1.2959
C36 C 2.4750(19) -0.8729(17) 1.1450(16)
H27 H 2.5598 -0.9083 1.1544
C37 C 2.4412(16) -0.8157(15) 1.0479(16)
H28 H 2.4993 -0.8093 0.9935
C38 C 2.3064(16) -0.7661(13) 1.0379(13)
Cd1 Cd 2.01258(5) -0.69205(4) 1.08901(4)
Cd2 Cd 1.68675(5) -0.59756(4) 0.96889(4)
O1 O 2.0105(13) -0.8717(11) 1.0757(12)
O2 O 1.8494(10) -0.7452(9) 1.0309(9)
O3 O 2.9588(12) -1.7163(11) 1.2530(10)
O4 O 3.0513(12) -1.5781(10) 1.1920(9)
O5 O 2.8642(15) -1.5386(12) 2.0100(11)
O6 O 2.6999(13) -1.4174(10) 1.9630(11)
O7 O 1.7515(13) -0.5834(10) 1.8059(9)
O8 O 1.6414(13) -0.7122(11) 1.8676(10)
O9 O 1.7619(13) -1.0156(10) 1.2339(10)
O10 O 3.0104(13) -1.5091(14) 1.5278(11)
O11 O 2.9291(13) -1.2776(12) 1.8330(10)
O12 O 1.6837(13) -0.7793(11) 1.5298(10)
N5 N 1.9726(12) -1.1022(11) 1.2633(10)
N6 N 2.8154(13) -1.4246(12) 1.4644(10)
N7 N 2.7344(14) -1.1944(11) 1.8043(10)
N8 N 1.8714(15) -0.8641(11) 1.5940(11)
C39 C 2.8295(15) -1.2435(12) 1.8623(11)
C40 C 2.0984(13) -1.1462(12) 1.2255(11)
C41 C 1.8758(18) -1.0521(13) 1.1974(14)
C42 C 2.9998(17) -1.6357(15) 1.2622(14)
C43 C 1.8961(17) -0.8407(12) 1.0450(12)
C44 C 2.7955(16) -1.4474(15) 2.0011(13)
C45 C 1.7081(15) -0.6572(15) 1.7960(12)
C46 C 2.7824(17) -1.3046(12) 1.5795(12)
H29 H 2.8720 -1.3008 1.5715
H30 H 2.7367 -1.2446 1.5282
C47 C 2.9907(19) -1.4907(13) 1.3455(13)
H31 H 3.0814 -1.4911 1.3364
H32 H 2.9454 -1.4362 1.2899
C48 C 1.7155(12) -0.7864(12) 1.6961(10)
C49 C 2.1233(18) -1.2395(11) 1.2125(13)
H33 H 2.0617 -1.2813 1.2258
C50 C 2.7672(18) -1.4083(15) 1.5622(14)
H34 H 2.8106 -1.4678 1.6152
H35 H 2.6772 -1.4108 1.5692
C51 C 1.8880(16) -1.0277(12) 1.0842(12)
H36 H 1.8448 -1.0754 1.0662
H37 H 1.9779 -1.0483 1.0676
C52 C 2.8040(19) -1.2437(14) 1.9695(13)
H38 H 2.7133 -1.2283 1.9856
H39 H 2.8449 -1.1934 1.9857
C53 C 2.9352(19) -1.4749(14) 1.4545(11)
C54 C 1.9170(19) -0.9870(14) 1.4874(11)
H40 H 1.8303 -0.9984 1.5018
H41 H 1.9727 -1.0433 1.5352
C55 C 1.9498(15) -1.1027(11) 1.3594(11)
H42 H 2.0109 -1.1603 1.4011
H43 H 1.8653 -1.1173 1.3801
C56 C 1.9251(15) -0.8792(10) 1.4953(9)
H44 H 2.0137 -0.8722 1.4879
H45 H 1.8786 -0.8237 1.4410
C57 C 1.8416(13) -0.9176(11) 1.0150(12)
H46 H 1.8677 -0.9157 0.9459
H47 H 1.7492 -0.8991 1.0190
C58 C 2.9596(19) -1.6121(11) 1.3593(12)
H48 H 3.0072 -1.6656 1.4143
H49 H 2.8693 -1.6112 1.3733
C59 C 1.959(2) -0.9880(15) 1.3793(14)
H50 H 2.0457 -0.9773 1.3665
H51 H 1.9046 -0.9292 1.3325
C60 C 1.7532(15) -0.8119(16) 1.6004(14)
C61 C 1.7209(17) -0.6798(14) 1.6926(10)
C62 C 2.8680(17) -1.3639(15) 2.0244(12)
H52 H 2.8658 -1.3746 2.0965
H53 H 2.9567 -1.3778 2.0020
C63 C 2.7347(16) -1.2944(13) 1.6807(10)
C64 C 2.1976(19) -1.0954(14) 1.2107(16)
H54 H 2.1810 -1.0294 1.2234
C65 C 2.3162(14) -1.1296(14) 1.1801(12)
H55 H 2.3782 -1.0885 1.1699
C66 C 2.3425(17) -1.2298(15) 1.1642(13)
C67 C 2.7457(16) -1.1937(14) 1.6884(11)
C68 C 2.2196(17) -1.0276(17) 1.9257(14)
C69 C 2.2573(19) -1.2794(16) 1.1745(13)
H56 H 2.2747 -1.3438 1.1586
C70 C 2.4736(17) -1.2808(17) 1.1322(15)
Cd1_2 Cd 3.01258(5) -1.69205(4) 1.08901(4)
Cd1_3 Cd 3.01258(5) -1.69205(4) 2.08901(4)
Cd2_2 Cd 2.68675(5) -1.59756(4) 1.96889(4)
Cd2_3 Cd 1.68675(5) -0.59756(4) 1.96889(4)
O3_2 O 1.9588(12) -0.7163(11) 1.2530(10)
O4_2 O 2.0513(12) -0.5781(10) 1.1920(9)
O5_2 O 1.8642(15) -0.5386(12) 1.0100(11)
O6_2 O 1.6999(13) -0.4174(10) 0.9630(11)
O7_2 O 1.7515(13) -0.5834(10) 0.8059(9)
O8_2 O 1.6414(13) -0.7122(11) 0.8676(10)
O13 O 0.4681(7) 0.3782(7) 0.5384(7)
O14 O 0.6003(8) 0.9498(8) 0.4069(7)
O15 O 0.5310(14) 0.0657(9) 0.5214(10)
O16 O 0.4246(19) 0.8084(18) 0.4589(16)
O17 O 0.297(2) 0.107(2) 0.507(2)
loop_
_geom_bond_atom_site_label_1
_geom_bond_atom_site_label_2
_geom_bond_site_symmetry_1
_geom_bond_site_symmetry_2
C1 C2 1_555 1_555
C2 H1 1_555 1_555
C3 C2 1_555 1_555
H2 C3 1_555 1_555
C4 C3 1_555 1_555
C5 C4 1_555 1_555
H3 C5 1_555 1_555
C6 C1 1_555 1_555
H4 C6 1_555 1_555
C7 C8 1_555 1_555
C8 H5 1_555 1_555
C9 C8 1_555 1_555
H6 C9 1_555 1_555
C10 C9 1_555 1_555
C11 C10 1_555 1_555
H7 C11 1_555 1_555
C12 C7 1_555 1_555
H8 C12 1_555 1_555
C13 C14 1_555 1_555
C14 H9 1_555 1_555
C15 C14 1_555 1_555
H10 C15 1_555 1_555
C16 C15 1_555 1_555
C17 C16 1_555 1_555
H11 C17 1_555 1_555
C18 C13 1_555 1_555
H12 C18 1_555 1_555
N1 C19 1_555 1_555
C19 C20 1_555 1_555
C20 H13 1_555 1_555
C21 C20 1_555 1_555
H14 C21 1_555 1_555
C22 C21 1_555 1_555
H15 C22 1_555 1_555
C23 N1 1_555 1_555
H16 C23 1_555 1_555
N2 C24 1_555 1_555
C24 H17 1_555 1_555
C25 C24 1_555 1_555
H18 C25 1_555 1_555
C26 C25 1_555 1_555
H19 C26 1_555 1_555
C27 C26 1_555 1_555
H20 C27 1_555 1_555
C28 C19 1_555 1_555
N3 C29 1_555 1_555
C29 H21 1_555 1_555
C30 C29 1_555 1_555
H22 C30 1_555 1_555
C31 C30 1_555 1_555
H23 C31 1_555 1_555
C32 C31 1_555 1_555
H24 C32 1_555 1_555
C33 N3 1_555 1_555
N4 C34 1_555 1_555
C34 H25 1_555 1_555
C35 C34 1_555 1_555
H26 C35 1_555 1_555
C36 C35 1_555 1_555
H27 C36 1_555 1_555
C37 C36 1_555 1_555
H28 C37 1_555 1_555
C38 C33 1_555 1_555
Cd1 N3 1_555 1_555
Cd2 N1 1_555 1_555
O1 Cd1 1_555 1_555
O2 Cd1 1_555 1_555
O3 C42 1_555 1_555
O4 C42 1_555 1_555
O5 C44 1_555 1_555
O6 C44 1_555 1_555
O7 C45 1_555 1_555
O8 C45 1_555 1_555
O9 C41 1_555 1_555
O10 C53 1_555 1_555
O11 C39 1_555 1_555
O12 C60 1_555 1_555
N5 C40 1_555 1_555
N6 C13 1_555 1_555
N7 C1 1_555 1_555
N8 C7 1_555 1_555
C39 N7 1_555 1_555
C40 C49 1_555 1_555
C41 N5 1_555 1_555
C42 C58 1_555 1_555
C43 O1 1_555 1_555
C44 C62 1_555 1_555
C45 C61 1_555 1_555
C46 H29 1_555 1_555
H30 C46 1_555 1_555
C47 H31 1_555 1_555
H32 C47 1_555 1_555
C48 C60 1_555 1_555
C49 H33 1_555 1_555
C50 N6 1_555 1_555
H34 C50 1_555 1_555
H35 C50 1_555 1_555
C51 C41 1_555 1_555
H36 C51 1_555 1_555
H37 C51 1_555 1_555
C52 C39 1_555 1_555
H38 C52 1_555 1_555
H39 C52 1_555 1_555
C53 N6 1_555 1_555
C54 H40 1_555 1_555
H41 C54 1_555 1_555
C55 N5 1_555 1_555
H42 C55 1_555 1_555
H43 C55 1_555 1_555
C56 N8 1_555 1_555
H44 C56 1_555 1_555
H45 C56 1_555 1_555
C57 C43 1_555 1_555
H46 C57 1_555 1_555
H47 C57 1_555 1_555
C58 C47 1_555 1_555
H48 C58 1_555 1_555
H49 C58 1_555 1_555
C59 C54 1_555 1_555
H50 C59 1_555 1_555
H51 C59 1_555 1_555
C60 N8 1_555 1_555
C61 C48 1_555 1_555
C62 C52 1_555 1_555
H52 C62 1_555 1_555
H53 C62 1_555 1_555
C63 C46 1_555 1_555
C64 C40 1_555 1_555
H54 C64 1_555 1_555
C65 C64 1_555 1_555
H55 C65 1_555 1_555
C66 C65 1_555 1_555
C67 N7 1_555 1_555
C68 C4 1_555 1_555
C69 C49 1_555 1_555
H56 C69 1_555 1_555
C70 C16 1_555 1_555
Cd1_2 O3 1_555 1_555
Cd1_3 O5 1_555 1_555
Cd2_2 O5 1_555 1_555
Cd2_3 O7 1_555 1_555
O3_2 Cd1 1_555 1_555
O4_2 Cd1 1_555 1_555
O5_2 Cd1 1_555 1_555
O6_2 Cd2 1_555 1_555
O7_2 Cd2 1_555 1_555
O8_2 Cd2 1_555 1_555
C5 C6 1_555 1_555
C10 C68 1_555 1_555
C11 C12 1_555 1_555
C17 C18 1_555 1_555
C22 C23 1_555 1_555
N2 C28 1_555 1_555
N2 Cd2 1_555 1_555
C27 C28 1_555 1_555
C32 C33 1_555 1_555
N4 C38 1_555 1_555
N4 Cd1 1_555 1_555
C37 C38 1_555 1_555
Cd2 O2 1_555 1_555
Cd2 O5_2 1_555 1_555
O2 C43 1_555 1_555
O4 Cd1_2 1_555 1_555
O6 Cd2_2 1_555 1_555
O8 Cd2_3 1_555 1_555
C46 C50 1_555 1_555
C47 C53 1_555 1_555
C51 C57 1_555 1_555
C54 C56 1_555 1_555
C55 C59 1_555 1_555
C63 C67 1_555 1_555
C66 C69 1_555 1_555
C66 C70 1_555 1_555

#END
