
#######################################################################
#
#                 Cambridge Crystallographic Data Centre
#                                CCDC 
#
#######################################################################
#
# If this CIF has been generated from an entry in the Cambridge 
# Structural Database, then it will include bibliographic, chemical, 
# crystal, experimental, refinement or atomic coordinate data resulting 
# from the CCDC's data processing and validation procedures.
#
#######################################################################

data_PUXKOJ
_symmetry_cell_setting           monoclinic
_symmetry_space_group_name_H-M   'P 21/c'
_symmetry_Int_Tables_number      14
_space_group_name_Hall           '-P 2ybc'
loop_
_symmetry_equiv_pos_site_id
_symmetry_equiv_pos_as_xyz
1 x,y,z
2 -x,1/2+y,1/2-z
3 -x,-y,-z
4 x,1/2-y,1/2+z
_cell_length_a                   7.3013(15)
_cell_length_b                   21.090(5)
_cell_length_c                   8.7825(19)
_cell_angle_alpha                90
_cell_angle_beta                 93.90(2)
_cell_angle_gamma                90
_cell_volume                     1349.24
loop_
_atom_site_label
_atom_site_type_symbol
_atom_site_fract_x
_atom_site_fract_y
_atom_site_fract_z
O1 O 0.5073(5) 0.62303(12) 0.2058(4)
O2 O 0.9395(4) 0.67906(14) 0.3228(3)
Zn1 Zn 0.19246(7) 0.630396(19) 0.33870(5)
N1 N 0.1948(4) 0.53157(14) 0.3389(3)
N2 N 0.2438(4) 0.60985(15) 0.5715(4)
O3 O 1.0330(5) 0.63512(14) 0.1176(4)
O4 O 0.3652(4) 0.70146(14) 0.3133(4)
C1 C 0.2421(5) 0.50388(16) 0.4742(4)
C2 C 0.2778(5) 0.54877(17) 0.6053(4)
C3 C 0.9215(5) 0.66926(18) 0.1808(4)
C4 C 0.3351(6) 0.5292(2) 0.7511(4)
H1 H 0.3583 0.4866 0.7718
C5 C 0.2516(6) 0.43903(18) 0.4884(5)
H2 H 0.2879 0.4205 0.5817
C6 C 0.4906(6) 0.68021(17) 0.2329(4)
C7 C 0.6163(5) 0.72892(18) 0.1690(5)
H3 H 0.5434 0.7567 0.1010
H4 H 0.6691 0.7546 0.2525
C8 C 0.1517(6) 0.4951(2) 0.2166(5)
H5 H 0.1183 0.5147 0.1239
C9 C 0.1551(7) 0.4302(2) 0.2228(6)
H6 H 0.1238 0.4060 0.1363
C10 C 0.3167(7) 0.6368(2) 0.8333(5)
H7 H 0.3251 0.6673 0.9098
C11 C 0.2636(6) 0.6531(2) 0.6852(5)
H8 H 0.2404 0.6955 0.6623
C12 C 0.7693(6) 0.7018(2) 0.0837(4)
H9 H 0.8232 0.7359 0.0273
H10 H 0.7174 0.6715 0.0098
C13 C 0.2062(6) 0.4015(2) 0.3609(6)
H11 H 0.2103 0.3575 0.3685
C14 C 0.3571(7) 0.5743(2) 0.8659(5)
H12 H 0.3989 0.5624 0.9641
O2_2 O -0.0605(4) 0.67906(14) 0.3228(3)
Zn1_2 Zn 1.19246(7) 0.630396(19) 0.33870(5)
O3_2 O 0.0330(5) 0.63512(14) 0.1176(4)
C3_2 C -0.0785(5) 0.66926(18) 0.1808(4)
loop_
_geom_bond_atom_site_label_1
_geom_bond_atom_site_label_2
_geom_bond_site_symmetry_1
_geom_bond_site_symmetry_2
O1 C6 1_555 1_555
O2 C3 1_555 1_555
Zn1 N1 1_555 1_555
N1 C1 1_555 1_555
N2 Zn1 1_555 1_555
O3 C3 1_555 1_555
O4 Zn1 1_555 1_555
C1 C2 1_555 1_555
C2 N2 1_555 1_555
C3 C12 1_555 1_555
C4 C2 1_555 1_555
H1 C4 1_555 1_555
C5 C1 1_555 1_555
H2 C5 1_555 1_555
C6 O4 1_555 1_555
C7 C6 1_555 1_555
H3 C7 1_555 1_555
H4 C7 1_555 1_555
C8 N1 1_555 1_555
H5 C8 1_555 1_555
C9 C8 1_555 1_555
H6 C9 1_555 1_555
C10 H7 1_555 1_555
C11 N2 1_555 1_555
H8 C11 1_555 1_555
C12 C7 1_555 1_555
H9 C12 1_555 1_555
H10 C12 1_555 1_555
C13 C5 1_555 1_555
H11 C13 1_555 1_555
C14 C4 1_555 1_555
H12 C14 1_555 1_555
O2_2 Zn1 1_555 1_555
Zn1_2 O2 1_555 1_555
O3_2 Zn1 1_555 1_555
C3_2 O2_2 1_555 1_555
O3 Zn1_2 1_555 1_555
C9 C13 1_555 1_555
C10 C11 1_555 1_555
C10 C14 1_555 1_555
O3_2 C3_2 1_555 1_555

#END
