
#######################################################################
#
#                 Cambridge Crystallographic Data Centre
#                                CCDC 
#
#######################################################################
#
# If this CIF has been generated from an entry in the Cambridge 
# Structural Database, then it will include bibliographic, chemical, 
# crystal, experimental, refinement or atomic coordinate data resulting 
# from the CCDC's data processing and validation procedures.
#
#######################################################################

data_PUXZIS
_symmetry_cell_setting           monoclinic
_symmetry_space_group_name_H-M   'P 21/c'
_symmetry_Int_Tables_number      14
_space_group_name_Hall           '-P 2ybc'
loop_
_symmetry_equiv_pos_site_id
_symmetry_equiv_pos_as_xyz
1 x,y,z
2 -x,1/2+y,1/2-z
3 -x,-y,-z
4 x,1/2-y,1/2+z
_cell_length_a                   14.969(4)
_cell_length_b                   6.593(3)
_cell_length_c                   20.767(4)
_cell_angle_alpha                90
_cell_angle_beta                 108.42(3)
_cell_angle_gamma                90
_cell_volume                     1944.5
loop_
_atom_site_label
_atom_site_type_symbol
_atom_site_fract_x
_atom_site_fract_y
_atom_site_fract_z
Ag1 Ag 0.465390(13) 0.85642(4) 0.199116(9)
Ag2 Ag 0.925799(14) 0.64401(4) 0.330186(10)
N1 N 0.60950(13) 0.8700(3) 0.28980(9)
C1 C 0.60836(16) 0.8514(4) 0.35312(12)
N2 N 0.68496(14) 0.8296(3) 0.40708(9)
C2 C 0.76626(18) 0.8213(4) 0.39259(12)
N3 N 0.77410(13) 0.8324(3) 0.32975(9)
C3 C 0.69303(16) 0.8579(4) 0.27996(11)
N4 N 0.43907(13) 0.8670(3) 0.30484(9)
C4 C 0.51329(16) 0.8560(4) 0.36260(11)
C5 C 0.50264(17) 0.8474(4) 0.42587(11)
H1 H 0.5562 0.8397 0.4654
C6 C 0.41248(17) 0.8500(4) 0.43134(12)
H2 H 0.4033 0.8405 0.4744
C7 C 0.33660(16) 0.8667(4) 0.37288(12)
H3 H 0.2742 0.8738 0.3750
C8 C 0.35349(16) 0.8728(4) 0.31121(12)
H4 H 0.3009 0.8817 0.2711
N5 N 0.60809(13) 0.8593(4) 0.16098(9)
C9 C 0.69339(17) 0.8742(4) 0.20852(11)
C10 C 0.77554(17) 0.9040(3) 0.19338(12)
H5 H 0.8342 0.9159 0.2284
C11 C 0.77041(18) 0.9163(4) 0.12539(13)
H6 H 0.8257 0.9392 0.1133
C12 C 0.68556(17) 0.8953(4) 0.07647(12)
H7 H 0.6809 0.8985 0.0298
C13 C 0.60524(16) 0.8689(4) 0.09635(11)
H8 H 0.5459 0.8572 0.0621
N6 N 0.93220(15) 0.7359(3) 0.43581(10)
C14 C 0.85514(18) 0.7991(4) 0.45042(12)
C15 C 0.85738(16) 0.8481(4) 0.51590(11)
H9 H 0.8018 0.8907 0.5248
C16 C 0.94201(18) 0.8340(4) 0.56819(13)
H10 H 0.9456 0.8667 0.6135
C17 C 1.02053(19) 0.7717(4) 0.55297(13)
H11 H 1.0794 0.7608 0.5878
C18 C 1.01338(18) 0.7249(4) 0.48680(13)
H12 H 1.0684 0.6831 0.4770
N7 N 0.29685(16) 0.8262(4) 0.08043(12)
O1 O 0.38382(12) 0.8327(3) 0.08526(8)
O2 O 0.27420(12) 0.8347(3) 0.13306(9)
O3 O 0.23760(12) 0.8114(3) 0.02369(9)
N8 N 1.07078(15) 0.8447(4) 0.27733(11)
O4 O 1.08915(13) 0.7861(3) 0.33735(9)
O5 O 0.99090(12) 0.8231(3) 0.23652(9)
O6 O 1.13483(12) 0.9291(3) 0.25982(10)
Ag2A Ag 1.074201(14) 1.14401(4) 0.169814(10)
O6A O 0.86517(12) 0.4291(3) 0.24018(10)
loop_
_geom_bond_atom_site_label_1
_geom_bond_atom_site_label_2
_geom_bond_site_symmetry_1
_geom_bond_site_symmetry_2
Ag1 N1 1_555 1_555
Ag2 N3 1_555 1_555
N1 C1 1_555 1_555
C1 N2 1_555 1_555
N2 C2 1_555 1_555
C2 N3 1_555 1_555
N3 C3 1_555 1_555
C3 N1 1_555 1_555
N4 Ag1 1_555 1_555
C4 C1 1_555 1_555
C5 C4 1_555 1_555
H1 C5 1_555 1_555
C6 C5 1_555 1_555
H2 C6 1_555 1_555
C7 C6 1_555 1_555
H3 C7 1_555 1_555
C8 N4 1_555 1_555
H4 C8 1_555 1_555
N5 Ag1 1_555 1_555
C9 C3 1_555 1_555
C10 C9 1_555 1_555
H5 C10 1_555 1_555
C11 C10 1_555 1_555
H6 C11 1_555 1_555
C12 C11 1_555 1_555
H7 C12 1_555 1_555
C13 N5 1_555 1_555
H8 C13 1_555 1_555
N6 Ag2 1_555 1_555
C14 C2 1_555 1_555
C15 C14 1_555 1_555
H9 C15 1_555 1_555
C16 C15 1_555 1_555
H10 C16 1_555 1_555
C17 C16 1_555 1_555
H11 C17 1_555 1_555
C18 N6 1_555 1_555
H12 C18 1_555 1_555
N7 O1 1_555 1_555
O1 Ag1 1_555 1_555
O2 Ag1 1_555 1_555
O3 N7 1_555 1_555
N8 O4 1_555 1_555
O4 Ag2 1_555 1_555
O5 Ag2 1_555 1_555
O6 N8 1_555 1_555
Ag2A O6 1_555 1_555
O6A Ag2 1_555 1_555
N4 C4 1_555 1_555
C7 C8 1_555 1_555
N5 C9 1_555 1_555
C12 C13 1_555 1_555
N6 C14 1_555 1_555
C17 C18 1_555 1_555
N7 O2 1_555 1_555
N8 O5 1_555 1_555

#END
