
#######################################################################
#
#                 Cambridge Crystallographic Data Centre
#                                CCDC 
#
#######################################################################
#
# If this CIF has been generated from an entry in the Cambridge 
# Structural Database, then it will include bibliographic, chemical, 
# crystal, experimental, refinement or atomic coordinate data resulting 
# from the CCDC's data processing and validation procedures.
#
#######################################################################

data_PUYBIV
_symmetry_cell_setting           monoclinic
_symmetry_space_group_name_H-M   'C 2/c'
_symmetry_Int_Tables_number      15
_space_group_name_Hall           '-C 2yn'
loop_
_symmetry_equiv_pos_site_id
_symmetry_equiv_pos_as_xyz
1 x,y,z
2 -x,y,1/2-z
3 1/2+x,1/2+y,z
4 1/2-x,1/2+y,1/2-z
5 -x,-y,-z
6 x,-y,1/2+z
7 1/2-x,1/2-y,-z
8 1/2+x,1/2-y,1/2+z
_cell_length_a                   26.1637(13)
_cell_length_b                   10.1103(5)
_cell_length_c                   21.4740(11)
_cell_angle_alpha                90
_cell_angle_beta                 126.9720(10)
_cell_angle_gamma                90
_cell_volume                     4538.21
loop_
_atom_site_label
_atom_site_type_symbol
_atom_site_fract_x
_atom_site_fract_y
_atom_site_fract_z
O7 O 0.5671(5) 0.4792(15) 0.7627(6)
N4 N 0.5000 0.3233(13) 0.7500
C21 C 0.5208(5) 0.4382(12) 0.7546(8)
C22 C 0.5319(7) 0.5247(16) 0.7554(13)
H18 H 0.5176 0.6149 0.7429
H19 H 0.5414 0.4939 0.7211
H20 H 0.5697 0.5195 0.8083
C23 C 0.5645(5) 0.3101(19) 0.7655(9)
H21 H 0.5794 0.3960 0.7640
H22 H 0.5603 0.2547 0.7263
H23 H 0.5947 0.2713 0.8159
C24 C 0.5301(9) 0.2010(14) 0.7550(11)
H24 H 0.5311 0.1430 0.7911
H25 H 0.5731 0.2181 0.7728
H26 H 0.5064 0.1601 0.7046
O7A O 0.4329(5) 0.4792(15) 0.7373(6)
C21A C 0.4792(5) 0.4382(12) 0.7454(8)
C22A C 0.4681(7) 0.5247(16) 0.7446(13)
H18A H 0.4824 0.6149 0.7571
H19A H 0.4586 0.4939 0.7789
H20A H 0.4303 0.5195 0.6917
C23A C 0.4355(5) 0.3101(19) 0.7345(9)
H21A H 0.4206 0.3960 0.7360
H22A H 0.4397 0.2547 0.7737
H23A H 0.4053 0.2713 0.6841
C24A C 0.4699(9) 0.2010(14) 0.7450(11)
H24A H 0.4689 0.1430 0.7089
H25A H 0.4269 0.2181 0.7272
H26A H 0.4936 0.1601 0.7954
Zn1 Zn 0.314146(19) -0.09944(4) 0.52892(2)
O1 O 0.22497(15) -0.0998(3) 0.5041(2)
O2 O 0.13938(12) -0.2262(2) 0.45105(16)
O3 O 0.10177(16) 0.4712(3) 0.45031(19)
O4 O 0.19205(16) 0.3903(3) 0.4812(2)
O5 O -0.05035(14) -0.0416(4) 0.40844(19)
O6 O -0.06227(17) 0.1691(4) 0.4069(3)
N1 N 0.35721(19) -0.0954(3) 0.6520(2)
N2 N 0.27744(17) -0.1174(3) 0.4086(2)
N3 N -0.03124(16) 0.0715(4) 0.4157(2)
C1 C 0.12843(15) 0.0009(3) 0.46469(18)
C2 C 0.15152(17) 0.1292(3) 0.47251(19)
H1 H 0.1920 0.1419 0.4852
C3 C 0.11450(17) 0.2377(3) 0.46145(19)
C4 C 0.05478(17) 0.2198(3) 0.4439(2)
H2 H 0.0298 0.2918 0.4371
C5 C 0.03314(17) 0.0918(3) 0.4366(2)
C6 C 0.06891(16) -0.0183(3) 0.44611(18)
H3 H 0.0528 -0.1032 0.4400
C7 C 0.16781(18) -0.1173(3) 0.4740(2)
C8 C 0.1373(2) 0.3760(3) 0.4648(2)
C9 C 0.4169(3) -0.0861(6) 0.8124(3)
C10 C 0.4504(4) -0.0819(8) 0.8998(4)
H4 H 0.4198 -0.0613 0.9093
H5 H 0.4693 -0.1666 0.9221
H6 H 0.4832 -0.0154 0.9231
C11 C 0.3094(2) -0.1829(5) 0.3874(3)
H7 H 0.3491 -0.2186 0.4267
C12 C 0.2873(3) -0.2008(7) 0.3116(3)
H8 H 0.3115 -0.2477 0.3005
C13 C 0.2289(3) -0.1485(8) 0.2524(3)
C14 C 0.1973(3) -0.0793(8) 0.2742(3)
H9 H 0.1580 -0.0410 0.2361
C15 C 0.2223(3) -0.0650(7) 0.3512(3)
H10 H 0.1993 -0.0162 0.3635
C16 C 0.2030(4) -0.1685(13) 0.1686(4)
H11 H 0.1897 -0.0850 0.1420
H12 H 0.2358 -0.2058 0.1666
H13 H 0.1671 -0.2276 0.1437
C17 C 0.3253(7) -0.0631(14) 0.6792(7)
H14 H 0.2825 -0.0390 0.6444
C18 C 0.3538(6) -0.0641(14) 0.7586(6)
H15 H 0.3286 -0.0492 0.7750
C19 C 0.4519(7) -0.1149(13) 0.7818(7)
H16 H 0.4958 -0.1294 0.8152
C20 C 0.4187(7) -0.1205(13) 0.7020(7)
H17 H 0.4411 -0.1432 0.6826
Zn1F Zn 0.185854(19) -0.40056(4) 0.47108(2)
Zn1F_2 Zn 0.185854(19) 0.59944(4) 0.47108(2)
Zn1_2 Zn 0.314146(19) -1.09944(4) 0.52892(2)
O1F O 0.27503(15) -0.4002(3) 0.4959(2)
O2F O 0.36062(12) -0.2738(2) 0.54895(16)
O3F O 0.39823(16) -0.9712(3) 0.54969(19)
O3F_2 O 0.39823(16) 0.0288(3) 0.54969(19)
O3_2 O 0.10177(16) -0.5288(3) 0.45031(19)
O4F O 0.30795(16) -0.8903(3) 0.5188(2)
O4F_2 O 0.30795(16) 0.1097(3) 0.5188(2)
O4_2 O 0.19205(16) -0.6097(3) 0.4812(2)
O5F O 0.55035(14) -0.4584(4) 0.59156(19)
O6F O 0.56227(17) -0.6691(4) 0.5931(3)
N1F N 0.14279(19) -0.4046(3) 0.3480(2)
N2F N 0.22256(17) -0.3826(3) 0.5914(2)
N3F N 0.53124(16) -0.5715(4) 0.5843(2)
C1F C 0.37157(15) -0.5009(3) 0.53531(18)
C2F C 0.34848(17) -0.6292(3) 0.52749(19)
H1F H 0.3080 -0.6419 0.5148
C3F C 0.38550(17) -0.7377(3) 0.53855(19)
C4F C 0.44522(17) -0.7198(3) 0.5561(2)
H2F H 0.4702 -0.7918 0.5629
C5F C 0.46686(17) -0.5918(3) 0.5634(2)
C6F C 0.43109(16) -0.4817(3) 0.55389(18)
H3F H 0.4472 -0.3968 0.5600
C7F C 0.33219(18) -0.3827(3) 0.5260(2)
C8F C 0.3627(2) -0.8760(3) 0.5352(2)
C9F C 0.0831(3) -0.4139(6) 0.1876(3)
C10F C 0.0496(4) -0.4181(8) 0.1002(4)
H4F H 0.0802 -0.4387 0.0907
H5F H 0.0307 -0.3334 0.0779
H6F H 0.0168 -0.4846 0.0769
C11F C 0.1906(2) -0.3171(5) 0.6126(3)
H7F H 0.1509 -0.2814 0.5733
C12F C 0.2127(3) -0.2992(7) 0.6884(3)
H8F H 0.1885 -0.2523 0.6995
C13F C 0.2711(3) -0.3515(8) 0.7476(3)
C14F C 0.3027(3) -0.4207(8) 0.7258(3)
H9F H 0.3420 -0.4590 0.7639
C15F C 0.2777(3) -0.4350(7) 0.6488(3)
H10F H 0.3007 -0.4838 0.6365
C16F C 0.2970(4) -0.3315(13) 0.8314(4)
H11F H 0.3103 -0.4150 0.8580
H12F H 0.2642 -0.2942 0.8334
H13F H 0.3329 -0.2724 0.8563
C17F C 0.1747(7) -0.4369(14) 0.3208(7)
H14F H 0.2175 -0.4610 0.3556
C18F C 0.1462(6) -0.4359(14) 0.2414(6)
H15F H 0.1714 -0.4508 0.2250
C19F C 0.0481(7) -0.3851(13) 0.2182(7)
H16F H 0.0042 -0.3706 0.1848
C20F C 0.0813(7) -0.3795(13) 0.2980(7)
H17F H 0.0589 -0.3568 0.3174
C25? C 0.1253(8) 0.4831(19) 0.2388(8)
C26? C 0.0727(8) 0.6827(19) 0.2176(8)
C27? C 0.1044(8) 0.6883(19) 0.2977(8)
C28? C 0.1511(8) 0.4964(19) 0.3157(9)
H27? H 0.1347 0.4108 0.2206
H28? H 0.0440 0.7490 0.1857
H29? H 0.0982 0.7633 0.3175
H30? H 0.1772 0.4280 0.3486
loop_
_geom_bond_atom_site_label_1
_geom_bond_atom_site_label_2
_geom_bond_site_symmetry_1
_geom_bond_site_symmetry_2
Zn1 O1 1_555 1_555
O1 C7 1_555 1_555
O2 C7 1_555 1_555
O3 C8 1_555 1_555
O4 C8 1_555 1_555
O5 N3 1_555 1_555
O6 N3 1_555 1_555
N1 Zn1 1_555 1_555
N2 Zn1 1_555 1_555
N3 C5 1_555 1_555
C1 C2 1_555 1_555
C2 H1 1_555 1_555
C3 C2 1_555 1_555
C4 C3 1_555 1_555
H2 C4 1_555 1_555
C5 C4 1_555 1_555
C6 C1 1_555 1_555
H3 C6 1_555 1_555
C7 C1 1_555 1_555
C8 C3 1_555 1_555
C9 C10 1_555 1_555
C10 H4 1_555 1_555
H5 C10 1_555 1_555
H6 C10 1_555 1_555
C11 N2 1_555 1_555
H7 C11 1_555 1_555
C12 C11 1_555 1_555
H8 C12 1_555 1_555
C13 C12 1_555 1_555
C14 C13 1_555 1_555
H9 C14 1_555 1_555
C15 N2 1_555 1_555
H10 C15 1_555 1_555
C16 C13 1_555 1_555
H11 C16 1_555 1_555
H12 C16 1_555 1_555
H13 C16 1_555 1_555
C17 N1 1_555 1_555
H14 C17 1_555 1_555
C18 C9 1_555 1_555
H15 C18 1_555 1_555
C19 C9 1_555 1_555
H16 C19 1_555 1_555
C20 N1 1_555 1_555
H17 C20 1_555 1_555
O7 C21 1_555 1_555
N4 C21 1_555 1_555
C21 C22 1_555 1_555
C22 O7 1_555 1_555
H18 C22 1_555 1_555
H19 O7 1_555 1_555
H20 O7 1_555 1_555
C23 O7 1_555 1_555
H21 O7 1_555 1_555
H22 C23 1_555 1_555
H23 C23 1_555 1_555
C24 N4 1_555 1_555
H24 C24 1_555 1_555
H25 C23 1_555 1_555
H26 C24 1_555 1_555
Zn1F O2 1_555 1_555
Zn1F_2 O3 1_555 1_555
Zn1_2 O3F 1_555 1_555
O1F Zn1F 1_555 1_555
O2F Zn1 1_555 1_555
O3F C8F 1_555 1_555
O3F_2 Zn1 1_555 1_555
O3_2 Zn1F 1_555 1_555
O4F Zn1_2 1_555 1_555
O4F_2 Zn1 1_555 1_555
O4_2 Zn1F 1_555 1_555
O5F N3F 1_555 1_555
O6F N3F 1_555 1_555
N1F Zn1F 1_555 1_555
N2F Zn1F 1_555 1_555
N3F C5F 1_555 1_555
C1F C2F 1_555 1_555
C2F H1F 1_555 1_555
C3F C2F 1_555 1_555
C4F C3F 1_555 1_555
H2F C4F 1_555 1_555
C5F C4F 1_555 1_555
C6F C1F 1_555 1_555
H3F C6F 1_555 1_555
C7F O1F 1_555 1_555
C8F O4F 1_555 1_555
C9F C10F 1_555 1_555
C10F H4F 1_555 1_555
H5F C10F 1_555 1_555
H6F C10F 1_555 1_555
C11F N2F 1_555 1_555
H7F C11F 1_555 1_555
C12F C11F 1_555 1_555
H8F C12F 1_555 1_555
C13F C12F 1_555 1_555
C14F C13F 1_555 1_555
H9F C14F 1_555 1_555
C15F N2F 1_555 1_555
H10F C15F 1_555 1_555
C16F C13F 1_555 1_555
H11F C16F 1_555 1_555
H12F C16F 1_555 1_555
H13F C16F 1_555 1_555
C17F N1F 1_555 1_555
H14F C17F 1_555 1_555
C18F C9F 1_555 1_555
H15F C18F 1_555 1_555
C19F C9F 1_555 1_555
H16F C19F 1_555 1_555
C20F N1F 1_555 1_555
H17F C20F 1_555 1_555
O7A C21A 1_555 1_555
C21A N4 1_555 1_555
C22A C21 1_555 1_555
H18A C22A 1_555 1_555
H19A O7A 1_555 1_555
H20A O7A 1_555 1_555
C23A N4 1_555 1_555
H21A O7A 1_555 1_555
H22A C23A 1_555 1_555
H23A C23A 1_555 1_555
C24A N4 1_555 1_555
H24A C24A 1_555 1_555
H25A C23A 1_555 1_555
H26A C24A 1_555 1_555
O4 Zn1F_2 1_555 1_555
C5 C6 1_555 1_555
C14 C15 1_555 1_555
C17 C18 1_555 1_555
C19 C20 1_555 1_555
N4 C23 1_555 1_555
C21 H19 1_555 1_555
C21 C23 1_555 1_555
C21 C21A 1_555 1_555
C22 H19 1_555 1_555
C22 H20 1_555 1_555
C22 C21A 1_555 1_555
C22 C22A 1_555 1_555
C23 H21 1_555 1_555
C23 C24 1_555 1_555
C24 H25 1_555 1_555
C24 C24A 1_555 1_555
O2F C7F 1_555 1_555
C1F C7F 1_555 1_555
C3F C8F 1_555 1_555
C5F C6F 1_555 1_555
C14F C15F 1_555 1_555
C17F C18F 1_555 1_555
C19F C20F 1_555 1_555
O7A C22A 1_555 1_555
O7A C23A 1_555 1_555
C21A C22A 1_555 1_555
C21A H19A 1_555 1_555
C21A C23A 1_555 1_555
C22A H19A 1_555 1_555
C22A H20A 1_555 1_555
C23A H21A 1_555 1_555
C23A C24A 1_555 1_555
C24A H25A 1_555 1_555

#END
