
#######################################################################
#
#                 Cambridge Crystallographic Data Centre
#                                CCDC 
#
#######################################################################
#
# If this CIF has been generated from an entry in the Cambridge 
# Structural Database, then it will include bibliographic, chemical, 
# crystal, experimental, refinement or atomic coordinate data resulting 
# from the CCDC's data processing and validation procedures.
#
#######################################################################

data_PUYBOB
_symmetry_cell_setting           monoclinic
_symmetry_space_group_name_H-M   'C 2/c'
_symmetry_Int_Tables_number      15
_space_group_name_Hall           '-C 2yn'
loop_
_symmetry_equiv_pos_site_id
_symmetry_equiv_pos_as_xyz
1 x,y,z
2 -x,y,1/2-z
3 1/2+x,1/2+y,z
4 1/2-x,1/2+y,1/2-z
5 -x,-y,-z
6 x,-y,1/2+z
7 1/2-x,1/2-y,-z
8 1/2+x,1/2-y,1/2+z
_cell_length_a                   26.0752(18)
_cell_length_b                   10.0873(7)
_cell_length_c                   21.3724(15)
_cell_angle_alpha                90
_cell_angle_beta                 126.7110(10)
_cell_angle_gamma                90
_cell_volume                     4506.57
loop_
_atom_site_label
_atom_site_type_symbol
_atom_site_fract_x
_atom_site_fract_y
_atom_site_fract_z
O7 O 0.5409(7) 0.5116(13) 0.7583(11)
N4 N 0.5375(11) 0.3851(14) 0.761(2)
C21 C 0.5193(8) 0.3994(13) 0.7531(14)
C22 C 0.5495(7) 0.2741(13) 0.7595(12)
H18 H 0.5907 0.2648 0.8099
H19 H 0.5546 0.2638 0.7185
C23 C 0.5000 0.1749(13) 0.7500
H20 H 0.4883 0.1115 0.7093
H21 H 0.5187 0.1266 0.7984
C24 C 0.5595(16) 0.2483(16) 0.771(5)
H22 H 0.5960 0.2309 0.8246
H23 H 0.5703 0.2259 0.7362
C25 C 0.5730(8) 0.4898(16) 0.7623(14)
H24 H 0.5451 0.5633 0.7335
H25 H 0.5934 0.4623 0.7391
H26 H 0.6049 0.5162 0.8154
O7A O 0.4591(7) 0.5116(13) 0.7417(11)
N4A N 0.4625(11) 0.3851(14) 0.739(2)
C21A C 0.4807(8) 0.3994(13) 0.7469(14)
C22A C 0.4505(7) 0.2741(13) 0.7405(12)
H18A H 0.4093 0.2648 0.6901
H19A H 0.4454 0.2638 0.7815
H20A H 0.5117 0.1115 0.7907
H21A H 0.4813 0.1266 0.7016
C24A C 0.4405(16) 0.2483(16) 0.729(5)
H22A H 0.4040 0.2309 0.6754
H23A H 0.4297 0.2259 0.7638
C25A C 0.4270(8) 0.4898(16) 0.7377(14)
H24A H 0.4549 0.5633 0.7665
H25A H 0.4066 0.4623 0.7609
H26A H 0.3951 0.5162 0.6846
Zn1 Zn 0.31414(2) -0.09945(5) 0.52889(3)
O1 O 0.22473(18) -0.1000(4) 0.5040(3)
O2 O 0.13918(15) -0.2261(3) 0.4511(2)
O3 O 0.10214(19) 0.4710(3) 0.4502(2)
O4 O 0.1919(2) 0.3900(3) 0.4813(3)
O5 O -0.05038(17) -0.0411(4) 0.4085(2)
O6 O -0.0623(2) 0.1691(5) 0.4065(3)
N1 N 0.3571(2) -0.0950(4) 0.6517(3)
N2 N 0.2775(2) -0.1182(4) 0.4086(2)
N3 N -0.0311(2) 0.0720(5) 0.4157(3)
C1 C 0.12888(19) 0.0012(4) 0.4648(2)
C2 C 0.1514(2) 0.1293(4) 0.4726(2)
H1 H 0.1920 0.1422 0.4854
C3 C 0.1147(2) 0.2378(4) 0.4618(3)
C4 C 0.0549(2) 0.2185(4) 0.4441(3)
H2 H 0.0298 0.2905 0.4374
C5 C 0.0330(2) 0.0912(4) 0.4366(3)
C6 C 0.0690(2) -0.0189(4) 0.4463(3)
H3 H 0.0531 -0.1041 0.4404
C7 C 0.1681(2) -0.1174(4) 0.4743(3)
C8 C 0.1370(3) 0.3762(4) 0.4648(3)
C9 C 0.4171(4) -0.0866(7) 0.8124(4)
C10 C 0.4496(5) -0.0825(9) 0.8992(4)
H4 H 0.4739 -0.1623 0.9228
H5 H 0.4777 -0.0074 0.9215
H6 H 0.4180 -0.0753 0.9084
C11 C 0.3097(3) -0.1834(6) 0.3883(3)
H7 H 0.3495 -0.2185 0.4274
C12 C 0.2865(3) -0.2013(9) 0.3116(4)
H8 H 0.3104 -0.2489 0.3000
C13 C 0.2286(3) -0.1495(10) 0.2527(4)
C14 C 0.1973(4) -0.0785(10) 0.2742(4)
H9 H 0.1584 -0.0386 0.2361
C15 C 0.2223(3) -0.0650(8) 0.3515(4)
H10 H 0.1995 -0.0163 0.3643
C16 C 0.2029(4) -0.1656(15) 0.1680(5)
H11 H 0.1621 -0.1222 0.1350
H12 H 0.2323 -0.1266 0.1602
H13 H 0.1980 -0.2582 0.1551
C17 C 0.3253(8) -0.0620(18) 0.6794(9)
H14 H 0.2825 -0.0378 0.6448
C18 C 0.3544(8) -0.0623(18) 0.7595(8)
H15 H 0.3296 -0.0451 0.7767
C19 C 0.4508(8) -0.1223(17) 0.7817(8)
H16 H 0.4941 -0.1432 0.8149
C20 C 0.4179(8) -0.1255(17) 0.7016(8)
H17 H 0.4400 -0.1506 0.6819
Zn1F Zn 0.18586(2) -0.40055(5) 0.47111(3)
Zn1F_2 Zn 0.18586(2) 0.59945(5) 0.47111(3)
Zn1_2 Zn 0.31414(2) -1.09945(5) 0.52889(3)
O1F O 0.27527(18) -0.4000(4) 0.4960(3)
O2F O 0.36082(15) -0.2739(3) 0.5489(2)
O3F O 0.39786(19) -0.9710(3) 0.5498(2)
O3F_2 O 0.39786(19) 0.0290(3) 0.5498(2)
O3_2 O 0.10214(19) -0.5290(3) 0.4502(2)
O4F O 0.3081(2) -0.8900(3) 0.5187(3)
O4F_2 O 0.3081(2) 0.1100(3) 0.5187(3)
O4_2 O 0.1919(2) -0.6100(3) 0.4813(3)
O5F O 0.55038(17) -0.4589(4) 0.5915(2)
O6F O 0.5623(2) -0.6691(5) 0.5935(3)
N1F N 0.1429(2) -0.4050(4) 0.3483(3)
N2F N 0.2225(2) -0.3818(4) 0.5914(2)
N3F N 0.5311(2) -0.5720(5) 0.5843(3)
C1F C 0.37112(19) -0.5012(4) 0.5352(2)
C2F C 0.3486(2) -0.6293(4) 0.5274(2)
H1F H 0.3080 -0.6422 0.5146
C3F C 0.3853(2) -0.7378(4) 0.5382(3)
C4F C 0.4451(2) -0.7185(4) 0.5559(3)
H2F H 0.4702 -0.7905 0.5626
C5F C 0.4670(2) -0.5912(4) 0.5634(3)
C6F C 0.4310(2) -0.4811(4) 0.5537(3)
H3F H 0.4469 -0.3959 0.5596
C7F C 0.3319(2) -0.3826(4) 0.5257(3)
C8F C 0.3630(3) -0.8762(4) 0.5352(3)
C9F C 0.0829(4) -0.4134(7) 0.1876(4)
C10F C 0.0504(5) -0.4175(9) 0.1008(4)
H4F H 0.0261 -0.3377 0.0772
H5F H 0.0223 -0.4926 0.0785
H6F H 0.0820 -0.4247 0.0916
C11F C 0.1903(3) -0.3166(6) 0.6117(3)
H7F H 0.1505 -0.2815 0.5726
C12F C 0.2135(3) -0.2987(9) 0.6884(4)
H8F H 0.1896 -0.2511 0.7000
C13F C 0.2714(3) -0.3505(10) 0.7473(4)
C14F C 0.3027(4) -0.4215(10) 0.7258(4)
H9F H 0.3416 -0.4614 0.7639
C15F C 0.2777(3) -0.4350(8) 0.6485(4)
H10F H 0.3005 -0.4837 0.6357
C16F C 0.2971(4) -0.3344(15) 0.8320(5)
H11F H 0.3379 -0.3778 0.8650
H12F H 0.2677 -0.3734 0.8398
H13F H 0.3020 -0.2418 0.8449
C17F C 0.1747(8) -0.4380(18) 0.3206(9)
H14F H 0.2175 -0.4622 0.3552
C18F C 0.1456(8) -0.4377(18) 0.2405(8)
H15F H 0.1704 -0.4549 0.2233
C19F C 0.0492(8) -0.3777(17) 0.2183(8)
H16F H 0.0059 -0.3568 0.1851
C20F C 0.0821(8) -0.3745(17) 0.2984(8)
H17F H 0.0600 -0.3494 0.3181
C26? C 0.1232(11) 0.481(3) 0.2378(12)
C27? C 0.0767(11) 0.686(3) 0.2175(12)
C28? C 0.1067(11) 0.693(3) 0.2983(12)
C29? C 0.1510(12) 0.497(3) 0.3160(13)
H27? H 0.1302 0.4055 0.2187
H28? H 0.0517 0.7568 0.1857
H29? H 0.1011 0.7694 0.3181
H30? H 0.1786 0.4301 0.3492
loop_
_geom_bond_atom_site_label_1
_geom_bond_atom_site_label_2
_geom_bond_site_symmetry_1
_geom_bond_site_symmetry_2
Zn1 O1 1_555 1_555
O1 C7 1_555 1_555
O2 C7 1_555 1_555
O3 C8 1_555 1_555
O4 C8 1_555 1_555
O5 N3 1_555 1_555
O6 N3 1_555 1_555
N1 Zn1 1_555 1_555
N2 Zn1 1_555 1_555
N3 C5 1_555 1_555
C1 C2 1_555 1_555
C2 H1 1_555 1_555
C3 C2 1_555 1_555
C4 C3 1_555 1_555
H2 C4 1_555 1_555
C5 C4 1_555 1_555
C6 C1 1_555 1_555
H3 C6 1_555 1_555
C7 C1 1_555 1_555
C8 C3 1_555 1_555
C9 C10 1_555 1_555
C10 H4 1_555 1_555
H5 C10 1_555 1_555
H6 C10 1_555 1_555
C11 N2 1_555 1_555
H7 C11 1_555 1_555
C12 C11 1_555 1_555
H8 C12 1_555 1_555
C13 C12 1_555 1_555
C14 C13 1_555 1_555
H9 C14 1_555 1_555
C15 N2 1_555 1_555
H10 C15 1_555 1_555
C16 C13 1_555 1_555
H11 C16 1_555 1_555
H12 C16 1_555 1_555
H13 C16 1_555 1_555
C17 N1 1_555 1_555
H14 C17 1_555 1_555
C18 C9 1_555 1_555
H15 C18 1_555 1_555
C19 C9 1_555 1_555
H16 C19 1_555 1_555
C20 N1 1_555 1_555
H17 C20 1_555 1_555
O7 N4 1_555 1_555
N4 C21 1_555 1_555
C21 O7 1_555 1_555
C22 N4 1_555 1_555
H18 C22 1_555 1_555
H19 C22 1_555 1_555
C23 C22 1_555 1_555
H20 C23 1_555 1_555
H21 C23 1_555 1_555
C24 N4 1_555 1_555
H22 C22 1_555 1_555
H23 C22 1_555 1_555
C25 O7 1_555 1_555
H24 O7 1_555 1_555
H25 C25 1_555 1_555
H26 C25 1_555 1_555
Zn1F O2 1_555 1_555
Zn1F_2 O3 1_555 1_555
Zn1_2 O3F 1_555 1_555
O1F Zn1F 1_555 1_555
O2F Zn1 1_555 1_555
O3F C8F 1_555 1_555
O3F_2 Zn1 1_555 1_555
O3_2 Zn1F 1_555 1_555
O4F Zn1_2 1_555 1_555
O4F_2 Zn1 1_555 1_555
O4_2 Zn1F 1_555 1_555
O5F N3F 1_555 1_555
O6F N3F 1_555 1_555
N1F Zn1F 1_555 1_555
N2F Zn1F 1_555 1_555
N3F C5F 1_555 1_555
C1F C2F 1_555 1_555
C2F H1F 1_555 1_555
C3F C2F 1_555 1_555
C4F C3F 1_555 1_555
H2F C4F 1_555 1_555
C5F C4F 1_555 1_555
C6F C1F 1_555 1_555
H3F C6F 1_555 1_555
C7F O1F 1_555 1_555
C8F O4F 1_555 1_555
C9F C10F 1_555 1_555
C10F H4F 1_555 1_555
H5F C10F 1_555 1_555
H6F C10F 1_555 1_555
C11F N2F 1_555 1_555
H7F C11F 1_555 1_555
C12F C11F 1_555 1_555
H8F C12F 1_555 1_555
C13F C12F 1_555 1_555
C14F C13F 1_555 1_555
H9F C14F 1_555 1_555
C15F N2F 1_555 1_555
H10F C15F 1_555 1_555
C16F C13F 1_555 1_555
H11F C16F 1_555 1_555
H12F C16F 1_555 1_555
H13F C16F 1_555 1_555
C17F N1F 1_555 1_555
H14F C17F 1_555 1_555
C18F C9F 1_555 1_555
H15F C18F 1_555 1_555
C19F C9F 1_555 1_555
H16F C19F 1_555 1_555
C20F N1F 1_555 1_555
H17F C20F 1_555 1_555
O7A N4A 1_555 1_555
N4A N4 1_555 1_555
C21A N4 1_555 1_555
C22A C23 1_555 1_555
H18A C22A 1_555 1_555
H19A C22A 1_555 1_555
H20A C23 1_555 1_555
H21A C23 1_555 1_555
C24A C23 1_555 1_555
H22A C22A 1_555 1_555
H23A C22A 1_555 1_555
C25A O7A 1_555 1_555
H24A O7A 1_555 1_555
H25A C25A 1_555 1_555
H26A C25A 1_555 1_555
O4 Zn1F_2 1_555 1_555
C5 C6 1_555 1_555
C14 C15 1_555 1_555
C17 C18 1_555 1_555
C19 C20 1_555 1_555
N4 C25 1_555 1_555
C21 C22 1_555 1_555
C21 C24 1_555 1_555
C21 C25 1_555 1_555
C21 N4A 1_555 1_555
C21 C21A 1_555 1_555
C22 C24 1_555 1_555
H18 C24 1_555 1_555
H18 H22 1_555 1_555
H19 C24 1_555 1_555
H19 H23 1_555 1_555
C23 C24 1_555 1_555
H20 H21A 1_555 1_555
H21 H20A 1_555 1_555
C24 H22 1_555 1_555
C24 H23 1_555 1_555
C25 H24 1_555 1_555
O2F C7F 1_555 1_555
C1F C7F 1_555 1_555
C3F C8F 1_555 1_555
C5F C6F 1_555 1_555
C14F C15F 1_555 1_555
C17F C18F 1_555 1_555
C19F C20F 1_555 1_555
O7A C21A 1_555 1_555
N4A C21A 1_555 1_555
N4A C22A 1_555 1_555
N4A C24A 1_555 1_555
N4A C25A 1_555 1_555
C21A C22A 1_555 1_555
C21A C24A 1_555 1_555
C21A C25A 1_555 1_555
C22A C24A 1_555 1_555
H18A C24A 1_555 1_555
H18A H22A 1_555 1_555
H19A C24A 1_555 1_555
H19A H23A 1_555 1_555
C24A H22A 1_555 1_555
C24A H23A 1_555 1_555
C25A H24A 1_555 1_555

#END
