
#######################################################################
#
#                 Cambridge Crystallographic Data Centre
#                                CCDC 
#
#######################################################################
#
# If this CIF has been generated from an entry in the Cambridge 
# Structural Database, then it will include bibliographic, chemical, 
# crystal, experimental, refinement or atomic coordinate data resulting 
# from the CCDC's data processing and validation procedures.
#
#######################################################################

data_PUYBER
_symmetry_cell_setting           triclinic
_symmetry_space_group_name_H-M   'P -1'
_symmetry_Int_Tables_number      2
_space_group_name_Hall           '-P 1'
loop_
_symmetry_equiv_pos_site_id
_symmetry_equiv_pos_as_xyz
1 x,y,z
2 -x,-y,-z
_cell_length_a                   12.0172(8)
_cell_length_b                   13.7443(10)
_cell_length_c                   14.0513(10)
_cell_angle_alpha                102.1410(10)
_cell_angle_beta                 99.7870(10)
_cell_angle_gamma                114.2960(10)
_cell_volume                     1980.41
loop_
_atom_site_label
_atom_site_type_symbol
_atom_site_fract_x
_atom_site_fract_y
_atom_site_fract_z
O18 O -0.1832(18) 0.937(4) -0.066(3)
N7 N 0.0053(13) 0.9819(14) 0.0408(13)
C32 C -0.0654(17) 0.981(3) -0.0410(19)
H39 H -0.0242 1.0162 -0.0837
C33 C -0.1440(14) 0.952(2) -0.0680(18)
H40 H -0.1655 0.9031 -0.0266
H41 H -0.1760 0.9069 -0.1383
H42 H -0.1817 1.0009 -0.0570
C34 C -0.0463(19) 0.9160(15) 0.1041(14)
H43 H -0.1181 0.8459 0.0626
H44 H 0.0178 0.9019 0.1403
H45 H -0.0731 0.9562 0.1518
O18A O 0.1832(18) 1.063(4) 0.066(3)
N7A N -0.0053(13) 1.0181(14) -0.0408(13)
C32A C 0.0654(17) 1.019(3) 0.0410(19)
H39A H 0.0242 0.9838 0.0837
C33A C 0.1440(14) 1.048(2) 0.0680(18)
H40A H 0.1655 1.0969 0.0266
H41A H 0.1760 1.0931 0.1383
H42A H 0.1817 0.9991 0.0570
C34A C 0.0463(19) 1.0840(15) -0.1041(14)
H43A H 0.1181 1.1541 -0.0626
H44A H -0.0178 1.0981 -0.1403
H45A H 0.0731 1.0438 -0.1518
Zn1 Zn -0.54185(4) 0.53358(4) -0.32219(4)
Zn2 Zn -0.84516(4) 0.68291(4) -0.85710(3)
O1 O -0.5362(3) 0.4024(3) -0.4261(2)
H1 H -0.5969 0.3757 -0.4772
H2 H -0.4671 0.4279 -0.4423
O2 O -0.7326(3) 0.4631(3) -0.3924(2)
O3 O -0.8172(3) 0.5685(2) -0.9587(2)
H3 H -0.8365 0.5726 -1.0160
H4 H -0.8383 0.4999 -0.9649
O4 O -0.6430(3) 0.5765(3) -0.4763(3)
O5 O -0.9087(3) 0.5738(3) -0.7817(2)
O6 O -1.1155(3) 0.4571(3) -0.8405(2)
O7 O -1.2937(3) 0.1943(3) -0.6522(3)
O8 O -1.1865(3) 0.2274(3) -0.5004(3)
O9 O -0.8253(3) 0.7768(3) -0.9568(2)
O10 O -1.0239(3) 0.6548(3) -0.9828(2)
O11 O -1.3515(3) 0.6104(3) -1.2800(3)
O12 O -1.2940(3) 0.7084(3) -1.3862(3)
O13 O -0.8509(4) 0.9683(4) -1.3167(4)
O14 O -0.7159(4) 1.0119(3) -1.1740(3)
O15 O -0.5453(3) 0.6792(3) -0.2387(2)
O16 O -0.6606(3) 0.7640(3) -0.7666(2)
O17 O -0.8808(3) 0.7977(3) -0.7534(2)
N1 N -0.5658(3) 0.4605(3) -0.2083(3)
N2 N -1.1975(4) 0.2466(3) -0.5814(3)
N3 N -0.8217(4) 0.9563(4) -1.2345(4)
N4 N -0.4726(5) 0.8655(4) -0.1836(4)
N5 N -0.5204(3) 0.8363(3) -0.6109(3)
N6 N -0.9934(4) 0.8408(3) -0.6573(3)
C1 C -0.8663(4) 0.4591(3) -0.5376(3)
C2 C -0.8803(4) 0.4965(3) -0.6202(3)
H5 H -0.8088 0.5513 -0.6291
C3 C -0.9972(4) 0.4550(3) -0.6900(3)
C4 C -1.1035(4) 0.3730(3) -0.6770(3)
H6 H -1.1837 0.3438 -0.7228
C5 C -1.0875(4) 0.3362(3) -0.5950(3)
C6 C -0.9709(4) 0.3775(3) -0.5240(3)
H7 H -0.9636 0.3509 -0.4688
C7 C -0.7387(4) 0.5031(4) -0.4639(3)
C8 C -1.0104(4) 0.4977(4) -0.7793(3)
C9 C -0.9766(4) 0.7591(3) -1.0988(3)
C10 C -1.1030(4) 0.7062(3) -1.1597(3)
H8 H -1.1658 0.6518 -1.1424
C11 C -1.1352(4) 0.7342(3) -1.2453(3)
C12 C -1.0426(4) 0.8156(4) -1.2707(3)
H9 H -1.0626 0.8351 -1.3285
C13 C -0.9201(4) 0.8672(4) -1.2083(3)
C14 C -0.8849(4) 0.8409(3) -1.1242(3)
H10 H -0.8004 0.8775 -1.0845
C15 C -0.9395(4) 0.7278(3) -1.0067(3)
C16 C -1.2731(4) 0.6793(4) -1.3106(3)
C17 C -0.6551(5) 0.4567(4) -0.1640(4)
H11 H -0.7014 0.4939 -0.1806
C18 C -0.6824(5) 0.4006(4) -0.0952(4)
H12 H -0.7461 0.4001 -0.0656
C19 C -0.6158(6) 0.3449(4) -0.0695(4)
C20 C -0.5250(6) 0.3505(5) -0.1128(4)
H13 H -0.4767 0.3149 -0.0964
C21 C -0.5013(5) 0.4079(4) -0.1814(4)
H14 H -0.4367 0.4100 -0.2106
C22 C -0.6461(8) 0.2812(6) 0.0051(5)
H15 H -0.6818 0.2022 -0.0293
H16 H -0.7063 0.2956 0.0346
H17 H -0.5694 0.3050 0.0578
C23 C -0.4839(5) 0.7726(4) -0.2438(4)
H18 H -0.4421 0.7788 -0.2939
C24 C -0.5373(8) 0.8597(7) -0.1077(6)
H19 H -0.5939 0.7826 -0.1170
H20 H -0.5856 0.9003 -0.1131
H21 H -0.4763 0.8923 -0.0418
C25 C -0.3999(9) 0.9733(6) -0.2010(8)
H22 H -0.3858 0.9592 -0.2666
H23 H -0.3193 1.0159 -0.1494
H24 H -0.4472 1.0151 -0.1981
C26 C -0.6343(4) 0.7812(4) -0.6751(3)
H25 H -0.7021 0.7522 -0.6483
C27 C -0.4954(5) 0.8504(5) -0.5035(4)
H26 H -0.5742 0.8125 -0.4885
H27 H -0.4552 0.9290 -0.4660
H28 H -0.4400 0.8191 -0.4845
C28 C -0.4100(5) 0.8838(5) -0.6485(4)
H29 H -0.4381 0.8662 -0.7210
H30 H -0.3540 0.8525 -0.6317
H31 H -0.3655 0.9639 -0.6176
C29 C -0.9752(5) 0.7729(4) -0.7245(4)
H32 H -1.0398 0.6992 -0.7528
C30 C -1.1091(6) 0.8041(6) -0.6255(6)
H33 H -1.1603 0.7244 -0.6560
H34 H -1.1563 0.8415 -0.6467
H35 H -1.0870 0.8223 -0.5528
C31 C -0.8953(6) 0.9527(5) -0.6070(5)
H36 H -0.8257 0.9667 -0.6361
H37 H -0.8659 0.9626 -0.5360
H38 H -0.9281 1.0045 -0.6149
Zn1_2 Zn -1.54185(4) 0.53358(4) -1.32219(4)
O11_2 O -0.3515(3) 0.6104(3) -0.2800(3)
loop_
_geom_bond_atom_site_label_1
_geom_bond_atom_site_label_2
_geom_bond_site_symmetry_1
_geom_bond_site_symmetry_2
Zn1 O1 1_555 1_555
Zn2 O3 1_555 1_555
O1 H1 1_555 1_555
H2 O1 1_555 1_555
O2 Zn1 1_555 1_555
O3 H3 1_555 1_555
H4 O3 1_555 1_555
O4 C7 1_555 1_555
O5 Zn2 1_555 1_555
O6 C8 1_555 1_555
O7 N2 1_555 1_555
O8 N2 1_555 1_555
O9 Zn2 1_555 1_555
O10 Zn2 1_555 1_555
O11 C16 1_555 1_555
O12 C16 1_555 1_555
O13 N3 1_555 1_555
O14 N3 1_555 1_555
O15 Zn1 1_555 1_555
O16 Zn2 1_555 1_555
O17 Zn2 1_555 1_555
N1 Zn1 1_555 1_555
N2 C5 1_555 1_555
N3 C13 1_555 1_555
N4 C23 1_555 1_555
N5 C26 1_555 1_555
N6 C29 1_555 1_555
C1 C2 1_555 1_555
C2 H5 1_555 1_555
C3 C2 1_555 1_555
C4 C3 1_555 1_555
H6 C4 1_555 1_555
C5 C4 1_555 1_555
C6 C1 1_555 1_555
H7 C6 1_555 1_555
C7 O2 1_555 1_555
C8 O5 1_555 1_555
C9 C10 1_555 1_555
C10 H8 1_555 1_555
C11 C10 1_555 1_555
C12 C11 1_555 1_555
H9 C12 1_555 1_555
C13 C12 1_555 1_555
C14 C9 1_555 1_555
H10 C14 1_555 1_555
C15 O9 1_555 1_555
C16 C11 1_555 1_555
C17 N1 1_555 1_555
H11 C17 1_555 1_555
C18 C17 1_555 1_555
H12 C18 1_555 1_555
C19 C18 1_555 1_555
C20 C19 1_555 1_555
H13 C20 1_555 1_555
C21 N1 1_555 1_555
H14 C21 1_555 1_555
C22 C19 1_555 1_555
H15 C22 1_555 1_555
H16 C22 1_555 1_555
H17 C22 1_555 1_555
C23 O15 1_555 1_555
H18 C23 1_555 1_555
C24 N4 1_555 1_555
H19 C24 1_555 1_555
H20 C24 1_555 1_555
H21 C24 1_555 1_555
C25 N4 1_555 1_555
H22 C25 1_555 1_555
H23 C25 1_555 1_555
H24 C25 1_555 1_555
C26 O16 1_555 1_555
H25 C26 1_555 1_555
C27 N5 1_555 1_555
H26 C27 1_555 1_555
H27 C27 1_555 1_555
H28 C27 1_555 1_555
C28 N5 1_555 1_555
H29 C28 1_555 1_555
H30 C28 1_555 1_555
H31 C28 1_555 1_555
C29 O17 1_555 1_555
H32 C29 1_555 1_555
C30 N6 1_555 1_555
H33 C30 1_555 1_555
H34 C30 1_555 1_555
H35 C30 1_555 1_555
C31 N6 1_555 1_555
H36 C31 1_555 1_555
H37 C31 1_555 1_555
H38 C31 1_555 1_555
O18 C32 1_555 1_555
N7 C32 1_555 1_555
C32 H39 1_555 1_555
H39 N7A 1_555 1_555
C33 O18 1_555 1_555
H40 O18 1_555 1_555
H41 O18 1_555 1_555
H42 O18 1_555 1_555
C34 N7 1_555 1_555
H43 C34 1_555 1_555
H44 C34 1_555 1_555
H45 C34 1_555 1_555
Zn1_2 O11 1_555 1_555
O11_2 Zn1 1_555 1_555
O18A C32A 1_555 1_555
N7A N7 1_555 1_555
C32A N7 1_555 1_555
H39A N7 1_555 1_555
C33A N7 1_555 1_555
H40A O18A 1_555 1_555
H41A O18A 1_555 1_555
H42A O18A 1_555 1_555
C34A H39 1_555 1_555
H43A C34A 1_555 1_555
H44A C34A 1_555 1_555
H45A C34A 1_555 1_555
O10 C15 1_555 1_555
C1 C7 1_555 1_555
C3 C8 1_555 1_555
C5 C6 1_555 1_555
C9 C15 1_555 1_555
C13 C14 1_555 1_555
C20 C21 1_555 1_555
C32 C33 1_555 1_555
C32 N7A 1_555 1_555
C32 C32A 1_555 1_555
C33 H40 1_555 1_555
C33 H41 1_555 1_555
C33 H42 1_555 1_555
C33 N7A 1_555 1_555
C34 H39A 1_555 1_555
O18A C33A 1_555 1_555
N7A C32A 1_555 1_555
N7A C34A 1_555 1_555
C32A H39A 1_555 1_555
C32A C33A 1_555 1_555
C33A H40A 1_555 1_555
C33A H41A 1_555 1_555
C33A H42A 1_555 1_555

#END
