
#######################################################################
#
#                 Cambridge Crystallographic Data Centre
#                                CCDC 
#
#######################################################################
#
# If this CIF has been generated from an entry in the Cambridge 
# Structural Database, then it will include bibliographic, chemical, 
# crystal, experimental, refinement or atomic coordinate data resulting 
# from the CCDC's data processing and validation procedures.
#
#######################################################################

data_PUYFUL
_symmetry_cell_setting           monoclinic
_symmetry_space_group_name_H-M   'C 2/m'
_symmetry_Int_Tables_number      12
_space_group_name_Hall           '-C 2y'
loop_
_symmetry_equiv_pos_site_id
_symmetry_equiv_pos_as_xyz
1 x,y,z
2 -x,y,-z
3 1/2+x,1/2+y,z
4 1/2-x,1/2+y,-z
5 -x,-y,-z
6 x,-y,z
7 1/2-x,1/2-y,-z
8 1/2+x,1/2-y,z
_cell_length_a                   15.7725(5)
_cell_length_b                   7.5324(2)
_cell_length_c                   14.5010(4)
_cell_angle_alpha                90
_cell_angle_beta                 118.240(2)
_cell_angle_gamma                90
_cell_volume                     1517.73
loop_
_atom_site_label
_atom_site_type_symbol
_atom_site_fract_x
_atom_site_fract_y
_atom_site_fract_z
Ba1 Ba 0.289533(12) 0.0000 0.056857(13)
Cl1 Cl 0.03309(4) 0.19314(8) 0.38035(4)
P1 P 0.06598(5) 0.0000 0.22140(6)
P2 P -0.13263(5) 0.0000 0.21335(6)
O1 O 0.47972(15) 0.0000 0.18668(18)
H1 H 0.5097 -0.0931 0.1887
O2 O 0.12959(10) 0.2325(2) 0.01942(11)
H2 H 0.1178 0.2391 0.0698
H3 H 0.0794 0.1992 -0.0311
O3 O 0.04819(10) 0.1706(2) 0.16407(12)
O4 O 0.17584(14) 0.0000 0.32221(16)
O5 O 0.24535(16) 0.0000 0.21880(18)
O6 O -0.16168(10) -0.1683(2) 0.15380(12)
O7 O -0.16190(15) 0.0000 0.30779(17)
O8 O -0.32053(16) 0.0000 0.19486(18)
C1 C 0.0002(2) 0.0000 0.2992(2)
C2 C 0.2537(2) 0.0000 0.3057(2)
C3 C 0.3469(2) 0.0000 0.4043(3)
H4 H 0.3346 0.0000 0.4645
H5 H 0.3838 0.1062 0.4067
C4 C -0.2571(2) 0.0000 0.2835(3)
C5 C -0.2694(2) 0.0000 0.3794(3)
H6 H -0.2061 0.0000 0.4417
H7 H -0.3051 -0.1062 0.3797
Ba1C Ba 0.210467(12) 0.5000 -0.056857(13)
Ba1A Ba -0.289533(12) 0.0000 -0.056857(13)
Ba1B Ba -0.210467(12) -0.5000 0.056857(13)
Ba1B_2 Ba -0.210467(12) 0.5000 0.056857(13)
Ba1C_2 Ba 0.210467(12) -0.5000 -0.056857(13)
Cl1E Cl 0.03309(4) -0.19314(8) 0.38035(4)
H1E H 0.5097 0.0931 0.1887
O2C O 0.37041(10) -0.2675(2) -0.01942(11)
O2E O 0.12959(10) -0.2325(2) 0.01942(11)
O2F O 0.37041(10) 0.2675(2) -0.01942(11)
H2C H 0.3822 -0.2609 -0.0698
H2E H 0.1178 -0.2391 0.0698
H2F H 0.3822 0.2609 -0.0698
H3C H 0.4206 -0.3008 0.0311
H3E H 0.0794 -0.1992 -0.0311
H3F H 0.4206 0.3008 0.0311
O3E O 0.04819(10) -0.1706(2) 0.16407(12)
O6E O -0.16168(10) 0.1683(2) 0.15380(12)
O6A O 0.16168(10) -0.1683(2) -0.15380(12)
O6B O 0.33832(10) 0.3317(2) 0.15380(12)
O6D O 0.16168(10) 0.1683(2) -0.15380(12)
O6G O 0.33832(10) -0.3317(2) 0.15380(12)
H5E H 0.3838 -0.1062 0.4067
H7E H -0.3051 0.1062 0.3797
loop_
_geom_bond_atom_site_label_1
_geom_bond_atom_site_label_2
_geom_bond_site_symmetry_1
_geom_bond_site_symmetry_2
Ba1 O1 1_555 1_555
Cl1 C1 1_555 1_555
P1 O3 1_555 1_555
P2 O6 1_555 1_555
O1 H1 1_555 1_555
O2 Ba1 1_555 1_555
H2 O2 1_555 1_555
H3 O2 1_555 1_555
O4 P1 1_555 1_555
O5 Ba1 1_555 1_555
O6 Ba1A 1_555 1_555
O7 P2 1_555 1_555
O8 C4 1_555 1_555
C1 P1 1_555 1_555
C2 O4 1_555 1_555
C3 C2 1_555 1_555
H4 C3 1_555 1_555
H5 C3 1_555 1_555
C4 O7 1_555 1_555
C5 C4 1_555 1_555
H6 C5 1_555 1_555
H7 C5 1_555 1_555
Ba1C O2 1_555 1_555
Ba1A O6E 1_555 1_555
Ba1B O6 1_555 1_555
Ba1B_2 O6E 1_555 1_555
Ba1C_2 O2C 1_555 1_555
Cl1E C1 1_555 1_555
H1E O1 1_555 1_555
O2C Ba1 1_555 1_555
O2E Ba1 1_555 1_555
O2F Ba1 1_555 1_555
H2C O2C 1_555 1_555
H2E O2E 1_555 1_555
H2F O2F 1_555 1_555
H3C O2C 1_555 1_555
H3E O2E 1_555 1_555
H3F O2F 1_555 1_555
O3E P1 1_555 1_555
O6E P2 1_555 1_555
O6A Ba1 1_555 1_555
O6B Ba1 1_555 1_555
O6D Ba1 1_555 1_555
O6G Ba1 1_555 1_555
H5E C3 1_555 1_555
H7E C5 1_555 1_555
P2 C1 1_555 1_555
O5 C2 1_555 1_555
Ba1C O2F 1_555 1_555
Ba1C O6B 1_555 1_555
Ba1C O6D 1_555 1_555
Ba1C_2 O2E 1_555 1_555
Ba1C_2 O6A 1_555 1_555
Ba1C_2 O6G 1_555 1_555

#END
