
#######################################################################
#
#                 Cambridge Crystallographic Data Centre
#                                CCDC 
#
#######################################################################
#
# If this CIF has been generated from an entry in the Cambridge 
# Structural Database, then it will include bibliographic, chemical, 
# crystal, experimental, refinement or atomic coordinate data resulting 
# from the CCDC's data processing and validation procedures.
#
#######################################################################

data_PUYGEW
_symmetry_cell_setting           triclinic
_symmetry_space_group_name_H-M   'P -1'
_symmetry_Int_Tables_number      2
_space_group_name_Hall           '-P 1'
loop_
_symmetry_equiv_pos_site_id
_symmetry_equiv_pos_as_xyz
1 x,y,z
2 -x,-y,-z
_cell_length_a                   6.7201(2)
_cell_length_b                   10.4562(5)
_cell_length_c                   16.0580(8)
_cell_angle_alpha                72.827(2)
_cell_angle_beta                 84.164(3)
_cell_angle_gamma                71.395(3)
_cell_volume                     1021.67
loop_
_atom_site_label
_atom_site_type_symbol
_atom_site_fract_x
_atom_site_fract_y
_atom_site_fract_z
K1 K -0.30678(11) 0.62603(7) 0.47925(4)
K2 K -0.73440(11) 0.95964(7) 0.56469(5)
Cl1 Cl -0.50773(12) 0.83187(8) 0.77006(5)
Cl2 Cl -0.08992(13) 0.82011(8) 0.81307(5)
P1 P -0.15461(12) 0.76222(8) 0.64875(5)
P2 P -0.32880(12) 1.05856(8) 0.66715(5)
O1 O -0.3082(3) 0.8044(2) 0.57839(14)
O2 O 0.0646(3) 0.7631(2) 0.62838(15)
O3 O -0.1525(3) 0.6097(2) 0.71684(14)
O4 O -0.0342(3) 0.4806(2) 0.62229(14)
O5 O -0.5182(4) 1.1007(2) 0.61396(14)
O6 O -0.1316(3) 1.0834(2) 0.62565(15)
O7 O -0.3865(3) 1.1186(2) 0.75344(13)
O8 O -0.4928(4) 1.3457(2) 0.67501(14)
O9 O -0.2751(4) 0.3546(2) 0.49830(15)
C1 C -0.2685(5) 0.8687(3) 0.72608(19)
C2 C -0.0710(5) 0.4863(3) 0.6960(2)
C3 C -0.0305(5) 0.3642(3) 0.7750(2)
C4 C -0.0555(5) 0.3833(3) 0.8579(2)
H1 H -0.1087 0.4754 0.8647
C5 C -0.0029(5) 0.2683(4) 0.9305(2)
H2 H -0.0198 0.2809 0.9873
C6 C 0.0744(5) 0.1350(4) 0.9194(3)
H3 H 0.1152 0.0560 0.9689
C7 C 0.0933(5) 0.1150(3) 0.8377(3)
H4 H 0.1425 0.0224 0.8316
C8 C 0.0408(5) 0.2298(3) 0.7639(2)
H5 H 0.0533 0.2166 0.7073
C9 C -0.4629(5) 1.2592(3) 0.7447(2)
C10 C -0.5021(5) 1.2911(3) 0.8303(2)
C11 C -0.5889(5) 1.4323(3) 0.8294(2)
H6 H -0.6180 1.5039 0.7756
C12 C -0.6319(5) 1.4665(4) 0.9079(2)
H7 H -0.6898 1.5622 0.9079
C13 C -0.5910(5) 1.3621(4) 0.9864(2)
H8 H -0.6226 1.3862 1.0399
C14 C -0.5038(5) 1.2224(3) 0.9867(2)
H9 H -0.4746 1.1510 1.0405
C15 C -0.4594(5) 1.1869(3) 0.9088(2)
H10 H -0.3997 1.0912 0.9091
K1A K 0.30678(11) 0.37397(7) 0.52075(4)
K1A_2 K -0.69322(11) 1.37397(7) 0.52075(4)
K1A_3 K -0.69322(11) 0.37397(7) 0.52075(4)
K2A K -0.26560(11) 1.04036(7) 0.43531(5)
K2_2 K 0.26560(11) 0.95964(7) 0.56469(5)
O1A O -0.6918(3) 1.1956(2) 0.42161(14)
O2_2 O -0.9354(3) 0.7631(2) 0.62838(15)
O4A O 0.0342(3) 0.5194(2) 0.37771(14)
O5A O -0.4818(4) 0.8993(2) 0.38604(14)
O6_2 O -1.1316(3) 1.0834(2) 0.62565(15)
O8A O -0.5072(4) 0.6543(2) 0.32499(14)
O9A O -0.7249(4) 0.6454(2) 0.50170(15)
loop_
_geom_bond_atom_site_label_1
_geom_bond_atom_site_label_2
_geom_bond_site_symmetry_1
_geom_bond_site_symmetry_2
K1 O1 1_555 1_555
K2 O1 1_555 1_555
Cl1 C1 1_555 1_555
Cl2 C1 1_555 1_555
P1 O1 1_555 1_555
P2 O5 1_555 1_555
O1 K2A 1_555 1_555
O2 P1 1_555 1_555
O3 P1 1_555 1_555
O4 K1 1_555 1_555
O5 K2 1_555 1_555
O6 P2 1_555 1_555
O7 P2 1_555 1_555
O8 C9 1_555 1_555
O9 K1 1_555 1_555
C1 P1 1_555 1_555
C2 O3 1_555 1_555
C3 C2 1_555 1_555
C4 C3 1_555 1_555
H1 C4 1_555 1_555
C5 C4 1_555 1_555
H2 C5 1_555 1_555
C6 C5 1_555 1_555
H3 C6 1_555 1_555
C7 C6 1_555 1_555
H4 C7 1_555 1_555
C8 C3 1_555 1_555
H5 C8 1_555 1_555
C9 O7 1_555 1_555
C10 C9 1_555 1_555
C11 C10 1_555 1_555
H6 C11 1_555 1_555
C12 C11 1_555 1_555
H7 C12 1_555 1_555
C13 C12 1_555 1_555
H8 C13 1_555 1_555
C14 C13 1_555 1_555
H9 C14 1_555 1_555
C15 C10 1_555 1_555
H10 C15 1_555 1_555
K1A O4 1_555 1_555
K1A_2 O5 1_555 1_555
K1A_3 O9 1_555 1_555
K2A O5 1_555 1_555
K2_2 O2 1_555 1_555
O1A K2 1_555 1_555
O2_2 K2 1_555 1_555
O4A K1 1_555 1_555
O5A K1 1_555 1_555
O6_2 K2 1_555 1_555
O8A K1 1_555 1_555
O9A K1 1_555 1_555
K2 O5A 1_555 1_555
P2 C1 1_555 1_555
O4 C2 1_555 1_555
O6 K2_2 1_555 1_555
O8 K1A_2 1_555 1_555
C7 C8 1_555 1_555
C14 C15 1_555 1_555
K1A O4A 1_555 1_555
K1A_2 O1A 1_555 1_555
K1A_3 O9A 1_555 1_555
K2A O1A 1_555 1_555
K2A O5A 1_555 1_555

#END
