
#######################################################################
#
#                 Cambridge Crystallographic Data Centre
#                                CCDC 
#
#######################################################################
#
# If this CIF has been generated from an entry in the Cambridge 
# Structural Database, then it will include bibliographic, chemical, 
# crystal, experimental, refinement or atomic coordinate data resulting 
# from the CCDC's data processing and validation procedures.
#
#######################################################################

data_PUYJUO
_symmetry_cell_setting           orthorhombic
_symmetry_space_group_name_H-M   'C c c m'
_symmetry_Int_Tables_number      66
_space_group_name_Hall           '-C 2 2c'
loop_
_symmetry_equiv_pos_site_id
_symmetry_equiv_pos_as_xyz
1 x,y,z
2 1/2+x,1/2+y,z
3 -x,-y,z
4 x,-y,1/2-z
5 -x,y,1/2-z
6 1/2-x,1/2-y,z
7 1/2+x,1/2-y,1/2-z
8 1/2-x,1/2+y,1/2-z
9 -x,-y,-z
10 1/2-x,1/2-y,-z
11 x,y,-z
12 -x,y,1/2+z
13 x,-y,1/2+z
14 1/2+x,1/2+y,-z
15 1/2-x,1/2+y,1/2+z
16 1/2+x,1/2-y,1/2+z
_cell_length_a                   6.4040(10)
_cell_length_b                   12.2290(10)
_cell_length_c                   15.1660(10)
_cell_angle_alpha                90
_cell_angle_beta                 90
_cell_angle_gamma                90
_cell_volume                     1187.72
loop_
_atom_site_label
_atom_site_type_symbol
_atom_site_fract_x
_atom_site_fract_y
_atom_site_fract_z
Ag1 Ag 0.0000 0.0000 0.5000
N1 N -0.2844(6) 0.0934(3) 0.5000
C1 C -0.3753(8) 0.1243(5) 0.5736(3)
H1 H -0.3140 0.1042 0.6268
C2 C -0.5575(10) 0.1853(6) 0.5762(3)
H2 H -0.6155 0.2044 0.6302
C3 C -0.6524(6) 0.2174(3) 0.5000
C2J C -0.5575(10) 0.1853(6) 0.4238(3)
C1J C -0.3753(8) 0.1243(5) 0.4264(3)
H1J H -0.3140 0.1042 0.3732
H2J H -0.6155 0.2044 0.3698
C3I C -0.8476(6) 0.2826(3) 0.5000
C2I C -0.9425(10) 0.3147(6) 0.4238(3)
C1I C -1.1247(8) 0.3757(5) 0.4264(3)
N1I N -1.2156(6) 0.4066(3) 0.5000
C1E C -1.1247(8) 0.3757(5) 0.5736(3)
H1E H -1.1860 0.3958 0.6268
C2E C -0.9425(10) 0.3147(6) 0.5762(3)
H2E H -0.8845 0.2956 0.6302
H1I H -1.1860 0.3958 0.3732
H2I H -0.8845 0.2956 0.3698
N1H N 0.2844(6) -0.0934(3) 0.5000
Ag1A Ag -1.5000 0.5000 0.5000
B1 B 0.0000 0.0000 0.2500
F1 F -0.0982(15) -0.0602(6) 0.3062(6)
F1B F 0.0982(15) 0.0602(6) 0.3062(6)
F1C F -0.0982(15) 0.0602(6) 0.1938(6)
F1D F 0.0982(15) -0.0602(6) 0.1938(6)
loop_
_geom_bond_atom_site_label_1
_geom_bond_atom_site_label_2
_geom_bond_site_symmetry_1
_geom_bond_site_symmetry_2
Ag1 N1 1_555 1_555
N1 C1 1_555 1_555
C1 H1 1_555 1_555
C2 C1 1_555 1_555
H2 C2 1_555 1_555
C3 C2 1_555 1_555
B1 F1 1_555 1_555
C2J C3 1_555 1_555
C1J N1 1_555 1_555
H1J C1J 1_555 1_555
H2J C2J 1_555 1_555
C3I C3 1_555 1_555
C2I C3I 1_555 1_555
C1I C2I 1_555 1_555
N1I C1I 1_555 1_555
C1E N1I 1_555 1_555
H1E C1E 1_555 1_555
C2E C3I 1_555 1_555
H2E C2E 1_555 1_555
H1I C1I 1_555 1_555
H2I C2I 1_555 1_555
N1H Ag1 1_555 1_555
Ag1A N1I 1_555 1_555
F1B B1 1_555 1_555
F1C B1 1_555 1_555
F1D B1 1_555 1_555
C2J C1J 1_555 1_555
C1E C2E 1_555 1_555

#END
