
#######################################################################
#
#                 Cambridge Crystallographic Data Centre
#                                CCDC 
#
#######################################################################
#
# If this CIF has been generated from an entry in the Cambridge 
# Structural Database, then it will include bibliographic, chemical, 
# crystal, experimental, refinement or atomic coordinate data resulting 
# from the CCDC's data processing and validation procedures.
#
#######################################################################

data_PUYSUY
_symmetry_cell_setting           triclinic
_symmetry_space_group_name_H-M   'P -1'
_symmetry_Int_Tables_number      2
_space_group_name_Hall           '-P 1'
loop_
_symmetry_equiv_pos_site_id
_symmetry_equiv_pos_as_xyz
1 x,y,z
2 -x,-y,-z
_cell_length_a                   11.3151(19)
_cell_length_b                   13.296(2)
_cell_length_c                   15.131(3)
_cell_angle_alpha                97.730(3)
_cell_angle_beta                 105.271(3)
_cell_angle_gamma                103.569(3)
_cell_volume                     2087.43
loop_
_atom_site_label
_atom_site_type_symbol
_atom_site_fract_x
_atom_site_fract_y
_atom_site_fract_z
C1 C 0.4704(9) 0.1138(8) 0.7145(7)
C2 C 0.5502(12) 0.1991(9) 0.6822(9)
C3 C 0.6601(10) 0.0453(7) 0.7797(8)
C4 C 0.3410(10) 0.1032(9) 0.6963(8)
H1 H 0.3053 0.1487 0.6635
C5 C 0.2648(10) 0.0278(9) 0.7253(9)
H2 H 0.1780 0.0217 0.7114
C6 C 0.3160(10) -0.0401(8) 0.7754(9)
H3 H 0.2644 -0.0914 0.7957
C7 C 0.4466(10) -0.0300(7) 0.7949(8)
C8 C 0.5232(8) 0.0446(7) 0.7638(7)
C9 C 0.4337(10) -0.1738(8) 0.8740(10)
C10 C 0.4306(13) -0.1587(9) 0.9646(11)
H4 H 0.4741 -0.0937 1.0052
C11 C 0.3632(13) -0.2398(9) 0.9958(9)
H5 H 0.3599 -0.2291 1.0570
C12 C 0.3009(10) -0.3365(8) 0.9360(8)
H6 H 0.2547 -0.3912 0.9564
C13 C 0.3074(9) -0.3514(7) 0.8472(8)
C14 C 0.3707(9) -0.2710(7) 0.8127(8)
H7 H 0.3712 -0.2816 0.7508
C15 C 0.0195(9) -0.6120(7) 0.7096(7)
C16 C 0.0348(9) -0.8170(7) 0.7606(8)
C17 C 0.1467(9) -0.7213(7) 0.7977(7)
C18 C 0.1412(9) -0.6250(7) 0.7722(6)
C19 C 0.2503(9) -0.5386(7) 0.8092(7)
C20 C 0.3623(10) -0.5484(8) 0.8663(8)
H8 H 0.4343 -0.4902 0.8892
C21 C 0.3679(11) -0.6446(8) 0.8896(8)
H9 H 0.4441 -0.6516 0.9269
C22 C 0.2612(10) -0.7297(8) 0.8579(7)
H10 H 0.2642 -0.7934 0.8760
C23 C 0.7087(11) 0.4845(10) 0.8353(9)
H11 H 0.7275 0.4333 0.8685
C24 C 0.6861(11) 0.5737(12) 0.8817(9)
H12 H 0.6948 0.5830 0.9453
C25 C 0.6516(12) 0.6454(11) 0.8331(11)
H13 H 0.6327 0.7030 0.8625
C26 C 0.6445(10) 0.6330(9) 0.7384(10)
C27 C 0.6134(11) 0.7049(10) 0.6799(12)
H14 H 0.5926 0.7638 0.7048
C28 C 0.6133(11) 0.6905(10) 0.5906(11)
H15 H 0.5917 0.7390 0.5549
C29 C 0.6450(10) 0.6043(9) 0.5503(9)
C30 C 0.6548(12) 0.5874(12) 0.4598(10)
H16 H 0.6346 0.6339 0.4213
C31 C 0.6935(13) 0.5040(13) 0.4265(9)
H17 H 0.7034 0.4953 0.3671
C32 C 0.7182(11) 0.4309(11) 0.4843(9)
H18 H 0.7410 0.3723 0.4610
C33 C 0.6748(9) 0.5292(9) 0.6036(8)
C34 C 0.6733(9) 0.5444(8) 0.6978(8)
C35 C 0.9098(12) -0.1112(9) 0.9120(9)
H19 H 0.8863 -0.0599 0.9461
C36 C 0.9498(14) -0.1889(12) 0.9572(10)
H20 H 0.9525 -0.1892 1.0191
C37 C 0.9845(13) -0.2636(11) 0.9065(11)
H21 H 1.0130 -0.3151 0.9347
C38 C 0.9779(11) -0.2638(8) 0.8129(10)
C39 C 1.0058(12) -0.3411(10) 0.7534(14)
H22 H 1.0288 -0.3970 0.7772
C40 C 1.0007(12) -0.3371(10) 0.6663(12)
H23 H 1.0195 -0.3898 0.6299
C41 C 0.9663(10) -0.2518(8) 0.6270(9)
C42 C 0.9622(12) -0.2399(11) 0.5351(10)
H24 H 0.9851 -0.2878 0.4968
C43 C 0.9253(12) -0.1592(11) 0.5029(9)
H25 H 0.9216 -0.1515 0.4421
C44 C 0.8927(11) -0.0869(9) 0.5610(8)
H26 H 0.8659 -0.0321 0.5374
C45 C 0.9345(9) -0.1752(7) 0.6808(8)
C46 C 0.9380(9) -0.1811(7) 0.7747(8)
N1 N 0.7044(8) 0.4709(7) 0.7469(6)
N2 N 0.7095(8) 0.4440(7) 0.5704(6)
N3 N 0.9037(8) -0.1069(6) 0.8241(6)
N4 N 0.8983(8) -0.0932(6) 0.6474(6)
O1 O 0.6662(7) 0.2331(6) 0.7253(6)
O2 O 0.4996(10) 0.2327(10) 0.6136(8)
O3 O 0.6848(7) 0.0021(5) 0.7085(5)
O4 O 0.7414(7) 0.0786(6) 0.8573(6)
O5 O 0.5048(7) -0.0951(6) 0.8425(7)
O6 O 0.2413(7) -0.4452(5) 0.7817(5)
O7 O 0.0205(7) -0.8789(5) 0.8162(5)
O8 O -0.0374(7) -0.8355(5) 0.6802(6)
O9 O -0.0716(6) -0.6211(5) 0.7455(5)
O10 O 0.0177(7) -0.5923(6) 0.6319(5)
O11 O 0.7664(8) 0.2299(6) 0.5600(5)
H27 H 0.6811 0.1889 0.5598
H28 H 0.8567 0.2178 0.5765
Zn1 Zn 0.74753(11) 0.34524(9) 0.66513(9)
Zn2 Zn 0.86470(11) 0.00721(8) 0.75024(8)
O7_2 O 1.0205(7) 0.1211(5) 0.8162(5)
O9_2 O 0.9284(6) 0.3789(5) 0.7455(5)
Zn1_2 Zn -0.25247(11) -0.65476(9) 0.66513(9)
Zn2_2 Zn -0.13530(11) -0.99279(8) 0.75024(8)
O12 O 0.581(5) 0.972(3) 0.5341(11)
H29 H 0.6466 1.0063 0.5279
H30 H 0.4766 0.8920 0.5385
O13 O 0.8914(11) 0.3198(9) 0.9066(7)
H31 H 0.9570 0.3530 0.8692
H32 H 0.7983 0.3225 0.8424
loop_
_geom_bond_atom_site_label_1
_geom_bond_atom_site_label_2
_geom_bond_site_symmetry_1
_geom_bond_site_symmetry_2
C1 C2 1_555 1_555
C2 O1 1_555 1_555
C3 C8 1_555 1_555
C4 C1 1_555 1_555
H1 C4 1_555 1_555
C5 C4 1_555 1_555
H2 C5 1_555 1_555
C6 C5 1_555 1_555
H3 C6 1_555 1_555
C7 C6 1_555 1_555
C8 C1 1_555 1_555
C9 C10 1_555 1_555
C10 H4 1_555 1_555
C11 C10 1_555 1_555
H5 C11 1_555 1_555
C12 C11 1_555 1_555
H6 C12 1_555 1_555
C13 C12 1_555 1_555
C14 C9 1_555 1_555
H7 C14 1_555 1_555
C15 C18 1_555 1_555
C16 C17 1_555 1_555
C17 C18 1_555 1_555
C18 C19 1_555 1_555
C19 C20 1_555 1_555
C20 H8 1_555 1_555
C21 C20 1_555 1_555
H9 C21 1_555 1_555
C22 C17 1_555 1_555
H10 C22 1_555 1_555
C23 H11 1_555 1_555
C24 C23 1_555 1_555
H12 C24 1_555 1_555
C25 C24 1_555 1_555
H13 C25 1_555 1_555
C26 C25 1_555 1_555
C27 C26 1_555 1_555
H14 C27 1_555 1_555
C28 C27 1_555 1_555
H15 C28 1_555 1_555
C29 C28 1_555 1_555
C30 C29 1_555 1_555
H16 C30 1_555 1_555
C31 C30 1_555 1_555
H17 C31 1_555 1_555
C32 C31 1_555 1_555
H18 C32 1_555 1_555
C33 C29 1_555 1_555
C34 C26 1_555 1_555
C35 H19 1_555 1_555
C36 C35 1_555 1_555
H20 C36 1_555 1_555
C37 C36 1_555 1_555
H21 C37 1_555 1_555
C38 C37 1_555 1_555
C39 C38 1_555 1_555
H22 C39 1_555 1_555
C40 C39 1_555 1_555
H23 C40 1_555 1_555
C41 C40 1_555 1_555
C42 C41 1_555 1_555
H24 C42 1_555 1_555
C43 C42 1_555 1_555
H25 C43 1_555 1_555
C44 C43 1_555 1_555
H26 C44 1_555 1_555
C45 C41 1_555 1_555
C46 C38 1_555 1_555
N1 C23 1_555 1_555
N2 C32 1_555 1_555
N3 C35 1_555 1_555
N4 C44 1_555 1_555
O1 Zn1 1_555 1_555
O2 C2 1_555 1_555
O3 C3 1_555 1_555
O4 C3 1_555 1_555
O5 C7 1_555 1_555
O6 C13 1_555 1_555
O7 C16 1_555 1_555
O8 C16 1_555 1_555
O9 C15 1_555 1_555
O10 C15 1_555 1_555
O11 H27 1_555 1_555
H28 O11 1_555 1_555
O12 H29 1_555 1_555
H30 O12 1_555 1_555
O13 H31 1_555 1_555
H32 O13 1_555 1_555
Zn1 N1 1_555 1_555
Zn2 N3 1_555 1_555
O7_2 Zn2 1_555 1_555
O9_2 Zn1 1_555 1_555
Zn1_2 O9 1_555 1_555
Zn2_2 O7 1_555 1_555
C7 C8 1_555 1_555
C9 O5 1_555 1_555
C13 C14 1_555 1_555
C19 O6 1_555 1_555
C21 C22 1_555 1_555
C33 C34 1_555 1_555
C33 N2 1_555 1_555
C34 N1 1_555 1_555
C45 C46 1_555 1_555
C45 N4 1_555 1_555
C46 N3 1_555 1_555
N2 Zn1 1_555 1_555
N4 Zn2 1_555 1_555
O3 Zn2 1_555 1_555
O11 Zn1 1_555 1_555

#END
