
#######################################################################
#
#                 Cambridge Crystallographic Data Centre
#                                CCDC 
#
#######################################################################
#
# If this CIF has been generated from an entry in the Cambridge 
# Structural Database, then it will include bibliographic, chemical, 
# crystal, experimental, refinement or atomic coordinate data resulting 
# from the CCDC's data processing and validation procedures.
#
#######################################################################

data_PUYTIN
_symmetry_cell_setting           monoclinic
_symmetry_space_group_name_H-M   'P 21/n'
_symmetry_Int_Tables_number      14
_space_group_name_Hall           '-P 2yn'
loop_
_symmetry_equiv_pos_site_id
_symmetry_equiv_pos_as_xyz
1 x,y,z
2 1/2-x,1/2+y,1/2-z
3 -x,-y,-z
4 1/2+x,1/2-y,1/2+z
_cell_length_a                   13.9446(15)
_cell_length_b                   13.2135(14)
_cell_length_c                   14.1476(15)
_cell_angle_alpha                90
_cell_angle_beta                 106.996(2)
_cell_angle_gamma                90
_cell_volume                     2492.94
loop_
_atom_site_label
_atom_site_type_symbol
_atom_site_fract_x
_atom_site_fract_y
_atom_site_fract_z
C1 C 0.8621(4) -0.1685(4) 0.7746(4)
H1 H 0.8531 -0.2256 0.7321
C2 C 0.8529(4) -0.0730(4) 0.7317(4)
H2 H 0.8367 -0.0657 0.6620
C3 C 0.8680(4) 0.0117(4) 0.7927(4)
C4 C 0.8863(4) -0.0055(4) 0.8943(4)
H3 H 0.8943 0.0501 0.9385
C5 C 0.8927(4) -0.1040(4) 0.9303(4)
H4 H 0.9046 -0.1141 0.9992
C6 C 0.8444(4) 0.1470(3) 0.6671(4)
C7 C 0.8573(4) 0.2591(4) 0.6543(4)
C8 C 0.8820(4) 0.3277(4) 0.7324(3)
H5 H 0.8946 0.3039 0.7982
C9 C 0.8883(4) 0.4309(4) 0.7152(3)
C10 C 0.8741(4) 0.4660(4) 0.6187(3)
H6 H 0.8794 0.5362 0.6068
C11 C 0.8521(4) 0.3977(4) 0.5404(3)
C12 C 0.8414(4) 0.2942(4) 0.5579(4)
H7 H 0.8233 0.2481 0.5041
C13 C 0.9069(4) 0.5025(3) 0.8006(3)
C14 C 0.8339(4) 0.4279(4) 0.4340(4)
C15 C 0.8316(4) 0.5587(4) 0.1484(4)
H8 H 0.8148 0.5206 0.0890
C16 C 0.8349(4) 0.5084(4) 0.2351(4)
H9 H 0.8195 0.4383 0.2345
C17 C 0.8616(4) 0.5633(4) 0.3235(4)
C18 C 0.8832(4) 0.6662(4) 0.3196(4)
H10 H 0.9023 0.7059 0.3781
C19 C 0.8760(4) 0.7093(4) 0.2278(4)
H11 H 0.8900 0.7795 0.2259
C20 C 1.1232(4) -0.2697(4) 0.9988(4)
C21 C 1.2295(5) -0.2379(6) 1.0108(5)
H12 H 1.2310 -0.1904 0.9580
H13 H 1.2700 -0.2975 1.0071
H14 H 1.2568 -0.2048 1.0751
N1 N 0.8827(3) -0.1854(3) 0.8712(3)
N2 N 0.8674(3) 0.1121(3) 0.7627(3)
H22 H 0.8834 0.1579 0.8098
N3 N 0.8693(3) 0.5210(3) 0.4173(3)
H23 H 0.8994 0.5576 0.4695
N4 N 0.8506(4) 0.6586(3) 0.1426(3)
O1 O 0.8143(4) 0.0911(3) 0.5959(3)
O2 O 0.9404(3) 0.4680(2) 0.8878(3)
O3 O 0.8876(3) 0.5956(3) 0.7832(3)
O4 O 0.7914(3) 0.3701(3) 0.3673(3)
O5 O 1.0839(3) -0.3349(3) 0.9327(3)
O6 O 1.0756(3) -0.2304(3) 1.0534(3)
Pb1 Pb 0.926810(14) -0.358000(13) 0.962830(12)
O2_2 O 0.9404(3) -0.5320(2) 0.8878(3)
O2B O 1.0596(3) -0.4680(2) 1.1122(3)
O3_2 O 0.8876(3) -0.4044(3) 0.7832(3)
Pb1_2 Pb 0.926810(14) 0.642000(13) 0.962830(12)
Pb1B Pb 1.073190(14) 0.358000(13) 1.037170(12)
C22 C 0.5044(4) 0.7835(4) 0.1328(4)
H15 H 0.5166 0.8286 0.1874
C23 C 0.5269(6) 0.6156(5) 0.0707(5)
H16 H 0.4827 0.6443 0.0096
H17 H 0.4967 0.5540 0.0878
H18 H 0.5920 0.5993 0.0612
C24 C 0.6035(5) 0.6600(5) 0.2476(5)
H19 H 0.6723 0.6491 0.2454
H20 H 0.5775 0.5973 0.2679
H21 H 0.6029 0.7137 0.2952
N5 N 0.5410(4) 0.6894(4) 0.1507(3)
O7 O 0.4566(3) 0.8161(3) 0.0521(3)
loop_
_geom_bond_atom_site_label_1
_geom_bond_atom_site_label_2
_geom_bond_site_symmetry_1
_geom_bond_site_symmetry_2
C1 H1 1_555 1_555
C2 C1 1_555 1_555
H2 C2 1_555 1_555
C3 C2 1_555 1_555
C4 C3 1_555 1_555
H3 C4 1_555 1_555
C5 C4 1_555 1_555
H4 C5 1_555 1_555
C6 C7 1_555 1_555
C7 C8 1_555 1_555
C8 H5 1_555 1_555
C9 C8 1_555 1_555
C10 C9 1_555 1_555
H6 C10 1_555 1_555
C11 C10 1_555 1_555
C12 C7 1_555 1_555
H7 C12 1_555 1_555
C13 C9 1_555 1_555
C14 C11 1_555 1_555
C15 H8 1_555 1_555
C16 C15 1_555 1_555
H9 C16 1_555 1_555
C17 C16 1_555 1_555
C18 C17 1_555 1_555
H10 C18 1_555 1_555
C19 C18 1_555 1_555
H11 C19 1_555 1_555
C20 C21 1_555 1_555
C21 H12 1_555 1_555
H13 C21 1_555 1_555
H14 C21 1_555 1_555
C22 H15 1_555 1_555
C23 H16 1_555 1_555
H17 C23 1_555 1_555
H18 C23 1_555 1_555
C24 H19 1_555 1_555
H20 C24 1_555 1_555
H21 C24 1_555 1_555
N1 C1 1_555 1_555
N2 C3 1_555 1_555
H22 N2 1_555 1_555
N3 C14 1_555 1_555
H23 N3 1_555 1_555
N4 C15 1_555 1_555
N5 C22 1_555 1_555
O1 C6 1_555 1_555
O2 C13 1_555 1_555
O3 C13 1_555 1_555
O4 C14 1_555 1_555
O5 C20 1_555 1_555
O6 C20 1_555 1_555
O7 C22 1_555 1_555
Pb1 N1 1_555 1_555
O2_2 Pb1 1_555 1_555
O2B Pb1 1_555 1_555
O3_2 Pb1 1_555 1_555
Pb1_2 O2 1_555 1_555
Pb1B O2 1_555 1_555
C5 N1 1_555 1_555
C6 N2 1_555 1_555
C11 C12 1_555 1_555
C17 N3 1_555 1_555
C19 N4 1_555 1_555
C23 N5 1_555 1_555
C24 N5 1_555 1_555
O3 Pb1_2 1_555 1_555
O5 Pb1 1_555 1_555
O6 Pb1 1_555 1_555

#END
