
#######################################################################
#
#                 Cambridge Crystallographic Data Centre
#                                CCDC 
#
#######################################################################
#
# If this CIF has been generated from an entry in the Cambridge 
# Structural Database, then it will include bibliographic, chemical, 
# crystal, experimental, refinement or atomic coordinate data resulting 
# from the CCDC's data processing and validation procedures.
#
#######################################################################

data_PUYTAF
_symmetry_cell_setting           monoclinic
_symmetry_space_group_name_H-M   'C 2/c'
_symmetry_Int_Tables_number      15
_space_group_name_Hall           '-C 2yn'
loop_
_symmetry_equiv_pos_site_id
_symmetry_equiv_pos_as_xyz
1 x,y,z
2 -x,y,1/2-z
3 1/2+x,1/2+y,z
4 1/2-x,1/2+y,1/2-z
5 -x,-y,-z
6 x,-y,1/2+z
7 1/2-x,1/2-y,-z
8 1/2+x,1/2-y,1/2+z
_cell_length_a                   16.5456(12)
_cell_length_b                   16.5939(12)
_cell_length_c                   15.3216(11)
_cell_angle_alpha                90
_cell_angle_beta                 97.6390(10)
_cell_angle_gamma                90
_cell_volume                     4169.3
loop_
_atom_site_label
_atom_site_type_symbol
_atom_site_fract_x
_atom_site_fract_y
_atom_site_fract_z
Zn1 Zn -0.124754(17) 0.20842(2) 1.330020(18)
O1 O -0.22709(18) 0.15053(19) 1.19383(15)
O3 O -0.10334(13) 0.19921(16) 1.20800(13)
O4 O 0.01723(12) 0.25757(12) 1.09214(13)
O6 O 0.03356(12) 0.12787(12) 1.10287(13)
O8 O -0.02643(11) 0.18303(13) 0.89822(12)
N1 N -0.19356(14) 0.31372(15) 1.33627(15)
N2 N -0.22282(13) 0.16482(13) 1.38656(14)
C1 C 0.0000 0.0142(3) 0.7500
H7 H 0.0000 -0.0418 0.7500
C2 C -0.01679(17) 0.05607(18) 0.82427(18)
H8 H -0.0279 0.0284 0.8741
C3 C -0.01666(14) 0.13890(16) 0.82274(15)
C4 C 0.0000 0.1822(2) 0.7500
H9 H 0.0000 0.2382 0.7500
C5 C -0.09786(14) 0.17014(15) 0.93481(15)
C6 C -0.17136(16) 0.15742(16) 0.88218(16)
H10 H -0.1738 0.1562 0.8212
C7 C -0.24115(16) 0.14661(17) 0.92120(18)
H11 H -0.2908 0.1372 0.8865
C8 C -0.16548(17) 0.17059(16) 1.16226(16)
C9 C -0.23740(16) 0.14971(16) 1.01141(18)
H12 H -0.2846 0.1421 1.0373
C10 C -0.16377(15) 0.16411(14) 1.06438(15)
C11 C -0.09245(14) 0.17467(14) 1.02614(14)
C12 C -0.00926(15) 0.18712(16) 1.07806(15)
C13 C -0.2363(2) 0.08792(18) 1.4038(2)
H13 H -0.1957 0.0503 1.3977
C14 C -0.3077(2) 0.0620(2) 1.4304(3)
H14 H -0.3155 0.0077 1.4418
C15 C -0.3674(2) 0.1168(2) 1.4399(3)
H15 H -0.4160 0.1003 1.4585
C16 C -0.35511(18) 0.19687(19) 1.4218(2)
H16 H -0.3951 0.2351 1.4279
C17 C -0.28168(15) 0.21908(15) 1.39422(17)
C18 C -0.26297(16) 0.30333(16) 1.37032(17)
C19 C -0.31398(19) 0.36772(18) 1.3821(2)
H17 H -0.3613 0.3601 1.4077
C20 C -0.2930(2) 0.4430(2) 1.3550(3)
H18 H -0.3271 0.4867 1.3607
C21 C -0.2225(3) 0.4534(2) 1.3199(3)
H19 H -0.2074 0.5042 1.3021
C22 C -0.1737(2) 0.3877(2) 1.3113(2)
H20 H -0.1254 0.3947 1.2873
Zn1A Zn 0.124754(17) 0.20842(2) 0.169980(18)
Zn1A_2 Zn 0.124754(17) 0.20842(2) 1.169980(18)
Zn1_2 Zn -0.124754(17) 0.20842(2) 0.330020(18)
O1A O 0.22709(18) 0.15053(19) 0.30617(15)
O3A O 0.10334(13) 0.19921(16) 0.29200(13)
O4A O -0.01723(12) 0.25757(12) 0.40786(13)
O4A_2 O -0.01723(12) 0.25757(12) 1.40786(13)
O4_2 O 0.01723(12) 0.25757(12) 0.09214(13)
O6A O -0.03356(12) 0.12787(12) 0.39713(13)
O6A_2 O -0.03356(12) 0.12787(12) 1.39713(13)
O6_2 O 0.03356(12) 0.12787(12) 0.10287(13)
O8A O 0.02643(11) 0.18303(13) 0.60178(12)
N1A N 0.19356(14) 0.31372(15) 0.16373(15)
N2A N 0.22282(13) 0.16482(13) 0.11344(14)
C2A C 0.01679(17) 0.05607(18) 0.67573(18)
H8A H 0.0279 0.0284 0.6259
C3A C 0.01666(14) 0.13890(16) 0.67726(15)
C5A C 0.09786(14) 0.17014(15) 0.56519(15)
C6A C 0.17136(16) 0.15742(16) 0.61782(16)
H10A H 0.1738 0.1562 0.6788
C7A C 0.24115(16) 0.14661(17) 0.57880(18)
H11A H 0.2908 0.1372 0.6135
C8A C 0.16548(17) 0.17059(16) 0.33774(16)
C9A C 0.23740(16) 0.14971(16) 0.48859(18)
H12A H 0.2846 0.1421 0.4627
C10A C 0.16377(15) 0.16411(14) 0.43562(15)
C11A C 0.09245(14) 0.17467(14) 0.47386(14)
C12A C 0.00926(15) 0.18712(16) 0.42194(15)
C13A C 0.2363(2) 0.08792(18) 0.0962(2)
H13A H 0.1957 0.0503 0.1023
C14A C 0.3077(2) 0.0620(2) 0.0696(3)
H14A H 0.3155 0.0077 0.0582
C15A C 0.3674(2) 0.1168(2) 0.0601(3)
H15A H 0.4160 0.1003 0.0415
C16A C 0.35511(18) 0.19687(19) 0.0782(2)
H16A H 0.3951 0.2351 0.0721
C17A C 0.28168(15) 0.21908(15) 0.10578(17)
C18A C 0.26297(16) 0.30333(16) 0.12968(17)
C19A C 0.31398(19) 0.36772(18) 0.1179(2)
H17A H 0.3613 0.3601 0.0923
C20A C 0.2930(2) 0.4430(2) 0.1450(3)
H18A H 0.3271 0.4867 0.1393
C21A C 0.2225(3) 0.4534(2) 0.1801(3)
H19A H 0.2074 0.5042 0.1979
C22A C 0.1737(2) 0.3877(2) 0.1887(2)
H20A H 0.1254 0.3947 0.2127
O2 O 0.0000 0.5185(4) 0.2500
H2 H 0.0000 0.5697 0.2500
O5 O -0.0567(4) 0.4061(5) 0.1174(7)
H3 H -0.0100 0.4136 0.1414
C23 C -0.0535(5) 0.4681(6) -0.0380(7)
H21 H -0.0965 0.5049 -0.0292
H22 H -0.0602 0.4509 -0.0984
C24 C -0.0567(4) 0.3999(4) 0.0178(6)
H24 H -0.0108 0.3661 0.0088
H25 H -0.1055 0.3702 -0.0050
O7 O 0.0000 0.3590(9) 0.2500
H4 H -0.0376 0.3282 0.2215
H4A H 0.0376 0.3282 0.2785
O9 O -0.0992(2) 0.3668(2) -0.1725(3)
H5 H -0.0862 0.3914 -0.1270
H6 H -0.1507 0.3674 -0.1891
H1? H -0.0262 0.5086 0.1954
H23? H -0.0018 0.4945 -0.0242
loop_
_geom_bond_atom_site_label_1
_geom_bond_atom_site_label_2
_geom_bond_site_symmetry_1
_geom_bond_site_symmetry_2
Zn1 O3 1_555 1_555
O1 C8 1_555 1_555
O2 H2 1_555 1_555
O3 C8 1_555 1_555
O4 C12 1_555 1_555
O5 H3 1_555 1_555
O6 C12 1_555 1_555
O7 H4 1_555 1_555
O8 C3 1_555 1_555
O9 H5 1_555 1_555
H6 O9 1_555 1_555
N1 Zn1 1_555 1_555
N2 Zn1 1_555 1_555
C1 H7 1_555 1_555
C2 C1 1_555 1_555
H8 C2 1_555 1_555
C3 C2 1_555 1_555
C4 C3 1_555 1_555
H9 C4 1_555 1_555
C5 O8 1_555 1_555
C6 C5 1_555 1_555
H10 C6 1_555 1_555
C7 C6 1_555 1_555
H11 C7 1_555 1_555
C8 C10 1_555 1_555
C9 C7 1_555 1_555
H12 C9 1_555 1_555
C10 C9 1_555 1_555
C11 C5 1_555 1_555
C12 C11 1_555 1_555
C13 N2 1_555 1_555
H13 C13 1_555 1_555
C14 C13 1_555 1_555
H14 C14 1_555 1_555
C15 C14 1_555 1_555
H15 C15 1_555 1_555
C16 C15 1_555 1_555
H16 C16 1_555 1_555
C17 N2 1_555 1_555
C18 N1 1_555 1_555
C19 C18 1_555 1_555
H17 C19 1_555 1_555
C20 C19 1_555 1_555
H18 C20 1_555 1_555
C21 C20 1_555 1_555
H19 C21 1_555 1_555
C22 N1 1_555 1_555
H20 C22 1_555 1_555
C23 H21 1_555 1_555
H22 C23 1_555 1_555
C24 O5 1_555 1_555
H24 C24 1_555 1_555
H25 C24 1_555 1_555
Zn1A O3A 1_555 1_555
Zn1A_2 O4 1_555 1_555
Zn1_2 O4A 1_555 1_555
O1A C8A 1_555 1_555
O3A C8A 1_555 1_555
O4A C12A 1_555 1_555
O4A_2 Zn1 1_555 1_555
O4_2 Zn1A 1_555 1_555
O6A Zn1_2 1_555 1_555
O6A_2 Zn1 1_555 1_555
O6_2 Zn1A 1_555 1_555
H4A O7 1_555 1_555
O8A C3A 1_555 1_555
N1A Zn1A 1_555 1_555
N2A Zn1A 1_555 1_555
C2A C1 1_555 1_555
H8A C2A 1_555 1_555
C3A C4 1_555 1_555
C5A O8A 1_555 1_555
C6A C5A 1_555 1_555
H10A C6A 1_555 1_555
C7A C6A 1_555 1_555
H11A C7A 1_555 1_555
C8A C10A 1_555 1_555
C9A C7A 1_555 1_555
H12A C9A 1_555 1_555
C10A C9A 1_555 1_555
C11A C5A 1_555 1_555
C12A O6A 1_555 1_555
C13A N2A 1_555 1_555
H13A C13A 1_555 1_555
C14A C13A 1_555 1_555
H14A C14A 1_555 1_555
C15A C14A 1_555 1_555
H15A C15A 1_555 1_555
C16A C15A 1_555 1_555
H16A C16A 1_555 1_555
C17A N2A 1_555 1_555
C18A N1A 1_555 1_555
C19A C18A 1_555 1_555
H17A C19A 1_555 1_555
C20A C19A 1_555 1_555
H18A C20A 1_555 1_555
C21A C20A 1_555 1_555
H19A C21A 1_555 1_555
C22A N1A 1_555 1_555
H20A C22A 1_555 1_555
O6 Zn1A_2 1_555 1_555
C10 C11 1_555 1_555
C16 C17 1_555 1_555
C17 C18 1_555 1_555
C21 C22 1_555 1_555
C23 C24 1_555 1_555
C2A C3A 1_555 1_555
C10A C11A 1_555 1_555
C11A C12A 1_555 1_555
C16A C17A 1_555 1_555
C17A C18A 1_555 1_555
C21A C22A 1_555 1_555

#END
