
#######################################################################
#
#                 Cambridge Crystallographic Data Centre
#                                CCDC 
#
#######################################################################
#
# If this CIF has been generated from an entry in the Cambridge 
# Structural Database, then it will include bibliographic, chemical, 
# crystal, experimental, refinement or atomic coordinate data resulting 
# from the CCDC's data processing and validation procedures.
#
#######################################################################

data_PUYVIP01
_symmetry_cell_setting           monoclinic
_symmetry_space_group_name_H-M   'P 21/c'
_symmetry_Int_Tables_number      14
_space_group_name_Hall           '-P 2ybc'
loop_
_symmetry_equiv_pos_site_id
_symmetry_equiv_pos_as_xyz
1 x,y,z
2 -x,1/2+y,1/2-z
3 -x,-y,-z
4 x,1/2-y,1/2+z
_cell_length_a                   11.205(2)
_cell_length_b                   15.947(3)
_cell_length_c                   11.180(2)
_cell_angle_alpha                90
_cell_angle_beta                 115.13(3)
_cell_angle_gamma                90
_cell_volume                     1808.62
loop_
_atom_site_label
_atom_site_type_symbol
_atom_site_fract_x
_atom_site_fract_y
_atom_site_fract_z
Cd1 Cd 0.62082(4) 0.66841(2) -0.45353(4)
N1 N 0.5214(4) 0.8003(2) -0.4322(4)
N2 N 0.5182(4) 0.8926(3) -0.2863(4)
H1 H 0.5372 0.9160 -0.2111
N3 N 0.7224(4) 0.7079(2) -0.2468(4)
N4 N 0.7180(4) 0.7829(2) -0.0762(4)
N5 N 0.6697(4) 0.5263(2) -0.4641(4)
N6 N 0.5702(4) 0.3975(2) -0.5008(4)
C1 C 0.4342(5) 0.8646(3) -0.4985(6)
C2 C 0.3567(6) 0.8748(4) -0.6321(6)
H2 H 0.3584 0.8361 -0.6935
C3 C 0.2775(6) 0.9440(5) -0.6705(7)
H3 H 0.2246 0.9525 -0.7599
C4 C 0.2740(6) 1.0017(4) -0.5797(8)
H4 H 0.2176 1.0475 -0.6091
C5 C 0.3511(6) 0.9928(4) -0.4483(7)
H5 H 0.3503 1.0326 -0.3878
C6 C 0.4308(6) 0.9225(3) -0.4074(6)
C7 C 0.5689(5) 0.8197(3) -0.3062(5)
C8 C 0.6682(5) 0.7704(3) -0.2064(5)
C9 C 0.8212(5) 0.6784(3) -0.1311(5)
C10 C 0.9177(5) 0.6183(3) -0.1115(6)
H6 H 0.9181 0.5867 -0.1813
C11 C 1.0112(6) 0.6076(3) 0.0136(6)
H7 H 1.0777 0.5684 0.0290
C12 C 1.0110(5) 0.6531(3) 0.1196(6)
H8 H 1.0762 0.6437 0.2043
C13 C 0.9151(5) 0.7120(3) 0.1000(6)
H9 H 0.9150 0.7427 0.1707
C14 C 0.8199(5) 0.7246(3) -0.0248(5)
C15 C 0.7627(5) 0.4658(3) -0.4533(5)
C16 C 0.8943(5) 0.4736(3) -0.4254(6)
H10 H 0.9357 0.5256 -0.4068
C17 C 0.9622(5) 0.4026(3) -0.4259(6)
H11 H 1.0513 0.4063 -0.4068
C18 C 0.8999(5) 0.3247(4) -0.4545(5)
H12 H 0.9482 0.2776 -0.4561
C19 C 0.7712(5) 0.3156(3) -0.4801(5)
H13 H 0.7312 0.2632 -0.4981
C20 C 0.7011(5) 0.3865(3) -0.4786(5)
C21 C 0.5611(5) 0.4805(3) -0.4907(5)
Cd1C Cd 0.62082(4) 0.83159(2) -0.95353(4)
Cd1C_2 Cd 0.62082(4) 0.83159(2) 0.04647(4)
Cd1B Cd 0.37918(4) 0.33159(2) -0.54647(4)
N1C N 0.5214(4) 0.6997(2) -0.9322(4)
N2C N 0.5182(4) 0.6074(3) -0.7863(4)
H1C H 0.5372 0.5840 -0.7111
N3C N 0.7224(4) 0.7921(2) -0.7468(4)
N4C N 0.7180(4) 0.7171(2) -0.5762(4)
N4_2 N 0.7180(4) 0.7829(2) -1.0762(4)
N5B N 0.3303(4) 0.4737(2) -0.5359(4)
N5C N 0.6697(4) 0.9737(2) -0.9641(4)
N6B N 0.4298(4) 0.6025(2) -0.4992(4)
N6A N 0.4298(4) 0.8975(2) -0.9992(4)
C1C C 0.4342(5) 0.6354(3) -0.9985(6)
C2C C 0.3567(6) 0.6252(4) -1.1321(6)
H2C H 0.3584 0.6639 -1.1935
C3C C 0.2775(6) 0.5560(5) -1.1705(7)
H3C H 0.2246 0.5475 -1.2599
C4C C 0.2740(6) 0.4983(4) -1.0797(8)
H4C H 0.2176 0.4525 -1.1091
C5C C 0.3511(6) 0.5072(4) -0.9483(7)
H5C H 0.3503 0.4674 -0.8878
C6C C 0.4308(6) 0.5775(3) -0.9074(6)
C7C C 0.5689(5) 0.6803(3) -0.8062(5)
C8C C 0.6682(5) 0.7296(3) -0.7064(5)
C9C C 0.8212(5) 0.8216(3) -0.6311(5)
C10C C 0.9177(5) 0.8817(3) -0.6115(6)
H6C H 0.9181 0.9133 -0.6813
C11C C 1.0112(6) 0.8924(3) -0.4864(6)
H7C H 1.0777 0.9316 -0.4710
C12C C 1.0110(5) 0.8469(3) -0.3804(6)
H8C H 1.0762 0.8563 -0.2957
C13C C 0.9151(5) 0.7880(3) -0.4000(6)
H9C H 0.9150 0.7573 -0.3293
C14C C 0.8199(5) 0.7754(3) -0.5248(5)
C15B C 0.2373(5) 0.5342(3) -0.5467(5)
C16B C 0.1057(5) 0.5264(3) -0.5746(6)
H10B H 0.0643 0.4744 -0.5932
C17B C 0.0378(5) 0.5974(3) -0.5741(6)
H11B H -0.0513 0.5937 -0.5932
C18B C 0.1001(5) 0.6753(4) -0.5455(5)
H12B H 0.0518 0.7224 -0.5439
C19B C 0.2288(5) 0.6844(3) -0.5199(5)
H13B H 0.2688 0.7368 -0.5019
C20B C 0.2989(5) 0.6135(3) -0.5214(5)
C21B C 0.4389(5) 0.5195(3) -0.5093(5)
loop_
_geom_bond_atom_site_label_1
_geom_bond_atom_site_label_2
_geom_bond_site_symmetry_1
_geom_bond_site_symmetry_2
Cd1 N1 1_555 1_555
N1 C1 1_555 1_555
N2 H1 1_555 1_555
N3 Cd1 1_555 1_555
N4 C8 1_555 1_555
N5 Cd1 1_555 1_555
N6 C20 1_555 1_555
C1 C2 1_555 1_555
C2 H2 1_555 1_555
C3 C2 1_555 1_555
H3 C3 1_555 1_555
C4 C3 1_555 1_555
H4 C4 1_555 1_555
C5 C4 1_555 1_555
H5 C5 1_555 1_555
C6 N2 1_555 1_555
C7 N1 1_555 1_555
C8 N3 1_555 1_555
C9 N3 1_555 1_555
C10 C9 1_555 1_555
H6 C10 1_555 1_555
C11 C10 1_555 1_555
H7 C11 1_555 1_555
C12 C11 1_555 1_555
H8 C12 1_555 1_555
C13 C12 1_555 1_555
H9 C13 1_555 1_555
C14 N4 1_555 1_555
C15 N5 1_555 1_555
C16 C15 1_555 1_555
H10 C16 1_555 1_555
C17 C16 1_555 1_555
H11 C17 1_555 1_555
C18 C17 1_555 1_555
H12 C18 1_555 1_555
C19 C18 1_555 1_555
H13 C19 1_555 1_555
C20 C15 1_555 1_555
C21 N5 1_555 1_555
Cd1C N1C 1_555 1_555
Cd1C_2 N4 1_555 1_555
Cd1B N6 1_555 1_555
N1C C1C 1_555 1_555
N2C H1C 1_555 1_555
N3C Cd1C 1_555 1_555
N4C Cd1 1_555 1_555
N4_2 Cd1C 1_555 1_555
N5B Cd1B 1_555 1_555
N5C Cd1C 1_555 1_555
N6B Cd1 1_555 1_555
N6A Cd1C 1_555 1_555
C1C C2C 1_555 1_555
C2C H2C 1_555 1_555
C3C C2C 1_555 1_555
H3C C3C 1_555 1_555
C4C C3C 1_555 1_555
H4C C4C 1_555 1_555
C5C C4C 1_555 1_555
H5C C5C 1_555 1_555
C6C N2C 1_555 1_555
C7C N1C 1_555 1_555
C8C N3C 1_555 1_555
C9C N3C 1_555 1_555
C10C C9C 1_555 1_555
H6C C10C 1_555 1_555
C11C C10C 1_555 1_555
H7C C11C 1_555 1_555
C12C C11C 1_555 1_555
H8C C12C 1_555 1_555
C13C C12C 1_555 1_555
H9C C13C 1_555 1_555
C14C N4C 1_555 1_555
C15B N5B 1_555 1_555
C16B C15B 1_555 1_555
H10B C16B 1_555 1_555
C17B C16B 1_555 1_555
H11B C17B 1_555 1_555
C18B C17B 1_555 1_555
H12B C18B 1_555 1_555
C19B C18B 1_555 1_555
H13B C19B 1_555 1_555
C20B N6B 1_555 1_555
C21B C21 1_555 1_555
N2 C7 1_555 1_555
N6 C21 1_555 1_555
C1 C6 1_555 1_555
C5 C6 1_555 1_555
C7 C8 1_555 1_555
C9 C14 1_555 1_555
C13 C14 1_555 1_555
C19 C20 1_555 1_555
N2C C7C 1_555 1_555
N4C C8C 1_555 1_555
N5B C21B 1_555 1_555
N6B C21B 1_555 1_555
C1C C6C 1_555 1_555
C5C C6C 1_555 1_555
C7C C8C 1_555 1_555
C9C C14C 1_555 1_555
C13C C14C 1_555 1_555
C15B C20B 1_555 1_555
C19B C20B 1_555 1_555

#END
