
#######################################################################
#
#                 Cambridge Crystallographic Data Centre
#                                CCDC 
#
#######################################################################
#
# If this CIF has been generated from an entry in the Cambridge 
# Structural Database, then it will include bibliographic, chemical, 
# crystal, experimental, refinement or atomic coordinate data resulting 
# from the CCDC's data processing and validation procedures.
#
#######################################################################

data_PUYVEL
_symmetry_cell_setting           monoclinic
_symmetry_space_group_name_H-M   'C 2/c'
_symmetry_Int_Tables_number      15
_space_group_name_Hall           '-C 2yn'
loop_
_symmetry_equiv_pos_site_id
_symmetry_equiv_pos_as_xyz
1 x,y,z
2 -x,y,1/2-z
3 1/2+x,1/2+y,z
4 1/2-x,1/2+y,1/2-z
5 -x,-y,-z
6 x,-y,1/2+z
7 1/2-x,1/2-y,-z
8 1/2+x,1/2-y,1/2+z
_cell_length_a                   29.636(7)
_cell_length_b                   8.8133(18)
_cell_length_c                   20.005(8)
_cell_angle_alpha                90
_cell_angle_beta                 120.66(2)
_cell_angle_gamma                90
_cell_volume                     4494.7
loop_
_atom_site_label
_atom_site_type_symbol
_atom_site_fract_x
_atom_site_fract_y
_atom_site_fract_z
Cd1 Cd 0.03186(4) 0.68390(12) 0.03011(7)
Cd2 Cd 0.28995(4) 0.05327(11) 0.02691(6)
Cd3 Cd 0.26773(4) 0.47372(12) 0.26807(6)
C1 C -0.0022(6) 1.0016(16) 0.0337(8)
C2 C -0.0138(7) 1.0783(19) 0.1266(10)
H1 H -0.0213 1.1373 0.1583
C3 C 0.0002(6) 0.9267(18) 0.1368(10)
H2 H 0.0034 0.8659 0.1770
C4 C 0.1453(6) 0.7566(16) 0.0748(9)
H3 H 0.1305 0.8350 0.0388
C5 C 0.1965(5) 0.7270(17) 0.1170(8)
H4 H 0.2227 0.7799 0.1143
C6 C 0.1547(5) 0.5693(15) 0.1467(8)
C7 C 0.1492(5) 0.4415(14) 0.1877(8)
C8 C 0.1159(6) 0.261(2) 0.2248(9)
H5 H 0.0923 0.1969 0.2282
C9 C 0.1687(6) 0.2565(17) 0.2695(9)
H6 H 0.1879 0.1864 0.3087
C10 C 0.3573(5) 0.3216(15) 0.2402(8)
H7 H 0.3854 0.3666 0.2834
C11 C 0.3608(6) 0.2330(16) 0.1898(8)
H8 H 0.3921 0.2079 0.1922
C12 C 0.2802(5) 0.2514(14) 0.1545(7)
C13 C 0.2216(5) 0.2258(15) 0.1087(7)
C14 C 0.1405(5) 0.2457(15) 0.0213(9)
H9 H 0.1094 0.2737 -0.0232
C15 C 0.1452(5) 0.1474(16) 0.0763(8)
H10 H 0.1176 0.0969 0.0760
C16 C 0.2767(5) -0.2796(14) 0.0233(7)
C17 C 0.3420(6) -0.4301(16) 0.0789(9)
H11 H 0.3625 -0.5174 0.0954
C18 C 0.3603(6) -0.2869(16) 0.0934(9)
H12 H 0.3953 -0.2588 0.1238
N1 N 0.0083(5) 0.8804(14) 0.0795(8)
N2 N -0.0143(5) 1.1250(14) 0.0604(8)
N3 N 0.0026(5) 0.5065(13) -0.0700(8)
N4 N 0.0250(6) 0.4871(15) -0.1075(9)
N5 N 0.0472(9) 0.473(2) -0.1402(13)
N6 N 0.1175(4) 0.6548(12) 0.0920(6)
N7 N 0.2044(4) 0.6064(13) 0.1650(7)
N8 N 0.1036(5) 0.3794(13) 0.1734(7)
H13 H 0.0726 0.4081 0.1386
N9 N 0.1895(4) 0.3741(13) 0.2472(7)
N10 N 0.3059(4) 0.3365(12) 0.2188(6)
N11 N 0.3123(4) 0.1830(12) 0.1336(6)
N12 N 0.1907(4) 0.2978(12) 0.0431(6)
N13 N 0.1965(4) 0.1338(12) 0.1320(6)
N14 N 0.3178(4) -0.1871(12) 0.0551(6)
N15 N 0.2878(4) -0.4261(13) 0.0353(6)
Cd1D Cd -0.03186(4) 1.31610(12) -0.03011(7)
Cd1D_2 Cd -0.03186(4) 0.31610(12) -0.03011(7)
Cd2C Cd 0.21005(4) 0.55327(11) 0.47309(6)
Cd2F Cd 0.21005(4) 0.44673(11) -0.02691(6)
Cd2F_2 Cd 0.21005(4) -0.55327(11) -0.02691(6)
Cd2E Cd 0.28995(4) 0.94673(11) 0.52691(6)
Cd3D Cd -0.26773(4) 1.52628(12) -0.26807(6)
Cd3C Cd 0.23227(4) -0.02628(12) 0.23193(6)
Cd3C_2 Cd 0.23227(4) 0.97372(12) 0.23193(6)
C1D C 0.0022(6) 0.9984(16) -0.0337(8)
C2D C 0.0138(7) 0.9217(19) -0.1266(10)
H1D H 0.0213 0.8627 -0.1583
C3D C -0.0002(6) 1.0733(18) -0.1368(10)
H2D H -0.0034 1.1341 -0.1770
C4D C -0.1453(6) 1.2434(16) -0.0748(9)
H3D H -0.1305 1.1650 -0.0388
C5D C -0.1965(5) 1.2730(17) -0.1170(8)
H4D H -0.2227 1.2201 -0.1143
C6D C -0.1547(5) 1.4307(15) -0.1467(8)
C7D C -0.1492(5) 1.5585(14) -0.1877(8)
C8D C -0.1159(6) 1.739(2) -0.2248(9)
H5D H -0.0923 1.8031 -0.2282
C9D C -0.1687(6) 1.7435(17) -0.2695(9)
H6D H -0.1879 1.8136 -0.3087
C10C C 0.1427(5) 0.8216(15) 0.2598(8)
H7C H 0.1146 0.8666 0.2166
C11C C 0.1392(6) 0.7330(16) 0.3102(8)
H8C H 0.1079 0.7079 0.3078
C12C C 0.2198(5) 0.7514(14) 0.3455(7)
C13C C 0.2784(5) 0.7258(15) 0.3913(7)
C14C C 0.3595(5) 0.7457(15) 0.4787(9)
H9C H 0.3906 0.7737 0.5232
C15C C 0.3548(5) 0.6474(16) 0.4237(8)
H10C H 0.3824 0.5969 0.4240
C16F C 0.2233(5) -0.2204(14) -0.0233(7)
C17F C 0.1580(6) -0.0699(16) -0.0789(9)
H11F H 0.1375 0.0174 -0.0954
C18F C 0.1397(6) -0.2131(16) -0.0934(9)
H12F H 0.1047 -0.2412 -0.1238
N1D N -0.0083(5) 1.1196(14) -0.0795(8)
N2D N 0.0143(5) 0.8750(14) -0.0604(8)
N3D N -0.0026(5) 0.4935(13) 0.0700(8)
N3D_2 N -0.0026(5) 1.4935(13) 0.0700(8)
N3_2 N 0.0026(5) 1.5065(13) -0.0700(8)
N4D N -0.0250(6) 0.5129(15) 0.1075(9)
N5D N -0.0472(9) 0.527(2) 0.1402(13)
N6D N -0.1175(4) 1.3452(12) -0.0920(6)
N7D N -0.2044(4) 1.3936(13) -0.1650(7)
N8D N -0.1036(5) 1.6206(13) -0.1734(7)
H13D H -0.0726 1.5919 -0.1386
N9D N -0.1895(4) 1.6259(13) -0.2472(7)
N10C N 0.1941(4) 0.8365(12) 0.2812(6)
N10D N -0.3059(4) 1.6635(12) -0.2188(6)
N11C N 0.1877(4) 0.6830(12) 0.3664(6)
N12C N 0.3093(4) 0.7978(12) 0.4569(6)
N12F N 0.3093(4) 0.2022(12) -0.0431(6)
N12E N 0.1907(4) 0.7022(12) 0.5431(6)
N13C N 0.3035(4) 0.6338(12) 0.3680(6)
N13G N -0.3035(4) 1.3662(12) -0.3680(6)
N14F N 0.1822(4) -0.3129(12) -0.0551(6)
N14C N 0.1822(4) 0.3129(12) 0.4449(6)
N15F N 0.2122(4) -0.0739(13) -0.0353(6)
N15E N 0.2878(4) 0.4261(13) 0.5353(6)
loop_
_geom_bond_atom_site_label_1
_geom_bond_atom_site_label_2
_geom_bond_site_symmetry_1
_geom_bond_site_symmetry_2
Cd1 N1 1_555 1_555
Cd2 N11 1_555 1_555
Cd3 N7 1_555 1_555
C1 N1 1_555 1_555
C2 H1 1_555 1_555
C3 C2 1_555 1_555
H2 C3 1_555 1_555
C4 H3 1_555 1_555
C5 C4 1_555 1_555
H4 C5 1_555 1_555
C6 C7 1_555 1_555
C7 N8 1_555 1_555
C8 H5 1_555 1_555
C9 C8 1_555 1_555
H6 C9 1_555 1_555
C10 H7 1_555 1_555
C11 C10 1_555 1_555
H8 C11 1_555 1_555
C12 C13 1_555 1_555
C13 N12 1_555 1_555
C14 H9 1_555 1_555
C15 C14 1_555 1_555
H10 C15 1_555 1_555
C16 N14 1_555 1_555
C17 H11 1_555 1_555
C18 C17 1_555 1_555
H12 C18 1_555 1_555
N1 C3 1_555 1_555
N2 C1 1_555 1_555
N3 Cd1 1_555 1_555
N4 N3 1_555 1_555
N5 N4 1_555 1_555
N6 Cd1 1_555 1_555
N7 C5 1_555 1_555
N8 C8 1_555 1_555
H13 N8 1_555 1_555
N9 Cd3 1_555 1_555
N10 Cd3 1_555 1_555
N11 C11 1_555 1_555
N12 C14 1_555 1_555
N13 C13 1_555 1_555
N14 Cd2 1_555 1_555
N15 C16 1_555 1_555
Cd1D N2 1_555 1_555
Cd1D_2 N3 1_555 1_555
Cd2C N11C 1_555 1_555
Cd2F N12 1_555 1_555
Cd2F_2 N15 1_555 1_555
Cd2E N12C 1_555 1_555
Cd3D N7D 1_555 1_555
Cd3C N13 1_555 1_555
Cd3C_2 N10C 1_555 1_555
C1D C1 1_555 1_555
C2D H1D 1_555 1_555
C3D C2D 1_555 1_555
H2D C3D 1_555 1_555
C4D H3D 1_555 1_555
C5D C4D 1_555 1_555
H4D C5D 1_555 1_555
C6D C7D 1_555 1_555
C7D N8D 1_555 1_555
C8D H5D 1_555 1_555
C9D C8D 1_555 1_555
H6D C9D 1_555 1_555
C10C H7C 1_555 1_555
C11C C10C 1_555 1_555
H8C C11C 1_555 1_555
C12C C13C 1_555 1_555
C13C N12C 1_555 1_555
C14C H9C 1_555 1_555
C15C C14C 1_555 1_555
H10C C15C 1_555 1_555
C16F C16 1_555 1_555
C17F H11F 1_555 1_555
C18F C17F 1_555 1_555
H12F C18F 1_555 1_555
N1D Cd1D 1_555 1_555
N2D Cd1 1_555 1_555
N3D Cd1 1_555 1_555
N3D_2 Cd1D 1_555 1_555
N3_2 Cd1D 1_555 1_555
N4D N3D 1_555 1_555
N5D N4D 1_555 1_555
N6D Cd1D 1_555 1_555
N7D C5D 1_555 1_555
N8D C8D 1_555 1_555
H13D N8D 1_555 1_555
N9D Cd3D 1_555 1_555
N10C C10C 1_555 1_555
N10D Cd3D 1_555 1_555
N11C C11C 1_555 1_555
N12C C14C 1_555 1_555
N12F Cd2 1_555 1_555
N12E Cd2C 1_555 1_555
N13C Cd3 1_555 1_555
N13G Cd3D 1_555 1_555
N14F Cd2F_2 1_555 1_555
N14C Cd2C 1_555 1_555
N15F Cd2 1_555 1_555
N15E Cd2C 1_555 1_555
C2 N2 1_555 1_555
C4 N6 1_555 1_555
C6 N6 1_555 1_555
C6 N7 1_555 1_555
C7 N9 1_555 1_555
C9 N9 1_555 1_555
C10 N10 1_555 1_555
C12 N10 1_555 1_555
C12 N11 1_555 1_555
C15 N13 1_555 1_555
C17 N15 1_555 1_555
C18 N14 1_555 1_555
Cd1D_2 N3D 1_555 1_555
C1D N1D 1_555 1_555
C1D N2D 1_555 1_555
C2D N2D 1_555 1_555
C3D N1D 1_555 1_555
C4D N6D 1_555 1_555
C6D N6D 1_555 1_555
C6D N7D 1_555 1_555
C7D N9D 1_555 1_555
C9D N9D 1_555 1_555
C12C N10C 1_555 1_555
C12C N11C 1_555 1_555
C13C N13C 1_555 1_555
C15C N13C 1_555 1_555
C16F N14F 1_555 1_555
C16F N15F 1_555 1_555
C17F N15F 1_555 1_555
C18F N14F 1_555 1_555

#END
