
#######################################################################
#
#                 Cambridge Crystallographic Data Centre
#                                CCDC 
#
#######################################################################
#
# If this CIF has been generated from an entry in the Cambridge 
# Structural Database, then it will include bibliographic, chemical, 
# crystal, experimental, refinement or atomic coordinate data resulting 
# from the CCDC's data processing and validation procedures.
#
#######################################################################

data_PUYVIP
_symmetry_cell_setting           monoclinic
_symmetry_space_group_name_H-M   'P 21/c'
_symmetry_Int_Tables_number      14
_space_group_name_Hall           '-P 2ybc'
loop_
_symmetry_equiv_pos_site_id
_symmetry_equiv_pos_as_xyz
1 x,y,z
2 -x,1/2+y,1/2-z
3 -x,-y,-z
4 x,1/2-y,1/2+z
_cell_length_a                   11.263(2)
_cell_length_b                   16.015(3)
_cell_length_c                   11.229(2)
_cell_angle_alpha                90
_cell_angle_beta                 115.19(3)
_cell_angle_gamma                90
_cell_volume                     1832.83
loop_
_atom_site_label
_atom_site_type_symbol
_atom_site_fract_x
_atom_site_fract_y
_atom_site_fract_z
Cd1 Cd 0.62109(2) 0.168550(13) 1.04678(2)
C1 C 0.8204(3) 0.27563(18) 0.9754(3)
C2 C 0.9157(3) 0.2885(2) 1.1033(3)
H1 H 0.9146 0.2590 1.1741
C3 C 1.0113(3) 0.3468(2) 1.1201(3)
H2 H 1.0771 0.3559 1.2041
C4 C 1.0126(3) 0.3925(2) 1.0150(3)
H3 H 1.0794 0.4311 1.0307
C5 C 0.9180(3) 0.38201(19) 0.8890(3)
H4 H 0.9178 0.4137 0.8195
C6 C 0.8222(3) 0.32169(17) 0.8698(3)
C7 C 0.6689(3) 0.22995(17) 0.7939(3)
C8 C 0.5688(3) 0.17937(18) 0.6933(3)
C9 C 0.4310(3) 0.0773(2) 0.5921(3)
C10 C 0.3520(4) 0.0065(2) 0.5538(4)
H5 H 0.3508 -0.0325 0.6147
C11 C 0.2759(4) -0.0026(3) 0.4214(5)
H6 H 0.2216 -0.0491 0.3920
C12 C 0.2775(4) 0.0551(3) 0.3299(4)
H7 H 0.2245 0.0463 0.2410
C13 C 0.3558(4) 0.1254(2) 0.3679(4)
H8 H 0.3559 0.1644 0.3066
C14 C 0.4344(3) 0.1353(2) 0.5014(3)
C15 C 0.4383(3) 0.01944(18) 0.9903(3)
C16 C 0.2990(3) 0.11333(18) 0.9791(3)
C17 C 0.2298(3) 0.18508(19) 0.9810(3)
H9 H 0.2702 0.2372 0.9986
C18 C 0.1000(3) 0.1762(2) 0.9558(3)
H10 H 0.0522 0.2229 0.9587
C19 C 0.0383(3) 0.0982(2) 0.9259(3)
H11 H -0.0507 0.0947 0.9058
C20 C 0.1051(3) 0.0266(2) 0.9253(3)
H12 H 0.0634 -0.0250 0.9060
C21 C 0.2381(3) 0.03435(18) 0.9548(3)
N1 N 0.7192(2) 0.21710(15) 0.9246(2)
N2 N 0.7235(2) 0.29240(15) 0.7550(2)
N3 N 0.5181(3) 0.10680(16) 0.7142(3)
H13 H 0.5366 0.0836 0.7890
N4 N 0.5218(2) 0.19944(15) 0.5679(2)
N5 N 0.4291(2) 0.10226(15) 1.0007(3)
N6 N 0.3299(2) -0.02593(15) 0.9639(3)
Cd1C Cd 0.62109(2) 0.331450(13) 1.54678(2)
Cd1C_2 Cd 0.62109(2) 0.331450(13) 0.54678(2)
Cd1B Cd 0.37891(2) -0.168550(13) 0.95322(2)
C1C C 0.8204(3) 0.22437(18) 1.4754(3)
C2C C 0.9157(3) 0.2115(2) 1.6033(3)
H1C H 0.9146 0.2410 1.6741
C3C C 1.0113(3) 0.1532(2) 1.6201(3)
H2C H 1.0771 0.1441 1.7041
C4C C 1.0126(3) 0.1075(2) 1.5150(3)
H3C H 1.0794 0.0689 1.5307
C5C C 0.9180(3) 0.11799(19) 1.3890(3)
H4C H 0.9178 0.0863 1.3195
C6C C 0.8222(3) 0.17831(17) 1.3698(3)
C7C C 0.6689(3) 0.27005(17) 1.2939(3)
C8C C 0.5688(3) 0.32063(18) 1.1933(3)
C9C C 0.4310(3) 0.4227(2) 1.0921(3)
C10C C 0.3520(4) 0.4935(2) 1.0538(4)
H5C H 0.3508 0.5325 1.1147
C11C C 0.2759(4) 0.5026(3) 0.9214(5)
H6C H 0.2216 0.5491 0.8920
C12C C 0.2775(4) 0.4449(3) 0.8299(4)
H7C H 0.2245 0.4537 0.7410
C13C C 0.3558(4) 0.3746(2) 0.8679(4)
H8C H 0.3559 0.3356 0.8066
C14C C 0.4344(3) 0.3647(2) 1.0014(3)
C15B C 0.5617(3) -0.01944(18) 1.0097(3)
C16B C 0.7010(3) -0.11333(18) 1.0209(3)
C17B C 0.7702(3) -0.18508(19) 1.0190(3)
H9B H 0.7298 -0.2372 1.0014
C18B C 0.9000(3) -0.1762(2) 1.0442(3)
H10B H 0.9478 -0.2229 1.0413
C19B C 0.9617(3) -0.0982(2) 1.0741(3)
H11B H 1.0507 -0.0947 1.0942
C20B C 0.8949(3) -0.0266(2) 1.0747(3)
H12B H 0.9366 0.0250 1.0940
C21B C 0.7619(3) -0.03435(18) 1.0452(3)
N1C N 0.7192(2) 0.28290(15) 1.4246(2)
N2C N 0.7235(2) 0.20760(15) 1.2550(2)
N2_2 N 0.7235(2) 0.29240(15) 1.7550(2)
N3C N 0.5181(3) 0.39320(16) 1.2142(3)
H13C H 0.5366 0.4164 1.2890
N4C N 0.5218(2) 0.30056(15) 1.0679(2)
N4_2 N 0.5218(2) 0.19944(15) 1.5679(2)
N5B N 0.5709(2) -0.10226(15) 0.9993(3)
N5C N 0.4291(2) 0.39774(15) 1.5007(3)
N6B N 0.6701(2) 0.02593(15) 1.0361(3)
N6A N 0.6701(2) 0.47407(15) 1.5361(3)
loop_
_geom_bond_atom_site_label_1
_geom_bond_atom_site_label_2
_geom_bond_site_symmetry_1
_geom_bond_site_symmetry_2
Cd1 N1 1_555 1_555
C1 C2 1_555 1_555
C2 H1 1_555 1_555
C3 C2 1_555 1_555
H2 C3 1_555 1_555
C4 C3 1_555 1_555
H3 C4 1_555 1_555
C5 C4 1_555 1_555
H4 C5 1_555 1_555
C6 C1 1_555 1_555
C7 C8 1_555 1_555
C8 N3 1_555 1_555
C9 C10 1_555 1_555
C10 H5 1_555 1_555
C11 C10 1_555 1_555
H6 C11 1_555 1_555
C12 C11 1_555 1_555
H7 C12 1_555 1_555
C13 C12 1_555 1_555
H8 C13 1_555 1_555
C14 C9 1_555 1_555
C15 N5 1_555 1_555
C16 C17 1_555 1_555
C17 H9 1_555 1_555
C18 C17 1_555 1_555
H10 C18 1_555 1_555
C19 C18 1_555 1_555
H11 C19 1_555 1_555
C20 C19 1_555 1_555
H12 C20 1_555 1_555
C21 C16 1_555 1_555
N1 C1 1_555 1_555
N2 C6 1_555 1_555
N3 C9 1_555 1_555
H13 N3 1_555 1_555
N4 C8 1_555 1_555
N5 Cd1 1_555 1_555
N6 C15 1_555 1_555
Cd1C N1C 1_555 1_555
Cd1C_2 N2 1_555 1_555
Cd1B N6 1_555 1_555
C1C C2C 1_555 1_555
C2C H1C 1_555 1_555
C3C C2C 1_555 1_555
H2C C3C 1_555 1_555
C4C C3C 1_555 1_555
H3C C4C 1_555 1_555
C5C C4C 1_555 1_555
H4C C5C 1_555 1_555
C6C C1C 1_555 1_555
C7C C8C 1_555 1_555
C8C N3C 1_555 1_555
C9C C10C 1_555 1_555
C10C H5C 1_555 1_555
C11C C10C 1_555 1_555
H6C C11C 1_555 1_555
C12C C11C 1_555 1_555
H7C C12C 1_555 1_555
C13C C12C 1_555 1_555
H8C C13C 1_555 1_555
C14C C9C 1_555 1_555
C15B C15 1_555 1_555
C16B C17B 1_555 1_555
C17B H9B 1_555 1_555
C18B C17B 1_555 1_555
H10B C18B 1_555 1_555
C19B C18B 1_555 1_555
H11B C19B 1_555 1_555
C20B C19B 1_555 1_555
H12B C20B 1_555 1_555
C21B C16B 1_555 1_555
N1C C1C 1_555 1_555
N2C Cd1 1_555 1_555
N2_2 Cd1C 1_555 1_555
N3C C9C 1_555 1_555
H13C N3C 1_555 1_555
N4C Cd1 1_555 1_555
N4_2 Cd1C 1_555 1_555
N5B Cd1B 1_555 1_555
N5C Cd1C 1_555 1_555
N6B Cd1 1_555 1_555
N6A Cd1C 1_555 1_555
C5 C6 1_555 1_555
C7 N1 1_555 1_555
C7 N2 1_555 1_555
C13 C14 1_555 1_555
C14 N4 1_555 1_555
C16 N5 1_555 1_555
C20 C21 1_555 1_555
C21 N6 1_555 1_555
N4 Cd1C_2 1_555 1_555
C5C C6C 1_555 1_555
C6C N2C 1_555 1_555
C7C N1C 1_555 1_555
C7C N2C 1_555 1_555
C8C N4C 1_555 1_555
C13C C14C 1_555 1_555
C14C N4C 1_555 1_555
C15B N5B 1_555 1_555
C15B N6B 1_555 1_555
C16B N5B 1_555 1_555
C20B C21B 1_555 1_555
C21B N6B 1_555 1_555

#END
