
#######################################################################
#
#                 Cambridge Crystallographic Data Centre
#                                CCDC 
#
#######################################################################
#
# If this CIF has been generated from an entry in the Cambridge 
# Structural Database, then it will include bibliographic, chemical, 
# crystal, experimental, refinement or atomic coordinate data resulting 
# from the CCDC's data processing and validation procedures.
#
#######################################################################

data_PUYZAL
_symmetry_cell_setting           monoclinic
_symmetry_space_group_name_H-M   'C 2/c'
_symmetry_Int_Tables_number      15
_space_group_name_Hall           '-C 2yn'
loop_
_symmetry_equiv_pos_site_id
_symmetry_equiv_pos_as_xyz
1 x,y,z
2 -x,y,1/2-z
3 1/2+x,1/2+y,z
4 1/2-x,1/2+y,1/2-z
5 -x,-y,-z
6 x,-y,1/2+z
7 1/2-x,1/2-y,-z
8 1/2+x,1/2-y,1/2+z
_cell_length_a                   12.01279(11)
_cell_length_b                   14.83093(15)
_cell_length_c                   14.57556(13)
_cell_angle_alpha                90
_cell_angle_beta                 90.21712(43)
_cell_angle_gamma                90
_cell_volume                     2596.78
loop_
_atom_site_label
_atom_site_type_symbol
_atom_site_fract_x
_atom_site_fract_y
_atom_site_fract_z
Cd1 Cd 0.50000 0.22989(9) 0.25000
S1 S 0.3749(3) 0.3400(3) 0.3321(2)
S2 S 0.3888(3) 0.1294(3) 0.1427(2)
C1 C 0.23814 0.15564 0.00054
C2 C 0.21268 0.33203 0.46244
C3 C 0.32639 0.29172 0.05982
C4 C 0.34407 0.20687 0.46317
C5 C 0.31453 0.19736 0.06036
C6 C 0.30675 0.28890 0.42560
H1 H 0.22971 0.08856 0.00092
H2 H 0.18616 0.39035 0.43573
H3 H 0.38069 0.32138 0.10234
H4 H 0.41094 0.17621 0.43698
Cd1F Cd 0.00000 0.27011(9) -0.25000
Cd1F_2 Cd 0.00000 0.27011(9) 0.75000
S1F S 0.1251(3) 0.1600(3) 0.6679(2)
S1A S 0.6251(3) 0.3400(3) 0.1679(2)
S2F S 0.1112(3) 0.3706(3) -0.1427(2)
S2A S 0.6112(3) 0.1294(3) 0.3573(2)
C1F C 0.26186 0.34436 -0.00054
C2F C 0.28732 0.16797 0.53756
C3F C 0.17361 0.20828 -0.05982
C4F C 0.15593 0.29313 0.53683
C5F C 0.18547 0.30264 -0.06036
C6F C 0.19325 0.21110 0.57440
H1F H 0.27029 0.41144 -0.00092
H2F H 0.31384 0.10965 0.56427
H3F H 0.11931 0.17862 -0.10234
H4F H 0.08906 0.32379 0.56302
Cd2 Cd 0.00000 0.16806(8) 0.25000
N1 N 0.03491 0.13144 0.40392
N2 N 0.11854 0.29192 0.21487
N3 N 0.14922 0.06376 0.24665
C7 C 0.09142 0.04451 0.40821
C8 C 0.04667 0.37114 0.21279
C9 C 0.19079 0.04372 0.33855
H5 H 0.04122 -0.00784 0.39549
H6 H 0.01165 0.38224 0.15147
H7 H 0.11957 0.02901 0.47091
H8 H 0.08761 0.42906 0.22268
H9 H 0.24988 0.08638 0.35999
H10 H 0.17799 0.29830 0.16747
H11 H 0.23090 -0.01522 0.34280
H12 H 0.16386 0.29226 0.27256
H13 H -0.02838 0.13194 0.44828
H14 H 0.08415 0.17911 0.43069
H15 H 0.21252 0.06325 0.20229
H16 H 0.10392 0.01181 0.22374
N1A N -0.03491 0.13144 0.09608
N2A N -0.11854 0.29192 0.28513
N3A N -0.14922 0.06376 0.25335
C7A C -0.09142 0.04451 0.09179
C8A C -0.04667 0.37114 0.28721
C9A C -0.19079 0.04372 0.16145
H5A H -0.04122 -0.00784 0.10451
H6A H -0.01165 0.38224 0.34853
H7A H -0.11957 0.02901 0.02909
H8A H -0.08761 0.42906 0.27732
H9A H -0.24988 0.08638 0.14001
H10A H -0.17799 0.29830 0.33253
H11A H -0.23090 -0.01522 0.15720
H12A H -0.16386 0.29226 0.22744
H13A H 0.02838 0.13194 0.05172
H14A H -0.08415 0.17911 0.06931
H15A H -0.21252 0.06325 0.29771
H16A H -0.10392 0.01181 0.27626
loop_
_geom_bond_atom_site_label_1
_geom_bond_atom_site_label_2
_geom_bond_site_symmetry_1
_geom_bond_site_symmetry_2
Cd1 S1 1_555 1_555
S1 C6 1_555 1_555
S2 Cd1 1_555 1_555
C1 C5 1_555 1_555
C2 C6 1_555 1_555
C3 C5 1_555 1_555
C4 C6 1_555 1_555
C5 S2 1_555 1_555
Cd2 N1 1_555 1_555
N1 C7 1_555 1_555
N2 Cd2 1_555 1_555
N3 Cd2 1_555 1_555
C7 C9 1_555 1_555
C8 N2 1_555 1_555
C9 N3 1_555 1_555
H1 C1 1_555 1_555
H2 C2 1_555 1_555
H3 C3 1_555 1_555
H4 C4 1_555 1_555
H5 C7 1_555 1_555
H6 C8 1_555 1_555
H7 C7 1_555 1_555
H8 C8 1_555 1_555
H9 C9 1_555 1_555
H10 N2 1_555 1_555
H11 C9 1_555 1_555
H12 N2 1_555 1_555
H13 N1 1_555 1_555
H14 N1 1_555 1_555
H15 N3 1_555 1_555
H16 N3 1_555 1_555
Cd1F S2F 1_555 1_555
Cd1F_2 S1F 1_555 1_555
S1F C6F 1_555 1_555
S1A Cd1 1_555 1_555
S2F C5F 1_555 1_555
S2A Cd1 1_555 1_555
C1F C3 1_555 1_555
C2F C4 1_555 1_555
C3F C1 1_555 1_555
C4F C2 1_555 1_555
C5F C1F 1_555 1_555
C6F C2F 1_555 1_555
N1A Cd2 1_555 1_555
N2A Cd2 1_555 1_555
N3A Cd2 1_555 1_555
C7A N1A 1_555 1_555
C8A C8 1_555 1_555
C9A N3A 1_555 1_555
H1F C1F 1_555 1_555
H2F C2F 1_555 1_555
H3F C3F 1_555 1_555
H4F C4F 1_555 1_555
H5A C7A 1_555 1_555
H6A C8A 1_555 1_555
H7A C7A 1_555 1_555
H8A C8A 1_555 1_555
H9A C9A 1_555 1_555
H10A N2A 1_555 1_555
H11A C9A 1_555 1_555
H12A N2A 1_555 1_555
H13A N1A 1_555 1_555
H14A N1A 1_555 1_555
H15A N3A 1_555 1_555
H16A N3A 1_555 1_555
C3F C5F 1_555 1_555
C4F C6F 1_555 1_555
N2A C8A 1_555 1_555
C7A C9A 1_555 1_555

#END
