
#######################################################################
#
#                 Cambridge Crystallographic Data Centre
#                                CCDC 
#
#######################################################################
#
# If this CIF has been generated from an entry in the Cambridge 
# Structural Database, then it will include bibliographic, chemical, 
# crystal, experimental, refinement or atomic coordinate data resulting 
# from the CCDC's data processing and validation procedures.
#
#######################################################################

data_PUZLUS
_symmetry_cell_setting           tetragonal
_symmetry_space_group_name_H-M   'P 42/m n m'
_symmetry_Int_Tables_number      136
_space_group_name_Hall           '-P 4n 2n'
loop_
_symmetry_equiv_pos_site_id
_symmetry_equiv_pos_as_xyz
1 x,y,z
2 -x,-y,z
3 1/2+x,1/2-y,1/2-z
4 1/2-x,1/2+y,1/2-z
5 -y,-x,-z
6 y,x,-z
7 1/2+y,1/2-x,1/2+z
8 1/2-y,1/2+x,1/2+z
9 -x,-y,-z
10 x,y,-z
11 1/2-x,1/2+y,1/2+z
12 1/2+x,1/2-y,1/2+z
13 y,x,z
14 -y,-x,z
15 1/2-y,1/2+x,1/2-z
16 1/2+y,1/2-x,1/2-z
_cell_length_a                   26.405(4)
_cell_length_b                   26.405(4)
_cell_length_c                   36.631(5)
_cell_angle_alpha                90
_cell_angle_beta                 90
_cell_angle_gamma                90
_cell_volume                     25540
loop_
_atom_site_label
_atom_site_type_symbol
_atom_site_fract_x
_atom_site_fract_y
_atom_site_fract_z
Co1 Co 0.29835(2) 0.29835(2) -0.23703(2)
Co2 Co 0.0000 0.5000 0.0000
N1 N 0.01973(18) 0.42443(17) 0.0000
S1 S 0.20771(13) 0.20771(13) -0.14329(14)
N2 N 0.15663(14) 0.58191(12) 0.14873(10)
N3 N 0.33360(12) 0.33360(12) -0.27938(13)
N4 N 0.26230(15) 0.26230(15) -0.19480(14)
N5 N 0.28417(12) 0.36993(12) 0.21098(9)
N6 N 0.18672(14) 0.49924(12) 0.13967(10)
S2 S 0.0276(2) 0.31993(9) 0.0000
N7 N 0.05497(13) 0.51401(11) 0.04289(9)
N8 N 0.21626(13) 0.54779(12) 0.19008(10)
C1 C 0.24340(17) 0.45985(15) 0.18301(12)
C2 C 0.21350(18) 0.50506(14) 0.16983(12)
C3 C 0.12312(16) 0.53096(15) 0.09986(12)
C4 C 0.18810(17) 0.58454(14) 0.17757(12)
C5 C 0.15775(16) 0.53720(15) 0.13114(12)
C6 C 0.28522(17) 0.41460(14) 0.22917(13)
H1 H 0.2994 0.4148 0.2530
C7 C 0.26733(16) 0.45933(16) 0.21555(13)
H2 H 0.2717 0.4899 0.2289
C8 C 0.0226(3) 0.3799(2) 0.0000
C9 C 0.24515(18) 0.41716(17) 0.16218(13)
H3 H 0.2339 0.4181 0.1375
C10 C 0.2630(2) 0.37302(17) 0.17674(12)
H4 H 0.2608 0.3430 0.1625
C11 C 0.0534(2) 0.55405(19) 0.06427(14)
H5 H 0.0272 0.5779 0.0596
C12 C 0.08585(18) 0.56481(17) 0.09274(14)
H6 H 0.0822 0.5948 0.1068
C13 C 0.09401(19) 0.48299(18) 0.04829(14)
H7 H 0.0989 0.4554 0.0320
C14 C 0.2397(2) 0.2397(2) -0.1731(2)
C15 C 0.1282(2) 0.48954(18) 0.07720(17)
H8 H 0.1546 0.4657 0.0811
C16 C 0.3514(3) 0.3514(3) -0.3038(2)
S3 S 0.3777(2) 0.3777(2) -0.33768(18)
C17 C 0.19039(15) 0.63333(15) 0.19760(12)
C18 C 0.1655(2) 0.67533(17) 0.18465(15)
H9 H 0.1469 0.6738 0.1625
C19 C 0.2122(3) 0.63620(16) 0.23000(16)
H10 H 0.2254 0.6067 0.2414
N9 N 0.19460(12) 0.72549(12) 0.23512(10)
C20 C 0.2158(2) 0.68635(19) 0.24818(15)
H11 H 0.2345 0.6892 0.2702
C21 C 0.1681(2) 0.71905(17) 0.20410(15)
H12 H 0.1497 0.7473 0.1951
Co1E Co 0.29835(2) 0.29835(2) 0.23703(2)
Co1F Co -0.20165(2) 0.20165(2) 0.26297(2)
Co1G Co 0.20165(2) 0.79835(2) 0.26297(2)
Co1A Co -0.29835(2) 0.70165(2) -0.23703(2)
Co1B Co -0.20165(2) 0.20165(2) -0.26297(2)
Co1C Co 0.20165(2) 0.79835(2) -0.26297(2)
Co1D Co -0.29835(2) 0.70165(2) 0.23703(2)
N1A N -0.01973(18) 0.57557(17) 0.0000
S1C S 0.29229(13) 0.70771(13) -0.35671(14)
N2A N -0.15663(14) 0.41809(12) 0.14873(10)
N2H N -0.15663(14) 0.41809(12) -0.14873(10)
N2I N 0.15663(14) 0.58191(12) -0.14873(10)
N3C N 0.16640(12) 0.83360(12) -0.22062(13)
N4C N 0.23770(15) 0.76230(15) -0.30520(14)
N5A N -0.28417(12) 0.63007(12) 0.21098(9)
N5H N -0.28417(12) 0.63007(12) -0.21098(9)
N5I N 0.28417(12) 0.36993(12) -0.21098(9)
N5E N 0.36993(12) 0.28417(12) -0.21098(9)
N5G N 0.13007(12) 0.78417(12) -0.28902(9)
N5J N 0.21583(12) 0.86993(12) -0.28902(9)
N6A N -0.18672(14) 0.50076(12) 0.13967(10)
N6H N -0.18672(14) 0.50076(12) -0.13967(10)
N6I N 0.18672(14) 0.49924(12) -0.13967(10)
S2A S -0.0276(2) 0.68007(9) 0.0000
N7A N -0.05497(13) 0.48599(11) 0.04289(9)
N7H N -0.05497(13) 0.48599(11) -0.04289(9)
N7I N 0.05497(13) 0.51401(11) -0.04289(9)
N8A N -0.21626(13) 0.45221(12) 0.19008(10)
N8H N -0.21626(13) 0.45221(12) -0.19008(10)
N8I N 0.21626(13) 0.54779(12) -0.19008(10)
C1A C -0.24340(17) 0.54015(15) 0.18301(12)
C1H C -0.24340(17) 0.54015(15) -0.18301(12)
C1I C 0.24340(17) 0.45985(15) -0.18301(12)
C2A C -0.21350(18) 0.49494(14) 0.16983(12)
C2H C -0.21350(18) 0.49494(14) -0.16983(12)
C2I C 0.21350(18) 0.50506(14) -0.16983(12)
C3A C -0.12312(16) 0.46904(15) 0.09986(12)
C3H C -0.12312(16) 0.46904(15) -0.09986(12)
C3I C 0.12312(16) 0.53096(15) -0.09986(12)
C4A C -0.18810(17) 0.41546(14) 0.17757(12)
C4H C -0.18810(17) 0.41546(14) -0.17757(12)
C4I C 0.18810(17) 0.58454(14) -0.17757(12)
C5A C -0.15775(16) 0.46280(15) 0.13114(12)
C5H C -0.15775(16) 0.46280(15) -0.13114(12)
C5I C 0.15775(16) 0.53720(15) -0.13114(12)
C6A C -0.28522(17) 0.58540(14) 0.22917(13)
C6H C -0.28522(17) 0.58540(14) -0.22917(13)
C6I C 0.28522(17) 0.41460(14) -0.22917(13)
H1A H -0.2994 0.5852 0.2530
H1H H -0.2994 0.5852 -0.2530
H1I H 0.2994 0.4148 -0.2530
C7A C -0.26733(16) 0.54067(16) 0.21555(13)
C7H C -0.26733(16) 0.54067(16) -0.21555(13)
C7I C 0.26733(16) 0.45933(16) -0.21555(13)
H2A H -0.2717 0.5101 0.2289
H2H H -0.2717 0.5101 -0.2289
H2I H 0.2717 0.4899 -0.2289
C8A C -0.0226(3) 0.6201(2) 0.0000
C9A C -0.24515(18) 0.58284(17) 0.16218(13)
C9H C -0.24515(18) 0.58284(17) -0.16218(13)
C9I C 0.24515(18) 0.41716(17) -0.16218(13)
H3A H -0.2339 0.5819 0.1375
H3H H -0.2339 0.5819 -0.1375
H3I H 0.2339 0.4181 -0.1375
C10A C -0.2630(2) 0.62698(17) 0.17674(12)
C10H C -0.2630(2) 0.62698(17) -0.17674(12)
C10I C 0.2630(2) 0.37302(17) -0.17674(12)
H4A H -0.2608 0.6570 0.1625
H4H H -0.2608 0.6570 -0.1625
H4I H 0.2608 0.3430 -0.1625
C11A C -0.0534(2) 0.44595(19) 0.06427(14)
C11H C -0.0534(2) 0.44595(19) -0.06427(14)
C11I C 0.0534(2) 0.55405(19) -0.06427(14)
H5A H -0.0272 0.4221 0.0596
H5H H -0.0272 0.4221 -0.0596
H5I H 0.0272 0.5779 -0.0596
C12A C -0.08585(18) 0.43519(17) 0.09274(14)
C12H C -0.08585(18) 0.43519(17) -0.09274(14)
C12I C 0.08585(18) 0.56481(17) -0.09274(14)
H6A H -0.0822 0.4052 0.1068
H6H H -0.0822 0.4052 -0.1068
H6I H 0.0822 0.5948 -0.1068
C13A C -0.09401(19) 0.51701(18) 0.04829(14)
C13H C -0.09401(19) 0.51701(18) -0.04829(14)
C13I C 0.09401(19) 0.48299(18) -0.04829(14)
H7A H -0.0989 0.5446 0.0320
H7H H -0.0989 0.5446 -0.0320
H7I H 0.0989 0.4554 -0.0320
C14C C 0.2603(2) 0.7397(2) -0.3269(2)
C15A C -0.1282(2) 0.51046(18) 0.07720(17)
C15H C -0.1282(2) 0.51046(18) -0.07720(17)
C15I C 0.1282(2) 0.48954(18) -0.07720(17)
H8A H -0.1546 0.5343 0.0811
H8H H -0.1546 0.5343 -0.0811
H8I H 0.1546 0.4657 -0.0811
C16C C 0.1486(3) 0.8514(3) -0.1962(2)
S3C S 0.1223(2) 0.8777(2) -0.16232(18)
C17A C -0.19039(15) 0.36667(15) 0.19760(12)
C17H C -0.19039(15) 0.36667(15) -0.19760(12)
C17I C 0.19039(15) 0.63333(15) -0.19760(12)
C18A C -0.1655(2) 0.32467(17) 0.18465(15)
C18H C -0.1655(2) 0.32467(17) -0.18465(15)
C18I C 0.1655(2) 0.67533(17) -0.18465(15)
H9A H -0.1469 0.3262 0.1625
H9H H -0.1469 0.3262 -0.1625
H9I H 0.1469 0.6738 -0.1625
C19A C -0.2122(3) 0.36380(16) 0.23000(16)
C19H C -0.2122(3) 0.36380(16) -0.23000(16)
C19I C 0.2122(3) 0.63620(16) -0.23000(16)
H10A H -0.2254 0.3933 0.2414
H10H H -0.2254 0.3933 -0.2414
H10I H 0.2254 0.6067 -0.2414
N9A N -0.19460(12) 0.27451(12) 0.23512(10)
N9H N -0.19460(12) 0.27451(12) -0.23512(10)
N9I N 0.19460(12) 0.72549(12) -0.23512(10)
N9F N 0.22549(12) 0.30540(12) -0.26488(10)
N9J N 0.30540(12) 0.22549(12) -0.26488(10)
N9D N 0.27451(12) 0.80540(12) -0.23512(10)
C20A C -0.2158(2) 0.31365(19) 0.24818(15)
C20H C -0.2158(2) 0.31365(19) -0.24818(15)
C20I C 0.2158(2) 0.68635(19) -0.24818(15)
H11A H -0.2345 0.3108 0.2702
H11H H -0.2345 0.3108 -0.2702
H11I H 0.2345 0.6892 -0.2702
C21A C -0.1681(2) 0.28095(17) 0.20410(15)
C21H C -0.1681(2) 0.28095(17) -0.20410(15)
C21I C 0.1681(2) 0.71905(17) -0.20410(15)
H12A H -0.1497 0.2527 0.1951
H12H H -0.1497 0.2527 -0.1951
H12I H 0.1497 0.7473 -0.1951
S4 S 0.13297(10) 0.32975(11) 0.15898(9)
S5 S 0.05770(15) 0.38063(17) 0.11441(12)
C22 C 0.1193(4) 0.3026(4) 0.1166(3)
H13 H 0.1359 0.2727 0.1085
C23 C 0.0952(4) 0.3825(4) 0.1536(3)
C24 C 0.0851(4) 0.3253(4) 0.0964(3)
H14 H 0.0756 0.3125 0.0732
S6 S 0.12736(15) 0.41413(15) 0.22035(12)
S7 S 0.0548(2) 0.4722(2) 0.17584(17)
C25 C 0.0933(4) 0.4178(4) 0.1805(3)
C26 C 0.0807(4) 0.5006(3) 0.2142(3)
H15 H 0.0725 0.5348 0.2195
C27 C 0.1114(4) 0.4759(4) 0.2362(3)
H16 H 0.1239 0.4898 0.2584
loop_
_geom_bond_atom_site_label_1
_geom_bond_atom_site_label_2
_geom_bond_site_symmetry_1
_geom_bond_site_symmetry_2
Co1 N3 1_555 1_555
Co2 N1 1_555 1_555
N1 C8 1_555 1_555
S1 C14 1_555 1_555
N2 C4 1_555 1_555
N3 C16 1_555 1_555
N4 Co1 1_555 1_555
N5 C6 1_555 1_555
N6 C2 1_555 1_555
S2 C8 1_555 1_555
N7 Co2 1_555 1_555
N8 C2 1_555 1_555
C1 C2 1_555 1_555
C3 C5 1_555 1_555
C4 N8 1_555 1_555
C5 N2 1_555 1_555
C6 H1 1_555 1_555
C7 C1 1_555 1_555
H2 C7 1_555 1_555
C9 C1 1_555 1_555
H3 C9 1_555 1_555
C10 N5 1_555 1_555
H4 C10 1_555 1_555
C11 N7 1_555 1_555
H5 C11 1_555 1_555
C12 C3 1_555 1_555
H6 C12 1_555 1_555
C13 N7 1_555 1_555
H7 C13 1_555 1_555
C14 N4 1_555 1_555
C15 C3 1_555 1_555
H8 C15 1_555 1_555
C16 S3 1_555 1_555
C17 C4 1_555 1_555
C18 C17 1_555 1_555
H9 C18 1_555 1_555
C19 C17 1_555 1_555
H10 C19 1_555 1_555
N9 C20 1_555 1_555
C20 C19 1_555 1_555
H11 C20 1_555 1_555
C21 C18 1_555 1_555
H12 C21 1_555 1_555
S4 C22 1_555 1_555
S5 C23 1_555 1_555
C22 H13 1_555 1_555
C23 S4 1_555 1_555
C24 S5 1_555 1_555
H14 C24 1_555 1_555
S6 C25 1_555 1_555
S7 C25 1_555 1_555
C25 C23 1_555 1_555
C26 S7 1_555 1_555
H15 C26 1_555 1_555
C27 S6 1_555 1_555
H16 C27 1_555 1_555
Co1E N5 1_555 1_555
Co1F N9A 1_555 1_555
Co1G N9 1_555 1_555
Co1A N5H 1_555 1_555
Co1B N9H 1_555 1_555
Co1C N3C 1_555 1_555
Co1D N5A 1_555 1_555
N1A Co2 1_555 1_555
S1C C14C 1_555 1_555
N2A C4A 1_555 1_555
N2H C4H 1_555 1_555
N2I C4I 1_555 1_555
N3C C16C 1_555 1_555
N4C Co1C 1_555 1_555
N5A C6A 1_555 1_555
N5H C6H 1_555 1_555
N5I Co1 1_555 1_555
N5E Co1 1_555 1_555
N5G Co1C 1_555 1_555
N5J Co1C 1_555 1_555
N6A C2A 1_555 1_555
N6H C2H 1_555 1_555
N6I C2I 1_555 1_555
S2A C8A 1_555 1_555
N7A Co2 1_555 1_555
N7H Co2 1_555 1_555
N7I Co2 1_555 1_555
N8A C2A 1_555 1_555
N8H C2H 1_555 1_555
N8I C2I 1_555 1_555
C1A C2A 1_555 1_555
C1H C2H 1_555 1_555
C1I C2I 1_555 1_555
C3A C5A 1_555 1_555
C3H C5H 1_555 1_555
C3I C5I 1_555 1_555
C4A N8A 1_555 1_555
C4H N8H 1_555 1_555
C4I N8I 1_555 1_555
C5A N2A 1_555 1_555
C5H N2H 1_555 1_555
C5I N2I 1_555 1_555
C6A H1A 1_555 1_555
C6H H1H 1_555 1_555
C6I N5I 1_555 1_555
H1I C6I 1_555 1_555
C7A C1A 1_555 1_555
C7H C1H 1_555 1_555
C7I C1I 1_555 1_555
H2A C7A 1_555 1_555
H2H C7H 1_555 1_555
H2I C7I 1_555 1_555
C8A N1A 1_555 1_555
C9A C1A 1_555 1_555
C9H C1H 1_555 1_555
C9I C1I 1_555 1_555
H3A C9A 1_555 1_555
H3H C9H 1_555 1_555
H3I C9I 1_555 1_555
C10A N5A 1_555 1_555
C10H N5H 1_555 1_555
C10I N5I 1_555 1_555
H4A C10A 1_555 1_555
H4H C10H 1_555 1_555
H4I C10I 1_555 1_555
C11A N7A 1_555 1_555
C11H N7H 1_555 1_555
C11I N7I 1_555 1_555
H5A C11A 1_555 1_555
H5H C11H 1_555 1_555
H5I C11I 1_555 1_555
C12A C3A 1_555 1_555
C12H C3H 1_555 1_555
C12I C3I 1_555 1_555
H6A C12A 1_555 1_555
H6H C12H 1_555 1_555
H6I C12I 1_555 1_555
C13A N7A 1_555 1_555
C13H N7H 1_555 1_555
C13I N7I 1_555 1_555
H7A C13A 1_555 1_555
H7H C13H 1_555 1_555
H7I C13I 1_555 1_555
C14C N4C 1_555 1_555
C15A C3A 1_555 1_555
C15H C3H 1_555 1_555
C15I C3I 1_555 1_555
H8A C15A 1_555 1_555
H8H C15H 1_555 1_555
H8I C15I 1_555 1_555
C16C S3C 1_555 1_555
C17A C4A 1_555 1_555
C17H C4H 1_555 1_555
C17I C4I 1_555 1_555
C18A C17A 1_555 1_555
C18H C17H 1_555 1_555
C18I C17I 1_555 1_555
H9A C18A 1_555 1_555
H9H C18H 1_555 1_555
H9I C18I 1_555 1_555
C19A C17A 1_555 1_555
C19H C17H 1_555 1_555
C19I C17I 1_555 1_555
H10A C19A 1_555 1_555
H10H C19H 1_555 1_555
H10I C19I 1_555 1_555
N9A C20A 1_555 1_555
N9H C20H 1_555 1_555
N9I Co1C 1_555 1_555
N9F Co1 1_555 1_555
N9J Co1 1_555 1_555
N9D Co1C 1_555 1_555
C20A C19A 1_555 1_555
C20H C19H 1_555 1_555
C20I C19I 1_555 1_555
H11A C20A 1_555 1_555
H11H C20H 1_555 1_555
H11I C20I 1_555 1_555
C21A C18A 1_555 1_555
C21H C18H 1_555 1_555
C21I C18I 1_555 1_555
H12A C21A 1_555 1_555
H12H C21H 1_555 1_555
H12I C21I 1_555 1_555
N6 C5 1_555 1_555
C6 C7 1_555 1_555
C9 C10 1_555 1_555
C11 C12 1_555 1_555
C13 C15 1_555 1_555
N9 C21 1_555 1_555
C22 C24 1_555 1_555
C26 C27 1_555 1_555
N6A C5A 1_555 1_555
N6H C5H 1_555 1_555
N6I C5I 1_555 1_555
C6A C7A 1_555 1_555
C6H C7H 1_555 1_555
C6I C7I 1_555 1_555
C9A C10A 1_555 1_555
C9H C10H 1_555 1_555
C9I C10I 1_555 1_555
C11A C12A 1_555 1_555
C11H C12H 1_555 1_555
C11I C12I 1_555 1_555
C13A C15A 1_555 1_555
C13H C15H 1_555 1_555
C13I C15I 1_555 1_555
N9A C21A 1_555 1_555
N9H C21H 1_555 1_555
N9I C20I 1_555 1_555
N9I C21I 1_555 1_555

#END
