
#######################################################################
#
#                 Cambridge Crystallographic Data Centre
#                                CCDC 
#
#######################################################################
#
# If this CIF has been generated from an entry in the Cambridge 
# Structural Database, then it will include bibliographic, chemical, 
# crystal, experimental, refinement or atomic coordinate data resulting 
# from the CCDC's data processing and validation procedures.
#
#######################################################################

data_PUZLOM
_symmetry_cell_setting           cubic
_symmetry_space_group_name_H-M   'F m -3 m'
_symmetry_Int_Tables_number      225
_space_group_name_Hall           '-F 4 2 3'
loop_
_symmetry_equiv_pos_site_id
_symmetry_equiv_pos_as_xyz
1 x,y,z
2 y,x,-z
3 x,-z,y
4 -z,y,x
5 z,y,-x
6 -z,x,-y
7 x,z,-y
8 y,-z,-x
9 y,-x,z
10 x,-y,-z
11 -x,-y,z
12 -y,-x,-z
13 -z,-y,-x
14 z,-x,-y
15 x,1/2+y,1/2+z
16 y,1/2+x,1/2-z
17 x,1/2-z,1/2+y
18 -z,1/2+y,1/2+x
19 z,1/2+y,1/2-x
20 -z,1/2+x,1/2-y
21 x,1/2+z,1/2-y
22 y,1/2-z,1/2-x
23 y,1/2-x,1/2+z
24 x,1/2-y,1/2-z
25 -x,1/2-y,1/2+z
26 -y,1/2-x,1/2-z
27 -z,1/2-y,1/2-x
28 z,1/2-x,1/2-y
29 1/2+x,y,1/2+z
30 1/2+y,x,1/2-z
31 1/2+x,-z,1/2+y
32 1/2-z,y,1/2+x
33 1/2+z,y,1/2-x
34 1/2-z,x,1/2-y
35 1/2+x,z,1/2-y
36 1/2+y,-z,1/2-x
37 1/2+y,-x,1/2+z
38 1/2+x,-y,1/2-z
39 1/2-x,-y,1/2+z
40 1/2-y,-x,1/2-z
41 1/2-z,-y,1/2-x
42 1/2+z,-x,1/2-y
43 1/2+x,1/2+y,z
44 1/2+y,1/2+x,-z
45 1/2+x,1/2-z,y
46 1/2-z,1/2+y,x
47 1/2+z,1/2+y,-x
48 1/2-z,1/2+x,-y
49 1/2+x,1/2+z,-y
50 1/2+y,1/2-z,-x
51 1/2+y,1/2-x,z
52 1/2+x,1/2-y,-z
53 1/2-x,1/2-y,z
54 1/2-y,1/2-x,-z
55 1/2-z,1/2-y,-x
56 1/2+z,1/2-x,-y
57 -x,-z,-y
58 -y,z,-x
59 -z,-x,y
60 -y,-z,x
61 -x,z,y
62 z,-y,x
63 -x,y,-z
64 -y,x,z
65 y,z,x
66 z,x,y
67 -x,1/2-z,1/2-y
68 -y,1/2+z,1/2-x
69 -z,1/2-x,1/2+y
70 -y,1/2-z,1/2+x
71 -x,1/2+z,1/2+y
72 z,1/2-y,1/2+x
73 -x,1/2+y,1/2-z
74 -y,1/2+x,1/2+z
75 y,1/2+z,1/2+x
76 z,1/2+x,1/2+y
77 1/2-x,-z,1/2-y
78 1/2-y,z,1/2-x
79 1/2-z,-x,1/2+y
80 1/2-y,-z,1/2+x
81 1/2-x,z,1/2+y
82 1/2+z,-y,1/2+x
83 1/2-x,y,1/2-z
84 1/2-y,x,1/2+z
85 1/2+y,z,1/2+x
86 1/2+z,x,1/2+y
87 1/2-x,1/2-z,-y
88 1/2-y,1/2+z,-x
89 1/2-z,1/2-x,y
90 1/2-y,1/2-z,x
91 1/2-x,1/2+z,y
92 1/2+z,1/2-y,x
93 1/2-x,1/2+y,-z
94 1/2-y,1/2+x,z
95 1/2+y,1/2+z,x
96 1/2+z,1/2+x,y
97 -x,-y,-z
98 -y,-x,z
99 -x,z,-y
100 z,-y,-x
101 -z,-y,x
102 z,-x,y
103 -x,-z,y
104 -y,z,x
105 -y,x,-z
106 -x,y,z
107 x,y,-z
108 y,x,z
109 z,y,x
110 -z,x,y
111 -x,1/2-y,1/2-z
112 -y,1/2-x,1/2+z
113 -x,1/2+z,1/2-y
114 z,1/2-y,1/2-x
115 -z,1/2-y,1/2+x
116 z,1/2-x,1/2+y
117 -x,1/2-z,1/2+y
118 -y,1/2+z,1/2+x
119 -y,1/2+x,1/2-z
120 -x,1/2+y,1/2+z
121 x,1/2+y,1/2-z
122 y,1/2+x,1/2+z
123 z,1/2+y,1/2+x
124 -z,1/2+x,1/2+y
125 1/2-x,-y,1/2-z
126 1/2-y,-x,1/2+z
127 1/2-x,z,1/2-y
128 1/2+z,-y,1/2-x
129 1/2-z,-y,1/2+x
130 1/2+z,-x,1/2+y
131 1/2-x,-z,1/2+y
132 1/2-y,z,1/2+x
133 1/2-y,x,1/2-z
134 1/2-x,y,1/2+z
135 1/2+x,y,1/2-z
136 1/2+y,x,1/2+z
137 1/2+z,y,1/2+x
138 1/2-z,x,1/2+y
139 1/2-x,1/2-y,-z
140 1/2-y,1/2-x,z
141 1/2-x,1/2+z,-y
142 1/2+z,1/2-y,-x
143 1/2-z,1/2-y,x
144 1/2+z,1/2-x,y
145 1/2-x,1/2-z,y
146 1/2-y,1/2+z,x
147 1/2-y,1/2+x,-z
148 1/2-x,1/2+y,z
149 1/2+x,1/2+y,-z
150 1/2+y,1/2+x,z
151 1/2+z,1/2+y,x
152 1/2-z,1/2+x,y
153 x,z,y
154 y,-z,x
155 z,x,-y
156 y,z,-x
157 x,-z,-y
158 -z,y,-x
159 x,-y,z
160 y,-x,-z
161 -y,-z,-x
162 -z,-x,-y
163 x,1/2+z,1/2+y
164 y,1/2-z,1/2+x
165 z,1/2+x,1/2-y
166 y,1/2+z,1/2-x
167 x,1/2-z,1/2-y
168 -z,1/2+y,1/2-x
169 x,1/2-y,1/2+z
170 y,1/2-x,1/2-z
171 -y,1/2-z,1/2-x
172 -z,1/2-x,1/2-y
173 1/2+x,z,1/2+y
174 1/2+y,-z,1/2+x
175 1/2+z,x,1/2-y
176 1/2+y,z,1/2-x
177 1/2+x,-z,1/2-y
178 1/2-z,y,1/2-x
179 1/2+x,-y,1/2+z
180 1/2+y,-x,1/2-z
181 1/2-y,-z,1/2-x
182 1/2-z,-x,1/2-y
183 1/2+x,1/2+z,y
184 1/2+y,1/2-z,x
185 1/2+z,1/2+x,-y
186 1/2+y,1/2+z,-x
187 1/2+x,1/2-z,-y
188 1/2-z,1/2+y,-x
189 1/2+x,1/2-y,z
190 1/2+y,1/2-x,-z
191 1/2-y,1/2-z,-x
192 1/2-z,1/2-x,-y
_cell_length_a                   37.461(5)
_cell_length_b                   37.461(5)
_cell_length_c                   37.461(5)
_cell_angle_alpha                90
_cell_angle_beta                 90
_cell_angle_gamma                90
_cell_volume                     52570
loop_
_atom_site_label
_atom_site_type_symbol
_atom_site_fract_x
_atom_site_fract_y
_atom_site_fract_z
C1 C 0.26713(19) 0.44608(17) 0.30825(16)
C2 C 0.1880(2) 0.5000 0.3120(2)
S1 S 0.15940(7) 0.5000 0.34060(7)
N1 N 0.21058(12) 0.5000 0.28942(12)
Co1 Co 0.2500 0.5000 0.2500
N2 N 0.27817(11) 0.45903(12) 0.27817(11)
H1 H 0.2468 0.4565 0.3192
C3 C 0.28377(18) 0.41737(17) 0.32541(16)
H2 H 0.2734 0.4081 0.3466
C4 C 0.31326(12) 0.40273(15) 0.31326(12)
C5 C 0.33078(13) 0.37392(15) 0.33078(13)
N3 N 0.35988(10) 0.35988(10) 0.31569(13)
C1DD C 0.30825(16) 0.44608(17) 0.26713(19)
C1CD C 0.44608(17) 0.26713(19) 0.30825(16)
C1LB C 0.44608(17) 0.30825(16) 0.26713(19)
C1VE C 0.26713(19) 0.30825(16) 0.44608(17)
C1MB C 0.30825(16) 0.26713(19) 0.44608(17)
C1IB C 0.30825(16) 0.55392(17) 0.26713(19)
C1BF C 0.26713(19) 0.55392(17) 0.30825(16)
C1WC C 0.30825(16) 0.73287(19) 0.44608(17)
C1B C 0.26713(19) 0.69175(16) 0.44608(17)
C1WE C 0.44608(17) 0.69175(16) 0.26713(19)
C1H C 0.44608(17) 0.73287(19) 0.30825(16)
C1DC C 0.23287(19) 0.44608(17) 0.19175(16)
C1UF C 0.19175(16) 0.44608(17) 0.23287(19)
C1BE C 0.05392(17) 0.26713(19) 0.19175(16)
C1YB C 0.05392(17) 0.30825(16) 0.23287(19)
C1VD C 0.23287(19) 0.30825(16) 0.05392(17)
C1GA C 0.19175(16) 0.26713(19) 0.05392(17)
C1NA C 0.19175(16) 0.55392(17) 0.23287(19)
C1TD C 0.23287(19) 0.55392(17) 0.19175(16)
C1YF C 0.19175(16) 0.73287(19) 0.05392(17)
C1XB C 0.23287(19) 0.69175(16) 0.05392(17)
C1XF C 0.05392(17) 0.69175(16) 0.23287(19)
C1MA C 0.05392(17) 0.73287(19) 0.19175(16)
C2IB C 0.3120(2) 0.5000 0.1880(2)
C2U C 0.5000 0.1880(2) 0.3120(2)
C2Y C 0.5000 0.3120(2) 0.1880(2)
C2F C 0.1880(2) 0.3120(2) 0.5000
C2MB C 0.3120(2) 0.1880(2) 0.5000
S1IB S 0.34060(7) 0.5000 0.15940(7)
S1U S 0.5000 0.15940(7) 0.34060(7)
S1Y S 0.5000 0.34060(7) 0.15940(7)
S1F S 0.15940(7) 0.34060(7) 0.5000
S1MB S 0.34060(7) 0.15940(7) 0.5000
N1IB N 0.28942(12) 0.5000 0.21058(12)
N1U N 0.5000 0.21058(12) 0.28942(12)
N1Y N 0.5000 0.28942(12) 0.21058(12)
N1F N 0.21058(12) 0.28942(12) 0.5000
N1MB N 0.28942(12) 0.21058(12) 0.5000
Co1U Co 0.5000 0.2500 0.2500
Co1F Co 0.2500 0.2500 0.5000
Co1B Co 0.2500 0.7500 0.5000
Co1H Co 0.5000 0.7500 0.2500
Co1CA Co 0.0000 0.2500 0.2500
Co1P Co 0.2500 0.2500 0.0000
Co1T Co 0.2500 0.7500 0.0000
Co1IA Co 0.0000 0.7500 0.2500
N2LB N 0.45903(12) 0.27817(11) 0.27817(11)
N2MB N 0.27817(11) 0.27817(11) 0.45903(12)
N2IB N 0.27817(11) 0.54097(12) 0.27817(11)
N2B N 0.27817(11) 0.72183(11) 0.45903(12)
N2H N 0.45903(12) 0.72183(11) 0.27817(11)
N2DC N 0.22183(11) 0.45903(12) 0.22183(11)
N2YB N 0.04097(12) 0.27817(11) 0.22183(11)
N2GA N 0.22183(11) 0.27817(11) 0.04097(12)
N2NA N 0.22183(11) 0.54097(12) 0.22183(11)
N2XB N 0.22183(11) 0.72183(11) 0.04097(12)
N2MA N 0.04097(12) 0.72183(11) 0.22183(11)
N2KB N 0.54097(12) 0.27817(11) 0.27817(11)
N2U N 0.45903(12) 0.22183(11) 0.22183(11)
N2Y N 0.54097(12) 0.22183(11) 0.22183(11)
N2F N 0.27817(11) 0.27817(11) 0.54097(12)
N2JC N 0.22183(11) 0.22183(11) 0.45903(12)
N2HC N 0.22183(11) 0.22183(11) 0.54097(12)
H1DD H 0.3192 0.4565 0.2468
H1LB H 0.4565 0.3192 0.2468
H1CD H 0.4565 0.2468 0.3192
H1MB H 0.3192 0.2468 0.4565
H1VE H 0.2468 0.3192 0.4565
H1IB H 0.3192 0.5435 0.2468
H1BF H 0.2468 0.5435 0.3192
H1B H 0.2468 0.6808 0.4565
H1WC H 0.3192 0.7532 0.4565
H1H H 0.4565 0.7532 0.3192
H1WE H 0.4565 0.6808 0.2468
H1DC H 0.2532 0.4565 0.1808
H1UF H 0.1808 0.4565 0.2532
H1YB H 0.0435 0.3192 0.2532
H1BE H 0.0435 0.2468 0.1808
H1GA H 0.1808 0.2468 0.0435
H1VD H 0.2532 0.3192 0.0435
H1NA H 0.1808 0.5435 0.2532
H1TD H 0.2532 0.5435 0.1808
H1XB H 0.2532 0.6808 0.0435
H1YF H 0.1808 0.7532 0.0435
H1MA H 0.0435 0.7532 0.1808
H1XF H 0.0435 0.6808 0.2532
C3DD C 0.32541(16) 0.41737(17) 0.28377(18)
C3CD C 0.41737(17) 0.28377(18) 0.32541(16)
C3LB C 0.41737(17) 0.32541(16) 0.28377(18)
C3VE C 0.28377(18) 0.32541(16) 0.41737(17)
C3MB C 0.32541(16) 0.28377(18) 0.41737(17)
C3IB C 0.32541(16) 0.58263(17) 0.28377(18)
C3BF C 0.28377(18) 0.58263(17) 0.32541(16)
C3WC C 0.32541(16) 0.71623(18) 0.41737(17)
C3B C 0.28377(18) 0.67459(16) 0.41737(17)
C3WE C 0.41737(17) 0.67459(16) 0.28377(18)
C3H C 0.41737(17) 0.71623(18) 0.32541(16)
C3DC C 0.21623(18) 0.41737(17) 0.17459(16)
C3UF C 0.17459(16) 0.41737(17) 0.21623(18)
C3BE C 0.08263(17) 0.28377(18) 0.17459(16)
C3YB C 0.08263(17) 0.32541(16) 0.21623(18)
C3VD C 0.21623(18) 0.32541(16) 0.08263(17)
C3GA C 0.17459(16) 0.28377(18) 0.08263(17)
C3NA C 0.17459(16) 0.58263(17) 0.21623(18)
C3TD C 0.21623(18) 0.58263(17) 0.17459(16)
C3YF C 0.17459(16) 0.71623(18) 0.08263(17)
C3XB C 0.21623(18) 0.67459(16) 0.08263(17)
C3XF C 0.08263(17) 0.67459(16) 0.21623(18)
C3MA C 0.08263(17) 0.71623(18) 0.17459(16)
H2DD H 0.3466 0.4081 0.2734
H2LB H 0.4081 0.3466 0.2734
H2CD H 0.4081 0.2734 0.3466
H2MB H 0.3466 0.2734 0.4081
H2VE H 0.2734 0.3466 0.4081
H2IB H 0.3466 0.5919 0.2734
H2BF H 0.2734 0.5919 0.3466
H2B H 0.2734 0.6534 0.4081
H2WC H 0.3466 0.7266 0.4081
H2H H 0.4081 0.7266 0.3466
H2WE H 0.4081 0.6534 0.2734
H2DC H 0.2266 0.4081 0.1534
H2UF H 0.1534 0.4081 0.2266
H2YB H 0.0919 0.3466 0.2266
H2BE H 0.0919 0.2734 0.1534
H2GA H 0.1534 0.2734 0.0919
H2VD H 0.2266 0.3466 0.0919
H2NA H 0.1534 0.5919 0.2266
H2TD H 0.2266 0.5919 0.1534
H2XB H 0.2266 0.6534 0.0919
H2YF H 0.1534 0.7266 0.0919
H2MA H 0.0919 0.7266 0.1534
H2XF H 0.0919 0.6534 0.2266
C4LB C 0.40273(15) 0.31326(12) 0.31326(12)
C4MB C 0.31326(12) 0.31326(12) 0.40273(15)
C4IB C 0.31326(12) 0.59727(15) 0.31326(12)
C4B C 0.31326(12) 0.68674(12) 0.40273(15)
C4H C 0.40273(15) 0.68674(12) 0.31326(12)
C4DC C 0.18674(12) 0.40273(15) 0.18674(12)
C4YB C 0.09727(15) 0.31326(12) 0.18674(12)
C4GA C 0.18674(12) 0.31326(12) 0.09727(15)
C4NA C 0.18674(12) 0.59727(15) 0.18674(12)
C4XB C 0.18674(12) 0.68674(12) 0.09727(15)
C4MA C 0.09727(15) 0.68674(12) 0.18674(12)
C5LB C 0.37392(15) 0.33078(13) 0.33078(13)
C5MB C 0.33078(13) 0.33078(13) 0.37392(15)
C5IB C 0.33078(13) 0.62608(15) 0.33078(13)
C5B C 0.33078(13) 0.66922(13) 0.37392(15)
C5H C 0.37392(15) 0.66922(13) 0.33078(13)
C5DC C 0.16922(13) 0.37392(15) 0.16922(13)
C5YB C 0.12608(15) 0.33078(13) 0.16922(13)
C5GA C 0.16922(13) 0.33078(13) 0.12608(15)
C5NA C 0.16922(13) 0.62608(15) 0.16922(13)
C5XB C 0.16922(13) 0.66922(13) 0.12608(15)
C5MA C 0.12608(15) 0.66922(13) 0.16922(13)
N3LB N 0.35988(10) 0.31569(13) 0.35988(10)
N3MB N 0.31569(13) 0.35988(10) 0.35988(10)
N3IB N 0.31569(13) 0.64012(10) 0.35988(10)
N3B N 0.35988(10) 0.68431(13) 0.35988(10)
N3H N 0.35988(10) 0.64012(10) 0.31569(13)
N3DC N 0.14012(10) 0.35988(10) 0.18431(13)
N3YB N 0.14012(10) 0.31569(13) 0.14012(10)
N3GA N 0.18431(13) 0.35988(10) 0.14012(10)
N3NA N 0.18431(13) 0.64012(10) 0.14012(10)
N3XB N 0.14012(10) 0.68431(13) 0.14012(10)
N3MA N 0.14012(10) 0.64012(10) 0.18431(13)
loop_
_geom_bond_atom_site_label_1
_geom_bond_atom_site_label_2
_geom_bond_site_symmetry_1
_geom_bond_site_symmetry_2
C1 N2 1_555 1_555
C2 S1 1_555 1_555
N1 C2 1_555 1_555
Co1 N1 1_555 1_555
N2 Co1 1_555 1_555
H1 C1 1_555 1_555
C3 C1 1_555 1_555
H2 C3 1_555 1_555
C4 C3 1_555 1_555
C5 C4 1_555 1_555
N3 C5 1_555 1_555
C1DD N2 1_555 1_555
C1CD N2LB 1_555 1_555
C1LB N2LB 1_555 1_555
C1VE N2MB 1_555 1_555
C1MB N2MB 1_555 1_555
C1IB N2IB 1_555 1_555
C1BF N2IB 1_555 1_555
C1WC N2B 1_555 1_555
C1B N2B 1_555 1_555
C1WE N2H 1_555 1_555
C1H N2H 1_555 1_555
C1DC N2DC 1_555 1_555
C1UF N2DC 1_555 1_555
C1BE N2YB 1_555 1_555
C1YB N2YB 1_555 1_555
C1VD N2GA 1_555 1_555
C1GA N2GA 1_555 1_555
C1NA N2NA 1_555 1_555
C1TD N2NA 1_555 1_555
C1YF N2XB 1_555 1_555
C1XB N2XB 1_555 1_555
C1XF N2MA 1_555 1_555
C1MA N2MA 1_555 1_555
C2IB S1IB 1_555 1_555
C2U S1U 1_555 1_555
C2Y S1Y 1_555 1_555
C2F S1F 1_555 1_555
C2MB S1MB 1_555 1_555
N1IB Co1 1_555 1_555
N1U C2U 1_555 1_555
N1Y C2Y 1_555 1_555
N1F C2F 1_555 1_555
N1MB C2MB 1_555 1_555
Co1U N1U 1_555 1_555
Co1F N1F 1_555 1_555
Co1B N2B 1_555 1_555
Co1H N2H 1_555 1_555
Co1CA N2YB 1_555 1_555
Co1P N2GA 1_555 1_555
Co1T N2XB 1_555 1_555
Co1IA N2MA 1_555 1_555
N2LB Co1U 1_555 1_555
N2MB Co1F 1_555 1_555
N2IB Co1 1_555 1_555
N2DC Co1 1_555 1_555
N2NA Co1 1_555 1_555
N2KB Co1U 1_555 1_555
N2U Co1U 1_555 1_555
N2Y Co1U 1_555 1_555
N2F Co1F 1_555 1_555
N2JC Co1F 1_555 1_555
N2HC Co1F 1_555 1_555
H1DD C1DD 1_555 1_555
H1LB C1LB 1_555 1_555
H1CD C1CD 1_555 1_555
H1MB C1MB 1_555 1_555
H1VE C1VE 1_555 1_555
H1IB C1IB 1_555 1_555
H1BF C1BF 1_555 1_555
H1B C1B 1_555 1_555
H1WC C1WC 1_555 1_555
H1H C1H 1_555 1_555
H1WE C1WE 1_555 1_555
H1DC C1DC 1_555 1_555
H1UF C1UF 1_555 1_555
H1YB C1YB 1_555 1_555
H1BE C1BE 1_555 1_555
H1GA C1GA 1_555 1_555
H1VD C1VD 1_555 1_555
H1NA C1NA 1_555 1_555
H1TD C1TD 1_555 1_555
H1XB C1XB 1_555 1_555
H1YF C1YF 1_555 1_555
H1MA C1MA 1_555 1_555
H1XF C1XF 1_555 1_555
C3DD C4 1_555 1_555
C3CD C1CD 1_555 1_555
C3LB C1LB 1_555 1_555
C3VE C1VE 1_555 1_555
C3MB C1MB 1_555 1_555
C3IB C1IB 1_555 1_555
C3BF C1BF 1_555 1_555
C3WC C1WC 1_555 1_555
C3B C1B 1_555 1_555
C3WE C1WE 1_555 1_555
C3H C1H 1_555 1_555
C3DC C1DC 1_555 1_555
C3UF C1UF 1_555 1_555
C3BE C1BE 1_555 1_555
C3YB C1YB 1_555 1_555
C3VD C1VD 1_555 1_555
C3GA C1GA 1_555 1_555
C3NA C1NA 1_555 1_555
C3TD C1TD 1_555 1_555
C3YF C1YF 1_555 1_555
C3XB C1XB 1_555 1_555
C3XF C1XF 1_555 1_555
C3MA C1MA 1_555 1_555
H2DD C3DD 1_555 1_555
H2LB C3LB 1_555 1_555
H2CD C3CD 1_555 1_555
H2MB C3MB 1_555 1_555
H2VE C3VE 1_555 1_555
H2IB C3IB 1_555 1_555
H2BF C3BF 1_555 1_555
H2B C3B 1_555 1_555
H2WC C3WC 1_555 1_555
H2H C3H 1_555 1_555
H2WE C3WE 1_555 1_555
H2DC C3DC 1_555 1_555
H2UF C3UF 1_555 1_555
H2YB C3YB 1_555 1_555
H2BE C3BE 1_555 1_555
H2GA C3GA 1_555 1_555
H2VD C3VD 1_555 1_555
H2NA C3NA 1_555 1_555
H2TD C3TD 1_555 1_555
H2XB C3XB 1_555 1_555
H2YF C3YF 1_555 1_555
H2MA C3MA 1_555 1_555
H2XF C3XF 1_555 1_555
C4LB C3CD 1_555 1_555
C4MB C3VE 1_555 1_555
C4IB C3IB 1_555 1_555
C4B C3WC 1_555 1_555
C4H C3WE 1_555 1_555
C4DC C3DC 1_555 1_555
C4YB C3BE 1_555 1_555
C4GA C3VD 1_555 1_555
C4NA C3NA 1_555 1_555
C4XB C3YF 1_555 1_555
C4MA C3XF 1_555 1_555
C5LB N3 1_555 1_555
C5MB C4MB 1_555 1_555
C5IB C4IB 1_555 1_555
C5B C4B 1_555 1_555
C5H C4H 1_555 1_555
C5DC C4DC 1_555 1_555
C5YB C4YB 1_555 1_555
C5GA C4GA 1_555 1_555
C5NA C4NA 1_555 1_555
C5XB C4XB 1_555 1_555
C5MA C4MA 1_555 1_555
N3LB C5LB 1_555 1_555
N3MB C5 1_555 1_555
N3IB C5IB 1_555 1_555
N3B C5B 1_555 1_555
N3H C5IB 1_555 1_555
N3DC C5DC 1_555 1_555
N3YB C5YB 1_555 1_555
N3GA C5DC 1_555 1_555
N3NA C5NA 1_555 1_555
N3XB C5XB 1_555 1_555
N3MA C5NA 1_555 1_555
C1DD C3DD 1_555 1_555
C2IB N1IB 1_555 1_555
N1Y Co1U 1_555 1_555
N1MB Co1F 1_555 1_555
C3LB C4LB 1_555 1_555
C3MB C4MB 1_555 1_555
C3BF C4IB 1_555 1_555
C3B C4B 1_555 1_555
C3H C4H 1_555 1_555
C3UF C4DC 1_555 1_555
C3YB C4YB 1_555 1_555
C3GA C4GA 1_555 1_555
C3TD C4NA 1_555 1_555
C3XB C4XB 1_555 1_555
C3MA C4MA 1_555 1_555
C4LB C5LB 1_555 1_555
C5MB N3LB 1_555 1_555
C5MB N3MB 1_555 1_555
C5B N3IB 1_555 1_555
C5H N3B 1_555 1_555
C5H N3H 1_555 1_555
C5YB N3DC 1_555 1_555
C5GA N3YB 1_555 1_555
C5GA N3GA 1_555 1_555
C5XB N3NA 1_555 1_555
C5MA N3XB 1_555 1_555
C5MA N3MA 1_555 1_555

#END
