
#######################################################################
#
#                 Cambridge Crystallographic Data Centre
#                                CCDC 
#
#######################################################################
#
# If this CIF has been generated from an entry in the Cambridge 
# Structural Database, then it will include bibliographic, chemical, 
# crystal, experimental, refinement or atomic coordinate data resulting 
# from the CCDC's data processing and validation procedures.
#
#######################################################################

data_PUZMAZ
_symmetry_cell_setting           cubic
_symmetry_space_group_name_H-M   'F d -3 c'
_symmetry_Int_Tables_number      228
_space_group_name_Hall           '-F 4ud 2vw 3'
loop_
_symmetry_equiv_pos_site_id
_symmetry_equiv_pos_as_xyz
1 x,y,z
2 1/4+y,1/4+x,1/2-z
3 1/4+x,-z,3/4+y
4 -z,1/4+y,3/4+x
5 3/4+z,1/4+y,-x
6 1/4-z,x,1/4-y
7 1/4+x,3/4+z,-y
8 y,1/4-z,1/4-x
9 1/4+y,-x,3/4+z
10 x,1/4-y,1/4-z
11 1/4-x,1/4-y,z
12 1/2-y,-x,-z
13 -z,-y,1/2-x
14 z,1/4-x,1/4-y
15 x,1/2+y,1/2+z
16 1/4+y,3/4+x,-z
17 1/4+x,1/2-z,1/4+y
18 -z,3/4+y,1/4+x
19 3/4+z,3/4+y,1/2-x
20 1/4-z,1/2+x,3/4-y
21 1/4+x,1/4+z,1/2-y
22 y,3/4-z,3/4-x
23 1/4+y,1/2-x,1/4+z
24 x,3/4-y,3/4-z
25 1/4-x,3/4-y,1/2+z
26 1/2-y,1/2-x,1/2-z
27 -z,1/2-y,-x
28 z,3/4-x,3/4-y
29 1/2+x,y,1/2+z
30 3/4+y,1/4+x,-z
31 3/4+x,-z,1/4+y
32 1/2-z,1/4+y,1/4+x
33 1/4+z,1/4+y,1/2-x
34 3/4-z,x,3/4-y
35 3/4+x,3/4+z,1/2-y
36 1/2+y,1/4-z,3/4-x
37 3/4+y,-x,1/4+z
38 1/2+x,1/4-y,3/4-z
39 3/4-x,1/4-y,1/2+z
40 -y,-x,1/2-z
41 1/2-z,-y,-x
42 1/2+z,1/4-x,3/4-y
43 1/2+x,1/2+y,z
44 3/4+y,3/4+x,1/2-z
45 3/4+x,1/2-z,3/4+y
46 1/2-z,3/4+y,3/4+x
47 1/4+z,3/4+y,-x
48 3/4-z,1/2+x,1/4-y
49 3/4+x,1/4+z,-y
50 1/2+y,3/4-z,1/4-x
51 3/4+y,1/2-x,3/4+z
52 1/2+x,3/4-y,1/4-z
53 3/4-x,3/4-y,z
54 -y,1/2-x,-z
55 1/2-z,1/2-y,1/2-x
56 1/2+z,3/4-x,1/4-y
57 -x,1/2-z,-y
58 3/4-y,z,3/4-x
59 3/4-z,3/4-x,y
60 3/4-y,3/4-z,x
61 1/2-x,3/4+z,3/4+y
62 3/4+z,1/2-y,3/4+x
63 3/4-x,y,3/4-z
64 1/2-y,3/4+x,3/4+z
65 y,z,x
66 z,x,y
67 -x,-z,1/2-y
68 3/4-y,1/2+z,1/4-x
69 3/4-z,1/4-x,1/2+y
70 3/4-y,1/4-z,1/2+x
71 1/2-x,1/4+z,1/4+y
72 3/4+z,-y,1/4+x
73 3/4-x,1/2+y,1/4-z
74 1/2-y,1/4+x,1/4+z
75 y,1/2+z,1/2+x
76 z,1/2+x,1/2+y
77 1/2-x,1/2-z,1/2-y
78 1/4-y,z,1/4-x
79 1/4-z,3/4-x,1/2+y
80 1/4-y,3/4-z,1/2+x
81 -x,3/4+z,1/4+y
82 1/4+z,1/2-y,1/4+x
83 1/4-x,y,1/4-z
84 -y,3/4+x,1/4+z
85 1/2+y,z,1/2+x
86 1/2+z,x,1/2+y
87 1/2-x,-z,-y
88 1/4-y,1/2+z,3/4-x
89 1/4-z,1/4-x,y
90 1/4-y,1/4-z,x
91 -x,1/4+z,3/4+y
92 1/4+z,-y,3/4+x
93 1/4-x,1/2+y,3/4-z
94 -y,1/4+x,3/4+z
95 1/2+y,1/2+z,x
96 1/2+z,1/2+x,y
97 -x,-y,-z
98 3/4-y,3/4-x,1/2+z
99 3/4-x,z,1/4-y
100 z,3/4-y,1/4-x
101 1/4-z,3/4-y,x
102 3/4+z,-x,3/4+y
103 3/4-x,1/4-z,y
104 -y,3/4+z,3/4+x
105 3/4-y,x,1/4-z
106 -x,3/4+y,3/4+z
107 3/4+x,3/4+y,-z
108 1/2+y,x,z
109 z,y,1/2+x
110 -z,3/4+x,3/4+y
111 -x,1/2-y,1/2-z
112 3/4-y,1/4-x,z
113 3/4-x,1/2+z,3/4-y
114 z,1/4-y,3/4-x
115 1/4-z,1/4-y,1/2+x
116 3/4+z,1/2-x,1/4+y
117 3/4-x,3/4-z,1/2+y
118 -y,1/4+z,1/4+x
119 3/4-y,1/2+x,3/4-z
120 -x,1/4+y,1/4+z
121 3/4+x,1/4+y,1/2-z
122 1/2+y,1/2+x,1/2+z
123 z,1/2+y,x
124 -z,1/4+x,1/4+y
125 1/2-x,-y,1/2-z
126 1/4-y,3/4-x,z
127 1/4-x,z,3/4-y
128 1/2+z,3/4-y,3/4-x
129 3/4-z,3/4-y,1/2+x
130 1/4+z,-x,1/4+y
131 1/4-x,1/4-z,1/2+y
132 1/2-y,3/4+z,1/4+x
133 1/4-y,x,3/4-z
134 1/2-x,3/4+y,1/4+z
135 1/4+x,3/4+y,1/2-z
136 y,x,1/2+z
137 1/2+z,y,x
138 1/2-z,3/4+x,1/4+y
139 1/2-x,1/2-y,-z
140 1/4-y,1/4-x,1/2+z
141 1/4-x,1/2+z,1/4-y
142 1/2+z,1/4-y,1/4-x
143 3/4-z,1/4-y,x
144 1/4+z,1/2-x,3/4+y
145 1/4-x,3/4-z,y
146 1/2-y,1/4+z,3/4+x
147 1/4-y,1/2+x,1/4-z
148 1/2-x,1/4+y,3/4+z
149 1/4+x,1/4+y,-z
150 y,1/2+x,z
151 1/2+z,1/2+y,1/2+x
152 1/2-z,1/4+x,3/4+y
153 x,1/2+z,y
154 1/4+y,-z,1/4+x
155 1/4+z,1/4+x,-y
156 1/4+y,1/4+z,-x
157 1/2+x,1/4-z,1/4-y
158 1/4-z,1/2+y,1/4-x
159 1/4+x,-y,1/4+z
160 1/2+y,1/4-x,1/4-z
161 -y,-z,-x
162 -z,-x,-y
163 x,z,1/2+y
164 1/4+y,1/2-z,3/4+x
165 1/4+z,3/4+x,1/2-y
166 1/4+y,3/4+z,1/2-x
167 1/2+x,3/4-z,3/4-y
168 1/4-z,y,3/4-x
169 1/4+x,1/2-y,3/4+z
170 1/2+y,3/4-x,3/4-z
171 -y,1/2-z,1/2-x
172 -z,1/2-x,1/2-y
173 1/2+x,1/2+z,1/2+y
174 3/4+y,-z,3/4+x
175 3/4+z,1/4+x,1/2-y
176 3/4+y,1/4+z,1/2-x
177 x,1/4-z,3/4-y
178 3/4-z,1/2+y,3/4-x
179 3/4+x,-y,3/4+z
180 y,1/4-x,3/4-z
181 1/2-y,-z,1/2-x
182 1/2-z,-x,1/2-y
183 1/2+x,z,y
184 3/4+y,1/2-z,1/4+x
185 3/4+z,3/4+x,-y
186 3/4+y,3/4+z,-x
187 x,3/4-z,1/4-y
188 3/4-z,y,1/4-x
189 3/4+x,1/2-y,1/4+z
190 y,3/4-x,1/4-z
191 1/2-y,1/2-z,-x
192 1/2-z,1/2-x,-y
_cell_length_a                   74.972(2)
_cell_length_b                   74.972(2)
_cell_length_c                   74.972(2)
_cell_angle_alpha                90
_cell_angle_beta                 90
_cell_angle_gamma                90
_cell_volume                     421403
loop_
_atom_site_label
_atom_site_type_symbol
_atom_site_fract_x
_atom_site_fract_y
_atom_site_fract_z
N1 N 0.07010(7) 0.17949(6) 0.59256(6)
C1 C 0.08466(8) 0.18644(8) 0.58483(8)
N2 N 0.11044(5) 0.22936(6) 0.61141(6)
C2 C 0.09372(8) 0.22506(8) 0.61502(8)
H1 H 0.0875 0.2319 0.6237
C3 C 0.08472(9) 0.21120(8) 0.60695(9)
H2 H 0.0729 0.2083 0.6104
C4 C 0.09304(8) 0.20176(8) 0.59395(7)
C5 C 0.11064(10) 0.20598(10) 0.58988(10)
H3 H 0.1169 0.1995 0.5810
C6 C 0.11880(11) 0.21978(10) 0.59903(10)
H4 H 0.1309 0.2225 0.5964
Co1 Co 0.125000(10) 0.2504 0.6250
N3 N 0.10615(5) 0.25073(4) 0.64556(5)
C7 C 0.10015(8) 0.24933(7) 0.65956(9)
S1 S 0.09255(4) 0.24680(4) 0.68001(3)
N4 N 0.10979(5) 0.27097(5) 0.61148(5)
C8 C 0.09251(6) 0.27347(6) 0.61498(6)
H5 H 0.0868 0.2656 0.6231
C9 C 0.08250(6) 0.28688(6) 0.60738(6)
H6 H 0.0703 0.2883 0.6104
C10 C 0.09056(6) 0.29816(6) 0.59539(6)
C11 C 0.10858(7) 0.29543(7) 0.59108(7)
H7 H 0.1144 0.3026 0.5824
C12 C 0.11750(6) 0.28218(7) 0.59970(7)
H8 H 0.1299 0.2807 0.5973
C13 C 0.07859(6) 0.33354(6) 0.56527(6)
N5 N 0.08684(6) 0.31910(5) 0.57146(5)
C14 C 0.08110(6) 0.31340(6) 0.58736(6)
N6 N 0.06784(5) 0.32083(5) 0.59688(5)
C15 C 0.06035(6) 0.33505(6) 0.58904(7)
N7 N 0.06502(6) 0.34189(6) 0.57339(5)
N8 N 0.10247(5) 0.35679(5) 0.51958(5)
C16 C 0.10593(8) 0.33985(7) 0.52426(7)
H9 H 0.1144 0.3333 0.5175
C17 C 0.09772(7) 0.33161(7) 0.53851(7)
H10 H 0.1005 0.3196 0.5415
C18 C 0.08541(7) 0.34111(6) 0.54844(6)
C19 C 0.08102(6) 0.35818(7) 0.54301(7)
H11 H 0.0721 0.3648 0.5491
C20 C 0.08976(6) 0.36541(6) 0.52860(6)
H12 H 0.0866 0.3771 0.5249
N9 N 0.01951(5) 0.36329(5) 0.61693(5)
C21 C 0.02202(7) 0.36509(7) 0.59932(7)
H13 H 0.0143 0.3729 0.5930
C22 C 0.03498(7) 0.35638(7) 0.58993(7)
H14 H 0.0364 0.3584 0.5775
C23 C 0.04605(6) 0.34457(6) 0.59888(6)
C24 C 0.04304(7) 0.34172(7) 0.61709(7)
H15 H 0.0499 0.3332 0.6235
C25 C 0.02995(6) 0.35149(7) 0.62549(6)
H16 H 0.0282 0.3498 0.6379
Co2 Co 0.1196 0.369641(9) 0.500000(9)
N10 N 0.13938(5) 0.35058(5) 0.50348(5)
C26 C 0.14802(7) 0.34307(7) 0.51417(8)
S2 S 0.15991(3) 0.33312(3) 0.52926(3)
N1OA N 0.09256(6) 0.17990(7) 0.57051(6)
N1AC N 0.07051(6) 0.15744(6) 0.57010(7)
N1DC N 0.17990(7) 0.17949(6) 0.65744(6)
N1PB N 0.15744(6) 0.17990(7) 0.67949(6)
N1U N 0.17949(6) 0.15744(6) 0.67990(7)
C1OA C 0.08483(8) 0.16534(8) 0.56356(8)
C1AC C 0.06356(8) 0.16517(8) 0.58466(8)
C1DC C 0.16534(8) 0.18644(8) 0.66517(8)
C1PB C 0.16517(8) 0.16534(8) 0.68644(8)
C1U C 0.18644(8) 0.16517(8) 0.66534(8)
N2AC N 0.02064(6) 0.13859(6) 0.61044(5)
N2OA N 0.11141(6) 0.13956(5) 0.52064(6)
N2DC N 0.13956(5) 0.22936(6) 0.63859(6)
N2U N 0.22936(6) 0.13859(6) 0.63956(5)
N2PB N 0.13859(6) 0.13956(5) 0.72936(6)
C2AC C 0.02494(8) 0.13498(8) 0.59372(8)
C2OA C 0.11502(8) 0.15628(8) 0.52494(8)
C2DC C 0.15628(8) 0.22506(8) 0.63498(8)
C2U C 0.22506(8) 0.13498(8) 0.65628(8)
C2PB C 0.13498(8) 0.15628(8) 0.72506(8)
H1AC H 0.0181 0.1263 0.5875
H1OA H 0.1237 0.1625 0.5181
H1DC H 0.1625 0.2319 0.6263
H1U H 0.2319 0.1263 0.6625
H1PB H 0.1263 0.1625 0.7319
C3AC C 0.03880(8) 0.14305(9) 0.58472(9)
C3OA C 0.10695(9) 0.16528(9) 0.53880(8)
C3DC C 0.16528(9) 0.21120(8) 0.64305(9)
C3U C 0.21120(8) 0.14305(9) 0.66528(9)
C3PB C 0.14305(9) 0.16528(9) 0.71120(8)
H2AC H 0.0417 0.1396 0.5729
H2OA H 0.1104 0.1771 0.5417
H2DC H 0.1771 0.2083 0.6396
H2U H 0.2083 0.1396 0.6771
H2PB H 0.1396 0.1771 0.7083
C4AC C 0.04824(8) 0.15605(7) 0.59304(8)
C4OA C 0.09395(7) 0.15696(8) 0.54824(8)
C4DC C 0.15696(8) 0.20176(8) 0.65605(7)
C4U C 0.20176(8) 0.15605(7) 0.65696(8)
C4PB C 0.15605(7) 0.15696(8) 0.70176(8)
C5AC C 0.04402(10) 0.16012(10) 0.61064(10)
C5OA C 0.08988(10) 0.13936(10) 0.54402(10)
C5DC C 0.13936(10) 0.20598(10) 0.66012(10)
C5U C 0.20598(10) 0.16012(10) 0.63936(10)
C5PB C 0.16012(10) 0.13936(10) 0.70598(10)
H3AC H 0.0505 0.1690 0.6169
H3OA H 0.0810 0.1331 0.5505
H3DC H 0.1331 0.1995 0.6690
H3U H 0.1995 0.1690 0.6331
H3PB H 0.1690 0.1331 0.6995
C6AC C 0.03022(10) 0.15097(10) 0.61880(11)
C6OA C 0.09903(10) 0.13120(11) 0.53022(10)
C6DC C 0.13120(11) 0.21978(10) 0.65097(10)
C6U C 0.21978(10) 0.15097(10) 0.63120(11)
C6PB C 0.15097(10) 0.13120(11) 0.71978(10)
H4AC H 0.0275 0.1536 0.6309
H4OA H 0.0964 0.1191 0.5275
H4DC H 0.1191 0.2225 0.6536
H4U H 0.2225 0.1536 0.6191
H4PB H 0.1536 0.1191 0.7225
Co1AC Co -0.0004 0.1250 0.625000(10)
Co1GA Co 0.1250 0.125000(10) 0.4996
Co1U Co 0.2504 0.1250 0.625000(10)
Co1PB Co 0.1250 0.125000(10) 0.7504
N3DC N 0.14385(5) 0.25073(4) 0.60444(5)
C7DC C 0.14985(8) 0.24933(7) 0.59044(9)
S1DC S 0.15745(4) 0.24680(4) 0.56999(3)
N4DC N 0.14021(5) 0.27097(5) 0.63852(5)
C8DC C 0.15749(6) 0.27347(6) 0.63502(6)
H5DC H 0.1632 0.2656 0.6269
C9DC C 0.16750(6) 0.28688(6) 0.64262(6)
H6DC H 0.1797 0.2883 0.6396
C10DC C 0.15944(6) 0.29816(6) 0.65461(6)
C11DC C 0.14142(7) 0.29543(7) 0.65892(7)
H7DC H 0.1356 0.3026 0.6676
C12DC C 0.13250(6) 0.28218(7) 0.65030(7)
H8DC H 0.1201 0.2807 0.6527
C13DC C 0.17141(6) 0.33354(6) 0.68473(6)
N5DC N 0.16316(6) 0.31910(5) 0.67854(5)
C14DC C 0.16890(6) 0.31340(6) 0.66264(6)
N6DC N 0.18216(5) 0.32083(5) 0.65312(5)
C15DC C 0.18965(6) 0.33505(6) 0.66096(7)
N7DC N 0.18498(6) 0.34189(6) 0.67661(5)
N8DC N 0.14753(5) 0.35679(5) 0.73042(5)
N8CA N 0.10679(5) 0.35247(5) 0.48042(5)
N8WD N 0.01958(5) 0.39321(5) 0.64753(5)
N8IG N -0.01958(5) 0.39753(5) 0.64321(5)
C16DC C 0.14407(8) 0.33985(7) 0.72574(7)
H9DC H 0.1356 0.3333 0.7325
C17DC C 0.15228(7) 0.33161(7) 0.71149(7)
H10DC H 0.1495 0.3196 0.7085
C18DC C 0.16459(7) 0.34111(6) 0.70156(6)
C19DC C 0.16898(6) 0.35818(7) 0.70699(7)
H11DC H 0.1779 0.3648 0.7009
C20DC C 0.16024(6) 0.36541(6) 0.72140(6)
H12DC H 0.1634 0.3771 0.7251
N9DC N 0.23049(5) 0.36329(5) 0.63307(5)
N9XD N 0.13307(5) 0.38671(5) 0.51951(5)
N9XF N 0.13671(5) 0.38307(5) 0.48049(5)
N9BC N -0.01951(5) 0.36693(5) 0.61329(5)
C21DC C 0.22798(7) 0.36509(7) 0.65068(7)
H13DC H 0.2357 0.3729 0.6570
C22DC C 0.21502(7) 0.35638(7) 0.66007(7)
H14DC H 0.2136 0.3584 0.6725
C23DC C 0.20395(6) 0.34457(6) 0.65112(6)
C24DC C 0.20696(7) 0.34172(7) 0.63291(7)
H15DC H 0.2001 0.3332 0.6265
C25DC C 0.22005(6) 0.35149(7) 0.62451(6)
H16DC H 0.2218 0.3498 0.6121
Co2DC Co 0.1304 0.369641(9) 0.750000(9)
Co2WD Co 0.000000(9) 0.380359(9) 0.6304
Co2XD Co 0.250000(9) 0.380359(9) 0.6196
N10CA N 0.10058(5) 0.38938(5) 0.49652(5)
N10WD N 0.00348(5) 0.39942(5) 0.61062(5)
N10IG N -0.00348(5) 0.36062(5) 0.64942(5)
C26CA C 0.09307(7) 0.39802(7) 0.48583(8)
C26WD C 0.01417(8) 0.40693(7) 0.60198(7)
C26IG C -0.01417(8) 0.35198(7) 0.65693(7)
S2CA S 0.08312(3) 0.40991(3) 0.47074(3)
S2WD S 0.02926(3) 0.41688(3) 0.59009(3)
S2IG S -0.02926(3) 0.34009(3) 0.66688(3)
N11 N 0.33694(9) 0.13630(8) 0.07157(7)
H17 H 0.3369 0.1378 0.0599
C27 C 0.32489(9) 0.14660(8) 0.08110(8)
C28 C 0.32774(9) 0.15210(9) 0.09841(8)
H18 H 0.3380 0.1482 0.1047
C29 C 0.31565(10) 0.16331(10) 0.10670(10)
H19 H 0.3177 0.1669 0.1187
C30 C 0.30058(11) 0.16943(12) 0.09778(11)
H20 H 0.2925 0.1773 0.1036
C31 C 0.29753(10) 0.16406(11) 0.08061(11)
H21 H 0.2872 0.1682 0.0745
C32 C 0.30940(9) 0.15262(9) 0.07198(9)
H22 H 0.3072 0.1489 0.0601
C33 C 0.34910(9) 0.12392(9) 0.07822(8)
C34 C 0.34627(9) 0.11518(10) 0.09439(9)
H23 H 0.3362 0.1179 0.1016
C35 C 0.35869(10) 0.10216(10) 0.09981(9)
H24 H 0.3568 0.0958 0.1106
C36 C 0.37348(9) 0.09851(9) 0.08973(10)
H25 H 0.3819 0.0899 0.0937
C37 C 0.37617(10) 0.10730(9) 0.07401(9)
H26 H 0.3863 0.1046 0.0669
C38 C 0.36409(10) 0.12015(10) 0.06833(9)
H27 H 0.3662 0.1264 0.0575
N12 N 0.13192(16) 0.04894(13) 0.02369(16)
H28 H 0.1233 0.0554 0.0191
C39 C 0.1259(2) 0.03396(16) 0.03379(15)
C40 C 0.1088(3) 0.0348(2) 0.04303(18)
H29 H 0.1016 0.0452 0.0422
C41 C 0.1034(2) 0.0210(3) 0.05264(19)
H30 H 0.0924 0.0215 0.0589
C42 C 0.1137(4) 0.0058(3) 0.0536(2)
H31 H 0.1094 -0.0041 0.0604
C43 C 0.1314(3) 0.0043(2) 0.0443(3)
H32 H 0.1384 -0.0063 0.0444
C44 C 0.1366(2) 0.01907(17) 0.0359(2)
H33 H 0.1482 0.0194 0.0310
C45 C 0.14818(18) 0.05495(15) 0.01987(16)
C46 C 0.1505(2) 0.06537(17) 0.00463(17)
H34 H 0.1405 0.0678 -0.0028
C47 C 0.1669(3) 0.07211(18) 0.0003(2)
H35 H 0.1681 0.0794 -0.0100
C48 C 0.1817(2) 0.06859(17) 0.01032(19)
H36 H 0.1928 0.0739 0.0072
C49 C 0.1807(2) 0.05765(15) 0.02462(18)
H37 H 0.1911 0.0545 0.0311
C50 C 0.16304(18) 0.05078(14) 0.02993(16)
H38 H 0.1619 0.0435 0.0402
N13 N 0.0238(3) 0.0691(3) 0.3134(3)
H39 H 0.0202 0.0680 0.3246
C51 C 0.03671(16) 0.05710(18) 0.3091(2)
C52 C 0.04729(19) 0.05976(16) 0.29407(18)
H40 H 0.0459 0.0702 0.2871
C53 C 0.05996(17) 0.0471(2) 0.28929(16)
H41 H 0.0672 0.0489 0.2790
C54 C 0.06205(16) 0.03177(19) 0.2995(2)
H42 H 0.0707 0.0231 0.2962
C55 C 0.0515(2) 0.02910(17) 0.31450(19)
H43 H 0.0529 0.0186 0.3215
C56 C 0.03880(17) 0.0418(2) 0.31928(16)
H44 H 0.0316 0.0400 0.3295
C57 C 0.01447(18) 0.08319(18) 0.3038(2)
C58 C 0.01225(18) 0.08134(18) 0.2855(2)
H45 H 0.0166 0.0710 0.2796
C59 C 0.0036(2) 0.0946(2) 0.27581(16)
H46 H 0.0021 0.0933 0.2633
C60 C -0.00284(18) 0.1097(2) 0.2844(2)
H47 H -0.0088 0.1187 0.2778
C61 C -0.00062(19) 0.11152(18) 0.3028(2)
H48 H -0.0050 0.1218 0.3087
C62 C 0.0080(2) 0.0983(2) 0.31244(16)
H49 H 0.0095 0.0995 0.3250
N14 N 0.3196(4) 0.0134(5) 0.1680(4)
H50 H 0.3239 0.0025 0.1675
C63 C 0.33125(17) 0.02437(13) 0.17603(15)
C64 C 0.32984(16) 0.04196(16) 0.17032(14)
H51 H 0.3224 0.0448 0.1605
C65 C 0.33935(16) 0.05531(11) 0.17898(16)
H52 H 0.3384 0.0673 0.1751
C66 C 0.35027(14) 0.05108(12) 0.19335(16)
H53 H 0.3568 0.0602 0.1993
C67 C 0.35169(14) 0.03350(14) 0.19906(14)
H54 H 0.3592 0.0306 0.2089
C68 C 0.34218(16) 0.02014(10) 0.19040(14)
H55 H 0.3432 0.0081 0.1943
C69 C 0.3024(4) 0.0139(4) 0.1602(5)
C70 C 0.2944(6) -0.0023(5) 0.1560(6)
H56 H 0.3015 -0.0125 0.1538
C71 C 0.2759(6) -0.0035(7) 0.1552(7)
H57 H 0.2704 -0.0145 0.1524
C72 C 0.2655(5) 0.0115(9) 0.1584(7)
H58 H 0.2529 0.0107 0.1578
C73 C 0.2735(6) 0.0277(8) 0.1625(6)
H59 H 0.2664 0.0379 0.1648
C74 C 0.2920(6) 0.0289(5) 0.1634(6)
H60 H 0.2975 0.0400 0.1662
C75? C -0.0116(3) 0.0102(2) 0.28393(18)
C76? C -0.02324(18) -0.0016(2) 0.2922(2)
H61? H -0.0352 -0.0026 0.2881
C77? C -0.0174(2) -0.01182(16) 0.3065(2)
H62? H -0.0253 -0.0199 0.3122
C78? C 0.0001(2) -0.0103(2) 0.31253(19)
H63? H 0.0041 -0.0173 0.3223
C79? C 0.01171(17) 0.0016(3) 0.3042(3)
H64? H 0.0237 0.0026 0.3083
C80? C 0.0059(2) 0.0118(2) 0.2899(3)
N15? N 0.0146(4) 0.0231(4) 0.2748(4)
H65? H 0.0262 0.0222 0.2761
C81? C -0.0054(3) 0.3851(3) 0.0448(3)
C82? C -0.0226(3) 0.3893(3) 0.0376(3)
C83? C -0.0318(4) 0.3751(4) 0.0283(4)
C84? C -0.0245(4) 0.3606(5) 0.0251(4)
C85? C -0.0075(4) 0.3552(4) 0.0333(3)
C86? C 0.0007(3) 0.3690(3) 0.0433(3)
C87? C 0.0216(2) 0.4000(3) 0.0565(2)
C88? C 0.0261(3) 0.4128(3) 0.0706(3)
C89? C 0.0451(2) 0.4141(3) 0.0756(3)
C90? C 0.0570(2) 0.4052(2) 0.0640(2)
C91? C 0.0514(3) 0.3955(3) 0.0489(3)
C92? C 0.0339(2) 0.3930(4) 0.0471(4)
H66? H 0.0114 0.3662 0.0493
H67? H -0.0277 0.4008 0.0389
H68? H -0.0438 0.3769 0.0245
H69? H -0.0301 0.3526 0.0169
H70? H -0.0025 0.3436 0.0321
H71? H 0.0302 0.3852 0.0379
H72? H 0.0173 0.4199 0.0763
H73? H 0.0490 0.4204 0.0858
H74? H 0.0694 0.4058 0.0666
H75? H 0.0596 0.3910 0.0404
H76? H -0.0036 0.4083 0.0567
N16? N 0.00300(17) 0.3992(2) 0.0532(2)
loop_
_geom_bond_atom_site_label_1
_geom_bond_atom_site_label_2
_geom_bond_site_symmetry_1
_geom_bond_site_symmetry_2
N1 C1 1_555 1_555
C1 C4 1_555 1_555
N2 C2 1_555 1_555
C2 H1 1_555 1_555
C3 C2 1_555 1_555
H2 C3 1_555 1_555
C4 C3 1_555 1_555
C5 C4 1_555 1_555
H3 C5 1_555 1_555
C6 N2 1_555 1_555
H4 C6 1_555 1_555
Co1 N2 1_555 1_555
N3 Co1 1_555 1_555
C7 N3 1_555 1_555
S1 C7 1_555 1_555
N4 Co1 1_555 1_555
C8 N4 1_555 1_555
H5 C8 1_555 1_555
C9 C8 1_555 1_555
H6 C9 1_555 1_555
C10 C9 1_555 1_555
C11 C10 1_555 1_555
H7 C11 1_555 1_555
C12 N4 1_555 1_555
H8 C12 1_555 1_555
C13 N5 1_555 1_555
N5 C14 1_555 1_555
C14 C10 1_555 1_555
N6 C14 1_555 1_555
C15 N6 1_555 1_555
N7 C13 1_555 1_555
N8 C16 1_555 1_555
C16 H9 1_555 1_555
C17 C16 1_555 1_555
H10 C17 1_555 1_555
C18 C13 1_555 1_555
C19 C18 1_555 1_555
H11 C19 1_555 1_555
C20 N8 1_555 1_555
H12 C20 1_555 1_555
N9 C21 1_555 1_555
C21 H13 1_555 1_555
C22 C21 1_555 1_555
H14 C22 1_555 1_555
C23 C15 1_555 1_555
C24 C23 1_555 1_555
H15 C24 1_555 1_555
C25 N9 1_555 1_555
H16 C25 1_555 1_555
Co2 N8 1_555 1_555
N10 Co2 1_555 1_555
C26 N10 1_555 1_555
S2 C26 1_555 1_555
N11 H17 1_555 1_555
C27 N11 1_555 1_555
C28 C27 1_555 1_555
H18 C28 1_555 1_555
C29 C28 1_555 1_555
H19 C29 1_555 1_555
C30 C29 1_555 1_555
H20 C30 1_555 1_555
C31 C30 1_555 1_555
H21 C31 1_555 1_555
C32 C27 1_555 1_555
H22 C32 1_555 1_555
C33 N11 1_555 1_555
C34 C33 1_555 1_555
H23 C34 1_555 1_555
C35 C34 1_555 1_555
H24 C35 1_555 1_555
C36 C35 1_555 1_555
H25 C36 1_555 1_555
C37 C36 1_555 1_555
H26 C37 1_555 1_555
C38 C33 1_555 1_555
H27 C38 1_555 1_555
N12 H28 1_555 1_555
C39 N12 1_555 1_555
C40 C39 1_555 1_555
H29 C40 1_555 1_555
C41 C40 1_555 1_555
H30 C41 1_555 1_555
C42 C41 1_555 1_555
H31 C42 1_555 1_555
C43 C42 1_555 1_555
H32 C43 1_555 1_555
C44 C39 1_555 1_555
H33 C44 1_555 1_555
C45 N12 1_555 1_555
C46 C45 1_555 1_555
H34 C46 1_555 1_555
C47 C46 1_555 1_555
H35 C47 1_555 1_555
C48 C47 1_555 1_555
H36 C48 1_555 1_555
C49 C48 1_555 1_555
H37 C49 1_555 1_555
C50 C45 1_555 1_555
H38 C50 1_555 1_555
N13 H39 1_555 1_555
C51 N13 1_555 1_555
C52 C51 1_555 1_555
H40 C52 1_555 1_555
C53 C52 1_555 1_555
H41 C53 1_555 1_555
C54 C53 1_555 1_555
H42 C54 1_555 1_555
C55 C54 1_555 1_555
H43 C55 1_555 1_555
C56 C51 1_555 1_555
H44 C56 1_555 1_555
C57 N13 1_555 1_555
C58 C57 1_555 1_555
H45 C58 1_555 1_555
C59 C58 1_555 1_555
H46 C59 1_555 1_555
C60 C59 1_555 1_555
H47 C60 1_555 1_555
C61 C60 1_555 1_555
H48 C61 1_555 1_555
C62 C57 1_555 1_555
H49 C62 1_555 1_555
N14 H50 1_555 1_555
C63 N14 1_555 1_555
C64 C63 1_555 1_555
H51 C64 1_555 1_555
C65 C64 1_555 1_555
H52 C65 1_555 1_555
C66 C65 1_555 1_555
H53 C66 1_555 1_555
C67 C66 1_555 1_555
H54 C67 1_555 1_555
C68 C63 1_555 1_555
H55 C68 1_555 1_555
C69 N14 1_555 1_555
C70 C69 1_555 1_555
H56 C70 1_555 1_555
C71 C70 1_555 1_555
H57 C71 1_555 1_555
C72 C71 1_555 1_555
H58 C72 1_555 1_555
C73 C72 1_555 1_555
H59 C73 1_555 1_555
C74 C69 1_555 1_555
H60 C74 1_555 1_555
N1OA C1 1_555 1_555
N1AC C1OA 1_555 1_555
N1DC C1DC 1_555 1_555
N1PB C1DC 1_555 1_555
N1U C1PB 1_555 1_555
C1OA N1OA 1_555 1_555
C1AC N1 1_555 1_555
C1DC C4DC 1_555 1_555
C1PB N1PB 1_555 1_555
C1U N1DC 1_555 1_555
N2AC C2AC 1_555 1_555
N2OA C2OA 1_555 1_555
N2DC Co1 1_555 1_555
N2U C2U 1_555 1_555
N2PB C2PB 1_555 1_555
C2AC H1AC 1_555 1_555
C2OA H1OA 1_555 1_555
C2DC N2DC 1_555 1_555
C2U H1U 1_555 1_555
C2PB H1PB 1_555 1_555
H1DC C2DC 1_555 1_555
C3AC C2AC 1_555 1_555
C3OA C2OA 1_555 1_555
C3DC C2DC 1_555 1_555
C3U C2U 1_555 1_555
C3PB C2PB 1_555 1_555
H2AC C3AC 1_555 1_555
H2OA C3OA 1_555 1_555
H2DC C3DC 1_555 1_555
H2U C3U 1_555 1_555
H2PB C3PB 1_555 1_555
C4AC C1AC 1_555 1_555
C4OA C1OA 1_555 1_555
C4DC C3DC 1_555 1_555
C4U C1U 1_555 1_555
C4PB C1PB 1_555 1_555
C5AC C4AC 1_555 1_555
C5OA C4OA 1_555 1_555
C5DC C4DC 1_555 1_555
C5U C4U 1_555 1_555
C5PB C4PB 1_555 1_555
H3AC C5AC 1_555 1_555
H3OA C5OA 1_555 1_555
H3DC C5DC 1_555 1_555
H3U C5U 1_555 1_555
H3PB C5PB 1_555 1_555
C6AC N2AC 1_555 1_555
C6OA N2OA 1_555 1_555
C6DC N2DC 1_555 1_555
C6U N2U 1_555 1_555
C6PB N2PB 1_555 1_555
H4AC C6AC 1_555 1_555
H4OA C6OA 1_555 1_555
H4DC C6DC 1_555 1_555
H4U C6U 1_555 1_555
H4PB C6PB 1_555 1_555
Co1AC N2AC 1_555 1_555
Co1GA N2OA 1_555 1_555
Co1U N2U 1_555 1_555
Co1PB N2PB 1_555 1_555
N3DC Co1 1_555 1_555
C7DC N3DC 1_555 1_555
S1DC C7DC 1_555 1_555
N4DC Co1 1_555 1_555
C8DC N4DC 1_555 1_555
H5DC C8DC 1_555 1_555
C9DC C8DC 1_555 1_555
H6DC C9DC 1_555 1_555
C10DC C9DC 1_555 1_555
C11DC C10DC 1_555 1_555
H7DC C11DC 1_555 1_555
C12DC N4DC 1_555 1_555
H8DC C12DC 1_555 1_555
C13DC N5DC 1_555 1_555
N5DC C14DC 1_555 1_555
C14DC C10DC 1_555 1_555
N6DC C14DC 1_555 1_555
C15DC N6DC 1_555 1_555
N7DC C13DC 1_555 1_555
N8DC C16DC 1_555 1_555
N8CA Co2 1_555 1_555
N8WD Co2WD 1_555 1_555
N8IG Co2WD 1_555 1_555
C16DC H9DC 1_555 1_555
C17DC C16DC 1_555 1_555
H10DC C17DC 1_555 1_555
C18DC C13DC 1_555 1_555
C19DC C18DC 1_555 1_555
H11DC C19DC 1_555 1_555
C20DC N8DC 1_555 1_555
H12DC C20DC 1_555 1_555
N9DC C21DC 1_555 1_555
N9XD Co2 1_555 1_555
N9XF Co2 1_555 1_555
N9BC Co2WD 1_555 1_555
C21DC H13DC 1_555 1_555
C22DC C21DC 1_555 1_555
H14DC C22DC 1_555 1_555
C23DC C15DC 1_555 1_555
C24DC C23DC 1_555 1_555
H15DC C24DC 1_555 1_555
C25DC N9DC 1_555 1_555
H16DC C25DC 1_555 1_555
Co2DC N8DC 1_555 1_555
Co2WD N9 1_555 1_555
Co2XD N9DC 1_555 1_555
N10CA Co2 1_555 1_555
N10WD Co2WD 1_555 1_555
N10IG Co2WD 1_555 1_555
C26CA N10CA 1_555 1_555
C26WD N10WD 1_555 1_555
C26IG N10IG 1_555 1_555
S2CA C26CA 1_555 1_555
S2WD C26WD 1_555 1_555
S2IG C26IG 1_555 1_555
C5 C6 1_555 1_555
C11 C12 1_555 1_555
C15 N7 1_555 1_555
C17 C18 1_555 1_555
C19 C20 1_555 1_555
C22 C23 1_555 1_555
C24 C25 1_555 1_555
C31 C32 1_555 1_555
C37 C38 1_555 1_555
C43 C44 1_555 1_555
C49 C50 1_555 1_555
C55 C56 1_555 1_555
C61 C62 1_555 1_555
C67 C68 1_555 1_555
C73 C74 1_555 1_555
N1AC C1AC 1_555 1_555
N1U C1U 1_555 1_555
C3AC C4AC 1_555 1_555
C3OA C4OA 1_555 1_555
C3U C4U 1_555 1_555
C3PB C4PB 1_555 1_555
C5AC C6AC 1_555 1_555
C5OA C6OA 1_555 1_555
C5DC C6DC 1_555 1_555
C5U C6U 1_555 1_555
C5PB C6PB 1_555 1_555
C11DC C12DC 1_555 1_555
C15DC N7DC 1_555 1_555
C17DC C18DC 1_555 1_555
C19DC C20DC 1_555 1_555
C22DC C23DC 1_555 1_555
C24DC C25DC 1_555 1_555

#END
