
#######################################################################
#
#                 Cambridge Crystallographic Data Centre
#                                CCDC 
#
#######################################################################
#
# If this CIF has been generated from an entry in the Cambridge 
# Structural Database, then it will include bibliographic, chemical, 
# crystal, experimental, refinement or atomic coordinate data resulting 
# from the CCDC's data processing and validation procedures.
#
#######################################################################

data_PUZMED
_symmetry_cell_setting           tetragonal
_symmetry_space_group_name_H-M   'I 41/a'
_symmetry_Int_Tables_number      88
_space_group_name_Hall           '-I 4ad'
loop_
_symmetry_equiv_pos_site_id
_symmetry_equiv_pos_as_xyz
1 x,y,z
2 -x,1/2-y,z
3 3/4-y,1/4+x,1/4+z
4 1/4+y,1/4-x,1/4+z
5 1/2+x,1/2+y,1/2+z
6 1/2-x,-y,1/2+z
7 1/4-y,3/4+x,3/4+z
8 3/4+y,3/4-x,3/4+z
9 -x,-y,-z
10 x,1/2+y,-z
11 1/4+y,3/4-x,3/4-z
12 3/4-y,3/4+x,3/4-z
13 1/2-x,1/2-y,1/2-z
14 1/2+x,y,1/2-z
15 3/4+y,1/4-x,1/4-z
16 1/4-y,1/4+x,1/4-z
_cell_length_a                   27.886(4)
_cell_length_b                   27.886(4)
_cell_length_c                   30.086(4)
_cell_angle_alpha                90
_cell_angle_beta                 90
_cell_angle_gamma                90
_cell_volume                     23395.7
loop_
_atom_site_label
_atom_site_type_symbol
_atom_site_fract_x
_atom_site_fract_y
_atom_site_fract_z
Pd1 Pd 0.190450(10) -0.024194(10) 0.127140(9)
N1 N 0.12997(11) -0.00203(11) 0.15861(11)
C1 C 0.13344(13) 0.02650(14) 0.19489(13)
H1 H 0.1643 0.0333 0.2066
C2 C 0.09418(13) 0.04576(14) 0.21518(13)
H2 H 0.0978 0.0659 0.2404
C3 C 0.04862(13) 0.03557(14) 0.19856(13)
C4 C 0.04472(14) 0.00586(14) 0.16197(13)
H3 H 0.0141 -0.0022 0.1503
C5 C 0.08582(14) -0.01204(14) 0.14256(13)
H4 H 0.0830 -0.0320 0.1171
C6 C 0.00543(14) 0.05794(14) 0.21864(14)
N2 N 0.01220(12) 0.08564(13) 0.25440(11)
C7 C -0.02752(14) 0.10701(14) 0.26967(13)
N3 N -0.07089(12) 0.10238(12) 0.25245(11)
C8 C -0.07336(14) 0.07378(14) 0.21689(13)
N4 N -0.03679(12) 0.04990(12) 0.19904(11)
N5 N -0.01033(12) 0.20083(12) 0.37989(11)
C9 C 0.02797(15) 0.18034(15) 0.36085(15)
H5 H 0.0590 0.1873 0.3722
C10 C 0.02367(15) 0.14937(15) 0.32513(14)
H6 H 0.0513 0.1353 0.3120
C11 C -0.02153(14) 0.13932(15) 0.30885(13)
C12 C -0.06127(15) 0.16017(15) 0.32885(15)
H7 H -0.0927 0.1535 0.3184
C13 C -0.05396(15) 0.19080(15) 0.36421(14)
H8 H -0.0810 0.2053 0.3779
N6 N -0.20980(11) 0.06049(11) 0.15474(11)
C14 C -0.20365(14) 0.08952(14) 0.18968(14)
H9 H -0.2301 0.1077 0.2002
C15 C -0.16025(14) 0.09379(15) 0.21069(13)
H10 H -0.1569 0.1146 0.2355
C16 C -0.12119(13) 0.06772(14) 0.19562(13)
C17 C -0.12762(14) 0.03739(15) 0.15895(13)
H11 H -0.1018 0.0188 0.1477
C18 C -0.17213(14) 0.03529(14) 0.13983(14)
H12 H -0.1765 0.0150 0.1148
Pd2 Pd 0.0000 0.2500 0.429412(14)
N7 N 0.25202(12) -0.04736(12) 0.09590(11)
C19 C 0.27014(15) -0.08735(15) 0.12381(14)
H13 H 0.2857 -0.0743 0.1508
H14 H 0.2943 -0.1060 0.1070
C20 C 0.22933(15) -0.11917(15) 0.13676(15)
H15 H 0.2408 -0.1445 0.1572
H16 H 0.2158 -0.1348 0.1100
N8 N 0.19149(12) -0.08962(11) 0.15912(11)
C21 C 0.29091(16) -0.01097(16) 0.09122(17)
H17 H 0.3203 -0.0267 0.0810
H18 H 0.2967 0.0043 0.1200
H19 H 0.2812 0.0134 0.0695
C22 C 0.23920(16) -0.06478(16) 0.05076(14)
H20 H 0.2293 -0.0376 0.0323
H21 H 0.2128 -0.0878 0.0530
H22 H 0.2671 -0.0804 0.0373
C23 C 0.20362(17) -0.08263(17) 0.20672(14)
H23 H 0.2064 -0.1139 0.2213
H24 H 0.1783 -0.0639 0.2212
H25 H 0.2342 -0.0654 0.2091
C24 C 0.14528(15) -0.11602(15) 0.15651(16)
H26 H 0.1499 -0.1489 0.1671
H27 H 0.1342 -0.1166 0.1256
H28 H 0.1213 -0.0999 0.1751
N9 N -0.00952(14) 0.20075(13) 0.47962(12)
C25 C 0.03243(18) 0.16877(19) 0.48233(19)
H29 H 0.0617 0.1880 0.4850
H30 H 0.0342 0.1490 0.4554
H31 H 0.0293 0.1479 0.5084
C26 C -0.05252(18) 0.16971(18) 0.47438(19)
H32 H -0.0566 0.1500 0.5011
H33 H -0.0483 0.1489 0.4484
H34 H -0.0810 0.1898 0.4702
C27 C -0.0166(2) 0.22914(18) 0.52072(17)
H35 H -0.0102 0.2088 0.5470
H36 H -0.0502 0.2405 0.5224
Pd1A Pd -0.190450(10) 0.524194(10) 0.127140(9)
Pd1N Pd -0.274194(10) 0.059550(10) 0.122860(9)
Pd1O Pd 0.274194(10) 0.440450(10) 0.122860(9)
N1A N -0.12997(11) 0.50203(11) 0.15861(11)
C1A C -0.13344(13) 0.47350(14) 0.19489(13)
H1A H -0.1643 0.4667 0.2066
C2A C -0.09418(13) 0.45424(14) 0.21518(13)
H2A H -0.0978 0.4341 0.2404
C3A C -0.04862(13) 0.46443(14) 0.19856(13)
C4A C -0.04472(14) 0.49414(14) 0.16197(13)
H3A H -0.0141 0.5022 0.1503
C5A C -0.08582(14) 0.51204(14) 0.14256(13)
H4A H -0.0830 0.5320 0.1171
C6A C -0.00543(14) 0.44206(14) 0.21864(14)
N2A N -0.01220(12) 0.41436(13) 0.25440(11)
C7A C 0.02752(14) 0.39299(14) 0.26967(13)
N3A N 0.07089(12) 0.39762(12) 0.25245(11)
C8A C 0.07336(14) 0.42622(14) 0.21689(13)
N4A N 0.03679(12) 0.45010(12) 0.19904(11)
N5A N 0.01033(12) 0.29917(12) 0.37989(11)
C9A C -0.02797(15) 0.31966(15) 0.36085(15)
H5A H -0.0590 0.3127 0.3722
C10A C -0.02367(15) 0.35063(15) 0.32513(14)
H6A H -0.0513 0.3647 0.3120
C11A C 0.02153(14) 0.36068(15) 0.30885(13)
C12A C 0.06127(15) 0.33983(15) 0.32885(15)
H7A H 0.0927 0.3465 0.3184
C13A C 0.05396(15) 0.30920(15) 0.36421(14)
H8A H 0.0810 0.2947 0.3779
N6A N 0.20980(11) 0.43951(11) 0.15474(11)
N6O N 0.18951(11) 0.04020(11) 0.09526(11)
N6N N -0.18951(11) 0.45980(11) 0.09526(11)
C14A C 0.20365(14) 0.41048(14) 0.18968(14)
H9A H 0.2301 0.3923 0.2002
C15A C 0.16025(14) 0.40621(15) 0.21069(13)
H10A H 0.1569 0.3854 0.2355
C16A C 0.12119(13) 0.43228(14) 0.19562(13)
C17A C 0.12762(14) 0.46261(15) 0.15895(13)
H11A H 0.1018 0.4812 0.1477
C18A C 0.17213(14) 0.46471(14) 0.13983(14)
H12A H 0.1765 0.4850 0.1148
N7A N -0.25202(12) 0.54736(12) 0.09590(11)
C19A C -0.27014(15) 0.58735(15) 0.12381(14)
H13A H -0.2857 0.5743 0.1508
H14A H -0.2943 0.6060 0.1070
C20A C -0.22933(15) 0.61917(15) 0.13676(15)
H15A H -0.2408 0.6445 0.1572
H16A H -0.2158 0.6348 0.1100
N8A N -0.19149(12) 0.58962(11) 0.15912(11)
C21A C -0.29091(16) 0.51097(16) 0.09122(17)
H17A H -0.3203 0.5267 0.0810
H18A H -0.2967 0.4957 0.1200
H19A H -0.2812 0.4866 0.0695
C22A C -0.23920(16) 0.56478(16) 0.05076(14)
H20A H -0.2293 0.5376 0.0323
H21A H -0.2128 0.5878 0.0530
H22A H -0.2671 0.5804 0.0373
C23A C -0.20362(17) 0.58263(17) 0.20672(14)
H23A H -0.2064 0.6139 0.2213
H24A H -0.1783 0.5639 0.2212
H25A H -0.2342 0.5654 0.2091
C24A C -0.14528(15) 0.61602(15) 0.15651(16)
H26A H -0.1499 0.6489 0.1671
H27A H -0.1342 0.6166 0.1256
H28A H -0.1213 0.5999 0.1751
N9A N 0.00952(14) 0.29925(13) 0.47962(12)
C25A C -0.03243(18) 0.33123(19) 0.48233(19)
H29A H -0.0617 0.3120 0.4850
H30A H -0.0342 0.3510 0.4554
H31A H -0.0293 0.3521 0.5084
C26A C 0.05252(18) 0.33029(18) 0.47438(19)
H32A H 0.0566 0.3500 0.5011
H33A H 0.0483 0.3511 0.4484
H34A H 0.0810 0.3102 0.4702
C27A C 0.0166(2) 0.27086(18) 0.52072(17)
H35A H 0.0102 0.2912 0.5470
H36A H 0.0502 0.2595 0.5224
N10 N 0.17524(12) 0.13316(12) 0.27442(12)
O1 O 0.18572(12) 0.10805(11) 0.24124(11)
O2 O 0.20459(12) 0.16318(11) 0.28825(11)
O3 O 0.13582(12) 0.12824(14) 0.29330(12)
C28 C 0.09678(17) 0.19230(17) 0.18961(16)
S1 S 0.09759(5) 0.14849(4) 0.14770(4)
C29 C 0.0344(2) 0.1479(2) 0.1430(2)
H37 H 0.0189 0.1297 0.1206
C30 C 0.0097(2) 0.1732(3) 0.1715(2)
H38 H -0.0243 0.1748 0.1698
S2 S 0.04058(5) 0.20396(6) 0.21272(5)
C31 C 0.13604(16) 0.21757(16) 0.20112(14)
S3 S 0.19210(4) 0.20867(4) 0.17664(4)
C32 C 0.21821(18) 0.25881(16) 0.20046(16)
H39 H 0.2499 0.2682 0.1929
C33 C 0.19261(18) 0.28366(16) 0.22957(15)
H40 H 0.2054 0.3113 0.2438
S4 S 0.13459(5) 0.26383(4) 0.24083(4)
N11 N -0.26261(16) 0.04748(17) 0.54021(19)
O4 O -0.2730(2) 0.00425(19) 0.5456(2)
O5 O -0.2906(2) 0.0769(2) 0.55391(19)
O6 O -0.2315(3) 0.0560(3) 0.5122(3)
O7 O -0.16896(16) 0.32910(15) 0.49926(14)
O8 O -0.2118(3) 0.2579(2) 0.5184(3)
N12 N -0.1985(3) 0.3043(2) 0.5230(2)
O9 O -0.2270(3) 0.3201(2) 0.5557(2)
loop_
_geom_bond_atom_site_label_1
_geom_bond_atom_site_label_2
_geom_bond_site_symmetry_1
_geom_bond_site_symmetry_2
Pd1 N1 1_555 1_555
N1 C1 1_555 1_555
C1 H1 1_555 1_555
C2 C1 1_555 1_555
H2 C2 1_555 1_555
C3 C2 1_555 1_555
C4 C3 1_555 1_555
H3 C4 1_555 1_555
C5 N1 1_555 1_555
H4 C5 1_555 1_555
C6 C3 1_555 1_555
N2 C6 1_555 1_555
C7 N2 1_555 1_555
N3 C7 1_555 1_555
C8 N3 1_555 1_555
N4 C6 1_555 1_555
N5 C9 1_555 1_555
C9 H5 1_555 1_555
C10 C9 1_555 1_555
H6 C10 1_555 1_555
C11 C7 1_555 1_555
C12 C11 1_555 1_555
H7 C12 1_555 1_555
C13 N5 1_555 1_555
H8 C13 1_555 1_555
N6 C14 1_555 1_555
C14 H9 1_555 1_555
C15 C14 1_555 1_555
H10 C15 1_555 1_555
C16 C8 1_555 1_555
C17 C16 1_555 1_555
H11 C17 1_555 1_555
C18 N6 1_555 1_555
H12 C18 1_555 1_555
Pd2 N5 1_555 1_555
N7 Pd1 1_555 1_555
C19 N7 1_555 1_555
H13 C19 1_555 1_555
H14 C19 1_555 1_555
C20 C19 1_555 1_555
H15 C20 1_555 1_555
H16 C20 1_555 1_555
N8 Pd1 1_555 1_555
C21 N7 1_555 1_555
H17 C21 1_555 1_555
H18 C21 1_555 1_555
H19 C21 1_555 1_555
C22 N7 1_555 1_555
H20 C22 1_555 1_555
H21 C22 1_555 1_555
H22 C22 1_555 1_555
C23 N8 1_555 1_555
H23 C23 1_555 1_555
H24 C23 1_555 1_555
H25 C23 1_555 1_555
C24 N8 1_555 1_555
H26 C24 1_555 1_555
H27 C24 1_555 1_555
H28 C24 1_555 1_555
N9 Pd2 1_555 1_555
C25 N9 1_555 1_555
H29 C25 1_555 1_555
H30 C25 1_555 1_555
H31 C25 1_555 1_555
C26 N9 1_555 1_555
H32 C26 1_555 1_555
H33 C26 1_555 1_555
H34 C26 1_555 1_555
C27 N9 1_555 1_555
H35 C27 1_555 1_555
H36 C27 1_555 1_555
N10 O1 1_555 1_555
O2 N10 1_555 1_555
O3 N10 1_555 1_555
C28 S1 1_555 1_555
S1 C29 1_555 1_555
C29 H37 1_555 1_555
C30 C29 1_555 1_555
H38 C30 1_555 1_555
S2 C28 1_555 1_555
C31 C28 1_555 1_555
S3 C31 1_555 1_555
C32 S3 1_555 1_555
H39 C32 1_555 1_555
C33 C32 1_555 1_555
H40 C33 1_555 1_555
S4 C31 1_555 1_555
N11 O4 1_555 1_555
O5 N11 1_555 1_555
O6 N11 1_555 1_555
O7 N12 1_555 1_555
O8 N12 1_555 1_555
N12 O9 1_555 1_555
Pd1A N1A 1_555 1_555
Pd1N N6 1_555 1_555
Pd1O N6A 1_555 1_555
N1A C1A 1_555 1_555
C1A H1A 1_555 1_555
C2A C1A 1_555 1_555
H2A C2A 1_555 1_555
C3A C2A 1_555 1_555
C4A C3A 1_555 1_555
H3A C4A 1_555 1_555
C5A N1A 1_555 1_555
H4A C5A 1_555 1_555
C6A C3A 1_555 1_555
N2A C6A 1_555 1_555
C7A N2A 1_555 1_555
N3A C7A 1_555 1_555
C8A N3A 1_555 1_555
N4A C6A 1_555 1_555
N5A Pd2 1_555 1_555
C9A N5A 1_555 1_555
H5A C9A 1_555 1_555
C10A C9A 1_555 1_555
H6A C10A 1_555 1_555
C11A C7A 1_555 1_555
C12A C11A 1_555 1_555
H7A C12A 1_555 1_555
C13A N5A 1_555 1_555
H8A C13A 1_555 1_555
N6A C14A 1_555 1_555
N6O Pd1 1_555 1_555
N6N Pd1A 1_555 1_555
C14A H9A 1_555 1_555
C15A C14A 1_555 1_555
H10A C15A 1_555 1_555
C16A C8A 1_555 1_555
C17A C16A 1_555 1_555
H11A C17A 1_555 1_555
C18A N6A 1_555 1_555
H12A C18A 1_555 1_555
N7A Pd1A 1_555 1_555
C19A N7A 1_555 1_555
H13A C19A 1_555 1_555
H14A C19A 1_555 1_555
C20A C19A 1_555 1_555
H15A C20A 1_555 1_555
H16A C20A 1_555 1_555
N8A Pd1A 1_555 1_555
C21A N7A 1_555 1_555
H17A C21A 1_555 1_555
H18A C21A 1_555 1_555
H19A C21A 1_555 1_555
C22A N7A 1_555 1_555
H20A C22A 1_555 1_555
H21A C22A 1_555 1_555
H22A C22A 1_555 1_555
C23A N8A 1_555 1_555
H23A C23A 1_555 1_555
H24A C23A 1_555 1_555
H25A C23A 1_555 1_555
C24A N8A 1_555 1_555
H26A C24A 1_555 1_555
H27A C24A 1_555 1_555
H28A C24A 1_555 1_555
N9A Pd2 1_555 1_555
C25A N9A 1_555 1_555
H29A C25A 1_555 1_555
H30A C25A 1_555 1_555
H31A C25A 1_555 1_555
C26A N9A 1_555 1_555
H32A C26A 1_555 1_555
H33A C26A 1_555 1_555
H34A C26A 1_555 1_555
C27A C27 1_555 1_555
H35A C27A 1_555 1_555
H36A C27A 1_555 1_555
C4 C5 1_555 1_555
C8 N4 1_555 1_555
C10 C11 1_555 1_555
C12 C13 1_555 1_555
C15 C16 1_555 1_555
C17 C18 1_555 1_555
C20 N8 1_555 1_555
C30 S2 1_555 1_555
C33 S4 1_555 1_555
C4A C5A 1_555 1_555
C8A N4A 1_555 1_555
C10A C11A 1_555 1_555
C12A C13A 1_555 1_555
C15A C16A 1_555 1_555
C17A C18A 1_555 1_555
C20A N8A 1_555 1_555
N9A C27A 1_555 1_555

#END
