
#######################################################################
#
#                 Cambridge Crystallographic Data Centre
#                                CCDC 
#
#######################################################################
#
# If this CIF has been generated from an entry in the Cambridge 
# Structural Database, then it will include bibliographic, chemical, 
# crystal, experimental, refinement or atomic coordinate data resulting 
# from the CCDC's data processing and validation procedures.
#
#######################################################################

data_PUZTEK
_symmetry_cell_setting           monoclinic
_symmetry_space_group_name_H-M   'P 21/n'
_symmetry_Int_Tables_number      14
_space_group_name_Hall           '-P 2yn'
loop_
_symmetry_equiv_pos_site_id
_symmetry_equiv_pos_as_xyz
1 x,y,z
2 1/2-x,1/2+y,1/2-z
3 -x,-y,-z
4 1/2+x,1/2-y,1/2+z
_cell_length_a                   13.4833(6)
_cell_length_b                   14.5616(5)
_cell_length_c                   13.6187(5)
_cell_angle_alpha                90
_cell_angle_beta                 104.080(2)
_cell_angle_gamma                90
_cell_volume                     2593.54
loop_
_atom_site_label
_atom_site_type_symbol
_atom_site_fract_x
_atom_site_fract_y
_atom_site_fract_z
Pr1 Pr 0.387483(18) 0.183527(14) 0.844267(17)
Pr2 Pr 0.671830(19) 0.567060(15) 0.383880(18)
C1 C 0.7827(3) 0.3415(3) 0.6173(3)
C2 C 0.8459(4) 0.2691(3) 0.6606(4)
H1 H 0.9107 0.2632 0.6488
C3 C 0.8121(4) 0.2061(3) 0.7211(4)
H2 H 0.8553 0.1591 0.7519
C4 C 0.7137(4) 0.2123(3) 0.7364(4)
H3 H 0.6910 0.1690 0.7762
C5 C 0.6497(3) 0.2835(3) 0.6920(3)
C6 C 0.6860(4) 0.3481(3) 0.6338(3)
H4 H 0.6440 0.3967 0.6054
C7 C 0.8163(3) 0.4075(3) 0.5476(3)
C8 C 0.5430(4) 0.2924(3) 0.7059(3)
C9 C 0.3366(5) 0.4836(3) 0.9464(4)
C10 C 0.3419(8) 0.4673(4) 1.0470(4)
H5 H 0.3628 0.4101 1.0747
C11 C 0.3164(9) 0.5355(4) 1.1070(5)
H6 H 0.3226 0.5246 1.1755
C12 C 0.2816(6) 0.6198(4) 1.0656(4)
H7 H 0.2636 0.6651 1.1062
C13 C 0.3032(4) 0.5692(3) 0.9053(3)
H8 H 0.3006 0.5811 0.8376
C14 C 0.3611(4) 0.4104(3) 0.8800(4)
C15 C 0.2363(3) 0.7275(3) 0.9196(3)
C16 C 0.0856(3) 0.3903(3) 0.7887(3)
C17 C 0.0296(4) 0.4202(3) 0.8550(4)
H9 H 0.0108 0.4816 0.8554
C18 C 0.0014(5) 0.3586(3) 0.9209(4)
H10 H -0.0374 0.3787 0.9646
C19 C 0.0306(4) 0.2676(3) 0.9223(4)
H11 H 0.0109 0.2264 0.9662
C20 C 0.0896(3) 0.2381(3) 0.8576(3)
C21 C 0.1164(3) 0.2995(3) 0.7910(3)
H12 H 0.1555 0.2796 0.7475
C22 C 0.1153(4) 0.4559(3) 0.7165(3)
C23 C 0.1240(3) 0.1402(3) 0.8577(3)
C24 C 0.2738(4) 0.6367(3) 0.9642(3)
O1 O 0.7724(2) 0.48508(19) 0.5327(2)
O2 O 0.8855(2) 0.3817(2) 0.5059(2)
O3 O 0.5173(3) 0.2388(2) 0.7680(2)
O4 O 0.4872(2) 0.3527(2) 0.6553(2)
O5 O 0.6023(3) 0.5725(2) 0.5439(3)
O6 O 0.1615(3) 0.42493(19) 0.6527(2)
O7 O 0.0945(3) 0.53859(19) 0.7241(2)
O8 O 0.0689(2) 0.07699(18) 0.8800(2)
O9 O 0.2085(2) 0.12219(18) 0.8366(2)
O10 O 0.5569(3) 0.1541(3) 0.9530(3)
O11 O 0.3735(3) 0.32957(19) 0.9139(3)
O12 O 0.3672(3) 0.4326(2) 0.7933(2)
O13 O 0.2050(2) 0.73590(19) 0.8255(2)
O14 O 0.2388(2) 0.79395(18) 0.9799(2)
H13 H 0.653(3) 0.553(3) 0.589(3)
H14 H 0.6156(19) 0.174(3) 0.951(4)
H15 H 0.561(4) 0.121(3) 1.006(2)
H16 H 0.547(3) 0.575(4) 0.564(4)
Pr1C Pr 0.887483(18) 0.316473(14) 0.344267(17)
Pr1A Pr 0.112517(18) 0.683527(14) 0.655733(17)
Pr2B Pr 0.328170(19) 0.432940(15) 0.616120(18)
Pr2C Pr 0.171830(19) -0.067060(15) 0.883880(18)
Pr2C_2 Pr 0.171830(19) 0.932940(15) 0.883880(18)
O2C O 0.3855(2) 0.1183(2) 1.0059(2)
O4B O 0.5128(2) 0.6473(2) 0.3447(2)
O6B O 0.8385(3) 0.57507(19) 0.3473(2)
O7A O 0.4055(3) 0.03859(19) 0.7759(2)
O8C O 0.5689(2) 0.42301(18) 0.3800(2)
O9C O 0.7085(2) 0.37781(18) 0.3366(2)
O12B O 0.6328(3) 0.5674(2) 0.2067(2)
O13A O 0.2950(2) 0.23590(19) 0.6745(2)
O14C O 0.7388(2) 0.70605(18) 0.4799(2)
loop_
_geom_bond_atom_site_label_1
_geom_bond_atom_site_label_2
_geom_bond_site_symmetry_1
_geom_bond_site_symmetry_2
Pr1 O3 1_555 1_555
Pr2 O1 1_555 1_555
C1 C2 1_555 1_555
C2 H1 1_555 1_555
C3 C2 1_555 1_555
H2 C3 1_555 1_555
C4 C3 1_555 1_555
H3 C4 1_555 1_555
C5 C4 1_555 1_555
C6 C1 1_555 1_555
H4 C6 1_555 1_555
C7 C1 1_555 1_555
C8 C5 1_555 1_555
C9 C10 1_555 1_555
C10 H5 1_555 1_555
C11 C10 1_555 1_555
H6 C11 1_555 1_555
C12 C11 1_555 1_555
H7 C12 1_555 1_555
C13 C9 1_555 1_555
H8 C13 1_555 1_555
C14 C9 1_555 1_555
C15 C24 1_555 1_555
C16 C17 1_555 1_555
C17 H9 1_555 1_555
C18 C17 1_555 1_555
H10 C18 1_555 1_555
C19 C18 1_555 1_555
H11 C19 1_555 1_555
C20 C19 1_555 1_555
C21 C16 1_555 1_555
H12 C21 1_555 1_555
C22 C16 1_555 1_555
C23 C20 1_555 1_555
C24 C12 1_555 1_555
O1 C7 1_555 1_555
O2 C7 1_555 1_555
O3 C8 1_555 1_555
O4 C8 1_555 1_555
O5 Pr2 1_555 1_555
O6 C22 1_555 1_555
O7 C22 1_555 1_555
O8 C23 1_555 1_555
O9 Pr1 1_555 1_555
O10 Pr1 1_555 1_555
O11 Pr1 1_555 1_555
O12 C14 1_555 1_555
O13 C15 1_555 1_555
O14 C15 1_555 1_555
H13 O5 1_555 1_555
H14 O10 1_555 1_555
H15 O10 1_555 1_555
H16 O5 1_555 1_555
Pr1C O2 1_555 1_555
Pr1A O7 1_555 1_555
Pr2B O4 1_555 1_555
Pr2C O8 1_555 1_555
Pr2C_2 O14 1_555 1_555
O2C Pr1 1_555 1_555
O4B Pr2 1_555 1_555
O6B Pr2 1_555 1_555
O7A Pr1 1_555 1_555
O8C Pr2 1_555 1_555
O9C Pr2 1_555 1_555
O12B Pr2 1_555 1_555
O13A Pr1 1_555 1_555
O14C Pr2 1_555 1_555
C5 C6 1_555 1_555
C13 C24 1_555 1_555
C14 O11 1_555 1_555
C20 C21 1_555 1_555
C23 O9 1_555 1_555
O6 Pr2B 1_555 1_555
O9 Pr2C 1_555 1_555
O12 Pr2B 1_555 1_555
O13 Pr1A 1_555 1_555
Pr1C O9C 1_555 1_555

#END
