
#######################################################################
#
#                 Cambridge Crystallographic Data Centre
#                                CCDC 
#
#######################################################################
#
# If this CIF has been generated from an entry in the Cambridge 
# Structural Database, then it will include bibliographic, chemical, 
# crystal, experimental, refinement or atomic coordinate data resulting 
# from the CCDC's data processing and validation procedures.
#
#######################################################################

data_PYAZCU10
_symmetry_cell_setting           monoclinic
_symmetry_space_group_name_H-M   'P 21/m'
_symmetry_Int_Tables_number      11
_space_group_name_Hall           '-P 2yb'
loop_
_symmetry_equiv_pos_site_id
_symmetry_equiv_pos_as_xyz
1 x,y,z
2 -x,1/2+y,-z
3 -x,-y,-z
4 x,1/2-y,z
_cell_length_a                   6.883(3)
_cell_length_b                   11.960(6)
_cell_length_c                   7.958(4)
_cell_angle_alpha                90
_cell_angle_beta                 107.2(1)
_cell_angle_gamma                90
_cell_volume                     625.81
loop_
_atom_site_label
_atom_site_type_symbol
_atom_site_fract_x
_atom_site_fract_y
_atom_site_fract_z
C1 C 0.29250 -0.58990 0.18860
Cu1 Cu 0.31640 -0.25000 0.03700
Cu2 Cu 0.05680 -0.25000 0.38020
C2 C 0.77530 -0.25000 0.24950
C3 C 0.22040 -0.25000 -0.21490
C4 C 0.27130 -0.49320 0.09220
C5 C 0.22390 -0.48390 0.40680
C6 C 0.26660 -0.58540 0.34990
H1 H 0.28700 -0.49200 -0.02800
H2 H 0.20300 -0.46900 0.52400
H3 H 0.27700 -0.64900 0.43400
H4 H 0.32200 -0.65700 0.12700
N1 N 0.60410 -0.25000 0.17330
N2 N 0.16680 -0.25000 -0.36650
N3 N 0.23300 -0.39480 0.15350
N4 N 0.20490 -0.39060 0.31310
N3C N 0.23300 -0.10520 0.15350
Cu2_2 Cu 0.05680 -0.25000 -0.61980
Cu2_3 Cu 1.05680 -0.25000 0.38020
C4C C 0.27130 -0.00680 0.09220
N4C N 0.20490 -0.10940 0.31310
C1C C 0.29250 0.08990 0.18860
H1C H 0.28700 -0.00800 -0.02800
C6C C 0.26660 0.08540 0.34990
H4C H 0.32200 0.15700 0.12700
C2_2 C -0.22470 -0.25000 0.24950
N2_2 N 0.16680 -0.25000 0.63350
C5C C 0.22390 -0.01610 0.40680
H3C H 0.27700 0.14900 0.43400
H2C H 0.20300 -0.03100 0.52400
loop_
_geom_bond_atom_site_label_1
_geom_bond_atom_site_label_2
_geom_bond_site_symmetry_1
_geom_bond_site_symmetry_2
C1 C4 1_555 1_555
Cu1 C3 1_555 1_555
Cu2 N4 1_555 1_555
C2 N1 1_555 1_555
C3 N2 1_555 1_555
C4 H1 1_555 1_555
C5 C6 1_555 1_555
C6 C1 1_555 1_555
H2 C5 1_555 1_555
H3 C6 1_555 1_555
H4 C1 1_555 1_555
N1 Cu1 1_555 1_555
N2 Cu2_2 1_555 1_555
N3 Cu1 1_555 1_555
N4 C5 1_555 1_555
N3C Cu1 1_555 1_555
Cu2_3 C2 1_555 1_555
C4C N3C 1_555 1_555
N4C Cu2 1_555 1_555
C1C C4C 1_555 1_555
H1C C4C 1_555 1_555
C6C C1C 1_555 1_555
H4C C1C 1_555 1_555
C2_2 Cu2 1_555 1_555
N2_2 Cu2 1_555 1_555
C5C N4C 1_555 1_555
H3C C6C 1_555 1_555
H2C C5C 1_555 1_555
C4 N3 1_555 1_555
N3 N4 1_555 1_555
N3C N4C 1_555 1_555
C6C C5C 1_555 1_555

#END
