
#######################################################################
#
#                 Cambridge Crystallographic Data Centre
#                                CCDC 
#
#######################################################################
#
# If this CIF has been generated from an entry in the Cambridge 
# Structural Database, then it will include bibliographic, chemical, 
# crystal, experimental, refinement or atomic coordinate data resulting 
# from the CCDC's data processing and validation procedures.
#
#######################################################################

data_PYCACU01
_symmetry_cell_setting           monoclinic
_symmetry_space_group_name_H-M   'P 21/c'
_symmetry_Int_Tables_number      14
_space_group_name_Hall           '-P 2ybc'
loop_
_symmetry_equiv_pos_site_id
_symmetry_equiv_pos_as_xyz
1 x,y,z
2 -x,1/2+y,1/2-z
3 -x,-y,-z
4 x,1/2-y,1/2+z
_cell_length_a                   7.2223(19)
_cell_length_b                   19.064(5)
_cell_length_c                   6.4358(17)
_cell_angle_alpha                90
_cell_angle_beta                 107.110(4)
_cell_angle_gamma                90
_cell_volume                     846.901
loop_
_atom_site_label
_atom_site_type_symbol
_atom_site_fract_x
_atom_site_fract_y
_atom_site_fract_z
Cu1 Cu 0.26018(4) 0.306386(13) 0.62332(4)
N1 N 0.0408(2) 0.36577(9) 0.5255(3)
O1 O 0.3275(2) 0.35577(8) 0.3730(2)
O2 O 0.2041(3) 0.43150(9) 0.1043(3)
O3 O 0.1179(2) 0.28122(8) 0.8475(2)
O4 O -0.1658(2) 0.29988(9) 0.9136(3)
C1 C 0.1978(3) 0.39853(11) 0.2651(3)
C2 C 0.0264(3) 0.40674(11) 0.3535(3)
C3 C -0.1324(3) 0.44997(12) 0.2744(4)
H1 H -0.1449 0.4779 0.1526
C4 C -0.2726(3) 0.45033(13) 0.3828(4)
H2 H -0.3799 0.4795 0.3347
C5 C -0.2540(3) 0.40744(12) 0.5625(4)
H3 H -0.3472 0.4078 0.6361
C6 C -0.0938(3) 0.36441(11) 0.6290(3)
C7 C -0.0474(3) 0.31095(11) 0.8125(3)
O5 O 0.4831(2) 0.24412(8) 0.6956(2)
H4 H 0.5859 0.2635 0.7742
H5 H 0.4579 0.2075 0.7578
O6 O 0.4532(2) 0.39041(9) 0.8741(3)
H6 H 0.3892 0.4070 0.9545
H7 H 0.5572 0.3713 0.9510
O3C O 0.1179(2) 0.21878(8) 0.3475(2)
Cu1C Cu 0.26018(4) 0.193614(13) 1.12332(4)
loop_
_geom_bond_atom_site_label_1
_geom_bond_atom_site_label_2
_geom_bond_site_symmetry_1
_geom_bond_site_symmetry_2
Cu1 N1 1_555 1_555
N1 C2 1_555 1_555
O1 Cu1 1_555 1_555
O2 C1 1_555 1_555
O3 Cu1 1_555 1_555
O4 C7 1_555 1_555
C1 O1 1_555 1_555
C2 C1 1_555 1_555
C3 C2 1_555 1_555
H1 C3 1_555 1_555
C4 C3 1_555 1_555
H2 C4 1_555 1_555
C5 C4 1_555 1_555
H3 C5 1_555 1_555
C6 N1 1_555 1_555
C7 O3 1_555 1_555
O5 Cu1 1_555 1_555
H4 O5 1_555 1_555
H5 O5 1_555 1_555
O6 Cu1 1_555 1_555
H6 O6 1_555 1_555
H7 O6 1_555 1_555
O3C Cu1 1_555 1_555
Cu1C O3 1_555 1_555
C5 C6 1_555 1_555
C6 C7 1_555 1_555

#END
