
#######################################################################
#
#                 Cambridge Crystallographic Data Centre
#                                CCDC 
#
#######################################################################
#
# If this CIF has been generated from an entry in the Cambridge 
# Structural Database, then it will include bibliographic, chemical, 
# crystal, experimental, refinement or atomic coordinate data resulting 
# from the CCDC's data processing and validation procedures.
#
#######################################################################

data_PYCACU
_symmetry_cell_setting           monoclinic
_symmetry_space_group_name_H-M   'P 21/c'
_symmetry_Int_Tables_number      14
_space_group_name_Hall           '-P 2ybc'
loop_
_symmetry_equiv_pos_site_id
_symmetry_equiv_pos_as_xyz
1 x,y,z
2 -x,1/2+y,1/2-z
3 -x,-y,-z
4 x,1/2-y,1/2+z
_cell_length_a                   7.21(1)
_cell_length_b                   19.02(1)
_cell_length_c                   6.41(1)
_cell_angle_alpha                90
_cell_angle_beta                 107.1(1)
_cell_angle_gamma                90
_cell_volume                     840.171
loop_
_atom_site_label
_atom_site_type_symbol
_atom_site_fract_x
_atom_site_fract_y
_atom_site_fract_z
Cu1 Cu 0.75980 0.19360 0.12360
C1 C 0.40560 0.13590 0.12910
C2 C 0.24540 0.09230 0.06260
C3 C 0.22630 0.04950 -0.11790
C4 C 0.36740 0.04970 -0.22640
C5 C 0.52600 0.09350 -0.14680
C6 C 0.69750 0.10160 -0.23490
C7 C 0.45220 0.18870 0.31260
H1 H 0.15000 0.09000 0.14300
H2 H 0.11600 0.01600 -0.16700
H3 H 0.36700 0.01700 -0.34300
H4 H 1.08300 0.23800 0.29000
H5 H 0.95800 0.30000 0.25700
H6 H 0.88400 0.10100 0.46400
H7 H 1.06400 0.13200 0.46400
N1 N 0.54040 0.13390 0.02530
O1 O 0.82720 0.14440 -0.12690
O2 O 0.70230 0.06810 -0.39640
O3 O 0.61780 0.21920 0.34730
O4 O 0.33310 0.20040 0.41380
O5 O 0.98230 0.25610 0.19560
O6 O 0.95270 0.10980 0.37390
O3C O 0.61780 0.28080 -0.15270
Cu1C Cu 0.75980 0.30640 0.62360
loop_
_geom_bond_atom_site_label_1
_geom_bond_atom_site_label_2
_geom_bond_site_symmetry_1
_geom_bond_site_symmetry_2
Cu1 N1 1_555 1_555
C1 C2 1_555 1_555
C2 C3 1_555 1_555
C3 C4 1_555 1_555
C4 C5 1_555 1_555
C5 C6 1_555 1_555
C6 O1 1_555 1_555
C7 C1 1_555 1_555
H1 C2 1_555 1_555
H2 C3 1_555 1_555
H3 C4 1_555 1_555
H4 O5 1_555 1_555
H5 O5 1_555 1_555
H6 O6 1_555 1_555
H7 O6 1_555 1_555
N1 C1 1_555 1_555
O1 Cu1 1_555 1_555
O2 C6 1_555 1_555
O3 Cu1 1_555 1_555
O4 C7 1_555 1_555
O5 Cu1 1_555 1_555
O6 Cu1 1_555 1_555
O3C Cu1 1_555 1_555
Cu1C O3 1_555 1_555
C5 N1 1_555 1_555
C7 O3 1_555 1_555

#END
