
#######################################################################
#
#                 Cambridge Crystallographic Data Centre
#                                CCDC 
#
#######################################################################
#
# If this CIF has been generated from an entry in the Cambridge 
# Structural Database, then it will include bibliographic, chemical, 
# crystal, experimental, refinement or atomic coordinate data resulting 
# from the CCDC's data processing and validation procedures.
#
#######################################################################

data_PYCDBR01
_symmetry_cell_setting           orthorhombic
_symmetry_space_group_name_H-M   'P n n m'
_symmetry_Int_Tables_number      58
_space_group_name_Hall           '-P 2 2n'
loop_
_symmetry_equiv_pos_site_id
_symmetry_equiv_pos_as_xyz
1 x,y,z
2 x,y,-z
3 1/2+x,1/2-y,1/2+z
4 1/2-x,1/2+y,1/2+z
5 -x,-y,-z
6 -x,-y,z
7 1/2-x,1/2+y,1/2-z
8 1/2+x,1/2-y,1/2-z
_cell_length_a                   8.649(3)
_cell_length_b                   18.159(7)
_cell_length_c                   3.9182(14)
_cell_angle_alpha                90
_cell_angle_beta                 90
_cell_angle_gamma                90
_cell_volume                     615.381
loop_
_atom_site_label
_atom_site_type_symbol
_atom_site_fract_x
_atom_site_fract_y
_atom_site_fract_z
Cd1 Cd 0.0000 0.0000 0.0000
Br1 Br -0.16073(8) 0.07548(3) -0.5000
N1 N -0.1876(7) -0.0914(3) 0.0000
C1 C -0.1471(9) -0.1609(4) 0.0000
H1 H -0.0367 -0.1732 0.0000
C2 C -0.2531(10) -0.2176(5) 0.0000
H2 H -0.2191 -0.2691 0.0000
C3 C -0.4044(11) -0.2005(5) 0.0000
H3 H -0.4829 -0.2395 0.0000
C4 C -0.4458(10) -0.1305(6) 0.0000
H4 H -0.5556 -0.1171 0.0000
C5 C -0.3369(9) -0.0775(4) 0.0000
H5 H -0.3705 -0.0260 0.0000
Br1_2 Br -0.16073(8) 0.07548(3) 0.5000
N1D N 0.1876(7) 0.0914(3) 0.0000
C1D C 0.1471(9) 0.1609(4) 0.0000
H1D H 0.0367 0.1732 0.0000
C2D C 0.2531(10) 0.2176(5) 0.0000
H2D H 0.2191 0.2691 0.0000
C3D C 0.4044(11) 0.2005(5) 0.0000
H3D H 0.4829 0.2395 0.0000
C4D C 0.4458(10) 0.1305(6) 0.0000
H4D H 0.5556 0.1171 0.0000
C5D C 0.3369(9) 0.0775(4) 0.0000
H5D H 0.3705 0.0260 0.0000
Br1D Br 0.16073(8) -0.07548(3) -0.5000
Br1D_2 Br 0.16073(8) -0.07548(3) 0.5000
Cd1_2 Cd 0.0000 0.0000 -1.0000
Cd1_3 Cd 0.0000 0.0000 1.0000
loop_
_geom_bond_atom_site_label_1
_geom_bond_atom_site_label_2
_geom_bond_site_symmetry_1
_geom_bond_site_symmetry_2
Cd1 Br1 1_555 1_555
Br1 Cd1_2 1_555 1_555
N1 Cd1 1_555 1_555
C1 N1 1_555 1_555
H1 C1 1_555 1_555
C2 C1 1_555 1_555
H2 C2 1_555 1_555
C3 C2 1_555 1_555
H3 C3 1_555 1_555
C4 C3 1_555 1_555
H4 C4 1_555 1_555
C5 N1 1_555 1_555
H5 C5 1_555 1_555
Br1_2 Cd1 1_555 1_555
N1D Cd1 1_555 1_555
C1D N1D 1_555 1_555
H1D C1D 1_555 1_555
C2D C1D 1_555 1_555
H2D C2D 1_555 1_555
C3D C2D 1_555 1_555
H3D C3D 1_555 1_555
C4D C3D 1_555 1_555
H4D C4D 1_555 1_555
C5D N1D 1_555 1_555
H5D C5D 1_555 1_555
Br1D Cd1 1_555 1_555
Br1D_2 Cd1 1_555 1_555
Cd1_2 Br1D 1_555 1_555
Cd1_3 Br1_2 1_555 1_555
C4 C5 1_555 1_555
C4D C5D 1_555 1_555
Br1D_2 Cd1_3 1_555 1_555

#END
