
#######################################################################
#
#                 Cambridge Crystallographic Data Centre
#                                CCDC 
#
#######################################################################
#
# If this CIF has been generated from an entry in the Cambridge 
# Structural Database, then it will include bibliographic, chemical, 
# crystal, experimental, refinement or atomic coordinate data resulting 
# from the CCDC's data processing and validation procedures.
#
#######################################################################

data_PYDCUO02
_symmetry_cell_setting           hexagonal
_symmetry_space_group_name_H-M   'P 65'
_symmetry_Int_Tables_number      170
_space_group_name_Hall           'P 65'
loop_
_symmetry_equiv_pos_site_id
_symmetry_equiv_pos_as_xyz
1 x,y,z
2 -y,x-y,2/3+z
3 -x+y,-x,1/3+z
4 -x,-y,1/2+z
5 y,-x+y,1/6+z
6 x-y,x,5/6+z
_cell_length_a                   14.721(2)
_cell_length_b                   14.721(2)
_cell_length_c                   9.3433(19)
_cell_angle_alpha                90
_cell_angle_beta                 90
_cell_angle_gamma                120
_cell_volume                     1753.5
loop_
_atom_site_label
_atom_site_type_symbol
_atom_site_fract_x
_atom_site_fract_y
_atom_site_fract_z
U1 U -0.451560(15) 0.613300(15) 0.06652(6)
O1 O -0.6204(4) 0.4850(3) 0.1487(5)
O2 O -0.7523(4) 0.3202(4) 0.1721(6)
O3 O -0.3100(3) 0.5841(4) -0.0032(6)
O4 O -0.2443(3) 0.4804(4) -0.0568(6)
O5 O -0.3098(4) 0.7830(4) -0.0057(7)
O6 O -0.4004(4) 0.6336(3) 0.2435(5)
O7 O -0.4993(4) 0.5954(4) -0.1100(6)
N1 N -0.4927(4) 0.4260(3) 0.0555(7)
C1 C -0.5905(5) 0.3482(5) 0.0873(6)
C2 C -0.6194(5) 0.2428(5) 0.0720(8)
H1 H -0.6873 0.1902 0.0930
C3 C -0.5440(6) 0.2176(5) 0.0242(8)
H2 H -0.5614 0.1479 0.0138
C4 C -0.4421(6) 0.2989(5) -0.0075(7)
H3 H -0.3905 0.2849 -0.0394
C5 C -0.4218(5) 0.4010(5) 0.0107(6)
C6 C -0.6629(5) 0.3854(5) 0.1417(7)
C7 C -0.3164(5) 0.4955(5) -0.0202(6)
U1E U -0.064860(21) 0.548440(15) -0.10015(6)
O4D O -0.5196(4) 0.7247(5) 0.1099(6)
loop_
_geom_bond_atom_site_label_1
_geom_bond_atom_site_label_2
_geom_bond_site_symmetry_1
_geom_bond_site_symmetry_2
U1 O1 1_555 1_555
O1 C6 1_555 1_555
O2 C6 1_555 1_555
O3 U1 1_555 1_555
O4 C7 1_555 1_555
O5 U1 1_555 1_555
O6 U1 1_555 1_555
O7 U1 1_555 1_555
N1 U1 1_555 1_555
C1 N1 1_555 1_555
C2 C1 1_555 1_555
H1 C2 1_555 1_555
C3 C2 1_555 1_555
H2 C3 1_555 1_555
C4 C3 1_555 1_555
H3 C4 1_555 1_555
C5 N1 1_555 1_555
C6 C1 1_555 1_555
C7 O3 1_555 1_555
U1E O4 1_555 1_555
O4D U1 1_555 1_555
C4 C5 1_555 1_555
C5 C7 1_555 1_555

#END
