
#######################################################################
#
#                 Cambridge Crystallographic Data Centre
#                                CCDC 
#
#######################################################################
#
# If this CIF has been generated from an entry in the Cambridge 
# Structural Database, then it will include bibliographic, chemical, 
# crystal, experimental, refinement or atomic coordinate data resulting 
# from the CCDC's data processing and validation procedures.
#
#######################################################################

data_PYDCUO01
_symmetry_cell_setting           hexagonal
_symmetry_space_group_name_H-M   'P 61'
_symmetry_Int_Tables_number      169
_space_group_name_Hall           'P 61'
loop_
_symmetry_equiv_pos_site_id
_symmetry_equiv_pos_as_xyz
1 x,y,z
2 -x,-y,1/2+z
3 -y,x-y,1/3+z
4 -x+y,-x,2/3+z
5 x-y,x,1/6+z
6 y,-x+y,5/6+z
_cell_length_a                   14.7245(7)
_cell_length_b                   14.7245(7)
_cell_length_c                   9.2583(9)
_cell_angle_alpha                90
_cell_angle_beta                 90
_cell_angle_gamma                120
_cell_volume                     1738.37
loop_
_atom_site_label
_atom_site_type_symbol
_atom_site_fract_x
_atom_site_fract_y
_atom_site_fract_z
C1 C 0.3470(5) -0.0618(5) 1.1076(8)
C2 C 0.2419(5) -0.1380(6) 1.1234(10)
H1 H 0.1893 -0.1226 1.1026
C3 C 0.2165(7) -0.2386(7) 1.1714(9)
H2 H 0.1469 -0.2906 1.1833
C4 C 0.2962(7) -0.2592(6) 1.2006(9)
H3 H 0.2816 -0.3254 1.2306
C5 C 0.4006(6) -0.1769(5) 1.1837(8)
C6 C 0.3840(6) 0.0471(6) 1.0530(8)
C7 C 0.4949(6) -0.1886(6) 1.2145(7)
N1 N 0.4244(5) -0.0813(4) 1.1377(8)
O1 O 0.4837(4) 0.1048(4) 1.0439(7)
O2 O 0.3183(5) 0.0734(5) 1.0227(8)
O3 O 0.4800(5) -0.2764(4) 1.2507(7)
O4 O 0.5836(4) -0.1061(4) 1.1965(7)
O5 O 0.6330(4) 0.0338(4) 0.9475(7)
O6 O 0.5953(4) 0.0944(4) 1.3048(7)
O7 O 0.7825(5) 0.0903(6) 1.1964(9)
U1 U 0.612675(18) 0.064341(18) 1.12567(8)
O3E O 0.7236(4) 0.2436(6) 1.0840(7)
U1D U 0.548334(25) -0.387325(18) 1.29234(8)
loop_
_geom_bond_atom_site_label_1
_geom_bond_atom_site_label_2
_geom_bond_site_symmetry_1
_geom_bond_site_symmetry_2
C1 C2 1_555 1_555
C2 H1 1_555 1_555
C3 C2 1_555 1_555
H2 C3 1_555 1_555
C4 C3 1_555 1_555
H3 C4 1_555 1_555
C5 C4 1_555 1_555
C6 C1 1_555 1_555
C7 C5 1_555 1_555
N1 C1 1_555 1_555
O1 C6 1_555 1_555
O2 C6 1_555 1_555
O3 C7 1_555 1_555
O4 C7 1_555 1_555
O5 U1 1_555 1_555
O6 U1 1_555 1_555
O7 U1 1_555 1_555
U1 N1 1_555 1_555
O3E U1 1_555 1_555
U1D O3 1_555 1_555
C5 N1 1_555 1_555
O1 U1 1_555 1_555
O4 U1 1_555 1_555

#END
