
#######################################################################
#
#                 Cambridge Crystallographic Data Centre
#                                CCDC 
#
#######################################################################
#
# If this CIF has been generated from an entry in the Cambridge 
# Structural Database, then it will include bibliographic, chemical, 
# crystal, experimental, refinement or atomic coordinate data resulting 
# from the CCDC's data processing and validation procedures.
#
#######################################################################

data_PYDCUO
_symmetry_cell_setting           hexagonal
_symmetry_space_group_name_H-M   'P 61'
_symmetry_Int_Tables_number      169
_space_group_name_Hall           'P 61'
loop_
_symmetry_equiv_pos_site_id
_symmetry_equiv_pos_as_xyz
1 x,y,z
2 x-y,x,1/6+z
3 -y,x-y,1/3+z
4 -x,-y,1/2+z
5 -x+y,-x,2/3+z
6 y,-x+y,5/6+z
_cell_length_a                   14.685(2)
_cell_length_b                   14.685(2)
_cell_length_c                   9.313(1)
_cell_angle_alpha                90
_cell_angle_beta                 90
_cell_angle_gamma                120
_cell_volume                     1739.27
loop_
_atom_site_label
_atom_site_type_symbol
_atom_site_fract_x
_atom_site_fract_y
_atom_site_fract_z
C1 C 0.61500 0.66270 0.23890
C2 C 0.65380 0.59070 0.18510
C3 C 0.75920 0.62120 0.17060
C4 C 0.78390 0.54810 0.12250
C5 C 0.70040 0.44260 0.09080
C6 C 0.60060 0.42220 0.10590
C7 C 0.50620 0.31870 0.07770
N1 N 0.57420 0.49140 0.15720
O1 O 0.36800 0.40270 0.34310
O2 O 0.40590 0.50160 -0.00960
O3 O 0.21810 0.30880 0.08980
O4 O 0.51480 0.61990 0.24940
O5 O 0.67990 0.75350 0.27340
O6 O 0.41650 0.30980 0.09920
O7 O 0.51920 0.24420 0.04190
U1 U 0.38688 0.45194 0.16674
U1E U 0.45194 0.06506 0.00007
O7A O 0.27500 0.51920 0.20857
N1E N 0.49140 -0.08280 -0.00947
O1E O 0.40270 0.03470 0.17643
O2E O 0.50160 0.09570 -0.17627
O3E O 0.30880 0.09070 -0.07687
O4E O 0.61990 0.10510 0.08273
O6E O 0.30980 -0.10670 -0.06747
C7A C 0.18750 0.50620 0.24437
C2E C 0.59070 -0.06310 0.01843
C6E C 0.42220 -0.17840 -0.06077
C1E C 0.66270 0.04770 0.07223
C7E C 0.31870 -0.18750 -0.08897
C6A C 0.17840 0.60060 0.27257
O6A O 0.10670 0.41650 0.26587
C3E C 0.62120 -0.13800 0.00393
C5E C 0.44260 -0.25780 -0.07587
O5E O 0.75350 0.07360 0.10673
O7E O 0.24420 -0.27500 -0.12477
C5A C 0.25780 0.70040 0.25747
N1A N 0.08280 0.57420 0.32387
U1A U -0.06506 0.38688 0.33341
C4E C 0.54810 -0.23580 -0.04417
U1D U 0.06506 -0.38688 -0.16659
C4A C 0.23580 0.78390 0.28917
C2A C 0.06310 0.65380 0.35177
O1A O -0.03470 0.36800 0.50977
O2A O -0.09570 0.40590 0.15707
O3A O -0.09070 0.21810 0.25647
O4A O -0.10510 0.51480 0.41607
O7B O -0.24420 0.27500 0.37523
N1D N -0.08280 -0.57420 -0.17613
O1D O 0.03470 -0.36800 0.00977
O2D O 0.09570 -0.40590 -0.34293
O3D O 0.09070 -0.21810 -0.24353
O4D O 0.10510 -0.51480 -0.08393
O6D O -0.10670 -0.41650 -0.23413
C3A C 0.13800 0.75920 0.33727
C1A C -0.04770 0.61500 0.40557
C7B C -0.31870 0.18750 0.41103
C2D C -0.06310 -0.65380 -0.14823
C6D C -0.17840 -0.60060 -0.22743
C1D C 0.04770 -0.61500 -0.09443
C7D C -0.18750 -0.50620 -0.25563
O5A O -0.07360 0.67990 0.44007
C6B C -0.42220 0.17840 0.43923
O6B O -0.30980 0.10670 0.43253
C3D C -0.13800 -0.75920 -0.16273
C5D C -0.25780 -0.70040 -0.24253
O5D O 0.07360 -0.67990 -0.05993
O7D O -0.27500 -0.51920 -0.29143
C5B C -0.44260 0.25780 0.42413
N1B N -0.49140 0.08280 0.49053
U1B U -0.45194 -0.06506 0.50007
C4D C -0.23580 -0.78390 -0.21083
U1C U -0.38688 -0.45194 -0.33326
C4B C -0.54810 0.23580 0.45583
C2B C -0.59070 0.06310 0.51843
O4B O -0.61990 -0.10510 0.58273
N1C N -0.57420 -0.49140 -0.34280
O1C O -0.36800 -0.40270 -0.15690
O2C O -0.40590 -0.50160 -0.50960
O3C O -0.21810 -0.30880 -0.41020
O4C O -0.51480 -0.61990 -0.25060
O6C O -0.41650 -0.30980 -0.40080
C3B C -0.62120 0.13800 0.50393
C1B C -0.66270 -0.04770 0.57223
C2C C -0.65380 -0.59070 -0.31490
C6C C -0.60060 -0.42220 -0.39410
C1C C -0.61500 -0.66270 -0.26110
C7C C -0.50620 -0.31870 -0.42230
O5B O -0.75350 -0.07360 0.60673
C3C C -0.75920 -0.62120 -0.32940
C5C C -0.70040 -0.44260 -0.40920
O5C O -0.67990 -0.75350 -0.22660
C4C C -0.78390 -0.54810 -0.37750
O7C O -0.51920 -0.24420 -0.45810
U1B_2 U -0.45194 -0.06506 -0.49993
N1B_2 N -0.49140 0.08280 -0.50947
O1B O -0.40270 -0.03470 -0.32357
O2B O -0.50160 -0.09570 -0.67627
O3B O -0.30880 -0.09070 -0.57687
O4B_2 O -0.61990 -0.10510 -0.41727
O6B_2 O -0.30980 0.10670 -0.56747
loop_
_geom_bond_atom_site_label_1
_geom_bond_atom_site_label_2
_geom_bond_site_symmetry_1
_geom_bond_site_symmetry_2
C1 C2 1_555 1_555
C2 C3 1_555 1_555
C3 C4 1_555 1_555
C4 C5 1_555 1_555
C5 C6 1_555 1_555
C6 C7 1_555 1_555
C7 O6 1_555 1_555
N1 C2 1_555 1_555
O1 U1 1_555 1_555
O2 U1 1_555 1_555
O3 U1 1_555 1_555
O4 C1 1_555 1_555
O5 C1 1_555 1_555
O6 U1 1_555 1_555
O7 C7 1_555 1_555
U1 N1 1_555 1_555
U1E O7 1_555 1_555
O7A U1 1_555 1_555
N1E U1E 1_555 1_555
O1E U1E 1_555 1_555
O2E U1E 1_555 1_555
O3E U1E 1_555 1_555
O4E U1E 1_555 1_555
O6E U1E 1_555 1_555
C7A O7A 1_555 1_555
C2E N1E 1_555 1_555
C6E N1E 1_555 1_555
C1E O4E 1_555 1_555
C7E O6E 1_555 1_555
C6A C7A 1_555 1_555
O6A C7A 1_555 1_555
C3E C2E 1_555 1_555
C5E C6E 1_555 1_555
O5E C1E 1_555 1_555
O7E C7E 1_555 1_555
C5A C6A 1_555 1_555
N1A C6A 1_555 1_555
U1A O6A 1_555 1_555
C4E C3E 1_555 1_555
U1D O7E 1_555 1_555
C4A C5A 1_555 1_555
C2A N1A 1_555 1_555
O1A U1A 1_555 1_555
O2A U1A 1_555 1_555
O3A U1A 1_555 1_555
O4A U1A 1_555 1_555
O7B U1A 1_555 1_555
N1D U1D 1_555 1_555
O1D U1D 1_555 1_555
O2D U1D 1_555 1_555
O3D U1D 1_555 1_555
O4D U1D 1_555 1_555
O6D U1D 1_555 1_555
C3A C4A 1_555 1_555
C1A C2A 1_555 1_555
C7B O7B 1_555 1_555
C2D N1D 1_555 1_555
C6D N1D 1_555 1_555
C1D O4D 1_555 1_555
C7D O6D 1_555 1_555
O5A C1A 1_555 1_555
C6B C7B 1_555 1_555
O6B C7B 1_555 1_555
C3D C2D 1_555 1_555
C5D C6D 1_555 1_555
O5D C1D 1_555 1_555
O7D C7D 1_555 1_555
C5B C6B 1_555 1_555
N1B C6B 1_555 1_555
U1B O6B 1_555 1_555
C4D C3D 1_555 1_555
U1C O7D 1_555 1_555
C4B C5B 1_555 1_555
C2B N1B 1_555 1_555
O4B U1B 1_555 1_555
N1C U1C 1_555 1_555
O1C U1C 1_555 1_555
O2C U1C 1_555 1_555
O3C U1C 1_555 1_555
O4C U1C 1_555 1_555
O6C U1C 1_555 1_555
C3B C4B 1_555 1_555
C1B C2B 1_555 1_555
C2C N1C 1_555 1_555
C6C N1C 1_555 1_555
C1C O4C 1_555 1_555
C7C O6C 1_555 1_555
O5B C1B 1_555 1_555
C3C C2C 1_555 1_555
C5C C6C 1_555 1_555
O5C C1C 1_555 1_555
C4C C3C 1_555 1_555
O7C C7C 1_555 1_555
U1B_2 O7C 1_555 1_555
N1B_2 U1B_2 1_555 1_555
O1B U1B_2 1_555 1_555
O2B U1B_2 1_555 1_555
O3B U1B_2 1_555 1_555
O4B_2 U1B_2 1_555 1_555
O6B_2 U1B_2 1_555 1_555
C6 N1 1_555 1_555
O4 U1 1_555 1_555
C2E C1E 1_555 1_555
C6E C7E 1_555 1_555
C5E C4E 1_555 1_555
N1A U1A 1_555 1_555
C2A C3A 1_555 1_555
O4A C1A 1_555 1_555
C2D C1D 1_555 1_555
C6D C7D 1_555 1_555
C5D C4D 1_555 1_555
N1B U1B 1_555 1_555
C2B C3B 1_555 1_555
O4B C1B 1_555 1_555
C2C C1C 1_555 1_555
C6C C7C 1_555 1_555
C5C C4C 1_555 1_555

#END
