
#######################################################################
#
#                 Cambridge Crystallographic Data Centre
#                                CCDC 
#
#######################################################################
#
# If this CIF has been generated from an entry in the Cambridge 
# Structural Database, then it will include bibliographic, chemical, 
# crystal, experimental, refinement or atomic coordinate data resulting 
# from the CCDC's data processing and validation procedures.
#
#######################################################################

data_PYDSCU10
_symmetry_cell_setting           triclinic
_symmetry_space_group_name_H-M   'P -1'
_symmetry_Int_Tables_number      2
_space_group_name_Hall           '-P 1'
loop_
_symmetry_equiv_pos_site_id
_symmetry_equiv_pos_as_xyz
1 x,y,z
2 -x,-y,-z
_cell_length_a                   13.898(12)
_cell_length_b                   21.867(16)
_cell_length_c                   8.278(4)
_cell_angle_alpha                92.78(5)
_cell_angle_beta                 100.79(6)
_cell_angle_gamma                84.37(6)
_cell_volume                     2458.18
loop_
_atom_site_label
_atom_site_type_symbol
_atom_site_fract_x
_atom_site_fract_y
_atom_site_fract_z
Cu1 Cu 0.16680 0.15070 0.69750
N1 N 0.04960 0.11320 0.55250
C1 C 0.05000 0.10000 0.39050
C2 C -0.02110 0.07080 0.28820
C3 C -0.09910 0.05350 0.35240
C4 C -0.10240 0.06660 0.51440
C5 C -0.02620 0.09620 0.60940
S1 S -0.03020 0.10390 0.82560
S2 S 0.08320 0.15380 0.92640
C6 C 0.03000 0.23200 0.92260
C7 C -0.05640 0.25220 0.82850
C8 C -0.08080 0.31560 0.84650
C9 C -0.02930 0.35370 0.94160
C10 C 0.05080 0.32900 1.02730
N2 N 0.08590 0.26690 1.02260
N3 N 0.28860 0.09420 0.70400
C11 C 0.29760 0.04460 0.60650
C12 C 0.38230 0.00620 0.61690
C13 C 0.46220 0.01830 0.73390
C14 C 0.45560 0.06980 0.83870
C15 C 0.36710 0.10620 0.81570
S3 S 0.35190 0.17140 0.95270
S4 S 0.36690 0.24430 0.81630
C16 C 0.24780 0.27600 0.71000
C17 C 0.23620 0.33910 0.68230
C18 C 0.15440 0.36380 0.58600
C19 C 0.08270 0.32920 0.52950
C20 C 0.09670 0.26800 0.55940
N4 N 0.17410 0.23970 0.64780
H1 H 0.10300 0.11200 0.34600
H2 H -0.01700 0.06200 0.17600
H3 H -0.15000 0.03300 0.28500
H4 H -0.15600 0.05600 0.56100
H5 H -0.09700 0.22600 0.75700
H6 H -0.14100 0.33200 0.78300
H7 H -0.04900 0.39600 0.94800
H8 H 0.09000 0.35500 1.10100
H9 H 0.24200 0.03500 0.52600
H10 H 0.38600 -0.02800 0.54400
H11 H 0.52100 -0.00800 0.74400
H12 H 0.50900 0.08000 0.92200
H13 H 0.28600 0.36400 0.73200
H14 H 0.14800 0.40600 0.55900
H15 H 0.02200 0.34600 0.46900
H16 H 0.04500 0.24400 0.51100
Cu2 Cu 0.58970 0.31100 0.49900
N5 N 0.47550 0.25990 0.42370
C21 C 0.38770 0.28720 0.34080
C22 C 0.30610 0.25720 0.29900
C23 C 0.30860 0.19680 0.33580
C24 C 0.39470 0.16860 0.41590
C25 C 0.47580 0.20250 0.46170
S5 S 0.58230 0.16250 0.58090
S6 S 0.69230 0.21600 0.57380
C26 C 0.72980 0.19700 0.37890
C27 C 0.68110 0.16020 0.25700
C28 C 0.71800 0.15500 0.11140
C29 C 0.79610 0.18480 0.09550
C30 C 0.84110 0.21840 0.22290
N6 N 0.80960 0.22680 0.37260
N7 N 0.67660 0.35940 0.39660
C31 C 0.74060 0.39310 0.49550
C32 C 0.80950 0.42360 0.44140
C33 C 0.81070 0.42090 0.27430
C34 C 0.74630 0.38700 0.17230
C35 C 0.68090 0.35710 0.23740
S7 S 0.59140 0.31010 0.12790
S8 S 0.60920 0.31080 -0.10930
C36 C 0.53360 0.37380 -0.19110
C37 C 0.47740 0.41560 -0.10780
C38 C 0.41880 0.46220 -0.18750
C39 C 0.41680 0.46540 -0.35660
C40 C 0.47400 0.42290 -0.43340
N8 N 0.52990 0.37720 -0.35460
H17 H 0.38500 0.32900 0.31200
H18 H 0.24700 0.27800 0.24400
H19 H 0.25200 0.17500 0.30600
H20 H 0.39900 0.12600 0.44000
H21 H 0.62600 0.14000 0.27100
H22 H 0.68800 0.13000 0.02200
H23 H 0.81900 0.18200 -0.00600
H24 H 0.89800 0.23700 0.21000
H25 H 0.73800 0.39600 0.61000
H26 H 0.85500 0.44600 0.51600
H27 H 0.85600 0.44200 0.23100
H28 H 0.74700 0.38400 0.05800
H29 H 0.48000 0.41200 0.00700
H30 H 0.38100 0.49100 -0.13100
H31 H 0.37600 0.49700 -0.41800
H32 H 0.47300 0.42700 -0.54800
N8_2 N 0.52990 0.37720 0.64540
Cu2_2 Cu 0.58970 0.31100 -0.50100
Cl1 Cl 0.25260 0.00470 0.12290
O1 O 0.15430 0.01310 0.06390
O2 O 0.29990 -0.00990 -0.01260
O3 O 0.27710 -0.04600 0.22690
O4 O 0.28830 0.05800 0.19450
Cl2 Cl 0.24560 0.46910 0.15310
O5 O 0.33390 0.47500 0.19160
O6 O 0.22460 0.44330 0.00640
O7 O 0.21200 0.44630 0.27720
O8 O 0.21430 0.52450 0.13920
O9 O 0.00930 0.49620 0.75080
loop_
_geom_bond_atom_site_label_1
_geom_bond_atom_site_label_2
_geom_bond_site_symmetry_1
_geom_bond_site_symmetry_2
Cu1 N1 1_555 1_555
N1 C1 1_555 1_555
C1 C2 1_555 1_555
C2 C3 1_555 1_555
C3 C4 1_555 1_555
C4 C5 1_555 1_555
C5 N1 1_555 1_555
S1 C5 1_555 1_555
S2 Cu1 1_555 1_555
C6 S2 1_555 1_555
C7 C6 1_555 1_555
C8 C7 1_555 1_555
C9 C8 1_555 1_555
C10 C9 1_555 1_555
N2 C6 1_555 1_555
N3 Cu1 1_555 1_555
C11 N3 1_555 1_555
C12 C11 1_555 1_555
C13 C12 1_555 1_555
C14 C13 1_555 1_555
C15 N3 1_555 1_555
S3 C15 1_555 1_555
S4 S3 1_555 1_555
C16 S4 1_555 1_555
C17 C16 1_555 1_555
C18 C17 1_555 1_555
C19 C18 1_555 1_555
C20 C19 1_555 1_555
N4 Cu1 1_555 1_555
H1 C1 1_555 1_555
H2 C2 1_555 1_555
H3 C3 1_555 1_555
H4 C4 1_555 1_555
H5 C7 1_555 1_555
H6 C8 1_555 1_555
H7 C9 1_555 1_555
H8 C10 1_555 1_555
H9 C11 1_555 1_555
H10 C12 1_555 1_555
H11 C13 1_555 1_555
H12 C14 1_555 1_555
H13 C17 1_555 1_555
H14 C18 1_555 1_555
H15 C19 1_555 1_555
H16 C20 1_555 1_555
Cu2 N5 1_555 1_555
N5 C21 1_555 1_555
C21 C22 1_555 1_555
C22 C23 1_555 1_555
C23 C24 1_555 1_555
C24 C25 1_555 1_555
C25 N5 1_555 1_555
S5 C25 1_555 1_555
S6 Cu2 1_555 1_555
C26 S6 1_555 1_555
C27 C26 1_555 1_555
C28 C27 1_555 1_555
C29 C28 1_555 1_555
C30 C29 1_555 1_555
N6 C26 1_555 1_555
N7 Cu2 1_555 1_555
C31 N7 1_555 1_555
C32 C31 1_555 1_555
C33 C32 1_555 1_555
C34 C33 1_555 1_555
C35 N7 1_555 1_555
S7 C35 1_555 1_555
S8 S7 1_555 1_555
C36 S8 1_555 1_555
C37 C36 1_555 1_555
C38 C37 1_555 1_555
C39 C38 1_555 1_555
C40 C39 1_555 1_555
N8 C36 1_555 1_555
H17 C21 1_555 1_555
H18 C22 1_555 1_555
H19 C23 1_555 1_555
H20 C24 1_555 1_555
H21 C27 1_555 1_555
H22 C28 1_555 1_555
H23 C29 1_555 1_555
H24 C30 1_555 1_555
H25 C31 1_555 1_555
H26 C32 1_555 1_555
H27 C33 1_555 1_555
H28 C34 1_555 1_555
H29 C37 1_555 1_555
H30 C38 1_555 1_555
H31 C39 1_555 1_555
H32 C40 1_555 1_555
Cl1 O1 1_555 1_555
O2 Cl1 1_555 1_555
O3 Cl1 1_555 1_555
O4 Cl1 1_555 1_555
Cl2 O5 1_555 1_555
O6 Cl2 1_555 1_555
O7 Cl2 1_555 1_555
O8 Cl2 1_555 1_555
N8_2 Cu2 1_555 1_555
Cu2_2 N8 1_555 1_555
S1 S2 1_555 1_555
C10 N2 1_555 1_555
C14 C15 1_555 1_555
C16 N4 1_555 1_555
C20 N4 1_555 1_555
S5 S6 1_555 1_555
C30 N6 1_555 1_555
C34 C35 1_555 1_555
C40 N8 1_555 1_555

#END
