
#######################################################################
#
#                 Cambridge Crystallographic Data Centre
#                                CCDC 
#
#######################################################################
#
# If this CIF has been generated from an entry in the Cambridge 
# Structural Database, then it will include bibliographic, chemical, 
# crystal, experimental, refinement or atomic coordinate data resulting 
# from the CCDC's data processing and validation procedures.
#
#######################################################################

data_PYESCU
_symmetry_cell_setting           monoclinic
_symmetry_space_group_name_H-M   'P 21/c'
_symmetry_Int_Tables_number      14
_space_group_name_Hall           '-P 2ybc'
loop_
_symmetry_equiv_pos_site_id
_symmetry_equiv_pos_as_xyz
1 x,y,z
2 -x,1/2+y,1/2-z
3 -x,-y,-z
4 x,1/2-y,1/2+z
_cell_length_a                   10.408(3)
_cell_length_b                   8.249(2)
_cell_length_c                   20.662(7)
_cell_angle_alpha                90
_cell_angle_beta                 108.99(3)
_cell_angle_gamma                90
_cell_volume                     1677.4
loop_
_atom_site_label
_atom_site_type_symbol
_atom_site_fract_x
_atom_site_fract_y
_atom_site_fract_z
Cl1 Cl 0.68001 0.09543 0.41843
O1 O 0.54981 0.16498 0.41103
O2 O 0.78562 0.21198 0.44771
O3 O 0.68371 0.04820 0.35235
O4 O 0.70415 -0.04153 0.46268
Cu1 Cu 0.10786 0.38480 0.26353
C1 C -0.10912 0.81402 0.08328
C2 C -0.25963 0.83362 0.07478
C3 C -0.29475 0.99253 0.10041
C4 C -0.36546 1.11104 0.05439
C5 C -0.40018 1.25603 0.07815
C6 C -0.36485 1.27941 0.14807
C7 C -0.29308 1.15915 0.19120
C8 C -0.01336 0.43021 0.10273
C9 C -0.00074 0.24528 0.11032
C10 C 0.14017 0.18592 0.14861
C11 C 0.20902 0.08415 0.11750
C12 C 0.33869 0.03061 0.15333
C13 C 0.39776 0.08145 0.22002
C14 C 0.32450 0.18250 0.24839
H1 H -0.10100 0.73800 0.04800
H2 H -0.06800 0.92100 0.07300
H3 H -0.29000 0.74300 0.09400
H4 H -0.31400 0.83000 0.02700
H5 H -0.38600 1.09800 0.00800
H6 H -0.45300 1.33000 0.04600
H7 H -0.39200 1.38700 0.16900
H8 H -0.25900 1.16000 0.24000
H9 H 0.06800 0.48200 0.10200
H10 H -0.08100 0.45600 0.06400
H11 H -0.02900 0.20400 0.06800
H12 H -0.06100 0.20100 0.13100
H13 H 0.16400 0.06000 0.07400
H14 H 0.38200 -0.03800 0.13300
H15 H 0.48400 0.04300 0.25000
H16 H 0.36400 0.21600 0.29500
N1 N 0.19713 0.23352 0.21397
N2 N -0.25565 1.01860 0.16863
S1 S 0.00203 0.75980 0.16876
S2 S -0.05368 0.51955 0.17501
N2A N 0.25565 0.51860 0.33137
S1A S -0.00203 0.25980 0.33124
Cu1A Cu -0.10786 0.88480 0.23647
loop_
_geom_bond_atom_site_label_1
_geom_bond_atom_site_label_2
_geom_bond_site_symmetry_1
_geom_bond_site_symmetry_2
Cl1 O1 1_555 1_555
Cu1 N1 1_555 1_555
C1 C2 1_555 1_555
C2 C3 1_555 1_555
C3 C4 1_555 1_555
C4 C5 1_555 1_555
C5 C6 1_555 1_555
C6 C7 1_555 1_555
C7 H8 1_555 1_555
C8 C9 1_555 1_555
C9 C10 1_555 1_555
C10 C11 1_555 1_555
C11 C12 1_555 1_555
C12 C13 1_555 1_555
C13 C14 1_555 1_555
C14 H16 1_555 1_555
H1 C1 1_555 1_555
H2 C1 1_555 1_555
H3 C2 1_555 1_555
H4 C2 1_555 1_555
H5 C4 1_555 1_555
H6 C5 1_555 1_555
H7 C6 1_555 1_555
H9 C8 1_555 1_555
H10 C8 1_555 1_555
H11 C9 1_555 1_555
H12 C9 1_555 1_555
H13 C11 1_555 1_555
H14 C12 1_555 1_555
H15 C13 1_555 1_555
N1 C10 1_555 1_555
N2 C3 1_555 1_555
O2 Cl1 1_555 1_555
O3 Cl1 1_555 1_555
O4 Cl1 1_555 1_555
S1 C1 1_555 1_555
S2 Cu1 1_555 1_555
N2A Cu1 1_555 1_555
S1A Cu1 1_555 1_555
Cu1A N2 1_555 1_555
C7 N2 1_555 1_555
C8 S2 1_555 1_555
C14 N1 1_555 1_555
S1 S2 1_555 1_555
S1 Cu1A 1_555 1_555

#END
