
#######################################################################
#
#                 Cambridge Crystallographic Data Centre
#                                CCDC 
#
#######################################################################
#
# If this CIF has been generated from an entry in the Cambridge 
# Structural Database, then it will include bibliographic, chemical, 
# crystal, experimental, refinement or atomic coordinate data resulting 
# from the CCDC's data processing and validation procedures.
#
#######################################################################

data_PYHGAC10
_symmetry_cell_setting           monoclinic
_symmetry_space_group_name_H-M   'P 21/n'
_symmetry_Int_Tables_number      14
_space_group_name_Hall           '-P 2yn'
loop_
_symmetry_equiv_pos_site_id
_symmetry_equiv_pos_as_xyz
1 x,y,z
2 1/2-x,1/2+y,1/2-z
3 -x,-y,-z
4 1/2+x,1/2-y,1/2+z
_cell_length_a                   10.073(3)
_cell_length_b                   7.027(2)
_cell_length_c                   16.377(4)
_cell_angle_alpha                90
_cell_angle_beta                 103.21(3)
_cell_angle_gamma                90
_cell_volume                     1128.54
loop_
_atom_site_label
_atom_site_type_symbol
_atom_site_fract_x
_atom_site_fract_y
_atom_site_fract_z
Hg1 Hg 0.30210 0.41420 0.21310
O1 O 0.54930 0.49680 0.18020
O2 O 0.48220 0.53290 0.29600
O3 O 0.11830 0.55550 0.27500
O4 O 0.22960 0.30660 0.33730
C1 C 0.70560 0.61780 0.29620
C2 C 0.57140 0.54580 0.25320
C3 C 0.09350 0.27490 0.05590
C4 C 0.03910 0.25720 -0.03320
C5 C 0.10570 0.32800 -0.08840
C6 C 0.23570 0.41490 -0.05840
C7 C 0.28790 0.43450 0.02700
C8 C 0.14410 0.44160 0.33310
C9 C 0.06930 0.45790 0.40540
N1 N 0.21500 0.36060 0.08090
O3A O 0.38170 0.05550 0.22500
Hg1A Hg 0.19790 0.91420 0.28690
O1A O -0.04930 0.99680 0.31980
O2A O 0.01780 1.03290 0.20400
O3A_2 O 0.38170 1.05550 0.22500
O4A O 0.27040 0.80660 0.16270
N1A N 0.28500 0.86060 0.41910
C2A C -0.07140 1.04580 0.24680
C8A C 0.35590 0.94160 0.16690
C3A C 0.40650 0.77490 0.44410
C7A C 0.21210 0.93450 0.47300
C1A C -0.20560 1.11780 0.20380
C4A C 0.46090 0.75720 0.53320
C6A C 0.26430 0.91490 0.55840
C5A C 0.39430 0.82800 0.58840
Hg1_2 Hg 0.30210 1.41420 0.21310
C9A C 0.43070 0.95790 0.09460
loop_
_geom_bond_atom_site_label_1
_geom_bond_atom_site_label_2
_geom_bond_site_symmetry_1
_geom_bond_site_symmetry_2
Hg1 O1 1_555 1_555
O1 C2 1_555 1_555
O2 Hg1 1_555 1_555
O3 Hg1 1_555 1_555
O4 Hg1 1_555 1_555
C1 C2 1_555 1_555
C2 O2 1_555 1_555
C3 C4 1_555 1_555
C4 C5 1_555 1_555
C5 C6 1_555 1_555
C6 C7 1_555 1_555
C7 N1 1_555 1_555
C8 O3 1_555 1_555
C9 C8 1_555 1_555
N1 Hg1 1_555 1_555
O3A Hg1 1_555 1_555
Hg1A O3 1_555 1_555
O1A Hg1A 1_555 1_555
O2A Hg1A 1_555 1_555
O3A_2 Hg1A 1_555 1_555
O4A Hg1A 1_555 1_555
N1A Hg1A 1_555 1_555
C2A O1A 1_555 1_555
C8A O3A_2 1_555 1_555
C3A N1A 1_555 1_555
C7A N1A 1_555 1_555
C1A C2A 1_555 1_555
C4A C3A 1_555 1_555
C6A C7A 1_555 1_555
C5A C4A 1_555 1_555
Hg1_2 O3A_2 1_555 1_555
C9A C8A 1_555 1_555
O4 C8 1_555 1_555
C3 N1 1_555 1_555
O2A C2A 1_555 1_555
O4A C8A 1_555 1_555
C6A C5A 1_555 1_555

#END
