
#######################################################################
#
#                 Cambridge Crystallographic Data Centre
#                                CCDC 
#
#######################################################################
#
# If this CIF has been generated from an entry in the Cambridge 
# Structural Database, then it will include bibliographic, chemical, 
# crystal, experimental, refinement or atomic coordinate data resulting 
# from the CCDC's data processing and validation procedures.
#
#######################################################################

data_PYMICU
_symmetry_cell_setting           triclinic
_symmetry_space_group_name_H-M   'P -1'
_symmetry_Int_Tables_number      2
_space_group_name_Hall           '-P 1'
loop_
_symmetry_equiv_pos_site_id
_symmetry_equiv_pos_as_xyz
1 x,y,z
2 -x,-y,-z
_cell_length_a                   7.75(2)
_cell_length_b                   9.81(2)
_cell_length_c                   14.63(1)
_cell_angle_alpha                74.50(5)
_cell_angle_beta                 80.15(5)
_cell_angle_gamma                87.77(5)
_cell_volume                     1056
loop_
_atom_site_label
_atom_site_type_symbol
_atom_site_fract_x
_atom_site_fract_y
_atom_site_fract_z
Cu1 Cu 0.15060 -0.03400 0.27230
Cl1 Cl 0.08950 0.16590 0.33250
Cl2 Cl 0.34350 -0.08460 0.14390
N1 N 1.00500 -0.24300 0.34940
N2 N 0.56900 -0.13200 0.42000
N3 N 0.32300 -0.09600 0.35970
N4 N -0.34000 0.44700 0.11350
N5 N -0.24700 0.12100 0.11410
N6 N -0.03500 0.01600 0.19200
C1 C 0.83900 -0.26200 0.39200
C2 C 0.76000 -0.39000 0.40900
C3 C 0.85400 -0.50000 0.38300
C4 C 1.02400 -0.48100 0.33700
C5 C 1.10100 -0.35000 0.32000
C6 C 0.75700 -0.14100 0.42000
C7 C 0.49500 -0.09400 0.33700
C8 C 0.28100 -0.13600 0.45800
C9 C 0.43300 -0.15900 0.49700
C10 C -0.31700 0.37500 0.05000
C11 C -0.24300 0.43500 -0.04600
C12 C -0.19100 0.57600 -0.07100
C13 C -0.21300 0.65100 -0.01600
C14 C -0.28800 0.58500 0.08500
C15 C -0.38700 0.22300 0.08600
C16 C -0.13900 0.12800 0.17900
C17 C -0.08200 -0.06400 0.13600
C18 C -0.21300 0.00000 0.09100
H1 H 0.63400 -0.40400 0.44000
H2 H 0.79700 -0.59500 0.40100
H3 H 1.08500 -0.56000 0.31400
H4 H 1.22700 -0.33800 0.28800
H5 H 0.81500 -0.05400 0.37300
H6 H 0.78000 -0.14500 0.48600
H7 H 0.56500 -0.06800 0.26900
H8 H 0.15800 -0.14800 0.49700
H9 H 0.44100 -0.18900 0.56800
H10 H -0.22700 0.37900 -0.09500
H11 H -0.13400 0.61700 -0.13900
H12 H -0.17900 0.75400 -0.04000
H13 H -0.29900 0.64600 0.13200
H14 H -0.44000 0.19800 0.03400
H15 H -0.48200 0.21700 0.14300
H16 H -0.13900 0.20800 0.21200
H17 H -0.02500 -0.15700 0.13000
H18 H -0.27300 -0.03900 0.04700
N1_2 N 0.00500 -0.24300 0.34940
Cu1_2 Cu 1.15060 -0.03400 0.27230
O1 O 0.54800 0.66100 0.69800
loop_
_geom_bond_atom_site_label_1
_geom_bond_atom_site_label_2
_geom_bond_site_symmetry_1
_geom_bond_site_symmetry_2
Cu1 Cl1 1_555 1_555
Cl2 Cu1 1_555 1_555
N1 C1 1_555 1_555
N2 C6 1_555 1_555
N3 Cu1 1_555 1_555
N4 C10 1_555 1_555
N5 C15 1_555 1_555
N6 Cu1 1_555 1_555
C1 C2 1_555 1_555
C2 C3 1_555 1_555
C3 C4 1_555 1_555
C4 C5 1_555 1_555
C5 N1 1_555 1_555
C6 C1 1_555 1_555
C7 N2 1_555 1_555
C8 N3 1_555 1_555
C9 N2 1_555 1_555
C10 C11 1_555 1_555
C11 C12 1_555 1_555
C12 C13 1_555 1_555
C13 C14 1_555 1_555
C14 N4 1_555 1_555
C15 C10 1_555 1_555
C16 N5 1_555 1_555
C17 N6 1_555 1_555
C18 N5 1_555 1_555
H1 C2 1_555 1_555
H2 C3 1_555 1_555
H3 C4 1_555 1_555
H4 C5 1_555 1_555
H5 C6 1_555 1_555
H6 C6 1_555 1_555
H7 C7 1_555 1_555
H8 C8 1_555 1_555
H9 C9 1_555 1_555
H10 C11 1_555 1_555
H11 C12 1_555 1_555
H12 C13 1_555 1_555
H13 C14 1_555 1_555
H14 C15 1_555 1_555
H15 C15 1_555 1_555
H16 C16 1_555 1_555
H17 C17 1_555 1_555
H18 C18 1_555 1_555
N1_2 Cu1 1_555 1_555
Cu1_2 N1 1_555 1_555
N3 C7 1_555 1_555
N6 C16 1_555 1_555
C8 C9 1_555 1_555
C17 C18 1_555 1_555

#END
