
#######################################################################
#
#                 Cambridge Crystallographic Data Centre
#                                CCDC 
#
#######################################################################
#
# If this CIF has been generated from an entry in the Cambridge 
# Structural Database, then it will include bibliographic, chemical, 
# crystal, experimental, refinement or atomic coordinate data resulting 
# from the CCDC's data processing and validation procedures.
#
#######################################################################

data_PYNICL01
_symmetry_cell_setting           monoclinic
_symmetry_space_group_name_H-M   'P 2/c'
_symmetry_Int_Tables_number      13
_space_group_name_Hall           '-P 2yc'
loop_
_symmetry_equiv_pos_site_id
_symmetry_equiv_pos_as_xyz
1 x,y,z
2 -x,y,1/2-z
3 -x,-y,-z
4 x,-y,1/2+z
_cell_length_a                   19.2483(4)
_cell_length_b                   3.62535(4)
_cell_length_c                   17.3504(2)
_cell_angle_alpha                90
_cell_angle_beta                 116.883(2)
_cell_angle_gamma                90
_cell_volume                     1079.9
loop_
_atom_site_label
_atom_site_type_symbol
_atom_site_fract_x
_atom_site_fract_y
_atom_site_fract_z
N1 N 0.08340(13) 0.5786(4) 0.19907(14)
Ni1 Ni 0.00000 0.5639(4) 0.25000
C1 C 0.15787(11) 0.4942(5) 0.25223(11)
C2 C 0.06141(11) 0.6731(5) 0.11471(12)
Cl1 Cl -0.07443(14) 0.0643(6) 0.14865(16)
H1 H 0.1719(7) 0.428(3) 0.3113(6)
C3 C 0.21450(11) 0.5012(4) 0.22198(12)
C4 C 0.11707(11) 0.6807(5) 0.08359(12)
H2 H 0.0088(6) 0.737(4) 0.0767(7)
H3 H 0.2662(6) 0.443(3) 0.2583(7)
C5 C 0.19366(11) 0.5934(5) 0.13910(12)
H4 H 0.1030(5) 0.740(4) 0.0275(7)
H5 H 0.2309(6) 0.599(4) 0.1200(7)
N1A N -0.08340(13) 0.5786(4) 0.30093(14)
Ni1_2 Ni 0.00000 -0.4361(4) 0.25000
C1A C -0.15787(11) 0.4942(5) 0.24777(11)
C2A C -0.06141(11) 0.6731(5) 0.38529(12)
Cl1_2 Cl -0.07443(14) 1.0643(6) 0.14865(16)
Cl1A Cl 0.07443(14) 0.0643(6) 0.35135(16)
Cl1A_2 Cl 0.07443(14) 1.0643(6) 0.35135(16)
H1A H -0.1719(7) 0.428(3) 0.1887(6)
C3A C -0.21450(11) 0.5012(4) 0.27802(12)
C4A C -0.11707(11) 0.6807(5) 0.41641(12)
H2A H -0.0088(6) 0.737(4) 0.4233(7)
H3A H -0.2662(6) 0.443(3) 0.2417(7)
C5A C -0.19366(11) 0.5934(5) 0.36090(12)
H4A H -0.1030(5) 0.740(4) 0.4725(7)
H5A H -0.2309(6) 0.599(4) 0.3800(7)
N2 N 0.58174(12) 0.1488(4) 0.37857(14)
Ni2 Ni 0.50000 0.1713(5) 0.25000
C6 C 0.55807(11) 0.1700(5) 0.44079(12)
C7 C 0.65861(11) 0.1073(5) 0.39945(12)
Cl2 Cl 0.42724(14) -0.3350(5) 0.27908(17)
H6 H 0.5032(6) 0.202(4) 0.4254(6)
C8 C 0.61220(10) 0.1492(5) 0.52776(12)
C9 C 0.71442(11) 0.0859(5) 0.48673(12)
H7 H 0.6734(6) 0.098(4) 0.3546(7)
H8 H 0.5945(6) 0.162(4) 0.5697(7)
C10 C 0.68985(11) 0.1072(5) 0.55017(12)
H9 H 0.7656(6) 0.057(4) 0.5017(7)
H10 H 0.7259(6) 0.097(4) 0.6068(7)
N2A N 0.41826(12) 0.1488(4) 0.12143(14)
Ni2_2 Ni 0.50000 -0.8287(5) 0.25000
C6A C 0.44193(11) 0.1700(5) 0.05921(12)
C7A C 0.34139(11) 0.1073(5) 0.10055(12)
Cl2_2 Cl 0.42724(14) 0.6650(5) 0.27908(17)
Cl2A Cl 0.57276(14) -0.3350(5) 0.22092(17)
Cl2A_2 Cl 0.57276(14) 0.6650(5) 0.22092(17)
H6A H 0.4968(6) 0.202(4) 0.0746(6)
C8A C 0.38780(10) 0.1492(5) -0.02776(12)
C9A C 0.28558(11) 0.0859(5) 0.01327(12)
H7A H 0.3266(6) 0.098(4) 0.1454(7)
H8A H 0.4055(6) 0.162(4) -0.0697(7)
C10A C 0.31015(11) 0.1072(5) -0.05017(12)
H9A H 0.2344(6) 0.057(4) -0.0017(7)
H10A H 0.2741(6) 0.097(4) -0.1068(7)
loop_
_geom_bond_atom_site_label_1
_geom_bond_atom_site_label_2
_geom_bond_site_symmetry_1
_geom_bond_site_symmetry_2
N1 Ni1 1_555 1_555
Ni1 Cl1 1_555 1_555
C1 N1 1_555 1_555
C2 N1 1_555 1_555
Cl1 Ni1_2 1_555 1_555
H1 C1 1_555 1_555
C3 C1 1_555 1_555
C4 C2 1_555 1_555
H2 C2 1_555 1_555
H3 C3 1_555 1_555
C5 C3 1_555 1_555
H4 C4 1_555 1_555
H5 C5 1_555 1_555
N2 Ni2 1_555 1_555
Ni2 Cl2 1_555 1_555
C6 N2 1_555 1_555
C7 N2 1_555 1_555
Cl2 Ni2_2 1_555 1_555
H6 C6 1_555 1_555
C8 C6 1_555 1_555
C9 C7 1_555 1_555
H7 C7 1_555 1_555
H8 C8 1_555 1_555
C10 C8 1_555 1_555
H9 C9 1_555 1_555
H10 C10 1_555 1_555
N1A Ni1 1_555 1_555
Ni1_2 Cl1A 1_555 1_555
C1A N1A 1_555 1_555
C2A N1A 1_555 1_555
Cl1_2 Ni1 1_555 1_555
Cl1A Ni1 1_555 1_555
Cl1A_2 Ni1 1_555 1_555
H1A C1A 1_555 1_555
C3A C1A 1_555 1_555
C4A C2A 1_555 1_555
H2A C2A 1_555 1_555
H3A C3A 1_555 1_555
C5A C3A 1_555 1_555
H4A C4A 1_555 1_555
H5A C5A 1_555 1_555
N2A Ni2 1_555 1_555
Ni2_2 Cl2A 1_555 1_555
C6A N2A 1_555 1_555
C7A N2A 1_555 1_555
Cl2_2 Ni2 1_555 1_555
Cl2A Ni2 1_555 1_555
Cl2A_2 Ni2 1_555 1_555
H6A C6A 1_555 1_555
C8A C6A 1_555 1_555
C9A C7A 1_555 1_555
H7A C7A 1_555 1_555
H8A C8A 1_555 1_555
C10A C8A 1_555 1_555
H9A C9A 1_555 1_555
H10A C10A 1_555 1_555
C4 C5 1_555 1_555
C9 C10 1_555 1_555
C4A C5A 1_555 1_555
C9A C10A 1_555 1_555

#END
