
#######################################################################
#
#                 Cambridge Crystallographic Data Centre
#                                CCDC 
#
#######################################################################
#
# If this CIF has been generated from an entry in the Cambridge 
# Structural Database, then it will include bibliographic, chemical, 
# crystal, experimental, refinement or atomic coordinate data resulting 
# from the CCDC's data processing and validation procedures.
#
#######################################################################

data_PYNOHG
_symmetry_cell_setting           triclinic
_symmetry_space_group_name_H-M   'P -1'
_symmetry_Int_Tables_number      2
_space_group_name_Hall           '-P 1'
loop_
_symmetry_equiv_pos_site_id
_symmetry_equiv_pos_as_xyz
1 x,y,z
2 -x,-y,-z
_cell_length_a                   7.060(9)
_cell_length_b                   10.132(13)
_cell_length_c                   6.890(9)
_cell_angle_alpha                105.28(4)
_cell_angle_beta                 117.04(5)
_cell_angle_gamma                75.35(6)
_cell_volume                     418.35
loop_
_atom_site_label
_atom_site_type_symbol
_atom_site_fract_x
_atom_site_fract_y
_atom_site_fract_z
Cl1 Cl -0.35300 -0.17950 0.45670
Cl2 Cl -0.05400 0.19650 0.94830
C1 C 0.49100 -0.22300 0.85200
C2 C 0.58400 -0.35800 0.90000
C3 C 0.49100 -0.47300 0.76000
C4 C 0.29100 -0.45900 0.58900
C5 C 0.19200 -0.32000 0.55900
Hg1 Hg -0.17520 0.00670 0.67230
H1 H 0.56800 -0.13400 0.95200
H2 H 0.74000 -0.37300 1.03500
H3 H 0.57200 -0.57700 0.78400
H4 H 0.21700 -0.54900 0.48900
H5 H 0.03500 -0.30500 0.42300
N1 N 0.28800 -0.21000 0.69600
O1 O 0.19700 -0.09200 0.66100
Hg1A Hg -0.82480 -0.00670 0.32770
Cl1A Cl -0.64700 0.17950 0.54330
O1A O -0.19700 0.09200 0.33900
Hg1A_2 Hg 0.17520 -0.00670 0.32770
Cl2A Cl -0.94600 -0.19650 0.05170
O1_2 O -0.80300 -0.09200 0.66100
O1A_2 O -1.19700 0.09200 0.33900
N1A N -0.28800 0.21000 0.30400
C1A C -0.49100 0.22300 0.14800
C5A C -0.19200 0.32000 0.44100
C2A C -0.58400 0.35800 0.10000
H1A H -0.56800 0.13400 0.04800
C4A C -0.29100 0.45900 0.41100
H5A H -0.03500 0.30500 0.57700
C3A C -0.49100 0.47300 0.24000
H2A H -0.74000 0.37300 -0.03500
H4A H -0.21700 0.54900 0.51100
H3A H -0.57200 0.57700 0.21600
loop_
_geom_bond_atom_site_label_1
_geom_bond_atom_site_label_2
_geom_bond_site_symmetry_1
_geom_bond_site_symmetry_2
Cl1 Hg1 1_555 1_555
Cl2 Hg1 1_555 1_555
C1 C2 1_555 1_555
C2 C3 1_555 1_555
C3 C4 1_555 1_555
C4 C5 1_555 1_555
C5 H5 1_555 1_555
Hg1 O1 1_555 1_555
H1 C1 1_555 1_555
H2 C2 1_555 1_555
H3 C3 1_555 1_555
H4 C4 1_555 1_555
N1 C1 1_555 1_555
O1 N1 1_555 1_555
Hg1A Cl1 1_555 1_555
Cl1A Hg1 1_555 1_555
O1A Hg1 1_555 1_555
Hg1A_2 O1 1_555 1_555
Cl2A Hg1A 1_555 1_555
O1_2 Hg1A 1_555 1_555
O1A_2 Hg1A 1_555 1_555
N1A O1A 1_555 1_555
C1A N1A 1_555 1_555
C5A N1A 1_555 1_555
C2A C1A 1_555 1_555
H1A C1A 1_555 1_555
C4A C5A 1_555 1_555
H5A C5A 1_555 1_555
C3A C2A 1_555 1_555
H2A C2A 1_555 1_555
H4A C4A 1_555 1_555
H3A C3A 1_555 1_555
C5 N1 1_555 1_555
Hg1A Cl1A 1_555 1_555
O1A Hg1A_2 1_555 1_555
C4A C3A 1_555 1_555

#END
