
#######################################################################
#
#                 Cambridge Crystallographic Data Centre
#                                CCDC 
#
#######################################################################
#
# If this CIF has been generated from an entry in the Cambridge 
# Structural Database, then it will include bibliographic, chemical, 
# crystal, experimental, refinement or atomic coordinate data resulting 
# from the CCDC's data processing and validation procedures.
#
#######################################################################

data_PYNOCD
_symmetry_cell_setting           monoclinic
_symmetry_space_group_name_H-M   'P 21/a'
_symmetry_Int_Tables_number      14
_space_group_name_Hall           '-P 2yab'
loop_
_symmetry_equiv_pos_site_id
_symmetry_equiv_pos_as_xyz
1 x,y,z
2 1/2-x,1/2+y,-z
3 -x,-y,-z
4 1/2+x,1/2-y,z
_cell_length_a                   13.337(6)
_cell_length_b                   7.002(4)
_cell_length_c                   11.153(4)
_cell_angle_alpha                90
_cell_angle_beta                 107.87(4)
_cell_angle_gamma                90
_cell_volume                     991.282
loop_
_atom_site_label
_atom_site_type_symbol
_atom_site_fract_x
_atom_site_fract_y
_atom_site_fract_z
Cd1 Cd 0.05170 0.25260 0.07550
C1 C -0.09800 0.56200 0.25200
C2 C -0.10400 0.62700 0.37000
C3 C -0.02100 0.72600 0.44600
C4 C 0.04900 0.79800 0.38900
C5 C 0.06500 0.72700 0.27900
H1 H -0.15700 0.46700 0.19700
H2 H -0.16800 0.58900 0.40500
H3 H -0.01900 0.76900 0.53900
H4 H 0.10900 0.89300 0.44500
H5 H 0.12900 0.76500 0.24400
I1 I 0.14020 -0.05520 -0.04410
I2 I 0.19130 0.28070 0.31150
N1 N -0.02400 0.61400 0.20300
O1 O -0.03000 0.55000 0.09300
I1B I -0.14020 0.05520 0.04410
O1B O 0.03000 0.45000 -0.09300
Cd1B Cd -0.05170 -0.25260 -0.07550
Cd1B_2 Cd -0.05170 0.74740 -0.07550
N1B N 0.02400 0.38600 -0.20300
C1B C 0.09800 0.43800 -0.25200
C5B C -0.06500 0.27300 -0.27900
C2B C 0.10400 0.37300 -0.37000
H1B H 0.15700 0.53300 -0.19700
C4B C -0.04900 0.20200 -0.38900
H5B H -0.12900 0.23500 -0.24400
C3B C 0.02100 0.27400 -0.44600
H2B H 0.16800 0.41100 -0.40500
H4B H -0.10900 0.10700 -0.44500
H3B H 0.01900 0.23100 -0.53900
I1_2 I 0.14020 0.94480 -0.04410
I1B_2 I -0.14020 1.05520 0.04410
I2B I -0.19130 0.71930 -0.31150
loop_
_geom_bond_atom_site_label_1
_geom_bond_atom_site_label_2
_geom_bond_site_symmetry_1
_geom_bond_site_symmetry_2
Cd1 I1 1_555 1_555
C1 C2 1_555 1_555
C2 C3 1_555 1_555
C3 C4 1_555 1_555
C4 C5 1_555 1_555
C5 H5 1_555 1_555
H1 C1 1_555 1_555
H2 C2 1_555 1_555
H3 C3 1_555 1_555
H4 C4 1_555 1_555
I1 Cd1B 1_555 1_555
I2 Cd1 1_555 1_555
N1 C1 1_555 1_555
O1 Cd1 1_555 1_555
I1B Cd1 1_555 1_555
O1B Cd1 1_555 1_555
Cd1B I1B 1_555 1_555
Cd1B_2 O1 1_555 1_555
N1B O1B 1_555 1_555
C1B N1B 1_555 1_555
C5B N1B 1_555 1_555
C2B C1B 1_555 1_555
H1B C1B 1_555 1_555
C4B C5B 1_555 1_555
H5B C5B 1_555 1_555
C3B C2B 1_555 1_555
H2B C2B 1_555 1_555
H4B C4B 1_555 1_555
H3B C3B 1_555 1_555
I1_2 Cd1B_2 1_555 1_555
I1B_2 Cd1B_2 1_555 1_555
I2B Cd1B_2 1_555 1_555
C5 N1 1_555 1_555
N1 O1 1_555 1_555
O1B Cd1B_2 1_555 1_555
C4B C3B 1_555 1_555

#END
