
#######################################################################
#
#                 Cambridge Crystallographic Data Centre
#                                CCDC 
#
#######################################################################
#
# If this CIF has been generated from an entry in the Cambridge 
# Structural Database, then it will include bibliographic, chemical, 
# crystal, experimental, refinement or atomic coordinate data resulting 
# from the CCDC's data processing and validation procedures.
#
#######################################################################

data_PYOHGP
_symmetry_cell_setting           triclinic
_symmetry_space_group_name_H-M   'P -1'
_symmetry_Int_Tables_number      2
_space_group_name_Hall           '-P 1'
loop_
_symmetry_equiv_pos_site_id
_symmetry_equiv_pos_as_xyz
1 x,y,z
2 -x,-y,-z
_cell_length_a                   8.68(1)
_cell_length_b                   12.76(2)
_cell_length_c                   14.0(2)
_cell_angle_alpha                115.2(1)
_cell_angle_beta                 85.8(1)
_cell_angle_gamma                97.5(1)
_cell_volume                     1390.75
loop_
_atom_site_label
_atom_site_type_symbol
_atom_site_fract_x
_atom_site_fract_y
_atom_site_fract_z
Cl2 Cl 0.20200 0.35900 0.39000
O7 O 0.14800 0.26600 0.40700
O8 O 0.34000 0.41700 0.43400
O9 O 0.10700 0.42300 0.39200
O10 O 0.27200 0.30500 0.30200
C1 C 0.34400 -0.07100 0.68100
C2 C 0.41900 -0.10400 0.74400
C3 C 0.40200 -0.21900 0.72400
C4 C 0.30700 -0.31200 0.64200
C5 C 0.22800 -0.25900 0.58800
C6 C 0.46500 0.28400 0.57600
C7 C 0.48200 0.41300 0.64100
C8 C 0.52800 0.45700 0.74400
C9 C 0.57400 0.39100 0.78900
C10 C 0.56600 0.25700 0.71600
C11 C 0.05000 0.29600 0.65500
C12 C 0.00700 0.40700 0.70500
C13 C 0.07100 0.48400 0.80900
C14 C 0.15300 0.43500 0.86900
C15 C 0.16100 0.30500 0.80500
C16 C -0.20600 -0.03700 0.87600
C17 C -0.27000 -0.07700 0.95600
C18 C -0.20700 -0.16800 0.96900
C19 C -0.04900 -0.18100 0.94100
C20 C 0.02900 -0.13300 0.87600
Hg1 Hg -0.07170 -0.01360 0.65220
Hg2 Hg 0.27560 0.01750 0.46900
N1 N 0.24800 -0.14500 0.60800
N2 N 0.50700 0.23100 0.62400
N3 N 0.11600 0.24700 0.71300
N4 N -0.05100 -0.06400 0.84600
O1 O 0.16400 -0.11200 0.54900
O6 O 0.50200 0.10900 0.56400
O11 O 0.15400 0.14000 0.67000
O12 O 0.03400 -0.00400 0.79400
Hg2A Hg -0.27560 -0.01750 0.53100
Hg1A Hg 0.07170 0.01360 0.34780
O6A O 0.49800 -0.10900 0.43600
Hg2A_2 Hg 0.72440 -0.01750 0.53100
O1A O -0.16400 0.11200 0.45100
O6_2 O -0.49800 0.10900 0.56400
O6A_2 O -0.50200 -0.10900 0.43600
O11A O -0.15400 -0.14000 0.33000
O12A O -0.03400 0.00400 0.20600
N2A N 0.49300 -0.23100 0.37600
N1A N -0.24800 0.14500 0.39200
N3A N -0.11600 -0.24700 0.28700
N4A N 0.05100 0.06400 0.15400
C6A C 0.53500 -0.28400 0.42400
C10A C 0.43400 -0.25700 0.28400
C1A C -0.34400 0.07100 0.31900
C5A C -0.22800 0.25900 0.41200
C11A C -0.05000 -0.29600 0.34500
C15A C -0.16100 -0.30500 0.19500
C16A C 0.20600 0.03700 0.12400
C20A C -0.02900 0.13300 0.12400
C7A C 0.51800 -0.41300 0.35900
C9A C 0.42600 -0.39100 0.21100
C2A C -0.41900 0.10400 0.25600
C4A C -0.30700 0.31200 0.35800
C12A C -0.00700 -0.40700 0.29500
C14A C -0.15300 -0.43500 0.13100
C17A C 0.27000 0.07700 0.04400
C19A C 0.04900 0.18100 0.05900
C8A C 0.47200 -0.45700 0.25600
C3A C -0.40200 0.21900 0.27600
C13A C -0.07100 -0.48400 0.19100
C18A C 0.20700 0.16800 0.03100
Cl1 Cl 0.35500 -0.25300 0.02900
O2 O 0.21200 -0.27900 0.07200
O3 O 0.32500 -0.22700 -0.05900
O4 O 0.43600 -0.15200 0.11000
O5 O 0.45400 -0.33000 -0.00100
loop_
_geom_bond_atom_site_label_1
_geom_bond_atom_site_label_2
_geom_bond_site_symmetry_1
_geom_bond_site_symmetry_2
Cl1 O2 1_555 1_555
Cl2 O7 1_555 1_555
C1 C2 1_555 1_555
C2 C3 1_555 1_555
C3 C4 1_555 1_555
C4 C5 1_555 1_555
C5 N1 1_555 1_555
C6 C7 1_555 1_555
C7 C8 1_555 1_555
C8 C9 1_555 1_555
C9 C10 1_555 1_555
C10 N2 1_555 1_555
C11 C12 1_555 1_555
C12 C13 1_555 1_555
C13 C14 1_555 1_555
C14 C15 1_555 1_555
C15 N3 1_555 1_555
C16 C17 1_555 1_555
C17 C18 1_555 1_555
C18 C19 1_555 1_555
C19 C20 1_555 1_555
C20 N4 1_555 1_555
Hg1 O1 1_555 1_555
Hg2 O1 1_555 1_555
N1 C1 1_555 1_555
N2 C6 1_555 1_555
N3 C11 1_555 1_555
N4 C16 1_555 1_555
O1 N1 1_555 1_555
O3 Cl1 1_555 1_555
O4 Cl1 1_555 1_555
O5 Cl1 1_555 1_555
O6 Hg2 1_555 1_555
O8 Cl2 1_555 1_555
O9 Cl2 1_555 1_555
O10 Cl2 1_555 1_555
O11 Hg1 1_555 1_555
O12 Hg1 1_555 1_555
Hg2A Hg1 1_555 1_555
Hg1A Hg2 1_555 1_555
O6A Hg2 1_555 1_555
Hg2A_2 O6 1_555 1_555
O1A Hg2A 1_555 1_555
O6_2 Hg2A 1_555 1_555
O6A_2 Hg2A 1_555 1_555
O11A Hg2A 1_555 1_555
O12A Hg1A 1_555 1_555
N2A O6A 1_555 1_555
N1A O1A 1_555 1_555
N3A O11A 1_555 1_555
N4A O12A 1_555 1_555
C6A N2A 1_555 1_555
C10A N2A 1_555 1_555
C1A N1A 1_555 1_555
C5A N1A 1_555 1_555
C11A N3A 1_555 1_555
C15A N3A 1_555 1_555
C16A N4A 1_555 1_555
C20A N4A 1_555 1_555
C7A C6A 1_555 1_555
C9A C10A 1_555 1_555
C2A C1A 1_555 1_555
C4A C5A 1_555 1_555
C12A C11A 1_555 1_555
C14A C15A 1_555 1_555
C17A C16A 1_555 1_555
C19A C20A 1_555 1_555
C8A C7A 1_555 1_555
C3A C2A 1_555 1_555
C13A C12A 1_555 1_555
C18A C17A 1_555 1_555
Hg2 O11 1_555 1_555
N2 O6 1_555 1_555
N3 O11 1_555 1_555
N4 O12 1_555 1_555
O8 O10 1_555 1_555
Hg1A O1A 1_555 1_555
Hg1A O11A 1_555 1_555
O6A Hg2A_2 1_555 1_555
C9A C8A 1_555 1_555
C4A C3A 1_555 1_555
C14A C13A 1_555 1_555
C19A C18A 1_555 1_555

#END
