
#######################################################################
#
#                 Cambridge Crystallographic Data Centre
#                                CCDC 
#
#######################################################################
#
# If this CIF has been generated from an entry in the Cambridge 
# Structural Database, then it will include bibliographic, chemical, 
# crystal, experimental, refinement or atomic coordinate data resulting 
# from the CCDC's data processing and validation procedures.
#
#######################################################################

data_PYRCOC01
_symmetry_cell_setting           monoclinic
_symmetry_space_group_name_H-M   'C 1 1 2/b'
_symmetry_Int_Tables_number      13
_space_group_name_Hall           '-C 2a'
loop_
_symmetry_equiv_pos_site_id
_symmetry_equiv_pos_as_xyz
1 x,y,z
2 1/2+x,1/2+y,z
3 -x,1/2-y,z
4 1/2-x,-y,z
5 -x,-y,-z
6 1/2-x,1/2-y,-z
7 x,1/2+y,-z
8 1/2+x,y,-z
_cell_length_a                   34.486(3)
_cell_length_b                   17.408(2)
_cell_length_c                   3.6635(6)
_cell_angle_alpha                90
_cell_angle_beta                 90
_cell_angle_gamma                90.121(6)
_cell_volume                     2199.31
loop_
_atom_site_label
_atom_site_type_symbol
_atom_site_fract_x
_atom_site_fract_y
_atom_site_fract_z
Cl1 Cl 0.03694 0.18497 0.65286
Co1 Co 0.00000 0.25000 0.15965
C1 C 0.07860 0.32880 0.12240
C2 C 0.10720 0.38400 0.07290
C3 C 0.09430 0.46110 0.12820
C4 C 0.05770 0.47720 0.13910
C5 C 0.03110 0.41550 0.18840
H1 H 0.08800 0.26900 0.07200
H2 H 0.13900 0.37200 0.04800
H3 H 0.11600 0.50900 0.11000
H4 H 0.04800 0.53500 0.18800
H5 H 0.00000 0.42700 0.20800
N1 N 0.04200 0.33840 0.13490
Co1_2 Co 0.00000 0.25000 1.15965
N1B N -0.04200 0.16160 0.13490
Cl1_2 Cl 0.03694 0.18497 -0.34714
Cl1B Cl -0.03694 0.31503 0.65286
Cl1B_2 Cl -0.03694 0.31503 -0.34714
C1B C -0.07860 0.17120 0.12240
C5B C -0.03110 0.08450 0.18840
C2B C -0.10720 0.11600 0.07290
H1B H -0.08800 0.23100 0.07200
C4B C -0.05770 0.02280 0.13910
H5B H 0.00000 0.07300 0.20800
C3B C -0.09430 0.03890 0.12820
H2B H -0.13900 0.12800 0.04800
H4B H -0.04800 -0.03500 0.18800
H3B H -0.11600 -0.00900 0.11000
Cl2 Cl 0.21279 -0.06497 0.05751
Co2 Co 0.25000 0.00000 -0.44307
C6 C 0.32810 -0.07710 -0.50920
C7 C 0.35670 -0.13510 -0.50920
C8 C 0.34680 -0.20900 -0.42020
C9 C 0.30910 -0.22390 -0.36780
C10 C 0.28200 -0.16450 -0.36150
H6 H 0.33800 -0.02000 -0.55800
H7 H 0.38700 -0.11900 -0.55700
H8 H 0.36700 -0.25900 -0.42100
H9 H 0.29800 -0.28100 -0.30100
H10 H 0.25200 -0.17800 -0.30900
N2 N 0.29200 -0.09310 -0.43040
Co2_2 Co 0.25000 0.00000 0.55693
N2C N 0.20800 0.09310 -0.43040
Cl2_2 Cl 0.21279 -0.06497 -0.94249
Cl2C Cl 0.28721 0.06497 0.05751
Cl2C_2 Cl 0.28721 0.06497 -0.94249
C6C C 0.17190 0.07710 -0.50920
C10C C 0.21800 0.16450 -0.36150
C7C C 0.14330 0.13510 -0.50920
H6C H 0.16200 0.02000 -0.55800
C9C C 0.19090 0.22390 -0.36780
H10C H 0.24800 0.17800 -0.30900
C8C C 0.15320 0.20900 -0.42020
H7C H 0.11300 0.11900 -0.55700
H9C H 0.20200 0.28100 -0.30100
H8C H 0.13300 0.25900 -0.42100
loop_
_geom_bond_atom_site_label_1
_geom_bond_atom_site_label_2
_geom_bond_site_symmetry_1
_geom_bond_site_symmetry_2
Cl1 Co1 1_555 1_555
Co1 N1 1_555 1_555
C1 C2 1_555 1_555
C2 C3 1_555 1_555
C3 C4 1_555 1_555
C4 C5 1_555 1_555
C5 H5 1_555 1_555
H1 C1 1_555 1_555
H2 C2 1_555 1_555
H3 C3 1_555 1_555
H4 C4 1_555 1_555
N1 C1 1_555 1_555
Cl2 Co2 1_555 1_555
Co2 N2 1_555 1_555
C6 C7 1_555 1_555
C7 C8 1_555 1_555
C8 C9 1_555 1_555
C9 C10 1_555 1_555
C10 H10 1_555 1_555
H6 C6 1_555 1_555
H7 C7 1_555 1_555
H8 C8 1_555 1_555
H9 C9 1_555 1_555
N2 C6 1_555 1_555
Co1_2 Cl1 1_555 1_555
N1B Co1 1_555 1_555
Cl1_2 Co1 1_555 1_555
Cl1B Co1 1_555 1_555
Cl1B_2 Co1 1_555 1_555
C1B N1B 1_555 1_555
C5B N1B 1_555 1_555
C2B C1B 1_555 1_555
H1B C1B 1_555 1_555
C4B C5B 1_555 1_555
H5B C5B 1_555 1_555
C3B C2B 1_555 1_555
H2B C2B 1_555 1_555
H4B C4B 1_555 1_555
H3B C3B 1_555 1_555
Co2_2 Cl2 1_555 1_555
N2C Co2 1_555 1_555
Cl2_2 Co2 1_555 1_555
Cl2C Co2 1_555 1_555
Cl2C_2 Co2 1_555 1_555
C6C N2C 1_555 1_555
C10C N2C 1_555 1_555
C7C C6C 1_555 1_555
H6C C6C 1_555 1_555
C9C C10C 1_555 1_555
H10C C10C 1_555 1_555
C8C C7C 1_555 1_555
H7C C7C 1_555 1_555
H9C C9C 1_555 1_555
H8C C8C 1_555 1_555
C5 N1 1_555 1_555
C10 N2 1_555 1_555
Co1_2 Cl1B 1_555 1_555
C4B C3B 1_555 1_555
Co2_2 Cl2C 1_555 1_555
C9C C8C 1_555 1_555

#END
