
#######################################################################
#
#                 Cambridge Crystallographic Data Centre
#                                CCDC 
#
#######################################################################
#
# If this CIF has been generated from an entry in the Cambridge 
# Structural Database, then it will include bibliographic, chemical, 
# crystal, experimental, refinement or atomic coordinate data resulting 
# from the CCDC's data processing and validation procedures.
#
#######################################################################

data_PYRCOC06
_symmetry_cell_setting           monoclinic
_symmetry_space_group_name_H-M   'P 21/n'
_symmetry_Int_Tables_number      14
_space_group_name_Hall           '-P 2yn'
loop_
_symmetry_equiv_pos_site_id
_symmetry_equiv_pos_as_xyz
1 x,y,z
2 1/2-x,1/2+y,1/2-z
3 -x,-y,-z
4 1/2+x,1/2-y,1/2+z
_cell_length_a                   17.437(13)
_cell_length_b                   8.408(2)
_cell_length_c                   3.593(7)
_cell_angle_alpha                90
_cell_angle_beta                 90.05(2)
_cell_angle_gamma                90
_cell_volume                     526.771
loop_
_atom_site_label
_atom_site_type_symbol
_atom_site_fract_x
_atom_site_fract_y
_atom_site_fract_z
Co1 Co 0.0000 0.00000 0.00000
Cl1 Cl 0.0718 0.13623 0.48657
N1 N -0.0855 0.185 -0.0208
C1 C -0.0651 0.335 -0.0868
C2 C -0.1193 0.4535 -0.1277
C3 C -0.1948 0.4163 0.062
C4 C -0.2155 0.2646 0.015
C5 C -0.1595 0.1525 0.035
H1 H -0.005 0.359 -0.139
H2 H -0.104 0.577 -0.172
H3 H -0.237 0.512 -0.073
H4 H -0.273 0.239 0.057
H5 H -0.173 0.03 0.086
Cl1B Cl -0.0718 -0.13623 -0.48657
N1B N 0.0855 -0.185 0.0208
C1B C 0.0651 -0.335 0.0868
C2B C 0.1193 -0.4535 0.1277
C3B C 0.1948 -0.4163 -0.062
C4B C 0.2155 -0.2646 -0.015
C5B C 0.1595 -0.1525 -0.035
H1B H 0.005 -0.359 0.139
H2B H 0.104 -0.577 0.172
H3B H 0.237 -0.512 0.073
H4B H 0.273 -0.239 -0.057
H5B H 0.173 -0.03 -0.086
Co1_2 Co 0.0000 0.00000 -1.00000
Co1_3 Co 0.0000 0.00000 1.00000
Cl1_2 Cl 0.0718 0.13623 -0.51343
Cl1B_2 Cl -0.0718 -0.13623 0.51343
loop_
_geom_bond_atom_site_label_1
_geom_bond_atom_site_label_2
_geom_bond_site_symmetry_1
_geom_bond_site_symmetry_2
Co1 Cl1 1_555 1_555
Cl1 Co1_3 1_555 1_555
N1 Co1 1_555 1_555
C1 N1 1_555 1_555
C2 C1 1_555 1_555
C3 C2 1_555 1_555
C4 C3 1_555 1_555
C5 N1 1_555 1_555
H1 C1 1_555 1_555
H2 C2 1_555 1_555
H3 C3 1_555 1_555
H4 C4 1_555 1_555
H5 C5 1_555 1_555
Cl1B Co1 1_555 1_555
N1B Co1 1_555 1_555
C1B N1B 1_555 1_555
C2B C1B 1_555 1_555
C3B C2B 1_555 1_555
C4B C3B 1_555 1_555
C5B N1B 1_555 1_555
H1B C1B 1_555 1_555
H2B C2B 1_555 1_555
H3B C3B 1_555 1_555
H4B C4B 1_555 1_555
H5B C5B 1_555 1_555
Co1_2 Cl1B 1_555 1_555
Co1_3 Cl1B_2 1_555 1_555
Cl1_2 Co1 1_555 1_555
Cl1B_2 Co1 1_555 1_555
C4 C5 1_555 1_555
C4B C5B 1_555 1_555
Co1_2 Cl1_2 1_555 1_555

#END
