
#######################################################################
#
#                 Cambridge Crystallographic Data Centre
#                                CCDC 
#
#######################################################################
#
# If this CIF has been generated from an entry in the Cambridge 
# Structural Database, then it will include bibliographic, chemical, 
# crystal, experimental, refinement or atomic coordinate data resulting 
# from the CCDC's data processing and validation procedures.
#
#######################################################################

data_PYRCOC
_symmetry_cell_setting           monoclinic
_symmetry_space_group_name_H-M   'C 1 1 2/b'
_symmetry_Int_Tables_number      13
_space_group_name_Hall           '-C 2a'
loop_
_symmetry_equiv_pos_site_id
_symmetry_equiv_pos_as_xyz
1 x,y,z
2 -x,1/2-y,z
3 1/2+x,1/2+y,z
4 1/2-x,-y,z
5 -x,-y,-z
6 x,1/2+y,-z
7 1/2-x,1/2-y,-z
8 1/2+x,y,-z
_cell_length_a                   34.42
_cell_length_b                   17.38
_cell_length_c                   3.66
_cell_angle_alpha                90
_cell_angle_beta                 90
_cell_angle_gamma                90.00
_cell_volume                     2189.48
loop_
_atom_site_label
_atom_site_type_symbol
_atom_site_fract_x
_atom_site_fract_y
_atom_site_fract_z
Co1 Co 0.00000 0.25000 0.15000
Cl1 Cl 0.03600 0.18500 -0.35000
N1 N 0.04100 0.34200 0.15000
C1 C 0.07800 0.32700 0.15000
C2 C 0.10600 0.38600 0.15000
C3 C 0.09500 0.46200 0.15000
C4 C 0.05600 0.47400 0.15000
C5 C 0.02800 0.41200 0.15000
Cl1_2 Cl 0.03600 0.18500 0.65000
Cl1A Cl -0.03600 0.31500 -0.35000
Cl1A_2 Cl -0.03600 0.31500 0.65000
N1A N -0.04100 0.15800 0.15000
Co1_2 Co 0.00000 0.25000 -0.85000
C1A C -0.07800 0.17300 0.15000
C5A C -0.02800 0.08800 0.15000
C2A C -0.10600 0.11400 0.15000
C4A C -0.05600 0.02600 0.15000
C3A C -0.09500 0.03800 0.15000
Co2 Co 0.25000 0.00000 0.56000
Cl2 Cl 0.21400 -0.06500 0.06000
N2 N 0.20900 0.09200 0.56000
C6 C 0.17200 0.07700 0.56000
C7 C 0.14400 0.13600 0.56000
C8 C 0.15500 0.21200 0.56000
C9 C 0.19400 0.22400 0.56000
C10 C 0.22200 0.16200 0.56000
Cl2_2 Cl 0.21400 -0.06500 1.06000
Cl2C Cl 0.28600 0.06500 0.06000
Cl2C_2 Cl 0.28600 0.06500 1.06000
N2C N 0.29100 -0.09200 0.56000
Co2_2 Co 0.25000 0.00000 -0.44000
C6C C 0.32800 -0.07700 0.56000
C10C C 0.27800 -0.16200 0.56000
C7C C 0.35600 -0.13600 0.56000
C9C C 0.30600 -0.22400 0.56000
C8C C 0.34500 -0.21200 0.56000
loop_
_geom_bond_atom_site_label_1
_geom_bond_atom_site_label_2
_geom_bond_site_symmetry_1
_geom_bond_site_symmetry_2
Co1 Cl1 1_555 1_555
Cl1 Co1_2 1_555 1_555
N1 Co1 1_555 1_555
C1 N1 1_555 1_555
C2 C1 1_555 1_555
C3 C2 1_555 1_555
C4 C3 1_555 1_555
C5 N1 1_555 1_555
Co2 Cl2 1_555 1_555
Cl2 Co2_2 1_555 1_555
N2 Co2 1_555 1_555
C6 N2 1_555 1_555
C7 C6 1_555 1_555
C8 C7 1_555 1_555
C9 C8 1_555 1_555
C10 N2 1_555 1_555
Cl1_2 Co1 1_555 1_555
Cl1A Co1 1_555 1_555
Cl1A_2 Co1 1_555 1_555
N1A Co1 1_555 1_555
Co1_2 Cl1A 1_555 1_555
C1A N1A 1_555 1_555
C5A N1A 1_555 1_555
C2A C1A 1_555 1_555
C4A C5A 1_555 1_555
C3A C2A 1_555 1_555
Cl2_2 Co2 1_555 1_555
Cl2C Co2 1_555 1_555
Cl2C_2 Co2 1_555 1_555
N2C Co2 1_555 1_555
Co2_2 Cl2C 1_555 1_555
C6C N2C 1_555 1_555
C10C N2C 1_555 1_555
C7C C6C 1_555 1_555
C9C C10C 1_555 1_555
C8C C7C 1_555 1_555
C4 C5 1_555 1_555
C9 C10 1_555 1_555
C4A C3A 1_555 1_555
C9C C8C 1_555 1_555

#END
