
#######################################################################
#
#                 Cambridge Crystallographic Data Centre
#                                CCDC 
#
#######################################################################
#
# If this CIF has been generated from an entry in the Cambridge 
# Structural Database, then it will include bibliographic, chemical, 
# crystal, experimental, refinement or atomic coordinate data resulting 
# from the CCDC's data processing and validation procedures.
#
#######################################################################

data_PYRCOC05
_symmetry_cell_setting           monoclinic
_symmetry_space_group_name_H-M   'C 1 1 2/b'
_symmetry_Int_Tables_number      13
_space_group_name_Hall           '-C 2b'
loop_
_symmetry_equiv_pos_site_id
_symmetry_equiv_pos_as_xyz
1 x,y,z
2 1/2+x,1/2+y,z
3 1/2-x,-y,z
4 -x,1/2-y,z
5 -x,-y,-z
6 1/2-x,1/2-y,-z
7 1/2+x,y,-z
8 x,1/2+y,-z
_cell_length_a                   34.486(3)
_cell_length_b                   17.408(2)
_cell_length_c                   3.6635(6)
_cell_angle_alpha                90
_cell_angle_beta                 90
_cell_angle_gamma                90.121(6)
_cell_volume                     2199.31
loop_
_atom_site_label
_atom_site_type_symbol
_atom_site_fract_x
_atom_site_fract_y
_atom_site_fract_z
Co1 Co 0.00000 0.25000 0.15965
Cl1 Cl 0.03694 0.18497 0.65286
C1 C 0.0786 0.3288 0.1224
C2 C 0.1072 0.3840 0.0729
C3 C 0.0943 0.4611 0.1282
C4 C 0.0577 0.4772 0.1391
C5 C 0.0311 0.4155 0.1884
N1 N 0.0420 0.3384 0.1349
H1 H 0.088 0.269 0.072
H2 H 0.139 0.372 0.048
H3 H 0.116 0.509 0.110
H4 H 0.048 0.535 0.188
H5 H 0.000 0.427 0.208
Cl1C Cl -0.03694 0.31503 0.65286
C1C C -0.0786 0.1712 0.1224
C2C C -0.1072 0.1160 0.0729
C3C C -0.0943 0.0389 0.1282
C4C C -0.0577 0.0228 0.1391
C5C C -0.0311 0.0845 0.1884
N1C N -0.0420 0.1616 0.1349
H1C H -0.088 0.231 0.072
H2C H -0.139 0.128 0.048
H3C H -0.116 -0.009 0.110
H4C H -0.048 -0.035 0.188
H5C H 0.000 0.073 0.208
Co1_2 Co 0.00000 0.25000 1.15965
Cl1_2 Cl 0.03694 0.18497 -0.34714
Cl1C_2 Cl -0.03694 0.31503 -0.34714
Co2 Co 0.25000 0.00000 -0.44307
Cl2 Cl 0.21279 -0.06497 0.05751
C6 C 0.3281 -0.0771 -0.5092
C7 C 0.3567 -0.1351 -0.5092
C8 C 0.3468 -0.209 -0.4202
C9 C 0.3091 -0.2239 -0.3678
C10 C 0.282 -0.1645 -0.3615
N2 N 0.292 -0.0931 -0.4304
H6 H 0.338 -0.02 -0.558
H7 H 0.387 -0.119 -0.557
H8 H 0.367 -0.259 -0.421
H9 H 0.298 -0.281 -0.301
H10 H 0.252 -0.178 -0.309
Cl2B Cl 0.28721 0.06497 0.05751
C6B C 0.1719 0.0771 -0.5092
C7B C 0.1433 0.1351 -0.5092
C8B C 0.1532 0.209 -0.4202
C9B C 0.1909 0.2239 -0.3678
C10B C 0.218 0.1645 -0.3615
N2B N 0.208 0.0931 -0.4304
H6B H 0.162 0.02 -0.558
H7B H 0.113 0.119 -0.557
H8B H 0.133 0.259 -0.421
H9B H 0.202 0.281 -0.301
H10B H 0.248 0.178 -0.309
Co2_2 Co 0.25000 0.00000 0.55693
Cl2_2 Cl 0.21279 -0.06497 -0.94249
Cl2B_2 Cl 0.28721 0.06497 -0.94249
loop_
_geom_bond_atom_site_label_1
_geom_bond_atom_site_label_2
_geom_bond_site_symmetry_1
_geom_bond_site_symmetry_2
Co1 Cl1 1_555 1_555
Cl1 Co1_2 1_555 1_555
C1 C2 1_555 1_555
C2 C3 1_555 1_555
C3 C4 1_555 1_555
C4 C5 1_555 1_555
C5 N1 1_555 1_555
N1 Co1 1_555 1_555
H1 C1 1_555 1_555
H2 C2 1_555 1_555
H3 C3 1_555 1_555
H4 C4 1_555 1_555
H5 C5 1_555 1_555
Co2 Cl2 1_555 1_555
Cl2 Co2_2 1_555 1_555
C6 C7 1_555 1_555
C7 C8 1_555 1_555
C8 C9 1_555 1_555
C9 C10 1_555 1_555
C10 N2 1_555 1_555
N2 Co2 1_555 1_555
H6 C6 1_555 1_555
H7 C7 1_555 1_555
H8 C8 1_555 1_555
H9 C9 1_555 1_555
H10 C10 1_555 1_555
Cl1C Co1 1_555 1_555
C1C C2C 1_555 1_555
C2C C3C 1_555 1_555
C3C C4C 1_555 1_555
C4C C5C 1_555 1_555
C5C N1C 1_555 1_555
N1C Co1 1_555 1_555
H1C C1C 1_555 1_555
H2C C2C 1_555 1_555
H3C C3C 1_555 1_555
H4C C4C 1_555 1_555
H5C C5C 1_555 1_555
Co1_2 Cl1C 1_555 1_555
Cl1_2 Co1 1_555 1_555
Cl1C_2 Co1 1_555 1_555
Cl2B Co2 1_555 1_555
C6B C7B 1_555 1_555
C7B C8B 1_555 1_555
C8B C9B 1_555 1_555
C9B C10B 1_555 1_555
C10B N2B 1_555 1_555
N2B Co2 1_555 1_555
H6B C6B 1_555 1_555
H7B C7B 1_555 1_555
H8B C8B 1_555 1_555
H9B C9B 1_555 1_555
H10B C10B 1_555 1_555
Co2_2 Cl2B 1_555 1_555
Cl2_2 Co2 1_555 1_555
Cl2B_2 Co2 1_555 1_555
C1 N1 1_555 1_555
C6 N2 1_555 1_555
C1C N1C 1_555 1_555
C6B N2B 1_555 1_555

#END
