
#######################################################################
#
#                 Cambridge Crystallographic Data Centre
#                                CCDC 
#
#######################################################################
#
# If this CIF has been generated from an entry in the Cambridge 
# Structural Database, then it will include bibliographic, chemical, 
# crystal, experimental, refinement or atomic coordinate data resulting 
# from the CCDC's data processing and validation procedures.
#
#######################################################################

data_PYZCCU01
_symmetry_cell_setting           monoclinic
_symmetry_space_group_name_H-M   'P 21/c'
_symmetry_Int_Tables_number      14
_space_group_name_Hall           '-P 2ybc'
loop_
_symmetry_equiv_pos_site_id
_symmetry_equiv_pos_as_xyz
1 x,y,z
2 -x,1/2+y,1/2-z
3 -x,-y,-z
4 x,1/2-y,1/2+z
_cell_length_a                   8.784(3)
_cell_length_b                   9.968(3)
_cell_length_c                   10.421(2)
_cell_angle_alpha                90
_cell_angle_beta                 110.604(8)
_cell_angle_gamma                90
_cell_volume                     854.086
loop_
_atom_site_label
_atom_site_type_symbol
_atom_site_fract_x
_atom_site_fract_y
_atom_site_fract_z
Cu1 Cu 0.5000 0.0000 0.5000
O1 O 0.2658(3) 0.0322(3) 0.4538(2)
N1 N 0.5157(3) 0.1205(3) 0.6579(3)
N2 N 0.4921(3) 0.3027(3) 0.8509(3)
N3 N 0.0859(3) 0.1656(3) 0.4994(3)
C1 C 0.3709(4) 0.1744(3) 0.6480(3)
C2 C 0.3604(4) 0.2672(3) 0.7425(3)
C3 C 0.6318(4) 0.2441(4) 0.8613(3)
C4 C 0.6456(4) 0.1537(3) 0.7643(3)
C5 C 0.2332(4) 0.1213(3) 0.5261(3)
H1 H 0.0009 0.1314 0.4252
H2 H 0.0656 0.2314 0.5545
H3 H 0.2604 0.3062 0.7313
H4 H 0.7241 0.2643 0.9364
H5 H 0.7462 0.1165 0.7743
O1B O 0.7342(3) -0.0322(3) 0.5462(2)
N1B N 0.4843(3) -0.1205(3) 0.3421(3)
N2B N 0.5079(3) -0.3027(3) 0.1491(3)
N3B N 0.9141(3) -0.1656(3) 0.5006(3)
C1B C 0.6291(4) -0.1744(3) 0.3520(3)
C2B C 0.6396(4) -0.2672(3) 0.2575(3)
C3B C 0.3682(4) -0.2441(4) 0.1387(3)
C4B C 0.3544(4) -0.1537(3) 0.2357(3)
C5B C 0.7668(4) -0.1213(3) 0.4739(3)
H1B H 0.9991 -0.1314 0.5748
H2B H 0.9344 -0.2314 0.4455
H3B H 0.7396 -0.3062 0.2687
H4B H 0.2759 -0.2643 0.0636
H5B H 0.2538 -0.1165 0.2257
Cu1A Cu 0.5000 -0.5000 0.0000
Cu1A_2 Cu 0.5000 0.5000 1.0000
N2A N 0.5079(3) -0.1973(3) 0.6491(3)
N2C N 0.4921(3) 0.1973(3) 0.3509(3)
Cl1 Cl 0.13432(10) 0.50734(8) 0.34994(8)
O2 O 0.0388(5) 0.6052(4) 0.3860(4)
O3 O 0.1900(4) 0.5626(4) 0.2465(3)
O4 O 0.2657(4) 0.4681(4) 0.4668(3)
O5 O 0.0371(4) 0.3917(3) 0.2905(3)
loop_
_geom_bond_atom_site_label_1
_geom_bond_atom_site_label_2
_geom_bond_site_symmetry_1
_geom_bond_site_symmetry_2
Cu1 O1 1_555 1_555
O1 C5 1_555 1_555
N1 Cu1 1_555 1_555
N2 C2 1_555 1_555
N3 C5 1_555 1_555
C1 N1 1_555 1_555
C2 C1 1_555 1_555
C3 N2 1_555 1_555
C4 N1 1_555 1_555
C5 C1 1_555 1_555
H1 N3 1_555 1_555
H2 N3 1_555 1_555
H3 C2 1_555 1_555
H4 C3 1_555 1_555
H5 C4 1_555 1_555
Cl1 O2 1_555 1_555
O3 Cl1 1_555 1_555
O4 Cl1 1_555 1_555
O5 Cl1 1_555 1_555
O1B Cu1 1_555 1_555
N1B Cu1 1_555 1_555
N2B C2B 1_555 1_555
N3B C5B 1_555 1_555
C1B N1B 1_555 1_555
C2B C1B 1_555 1_555
C3B N2B 1_555 1_555
C4B N1B 1_555 1_555
C5B O1B 1_555 1_555
H1B N3B 1_555 1_555
H2B N3B 1_555 1_555
H3B C2B 1_555 1_555
H4B C3B 1_555 1_555
H5B C4B 1_555 1_555
Cu1A N2B 1_555 1_555
Cu1A_2 N2 1_555 1_555
N2A Cu1 1_555 1_555
N2C Cu1 1_555 1_555
C3 C4 1_555 1_555
C1B C5B 1_555 1_555
C3B C4B 1_555 1_555

#END
