
#######################################################################
#
#                 Cambridge Crystallographic Data Centre
#                                CCDC 
#
#######################################################################
#
# If this CIF has been generated from an entry in the Cambridge 
# Structural Database, then it will include bibliographic, chemical, 
# crystal, experimental, refinement or atomic coordinate data resulting 
# from the CCDC's data processing and validation procedures.
#
#######################################################################

data_QABGEF
_symmetry_cell_setting           monoclinic
_symmetry_space_group_name_H-M   'P 21/n'
_symmetry_Int_Tables_number      14
_space_group_name_Hall           '-P 2yn'
loop_
_symmetry_equiv_pos_site_id
_symmetry_equiv_pos_as_xyz
1 x,y,z
2 1/2-x,1/2+y,1/2-z
3 -x,-y,-z
4 1/2+x,1/2-y,1/2+z
_cell_length_a                   7.1656(5)
_cell_length_b                   12.9452(9)
_cell_length_c                   13.2702(8)
_cell_angle_alpha                90
_cell_angle_beta                 101.523(1)
_cell_angle_gamma                90
_cell_volume                     1206.14
loop_
_atom_site_label
_atom_site_type_symbol
_atom_site_fract_x
_atom_site_fract_y
_atom_site_fract_z
Li1 Li 0.3084(4) 0.7904(2) 0.4317
Li2 Li -0.1361(4) 1.0270(2) 0.2227(2)
B1 B 0.5179(3) 0.6715(2) 0.3635(2)
B2 B 0.0991(3) 0.9138(2) 0.3242(2)
H1 H 0.0498(26) 0.8569(14) 0.3767
H2 H 0.2587(27) 0.9057(14) 0.3291
H3 H 0.0300(26) 0.9017(14) 0.2438(15)
H4 H 0.0643(26) 0.9935(15) 0.3493(14)
O1 O 0.3206(2) 0.93682(9) 0.68963(8)
C1 C 0.4961(3) 0.8833(2) 0.72991(14)
H5 H 0.5905(29) 0.9356(16) 0.7662(15)
H6 H 0.4686(28) 0.8331(16) 0.7745(16)
C2 C 0.5586(3) 0.8409(2) 0.63622(13)
H7 H 0.5535(26) 0.7682(16) 0.6330(14)
H8 H 0.6831(30) 0.8640(14) 0.6330(14)
O2 O 0.4208(2) 0.88018(9) 0.55031(8)
C3 C 0.3324(3) 0.96490(14) 0.58883(13)
H9 H 0.4121(26) 1.0268(15) 0.5904(14)
H10 H 0.2041(27) 0.9720(14) 0.5481(14)
H11 H 0.4949(24) 0.5869(15) 0.3817(14)
H12 H 0.3797(28) 0.7010(14) 0.3244(14)
H13 H 0.5596(25) 0.7113(14) 0.4344(15)
H14 H 0.6273(26) 0.6770(14) 0.3180(14)
O3 O 0.1870(2) 0.68904(9) 0.51289(10)
C4 C 0.0340(3) 0.7112(2) 0.5650(2)
H15 H -0.0786(34) 0.6933(17) 0.5151(18)
H16 H 0.0409(30) 0.7820(19) 0.5849(17)
C5 C 0.0681(4) 0.6372(2) 0.6525(2)
H17 H -0.0481(32) 0.6097(17) 0.6674(17)
H18 H 0.1527(32) 0.6678(17) 0.7119(18)
O4 O 0.1720(2) 0.55340(8) 0.61853(8)
C6 C 0.2224(4) 0.58341(15) 0.52513(15)
H19 H 0.1383(31) 0.5488(16) 0.4696(17)
H20 H 0.3564(33) 0.5710(16) 0.5280(16)
O1B O -0.3206(2) 1.06318(9) 0.31037(8)
H11A H 0.0051(24) 1.0869(15) 0.1183(14)
H14A H -0.1273(26) 1.1770(14) 0.1820(14)
O4C O -0.3280(2) 0.94660(8) 0.11853(8)
Li2B Li 0.1361(4) 0.9730(2) 0.7773(2)
Li2A Li 0.6361(4) 0.5270(2) 0.2773(2)
Li2C Li 0.3639(4) 0.4730(2) 0.7227(2)
loop_
_geom_bond_atom_site_label_1
_geom_bond_atom_site_label_2
_geom_bond_site_symmetry_1
_geom_bond_site_symmetry_2
Li1 H1 1_555 1_555
Li2 H3 1_555 1_555
B1 H11 1_555 1_555
B2 H1 1_555 1_555
H2 Li1 1_555 1_555
H3 B2 1_555 1_555
H4 Li2 1_555 1_555
O1 C1 1_555 1_555
C1 H5 1_555 1_555
H6 C1 1_555 1_555
C2 C1 1_555 1_555
H7 C2 1_555 1_555
H8 C2 1_555 1_555
O2 Li1 1_555 1_555
C3 O1 1_555 1_555
H9 C3 1_555 1_555
H10 C3 1_555 1_555
H11 Li2A 1_555 1_555
H12 Li1 1_555 1_555
H13 Li1 1_555 1_555
H14 B1 1_555 1_555
O3 Li1 1_555 1_555
C4 O3 1_555 1_555
H15 C4 1_555 1_555
H16 C4 1_555 1_555
C5 C4 1_555 1_555
H17 C5 1_555 1_555
H18 C5 1_555 1_555
O4 C5 1_555 1_555
C6 O3 1_555 1_555
H19 C6 1_555 1_555
H20 C6 1_555 1_555
O1B Li2 1_555 1_555
H11A Li2 1_555 1_555
H14A Li2 1_555 1_555
O4C Li2 1_555 1_555
Li2B O1 1_555 1_555
Li2A H14 1_555 1_555
Li2C O4 1_555 1_555
B1 H12 1_555 1_555
B1 H13 1_555 1_555
B2 H2 1_555 1_555
B2 H4 1_555 1_555
C2 O2 1_555 1_555
O2 C3 1_555 1_555
O4 C6 1_555 1_555

#END
