
#######################################################################
#
#                 Cambridge Crystallographic Data Centre
#                                CCDC 
#
#######################################################################
#
# If this CIF has been generated from an entry in the Cambridge 
# Structural Database, then it will include bibliographic, chemical, 
# crystal, experimental, refinement or atomic coordinate data resulting 
# from the CCDC's data processing and validation procedures.
#
#######################################################################

data_QABWUN
_symmetry_cell_setting           cubic
_symmetry_space_group_name_H-M   'P 43 3 2'
_symmetry_Int_Tables_number      212
_space_group_name_Hall           'P 4acd 2ab 3'
loop_
_symmetry_equiv_pos_site_id
_symmetry_equiv_pos_as_xyz
1 x,y,z
2 1/2-x,-y,1/2+z
3 -x,1/2+y,1/2-z
4 1/2+x,1/2-y,-z
5 z,x,y
6 1/2+z,1/2-x,-y
7 1/2-z,-x,1/2+y
8 -z,1/2+x,1/2-y
9 y,z,x
10 -y,1/2+z,1/2-x
11 1/2+y,1/2-z,-x
12 1/2-y,-z,1/2+x
13 1/4+y,3/4+x,3/4-z
14 1/4-y,1/4-x,1/4-z
15 3/4+y,3/4-x,1/4+z
16 3/4-y,1/4+x,3/4+z
17 1/4+x,3/4+z,3/4-y
18 3/4-x,1/4+z,3/4+y
19 1/4-x,1/4-z,1/4-y
20 3/4+x,3/4-z,1/4+y
21 1/4+z,3/4+y,3/4-x
22 3/4+z,3/4-y,1/4+x
23 3/4-z,1/4+y,3/4+x
24 1/4-z,1/4-y,1/4-x
_cell_length_a                   15.7838(2)
_cell_length_b                   15.7838(2)
_cell_length_c                   15.7838(2)
_cell_angle_alpha                90
_cell_angle_beta                 90
_cell_angle_gamma                90
_cell_volume                     3932.19
loop_
_atom_site_label
_atom_site_type_symbol
_atom_site_fract_x
_atom_site_fract_y
_atom_site_fract_z
Cd1 Cd 0.033740(11) 0.033740(11) 0.033740(11)
N1 N -0.21261(12) 0.16397(11) 0.28643(13)
C1 C -0.12716(15) 0.04863(15) 0.11759(15)
C2 C -0.20422(14) 0.02732(15) 0.17302(14)
H1 H -0.1845 0.0214 0.2316
C3 C -0.27052(13) 0.15896(13) 0.22520(15)
N2 N -0.26743(13) 0.09328(13) 0.17136(13)
H2 H -0.3060 0.0903 0.1330
Na1 Na -0.1250 0.22270(8) -0.02730(8)
Cl1 Cl 0.1250 0.1250 0.1250
O1 O -0.12266(16) 0.11511(15) 0.07883(14)
O2 O -0.07037(12) -0.00864(13) 0.11603(14)
C4 C -0.24439(17) -0.05655(16) 0.14662(19)
H3 H -0.2923 -0.0682 0.1822
H4 H -0.2036 -0.1013 0.1523
H5 H -0.2626 -0.0530 0.0887
O3 O -0.2421(4) 0.2849(3) 0.0465(3)
Cd1B Cd -0.033740(11) 0.533740(11) 0.466260(11)
Cd1M Cd 0.216260(11) 0.216260(11) 0.216260(11)
Cd1C Cd -0.466260(11) 0.466260(11) -0.033740(11)
Cd1A Cd 0.466260(11) -0.033740(11) 0.533740(11)
Cd1B_2 Cd -0.033740(11) -0.466260(11) 0.466260(11)
N1J N -0.33603(11) 0.21357(13) 0.21261(12)
N1G N -0.28643(13) 0.28739(12) 0.33603(11)
N1D N 0.28643(13) -0.21261(12) 0.16397(11)
N1B N 0.21261(12) -0.33603(11) 0.21357(13)
N1K N 0.33603(11) -0.28643(13) 0.28739(12)
C1G C -0.11759(15) 0.37284(15) 0.45137(15)
C1J C -0.45137(15) 0.38241(15) 0.12716(15)
C1D C 0.11759(15) -0.12716(15) 0.04863(15)
C1K C 0.45137(15) -0.11759(15) 0.37284(15)
C1B C 0.12716(15) -0.45137(15) 0.38241(15)
C2G C -0.17302(14) 0.29578(14) 0.47268(15)
C2J C -0.47268(15) 0.32698(14) 0.20422(14)
C2D C 0.17302(14) -0.20422(14) 0.02732(15)
C2K C 0.47268(15) -0.17302(14) 0.29578(14)
C2B C 0.20422(14) -0.47268(15) 0.32698(14)
H1G H -0.2316 0.3155 0.4786
H1J H -0.4786 0.2684 0.1845
H1D H 0.2316 -0.1845 0.0214
H1K H 0.4786 -0.2316 0.3155
H1B H 0.1845 -0.4786 0.2684
C3J C -0.34104(13) 0.27480(15) 0.27052(13)
C3G C -0.22520(15) 0.22948(13) 0.34104(13)
C3D C 0.22520(15) -0.27052(13) 0.15896(13)
C3B C 0.27052(13) -0.34104(13) 0.27480(15)
C3K C 0.34104(13) -0.22520(15) 0.22948(13)
N2G N -0.17136(13) 0.23257(13) 0.40672(13)
N2J N -0.40672(13) 0.32864(13) 0.26743(13)
N2D N 0.17136(13) -0.26743(13) 0.09328(13)
N2K N 0.40672(13) -0.17136(13) 0.23257(13)
N2B N 0.26743(13) -0.40672(13) 0.32864(13)
H2G H -0.1330 0.1940 0.4097
H2J H -0.4097 0.3670 0.3060
H2D H 0.1330 -0.3060 0.0903
H2K H 0.4097 -0.1330 0.1940
H2B H 0.3060 -0.4097 0.3670
Na1G Na 0.02730(8) 0.3750 0.27730(8)
Na1J Na -0.27730(8) 0.52730(8) 0.1250
Na1D Na -0.02730(8) -0.1250 0.22270(8)
Na1I Na -0.22270(8) 0.47270(8) 0.6250
Na1C Na -0.6250 0.27730(8) 0.02730(8)
Na1H Na 0.22270(8) -0.02730(8) -0.1250
Na1K Na 0.27730(8) 0.02730(8) 0.3750
Na1A Na 0.6250 -0.22270(8) 0.47270(8)
Na1B Na 0.1250 -0.27730(8) 0.52730(8)
Na1G_2 Na 0.02730(8) -0.6250 0.27730(8)
Cl1B Cl -0.1250 0.6250 0.3750
O1G O -0.07883(14) 0.37734(16) 0.38489(15)
O1J O -0.38489(15) 0.42117(14) 0.12266(16)
O1D O 0.07883(14) -0.12266(16) 0.11511(15)
O1K O 0.38489(15) -0.07883(14) 0.37734(16)
O1B O 0.12266(16) -0.38489(15) 0.42117(14)
O1Q O -0.12734(16) 0.32883(14) -0.13489(15)
O1M O 0.13489(15) 0.37266(16) 0.17117(14)
O1U O -0.17117(14) 0.63489(15) 0.12734(16)
O2G O -0.11603(14) 0.42963(12) 0.50864(13)
O2J O -0.50864(13) 0.38397(14) 0.07037(12)
O2D O 0.11603(14) -0.07037(12) -0.00864(13)
O2K O 0.50864(13) -0.11603(14) 0.42963(12)
O2B O 0.07037(12) -0.50864(13) 0.38397(14)
O2H O -0.00864(13) 0.11603(14) -0.07037(12)
O2O O -0.24136(13) 0.17963(12) -0.13397(14)
O2I O 0.00864(13) 0.61603(14) 0.57037(12)
O2B_2 O 0.07037(12) 0.49136(13) 0.38397(14)
O2W O 0.13397(14) 0.25864(13) 0.32037(12)
O2E O -0.38397(14) 0.57037(12) 0.00864(13)
O2S O -0.32037(12) 0.63397(14) 0.24136(13)
C4G C -0.14662(19) 0.25561(17) 0.55655(16)
C4J C -0.55655(16) 0.35338(19) 0.24439(17)
C4D C 0.14662(19) -0.24439(17) -0.05655(16)
C4K C 0.55655(16) -0.14662(19) 0.25561(17)
C4B C 0.24439(17) -0.55655(16) 0.35338(19)
H3G H -0.1822 0.2077 0.5682
H3J H -0.5682 0.3178 0.2923
H3D H 0.1822 -0.2923 -0.0682
H3K H 0.5682 -0.1822 0.2077
H3B H 0.2923 -0.5682 0.3178
H4G H -0.1523 0.2964 0.6013
H4J H -0.6013 0.3477 0.2036
H4D H 0.1523 -0.2036 -0.1013
H4K H 0.6013 -0.1523 0.2964
H4B H 0.2036 -0.6013 0.3477
H5G H -0.0887 0.2374 0.5530
H5J H -0.5530 0.4113 0.2626
H5D H 0.0887 -0.2626 -0.0530
H5K H 0.5530 -0.0887 0.2374
H5B H 0.2626 -0.5530 0.4113
O3Q O -0.0079(4) 0.2965(3) 0.0349(3)
O3G O -0.0465(3) 0.2579(4) 0.2151(3)
O3M O -0.0349(3) 0.4921(4) 0.2035(3)
O3J O -0.2151(3) 0.4535(3) 0.2421(4)
O3U O -0.2035(3) 0.4651(3) 0.0079(4)
loop_
_geom_bond_atom_site_label_1
_geom_bond_atom_site_label_2
_geom_bond_site_symmetry_1
_geom_bond_site_symmetry_2
Cd1 Cl1 1_555 1_555
N1 C3 1_555 1_555
C1 C2 1_555 1_555
C2 H1 1_555 1_555
C3 N2 1_555 1_555
N2 C2 1_555 1_555
H2 N2 1_555 1_555
Na1 O1 1_555 1_555
Cl1 Cd1M 1_555 1_555
O1 C1 1_555 1_555
O2 Cd1 1_555 1_555
C4 C2 1_555 1_555
H3 C4 1_555 1_555
H4 C4 1_555 1_555
H5 C4 1_555 1_555
O3 Na1 1_555 1_555
Cd1B Cl1B 1_555 1_555
Cd1M O2W 1_555 1_555
Cd1C O2J 1_555 1_555
Cd1A O2K 1_555 1_555
Cd1B_2 O2B 1_555 1_555
N1J C3 1_555 1_555
N1G C3J 1_555 1_555
N1D C3D 1_555 1_555
N1B C3D 1_555 1_555
N1K C3B 1_555 1_555
C1G C2G 1_555 1_555
C1J C2J 1_555 1_555
C1D C2D 1_555 1_555
C1K C2K 1_555 1_555
C1B C2B 1_555 1_555
C2G H1G 1_555 1_555
C2J H1J 1_555 1_555
C2D H1D 1_555 1_555
C2K H1K 1_555 1_555
C2B H1B 1_555 1_555
C3J N1J 1_555 1_555
C3G N1 1_555 1_555
C3D N2D 1_555 1_555
C3B N1B 1_555 1_555
C3K N1D 1_555 1_555
N2G C2G 1_555 1_555
N2J C2J 1_555 1_555
N2D C2D 1_555 1_555
N2K C2K 1_555 1_555
N2B C2B 1_555 1_555
H2G N2G 1_555 1_555
H2J N2J 1_555 1_555
H2D N2D 1_555 1_555
H2K N2K 1_555 1_555
H2B N2B 1_555 1_555
Na1G O1G 1_555 1_555
Na1J O1J 1_555 1_555
Na1D O2 1_555 1_555
Na1I O2G 1_555 1_555
Na1C O2J 1_555 1_555
Na1H O2D 1_555 1_555
Na1K O1K 1_555 1_555
Na1A O2K 1_555 1_555
Na1B O1B 1_555 1_555
Na1G_2 O2B 1_555 1_555
O1G C1G 1_555 1_555
O1J C1J 1_555 1_555
O1D C1D 1_555 1_555
O1K C1K 1_555 1_555
O1B C1B 1_555 1_555
O1Q Na1 1_555 1_555
O1M Na1G 1_555 1_555
O1U Na1J 1_555 1_555
O2G Cd1B 1_555 1_555
O2J C1J 1_555 1_555
O2D Cd1 1_555 1_555
O2K C1K 1_555 1_555
O2B C1B 1_555 1_555
O2H Cd1 1_555 1_555
O2O Na1 1_555 1_555
O2I Cd1B 1_555 1_555
O2B_2 Cd1B 1_555 1_555
O2W Na1G 1_555 1_555
O2E Cd1C 1_555 1_555
O2S Na1J 1_555 1_555
C4G C2G 1_555 1_555
C4J C2J 1_555 1_555
C4D C2D 1_555 1_555
C4K C2K 1_555 1_555
C4B C2B 1_555 1_555
H3G C4G 1_555 1_555
H3J C4J 1_555 1_555
H3D C4D 1_555 1_555
H3K C4K 1_555 1_555
H3B C4B 1_555 1_555
H4G C4G 1_555 1_555
H4J C4J 1_555 1_555
H4D C4D 1_555 1_555
H4K C4K 1_555 1_555
H4B C4B 1_555 1_555
H5G C4G 1_555 1_555
H5J C4J 1_555 1_555
H5D C4D 1_555 1_555
H5K C4K 1_555 1_555
H5B C4B 1_555 1_555
O3Q Na1 1_555 1_555
O3G Na1G 1_555 1_555
O3M Na1G 1_555 1_555
O3J Na1J 1_555 1_555
O3U Na1J 1_555 1_555
C1 O2 1_555 1_555
Na1 O2H 1_555 1_555
N1G C3G 1_555 1_555
N1K C3K 1_555 1_555
C1G O2G 1_555 1_555
C1D O2D 1_555 1_555
C3J N2J 1_555 1_555
C3G N2G 1_555 1_555
C3B N2B 1_555 1_555
C3K N2K 1_555 1_555
Na1G O2B_2 1_555 1_555
Na1J O2E 1_555 1_555
Na1D O1D 1_555 1_555

#END
