
#######################################################################
#
#                 Cambridge Crystallographic Data Centre
#                                CCDC 
#
#######################################################################
#
# If this CIF has been generated from an entry in the Cambridge 
# Structural Database, then it will include bibliographic, chemical, 
# crystal, experimental, refinement or atomic coordinate data resulting 
# from the CCDC's data processing and validation procedures.
#
#######################################################################

data_QABXAU
_symmetry_cell_setting           cubic
_symmetry_space_group_name_H-M   'P 41 3 2'
_symmetry_Int_Tables_number      213
_space_group_name_Hall           'P 4bd 2ab 3'
loop_
_symmetry_equiv_pos_site_id
_symmetry_equiv_pos_as_xyz
1 x,y,z
2 1/2-x,-y,1/2+z
3 -x,1/2+y,1/2-z
4 1/2+x,1/2-y,-z
5 z,x,y
6 1/2+z,1/2-x,-y
7 1/2-z,-x,1/2+y
8 -z,1/2+x,1/2-y
9 y,z,x
10 -y,1/2+z,1/2-x
11 1/2+y,1/2-z,-x
12 1/2-y,-z,1/2+x
13 3/4+y,1/4+x,1/4-z
14 3/4-y,3/4-x,3/4-z
15 1/4+y,1/4-x,3/4+z
16 1/4-y,3/4+x,1/4+z
17 3/4+x,1/4+z,1/4-y
18 1/4-x,3/4+z,1/4+y
19 3/4-x,3/4-z,3/4-y
20 1/4+x,1/4-z,3/4+y
21 3/4+z,1/4+y,1/4-x
22 1/4+z,1/4-y,3/4+x
23 1/4-z,3/4+y,1/4+x
24 3/4-z,3/4-y,3/4-x
_cell_length_a                   15.8103(17)
_cell_length_b                   15.8103(17)
_cell_length_c                   15.8103(17)
_cell_angle_alpha                90
_cell_angle_beta                 90
_cell_angle_gamma                90
_cell_volume                     3952.03
loop_
_atom_site_label
_atom_site_type_symbol
_atom_site_fract_x
_atom_site_fract_y
_atom_site_fract_z
Cd1 Cd 0.533650(12) 0.966350(12) 0.033650(12)
Na1 Na 0.3750 0.77724(9) -0.02724(9)
N1 N 0.28735(13) 0.83608(12) 0.28633(15)
Cl1 Cl 0.6250 0.8750 0.1250
C1 C 0.37261(17) 0.95145(16) 0.11752(16)
C2 C 0.22933(15) 0.84112(15) 0.22516(16)
O1 O 0.37717(17) 0.88486(16) 0.07890(15)
C3 C 0.29566(15) 0.97265(16) 0.17309(15)
H1 H 0.3154 0.9786 0.2315
N2 N 0.23249(14) 0.90683(14) 0.17139(15)
H2 H 0.1940 0.9099 0.1331
C4 C 0.25575(19) 1.05661(18) 0.1465(2)
H3 H 0.2081 1.0686 0.1821
H4 H 0.2374 1.0529 0.0887
H5 H 0.2967 1.1011 0.1519
O2 O 0.42958(13) 1.00876(14) 0.11604(15)
O3 O 0.2583(4) 0.7149(3) 0.0465(3)
Cd1L Cd 0.716350(12) 0.783650(12) 0.216350(12)
Cd1B Cd 0.466350(12) 0.466350(12) 0.466350(12)
Cd1C Cd 0.033650(12) 0.533650(12) -0.033650(12)
Cd1A Cd 0.966350(12) 1.033650(12) 0.533650(12)
Cd1B_2 Cd 0.466350(12) 1.466350(12) 0.466350(12)
Na1F Na 0.52724(9) 0.6250 0.27724(9)
Na1I Na 0.22276(9) 0.47276(9) 0.1250
Na1E Na 0.47276(9) 1.1250 0.22276(9)
Na1J Na 0.27724(9) 0.52724(9) 0.6250
Na1C Na -0.1250 0.72276(9) 0.02724(9)
Na1K Na 0.72276(9) 1.02724(9) -0.1250
Na1H Na 0.77724(9) 0.97276(9) 0.3750
Na1A Na 1.1250 1.22276(9) 0.47276(9)
Na1B Na 0.6250 1.27724(9) 0.52724(9)
Na1F_2 Na 0.52724(9) 1.6250 0.27724(9)
N1I N 0.16392(12) 0.78633(15) 0.21265(13)
N1F N 0.21367(15) 0.71265(13) 0.33608(12)
N1E N 0.78633(15) 1.21265(13) 0.16392(12)
N1B N 0.71265(13) 1.33608(12) 0.21367(15)
N1H N 0.83608(12) 1.28633(15) 0.28735(13)
Cl1B Cl 0.3750 0.3750 0.3750
C1F C 0.38248(16) 0.62739(17) 0.45145(16)
C1I C 0.04855(16) 0.61752(16) 0.12739(17)
C1E C 0.61752(16) 1.12739(17) 0.04855(16)
C1H C 0.95145(16) 1.11752(16) 0.37261(17)
C1B C 0.62739(17) 1.45145(16) 0.38248(16)
C2I C 0.15888(15) 0.72516(16) 0.27067(15)
C2F C 0.27484(16) 0.77067(15) 0.34112(15)
C2E C 0.72516(16) 1.27067(15) 0.15888(15)
C2B C 0.77067(15) 1.34112(15) 0.27484(16)
C2H C 0.84112(15) 1.22516(16) 0.22933(15)
O1F O 0.42110(15) 0.62283(17) 0.38486(16)
O1I O 0.11514(16) 0.57890(15) 0.12283(17)
O1E O 0.57890(15) 1.12283(17) 0.11514(16)
O1H O 0.88486(16) 1.07890(15) 0.37717(17)
O1B O 0.62283(17) 1.38486(16) 0.42110(15)
O1R O 0.37283(17) 0.67110(15) -0.13486(16)
O1L O 0.63486(16) 0.62717(17) 0.17110(15)
O1U O 0.32890(15) 0.36514(16) 0.12717(17)
C3F C 0.32691(15) 0.70434(15) 0.47265(16)
C3I C 0.02735(16) 0.67309(15) 0.20434(15)
C3E C 0.67309(15) 1.20434(15) 0.02735(16)
C3H C 0.97265(16) 1.17309(15) 0.29566(15)
C3B C 0.70434(15) 1.47265(16) 0.32691(15)
H1F H 0.2685 0.6846 0.4786
H1I H 0.0214 0.7315 0.1846
H1E H 0.7315 1.1846 0.0214
H1H H 0.9786 1.2315 0.3154
H1B H 0.6846 1.4786 0.2685
N2F N 0.32861(15) 0.76751(14) 0.40683(14)
N2I N 0.09317(14) 0.67139(15) 0.26751(14)
N2E N 0.67139(15) 1.26751(14) 0.09317(14)
N2H N 0.90683(14) 1.17139(15) 0.23249(14)
N2B N 0.76751(14) 1.40683(14) 0.32861(15)
H2F H 0.3669 0.8060 0.4099
H2I H 0.0901 0.6331 0.3060
H2E H 0.6331 1.3060 0.0901
H2H H 0.9099 1.1331 0.1940
H2B H 0.8060 1.4099 0.3669
C4F C 0.3535(2) 0.74425(19) 0.55661(18)
C4I C -0.05661(18) 0.6465(2) 0.24425(19)
C4E C 0.6465(2) 1.24425(19) -0.05661(18)
C4H C 1.05661(18) 1.1465(2) 0.25575(19)
C4B C 0.74425(19) 1.55661(18) 0.3535(2)
H3F H 0.3179 0.7919 0.5686
H3I H -0.0686 0.6821 0.2919
H3E H 0.6821 1.2919 -0.0686
H3H H 1.0686 1.1821 0.2081
H3B H 0.7919 1.5686 0.3179
H4F H 0.4113 0.7626 0.5529
H4I H -0.0529 0.5887 0.2626
H4E H 0.5887 1.2626 -0.0529
H4H H 1.0529 1.0887 0.2374
H4B H 0.7626 1.5529 0.4113
H5F H 0.3481 0.7033 0.6011
H5I H -0.1011 0.6519 0.2033
H5E H 0.6519 1.2033 -0.1011
H5H H 1.1011 1.1519 0.2967
H5B H 0.7033 1.6011 0.3481
O2F O 0.38396(15) 0.57042(13) 0.50876(14)
O2I O -0.00876(14) 0.61604(15) 0.07042(13)
O2E O 0.61604(15) 1.07042(13) -0.00876(14)
O2H O 1.00876(14) 1.11604(15) 0.42958(13)
O2B O 0.57042(13) 1.50876(14) 0.38396(15)
O2K O 0.49124(14) 0.88396(15) -0.07042(13)
O2N O 0.25876(14) 0.82042(13) -0.13396(15)
O2W O 0.63396(15) 0.74124(14) 0.32042(13)
O2B_2 O 0.57042(13) 0.50876(14) 0.38396(15)
O2D O 0.11604(15) 0.42958(13) 0.00876(14)
O2P O 0.17958(13) 0.36604(15) 0.24124(14)
O2J O 0.50876(14) 0.38396(15) 0.57042(13)
O3R O 0.4917(4) 0.7035(3) 0.0351(3)
O3F O 0.4535(3) 0.7417(4) 0.2149(3)
O3L O 0.4649(3) 0.5083(4) 0.2035(3)
O3I O 0.2851(3) 0.5465(3) 0.2417(4)
O3U O 0.2965(3) 0.5351(3) 0.0083(4)
loop_
_geom_bond_atom_site_label_1
_geom_bond_atom_site_label_2
_geom_bond_site_symmetry_1
_geom_bond_site_symmetry_2
Cd1 Cl1 1_555 1_555
Na1 O1 1_555 1_555
N1 C2 1_555 1_555
Cl1 Cd1L 1_555 1_555
C1 O1 1_555 1_555
C2 N2 1_555 1_555
C3 C1 1_555 1_555
H1 C3 1_555 1_555
N2 C3 1_555 1_555
H2 N2 1_555 1_555
C4 C3 1_555 1_555
H3 C4 1_555 1_555
H4 C4 1_555 1_555
H5 C4 1_555 1_555
O2 Cd1 1_555 1_555
O3 Na1 1_555 1_555
Cd1L O2W 1_555 1_555
Cd1B Cl1B 1_555 1_555
Cd1C O2I 1_555 1_555
Cd1A O2H 1_555 1_555
Cd1B_2 O2B 1_555 1_555
Na1F O1F 1_555 1_555
Na1I O1I 1_555 1_555
Na1E O2 1_555 1_555
Na1J O2F 1_555 1_555
Na1C O2I 1_555 1_555
Na1K O2E 1_555 1_555
Na1H O1H 1_555 1_555
Na1A O2H 1_555 1_555
Na1B O1B 1_555 1_555
Na1F_2 O2B 1_555 1_555
N1I C2 1_555 1_555
N1F C2I 1_555 1_555
N1E C2E 1_555 1_555
N1B C2E 1_555 1_555
N1H C2B 1_555 1_555
C1F O1F 1_555 1_555
C1I O1I 1_555 1_555
C1E O1E 1_555 1_555
C1H O1H 1_555 1_555
C1B O1B 1_555 1_555
C2I N1I 1_555 1_555
C2F N1 1_555 1_555
C2E N2E 1_555 1_555
C2B N1B 1_555 1_555
C2H N1E 1_555 1_555
O1E Na1E 1_555 1_555
O1R Na1 1_555 1_555
O1L Na1F 1_555 1_555
O1U Na1I 1_555 1_555
C3F C1F 1_555 1_555
C3I C1I 1_555 1_555
C3E C1E 1_555 1_555
C3H C1H 1_555 1_555
C3B C1B 1_555 1_555
H1F C3F 1_555 1_555
H1I C3I 1_555 1_555
H1E C3E 1_555 1_555
H1H C3H 1_555 1_555
H1B C3B 1_555 1_555
N2F C2F 1_555 1_555
N2I C2I 1_555 1_555
N2E C3E 1_555 1_555
N2H C2H 1_555 1_555
N2B C2B 1_555 1_555
H2F N2F 1_555 1_555
H2I N2I 1_555 1_555
H2E N2E 1_555 1_555
H2H N2H 1_555 1_555
H2B N2B 1_555 1_555
C4F C3F 1_555 1_555
C4I C3I 1_555 1_555
C4E C3E 1_555 1_555
C4H C3H 1_555 1_555
C4B C3B 1_555 1_555
H3F C4F 1_555 1_555
H3I C4I 1_555 1_555
H3E C4E 1_555 1_555
H3H C4H 1_555 1_555
H3B C4B 1_555 1_555
H4F C4F 1_555 1_555
H4I C4I 1_555 1_555
H4E C4E 1_555 1_555
H4H C4H 1_555 1_555
H4B C4B 1_555 1_555
H5F C4F 1_555 1_555
H5I C4I 1_555 1_555
H5E C4E 1_555 1_555
H5H C4H 1_555 1_555
H5B C4B 1_555 1_555
O2F Cd1B 1_555 1_555
O2I C1I 1_555 1_555
O2E Cd1 1_555 1_555
O2H C1H 1_555 1_555
O2B C1B 1_555 1_555
O2K Cd1 1_555 1_555
O2N Na1 1_555 1_555
O2W Na1F 1_555 1_555
O2B_2 Cd1B 1_555 1_555
O2D Cd1C 1_555 1_555
O2P Na1I 1_555 1_555
O2J Cd1B 1_555 1_555
O3R Na1 1_555 1_555
O3F Na1F 1_555 1_555
O3L Na1F 1_555 1_555
O3I Na1I 1_555 1_555
O3U Na1I 1_555 1_555
Na1 O2K 1_555 1_555
C1 O2 1_555 1_555
Na1F O2B_2 1_555 1_555
Na1I O2D 1_555 1_555
N1F C2F 1_555 1_555
N1H C2H 1_555 1_555
C1F O2F 1_555 1_555
C1E O2E 1_555 1_555
C3F N2F 1_555 1_555
C3I N2I 1_555 1_555
C3H N2H 1_555 1_555
C3B N2B 1_555 1_555

#END
