
#######################################################################
#
#                 Cambridge Crystallographic Data Centre
#                                CCDC 
#
#######################################################################
#
# If this CIF has been generated from an entry in the Cambridge 
# Structural Database, then it will include bibliographic, chemical, 
# crystal, experimental, refinement or atomic coordinate data resulting 
# from the CCDC's data processing and validation procedures.
#
#######################################################################

data_QABZEY
_symmetry_cell_setting           triclinic
_symmetry_space_group_name_H-M   'P 1'
_symmetry_Int_Tables_number      1
_space_group_name_Hall           'P 1'
loop_
_symmetry_equiv_pos_site_id
_symmetry_equiv_pos_as_xyz
1 x,y,z
_cell_length_a                   7.478(1)
_cell_length_b                   9.297(2)
_cell_length_c                   9.814(2)
_cell_angle_alpha                87.38(3)
_cell_angle_beta                 67.81(3)
_cell_angle_gamma                84.21(3)
_cell_volume                     628.52
loop_
_atom_site_label
_atom_site_type_symbol
_atom_site_fract_x
_atom_site_fract_y
_atom_site_fract_z
Mn1 Mn -0.6000 0.2000 0.2000
Mn2 Mn -0.75412(7) -0.30327(5) 0.55592(6)
O1 O -0.4273(3) -0.6520(2) 0.2447(3)
O2 O -0.6052(3) -0.4593(2) 0.3689(2)
O3 O 0.0931(3) -0.3153(3) 0.2027(2)
O4 O -0.5719(3) -0.1268(2) 0.5257(2)
O5 O -0.6315(3) 0.0429(2) 0.3769(2)
O6 O -0.1748(3) 0.2790(2) 0.5628(3)
O7 O -0.8533(3) 0.3536(2) 0.3327(2)
O8 O -0.7790(3) 0.0704(2) 0.1329(3)
O9 O -0.5939(5) 0.3462(3) 0.0189(3)
O10 O -0.3408(3) 0.0699(3) 0.0757(3)
O11 O -0.5910(4) -0.4402(3) 0.6587(3)
O12 O -0.9244(3) -0.1874(3) 0.7585(3)
O13 O -1.0025(3) -0.4293(2) 0.6165(3)
O14 O -0.8754(3) -0.1752(2) 0.4182(3)
N1 N -0.0925(3) -0.5422(2) 0.1685(3)
N2 N -0.4634(3) 0.0561(3) 0.6732(3)
C1 C -0.4484(4) -0.5302(3) 0.3025(3)
C2 C -0.2600(4) -0.4716(3) 0.2935(3)
C3 C -0.2476(4) -0.3083(3) 0.2624(4)
C4 C -0.0502(4) -0.2977(3) 0.1390(3)
C5 C -0.0302(4) -0.4307(3) 0.0493(3)
C6 C -0.4547(4) 0.0997(3) 0.5217(3)
C7 C -0.5629(3) -0.0027(3) 0.4710(3)
C8 C -0.1482(4) 0.1263(3) 0.5393(3)
C9 C -0.2374(4) 0.0943(3) 0.4289(3)
C10 C -0.2632(5) 0.0452(4) 0.6742(4)
H1 H 0.2000(10) -0.334(6) 0.1380(8)
H2 H -0.150(7) 0.2965(5) 0.635(3)
H3 H 0.0056(3) -0.5726(2) 0.1978(3)
H4 H -0.1290(3) -0.6189(2) 0.1360(3)
H5 H -0.5403(3) 0.1222(3) 0.7390(3)
H6 H -0.5135(3) -0.0297(3) 0.6983(3)
H7 H -0.2404(4) -0.4947(3) 0.3856(3)
H8 H -0.3511(4) -0.2676(3) 0.2315(4)
H9 H -0.2559(4) -0.2578(3) 0.3492(4)
H10 H -0.0439(4) -0.2080(3) 0.0815(3)
H11 H -0.1147(4) -0.4197(3) -0.0057(3)
H12 H 0.1026(4) -0.4533(3) -0.0178(3)
H13 H -0.5141(4) 0.1988(3) 0.5234(3)
H14 H -0.0105(4) 0.0912(3) 0.5041(3)
H15 H -0.1882(4) -0.0003(3) 0.3856(3)
H16 H -0.2106(4) 0.1666(3) 0.3511(3)
H17 H -0.2107(5) -0.0550(4) 0.6701(4)
H18 H -0.2630(5) 0.0887(4) 0.7621(4)
H19 H -0.7992 0.4185 0.3690
H20 H -0.9306 0.3420 0.4089
H21 H -0.7490 -0.0009 0.0891
H22 H -0.8666 0.0954 0.1089
H23 H -0.6400 0.3288 -0.0511
H24 H -0.5677 0.4385 0.0170
H25 H -0.2325 0.0940 0.0483
H26 H -0.3483 -0.0113 0.0471
H27 H -0.5114 -0.4013 0.7071
H28 H -0.6387 -0.5275 0.7080
H29 H -1.0383 -0.1938 0.8087
H30 H -0.8740 -0.1802 0.8089
H31 H -1.1291 -0.3949 0.6286
H32 H -1.0048 -0.4988 0.6888
H33 H -0.8880 -0.2205 0.3528
H34 H -0.7976 -0.1106 0.3989
Mn1_2 Mn -0.6000 -0.8000 0.2000
O1_2 O -0.4273(3) 0.3480(2) 0.2447(3)
S1 S -0.45212(10) -1.25101(8) -0.08696(8)
O15 O -0.2989(3) -1.1928(3) -0.0528(2)
O16 O -0.5317(4) -1.3706(3) 0.0125(3)
O17 O -0.6086(4) -1.1358(3) -0.0717(3)
O18 O -0.3714(3) -1.2994(3) -0.2412(3)
S2 S -0.91773(10) -0.76545(7) -0.16648(8)
O19 O -1.0106(3) -0.7955(3) -0.0062(2)
O20 O -1.0492(4) -0.6629(3) -0.2099(3)
O21 O -0.8770(3) -0.8992(2) -0.2496(3)
O22 O -0.7326(3) -0.7015(2) -0.1937(2)
loop_
_geom_bond_atom_site_label_1
_geom_bond_atom_site_label_2
_geom_bond_site_symmetry_1
_geom_bond_site_symmetry_2
Mn1 O5 1_555 1_555
Mn2 O2 1_555 1_555
O1 C1 1_555 1_555
O2 C1 1_555 1_555
O3 C4 1_555 1_555
O4 Mn2 1_555 1_555
O5 C7 1_555 1_555
O6 C8 1_555 1_555
O7 Mn1 1_555 1_555
O8 Mn1 1_555 1_555
O9 Mn1 1_555 1_555
O10 Mn1 1_555 1_555
O11 Mn2 1_555 1_555
O12 Mn2 1_555 1_555
O13 Mn2 1_555 1_555
O14 Mn2 1_555 1_555
N1 C2 1_555 1_555
N2 C6 1_555 1_555
C1 C2 1_555 1_555
C2 C3 1_555 1_555
C3 C4 1_555 1_555
C4 C5 1_555 1_555
C5 N1 1_555 1_555
C6 C7 1_555 1_555
C7 O4 1_555 1_555
C8 C9 1_555 1_555
C9 C6 1_555 1_555
C10 N2 1_555 1_555
H1 O3 1_555 1_555
H2 O6 1_555 1_555
H3 N1 1_555 1_555
H4 N1 1_555 1_555
H5 N2 1_555 1_555
H6 N2 1_555 1_555
H7 C2 1_555 1_555
H8 C3 1_555 1_555
H9 C3 1_555 1_555
H10 C4 1_555 1_555
H11 C5 1_555 1_555
H12 C5 1_555 1_555
H13 C6 1_555 1_555
H14 C8 1_555 1_555
H15 C9 1_555 1_555
H16 C9 1_555 1_555
H17 C10 1_555 1_555
H18 C10 1_555 1_555
H19 O7 1_555 1_555
H20 O7 1_555 1_555
H21 O8 1_555 1_555
H22 O8 1_555 1_555
H23 O9 1_555 1_555
H24 O9 1_555 1_555
H25 O10 1_555 1_555
H26 O10 1_555 1_555
H27 O11 1_555 1_555
H28 O11 1_555 1_555
H29 O12 1_555 1_555
H30 O12 1_555 1_555
H31 O13 1_555 1_555
H32 O13 1_555 1_555
H33 O14 1_555 1_555
H34 O14 1_555 1_555
S1 O15 1_555 1_555
O16 S1 1_555 1_555
O17 S1 1_555 1_555
O18 S1 1_555 1_555
S2 O19 1_555 1_555
O20 S2 1_555 1_555
O21 S2 1_555 1_555
O22 S2 1_555 1_555
Mn1_2 O1 1_555 1_555
O1_2 Mn1 1_555 1_555
C8 C10 1_555 1_555

#END
