
#######################################################################
#
#                 Cambridge Crystallographic Data Centre
#                                CCDC 
#
#######################################################################
#
# If this CIF has been generated from an entry in the Cambridge 
# Structural Database, then it will include bibliographic, chemical, 
# crystal, experimental, refinement or atomic coordinate data resulting 
# from the CCDC's data processing and validation procedures.
#
#######################################################################

data_QACCOO
_symmetry_cell_setting           triclinic
_symmetry_space_group_name_H-M   'P 1'
_symmetry_Int_Tables_number      1
_space_group_name_Hall           'P 1'
loop_
_symmetry_equiv_pos_site_id
_symmetry_equiv_pos_as_xyz
1 x,y,z
_cell_length_a                   4.8975(2)
_cell_length_b                   6.4325(3)
_cell_length_c                   9.1735(5)
_cell_angle_alpha                99.566(5)
_cell_angle_beta                 98.283(4)
_cell_angle_gamma                105.932(4)
_cell_volume                     268.491
loop_
_atom_site_label
_atom_site_type_symbol
_atom_site_fract_x
_atom_site_fract_y
_atom_site_fract_z
K1 K 0.33792(13) 0.51143(10) 0.88355(8)
S1 S 0.55267(15) 0.04688(11) 0.72783(9)
O1 O 0.3546(5) 0.1342(4) 0.6387(3)
O2 O 0.4204(5) -0.0632(4) 0.8380(3)
O3 O 0.8244(5) 0.2167(4) 0.7950(3)
C1 C 0.6367(7) -0.1602(5) 0.5963(4)
H1 H 0.7516 -0.2349 0.6525
O4 O 0.7988(5) -0.0528(4) 0.4998(3)
C2 C 0.3647(7) -0.3313(5) 0.4981(4)
H2 H 0.2497 -0.2564 0.4421
O5 O 0.2021(5) -0.4396(4) 0.5949(3)
C3 C 0.4441(7) -0.4998(5) 0.3865(4)
H3 H 0.5471 -0.4218 0.3179
O6 O 0.6318(5) -0.5982(4) 0.4650(3)
C4 C 0.1741(7) -0.6805(5) 0.2926(4)
H4 H 0.0526 -0.7395 0.3614
O7 O 0.0192(5) -0.5766(4) 0.1996(3)
C5 C 0.2466(7) -0.8715(6) 0.2006(4)
H5 H 0.3526 -0.9364 0.2700
O8 O 0.4295(5) -0.7877(4) 0.1010(3)
C6 C -0.0312(7) -1.0493(5) 0.1139(4)
H6 H -0.1628 -1.0824 0.1824
H7 H -0.1238 -0.9918 0.0360
O9 O 0.0163(6) -1.2504(4) 0.0454(3)
H8 H 0.983(13) 0.041(10) 0.554(7)
H9 H 0.041(9) -0.483(7) 0.551(5)
H10 H 0.531(9) -0.687(7) 0.519(5)
H11 H -0.121(11) -0.654(8) 0.169(6)
H12 H 0.401(8) -0.879(7) 0.030(5)
H13 H 0.028(11) -1.304(9) 0.106(6)
K1_2 K 0.33792(13) -0.48857(10) 0.88355(8)
K1_3 K 1.33792(13) 0.51143(10) 0.88355(8)
K1_4 K 0.33792(13) -0.48857(10) -0.11645(8)
K1_5 K 0.33792(13) -1.48857(10) -0.11645(8)
O2_2 O 0.4204(5) 0.9368(4) 0.8380(3)
O3_2 O -0.1756(5) 0.2167(4) 0.7950(3)
O5_2 O 0.2021(5) 0.5604(4) 0.5949(3)
O8_2 O 0.4295(5) 0.2123(4) 1.1010(3)
O9_2 O 0.0163(6) 0.7496(4) 1.0454(3)
H9_2 H 0.041(9) 0.517(7) 0.551(5)
H12_2 H 0.401(8) 0.121(7) 1.030(5)
H13_2 H 0.028(11) 0.696(9) 1.106(6)
loop_
_geom_bond_atom_site_label_1
_geom_bond_atom_site_label_2
_geom_bond_site_symmetry_1
_geom_bond_site_symmetry_2
K1 O1 1_555 1_555
S1 O1 1_555 1_555
O2 S1 1_555 1_555
O3 S1 1_555 1_555
C1 S1 1_555 1_555
H1 C1 1_555 1_555
O4 C1 1_555 1_555
C2 C1 1_555 1_555
H2 C2 1_555 1_555
O5 C2 1_555 1_555
C3 C2 1_555 1_555
H3 C3 1_555 1_555
O6 C3 1_555 1_555
C4 C3 1_555 1_555
H4 C4 1_555 1_555
O7 C4 1_555 1_555
C5 C4 1_555 1_555
H5 C5 1_555 1_555
O8 C5 1_555 1_555
C6 C5 1_555 1_555
H6 C6 1_555 1_555
H7 C6 1_555 1_555
O9 C6 1_555 1_555
H8 O4 1_555 1_555
H9 O5 1_555 1_555
H10 O6 1_555 1_555
H11 O7 1_555 1_555
H12 O8 1_555 1_555
H13 O9 1_555 1_555
K1_2 O2 1_555 1_555
K1_3 O3 1_555 1_555
K1_4 O8 1_555 1_555
K1_5 O9 1_555 1_555
O2_2 K1 1_555 1_555
O3_2 K1 1_555 1_555
O5_2 K1 1_555 1_555
O8_2 K1 1_555 1_555
O9_2 K1 1_555 1_555
H9_2 O5_2 1_555 1_555
H12_2 O8_2 1_555 1_555
H13_2 O9_2 1_555 1_555
O5 K1_2 1_555 1_555

#END
