
#######################################################################
#
#                 Cambridge Crystallographic Data Centre
#                                CCDC 
#
#######################################################################
#
# If this CIF has been generated from an entry in the Cambridge 
# Structural Database, then it will include bibliographic, chemical, 
# crystal, experimental, refinement or atomic coordinate data resulting 
# from the CCDC's data processing and validation procedures.
#
#######################################################################

data_QACKAG
_symmetry_cell_setting           monoclinic
_symmetry_space_group_name_H-M   'P 21/n'
_symmetry_Int_Tables_number      14
_space_group_name_Hall           '-P 2yn'
loop_
_symmetry_equiv_pos_site_id
_symmetry_equiv_pos_as_xyz
1 x,y,z
2 1/2-x,1/2+y,1/2-z
3 -x,-y,-z
4 1/2+x,1/2-y,1/2+z
_cell_length_a                   11.6091(12)
_cell_length_b                   12.9756(10)
_cell_length_c                   20.4739(4)
_cell_angle_alpha                90
_cell_angle_beta                 104.3162(5)
_cell_angle_gamma                90
_cell_volume                     2988.31
loop_
_atom_site_label
_atom_site_type_symbol
_atom_site_fract_x
_atom_site_fract_y
_atom_site_fract_z
O13 O -0.077(2) 0.6849(12) 0.5332(6)
H21 H -0.0185 0.6889 0.5700
H22 H -0.1115 0.7479 0.5266
Pt1 Pt 0.47345(3) 0.58466(3) 0.45779(2)
Ag1 Ag 0.33193(8) 0.67590(7) 0.64129(4)
Ag2 Ag 0.43494(11) 1.05562(9) 0.66974(6)
P1 P 0.2881(2) 0.5679(2) 0.47208(12)
P2 P 0.4073(2) 0.4828(2) 0.36837(12)
O1 O 0.1098(1) 0.6941(9) 0.6500(6)
O2 O 0.3495(10) 1.1652(8) 0.7422(6)
O3 O 0.5287(9) 1.1667(8) 0.8003(5)
O4 O 0.3745(9) 0.8614(8) 0.6814(4)
O5 O 0.4374(9) 0.7718(7) 0.7696(5)
O6 O 0.4911(8) 0.9300(6) 0.7680(4)
O7 O 0.3513(12) 1.0598(12) 0.5514(6)
O8 O 0.2061(14) 1.0882(11) 0.5910(7)
O9 O 0.1886(15) 1.1134(13) 0.4888(8)
O10 O 0.6819(2) 1.0881(9) 0.6895(7)
O11 O 0.5672(11) 1.2005(12) 0.6345(5)
O12 O 0.7375(13) 1.2445(11) 0.6898(6)
N1 N 0.6454(7) 0.5854(6) 0.4363(4)
N2 N 0.2444(8) 0.7390(6) 0.5368(4)
N3 N 0.5330(7) 0.6847(6) 0.5419(4)
N4 N 0.4369(8) 0.5528(7) 0.7084(4)
N5 N 0.0775(10) 0.6747(8) 0.7019(6)
N6 N 0.4338(8) 0.8541(8) 0.7408(5)
N7 N 0.2481(14) 1.0913(10) 0.5447(8)
N8 N 0.6627(10) 1.1773(9) 0.6700(5)
C1 C 0.1975(8) 0.4914(8) 0.4018(5)
C2 C 0.2474(8) 0.5006(7) 0.3390(4)
C3 C 0.2753(8) 0.4869(7) 0.5437(4)
C4 C 0.1747(8) 0.4921(8) 0.5668(5)
C5 C 0.1584(10) 0.4239(9) 0.6154(6)
C6 C 0.2369(11) 0.3437(9) 0.6342(6)
C7 C 0.6588(10) 0.6593(8) 0.3901(5)
C8 C 0.2118(9) 0.6871(8) 0.4788(5)
C9 C 0.1310(10) 0.7249(9) 0.4214(6)
C10 C 0.0775(12) 0.8203(10) 0.4272(6)
C11 C 0.1100(13) 0.8705(10) 0.4851(7)
C12 C 0.1906(11) 0.8301(9) 0.5402(6)
C13 C 0.4240(8) 0.3452(8) 0.3906(5)
C14 C 0.3842(9) 0.2741(8) 0.3410(5)
C15 C 0.3871(10) 0.1701(8) 0.3574(6)
C16 C 0.4267(11) 0.1411(8) 0.4225(6)
C17 C 0.5326(9) 0.7823(8) 0.5298(5)
C18 C 0.4686(9) 0.5013(8) 0.2950(4)
C19 C 0.4160(11) 0.5753(9) 0.2490(6)
C20 C 0.4646(12) 0.5915(10) 0.1931(6)
C21 C 0.5580(15) 0.5350(11) 0.1888(6)
C22 C 0.3903(11) 0.5332(10) 0.7627(6)
H1 H 0.1987 0.4189 0.4154
H2 H 0.1155 0.5169 0.3910
H3 H 0.2296 0.5688 0.3184
H4 H 0.2130 0.4474 0.3060
H5 H 0.1141 0.5442 0.5488
H6 H 0.0916 0.4325 0.6362
H7 H 0.2211 0.2893 0.6641
H8 H 0.5981 0.7123 0.3746
H9 H 0.1126 0.6863 0.3790
H10 H 0.0174 0.8490 0.3893
H11 H 0.0758 0.9386 0.4890
H12 H 0.2091 0.8685 0.5828
H13 H 0.3537 0.2963 0.2942
H14 H 0.3608 0.1182 0.3221
H15 H 0.4267 0.0686 0.4357
H16 H 0.5009 0.8044 0.4830
H17 H 0.3476 0.6150 0.2549
H18 H 0.4305 0.6428 0.1586
H19 H 0.5904 0.5429 0.1492
H20 H 0.3180 0.5694 0.7664
Pt1B Pt 0.52655(3) 0.41534(3) 0.54221(2)
P1B P 0.7119(2) 0.4321(2) 0.52792(12)
C1B C 0.8025(8) 0.5086(8) 0.5982(5)
C2B C 0.7526(8) 0.4994(7) 0.6610(4)
P2B P 0.5927(2) 0.5172(2) 0.63163(12)
N1B N 0.3546(7) 0.4146(6) 0.5637(4)
O2A O 0.1505(10) 0.6652(8) 0.7578(6)
Ag2A Ag 0.06506(11) 0.55562(9) 0.83026(6)
O3A O -0.0287(9) 0.6667(8) 0.6997(5)
O4A O 0.1255(9) 0.3614(8) 0.8186(4)
Ag1A Ag 0.16807(8) 0.17590(7) 0.85871(4)
O1A O 0.3902(1) 0.1941(9) 0.8500(6)
N5A N 0.4225(10) 0.1747(8) 0.7981(6)
O2_2 O 0.3495(10) 0.1652(8) 0.7422(6)
Ag2_2 Ag 0.43494(11) 0.05562(9) 0.66974(6)
O3_2 O 0.5287(9) 0.1667(8) 0.8003(5)
O4_2 O 0.3745(9) -0.1386(8) 0.6814(4)
Ag1_2 Ag 0.33193(8) -0.32410(7) 0.64129(4)
O1_2 O 0.1098(1) -0.3059(9) 0.6500(6)
O5_2 O 0.4374(9) -0.2282(7) 0.7696(5)
N6_2 N 0.4338(8) -0.1459(8) 0.7408(5)
O6_2 O 0.4911(8) -0.0700(6) 0.7680(4)
O7_2 O 0.3513(12) 0.0598(12) 0.5514(6)
N7_2 N 0.2481(14) 0.0913(10) 0.5447(8)
O8_2 O 0.2061(14) 0.0882(11) 0.5910(7)
O10_2 O 0.6819(2) 0.0881(9) 0.6895(7)
N8_2 N 0.6627(10) 0.1773(9) 0.6700(5)
O11_2 O 0.5672(11) 0.2005(12) 0.6345(5)
O12_2 O 0.7375(13) 0.2445(11) 0.6898(6)
O9_2 O 0.1886(15) 0.1134(13) 0.4888(8)
N2_2 N 0.2444(8) -0.2610(6) 0.5368(4)
N4_2 N 0.4369(8) -0.4472(7) 0.7084(4)
C18B C 0.5314(9) -0.5013(8) 0.7050(4)
P2B_2 P 0.5927(2) -0.4828(2) 0.63163(12)
Pt1B_2 Pt 0.52655(3) -0.58466(3) 0.54221(2)
C2B_2 C 0.7526(8) -0.5006(7) 0.6610(4)
C13B C 0.5760(8) -0.3452(8) 0.6094(5)
N3_2 N 0.5330(7) -0.3153(6) 0.5419(4)
Pt1_2 Pt 0.47345(3) -0.41534(3) 0.45779(2)
P1_2 P 0.2881(2) -0.4321(2) 0.47208(12)
P2_2 P 0.4073(2) -0.5172(2) 0.36837(12)
N1_2 N 0.6454(7) -0.4146(6) 0.4363(4)
C3B C 0.7247(8) -0.4869(7) 0.4563(4)
P1B_2 P 0.7119(2) -0.5679(2) 0.52792(12)
C1B_2 C 0.8025(8) -0.4914(8) 0.5982(5)
C8B C 0.7882(9) -0.6871(8) 0.5212(5)
N2B N 0.7556(8) -0.7390(6) 0.4632(4)
Ag1B Ag 0.66807(8) -0.67590(7) 0.35871(4)
O1B O 0.8902(1) -0.6941(9) 0.3500(6)
N5B N 0.9225(10) -0.6747(8) 0.2981(6)
O2C O 0.8495(10) -0.6652(8) 0.2422(6)
Ag2C Ag 0.93494(11) -0.55562(9) 0.16974(6)
O3C O 1.0287(9) -0.6667(8) 0.3003(5)
O4C O 0.8745(9) -0.3614(8) 0.1814(4)
Ag1C Ag 0.83193(8) -0.17590(7) 0.14129(4)
O1C O 0.6098(1) -0.1941(9) 0.1500(6)
N5C N 0.5775(10) -0.1747(8) 0.2019(6)
O2B O 0.6505(10) -0.1652(8) 0.2578(6)
Ag2B Ag 0.56506(11) -0.05562(9) 0.33026(6)
O3B O 0.4713(9) -0.1667(8) 0.1997(5)
O4B O 0.6255(9) 0.1386(8) 0.3186(4)
Ag1B_2 Ag 0.66807(8) 0.32410(7) 0.35871(4)
O1B_2 O 0.8902(1) 0.3059(9) 0.3500(6)
O5B O 0.5626(9) 0.2282(7) 0.2304(5)
N6B N 0.5662(8) 0.1459(8) 0.2592(5)
O6B O 0.5089(8) 0.0700(6) 0.2320(4)
O7B O 0.6487(12) -0.0598(12) 0.4486(6)
N7B N 0.7519(14) -0.0913(10) 0.4553(8)
O8B O 0.7939(14) -0.0882(11) 0.4090(7)
O10B O 0.3181(2) -0.0881(9) 0.3105(7)
N8B N 0.3373(10) -0.1773(9) 0.3300(5)
O11B O 0.4328(11) -0.2005(12) 0.3655(5)
O12B O 0.2625(13) -0.2445(11) 0.3102(6)
O9B O 0.8114(15) -0.1134(13) 0.5112(8)
N2B_2 N 0.7556(8) 0.2610(6) 0.4632(4)
N4B N 0.5631(8) 0.4472(7) 0.2916(4)
N3B N 0.4670(7) 0.3153(6) 0.4581(4)
C17B C 0.4674(9) 0.2177(8) 0.4702(5)
H16B H 0.4991 0.1956 0.5170
C22B C 0.6097(11) 0.4668(10) 0.2373(6)
H20B H 0.6820 0.4306 0.2336
O5C O 0.9374(9) -0.2718(7) 0.2696(5)
N6C N 0.9338(8) -0.3541(8) 0.2408(5)
O6C O 0.9911(8) -0.4300(6) 0.2680(4)
O7C O 0.8513(12) -0.5598(12) 0.0514(6)
N7C N 0.7481(14) -0.5913(10) 0.0447(8)
O8C O 0.7061(14) -0.5882(11) 0.0910(7)
O10C O 1.1819(2) -0.5881(9) 0.1895(7)
N8C N 1.1627(10) -0.6773(9) 0.1700(5)
O11C O 1.0672(11) -0.7005(12) 0.1345(5)
O12C O 1.2375(13) -0.7445(11) 0.1898(6)
O9C O 0.6886(15) -0.6134(13) -0.0112(8)
N2C N 0.7444(8) -0.2390(6) 0.0368(4)
C8C C 0.7118(9) -0.1871(8) -0.0212(5)
P1C P 0.7881(2) -0.0679(2) -0.02792(12)
Pt1C Pt 0.97345(3) -0.08466(3) -0.04221(2)
Pt1A Pt 1.02655(3) 0.08466(3) 0.04221(2)
P1A P 1.2119(2) 0.0679(2) 0.02792(12)
C1A C 1.3025(8) -0.0086(8) 0.0982(5)
C2A C 1.2526(8) 0.0006(7) 0.1610(4)
P2A P 1.0927(2) -0.0172(2) 0.13163(12)
N1A N 0.8546(7) 0.0854(6) 0.0637(4)
C3C C 0.7753(8) 0.0131(7) 0.0437(4)
C1C C 0.6975(8) 0.0086(8) -0.0982(5)
C2C C 0.7474(8) -0.0006(7) -0.1610(4)
P2C P 0.9073(2) 0.0172(2) -0.13163(12)
N1C N 1.1454(7) -0.0854(6) -0.0637(4)
C3A C 1.2247(8) -0.0131(7) -0.0437(4)
C8A C 1.2882(9) 0.1871(8) 0.0212(5)
N2A N 1.2556(8) 0.2390(6) -0.0368(4)
Ag1A_2 Ag 1.16807(8) 0.17590(7) -0.14129(4)
O1A_2 O 1.3902(1) 0.1941(9) -0.1500(6)
O4A_2 O 1.1255(9) 0.3614(8) -0.1814(4)
O5A O 1.0626(9) 0.2718(7) -0.2696(5)
N6A N 1.0662(8) 0.3541(8) -0.2408(5)
Ag2A_2 Ag 1.06506(11) 0.55562(9) -0.16974(6)
O6A O 1.0089(8) 0.4300(6) -0.2680(4)
O2A_2 O 1.1505(10) 0.6652(8) -0.2422(6)
O3A_2 O 0.9713(9) 0.6667(8) -0.3003(5)
O7A O 1.1487(12) 0.5598(12) -0.0514(6)
N7A N 1.2519(14) 0.5913(10) -0.0447(8)
O8A O 1.2939(14) 0.5882(11) -0.0910(7)
O10A O 0.8181(2) 0.5881(9) -0.1895(7)
N8A N 0.8373(10) 0.6773(9) -0.1700(5)
O11A O 0.9328(11) 0.7005(12) -0.1345(5)
O12A O 0.7625(13) 0.7445(11) -0.1898(6)
O9A O 1.3114(15) 0.6134(13) 0.0112(8)
N4A N 1.0631(8) 0.0528(7) -0.2084(4)
C18C C 0.9686(9) -0.0013(8) -0.2050(4)
C13C C 0.9240(8) 0.1548(8) -0.1094(5)
N3A N 0.9670(7) 0.1847(6) -0.0419(4)
C17A C 0.9674(9) 0.2823(8) -0.0298(5)
C16C C 0.9267(11) 0.3589(8) -0.0775(6)
C15C C 0.8871(10) 0.3299(8) -0.1426(6)
C14C C 0.8842(9) 0.2259(8) -0.1590(5)
H13C H 0.8537 0.2037 -0.2058
H14C H 0.8608 0.3818 -0.1779
H15C H 0.9267 0.4314 -0.0643
H16A H 0.9991 0.3044 0.0170
C19C C 0.9160(11) -0.0753(9) -0.2510(6)
C20C C 0.9646(12) -0.0915(10) -0.3069(6)
C21C C 1.0580(15) -0.0350(11) -0.3112(6)
C22A C 1.1097(11) 0.0332(10) -0.2627(6)
H20A H 1.1820 0.0694 -0.2664
H19C H 1.0904 -0.0429 -0.3508
H18C H 0.9305 -0.1428 -0.3414
H17C H 0.8476 -0.1150 -0.2451
C12A C 1.3094(11) 0.3301(9) -0.0402(6)
C11A C 1.3900(13) 0.3705(10) 0.0149(7)
C10A C 1.4225(12) 0.3203(10) 0.0728(6)
C9A C 1.3690(10) 0.2249(9) 0.0786(6)
H9A H 1.3874 0.1863 0.1210
H10A H 1.4826 0.3490 0.1107
H11A H 1.4242 0.4386 0.0110
H12A H 1.2909 0.3685 -0.0828
C4A C 1.3253(8) -0.0079(8) -0.0668(5)
C5A C 1.3416(10) -0.0761(9) -0.1154(6)
C6A C 1.2631(11) -0.1563(9) -0.1342(6)
C7C C 1.1588(10) -0.1593(8) -0.1099(5)
H8C H 1.0981 -0.2123 -0.1254
H7A H 1.2789 -0.2107 -0.1641
H6A H 1.4084 -0.0675 -0.1362
H5A H 1.3859 0.0442 -0.0488
N3C N 1.0330(7) -0.1847(6) 0.0419(4)
C13A C 1.0760(8) -0.1548(8) 0.1094(5)
C18A C 1.0314(9) 0.0013(8) 0.2050(4)
N4C N 0.9369(8) -0.0528(7) 0.2084(4)
C22C C 0.8903(11) -0.0332(10) 0.2627(6)
C21A C 0.9420(15) 0.0350(11) 0.3112(6)
C20A C 1.0354(12) 0.0915(10) 0.3069(6)
C19A C 1.0840(11) 0.0753(9) 0.2510(6)
H17A H 1.1524 0.1150 0.2451
H18A H 1.0695 0.1428 0.3414
H19A H 0.9096 0.0429 0.3508
H20C H 0.8180 -0.0694 0.2664
C14A C 1.1158(9) -0.2259(8) 0.1590(5)
C15A C 1.1129(10) -0.3299(8) 0.1426(6)
C16A C 1.0733(11) -0.3589(8) 0.0775(6)
C17C C 1.0326(9) -0.2823(8) 0.0298(5)
H16C H 1.0009 -0.3044 -0.0170
H15A H 1.0733 -0.4314 0.0643
H14A H 1.1392 -0.3818 0.1779
H13A H 1.1463 -0.2037 0.2058
H3C H 0.7296 -0.0688 -0.1816
H4C H 0.7130 0.0526 -0.1940
H1C H 0.6987 0.0811 -0.0846
H2C H 0.6155 -0.0169 -0.1090
C4C C 0.6747(8) 0.0079(8) 0.0668(5)
C5C C 0.6584(10) 0.0761(9) 0.1154(6)
C6C C 0.7369(11) 0.1563(9) 0.1342(6)
C7A C 0.8412(10) 0.1593(8) 0.1099(5)
H8A H 0.9019 0.2123 0.1254
H7C H 0.7211 0.2107 0.1641
H6C H 0.5916 0.0675 0.1362
H5C H 0.6141 -0.0442 0.0488
H3A H 1.2704 0.0688 0.1816
H4A H 1.2870 -0.0526 0.1940
H1A H 1.3013 -0.0811 0.0846
H2A H 1.3845 0.0169 0.1090
C9C C 0.6310(10) -0.2249(9) -0.0786(6)
C10C C 0.5775(12) -0.3203(10) -0.0728(6)
C11C C 0.6100(13) -0.3705(10) -0.0149(7)
C12C C 0.6906(11) -0.3301(9) 0.0402(6)
H12C H 0.7091 -0.3685 0.0828
H11C H 0.5758 -0.4386 -0.0110
H10C H 0.5174 -0.3490 -0.1107
H9C H 0.6126 -0.1863 -0.1210
O4B_2 O 0.6255(9) -0.8614(8) 0.3186(4)
O5B_2 O 0.5626(9) -0.7718(7) 0.2304(5)
N4B_2 N 0.5631(8) -0.5528(7) 0.2916(4)
C12B C 0.8094(11) -0.8301(9) 0.4598(6)
C11B C 0.8900(13) -0.8705(10) 0.5149(7)
C10B C 0.9225(12) -0.8203(10) 0.5728(6)
C9B C 0.8690(10) -0.7249(9) 0.5786(6)
H9B H 0.8874 -0.6863 0.6210
H10B H 0.9826 -0.8490 0.6107
H11B H 0.9242 -0.9386 0.5110
H12B H 0.7909 -0.8685 0.4172
C4B C 0.8253(8) -0.4921(8) 0.4332(5)
C5B C 0.8416(10) -0.4239(9) 0.3846(6)
C6B C 0.7631(11) -0.3437(9) 0.3658(6)
C7_2 C 0.6588(10) -0.3407(8) 0.3901(5)
H8_2 H 0.5981 -0.2877 0.3746
H7B H 0.7789 -0.2893 0.3359
H6B H 0.9084 -0.4325 0.3638
H5B H 0.8859 -0.5442 0.4512
C17_2 C 0.5326(9) -0.2177(8) 0.5298(5)
C16B C 0.5733(11) -0.1411(8) 0.5775(6)
C15B C 0.6129(10) -0.1701(8) 0.6426(6)
C14B C 0.6158(9) -0.2741(8) 0.6590(5)
H13B H 0.6463 -0.2963 0.7058
H14B H 0.6392 -0.1182 0.6779
H15B H 0.5733 -0.0686 0.5643
H16_2 H 0.5009 -0.1956 0.4830
C19B C 0.5840(11) -0.5753(9) 0.7510(6)
C20B C 0.5354(12) -0.5915(10) 0.8069(6)
C21B C 0.4420(15) -0.5350(11) 0.8112(6)
C22_2 C 0.3903(11) -0.4668(10) 0.7627(6)
H20_2 H 0.3180 -0.4306 0.7664
H19B H 0.4096 -0.5429 0.8508
H18B H 0.5695 -0.6428 0.8414
H17B H 0.6524 -0.6150 0.7451
O5A_2 O 0.0626(9) 0.2718(7) 0.7304(5)
N2A_2 N 0.2556(8) 0.2390(6) 0.9632(4)
N4A_2 N 0.0631(8) 0.0528(7) 0.7916(4)
N6A_2 N 0.0662(8) 0.3541(8) 0.7592(5)
O6A_2 O 0.0089(8) 0.4300(6) 0.7320(4)
O7A_2 O 0.1487(12) 0.5598(12) 0.9486(6)
O8A_2 O 0.2939(14) 0.5882(11) 0.9090(7)
O10A_2 O -0.1819(2) 0.5881(9) 0.8105(7)
O11A_2 O -0.0672(11) 0.7005(12) 0.8655(5)
C7B C 0.3412(10) 0.3407(8) 0.6099(5)
H8B H 0.4019 0.2877 0.6254
C13B_2 C 0.5760(8) 0.6548(8) 0.6094(5)
C18B_2 C 0.5314(9) 0.4987(8) 0.7050(4)
H3B H 0.7704 0.4312 0.6816
H4B H 0.7870 0.5526 0.6940
H1B H 0.8013 0.5811 0.5846
H2B H 0.8845 0.4831 0.6090
C3B_2 C 0.7247(8) 0.5131(7) 0.4563(4)
C8B_2 C 0.7882(9) 0.3129(8) 0.5212(5)
N5A_2 N 0.4225(10) 1.1747(8) 0.7981(6)
C6B_2 C 0.7631(11) 0.6563(9) 0.3658(6)
C16B_2 C 0.5733(11) 0.8589(8) 0.5775(6)
C21B_2 C 0.4420(15) 0.4650(11) 0.8112(6)
H1B_2 H 0.8013 -0.4189 0.5846
H2B_2 H 0.8845 -0.5169 0.6090
H3B_2 H 0.7704 -0.5688 0.6816
H4B_2 H 0.7870 -0.4474 0.6940
C9B_2 C 0.8690(10) 0.2751(9) 0.5786(6)
C12B_2 C 0.8094(11) 0.1699(9) 0.4598(6)
loop_
_geom_bond_atom_site_label_1
_geom_bond_atom_site_label_2
_geom_bond_site_symmetry_1
_geom_bond_site_symmetry_2
Pt1 P1 1_555 1_555
Ag1 O1 1_555 1_555
Ag2 O2 1_555 1_555
P1 C1 1_555 1_555
P2 Pt1 1_555 1_555
O1 N5 1_555 1_555
O2 N5A_2 1_555 1_555
O3 Ag2 1_555 1_555
O4 Ag1 1_555 1_555
O5 Ag1 1_555 1_555
O6 Ag2 1_555 1_555
O7 Ag2 1_555 1_555
O8 Ag2 1_555 1_555
O9 N7 1_555 1_555
O10 Ag2 1_555 1_555
O11 Ag2 1_555 1_555
O12 N8 1_555 1_555
O13 H21 1_555 1_555
N1 Pt1 1_555 1_555
N2 Ag1 1_555 1_555
N3 Pt1 1_555 1_555
N4 Ag1 1_555 1_555
N5 O2A 1_555 1_555
N6 O4 1_555 1_555
N7 O7 1_555 1_555
N8 O10 1_555 1_555
C1 C2 1_555 1_555
C2 P2 1_555 1_555
C3 P1 1_555 1_555
C4 C3 1_555 1_555
C5 C4 1_555 1_555
C6 C5 1_555 1_555
C7 N1 1_555 1_555
C8 P1 1_555 1_555
C9 C8 1_555 1_555
C10 C9 1_555 1_555
C11 C10 1_555 1_555
C12 N2 1_555 1_555
C13 P2 1_555 1_555
C14 C13 1_555 1_555
C15 C14 1_555 1_555
C16 C15 1_555 1_555
C17 N3 1_555 1_555
C18 P2 1_555 1_555
C19 C18 1_555 1_555
C20 C19 1_555 1_555
C21 C20 1_555 1_555
C22 N4 1_555 1_555
H1 C1 1_555 1_555
H2 C1 1_555 1_555
H3 C2 1_555 1_555
H4 C2 1_555 1_555
H5 C4 1_555 1_555
H6 C5 1_555 1_555
H7 C6 1_555 1_555
H8 C7 1_555 1_555
H9 C9 1_555 1_555
H10 C10 1_555 1_555
H11 C11 1_555 1_555
H12 C12 1_555 1_555
H13 C14 1_555 1_555
H14 C15 1_555 1_555
H15 C16 1_555 1_555
H16 C17 1_555 1_555
H17 C19 1_555 1_555
H18 C20 1_555 1_555
H19 C21 1_555 1_555
H20 C22 1_555 1_555
H22 O13 1_555 1_555
Pt1B Pt1 1_555 1_555
P1B Pt1B 1_555 1_555
C1B P1B 1_555 1_555
C2B C1B 1_555 1_555
P2B Pt1B 1_555 1_555
N1B C3 1_555 1_555
O2A Ag2A 1_555 1_555
Ag2A O3A 1_555 1_555
O3A N5 1_555 1_555
O4A Ag2A 1_555 1_555
Ag1A O4A 1_555 1_555
O1A Ag1A 1_555 1_555
N5A O1A 1_555 1_555
O2_2 N5A 1_555 1_555
Ag2_2 O2_2 1_555 1_555
O3_2 N5A 1_555 1_555
O4_2 Ag2_2 1_555 1_555
Ag1_2 O4_2 1_555 1_555
O1_2 Ag1_2 1_555 1_555
O5_2 Ag1_2 1_555 1_555
N6_2 O4_2 1_555 1_555
O6_2 Ag2_2 1_555 1_555
O7_2 Ag2_2 1_555 1_555
N7_2 O7_2 1_555 1_555
O8_2 Ag2_2 1_555 1_555
O10_2 Ag2_2 1_555 1_555
N8_2 O10_2 1_555 1_555
O11_2 Ag2_2 1_555 1_555
O12_2 N8_2 1_555 1_555
O9_2 N7_2 1_555 1_555
N2_2 Ag1_2 1_555 1_555
N4_2 Ag1_2 1_555 1_555
C18B N4_2 1_555 1_555
P2B_2 C18B 1_555 1_555
Pt1B_2 P2B_2 1_555 1_555
C2B_2 P2B_2 1_555 1_555
C13B P2B_2 1_555 1_555
N3_2 C13B 1_555 1_555
Pt1_2 Pt1B_2 1_555 1_555
P1_2 Pt1_2 1_555 1_555
P2_2 Pt1_2 1_555 1_555
N1_2 Pt1_2 1_555 1_555
C3B N1_2 1_555 1_555
P1B_2 Pt1B_2 1_555 1_555
C1B_2 C2B_2 1_555 1_555
C8B P1B_2 1_555 1_555
N2B C8B 1_555 1_555
Ag1B N2B 1_555 1_555
O1B Ag1B 1_555 1_555
N5B O1B 1_555 1_555
O2C N5B 1_555 1_555
Ag2C O2C 1_555 1_555
O3C N5B 1_555 1_555
O4C Ag2C 1_555 1_555
Ag1C O4C 1_555 1_555
O1C Ag1C 1_555 1_555
N5C O1C 1_555 1_555
O2B N5C 1_555 1_555
Ag2B O2B 1_555 1_555
O3B N5C 1_555 1_555
O4B Ag2B 1_555 1_555
Ag1B_2 O4B 1_555 1_555
O1B_2 Ag1B_2 1_555 1_555
O5B Ag1B_2 1_555 1_555
N6B O4B 1_555 1_555
O6B Ag2B 1_555 1_555
O7B Ag2B 1_555 1_555
N7B O7B 1_555 1_555
O8B Ag2B 1_555 1_555
O10B Ag2B 1_555 1_555
N8B O10B 1_555 1_555
O11B Ag2B 1_555 1_555
O12B N8B 1_555 1_555
O9B N7B 1_555 1_555
N2B_2 Ag1B_2 1_555 1_555
N4B C18 1_555 1_555
N3B C13 1_555 1_555
C17B C16 1_555 1_555
H16B C17B 1_555 1_555
C22B C21 1_555 1_555
H20B C22B 1_555 1_555
O5C Ag1C 1_555 1_555
N6C O4C 1_555 1_555
O6C Ag2C 1_555 1_555
O7C Ag2C 1_555 1_555
N7C O7C 1_555 1_555
O8C Ag2C 1_555 1_555
O10C Ag2C 1_555 1_555
N8C O10C 1_555 1_555
O11C Ag2C 1_555 1_555
O12C N8C 1_555 1_555
O9C N7C 1_555 1_555
N2C Ag1C 1_555 1_555
C8C N2C 1_555 1_555
P1C C8C 1_555 1_555
Pt1C P1C 1_555 1_555
Pt1A Pt1C 1_555 1_555
P1A Pt1A 1_555 1_555
C1A P1A 1_555 1_555
C2A C1A 1_555 1_555
P2A Pt1A 1_555 1_555
N1A Pt1A 1_555 1_555
C3C P1C 1_555 1_555
C1C P1C 1_555 1_555
C2C C1C 1_555 1_555
P2C Pt1C 1_555 1_555
N1C Pt1C 1_555 1_555
C3A P1A 1_555 1_555
C8A P1A 1_555 1_555
N2A C8A 1_555 1_555
Ag1A_2 N2A 1_555 1_555
O1A_2 Ag1A_2 1_555 1_555
O4A_2 Ag1A_2 1_555 1_555
O5A Ag1A_2 1_555 1_555
N6A O4A_2 1_555 1_555
Ag2A_2 O4A_2 1_555 1_555
O6A N6A 1_555 1_555
O2A_2 Ag2A_2 1_555 1_555
O3A_2 Ag2A_2 1_555 1_555
O7A Ag2A_2 1_555 1_555
N7A O7A 1_555 1_555
O8A Ag2A_2 1_555 1_555
O10A Ag2A_2 1_555 1_555
N8A O10A 1_555 1_555
O11A Ag2A_2 1_555 1_555
O12A N8A 1_555 1_555
O9A N7A 1_555 1_555
N4A Ag1A_2 1_555 1_555
C18C P2C 1_555 1_555
C13C P2C 1_555 1_555
N3A Pt1A 1_555 1_555
C17A N3A 1_555 1_555
C16C C17A 1_555 1_555
C15C C16C 1_555 1_555
C14C C13C 1_555 1_555
H13C C14C 1_555 1_555
H14C C15C 1_555 1_555
H15C C16C 1_555 1_555
H16A C17A 1_555 1_555
C19C C18C 1_555 1_555
C20C C19C 1_555 1_555
C21C C20C 1_555 1_555
C22A N4A 1_555 1_555
H20A C22A 1_555 1_555
H19C C21C 1_555 1_555
H18C C20C 1_555 1_555
H17C C19C 1_555 1_555
C12A N2A 1_555 1_555
C11A C12A 1_555 1_555
C10A C11A 1_555 1_555
C9A C8A 1_555 1_555
H9A C9A 1_555 1_555
H10A C10A 1_555 1_555
H11A C11A 1_555 1_555
H12A C12A 1_555 1_555
C4A C3A 1_555 1_555
C5A C4A 1_555 1_555
C6A C5A 1_555 1_555
C7C N1C 1_555 1_555
H8C C7C 1_555 1_555
H7A C6A 1_555 1_555
H6A C5A 1_555 1_555
H5A C4A 1_555 1_555
N3C Pt1C 1_555 1_555
C13A P2A 1_555 1_555
C18A P2A 1_555 1_555
N4C Ag1C 1_555 1_555
C22C N4C 1_555 1_555
C21A C22C 1_555 1_555
C20A C21A 1_555 1_555
C19A C18A 1_555 1_555
H17A C19A 1_555 1_555
H18A C20A 1_555 1_555
H19A C21A 1_555 1_555
H20C C22C 1_555 1_555
C14A C13A 1_555 1_555
C15A C14A 1_555 1_555
C16A C15A 1_555 1_555
C17C N3C 1_555 1_555
H16C C17C 1_555 1_555
H15A C16A 1_555 1_555
H14A C15A 1_555 1_555
H13A C14A 1_555 1_555
H3C C2C 1_555 1_555
H4C C2C 1_555 1_555
H1C C1C 1_555 1_555
H2C C1C 1_555 1_555
C4C C3C 1_555 1_555
C5C C4C 1_555 1_555
C6C C5C 1_555 1_555
C7A N1A 1_555 1_555
H8A C7A 1_555 1_555
H7C C6C 1_555 1_555
H6C C5C 1_555 1_555
H5C C4C 1_555 1_555
H3A C2A 1_555 1_555
H4A C2A 1_555 1_555
H1A C1A 1_555 1_555
H2A C1A 1_555 1_555
C9C C8C 1_555 1_555
C10C C9C 1_555 1_555
C11C C10C 1_555 1_555
C12C N2C 1_555 1_555
H12C C12C 1_555 1_555
H11C C11C 1_555 1_555
H10C C10C 1_555 1_555
H9C C9C 1_555 1_555
O4B_2 Ag1B 1_555 1_555
O5B_2 Ag1B 1_555 1_555
N4B_2 Ag1B 1_555 1_555
C12B N2B 1_555 1_555
C11B C12B 1_555 1_555
C10B C11B 1_555 1_555
C9B C8B 1_555 1_555
H9B C9B 1_555 1_555
H10B C10B 1_555 1_555
H11B C11B 1_555 1_555
H12B C12B 1_555 1_555
C4B C3B 1_555 1_555
C5B C4B 1_555 1_555
C6B C5B 1_555 1_555
C7_2 N1_2 1_555 1_555
H8_2 C7_2 1_555 1_555
H7B C6B 1_555 1_555
H6B C5B 1_555 1_555
H5B C4B 1_555 1_555
C17_2 N3_2 1_555 1_555
C16B C17_2 1_555 1_555
C15B C16B 1_555 1_555
C14B C13B 1_555 1_555
H13B C14B 1_555 1_555
H14B C15B 1_555 1_555
H15B C16B 1_555 1_555
H16_2 C17_2 1_555 1_555
C19B C18B 1_555 1_555
C20B C19B 1_555 1_555
C21B C20B 1_555 1_555
C22_2 N4_2 1_555 1_555
H20_2 C22_2 1_555 1_555
H19B C21B 1_555 1_555
H18B C20B 1_555 1_555
H17B C19B 1_555 1_555
O5A_2 Ag1A 1_555 1_555
N2A_2 Ag1A 1_555 1_555
N4A_2 Ag1A 1_555 1_555
N6A_2 O4A 1_555 1_555
O6A_2 Ag2A 1_555 1_555
O7A_2 Ag2A 1_555 1_555
O8A_2 Ag2A 1_555 1_555
O10A_2 Ag2A 1_555 1_555
O11A_2 Ag2A 1_555 1_555
C7B C6 1_555 1_555
H8B C7B 1_555 1_555
C13B_2 N3 1_555 1_555
C18B_2 N4 1_555 1_555
H3B C2B 1_555 1_555
H4B C2B 1_555 1_555
H1B C1B 1_555 1_555
H2B C1B 1_555 1_555
C3B_2 N1 1_555 1_555
C8B_2 P1B 1_555 1_555
N5A_2 O3 1_555 1_555
C6B_2 C7 1_555 1_555
C16B_2 C17 1_555 1_555
C21B_2 C22 1_555 1_555
H1B_2 C1B_2 1_555 1_555
H2B_2 C1B_2 1_555 1_555
H3B_2 C2B_2 1_555 1_555
H4B_2 C2B_2 1_555 1_555
C9B_2 C8B_2 1_555 1_555
C12B_2 N2B_2 1_555 1_555
Ag2 O4 1_555 1_555
O5 N6 1_555 1_555
O6 N6 1_555 1_555
O8 N7 1_555 1_555
O11 N8 1_555 1_555
N2 C8 1_555 1_555
C11 C12 1_555 1_555
Pt1B N1B 1_555 1_555
Pt1B N3B 1_555 1_555
P1B C3B_2 1_555 1_555
C2B P2B 1_555 1_555
P2B C13B_2 1_555 1_555
P2B C18B_2 1_555 1_555
N1B C7B 1_555 1_555
Ag2_2 O3_2 1_555 1_555
O5_2 N6_2 1_555 1_555
N6_2 O6_2 1_555 1_555
N7_2 O8_2 1_555 1_555
N8_2 O11_2 1_555 1_555
N3_2 Pt1_2 1_555 1_555
C3B P1B_2 1_555 1_555
P1B_2 C1B_2 1_555 1_555
Ag2C O3C 1_555 1_555
Ag2B O3B 1_555 1_555
Ag1B_2 N4B 1_555 1_555
O5B N6B 1_555 1_555
N6B O6B 1_555 1_555
N7B O8B 1_555 1_555
N8B O11B 1_555 1_555
N2B_2 C8B_2 1_555 1_555
N4B C22B 1_555 1_555
N3B C17B 1_555 1_555
O5C N6C 1_555 1_555
N6C O6C 1_555 1_555
N7C O8C 1_555 1_555
N8C O11C 1_555 1_555
C2A P2A 1_555 1_555
N1A C3C 1_555 1_555
C2C P2C 1_555 1_555
N1C C3A 1_555 1_555
O5A N6A 1_555 1_555
Ag2A_2 O6A 1_555 1_555
N7A O8A 1_555 1_555
N8A O11A 1_555 1_555
N4A C18C 1_555 1_555
C13C N3A 1_555 1_555
C15C C14C 1_555 1_555
C21C C22A 1_555 1_555
C10A C9A 1_555 1_555
C6A C7C 1_555 1_555
N3C C13A 1_555 1_555
C18A N4C 1_555 1_555
C20A C19A 1_555 1_555
C16A C17C 1_555 1_555
C6C C7A 1_555 1_555
C11C C12C 1_555 1_555
C10B C9B 1_555 1_555
C6B C7_2 1_555 1_555
C15B C14B 1_555 1_555
C21B C22_2 1_555 1_555
O5A_2 N6A_2 1_555 1_555
N6A_2 O6A_2 1_555 1_555

#END
