
#######################################################################
#
#                 Cambridge Crystallographic Data Centre
#                                CCDC 
#
#######################################################################
#
# If this CIF has been generated from an entry in the Cambridge 
# Structural Database, then it will include bibliographic, chemical, 
# crystal, experimental, refinement or atomic coordinate data resulting 
# from the CCDC's data processing and validation procedures.
#
#######################################################################

data_QACSAQ
_symmetry_cell_setting           triclinic
_symmetry_space_group_name_H-M   'P -1'
_symmetry_Int_Tables_number      2
_space_group_name_Hall           '-P 1'
loop_
_symmetry_equiv_pos_site_id
_symmetry_equiv_pos_as_xyz
1 x,y,z
2 -x,-y,-z
_cell_length_a                   8.7990(18)
_cell_length_b                   10.147(2)
_cell_length_c                   13.038(3)
_cell_angle_alpha                95.95(3)
_cell_angle_beta                 106.93(3)
_cell_angle_gamma                113.27(3)
_cell_volume                     990.854
loop_
_atom_site_label
_atom_site_type_symbol
_atom_site_fract_x
_atom_site_fract_y
_atom_site_fract_z
Cd1 Cd 0.66474(3) 0.61911(2) 0.707323(16)
N1 N 0.6098(3) 0.6563(3) 0.8633(2)
N2 N 0.4987(3) 0.7262(3) 0.9790(2)
H1 H 0.4326 0.7557 1.0022
N3 N 0.2425(3) 0.7650(3) 0.8038(2)
N4 N 0.2549(5) 0.8995(4) 0.8392(4)
N5 N 0.0968(4) 0.8834(4) 0.8335(3)
N6 N -0.0117(4) 0.7369(3) 0.7936(2)
O1 O 0.7305(4) 0.7617(3) 0.5562(2)
O2 O 0.6679(3) 0.8438(3) 0.6925(2)
O3 O 0.6633(4) 1.3439(3) 0.7352(2)
O4 O 0.7046(3) 1.4586(2) 0.60411(18)
O5 O 0.3612(3) 0.4879(3) 0.59905(18)
H2 H 0.3339 0.3991 0.5692
H3 H 0.3559 0.5259 0.5438
C1 C 0.6998(4) 0.6516(3) 0.9692(2)
C2 C 0.8363(4) 0.6113(4) 1.0069(3)
H8 H 0.8818 0.5795 0.9587
C3 C 0.9011(5) 0.6207(4) 1.1183(3)
H9 H 0.9951 0.5977 1.1461
C4 C 0.8302(5) 0.6635(5) 1.1908(3)
H10 H 0.8764 0.6665 1.2654
C5 C 0.6927(5) 0.7015(4) 1.1544(3)
H11 H 0.6443 0.7296 1.2022
C6 C 0.6312(4) 0.6955(3) 1.0426(2)
C7 C 0.4929(4) 0.7014(3) 0.8747(2)
C8 C 0.3719(5) 0.7256(5) 0.7794(3)
H12 H 0.4437 0.8036 0.7525
H13 H 0.3089 0.6358 0.7201
C9 C 0.0751(4) 0.6669(3) 0.7754(3)
H14 H 0.0285 0.5654 0.7471
C10 C 0.7088(4) 0.8580(3) 0.6072(3)
C11 C 0.7395(4) 1.0005(3) 0.5728(2)
C12 C 0.8143(5) 1.0314(4) 0.4925(3)
H15 H 0.8362 0.9606 0.4567
C13 C 0.8562(5) 1.1660(4) 0.4653(3)
H16 H 0.9099 1.1874 0.4134
C14 C 0.8170(5) 1.2695(4) 0.5167(3)
H17 H 0.8441 1.3602 0.4986
C15 C 0.7379(4) 1.2383(3) 0.5948(2)
C16 C 0.7018(4) 1.1047(3) 0.6239(2)
H18 H 0.6522 1.0847 0.6779
C17 C 0.6978(4) 1.3526(3) 0.6497(3)
Cd1_2 Cd -0.33526(3) 0.61911(2) 0.707323(16)
Cd1_3 Cd 0.66474(3) 1.61911(2) 0.707323(16)
N6_2 N 0.9883(4) 0.7369(3) 0.7936(2)
O4_2 O 0.7046(3) 0.4586(2) 0.60411(18)
O6 O 0.3429(4) 0.8215(3) 1.1038(2)
H4 H 0.3278 0.7738 1.1528
H5 H 0.2563 0.8414 1.0995
O7 O 0.8548(5) 0.0255(3) 0.9099(3)
H6 H 0.8220 -0.0254 0.8570
H7 H 0.9233 0.0356 0.9607
loop_
_geom_bond_atom_site_label_1
_geom_bond_atom_site_label_2
_geom_bond_site_symmetry_1
_geom_bond_site_symmetry_2
Cd1 N1 1_555 1_555
N1 C1 1_555 1_555
N2 H1 1_555 1_555
N3 N4 1_555 1_555
N4 N5 1_555 1_555
N5 N6 1_555 1_555
N6 C9 1_555 1_555
O1 Cd1 1_555 1_555
O2 Cd1 1_555 1_555
O3 C17 1_555 1_555
O4 C17 1_555 1_555
O5 Cd1 1_555 1_555
H2 O5 1_555 1_555
H3 O5 1_555 1_555
O6 H4 1_555 1_555
H5 O6 1_555 1_555
O7 H6 1_555 1_555
H7 O7 1_555 1_555
C1 C2 1_555 1_555
C2 H8 1_555 1_555
C3 C2 1_555 1_555
H9 C3 1_555 1_555
C4 C3 1_555 1_555
H10 C4 1_555 1_555
C5 C4 1_555 1_555
H11 C5 1_555 1_555
C6 N2 1_555 1_555
C7 N1 1_555 1_555
C8 N3 1_555 1_555
H12 C8 1_555 1_555
H13 C8 1_555 1_555
C9 N3 1_555 1_555
H14 C9 1_555 1_555
C10 O1 1_555 1_555
C11 C10 1_555 1_555
C12 C11 1_555 1_555
H15 C12 1_555 1_555
C13 C12 1_555 1_555
H16 C13 1_555 1_555
C14 C13 1_555 1_555
H17 C14 1_555 1_555
C15 C14 1_555 1_555
C16 C11 1_555 1_555
H18 C16 1_555 1_555
C17 C15 1_555 1_555
Cd1_2 N6 1_555 1_555
Cd1_3 O4 1_555 1_555
N6_2 Cd1 1_555 1_555
O4_2 Cd1 1_555 1_555
N2 C7 1_555 1_555
O2 C10 1_555 1_555
C1 C6 1_555 1_555
C5 C6 1_555 1_555
C7 C8 1_555 1_555
C15 C16 1_555 1_555

#END
