
#######################################################################
#
#                 Cambridge Crystallographic Data Centre
#                                CCDC 
#
#######################################################################
#
# If this CIF has been generated from an entry in the Cambridge 
# Structural Database, then it will include bibliographic, chemical, 
# crystal, experimental, refinement or atomic coordinate data resulting 
# from the CCDC's data processing and validation procedures.
#
#######################################################################

data_QACTOF
_symmetry_cell_setting           monoclinic
_symmetry_space_group_name_H-M   'P 21/c'
_symmetry_Int_Tables_number      14
_space_group_name_Hall           '-P 2ybc'
loop_
_symmetry_equiv_pos_site_id
_symmetry_equiv_pos_as_xyz
1 x,y,z
2 -x,1/2+y,1/2-z
3 -x,-y,-z
4 x,1/2-y,1/2+z
_cell_length_a                   14.165(4)
_cell_length_b                   47.862(14)
_cell_length_c                   13.873(4)
_cell_angle_alpha                90
_cell_angle_beta                 114.208(4)
_cell_angle_gamma                90
_cell_volume                     8578.33
loop_
_atom_site_label
_atom_site_type_symbol
_atom_site_fract_x
_atom_site_fract_y
_atom_site_fract_z
W1 W -0.20349(9) 0.29930(2) 1.19433(9)
W2 W -0.43887(8) 0.33559(2) 1.15677(9)
W3 W 0.01378(8) 0.33619(3) 1.22461(9)
W4 W -0.19298(10) 0.33477(3) 0.98571(10)
W5 W -0.00300(9) 0.37344(3) 1.44212(10)
W6 W -0.22178(10) 0.33741(3) 1.41052(10)
W7 W -0.19789(10) 0.40944(3) 0.98152(12)
W8 W -0.42828(9) 0.37117(3) 0.94896(10)
W9 W -0.22348(11) 0.40802(3) 1.40934(12)
W10 W 0.00788(10) 0.41096(3) 1.22213(12)
W11 W -0.21470(11) 0.44498(3) 1.18611(14)
W12 W -0.44369(11) 0.40622(3) 1.15557(13)
Cu1 Cu 0.2955(3) 0.30981(10) 1.1925(3)
Cu2 Cu -0.2077(3) 0.25062(10) 0.9466(4)
Cu3 Cu 0.2909(5) 0.37274(12) 1.1933(4)
O1 O -0.2041(18) 0.4239(5) 0.869(2)
O2 O -0.2078(15) 0.2998(5) 1.0538(16)
O3 O -0.1944(14) 0.3172(4) 0.8771(15)
O4 O 0.1296(18) 0.3198(5) 1.2415(17)
O5 O -0.2321(18) 0.3176(5) 1.5039(16)
O6 O -0.5190(17) 0.3712(4) 0.8249(14)
O7 O -0.5451(16) 0.4267(4) 1.147(2)
O8 O 0.1110(17) 0.3738(5) 1.5555(16)
O9 O -0.5357(18) 0.3135(5) 1.1483(18)
O10 O -0.237(2) 0.4277(6) 1.506(2)
O11 O 0.1256(13) 0.4250(4) 1.2466(18)
O12 O -0.2109(12) 0.2641(4) 1.2002(15)
O13 O -0.1870(16) 0.3106(5) 1.3308(16)
O14 O -0.3588(17) 0.3362(5) 1.3020(17)
O15 O -0.2284(15) 0.4398(7) 1.042(2)
O16 O -0.229(2) 0.4805(4) 1.188(2)
O17 O -0.0869(14) 0.4023(4) 1.4812(19)
C1 C -0.084(6) 0.3639(15) 0.716(4)
H1 H -0.0729 0.3657 0.6521
H2 H -0.1568 0.3663 0.7019
O18 O -0.4821(18) 0.3422(5) 1.0117(18)
N1 N 0.217(2) 0.3016(7) 1.050(2)
O19 O -0.3627(18) 0.4062(6) 1.296(2)
O20 O -0.3353(15) 0.3453(5) 0.947(2)
O21 O -0.0517(19) 0.4135(7) 1.067(2)
N2 N 0.219(2) 0.3727(7) 1.051(2)
C2 C 0.1112(19) 0.3042(6) 0.996(3)
H3 H 0.0672 0.3137 1.0194
O22 O 0.028(3) 0.3474(4) 1.363(2)
C3 C 0.332(3) 0.2931(6) 1.399(3)
H4 H 0.2646 0.2959 1.3932
O23 O -0.031(2) 0.3362(7) 0.786(2)
C4 C -0.034(3) 0.3034(12) 0.757(4)
H5 H -0.0991 0.3007 0.6954
H6 H 0.0200 0.3009 0.7320
C5 C -0.027(4) 0.2830(11) 0.814(4)
H7 H -0.0278 0.2654 0.7789
H8 H -0.0799 0.2828 0.8415
N3 N 0.081(2) 0.2250(6) 1.043(2)
C6 C 0.015(2) 0.2573(7) 1.106(3)
H9 H 0.0063 0.2716 1.1466
N4 N 0.4952(16) 0.2928(6) 1.4848(19)
O24 O -0.1656(13) 0.3721(4) 0.9708(17)
O25 O -0.0519(16) 0.3028(5) 1.2442(17)
N5 N 0.097(2) 0.3797(6) 0.914(4)
O26 O -0.3379(17) 0.3990(4) 0.951(3)
O27 O -0.498(2) 0.3705(5) 1.176(2)
C7 C -0.019(2) 0.3795(7) 0.798(3)
H10 H -0.0671 0.3868 0.8253
H11 H -0.0066 0.3951 0.7600
O28 O -0.355(2) 0.4331(8) 1.143(2)
C8 C -0.018(2) 0.2232(8) 0.978(3)
H12 H -0.0497 0.2116 0.9197
O29 O -0.0505(18) 0.3303(6) 1.0794(15)
C9 C 0.471(2) 0.3026(7) 1.388(2)
H13 H 0.5182 0.3082 1.3607
O30 O -0.3448(13) 0.3096(4) 1.1455(14)
N6 N -0.062(2) 0.2436(5) 1.019(2)
O31 O -0.4855(18) 0.3987(4) 1.0107(18)
O32 O -0.1623(14) 0.3451(5) 1.1600(16)
N7 N 0.369(2) 0.3031(6) 1.3352(17)
O33 O -0.2441(16) 0.3737(5) 1.461(2)
O34 O -0.178(2) 0.3750(5) 1.333(3)
O35 O -0.0656(17) 0.4425(6) 1.231(2)
N8 N 0.082(2) 0.2900(7) 0.900(2)
O36 O 0.0216(18) 0.4024(4) 1.3562(18)
C10 C 0.250(3) 0.2871(15) 0.991(3)
H14 H 0.3184 0.2825 1.0087
O37 O -0.0904(18) 0.3436(5) 1.4837(18)
O38 O -0.3361(19) 0.3713(5) 1.137(2)
O39 O 0.2922(15) 0.2064(5) 1.1950(19)
O40 O 0.039(2) 0.3737(5) 1.206(2)
C11 C 0.101(2) 0.2455(5) 1.116(2)
H15 H 0.1669 0.2503 1.1656
O41 O -0.1937(19) 0.4361(6) 1.320(2)
O42 O -0.1730(19) 0.4020(5) 1.161(2)
C12 C 0.232(3) 0.1896(7) 1.119(4)
H16 H 0.2740 0.1767 1.0996
H17 H 0.1880 0.1789 1.1436
C13 C 0.166(3) 0.2075(12) 1.024(4)
H18 H 0.2104 0.2201 1.0068
H19 H 0.1317 0.1954 0.9631
C14 C 0.119(3) 0.3764(10) 1.014(4)
H20 H 0.0753 0.3766 1.0494
C15 C 0.165(3) 0.2792(12) 0.897(3)
H21 H 0.1685 0.2683 0.8435
C16 C 0.366(3) 0.1947(8) 1.285(4)
H22 H 0.3323 0.1806 1.3098
H23 H 0.4153 0.1851 1.2644
O43 O 0.627(2) 0.3388(8) 1.617(3)
N9 N 0.361(3) 0.3749(7) 1.341(3)
C17 C 0.462(3) 0.3771(8) 1.390(3)
H24 H 0.5115 0.3768 1.3617
C18 C 0.274(4) 0.3706(10) 0.985(4)
H25 H 0.3441 0.3684 1.0037
N10 N 0.476(3) 0.3801(7) 1.495(3)
C19 C 0.322(4) 0.3731(8) 1.413(4)
H26 H 0.2536 0.3683 1.3960
C20 C 0.382(4) 0.3779(10) 1.502(5)
H27 H 0.3678 0.3797 1.5618
C21 C 0.178(3) 0.3734(8) 0.868(4)
H28 H 0.1739 0.3718 0.8001
C22 C 0.585(3) 0.3817(9) 1.590(4)
H29 H 0.6378 0.3845 1.5633
H30 H 0.5870 0.3975 1.6346
C23 C 0.607(4) 0.3548(11) 1.654(4)
H31 H 0.6623 0.3580 1.7232
H32 H 0.5455 0.3495 1.6647
C24 C 0.414(4) 0.2763(13) 1.485(5)
H33 H 0.4111 0.2607 1.5238
C25 C 0.612(4) 0.3126(11) 1.646(4)
H34 H 0.5492 0.3131 1.6573
H35 H 0.6683 0.3088 1.7135
C26 C 0.604(3) 0.2886(10) 1.580(4)
H36 H 0.6062 0.2713 1.6171
H37 H 0.6592 0.2884 1.5552
C27 C 0.425(3) 0.2129(13) 1.375(3)
H38 H 0.4622 0.2019 1.4376
H39 H 0.3796 0.2258 1.3886
N11 N 0.4937(16) 0.2272(6) 1.3458(16)
C28 C 0.4816(17) 0.2454(6) 1.266(2)
H40 H 0.4202 0.2497 1.2088
C29 C 0.592(2) 0.2266(8) 1.411(2)
H41 H 0.6189 0.2164 1.4734
N12 N 0.6508(16) 0.2438(6) 1.373(2)
C30 C 0.578(3) 0.2561(7) 1.287(3)
H42 H 0.5912 0.2700 1.2475
Cu1_2 Cu -0.7045(3) 0.30981(10) 1.1925(3)
Cu2C Cu 0.7923(3) 0.24938(10) 1.4466(4)
O9_2 O 0.4643(18) 0.3135(5) 1.1483(18)
N12C N -0.3492(16) 0.2562(6) 0.873(2)
loop_
_geom_bond_atom_site_label_1
_geom_bond_atom_site_label_2
_geom_bond_site_symmetry_1
_geom_bond_site_symmetry_2
W1 O2 1_555 1_555
W2 O9 1_555 1_555
W3 O4 1_555 1_555
W4 O2 1_555 1_555
W5 O8 1_555 1_555
W6 O5 1_555 1_555
W7 O1 1_555 1_555
W8 O6 1_555 1_555
W9 O10 1_555 1_555
W10 O11 1_555 1_555
W11 O15 1_555 1_555
W12 O7 1_555 1_555
Cu1 O4 1_555 1_555
Cu2 O2 1_555 1_555
Cu3 N2 1_555 1_555
O3 W4 1_555 1_555
O9 Cu1_2 1_555 1_555
O12 W1 1_555 1_555
O13 W1 1_555 1_555
O14 W2 1_555 1_555
O15 W7 1_555 1_555
O16 W11 1_555 1_555
O17 W5 1_555 1_555
C1 H1 1_555 1_555
H2 C1 1_555 1_555
O18 W2 1_555 1_555
N1 Cu1 1_555 1_555
O19 W9 1_555 1_555
O20 W4 1_555 1_555
O21 W7 1_555 1_555
N2 C14 1_555 1_555
C2 N1 1_555 1_555
H3 C2 1_555 1_555
O22 W3 1_555 1_555
C3 H4 1_555 1_555
O23 C1 1_555 1_555
C4 O23 1_555 1_555
H5 C4 1_555 1_555
H6 C4 1_555 1_555
C5 C4 1_555 1_555
H7 C5 1_555 1_555
H8 C5 1_555 1_555
N3 C8 1_555 1_555
C6 H9 1_555 1_555
N4 C9 1_555 1_555
O24 W4 1_555 1_555
O25 W1 1_555 1_555
N5 C7 1_555 1_555
O26 W7 1_555 1_555
O27 W2 1_555 1_555
C7 C1 1_555 1_555
H10 C7 1_555 1_555
H11 C7 1_555 1_555
O28 W11 1_555 1_555
C8 H12 1_555 1_555
O29 W3 1_555 1_555
C9 H13 1_555 1_555
O30 W1 1_555 1_555
N6 Cu2 1_555 1_555
O31 W8 1_555 1_555
O32 W1 1_555 1_555
N7 Cu1 1_555 1_555
O33 W6 1_555 1_555
O34 W5 1_555 1_555
O35 W10 1_555 1_555
N8 C2 1_555 1_555
O36 W5 1_555 1_555
C10 N1 1_555 1_555
H14 C10 1_555 1_555
O37 W5 1_555 1_555
O38 W2 1_555 1_555
O39 C12 1_555 1_555
O40 W3 1_555 1_555
C11 N3 1_555 1_555
H15 C11 1_555 1_555
O41 W9 1_555 1_555
O42 W7 1_555 1_555
C12 H16 1_555 1_555
H17 C12 1_555 1_555
C13 N3 1_555 1_555
H18 C13 1_555 1_555
H19 C13 1_555 1_555
C14 N5 1_555 1_555
H20 C14 1_555 1_555
C15 N8 1_555 1_555
H21 C15 1_555 1_555
C16 O39 1_555 1_555
H22 C16 1_555 1_555
H23 C16 1_555 1_555
O43 C23 1_555 1_555
N9 Cu3 1_555 1_555
C17 N9 1_555 1_555
H24 C17 1_555 1_555
C18 N2 1_555 1_555
H25 C18 1_555 1_555
N10 C17 1_555 1_555
C19 N9 1_555 1_555
H26 C19 1_555 1_555
C20 N10 1_555 1_555
H27 C20 1_555 1_555
C21 N5 1_555 1_555
H28 C21 1_555 1_555
C22 N10 1_555 1_555
H29 C22 1_555 1_555
H30 C22 1_555 1_555
C23 C22 1_555 1_555
H31 C23 1_555 1_555
H32 C23 1_555 1_555
C24 C3 1_555 1_555
H33 C24 1_555 1_555
C25 O43 1_555 1_555
H34 C25 1_555 1_555
H35 C25 1_555 1_555
C26 N4 1_555 1_555
H36 C26 1_555 1_555
H37 C26 1_555 1_555
C27 C16 1_555 1_555
H38 C27 1_555 1_555
H39 C27 1_555 1_555
N11 C27 1_555 1_555
C28 N11 1_555 1_555
H40 C28 1_555 1_555
C29 N11 1_555 1_555
H41 C29 1_555 1_555
N12 C29 1_555 1_555
C30 C28 1_555 1_555
H42 C30 1_555 1_555
Cu2C N12 1_555 1_555
O9_2 Cu1 1_555 1_555
N12C Cu2 1_555 1_555
W2 O30 1_555 1_555
W3 O25 1_555 1_555
W3 O32 1_555 1_555
W4 O29 1_555 1_555
W4 O32 1_555 1_555
W5 O22 1_555 1_555
W6 O13 1_555 1_555
W6 O14 1_555 1_555
W6 O34 1_555 1_555
W6 O37 1_555 1_555
W7 O24 1_555 1_555
W8 O18 1_555 1_555
W8 O20 1_555 1_555
W8 O26 1_555 1_555
W8 O38 1_555 1_555
W9 O17 1_555 1_555
W9 O33 1_555 1_555
W9 O34 1_555 1_555
W10 O21 1_555 1_555
W10 O36 1_555 1_555
W10 O40 1_555 1_555
W10 O42 1_555 1_555
W11 O35 1_555 1_555
W11 O41 1_555 1_555
W11 O42 1_555 1_555
W12 O19 1_555 1_555
W12 O27 1_555 1_555
W12 O28 1_555 1_555
W12 O31 1_555 1_555
W12 O38 1_555 1_555
C3 N7 1_555 1_555
C5 N8 1_555 1_555
C6 N6 1_555 1_555
C6 C11 1_555 1_555
N4 C24 1_555 1_555
C8 N6 1_555 1_555
C9 N7 1_555 1_555
C10 C15 1_555 1_555
C12 C13 1_555 1_555
C18 C21 1_555 1_555
C19 C20 1_555 1_555
C25 C26 1_555 1_555
N12 C30 1_555 1_555

#END
