
#######################################################################
#
#                 Cambridge Crystallographic Data Centre
#                                CCDC 
#
#######################################################################
#
# If this CIF has been generated from an entry in the Cambridge 
# Structural Database, then it will include bibliographic, chemical, 
# crystal, experimental, refinement or atomic coordinate data resulting 
# from the CCDC's data processing and validation procedures.
#
#######################################################################

data_QACYUO01
_symmetry_cell_setting           monoclinic
_symmetry_space_group_name_H-M   'P 21/n'
_symmetry_Int_Tables_number      14
_space_group_name_Hall           '-P 2yn'
loop_
_symmetry_equiv_pos_site_id
_symmetry_equiv_pos_as_xyz
1 x,y,z
2 1/2-x,1/2+y,1/2-z
3 -x,-y,-z
4 1/2+x,1/2-y,1/2+z
_cell_length_a                   11.8117(5)
_cell_length_b                   7.8813(5)
_cell_length_c                   22.332(1)
_cell_angle_alpha                90
_cell_angle_beta                 102.245(5)
_cell_angle_gamma                90
_cell_volume                     2031.62
loop_
_atom_site_label
_atom_site_type_symbol
_atom_site_fract_x
_atom_site_fract_y
_atom_site_fract_z
Ag1 Ag 0.264989(19) 0.70676(3) 0.199189(8)
S1 S 0.20738(6) 0.82538(8) 0.09152(3)
S2 S -0.17323(6) 0.58988(8) -0.20954(3)
S3 S 0.47478(6) 0.42638(8) 0.25925(3)
O1 O 0.41864(18) 0.4811(3) 0.30797(9)
O2 O 0.44158(19) 0.25770(25) 0.23753(12)
O3 O 0.46000(16) 0.55130(24) 0.21055(8)
C1 C 0.04974(23) 0.8049(3) 0.06973(10)
C2 C 0.02646(22) 0.7441(3) 0.00457(10)
C3 C 0.12163(22) 0.6766(3) -0.01487(10)
C4 C 0.23256(23) 0.6753(3) 0.03351(11)
C5 C -0.08130(23) 0.7517(3) -0.03554(11)
C6 C -0.09171(21) 0.6947(3) -0.09561(10)
C7 C 0.00347(22) 0.6286(3) -0.11483(10)
C8 C 0.11103(22) 0.6171(3) -0.07434(11)
C9 C -0.20180(23) 0.7106(3) -0.14404(11)
C10 C -0.01611(22) 0.5835(3) -0.18187(11)
C11 C 0.62512(22) 0.4208(3) 0.29261(11)
C12 C 0.69952(25) 0.3188(3) 0.26801(12)
C13 C 0.81759(25) 0.3213(3) 0.29331(13)
C14 C 0.86389(23) 0.4258(3) 0.34212(12)
C15 C 0.78793(24) 0.5235(3) 0.36737(12)
C16 C 0.66926(23) 0.5201(3) 0.34314(12)
C17 C 0.9933(3) 0.4339(4) 0.36632(15)
S1B S -0.20738(6) 0.17462(8) -0.09152(3)
S2B S 0.17323(6) 0.41012(8) 0.20954(3)
C1B C -0.04974(23) 0.1951(3) -0.06973(10)
C2B C -0.02646(22) 0.2559(3) -0.00457(10)
C3B C -0.12163(22) 0.3234(3) 0.01487(10)
C4B C -0.23256(23) 0.3247(3) -0.03351(11)
C5B C 0.08130(23) 0.2483(3) 0.03554(11)
C6B C 0.09171(21) 0.3053(3) 0.09561(10)
C7B C -0.00347(22) 0.3714(3) 0.11483(10)
C8B C -0.11103(22) 0.3829(3) 0.07434(11)
C9B C 0.20180(23) 0.2894(3) 0.14404(11)
C10B C 0.01611(22) 0.4165(3) 0.18187(11)
Ag1B Ag -0.264989(19) 0.29324(3) -0.199189(8)
S3B S -0.47478(6) 0.57362(8) -0.25925(3)
O1B O -0.41864(18) 0.5189(3) -0.30797(9)
O2B O -0.44158(19) 0.74230(25) -0.23753(12)
O3B O -0.46000(16) 0.44870(24) -0.21055(8)
C11B C -0.62512(22) 0.5792(3) -0.29261(11)
C12B C -0.69952(25) 0.6812(3) -0.26801(12)
C13B C -0.81759(25) 0.6787(3) -0.29331(13)
C14B C -0.86389(23) 0.5742(3) -0.34212(12)
C15B C -0.78793(24) 0.4765(3) -0.36737(12)
C16B C -0.66926(23) 0.4799(3) -0.34314(12)
C17B C -0.9933(3) 0.5661(4) -0.36632(15)
S2C S 0.32677(6) 0.91012(8) 0.29046(3)
Ag1C Ag -0.235011(19) 0.79324(3) -0.300811(8)
Ag1A Ag 0.235011(19) 0.20676(3) 0.300811(8)
S2A S -0.32677(6) 0.08988(8) -0.29046(3)
C18 C 0.5516(4) 0.5360(6) 0.05846(21)
C19 C 0.5682(4) 0.6381(6) 0.0125(3)
C20 C 0.4864(5) 0.4011(6) 0.04792(24)
C20B C 0.5136(5) 0.5989(6) -0.04792(24)
C18B C 0.4484(4) 0.4640(6) -0.05846(21)
C19B C 0.4318(4) 0.3619(6) -0.0125(3)
loop_
_geom_bond_atom_site_label_1
_geom_bond_atom_site_label_2
_geom_bond_site_symmetry_1
_geom_bond_site_symmetry_2
Ag1 S1 1_555 1_555
S1 C1 1_555 1_555
S2 C9 1_555 1_555
S3 O1 1_555 1_555
O2 S3 1_555 1_555
O3 Ag1 1_555 1_555
C1 C2 1_555 1_555
C2 C3 1_555 1_555
C3 C4 1_555 1_555
C4 S1 1_555 1_555
C5 C2 1_555 1_555
C6 C5 1_555 1_555
C7 C6 1_555 1_555
C8 C3 1_555 1_555
C9 C6 1_555 1_555
C10 S2 1_555 1_555
C11 S3 1_555 1_555
C12 C11 1_555 1_555
C13 C12 1_555 1_555
C14 C13 1_555 1_555
C15 C14 1_555 1_555
C16 C11 1_555 1_555
C17 C14 1_555 1_555
C18 C19 1_555 1_555
C19 C20B 1_555 1_555
C20 C18 1_555 1_555
C20B C18B 1_555 1_555
C18B C19B 1_555 1_555
C19B C20 1_555 1_555
S1B C1B 1_555 1_555
S2B Ag1 1_555 1_555
C1B C2B 1_555 1_555
C2B C3B 1_555 1_555
C3B C4B 1_555 1_555
C4B S1B 1_555 1_555
C5B C2B 1_555 1_555
C6B C5B 1_555 1_555
C7B C6B 1_555 1_555
C8B C3B 1_555 1_555
C9B S2B 1_555 1_555
C10B S2B 1_555 1_555
Ag1B S2 1_555 1_555
S3B O1B 1_555 1_555
O2B S3B 1_555 1_555
O3B Ag1B 1_555 1_555
C11B S3B 1_555 1_555
C12B C11B 1_555 1_555
C13B C12B 1_555 1_555
C14B C13B 1_555 1_555
C15B C14B 1_555 1_555
C16B C11B 1_555 1_555
C17B C14B 1_555 1_555
S2C Ag1 1_555 1_555
Ag1C S2 1_555 1_555
Ag1A S2B 1_555 1_555
S2A Ag1B 1_555 1_555
S3 O3 1_555 1_555
C7 C8 1_555 1_555
C7 C10 1_555 1_555
C15 C16 1_555 1_555
S1B Ag1B 1_555 1_555
C6B C9B 1_555 1_555
C7B C8B 1_555 1_555
C7B C10B 1_555 1_555
S3B O3B 1_555 1_555
C15B C16B 1_555 1_555

#END
