
#######################################################################
#
#                 Cambridge Crystallographic Data Centre
#                                CCDC 
#
#######################################################################
#
# If this CIF has been generated from an entry in the Cambridge 
# Structural Database, then it will include bibliographic, chemical, 
# crystal, experimental, refinement or atomic coordinate data resulting 
# from the CCDC's data processing and validation procedures.
#
#######################################################################

data_QACYUO
_symmetry_cell_setting           monoclinic
_symmetry_space_group_name_H-M   'P 21/n'
_symmetry_Int_Tables_number      14
_space_group_name_Hall           '-P 2yn'
loop_
_symmetry_equiv_pos_site_id
_symmetry_equiv_pos_as_xyz
1 x,y,z
2 1/2-x,1/2+y,1/2-z
3 -x,-y,-z
4 1/2+x,1/2-y,1/2+z
_cell_length_a                   11.8117(5)
_cell_length_b                   7.8813(5)
_cell_length_c                   22.3316(10)
_cell_angle_alpha                90
_cell_angle_beta                 102.245(5)
_cell_angle_gamma                90
_cell_volume                     2031.59
loop_
_atom_site_label
_atom_site_type_symbol
_atom_site_fract_x
_atom_site_fract_y
_atom_site_fract_z
Ag1 Ag 0.26499(1) 0.70676(2) 0.19919
S1 S -0.20738(5) 0.17462(7) -0.09152(2)
S2 S 0.17323(5) 0.41012(8) 0.20954(2)
C1 C -0.04974(22) 0.19510(31) -0.06973(10)
C2 C -0.02646(22) 0.25591(27) -0.00457(10)
C3 C -0.12163(21) 0.32337(28) 0.01487(10)
C4 C -0.23256(22) 0.32468(32) -0.03351(10)
C5 C 0.08130(22) 0.24825(29) 0.03554(10)
C6 C 0.09171(21) 0.30526(29) 0.09561(10)
C7 C -0.00347(21) 0.37136(29) 0.11483(10)
C8 C -0.11103(21) 0.38292(30) 0.07434(10)
C9 C 0.20180(22) 0.28943(33) 0.14404(10)
C10 C 0.01611(22) 0.41646(32) 0.18187(10)
S3 S 0.47478(5) 0.42638(8) 0.25925(2)
O1 O 0.41864(17) 0.48111(31) 0.30797(8)
O2 O 0.44158(19) 0.25770(24) 0.23753(11)
O3 O 0.46000(16) 0.55130(23) 0.21055(8)
C11 C 0.62512(21) 0.42076(31) 0.29261(10)
C12 C 0.69952(24) 0.31882(34) 0.26801(12)
C13 C 0.81759(24) 0.32129(34) 0.29331(12)
C14 C 0.86389(23) 0.42575(33) 0.34212(12)
C15 C 0.78793(24) 0.52350(34) 0.36737(12)
C16 C 0.66926(23) 0.52005(33) 0.34314(11)
C17 C 0.99328(26) 0.43390(40) 0.36632(15)
H1 H -0.0235(24) 0.2749(33) -0.0937(12)
H2 H -0.0180(21) 0.0948(29) -0.0758(10)
H3 H -0.2968(21) 0.2901(29) -0.0168(11)
H4 H -0.2516(21) 0.4272(30) -0.0505(10)
H5 H 0.1481(21) 0.2039(28) 0.0223(10)
H6 H -0.1754(21) 0.4256(29) 0.0880(10)
H7 H 0.2175(23) 0.1770(31) 0.1547(11)
H8 H 0.2650(21) 0.3292(28) 0.1301(10)
H9 H -0.0155(21) 0.3363(29) 0.2052(10)
H10 H -0.0132(21) 0.5255(30) 0.18920(99)
H11 H 0.6656(24) 0.2486(32) 0.2332(12)
H12 H 0.8680(26) 0.2478(35) 0.2755(13)
H13 H 0.8153(24) 0.5926(35) 0.3998(12)
H14 H 0.6223(24) 0.5836(34) 0.3606(11)
H15 H 1.0234(28) 0.3316(38) 0.3588(13)
H16 H 1.0195(30) 0.5210(44) 0.3451(15)
H17 H 1.0064(29) 0.4643(42) 0.4072(14)
Ag1B Ag -0.26499(1) 0.29324(2) -0.19919
S1B S 0.20738(5) 0.82538(7) 0.09152(2)
S2A S 0.32677(5) 0.91012(8) 0.29046(2)
Ag1A Ag 0.23501(1) 0.20676(2) 0.30081
C18 C 0.55164(39) 0.53601(63) 0.05846(21)
C19 C 0.56822(41) 0.63815(57) 0.01245(30)
C20 C 0.48643(46) 0.40110(62) 0.04792(23)
H18 H 0.5901(35) 0.5620(50) 0.1054(18)
H19 H 0.5981(34) 0.7221(46) 0.0127(17)
H20 H 0.4808(48) 0.3372(70) 0.0769(26)
C20B C 0.51357(46) 0.59890(62) -0.04792(23)
C18B C 0.44836(39) 0.46399(63) -0.05846(21)
C19B C 0.43178(41) 0.36185(57) -0.01245(30)
H19B H 0.4019(34) 0.2779(46) -0.0127(17)
H18B H 0.4099(35) 0.4380(50) -0.1054(18)
H20B H 0.5192(48) 0.6628(70) -0.0769(26)
loop_
_geom_bond_atom_site_label_1
_geom_bond_atom_site_label_2
_geom_bond_site_symmetry_1
_geom_bond_site_symmetry_2
Ag1 S2 1_555 1_555
S1 C1 1_555 1_555
S2 C9 1_555 1_555
C1 C2 1_555 1_555
C2 C3 1_555 1_555
C3 C4 1_555 1_555
C4 S1 1_555 1_555
C5 C2 1_555 1_555
C6 C5 1_555 1_555
C7 C6 1_555 1_555
C8 C3 1_555 1_555
C9 C6 1_555 1_555
C10 S2 1_555 1_555
S3 O1 1_555 1_555
O2 S3 1_555 1_555
O3 Ag1 1_555 1_555
C11 S3 1_555 1_555
C12 C11 1_555 1_555
C13 C12 1_555 1_555
C14 C13 1_555 1_555
C15 C14 1_555 1_555
C16 C11 1_555 1_555
C17 C14 1_555 1_555
C18 C19 1_555 1_555
C19 H19 1_555 1_555
C20 C18 1_555 1_555
H1 C1 1_555 1_555
H2 C1 1_555 1_555
H3 C4 1_555 1_555
H4 C4 1_555 1_555
H5 C5 1_555 1_555
H6 C8 1_555 1_555
H7 C9 1_555 1_555
H8 C9 1_555 1_555
H9 C10 1_555 1_555
H10 C10 1_555 1_555
H11 C12 1_555 1_555
H12 C13 1_555 1_555
H13 C15 1_555 1_555
H14 C16 1_555 1_555
H15 C17 1_555 1_555
H16 C17 1_555 1_555
H17 C17 1_555 1_555
H18 C18 1_555 1_555
H20 C20 1_555 1_555
Ag1B S1 1_555 1_555
S1B Ag1 1_555 1_555
S2A Ag1 1_555 1_555
Ag1A S2 1_555 1_555
C20B C19 1_555 1_555
C18B C20B 1_555 1_555
C19B C20 1_555 1_555
H19B C19B 1_555 1_555
H18B C18B 1_555 1_555
H20B C20B 1_555 1_555
C7 C8 1_555 1_555
C7 C10 1_555 1_555
S3 O3 1_555 1_555
C15 C16 1_555 1_555
C18B C19B 1_555 1_555

#END
