
#######################################################################
#
#                 Cambridge Crystallographic Data Centre
#                                CCDC 
#
#######################################################################
#
# If this CIF has been generated from an entry in the Cambridge 
# Structural Database, then it will include bibliographic, chemical, 
# crystal, experimental, refinement or atomic coordinate data resulting 
# from the CCDC's data processing and validation procedures.
#
#######################################################################

data_QACZUR
_symmetry_cell_setting           monoclinic
_symmetry_space_group_name_H-M   'P 21/c'
_symmetry_Int_Tables_number      14
_space_group_name_Hall           '-P 2ybc'
loop_
_symmetry_equiv_pos_site_id
_symmetry_equiv_pos_as_xyz
1 x,y,z
2 -x,1/2+y,1/2-z
3 -x,-y,-z
4 x,1/2-y,1/2+z
_cell_length_a                   9.949(2)
_cell_length_b                   15.511(3)
_cell_length_c                   8.6218(17)
_cell_angle_alpha                90
_cell_angle_beta                 92.58(3)
_cell_angle_gamma                90
_cell_volume                     1329.16
loop_
_atom_site_label
_atom_site_type_symbol
_atom_site_fract_x
_atom_site_fract_y
_atom_site_fract_z
N1 N 0.5108(4) 0.5997(2) 0.2856(4)
Nd1 Nd 0.71474(2) 0.695760(13) 0.19219(2)
C1 C 0.4575(4) 0.6189(3) 0.4225(5)
C2 C 0.3153(4) 0.4007(3) 0.1698(5)
C3 C 0.4618(5) 0.5316(3) 0.2068(5)
H1 H 0.4972 0.5184 0.1117
C4 C 0.3066(5) 0.4998(3) 0.4023(5)
H2 H 0.2393 0.4659 0.4423
C5 C 1.0899(5) 1.0089(3) 0.2429(6)
C6 C 1.0651(6) 0.9150(3) 0.2692(7)
H3 H 1.0797 0.8842 0.1734
H4 H 0.9714 0.9073 0.2928
C7 C 0.9777(5) 0.7590(3) 0.4546(5)
C8 C 1.1209(5) 0.7779(3) 0.4148(7)
H5 H 1.1390 0.7493 0.3179
H6 H 1.1810 0.7536 0.4949
C9 C 1.1526(5) 0.8744(3) 0.3987(6)
H7 H 1.1370 0.9035 0.4959
H8 H 1.2467 0.8816 0.3765
C10 C 0.3551(5) 0.5716(3) 0.4834(5)
H9 H 0.3192 0.5874 0.5770
C11 C 0.5267(4) 0.6906(3) 0.5096(5)
C12 C 0.3598(5) 0.4794(3) 0.2610(5)
O1 O 0.3456(4) 0.3977(2) 0.0302(3)
O2 O 0.2502(3) 0.34481(18) 0.2422(3)
O3 O 0.9233(4) 0.8038(2) 0.5544(4)
O4 O 1.1993(3) 1.0432(2) 0.2625(4)
O5 O 0.9169(4) 0.69687(19) 0.3833(4)
O6 O 0.4844(3) 0.7199(2) 0.6327(4)
O7 O 0.6375(3) 0.7166(2) 0.4557(3)
O8 O 0.9832(4) 1.0519(2) 0.1930(6)
Nd1B Nd 0.28526(2) 0.304240(13) -0.19219(2)
Nd1A Nd 0.28526(2) 0.195760(13) 0.30781(2)
Nd1C Nd 0.71474(2) 0.804240(13) 0.69219(2)
Nd1A_2 Nd 1.28526(2) 1.195760(13) 0.30781(2)
O1B O 0.6544(4) 0.6023(2) -0.0302(3)
O2A O 0.7498(3) 0.84481(18) 0.2578(3)
O3C O 0.9233(4) 0.6962(2) 0.0544(4)
O4A O 0.8007(3) 0.5432(2) 0.2375(4)
O6C O 0.4844(3) 0.7801(2) 0.1327(4)
O7C O 0.6375(3) 0.7834(2) -0.0443(3)
loop_
_geom_bond_atom_site_label_1
_geom_bond_atom_site_label_2
_geom_bond_site_symmetry_1
_geom_bond_site_symmetry_2
N1 Nd1 1_555 1_555
Nd1 O5 1_555 1_555
C1 N1 1_555 1_555
C2 C12 1_555 1_555
C3 N1 1_555 1_555
H1 C3 1_555 1_555
C4 H2 1_555 1_555
C5 C6 1_555 1_555
C6 H3 1_555 1_555
H4 C6 1_555 1_555
C7 C8 1_555 1_555
C8 H5 1_555 1_555
H6 C8 1_555 1_555
C9 C6 1_555 1_555
H7 C9 1_555 1_555
H8 C9 1_555 1_555
C10 C1 1_555 1_555
H9 C10 1_555 1_555
C11 C1 1_555 1_555
C12 C3 1_555 1_555
O1 C2 1_555 1_555
O2 C2 1_555 1_555
O3 C7 1_555 1_555
O4 C5 1_555 1_555
O5 C7 1_555 1_555
O6 C11 1_555 1_555
O7 Nd1 1_555 1_555
O8 C5 1_555 1_555
Nd1B O1 1_555 1_555
Nd1A O2 1_555 1_555
Nd1C O3 1_555 1_555
Nd1A_2 O4 1_555 1_555
O1B Nd1 1_555 1_555
O2A Nd1 1_555 1_555
O3C Nd1 1_555 1_555
O4A Nd1 1_555 1_555
O6C Nd1 1_555 1_555
O7C Nd1 1_555 1_555
C4 C10 1_555 1_555
C4 C12 1_555 1_555
C8 C9 1_555 1_555
C11 O7 1_555 1_555
O6 Nd1C 1_555 1_555
O7 Nd1C 1_555 1_555

#END
