
#######################################################################
#
#                 Cambridge Crystallographic Data Centre
#                                CCDC 
#
#######################################################################
#
# If this CIF has been generated from an entry in the Cambridge 
# Structural Database, then it will include bibliographic, chemical, 
# crystal, experimental, refinement or atomic coordinate data resulting 
# from the CCDC's data processing and validation procedures.
#
#######################################################################

data_QADBEE
_symmetry_cell_setting           monoclinic
_symmetry_space_group_name_H-M   'P 21/c'
_symmetry_Int_Tables_number      14
_space_group_name_Hall           '-P 2ybc'
loop_
_symmetry_equiv_pos_site_id
_symmetry_equiv_pos_as_xyz
1 x,y,z
2 -x,1/2+y,1/2-z
3 -x,-y,-z
4 x,1/2-y,1/2+z
_cell_length_a                   16.2823(18)
_cell_length_b                   13.8243(16)
_cell_length_c                   8.9681(10)
_cell_angle_alpha                90
_cell_angle_beta                 105.0770(10)
_cell_angle_gamma                90
_cell_volume                     1949.15
loop_
_atom_site_label
_atom_site_type_symbol
_atom_site_fract_x
_atom_site_fract_y
_atom_site_fract_z
H1 H 0.564(4) 0.635(5) -0.146(8)
H2 H 0.368(3) 0.799(4) -0.134(5)
Tb1 Tb 0.410466(15) 0.608879(19) -0.04493(3)
C1 C 0.5581(3) 0.6131(4) 0.2185(6)
C2 C 0.6371(3) 0.6189(4) 0.3485(6)
H3 H 0.6494 0.5557 0.3961
H4 H 0.6279 0.6635 0.4262
C3 C 0.7126(4) 0.6528(5) 0.2926(7)
H5 H 0.7020 0.7178 0.2514
H6 H 0.7196 0.6108 0.2102
C4 C 0.7939(4) 0.6521(6) 0.4236(8)
H7 H 0.7887 0.7002 0.4993
H8 H 0.7993 0.5894 0.4737
C5 C 0.8741(4) 0.6721(6) 0.3745(7)
H9 H 0.8722 0.7375 0.3345
H10 H 0.8777 0.6279 0.2925
C6 C 0.9536(2) 0.6603(3) 0.5116(4)
H11 H 0.9513 0.7074 0.5906
H12 H 0.9529 0.5963 0.5559
C7 C 1.0363(2) 0.6733(3) 0.4649(4)
H13 H 1.0393 0.7387 0.4273
H14 H 1.0376 0.6289 0.3818
C8 C 1.1132(2) 0.6544(3) 0.6029(4)
H15 H 1.1119 0.7002 0.6842
H16 H 1.1081 0.5900 0.6424
C9 C 1.1977(3) 0.6627(5) 0.5683(7)
H17 H 1.2059 0.7294 0.5420
H18 H 1.1969 0.6235 0.4782
C10 C 1.2723(4) 0.6324(4) 0.6967(7)
C11 C 0.2579(4) 0.4890(5) 0.2401(7)
H19 H 0.2704 0.4207 0.2568
H20 H 0.2692 0.5197 0.3407
C12 C 0.3185(3) 0.5313(5) 0.1536(6)
C13 C 0.1235(6) 0.5071(13) 0.0409(12)
H21 H 0.1399 0.4519 -0.0115
H22 H 0.1478 0.5625 0.0016
C14 C 0.1674(6) 0.4994(12) 0.1646(12)
H23 H 0.1428 0.4444 0.2046
H24 H 0.1517 0.5551 0.2169
C15 C 0.0298(4) 0.5170(8) -0.0392(10)
H25 H 0.0182 0.5850 -0.0623
H26 H 0.0192 0.4832 -0.1372
O1 O 0.3515(2) 0.4768(3) 0.0753(4)
O2 O 0.3318(3) 0.6206(3) 0.1575(4)
O3 O 0.5078(2) 0.6830(3) 0.1860(5)
O4 O 0.3810(3) 0.7749(3) -0.0646(5)
H27 H 0.3716 0.7942 0.0159
O5 O 0.5261(3) 0.6606(3) -0.1365(5)
H28 H 0.5124 0.7090 -0.1900
O6 O 1.3469(2) 0.6366(3) 0.6785(4)
O7 O 1.2615(2) 0.6031(4) 0.8218(4)
O8 O 0.5420(2) 0.5361(3) 0.1383(4)
H1B H -0.564(4) 0.365(5) 0.146(8)
H2B H -0.368(3) 0.201(4) 0.134(5)
Tb1B Tb -0.410466(15) 0.391121(19) 0.04493(3)
Tb1_2 Tb 1.410466(15) 0.608879(19) 0.95507(3)
Tb1B_2 Tb 0.589534(15) 0.391121(19) 0.04493(3)
Tb1B_3 Tb -0.410466(15) 0.391121(19) -0.95507(3)
C1B C 0.4419(3) 0.3869(4) -0.2185(6)
C2B C 0.3629(3) 0.3811(4) -0.3485(6)
H3B H 0.3506 0.4443 -0.3961
H4B H 0.3721 0.3365 -0.4262
C3B C 0.2874(4) 0.3472(5) -0.2926(7)
H5B H 0.2980 0.2822 -0.2514
H6B H 0.2804 0.3892 -0.2102
C4B C 0.2061(4) 0.3479(6) -0.4236(8)
H7B H 0.2113 0.2998 -0.4993
H8B H 0.2007 0.4106 -0.4737
C5B C 0.1259(4) 0.3279(6) -0.3745(7)
H9B H 0.1278 0.2625 -0.3345
H10B H 0.1223 0.3721 -0.2925
C6B C 0.0464(2) 0.3397(3) -0.5116(4)
H11B H 0.0487 0.2926 -0.5906
H12B H 0.0471 0.4037 -0.5559
C7B C -0.0363(2) 0.3267(3) -0.4649(4)
H13B H -0.0393 0.2613 -0.4273
H14B H -0.0376 0.3711 -0.3818
C8B C -0.1132(2) 0.3456(3) -0.6029(4)
H15B H -0.1119 0.2998 -0.6842
H16B H -0.1081 0.4100 -0.6424
C9B C -0.1977(3) 0.3373(5) -0.5683(7)
H17B H -0.2059 0.2706 -0.5420
H18B H -0.1969 0.3765 -0.4782
C10B C -0.2723(4) 0.3676(4) -0.6967(7)
C11B C -0.2579(4) 0.5110(5) -0.2401(7)
H19B H -0.2704 0.5793 -0.2568
H20B H -0.2692 0.4803 -0.3407
C12B C -0.3185(3) 0.4687(5) -0.1536(6)
C13B C -0.1235(6) 0.4929(13) -0.0409(12)
H21B H -0.1399 0.5481 0.0115
H22B H -0.1478 0.4375 -0.0016
C14B C -0.1674(6) 0.5006(12) -0.1646(12)
H23B H -0.1428 0.5556 -0.2046
H24B H -0.1517 0.4449 -0.2169
C15B C -0.0298(4) 0.4830(8) 0.0392(10)
H25B H -0.0182 0.4150 0.0623
H26B H -0.0192 0.5168 0.1372
O1B O -0.3515(2) 0.5232(3) -0.0753(4)
O2B O -0.3318(3) 0.3794(3) -0.1575(4)
O3B O 0.4922(2) 0.3170(3) -0.1860(5)
O3B_2 O -0.5078(2) 0.3170(3) -0.1860(5)
O4B O -0.3810(3) 0.2251(3) 0.0646(5)
H27B H -0.3716 0.2058 -0.0159
O5B O -0.5261(3) 0.3394(3) 0.1365(5)
H28B H -0.5124 0.2910 0.1900
O6B O -0.3469(2) 0.3634(3) -0.6785(4)
O6_2 O 0.3469(2) 0.6366(3) -0.3215(4)
O6B_2 O -0.3469(2) 0.3634(3) 0.3215(4)
O7B O -0.2615(2) 0.3969(4) -0.8218(4)
O7_2 O 0.2615(2) 0.6031(4) -0.1782(4)
O7B_2 O -0.2615(2) 0.3969(4) 0.1782(4)
O8B O 0.4580(2) 0.4639(3) -0.1383(4)
O8B_2 O -0.5420(2) 0.4639(3) -0.1383(4)
O8_2 O -0.4580(2) 0.5361(3) 0.1383(4)
loop_
_geom_bond_atom_site_label_1
_geom_bond_atom_site_label_2
_geom_bond_site_symmetry_1
_geom_bond_site_symmetry_2
H1 O5 1_555 1_555
H2 O4 1_555 1_555
Tb1 O1 1_555 1_555
C1 C2 1_555 1_555
C2 H3 1_555 1_555
H4 C2 1_555 1_555
C3 C2 1_555 1_555
H5 C3 1_555 1_555
H6 C3 1_555 1_555
C4 C3 1_555 1_555
H7 C4 1_555 1_555
H8 C4 1_555 1_555
C5 C4 1_555 1_555
H9 C5 1_555 1_555
H10 C5 1_555 1_555
C6 C5 1_555 1_555
H11 C6 1_555 1_555
H12 C6 1_555 1_555
C7 C6 1_555 1_555
H13 C7 1_555 1_555
H14 C7 1_555 1_555
C8 C7 1_555 1_555
H15 C8 1_555 1_555
H16 C8 1_555 1_555
C9 C8 1_555 1_555
H17 C9 1_555 1_555
H18 C9 1_555 1_555
C10 C9 1_555 1_555
C11 H19 1_555 1_555
H20 C11 1_555 1_555
C12 C11 1_555 1_555
C13 H21 1_555 1_555
H22 C13 1_555 1_555
C14 C11 1_555 1_555
H23 C14 1_555 1_555
H24 C14 1_555 1_555
C15 C13 1_555 1_555
H25 C15 1_555 1_555
H26 C15 1_555 1_555
O1 C12 1_555 1_555
O2 Tb1 1_555 1_555
O3 Tb1 1_555 1_555
O4 Tb1 1_555 1_555
H27 O4 1_555 1_555
O5 Tb1 1_555 1_555
H28 O5 1_555 1_555
O6 C10 1_555 1_555
O7 C10 1_555 1_555
O8 Tb1 1_555 1_555
H1B O5B 1_555 1_555
H2B O4B 1_555 1_555
Tb1B O1B 1_555 1_555
Tb1_2 O6 1_555 1_555
Tb1B_2 O8 1_555 1_555
Tb1B_3 O6B 1_555 1_555
C1B C2B 1_555 1_555
C2B H3B 1_555 1_555
H4B C2B 1_555 1_555
C3B C2B 1_555 1_555
H5B C3B 1_555 1_555
H6B C3B 1_555 1_555
C4B C3B 1_555 1_555
H7B C4B 1_555 1_555
H8B C4B 1_555 1_555
C5B C4B 1_555 1_555
H9B C5B 1_555 1_555
H10B C5B 1_555 1_555
C6B C5B 1_555 1_555
H11B C6B 1_555 1_555
H12B C6B 1_555 1_555
C7B C6B 1_555 1_555
H13B C7B 1_555 1_555
H14B C7B 1_555 1_555
C8B C7B 1_555 1_555
H15B C8B 1_555 1_555
H16B C8B 1_555 1_555
C9B C8B 1_555 1_555
H17B C9B 1_555 1_555
H18B C9B 1_555 1_555
C10B C9B 1_555 1_555
C11B H19B 1_555 1_555
H20B C11B 1_555 1_555
C12B C11B 1_555 1_555
C13B H21B 1_555 1_555
H22B C13B 1_555 1_555
C14B C11B 1_555 1_555
H23B C14B 1_555 1_555
H24B C14B 1_555 1_555
C15B C15 1_555 1_555
H25B C15B 1_555 1_555
H26B C15B 1_555 1_555
O1B C12B 1_555 1_555
O2B Tb1B 1_555 1_555
O3B Tb1B_2 1_555 1_555
O3B_2 Tb1B 1_555 1_555
O4B Tb1B 1_555 1_555
H27B O4B 1_555 1_555
O5B Tb1B 1_555 1_555
H28B O5B 1_555 1_555
O6B C10B 1_555 1_555
O6_2 Tb1 1_555 1_555
O6B_2 Tb1B 1_555 1_555
O7B Tb1B_3 1_555 1_555
O7_2 Tb1 1_555 1_555
O7B_2 Tb1B 1_555 1_555
O8B Tb1 1_555 1_555
O8B_2 Tb1B 1_555 1_555
O8_2 Tb1B 1_555 1_555
C1 O3 1_555 1_555
C1 O8 1_555 1_555
C12 O2 1_555 1_555
C13 C14 1_555 1_555
O7 Tb1_2 1_555 1_555
Tb1B_2 O8B 1_555 1_555
C1B O3B 1_555 1_555
C1B O8B 1_555 1_555
C10B O7B 1_555 1_555
C12B O2B 1_555 1_555
C13B C14B 1_555 1_555
C13B C15B 1_555 1_555

#END
