
#######################################################################
#
#                 Cambridge Crystallographic Data Centre
#                                CCDC 
#
#######################################################################
#
# If this CIF has been generated from an entry in the Cambridge 
# Structural Database, then it will include bibliographic, chemical, 
# crystal, experimental, refinement or atomic coordinate data resulting 
# from the CCDC's data processing and validation procedures.
#
#######################################################################

data_QADGAE
_symmetry_cell_setting           triclinic
_symmetry_space_group_name_H-M   'P -1'
_symmetry_Int_Tables_number      2
_space_group_name_Hall           '-P 1'
loop_
_symmetry_equiv_pos_site_id
_symmetry_equiv_pos_as_xyz
1 x,y,z
2 -x,-y,-z
_cell_length_a                   7.078(3)
_cell_length_b                   11.565(4)
_cell_length_c                   12.561(5)
_cell_angle_alpha                109.511(6)
_cell_angle_beta                 105.265(6)
_cell_angle_gamma                94.042(6)
_cell_volume                     920.672
loop_
_atom_site_label
_atom_site_type_symbol
_atom_site_fract_x
_atom_site_fract_y
_atom_site_fract_z
Cu1 Cu 1.5000 0.5000 0.5000
Cu2 Cu 0.5000 0.5000 0.0000
N1 N 0.4708(6) 0.6508(4) 0.1316(3)
N2 N 0.7815(6) 0.9348(4) 0.5368(4)
N3 N 0.9692(6) 0.9442(4) 0.6159(4)
N4 N 1.4591(6) 0.6757(4) 0.5778(3)
O1 O 0.9340(5) 0.7910(3) 0.4464(3)
O2 O 1.2285(5) 0.4291(3) 0.4908(3)
O3 O 1.3862(5) 0.5053(4) 0.3061(3)
O4 O 0.2297(5) 0.4257(4) -0.0220(3)
C1 C 0.3008(7) 0.6950(5) 0.1246(4)
H1 H 0.1973 0.6618 0.0537
C2 C 0.2733(7) 0.7880(5) 0.2187(5)
H2 H 0.1524 0.8163 0.2112
C3 C 0.4242(7) 0.8387(5) 0.3230(5)
H3 H 0.4079 0.9015 0.3875
C4 C 0.6027(7) 0.7943(4) 0.3307(4)
C5 C 0.6198(7) 0.7009(4) 0.2337(4)
H4 H 0.7393 0.6712 0.2390
C6 C 0.7674(7) 0.8435(4) 0.4397(4)
C7 C 1.0510(7) 0.8582(4) 0.5602(4)
C8 C 1.2430(7) 0.8257(4) 0.6014(4)
C9 C 1.3829(8) 0.9036(5) 0.7069(4)
H5 H 1.3561 0.9791 0.7516
C10 C 1.5600(8) 0.8675(5) 0.7437(5)
H6 H 1.6574 0.9196 0.8124
C11 C 1.5938(7) 0.7535(5) 0.6787(4)
H7 H 1.7143 0.7294 0.7055
C12 C 1.2891(7) 0.7125(4) 0.5389(4)
H8 H 1.1975 0.6608 0.4674
S1 S 0.14699(18) 0.59316(12) -0.20558(11)
O5 O 0.3533(5) 0.5826(3) -0.1558(3)
O6 O 0.1149(6) 0.7200(4) -0.1558(4)
O7 O 0.0143(5) 0.5101(4) -0.1796(3)
O8 O 0.0965(5) 0.5556(4) -0.3355(3)
H9 H 1.201(6) 0.464(4) 0.5595(18)
H10 H 1.128(5) 0.427(5) 0.428(2)
H11 H 1.460(5) 0.466(5) 0.262(3)
H12 H 1.259(3) 0.500(5) 0.264(3)
H13 H 0.139(6) 0.444(4) -0.076(4)
H14 H 0.196(7) 0.351(2) -0.019(4)
N1A N 2.5292(6) 0.3492(4) 0.8684(3)
N2A N 2.2185(6) 0.0652(4) 0.4632(4)
N3A N 2.0308(6) 0.0558(4) 0.3841(4)
N4A N 1.5409(6) 0.3243(4) 0.4222(3)
O1A O 2.0660(5) 0.2090(3) 0.5536(3)
C1A C 2.6992(7) 0.3050(5) 0.8754(4)
H1A H 2.8027 0.3382 0.9463
C2A C 2.7267(7) 0.2120(5) 0.7813(5)
H2A H 2.8476 0.1837 0.7888
C3A C 2.5758(7) 0.1613(5) 0.6770(5)
H3A H 2.5921 0.0985 0.6125
C4A C 2.3973(7) 0.2057(4) 0.6693(4)
C5A C 2.3802(7) 0.2991(4) 0.7663(4)
H4A H 2.2607 0.3288 0.7610
C6A C 2.2326(7) 0.1565(4) 0.5603(4)
C7A C 1.9490(7) 0.1418(4) 0.4398(4)
C8A C 1.7570(7) 0.1743(4) 0.3986(4)
C9A C 1.6171(8) 0.0964(5) 0.2931(4)
H5A H 1.6439 0.0209 0.2484
C10A C 1.4400(8) 0.1325(5) 0.2563(5)
H6A H 1.3426 0.0804 0.1876
C11A C 1.4062(7) 0.2465(5) 0.3213(4)
H7A H 1.2857 0.2706 0.2945
C12A C 1.7109(7) 0.2875(4) 0.4611(4)
H8A H 1.8025 0.3392 0.5326
O2A O 1.7715(5) 0.5709(3) 0.5092(3)
H9A H 1.799(6) 0.536(4) 0.4405(18)
H10A H 1.872(5) 0.573(5) 0.572(2)
O3A O 1.6138(5) 0.4947(4) 0.6939(3)
H11A H 1.540(5) 0.534(5) 0.738(3)
H12A H 1.741(3) 0.500(5) 0.736(3)
O4A O 0.7703(5) 0.5743(4) 0.0220(3)
H13A H 0.861(6) 0.556(4) 0.076(4)
H14A H 0.804(7) 0.649(2) 0.019(4)
S1A S 0.85301(18) 0.40684(12) 0.20558(11)
O5A O 0.6467(5) 0.4174(3) 0.1558(3)
O6A O 0.8851(6) 0.2800(4) 0.1558(4)
O7A O 0.9857(5) 0.4899(4) 0.1796(3)
O8A O 0.9035(5) 0.4444(4) 0.3355(3)
N1A_2 N 0.5292(6) 0.3492(4) -0.1316(3)
Cu2_2 Cu 2.5000 0.5000 1.0000
O9 O 0.5120(8) 0.1176(4) -0.0087(4)
O10 O 0.0459(11) 0.9729(8) 0.8677(8)
O11 O 0.1345(6) 0.2168(4) 1.0080(5)
loop_
_geom_bond_atom_site_label_1
_geom_bond_atom_site_label_2
_geom_bond_site_symmetry_1
_geom_bond_site_symmetry_2
Cu1 N4 1_555 1_555
Cu2 N1 1_555 1_555
N1 C1 1_555 1_555
N2 N3 1_555 1_555
N3 C7 1_555 1_555
N4 C11 1_555 1_555
O1 C6 1_555 1_555
O2 Cu1 1_555 1_555
O3 Cu1 1_555 1_555
O4 Cu2 1_555 1_555
C1 H1 1_555 1_555
C2 C1 1_555 1_555
H2 C2 1_555 1_555
C3 C2 1_555 1_555
H3 C3 1_555 1_555
C4 C3 1_555 1_555
C5 N1 1_555 1_555
H4 C5 1_555 1_555
C6 N2 1_555 1_555
C7 O1 1_555 1_555
C8 C7 1_555 1_555
C9 C8 1_555 1_555
H5 C9 1_555 1_555
C10 C9 1_555 1_555
H6 C10 1_555 1_555
C11 C10 1_555 1_555
H7 C11 1_555 1_555
C12 N4 1_555 1_555
H8 C12 1_555 1_555
S1 O5 1_555 1_555
O5 Cu2 1_555 1_555
O6 S1 1_555 1_555
O7 S1 1_555 1_555
O8 S1 1_555 1_555
H9 O2 1_555 1_555
H10 O2 1_555 1_555
H11 O3 1_555 1_555
H12 O3 1_555 1_555
H13 O4 1_555 1_555
H14 O4 1_555 1_555
N1A C1A 1_555 1_555
N2A N3A 1_555 1_555
N3A C7A 1_555 1_555
N4A Cu1 1_555 1_555
O1A C6A 1_555 1_555
C1A H1A 1_555 1_555
C2A C1A 1_555 1_555
H2A C2A 1_555 1_555
C3A C2A 1_555 1_555
H3A C3A 1_555 1_555
C4A C3A 1_555 1_555
C5A N1A 1_555 1_555
H4A C5A 1_555 1_555
C6A N2A 1_555 1_555
C7A O1A 1_555 1_555
C8A C7A 1_555 1_555
C9A C8A 1_555 1_555
H5A C9A 1_555 1_555
C10A C9A 1_555 1_555
H6A C10A 1_555 1_555
C11A N4A 1_555 1_555
H7A C11A 1_555 1_555
C12A N4A 1_555 1_555
H8A C12A 1_555 1_555
O2A Cu1 1_555 1_555
H9A O2A 1_555 1_555
H10A O2A 1_555 1_555
O3A Cu1 1_555 1_555
H11A O3A 1_555 1_555
H12A O3A 1_555 1_555
O4A Cu2 1_555 1_555
H13A O4A 1_555 1_555
H14A O4A 1_555 1_555
S1A O5A 1_555 1_555
O5A Cu2 1_555 1_555
O6A S1A 1_555 1_555
O7A S1A 1_555 1_555
O8A S1A 1_555 1_555
N1A_2 Cu2 1_555 1_555
Cu2_2 N1A 1_555 1_555
C4 C5 1_555 1_555
C4 C6 1_555 1_555
C8 C12 1_555 1_555
C4A C5A 1_555 1_555
C4A C6A 1_555 1_555
C8A C12A 1_555 1_555
C10A C11A 1_555 1_555

#END
