
#######################################################################
#
#                 Cambridge Crystallographic Data Centre
#                                CCDC 
#
#######################################################################
#
# If this CIF has been generated from an entry in the Cambridge 
# Structural Database, then it will include bibliographic, chemical, 
# crystal, experimental, refinement or atomic coordinate data resulting 
# from the CCDC's data processing and validation procedures.
#
#######################################################################

data_QADHOT03
_symmetry_cell_setting           monoclinic
_symmetry_space_group_name_H-M   'P 21'
_symmetry_Int_Tables_number      4
_space_group_name_Hall           'P 2yb'
loop_
_symmetry_equiv_pos_site_id
_symmetry_equiv_pos_as_xyz
1 x,y,z
2 -x,1/2+y,-z
_cell_length_a                   9.5867(2)
_cell_length_b                   7.0487(2)
_cell_length_c                   9.8425(2)
_cell_angle_alpha                90
_cell_angle_beta                 98.256(2)
_cell_angle_gamma                90
_cell_volume                     658.202
loop_
_atom_site_label
_atom_site_type_symbol
_atom_site_fract_x
_atom_site_fract_y
_atom_site_fract_z
Cu1 Cu -0.55990(3) -0.25339(6) -0.17907(3)
N1 N -0.4135(3) -0.1931(4) -0.2882(3)
O1 O -0.6984(2) -0.3081(3) -0.3307(2)
O2 O -0.3197(2) 0.1123(3) 0.0682(2)
O3 O -0.4803(2) -0.0920(3) -0.0290(2)
C1 C -0.4348(3) -0.1735(5) -0.4193(3)
H1 H -0.3574 -0.1408 -0.4615
C2 C -0.5674(3) -0.1975(4) -0.5070(3)
C3 C -0.6922(3) -0.2600(7) -0.4597(2)
C4 C -0.8162(3) -0.2750(6) -0.5565(3)
H2 H -0.9000 -0.3130 -0.5273
C5 C -0.8145(3) -0.2344(6) -0.6922(3)
H3 H -0.8976 -0.2450 -0.7535
C6 C -0.6902(3) -0.1771(5) -0.7415(3)
H4 H -0.6896 -0.1522 -0.8342
C7 C -0.5706(3) -0.1592(5) -0.6485(3)
H5 H -0.4880 -0.1204 -0.6795
C8 C -0.2712(3) -0.1788(4) -0.2205(3)
C9 C -0.2443(3) -0.1006(4) -0.0883(3)
C10 C -0.1046(3) -0.0836(4) -0.0248(3)
H6 H -0.0857 -0.0297 0.0621
C11 C 0.0055(3) -0.1456(5) -0.0895(3)
H7 H 0.0980 -0.1326 -0.0467
C12 C -0.0226(3) -0.2274(5) -0.2187(3)
H8 H 0.0516 -0.2701 -0.2620
C13 C -0.1602(3) -0.2464(7) -0.2845(3)
H9 H -0.1781 -0.3036 -0.3704
C14 C -0.3563(3) -0.0217(4) -0.0135(3)
Cu1A Cu -0.44010(3) 0.24661(6) 0.17907(3)
O2A O -0.6803(2) -0.3877(3) -0.0682(2)
O4 O 0.2180(5) -0.8266(6) 0.7186(5)
H10 H 0.1751 -0.9213 0.6875
C15 C 0.1776(3) -0.6736(5) 0.6356(3)
H11 H 0.0797 -0.6469 0.6377
H12 H 0.1918 -0.7019 0.5432
H13 H 0.2331 -0.5649 0.6680
loop_
_geom_bond_atom_site_label_1
_geom_bond_atom_site_label_2
_geom_bond_site_symmetry_1
_geom_bond_site_symmetry_2
Cu1 N1 1_555 1_555
N1 C1 1_555 1_555
O1 Cu1 1_555 1_555
O2 C14 1_555 1_555
O3 Cu1 1_555 1_555
C1 H1 1_555 1_555
C2 C1 1_555 1_555
C3 O1 1_555 1_555
C4 C3 1_555 1_555
H2 C4 1_555 1_555
C5 C4 1_555 1_555
H3 C5 1_555 1_555
C6 C5 1_555 1_555
H4 C6 1_555 1_555
C7 C2 1_555 1_555
H5 C7 1_555 1_555
C8 N1 1_555 1_555
C9 C8 1_555 1_555
C10 C9 1_555 1_555
H6 C10 1_555 1_555
C11 C10 1_555 1_555
H7 C11 1_555 1_555
C12 C11 1_555 1_555
H8 C12 1_555 1_555
C13 C8 1_555 1_555
H9 C13 1_555 1_555
C14 O3 1_555 1_555
O4 H10 1_555 1_555
C15 O4 1_555 1_555
H11 C15 1_555 1_555
H12 C15 1_555 1_555
H13 C15 1_555 1_555
Cu1A O2 1_555 1_555
O2A Cu1 1_555 1_555
C2 C3 1_555 1_555
C6 C7 1_555 1_555
C9 C14 1_555 1_555
C12 C13 1_555 1_555

#END
