
#######################################################################
#
#                 Cambridge Crystallographic Data Centre
#                                CCDC 
#
#######################################################################
#
# If this CIF has been generated from an entry in the Cambridge 
# Structural Database, then it will include bibliographic, chemical, 
# crystal, experimental, refinement or atomic coordinate data resulting 
# from the CCDC's data processing and validation procedures.
#
#######################################################################

data_QADHOT02
_symmetry_cell_setting           monoclinic
_symmetry_space_group_name_H-M   'P 21'
_symmetry_Int_Tables_number      4
_space_group_name_Hall           'P 2yb'
loop_
_symmetry_equiv_pos_site_id
_symmetry_equiv_pos_as_xyz
1 x,y,z
2 -x,1/2+y,-z
_cell_length_a                   9.6820(13)
_cell_length_b                   7.1446(11)
_cell_length_c                   9.9315(13)
_cell_angle_alpha                90
_cell_angle_beta                 98.385(8)
_cell_angle_gamma                90
_cell_volume                     679.658
loop_
_atom_site_label
_atom_site_type_symbol
_atom_site_fract_x
_atom_site_fract_y
_atom_site_fract_z
Cu1 Cu 0.94039(4) 0.82911(11) 0.82461(3)
O1 O 0.8035(3) 0.8866(5) 0.6738(3)
O2 O 1.0219(3) 0.6700(5) 0.9732(3)
O3 O 1.1780(3) 0.4599(5) 1.0641(3)
N1 N 1.0861(3) 0.7709(5) 0.7161(3)
C2 C 0.9313(4) 0.7752(5) 0.4994(3)
C3 C 0.8095(4) 0.8408(8) 0.5464(3)
C4 C 0.6856(4) 0.8573(7) 0.4502(4)
H5 H 0.5662(84) 0.915(17) 0.4548(75)
C5 C 0.6878(4) 0.8136(11) 0.3150(4)
H6 H 0.6053(52) 0.802(11) 0.2639(46)
C6 C 0.8074(5) 0.7560(7) 0.2671(4)
H7 H 0.8116(55) 0.7327(91) 0.1767(54)
C7 C 0.9295(4) 0.7363(6) 0.3584(4)
H8 H 1.0172(58) 0.6957(94) 0.3122(49)
C8 C 1.0626(4) 0.7512(6) 0.5850(3)
H9 H 1.1430(36) 0.7196(56) 0.5348(32)
C9 C 1.2269(3) 0.7558(5) 0.7827(3)
C10 C 1.3384(3) 0.8186(9) 0.7186(3)
H10 H 1.3065(51) 0.8797(80) 0.6289(47)
C11 C 1.4743(4) 0.8018(8) 0.7825(4)
H11 H 1.5383(48) 0.845(11) 0.7396(48)
C12 C 1.5028(4) 0.7185(7) 0.9101(4)
H12 H 1.6040(56) 0.6906(92) 0.9465(49)
C13 C 1.3930(4) 0.6555(6) 0.9753(4)
H13 H 1.3846(66) 0.5854(99) 1.0672(58)
C14 C 1.2542(3) 0.6739(5) 0.9130(3)
C15 C 1.1429(4) 0.5964(5) 0.9862(3)
Cu1A Cu 1.05961(4) 0.32911(11) 1.17539(3)
O3A O 0.8220(3) 0.9599(5) 0.9359(3)
O4 O 0.6768(7) 1.2480(9) 0.6453(6)
H1 H 0.595(13) 1.230(36) 0.653(34)
C1 C 0.7264(10) 1.4025(12) 0.7241(8)
H2 H 0.6491(11) 1.4798(32) 0.7398(35)
H3 H 0.7885(37) 1.4736(34) 0.6770(21)
H4 H 0.7754(36) 1.3604(12) 0.8097(19)
loop_
_geom_bond_atom_site_label_1
_geom_bond_atom_site_label_2
_geom_bond_site_symmetry_1
_geom_bond_site_symmetry_2
Cu1 O1 1_555 1_555
O1 C3 1_555 1_555
O2 Cu1 1_555 1_555
O3 C15 1_555 1_555
O4 H1 1_555 1_555
N1 Cu1 1_555 1_555
C1 O4 1_555 1_555
H2 C1 1_555 1_555
H3 C1 1_555 1_555
H4 C1 1_555 1_555
C2 C3 1_555 1_555
C3 C4 1_555 1_555
C4 H5 1_555 1_555
C5 C4 1_555 1_555
H6 C5 1_555 1_555
C6 C5 1_555 1_555
H7 C6 1_555 1_555
C7 C2 1_555 1_555
H8 C7 1_555 1_555
C8 N1 1_555 1_555
H9 C8 1_555 1_555
C9 N1 1_555 1_555
C10 C9 1_555 1_555
H10 C10 1_555 1_555
C11 C10 1_555 1_555
H11 C11 1_555 1_555
C12 C11 1_555 1_555
H12 C12 1_555 1_555
C13 C12 1_555 1_555
H13 C13 1_555 1_555
C14 C9 1_555 1_555
C15 O2 1_555 1_555
Cu1A O3 1_555 1_555
O3A Cu1 1_555 1_555
C2 C8 1_555 1_555
C6 C7 1_555 1_555
C13 C14 1_555 1_555
C14 C15 1_555 1_555

#END
