
#######################################################################
#
#                 Cambridge Crystallographic Data Centre
#                                CCDC 
#
#######################################################################
#
# If this CIF has been generated from an entry in the Cambridge 
# Structural Database, then it will include bibliographic, chemical, 
# crystal, experimental, refinement or atomic coordinate data resulting 
# from the CCDC's data processing and validation procedures.
#
#######################################################################

data_QADHOT01
_symmetry_cell_setting           monoclinic
_symmetry_space_group_name_H-M   'P 21'
_symmetry_Int_Tables_number      4
_space_group_name_Hall           'P 2yb'
loop_
_symmetry_equiv_pos_site_id
_symmetry_equiv_pos_as_xyz
1 x,y,z
2 -x,1/2+y,-z
_cell_length_a                   9.6650(19)
_cell_length_b                   7.1280(14)
_cell_length_c                   9.925(2)
_cell_angle_alpha                90
_cell_angle_beta                 98.39(3)
_cell_angle_gamma                90
_cell_volume                     676.437
loop_
_atom_site_label
_atom_site_type_symbol
_atom_site_fract_x
_atom_site_fract_y
_atom_site_fract_z
Cu1 Cu 0.55964(4) 0.45169(10) 0.17550(4)
O1 O 0.6964(3) 0.3929(5) 0.3258(3)
O2 O 0.4776(3) 0.6110(6) 0.0268(3)
O3 O 0.3219(3) 0.8206(5) -0.0641(3)
N1 N 0.4143(4) 0.5100(5) 0.2839(4)
C1 C 0.5689(5) 0.5050(6) 0.5008(4)
C2 C 0.5720(5) 0.5441(8) 0.6433(5)
H2 H 0.4906 0.5835 0.6746
C3 C 0.6920(6) 0.5245(8) 0.7337(5)
H3 H 0.6927 0.5483 0.8260
C4 C 0.8132(5) 0.4681(11) 0.6847(5)
H4 H 0.8960 0.4601 0.7453
C5 C 0.8154(5) 0.4237(9) 0.5502(5)
H5 H 0.8979 0.3830 0.5218
C6 C 0.6906(4) 0.4404(9) 0.4541(4)
C7 C 0.4373(5) 0.5292(7) 0.4157(4)
H6 H 0.3612 0.5615 0.4584
C8 C 0.3564(5) 0.6833(6) 0.0143(4)
C9 C 0.2459(4) 0.6058(7) 0.0877(4)
C10 C 0.1065(5) 0.6252(7) 0.0251(5)
H7 H 0.0871 0.6809 -0.0603
C11 C -0.0020(5) 0.5617(8) 0.0900(5)
H8 H -0.0940 0.5747 0.0479
C12 C 0.0259(4) 0.4792(9) 0.2168(5)
H9 H -0.0475 0.4360 0.2595
C13 C 0.1625(4) 0.4602(11) 0.2812(4)
H10 H 0.1804 0.4047 0.3668
C14 C 0.2730(4) 0.5245(7) 0.2176(4)
O3A O 0.6781(3) 0.3206(5) 0.0641(3)
Cu1A Cu 0.44036(4) 0.95169(10) -0.17550(4)
O4 O 0.1767(7) 0.5312(10) 0.6443(7)
H1 H 0.2303 0.6230 0.6696
C15 C 0.2265(9) 0.3757(13) 0.7262(8)
H11 H 0.2925 0.3197 0.6748
H12 H 0.1579 0.2790 0.7294
H13 H 0.2808 0.3992 0.8135
loop_
_geom_bond_atom_site_label_1
_geom_bond_atom_site_label_2
_geom_bond_site_symmetry_1
_geom_bond_site_symmetry_2
Cu1 O1 1_555 1_555
O1 C6 1_555 1_555
O2 Cu1 1_555 1_555
O3 C8 1_555 1_555
O4 H1 1_555 1_555
N1 Cu1 1_555 1_555
C1 C2 1_555 1_555
C2 H2 1_555 1_555
C3 C2 1_555 1_555
H3 C3 1_555 1_555
C4 C3 1_555 1_555
H4 C4 1_555 1_555
C5 C4 1_555 1_555
H5 C5 1_555 1_555
C6 C1 1_555 1_555
C7 N1 1_555 1_555
H6 C7 1_555 1_555
C8 O2 1_555 1_555
C9 C8 1_555 1_555
C10 C9 1_555 1_555
H7 C10 1_555 1_555
C11 C10 1_555 1_555
H8 C11 1_555 1_555
C12 C11 1_555 1_555
H9 C12 1_555 1_555
C13 C12 1_555 1_555
H10 C13 1_555 1_555
C14 N1 1_555 1_555
C15 O4 1_555 1_555
H11 C15 1_555 1_555
H12 C15 1_555 1_555
H13 C15 1_555 1_555
O3A Cu1 1_555 1_555
Cu1A O3 1_555 1_555
C1 C7 1_555 1_555
C5 C6 1_555 1_555
C9 C14 1_555 1_555
C13 C14 1_555 1_555

#END
