
#######################################################################
#
#                 Cambridge Crystallographic Data Centre
#                                CCDC 
#
#######################################################################
#
# If this CIF has been generated from an entry in the Cambridge 
# Structural Database, then it will include bibliographic, chemical, 
# crystal, experimental, refinement or atomic coordinate data resulting 
# from the CCDC's data processing and validation procedures.
#
#######################################################################

data_QADHOT
_symmetry_cell_setting           monoclinic
_symmetry_space_group_name_H-M   'P 21'
_symmetry_Int_Tables_number      4
_space_group_name_Hall           'P 2yb'
loop_
_symmetry_equiv_pos_site_id
_symmetry_equiv_pos_as_xyz
1 x,y,z
2 -x,1/2+y,-z
_cell_length_a                   9.6650(19)
_cell_length_b                   7.1280(14)
_cell_length_c                   9.925(2)
_cell_angle_alpha                90.00
_cell_angle_beta                 98.39(3)
_cell_angle_gamma                90.00
_cell_volume                     676.437
loop_
_atom_site_label
_atom_site_type_symbol
_atom_site_fract_x
_atom_site_fract_y
_atom_site_fract_z
Cu1 Cu 0.44040(5) 0.31392(13) 0.32452(5)
O1 O 0.3037(4) 0.3783(7) 0.1740(4)
O2 O 0.5224(4) 0.1610(7) 0.4733(4)
O3 O 0.6785(4) -0.0486(7) 0.5639(4)
N1 N 0.5859(5) 0.2618(7) 0.2156(5)
C1 C 0.4308(6) 0.2671(8) -0.0015(6)
C2 C 0.4281(7) 0.2285(11) -0.1430(6)
H1 H 0.5096 0.1895 -0.1741
C3 C 0.3082(8) 0.2476(11) -0.2335(6)
H2 H 0.3077 0.2231 -0.3256
C4 C 0.1875(6) 0.3041(16) -0.1855(6)
H3 H 0.1047 0.3127 -0.2461
C5 C 0.1864(6) 0.3478(11) -0.0508(6)
H4 H 0.1040 0.3893 -0.0226
C6 C 0.3095(5) 0.3305(13) 0.0458(5)
C7 C 0.5632(6) 0.2421(10) 0.0853(6)
H5 H 0.6393 0.2085 0.0429
C8 C 0.6436(6) 0.0882(8) 0.4856(5)
C9 C 0.7543(6) 0.1661(9) 0.4124(5)
C10 C 0.8931(6) 0.1473(9) 0.4749(6)
H6 H 0.9122 0.0921 0.5605
C11 C 1.0013(6) 0.2097(10) 0.4109(7)
H7 H 1.0932 0.1951 0.4530
C12 C 0.9741(6) 0.2942(14) 0.2841(6)
H8 H 1.0477 0.3387 0.2422
C13 C 0.8371(6) 0.3127(15) 0.2192(6)
H9 H 0.8191 0.3688 0.1339
C14 C 0.7273(6) 0.2473(9) 0.2824(6)
O3A O 0.3215(4) 0.4514(7) 0.4361(4)
Cu1A Cu 0.55960(5) -0.18608(13) 0.67548(5)
O4 O 0.7816(13) 0.3967(16) -0.2171(11)
C15 C 0.8196(11) 0.2406(16) -0.1397(9)
loop_
_geom_bond_atom_site_label_1
_geom_bond_atom_site_label_2
_geom_bond_site_symmetry_1
_geom_bond_site_symmetry_2
Cu1 O1 1_555 1_555
O1 C6 1_555 1_555
O2 Cu1 1_555 1_555
O3 C8 1_555 1_555
O4 C15 1_555 1_555
N1 Cu1 1_555 1_555
C1 C2 1_555 1_555
C2 H1 1_555 1_555
C3 C2 1_555 1_555
H2 C3 1_555 1_555
C4 C3 1_555 1_555
H3 C4 1_555 1_555
C5 C4 1_555 1_555
H4 C5 1_555 1_555
C6 C1 1_555 1_555
C7 N1 1_555 1_555
H5 C7 1_555 1_555
C8 O2 1_555 1_555
C9 C8 1_555 1_555
C10 C9 1_555 1_555
H6 C10 1_555 1_555
C11 C10 1_555 1_555
H7 C11 1_555 1_555
C12 C11 1_555 1_555
H8 C12 1_555 1_555
C13 C12 1_555 1_555
H9 C13 1_555 1_555
C14 N1 1_555 1_555
O3A Cu1 1_555 1_555
Cu1A O3 1_555 1_555
C1 C7 1_555 1_555
C5 C6 1_555 1_555
C9 C14 1_555 1_555
C13 C14 1_555 1_555

#END
