
#######################################################################
#
#                 Cambridge Crystallographic Data Centre
#                                CCDC 
#
#######################################################################
#
# If this CIF has been generated from an entry in the Cambridge 
# Structural Database, then it will include bibliographic, chemical, 
# crystal, experimental, refinement or atomic coordinate data resulting 
# from the CCDC's data processing and validation procedures.
#
#######################################################################

data_QADKEL02
_symmetry_cell_setting           monoclinic
_symmetry_space_group_name_H-M   'P 21/c'
_symmetry_Int_Tables_number      14
_space_group_name_Hall           '-P 2ybc'
loop_
_symmetry_equiv_pos_site_id
_symmetry_equiv_pos_as_xyz
1 x,y,z
2 -x,1/2+y,1/2-z
3 -x,-y,-z
4 x,1/2-y,1/2+z
_cell_length_a                   9.5631(2)
_cell_length_b                   9.4538(2)
_cell_length_c                   12.5554(2)
_cell_angle_alpha                90
_cell_angle_beta                 96.9680(10)
_cell_angle_gamma                90
_cell_volume                     1126.72
loop_
_atom_site_label
_atom_site_type_symbol
_atom_site_fract_x
_atom_site_fract_y
_atom_site_fract_z
Co1 Co -0.1147(1) 0.2072(1) 0.1645(1)
Co2 Co 0.1659(1) 0.1805(1) -0.1543(1)
Co3 Co 0.0000 0.0000 0.0000
O1 O -0.1259(1) 0.1902(1) -0.0127(1)
O2 O -0.0480(1) 0.2732(1) -0.1644(1)
O3 O -0.1481(1) 0.4230(1) 0.1632(1)
O4 O -0.2546(1) 0.6280(1) 0.1079(1)
O5 O 0.1299(1) 0.2546(1) 0.1767(1)
O6 O 0.1696(1) 0.1358(1) 0.0272(1)
O7 O 0.6449(1) -0.0816(1) 0.1536(1)
O8 O 0.6708(1) 0.1577(1) 0.1592(1)
O9 O -0.0503(1) 0.0041(1) 0.1591(1)
C1 C -0.1266(2) 0.2819(2) -0.0877(1)
C2 C -0.2260(3) 0.4072(3) -0.0913(2)
C3 C -0.3168(2) 0.4237(2) 0.0012(1)
C4 C -0.2342(2) 0.4967(2) 0.0985(1)
C5 C 0.2138(2) 0.2004(2) 0.1153(1)
C6 C 0.3747(2) 0.2062(2) 0.1425(2)
C7 C 0.4358(2) 0.0552(2) 0.1467(2)
C8 C 0.5976(2) 0.0442(2) 0.1533(1)
H1 H -0.2886(29) 0.4075(30) -0.1597(22)
H2 H -0.1979(31) 0.4855(28) -0.1219(26)
H3 H -0.3536(30) 0.3284(29) 0.0193(22)
H4 H -0.3919(29) 0.4896(25) -0.0203(24)
H5 H 0.3982(28) 0.2486(29) 0.2109(23)
H6 H 0.4131(30) 0.2659(29) 0.0859(22)
H7 H 0.3946(31) -0.0006(26) 0.0876(25)
H8 H 0.4085(28) 0.0011(26) 0.2117(25)
H9 H 0.0150(30) -0.0069(26) 0.2036(26)
O1B O 0.1259(1) -0.1902(1) 0.0127(1)
O2B O 0.0480(1) -0.2732(1) 0.1644(1)
O3B O 0.1481(1) -0.4230(1) -0.1632(1)
O4B O 0.2546(1) -0.6280(1) -0.1079(1)
C1B C 0.1266(2) -0.2819(2) 0.0877(1)
C2B C 0.2260(3) -0.4072(3) 0.0913(2)
C3B C 0.3168(2) -0.4237(2) -0.0012(1)
C4B C 0.2342(2) -0.4967(2) -0.0985(1)
H1B H 0.2886(29) -0.4075(30) 0.1597(22)
H2B H 0.1979(31) -0.4855(28) 0.1219(26)
H3B H 0.3536(30) -0.3284(29) -0.0193(22)
H4B H 0.3919(29) -0.4896(25) 0.0203(24)
O5B O -0.1299(1) -0.2546(1) -0.1767(1)
O6B O -0.1696(1) -0.1358(1) -0.0272(1)
O7B O -0.6449(1) 0.0816(1) -0.1536(1)
O8B O -0.6708(1) -0.1577(1) -0.1592(1)
C5B C -0.2138(2) -0.2004(2) -0.1153(1)
C6B C -0.3747(2) -0.2062(2) -0.1425(2)
C7B C -0.4358(2) -0.0552(2) -0.1467(2)
C8B C -0.5976(2) -0.0442(2) -0.1533(1)
H5B H -0.3982(28) -0.2486(29) -0.2109(23)
H6B H -0.4131(30) -0.2659(29) -0.0859(22)
H7B H -0.3946(31) 0.0006(26) -0.0876(25)
H8B H -0.4085(28) -0.0011(26) -0.2117(25)
O9B O 0.0503(1) -0.0041(1) -0.1591(1)
H9B H -0.0150(30) 0.0069(26) -0.2036(26)
Co1B Co 0.1147(1) -0.2072(1) -0.1645(1)
Co2B Co -0.1659(1) -0.1805(1) 0.1543(1)
O2C O -0.0480(1) 0.2268(1) 0.3356(1)
O8_2 O -0.3292(1) 0.1577(1) 0.1592(1)
O4B_2 O 0.2546(1) 0.3720(1) -0.1079(1)
O5C O 0.1299(1) 0.2454(1) -0.3233(1)
O7B_2 O 0.3551(1) 0.0816(1) -0.1536(1)
Co1C Co -0.1147(1) 0.2928(1) -0.3355(1)
Co2B_2 Co -0.1659(1) 0.8195(1) 0.1543(1)
Co2C Co 0.1659(1) 0.3195(1) 0.3457(1)
Co2B_3 Co 0.8341(1) -0.1805(1) 0.1543(1)
Co1_2 Co 0.8853(1) 0.2072(1) 0.1645(1)
Co1A Co 0.1147(1) -0.2928(1) 0.3355(1)
Co2_2 Co 0.1659(1) -0.8195(1) -0.1543(1)
Co2A Co -0.1659(1) -0.3195(1) -0.3457(1)
Co2_3 Co -0.8341(1) 0.1805(1) -0.1543(1)
Co1B_2 Co -0.8853(1) -0.2072(1) -0.1645(1)
O2A O 0.0480(1) -0.2268(1) -0.3356(1)
O8B_2 O 0.3292(1) -0.1577(1) -0.1592(1)
O4_2 O -0.2546(1) -0.3720(1) 0.1079(1)
O5A O -0.1299(1) -0.2454(1) 0.3233(1)
O7_2 O -0.3551(1) -0.0816(1) 0.1536(1)
loop_
_geom_bond_atom_site_label_1
_geom_bond_atom_site_label_2
_geom_bond_site_symmetry_1
_geom_bond_site_symmetry_2
Co1 O1 1_555 1_555
Co2 O2 1_555 1_555
Co3 O1 1_555 1_555
O1 C1 1_555 1_555
O2 C1 1_555 1_555
O3 Co1 1_555 1_555
O4 C4 1_555 1_555
O5 Co1 1_555 1_555
O6 Co2 1_555 1_555
O7 C8 1_555 1_555
O8 C8 1_555 1_555
O9 Co1 1_555 1_555
C1 C2 1_555 1_555
C2 C3 1_555 1_555
C3 C4 1_555 1_555
C4 O3 1_555 1_555
C5 O5 1_555 1_555
C6 C5 1_555 1_555
C7 C6 1_555 1_555
C8 C7 1_555 1_555
H1 C2 1_555 1_555
H2 C2 1_555 1_555
H3 C3 1_555 1_555
H4 C3 1_555 1_555
H5 C6 1_555 1_555
H6 C6 1_555 1_555
H7 C7 1_555 1_555
H8 C7 1_555 1_555
H9 O9 1_555 1_555
O1B Co3 1_555 1_555
O2B C1B 1_555 1_555
O3B C4B 1_555 1_555
O4B C4B 1_555 1_555
C1B O1B 1_555 1_555
C2B C1B 1_555 1_555
C3B C2B 1_555 1_555
C4B C3B 1_555 1_555
H1B C2B 1_555 1_555
H2B C2B 1_555 1_555
H3B C3B 1_555 1_555
H4B C3B 1_555 1_555
O5B C5B 1_555 1_555
O6B Co3 1_555 1_555
O7B C8B 1_555 1_555
O8B C8B 1_555 1_555
C5B O6B 1_555 1_555
C6B C5B 1_555 1_555
C7B C6B 1_555 1_555
C8B C7B 1_555 1_555
H5B C6B 1_555 1_555
H6B C6B 1_555 1_555
H7B C7B 1_555 1_555
H8B C7B 1_555 1_555
O9B Co2 1_555 1_555
H9B O9B 1_555 1_555
Co1B O1B 1_555 1_555
Co2B O9 1_555 1_555
O2C Co1 1_555 1_555
O8_2 Co1 1_555 1_555
O4B_2 Co2 1_555 1_555
O5C Co2 1_555 1_555
O7B_2 Co2 1_555 1_555
Co1C O2 1_555 1_555
Co2B_2 O4 1_555 1_555
Co2C O5 1_555 1_555
Co2B_3 O7 1_555 1_555
Co1_2 O8 1_555 1_555
Co1A O2B 1_555 1_555
Co2_2 O4B 1_555 1_555
Co2A O5B 1_555 1_555
Co2_3 O7B 1_555 1_555
Co1B_2 O8B 1_555 1_555
O2A Co1B 1_555 1_555
O8B_2 Co1B 1_555 1_555
O4_2 Co2B 1_555 1_555
O5A Co2B 1_555 1_555
O7_2 Co2B 1_555 1_555
Co3 O6 1_555 1_555
Co3 O9 1_555 1_555
Co3 O9B 1_555 1_555
O6 C5 1_555 1_555
O2B Co2B 1_555 1_555
O3B Co1B 1_555 1_555
O5B Co1B 1_555 1_555
O6B Co2B 1_555 1_555
O9B Co1B 1_555 1_555
O2C Co2C 1_555 1_555
O5C Co1C 1_555 1_555
Co1A O5A 1_555 1_555
Co2A O2A 1_555 1_555

#END
