
#######################################################################
#
#                 Cambridge Crystallographic Data Centre
#                                CCDC 
#
#######################################################################
#
# If this CIF has been generated from an entry in the Cambridge 
# Structural Database, then it will include bibliographic, chemical, 
# crystal, experimental, refinement or atomic coordinate data resulting 
# from the CCDC's data processing and validation procedures.
#
#######################################################################

data_QADKEL03
_symmetry_cell_setting           monoclinic
_symmetry_space_group_name_H-M   'P 21/c'
_symmetry_Int_Tables_number      14
_space_group_name_Hall           '-P 2ybc'
loop_
_symmetry_equiv_pos_site_id
_symmetry_equiv_pos_as_xyz
1 x,y,z
2 -x,1/2+y,1/2-z
3 -x,-y,-z
4 x,1/2-y,1/2+z
_cell_length_a                   9.48510(20)
_cell_length_b                   9.43041(11)
_cell_length_c                   12.48682(12)
_cell_angle_alpha                90
_cell_angle_beta                 96.7387(13)
_cell_angle_gamma                90
_cell_volume                     1109.21
loop_
_atom_site_label
_atom_site_type_symbol
_atom_site_fract_x
_atom_site_fract_y
_atom_site_fract_z
O1 O 0.65891 0.07937 0.33567
O2 O 0.75835 -0.12513 0.39022
O3 O 0.54973 0.23426 0.65963
O4 O 0.63418 0.31563 0.51253
C1 C 0.73955 0.00475 0.40097
C2 C 0.71950 0.09276 0.58780
H1 H 0.77822 0.09097 0.65684
H2 H 0.65739 0.01082 0.58562
C3 C 0.62843 0.22291 0.58482
C4 C 0.81664 0.07434 0.49990
H3 H 0.89766 0.01668 0.52722
H4 H 0.85166 0.16636 0.48049
Co1 Co 0.50000 0.50000 0.50000
Co2 Co 0.6187(12) 0.2932(12) 0.3341(9)
Co3 Co 0.6725(12) 0.6817(12) 0.3457(9)
O5 O 0.548(5) 0.491(6) 0.340(3)
O6 O 0.63022 0.75738 0.67354
O7 O 1.16434 0.65511 0.66361
O8 O 0.66922 0.64329 0.52417
O9 O 1.13785 0.41951 0.65543
C5 C 0.71321 0.70414 0.61254
C6 C 0.87250 0.70652 0.64131
H5 H 0.91583 0.76127 0.58808
H6 H 0.89589 0.75138 0.71105
C7 C 0.93027 0.55611 0.64490
H7 H 0.89117 0.50739 0.57967
H8 H 0.89667 0.50722 0.70540
C8 C 1.09077 0.54397 0.65515
O1B O 0.34109 0.92063 0.66433
O2B O 0.24165 1.12513 0.60978
O3B O 0.45027 0.76574 0.34037
O4B O 0.36582 0.68437 0.48747
C1B C 0.26045 0.99525 0.59903
C2B C 0.28050 0.90724 0.41220
H1B H 0.22178 0.90903 0.34316
H2B H 0.34261 0.98918 0.41438
C3B C 0.37157 0.77709 0.41518
C4B C 0.18336 0.92566 0.50010
H3B H 0.10234 0.98332 0.47278
H4B H 0.14834 0.83364 0.51951
Co2B Co 0.3813(12) 0.7068(12) 0.6659(9)
Co3B Co 0.3275(12) 0.3183(12) 0.6543(9)
O5B O 0.452(5) 0.509(6) 0.660(3)
O6B O 0.36978 0.24262 0.32646
O7B O -0.16434 0.34489 0.33639
O8B O 0.33078 0.35671 0.47583
O9B O -0.13785 0.58049 0.34457
C5B C 0.28679 0.29586 0.38746
C6B C 0.12750 0.29348 0.35869
H5B H 0.08417 0.23873 0.41192
H6B H 0.10411 0.24862 0.28895
C7B C 0.06973 0.44389 0.35510
H7B H 0.10883 0.49261 0.42033
H8B H 0.10333 0.49278 0.29460
C8B C -0.09077 0.45603 0.34485
O2_2 O 0.75835 0.87487 0.39022
O2B_2 O 0.24165 0.12513 0.60978
O3A O 0.45027 0.73426 0.84037
O3C O 0.54973 0.26574 0.15963
Co2_2 Co -0.3813(12) 0.2932(12) 0.3341(9)
Co2A Co 0.3813(12) 0.7932(12) 0.1659(9)
Co2B_2 Co 1.3813(12) 0.7068(12) 0.6659(9)
Co2C Co 0.6187(12) 0.2068(12) 0.8341(9)
Co3_2 Co -0.3275(12) 0.6817(12) 0.3457(9)
Co3_3 Co 0.6725(12) -0.3183(12) 0.3457(9)
Co3A Co 0.3275(12) 0.1817(12) 0.1543(9)
Co3B_2 Co 0.3275(12) 1.3183(12) 0.6543(9)
Co3B_3 Co 1.3275(12) 0.3183(12) 0.6543(9)
Co3C Co 0.6725(12) 0.8183(12) 0.8457(9)
O6A O 0.36978 0.25738 0.82646
O6C O 0.63022 0.74262 0.17354
O7_2 O 0.16434 0.65511 0.66361
O7B_2 O 0.83566 0.34489 0.33639
O9_2 O 0.13785 0.41951 0.65543
O9B_2 O 0.86215 0.58049 0.34457
loop_
_geom_bond_atom_site_label_1
_geom_bond_atom_site_label_2
_geom_bond_site_symmetry_1
_geom_bond_site_symmetry_2
O1 C1 1_555 1_555
O2 C1 1_555 1_555
O3 C3 1_555 1_555
O4 C3 1_555 1_555
C1 C4 1_555 1_555
C2 H1 1_555 1_555
H2 C2 1_555 1_555
C3 C2 1_555 1_555
C4 C2 1_555 1_555
H3 C4 1_555 1_555
H4 C4 1_555 1_555
Co1 O4 1_555 1_555
Co2 O1 1_555 1_555
Co3 O5 1_555 1_555
O5 Co1 1_555 1_555
O6 C5 1_555 1_555
O7 C8 1_555 1_555
O8 Co1 1_555 1_555
O9 C8 1_555 1_555
C5 O8 1_555 1_555
C6 C5 1_555 1_555
H5 C6 1_555 1_555
H6 C6 1_555 1_555
C7 C6 1_555 1_555
H7 C7 1_555 1_555
H8 C7 1_555 1_555
C8 C7 1_555 1_555
O1B C1B 1_555 1_555
O2B C1B 1_555 1_555
O3B Co3 1_555 1_555
O4B Co1 1_555 1_555
C1B C4B 1_555 1_555
C2B H1B 1_555 1_555
H2B C2B 1_555 1_555
C3B O3B 1_555 1_555
C4B C2B 1_555 1_555
H3B C4B 1_555 1_555
H4B C4B 1_555 1_555
Co2B O6 1_555 1_555
Co3B O3 1_555 1_555
O5B Co1 1_555 1_555
O6B Co2 1_555 1_555
O7B C8B 1_555 1_555
O8B Co1 1_555 1_555
O9B C8B 1_555 1_555
C5B O6B 1_555 1_555
C6B C5B 1_555 1_555
H5B C6B 1_555 1_555
H6B C6B 1_555 1_555
C7B C6B 1_555 1_555
H7B C7B 1_555 1_555
H8B C7B 1_555 1_555
C8B C7B 1_555 1_555
O2_2 Co3 1_555 1_555
O2B_2 Co3B 1_555 1_555
O3A Co2B 1_555 1_555
O3C Co2 1_555 1_555
Co2_2 O7B 1_555 1_555
Co2A O3B 1_555 1_555
Co2B_2 O7 1_555 1_555
Co2C O3 1_555 1_555
Co3_2 O9B 1_555 1_555
Co3_3 O2 1_555 1_555
Co3A O6B 1_555 1_555
Co3B_2 O2B 1_555 1_555
Co3B_3 O9 1_555 1_555
Co3C O6 1_555 1_555
O6A Co3B 1_555 1_555
O6C Co3 1_555 1_555
O7_2 Co2B 1_555 1_555
O7B_2 Co2 1_555 1_555
O9_2 Co3B 1_555 1_555
O9B_2 Co3 1_555 1_555
O4 Co2 1_555 1_555
Co2 O5 1_555 1_555
Co3 O8 1_555 1_555
O1B Co2B 1_555 1_555
O4B C3B 1_555 1_555
O4B Co2B 1_555 1_555
C2B C3B 1_555 1_555
Co2B O5B 1_555 1_555
Co3B O5B 1_555 1_555
Co3B O8B 1_555 1_555
O8B C5B 1_555 1_555
O3A Co3C 1_555 1_555
O3C Co3A 1_555 1_555
Co2A O6C 1_555 1_555
Co2C O6A 1_555 1_555

#END
