
#######################################################################
#
#                 Cambridge Crystallographic Data Centre
#                                CCDC 
#
#######################################################################
#
# If this CIF has been generated from an entry in the Cambridge 
# Structural Database, then it will include bibliographic, chemical, 
# crystal, experimental, refinement or atomic coordinate data resulting 
# from the CCDC's data processing and validation procedures.
#
#######################################################################

data_QADKEL04
_symmetry_cell_setting           monoclinic
_symmetry_space_group_name_H-M   'P 21/c'
_symmetry_Int_Tables_number      14
_space_group_name_Hall           '-P 2ybc'
loop_
_symmetry_equiv_pos_site_id
_symmetry_equiv_pos_as_xyz
1 x,y,z
2 -x,1/2+y,1/2-z
3 -x,-y,-z
4 x,1/2-y,1/2+z
_cell_length_a                   9.42410(11)
_cell_length_b                   9.33077(8)
_cell_length_c                   12.37502(12)
_cell_angle_alpha                90
_cell_angle_beta                 96.7655(11)
_cell_angle_gamma                90
_cell_volume                     1080.61
loop_
_atom_site_label
_atom_site_type_symbol
_atom_site_fract_x
_atom_site_fract_y
_atom_site_fract_z
O1 O 0.65226 0.07646 0.33518
O2 O 0.75647 -0.12854 0.38967
O3 O 0.55045 0.23387 0.66398
O4 O 0.62962 0.31615 0.51332
C1 C 0.73618 0.00255 0.40022
C2 C 0.72054 0.09254 0.58910
H1 H 0.78159 0.09198 0.65792
H2 H 0.65926 0.00892 0.58837
C3 C 0.62730 0.22288 0.58701
C4 C 0.81560 0.07456 0.49860
H3 H 0.89851 0.01752 0.52512
H4 H 0.84890 0.16786 0.47791
Co1 Co 0.50000 0.50000 0.50000
Co2 Co 0.6160(9) 0.2928(10) 0.3355(8)
Co3 Co 0.6679(9) 0.6809(10) 0.3464(8)
O5 O 0.551(4) 0.497(5) 0.339(3)
O6 O 0.62989 0.76149 0.67425
O7 O 1.16619 0.65336 0.66235
O8 O 0.66690 0.64380 0.52405
O9 O 1.13774 0.41538 0.65592
C5 C 0.71240 0.70612 0.61264
C6 C 0.87287 0.70754 0.64090
H5 H 0.91636 0.76177 0.58654
H6 H 0.89736 0.75363 0.71088
C7 C 0.92989 0.55509 0.64531
H7 H 0.88961 0.50529 0.57999
H8 H 0.89630 0.50680 0.70692
C8 C 1.09131 0.54157 0.65497
O1B O 0.34774 0.92354 0.66482
O2B O 0.24353 1.12854 0.61033
O3B O 0.44955 0.76613 0.33602
O4B O 0.37038 0.68385 0.48668
C1B C 0.26382 0.99745 0.59978
C2B C 0.27946 0.90746 0.41090
H1B H 0.21841 0.90802 0.34208
H2B H 0.34074 0.99108 0.41163
C3B C 0.37270 0.77712 0.41299
C4B C 0.18440 0.92544 0.50140
H3B H 0.10149 0.98248 0.47488
H4B H 0.15110 0.83214 0.52209
Co2B Co 0.3840(9) 0.7072(10) 0.6645(8)
Co3B Co 0.3321(9) 0.3191(10) 0.6536(8)
O5B O 0.449(4) 0.503(5) 0.661(3)
O6B O 0.37011 0.23851 0.32575
O7B O -0.16619 0.34664 0.33765
O8B O 0.33310 0.35620 0.47595
O9B O -0.13774 0.58462 0.34408
C5B C 0.28760 0.29388 0.38736
C6B C 0.12713 0.29246 0.35910
H5B H 0.08364 0.23823 0.41346
H6B H 0.10264 0.24637 0.28912
C7B C 0.07011 0.44491 0.35469
H7B H 0.11039 0.49471 0.42001
H8B H 0.10370 0.49320 0.29308
C8B C -0.09131 0.45843 0.34503
O2_2 O 0.75647 0.87146 0.38967
O2B_2 O 0.24353 0.12854 0.61033
O3A O 0.44955 0.73387 0.83602
O3C O 0.55045 0.26613 0.16398
Co2_2 Co -0.3840(9) 0.2928(10) 0.3355(8)
Co2A Co 0.3840(9) 0.7928(10) 0.1645(8)
Co2B_2 Co 1.3840(9) 0.7072(10) 0.6645(8)
Co2C Co 0.6160(9) 0.2072(10) 0.8355(8)
Co3_2 Co -0.3321(9) 0.6809(10) 0.3464(8)
Co3_3 Co 0.6679(9) -0.3191(10) 0.3464(8)
Co3A Co 0.3321(9) 0.1809(10) 0.1536(8)
Co3B_2 Co 0.3321(9) 1.3191(10) 0.6536(8)
Co3B_3 Co 1.3321(9) 0.3191(10) 0.6536(8)
Co3C Co 0.6679(9) 0.8191(10) 0.8464(8)
O6A O 0.37011 0.26149 0.82575
O6C O 0.62989 0.73851 0.17425
O7_2 O 0.16619 0.65336 0.66235
O7B_2 O 0.83381 0.34664 0.33765
O9_2 O 0.13774 0.41538 0.65592
O9B_2 O 0.86226 0.58462 0.34408
loop_
_geom_bond_atom_site_label_1
_geom_bond_atom_site_label_2
_geom_bond_site_symmetry_1
_geom_bond_site_symmetry_2
O1 C1 1_555 1_555
O2 C1 1_555 1_555
O3 C3 1_555 1_555
O4 C3 1_555 1_555
C1 C4 1_555 1_555
C2 H1 1_555 1_555
H2 C2 1_555 1_555
C3 C2 1_555 1_555
C4 C2 1_555 1_555
H3 C4 1_555 1_555
H4 C4 1_555 1_555
Co1 O4 1_555 1_555
Co2 O1 1_555 1_555
Co3 O5 1_555 1_555
O5 Co1 1_555 1_555
O6 C5 1_555 1_555
O7 C8 1_555 1_555
O8 Co1 1_555 1_555
O9 C8 1_555 1_555
C5 O8 1_555 1_555
C6 C5 1_555 1_555
H5 C6 1_555 1_555
H6 C6 1_555 1_555
C7 C6 1_555 1_555
H7 C7 1_555 1_555
H8 C7 1_555 1_555
C8 C7 1_555 1_555
O1B C1B 1_555 1_555
O2B C1B 1_555 1_555
O3B Co3 1_555 1_555
O4B Co1 1_555 1_555
C1B C4B 1_555 1_555
C2B H1B 1_555 1_555
H2B C2B 1_555 1_555
C3B O3B 1_555 1_555
C4B C2B 1_555 1_555
H3B C4B 1_555 1_555
H4B C4B 1_555 1_555
Co2B O6 1_555 1_555
Co3B O3 1_555 1_555
O5B Co1 1_555 1_555
O6B Co2 1_555 1_555
O7B C8B 1_555 1_555
O8B Co1 1_555 1_555
O9B C8B 1_555 1_555
C5B O6B 1_555 1_555
C6B C5B 1_555 1_555
H5B C6B 1_555 1_555
H6B C6B 1_555 1_555
C7B C6B 1_555 1_555
H7B C7B 1_555 1_555
H8B C7B 1_555 1_555
C8B C7B 1_555 1_555
O2_2 Co3 1_555 1_555
O2B_2 Co3B 1_555 1_555
O3A Co2B 1_555 1_555
O3C Co2 1_555 1_555
Co2_2 O7B 1_555 1_555
Co2A O3B 1_555 1_555
Co2B_2 O7 1_555 1_555
Co2C O3 1_555 1_555
Co3_2 O9B 1_555 1_555
Co3_3 O2 1_555 1_555
Co3A O6B 1_555 1_555
Co3B_2 O2B 1_555 1_555
Co3B_3 O9 1_555 1_555
Co3C O6 1_555 1_555
O6A Co3B 1_555 1_555
O6C Co3 1_555 1_555
O7_2 Co2B 1_555 1_555
O7B_2 Co2 1_555 1_555
O9_2 Co3B 1_555 1_555
O9B_2 Co3 1_555 1_555
O4 Co2 1_555 1_555
Co2 O5 1_555 1_555
Co3 O8 1_555 1_555
O1B Co2B 1_555 1_555
O4B C3B 1_555 1_555
O4B Co2B 1_555 1_555
C2B C3B 1_555 1_555
Co2B O5B 1_555 1_555
Co3B O5B 1_555 1_555
Co3B O8B 1_555 1_555
O8B C5B 1_555 1_555
O3A Co3C 1_555 1_555
O3C Co3A 1_555 1_555
Co2A O6C 1_555 1_555
Co2C O6A 1_555 1_555

#END
