
#######################################################################
#
#                 Cambridge Crystallographic Data Centre
#                                CCDC 
#
#######################################################################
#
# If this CIF has been generated from an entry in the Cambridge 
# Structural Database, then it will include bibliographic, chemical, 
# crystal, experimental, refinement or atomic coordinate data resulting 
# from the CCDC's data processing and validation procedures.
#
#######################################################################

data_QADKEL01
_symmetry_cell_setting           monoclinic
_symmetry_space_group_name_H-M   'P 21/c'
_symmetry_Int_Tables_number      14
_space_group_name_Hall           '-P 2ybc'
loop_
_symmetry_equiv_pos_site_id
_symmetry_equiv_pos_as_xyz
1 x,y,z
2 -x,1/2+y,1/2-z
3 -x,-y,-z
4 x,1/2-y,1/2+z
_cell_length_a                   9.4152(12)
_cell_length_b                   9.3221(10)
_cell_length_c                   12.3677(13)
_cell_angle_alpha                90
_cell_angle_beta                 96.785(7)
_cell_angle_gamma                90
_cell_volume                     1077.9
loop_
_atom_site_label
_atom_site_type_symbol
_atom_site_fract_x
_atom_site_fract_y
_atom_site_fract_z
Co1 Co 0.88505(6) 0.20714(6) 0.16443(5)
Co2 Co 1.16600(6) 0.18058(6) -0.15419(5)
Co3 Co 1.0000 0.0000 0.0000
O1 O 0.8743(3) 0.1906(3) -0.0130(3)
O2 O 0.9518(3) 0.2737(3) -0.1643(3)
O3 O 1.1304(3) 0.2540(3) 0.1768(3)
O4 O 0.9500(3) 0.0040(3) 0.1594(3)
O5 O 1.1698(3) 0.1368(3) 0.0272(3)
O6 O 1.6445(3) -0.0806(4) 0.1534(3)
O7 O 1.6700(3) 0.1580(4) 0.1591(3)
O8 O 0.8518(3) 0.4236(4) 0.1628(3)
O9 O 0.7452(4) 0.6279(4) 0.1077(3)
C1 C 0.7664(5) 0.4964(5) 0.0976(4)
C2 C 0.8732(5) 0.2821(5) -0.0874(4)
C3 C 1.2140(5) 0.2004(5) 0.1155(4)
C4 C 1.5972(5) 0.0453(5) 0.1532(3)
C5 C 1.3746(5) 0.2046(5) 0.1426(5)
H1 H 1.4162(5) 0.2599(5) 0.0879(5)
H2 H 1.3989(5) 0.2512(5) 0.2125(5)
C6 C 0.6835(5) 0.4247(5) 0.0016(4)
H3 H 0.5992(5) 0.4813(5) -0.0224(4)
H4 H 0.6520(5) 0.3310(5) 0.0232(4)
C7 C 1.4357(5) 0.0547(5) 0.1470(4)
H5 H 1.3944(5) 0.0030(5) 0.0828(4)
H6 H 1.4060(5) 0.0062(5) 0.2100(4)
C8 C 0.7734(7) 0.4079(7) -0.0920(5)
H7 H 0.7090(7) 0.4015(7) -0.1590(5)
H8 H 0.8296(7) 0.4945(7) -0.0960(5)
H9 H 1.0178(7) 0.0042(7) 0.2142(5)
O1B O 1.1257(3) -0.1906(3) 0.0130(3)
O2B O 1.0482(3) -0.2737(3) 0.1643(3)
O8B O 1.1482(3) -0.4236(4) -0.1628(3)
O9B O 1.2548(4) -0.6279(4) -0.1077(3)
C1B C 1.2336(5) -0.4964(5) -0.0976(4)
C2B C 1.1268(5) -0.2821(5) 0.0874(4)
C6B C 1.3165(5) -0.4247(5) -0.0016(4)
H3B H 1.4008(5) -0.4813(5) 0.0224(4)
H4B H 1.3480(5) -0.3310(5) -0.0232(4)
C8B C 1.2266(7) -0.4079(7) 0.0920(5)
H7B H 1.2910(7) -0.4015(7) 0.1590(5)
H8B H 1.1704(7) -0.4945(7) 0.0960(5)
O4B O 1.0500(3) -0.0040(3) -0.1594(3)
H9B H 0.9822(7) -0.0042(7) -0.2142(5)
O3B O 0.8696(3) -0.2540(3) -0.1768(3)
O5B O 0.8302(3) -0.1368(3) -0.0272(3)
O6B O 0.3555(3) 0.0806(4) -0.1534(3)
O7B O 0.3300(3) -0.1580(4) -0.1591(3)
C3B C 0.7860(5) -0.2004(5) -0.1155(4)
C4B C 0.4028(5) -0.0453(5) -0.1532(3)
C5B C 0.6254(5) -0.2046(5) -0.1426(5)
H1B H 0.5838(5) -0.2599(5) -0.0879(5)
H2B H 0.6011(5) -0.2512(5) -0.2125(5)
C7B C 0.5643(5) -0.0547(5) -0.1470(4)
H5B H 0.6056(5) -0.0030(5) -0.0828(4)
H6B H 0.5940(5) -0.0062(5) -0.2100(4)
Co1B Co 1.11495(6) -0.20714(6) -0.16443(5)
Co2B Co 0.83400(6) -0.18058(6) 0.15419(5)
O2C O 0.9518(3) 0.2263(3) 0.3357(3)
O7_2 O 0.6700(3) 0.1580(4) 0.1591(3)
O3C O 1.1304(3) 0.2460(3) -0.3232(3)
O6B_2 O 1.3555(3) 0.0806(4) -0.1534(3)
O9B_2 O 1.2548(4) 0.3721(4) -0.1077(3)
Co1C Co 0.88505(6) 0.29286(6) -0.33557(5)
Co2C Co 1.16600(6) 0.31942(6) 0.34581(5)
Co2B_2 Co 1.83400(6) -0.18058(6) 0.15419(5)
Co1_2 Co 1.88505(6) 0.20714(6) 0.16443(5)
Co2B_3 Co 0.83400(6) 0.81942(6) 0.15419(5)
Co1A Co 1.11495(6) -0.29286(6) 0.33557(5)
Co2_2 Co 1.16600(6) -0.81942(6) -0.15419(5)
Co2A Co 0.83400(6) -0.31942(6) -0.34581(5)
Co2_3 Co 0.16600(6) 0.18058(6) -0.15419(5)
Co1B_2 Co 0.11495(6) -0.20714(6) -0.16443(5)
O2A O 1.0482(3) -0.2263(3) -0.3357(3)
O7B_2 O 1.3300(3) -0.1580(4) -0.1591(3)
O3A O 0.8696(3) -0.2460(3) 0.3232(3)
O6_2 O 0.6445(3) -0.0806(4) 0.1534(3)
O9_2 O 0.7452(4) -0.3721(4) 0.1077(3)
loop_
_geom_bond_atom_site_label_1
_geom_bond_atom_site_label_2
_geom_bond_site_symmetry_1
_geom_bond_site_symmetry_2
Co1 O1 1_555 1_555
Co2 O2 1_555 1_555
Co3 O1 1_555 1_555
O1 C2 1_555 1_555
O2 C2 1_555 1_555
O3 Co1 1_555 1_555
O4 Co1 1_555 1_555
O5 Co2 1_555 1_555
O6 C4 1_555 1_555
O7 C4 1_555 1_555
O8 Co1 1_555 1_555
O9 C1 1_555 1_555
C1 O8 1_555 1_555
C2 C8 1_555 1_555
C3 O3 1_555 1_555
C4 C7 1_555 1_555
C5 C3 1_555 1_555
H1 C5 1_555 1_555
H2 C5 1_555 1_555
C6 C1 1_555 1_555
H3 C6 1_555 1_555
H4 C6 1_555 1_555
C7 C5 1_555 1_555
H5 C7 1_555 1_555
H6 C7 1_555 1_555
C8 C6 1_555 1_555
H7 C8 1_555 1_555
H8 C8 1_555 1_555
H9 O4 1_555 1_555
O1B Co3 1_555 1_555
O2B C2B 1_555 1_555
O8B C1B 1_555 1_555
O9B C1B 1_555 1_555
C1B C6B 1_555 1_555
C2B O1B 1_555 1_555
C6B H3B 1_555 1_555
H4B C6B 1_555 1_555
C8B C2B 1_555 1_555
H7B C8B 1_555 1_555
H8B C8B 1_555 1_555
O4B Co2 1_555 1_555
H9B O4B 1_555 1_555
O3B C3B 1_555 1_555
O5B Co3 1_555 1_555
O6B C4B 1_555 1_555
O7B C4B 1_555 1_555
C3B O5B 1_555 1_555
C4B C7B 1_555 1_555
C5B C3B 1_555 1_555
H1B C5B 1_555 1_555
H2B C5B 1_555 1_555
C7B C5B 1_555 1_555
H5B C7B 1_555 1_555
H6B C7B 1_555 1_555
Co1B O1B 1_555 1_555
Co2B O4 1_555 1_555
O2C Co1 1_555 1_555
O7_2 Co1 1_555 1_555
O3C Co2 1_555 1_555
O6B_2 Co2 1_555 1_555
O9B_2 Co2 1_555 1_555
Co1C O2 1_555 1_555
Co2C O3 1_555 1_555
Co2B_2 O6 1_555 1_555
Co1_2 O7 1_555 1_555
Co2B_3 O9 1_555 1_555
Co1A O2B 1_555 1_555
Co2_2 O9B 1_555 1_555
Co2A O3B 1_555 1_555
Co2_3 O6B 1_555 1_555
Co1B_2 O7B 1_555 1_555
O2A Co1B 1_555 1_555
O7B_2 Co1B 1_555 1_555
O3A Co2B 1_555 1_555
O6_2 Co2B 1_555 1_555
O9_2 Co2B 1_555 1_555
Co3 O4 1_555 1_555
Co3 O5 1_555 1_555
Co3 O4B 1_555 1_555
O5 C3 1_555 1_555
O2B Co2B 1_555 1_555
O8B Co1B 1_555 1_555
C6B C8B 1_555 1_555
O4B Co1B 1_555 1_555
O3B Co1B 1_555 1_555
O5B Co2B 1_555 1_555
O2C Co2C 1_555 1_555
O3C Co1C 1_555 1_555
Co1A O3A 1_555 1_555
Co2A O2A 1_555 1_555

#END
