
#######################################################################
#
#                 Cambridge Crystallographic Data Centre
#                                CCDC 
#
#######################################################################
#
# If this CIF has been generated from an entry in the Cambridge 
# Structural Database, then it will include bibliographic, chemical, 
# crystal, experimental, refinement or atomic coordinate data resulting 
# from the CCDC's data processing and validation procedures.
#
#######################################################################

data_QADSEV
_symmetry_cell_setting           triclinic
_symmetry_space_group_name_H-M   'P -1'
_symmetry_Int_Tables_number      2
_space_group_name_Hall           '-P 1'
loop_
_symmetry_equiv_pos_site_id
_symmetry_equiv_pos_as_xyz
1 x,y,z
2 -x,-y,-z
_cell_length_a                   6.2757(1)
_cell_length_b                   7.3745(3)
_cell_length_c                   11.9163(6)
_cell_angle_alpha                86.209(12)
_cell_angle_beta                 81.416(12)
_cell_angle_gamma                73.824(9)
_cell_volume                     523.547
loop_
_atom_site_label
_atom_site_type_symbol
_atom_site_fract_x
_atom_site_fract_y
_atom_site_fract_z
Cu1 Cu 0.04777(8) 0.67407(7) 0.12056(4)
Cu2 Cu 0.5000 0.5000 0.0000
Cu3 Cu 0.24021(7) -0.08825(7) -0.08912(4)
As1 As 0.21160(6) 0.21692(5) 0.13661(3)
S1 S -0.31088(16) 0.49000(15) 0.26480(8)
C1 C 0.0990(6) 0.2372(6) 0.2969(3)
C2 C -0.1044(7) 0.3536(6) 0.3458(3)
C3 C -0.1610(7) 0.3588(7) 0.4630(4)
H1 H -0.2971 0.4365 0.4954
C4 C -0.0120(8) 0.2467(7) 0.5312(4)
H2 H -0.0497 0.2490 0.6097
C5 C 0.1908(8) 0.1321(7) 0.4845(4)
H3 H 0.2896 0.0584 0.5312
C6 C 0.2467(7) 0.1271(6) 0.3676(3)
H4 H 0.3838 0.0499 0.3359
O1 O 0.2487(4) 0.4278(3) 0.0819(2)
O2 O 0.0452(4) 0.1600(4) 0.0543(2)
O3 O 0.4562(4) 0.0494(4) 0.1252(2)
O4 O -0.1873(4) 0.5422(4) 0.1581(2)
O5 O -0.4330(6) 0.3632(5) 0.2377(3)
O6 O -0.4378(6) 0.6514(5) 0.3288(3)
O7 O 0.6799(4) 0.2502(4) -0.0464(2)
H5 H 0.6215 0.2003 -0.0917
O8 O -0.1185(4) 0.8979(4) 0.1971(2)
H6 H -0.2241 0.8750 0.2443
Cu1A Cu 0.95223(8) 0.32593(7) -0.12056(4)
Cu1A_2 Cu -0.04777(8) 0.32593(7) -0.12056(4)
Cu1_2 Cu 1.04777(8) 0.67407(7) 0.12056(4)
Cu3A Cu 0.75979(7) 1.08825(7) 0.08912(4)
Cu3A_2 Cu -0.24021(7) 0.08825(7) 0.08912(4)
Cu3A_3 Cu 0.75979(7) 0.08825(7) 0.08912(4)
Cu3A_4 Cu -0.24021(7) 1.08825(7) 0.08912(4)
Cu3_2 Cu 1.24021(7) 0.91175(7) -0.08912(4)
Cu3_3 Cu 0.24021(7) 0.91175(7) -0.08912(4)
As1A As 0.78840(6) 0.78308(5) -0.13661(3)
S1A S 1.31088(16) 0.51000(15) -0.26480(8)
C1A C 0.9010(6) 0.7628(6) -0.2969(3)
C2A C 1.1044(7) 0.6464(6) -0.3458(3)
C3A C 1.1610(7) 0.6412(7) -0.4630(4)
H1A H 1.2971 0.5635 -0.4954
C4A C 1.0120(8) 0.7533(7) -0.5312(4)
H2A H 1.0497 0.7510 -0.6097
C5A C 0.8092(8) 0.8679(7) -0.4845(4)
H3A H 0.7104 0.9416 -0.5312
C6A C 0.7533(7) 0.8729(6) -0.3676(3)
H4A H 0.6162 0.9501 -0.3359
O1A O 0.7513(4) 0.5722(3) -0.0819(2)
O2A O 0.9548(4) 0.8400(4) -0.0543(2)
O2A_2 O -0.0452(4) 0.8400(4) -0.0543(2)
O2A_3 O -0.0452(4) -0.1600(4) -0.0543(2)
O2_2 O 1.0452(4) 0.1600(4) 0.0543(2)
O2_3 O 1.0452(4) 1.1600(4) 0.0543(2)
O3A O 0.5438(4) 0.9506(4) -0.1252(2)
O3A_2 O 0.5438(4) -0.0494(4) -0.1252(2)
O3_2 O 0.4562(4) 1.0494(4) 0.1252(2)
O4A O 1.1873(4) 0.4578(4) -0.1581(2)
O5A O 1.4330(6) 0.6368(5) -0.2377(3)
O6A O 1.4378(6) 0.3486(5) -0.3288(3)
O7A O 0.3201(4) 0.7498(4) 0.0464(2)
O7A_2 O 0.3201(4) -0.2502(4) 0.0464(2)
O7_2 O 0.6799(4) 1.2502(4) -0.0464(2)
H5A H 0.3785 0.7997 0.0917
H5A_2 H 0.3785 -0.2003 0.0917
H5_2 H 0.6215 1.2003 -0.0917
O8A O 0.1185(4) 0.1021(4) -0.1971(2)
O8A_2 O 1.1185(4) 0.1021(4) -0.1971(2)
O8_2 O 0.8815(4) 0.8979(4) 0.1971(2)
H6A H 0.2241 0.1250 -0.2443
H6A_2 H 1.2241 0.1250 -0.2443
H6_2 H 0.7759 0.8750 0.2443
loop_
_geom_bond_atom_site_label_1
_geom_bond_atom_site_label_2
_geom_bond_site_symmetry_1
_geom_bond_site_symmetry_2
Cu1 O1 1_555 1_555
Cu2 O1 1_555 1_555
Cu3 O2 1_555 1_555
As1 C1 1_555 1_555
S1 C2 1_555 1_555
C1 C2 1_555 1_555
C2 C3 1_555 1_555
C3 H1 1_555 1_555
C4 C3 1_555 1_555
H2 C4 1_555 1_555
C5 C4 1_555 1_555
H3 C5 1_555 1_555
C6 C1 1_555 1_555
H4 C6 1_555 1_555
O1 As1 1_555 1_555
O2 As1 1_555 1_555
O3 As1 1_555 1_555
O4 Cu1 1_555 1_555
O5 S1 1_555 1_555
O6 S1 1_555 1_555
O7 Cu2 1_555 1_555
H5 O7 1_555 1_555
O8 Cu1 1_555 1_555
H6 O8 1_555 1_555
Cu1A O7 1_555 1_555
Cu1A_2 O2 1_555 1_555
Cu1_2 O2A 1_555 1_555
Cu3A O2A 1_555 1_555
Cu3A_2 O2 1_555 1_555
Cu3A_3 O3 1_555 1_555
Cu3A_4 O8 1_555 1_555
Cu3_2 O2A 1_555 1_555
Cu3_3 O2A_2 1_555 1_555
As1A C1A 1_555 1_555
S1A C2A 1_555 1_555
C1A C2A 1_555 1_555
C2A C3A 1_555 1_555
C3A H1A 1_555 1_555
C4A C3A 1_555 1_555
H2A C4A 1_555 1_555
C5A C4A 1_555 1_555
H3A C5A 1_555 1_555
C6A C1A 1_555 1_555
H4A C6A 1_555 1_555
O1A Cu2 1_555 1_555
O2A As1A 1_555 1_555
O2A_2 Cu1 1_555 1_555
O2A_3 Cu3 1_555 1_555
O2_2 Cu1A 1_555 1_555
O2_3 Cu3A 1_555 1_555
O3A Cu3_3 1_555 1_555
O3A_2 Cu3 1_555 1_555
O3_2 Cu3A 1_555 1_555
O4A Cu1A 1_555 1_555
O5A S1A 1_555 1_555
O6A S1A 1_555 1_555
O7A Cu1 1_555 1_555
O7A_2 Cu3 1_555 1_555
O7_2 Cu3A 1_555 1_555
H5A O7A 1_555 1_555
H5A_2 O7A_2 1_555 1_555
H5_2 O7_2 1_555 1_555
O8A Cu3 1_555 1_555
O8A_2 Cu1A 1_555 1_555
O8_2 Cu1_2 1_555 1_555
H6A O8A 1_555 1_555
H6A_2 O8A_2 1_555 1_555
H6_2 O8_2 1_555 1_555
Cu2 O7A 1_555 1_555
S1 O4 1_555 1_555
C5 C6 1_555 1_555
O7 Cu3A_3 1_555 1_555
Cu1A O1A 1_555 1_555
Cu1A_2 O8A 1_555 1_555
Cu3A O8_2 1_555 1_555
Cu3A_2 O2A_3 1_555 1_555
Cu3A_3 O2_2 1_555 1_555
Cu3A_4 O2A_2 1_555 1_555
Cu3_2 O2_3 1_555 1_555
Cu3_3 O7A 1_555 1_555
As1A O1A 1_555 1_555
As1A O3A 1_555 1_555
S1A O4A 1_555 1_555
C5A C6A 1_555 1_555

#END
