
#######################################################################
#
#                 Cambridge Crystallographic Data Centre
#                                CCDC 
#
#######################################################################
#
# If this CIF has been generated from an entry in the Cambridge 
# Structural Database, then it will include bibliographic, chemical, 
# crystal, experimental, refinement or atomic coordinate data resulting 
# from the CCDC's data processing and validation procedures.
#
#######################################################################

data_QADYUQ
_symmetry_cell_setting           monoclinic
_symmetry_space_group_name_H-M   'P 21/n'
_symmetry_Int_Tables_number      14
_space_group_name_Hall           '-P 2yn'
loop_
_symmetry_equiv_pos_site_id
_symmetry_equiv_pos_as_xyz
1 x,y,z
2 1/2+x,1/2-y,1/2+z
3 -x,-y,-z
4 1/2-x,1/2+y,1/2-z
_cell_length_a                   13.743(3)
_cell_length_b                   11.4925(17)
_cell_length_c                   19.068(4)
_cell_angle_alpha                90
_cell_angle_beta                 104.346(8)
_cell_angle_gamma                90
_cell_volume                     2917.72
loop_
_atom_site_label
_atom_site_type_symbol
_atom_site_fract_x
_atom_site_fract_y
_atom_site_fract_z
Rb1 Rb 0.54381(12) 0.24023(12) -0.05325(7)
Rb2 Rb 0.43213(11) 0.57047(10) -0.15552(7)
Rb3 Rb 0.24340(14) 0.28660(14) -0.17035(9)
S1 S 0.4920(3) 0.2603(3) -0.24872(18)
S2 S 0.8285(2) 0.0108(3) -0.51002(16)
S3 S 0.5211(3) 0.8915(3) -0.12335(17)
O1 O 0.7473(6) 0.5581(6) -0.3826(4)
O2 O 0.4347(8) 0.3355(8) -0.2126(5)
O3 O 0.4284(7) 0.1916(8) -0.3074(5)
O4 O 0.5636(8) 0.1868(7) -0.1957(5)
O5 O 0.4506(6) 0.2704(7) -0.5356(4)
O6 O 0.8056(7) -0.0995(7) -0.5471(5)
O7 O 0.8863(7) 0.0851(8) -0.5458(5)
O8 O 0.8737(7) -0.0018(8) -0.4330(4)
O9 O 0.7112(6) 0.7771(7) -0.3601(4)
O10 O 0.5976(8) 0.9685(7) -0.0771(5)
O11 O 0.4271(9) 0.9523(9) -0.1527(5)
O12 O 0.5071(8) 0.7842(7) -0.0855(4)
C1 C 0.7415(10) 0.6109(9) -0.2362(6)
H1 H 0.7616 0.5890 -0.1855
H2 H 0.8017 0.6245 -0.2529
C2 C 0.6794(9) 0.5110(9) -0.2809(6)
C3 C 0.6882(9) 0.4897(10) -0.3510(6)
C4 C 0.6289(10) 0.4004(9) -0.3943(6)
C5 C 0.5707(10) 0.3348(10) -0.3620(6)
H3 H 0.5329 0.2755 -0.3889
C6 C 0.5638(10) 0.3510(10) -0.2901(7)
C7 C 0.6213(9) 0.4410(9) -0.2503(7)
H4 H 0.6197 0.4529 -0.2023
C8 C 0.6308(11) 0.3836(9) -0.4724(6)
H5 H 0.6912 0.4196 -0.4799
H6 H 0.5738 0.4244 -0.5026
C9 C 0.6277(10) 0.2566(11) -0.4976(6)
C10 C 0.5354(11) 0.2062(10) -0.5326(6)
C11 C 0.5324(10) 0.0965(10) -0.5661(6)
C12 C 0.6205(10) 0.0328(10) -0.5574(6)
H7 H 0.6189 -0.0425 -0.5755
C13 C 0.7130(9) 0.0844(10) -0.5203(6)
C14 C 0.7149(11) 0.1964(10) -0.4912(6)
H8 H 0.7758 0.2298 -0.4674
C15 C 0.6778(9) 0.7234(9) -0.2449(6)
C16 C 0.6305(9) 0.7542(10) -0.1907(6)
H9 H 0.6404 0.7085 -0.1494
C17 C 0.5700(10) 0.8497(9) -0.1969(6)
C18 C 0.5484(10) 0.9142(9) -0.2601(6)
H10 H 0.5030 0.9754 -0.2655
C19 C 0.5940(10) 0.8882(9) -0.3156(6)
C20 C 0.6646(9) 0.7941(10) -0.3056(7)
C21 C 0.4346(9) 0.0483(9) -0.6125(6)
H11 H 0.3817 0.0576 -0.5874
H12 H 0.4422 -0.0341 -0.6208
O13 O 0.3511(9) 0.1142(9) -0.0721(5)
O15 O 0.2187(10) 0.5447(12) -0.2257(6)
O16 O 0.4204(9) 0.6291(13) -0.3131(7)
O17 O 0.220(2) 0.280(2) -0.3155(15)
C21B C 0.5654(9) 0.9517(9) -0.3875(6)
C11B C 0.4676(10) 0.9035(10) -0.4339(6)
C10B C 0.4646(11) 0.7938(10) -0.4674(6)
O5B O 0.5494(6) 0.7296(7) -0.4644(4)
C9B C 0.3723(10) 0.7434(11) -0.5024(6)
C8B C 0.3692(11) 0.6164(9) -0.5276(6)
C4B C 0.3711(10) 0.5996(9) -0.6057(6)
C3B C 0.3118(9) 0.5103(10) -0.6490(6)
O1B O 0.2527(6) 0.4419(6) -0.6174(4)
C2B C 0.3206(9) 0.4890(9) -0.7191(6)
C1B C 0.2585(10) 0.3891(9) -0.7638(6)
H1B H 0.2384 0.4110 -0.8145
H2B H 0.1983 0.3755 -0.7471
C15B C 0.3222(9) 0.2766(9) -0.7551(6)
C16B C 0.3695(9) 0.2458(10) -0.8093(6)
H9B H 0.3596 0.2915 -0.8506
C17B C 0.4300(10) 0.1503(9) -0.8031(6)
S3B S 0.4789(3) 0.1085(3) -0.87665(17)
O10B O 0.4024(8) 0.0315(7) -0.9229(5)
O11B O 0.5729(9) 0.0477(9) -0.8473(5)
O12B O 0.4929(8) 0.2158(7) -0.9145(4)
C18B C 0.4516(10) 0.0858(9) -0.7399(6)
H10B H 0.4970 0.0246 -0.7345
C19B C 0.4060(10) 0.1118(9) -0.6844(6)
C20B C 0.3354(9) 0.2059(10) -0.6944(7)
O9B O 0.2888(6) 0.2229(7) -0.6399(4)
C7B C 0.3787(9) 0.5590(9) -0.7497(7)
C6B C 0.4362(10) 0.6490(10) -0.7099(7)
S1B S 0.5080(3) 0.7397(3) -0.75128(18)
O2B O 0.5653(8) 0.6645(8) -0.7874(5)
O3B O 0.5716(7) 0.8084(8) -0.6926(5)
O4B O 0.4364(8) 0.8132(7) -0.8043(5)
C5B C 0.4293(10) 0.6652(10) -0.6380(6)
H3B H 0.4671 0.7245 -0.6111
H4B H 0.3803 0.5471 -0.7977
H5B H 0.3088 0.5804 -0.5201
H6B H 0.4262 0.5756 -0.4974
C14B C 0.2851(11) 0.8036(10) -0.5088(6)
C13B C 0.2870(9) 0.9156(10) -0.4797(6)
S2B S 0.1715(2) 0.9892(3) -0.48998(16)
O6B O 0.1944(7) 1.0995(7) -0.4529(5)
O7B O 0.1137(7) 0.9149(8) -0.4542(5)
O8B O 0.1263(7) 1.0018(8) -0.5670(4)
C12B C 0.3795(10) 0.9672(10) -0.4426(6)
H7B H 0.3811 1.0425 -0.4245
H8B H 0.2242 0.7702 -0.5326
H11B H 0.6183 0.9424 -0.4126
H12B H 0.5578 1.0341 -0.3792
Rb1B Rb 0.45619(12) 0.75977(12) -0.94675(7)
Rb2B Rb 0.56787(11) 0.42953(10) -0.84448(7)
Rb3B Rb 0.75660(14) 0.71340(14) -0.82965(9)
O16C O 0.0796(9) 0.1291(13) -0.1869(7)
O13B O 0.6489(9) 0.8858(9) -0.9279(5)
O15B O 0.7813(10) 0.4553(12) -0.7743(6)
O17B O 0.780(2) 0.720(2) -0.6845(15)
O6C O 0.6944(7) 0.4005(7) 0.0471(5)
O7A O 0.3863(7) 0.4149(8) -0.0458(5)
O12B_2 O 0.4929(8) 0.2158(7) 0.0855(4)
O6A O 0.3056(7) 0.5995(7) -0.0471(5)
O8C O 0.6263(7) 0.4982(8) -0.0670(4)
Rb1C Rb 0.95619(12) -0.25977(12) -0.44675(7)
Rb2A Rb 0.93213(11) -0.07047(10) -0.65552(7)
Rb1A Rb 1.04381(12) 0.25977(12) -0.55325(7)
Rb3A Rb 0.74340(14) 0.21340(14) -0.67035(9)
Rb2C Rb 1.06787(11) 0.07047(10) -0.34448(7)
Rb1B_2 Rb 0.45619(12) 0.75977(12) 0.05325(7)
Rb3C Rb 0.25660(14) 0.78660(14) -0.32965(9)
Rb1_2 Rb 0.54381(12) 0.24023(12) -1.05325(7)
Rb1A_2 Rb 0.04381(12) 1.25977(12) -0.55325(7)
Rb2C_2 Rb 0.06787(11) 1.07047(10) -0.34448(7)
Rb1C_2 Rb -0.04381(12) 0.74023(12) -0.44675(7)
Rb2A_2 Rb -0.06787(11) 0.92953(10) -0.65552(7)
O6A_2 O 0.3056(7) 0.5995(7) -1.0471(5)
O7C O 0.6137(7) 0.5851(8) -0.9542(5)
O12_2 O 0.5071(8) 0.7842(7) -1.0855(4)
O6C_2 O 0.6944(7) 0.4005(7) -0.9529(5)
O8A O 0.3737(7) 0.5018(8) -0.9330(4)
O16B O 0.5796(9) 0.3709(13) -0.6869(7)
O16A O 0.9204(9) 0.8709(13) -0.8131(7)
Rb2C_3 Rb 0.06787(11) 0.07047(10) -0.34448(7)
O14 O 0.7624(9) 0.1757(8) 0.0300(6)
O18 O 0.2986(13) 0.4377(14) -0.3419(8)
loop_
_geom_bond_atom_site_label_1
_geom_bond_atom_site_label_2
_geom_bond_site_symmetry_1
_geom_bond_site_symmetry_2
Rb1 O4 1_555 1_555
Rb2 O2 1_555 1_555
Rb3 O2 1_555 1_555
S1 O2 1_555 1_555
S2 O6 1_555 1_555
S3 O10 1_555 1_555
O1 C3 1_555 1_555
O3 S1 1_555 1_555
O4 S1 1_555 1_555
O5 C10 1_555 1_555
O6 Rb1C 1_555 1_555
O7 S2 1_555 1_555
O8 S2 1_555 1_555
O9 C20 1_555 1_555
O11 S3 1_555 1_555
O12 Rb2 1_555 1_555
C1 H1 1_555 1_555
H2 C1 1_555 1_555
C2 C1 1_555 1_555
C3 C2 1_555 1_555
C4 C3 1_555 1_555
C5 C4 1_555 1_555
H3 C5 1_555 1_555
C6 S1 1_555 1_555
C7 C2 1_555 1_555
H4 C7 1_555 1_555
C8 C4 1_555 1_555
H5 C8 1_555 1_555
H6 C8 1_555 1_555
C9 C8 1_555 1_555
C10 C9 1_555 1_555
C11 C10 1_555 1_555
C12 C11 1_555 1_555
H7 C12 1_555 1_555
C13 S2 1_555 1_555
C14 C9 1_555 1_555
H8 C14 1_555 1_555
C15 C1 1_555 1_555
C16 C15 1_555 1_555
H9 C16 1_555 1_555
C17 S3 1_555 1_555
C18 C17 1_555 1_555
H10 C18 1_555 1_555
C19 C18 1_555 1_555
C20 C15 1_555 1_555
C21 C11 1_555 1_555
H11 C21 1_555 1_555
H12 C21 1_555 1_555
O13 Rb1 1_555 1_555
O15 Rb2 1_555 1_555
O16 Rb2 1_555 1_555
O17 Rb3 1_555 1_555
C21B C19 1_555 1_555
C11B C21B 1_555 1_555
C10B C11B 1_555 1_555
O5B C10B 1_555 1_555
C9B C10B 1_555 1_555
C8B C9B 1_555 1_555
C4B C8B 1_555 1_555
C3B C4B 1_555 1_555
O1B C3B 1_555 1_555
C2B C3B 1_555 1_555
C1B C2B 1_555 1_555
H1B C1B 1_555 1_555
H2B C1B 1_555 1_555
C15B C1B 1_555 1_555
C16B C15B 1_555 1_555
H9B C16B 1_555 1_555
C17B C16B 1_555 1_555
S3B C17B 1_555 1_555
O10B S3B 1_555 1_555
O11B S3B 1_555 1_555
O12B S3B 1_555 1_555
C18B C17B 1_555 1_555
H10B C18B 1_555 1_555
C19B C21 1_555 1_555
C20B C15B 1_555 1_555
O9B C20B 1_555 1_555
C7B C2B 1_555 1_555
C6B C7B 1_555 1_555
S1B C6B 1_555 1_555
O2B S1B 1_555 1_555
O3B S1B 1_555 1_555
O4B S1B 1_555 1_555
C5B C4B 1_555 1_555
H3B C5B 1_555 1_555
H4B C7B 1_555 1_555
H5B C8B 1_555 1_555
H6B C8B 1_555 1_555
C14B C9B 1_555 1_555
C13B C14B 1_555 1_555
S2B C13B 1_555 1_555
O6B S2B 1_555 1_555
O7B S2B 1_555 1_555
O8B S2B 1_555 1_555
C12B C11B 1_555 1_555
H7B C12B 1_555 1_555
H8B C14B 1_555 1_555
H11B C21B 1_555 1_555
H12B C21B 1_555 1_555
Rb1B O4B 1_555 1_555
Rb2B O12B 1_555 1_555
Rb3B O2B 1_555 1_555
O16C Rb3 1_555 1_555
O13B Rb1B 1_555 1_555
O15B Rb2B 1_555 1_555
O17B Rb3B 1_555 1_555
O6C Rb1 1_555 1_555
O7A Rb1 1_555 1_555
O12B_2 Rb1 1_555 1_555
O6A Rb2 1_555 1_555
O8C Rb2 1_555 1_555
Rb2A O6 1_555 1_555
Rb1A O7 1_555 1_555
Rb3A O7 1_555 1_555
Rb2C O8 1_555 1_555
Rb1B_2 O12 1_555 1_555
Rb3C O16 1_555 1_555
Rb1_2 O12B 1_555 1_555
Rb1A_2 O6B 1_555 1_555
Rb2C_2 O6B 1_555 1_555
Rb1C_2 O7B 1_555 1_555
Rb2A_2 O8B 1_555 1_555
O6A_2 Rb1B 1_555 1_555
O7C Rb1B 1_555 1_555
O12_2 Rb1B 1_555 1_555
O6C_2 Rb2B 1_555 1_555
O8A Rb2B 1_555 1_555
O16B Rb2B 1_555 1_555
O16A Rb3B 1_555 1_555
Rb2C_3 O16C 1_555 1_555
Rb2 O7A 1_555 1_555
Rb3 O13 1_555 1_555
Rb3 O7A 1_555 1_555
S3 O12 1_555 1_555
O7 Rb2A 1_555 1_555
C5 C6 1_555 1_555
C6 C7 1_555 1_555
C12 C13 1_555 1_555
C13 C14 1_555 1_555
C16 C17 1_555 1_555
C19 C20 1_555 1_555
C18B C19B 1_555 1_555
C19B C20B 1_555 1_555
C6B C5B 1_555 1_555
O2B Rb2B 1_555 1_555
C13B C12B 1_555 1_555
O7B Rb2C_2 1_555 1_555
O7B Rb3C 1_555 1_555
Rb2B O7C 1_555 1_555
Rb3B O13B 1_555 1_555
Rb3B O7C 1_555 1_555
O6A Rb1B_2 1_555 1_555
Rb3A O16B 1_555 1_555
Rb1_2 O6C_2 1_555 1_555

#END
