
#######################################################################
#
#                 Cambridge Crystallographic Data Centre
#                                CCDC 
#
#######################################################################
#
# If this CIF has been generated from an entry in the Cambridge 
# Structural Database, then it will include bibliographic, chemical, 
# crystal, experimental, refinement or atomic coordinate data resulting 
# from the CCDC's data processing and validation procedures.
#
#######################################################################

data_QADYOK
_symmetry_cell_setting           monoclinic
_symmetry_space_group_name_H-M   'P 2/c'
_symmetry_Int_Tables_number      13
_space_group_name_Hall           '-P 2yc'
loop_
_symmetry_equiv_pos_site_id
_symmetry_equiv_pos_as_xyz
1 x,y,z
2 x,-y,1/2+z
3 -x,-y,-z
4 -x,y,1/2-z
_cell_length_a                   16.9112(12)
_cell_length_b                   14.1106(10)
_cell_length_c                   18.1933(10)
_cell_angle_alpha                90
_cell_angle_beta                 106.227(4)
_cell_angle_gamma                90
_cell_volume                     4168.46
loop_
_atom_site_label
_atom_site_type_symbol
_atom_site_fract_x
_atom_site_fract_y
_atom_site_fract_z
Na1 Na -0.23273(9) 0.68261(10) 0.09632(8)
Na2 Na 0.53135(10) 0.58002(10) 0.07571(8)
Na3 Na 0.5000 0.49947(15) 0.2500
Na4 Na 0.05148(9) 0.47796(10) 0.09627(8)
Na5 Na 0.0000 0.58868(14) 0.2500
Na6 Na 0.21114(9) 1.17470(10) 0.07418(8)
S1 S -0.04483(6) 0.69573(6) 0.05436(5)
S2 S 0.16884(6) 0.68676(6) -0.27828(5)
S3 S 0.60580(6) 0.73669(7) -0.03159(5)
S4 S 0.33376(6) 0.64492(6) 0.24972(5)
O1 O 0.15252(16) 1.03063(17) 0.02085(13)
H1 H 0.1682 1.0332 -0.0218
O2 O -0.01442(16) 0.61339(17) 0.02174(14)
O3 O -0.13028(15) 0.71835(17) 0.01395(13)
O4 O -0.03330(15) 0.68656(17) 0.13670(13)
O5 O 0.21756(15) 1.02959(16) -0.08778(13)
O6 O 0.21615(17) 0.61369(18) -0.22693(14)
O7 O 0.20711(18) 0.70868(18) -0.33925(14)
O8 O 0.08238(17) 0.66302(19) -0.30661(16)
O9 O 0.35479(15) 1.00368(17) 0.01327(13)
H2 H 0.3065 1.0177 -0.0462
O10 O 0.57257(17) 0.68891(18) -0.10483(15)
O11 O 0.67818(16) 0.79344(18) -0.02900(15)
O12 O 0.62313(17) 0.67064(18) 0.03300(15)
O13 O 0.31729(16) 1.04246(17) 0.14173(13)
H3 H 0.3321 1.0390 0.0910
O14 O 0.41891(15) 0.62571(17) 0.29244(14)
O15 O 0.27667(16) 0.63824(18) 0.29671(14)
O16 O 0.30755(16) 0.58646(17) 0.18061(14)
C1 C 0.1081(2) 0.9520(2) 0.0265(2)
C2 C 0.1114(2) 0.9191(3) 0.0999(2)
C3 C 0.0637(2) 0.8410(2) 0.1077(2)
H4 H 0.0640 0.8199 0.1562
C4 C 0.0155(2) 0.7943(3) 0.0429(2)
C5 C 0.0137(2) 0.8265(2) -0.0300(2)
H5 H -0.0182 0.7948 -0.0729
C6 C 0.0594(2) 0.9061(3) -0.0391(2)
C7 C 0.0569(2) 0.9412(3) -0.1188(2)
H6 H 0.0589 1.0099 -0.1181
H7 H 0.0048 0.9226 -0.1541
C8 C 0.1269(2) 0.9040(2) -0.14933(19)
C9 C 0.2037(2) 0.9519(2) -0.13189(19)
C10 C 0.2675(2) 0.9171(2) -0.1614(2)
C11 C 0.2533(2) 0.8374(2) -0.2069(2)
H8 H 0.2947 0.8148 -0.2267
C12 C 0.1780(2) 0.7900(3) -0.2238(2)
C13 C 0.1157(2) 0.8235(2) -0.19411(19)
H9 H 0.0659 0.7911 -0.2046
C14 C 0.3514(2) 0.9629(3) -0.1423(2)
H10 H 0.3461 1.0295 -0.1314
H11 H 0.3727 0.9587 -0.1865
C15 C 0.4123(2) 0.9168(2) -0.0741(2)
C16 C 0.4104(2) 0.9405(3) 0.0003(2)
C17 C 0.4672(2) 0.9014(3) 0.0646(2)
C18 C 0.5256(2) 0.8378(3) 0.0540(2)
H12 H 0.5637 0.8116 0.0962
C19 C 0.5274(2) 0.8131(2) -0.0193(2)
C20 C 0.4708(2) 0.8519(2) -0.0830(2)
H13 H 0.4721 0.8343 -0.1318
C21 C 0.4648(2) 0.9319(3) 0.1441(2)
H14 H 0.4640 1.0005 0.1461
H15 H 0.5147 0.9104 0.1811
C22 C 0.3904(2) 0.8932(3) 0.16661(19)
C23 C 0.3208(2) 0.9483(2) 0.16365(19)
C24 C 0.2538(2) 0.9102(2) 0.18458(19)
C25 C 0.2606(2) 0.8182(3) 0.21334(19)
H16 H 0.2177 0.7929 0.2299
C26 C 0.3297(2) 0.7636(3) 0.21783(19)
C27 C 0.3934(2) 0.8004(3) 0.19220(19)
H17 H 0.4384 0.7625 0.1922
C28 C 0.1712(2) 0.9610(2) 0.17053(19)
H18 H 0.1500 0.9532 0.2145
H19 H 0.1782 1.0282 0.1630
O18 O -0.20419(16) 0.53077(18) 0.06234(14)
H26 H -0.2359 0.4738 0.0637
H27 H -0.1955 0.5259 0.0142
O19 O -0.15497(16) 0.80783(18) 0.16845(14)
H28 H -0.1706 0.8743 0.1397
H29 H -0.1139 0.7867 0.1539
O20 O 0.55493(17) 0.42002(18) 0.05443(15)
H30 H 0.6098 0.4146 0.0539
H31 H 0.5430 0.3788 0.0821
O21 O 0.57658(16) 0.51433(18) 0.38462(15)
H32 H 0.5960 0.4550 0.3940
H33 H 0.6202 0.5452 0.3781
O22 O 0.4022(2) 0.3824(2) 0.2648(2)
H34 H 0.3450 0.3926 0.2608
H35 H 0.4026 0.3237 0.2545
O23 O 0.18992(16) 0.46699(17) 0.08481(13)
H36 H 0.2100 0.4014 0.1073
H37 H 0.2272 0.5019 0.1263
O24 O 0.12306(16) 0.55786(18) 0.21831(14)
H38 H 0.1634 0.4996 0.2497
H39 H 0.1678 0.6059 0.2224
O25 O -0.05487(16) 0.46655(18) 0.15442(14)
H40 H -0.1100 0.4821 0.1222
H41 H -0.0680 0.4021 0.1628
S1C S 1.04483(6) 0.69573(6) 0.44564(5)
S2C S 0.83116(6) 0.68676(6) 0.77828(5)
S3C S 0.39420(6) 0.73669(7) 0.53159(5)
S4C S 0.66624(6) 0.64492(6) 0.25028(5)
O1C O 0.84748(16) 1.03063(17) 0.47915(13)
H1C H 0.8318 1.0332 0.5218
O2C O 1.01442(16) 0.61339(17) 0.47826(14)
O3C O 1.13028(15) 0.71835(17) 0.48605(13)
O4C O 1.03330(15) 0.68656(17) 0.36330(13)
O5C O 0.78244(15) 1.02959(16) 0.58778(13)
O6C O 0.78385(17) 0.61369(18) 0.72693(14)
O7C O 0.79289(18) 0.70868(18) 0.83925(14)
O8C O 0.91762(17) 0.66302(19) 0.80661(16)
O9C O 0.64521(15) 1.00368(17) 0.48673(13)
H2C H 0.6935 1.0177 0.5462
O10C O 0.42743(17) 0.68891(18) 0.60483(15)
O11C O 0.32182(16) 0.79344(18) 0.52900(15)
O12C O 0.37687(17) 0.67064(18) 0.46700(15)
O13C O 0.68271(16) 1.04246(17) 0.35827(13)
H3C H 0.6679 1.0390 0.4090
O14C O 0.58109(15) 0.62571(17) 0.20756(14)
O15C O 0.72333(16) 0.63824(18) 0.20329(14)
O16C O 0.69245(16) 0.58646(17) 0.31939(14)
C1C C 0.8919(2) 0.9520(2) 0.4735(2)
C2C C 0.8886(2) 0.9191(3) 0.4001(2)
C3C C 0.9363(2) 0.8410(2) 0.3923(2)
H4C H 0.9360 0.8199 0.3438
C4C C 0.9845(2) 0.7943(3) 0.4571(2)
C5C C 0.9863(2) 0.8265(2) 0.5300(2)
H5C H 1.0182 0.7948 0.5729
C6C C 0.9406(2) 0.9061(3) 0.5391(2)
C7C C 0.9431(2) 0.9412(3) 0.6188(2)
H6C H 0.9411 1.0099 0.6181
H7C H 0.9952 0.9226 0.6541
C8C C 0.8731(2) 0.9040(2) 0.64933(19)
C9C C 0.7963(2) 0.9519(2) 0.63189(19)
C10C C 0.7325(2) 0.9171(2) 0.6614(2)
C11C C 0.7467(2) 0.8374(2) 0.7069(2)
H8C H 0.7053 0.8148 0.7267
C12C C 0.8220(2) 0.7900(3) 0.7238(2)
C13C C 0.8843(2) 0.8235(2) 0.69411(19)
H9C H 0.9341 0.7911 0.7046
C14C C 0.6486(2) 0.9629(3) 0.6423(2)
H10C H 0.6539 1.0295 0.6314
H11C H 0.6273 0.9587 0.6865
C15C C 0.5877(2) 0.9168(2) 0.5741(2)
C16C C 0.5896(2) 0.9405(3) 0.4997(2)
C17C C 0.5328(2) 0.9014(3) 0.4354(2)
C18C C 0.4744(2) 0.8378(3) 0.4460(2)
H12C H 0.4363 0.8116 0.4038
C19C C 0.4726(2) 0.8131(2) 0.5193(2)
C20C C 0.5292(2) 0.8519(2) 0.5830(2)
H13C H 0.5279 0.8343 0.6318
C21C C 0.5352(2) 0.9319(3) 0.3559(2)
H14C H 0.5360 1.0005 0.3539
H15C H 0.4853 0.9104 0.3189
C22C C 0.6096(2) 0.8932(3) 0.33339(19)
C23C C 0.6792(2) 0.9483(2) 0.33635(19)
C24C C 0.7462(2) 0.9102(2) 0.31542(19)
C25C C 0.7394(2) 0.8182(3) 0.28666(19)
H16C H 0.7823 0.7929 0.2701
C26C C 0.6703(2) 0.7636(3) 0.28217(19)
C27C C 0.6066(2) 0.8004(3) 0.30780(19)
H17C H 0.5616 0.7625 0.3078
C28C C 0.8288(2) 0.9610(2) 0.32947(19)
H18C H 0.8500 0.9532 0.2855
H19C H 0.8218 1.0282 0.3370
O21C O 0.42342(16) 0.51433(18) 0.11538(15)
H32C H 0.4040 0.4550 0.1060
H33C H 0.3798 0.5452 0.1219
O22C O 0.5978(2) 0.3824(2) 0.2352(2)
H34C H 0.6550 0.3926 0.2392
H35C H 0.5974 0.3237 0.2455
Na1C Na 1.23273(9) 0.68261(10) 0.40368(8)
Na2C Na 0.46865(10) 0.58002(10) 0.42429(8)
Na4C Na 0.94852(9) 0.47796(10) 0.40373(8)
Na6C Na 0.78886(9) 1.17470(10) 0.42582(8)
O20B O 0.44507(17) 0.57998(18) -0.05443(15)
H30B H 0.3902 0.5854 -0.0539
H31B H 0.4570 0.6212 -0.0821
O24C O -0.12306(16) 0.55786(18) 0.28169(14)
H38C H -0.1634 0.4996 0.2503
H39C H -0.1678 0.6059 0.2776
O25C O 0.05487(16) 0.46655(18) 0.34558(14)
H40C H 0.1100 0.4821 0.3778
H41C H 0.0680 0.4021 0.3372
O18C O 1.20419(16) 0.53077(18) 0.43766(14)
H26C H 1.2359 0.4738 0.4363
H27C H 1.1955 0.5259 0.4858
O19C O 1.15497(16) 0.80783(18) 0.33155(14)
H28C H 1.1706 0.8743 0.3603
H29C H 1.1139 0.7867 0.3461
O23C O 0.81008(16) 0.46699(17) 0.41519(13)
H36C H 0.7900 0.4014 0.3927
H37C H 0.7728 0.5019 0.3737
O11_2 O -0.32182(16) 0.79344(18) -0.02900(15)
O12_2 O -0.37687(17) 0.67064(18) 0.03300(15)
O15C_2 O -0.27667(16) 0.63824(18) 0.20329(14)
Na2B Na 0.46865(10) 0.41998(10) -0.07571(8)
Na4B Na -0.05148(9) 0.52204(10) -0.09627(8)
O2B O 0.01442(16) 0.38661(17) -0.02174(14)
O8A O 0.08238(17) 0.33698(19) 0.19339(16)
Na4C_2 Na -0.05148(9) 0.47796(10) 0.40373(8)
O4C_2 O 0.03330(15) 0.68656(17) 0.36330(13)
O3B O 0.13028(15) 1.28165(17) -0.01395(13)
O7A O 0.20711(18) 1.29132(18) 0.16075(14)
O11B O 0.32182(16) 1.20656(18) 0.02900(15)
Na6B Na -0.21114(9) 0.82530(10) -0.07418(8)
Na6A Na 0.21114(9) 0.82530(10) -0.42582(8)
Na4A Na 0.05148(9) 0.52204(10) -0.40373(8)
Na1_2 Na 0.76727(9) 0.68261(10) 0.09632(8)
Na6B_2 Na 0.78886(9) 0.82530(10) -0.07418(8)
Na1C_2 Na 0.23273(9) 0.68261(10) 0.40368(8)
Na4A_2 Na 1.05148(9) 0.52204(10) 0.59627(8)
Na6A_2 Na 1.21114(9) 0.82530(10) 0.57418(8)
Na5_2 Na 1.0000 0.58868(14) 0.2500
Na6B_3 Na 0.78886(9) 0.82530(10) 0.92582(8)
Na4B_2 Na 0.94852(9) 0.52204(10) 0.90373(8)
Na6A_3 Na 0.21114(9) 0.82530(10) 0.57418(8)
O11C_2 O 1.32182(16) 0.79344(18) 0.52900(15)
O12C_2 O 1.37687(17) 0.67064(18) 0.46700(15)
O15_2 O 1.27667(16) 0.63824(18) 0.29671(14)
Na2A Na 0.53135(10) 0.41998(10) 0.57571(8)
O20A O 0.55493(17) 0.57998(18) 0.55443(15)
O20C O 0.44507(17) 0.42002(18) 0.44557(15)
O2A O 0.98558(16) 0.38661(17) 0.52174(14)
O8B O 0.91762(17) 0.33698(19) 0.30661(16)
O24C_2 O 0.87694(16) 0.55786(18) 0.28169(14)
O25C_2 O 1.05487(16) 0.46655(18) 0.34558(14)
O3A O 0.86972(15) 1.28165(17) 0.51395(13)
O7B O 0.79289(18) 1.29132(18) 0.33925(14)
O11A O 0.67818(16) 1.20656(18) 0.47100(15)
H30A H 0.6098 0.5854 0.5539
H31A H 0.5430 0.6212 0.5821
H30C H 0.3902 0.4146 0.4461
H31C H 0.4570 0.3788 0.4179
H38C_2 H 0.8366 0.4996 0.2503
H39C_2 H 0.8322 0.6059 0.2776
H40C_2 H 1.1100 0.4821 0.3778
H41C_2 H 1.0680 0.4021 0.3372
O17 O 0.28898(17) 0.36293(18) 0.43040(15)
H20 H 0.2479 0.3537 0.3685
C29 C 0.2829(3) 0.2851(3) 0.4801(2)
H21 H 0.3306 0.2858 0.5246
H22 H 0.2836 0.2259 0.4532
C30 C 0.2068(3) 0.2893(3) 0.5058(2)
H23 H 0.2056 0.2362 0.5384
H24 H 0.1594 0.2874 0.4620
H25 H 0.2064 0.3471 0.5335
O26 O 0.5773(4) 0.8008(5) -0.2254(3)
H42 H 0.5759 0.7653 -0.1853
loop_
_geom_bond_atom_site_label_1
_geom_bond_atom_site_label_2
_geom_bond_site_symmetry_1
_geom_bond_site_symmetry_2
Na1 O3 1_555 1_555
Na2 O12 1_555 1_555
Na3 O14 1_555 1_555
Na4 O2 1_555 1_555
Na5 O4 1_555 1_555
Na6 O1 1_555 1_555
S1 O2 1_555 1_555
S2 O6 1_555 1_555
S3 O10 1_555 1_555
S4 O14 1_555 1_555
O1 H1 1_555 1_555
O2 Na4B 1_555 1_555
O3 S1 1_555 1_555
O4 S1 1_555 1_555
O5 C9 1_555 1_555
O7 S2 1_555 1_555
O8 S2 1_555 1_555
O9 H2 1_555 1_555
O11 S3 1_555 1_555
O12 S3 1_555 1_555
O13 Na6 1_555 1_555
H3 O13 1_555 1_555
O14 Na2C 1_555 1_555
O15 S4 1_555 1_555
O16 S4 1_555 1_555
C1 O1 1_555 1_555
C2 C1 1_555 1_555
C3 C2 1_555 1_555
H4 C3 1_555 1_555
C4 S1 1_555 1_555
C5 C4 1_555 1_555
H5 C5 1_555 1_555
C6 C1 1_555 1_555
C7 C6 1_555 1_555
H6 C7 1_555 1_555
H7 C7 1_555 1_555
C8 C7 1_555 1_555
C9 C8 1_555 1_555
C10 C9 1_555 1_555
C11 C10 1_555 1_555
H8 C11 1_555 1_555
C12 S2 1_555 1_555
C13 C8 1_555 1_555
H9 C13 1_555 1_555
C14 C10 1_555 1_555
H10 C14 1_555 1_555
H11 C14 1_555 1_555
C15 C14 1_555 1_555
C16 O9 1_555 1_555
C17 C16 1_555 1_555
C18 C17 1_555 1_555
H12 C18 1_555 1_555
C19 S3 1_555 1_555
C20 C15 1_555 1_555
H13 C20 1_555 1_555
C21 C17 1_555 1_555
H14 C21 1_555 1_555
H15 C21 1_555 1_555
C22 C21 1_555 1_555
C23 O13 1_555 1_555
C24 C23 1_555 1_555
C25 C24 1_555 1_555
H16 C25 1_555 1_555
C26 S4 1_555 1_555
C27 C22 1_555 1_555
H17 C27 1_555 1_555
C28 C2 1_555 1_555
H18 C28 1_555 1_555
H19 C28 1_555 1_555
O17 H20 1_555 1_555
C29 O17 1_555 1_555
H21 C29 1_555 1_555
H22 C29 1_555 1_555
C30 C29 1_555 1_555
H23 C30 1_555 1_555
H24 C30 1_555 1_555
H25 C30 1_555 1_555
O18 Na1 1_555 1_555
H26 O18 1_555 1_555
H27 O18 1_555 1_555
O19 Na1 1_555 1_555
H28 O19 1_555 1_555
H29 O19 1_555 1_555
O20 Na2 1_555 1_555
H30 O20 1_555 1_555
H31 O20 1_555 1_555
O21 Na3 1_555 1_555
H32 O21 1_555 1_555
H33 O21 1_555 1_555
O22 Na3 1_555 1_555
H34 O22 1_555 1_555
H35 O22 1_555 1_555
O23 Na4 1_555 1_555
H36 O23 1_555 1_555
H37 O23 1_555 1_555
O24 Na4 1_555 1_555
H38 O24 1_555 1_555
H39 O24 1_555 1_555
O25 Na4 1_555 1_555
H40 O25 1_555 1_555
H41 O25 1_555 1_555
O26 H42 1_555 1_555
S1C O2C 1_555 1_555
S2C O6C 1_555 1_555
S3C O10C 1_555 1_555
S4C O14C 1_555 1_555
O1C H1C 1_555 1_555
O2C Na4C 1_555 1_555
O3C S1C 1_555 1_555
O4C S1C 1_555 1_555
O5C C9C 1_555 1_555
O7C S2C 1_555 1_555
O8C S2C 1_555 1_555
O9C H2C 1_555 1_555
O11C S3C 1_555 1_555
O12C S3C 1_555 1_555
O13C H3C 1_555 1_555
O14C Na2 1_555 1_555
O15C S4C 1_555 1_555
O16C S4C 1_555 1_555
C1C O1C 1_555 1_555
C2C C1C 1_555 1_555
C3C C2C 1_555 1_555
H4C C3C 1_555 1_555
C4C S1C 1_555 1_555
C5C C4C 1_555 1_555
H5C C5C 1_555 1_555
C6C C1C 1_555 1_555
C7C C6C 1_555 1_555
H6C C7C 1_555 1_555
H7C C7C 1_555 1_555
C8C C7C 1_555 1_555
C9C C8C 1_555 1_555
C10C C9C 1_555 1_555
C11C C10C 1_555 1_555
H8C C11C 1_555 1_555
C12C S2C 1_555 1_555
C13C C8C 1_555 1_555
H9C C13C 1_555 1_555
C14C C10C 1_555 1_555
H10C C14C 1_555 1_555
H11C C14C 1_555 1_555
C15C C14C 1_555 1_555
C16C O9C 1_555 1_555
C17C C16C 1_555 1_555
C18C C17C 1_555 1_555
H12C C18C 1_555 1_555
C19C S3C 1_555 1_555
C20C C15C 1_555 1_555
H13C C20C 1_555 1_555
C21C C17C 1_555 1_555
H14C C21C 1_555 1_555
H15C C21C 1_555 1_555
C22C C21C 1_555 1_555
C23C O13C 1_555 1_555
C24C C23C 1_555 1_555
C25C C24C 1_555 1_555
H16C C25C 1_555 1_555
C26C S4C 1_555 1_555
C27C C22C 1_555 1_555
H17C C27C 1_555 1_555
C28C C2C 1_555 1_555
H18C C28C 1_555 1_555
H19C C28C 1_555 1_555
O21C Na2 1_555 1_555
H32C O21C 1_555 1_555
H33C O21C 1_555 1_555
O22C Na3 1_555 1_555
H34C O22C 1_555 1_555
H35C O22C 1_555 1_555
Na1C O3C 1_555 1_555
Na2C O21 1_555 1_555
Na4C O23C 1_555 1_555
Na6C O1C 1_555 1_555
O20B Na2 1_555 1_555
H30B O20B 1_555 1_555
H31B O20B 1_555 1_555
O24C Na5 1_555 1_555
H38C O24C 1_555 1_555
H39C O24C 1_555 1_555
O25C Na5 1_555 1_555
H40C O25C 1_555 1_555
H41C O25C 1_555 1_555
O18C Na1C 1_555 1_555
H26C O18C 1_555 1_555
H27C O18C 1_555 1_555
O19C Na1C 1_555 1_555
H28C O19C 1_555 1_555
H29C O19C 1_555 1_555
O23C H36C 1_555 1_555
H37C O23C 1_555 1_555
O11_2 Na1 1_555 1_555
O12_2 Na1 1_555 1_555
O15C_2 Na1 1_555 1_555
Na2B O20 1_555 1_555
Na4B O2B 1_555 1_555
O2B Na4 1_555 1_555
O8A Na4 1_555 1_555
Na4C_2 O24C 1_555 1_555
O4C_2 Na5 1_555 1_555
O3B Na6 1_555 1_555
O7A Na6 1_555 1_555
O11B Na6 1_555 1_555
Na6B O3 1_555 1_555
Na6A O7 1_555 1_555
Na4A O8 1_555 1_555
Na1_2 O11 1_555 1_555
Na6B_2 O11 1_555 1_555
Na1C_2 O15 1_555 1_555
Na4A_2 O2C 1_555 1_555
Na6A_2 O3C 1_555 1_555
Na5_2 O4C 1_555 1_555
Na6B_3 O7C 1_555 1_555
Na4B_2 O8C 1_555 1_555
Na6A_3 O11C 1_555 1_555
O11C_2 Na1C 1_555 1_555
O12C_2 Na1C 1_555 1_555
O15_2 Na1C 1_555 1_555
Na2A O20A 1_555 1_555
O20A Na2C 1_555 1_555
O20C Na2C 1_555 1_555
O2A Na4C 1_555 1_555
O8B Na4C 1_555 1_555
O24C_2 Na4C 1_555 1_555
O25C_2 Na4C 1_555 1_555
O3A Na6C 1_555 1_555
O7B Na6C 1_555 1_555
O11A Na6C 1_555 1_555
H30A O20A 1_555 1_555
H31A O20A 1_555 1_555
H30C O20C 1_555 1_555
H31C O20C 1_555 1_555
H38C_2 O24C_2 1_555 1_555
H39C_2 O24C_2 1_555 1_555
H40C_2 O25C_2 1_555 1_555
H41C_2 O25C_2 1_555 1_555
Na3 O14C 1_555 1_555
Na3 O21C 1_555 1_555
Na5 O24 1_555 1_555
Na5 O25 1_555 1_555
O12 Na1_2 1_555 1_555
C3 C4 1_555 1_555
C5 C6 1_555 1_555
C11 C12 1_555 1_555
C12 C13 1_555 1_555
C15 C16 1_555 1_555
C18 C19 1_555 1_555
C19 C20 1_555 1_555
C22 C23 1_555 1_555
C24 C28 1_555 1_555
C25 C26 1_555 1_555
C26 C27 1_555 1_555
O11C Na1C_2 1_555 1_555
O12C Na2C 1_555 1_555
O12C Na1C_2 1_555 1_555
O13C Na6C 1_555 1_555
O15C Na1_2 1_555 1_555
C3C C4C 1_555 1_555
C5C C6C 1_555 1_555
C11C C12C 1_555 1_555
C12C C13C 1_555 1_555
C15C C16C 1_555 1_555
C18C C19C 1_555 1_555
C19C C20C 1_555 1_555
C22C C23C 1_555 1_555
C24C C28C 1_555 1_555
C25C C26C 1_555 1_555
C26C C27C 1_555 1_555
O20B Na2B 1_555 1_555
O25C Na4C_2 1_555 1_555
O11_2 Na6B 1_555 1_555
Na4A_2 O2A 1_555 1_555
Na6A_2 O11C_2 1_555 1_555
Na5_2 O24C_2 1_555 1_555
Na5_2 O25C_2 1_555 1_555
Na2A O20C 1_555 1_555

#END
