
#######################################################################
#
#                 Cambridge Crystallographic Data Centre
#                                CCDC 
#
#######################################################################
#
# If this CIF has been generated from an entry in the Cambridge 
# Structural Database, then it will include bibliographic, chemical, 
# crystal, experimental, refinement or atomic coordinate data resulting 
# from the CCDC's data processing and validation procedures.
#
#######################################################################

data_QAFBUV
_symmetry_cell_setting           monoclinic
_symmetry_space_group_name_H-M   'P 21/c'
_symmetry_Int_Tables_number      14
_space_group_name_Hall           '-P 2ybc'
loop_
_symmetry_equiv_pos_site_id
_symmetry_equiv_pos_as_xyz
1 x,y,z
2 x,1/2-y,1/2+z
3 -x,-y,-z
4 -x,1/2+y,1/2-z
_cell_length_a                   11.4154(10)
_cell_length_b                   10.0380(5)
_cell_length_c                   14.8841(9)
_cell_angle_alpha                90
_cell_angle_beta                 93.411(4)
_cell_angle_gamma                90
_cell_volume                     1702.51
loop_
_atom_site_label
_atom_site_type_symbol
_atom_site_fract_x
_atom_site_fract_y
_atom_site_fract_z
O11 O 0.1557(11) 0.0757(13) -0.2104(8)
Cu1 Cu -0.22000(3) 0.44061(4) -0.03416(3)
V1 V 0.05088(9) 0.00062(11) -0.01648(7)
V2 V 0.10018(5) 0.07925(5) 0.17725(3)
V3 V -0.06718(5) 0.22507(5) -0.17742(3)
As1 As 0.03409(2) 0.32321(3) 0.021638(18)
O1 O -0.09371(18) 0.3873(2) 0.05015(14)
O2 O 0.0435(2) 0.3124(2) -0.08974(14)
O3 O -0.14686(19) 0.6001(2) -0.07404(15)
O4 O 0.0401(2) 0.1611(2) 0.06070(14)
O5 O -0.0698(2) 0.0716(2) -0.10074(14)
O6 O -0.1055(2) 0.0729(2) -0.26045(15)
O7 O 0.1722(4) 0.0025(6) -0.0637(4)
O8 O 0.2330(3) 0.1283(3) 0.1815(2)
O9 O 0.0191(4) 0.3175(3) -0.26201(17)
O10 O -0.1875(3) 0.3040(3) -0.16788(18)
N1 N -0.3667(2) 0.4899(3) -0.10711(18)
N2 N -0.3266(2) 0.3025(3) 0.0151(2)
C1 C -0.3817(3) 0.5856(4) -0.1678(2)
H1 H -0.3188 0.6404 -0.1798
C2 C -0.4906(3) 0.6059(4) -0.2145(3)
H2 H -0.4991 0.6727 -0.2577
C3 C -0.5847(3) 0.5272(4) -0.1965(3)
H3 H -0.6575 0.5419 -0.2261
C4 C -0.5701(3) 0.4246(4) -0.1331(2)
C5 C -0.4585(3) 0.4092(3) -0.0904(2)
C6 C -0.4367(3) 0.3091(4) -0.0236(2)
C7 C -0.5285(3) 0.2249(4) 0.0005(3)
C8 C -0.5005(4) 0.1299(4) 0.0688(3)
H4 H -0.5578 0.0721 0.0876
C9 C -0.3893(4) 0.1237(5) 0.1066(3)
H5 H -0.3697 0.0607 0.1508
C10 C -0.3038(4) 0.2135(4) 0.0785(3)
H6 H -0.2285 0.2095 0.1058
C11 C -0.6616(3) 0.3370(4) -0.1067(3)
H7 H -0.7367 0.3461 -0.1339
C12 C -0.6415(3) 0.2430(5) -0.0443(3)
H8 H -0.7028 0.1878 -0.0295
V1B V -0.05088(9) -0.00062(11) 0.01648(7)
O4B O -0.0401(2) -0.1611(2) -0.06070(14)
O5B O 0.0698(2) -0.0716(2) 0.10074(14)
O6B O 0.1055(2) -0.0729(2) 0.26045(15)
O9A O 0.0191(4) 0.1825(3) 0.23799(17)
O3B O 0.14686(19) 0.3999(2) 0.07404(15)
As1B As -0.03409(2) 0.67679(3) -0.021638(18)
V2B V -0.10018(5) -0.07925(5) -0.17725(3)
V2A V 0.10018(5) 0.42075(5) -0.32275(3)
loop_
_geom_bond_atom_site_label_1
_geom_bond_atom_site_label_2
_geom_bond_site_symmetry_1
_geom_bond_site_symmetry_2
Cu1 O1 1_555 1_555
V1 O4 1_555 1_555
V2 O4 1_555 1_555
V3 O2 1_555 1_555
As1 O1 1_555 1_555
O2 As1 1_555 1_555
O3 Cu1 1_555 1_555
O4 As1 1_555 1_555
O5 V1 1_555 1_555
O6 V3 1_555 1_555
O7 V1 1_555 1_555
O8 V2 1_555 1_555
O9 V3 1_555 1_555
O10 V3 1_555 1_555
N1 Cu1 1_555 1_555
N2 Cu1 1_555 1_555
C1 N1 1_555 1_555
H1 C1 1_555 1_555
C2 C1 1_555 1_555
H2 C2 1_555 1_555
C3 C2 1_555 1_555
H3 C3 1_555 1_555
C4 C3 1_555 1_555
C5 N1 1_555 1_555
C6 N2 1_555 1_555
C7 C6 1_555 1_555
C8 C7 1_555 1_555
H4 C8 1_555 1_555
C9 C8 1_555 1_555
H5 C9 1_555 1_555
C10 N2 1_555 1_555
H6 C10 1_555 1_555
C11 C4 1_555 1_555
H7 C11 1_555 1_555
C12 C7 1_555 1_555
H8 C12 1_555 1_555
V1B V1 1_555 1_555
O4B V1 1_555 1_555
O5B V1 1_555 1_555
O6B V2 1_555 1_555
O9A V2 1_555 1_555
O3B As1 1_555 1_555
As1B O3 1_555 1_555
V2B O5 1_555 1_555
V2A O9 1_555 1_555
V2 O5B 1_555 1_555
V3 O5 1_555 1_555
O4 V1B 1_555 1_555
O5 V1B 1_555 1_555
O6 V2B 1_555 1_555
C4 C5 1_555 1_555
C5 C6 1_555 1_555
C9 C10 1_555 1_555
C11 C12 1_555 1_555
V1B O4B 1_555 1_555
V1B O5B 1_555 1_555
O4B V2B 1_555 1_555

#END
