
#######################################################################
#
#                 Cambridge Crystallographic Data Centre
#                                CCDC 
#
#######################################################################
#
# If this CIF has been generated from an entry in the Cambridge 
# Structural Database, then it will include bibliographic, chemical, 
# crystal, experimental, refinement or atomic coordinate data resulting 
# from the CCDC's data processing and validation procedures.
#
#######################################################################

data_QAFDOR
_symmetry_cell_setting           monoclinic
_symmetry_space_group_name_H-M   'C 2/c'
_symmetry_Int_Tables_number      15
_space_group_name_Hall           '-C 2yn'
loop_
_symmetry_equiv_pos_site_id
_symmetry_equiv_pos_as_xyz
1 x,y,z
2 1/2+x,1/2+y,z
3 -x,y,1/2-z
4 1/2-x,1/2+y,1/2-z
5 -x,-y,-z
6 1/2-x,1/2-y,-z
7 x,-y,1/2+z
8 1/2+x,1/2-y,1/2+z
_cell_length_a                   13.369(2)
_cell_length_b                   9.796(3)
_cell_length_c                   14.599(2)
_cell_angle_alpha                90
_cell_angle_beta                 95.350(10)
_cell_angle_gamma                90
_cell_volume                     1903.6
loop_
_atom_site_label
_atom_site_type_symbol
_atom_site_fract_x
_atom_site_fract_y
_atom_site_fract_z
Zn1 Zn 0.0000 0.74477(4) 0.2500
N1 N 0.09616(17) 0.9029(2) 0.28570(15)
C1 C 0.1911(3) 0.8987(5) 0.3219(2)
C2 C 0.2457(4) 1.0169(7) 0.3411(3)
C3 C 0.2022(5) 1.1397(6) 0.3247(3)
C4 C 0.1014(4) 1.1489(4) 0.2874(2)
C5 C 0.0476(5) 1.2726(4) 0.2665(5)
C6 C 0.0517(2) 1.0250(3) 0.26894(18)
O1 O 0.03356(13) 0.65082(19) 0.13826(12)
O2 O -0.12331(15) 0.5893(2) 0.14626(13)
C7 C -0.04397(19) 0.5855(3) 0.10819(17)
C8 C -0.0379(2) 0.4985(3) 0.02506(19)
H1 H 0.219(3) 0.822(4) 0.332(3)
H2 H 0.310(4) 1.003(5) 0.378(4)
H3 H 0.245(4) 1.211(6) 0.332(4)
H4 H 0.086(4) 1.341(5) 0.281(3)
H5 H -0.094(2) 0.441(3) 0.011(2)
C5B C -0.0476(5) 1.2726(4) 0.2335(5)
C4B C -0.1014(4) 1.1489(4) 0.2126(2)
C3B C -0.2022(5) 1.1397(6) 0.1753(3)
C2B C -0.2457(4) 1.0169(7) 0.1589(3)
C1B C -0.1911(3) 0.8987(5) 0.1781(2)
N1B N -0.09616(17) 0.9029(2) 0.21430(15)
C8D C 0.0379(2) 0.5015(3) -0.02506(19)
C7D C 0.04397(19) 0.4145(3) -0.10819(17)
O1D O -0.03356(13) 0.34918(19) -0.13826(12)
Zn1D Zn 0.0000 0.25523(4) -0.2500
O2D O 0.12331(15) 0.4107(2) -0.14626(13)
H5D H 0.094(2) 0.559(3) -0.011(2)
O1B O -0.03356(13) 0.65082(19) 0.36174(12)
C6B C -0.0517(2) 1.0250(3) 0.23106(18)
H1B H -0.219(3) 0.822(4) 0.168(3)
H2B H -0.310(4) 1.003(5) 0.122(4)
H3B H -0.245(4) 1.211(6) 0.168(4)
H4B H -0.086(4) 1.341(5) 0.219(3)
O3 O 0.6364(2) 0.6722(3) 0.0541(2)
O4 O 0.7053(2) 0.4708(3) 0.08300(19)
C9 C 0.6323(2) 0.5480(4) 0.0530(2)
C10 C 0.5408(3) 0.4710(4) 0.0178(2)
H6 H 0.761(6) 0.531(8) 0.105(6)
H7 H 0.533(3) 0.373(5) 0.020(3)
C10D C 0.4592(3) 0.5290(4) -0.0178(2)
C9D C 0.3677(2) 0.4520(4) -0.0530(2)
O3D O 0.3636(2) 0.3278(3) -0.0541(2)
O4D O 0.2947(2) 0.5292(3) -0.08300(19)
H6D H 0.239(6) 0.469(8) -0.105(6)
H7D H 0.467(3) 0.627(5) -0.020(3)
loop_
_geom_bond_atom_site_label_1
_geom_bond_atom_site_label_2
_geom_bond_site_symmetry_1
_geom_bond_site_symmetry_2
Zn1 N1 1_555 1_555
N1 C1 1_555 1_555
C1 C2 1_555 1_555
C2 C3 1_555 1_555
C3 C4 1_555 1_555
C4 C5 1_555 1_555
C5 H4 1_555 1_555
C6 N1 1_555 1_555
O1 Zn1 1_555 1_555
O2 C7 1_555 1_555
C7 O1 1_555 1_555
C8 C7 1_555 1_555
H1 C1 1_555 1_555
H2 C2 1_555 1_555
H3 C3 1_555 1_555
H5 C8 1_555 1_555
O3 C9 1_555 1_555
O4 C9 1_555 1_555
C9 C10 1_555 1_555
C10 H7 1_555 1_555
H6 O4 1_555 1_555
C5B C5 1_555 1_555
C4B C5B 1_555 1_555
C3B C4B 1_555 1_555
C2B C3B 1_555 1_555
C1B C2B 1_555 1_555
N1B Zn1 1_555 1_555
C8D C8 1_555 1_555
C7D C8D 1_555 1_555
O1D C7D 1_555 1_555
Zn1D O1D 1_555 1_555
O2D C7D 1_555 1_555
H5D C8D 1_555 1_555
O1B Zn1 1_555 1_555
C6B C6 1_555 1_555
H1B C1B 1_555 1_555
H2B C2B 1_555 1_555
H3B C3B 1_555 1_555
H4B C5B 1_555 1_555
C10D C10 1_555 1_555
C9D C10D 1_555 1_555
O3D C9D 1_555 1_555
O4D C9D 1_555 1_555
H6D O4D 1_555 1_555
H7D C10D 1_555 1_555
C4 C6 1_555 1_555
C4B C6B 1_555 1_555
C1B N1B 1_555 1_555
N1B C6B 1_555 1_555

#END
