
#######################################################################
#
#                 Cambridge Crystallographic Data Centre
#                                CCDC 
#
#######################################################################
#
# If this CIF has been generated from an entry in the Cambridge 
# Structural Database, then it will include bibliographic, chemical, 
# crystal, experimental, refinement or atomic coordinate data resulting 
# from the CCDC's data processing and validation procedures.
#
#######################################################################

data_QAFFEJ
_symmetry_cell_setting           triclinic
_symmetry_space_group_name_H-M   'P -1'
_symmetry_Int_Tables_number      2
_space_group_name_Hall           '-P 1'
loop_
_symmetry_equiv_pos_site_id
_symmetry_equiv_pos_as_xyz
1 x,y,z
2 -x,-y,-z
_cell_length_a                   10.1134(10)
_cell_length_b                   10.3423(10)
_cell_length_c                   9.4127(8)
_cell_angle_alpha                95.363(6)
_cell_angle_beta                 111.080(4)
_cell_angle_gamma                110.462(3)
_cell_volume                     833.185
loop_
_atom_site_label
_atom_site_type_symbol
_atom_site_fract_x
_atom_site_fract_y
_atom_site_fract_z
O9 O 0.5986(14) 0.1940(18) 0.6122(18)
O10 O 0.5174(12) 0.3896(15) 0.3738(19)
Dy1 Dy 0.05811(2) 0.01651(2) 0.27067(2)
O1 O -0.1100(4) -0.2255(3) 0.0874(4)
O2 O -0.1978(4) -0.1480(3) 0.2441(4)
O3 O -0.0038(4) 0.1463(3) 0.4207(4)
O4 O -0.1054(4) 0.1509(3) 0.5926(4)
O5 O -0.1079(4) 0.0527(4) 0.0496(4)
O6 O -0.2445(4) 0.0233(4) -0.2027(4)
O7 O 0.1923(4) 0.2399(4) 0.2253(4)
O8 O 0.2917(4) 0.1514(4) 0.5110(4)
N1 N -0.2376(14) -0.5229(13) -0.0226(18)
N2 N -0.100(2) 0.3909(12) 0.7260(19)
N3 N -0.5537(12) -0.101(2) -0.3082(13)
C1 C -0.2164(5) -0.2432(5) 0.1361(5)
C2 C -0.3624(5) -0.3774(5) 0.0651(6)
C3 C -0.4974(6) -0.3732(5) 0.0722(6)
H1 H -0.4945 -0.2888 0.1200
C4 C -0.3642(6) -0.5036(5) -0.0072(6)
C5 C -0.0452(5) 0.2085(5) 0.5061(5)
C6 C -0.0239(6) 0.3587(5) 0.5044(6)
C7 C 0.0273(8) 0.4192(6) 0.3990(7)
H2 H 0.0472 0.3652 0.3311
C8 C -0.0505(8) 0.4394(6) 0.6090(8)
C9 C -0.2323(5) 0.0319(5) -0.0634(6)
C10 C -0.3719(6) 0.0165(6) -0.0339(6)
C11 C -0.3513(6) 0.0678(8) 0.1167(6)
H3 H -0.2509 0.1144 0.1958
C12 C -0.5221(6) -0.0513(8) -0.1532(7)
H4 H 0.150(10) 0.234(10) 0.122(3)
H5 H 0.289(5) 0.304(8) 0.288(9)
H6 H 0.252(10) 0.153(10) 0.583(8)
H7 H 0.385(5) 0.148(10) 0.536(10)
C4A C -0.6358(6) -0.4964(5) 0.0072(6)
N1A N -0.7624(14) -0.4771(13) 0.0226(18)
C2A C -0.6376(5) -0.6226(5) -0.0651(6)
C1A C -0.7836(5) -0.7568(5) -0.1361(5)
O1A O -0.8900(4) -0.7745(3) -0.0874(4)
O2A O -0.8022(4) -0.8520(3) -0.2441(4)
C3A C -0.5026(6) -0.6268(5) -0.0722(6)
H1A H -0.5055 -0.7112 -0.1200
C8A C 0.0505(8) 0.5606(6) 0.3910(8)
N2A N 0.100(2) 0.6091(12) 0.2740(19)
C6A C 0.0239(6) 0.6413(5) 0.4956(6)
C5A C 0.0452(5) 0.7915(5) 0.4939(5)
O3A O 0.0038(4) 0.8537(3) 0.5793(4)
O4A O 0.1054(4) 0.8491(3) 0.4074(4)
C7A C -0.0273(8) 0.5808(6) 0.6010(7)
H2A H -0.0472 0.6348 0.6689
C12A C -0.4779(6) 0.0513(8) 0.1532(7)
N3A N -0.4463(12) 0.101(2) 0.3082(13)
C10A C -0.6281(6) -0.0165(6) 0.0339(6)
C9A C -0.7677(5) -0.0319(5) 0.0634(6)
O5A O -0.8921(4) -0.0527(4) -0.0496(4)
O6A O -0.7555(4) -0.0233(4) 0.2027(4)
C11A C -0.6487(6) -0.0678(8) -0.1167(6)
H3A H -0.7491 -0.1144 -0.1958
Dy1A Dy -1.05811(2) -1.01651(2) -0.27067(2)
O7A O -1.1923(4) -1.2399(4) -0.2253(4)
H4A H -1.150(10) -1.234(10) -0.122(3)
H5A H -1.289(5) -1.304(8) -0.288(9)
O8A O -1.2917(4) -1.1514(4) -0.5110(4)
H6A H -1.252(10) -1.153(10) -0.583(8)
H7A H -1.385(5) -1.148(10) -0.536(10)
O4A_2 O 0.1054(4) -0.1509(3) 0.4074(4)
O6A_2 O 0.2445(4) -0.0233(4) 0.2027(4)
Dy1A_2 Dy -0.05811(2) -0.01651(2) 0.72933(2)
Dy1A_3 Dy -0.05811(2) -0.01651(2) -0.27067(2)
Dy1A_4 Dy -0.05811(2) 0.98349(2) 0.72933(2)
Dy1_2 Dy 0.05811(2) 1.01651(2) 0.27067(2)
Dy1A_5 Dy -1.05811(2) -0.01651(2) -0.27067(2)
Dy1_3 Dy -0.94189(2) 0.01651(2) 0.27067(2)
O3A_2 O -0.9962(4) -1.1463(3) -0.4207(4)
O4_2 O -1.1054(4) -0.8491(3) -0.4074(4)
O5A_2 O -0.8921(4) -1.0527(4) -0.0496(4)
O6_2 O -1.2445(4) -0.9767(4) -0.2027(4)
loop_
_geom_bond_atom_site_label_1
_geom_bond_atom_site_label_2
_geom_bond_site_symmetry_1
_geom_bond_site_symmetry_2
Dy1 O1 1_555 1_555
O1 C1 1_555 1_555
O2 Dy1 1_555 1_555
O3 Dy1 1_555 1_555
O4 C5 1_555 1_555
O5 Dy1 1_555 1_555
O6 C9 1_555 1_555
O7 Dy1 1_555 1_555
O8 Dy1 1_555 1_555
N1 C4 1_555 1_555
N2 C8 1_555 1_555
N3 C12 1_555 1_555
C1 O2 1_555 1_555
C2 C1 1_555 1_555
C3 C2 1_555 1_555
H1 C3 1_555 1_555
C4 C2 1_555 1_555
C5 O3 1_555 1_555
C6 C5 1_555 1_555
C7 C6 1_555 1_555
H2 C7 1_555 1_555
C8 C6 1_555 1_555
C9 O5 1_555 1_555
C10 C9 1_555 1_555
C11 C10 1_555 1_555
H3 C11 1_555 1_555
C12 C10 1_555 1_555
H4 O7 1_555 1_555
H5 O7 1_555 1_555
H6 O8 1_555 1_555
H7 O8 1_555 1_555
C4A C3 1_555 1_555
N1A C4A 1_555 1_555
C2A C4A 1_555 1_555
C1A C2A 1_555 1_555
O1A C1A 1_555 1_555
O2A C1A 1_555 1_555
C3A C4 1_555 1_555
H1A C3A 1_555 1_555
C8A C7 1_555 1_555
N2A C8A 1_555 1_555
C6A C8A 1_555 1_555
C5A C6A 1_555 1_555
O3A C5A 1_555 1_555
O4A C5A 1_555 1_555
C7A C8 1_555 1_555
H2A C7A 1_555 1_555
C12A C11 1_555 1_555
N3A C12A 1_555 1_555
C10A C12A 1_555 1_555
C9A C10A 1_555 1_555
O5A C9A 1_555 1_555
O6A C9A 1_555 1_555
C11A C12 1_555 1_555
H3A C11A 1_555 1_555
Dy1A O1A 1_555 1_555
O7A Dy1A 1_555 1_555
H4A O7A 1_555 1_555
H5A O7A 1_555 1_555
O8A Dy1A 1_555 1_555
H6A O8A 1_555 1_555
H7A O8A 1_555 1_555
O4A_2 Dy1 1_555 1_555
O6A_2 Dy1 1_555 1_555
Dy1A_2 O4 1_555 1_555
Dy1A_3 O6 1_555 1_555
Dy1A_4 O3A 1_555 1_555
Dy1_2 O4A 1_555 1_555
Dy1A_5 O5A 1_555 1_555
Dy1_3 O6A 1_555 1_555
O3A_2 Dy1A 1_555 1_555
O4_2 Dy1A 1_555 1_555
O5A_2 Dy1A 1_555 1_555
O6_2 Dy1A 1_555 1_555
C2A C3A 1_555 1_555
O2A Dy1A 1_555 1_555
C6A C7A 1_555 1_555
C10A C11A 1_555 1_555

#END
