
#######################################################################
#
#                 Cambridge Crystallographic Data Centre
#                                CCDC 
#
#######################################################################
#
# If this CIF has been generated from an entry in the Cambridge 
# Structural Database, then it will include bibliographic, chemical, 
# crystal, experimental, refinement or atomic coordinate data resulting 
# from the CCDC's data processing and validation procedures.
#
#######################################################################

data_QAFFAF
_symmetry_cell_setting           monoclinic
_symmetry_space_group_name_H-M   'C 2/c'
_symmetry_Int_Tables_number      15
_space_group_name_Hall           '-C 2yn'
loop_
_symmetry_equiv_pos_site_id
_symmetry_equiv_pos_as_xyz
1 x,y,z
2 1/2+x,1/2+y,z
3 x,-y,1/2+z
4 1/2+x,1/2-y,1/2+z
5 -x,-y,-z
6 1/2-x,1/2-y,-z
7 -x,y,1/2-z
8 1/2-x,1/2+y,1/2-z
_cell_length_a                   12.032(2)
_cell_length_b                   12.779(2)
_cell_length_c                   11.017(3)
_cell_angle_alpha                90
_cell_angle_beta                 114.18(2)
_cell_angle_gamma                90
_cell_volume                     1545.32
loop_
_atom_site_label
_atom_site_type_symbol
_atom_site_fract_x
_atom_site_fract_y
_atom_site_fract_z
Mn1 Mn 0.5000 0.55544(5) 0.7500
N1 N 0.5604(2) 0.70010(19) 0.8841(2)
C1 C 0.6179(3) 0.7007(3) 1.0154(3)
C2 C 0.6517(3) 0.7913(3) 1.0913(3)
C3 C 0.6253(3) 0.8852(3) 1.0283(3)
C4 C 0.5635(3) 0.8891(2) 0.8896(3)
C5 C 0.5310(3) 0.9845(3) 0.8163(3)
C6 C 0.5323(3) 0.7937(2) 0.8215(3)
O1 O 0.3914(2) 0.44383(15) 0.59407(19)
O2 O 0.2606(2) 0.38286(18) 0.6723(2)
C7 C 0.3172(3) 0.3759(2) 0.5998(3)
C8 C 0.2937(3) 0.2843(2) 0.5096(3)
O3 O 0.3564(2) 0.54831(19) 0.8221(2)
H1 H 0.634(3) 0.636(3) 1.055(3)
H2 H 0.695(3) 0.782(3) 1.181(3)
H3 H 0.644(3) 0.946(2) 1.078(3)
H4 H 0.552(3) 1.043(3) 0.863(3)
H5 H 0.348(3) 0.275(3) 0.460(3)
H6 H 0.371(4) 0.546(3) 0.900(4)
H7 H 0.324(3) 0.499(3) 0.788(3)
C5F C 0.4690(3) 0.9845(3) 0.6837(3)
C4F C 0.4365(3) 0.8891(2) 0.6104(3)
C3F C 0.3747(3) 0.8852(3) 0.4717(3)
C2F C 0.3483(3) 0.7913(3) 0.4087(3)
C1F C 0.3821(3) 0.7007(3) 0.4846(3)
N1F N 0.4396(2) 0.70010(19) 0.6159(2)
C8E C 0.2063(3) 0.2157(2) 0.4904(3)
C7E C 0.1828(3) 0.1241(2) 0.4002(3)
O1E O 0.1086(2) 0.05617(15) 0.40593(19)
Mn1E Mn 0.0000 -0.05544(5) 0.2500
O2E O 0.2394(2) 0.11714(18) 0.3277(2)
H5E H 0.152(3) 0.225(3) 0.540(3)
O1F O 0.6086(2) 0.44383(15) 0.90593(19)
O3F O 0.6436(2) 0.54831(19) 0.6779(2)
C6F C 0.4677(3) 0.7937(2) 0.6785(3)
H1F H 0.366(3) 0.636(3) 0.445(3)
H2F H 0.305(3) 0.782(3) 0.319(3)
H3F H 0.356(3) 0.946(2) 0.422(3)
H4F H 0.448(3) 1.043(3) 0.637(3)
H6F H 0.629(4) 0.546(3) 0.600(4)
H7F H 0.676(3) 0.499(3) 0.712(3)
loop_
_geom_bond_atom_site_label_1
_geom_bond_atom_site_label_2
_geom_bond_site_symmetry_1
_geom_bond_site_symmetry_2
Mn1 N1 1_555 1_555
N1 C1 1_555 1_555
C1 C2 1_555 1_555
C2 C3 1_555 1_555
C3 C4 1_555 1_555
C4 C5 1_555 1_555
C5 H4 1_555 1_555
C6 N1 1_555 1_555
O1 Mn1 1_555 1_555
O2 C7 1_555 1_555
C7 O1 1_555 1_555
C8 C7 1_555 1_555
O3 Mn1 1_555 1_555
H1 C1 1_555 1_555
H2 C2 1_555 1_555
H3 C3 1_555 1_555
H5 C8 1_555 1_555
H6 O3 1_555 1_555
H7 O3 1_555 1_555
C5F C5 1_555 1_555
C4F C5F 1_555 1_555
C3F C4F 1_555 1_555
C2F C3F 1_555 1_555
C1F C2F 1_555 1_555
N1F Mn1 1_555 1_555
C8E C8 1_555 1_555
C7E C8E 1_555 1_555
O1E C7E 1_555 1_555
Mn1E O1E 1_555 1_555
O2E C7E 1_555 1_555
H5E C8E 1_555 1_555
O1F Mn1 1_555 1_555
O3F Mn1 1_555 1_555
C6F C6 1_555 1_555
H1F C1F 1_555 1_555
H2F C2F 1_555 1_555
H3F C3F 1_555 1_555
H4F C5F 1_555 1_555
H6F O3F 1_555 1_555
H7F O3F 1_555 1_555
C4 C6 1_555 1_555
C4F C6F 1_555 1_555
C1F N1F 1_555 1_555
N1F C6F 1_555 1_555

#END
