
#######################################################################
#
#                 Cambridge Crystallographic Data Centre
#                                CCDC 
#
#######################################################################
#
# If this CIF has been generated from an entry in the Cambridge 
# Structural Database, then it will include bibliographic, chemical, 
# crystal, experimental, refinement or atomic coordinate data resulting 
# from the CCDC's data processing and validation procedures.
#
#######################################################################

data_QAFGAG
_symmetry_cell_setting           tetragonal
_symmetry_space_group_name_H-M   'I 41/a'
_symmetry_Int_Tables_number      88
_space_group_name_Hall           '-I 4ad'
loop_
_symmetry_equiv_pos_site_id
_symmetry_equiv_pos_as_xyz
1 x,y,z
2 3/4-y,1/4+x,1/4+z
3 1/2+x,1/2+y,1/2+z
4 1/4-y,3/4+x,3/4+z
5 1/4+y,1/4-x,1/4+z
6 1/2+x,y,1/2-z
7 1/4-y,1/4+x,1/4-z
8 x,1/2+y,-z
9 -x,-y,-z
10 1/4+y,3/4-x,3/4-z
11 1/2-x,1/2-y,1/2-z
12 3/4+y,1/4-x,1/4-z
13 3/4-y,3/4+x,3/4-z
14 1/2-x,-y,1/2+z
15 3/4+y,3/4-x,3/4+z
16 -x,1/2-y,z
_cell_length_a                   26.594(4)
_cell_length_b                   26.594(4)
_cell_length_c                   45.960(9)
_cell_angle_alpha                90
_cell_angle_beta                 90
_cell_angle_gamma                90
_cell_volume                     32504.8
loop_
_atom_site_label
_atom_site_type_symbol
_atom_site_fract_x
_atom_site_fract_y
_atom_site_fract_z
La1 La -0.11516(3) 0.02243(3) -0.139660(15)
La2 La -0.21231(3) 0.14537(3) -0.154790(15)
F1 F 0.0650(4) 0.0651(4) -0.1687(2)
F2 F 0.0272(4) 0.1209(4) -0.1936(2)
F3 F 0.0619(4) 0.0597(3) -0.2148(2)
F4 F -0.0509(3) 0.0509(4) -0.03622(18)
F5 F -0.0094(3) 0.1072(3) -0.05935(17)
F6 F 0.0284(4) 0.0431(4) -0.0436(2)
F7 F -0.2869(4) -0.0551(3) -0.1625(2)
F8 F -0.2385(3) -0.1124(4) -0.1764(2)
F9 F -0.2794(4) -0.1233(4) -0.1406(2)
F10 F -0.3681(5) 0.0199(7) -0.1923(3)
F11 F -0.4062(5) 0.0760(3) -0.1758(3)
F12 F -0.3646(3) 0.0295(3) -0.1485(2)
F13 F -0.2164(6) 0.1940(7) -0.0551(3)
F14 F -0.2959(4) 0.1752(5) -0.0513(3)
F15 F -0.2778(4) 0.2494(6) -0.0527(2)
F16 F -0.0672(5) 0.2078(5) -0.2229(2)
F17 F -0.0882(4) 0.2780(6) -0.2220(5)
F18 F -0.1399(8) 0.2295(7) -0.2429(3)
O1 O -0.0418(3) 0.0596(3) -0.16808(18)
O2 O -0.1016(3) -0.0218(3) -0.18696(17)
O3 O -0.0631(3) 0.0505(3) -0.09824(17)
O4 O -0.0428(3) -0.0350(3) -0.13273(17)
O5 O -0.1819(3) -0.0406(3) -0.14985(18)
O6 O -0.1406(3) -0.0252(3) -0.09543(16)
O7 O -0.2910(3) 0.0929(3) -0.16067(17)
O8 O -0.2403(3) 0.1443(3) -0.20655(17)
O9 O -0.2470(3) 0.1604(3) -0.10527(16)
O10 O -0.2858(3) 0.2030(4) -0.1596(2)
O11 O -0.1503(3) 0.1869(3) -0.18837(18)
O12 O -0.1772(3) 0.2250(3) -0.1329(2)
O13 O -0.1891(3) -0.0477(3) -0.37477(15)
O14 O -0.1644(3) 0.0731(3) -0.17789(15)
O15 O -0.1304(3) -0.1236(3) -0.37940(14)
N1 N -0.1892(3) -0.0301(4) -0.3474(2)
N2 N -0.1719(4) 0.0591(4) -0.2059(2)
N3 N -0.0969(4) -0.1614(4) -0.3775(2)
C1 C 0.0346(7) 0.0734(7) -0.1914(4)
C2 C -0.0143(6) 0.0446(6) -0.1882(3)
C3 C -0.0225(6) 0.0039(6) -0.2066(3)
H1 H 0.0024 -0.0039 -0.2201
C4 C -0.0666(5) -0.0269(6) -0.2061(3)
C5 C -0.3207(6) -0.1723(8) -0.4757(3)
C6 C -0.3521(6) -0.1333(7) -0.4720(3)
H2 H -0.3481 -0.1121 -0.4561
C7 C -0.3892(7) -0.1250(7) -0.4909(4)
H3 H -0.4090 -0.0964 -0.4890
C8 C -0.3987(7) -0.1580(9) -0.5133(5)
H4 H -0.4248 -0.1519 -0.5264
C9 C -0.3689(9) -0.2006(11) -0.5163(5)
H5 H -0.3765 -0.2240 -0.5306
C10 C -0.3294(7) -0.2086(7) -0.4989(4)
H6 H -0.3084 -0.2363 -0.5014
C11 C -0.0135(7) 0.0591(6) -0.0565(4)
C12 C -0.0267(5) 0.0308(5) -0.0846(3)
C13 C 0.0027(5) -0.0105(5) -0.0911(3)
H7 H 0.0286 -0.0189 -0.0784
C14 C -0.0045(5) -0.0411(5) -0.1163(3)
C15 C -0.3319(5) -0.2813(5) -0.3735(3)
C16 C -0.3484(6) -0.2805(6) -0.4023(4)
H8 H -0.3373 -0.2560 -0.4152
C17 C -0.3808(7) -0.3164(7) -0.4108(4)
H9 H -0.3883 -0.3202 -0.4305
C18 C -0.4041(7) -0.3493(6) -0.3897(5)
H10 H -0.4301 -0.3705 -0.3953
C19 C -0.3884(6) -0.3489(6) -0.3630(4)
H11 H -0.4031 -0.3701 -0.3493
C20 C -0.3486(6) -0.3161(5) -0.3546(3)
H12 H -0.3343 -0.3187 -0.3362
C21 C -0.2499 -0.0834 -0.1553
C22 C -0.2107(5) -0.0659(5) -0.1341(3)
C23 C -0.2111(5) -0.0740(5) -0.1051(3)
H13 H -0.2364 -0.0941 -0.0973
C24 C -0.1754(5) -0.0536(5) -0.0861(3)
C25 C -0.3160(5) -0.0726(5) -0.3046(3)
C26 C -0.2935(6) -0.1060(6) -0.2877(3)
H14 H -0.2724 -0.1302 -0.2958
C27 C -0.3018(6) -0.1048(6) -0.2561(3)
H15 H -0.2861 -0.1281 -0.2441
C28 C -0.3321(6) -0.0701(6) -0.2447(4)
H16 H -0.3383 -0.0698 -0.2248
C29 C -0.3533(6) -0.0361(6) -0.2619(4)
H17 H -0.3732 -0.0110 -0.2538
C30 C -0.3460(6) -0.0377(6) -0.2923(3)
H18 H -0.3621 -0.0143 -0.3041
C31 C -0.3661(8) 0.0507(8) -0.1722(4)
C32 C -0.3261(8) 0.0860(8) -0.1793(5)
C33 C -0.3202(7) 0.0920(7) -0.2109(4)
H19 H -0.3413 0.0767 -0.2244
C34 C -0.2770(7) 0.1250(8) -0.2194(5)
C35 C -0.1171(5) 0.0321(5) -0.5039(3)
C36 C -0.1408(6) 0.0599(6) -0.5248(4)
H20 H -0.1665 0.0822 -0.5200
C37 C -0.1251(6) 0.0535(6) -0.5535(4)
H21 H -0.1407 0.0729 -0.5677
C38 C -0.0897(6) 0.0218(7) -0.5620(4)
H22 H -0.0814 0.0184 -0.5815
C39 C -0.0652(6) -0.0065(6) -0.5405(4)
H23 H -0.0390 -0.0280 -0.5455
C40 C -0.0815(6) -0.0017(6) -0.5092(3)
H24 H -0.0676 -0.0213 -0.4945
C41 C -0.2625 0.2055 -0.0650
C42 C -0.2640(6) 0.1976(6) -0.0933(4)
C43 C -0.2974(8) 0.2315(7) -0.1081(5)
H25 H -0.3120 0.2574 -0.0973
C44 C -0.3117(9) 0.2271(9) -0.1441(6)
C45 C 0.0141(6) 0.0992(6) -0.4072(3)
C46 C -0.0017(6) 0.1267(7) -0.4313(4)
H26 H -0.0344 0.1235 -0.4380
C47 C 0.0316(9) 0.1590(6) -0.4452(4)
H27 H 0.0211 0.1774 -0.4613
C48 C 0.0806(8) 0.1639(7) -0.4351(5)
H28 H 0.1029 0.1855 -0.4444
C49 C 0.0964(5) 0.1364(8) -0.4110(5)
H29 H 0.1291 0.1397 -0.4042
C50 C 0.0631(7) 0.1041(7) -0.3971(3)
H30 H 0.0736 0.0857 -0.3810
C51 C -0.1040(9) 0.2365(9) -0.2221(4)
C52 C -0.1342(8) 0.2234(8) -0.1971(5)
C53 C -0.1234(7) 0.2698(7) -0.1754(4)
H31 H -0.1035 0.2974 -0.1801
C54 C -0.1515(7) 0.2624(7) -0.1441(4)
C55 C 0.0538(6) -0.1129(6) -0.3712(3)
C56 C 0.0457(7) -0.0874(7) -0.3483(4)
H32 H 0.0195 -0.0643 -0.3473
C57 C 0.0778(7) -0.0957(7) -0.3248(4)
H33 H 0.0776 -0.0744 -0.3087
C58 C 0.1124(7) -0.1394(7) -0.3262(4)
C59 C 0.1183(6) -0.1662(6) -0.3525(4)
H34 H 0.1412 -0.1924 -0.3545
C60 C 0.0859(6) -0.1502(6) -0.3765(4)
H35 H 0.0877 -0.1654 -0.3947
C61 C -0.1804(4) -0.0616(4) -0.3254(2)
H36 H -0.3456 -0.0748 -0.5792
C62 C -0.1788(4) -0.0443(4) -0.2978(2)
H37 H -0.3163 -0.0785 -0.5326
C63 C -0.1880(4) 0.0060(5) -0.2920(2)
C64 C -0.2107(4) -0.0528(5) -0.5658(3)
H38 H -0.1765 -0.0473 -0.5629
C65 C -0.2311(4) -0.0525(5) -0.5932(2)
H39 H -0.2105 -0.0465 -0.6092
C66 C -0.1839(5) 0.0270(5) -0.2617(2)
C67 C -0.2507(4) -0.0431(5) -0.4891(3)
H40 H -0.2793 -0.0240 -0.4926
C68 C -0.1512(4) 0.0845(4) -0.2274(3)
H41 H -0.1322 0.1129 -0.2231
C69 C -0.2320(5) -0.0513(5) -0.4609(2)
H42 H -0.2491 -0.0374 -0.4452
C70 C -0.1567(5) 0.0701(5) -0.2561(3)
H43 H -0.1611 -0.1073 -0.5211
C71 C -0.0864(5) -0.1905(4) -0.4001(3)
H44 H -0.1052 -0.1869 -0.4170
C72 C -0.0490(4) -0.2256(4) -0.3994(2)
H45 H -0.0420 -0.2448 -0.4158
C73 C -0.0216(4) -0.2324(4) -0.3742(2)
C74 C 0.0346(4) -0.2959(5) -0.3504(2)
H46 H 0.0179 -0.2911 -0.3328
C75 C 0.0720(4) -0.3312(5) -0.3522(2)
H47 H 0.0803 -0.3503 -0.3360
O15A O -0.1264(3) 0.1196(3) -0.12940(14)
O13A O -0.2023(3) 0.0609(3) -0.12477(15)
La1N La -0.22757(3) -0.13484(3) -0.389660(15)
O1N O -0.1904(3) -0.2082(3) -0.41808(18)
C2N C -0.2054(6) -0.2357(6) -0.4382(3)
C1N C -0.1766(7) -0.2846(7) -0.4414(4)
F1N F -0.1849(4) -0.3150(4) -0.4187(2)
F2N F -0.1291(4) -0.2772(4) -0.4436(2)
F3N F -0.1903(3) -0.3119(4) -0.4648(2)
C3N C -0.2461(6) -0.2275(6) -0.4566(3)
H1N H -0.2539 -0.2524 -0.4701
C4N C -0.2769(6) -0.1834(5) -0.4561(3)
O2N O -0.2718(3) -0.1484(3) -0.43696(17)
O3N O -0.1995(3) -0.1869(3) -0.34824(17)
C12N C -0.2192(5) -0.2233(5) -0.3346(3)
C11N C -0.1909(6) -0.2365(7) -0.3065(4)
F4N F -0.1991(4) -0.1991(3) -0.28622(18)
F5N F -0.1428(3) -0.2406(3) -0.30935(17)
F6N F -0.2069(4) -0.2784(4) -0.2936(2)
C13N C -0.2605(5) -0.2527(5) -0.3411(3)
H7N H -0.2689 -0.2786 -0.3284
C14N C -0.2911(5) -0.2455(5) -0.3663(3)
O4N O -0.2850(3) -0.2072(3) -0.38273(17)
O5N O -0.2906(3) -0.0681(3) -0.39985(18)
C22N C -0.3159(5) -0.0393(5) -0.3841(3)
C21N C -0.3334 -0.0001 -0.4053
F7N F -0.3051(3) 0.0369(4) -0.4125(2)
F8N F -0.3624(4) -0.0115(3) -0.4264(2)
F9N F -0.3733(4) 0.0294(4) -0.3906(2)
C23N C -0.3240(5) -0.0389(5) -0.3551(3)
H13N H -0.3441 -0.0136 -0.3473
C24N C -0.3036(5) -0.0746(5) -0.3361(3)
O6N O -0.2752(3) -0.1094(3) -0.34543(16)
O14N O -0.1769(3) -0.0856(3) -0.42789(15)
La2N La -0.10463(3) -0.03769(3) -0.404790(15)
O7N O -0.1571(3) 0.0410(3) -0.41067(17)
C32N C -0.1640(8) 0.0761(8) -0.4293(5)
C31N C -0.1993(8) 0.1161(8) -0.4222(4)
F10N F -0.2301(7) 0.1181(5) -0.4423(3)
F11N F -0.1740(3) 0.1562(5) -0.4258(3)
F12N F -0.2205(3) 0.1146(3) -0.3985(2)
C33N C -0.1580(7) 0.0702(7) -0.4609(4)
H19N H -0.1733 0.0913 -0.4744
C34N C -0.1250(8) 0.0270(7) -0.4694(5)
O8N O -0.1057(3) -0.0097(3) -0.45655(17)
O9N O -0.0896(3) -0.0030(3) -0.35527(16)
C42N C -0.0524(6) 0.0140(6) -0.3433(4)
C41N C -0.0445 0.0125 -0.3150
F13N F -0.0560(7) -0.0336(6) -0.3051(3)
F14N F -0.0748(5) 0.0459(4) -0.3013(3)
F15N F -0.0006(6) 0.0278(4) -0.3027(2)
C43N C -0.0185(7) 0.0474(8) -0.3581(5)
H25N H 0.0074 0.0620 -0.3473
C44N C -0.0229(9) 0.0617(9) -0.3941(6)
O10N O -0.0470(4) 0.0358(3) -0.4096(2)
O11N O -0.0631(3) -0.0997(3) -0.43837(18)
C52N C -0.0266(8) -0.1158(8) -0.4471(5)
C51N C -0.0135(9) -0.1460(9) -0.4721(4)
F16N F -0.0422(5) -0.1828(5) -0.4729(2)
F17N F 0.0280(6) -0.1618(4) -0.4720(5)
F18N F -0.0205(7) -0.1101(8) -0.4929(3)
C53N C 0.0198(7) -0.1266(7) -0.4254(4)
H31N H 0.0474 -0.1465 -0.4301
C54N C 0.0124(7) -0.0985(7) -0.3941(4)
O12N O -0.0250(3) -0.0728(3) -0.3829(2)
C73O C 0.0216(4) -0.2676(4) -0.3742(2)
C72O C 0.0490(4) -0.2744(4) -0.3994(2)
C71O C 0.0864(5) -0.3095(4) -0.4001(3)
N3O N 0.0969(4) -0.3386(4) -0.3775(2)
O15O O 0.1304(3) -0.3764(3) -0.37940(14)
La1C La 0.22757(3) -0.36516(3) -0.389660(15)
La2C La 0.10463(3) -0.46231(3) -0.404790(15)
H44O H 0.1052 -0.3131 -0.4170
H45O H 0.0420 -0.2552 -0.4158
C74O C -0.0346(4) -0.2041(5) -0.3504(2)
H46O H -0.0179 -0.2089 -0.3328
C75O C -0.0720(4) -0.1688(5) -0.3522(2)
H47O H -0.0803 -0.1497 -0.3360
N2N N -0.1909(4) -0.0781(4) -0.4559(2)
C68N C -0.1655(4) -0.0988(4) -0.4774(3)
H41N H -0.1371 -0.1178 -0.4731
C70N C -0.1799(5) -0.0933(5) -0.5061(3)
C66N C -0.2230(5) -0.0661(5) -0.5117(2)
C63N C -0.2440(5) -0.0620(4) -0.5420(2)
C62N C -0.2943(4) -0.0712(4) -0.5478(2)
C61N C -0.3116(4) -0.0696(4) -0.5754(2)
N1N N -0.2801(4) -0.0608(3) -0.5974(2)
O13N O -0.2977(3) -0.0609(3) -0.62477(15)
La1M La -0.38484(3) -0.02243(3) -0.639660(15)
La2M La -0.28769(3) -0.14537(3) -0.654790(15)
C65A C -0.1975(5) 0.0189(4) -0.3432(2)
C64A C -0.1972(5) 0.0393(4) -0.3158(3)
H38A H -0.2027 0.0735 -0.3129
H39A H -0.2035 0.0395 -0.3592
H36A H -0.1752 -0.0956 -0.3292
H37A H -0.1715 -0.0663 -0.2826
C67A C -0.2069(5) -0.0007(4) -0.2391(3)
H40A H -0.2260 -0.0293 -0.2426
C69A C -0.1987(5) 0.0180(5) -0.2109(2)
H42A H -0.2126 0.0009 -0.1952
H43A H -0.1427 0.0889 -0.2711
C55A C -0.1371(6) 0.3038(6) -0.1212(3)
C56A C -0.1626(7) 0.2957(7) -0.0983(4)
H32A H -0.1857 0.2695 -0.0973
C57A C -0.1543(7) 0.3278(7) -0.0748(4)
H33A H -0.1756 0.3276 -0.0587
C58A C -0.1106(7) 0.3624(7) -0.0762(4)
C59A C -0.0838(6) 0.3683(6) -0.1025(4)
H34A H -0.0576 0.3912 -0.1045
C60A C -0.0998(6) 0.3359(6) -0.1265(4)
H35A H -0.0846 0.3377 -0.1447
C45A C -0.3492(6) 0.2641(6) -0.1572(3)
C46A C -0.3767(7) 0.2483(6) -0.1813(4)
H26A H -0.3735 0.2156 -0.1880
C47A C -0.4090(6) 0.2816(9) -0.1952(4)
H27A H -0.4274 0.2711 -0.2113
C48A C -0.4139(7) 0.3306(8) -0.1851(5)
H28A H -0.4355 0.3529 -0.1944
C49A C -0.3864(8) 0.3464(5) -0.1610(5)
H29A H -0.3897 0.3791 -0.1542
C50A C -0.3541(7) 0.3131(7) -0.1471(3)
H30A H -0.3357 0.3236 -0.1310
C35A C -0.2821(5) 0.1329(5) -0.2539(3)
C36A C -0.3099(6) 0.1092(6) -0.2748(4)
H20A H -0.3322 0.0835 -0.2700
C37A C -0.3035(6) 0.1249(6) -0.3035(4)
H21A H -0.3229 0.1093 -0.3177
C38A C -0.2718(7) 0.1603(6) -0.3120(4)
H22A H -0.2684 0.1686 -0.3315
C39A C -0.2435(6) 0.1848(6) -0.2905(4)
H23A H -0.2220 0.2110 -0.2955
C40A C -0.2483(6) 0.1685(6) -0.2592(3)
H24A H -0.2287 0.1824 -0.2445
C25A C -0.1774(5) -0.0660(5) -0.0546(3)
C26A C -0.1440(6) -0.0435(6) -0.0377(3)
H14A H -0.1198 -0.0224 -0.0458
C27A C -0.1452(6) -0.0518(6) -0.0061(3)
H15A H -0.1219 -0.0361 0.0059
C28A C -0.1799(6) -0.0821(6) 0.0053(4)
H16A H -0.1802 -0.0883 0.0252
C29A C -0.2139(6) -0.1033(6) -0.0119(4)
H17A H -0.2390 -0.1232 -0.0038
C30A C -0.2123(6) -0.0960(6) -0.0423(3)
H18A H -0.2357 -0.1121 -0.0541
C15A C 0.0313(5) -0.0819(5) -0.1235(3)
C16A C 0.0305(6) -0.0984(6) -0.1523(4)
H8A H 0.0060 -0.0873 -0.1652
C17A C 0.0664(7) -0.1308(7) -0.1608(4)
H9A H 0.0702 -0.1383 -0.1805
C18A C 0.0993(6) -0.1541(7) -0.1397(5)
H10A H 0.1205 -0.1801 -0.1453
C19A C 0.0989(6) -0.1384(6) -0.1130(4)
H11A H 0.1201 -0.1531 -0.0993
C20A C 0.0661(5) -0.0986(6) -0.1046(3)
H12A H 0.0687 -0.0843 -0.0862
C5A C -0.0777(8) -0.0707(6) -0.2257(3)
C6A C -0.1167(7) -0.1021(6) -0.2220(3)
H2A H -0.1379 -0.0981 -0.2061
C7A C -0.1250(7) -0.1392(7) -0.2409(4)
H3A H -0.1536 -0.1590 -0.2390
C8A C -0.0920(9) -0.1487(7) -0.2633(5)
H4A H -0.0981 -0.1748 -0.2764
C9A C -0.0494(11) -0.1189(9) -0.2663(5)
H5A H -0.0260 -0.1265 -0.2806
C10A C -0.0414(7) -0.0794(7) -0.2489(4)
H6A H -0.0137 -0.0584 -0.2514
O16 O 0.5000 0.2500 0.2203(5)
O17 O 1.0380(8) 0.1693(8) 0.0118(5)
loop_
_geom_bond_atom_site_label_1
_geom_bond_atom_site_label_2
_geom_bond_site_symmetry_1
_geom_bond_site_symmetry_2
La1 O1 1_555 1_555
La2 O7 1_555 1_555
F1 C1 1_555 1_555
F2 C1 1_555 1_555
F3 C1 1_555 1_555
F4 C11 1_555 1_555
F5 C11 1_555 1_555
F6 C11 1_555 1_555
F7 C21 1_555 1_555
F8 C21 1_555 1_555
F9 C21 1_555 1_555
F10 C31 1_555 1_555
F11 C31 1_555 1_555
F12 C31 1_555 1_555
F13 C41 1_555 1_555
F14 C41 1_555 1_555
F15 C41 1_555 1_555
F16 C51 1_555 1_555
F17 C51 1_555 1_555
F18 C51 1_555 1_555
O1 C2 1_555 1_555
O2 La1 1_555 1_555
O3 La1 1_555 1_555
O4 La1 1_555 1_555
O5 La1 1_555 1_555
O6 La1 1_555 1_555
O7 C32 1_555 1_555
O8 La2 1_555 1_555
O9 La2 1_555 1_555
O10 La2 1_555 1_555
O11 La2 1_555 1_555
O12 La2 1_555 1_555
O13 N1 1_555 1_555
O14 La1 1_555 1_555
O15 N3 1_555 1_555
N1 C61 1_555 1_555
N2 O14 1_555 1_555
N3 C71 1_555 1_555
C1 C2 1_555 1_555
C2 C3 1_555 1_555
C3 H1 1_555 1_555
C4 O2 1_555 1_555
C5 C6 1_555 1_555
C6 H2 1_555 1_555
C7 C6 1_555 1_555
H3 C7 1_555 1_555
C8 C7 1_555 1_555
H4 C8 1_555 1_555
C9 C8 1_555 1_555
H5 C9 1_555 1_555
C10 C5 1_555 1_555
H6 C10 1_555 1_555
C11 C12 1_555 1_555
C12 O3 1_555 1_555
C13 C12 1_555 1_555
H7 C13 1_555 1_555
C14 O4 1_555 1_555
C15 C16 1_555 1_555
C16 H8 1_555 1_555
C17 C16 1_555 1_555
H9 C17 1_555 1_555
C18 C17 1_555 1_555
H10 C18 1_555 1_555
C19 C18 1_555 1_555
H11 C19 1_555 1_555
C20 C15 1_555 1_555
H12 C20 1_555 1_555
C21 C22 1_555 1_555
C22 O5 1_555 1_555
C23 C22 1_555 1_555
H13 C23 1_555 1_555
C24 O6 1_555 1_555
C25 C26 1_555 1_555
C26 H14 1_555 1_555
C27 C26 1_555 1_555
H15 C27 1_555 1_555
C28 C27 1_555 1_555
H16 C28 1_555 1_555
C29 C28 1_555 1_555
H17 C29 1_555 1_555
C30 C25 1_555 1_555
H18 C30 1_555 1_555
C31 C32 1_555 1_555
C32 C33 1_555 1_555
C33 H19 1_555 1_555
C34 O8 1_555 1_555
C35 C36 1_555 1_555
C36 H20 1_555 1_555
C37 C36 1_555 1_555
H21 C37 1_555 1_555
C38 C37 1_555 1_555
H22 C38 1_555 1_555
C39 C38 1_555 1_555
H23 C39 1_555 1_555
C40 C35 1_555 1_555
H24 C40 1_555 1_555
C41 C42 1_555 1_555
C42 O9 1_555 1_555
C43 C42 1_555 1_555
H25 C43 1_555 1_555
C44 O10 1_555 1_555
C45 C46 1_555 1_555
C46 H26 1_555 1_555
C47 C46 1_555 1_555
H27 C47 1_555 1_555
C48 C47 1_555 1_555
H28 C48 1_555 1_555
C49 C48 1_555 1_555
H29 C49 1_555 1_555
C50 C45 1_555 1_555
H30 C50 1_555 1_555
C51 C52 1_555 1_555
C52 O11 1_555 1_555
C53 C52 1_555 1_555
H31 C53 1_555 1_555
C54 O12 1_555 1_555
C55 C56 1_555 1_555
C56 H32 1_555 1_555
C57 C56 1_555 1_555
H33 C57 1_555 1_555
C58 C57 1_555 1_555
C59 C58 1_555 1_555
H34 C59 1_555 1_555
C60 C55 1_555 1_555
H35 C60 1_555 1_555
C61 C62 1_555 1_555
H36 C61N 1_555 1_555
C62 C63 1_555 1_555
H37 C62N 1_555 1_555
C63 C66 1_555 1_555
C64 H38 1_555 1_555
C65 C64 1_555 1_555
H39 C65 1_555 1_555
C66 C70 1_555 1_555
C67 H40 1_555 1_555
C68 N2 1_555 1_555
H41 C68 1_555 1_555
C69 C67 1_555 1_555
H42 C69 1_555 1_555
C70 C68 1_555 1_555
H43 C70N 1_555 1_555
C71 H44 1_555 1_555
C72 C71 1_555 1_555
H45 C72 1_555 1_555
C73 C72 1_555 1_555
C74 H46 1_555 1_555
C75 C74 1_555 1_555
H47 C75 1_555 1_555
O15A La1 1_555 1_555
O13A La1 1_555 1_555
La1N O13 1_555 1_555
O1N La1N 1_555 1_555
C2N O1N 1_555 1_555
C1N C2N 1_555 1_555
F1N C1N 1_555 1_555
F2N C1N 1_555 1_555
F3N C1N 1_555 1_555
C3N C2N 1_555 1_555
H1N C3N 1_555 1_555
C4N C5 1_555 1_555
O2N La1N 1_555 1_555
O3N La1N 1_555 1_555
C12N O3N 1_555 1_555
C11N C12N 1_555 1_555
F4N C11N 1_555 1_555
F5N C11N 1_555 1_555
F6N C11N 1_555 1_555
C13N C12N 1_555 1_555
H7N C13N 1_555 1_555
C14N C15 1_555 1_555
O4N La1N 1_555 1_555
O5N La1N 1_555 1_555
C22N O5N 1_555 1_555
C21N C22N 1_555 1_555
F7N C21N 1_555 1_555
F8N C21N 1_555 1_555
F9N C21N 1_555 1_555
C23N C22N 1_555 1_555
H13N C23N 1_555 1_555
C24N C25 1_555 1_555
O6N La1N 1_555 1_555
O14N La1N 1_555 1_555
La2N O13 1_555 1_555
O7N La2N 1_555 1_555
C32N O7N 1_555 1_555
C31N C32N 1_555 1_555
F10N C31N 1_555 1_555
F11N C31N 1_555 1_555
F12N C31N 1_555 1_555
C33N C32N 1_555 1_555
H19N C33N 1_555 1_555
C34N C35 1_555 1_555
O8N La2N 1_555 1_555
O9N La2N 1_555 1_555
C42N O9N 1_555 1_555
C41N C42N 1_555 1_555
F13N C41N 1_555 1_555
F14N C41N 1_555 1_555
F15N C41N 1_555 1_555
C43N C42N 1_555 1_555
H25N C43N 1_555 1_555
C44N C45 1_555 1_555
O10N La2N 1_555 1_555
O11N La2N 1_555 1_555
C52N O11N 1_555 1_555
C51N C52N 1_555 1_555
F16N C51N 1_555 1_555
F17N C51N 1_555 1_555
F18N C51N 1_555 1_555
C53N C52N 1_555 1_555
H31N C53N 1_555 1_555
C54N C55 1_555 1_555
O12N La2N 1_555 1_555
C73O C73 1_555 1_555
C72O C73O 1_555 1_555
C71O C72O 1_555 1_555
N3O C75 1_555 1_555
O15O N3O 1_555 1_555
La1C O15O 1_555 1_555
La2C O15O 1_555 1_555
H44O C71O 1_555 1_555
H45O C72O 1_555 1_555
C74O C73 1_555 1_555
H46O C74O 1_555 1_555
C75O N3 1_555 1_555
H47O C75O 1_555 1_555
N2N C69 1_555 1_555
C68N N2N 1_555 1_555
H41N C68N 1_555 1_555
C70N C68N 1_555 1_555
C66N C67 1_555 1_555
C63N C64 1_555 1_555
C62N C63N 1_555 1_555
C61N C62N 1_555 1_555
N1N C65 1_555 1_555
O13N N1N 1_555 1_555
La1M O13N 1_555 1_555
La2M O13N 1_555 1_555
C65A N1 1_555 1_555
C64A C63 1_555 1_555
H38A C64A 1_555 1_555
H39A C65A 1_555 1_555
H36A C61 1_555 1_555
H37A C62 1_555 1_555
C67A C66 1_555 1_555
H40A C67A 1_555 1_555
C69A N2 1_555 1_555
H42A C69A 1_555 1_555
H43A C70 1_555 1_555
C55A C54 1_555 1_555
C56A C55A 1_555 1_555
H32A C56A 1_555 1_555
C57A C56A 1_555 1_555
H33A C57A 1_555 1_555
C58A C57A 1_555 1_555
C59A C58A 1_555 1_555
H34A C59A 1_555 1_555
C60A C55A 1_555 1_555
H35A C60A 1_555 1_555
C45A C44 1_555 1_555
C46A C45A 1_555 1_555
H26A C46A 1_555 1_555
C47A C46A 1_555 1_555
H27A C47A 1_555 1_555
C48A C47A 1_555 1_555
H28A C48A 1_555 1_555
C49A C48A 1_555 1_555
H29A C49A 1_555 1_555
C50A C45A 1_555 1_555
H30A C50A 1_555 1_555
C35A C34 1_555 1_555
C36A C35A 1_555 1_555
H20A C36A 1_555 1_555
C37A C36A 1_555 1_555
H21A C37A 1_555 1_555
C38A C37A 1_555 1_555
H22A C38A 1_555 1_555
C39A C38A 1_555 1_555
H23A C39A 1_555 1_555
C40A C35A 1_555 1_555
H24A C40A 1_555 1_555
C25A C24 1_555 1_555
C26A C25A 1_555 1_555
H14A C26A 1_555 1_555
C27A C26A 1_555 1_555
H15A C27A 1_555 1_555
C28A C27A 1_555 1_555
H16A C28A 1_555 1_555
C29A C28A 1_555 1_555
H17A C29A 1_555 1_555
C30A C25A 1_555 1_555
H18A C30A 1_555 1_555
C15A C14 1_555 1_555
C16A C15A 1_555 1_555
H8A C16A 1_555 1_555
C17A C16A 1_555 1_555
H9A C17A 1_555 1_555
C18A C17A 1_555 1_555
H10A C18A 1_555 1_555
C19A C18A 1_555 1_555
H11A C19A 1_555 1_555
C20A C15A 1_555 1_555
H12A C20A 1_555 1_555
C5A C4 1_555 1_555
C6A C5A 1_555 1_555
H2A C6A 1_555 1_555
C7A C6A 1_555 1_555
H3A C7A 1_555 1_555
C8A C7A 1_555 1_555
H4A C8A 1_555 1_555
C9A C8A 1_555 1_555
H5A C9A 1_555 1_555
C10A C5A 1_555 1_555
H6A C10A 1_555 1_555
La2 O13A 1_555 1_555
La2 O14 1_555 1_555
La2 O15A 1_555 1_555
O15 La2N 1_555 1_555
O15 La1N 1_555 1_555
C3 C4 1_555 1_555
C9 C10 1_555 1_555
C13 C14 1_555 1_555
C19 C20 1_555 1_555
C23 C24 1_555 1_555
C29 C30 1_555 1_555
C33 C34 1_555 1_555
C39 C40 1_555 1_555
C43 C44 1_555 1_555
C49 C50 1_555 1_555
C53 C54 1_555 1_555
C59 C60 1_555 1_555
C74 C73O 1_555 1_555
C3N C4N 1_555 1_555
C4N O2N 1_555 1_555
C13N C14N 1_555 1_555
C14N O4N 1_555 1_555
C23N C24N 1_555 1_555
C24N O6N 1_555 1_555
O14N La2N 1_555 1_555
O14N N2N 1_555 1_555
C33N C34N 1_555 1_555
C34N O8N 1_555 1_555
C43N C44N 1_555 1_555
C44N O10N 1_555 1_555
C53N C54N 1_555 1_555
C54N O12N 1_555 1_555
C71O N3O 1_555 1_555
C74O C75O 1_555 1_555
C70N C66N 1_555 1_555
C66N C63N 1_555 1_555
C61N N1N 1_555 1_555
C65A C64A 1_555 1_555
C67A C69A 1_555 1_555
C59A C60A 1_555 1_555
C49A C50A 1_555 1_555
C39A C40A 1_555 1_555
C29A C30A 1_555 1_555
C19A C20A 1_555 1_555
C9A C10A 1_555 1_555

#END
