
#######################################################################
#
#                 Cambridge Crystallographic Data Centre
#                                CCDC 
#
#######################################################################
#
# If this CIF has been generated from an entry in the Cambridge 
# Structural Database, then it will include bibliographic, chemical, 
# crystal, experimental, refinement or atomic coordinate data resulting 
# from the CCDC's data processing and validation procedures.
#
#######################################################################

data_QAFGIO
_symmetry_cell_setting           monoclinic
_symmetry_space_group_name_H-M   'P 21/n'
_symmetry_Int_Tables_number      14
_space_group_name_Hall           '-P 2yn'
loop_
_symmetry_equiv_pos_site_id
_symmetry_equiv_pos_as_xyz
1 x,y,z
2 1/2+x,1/2-y,1/2+z
3 -x,-y,-z
4 1/2-x,1/2+y,1/2-z
_cell_length_a                   8.189(3)
_cell_length_b                   12.522(4)
_cell_length_c                   16.168(6)
_cell_angle_alpha                90
_cell_angle_beta                 93.960(6)
_cell_angle_gamma                90
_cell_volume                     1653.95
loop_
_atom_site_label
_atom_site_type_symbol
_atom_site_fract_x
_atom_site_fract_y
_atom_site_fract_z
Ho1 Ho 0.01482(4) 0.37213(3) -0.06474(2)
Cl1 Cl -0.1195(2) 0.36183(16) -0.21746(12)
N1 N -0.0755(7) 0.1775(4) -0.0723(4)
N2 N 0.2130(7) 0.2463(4) -0.1286(4)
O1 O 0.1791(6) 0.2959(4) 0.0490(3)
O2 O 0.0989(6) 0.4591(4) 0.0695(3)
O3 O 0.7650(5) 0.5139(4) 0.0874(3)
O4 O 0.7949(5) 0.3643(4) 0.0135(3)
C1 C -0.2183(8) 0.1438(5) -0.0484(5)
H1 H -0.2871 0.1930 -0.0254
C2 C -0.2708(9) 0.0371(6) -0.0560(5)
H2 H -0.3729 0.0175 -0.0392
C3 C -0.1719(9) -0.0376(5) -0.0880(5)
H3 H -0.2044 -0.1086 -0.0922
C4 C -0.0192(9) -0.0050(5) -0.1145(4)
C5 C 0.0937(10) -0.0785(6) -0.1485(5)
H4 H 0.0666 -0.1505 -0.1528
C6 C 0.2364(10) -0.0451(6) -0.1740(5)
H5 H 0.3084 -0.0946 -0.1943
C7 C 0.2807(8) 0.0651(5) -0.1707(4)
C8 C 0.4266(9) 0.1040(6) -0.1993(5)
H6 H 0.4979 0.0574 -0.2235
C9 C 0.4649(9) 0.2095(6) -0.1919(5)
H7 H 0.5628 0.2356 -0.2099
C10 C 0.3536(8) 0.2778(6) -0.1566(5)
H8 H 0.3799 0.3500 -0.1526
C11 C 0.0227(8) 0.1036(5) -0.1074(4)
C12 C 0.1760(8) 0.1389(5) -0.1357(4)
C13 C 0.1857(7) 0.3777(6) 0.0927(4)
C14 C 0.3049(7) 0.3890(6) 0.1668(4)
H9 H 0.2545 0.4300 0.2092
H10 H 0.3310 0.3188 0.1894
C15 C 0.4618(8) 0.4442(5) 0.1452(4)
H11 H 0.4346 0.5107 0.1167
H12 H 0.5269 0.4612 0.1959
C16 C 0.5629(8) 0.3747(7) 0.0903(5)
H13 H 0.4948 0.3560 0.0409
H14 H 0.5898 0.3088 0.1198
C17 C 0.7203(8) 0.4230(6) 0.0633(5)
O2B O -0.0989(6) 0.5409(4) -0.0695(3)
Ho1B Ho -0.01482(4) 0.62787(3) 0.06474(2)
Ho1B_2 Ho 0.98518(4) 0.62787(3) 0.06474(2)
Ho1_2 Ho 1.01482(4) 0.37213(3) -0.06474(2)
O3B O 0.2350(5) 0.4861(4) -0.0874(3)
O4_2 O -0.2051(5) 0.3643(4) 0.0135(3)
loop_
_geom_bond_atom_site_label_1
_geom_bond_atom_site_label_2
_geom_bond_site_symmetry_1
_geom_bond_site_symmetry_2
Ho1 Cl1 1_555 1_555
N1 Ho1 1_555 1_555
N2 Ho1 1_555 1_555
O1 Ho1 1_555 1_555
O2 Ho1 1_555 1_555
O3 C17 1_555 1_555
O4 C17 1_555 1_555
C1 N1 1_555 1_555
H1 C1 1_555 1_555
C2 C1 1_555 1_555
H2 C2 1_555 1_555
C3 C2 1_555 1_555
H3 C3 1_555 1_555
C4 C3 1_555 1_555
C5 C4 1_555 1_555
H4 C5 1_555 1_555
C6 C5 1_555 1_555
H5 C6 1_555 1_555
C7 C6 1_555 1_555
C8 C7 1_555 1_555
H6 C8 1_555 1_555
C9 C8 1_555 1_555
H7 C9 1_555 1_555
C10 N2 1_555 1_555
H8 C10 1_555 1_555
C11 N1 1_555 1_555
C12 N2 1_555 1_555
C13 O1 1_555 1_555
C14 C13 1_555 1_555
H9 C14 1_555 1_555
H10 C14 1_555 1_555
C15 C14 1_555 1_555
H11 C15 1_555 1_555
H12 C15 1_555 1_555
C16 C15 1_555 1_555
H13 C16 1_555 1_555
H14 C16 1_555 1_555
C17 C16 1_555 1_555
O2B Ho1 1_555 1_555
Ho1B O2 1_555 1_555
Ho1B_2 O3 1_555 1_555
Ho1_2 O4 1_555 1_555
O3B Ho1 1_555 1_555
O4_2 Ho1 1_555 1_555
O2 C13 1_555 1_555
C4 C11 1_555 1_555
C7 C12 1_555 1_555
C9 C10 1_555 1_555
C11 C12 1_555 1_555
O2B Ho1B 1_555 1_555

#END
