
#######################################################################
#
#                 Cambridge Crystallographic Data Centre
#                                CCDC 
#
#######################################################################
#
# If this CIF has been generated from an entry in the Cambridge 
# Structural Database, then it will include bibliographic, chemical, 
# crystal, experimental, refinement or atomic coordinate data resulting 
# from the CCDC's data processing and validation procedures.
#
#######################################################################

data_QAFGOU
_symmetry_cell_setting           monoclinic
_symmetry_space_group_name_H-M   'P 21/n'
_symmetry_Int_Tables_number      14
_space_group_name_Hall           '-P 2yn'
loop_
_symmetry_equiv_pos_site_id
_symmetry_equiv_pos_as_xyz
1 x,y,z
2 1/2+x,1/2-y,1/2+z
3 -x,-y,-z
4 1/2-x,1/2+y,1/2-z
_cell_length_a                   8.280(19)
_cell_length_b                   12.65(3)
_cell_length_c                   16.31(4)
_cell_angle_alpha                90
_cell_angle_beta                 94.26(4)
_cell_angle_gamma                90
_cell_volume                     1703.62
loop_
_atom_site_label
_atom_site_type_symbol
_atom_site_fract_x
_atom_site_fract_y
_atom_site_fract_z
Tb1 Tb 0.01460(3) 0.37168(2) -0.065000(19)
Cl1 Cl -0.1197(2) 0.36049(13) -0.21912(10)
N1 N -0.0761(6) 0.1748(4) -0.0730(3)
N2 N 0.2162(6) 0.2439(4) -0.1283(3)
O1 O 0.1792(5) 0.2959(3) 0.0502(3)
O2 O 0.0982(5) 0.4591(3) 0.0706(3)
O3 O 0.7628(5) 0.5138(3) 0.0873(3)
O4 O 0.7951(5) 0.3639(3) 0.0148(3)
C1 C -0.2167(8) 0.1414(5) -0.0482(4)
H1 H -0.2837 0.1898 -0.0244
C2 C -0.2676(8) 0.0366(5) -0.0567(4)
H2 H -0.3683 0.0169 -0.0400
C3 C -0.1701(9) -0.0379(5) -0.0894(4)
H3 H -0.2035 -0.1079 -0.0949
C4 C -0.0192(8) -0.0061(5) -0.1145(4)
C5 C 0.0936(9) -0.0796(5) -0.1483(4)
H4 H 0.0677 -0.1511 -0.1520
C6 C 0.2340(9) -0.0456(5) -0.1739(5)
H5 H 0.3037 -0.0945 -0.1952
C7 C 0.2816(8) 0.0635(5) -0.1699(4)
C8 C 0.4275(9) 0.1025(5) -0.1996(4)
H6 H 0.4978 0.0567 -0.2239
C9 C 0.4637(8) 0.2078(5) -0.1922(4)
H7 H 0.5596 0.2340 -0.2105
C10 C 0.3555(8) 0.2753(5) -0.1570(4)
H8 H 0.3817 0.3467 -0.1533
C11 C 0.0228(7) 0.1026(4) -0.1073(4)
C12 C 0.1783(7) 0.1377(5) -0.1350(4)
C13 C 0.1863(7) 0.3790(6) 0.0937(4)
C14 C 0.3062(7) 0.3904(5) 0.1686(4)
H9 H 0.2576 0.4317 0.2105
H10 H 0.3325 0.3211 0.1914
C15 C 0.4615(7) 0.4450(5) 0.1445(4)
H11 H 0.5270 0.4641 0.1941
H12 H 0.4325 0.5097 0.1151
C16 C 0.5622(7) 0.3757(6) 0.0908(5)
H13 H 0.4941 0.3557 0.0423
H14 H 0.5898 0.3114 0.1210
C17 C 0.7183(8) 0.4224(5) 0.0622(4)
O2B O -0.0982(5) 0.5409(3) -0.0706(3)
Tb1B Tb -0.01460(3) 0.62832(2) 0.065000(19)
Tb1B_2 Tb 0.98540(3) 0.62832(2) 0.065000(19)
Tb1_2 Tb 1.01460(3) 0.37168(2) -0.065000(19)
O3B O 0.2372(5) 0.4862(3) -0.0873(3)
O4_2 O -0.2049(5) 0.3639(3) 0.0148(3)
loop_
_geom_bond_atom_site_label_1
_geom_bond_atom_site_label_2
_geom_bond_site_symmetry_1
_geom_bond_site_symmetry_2
Tb1 Cl1 1_555 1_555
N1 Tb1 1_555 1_555
N2 Tb1 1_555 1_555
O1 Tb1 1_555 1_555
O2 Tb1 1_555 1_555
O3 C17 1_555 1_555
O4 C17 1_555 1_555
C1 N1 1_555 1_555
H1 C1 1_555 1_555
C2 C1 1_555 1_555
H2 C2 1_555 1_555
C3 C2 1_555 1_555
H3 C3 1_555 1_555
C4 C3 1_555 1_555
C5 C4 1_555 1_555
H4 C5 1_555 1_555
C6 C5 1_555 1_555
H5 C6 1_555 1_555
C7 C6 1_555 1_555
C8 C7 1_555 1_555
H6 C8 1_555 1_555
C9 C8 1_555 1_555
H7 C9 1_555 1_555
C10 N2 1_555 1_555
H8 C10 1_555 1_555
C11 N1 1_555 1_555
C12 N2 1_555 1_555
C13 O1 1_555 1_555
C14 C13 1_555 1_555
H9 C14 1_555 1_555
H10 C14 1_555 1_555
C15 C14 1_555 1_555
H11 C15 1_555 1_555
H12 C15 1_555 1_555
C16 C15 1_555 1_555
H13 C16 1_555 1_555
H14 C16 1_555 1_555
C17 C16 1_555 1_555
O2B Tb1 1_555 1_555
Tb1B O2 1_555 1_555
Tb1B_2 O3 1_555 1_555
Tb1_2 O4 1_555 1_555
O3B Tb1 1_555 1_555
O4_2 Tb1 1_555 1_555
O2 C13 1_555 1_555
C4 C11 1_555 1_555
C7 C12 1_555 1_555
C9 C10 1_555 1_555
C11 C12 1_555 1_555
O2B Tb1B 1_555 1_555

#END
