
#######################################################################
#
#                 Cambridge Crystallographic Data Centre
#                                CCDC 
#
#######################################################################
#
# If this CIF has been generated from an entry in the Cambridge 
# Structural Database, then it will include bibliographic, chemical, 
# crystal, experimental, refinement or atomic coordinate data resulting 
# from the CCDC's data processing and validation procedures.
#
#######################################################################

data_QAFGEK
_symmetry_cell_setting           triclinic
_symmetry_space_group_name_H-M   'P -1'
_symmetry_Int_Tables_number      2
_space_group_name_Hall           '-P 1'
loop_
_symmetry_equiv_pos_site_id
_symmetry_equiv_pos_as_xyz
1 x,y,z
2 -x,-y,-z
_cell_length_a                   8.810(14)
_cell_length_b                   13.40(2)
_cell_length_c                   16.31(3)
_cell_angle_alpha                84.09(3)
_cell_angle_beta                 83.81(3)
_cell_angle_gamma                75.00(3)
_cell_volume                     1843.35
loop_
_atom_site_label
_atom_site_type_symbol
_atom_site_fract_x
_atom_site_fract_y
_atom_site_fract_z
Nd1 Nd 0.63851(5) 0.35898(3) 0.02464(3)
Nd2 Nd 0.41203(5) 0.13740(4) -0.45382(3)
O1 O 0.4012(7) 0.3905(5) 0.1142(4)
O2 O 0.2641(7) 0.5536(5) 0.0970(4)
O3 O -0.2776(7) 0.3346(6) 0.1685(4)
O4 O -0.0905(7) 0.3201(5) 0.0696(4)
O5 O 0.4021(7) 0.4650(5) -0.0520(4)
O6 O 0.4643(7) 0.2980(5) -0.0628(4)
O7 O 0.4403(8) 0.2938(5) -0.3968(4)
O8 O 0.2994(8) 0.2019(6) -0.3191(4)
O9 O 0.6539(7) 0.1305(5) -0.5376(4)
O10 O 0.7420(7) -0.0167(5) -0.5984(4)
O11 O 1.3949(7) 0.0480(5) -0.5709(4)
O12 O 1.3789(8) -0.0709(6) -0.6463(4)
N1 N 0.8108(9) 0.2053(6) -0.0612(5)
N2 N 0.6354(9) 0.1700(6) 0.0794(5)
N3 N 0.1152(8) 0.2420(6) -0.4685(5)
N4 N 0.3455(9) 0.2953(6) -0.5710(5)
C1 C 0.9036(12) 0.2213(8) -0.1246(6)
H1 H 0.9135 0.2884 -0.1392
C2 C 0.9909(13) 0.1410(10) -0.1728(7)
H2 H 1.0586 0.1547 -0.2179
C3 C 0.9751(15) 0.0452(9) -0.1529(8)
H3 H 1.0329 -0.0096 -0.1830
C4 C 0.8728(14) 0.0297(9) -0.0878(7)
C5 C 0.8476(16) -0.0728(9) -0.0608(9)
H4 H 0.9001 -0.1288 -0.0909
C6 C 0.7523(15) -0.0883(10) 0.0053(9)
H5 H 0.7342 -0.1537 0.0185
C7 C 0.6788(13) -0.0083(9) 0.0552(8)
C8 C 0.5916(17) -0.0232(11) 0.1304(10)
H6 H 0.5766 -0.0884 0.1481
C9 C 0.5305(17) 0.0559(12) 0.1761(10)
H7 H 0.4703 0.0468 0.2255
C10 C 0.5565(13) 0.1521(9) 0.1504(7)
H8 H 0.5167 0.2061 0.1844
C11 C 0.6979(11) 0.0892(8) 0.0346(6)
C12 C 0.7917(11) 0.1087(7) -0.0395(6)
C13 C 0.2749(9) 0.4600(7) 0.1172(5)
C14 C 0.1256(10) 0.4297(7) 0.1455(6)
H9 H 0.0592 0.4452 0.0998
H10 H 0.0712 0.4730 0.1892
C15 C 0.1406(10) 0.3189(7) 0.1769(6)
H11 H 0.1878 0.2745 0.1327
H12 H 0.2097 0.3012 0.2215
C16 C -0.0138(10) 0.2999(8) 0.2071(6)
H13 H -0.0577 0.3428 0.2526
H14 H 0.0027 0.2282 0.2291
C17 C -0.1341(10) 0.3205(7) 0.1441(6)
C18 C 0.3766(11) 0.3844(7) -0.0778(5)
C19 C 0.2316(10) 0.3994(7) -0.1233(6)
H15 H 0.1442 0.3928 -0.0833
H16 H 0.2063 0.4694 -0.1494
C20 C 0.2455(10) 0.3258(7) -0.1876(5)
H17 H 0.1436 0.3367 -0.2093
H18 H 0.2734 0.2556 -0.1621
C21 C 0.3661(12) 0.3368(8) -0.2583(6)
H19 H 0.3453 0.4089 -0.2795
H20 H 0.4697 0.3181 -0.2375
C22 C 0.3688(11) 0.2722(8) -0.3278(6)
C23 C 0.7477(9) 0.0717(7) -0.5856(5)
C24 C 0.8790(9) 0.1136(8) -0.6331(6)
H21 H 0.8738 0.1113 -0.6920
H22 H 0.8646 0.1853 -0.6220
C25 C 1.0378(10) 0.0515(8) -0.6089(7)
H23 H 1.0417 0.0558 -0.5502
H24 H 1.0480 -0.0205 -0.6176
C26 C 1.1754(10) 0.0837(8) -0.6540(5)
H25 H 1.1678 0.1555 -0.6457
H26 H 1.1755 0.0778 -0.7128
C27 C 1.3265(11) 0.0160(8) -0.6228(5)
C28 C 0.4559(13) 0.3245(8) -0.6218(7)
H27 H 0.5591 0.2845 -0.6199
C29 C 0.4278(15) 0.4105(9) -0.6775(7)
H28 H 0.5096 0.4257 -0.7135
C30 C 0.2799(16) 0.4729(8) -0.6793(6)
H29 H 0.2602 0.5340 -0.7134
C31 C 0.1588(13) 0.4439(8) -0.6295(6)
C32 C -0.0038(14) 0.5013(9) -0.6301(6)
H30 H -0.0298 0.5609 -0.6657
C33 C -0.1162(13) 0.4722(9) -0.5822(7)
H31 H -0.2192 0.5124 -0.5840
C34 C -0.0860(12) 0.3820(9) -0.5279(7)
C35 C -0.1977(12) 0.3469(10) -0.4764(8)
H32 H -0.3035 0.3807 -0.4800
C36 C -0.1593(12) 0.2660(10) -0.4215(8)
H33 H -0.2361 0.2438 -0.3861
C37 C 0.0011(11) 0.2154(8) -0.4186(7)
H34 H 0.0288 0.1599 -0.3794
C38 C 0.0746(11) 0.3245(8) -0.5224(6)
C39 C 0.1930(11) 0.3540(7) -0.5760(5)
O2A O 0.7359(7) 0.4464(5) -0.0970(4)
Nd1A Nd 0.36149(5) 0.64102(3) -0.02464(3)
O5A O 0.5979(7) 0.5350(5) 0.0520(4)
O10A O 0.2580(7) 0.0167(5) -0.4016(4)
Nd2A Nd 0.58797(5) -0.13740(4) -0.54618(3)
O11A O 0.6051(7) -0.0480(5) -0.4291(4)
Nd2A_2 Nd 1.58797(5) -0.13740(4) -0.54618(3)
Nd2_2 Nd 1.41203(5) 0.13740(4) -0.45382(3)
Nd1_2 Nd -0.36149(5) 0.35898(3) 0.02464(3)
O3_2 O 0.7224(7) 0.3346(6) 0.1685(4)
O4_2 O 0.9095(7) 0.3201(5) 0.0696(4)
O11_2 O 0.3949(7) 0.0480(5) -0.5709(4)
O12A O 0.6211(8) 0.0709(6) -0.3537(4)
loop_
_geom_bond_atom_site_label_1
_geom_bond_atom_site_label_2
_geom_bond_site_symmetry_1
_geom_bond_site_symmetry_2
Nd1 O1 1_555 1_555
Nd2 O7 1_555 1_555
O1 C13 1_555 1_555
O2 C13 1_555 1_555
O3 C17 1_555 1_555
O4 C17 1_555 1_555
O5 Nd1 1_555 1_555
O6 Nd1 1_555 1_555
O7 C22 1_555 1_555
O8 Nd2 1_555 1_555
O9 Nd2 1_555 1_555
O10 C23 1_555 1_555
O11 C27 1_555 1_555
O12 C27 1_555 1_555
N1 Nd1 1_555 1_555
N2 Nd1 1_555 1_555
N3 Nd2 1_555 1_555
N4 Nd2 1_555 1_555
C1 N1 1_555 1_555
H1 C1 1_555 1_555
C2 C1 1_555 1_555
H2 C2 1_555 1_555
C3 C2 1_555 1_555
H3 C3 1_555 1_555
C4 C3 1_555 1_555
C5 C4 1_555 1_555
H4 C5 1_555 1_555
C6 C5 1_555 1_555
H5 C6 1_555 1_555
C7 C6 1_555 1_555
C8 C7 1_555 1_555
H6 C8 1_555 1_555
C9 C8 1_555 1_555
H7 C9 1_555 1_555
C10 N2 1_555 1_555
H8 C10 1_555 1_555
C11 N2 1_555 1_555
C12 N1 1_555 1_555
C13 C14 1_555 1_555
C14 H9 1_555 1_555
H10 C14 1_555 1_555
C15 C14 1_555 1_555
H11 C15 1_555 1_555
H12 C15 1_555 1_555
C16 C15 1_555 1_555
H13 C16 1_555 1_555
H14 C16 1_555 1_555
C17 C16 1_555 1_555
C18 O5 1_555 1_555
C19 C18 1_555 1_555
H15 C19 1_555 1_555
H16 C19 1_555 1_555
C20 C19 1_555 1_555
H17 C20 1_555 1_555
H18 C20 1_555 1_555
C21 C20 1_555 1_555
H19 C21 1_555 1_555
H20 C21 1_555 1_555
C22 O8 1_555 1_555
C23 O9 1_555 1_555
C24 C23 1_555 1_555
H21 C24 1_555 1_555
H22 C24 1_555 1_555
C25 C24 1_555 1_555
H23 C25 1_555 1_555
H24 C25 1_555 1_555
C26 C25 1_555 1_555
H25 C26 1_555 1_555
H26 C26 1_555 1_555
C27 C26 1_555 1_555
C28 N4 1_555 1_555
H27 C28 1_555 1_555
C29 C28 1_555 1_555
H28 C29 1_555 1_555
C30 C29 1_555 1_555
H29 C30 1_555 1_555
C31 C30 1_555 1_555
C32 C31 1_555 1_555
H30 C32 1_555 1_555
C33 C32 1_555 1_555
H31 C33 1_555 1_555
C34 C33 1_555 1_555
C35 C34 1_555 1_555
H32 C35 1_555 1_555
C36 C35 1_555 1_555
H33 C36 1_555 1_555
C37 N3 1_555 1_555
H34 C37 1_555 1_555
C38 N3 1_555 1_555
C39 N4 1_555 1_555
O2A Nd1 1_555 1_555
Nd1A O2 1_555 1_555
O5A Nd1 1_555 1_555
O10A Nd2 1_555 1_555
Nd2A O10 1_555 1_555
O11A Nd2 1_555 1_555
Nd2A_2 O11 1_555 1_555
Nd2_2 O11 1_555 1_555
Nd1_2 O3 1_555 1_555
O3_2 Nd1 1_555 1_555
O4_2 Nd1 1_555 1_555
O11_2 Nd2 1_555 1_555
O12A Nd2 1_555 1_555
O4 Nd1_2 1_555 1_555
O5 Nd1A 1_555 1_555
O6 C18 1_555 1_555
O12 Nd2A_2 1_555 1_555
C4 C12 1_555 1_555
C7 C11 1_555 1_555
C9 C10 1_555 1_555
C11 C12 1_555 1_555
C21 C22 1_555 1_555
C31 C39 1_555 1_555
C34 C38 1_555 1_555
C36 C37 1_555 1_555
C38 C39 1_555 1_555
Nd1A O5A 1_555 1_555
Nd2A O11A 1_555 1_555
Nd2A O11_2 1_555 1_555

#END
