
#######################################################################
#
#                 Cambridge Crystallographic Data Centre
#                                CCDC 
#
#######################################################################
#
# If this CIF has been generated from an entry in the Cambridge 
# Structural Database, then it will include bibliographic, chemical, 
# crystal, experimental, refinement or atomic coordinate data resulting 
# from the CCDC's data processing and validation procedures.
#
#######################################################################

data_QAFMUH
_symmetry_cell_setting           monoclinic
_symmetry_space_group_name_H-M   'P 21/n'
_symmetry_Int_Tables_number      14
_space_group_name_Hall           '-P 2yn'
loop_
_symmetry_equiv_pos_site_id
_symmetry_equiv_pos_as_xyz
1 x,y,z
2 1/2-x,1/2+y,1/2-z
3 -x,-y,-z
4 1/2+x,1/2-y,1/2+z
_cell_length_a                   6.5059(4)
_cell_length_b                   23.6916(14)
_cell_length_c                   10.5154(7)
_cell_angle_alpha                90
_cell_angle_beta                 91.9243(17)
_cell_angle_gamma                90
_cell_volume                     1619.88
loop_
_atom_site_label
_atom_site_type_symbol
_atom_site_fract_x
_atom_site_fract_y
_atom_site_fract_z
Ag1 Ag 0.31517(8) 0.74188(2) 0.75326(5)
O1 O 0.1525(15) 0.6484(3) 0.8015(9)
O2 O 0.3429(15) 0.6608(4) 0.9701(14)
O3 O 0.1796(13) 0.3554(3) 0.9045(8)
N1 N 0.6301(8) 0.7834(2) 0.8364(5)
N2 N 1.0093(8) 0.7836(2) 0.8366(5)
N3 N 0.8280(8) 0.7898(2) 1.0380(5)
N4 N 0.8228(9) 0.8694(2) 0.8896(6)
C1 C 0.249(2) 0.6306(4) 0.8917(11)
C2 C 0.2411(14) 0.5677(4) 0.9162(10)
C3 C 0.2128(16) 0.5306(4) 0.8128(11)
H5 H 0.1964 0.5446 0.7305
C4 C 0.2096(15) 0.4724(4) 0.8345(9)
H6 H 0.1935 0.4476 0.7662
C5 C 0.2300(13) 0.4516(4) 0.9552(9)
C6 C 0.2631(15) 0.4883(4) 1.0588(10)
H7 H 0.2781 0.4735 1.1405
C7 C 0.2740(15) 0.5479(4) 1.0409(9)
H8 H 0.3016 0.5724 1.1085
C8 C 0.2261(16) 0.3915(4) 0.9825(9)
H9 H 0.2615 0.3799 1.0649
C9 C 0.8187(10) 0.7610(3) 0.7761(6)
H10 H 0.8198 0.7201 0.7825
H11 H 0.8144 0.7708 0.6865
C10 C 0.6423(10) 0.7678(3) 0.9726(6)
H12 H 0.5222 0.7824 1.0139
H13 H 0.6406 0.7270 0.9801
C11 C 0.6381(10) 0.8464(3) 0.8278(7)
H14 H 0.6332 0.8576 0.7390
H15 H 0.5183 0.8622 0.8673
C12 C 1.0104(10) 0.7674(3) 0.9732(6)
H16 H 1.0122 0.7266 0.9802
H17 H 1.1344 0.7818 1.0155
C13 C 1.0040(11) 0.8459(3) 0.8285(7)
H18 H 1.1277 0.8612 0.8694
H19 H 1.0018 0.8572 0.7398
C14 C 0.8311(11) 0.8525(3) 1.0243(6)
H20 H 0.7145 0.8685 1.0666
H21 H 0.9556 0.8673 1.0652
Ag1_2 Ag 1.31517(8) 0.74188(2) 0.75326(5)
Ag1C Ag 0.81517(8) 0.75812(2) 1.25326(5)
N2_2 N 0.0093(8) 0.7836(2) 0.8366(5)
N3C N 0.3280(8) 0.7102(2) 0.5380(5)
O4 O -0.1745(16) 0.6169(5) 0.6475(11)
H1 H -0.0687 0.6231 0.6950
H2 H -0.1750 0.5823 0.6260
O5 O -0.212(4) 0.4977(10) 0.556(2)
H3 H -0.2467 0.4683 0.5967
H4 H -0.2928 0.5032 0.4920
O6? O -0.390(4) 0.4912(10) 0.591(2)
loop_
_geom_bond_atom_site_label_1
_geom_bond_atom_site_label_2
_geom_bond_site_symmetry_1
_geom_bond_site_symmetry_2
Ag1 O1 1_555 1_555
O1 C1 1_555 1_555
O2 C1 1_555 1_555
O3 C8 1_555 1_555
O4 H1 1_555 1_555
H2 O4 1_555 1_555
O5 H3 1_555 1_555
H4 O5 1_555 1_555
N1 Ag1 1_555 1_555
N2 C9 1_555 1_555
N3 C10 1_555 1_555
N4 C11 1_555 1_555
C1 C2 1_555 1_555
C2 C3 1_555 1_555
C3 H5 1_555 1_555
C4 C3 1_555 1_555
H6 C4 1_555 1_555
C5 C4 1_555 1_555
C6 C5 1_555 1_555
H7 C6 1_555 1_555
C7 C2 1_555 1_555
H8 C7 1_555 1_555
C8 C5 1_555 1_555
H9 C8 1_555 1_555
C9 N1 1_555 1_555
H10 C9 1_555 1_555
H11 C9 1_555 1_555
C10 N1 1_555 1_555
H12 C10 1_555 1_555
H13 C10 1_555 1_555
C11 N1 1_555 1_555
H14 C11 1_555 1_555
H15 C11 1_555 1_555
C12 N2 1_555 1_555
H16 C12 1_555 1_555
H17 C12 1_555 1_555
C13 N2 1_555 1_555
H18 C13 1_555 1_555
H19 C13 1_555 1_555
C14 N3 1_555 1_555
H20 C14 1_555 1_555
H21 C14 1_555 1_555
Ag1_2 N2 1_555 1_555
Ag1C N3 1_555 1_555
N2_2 Ag1 1_555 1_555
N3C Ag1 1_555 1_555
N3 C12 1_555 1_555
N4 C13 1_555 1_555
N4 C14 1_555 1_555
C6 C7 1_555 1_555

#END
