
#######################################################################
#
#                 Cambridge Crystallographic Data Centre
#                                CCDC 
#
#######################################################################
#
# If this CIF has been generated from an entry in the Cambridge 
# Structural Database, then it will include bibliographic, chemical, 
# crystal, experimental, refinement or atomic coordinate data resulting 
# from the CCDC's data processing and validation procedures.
#
#######################################################################

data_QAFMAM
_symmetry_cell_setting           orthorhombic
_symmetry_space_group_name_H-M   'P n m a'
_symmetry_Int_Tables_number      62
_space_group_name_Hall           '-P 2ac 2n'
loop_
_symmetry_equiv_pos_site_id
_symmetry_equiv_pos_as_xyz
1 x,y,z
2 1/2-x,1/2+y,1/2+z
3 x,1/2-y,z
4 1/2+x,y,1/2-z
5 -x,-y,-z
6 1/2+x,1/2-y,1/2-z
7 -x,1/2+y,-z
8 1/2-x,-y,1/2+z
_cell_length_a                   13.123(1)
_cell_length_b                   20.151(2)
_cell_length_c                   5.588(3)
_cell_angle_alpha                90
_cell_angle_beta                 90
_cell_angle_gamma                90
_cell_volume                     1477.7
loop_
_atom_site_label
_atom_site_type_symbol
_atom_site_fract_x
_atom_site_fract_y
_atom_site_fract_z
Ag1 Ag 0.22524(5) 0.2500 0.72374(9)
Cl1 Cl 0.0757(1) 0.2500 0.2544(3)
O1 O 0.1814(5) 0.2500 0.3239(10)
O2 O 0.0716(4) 0.2500 -0.0011(8)
O3 O 0.0337(6) 0.3080(4) 0.340(1)
C1 C 0.2159(4) 0.1191(2) 0.8755(8)
C2 C 0.3073(4) 0.1522(2) 0.8909(8)
C3 C 0.3764(4) 0.1497(2) 0.7070(9)
C4 C 0.3543(4) 0.1114(2) 0.5080(9)
C5 C 0.2634(4) 0.0770(2) 0.4940(8)
C6 C 0.1920(4) 0.0808(2) 0.6762(9)
C7 C 0.0918(4) 0.0476(2) 0.675(1)
C8 C 0.0504(4) 0.0153(3) 0.4967(10)
H1 H 0.171(6) 0.119(3) 0.99(1)
H2 H 0.325(5) 0.174(3) 1.03(1)
H3 H 0.437(6) 0.171(3) 0.71(1)
H4 H 0.402(5) 0.112(3) 0.39(1)
H5 H 0.242(5) 0.049(3) 0.35(1)
H6 H 0.054(5) 0.050(3) 0.84(1)
H7 H 0.100(6) 0.013(3) 0.35(1)
O3B O 0.0337(6) 0.1920(4) 0.340(1)
C8D C -0.0504(4) -0.0153(3) 0.5033(10)
C7D C -0.0918(4) -0.0476(2) 0.325(1)
C6D C -0.1920(4) -0.0808(2) 0.3238(9)
C1D C -0.2159(4) -0.1191(2) 0.1245(8)
C2D C -0.3073(4) -0.1522(2) 0.1091(8)
C3D C -0.3764(4) -0.1497(2) 0.2930(9)
C4D C -0.3543(4) -0.1114(2) 0.4920(9)
C5D C -0.2634(4) -0.0770(2) 0.5060(8)
H5D H -0.242(5) -0.049(3) 0.65(1)
H4D H -0.402(5) -0.112(3) 0.61(1)
H3D H -0.437(6) -0.171(3) 0.29(1)
H2D H -0.325(5) -0.174(3) -0.03(1)
H1D H -0.171(6) -0.119(3) 0.01(1)
H6D H -0.054(5) -0.050(3) 0.16(1)
H7D H -0.100(6) -0.013(3) 0.65(1)
O2_2 O 0.0716(4) 0.2500 0.9989(8)
C2B C 0.3073(4) 0.3478(2) 0.8909(8)
Ag1_2 Ag 0.22524(5) 0.2500 -0.27626(9)
Ag1D Ag -0.22524(5) -0.2500 0.27626(9)
H2B H 0.325(5) 0.326(3) 1.03(1)
loop_
_geom_bond_atom_site_label_1
_geom_bond_atom_site_label_2
_geom_bond_site_symmetry_1
_geom_bond_site_symmetry_2
Ag1 O1 1_555 1_555
Cl1 O1 1_555 1_555
O2 Cl1 1_555 1_555
O3 Cl1 1_555 1_555
C1 C2 1_555 1_555
C2 Ag1 1_555 1_555
C3 C2 1_555 1_555
C4 C3 1_555 1_555
C5 C4 1_555 1_555
C6 C1 1_555 1_555
C7 C6 1_555 1_555
C8 C7 1_555 1_555
H1 C1 1_555 1_555
H2 C2 1_555 1_555
H3 C3 1_555 1_555
H4 C4 1_555 1_555
H5 C5 1_555 1_555
H6 C7 1_555 1_555
H7 C8 1_555 1_555
O3B Cl1 1_555 1_555
C8D C8 1_555 1_555
C7D C8D 1_555 1_555
C6D C7D 1_555 1_555
C1D C6D 1_555 1_555
C2D C1D 1_555 1_555
C3D C2D 1_555 1_555
C4D C3D 1_555 1_555
C5D C6D 1_555 1_555
H5D C5D 1_555 1_555
H4D C4D 1_555 1_555
H3D C3D 1_555 1_555
H2D C2D 1_555 1_555
H1D C1D 1_555 1_555
H6D C7D 1_555 1_555
H7D C8D 1_555 1_555
O2_2 Ag1 1_555 1_555
C2B Ag1 1_555 1_555
Ag1_2 O2 1_555 1_555
Ag1D C2D 1_555 1_555
H2B C2B 1_555 1_555
C5 C6 1_555 1_555
C4D C5D 1_555 1_555

#END
