
#######################################################################
#
#                 Cambridge Crystallographic Data Centre
#                                CCDC 
#
#######################################################################
#
# If this CIF has been generated from an entry in the Cambridge 
# Structural Database, then it will include bibliographic, chemical, 
# crystal, experimental, refinement or atomic coordinate data resulting 
# from the CCDC's data processing and validation procedures.
#
#######################################################################

data_QAFNOC
_symmetry_cell_setting           triclinic
_symmetry_space_group_name_H-M   'P -1'
_symmetry_Int_Tables_number      2
_space_group_name_Hall           '-P 1'
loop_
_symmetry_equiv_pos_site_id
_symmetry_equiv_pos_as_xyz
1 x,y,z
2 -x,-y,-z
_cell_length_a                   8.4092(1)
_cell_length_b                   14.2814(2)
_cell_length_c                   15.7252(2)
_cell_angle_alpha                74.150(1)
_cell_angle_beta                 77.635(1)
_cell_angle_gamma                73.832(1)
_cell_volume                     1725.27
loop_
_atom_site_label
_atom_site_type_symbol
_atom_site_fract_x
_atom_site_fract_y
_atom_site_fract_z
Er1 Er 0.79511(4) 0.40505(2) 0.07491(2)
Cu1 Cu 0.10610(14) 0.91180(8) 0.51373(7)
I1 I -0.00409(8) 1.00334(4) 0.64441(4)
C1 C 0.7215(10) 0.2489(6) 0.0348(6)
C2 C 0.6961(13) 0.1766(6) -0.0108(7)
C3 C 0.5804(14) 0.2020(7) -0.0648(8)
H1 H 0.5122 0.2664 -0.0731
C4 C 0.7868(15) 0.0793(8) 0.0084(8)
H2 H 0.8616 0.0596 0.0493
C5 C 0.5589(13) 0.1370(6) -0.1079(7)
H3 H 0.4771 0.1580 -0.1450
C6 C 0.7659(14) 0.0096(7) -0.0338(8)
H4 H 0.8246 -0.0568 -0.0198
C7 C 0.6560(12) 0.0407(6) -0.0976(6)
C8 C 0.6308(12) -0.0329(6) -0.1419(6)
C9 C 0.4908(14) -0.0171(6) -0.1817(6)
H5 H 0.4092 0.0424 -0.1832
C10 C 0.7489(11) -0.1225(6) -0.1442(6)
H6 H 0.8464 -0.1343 -0.1201
C11 C 0.4727(13) -0.0892(7) -0.2188(7)
H7 H 0.3792 -0.0784 -0.2459
N1 N 0.7274(11) -0.1930(5) -0.1803(5)
C12 C 0.5464(10) 0.4320(6) 0.2182(5)
C13 C 0.4319(11) 0.4645(6) 0.2951(5)
C14 C 0.3019(10) 0.5501(6) 0.2797(6)
H8 H 0.2762 0.5787 0.2221
C15 C 0.4569(12) 0.4184(6) 0.3830(6)
H9 H 0.5382 0.3591 0.3948
C16 C 0.2121(11) 0.5921(6) 0.3498(6)
H10 H 0.1282 0.6501 0.3385
C17 C 0.3628(11) 0.4595(6) 0.4522(6)
H11 H 0.3788 0.4265 0.5106
C18 C 0.2431(10) 0.5502(6) 0.4366(5)
C19 C 0.1590(10) 0.6039(6) 0.5090(5)
C20 C 0.1081(12) 0.5561(6) 0.5966(6)
H12 H 0.1194 0.4871 0.6123
C21 C 0.1440(10) 0.7069(6) 0.4906(5)
H13 H 0.1789 0.7392 0.4324
C22 C 0.0406(12) 0.6130(7) 0.6591(6)
H14 H 0.0022 0.5830 0.7175
N2 N 0.0826(9) 0.7614(5) 0.5516(5)
C23 C 1.0891(10) 0.3931(6) -0.1050(5)
C24 C 1.1664(9) 0.3373(5) -0.1778(5)
C25 C 1.0930(9) 0.2704(6) -0.1946(5)
H15 H 0.9945 0.2582 -0.1585
C26 C 1.3125(10) 0.3542(6) -0.2305(5)
H16 H 1.3649 0.3982 -0.2195
C27 C 1.1590(10) 0.2212(6) -0.2624(6)
H17 H 1.1069 0.1759 -0.2715
C28 C 1.3831(10) 0.3063(6) -0.3001(5)
H18 H 1.4825 0.3183 -0.3354
C29 C 1.3054(9) 0.2400(5) -0.3176(5)
C30 C 1.3803(10) 0.1914(6) -0.3932(5)
C31 C 1.2875(11) 0.1841(7) -0.4528(6)
H19 H 1.1715 0.2061 -0.4435
C32 C 1.5523(10) 0.1545(6) -0.4126(6)
H20 H 1.6175 0.1555 -0.3721
C33 C 1.3647(12) 0.1449(7) -0.5254(7)
H21 H 1.3013 0.1383 -0.5643
N3 N 1.6339(10) 0.1173(6) -0.4846(5)
C34 C 0.5935(11) -0.1780(6) -0.2158(6)
H22 H 0.5788 -0.2276 -0.2394
C35 C 0.0303(12) 0.7143(7) 0.6351(6)
H23 H -0.0147 0.7517 0.6783
C36 C 1.5369(12) 0.1151(7) -0.5407(6)
H24 H 1.5877 0.0925 -0.5924
O1 O 0.8362(8) 0.2299(4) 0.0804(5)
O2 O 0.6238(7) 0.3369(4) 0.0233(4)
O3 O 0.6870(6) 0.5414(4) -0.0407(4)
O4 O 0.5207(7) 0.4797(5) 0.1399(4)
O5 O 0.6768(8) 0.3610(5) 0.2290(4)
O6 O 1.0512(6) 0.3600(4) 0.1242(4)
O7 O 0.9542(8) 0.3779(5) -0.0586(4)
O8 O 1.1638(6) 0.4522(4) -0.0935(4)
H25 H 0.6655 0.5165 -0.0767
H26 H 0.5879 0.5656 -0.0250
H27 H 1.1224 0.3077 0.1359
H28 H 1.1292 0.3878 0.1057
Er1A Er 1.20489(4) 0.59495(2) -0.07491(2)
Cu1A Cu -0.10610(14) 1.08820(8) 0.48627(7)
Cu1A_2 Cu 1.89390(14) 0.08820(8) -0.51373(7)
I1A I 0.00409(8) 0.99666(4) 0.35559(4)
N3A N 0.3661(10) 0.8827(6) 0.4846(5)
O8A O 0.8362(6) 0.5478(4) 0.0935(4)
loop_
_geom_bond_atom_site_label_1
_geom_bond_atom_site_label_2
_geom_bond_site_symmetry_1
_geom_bond_site_symmetry_2
Er1 O1 1_555 1_555
Cu1 I1 1_555 1_555
I1 Cu1A 1_555 1_555
C1 C2 1_555 1_555
C2 C3 1_555 1_555
C3 H1 1_555 1_555
C4 C2 1_555 1_555
H2 C4 1_555 1_555
C5 C3 1_555 1_555
H3 C5 1_555 1_555
C6 C4 1_555 1_555
H4 C6 1_555 1_555
C7 C5 1_555 1_555
C8 C7 1_555 1_555
C9 C8 1_555 1_555
H5 C9 1_555 1_555
C10 C8 1_555 1_555
H6 C10 1_555 1_555
C11 C9 1_555 1_555
H7 C11 1_555 1_555
N1 C10 1_555 1_555
C12 C13 1_555 1_555
C13 C14 1_555 1_555
C14 H8 1_555 1_555
C15 C13 1_555 1_555
H9 C15 1_555 1_555
C16 C14 1_555 1_555
H10 C16 1_555 1_555
C17 C15 1_555 1_555
H11 C17 1_555 1_555
C18 C16 1_555 1_555
C19 C18 1_555 1_555
C20 C19 1_555 1_555
H12 C20 1_555 1_555
C21 C19 1_555 1_555
H13 C21 1_555 1_555
C22 C20 1_555 1_555
H14 C22 1_555 1_555
N2 Cu1 1_555 1_555
C23 C24 1_555 1_555
C24 C25 1_555 1_555
C25 H15 1_555 1_555
C26 C24 1_555 1_555
H16 C26 1_555 1_555
C27 C25 1_555 1_555
H17 C27 1_555 1_555
C28 C26 1_555 1_555
H18 C28 1_555 1_555
C29 C27 1_555 1_555
C30 C29 1_555 1_555
C31 C30 1_555 1_555
H19 C31 1_555 1_555
C32 C30 1_555 1_555
H20 C32 1_555 1_555
C33 C31 1_555 1_555
H21 C33 1_555 1_555
N3 C32 1_555 1_555
C34 C11 1_555 1_555
H22 C34 1_555 1_555
C35 C22 1_555 1_555
H23 C35 1_555 1_555
C36 C33 1_555 1_555
H24 C36 1_555 1_555
O1 C1 1_555 1_555
O2 Er1 1_555 1_555
O3 Er1 1_555 1_555
O4 Er1 1_555 1_555
O5 Er1 1_555 1_555
O6 Er1 1_555 1_555
O7 Er1 1_555 1_555
O8 C23 1_555 1_555
H25 O3 1_555 1_555
H26 O3 1_555 1_555
H27 O6 1_555 1_555
H28 O6 1_555 1_555
Er1A O8 1_555 1_555
Cu1A I1A 1_555 1_555
Cu1A_2 N3 1_555 1_555
I1A Cu1 1_555 1_555
N3A Cu1 1_555 1_555
O8A Er1 1_555 1_555
C1 O2 1_555 1_555
C6 C7 1_555 1_555
N1 C34 1_555 1_555
C12 O4 1_555 1_555
C12 O5 1_555 1_555
C17 C18 1_555 1_555
C21 N2 1_555 1_555
N2 C35 1_555 1_555
C23 O7 1_555 1_555
C28 C29 1_555 1_555
N3 C36 1_555 1_555

#END
