
#######################################################################
#
#                 Cambridge Crystallographic Data Centre
#                                CCDC 
#
#######################################################################
#
# If this CIF has been generated from an entry in the Cambridge 
# Structural Database, then it will include bibliographic, chemical, 
# crystal, experimental, refinement or atomic coordinate data resulting 
# from the CCDC's data processing and validation procedures.
#
#######################################################################

data_QAFNES
_symmetry_cell_setting           triclinic
_symmetry_space_group_name_H-M   'P -1'
_symmetry_Int_Tables_number      2
_space_group_name_Hall           '-P 1'
loop_
_symmetry_equiv_pos_site_id
_symmetry_equiv_pos_as_xyz
1 x,y,z
2 -x,-y,-z
_cell_length_a                   6.8270(11)
_cell_length_b                   7.3529(12)
_cell_length_c                   11.7762(19)
_cell_angle_alpha                106.454(3)
_cell_angle_beta                 91.022(3)
_cell_angle_gamma                95.203(3)
_cell_volume                     564.013
loop_
_atom_site_label
_atom_site_type_symbol
_atom_site_fract_x
_atom_site_fract_y
_atom_site_fract_z
Co1 Co 0.0000 0.0000 0.0000
N1 N 0.1930(4) -0.1672(4) 0.0587(2)
N2 N 0.3400(4) -0.4198(4) 0.1182(3)
N3 N 0.2089(4) -0.7560(4) 0.0575(2)
N4 N 0.1310(4) -0.0743(3) -0.1703(2)
N5 N 0.2992(5) -0.2947(6) -0.6025(3)
H1 H 0.1755(17) -0.292(5) -0.600(3)
H2 H 0.361(5) -0.326(5) -0.666(2)
O1 O 0.5886(4) -0.2300(6) -0.5004(2)
C1 C 0.2562(4) -0.2919(4) 0.0825(2)
C2 C 0.2652(4) -0.5977(4) 0.0820(2)
C3 C 0.0237(5) -0.1393(6) -0.2711(3)
H3 H -0.1127 -0.1488 -0.2674
C4 C 0.1027(5) -0.1935(6) -0.3808(3)
H4 H 0.0209 -0.2391 -0.4489
C5 C 0.3038(5) -0.1797(5) -0.3889(3)
C6 C 0.4157(5) -0.1121(6) -0.2852(3)
H5 H 0.5524 -0.1007 -0.2867
C7 C 0.3253(5) -0.0610(5) -0.1786(3)
H6 H 0.4040 -0.0151 -0.1092
C8 C 0.4080(6) -0.2382(6) -0.5035(3)
Co1_2 Co 0.0000 -1.0000 0.0000
Co1_3 Co 0.0000 1.0000 0.0000
N1_2 N 0.1930(4) 0.8328(4) 0.0587(2)
N1A N -0.1930(4) 0.1672(4) -0.0587(2)
N2_2 N 0.3400(4) 0.5802(4) 0.1182(3)
N3_2 N 0.2089(4) 0.2440(4) 0.0575(2)
N3A N -0.2089(4) -0.2440(4) -0.0575(2)
N4A N -0.1310(4) 0.0743(3) 0.1703(2)
N5A N -0.2992(5) 0.2947(6) 0.6025(3)
H1A H -0.1755(17) 0.292(5) 0.600(3)
H2A H -0.361(5) 0.326(5) 0.666(2)
O1A O -0.5886(4) 0.2300(6) 0.5004(2)
C1_2 C 0.2562(4) 0.7081(4) 0.0825(2)
C2_2 C 0.2652(4) 0.4023(4) 0.0820(2)
C3A C -0.0237(5) 0.1393(6) 0.2711(3)
H3A H 0.1127 0.1488 0.2674
C4A C -0.1027(5) 0.1935(6) 0.3808(3)
H4A H -0.0209 0.2391 0.4489
C5A C -0.3038(5) 0.1797(5) 0.3889(3)
C6A C -0.4157(5) 0.1121(6) 0.2852(3)
H5A H -0.5524 0.1007 0.2867
C7A C -0.3253(5) 0.0610(5) 0.1786(3)
H6A H -0.4040 0.0151 0.1092
C8A C -0.4080(6) 0.2382(6) 0.5035(3)
O2 O 0.8818(4) -0.3231(6) -0.6504(3)
H7 H 0.786(5) -0.296(7) -0.606(4)
C9 C 0.8172(6) -0.4041(6) -0.7651(3)
H8 H 0.7820 -0.3068 -0.7993
H9 H 0.7042 -0.4934 -0.7681
H10 H 0.9199 -0.4694 -0.8090
loop_
_geom_bond_atom_site_label_1
_geom_bond_atom_site_label_2
_geom_bond_site_symmetry_1
_geom_bond_site_symmetry_2
Co1 N1 1_555 1_555
N1 C1 1_555 1_555
N2 C1 1_555 1_555
N3 C2 1_555 1_555
N4 Co1 1_555 1_555
N5 H1 1_555 1_555
H2 N5 1_555 1_555
O1 C8 1_555 1_555
C2 N2 1_555 1_555
C3 N4 1_555 1_555
H3 C3 1_555 1_555
C4 C3 1_555 1_555
H4 C4 1_555 1_555
C5 C4 1_555 1_555
C6 C5 1_555 1_555
H5 C6 1_555 1_555
C7 N4 1_555 1_555
H6 C7 1_555 1_555
C8 N5 1_555 1_555
O2 H7 1_555 1_555
C9 O2 1_555 1_555
H8 C9 1_555 1_555
H9 C9 1_555 1_555
H10 C9 1_555 1_555
Co1_2 N3 1_555 1_555
Co1_3 N1_2 1_555 1_555
N1_2 C1_2 1_555 1_555
N1A Co1 1_555 1_555
N2_2 C1_2 1_555 1_555
N3_2 Co1 1_555 1_555
N3A Co1 1_555 1_555
N4A Co1 1_555 1_555
N5A H1A 1_555 1_555
H2A N5A 1_555 1_555
O1A C8A 1_555 1_555
C2_2 N2_2 1_555 1_555
C3A N4A 1_555 1_555
H3A C3A 1_555 1_555
C4A C3A 1_555 1_555
H4A C4A 1_555 1_555
C5A C4A 1_555 1_555
C6A C5A 1_555 1_555
H5A C6A 1_555 1_555
C7A N4A 1_555 1_555
H6A C7A 1_555 1_555
C8A N5A 1_555 1_555
C5 C8 1_555 1_555
C6 C7 1_555 1_555
N3_2 C2_2 1_555 1_555
C5A C8A 1_555 1_555
C6A C7A 1_555 1_555

#END
