
#######################################################################
#
#                 Cambridge Crystallographic Data Centre
#                                CCDC 
#
#######################################################################
#
# If this CIF has been generated from an entry in the Cambridge 
# Structural Database, then it will include bibliographic, chemical, 
# crystal, experimental, refinement or atomic coordinate data resulting 
# from the CCDC's data processing and validation procedures.
#
#######################################################################

data_QAFNUI
_symmetry_cell_setting           monoclinic
_symmetry_space_group_name_H-M   'C 2/c'
_symmetry_Int_Tables_number      15
_space_group_name_Hall           '-C 2yn'
loop_
_symmetry_equiv_pos_site_id
_symmetry_equiv_pos_as_xyz
1 x,y,z
2 -x,y,1/2-z
3 1/2+x,1/2+y,z
4 1/2-x,1/2+y,1/2-z
5 -x,-y,-z
6 x,-y,1/2+z
7 1/2-x,1/2-y,-z
8 1/2+x,1/2-y,1/2+z
_cell_length_a                   21.292(4)
_cell_length_b                   11.112(2)
_cell_length_c                   20.494(4)
_cell_angle_alpha                90
_cell_angle_beta                 105.02(3)
_cell_angle_gamma                90
_cell_volume                     4683.16
loop_
_atom_site_label
_atom_site_type_symbol
_atom_site_fract_x
_atom_site_fract_y
_atom_site_fract_z
C1 C 0.5775(4) 0.4657(8) 0.1479(4)
H1 H 0.5919 0.4066 0.1804
C2 C 0.5273(4) 0.5439(9) 0.1545(5)
H2 H 0.5094 0.5362 0.1911
C3 C 0.5053(4) 0.6310(9) 0.1072(5)
H3 H 0.4724 0.6834 0.1111
C4 C 0.5330(4) 0.6396(7) 0.0528(4)
C5 C 0.5133(4) 0.7256(7) -0.0032(5)
C6 C 0.4705(4) 0.8705(7) -0.0723(6)
C7 C 0.4284(4) 0.9763(8) -0.0997(7)
C8 C 0.3807(5) 1.0168(10) -0.0712(7)
H4 H 0.3731 0.9794 -0.0334
C9 C 0.3432(7) 1.1185(12) -0.1016(9)
H5 H 0.3107 1.1486 -0.0832
C10 C 0.3545(8) 1.1709(12) -0.1567(9)
H6 H 0.3292 1.2366 -0.1756
C11 C 0.4014(7) 1.1323(12) -0.1862(8)
H7 H 0.4079 1.1680 -0.2250
C12 C 0.4390(7) 1.0356(10) -0.1544(7)
H8 H 0.4732 1.0100 -0.1713
C13 C 0.5402(4) 0.7294(7) -0.0564(5)
C14 C 0.5898(4) 0.6453(8) -0.0619(5)
C15 C 0.6171(5) 0.6393(8) -0.1183(5)
H9 H 0.6030 0.6913 -0.1547
C16 C 0.6639(5) 0.5568(9) -0.1181(5)
H10 H 0.6823 0.5517 -0.1545
C17 C 0.6846(5) 0.4788(9) -0.0627(5)
H11 H 0.7173 0.4234 -0.0630
C18 C 0.6123(4) 0.5627(6) -0.0083(4)
C19 C 0.5831(4) 0.5583(6) 0.0489(4)
C20 C 0.7829(5) 0.6836(7) 0.2876(5)
C21 C 0.7970(4) 0.6076(7) 0.2312(4)
C22 C 0.8560(5) 0.6191(7) 0.2164(4)
C23 C 0.8709(5) 0.5473(8) 0.1670(5)
H12 H 0.9105 0.5556 0.1561
C24 C 0.8263(4) 0.4640(7) 0.1347(4)
C25 C 0.7539(4) 0.5238(7) 0.1962(4)
H13 H 0.7145 0.5132 0.2071
C26 C 0.8416(4) 0.3779(7) 0.0834(4)
N1 N 0.6049(3) 0.4740(6) 0.0962(3)
N2 N 0.6596(3) 0.4813(6) -0.0101(3)
N3 N 0.4691(4) 0.8172(6) -0.0118(6)
H14 H 0.4455 0.8373 0.0148
N4 N 0.5109(3) 0.8195(6) -0.1011(5)
N5 N 0.7667(3) 0.4558(5) 0.1463(3)
O1 O 0.8206(4) 0.7732(6) 0.3055(3)
O2 O 0.7398(4) 0.6524(6) 0.3127(3)
O3 O 0.8981(3) 0.3731(8) 0.0801(5)
O4 O 0.7944(4) 0.3194(5) 0.0472(4)
Pb1 Pb 0.690518(14) 0.30836(2) 0.078498(13)
H16 H 0.874(3) 0.675(3) 0.242(2)
O1C O 0.6794(4) 0.2732(6) 0.1945(3)
Pb1C Pb 0.809482(14) 0.80836(2) 0.421502(13)
O5 O 0.5000 0.7257(14) -0.2500
H15 H 0.4737 0.7460 -0.2257
H15A H 0.5263 0.7460 -0.2743
loop_
_geom_bond_atom_site_label_1
_geom_bond_atom_site_label_2
_geom_bond_site_symmetry_1
_geom_bond_site_symmetry_2
C1 H1 1_555 1_555
C2 C1 1_555 1_555
H2 C2 1_555 1_555
C3 C2 1_555 1_555
H3 C3 1_555 1_555
C4 C3 1_555 1_555
C5 C4 1_555 1_555
C6 C7 1_555 1_555
C7 C8 1_555 1_555
C8 H4 1_555 1_555
C9 C8 1_555 1_555
H5 C9 1_555 1_555
C10 C9 1_555 1_555
H6 C10 1_555 1_555
C11 C10 1_555 1_555
H7 C11 1_555 1_555
C12 C7 1_555 1_555
H8 C12 1_555 1_555
C13 C5 1_555 1_555
C14 C13 1_555 1_555
C15 C14 1_555 1_555
H9 C15 1_555 1_555
C16 C15 1_555 1_555
H10 C16 1_555 1_555
C17 C16 1_555 1_555
H11 C17 1_555 1_555
C18 C14 1_555 1_555
C19 C4 1_555 1_555
C20 C21 1_555 1_555
C21 C22 1_555 1_555
C22 C23 1_555 1_555
C23 H12 1_555 1_555
C24 C23 1_555 1_555
C25 C21 1_555 1_555
H13 C25 1_555 1_555
C26 C24 1_555 1_555
N1 C1 1_555 1_555
N2 C17 1_555 1_555
N3 C5 1_555 1_555
H14 N3 1_555 1_555
N4 C6 1_555 1_555
N5 C24 1_555 1_555
O1 C20 1_555 1_555
O2 C20 1_555 1_555
O3 C26 1_555 1_555
O4 C26 1_555 1_555
Pb1 N1 1_555 1_555
O5 H15 1_555 1_555
H16 C22 1_555 1_555
O1C Pb1 1_555 1_555
Pb1C O1 1_555 1_555
H15A O5 1_555 1_555
C6 N3 1_555 1_555
C11 C12 1_555 1_555
C13 N4 1_555 1_555
C18 C19 1_555 1_555
C18 N2 1_555 1_555
C19 N1 1_555 1_555
C25 N5 1_555 1_555
N2 Pb1 1_555 1_555
N5 Pb1 1_555 1_555
O4 Pb1 1_555 1_555

#END
