
#######################################################################
#
#                 Cambridge Crystallographic Data Centre
#                                CCDC 
#
#######################################################################
#
# If this CIF has been generated from an entry in the Cambridge 
# Structural Database, then it will include bibliographic, chemical, 
# crystal, experimental, refinement or atomic coordinate data resulting 
# from the CCDC's data processing and validation procedures.
#
#######################################################################

data_QAFNAO01
_symmetry_cell_setting           monoclinic
_symmetry_space_group_name_H-M   'P 21/c'
_symmetry_Int_Tables_number      14
_space_group_name_Hall           '-P 2ybc'
loop_
_symmetry_equiv_pos_site_id
_symmetry_equiv_pos_as_xyz
1 x,y,z
2 -x,1/2+y,1/2-z
3 -x,-y,-z
4 x,1/2-y,1/2+z
_cell_length_a                   10.5987(16)
_cell_length_b                   9.3625(14)
_cell_length_c                   10.4246(15)
_cell_angle_alpha                90
_cell_angle_beta                 118.314(2)
_cell_angle_gamma                90
_cell_volume                     910.678
loop_
_atom_site_label
_atom_site_type_symbol
_atom_site_fract_x
_atom_site_fract_y
_atom_site_fract_z
Mn1 Mn 0.0000 0.5000 -0.5000
O1 O -0.56132(17) 0.22991(18) -0.3569(2)
N1 N -0.0412(2) 0.7284(2) -0.4948(2)
N2 N -0.1271(2) 0.9562(2) -0.4503(2)
N3 N -0.1627(2) 1.00010(18) -0.2385(2)
N4 N -0.17043(16) 0.44785(19) -0.43065(18)
N5 N -0.5398(2) 0.4424(2) -0.2505(2)
H1 H -0.5057 0.5228 -0.2330
H2 H -0.6146 0.4269 -0.2362
C1 C -0.0819(2) 0.8334(2) -0.4699(2)
C2 C -0.1454(2) 0.9736(2) -0.3370(3)
C3 C -0.2447(2) 0.3251(2) -0.4714(2)
H3 H -0.2238 0.2604 -0.5263
C4 C -0.3505(2) 0.2907(2) -0.4355(2)
H4 H -0.3994 0.2045 -0.4659
C5 C -0.38336(19) 0.3854(2) -0.3539(2)
C6 C -0.3067(2) 0.5117(2) -0.3104(2)
H5 H -0.3257 0.5780 -0.2553
C7 C -0.2019(2) 0.5376(2) -0.3496(2)
H6 H -0.1501 0.6222 -0.3183
C8 C -0.5026(2) 0.3466(2) -0.3198(2)
Mn1A Mn 0.0000 0.0000 -1.0000
Mn1A_2 Mn 0.0000 1.0000 0.0000
O1B O 0.56132(17) 0.77009(18) -0.6431(2)
N1B N 0.0412(2) 0.2716(2) -0.5052(2)
N2B N 0.1271(2) 0.0438(2) -0.5497(2)
N3B N 0.1627(2) -0.00010(18) -0.7615(2)
N3A N 0.1627(2) 0.50010(18) -0.2615(2)
N3C N -0.1627(2) 0.49990(18) -0.7385(2)
N4B N 0.17043(16) 0.55215(19) -0.56935(18)
N5B N 0.5398(2) 0.5576(2) -0.7495(2)
H1B H 0.5057 0.4772 -0.7670
H2B H 0.6146 0.5731 -0.7638
C1B C 0.0819(2) 0.1666(2) -0.5301(2)
C2B C 0.1454(2) 0.0264(2) -0.6630(3)
C3B C 0.2447(2) 0.6749(2) -0.5286(2)
H3B H 0.2238 0.7396 -0.4737
C4B C 0.3505(2) 0.7093(2) -0.5645(2)
H4B H 0.3994 0.7955 -0.5341
C5B C 0.38336(19) 0.6146(2) -0.6461(2)
C6B C 0.3067(2) 0.4883(2) -0.6896(2)
H5B H 0.3257 0.4220 -0.7447
C7B C 0.2019(2) 0.4624(2) -0.6504(2)
H6B H 0.1501 0.3778 -0.6817
C8B C 0.5026(2) 0.6534(2) -0.6802(2)
loop_
_geom_bond_atom_site_label_1
_geom_bond_atom_site_label_2
_geom_bond_site_symmetry_1
_geom_bond_site_symmetry_2
Mn1 N1 1_555 1_555
O1 C8 1_555 1_555
N1 C1 1_555 1_555
N2 C1 1_555 1_555
N3 C2 1_555 1_555
N4 Mn1 1_555 1_555
N5 H1 1_555 1_555
H2 N5 1_555 1_555
C2 N2 1_555 1_555
C3 N4 1_555 1_555
H3 C3 1_555 1_555
C4 C3 1_555 1_555
H4 C4 1_555 1_555
C5 C4 1_555 1_555
C6 C5 1_555 1_555
H5 C6 1_555 1_555
C7 N4 1_555 1_555
H6 C7 1_555 1_555
C8 N5 1_555 1_555
Mn1A N3B 1_555 1_555
Mn1A_2 N3 1_555 1_555
O1B C8B 1_555 1_555
N1B Mn1 1_555 1_555
N2B C1B 1_555 1_555
N3B C2B 1_555 1_555
N3A Mn1 1_555 1_555
N3C Mn1 1_555 1_555
N4B Mn1 1_555 1_555
N5B H1B 1_555 1_555
H2B N5B 1_555 1_555
C1B N1B 1_555 1_555
C2B N2B 1_555 1_555
C3B N4B 1_555 1_555
H3B C3B 1_555 1_555
C4B C3B 1_555 1_555
H4B C4B 1_555 1_555
C5B C4B 1_555 1_555
C6B C5B 1_555 1_555
H5B C6B 1_555 1_555
C7B N4B 1_555 1_555
H6B C7B 1_555 1_555
C8B N5B 1_555 1_555
C5 C8 1_555 1_555
C6 C7 1_555 1_555
C5B C8B 1_555 1_555
C6B C7B 1_555 1_555

#END
