
#######################################################################
#
#                 Cambridge Crystallographic Data Centre
#                                CCDC 
#
#######################################################################
#
# If this CIF has been generated from an entry in the Cambridge 
# Structural Database, then it will include bibliographic, chemical, 
# crystal, experimental, refinement or atomic coordinate data resulting 
# from the CCDC's data processing and validation procedures.
#
#######################################################################

data_QAFQAR
_symmetry_cell_setting           monoclinic
_symmetry_space_group_name_H-M   'P 21/n'
_symmetry_Int_Tables_number      14
_space_group_name_Hall           '-P 2yn'
loop_
_symmetry_equiv_pos_site_id
_symmetry_equiv_pos_as_xyz
1 x,y,z
2 1/2-x,1/2+y,1/2-z
3 -x,-y,-z
4 1/2+x,1/2-y,1/2+z
_cell_length_a                   8.750(2)
_cell_length_b                   5.1226(12)
_cell_length_c                   13.292(3)
_cell_angle_alpha                90
_cell_angle_beta                 93.570(4)
_cell_angle_gamma                90
_cell_volume                     594.628
loop_
_atom_site_label
_atom_site_type_symbol
_atom_site_fract_x
_atom_site_fract_y
_atom_site_fract_z
O1 O 0.0364(6) -0.2638(11) 0.1615(4)
O2 O 0.1341(5) -0.6207(14) 0.0964(4)
C1 C 0.0760(9) -0.4959(14) 0.1654(7)
Pb1 Pb -0.5000 -0.5000 0.5000
N1 N -0.0414(9) -0.5120(9) 0.3315(6)
N2 N -0.2492(7) -0.3998(16) 0.4089(5)
C2 C -0.1874(9) -0.5719(17) 0.3449(6)
H1 H -0.2396 -0.7122 0.3146
C3 C 0.0577(7) -0.6426(14) 0.2633(5)
H2 H 0.0163 -0.8144 0.2475
H3 H 0.1580 -0.6661 0.2974
C4 C -0.1334(8) -0.2337(14) 0.4361(5)
H4 H -0.1407 -0.0972 0.4817
C5 C -0.0063(8) -0.2920(14) 0.3885(5)
H5 H 0.0863 -0.2024 0.3930
O1A O -0.5364(6) -0.7638(11) 0.3385(4)
O1C O -0.4636(6) -0.2362(11) 0.6615(4)
O1B O -1.0364(6) -0.7362(11) 0.8385(4)
O2C O -0.3659(5) -0.8793(14) 0.5964(4)
O2A O -0.6341(5) -0.1207(14) 0.4036(4)
O2B O -1.1341(5) -0.3793(14) 0.9036(4)
C1B C -1.0760(9) -0.5041(14) 0.8346(7)
Pb1A Pb 0.0000 0.0000 0.0000
Pb1A_2 Pb 0.0000 -1.0000 0.0000
Pb1A_3 Pb -1.0000 0.0000 1.0000
Pb1A_4 Pb -1.0000 -1.0000 1.0000
N1B N -0.9586(9) -0.4880(9) 0.6685(6)
N2B N -0.7508(7) -0.6002(16) 0.5911(5)
C2B C -0.8126(9) -0.4281(17) 0.6551(6)
H1B H -0.7604 -0.2878 0.6854
C3B C -1.0577(7) -0.3574(14) 0.7367(5)
H2B H -1.0163 -0.1856 0.7525
H3B H -1.1580 -0.3339 0.7026
C4B C -0.8666(8) -0.7663(14) 0.5639(5)
H4B H -0.8593 -0.9028 0.5183
C5B C -0.9937(8) -0.7080(14) 0.6115(5)
H5B H -1.0863 -0.7976 0.6070
loop_
_geom_bond_atom_site_label_1
_geom_bond_atom_site_label_2
_geom_bond_site_symmetry_1
_geom_bond_site_symmetry_2
O1 C1 1_555 1_555
O2 C1 1_555 1_555
C1 C3 1_555 1_555
Pb1 N2 1_555 1_555
N1 C2 1_555 1_555
N2 C2 1_555 1_555
C2 H1 1_555 1_555
C3 N1 1_555 1_555
H2 C3 1_555 1_555
H3 C3 1_555 1_555
C4 N2 1_555 1_555
H4 C4 1_555 1_555
C5 N1 1_555 1_555
H5 C5 1_555 1_555
O1A Pb1 1_555 1_555
O1C Pb1 1_555 1_555
O1B C1B 1_555 1_555
O2C Pb1 1_555 1_555
O2A Pb1 1_555 1_555
O2B C1B 1_555 1_555
C1B C3B 1_555 1_555
Pb1A O1 1_555 1_555
Pb1A_2 O2 1_555 1_555
Pb1A_3 O2B 1_555 1_555
Pb1A_4 O1B 1_555 1_555
N1B C2B 1_555 1_555
N2B Pb1 1_555 1_555
C2B N2B 1_555 1_555
H1B C2B 1_555 1_555
C3B N1B 1_555 1_555
H2B C3B 1_555 1_555
H3B C3B 1_555 1_555
C4B N2B 1_555 1_555
H4B C4B 1_555 1_555
C5B N1B 1_555 1_555
H5B C5B 1_555 1_555
C4 C5 1_555 1_555
C4B C5B 1_555 1_555

#END
