
#######################################################################
#
#                 Cambridge Crystallographic Data Centre
#                                CCDC 
#
#######################################################################
#
# If this CIF has been generated from an entry in the Cambridge 
# Structural Database, then it will include bibliographic, chemical, 
# crystal, experimental, refinement or atomic coordinate data resulting 
# from the CCDC's data processing and validation procedures.
#
#######################################################################

data_QAFQUL
_symmetry_cell_setting           monoclinic
_symmetry_space_group_name_H-M   'P 21/c'
_symmetry_Int_Tables_number      14
_space_group_name_Hall           '-P 2ybc'
loop_
_symmetry_equiv_pos_site_id
_symmetry_equiv_pos_as_xyz
1 x,y,z
2 -x,1/2+y,1/2-z
3 -x,-y,-z
4 x,1/2-y,1/2+z
_cell_length_a                   14.929(9)
_cell_length_b                   16.199(9)
_cell_length_c                   11.098(7)
_cell_angle_alpha                90
_cell_angle_beta                 101.212(11)
_cell_angle_gamma                90
_cell_volume                     2632.66
loop_
_atom_site_label
_atom_site_type_symbol
_atom_site_fract_x
_atom_site_fract_y
_atom_site_fract_z
Co1 Co 0.74913(5) -0.02773(4) 0.52431(7)
V1 V 0.68670(6) -0.23847(6) 0.56231(8)
V2 V 0.79502(6) -0.19820(6) 0.34542(8)
O1 O 0.8955(3) -0.2240(3) 0.3264(4)
O2 O 0.8041(3) -0.1021(2) 0.4011(3)
O3 O 0.7588(3) -0.2649(2) 0.4557(3)
O4 O 0.7156(3) -0.2980(2) 0.7023(3)
O5 O 0.5791(3) -0.2550(3) 0.4995(4)
O6 O 0.6982(3) -0.1378(2) 0.5883(3)
N1 N 0.8327(3) 0.0715(3) 0.4818(5)
N2 N 0.8714(4) -0.0363(3) 0.6713(5)
N3 N 0.6350(3) 0.0034(3) 0.3755(5)
N4 N 0.9708(4) 0.1260(4) 0.5170(6)
H1 H 1.0269 0.1348 0.5507
N5 N 0.6663(3) 0.0465(3) 0.6134(4)
N6 N 0.5452(4) 0.1326(3) 0.5930(5)
H2 H 0.4973 0.1595 0.5589
C1 C 0.8367(5) 0.1327(4) 0.3996(6)
C2 C 0.7682(5) 0.1620(4) 0.3013(7)
H3 H 0.7097 0.1397 0.2836
C3 C 0.7949(8) 0.2257(5) 0.2345(8)
H4 H 0.7518 0.2479 0.1709
C4 C 0.8815(10) 0.2587(6) 0.2559(11)
H5 H 0.8953 0.3010 0.2057
C5 C 0.9461(8) 0.2309(6) 0.3477(9)
H6 H 1.0043 0.2538 0.3627
C6 C 0.9245(6) 0.1685(5) 0.4187(7)
C7 C 0.9171(4) 0.0681(4) 0.5552(6)
C8 C 0.9391(5) 0.0129(4) 0.6593(6)
C9 C 1.0216(5) 0.0149(6) 0.7387(8)
H7 H 1.0668 0.0510 0.7244
C10 C 1.0383(7) -0.0373(6) 0.8419(9)
H8 H 1.0940 -0.0369 0.8966
C11 C 0.9648(7) -0.0920(6) 0.8593(8)
H9 H 0.9717 -0.1280 0.9257
C12 C 0.8827(5) -0.0884(4) 0.7719(6)
H10 H 0.8344 -0.1223 0.7821
C13 C 0.6617(5) 0.0804(4) 0.7279(6)
C14 C 0.7180(5) 0.0664(5) 0.8425(6)
H11 H 0.7681 0.0312 0.8523
C15 C 0.6942(6) 0.1081(6) 0.9395(7)
H12 H 0.7302 0.1003 1.0170
C16 C 0.6192(7) 0.1619(6) 0.9293(8)
H13 H 0.6077 0.1896 0.9981
C17 C 0.5628(6) 0.1731(5) 0.8163(8)
H14 H 0.5105 0.2055 0.8076
C18 C 0.5869(5) 0.1349(4) 0.7181(6)
C19 C 0.5951(4) 0.0798(3) 0.5356(6)
C20 C 0.5769(4) 0.0574(4) 0.4039(6)
C21 C 0.5054(4) 0.0926(4) 0.3212(7)
H15 H 0.4649 0.1288 0.3476
C22 C 0.4959(6) 0.0714(5) 0.1935(8)
H16 H 0.4503 0.0943 0.1337
C23 C 0.5587(6) 0.0146(5) 0.1639(7)
H17 H 0.5554 -0.0010 0.0825
C24 C 0.6252(5) -0.0184(5) 0.2541(6)
H18 H 0.6651 -0.0571 0.2320
V2C V 0.79502(6) -0.30180(6) 0.84542(8)
O4C O 0.7156(3) -0.2020(2) 0.2023(3)
loop_
_geom_bond_atom_site_label_1
_geom_bond_atom_site_label_2
_geom_bond_site_symmetry_1
_geom_bond_site_symmetry_2
Co1 O2 1_555 1_555
V1 O3 1_555 1_555
V2 O1 1_555 1_555
O2 V2 1_555 1_555
O3 V2 1_555 1_555
O4 V1 1_555 1_555
O5 V1 1_555 1_555
O6 Co1 1_555 1_555
N1 Co1 1_555 1_555
N2 Co1 1_555 1_555
N3 Co1 1_555 1_555
N4 H1 1_555 1_555
N5 Co1 1_555 1_555
N6 H2 1_555 1_555
C1 N1 1_555 1_555
C2 C1 1_555 1_555
H3 C2 1_555 1_555
C3 C2 1_555 1_555
H4 C3 1_555 1_555
C4 C3 1_555 1_555
H5 C4 1_555 1_555
C5 C4 1_555 1_555
H6 C5 1_555 1_555
C6 N4 1_555 1_555
C7 N1 1_555 1_555
C8 N2 1_555 1_555
C9 C8 1_555 1_555
H7 C9 1_555 1_555
C10 C9 1_555 1_555
H8 C10 1_555 1_555
C11 C10 1_555 1_555
H9 C11 1_555 1_555
C12 N2 1_555 1_555
H10 C12 1_555 1_555
C13 N5 1_555 1_555
C14 C13 1_555 1_555
H11 C14 1_555 1_555
C15 C14 1_555 1_555
H12 C15 1_555 1_555
C16 C15 1_555 1_555
H13 C16 1_555 1_555
C17 C16 1_555 1_555
H14 C17 1_555 1_555
C18 N6 1_555 1_555
C19 N5 1_555 1_555
C20 N3 1_555 1_555
C21 C20 1_555 1_555
H15 C21 1_555 1_555
C22 C21 1_555 1_555
H16 C22 1_555 1_555
C23 C22 1_555 1_555
H17 C23 1_555 1_555
C24 N3 1_555 1_555
H18 C24 1_555 1_555
V2C O4 1_555 1_555
O4C V2 1_555 1_555
V1 O6 1_555 1_555
N4 C7 1_555 1_555
N6 C19 1_555 1_555
C1 C6 1_555 1_555
C5 C6 1_555 1_555
C7 C8 1_555 1_555
C11 C12 1_555 1_555
C13 C18 1_555 1_555
C17 C18 1_555 1_555
C19 C20 1_555 1_555
C23 C24 1_555 1_555

#END
