
#######################################################################
#
#                 Cambridge Crystallographic Data Centre
#                                CCDC 
#
#######################################################################
#
# If this CIF has been generated from an entry in the Cambridge 
# Structural Database, then it will include bibliographic, chemical, 
# crystal, experimental, refinement or atomic coordinate data resulting 
# from the CCDC's data processing and validation procedures.
#
#######################################################################

data_QAFSUM
_symmetry_cell_setting           orthorhombic
_symmetry_space_group_name_H-M   'P b c m'
_symmetry_Int_Tables_number      57
_space_group_name_Hall           '-P 2c 2b'
loop_
_symmetry_equiv_pos_site_id
_symmetry_equiv_pos_as_xyz
1 x,y,z
2 x,y,1/2-z
3 x,1/2-y,1/2+z
4 -x,1/2+y,z
5 -x,-y,-z
6 -x,-y,1/2+z
7 -x,1/2+y,1/2-z
8 x,1/2-y,-z
_cell_length_a                   7.8523(4)
_cell_length_b                   14.5606(8)
_cell_length_c                   25.5424(13)
_cell_angle_alpha                90
_cell_angle_beta                 90
_cell_angle_gamma                90
_cell_volume                     2920.37
loop_
_atom_site_label
_atom_site_type_symbol
_atom_site_fract_x
_atom_site_fract_y
_atom_site_fract_z
Zn1 Zn 0.02974(5) 0.07143(3) 0.452116(15)
Cl1 Cl 0.77194(17) 0.15289(12) 0.62049(6)
O1 O 0.1403(3) 0.02626(16) 0.52040(9)
O2 O -0.0867(3) 0.18451(16) 0.47828(10)
N1 N 0.2665(4) 0.1184(2) 0.42907(11)
N2 N -0.0704(4) 0.0577(2) 0.37925(11)
C1 C 0.2800(5) 0.0558(2) 0.54351(13)
C2 C 0.4072(5) 0.1035(2) 0.51495(14)
C3 C 0.5561(5) 0.1326(3) 0.53849(16)
H1 H 0.6382 0.1627 0.5187
C4 C 0.5843(5) 0.1174(3) 0.59140(18)
C5 C 0.4603(5) 0.0724(3) 0.62024(17)
H2 H 0.4770 0.0631 0.6559
C6 C 0.3121(5) 0.0412(2) 0.59696(14)
C7 C 0.3950(5) 0.1265(3) 0.45916(14)
H3 H 0.4933 0.1499 0.4439
C8 C 0.2895(6) 0.1553(3) 0.37502(16)
H4 H 0.4099 0.1544 0.3665
H5 H 0.2525 0.2188 0.3745
C9 C 0.1936(6) 0.1030(4) 0.33309(17)
H6 H 0.2302 0.1255 0.2992
H7 H 0.2256 0.0388 0.3353
C10 C 0.0071(6) 0.1093(3) 0.33573(16)
H8 H -0.0400 0.0867 0.3030
H9 H -0.0246 0.1734 0.3390
C11 C 0.2044(5) -0.0125(2) 0.63246(14)
H10 H 0.1684 0.0300 0.6589
C12 C -0.0133(7) 0.2500 0.5000
H11 H 0.1212 0.2500 0.5000
N2D N 0.0704(4) -0.0577(2) 0.62075(11)
C10D C -0.0071(6) -0.1093(3) 0.66427(16)
C9D C -0.1936(6) -0.1030(4) 0.66691(17)
C8D C -0.2895(6) -0.1553(3) 0.62498(16)
N1D N -0.2665(4) -0.1184(2) 0.57093(11)
C7D C -0.3950(5) -0.1265(3) 0.54084(14)
C2D C -0.4072(5) -0.1035(2) 0.48505(14)
C1D C -0.2800(5) -0.0558(2) 0.45649(13)
O1D O -0.1403(3) -0.02626(16) 0.47960(9)
C6D C -0.3121(5) -0.0412(2) 0.40304(14)
C5D C -0.4603(5) -0.0724(3) 0.37976(17)
C4D C -0.5843(5) -0.1174(3) 0.40860(18)
Cl1D Cl -0.77194(17) -0.15289(12) 0.37951(6)
C3D C -0.5561(5) -0.1326(3) 0.46151(16)
H1D H -0.6382 -0.1627 0.4813
H2D H -0.4770 -0.0631 0.3441
C11D C -0.2044(5) 0.0125(2) 0.36754(14)
H10D H -0.1684 -0.0300 0.3411
H3D H -0.4933 -0.1499 0.5561
H4D H -0.4099 -0.1544 0.6335
H5D H -0.2525 -0.2188 0.6255
H6D H -0.2302 -0.1255 0.7008
H7D H -0.2256 -0.0388 0.6647
H8D H 0.0400 -0.0867 0.6970
H9D H 0.0246 -0.1734 0.6610
O2G O -0.0867(3) 0.31549(16) 0.52172(10)
Zn1D Zn -0.02974(5) -0.07143(3) 0.547884(15)
Zn1G Zn 0.02974(5) 0.42857(3) 0.547884(15)
O2D O 0.0867(3) -0.18451(16) 0.52172(10)
Cl2 Cl 0.0967(3) 0.14961(13) 0.7500
O3 O 0.1680(11) 0.1666(4) 0.7019(3)
O4 O -0.0063(10) 0.0711(4) 0.7500
O5 O -0.0159(12) 0.2263(6) 0.7500
O3A O 0.1680(11) 0.1666(4) 0.7981(3)
C13 C 0.5847(15) 0.2377(9) 0.2500
O6 O 0.5814(11) 0.1325(9) 0.2500
H14 H 0.6285 0.0754 0.2500
H12? H 0.5398 0.2993 0.2500
H13? H 0.5942 0.2798 0.2245
loop_
_geom_bond_atom_site_label_1
_geom_bond_atom_site_label_2
_geom_bond_site_symmetry_1
_geom_bond_site_symmetry_2
Zn1 O1 1_555 1_555
Cl1 C4 1_555 1_555
O1 C1 1_555 1_555
O2 Zn1 1_555 1_555
N1 Zn1 1_555 1_555
N2 Zn1 1_555 1_555
C1 C2 1_555 1_555
C2 C3 1_555 1_555
C3 H1 1_555 1_555
C4 C3 1_555 1_555
C5 C4 1_555 1_555
H2 C5 1_555 1_555
C6 C1 1_555 1_555
C7 N1 1_555 1_555
H3 C7 1_555 1_555
C8 N1 1_555 1_555
H4 C8 1_555 1_555
H5 C8 1_555 1_555
C9 C8 1_555 1_555
H6 C9 1_555 1_555
H7 C9 1_555 1_555
C10 N2 1_555 1_555
H8 C10 1_555 1_555
H9 C10 1_555 1_555
C11 C6 1_555 1_555
H10 C11 1_555 1_555
C12 O2 1_555 1_555
H11 C12 1_555 1_555
Cl2 O3 1_555 1_555
O4 Cl2 1_555 1_555
O5 Cl2 1_555 1_555
C13 O6 1_555 1_555
O6 H14 1_555 1_555
N2D C11 1_555 1_555
C10D N2D 1_555 1_555
C9D C10D 1_555 1_555
C8D C9D 1_555 1_555
N1D C8D 1_555 1_555
C7D N1D 1_555 1_555
C2D C7D 1_555 1_555
C1D C2D 1_555 1_555
O1D Zn1 1_555 1_555
C6D C1D 1_555 1_555
C5D C6D 1_555 1_555
C4D C5D 1_555 1_555
Cl1D C4D 1_555 1_555
C3D C2D 1_555 1_555
H1D C3D 1_555 1_555
H2D C5D 1_555 1_555
C11D N2 1_555 1_555
H10D C11D 1_555 1_555
H3D C7D 1_555 1_555
H4D C8D 1_555 1_555
H5D C8D 1_555 1_555
H6D C9D 1_555 1_555
H7D C9D 1_555 1_555
H8D C10D 1_555 1_555
H9D C10D 1_555 1_555
O2G C12 1_555 1_555
O3A Cl2 1_555 1_555
Zn1D O1 1_555 1_555
Zn1G O2G 1_555 1_555
O2D Zn1D 1_555 1_555
C2 C7 1_555 1_555
C5 C6 1_555 1_555
C9 C10 1_555 1_555
N2D Zn1D 1_555 1_555
N1D Zn1D 1_555 1_555
C1D O1D 1_555 1_555
O1D Zn1D 1_555 1_555
C6D C11D 1_555 1_555
C4D C3D 1_555 1_555

#END
