
#######################################################################
#
#                 Cambridge Crystallographic Data Centre
#                                CCDC 
#
#######################################################################
#
# If this CIF has been generated from an entry in the Cambridge 
# Structural Database, then it will include bibliographic, chemical, 
# crystal, experimental, refinement or atomic coordinate data resulting 
# from the CCDC's data processing and validation procedures.
#
#######################################################################

data_QAGDEH
_symmetry_cell_setting           monoclinic
_symmetry_space_group_name_H-M   'P 21'
_symmetry_Int_Tables_number      4
_space_group_name_Hall           'P 2yb'
loop_
_symmetry_equiv_pos_site_id
_symmetry_equiv_pos_as_xyz
1 x,y,z
2 -x,1/2+y,-z
_cell_length_a                   8.814(2)
_cell_length_b                   14.979(3)
_cell_length_c                   13.574(3)
_cell_angle_alpha                90
_cell_angle_beta                 104.97(2)
_cell_angle_gamma                90
_cell_volume                     1731.28
loop_
_atom_site_label
_atom_site_type_symbol
_atom_site_fract_x
_atom_site_fract_y
_atom_site_fract_z
Cu1 Cu -0.04485(9) -0.33798(5) 0.18304(6)
Cu2 Cu -0.44013(10) -0.44467(5) -0.19048(5)
O1 O -0.4456(8) -0.5436(4) -0.0967(5)
O2 O -0.1567(6) -0.4554(4) -0.1527(4)
O3 O -0.7329(7) -0.4345(4) -0.1975(4)
O4 O 0.0007(6) -0.2138(3) 0.1522(4)
O5 O -0.0603(6) -0.0768(4) 0.1939(4)
O6 O -0.1965(6) -0.3871(4) 0.0237(4)
O7 O -0.4286(6) -0.3537(3) -0.0822(3)
O8 O 0.0466(6) -0.3020(4) 0.3600(4)
O9 O 0.0511(9) -0.3763(6) 0.5026(5)
O10 O 0.1185(5) -0.4141(3) 0.1497(4)
O11 O 0.1387(7) -0.5531(4) 0.1000(5)
N1 N -0.2582(6) -0.2873(4) 0.1836(4)
N2 N -0.1014(6) -0.4498(4) 0.2460(4)
N3 N -0.4718(7) -0.5352(4) -0.3050(4)
N4 N -0.5488(7) -0.8480(4) -0.7051(4)
C1 C -0.3144(7) -0.3463(5) 0.2573(5)
H1 H -0.2548(7) -0.3283(5) 0.3258(5)
C2 C -0.2701(7) -0.4449(5) 0.2444(5)
H2 H -0.3302(7) -0.4641(5) 0.1765(5)
C3 C -0.3197(9) -0.5047(6) 0.3221(6)
H3 H -0.3018(9) -0.5667(6) 0.3077(6)
H4 H -0.2555(9) -0.4911(6) 0.3900(6)
C4 C -0.4928(10) -0.4916(7) 0.3192(7)
H5 H -0.5576(10) -0.5115(7) 0.2539(7)
H6 H -0.5185(10) -0.5277(7) 0.3720(7)
C5 C -0.5282(10) -0.3956(6) 0.3352(7)
H7 H -0.4687(10) -0.3768(6) 0.4025(7)
H8 H -0.6390(10) -0.3892(6) 0.3317(7)
C6 C -0.4865(8) -0.3358(6) 0.2547(6)
H9 H -0.5508(8) -0.3518(6) 0.1876(6)
H10 H -0.5079(8) -0.2740(6) 0.2676(6)
C7 C -0.2202(8) -0.1945(5) 0.2216(5)
H11 H -0.3111(8) -0.1565(5) 0.1969(5)
H12 H -0.1935(8) -0.1941(5) 0.2956(5)
C8 C -0.0862(9) -0.1598(5) 0.1857(5)
C9 C -0.3643(8) -0.2837(5) 0.0789(5)
H13 H -0.3635(8) -0.2232(5) 0.0535(5)
H14 H -0.4704(8) -0.2963(5) 0.0832(5)
C10 C -0.3254(8) -0.3469(5) 0.0017(5)
C11 C 0.0132(9) -0.4585(6) 0.3501(6)
H15 H -0.0258(9) -0.5031(6) 0.3893(6)
H16 H 0.1133(9) -0.4793(6) 0.3417(6)
C12 C 0.0385(9) -0.3719(7) 0.4091(6)
C13 C -0.0631(9) -0.5224(6) 0.1801(6)
H17 H -0.1536(9) -0.5339(6) 0.1234(6)
H18 H -0.0382(9) -0.5769(6) 0.2195(6)
C14 C 0.0752(8) -0.4952(5) 0.1400(6)
C15 C -0.6070(10) -0.5450(6) -0.3744(6)
H19 H -0.6916(10) -0.5100(6) -0.3690(6)
C16 C -0.6289(8) -0.6046(6) -0.4545(6)
H20 H -0.7255(8) -0.6078(6) -0.5024(6)
C17 C -0.5082(8) -0.6590(5) -0.4634(5)
C18 C -0.3689(9) -0.6529(6) -0.3889(6)
H21 H -0.2850(9) -0.6899(6) -0.3911(6)
C19 C -0.3542(9) -0.5920(6) -0.3112(6)
H22 H -0.2600(9) -0.5895(6) -0.2608(6)
C20 C -0.4110(11) -0.8131(6) -0.6553(7)
H23 H -0.3214(11) -0.8310(6) -0.6741(7)
C21 C -0.3949(9) -0.7525(6) -0.5782(7)
H24 H -0.2962(9) -0.7301(6) -0.5457(7)
C22 C -0.5251(8) -0.7247(5) -0.5487(5)
C23 C -0.6684(9) -0.7619(7) -0.5999(7)
H25 H -0.7599(9) -0.7450(7) -0.5828(7)
C24 C -0.6742(9) -0.8231(6) -0.6750(7)
H26 H -0.7706(9) -0.8487(6) -0.7067(7)
N4A N -0.4512(7) -0.3480(4) -0.2949(4)
Cu2A Cu -0.55987(10) -0.94467(5) -0.80952(5)
O12 O 0.2186(8) -0.3436(6) -0.0161(6)
O13 O 0.0930(11) -0.7303(7) 0.1265(7)
O14 O -0.2232(10) -0.6633(6) -0.0517(7)
O15 O -0.0956(11) -0.7512(7) -0.7340(7)
O16 O -0.0252(12) -0.5332(7) 0.5823(8)
O17 O -0.5720(8) -0.5535(5) 0.0565(5)
O18 O 0.0067(10) -0.1856(6) 0.5333(6)
O19 O -0.6115(9) -0.1948(5) -0.1413(6)
loop_
_geom_bond_atom_site_label_1
_geom_bond_atom_site_label_2
_geom_bond_site_symmetry_1
_geom_bond_site_symmetry_2
Cu1 O4 1_555 1_555
Cu2 O1 1_555 1_555
O2 Cu2 1_555 1_555
O3 Cu2 1_555 1_555
O4 C8 1_555 1_555
O5 C8 1_555 1_555
O6 Cu1 1_555 1_555
O7 Cu2 1_555 1_555
O8 Cu1 1_555 1_555
O9 C12 1_555 1_555
O10 Cu1 1_555 1_555
O11 C14 1_555 1_555
N1 Cu1 1_555 1_555
N2 Cu1 1_555 1_555
N3 Cu2 1_555 1_555
N4 C20 1_555 1_555
C1 N1 1_555 1_555
H1 C1 1_555 1_555
C2 N2 1_555 1_555
H2 C2 1_555 1_555
C3 C2 1_555 1_555
H3 C3 1_555 1_555
H4 C3 1_555 1_555
C4 C3 1_555 1_555
H5 C4 1_555 1_555
H6 C4 1_555 1_555
C5 C4 1_555 1_555
H7 C5 1_555 1_555
H8 C5 1_555 1_555
C6 C1 1_555 1_555
H9 C6 1_555 1_555
H10 C6 1_555 1_555
C7 N1 1_555 1_555
H11 C7 1_555 1_555
H12 C7 1_555 1_555
C8 C7 1_555 1_555
C9 N1 1_555 1_555
H13 C9 1_555 1_555
H14 C9 1_555 1_555
C10 O6 1_555 1_555
C11 N2 1_555 1_555
H15 C11 1_555 1_555
H16 C11 1_555 1_555
C12 O8 1_555 1_555
C13 N2 1_555 1_555
H17 C13 1_555 1_555
H18 C13 1_555 1_555
C14 O10 1_555 1_555
C15 N3 1_555 1_555
H19 C15 1_555 1_555
C16 C15 1_555 1_555
H20 C16 1_555 1_555
C17 C16 1_555 1_555
C18 C17 1_555 1_555
H21 C18 1_555 1_555
C19 N3 1_555 1_555
H22 C19 1_555 1_555
C20 H23 1_555 1_555
C21 C20 1_555 1_555
H24 C21 1_555 1_555
C22 C17 1_555 1_555
C23 C22 1_555 1_555
H25 C23 1_555 1_555
C24 N4 1_555 1_555
H26 C24 1_555 1_555
N4A Cu2 1_555 1_555
Cu2A N4 1_555 1_555
O7 C10 1_555 1_555
C1 C2 1_555 1_555
C5 C6 1_555 1_555
C9 C10 1_555 1_555
C11 C12 1_555 1_555
C13 C14 1_555 1_555
C18 C19 1_555 1_555
C21 C22 1_555 1_555
C23 C24 1_555 1_555

#END
