
#######################################################################
#
#                 Cambridge Crystallographic Data Centre
#                                CCDC 
#
#######################################################################
#
# If this CIF has been generated from an entry in the Cambridge 
# Structural Database, then it will include bibliographic, chemical, 
# crystal, experimental, refinement or atomic coordinate data resulting 
# from the CCDC's data processing and validation procedures.
#
#######################################################################

data_QAGDUZ
_symmetry_cell_setting           monoclinic
_symmetry_space_group_name_H-M   'P 21/c'
_symmetry_Int_Tables_number      14
_space_group_name_Hall           '-P 2ybc'
loop_
_symmetry_equiv_pos_site_id
_symmetry_equiv_pos_as_xyz
1 x,y,z
2 -x,1/2+y,1/2-z
3 -x,-y,-z
4 x,1/2-y,1/2+z
_cell_length_a                   12.5236(10)
_cell_length_b                   13.7896(11)
_cell_length_c                   21.7820(19)
_cell_angle_alpha                90
_cell_angle_beta                 101.723(2)
_cell_angle_gamma                90
_cell_volume                     3683.19
loop_
_atom_site_label
_atom_site_type_symbol
_atom_site_fract_x
_atom_site_fract_y
_atom_site_fract_z
Cd1 Cd 0.411307(13) 0.727256(12) 0.360048(8)
Cd2 Cd 1.061336(13) 0.729534(12) 1.081864(8)
N1 N 0.48777(17) 0.75827(15) 0.47620(10)
N2 N 0.72871(19) 0.76782(18) 0.69189(11)
N3 N 0.75721(19) 0.75568(19) 0.75730(11)
N4 N 0.99812(18) 0.73296(16) 0.97167(11)
C1 C 0.5969(2) 0.75172(19) 0.49708(13)
H1 H 0.6421 0.7474 0.4670
C2 C 0.6458(2) 0.7509(2) 0.55957(13)
H2 H 0.7227 0.7446 0.5721
C3 C 0.5807(2) 0.75951(19) 0.60440(13)
C4 C 0.4682(2) 0.76852(19) 0.58298(13)
H3 H 0.4210 0.7754 0.6118
C5 C 0.4268(2) 0.76728(18) 0.51909(12)
H4 H 0.3501 0.7732 0.5051
C6 C 0.6266(2) 0.7559(2) 0.67166(13)
H5 H 0.5802 0.7446 0.7004
C7 C 0.8567(2) 0.7791(2) 0.77921(12)
H6 H 0.9000 0.8056 0.7522
C8 C 0.9034(2) 0.76521(19) 0.84570(12)
C9 C 0.8401(2) 0.7365(2) 0.88849(13)
H7 H 0.7635 0.7281 0.8754
C10 C 0.8906(2) 0.7208(2) 0.94978(13)
H8 H 0.8472 0.7000 0.9783
C11 C 1.0583(2) 0.76117(19) 0.93057(13)
H9 H 1.1343 0.7707 0.9452
C12 C 1.0149(2) 0.77709(19) 0.86793(12)
H10 H 1.0608 0.7960 0.8402
N5 N 0.53154(16) 0.59587(15) 0.36591(10)
O1 O 0.80789(14) 0.33773(13) 0.44141(8)
O2 O 0.79202(14) 0.32748(13) 0.33818(8)
C13 C 0.76713(19) 0.36434(18) 0.38604(12)
C14 C 0.68440(19) 0.44560(18) 0.37873(12)
C15 C 0.6622(2) 0.50196(19) 0.32487(12)
H11 H 0.6986 0.4901 0.2913
C16 C 0.5861(2) 0.57589(19) 0.32082(12)
H12 H 0.5720 0.6145 0.2839
C17 C 0.5523(2) 0.53973(18) 0.41747(12)
H13 H 0.5127 0.5516 0.4495
C18 C 0.6281(2) 0.46590(18) 0.42626(12)
H14 H 0.6416 0.4294 0.4641
N6 N 0.29725(17) 0.86370(15) 0.35521(10)
O3 O 0.09023(15) 1.13352(14) 0.42363(9)
O4 O 0.01277(14) 1.13062(13) 0.32209(9)
C19 C 0.0807(2) 1.10215(18) 0.36831(12)
C20 C 0.1586(2) 1.02099(18) 0.36080(12)
C21 C 0.1353(2) 0.9530(2) 0.31320(12)
H15 H 0.0716 0.9596 0.2813
C22 C 0.2047(2) 0.87559(19) 0.31229(12)
H16 H 0.1862 0.8287 0.2799
C23 C 0.3226(2) 0.93234(19) 0.39915(13)
H17 H 0.3900 0.9272 0.4282
C24 C 0.2561(2) 1.01007(19) 0.40441(13)
H18 H 0.2764 1.0558 0.4374
N7 N 0.04084(17) 0.36101(15) 0.39976(10)
O5 O 0.25503(15) 0.62162(13) 0.31765(9)
O6 O 0.30857(15) 0.63228(13) 0.42020(9)
C25 C 0.25155(19) 0.59517(18) 0.37187(12)
C26 C 0.17611(19) 0.51367(17) 0.38097(12)
C27 C 0.1470(2) 0.50032(19) 0.43870(12)
H19 H 0.1734 0.5429 0.4727
C28 C 0.0790(2) 0.42420(19) 0.44567(12)
H20 H 0.0583 0.4162 0.4850
C29 C 0.0686(2) 0.3751(2) 0.34429(13)
H21 H 0.0415 0.3312 0.3112
C30 C 0.1343(2) 0.45010(19) 0.33268(13)
H22 H 0.1508 0.4582 0.2923
N8 N 0.81660(17) 1.10736(15) 0.39112(10)
O7 O 0.55819(14) 0.82892(13) 0.36383(8)
O8 O 0.52115(16) 0.90169(15) 0.27003(9)
C31 C 0.5711(2) 0.89372(18) 0.32537(12)
C32 C 0.6569(2) 0.96880(18) 0.34916(12)
C33 C 0.6966(2) 1.02777(18) 0.30680(12)
H23 H 0.6688 1.0220 0.2630
C34 C 0.7769(2) 1.09465(18) 0.32961(12)
H24 H 0.8053 1.1333 0.3005
C35 C 0.7780(2) 1.05099(19) 0.43159(12)
H25 H 0.8062 1.0593 0.4752
C36 C 0.6993(2) 0.9815(2) 0.41287(13)
H26 H 0.6742 0.9426 0.4431
O9 O 0.39854(15) 0.74911(14) 0.24981(9)
H27 H 0.437(2) 0.8010(14) 0.2535(15)
H28 H 0.3380(16) 0.761(2) 0.2244(15)
Cd2A Cd 0.938664(13) 0.229534(12) 0.418136(8)
Cd2A_2 Cd -0.061336(13) 1.229534(12) 0.418136(8)
Cd2A_3 Cd -0.061336(13) 0.229534(12) 0.418136(8)
Cd2A_4 Cd 0.938664(13) 1.229534(12) 0.418136(8)
O1A O 1.19211(14) 0.83773(13) 1.05859(8)
O2A O 1.20798(14) 0.82748(13) 1.16182(8)
O3A O 0.90977(15) 0.63352(14) 1.07637(9)
O4A O 0.98723(14) 0.63062(13) 1.17791(9)
N7A N 0.95916(17) 0.86101(15) 1.10024(10)
N8A N 1.18340(17) 0.60736(15) 1.10888(10)
loop_
_geom_bond_atom_site_label_1
_geom_bond_atom_site_label_2
_geom_bond_site_symmetry_1
_geom_bond_site_symmetry_2
Cd1 N1 1_555 1_555
Cd2 N4 1_555 1_555
N1 C1 1_555 1_555
N2 N3 1_555 1_555
N3 C7 1_555 1_555
N4 C10 1_555 1_555
C1 H1 1_555 1_555
C2 C1 1_555 1_555
H2 C2 1_555 1_555
C3 C2 1_555 1_555
C4 C3 1_555 1_555
H3 C4 1_555 1_555
C5 N1 1_555 1_555
H4 C5 1_555 1_555
C6 N2 1_555 1_555
H5 C6 1_555 1_555
C7 H6 1_555 1_555
C8 C7 1_555 1_555
C9 C8 1_555 1_555
H7 C9 1_555 1_555
C10 C9 1_555 1_555
H8 C10 1_555 1_555
C11 N4 1_555 1_555
H9 C11 1_555 1_555
C12 C8 1_555 1_555
H10 C12 1_555 1_555
N5 Cd1 1_555 1_555
O1 C13 1_555 1_555
O2 C13 1_555 1_555
C13 C14 1_555 1_555
C14 C15 1_555 1_555
C15 H11 1_555 1_555
C16 N5 1_555 1_555
H12 C16 1_555 1_555
C17 N5 1_555 1_555
H13 C17 1_555 1_555
C18 C14 1_555 1_555
H14 C18 1_555 1_555
N6 Cd1 1_555 1_555
O3 C19 1_555 1_555
O4 C19 1_555 1_555
C19 C20 1_555 1_555
C20 C21 1_555 1_555
C21 H15 1_555 1_555
C22 N6 1_555 1_555
H16 C22 1_555 1_555
C23 N6 1_555 1_555
H17 C23 1_555 1_555
C24 C20 1_555 1_555
H18 C24 1_555 1_555
N7 C28 1_555 1_555
O5 Cd1 1_555 1_555
O6 Cd1 1_555 1_555
C25 O5 1_555 1_555
C26 C25 1_555 1_555
C27 C26 1_555 1_555
H19 C27 1_555 1_555
C28 C27 1_555 1_555
H20 C28 1_555 1_555
C29 N7 1_555 1_555
H21 C29 1_555 1_555
C30 C26 1_555 1_555
H22 C30 1_555 1_555
N8 C34 1_555 1_555
O7 Cd1 1_555 1_555
O8 C31 1_555 1_555
C31 O7 1_555 1_555
C32 C31 1_555 1_555
C33 C32 1_555 1_555
H23 C33 1_555 1_555
C34 C33 1_555 1_555
H24 C34 1_555 1_555
C35 N8 1_555 1_555
H25 C35 1_555 1_555
C36 C32 1_555 1_555
H26 C36 1_555 1_555
O9 Cd1 1_555 1_555
H27 O9 1_555 1_555
H28 O9 1_555 1_555
Cd2A O1 1_555 1_555
Cd2A_2 O3 1_555 1_555
Cd2A_3 N7 1_555 1_555
Cd2A_4 N8 1_555 1_555
O1A Cd2 1_555 1_555
O2A Cd2 1_555 1_555
O3A Cd2 1_555 1_555
O4A Cd2 1_555 1_555
N7A Cd2 1_555 1_555
N8A Cd2 1_555 1_555
C3 C6 1_555 1_555
C4 C5 1_555 1_555
C11 C12 1_555 1_555
O2 Cd2A 1_555 1_555
C15 C16 1_555 1_555
C17 C18 1_555 1_555
O4 Cd2A_2 1_555 1_555
C21 C22 1_555 1_555
C23 C24 1_555 1_555
O6 C25 1_555 1_555
C29 C30 1_555 1_555
C35 C36 1_555 1_555

#END
