
#######################################################################
#
#                 Cambridge Crystallographic Data Centre
#                                CCDC 
#
#######################################################################
#
# If this CIF has been generated from an entry in the Cambridge 
# Structural Database, then it will include bibliographic, chemical, 
# crystal, experimental, refinement or atomic coordinate data resulting 
# from the CCDC's data processing and validation procedures.
#
#######################################################################

data_QAGDIL
_symmetry_cell_setting           monoclinic
_symmetry_space_group_name_H-M   'P 21/n'
_symmetry_Int_Tables_number      14
_space_group_name_Hall           '-P 2yn'
loop_
_symmetry_equiv_pos_site_id
_symmetry_equiv_pos_as_xyz
1 x,y,z
2 1/2+x,1/2-y,1/2+z
3 -x,-y,-z
4 1/2-x,1/2+y,1/2-z
_cell_length_a                   11.279(3)
_cell_length_b                   12.238(2)
_cell_length_c                   16.753(3)
_cell_angle_alpha                90
_cell_angle_beta                 108.82(1)
_cell_angle_gamma                90
_cell_volume                     2188.83
loop_
_atom_site_label
_atom_site_type_symbol
_atom_site_fract_x
_atom_site_fract_y
_atom_site_fract_z
Cu1 Cu 0.30393(3) 1.08104(3) 1.02760(2)
Cu2 Cu 0.60836(3) 0.75338(3) 1.20708(2)
O1 O 0.2451(3) 1.2527(2) 1.0436(2)
H1 H 0.2379 1.3000 0.9979
H2 H 0.2616 1.3006 1.0796
O2 O 0.4750(2) 1.1223(2) 1.02878(13)
H3 H 0.4893 1.1200 0.9738
H4 H 0.5393 1.1002 1.0643
O5 O 0.4816(2) 0.6417(2) 1.19820(13)
O6 O 0.3612(3) 0.5738(2) 1.2686(2)
O7 O 0.4952(2) 0.8894(2) 1.12960(13)
O8 O 0.3632(2) 1.0214(2) 1.14179(13)
O9 O 0.6984(2) 0.6727(2) 1.14550(13)
O10 O 0.8886(2) 0.6574(2) 1.1328(2)
O11 O 0.2478(2) 1.1130(2) 0.90600(12)
O12 O 0.2840(2) 0.9385(2) 0.88493(14)
N1 N 0.5405(2) 0.8213(2) 1.29547(15)
N2 N 0.7713(2) 0.8340(2) 1.26300(14)
N3 N 0.1240(2) 1.0316(2) 1.01400(15)
C1 C 0.6504(3) 0.8788(3) 1.3590(2)
H9 H 0.6476(29) 0.9591(28) 1.3370(20)
C2 C 0.7729(3) 0.8324(3) 1.3540(2)
H10 H 0.7785(30) 0.7589(27) 1.3649(20)
C3 C 0.8880(4) 0.8870(3) 1.4156(2)
H11 H 0.9691(37) 0.8516(32) 1.4177(23)
H12 H 0.8928(31) 0.9659(32) 1.3996(21)
C4 C 0.8812(4) 0.8812(3) 1.5047(2)
H13 H 0.9588(46) 0.9062(36) 1.5453(30)
H14 H 0.8818(33) 0.8057(34) 1.5198(22)
C5 C 0.7629(5) 0.9345(3) 1.5096(2)
H15 H 0.7615(35) 1.0146(36) 1.5000(23)
H16 H 0.7539(35) 0.9343(30) 1.5655(27)
C6 C 0.6452(4) 0.8783(3) 1.4501(2)
H17 H 0.5610(33) 0.9103(26) 1.4477(21)
H18 H 0.6484(33) 0.8015(33) 1.4717(22)
C7 C 0.4941(4) 0.7236(3) 1.3298(2)
H19 H 0.4296(32) 0.7435(23) 1.3528(20)
H20 H 0.5664(31) 0.6892(26) 1.3679(20)
C8 C 0.4382(3) 0.6400(3) 1.2595(2)
C9 C 0.4363(3) 0.8983(3) 1.2552(2)
H21 H 0.4314(29) 0.9605(28) 1.2927(20)
H22 H 0.3537(40) 0.8628(33) 1.2432(25)
C10 C 0.4338(3) 0.9396(2) 1.1684(2)
C11 C 0.8688(3) 0.7617(3) 1.2486(2)
H23 H 0.8940(32) 0.7104(31) 1.2921(22)
H24 H 0.9365(32) 0.7985(27) 1.2468(19)
C12 C 0.8160(3) 0.6937(2) 1.1689(2)
C13 C 0.7832(4) 0.9482(3) 1.2350(2)
H25 H 0.7401(33) 0.9989(32) 1.2588(22)
H26 H 0.8622(36) 0.9709(29) 1.2540(22)
C14 C 0.2535(3) 1.0328(2) 0.8592(2)
C15 C 0.0278(3) 1.0892(3) 0.9646(2)
H27 H 0.0449(34) 1.1519(31) 0.9369(23)
C16 C 0.0959(3) 0.9418(3) 1.0495(2)
H28 H 0.1622(32) 0.8996(28) 1.0835(21)
C14B C 0.7465(3) 0.9672(2) 1.1408(2)
O11B O 0.7522(2) 0.8870(2) 1.09400(12)
Cu1B Cu 0.69607(3) 0.91896(3) 0.97240(2)
O1B O 0.7549(3) 0.7473(2) 0.9564(2)
H1B H 0.7621 0.7000 1.0021
H2B H 0.7384 0.6994 0.9204
O2B O 0.5250(2) 0.8777(2) 0.97122(13)
H3B H 0.5107 0.8800 1.0262
H4B H 0.4607 0.8998 0.9357
O8B O 0.6368(2) 0.9786(2) 0.85821(13)
C10B C 0.5662(3) 1.0604(2) 0.8316(2)
O7B O 0.5048(2) 1.1106(2) 0.87040(13)
Cu2B Cu 0.39164(3) 1.24662(3) 0.79292(2)
O5B O 0.5184(2) 1.3583(2) 0.80180(13)
C8B C 0.5618(3) 1.3600(3) 0.7405(2)
O6B O 0.6388(3) 1.4262(2) 0.7314(2)
C7B C 0.5059(4) 1.2764(3) 0.6702(2)
N1B N 0.4595(2) 1.1787(2) 0.70453(15)
O9B O 0.3016(2) 1.3273(2) 0.85450(13)
C12B C 0.1840(3) 1.3063(2) 0.8311(2)
O10B O 0.1114(2) 1.3426(2) 0.8672(2)
C11B C 0.1312(3) 1.2383(3) 0.7514(2)
N2B N 0.2287(2) 1.1660(2) 0.73700(14)
C2B C 0.2271(3) 1.1676(3) 0.6460(2)
C1B C 0.3496(3) 1.1212(3) 0.6410(2)
C9B C 0.5637(3) 1.1017(3) 0.7448(2)
H21B H 0.5686(29) 1.0395(28) 0.7073(20)
H22B H 0.6463(40) 1.1372(33) 0.7568(25)
H9B H 0.3524(29) 1.0409(28) 0.6630(20)
C6B C 0.3548(4) 1.1217(3) 0.5499(2)
C5B C 0.2371(5) 1.0655(3) 0.4904(2)
C4B C 0.1188(4) 1.1188(3) 0.4953(2)
C3B C 0.1120(4) 1.1130(3) 0.5844(2)
H10B H 0.2215(30) 1.2411(27) 0.6351(20)
H11B H 0.0309(37) 1.1484(32) 0.5823(23)
H12B H 0.1072(31) 1.0341(32) 0.6004(21)
H13B H 0.0412(46) 1.0938(36) 0.4547(30)
H14B H 0.1182(33) 1.1943(34) 0.4802(22)
H15B H 0.2385(35) 0.9854(36) 0.5000(23)
H16B H 0.2461(35) 1.0657(30) 0.4345(27)
H17B H 0.4390(33) 1.0897(26) 0.5523(21)
H18B H 0.3516(33) 1.1985(33) 0.5283(22)
C13B C 0.2168(4) 1.0518(3) 0.7650(2)
H25B H 0.2599(33) 1.0011(32) 0.7412(22)
H26B H 0.1378(36) 1.0291(29) 0.7460(22)
C16B C -0.0959(3) 1.0582(3) 0.9505(2)
N3B N -0.1240(2) 0.9684(2) 0.98600(15)
Cu1B_2 Cu -0.30393(3) 0.91896(3) 0.97240(2)
C15B C -0.0278(3) 0.9108(3) 1.0354(2)
H27B H -0.0449(34) 0.8481(31) 1.0631(23)
H28B H -0.1622(32) 1.1004(28) 0.9165(21)
H23B H 0.1060(32) 1.2896(31) 0.7079(22)
H24B H 0.0635(32) 1.2015(27) 0.7532(19)
H19B H 0.5704(32) 1.2565(23) 0.6472(20)
H20B H 0.4336(31) 1.3108(26) 0.6321(20)
N3B_2 N 0.8760(2) 0.9684(2) 0.98600(15)
O12B O 0.7160(2) 1.0615(2) 1.11507(14)
O3 O 0.3334(3) 0.3699(2) 1.1895(2)
H5 H 0.3381 0.4414 1.2154
H6 H 0.2583 0.3811 1.1422
O4 O 1.1387(3) 0.7167(2) 1.1821(2)
H7 H 1.1962 0.6615 1.2125
H8 H 1.1641 0.6811 1.1351
loop_
_geom_bond_atom_site_label_1
_geom_bond_atom_site_label_2
_geom_bond_site_symmetry_1
_geom_bond_site_symmetry_2
Cu1 O1 1_555 1_555
Cu2 O5 1_555 1_555
O1 H1 1_555 1_555
H2 O1 1_555 1_555
O2 Cu1 1_555 1_555
H3 O2 1_555 1_555
H4 O2 1_555 1_555
O3 H5 1_555 1_555
H6 O3 1_555 1_555
O4 H7 1_555 1_555
H8 O4 1_555 1_555
O5 C8 1_555 1_555
O6 C8 1_555 1_555
O7 Cu2 1_555 1_555
O8 Cu1 1_555 1_555
O9 Cu2 1_555 1_555
O10 C12 1_555 1_555
O11 Cu1 1_555 1_555
O12 C14 1_555 1_555
N1 Cu2 1_555 1_555
N2 Cu2 1_555 1_555
N3 Cu1 1_555 1_555
C1 N1 1_555 1_555
H9 C1 1_555 1_555
C2 N2 1_555 1_555
H10 C2 1_555 1_555
C3 C2 1_555 1_555
H11 C3 1_555 1_555
H12 C3 1_555 1_555
C4 C3 1_555 1_555
H13 C4 1_555 1_555
H14 C4 1_555 1_555
C5 C4 1_555 1_555
H15 C5 1_555 1_555
H16 C5 1_555 1_555
C6 C1 1_555 1_555
H17 C6 1_555 1_555
H18 C6 1_555 1_555
C7 N1 1_555 1_555
H19 C7 1_555 1_555
H20 C7 1_555 1_555
C8 C7 1_555 1_555
C9 N1 1_555 1_555
H21 C9 1_555 1_555
H22 C9 1_555 1_555
C10 O7 1_555 1_555
C11 N2 1_555 1_555
H23 C11 1_555 1_555
H24 C11 1_555 1_555
C12 O9 1_555 1_555
C13 N2 1_555 1_555
H25 C13 1_555 1_555
H26 C13 1_555 1_555
C14 O11 1_555 1_555
C15 N3 1_555 1_555
H27 C15 1_555 1_555
C16 N3 1_555 1_555
H28 C16 1_555 1_555
C14B C13 1_555 1_555
O11B C14B 1_555 1_555
Cu1B O11B 1_555 1_555
O1B Cu1B 1_555 1_555
H1B O1B 1_555 1_555
H2B O1B 1_555 1_555
O2B Cu1B 1_555 1_555
H3B O2B 1_555 1_555
H4B O2B 1_555 1_555
O8B Cu1B 1_555 1_555
C10B O8B 1_555 1_555
O7B C10B 1_555 1_555
Cu2B O7B 1_555 1_555
O5B Cu2B 1_555 1_555
C8B O5B 1_555 1_555
O6B C8B 1_555 1_555
C7B C8B 1_555 1_555
N1B Cu2B 1_555 1_555
O9B Cu2B 1_555 1_555
C12B O9B 1_555 1_555
O10B C12B 1_555 1_555
C11B C12B 1_555 1_555
N2B Cu2B 1_555 1_555
C2B N2B 1_555 1_555
C1B N1B 1_555 1_555
C9B C10B 1_555 1_555
H21B C9B 1_555 1_555
H22B C9B 1_555 1_555
H9B C1B 1_555 1_555
C6B C1B 1_555 1_555
C5B C6B 1_555 1_555
C4B C5B 1_555 1_555
C3B C2B 1_555 1_555
H10B C2B 1_555 1_555
H11B C3B 1_555 1_555
H12B C3B 1_555 1_555
H13B C4B 1_555 1_555
H14B C4B 1_555 1_555
H15B C5B 1_555 1_555
H16B C5B 1_555 1_555
H17B C6B 1_555 1_555
H18B C6B 1_555 1_555
C13B C14 1_555 1_555
H25B C13B 1_555 1_555
H26B C13B 1_555 1_555
C16B C15 1_555 1_555
N3B C16B 1_555 1_555
Cu1B_2 N3B 1_555 1_555
C15B C16 1_555 1_555
H27B C15B 1_555 1_555
H28B C16B 1_555 1_555
H23B C11B 1_555 1_555
H24B C11B 1_555 1_555
H19B C7B 1_555 1_555
H20B C7B 1_555 1_555
N3B_2 Cu1B 1_555 1_555
O12B C14B 1_555 1_555
O8 C10 1_555 1_555
C1 C2 1_555 1_555
C5 C6 1_555 1_555
C9 C10 1_555 1_555
C11 C12 1_555 1_555
C7B N1B 1_555 1_555
N1B C9B 1_555 1_555
C11B N2B 1_555 1_555
N2B C13B 1_555 1_555
C2B C1B 1_555 1_555
C4B C3B 1_555 1_555
N3B C15B 1_555 1_555

#END
