
#######################################################################
#
#                 Cambridge Crystallographic Data Centre
#                                CCDC 
#
#######################################################################
#
# If this CIF has been generated from an entry in the Cambridge 
# Structural Database, then it will include bibliographic, chemical, 
# crystal, experimental, refinement or atomic coordinate data resulting 
# from the CCDC's data processing and validation procedures.
#
#######################################################################

data_QAGKEQ
_symmetry_cell_setting           orthorhombic
_symmetry_space_group_name_H-M   'P 21 21 21'
_symmetry_Int_Tables_number      19
_space_group_name_Hall           'P 2ac 2ab'
loop_
_symmetry_equiv_pos_site_id
_symmetry_equiv_pos_as_xyz
1 x,y,z
2 1/2-x,-y,1/2+z
3 -x,1/2+y,1/2-z
4 1/2+x,1/2-y,-z
_cell_length_a                   13.9669(14)
_cell_length_b                   13.9785(14)
_cell_length_c                   28.752(3)
_cell_angle_alpha                90
_cell_angle_beta                 90
_cell_angle_gamma                90
_cell_volume                     5613.43
loop_
_atom_site_label
_atom_site_type_symbol
_atom_site_fract_x
_atom_site_fract_y
_atom_site_fract_z
Zn1 Zn 1.02414(5) -0.11738(6) 0.34240(3)
Zn2 Zn 1.94992(5) 0.66481(6) 0.33825(3)
Zn3 Zn 0.09635(5) 0.73764(6) 0.41703(3)
Zn4 Zn 0.88057(5) -0.19357(5) 0.42045(3)
O1 O 0.8034(4) -0.1037(4) 0.3794(2)
O2 O 1.8690(5) 0.5924(4) 0.3836(2)
O3 O 0.1685(4) 0.6295(4) 0.39274(17)
O4 O 1.1890(4) -0.1571(4) 0.4142(2)
O5 O 0.0746(4) 0.5997(4) 0.33132(18)
O6 O 0.9213(4) -0.0226(4) 0.3439(2)
O7 O 0.9887(3) -0.2256(3) 0.37989(15)
O8 O 1.7833(4) 0.7034(4) 0.4179(2)
O9 O 1.5707(4) 0.2483(4) 0.78095(16)
O10 O 1.8925(4) 0.5660(4) 0.2911(2)
O11 O 1.1386(3) -0.0478(4) 0.36323(16)
O12 O 0.5759(5) 0.2575(6) -0.01834(19)
O13 O 0.4214(4) 0.2809(5) -0.01732(17)
O14 O 1.4521(4) 0.1442(4) 0.77572(15)
O15 O 0.8920(7) -0.0697(6) 0.4611(3)
C1 C 1.7226(7) 0.6139(7) 0.2822(4)
H1 H 1.7067 0.6188 0.3149
H2 H 1.7334 0.6777 0.2700
C2 C 0.7390(9) -0.0513(8) 0.4970(3)
H3 H 0.7497 -0.0951 0.5227
H4 H 0.7052 -0.0860 0.4728
N1 N 0.8320(9) 0.0769(9) 0.4860(5)
H5 H 0.8801 0.1108 0.4772
N2 N 1.7862(5) 0.4799(5) 0.2499(2)
H6 H 1.8263 0.4360 0.2422
C3 C 1.3938(5) 0.1202(5) 0.4552(2)
C4 C 1.8015(6) 0.6196(6) 0.4076(2)
C5 C 0.3812(5) 0.4538(6) 0.3380(3)
H7 H 0.4409 0.4489 0.3521
C6 C 0.1494(5) 0.5887(5) 0.3555(2)
C7 C 0.3118(5) 0.5125(6) 0.3574(3)
H8 H 0.3249 0.5457 0.3847
C8 C 1.5104(5) 0.2361(5) 0.6094(2)
C9 C 0.4997(6) 0.2668(7) 0.0023(3)
C10 C 1.5620(5) 0.3220(5) 0.4861(2)
C11 C 1.8108(7) 0.5527(6) 0.2756(3)
C12 C 1.7378(5) 0.4510(5) 0.4080(2)
H9 H 1.7781 0.4375 0.3831
C13 C 1.5107(5) 0.2023(5) 0.7580(2)
C14 C 1.4537(5) 0.1892(5) 0.4811(2)
C15 C 0.6374(5) 0.1691(5) 0.3030(2)
C16 C 0.4364(5) 0.3421(6) 0.2754(2)
C17 C 1.6723(5) 0.5645(6) 0.4612(2)
H10 H 1.6678 0.6269 0.4722
C18 C 1.3399(5) 0.1467(5) 0.4166(2)
H11 H 1.3457 0.2082 0.4046
C19 C 0.6100(5) 0.1053(5) 0.3375(2)
H12 H 0.5475 0.1063 0.3486
C20 C 0.6733(5) 0.0417(6) 0.3552(2)
H13 H 0.6534 -0.0019 0.3776
C21 C 1.4868(5) 0.1485(5) 0.6300(2)
H14 H 1.4733 0.0961 0.6111
C22 C 1.2774(5) 0.0823(5) 0.3960(2)
H15 H 1.2421 0.1011 0.3701
C23 C 0.3623(5) 0.4025(6) 0.2978(2)
C24 C 0.5002(5) 0.2848(6) 0.3001(2)
H16 H 0.4976 0.2843 0.3325
C25 C 1.6205(5) 0.3999(5) 0.4633(2)
C26 C 0.7953(5) 0.1069(6) 0.3083(3)
H17 H 0.8592 0.1091 0.2993
C27 C 0.2732(5) 0.4106(6) 0.2772(2)
H18 H 0.2601 0.3762 0.2503
C28 C 1.5087(5) 0.2586(5) 0.4600(2)
H19 H 1.5100 0.2627 0.4277
C29 C 0.5676(5) 0.2287(5) 0.2775(2)
C30 C 1.5112(5) 0.2143(5) 0.7063(2)
C31 C 0.7321(6) 0.1699(6) 0.2890(3)
H20 H 0.7527 0.2132 0.2666
C32 C 1.6169(5) 0.4936(5) 0.4800(2)
H21 H 1.5759 0.5083 0.5045
C33 C 1.3229(5) -0.0362(5) 0.4513(2)
H22 H 1.3173 -0.0982 0.4627
C34 C 1.6822(5) 0.3798(5) 0.4264(2)
H23 H 1.6856 0.3182 0.4143
C35 C 1.5358(5) 0.3108(5) 0.6383(2)
H24 H 1.5521 0.3696 0.6254
C36 C 1.3856(6) 0.0261(5) 0.4722(2)
H25 H 1.4223 0.0062 0.4974
C37 C 1.5096(5) 0.2456(4) 0.5576(2)
C38 C 0.5682(5) 0.2278(5) 0.2289(2)
H26 H 0.6122 0.1891 0.2136
C39 C 0.5058(5) 0.2824(5) 0.2028(2)
C40 C 0.2228(5) 0.5219(5) 0.3362(3)
C41 C 1.5376(5) 0.2995(6) 0.6861(2)
H27 H 1.5569 0.3503 0.7048
C42 C 1.5646(5) 0.3136(5) 0.53494(19)
H28 H 1.6038 0.3542 0.5521
C43 C 1.2670(5) -0.0082(5) 0.4131(2)
C44 C 1.7347(5) 0.5418(5) 0.4258(2)
C45 C 1.4833(5) 0.1384(5) 0.6775(2)
H29 H 1.4623 0.0812 0.6905
C46 C 1.4534(5) 0.1854(5) 0.5309(2)
H30 H 1.4143 0.1410 0.5457
C47 C 0.4402(5) 0.3401(6) 0.2261(2)
H31 H 0.3981 0.3780 0.2091
C48 C 0.7670(5) 0.0410(5) 0.3403(3)
C49 C 1.6459(8) 0.5673(10) 0.2570(5)
H32 H 1.6211 0.6096 0.2331
H33 H 1.5941 0.5511 0.2780
C50 C 0.7456(12) 0.1124(11) 0.5093(6)
H34 H 0.7151 0.1624 0.4912
H35 H 0.7604 0.1370 0.5400
C51 C 0.2026(6) 0.4695(6) 0.2962(3)
H36 H 0.1427 0.4737 0.2822
C52 C 1.6863(7) 0.4775(8) 0.2351(4)
H37 H 1.6541 0.4208 0.2466
H38 H 1.6811 0.4795 0.2015
C53 C 0.8220(11) -0.0234(9) 0.4808(4)
C54 C 0.6818(9) 0.0237(12) 0.5123(5)
H39 H 0.6609 0.0130 0.5441
H40 H 0.6258 0.0307 0.4926
C55 C 0.5025(6) 0.2715(6) 0.0546(2)
C56 C 0.8367(5) -0.0346(5) 0.3564(3)
C57 C 0.5062(5) 0.2782(5) 0.1513(2)
C58 C 0.4205(5) 0.2940(6) 0.1269(2)
H41 H 0.3637 0.3057 0.1429
C59 C 0.5884(5) 0.2563(5) 0.1262(2)
H42 H 0.6455 0.2449 0.1418
C60 C 0.4218(5) 0.2918(5) 0.0787(2)
H43 H 0.3657 0.3047 0.0624
C61 C 1.1931(5) -0.0764(5) 0.3952(2)
C62 C 0.5862(5) 0.2513(5) 0.0783(3)
H44 H 0.6411 0.2343 0.0619
Zn1A Zn 1.47586(5) 0.11738(6) 0.84240(3)
Zn2_2 Zn -0.05008(5) 0.66481(6) 0.33825(3)
Zn2_3 Zn 0.94992(5) -0.33519(6) 0.33825(3)
Zn2A Zn 1.55008(5) 0.33519(6) 0.83825(3)
Zn3_2 Zn 1.09635(5) -0.26236(6) 0.41703(3)
Zn3A Zn 0.40365(5) 0.26236(6) -0.08297(3)
Zn4_2 Zn 1.88057(5) 0.80643(5) 0.42045(3)
Zn4A Zn 0.61943(5) 0.19357(5) -0.07955(3)
O4_2 O 0.1890(4) 0.8429(4) 0.4142(2)
O5_2 O 2.0746(4) 0.5997(4) 0.33132(18)
O7_2 O 1.9887(3) 0.7744(3) 0.37989(15)
O7_3 O -0.0113(3) 0.7744(3) 0.37989(15)
O8_2 O 0.7833(4) -0.2966(4) 0.4179(2)
O9A O 1.9293(4) 0.7517(4) 0.28095(16)
O12A O 0.9241(5) -0.2575(6) 0.48166(19)
O13A O 0.0786(4) 0.7191(5) 0.48268(17)
O14A O 1.0479(4) -0.1442(4) 0.27572(15)
loop_
_geom_bond_atom_site_label_1
_geom_bond_atom_site_label_2
_geom_bond_site_symmetry_1
_geom_bond_site_symmetry_2
Zn1 O6 1_555 1_555
Zn2 O2 1_555 1_555
Zn3 O3 1_555 1_555
Zn4 O1 1_555 1_555
O1 C56 1_555 1_555
O2 C4 1_555 1_555
O3 C6 1_555 1_555
O4 C61 1_555 1_555
O5 C6 1_555 1_555
O6 C56 1_555 1_555
O7 Zn1 1_555 1_555
O8 C4 1_555 1_555
O9 C13 1_555 1_555
O10 Zn2 1_555 1_555
O11 Zn1 1_555 1_555
O12 C9 1_555 1_555
O13 C9 1_555 1_555
O14 C13 1_555 1_555
O15 Zn4 1_555 1_555
C1 H1 1_555 1_555
H2 C1 1_555 1_555
C2 H3 1_555 1_555
H4 C2 1_555 1_555
N1 H5 1_555 1_555
N2 H6 1_555 1_555
C3 C14 1_555 1_555
C4 C44 1_555 1_555
C5 H7 1_555 1_555
C6 C40 1_555 1_555
C7 C5 1_555 1_555
H8 C7 1_555 1_555
C8 C21 1_555 1_555
C9 C55 1_555 1_555
C10 C25 1_555 1_555
C11 O10 1_555 1_555
C12 H9 1_555 1_555
C13 C30 1_555 1_555
C14 C28 1_555 1_555
C15 C19 1_555 1_555
C16 C23 1_555 1_555
C17 H10 1_555 1_555
C18 C3 1_555 1_555
H11 C18 1_555 1_555
C19 H12 1_555 1_555
C20 C19 1_555 1_555
H13 C20 1_555 1_555
C21 H14 1_555 1_555
C22 C18 1_555 1_555
H15 C22 1_555 1_555
C23 C5 1_555 1_555
C24 C16 1_555 1_555
H16 C24 1_555 1_555
C25 C32 1_555 1_555
C26 H17 1_555 1_555
C27 C23 1_555 1_555
H18 C27 1_555 1_555
C28 C10 1_555 1_555
H19 C28 1_555 1_555
C29 C15 1_555 1_555
C30 C41 1_555 1_555
C31 C15 1_555 1_555
H20 C31 1_555 1_555
C32 C17 1_555 1_555
H21 C32 1_555 1_555
C33 H22 1_555 1_555
C34 C12 1_555 1_555
H23 C34 1_555 1_555
C35 C8 1_555 1_555
H24 C35 1_555 1_555
C36 C3 1_555 1_555
H25 C36 1_555 1_555
C37 C8 1_555 1_555
C38 C29 1_555 1_555
H26 C38 1_555 1_555
C39 C38 1_555 1_555
C40 C7 1_555 1_555
C41 C35 1_555 1_555
H27 C41 1_555 1_555
C42 C10 1_555 1_555
H28 C42 1_555 1_555
C43 C22 1_555 1_555
C44 C12 1_555 1_555
C45 C21 1_555 1_555
H29 C45 1_555 1_555
C46 C14 1_555 1_555
H30 C46 1_555 1_555
C47 C16 1_555 1_555
H31 C47 1_555 1_555
C48 C20 1_555 1_555
C49 C1 1_555 1_555
H32 C49 1_555 1_555
H33 C49 1_555 1_555
C50 N1 1_555 1_555
H34 C50 1_555 1_555
H35 C50 1_555 1_555
C51 C27 1_555 1_555
H36 C51 1_555 1_555
C52 N2 1_555 1_555
H37 C52 1_555 1_555
H38 C52 1_555 1_555
C53 O15 1_555 1_555
C54 C2 1_555 1_555
H39 C54 1_555 1_555
H40 C54 1_555 1_555
C55 C60 1_555 1_555
C56 C48 1_555 1_555
C57 C39 1_555 1_555
C58 C57 1_555 1_555
H41 C58 1_555 1_555
C59 C57 1_555 1_555
H42 C59 1_555 1_555
C60 C58 1_555 1_555
H43 C60 1_555 1_555
C61 O11 1_555 1_555
C62 C55 1_555 1_555
H44 C62 1_555 1_555
Zn1A O14 1_555 1_555
Zn2_2 O5 1_555 1_555
Zn2_3 O7 1_555 1_555
Zn2A O9 1_555 1_555
Zn3_2 O4 1_555 1_555
Zn3A O13 1_555 1_555
Zn4_2 O8 1_555 1_555
Zn4A O12 1_555 1_555
O4_2 Zn3 1_555 1_555
O5_2 Zn2 1_555 1_555
O7_2 Zn2 1_555 1_555
O7_3 Zn3 1_555 1_555
O8_2 Zn4 1_555 1_555
O9A Zn2 1_555 1_555
O12A Zn4 1_555 1_555
O13A Zn3 1_555 1_555
O14A Zn1 1_555 1_555
Zn4 O7 1_555 1_555
O7 Zn3_2 1_555 1_555
C1 C11 1_555 1_555
C2 C53 1_555 1_555
N1 C53 1_555 1_555
N2 C11 1_555 1_555
C17 C44 1_555 1_555
C24 C29 1_555 1_555
C25 C34 1_555 1_555
C26 C31 1_555 1_555
C26 C48 1_555 1_555
C30 C45 1_555 1_555
C33 C36 1_555 1_555
C33 C43 1_555 1_555
C37 C42 1_555 1_555
C37 C46 1_555 1_555
C39 C47 1_555 1_555
C40 C51 1_555 1_555
C43 C61 1_555 1_555
C49 C52 1_555 1_555
C50 C54 1_555 1_555
C59 C62 1_555 1_555
Zn2_2 O7_3 1_555 1_555
Zn4_2 O7_2 1_555 1_555

#END
