
#######################################################################
#
#                 Cambridge Crystallographic Data Centre
#                                CCDC 
#
#######################################################################
#
# If this CIF has been generated from an entry in the Cambridge 
# Structural Database, then it will include bibliographic, chemical, 
# crystal, experimental, refinement or atomic coordinate data resulting 
# from the CCDC's data processing and validation procedures.
#
#######################################################################

data_QAGKIU
_symmetry_cell_setting           monoclinic
_symmetry_space_group_name_H-M   'P 21/c'
_symmetry_Int_Tables_number      14
_space_group_name_Hall           '-P 2ybc'
loop_
_symmetry_equiv_pos_site_id
_symmetry_equiv_pos_as_xyz
1 x,y,z
2 -x,1/2+y,1/2-z
3 -x,-y,-z
4 x,1/2-y,1/2+z
_cell_length_a                   7.6945(5)
_cell_length_b                   19.7435(13)
_cell_length_c                   18.5793(11)
_cell_angle_alpha                90
_cell_angle_beta                 106.011(2)
_cell_angle_gamma                90
_cell_volume                     2713.01
loop_
_atom_site_label
_atom_site_type_symbol
_atom_site_fract_x
_atom_site_fract_y
_atom_site_fract_z
Cd1 Cd 0.30182(5) 0.16037(2) 0.12798(2)
S1 S 0.5004(3) -0.10600(11) 0.23535(11)
O1 O 0.3605(10) 0.0208(5) 0.1391(3)
O2 O 0.4470(7) 0.0957(3) 0.2293(3)
O3 O 0.5730(6) -0.2494(3) 0.2910(3)
O4 O 0.7236(6) -0.2228(2) 0.4062(3)
O5 O 0.1156(5) 0.1370(2) 0.0105(2)
O6 O 0.5517(5) 0.1561(2) 0.0827(2)
O7 O 0.0297(5) 0.1587(2) 0.1558(2)
N1 N 0.4461(8) 0.2135(4) -0.0395(3)
H1 H 0.3326 0.2043 -0.0551
N2 N 0.1362(9) 0.1813(5) 0.2907(4)
H2 H 0.2510 0.1861 0.2984
N3 N 0.0128(9) 0.0825(4) -0.1125(4)
N4 N 0.2273(7) 0.0350(3) -0.0138(3)
N5 N 0.7453(7) 0.1998(3) 0.0217(3)
N6 N -0.1611(7) 0.1623(3) 0.2295(3)
C1 C 0.0291(9) 0.1860(5) 0.3471(4)
H3 H 0.0692 0.1518 0.3856
H4 H 0.0454 0.2302 0.3709
C2 C 0.5575(9) 0.2610(4) -0.0744(4)
C3 C 0.5906(8) -0.1343(4) 0.3232(4)
C4 C -0.1649(11) 0.1753(7) 0.3062(4)
C5 C 0.7503(9) 0.2341(4) -0.0465(4)
C6 C 0.2010(14) -0.0152(5) -0.0732(5)
C7 C 0.6113(11) -0.0798(4) 0.3709(4)
H5 H 0.6572 -0.0838 0.4225
C8 C 0.4967(8) -0.0204(3) 0.2587(4)
C9 C 0.4290(8) 0.0363(4) 0.2050(4)
C10 C 0.0990(11) 0.0234(4) -0.1418(4)
C11 C 0.5564(11) -0.0165(4) 0.3344(4)
H6 H 0.5611 0.0240 0.3605
C12 C 0.1243(7) 0.0886(3) -0.0318(3)
C13 C 0.5829(7) 0.1869(3) 0.0284(3)
C14 C -0.0011(7) 0.1665(3) 0.2185(3)
C15 C 0.6302(7) -0.2071(3) 0.3413(4)
H7 H 0.773(9) 0.205(3) -0.081(4)
H8 H 0.298(8) 0.030(3) 0.028(4)
H9 H 0.522(7) 0.261(3) -0.119(4)
H10 H -0.253(11) 0.156(4) 0.196(5)
H11 H 0.833(9) 0.264(3) -0.032(3)
H12 H 0.564(9) 0.302(4) -0.059(4)
H13 H 0.053(14) 0.134(6) -0.143(6)
H14 H 0.314(10) -0.032(4) -0.070(4)
H15 H 0.170(12) -0.040(4) -0.065(5)
H16 H 0.202(10) 0.042(4) -0.165(4)
H17 H 0.028(12) 0.001(5) -0.169(5)
H18 H 0.817(8) 0.194(3) 0.046(4)
H19 H -0.233(14) 0.207(5) 0.308(6)
H20 H -0.220(12) 0.146(4) 0.328(5)
Cd1A Cd 0.69818(5) -0.33963(2) 0.37202(2)
O3A O 0.4270(6) 0.2506(3) 0.2090(3)
O4A O 0.2764(6) 0.2772(2) 0.0938(3)
O8 O -0.0982(10) 0.0892(4) 0.4802(3)
N7 N -0.1280(13) 0.1334(6) 0.5985(5)
H21 H -0.1702 0.1736 0.5872
N8 N -0.0445(11) 0.0242(6) 0.5841(4)
C16 C -0.0420(13) 0.0270(6) 0.6622(4)
H22 H 0.0737 0.0118 0.6940
H23 H -0.1368 -0.0011 0.6715
C17 C -0.0729(13) 0.0996(7) 0.6761(5)
C18 C -0.0905(11) 0.0797(6) 0.5466(4)
H24 H -0.023(10) -0.008(4) 0.572(4)
H25 H 0.045(14) 0.121(5) 0.705(6)
H26 H -0.165(14) 0.101(5) 0.695(6)
loop_
_geom_bond_atom_site_label_1
_geom_bond_atom_site_label_2
_geom_bond_site_symmetry_1
_geom_bond_site_symmetry_2
Cd1 O2 1_555 1_555
S1 C3 1_555 1_555
O1 C9 1_555 1_555
O2 C9 1_555 1_555
O3 C15 1_555 1_555
O4 C15 1_555 1_555
O5 Cd1 1_555 1_555
O6 Cd1 1_555 1_555
O7 Cd1 1_555 1_555
N1 H1 1_555 1_555
N2 H2 1_555 1_555
N3 C10 1_555 1_555
N4 C6 1_555 1_555
N5 C5 1_555 1_555
N6 C4 1_555 1_555
C1 N2 1_555 1_555
H3 C1 1_555 1_555
H4 C1 1_555 1_555
C2 N1 1_555 1_555
C3 C7 1_555 1_555
C4 C1 1_555 1_555
C5 C2 1_555 1_555
C6 C10 1_555 1_555
C7 H5 1_555 1_555
C8 S1 1_555 1_555
C9 C8 1_555 1_555
C10 H16 1_555 1_555
C11 C7 1_555 1_555
H6 C11 1_555 1_555
C12 O5 1_555 1_555
C13 O6 1_555 1_555
C14 O7 1_555 1_555
C15 C3 1_555 1_555
H7 C5 1_555 1_555
H8 N4 1_555 1_555
H9 C2 1_555 1_555
H10 N6 1_555 1_555
H11 C5 1_555 1_555
H12 C2 1_555 1_555
H13 N3 1_555 1_555
H14 C6 1_555 1_555
H15 C6 1_555 1_555
H17 C10 1_555 1_555
H18 N5 1_555 1_555
H19 C4 1_555 1_555
H20 C4 1_555 1_555
O8 C18 1_555 1_555
N7 H21 1_555 1_555
N8 C16 1_555 1_555
C16 H22 1_555 1_555
H23 C16 1_555 1_555
C17 N7 1_555 1_555
C18 N7 1_555 1_555
H24 N8 1_555 1_555
H25 C17 1_555 1_555
H26 C17 1_555 1_555
Cd1A O3 1_555 1_555
O3A Cd1 1_555 1_555
O4A Cd1 1_555 1_555
O4 Cd1A 1_555 1_555
N1 C13 1_555 1_555
N2 C14 1_555 1_555
N3 C12 1_555 1_555
N4 C12 1_555 1_555
N5 C13 1_555 1_555
N6 C14 1_555 1_555
C8 C11 1_555 1_555
N8 C18 1_555 1_555
C16 C17 1_555 1_555

#END
