
#######################################################################
#
#                 Cambridge Crystallographic Data Centre
#                                CCDC 
#
#######################################################################
#
# If this CIF has been generated from an entry in the Cambridge 
# Structural Database, then it will include bibliographic, chemical, 
# crystal, experimental, refinement or atomic coordinate data resulting 
# from the CCDC's data processing and validation procedures.
#
#######################################################################

data_QAGSIC
_symmetry_cell_setting           monoclinic
_symmetry_space_group_name_H-M   'P 2/c'
_symmetry_Int_Tables_number      13
_space_group_name_Hall           '-P 2yc'
loop_
_symmetry_equiv_pos_site_id
_symmetry_equiv_pos_as_xyz
1 x,y,z
2 -x,y,1/2-z
3 -x,-y,-z
4 x,-y,1/2+z
_cell_length_a                   12.302(3)
_cell_length_b                   7.1400(14)
_cell_length_c                   13.683(3)
_cell_angle_alpha                90
_cell_angle_beta                 114.78(3)
_cell_angle_gamma                90
_cell_volume                     1091.2
loop_
_atom_site_label
_atom_site_type_symbol
_atom_site_fract_x
_atom_site_fract_y
_atom_site_fract_z
I1 I 0.53909(5) 0.21975(8) 0.41963(4)
Zn1 Zn 0.5000 0.40792(15) 0.2500
O1 O 0.1164(4) 0.8799(6) 0.3660(4)
N1 N 0.1323(5) 0.5629(7) 0.3785(4)
H1 H 0.1631 0.4664 0.3622
N2 N 0.3647(4) 0.5966(7) 0.2246(4)
C1 C 0.2131(5) 0.7263(8) 0.2707(5)
C2 C 0.3073(5) 0.6050(8) 0.2892(5)
H2 H 0.3319 0.5261 0.3486
C3 C 0.3284(6) 0.7102(10) 0.1390(6)
H3 H 0.3678 0.7045 0.0941
C4 C 0.2351(6) 0.8357(10) 0.1145(5)
H4 H 0.2115 0.9123 0.0541
C5 C 0.1775(5) 0.8436(9) 0.1832(5)
H5 H 0.1153 0.9280 0.1699
C6 C 0.1502(5) 0.7310(8) 0.3431(5)
C7 C 0.0660(5) 0.5340(9) 0.4409(5)
C8 C 0.0831(6) 0.6434(9) 0.5293(5)
H6 H 0.1389 0.7399 0.5492
C9 C -0.0172(6) 0.3901(8) 0.4117(5)
H7 H -0.0289 0.3159 0.3522
I1A I 0.46091(5) 0.21975(8) 0.08037(4)
Zn1B Zn -0.5000 0.59208(15) 0.7500
O1B O -0.1164(4) 0.1201(6) 0.6340(4)
N1B N -0.1323(5) 0.4371(7) 0.6215(4)
H1B H -0.1631 0.5336 0.6378
N2B N -0.3647(4) 0.4034(7) 0.7754(4)
N2A N 0.6353(4) 0.5966(7) 0.2754(4)
C1B C -0.2131(5) 0.2737(8) 0.7293(5)
C2B C -0.3073(5) 0.3950(8) 0.7108(5)
H2B H -0.3319 0.4739 0.6514
C3B C -0.3284(6) 0.2898(10) 0.8610(6)
H3B H -0.3678 0.2955 0.9059
C4B C -0.2351(6) 0.1643(10) 0.8855(5)
H4B H -0.2115 0.0877 0.9459
C5B C -0.1775(5) 0.1564(9) 0.8168(5)
H5B H -0.1153 0.0720 0.8301
C6B C -0.1502(5) 0.2690(8) 0.6569(5)
C7B C -0.0660(5) 0.4660(9) 0.5591(5)
C8B C -0.0831(6) 0.3566(9) 0.4707(5)
H6B H -0.1389 0.2601 0.4508
C9B C 0.0172(6) 0.6099(8) 0.5883(5)
H7B H 0.0289 0.6841 0.6478
O2 O 0.2146(6) 0.2101(7) 0.3432(6)
loop_
_geom_bond_atom_site_label_1
_geom_bond_atom_site_label_2
_geom_bond_site_symmetry_1
_geom_bond_site_symmetry_2
I1 Zn1 1_555 1_555
Zn1 N2 1_555 1_555
O1 C6 1_555 1_555
N1 H1 1_555 1_555
N2 C2 1_555 1_555
C1 C2 1_555 1_555
C2 H2 1_555 1_555
C3 N2 1_555 1_555
H3 C3 1_555 1_555
C4 C3 1_555 1_555
H4 C4 1_555 1_555
C5 C1 1_555 1_555
H5 C5 1_555 1_555
C6 N1 1_555 1_555
C7 N1 1_555 1_555
C8 C7 1_555 1_555
H6 C8 1_555 1_555
C9 C7 1_555 1_555
H7 C9 1_555 1_555
I1A Zn1 1_555 1_555
Zn1B N2B 1_555 1_555
O1B C6B 1_555 1_555
N1B H1B 1_555 1_555
N2B C2B 1_555 1_555
N2A Zn1 1_555 1_555
C1B C2B 1_555 1_555
C2B H2B 1_555 1_555
C3B N2B 1_555 1_555
H3B C3B 1_555 1_555
C4B C3B 1_555 1_555
H4B C4B 1_555 1_555
C5B C1B 1_555 1_555
H5B C5B 1_555 1_555
C6B N1B 1_555 1_555
C7B N1B 1_555 1_555
C8B C9 1_555 1_555
H6B C8B 1_555 1_555
C9B C8 1_555 1_555
H7B C9B 1_555 1_555
C1 C6 1_555 1_555
C4 C5 1_555 1_555
C1B C6B 1_555 1_555
C4B C5B 1_555 1_555
C7B C8B 1_555 1_555
C7B C9B 1_555 1_555

#END
