
#######################################################################
#
#                 Cambridge Crystallographic Data Centre
#                                CCDC 
#
#######################################################################
#
# If this CIF has been generated from an entry in the Cambridge 
# Structural Database, then it will include bibliographic, chemical, 
# crystal, experimental, refinement or atomic coordinate data resulting 
# from the CCDC's data processing and validation procedures.
#
#######################################################################

data_QAGTIB
_symmetry_cell_setting           tetragonal
_symmetry_space_group_name_H-M   'I 41/a c d'
_symmetry_Int_Tables_number      142
_space_group_name_Hall           '-I 4bd 2c'
loop_
_symmetry_equiv_pos_site_id
_symmetry_equiv_pos_as_xyz
1 x,y,z
2 1/4-y,3/4+x,1/4+z
3 1/4+y,1/4-x,3/4+z
4 1/4+y,3/4+x,3/4-z
5 1/4-y,1/4-x,1/4-z
6 1/2+x,1/2+y,1/2+z
7 3/4-y,1/4+x,3/4+z
8 3/4+y,3/4-x,1/4+z
9 3/4+y,1/4+x,1/4-z
10 1/2-x,-y,1/2+z
11 1/2-x,y,-z
12 x,-y,1/2-z
13 -x,1/2-y,z
14 -x,1/2+y,1/2-z
15 1/2+x,1/2-y,-z
16 3/4-y,3/4-x,3/4-z
17 -x,-y,-z
18 3/4+y,1/4-x,3/4-z
19 3/4-y,3/4+x,1/4-z
20 3/4-y,1/4-x,1/4+z
21 3/4+y,3/4+x,3/4+z
22 1/2-x,1/2-y,1/2-z
23 1/4+y,3/4-x,1/4-z
24 1/4-y,1/4+x,3/4-z
25 1/4-y,3/4-x,3/4+z
26 1/2+x,y,1/2-z
27 1/2+x,-y,z
28 -x,y,1/2+z
29 x,1/2+y,-z
30 x,1/2-y,1/2+z
31 1/2-x,1/2+y,z
32 1/4+y,1/4+x,1/4+z
_cell_length_a                   14.790(3)
_cell_length_b                   14.790(3)
_cell_length_c                   38.519(7)
_cell_angle_alpha                90
_cell_angle_beta                 90
_cell_angle_gamma                90
_cell_volume                     8425.8
loop_
_atom_site_label
_atom_site_type_symbol
_atom_site_fract_x
_atom_site_fract_y
_atom_site_fract_z
Cu1 Cu -0.43278(4) -0.68018(4) 0.018800(13)
I1 I -0.60801(2) -0.64781(2) 0.030310(8)
N1 N -0.3738(3) -0.6068(3) 0.05730(9)
C1 C -0.3280(3) -0.5306(3) 0.05085(11)
H1 H -0.3235(3) -0.5103(3) 0.02751(11)
C2 C -0.2870(3) -0.4801(3) 0.07650(11)
H2 H -0.2551(3) -0.4266(3) 0.07057(11)
C3 C -0.2921(3) -0.5073(3) 0.11104(11)
C4 C -0.3423(3) -0.5851(3) 0.11792(10)
H3 H -0.3495(3) -0.6057(3) 0.14112(10)
C5 C -0.3812(3) -0.6319(3) 0.09093(11)
H4 H -0.4151(3) -0.6847(3) 0.09619(11)
N2 N -0.4104(3) -0.6601(3) -0.03236(9)
C6 C -0.3548(4) -0.7129(4) -0.05065(13)
H5 H -0.3164(4) -0.7533(4) -0.03839(13)
C7 C -0.3502(4) -0.7120(4) -0.08682(12)
H6 H -0.3090(4) -0.7508(4) -0.09845(12)
C8 C -0.4050(3) -0.6552(3) -0.10578(11)
C9 C -0.4597(4) -0.5981(4) -0.08658(12)
H7 H -0.4970(4) -0.5554(4) -0.09818(12)
C10 C -0.4606(4) -0.6022(4) -0.05076(13)
H8 H -0.4990(4) -0.5618(4) -0.03854(13)
C3D C -0.2427(3) -0.4579(3) 0.13896(11)
C2D C -0.2699(3) -0.4630(3) 0.17350(11)
C1D C -0.2194(3) -0.4220(3) 0.19915(11)
N1D N -0.1432(3) -0.3762(3) 0.19270(9)
C5D C -0.1181(3) -0.3688(3) 0.15907(11)
C4D C -0.1649(3) -0.4077(3) 0.13208(10)
H3D H -0.1443(3) -0.4005(3) 0.10888(10)
H4D H -0.0653(3) -0.3349(3) 0.15381(11)
H1D H -0.2397(3) -0.4265(3) 0.22249(11)
H2D H -0.3234(3) -0.4949(3) 0.17943(11)
C8C C -0.4052(3) -0.6550(3) -0.14422(11)
C7C C -0.4620(4) -0.6002(4) -0.16318(12)
C6C C -0.4629(4) -0.6048(4) -0.19935(13)
N2C N -0.4101(3) -0.6604(3) -0.21764(9)
C10C C -0.3522(4) -0.7106(4) -0.19924(13)
C9C C -0.3481(4) -0.7097(4) -0.16342(12)
H7C H -0.3054(4) -0.7470(4) -0.15182(12)
H8C H -0.3118(4) -0.7490(4) -0.21146(13)
H5C H -0.5033(4) -0.5664(4) -0.21161(13)
H6C H -0.5008(4) -0.5590(4) -0.15155(12)
I1L I -0.39199(2) -0.85219(2) 0.030310(8)
Cu1L Cu -0.56722(4) -0.81982(4) 0.018800(13)
Cu1D Cu -0.06982(4) -0.31722(4) 0.231200(13)
Cu1C Cu -0.43018(4) -0.68278(4) -0.268800(13)
N1L N -0.6262(3) -0.8932(3) 0.05730(9)
N2L N -0.5896(3) -0.8399(3) -0.03236(9)
loop_
_geom_bond_atom_site_label_1
_geom_bond_atom_site_label_2
_geom_bond_site_symmetry_1
_geom_bond_site_symmetry_2
Cu1 I1 1_555 1_555
I1 Cu1L 1_555 1_555
N1 Cu1 1_555 1_555
C1 N1 1_555 1_555
H1 C1 1_555 1_555
C2 C1 1_555 1_555
H2 C2 1_555 1_555
C3 C2 1_555 1_555
C4 C3 1_555 1_555
H3 C4 1_555 1_555
C5 N1 1_555 1_555
H4 C5 1_555 1_555
N2 Cu1 1_555 1_555
C6 N2 1_555 1_555
H5 C6 1_555 1_555
C7 C6 1_555 1_555
H6 C7 1_555 1_555
C8 C7 1_555 1_555
C9 C8 1_555 1_555
H7 C9 1_555 1_555
C10 N2 1_555 1_555
H8 C10 1_555 1_555
C3D C3 1_555 1_555
C2D C3D 1_555 1_555
C1D C2D 1_555 1_555
N1D C1D 1_555 1_555
C5D N1D 1_555 1_555
C4D C3D 1_555 1_555
H3D C4D 1_555 1_555
H4D C5D 1_555 1_555
H1D C1D 1_555 1_555
H2D C2D 1_555 1_555
C8C C8 1_555 1_555
C7C C8C 1_555 1_555
C6C C7C 1_555 1_555
N2C C6C 1_555 1_555
C10C N2C 1_555 1_555
C9C C8C 1_555 1_555
H7C C9C 1_555 1_555
H8C C10C 1_555 1_555
H5C C6C 1_555 1_555
H6C C7C 1_555 1_555
I1L Cu1 1_555 1_555
Cu1L I1L 1_555 1_555
Cu1D N1D 1_555 1_555
Cu1C N2C 1_555 1_555
N1L Cu1L 1_555 1_555
N2L Cu1L 1_555 1_555
C4 C5 1_555 1_555
C9 C10 1_555 1_555
C5D C4D 1_555 1_555
C10C C9C 1_555 1_555

#END
