
#######################################################################
#
#                 Cambridge Crystallographic Data Centre
#                                CCDC 
#
#######################################################################
#
# If this CIF has been generated from an entry in the Cambridge 
# Structural Database, then it will include bibliographic, chemical, 
# crystal, experimental, refinement or atomic coordinate data resulting 
# from the CCDC's data processing and validation procedures.
#
#######################################################################

data_QAGTEX01
_symmetry_cell_setting           tetragonal
_symmetry_space_group_name_H-M   'I 41/a c d'
_symmetry_Int_Tables_number      142
_space_group_name_Hall           '-I 4bd 2c'
loop_
_symmetry_equiv_pos_site_id
_symmetry_equiv_pos_as_xyz
1 x,y,z
2 1/4-y,3/4+x,1/4+z
3 x,-y,1/2-z
4 1/2-x,-y,1/2+z
5 1/4+y,3/4+x,3/4-z
6 1/4+y,1/4-x,3/4+z
7 1/2-x,y,-z
8 1/4-y,1/4-x,1/4-z
9 1/2+x,1/2+y,1/2+z
10 3/4-y,1/4+x,3/4+z
11 1/2+x,1/2-y,-z
12 -x,1/2-y,z
13 3/4+y,1/4+x,1/4-z
14 3/4+y,3/4-x,1/4+z
15 -x,1/2+y,1/2-z
16 3/4-y,3/4-x,3/4-z
17 -x,-y,-z
18 3/4+y,1/4-x,3/4-z
19 -x,y,1/2+z
20 1/2+x,y,1/2-z
21 3/4-y,1/4-x,1/4+z
22 3/4-y,3/4+x,1/4-z
23 1/2+x,-y,z
24 3/4+y,3/4+x,3/4+z
25 1/2-x,1/2-y,1/2-z
26 1/4+y,3/4-x,1/4-z
27 1/2-x,1/2+y,z
28 x,1/2+y,-z
29 1/4-y,3/4-x,3/4+z
30 1/4-y,1/4+x,3/4-z
31 x,1/2-y,1/2+z
32 1/4+y,1/4+x,1/4+z
_cell_length_a                   14.406(2)
_cell_length_b                   14.406(2)
_cell_length_c                   38.524(8)
_cell_angle_alpha                90
_cell_angle_beta                 90
_cell_angle_gamma                90
_cell_volume                     7994.99
loop_
_atom_site_label
_atom_site_type_symbol
_atom_site_fract_x
_atom_site_fract_y
_atom_site_fract_z
Br1 Br -0.40294(3) 0.35405(3) -0.281310(13)
Cu1 Cu -0.42941(4) 0.18207(4) -0.267750(14)
N1 N -0.4111(2) 0.1624(2) -0.03243(8)
N2 N -0.3561(2) 0.1238(3) -0.30607(9)
C1 C -0.4062(3) 0.1568(3) -0.10579(9)
C2 C -0.28061(16) 0.07175(17) -0.30022(6)
C3 C -0.25836(16) 0.03982(17) -0.36072(6)
C4 C -0.15426(16) -0.08566(17) -0.38332(6)
C5 C -0.2318(3) 0.0298(3) -0.32684(10)
C6 C -0.1154(3) -0.1307(3) -0.41064(10)
C7 C -0.4550(3) 0.0971(3) -0.05114(13)
C8 C -0.4729(4) 0.1085(3) -0.16293(13)
C9 C -0.4544(3) 0.0917(3) -0.08637(12)
C10 C -0.4728(4) 0.1127(3) -0.19845(13)
Cu1O Cu -0.43207(4) 0.17941(4) 0.017750(14)
C1O C -0.4068(3) 0.1562(3) -0.14421(9)
N1O N -0.4124(2) 0.1611(2) -0.21757(8)
Cu1K Cu -0.57059(4) 0.31793(4) -0.267750(14)
Br1K Br -0.59706(3) 0.14595(3) -0.281310(13)
C3L C -0.21018(17) -0.00836(16) -0.38928(6)
N2L N -0.1262(3) -0.1061(2) -0.44393(9)
Cu1L Cu -0.06793(4) -0.17941(4) -0.482250(14)
C2L C -0.17825(17) -0.03061(16) -0.44978(6)
C5L C -0.2202(3) 0.0182(3) -0.42316(10)
C4L C -0.33566(17) 0.09574(16) -0.36668(6)
C6L C -0.3807(3) 0.1346(3) -0.33936(10)
N1D N -0.5876(2) 0.3389(2) -0.21757(8)
N2K N -0.6439(2) 0.3762(3) -0.30607(9)
C7O C -0.3471(3) 0.2050(3) -0.19886(13)
C9O C -0.3417(3) 0.2044(3) -0.16363(12)
C8O C -0.3585(3) 0.2229(4) -0.08707(13)
C10O C -0.3627(3) 0.2228(4) -0.05155(13)
loop_
_geom_bond_atom_site_label_1
_geom_bond_atom_site_label_2
_geom_bond_site_symmetry_1
_geom_bond_site_symmetry_2
Br1 Cu1 1_555 1_555
Cu1 N2 1_555 1_555
N1 C7 1_555 1_555
N2 C2 1_555 1_555
C1 C9 1_555 1_555
C2 C5 1_555 1_555
C3 C5 1_555 1_555
C4 C6 1_555 1_555
C6 N2L 1_555 1_555
C7 C9 1_555 1_555
C8 C10 1_555 1_555
C10 N1O 1_555 1_555
Cu1O N1 1_555 1_555
C1O C1 1_555 1_555
N1O Cu1 1_555 1_555
Cu1K Br1 1_555 1_555
Br1K Cu1 1_555 1_555
C3L C3 1_555 1_555
N2L Cu1L 1_555 1_555
C2L N2L 1_555 1_555
C5L C3L 1_555 1_555
C4L C3 1_555 1_555
C6L N2 1_555 1_555
N1D Cu1K 1_555 1_555
N2K Cu1K 1_555 1_555
C7O N1O 1_555 1_555
C9O C1O 1_555 1_555
C8O C1 1_555 1_555
C10O N1 1_555 1_555
C4 C3L 1_555 1_555
C8 C1O 1_555 1_555
Cu1K Br1K 1_555 1_555
C2L C5L 1_555 1_555
C4L C6L 1_555 1_555
C7O C9O 1_555 1_555
C8O C10O 1_555 1_555

#END
