
#######################################################################
#
#                 Cambridge Crystallographic Data Centre
#                                CCDC 
#
#######################################################################
#
# If this CIF has been generated from an entry in the Cambridge 
# Structural Database, then it will include bibliographic, chemical, 
# crystal, experimental, refinement or atomic coordinate data resulting 
# from the CCDC's data processing and validation procedures.
#
#######################################################################

data_QAGTIB04
_symmetry_cell_setting           tetragonal
_symmetry_space_group_name_H-M   'I 41/a c d'
_symmetry_Int_Tables_number      142
_space_group_name_Hall           '-I 4bd 2c'
loop_
_symmetry_equiv_pos_site_id
_symmetry_equiv_pos_as_xyz
1 x,y,z
2 1/4-y,3/4+x,1/4+z
3 1/4+y,1/4-x,3/4+z
4 1/4+y,3/4+x,3/4-z
5 1/4-y,1/4-x,1/4-z
6 1/2+x,1/2+y,1/2+z
7 3/4-y,1/4+x,3/4+z
8 3/4+y,3/4-x,1/4+z
9 3/4+y,1/4+x,1/4-z
10 1/2-x,-y,1/2+z
11 1/2-x,y,-z
12 x,-y,1/2-z
13 -x,1/2-y,z
14 -x,1/2+y,1/2-z
15 1/2+x,1/2-y,-z
16 3/4-y,3/4-x,3/4-z
17 -x,-y,-z
18 3/4+y,1/4-x,3/4-z
19 3/4-y,3/4+x,1/4-z
20 3/4-y,1/4-x,1/4+z
21 3/4+y,3/4+x,3/4+z
22 1/2-x,1/2-y,1/2-z
23 1/4+y,3/4-x,1/4-z
24 1/4-y,1/4+x,3/4-z
25 1/4-y,3/4-x,3/4+z
26 1/2+x,y,1/2-z
27 1/2+x,-y,z
28 -x,y,1/2+z
29 x,1/2+y,-z
30 x,1/2-y,1/2+z
31 1/2-x,1/2+y,z
32 1/4+y,1/4+x,1/4+z
_cell_length_a                   14.750(2)
_cell_length_b                   14.750(2)
_cell_length_c                   38.597(8)
_cell_angle_alpha                90
_cell_angle_beta                 90
_cell_angle_gamma                90
_cell_volume                     8397.26
loop_
_atom_site_label
_atom_site_type_symbol
_atom_site_fract_x
_atom_site_fract_y
_atom_site_fract_z
I1 I 0.39183(4) 0.35268(4) 0.030284(16)
Cu1 Cu 0.43285(8) 0.18043(8) 0.01867(3)
N1 N 0.4105(5) 0.1610(6) -0.0328(2)
C1 C 0.4057(6) 0.1568(6) -0.1057(2)
C2 C 0.2870(6) -0.0214(6) 0.0766(2)
H1 H 0.2567 -0.0747 0.0710
C3 C 0.3546(7) 0.2131(8) -0.0505(2)
H2 H 0.3170 0.2527 -0.0384
N2 N 0.3730(5) 0.1070(6) 0.05708(19)
C4 C 0.2920(5) 0.0070(5) 0.1111(2)
C5 C 0.4585(7) 0.0971(7) -0.0864(2)
H3 H 0.4929 0.0532 -0.0976
C6 C 0.3418(6) 0.0857(6) 0.1180(2)
H4 H 0.3479 0.1064 0.1406
C7 C 0.3826(7) 0.1335(7) 0.0907(3)
H5 H 0.4171 0.1846 0.0957
C8 C 0.4605(8) 0.1023(7) -0.0508(2)
H6 H 0.4984 0.0631 -0.0387
C9 C 0.3497(8) 0.2109(8) -0.0864(2)
H7 H 0.3073 0.2471 -0.0977
C10 C 0.3278(6) 0.0306(7) 0.0507(2)
H8 H 0.3231 0.0110 0.0278
I1L I 0.60817(4) 0.14732(4) 0.030284(16)
Cu1L Cu 0.56715(8) 0.31957(8) 0.01867(3)
Cu1C Cu 0.43043(8) 0.18285(8) -0.26867(3)
Cu1D Cu 0.06957(8) -0.18285(8) 0.23133(3)
N1C N 0.4110(6) 0.1605(5) -0.2172(2)
N1L N 0.5895(5) 0.3390(6) -0.0328(2)
C1C C 0.4068(6) 0.1557(6) -0.1443(2)
C2D C 0.2714(6) -0.0370(6) 0.1734(2)
H1D H 0.3247 -0.0067 0.1790
C3C C 0.4631(8) 0.1046(7) -0.1995(2)
H2C H 0.5027 0.0670 -0.2116
N2D N 0.1430(6) -0.1230(5) 0.19292(19)
N2L N 0.6270(5) 0.3930(6) 0.05708(19)
C4D C 0.2430(5) -0.0420(5) 0.1389(2)
C5C C 0.3471(7) 0.2085(7) -0.1636(2)
H3C H 0.3032 0.2429 -0.1524
C6D C 0.1643(6) -0.0918(6) 0.1320(2)
H4D H 0.1436 -0.0979 0.1094
C7D C 0.1165(7) -0.1326(7) 0.1593(3)
H5D H 0.0654 -0.1671 0.1543
C8C C 0.3523(7) 0.2105(8) -0.1992(2)
H6C H 0.3131 0.2484 -0.2113
C9C C 0.4609(8) 0.0997(8) -0.1636(2)
H7C H 0.4971 0.0573 -0.1523
C10D C 0.2194(7) -0.0778(6) 0.1993(2)
H8D H 0.2390 -0.0731 0.2222
loop_
_geom_bond_atom_site_label_1
_geom_bond_atom_site_label_2
_geom_bond_site_symmetry_1
_geom_bond_site_symmetry_2
I1 Cu1 1_555 1_555
Cu1 N1 1_555 1_555
N1 C3 1_555 1_555
C1 C5 1_555 1_555
C2 H1 1_555 1_555
C3 H2 1_555 1_555
N2 Cu1 1_555 1_555
C4 C2 1_555 1_555
C5 H3 1_555 1_555
C6 C4 1_555 1_555
H4 C6 1_555 1_555
C7 N2 1_555 1_555
H5 C7 1_555 1_555
C8 N1 1_555 1_555
H6 C8 1_555 1_555
C9 C1 1_555 1_555
H7 C9 1_555 1_555
C10 C2 1_555 1_555
H8 C10 1_555 1_555
I1L Cu1 1_555 1_555
Cu1L I1 1_555 1_555
Cu1C N1C 1_555 1_555
Cu1D N2D 1_555 1_555
N1C C3C 1_555 1_555
N1L Cu1L 1_555 1_555
C1C C1 1_555 1_555
C2D H1D 1_555 1_555
C3C H2C 1_555 1_555
N2D C7D 1_555 1_555
N2L Cu1L 1_555 1_555
C4D C4 1_555 1_555
C5C C1C 1_555 1_555
H3C C5C 1_555 1_555
C6D C4D 1_555 1_555
H4D C6D 1_555 1_555
C7D C6D 1_555 1_555
H5D C7D 1_555 1_555
C8C N1C 1_555 1_555
H6C C8C 1_555 1_555
C9C C1C 1_555 1_555
H7C C9C 1_555 1_555
C10D C2D 1_555 1_555
H8D C10D 1_555 1_555
C3 C9 1_555 1_555
N2 C10 1_555 1_555
C5 C8 1_555 1_555
C6 C7 1_555 1_555
I1L Cu1L 1_555 1_555
C2D C4D 1_555 1_555
C3C C9C 1_555 1_555
N2D C10D 1_555 1_555
C5C C8C 1_555 1_555

#END
