
#######################################################################
#
#                 Cambridge Crystallographic Data Centre
#                                CCDC 
#
#######################################################################
#
# If this CIF has been generated from an entry in the Cambridge 
# Structural Database, then it will include bibliographic, chemical, 
# crystal, experimental, refinement or atomic coordinate data resulting 
# from the CCDC's data processing and validation procedures.
#
#######################################################################

data_QAGWIF
_symmetry_cell_setting           monoclinic
_symmetry_space_group_name_H-M   'C 2/c'
_symmetry_Int_Tables_number      15
_space_group_name_Hall           '-C 2yn'
loop_
_symmetry_equiv_pos_site_id
_symmetry_equiv_pos_as_xyz
1 x,y,z
2 1/2+x,1/2+y,z
3 x,-y,1/2+z
4 1/2+x,1/2-y,1/2+z
5 -x,-y,-z
6 1/2-x,1/2-y,-z
7 -x,y,1/2-z
8 1/2-x,1/2+y,1/2-z
_cell_length_a                   16.9554(3)
_cell_length_b                   5.55420(10)
_cell_length_c                   18.2897(3)
_cell_angle_alpha                90
_cell_angle_beta                 92.4910(10)
_cell_angle_gamma                90
_cell_volume                     1720.78
loop_
_atom_site_label
_atom_site_type_symbol
_atom_site_fract_x
_atom_site_fract_y
_atom_site_fract_z
Ni1 Ni 0.0000 0.0000 0.5000
S1 S 0.10761(2) -0.23737(6) 0.56922(2)
N1 N 0.06428(7) -0.7026(2) 0.52375(6)
N2 N -0.05711(7) 0.0693(2) 0.59972(7)
N3 N -0.08133(8) -0.7764(3) 0.79103(7)
C1 C 0.08246(8) -0.5114(2) 0.54280(7)
C2 C -0.11045(8) -0.1062(2) 0.62594(7)
C3 C -0.08286(8) -0.2824(3) 0.67429(7)
H1 H -0.0300 -0.2853 0.6900
C4 C -0.13505(8) -0.4555(3) 0.69916(7)
C5 C -0.21417(9) -0.4571(3) 0.67495(9)
H2 H -0.2486 -0.5733 0.6915
C6 C -0.24028(9) -0.2824(3) 0.62590(9)
H3 H -0.2928 -0.2824 0.6089
C7 C -0.18929(9) -0.1066(3) 0.60159(8)
H4 H -0.2079 0.0110 0.5690
C8 C -0.10599(8) -0.6344(3) 0.75083(7)
H5 H -0.0208(12) 0.094(4) 0.6301(11)
H6 H -0.0819(10) 0.206(4) 0.5891(9)
S1D S -0.10761(2) 0.23737(6) 0.43078(2)
N1D N -0.06428(7) 0.7026(2) 0.47625(6)
C1D C -0.08246(8) 0.5114(2) 0.45720(7)
N2D N 0.05711(7) -0.0693(2) 0.40028(7)
N3D N 0.08133(8) 0.7764(3) 0.20897(7)
C2D C 0.11045(8) 0.1062(2) 0.37406(7)
C3D C 0.08286(8) 0.2824(3) 0.32571(7)
H1D H 0.0300 0.2853 0.3100
C4D C 0.13505(8) 0.4555(3) 0.30084(7)
C5D C 0.21417(9) 0.4571(3) 0.32505(9)
H2D H 0.2486 0.5733 0.3085
C6D C 0.24028(9) 0.2824(3) 0.37410(9)
H3D H 0.2928 0.2824 0.3911
C7D C 0.18929(9) 0.1066(3) 0.39841(8)
H4D H 0.2079 -0.0110 0.4310
C8D C 0.10599(8) 0.6344(3) 0.24917(7)
H5D H 0.0208(12) -0.094(4) 0.3699(11)
H6D H 0.0819(10) -0.206(4) 0.4109(9)
N1_2 N 0.06428(7) 0.2974(2) 0.52375(6)
N1D_2 N -0.06428(7) -0.2974(2) 0.47625(6)
Ni1_2 Ni 0.0000 -1.0000 0.5000
Ni1_3 Ni 0.0000 1.0000 0.5000
loop_
_geom_bond_atom_site_label_1
_geom_bond_atom_site_label_2
_geom_bond_site_symmetry_1
_geom_bond_site_symmetry_2
Ni1 S1 1_555 1_555
S1 C1 1_555 1_555
N1 C1 1_555 1_555
N2 Ni1 1_555 1_555
N3 C8 1_555 1_555
C2 N2 1_555 1_555
C3 C2 1_555 1_555
H1 C3 1_555 1_555
C4 C3 1_555 1_555
C5 C4 1_555 1_555
H2 C5 1_555 1_555
C6 C5 1_555 1_555
H3 C6 1_555 1_555
C7 C2 1_555 1_555
H4 C7 1_555 1_555
C8 C4 1_555 1_555
H5 N2 1_555 1_555
H6 N2 1_555 1_555
S1D Ni1 1_555 1_555
N1D C1D 1_555 1_555
C1D S1D 1_555 1_555
N2D Ni1 1_555 1_555
N3D C8D 1_555 1_555
C2D N2D 1_555 1_555
C3D C2D 1_555 1_555
H1D C3D 1_555 1_555
C4D C3D 1_555 1_555
C5D C4D 1_555 1_555
H2D C5D 1_555 1_555
C6D C5D 1_555 1_555
H3D C6D 1_555 1_555
C7D C2D 1_555 1_555
H4D C7D 1_555 1_555
C8D C4D 1_555 1_555
H5D N2D 1_555 1_555
H6D N2D 1_555 1_555
N1_2 Ni1 1_555 1_555
N1D_2 Ni1 1_555 1_555
Ni1_2 N1 1_555 1_555
Ni1_3 N1D 1_555 1_555
C6 C7 1_555 1_555
C6D C7D 1_555 1_555

#END
