
#######################################################################
#
#                 Cambridge Crystallographic Data Centre
#                                CCDC 
#
#######################################################################
#
# If this CIF has been generated from an entry in the Cambridge 
# Structural Database, then it will include bibliographic, chemical, 
# crystal, experimental, refinement or atomic coordinate data resulting 
# from the CCDC's data processing and validation procedures.
#
#######################################################################

data_QAGWIG
_symmetry_cell_setting           monoclinic
_symmetry_space_group_name_H-M   'P 2/c'
_symmetry_Int_Tables_number      13
_space_group_name_Hall           '-P 2yc'
loop_
_symmetry_equiv_pos_site_id
_symmetry_equiv_pos_as_xyz
1 x,y,z
2 -x,y,1/2-z
3 -x,-y,-z
4 x,-y,1/2+z
_cell_length_a                   11.5165(11)
_cell_length_b                   11.4813(11)
_cell_length_c                   13.1038(11)
_cell_angle_alpha                90
_cell_angle_beta                 106.602(5)
_cell_angle_gamma                90
_cell_volume                     1660.41
loop_
_atom_site_label
_atom_site_type_symbol
_atom_site_fract_x
_atom_site_fract_y
_atom_site_fract_z
Fe1 Fe 0.5000 0.28812(4) 0.7500
N1 N 0.44797(16) 0.28443(16) 0.58174(13)
C1 C 0.37466(19) 0.30923(18) 0.50260(16)
S1 S 0.27032(6) 0.34393(6) 0.39459(5)
N2 N 0.30720(15) 0.29081(15) 0.74877(13)
C2 C 0.2182(2) 0.2457(2) 0.66884(17)
H1 H 0.2396 0.2096 0.6115
C3 C 0.0972(2) 0.2490(2) 0.66550(17)
H2 H 0.0373 0.2174 0.6064
C4 C 0.06426(18) 0.29908(19) 0.74938(16)
C5 C 0.1554(2) 0.3459(2) 0.83224(18)
H3 H 0.1363 0.3807 0.8912
C6 C 0.27441(19) 0.3416(2) 0.82866(17)
H4 H 0.3355 0.3762 0.8852
N3 N 0.5000 0.0957(2) 0.7500
C7 C 0.4790(2) 0.03506(19) 0.83038(17)
H5 H 0.4632 0.0768 0.8876
C8 C 0.4791(2) -0.08529(19) 0.83386(17)
H6 H 0.4651 -0.1248 0.8929
C9 C 0.5000 -0.1478(3) 0.7500
N4 N 0.5000 -0.5199(2) 0.7500
C10 C 0.42575(19) -0.45885(19) 0.67039(17)
H7 H 0.3719 -0.5005 0.6136
C11 C 0.42364(19) -0.33845(19) 0.66672(17)
H8 H 0.3707 -0.2989 0.6080
C12 C 0.5000 -0.2764(3) 0.7500
Fe1_2 Fe -0.5000 0.28812(4) 0.7500
Fe1_3 Fe 0.5000 -0.71188(4) 0.7500
N1A N 0.55203(16) 0.28443(16) 0.91826(13)
C1A C 0.62534(19) 0.30923(18) 0.99740(16)
S1A S 0.72968(6) 0.34393(6) 1.10541(5)
N2A N -0.30720(15) 0.29081(15) 0.75123(13)
N2A_2 N 0.69280(15) 0.29081(15) 0.75123(13)
C2A C -0.2182(2) 0.2457(2) 0.83116(17)
H1A H -0.2396 0.2096 0.8885
C3A C -0.0972(2) 0.2490(2) 0.83450(17)
H2A H -0.0373 0.2174 0.8936
C4A C -0.06426(18) 0.29908(19) 0.75062(16)
C5A C -0.1554(2) 0.3459(2) 0.66776(18)
H3A H -0.1363 0.3807 0.6088
C6A C -0.27441(19) 0.3416(2) 0.67134(17)
H4A H -0.3355 0.3762 0.6148
C7A C 0.5210(2) 0.03506(19) 0.66962(17)
H5A H 0.5368 0.0768 0.6124
C8A C 0.5209(2) -0.08529(19) 0.66614(17)
H6A H 0.5349 -0.1248 0.6071
N4_2 N 0.5000 0.4801(2) 0.7500
C10A C 0.57425(19) -0.45885(19) 0.82961(17)
H7A H 0.6281 -0.5005 0.8864
C11A C 0.57636(19) -0.33845(19) 0.83328(17)
H8A H 0.6293 -0.2989 0.8920
O1 O 0.14127(18) 0.1860(2) 0.04695(15)
C13 C 0.0769(3) 0.3582(4) 0.1200(3)
H9 H 0.0520 0.3878 0.1807
H10 H 0.0121 0.3720 0.0541
H11 H 0.1506 0.3986 0.1164
C14 C 0.1020(3) 0.2276(4) 0.1338(2)
H12 H 0.1653 0.2129 0.2017
H13 H 0.0274 0.1861 0.1361
C15 C 0.1709(3) 0.0663(3) 0.0544(3)
H14 H 0.0998 0.0199 0.0581
H15 H 0.2377 0.0514 0.1198
C16 C 0.2088(3) 0.0313(3) -0.0418(3)
H16 H 0.2369 -0.0497 -0.0341
H17 H 0.2747 0.0821 -0.0485
H18 H 0.1397 0.0386 -0.1057
loop_
_geom_bond_atom_site_label_1
_geom_bond_atom_site_label_2
_geom_bond_site_symmetry_1
_geom_bond_site_symmetry_2
Fe1 N1 1_555 1_555
N1 C1 1_555 1_555
C1 S1 1_555 1_555
N2 Fe1 1_555 1_555
C2 N2 1_555 1_555
H1 C2 1_555 1_555
C3 C2 1_555 1_555
H2 C3 1_555 1_555
C4 C3 1_555 1_555
C5 C4 1_555 1_555
H3 C5 1_555 1_555
C6 N2 1_555 1_555
H4 C6 1_555 1_555
N3 Fe1 1_555 1_555
C7 N3 1_555 1_555
H5 C7 1_555 1_555
C8 C7 1_555 1_555
H6 C8 1_555 1_555
C9 C8 1_555 1_555
N4 C10 1_555 1_555
C10 H7 1_555 1_555
C11 C10 1_555 1_555
H8 C11 1_555 1_555
C12 C9 1_555 1_555
O1 C14 1_555 1_555
C13 H9 1_555 1_555
H10 C13 1_555 1_555
H11 C13 1_555 1_555
C14 C13 1_555 1_555
H12 C14 1_555 1_555
H13 C14 1_555 1_555
C15 O1 1_555 1_555
H14 C15 1_555 1_555
H15 C15 1_555 1_555
C16 C15 1_555 1_555
H16 C16 1_555 1_555
H17 C16 1_555 1_555
H18 C16 1_555 1_555
Fe1_2 N2A 1_555 1_555
Fe1_3 N4 1_555 1_555
N1A Fe1 1_555 1_555
C1A N1A 1_555 1_555
S1A C1A 1_555 1_555
N2A C2A 1_555 1_555
N2A_2 Fe1 1_555 1_555
C2A H1A 1_555 1_555
C3A C2A 1_555 1_555
H2A C3A 1_555 1_555
C4A C4 1_555 1_555
C5A C4A 1_555 1_555
H3A C5A 1_555 1_555
C6A N2A 1_555 1_555
H4A C6A 1_555 1_555
C7A N3 1_555 1_555
H5A C7A 1_555 1_555
C8A C9 1_555 1_555
H6A C8A 1_555 1_555
N4_2 Fe1 1_555 1_555
C10A N4 1_555 1_555
H7A C10A 1_555 1_555
C11A C12 1_555 1_555
H8A C11A 1_555 1_555
C5 C6 1_555 1_555
C11 C12 1_555 1_555
C3A C4A 1_555 1_555
C5A C6A 1_555 1_555
C7A C8A 1_555 1_555
C10A C11A 1_555 1_555

#END
