
#######################################################################
#
#                 Cambridge Crystallographic Data Centre
#                                CCDC 
#
#######################################################################
#
# If this CIF has been generated from an entry in the Cambridge 
# Structural Database, then it will include bibliographic, chemical, 
# crystal, experimental, refinement or atomic coordinate data resulting 
# from the CCDC's data processing and validation procedures.
#
#######################################################################

data_QAGWOL
_symmetry_cell_setting           monoclinic
_symmetry_space_group_name_H-M   'C 2/c'
_symmetry_Int_Tables_number      15
_space_group_name_Hall           '-C 2yn'
loop_
_symmetry_equiv_pos_site_id
_symmetry_equiv_pos_as_xyz
1 x,y,z
2 1/2+x,1/2+y,z
3 x,-y,1/2+z
4 1/2+x,1/2-y,1/2+z
5 -x,-y,-z
6 1/2-x,1/2-y,-z
7 -x,y,1/2-z
8 1/2-x,1/2+y,1/2-z
_cell_length_a                   22.1014(7)
_cell_length_b                   7.5459(3)
_cell_length_c                   11.1386(5)
_cell_angle_alpha                90
_cell_angle_beta                 113.440(2)
_cell_angle_gamma                90
_cell_volume                     1704.34
loop_
_atom_site_label
_atom_site_type_symbol
_atom_site_fract_x
_atom_site_fract_y
_atom_site_fract_z
Ni1 Ni 0.0000 0.0000 0.0000
S1 S 0.09497(3) 0.44522(8) 0.33287(5)
N1 N 0.04675(8) 0.1827(3) 0.14016(16)
N2 N -0.06785(8) 0.2102(3) -0.10021(19)
N3 N -0.06259(8) 0.0697(2) -0.40668(15)
C1 C 0.06642(9) 0.2922(3) 0.21922(19)
C2 C -0.13462(9) 0.1731(3) -0.18484(18)
C3 C -0.15129(9) 0.1185(3) -0.31376(18)
C4 C -0.21692(9) 0.0867(3) -0.3966(2)
H1 H -0.2276 0.0518 -0.4827
C5 C -0.26592(10) 0.1073(3) -0.3505(2)
H2 H -0.3098 0.0884 -0.4058
C6 C -0.24948(10) 0.1560(3) -0.2222(2)
H3 H -0.2824 0.1673 -0.1907
C7 C -0.18444(9) 0.1885(3) -0.1395(2)
H4 H -0.1741 0.2208 -0.0531
C8 C -0.10107(10) 0.0935(3) -0.36405(19)
H5 H -0.0489(10) 0.273(3) -0.141(2)
H6 H -0.0674(9) 0.269(3) -0.039(2)
S1D S -0.09497(3) -0.44522(8) -0.33287(5)
N1D N -0.04675(8) -0.1827(3) -0.14016(16)
C1D C -0.06642(9) -0.2922(3) -0.21922(19)
N2D N 0.06785(8) -0.2102(3) 0.10021(19)
N3D N 0.06259(8) -0.0697(2) 0.40668(15)
C2D C 0.13462(9) -0.1731(3) 0.18484(18)
C3D C 0.15129(9) -0.1185(3) 0.31376(18)
C4D C 0.21692(9) -0.0867(3) 0.3966(2)
H1D H 0.2276 -0.0518 0.4827
C5D C 0.26592(10) -0.1073(3) 0.3505(2)
H2D H 0.3098 -0.0884 0.4058
C6D C 0.24948(10) -0.1560(3) 0.2222(2)
H3D H 0.2824 -0.1673 0.1907
C7D C 0.18444(9) -0.1885(3) 0.1395(2)
H4D H 0.1741 -0.2208 0.0531
C8D C 0.10107(10) -0.0935(3) 0.36405(19)
H5D H 0.0489(10) -0.273(3) 0.141(2)
H6D H 0.0674(9) -0.269(3) 0.039(2)
N3B N -0.06259(8) -0.0697(2) 0.09332(15)
N3F N 0.06259(8) 0.0697(2) -0.09332(15)
Ni1B Ni 0.0000 0.0000 -0.5000
Ni1B_2 Ni 0.0000 0.0000 0.5000
loop_
_geom_bond_atom_site_label_1
_geom_bond_atom_site_label_2
_geom_bond_site_symmetry_1
_geom_bond_site_symmetry_2
Ni1 N1 1_555 1_555
S1 C1 1_555 1_555
N1 C1 1_555 1_555
N2 Ni1 1_555 1_555
N3 C8 1_555 1_555
C2 N2 1_555 1_555
C3 C2 1_555 1_555
C4 C3 1_555 1_555
H1 C4 1_555 1_555
C5 C4 1_555 1_555
H2 C5 1_555 1_555
C6 C5 1_555 1_555
H3 C6 1_555 1_555
C7 C2 1_555 1_555
H4 C7 1_555 1_555
C8 C3 1_555 1_555
H5 N2 1_555 1_555
H6 N2 1_555 1_555
S1D C1D 1_555 1_555
N1D Ni1 1_555 1_555
C1D N1D 1_555 1_555
N2D Ni1 1_555 1_555
N3D C8D 1_555 1_555
C2D N2D 1_555 1_555
C3D C2D 1_555 1_555
C4D C3D 1_555 1_555
H1D C4D 1_555 1_555
C5D C4D 1_555 1_555
H2D C5D 1_555 1_555
C6D C5D 1_555 1_555
H3D C6D 1_555 1_555
C7D C2D 1_555 1_555
H4D C7D 1_555 1_555
C8D C3D 1_555 1_555
H5D N2D 1_555 1_555
H6D N2D 1_555 1_555
N3B Ni1 1_555 1_555
N3F Ni1 1_555 1_555
Ni1B N3 1_555 1_555
Ni1B_2 N3D 1_555 1_555
C6 C7 1_555 1_555
C6D C7D 1_555 1_555

#END
