
#######################################################################
#
#                 Cambridge Crystallographic Data Centre
#                                CCDC 
#
#######################################################################
#
# If this CIF has been generated from an entry in the Cambridge 
# Structural Database, then it will include bibliographic, chemical, 
# crystal, experimental, refinement or atomic coordinate data resulting 
# from the CCDC's data processing and validation procedures.
#
#######################################################################

data_QAGWEC
_symmetry_cell_setting           monoclinic
_symmetry_space_group_name_H-M   'C 2/c'
_symmetry_Int_Tables_number      15
_space_group_name_Hall           '-C 2yn'
loop_
_symmetry_equiv_pos_site_id
_symmetry_equiv_pos_as_xyz
1 x,y,z
2 -x,y,1/2-z
3 1/2+x,1/2+y,z
4 1/2-x,1/2+y,1/2-z
5 -x,-y,-z
6 x,-y,1/2+z
7 1/2-x,1/2-y,-z
8 1/2+x,1/2-y,1/2+z
_cell_length_a                   22.471(6)
_cell_length_b                   11.605(3)
_cell_length_c                   13.205(3)
_cell_angle_alpha                90
_cell_angle_beta                 103.083(15)
_cell_angle_gamma                90
_cell_volume                     3354.16
loop_
_atom_site_label
_atom_site_type_symbol
_atom_site_fract_x
_atom_site_fract_y
_atom_site_fract_z
Fe1 Fe 0.0000 0.27741(3) 0.2500
N1 N 0.03573(7) 0.27474(12) 0.11514(11)
C1 C 0.07318(8) 0.29540(14) 0.06861(13)
S1 S 0.12495(2) 0.32831(4) 0.00354(4)
N2 N -0.09677(6) 0.27235(12) 0.15495(10)
C2 C -0.11748(8) 0.34202(15) 0.07359(13)
H1 H -0.0904 0.3984 0.0573
C3 C -0.17648(8) 0.33636(15) 0.01155(13)
H2 H -0.1885 0.3881 -0.0451
C4 C -0.21804(7) 0.25485(14) 0.03235(12)
C5 C -0.19649(8) 0.18325(15) 0.11804(14)
H3 H -0.2225 0.1263 0.1364
C6 C -0.13706(8) 0.19527(15) 0.17623(13)
H4 H -0.1240 0.1461 0.2346
N3 N 0.0000 0.08615(16) 0.2500
C7 C -0.01344(8) 0.02575(14) 0.16062(13)
H5 H -0.0231 0.0670 0.0969
C8 C -0.01390(8) -0.09347(14) 0.15699(13)
H6 H -0.0235 -0.1324 0.0921
C9 C 0.0000 -0.1560(2) 0.2500
N4 N 0.0000 -0.52708(16) 0.2500
C10 C -0.01958(8) -0.46595(14) 0.32312(13)
H7 H -0.0337 -0.5070 0.3753
C11 C -0.02016(8) -0.34631(14) 0.32637(13)
H8 H -0.0341 -0.3074 0.3799
C12 C 0.0000 -0.2839(2) 0.2500
Fe1_2 Fe 0.0000 -0.72259(3) 0.2500
Fe1F Fe -0.5000 0.22259(3) -0.2500
N1A N -0.03573(7) 0.27474(12) 0.38486(11)
C1A C -0.07318(8) 0.29540(14) 0.43139(13)
S1A S -0.12495(2) 0.32831(4) 0.49646(4)
N2F N -0.40323(6) 0.22765(12) -0.15495(10)
N2A N 0.09677(6) 0.27235(12) 0.34505(10)
C2F C -0.38252(8) 0.15798(15) -0.07359(13)
H1F H -0.4096 0.1016 -0.0573
C3F C -0.32352(8) 0.16364(15) -0.01155(13)
H2F H -0.3115 0.1119 0.0451
C4F C -0.28196(7) 0.24515(14) -0.03235(12)
C5F C -0.30351(8) 0.31675(15) -0.11804(14)
H3F H -0.2775 0.3737 -0.1364
C6F C -0.36294(8) 0.30473(15) -0.17623(13)
H4F H -0.3760 0.3539 -0.2346
C7A C 0.01344(8) 0.02575(14) 0.33938(13)
H5A H 0.0231 0.0670 0.4031
C8A C 0.01390(8) -0.09347(14) 0.34301(13)
H6A H 0.0235 -0.1324 0.4079
N4_2 N 0.0000 0.47292(16) 0.2500
C10A C 0.01958(8) -0.46595(14) 0.17688(13)
H7A H 0.0337 -0.5070 0.1247
C11A C 0.02016(8) -0.34631(14) 0.17363(13)
H8A H 0.0341 -0.3074 0.1201
C13 C 0.19451(9) 0.51575(17) -0.25256(14)
H9 H 0.1598 0.5407 -0.3031
C14 C 0.19078(10) 0.41790(18) -0.19434(16)
H10 H 0.1535 0.3761 -0.2047
C15 C 0.24171(10) 0.38078(19) -0.12054(17)
H11 H 0.2393 0.3124 -0.0822
C16 C 0.29607(9) 0.44273(18) -0.10234(15)
H12 H 0.3306 0.4188 -0.0509
C17 C 0.29827(9) 0.54021(16) -0.16138(15)
C18 C 0.24875(9) 0.57764(16) -0.23752(15)
H13 H 0.2519 0.6439 -0.2783
N5 N 0.35558(8) 0.60810(17) -0.14213(15)
O1 O 0.36010(9) 0.68410(16) -0.20343(19)
O2 O 0.39546(7) 0.58629(19) -0.06525(13)
loop_
_geom_bond_atom_site_label_1
_geom_bond_atom_site_label_2
_geom_bond_site_symmetry_1
_geom_bond_site_symmetry_2
Fe1 N1 1_555 1_555
N1 C1 1_555 1_555
C1 S1 1_555 1_555
N2 Fe1 1_555 1_555
C2 N2 1_555 1_555
H1 C2 1_555 1_555
C3 C2 1_555 1_555
H2 C3 1_555 1_555
C4 C3 1_555 1_555
C5 C4 1_555 1_555
H3 C5 1_555 1_555
C6 N2 1_555 1_555
H4 C6 1_555 1_555
N3 Fe1 1_555 1_555
C7 N3 1_555 1_555
H5 C7 1_555 1_555
C8 C7 1_555 1_555
H6 C8 1_555 1_555
C9 C8 1_555 1_555
N4 C10 1_555 1_555
C10 H7 1_555 1_555
C11 C10 1_555 1_555
H8 C11 1_555 1_555
C12 C9 1_555 1_555
C13 H9 1_555 1_555
C14 C13 1_555 1_555
H10 C14 1_555 1_555
C15 C14 1_555 1_555
H11 C15 1_555 1_555
C16 C15 1_555 1_555
H12 C16 1_555 1_555
C17 C16 1_555 1_555
C18 C13 1_555 1_555
H13 C18 1_555 1_555
N5 C17 1_555 1_555
O1 N5 1_555 1_555
O2 N5 1_555 1_555
Fe1_2 N4 1_555 1_555
Fe1F N2F 1_555 1_555
N1A Fe1 1_555 1_555
C1A N1A 1_555 1_555
S1A C1A 1_555 1_555
N2F C2F 1_555 1_555
N2A Fe1 1_555 1_555
C2F H1F 1_555 1_555
C3F C2F 1_555 1_555
H2F C3F 1_555 1_555
C4F C4 1_555 1_555
C5F C4F 1_555 1_555
H3F C5F 1_555 1_555
C6F N2F 1_555 1_555
H4F C6F 1_555 1_555
C7A N3 1_555 1_555
H5A C7A 1_555 1_555
C8A C9 1_555 1_555
H6A C8A 1_555 1_555
N4_2 Fe1 1_555 1_555
C10A N4 1_555 1_555
H7A C10A 1_555 1_555
C11A C12 1_555 1_555
H8A C11A 1_555 1_555
C5 C6 1_555 1_555
C11 C12 1_555 1_555
C17 C18 1_555 1_555
C3F C4F 1_555 1_555
C5F C6F 1_555 1_555
C7A C8A 1_555 1_555
C10A C11A 1_555 1_555

#END
