
#######################################################################
#
#                 Cambridge Crystallographic Data Centre
#                                CCDC 
#
#######################################################################
#
# If this CIF has been generated from an entry in the Cambridge 
# Structural Database, then it will include bibliographic, chemical, 
# crystal, experimental, refinement or atomic coordinate data resulting 
# from the CCDC's data processing and validation procedures.
#
#######################################################################

data_QAGWUS
_symmetry_cell_setting           monoclinic
_symmetry_space_group_name_H-M   'C 2/c'
_symmetry_Int_Tables_number      15
_space_group_name_Hall           '-C 2yn'
loop_
_symmetry_equiv_pos_site_id
_symmetry_equiv_pos_as_xyz
1 x,y,z
2 -x,y,1/2-z
3 1/2+x,1/2+y,z
4 1/2-x,1/2+y,1/2-z
5 -x,-y,-z
6 x,-y,1/2+z
7 1/2-x,1/2-y,-z
8 1/2+x,1/2-y,1/2+z
_cell_length_a                   16.049(2)
_cell_length_b                   16.613(3)
_cell_length_c                   12.5984(18)
_cell_angle_alpha                90
_cell_angle_beta                 120.581(4)
_cell_angle_gamma                90
_cell_volume                     2891.81
loop_
_atom_site_label
_atom_site_type_symbol
_atom_site_fract_x
_atom_site_fract_y
_atom_site_fract_z
Fe1 Fe 0.5000 0.25669(3) 0.2500
N1 N 0.41927(15) 0.26179(12) 0.0543(2)
C1 C 0.40588(18) 0.27246(15) -0.0446(2)
S1 S 0.38727(7) 0.28765(5) -0.18296(7)
N2 N 0.40577(14) 0.15907(12) 0.25403(19)
C2 C 0.42115(19) 0.12340(16) 0.3582(2)
H1 H 0.4745 0.1410 0.4344
C3 C 0.36323(19) 0.06234(16) 0.3603(2)
H2 H 0.3777 0.0384 0.4362
C4 C 0.28377(17) 0.03641(14) 0.2502(2)
C5 C 0.26796(18) 0.07250(16) 0.1419(3)
H3 H 0.2150 0.0563 0.0645
C6 C 0.33053(18) 0.13236(15) 0.1483(2)
H4 H 0.3194 0.1558 0.0733
N3 N 0.09508(14) -0.14805(12) 0.24493(19)
C7 C 0.19171(17) -0.15447(15) 0.3154(2)
H5 H 0.2178 -0.2013 0.3647
C8 C 0.25523(18) -0.09635(15) 0.3201(2)
H6 H 0.3231 -0.1035 0.3716
C9 C 0.21861(18) -0.02721(15) 0.2484(2)
C10 C 0.11819(18) -0.02024(16) 0.1742(3)
H7 H 0.0902 0.0258 0.1236
C11 C 0.06011(18) -0.08132(15) 0.1754(3)
H8 H -0.0081 -0.0759 0.1245
Fe1B Fe 0.0000 -0.24331(3) 0.2500
Fe1B_2 Fe 1.0000 -0.24331(3) 0.2500
N1A N 0.58073(15) 0.26179(12) 0.4457(2)
C1A C 0.59412(18) 0.27246(15) 0.5446(2)
S1A S 0.61273(7) 0.28765(5) 0.68296(7)
N2A N 0.59423(14) 0.15907(12) 0.24597(19)
C2A C 0.57885(19) 0.12340(16) 0.1418(2)
H1A H 0.5255 0.1410 0.0656
C3A C 0.63677(19) 0.06234(16) 0.1397(2)
H2A H 0.6223 0.0384 0.0638
C4A C 0.71623(17) 0.03641(14) 0.2498(2)
C5A C 0.73204(18) 0.07250(16) 0.3581(3)
H3A H 0.7850 0.0563 0.4355
C6A C 0.66947(18) 0.13236(15) 0.3517(2)
H4A H 0.6806 0.1558 0.4267
N3A N 0.90492(14) -0.14805(12) 0.25507(19)
N3B N 0.59508(14) 0.35195(12) 0.24493(19)
N3C N 0.40492(14) 0.35195(12) 0.25507(19)
C7A C 0.80829(17) -0.15447(15) 0.1846(2)
H5A H 0.7822 -0.2013 0.1353
C8A C 0.74477(18) -0.09635(15) 0.1799(2)
H6A H 0.6769 -0.1035 0.1284
C9A C 0.78139(18) -0.02721(15) 0.2516(2)
C10A C 0.88181(18) -0.02024(16) 0.3258(3)
H7A H 0.9098 0.0258 0.3764
C11A C 0.93989(18) -0.08132(15) 0.3246(3)
H8A H 1.0081 -0.0759 0.3755
O2 O 0.3490(4) 0.2872(3) 0.4878(5)
C13 C 0.3359(7) 0.3653(5) 0.5266(7)
C12? C -0.0093(4) 0.3882(3) 0.3466(5)
O1? O 0.0000 0.4260(4) 0.2500
C14? C 0.2847(11) 0.4059(6) 0.5237(11)
O3? O 0.3735(7) 0.4400(4) 0.5815(6)
loop_
_geom_bond_atom_site_label_1
_geom_bond_atom_site_label_2
_geom_bond_site_symmetry_1
_geom_bond_site_symmetry_2
Fe1 N1 1_555 1_555
N1 C1 1_555 1_555
C1 S1 1_555 1_555
N2 Fe1 1_555 1_555
C2 N2 1_555 1_555
H1 C2 1_555 1_555
C3 C2 1_555 1_555
H2 C3 1_555 1_555
C4 C3 1_555 1_555
C5 C4 1_555 1_555
H3 C5 1_555 1_555
C6 N2 1_555 1_555
H4 C6 1_555 1_555
N3 C7 1_555 1_555
C7 H5 1_555 1_555
C8 C7 1_555 1_555
H6 C8 1_555 1_555
C9 C4 1_555 1_555
C10 C9 1_555 1_555
H7 C10 1_555 1_555
C11 N3 1_555 1_555
H8 C11 1_555 1_555
O2 C13 1_555 1_555
Fe1B N3 1_555 1_555
Fe1B_2 N3A 1_555 1_555
N1A Fe1 1_555 1_555
C1A N1A 1_555 1_555
S1A C1A 1_555 1_555
N2A Fe1 1_555 1_555
C2A N2A 1_555 1_555
H1A C2A 1_555 1_555
C3A C2A 1_555 1_555
H2A C3A 1_555 1_555
C4A C3A 1_555 1_555
C5A C4A 1_555 1_555
H3A C5A 1_555 1_555
C6A N2A 1_555 1_555
H4A C6A 1_555 1_555
N3A C7A 1_555 1_555
N3B Fe1 1_555 1_555
N3C Fe1 1_555 1_555
C7A H5A 1_555 1_555
C8A C7A 1_555 1_555
H6A C8A 1_555 1_555
C9A C4A 1_555 1_555
C10A C9A 1_555 1_555
H7A C10A 1_555 1_555
C11A N3A 1_555 1_555
H8A C11A 1_555 1_555
C5 C6 1_555 1_555
C8 C9 1_555 1_555
C10 C11 1_555 1_555
C5A C6A 1_555 1_555
C8A C9A 1_555 1_555
C10A C11A 1_555 1_555

#END
