
#######################################################################
#
#                 Cambridge Crystallographic Data Centre
#                                CCDC 
#
#######################################################################
#
# If this CIF has been generated from an entry in the Cambridge 
# Structural Database, then it will include bibliographic, chemical, 
# crystal, experimental, refinement or atomic coordinate data resulting 
# from the CCDC's data processing and validation procedures.
#
#######################################################################

data_QAGXED
_symmetry_cell_setting           monoclinic
_symmetry_space_group_name_H-M   'P 2/c'
_symmetry_Int_Tables_number      13
_space_group_name_Hall           '-P 2yc'
loop_
_symmetry_equiv_pos_site_id
_symmetry_equiv_pos_as_xyz
1 x,y,z
2 -x,y,1/2-z
3 -x,-y,-z
4 x,-y,1/2+z
_cell_length_a                   11.5305(5)
_cell_length_b                   11.5424(5)
_cell_length_c                   12.7461(6)
_cell_angle_alpha                90
_cell_angle_beta                 110.832(2)
_cell_angle_gamma                90
_cell_volume                     1585.48
loop_
_atom_site_label
_atom_site_type_symbol
_atom_site_fract_x
_atom_site_fract_y
_atom_site_fract_z
Fe1 Fe 0.0000 0.28290(3) 0.2500
N1 N -0.06780(18) 0.28025(16) 0.07254(17)
C1 C -0.1444(2) 0.3004(2) -0.0136(2)
S1 S -0.25347(9) 0.32872(10) -0.13189(7)
N2 N -0.19356(16) 0.28330(16) 0.24793(16)
C2 C -0.2204(2) 0.3337(2) 0.3310(2)
H1 H -0.1556 0.3709 0.3894
C3 C -0.3394(2) 0.3340(3) 0.3356(2)
H2 H -0.3541 0.3690 0.3972
C4 C -0.4357(2) 0.2831(2) 0.2499(2)
C5 C -0.4081(2) 0.2335(2) 0.1623(2)
H3 H -0.4719 0.1993 0.1007
C6 C -0.2870(2) 0.2343(2) 0.1657(2)
H4 H -0.2693 0.1979 0.1061
N3 N 0.0000 0.0896(2) 0.2500
C7 C 0.0151(2) 0.02948(19) 0.1663(2)
H5 H 0.0268 0.0711 0.1065
C8 C 0.0146(3) -0.0905(2) 0.1622(2)
H6 H 0.0241 -0.1296 0.1001
C9 C 0.0000 -0.1532(3) 0.2500
N4 N 0.0000 -0.5235(2) 0.2500
C10 C -0.0721(3) -0.4632(2) 0.1612(2)
H7 H -0.1246 -0.5047 0.0977
C11 C -0.0741(3) -0.3428(2) 0.1573(2)
H8 H -0.1255 -0.3033 0.0920
C12 C 0.0000 -0.2817(3) 0.2500
Fe1_2 Fe -1.0000 0.28290(3) 0.2500
Fe1_3 Fe 0.0000 -0.71710(3) 0.2500
N1A N 0.06780(18) 0.28025(16) 0.42746(17)
C1A C 0.1444(2) 0.3004(2) 0.5136(2)
S1A S 0.25347(9) 0.32872(10) 0.63189(7)
N2A N -0.80644(16) 0.28330(16) 0.25207(16)
N2A_2 N 0.19356(16) 0.28330(16) 0.25207(16)
C2A C -0.7796(2) 0.3337(2) 0.1690(2)
H1A H -0.8444 0.3709 0.1106
C3A C -0.6606(2) 0.3340(3) 0.1644(2)
H2A H -0.6459 0.3690 0.1028
C4A C -0.5643(2) 0.2831(2) 0.2501(2)
C5A C -0.5919(2) 0.2335(2) 0.3377(2)
H3A H -0.5281 0.1993 0.3993
C6A C -0.7130(2) 0.2343(2) 0.3343(2)
H4A H -0.7307 0.1979 0.3939
C7A C -0.0151(2) 0.02948(19) 0.3337(2)
H5A H -0.0268 0.0711 0.3935
C8A C -0.0146(3) -0.0905(2) 0.3378(2)
H6A H -0.0241 -0.1296 0.3999
N4_2 N 0.0000 0.4765(2) 0.2500
C10A C 0.0721(3) -0.4632(2) 0.3388(2)
H7A H 0.1246 -0.5047 0.4023
C11A C 0.0741(3) -0.3428(2) 0.3427(2)
H8A H 0.1255 -0.3033 0.4080
C13 C -0.3209(3) -0.0516(3) 0.0165(4)
S2 S -0.30366(15) 0.00558(14) -0.08446(13)
S3 S -0.33735(12) -0.10873(12) 0.11948(11)
C14 C -0.5000 0.5000 0.0000
S4 S -0.41655(11) 0.56073(10) 0.10722(8)
S4B S -0.58345(11) 0.43927(10) -0.10722(8)
loop_
_geom_bond_atom_site_label_1
_geom_bond_atom_site_label_2
_geom_bond_site_symmetry_1
_geom_bond_site_symmetry_2
Fe1 N1 1_555 1_555
N1 C1 1_555 1_555
C1 S1 1_555 1_555
N2 Fe1 1_555 1_555
C2 N2 1_555 1_555
H1 C2 1_555 1_555
C3 C2 1_555 1_555
H2 C3 1_555 1_555
C4 C3 1_555 1_555
C5 C4 1_555 1_555
H3 C5 1_555 1_555
C6 N2 1_555 1_555
H4 C6 1_555 1_555
N3 Fe1 1_555 1_555
C7 N3 1_555 1_555
H5 C7 1_555 1_555
C8 C7 1_555 1_555
H6 C8 1_555 1_555
C9 C8 1_555 1_555
N4 C10 1_555 1_555
C10 H7 1_555 1_555
C11 C10 1_555 1_555
H8 C11 1_555 1_555
C12 C9 1_555 1_555
C13 S2 1_555 1_555
S3 C13 1_555 1_555
C14 S4 1_555 1_555
Fe1_2 N2A 1_555 1_555
Fe1_3 N4 1_555 1_555
N1A Fe1 1_555 1_555
C1A N1A 1_555 1_555
S1A C1A 1_555 1_555
N2A C2A 1_555 1_555
N2A_2 Fe1 1_555 1_555
C2A H1A 1_555 1_555
C3A C2A 1_555 1_555
H2A C3A 1_555 1_555
C4A C4 1_555 1_555
C5A C4A 1_555 1_555
H3A C5A 1_555 1_555
C6A N2A 1_555 1_555
H4A C6A 1_555 1_555
C7A N3 1_555 1_555
H5A C7A 1_555 1_555
C8A C9 1_555 1_555
H6A C8A 1_555 1_555
N4_2 Fe1 1_555 1_555
C10A N4 1_555 1_555
H7A C10A 1_555 1_555
C11A C12 1_555 1_555
H8A C11A 1_555 1_555
S4B C14 1_555 1_555
C5 C6 1_555 1_555
C11 C12 1_555 1_555
C3A C4A 1_555 1_555
C5A C6A 1_555 1_555
C7A C8A 1_555 1_555
C10A C11A 1_555 1_555

#END
