
#######################################################################
#
#                 Cambridge Crystallographic Data Centre
#                                CCDC 
#
#######################################################################
#
# If this CIF has been generated from an entry in the Cambridge 
# Structural Database, then it will include bibliographic, chemical, 
# crystal, experimental, refinement or atomic coordinate data resulting 
# from the CCDC's data processing and validation procedures.
#
#######################################################################

data_QAGXAZ
_symmetry_cell_setting           monoclinic
_symmetry_space_group_name_H-M   'C 2/c'
_symmetry_Int_Tables_number      15
_space_group_name_Hall           '-C 2yn'
loop_
_symmetry_equiv_pos_site_id
_symmetry_equiv_pos_as_xyz
1 x,y,z
2 -x,y,1/2-z
3 1/2+x,1/2+y,z
4 1/2-x,1/2+y,1/2-z
5 -x,-y,-z
6 x,-y,1/2+z
7 1/2-x,1/2-y,-z
8 1/2+x,1/2-y,1/2+z
_cell_length_a                   16.4191(6)
_cell_length_b                   16.3755(6)
_cell_length_c                   12.5505(4)
_cell_angle_alpha                90
_cell_angle_beta                 120.210(2)
_cell_angle_gamma                90
_cell_volume                     2916.17
loop_
_atom_site_label
_atom_site_type_symbol
_atom_site_fract_x
_atom_site_fract_y
_atom_site_fract_z
C12 C 0.3654(2) 0.3019(2) 0.5104(3)
H9 H 0.3379 0.2570 0.5334
H10 H 0.4342 0.3011 0.5635
H11 H 0.3489 0.2956 0.4242
N4 N 0.32853(18) 0.38016(16) 0.5257(2)
O1 O 0.3827(2) 0.43695(16) 0.5747(2)
O2 O 0.24484(18) 0.38455(18) 0.4866(3)
O3 O 0.0000 0.4351(5) 0.2500
C13 C 0.0176(5) 0.3975(4) 0.1566(5)
H12 H 0.0641 0.3537 0.1947
H13 H 0.0418 0.4390 0.1233
H14 H -0.0413 0.3750 0.0897
C13A C -0.0176(5) 0.3975(4) 0.3434(5)
H12A H -0.0641 0.3537 0.3053
H13A H -0.0418 0.4390 0.3767
H14A H 0.0413 0.3750 0.4103
Fe1 Fe 1.0000 -0.23208(2) 0.2500
N1 N 1.07693(13) -0.22706(10) 0.44576(17)
C1 C 1.10001(14) -0.22616(12) 0.5497(2)
S1 S 1.13228(5) -0.22583(5) 0.69556(6)
N2 N 0.59266(11) 0.16796(10) 0.24602(16)
C2 C 0.58054(15) 0.13361(14) 0.1417(2)
H1 H 0.5296 0.1521 0.0654
C3 C 0.63808(16) 0.07284(14) 0.1393(2)
H2 H 0.6255 0.0497 0.0631
C4 C 0.71453(14) 0.04583(12) 0.2493(2)
C5 C 0.72692(15) 0.08000(14) 0.3580(2)
H3 H 0.7774 0.0627 0.4355
C6 C 0.66489(15) 0.13953(13) 0.3519(2)
H4 H 0.6740 0.1616 0.4271
N3 N 0.90481(11) -0.13522(10) 0.25262(15)
C7 C 0.81113(14) -0.14352(13) 0.1819(2)
H5 H 0.7872 -0.1909 0.1319
C8 C 0.74739(14) -0.08633(13) 0.1782(2)
H6 H 0.6816 -0.0948 0.1264
C9 C 0.78051(14) -0.01676(12) 0.25078(19)
C10 C 0.87809(15) -0.00779(13) 0.3250(2)
H7 H 0.9039 0.0387 0.3765
C11 C 0.93664(14) -0.06786(13) 0.3223(2)
H8 H 1.0028 -0.0608 0.3725
Fe1B Fe 0.5000 0.26792(2) 0.2500
Fe1B_2 Fe 1.5000 0.26792(2) 0.2500
N1A N 0.92307(13) -0.22706(10) 0.05424(17)
C1A C 0.89999(14) -0.22616(12) -0.0497(2)
S1A S 0.86772(5) -0.22583(5) -0.19556(6)
N2A N 1.40734(11) 0.16796(10) 0.25398(16)
N2B N 1.09266(11) -0.33204(10) 0.24602(16)
N2C N 0.90734(11) -0.33204(10) 0.25398(16)
C2A C 1.41946(15) 0.13361(14) 0.3583(2)
H1A H 1.4704 0.1521 0.4346
C3A C 1.36192(16) 0.07284(14) 0.3607(2)
H2A H 1.3745 0.0497 0.4369
C4A C 1.28547(14) 0.04583(12) 0.2507(2)
C5A C 1.27308(15) 0.08000(14) 0.1420(2)
H3A H 1.2226 0.0627 0.0645
C6A C 1.33511(15) 0.13953(13) 0.1481(2)
H4A H 1.3260 0.1616 0.0729
N3A N 1.09519(11) -0.13522(10) 0.24738(15)
C7A C 1.18887(14) -0.14352(13) 0.3181(2)
H5A H 1.2128 -0.1909 0.3681
C8A C 1.25261(14) -0.08633(13) 0.3218(2)
H6A H 1.3184 -0.0948 0.3736
C9A C 1.21949(14) -0.01676(12) 0.24922(19)
C10A C 1.12191(15) -0.00779(13) 0.1750(2)
H7A H 1.0961 0.0387 0.1235
C11A C 1.06336(14) -0.06786(13) 0.1777(2)
H8A H 0.9972 -0.0608 0.1275
loop_
_geom_bond_atom_site_label_1
_geom_bond_atom_site_label_2
_geom_bond_site_symmetry_1
_geom_bond_site_symmetry_2
Fe1 N1 1_555 1_555
N1 C1 1_555 1_555
C1 S1 1_555 1_555
N2 C2 1_555 1_555
C2 H1 1_555 1_555
C3 C2 1_555 1_555
H2 C3 1_555 1_555
C4 C3 1_555 1_555
C5 C4 1_555 1_555
H3 C5 1_555 1_555
C6 N2 1_555 1_555
H4 C6 1_555 1_555
N3 Fe1 1_555 1_555
C7 N3 1_555 1_555
H5 C7 1_555 1_555
C8 C7 1_555 1_555
H6 C8 1_555 1_555
C9 C4 1_555 1_555
C10 C9 1_555 1_555
H7 C10 1_555 1_555
C11 N3 1_555 1_555
H8 C11 1_555 1_555
C12 H9 1_555 1_555
H10 C12 1_555 1_555
H11 C12 1_555 1_555
N4 C12 1_555 1_555
O1 N4 1_555 1_555
O2 N4 1_555 1_555
O3 C13 1_555 1_555
C13 H12 1_555 1_555
H13 C13 1_555 1_555
H14 C13 1_555 1_555
Fe1B N2 1_555 1_555
Fe1B_2 N2A 1_555 1_555
N1A Fe1 1_555 1_555
C1A N1A 1_555 1_555
S1A C1A 1_555 1_555
N2A C2A 1_555 1_555
N2B Fe1 1_555 1_555
N2C Fe1 1_555 1_555
C2A H1A 1_555 1_555
C3A C2A 1_555 1_555
H2A C3A 1_555 1_555
C4A C3A 1_555 1_555
C5A C4A 1_555 1_555
H3A C5A 1_555 1_555
C6A N2A 1_555 1_555
H4A C6A 1_555 1_555
N3A Fe1 1_555 1_555
C7A N3A 1_555 1_555
H5A C7A 1_555 1_555
C8A C7A 1_555 1_555
H6A C8A 1_555 1_555
C9A C4A 1_555 1_555
C10A C9A 1_555 1_555
H7A C10A 1_555 1_555
C11A N3A 1_555 1_555
H8A C11A 1_555 1_555
C13A O3 1_555 1_555
H12A C13A 1_555 1_555
H13A C13A 1_555 1_555
H14A C13A 1_555 1_555
C5 C6 1_555 1_555
C8 C9 1_555 1_555
C10 C11 1_555 1_555
C5A C6A 1_555 1_555
C8A C9A 1_555 1_555
C10A C11A 1_555 1_555

#END
