
#######################################################################
#
#                 Cambridge Crystallographic Data Centre
#                                CCDC 
#
#######################################################################
#
# If this CIF has been generated from an entry in the Cambridge 
# Structural Database, then it will include bibliographic, chemical, 
# crystal, experimental, refinement or atomic coordinate data resulting 
# from the CCDC's data processing and validation procedures.
#
#######################################################################

data_QAGXIH
_symmetry_cell_setting           monoclinic
_symmetry_space_group_name_H-M   'P 21/c'
_symmetry_Int_Tables_number      14
_space_group_name_Hall           '-P 2ybc'
loop_
_symmetry_equiv_pos_site_id
_symmetry_equiv_pos_as_xyz
1 x,y,z
2 -x,1/2+y,1/2-z
3 -x,-y,-z
4 x,1/2-y,1/2+z
_cell_length_a                   16.2757(16)
_cell_length_b                   16.0521(16)
_cell_length_c                   19.3232(18)
_cell_angle_alpha                90
_cell_angle_beta                 107.281(2)
_cell_angle_gamma                90
_cell_volume                     4820.48
loop_
_atom_site_label
_atom_site_type_symbol
_atom_site_fract_x
_atom_site_fract_y
_atom_site_fract_z
Sn1 Sn 0.62797(4) 0.90086(3) 0.12073(3)
Sn2 Sn 0.79347(4) 0.83093(4) -0.05214(3)
Sn3 Sn 0.97469(4) 0.98052(4) 0.23662(3)
Sn4 Sn 0.46991(4) 0.58523(4) 0.20312(3)
Sn5 Sn 0.13642(4) 0.70834(4) 0.07564(3)
Sn6 Sn 0.34158(4) 0.63924(4) -0.08162(3)
O1 O 0.7311(3) 0.8429(3) 0.0940(3)
O2 O 0.8602(3) 0.8066(3) 0.0591(3)
O3 O 0.8709(4) 0.9067(3) 0.1624(3)
O4 O 0.9281(4) 0.5683(4) 0.1862(3)
O5 O 0.8296(4) 0.5599(4) 0.2437(3)
O6 O 0.2509(4) 0.7287(4) 0.0501(3)
O7 O 0.3854(4) 0.6940(4) 0.0203(3)
O8 O 0.3778(4) 0.6778(4) 0.1475(3)
O9 O 0.4246(3) 0.9897(3) 0.2309(3)
O10 O 0.5022(4) 0.9595(3) 0.1577(3)
O12 O -0.0075(4) 0.6857(4) 0.0971(4)
H3 H -0.0458 0.7233 0.0844
H4 H -0.0239 0.6503 0.1229
O13 O 0.2992(4) 0.5712(4) -0.2063(3)
H5 H 0.2598 0.5345 -0.2159
H6 H 0.3384 0.5555 -0.2243
P1 P 0.82753(13) 0.83260(13) 0.12257(10)
P2 P 0.34719(13) 0.72493(13) 0.07814(11)
C1 C 0.8520(5) 0.7468(5) 0.1839(4)
H7 H 0.9141 0.7409 0.2018
H8 H 0.8317 0.7598 0.2251
C2 C 0.8128(5) 0.6620(5) 0.1516(4)
H9 H 0.7523 0.6604 0.1488
H10 H 0.8173 0.6561 0.1029
C3 C 0.8584(6) 0.5919(5) 0.1972(4)
C4 C 0.3862(7) 0.8294(6) 0.0924(5)
H11 H 0.4458 0.8293 0.0926
H12 H 0.3542 0.8625 0.0512
C5 C 0.3816(6) 0.8711(6) 0.1575(5)
H13 H 0.3950 0.8308 0.1967
H14 H 0.3228 0.8892 0.1500
C6 C 0.4406(6) 0.9462(5) 0.1816(4)
C7 C 0.5460(5) 0.8826(6) 0.0153(5)
H15 H 0.5532 0.9274 -0.0152
H16 H 0.4874 0.8813 0.0163
H17 H 0.5598 0.8308 -0.0033
C8 C 0.6800(6) 1.0221(5) 0.1411(5)
H18 H 0.6714 1.0510 0.0960
H19 H 0.7405 1.0186 0.1659
H20 H 0.6518 1.0519 0.1707
C9 C 0.6352(6) 0.8182(6) 0.2056(5)
H21 H 0.6079 0.7667 0.1864
H22 H 0.6065 0.8419 0.2378
H23 H 0.6944 0.8081 0.2317
C10 C 0.7766(8) 0.9606(7) -0.0380(6)
H24 H 0.8295 0.9894 -0.0342
H25 H 0.7605 0.9694 0.0053
H26 H 0.7322 0.9817 -0.0789
C11 C 0.6944(6) 0.7424(6) -0.0652(5)
H27 H 0.6499 0.7651 -0.0474
H28 H 0.7172 0.6929 -0.0385
H29 H 0.6708 0.7290 -0.1156
C12 C 0.8930(7) 0.7870(8) -0.0917(5)
H30 H 0.9365 0.8291 -0.0852
H31 H 0.8701 0.7741 -0.1423
H32 H 0.9178 0.7377 -0.0656
C13 C 0.9447(7) 1.0800(6) 0.1623(5)
H33 H 0.9015 1.1144 0.1725
H34 H 0.9235 1.0583 0.1140
H35 H 0.9955 1.1125 0.1667
C14 C 1.0648(7) 0.8878(6) 0.2402(6)
H36 H 1.0670 0.8505 0.2795
H37 H 1.1204 0.9127 0.2475
H38 H 1.0488 0.8575 0.1954
C15 C 0.9150(7) 0.9672(7) 0.3191(5)
H39 H 0.8742 1.0115 0.3155
H40 H 0.9578 0.9696 0.3656
H41 H 0.8858 0.9146 0.3138
C16 C 0.3773(6) 0.4890(6) 0.1727(5)
H42 H 0.3803 0.4638 0.1284
H43 H 0.3208 0.5118 0.1655
H44 H 0.3886 0.4477 0.2102
C17 C 0.4901(6) 0.6584(5) 0.2963(4)
H45 H 0.5361 0.6970 0.2992
H46 H 0.5049 0.6232 0.3383
H47 H 0.4384 0.6886 0.2940
C18 C 0.5499(6) 0.6004(6) 0.1365(5)
H48 H 0.5901 0.6446 0.1552
H49 H 0.5154 0.6140 0.0883
H50 H 0.5806 0.5496 0.1357
C19 C 0.0939(7) 0.6119(7) -0.0007(6)
H51 H 0.1185 0.5600 0.0202
H52 H 0.1116 0.6235 -0.0429
H53 H 0.0323 0.6083 -0.0142
C20 C 0.1914(7) 0.6816(7) 0.1857(5)
H54 H 0.2075 0.6239 0.1913
H55 H 0.1505 0.6930 0.2114
H56 H 0.2416 0.7157 0.2048
C21 C 0.0964(7) 0.8316(7) 0.0503(6)
H57 H 0.1206 0.8665 0.0917
H58 H 0.0347 0.8343 0.0371
H59 H 0.1154 0.8505 0.0105
C22 C 0.2940(7) 0.5281(6) -0.0477(5)
H60 H 0.3410 0.4909 -0.0270
H61 H 0.2539 0.5020 -0.0887
H62 H 0.2656 0.5413 -0.0121
C23 C 0.4645(6) 0.6406(7) -0.0950(5)
H63 H 0.4967 0.5934 -0.0706
H64 H 0.4937 0.6910 -0.0748
H65 H 0.4597 0.6379 -0.1457
C24 C 0.2561(7) 0.7346(6) -0.1284(5)
H66 H 0.2875 0.7806 -0.1398
H67 H 0.2264 0.7525 -0.0949
H68 H 0.2153 0.7146 -0.1719
Sn3A Sn 1.02531(4) 0.48052(4) 0.26338(3)
Sn4A Sn 0.53009(4) 1.08523(4) 0.29688(3)
O4A O 1.0719(4) 1.0683(4) 0.3138(3)
O9A O 0.5754(3) 0.4897(3) 0.2691(3)
O11 O 0.7237(4) 0.8698(4) -0.1864(3)
H1 H 0.7601 0.8872 -0.2067
H2 H 0.6819 0.9039 -0.1958
loop_
_geom_bond_atom_site_label_1
_geom_bond_atom_site_label_2
_geom_bond_site_symmetry_1
_geom_bond_site_symmetry_2
Sn1 O1 1_555 1_555
Sn2 O2 1_555 1_555
Sn3 O3 1_555 1_555
Sn4 O8 1_555 1_555
Sn5 O6 1_555 1_555
Sn6 O7 1_555 1_555
O1 P1 1_555 1_555
O2 P1 1_555 1_555
O3 P1 1_555 1_555
O4 C3 1_555 1_555
O5 C3 1_555 1_555
O6 P2 1_555 1_555
O7 P2 1_555 1_555
O8 P2 1_555 1_555
O9 C6 1_555 1_555
O10 Sn1 1_555 1_555
O11 H1 1_555 1_555
H2 O11 1_555 1_555
O12 Sn5 1_555 1_555
H3 O12 1_555 1_555
H4 O12 1_555 1_555
O13 Sn6 1_555 1_555
H5 O13 1_555 1_555
H6 O13 1_555 1_555
P1 C1 1_555 1_555
P2 C4 1_555 1_555
C1 H7 1_555 1_555
H8 C1 1_555 1_555
C2 C1 1_555 1_555
H9 C2 1_555 1_555
H10 C2 1_555 1_555
C3 C2 1_555 1_555
C4 H11 1_555 1_555
H12 C4 1_555 1_555
C5 C4 1_555 1_555
H13 C5 1_555 1_555
H14 C5 1_555 1_555
C6 O10 1_555 1_555
C7 Sn1 1_555 1_555
H15 C7 1_555 1_555
H16 C7 1_555 1_555
H17 C7 1_555 1_555
C8 Sn1 1_555 1_555
H18 C8 1_555 1_555
H19 C8 1_555 1_555
H20 C8 1_555 1_555
C9 Sn1 1_555 1_555
H21 C9 1_555 1_555
H22 C9 1_555 1_555
H23 C9 1_555 1_555
C10 Sn2 1_555 1_555
H24 C10 1_555 1_555
H25 C10 1_555 1_555
H26 C10 1_555 1_555
C11 Sn2 1_555 1_555
H27 C11 1_555 1_555
H28 C11 1_555 1_555
H29 C11 1_555 1_555
C12 Sn2 1_555 1_555
H30 C12 1_555 1_555
H31 C12 1_555 1_555
H32 C12 1_555 1_555
C13 Sn3 1_555 1_555
H33 C13 1_555 1_555
H34 C13 1_555 1_555
H35 C13 1_555 1_555
C14 Sn3 1_555 1_555
H36 C14 1_555 1_555
H37 C14 1_555 1_555
H38 C14 1_555 1_555
C15 Sn3 1_555 1_555
H39 C15 1_555 1_555
H40 C15 1_555 1_555
H41 C15 1_555 1_555
C16 Sn4 1_555 1_555
H42 C16 1_555 1_555
H43 C16 1_555 1_555
H44 C16 1_555 1_555
C17 Sn4 1_555 1_555
H45 C17 1_555 1_555
H46 C17 1_555 1_555
H47 C17 1_555 1_555
C18 Sn4 1_555 1_555
H48 C18 1_555 1_555
H49 C18 1_555 1_555
H50 C18 1_555 1_555
C19 Sn5 1_555 1_555
H51 C19 1_555 1_555
H52 C19 1_555 1_555
H53 C19 1_555 1_555
C20 Sn5 1_555 1_555
H54 C20 1_555 1_555
H55 C20 1_555 1_555
H56 C20 1_555 1_555
C21 Sn5 1_555 1_555
H57 C21 1_555 1_555
H58 C21 1_555 1_555
H59 C21 1_555 1_555
C22 Sn6 1_555 1_555
H60 C22 1_555 1_555
H61 C22 1_555 1_555
H62 C22 1_555 1_555
C23 Sn6 1_555 1_555
H63 C23 1_555 1_555
H64 C23 1_555 1_555
H65 C23 1_555 1_555
C24 Sn6 1_555 1_555
H66 C24 1_555 1_555
H67 C24 1_555 1_555
H68 C24 1_555 1_555
Sn3A O4 1_555 1_555
Sn4A O9 1_555 1_555
O4A Sn3 1_555 1_555
O9A Sn4 1_555 1_555
C5 C6 1_555 1_555

#END
