
#######################################################################
#
#                 Cambridge Crystallographic Data Centre
#                                CCDC 
#
#######################################################################
#
# If this CIF has been generated from an entry in the Cambridge 
# Structural Database, then it will include bibliographic, chemical, 
# crystal, experimental, refinement or atomic coordinate data resulting 
# from the CCDC's data processing and validation procedures.
#
#######################################################################

data_QAGXUT
_symmetry_cell_setting           monoclinic
_symmetry_space_group_name_H-M   'P 21/c'
_symmetry_Int_Tables_number      14
_space_group_name_Hall           '-P 2ybc'
loop_
_symmetry_equiv_pos_site_id
_symmetry_equiv_pos_as_xyz
1 x,y,z
2 -x,1/2+y,1/2-z
3 -x,-y,-z
4 x,1/2-y,1/2+z
_cell_length_a                   8.522(3)
_cell_length_b                   11.271(3)
_cell_length_c                   9.042(3)
_cell_angle_alpha                90
_cell_angle_beta                 116.706(4)
_cell_angle_gamma                90
_cell_volume                     775.85
loop_
_atom_site_label
_atom_site_type_symbol
_atom_site_fract_x
_atom_site_fract_y
_atom_site_fract_z
Mn1 Mn 0.55787(5) 0.39912(4) 0.80055(5)
Li1 Li 0.9187(10) 0.3250(7) 1.0264(9)
O1 O 0.9854(3) 0.3322(2) 0.8450(2)
O2 O 0.7372(3) 0.42992(19) 0.7016(3)
O3 O 1.2274(2) 0.55013(18) 0.9523(2)
O4 O 1.3645(2) 0.40638(16) 0.8901(2)
O5 O 0.6898(2) 0.26830(16) 0.4183(2)
O6 O 0.5246(2) 0.42239(18) 0.2856(2)
O7 O 0.3686(4) 0.2979(2) 0.5866(3)
H1 H 0.346(9) 0.224(2) 0.563(8)
H2 H 0.441(6) 0.293(5) 0.548(6)
O8 O 1.1521(3) 0.3202(2) 1.2102(3)
H3 H 1.222(5) 0.383(3) 1.261(5)
H4 H 1.135(6) 0.288(4) 1.286(4)
C1 C 0.8863(4) 0.3949(2) 0.7283(3)
C2 C 0.9508(3) 0.4432(2) 0.6088(3)
C3 C 1.1175(3) 0.4934(2) 0.6692(3)
C4 C 1.2460(3) 0.4830(2) 0.8517(3)
C5 C 0.8346(3) 0.4475(2) 0.4396(3)
C6 C 0.6677(3) 0.3760(2) 0.3766(3)
Mn1B Mn 1.44213(5) 0.60088(4) 0.19945(5)
Mn1B_2 Mn 1.44213(5) 0.60088(4) 1.19945(5)
Mn1_2 Mn 1.55787(5) 0.39912(4) 0.80055(5)
Mn1C Mn 0.55787(5) 0.10088(4) 0.30055(5)
Mn1B_3 Mn 0.44213(5) 0.60088(4) 0.19945(5)
Mn1_3 Mn 0.55787(5) 0.39912(4) -0.19945(5)
Mn1A Mn 1.44213(5) 0.89912(4) 0.69945(5)
Li1B Li 1.0813(10) 0.6750(7) -0.0264(9)
Li1B_2 Li 1.0813(10) 0.6750(7) 0.9736(9)
Li1C Li 0.9187(10) 0.1750(7) 0.5264(9)
Li1_2 Li 0.9187(10) 0.3250(7) 0.0264(9)
Li1A Li 1.0813(10) 0.8250(7) 0.4736(9)
O1B O 1.0146(3) 0.6678(2) 0.1550(2)
O1C O 0.9854(3) 0.1678(2) 0.3450(2)
O2B O 1.2628(3) 0.57008(19) 0.2984(3)
O2B_2 O 0.2628(3) 0.57008(19) 0.2984(3)
O3B O 0.7726(2) 0.44987(18) 0.0477(2)
O3B_2 O 0.7726(2) 0.44987(18) 1.0477(2)
O3A O 0.7726(2) 0.05013(18) 0.5477(2)
O3_2 O 0.2274(2) 0.55013(18) -0.0477(2)
O4B O 0.6355(2) 0.59362(16) 0.1099(2)
O4_2 O 0.3645(2) 0.40638(16) 0.8901(2)
O5B O 1.3102(2) 0.73170(16) 0.5817(2)
O5C O 0.6898(2) 0.23170(16) 0.9183(2)
O5A O 0.3102(2) 0.76830(16) 0.0817(2)
O6B O 1.4754(2) 0.57761(18) 0.7144(2)
O6B_2 O 0.4754(2) 0.57761(18) 0.7144(2)
O7B O 0.6314(4) 0.7021(2) 0.4134(3)
H1B H 0.654(9) 0.776(2) 0.437(8)
H2B H 0.559(6) 0.707(5) 0.452(6)
O8C O 1.1521(3) 0.1798(2) 0.7102(3)
H3C H 1.222(5) 0.117(3) 0.761(5)
H4C H 1.135(6) 0.212(4) 0.786(4)
C1B C 1.1137(4) 0.6051(2) 0.2717(3)
C2B C 1.0492(3) 0.5568(2) 0.3912(3)
C3B C 0.8825(3) 0.5066(2) 0.3308(3)
C4B C 0.7540(3) 0.5170(2) 0.1483(3)
C5B C 1.1654(3) 0.5525(2) 0.5604(3)
C6B C 1.3323(3) 0.6240(2) 0.6234(3)
loop_
_geom_bond_atom_site_label_1
_geom_bond_atom_site_label_2
_geom_bond_site_symmetry_1
_geom_bond_site_symmetry_2
Mn1 O2 1_555 1_555
Li1 O1 1_555 1_555
O1 C1 1_555 1_555
O2 C1 1_555 1_555
O3 C4 1_555 1_555
O4 C4 1_555 1_555
O5 C6 1_555 1_555
O6 C6 1_555 1_555
O7 Mn1 1_555 1_555
H1 O7 1_555 1_555
H2 O7 1_555 1_555
O8 Li1 1_555 1_555
H3 O8 1_555 1_555
H4 O8 1_555 1_555
C1 C2 1_555 1_555
C2 C3 1_555 1_555
C3 C4 1_555 1_555
C5 C2 1_555 1_555
C6 C5 1_555 1_555
Mn1B O2B 1_555 1_555
Mn1B_2 O3 1_555 1_555
Mn1_2 O4 1_555 1_555
Mn1C O5 1_555 1_555
Mn1B_3 O6 1_555 1_555
Mn1_3 O3B 1_555 1_555
Mn1A O5B 1_555 1_555
Li1B O1B 1_555 1_555
Li1B_2 O3 1_555 1_555
Li1C O5 1_555 1_555
Li1_2 O3B 1_555 1_555
Li1A O5B 1_555 1_555
O1B C1B 1_555 1_555
O1C Li1C 1_555 1_555
O2B C1B 1_555 1_555
O2B_2 Mn1B_3 1_555 1_555
O3B C4B 1_555 1_555
O3B_2 Mn1 1_555 1_555
O3A Mn1C 1_555 1_555
O3_2 Mn1B_3 1_555 1_555
O4B Mn1B_3 1_555 1_555
O4_2 Mn1 1_555 1_555
O5B C6B 1_555 1_555
O5C Mn1 1_555 1_555
O5A Mn1B_3 1_555 1_555
O6B Mn1_2 1_555 1_555
O6B_2 Mn1 1_555 1_555
O7B Mn1B_3 1_555 1_555
H1B O7B 1_555 1_555
H2B O7B 1_555 1_555
O8C Li1C 1_555 1_555
H3C O8C 1_555 1_555
H4C O8C 1_555 1_555
C1B C2B 1_555 1_555
C2B C3B 1_555 1_555
C3B C5 1_555 1_555
C4B O4B 1_555 1_555
C5B C3 1_555 1_555
C6B O6B 1_555 1_555
Li1 O3B_2 1_555 1_555
Li1 O5C 1_555 1_555
Li1C O3A 1_555 1_555
C2B C5B 1_555 1_555
C3B C4B 1_555 1_555
C5B C6B 1_555 1_555

#END
