
#######################################################################
#
#                 Cambridge Crystallographic Data Centre
#                                CCDC 
#
#######################################################################
#
# If this CIF has been generated from an entry in the Cambridge 
# Structural Database, then it will include bibliographic, chemical, 
# crystal, experimental, refinement or atomic coordinate data resulting 
# from the CCDC's data processing and validation procedures.
#
#######################################################################

data_QAGXAY
_symmetry_cell_setting           monoclinic
_symmetry_space_group_name_H-M   'P 21/c'
_symmetry_Int_Tables_number      14
_space_group_name_Hall           '-P 2ybc'
loop_
_symmetry_equiv_pos_site_id
_symmetry_equiv_pos_as_xyz
1 x,y,z
2 x,1/2-y,1/2+z
3 -x,-y,-z
4 -x,1/2+y,1/2-z
_cell_length_a                   8.6743(5)
_cell_length_b                   7.2741(5)
_cell_length_c                   17.4386(12)
_cell_angle_alpha                90
_cell_angle_beta                 99.754(2)
_cell_angle_gamma                90
_cell_volume                     1084.43
loop_
_atom_site_label
_atom_site_type_symbol
_atom_site_fract_x
_atom_site_fract_y
_atom_site_fract_z
Ni1 Ni 0.0000 0.0000 0.0000
S1 S 0.02105(10) 0.48607(13) 0.18387(5)
N1 N -0.1785(3) -0.0485(3) 0.06488(14)
N2 N 0.0490(3) 0.2301(3) 0.06696(15)
N3 N -0.8398(3) -0.1691(3) 0.07770(15)
C1 C -0.4239(3) -0.0295(3) 0.12997(15)
C2 C -0.5614(3) -0.1060(3) 0.08949(15)
H1 H -0.5609 -0.1652 0.0423
C3 C -0.6983(3) -0.0936(4) 0.11978(16)
C5 C 0.0380(3) 0.3360(4) 0.11577(17)
C7 C -0.2842(3) -0.0411(3) 0.09562(17)
C8 C -0.6973(3) -0.0031(4) 0.19035(16)
H4 H -0.7891 0.0064 0.2110
C9 C -0.4219(3) 0.0602(4) 0.20062(17)
H5 H -0.3299 0.1104 0.2275
C11 C -0.5600(4) 0.0728(4) 0.22982(17)
H7 H -0.5608 0.1333 0.2767
H8 H -0.8151 -0.2583 0.0460
H9 H -0.9008 -0.2156 0.1128
N1B N 0.1785(3) 0.0485(3) -0.06488(14)
N3B N 0.8398(3) 0.1691(3) -0.07770(15)
C1B C 0.4239(3) 0.0295(3) -0.12997(15)
C2B C 0.5614(3) 0.1060(3) -0.08949(15)
H1B H 0.5609 0.1652 -0.0423
C3B C 0.6983(3) 0.0936(4) -0.11978(16)
C7B C 0.2842(3) 0.0411(3) -0.09562(17)
C8B C 0.6973(3) 0.0031(4) -0.19035(16)
H4B H 0.7891 -0.0064 -0.2110
C9B C 0.4219(3) -0.0602(4) -0.20062(17)
H5B H 0.3299 -0.1104 -0.2275
C11B C 0.5600(4) -0.0728(4) -0.22982(17)
H7B H 0.5608 -0.1333 -0.2767
H8B H 0.8151 0.2583 -0.0460
H9B H 0.9008 0.2156 -0.1128
S1B S -0.02105(10) -0.48607(13) -0.18387(5)
N2B N -0.0490(3) -0.2301(3) -0.06696(15)
C5B C -0.0380(3) -0.3360(4) -0.11577(17)
N3_2 N 0.1602(3) -0.1691(3) 0.07770(15)
N3B_2 N -0.1602(3) 0.1691(3) -0.07770(15)
Ni1_2 Ni -1.0000 0.0000 0.0000
Ni1_3 Ni 1.0000 0.0000 0.0000
H8_2 H 0.1849 -0.2583 0.0460
H9_2 H 0.0992 -0.2156 0.1128
H8B_2 H -0.1849 0.2583 -0.0460
H9B_2 H -0.0992 0.2156 -0.1128
C4 C 0.6593(3) 0.5356(4) 0.01163(18)
H2 H 0.7661 0.5596 0.0193
C6 C 0.5937(4) 0.4516(4) 0.06926(18)
H3 H 0.6566 0.4189 0.1159
C10 C 0.5651(4) 0.5843(4) -0.05808(18)
H6 H 0.6089 0.6410 -0.0971
C10B C 0.4349(4) 0.4157(4) 0.05808(18)
C4B C 0.3407(3) 0.4644(4) -0.01163(18)
H2B H 0.2339 0.4404 -0.0193
C6B C 0.4063(4) 0.5484(4) -0.06926(18)
H3B H 0.3434 0.5811 -0.1159
H6B H 0.3911 0.3590 0.0971
loop_
_geom_bond_atom_site_label_1
_geom_bond_atom_site_label_2
_geom_bond_site_symmetry_1
_geom_bond_site_symmetry_2
Ni1 N1 1_555 1_555
S1 C5 1_555 1_555
N1 C7 1_555 1_555
N2 Ni1 1_555 1_555
N3 C3 1_555 1_555
C1 C2 1_555 1_555
C2 H1 1_555 1_555
C3 C2 1_555 1_555
C4 H2 1_555 1_555
C5 N2 1_555 1_555
C6 C4 1_555 1_555
H3 C6 1_555 1_555
C7 C1 1_555 1_555
C8 C3 1_555 1_555
H4 C8 1_555 1_555
C9 C1 1_555 1_555
H5 C9 1_555 1_555
C10 C4 1_555 1_555
H6 C10 1_555 1_555
C11 C8 1_555 1_555
H7 C11 1_555 1_555
H8 N3 1_555 1_555
H9 N3 1_555 1_555
C10B C6 1_555 1_555
C4B C10B 1_555 1_555
H2B C4B 1_555 1_555
C6B C10 1_555 1_555
H3B C6B 1_555 1_555
H6B C10B 1_555 1_555
N1B Ni1 1_555 1_555
N3B C3B 1_555 1_555
C1B C2B 1_555 1_555
C2B H1B 1_555 1_555
C3B C2B 1_555 1_555
C7B N1B 1_555 1_555
C8B C3B 1_555 1_555
H4B C8B 1_555 1_555
C9B C1B 1_555 1_555
H5B C9B 1_555 1_555
C11B C8B 1_555 1_555
H7B C11B 1_555 1_555
H8B N3B 1_555 1_555
H9B N3B 1_555 1_555
S1B C5B 1_555 1_555
N2B Ni1 1_555 1_555
C5B N2B 1_555 1_555
N3_2 Ni1 1_555 1_555
N3B_2 Ni1 1_555 1_555
Ni1_2 N3 1_555 1_555
Ni1_3 N3B 1_555 1_555
H8_2 N3_2 1_555 1_555
H9_2 N3_2 1_555 1_555
H8B_2 N3B_2 1_555 1_555
H9B_2 N3B_2 1_555 1_555
C9 C11 1_555 1_555
C4B C6B 1_555 1_555
C1B C7B 1_555 1_555
C9B C11B 1_555 1_555

#END
