
#######################################################################
#
#                 Cambridge Crystallographic Data Centre
#                                CCDC 
#
#######################################################################
#
# If this CIF has been generated from an entry in the Cambridge 
# Structural Database, then it will include bibliographic, chemical, 
# crystal, experimental, refinement or atomic coordinate data resulting 
# from the CCDC's data processing and validation procedures.
#
#######################################################################

data_QAGYIG
_symmetry_cell_setting           monoclinic
_symmetry_space_group_name_H-M   'P 21/n'
_symmetry_Int_Tables_number      14
_space_group_name_Hall           '-P 2yn'
loop_
_symmetry_equiv_pos_site_id
_symmetry_equiv_pos_as_xyz
1 x,y,z
2 1/2+x,1/2-y,1/2+z
3 -x,-y,-z
4 1/2-x,1/2+y,1/2-z
_cell_length_a                   6.8693(6)
_cell_length_b                   19.4875(13)
_cell_length_c                   12.7217(10)
_cell_angle_alpha                90.0
_cell_angle_beta                 105.212(9)
_cell_angle_gamma                90.0
_cell_volume                     1643.33
loop_
_atom_site_label
_atom_site_type_symbol
_atom_site_fract_x
_atom_site_fract_y
_atom_site_fract_z
Cu1 Cu 0.10227(3) 0.365786(10) 0.321441(15)
S1 S 0.60113(6) 0.31919(2) 0.29553(3)
O1 O 0.43314(19) 0.36873(6) 0.27941(11)
O2 O 0.79144(19) 0.35040(7) 0.35624(10)
O3 O 0.55515(19) 0.25903(7) 0.35737(11)
O4 O 0.61923(19) 0.29456(7) 0.18763(10)
N1 N 0.0924(2) 0.46778(8) 0.29714(12)
C1 C 0.1718(2) 0.50411(9) 0.38848(13)
C2 C 0.1851(3) 0.57515(9) 0.38566(14)
H1 H 0.239(4) 0.6016(14) 0.449(2)
C3 C 0.1184(3) 0.60901(9) 0.28725(14)
H2 H 0.127(4) 0.6547(15) 0.283(2)
C4 C 0.0349(3) 0.57156(9) 0.19234(14)
N2 N -0.0261(3) 0.60433(9) 0.09165(13)
H3 H -0.123(4) 0.5793(14) 0.044(2)
H4 H -0.051(4) 0.6445(16) 0.103(2)
C5 C 0.0249(3) 0.50049(9) 0.20155(13)
H5 H -0.032(3) 0.4756(13) 0.139(2)
N3 N 0.2158(2) 0.39450(7) 0.47571(11)
C6 C 0.2393(2) 0.46302(9) 0.48893(13)
C7 C 0.3189(3) 0.49118(9) 0.59183(14)
H6 H 0.339(3) 0.5376(13) 0.6000(19)
C8 C 0.3686(3) 0.44833(10) 0.68147(13)
H7 H 0.430(4) 0.4686(15) 0.756(2)
C9 C 0.3372(3) 0.37802(9) 0.66802(14)
N4 N 0.3797(2) 0.33265(9) 0.75694(13)
H8 H 0.290(4) 0.3020(16) 0.752(2)
H9 H 0.395(4) 0.3515(14) 0.816(2)
C10 C 0.2619(3) 0.35280(9) 0.56237(14)
H10 H 0.239(3) 0.3080(13) 0.5477(18)
O5 O 0.1696(2) 0.26695(7) 0.35762(10)
H11 H 0.289(4) 0.2618(15) 0.356(2)
H12 H 0.100(4) 0.2403(17) 0.322(2)
O7 O -0.0234(2) 0.34481(7) 0.16503(10)
H15 H 0.037(4) 0.3249(15) 0.138(2)
H16 H -0.139(4) 0.3309(16) 0.164(2)
O2_2 O -0.20856(19) 0.35040(7) 0.35624(10)
Cu1_2 Cu 1.10227(3) 0.365786(10) 0.321441(15)
O6 O 0.8786(2) 0.05619(8) 0.58814(13)
H13 H 0.972(5) 0.0707(18) 0.561(3)
H14 H 0.887(4) 0.0759(16) 0.648(3)
O8 O 0.1221(3) 0.08232(10) 0.45356(13)
H17 H 0.224(6) 0.095(2) 0.449(3)
H18 H 0.124(5) 0.044(2) 0.439(3)
O9 O 0.2096(2) 0.26084(9) 0.08195(12)
H19 H 0.332(5) 0.2725(16) 0.100(2)
H20 H 0.195(5) 0.254(2) 0.022(3)
loop_
_geom_bond_atom_site_label_1
_geom_bond_atom_site_label_2
_geom_bond_site_symmetry_1
_geom_bond_site_symmetry_2
Cu1 O1 1_555 1_555
S1 O1 1_555 1_555
O2 S1 1_555 1_555
O3 S1 1_555 1_555
O4 S1 1_555 1_555
N1 Cu1 1_555 1_555
C1 N1 1_555 1_555
C2 C1 1_555 1_555
H1 C2 1_555 1_555
C3 C2 1_555 1_555
H2 C3 1_555 1_555
C4 C3 1_555 1_555
N2 C4 1_555 1_555
H3 N2 1_555 1_555
H4 N2 1_555 1_555
C5 N1 1_555 1_555
H5 C5 1_555 1_555
N3 Cu1 1_555 1_555
C6 C1 1_555 1_555
C7 C6 1_555 1_555
H6 C7 1_555 1_555
C8 C7 1_555 1_555
H7 C8 1_555 1_555
C9 C8 1_555 1_555
N4 C9 1_555 1_555
H8 N4 1_555 1_555
H9 N4 1_555 1_555
C10 N3 1_555 1_555
H10 C10 1_555 1_555
O5 Cu1 1_555 1_555
H11 O5 1_555 1_555
H12 O5 1_555 1_555
O6 H13 1_555 1_555
H14 O6 1_555 1_555
O7 Cu1 1_555 1_555
H15 O7 1_555 1_555
H16 O7 1_555 1_555
O8 H17 1_555 1_555
H18 O8 1_555 1_555
O9 H19 1_555 1_555
H20 O9 1_555 1_555
O2_2 Cu1 1_555 1_555
Cu1_2 O2 1_555 1_555
C4 C5 1_555 1_555
N3 C6 1_555 1_555
C9 C10 1_555 1_555

#END
