
#######################################################################
#
#                 Cambridge Crystallographic Data Centre
#                                CCDC 
#
#######################################################################
#
# If this CIF has been generated from an entry in the Cambridge 
# Structural Database, then it will include bibliographic, chemical, 
# crystal, experimental, refinement or atomic coordinate data resulting 
# from the CCDC's data processing and validation procedures.
#
#######################################################################

data_QAGYOO
_symmetry_cell_setting           monoclinic
_symmetry_space_group_name_H-M   'C 2/c'
_symmetry_Int_Tables_number      15
_space_group_name_Hall           '-C 2yn'
loop_
_symmetry_equiv_pos_site_id
_symmetry_equiv_pos_as_xyz
1 x,y,z
2 1/2+x,1/2+y,z
3 -x,y,1/2-z
4 1/2-x,1/2+y,1/2-z
5 -x,-y,-z
6 1/2-x,1/2-y,-z
7 x,-y,1/2+z
8 1/2+x,1/2-y,1/2+z
_cell_length_a                   9.6077(4)
_cell_length_b                   23.2584(11)
_cell_length_c                   9.2718(3)
_cell_angle_alpha                90
_cell_angle_beta                 93.303(3)
_cell_angle_gamma                90
_cell_volume                     2068.43
loop_
_atom_site_label
_atom_site_type_symbol
_atom_site_fract_x
_atom_site_fract_y
_atom_site_fract_z
Cu1 Cu 0.1585(15) 0.0347(7) 0.3923(15)
N1 N 0.1770(15) 0.0120(7) 0.1980(15)
C1 C 0.1840(15) -0.0020(7) 0.0850(15)
N2 N 0.0899(15) 0.1164(7) 0.4442(15)
C2 C -0.0073(15) 0.1227(7) 0.5430(15)
C3 C -0.0127(15) 0.2237(7) 0.5155(15)
C4 C 0.1351(15) 0.1658(7) 0.3811(15)
C5 C 0.0856(15) 0.2196(7) 0.4172(15)
C6 C -0.0602(15) 0.1740(7) 0.5776(15)
C7 C -0.0820(15) 0.2830(7) 0.5640(15)
O1 O -0.0310(15) 0.3240(7) 0.4820(15)
C8 C -0.0980(15) 0.3820(7) 0.5010(15)
C9 C 0.0098(15) 0.4260(7) 0.5350(15)
O2 O -0.1600(15) 0.2900(7) 0.6700(15)
H1 H -0.0422(15) 0.0893(7) 0.5897(15)
H2 H 0.2043(15) 0.1640(7) 0.3105(15)
H3 H 0.1184(15) 0.2533(7) 0.3698(15)
H4 H -0.1319(15) 0.1766(7) 0.6453(15)
H5 H -0.1498(15) 0.3925(7) 0.4134(15)
H6 H -0.1597(15) 0.3801(7) 0.5787(15)
H7 H -0.033990 0.462670 0.546840
H8 H 0.071670 0.428160 0.457490
H9 H 0.061780 0.415770 0.622780
Cu1F Cu 0.1585(15) -0.0347(7) -0.1077(15)
C1F C 0.1840(15) 0.0020(7) 0.5850(15)
loop_
_geom_bond_atom_site_label_1
_geom_bond_atom_site_label_2
_geom_bond_site_symmetry_1
_geom_bond_site_symmetry_2
Cu1 N1 1_555 1_555
N1 C1 1_555 1_555
C1 Cu1F 1_555 1_555
N2 Cu1 1_555 1_555
C2 N2 1_555 1_555
C3 C5 1_555 1_555
C4 N2 1_555 1_555
C5 C4 1_555 1_555
C6 C2 1_555 1_555
C7 C3 1_555 1_555
O1 C7 1_555 1_555
C8 O1 1_555 1_555
C9 C8 1_555 1_555
O2 C7 1_555 1_555
H1 C2 1_555 1_555
H2 C4 1_555 1_555
H3 C5 1_555 1_555
H4 C6 1_555 1_555
H5 C8 1_555 1_555
H6 C8 1_555 1_555
H7 C9 1_555 1_555
H8 C9 1_555 1_555
H9 C9 1_555 1_555
C1F Cu1 1_555 1_555
C3 C6 1_555 1_555

#END
