
#######################################################################
#
#                 Cambridge Crystallographic Data Centre
#                                CCDC 
#
#######################################################################
#
# If this CIF has been generated from an entry in the Cambridge 
# Structural Database, then it will include bibliographic, chemical, 
# crystal, experimental, refinement or atomic coordinate data resulting 
# from the CCDC's data processing and validation procedures.
#
#######################################################################

data_QAGZAZ
_symmetry_cell_setting           orthorhombic
_symmetry_space_group_name_H-M   'P b c n'
_symmetry_Int_Tables_number      60
_space_group_name_Hall           '-P 2n 2ab'
loop_
_symmetry_equiv_pos_site_id
_symmetry_equiv_pos_as_xyz
1 x,y,z
2 1/2+x,1/2+y,1/2-z
3 x,-y,1/2+z
4 1/2-x,1/2+y,z
5 -x,-y,-z
6 1/2-x,1/2-y,1/2+z
7 -x,y,1/2-z
8 1/2+x,1/2-y,-z
_cell_length_a                   21.016(20)
_cell_length_b                   9.399(40)
_cell_length_c                   7.322(40)
_cell_angle_alpha                90
_cell_angle_beta                 90
_cell_angle_gamma                90
_cell_volume                     1446.31
loop_
_atom_site_label
_atom_site_type_symbol
_atom_site_fract_x
_atom_site_fract_y
_atom_site_fract_z
Cd1 Cd 0.0000 0.08827(3) -1.7500
Cl1 Cl 0.07174(4) -0.08096(8) -1.5690(2)
N1 N -0.05823(14) 0.2904(3) -1.8229(4)
C1 C -0.0322(2) 0.4169(3) -1.7902(6)
C2 C 0.0653(2) 0.5409(4) -1.6693(6)
H1 H 0.0471(2) 0.6289(4) -1.6948(6)
C3 C 0.1246(2) 0.5343(4) -1.5921(6)
H2 H 0.1460(2) 0.6179(4) -1.5629(6)
C4 C 0.1530(2) 0.4031(3) -1.5572(6)
C5 C 0.1166(2) 0.2832(4) -1.6030(5)
H3 H 0.1338(2) 0.1937(4) -1.5807(5)
N2 N 0.2130(2) 0.3850(3) -1.4862(5)
H4 H 0.2396(2) 0.4698(3) -1.4557(5)
H5 H 0.2299(2) 0.2870(3) -1.4651(5)
Cd1B Cd 0.0000 -0.08827(3) -1.2500
Cl1B Cl 0.07174(4) 0.08096(8) -2.0690(2)
Cl1D Cl -0.07174(4) 0.08096(8) -1.4310(2)
Cl1F Cl -0.07174(4) -0.08096(8) -1.9310(2)
C1F C 0.0322(2) 0.4169(3) -1.7098(6)
N1F N 0.05823(14) 0.2904(3) -1.6771(4)
C2F C -0.0653(2) 0.5409(4) -1.8307(6)
H1F H -0.0471(2) 0.6289(4) -1.8052(6)
C3F C -0.1246(2) 0.5343(4) -1.9079(6)
H2F H -0.1460(2) 0.6179(4) -1.9371(6)
C4F C -0.1530(2) 0.4031(3) -1.9428(6)
C5F C -0.1166(2) 0.2832(4) -1.8970(5)
H3F H -0.1338(2) 0.1937(4) -1.9193(5)
N2F N -0.2130(2) 0.3850(3) -2.0138(5)
H4F H -0.2396(2) 0.4698(3) -2.0443(5)
H5F H -0.2299(2) 0.2870(3) -2.0349(5)
O1 O 0.20721(15) 0.1043(3) 0.7018(5)
H6 H 0.2346 0.1014 0.8138
H7 H 0.1660 0.0960 0.7820
loop_
_geom_bond_atom_site_label_1
_geom_bond_atom_site_label_2
_geom_bond_site_symmetry_1
_geom_bond_site_symmetry_2
Cd1 Cl1 1_555 1_555
Cl1 Cd1B 1_555 1_555
N1 Cd1 1_555 1_555
C1 N1 1_555 1_555
C2 H1 1_555 1_555
C3 C2 1_555 1_555
H2 C3 1_555 1_555
C4 C3 1_555 1_555
C5 C4 1_555 1_555
H3 C5 1_555 1_555
N2 C4 1_555 1_555
H4 N2 1_555 1_555
H5 N2 1_555 1_555
O1 H6 1_555 1_555
H7 O1 1_555 1_555
Cd1B Cl1D 1_555 1_555
Cl1B Cd1 1_555 1_555
Cl1D Cd1 1_555 1_555
Cl1F Cd1 1_555 1_555
C1F C1 1_555 1_555
N1F Cd1 1_555 1_555
C2F C1 1_555 1_555
H1F C2F 1_555 1_555
C3F C2F 1_555 1_555
H2F C3F 1_555 1_555
C4F C3F 1_555 1_555
C5F N1 1_555 1_555
H3F C5F 1_555 1_555
N2F C4F 1_555 1_555
H4F N2F 1_555 1_555
H5F N2F 1_555 1_555
C2 C1F 1_555 1_555
C5 N1F 1_555 1_555
C1F N1F 1_555 1_555
C4F C5F 1_555 1_555

#END
