
#######################################################################
#
#                 Cambridge Crystallographic Data Centre
#                                CCDC 
#
#######################################################################
#
# If this CIF has been generated from an entry in the Cambridge 
# Structural Database, then it will include bibliographic, chemical, 
# crystal, experimental, refinement or atomic coordinate data resulting 
# from the CCDC's data processing and validation procedures.
#
#######################################################################

data_QAGZAB
_symmetry_cell_setting           monoclinic
_symmetry_space_group_name_H-M   'P 21/c'
_symmetry_Int_Tables_number      14
_space_group_name_Hall           '-P 2ybc'
loop_
_symmetry_equiv_pos_site_id
_symmetry_equiv_pos_as_xyz
1 x,y,z
2 -x,1/2+y,1/2-z
3 -x,-y,-z
4 x,1/2-y,1/2+z
_cell_length_a                   8.7553(7)
_cell_length_b                   8.3260(7)
_cell_length_c                   12.7737(10)
_cell_angle_alpha                90
_cell_angle_beta                 119.611(5)
_cell_angle_gamma                90
_cell_volume                     809.55
loop_
_atom_site_label
_atom_site_type_symbol
_atom_site_fract_x
_atom_site_fract_y
_atom_site_fract_z
C1 C 0.9238(4) 0.4212(5) 0.6621(2)
H1 H 0.9320 0.4706 0.7299
C2 C 1.0551(3) 0.3438(5) 0.6584(3)
H2 H 1.1684 0.3292 0.7223
C3 C 0.8257(3) 0.3381(3) 0.4850(2)
H3 H 0.7519 0.3167 0.4037
C4 C 1.0907(4) 0.2042(4) 0.5000(4)
H4 H 1.0154 0.1824 0.4159
H5 H 1.1322 0.1048 0.5429
H6 H 1.1890 0.2675 0.5105
C5 C 0.4623(2) 0.1131(2) 0.46184(15)
C6 C 0.4790(2) -0.0447(2) 0.41862(15)
N1 N 0.7766(2) 0.4168(2) 0.55182(14)
N2 N 0.9932(2) 0.2920(2) 0.5463(2)
O1 O 0.41476(17) 0.24746(14) 0.41365(10)
O2 O 0.4538(2) -0.09743(16) 0.31956(11)
Cd1 Cd 0.5000 0.5000 0.5000
O3 O 0.5647(3) 0.41926(18) 0.69139(14)
H7 H 0.536(5) 0.470(3) 0.735(3)
H8 H 0.544(4) 0.321(2) 0.690(3)
C1B C 0.0762(4) 0.5788(5) 0.3379(2)
H1B H 0.0680 0.5294 0.2701
C2B C -0.0551(3) 0.6562(5) 0.3416(3)
H2B H -0.1684 0.6708 0.2777
C3B C 0.1743(3) 0.6619(3) 0.5150(2)
H3B H 0.2481 0.6833 0.5963
C4B C -0.0907(4) 0.7958(4) 0.5000(4)
H4B H -0.0154 0.8176 0.5841
H5B H -0.1322 0.8952 0.4571
H6B H -0.1890 0.7325 0.4895
C5B C 0.5377(2) -0.1131(2) 0.53816(15)
C6B C 0.5210(2) 0.0447(2) 0.58138(15)
N1B N 0.2234(2) 0.5832(2) 0.44818(14)
N2B N 0.0068(2) 0.7080(2) 0.4537(2)
O1B O 0.58524(17) -0.24746(14) 0.58635(10)
O1B_2 O 0.58524(17) 0.75254(14) 0.58635(10)
O2B O 0.5462(2) 0.09743(16) 0.68044(11)
Cd1_2 Cd 0.5000 -0.5000 0.5000
O3B O 0.4353(3) 0.58074(18) 0.30861(14)
H7B H 0.464(5) 0.530(3) 0.265(3)
H8B H 0.456(4) 0.679(2) 0.310(3)
loop_
_geom_bond_atom_site_label_1
_geom_bond_atom_site_label_2
_geom_bond_site_symmetry_1
_geom_bond_site_symmetry_2
C1 H1 1_555 1_555
C2 C1 1_555 1_555
H2 C2 1_555 1_555
C3 H3 1_555 1_555
C4 H4 1_555 1_555
H5 C4 1_555 1_555
H6 C4 1_555 1_555
C5 C6 1_555 1_555
C6 O2 1_555 1_555
N1 C1 1_555 1_555
N2 C2 1_555 1_555
O1 C5 1_555 1_555
Cd1 N1 1_555 1_555
O3 Cd1 1_555 1_555
H7 O3 1_555 1_555
H8 O3 1_555 1_555
C1B H1B 1_555 1_555
C2B C1B 1_555 1_555
H2B C2B 1_555 1_555
C3B H3B 1_555 1_555
C4B H4B 1_555 1_555
H5B C4B 1_555 1_555
H6B C4B 1_555 1_555
C5B C6 1_555 1_555
C6B C5 1_555 1_555
N1B Cd1 1_555 1_555
N2B C2B 1_555 1_555
O1B C5B 1_555 1_555
O1B_2 Cd1 1_555 1_555
O2B C6B 1_555 1_555
Cd1_2 O1B 1_555 1_555
O3B Cd1 1_555 1_555
H7B O3B 1_555 1_555
H8B O3B 1_555 1_555
C3 N1 1_555 1_555
C3 N2 1_555 1_555
C4 N2 1_555 1_555
O1 Cd1 1_555 1_555
C1B N1B 1_555 1_555
C3B N1B 1_555 1_555
C3B N2B 1_555 1_555
C4B N2B 1_555 1_555
C5B C6B 1_555 1_555

#END
