
#######################################################################
#
#                 Cambridge Crystallographic Data Centre
#                                CCDC 
#
#######################################################################
#
# If this CIF has been generated from an entry in the Cambridge 
# Structural Database, then it will include bibliographic, chemical, 
# crystal, experimental, refinement or atomic coordinate data resulting 
# from the CCDC's data processing and validation procedures.
#
#######################################################################

data_QAGZUV
_symmetry_cell_setting           triclinic
_symmetry_space_group_name_H-M   'P -1'
_symmetry_Int_Tables_number      2
_space_group_name_Hall           '-P 1'
loop_
_symmetry_equiv_pos_site_id
_symmetry_equiv_pos_as_xyz
1 x,y,z
2 -x,-y,-z
_cell_length_a                   7.7632(5)
_cell_length_b                   7.7739(6)
_cell_length_c                   8.8324(6)
_cell_angle_alpha                96.754(6)
_cell_angle_beta                 104.132(6)
_cell_angle_gamma                117.524(5)
_cell_volume                     441.638
loop_
_atom_site_label
_atom_site_type_symbol
_atom_site_fract_x
_atom_site_fract_y
_atom_site_fract_z
C1 C 0.6812(3) 0.4300(3) 0.8021(2)
H1 H 0.8080 0.4384 0.8639
H2 H 0.5689 0.3275 0.8275
C2 C 0.6959(3) 0.6298(3) 0.8538(2)
C3 C 0.7641(4) 0.7275(4) 1.0159(2)
H3 H 0.8054 0.6728 1.0955
C4 C 0.7700(4) 0.9067(4) 1.0579(3)
H4 H 0.8154 0.9743 1.1664
C5 C 0.7086(4) 0.9850(3) 0.9388(3)
H5 H 0.7116 1.1060 0.9649
C6 C 0.6427(3) 0.8804(3) 0.7800(2)
H6 H 0.6006 0.9329 0.6988
C7 C 0.8979(2) 0.8475(2) 0.46909(19)
C8 C 1.1224(2) 0.9735(2) 0.52111(19)
N1 N 0.6467(2) 0.3695(2) 0.63087(18)
H7 H 0.5682 0.2345 0.5941
H8 H 0.7685 0.4075 0.6160
N2 N 0.6364(2) 0.7050(2) 0.73716(17)
O1 O 0.77436(18) 0.66061(17) 0.42925(17)
O2 O 1.26817(19) 0.94091(19) 0.54965(17)
Zn1 Zn 0.5000 0.5000 0.5000
C1A C 0.3188(3) 0.5700(3) 0.1979(2)
H1A H 0.1920 0.5616 0.1361
H2A H 0.4311 0.6725 0.1725
C2A C 0.3041(3) 0.3702(3) 0.1462(2)
C3A C 0.2359(4) 0.2725(4) -0.0159(2)
H3A H 0.1946 0.3272 -0.0955
C4A C 0.2300(4) 0.0933(4) -0.0579(3)
H4A H 0.1846 0.0257 -0.1664
C5A C 0.2914(4) 0.0150(3) 0.0612(3)
H5A H 0.2884 -0.1060 0.0351
C6A C 0.3573(3) 0.1196(3) 0.2200(2)
H6A H 0.3994 0.0671 0.3012
C7A C 1.1021(2) 1.1525(2) 0.53091(19)
C8A C 0.8776(2) 1.0265(2) 0.47889(19)
N1A N 0.3533(2) 0.6305(2) 0.36913(18)
H7A H 0.4318 0.7655 0.4059
H8A H 0.2315 0.5925 0.3840
N2A N 0.3636(2) 0.2950(2) 0.26284(17)
O1A O 1.22564(18) 1.33939(17) 0.57075(17)
O1A_2 O 0.22564(18) 0.33939(17) 0.57075(17)
O2A O 0.73183(19) 1.05909(19) 0.45035(17)
Zn1_2 Zn 1.5000 1.5000 0.5000
O3 O 0.8770(3) 0.3937(3) 0.2829(2)
H9 H 0.837(6) 0.307(6) 0.331(5)
H10 H 0.852(5) 0.468(5) 0.320(4)
loop_
_geom_bond_atom_site_label_1
_geom_bond_atom_site_label_2
_geom_bond_site_symmetry_1
_geom_bond_site_symmetry_2
C1 H1 1_555 1_555
H2 C1 1_555 1_555
C2 C1 1_555 1_555
C3 C2 1_555 1_555
H3 C3 1_555 1_555
C4 C3 1_555 1_555
H4 C4 1_555 1_555
C5 C4 1_555 1_555
H5 C5 1_555 1_555
C6 C5 1_555 1_555
H6 C6 1_555 1_555
C7 C8 1_555 1_555
C8 O2 1_555 1_555
N1 C1 1_555 1_555
H7 N1 1_555 1_555
H8 N1 1_555 1_555
N2 C2 1_555 1_555
O1 C7 1_555 1_555
O3 H9 1_555 1_555
Zn1 N1 1_555 1_555
H10 O3 1_555 1_555
C1A H1A 1_555 1_555
H2A C1A 1_555 1_555
C2A C1A 1_555 1_555
C3A C2A 1_555 1_555
H3A C3A 1_555 1_555
C4A C3A 1_555 1_555
H4A C4A 1_555 1_555
C5A C4A 1_555 1_555
H5A C5A 1_555 1_555
C6A C5A 1_555 1_555
H6A C6A 1_555 1_555
C7A C8 1_555 1_555
C8A C7 1_555 1_555
N1A Zn1 1_555 1_555
H7A N1A 1_555 1_555
H8A N1A 1_555 1_555
N2A Zn1 1_555 1_555
O1A C7A 1_555 1_555
O1A_2 Zn1 1_555 1_555
O2A C8A 1_555 1_555
Zn1_2 O1A 1_555 1_555
C6 N2 1_555 1_555
N2 Zn1 1_555 1_555
O1 Zn1 1_555 1_555
C1A N1A 1_555 1_555
C2A N2A 1_555 1_555
C6A N2A 1_555 1_555
C7A C8A 1_555 1_555

#END
