
#######################################################################
#
#                 Cambridge Crystallographic Data Centre
#                                CCDC 
#
#######################################################################
#
# If this CIF has been generated from an entry in the Cambridge 
# Structural Database, then it will include bibliographic, chemical, 
# crystal, experimental, refinement or atomic coordinate data resulting 
# from the CCDC's data processing and validation procedures.
#
#######################################################################

data_QAGZOP
_symmetry_cell_setting           triclinic
_symmetry_space_group_name_H-M   'P -1'
_symmetry_Int_Tables_number      2
_space_group_name_Hall           '-P 1'
loop_
_symmetry_equiv_pos_site_id
_symmetry_equiv_pos_as_xyz
1 x,y,z
2 -x,-y,-z
_cell_length_a                   7.6851(5)
_cell_length_b                   7.7598(5)
_cell_length_c                   8.7365(6)
_cell_angle_alpha                97.538(5)
_cell_angle_beta                 103.163(5)
_cell_angle_gamma                115.855(5)
_cell_volume                     440.453
loop_
_atom_site_label
_atom_site_type_symbol
_atom_site_fract_x
_atom_site_fract_y
_atom_site_fract_z
C1 C 0.3647(3) 0.1303(3) 0.2311(2)
H1 H 0.4062 0.0771 0.3124
C2 C 0.2967(3) 0.0251(3) 0.0714(3)
H2 H 0.2930 -0.0968 0.0450
C3 C 0.2344(4) 0.1024(4) -0.0484(3)
H3 H 0.1875 0.0336 -0.1575
C4 C 0.2420(4) 0.2837(3) -0.0054(2)
H4 H 0.2008 0.3388 -0.0851
C5 C 0.3113(3) 0.3820(3) 0.1568(2)
C6 C 0.3277(3) 0.5814(3) 0.2120(2)
H5 H 0.4417 0.6817 0.1889
H6 H 0.2043 0.5806 0.1521
C7 C 0.0967(2) 0.1513(2) 0.5432(2)
C8 C -0.1244(2) 0.0248(2) 0.47567(19)
N1 N 0.3735(2) 0.3076(2) 0.27439(17)
N2 N 0.3571(3) 0.6306(2) 0.38506(19)
H7 H 0.2352 0.5904 0.4009
H8 H 0.4313 0.7630 0.4265
O1 O 0.21471(19) 0.33417(17) 0.59732(18)
O2 O -0.27439(19) 0.05432(19) 0.44321(18)
Cu1 Cu 0.5000 0.5000 0.5000
C1A C 0.6353(3) 0.8697(3) 0.7689(2)
H1A H 0.5938 0.9229 0.6876
C2A C 0.7033(3) 0.9749(3) 0.9286(3)
H2A H 0.7070 1.0968 0.9550
C3A C 0.7656(4) 0.8976(4) 1.0484(3)
H3A H 0.8125 0.9664 1.1575
C4A C 0.7580(4) 0.7163(3) 1.0054(2)
H4A H 0.7992 0.6612 1.0851
C5A C 0.6887(3) 0.6180(3) 0.8432(2)
C6A C 0.6723(3) 0.4186(3) 0.7880(2)
H5A H 0.5583 0.3183 0.8111
H6A H 0.7957 0.4194 0.8479
C7A C -0.0967(2) -0.1513(2) 0.4568(2)
C8A C 0.1244(2) -0.0248(2) 0.52433(19)
N1A N 0.6265(2) 0.6924(2) 0.72561(17)
N2A N 0.6429(3) 0.3694(2) 0.61494(19)
H7A H 0.7648 0.4096 0.5991
H8A H 0.5687 0.2370 0.5735
O1A O -0.21471(19) -0.33417(17) 0.40268(18)
O1A_2 O 0.78529(19) 0.66583(17) 0.40268(18)
O2A O 0.27439(19) -0.05432(19) 0.55679(18)
Cu1_2 Cu -0.5000 -0.5000 0.5000
O3 O 0.1142(3) 0.6134(3) 0.7234(3)
H9 H 0.138(5) 0.526(4) 0.688(4)
H10 H 0.163(6) 0.702(6) 0.678(5)
loop_
_geom_bond_atom_site_label_1
_geom_bond_atom_site_label_2
_geom_bond_site_symmetry_1
_geom_bond_site_symmetry_2
C1 H1 1_555 1_555
C2 C1 1_555 1_555
H2 C2 1_555 1_555
C3 C2 1_555 1_555
H3 C3 1_555 1_555
C4 C3 1_555 1_555
H4 C4 1_555 1_555
C5 C4 1_555 1_555
C6 C5 1_555 1_555
H5 C6 1_555 1_555
H6 C6 1_555 1_555
C7 C8 1_555 1_555
C8 O2 1_555 1_555
N1 C1 1_555 1_555
N2 C6 1_555 1_555
H7 N2 1_555 1_555
H8 N2 1_555 1_555
O1 C7 1_555 1_555
Cu1 N1 1_555 1_555
O3 H9 1_555 1_555
H10 O3 1_555 1_555
C1A H1A 1_555 1_555
C2A C1A 1_555 1_555
H2A C2A 1_555 1_555
C3A C2A 1_555 1_555
H3A C3A 1_555 1_555
C4A C3A 1_555 1_555
H4A C4A 1_555 1_555
C5A C4A 1_555 1_555
C6A C5A 1_555 1_555
H5A C6A 1_555 1_555
H6A C6A 1_555 1_555
C7A C8 1_555 1_555
C8A C7 1_555 1_555
N1A Cu1 1_555 1_555
N2A Cu1 1_555 1_555
H7A N2A 1_555 1_555
H8A N2A 1_555 1_555
O1A C7A 1_555 1_555
O1A_2 Cu1 1_555 1_555
O2A C8A 1_555 1_555
Cu1_2 O1A 1_555 1_555
C5 N1 1_555 1_555
N2 Cu1 1_555 1_555
O1 Cu1 1_555 1_555
C1A N1A 1_555 1_555
C5A N1A 1_555 1_555
C6A N2A 1_555 1_555
C7A C8A 1_555 1_555

#END
