
#######################################################################
#
#                 Cambridge Crystallographic Data Centre
#                                CCDC 
#
#######################################################################
#
# If this CIF has been generated from an entry in the Cambridge 
# Structural Database, then it will include bibliographic, chemical, 
# crystal, experimental, refinement or atomic coordinate data resulting 
# from the CCDC's data processing and validation procedures.
#
#######################################################################

data_QAHBAE
_symmetry_cell_setting           monoclinic
_symmetry_space_group_name_H-M   'P 21/c'
_symmetry_Int_Tables_number      14
_space_group_name_Hall           '-P 2ybc'
loop_
_symmetry_equiv_pos_site_id
_symmetry_equiv_pos_as_xyz
1 x,y,z
2 -x,1/2+y,1/2-z
3 -x,-y,-z
4 x,1/2-y,1/2+z
_cell_length_a                   8.0615(4)
_cell_length_b                   12.1869(7)
_cell_length_c                   8.4905(4)
_cell_angle_alpha                90
_cell_angle_beta                 96.147(4)
_cell_angle_gamma                90
_cell_volume                     829.351
loop_
_atom_site_label
_atom_site_type_symbol
_atom_site_fract_x
_atom_site_fract_y
_atom_site_fract_z
C1 C 0.6822(3) 0.70587(16) 0.3905(2)
H1 H 0.6920 0.7852 0.3912
H2 H 0.7084 0.6801 0.2879
C2 C 0.8083(2) 0.65925(14) 0.5171(2)
C3 C 0.9583(3) 0.71178(17) 0.5632(3)
H3 H 0.9815 0.7793 0.5194
C4 C 1.0720(3) 0.6638(2) 0.6734(3)
H4 H 1.1742 0.6973 0.7032
C5 C 1.0329(3) 0.5656(2) 0.7391(3)
H5 H 1.1070 0.5323 0.8160
C6 C 0.8827(3) 0.51749(17) 0.6896(3)
H6 H 0.8564 0.4510 0.7345
C7 C 0.4738(2) 0.52861(13) 0.88485(18)
C8 C 0.4334(2) 0.56503(12) 1.04140(17)
N1 N 0.77222(18) 0.56271(12) 0.57896(16)
N2 N 0.50965(19) 0.67621(11) 0.41015(16)
H7 H 0.4460 0.6825 0.3168
H8 H 0.4691 0.7221 0.4797
O1 O 0.43991(16) 0.56541(10) 0.74795(12)
O2 O 0.35413(17) 0.64441(10) 1.08877(13)
Cd1 Cd 0.5000 0.5000 0.5000
C1B C 0.3178(3) 0.29413(16) 0.6095(2)
H1B H 0.3080 0.2148 0.6088
H2B H 0.2916 0.3199 0.7121
C2B C 0.1917(2) 0.34075(14) 0.4829(2)
C3B C 0.0417(3) 0.28822(17) 0.4368(3)
H3B H 0.0185 0.2207 0.4806
C4B C -0.0720(3) 0.3362(2) 0.3266(3)
H4B H -0.1742 0.3027 0.2968
C5B C -0.0329(3) 0.4344(2) 0.2609(3)
H5B H -0.1070 0.4677 0.1840
C6B C 0.1173(3) 0.48251(17) 0.3104(3)
H6B H 0.1436 0.5490 0.2655
C7B C 0.5262(2) 0.47139(13) 1.11515(18)
C8B C 0.5666(2) 0.43497(12) 0.95860(17)
N1B N 0.22778(18) 0.43729(12) 0.42104(16)
N2B N 0.49035(19) 0.32379(11) 0.58985(16)
H7B H 0.5540 0.3175 0.6832
H8B H 0.5309 0.2779 0.5203
O1B O 0.56009(16) 0.43459(10) 1.25205(12)
O1B_2 O 0.56009(16) 0.43459(10) 0.25205(12)
O2B O 0.64587(17) 0.35559(10) 0.91123(13)
Cd1_2 Cd 0.5000 0.5000 1.5000
loop_
_geom_bond_atom_site_label_1
_geom_bond_atom_site_label_2
_geom_bond_site_symmetry_1
_geom_bond_site_symmetry_2
C1 H1 1_555 1_555
H2 C1 1_555 1_555
C2 C1 1_555 1_555
C3 C2 1_555 1_555
H3 C3 1_555 1_555
C4 C3 1_555 1_555
H4 C4 1_555 1_555
C5 C4 1_555 1_555
H5 C5 1_555 1_555
C6 C5 1_555 1_555
H6 C6 1_555 1_555
C7 C8 1_555 1_555
C8 O2 1_555 1_555
N1 C2 1_555 1_555
N2 C1 1_555 1_555
H7 N2 1_555 1_555
H8 N2 1_555 1_555
O1 C7 1_555 1_555
Cd1 N1 1_555 1_555
C1B H1B 1_555 1_555
H2B C1B 1_555 1_555
C2B C1B 1_555 1_555
C3B C2B 1_555 1_555
H3B C3B 1_555 1_555
C4B C3B 1_555 1_555
H4B C4B 1_555 1_555
C5B C4B 1_555 1_555
H5B C5B 1_555 1_555
C6B C5B 1_555 1_555
H6B C6B 1_555 1_555
C7B C8 1_555 1_555
C8B C7 1_555 1_555
N1B Cd1 1_555 1_555
N2B Cd1 1_555 1_555
H7B N2B 1_555 1_555
H8B N2B 1_555 1_555
O1B C7B 1_555 1_555
O1B_2 Cd1 1_555 1_555
O2B C8B 1_555 1_555
Cd1_2 O1B 1_555 1_555
C6 N1 1_555 1_555
N2 Cd1 1_555 1_555
O1 Cd1 1_555 1_555
C1B N2B 1_555 1_555
C2B N1B 1_555 1_555
C6B N1B 1_555 1_555
C7B C8B 1_555 1_555

#END
