
#######################################################################
#
#                 Cambridge Crystallographic Data Centre
#                                CCDC 
#
#######################################################################
#
# If this CIF has been generated from an entry in the Cambridge 
# Structural Database, then it will include bibliographic, chemical, 
# crystal, experimental, refinement or atomic coordinate data resulting 
# from the CCDC's data processing and validation procedures.
#
#######################################################################

data_QAHBIM
_symmetry_cell_setting           triclinic
_symmetry_space_group_name_H-M   'P -1'
_symmetry_Int_Tables_number      2
_space_group_name_Hall           '-P 1'
loop_
_symmetry_equiv_pos_site_id
_symmetry_equiv_pos_as_xyz
1 x,y,z
2 -x,-y,-z
_cell_length_a                   11.261(4)
_cell_length_b                   13.762(5)
_cell_length_c                   15.664(5)
_cell_angle_alpha                108.084(6)
_cell_angle_beta                 92.300(6)
_cell_angle_gamma                108.716(6)
_cell_volume                     2159.09
loop_
_atom_site_label
_atom_site_type_symbol
_atom_site_fract_x
_atom_site_fract_y
_atom_site_fract_z
Ag1 Ag 0.55577(2) 0.60960(2) 0.737654(16)
P1 P 0.39965(7) 0.56410(7) 0.61178(5)
C1 C 0.2371(3) 0.4871(3) 0.6180(2)
N1 N 0.6086(3) 0.4902(2) 0.7998(2)
C2 C 0.6705(3) 0.3404(3) 0.8585(3)
H1 H 0.6910 0.2887 0.8765
N2 N 0.4935(3) 0.2189(3) 0.9510(3)
C3 C 0.5360(3) 0.4383(3) 0.8483(3)
H2 H 0.4625 0.4531 0.8614
C4 C 0.4331(3) 0.4739(3) 0.5098(2)
H3 H 0.4258 0.4053 0.5181
H4 H 0.3709 0.4584 0.4582
C5 C 0.3870(3) 0.6772(3) 0.5796(2)
C6 C 0.5630(3) 0.3635(3) 0.8806(3)
C7 C 0.2108(4) 0.4590(4) 0.6940(3)
H5 H 0.2750 0.4824 0.7429
C8 C 0.1393(3) 0.4519(4) 0.5470(3)
H6 H 0.1553 0.4704 0.4952
C9 C 0.0183(3) 0.3898(4) 0.5522(3)
H7 H -0.0469 0.3675 0.5043
C10 C 0.7465(4) 0.3944(4) 0.8097(3)
H8 H 0.8203 0.3808 0.7954
C11 C 0.7132(4) 0.4690(3) 0.7820(3)
H9 H 0.7663 0.5059 0.7496
C12 C 0.3585(4) 0.6691(4) 0.4902(3)
H10 H 0.3444 0.6034 0.4435
C13 C 0.4066(4) 0.7739(4) 0.6479(3)
H11 H 0.4264 0.7799 0.7080
C14 C 0.4762(5) 0.3146(4) 0.9381(4)
H12 H 0.4890 0.3699 0.9973
H13 H 0.3892 0.2941 0.9104
C15 C 0.0886(5) 0.3958(6) 0.6975(4)
H14 H 0.0714 0.3768 0.7490
C16 C -0.0066(4) 0.3611(4) 0.6268(3)
H15 H -0.0881 0.3180 0.6295
N3 N 0.6823(3) 0.7636(2) 0.85538(18)
C17 C 0.6958(3) 0.8642(3) 0.8579(2)
H16 H 0.6518 0.8724 0.8107
C18 C 0.7495(3) 0.7540(2) 0.9234(2)
H17 H 0.7423 0.6842 0.9218
N4 N 0.9242(2) 0.7253(2) 1.04465(18)
O1 O 0.6254(3) 0.3076(2) 1.0904(2)
O2 O 0.3523(3) 0.0853(3) 0.8287(2)
C19 C 0.8382(3) 0.9455(2) 0.9969(2)
H18 H 0.8891 1.0070 1.0446
C20 C 0.5854(3) 0.0702(3) 1.0823(2)
H19 H 0.6407 0.1157 1.1359
C21 C 0.8287(3) 0.8419(2) 0.9954(2)
C22 C 0.4593(3) 0.0419(3) 0.9422(2)
C23 C 0.8997(3) 0.8276(3) 1.0711(2)
H20 H 0.9801 0.8878 1.0928
H21 H 0.8513 0.8307 1.1211
C24 C 0.7713(3) 0.9562(3) 0.9269(3)
H22 H 0.7774 1.0250 0.9264
C25 C 0.5420(3) 0.1099(3) 1.0215(2)
C26 C 0.5637(3) 0.2251(3) 1.0292(3)
C27 C 0.4261(3) 0.1117(3) 0.8962(3)
O3 O 1.0917(2) 0.77453(19) 0.96807(19)
O4 O 0.7720(3) 0.6298(2) 1.1111(2)
C28 C 1.0226(3) 0.6002(2) 0.9930(2)
C29 C 0.9270(3) 0.5579(3) 1.0386(2)
C30 C 0.8623(3) 0.6379(3) 1.0710(2)
C31 C 0.8999(3) 0.4555(3) 1.0472(2)
H23 H 0.8353 0.4270 1.0773
C32 C 1.0235(3) 0.7104(3) 0.9978(2)
C33 C 0.3511(5) 0.7575(6) 0.4703(5)
H24 H 0.3340 0.7519 0.4100
C34 C 0.3684(6) 0.8521(6) 0.5372(6)
H25 H 0.3610 0.9107 0.5226
C35 C 0.3971(6) 0.8640(5) 0.6281(6)
H26 H 0.4095 0.9297 0.6742
Ag1A Ag 0.44423(2) 0.39040(2) 0.262346(16)
Ag1A_2 Ag 0.44423(2) -0.60960(2) 1.262346(16)
Ag1A_3 Ag 1.44423(2) 0.39040(2) 1.262346(16)
P1A P 0.60035(7) 0.43590(7) 0.38822(5)
P1A_2 P 0.60035(7) -0.56410(7) 1.38822(5)
C1A C 0.7629(3) 0.5129(3) 0.3820(2)
N1A N 0.3914(3) -0.4902(2) 1.2002(2)
C2A C 0.3295(3) -0.3404(3) 1.1415(3)
H1A H 0.3090 -0.2887 1.1235
N2A N 0.5065(3) -0.2189(3) 1.0490(3)
C3A C 0.4640(3) -0.4383(3) 1.1517(3)
H2A H 0.5375 -0.4531 1.1386
C4A C 0.5669(3) 0.5261(3) 0.4902(2)
H3A H 0.5742 0.5947 0.4819
H4A H 0.6291 0.5416 0.5418
C5A C 0.6130(3) 0.3228(3) 0.4204(2)
C6A C 0.4370(3) -0.3635(3) 1.1194(3)
C7A C 0.7892(4) 0.5410(4) 0.3060(3)
H5A H 0.7250 0.5176 0.2571
C8A C 0.8607(3) 0.5481(4) 0.4530(3)
H6A H 0.8447 0.5296 0.5048
C9A C 0.9817(3) 0.6102(4) 0.4478(3)
H7A H 1.0469 0.6325 0.4957
C10A C 0.2535(4) -0.3944(4) 1.1903(3)
H8A H 0.1797 -0.3808 1.2046
C11A C 0.2868(4) -0.4690(3) 1.2180(3)
H9A H 0.2337 -0.5059 1.2504
C12A C 0.6415(4) 0.3309(4) 0.5098(3)
H10A H 0.6556 0.3966 0.5565
C13A C 0.5934(4) 0.2261(4) 0.3521(3)
H11A H 0.5736 0.2201 0.2920
C14A C 0.5238(5) -0.3146(4) 1.0619(4)
H12A H 0.5110 -0.3699 1.0027
H13A H 0.6108 -0.2941 1.0896
C15A C 0.9114(5) 0.6042(6) 0.3025(4)
H14A H 0.9286 0.6232 0.2510
C16A C 1.0066(4) 0.6389(4) 0.3732(3)
H15A H 1.0881 0.6820 0.3705
N3A N 1.3177(3) 0.2364(2) 1.14462(18)
N3A_2 N 0.3177(3) -0.7636(2) 1.14462(18)
C17A C 1.3042(3) 0.1358(3) 1.1421(2)
H16A H 1.3482 0.1276 1.1893
C18A C 1.2505(3) 0.2460(2) 1.0766(2)
H17A H 1.2577 0.3158 1.0782
N4A N 1.0758(2) 0.2747(2) 0.95535(18)
O1A O 0.3746(3) -0.3076(2) 0.9096(2)
O2A O 0.6477(3) -0.0853(3) 1.1713(2)
C19A C 1.1618(3) 0.0545(2) 1.0031(2)
H18A H 1.1109 -0.0070 0.9554
C20A C 0.4146(3) -0.0702(3) 0.9177(2)
H19A H 0.3593 -0.1157 0.8641
C21A C 1.1713(3) 0.1581(2) 1.0046(2)
C22A C 0.5407(3) -0.0419(3) 1.0578(2)
C23A C 1.1003(3) 0.1724(3) 0.9289(2)
H20A H 1.0199 0.1122 0.9072
H21A H 1.1487 0.1693 0.8789
C24A C 1.2287(3) 0.0438(3) 1.0731(3)
H22A H 1.2226 -0.0250 1.0736
C25A C 0.4580(3) -0.1099(3) 0.9785(2)
C26A C 0.4363(3) -0.2251(3) 0.9708(3)
C27A C 0.5739(3) -0.1117(3) 1.1038(3)
O3A O 0.9083(2) 0.22547(19) 1.03193(19)
O4A O 1.2280(3) 0.3702(2) 0.8889(2)
C28A C 0.9774(3) 0.3998(2) 1.0070(2)
C29A C 1.0730(3) 0.4421(3) 0.9614(2)
C30A C 1.1377(3) 0.3621(3) 0.9290(2)
C31A C 1.1001(3) 0.5445(3) 0.9528(2)
H23A H 1.1647 0.5730 0.9227
C32A C 0.9765(3) 0.2896(3) 1.0022(2)
C33A C 0.6489(5) 0.2425(6) 0.5297(5)
H24A H 0.6660 0.2481 0.5900
C34A C 0.6316(6) 0.1479(6) 0.4628(6)
H25A H 0.6390 0.0893 0.4774
C35A C 0.6029(6) 0.1360(5) 0.3719(6)
H26A H 0.5905 0.0703 0.3258
F1 F 0.8690(5) 1.0402(4) 0.7615(4)
F2 F 0.8757(4) 1.2113(3) 0.7855(4)
P2 P 0.78416(14) 1.09521(11) 0.73236(11)
F3 F 0.6941(5) 1.1367(4) 0.6911(4)
F4 F 0.7091(7) 1.0922(5) 0.8113(4)
F5 F 0.8455(8) 1.0897(5) 0.6426(4)
F6 F 0.6967(6) 0.9761(4) 0.6810(5)
O5 O 0.7891(3) 0.6385(3) 0.6820(2)
C37 C 0.8587(5) 0.7286(4) 0.6865(3)
N5 N 0.9842(4) 0.7635(4) 0.7058(3)
C38 C 1.0475(6) 0.6937(7) 0.7212(5)
H27 H 0.9855 0.6251 0.7175
H28 H 1.0980 0.7276 0.7805
H29 H 1.1013 0.6817 0.6760
C39 C 1.0608(8) 0.8718(6) 0.7090(8)
H30 H 1.0064 0.9098 0.6990
H31 H 1.1139 0.8663 0.6626
H32 H 1.1128 0.9112 0.7675
C36? C 0.2476(13) 0.1605(7) 0.5932(6)
C40? C 0.206(2) 0.1795(13) 0.5089(10)
H33? H 0.2373 0.2518 0.5045
H34? H 0.1621 0.1180 0.4542
O6? O 0.3882(13) 0.2749(18) 0.6442(9)
H35? H 0.4332 0.2596 0.6766
N6? N 0.195(3) 0.158(2) 0.659(4)
C41? C 0.194(6) 0.032(4) 0.585(3)
H36? H 0.2524 -0.0002 0.6023
H37? H 0.1177 -0.0178 0.5430
loop_
_geom_bond_atom_site_label_1
_geom_bond_atom_site_label_2
_geom_bond_site_symmetry_1
_geom_bond_site_symmetry_2
Ag1 P1 1_555 1_555
P1 C1 1_555 1_555
C1 C7 1_555 1_555
N1 Ag1 1_555 1_555
C2 H1 1_555 1_555
N2 C14 1_555 1_555
C3 N1 1_555 1_555
H2 C3 1_555 1_555
C4 P1 1_555 1_555
H3 C4 1_555 1_555
H4 C4 1_555 1_555
C5 P1 1_555 1_555
C6 C2 1_555 1_555
C7 H5 1_555 1_555
C8 C1 1_555 1_555
H6 C8 1_555 1_555
C9 C8 1_555 1_555
H7 C9 1_555 1_555
F1 P2 1_555 1_555
C10 C2 1_555 1_555
H8 C10 1_555 1_555
C11 N1 1_555 1_555
H9 C11 1_555 1_555
C12 C5 1_555 1_555
H10 C12 1_555 1_555
C13 C5 1_555 1_555
H11 C13 1_555 1_555
C14 C6 1_555 1_555
H12 C14 1_555 1_555
H13 C14 1_555 1_555
C15 C7 1_555 1_555
H14 C15 1_555 1_555
F2 P2 1_555 1_555
C16 C9 1_555 1_555
H15 C16 1_555 1_555
P2 F3 1_555 1_555
N3 Ag1 1_555 1_555
C17 N3 1_555 1_555
H16 C17 1_555 1_555
C18 N3 1_555 1_555
H17 C18 1_555 1_555
N4 C23 1_555 1_555
O1 C26 1_555 1_555
O2 C27 1_555 1_555
C19 H18 1_555 1_555
C20 H19 1_555 1_555
C21 C18 1_555 1_555
C22 C25 1_555 1_555
C23 C21 1_555 1_555
H20 C23 1_555 1_555
H21 C23 1_555 1_555
C24 C17 1_555 1_555
H22 C24 1_555 1_555
C25 C20 1_555 1_555
C26 N2 1_555 1_555
C27 N2 1_555 1_555
O3 C32 1_555 1_555
O4 C30 1_555 1_555
C28 C29 1_555 1_555
C29 C30 1_555 1_555
C30 N4 1_555 1_555
C31 C29 1_555 1_555
H23 C31 1_555 1_555
C32 N4 1_555 1_555
C33 C12 1_555 1_555
H24 C33 1_555 1_555
C34 C33 1_555 1_555
H25 C34 1_555 1_555
C35 C13 1_555 1_555
H26 C35 1_555 1_555
F4 P2 1_555 1_555
F5 P2 1_555 1_555
F6 P2 1_555 1_555
O5 C37 1_555 1_555
C37 N5 1_555 1_555
N5 C38 1_555 1_555
C38 H27 1_555 1_555
H28 C38 1_555 1_555
H29 C38 1_555 1_555
C39 N5 1_555 1_555
H30 C39 1_555 1_555
H31 C39 1_555 1_555
H32 C39 1_555 1_555
Ag1A P1A 1_555 1_555
Ag1A_2 P1A_2 1_555 1_555
Ag1A_3 N3A 1_555 1_555
P1A C1A 1_555 1_555
C1A C7A 1_555 1_555
N1A Ag1A_2 1_555 1_555
C2A H1A 1_555 1_555
N2A C14A 1_555 1_555
C3A N1A 1_555 1_555
H2A C3A 1_555 1_555
C4A C4 1_555 1_555
H3A C4A 1_555 1_555
H4A C4A 1_555 1_555
C5A P1A 1_555 1_555
C6A C2A 1_555 1_555
C7A H5A 1_555 1_555
C8A C1A 1_555 1_555
H6A C8A 1_555 1_555
C9A C8A 1_555 1_555
H7A C9A 1_555 1_555
C10A C2A 1_555 1_555
H8A C10A 1_555 1_555
C11A N1A 1_555 1_555
H9A C11A 1_555 1_555
C12A C5A 1_555 1_555
H10A C12A 1_555 1_555
C13A C5A 1_555 1_555
H11A C13A 1_555 1_555
C14A C6A 1_555 1_555
H12A C14A 1_555 1_555
H13A C14A 1_555 1_555
C15A C7A 1_555 1_555
H14A C15A 1_555 1_555
C16A C9A 1_555 1_555
H15A C16A 1_555 1_555
N3A C17A 1_555 1_555
N3A_2 Ag1A_2 1_555 1_555
C17A H16A 1_555 1_555
C18A N3A 1_555 1_555
H17A C18A 1_555 1_555
N4A C23A 1_555 1_555
O1A C26A 1_555 1_555
O2A C27A 1_555 1_555
C19A H18A 1_555 1_555
C20A C22 1_555 1_555
H19A C20A 1_555 1_555
C21A C18A 1_555 1_555
C22A C20 1_555 1_555
C23A C21A 1_555 1_555
H20A C23A 1_555 1_555
H21A C23A 1_555 1_555
C24A C17A 1_555 1_555
H22A C24A 1_555 1_555
C25A C20A 1_555 1_555
C26A N2A 1_555 1_555
C27A N2A 1_555 1_555
O3A C32A 1_555 1_555
O4A C30A 1_555 1_555
C28A C31 1_555 1_555
C29A C28A 1_555 1_555
C30A N4A 1_555 1_555
C31A C28 1_555 1_555
H23A C31A 1_555 1_555
C32A N4A 1_555 1_555
C33A C12A 1_555 1_555
H24A C33A 1_555 1_555
C34A C33A 1_555 1_555
H25A C34A 1_555 1_555
C35A C13A 1_555 1_555
H26A C35A 1_555 1_555
C3 C6 1_555 1_555
C10 C11 1_555 1_555
C15 C16 1_555 1_555
C19 C21 1_555 1_555
C19 C24 1_555 1_555
C22 C27 1_555 1_555
C25 C26 1_555 1_555
C28 C32 1_555 1_555
C34 C35 1_555 1_555
P1A C4A 1_555 1_555
C3A C6A 1_555 1_555
C10A C11A 1_555 1_555
C15A C16A 1_555 1_555
C19A C21A 1_555 1_555
C19A C24A 1_555 1_555
C22A C25A 1_555 1_555
C22A C27A 1_555 1_555
C25A C26A 1_555 1_555
C28A C32A 1_555 1_555
C29A C30A 1_555 1_555
C29A C31A 1_555 1_555
C34A C35A 1_555 1_555

#END
