
#######################################################################
#
#                 Cambridge Crystallographic Data Centre
#                                CCDC 
#
#######################################################################
#
# If this CIF has been generated from an entry in the Cambridge 
# Structural Database, then it will include bibliographic, chemical, 
# crystal, experimental, refinement or atomic coordinate data resulting 
# from the CCDC's data processing and validation procedures.
#
#######################################################################

data_QAHBOS
_symmetry_cell_setting           monoclinic
_symmetry_space_group_name_H-M   'P 21/c'
_symmetry_Int_Tables_number      14
_space_group_name_Hall           '-P 2ybc'
loop_
_symmetry_equiv_pos_site_id
_symmetry_equiv_pos_as_xyz
1 x,y,z
2 -x,1/2+y,1/2-z
3 -x,-y,-z
4 x,1/2-y,1/2+z
_cell_length_a                   10.4359(2)
_cell_length_b                   23.9932(4)
_cell_length_c                   25.6039(4)
_cell_angle_alpha                90
_cell_angle_beta                 93.8680(10)
_cell_angle_gamma                90
_cell_volume                     6396.37
loop_
_atom_site_label
_atom_site_type_symbol
_atom_site_fract_x
_atom_site_fract_y
_atom_site_fract_z
Ag1 Ag 1.02757(3) 0.790511(13) 0.038509(13)
Ag2 Ag 0.94376(3) 0.689716(12) -0.020086(12)
Ag3 Ag 0.68150(3) 0.693445(12) 0.043634(11)
Ag4 Ag 0.96716(3) 0.976598(13) 0.054765(12)
Ag5 Ag 1.47364(3) 0.552020(12) 0.028390(11)
Ag6 Ag 1.35184(3) 0.678475(13) -0.034493(11)
S1 S 1.24171(10) 0.77507(4) -0.03855(4)
S2 S 1.12261(10) 0.88875(4) 0.05768(4)
S3 S 1.12638(10) 0.62642(4) -0.05458(4)
S4 S 1.30798(10) 0.41081(4) -0.06519(4)
S5 S 0.80463(10) 0.76911(4) 0.08841(4)
S6 S 0.76056(12) 0.99837(4) 0.10378(4)
F1 F 0.6767(3) 0.67945(11) -0.15756(9)
F2 F 0.4796(2) 0.67333(11) -0.13577(9)
F3 F 0.7193(3) 0.57584(11) -0.14708(10)
F4 F 0.5158(3) 0.57727(11) -0.17290(9)
F5 F 0.6724(3) 0.81290(10) -0.12665(11)
F6 F 0.8478(3) 0.85455(11) -0.14436(9)
F7 F 0.6340(2) 0.87961(11) -0.04749(10)
F8 F 0.6606(3) 0.92455(10) -0.12044(10)
F9 F 1.1257(3) 0.64614(11) 0.17081(10)
F10 F 1.1858(3) 0.58783(10) 0.11186(10)
F11 F 1.3278(3) 0.70771(11) 0.16713(9)
F12 F 1.3897(3) 0.62126(11) 0.16639(10)
O1 O 0.7460(3) 0.64441(12) -0.05120(11)
O2 O 0.5823(3) 0.70296(12) -0.04171(11)
O3 O 0.6248(3) 0.51275(12) -0.07490(12)
O4 O 0.4820(3) 0.58021(12) -0.05840(11)
O5 O 0.8840(3) 0.82811(14) -0.02219(12)
O6 O 0.8698(3) 0.75591(13) -0.07794(13)
O7 O 0.8020(3) 0.95332(13) -0.01002(12)
O8 O 0.9195(3) 0.94401(14) -0.07965(13)
O9 O 1.1586(3) 0.72499(12) 0.07613(11)
O10 O 1.0125(3) 0.65609(12) 0.06226(12)
O11 O 1.3686(3) 0.63878(12) 0.05010(11)
O12 O 1.4833(3) 0.70871(14) 0.08950(12)
C1 C 1.2599(4) 0.80332(17) -0.10239(16)
C2 C 1.3745(5) 0.7980(2) -0.12657(18)
H1 H 1.4466 0.7802 -0.1091
C3 C 1.3819(6) 0.8188(3) -0.1763(2)
H2 H 1.4599 0.8151 -0.1931
C4 C 1.2790(5) 0.8449(2) -0.20223(18)
H3 H 1.2860 0.8592 -0.2365
C5 C 1.1651(5) 0.8503(2) -0.17792(19)
H4 H 1.0933 0.8680 -0.1957
C6 C 1.1558(5) 0.8298(2) -0.12752(19)
H5 H 1.0782 0.8340 -0.1105
C7 C 1.3588(4) 0.81380(18) 0.00344(16)
H6 H 1.3494 0.8027 0.0402
H7 H 1.4461 0.8028 -0.0055
C8 C 1.3475(4) 0.87714(18) -0.00044(16)
H8 H 1.4039 0.8933 0.0283
H9 H 1.3832 0.8886 -0.0337
C9 C 1.2161(4) 0.90419(17) 0.00147(15)
H10 H 1.1640 0.8932 -0.0306
H11 H 1.2280 0.9451 0.0000
C10 C 1.2398(4) 0.89149(18) 0.11208(15)
C11 C 1.2871(4) 0.84274(18) 0.13453(17)
H12 H 1.2557 0.8076 0.1224
C12 C 1.3823(5) 0.8461(2) 0.17554(17)
H13 H 1.4167 0.8130 0.1912
C13 C 1.4272(5) 0.8978(2) 0.19370(17)
H14 H 1.4932 0.8999 0.2211
C14 C 1.3744(5) 0.9464(2) 0.17135(18)
H15 H 1.4031 0.9816 0.1843
C15 C 1.2806(5) 0.9437(2) 0.13047(17)
H16 H 1.2447 0.9768 0.1153
C16 C 1.1053(5) 0.62433(18) -0.12423(17)
C17 C 0.9842(5) 0.6325(2) -0.14860(18)
H17 H 0.9124 0.6388 -0.1285
C18 C 0.9694(6) 0.6313(2) -0.2027(2)
H18 H 0.8868 0.6358 -0.2202
C19 C 1.0771(6) 0.6234(2) -0.2313(2)
H19 H 1.0679 0.6238 -0.2685
C20 C 1.1938(6) 0.6153(2) -0.2070(2)
H20 H 1.2657 0.6092 -0.2271
C21 C 1.2103(5) 0.6158(2) -0.1527(2)
H21 H 1.2930 0.6103 -0.1356
C22 C 1.1004(5) 0.55371(17) -0.03621(17)
H22 H 1.1089 0.5504 0.0024
H23 H 1.0119 0.5426 -0.0482
C23 C 1.1953(4) 0.51422(16) -0.05966(17)
H24 H 1.2838 0.5269 -0.0496
H25 H 1.1829 0.5158 -0.0983
C24 C 1.1801(4) 0.45410(16) -0.04177(16)
H26 H 1.0957 0.4395 -0.0555
H27 H 1.1831 0.4527 -0.0031
C25 C 1.2857(4) 0.41845(17) -0.13458(15)
C26 C 1.1836(5) 0.39213(19) -0.16135(18)
H28 H 1.1237 0.3711 -0.1432
C27 C 1.1706(5) 0.3972(2) -0.21579(19)
H29 H 1.1006 0.3796 -0.2349
C28 C 1.2583(6) 0.4274(2) -0.24193(19)
H30 H 1.2495 0.4300 -0.2790
C29 C 1.3587(5) 0.4538(2) -0.21449(19)
H31 H 1.4180 0.4751 -0.2328
C30 C 1.3743(5) 0.44957(19) -0.16060(17)
H32 H 1.4440 0.4676 -0.1417
C31 C 0.8194(5) 0.75691(17) 0.15754(16)
C32 C 0.9421(5) 0.75626(18) 0.18221(17)
H33 H 1.0156 0.7618 0.1629
C33 C 0.9544(6) 0.7473(2) 0.23581(19)
H34 H 1.0375 0.7461 0.2533
C34 C 0.8480(6) 0.7402(2) 0.26389(19)
H35 H 0.8577 0.7349 0.3007
C35 C 0.7276(6) 0.7407(2) 0.2386(2)
H36 H 0.6545 0.7359 0.2583
C36 C 0.7111(5) 0.7481(2) 0.18517(19)
H37 H 0.6279 0.7471 0.1677
C37 C 0.6968(4) 0.82911(17) 0.08229(16)
H38 H 0.6708 0.8355 0.0449
H39 H 0.6185 0.8212 0.1007
C38 C 0.7611(5) 0.88133(17) 0.10517(18)
H40 H 0.8443 0.8871 0.0895
H41 H 0.7783 0.8767 0.1434
C39 C 0.6752(4) 0.93235(18) 0.09431(18)
H42 H 0.6036 0.9312 0.1178
H43 H 0.6376 0.9304 0.0578
C40 C 0.7999(5) 1.00034(18) 0.17254(18)
C41 C 0.9263(5) 0.9955(2) 0.1916(2)
H44 H 0.9918 0.9887 0.1683
C42 C 0.9570(6) 1.0007(2) 0.2456(2)
H45 H 1.0440 0.9982 0.2590
C43 C 0.8616(6) 1.0095(2) 0.2791(2)
H46 H 0.8829 1.0122 0.3156
C44 C 0.7361(7) 1.0143(2) 0.2604(2)
H47 H 0.6706 1.0205 0.2837
C45 C 0.7057(6) 1.0102(2) 0.2068(2)
H48 H 0.6189 1.0143 0.1936
C46 C 0.6465(4) 0.66967(17) -0.06668(16)
C47 C 0.6004(4) 0.65464(18) -0.12326(16)
C48 C 0.6032(4) 0.59070(18) -0.13208(15)
C49 C 0.5679(4) 0.55742(17) -0.08317(15)
C50 C 0.8509(4) 0.80389(17) -0.06378(17)
C51 C 0.7724(4) 0.84131(18) -0.10428(17)
C52 C 0.7241(4) 0.89499(18) -0.08084(16)
C53 C 0.8262(4) 0.93436(18) -0.05302(16)
C54 C 1.4024(4) 0.67176(18) 0.08713(16)
C55 C 1.3270(4) 0.66136(18) 0.13684(16)
C56 C 1.1876(4) 0.64230(18) 0.12530(16)
C57 C 1.1119(4) 0.67777(17) 0.08335(16)
Ag3B Ag 1.31850(3) 0.306555(12) -0.043634(11)
Ag3_2 Ag 1.68150(3) 0.693445(12) 0.043634(11)
Ag4B Ag 1.03284(3) 1.023402(13) -0.054765(12)
Ag5B Ag 1.52636(3) 0.447980(12) -0.028390(11)
Ag5B_2 Ag 0.52636(3) 0.447980(12) -0.028390(11)
Ag5_2 Ag 0.47364(3) 0.552020(12) 0.028390(11)
Ag6_2 Ag 0.35184(3) 0.678475(13) -0.034493(11)
S4B S 0.69202(10) 0.58919(4) 0.06519(4)
S4B_2 S 1.69202(10) 0.58919(4) 0.06519(4)
O2_2 O 1.5823(3) 0.70296(12) -0.04171(11)
O3B O 1.3752(3) 0.48725(12) 0.07490(12)
O4_2 O 1.4820(3) 0.58021(12) -0.05840(11)
O8B O 1.0805(3) 1.05599(14) 0.07965(13)
O12_2 O 0.4833(3) 0.70871(14) 0.08950(12)
loop_
_geom_bond_atom_site_label_1
_geom_bond_atom_site_label_2
_geom_bond_site_symmetry_1
_geom_bond_site_symmetry_2
Ag1 Ag2 1_555 1_555
Ag2 Ag3 1_555 1_555
Ag3 S5 1_555 1_555
Ag4 S2 1_555 1_555
Ag5 O11 1_555 1_555
Ag6 S1 1_555 1_555
S1 C1 1_555 1_555
S2 Ag1 1_555 1_555
S3 Ag2 1_555 1_555
S4 C24 1_555 1_555
S5 Ag1 1_555 1_555
S6 Ag4 1_555 1_555
F1 C47 1_555 1_555
F2 C47 1_555 1_555
F3 C48 1_555 1_555
F4 C48 1_555 1_555
F5 C51 1_555 1_555
F6 C51 1_555 1_555
F7 C52 1_555 1_555
F8 C52 1_555 1_555
F9 C56 1_555 1_555
F10 C56 1_555 1_555
F11 C55 1_555 1_555
F12 C55 1_555 1_555
O1 Ag2 1_555 1_555
O2 Ag3 1_555 1_555
O3 C49 1_555 1_555
O4 C49 1_555 1_555
O5 Ag1 1_555 1_555
O6 Ag2 1_555 1_555
O7 Ag4 1_555 1_555
O8 C53 1_555 1_555
O9 Ag1 1_555 1_555
O10 Ag2 1_555 1_555
O11 Ag6 1_555 1_555
O12 C54 1_555 1_555
C1 C2 1_555 1_555
C2 H1 1_555 1_555
C3 C2 1_555 1_555
H2 C3 1_555 1_555
C4 C3 1_555 1_555
H3 C4 1_555 1_555
C5 C4 1_555 1_555
H4 C5 1_555 1_555
C6 C1 1_555 1_555
H5 C6 1_555 1_555
C7 S1 1_555 1_555
H6 C7 1_555 1_555
H7 C7 1_555 1_555
C8 C7 1_555 1_555
H8 C8 1_555 1_555
H9 C8 1_555 1_555
C9 S2 1_555 1_555
H10 C9 1_555 1_555
H11 C9 1_555 1_555
C10 S2 1_555 1_555
C11 C10 1_555 1_555
H12 C11 1_555 1_555
C12 C11 1_555 1_555
H13 C12 1_555 1_555
C13 C12 1_555 1_555
H14 C13 1_555 1_555
C14 C13 1_555 1_555
H15 C14 1_555 1_555
C15 C10 1_555 1_555
H16 C15 1_555 1_555
C16 S3 1_555 1_555
C17 C16 1_555 1_555
H17 C17 1_555 1_555
C18 C17 1_555 1_555
H18 C18 1_555 1_555
C19 C18 1_555 1_555
H19 C19 1_555 1_555
C20 C19 1_555 1_555
H20 C20 1_555 1_555
C21 C16 1_555 1_555
H21 C21 1_555 1_555
C22 S3 1_555 1_555
H22 C22 1_555 1_555
H23 C22 1_555 1_555
C23 C22 1_555 1_555
H24 C23 1_555 1_555
H25 C23 1_555 1_555
C24 C23 1_555 1_555
H26 C24 1_555 1_555
H27 C24 1_555 1_555
C25 S4 1_555 1_555
C26 C25 1_555 1_555
H28 C26 1_555 1_555
C27 C26 1_555 1_555
H29 C27 1_555 1_555
C28 C27 1_555 1_555
H30 C28 1_555 1_555
C29 C28 1_555 1_555
H31 C29 1_555 1_555
C30 C25 1_555 1_555
H32 C30 1_555 1_555
C31 S5 1_555 1_555
C32 C31 1_555 1_555
H33 C32 1_555 1_555
C33 C32 1_555 1_555
H34 C33 1_555 1_555
C34 C33 1_555 1_555
H35 C34 1_555 1_555
C35 C34 1_555 1_555
H36 C35 1_555 1_555
C36 C31 1_555 1_555
H37 C36 1_555 1_555
C37 S5 1_555 1_555
H38 C37 1_555 1_555
H39 C37 1_555 1_555
C38 C37 1_555 1_555
H40 C38 1_555 1_555
H41 C38 1_555 1_555
C39 S6 1_555 1_555
H42 C39 1_555 1_555
H43 C39 1_555 1_555
C40 S6 1_555 1_555
C41 C40 1_555 1_555
H44 C41 1_555 1_555
C42 C41 1_555 1_555
H45 C42 1_555 1_555
C43 C42 1_555 1_555
H46 C43 1_555 1_555
C44 C43 1_555 1_555
H47 C44 1_555 1_555
C45 C40 1_555 1_555
H48 C45 1_555 1_555
C46 O1 1_555 1_555
C47 C46 1_555 1_555
C48 C47 1_555 1_555
C49 C48 1_555 1_555
C50 O5 1_555 1_555
C51 C50 1_555 1_555
C52 C51 1_555 1_555
C53 O7 1_555 1_555
C54 O11 1_555 1_555
C55 C54 1_555 1_555
C56 C55 1_555 1_555
C57 O9 1_555 1_555
Ag3B S4 1_555 1_555
Ag3_2 O12 1_555 1_555
Ag4B Ag4 1_555 1_555
Ag5B Ag5 1_555 1_555
Ag5B_2 O3 1_555 1_555
Ag5_2 O4 1_555 1_555
Ag6_2 O2 1_555 1_555
S4B Ag3 1_555 1_555
S4B_2 Ag5 1_555 1_555
O2_2 Ag6 1_555 1_555
O3B Ag5 1_555 1_555
O4_2 Ag5 1_555 1_555
O8B Ag4 1_555 1_555
O12_2 Ag3 1_555 1_555
Ag6 S3 1_555 1_555
S4 Ag5B 1_555 1_555
O2 C46 1_555 1_555
O6 C50 1_555 1_555
O8 Ag4B 1_555 1_555
O10 C57 1_555 1_555
C5 C6 1_555 1_555
C8 C9 1_555 1_555
C14 C15 1_555 1_555
C20 C21 1_555 1_555
C29 C30 1_555 1_555
C35 C36 1_555 1_555
C38 C39 1_555 1_555
C44 C45 1_555 1_555
C52 C53 1_555 1_555
C56 C57 1_555 1_555
Ag3_2 S4B_2 1_555 1_555
Ag3_2 O2_2 1_555 1_555
Ag5B_2 Ag5_2 1_555 1_555
Ag5_2 S4B 1_555 1_555

#END
