
#######################################################################
#
#                 Cambridge Crystallographic Data Centre
#                                CCDC 
#
#######################################################################
#
# If this CIF has been generated from an entry in the Cambridge 
# Structural Database, then it will include bibliographic, chemical, 
# crystal, experimental, refinement or atomic coordinate data resulting 
# from the CCDC's data processing and validation procedures.
#
#######################################################################

data_QAHBUY
_symmetry_cell_setting           monoclinic
_symmetry_space_group_name_H-M   'P 21/c'
_symmetry_Int_Tables_number      14
_space_group_name_Hall           '-P 2ybc'
loop_
_symmetry_equiv_pos_site_id
_symmetry_equiv_pos_as_xyz
1 x,y,z
2 -x,1/2+y,1/2-z
3 -x,-y,-z
4 x,1/2-y,1/2+z
_cell_length_a                   17.4256(2)
_cell_length_b                   24.3524(3)
_cell_length_c                   14.9472(2)
_cell_angle_alpha                90
_cell_angle_beta                 104.5950(10)
_cell_angle_gamma                90
_cell_volume                     6138.24
loop_
_atom_site_label
_atom_site_type_symbol
_atom_site_fract_x
_atom_site_fract_y
_atom_site_fract_z
Ag1 Ag 0.31612(3) 0.728744(17) 0.33461(3)
Ag2 Ag 0.48241(2) 0.748354(16) 0.20461(3)
Ag3 Ag 0.65515(2) 0.748041(17) 0.07230(3)
Ag4 Ag -0.01487(3) 0.692710(18) 0.19160(3)
Ag5 Ag -0.02887(3) 0.74911(2) -0.05596(4)
S1 S 0.35030(8) 0.69902(5) 0.18719(10)
S2 S 0.61541(8) 0.71234(5) 0.21188(9)
S3 S 0.91460(7) 0.68775(5) 0.31481(9)
S4 S 0.49736(8) 0.80963(5) 0.41944(10)
S5 S 0.46295(8) 0.66310(5) 0.53197(10)
S6 S -0.18092(8) 0.66595(5) 0.00178(10)
S7 S -0.05965(9) 0.82821(6) 0.17600(11)
S8 S 0.15640(8) 0.66536(6) 0.39212(10)
F1 F 0.4877(3) 0.57040(16) 0.6231(3)
F2 F 0.3812(3) 0.57170(17) 0.5129(4)
F3 F 0.4943(3) 0.56454(16) 0.4824(3)
F4 F 0.5213(2) 0.89127(16) 0.3148(3)
F5 F 0.4347(2) 0.90753(15) 0.3927(3)
F6 F 0.5588(2) 0.90794(15) 0.4606(3)
F7 F 0.0915(3) 0.80415(19) 0.2343(3)
F8 F 0.0627(3) 0.8557(2) 0.1135(3)
F9 F 0.0646(3) 0.88945(17) 0.2449(3)
F10 F 0.1980(3) 0.58565(17) 0.5126(3)
F11 F 0.2100(2) 0.56649(15) 0.3764(3)
F12 F 0.0948(2) 0.56854(16) 0.4032(3)
F13 F -0.1942(2) 0.58530(15) -0.1162(3)
F14 F -0.2575(2) 0.57284(15) -0.0112(3)
F15 F -0.3032(2) 0.62887(14) -0.1245(2)
O1 O 0.2698(2) 0.81673(17) 0.3607(3)
O2 O 0.4266(3) 0.67495(18) 0.4363(3)
O3 O 0.4200(3) 0.68204(17) 0.5969(3)
O4 O 0.5475(3) 0.67296(18) 0.5602(3)
O5 O 0.4412(2) 0.79103(16) 0.3357(3)
O6 O 0.4691(2) 0.80771(16) 0.5019(3)
O7 O 0.5776(2) 0.79057(17) 0.4284(3)
O8 O 0.7089(3) 0.82776(17) 0.0279(3)
O9 O -0.0687(3) 0.78429(19) 0.1082(3)
O10 O -0.1009(3) 0.87924(19) 0.1419(3)
O11 O -0.0652(3) 0.8107(2) 0.2665(3)
O12 O 0.1054(3) 0.68697(18) 0.4453(3)
O13 O 0.1234(3) 0.66446(19) 0.2934(3)
O14 O 0.2375(2) 0.68433(18) 0.4201(3)
O15 O -0.1593(3) 0.69967(18) -0.0672(3)
O16 O -0.1156(2) 0.63763(17) 0.0630(3)
O17 O -0.2373(3) 0.68937(19) 0.0467(3)
C1 C 0.2778(5) 0.8609(3) 0.2215(5)
H1 H 0.2841 0.8234 0.2006
H2 H 0.3256 0.8823 0.2222
H3 H 0.2318 0.8781 0.1793
C2 C 0.2653(3) 0.8592(2) 0.3164(4)
C3 C 0.2454(4) 0.9122(3) 0.3586(5)
H4 H 0.1957 0.9077 0.3771
H5 H 0.2395 0.9418 0.3131
H6 H 0.2882 0.9213 0.4130
C4 C 0.5038(3) 0.8829(2) 0.3960(4)
C5 C 0.4558(4) 0.5881(2) 0.5387(4)
C6 C 0.7144(4) 0.8711(3) 0.0690(5)
C7 C 0.7152(4) 0.8750(3) 0.1685(5)
H7 H 0.7124 0.8380 0.1934
H8 H 0.6694 0.8965 0.1752
H9 H 0.7642 0.8930 0.2025
C8 C 0.7220(4) 0.9242(3) 0.0200(5)
H10 H 0.7198 0.9166 -0.0450
H11 H 0.7728 0.9417 0.0495
H12 H 0.6785 0.9488 0.0237
C9 C -0.2368(3) 0.6100(2) -0.0662(4)
C10 C 0.1653(4) 0.5926(2) 0.4234(4)
C11 C 0.3531(3) 0.6258(2) 0.1803(4)
C12 C 0.3319(4) 0.5953(2) 0.2491(4)
H13 H 0.3136 0.6130 0.2964
C13 C 0.3383(4) 0.5384(2) 0.2472(5)
H14 H 0.3243 0.5172 0.2940
C14 C 0.3645(4) 0.5123(2) 0.1783(4)
H15 H 0.3685 0.4734 0.1779
C15 C 0.3849(4) 0.5433(3) 0.1096(5)
H16 H 0.4022 0.5254 0.0617
C16 C 0.3802(4) 0.6005(2) 0.1107(5)
H17 H 0.3953 0.6217 0.0647
C17 C 0.2931(3) 0.7208(2) 0.0730(4)
H18 H 0.2894 0.7613 0.0725
H19 H 0.3227 0.7102 0.0271
C18 C 0.2101(3) 0.6974(2) 0.0422(4)
H20 H 0.2131 0.6568 0.0422
H21 H 0.1856 0.7096 -0.0218
C19 C 0.0385(4) 0.8430(3) 0.1955(4)
C20 C 0.6073(3) 0.6393(2) 0.2189(4)
C21 C 0.5666(3) 0.6170(2) 0.2795(4)
H22 H 0.5418 0.6402 0.3150
C22 C 0.5630(4) 0.5605(3) 0.2873(5)
H23 H 0.5351 0.5445 0.3278
C23 C 0.6004(5) 0.5270(3) 0.2355(5)
H24 H 0.5991 0.4883 0.2419
C24 C 0.6393(5) 0.5500(3) 0.1749(5)
H25 H 0.6637 0.5268 0.1390
C25 C 0.6431(4) 0.6061(2) 0.1657(5)
H26 H 0.6697 0.6218 0.1237
C26 C 0.6852(3) 0.7265(2) 0.3244(4)
H27 H 0.6976 0.7663 0.3284
H28 H 0.6592 0.7175 0.3742
C27 C 0.7623(3) 0.6946(2) 0.3405(4)
H29 H 0.7946 0.7021 0.4039
H30 H 0.7501 0.6548 0.3363
C28 C 0.8108(3) 0.7084(2) 0.2723(4)
H31 H 0.8083 0.7485 0.2607
H32 H 0.7876 0.6897 0.2128
C29 C 0.9086(3) 0.6165(2) 0.3425(4)
C30 C 0.9139(4) 0.6010(2) 0.4323(4)
H33 H 0.9187 0.6280 0.4793
C31 C 0.9120(4) 0.5459(3) 0.4537(5)
H34 H 0.9159 0.5349 0.5156
C32 C 0.9046(4) 0.5068(3) 0.3854(5)
H35 H 0.9032 0.4689 0.4003
C33 C 0.8992(4) 0.5228(3) 0.2947(5)
H36 H 0.8943 0.4956 0.2480
C34 C 0.9008(4) 0.5777(2) 0.2716(5)
H37 H 0.8967 0.5887 0.2096
C35 C 0.1584(3) 0.7155(2) 0.1047(4)
H38 H 0.1584 0.7561 0.1079
H39 H 0.1814 0.7014 0.1679
S9 S 0.05559(8) 0.69111(5) 0.06451(10)
C36 C 0.0669(3) 0.6214(2) 0.0338(4)
C37 C 0.1130(4) 0.5864(3) 0.0992(5)
H40 H 0.1358 0.5989 0.1603
C38 C 0.0316(4) 0.6036(3) -0.0545(4)
H41 H -0.0004 0.6280 -0.0981
C39 C 0.0431(4) 0.5496(3) -0.0793(5)
H42 H 0.0187 0.5369 -0.1399
C40 C 0.0902(4) 0.5147(3) -0.0156(5)
H43 H 0.0986 0.4781 -0.0328
C41 C 0.1253(4) 0.5330(3) 0.0737(6)
H44 H 0.1576 0.5088 0.1172
Ag2C Ag 0.48241(2) 0.751646(16) 0.70461(3)
Ag3C Ag 0.65515(2) 0.751959(17) 0.57230(3)
Ag3_2 Ag -0.34485(2) 0.748041(17) 0.07230(3)
Ag4_2 Ag 0.98513(3) 0.692710(18) 0.19160(3)
Ag5C Ag 0.97113(3) 0.75089(2) 0.44404(4)
S3_2 S -0.08540(7) 0.68775(5) 0.31481(9)
S3C S -0.08540(7) 0.81225(5) -0.18519(9)
O3C O 0.4200(3) 0.81796(17) 0.0969(3)
O7C O 0.5776(2) 0.70943(17) -0.0716(3)
O17_2 O 0.7627(3) 0.68937(19) 0.0467(3)
loop_
_geom_bond_atom_site_label_1
_geom_bond_atom_site_label_2
_geom_bond_site_symmetry_1
_geom_bond_site_symmetry_2
Ag1 S1 1_555 1_555
Ag2 S1 1_555 1_555
Ag3 S2 1_555 1_555
Ag4 O9 1_555 1_555
Ag5 O15 1_555 1_555
S1 C11 1_555 1_555
S2 Ag2 1_555 1_555
S3 C28 1_555 1_555
S4 O5 1_555 1_555
S5 O2 1_555 1_555
S6 O15 1_555 1_555
S7 O9 1_555 1_555
S8 O12 1_555 1_555
F1 C5 1_555 1_555
F2 C5 1_555 1_555
F3 C5 1_555 1_555
F4 C4 1_555 1_555
F5 C4 1_555 1_555
F6 C4 1_555 1_555
F7 C19 1_555 1_555
F8 C19 1_555 1_555
F9 C19 1_555 1_555
F10 C10 1_555 1_555
F11 C10 1_555 1_555
F12 C10 1_555 1_555
F13 C9 1_555 1_555
F14 C9 1_555 1_555
F15 C9 1_555 1_555
O1 Ag1 1_555 1_555
O2 Ag1 1_555 1_555
O3 S5 1_555 1_555
O4 S5 1_555 1_555
O5 Ag2 1_555 1_555
O6 S4 1_555 1_555
O7 S4 1_555 1_555
O8 Ag3 1_555 1_555
O10 S7 1_555 1_555
O11 S7 1_555 1_555
O13 Ag4 1_555 1_555
O14 Ag1 1_555 1_555
O16 S6 1_555 1_555
O17 S6 1_555 1_555
C1 H1 1_555 1_555
H2 C1 1_555 1_555
H3 C1 1_555 1_555
C2 O1 1_555 1_555
C3 C2 1_555 1_555
H4 C3 1_555 1_555
H5 C3 1_555 1_555
H6 C3 1_555 1_555
C4 S4 1_555 1_555
C5 S5 1_555 1_555
C6 O8 1_555 1_555
C7 C6 1_555 1_555
H7 C7 1_555 1_555
H8 C7 1_555 1_555
H9 C7 1_555 1_555
C8 C6 1_555 1_555
H10 C8 1_555 1_555
H11 C8 1_555 1_555
H12 C8 1_555 1_555
C9 S6 1_555 1_555
C10 S8 1_555 1_555
C11 C12 1_555 1_555
C12 H13 1_555 1_555
C13 C12 1_555 1_555
H14 C13 1_555 1_555
C14 C13 1_555 1_555
H15 C14 1_555 1_555
C15 C14 1_555 1_555
H16 C15 1_555 1_555
C16 C11 1_555 1_555
H17 C16 1_555 1_555
C17 S1 1_555 1_555
H18 C17 1_555 1_555
H19 C17 1_555 1_555
C18 C17 1_555 1_555
H20 C18 1_555 1_555
H21 C18 1_555 1_555
C19 S7 1_555 1_555
C20 S2 1_555 1_555
C21 C20 1_555 1_555
H22 C21 1_555 1_555
C22 C21 1_555 1_555
H23 C22 1_555 1_555
C23 C22 1_555 1_555
H24 C23 1_555 1_555
C24 C23 1_555 1_555
H25 C24 1_555 1_555
C25 C20 1_555 1_555
H26 C25 1_555 1_555
C26 S2 1_555 1_555
H27 C26 1_555 1_555
H28 C26 1_555 1_555
C27 C26 1_555 1_555
H29 C27 1_555 1_555
H30 C27 1_555 1_555
C28 C27 1_555 1_555
H31 C28 1_555 1_555
H32 C28 1_555 1_555
C29 S3 1_555 1_555
C30 C29 1_555 1_555
H33 C30 1_555 1_555
C31 C30 1_555 1_555
H34 C31 1_555 1_555
C32 C31 1_555 1_555
H35 C32 1_555 1_555
C33 C32 1_555 1_555
H36 C33 1_555 1_555
C34 C29 1_555 1_555
H37 C34 1_555 1_555
C35 C18 1_555 1_555
H38 C35 1_555 1_555
H39 C35 1_555 1_555
S9 Ag4 1_555 1_555
C36 S9 1_555 1_555
C37 C36 1_555 1_555
H40 C37 1_555 1_555
C38 C36 1_555 1_555
H41 C38 1_555 1_555
C39 C38 1_555 1_555
H42 C39 1_555 1_555
C40 C39 1_555 1_555
H43 C40 1_555 1_555
C41 C37 1_555 1_555
H44 C41 1_555 1_555
Ag2C O3 1_555 1_555
Ag3C O7 1_555 1_555
Ag3_2 O17 1_555 1_555
Ag4_2 S3 1_555 1_555
Ag5C S3 1_555 1_555
S3_2 Ag4 1_555 1_555
S3C Ag5 1_555 1_555
O3C Ag2 1_555 1_555
O7C Ag3 1_555 1_555
O17_2 Ag3 1_555 1_555
Ag5 S9 1_555 1_555
S8 O13 1_555 1_555
S8 O14 1_555 1_555
C1 C2 1_555 1_555
C15 C16 1_555 1_555
C24 C25 1_555 1_555
C33 C34 1_555 1_555
C35 S9 1_555 1_555
C40 C41 1_555 1_555

#END
