
#######################################################################
#
#                 Cambridge Crystallographic Data Centre
#                                CCDC 
#
#######################################################################
#
# If this CIF has been generated from an entry in the Cambridge 
# Structural Database, then it will include bibliographic, chemical, 
# crystal, experimental, refinement or atomic coordinate data resulting 
# from the CCDC's data processing and validation procedures.
#
#######################################################################

data_QAHCEJ
_symmetry_cell_setting           monoclinic
_symmetry_space_group_name_H-M   'P 21/n'
_symmetry_Int_Tables_number      14
_space_group_name_Hall           '-P 2yn'
loop_
_symmetry_equiv_pos_site_id
_symmetry_equiv_pos_as_xyz
1 x,y,z
2 1/2-x,1/2+y,1/2-z
3 -x,-y,-z
4 1/2+x,1/2-y,1/2+z
_cell_length_a                   9.6877(2)
_cell_length_b                   25.1542(6)
_cell_length_c                   32.2345(7)
_cell_angle_alpha                90
_cell_angle_beta                 96.9290(10)
_cell_angle_gamma                90
_cell_volume                     7797.74
loop_
_atom_site_label
_atom_site_type_symbol
_atom_site_fract_x
_atom_site_fract_y
_atom_site_fract_z
Ag1 Ag -0.19774(6) 0.49553(2) 0.125089(19)
Ag2 Ag 0.13916(6) 0.57501(2) 0.207872(16)
Ag3 Ag -0.43215(6) 0.60273(2) 0.16023(2)
Ag4 Ag 0.68411(5) 0.74635(2) 0.214102(16)
Ag5 Ag 0.21218(5) 0.74713(2) 0.282370(16)
Ag6 Ag 0.14179(6) 0.60109(2) 0.33928(2)
Ag7 Ag -0.32868(6) 0.57634(2) 0.292790(17)
Ag8 Ag -0.59159(7) 0.48943(3) 0.38327(3)
Ag9 Ag -0.73230(5) 0.37006(2) 0.282000(17)
Ag10 Ag -0.25637(5) 0.36927(2) 0.217637(16)
S1 S -0.18608(17) 0.39350(7) 0.14713(5)
S2 S 0.05206(17) 0.49742(6) 0.15448(5)
S3 S 0.30441(17) 0.61655(6) 0.16134(5)
S4 S 0.55964(17) 0.70914(7) 0.14935(5)
S5 S 0.14392(17) 0.70744(7) 0.34682(5)
S6 S -0.12477(17) 0.61735(6) 0.33825(5)
S7 S -0.37636(17) 0.49827(6) 0.34734(6)
S8 S -0.60409(17) 0.39107(6) 0.35344(6)
O1 O -0.1611(4) 0.35375(19) 0.28866(15)
O2 O 0.0177(5) 0.3761(2) 0.25828(15)
O3 O 0.0467(5) 0.3534(2) 0.32289(15)
O4 O -0.6894(5) 0.35149(19) 0.21214(15)
O5 O -0.5089(5) 0.3510(2) 0.17794(15)
O6 O -0.4877(5) 0.3767(2) 0.24188(16)
O7 O -0.4148(7) 0.5320(3) 0.2324(2)
O8 O -0.3705(6) 0.5019(3) 0.17529(19)
O9 O -0.2441(6) 0.4784(2) 0.2322(2)
O10 O -0.3309(5) 0.5700(2) 0.09698(16)
O11 O -0.4236(6) 0.5813(2) 0.03394(17)
O12 O -0.3068(6) 0.5102(2) 0.05186(16)
O13 O -0.2611(5) 0.6392(2) 0.22807(16)
O14 O -0.1632(6) 0.6005(2) 0.17945(17)
O15 O -0.0362(6) 0.6307(2) 0.23352(19)
O16 O 0.9296(5) 0.7598(2) 0.24663(16)
O17 O 0.9099(6) 0.7539(3) 0.18023(17)
O18 O 1.1118(5) 0.7675(2) 0.21420(15)
O19 O 0.4646(6) 0.7562(2) 0.31692(16)
O20 O 0.4323(5) 0.7595(2) 0.25060(15)
O21 O 0.6412(5) 0.76657(19) 0.28232(15)
O22 O 0.2452(8) 0.5866(3) 0.4655(2)
O23 O 0.2886(6) 0.5656(2) 0.40443(18)
O24 O 0.3499(8) 0.5128(4) 0.4534(3)
O25 O -0.5193(6) 0.6330(2) 0.2662(2)
O26 O -0.7386(5) 0.6400(2) 0.27048(16)
O27 O -0.6056(6) 0.6026(2) 0.31974(18)
O28 O 0.2063(8) 0.5002(4) 0.3250(2)
O29 O 0.1102(7) 0.5344(3) 0.2711(2)
O30 O 0.2685(7) 0.4768(2) 0.2659(2)
N1 N -0.0312(6) 0.3615(2) 0.29021(17)
N2 N -0.5608(6) 0.3604(2) 0.21012(18)
N3 N -0.3416(7) 0.5036(2) 0.2137(2)
N4 N -0.3546(6) 0.5540(3) 0.06005(19)
N5 N -0.1516(6) 0.6236(2) 0.21337(19)
N6 N 0.9840(6) 0.7600(2) 0.21330(19)
N7 N 0.5123(6) 0.7605(2) 0.28364(18)
N8 N 0.2929(7) 0.5566(3) 0.4419(2)
N9 N -0.6195(6) 0.6254(2) 0.28510(19)
N10 N 0.1972(7) 0.5027(3) 0.2868(2)
C1 C -0.2417(7) 0.3486(3) 0.1058(2)
C2 C -0.1934(8) 0.2976(3) 0.1044(2)
H1 H -0.1241 0.2852 0.1255
C3 C -0.2458(8) 0.2645(3) 0.0723(2)
H2 H -0.2096 0.2295 0.0711
C4 C -0.3488(8) 0.2808(3) 0.0421(2)
H3 H -0.3853 0.2574 0.0204
C5 C -0.3976(9) 0.3317(3) 0.0441(3)
H4 H -0.4706 0.3434 0.0238
C6 C -0.3423(9) 0.3663(3) 0.0750(2)
H5 H -0.3735 0.4021 0.0751
C7 C 0.0022(6) 0.3880(3) 0.1543(2)
H6 H 0.0302 0.3537 0.1679
H7 H 0.0383 0.3892 0.1269
C8 C 0.0620(7) 0.4343(2) 0.1818(2)
H8 H 0.1604 0.4266 0.1920
H9 H 0.0105 0.4371 0.2064
C9 C 0.1667(7) 0.4851(2) 0.1158(2)
C10 C 0.1135(7) 0.4808(3) 0.0743(2)
H10 H 0.0163 0.4832 0.0659
C11 C 0.2063(8) 0.4727(3) 0.0451(2)
H11 H 0.1727 0.4707 0.0162
C12 C 0.3476(8) 0.4678(3) 0.0580(2)
H12 H 0.4108 0.4617 0.0381
C13 C 0.3947(8) 0.4716(3) 0.0995(2)
H13 H 0.4916 0.4680 0.1081
C14 C 0.3080(7) 0.4805(3) 0.1289(2)
H14 H 0.3431 0.4835 0.1576
C15 C 0.2090(7) 0.6166(3) 0.1101(2)
C16 C 0.2805(8) 0.6089(3) 0.0754(2)
H15 H 0.3790 0.6061 0.0789
C17 C 0.2082(11) 0.6054(3) 0.0369(3)
H16 H 0.2565 0.5989 0.0134
C18 C 0.0643(11) 0.6111(3) 0.0311(3)
H17 H 0.0150 0.6091 0.0038
C19 C -0.0057(9) 0.6197(3) 0.0647(3)
H18 H -0.1039 0.6240 0.0607
C20 C 0.0652(8) 0.6221(3) 0.1052(3)
H19 H 0.0162 0.6274 0.1286
C21 C 0.3731(6) 0.7225(2) 0.1459(2)
H20 H 0.3583 0.7601 0.1531
H21 H 0.3300 0.7166 0.1168
C22 C 0.3037(7) 0.6870(2) 0.1749(2)
H22 H 0.2062 0.6987 0.1750
H23 H 0.3514 0.6915 0.2037
C23 C 0.6038(6) 0.7428(3) 0.1038(2)
C24 C 0.6211(7) 0.7142(3) 0.0687(2)
H24 H 0.6119 0.6766 0.0685
C25 C 0.6525(8) 0.7412(4) 0.0333(3)
H25 H 0.6642 0.7219 0.0086
C26 C 0.6666(7) 0.7957(4) 0.0338(2)
H26 H 0.6871 0.8139 0.0094
C27 C 0.6511(7) 0.8239(3) 0.0694(2)
H27 H 0.6613 0.8615 0.0697
C28 C 0.6211(7) 0.7979(3) 0.1044(2)
H28 H 0.6119 0.8173 0.1292
C29 C 0.2400(7) 0.7388(3) 0.3913(2)
C30 C 0.2327(8) 0.7930(3) 0.3971(2)
H29 H 0.1750 0.8143 0.3778
C31 C 0.3100(8) 0.8162(3) 0.4314(2)
H30 H 0.3041 0.8534 0.4359
C32 C 0.3953(8) 0.7853(3) 0.4589(2)
H31 H 0.4506 0.8010 0.4820
C33 C 0.3993(8) 0.7311(3) 0.4524(2)
H32 H 0.4573 0.7097 0.4715
C34 C 0.3214(8) 0.7076(3) 0.4190(2)
H33 H 0.3240 0.6701 0.4153
C35 C -0.0358(7) 0.7227(3) 0.3535(2)
H34 H -0.0508 0.7167 0.3829
H35 H -0.0551 0.7606 0.3467
C36 C -0.1345(7) 0.6879(3) 0.3252(2)
H36 H -0.1140 0.6924 0.2960
H37 H -0.2308 0.7004 0.3265
C37 C -0.1779(7) 0.6180(2) 0.3897(2)
C38 C -0.0772(7) 0.6165(3) 0.4238(2)
H38 H 0.0186 0.6166 0.4202
C39 C -0.1184(8) 0.6148(3) 0.4636(2)
H39 H -0.0499 0.6140 0.4873
C40 C -0.2566(9) 0.6143(3) 0.4692(2)
H40 H -0.2836 0.6122 0.4966
C41 C -0.3562(8) 0.6169(3) 0.4346(2)
H41 H -0.4521 0.6173 0.4382
C42 C -0.3169(7) 0.6190(2) 0.3948(2)
H42 H -0.3854 0.6211 0.3712
C43 C -0.2237(7) 0.4850(2) 0.3827(2)
C44 C -0.0983(7) 0.4797(3) 0.3674(2)
H43 H -0.0929 0.4826 0.3383
C45 C 0.0214(8) 0.4700(3) 0.3950(3)
H44 H 0.1088 0.4656 0.3849
C46 C 0.0107(9) 0.4669(3) 0.4375(3)
H45 H 0.0920 0.4607 0.4564
C47 C -0.1131(9) 0.4724(3) 0.4525(2)
H46 H -0.1183 0.4699 0.4816
C48 C -0.2329(8) 0.4819(3) 0.4250(2)
H47 H -0.3201 0.4861 0.4353
C49 C -0.3917(7) 0.4364(3) 0.3177(2)
H48 H -0.4674 0.4402 0.2943
H49 H -0.3042 0.4303 0.3054
C50 C -0.4217(6) 0.3880(3) 0.3438(2)
H50 H -0.3602 0.3882 0.3707
H51 H -0.4044 0.3549 0.3287
C51 C -0.6207(7) 0.3406(3) 0.3912(2)
C52 C -0.5232(7) 0.3007(3) 0.4015(2)
H52 H -0.4412 0.2993 0.3881
C53 C -0.5457(8) 0.2633(3) 0.4311(2)
H53 H -0.4788 0.2361 0.4380
C54 C -0.6626(7) 0.2647(3) 0.4507(2)
H54 H -0.6763 0.2388 0.4713
C55 C -0.7610(7) 0.3036(3) 0.4406(2)
H55 H -0.8431 0.3043 0.4540
C56 C -0.7404(7) 0.3420(3) 0.4110(2)
H56 H -0.8080 0.3690 0.4042
Ag3_2 Ag 0.56785(6) 0.60273(2) 0.16023(2)
Ag5_2 Ag 1.21218(5) 0.74713(2) 0.282370(16)
Ag6_2 Ag -0.85821(6) 0.60109(2) 0.33928(2)
Ag8_2 Ag 0.40841(7) 0.48943(3) 0.38327(3)
Ag9_2 Ag 0.26770(5) 0.37006(2) 0.282000(17)
S3_2 S -0.69559(17) 0.61655(6) 0.16134(5)
S4_2 S -0.44036(17) 0.70914(7) 0.14935(5)
O2_2 O -0.9823(5) 0.3761(2) 0.25828(15)
O18_2 O 0.1118(5) 0.7675(2) 0.21420(15)
O23_2 O -0.7114(6) 0.5656(2) 0.40443(18)
O24_2 O -0.6501(8) 0.5128(4) 0.4534(3)
O27_2 O 0.3944(6) 0.6026(2) 0.31974(18)
O28_2 O -0.7937(8) 0.5002(4) 0.3250(2)
loop_
_geom_bond_atom_site_label_1
_geom_bond_atom_site_label_2
_geom_bond_site_symmetry_1
_geom_bond_site_symmetry_2
Ag1 S1 1_555 1_555
Ag2 S2 1_555 1_555
Ag3 O10 1_555 1_555
Ag4 S4 1_555 1_555
Ag5 S5 1_555 1_555
Ag6 S5 1_555 1_555
Ag7 S6 1_555 1_555
Ag8 S7 1_555 1_555
Ag9 S8 1_555 1_555
Ag10 S1 1_555 1_555
S1 C1 1_555 1_555
S2 Ag1 1_555 1_555
S3 Ag2 1_555 1_555
S4 C21 1_555 1_555
S5 C29 1_555 1_555
S6 Ag6 1_555 1_555
S7 Ag7 1_555 1_555
S8 Ag8 1_555 1_555
O1 Ag10 1_555 1_555
O2 N1 1_555 1_555
O3 N1 1_555 1_555
O4 Ag9 1_555 1_555
O5 N2 1_555 1_555
O6 Ag10 1_555 1_555
O7 Ag7 1_555 1_555
O8 Ag1 1_555 1_555
O9 N3 1_555 1_555
O10 Ag1 1_555 1_555
O11 N4 1_555 1_555
O12 Ag1 1_555 1_555
O13 N5 1_555 1_555
O14 Ag3 1_555 1_555
O15 Ag2 1_555 1_555
O16 Ag4 1_555 1_555
O17 Ag4 1_555 1_555
O18 N6 1_555 1_555
O19 Ag5 1_555 1_555
O20 Ag5 1_555 1_555
O21 Ag4 1_555 1_555
O22 N8 1_555 1_555
O23 Ag6 1_555 1_555
O24 N8 1_555 1_555
O25 Ag7 1_555 1_555
O26 N9 1_555 1_555
O27 N9 1_555 1_555
O28 N10 1_555 1_555
O29 Ag2 1_555 1_555
O30 N10 1_555 1_555
N1 O1 1_555 1_555
N2 O4 1_555 1_555
N3 O7 1_555 1_555
N4 O10 1_555 1_555
N5 O14 1_555 1_555
N6 O16 1_555 1_555
N7 O19 1_555 1_555
N8 O23 1_555 1_555
N9 O25 1_555 1_555
N10 O29 1_555 1_555
C1 C2 1_555 1_555
C2 H1 1_555 1_555
C3 C2 1_555 1_555
H2 C3 1_555 1_555
C4 C3 1_555 1_555
H3 C4 1_555 1_555
C5 C4 1_555 1_555
H4 C5 1_555 1_555
C6 C1 1_555 1_555
H5 C6 1_555 1_555
C7 S1 1_555 1_555
H6 C7 1_555 1_555
H7 C7 1_555 1_555
C8 S2 1_555 1_555
H8 C8 1_555 1_555
H9 C8 1_555 1_555
C9 S2 1_555 1_555
C10 C9 1_555 1_555
H10 C10 1_555 1_555
C11 C10 1_555 1_555
H11 C11 1_555 1_555
C12 C11 1_555 1_555
H12 C12 1_555 1_555
C13 C12 1_555 1_555
H13 C13 1_555 1_555
C14 C9 1_555 1_555
H14 C14 1_555 1_555
C15 S3 1_555 1_555
C16 C15 1_555 1_555
H15 C16 1_555 1_555
C17 C16 1_555 1_555
H16 C17 1_555 1_555
C18 C17 1_555 1_555
H17 C18 1_555 1_555
C19 C18 1_555 1_555
H18 C19 1_555 1_555
C20 C15 1_555 1_555
H19 C20 1_555 1_555
C21 H20 1_555 1_555
H21 C21 1_555 1_555
C22 S3 1_555 1_555
H22 C22 1_555 1_555
H23 C22 1_555 1_555
C23 S4 1_555 1_555
C24 C23 1_555 1_555
H24 C24 1_555 1_555
C25 C24 1_555 1_555
H25 C25 1_555 1_555
C26 C25 1_555 1_555
H26 C26 1_555 1_555
C27 C26 1_555 1_555
H27 C27 1_555 1_555
C28 C23 1_555 1_555
H28 C28 1_555 1_555
C29 C30 1_555 1_555
C30 H29 1_555 1_555
C31 C30 1_555 1_555
H30 C31 1_555 1_555
C32 C31 1_555 1_555
H31 C32 1_555 1_555
C33 C32 1_555 1_555
H32 C33 1_555 1_555
C34 C29 1_555 1_555
H33 C34 1_555 1_555
C35 S5 1_555 1_555
H34 C35 1_555 1_555
H35 C35 1_555 1_555
C36 S6 1_555 1_555
H36 C36 1_555 1_555
H37 C36 1_555 1_555
C37 S6 1_555 1_555
C38 C37 1_555 1_555
H38 C38 1_555 1_555
C39 C38 1_555 1_555
H39 C39 1_555 1_555
C40 C39 1_555 1_555
H40 C40 1_555 1_555
C41 C40 1_555 1_555
H41 C41 1_555 1_555
C42 C37 1_555 1_555
H42 C42 1_555 1_555
C43 S7 1_555 1_555
C44 C43 1_555 1_555
H43 C44 1_555 1_555
C45 C44 1_555 1_555
H44 C45 1_555 1_555
C46 C45 1_555 1_555
H45 C46 1_555 1_555
C47 C46 1_555 1_555
H46 C47 1_555 1_555
C48 C43 1_555 1_555
H47 C48 1_555 1_555
C49 S7 1_555 1_555
H48 C49 1_555 1_555
H49 C49 1_555 1_555
C50 S8 1_555 1_555
H50 C50 1_555 1_555
H51 C50 1_555 1_555
C51 S8 1_555 1_555
C52 C51 1_555 1_555
H52 C52 1_555 1_555
C53 C52 1_555 1_555
H53 C53 1_555 1_555
C54 C53 1_555 1_555
H54 C54 1_555 1_555
C55 C54 1_555 1_555
H55 C55 1_555 1_555
C56 C51 1_555 1_555
H56 C56 1_555 1_555
Ag3_2 S3 1_555 1_555
Ag5_2 O18 1_555 1_555
Ag6_2 O27 1_555 1_555
Ag8_2 O23 1_555 1_555
Ag9_2 O2 1_555 1_555
S3_2 Ag3 1_555 1_555
S4_2 Ag3 1_555 1_555
O2_2 Ag9 1_555 1_555
O18_2 Ag5 1_555 1_555
O23_2 Ag8 1_555 1_555
O24_2 Ag8 1_555 1_555
O27_2 Ag6 1_555 1_555
O28_2 Ag8 1_555 1_555
S4 Ag3_2 1_555 1_555
O6 N2 1_555 1_555
O8 N3 1_555 1_555
O12 N4 1_555 1_555
O15 N5 1_555 1_555
O17 N6 1_555 1_555
O20 N7 1_555 1_555
O21 N7 1_555 1_555
O24 Ag8_2 1_555 1_555
O28 Ag8_2 1_555 1_555
C5 C6 1_555 1_555
C7 C8 1_555 1_555
C13 C14 1_555 1_555
C19 C20 1_555 1_555
C21 C22 1_555 1_555
C27 C28 1_555 1_555
C33 C34 1_555 1_555
C35 C36 1_555 1_555
C41 C42 1_555 1_555
C47 C48 1_555 1_555
C49 C50 1_555 1_555
C55 C56 1_555 1_555
Ag6_2 O23_2 1_555 1_555

#END
