
#######################################################################
#
#                 Cambridge Crystallographic Data Centre
#                                CCDC 
#
#######################################################################
#
# If this CIF has been generated from an entry in the Cambridge 
# Structural Database, then it will include bibliographic, chemical, 
# crystal, experimental, refinement or atomic coordinate data resulting 
# from the CCDC's data processing and validation procedures.
#
#######################################################################

data_QAHJOZ
_symmetry_cell_setting           orthorhombic
_symmetry_space_group_name_H-M   'P b c a'
_symmetry_Int_Tables_number      61
_space_group_name_Hall           '-P 2ac 2ab'
loop_
_symmetry_equiv_pos_site_id
_symmetry_equiv_pos_as_xyz
1 x,y,z
2 1/2+x,y,1/2-z
3 x,1/2-y,1/2+z
4 1/2-x,1/2+y,z
5 -x,-y,-z
6 1/2-x,-y,1/2+z
7 -x,1/2+y,1/2-z
8 1/2+x,1/2-y,-z
_cell_length_a                   14.318(3)
_cell_length_b                   13.106(3)
_cell_length_c                   14.580(3)
_cell_angle_alpha                90
_cell_angle_beta                 90
_cell_angle_gamma                90
_cell_volume                     2735.96
loop_
_atom_site_label
_atom_site_type_symbol
_atom_site_fract_x
_atom_site_fract_y
_atom_site_fract_z
Cd1 Cd -0.14621(9) 0.90418(10) -0.34013(9)
Ge1 Ge 0.01387(9) 0.82213(10) 0.14349(9)
Ge2 Ge 0.15640(9) 0.83300(11) -0.01221(9)
Ge3 Ge -0.00506(9) 0.78510(11) -0.15039(9)
Ge4 Ge -0.13907(9) 0.77584(11) -0.00351(9)
Ge5 Ge 0.0000 1.0000 0.0000
O1 O 0.1255(6) 0.9603(7) -0.0140(7)
O2 O 0.1185(6) 0.7790(7) 0.0913(6)
O3 O 0.1106(6) 0.7694(7) -0.1077(6)
O4 O 0.0216(7) 0.8081(7) 0.2602(6)
O5 O 0.0004(6) 0.9514(7) 0.1217(6)
O6 O -0.1012(6) 0.7141(7) -0.1051(6)
O7 O -0.0298(7) 0.8875(8) -0.2268(6)
H1 H -0.0226 0.9419 -0.2001
O8 O 0.2769(6) 0.8290(7) -0.0238(6)
O9 O -0.0374(6) 0.8698(7) -0.0398(6)
O10 O -0.0805(6) 0.7472(8) 0.1020(7)
O11 O -0.2247(6) 0.8716(8) 0.0017(9)
H2 H -0.1994 0.9275 0.0057
N1 N -0.2523(12) 0.8428(13) -0.2468(11)
H3 H -0.2250 0.8097 -0.1998
H4 H -0.2898 0.7988 -0.2767
N2 N -0.2160(17) 1.0545(15) -0.2801(17)
H5 H -0.2557 1.0821 -0.3210
H6 H -0.1721 1.1010 -0.2656
N3 N -0.091(2) 1.0257(19) -0.428(2)
H7 H -0.0544 1.0627 -0.3908
H8 H -0.1412 1.0656 -0.4398
C1 C -0.3072(17) 0.931(2) -0.212(2)
H9 H -0.3324 0.9127 -0.1529
H10 H -0.3597 0.9410 -0.2533
C2 C -0.263(2) 1.023(2) -0.203(2)
H11 H -0.3087 1.0741 -0.1869
H12 H -0.2187 1.0178 -0.1528
C3 C -0.0423(19) 1.022(2) -0.512(3)
H13 H -0.0337 1.0892 -0.5376
H14 H -0.0750 0.9794 -0.5564
C3D C 0.0423(19) 0.978(2) -0.488(3)
N3D N 0.091(2) 0.9743(19) -0.572(2)
H7D H 0.0544 0.9373 -0.6092
H8D H 0.1412 0.9344 -0.5602
H13D H 0.0337 0.9108 -0.4624
H14D H 0.0750 1.0206 -0.4436
O1D O -0.1255(6) 1.0397(7) 0.0140(7)
O5D O -0.0004(6) 1.0486(7) -0.1217(6)
O9D O 0.0374(6) 1.1302(7) 0.0398(6)
Ge1D Ge -0.01387(9) 1.17787(10) -0.14349(9)
Ge2D Ge -0.15640(9) 1.16700(11) 0.01221(9)
Ge3D Ge 0.00506(9) 1.21490(11) 0.15039(9)
Ge4D Ge 0.13907(9) 1.22416(11) 0.00351(9)
O4B O 0.0216(7) 0.6919(7) -0.2398(6)
O8G O -0.2231(6) 0.6710(7) 0.0238(6)
O2D O -0.1185(6) 1.2210(7) -0.0913(6)
O10D O 0.0805(6) 1.2528(8) -0.1020(7)
O3D O -0.1106(6) 1.2306(7) 0.1077(6)
O6D O 0.1012(6) 1.2859(7) 0.1051(6)
O7D O 0.0298(7) 1.1125(8) 0.2268(6)
H1D H 0.0226 1.0581 0.2001
O11D O 0.2247(6) 1.1284(8) -0.0017(9)
H2D H 0.1994 1.0725 -0.0057
Cd1D Cd 0.14621(9) 1.09582(10) 0.34013(9)
N1D N 0.2523(12) 1.1572(13) 0.2468(11)
H3D H 0.2250 1.1903 0.1998
H4D H 0.2898 1.2012 0.2767
N2D N 0.2160(17) 0.9455(15) 0.2801(17)
H5D H 0.2557 0.9179 0.3210
H6D H 0.1721 0.8990 0.2656
C1D C 0.3072(17) 1.069(2) 0.212(2)
H9D H 0.3324 1.0873 0.1529
H10D H 0.3597 1.0590 0.2533
C2D C 0.263(2) 0.977(2) 0.203(2)
H11D H 0.3087 0.9259 0.1869
H12D H 0.2187 0.9822 0.1528
O8A O -0.2231(6) 0.8290(7) -0.4762(6)
O10B O -0.0805(6) 0.7528(8) -0.3980(7)
Ge3B Ge -0.00506(9) 0.71490(11) 0.34961(9)
Cd1A Cd 0.35379(9) 0.90418(10) -0.15987(9)
Ge4G Ge 0.36093(9) 0.72416(11) 0.00351(9)
Cd1B Cd -0.14621(9) 0.59582(10) 0.15987(9)
Cd1D_2 Cd 0.14621(9) 1.09582(10) -0.65987(9)
O4D O -0.0216(7) 1.1919(7) -0.2602(6)
O8D O -0.2769(6) 1.1710(7) 0.0238(6)
O4F O -0.0216(7) 1.3081(7) 0.2398(6)
O8C O 0.2231(6) 1.3290(7) -0.0238(6)
Ge1B Ge 0.01387(9) 0.67787(10) -0.35651(9)
Ge2G Ge -0.34360(9) 0.66700(11) 0.01221(9)
Cd1F Cd 0.14621(9) 1.40418(10) -0.15987(9)
O8E O 0.2231(6) 1.1710(7) 0.4762(6)
O10F O 0.0805(6) 1.2472(8) 0.3980(7)
N3D_2 N 0.091(2) 0.9743(19) 0.428(2)
H7D_2 H 0.0544 0.9373 0.3908
H8D_2 H 0.1412 0.9344 0.4398
loop_
_geom_bond_atom_site_label_1
_geom_bond_atom_site_label_2
_geom_bond_site_symmetry_1
_geom_bond_site_symmetry_2
Cd1 O7 1_555 1_555
Ge1 O2 1_555 1_555
Ge2 O1 1_555 1_555
Ge3 O3 1_555 1_555
Ge4 O6 1_555 1_555
Ge5 O1 1_555 1_555
O2 Ge2 1_555 1_555
O3 Ge2 1_555 1_555
O4 Ge1 1_555 1_555
O5 Ge1 1_555 1_555
O6 Ge3 1_555 1_555
O7 Ge3 1_555 1_555
H1 O7 1_555 1_555
O8 Ge2 1_555 1_555
O9 Ge3 1_555 1_555
O10 Ge1 1_555 1_555
O11 Ge4 1_555 1_555
H2 O11 1_555 1_555
N1 Cd1 1_555 1_555
H3 N1 1_555 1_555
H4 N1 1_555 1_555
N2 Cd1 1_555 1_555
H5 N2 1_555 1_555
H6 N2 1_555 1_555
N3 Cd1 1_555 1_555
H7 N3 1_555 1_555
H8 N3 1_555 1_555
C1 N1 1_555 1_555
H9 C1 1_555 1_555
H10 C1 1_555 1_555
C2 N2 1_555 1_555
H11 C2 1_555 1_555
H12 C2 1_555 1_555
C3 N3 1_555 1_555
H13 C3 1_555 1_555
H14 C3 1_555 1_555
C3D C3 1_555 1_555
N3D C3D 1_555 1_555
H7D N3D 1_555 1_555
H8D N3D 1_555 1_555
H13D C3D 1_555 1_555
H14D C3D 1_555 1_555
O1D Ge5 1_555 1_555
O5D Ge5 1_555 1_555
O9D Ge5 1_555 1_555
Ge1D O5D 1_555 1_555
Ge2D O1D 1_555 1_555
Ge3D O9D 1_555 1_555
Ge4D O9D 1_555 1_555
O4B Ge3 1_555 1_555
O8G Ge4 1_555 1_555
O2D Ge1D 1_555 1_555
O10D Ge1D 1_555 1_555
O3D Ge2D 1_555 1_555
O6D Ge3D 1_555 1_555
O7D Ge3D 1_555 1_555
H1D O7D 1_555 1_555
O11D Ge4D 1_555 1_555
H2D O11D 1_555 1_555
Cd1D O7D 1_555 1_555
N1D Cd1D 1_555 1_555
H3D N1D 1_555 1_555
H4D N1D 1_555 1_555
N2D Cd1D 1_555 1_555
H5D N2D 1_555 1_555
H6D N2D 1_555 1_555
C1D N1D 1_555 1_555
H9D C1D 1_555 1_555
H10D C1D 1_555 1_555
C2D N2D 1_555 1_555
H11D C2D 1_555 1_555
H12D C2D 1_555 1_555
O8A Cd1 1_555 1_555
O10B Cd1 1_555 1_555
Ge3B O4 1_555 1_555
Cd1A O8 1_555 1_555
Ge4G O8 1_555 1_555
Cd1B O10 1_555 1_555
Cd1D_2 N3D 1_555 1_555
O4D Ge1D 1_555 1_555
O8D Ge2D 1_555 1_555
O4F Ge3D 1_555 1_555
O8C Ge4D 1_555 1_555
Ge1B O4B 1_555 1_555
Ge2G O8G 1_555 1_555
Cd1F O10D 1_555 1_555
O8E Cd1D 1_555 1_555
O10F Cd1D 1_555 1_555
N3D_2 Cd1D 1_555 1_555
H7D_2 N3D_2 1_555 1_555
H8D_2 N3D_2 1_555 1_555
Ge4 O9 1_555 1_555
Ge4 O10 1_555 1_555
Ge5 O5 1_555 1_555
Ge5 O9 1_555 1_555
C1 C2 1_555 1_555
Ge2D O2D 1_555 1_555
Ge3D O3D 1_555 1_555
Ge4D O6D 1_555 1_555
Ge4D O10D 1_555 1_555
O8G Cd1B 1_555 1_555
C1D C2D 1_555 1_555
O10B Ge1B 1_555 1_555
O8C Cd1F 1_555 1_555

#END
