
#######################################################################
#
#                 Cambridge Crystallographic Data Centre
#                                CCDC 
#
#######################################################################
#
# If this CIF has been generated from an entry in the Cambridge 
# Structural Database, then it will include bibliographic, chemical, 
# crystal, experimental, refinement or atomic coordinate data resulting 
# from the CCDC's data processing and validation procedures.
#
#######################################################################

data_QAHKUH
_symmetry_cell_setting           orthorhombic
_symmetry_space_group_name_H-M   'I b a 2'
_symmetry_Int_Tables_number      45
_space_group_name_Hall           'I 2 -2c'
loop_
_symmetry_equiv_pos_site_id
_symmetry_equiv_pos_as_xyz
1 x,y,z
2 -x,-y,z
3 1/2+x,1/2-y,z
4 1/2-x,1/2+y,z
5 1/2+x,1/2+y,1/2+z
6 1/2-x,1/2-y,1/2+z
7 x,-y,1/2+z
8 -x,y,1/2+z
_cell_length_a                   19.618(4)
_cell_length_b                   9.5760(19)
_cell_length_c                   17.517(4)
_cell_angle_alpha                90
_cell_angle_beta                 90
_cell_angle_gamma                90
_cell_volume                     3290.78
loop_
_atom_site_label
_atom_site_type_symbol
_atom_site_fract_x
_atom_site_fract_y
_atom_site_fract_z
C1 C 0.1330(3) 0.5206(5) 0.3412(4)
H1 H 0.1462 0.4440 0.3121
C2 C 0.1778(2) 0.5728(5) 0.3947(3)
H2 H 0.2203 0.5317 0.4013
C3 C 0.15908(19) 0.6871(4) 0.4386(2)
C4 C 0.0939(2) 0.7358(6) 0.4289(2)
H3 H 0.0779 0.8075 0.4598
C5 C 0.0521(2) 0.6800(5) 0.3739(2)
H4 H 0.0086 0.7171 0.3678
C6 C 0.20672(19) 0.7556(5) 0.4922(2)
H5 H 0.1884 0.8097 0.5312
C7 C 0.2738(2) 0.7447(5) 0.4881(3)
H6 H 0.2914 0.6879 0.4497
C8 C 0.32328(19) 0.8140(5) 0.5386(2)
C9 C 0.3067(2) 0.9158(5) 0.5904(2)
H7 H 0.2619 0.9466 0.5942
C10 C 0.3553(3) 0.9719(7) 0.6361(4)
H8 H 0.3422 1.0417 0.6700
C11 C 0.4382(2) 0.8381(6) 0.5834(2)
H9 H 0.4837 0.8118 0.5794
C12 C 0.3910(2) 0.7762(7) 0.5345(3)
H10 H 0.4051 0.7096 0.4993
C13 C -0.0825(2) 0.8023(4) 0.1993(3)
C14 C -0.1275(2) 0.9080(5) 0.2461(3)
Cd1 Cd 0.0000 0.5000 0.22812(5)
Cl1 Cl -0.20978(7) 0.8226(2) 0.25364(11)
Cl2 Cl -0.09814(9) 0.9342(2) 0.33949(9)
Cl3 Cl -0.14021(12) 1.06656(19) 0.19892(14)
N1 N 0.07119(15) 0.5758(4) 0.32947(19)
N2 N 0.42125(16) 0.9331(5) 0.63543(19)
O1 O -0.05695(13) 0.7102(3) 0.23965(17)
O2 O -0.08109(18) 0.8198(4) 0.13081(19)
C1E C 0.3670(3) 0.9794(5) -0.1588(4)
H1E H 0.3538 1.0560 -0.1879
C2E C 0.3222(2) 0.9272(5) -0.1053(3)
H2E H 0.2797 0.9683 -0.0987
C3E C 0.34092(19) 0.8129(4) -0.0614(2)
C4E C 0.4061(2) 0.7642(6) -0.0711(2)
H3E H 0.4221 0.6925 -0.0402
C5E C 0.4479(2) 0.8200(5) -0.1261(2)
H4E H 0.4914 0.7829 -0.1322
C6E C 0.29328(19) 0.7444(5) -0.0078(2)
H5E H 0.3116 0.6903 0.0312
C7E C 0.2262(2) 0.7553(5) -0.0119(3)
H6E H 0.2086 0.8121 -0.0503
C8E C 0.17672(19) 0.6860(5) 0.0386(2)
C9E C 0.1933(2) 0.5842(5) 0.0904(2)
H7E H 0.2381 0.5534 0.0942
C10E C 0.1447(3) 0.5281(7) 0.1361(4)
H8E H 0.1578 0.4583 0.1700
C11E C 0.0618(2) 0.6619(6) 0.0834(2)
H9E H 0.0163 0.6882 0.0794
C12E C 0.1090(2) 0.7238(7) 0.0345(3)
H10E H 0.0949 0.7904 -0.0007
C13A C 0.0825(2) 0.1977(4) 0.1993(3)
C14A C 0.1275(2) 0.0920(5) 0.2461(3)
Cd1D Cd 0.5000 1.0000 0.72812(5)
Cd1D_2 Cd 0.5000 1.0000 -0.27188(5)
Cl1A Cl 0.20978(7) 0.1774(2) 0.25364(11)
Cl2A Cl 0.09814(9) 0.0658(2) 0.33949(9)
Cl3A Cl 0.14021(12) -0.06656(19) 0.19892(14)
N1E N 0.42881(15) 0.9242(4) -0.17053(19)
N1A N -0.07119(15) 0.4242(4) 0.32947(19)
N2E N 0.07875(16) 0.5669(5) 0.13543(19)
N2D N -0.07875(16) 0.4331(5) 0.13543(19)
O1A O 0.05695(13) 0.2898(3) 0.23965(17)
O2A O 0.08109(18) 0.1802(4) 0.13081(19)
O3 O 0.0000 1.0000 0.5313(4)
H11 H 0.021(3) 0.941(6) 0.570(3)
H11A H -0.021(3) 1.059(6) 0.570(3)
loop_
_geom_bond_atom_site_label_1
_geom_bond_atom_site_label_2
_geom_bond_site_symmetry_1
_geom_bond_site_symmetry_2
C1 H1 1_555 1_555
C2 C1 1_555 1_555
H2 C2 1_555 1_555
C3 C2 1_555 1_555
C4 C3 1_555 1_555
H3 C4 1_555 1_555
C5 C4 1_555 1_555
H4 C5 1_555 1_555
C6 C3 1_555 1_555
H5 C6 1_555 1_555
C7 C6 1_555 1_555
H6 C7 1_555 1_555
C8 C7 1_555 1_555
C9 C8 1_555 1_555
H7 C9 1_555 1_555
C10 C9 1_555 1_555
H8 C10 1_555 1_555
C11 H9 1_555 1_555
C12 C8 1_555 1_555
H10 C12 1_555 1_555
C13 C14 1_555 1_555
C14 Cl1 1_555 1_555
Cd1 N1 1_555 1_555
Cl2 C14 1_555 1_555
Cl3 C14 1_555 1_555
N1 C1 1_555 1_555
N2 C10 1_555 1_555
O1 C13 1_555 1_555
O2 C13 1_555 1_555
O3 H11 1_555 1_555
C1E H1E 1_555 1_555
C2E C1E 1_555 1_555
H2E C2E 1_555 1_555
C3E C2E 1_555 1_555
C4E C3E 1_555 1_555
H3E C4E 1_555 1_555
C5E C4E 1_555 1_555
H4E C5E 1_555 1_555
C6E C3E 1_555 1_555
H5E C6E 1_555 1_555
C7E C6E 1_555 1_555
H6E C7E 1_555 1_555
C8E C7E 1_555 1_555
C9E C8E 1_555 1_555
H7E C9E 1_555 1_555
C10E C9E 1_555 1_555
H8E C10E 1_555 1_555
C11E H9E 1_555 1_555
C12E C8E 1_555 1_555
H10E C12E 1_555 1_555
C13A C14A 1_555 1_555
C14A Cl1A 1_555 1_555
Cd1D N2 1_555 1_555
Cd1D_2 N1E 1_555 1_555
Cl2A C14A 1_555 1_555
Cl3A C14A 1_555 1_555
N1E C1E 1_555 1_555
N1A Cd1 1_555 1_555
N2E Cd1 1_555 1_555
N2D Cd1 1_555 1_555
O1A Cd1 1_555 1_555
O2A C13A 1_555 1_555
H11A O3 1_555 1_555
C5 N1 1_555 1_555
C11 C12 1_555 1_555
C11 N2 1_555 1_555
Cd1 O1 1_555 1_555
C5E N1E 1_555 1_555
C10E N2E 1_555 1_555
C11E C12E 1_555 1_555
C11E N2E 1_555 1_555
C13A O1A 1_555 1_555

#END
