
#######################################################################
#
#                 Cambridge Crystallographic Data Centre
#                                CCDC 
#
#######################################################################
#
# If this CIF has been generated from an entry in the Cambridge 
# Structural Database, then it will include bibliographic, chemical, 
# crystal, experimental, refinement or atomic coordinate data resulting 
# from the CCDC's data processing and validation procedures.
#
#######################################################################

data_QAHLIW
_symmetry_cell_setting           orthorhombic
_symmetry_space_group_name_H-M   'P c c n'
_symmetry_Int_Tables_number      56
_space_group_name_Hall           '-P 2ab 2ac'
loop_
_symmetry_equiv_pos_site_id
_symmetry_equiv_pos_as_xyz
1 x,y,z
2 1/2-x,1/2-y,z
3 1/2+x,-y,1/2-z
4 -x,1/2+y,1/2-z
5 -x,-y,-z
6 1/2+x,1/2+y,-z
7 1/2-x,y,1/2+z
8 x,1/2-y,1/2+z
_cell_length_a                   21.6256(5)
_cell_length_b                   25.3751(7)
_cell_length_c                   7.1230(2)
_cell_angle_alpha                90
_cell_angle_beta                 90
_cell_angle_gamma                90
_cell_volume                     3908.76
loop_
_atom_site_label
_atom_site_type_symbol
_atom_site_fract_x
_atom_site_fract_y
_atom_site_fract_z
Cu1 Cu 0.753102(15) -0.037321(13) 0.25835(5)
S1 S 0.60090(3) 0.11100(3) -0.02890(11)
S2 S 0.53776(3) 0.21393(3) -0.09219(12)
N1 N 0.66488(10) -0.03048(9) 0.2427(3)
N2 N 0.64317(10) 0.01688(9) 0.1648(4)
N3 N 0.65432(11) 0.20772(9) -0.0010(4)
N4 N 0.84545(10) -0.04057(9) 0.2569(3)
O1 O 0.74669(8) -0.09381(8) 0.4338(3)
O2 O 0.74812(8) 0.02913(7) 0.1199(3)
C1 C 0.69993(13) -0.12735(11) 0.4391(4)
C2 C 0.64019(12) -0.11621(11) 0.3652(4)
C3 C 0.62496(13) -0.06622(11) 0.2816(4)
H1 H 0.5828 -0.0593 0.2535
C4 C 0.69083(12) 0.04394(11) 0.1080(4)
C5 C 0.68084(12) 0.09696(11) 0.0213(5)
H2 H 0.7048 0.0990 -0.0969
H3 H 0.6970 0.1243 0.1074
C6 C 0.60595(13) 0.17951(11) -0.0371(4)
C7 C 0.57858(13) 0.27236(11) -0.0661(4)
C8 C 0.63975(13) 0.26134(11) -0.0164(4)
C9 C 0.68083(14) 0.30265(12) 0.0145(5)
H4 H 0.7226 0.2958 0.0483
C10 C 0.65983(14) 0.35356(12) -0.0049(5)
H5 H 0.6874 0.3821 0.0165
C11 C 0.59887(14) 0.36401(12) -0.0552(4)
H6 H 0.5857 0.3995 -0.0680
C12 C 0.55732(13) 0.32394(12) -0.0868(4)
H7 H 0.5157 0.3311 -0.1214
C13 C 0.59384(13) -0.15471(12) 0.3780(5)
H8 H 0.5541 -0.1475 0.3272
C14 C 0.60447(15) -0.20236(13) 0.4619(5)
H9 H 0.5727 -0.2282 0.4666
C15 C 0.66156(15) -0.21258(13) 0.5395(5)
H10 H 0.6688 -0.2453 0.6002
C16 C 0.70815(14) -0.17588(12) 0.5300(5)
H11 H 0.7469 -0.1836 0.5865
C17 C 0.87917(12) -0.00032(11) 0.1905(4)
H12 H 0.8584 0.0293 0.1384
C18 C 0.94300(13) -0.00042(12) 0.1953(5)
H13 H 0.9654 0.0287 0.1463
C19 C 0.97394(14) -0.04243(12) 0.2708(4)
H14 H 1.0178 -0.0426 0.2788
C20 C 0.93942(13) -0.08465(12) 0.3352(5)
H15 H 0.9594 -0.1149 0.3850
C21 C 0.87554(13) -0.08248(12) 0.3266(4)
H16 H 0.8522 -0.1116 0.3715
Cu1F Cu 0.746898(15) -0.037321(13) 0.75835(5)
O1F O 0.75331(8) -0.09381(8) -0.0662(3)
loop_
_geom_bond_atom_site_label_1
_geom_bond_atom_site_label_2
_geom_bond_site_symmetry_1
_geom_bond_site_symmetry_2
Cu1 N1 1_555 1_555
S1 C5 1_555 1_555
S2 C6 1_555 1_555
N1 N2 1_555 1_555
N2 C4 1_555 1_555
N3 C6 1_555 1_555
N4 Cu1 1_555 1_555
O1 Cu1 1_555 1_555
O2 Cu1 1_555 1_555
C1 O1 1_555 1_555
C2 C1 1_555 1_555
C3 N1 1_555 1_555
H1 C3 1_555 1_555
C4 O2 1_555 1_555
C5 C4 1_555 1_555
H2 C5 1_555 1_555
H3 C5 1_555 1_555
C6 S1 1_555 1_555
C7 S2 1_555 1_555
C8 N3 1_555 1_555
C9 C8 1_555 1_555
H4 C9 1_555 1_555
C10 C9 1_555 1_555
H5 C10 1_555 1_555
C11 C10 1_555 1_555
H6 C11 1_555 1_555
C12 C7 1_555 1_555
H7 C12 1_555 1_555
C13 C2 1_555 1_555
H8 C13 1_555 1_555
C14 C13 1_555 1_555
H9 C14 1_555 1_555
C15 C14 1_555 1_555
H10 C15 1_555 1_555
C16 C1 1_555 1_555
H11 C16 1_555 1_555
C17 N4 1_555 1_555
H12 C17 1_555 1_555
C18 C17 1_555 1_555
H13 C18 1_555 1_555
C19 C18 1_555 1_555
H14 C19 1_555 1_555
C20 C19 1_555 1_555
H15 C20 1_555 1_555
C21 N4 1_555 1_555
H16 C21 1_555 1_555
Cu1F O1 1_555 1_555
O1F Cu1 1_555 1_555
C2 C3 1_555 1_555
C7 C8 1_555 1_555
C11 C12 1_555 1_555
C15 C16 1_555 1_555
C20 C21 1_555 1_555

#END
