
#######################################################################
#
#                 Cambridge Crystallographic Data Centre
#                                CCDC 
#
#######################################################################
#
# If this CIF has been generated from an entry in the Cambridge 
# Structural Database, then it will include bibliographic, chemical, 
# crystal, experimental, refinement or atomic coordinate data resulting 
# from the CCDC's data processing and validation procedures.
#
#######################################################################

data_QAHMOD
_symmetry_cell_setting           orthorhombic
_symmetry_space_group_name_H-M   'P b c a'
_symmetry_Int_Tables_number      61
_space_group_name_Hall           '-P 2ac 2ab'
loop_
_symmetry_equiv_pos_site_id
_symmetry_equiv_pos_as_xyz
1 x,y,z
2 1/2-x,-y,1/2+z
3 -x,1/2+y,1/2-z
4 1/2+x,1/2-y,-z
5 -x,-y,-z
6 1/2+x,y,1/2-z
7 x,1/2-y,1/2+z
8 1/2-x,1/2+y,z
_cell_length_a                   14.208(3)
_cell_length_b                   6.5159(13)
_cell_length_c                   21.722(4)
_cell_angle_alpha                90
_cell_angle_beta                 90
_cell_angle_gamma                90
_cell_volume                     2010.98
loop_
_atom_site_label
_atom_site_type_symbol
_atom_site_fract_x
_atom_site_fract_y
_atom_site_fract_z
Cu1 Cu 0.35209(4) 0.13735(8) 0.24112(3)
O1 O 0.4485(2) 0.1048(4) 0.30394(14)
O2 O 0.4281(2) 0.4401(5) 0.31949(14)
O3 O 0.6351(2) 0.2964(5) 0.27688(14)
O4 O 0.7598(2) 0.1491(5) 0.32317(15)
N1 N 0.6821(4) 0.1444(7) 0.5486(2)
O5 O 0.7673(3) 0.0995(8) 0.5446(2)
O6 O 0.6397(3) 0.1487(6) 0.59882(18)
C1 C 0.4654(3) 0.2731(7) 0.33201(19)
C2 C 0.5298(3) 0.2557(6) 0.3875(2)
C3 C 0.4867(4) 0.2677(6) 0.4447(2)
H1 H 0.4226 0.2964 0.4470
C4 C 0.5373(4) 0.2375(7) 0.4982(2)
H2 H 0.5086 0.2475 0.5366
C5 C 0.6314(4) 0.1923(7) 0.4930(2)
C6 C 0.6779(4) 0.1873(7) 0.4368(2)
H3 H 0.7423 0.1634 0.4350
C7 C 0.6262(3) 0.2185(6) 0.3836(2)
C8 C 0.6772(3) 0.2218(6) 0.3224(2)
O7 O 0.2588(3) 0.1002(5) 0.30857(16)
H4 H 0.2064 0.0748 0.2912
H5 H 0.2764 0.0051 0.3328
O8 O 0.4457(2) 0.2481(5) 0.18154(15)
H6 H 0.4672 0.3642 0.1921
H7 H 0.4877 0.1567 0.1770
Cu1B Cu 0.64791(4) 0.63735(8) 0.25888(3)
Cu1E Cu 0.85209(4) 0.13735(8) 0.25888(3)
O3B O 0.3649(2) -0.2036(5) 0.22312(14)
O4E O 0.2598(2) 0.1491(5) 0.17683(15)
loop_
_geom_bond_atom_site_label_1
_geom_bond_atom_site_label_2
_geom_bond_site_symmetry_1
_geom_bond_site_symmetry_2
Cu1 O1 1_555 1_555
O1 C1 1_555 1_555
O2 C1 1_555 1_555
O3 C8 1_555 1_555
O4 C8 1_555 1_555
N1 O5 1_555 1_555
O6 N1 1_555 1_555
C1 C2 1_555 1_555
C2 C3 1_555 1_555
C3 H1 1_555 1_555
C4 C3 1_555 1_555
H2 C4 1_555 1_555
C5 N1 1_555 1_555
C6 C5 1_555 1_555
H3 C6 1_555 1_555
C7 C2 1_555 1_555
C8 C7 1_555 1_555
O7 Cu1 1_555 1_555
H4 O7 1_555 1_555
H5 O7 1_555 1_555
O8 Cu1 1_555 1_555
H6 O8 1_555 1_555
H7 O8 1_555 1_555
Cu1B O3 1_555 1_555
Cu1E O4 1_555 1_555
O3B Cu1 1_555 1_555
O4E Cu1 1_555 1_555
C4 C5 1_555 1_555
C6 C7 1_555 1_555

#END
