
#######################################################################
#
#                 Cambridge Crystallographic Data Centre
#                                CCDC 
#
#######################################################################
#
# If this CIF has been generated from an entry in the Cambridge 
# Structural Database, then it will include bibliographic, chemical, 
# crystal, experimental, refinement or atomic coordinate data resulting 
# from the CCDC's data processing and validation procedures.
#
#######################################################################

data_QAHREY
_symmetry_cell_setting           monoclinic
_symmetry_space_group_name_H-M   'P 21/n'
_symmetry_Int_Tables_number      14
_space_group_name_Hall           '-P 2yn'
loop_
_symmetry_equiv_pos_site_id
_symmetry_equiv_pos_as_xyz
1 x,y,z
2 1/2-x,1/2+y,1/2-z
3 -x,-y,-z
4 1/2+x,1/2-y,1/2+z
_cell_length_a                   7.2107(14)
_cell_length_b                   7.3646(15)
_cell_length_c                   15.327(3)
_cell_angle_alpha                90
_cell_angle_beta                 99.71(3)
_cell_angle_gamma                90
_cell_volume                     802.264
loop_
_atom_site_label
_atom_site_type_symbol
_atom_site_fract_x
_atom_site_fract_y
_atom_site_fract_z
O1 O 1.07150(16) -0.21032(15) 0.76139(7)
N1 N 0.64281(16) -0.43937(16) 0.63949(8)
O2 O 0.50274(17) -0.18984(14) 0.73861(7)
O3 O 1.04300(17) 0.08088(16) 0.62325(8)
N2 N 0.73976(18) -0.33541(17) 0.47862(8)
O4 O 0.84859(17) -0.58194(16) 0.37131(7)
C1 C 0.80756(18) -0.64435(18) 0.44120(8)
C2 C 0.64213(18) -0.26562(19) 0.61506(9)
C3 C 0.5850(2) -0.12956(19) 0.67946(9)
O5 O 0.81234(17) -0.80725(14) 0.46392(7)
O6 O 0.6329(2) 0.03125(16) 0.66938(9)
C4 C 0.69682(19) -0.56117(19) 0.58409(9)
H1 H 0.7010 -0.6835 0.5994
C5 C 0.74665(17) -0.50880(18) 0.50434(8)
C6 C 0.6897(2) -0.21365(19) 0.53439(9)
H2 H 0.6864 -0.0913 0.5192
Li1 Li 0.9486(5) 0.0403(4) 0.7358(2)
Li2 Li 1.3268(4) -0.1742(4) 0.8370(2)
H3 H 1.092(4) -0.263(4) 0.716(2)
H4 H 1.109(4) -0.003(4) 0.6012(17)
H5 H 1.006(4) -0.294(4) 0.7874(18)
H6 H 0.972(5) 0.125(5) 0.579(3)
N1A N 0.85719(16) 0.06063(16) 0.86051(8)
O2A O 0.99726(17) 0.31016(14) 0.76139(7)
O2_2 O 1.50274(17) -0.18984(14) 0.73861(7)
O3A O 1.45700(17) -0.41912(16) 0.87675(8)
N2C N 1.23976(18) -0.16459(17) 0.97862(8)
O4C O 1.34859(17) 0.08194(16) 0.87131(7)
Li1A Li 0.5514(5) -0.4597(4) 0.7642(2)
Li2_2 Li 0.3268(4) -0.1742(4) 0.8370(2)
Li2A Li 1.1732(4) 0.3258(4) 0.6630(2)
Li2C Li 0.8268(4) -0.3258(4) 0.3370(2)
H4A H 1.391(4) -0.503(4) 0.8988(17)
H6A H 1.528(5) -0.375(5) 0.921(3)
loop_
_geom_bond_atom_site_label_1
_geom_bond_atom_site_label_2
_geom_bond_site_symmetry_1
_geom_bond_site_symmetry_2
O1 Li1 1_555 1_555
N1 C2 1_555 1_555
O2 C3 1_555 1_555
O3 Li1 1_555 1_555
N2 C5 1_555 1_555
O4 C1 1_555 1_555
C1 O5 1_555 1_555
C2 C3 1_555 1_555
C3 O6 1_555 1_555
O6 Li1 1_555 1_555
C4 N1 1_555 1_555
H1 C4 1_555 1_555
C5 C1 1_555 1_555
C6 N2 1_555 1_555
H2 C6 1_555 1_555
Li1 N1A 1_555 1_555
Li2 O1 1_555 1_555
H3 O1 1_555 1_555
H4 O3 1_555 1_555
H5 O1 1_555 1_555
H6 O3 1_555 1_555
O2A Li1 1_555 1_555
O2_2 Li2 1_555 1_555
O3A Li2 1_555 1_555
N2C Li2 1_555 1_555
O4C Li2 1_555 1_555
Li1A N1 1_555 1_555
Li2_2 O2 1_555 1_555
Li2A O3 1_555 1_555
Li2C N2 1_555 1_555
H4A O3A 1_555 1_555
H6A O3A 1_555 1_555
O2 Li1A 1_555 1_555
O4 Li2C 1_555 1_555
C2 C6 1_555 1_555
C4 C5 1_555 1_555
O2A Li2A 1_555 1_555

#END
