
#######################################################################
#
#                 Cambridge Crystallographic Data Centre
#                                CCDC 
#
#######################################################################
#
# If this CIF has been generated from an entry in the Cambridge 
# Structural Database, then it will include bibliographic, chemical, 
# crystal, experimental, refinement or atomic coordinate data resulting 
# from the CCDC's data processing and validation procedures.
#
#######################################################################

data_QAHRAU
_symmetry_cell_setting           orthorhombic
_symmetry_space_group_name_H-M   'P n a 21'
_symmetry_Int_Tables_number      33
_space_group_name_Hall           'P 2c -2n'
loop_
_symmetry_equiv_pos_site_id
_symmetry_equiv_pos_as_xyz
1 x,y,z
2 -x,-y,1/2+z
3 1/2-x,1/2+y,1/2+z
4 1/2+x,1/2-y,z
_cell_length_a                   11.8271(5)
_cell_length_b                   13.2122(5)
_cell_length_c                   10.2560(4)
_cell_angle_alpha                90
_cell_angle_beta                 90
_cell_angle_gamma                90
_cell_volume                     1602.62
loop_
_atom_site_label
_atom_site_type_symbol
_atom_site_fract_x
_atom_site_fract_y
_atom_site_fract_z
Ag1 Ag 0.128363(13) 0.013803(11) 0.15278(4)
C1 C 0.3975(2) 0.04853(19) 0.1327(3)
H1 H 0.3756 0.0961 0.0708
C2 C 0.51160(18) 0.03798(16) 0.1607(3)
H2 H 0.5645 0.0788 0.1190
C3 C 0.5467(2) -0.03375(17) 0.2511(2)
C4 C 0.4633(2) -0.09081(18) 0.3108(3)
H3 H 0.4826 -0.1395 0.3724
C5 C 0.3513(2) -0.0753(2) 0.2786(3)
H4 H 0.2968 -0.1145 0.3200
C6 C 0.6705(2) -0.04864(19) 0.2834(2)
C7 C 0.1034(2) -0.1856(2) -0.0106(3)
H5 H 0.1690 -0.1589 -0.0556
H6 H 0.1299 -0.2228 0.0651
C8 C -0.0697(2) -0.14419(19) 0.0997(2)
H7 H -0.0454 -0.1812 0.1764
H8 H -0.1189 -0.0898 0.1281
C9 C -0.0568(2) -0.29341(18) -0.0278(3)
H9 H -0.0977 -0.3395 -0.0842
H10 H -0.0321 -0.3312 0.0482
C10 C 0.0045(2) -0.19809(17) -0.2111(2)
H11 H -0.0355 -0.2433 -0.2696
H12 H 0.0696 -0.1715 -0.2573
C11 C -0.0086(2) -0.04628(17) -0.0847(3)
H13 H -0.0572 0.0093 -0.0586
H14 H 0.0560 -0.0179 -0.1301
C12 C -0.1700(2) -0.15591(19) -0.1010(3)
H15 H -0.2195 -0.1012 -0.0741
H16 H -0.2126 -0.2005 -0.1579
N1 N 0.31739(18) -0.00721(15) 0.1914(2)
N2 N 0.03133(16) -0.10028(15) 0.0333(2)
N3 N 0.04299(17) -0.25501(15) -0.0976(2)
N4 N -0.13283(16) -0.21224(17) 0.0138(2)
N5 N -0.07120(15) -0.11312(15) -0.1745(2)
O1 O 0.69699(14) -0.13139(13) 0.33372(19)
O2 O 0.73760(15) 0.02175(13) 0.2588(2)
O3 O 0.11516(14) 0.16451(15) -0.0205(2)
H17 H 0.145(2) 0.2117(19) 0.024(3)
H18 H 0.161(2) 0.147(2) -0.080(2)
Ag1A Ag -0.128363(13) -0.013803(11) -0.34722(4)
N5A N 0.07120(15) 0.11312(15) 0.3255(2)
O4 O 0.73929(16) 0.19124(15) 0.1080(2)
H19 H 0.736(2) 0.1415(17) 0.159(2)
H20 H 0.777(3) 0.176(2) 0.042(2)
O5 O 0.60916(15) -0.31522(14) 0.4000(3)
H21 H 0.5402(12) -0.313(2) 0.423(3)
H22 H 0.629(2) -0.2569(14) 0.373(4)
loop_
_geom_bond_atom_site_label_1
_geom_bond_atom_site_label_2
_geom_bond_site_symmetry_1
_geom_bond_site_symmetry_2
Ag1 N1 1_555 1_555
C1 H1 1_555 1_555
C2 C1 1_555 1_555
H2 C2 1_555 1_555
C3 C2 1_555 1_555
C4 C3 1_555 1_555
H3 C4 1_555 1_555
C5 C4 1_555 1_555
H4 C5 1_555 1_555
C6 C3 1_555 1_555
C7 H5 1_555 1_555
H6 C7 1_555 1_555
C8 H7 1_555 1_555
H8 C8 1_555 1_555
C9 H9 1_555 1_555
H10 C9 1_555 1_555
C10 H11 1_555 1_555
H12 C10 1_555 1_555
C11 H13 1_555 1_555
H14 C11 1_555 1_555
C12 H15 1_555 1_555
H16 C12 1_555 1_555
N1 C1 1_555 1_555
N2 Ag1 1_555 1_555
N3 C7 1_555 1_555
N4 C8 1_555 1_555
N5 C10 1_555 1_555
O1 C6 1_555 1_555
O2 C6 1_555 1_555
O3 Ag1 1_555 1_555
H17 O3 1_555 1_555
H18 O3 1_555 1_555
O4 H19 1_555 1_555
H20 O4 1_555 1_555
O5 H21 1_555 1_555
H22 O5 1_555 1_555
Ag1A N5 1_555 1_555
N5A Ag1 1_555 1_555
C5 N1 1_555 1_555
C7 N2 1_555 1_555
C8 N2 1_555 1_555
C9 N3 1_555 1_555
C9 N4 1_555 1_555
C10 N3 1_555 1_555
C11 N2 1_555 1_555
C11 N5 1_555 1_555
C12 N4 1_555 1_555
C12 N5 1_555 1_555

#END
