
#######################################################################
#
#                 Cambridge Crystallographic Data Centre
#                                CCDC 
#
#######################################################################
#
# If this CIF has been generated from an entry in the Cambridge 
# Structural Database, then it will include bibliographic, chemical, 
# crystal, experimental, refinement or atomic coordinate data resulting 
# from the CCDC's data processing and validation procedures.
#
#######################################################################

data_QAHVUS
_symmetry_cell_setting           monoclinic
_symmetry_space_group_name_H-M   'P 21/c'
_symmetry_Int_Tables_number      14
_space_group_name_Hall           '-P 2ybc'
loop_
_symmetry_equiv_pos_site_id
_symmetry_equiv_pos_as_xyz
1 x,y,z
2 -x,1/2+y,1/2-z
3 -x,-y,-z
4 x,1/2-y,1/2+z
_cell_length_a                   10.064(2)
_cell_length_b                   21.147(4)
_cell_length_c                   10.237(2)
_cell_angle_alpha                90
_cell_angle_beta                 91.76(3)
_cell_angle_gamma                90
_cell_volume                     2177.65
loop_
_atom_site_label
_atom_site_type_symbol
_atom_site_fract_x
_atom_site_fract_y
_atom_site_fract_z
Zn1 Zn -0.06578(2) 0.089944(12) -0.04961(2)
Zn2 Zn 0.01752(2) 0.195760(12) -0.71795(2)
C1 C 0.4953(2) 0.19260(10) -0.6431(2)
H1 H 0.4831 0.1917 -0.7335
C2 C 0.3852(2) 0.19388(11) -0.5644(2)
C3 C 0.4046(2) 0.19304(12) -0.4291(2)
H2 H 0.3318 0.1943 -0.3754
C4 C 0.5317(2) 0.19028(12) -0.3743(2)
H3 H 0.5437 0.1876 -0.2841
C5 C 0.6411(2) 0.19145(11) -0.4529(2)
H4 H 0.7265 0.1914 -0.4154
C6 C 0.6230(2) 0.19265(10) -0.5885(2)
C7 C 0.7386(2) 0.19342(10) -0.6776(2)
C8 C 0.2511(2) 0.19557(11) -0.6286(2)
C9 C -0.1669(2) 0.04379(11) -0.4276(2)
C10 C -0.2664(3) -0.00116(13) -0.4362(2)
H5 H -0.3042 -0.0163 -0.3606
C11 C -0.3100(3) -0.02387(15) -0.5570(2)
H6 H -0.3782 -0.0535 -0.5626
C12 C -0.2519(3) -0.00223(13) -0.6693(2)
H7 H -0.2816 -0.0174 -0.7504
C13 C -0.1500(2) 0.04180(10) -0.6622(2)
C14 C -0.1084(2) 0.06503(10) -0.5405(2)
H8 H -0.0408 0.0950 -0.5348
C15 C -0.1227(2) 0.07043(11) -0.2976(2)
C16 C -0.0893(2) 0.06554(10) -0.78467(19)
C17 C 0.2212(2) 0.08641(11) 0.0369(2)
H9 H 0.2034 0.0636 0.1120
C18 C 0.2031(3) 0.13749(13) -0.1382(2)
H10 H 0.1651 0.1576 -0.2110
C19 C 0.4709(3) 0.08703(13) 0.0581(3)
H11 H 0.4611 0.0771 0.1498
H12 H 0.5284 0.1237 0.0527
C20 C 0.5359(2) 0.03118(12) -0.0093(3)
H13 H 0.5394 0.0400 -0.1021
H14 H 0.6266 0.0270 0.0244
N1 N 0.13007(18) 0.10764(9) -0.04798(17)
N2 N 0.34087(19) 0.10224(9) -0.00052(18)
N3 N 0.3313(2) 0.13562(11) -0.1145(2)
O1 O 0.84932(14) 0.21495(8) -0.62988(15)
O2 O 0.72171(16) 0.17320(9) -0.79031(15)
O3 O 0.23743(16) 0.18834(9) -0.74854(16)
O4 O 0.14763(15) 0.20414(9) -0.56066(16)
O5 O -0.00281(15) 0.10856(7) -0.77886(14)
O6 O -0.12568(16) 0.04097(7) -0.89273(13)
O7 O -0.14620(17) 0.03846(8) -0.19512(13)
O8 O -0.06492(18) 0.12246(8) -0.29076(14)
O9 O 0.00911(17) 0.26150(8) -0.85507(15)
H15 H 0.0695 0.2706 -0.9082
H16 H -0.0157 0.2994 -0.8433
O10 O -0.18152(16) 0.16534(8) -0.02552(14)
H17 H -0.2116 0.1731 0.0495
H18 H -0.1626 0.2010 -0.0583
Zn1B Zn 1.06578(2) -0.089944(12) 0.04961(2)
Zn1_2 Zn -0.06578(2) 0.089944(12) -1.04961(2)
Zn1_3 Zn -0.06578(2) 0.089944(12) 0.95039(2)
Zn2_2 Zn 0.01752(2) 0.195760(12) 0.28205(2)
Zn2_3 Zn 1.01752(2) 0.195760(12) -0.71795(2)
Zn2_4 Zn -0.98248(2) 0.195760(12) -0.71795(2)
C1_2 C -0.5047(2) 0.19260(10) -0.6431(2)
H1_2 H -0.5169 0.1917 -0.7335
C2_2 C -0.6148(2) 0.19388(11) -0.5644(2)
C3_2 C -0.5954(2) 0.19304(12) -0.4291(2)
H2_2 H -0.6682 0.1943 -0.3754
C4_2 C -0.4683(2) 0.19028(12) -0.3743(2)
H3_2 H -0.4563 0.1876 -0.2841
C5_2 C -0.3589(2) 0.19145(11) -0.4529(2)
H4_2 H -0.2735 0.1914 -0.4154
C6_2 C -0.3770(2) 0.19265(10) -0.5885(2)
C7_2 C -0.2614(2) 0.19342(10) -0.6776(2)
C8_2 C -0.7489(2) 0.19557(11) -0.6286(2)
C9_2 C -0.1669(2) 0.04379(11) 0.5724(2)
C10_2 C -0.2664(3) -0.00116(13) 0.5638(2)
H5_2 H -0.3042 -0.0163 0.6394
C11_2 C -0.3100(3) -0.02387(15) 0.4430(2)
H6_2 H -0.3782 -0.0535 0.4374
C12_2 C -0.2519(3) -0.00223(13) 0.3307(2)
H7_2 H -0.2816 -0.0174 0.2496
C13_2 C -0.1500(2) 0.04180(10) 0.3378(2)
C14_2 C -0.1084(2) 0.06503(10) 0.4595(2)
H8_2 H -0.0408 0.0950 0.4652
C15_2 C -0.1227(2) 0.07043(11) 0.7024(2)
C16_2 C -0.0893(2) 0.06554(10) 0.21533(19)
C17B C 0.7788(2) -0.08641(11) -0.0369(2)
H9B H 0.7966 -0.0636 -0.1120
C18B C 0.7969(3) -0.13749(13) 0.1382(2)
H10B H 0.8349 -0.1576 0.2110
C19B C 0.5291(3) -0.08703(13) -0.0581(3)
H11B H 0.5389 -0.0771 -0.1498
H12B H 0.4716 -0.1237 -0.0527
C20B C 0.4641(2) -0.03118(12) 0.0093(3)
H13B H 0.4606 -0.0400 0.1021
H14B H 0.3734 -0.0270 -0.0244
N1B N 0.86993(18) -0.10764(9) 0.04798(17)
N2B N 0.65913(19) -0.10224(9) 0.00052(18)
N3B N 0.6687(2) -0.13562(11) 0.1145(2)
O1_2 O -0.15068(14) 0.21495(8) -0.62988(15)
O1_3 O -0.15068(14) 0.21495(8) 0.37012(15)
O2_2 O -0.27829(16) 0.17320(9) -0.79031(15)
O3_2 O -0.76257(16) 0.18834(9) -0.74854(16)
O3_3 O 0.23743(16) 0.18834(9) 0.25146(16)
O4_2 O -0.85237(15) 0.20414(9) -0.56066(16)
O4_3 O 0.14763(15) 0.20414(9) 0.43934(16)
O5_2 O -0.00281(15) 0.10856(7) 0.22114(14)
O6_2 O -0.12568(16) 0.04097(7) 0.10727(13)
O6B O 1.12568(16) -0.04097(7) -0.10727(13)
O7_2 O -0.14620(17) 0.03846(8) 0.80488(13)
O7B O 1.14620(17) -0.03846(8) 0.19512(13)
O8_2 O -0.06492(18) 0.12246(8) 0.70924(14)
O9_2 O 0.00911(17) 0.26150(8) 0.14493(15)
H15_2 H 0.0695 0.2706 0.0918
H16_2 H -0.0157 0.2994 0.1567
O10B O 1.18152(16) -0.16534(8) 0.02552(14)
H17B H 1.2116 -0.1731 -0.0495
H18B H 1.1626 -0.2010 0.0583
loop_
_geom_bond_atom_site_label_1
_geom_bond_atom_site_label_2
_geom_bond_site_symmetry_1
_geom_bond_site_symmetry_2
Zn1 N1 1_555 1_555
Zn2 O3 1_555 1_555
C1 H1 1_555 1_555
C2 C1 1_555 1_555
C3 C2 1_555 1_555
H2 C3 1_555 1_555
C4 C3 1_555 1_555
H3 C4 1_555 1_555
C5 C4 1_555 1_555
H4 C5 1_555 1_555
C6 C1 1_555 1_555
C7 C6 1_555 1_555
C8 C2 1_555 1_555
C9 C10 1_555 1_555
C10 H5 1_555 1_555
C11 C10 1_555 1_555
H6 C11 1_555 1_555
C12 C11 1_555 1_555
H7 C12 1_555 1_555
C13 C12 1_555 1_555
C14 C9 1_555 1_555
H8 C14 1_555 1_555
C15 C9 1_555 1_555
C16 C13 1_555 1_555
C17 H9 1_555 1_555
C18 H10 1_555 1_555
C19 H11 1_555 1_555
H12 C19 1_555 1_555
C20 C19 1_555 1_555
H13 C20 1_555 1_555
H14 C20 1_555 1_555
N1 C17 1_555 1_555
N2 C17 1_555 1_555
N3 C18 1_555 1_555
O1 C7 1_555 1_555
O2 C7 1_555 1_555
O3 C8 1_555 1_555
O4 Zn2 1_555 1_555
O5 Zn2 1_555 1_555
O6 C16 1_555 1_555
O7 Zn1 1_555 1_555
O8 C15 1_555 1_555
O9 Zn2 1_555 1_555
H15 O9 1_555 1_555
H16 O9 1_555 1_555
O10 Zn1 1_555 1_555
H17 O10 1_555 1_555
H18 O10 1_555 1_555
Zn1B N1B 1_555 1_555
Zn1_2 O6 1_555 1_555
Zn1_3 O7_2 1_555 1_555
Zn2_2 O1_3 1_555 1_555
Zn2_3 O1 1_555 1_555
Zn2_4 O3_2 1_555 1_555
C1_2 H1_2 1_555 1_555
C2_2 C1_2 1_555 1_555
C3_2 C2_2 1_555 1_555
H2_2 C3_2 1_555 1_555
C4_2 C3_2 1_555 1_555
H3_2 C4_2 1_555 1_555
C5_2 C4_2 1_555 1_555
H4_2 C5_2 1_555 1_555
C6_2 C1_2 1_555 1_555
C7_2 C6_2 1_555 1_555
C8_2 C2_2 1_555 1_555
C9_2 C10_2 1_555 1_555
C10_2 H5_2 1_555 1_555
C11_2 C10_2 1_555 1_555
H6_2 C11_2 1_555 1_555
C12_2 C11_2 1_555 1_555
H7_2 C12_2 1_555 1_555
C13_2 C12_2 1_555 1_555
C14_2 C9_2 1_555 1_555
H8_2 C14_2 1_555 1_555
C15_2 C9_2 1_555 1_555
C16_2 C13_2 1_555 1_555
C17B H9B 1_555 1_555
C18B H10B 1_555 1_555
C19B H11B 1_555 1_555
H12B C19B 1_555 1_555
C20B C20 1_555 1_555
H13B C20B 1_555 1_555
H14B C20B 1_555 1_555
N1B C17B 1_555 1_555
N2B C17B 1_555 1_555
N3B C18B 1_555 1_555
O1_2 Zn2 1_555 1_555
O2_2 C7_2 1_555 1_555
O3_2 C8_2 1_555 1_555
O3_3 Zn2_2 1_555 1_555
O4_2 Zn2_4 1_555 1_555
O4_3 Zn2_2 1_555 1_555
O5_2 Zn2_2 1_555 1_555
O6_2 Zn1 1_555 1_555
O6B Zn1B 1_555 1_555
O7_2 C15_2 1_555 1_555
O7B Zn1B 1_555 1_555
O8_2 C15_2 1_555 1_555
O9_2 Zn2_2 1_555 1_555
H15_2 O9_2 1_555 1_555
H16_2 O9_2 1_555 1_555
O10B Zn1B 1_555 1_555
H17B O10B 1_555 1_555
H18B O10B 1_555 1_555
C5 C6 1_555 1_555
C8 O4 1_555 1_555
C13 C14 1_555 1_555
C15 O7 1_555 1_555
C16 O5 1_555 1_555
C18 N1 1_555 1_555
C19 N2 1_555 1_555
N2 N3 1_555 1_555
C5_2 C6_2 1_555 1_555
C7_2 O1_2 1_555 1_555
C8_2 O4_2 1_555 1_555
C13_2 C14_2 1_555 1_555
C16_2 O5_2 1_555 1_555
C16_2 O6_2 1_555 1_555
C18B N1B 1_555 1_555
C19B C20B 1_555 1_555
C19B N2B 1_555 1_555
N2B N3B 1_555 1_555

#END
