
#######################################################################
#
#                 Cambridge Crystallographic Data Centre
#                                CCDC 
#
#######################################################################
#
# If this CIF has been generated from an entry in the Cambridge 
# Structural Database, then it will include bibliographic, chemical, 
# crystal, experimental, refinement or atomic coordinate data resulting 
# from the CCDC's data processing and validation procedures.
#
#######################################################################

data_QAHVIG
_symmetry_cell_setting           monoclinic
_symmetry_space_group_name_H-M   'C 2/c'
_symmetry_Int_Tables_number      15
_space_group_name_Hall           '-C 2yn'
loop_
_symmetry_equiv_pos_site_id
_symmetry_equiv_pos_as_xyz
1 x,y,z
2 -x,y,1/2-z
3 1/2+x,1/2+y,z
4 1/2-x,1/2+y,1/2-z
5 -x,-y,-z
6 x,-y,1/2+z
7 1/2-x,1/2-y,-z
8 1/2+x,1/2-y,1/2+z
_cell_length_a                   28.525(4)
_cell_length_b                   9.3267(13)
_cell_length_c                   20.580(3)
_cell_angle_alpha                90
_cell_angle_beta                 114.752(2)
_cell_angle_gamma                90
_cell_volume                     4972.17
loop_
_atom_site_label
_atom_site_type_symbol
_atom_site_fract_x
_atom_site_fract_y
_atom_site_fract_z
Cd1 Cd 1.0000 0.22586(5) 0.7500
O1 O 0.58028(11) 0.1791(3) 0.27314(16)
O2 O 0.51785(11) 0.0960(3) 0.17570(16)
O3 O 0.95903(10) 0.0827(3) 0.65658(14)
O4 O 1.03902(12) 0.0114(4) 0.68232(16)
C1 C 0.56411(17) 0.0993(5) 0.2194(2)
C2 C 0.60258(15) 0.0045(4) 0.2074(2)
C3 C 0.65225(14) -0.0095(4) 0.2608(2)
H1 H 0.6610 0.0381 0.3040
C4 C 0.68932(14) -0.0936(4) 0.2510(2)
C5 C 0.67464(16) -0.1611(5) 0.1854(2)
H2 H 0.6987 -0.2164 0.1770
C6 C 0.62548(16) -0.1485(5) 0.1323(2)
H3 H 0.6167 -0.1951 0.0888
C7 C 0.58924(16) -0.0672(5) 0.1433(2)
H4 H 0.5558 -0.0605 0.1077
C8 C 0.74239(14) -0.1084(4) 0.3083(2)
C9 C 0.76565(15) 0.0007(5) 0.3571(2)
H5 H 0.7467 0.0827 0.3560
C10 C 0.81649(16) -0.0094(5) 0.4076(2)
H6 H 0.8308 0.0657 0.4395
C11 C 0.84628(15) -0.1288(5) 0.4114(2)
C12 C 0.82222(15) -0.2418(5) 0.3648(2)
H7 H 0.8404 -0.3260 0.3677
C13 C 0.77171(15) -0.2300(5) 0.3145(2)
H8 H 0.7569 -0.3066 0.2837
C14 C 0.90158(15) -0.1368(4) 0.4619(2)
C15 C 0.92021(15) -0.0652(4) 0.5273(2)
H9 H 0.8975 -0.0131 0.5400
C16 C 0.97212(15) -0.0706(4) 0.5738(2)
C17 C 1.00572(16) -0.1481(5) 0.5552(2)
H10 H 1.0406 -0.1523 0.5861
C18 C 0.98748(16) -0.2195(5) 0.4906(2)
H11 H 1.0102 -0.2724 0.4782
C19 C 0.93633(16) -0.2132(5) 0.4445(2)
H12 H 0.9248 -0.2609 0.4009
C20 C 0.99169(17) 0.0116(5) 0.6434(2)
Cd1F Cd 0.5000 0.27414(5) 0.2500
Cd1F_2 Cd 1.5000 0.27414(5) 1.2500
O1F O 0.91972(11) 0.3209(3) 0.72686(16)
O1G O 1.08028(11) 0.3209(3) 0.77314(16)
O1A O 1.41972(11) 0.1791(3) 1.22686(16)
O2F O 0.98215(11) 0.4040(3) 0.82430(16)
O2G O 1.01785(11) 0.4040(3) 0.67570(16)
O2A O 1.48215(11) 0.0960(3) 1.32430(16)
O3A O 1.04097(10) 0.0827(3) 0.84342(14)
O4A O 0.96098(12) 0.0114(4) 0.81768(16)
C1A C 1.43589(17) 0.0993(5) 1.2806(2)
C2A C 1.39742(15) 0.0045(4) 1.2926(2)
C3A C 1.34775(14) -0.0095(4) 1.2392(2)
H1A H 1.3390 0.0381 1.1960
C4A C 1.31068(14) -0.0936(4) 1.2490(2)
C5A C 1.32536(16) -0.1611(5) 1.3146(2)
H2A H 1.3013 -0.2164 1.3230
C6A C 1.37452(16) -0.1485(5) 1.3677(2)
H3A H 1.3833 -0.1951 1.4112
C7A C 1.41076(16) -0.0672(5) 1.3567(2)
H4A H 1.4442 -0.0605 1.3923
C8A C 1.25761(14) -0.1084(4) 1.1917(2)
C9A C 1.23435(15) 0.0007(5) 1.1429(2)
H5A H 1.2533 0.0827 1.1440
C10A C 1.18351(16) -0.0094(5) 1.0924(2)
H6A H 1.1692 0.0657 1.0605
C11A C 1.15372(15) -0.1288(5) 1.0886(2)
C12A C 1.17778(15) -0.2418(5) 1.1352(2)
H7A H 1.1596 -0.3260 1.1323
C13A C 1.22829(15) -0.2300(5) 1.1855(2)
H8A H 1.2431 -0.3066 1.2163
C14A C 1.09842(15) -0.1368(4) 1.0381(2)
C15A C 1.07979(15) -0.0652(4) 0.9727(2)
H9A H 1.1025 -0.0131 0.9600
C16A C 1.02788(15) -0.0706(4) 0.9262(2)
C17A C 0.99428(16) -0.1481(5) 0.9448(2)
H10A H 0.9594 -0.1523 0.9139
C18A C 1.01252(16) -0.2195(5) 1.0094(2)
H11A H 0.9898 -0.2724 1.0218
C19A C 1.06367(16) -0.2132(5) 1.0555(2)
H12A H 1.0752 -0.2609 1.0991
C20A C 1.00831(17) 0.0116(5) 0.8566(2)
N1 N 0.1478(2) 0.4189(6) 0.9596(2)
O5 O 0.16600(16) 0.1981(4) 0.9324(2)
C21 C 0.1350(2) 0.2929(7) 0.9302(3)
H13 H 0.1000 0.2727 0.9057
C22 C 0.2015(3) 0.4610(9) 0.9988(4)
H14 H 0.2235 0.3826 0.9996
H15 H 0.2077 0.4863 1.0469
H16 H 0.2088 0.5420 0.9757
C23 C 0.1082(3) 0.5226(8) 0.9496(3)
H17 H 0.1143 0.6068 0.9275
H18 H 0.1088 0.5475 0.9952
H19 H 0.0752 0.4828 0.9196
N2 N 0.12647(13) 1.0202(4) 0.80646(18)
H20 H 0.1302 1.0770 0.8436
H21 H 0.0943 1.0331 0.7724
C24 C 0.16355(19) 1.0657(7) 0.7781(3)
H22 H 0.1980 1.0579 0.8149
H23 H 0.1568 1.1634 0.7623
H24 H 0.1601 1.0055 0.7385
C25 C 0.1320(2) 0.8719(6) 0.8299(3)
H25 H 0.1310 0.8107 0.7919
H26 H 0.1042 0.8471 0.8426
H27 H 0.1643 0.8599 0.8708
loop_
_geom_bond_atom_site_label_1
_geom_bond_atom_site_label_2
_geom_bond_site_symmetry_1
_geom_bond_site_symmetry_2
Cd1 O3 1_555 1_555
O1 C1 1_555 1_555
O2 C1 1_555 1_555
O3 C20 1_555 1_555
O4 C20 1_555 1_555
C1 C2 1_555 1_555
C2 C3 1_555 1_555
C3 H1 1_555 1_555
C4 C3 1_555 1_555
C5 C4 1_555 1_555
H2 C5 1_555 1_555
C6 C5 1_555 1_555
H3 C6 1_555 1_555
C7 C2 1_555 1_555
H4 C7 1_555 1_555
C8 C4 1_555 1_555
C9 C8 1_555 1_555
H5 C9 1_555 1_555
C10 C9 1_555 1_555
H6 C10 1_555 1_555
C11 C10 1_555 1_555
C12 C11 1_555 1_555
H7 C12 1_555 1_555
C13 C8 1_555 1_555
H8 C13 1_555 1_555
C14 C11 1_555 1_555
C15 C14 1_555 1_555
H9 C15 1_555 1_555
C16 C15 1_555 1_555
C17 C16 1_555 1_555
H10 C17 1_555 1_555
C18 C17 1_555 1_555
H11 C18 1_555 1_555
C19 C14 1_555 1_555
H12 C19 1_555 1_555
C20 C16 1_555 1_555
N1 C21 1_555 1_555
O5 C21 1_555 1_555
C21 H13 1_555 1_555
C22 N1 1_555 1_555
H14 C22 1_555 1_555
H15 C22 1_555 1_555
H16 C22 1_555 1_555
C23 N1 1_555 1_555
H17 C23 1_555 1_555
H18 C23 1_555 1_555
H19 C23 1_555 1_555
N2 H20 1_555 1_555
H21 N2 1_555 1_555
C24 N2 1_555 1_555
H22 C24 1_555 1_555
H23 C24 1_555 1_555
H24 C24 1_555 1_555
C25 N2 1_555 1_555
H25 C25 1_555 1_555
H26 C25 1_555 1_555
H27 C25 1_555 1_555
Cd1F O1 1_555 1_555
Cd1F_2 O1A 1_555 1_555
O1F Cd1 1_555 1_555
O1G Cd1 1_555 1_555
O1A C1A 1_555 1_555
O2F Cd1 1_555 1_555
O2G Cd1 1_555 1_555
O2A Cd1F_2 1_555 1_555
O3A Cd1 1_555 1_555
O4A C20A 1_555 1_555
C1A O2A 1_555 1_555
C2A C1A 1_555 1_555
C3A C2A 1_555 1_555
H1A C3A 1_555 1_555
C4A C3A 1_555 1_555
C5A C4A 1_555 1_555
H2A C5A 1_555 1_555
C6A C5A 1_555 1_555
H3A C6A 1_555 1_555
C7A C2A 1_555 1_555
H4A C7A 1_555 1_555
C8A C4A 1_555 1_555
C9A C8A 1_555 1_555
H5A C9A 1_555 1_555
C10A C9A 1_555 1_555
H6A C10A 1_555 1_555
C11A C10A 1_555 1_555
C12A C11A 1_555 1_555
H7A C12A 1_555 1_555
C13A C8A 1_555 1_555
H8A C13A 1_555 1_555
C14A C11A 1_555 1_555
C15A C14A 1_555 1_555
H9A C15A 1_555 1_555
C16A C15A 1_555 1_555
C17A C16A 1_555 1_555
H10A C17A 1_555 1_555
C18A C17A 1_555 1_555
H11A C18A 1_555 1_555
C19A C14A 1_555 1_555
H12A C19A 1_555 1_555
C20A O3A 1_555 1_555
O2 Cd1F 1_555 1_555
C6 C7 1_555 1_555
C12 C13 1_555 1_555
C18 C19 1_555 1_555
C6A C7A 1_555 1_555
C12A C13A 1_555 1_555
C16A C20A 1_555 1_555
C18A C19A 1_555 1_555

#END
