
#######################################################################
#
#                 Cambridge Crystallographic Data Centre
#                                CCDC 
#
#######################################################################
#
# If this CIF has been generated from an entry in the Cambridge 
# Structural Database, then it will include bibliographic, chemical, 
# crystal, experimental, refinement or atomic coordinate data resulting 
# from the CCDC's data processing and validation procedures.
#
#######################################################################

data_QAHWED
_symmetry_cell_setting           monoclinic
_symmetry_space_group_name_H-M   'C c'
_symmetry_Int_Tables_number      9
_space_group_name_Hall           'C -2yc'
loop_
_symmetry_equiv_pos_site_id
_symmetry_equiv_pos_as_xyz
1 x,y,z
2 x,-y,1/2+z
3 1/2+x,1/2+y,z
4 1/2+x,1/2-y,1/2+z
_cell_length_a                   23.211(2)
_cell_length_b                   12.4312(12)
_cell_length_c                   8.1329(8)
_cell_angle_alpha                90
_cell_angle_beta                 107.9020(10)
_cell_angle_gamma                90
_cell_volume                     2233.05
loop_
_atom_site_label
_atom_site_type_symbol
_atom_site_fract_x
_atom_site_fract_y
_atom_site_fract_z
C1 C -0.2190(2) -0.1030(3) -0.6879(6)
C2 C -0.2867(2) -0.1136(3) -0.7253(6)
C3 C -0.3252(2) -0.0808(4) -0.8878(7)
H1 H -0.3086 -0.0568 -0.9715
C4 C -0.3876(2) -0.0839(4) -0.9246(7)
H2 H -0.4131 -0.0602 -1.0305
C5 C -0.41052(19) -0.1233(4) -0.7988(6)
C6 C -0.3716(2) -0.1580(4) -0.6399(6)
C7 C -0.30935(19) -0.1513(4) -0.6005(6)
H3 H -0.2839 -0.1717 -0.4926
C8 C -0.4638(2) -0.1815(4) -0.6420(7)
H4 H -0.4971 -0.2007 -0.6080
C9 C -0.0151(2) 0.0888(3) 0.0739(6)
C10 C 0.0465(2) 0.1076(3) 0.0592(6)
C11 C 0.0547(2) 0.1516(4) -0.0886(6)
H5 H 0.0219 0.1689 -0.1839
C12 C 0.1136(2) 0.1687(4) -0.0885(6)
C13 C 0.16339(19) 0.1397(4) 0.0542(6)
C14 C 0.1553(2) 0.0948(4) 0.2007(7)
H6 H 0.1882 0.0749 0.2940
C15 C 0.0968(2) 0.0804(4) 0.2041(6)
H7 H 0.0902 0.0525 0.3027
C16 C 0.1963(2) 0.2119(5) -0.1408(8)
H8 H 0.2226 0.2391 -0.1967
C17 C -0.11188(19) -0.1921(3) -0.0499(6)
C18 C -0.1244(2) -0.3027(4) -0.1177(7)
C19 C -0.0910(2) -0.3881(4) -0.0287(7)
H9 H -0.0582 -0.3766 0.0697
C20 C -0.1072(5) -0.4911(4) -0.089(2)
C21 C -0.1607(2) -0.5091(3) -0.2307(7)
C22 C -0.1937(2) -0.4221(4) -0.3219(6)
H10 H -0.2278 -0.4332 -0.4166
C23 C -0.1744(2) -0.3205(4) -0.2679(6)
H11 H -0.1944 -0.2618 -0.3310
C24 C -0.1222(3) -0.6620(4) -0.1351(7)
H12 H -0.1166 -0.7360 -0.1240
Eu1 Eu -0.11503(4) 0.004140(14) -0.34742(9)
N1 N -0.46937(17) -0.1384(3) -0.7941(6)
H13 H -0.5024 -0.1229 -0.8736
N2 N -0.40740(17) -0.1958(4) -0.5406(6)
N3 N 0.13677(18) 0.2146(4) -0.2099(6)
H14 H 0.1166 0.2396 -0.3096
N4 N 0.21553(18) 0.1670(3) 0.0153(6)
N5 N -0.16864(19) -0.6180(3) -0.2517(6)
H15 H -0.1979 -0.6508 -0.3258
N6 N -0.08359(18) -0.5911(3) -0.0333(6)
O1 O -0.18728(13) -0.1030(3) -0.5320(4)
O2 O -0.19794(14) -0.0948(3) -0.8130(4)
O3 O -0.06030(13) 0.0700(3) -0.0589(4)
O4 O -0.02221(16) 0.0890(3) 0.2212(4)
O5 O -0.13950(14) -0.1111(2) -0.1370(4)
O6 O -0.07650(15) -0.1775(2) 0.1017(4)
Eu1A Eu -0.11503(4) -0.004140(14) -0.84742(9)
Eu1A_2 Eu -0.11503(4) -0.004140(14) 0.15258(9)
O2A O -0.19794(14) 0.0948(3) -0.3130(4)
O3A O -0.06030(13) -0.0700(3) -0.5589(4)
O4A O -0.02221(16) -0.0890(3) -0.2788(4)
O5A O -0.13950(14) 0.1111(2) -0.6370(4)
O6A O -0.07650(15) 0.1775(2) -0.3983(4)
loop_
_geom_bond_atom_site_label_1
_geom_bond_atom_site_label_2
_geom_bond_site_symmetry_1
_geom_bond_site_symmetry_2
C1 C2 1_555 1_555
C2 C3 1_555 1_555
C3 H1 1_555 1_555
C4 C3 1_555 1_555
H2 C4 1_555 1_555
C5 C4 1_555 1_555
C6 C5 1_555 1_555
C7 C2 1_555 1_555
H3 C7 1_555 1_555
C8 H4 1_555 1_555
C9 C10 1_555 1_555
C10 C11 1_555 1_555
C11 H5 1_555 1_555
C12 C11 1_555 1_555
C13 C12 1_555 1_555
C14 C13 1_555 1_555
H6 C14 1_555 1_555
C15 C10 1_555 1_555
H7 C15 1_555 1_555
C16 H8 1_555 1_555
C17 C18 1_555 1_555
C18 C19 1_555 1_555
C19 H9 1_555 1_555
C20 C19 1_555 1_555
C21 C20 1_555 1_555
C22 C21 1_555 1_555
H10 C22 1_555 1_555
C23 C18 1_555 1_555
H11 C23 1_555 1_555
C24 H12 1_555 1_555
Eu1 O1 1_555 1_555
N1 C5 1_555 1_555
H13 N1 1_555 1_555
N2 C6 1_555 1_555
N3 C12 1_555 1_555
H14 N3 1_555 1_555
N4 C13 1_555 1_555
N5 C21 1_555 1_555
H15 N5 1_555 1_555
N6 C20 1_555 1_555
O1 C1 1_555 1_555
O2 C1 1_555 1_555
O3 C9 1_555 1_555
O4 C9 1_555 1_555
O5 C17 1_555 1_555
O6 C17 1_555 1_555
Eu1A O2 1_555 1_555
Eu1A_2 O3 1_555 1_555
O2A Eu1 1_555 1_555
O3A Eu1 1_555 1_555
O4A Eu1 1_555 1_555
O5A Eu1 1_555 1_555
O6A Eu1 1_555 1_555
C6 C7 1_555 1_555
C8 N1 1_555 1_555
C8 N2 1_555 1_555
C14 C15 1_555 1_555
C16 N3 1_555 1_555
C16 N4 1_555 1_555
C22 C23 1_555 1_555
C24 N5 1_555 1_555
C24 N6 1_555 1_555
Eu1 O3 1_555 1_555
Eu1 O5 1_555 1_555
O4 Eu1A_2 1_555 1_555
O5 Eu1A_2 1_555 1_555
O6 Eu1A_2 1_555 1_555
Eu1A O3A 1_555 1_555
Eu1A O5A 1_555 1_555

#END
