
#######################################################################
#
#                 Cambridge Crystallographic Data Centre
#                                CCDC 
#
#######################################################################
#
# If this CIF has been generated from an entry in the Cambridge 
# Structural Database, then it will include bibliographic, chemical, 
# crystal, experimental, refinement or atomic coordinate data resulting 
# from the CCDC's data processing and validation procedures.
#
#######################################################################

data_QAJCIP
_symmetry_cell_setting           triclinic
_symmetry_space_group_name_H-M   'P -1'
_symmetry_Int_Tables_number      2
_space_group_name_Hall           '-P 1'
loop_
_symmetry_equiv_pos_site_id
_symmetry_equiv_pos_as_xyz
1 x,y,z
2 -x,-y,-z
_cell_length_a                   6.8188(3)
_cell_length_b                   7.7366(4)
_cell_length_c                   11.3671(5)
_cell_angle_alpha                92.658(4)
_cell_angle_beta                 96.313(4)
_cell_angle_gamma                94.515(4)
_cell_volume                     593.261
loop_
_atom_site_label
_atom_site_type_symbol
_atom_site_fract_x
_atom_site_fract_y
_atom_site_fract_z
Co1 Co 1.00000 0.50000 0.50000
Co2 Co 0.50000 0.00000 0.50000
O1 O 1.2442(2) 0.45126(19) 0.40373(13)
O2 O 0.85747(18) 0.60915(14) 0.36011(10)
O3 O 0.4854(2) 0.23727(17) 0.59704(13)
O4 O 0.2062(2) 0.0052(2) 0.43256(14)
O5 O 0.57060(17) 0.13604(14) 0.34878(10)
O6 O 0.85493(18) 0.26657(14) 0.43617(10)
O7 O 0.8352(2) 0.89467(15) 0.24132(12)
O8 O 0.9601(2) 0.86453(16) 0.07589(12)
O9 O 0.6887(2) 0.35705(18) -0.17303(11)
O10 O 0.5849(2) 0.12456(17) -0.09262(12)
N1 N 0.8741(2) 0.80472(17) 0.15690(12)
N2 N 0.6572(2) 0.2756(2) -0.08527(13)
C1 C 0.7367(2) 0.3493(2) 0.24300(14)
C2 C 0.8069(2) 0.5305(2) 0.25828(14)
C3 C 0.8144(2) 0.6185(2) 0.15038(14)
C4 C 0.7721(2) 0.5375(2) 0.03877(14)
C5 C 0.7072(2) 0.3626(2) 0.03086(14)
C6 C 0.6860(2) 0.2692(2) 0.13166(14)
C7 C 0.7191(2) 0.24360(19) 0.35023(14)
H1 H 0.78670 0.59820 -0.02890
H2 H 0.63760 0.15300 0.12370
H3 H 1.316(4) 0.536(4) 0.399(2)
H4 H 1.230(4) 0.399(4) 0.345(3)
H5 H 0.380(5) 0.258(4) 0.597(3)
H6 H 0.516(5) 0.231(4) 0.665(3)
H7 H 0.146(4) -0.086(4) 0.451(2)
H8 H 0.158(5) 0.044(4) 0.382(3)
Co1_2 Co 0.00000 -0.50000 0.50000
O1A O 0.7558(2) 0.54874(19) 0.59627(13)
O2A O 0.14253(18) -0.60915(14) 0.63989(10)
O2A_2 O 1.14253(18) 0.39085(14) 0.63989(10)
O3A O 0.5146(2) -0.23727(17) 0.40296(13)
O4A O 0.7938(2) -0.0052(2) 0.56744(14)
O5A O 0.42940(17) -0.13604(14) 0.65122(10)
O6A O 0.14507(18) -0.26657(14) 0.56383(10)
O6A_2 O 1.14507(18) 0.73343(14) 0.56383(10)
O7A O 0.1648(2) -0.89467(15) 0.75868(12)
O8A O 0.0399(2) -0.86453(16) 0.92411(12)
O9A O 0.3113(2) -0.35705(18) 1.17303(11)
O10A O 0.4151(2) -0.12456(17) 1.09262(12)
N1A N 0.1259(2) -0.80472(17) 0.84310(12)
N2A N 0.3428(2) -0.2756(2) 1.08527(13)
C1A C 0.2633(2) -0.3493(2) 0.75700(14)
C2A C 0.1931(2) -0.5305(2) 0.74172(14)
C3A C 0.1856(2) -0.6185(2) 0.84962(14)
C4A C 0.2279(2) -0.5375(2) 0.96123(14)
C5A C 0.2928(2) -0.3626(2) 0.96914(14)
C6A C 0.3140(2) -0.2692(2) 0.86834(14)
C7A C 0.2809(2) -0.24360(19) 0.64977(14)
H1A H 0.21330 -0.59820 1.02890
H2A H 0.36240 -0.15300 0.87630
H3A H 0.684(4) 0.464(4) 0.601(2)
H4A H 0.770(4) 0.601(4) 0.655(3)
H5A H 0.620(5) -0.258(4) 0.403(3)
H6A H 0.484(5) -0.231(4) 0.335(3)
H7A H 0.854(4) 0.086(4) 0.549(2)
H8A H 0.842(5) -0.044(4) 0.618(3)
O11 O 1.2050(3) 0.1926(2) 0.21463(14)
H9 H 1.310(4) 0.161(3) 0.224(2)
H10 H 1.148(5) 0.140(4) 0.165(3)
loop_
_geom_bond_atom_site_label_1
_geom_bond_atom_site_label_2
_geom_bond_site_symmetry_1
_geom_bond_site_symmetry_2
Co1 O1 1_555 1_555
Co2 O3 1_555 1_555
O1 H3 1_555 1_555
O2 Co1 1_555 1_555
O3 H5 1_555 1_555
O4 Co2 1_555 1_555
O5 Co2 1_555 1_555
O6 Co1 1_555 1_555
O7 N1 1_555 1_555
O8 N1 1_555 1_555
O9 N2 1_555 1_555
O10 N2 1_555 1_555
N1 C3 1_555 1_555
N2 C5 1_555 1_555
C1 C2 1_555 1_555
C2 O2 1_555 1_555
C3 C2 1_555 1_555
C4 C3 1_555 1_555
C5 C4 1_555 1_555
C6 C1 1_555 1_555
C7 O5 1_555 1_555
H1 C4 1_555 1_555
H2 C6 1_555 1_555
H4 O1 1_555 1_555
H6 O3 1_555 1_555
H7 O4 1_555 1_555
H8 O4 1_555 1_555
O11 H9 1_555 1_555
H10 O11 1_555 1_555
Co1_2 O2A 1_555 1_555
O1A Co1 1_555 1_555
O2A C2A 1_555 1_555
O2A_2 Co1 1_555 1_555
O3A Co2 1_555 1_555
O4A Co2 1_555 1_555
O5A Co2 1_555 1_555
O6A Co1_2 1_555 1_555
O6A_2 Co1 1_555 1_555
O7A N1A 1_555 1_555
O8A N1A 1_555 1_555
O9A N2A 1_555 1_555
O10A N2A 1_555 1_555
N1A C3A 1_555 1_555
N2A C5A 1_555 1_555
C1A C2A 1_555 1_555
C2A C3A 1_555 1_555
C3A C4A 1_555 1_555
C4A C5A 1_555 1_555
C5A C6A 1_555 1_555
C6A C1A 1_555 1_555
C7A O5A 1_555 1_555
H1A C4A 1_555 1_555
H2A C6A 1_555 1_555
H3A O1A 1_555 1_555
H4A O1A 1_555 1_555
H5A O3A 1_555 1_555
H6A O3A 1_555 1_555
H7A O4A 1_555 1_555
H8A O4A 1_555 1_555
O6 C7 1_555 1_555
C1 C7 1_555 1_555
C5 C6 1_555 1_555
O6A C7A 1_555 1_555
C1A C7A 1_555 1_555

#END
