
#######################################################################
#
#                 Cambridge Crystallographic Data Centre
#                                CCDC 
#
#######################################################################
#
# If this CIF has been generated from an entry in the Cambridge 
# Structural Database, then it will include bibliographic, chemical, 
# crystal, experimental, refinement or atomic coordinate data resulting 
# from the CCDC's data processing and validation procedures.
#
#######################################################################

data_QAJDEK
_symmetry_cell_setting           monoclinic
_symmetry_space_group_name_H-M   'P 21/n'
_symmetry_Int_Tables_number      14
_space_group_name_Hall           '-P 2yn'
loop_
_symmetry_equiv_pos_site_id
_symmetry_equiv_pos_as_xyz
1 x,y,z
2 1/2+x,1/2-y,1/2+z
3 -x,-y,-z
4 1/2-x,1/2+y,1/2-z
_cell_length_a                   6.1423(9)
_cell_length_b                   16.9701(15)
_cell_length_c                   15.7278(14)
_cell_angle_alpha                90
_cell_angle_beta                 98.714(11)
_cell_angle_gamma                90
_cell_volume                     1620.47
loop_
_atom_site_label
_atom_site_type_symbol
_atom_site_fract_x
_atom_site_fract_y
_atom_site_fract_z
C1 C -0.7968(9) 0.5838(3) 0.7755(4)
C2 C -0.9918(10) 0.5562(3) 0.7289(4)
H1 H -1.1128 0.5442 0.7577
C3 C -1.0118(13) 0.5460(4) 0.6402(4)
H2 H -1.1457 0.5269 0.6087
C4 C -0.8368(14) 0.5638(4) 0.5983(5)
H3 H -0.8509 0.5575 0.5377
C5 C -0.6420(12) 0.5904(4) 0.6436(5)
H4 H -0.5211 0.6022 0.6146
C6 C -0.6227(10) 0.6001(4) 0.7320(4)
H5 H -0.4874 0.6183 0.7632
C7 C -0.8424(9) 0.7035(3) 0.9004(3)
C8 C -0.6937(10) 0.7619(4) 0.8862(4)
H6 H -0.5562 0.7479 0.8697
C9 C -0.7463(13) 0.8409(4) 0.8961(4)
H7 H -0.6463 0.8809 0.8847
C10 C -0.9421(14) 0.8611(4) 0.9222(5)
H8 H -0.9766 0.9149 0.9302
C11 C -1.0867(12) 0.8036(4) 0.9366(4)
H9 H -1.2225 0.8175 0.9546
C12 C -1.0376(10) 0.7249(4) 0.9252(4)
H10 H -1.1409 0.6854 0.9347
P1 P -0.7693(3) 0.60034(9) 0.89003(10)
O1 O -0.5318(6) 0.5884(2) 0.9293(2)
O2 O -0.9388(6) 0.5513(2) 0.9247(2)
Na1 Na -0.7427(3) 0.49733(12) 1.05094(13)
O3 O -0.6602(8) 0.5967(3) 1.1488(3)
C13 C -0.8088(14) 0.6506(6) 1.1731(6)
H11 H -0.9489 0.6489 1.1326
H12 H -0.8401 0.6385 1.2316
C14 C -0.7031(19) 0.7310(6) 1.1713(7)
H13 H -0.6813 0.7553 1.2292
H14 H -0.7947 0.7665 1.1306
C15 C -0.493(2) 0.7152(6) 1.1428(6)
H15 H -0.5005 0.7277 1.0810
H16 H -0.3747 0.7472 1.1760
C16 C -0.4512(13) 0.6311(6) 1.1581(6)
H17 H -0.3706 0.6220 1.2167
H18 H -0.3638 0.6091 1.1157
Na1B Na -0.2573(3) 0.50267(12) 0.94906(13)
Na1B_2 Na -1.2573(3) 0.50267(12) 0.94906(13)
O1B O -0.4682(6) 0.4116(2) 1.0707(2)
O2B O -1.0612(6) 0.4487(2) 1.0753(2)
loop_
_geom_bond_atom_site_label_1
_geom_bond_atom_site_label_2
_geom_bond_site_symmetry_1
_geom_bond_site_symmetry_2
C1 C2 1_555 1_555
C2 H1 1_555 1_555
C3 C2 1_555 1_555
H2 C3 1_555 1_555
C4 C3 1_555 1_555
H3 C4 1_555 1_555
C5 C4 1_555 1_555
H4 C5 1_555 1_555
C6 C1 1_555 1_555
H5 C6 1_555 1_555
C7 C8 1_555 1_555
C8 H6 1_555 1_555
C9 C8 1_555 1_555
H7 C9 1_555 1_555
C10 C9 1_555 1_555
H8 C10 1_555 1_555
C11 C10 1_555 1_555
H9 C11 1_555 1_555
C12 C7 1_555 1_555
H10 C12 1_555 1_555
P1 C1 1_555 1_555
O1 P1 1_555 1_555
O2 P1 1_555 1_555
Na1 O1 1_555 1_555
O3 Na1 1_555 1_555
C13 O3 1_555 1_555
H11 C13 1_555 1_555
H12 C13 1_555 1_555
C14 C13 1_555 1_555
H13 C14 1_555 1_555
H14 C14 1_555 1_555
C15 C14 1_555 1_555
H15 C15 1_555 1_555
H16 C15 1_555 1_555
C16 O3 1_555 1_555
H17 C16 1_555 1_555
H18 C16 1_555 1_555
Na1B O1 1_555 1_555
Na1B_2 O2 1_555 1_555
O1B Na1 1_555 1_555
O2B Na1 1_555 1_555
C5 C6 1_555 1_555
C7 P1 1_555 1_555
C11 C12 1_555 1_555
O2 Na1 1_555 1_555
C15 C16 1_555 1_555
Na1B O1B 1_555 1_555
Na1B_2 O2B 1_555 1_555

#END
