
#######################################################################
#
#                 Cambridge Crystallographic Data Centre
#                                CCDC 
#
#######################################################################
#
# If this CIF has been generated from an entry in the Cambridge 
# Structural Database, then it will include bibliographic, chemical, 
# crystal, experimental, refinement or atomic coordinate data resulting 
# from the CCDC's data processing and validation procedures.
#
#######################################################################

data_QAJGOZ
_symmetry_cell_setting           monoclinic
_symmetry_space_group_name_H-M   'C 2/c'
_symmetry_Int_Tables_number      15
_space_group_name_Hall           '-C 2yn'
loop_
_symmetry_equiv_pos_site_id
_symmetry_equiv_pos_as_xyz
1 x,y,z
2 -x,y,1/2-z
3 1/2+x,1/2+y,z
4 1/2-x,1/2+y,1/2-z
5 -x,-y,-z
6 x,-y,1/2+z
7 1/2-x,1/2-y,-z
8 1/2+x,1/2-y,1/2+z
_cell_length_a                   18.1237(10)
_cell_length_b                   11.3663(6)
_cell_length_c                   15.0119(8)
_cell_angle_alpha                90
_cell_angle_beta                 95.439(2)
_cell_angle_gamma                90
_cell_volume                     3078.52
loop_
_atom_site_label
_atom_site_type_symbol
_atom_site_fract_x
_atom_site_fract_y
_atom_site_fract_z
Ni1 Ni 0.5000 1.19295(2) 1.2500
O1 O 0.57303(7) 1.18647(10) 1.15316(8)
N1 N 0.5000 1.37958(17) 1.2500
C1 C 0.58736(10) 1.20357(14) 1.07335(12)
O2 O 0.54917(9) 1.25698(16) 1.01439(10)
C2 C 0.66083(10) 1.15107(15) 1.05145(12)
N2 N 0.5000 2.00284(16) 1.2500
O3 O 0.81171(16) 1.0200(3) 0.83539(19)
N3 N 0.40568(8) 1.19913(11) 1.15701(9)
C3 C 0.67500(11) 1.13723(17) 0.96282(13)
H1 H 0.6403 1.1601 0.9165
O4 O 0.70979(17) 1.1035(3) 0.79302(15)
N4 N 0.75517(16) 1.0686(2) 0.85108(18)
C4 C 0.74173(13) 1.08876(19) 0.94515(15)
C5 C 0.79625(13) 1.0578(2) 1.01120(18)
H2 H 0.8413 1.0273 0.9969
C6 C 0.78225(12) 1.0733(2) 1.09890(17)
H3 H 0.8184 1.0544 1.1448
C7 C 0.71441(11) 1.11721(17) 1.11888(14)
H4 H 0.7046 1.1241 1.1784
C8 C 0.49914(10) 1.44061(15) 1.17354(11)
H5 H 0.4989 1.3993 1.1201
C9 C 0.49863(11) 1.56217(15) 1.17042(12)
H6 H 0.4974 1.6013 1.1159
C10 C 0.5000 1.6253(2) 1.2500
C11 C 0.5000 1.75560(19) 1.2500
C12 C 0.53631(16) 1.94065(18) 1.19430(19)
H7 H 0.5634 1.9812 1.1546
C13 C 0.53672(18) 1.81906(18) 1.1911(2)
H8 H 0.5621 1.7805 1.1486
C14 C 0.40194(9) 1.15368(17) 1.07508(12)
H9 H 0.4413 1.1079 1.0595
C15 C 0.34223(9) 1.17121(17) 1.01177(12)
H10 H 0.3423 1.1383 0.9551
C16 C 0.28214(8) 1.23809(14) 1.03306(10)
C17 C 0.28557(10) 1.28207(17) 1.11967(12)
H11 H 0.2461 1.3252 1.1381
C18 C 0.34745(10) 1.26177(17) 1.17822(11)
H12 H 0.3488 1.2933 1.2355
Ni1_2 Ni 0.5000 2.19295(2) 1.2500
Ni1F Ni 0.0000 1.30705(2) 0.7500
O1A O 0.42697(7) 1.18647(10) 1.34684(8)
C1A C 0.41264(10) 1.20357(14) 1.42665(12)
O2A O 0.45083(9) 1.25698(16) 1.48561(10)
C2A C 0.33917(10) 1.15107(15) 1.44855(12)
N2_2 N 0.5000 1.00284(16) 1.2500
O3A O 0.18829(16) 1.0200(3) 1.66461(19)
N3F N 0.09432(8) 1.30087(11) 0.84299(9)
N3A N 0.59432(8) 1.19913(11) 1.34299(9)
C3A C 0.32500(11) 1.13723(17) 1.53718(13)
H1A H 0.3597 1.1601 1.5835
O4A O 0.29021(17) 1.1035(3) 1.70698(15)
N4A N 0.24483(16) 1.0686(2) 1.64892(18)
C4A C 0.25827(13) 1.08876(19) 1.55485(15)
C5A C 0.20375(13) 1.0578(2) 1.48880(18)
H2A H 0.1587 1.0273 1.5031
C6A C 0.21775(12) 1.0733(2) 1.40110(17)
H3A H 0.1816 1.0544 1.3552
C7A C 0.28559(11) 1.11721(17) 1.38112(14)
H4A H 0.2954 1.1241 1.3216
C8A C 0.50086(10) 1.44061(15) 1.32646(11)
H5A H 0.5011 1.3993 1.3799
C9A C 0.50137(11) 1.56217(15) 1.32958(12)
H6A H 0.5026 1.6013 1.3841
C12A C 0.46369(16) 1.94065(18) 1.30570(19)
H7A H 0.4366 1.9812 1.3454
C13A C 0.46328(18) 1.81906(18) 1.3089(2)
H8A H 0.4379 1.7805 1.3514
C14F C 0.09806(9) 1.34632(17) 0.92492(12)
H9F H 0.0587 1.3921 0.9405
C15F C 0.15777(9) 1.32879(17) 0.98823(12)
H10F H 0.1577 1.3617 1.0449
C16F C 0.21786(8) 1.26191(14) 0.96694(10)
C17F C 0.21443(10) 1.21793(17) 0.88033(12)
H11F H 0.2539 1.1748 0.8619
C18F C 0.15255(10) 1.23823(17) 0.82178(11)
H12F H 0.1512 1.2067 0.7645
loop_
_geom_bond_atom_site_label_1
_geom_bond_atom_site_label_2
_geom_bond_site_symmetry_1
_geom_bond_site_symmetry_2
Ni1 O1 1_555 1_555
O1 C1 1_555 1_555
N1 Ni1 1_555 1_555
C1 O2 1_555 1_555
C2 C1 1_555 1_555
N2 C12 1_555 1_555
O3 N4 1_555 1_555
N3 Ni1 1_555 1_555
C3 C2 1_555 1_555
H1 C3 1_555 1_555
O4 N4 1_555 1_555
N4 C4 1_555 1_555
C4 C3 1_555 1_555
C5 C4 1_555 1_555
H2 C5 1_555 1_555
C6 C5 1_555 1_555
H3 C6 1_555 1_555
C7 C2 1_555 1_555
H4 C7 1_555 1_555
C8 N1 1_555 1_555
H5 C8 1_555 1_555
C9 C8 1_555 1_555
H6 C9 1_555 1_555
C10 C9 1_555 1_555
C11 C10 1_555 1_555
C12 H7 1_555 1_555
C13 C11 1_555 1_555
H8 C13 1_555 1_555
C14 N3 1_555 1_555
H9 C14 1_555 1_555
C15 C14 1_555 1_555
H10 C15 1_555 1_555
C16 C15 1_555 1_555
C17 C16 1_555 1_555
H11 C17 1_555 1_555
C18 N3 1_555 1_555
H12 C18 1_555 1_555
Ni1_2 N2 1_555 1_555
Ni1F N3F 1_555 1_555
O1A Ni1 1_555 1_555
C1A O1A 1_555 1_555
O2A C1A 1_555 1_555
C2A C1A 1_555 1_555
N2_2 Ni1 1_555 1_555
O3A N4A 1_555 1_555
N3F C14F 1_555 1_555
N3A Ni1 1_555 1_555
C3A C2A 1_555 1_555
H1A C3A 1_555 1_555
O4A N4A 1_555 1_555
N4A C4A 1_555 1_555
C4A C3A 1_555 1_555
C5A C4A 1_555 1_555
H2A C5A 1_555 1_555
C6A C5A 1_555 1_555
H3A C6A 1_555 1_555
C7A C2A 1_555 1_555
H4A C7A 1_555 1_555
C8A N1 1_555 1_555
H5A C8A 1_555 1_555
C9A C10 1_555 1_555
H6A C9A 1_555 1_555
C12A N2 1_555 1_555
H7A C12A 1_555 1_555
C13A C11 1_555 1_555
H8A C13A 1_555 1_555
C14F H9F 1_555 1_555
C15F C14F 1_555 1_555
H10F C15F 1_555 1_555
C16F C16 1_555 1_555
C17F C16F 1_555 1_555
H11F C17F 1_555 1_555
C18F N3F 1_555 1_555
H12F C18F 1_555 1_555
C6 C7 1_555 1_555
C12 C13 1_555 1_555
C17 C18 1_555 1_555
C6A C7A 1_555 1_555
C8A C9A 1_555 1_555
C12A C13A 1_555 1_555
C15F C16F 1_555 1_555
C17F C18F 1_555 1_555

#END
