
#######################################################################
#
#                 Cambridge Crystallographic Data Centre
#                                CCDC 
#
#######################################################################
#
# If this CIF has been generated from an entry in the Cambridge 
# Structural Database, then it will include bibliographic, chemical, 
# crystal, experimental, refinement or atomic coordinate data resulting 
# from the CCDC's data processing and validation procedures.
#
#######################################################################

data_QAJHOA
_symmetry_cell_setting           monoclinic
_symmetry_space_group_name_H-M   'C c'
_symmetry_Int_Tables_number      9
_space_group_name_Hall           'C -2yc'
loop_
_symmetry_equiv_pos_site_id
_symmetry_equiv_pos_as_xyz
1 x,y,z
2 x,-y,1/2+z
3 1/2+x,1/2+y,z
4 1/2+x,1/2-y,1/2+z
_cell_length_a                   13.2590(14)
_cell_length_b                   16.3231(16)
_cell_length_c                   19.166(2)
_cell_angle_alpha                90
_cell_angle_beta                 98.580(2)
_cell_angle_gamma                90
_cell_volume                     4101.64
loop_
_atom_site_label
_atom_site_type_symbol
_atom_site_fract_x
_atom_site_fract_y
_atom_site_fract_z
Sn1 Sn 0.76424(5) 0.44960(4) 0.08738(4)
O1 O 0.5920(9) 0.4307(6) 0.0488(6)
O2 O 0.5631(6) 0.5121(5) 0.1380(4)
O3 O 0.4525(6) 0.4040(5) -0.0559(4)
H2 H 0.5079 0.4003 -0.0305
O4 O -0.0694(9) 0.5407(6) -0.3737(6)
O5 O -0.0922(7) 0.4481(5) -0.2913(5)
O6 O 0.0543(6) 0.4086(5) -0.1970(4)
H3 H -0.0023 0.4068 -0.2210
C1 C 0.5324(9) 0.4761(7) 0.0813(6)
C2 C 0.3574(9) 0.5325(6) 0.0775(6)
H4 H 0.3789 0.5536 0.1223
C3 C 0.4245(8) 0.4854(7) 0.0451(6)
C4 C 0.3884(14) 0.4520(7) -0.0235(9)
C5 C 0.2893(10) 0.4648(8) -0.0581(7)
C6 C 0.2219(8) 0.5155(7) -0.0229(6)
C7 C 0.2572(8) 0.5490(6) 0.0438(6)
C8 C 0.1909(9) 0.6002(7) 0.0782(6)
H5 H 0.2134 0.6211 0.1230
C9 C 0.0950(9) 0.6178(8) 0.0452(6)
H6 H 0.0535 0.6536 0.0658
C10 C 0.0601(9) 0.5819(8) -0.0195(7)
H7 H -0.0069 0.5915 -0.0402
C11 C 0.1191(9) 0.5338(7) -0.0532(6)
H8 H 0.0927 0.5120 -0.0969
C12 C -0.0368(9) 0.4983(8) -0.3198(6)
C13 C 0.1374(14) 0.5601(9) -0.3157(10)
H9 H 0.1113 0.5880 -0.3567
C14 C 0.0735(8) 0.5065(7) -0.2880(6)
C15 C 0.1138(8) 0.4628(6) -0.2259(5)
C16 C 0.2141(8) 0.4744(6) -0.1926(6)
C17 C 0.2795(9) 0.5318(7) -0.2227(7)
C18 C 0.2383(10) 0.5756(8) -0.2865(7)
C19 C 0.3028(8) 0.6304(7) -0.3155(6)
H10 H 0.2765 0.6602 -0.3555
C20 C 0.4025(9) 0.6414(8) -0.2870(6)
H11 H 0.4439 0.6768 -0.3080
C21 C 0.4406(10) 0.5991(7) -0.2268(7)
H12 H 0.5079 0.6078 -0.2065
C22 C 0.3820(9) 0.5444(7) -0.1954(6)
H13 H 0.4111 0.5155 -0.1556
C23 C 0.2537(9) 0.4235(8) -0.1279(6)
H14 H 0.2001 0.3855 -0.1205
H15 H 0.3102 0.3910 -0.1394
C24 C 0.7979(12) 0.3698(9) 0.0041(8)
C25 C 0.7434(11) 0.2978(8) -0.0158(6)
H16 H 0.6855 0.2851 0.0041
C26 C 0.7759(12) 0.2445(8) -0.0659(7)
H17 H 0.7404 0.1961 -0.0778
C27 C 0.8593(13) 0.2632(10) -0.0969(9)
H18 H 0.8778 0.2291 -0.1317
C28 C 0.9164(11) 0.3327(9) -0.0770(6)
H19 H 0.9743 0.3443 -0.0973
C29 C 0.8866(9) 0.3854(8) -0.0263(6)
H20 H 0.9259 0.4314 -0.0124
C30 C 0.7482(9) 0.5751(7) 0.0484(6)
C31 C 0.6617(11) 0.5948(9) -0.0028(7)
H21 H 0.6134 0.5553 -0.0190
C32 C 0.6520(12) 0.6747(9) -0.0276(7)
H22 H 0.5945 0.6888 -0.0593
C33 C 0.7264(12) 0.7352(9) -0.0065(7)
H23 H 0.7178 0.7888 -0.0226
C34 C 0.8115(12) 0.7121(8) 0.0385(7)
H24 H 0.8659 0.7483 0.0491
C35 C 0.8164(11) 0.6348(8) 0.0680(6)
H25 H 0.8701 0.6233 0.1037
C36 C 0.7411(13) 0.3798(10) 0.1791(8)
C37 C 0.7771(11) 0.4021(10) 0.2489(6)
H26 H 0.8141 0.4503 0.2579
C38 C 0.7585(12) 0.3532(10) 0.3055(7)
H27 H 0.7840 0.3682 0.3516
C39 C 0.7018(14) 0.2820(11) 0.2924(9)
H28 H 0.6892 0.2494 0.3299
C40 C 0.6642(13) 0.2591(9) 0.2248(8)
H29 H 0.6236 0.2126 0.2163
C41 C 0.6876(11) 0.3068(9) 0.1687(6)
H30 H 0.6665 0.2889 0.1228
Sn1A Sn -0.23576(5) 0.55040(4) -0.41262(4)
O4A O 0.9306(9) 0.4593(6) 0.1263(6)
N1 N 0.5704(7) 0.6521(6) 0.2187(5)
H1 H 0.5506 0.6055 0.1943
C42 C 0.5879(11) 0.7165(9) 0.1637(7)
H31 H 0.6405 0.6972 0.1376
H32 H 0.6122 0.7666 0.1877
C43 C 0.4911(13) 0.7356(10) 0.1115(8)
H33 H 0.4565 0.6854 0.0968
H34 H 0.5094 0.7634 0.0711
H35 H 0.4467 0.7699 0.1340
C44 C 0.4862(11) 0.6733(9) 0.2603(7)
H36 H 0.4241 0.6826 0.2276
H37 H 0.4745 0.6266 0.2894
C45 C 0.5061(15) 0.7465(11) 0.3066(8)
H38 H 0.5742 0.7437 0.3319
H39 H 0.4583 0.7477 0.3395
H40 H 0.4987 0.7952 0.2782
C46 C 0.6704(11) 0.6326(9) 0.2641(7)
H41 H 0.7178 0.6124 0.2342
H42 H 0.6985 0.6828 0.2862
C47 C 0.6621(14) 0.5712(10) 0.3200(8)
H43 H 0.6168 0.5912 0.3508
H44 H 0.7283 0.5617 0.3467
H45 H 0.6359 0.5208 0.2987
loop_
_geom_bond_atom_site_label_1
_geom_bond_atom_site_label_2
_geom_bond_site_symmetry_1
_geom_bond_site_symmetry_2
Sn1 O1 1_555 1_555
N1 H1 1_555 1_555
O1 C1 1_555 1_555
O2 C1 1_555 1_555
O3 H2 1_555 1_555
O4 C12 1_555 1_555
O5 C12 1_555 1_555
O6 H3 1_555 1_555
C1 C3 1_555 1_555
C2 H4 1_555 1_555
C3 C2 1_555 1_555
C4 O3 1_555 1_555
C5 C4 1_555 1_555
C6 C5 1_555 1_555
C7 C2 1_555 1_555
C8 C7 1_555 1_555
H5 C8 1_555 1_555
C9 C8 1_555 1_555
H6 C9 1_555 1_555
C10 C9 1_555 1_555
H7 C10 1_555 1_555
C11 C6 1_555 1_555
H8 C11 1_555 1_555
C12 C14 1_555 1_555
C13 H9 1_555 1_555
C14 C13 1_555 1_555
C15 O6 1_555 1_555
C16 C15 1_555 1_555
C17 C16 1_555 1_555
C18 C13 1_555 1_555
C19 C18 1_555 1_555
H10 C19 1_555 1_555
C20 C19 1_555 1_555
H11 C20 1_555 1_555
C21 C20 1_555 1_555
H12 C21 1_555 1_555
C22 C17 1_555 1_555
H13 C22 1_555 1_555
C23 C5 1_555 1_555
H14 C23 1_555 1_555
H15 C23 1_555 1_555
C24 Sn1 1_555 1_555
C25 C24 1_555 1_555
H16 C25 1_555 1_555
C26 C25 1_555 1_555
H17 C26 1_555 1_555
C27 C26 1_555 1_555
H18 C27 1_555 1_555
C28 C27 1_555 1_555
H19 C28 1_555 1_555
C29 C24 1_555 1_555
H20 C29 1_555 1_555
C30 Sn1 1_555 1_555
C31 C30 1_555 1_555
H21 C31 1_555 1_555
C32 C31 1_555 1_555
H22 C32 1_555 1_555
C33 C32 1_555 1_555
H23 C33 1_555 1_555
C34 C33 1_555 1_555
H24 C34 1_555 1_555
C35 C30 1_555 1_555
H25 C35 1_555 1_555
C36 Sn1 1_555 1_555
C37 C36 1_555 1_555
H26 C37 1_555 1_555
C38 C37 1_555 1_555
H27 C38 1_555 1_555
C39 C38 1_555 1_555
H28 C39 1_555 1_555
C40 C39 1_555 1_555
H29 C40 1_555 1_555
C41 C36 1_555 1_555
H30 C41 1_555 1_555
C42 N1 1_555 1_555
H31 C42 1_555 1_555
H32 C42 1_555 1_555
C43 C42 1_555 1_555
H33 C43 1_555 1_555
H34 C43 1_555 1_555
H35 C43 1_555 1_555
C44 N1 1_555 1_555
H36 C44 1_555 1_555
H37 C44 1_555 1_555
C45 C44 1_555 1_555
H38 C45 1_555 1_555
H39 C45 1_555 1_555
H40 C45 1_555 1_555
C46 N1 1_555 1_555
H41 C46 1_555 1_555
H42 C46 1_555 1_555
C47 C46 1_555 1_555
H43 C47 1_555 1_555
H44 C47 1_555 1_555
H45 C47 1_555 1_555
Sn1A O4 1_555 1_555
O4A Sn1 1_555 1_555
C3 C4 1_555 1_555
C6 C7 1_555 1_555
C10 C11 1_555 1_555
C14 C15 1_555 1_555
C16 C23 1_555 1_555
C17 C18 1_555 1_555
C21 C22 1_555 1_555
C28 C29 1_555 1_555
C34 C35 1_555 1_555
C40 C41 1_555 1_555

#END
