
#######################################################################
#
#                 Cambridge Crystallographic Data Centre
#                                CCDC 
#
#######################################################################
#
# If this CIF has been generated from an entry in the Cambridge 
# Structural Database, then it will include bibliographic, chemical, 
# crystal, experimental, refinement or atomic coordinate data resulting 
# from the CCDC's data processing and validation procedures.
#
#######################################################################

data_QAJKOB
_symmetry_cell_setting           orthorhombic
_symmetry_space_group_name_H-M   'P b c 21'
_symmetry_Int_Tables_number      29
_space_group_name_Hall           'P 2c -2b'
loop_
_symmetry_equiv_pos_site_id
_symmetry_equiv_pos_as_xyz
1 x,y,z
2 -x,-y,1/2+z
3 -x,1/2+y,z
4 x,1/2-y,1/2+z
_cell_length_a                   8.903(3)
_cell_length_b                   9.697(3)
_cell_length_c                   16.326(7)
_cell_angle_alpha                90
_cell_angle_beta                 90
_cell_angle_gamma                90
_cell_volume                     1409.46
loop_
_atom_site_label
_atom_site_type_symbol
_atom_site_fract_x
_atom_site_fract_y
_atom_site_fract_z
Ga1 Ga 0.83952(8) 0.80129(8) 0.3980
Ga2 Ga 0.54586(8) 0.32132(8) 0.42499(7)
Ga3 Ga 0.64590(8) 0.52076(8) 0.18569(7)
P1 P 0.84528(18) 0.47224(18) 0.34223(13)
P2 P 0.6727(2) 1.04363(18) 0.49615(13)
P3 P 0.5909(2) 0.81684(18) 0.25283(13)
O1 O 0.7161(6) 0.4413(6) 0.4000(4)
O2 O 0.8972(6) 0.6207(5) 0.3542(4)
O3 O 0.7912(7) 0.4538(6) 0.2516(4)
O4 O 0.9741(6) 0.3703(6) 0.3514(4)
O5 O 0.6628(6) 1.2001(5) 0.4840(4)
O6 O 0.7191(6) 1.0197(7) 0.5857(4)
O7 O 0.7966(6) 0.9889(6) 0.4409(4)
O8 O 0.5201(6) 0.9781(6) 0.4809(4)
O9 O 0.5373(6) 0.9466(6) 0.2067(4)
O10 O 0.6177(7) 0.7058(6) 0.1875(4)
O11 O 0.7337(6) 0.8535(6) 0.2971(4)
O12 O 0.4684(6) 0.7668(6) 0.3123(4)
O13 O 0.6475(5) 0.7342(6) 0.4450(4)
N1 N 0.9415(8) 0.7424(8) 0.5055(5)
N2 N 1.1801(7) 0.8687(7) 0.7707(4)
C1 C 1.0271(8) 0.8445(9) 0.5537(5)
C2 C 1.0570(10) 0.7945(9) 0.6409(6)
C3 C 1.1416(9) 0.9101(10) 0.6857(6)
O4B O 1.0259(6) 0.8703(6) 0.3514(4)
O5_2 O 0.6628(6) 0.2001(5) 0.4840(4)
O8B O 0.4799(6) 0.4781(6) 0.4809(4)
O12B O 0.5316(6) 0.2668(6) 0.3123(4)
O13B O 0.3525(5) 0.2342(6) 0.4450(4)
O6C O 0.7191(6) 0.4803(7) 0.0857(4)
O9B O 0.4627(6) 0.4466(6) 0.2067(4)
Ga1B Ga 1.16048(8) 0.30129(8) 0.3980
Ga2_2 Ga 0.54586(8) 1.32132(8) 0.42499(7)
Ga3C Ga 0.64590(8) 0.97924(8) 0.68569(7)
Ga2B Ga 0.45414(8) 0.82132(8) 0.42499(7)
Ga3B Ga 0.35410(8) 1.02076(8) 0.18569(7)
loop_
_geom_bond_atom_site_label_1
_geom_bond_atom_site_label_2
_geom_bond_site_symmetry_1
_geom_bond_site_symmetry_2
Ga1 O2 1_555 1_555
Ga2 O1 1_555 1_555
Ga3 O3 1_555 1_555
P1 O1 1_555 1_555
P2 O5 1_555 1_555
P3 O9 1_555 1_555
O2 P1 1_555 1_555
O3 P1 1_555 1_555
O4 P1 1_555 1_555
O5 Ga2_2 1_555 1_555
O6 P2 1_555 1_555
O7 Ga1 1_555 1_555
O8 P2 1_555 1_555
O9 Ga3B 1_555 1_555
O10 Ga3 1_555 1_555
O11 Ga1 1_555 1_555
O12 P3 1_555 1_555
O13 Ga1 1_555 1_555
N1 Ga1 1_555 1_555
N2 C3 1_555 1_555
C1 N1 1_555 1_555
C2 C1 1_555 1_555
C3 C2 1_555 1_555
O4B Ga1 1_555 1_555
O5_2 Ga2 1_555 1_555
O8B Ga2 1_555 1_555
O12B Ga2 1_555 1_555
O13B Ga2 1_555 1_555
O6C Ga3 1_555 1_555
O9B Ga3 1_555 1_555
Ga1B O4 1_555 1_555
Ga3C O6 1_555 1_555
Ga2B O8 1_555 1_555
P2 O7 1_555 1_555
P3 O10 1_555 1_555
P3 O11 1_555 1_555
O12 Ga2B 1_555 1_555
O13 Ga2B 1_555 1_555

#END
