
#######################################################################
#
#                 Cambridge Crystallographic Data Centre
#                                CCDC 
#
#######################################################################
#
# If this CIF has been generated from an entry in the Cambridge 
# Structural Database, then it will include bibliographic, chemical, 
# crystal, experimental, refinement or atomic coordinate data resulting 
# from the CCDC's data processing and validation procedures.
#
#######################################################################

data_QAJLET
_symmetry_cell_setting           monoclinic
_symmetry_space_group_name_H-M   'P 21/n'
_symmetry_Int_Tables_number      14
_space_group_name_Hall           '-P 2yn'
loop_
_symmetry_equiv_pos_site_id
_symmetry_equiv_pos_as_xyz
1 x,y,z
2 1/2+x,1/2-y,1/2+z
3 -x,-y,-z
4 1/2-x,1/2+y,1/2-z
_cell_length_a                   21.868(4)
_cell_length_b                   13.039(3)
_cell_length_c                   22.479(5)
_cell_angle_alpha                90
_cell_angle_beta                 98.90(3)
_cell_angle_gamma                90
_cell_volume                     6332.42
loop_
_atom_site_label
_atom_site_type_symbol
_atom_site_fract_x
_atom_site_fract_y
_atom_site_fract_z
Na2 Na 0.80372(16) 1.2715(3) -0.32605(15)
Nd1 Nd 0.735730(17) 0.48557(3) 0.231799(17)
Nd2 Nd 0.754320(17) 0.24672(3) 0.498460(16)
Nd3 Nd 0.732310(17) 0.52769(3) -0.261780(17)
Nd4 Nd 0.507700(18) 0.20778(3) 0.305360(18)
Mo1 Mo 0.61346(3) 0.64819(5) 0.09753(3)
Mo2 Mo 0.48730(3) 0.63415(5) -0.01446(3)
Mo3 Mo 0.62582(3) 0.50510(5) -0.01761(3)
Mo4 Mo 0.49693(3) 0.51634(5) 0.12649(3)
O1 O 0.7434(2) 0.6741(4) 0.2347(2)
O2 O 0.7083(3) 0.8299(4) 0.2511(3)
O3 O 0.6496(2) 0.3822(4) 0.2632(2)
O4 O 0.5604(3) 0.3692(4) 0.2999(3)
O5 O 0.7306(2) 0.3530(4) 0.4047(2)
O6 O 0.7510(3) 0.4795(4) 0.3429(2)
O7 O 0.8425(3) 0.2806(4) 0.5798(2)
O8 O 0.9338(3) 0.3542(5) 0.6152(3)
O9 O 0.7661(3) 0.6829(4) -0.0992(2)
O10 O 0.7876(3) 0.5610(5) -0.1622(2)
O11 O 0.7671(2) 0.6400(4) 0.0941(2)
O12 O 0.7906(3) 0.4958(4) 0.1456(2)
O13 O 0.7380(3) 0.4199(4) 0.6477(2)
O14 O 0.7299(2) 0.4108(4) 0.5474(2)
O15 O 0.7461(3) 0.7163(4) 0.7453(2)
O16 O 0.7758(4) 0.8657(5) 0.7119(4)
O17 O 1.0977(3) 0.6298(6) 0.2262(4)
O18 O 1.1607(3) 0.5067(5) 0.2659(3)
O19 O 0.8976(2) 0.6397(4) 0.2249(3)
O20 O 0.8436(2) 0.5295(4) 0.2718(3)
O21 O 0.4236(3) 0.3370(5) 0.2994(3)
O22 O 0.3586(3) 0.4386(8) 0.3382(4)
O23 O 0.5975(2) 0.2103(5) 0.3925(3)
O24 O 0.6409(3) 0.2596(5) 0.4845(3)
O25 O 0.6584(2) 0.5613(4) 0.1415(2)
O26 O 0.5488(3) 0.4321(5) 0.1633(2)
O27 O 0.5524(2) 0.5169(4) 0.0434(2)
O28 O 0.6417(3) 0.7636(4) 0.1221(2)
O29 O 0.6622(2) 0.5174(4) -0.0789(2)
O30 O 0.8515(2) 0.1340(4) 0.4773(2)
O31 O 0.5373(3) 0.7214(4) 0.0275(2)
O32 O 0.4358(2) 0.7061(4) -0.0605(3)
O33 O 0.4382(2) 0.5995(4) 0.0490(2)
O34 O 0.5419(2) 0.6389(4) 0.1375(2)
O35 O 0.4428(3) 0.5328(5) 0.1723(3)
O36 O 0.6718(2) 0.4239(4) 0.0289(3)
O37 O 0.5426(2) 0.5910(4) -0.0691(2)
O38 O 0.6873(3) 0.3493(5) 0.1523(3)
H1 H 0.6804 0.3485 0.1145
H2 H 0.6658 0.3056 0.1616
O39 O 0.6246(7) 0.4259(14) -0.2699(8)
O40 O 0.6540(2) 0.6030(5) -0.2010(3)
O41 O 0.4875(3) 0.2606(5) 0.2009(3)
H3 H 0.509(4) 0.305(7) 0.186(5)
H4 H 0.475(5) 0.217(7) 0.174(4)
O42 O 0.4836(9) 0.0790(15) 0.3796(9)
N1 N 0.6458(3) 0.5846(5) 0.2685(3)
N2 N 0.8325(3) 0.3893(5) 0.4802(3)
N3 N 0.7907(3) 0.5608(5) -0.0061(3)
N4 N 0.7604(3) 0.6207(5) 0.6460(3)
N5 N 1.0018(3) 0.5419(5) 0.2603(3)
C1 C 0.6478(4) 0.6863(6) 0.2710(4)
C2 C 0.6017(4) 0.7432(7) 0.2909(5)
H5 H 0.6041 0.8144 0.2925
C3 C 0.5516(5) 0.6924(7) 0.3084(6)
H6 H 0.5203 0.7289 0.3227
C4 C 0.5488(4) 0.5862(8) 0.3041(5)
H7 H 0.5147 0.5503 0.3134
C5 C 0.5985(3) 0.5353(6) 0.2856(3)
C6 C 0.7040(3) 0.7345(6) 0.2507(3)
C7 C 0.6028(3) 0.4197(6) 0.2820(3)
C8 C 0.8218(3) 0.4504(6) 0.4305(3)
C9 C 0.8601(4) 0.5316(6) 0.4220(4)
H8 H 0.8510 0.5740 0.3885
C10 C 0.9130(4) 0.5488(7) 0.4648(4)
H9 H 0.9413 0.5999 0.4591
C11 C 0.9219(4) 0.4881(6) 0.5150(4)
H10 H 0.9552 0.5007 0.5451
C12 C 0.8819(3) 0.4082(6) 0.5215(3)
C13 C 0.7635(3) 0.4253(6) 0.3890(3)
C14 C 0.8880(4) 0.3418(6) 0.5765(3)
C15 C 0.8048(4) 0.5243(6) -0.0583(3)
C16 C 0.8334(5) 0.4319(7) -0.0628(4)
H11 H 0.8433 0.4102 -0.0996
C17 C 0.8477(6) 0.3702(8) -0.0115(5)
H12 H 0.8660 0.3061 -0.0135
C18 C 0.8335(5) 0.4083(7) 0.0427(4)
H13 H 0.8438 0.3711 0.0782
C19 C 0.8041(3) 0.5015(6) 0.0433(4)
C20 C 0.7847(3) 0.5950(6) -0.1103(3)
C21 C 0.7867(3) 0.5489(5) 0.0990(3)
C22 C 0.7592(4) 0.5688(6) 0.5944(3)
C23 C 0.7785(5) 0.6150(7) 0.5453(4)
H14 H 0.7796 0.5776 0.5102
C24 C 0.7962(6) 0.7162(8) 0.5484(5)
H15 H 0.8097 0.7479 0.5157
C25 C 0.7937(6) 0.7709(8) 0.6016(5)
H16 H 0.8045 0.8399 0.6047
C26 C 0.7752(4) 0.7206(6) 0.6485(4)
C27 C 0.7408(3) 0.4570(6) 0.5963(3)
C28 C 0.7650(5) 0.7727(6) 0.7061(4)
C29 C 1.0562(3) 0.4958(6) 0.2767(4)
C30 C 1.0622(4) 0.4099(7) 0.3136(5)
H17 H 1.1005 0.3787 0.3246
C31 C 1.0100(4) 0.3718(7) 0.3336(5)
H18 H 1.0127 0.3136 0.3577
C32 C 0.9542(4) 0.4203(6) 0.3175(5)
H19 H 0.9190 0.3969 0.3318
C33 C 0.9509(3) 0.5041(6) 0.2799(4)
C34 C 1.1088(4) 0.5478(7) 0.2547(4)
C35 C 0.8919(3) 0.5621(6) 0.2570(3)
N6 N 0.4946(3) 0.3099(6) 0.4019(3)
C36 C 0.4422(4) 0.3632(8) 0.4040(4)
C37 C 0.4268(5) 0.4003(10) 0.4564(5)
H20 H 0.3897 0.4350 0.4570
C38 C 0.4682(6) 0.3846(12) 0.5091(6)
H21 H 0.4584 0.4067 0.5458
C39 C 0.5233(5) 0.3367(10) 0.5068(5)
H22 H 0.5520 0.3284 0.5415
C40 C 0.5356(4) 0.3008(8) 0.4524(4)
C41 C 0.4054(3) 0.3790(8) 0.3417(4)
C42 C 0.5963(3) 0.2520(6) 0.4427(4)
O1C O 0.7566(2) 0.1741(4) 0.2653(2)
O2C O 0.7917(3) 0.3299(4) 0.2489(3)
O3C O 0.8504(2) -0.1178(4) 0.2368(2)
O4C O 0.9396(3) -0.1308(4) 0.2001(3)
N1C N 0.8542(3) 0.0846(5) 0.2315(3)
C1C C 0.8522(4) 0.1863(6) 0.2290(4)
C2C C 0.8983(4) 0.2432(7) 0.2091(5)
H5C H 0.8959 0.3144 0.2075
C3C C 0.9484(5) 0.1924(7) 0.1916(6)
H6C H 0.9797 0.2289 0.1773
C4C C 0.9512(4) 0.0862(8) 0.1959(5)
H7C H 0.9853 0.0503 0.1866
C5C C 0.9015(3) 0.0353(6) 0.2144(3)
C6C C 0.7960(3) 0.2345(6) 0.2493(3)
C7C C 0.8972(3) -0.0803(6) 0.2180(3)
Nd1C Nd 0.764270(17) -0.01443(3) 0.268201(17)
Nd1C_2 Nd 0.764270(17) 0.98557(3) 0.268201(17)
Nd2C Nd 0.745680(17) 0.74672(3) 0.001540(16)
Nd3B Nd 1.267690(17) 0.47231(3) 0.261780(17)
Nd4C Nd 0.992300(18) -0.29222(3) 0.194640(18)
Nd4C_2 Nd 0.992300(18) 0.70778(3) 0.194640(18)
O9C O 0.7339(3) 0.1829(4) 0.5992(2)
O10C O 0.7124(3) 0.0610(5) 0.6622(2)
O11C O 0.7329(2) 0.1400(4) 0.4059(2)
O12C O 0.7094(3) -0.0042(4) 0.3544(2)
N3C N 0.7093(3) 0.0608(5) 0.5061(3)
C15C C 0.6952(4) 0.0243(6) 0.5583(3)
C16C C 0.6666(5) -0.0681(7) 0.5628(4)
H11C H 0.6567 -0.0898 0.5996
C17C C 0.6523(6) -0.1298(8) 0.5115(5)
H12C H 0.6340 -0.1939 0.5135
C18C C 0.6665(5) -0.0917(7) 0.4573(4)
H13C H 0.6562 -0.1289 0.4218
C19C C 0.6959(3) 0.0015(6) 0.4567(4)
C20C C 0.7153(3) 0.0950(6) 0.6103(3)
C21C C 0.7133(3) 0.0489(5) 0.4010(3)
O13_2 O 0.7380(3) 0.4199(4) -0.3523(2)
O14_2 O 0.7299(2) 0.4108(4) -0.4526(2)
O15_2 O 0.7461(3) 0.7163(4) -0.2547(2)
O16_2 O 0.7758(4) 0.8657(5) -0.2881(4)
N4_2 N 0.7604(3) 0.6207(5) -0.3540(3)
C22_2 C 0.7592(4) 0.5688(6) -0.4056(3)
C23_2 C 0.7785(5) 0.6150(7) -0.4547(4)
H14_2 H 0.7796 0.5776 -0.4898
C24_2 C 0.7962(6) 0.7162(8) -0.4516(5)
H15_2 H 0.8097 0.7479 -0.4843
C25_2 C 0.7937(6) 0.7709(8) -0.3984(5)
H16_2 H 0.8045 0.8399 -0.3953
C26_2 C 0.7752(4) 0.7206(6) -0.3515(4)
C27_2 C 0.7408(3) 0.4570(6) -0.4037(3)
C28_2 C 0.7650(5) 0.7727(6) -0.2939(4)
O13C O 0.7620(3) -0.0801(4) -0.1477(2)
O14C O 0.7701(2) -0.0892(4) -0.0474(2)
O15C O 0.7539(3) 0.2163(4) -0.2453(2)
O16C O 0.7242(4) 0.3657(5) -0.2119(4)
N4C N 0.7396(3) 0.1207(5) -0.1460(3)
C22C C 0.7408(4) 0.0688(6) -0.0944(3)
C23C C 0.7215(5) 0.1150(7) -0.0453(4)
H14C H 0.7204 0.0776 -0.0102
C24C C 0.7038(6) 0.2162(8) -0.0484(5)
H15C H 0.6903 0.2479 -0.0157
C25C C 0.7063(6) 0.2709(8) -0.1016(5)
H16C H 0.6955 0.3399 -0.1047
C26C C 0.7248(4) 0.2206(6) -0.1485(4)
C27C C 0.7592(3) -0.0430(6) -0.0963(3)
C28C C 0.7350(5) 0.2727(6) -0.2061(4)
O17B O 0.9023(3) 0.3702(6) -0.2262(4)
O18B O 0.8393(3) 0.4933(5) -0.2659(3)
O19B O 1.1024(2) 0.3603(4) -0.2249(3)
O20B O 1.1564(2) 0.4705(4) -0.2718(3)
N5B N 0.9982(3) 0.4581(5) -0.2603(3)
C29B C 0.9438(3) 0.5042(6) -0.2767(4)
C30B C 0.9378(4) 0.5901(7) -0.3136(5)
H17B H 0.8995 0.6213 -0.3246
C31B C 0.9900(4) 0.6282(7) -0.3336(5)
H18B H 0.9873 0.6864 -0.3577
C32B C 1.0458(4) 0.5797(6) -0.3175(5)
H19B H 1.0810 0.6031 -0.3318
C33B C 1.0491(3) 0.4959(6) -0.2799(4)
C34B C 0.8912(4) 0.4522(7) -0.2547(4)
C35B C 1.1081(3) 0.4379(6) -0.2570(3)
O21B O 0.5764(3) 0.6630(5) -0.2994(3)
O22B O 0.6414(3) 0.5614(8) -0.3382(4)
O23B O 0.4025(2) 0.7897(5) -0.3925(3)
O24B O 0.3591(3) 0.7404(5) -0.4845(3)
N6B N 0.5054(3) 0.6901(6) -0.4019(3)
C36B C 0.5578(4) 0.6368(8) -0.4040(4)
C37B C 0.5732(5) 0.5997(10) -0.4564(5)
H20B H 0.6103 0.5650 -0.4570
C38B C 0.5318(6) 0.6154(12) -0.5091(6)
H21B H 0.5416 0.5933 -0.5458
C39B C 0.4767(5) 0.6633(10) -0.5068(5)
H22B H 0.4480 0.6716 -0.5415
C40B C 0.4644(4) 0.6992(8) -0.4524(4)
C41B C 0.5946(3) 0.6210(8) -0.3417(4)
C42B C 0.4037(3) 0.7480(6) -0.4427(4)
O17C O 0.4023(3) 0.1298(6) 0.2738(4)
O18C O 0.3393(3) 0.0067(5) 0.2341(3)
O19C O 0.6024(2) 0.1397(4) 0.2751(3)
O20C O 0.6564(2) 0.0295(4) 0.2282(3)
N5C N 0.4982(3) 0.0419(5) 0.2397(3)
C29C C 0.4438(3) -0.0042(6) 0.2233(4)
C30C C 0.4378(4) -0.0901(7) 0.1864(5)
H17C H 0.3995 -0.1213 0.1754
C31C C 0.4900(4) -0.1282(7) 0.1664(5)
H18C H 0.4873 -0.1864 0.1423
C32C C 0.5458(4) -0.0797(6) 0.1825(5)
H19C H 0.5810 -0.1031 0.1682
C33C C 0.5491(3) 0.0041(6) 0.2201(4)
C34C C 0.3912(4) 0.0478(7) 0.2453(4)
C35C C 0.6081(3) 0.0621(6) 0.2430(3)
O30C O 0.6485(2) 0.6340(4) 0.0227(2)
O9B O 1.2339(3) 0.3171(4) 0.0992(2)
O10B O 1.2124(3) 0.4390(5) 0.1622(2)
O11B O 1.2329(2) 0.3600(4) -0.0941(2)
O12B O 1.2094(3) 0.5042(4) -0.1456(2)
N3B N 1.2093(3) 0.4392(5) 0.0061(3)
C15B C 1.1952(4) 0.4757(6) 0.0583(3)
C16B C 1.1666(5) 0.5681(7) 0.0628(4)
H11B H 1.1567 0.5898 0.0996
C17B C 1.1523(6) 0.6298(8) 0.0115(5)
H12B H 1.1340 0.6939 0.0135
C18B C 1.1665(5) 0.5917(7) -0.0427(4)
H13B H 1.1562 0.6289 -0.0782
C19B C 1.1959(3) 0.4985(6) -0.0433(4)
C20B C 1.2153(3) 0.4050(6) 0.1103(3)
C21B C 1.2133(3) 0.4511(5) -0.0990(3)
O13B O 1.2620(3) 0.5801(4) 0.3523(2)
O14B O 1.2701(2) 0.5892(4) 0.4526(2)
O15B O 1.2539(3) 0.2837(4) 0.2547(2)
O16B O 1.2242(4) 0.1343(5) 0.2881(4)
N4B N 1.2396(3) 0.3793(5) 0.3540(3)
C22B C 1.2408(4) 0.4312(6) 0.4056(3)
C23B C 1.2215(5) 0.3850(7) 0.4547(4)
H14B H 1.2204 0.4224 0.4898
C24B C 1.2038(6) 0.2838(8) 0.4516(5)
H15B H 1.1903 0.2521 0.4843
C25B C 1.2063(6) 0.2291(8) 0.3984(5)
H16B H 1.1955 0.1601 0.3953
C26B C 1.2248(4) 0.2794(6) 0.3515(4)
C27B C 1.2592(3) 0.5430(6) 0.4037(3)
C28B C 1.2350(5) 0.2273(6) 0.2939(4)
O13A O 1.2380(3) 1.0801(4) 0.1477(2)
O14A O 1.2299(2) 1.0892(4) 0.0474(2)
O15A O 1.2461(3) 0.7837(4) 0.2453(2)
O16A O 1.2758(4) 0.6343(5) 0.2119(4)
N4A N 1.2604(3) 0.8793(5) 0.1460(3)
C22A C 1.2592(4) 0.9312(6) 0.0944(3)
C23A C 1.2785(5) 0.8850(7) 0.0453(4)
H14A H 1.2796 0.9224 0.0102
C24A C 1.2962(6) 0.7838(8) 0.0484(5)
H15A H 1.3097 0.7521 0.0157
C25A C 1.2937(6) 0.7291(8) 0.1016(5)
H16A H 1.3045 0.6601 0.1047
C26A C 1.2752(4) 0.7794(6) 0.1485(4)
C27A C 1.2408(3) 1.0430(6) 0.0963(3)
C28A C 1.2650(5) 0.7273(6) 0.2061(4)
O21_2 O 1.4236(3) 0.3370(5) 0.2994(3)
O22_2 O 1.3586(3) 0.4386(8) 0.3382(4)
O23_2 O 1.5975(2) 0.2103(5) 0.3925(3)
O24_2 O 1.6409(3) 0.2596(5) 0.4845(3)
N6_2 N 1.4946(3) 0.3099(6) 0.4019(3)
C36_2 C 1.4422(4) 0.3632(8) 0.4040(4)
C37_2 C 1.4268(5) 0.4003(10) 0.4564(5)
H20_2 H 1.3897 0.4350 0.4570
C38_2 C 1.4682(6) 0.3846(12) 0.5091(6)
H21_2 H 1.4584 0.4067 0.5458
C39_2 C 1.5233(5) 0.3367(10) 0.5068(5)
H22_2 H 1.5520 0.3284 0.5415
C40_2 C 1.5356(4) 0.3008(8) 0.4524(4)
C41_2 C 1.4054(3) 0.3790(8) 0.3417(4)
C42_2 C 1.5963(3) 0.2520(6) 0.4427(4)
O39B O 1.3754(7) 0.5741(14) 0.2699(8)
O40B O 1.3460(2) 0.3970(5) 0.2010(3)
Nd1B Nd 1.264270(17) 0.51443(3) -0.231799(17)
Nd2A Nd 1.254320(17) 0.25328(3) -0.001540(16)
Nd2_2 Nd 0.754320(17) 0.24672(3) -0.501540(16)
Nd2C_2 Nd 0.745680(17) -0.25328(3) 0.001540(16)
Nd2B Nd 1.245680(17) 0.75328(3) 0.501540(16)
Nd2A_2 Nd 1.254320(17) 1.25328(3) -0.001540(16)
Nd2B_2 Nd 0.245680(17) 0.75328(3) -0.498460(16)
Nd2_3 Nd 1.754320(17) 0.24672(3) 0.498460(16)
Nd3C Nd 0.767690(17) 0.02769(3) 0.761780(17)
Nd3_2 Nd 0.732310(17) 0.52769(3) 0.738220(17)
Nd3C_2 Nd 0.767690(17) 0.02769(3) -0.238220(17)
Nd3A Nd 1.232310(17) 0.97231(3) 0.238220(17)
Nd3C_3 Nd 0.767690(17) 1.02769(3) 0.761780(17)
Nd3C_4 Nd 0.767690(17) 1.02769(3) -0.238220(17)
Nd3A_2 Nd 1.232310(17) -0.02769(3) 0.238220(17)
Nd3A_3 Nd 0.232310(17) -0.02769(3) 0.238220(17)
Nd3B_2 Nd 0.267690(17) 0.47231(3) 0.261780(17)
Nd4A Nd 1.007700(18) 0.29222(3) -0.194640(18)
Nd4B Nd 0.492300(18) 0.79222(3) -0.305360(18)
Nd4_2 Nd 1.507700(18) 0.20778(3) 0.305360(18)
Mo1C Mo 0.88654(3) 0.14819(5) 0.40247(3)
Mo2B Mo 0.51270(3) 0.36585(5) 0.01446(3)
Mo3C Mo 0.87418(3) 0.00510(5) 0.51761(3)
O27B O 0.4476(2) 0.4831(4) -0.0434(2)
O33B O 0.5618(2) 0.4005(4) -0.0490(2)
O37B O 0.4574(2) 0.4090(4) 0.0691(2)
O1B O 1.2566(2) 0.3259(4) -0.2347(2)
O2B O 1.2917(3) 0.1701(4) -0.2511(3)
O3B O 1.3504(2) 0.6178(4) -0.2632(2)
O4B O 1.4396(3) 0.6308(4) -0.2999(3)
N1B N 1.3542(3) 0.4154(5) -0.2685(3)
C1B C 1.3522(4) 0.3137(6) -0.2710(4)
C2B C 1.3983(4) 0.2568(7) -0.2909(5)
H5B H 1.3959 0.1856 -0.2925
C3B C 1.4484(5) 0.3076(7) -0.3084(6)
H6B H 1.4797 0.2711 -0.3227
C4B C 1.4512(4) 0.4138(8) -0.3041(5)
H7B H 1.4853 0.4497 -0.3134
C5B C 1.4015(3) 0.4647(6) -0.2856(3)
C6B C 1.2960(3) 0.2655(6) -0.2507(3)
C7B C 1.3972(3) 0.5803(6) -0.2820(3)
O1A O 1.2434(2) 0.8259(4) -0.2653(2)
O2A O 1.2083(3) 0.6701(4) -0.2489(3)
O3A O 1.1496(2) 1.1178(4) -0.2368(2)
O4A O 1.0604(3) 1.1308(4) -0.2001(3)
N1A N 1.1458(3) 0.9154(5) -0.2315(3)
C1A C 1.1478(4) 0.8137(6) -0.2290(4)
C2A C 1.1017(4) 0.7568(7) -0.2091(5)
H5A H 1.1041 0.6856 -0.2075
C3A C 1.0516(5) 0.8076(7) -0.1916(6)
H6A H 1.0203 0.7711 -0.1773
C4A C 1.0488(4) 0.9138(8) -0.1959(5)
H7A H 1.0147 0.9497 -0.1866
C5A C 1.0985(3) 0.9647(6) -0.2144(3)
C6A C 1.2040(3) 0.7655(6) -0.2493(3)
C7A C 1.1028(3) 1.0803(6) -0.2180(3)
O5B O 1.2694(2) 0.6470(4) -0.4047(2)
O6B O 1.2490(3) 0.5205(4) -0.3429(2)
O7B O 1.1575(3) 0.7194(4) -0.5798(2)
O8B O 1.0662(3) 0.6458(5) -0.6152(3)
N2B N 1.1675(3) 0.6107(5) -0.4802(3)
C8B C 1.1782(3) 0.5496(6) -0.4305(3)
C9B C 1.1399(4) 0.4684(6) -0.4220(4)
H8B H 1.1490 0.4260 -0.3885
C10B C 1.0870(4) 0.4512(7) -0.4648(4)
H9B H 1.0587 0.4001 -0.4591
C11B C 1.0781(4) 0.5119(6) -0.5150(4)
H10B H 1.0448 0.4993 -0.5451
C12B C 1.1181(3) 0.5918(6) -0.5215(3)
C13B C 1.2365(3) 0.5747(6) -0.3890(3)
C14B C 1.1120(4) 0.6582(6) -0.5765(3)
O25B O 1.3416(2) 0.4387(4) -0.1415(2)
O38B O 1.3127(3) 0.6507(5) -0.1523(3)
H1B H 1.3196 0.6515 -0.1145
H2B H 1.3342 0.6944 -0.1616
O5B_2 O 1.2694(2) 0.6470(4) 0.5953(2)
O6B_2 O 1.2490(3) 0.5205(4) 0.6571(2)
O7B_2 O 1.1575(3) 0.7194(4) 0.4202(2)
O8B_2 O 1.0662(3) 0.6458(5) 0.3848(3)
N2B_2 N 1.1675(3) 0.6107(5) 0.5198(3)
C8B_2 C 1.1782(3) 0.5496(6) 0.5695(3)
C9B_2 C 1.1399(4) 0.4684(6) 0.5780(4)
H8B_2 H 1.1490 0.4260 0.6115
C10B_2 C 1.0870(4) 0.4512(7) 0.5352(4)
H9B_2 H 1.0587 0.4001 0.5409
C11B_2 C 1.0781(4) 0.5119(6) 0.4850(4)
H10B_2 H 1.0448 0.4993 0.4549
C12B_2 C 1.1181(3) 0.5918(6) 0.4785(3)
C13B_2 C 1.2365(3) 0.5747(6) 0.6110(3)
C14B_2 C 1.1120(4) 0.6582(6) 0.4235(3)
O9A O 1.2661(3) 0.8171(4) 0.4008(2)
O10A O 1.2876(3) 0.9390(5) 0.3378(2)
O11A O 1.2671(2) 0.8600(4) 0.5941(2)
O12A O 1.2906(3) 1.0042(4) 0.6456(2)
N3A N 1.2907(3) 0.9392(5) 0.4939(3)
C15A C 1.3048(4) 0.9757(6) 0.4417(3)
C16A C 1.3334(5) 1.0681(7) 0.4372(4)
H11A H 1.3433 1.0898 0.4004
C17A C 1.3477(6) 1.1298(8) 0.4885(5)
H12A H 1.3660 1.1939 0.4865
C18A C 1.3335(5) 1.0917(7) 0.5427(4)
H13A H 1.3438 1.1289 0.5782
C19A C 1.3041(3) 0.9985(6) 0.5433(4)
C20A C 1.2847(3) 0.9050(6) 0.3897(3)
C21A C 1.2867(3) 0.9511(5) 0.5990(3)
O21B_2 O 1.5764(3) 0.6630(5) 0.7006(3)
O22B_2 O 1.6414(3) 0.5614(8) 0.6618(4)
O23B_2 O 1.4025(2) 0.7897(5) 0.6075(3)
O24B_2 O 1.3591(3) 0.7404(5) 0.5155(3)
N6B_2 N 1.5054(3) 0.6901(6) 0.5981(3)
C36B_2 C 1.5578(4) 0.6368(8) 0.5960(4)
C37B_2 C 1.5732(5) 0.5997(10) 0.5436(5)
H20B_2 H 1.6103 0.5650 0.5430
C38B_2 C 1.5318(6) 0.6154(12) 0.4909(6)
H21B_2 H 1.5416 0.5933 0.4542
C39B_2 C 1.4767(5) 0.6633(10) 0.4932(5)
H22B_2 H 1.4480 0.6716 0.4585
C40B_2 C 1.4644(4) 0.6992(8) 0.5476(4)
C41B_2 C 1.5946(3) 0.6210(8) 0.6583(4)
C42B_2 C 1.4037(3) 0.7480(6) 0.5573(4)
O30B O 1.1485(2) 0.8660(4) 0.5227(2)
O1B_2 O 0.2566(2) 0.3259(4) -0.2347(2)
O2B_2 O 0.2917(3) 0.1701(4) -0.2511(3)
O3B_2 O 0.3504(2) 0.6178(4) -0.2632(2)
O4B_2 O 0.4396(3) 0.6308(4) -0.2999(3)
N1B_2 N 0.3542(3) 0.4154(5) -0.2685(3)
C1B_2 C 0.3522(4) 0.3137(6) -0.2710(4)
C2B_2 C 0.3983(4) 0.2568(7) -0.2909(5)
H5B_2 H 0.3959 0.1856 -0.2925
C3B_2 C 0.4484(5) 0.3076(7) -0.3084(6)
H6B_2 H 0.4797 0.2711 -0.3227
C4B_2 C 0.4512(4) 0.4138(8) -0.3041(5)
H7B_2 H 0.4853 0.4497 -0.3134
C5B_2 C 0.4015(3) 0.4647(6) -0.2856(3)
C6B_2 C 0.2960(3) 0.2655(6) -0.2507(3)
C7B_2 C 0.3972(3) 0.5803(6) -0.2820(3)
O17A O 0.5977(3) 0.8702(6) -0.2738(4)
O18A O 0.6607(3) 0.9933(5) -0.2341(3)
O19A O 0.3976(2) 0.8603(4) -0.2751(3)
O20A O 0.3436(2) 0.9705(4) -0.2282(3)
N5A N 0.5018(3) 0.9581(5) -0.2397(3)
C29A C 0.5562(3) 1.0042(6) -0.2233(4)
C30A C 0.5622(4) 1.0901(7) -0.1864(5)
H17A H 0.6005 1.1213 -0.1754
C31A C 0.5100(4) 1.1282(7) -0.1664(5)
H18A H 0.5127 1.1864 -0.1423
C32A C 0.4542(4) 1.0797(6) -0.1825(5)
H19A H 0.4190 1.1031 -0.1682
C33A C 0.4509(3) 0.9959(6) -0.2201(4)
C34A C 0.6088(4) 0.9522(7) -0.2453(4)
C35A C 0.3919(3) 0.9379(6) -0.2430(3)
O41B O 0.5125(3) 0.7394(5) -0.2009(3)
H3B H 0.491(4) 0.695(7) -0.186(5)
H4B H 0.525(5) 0.783(7) -0.174(4)
O42B O 0.5164(9) 0.9210(15) -0.3796(9)
O31B O 0.4627(3) 0.2786(4) -0.0275(2)
O32B O 0.5642(2) 0.2939(4) 0.0605(3)
Nd1A Nd 1.235730(17) 1.01443(3) -0.268201(17)
Nd1B_2 Nd 0.264270(17) 0.51443(3) -0.231799(17)
Nd1A_2 Nd 1.235730(17) 0.01443(3) -0.268201(17)
Nd1A_3 Nd 0.235730(17) 0.01443(3) -0.268201(17)
Nd1B_3 Nd 1.264270(17) 0.51443(3) 0.768201(17)
Nd1A_4 Nd 1.235730(17) 1.01443(3) 0.731799(17)
Nd1A_5 Nd 0.235730(17) 1.01443(3) -0.268201(17)
Nd2B_3 Nd 1.245680(17) 0.75328(3) -0.498460(16)
Nd3_3 Nd 1.732310(17) 0.52769(3) 0.738220(17)
Nd4B_2 Nd 1.492300(18) 0.79222(3) -0.305360(18)
Nd4A_2 Nd 1.007700(18) 1.29222(3) -0.194640(18)
Nd4B_3 Nd 1.492300(18) 0.79222(3) 0.694640(18)
Mo1B Mo 1.38654(3) 0.35181(5) -0.09753(3)
Mo1B_2 Mo 0.38654(3) 0.35181(5) -0.09753(3)
Mo1A Mo 1.11346(3) 0.85181(5) 0.59753(3)
Mo3B Mo 0.37418(3) 0.49490(5) 0.01761(3)
Mo3A Mo 1.12582(3) 0.99490(5) 0.48239(3)
Mo4B Mo 0.50307(3) 0.48366(5) -0.12649(3)
O27B_2 O 1.4476(2) 0.4831(4) -0.0434(2)
O28B O 1.3583(3) 0.2364(4) -0.1221(2)
O30A O 1.3515(2) 0.3660(4) -0.0227(2)
O31B_2 O 1.4627(3) 0.2786(4) -0.0275(2)
O34B O 1.4581(2) 0.3611(4) -0.1375(2)
O29B O 0.3378(2) 0.4826(4) 0.0789(2)
O30A_2 O 0.3515(2) 0.3660(4) -0.0227(2)
O36B O 0.3282(2) 0.5761(4) -0.0289(3)
O26B O 0.4512(3) 0.5679(5) -0.1633(2)
O34B_2 O 0.4581(2) 0.3611(4) -0.1375(2)
O35B O 0.5572(3) 0.4672(5) -0.1723(3)
Nd2A_3 Nd 0.254320(17) 0.25328(3) -0.001540(16)
Mo2B_2 Mo 1.51270(3) 0.36585(5) 0.01446(3)
Mo2_2 Mo 1.48730(3) 0.63415(5) -0.01446(3)
Mo3B_2 Mo 1.37418(3) 0.49490(5) 0.01761(3)
Mo4B_2 Mo 1.50307(3) 0.48366(5) -0.12649(3)
O44 O 0.7631(8) 0.1893(11) 0.1057(7)
H23 H 0.746(11) 0.144(15) 0.124(11)
H24 H 0.741(10) 0.211(19) 0.074(7)
O45 O 0.8820(6) 0.8015(10) -0.1377(7)
H25 H 0.8638 0.7410 -0.1589
H26 H 0.9043 0.8191 -0.1703
O46 O 1.0746(6) 0.3955(11) 0.1415(7)
O49 O 1.0000 0.5000 0.0000
O50 O 1.1481(12) 0.9732(19) -0.0591(12)
O51 O 0.6038(18) 0.282(3) 0.1744(18)
Na1 Na 0.68381(13) 0.2394(2) 0.32475(13)
O43? O 0.9927(9) 0.5520(15) 0.1234(10)
O47? O 1.0119(4) 0.4724(6) 0.0830(3)
O48? O 0.9590(14) 0.570(3) -0.0014(15)
loop_
_geom_bond_atom_site_label_1
_geom_bond_atom_site_label_2
_geom_bond_site_symmetry_1
_geom_bond_site_symmetry_2
Nd1 O1 1_555 1_555
Nd2 O5 1_555 1_555
Nd3 O10 1_555 1_555
Nd4 O4 1_555 1_555
Mo1 O25 1_555 1_555
Mo2 O27 1_555 1_555
Mo3 O27 1_555 1_555
Mo4 O26 1_555 1_555
O1 C6 1_555 1_555
O2 C6 1_555 1_555
O3 Nd1 1_555 1_555
O4 C7 1_555 1_555
O5 C13 1_555 1_555
O6 Nd1 1_555 1_555
O7 Nd2 1_555 1_555
O8 C14 1_555 1_555
O9 C20 1_555 1_555
O10 C20 1_555 1_555
O11 C21 1_555 1_555
O12 Nd1 1_555 1_555
O13 C27 1_555 1_555
O14 Nd2 1_555 1_555
O15 C28 1_555 1_555
O16 C28 1_555 1_555
O17 C34 1_555 1_555
O18 C34 1_555 1_555
O19 C35 1_555 1_555
O20 Nd1 1_555 1_555
O21 Nd4 1_555 1_555
O22 C41 1_555 1_555
O23 Nd4 1_555 1_555
O24 Nd2 1_555 1_555
O25 Nd1 1_555 1_555
O27 Mo1 1_555 1_555
O28 Mo1 1_555 1_555
O29 Mo3 1_555 1_555
O30 Nd2 1_555 1_555
O31 Mo1 1_555 1_555
O32 Mo2 1_555 1_555
O33 Mo2 1_555 1_555
O34 Mo1 1_555 1_555
O35 Mo4 1_555 1_555
O36 Mo3 1_555 1_555
O37 Mo2 1_555 1_555
O38 Nd1 1_555 1_555
H1 O38 1_555 1_555
H2 O38 1_555 1_555
O39 Nd3 1_555 1_555
O40 Nd3 1_555 1_555
O41 Nd4 1_555 1_555
H3 O41 1_555 1_555
H4 O41 1_555 1_555
O42 Nd4 1_555 1_555
N1 Nd1 1_555 1_555
N2 Nd2 1_555 1_555
N3 C15 1_555 1_555
N4 C22 1_555 1_555
N5 C29 1_555 1_555
C1 N1 1_555 1_555
C2 C1 1_555 1_555
H5 C2 1_555 1_555
C3 C2 1_555 1_555
H6 C3 1_555 1_555
C4 C3 1_555 1_555
H7 C4 1_555 1_555
C5 N1 1_555 1_555
C6 C1 1_555 1_555
C7 O3 1_555 1_555
C8 N2 1_555 1_555
C9 C8 1_555 1_555
H8 C9 1_555 1_555
C10 C9 1_555 1_555
H9 C10 1_555 1_555
C11 C10 1_555 1_555
H10 C11 1_555 1_555
C12 N2 1_555 1_555
C13 O6 1_555 1_555
C14 O7 1_555 1_555
C15 C16 1_555 1_555
C16 H11 1_555 1_555
C17 C16 1_555 1_555
H12 C17 1_555 1_555
C18 C17 1_555 1_555
H13 C18 1_555 1_555
C19 N3 1_555 1_555
C20 C15 1_555 1_555
C21 O12 1_555 1_555
C22 C23 1_555 1_555
C23 H14 1_555 1_555
C24 C23 1_555 1_555
H15 C24 1_555 1_555
C25 C24 1_555 1_555
H16 C25 1_555 1_555
C26 N4 1_555 1_555
C27 O14 1_555 1_555
C28 C26 1_555 1_555
C29 C30 1_555 1_555
C30 H17 1_555 1_555
C31 C30 1_555 1_555
H18 C31 1_555 1_555
C32 C31 1_555 1_555
H19 C32 1_555 1_555
C33 N5 1_555 1_555
C34 C29 1_555 1_555
C35 O20 1_555 1_555
N6 Nd4 1_555 1_555
C36 N6 1_555 1_555
C37 C36 1_555 1_555
H20 C37 1_555 1_555
C38 C37 1_555 1_555
H21 C38 1_555 1_555
C39 C38 1_555 1_555
H22 C39 1_555 1_555
C40 N6 1_555 1_555
C41 O21 1_555 1_555
C42 O23 1_555 1_555
O44 H23 1_555 1_555
H24 O44 1_555 1_555
O45 H25 1_555 1_555
H26 O45 1_555 1_555
O1C C6C 1_555 1_555
O2C Nd1 1_555 1_555
O3C C7C 1_555 1_555
O4C C7C 1_555 1_555
N1C C1C 1_555 1_555
C1C C2C 1_555 1_555
C2C H5C 1_555 1_555
C3C C2C 1_555 1_555
H6C C3C 1_555 1_555
C4C C3C 1_555 1_555
H7C C4C 1_555 1_555
C5C N1C 1_555 1_555
C6C O2C 1_555 1_555
C7C C5C 1_555 1_555
Nd1C O1C 1_555 1_555
Nd1C_2 O2 1_555 1_555
Nd2C O9 1_555 1_555
Nd3B O18 1_555 1_555
Nd4C O4C 1_555 1_555
Nd4C_2 O17 1_555 1_555
O9C Nd2 1_555 1_555
O10C C20C 1_555 1_555
O11C Nd2 1_555 1_555
O12C Nd1C 1_555 1_555
N3C Nd2 1_555 1_555
C15C N3C 1_555 1_555
C16C C15C 1_555 1_555
H11C C16C 1_555 1_555
C17C C16C 1_555 1_555
H12C C17C 1_555 1_555
C18C C17C 1_555 1_555
H13C C18C 1_555 1_555
C19C N3C 1_555 1_555
C20C O9C 1_555 1_555
C21C O11C 1_555 1_555
O13_2 Nd3 1_555 1_555
O14_2 C27_2 1_555 1_555
O15_2 Nd3 1_555 1_555
O16_2 C28_2 1_555 1_555
N4_2 Nd3 1_555 1_555
C22_2 N4_2 1_555 1_555
C23_2 C22_2 1_555 1_555
H14_2 C23_2 1_555 1_555
C24_2 C23_2 1_555 1_555
H15_2 C24_2 1_555 1_555
C25_2 C24_2 1_555 1_555
H16_2 C25_2 1_555 1_555
C26_2 N4_2 1_555 1_555
C27_2 O13_2 1_555 1_555
C28_2 O15_2 1_555 1_555
O13C C27C 1_555 1_555
O14C C27C 1_555 1_555
O15C C28C 1_555 1_555
O16C Nd3 1_555 1_555
N4C C22C 1_555 1_555
C22C C23C 1_555 1_555
C23C H14C 1_555 1_555
C24C C23C 1_555 1_555
H15C C24C 1_555 1_555
C25C C24C 1_555 1_555
H16C C25C 1_555 1_555
C26C N4C 1_555 1_555
C27C C22C 1_555 1_555
C28C O16C 1_555 1_555
O17B C34B 1_555 1_555
O18B Nd3 1_555 1_555
O19B C35B 1_555 1_555
O20B C35B 1_555 1_555
N5B C29B 1_555 1_555
C29B C30B 1_555 1_555
C30B H17B 1_555 1_555
C31B C30B 1_555 1_555
H18B C31B 1_555 1_555
C32B C31B 1_555 1_555
H19B C32B 1_555 1_555
C33B N5B 1_555 1_555
C34B O18B 1_555 1_555
C35B C33B 1_555 1_555
O21B C41B 1_555 1_555
O22B Nd3 1_555 1_555
O23B C42B 1_555 1_555
O24B C42B 1_555 1_555
N6B C36B 1_555 1_555
C36B C37B 1_555 1_555
C37B H20B 1_555 1_555
C38B C37B 1_555 1_555
H21B C38B 1_555 1_555
C39B C38B 1_555 1_555
H22B C39B 1_555 1_555
C40B N6B 1_555 1_555
C41B O22B 1_555 1_555
C42B C40B 1_555 1_555
O17C Nd4 1_555 1_555
O18C C34C 1_555 1_555
O19C Nd4 1_555 1_555
O20C Nd1C 1_555 1_555
N5C Nd4 1_555 1_555
C29C N5C 1_555 1_555
C30C C29C 1_555 1_555
H17C C30C 1_555 1_555
C31C C30C 1_555 1_555
H18C C31C 1_555 1_555
C32C C31C 1_555 1_555
H19C C32C 1_555 1_555
C33C N5C 1_555 1_555
C34C O17C 1_555 1_555
C35C O19C 1_555 1_555
O30C Mo1 1_555 1_555
O9B C20B 1_555 1_555
O10B Nd3B 1_555 1_555
O11B C21B 1_555 1_555
O12B C21B 1_555 1_555
N3B C15B 1_555 1_555
C15B C16B 1_555 1_555
C16B H11B 1_555 1_555
C17B C16B 1_555 1_555
H12B C17B 1_555 1_555
C18B C17B 1_555 1_555
H13B C18B 1_555 1_555
C19B N3B 1_555 1_555
C20B O10B 1_555 1_555
C21B C19B 1_555 1_555
O13B Nd3B 1_555 1_555
O14B C27B 1_555 1_555
O15B Nd3B 1_555 1_555
O16B C28B 1_555 1_555
N4B Nd3B 1_555 1_555
C22B N4B 1_555 1_555
C23B C22B 1_555 1_555
H14B C23B 1_555 1_555
C24B C23B 1_555 1_555
H15B C24B 1_555 1_555
C25B C24B 1_555 1_555
H16B C25B 1_555 1_555
C26B N4B 1_555 1_555
C27B O13B 1_555 1_555
C28B O15B 1_555 1_555
O13A C27A 1_555 1_555
O14A C27A 1_555 1_555
O15A C28A 1_555 1_555
O16A Nd3B 1_555 1_555
N4A C22A 1_555 1_555
C22A C23A 1_555 1_555
C23A H14A 1_555 1_555
C24A C23A 1_555 1_555
H15A C24A 1_555 1_555
C25A C24A 1_555 1_555
H16A C25A 1_555 1_555
C26A N4A 1_555 1_555
C27A C22A 1_555 1_555
C28A O16A 1_555 1_555
O21_2 C41_2 1_555 1_555
O22_2 Nd3B 1_555 1_555
O23_2 C42_2 1_555 1_555
O24_2 C42_2 1_555 1_555
N6_2 C36_2 1_555 1_555
C36_2 C37_2 1_555 1_555
C37_2 H20_2 1_555 1_555
C38_2 C37_2 1_555 1_555
H21_2 C38_2 1_555 1_555
C39_2 C38_2 1_555 1_555
H22_2 C39_2 1_555 1_555
C40_2 N6_2 1_555 1_555
C41_2 O22_2 1_555 1_555
C42_2 C40_2 1_555 1_555
O39B Nd3B 1_555 1_555
O40B Nd3B 1_555 1_555
Nd1B O20B 1_555 1_555
Nd2A O9B 1_555 1_555
Nd2_2 O14_2 1_555 1_555
Nd2C_2 O14C 1_555 1_555
Nd2B O14B 1_555 1_555
Nd2A_2 O14A 1_555 1_555
Nd2B_2 O24B 1_555 1_555
Nd2_3 O24_2 1_555 1_555
Nd3C O10C 1_555 1_555
Nd3_2 O13 1_555 1_555
Nd3C_2 O13C 1_555 1_555
Nd3A O13A 1_555 1_555
Nd3C_3 O16 1_555 1_555
Nd3C_4 O16_2 1_555 1_555
Nd3A_2 O16B 1_555 1_555
Nd3A_3 O18C 1_555 1_555
Nd3B_2 O22 1_555 1_555
Nd4A O17B 1_555 1_555
Nd4B O21B 1_555 1_555
Nd4_2 O21_2 1_555 1_555
Mo1C O30 1_555 1_555
Mo2B O27 1_555 1_555
Mo3C O30 1_555 1_555
O27B Mo2 1_555 1_555
O33B Mo3 1_555 1_555
O37B Mo4 1_555 1_555
O1B Nd1B 1_555 1_555
O2B C6B 1_555 1_555
O3B Nd1B 1_555 1_555
O4B C7B 1_555 1_555
N1B Nd1B 1_555 1_555
C1B N1B 1_555 1_555
C2B C1B 1_555 1_555
H5B C2B 1_555 1_555
C3B C2B 1_555 1_555
H6B C3B 1_555 1_555
C4B C3B 1_555 1_555
H7B C4B 1_555 1_555
C5B N1B 1_555 1_555
C6B O1B 1_555 1_555
C7B O3B 1_555 1_555
O1A C6A 1_555 1_555
O2A Nd1B 1_555 1_555
O3A C7A 1_555 1_555
O4A C7A 1_555 1_555
N1A C1A 1_555 1_555
C1A C2A 1_555 1_555
C2A H5A 1_555 1_555
C3A C2A 1_555 1_555
H6A C3A 1_555 1_555
C4A C3A 1_555 1_555
H7A C4A 1_555 1_555
C5A N1A 1_555 1_555
C6A O2A 1_555 1_555
C7A C5A 1_555 1_555
O5B C13B 1_555 1_555
O6B Nd1B 1_555 1_555
O7B C14B 1_555 1_555
O8B C14B 1_555 1_555
N2B C8B 1_555 1_555
C8B C9B 1_555 1_555
C9B H8B 1_555 1_555
C10B C9B 1_555 1_555
H9B C10B 1_555 1_555
C11B C10B 1_555 1_555
H10B C11B 1_555 1_555
C12B N2B 1_555 1_555
C13B O6B 1_555 1_555
C14B C12B 1_555 1_555
O25B Nd1B 1_555 1_555
O38B Nd1B 1_555 1_555
H1B O38B 1_555 1_555
H2B O38B 1_555 1_555
O5B_2 Nd2B 1_555 1_555
O6B_2 C13B_2 1_555 1_555
O7B_2 Nd2B 1_555 1_555
O8B_2 C14B_2 1_555 1_555
N2B_2 Nd2B 1_555 1_555
C8B_2 N2B_2 1_555 1_555
C9B_2 C8B_2 1_555 1_555
H8B_2 C9B_2 1_555 1_555
C10B_2 C9B_2 1_555 1_555
H9B_2 C10B_2 1_555 1_555
C11B_2 C10B_2 1_555 1_555
H10B_2 C11B_2 1_555 1_555
C12B_2 N2B_2 1_555 1_555
C13B_2 O5B_2 1_555 1_555
C14B_2 O7B_2 1_555 1_555
O9A Nd2B 1_555 1_555
O10A Nd3A 1_555 1_555
O11A Nd2B 1_555 1_555
O12A C21A 1_555 1_555
N3A Nd2B 1_555 1_555
C15A N3A 1_555 1_555
C16A C15A 1_555 1_555
H11A C16A 1_555 1_555
C17A C16A 1_555 1_555
H12A C17A 1_555 1_555
C18A C17A 1_555 1_555
H13A C18A 1_555 1_555
C19A N3A 1_555 1_555
C20A O9A 1_555 1_555
C21A O11A 1_555 1_555
O21B_2 C41B_2 1_555 1_555
O22B_2 C41B_2 1_555 1_555
O23B_2 C42B_2 1_555 1_555
O24B_2 Nd2B 1_555 1_555
N6B_2 C36B_2 1_555 1_555
C36B_2 C37B_2 1_555 1_555
C37B_2 H20B_2 1_555 1_555
C38B_2 C37B_2 1_555 1_555
H21B_2 C38B_2 1_555 1_555
C39B_2 C38B_2 1_555 1_555
H22B_2 C39B_2 1_555 1_555
C40B_2 N6B_2 1_555 1_555
C41B_2 C36B_2 1_555 1_555
C42B_2 O24B_2 1_555 1_555
O30B Nd2B 1_555 1_555
O1B_2 C6B_2 1_555 1_555
O2B_2 C6B_2 1_555 1_555
O3B_2 C7B_2 1_555 1_555
O4B_2 Nd4B 1_555 1_555
N1B_2 C1B_2 1_555 1_555
C1B_2 C2B_2 1_555 1_555
C2B_2 H5B_2 1_555 1_555
C3B_2 C2B_2 1_555 1_555
H6B_2 C3B_2 1_555 1_555
C4B_2 C3B_2 1_555 1_555
H7B_2 C4B_2 1_555 1_555
C5B_2 N1B_2 1_555 1_555
C6B_2 C1B_2 1_555 1_555
C7B_2 O4B_2 1_555 1_555
O17A Nd4B 1_555 1_555
O18A Nd3C_4 1_555 1_555
O19A Nd4B 1_555 1_555
O20A C35A 1_555 1_555
N5A Nd4B 1_555 1_555
C29A N5A 1_555 1_555
C30A C29A 1_555 1_555
H17A C30A 1_555 1_555
C31A C30A 1_555 1_555
H18A C31A 1_555 1_555
C32A C31A 1_555 1_555
H19A C32A 1_555 1_555
C33A N5A 1_555 1_555
C34A O17A 1_555 1_555
C35A O19A 1_555 1_555
O41B Nd4B 1_555 1_555
H3B O41B 1_555 1_555
H4B O41B 1_555 1_555
O42B Nd4B 1_555 1_555
O31B Mo2B 1_555 1_555
O32B Mo2B 1_555 1_555
Nd1A O1A 1_555 1_555
Nd1B_2 O1B_2 1_555 1_555
Nd1A_2 O2B 1_555 1_555
Nd1A_3 O2B_2 1_555 1_555
Nd1B_3 O6B_2 1_555 1_555
Nd1A_4 O12A 1_555 1_555
Nd1A_5 O20A 1_555 1_555
Nd2B_3 O5B 1_555 1_555
Nd3_3 O22B_2 1_555 1_555
Nd4B_2 O4B 1_555 1_555
Nd4A_2 O4A 1_555 1_555
Nd4B_3 O21B_2 1_555 1_555
Mo1B O25B 1_555 1_555
Mo1B_2 O27B 1_555 1_555
Mo1A O30B 1_555 1_555
Mo3B O33 1_555 1_555
Mo3A O30B 1_555 1_555
Mo4B O37 1_555 1_555
O27B_2 Mo1B 1_555 1_555
O28B Mo1B 1_555 1_555
O30A Nd2A 1_555 1_555
O31B_2 Mo1B 1_555 1_555
O34B Mo1B 1_555 1_555
O29B Mo3B 1_555 1_555
O30A_2 Mo1B_2 1_555 1_555
O36B Mo3B 1_555 1_555
O26B Mo4B 1_555 1_555
O34B_2 Mo1B_2 1_555 1_555
O35B Mo4B 1_555 1_555
Nd2A_3 O30A_2 1_555 1_555
Mo2B_2 O27B_2 1_555 1_555
Mo2_2 O27B_2 1_555 1_555
Mo3B_2 O27B_2 1_555 1_555
Mo4B_2 O27B_2 1_555 1_555
Mo2 O31 1_555 1_555
Mo3 O30C 1_555 1_555
Mo3 O37 1_555 1_555
Mo4 O27 1_555 1_555
Mo4 O34 1_555 1_555
Mo4 O33 1_555 1_555
O11 Nd2C 1_555 1_555
O15 Nd3_2 1_555 1_555
O19 Nd4C_2 1_555 1_555
O24 C42 1_555 1_555
N3 Nd2C 1_555 1_555
N4 Nd3_2 1_555 1_555
N5 Nd4C_2 1_555 1_555
C4 C5 1_555 1_555
C5 C7 1_555 1_555
C8 C13 1_555 1_555
C11 C12 1_555 1_555
C12 C14 1_555 1_555
C18 C19 1_555 1_555
C19 C21 1_555 1_555
C22 C27 1_555 1_555
C25 C26 1_555 1_555
C32 C33 1_555 1_555
C33 C35 1_555 1_555
C36 C41 1_555 1_555
C39 C40 1_555 1_555
C40 C42 1_555 1_555
O3C Nd1C 1_555 1_555
N1C Nd1C 1_555 1_555
C1C C6C 1_555 1_555
C4C C5C 1_555 1_555
Nd2C O30C 1_555 1_555
O12C C21C 1_555 1_555
C15C C20C 1_555 1_555
C18C C19C 1_555 1_555
C19C C21C 1_555 1_555
C22_2 C27_2 1_555 1_555
C25_2 C26_2 1_555 1_555
C26_2 C28_2 1_555 1_555
O15C Nd3C_2 1_555 1_555
N4C Nd3C_2 1_555 1_555
C25C C26C 1_555 1_555
C26C C28C 1_555 1_555
O19B Nd4A 1_555 1_555
N5B Nd4A 1_555 1_555
C29B C34B 1_555 1_555
C32B C33B 1_555 1_555
O23B Nd4B 1_555 1_555
N6B Nd4B 1_555 1_555
C36B C41B 1_555 1_555
C39B C40B 1_555 1_555
O20C C35C 1_555 1_555
C29C C34C 1_555 1_555
C32C C33C 1_555 1_555
C33C C35C 1_555 1_555
O11B Nd2A 1_555 1_555
O12B Nd1B 1_555 1_555
N3B Nd2A 1_555 1_555
C15B C20B 1_555 1_555
C18B C19B 1_555 1_555
C22B C27B 1_555 1_555
C25B C26B 1_555 1_555
C26B C28B 1_555 1_555
O15A Nd3A 1_555 1_555
N4A Nd3A 1_555 1_555
C25A C26A 1_555 1_555
C26A C28A 1_555 1_555
O23_2 Nd4_2 1_555 1_555
N6_2 Nd4_2 1_555 1_555
C36_2 C41_2 1_555 1_555
C39_2 C40_2 1_555 1_555
Mo2B O27B 1_555 1_555
Mo2B O33B 1_555 1_555
Mo2B O37B 1_555 1_555
O27B Mo3B 1_555 1_555
O27B Mo4B 1_555 1_555
O33B Mo4B 1_555 1_555
O37B Mo3B 1_555 1_555
C1B C6B 1_555 1_555
C4B C5B 1_555 1_555
C5B C7B 1_555 1_555
O3A Nd1A 1_555 1_555
N1A Nd1A 1_555 1_555
C1A C6A 1_555 1_555
C4A C5A 1_555 1_555
O7B Nd2B_3 1_555 1_555
N2B Nd2B_3 1_555 1_555
C8B C13B 1_555 1_555
C11B C12B 1_555 1_555
C8B_2 C13B_2 1_555 1_555
C11B_2 C12B_2 1_555 1_555
C12B_2 C14B_2 1_555 1_555
O10A C20A 1_555 1_555
C15A C20A 1_555 1_555
C18A C19A 1_555 1_555
C19A C21A 1_555 1_555
O23B_2 Nd4B_3 1_555 1_555
N6B_2 Nd4B_3 1_555 1_555
C39B_2 C40B_2 1_555 1_555
C40B_2 C42B_2 1_555 1_555
O3B_2 Nd1B_2 1_555 1_555
N1B_2 Nd1B_2 1_555 1_555
C4B_2 C5B_2 1_555 1_555
C5B_2 C7B_2 1_555 1_555
O18A C34A 1_555 1_555
C29A C34A 1_555 1_555
C32A C33A 1_555 1_555
C33A C35A 1_555 1_555
O31B Mo1B_2 1_555 1_555
Mo1B O30A 1_555 1_555
Mo3B O30A_2 1_555 1_555
Mo4B O34B_2 1_555 1_555
O30A Mo3B_2 1_555 1_555
O31B_2 Mo2B_2 1_555 1_555
O34B Mo4B_2 1_555 1_555

#END
