
#######################################################################
#
#                 Cambridge Crystallographic Data Centre
#                                CCDC 
#
#######################################################################
#
# If this CIF has been generated from an entry in the Cambridge 
# Structural Database, then it will include bibliographic, chemical, 
# crystal, experimental, refinement or atomic coordinate data resulting 
# from the CCDC's data processing and validation procedures.
#
#######################################################################

data_QAJLAP
_symmetry_cell_setting           monoclinic
_symmetry_space_group_name_H-M   'P 21/n'
_symmetry_Int_Tables_number      14
_space_group_name_Hall           '-P 2yn'
loop_
_symmetry_equiv_pos_site_id
_symmetry_equiv_pos_as_xyz
1 x,y,z
2 1/2+x,1/2-y,1/2+z
3 -x,-y,-z
4 1/2-x,1/2+y,1/2-z
_cell_length_a                   5.215(5)
_cell_length_b                   14.111(15)
_cell_length_c                   12.727(12)
_cell_angle_alpha                90
_cell_angle_beta                 93.646(16)
_cell_angle_gamma                90
_cell_volume                     934.67
loop_
_atom_site_label
_atom_site_type_symbol
_atom_site_fract_x
_atom_site_fract_y
_atom_site_fract_z
Mn1 Mn 0.35331(15) 0.76701(5) 0.52231(6)
P1 P 0.0486(3) 0.81844(10) 0.26807(10)
O1 O 0.2098(6) 0.7935(2) 0.3658(2)
O2 O 0.0222(6) 0.7454(2) 0.1816(2)
O3 O -0.2226(6) 0.8538(3) 0.3000(2)
H1 H -0.3122 0.8672 0.2468
O4 O -0.1128(6) 1.1543(2) 0.0356(2)
O5 O -0.2880(7) 1.0355(3) 0.1215(3)
O6 O -0.0842(7) 1.1158(3) 0.4234(3)
O7 O 0.3135(7) 1.1388(2) 0.5026(2)
O8 O 0.0920(8) 0.6556(3) 0.5532(3)
H2 H -0.040(9) 0.654(3) 0.515(3)
H3 H 0.163(10) 0.598(4) 0.560(4)
N1 N 0.1068(7) 1.0143(3) 0.2632(3)
H4 H -0.0575 1.0076 0.2823
C1 C 0.1792(10) 0.9238(4) 0.2090(3)
H5 H 0.3650 0.9187 0.2116
H6 H 0.1175 0.9269 0.1355
C2 C 0.1113(10) 1.0969(4) 0.1899(4)
H7 H 0.2696 1.0960 0.1538
H8 H 0.1067 1.1553 0.2299
C3 C -0.1160(10) 1.0939(4) 0.1097(4)
C4 C 0.2732(9) 1.0318(4) 0.3616(3)
H9 H 0.4388 1.0556 0.3428
H10 H 0.3019 0.9723 0.3988
C5 C 0.1534(10) 1.1026(4) 0.4341(4)
O2A O 0.5222(6) 0.7546(2) 0.6816(2)
O4C O 0.6128(6) 0.6543(2) 0.4644(2)
O6B O 0.0842(7) 0.8842(3) 0.5766(3)
O7B O 0.6865(7) 0.8612(2) 0.4974(2)
Mn1A Mn -0.14669(15) 0.73299(5) 0.02231(6)
Mn1C Mn 0.14669(15) 1.26701(5) -0.02231(6)
Mn1B Mn -0.35331(15) 1.23299(5) 0.47769(6)
Mn1B_2 Mn 0.64669(15) 1.23299(5) 0.47769(6)
loop_
_geom_bond_atom_site_label_1
_geom_bond_atom_site_label_2
_geom_bond_site_symmetry_1
_geom_bond_site_symmetry_2
Mn1 O1 1_555 1_555
P1 O1 1_555 1_555
O2 P1 1_555 1_555
O3 P1 1_555 1_555
H1 O3 1_555 1_555
O4 C3 1_555 1_555
O5 C3 1_555 1_555
O6 C5 1_555 1_555
O7 C5 1_555 1_555
O8 Mn1 1_555 1_555
H2 O8 1_555 1_555
H3 O8 1_555 1_555
N1 H4 1_555 1_555
C1 P1 1_555 1_555
H5 C1 1_555 1_555
H6 C1 1_555 1_555
C2 N1 1_555 1_555
H7 C2 1_555 1_555
H8 C2 1_555 1_555
C3 C2 1_555 1_555
C4 N1 1_555 1_555
H9 C4 1_555 1_555
H10 C4 1_555 1_555
C5 C4 1_555 1_555
O2A Mn1 1_555 1_555
O4C Mn1 1_555 1_555
O6B Mn1 1_555 1_555
O7B Mn1 1_555 1_555
Mn1A O2 1_555 1_555
Mn1C O4 1_555 1_555
Mn1B O6 1_555 1_555
Mn1B_2 O7 1_555 1_555
N1 C1 1_555 1_555

#END
