
#######################################################################
#
#                 Cambridge Crystallographic Data Centre
#                                CCDC 
#
#######################################################################
#
# If this CIF has been generated from an entry in the Cambridge 
# Structural Database, then it will include bibliographic, chemical, 
# crystal, experimental, refinement or atomic coordinate data resulting 
# from the CCDC's data processing and validation procedures.
#
#######################################################################

data_QAJMUJ
_symmetry_cell_setting           monoclinic
_symmetry_space_group_name_H-M   'C 2/m'
_symmetry_Int_Tables_number      12
_space_group_name_Hall           '-C 2y'
loop_
_symmetry_equiv_pos_site_id
_symmetry_equiv_pos_as_xyz
1 x,y,z
2 1/2+x,1/2+y,z
3 x,-y,z
4 1/2+x,1/2-y,z
5 -x,-y,-z
6 1/2-x,1/2-y,-z
7 -x,y,-z
8 1/2-x,1/2+y,-z
_cell_length_a                   16.793(3)
_cell_length_b                   20.806(4)
_cell_length_c                   8.4450(17)
_cell_angle_alpha                90.00
_cell_angle_beta                 95.54(3)
_cell_angle_gamma                90.00
_cell_volume                     2936.86
loop_
_atom_site_label
_atom_site_type_symbol
_atom_site_fract_x
_atom_site_fract_y
_atom_site_fract_z
Rh1 Rh -0.22834(2) 0.198650(17) -0.44648(4)
O1 O -0.2857(2) 0.21986(17) -0.2514(4)
O2 O -0.1266(2) 0.24324(17) -0.3486(4)
O3 O 0.1749(2) -0.18328(17) 0.6509(4)
O4 O 0.3319(2) -0.16030(16) 0.5510(4)
F1 F -0.0394(4) 0.3336(4) -0.1456(6)
F2 F -0.0341(3) 0.3941(3) -0.3474(7)
F3 F -0.4369(3) 0.3029(2) -0.1344(6)
F4 F -0.3253(3) 0.3363(2) -0.0217(5)
F5 F 0.0214(3) 0.3035(3) -0.3393(8)
F6 F -0.3581(3) 0.2373(3) -0.0034(5)
N1 N 0.1891(2) 0.10618(19) 0.3477(5)
C1 C 0.1312(4) 0.0000 0.2324(7)
C2 C -0.1191(3) 0.3028(3) -0.3732(6)
C3 C 0.0651(4) 0.0000 0.1163(7)
C4 C 0.1649(3) 0.0590(2) 0.2969(5)
C5 C -0.3202(3) 0.2736(3) -0.2474(6)
C6 C -0.0431(4) 0.3337(3) -0.2958(7)
C7 C -0.3601(4) 0.2874(3) -0.0977(7)
C11 C 0.0317(3) 0.0595(2) 0.0563(5)
H5 H 0.0535 0.0983 0.0946
C11F C -0.0317(3) 0.0595(2) -0.0563(5)
C3F C -0.0651(4) 0.0000 -0.1163(7)
C1F C -0.1312(4) 0.0000 -0.2324(7)
C4F C -0.1649(3) 0.0590(2) -0.2969(5)
N1F N -0.1891(2) 0.10618(19) -0.3477(5)
C4D C -0.1649(3) -0.0590(2) -0.2969(5)
N1D N -0.1891(2) -0.10618(19) -0.3477(5)
C11D C -0.0317(3) -0.0595(2) -0.0563(5)
C11B C 0.0317(3) -0.0595(2) 0.0563(5)
H5B H 0.0535 -0.0983 0.0946
H5D H -0.0535 -0.0983 -0.0946
H5F H -0.0535 0.0983 -0.0946
C4B C 0.1649(3) -0.0590(2) 0.2969(5)
N1B N 0.1891(2) -0.10618(19) 0.3477(5)
Rh1F Rh 0.22834(2) 0.198650(17) 0.44648(4)
Rh1B Rh -0.22834(2) -0.198650(17) -0.44648(4)
Rh1D Rh 0.22834(2) -0.198650(17) 0.44648(4)
Rh1E Rh -0.27166(2) 0.301350(17) -0.55352(4)
O3D O -0.1749(2) 0.18328(17) -0.6509(4)
O4D O -0.3319(2) 0.16030(16) -0.5510(4)
Rh1G Rh -0.27166(2) -0.301350(17) -0.55352(4)
O1B O -0.2857(2) -0.21986(17) -0.2514(4)
O2B O -0.1266(2) -0.24324(17) -0.3486(4)
O3F O -0.1749(2) -0.18328(17) -0.6509(4)
O4F O -0.3319(2) -0.16030(16) -0.5510(4)
Rh1A Rh 0.27166(2) -0.301350(17) 0.55352(4)
O1D O 0.2857(2) -0.21986(17) 0.2514(4)
O2D O 0.1266(2) -0.24324(17) 0.3486(4)
O1E O -0.2143(2) 0.28014(17) -0.7486(4)
O2E O -0.3734(2) 0.25676(17) -0.6514(4)
O3A O -0.3251(2) 0.31672(17) -0.3491(4)
O4A O -0.1681(2) 0.33970(16) -0.4490(4)
N1C N -0.3109(2) 0.39382(19) -0.6523(5)
O1G O -0.2143(2) -0.28014(17) -0.7486(4)
O2G O -0.3734(2) -0.25676(17) -0.6514(4)
O3C O -0.3251(2) -0.31672(17) -0.3491(4)
O4C O -0.1681(2) -0.33970(16) -0.4490(4)
N1A N -0.3109(2) -0.39382(19) -0.6523(5)
C5B C -0.3202(3) -0.2736(3) -0.2474(6)
C2B C -0.1191(3) -0.3028(3) -0.3732(6)
O1A O 0.2143(2) -0.28014(17) 0.7486(4)
O2A O 0.3734(2) -0.25676(17) 0.6514(4)
O3E O 0.3251(2) -0.31672(17) 0.3491(4)
O4E O 0.1681(2) -0.33970(16) 0.4490(4)
N1G N 0.3109(2) -0.39382(19) 0.6523(5)
C5D C 0.3202(3) -0.2736(3) 0.2474(6)
C2D C 0.1191(3) -0.3028(3) 0.3732(6)
C5A C 0.1798(3) -0.2264(3) 0.7526(6)
C2A C 0.3809(3) -0.1972(3) 0.6268(6)
C7B C -0.3601(4) -0.2874(3) -0.0977(7)
C6B C -0.0431(4) -0.3337(3) -0.2958(7)
C7D C 0.3601(4) -0.2874(3) 0.0977(7)
C6D C 0.0431(4) -0.3337(3) 0.2958(7)
C7A C 0.1399(4) -0.2126(3) 0.9023(7)
C6A C 0.4569(4) -0.1663(3) 0.7042(7)
F3B F -0.4369(3) -0.3029(2) -0.1344(6)
F4B F -0.3253(3) -0.3363(2) -0.0217(5)
F6B F -0.3581(3) -0.2373(3) -0.0034(5)
F1B F -0.0394(4) -0.3336(4) -0.1456(6)
F2B F -0.0341(3) -0.3941(3) -0.3474(7)
F5B F 0.0214(3) -0.3035(3) -0.3393(8)
F3D F 0.4369(3) -0.3029(2) 0.1344(6)
F4D F 0.3253(3) -0.3363(2) 0.0217(5)
F6D F 0.3581(3) -0.2373(3) 0.0034(5)
F1D F 0.0394(4) -0.3336(4) 0.1456(6)
F2D F 0.0341(3) -0.3941(3) 0.3474(7)
F5D F -0.0214(3) -0.3035(3) 0.3393(8)
F3A F 0.0631(3) -0.1971(2) 0.8656(6)
F4A F 0.1747(3) -0.1637(2) 0.9783(5)
F6A F 0.1419(3) -0.2627(3) 0.9966(5)
F1A F 0.4606(4) -0.1664(4) 0.8544(6)
F2A F 0.4659(3) -0.1059(3) 0.6526(7)
F5A F 0.5214(3) -0.1965(3) 0.6607(8)
C8 C 0.1593(7) 0.5000 0.8465(18)
C9 C 0.1724(6) 0.4435(4) 0.9270(15)
H1 H 0.1624 0.4048 0.8736
C10 C 0.1261(7) 0.5000 0.6835(19)
C15 C 0.2110(18) 0.5000 1.170(4)
H10 H 0.2250 0.5000 1.2790
C16 C 0.2003(11) 0.4427(9) 1.086(2)
H11 H 0.2119 0.4038 1.1375
C16B C 0.2003(11) 0.5573(9) 1.086(2)
C9B C 0.1724(6) 0.5565(4) 0.9270(15)
H1B H 0.1624 0.5952 0.8736
H11B H 0.2119 0.5962 1.1375
H2? H 0.1201 0.4565 0.6462
H3? H 0.1612 0.5228 0.6200
H4? H 0.0748 0.5207 0.6752
C12? C 0.0000 0.0630(6) 0.5000
C13? C 0.0595(4) 0.0322(4) 0.5955(8)
H6? H 0.0983 0.0554 0.6577
C14? C 0.0000 0.1320(19) 0.5000
H7? H 0.0439 0.1474 0.5712
H8? H -0.0494 0.1474 0.5344
H9? H 0.0055 0.1474 0.3944
loop_
_geom_bond_atom_site_label_1
_geom_bond_atom_site_label_2
_geom_bond_site_symmetry_1
_geom_bond_site_symmetry_2
Rh1 O1 1_555 1_555
O1 C5 1_555 1_555
O2 Rh1 1_555 1_555
O3 Rh1D 1_555 1_555
O4 Rh1D 1_555 1_555
F1 C6 1_555 1_555
F2 C6 1_555 1_555
F3 C7 1_555 1_555
F4 C7 1_555 1_555
F5 C6 1_555 1_555
F6 C7 1_555 1_555
N1 C4 1_555 1_555
C1 C3 1_555 1_555
C2 O2 1_555 1_555
C3 C11 1_555 1_555
C4 C1 1_555 1_555
C5 C7 1_555 1_555
C6 C2 1_555 1_555
C8 C9 1_555 1_555
C9 H1 1_555 1_555
C10 C8 1_555 1_555
C11 H5 1_555 1_555
C15 H10 1_555 1_555
C16 C9 1_555 1_555
H11 C16 1_555 1_555
C11F C11 1_555 1_555
C3F C11F 1_555 1_555
C1F C3F 1_555 1_555
C4F C1F 1_555 1_555
N1F Rh1 1_555 1_555
C4D C1F 1_555 1_555
N1D C4D 1_555 1_555
C11D C3F 1_555 1_555
C11B C3 1_555 1_555
H5B C11B 1_555 1_555
H5D C11D 1_555 1_555
H5F C11F 1_555 1_555
C4B C1 1_555 1_555
N1B C4B 1_555 1_555
C16B C15 1_555 1_555
C9B C8 1_555 1_555
H1B C9B 1_555 1_555
H11B C16B 1_555 1_555
Rh1F N1 1_555 1_555
Rh1B N1D 1_555 1_555
Rh1D N1B 1_555 1_555
Rh1E Rh1 1_555 1_555
O3D Rh1 1_555 1_555
O4D Rh1 1_555 1_555
Rh1G Rh1B 1_555 1_555
O1B Rh1B 1_555 1_555
O2B Rh1B 1_555 1_555
O3F Rh1B 1_555 1_555
O4F Rh1B 1_555 1_555
Rh1A Rh1D 1_555 1_555
O1D Rh1D 1_555 1_555
O2D Rh1D 1_555 1_555
O1E Rh1E 1_555 1_555
O2E Rh1E 1_555 1_555
O3A C5 1_555 1_555
O4A C2 1_555 1_555
N1C Rh1E 1_555 1_555
O1G Rh1G 1_555 1_555
O2G Rh1G 1_555 1_555
O3C Rh1G 1_555 1_555
O4C Rh1G 1_555 1_555
N1A Rh1G 1_555 1_555
C5B O1B 1_555 1_555
C2B O2B 1_555 1_555
O1A Rh1A 1_555 1_555
O2A Rh1A 1_555 1_555
O3E Rh1A 1_555 1_555
O4E Rh1A 1_555 1_555
N1G Rh1A 1_555 1_555
C5D O1D 1_555 1_555
C2D O2D 1_555 1_555
C5A O3 1_555 1_555
C2A O4 1_555 1_555
C7B C5B 1_555 1_555
C6B C2B 1_555 1_555
C7D C5D 1_555 1_555
C6D C2D 1_555 1_555
C7A C5A 1_555 1_555
C6A C2A 1_555 1_555
F3B C7B 1_555 1_555
F4B C7B 1_555 1_555
F6B C7B 1_555 1_555
F1B C6B 1_555 1_555
F2B C6B 1_555 1_555
F5B C6B 1_555 1_555
F3D C7D 1_555 1_555
F4D C7D 1_555 1_555
F6D C7D 1_555 1_555
F1D C6D 1_555 1_555
F2D C6D 1_555 1_555
F5D C6D 1_555 1_555
F3A C7A 1_555 1_555
F4A C7A 1_555 1_555
F6A C7A 1_555 1_555
F1A C6A 1_555 1_555
F2A C6A 1_555 1_555
F5A C6A 1_555 1_555
C15 C16 1_555 1_555
C4F N1F 1_555 1_555
C11D C11B 1_555 1_555
C16B C9B 1_555 1_555
Rh1E O3A 1_555 1_555
Rh1E O4A 1_555 1_555
O3C C5B 1_555 1_555
O4C C2B 1_555 1_555
O1A C5A 1_555 1_555
O2A C2A 1_555 1_555
O3E C5D 1_555 1_555
O4E C2D 1_555 1_555

#END
