
#######################################################################
#
#                 Cambridge Crystallographic Data Centre
#                                CCDC 
#
#######################################################################
#
# If this CIF has been generated from an entry in the Cambridge 
# Structural Database, then it will include bibliographic, chemical, 
# crystal, experimental, refinement or atomic coordinate data resulting 
# from the CCDC's data processing and validation procedures.
#
#######################################################################

data_QAJWON01
_symmetry_cell_setting           triclinic
_symmetry_space_group_name_H-M   'P -1'
_symmetry_Int_Tables_number      2
_space_group_name_Hall           '-P 1'
loop_
_symmetry_equiv_pos_site_id
_symmetry_equiv_pos_as_xyz
1 x,y,z
2 -x,-y,-z
_cell_length_a                   11.306(3)
_cell_length_b                   11.145(6)
_cell_length_c                   7.637(2)
_cell_angle_alpha                90.41(3)
_cell_angle_beta                 105.31(2)
_cell_angle_gamma                91.24(4)
_cell_volume                     927.852
loop_
_atom_site_label
_atom_site_type_symbol
_atom_site_fract_x
_atom_site_fract_y
_atom_site_fract_z
Ag1 Ag 0.62523(5) -0.08345(5) 0.38517(8)
Ag2 Ag 0.77504(5) 0.41873(5) 0.50513(7)
Cl1 Cl 0.46866(13) -0.38364(13) 0.2257(2)
O1 O 0.4966(4) -0.2956(4) 0.3696(6)
O2 O 0.3915(4) -0.3310(5) 0.0680(6)
O3 O 0.4066(5) -0.4849(5) 0.2797(8)
O4 O 0.5801(4) -0.4208(4) 0.1886(7)
Cl2 Cl 0.92652(14) 0.13143(14) 0.6632(2)
O5 O 0.8397(5) 0.2129(5) 0.7013(7)
O6 O 1.0390(5) 0.1962(5) 0.6737(8)
O7 O 0.8799(5) 0.0824(5) 0.4835(7)
O8 O 0.9467(6) 0.0384(5) 0.7931(8)
N1 N 0.4774(5) 0.0223(5) 0.2287(7)
C1 C 0.4902(5) 0.1431(5) 0.2139(8)
C2 C 0.6103(6) 0.1959(6) 0.3183(9)
N2 N 0.6176(5) 0.3281(5) 0.3266(7)
C3 C 0.3965(6) 0.2073(6) 0.1061(9)
C4 C 0.2896(6) 0.1487(7) 0.0119(10)
C5 C 0.2769(6) 0.0263(7) 0.0268(10)
C6 C 0.3723(6) -0.0334(6) 0.1372(10)
N3 N 0.9176(5) -0.4659(5) 0.6677(7)
C7 C 0.9077(6) -0.3472(6) 0.6809(9)
C8 C 0.7891(6) -0.2970(6) 0.5670(10)
N4 N 0.7856(5) -0.1678(5) 0.5533(8)
C9 C 0.9997(6) -0.2770(6) 0.7905(11)
C10 C 1.1043(6) -0.3282(7) 0.8888(10)
C11 C 1.1175(6) -0.4502(7) 0.8727(10)
C12 C 1.0234(6) -0.5153(6) 0.7627(10)
H1 H 0.62698 0.16719 0.43905
H2 H 0.67152 0.16875 0.26356
H3 H 0.61302 0.35471 0.20703
H4 H 0.54740 0.35391 0.36161
H5 H 0.40538 0.29190 0.09634
H6 H 0.22472 0.19257 -0.06323
H7 H 0.20404 -0.01563 -0.03755
H8 H 0.36390 -0.11777 0.14946
H9 H 0.77466 -0.32965 0.44757
H10 H 0.72488 -0.32276 0.61812
H11 H 0.79694 -0.13677 0.67314
H12 H 0.85315 -0.14317 0.50877
H13 H 0.99022 -0.19259 0.79750
H14 H 1.16737 -0.28051 0.96760
H15 H 1.19060 -0.48790 0.93692
H16 H 1.03231 -0.59949 0.75202
Ag2_2 Ag 0.77504(5) -0.58127(5) 0.50513(7)
N3_2 N 0.9176(5) 0.5341(5) 0.6677(7)
loop_
_geom_bond_atom_site_label_1
_geom_bond_atom_site_label_2
_geom_bond_site_symmetry_1
_geom_bond_site_symmetry_2
Ag1 O1 1_555 1_555
Ag2 O5 1_555 1_555
Cl1 O1 1_555 1_555
O2 Cl1 1_555 1_555
O3 Cl1 1_555 1_555
O4 Cl1 1_555 1_555
Cl2 O5 1_555 1_555
O6 Cl2 1_555 1_555
O7 Cl2 1_555 1_555
O8 Cl2 1_555 1_555
N1 Ag1 1_555 1_555
C1 N1 1_555 1_555
C2 C1 1_555 1_555
N2 Ag2 1_555 1_555
C3 C1 1_555 1_555
C4 C3 1_555 1_555
C5 C4 1_555 1_555
C6 N1 1_555 1_555
N3 C7 1_555 1_555
C7 C8 1_555 1_555
C8 N4 1_555 1_555
N4 Ag1 1_555 1_555
C9 C7 1_555 1_555
C10 C9 1_555 1_555
C11 C10 1_555 1_555
C12 N3 1_555 1_555
H1 C2 1_555 1_555
H2 C2 1_555 1_555
H3 N2 1_555 1_555
H4 N2 1_555 1_555
H5 C3 1_555 1_555
H6 C4 1_555 1_555
H7 C5 1_555 1_555
H8 C6 1_555 1_555
H9 C8 1_555 1_555
H10 C8 1_555 1_555
H11 N4 1_555 1_555
H12 N4 1_555 1_555
H13 C9 1_555 1_555
H14 C10 1_555 1_555
H15 C11 1_555 1_555
H16 C12 1_555 1_555
Ag2_2 N3 1_555 1_555
N3_2 Ag2 1_555 1_555
C2 N2 1_555 1_555
C5 C6 1_555 1_555
C11 C12 1_555 1_555

#END
