
#######################################################################
#
#                 Cambridge Crystallographic Data Centre
#                                CCDC 
#
#######################################################################
#
# If this CIF has been generated from an entry in the Cambridge 
# Structural Database, then it will include bibliographic, chemical, 
# crystal, experimental, refinement or atomic coordinate data resulting 
# from the CCDC's data processing and validation procedures.
#
#######################################################################

data_QAJWON
_symmetry_cell_setting           triclinic
_symmetry_space_group_name_H-M   'P -1'
_symmetry_Int_Tables_number      2
_space_group_name_Hall           '-P 1'
loop_
_symmetry_equiv_pos_site_id
_symmetry_equiv_pos_as_xyz
1 x,y,z
2 -x,-y,-z
_cell_length_a                   7.672(6)
_cell_length_b                   11.1401(11)
_cell_length_c                   11.322(4)
_cell_angle_alpha                91.207(14)
_cell_angle_beta                 105.52(4)
_cell_angle_gamma                90.48(2)
_cell_volume                     932.067
loop_
_atom_site_label
_atom_site_type_symbol
_atom_site_fract_x
_atom_site_fract_y
_atom_site_fract_z
Ag1 Ag 0.50519(5) 0.41860(3) 0.27516(3)
Ag2 Ag 0.38529(5) -0.08344(3) 0.12518(3)
N1 N 0.2297(5) 0.0217(3) -0.0226(3)
N2 N 0.3257(4) 0.3283(3) 0.1174(3)
H1 H 0.196(3) 0.350(4) 0.102(4)
H2 H 0.330(7) 0.372(4) 0.044(3)
N3 N 0.6682(5) -0.4655(3) 0.4186(3)
N4 N 0.5524(5) -0.1670(3) 0.2855(3)
H3 H 0.675(4) -0.133(5) 0.300(5)
H4 H 0.486(7) -0.129(5) 0.339(4)
C1 C 0.2142(5) 0.1415(4) -0.0102(3)
C2 C 0.1051(6) 0.2073(4) -0.1034(4)
H5 H 0.0956 0.2899 -0.0940
C3 C 0.0104(6) 0.1485(5) -0.2107(4)
H6 H -0.0633 0.1915 -0.2741
C4 C 0.0258(7) 0.0275(4) -0.2229(4)
H7 H -0.0378 -0.0133 -0.2941
C5 C 0.1371(6) -0.0334(4) -0.1279(4)
H8 H 0.1489 -0.1159 -0.1369
C6 C 0.3182(6) 0.1975(4) 0.1117(4)
H9 H 0.436(5) 0.144(4) 0.136(5)
H10 H 0.254(6) 0.164(4) 0.177(4)
C7 C 0.6816(5) -0.3469(4) 0.4068(3)
C8 C 0.7900(7) -0.2758(4) 0.4996(4)
H11 H 0.7968 -0.1933 0.4905
C9 C 0.8881(7) -0.3280(5) 0.6059(4)
H12 H 0.9634 -0.2814 0.6685
C10 C 0.8730(7) -0.4503(5) 0.6180(4)
H13 H 0.9359 -0.4875 0.6893
C11 C 0.7633(6) -0.5157(4) 0.5228(4)
H14 H 0.7542 -0.5983 0.5304
C12 C 0.5674(6) -0.2971(4) 0.2885(4)
H15 H 0.430(4) -0.332(5) 0.274(5)
H16 H 0.629(7) -0.327(5) 0.218(4)
N3_2 N 0.6682(5) 0.5345(3) 0.4186(3)
Ag1_2 Ag 0.50519(5) -0.58140(3) 0.27516(3)
Cl1 Cl 0.22588(12) 0.61629(8) -0.03107(8)
O1 O 0.2798(5) 0.5159(3) -0.0933(3)
O2 O 0.1886(5) 0.5790(3) 0.0799(3)
O3 O 0.3713(4) 0.7045(3) -0.0030(3)
O4 O 0.0680(4) 0.6698(3) -0.1088(3)
Cl2 Cl 0.66302(14) 0.13107(9) 0.42647(8)
O5 O 0.7917(6) 0.0375(4) 0.4475(4)
O6 O 0.6743(6) 0.1948(3) 0.5400(3)
O7 O 0.7005(5) 0.2129(3) 0.3386(3)
O8 O 0.4838(5) 0.0817(3) 0.3801(3)
loop_
_geom_bond_atom_site_label_1
_geom_bond_atom_site_label_2
_geom_bond_site_symmetry_1
_geom_bond_site_symmetry_2
Ag1 N2 1_555 1_555
Ag2 N1 1_555 1_555
N1 C1 1_555 1_555
N2 H1 1_555 1_555
H2 N2 1_555 1_555
N3 C7 1_555 1_555
N4 Ag2 1_555 1_555
H3 N4 1_555 1_555
H4 N4 1_555 1_555
C1 C2 1_555 1_555
C2 H5 1_555 1_555
C3 C2 1_555 1_555
H6 C3 1_555 1_555
C4 C3 1_555 1_555
H7 C4 1_555 1_555
C5 N1 1_555 1_555
H8 C5 1_555 1_555
C6 N2 1_555 1_555
H9 C6 1_555 1_555
H10 C6 1_555 1_555
C7 C8 1_555 1_555
C8 H11 1_555 1_555
C9 C8 1_555 1_555
H12 C9 1_555 1_555
C10 C9 1_555 1_555
H13 C10 1_555 1_555
C11 N3 1_555 1_555
H14 C11 1_555 1_555
C12 N4 1_555 1_555
H15 C12 1_555 1_555
H16 C12 1_555 1_555
Cl1 O1 1_555 1_555
O2 Cl1 1_555 1_555
O3 Cl1 1_555 1_555
O4 Cl1 1_555 1_555
Cl2 O5 1_555 1_555
O6 Cl2 1_555 1_555
O7 Cl2 1_555 1_555
O8 Cl2 1_555 1_555
N3_2 Ag1 1_555 1_555
Ag1_2 N3 1_555 1_555
C1 C6 1_555 1_555
C4 C5 1_555 1_555
C7 C12 1_555 1_555
C10 C11 1_555 1_555

#END
