
#######################################################################
#
#                 Cambridge Crystallographic Data Centre
#                                CCDC 
#
#######################################################################
#
# If this CIF has been generated from an entry in the Cambridge 
# Structural Database, then it will include bibliographic, chemical, 
# crystal, experimental, refinement or atomic coordinate data resulting 
# from the CCDC's data processing and validation procedures.
#
#######################################################################

data_QAJWIH
_symmetry_cell_setting           orthorhombic
_symmetry_space_group_name_H-M   'P 21 21 21'
_symmetry_Int_Tables_number      19
_space_group_name_Hall           'P 2ac 2ab'
loop_
_symmetry_equiv_pos_site_id
_symmetry_equiv_pos_as_xyz
1 x,y,z
2 1/2-x,-y,1/2+z
3 -x,1/2+y,1/2-z
4 1/2+x,1/2-y,-z
_cell_length_a                   13.146(1)
_cell_length_b                   17.691(2)
_cell_length_c                   17.962(3)
_cell_angle_alpha                90
_cell_angle_beta                 90
_cell_angle_gamma                90
_cell_volume                     4177.35
loop_
_atom_site_label
_atom_site_type_symbol
_atom_site_fract_x
_atom_site_fract_y
_atom_site_fract_z
La1 La -0.25288(6) -0.51762(3) 0.45183(2)
N1 N -0.0944(4) -0.4826(4) 0.3061(3)
O1 O -0.1648(4) -0.4495(3) 0.3490(3)
P1 P 0.02558(18) -0.48729(16) 0.47521(11)
O2 O -0.0735(5) -0.5278(5) 0.4763(4)
P2 P -0.2502(3) -0.43254(11) 0.16146(9)
O3 O -0.2353(6) -0.4566(3) 0.0817(2)
C1 C 0.0061(6) -0.4754(6) 0.3227(4)
C2 C 0.0328(7) -0.4271(6) 0.3921(5)
H1 H -0.0191 -0.3877 0.3969
C3 C 0.1368(8) -0.3879(6) 0.3854(5)
H2 H 0.1262 -0.3337 0.3892
H3 H 0.1782 -0.4031 0.4275
C4 C 0.1956(9) -0.4034(8) 0.3152(6)
H4 H 0.1705 -0.3711 0.2756
H5 H 0.2668 -0.3914 0.3232
C5 C 0.1860(7) -0.4831(9) 0.2927(6)
H6 H 0.2133 -0.5151 0.3318
H7 H 0.2258 -0.4916 0.2481
C6 C 0.0785(6) -0.5047(6) 0.2782(4)
C7 C 0.0462(8) -0.5479(6) 0.2176(5)
H8 H 0.0947 -0.5711 0.1876
C8 C -0.0560(8) -0.5572(5) 0.2010(4)
C9 C -0.0994(9) -0.6056(6) 0.1401(5)
H9 H -0.0496 -0.6433 0.1254
H10 H -0.1142 -0.5744 0.0970
C10 C -0.1961(9) -0.6449(6) 0.1656(6)
H11 H -0.2215 -0.6772 0.1262
H12 H -0.1815 -0.6763 0.2086
C11 C -0.2753(8) -0.5876(6) 0.1856(5)
H13 H -0.3237 -0.6116 0.2188
H14 H -0.3118 -0.5744 0.1405
C12 C -0.2385(9) -0.5125(4) 0.2232(3)
H15 H -0.2786 -0.5032 0.2683
C13 C -0.1254(6) -0.5187(5) 0.2439(4)
C14 C 0.0435(6) -0.4304(5) 0.5549(5)
C15 C 0.0571(7) -0.4661(6) 0.6241(5)
H16 H 0.0595 -0.5186 0.6259
C16 C 0.0668(9) -0.4261(8) 0.6890(6)
H17 H 0.0775 -0.4516 0.7335
C17 C 0.0613(10) -0.3514(8) 0.6887(6)
H18 H 0.0672 -0.3250 0.7333
C18 C 0.0463(11) -0.3113(7) 0.6214(8)
H19 H 0.0433 -0.2587 0.6209
C19 C 0.0363(7) -0.3522(6) 0.5568(6)
H20 H 0.0242 -0.3265 0.5126
C20 C 0.1268(7) -0.5542(5) 0.4734(4)
C21 C 0.2215(7) -0.5384(6) 0.5038(5)
H21 H 0.2333 -0.4922 0.5269
C22 C 0.2983(8) -0.5916(8) 0.4994(6)
H22 H 0.3622 -0.5812 0.5191
C23 C 0.2798(9) -0.6593(8) 0.4661(8)
H23 H 0.3316 -0.6950 0.4639
C24 C 0.1871(10) -0.6762(8) 0.4359(7)
H24 H 0.1757 -0.7232 0.4143
C25 C 0.1107(8) -0.6226(6) 0.4379(5)
H25 H 0.0485 -0.6325 0.4153
C26 C -0.3717(8) -0.3895(6) 0.1762(6)
C27 C -0.4157(9) -0.3506(6) 0.1192(6)
H26 H -0.3823 -0.3475 0.0736
C28 C -0.5097(11) -0.3155(8) 0.1279(7)
H27 H -0.5405 -0.2906 0.0883
C29 C -0.5563(10) -0.3184(7) 0.1971(8)
H28 H -0.6173 -0.2927 0.2045
C30 C -0.5143(9) -0.3581(6) 0.2544(7)
H29 H -0.5482 -0.3620 0.2997
C31 C -0.4227(8) -0.3920(6) 0.2447(5)
H30 H -0.3930 -0.4174 0.2844
C32 C -0.1573(9) -0.3620(6) 0.1847(6)
C33 C -0.1691(8) -0.3124(5) 0.2440(5)
H31 H -0.2269 -0.3150 0.2737
C34 C -0.0958(11) -0.2600(6) 0.2586(6)
H32 H -0.1039 -0.2260 0.2977
C35 C -0.0113(12) -0.2577(8) 0.2158(8)
H33 H 0.0375 -0.2210 0.2256
C36 C 0.0053(9) -0.3068(8) 0.1589(8)
H34 H 0.0652 -0.3044 0.1314
C37 C -0.0674(9) -0.3599(8) 0.1425(7)
H35 H -0.0572 -0.3942 0.1039
N2 N -0.2748(8) -0.3469(6) 0.4644(6)
O4 O -0.2820(9) -0.2794(5) 0.4638(7)
O5 O -0.2050(6) -0.3805(4) 0.4961(3)
O6 O -0.3409(5) -0.3864(4) 0.4309(4)
N3 N -0.2347(9) -0.6755(5) 0.3935(5)
O7 O -0.2374(9) -0.7382(4) 0.3651(4)
O8 O -0.2765(6) -0.6624(3) 0.4548(4)
O9 O -0.1941(5) -0.6207(4) 0.3595(3)
N4 N -0.4732(7) -0.5292(6) 0.4032(4)
O10 O -0.5569(6) -0.5179(8) 0.3814(4)
O11 O -0.4501(5) -0.5296(6) 0.4734(5)
O12 O -0.3994(5) -0.5393(4) 0.3593(3)
O3A O -0.2647(6) -0.5434(3) 0.5817(2)
La1A La -0.24712(6) -0.48238(3) -0.04817(2)
C38 C -0.6025(12) -0.3462(9) 0.4952(9)
H36 H -0.6293 -0.3047 0.4669
H37 H -0.6096 -0.3921 0.4672
H38 H -0.5318 -0.3374 0.5056
O13 O -0.6534(13) -0.3524(9) 0.5590(10)
H39 H -0.6910 -0.3138 0.5542
loop_
_geom_bond_atom_site_label_1
_geom_bond_atom_site_label_2
_geom_bond_site_symmetry_1
_geom_bond_site_symmetry_2
La1 O1 1_555 1_555
N1 O1 1_555 1_555
P1 O2 1_555 1_555
O2 La1 1_555 1_555
P2 O3 1_555 1_555
O3 La1A 1_555 1_555
C1 N1 1_555 1_555
C2 P1 1_555 1_555
H1 C2 1_555 1_555
C3 C2 1_555 1_555
H2 C3 1_555 1_555
H3 C3 1_555 1_555
C4 C3 1_555 1_555
H4 C4 1_555 1_555
H5 C4 1_555 1_555
C5 C4 1_555 1_555
H6 C5 1_555 1_555
H7 C5 1_555 1_555
C6 C1 1_555 1_555
C7 C6 1_555 1_555
H8 C7 1_555 1_555
C8 C7 1_555 1_555
C9 C8 1_555 1_555
H9 C9 1_555 1_555
H10 C9 1_555 1_555
C10 C9 1_555 1_555
H11 C10 1_555 1_555
H12 C10 1_555 1_555
C11 C10 1_555 1_555
H13 C11 1_555 1_555
H14 C11 1_555 1_555
C12 P2 1_555 1_555
H15 C12 1_555 1_555
C13 N1 1_555 1_555
C14 P1 1_555 1_555
C15 C14 1_555 1_555
H16 C15 1_555 1_555
C16 C15 1_555 1_555
H17 C16 1_555 1_555
C17 C16 1_555 1_555
H18 C17 1_555 1_555
C18 C17 1_555 1_555
H19 C18 1_555 1_555
C19 C14 1_555 1_555
H20 C19 1_555 1_555
C20 P1 1_555 1_555
C21 C20 1_555 1_555
H21 C21 1_555 1_555
C22 C21 1_555 1_555
H22 C22 1_555 1_555
C23 C22 1_555 1_555
H23 C23 1_555 1_555
C24 C23 1_555 1_555
H24 C24 1_555 1_555
C25 C20 1_555 1_555
H25 C25 1_555 1_555
C26 P2 1_555 1_555
C27 C26 1_555 1_555
H26 C27 1_555 1_555
C28 C27 1_555 1_555
H27 C28 1_555 1_555
C29 C28 1_555 1_555
H28 C29 1_555 1_555
C30 C29 1_555 1_555
H29 C30 1_555 1_555
C31 C26 1_555 1_555
H30 C31 1_555 1_555
C32 P2 1_555 1_555
C33 C32 1_555 1_555
H31 C33 1_555 1_555
C34 C33 1_555 1_555
H32 C34 1_555 1_555
C35 C34 1_555 1_555
H33 C35 1_555 1_555
C36 C35 1_555 1_555
H34 C36 1_555 1_555
C37 C32 1_555 1_555
H35 C37 1_555 1_555
N2 O4 1_555 1_555
O5 La1 1_555 1_555
O6 La1 1_555 1_555
N3 O7 1_555 1_555
O8 La1 1_555 1_555
O9 La1 1_555 1_555
N4 O10 1_555 1_555
O11 La1 1_555 1_555
O12 La1 1_555 1_555
C38 H36 1_555 1_555
H37 C38 1_555 1_555
H38 C38 1_555 1_555
O13 C38 1_555 1_555
H39 O13 1_555 1_555
O3A La1 1_555 1_555
C1 C2 1_555 1_555
C5 C6 1_555 1_555
C8 C13 1_555 1_555
C11 C12 1_555 1_555
C12 C13 1_555 1_555
C18 C19 1_555 1_555
C24 C25 1_555 1_555
C30 C31 1_555 1_555
C36 C37 1_555 1_555
N2 O5 1_555 1_555
N2 O6 1_555 1_555
N3 O8 1_555 1_555
N3 O9 1_555 1_555
N4 O11 1_555 1_555
N4 O12 1_555 1_555

#END
