
#######################################################################
#
#                 Cambridge Crystallographic Data Centre
#                                CCDC 
#
#######################################################################
#
# If this CIF has been generated from an entry in the Cambridge 
# Structural Database, then it will include bibliographic, chemical, 
# crystal, experimental, refinement or atomic coordinate data resulting 
# from the CCDC's data processing and validation procedures.
#
#######################################################################

data_QAJXAA
_symmetry_cell_setting           hexagonal
_symmetry_space_group_name_H-M   'P 65 2 2'
_symmetry_Int_Tables_number      179
_space_group_name_Hall           "P 65 2' (0,0,1)"
loop_
_symmetry_equiv_pos_site_id
_symmetry_equiv_pos_as_xyz
1 x,y,z
2 -y,x-y,2/3+z
3 -x+y,-x,1/3+z
4 -x,-y,1/2+z
5 y,-x+y,1/6+z
6 x-y,x,5/6+z
7 y,x,2/3-z
8 x-y,-y,-z
9 -x,-x+y,1/3-z
10 -y,-x,1/6-z
11 -x+y,y,1/2-z
12 x,x-y,5/6-z
_cell_length_a                   9.3154(11)
_cell_length_b                   9.3154(11)
_cell_length_c                   39.313(5)
_cell_angle_alpha                90
_cell_angle_beta                 90
_cell_angle_gamma                120
_cell_volume                     2954.4
loop_
_atom_site_label
_atom_site_type_symbol
_atom_site_fract_x
_atom_site_fract_y
_atom_site_fract_z
Ag1 Ag 0.11210(13) -0.00291(14) -0.21650(2)
N1 N 0.1272(13) 0.2324(11) -0.2085(2)
C1 C -0.0093(16) 0.2434(15) -0.2073(3)
H1 H -0.1117 0.1468 -0.2089
C2 C -0.0051(19) 0.3920(16) -0.2038(3)
H2 H -0.1044 0.3928 -0.2025
C3 C 0.1394(16) 0.5371(12) -0.2021(3)
C4 C 0.2795(14) 0.5258(14) -0.2034(3)
H3 H 0.3821 0.6218 -0.2015
C5 C 0.2733(14) 0.3719(14) -0.2076(3)
H4 H 0.3708 0.3682 -0.2098
C6 C 0.1508(16) 0.7029(15) -0.1965(3)
H5 H 0.0818 0.6937 -0.1772
H6 H 0.2644 0.7835 -0.1907
N2 N 0.1009(15) 0.7651(12) -0.2255(3)
H7 H -0.001(9) 0.675(10) -0.215(3)
H8 H 0.107(15) 0.726(12) -0.2486(13)
N2_2 N 0.1009(15) -0.2349(12) -0.2255(3)
Ag1_2 Ag 0.11210(13) 0.99709(14) -0.21650(2)
H7_2 H -0.001(9) -0.325(10) -0.215(3)
H8_2 H 0.107(15) -0.274(12) -0.2486(13)
Cl1 Cl -0.2701(5) -0.2701(5) -0.1667
O1 O -0.225(2) -0.1392(19) -0.1855(4)
O2 O -0.3037(19) -0.4019(18) -0.1857(4)
O1F O -0.1392(19) -0.225(2) -0.1478(4)
O2F O -0.4019(18) -0.3037(19) -0.1476(4)
Cl2 Cl 0.5380(3) 0.0761(7) -0.2500
O3 O 0.4931(16) 0.1695(14) -0.2313(3)
O4 O 0.5663(17) -0.0228(19) -0.2286(3)
O3J O 0.6764(21) 0.1695(14) -0.2687(3)
O4J O 0.4109(25) -0.0228(19) -0.2714(3)
O5 O -0.2377(13) 0.525(3) -0.2500
loop_
_geom_bond_atom_site_label_1
_geom_bond_atom_site_label_2
_geom_bond_site_symmetry_1
_geom_bond_site_symmetry_2
Ag1 N1 1_555 1_555
N1 C1 1_555 1_555
C1 H1 1_555 1_555
C2 C1 1_555 1_555
H2 C2 1_555 1_555
C3 C2 1_555 1_555
C4 C3 1_555 1_555
H3 C4 1_555 1_555
C5 N1 1_555 1_555
H4 C5 1_555 1_555
C6 C3 1_555 1_555
H5 C6 1_555 1_555
H6 C6 1_555 1_555
N2 C6 1_555 1_555
H7 N2 1_555 1_555
H8 N2 1_555 1_555
Cl1 O1 1_555 1_555
O2 Cl1 1_555 1_555
Cl2 O3 1_555 1_555
O4 Cl2 1_555 1_555
N2_2 Ag1 1_555 1_555
O1F Cl1 1_555 1_555
O2F Cl1 1_555 1_555
O3J Cl2 1_555 1_555
O4J Cl2 1_555 1_555
Ag1_2 N2 1_555 1_555
H7_2 N2_2 1_555 1_555
H8_2 N2_2 1_555 1_555
C4 C5 1_555 1_555

#END
