
#######################################################################
#
#                 Cambridge Crystallographic Data Centre
#                                CCDC 
#
#######################################################################
#
# If this CIF has been generated from an entry in the Cambridge 
# Structural Database, then it will include bibliographic, chemical, 
# crystal, experimental, refinement or atomic coordinate data resulting 
# from the CCDC's data processing and validation procedures.
#
#######################################################################

data_QAKBUZ
_symmetry_cell_setting           monoclinic
_symmetry_space_group_name_H-M   'C c'
_symmetry_Int_Tables_number      9
_space_group_name_Hall           'C -2yc'
loop_
_symmetry_equiv_pos_site_id
_symmetry_equiv_pos_as_xyz
1 x,y,z
2 1/2+x,1/2+y,z
3 x,-y,1/2+z
4 1/2+x,1/2-y,1/2+z
_cell_length_a                   22.6251(18)
_cell_length_b                   4.8003(4)
_cell_length_c                   9.2901(11)
_cell_angle_alpha                90
_cell_angle_beta                 101.2915(50)
_cell_angle_gamma                90
_cell_volume                     989.442
loop_
_atom_site_label
_atom_site_type_symbol
_atom_site_fract_x
_atom_site_fract_y
_atom_site_fract_z
Zn1 Zn -0.62607(12) -0.47449(9) -0.4339(3)
O1 O -0.6037(2) -0.0789(8) -0.4079(5)
O2 O -0.5547(2) 0.3082(8) -0.3518(5)
O3 O -0.6975(2) -0.606(1) -0.3703(5)
O4 O -0.6470(2) -0.5097(7) -0.1506(6)
C1 C -0.5601(3) 0.0482(11) -0.3366(7)
C2 C -0.6910(3) -0.6224(13) -0.2318(7)
C3 C -0.4642(5) 0.069(2) -0.1425(15)
C4 C -0.7843(5) -0.935(3) -0.273(1)
C5 C -0.5129(4) -0.1109(16) -0.224(1)
C6 C -0.422(1) 0.018(4) -0.063(3)
C7 C -0.7366(4) -0.785(3) -0.1664(9)
C8 C -0.8250(11) -1.032(5) -0.258(2)
H1 H -0.5329 -0.1974 -0.1549
H2 H -0.4949 -0.2493 -0.2745
H3 H -0.4130 -0.1697 -0.0365
H4 H -0.3960 0.1636 -0.0207
H5 H -0.7560 -0.6590 -0.1124
H6 H -0.7150 -0.9203 -0.1016
H7 H -0.8506 -1.1196 -0.3389
H8 H -0.8356 -1.0330 -0.1641
H9 H -0.4700 0.2627 -0.1623
H10 H -0.7771 -0.9445 -0.3702
O2_2 O -0.5547(2) -0.6918(8) -0.3518(5)
O4B O -0.6470(2) -0.4903(7) -0.6506(6)
Zn1_2 Zn -0.62607(12) 0.52551(9) -0.4339(3)
Zn1B Zn -0.62607(12) -0.52551(9) 0.0661(3)
loop_
_geom_bond_atom_site_label_1
_geom_bond_atom_site_label_2
_geom_bond_site_symmetry_1
_geom_bond_site_symmetry_2
Zn1 O1 1_555 1_555
O1 C1 1_555 1_555
O2 C1 1_555 1_555
O3 Zn1 1_555 1_555
O4 C2 1_555 1_555
C1 C5 1_555 1_555
C2 O3 1_555 1_555
C3 C5 1_555 1_555
C4 C7 1_555 1_555
C5 H1 1_555 1_555
C6 C3 1_555 1_555
C7 C2 1_555 1_555
C8 C4 1_555 1_555
H2 C5 1_555 1_555
H3 C6 1_555 1_555
H4 C6 1_555 1_555
H5 C7 1_555 1_555
H6 C7 1_555 1_555
H7 C8 1_555 1_555
H8 C8 1_555 1_555
H9 C3 1_555 1_555
H10 C4 1_555 1_555
O2_2 Zn1 1_555 1_555
O4B Zn1 1_555 1_555
Zn1_2 O2 1_555 1_555
Zn1B O4 1_555 1_555

#END
