
#######################################################################
#
#                 Cambridge Crystallographic Data Centre
#                                CCDC 
#
#######################################################################
#
# If this CIF has been generated from an entry in the Cambridge 
# Structural Database, then it will include bibliographic, chemical, 
# crystal, experimental, refinement or atomic coordinate data resulting 
# from the CCDC's data processing and validation procedures.
#
#######################################################################

data_QAKDOV
_symmetry_cell_setting           monoclinic
_symmetry_space_group_name_H-M   'P 21/c'
_symmetry_Int_Tables_number      14
_space_group_name_Hall           '-P 2ybc'
loop_
_symmetry_equiv_pos_site_id
_symmetry_equiv_pos_as_xyz
1 x,y,z
2 x,1/2-y,1/2+z
3 -x,-y,-z
4 -x,1/2+y,1/2-z
_cell_length_a                   10.174(3)
_cell_length_b                   28.313(5)
_cell_length_c                   13.865(4)
_cell_angle_alpha                90
_cell_angle_beta                 92.06(3)
_cell_angle_gamma                90
_cell_volume                     3991.32
loop_
_atom_site_label
_atom_site_type_symbol
_atom_site_fract_x
_atom_site_fract_y
_atom_site_fract_z
Zn1 Zn -1.53046(7) 1.21280(3) 0.91328(5)
O1 O -1.4605(5) 1.26757(17) 0.9980(3)
H1 H -1.5012 1.2932 1.0031
O2 O -1.6054(4) 1.15686(16) 0.8277(3)
H2 H -1.5591 1.1337 0.8122
O6 O -1.5047(4) 1.25111(15) 0.7872(3)
O7 O -1.5540(5) 1.59176(17) 0.7405(4)
O8 O -1.3391(4) 1.18411(16) 0.9100(3)
O9 O -0.7234(4) 1.25976(16) 0.4165(3)
O10 O -0.5402(4) 1.33036(14) 0.5364(3)
N1 N -1.5133(5) 1.29787(17) 0.7839(3)
N2 N -1.5473(5) 1.5458(2) 0.7448(4)
N3 N -1.2502(5) 1.19442(19) 0.8443(4)
N4 N -0.8000(5) 1.24833(19) 0.4890(4)
N5 N -0.5293(5) 1.37673(17) 0.5250(4)
C1 C -1.3635(7) 1.2637(3) 1.0742(5)
H6 H -1.2899 1.2850 1.0615
H7 H -1.4022 1.2725 1.1353
H8 H -1.3315 1.2311 1.0781
C2 C -1.7164(7) 1.1601(3) 0.7636(6)
H9 H -1.7688 1.1312 0.7676
H10 H -1.7700 1.1874 0.7813
H11 H -1.6872 1.1641 0.6975
C6 C -1.6311(6) 1.3195(2) 0.7861(5)
H21 H -1.7080 1.3010 0.7936
C7 C -1.6426(6) 1.3676(2) 0.7779(5)
H22 H -1.7269 1.3819 0.7790
C8 C -1.5309(6) 1.3957(2) 0.7680(4)
C9 C -1.4107(7) 1.3721(2) 0.7652(5)
H23 H -1.3322 1.3897 0.7576
C10 C -1.4043(7) 1.3238(2) 0.7733(5)
H24 H -1.3214 1.3085 0.7713
C11 C -1.6587(7) 1.5200(3) 0.7485(6)
H25 H -1.7411 1.5359 0.7471
C12 C -1.6568(6) 1.4718(2) 0.7543(5)
H26 H -1.7373 1.4548 0.7549
C13 C -1.5376(6) 1.4474(2) 0.7593(4)
C14 C -1.4236(6) 1.4749(2) 0.7565(5)
H27 H -1.3401 1.4599 0.7599
C15 C -1.4299(6) 1.5236(2) 0.7489(5)
H28 H -1.3511 1.5415 0.7466
C16 C -1.2232(6) 1.1614(2) 0.7781(5)
H29 H -1.2681 1.1319 0.7778
C17 C -1.1294(6) 1.1705(2) 0.7105(4)
H30 H -1.1081 1.1466 0.6654
C18 C -1.0665(6) 1.2136(2) 0.7074(4)
C19 C -1.0983(6) 1.2471(2) 0.7781(5)
H31 H -1.0564 1.2771 0.7792
C20 C -1.1890(6) 1.2365(2) 0.8452(4)
H32 H -1.2090 1.2592 0.8930
C21 C -0.8809(6) 1.2111(2) 0.4765(5)
H33 H 0.1217 1.3072 -0.0809
C22 C -0.9675(6) 1.1995(2) 0.5468(5)
H34 H -0.0253 1.3266 0.0371
C23 C -0.9717(6) 1.2254(2) 0.6320(5)
C24 C 0.1150(7) 1.2368(2) 0.1405(5)
H35 H 0.1148 1.2177 0.1969
C25 C 0.2007(6) 1.2263(2) 0.0697(5)
H36 H 0.2608 1.2008 0.0783
C26 C -0.4092(6) 1.3971(2) 0.5332(5)
H37 H -0.3335 1.3781 0.5451
C27 C -0.3959(6) 1.4454(2) 0.5243(5)
H38 H -0.3113 1.4594 0.5317
C28 C -0.5064(6) 1.4740(2) 0.5045(4)
C29 C -0.3722(6) 1.5486(2) 0.5033(5)
H39 H -0.2948 1.5306 0.5159
C30 C -0.3630(6) 1.5969(2) 0.4929(5)
H40 H -0.2793 1.6117 0.4984
O10A O -1.5402(4) 1.16964(14) 1.0364(3)
Zn1A Zn -0.53046(7) 1.28720(3) 0.41328(5)
O1A O -0.4605(5) 1.23243(17) 0.4980(3)
H1A H -0.5012 1.2068 0.5031
C1A C -0.3635(7) 1.2363(3) 0.5742(5)
H6A H -0.2899 1.2150 0.5615
H7A H -0.4022 1.2275 0.6353
H8A H -0.3315 1.2689 0.5781
O2A O -0.6054(4) 1.34314(16) 0.3277(3)
H2A H -0.5591 1.3663 0.3122
C2A C -0.7164(7) 1.3399(3) 0.2636(6)
H9A H -0.7688 1.3688 0.2676
H10A H -0.7700 1.3126 0.2813
H11A H -0.6872 1.3359 0.1975
O6A O -0.5047(4) 1.24889(15) 0.2872(3)
N1A N -0.5133(5) 1.20213(17) 0.2839(3)
C6A C -0.6311(6) 1.1805(2) 0.2861(5)
H21A H -0.7080 1.1990 0.2936
C7A C -0.6426(6) 1.1324(2) 0.2779(5)
H22A H -0.7269 1.1181 0.2790
C8A C -0.5309(6) 1.1043(2) 0.2680(4)
C9A C -0.4107(7) 1.1279(2) 0.2652(5)
H23A H -0.3322 1.1103 0.2576
C10A C -0.4043(7) 1.1762(2) 0.2733(5)
H24A H -0.3214 1.1915 0.2713
C13A C -0.5376(6) 1.0526(2) 0.2593(4)
C12A C -0.6568(6) 1.0282(2) 0.2543(5)
C11A C -0.6587(7) 0.9800(3) 0.2485(6)
N2A N -0.5473(5) 0.9542(2) 0.2448(4)
O7A O -0.5540(5) 0.90824(17) 0.2405(4)
C15A C -0.4299(6) 0.9764(2) 0.2489(5)
C14A C -0.4236(6) 1.0251(2) 0.2565(5)
H27A H -0.3401 1.0401 0.2599
H28A H -0.3511 0.9585 0.2466
H25A H -0.7411 0.9641 0.2471
H26A H -0.7373 1.0452 0.2549
O8A O -0.3391(4) 1.31589(16) 0.4100(3)
N3A N -0.2502(5) 1.30558(19) 0.3443(4)
C16A C -0.2232(6) 1.3386(2) 0.2781(5)
H29A H -0.2681 1.3681 0.2778
C17A C -0.1294(6) 1.3295(2) 0.2105(4)
H30A H -0.1081 1.3534 0.1654
C18A C -0.0665(6) 1.2864(2) 0.2074(4)
C19A C -0.0983(6) 1.2529(2) 0.2781(5)
H31A H -0.0564 1.2229 0.2792
C20A C -0.1890(6) 1.2635(2) 0.3452(4)
H32A H -0.2090 1.2408 0.3930
C23A C 0.0283(6) 1.2746(2) 0.1320(5)
C22A C 0.0325(6) 1.3005(2) 0.0468(5)
C21A C 0.1191(6) 1.2889(2) -0.0235(5)
N4A N 0.2000(5) 1.25167(19) -0.0110(4)
O9A O 0.2766(4) 1.24024(16) -0.0835(3)
Zn1_2 Zn 0.46954(7) 1.21280(3) -0.08672(5)
C28B C -0.4936(6) 1.5260(2) 0.4955(4)
C27B C -0.6041(6) 1.5546(2) 0.4757(5)
C26B C -0.5908(6) 1.6029(2) 0.4668(5)
N5B N -0.4707(5) 1.62327(17) 0.4750(4)
O10B O -0.4598(4) 1.66964(14) 0.4636(3)
Zn1C Zn -0.46954(7) 1.71280(3) 0.58672(5)
H37B H -0.6665 1.6219 0.4549
H38B H -0.6887 1.5406 0.4683
C29B C -0.6278(6) 1.4514(2) 0.4967(5)
H39B H -0.7052 1.4694 0.4841
C30B C -0.6370(6) 1.4031(2) 0.5071(5)
H40B H -0.7207 1.3883 0.5016
C25A C -0.7993(6) 1.2737(2) 0.5697(5)
C24A C -0.8850(7) 1.2632(2) 0.6405(5)
H35A H -0.8852 1.2823 0.6969
H36A H -0.7392 1.2992 0.5783
H33A H -0.8783 1.1928 0.4191
H34A H -1.0253 1.1734 0.5371
O9A_2 O -1.7234(4) 1.24024(16) 0.9165(3)
O3 O 0.8928(6) 1.0689(3) -0.4324(5)
H3 H 0.9262 1.0862 -0.4741
C3 C 0.9917(11) 1.0396(5) -0.3891(9)
H12 H 0.9504 1.0146 -0.3520
H13 H 1.0488 1.0587 -0.3460
H14 H 1.0442 1.0255 -0.4395
O4 O -0.0687(5) 0.6200(2) 0.4507(4)
H4 H -0.0425 0.6142 0.3951
C4 C 0.0333(8) 0.6410(3) 0.5064(6)
H15 H 0.0992 0.6171 0.5247
H16 H -0.0025 0.6548 0.5647
H17 H 0.0745 0.6659 0.4687
O5 O 0.1296(6) 0.5034(3) 0.3559(7)
H5 H 0.1069 0.5309 0.3396
C5 C 0.0218(11) 0.4783(5) 0.3793(9)
H18 H -0.0539 0.4995 0.3827
H19 H 0.0378 0.4630 0.4421
H20 H 0.0037 0.4541 0.3300
O11 O 0.6209(5) 0.66453(17) -0.0301(4)
N6 N 0.5861(6) 0.6197(2) -0.0208(4)
C31 C 0.6805(7) 0.5866(3) -0.0091(5)
H41 H 0.7701 0.5960 -0.0060
C32 C 0.6499(7) 0.5401(3) -0.0019(5)
H42 H 0.7184 0.5174 0.0050
C33 C 0.5180(7) 0.5252(2) -0.0045(5)
C34 C 0.4236(7) 0.5603(3) -0.0149(6)
H43 H 0.3332 0.5519 -0.0168
C35 C 0.4579(8) 0.6071(3) -0.0224(6)
H44 H 0.3915 0.6306 -0.0287
C33B C 0.4820(7) 0.4748(2) 0.0045(5)
C32B C 0.3501(7) 0.4599(3) 0.0019(5)
C31B C 0.3195(7) 0.4134(3) 0.0091(5)
N6B N 0.4139(6) 0.3803(2) 0.0208(4)
O11B O 0.3791(5) 0.33547(17) 0.0301(4)
C35B C 0.5421(8) 0.3929(3) 0.0224(6)
C34B C 0.5764(7) 0.4397(3) 0.0149(6)
H43B H 0.6668 0.4481 0.0168
H44B H 0.6085 0.3694 0.0287
H41B H 0.2299 0.4040 0.0060
H42B H 0.2816 0.4826 -0.0050
Si1 Si 1.04031(18) 0.89085(7) -0.30906(14)
F1 F 0.9319(4) 0.84697(14) -0.2902(3)
F2 F 0.9551(4) 0.90474(18) -0.4110(4)
F3 F 1.1338(4) 0.85335(15) -0.3703(3)
F4 F 0.9448(4) 0.92759(17) -0.2456(4)
F5 F 1.1234(4) 0.87639(19) -0.2061(3)
F6 F 1.1460(4) 0.93504(16) -0.3274(4)
loop_
_geom_bond_atom_site_label_1
_geom_bond_atom_site_label_2
_geom_bond_site_symmetry_1
_geom_bond_site_symmetry_2
Zn1 O1 1_555 1_555
O1 H1 1_555 1_555
O2 Zn1 1_555 1_555
H2 O2 1_555 1_555
O3 H3 1_555 1_555
O4 H4 1_555 1_555
O5 H5 1_555 1_555
O6 Zn1 1_555 1_555
O7 N2 1_555 1_555
O8 Zn1 1_555 1_555
O9 N4 1_555 1_555
O10 N5 1_555 1_555
O11 N6 1_555 1_555
N1 O6 1_555 1_555
N2 C11 1_555 1_555
N3 O8 1_555 1_555
N4 C21 1_555 1_555
N5 C26 1_555 1_555
N6 C31 1_555 1_555
C1 O1 1_555 1_555
H6 C1 1_555 1_555
H7 C1 1_555 1_555
H8 C1 1_555 1_555
C2 O2 1_555 1_555
H9 C2 1_555 1_555
H10 C2 1_555 1_555
H11 C2 1_555 1_555
C3 O3 1_555 1_555
H12 C3 1_555 1_555
H13 C3 1_555 1_555
H14 C3 1_555 1_555
C4 O4 1_555 1_555
H15 C4 1_555 1_555
H16 C4 1_555 1_555
H17 C4 1_555 1_555
C5 O5 1_555 1_555
H18 C5 1_555 1_555
H19 C5 1_555 1_555
H20 C5 1_555 1_555
C6 N1 1_555 1_555
H21 C6 1_555 1_555
C7 C6 1_555 1_555
H22 C7 1_555 1_555
C8 C7 1_555 1_555
C9 C8 1_555 1_555
H23 C9 1_555 1_555
C10 N1 1_555 1_555
H24 C10 1_555 1_555
C11 H25 1_555 1_555
C12 C11 1_555 1_555
H26 C12 1_555 1_555
C13 C8 1_555 1_555
C14 C13 1_555 1_555
H27 C14 1_555 1_555
C15 N2 1_555 1_555
H28 C15 1_555 1_555
C16 N3 1_555 1_555
H29 C16 1_555 1_555
C17 C16 1_555 1_555
H30 C17 1_555 1_555
C18 C17 1_555 1_555
C19 C18 1_555 1_555
H31 C19 1_555 1_555
C20 N3 1_555 1_555
H32 C20 1_555 1_555
C21 C22 1_555 1_555
H33 C21A 1_555 1_555
C22 C23 1_555 1_555
H34 C22A 1_555 1_555
C23 C18 1_555 1_555
C24 H35 1_555 1_555
C25 C24 1_555 1_555
H36 C25 1_555 1_555
C26 H37 1_555 1_555
C27 C26 1_555 1_555
H38 C27 1_555 1_555
C28 C27 1_555 1_555
C29 H39 1_555 1_555
C30 C29 1_555 1_555
H40 C30 1_555 1_555
C31 H41 1_555 1_555
C32 C31 1_555 1_555
H42 C32 1_555 1_555
C33 C32 1_555 1_555
C34 C33 1_555 1_555
H43 C34 1_555 1_555
C35 N6 1_555 1_555
H44 C35 1_555 1_555
Si1 F1 1_555 1_555
F2 Si1 1_555 1_555
F3 Si1 1_555 1_555
F4 Si1 1_555 1_555
F5 Si1 1_555 1_555
F6 Si1 1_555 1_555
O10A Zn1 1_555 1_555
Zn1A O9 1_555 1_555
O1A Zn1A 1_555 1_555
H1A O1A 1_555 1_555
C1A O1A 1_555 1_555
H6A C1A 1_555 1_555
H7A C1A 1_555 1_555
H8A C1A 1_555 1_555
O2A Zn1A 1_555 1_555
H2A O2A 1_555 1_555
C2A O2A 1_555 1_555
H9A C2A 1_555 1_555
H10A C2A 1_555 1_555
H11A C2A 1_555 1_555
O6A Zn1A 1_555 1_555
N1A O6A 1_555 1_555
C6A N1A 1_555 1_555
H21A C6A 1_555 1_555
C7A C6A 1_555 1_555
H22A C7A 1_555 1_555
C8A C7A 1_555 1_555
C9A C8A 1_555 1_555
H23A C9A 1_555 1_555
C10A N1A 1_555 1_555
H24A C10A 1_555 1_555
C13A C8A 1_555 1_555
C12A C13A 1_555 1_555
C11A C12A 1_555 1_555
N2A C11A 1_555 1_555
O7A N2A 1_555 1_555
C15A N2A 1_555 1_555
C14A C13A 1_555 1_555
H27A C14A 1_555 1_555
H28A C15A 1_555 1_555
H25A C11A 1_555 1_555
H26A C12A 1_555 1_555
O8A Zn1A 1_555 1_555
N3A O8A 1_555 1_555
C16A N3A 1_555 1_555
H29A C16A 1_555 1_555
C17A C16A 1_555 1_555
H30A C17A 1_555 1_555
C18A C17A 1_555 1_555
C19A C18A 1_555 1_555
H31A C19A 1_555 1_555
C20A N3A 1_555 1_555
H32A C20A 1_555 1_555
C23A C24 1_555 1_555
C22A C23A 1_555 1_555
C21A C22A 1_555 1_555
N4A C25 1_555 1_555
O9A N4A 1_555 1_555
Zn1_2 O9A 1_555 1_555
C28B C28 1_555 1_555
C27B C28B 1_555 1_555
C26B C27B 1_555 1_555
N5B C30 1_555 1_555
O10B N5B 1_555 1_555
Zn1C O10B 1_555 1_555
H37B C26B 1_555 1_555
H38B C27B 1_555 1_555
C29B C28 1_555 1_555
H39B C29B 1_555 1_555
C30B N5 1_555 1_555
H40B C30B 1_555 1_555
C25A N4 1_555 1_555
C24A C23 1_555 1_555
H35A C24A 1_555 1_555
H36A C25A 1_555 1_555
H33A C21 1_555 1_555
H34A C22 1_555 1_555
O9A_2 Zn1 1_555 1_555
C33B C33 1_555 1_555
C32B C33B 1_555 1_555
C31B C32B 1_555 1_555
N6B C31B 1_555 1_555
O11B N6B 1_555 1_555
C35B N6B 1_555 1_555
C34B C33B 1_555 1_555
H43B C34B 1_555 1_555
H44B C35B 1_555 1_555
H41B C31B 1_555 1_555
H42B C32B 1_555 1_555
O10 Zn1A 1_555 1_555
C9 C10 1_555 1_555
C12 C13 1_555 1_555
C14 C15 1_555 1_555
C19 C20 1_555 1_555
C29 C28B 1_555 1_555
C34 C35 1_555 1_555
C9A C10A 1_555 1_555
C15A C14A 1_555 1_555
C18A C23A 1_555 1_555
C19A C20A 1_555 1_555
C21A N4A 1_555 1_555
C26B N5B 1_555 1_555
C29B C30B 1_555 1_555
C25A C24A 1_555 1_555
C35B C34B 1_555 1_555

#END
