
#######################################################################
#
#                 Cambridge Crystallographic Data Centre
#                                CCDC 
#
#######################################################################
#
# If this CIF has been generated from an entry in the Cambridge 
# Structural Database, then it will include bibliographic, chemical, 
# crystal, experimental, refinement or atomic coordinate data resulting 
# from the CCDC's data processing and validation procedures.
#
#######################################################################

data_QAKDAH
_symmetry_cell_setting           monoclinic
_symmetry_space_group_name_H-M   'C 2'
_symmetry_Int_Tables_number      5
_space_group_name_Hall           'C 2y'
loop_
_symmetry_equiv_pos_site_id
_symmetry_equiv_pos_as_xyz
1 x,y,z
2 -x,y,-z
3 1/2+x,1/2+y,z
4 1/2-x,1/2+y,-z
_cell_length_a                   22.250(4)
_cell_length_b                   9.1085(17)
_cell_length_c                   12.503(2)
_cell_angle_alpha                90.00
_cell_angle_beta                 96.359(3)
_cell_angle_gamma                90.00
_cell_volume                     2518.32
loop_
_atom_site_label
_atom_site_type_symbol
_atom_site_fract_x
_atom_site_fract_y
_atom_site_fract_z
Cd1 Cd 0.0000 0.36302(9) 0.5000
Cd2 Cd 0.5000 -0.74016(10) 1.0000
O1 O 0.0993(4) 0.2510(11) 0.4923(7)
N1 N 0.4466(4) -0.5646(13) 0.9037(8)
O2 O 0.0485(4) 0.2243(12) 0.6360(7)
O3 O 0.4450(3) 1.2183(11) 0.1507(7)
C1 C 0.3275(5) -0.2461(15) 0.7422(9)
H1 H 0.3376 -0.2110 0.6748
C2 C 0.1836(6) -0.057(2) 0.7794(12)
H2 H 0.1813 -0.0948 0.8497
C3 C 0.3681(5) -0.3482(14) 0.7988(9)
C4 C 0.2320(5) -0.0965(13) 0.7229(10)
C5 C 0.1383(7) 0.038(2) 0.7331(12)
H3 H 0.1052 0.0623 0.7717
C6 C 0.0949(5) 0.1986(12) 0.5839(8)
C7 C 0.1412(5) 0.0981(15) 0.6306(9)
C8 C 0.3627(5) -0.3936(17) 0.9055(9)
H4 H 0.3324 -0.3522 0.9441
C9 C 0.2355(5) -0.0373(14) 0.6207(8)
H5 H 0.2682 -0.0622 0.5815
O4 O 0.4195(5) 1.1101(16) 0.0017(8)
C10 C 0.4124(5) 1.1292(14) 0.0973(9)
C11 C 0.3622(5) 1.0500(14) 0.1450(9)
C12 C 0.4525(4) -0.5149(13) 0.8046(8)
H6 H 0.4845 -0.5547 0.7691
C13 C 0.4165(5) -0.4119(13) 0.7501(9)
H7 H 0.4239 -0.3829 0.6798
C14 C 0.2694(5) 0.9074(14) 0.2367(11)
C15 C 0.3201(6) 0.9695(17) 0.0806(11)
H8 H 0.3226 0.9636 0.0054
C16 C 0.3105(5) 0.9910(15) 0.2991(10)
H9 H 0.3067 1.0025 0.3736
C17 C 0.3579(6) 1.0597(17) 0.2544(10)
H10 H 0.3874 1.1134 0.2992
C18 C 0.2740(7) 0.8972(19) 0.1248(11)
H11 H 0.2455 0.8407 0.0801
C19 C 0.1906(5) 0.0586(12) 0.5767(8)
H12 H 0.1937 0.0987 0.5074
C20 C 0.2763(5) -0.1957(14) 0.7766(9)
H13 H 0.2681 -0.2298 0.8453
C21 C 0.4013(5) -0.4972(15) 0.9527(9)
H14 H 0.3967 -0.5249 1.0246
N2 N 0.0400(4) 0.5428(11) 0.3995(7)
C22 C 0.0738(5) 0.6485(15) 0.4514(10)
H15 H 0.0662 0.6759 0.5220
C23 C 0.1192(6) 0.7182(17) 0.4048(11)
H16 H 0.1435 0.7905 0.4436
C24 C 0.1296(5) 0.6810(14) 0.2982(10)
C25 C 0.0938(6) 0.5779(14) 0.2470(10)
H17 H 0.0990 0.5522 0.1749
C26 C 0.0493(5) 0.5082(14) 0.2985(9)
H18 H 0.0250 0.4347 0.2612
C27 C 0.1773(6) 0.7494(15) 0.2406(12)
H19 H 0.1772 0.7299 0.1660
C28 C 0.2204(6) 0.8371(16) 0.2883(11)
H20 H 0.2194 0.8558 0.3628
O1A O -0.0993(4) 0.2510(11) 0.5077(7)
N1A N -0.4466(4) -0.5646(13) 0.0963(8)
O2A O -0.0485(4) 0.2243(12) 0.3640(7)
C1A C -0.3275(5) -0.2461(15) 0.2578(9)
H1A H -0.3376 -0.2110 0.3252
C2A C -0.1836(6) -0.057(2) 0.2206(12)
H2A H -0.1813 -0.0948 0.1503
C3A C -0.3681(5) -0.3482(14) 0.2012(9)
C4A C -0.2320(5) -0.0965(13) 0.2771(10)
C5A C -0.1383(7) 0.038(2) 0.2669(12)
H3A H -0.1052 0.0623 0.2283
C6A C -0.0949(5) 0.1986(12) 0.4161(8)
C7A C -0.1412(5) 0.0981(15) 0.3694(9)
C8A C -0.3627(5) -0.3936(17) 0.0945(9)
H4A H -0.3324 -0.3522 0.0559
C9A C -0.2355(5) -0.0373(14) 0.3793(8)
H5A H -0.2682 -0.0622 0.4185
C12A C -0.4525(4) -0.5149(13) 0.1954(8)
H6A H -0.4845 -0.5547 0.2309
C13A C -0.4165(5) -0.4119(13) 0.2499(9)
H7A H -0.4239 -0.3829 0.3202
C19A C -0.1906(5) 0.0586(12) 0.4233(8)
H12A H -0.1937 0.0987 0.4926
C20A C -0.2763(5) -0.1957(14) 0.2234(9)
H13A H -0.2681 -0.2298 0.1547
C21A C -0.4013(5) -0.4972(15) 0.0473(9)
H14A H -0.3967 -0.5249 -0.0246
O3A O -0.4450(3) 1.2183(11) 0.8493(7)
O4A O -0.4195(5) 1.1101(16) 0.9983(8)
C10A C -0.4124(5) 1.1292(14) 0.9027(9)
C11A C -0.3622(5) 1.0500(14) 0.8550(9)
C14A C -0.2694(5) 0.9074(14) 0.7633(11)
C15A C -0.3201(6) 0.9695(17) 0.9194(11)
H8A H -0.3226 0.9636 0.9946
C16A C -0.3105(5) 0.9910(15) 0.7009(10)
H9A H -0.3067 1.0025 0.6264
C17A C -0.3579(6) 1.0597(17) 0.7456(10)
H10A H -0.3874 1.1134 0.7008
C18A C -0.2740(7) 0.8972(19) 0.8752(11)
H11A H -0.2455 0.8407 0.9199
N2A N -0.0400(4) 0.5428(11) 0.6005(7)
C22A C -0.0738(5) 0.6485(15) 0.5486(10)
H15A H -0.0662 0.6759 0.4780
C23A C -0.1192(6) 0.7182(17) 0.5952(11)
H16A H -0.1435 0.7905 0.5564
C24A C -0.1296(5) 0.6810(14) 0.7018(10)
C25A C -0.0938(6) 0.5779(14) 0.7530(10)
H17A H -0.0990 0.5522 0.8251
C26A C -0.0493(5) 0.5082(14) 0.7015(9)
H18A H -0.0250 0.4347 0.7388
C27A C -0.1773(6) 0.7494(15) 0.7594(12)
H19A H -0.1772 0.7299 0.8340
C28A C -0.2204(6) 0.8371(16) 0.7117(11)
H20A H -0.2194 0.8558 0.6372
N1A_2 N 0.5534(4) -0.5646(13) 1.0963(8)
O3_2 O 0.4450(3) -0.7817(11) 1.1507(7)
O3A_2 O 0.5550(3) -0.7817(11) 0.8493(7)
O4_2 O 0.4195(5) -0.8899(16) 1.0017(8)
O4A_2 O 0.5805(5) -0.8899(16) 0.9983(8)
Cd2_2 Cd 0.5000 1.25984(10) 0.0000
Cd2_3 Cd -0.5000 -0.74016(10) 0.0000
Cd2_4 Cd -0.5000 1.25984(10) 1.0000
loop_
_geom_bond_atom_site_label_1
_geom_bond_atom_site_label_2
_geom_bond_site_symmetry_1
_geom_bond_site_symmetry_2
Cd1 O1 1_555 1_555
Cd2 N1 1_555 1_555
O1 C6 1_555 1_555
N1 C12 1_555 1_555
O2 Cd1 1_555 1_555
O3 C10 1_555 1_555
C1 H1 1_555 1_555
C2 H2 1_555 1_555
C3 C1 1_555 1_555
C4 C2 1_555 1_555
C5 C2 1_555 1_555
H3 C5 1_555 1_555
C6 O2 1_555 1_555
C7 C5 1_555 1_555
C8 C3 1_555 1_555
H4 C8 1_555 1_555
C9 C4 1_555 1_555
H5 C9 1_555 1_555
O4 C10 1_555 1_555
C10 C11 1_555 1_555
C11 C15 1_555 1_555
C12 H6 1_555 1_555
C13 C3 1_555 1_555
H7 C13 1_555 1_555
C14 C16 1_555 1_555
C15 H8 1_555 1_555
C16 H9 1_555 1_555
C17 C11 1_555 1_555
H10 C17 1_555 1_555
C18 C14 1_555 1_555
H11 C18 1_555 1_555
C19 C7 1_555 1_555
H12 C19 1_555 1_555
C20 C1 1_555 1_555
H13 C20 1_555 1_555
C21 N1 1_555 1_555
H14 C21 1_555 1_555
N2 Cd1 1_555 1_555
C22 N2 1_555 1_555
H15 C22 1_555 1_555
C23 C22 1_555 1_555
H16 C23 1_555 1_555
C24 C23 1_555 1_555
C25 C24 1_555 1_555
H17 C25 1_555 1_555
C26 N2 1_555 1_555
H18 C26 1_555 1_555
C27 C24 1_555 1_555
H19 C27 1_555 1_555
C28 C14 1_555 1_555
H20 C28 1_555 1_555
O1A Cd1 1_555 1_555
N1A C12A 1_555 1_555
O2A Cd1 1_555 1_555
C1A H1A 1_555 1_555
C2A H2A 1_555 1_555
C3A C1A 1_555 1_555
C4A C2A 1_555 1_555
C5A C2A 1_555 1_555
H3A C5A 1_555 1_555
C6A O1A 1_555 1_555
C7A C5A 1_555 1_555
C8A C3A 1_555 1_555
H4A C8A 1_555 1_555
C9A C4A 1_555 1_555
H5A C9A 1_555 1_555
C12A H6A 1_555 1_555
C13A C3A 1_555 1_555
H7A C13A 1_555 1_555
C19A C7A 1_555 1_555
H12A C19A 1_555 1_555
C20A C1A 1_555 1_555
H13A C20A 1_555 1_555
C21A N1A 1_555 1_555
H14A C21A 1_555 1_555
O3A C10A 1_555 1_555
O4A C10A 1_555 1_555
C10A C11A 1_555 1_555
C11A C15A 1_555 1_555
C14A C16A 1_555 1_555
C15A H8A 1_555 1_555
C16A H9A 1_555 1_555
C17A C11A 1_555 1_555
H10A C17A 1_555 1_555
C18A C14A 1_555 1_555
H11A C18A 1_555 1_555
N2A Cd1 1_555 1_555
C22A N2A 1_555 1_555
H15A C22A 1_555 1_555
C23A C22A 1_555 1_555
H16A C23A 1_555 1_555
C24A C23A 1_555 1_555
C25A C24A 1_555 1_555
H17A C25A 1_555 1_555
C26A N2A 1_555 1_555
H18A C26A 1_555 1_555
C27A C24A 1_555 1_555
H19A C27A 1_555 1_555
C28A C14A 1_555 1_555
H20A C28A 1_555 1_555
N1A_2 Cd2 1_555 1_555
O3_2 Cd2 1_555 1_555
O3A_2 Cd2 1_555 1_555
O4_2 Cd2 1_555 1_555
O4A_2 Cd2 1_555 1_555
Cd2_2 O3 1_555 1_555
Cd2_3 N1A 1_555 1_555
Cd2_4 O3A 1_555 1_555
C4 C20 1_555 1_555
C6 C7 1_555 1_555
C8 C21 1_555 1_555
C9 C19 1_555 1_555
O4 Cd2_2 1_555 1_555
C12 C13 1_555 1_555
C15 C18 1_555 1_555
C16 C17 1_555 1_555
C25 C26 1_555 1_555
C27 C28 1_555 1_555
O2A C6A 1_555 1_555
C4A C20A 1_555 1_555
C6A C7A 1_555 1_555
C8A C21A 1_555 1_555
C9A C19A 1_555 1_555
C12A C13A 1_555 1_555
O4A Cd2_4 1_555 1_555
C15A C18A 1_555 1_555
C16A C17A 1_555 1_555
C25A C26A 1_555 1_555
C27A C28A 1_555 1_555

#END
