
#######################################################################
#
#                 Cambridge Crystallographic Data Centre
#                                CCDC 
#
#######################################################################
#
# If this CIF has been generated from an entry in the Cambridge 
# Structural Database, then it will include bibliographic, chemical, 
# crystal, experimental, refinement or atomic coordinate data resulting 
# from the CCDC's data processing and validation procedures.
#
#######################################################################

data_QAKDIP
_symmetry_cell_setting           orthorhombic
_symmetry_space_group_name_H-M   'C m c m'
_symmetry_Int_Tables_number      63
_space_group_name_Hall           '-C 2n 2'
loop_
_symmetry_equiv_pos_site_id
_symmetry_equiv_pos_as_xyz
1 x,y,z
2 1/2+x,1/2+y,z
3 x,y,1/2-z
4 x,-y,1/2+z
5 -x,y,z
6 1/2+x,1/2+y,1/2-z
7 1/2+x,1/2-y,1/2+z
8 1/2-x,1/2+y,z
9 -x,-y,-z
10 1/2-x,1/2-y,-z
11 -x,-y,1/2+z
12 -x,y,1/2-z
13 x,-y,-z
14 1/2-x,1/2-y,1/2+z
15 1/2-x,1/2+y,1/2-z
16 1/2+x,1/2-y,-z
_cell_length_a                   15.197(3)
_cell_length_b                   7.2010(10)
_cell_length_c                   6.6720(10)
_cell_angle_alpha                90
_cell_angle_beta                 90
_cell_angle_gamma                90
_cell_volume                     730.141
loop_
_atom_site_label
_atom_site_type_symbol
_atom_site_fract_x
_atom_site_fract_y
_atom_site_fract_z
Fe1 Fe 0.0000 0.0000 0.0000
N1 N 0.0000 0.3049(8) -0.0001(3)
C1 C 0.0742(3) 0.4038(6) -0.0001(3)
H1 H 0.132(4) 0.330(5) -0.005(3)
N2 N -0.0924(3) -0.0041(3) 0.2500
N3 N -0.1683(3) 0.0418(6) 0.2500
N4 N -0.2393(3) 0.0861(10) 0.2500
C1L C 0.0742(3) 0.5962(6) 0.0001(3)
N1L N 0.0000 0.6951(8) 0.0001(3)
C1H C -0.0742(3) 0.5962(6) 0.0001(3)
C1D C -0.0742(3) 0.4038(6) -0.0001(3)
H1D H -0.132(4) 0.330(5) -0.005(3)
H1H H -0.132(4) 0.670(5) 0.005(3)
H1L H 0.132(4) 0.670(5) 0.005(3)
N2C N -0.0924(3) 0.0041(3) -0.2500
N3C N -0.1683(3) -0.0418(6) -0.2500
N4C N -0.2393(3) -0.0861(10) -0.2500
N1H N 0.0000 -0.3049(8) 0.0001(3)
N2D N 0.0924(3) -0.0041(3) 0.2500
N2H N 0.0924(3) 0.0041(3) -0.2500
Fe1B Fe 0.0000 0.0000 0.5000
Fe1_2 Fe 0.0000 1.0000 0.0000
Fe1B_2 Fe 0.0000 0.0000 -0.5000
loop_
_geom_bond_atom_site_label_1
_geom_bond_atom_site_label_2
_geom_bond_site_symmetry_1
_geom_bond_site_symmetry_2
Fe1 N1 1_555 1_555
N1 C1 1_555 1_555
C1 H1 1_555 1_555
N2 Fe1 1_555 1_555
N3 N2 1_555 1_555
N4 N3 1_555 1_555
C1L C1 1_555 1_555
N1L C1L 1_555 1_555
C1H N1L 1_555 1_555
C1D N1 1_555 1_555
H1D C1D 1_555 1_555
H1H C1H 1_555 1_555
H1L C1L 1_555 1_555
N2C Fe1 1_555 1_555
N3C N2C 1_555 1_555
N4C N3C 1_555 1_555
N1H Fe1 1_555 1_555
N2D Fe1 1_555 1_555
N2H Fe1 1_555 1_555
Fe1B N2 1_555 1_555
Fe1_2 N1L 1_555 1_555
Fe1B_2 N2C 1_555 1_555
C1H C1D 1_555 1_555
N2D Fe1B 1_555 1_555
N2H Fe1B_2 1_555 1_555

#END
