
#######################################################################
#
#                 Cambridge Crystallographic Data Centre
#                                CCDC 
#
#######################################################################
#
# If this CIF has been generated from an entry in the Cambridge 
# Structural Database, then it will include bibliographic, chemical, 
# crystal, experimental, refinement or atomic coordinate data resulting 
# from the CCDC's data processing and validation procedures.
#
#######################################################################

data_QAKFIR
_symmetry_cell_setting           monoclinic
_symmetry_space_group_name_H-M   'P 21/c'
_symmetry_Int_Tables_number      14
_space_group_name_Hall           '-P 2ybc'
loop_
_symmetry_equiv_pos_site_id
_symmetry_equiv_pos_as_xyz
1 x,y,z
2 x,1/2-y,1/2+z
3 -x,-y,-z
4 -x,1/2+y,1/2-z
_cell_length_a                   4.7895(14)
_cell_length_b                   23.242(7)
_cell_length_c                   8.138(3)
_cell_angle_alpha                90
_cell_angle_beta                 94.240(6)
_cell_angle_gamma                90
_cell_volume                     903.423
loop_
_atom_site_label
_atom_site_type_symbol
_atom_site_fract_x
_atom_site_fract_y
_atom_site_fract_z
Sn1 Sn -0.01347(5) 0.591106(10) 0.63990(3)
Sn2 Sn -0.82486(5) 0.589573(11) 1.17284(3)
P1 P -0.48653(19) 0.65471(4) 0.87333(11)
O1 O -0.2616(5) 0.61031(11) 0.8404(3)
O2 O -0.7303(5) 0.65326(11) 0.7410(3)
O3 O -0.5815(6) 0.64625(11) 1.0480(3)
O4 O -0.5437(6) 0.87719(11) 0.8974(3)
O5 O -0.1865(5) 0.82964(11) 1.0206(3)
O6 O -0.7892(5) 0.53741(11) 0.9158(3)
O7 O -0.5177(6) 0.47454(11) 0.7973(3)
C1 C -0.3353(8) 0.72499(16) 0.8736(4)
H1 H -0.1953 0.7279 0.9656
H2 H -0.2408 0.7299 0.7731
C2 C -0.5473(8) 0.77372(16) 0.8861(5)
H3 H -0.6536 0.7778 0.7806
H4 H -0.6775 0.7632 0.9668
C3 C -0.4184(8) 0.83106(16) 0.9339(4)
C4 C -0.5888(7) 0.50342(15) 0.9169(4)
C4B C -0.4112(7) 0.49658(15) 1.0831(4)
O6B O -0.2108(5) 0.46259(11) 1.0842(3)
O7B O -0.4823(6) 0.52546(11) 1.2027(3)
P1_2 P 0.51347(19) 0.65471(4) 0.87333(11)
O1_2 O 0.7384(5) 0.61031(11) 0.8404(3)
O2_2 O 0.2697(5) 0.65326(11) 0.7410(3)
O3_2 O 0.4185(6) 0.64625(11) 1.0480(3)
O4_2 O 0.4563(6) 0.87719(11) 0.8974(3)
O5_2 O 0.8135(5) 0.82964(11) 1.0206(3)
C1_2 C 0.6647(8) 0.72499(16) 0.8736(4)
H1_2 H 0.8047 0.7279 0.9656
H2_2 H 0.7592 0.7299 0.7731
C2_2 C 0.4527(8) 0.77372(16) 0.8861(5)
H3_2 H 0.3464 0.7778 0.7806
H4_2 H 0.3225 0.7632 0.9668
C3_2 C 0.5816(8) 0.83106(16) 0.9339(4)
Sn1_2 Sn 0.98653(5) 0.591106(10) 0.63990(3)
Sn2_2 Sn 0.17514(5) 0.589573(11) 1.17284(3)
O5A O -0.1865(5) 0.67036(11) 0.5206(3)
O4A O -0.5437(6) 0.62281(11) 1.3974(3)
Sn1_3 Sn -1.01347(5) 0.591106(10) 0.63990(3)
Sn2A Sn -0.82486(5) 0.910427(11) 0.67284(3)
Sn1A Sn -0.01347(5) 0.908894(10) 1.13990(3)
Sn2B Sn -0.17514(5) 0.410427(11) 0.82716(3)
Sn2A_2 Sn 0.17514(5) 0.910427(11) 0.67284(3)
Sn1A_2 Sn 0.98653(5) 0.908894(10) 1.13990(3)
O2_3 O 1.2697(5) 0.65326(11) 0.7410(3)
O5A_2 O 0.8135(5) 0.67036(11) 0.5206(3)
O4A_2 O 0.4563(6) 0.62281(11) 1.3974(3)
O6_2 O 0.2108(5) 0.53741(11) 0.9158(3)
O7B_2 O 0.5177(6) 0.52546(11) 1.2027(3)
loop_
_geom_bond_atom_site_label_1
_geom_bond_atom_site_label_2
_geom_bond_site_symmetry_1
_geom_bond_site_symmetry_2
Sn1 O1 1_555 1_555
Sn2 O3 1_555 1_555
P1 O1 1_555 1_555
O2 P1 1_555 1_555
O3 P1 1_555 1_555
O4 C3 1_555 1_555
O5 C3 1_555 1_555
O6 Sn2 1_555 1_555
O7 C4 1_555 1_555
C1 P1 1_555 1_555
H1 C1 1_555 1_555
H2 C1 1_555 1_555
C2 C1 1_555 1_555
H3 C2 1_555 1_555
H4 C2 1_555 1_555
C3 C2 1_555 1_555
C4 O6 1_555 1_555
C4B C4 1_555 1_555
O6B C4B 1_555 1_555
O7B Sn2 1_555 1_555
P1_2 O1_2 1_555 1_555
O1_2 Sn1_2 1_555 1_555
O2_2 Sn1 1_555 1_555
O3_2 P1_2 1_555 1_555
O4_2 C3_2 1_555 1_555
O5_2 C3_2 1_555 1_555
C1_2 P1_2 1_555 1_555
H1_2 C1_2 1_555 1_555
H2_2 C1_2 1_555 1_555
C2_2 C1_2 1_555 1_555
H3_2 C2_2 1_555 1_555
H4_2 C2_2 1_555 1_555
C3_2 C2_2 1_555 1_555
Sn1_2 O2_3 1_555 1_555
Sn2_2 O3_2 1_555 1_555
O5A Sn1 1_555 1_555
O4A Sn2 1_555 1_555
Sn1_3 O2 1_555 1_555
Sn2A O4 1_555 1_555
Sn1A O5 1_555 1_555
Sn2B O7 1_555 1_555
Sn2A_2 O4_2 1_555 1_555
Sn1A_2 O5_2 1_555 1_555
O5A_2 Sn1_2 1_555 1_555
O4A_2 Sn2_2 1_555 1_555
O6_2 Sn2_2 1_555 1_555
O7B_2 Sn2_2 1_555 1_555
C4B O7B 1_555 1_555
O6B Sn2B 1_555 1_555
P1_2 O2_2 1_555 1_555

#END
