
#######################################################################
#
#                 Cambridge Crystallographic Data Centre
#                                CCDC 
#
#######################################################################
#
# If this CIF has been generated from an entry in the Cambridge 
# Structural Database, then it will include bibliographic, chemical, 
# crystal, experimental, refinement or atomic coordinate data resulting 
# from the CCDC's data processing and validation procedures.
#
#######################################################################

data_QAKGUE
_symmetry_cell_setting           orthorhombic
_symmetry_space_group_name_H-M   'F d d 2'
_symmetry_Int_Tables_number      43
_space_group_name_Hall           'F 2 -2d'
loop_
_symmetry_equiv_pos_site_id
_symmetry_equiv_pos_as_xyz
1 x,y,z
2 -x,-y,z
3 1/4+x,1/4-y,1/4+z
4 1/4-x,1/4+y,1/4+z
5 x,1/2+y,1/2+z
6 -x,1/2-y,1/2+z
7 1/4+x,3/4-y,3/4+z
8 1/4-x,3/4+y,3/4+z
9 1/2+x,y,1/2+z
10 1/2-x,-y,1/2+z
11 3/4+x,1/4-y,3/4+z
12 3/4-x,1/4+y,3/4+z
13 1/2+x,1/2+y,z
14 1/2-x,1/2-y,z
15 3/4+x,3/4-y,1/4+z
16 3/4-x,3/4+y,1/4+z
_cell_length_a                   28.7821(7)
_cell_length_b                   12.5280(3)
_cell_length_c                   23.7374(4)
_cell_angle_alpha                90
_cell_angle_beta                 90
_cell_angle_gamma                90
_cell_volume                     8559.28
loop_
_atom_site_label
_atom_site_type_symbol
_atom_site_fract_x
_atom_site_fract_y
_atom_site_fract_z
Fe1 Fe 0.2500 0.2500 0.99960(2)
N10 N 0.21071(7) 0.12224(16) 1.00497(9)
N11 N 0.20843(7) 0.29918(17) 1.06024(8)
N12 N 0.28740(7) 0.19399(17) 0.93699(9)
C7 C 0.18037(9) 0.1223(2) 1.04922(10)
C8 C 0.15366(9) 0.0340(2) 1.06244(10)
H1 H 0.1322 0.0364 1.0928
C9 C 0.15869(9) -0.0580(2) 1.03063(11)
H2 H 0.1418 -0.1206 1.0402
C10 C 0.18831(9) -0.0582(2) 0.98502(11)
H3 H 0.1915 -0.1200 0.9621
C11 C 0.21341(9) 0.0336(2) 0.97322(10)
H4 H 0.2334 0.0338 0.9414
C12 C 0.17963(8) 0.22311(18) 1.08145(10)
C13 C 0.15270(9) 0.2404(2) 1.12884(10)
H5 H 0.1333 0.1854 1.1432
C14 C 0.15433(9) 0.3392(2) 1.15516(10)
H6 H 0.1363 0.3524 1.1880
C15 C 0.18246(9) 0.4179(2) 1.13307(11)
H7 H 0.1836 0.4865 1.1500
C16 C 0.20896(9) 0.3952(2) 1.08586(10)
H8 H 0.2283 0.4497 1.0709
C17 C 0.27135(8) 0.2170(2) 0.88465(10)
C18 C 0.29292(9) 0.1785(2) 0.83666(11)
H9 H 0.2808 0.1949 0.8005
C19 C 0.33191(10) 0.1166(2) 0.84168(11)
H10 H 0.3468 0.0893 0.8090
C20 C 0.34934(9) 0.0941(2) 0.89453(11)
H11 H 0.3766 0.0520 0.8987
C21 C 0.32637(9) 0.1341(2) 0.94145(11)
H12 H 0.3384 0.1190 0.9779
C17M C 0.22865(8) 0.2830(2) 0.88465(10)
N12M N 0.21260(7) 0.30601(17) 0.93699(9)
C21M C 0.17363(9) 0.3659(2) 0.94145(11)
C20M C 0.15066(9) 0.4059(2) 0.89453(11)
C19M C 0.16809(10) 0.3834(2) 0.84168(11)
C18M C 0.20708(9) 0.3215(2) 0.83666(11)
H9M H 0.2192 0.3051 0.8005
H10M H 0.1532 0.4107 0.8090
H11M H 0.1234 0.4480 0.8987
H12M H 0.1616 0.3810 0.9779
N10M N 0.28929(7) 0.37776(16) 1.00497(9)
N11M N 0.29157(7) 0.20082(17) 1.06024(8)
C7M C 0.31963(9) 0.3777(2) 1.04922(10)
C8M C 0.34634(9) 0.4660(2) 1.06244(10)
H1M H 0.3678 0.4636 1.0928
C9M C 0.34131(9) 0.5580(2) 1.03063(11)
H2M H 0.3582 0.6206 1.0402
C10M C 0.31169(9) 0.5582(2) 0.98502(11)
H3M H 0.3085 0.6200 0.9621
C11M C 0.28659(9) 0.4664(2) 0.97322(10)
H4M H 0.2666 0.4662 0.9414
C12M C 0.32037(8) 0.27689(18) 1.08145(10)
C13M C 0.34730(9) 0.2596(2) 1.12884(10)
H5M H 0.3667 0.3146 1.1432
C14M C 0.34567(9) 0.1608(2) 1.15516(10)
H6M H 0.3637 0.1476 1.1880
C15M C 0.31754(9) 0.0821(2) 1.13307(11)
H7M H 0.3164 0.0135 1.1500
C16M C 0.29104(9) 0.1048(2) 1.08586(10)
H8M H 0.2717 0.0503 1.0709
Mn1 Mn 0.2500 -0.2500 0.83350(2)
Mn2 Mn 0.2500 -0.2500 1.150887(19)
N1 N 0.20407(9) -0.3178(2) 0.90032(10)
N2 N 0.17897(8) -0.38795(19) 0.99182(10)
N3 N 0.20821(8) -0.32412(19) 1.08327(10)
N4 N 0.20640(8) -0.1024(2) 0.83372(11)
N5 N 0.16941(9) 0.0401(3) 0.77932(13)
N6 N 0.20765(8) 0.1658(2) 0.71627(9)
N7 N 0.29165(9) -0.1694(2) 0.76783(10)
N8 N 0.33298(8) -0.0346(2) 0.71219(10)
N9 N 0.29801(9) 0.1142(2) 0.66034(11)
C1 C 0.19327(9) -0.3474(2) 0.94437(11)
C2 C 0.19588(9) -0.3506(2) 1.03908(11)
C3 C 0.19127(10) -0.0340(2) 0.80729(12)
C4 C 0.19176(9) 0.1051(2) 0.74673(13)
C5 C 0.30829(9) -0.1039(2) 0.74063(12)
C6 C 0.31241(10) 0.0432(2) 0.68554(11)
N1M N 0.29593(9) -0.1822(2) 0.90032(10)
N2M N 0.32103(8) -0.11205(19) 0.99182(10)
N3M N 0.29179(8) -0.17588(19) 1.08327(10)
C1M C 0.30673(9) -0.1526(2) 0.94437(11)
C2M C 0.30412(9) -0.1494(2) 1.03908(11)
N4M N 0.29360(8) -0.3976(2) 0.83372(11)
N5M N 0.33059(9) -0.5401(3) 0.77932(13)
N6M N 0.29235(8) -0.6658(2) 0.71627(9)
C3M C 0.30873(10) -0.4660(2) 0.80729(12)
C4M C 0.30824(9) -0.6051(2) 0.74673(13)
N7M N 0.20835(9) -0.3306(2) 0.76783(10)
N8M N 0.16702(8) -0.4654(2) 0.71219(10)
N9M N 0.20199(9) -0.6142(2) 0.66034(11)
C5M C 0.19171(9) -0.3961(2) 0.74063(12)
C6M C 0.18759(10) -0.5432(2) 0.68554(11)
N6D N 0.20765(8) -0.3342(2) 1.21627(9)
N6I N 0.29235(8) -0.1658(2) 1.21627(9)
N9D N 0.29801(9) -0.3858(2) 1.16034(11)
N9I N 0.20199(9) -0.1142(2) 1.16034(11)
Mn2D Mn 0.2500 0.2500 0.650887(19)
Mn2D_2 Mn 0.2500 -0.7500 0.650887(19)
loop_
_geom_bond_atom_site_label_1
_geom_bond_atom_site_label_2
_geom_bond_site_symmetry_1
_geom_bond_site_symmetry_2
Fe1 N10 1_555 1_555
Mn1 N1 1_555 1_555
Mn2 N3 1_555 1_555
N1 C1 1_555 1_555
N2 C1 1_555 1_555
N3 C2 1_555 1_555
N4 Mn1 1_555 1_555
N5 C3 1_555 1_555
N6 C4 1_555 1_555
N7 Mn1 1_555 1_555
N8 C5 1_555 1_555
N9 C6 1_555 1_555
N10 C7 1_555 1_555
N11 Fe1 1_555 1_555
N12 Fe1 1_555 1_555
C2 N2 1_555 1_555
C3 N4 1_555 1_555
C4 N5 1_555 1_555
C5 N7 1_555 1_555
C6 N8 1_555 1_555
C7 C8 1_555 1_555
C8 H1 1_555 1_555
C9 C8 1_555 1_555
H2 C9 1_555 1_555
C10 C9 1_555 1_555
H3 C10 1_555 1_555
C11 N10 1_555 1_555
H4 C11 1_555 1_555
C12 N11 1_555 1_555
C13 C12 1_555 1_555
H5 C13 1_555 1_555
C14 C13 1_555 1_555
H6 C14 1_555 1_555
C15 C14 1_555 1_555
H7 C15 1_555 1_555
C16 N11 1_555 1_555
H8 C16 1_555 1_555
C17 N12 1_555 1_555
C18 C17 1_555 1_555
H9 C18 1_555 1_555
C19 C18 1_555 1_555
H10 C19 1_555 1_555
C20 C19 1_555 1_555
H11 C20 1_555 1_555
C21 N12 1_555 1_555
H12 C21 1_555 1_555
C17M C17 1_555 1_555
N12M Fe1 1_555 1_555
C21M N12M 1_555 1_555
C20M C21M 1_555 1_555
C19M C20M 1_555 1_555
C18M C17M 1_555 1_555
H9M C18M 1_555 1_555
H10M C19M 1_555 1_555
H11M C20M 1_555 1_555
H12M C21M 1_555 1_555
N10M Fe1 1_555 1_555
N11M Fe1 1_555 1_555
C7M N10M 1_555 1_555
C8M C7M 1_555 1_555
H1M C8M 1_555 1_555
C9M C8M 1_555 1_555
H2M C9M 1_555 1_555
C10M C9M 1_555 1_555
H3M C10M 1_555 1_555
C11M N10M 1_555 1_555
H4M C11M 1_555 1_555
C12M N11M 1_555 1_555
C13M C12M 1_555 1_555
H5M C13M 1_555 1_555
C14M C13M 1_555 1_555
H6M C14M 1_555 1_555
C15M C14M 1_555 1_555
H7M C15M 1_555 1_555
C16M N11M 1_555 1_555
H8M C16M 1_555 1_555
N1M Mn1 1_555 1_555
N2M C1M 1_555 1_555
N3M Mn2 1_555 1_555
C1M N1M 1_555 1_555
C2M N2M 1_555 1_555
N4M Mn1 1_555 1_555
N5M C3M 1_555 1_555
N6M C4M 1_555 1_555
C3M N4M 1_555 1_555
C4M N5M 1_555 1_555
N7M Mn1 1_555 1_555
N8M C5M 1_555 1_555
N9M C6M 1_555 1_555
C5M N7M 1_555 1_555
C6M N8M 1_555 1_555
N6D Mn2 1_555 1_555
N6I Mn2 1_555 1_555
N9D Mn2 1_555 1_555
N9I Mn2 1_555 1_555
Mn2D N6 1_555 1_555
Mn2D_2 N6M 1_555 1_555
N9 Mn2D 1_555 1_555
C7 C12 1_555 1_555
C10 C11 1_555 1_555
C15 C16 1_555 1_555
C20 C21 1_555 1_555
C17M N12M 1_555 1_555
C19M C18M 1_555 1_555
C7M C12M 1_555 1_555
C10M C11M 1_555 1_555
C15M C16M 1_555 1_555
N3M C2M 1_555 1_555
N9M Mn2D_2 1_555 1_555

#END
