
#######################################################################
#
#                 Cambridge Crystallographic Data Centre
#                                CCDC 
#
#######################################################################
#
# If this CIF has been generated from an entry in the Cambridge 
# Structural Database, then it will include bibliographic, chemical, 
# crystal, experimental, refinement or atomic coordinate data resulting 
# from the CCDC's data processing and validation procedures.
#
#######################################################################

data_QAKHEP
_symmetry_cell_setting           orthorhombic
_symmetry_space_group_name_H-M   'F d d 2'
_symmetry_Int_Tables_number      43
_space_group_name_Hall           'F 2 -2d'
loop_
_symmetry_equiv_pos_site_id
_symmetry_equiv_pos_as_xyz
1 x,y,z
2 -x,-y,z
3 1/4+x,1/4-y,1/4+z
4 1/4-x,1/4+y,1/4+z
5 x,1/2+y,1/2+z
6 -x,1/2-y,1/2+z
7 1/4+x,3/4-y,3/4+z
8 1/4-x,3/4+y,3/4+z
9 1/2+x,y,1/2+z
10 1/2-x,-y,1/2+z
11 3/4+x,1/4-y,3/4+z
12 3/4-x,1/4+y,3/4+z
13 1/2+x,1/2+y,z
14 1/2-x,1/2-y,z
15 3/4+x,3/4-y,1/4+z
16 3/4-x,3/4+y,1/4+z
_cell_length_a                   28.8625(5)
_cell_length_b                   12.5231(2)
_cell_length_c                   23.9239(3)
_cell_angle_alpha                90
_cell_angle_beta                 90
_cell_angle_gamma                90
_cell_volume                     8647.25
loop_
_atom_site_label
_atom_site_type_symbol
_atom_site_fract_x
_atom_site_fract_y
_atom_site_fract_z
Ni1 Ni 0.0000 0.0000 0.000000(12)
N10 N 0.04211(5) 0.13329(11) -0.00836(6)
N11 N 0.04483(5) -0.04994(11) -0.06309(6)
N12 N -0.03808(5) 0.05843(11) 0.06666(6)
C7 C 0.07177(6) 0.12979(13) -0.05197(7)
C8 C 0.09889(6) 0.21746(14) -0.06666(7)
H1 H 0.1203 0.2131 -0.0968
C9 C 0.09401(7) 0.31160(14) -0.03627(8)
H2 H 0.1111 0.3734 -0.0465
C10 C 0.06422(6) 0.31467(14) 0.00883(8)
H3 H 0.0610 0.3777 0.0305
C11 C 0.03904(6) 0.22336(13) 0.02172(7)
H4 H 0.0188 0.2248 0.0531
C12 C 0.07287(6) 0.02721(13) -0.08354(7)
C13 C 0.09962(6) 0.01094(14) -0.13090(7)
H5 H 0.1186 0.0666 -0.1451
C14 C 0.09830(7) -0.08760(16) -0.15732(7)
H6 H 0.1163 -0.1001 -0.1899
C15 C 0.07052(7) -0.16747(15) -0.13564(8)
H7 H 0.0694 -0.2360 -0.1526
C16 C 0.04437(6) -0.14519(14) -0.08860(7)
H8 H 0.0252 -0.1999 -0.0737
C17 C -0.02130(6) 0.03405(13) 0.11790(7)
C18 C -0.04216(6) 0.07157(15) 0.16628(8)
H9 H -0.0296 0.0546 0.2019
C19 C -0.08147(7) 0.13413(15) 0.16187(8)
H10 H -0.0963 0.1603 0.1946
C20 C -0.09903(6) 0.15843(15) 0.10971(8)
H11 H -0.1260 0.2012 0.1059
C21 C -0.07630(6) 0.11889(14) 0.06313(8)
H12 H -0.0883 0.1353 0.0272
C17A C 0.02130(6) -0.03405(13) 0.11790(7)
N12A N 0.03808(5) -0.05843(11) 0.06666(6)
C21A C 0.07630(6) -0.11889(14) 0.06313(8)
C20A C 0.09903(6) -0.15843(15) 0.10971(8)
C19A C 0.08147(7) -0.13413(15) 0.16187(8)
C18A C 0.04216(6) -0.07157(15) 0.16628(8)
H9A H 0.0296 -0.0546 0.2019
H10A H 0.0963 -0.1603 0.1946
H11A H 0.1260 -0.2012 0.1059
H12A H 0.0883 -0.1353 0.0272
N10A N -0.04211(5) -0.13329(11) -0.00836(6)
N11A N -0.04483(5) 0.04994(11) -0.06309(6)
C7A C -0.07177(6) -0.12979(13) -0.05197(7)
C8A C -0.09889(6) -0.21746(14) -0.06666(7)
H1A H -0.1203 -0.2131 -0.0968
C9A C -0.09401(7) -0.31160(14) -0.03627(8)
H2A H -0.1111 -0.3734 -0.0465
C10A C -0.06422(6) -0.31467(14) 0.00883(8)
H3A H -0.0610 -0.3777 0.0305
C11A C -0.03904(6) -0.22336(13) 0.02172(7)
H4A H -0.0188 -0.2248 0.0531
C12A C -0.07287(6) -0.02721(13) -0.08354(7)
C13A C -0.09962(6) -0.01094(14) -0.13090(7)
H5A H -0.1186 -0.0666 -0.1451
C14A C -0.09830(7) 0.08760(16) -0.15732(7)
H6A H -0.1163 0.1001 -0.1899
C15A C -0.07052(7) 0.16747(15) -0.13564(8)
H7A H -0.0694 0.2360 -0.1526
C16A C -0.04437(6) 0.14519(14) -0.08860(7)
H8A H -0.0252 0.1999 -0.0737
Mn1 Mn 0.0000 0.5000 0.165884(16)
Mn2 Mn 0.0000 0.5000 -0.150636(14)
N1 N 0.04587(6) 0.56666(14) 0.09897(7)
N2 N 0.07015(6) 0.63760(13) 0.00808(7)
N3 N 0.04163(6) 0.57303(13) -0.08275(7)
N4 N 0.04286(6) 0.35091(13) 0.16659(8)
N5 N 0.08030(6) 0.20828(18) 0.22027(10)
N6 N 0.04287(6) 0.08408(14) 0.28477(7)
N7 N -0.04167(6) 0.42003(14) 0.23119(7)
N8 N -0.08218(6) 0.28553(14) 0.28735(7)
N9 N -0.04700(7) 0.13693(14) 0.33931(7)
C1 C 0.05641(6) 0.59678(14) 0.05545(7)
C2 C 0.05371(6) 0.59978(14) -0.03868(8)
C3 C 0.05799(7) 0.28244(16) 0.19261(8)
C4 C 0.05837(6) 0.14413(15) 0.25382(9)
C5 C -0.05790(6) 0.35447(14) 0.25879(9)
C6 C -0.06145(7) 0.20775(16) 0.31396(8)
N1A N -0.04587(6) 0.43334(14) 0.09897(7)
N2A N -0.07015(6) 0.36240(13) 0.00808(7)
N3A N -0.04163(6) 0.42697(13) -0.08275(7)
C1A C -0.05641(6) 0.40322(14) 0.05545(7)
C2A C -0.05371(6) 0.40022(14) -0.03868(8)
N4A N -0.04286(6) 0.64909(13) 0.16659(8)
N5A N -0.08030(6) 0.79172(18) 0.22027(10)
N6A N -0.04287(6) 0.91592(14) 0.28477(7)
C3A C -0.05799(7) 0.71756(16) 0.19261(8)
C4A C -0.05837(6) 0.85587(15) 0.25382(9)
N7A N 0.04167(6) 0.57997(14) 0.23119(7)
N8A N 0.08218(6) 0.71447(14) 0.28735(7)
N9A N 0.04700(7) 0.86307(14) 0.33931(7)
C5A C 0.05790(6) 0.64553(14) 0.25879(9)
C6A C 0.06145(7) 0.79225(16) 0.31396(8)
N6D N 0.04287(6) 0.58408(14) -0.21523(7)
N6E N -0.04287(6) 0.41592(14) -0.21523(7)
N9D N -0.04700(7) 0.63693(14) -0.16069(7)
N9E N 0.04700(7) 0.36307(14) -0.16069(7)
Mn2D Mn 0.0000 0.0000 0.349364(14)
Mn2D_2 Mn 0.0000 1.0000 0.349364(14)
loop_
_geom_bond_atom_site_label_1
_geom_bond_atom_site_label_2
_geom_bond_site_symmetry_1
_geom_bond_site_symmetry_2
Ni1 N10 1_555 1_555
Mn1 N1 1_555 1_555
Mn2 N3 1_555 1_555
N1 C1 1_555 1_555
N2 C1 1_555 1_555
N3 C2 1_555 1_555
N4 Mn1 1_555 1_555
N5 C3 1_555 1_555
N6 C4 1_555 1_555
N7 Mn1 1_555 1_555
N8 C5 1_555 1_555
N9 C6 1_555 1_555
N10 C7 1_555 1_555
N11 Ni1 1_555 1_555
N12 Ni1 1_555 1_555
C2 N2 1_555 1_555
C3 N4 1_555 1_555
C4 N5 1_555 1_555
C5 N7 1_555 1_555
C6 N8 1_555 1_555
C7 C8 1_555 1_555
C8 H1 1_555 1_555
C9 C8 1_555 1_555
H2 C9 1_555 1_555
C10 C9 1_555 1_555
H3 C10 1_555 1_555
C11 N10 1_555 1_555
H4 C11 1_555 1_555
C12 N11 1_555 1_555
C13 C12 1_555 1_555
H5 C13 1_555 1_555
C14 C13 1_555 1_555
H6 C14 1_555 1_555
C15 C14 1_555 1_555
H7 C15 1_555 1_555
C16 N11 1_555 1_555
H8 C16 1_555 1_555
C17 N12 1_555 1_555
C18 C17 1_555 1_555
H9 C18 1_555 1_555
C19 C18 1_555 1_555
H10 C19 1_555 1_555
C20 C19 1_555 1_555
H11 C20 1_555 1_555
C21 N12 1_555 1_555
H12 C21 1_555 1_555
C17A C17 1_555 1_555
N12A Ni1 1_555 1_555
C21A N12A 1_555 1_555
C20A C21A 1_555 1_555
C19A C20A 1_555 1_555
C18A C17A 1_555 1_555
H9A C18A 1_555 1_555
H10A C19A 1_555 1_555
H11A C20A 1_555 1_555
H12A C21A 1_555 1_555
N10A Ni1 1_555 1_555
N11A Ni1 1_555 1_555
C7A N10A 1_555 1_555
C8A C7A 1_555 1_555
H1A C8A 1_555 1_555
C9A C8A 1_555 1_555
H2A C9A 1_555 1_555
C10A C9A 1_555 1_555
H3A C10A 1_555 1_555
C11A N10A 1_555 1_555
H4A C11A 1_555 1_555
C12A N11A 1_555 1_555
C13A C12A 1_555 1_555
H5A C13A 1_555 1_555
C14A C13A 1_555 1_555
H6A C14A 1_555 1_555
C15A C14A 1_555 1_555
H7A C15A 1_555 1_555
C16A N11A 1_555 1_555
H8A C16A 1_555 1_555
N1A Mn1 1_555 1_555
N2A C1A 1_555 1_555
N3A Mn2 1_555 1_555
C1A N1A 1_555 1_555
C2A N2A 1_555 1_555
N4A Mn1 1_555 1_555
N5A C3A 1_555 1_555
N6A C4A 1_555 1_555
C3A N4A 1_555 1_555
C4A N5A 1_555 1_555
N7A Mn1 1_555 1_555
N8A C5A 1_555 1_555
N9A C6A 1_555 1_555
C5A N7A 1_555 1_555
C6A N8A 1_555 1_555
N6D Mn2 1_555 1_555
N6E Mn2 1_555 1_555
N9D Mn2 1_555 1_555
N9E Mn2 1_555 1_555
Mn2D N6 1_555 1_555
Mn2D_2 N6A 1_555 1_555
N9 Mn2D 1_555 1_555
C7 C12 1_555 1_555
C10 C11 1_555 1_555
C15 C16 1_555 1_555
C20 C21 1_555 1_555
C17A N12A 1_555 1_555
C19A C18A 1_555 1_555
C7A C12A 1_555 1_555
C10A C11A 1_555 1_555
C15A C16A 1_555 1_555
N3A C2A 1_555 1_555
N9A Mn2D_2 1_555 1_555

#END
