
#######################################################################
#
#                 Cambridge Crystallographic Data Centre
#                                CCDC 
#
#######################################################################
#
# If this CIF has been generated from an entry in the Cambridge 
# Structural Database, then it will include bibliographic, chemical, 
# crystal, experimental, refinement or atomic coordinate data resulting 
# from the CCDC's data processing and validation procedures.
#
#######################################################################

data_QAKHAL
_symmetry_cell_setting           orthorhombic
_symmetry_space_group_name_H-M   'F d d 2'
_symmetry_Int_Tables_number      43
_space_group_name_Hall           'F 2 -2d'
loop_
_symmetry_equiv_pos_site_id
_symmetry_equiv_pos_as_xyz
1 x,y,z
2 -x,-y,z
3 1/4+x,1/4-y,1/4+z
4 1/4-x,1/4+y,1/4+z
5 x,1/2+y,1/2+z
6 -x,1/2-y,1/2+z
7 1/4+x,3/4-y,3/4+z
8 1/4-x,3/4+y,3/4+z
9 1/2+x,y,1/2+z
10 1/2-x,-y,1/2+z
11 3/4+x,1/4-y,3/4+z
12 3/4-x,1/4+y,3/4+z
13 1/2+x,1/2+y,z
14 1/2-x,1/2-y,z
15 3/4+x,3/4-y,1/4+z
16 3/4-x,3/4+y,1/4+z
_cell_length_a                   28.8799(6)
_cell_length_b                   12.4011(3)
_cell_length_c                   23.5140(3)
_cell_angle_alpha                90
_cell_angle_beta                 90
_cell_angle_gamma                90
_cell_volume                     8421.36
loop_
_atom_site_label
_atom_site_type_symbol
_atom_site_fract_x
_atom_site_fract_y
_atom_site_fract_z
Fe1 Fe 0.2500 0.2500 1.000010(16)
N10 N 0.21061(6) 0.12139(13) 1.00537(7)
N11 N 0.20848(6) 0.29997(14) 1.06104(7)
N12 N 0.28739(6) 0.19323(13) 0.93704(7)
C7 C 0.17984(7) 0.12241(16) 1.04902(8)
C8 C 0.15235(7) 0.03340(17) 1.06199(8)
H1 H 0.1305 0.0365 1.0921
C9 C 0.15754(8) -0.06005(17) 1.02994(9)
H2 H 0.1404 -0.1230 1.0392
C10 C 0.18778(7) -0.06035(16) 0.98458(8)
H3 H 0.1909 -0.1226 0.9614
C11 C 0.21362(8) 0.03167(16) 0.97327(8)
H4 H 0.2342 0.0313 0.9417
C12 C 0.17885(7) 0.22397(15) 1.08145(8)
C13 C 0.15118(7) 0.24298(17) 1.12856(8)
H5 H 0.1313 0.1881 1.1425
C14 C 0.15279(8) 0.34257(19) 1.15515(8)
H6 H 0.1341 0.3568 1.1876
C15 C 0.18207(8) 0.42108(17) 1.13370(9)
H7 H 0.1835 0.4904 1.1508
C16 C 0.20918(7) 0.39681(16) 1.08703(8)
H8 H 0.2293 0.4509 1.0726
C17 C 0.27129(7) 0.21653(16) 0.88415(8)
C18 C 0.29274(8) 0.17743(18) 0.83548(9)
H9 H 0.2804 0.1936 0.7990
C19 C 0.33190(8) 0.11524(18) 0.84049(9)
H10 H 0.3469 0.0879 0.8076
C20 C 0.34931(7) 0.09289(18) 0.89422(9)
H11 H 0.3765 0.0506 0.8987
C21 C 0.32623(7) 0.13342(17) 0.94122(8)
H12 H 0.3383 0.1184 0.9780
C17M C 0.22871(7) 0.28347(16) 0.88415(8)
N12M N 0.21261(6) 0.30677(13) 0.93704(7)
C21M C 0.17377(7) 0.36658(17) 0.94122(8)
C20M C 0.15069(7) 0.40711(18) 0.89422(9)
C19M C 0.16810(8) 0.38476(18) 0.84049(9)
C18M C 0.20726(8) 0.32257(18) 0.83548(9)
H9M H 0.2196 0.3064 0.7990
H10M H 0.1531 0.4121 0.8076
H11M H 0.1235 0.4494 0.8987
H12M H 0.1617 0.3816 0.9780
N10M N 0.28939(6) 0.37861(13) 1.00537(7)
N11M N 0.29152(6) 0.20003(14) 1.06104(7)
C7M C 0.32016(7) 0.37759(16) 1.04902(8)
C8M C 0.34765(7) 0.46660(17) 1.06199(8)
H1M H 0.3695 0.4635 1.0921
C9M C 0.34246(8) 0.56005(17) 1.02994(9)
H2M H 0.3596 0.6230 1.0392
C10M C 0.31222(7) 0.56035(16) 0.98458(8)
H3M H 0.3091 0.6226 0.9614
C11M C 0.28638(8) 0.46833(16) 0.97327(8)
H4M H 0.2658 0.4687 0.9417
C12M C 0.32115(7) 0.27603(15) 1.08145(8)
C13M C 0.34882(7) 0.25702(17) 1.12856(8)
H5M H 0.3687 0.3119 1.1425
C14M C 0.34721(8) 0.15743(19) 1.15515(8)
H6M H 0.3659 0.1432 1.1876
C15M C 0.31793(8) 0.07892(17) 1.13370(9)
H7M H 0.3165 0.0096 1.1508
C16M C 0.29082(7) 0.10319(16) 1.08703(8)
H8M H 0.2707 0.0491 1.0726
Fe2 Fe 0.2500 -0.2500 0.83314(2)
Fe3 Fe 0.2500 -0.2500 1.150652(14)
N1 N 0.20676(7) -0.31819(16) 0.89977(8)
N2 N 0.17846(6) -0.38326(15) 0.99201(8)
N3 N 0.20909(7) -0.32063(15) 1.08392(8)
N4 N 0.20754(7) -0.10534(15) 0.83159(9)
N5 N 0.16998(7) 0.0406(2) 0.77827(11)
N6 N 0.20803(7) 0.16955(16) 0.71531(8)
N7 N 0.29063(7) -0.17169(16) 0.76896(8)
N8 N 0.33058(7) -0.03756(17) 0.70977(9)
N9 N 0.29425(7) 0.11345(17) 0.65892(8)
C1 C 0.19447(7) -0.34595(17) 0.94400(9)
C2 C 0.19612(7) -0.34673(17) 1.03936(9)
C3 C 0.19223(8) -0.0345(2) 0.80589(10)
C4 C 0.19235(7) 0.10766(17) 0.74563(10)
C5 C 0.30676(7) -0.10645(17) 0.73999(10)
C6 C 0.30932(8) 0.04134(19) 0.68395(9)
N1M N 0.29324(7) -0.18181(16) 0.89977(8)
N2M N 0.32154(6) -0.11674(15) 0.99201(8)
N3M N 0.29091(7) -0.17937(15) 1.08392(8)
C1M C 0.30553(7) -0.15405(17) 0.94400(9)
C2M C 0.30388(7) -0.15327(17) 1.03936(9)
N4M N 0.29246(7) -0.39466(15) 0.83159(9)
N5M N 0.33002(7) -0.5406(2) 0.77827(11)
N6M N 0.29197(7) -0.66955(16) 0.71531(8)
C3M C 0.30777(8) -0.4655(2) 0.80589(10)
C4M C 0.30765(7) -0.60766(17) 0.74563(10)
N7M N 0.20937(7) -0.32831(16) 0.76896(8)
N8M N 0.16942(7) -0.46244(17) 0.70977(9)
N9M N 0.20575(7) -0.61345(17) 0.65892(8)
C5M C 0.19324(7) -0.39355(17) 0.73999(10)
C6M C 0.19068(8) -0.54134(19) 0.68395(9)
N6D N 0.20803(7) -0.33045(16) 1.21531(8)
N6I N 0.29197(7) -0.16955(16) 1.21531(8)
N9D N 0.29425(7) -0.38655(17) 1.15892(8)
N9I N 0.20575(7) -0.11345(17) 1.15892(8)
Fe3D Fe 0.2500 0.2500 0.650652(14)
Fe3D_2 Fe 0.2500 -0.7500 0.650652(14)
loop_
_geom_bond_atom_site_label_1
_geom_bond_atom_site_label_2
_geom_bond_site_symmetry_1
_geom_bond_site_symmetry_2
Fe1 N10 1_555 1_555
Fe2 N1 1_555 1_555
Fe3 N3 1_555 1_555
N1 C1 1_555 1_555
N2 C1 1_555 1_555
N3 C2 1_555 1_555
N4 Fe2 1_555 1_555
N5 C3 1_555 1_555
N6 C4 1_555 1_555
N7 Fe2 1_555 1_555
N8 C5 1_555 1_555
N9 C6 1_555 1_555
N10 C7 1_555 1_555
N11 Fe1 1_555 1_555
N12 Fe1 1_555 1_555
C2 N2 1_555 1_555
C3 N4 1_555 1_555
C4 N5 1_555 1_555
C5 N7 1_555 1_555
C6 N8 1_555 1_555
C7 C8 1_555 1_555
C8 H1 1_555 1_555
C9 C8 1_555 1_555
H2 C9 1_555 1_555
C10 C9 1_555 1_555
H3 C10 1_555 1_555
C11 N10 1_555 1_555
H4 C11 1_555 1_555
C12 N11 1_555 1_555
C13 C12 1_555 1_555
H5 C13 1_555 1_555
C14 C13 1_555 1_555
H6 C14 1_555 1_555
C15 C14 1_555 1_555
H7 C15 1_555 1_555
C16 N11 1_555 1_555
H8 C16 1_555 1_555
C17 N12 1_555 1_555
C18 C17 1_555 1_555
H9 C18 1_555 1_555
C19 C18 1_555 1_555
H10 C19 1_555 1_555
C20 C19 1_555 1_555
H11 C20 1_555 1_555
C21 N12 1_555 1_555
H12 C21 1_555 1_555
C17M C17 1_555 1_555
N12M Fe1 1_555 1_555
C21M N12M 1_555 1_555
C20M C21M 1_555 1_555
C19M C20M 1_555 1_555
C18M C17M 1_555 1_555
H9M C18M 1_555 1_555
H10M C19M 1_555 1_555
H11M C20M 1_555 1_555
H12M C21M 1_555 1_555
N10M Fe1 1_555 1_555
N11M Fe1 1_555 1_555
C7M N10M 1_555 1_555
C8M C7M 1_555 1_555
H1M C8M 1_555 1_555
C9M C8M 1_555 1_555
H2M C9M 1_555 1_555
C10M C9M 1_555 1_555
H3M C10M 1_555 1_555
C11M N10M 1_555 1_555
H4M C11M 1_555 1_555
C12M N11M 1_555 1_555
C13M C12M 1_555 1_555
H5M C13M 1_555 1_555
C14M C13M 1_555 1_555
H6M C14M 1_555 1_555
C15M C14M 1_555 1_555
H7M C15M 1_555 1_555
C16M N11M 1_555 1_555
H8M C16M 1_555 1_555
N1M Fe2 1_555 1_555
N2M C1M 1_555 1_555
N3M Fe3 1_555 1_555
C1M N1M 1_555 1_555
C2M N2M 1_555 1_555
N4M Fe2 1_555 1_555
N5M C3M 1_555 1_555
N6M C4M 1_555 1_555
C3M N4M 1_555 1_555
C4M N5M 1_555 1_555
N7M Fe2 1_555 1_555
N8M C5M 1_555 1_555
N9M C6M 1_555 1_555
C5M N7M 1_555 1_555
C6M N8M 1_555 1_555
N6D Fe3 1_555 1_555
N6I Fe3 1_555 1_555
N9D Fe3 1_555 1_555
N9I Fe3 1_555 1_555
Fe3D N6 1_555 1_555
Fe3D_2 N6M 1_555 1_555
N9 Fe3D 1_555 1_555
C7 C12 1_555 1_555
C10 C11 1_555 1_555
C15 C16 1_555 1_555
C20 C21 1_555 1_555
C17M N12M 1_555 1_555
C19M C18M 1_555 1_555
C7M C12M 1_555 1_555
C10M C11M 1_555 1_555
C15M C16M 1_555 1_555
N3M C2M 1_555 1_555
N9M Fe3D_2 1_555 1_555

#END
