
#######################################################################
#
#                 Cambridge Crystallographic Data Centre
#                                CCDC 
#
#######################################################################
#
# If this CIF has been generated from an entry in the Cambridge 
# Structural Database, then it will include bibliographic, chemical, 
# crystal, experimental, refinement or atomic coordinate data resulting 
# from the CCDC's data processing and validation procedures.
#
#######################################################################

data_QAKLIY
_symmetry_cell_setting           monoclinic
_symmetry_space_group_name_H-M   'P 21/n'
_symmetry_Int_Tables_number      14
_space_group_name_Hall           '-P 2yn'
loop_
_symmetry_equiv_pos_site_id
_symmetry_equiv_pos_as_xyz
1 x,y,z
2 1/2+x,1/2-y,1/2+z
3 -x,-y,-z
4 1/2-x,1/2+y,1/2-z
_cell_length_a                   10.765(2)
_cell_length_b                   8.0480(10)
_cell_length_c                   16.946(2)
_cell_angle_alpha                90
_cell_angle_beta                 97.380(10)
_cell_angle_gamma                90
_cell_volume                     1455.98
loop_
_atom_site_label
_atom_site_type_symbol
_atom_site_fract_x
_atom_site_fract_y
_atom_site_fract_z
Cu1 Cu 0.83308(2) 0.16937(3) 0.369473(14)
N1 N 0.80050(17) 0.1009(2) 0.25920(11)
C1 C 0.78170(19) 0.0308(3) 0.19870(12)
O1 O 0.76247(15) -0.03786(19) 0.13442(9)
O2 O 0.99713(14) 0.24686(19) 0.35329(8)
C2 C 1.0799(2) 0.3085(2) 0.40750(13)
C3 C 1.0718(2) 0.3065(3) 0.48825(13)
H1 H 1.1395 0.3545 0.5222
C4 C 0.9715(2) 0.2392(2) 0.52528(12)
N2 N 0.86791(17) 0.1839(2) 0.48446(11)
C5 C 0.7653(2) 0.1243(3) 0.52597(12)
H2 H 0.7628 0.1872 0.5759
H3 H 0.7766 0.0050 0.5392
C6 C 0.6451(2) 0.1506(3) 0.47008(13)
H4 H 0.5750 0.0943 0.4916
H5 H 0.6259 0.2708 0.4659
N3 N 0.65814(17) 0.0830(2) 0.39003(11)
C7 C 0.5526(2) 0.1419(3) 0.33219(14)
H6 H 0.5600 0.0951 0.2796
H7 H 0.5545 0.2635 0.3293
H8 H 0.4732 0.1061 0.3494
C8 C 0.6584(2) -0.1007(3) 0.38999(14)
H9 H 0.5784 -0.1415 0.4042
H10 H 0.7270 -0.1412 0.4288
H11 H 0.6698 -0.1412 0.3369
C9 C 0.9893(2) 0.2336(3) 0.61511(12)
H12 H 0.9262 0.3040 0.6354
H13 H 1.0732 0.2743 0.6353
H14 H 0.9800 0.1190 0.6329
C10 C 1.1910(2) 0.3856(2) 0.37677(12)
C11 C 1.2986(2) 0.4379(3) 0.42639(13)
H15 H 1.3043 0.4213 0.4822
C12 C 1.3969(2) 0.5137(3) 0.39438(13)
H16 H 1.4691 0.5482 0.4286
C13 C 1.3908(2) 0.5397(3) 0.31278(13)
H17 H 1.4579 0.5921 0.2912
C14 C 1.2847(2) 0.4876(3) 0.26335(13)
H18 H 1.2791 0.5054 0.2076
C15 C 1.1872(2) 0.4100(3) 0.29477(12)
H19 H 1.1164 0.3726 0.2600
O1C O 0.73753(15) 0.46214(19) 0.36558(9)
Cu1C Cu 0.66692(2) -0.33063(3) 0.130527(14)
loop_
_geom_bond_atom_site_label_1
_geom_bond_atom_site_label_2
_geom_bond_site_symmetry_1
_geom_bond_site_symmetry_2
Cu1 N1 1_555 1_555
N1 C1 1_555 1_555
C1 O1 1_555 1_555
O1 Cu1C 1_555 1_555
O2 Cu1 1_555 1_555
C2 O2 1_555 1_555
C3 C2 1_555 1_555
H1 C3 1_555 1_555
C4 C3 1_555 1_555
N2 Cu1 1_555 1_555
C5 N2 1_555 1_555
H2 C5 1_555 1_555
H3 C5 1_555 1_555
C6 C5 1_555 1_555
H4 C6 1_555 1_555
H5 C6 1_555 1_555
N3 Cu1 1_555 1_555
C7 N3 1_555 1_555
H6 C7 1_555 1_555
H7 C7 1_555 1_555
H8 C7 1_555 1_555
C8 N3 1_555 1_555
H9 C8 1_555 1_555
H10 C8 1_555 1_555
H11 C8 1_555 1_555
C9 C4 1_555 1_555
H12 C9 1_555 1_555
H13 C9 1_555 1_555
H14 C9 1_555 1_555
C10 C2 1_555 1_555
C11 C10 1_555 1_555
H15 C11 1_555 1_555
C12 C11 1_555 1_555
H16 C12 1_555 1_555
C13 C12 1_555 1_555
H17 C13 1_555 1_555
C14 C13 1_555 1_555
H18 C14 1_555 1_555
C15 C10 1_555 1_555
H19 C15 1_555 1_555
O1C Cu1 1_555 1_555
C4 N2 1_555 1_555
C6 N3 1_555 1_555
C14 C15 1_555 1_555

#END
