
#######################################################################
#
#                 Cambridge Crystallographic Data Centre
#                                CCDC 
#
#######################################################################
#
# If this CIF has been generated from an entry in the Cambridge 
# Structural Database, then it will include bibliographic, chemical, 
# crystal, experimental, refinement or atomic coordinate data resulting 
# from the CCDC's data processing and validation procedures.
#
#######################################################################

data_QAKLOE
_symmetry_cell_setting           monoclinic
_symmetry_space_group_name_H-M   'P 21/n'
_symmetry_Int_Tables_number      14
_space_group_name_Hall           '-P 2yn'
loop_
_symmetry_equiv_pos_site_id
_symmetry_equiv_pos_as_xyz
1 x,y,z
2 1/2+x,1/2-y,1/2+z
3 -x,-y,-z
4 1/2-x,1/2+y,1/2-z
_cell_length_a                   11.1950(10)
_cell_length_b                   8.302(3)
_cell_length_c                   17.262(2)
_cell_angle_alpha                90
_cell_angle_beta                 91.140(10)
_cell_angle_gamma                90
_cell_volume                     1604.03
loop_
_atom_site_label
_atom_site_type_symbol
_atom_site_fract_x
_atom_site_fract_y
_atom_site_fract_z
Cu1 Cu 0.66455(3) 0.16908(4) 0.624650(17)
O1 O 0.50667(17) 0.2409(3) 0.64819(10)
N1 N 0.6862(2) 0.0999(3) 0.73222(14)
S1 S 0.73985(7) -0.01878(9) 0.88049(4)
C1 C 0.7078(2) 0.0485(3) 0.79353(15)
C2 C 0.4312(2) 0.2999(3) 0.59845(15)
C3 C 0.3247(3) 0.3810(3) 0.63271(15)
C4 C 0.3316(3) 0.4319(4) 0.70996(15)
H1 H 0.4006 0.4119 0.7393
C5 C 0.2369(3) 0.5118(4) 0.74322(17)
H2 H 0.2438 0.5465 0.7943
C6 C 0.1324(3) 0.5408(4) 0.70157(17)
H3 H 0.0690 0.5940 0.7244
C7 C 0.1235(3) 0.4889(4) 0.62477(18)
H4 H 0.0534 0.5071 0.5963
C8 C 0.2183(3) 0.4105(4) 0.59054(16)
H5 H 0.2113 0.3772 0.5392
C9 C 0.4423(2) 0.2945(3) 0.51854(16)
H6 H 0.3803 0.3390 0.4889
C10 C 0.5394(3) 0.2273(3) 0.47773(15)
C11 C 0.5266(3) 0.2187(4) 0.39078(15)
H7 H 0.5881 0.2820 0.3676
H8 H 0.4498 0.2599 0.3750
H9 H 0.5336 0.1087 0.3743
N2 N 0.6374(2) 0.1762(3) 0.51312(12)
C12 C 0.7361(3) 0.1121(4) 0.46800(15)
H10 H 0.7434 0.1717 0.4200
H11 H 0.7220 -0.0003 0.4555
C13 C 0.8498(3) 0.1293(4) 0.51732(15)
H12 H 0.9134 0.0669 0.4946
H13 H 0.8744 0.2414 0.5185
C14 C 0.8182(3) -0.1050(4) 0.59996(18)
H14 H 0.8899 -0.1533 0.5810
H15 H 0.7514 -0.1381 0.5681
H16 H 0.8062 -0.1388 0.6524
N3 N 0.8295(2) 0.0726(3) 0.59732(13)
C15 C 0.9314(3) 0.1206(4) 0.64832(17)
H17 H 1.0037 0.0742 0.6293
H18 H 0.9183 0.0827 0.7000
H19 H 0.9384 0.2358 0.6487
S1C S 0.76015(7) 0.48122(9) 0.61951(4)
Cu1C Cu 0.83545(3) -0.33092(4) 0.875350(17)
loop_
_geom_bond_atom_site_label_1
_geom_bond_atom_site_label_2
_geom_bond_site_symmetry_1
_geom_bond_site_symmetry_2
Cu1 O1 1_555 1_555
O1 C2 1_555 1_555
N1 Cu1 1_555 1_555
S1 C1 1_555 1_555
C1 N1 1_555 1_555
C2 C3 1_555 1_555
C3 C4 1_555 1_555
C4 H1 1_555 1_555
C5 C4 1_555 1_555
H2 C5 1_555 1_555
C6 C5 1_555 1_555
H3 C6 1_555 1_555
C7 C6 1_555 1_555
H4 C7 1_555 1_555
C8 C3 1_555 1_555
H5 C8 1_555 1_555
C9 C2 1_555 1_555
H6 C9 1_555 1_555
C10 C9 1_555 1_555
C11 C10 1_555 1_555
H7 C11 1_555 1_555
H8 C11 1_555 1_555
H9 C11 1_555 1_555
N2 Cu1 1_555 1_555
C12 N2 1_555 1_555
H10 C12 1_555 1_555
H11 C12 1_555 1_555
C13 C12 1_555 1_555
H12 C13 1_555 1_555
H13 C13 1_555 1_555
C14 H14 1_555 1_555
H15 C14 1_555 1_555
H16 C14 1_555 1_555
N3 Cu1 1_555 1_555
C15 N3 1_555 1_555
H17 C15 1_555 1_555
H18 C15 1_555 1_555
H19 C15 1_555 1_555
S1C Cu1 1_555 1_555
Cu1C S1 1_555 1_555
C7 C8 1_555 1_555
C10 N2 1_555 1_555
C13 N3 1_555 1_555
C14 N3 1_555 1_555

#END
