
#######################################################################
#
#                 Cambridge Crystallographic Data Centre
#                                CCDC 
#
#######################################################################
#
# If this CIF has been generated from an entry in the Cambridge 
# Structural Database, then it will include bibliographic, chemical, 
# crystal, experimental, refinement or atomic coordinate data resulting 
# from the CCDC's data processing and validation procedures.
#
#######################################################################

data_QAKQOJ
_symmetry_cell_setting           monoclinic
_symmetry_space_group_name_H-M   'P 21/n'
_symmetry_Int_Tables_number      14
_space_group_name_Hall           '-P 2yn'
loop_
_symmetry_equiv_pos_site_id
_symmetry_equiv_pos_as_xyz
1 x,y,z
2 1/2+x,1/2-y,1/2+z
3 -x,-y,-z
4 1/2-x,1/2+y,1/2-z
_cell_length_a                   9.154(2)
_cell_length_b                   19.589(5)
_cell_length_c                   18.371(5)
_cell_angle_alpha                90
_cell_angle_beta                 94.677(6)
_cell_angle_gamma                90
_cell_volume                     3283.28
loop_
_atom_site_label
_atom_site_type_symbol
_atom_site_fract_x
_atom_site_fract_y
_atom_site_fract_z
Cu1 Cu 0.39219(6) 0.21934(3) 0.23627(3)
Cu2 Cu 0.16290(6) 0.32953(3) 0.29554(3)
Cu3 Cu 0.89439(6) 0.31121(3) 0.17237(3)
Cl1 Cl 0.94092(15) 0.41171(6) 0.22980(7)
Cl2 Cl 0.64770(14) 0.27150(7) 0.21882(7)
Cl3 Cl 0.37240(15) 0.24325(7) 0.35499(6)
O1 O 0.0113(3) 0.26548(15) 0.25341(16)
O2 O 0.2848(3) 0.30618(15) 0.21285(15)
O3 O 0.0664(5) 0.3371(2) 0.38806(19)
O4 O 0.2841(4) 0.40963(18) 0.3237(2)
C1 C -0.0002(5) 0.1986(2) 0.2677(2)
N1 N 0.3510(5) 0.1889(2) 0.1354(2)
C2 C 0.0214(5) 0.1740(2) 0.3392(2)
H1 H 0.0448 0.2046 0.3771
C3 C 0.2855(5) 0.3379(2) 0.1478(2)
N2 N 0.4699(4) 0.1217(2) 0.2539(2)
C4 C 0.2746(5) 0.4087(2) 0.1438(3)
H2 H 0.2676 0.4338 0.1863
C5 C -0.0216(5) 0.0579(3) 0.3004(3)
H3 H -0.0267 0.0117 0.3115
C6 C 0.2740(5) 0.4421(3) 0.0778(3)
H4 H 0.2668 0.4894 0.0765
C7 C 0.3228(6) 0.2274(3) 0.0800(3)
H5 H 0.3163 0.2069 0.0342
C8 C 0.2840(6) 0.4065(3) 0.0130(3)
H6 H 0.2820 0.4293 -0.0314
C9 C -0.0348(5) 0.1503(2) 0.2116(3)
C10 C 0.2968(6) 0.3371(3) 0.0162(3)
H7 H 0.3038 0.3128 -0.0269
C11 C 0.2999(5) 0.3011(3) 0.0827(2)
C12 C 0.6011(6) 0.1162(3) 0.3057(3)
H8 H 0.6296 0.0692 0.3108
H9 H 0.5794 0.1339 0.3524
H10 H 0.6797 0.1420 0.2877
C13 C -0.0443(6) 0.0803(3) 0.2296(3)
H11 H -0.0663 0.0487 0.1925
C14 C 0.0089(5) 0.1056(3) 0.3548(3)
H12 H 0.0212 0.0912 0.4031
C15 C 0.3530(6) 0.0803(3) 0.2841(4)
H13 H 0.3878 0.0345 0.2930
H14 H 0.2681 0.0794 0.2498
H15 H 0.3275 0.1001 0.3292
C16 C 0.5026(7) 0.0965(3) 0.1816(3)
H16 H 0.5143 0.0473 0.1833
H17 H 0.5938 0.1164 0.1683
C17 C 0.3801(8) 0.1151(3) 0.1249(3)
H18 H 0.4094 0.1067 0.0761
H19 H 0.2931 0.0883 0.1317
N3 N -0.2014(4) 0.3547(2) 0.0774(2)
N4 N -0.0894(4) 0.2295(2) 0.1121(2)
C18 C -0.3250(6) 0.4009(3) 0.0883(3)
H20 H -0.3633 0.4188 0.0420
H21 H -0.2917 0.4378 0.1198
H22 H -0.4006 0.3761 0.1102
C19 C -0.1336(7) 0.2415(3) 0.0341(3)
H23 H -0.1714 0.1999 0.0111
H24 H -0.0507 0.2570 0.0089
C20 C -0.0882(6) 0.3943(3) 0.0412(3)
H25 H -0.1321 0.4147 -0.0028
H26 H -0.0106 0.3643 0.0295
H27 H -0.0491 0.4295 0.0736
C21 C -0.2515(6) 0.2958(3) 0.0316(3)
H28 H -0.2741 0.3107 -0.0184
H29 H -0.3401 0.2770 0.0492
C22 C -0.0681(6) 0.1689(3) 0.1354(3)
H30 H -0.0742 0.1339 0.1012
H31 H -0.028(4) 0.3311(3) 0.3788(2)
H32 H 0.375(2) 0.4031(6) 0.3154(5)
H33 H 0.298(3) 0.4168(6) 0.3667(3)
H34 H 0.069(4) 0.3637(4) 0.4224(3)
O1_2 O 1.0113(3) 0.26548(15) 0.25341(16)
N3_2 N 0.7986(4) 0.3547(2) 0.0774(2)
N4_2 N 0.9106(4) 0.2295(2) 0.1121(2)
Cu3_2 Cu -0.10561(6) 0.31121(3) 0.17237(3)
Cl4 Cl 0.5582(5) 0.4110(2) 0.2860(3)
O5 O 0.7813(5) 0.3031(3) 0.3899(2)
H35 H 0.7575 0.3027 0.3435
H36 H 0.7235 0.3356 0.4015
O6 O 0.6137(12) 0.4044(7) 0.4664(8)
O8 O 0.7523(5) 0.5531(2) 0.5148(2)
C23 C 0.6098(12) 0.5717(8) 0.5274(7)
O9 O 0.9689(16) 0.5395(6) 0.5360(8)
O7? O 0.7215(8) 0.4588(4) 0.4347(4)
loop_
_geom_bond_atom_site_label_1
_geom_bond_atom_site_label_2
_geom_bond_site_symmetry_1
_geom_bond_site_symmetry_2
Cu1 Cl2 1_555 1_555
Cu2 Cl3 1_555 1_555
Cu3 Cl1 1_555 1_555
Cl2 Cu3 1_555 1_555
Cl3 Cu1 1_555 1_555
O1 Cu2 1_555 1_555
O2 Cu1 1_555 1_555
O3 Cu2 1_555 1_555
O4 Cu2 1_555 1_555
C1 O1 1_555 1_555
N1 Cu1 1_555 1_555
C2 C1 1_555 1_555
H1 C2 1_555 1_555
C3 O2 1_555 1_555
N2 Cu1 1_555 1_555
C4 C3 1_555 1_555
H2 C4 1_555 1_555
C5 H3 1_555 1_555
C6 C4 1_555 1_555
H4 C6 1_555 1_555
C7 N1 1_555 1_555
H5 C7 1_555 1_555
C8 C6 1_555 1_555
H6 C8 1_555 1_555
C9 C1 1_555 1_555
C10 C8 1_555 1_555
H7 C10 1_555 1_555
C11 C3 1_555 1_555
C12 N2 1_555 1_555
H8 C12 1_555 1_555
H9 C12 1_555 1_555
H10 C12 1_555 1_555
C13 C5 1_555 1_555
H11 C13 1_555 1_555
C14 C2 1_555 1_555
H12 C14 1_555 1_555
C15 N2 1_555 1_555
H13 C15 1_555 1_555
H14 C15 1_555 1_555
H15 C15 1_555 1_555
C16 N2 1_555 1_555
H16 C16 1_555 1_555
H17 C16 1_555 1_555
C17 N1 1_555 1_555
H18 C17 1_555 1_555
H19 C17 1_555 1_555
N3 C18 1_555 1_555
N4 C19 1_555 1_555
C18 H20 1_555 1_555
H21 C18 1_555 1_555
H22 C18 1_555 1_555
C19 H23 1_555 1_555
H24 C19 1_555 1_555
C20 N3 1_555 1_555
H25 C20 1_555 1_555
H26 C20 1_555 1_555
H27 C20 1_555 1_555
C21 N3 1_555 1_555
H28 C21 1_555 1_555
H29 C21 1_555 1_555
C22 C9 1_555 1_555
H30 C22 1_555 1_555
O5 H35 1_555 1_555
H31 O3 1_555 1_555
H32 O4 1_555 1_555
H33 O4 1_555 1_555
H34 O3 1_555 1_555
H36 O5 1_555 1_555
O8 C23 1_555 1_555
O1_2 Cu3 1_555 1_555
N3_2 Cu3 1_555 1_555
N4_2 Cu3 1_555 1_555
Cu3_2 O1 1_555 1_555
Cu2 O2 1_555 1_555
C5 C14 1_555 1_555
C7 C11 1_555 1_555
C9 C13 1_555 1_555
C10 C11 1_555 1_555
C16 C17 1_555 1_555
N3 Cu3_2 1_555 1_555
N4 C22 1_555 1_555
N4 Cu3_2 1_555 1_555
C19 C21 1_555 1_555

#END
