
#######################################################################
#
#                 Cambridge Crystallographic Data Centre
#                                CCDC 
#
#######################################################################
#
# If this CIF has been generated from an entry in the Cambridge 
# Structural Database, then it will include bibliographic, chemical, 
# crystal, experimental, refinement or atomic coordinate data resulting 
# from the CCDC's data processing and validation procedures.
#
#######################################################################

data_QAKROK
_symmetry_cell_setting           orthorhombic
_symmetry_space_group_name_H-M   'P n m a'
_symmetry_Int_Tables_number      62
_space_group_name_Hall           '-P 2ac 2n'
loop_
_symmetry_equiv_pos_site_id
_symmetry_equiv_pos_as_xyz
1 x,y,z
2 1/2+x,y,1/2-z
3 x,1/2-y,z
4 1/2-x,1/2+y,1/2+z
5 -x,-y,-z
6 1/2-x,-y,1/2+z
7 -x,1/2+y,-z
8 1/2+x,1/2-y,1/2-z
_cell_length_a                   27.453(3)
_cell_length_b                   16.532(2)
_cell_length_c                   7.511(2)
_cell_angle_alpha                90
_cell_angle_beta                 90
_cell_angle_gamma                90
_cell_volume                     3408.89
loop_
_atom_site_label
_atom_site_type_symbol
_atom_site_fract_x
_atom_site_fract_y
_atom_site_fract_z
Cl1 Cl -0.26101(13) 0.2500 0.5316(5)
O6 O -0.2560(7) 0.2093(10) 0.688(3)
O7 O -0.2987(6) 0.1943(12) 0.563(4)
O8 O -0.2209(7) 0.2056(12) 0.498(5)
O9 O -0.2737(15) 0.1978(13) 0.397(3)
O6B O -0.2560(7) 0.2907(10) 0.688(3)
O7B O -0.2987(6) 0.3057(12) 0.563(4)
O8B O -0.2209(7) 0.2944(12) 0.498(5)
O9B O -0.2737(15) 0.3022(13) 0.397(3)
Ag1 Ag 0.01457(3) 0.2500 1.24133(13)
Ag2 Ag 0.15694(3) 0.2500 1.60566(17)
O1 O -0.0270(2) -0.0824(4) 1.3219(11)
O2 O -0.1055(2) 0.0808(4) 1.3629(12)
O3 O -0.0299(3) 0.2500 1.5390(12)
O4 O 0.0700(3) 0.2500 1.4855(12)
O5 O 0.0800(3) 0.2500 1.7748(13)
N1 N 0.0520(2) 0.1226(4) 1.1601(10)
N2 N -0.0138(2) 0.0492(4) 1.2577(11)
H1 H -0.0281 0.0958 1.2586
N3 N -0.1189(2) -0.0528(4) 1.4179(11)
H2 H -0.1050 -0.0997 1.4112
N4 N -0.1869(2) -0.1267(4) 1.4899(11)
N5 N -0.0595(3) 0.2500 2.0908(13)
N6 N -0.0147(3) 0.2500 1.8348(13)
H3 H 0.0092 0.2500 1.9090
C1 C 0.0981(3) 0.1274(6) 1.1014(13)
H4 H 0.1112 0.1785 1.0773
C2 C 0.1268(3) 0.0601(6) 1.0755(13)
H5 H 0.1587 0.0655 1.0353
C3 C 0.1080(3) -0.0139(6) 1.1095(15)
H6 H 0.1264 -0.0606 1.0908
C4 C 0.0610(3) -0.0197(5) 1.1723(14)
H7 H 0.0474 -0.0703 1.1972
C5 C 0.0346(3) 0.0500(5) 1.1977(12)
C6 C -0.0408(3) -0.0127(5) 1.3131(12)
C7 C -0.0919(3) 0.0115(6) 1.3667(14)
C8 C -0.1670(3) -0.0525(5) 1.4808(12)
C9 C -0.1918(3) 0.0157(5) 1.5324(12)
H8 H -0.1774 0.0668 1.5214
C10 C -0.2380(3) 0.0085(6) 1.6006(14)
H9 H -0.2547 0.0540 1.6415
C11 C -0.2584(3) -0.0655(6) 1.6071(16)
H10 H -0.2899 -0.0717 1.6502
C12 C -0.2329(3) -0.1312(6) 1.5503(15)
H11 H -0.2479 -0.1819 1.5534
C13 C -0.1021(4) 0.2500 2.1749(18)
H12 H -0.1017 0.2500 2.2991
C14 C -0.1461(4) 0.2500 2.092(2)
H13 H -0.1750 0.2500 2.1571
C15 C -0.1461(4) 0.2500 1.915(2)
H14 H -0.1757 0.2500 1.8543
C16 C -0.1038(4) 0.2500 1.8184(19)
H15 H -0.1041 0.2500 1.6942
C17 C -0.0602(4) 0.2500 1.9153(16)
C18 C -0.0011(4) 0.2500 1.6634(17)
C19 C 0.0545(4) 0.2500 1.6387(18)
O1B O -0.0270(2) 0.5824(4) 1.3219(11)
O2B O -0.1055(2) 0.4192(4) 1.3629(12)
N1B N 0.0520(2) 0.3774(4) 1.1601(10)
N2B N -0.0138(2) 0.4508(4) 1.2577(11)
H1B H -0.0281 0.4042 1.2586
N3B N -0.1189(2) 0.5528(4) 1.4179(11)
H2B H -0.1050 0.5997 1.4112
N4B N -0.1869(2) 0.6267(4) 1.4899(11)
C1B C 0.0981(3) 0.3726(6) 1.1014(13)
H4B H 0.1112 0.3215 1.0773
C2B C 0.1268(3) 0.4399(6) 1.0755(13)
H5B H 0.1587 0.4345 1.0353
C3B C 0.1080(3) 0.5139(6) 1.1095(15)
H6B H 0.1264 0.5606 1.0908
C4B C 0.0610(3) 0.5197(5) 1.1723(14)
H7B H 0.0474 0.5703 1.1972
C5B C 0.0346(3) 0.4500(5) 1.1977(12)
C6B C -0.0408(3) 0.5127(5) 1.3131(12)
C7B C -0.0919(3) 0.4885(6) 1.3667(14)
C8B C -0.1670(3) 0.5525(5) 1.4808(12)
C9B C -0.1918(3) 0.4843(5) 1.5324(12)
H8B H -0.1774 0.4332 1.5214
C10B C -0.2380(3) 0.4915(6) 1.6006(14)
H9B H -0.2547 0.4460 1.6415
C11B C -0.2584(3) 0.5655(6) 1.6071(16)
H10B H -0.2899 0.5717 1.6502
C12B C -0.2329(3) 0.6312(6) 1.5503(15)
H11B H -0.2479 0.6819 1.5534
N5_2 N -0.0595(3) 0.2500 1.0908(13)
N4D N 0.1869(2) 0.1267(4) 1.5101(11)
N4F N 0.1869(2) 0.3733(4) 1.5101(11)
Ag2D Ag -0.15694(3) -0.2500 1.39434(17)
Ag1_2 Ag 0.01457(3) 0.2500 2.24133(13)
Ag2D_2 Ag -0.15694(3) 0.7500 1.39434(17)
loop_
_geom_bond_atom_site_label_1
_geom_bond_atom_site_label_2
_geom_bond_site_symmetry_1
_geom_bond_site_symmetry_2
Ag1 O3 1_555 1_555
Ag2 O4 1_555 1_555
O1 C6 1_555 1_555
O2 C7 1_555 1_555
O3 C18 1_555 1_555
O4 Ag1 1_555 1_555
O5 Ag2 1_555 1_555
N1 Ag1 1_555 1_555
N2 H1 1_555 1_555
N3 H2 1_555 1_555
N4 C8 1_555 1_555
N5 C13 1_555 1_555
N6 H3 1_555 1_555
C1 N1 1_555 1_555
H4 C1 1_555 1_555
C2 C1 1_555 1_555
H5 C2 1_555 1_555
C3 C2 1_555 1_555
H6 C3 1_555 1_555
C4 C3 1_555 1_555
H7 C4 1_555 1_555
C5 N1 1_555 1_555
C6 N2 1_555 1_555
C7 N3 1_555 1_555
C8 N3 1_555 1_555
C9 C8 1_555 1_555
H8 C9 1_555 1_555
C10 C9 1_555 1_555
H9 C10 1_555 1_555
C11 C10 1_555 1_555
H10 C11 1_555 1_555
C12 N4 1_555 1_555
H11 C12 1_555 1_555
C13 H12 1_555 1_555
C14 C13 1_555 1_555
H13 C14 1_555 1_555
C15 C14 1_555 1_555
H14 C15 1_555 1_555
C16 C15 1_555 1_555
H15 C16 1_555 1_555
C17 N5 1_555 1_555
C18 N6 1_555 1_555
C19 O4 1_555 1_555
Cl1 O6 1_555 1_555
O6 O7 1_555 1_555
O7 Cl1 1_555 1_555
O8 Cl1 1_555 1_555
O9 Cl1 1_555 1_555
O6B Cl1 1_555 1_555
O7B Cl1 1_555 1_555
O8B Cl1 1_555 1_555
O9B Cl1 1_555 1_555
O1B C6B 1_555 1_555
O2B C7B 1_555 1_555
N1B Ag1 1_555 1_555
N2B H1B 1_555 1_555
N3B H2B 1_555 1_555
N4B C8B 1_555 1_555
C1B N1B 1_555 1_555
H4B C1B 1_555 1_555
C2B C1B 1_555 1_555
H5B C2B 1_555 1_555
C3B C2B 1_555 1_555
H6B C3B 1_555 1_555
C4B C3B 1_555 1_555
H7B C4B 1_555 1_555
C5B N1B 1_555 1_555
C6B N2B 1_555 1_555
C7B N3B 1_555 1_555
C8B N3B 1_555 1_555
C9B C8B 1_555 1_555
H8B C9B 1_555 1_555
C10B C9B 1_555 1_555
H9B C10B 1_555 1_555
C11B C10B 1_555 1_555
H10B C11B 1_555 1_555
C12B N4B 1_555 1_555
H11B C12B 1_555 1_555
N5_2 Ag1 1_555 1_555
N4D Ag2 1_555 1_555
N4F Ag2 1_555 1_555
Ag2D N4 1_555 1_555
Ag1_2 N5 1_555 1_555
Ag2D_2 N4B 1_555 1_555
O5 C19 1_555 1_555
N2 C5 1_555 1_555
N6 C17 1_555 1_555
C4 C5 1_555 1_555
C6 C7 1_555 1_555
C11 C12 1_555 1_555
C16 C17 1_555 1_555
C18 C19 1_555 1_555
O6 O6B 1_555 1_555
O6 O8 1_555 1_555
O7 O9 1_555 1_555
O8 O9 1_555 1_555
O8 O8B 1_555 1_555
O9 O9B 1_555 1_555
O6B O8B 1_555 1_555
O6B O7B 1_555 1_555
O7B O9B 1_555 1_555
O8B O9B 1_555 1_555
N2B C5B 1_555 1_555
C4B C5B 1_555 1_555
C6B C7B 1_555 1_555
C11B C12B 1_555 1_555

#END
