
#######################################################################
#
#                 Cambridge Crystallographic Data Centre
#                                CCDC 
#
#######################################################################
#
# If this CIF has been generated from an entry in the Cambridge 
# Structural Database, then it will include bibliographic, chemical, 
# crystal, experimental, refinement or atomic coordinate data resulting 
# from the CCDC's data processing and validation procedures.
#
#######################################################################

data_QAKREA
_symmetry_cell_setting           orthorhombic
_symmetry_space_group_name_H-M   'P c a 21'
_symmetry_Int_Tables_number      29
_space_group_name_Hall           'P 2c -2ac'
loop_
_symmetry_equiv_pos_site_id
_symmetry_equiv_pos_as_xyz
1 x,y,z
2 -x,-y,1/2+z
3 1/2+x,-y,z
4 1/2-x,y,1/2+z
_cell_length_a                   21.783(3)
_cell_length_b                   11.927(3)
_cell_length_c                   10.207(2)
_cell_angle_alpha                90
_cell_angle_beta                 90
_cell_angle_gamma                90
_cell_volume                     2651.84
loop_
_atom_site_label
_atom_site_type_symbol
_atom_site_fract_x
_atom_site_fract_y
_atom_site_fract_z
Cu1 Cu 0.28998(3) 0.16409(6) 0.21596(9)
O1 O 0.2041(2) 0.1470(4) 0.2450(6)
N1 N 0.2947(3) 0.0324(5) 0.1023(7)
N2 N 0.3833(3) 0.1748(6) 0.1806(6)
N3 N 0.2982(3) 0.2717(6) 0.3616(8)
C1 C 0.1672(3) 0.0780(5) 0.1819(6)
C2 C 0.1036(3) 0.0904(6) 0.2033(8)
H1 H 0.0898 0.1463 0.2595
N4 N 0.2592(3) 0.2800(4) 0.4431(6)
C3 C 0.2492(4) -0.0215(6) 0.0587(9)
H2 H 0.2575 -0.0780 -0.0017
C4 C 0.0802(4) -0.0608(7) 0.0576(10)
H3 H 0.0517 -0.1073 0.0167
C5 C 0.0611(4) 0.0213(7) 0.1424(9)
H4 H 0.0195 0.0306 0.1592
C6 C 0.3921(4) 0.1121(8) 0.0580(9)
H5 H 0.4354 0.0951 0.0470
H6 H 0.3793 0.1581 -0.0154
C7 C 0.3564(4) 0.0061(8) 0.0581(11)
H7 H 0.3551 -0.0257 -0.0293
H8 H 0.3752 -0.0481 0.1165
C8 C 0.1411(4) -0.0733(6) 0.0344(10)
H9 H 0.1538 -0.1296 -0.0225
C9 C 0.1859(3) -0.0045(5) 0.0929(7)
C19 C 0.4155(4) 0.1200(11) 0.2927(12)
H20 H 0.4590 0.1230 0.2787
H21 H 0.4026 0.0432 0.2992
H22 H 0.4054 0.1586 0.3725
C21 C 0.4056(4) 0.2931(9) 0.1684(12)
H26 H 0.4490 0.2930 0.1520
H27 H 0.3973 0.3329 0.2482
H28 H 0.3848 0.3292 0.0970
N10 N 0.2231(4) 0.2919(6) 0.5234(8)
Cu1C Cu 0.21002(3) 0.16409(6) 0.71596(9)
N10C N 0.2769(4) 0.2919(6) 0.0234(8)
Cu2 Cu 0.36213(4) 0.56931(7) 0.50024(10)
C10 C 0.2143(3) 0.6249(6) 0.5172(8)
O2 O 0.3079(3) 0.6547(4) 0.3956(6)
C11 C 0.2496(5) 0.6709(6) 0.4142(8)
N5 N 0.2977(3) 0.5196(5) 0.6157(7)
C12 C 0.2414(4) 0.5486(6) 0.6124(8)
H10 H 0.2155 0.5186 0.6759
C13 C 0.3181(5) 0.4401(7) 0.7145(10)
H11 H 0.3145 0.4743 0.8004
H12 H 0.2915 0.3748 0.7127
N6 N 0.4176(3) 0.4671(6) 0.6141(7)
C14 C 0.1527(4) 0.6523(8) 0.5310(10)
H13 H 0.1310 0.6221 0.6011
C15 C 0.1560(5) 0.7642(7) 0.3439(11)
H14 H 0.1362 0.8106 0.2840
C16 C 0.2171(4) 0.7402(6) 0.3278(9)
H15 H 0.2378 0.7711 0.2567
C17 C 0.1234(5) 0.7200(8) 0.4482(12)
H16 H 0.0822 0.7372 0.4602
N7 N 0.4382(4) 0.6993(7) 0.3374(9)
N8 N 0.4453(5) 0.7731(9) 0.2725(10)
C18 C 0.4469(6) 0.3786(10) 0.5402(13)
H17 H 0.4720 0.3345 0.5977
H18 H 0.4720 0.4108 0.4727
H19 H 0.4161 0.3317 0.5011
C20 C 0.4621(7) 0.5360(11) 0.6821(19)
H23 H 0.4880 0.4892 0.7349
H24 H 0.4411 0.5888 0.7371
H25 H 0.4867 0.5757 0.6193
C22 C 0.3763(7) 0.408(2) 0.696(3)
H29 H 0.3746 0.3315 0.6621
H30 H 0.3952 0.4033 0.7814
N9 N 0.4332(4) 0.6213(10) 0.4020(13)
loop_
_geom_bond_atom_site_label_1
_geom_bond_atom_site_label_2
_geom_bond_site_symmetry_1
_geom_bond_site_symmetry_2
Cu1 O1 1_555 1_555
O1 C1 1_555 1_555
N1 Cu1 1_555 1_555
N2 Cu1 1_555 1_555
N3 Cu1 1_555 1_555
C1 C2 1_555 1_555
C2 H1 1_555 1_555
N4 N3 1_555 1_555
C3 N1 1_555 1_555
H2 C3 1_555 1_555
C4 H3 1_555 1_555
C5 C2 1_555 1_555
H4 C5 1_555 1_555
C6 N2 1_555 1_555
H5 C6 1_555 1_555
H6 C6 1_555 1_555
C7 N1 1_555 1_555
H7 C7 1_555 1_555
H8 C7 1_555 1_555
C8 C4 1_555 1_555
H9 C8 1_555 1_555
C9 C1 1_555 1_555
Cu2 O2 1_555 1_555
C10 C11 1_555 1_555
O2 C11 1_555 1_555
C11 C16 1_555 1_555
N5 Cu2 1_555 1_555
C12 C10 1_555 1_555
H10 C12 1_555 1_555
C13 N5 1_555 1_555
H11 C13 1_555 1_555
H12 C13 1_555 1_555
N6 Cu2 1_555 1_555
C14 C10 1_555 1_555
H13 C14 1_555 1_555
C15 H14 1_555 1_555
C16 C15 1_555 1_555
H15 C16 1_555 1_555
C17 C14 1_555 1_555
H16 C17 1_555 1_555
N7 N8 1_555 1_555
C18 N6 1_555 1_555
H17 C18 1_555 1_555
H18 C18 1_555 1_555
H19 C18 1_555 1_555
C19 N2 1_555 1_555
H20 C19 1_555 1_555
H21 C19 1_555 1_555
H22 C19 1_555 1_555
C20 N6 1_555 1_555
H23 C20 1_555 1_555
H24 C20 1_555 1_555
H25 C20 1_555 1_555
C21 N2 1_555 1_555
H26 C21 1_555 1_555
H27 C21 1_555 1_555
H28 C21 1_555 1_555
C22 C13 1_555 1_555
H29 C22 1_555 1_555
H30 C22 1_555 1_555
N9 Cu2 1_555 1_555
N10 N4 1_555 1_555
Cu1C N10 1_555 1_555
N10C Cu1 1_555 1_555
C3 C9 1_555 1_555
C4 C5 1_555 1_555
C6 C7 1_555 1_555
C8 C9 1_555 1_555
N5 C12 1_555 1_555
N6 C22 1_555 1_555
C15 C17 1_555 1_555
N7 N9 1_555 1_555

#END
