
#######################################################################
#
#                 Cambridge Crystallographic Data Centre
#                                CCDC 
#
#######################################################################
#
# If this CIF has been generated from an entry in the Cambridge 
# Structural Database, then it will include bibliographic, chemical, 
# crystal, experimental, refinement or atomic coordinate data resulting 
# from the CCDC's data processing and validation procedures.
#
#######################################################################

data_QAKRUQ
_symmetry_cell_setting           orthorhombic
_symmetry_space_group_name_H-M   'P n m a'
_symmetry_Int_Tables_number      62
_space_group_name_Hall           '-P 2ac 2n'
loop_
_symmetry_equiv_pos_site_id
_symmetry_equiv_pos_as_xyz
1 x,y,z
2 1/2+x,y,1/2-z
3 x,1/2-y,z
4 1/2-x,1/2+y,1/2+z
5 -x,-y,-z
6 1/2-x,-y,1/2+z
7 -x,1/2+y,-z
8 1/2+x,1/2-y,1/2-z
_cell_length_a                   27.884(3)
_cell_length_b                   16.681(2)
_cell_length_c                   7.5763(12)
_cell_angle_alpha                90
_cell_angle_beta                 90
_cell_angle_gamma                90
_cell_volume                     3523.99
loop_
_atom_site_label
_atom_site_type_symbol
_atom_site_fract_x
_atom_site_fract_y
_atom_site_fract_z
P1 P 0.24017(12) 0.2500 0.5145(4)
F1 F 0.2079(9) 0.2500 0.347(2)
F2 F 0.2601(5) 0.2092(9) 0.6732(16)
F3 F 0.2695(4) 0.1889(4) 0.4219(16)
F4 F 0.2018(3) 0.1874(4) 0.5798(12)
F2B F 0.2601(5) 0.2908(9) 0.6732(16)
F3B F 0.2695(4) 0.3111(4) 0.4219(16)
F4B F 0.2018(3) 0.3126(4) 0.5798(12)
Ag1 Ag 0.01374(2) 0.2500 0.25473(8)
Ag2 Ag 0.15315(2) 0.2500 -0.08451(11)
O1 O -0.02735(18) -0.0823(3) 0.1789(10)
O2 O -0.10437(19) 0.0776(3) 0.1437(10)
O3 O -0.0298(2) 0.2500 -0.0414(7)
O4 O 0.0679(2) 0.2500 0.0152(8)
O5 O 0.0786(2) 0.2500 -0.2727(8)
N1 N 0.05081(16) 0.1216(3) 0.3348(7)
N2 N -0.0143(2) 0.0484(4) 0.2425(9)
N3 N -0.11802(19) -0.0539(3) 0.0891(8)
N4 N -0.18572(16) -0.1274(3) 0.0232(7)
N5 N -0.0579(2) 0.2500 -0.5941(8)
N6 N -0.0143(2) 0.2500 -0.3350(10)
C1 C 0.0966(2) 0.1258(4) 0.3919(10)
C2 C 0.1250(3) 0.0600(5) 0.4147(11)
C3 C 0.1072(3) -0.0130(5) 0.3779(13)
C4 C 0.0608(3) -0.0198(5) 0.3214(13)
C5 C 0.0337(2) 0.0492(4) 0.3017(9)
C6 C -0.0403(2) -0.0143(4) 0.1872(10)
C7 C -0.0917(2) 0.0090(4) 0.1372(10)
C8 C -0.1661(2) -0.0550(3) 0.0327(8)
C9 C -0.1908(3) 0.0136(4) -0.0131(12)
C10 C -0.2372(2) 0.0081(4) -0.0713(11)
C11 C -0.2580(2) -0.0650(4) -0.0792(12)
C12 C -0.2320(2) -0.1318(4) -0.0324(11)
C13 C -0.1002(3) 0.2500 -0.6789(13)
C14 C -0.1430(3) 0.2500 -0.5958(14)
C15 C -0.1441(3) 0.2500 -0.4136(13)
H1 H -0.1733 0.2500 -0.3537
C16 C -0.1018(3) 0.2500 -0.3227(15)
C17 C -0.0593(3) 0.2500 -0.4146(10)
C18 C -0.0018(3) 0.2500 -0.1636(10)
C19 C 0.0537(3) 0.2500 -0.1401(11)
H2 H -0.028(3) 0.084(5) 0.230(10)
H3 H -0.105(2) -0.093(4) 0.089(7)
H4 H 0.005(3) 0.2500 -0.393(12)
H5 H 0.108(2) 0.171(4) 0.425(9)
H6 H 0.151(3) 0.069(5) 0.438(11)
H7 H 0.123(2) -0.062(4) 0.391(8)
H8 H 0.048(3) -0.061(5) 0.290(10)
H9 H -0.176(3) 0.052(4) -0.001(9)
H10 H -0.254(2) 0.063(4) -0.103(8)
H11 H -0.284(3) -0.072(5) -0.120(10)
H12 H -0.251(3) -0.193(5) 0.002(11)
H13 H -0.102(4) 0.2500 -0.800(15)
H14 H -0.167(3) 0.2500 -0.643(13)
H15 H -0.102(3) 0.2500 -0.217(11)
O1B O -0.02735(18) 0.5823(3) 0.1789(10)
O2B O -0.10437(19) 0.4224(3) 0.1437(10)
N1B N 0.05081(16) 0.3784(3) 0.3348(7)
N2B N -0.0143(2) 0.4516(4) 0.2425(9)
N3B N -0.11802(19) 0.5539(3) 0.0891(8)
N4B N -0.18572(16) 0.6274(3) 0.0232(7)
C1B C 0.0966(2) 0.3742(4) 0.3919(10)
C2B C 0.1250(3) 0.4400(5) 0.4147(11)
C3B C 0.1072(3) 0.5130(5) 0.3779(13)
C4B C 0.0608(3) 0.5198(5) 0.3214(13)
C5B C 0.0337(2) 0.4508(4) 0.3017(9)
C6B C -0.0403(2) 0.5143(4) 0.1872(10)
C7B C -0.0917(2) 0.4910(4) 0.1372(10)
C8B C -0.1661(2) 0.5550(3) 0.0327(8)
C9B C -0.1908(3) 0.4864(4) -0.0131(12)
C10B C -0.2372(2) 0.4919(4) -0.0713(11)
C11B C -0.2580(2) 0.5650(4) -0.0792(12)
C12B C -0.2320(2) 0.6318(4) -0.0324(11)
H2B H -0.028(3) 0.416(5) 0.230(10)
H3B H -0.105(2) 0.593(4) 0.089(7)
H5B H 0.108(2) 0.329(4) 0.425(9)
H6B H 0.151(3) 0.431(5) 0.438(11)
H7B H 0.123(2) 0.562(4) 0.391(8)
H8B H 0.048(3) 0.561(5) 0.290(10)
H9B H -0.176(3) 0.448(4) -0.001(9)
H10B H -0.254(2) 0.437(4) -0.103(8)
H11B H -0.284(3) 0.572(5) -0.120(10)
H12B H -0.251(3) 0.693(5) 0.002(11)
N5_2 N -0.0579(2) 0.2500 0.4059(8)
N4D N 0.18572(16) 0.1274(3) -0.0232(7)
N4F N 0.18572(16) 0.3726(3) -0.0232(7)
Ag2D Ag -0.15315(2) -0.2500 0.08451(11)
Ag1_2 Ag 0.01374(2) 0.2500 -0.74527(8)
Ag2D_2 Ag -0.15315(2) 0.7500 0.08451(11)
loop_
_geom_bond_atom_site_label_1
_geom_bond_atom_site_label_2
_geom_bond_site_symmetry_1
_geom_bond_site_symmetry_2
Ag1 O3 1_555 1_555
Ag2 O4 1_555 1_555
O1 C6 1_555 1_555
O2 C7 1_555 1_555
O3 C18 1_555 1_555
O4 Ag1 1_555 1_555
O5 Ag2 1_555 1_555
N1 Ag1 1_555 1_555
N2 C5 1_555 1_555
N3 C7 1_555 1_555
N4 C8 1_555 1_555
N5 C13 1_555 1_555
N6 C17 1_555 1_555
C1 N1 1_555 1_555
C2 C1 1_555 1_555
C3 C2 1_555 1_555
C4 C3 1_555 1_555
C5 N1 1_555 1_555
C6 N2 1_555 1_555
C7 C6 1_555 1_555
C8 N3 1_555 1_555
C9 C8 1_555 1_555
C10 C9 1_555 1_555
C11 C10 1_555 1_555
C12 N4 1_555 1_555
C13 C14 1_555 1_555
C14 C15 1_555 1_555
C15 H1 1_555 1_555
C16 C15 1_555 1_555
C17 N5 1_555 1_555
C18 N6 1_555 1_555
C19 O4 1_555 1_555
P1 F1 1_555 1_555
F2 P1 1_555 1_555
F3 P1 1_555 1_555
F4 P1 1_555 1_555
H2 N2 1_555 1_555
H3 N3 1_555 1_555
H4 N6 1_555 1_555
H5 C1 1_555 1_555
H6 C2 1_555 1_555
H7 C3 1_555 1_555
H8 C4 1_555 1_555
H9 C9 1_555 1_555
H10 C10 1_555 1_555
H11 C11 1_555 1_555
H12 C12 1_555 1_555
H13 C13 1_555 1_555
H14 C14 1_555 1_555
H15 C16 1_555 1_555
F2B P1 1_555 1_555
F3B P1 1_555 1_555
F4B P1 1_555 1_555
O1B C6B 1_555 1_555
O2B C7B 1_555 1_555
N1B Ag1 1_555 1_555
N2B C5B 1_555 1_555
N3B C7B 1_555 1_555
N4B C8B 1_555 1_555
C1B N1B 1_555 1_555
C2B C1B 1_555 1_555
C3B C2B 1_555 1_555
C4B C3B 1_555 1_555
C5B N1B 1_555 1_555
C6B N2B 1_555 1_555
C7B C6B 1_555 1_555
C8B N3B 1_555 1_555
C9B C8B 1_555 1_555
C10B C9B 1_555 1_555
C11B C10B 1_555 1_555
C12B N4B 1_555 1_555
H2B N2B 1_555 1_555
H3B N3B 1_555 1_555
H5B C1B 1_555 1_555
H6B C2B 1_555 1_555
H7B C3B 1_555 1_555
H8B C4B 1_555 1_555
H9B C9B 1_555 1_555
H10B C10B 1_555 1_555
H11B C11B 1_555 1_555
H12B C12B 1_555 1_555
N5_2 Ag1 1_555 1_555
N4D Ag2 1_555 1_555
N4F Ag2 1_555 1_555
Ag2D N4 1_555 1_555
Ag1_2 N5 1_555 1_555
Ag2D_2 N4B 1_555 1_555
O5 C19 1_555 1_555
C4 C5 1_555 1_555
C11 C12 1_555 1_555
C16 C17 1_555 1_555
C18 C19 1_555 1_555
F2 F2B 1_555 1_555
C4B C5B 1_555 1_555
C11B C12B 1_555 1_555

#END
