
#######################################################################
#
#                 Cambridge Crystallographic Data Centre
#                                CCDC 
#
#######################################################################
#
# If this CIF has been generated from an entry in the Cambridge 
# Structural Database, then it will include bibliographic, chemical, 
# crystal, experimental, refinement or atomic coordinate data resulting 
# from the CCDC's data processing and validation procedures.
#
#######################################################################

data_QAKRIE
_symmetry_cell_setting           orthorhombic
_symmetry_space_group_name_H-M   'P n m a'
_symmetry_Int_Tables_number      62
_space_group_name_Hall           '-P 2ac 2n'
loop_
_symmetry_equiv_pos_site_id
_symmetry_equiv_pos_as_xyz
1 x,y,z
2 1/2+x,y,1/2-z
3 x,1/2-y,z
4 1/2-x,1/2+y,1/2+z
5 -x,-y,-z
6 1/2-x,-y,1/2+z
7 -x,1/2+y,-z
8 1/2+x,1/2-y,1/2-z
_cell_length_a                   27.469(2)
_cell_length_b                   16.426(2)
_cell_length_c                   7.4868(7)
_cell_angle_alpha                90
_cell_angle_beta                 90
_cell_angle_gamma                90
_cell_volume                     3378.09
loop_
_atom_site_label
_atom_site_type_symbol
_atom_site_fract_x
_atom_site_fract_y
_atom_site_fract_z
B1 B -0.2626(5) 0.2500 0.5328(18)
F1 F -0.2256(6) 0.2114(9) 0.461(3)
F2 F -0.2973(6) 0.1924(11) 0.568(3)
F3 F -0.2532(5) 0.2113(8) 0.681(2)
F4 F -0.2805(12) 0.1986(14) 0.425(4)
F1B F -0.2256(6) 0.2886(9) 0.461(3)
F2B F -0.2973(6) 0.3076(11) 0.568(3)
F3B F -0.2532(5) 0.2887(8) 0.681(2)
F4B F -0.2805(12) 0.3014(14) 0.425(4)
Ag1 Ag 0.01409(2) 0.2500 1.23240(9)
Ag2 Ag 0.15603(2) 0.2500 1.59497(13)
O1 O -0.02659(18) -0.0819(3) 1.3259(10)
O2 O -0.10510(18) 0.0816(3) 1.3594(10)
O3 O -0.0301(2) 0.2500 1.5279(8)
O4 O 0.0695(2) 0.2500 1.4776(8)
O5 O 0.0790(2) 0.2500 1.7680(9)
N1 N 0.05240(16) 0.1228(3) 1.1576(8)
N2 N -0.01352(17) 0.0497(3) 1.2534(8)
H1 H -0.0280 0.0961 1.2512
N3 N -0.11849(17) -0.0526(3) 1.4167(8)
H2 H -0.1045 -0.0994 1.4100
N4 N -0.18705(17) -0.1259(3) 1.4910(8)
N5 N -0.0604(2) 0.2500 2.0839(9)
N6 N -0.0153(2) 0.2500 1.8265(10)
H3 H 0.0084 0.2500 1.9014
C1 C 0.0985(2) 0.1267(4) 1.0979(10)
H4 H 0.1114 0.1775 1.0698
C2 C 0.1275(2) 0.0597(5) 1.0765(11)
H5 H 0.1595 0.0648 1.0380
C3 C 0.1083(2) -0.0148(4) 1.1130(11)
H6 H 0.1270 -0.0614 1.0965
C4 C 0.0612(2) -0.0216(4) 1.1741(11)
H7 H 0.0477 -0.0721 1.2008
C5 C 0.0344(2) 0.0494(4) 1.1944(9)
C6 C -0.0400(2) -0.0130(4) 1.3134(10)
C7 C -0.0920(2) 0.0116(4) 1.3667(10)
C8 C -0.1670(2) -0.0522(4) 1.4795(9)
C9 C -0.1909(2) 0.0179(4) 1.5299(10)
H8 H -0.1760 0.0685 1.5195
C10 C -0.2376(2) 0.0110(5) 1.5965(10)
H9 H -0.2545 0.0571 1.6332
C11 C -0.2590(3) -0.0637(5) 1.6079(12)
H10 H -0.2905 -0.0694 1.6516
C12 C -0.2327(3) -0.1302(5) 1.5534(13)
H11 H -0.2474 -0.1811 1.5600
C13 C -0.1030(3) 0.2500 2.1708(12)
H12 H -0.1026 0.2500 2.2951
C14 C -0.1467(3) 0.2500 2.0873(13)
H13 H -0.1755 0.2500 2.1526
C15 C -0.1475(3) 0.2500 1.9022(14)
H14 H -0.1771 0.2500 1.8415
C16 C -0.1047(3) 0.2500 1.8096(13)
H15 H -0.1047 0.2500 1.6854
C17 C -0.0613(3) 0.2500 1.9037(11)
C18 C -0.0016(3) 0.2500 1.6497(10)
C19 C 0.0539(3) 0.2500 1.6309(12)
O1B O -0.02659(18) 0.5819(3) 1.3259(10)
O2B O -0.10510(18) 0.4184(3) 1.3594(10)
N1B N 0.05240(16) 0.3772(3) 1.1576(8)
N2B N -0.01352(17) 0.4503(3) 1.2534(8)
H1B H -0.0280 0.4039 1.2512
N3B N -0.11849(17) 0.5526(3) 1.4167(8)
H2B H -0.1045 0.5994 1.4100
N4B N -0.18705(17) 0.6259(3) 1.4910(8)
C1B C 0.0985(2) 0.3733(4) 1.0979(10)
H4B H 0.1114 0.3225 1.0698
C2B C 0.1275(2) 0.4403(5) 1.0765(11)
H5B H 0.1595 0.4352 1.0380
C3B C 0.1083(2) 0.5148(4) 1.1130(11)
H6B H 0.1270 0.5614 1.0965
C4B C 0.0612(2) 0.5216(4) 1.1741(11)
H7B H 0.0477 0.5721 1.2008
C5B C 0.0344(2) 0.4506(4) 1.1944(9)
C6B C -0.0400(2) 0.5130(4) 1.3134(10)
C7B C -0.0920(2) 0.4884(4) 1.3667(10)
C8B C -0.1670(2) 0.5522(4) 1.4795(9)
C9B C -0.1909(2) 0.4821(4) 1.5299(10)
H8B H -0.1760 0.4315 1.5195
C10B C -0.2376(2) 0.4890(5) 1.5965(10)
H9B H -0.2545 0.4429 1.6332
C11B C -0.2590(3) 0.5637(5) 1.6079(12)
H10B H -0.2905 0.5694 1.6516
C12B C -0.2327(3) 0.6302(5) 1.5534(13)
H11B H -0.2474 0.6811 1.5600
N5_2 N -0.0604(2) 0.2500 1.0839(9)
N4D N 0.18705(17) 0.1259(3) 1.5090(8)
N4F N 0.18705(17) 0.3741(3) 1.5090(8)
Ag2D Ag -0.15603(2) -0.2500 1.40503(13)
Ag1_2 Ag 0.01409(2) 0.2500 2.23240(9)
Ag2D_2 Ag -0.15603(2) 0.7500 1.40503(13)
loop_
_geom_bond_atom_site_label_1
_geom_bond_atom_site_label_2
_geom_bond_site_symmetry_1
_geom_bond_site_symmetry_2
Ag1 O3 1_555 1_555
Ag2 O4 1_555 1_555
O1 C6 1_555 1_555
O2 C7 1_555 1_555
O3 C18 1_555 1_555
O4 Ag1 1_555 1_555
O5 Ag2 1_555 1_555
N1 Ag1 1_555 1_555
N2 H1 1_555 1_555
N3 H2 1_555 1_555
N4 C8 1_555 1_555
N5 C13 1_555 1_555
N6 H3 1_555 1_555
C1 N1 1_555 1_555
H4 C1 1_555 1_555
C2 C1 1_555 1_555
H5 C2 1_555 1_555
C3 C2 1_555 1_555
H6 C3 1_555 1_555
C4 C3 1_555 1_555
H7 C4 1_555 1_555
C5 N1 1_555 1_555
C6 N2 1_555 1_555
C7 N3 1_555 1_555
C8 N3 1_555 1_555
C9 C8 1_555 1_555
H8 C9 1_555 1_555
C10 C9 1_555 1_555
H9 C10 1_555 1_555
C11 C10 1_555 1_555
H10 C11 1_555 1_555
C12 N4 1_555 1_555
H11 C12 1_555 1_555
C13 H12 1_555 1_555
C14 C13 1_555 1_555
H13 C14 1_555 1_555
C15 C14 1_555 1_555
H14 C15 1_555 1_555
C16 C15 1_555 1_555
H15 C16 1_555 1_555
C17 N5 1_555 1_555
C18 N6 1_555 1_555
C19 O4 1_555 1_555
B1 F1 1_555 1_555
F1 F4 1_555 1_555
F2 B1 1_555 1_555
F3 B1 1_555 1_555
F4 B1 1_555 1_555
F1B B1 1_555 1_555
F2B B1 1_555 1_555
F3B B1 1_555 1_555
F4B B1 1_555 1_555
O1B C6B 1_555 1_555
O2B C7B 1_555 1_555
N1B Ag1 1_555 1_555
N2B H1B 1_555 1_555
N3B H2B 1_555 1_555
N4B C8B 1_555 1_555
C1B N1B 1_555 1_555
H4B C1B 1_555 1_555
C2B C1B 1_555 1_555
H5B C2B 1_555 1_555
C3B C2B 1_555 1_555
H6B C3B 1_555 1_555
C4B C3B 1_555 1_555
H7B C4B 1_555 1_555
C5B N1B 1_555 1_555
C6B N2B 1_555 1_555
C7B N3B 1_555 1_555
C8B N3B 1_555 1_555
C9B C8B 1_555 1_555
H8B C9B 1_555 1_555
C10B C9B 1_555 1_555
H9B C10B 1_555 1_555
C11B C10B 1_555 1_555
H10B C11B 1_555 1_555
C12B N4B 1_555 1_555
H11B C12B 1_555 1_555
N5_2 Ag1 1_555 1_555
N4D Ag2 1_555 1_555
N4F Ag2 1_555 1_555
Ag2D N4 1_555 1_555
Ag1_2 N5 1_555 1_555
Ag2D_2 N4B 1_555 1_555
O5 C19 1_555 1_555
N2 C5 1_555 1_555
N6 C17 1_555 1_555
C4 C5 1_555 1_555
C6 C7 1_555 1_555
C11 C12 1_555 1_555
C16 C17 1_555 1_555
C18 C19 1_555 1_555
F1 F1B 1_555 1_555
F2 F3 1_555 1_555
F2 F4 1_555 1_555
F3 F3B 1_555 1_555
F1B F4B 1_555 1_555
F2B F3B 1_555 1_555
F2B F4B 1_555 1_555
N2B C5B 1_555 1_555
C4B C5B 1_555 1_555
C6B C7B 1_555 1_555
C11B C12B 1_555 1_555

#END
