
#######################################################################
#
#                 Cambridge Crystallographic Data Centre
#                                CCDC 
#
#######################################################################
#
# If this CIF has been generated from an entry in the Cambridge 
# Structural Database, then it will include bibliographic, chemical, 
# crystal, experimental, refinement or atomic coordinate data resulting 
# from the CCDC's data processing and validation procedures.
#
#######################################################################

data_QAKREA01
_symmetry_cell_setting           orthorhombic
_symmetry_space_group_name_H-M   'P b c a'
_symmetry_Int_Tables_number      61
_space_group_name_Hall           '-P 2ac 2ab'
loop_
_symmetry_equiv_pos_site_id
_symmetry_equiv_pos_as_xyz
1 x,y,z
2 1/2+x,1/2-y,-z
3 -x,1/2+y,1/2-z
4 1/2-x,-y,1/2+z
5 -x,-y,-z
6 1/2-x,1/2+y,z
7 x,1/2-y,1/2+z
8 1/2+x,y,1/2-z
_cell_length_a                   14.5628(4)
_cell_length_b                   18.5282(4)
_cell_length_c                   19.2649(5)
_cell_angle_alpha                90
_cell_angle_beta                 90
_cell_angle_gamma                90
_cell_volume                     5198.1
loop_
_atom_site_label
_atom_site_type_symbol
_atom_site_fract_x
_atom_site_fract_y
_atom_site_fract_z
Cu1 Cu 0.94187(3) -0.15543(2) 0.80216(3)
Cu2 Cu 0.73814(3) -0.40633(2) 0.78472(2)
O1 O 0.9491(2) -0.1942(1) 0.7109(2)
O2 O 0.7514(2) -0.45074(13) 0.87348(13)
N1 N 1.0016(2) -0.0650(2) 0.7759(2)
N2 N 0.9450(2) -0.1110(2) 0.9008(2)
N3 N 0.9210(3) -0.2520(2) 0.8432(2)
N4 N 0.9084(2) -0.3059(2) 0.8112(2)
N5 N 0.8960(2) -0.3597(2) 0.7827(2)
N6 N 0.6928(2) -0.3166(2) 0.8246(2)
N7 N 0.7102(2) -0.3563(2) 0.6909(2)
N8 N 0.7497(3) 0.0005(2) 0.7364(2)
N9 N 0.7666(2) -0.0558(2) 0.7620(2)
N10 N 0.7828(3) -0.1120(2) 0.7853(2)
C1 C 0.9799(3) -0.1626(2) 0.6552(2)
C2 C 0.9775(3) -0.2003(3) 0.5918(2)
C3 C 1.0057(4) -0.1684(3) 0.5316(3)
C4 C 1.0408(4) -0.0988(3) 0.5303(3)
C5 C 1.0462(4) -0.0623(3) 0.5913(3)
C6 C 1.0172(3) -0.0914(2) 0.6542(2)
C7 C 1.0268(3) -0.0480(2) 0.7141(2)
C8 C 1.0183(4) -0.0156(2) 0.8330(2)
C9 C 0.9502(3) -0.0322(2) 0.8896(2)
C10 C 1.0287(4) -0.1383(3) 0.9366(3)
C11 C 0.8635(4) -0.1281(3) 0.9434(3)
C12 C 0.7532(3) -0.4181(2) 0.9334(2)
C13 C 0.7756(3) -0.4584(2) 0.9932(2)
C14 C 0.7827(3) -0.4276(3) 1.0572(2)
C15 C 0.7657(3) -0.3546(3) 1.0667(3)
C16 C 0.7402(3) -0.3145(3) 1.0109(3)
C17 C 0.7330(3) -0.3438(2) 0.9437(2)
C18 C 0.7022(3) -0.2983(2) 0.8889(3)
C19 C 0.6567(3) -0.2658(2) 0.7743(2)
C20 C 0.7073(3) -0.2777(2) 0.7075(3)
C21 C 0.7778(4) -0.3697(3) 0.6369(2)
C22 C 0.6208(3) -0.3824(3) 0.6673(3)
H1 H 0.9583(3) -0.2493(3) 0.5914(2)
H2 H 1.0005(4) -0.1945(3) 0.4894(3)
H3 H 1.0606(4) -0.0772(3) 0.4882(3)
H4 H 1.0697(4) -0.0144(3) 0.5913(3)
H5 H 1.0551(3) -0.0022(2) 0.7078(2)
H6 H 1.0788(4) -0.0220(2) 0.8505(2)
H7 H 1.0111(4) 0.0328(2) 0.8175(2)
H8 H 0.8912(3) -0.0159(2) 0.8754(2)
H9 H 0.9672(3) -0.0086(2) 0.9314(2)
H10 H 1.0236(4) -0.1888(3) 0.9437(3)
H11 H 1.0815(4) -0.1283(3) 0.9093(3)
H12 H 1.0340(4) -0.1147(3) 0.9802(3)
H13 H 0.8685(4) -0.1036(3) 0.9866(3)
H14 H 0.8096(4) -0.1125(3) 0.9200(3)
H15 H 0.8602(4) -0.1786(3) 0.9513(3)
H16 H 0.7866(3) -0.5087(2) 0.9887(2)
H17 H 0.8004(3) -0.4560(3) 1.0960(2)
H18 H 0.7715(3) -0.3332(3) 1.1113(3)
H19 H 0.7259(3) -0.2650(3) 1.0175(3)
H20 H 0.6879(3) -0.2498(2) 0.9006(3)
H21 H 0.6648(3) -0.2178(2) 0.7905(2)
H22 H 0.5932(3) -0.2747(2) 0.7669(2)
H23 H 0.6783(3) -0.2520(2) 0.6709(3)
H24 H 0.7683(3) -0.2606(2) 0.7131(3)
H25 H 0.8359(4) -0.3528(3) 0.6522(2)
H26 H 0.7609(4) -0.3452(3) 0.5954(2)
H27 H 0.7812(4) -0.4201(3) 0.6281(2)
H28 H 0.6236(3) -0.4328(3) 0.6584(3)
H29 H 0.6037(3) -0.3577(3) 0.6260(3)
H30 H 0.5765(3) -0.3732(3) 0.7025(3)
Cu2E Cu 0.76186(3) 0.09367(2) 0.78472(2)
N8E N 0.7503(3) -0.4995(2) 0.7364(2)
loop_
_geom_bond_atom_site_label_1
_geom_bond_atom_site_label_2
_geom_bond_site_symmetry_1
_geom_bond_site_symmetry_2
Cu1 O1 1_555 1_555
Cu2 O2 1_555 1_555
O1 C1 1_555 1_555
O2 C12 1_555 1_555
N1 Cu1 1_555 1_555
N2 Cu1 1_555 1_555
N3 Cu1 1_555 1_555
N4 N3 1_555 1_555
N5 Cu2 1_555 1_555
N6 Cu2 1_555 1_555
N7 Cu2 1_555 1_555
N8 N9 1_555 1_555
N9 N10 1_555 1_555
N10 Cu1 1_555 1_555
C1 C2 1_555 1_555
C2 C3 1_555 1_555
C3 C4 1_555 1_555
C4 C5 1_555 1_555
C5 C6 1_555 1_555
C6 C1 1_555 1_555
C7 N1 1_555 1_555
C8 N1 1_555 1_555
C9 N2 1_555 1_555
C10 N2 1_555 1_555
C11 N2 1_555 1_555
C12 C13 1_555 1_555
C13 C14 1_555 1_555
C14 C15 1_555 1_555
C15 C16 1_555 1_555
C16 C17 1_555 1_555
C17 C12 1_555 1_555
C18 N6 1_555 1_555
C19 N6 1_555 1_555
C20 N7 1_555 1_555
C21 N7 1_555 1_555
C22 N7 1_555 1_555
H1 C2 1_555 1_555
H2 C3 1_555 1_555
H3 C4 1_555 1_555
H4 C5 1_555 1_555
H5 C7 1_555 1_555
H6 C8 1_555 1_555
H7 C8 1_555 1_555
H8 C9 1_555 1_555
H9 C9 1_555 1_555
H10 C10 1_555 1_555
H11 C10 1_555 1_555
H12 C10 1_555 1_555
H13 C11 1_555 1_555
H14 C11 1_555 1_555
H15 C11 1_555 1_555
H16 C13 1_555 1_555
H17 C14 1_555 1_555
H18 C15 1_555 1_555
H19 C16 1_555 1_555
H20 C18 1_555 1_555
H21 C19 1_555 1_555
H22 C19 1_555 1_555
H23 C20 1_555 1_555
H24 C20 1_555 1_555
H25 C21 1_555 1_555
H26 C21 1_555 1_555
H27 C21 1_555 1_555
H28 C22 1_555 1_555
H29 C22 1_555 1_555
H30 C22 1_555 1_555
Cu2E N8 1_555 1_555
N8E Cu2 1_555 1_555
N4 N5 1_555 1_555
C6 C7 1_555 1_555
C8 C9 1_555 1_555
C17 C18 1_555 1_555
C19 C20 1_555 1_555

#END
