
#######################################################################
#
#                 Cambridge Crystallographic Data Centre
#                                CCDC 
#
#######################################################################
#
# If this CIF has been generated from an entry in the Cambridge 
# Structural Database, then it will include bibliographic, chemical, 
# crystal, experimental, refinement or atomic coordinate data resulting 
# from the CCDC's data processing and validation procedures.
#
#######################################################################

data_QAKRAW
_symmetry_cell_setting           orthorhombic
_symmetry_space_group_name_H-M   'P 21 21 21'
_symmetry_Int_Tables_number      19
_space_group_name_Hall           'P 2ac 2ab'
loop_
_symmetry_equiv_pos_site_id
_symmetry_equiv_pos_as_xyz
1 x,y,z
2 1/2-x,-y,1/2+z
3 -x,1/2+y,1/2-z
4 1/2+x,1/2-y,-z
_cell_length_a                   9.3270(19)
_cell_length_b                   12.049(2)
_cell_length_c                   15.321(3)
_cell_angle_alpha                90
_cell_angle_beta                 90
_cell_angle_gamma                90
_cell_volume                     1721.79
loop_
_atom_site_label
_atom_site_type_symbol
_atom_site_fract_x
_atom_site_fract_y
_atom_site_fract_z
Cu1 Cu 0.54033(3) 0.74851(3) 0.902991(17)
C1 C 0.2962(4) 0.6121(3) 0.8780(2)
H1 H 0.2644 0.6142 0.9383
H2 H 0.2483 0.5507 0.8493
N1 N 0.4500(3) 0.7375(2) 1.05458(14)
C2 C 0.5435(4) 0.9860(2) 0.92433(18)
O1 O 0.6172(2) 0.89477(14) 0.91561(13)
C3 C 0.3058(4) 0.9019(2) 0.88372(19)
H3 H 0.2084 0.9147 0.8758
N2 N 0.3407(3) 0.77569(17) 1.07090(14)
C4 C 0.6162(4) 1.0843(2) 0.9454(2)
H4 H 0.7153 1.0826 0.9519
C5 C 0.5449(4) 1.1834(3) 0.9566(2)
H5 H 0.5964 1.2473 0.9697
C6 C 0.3923(3) 0.9932(2) 0.91375(19)
N3 N 0.4530(3) 0.59484(19) 0.87518(14)
N4 N 0.2317(3) 0.8206(2) 1.08767(18)
C7 C 0.3246(4) 1.0962(2) 0.9259(2)
H6 H 0.2259 1.1009 0.9180
C8 C 0.2566(3) 0.7186(2) 0.83377(19)
H7 H 0.2670 0.7113 0.7710
H8 H 0.1579 0.7379 0.8467
C9 C 0.4942(4) 0.5079(2) 0.9372(2)
H9 H 0.4497 0.4391 0.9207
H10 H 0.4633 0.5283 0.9948
H11 H 0.5965 0.4992 0.9367
N6 N 0.3533(3) 0.80402(19) 0.86697(14)
C10 C 0.5009(4) 0.5634(3) 0.78666(19)
H12 H 0.4615 0.4923 0.7717
H13 H 0.6036 0.5595 0.7854
H14 H 0.4685 0.6179 0.7454
C11 C 0.3978(4) 1.1886(3) 0.9486(2)
H15 H 0.3495 1.2549 0.9587
N4C N 0.7317(3) 0.6794(2) 0.91233(18)
Cu1C Cu 0.04033(3) 0.75149(3) 1.097009(17)
N5 N 1.0409(3) 0.4219(2) 0.76546(17)
O2 O 1.0261(4) 0.5627(2) 0.6672(2)
C12 C 1.0800(4) 0.4776(3) 0.6941(2)
H16 H 1.1557 0.4485 0.6619
C13 C 0.9261(5) 0.4640(4) 0.8192(3)
H17 H 0.8906 0.5320 0.7947
H18 H 0.9613 0.4776 0.8771
H19 H 0.8500 0.4104 0.8215
C14 C 1.1117(5) 0.3219(3) 0.7905(3)
H20 H 1.1847 0.3044 0.7485
H21 H 1.0433 0.2624 0.7929
H22 H 1.1547 0.3315 0.8469
loop_
_geom_bond_atom_site_label_1
_geom_bond_atom_site_label_2
_geom_bond_site_symmetry_1
_geom_bond_site_symmetry_2
Cu1 N1 1_555 1_555
C1 H1 1_555 1_555
H2 C1 1_555 1_555
N1 N2 1_555 1_555
C2 O1 1_555 1_555
O1 Cu1 1_555 1_555
C3 H3 1_555 1_555
N2 N4 1_555 1_555
C4 C2 1_555 1_555
H4 C4 1_555 1_555
C5 C4 1_555 1_555
H5 C5 1_555 1_555
C6 C2 1_555 1_555
N3 Cu1 1_555 1_555
N4 Cu1C 1_555 1_555
N5 C12 1_555 1_555
C7 C6 1_555 1_555
H6 C7 1_555 1_555
C8 C1 1_555 1_555
H7 C8 1_555 1_555
H8 C8 1_555 1_555
C9 N3 1_555 1_555
H9 C9 1_555 1_555
H10 C9 1_555 1_555
H11 C9 1_555 1_555
N6 Cu1 1_555 1_555
C10 N3 1_555 1_555
H12 C10 1_555 1_555
H13 C10 1_555 1_555
H14 C10 1_555 1_555
C11 C5 1_555 1_555
H15 C11 1_555 1_555
O2 C12 1_555 1_555
C12 H16 1_555 1_555
C13 N5 1_555 1_555
H17 C13 1_555 1_555
H18 C13 1_555 1_555
H19 C13 1_555 1_555
C14 N5 1_555 1_555
H20 C14 1_555 1_555
H21 C14 1_555 1_555
H22 C14 1_555 1_555
N4C Cu1 1_555 1_555
C1 N3 1_555 1_555
C3 N6 1_555 1_555
C3 C6 1_555 1_555
C7 C11 1_555 1_555
C8 N6 1_555 1_555

#END
