
#######################################################################
#
#                 Cambridge Crystallographic Data Centre
#                                CCDC 
#
#######################################################################
#
# If this CIF has been generated from an entry in the Cambridge 
# Structural Database, then it will include bibliographic, chemical, 
# crystal, experimental, refinement or atomic coordinate data resulting 
# from the CCDC's data processing and validation procedures.
#
#######################################################################

data_QAKSAX
_symmetry_cell_setting           orthorhombic
_symmetry_space_group_name_H-M   'P n m a'
_symmetry_Int_Tables_number      62
_space_group_name_Hall           '-P 2ac 2n'
loop_
_symmetry_equiv_pos_site_id
_symmetry_equiv_pos_as_xyz
1 x,y,z
2 1/2+x,y,1/2-z
3 x,1/2-y,z
4 1/2-x,1/2+y,1/2+z
5 -x,-y,-z
6 1/2-x,-y,1/2+z
7 -x,1/2+y,-z
8 1/2+x,1/2-y,1/2-z
_cell_length_a                   27.227(3)
_cell_length_b                   16.251(2)
_cell_length_c                   7.4935(7)
_cell_angle_alpha                90
_cell_angle_beta                 90
_cell_angle_gamma                90
_cell_volume                     3315.62
loop_
_atom_site_label
_atom_site_type_symbol
_atom_site_fract_x
_atom_site_fract_y
_atom_site_fract_z
Ag1 Ag 0.016559(15) 0.2500 1.23631(5)
Ag2 Ag 0.162230(16) 0.2500 1.64196(8)
O1 O -0.02673(13) -0.0824(2) 1.3217(7)
O2 O -0.10355(13) 0.0844(2) 1.3714(6)
O3 O -0.02762(14) 0.2500 1.5296(5)
O4 O 0.07298(15) 0.2500 1.4836(6)
O5 O 0.08145(13) 0.2500 1.7735(5)
N1 N 0.05477(11) 0.1239(2) 1.1583(5)
N2 N -0.01201(12) 0.0509(2) 1.2577(5)
H1 H -0.0256 0.0981 1.2627
N3 N -0.11841(12) -0.0506(2) 1.4257(5)
H2 H -0.1050 -0.0977 1.4160
N4 N -0.18710(12) -0.1238(2) 1.5013(5)
N5 N -0.05936(14) 0.2500 2.0854(6)
N6 N -0.01382(15) 0.2500 1.8289(6)
H3 H 0.0097 0.2500 1.9046
C1 C 0.10089(15) 0.1274(3) 1.0956(6)
H4 H 0.1146 0.1782 1.0732
C2 C 0.12867(16) 0.0583(3) 1.0633(7)
H5 H 0.1602 0.0628 1.0194
C3 C 0.10874(17) -0.0172(3) 1.0975(7)
H6 H 0.1269 -0.0641 1.0772
C4 C 0.06169(18) -0.0229(3) 1.1621(7)
H7 H 0.0476 -0.0733 1.1852
C5 C 0.03584(15) 0.0497(3) 1.1916(6)
C6 C -0.03955(16) -0.0120(3) 1.3145(6)
C7 C -0.09104(16) 0.0137(3) 1.3746(6)
C8 C -0.16635(13) -0.0494(3) 1.4929(6)
C9 C -0.18987(16) 0.0214(3) 1.5503(6)
H8 H -0.1745 0.0717 1.5426
C10 C -0.23651(17) 0.0149(3) 1.6187(7)
H9 H -0.2531 0.0611 1.6564
C11 C -0.25804(18) -0.0604(4) 1.6305(8)
H10 H -0.2891 -0.0660 1.6781
C12 C -0.23271(18) -0.1271(4) 1.5707(9)
H11 H -0.2477 -0.1777 1.5782
C13 C -0.10226(19) 0.2500 2.1718(8)
H12 H -0.1020 0.2500 2.2960
C14 C -0.1465(2) 0.2500 2.0859(9)
H13 H -0.1754 0.2500 2.1508
C15 C -0.1473(2) 0.2500 1.9004(10)
H14 H -0.1767 0.2500 1.8387
C16 C -0.1034(2) 0.2500 1.8094(9)
H15 H -0.1030 0.2500 1.6852
C17 C -0.05988(18) 0.2500 1.9047(7)
C18 C 0.00018(18) 0.2500 1.6559(7)
C19 C 0.05682(19) 0.2500 1.6367(7)
N7 N 0.2389(2) 0.2500 1.9497(9)
O6 O 0.2427(3) 0.2500 1.7962(11)
O7 O 0.1992(3) 0.2500 1.9954(17)
O8 O 0.2738(3) 0.2500 2.0482(11)
O1B O -0.02673(13) 0.5824(2) 1.3217(7)
O2B O -0.10355(13) 0.4156(2) 1.3714(6)
N1B N 0.05477(11) 0.3761(2) 1.1583(5)
N2B N -0.01201(12) 0.4491(2) 1.2577(5)
H1B H -0.0256 0.4019 1.2627
N3B N -0.11841(12) 0.5506(2) 1.4257(5)
H2B H -0.1050 0.5977 1.4160
N4B N -0.18710(12) 0.6238(2) 1.5013(5)
C1B C 0.10089(15) 0.3726(3) 1.0956(6)
H4B H 0.1146 0.3218 1.0732
C2B C 0.12867(16) 0.4417(3) 1.0633(7)
H5B H 0.1602 0.4372 1.0194
C3B C 0.10874(17) 0.5172(3) 1.0975(7)
H6B H 0.1269 0.5641 1.0772
C4B C 0.06169(18) 0.5229(3) 1.1621(7)
H7B H 0.0476 0.5733 1.1852
C5B C 0.03584(15) 0.4503(3) 1.1916(6)
C6B C -0.03955(16) 0.5120(3) 1.3145(6)
C7B C -0.09104(16) 0.4863(3) 1.3746(6)
C8B C -0.16635(13) 0.5494(3) 1.4929(6)
C9B C -0.18987(16) 0.4786(3) 1.5503(6)
H8B H -0.1745 0.4283 1.5426
C10B C -0.23651(17) 0.4851(3) 1.6187(7)
H9B H -0.2531 0.4389 1.6564
C11B C -0.25804(18) 0.5604(4) 1.6305(8)
H10B H -0.2891 0.5660 1.6781
C12B C -0.23271(18) 0.6271(4) 1.5707(9)
H11B H -0.2477 0.6777 1.5782
N5_2 N -0.05936(14) 0.2500 1.0854(6)
N4D N 0.18710(12) 0.1238(2) 1.4987(5)
N4F N 0.18710(12) 0.3762(2) 1.4987(5)
Ag2D Ag -0.162230(16) -0.2500 1.35804(8)
Ag1_2 Ag 0.016559(15) 0.2500 2.23631(5)
Ag2D_2 Ag -0.162230(16) 0.7500 1.35804(8)
loop_
_geom_bond_atom_site_label_1
_geom_bond_atom_site_label_2
_geom_bond_site_symmetry_1
_geom_bond_site_symmetry_2
Ag1 O3 1_555 1_555
Ag2 O5 1_555 1_555
O1 C6 1_555 1_555
O2 C7 1_555 1_555
O3 C18 1_555 1_555
O4 Ag1 1_555 1_555
O5 C19 1_555 1_555
N1 Ag1 1_555 1_555
N2 H1 1_555 1_555
N3 H2 1_555 1_555
N4 C8 1_555 1_555
N5 C13 1_555 1_555
N6 H3 1_555 1_555
C1 N1 1_555 1_555
H4 C1 1_555 1_555
C2 C1 1_555 1_555
H5 C2 1_555 1_555
C3 C2 1_555 1_555
H6 C3 1_555 1_555
C4 C3 1_555 1_555
H7 C4 1_555 1_555
C5 N1 1_555 1_555
C6 N2 1_555 1_555
C7 N3 1_555 1_555
C8 N3 1_555 1_555
C9 C8 1_555 1_555
H8 C9 1_555 1_555
C10 C9 1_555 1_555
H9 C10 1_555 1_555
C11 C10 1_555 1_555
H10 C11 1_555 1_555
C12 N4 1_555 1_555
H11 C12 1_555 1_555
C13 H12 1_555 1_555
C14 C13 1_555 1_555
H13 C14 1_555 1_555
C15 C14 1_555 1_555
H14 C15 1_555 1_555
C16 C15 1_555 1_555
H15 C16 1_555 1_555
C17 N5 1_555 1_555
C18 N6 1_555 1_555
C19 O4 1_555 1_555
N7 O6 1_555 1_555
O6 Ag2 1_555 1_555
O7 N7 1_555 1_555
O8 N7 1_555 1_555
O1B C6B 1_555 1_555
O2B C7B 1_555 1_555
N1B Ag1 1_555 1_555
N2B H1B 1_555 1_555
N3B H2B 1_555 1_555
N4B C8B 1_555 1_555
C1B N1B 1_555 1_555
H4B C1B 1_555 1_555
C2B C1B 1_555 1_555
H5B C2B 1_555 1_555
C3B C2B 1_555 1_555
H6B C3B 1_555 1_555
C4B C3B 1_555 1_555
H7B C4B 1_555 1_555
C5B N1B 1_555 1_555
C6B N2B 1_555 1_555
C7B N3B 1_555 1_555
C8B N3B 1_555 1_555
C9B C8B 1_555 1_555
H8B C9B 1_555 1_555
C10B C9B 1_555 1_555
H9B C10B 1_555 1_555
C11B C10B 1_555 1_555
H10B C11B 1_555 1_555
C12B N4B 1_555 1_555
H11B C12B 1_555 1_555
N5_2 Ag1 1_555 1_555
N4D Ag2 1_555 1_555
N4F Ag2 1_555 1_555
Ag2D N4 1_555 1_555
Ag1_2 N5 1_555 1_555
Ag2D_2 N4B 1_555 1_555
N2 C5 1_555 1_555
N6 C17 1_555 1_555
C4 C5 1_555 1_555
C6 C7 1_555 1_555
C11 C12 1_555 1_555
C16 C17 1_555 1_555
C18 C19 1_555 1_555
N2B C5B 1_555 1_555
C4B C5B 1_555 1_555
C6B C7B 1_555 1_555
C11B C12B 1_555 1_555

#END
