
#######################################################################
#
#                 Cambridge Crystallographic Data Centre
#                                CCDC 
#
#######################################################################
#
# If this CIF has been generated from an entry in the Cambridge 
# Structural Database, then it will include bibliographic, chemical, 
# crystal, experimental, refinement or atomic coordinate data resulting 
# from the CCDC's data processing and validation procedures.
#
#######################################################################

data_QAKTUS
_symmetry_cell_setting           monoclinic
_symmetry_space_group_name_H-M   'P 21/c'
_symmetry_Int_Tables_number      14
_space_group_name_Hall           '-P 2ybc'
loop_
_symmetry_equiv_pos_site_id
_symmetry_equiv_pos_as_xyz
1 x,y,z
2 x,1/2-y,1/2+z
3 -x,-y,-z
4 -x,1/2+y,1/2-z
_cell_length_a                   13.946(4)
_cell_length_b                   20.450(6)
_cell_length_c                   29.722(8)
_cell_angle_alpha                90
_cell_angle_beta                 99.025(5)
_cell_angle_gamma                90
_cell_volume                     8371.65
loop_
_atom_site_label
_atom_site_type_symbol
_atom_site_fract_x
_atom_site_fract_y
_atom_site_fract_z
Eu1 Eu -0.02296(3) 0.34047(2) 0.246999(14)
Eu2 Eu 0.51209(3) 0.42472(2) 0.248127(15)
Fe1 Fe -0.33106(10) 0.31134(6) 0.11797(4)
Fe2 Fe 0.19039(9) 0.42532(6) 0.11873(4)
Fe3 Fe -0.20667(9) 0.44278(6) 0.38225(4)
Fe4 Fe 0.29696(9) 0.31546(6) 0.36830(4)
O1 O 0.0039(7) 0.2368(4) 0.2083(3)
O2 O 0.0743(7) 0.4381(4) 0.2776(3)
O3 O -0.0637(7) 0.2485(4) 0.2932(3)
O4 O -0.1029(6) 0.4403(4) 0.2111(3)
O5 O 0.5134(6) 0.5246(4) 0.2038(3)
O6 O 0.6161(6) 0.3308(4) 0.2788(3)
O7 O 0.6799(6) 0.4460(5) 0.2276(3)
O8 O 0.4132(6) 0.5093(4) 0.2800(2)
N1 N -0.3871(8) 0.1684(5) 0.1301(4)
N2 N -0.2522(9) 0.4527(5) 0.1134(3)
N3 N -0.1796(7) 0.3068(5) 0.2021(4)
N4 N 0.0639(6) 0.3692(4) 0.1848(3)
N5 N 0.2558(7) 0.2836(4) 0.1036(3)
N6 N 0.1432(7) 0.5675(4) 0.1412(3)
N7 N 0.3529(6) 0.4250(5) 0.1995(3)
N8 N 0.4214(7) 0.3646(5) 0.2992(3)
N9 N 0.2178(8) 0.4553(5) 0.3766(3)
N10 N 0.3600(8) 0.1743(5) 0.3540(4)
N11 N 0.1323(7) 0.3021(5) 0.2890(3)
N12 N -0.1271(8) 0.5801(5) 0.3691(4)
N13 N -0.1049(7) 0.3873(5) 0.3072(3)
N14 N -0.2916(7) 0.3031(4) 0.3856(3)
N15 N -0.4264(6) 0.3207(3) 0.0608(2)
N16 N -0.2482(6) 0.2819(4) 0.0729(3)
N17 N 0.0891(5) 0.4210(3) 0.0635(2)
N18 N 0.2668(5) 0.4603(4) 0.0725(2)
N19 N 0.3962(5) 0.3259(4) 0.4240(2)
N20 N 0.2206(5) 0.2830(4) 0.4154(3)
N21 N -0.0967(5) 0.4270(3) 0.4330(2)
N22 N -0.2689(5) 0.4723(3) 0.4347(2)
N23 N -0.4668(7) 0.3557(5) 0.1831(3)
N24 N -0.3848(7) 0.4759(5) 0.3132(3)
C1 C -0.3679(7) 0.2216(5) 0.1255(3)
C2 C -0.2852(8) 0.4008(5) 0.1137(3)
C3 C -0.2365(8) 0.3055(5) 0.1694(3)
C4 C 0.1106(7) 0.3911(5) 0.1588(3)
C5 C 0.2293(7) 0.3358(5) 0.1073(3)
C6 C 0.1580(7) 0.5141(5) 0.1325(3)
C7 C 0.2925(7) 0.4265(5) 0.1681(3)
C8 C 0.3760(7) 0.3468(5) 0.3270(3)
C9 C 0.2475(8) 0.4032(5) 0.3742(3)
C10 C 0.3370(7) 0.2274(5) 0.3593(3)
C11 C 0.1944(7) 0.3060(5) 0.3196(3)
C12 C -0.1566(7) 0.5290(5) 0.3742(3)
C13 C -0.1419(7) 0.4091(5) 0.3359(3)
C14 C -0.2597(7) 0.3551(5) 0.3866(3)
C15 C -0.5203(8) 0.3398(5) 0.0579(3)
H1 H -0.5452 0.3470 0.0847
C16 C -0.5800(9) 0.3489(5) 0.0172(4)
H2 H -0.6448 0.3601 0.0166
C17 C -0.5429(10) 0.3411(5) -0.0229(4)
H3 H -0.5814 0.3493 -0.0508
C18 C -0.4476(10) 0.3210(5) -0.0209(4)
H4 H -0.4216 0.3149 -0.0476
C19 C -0.3906(8) 0.3098(5) 0.0215(3)
C20 C -0.2925(8) 0.2840(5) 0.0282(3)
C21 C -0.2455(10) 0.2609(6) -0.0066(4)
H5 H -0.2762 0.2630 -0.0366
C22 C -0.1559(11) 0.2355(6) 0.0033(5)
H6 H -0.1247 0.2194 -0.0199
C23 C -0.1108(9) 0.2337(6) 0.0476(5)
H7 H -0.0482 0.2171 0.0546
C24 C -0.1585(8) 0.2565(5) 0.0823(4)
H8 H -0.1278 0.2541 0.1124
C25 C -0.0044(7) 0.4015(5) 0.0614(3)
H9 H -0.0259 0.3906 0.0885
C26 C -0.0688(8) 0.3970(5) 0.0220(4)
H10 H -0.1332 0.3855 0.0225
C27 C -0.0361(8) 0.4098(5) -0.0186(4)
H11 H -0.0774 0.4043 -0.0462
C28 C 0.0576(8) 0.4307(5) -0.0182(3)
H12 H 0.0800 0.4403 -0.0454
C29 C 0.1188(6) 0.4373(4) 0.0234(3)
C30 C 0.2184(7) 0.4627(4) 0.0288(3)
C31 C 0.2599(8) 0.4893(5) -0.0064(4)
H13 H 0.2260 0.4902 -0.0359
C32 C 0.3511(9) 0.5137(5) 0.0032(4)
H14 H 0.3802 0.5315 -0.0201
C33 C 0.4015(8) 0.5128(5) 0.0470(4)
H15 H 0.4639 0.5301 0.0537
C34 C 0.3568(7) 0.4857(5) 0.0805(3)
H16 H 0.3903 0.4848 0.1101
C35 C 0.4897(7) 0.3466(4) 0.4255(3)
H17 H 0.5111 0.3573 0.3984
C36 C 0.5532(7) 0.3522(5) 0.4652(3)
H18 H 0.6174 0.3640 0.4647
C37 C 0.5213(7) 0.3402(5) 0.5059(3)
H19 H 0.5627 0.3460 0.5333
C38 C 0.4281(7) 0.3196(4) 0.5056(3)
H20 H 0.4057 0.3108 0.5328
C39 C 0.3667(7) 0.3116(4) 0.4640(3)
C40 C 0.2671(6) 0.2853(4) 0.4589(3)
C41 C 0.2250(7) 0.2622(5) 0.4952(3)
H21 H 0.2584 0.2640 0.5249
C42 C 0.1319(8) 0.2363(5) 0.4862(4)
H22 H 0.1016 0.2204 0.5097
C43 C 0.0855(8) 0.2346(5) 0.4419(4)
H23 H 0.0230 0.2176 0.4352
C44 C 0.1311(7) 0.2577(5) 0.4078(4)
H24 H 0.0986 0.2558 0.3781
C45 C -0.0071(7) 0.4082(5) 0.4289(4)
H25 H 0.0070 0.4004 0.3998
C46 C 0.0652(7) 0.3997(5) 0.4651(4)
H26 H 0.1279 0.3893 0.4606
C47 C 0.0430(7) 0.4070(5) 0.5088(4)
H27 H 0.0896 0.3990 0.5342
C48 C -0.0494(7) 0.4262(5) 0.5137(3)
H28 H -0.0654 0.4322 0.5427
C49 C -0.1186(7) 0.4368(4) 0.4756(3)
C50 C -0.2154(6) 0.4631(4) 0.4764(3)
C51 C -0.2511(7) 0.4795(6) 0.5163(3)
H29 H -0.2140 0.4718 0.5446
C52 C -0.3412(9) 0.5068(6) 0.5131(4)
H30 H -0.3661 0.5182 0.5393
C53 C -0.3945(8) 0.5173(5) 0.4710(4)
H31 H -0.4556 0.5365 0.4684
C54 C -0.3578(7) 0.4996(5) 0.4329(3)
H32 H -0.3954 0.5065 0.4045
C55 C -0.4184(8) 0.3381(5) 0.1568(3)
C56 C -0.3159(7) 0.4630(5) 0.3398(3)
N23_2 N 0.5332(7) 0.3557(5) 0.1831(3)
N24_2 N 0.6152(7) 0.4759(5) 0.3132(3)
Eu2_2 Eu -0.48791(3) 0.42472(2) 0.248127(15)
K1 K 0.2047(8) 0.5281(7) 0.2488(4)
K2 K 0.1336(8) 0.7121(5) 0.1299(4)
K3 K 0.4057(7) 0.5294(4) 0.3707(3)
K4 K 0.5905(7) 0.5422(4) 0.1288(3)
O9 O 0.3418(17) 0.7077(8) 0.2539(6)
O10 O 0.4191(7) 0.6984(5) 0.1333(4)
O11 O 0.1581(10) 0.6424(6) 0.3089(6)
O12 O 0.9089(11) 0.0619(6) 0.1311(5)
O13 O 0.6453(16) 0.6627(8) 0.3841(6)
O14 O 0.3075(19) 0.2640(11) 0.2212(5)
O15 O 0.3535(7) 0.6061(5) 0.1840(4)
O16 O 0.418(3) 0.1405(13) 0.2143(11)
O17 O 0.851(3) 0.5722(17) 0.1234(9)
O18 O 0.870(4) 0.5538(12) 0.2640(8)
O19 O -0.021(2) 0.6293(11) 0.1865(9)
O20 O 0.0802(10) 0.2142(7) 0.1285(5)
C57 C 0.1484(17) 0.2084(14) 0.1677(7)
loop_
_geom_bond_atom_site_label_1
_geom_bond_atom_site_label_2
_geom_bond_site_symmetry_1
_geom_bond_site_symmetry_2
Eu1 O1 1_555 1_555
Eu2 O5 1_555 1_555
Fe1 N15 1_555 1_555
Fe2 N17 1_555 1_555
Fe3 N21 1_555 1_555
Fe4 N19 1_555 1_555
O2 Eu1 1_555 1_555
O3 Eu1 1_555 1_555
O4 Eu1 1_555 1_555
O6 Eu2 1_555 1_555
O7 Eu2 1_555 1_555
O8 Eu2 1_555 1_555
N1 C1 1_555 1_555
N2 C2 1_555 1_555
N3 Eu1 1_555 1_555
N4 Eu1 1_555 1_555
N5 C5 1_555 1_555
N6 C6 1_555 1_555
N7 Eu2 1_555 1_555
N8 Eu2 1_555 1_555
N9 C9 1_555 1_555
N10 C10 1_555 1_555
N11 Eu1 1_555 1_555
N12 C12 1_555 1_555
N13 Eu1 1_555 1_555
N14 C14 1_555 1_555
N15 C15 1_555 1_555
N16 Fe1 1_555 1_555
N17 C25 1_555 1_555
N18 Fe2 1_555 1_555
N19 C35 1_555 1_555
N20 Fe4 1_555 1_555
N21 C45 1_555 1_555
N22 Fe3 1_555 1_555
N23 C55 1_555 1_555
N24 C56 1_555 1_555
C1 Fe1 1_555 1_555
C2 Fe1 1_555 1_555
C3 Fe1 1_555 1_555
C4 Fe2 1_555 1_555
C5 Fe2 1_555 1_555
C6 Fe2 1_555 1_555
C7 Fe2 1_555 1_555
C8 Fe4 1_555 1_555
C9 Fe4 1_555 1_555
C10 Fe4 1_555 1_555
C11 Fe4 1_555 1_555
C12 Fe3 1_555 1_555
C13 Fe3 1_555 1_555
C14 Fe3 1_555 1_555
C15 H1 1_555 1_555
C16 C15 1_555 1_555
H2 C16 1_555 1_555
C17 C16 1_555 1_555
H3 C17 1_555 1_555
C18 C17 1_555 1_555
H4 C18 1_555 1_555
C19 N15 1_555 1_555
C20 N16 1_555 1_555
C21 C20 1_555 1_555
H5 C21 1_555 1_555
C22 C21 1_555 1_555
H6 C22 1_555 1_555
C23 C22 1_555 1_555
H7 C23 1_555 1_555
C24 N16 1_555 1_555
H8 C24 1_555 1_555
C25 H9 1_555 1_555
C26 C25 1_555 1_555
H10 C26 1_555 1_555
C27 C26 1_555 1_555
H11 C27 1_555 1_555
C28 C27 1_555 1_555
H12 C28 1_555 1_555
C29 N17 1_555 1_555
C30 N18 1_555 1_555
C31 C30 1_555 1_555
H13 C31 1_555 1_555
C32 C31 1_555 1_555
H14 C32 1_555 1_555
C33 C32 1_555 1_555
H15 C33 1_555 1_555
C34 N18 1_555 1_555
H16 C34 1_555 1_555
C35 H17 1_555 1_555
C36 C35 1_555 1_555
H18 C36 1_555 1_555
C37 C36 1_555 1_555
H19 C37 1_555 1_555
C38 C37 1_555 1_555
H20 C38 1_555 1_555
C39 N19 1_555 1_555
C40 N20 1_555 1_555
C41 C40 1_555 1_555
H21 C41 1_555 1_555
C42 C41 1_555 1_555
H22 C42 1_555 1_555
C43 C42 1_555 1_555
H23 C43 1_555 1_555
C44 N20 1_555 1_555
H24 C44 1_555 1_555
C45 H25 1_555 1_555
C46 C45 1_555 1_555
H26 C46 1_555 1_555
C47 C46 1_555 1_555
H27 C47 1_555 1_555
C48 C47 1_555 1_555
H28 C48 1_555 1_555
C49 N21 1_555 1_555
C50 N22 1_555 1_555
C51 C50 1_555 1_555
H29 C51 1_555 1_555
C52 C51 1_555 1_555
H30 C52 1_555 1_555
C53 C52 1_555 1_555
H31 C53 1_555 1_555
C54 N22 1_555 1_555
H32 C54 1_555 1_555
C55 Fe1 1_555 1_555
C56 Fe3 1_555 1_555
O20 C57 1_555 1_555
N23_2 Eu2 1_555 1_555
N24_2 Eu2 1_555 1_555
Eu2_2 N23 1_555 1_555
N3 C3 1_555 1_555
N4 C4 1_555 1_555
N7 C7 1_555 1_555
N8 C8 1_555 1_555
N11 C11 1_555 1_555
N13 C13 1_555 1_555
N24 Eu2_2 1_555 1_555
C18 C19 1_555 1_555
C19 C20 1_555 1_555
C23 C24 1_555 1_555
C28 C29 1_555 1_555
C29 C30 1_555 1_555
C33 C34 1_555 1_555
C38 C39 1_555 1_555
C39 C40 1_555 1_555
C43 C44 1_555 1_555
C48 C49 1_555 1_555
C49 C50 1_555 1_555
C53 C54 1_555 1_555

#END
