
#######################################################################
#
#                 Cambridge Crystallographic Data Centre
#                                CCDC 
#
#######################################################################
#
# If this CIF has been generated from an entry in the Cambridge 
# Structural Database, then it will include bibliographic, chemical, 
# crystal, experimental, refinement or atomic coordinate data resulting 
# from the CCDC's data processing and validation procedures.
#
#######################################################################

data_QAKVOO
_symmetry_cell_setting           monoclinic
_symmetry_space_group_name_H-M   'P 21/c'
_symmetry_Int_Tables_number      14
_space_group_name_Hall           '-P 2ybc'
loop_
_symmetry_equiv_pos_site_id
_symmetry_equiv_pos_as_xyz
1 x,y,z
2 x,1/2-y,1/2+z
3 -x,-y,-z
4 -x,1/2+y,1/2-z
_cell_length_a                   7.889(3)
_cell_length_b                   25.916(9)
_cell_length_c                   11.489(4)
_cell_angle_alpha                90
_cell_angle_beta                 95.219(6)
_cell_angle_gamma                90
_cell_volume                     2339.2
loop_
_atom_site_label
_atom_site_type_symbol
_atom_site_fract_x
_atom_site_fract_y
_atom_site_fract_z
La1 La 0.23897(2) 0.497319(8) 0.924821(16)
N1 N 0.3782(4) 0.54056(11) 0.7345(3)
N2 N 0.2282(5) 0.16714(15) 1.0464(4)
N3 N 0.3401(5) 0.80162(14) 1.2736(4)
O1 O -0.0390(3) 0.53316(10) 0.2397(2)
O2 O 0.1573(3) 0.52380(10) 0.1150(2)
O3 O 0.1518(3) 0.41611(10) 1.0147(2)
O4 O -0.0733(3) 0.42457(10) 1.1177(2)
O5 O 0.4797(3) 0.55439(9) 0.9990(2)
O6 O 0.6019(3) 0.57538(9) 1.1731(2)
C1 C 0.2842(5) 0.53534(14) 0.6317(3)
H1 H 0.1801 0.5186 0.6318
C2 C 0.3315(4) 0.55320(14) 0.5255(3)
C3 C 0.4869(5) 0.57831(15) 0.5273(3)
H2 H 0.5250 0.5908 0.4584
C4 C 0.5841(5) 0.58448(16) 0.6318(3)
H3 H 0.6884 0.6013 0.6343
C5 C 0.5256(4) 0.56548(15) 0.7330(3)
H4 H 0.5921 0.5703 0.8032
C6 C 0.2142(5) 0.54485(14) 0.4218(3)
H5 H 0.1021 0.5377 0.4351
C7 C 0.2471(4) 0.54611(14) 0.3115(3)
H6 H 0.3559 0.5548 0.2932
C8 C 0.1139(5) 0.53385(13) 0.2159(3)
C9 C 0.2258(5) 0.21820(17) 1.0299(4)
H7 H 0.2767 0.2310 0.9659
C10 C 0.1531(5) 0.25341(15) 1.1011(4)
C11 C 0.0808(6) 0.23329(16) 1.1968(4)
H8 H 0.0311 0.2551 1.2482
C12 C 0.0828(6) 0.18081(17) 1.2152(5)
H9 H 0.0342 0.1668 1.2788
C13 C 0.1576(6) 0.14960(17) 1.1384(5)
H10 H 0.1586 0.1142 1.1517
C14 C 0.1525(5) 0.30874(14) 1.0722(4)
H11 H 0.2298 0.3200 1.0212
C15 C 0.0519(5) 0.34352(14) 1.1123(4)
H12 H -0.0212 0.3326 1.1664
C16 C 0.0450(4) 0.39868(14) 1.0788(3)
C17 C 0.3929(6) 0.75310(17) 1.2600(4)
H13 H 0.4505 0.7374 1.3247
C18 C 0.3698(5) 0.72420(14) 1.1587(4)
C19 C 0.2855(5) 0.74822(15) 1.0629(4)
H14 H 0.2658 0.7308 0.9923
C20 C 0.2307(6) 0.79849(16) 1.0733(4)
H15 H 0.1734 0.8153 1.0099
C21 C 0.2621(6) 0.82319(16) 1.1782(4)
H16 H 0.2265 0.8573 1.1832
C22 C 0.4374(5) 0.67145(15) 1.1584(3)
H17 H 0.4981 0.6606 1.2272
C23 C 0.4225(5) 0.63756(14) 1.0725(4)
H18 H 0.3584 0.6459 1.0031
C24 C 0.5059(4) 0.58661(13) 1.0845(3)
O1B O 0.0390(3) 0.46684(10) 0.7603(2)
O2_2 O 0.1573(3) 0.52380(10) 1.1150(2)
O4B O 0.0733(3) 0.57543(10) 0.8823(2)
O5B O 0.5203(3) 0.44561(9) 1.0010(2)
O6B O 0.3981(3) 0.42462(9) 0.8269(2)
La1B La -0.23897(2) 0.502681(8) 0.075179(16)
La1_2 La 0.23897(2) 0.497319(8) -0.075179(16)
La1B_2 La -0.23897(2) 0.502681(8) 1.075179(16)
La1B_3 La 0.76103(2) 0.502681(8) 1.075179(16)
loop_
_geom_bond_atom_site_label_1
_geom_bond_atom_site_label_2
_geom_bond_site_symmetry_1
_geom_bond_site_symmetry_2
La1 N1 1_555 1_555
N1 C1 1_555 1_555
N2 C9 1_555 1_555
N3 C17 1_555 1_555
O1 C8 1_555 1_555
O2 C8 1_555 1_555
O3 La1 1_555 1_555
O4 C16 1_555 1_555
O5 La1 1_555 1_555
O6 C24 1_555 1_555
C1 H1 1_555 1_555
C2 C1 1_555 1_555
C3 C2 1_555 1_555
H2 C3 1_555 1_555
C4 C3 1_555 1_555
H3 C4 1_555 1_555
C5 N1 1_555 1_555
H4 C5 1_555 1_555
C6 C2 1_555 1_555
H5 C6 1_555 1_555
C7 C6 1_555 1_555
H6 C7 1_555 1_555
C8 C7 1_555 1_555
C9 H7 1_555 1_555
C10 C9 1_555 1_555
C11 C10 1_555 1_555
H8 C11 1_555 1_555
C12 C11 1_555 1_555
H9 C12 1_555 1_555
C13 N2 1_555 1_555
H10 C13 1_555 1_555
C14 C10 1_555 1_555
H11 C14 1_555 1_555
C15 C14 1_555 1_555
H12 C15 1_555 1_555
C16 O3 1_555 1_555
C17 H13 1_555 1_555
C18 C17 1_555 1_555
C19 C18 1_555 1_555
H14 C19 1_555 1_555
C20 C19 1_555 1_555
H15 C20 1_555 1_555
C21 N3 1_555 1_555
H16 C21 1_555 1_555
C22 C18 1_555 1_555
H17 C22 1_555 1_555
C23 C22 1_555 1_555
H18 C23 1_555 1_555
C24 O5 1_555 1_555
O1B La1 1_555 1_555
O2_2 La1 1_555 1_555
O4B La1 1_555 1_555
O5B La1 1_555 1_555
O6B La1 1_555 1_555
La1B O1 1_555 1_555
La1_2 O2 1_555 1_555
La1B_2 O4 1_555 1_555
La1B_3 O5 1_555 1_555
O6 La1B_3 1_555 1_555
C4 C5 1_555 1_555
C12 C13 1_555 1_555
C15 C16 1_555 1_555
C20 C21 1_555 1_555
C23 C24 1_555 1_555
O5B La1B_3 1_555 1_555

#END
