
#######################################################################
#
#                 Cambridge Crystallographic Data Centre
#                                CCDC 
#
#######################################################################
#
# If this CIF has been generated from an entry in the Cambridge 
# Structural Database, then it will include bibliographic, chemical, 
# crystal, experimental, refinement or atomic coordinate data resulting 
# from the CCDC's data processing and validation procedures.
#
#######################################################################

data_QAKWEF
_symmetry_cell_setting           monoclinic
_symmetry_space_group_name_H-M   'C 2/c'
_symmetry_Int_Tables_number      15
_space_group_name_Hall           '-C 2yn'
loop_
_symmetry_equiv_pos_site_id
_symmetry_equiv_pos_as_xyz
1 x,y,z
2 1/2+x,1/2+y,z
3 x,-y,1/2+z
4 1/2+x,1/2-y,1/2+z
5 -x,-y,-z
6 1/2-x,1/2-y,-z
7 -x,y,1/2-z
8 1/2-x,1/2+y,1/2-z
_cell_length_a                   11.332(2)
_cell_length_b                   7.8259(16)
_cell_length_c                   13.336(3)
_cell_angle_alpha                90
_cell_angle_beta                 101.36(3)
_cell_angle_gamma                90
_cell_volume                     1159.51
loop_
_atom_site_label
_atom_site_type_symbol
_atom_site_fract_x
_atom_site_fract_y
_atom_site_fract_z
Ni1 Ni 0.0000 0.70242(7) 0.2500
N1 N -0.0630(2) 0.9048(3) 0.15719(19)
O1 O -0.0444(2) 1.5062(3) 0.14251(17)
O2 O 0.1328(2) 1.3668(3) 0.17138(18)
O3 O -0.1715(2) 0.6959(4) 0.2884(2)
H1 H -0.170(5) 0.595(8) 0.298(4)
H2 H -0.221(4) 0.729(6) 0.258(4)
C1 C -0.1244(3) 0.8862(4) 0.0614(2)
H3 H -0.1469 0.7769 0.0376
C2 C -0.1555(3) 1.0233(4) -0.0031(2)
H4 H -0.2046 1.0092 -0.0672
C3 C -0.1116(3) 1.1823(4) 0.0301(2)
H5 H -0.1273 1.2758 -0.0136
C4 C -0.0438(3) 1.2037(4) 0.1286(2)
C5 C -0.0284(3) 1.0620(4) 0.1940(2)
C6 C 0.0199(3) 1.3729(4) 0.1505(2)
C5F C 0.0284(3) 1.0620(4) 0.3060(2)
N1F N 0.0630(2) 0.9048(3) 0.34281(19)
C1F C 0.1244(3) 0.8862(4) 0.4386(2)
H3F H 0.1469 0.7769 0.4624
C2F C 0.1555(3) 1.0233(4) 0.5031(2)
H4F H 0.2046 1.0092 0.5672
C3F C 0.1116(3) 1.1823(4) 0.4699(2)
H5F H 0.1273 1.2758 0.5136
C4F C 0.0438(3) 1.2037(4) 0.3714(2)
C6F C -0.0199(3) 1.3729(4) 0.3495(2)
O1F O 0.0444(2) 1.5062(3) 0.35749(17)
O2F O -0.1328(2) 1.3668(3) 0.32862(18)
O3F O 0.1715(2) 0.6959(4) 0.2116(2)
H1F H 0.170(5) 0.595(8) 0.202(4)
H2F H 0.221(4) 0.729(6) 0.242(4)
O1_2 O -0.0444(2) 0.5062(3) 0.14251(17)
O1F_2 O 0.0444(2) 0.5062(3) 0.35749(17)
Ni1_2 Ni 0.0000 1.70242(7) 0.2500
loop_
_geom_bond_atom_site_label_1
_geom_bond_atom_site_label_2
_geom_bond_site_symmetry_1
_geom_bond_site_symmetry_2
Ni1 N1 1_555 1_555
N1 C1 1_555 1_555
O1 C6 1_555 1_555
O2 C6 1_555 1_555
O3 Ni1 1_555 1_555
H1 O3 1_555 1_555
H2 O3 1_555 1_555
C1 H3 1_555 1_555
C2 C1 1_555 1_555
H4 C2 1_555 1_555
C3 C2 1_555 1_555
H5 C3 1_555 1_555
C4 C3 1_555 1_555
C5 N1 1_555 1_555
C6 C4 1_555 1_555
C5F C5 1_555 1_555
N1F Ni1 1_555 1_555
C1F N1F 1_555 1_555
H3F C1F 1_555 1_555
C2F C1F 1_555 1_555
H4F C2F 1_555 1_555
C3F C2F 1_555 1_555
H5F C3F 1_555 1_555
C4F C5F 1_555 1_555
C6F C4F 1_555 1_555
O1F C6F 1_555 1_555
O2F C6F 1_555 1_555
O3F Ni1 1_555 1_555
H1F O3F 1_555 1_555
H2F O3F 1_555 1_555
O1_2 Ni1 1_555 1_555
O1F_2 Ni1 1_555 1_555
Ni1_2 O1 1_555 1_555
C4 C5 1_555 1_555
C5F N1F 1_555 1_555
C3F C4F 1_555 1_555
O1F Ni1_2 1_555 1_555

#END
