
#######################################################################
#
#                 Cambridge Crystallographic Data Centre
#                                CCDC 
#
#######################################################################
#
# If this CIF has been generated from an entry in the Cambridge 
# Structural Database, then it will include bibliographic, chemical, 
# crystal, experimental, refinement or atomic coordinate data resulting 
# from the CCDC's data processing and validation procedures.
#
#######################################################################

data_QAKWUV
_symmetry_cell_setting           monoclinic
_symmetry_space_group_name_H-M   'P 21/n'
_symmetry_Int_Tables_number      14
_space_group_name_Hall           '-P 2yn'
loop_
_symmetry_equiv_pos_site_id
_symmetry_equiv_pos_as_xyz
1 x,y,z
2 1/2+x,1/2-y,1/2+z
3 -x,-y,-z
4 1/2-x,1/2+y,1/2-z
_cell_length_a                   6.9498(7)
_cell_length_b                   19.511(2)
_cell_length_c                   7.2273(8)
_cell_angle_alpha                90
_cell_angle_beta                 116.568(2)
_cell_angle_gamma                90
_cell_volume                     876.52
loop_
_atom_site_label
_atom_site_type_symbol
_atom_site_fract_x
_atom_site_fract_y
_atom_site_fract_z
Mn1 Mn 0.5000 0.0000 0.0000
O1 O 0.1978(2) 0.05281(7) -0.0597(2)
N1 N 0.1953(2) 0.09520(7) 0.0819(2)
N2 N 0.2170(3) 0.26095(9) 0.6757(3)
N3 N 0.6657(3) 0.04940(8) 0.3030(2)
N4 N 0.7277(3) 0.12063(8) 0.6051(2)
N5 N 0.5985(3) 0.08489(9) 0.8547(3)
C1 C 0.2554(3) 0.16108(9) 0.0830(3)
H1 H 0.2943 0.1766 -0.0188
C2 C 0.2599(3) 0.20535(9) 0.2317(3)
H2 H 0.3004 0.2513 0.2314
C3 C 0.2045(3) 0.18216(9) 0.3831(3)
C4 C 0.1427(3) 0.11413(9) 0.3788(3)
H3 H 0.1054 0.0974 0.4804
C5 C 0.1367(3) 0.07176(9) 0.2251(3)
H4 H 0.0914 0.0261 0.2193
C6 C 0.2111(3) 0.22672(9) 0.5444(3)
C7 C 0.6905(3) 0.08149(9) 0.4461(3)
C8 C 0.6570(3) 0.09946(8) 0.7350(3)
O1B O 0.8022(2) -0.05281(7) 0.0597(2)
N1B N 0.8047(2) -0.09520(7) -0.0819(2)
N2B N 0.7830(3) -0.26095(9) -0.6757(3)
C1B C 0.7446(3) -0.16108(9) -0.0830(3)
H1B H 0.7057 -0.1766 0.0188
C2B C 0.7401(3) -0.20535(9) -0.2317(3)
H2B H 0.6996 -0.2513 -0.2314
C3B C 0.7955(3) -0.18216(9) -0.3831(3)
C4B C 0.8573(3) -0.11413(9) -0.3788(3)
H3B H 0.8946 -0.0974 -0.4804
C5B C 0.8633(3) -0.07176(9) -0.2251(3)
H4B H 0.9086 -0.0261 -0.2193
C6B C 0.7889(3) -0.22672(9) -0.5444(3)
N3B N 0.3343(3) -0.04940(8) -0.3030(2)
N4B N 0.2723(3) -0.12063(8) -0.6051(2)
N5B N 0.4015(3) -0.08489(9) -0.8547(3)
C7B C 0.3095(3) -0.08149(9) -0.4461(3)
C8B C 0.3430(3) -0.09946(8) -0.7350(3)
N5_2 N 0.5985(3) 0.08489(9) -0.1453(3)
N5B_2 N 0.4015(3) -0.08489(9) 0.1453(3)
Mn1_2 Mn 0.5000 0.0000 1.0000
Mn1_3 Mn 0.5000 0.0000 -1.0000
loop_
_geom_bond_atom_site_label_1
_geom_bond_atom_site_label_2
_geom_bond_site_symmetry_1
_geom_bond_site_symmetry_2
Mn1 O1 1_555 1_555
O1 N1 1_555 1_555
N1 C1 1_555 1_555
N2 C6 1_555 1_555
N3 Mn1 1_555 1_555
N4 C7 1_555 1_555
N5 C8 1_555 1_555
C1 H1 1_555 1_555
C2 C1 1_555 1_555
H2 C2 1_555 1_555
C3 C2 1_555 1_555
C4 C3 1_555 1_555
H3 C4 1_555 1_555
C5 N1 1_555 1_555
H4 C5 1_555 1_555
C6 C3 1_555 1_555
C7 N3 1_555 1_555
C8 N4 1_555 1_555
O1B Mn1 1_555 1_555
N1B O1B 1_555 1_555
N2B C6B 1_555 1_555
C1B N1B 1_555 1_555
H1B C1B 1_555 1_555
C2B C1B 1_555 1_555
H2B C2B 1_555 1_555
C3B C2B 1_555 1_555
C4B C3B 1_555 1_555
H3B C4B 1_555 1_555
C5B N1B 1_555 1_555
H4B C5B 1_555 1_555
C6B C3B 1_555 1_555
N3B Mn1 1_555 1_555
N4B C7B 1_555 1_555
N5B C8B 1_555 1_555
C7B N3B 1_555 1_555
C8B N4B 1_555 1_555
N5_2 Mn1 1_555 1_555
N5B_2 Mn1 1_555 1_555
Mn1_2 N5 1_555 1_555
Mn1_3 N5B 1_555 1_555
C4 C5 1_555 1_555
C4B C5B 1_555 1_555

#END
