
#######################################################################
#
#                 Cambridge Crystallographic Data Centre
#                                CCDC 
#
#######################################################################
#
# If this CIF has been generated from an entry in the Cambridge 
# Structural Database, then it will include bibliographic, chemical, 
# crystal, experimental, refinement or atomic coordinate data resulting 
# from the CCDC's data processing and validation procedures.
#
#######################################################################

data_QAKZIM
_symmetry_cell_setting           orthorhombic
_symmetry_space_group_name_H-M   'P b c a'
_symmetry_Int_Tables_number      61
_space_group_name_Hall           '-P 2ac 2ab'
loop_
_symmetry_equiv_pos_site_id
_symmetry_equiv_pos_as_xyz
1 x,y,z
2 1/2+x,y,1/2-z
3 x,1/2-y,1/2+z
4 1/2-x,1/2+y,z
5 -x,-y,-z
6 1/2-x,-y,1/2+z
7 -x,1/2+y,1/2-z
8 1/2+x,1/2-y,-z
_cell_length_a                   15.8816(4)
_cell_length_b                   6.7993(2)
_cell_length_c                   18.8505(5)
_cell_angle_alpha                90
_cell_angle_beta                 90
_cell_angle_gamma                90
_cell_volume                     2035.55
loop_
_atom_site_label
_atom_site_type_symbol
_atom_site_fract_x
_atom_site_fract_y
_atom_site_fract_z
Sr1 Sr 0.468988(18) 0.76008(4) 0.461487(16)
Cu1 Cu 0.36595(3) 0.60744(6) 0.30565(2)
C1 C 0.3347(2) 0.4710(5) 0.5627(2)
H1 H 0.326(2) 0.368(5) 0.6004(19)
O1 O 0.40965(14) 0.4919(3) 0.54253(13)
O2 O 0.27221(14) 0.5616(3) 0.53967(15)
C2 C 0.40768(19) 0.2526(5) 0.38393(17)
H2 H 0.374(2) 0.185(5) 0.3474(19)
O3 O 0.41376(14) 0.4382(3) 0.38096(12)
O4 O 0.43946(14) 0.1453(3) 0.42973(12)
C3 C 0.2340(2) 0.4018(5) 0.23998(19)
H3 H 0.255(2) 0.469(5) 0.1955(18)
O5 O 0.26550(14) 0.4447(3) 0.29908(12)
O6 O 0.17487(14) 0.2832(3) 0.23005(13)
C4 C 0.5035(2) 0.8669(5) 0.27820(19)
H4 H 0.482(2) 0.859(5) 0.232(2)
O7 O 0.46244(14) 0.7774(3) 0.32655(12)
O8 O 0.56892(15) 0.9593(3) 0.28786(12)
O9 O 0.39805(17) 0.9899(4) 0.56229(13)
H5 H 0.399(2) 0.962(6) 0.600(2)
H6 H 0.289(2) 0.710(5) 0.458(2)
O10 O 0.31242(15) 0.7629(4) 0.42177(14)
H7 H 0.346(3) 1.010(6) 0.557(2)
H8 H 0.285(2) 0.836(6) 0.409(2)
O1D O 0.59035(14) 0.5081(3) 0.45747(13)
O4_2 O 0.43946(14) 1.1453(3) 0.42973(12)
O4D O 0.56054(14) 0.8547(3) 0.57027(12)
O9D O 0.60195(17) 1.0101(4) 0.43771(13)
O6C O 0.32513(14) 0.7832(3) 0.23005(13)
O8F O 0.43108(15) 0.4593(3) 0.21214(12)
Sr1D Sr 0.531012(18) 0.23992(4) 0.538513(16)
Sr1_2 Sr 0.468988(18) -0.23992(4) 0.461487(16)
Cu1C Cu 0.13405(3) 0.10744(6) 0.30565(2)
Cu1F Cu 0.63405(3) 1.10744(6) 0.19435(2)
Sr1D_2 Sr 0.531012(18) 1.23992(4) 0.538513(16)
H5D H 0.601(2) 1.038(6) 0.400(2)
H7D H 0.654(3) 0.990(6) 0.443(2)
loop_
_geom_bond_atom_site_label_1
_geom_bond_atom_site_label_2
_geom_bond_site_symmetry_1
_geom_bond_site_symmetry_2
Sr1 O1 1_555 1_555
Cu1 O3 1_555 1_555
C1 H1 1_555 1_555
O1 C1 1_555 1_555
O2 C1 1_555 1_555
C2 H2 1_555 1_555
O3 Sr1 1_555 1_555
O4 C2 1_555 1_555
C3 H3 1_555 1_555
O5 Cu1 1_555 1_555
O6 C3 1_555 1_555
C4 H4 1_555 1_555
O7 Sr1 1_555 1_555
O8 C4 1_555 1_555
O9 Sr1 1_555 1_555
H5 O9 1_555 1_555
H6 O10 1_555 1_555
O10 Sr1 1_555 1_555
H7 O9 1_555 1_555
H8 O10 1_555 1_555
O1D Sr1 1_555 1_555
O4_2 Sr1 1_555 1_555
O4D Sr1 1_555 1_555
O9D Sr1 1_555 1_555
O6C Cu1 1_555 1_555
O8F Cu1 1_555 1_555
Sr1D O1 1_555 1_555
Sr1_2 O4 1_555 1_555
Cu1C O6 1_555 1_555
Cu1F O8 1_555 1_555
Sr1D_2 O9 1_555 1_555
H5D O9D 1_555 1_555
H7D O9D 1_555 1_555
Cu1 O7 1_555 1_555
Cu1 O10 1_555 1_555
C2 O3 1_555 1_555
O4 Sr1D 1_555 1_555
C3 O5 1_555 1_555
C4 O7 1_555 1_555
O1D Sr1D 1_555 1_555
O4_2 Sr1D_2 1_555 1_555
O4D Sr1D_2 1_555 1_555
O9D Sr1D_2 1_555 1_555

#END
