
#######################################################################
#
#                 Cambridge Crystallographic Data Centre
#                                CCDC 
#
#######################################################################
#
# If this CIF has been generated from an entry in the Cambridge 
# Structural Database, then it will include bibliographic, chemical, 
# crystal, experimental, refinement or atomic coordinate data resulting 
# from the CCDC's data processing and validation procedures.
#
#######################################################################

data_QAKZOS
_symmetry_cell_setting           triclinic
_symmetry_space_group_name_H-M   'P -1'
_symmetry_Int_Tables_number      2
_space_group_name_Hall           '-P 1'
loop_
_symmetry_equiv_pos_site_id
_symmetry_equiv_pos_as_xyz
1 x,y,z
2 -x,-y,-z
_cell_length_a                   9.007(5)
_cell_length_b                   10.557(5)
_cell_length_c                   11.554(5)
_cell_angle_alpha                114.343(5)
_cell_angle_beta                 92.942(5)
_cell_angle_gamma                114.516(5)
_cell_volume                     877.34
loop_
_atom_site_label
_atom_site_type_symbol
_atom_site_fract_x
_atom_site_fract_y
_atom_site_fract_z
Cu1 Cu 0.53682(2) 0.12797(2) 0.299816(16)
O1 O 0.70664(14) 0.20575(13) 0.20432(10)
O2 O 0.33514(14) -0.10161(12) 0.23560(9)
O3 O 0.38301(15) -0.15047(14) 0.04022(11)
O4 O 0.69373(14) 0.09258(15) 0.38542(11)
O5 O 0.81184(18) 0.01722(18) 0.22231(11)
N1 N 0.48957(15) 0.23971(14) 0.47980(11)
N2 N 0.38158(16) 0.19512(15) 0.24057(12)
C1 C 0.3258(2) 0.1665(2) 0.11892(15)
H1 H 0.3660 0.1155 0.0521
C2 C 0.2087(2) 0.2104(2) 0.08782(17)
H2 H 0.1715 0.1878 0.0016
C3 C 0.1496(2) 0.2864(2) 0.18476(18)
H3 H 0.0719 0.3162 0.1651
C4 C 0.2072(2) 0.31993(19) 0.31557(16)
C5 C 0.1529(2) 0.3987(2) 0.42461(18)
H4 H 0.0772 0.4333 0.4111
C6 C 0.2096(2) 0.4237(2) 0.54654(18)
H5 H 0.1732 0.4760 0.6157
C7 C 0.3250(2) 0.37085(18) 0.57119(15)
C8 C 0.3844(2) 0.3866(2) 0.69460(16)
H6 H 0.3513 0.4366 0.7674
C9 C 0.4903(2) 0.3283(2) 0.70640(15)
H7 H 0.5288 0.3373 0.7871
C10 C 0.5411(2) 0.25477(19) 0.59679(14)
H8 H 0.6133 0.2152 0.6062
C11 C 0.38229(17) 0.29588(16) 0.46732(13)
C12 C 0.32269(17) 0.27030(16) 0.33766(14)
C13 C 0.29947(17) -0.18939(16) 0.11378(13)
C14 C 0.14447(17) -0.35070(16) 0.05525(13)
C15 C 0.1030(2) -0.45971(18) -0.07689(14)
H9 H 0.1719 -0.4334 -0.1294
C16 C 0.0401(2) -0.39266(18) 0.13149(14)
H10 H 0.0660 -0.3212 0.2201
C17 C 0.79386(18) 0.04293(17) 0.33411(13)
C18 C 0.89892(16) 0.01919(16) 0.42000(13)
C19 C 0.88449(17) 0.04933(17) 0.54678(13)
H11 H 0.8069 0.0823 0.5782
C20 C 1.01532(18) -0.03056(17) 0.37342(13)
H12 H 1.0256 -0.0511 0.2887
H13 H 0.7417 0.1546 0.2054
H14 H 0.6629 0.1835 0.1293
C16A C -0.0401(2) -0.60734(18) -0.13149(14)
C14A C -0.14447(17) -0.64930(16) -0.05525(13)
C13A C -0.29947(17) -0.81061(16) -0.11378(13)
O2A O -0.33514(14) -0.89839(12) -0.23560(9)
O3A O -0.38301(15) -0.84953(14) -0.04022(11)
C15A C -0.1030(2) -0.54029(18) 0.07689(14)
H9A H -0.1719 -0.5666 0.1294
H10A H -0.0660 -0.6788 -0.2201
C20A C 0.98468(18) 0.03056(17) 0.62658(13)
C18A C 1.10108(16) -0.01919(16) 0.58000(13)
C17A C 1.20614(18) -0.04293(17) 0.66589(13)
O4A O 1.30627(14) -0.09258(15) 0.61458(11)
O5A O 1.18816(18) -0.01722(18) 0.77769(11)
C19A C 1.11551(17) -0.04933(17) 0.45322(13)
H11A H 1.1931 -0.0823 0.4218
H12A H 0.9744 0.0511 0.7113
Cu1A Cu -0.53682(2) -1.12797(2) -0.299816(16)
O1A O -0.70664(14) -1.20575(13) -0.20432(10)
H13A H -0.7417 -1.1546 -0.2054
H14A H -0.6629 -1.1835 -0.1293
N1A N -0.48957(15) -1.23971(14) -0.47980(11)
N2A N -0.38158(16) -1.19512(15) -0.24057(12)
C1A C -0.3258(2) -1.1665(2) -0.11892(15)
H1A H -0.3660 -1.1155 -0.0521
C2A C -0.2087(2) -1.2104(2) -0.08782(17)
H2A H -0.1715 -1.1878 -0.0016
C3A C -0.1496(2) -1.2864(2) -0.18476(18)
H3A H -0.0719 -1.3162 -0.1651
C4A C -0.2072(2) -1.31993(19) -0.31557(16)
C5A C -0.1529(2) -1.3987(2) -0.42461(18)
H4A H -0.0772 -1.4333 -0.4111
C6A C -0.2096(2) -1.4237(2) -0.54654(18)
H5A H -0.1732 -1.4760 -0.6157
C7A C -0.3250(2) -1.37085(18) -0.57119(15)
C8A C -0.3844(2) -1.3866(2) -0.69460(16)
H6A H -0.3513 -1.4366 -0.7674
C9A C -0.4903(2) -1.3283(2) -0.70640(15)
H7A H -0.5288 -1.3373 -0.7871
C10A C -0.5411(2) -1.25477(19) -0.59679(14)
H8A H -0.6133 -1.2152 -0.6062
C11A C -0.38229(17) -1.29588(16) -0.46732(13)
C12A C -0.32269(17) -1.27030(16) -0.33766(14)
Cu1A_2 Cu 1.46318(2) -0.12797(2) 0.700184(16)
O4A_2 O -0.69373(14) -1.09258(15) -0.38542(11)
loop_
_geom_bond_atom_site_label_1
_geom_bond_atom_site_label_2
_geom_bond_site_symmetry_1
_geom_bond_site_symmetry_2
Cu1 O1 1_555 1_555
O1 H13 1_555 1_555
O2 Cu1 1_555 1_555
O3 C13 1_555 1_555
O4 Cu1 1_555 1_555
O5 C17 1_555 1_555
N1 Cu1 1_555 1_555
N2 Cu1 1_555 1_555
C1 N2 1_555 1_555
H1 C1 1_555 1_555
C2 C1 1_555 1_555
H2 C2 1_555 1_555
C3 C2 1_555 1_555
H3 C3 1_555 1_555
C4 C3 1_555 1_555
C5 C4 1_555 1_555
H4 C5 1_555 1_555
C6 C5 1_555 1_555
H5 C6 1_555 1_555
C7 C6 1_555 1_555
C8 C7 1_555 1_555
H6 C8 1_555 1_555
C9 C8 1_555 1_555
H7 C9 1_555 1_555
C10 N1 1_555 1_555
H8 C10 1_555 1_555
C11 N1 1_555 1_555
C12 N2 1_555 1_555
C13 O2 1_555 1_555
C14 C13 1_555 1_555
C15 C14 1_555 1_555
H9 C15 1_555 1_555
C16 C14 1_555 1_555
H10 C16 1_555 1_555
C17 O4 1_555 1_555
C18 C17 1_555 1_555
C19 C18 1_555 1_555
H11 C19 1_555 1_555
C20 C18 1_555 1_555
H12 C20 1_555 1_555
H14 O1 1_555 1_555
C16A C15 1_555 1_555
C14A C16A 1_555 1_555
C13A C14A 1_555 1_555
O2A C13A 1_555 1_555
O3A C13A 1_555 1_555
C15A C16 1_555 1_555
H9A C15A 1_555 1_555
H10A C16A 1_555 1_555
C20A C19 1_555 1_555
C18A C20A 1_555 1_555
C17A C18A 1_555 1_555
O4A C17A 1_555 1_555
O5A C17A 1_555 1_555
C19A C20 1_555 1_555
H11A C19A 1_555 1_555
H12A C20A 1_555 1_555
Cu1A O2A 1_555 1_555
O1A Cu1A 1_555 1_555
H13A O1A 1_555 1_555
H14A O1A 1_555 1_555
N1A Cu1A 1_555 1_555
N2A Cu1A 1_555 1_555
C1A N2A 1_555 1_555
H1A C1A 1_555 1_555
C2A C1A 1_555 1_555
H2A C2A 1_555 1_555
C3A C2A 1_555 1_555
H3A C3A 1_555 1_555
C4A C3A 1_555 1_555
C5A C4A 1_555 1_555
H4A C5A 1_555 1_555
C6A C5A 1_555 1_555
H5A C6A 1_555 1_555
C7A C6A 1_555 1_555
C8A C7A 1_555 1_555
H6A C8A 1_555 1_555
C9A C8A 1_555 1_555
H7A C9A 1_555 1_555
C10A N1A 1_555 1_555
H8A C10A 1_555 1_555
C11A N1A 1_555 1_555
C12A N2A 1_555 1_555
Cu1A_2 O4A 1_555 1_555
O4A_2 Cu1A 1_555 1_555
C4 C12 1_555 1_555
C7 C11 1_555 1_555
C9 C10 1_555 1_555
C11 C12 1_555 1_555
C14A C15A 1_555 1_555
C18A C19A 1_555 1_555
C4A C12A 1_555 1_555
C7A C11A 1_555 1_555
C9A C10A 1_555 1_555
C11A C12A 1_555 1_555

#END
