
#######################################################################
#
#                 Cambridge Crystallographic Data Centre
#                                CCDC 
#
#######################################################################
#
# If this CIF has been generated from an entry in the Cambridge 
# Structural Database, then it will include bibliographic, chemical, 
# crystal, experimental, refinement or atomic coordinate data resulting 
# from the CCDC's data processing and validation procedures.
#
#######################################################################

data_QALGUH
_symmetry_cell_setting           orthorhombic
_symmetry_space_group_name_H-M   'I m c m'
_symmetry_Int_Tables_number      74
_space_group_name_Hall           '-I 2 2a'
loop_
_symmetry_equiv_pos_site_id
_symmetry_equiv_pos_as_xyz
1 x,y,z
2 1/2-x,1/2-y,1/2+z
3 x,1/2-y,1/2-z
4 1/2+x,1/2+y,1/2+z
5 -x,-y,z
6 1/2+x,-y,-z
7 1/2-x,y,-z
8 -x,1/2+y,1/2-z
9 -x,-y,-z
10 1/2+x,1/2+y,1/2-z
11 -x,1/2+y,1/2+z
12 1/2-x,1/2-y,1/2-z
13 x,y,-z
14 1/2-x,y,z
15 1/2+x,-y,z
16 x,1/2-y,1/2+z
_cell_length_a                   14.8731(3)
_cell_length_b                   15.2449(3)
_cell_length_c                   6.8365(1)
_cell_angle_alpha                90
_cell_angle_beta                 90
_cell_angle_gamma                90
_cell_volume                     1550.1
loop_
_atom_site_label
_atom_site_type_symbol
_atom_site_fract_x
_atom_site_fract_y
_atom_site_fract_z
Cr1 Cr 0.7500 0.2500 0.2500
O1 O 0.7500 0.1985(4) 0.0000
O2 O 0.6570 0.3321 0.1582
C1 C 0.5621 0.4336 0.0000
C2 C 0.5310 0.4668 0.1735
C3 C 0.6287 0.3623 0.0000
H1 H 0.5532 0.4430 0.2977
Cr1A Cr 0.7500 0.2500 -0.2500
Cr1D Cr 0.2500 0.7500 0.2500
Cr1C Cr 0.2500 0.7500 -0.2500
O1A O 0.7500 0.3015(4) 0.5000
O2L O 0.6570 0.3321 -0.1582
O2D O 0.3430 0.6679 0.1582
O2H O 0.3430 0.6679 -0.1582
O2B O 0.6570 0.1679 0.3418
O2K O 0.8430 0.1679 0.3418
O2M O 0.8430 0.3321 0.1582
C1D C 0.4379 0.5664 0.0000
C2D C 0.4690 0.5332 0.1735
C2H C 0.4690 0.5332 -0.1735
C2L C 0.5310 0.4668 -0.1735
C3D C 0.3713 0.6377 0.0000
H1L H 0.5532 0.4430 -0.2977
H1H H 0.4468 0.5570 -0.2977
H1D H 0.4468 0.5570 0.2977
O3 O 0.7500 0.5028(3) 0.5000
O4 O 0.7500 0.8865(3) 0.6958(5)
O5 O 0.6298(3) 0.7500 0.7500
O6 O 0.0021(3) 0.2098(5) 0.0000
loop_
_geom_bond_atom_site_label_1
_geom_bond_atom_site_label_2
_geom_bond_site_symmetry_1
_geom_bond_site_symmetry_2
Cr1 O1 1_555 1_555
O1 Cr1A 1_555 1_555
O2 Cr1 1_555 1_555
C1 C2 1_555 1_555
C2 H1 1_555 1_555
C3 O2 1_555 1_555
Cr1A O2L 1_555 1_555
Cr1D O2D 1_555 1_555
Cr1C O2H 1_555 1_555
O1A Cr1 1_555 1_555
O2L C3 1_555 1_555
O2D C3D 1_555 1_555
O2H C3D 1_555 1_555
O2B Cr1 1_555 1_555
O2K Cr1 1_555 1_555
O2M Cr1 1_555 1_555
C1D C2D 1_555 1_555
C2D C2 1_555 1_555
C2H C1D 1_555 1_555
C2L C1 1_555 1_555
C3D C1D 1_555 1_555
H1L C2L 1_555 1_555
H1H C2H 1_555 1_555
H1D C2D 1_555 1_555
C1 C3 1_555 1_555
C2H C2L 1_555 1_555

#END
