
#######################################################################
#
#                 Cambridge Crystallographic Data Centre
#                                CCDC 
#
#######################################################################
#
# If this CIF has been generated from an entry in the Cambridge 
# Structural Database, then it will include bibliographic, chemical, 
# crystal, experimental, refinement or atomic coordinate data resulting 
# from the CCDC's data processing and validation procedures.
#
#######################################################################

data_QALMIZ
_symmetry_cell_setting           triclinic
_symmetry_space_group_name_H-M   'P -1'
_symmetry_Int_Tables_number      2
_space_group_name_Hall           '-P 1'
loop_
_symmetry_equiv_pos_site_id
_symmetry_equiv_pos_as_xyz
1 x,y,z
2 -x,-y,-z
_cell_length_a                   13.8992(2)
_cell_length_b                   17.0191(5)
_cell_length_c                   26.6441(7)
_cell_angle_alpha                75.268(5)
_cell_angle_beta                 88.328(5)
_cell_angle_gamma                68.768(5)
_cell_volume                     5667.91
loop_
_atom_site_label
_atom_site_type_symbol
_atom_site_fract_x
_atom_site_fract_y
_atom_site_fract_z
Rh4 Rh 1.03548(4) 0.01371(4) 0.94577(2)
Rh5 Rh 1.21658(4) 0.00211(4) 1.04448(2)
O13 O 1.1103(5) -0.0638(4) 0.8982(2)
O14 O 1.0366(4) 0.1167(4) 0.8871(2)
O15 O 0.9722(4) 0.0840(3) 0.9964(2)
O16 O 1.1768(3) -0.0064(3) 0.9748(2)
O17 O 1.1159(4) 0.1286(3) 1.0296(2)
O18 O 1.2692(4) 0.0102(4) 1.1134(2)
O19 O 1.3190(4) -0.1227(4) 1.0597(2)
O20 O 1.3271(4) 0.0423(3) 1.0071(2)
O21 O 0.8914(4) 0.0365(4) 0.9177(2)
O15A O 1.0278(4) -0.0840(3) 1.0036(2)
O21A O 1.1086(4) -0.0365(4) 1.0823(2)
Rh4A Rh 0.96452(4) -0.01371(4) 1.05423(2)
Rh5A Rh 0.78342(4) -0.00211(4) 0.95552(2)
Cl1 Cl 0.11996(19) 0.45140(19) 0.07308(9)
Na2 Na -0.0555(2) 0.3658(2) 0.03557(13)
O30 O -0.2350(4) 0.8062(4) 0.0633(2)
O31 O -0.2614(5) 0.7801(4) 0.1556(2)
O32 O -0.4071(4) 0.8332(3) 0.0925(2)
O33 O -0.2461(6) 0.2385(7) 0.0445(3)
O34 O -0.1383(5) 0.3077(5) -0.0096(4)
O35 O -0.2072(4) 0.2178(3) -0.0382(2)
O36 O -0.5875(11) 0.5525(12) 0.3340(8)
O37 O -0.6964(13) 0.4583(7) 0.3476(5)
O38 O -0.7348(9) 0.5882(7) 0.2809(4)
O39 O -0.0557(9) 0.3540(7) 0.4080(4)
O40 O -0.0603(13) 0.4871(8) 0.3563(4)
O41 O -0.2082(9) 0.4735(15) 0.3949(7)
O42 O -0.2057(4) 0.4253(3) 0.0882(2)
O43 O -0.4005(4) 0.4201(4) 0.0955(3)
O44 O -0.3953(5) 0.2955(4) 0.1829(3)
O45 O -0.2293(5) 0.3432(4) 0.1913(2)
O46 O 0.1087(9) 0.1449(9) 0.1260(5)
O48 O -0.0493(8) 0.2740(6) 0.1135(4)
O50 O -0.0492(10) 0.1344(8) 0.1662(5)
O52 O 0.5198(12) 0.1756(11) 0.1157(6)
O53 O 0.6524(6) 0.0639(8) 0.1808(5)
O54 O 0.5033(5) 0.0360(5) 0.1647(3)
O55 O 0.6569(11) -0.2673(8) 0.4734(9)
O56 O 0.7700(7) -0.2038(7) 0.4843(4)
O57 O 0.7427(15) -0.2170(11) 0.4044(5)
O58 O 0.1131(8) -0.2100(6) 0.4427(4)
O59 O 0.0857(7) -0.1552(5) 0.3525(4)
O60 O 0.2529(6) -0.2319(5) 0.3904(3)
O61 O 0.1464(4) 0.2633(4) 0.3281(2)
O62 O 0.3436(5) 0.2667(4) 0.3307(2)
O63 O 0.3642(4) 0.1380(4) 0.4169(3)
O64 O 0.1627(4) 0.1523(4) 0.4218(2)
O65 O 0.0219(5) 0.4438(5) 0.0715(3)
O66 O 0.1440(5) 0.4917(5) 0.0244(3)
O67 O 0.2025(6) 0.3623(5) 0.0885(4)
O68 O 0.1322(6) 0.4858(6) 0.1139(3)
O69 O 0.0874(7) 0.3376(6) -0.0170(4)
S1 S -0.29854(16) 0.78119(13) 0.10505(9)
S2 S -0.22415(16) 0.27822(16) -0.00722(10)
S3 S -0.6706(3) 0.5116(3) 0.31045(19)
S4 S -0.1134(3) 0.4315(3) 0.37262(14)
S5 S 0.00549(16) 0.18897(14) 0.14618(9)
S6 S 0.5527(2) 0.0895(3) 0.17281(18)
S7 S 0.6998(3) -0.2040(2) 0.44893(17)
S8 S 0.1522(2) -0.17643(17) 0.39606(11)
C13 C -0.2337(6) 0.5057(5) 0.0969(3)
C14 C -0.1804(6) 0.5188(5) 0.1353(3)
C15 C -0.2057(6) 0.6040(5) 0.1396(3)
H25 H -0.1715 0.6147 0.1651
C16 C -0.2810(5) 0.6717(5) 0.1061(3)
C17 C -0.3355(6) 0.6590(5) 0.0682(3)
H26 H -0.3863 0.7062 0.0460
C18 C -0.3135(6) 0.5763(6) 0.0638(3)
C19 C -0.3740(6) 0.5610(6) 0.0221(3)
H27 H -0.3342 0.5058 0.0146
H28 H -0.3847 0.6071 -0.0098
C20 C -0.4867(6) 0.4901(5) 0.0776(4)
C21 C -0.4778(6) 0.5599(5) 0.0406(3)
C22 C -0.5675(6) 0.6306(6) 0.0187(4)
H29 H -0.5631 0.6777 -0.0068
C23 C -0.3364(6) 0.3691(5) -0.0349(4)
C24 C -0.3289(7) 0.4374(6) -0.0715(4)
H30 H -0.2634 0.4359 -0.0809
C25 C -0.5831(7) 0.4877(6) 0.0967(4)
C26 C -0.5935(8) 0.4144(6) 0.1368(5)
H31 H -0.5551 0.3606 0.1274
H32 H -0.6658 0.4210 0.1368
C27 C -0.4586(7) 0.3485(6) 0.2131(4)
C28 C -0.5572(7) 0.4064(6) 0.1898(5)
C29 C -0.6205(8) 0.4560(7) 0.2215(6)
H33 H -0.6873 0.4941 0.2090
C30 C -0.5842(9) 0.4487(7) 0.2720(5)
C31 C -0.4921(8) 0.3960(7) 0.2900(5)
H34 H -0.4704 0.3922 0.3235
C32 C -0.4228(7) 0.3438(6) 0.2614(4)
C33 C -0.3119(7) 0.2906(6) 0.2835(4)
H35 H -0.2823 0.2453 0.2656
H36 H -0.3133 0.2620 0.3199
C34 C -0.2024(6) 0.3675(5) 0.2329(3)
C35 C -0.2417(7) 0.3412(6) 0.2799(4)
C36 C -0.2148(7) 0.3624(6) 0.3207(4)
H37 H -0.2399 0.3452 0.3527
C37 C -0.1377(6) 0.4142(5) 0.2262(3)
C38 C -0.1501(8) 0.4097(6) 0.3168(4)
C39 C -0.1114(7) 0.4351(6) 0.2695(4)
H38 H -0.0677 0.4662 0.2668
C40 C -0.0989(6) 0.4445(5) 0.1732(3)
H39 H -0.0720 0.3953 0.1580
H40 H -0.0421 0.4626 0.1784
C41 C 0.1168(5) 0.2425(5) 0.2869(3)
C42 C 0.1522(6) 0.2680(5) 0.2391(3)
C43 C 0.1193(6) 0.2482(5) 0.1963(3)
H41 H 0.1433 0.2643 0.1638
C44 C 0.0521(6) 0.2052(5) 0.2023(3)
C45 C 0.0158(6) 0.1799(5) 0.2494(3)
H42 H -0.0305 0.1511 0.2525
C46 C 0.0488(6) 0.1976(5) 0.2933(3)
C47 C 0.0116(6) 0.1670(6) 0.3471(3)
H43 H -0.0546 0.1617 0.3427
H44 H 0.0018 0.2105 0.3662
C48 C 0.1637(7) 0.0762(6) 0.4137(3)
C49 C 0.0887(6) 0.0794(5) 0.3783(3)
C50 C 0.0885(6) 0.0015(6) 0.3733(3)
H45 H 0.0381 0.0023 0.3508
C51 C 0.1593(7) -0.0782(6) 0.3999(3)
C52 C 0.2327(7) -0.0796(6) 0.4334(4)
H46 H 0.2799 -0.1332 0.4521
C53 C 0.2393(7) -0.0039(6) 0.4405(3)
C54 C 0.3237(8) -0.0071(7) 0.4781(4)
H47 H 0.2996 0.0457 0.4901
H48 H 0.3354 -0.0564 0.5083
C55 C 0.4378(7) 0.0579(6) 0.4214(4)
C56 C 0.4246(7) -0.0153(7) 0.4532(4)
C57 C 0.5037(8) -0.0977(7) 0.4609(4)
H49 H 0.4951 -0.1476 0.4812
C58 C 0.5922(9) -0.1023(7) 0.4380(5)
C59 C 0.6103(8) -0.0274(7) 0.4041(4)
H50 H 0.6724 -0.0328 0.3886
C60 C 0.5300(7) 0.0515(7) 0.3967(4)
C61 C 0.5428(7) 0.1334(6) 0.3619(4)
H51 H 0.5135 0.1814 0.3779
H52 H 0.6159 0.1228 0.3590
C62 C 0.3931(6) 0.2221(6) 0.2953(3)
C63 C 0.4904(6) 0.1589(6) 0.3079(4)
C64 C 0.5380(7) 0.1194(7) 0.2700(4)
H53 H 0.6054 0.0791 0.2772
C65 C 0.4914(7) 0.1366(8) 0.2230(5)
C66 C 0.3905(7) 0.2035(7) 0.2101(4)
H54 H 0.3583 0.2184 0.1771
C67 C 0.3420(6) 0.2452(6) 0.2463(3)
C68 C 0.2332(6) 0.3112(5) 0.2319(4)
H55 H 0.2283 0.3441 0.1959
H56 H 0.2184 0.3519 0.2534
O66A O -0.1440(5) 0.5083(5) -0.0244(3)
Na2A Na 0.0555(2) 0.6342(2) -0.03557(13)
C23A C -0.6636(6) 0.6309(5) 0.0349(4)
C22A C -0.4325(6) 0.3694(6) -0.0187(4)
C25A C -0.4169(7) 0.5123(6) -0.0967(4)
C24A C -0.6711(7) 0.5626(6) 0.0715(4)
Na1 Na 0.5870(3) 0.2071(2) 0.76303(15)
O22 O 0.5532(4) 0.1098(4) 0.8363(2)
O23 O 0.6236(7) 0.2867(6) 0.6868(3)
O24 O 0.7450(8) 0.0681(10) 0.7476(8)
O25 O 0.8155(8) 0.1455(7) 0.8126(5)
O26 O 0.6402(7) 0.2817(8) 0.8233(6)
O27 O 0.4472(6) 0.3387(5) 0.7859(3)
O28 O 0.3973(6) 0.2682(7) 0.7102(3)
O29 O 0.5478(7) 0.0953(6) 0.7253(4)
C1 C 0.8268(9) 0.0565(9) 0.7567(6)
H1 H 0.8574 0.0553 0.7236
H2 H 0.8542 -0.0035 0.7777
C2 C 0.8744(11) 0.0964(11) 0.7782(6)
H3 H 0.8946 0.1356 0.7506
H4 H 0.9372 0.0526 0.7974
C3 C 0.8101(10) 0.2296(8) 0.8078(6)
H5 H 0.8048 0.2580 0.7709
H6 H 0.8756 0.2258 0.8220
C4 C 0.7336(9) 0.2830(8) 0.8299(5)
H7 H 0.7519 0.2672 0.8669
H8 H 0.7305 0.3424 0.8158
C5 C 0.5621(9) 0.3253(8) 0.8486(6)
H9 H 0.5867 0.3559 0.8682
H10 H 0.5388 0.2840 0.8730
C6 C 0.4803(9) 0.3845(7) 0.8142(5)
H11 H 0.5020 0.4279 0.7908
H12 H 0.4241 0.4143 0.8332
C7 C 0.3718(9) 0.3926(9) 0.7445(5)
H13 H 0.4041 0.4187 0.7157
H14 H 0.3198 0.4392 0.7560
C8 C 0.3239(8) 0.3395(9) 0.7280(5)
H15 H 0.2897 0.3157 0.7569
H16 H 0.2714 0.3764 0.7001
C9 C 0.3726(10) 0.1975(10) 0.7125(6)
H17 H 0.3078 0.2173 0.6920
H18 H 0.3597 0.1751 0.7483
C10 C 0.4473(12) 0.1231(12) 0.6952(6)
H19 H 0.4227 0.0752 0.7016
H20 H 0.4554 0.1410 0.6582
C11 C 0.6304(10) 0.0402(9) 0.7053(7)
H21 H 0.6094 -0.0017 0.6943
H22 H 0.6519 0.0740 0.6751
C12 C 0.7088(10) -0.0015(10) 0.7411(8)
H23 H 0.7634 -0.0463 0.7294
H24 H 0.6862 -0.0284 0.7735
O70 O 1.0053(7) 0.2627(5) 0.9120(3)
O71 O 0.0959(18) 0.6702(12) 0.3432(9)
O72 O 0.0643(11) 0.6171(9) 0.2683(6)
O73 O 0.0578(10) 0.5972(8) 0.1826(6)
O74 O 0.2957(7) 0.1718(7) 0.0859(5)
O75 O 0.4913(5) 0.0169(4) 0.0642(3)
O76 O 1.8493(19) -0.3411(12) 0.5721(9)
O77 O 1.9113(12) -0.0974(12) 0.4613(8)
O78 O 1.8108(10) 0.0833(16) 0.4072(9)
O79 O 0.5950(11) 0.6918(8) 0.5789(5)
O80 O 0.2469(19) 0.8008(13) 0.5656(7)
O81 O 0.7198(19) 0.1337(15) 1.0794(8)
O82 O -0.081(2) 0.7770(18) 0.2580(11)
O83 O 0.1962(9) 0.0993(8) 0.8270(4)
O87 O 0.2371(9) 0.0573(9) 0.8725(6)
O84 O 1.4650(12) -0.1500(10) 0.9977(6)
O85 O 0.1632(13) 0.9552(10) 0.6879(11)
O86 O 0.2319(7) 0.8483(7) 0.7944(4)
O91 O 2.062(2) -0.1760(18) 0.5303(11)
Rh1 Rh 1.5327(2) -0.40293(17) 0.45799(14)
Rh2 Rh 1.6896(2) -0.54105(16) 0.50395(10)
Rh3 Rh 1.43258(17) -0.40726(13) 0.52060(9)
O1 O 1.5490(19) -0.3385(17) 0.3903(7)
O2 O 1.505(2) -0.3068(16) 0.468(4)
O3 O 1.5809(19) -0.5045(10) 0.4300(6)
O4 O 1.5550(14) -0.5080(12) 0.5167(8)
O5 O 1.3841(15) -0.3766(12) 0.4639(8)
O6 O 1.7528(14) -0.6383(8) 0.4817(5)
O7 O 1.7637(16) -0.4566(12) 0.4679(7)
O8 O 1.7617(11) -0.5721(10) 0.5694(6)
O9 O 1.684(2) -0.4220(16) 0.4615(19)
O10 O 1.5925(13) -0.4416(10) 0.5216(7)
O11 O 1.4242(12) -0.3056(10) 0.4554(7)
O12 O 1.392(2) -0.3067(18) 0.5637(7)
O4A O 1.4450(14) -0.4920(12) 0.4833(8)
Rh3A Rh 1.56742(17) -0.59274(13) 0.47940(9)
O5A O 1.6159(15) -0.6234(12) 0.5361(8)
O3A O 1.4191(19) -0.4955(10) 0.5700(6)
Rh2A Rh 1.3104(2) -0.45895(16) 0.49605(10)
Rh1A Rh 1.4673(2) -0.59707(17) 0.54201(14)
O47? O 1.0517(11) 0.2205(10) 0.0994(5)
O49? O 0.8909(9) 0.2250(9) 0.1436(5)
O51? O 1.0213(11) 0.0953(8) 0.1542(5)
O88? O 1.2534(10) -0.4816(9) 0.4684(5)
O89? O 1.411(2) -0.1439(16) 0.9770(10)
O90? O 1.9689(16) 0.0160(17) 0.4942(11)
loop_
_geom_bond_atom_site_label_1
_geom_bond_atom_site_label_2
_geom_bond_site_symmetry_1
_geom_bond_site_symmetry_2
Rh1 Rh2 1_555 1_555
Rh2 O3 1_555 1_555
Rh3 Rh1 1_555 1_555
Rh4 O13 1_555 1_555
Rh5 O16 1_555 1_555
Cl1 O65 1_555 1_555
Na1 O22 1_555 1_555
Na2 O34 1_555 1_555
O1 Rh1 1_555 1_555
O2 Rh1 1_555 1_555
O3 Rh1 1_555 1_555
O4 Rh1 1_555 1_555
O5 Rh1 1_555 1_555
O6 Rh2 1_555 1_555
O7 Rh2 1_555 1_555
O8 Rh2 1_555 1_555
O9 Rh1 1_555 1_555
O10 Rh1 1_555 1_555
O11 Rh1 1_555 1_555
O12 Rh3 1_555 1_555
O14 Rh4 1_555 1_555
O15 Rh4 1_555 1_555
O16 Rh4 1_555 1_555
O17 Rh5 1_555 1_555
O18 Rh5 1_555 1_555
O19 Rh5 1_555 1_555
O20 Rh5 1_555 1_555
O21 Rh4 1_555 1_555
O23 Na1 1_555 1_555
O24 Na1 1_555 1_555
O25 C2 1_555 1_555
O26 Na1 1_555 1_555
O27 Na1 1_555 1_555
O28 Na1 1_555 1_555
O29 Na1 1_555 1_555
O30 S1 1_555 1_555
O31 S1 1_555 1_555
O32 S1 1_555 1_555
O33 S2 1_555 1_555
O34 S2 1_555 1_555
O35 S2 1_555 1_555
O36 S3 1_555 1_555
O37 S3 1_555 1_555
O38 S3 1_555 1_555
O39 S4 1_555 1_555
O40 S4 1_555 1_555
O41 S4 1_555 1_555
O42 Na2 1_555 1_555
O43 C20 1_555 1_555
O44 C27 1_555 1_555
O45 C34 1_555 1_555
O46 S5 1_555 1_555
O48 Na2 1_555 1_555
O50 S5 1_555 1_555
O52 S6 1_555 1_555
O53 S6 1_555 1_555
O54 S6 1_555 1_555
O55 S7 1_555 1_555
O56 S7 1_555 1_555
O57 S7 1_555 1_555
O58 S8 1_555 1_555
O59 S8 1_555 1_555
O60 S8 1_555 1_555
O61 C41 1_555 1_555
O62 C62 1_555 1_555
O63 C55 1_555 1_555
O64 C48 1_555 1_555
O65 Na2 1_555 1_555
O66 Cl1 1_555 1_555
O67 Cl1 1_555 1_555
O68 Cl1 1_555 1_555
O69 Na2 1_555 1_555
S1 C16 1_555 1_555
S2 C23 1_555 1_555
S3 C30 1_555 1_555
S4 C38 1_555 1_555
S5 O48 1_555 1_555
S6 C65 1_555 1_555
S7 C58 1_555 1_555
S8 C51 1_555 1_555
C1 O24 1_555 1_555
H1 C1 1_555 1_555
H2 C1 1_555 1_555
C2 C1 1_555 1_555
H3 C2 1_555 1_555
H4 C2 1_555 1_555
C3 O25 1_555 1_555
H5 C3 1_555 1_555
H6 C3 1_555 1_555
C4 O26 1_555 1_555
H7 C4 1_555 1_555
H8 C4 1_555 1_555
C5 O26 1_555 1_555
H9 C5 1_555 1_555
H10 C5 1_555 1_555
C6 O27 1_555 1_555
H11 C6 1_555 1_555
H12 C6 1_555 1_555
C7 O27 1_555 1_555
H13 C7 1_555 1_555
H14 C7 1_555 1_555
C8 O28 1_555 1_555
H15 C8 1_555 1_555
H16 C8 1_555 1_555
C9 O28 1_555 1_555
H17 C9 1_555 1_555
H18 C9 1_555 1_555
C10 O29 1_555 1_555
H19 C10 1_555 1_555
H20 C10 1_555 1_555
C11 O29 1_555 1_555
H21 C11 1_555 1_555
H22 C11 1_555 1_555
C12 O24 1_555 1_555
H23 C12 1_555 1_555
H24 C12 1_555 1_555
C13 O42 1_555 1_555
C14 C13 1_555 1_555
C15 C14 1_555 1_555
H25 C15 1_555 1_555
C16 C15 1_555 1_555
C17 C16 1_555 1_555
H26 C17 1_555 1_555
C18 C13 1_555 1_555
C19 C18 1_555 1_555
H27 C19 1_555 1_555
H28 C19 1_555 1_555
C20 C21 1_555 1_555
C21 C19 1_555 1_555
C22 C21 1_555 1_555
H29 C22 1_555 1_555
C23 C24 1_555 1_555
C24 H30 1_555 1_555
C25 C20 1_555 1_555
C26 C25 1_555 1_555
H31 C26 1_555 1_555
H32 C26 1_555 1_555
C27 C28 1_555 1_555
C28 C26 1_555 1_555
C29 C28 1_555 1_555
H33 C29 1_555 1_555
C30 C29 1_555 1_555
C31 C30 1_555 1_555
H34 C31 1_555 1_555
C32 C27 1_555 1_555
C33 C32 1_555 1_555
H35 C33 1_555 1_555
H36 C33 1_555 1_555
C34 C35 1_555 1_555
C35 C33 1_555 1_555
C36 C35 1_555 1_555
H37 C36 1_555 1_555
C37 C34 1_555 1_555
C38 C36 1_555 1_555
C39 C37 1_555 1_555
H38 C39 1_555 1_555
C40 C14 1_555 1_555
H39 C40 1_555 1_555
H40 C40 1_555 1_555
C41 C42 1_555 1_555
C42 C43 1_555 1_555
C43 H41 1_555 1_555
C44 S5 1_555 1_555
C45 C44 1_555 1_555
H42 C45 1_555 1_555
C46 C41 1_555 1_555
C47 C46 1_555 1_555
H43 C47 1_555 1_555
H44 C47 1_555 1_555
C48 C49 1_555 1_555
C49 C47 1_555 1_555
C50 C49 1_555 1_555
H45 C50 1_555 1_555
C51 C50 1_555 1_555
C52 C51 1_555 1_555
H46 C52 1_555 1_555
C53 C48 1_555 1_555
C54 C53 1_555 1_555
H47 C54 1_555 1_555
H48 C54 1_555 1_555
C55 C56 1_555 1_555
C56 C54 1_555 1_555
C57 C56 1_555 1_555
H49 C57 1_555 1_555
C58 C57 1_555 1_555
C59 C58 1_555 1_555
H50 C59 1_555 1_555
C60 C55 1_555 1_555
C61 C60 1_555 1_555
H51 C61 1_555 1_555
H52 C61 1_555 1_555
C62 C63 1_555 1_555
C63 C61 1_555 1_555
C64 C63 1_555 1_555
H53 C64 1_555 1_555
C65 C64 1_555 1_555
C66 C65 1_555 1_555
H54 C66 1_555 1_555
C67 C62 1_555 1_555
C68 C42 1_555 1_555
H55 C68 1_555 1_555
H56 C68 1_555 1_555
O83 O87 1_555 1_555
O4A Rh1 1_555 1_555
Rh3A Rh2 1_555 1_555
O5A Rh2 1_555 1_555
O3A Rh3 1_555 1_555
Rh2A Rh3 1_555 1_555
O15A Rh4 1_555 1_555
O21A Rh5 1_555 1_555
O66A Na2 1_555 1_555
Rh1A O4 1_555 1_555
Rh4A O15 1_555 1_555
Rh5A O21 1_555 1_555
Na2A O66 1_555 1_555
C23A C22 1_555 1_555
C22A C23 1_555 1_555
C25A C24 1_555 1_555
C24A C25 1_555 1_555
Rh2 O4 1_555 1_555
Rh2 O9 1_555 1_555
Rh2 O10 1_555 1_555
Rh3 O4A 1_555 1_555
Rh3 O4 1_555 1_555
Rh3 O5 1_555 1_555
Rh3 O10 1_555 1_555
Rh3 O11 1_555 1_555
O2 O11 1_555 1_555
O3 Rh3A 1_555 1_555
O4 O4A 1_555 1_555
O4 O10 1_555 1_555
O4 Rh3A 1_555 1_555
O5 O11 1_555 1_555
O5 Rh2A 1_555 1_555
O7 O9 1_555 1_555
C3 C4 1_555 1_555
C5 C6 1_555 1_555
C7 C8 1_555 1_555
C9 C10 1_555 1_555
C11 C12 1_555 1_555
C17 C18 1_555 1_555
C31 C32 1_555 1_555
C37 C40 1_555 1_555
C38 C39 1_555 1_555
C43 C44 1_555 1_555
C45 C46 1_555 1_555
C52 C53 1_555 1_555
C59 C60 1_555 1_555
C66 C67 1_555 1_555
C67 C68 1_555 1_555
O4A Rh1A 1_555 1_555
O4A Rh2A 1_555 1_555
O4A Rh3A 1_555 1_555
Rh3A O5A 1_555 1_555
Rh3A Rh1A 1_555 1_555
O5A Rh1A 1_555 1_555
O3A Rh1A 1_555 1_555
O3A Rh2A 1_555 1_555
Rh2A Rh1A 1_555 1_555
O15A Rh4A 1_555 1_555
O21A Rh4A 1_555 1_555
C23A C24A 1_555 1_555

#END
