
#######################################################################
#
#                 Cambridge Crystallographic Data Centre
#                                CCDC 
#
#######################################################################
#
# If this CIF has been generated from an entry in the Cambridge 
# Structural Database, then it will include bibliographic, chemical, 
# crystal, experimental, refinement or atomic coordinate data resulting 
# from the CCDC's data processing and validation procedures.
#
#######################################################################

data_QALNEW
_symmetry_cell_setting           orthorhombic
_symmetry_space_group_name_H-M   'P 21 21 21'
_symmetry_Int_Tables_number      19
_space_group_name_Hall           'P 2ac 2ab'
loop_
_symmetry_equiv_pos_site_id
_symmetry_equiv_pos_as_xyz
1 x,y,z
2 1/2+x,1/2-y,-z
3 -x,1/2+y,1/2-z
4 1/2-x,-y,1/2+z
_cell_length_a                   9.4891(11)
_cell_length_b                   9.5461(13)
_cell_length_c                   10.9842(13)
_cell_angle_alpha                90
_cell_angle_beta                 90
_cell_angle_gamma                90
_cell_volume                     994.992
loop_
_atom_site_label
_atom_site_type_symbol
_atom_site_fract_x
_atom_site_fract_y
_atom_site_fract_z
Eu1 Eu 0.81811(3) 0.80677(3) 0.81542(3)
O1 O 0.7738(5) 0.8304(5) 0.5789(4)
H1 H 0.7898 0.8988 0.5570
H2 H 0.8106 0.8059 0.5370
O2 O 0.8013(5) 0.5362(5) 0.8455(6)
H3 H 0.8475 0.4758 0.8178
H4 H 0.7250 0.5033 0.8777
C1 C 0.4616(5) 0.7391(5) 0.8969(5)
O5 O 0.5480(4) 0.7575(4) 0.8134(4)
O6 O 0.4892(4) 0.7386(5) 1.0088(3)
C2 C 0.3034(5) 0.7239(5) 0.8636(4)
H9 H 0.2765 0.8121 0.8625
O7 O 0.2346(4) 0.6443(4) 0.9555(4)
H10 H 0.1757 0.6562 0.9629
C3 C 0.2821(5) 0.6630(5) 0.7379(5)
H11 H 0.3232 0.7141 0.6819
O8 O 0.3398(4) 0.5264(4) 0.7278(3)
H12 H 0.4199 0.5441 0.6822
C4 C 0.1239(5) 0.6615(5) 0.7072(4)
O9 O 0.0599(4) 0.7761(4) 0.7148(3)
O10 O 0.0696(4) 0.5476(4) 0.6729(4)
O6A O 0.9892(4) 0.7614(5) 0.9912(3)
O7A O 0.7346(4) 0.8557(4) 1.0445(4)
O8B O 0.6602(4) 1.0264(4) 0.7722(3)
O9_2 O 1.0599(4) 0.7761(4) 0.7148(3)
O10B O 0.9304(4) 1.0476(4) 0.8271(4)
Eu1A Eu 0.31811(3) 0.69323(3) 1.18458(3)
Eu1B Eu 0.18189(3) 0.30677(3) 0.68458(3)
Eu1_2 Eu -0.18189(3) 0.80677(3) 0.81542(3)
H10A H 0.6757 0.8438 1.0371
H12B H 0.5801 1.0441 0.8178
O3 O 0.9386(5) 0.5941(5) 0.4419(5)
H5 H 0.9727 0.5638 0.5200
H6 H 0.9791 0.6982 0.4400
O4 O 1.0617(7) 0.9269(6) 1.4273(6)
H7 H 1.0676 0.9461 1.4856
H8 H 1.0959 0.8405 1.4420
loop_
_geom_bond_atom_site_label_1
_geom_bond_atom_site_label_2
_geom_bond_site_symmetry_1
_geom_bond_site_symmetry_2
Eu1 O1 1_555 1_555
O1 H1 1_555 1_555
H2 O1 1_555 1_555
O2 Eu1 1_555 1_555
H3 O2 1_555 1_555
H4 O2 1_555 1_555
O3 H5 1_555 1_555
H6 O3 1_555 1_555
O4 H7 1_555 1_555
H8 O4 1_555 1_555
C1 O5 1_555 1_555
O5 Eu1 1_555 1_555
O6 C1 1_555 1_555
C2 C1 1_555 1_555
H9 C2 1_555 1_555
O7 C2 1_555 1_555
H10 O7 1_555 1_555
C3 C2 1_555 1_555
H11 C3 1_555 1_555
O8 C3 1_555 1_555
H12 O8 1_555 1_555
C4 C3 1_555 1_555
O9 C4 1_555 1_555
O10 C4 1_555 1_555
O6A Eu1 1_555 1_555
O7A Eu1 1_555 1_555
O8B Eu1 1_555 1_555
O9_2 Eu1 1_555 1_555
O10B Eu1 1_555 1_555
Eu1A O6 1_555 1_555
Eu1B O8 1_555 1_555
Eu1_2 O9 1_555 1_555
H10A O7A 1_555 1_555
H12B O8B 1_555 1_555
O7 Eu1A 1_555 1_555
O10 Eu1B 1_555 1_555

#END
