
#######################################################################
#
#                 Cambridge Crystallographic Data Centre
#                                CCDC 
#
#######################################################################
#
# If this CIF has been generated from an entry in the Cambridge 
# Structural Database, then it will include bibliographic, chemical, 
# crystal, experimental, refinement or atomic coordinate data resulting 
# from the CCDC's data processing and validation procedures.
#
#######################################################################

data_QALNIA
_symmetry_cell_setting           orthorhombic
_symmetry_space_group_name_H-M   'P 21 21 21'
_symmetry_Int_Tables_number      19
_space_group_name_Hall           'P 2ac 2ab'
loop_
_symmetry_equiv_pos_site_id
_symmetry_equiv_pos_as_xyz
1 x,y,z
2 1/2+x,1/2-y,-z
3 -x,1/2+y,1/2-z
4 1/2-x,-y,1/2+z
_cell_length_a                   9.4921(10)
_cell_length_b                   9.5394(13)
_cell_length_c                   11.0134(13)
_cell_angle_alpha                90
_cell_angle_beta                 90
_cell_angle_gamma                90
_cell_volume                     997.252
loop_
_atom_site_label
_atom_site_type_symbol
_atom_site_fract_x
_atom_site_fract_y
_atom_site_fract_z
Sr1 Sr 0.81852(4) -0.19297(4) -0.18474(3)
O1 O 0.7759(4) -0.1693(4) -0.4216(3)
O2 O 0.8007(4) -0.4642(3) -0.1558(4)
C1 C 0.4617(4) -0.2597(4) -0.1028(3)
O5 O 0.5481(3) -0.2432(3) -0.1863(3)
O6 O 0.4891(3) -0.2608(4) 0.0098(3)
C2 C 0.3040(4) -0.2742(3) -0.1356(3)
O7 O 0.2332(3) -0.3555(3) -0.0442(2)
C3 C 0.2827(4) -0.3353(4) -0.2628(4)
O8 O 0.3408(3) -0.4737(3) -0.2714(3)
C4 C 0.1248(4) -0.3380(4) -0.2936(3)
O9 O 0.0602(3) -0.2230(3) -0.2849(2)
O10 O 0.0699(3) -0.4522(3) -0.3263(3)
O6A O 0.9891(3) -0.2392(4) -0.0098(3)
O7A O 0.7332(3) -0.1445(3) 0.0442(2)
O8B O 0.6592(3) 0.0263(3) -0.2286(3)
O9_2 O 1.0602(3) -0.2230(3) -0.2849(2)
O10B O 0.9301(3) 0.0478(3) -0.1737(3)
Sr1A Sr 0.31852(4) -0.30703(4) 0.18474(3)
Sr1B Sr 0.18148(4) -0.69297(4) -0.31526(3)
Sr1_2 Sr -0.18148(4) -0.19297(4) -0.18474(3)
O3 O 0.9392(4) -0.4055(4) -0.5573(4)
O4 O 1.0596(5) -0.0743(4) 0.4294(4)
loop_
_geom_bond_atom_site_label_1
_geom_bond_atom_site_label_2
_geom_bond_site_symmetry_1
_geom_bond_site_symmetry_2
Sr1 O1 1_555 1_555
O2 Sr1 1_555 1_555
C1 O5 1_555 1_555
O5 Sr1 1_555 1_555
O6 C1 1_555 1_555
C2 C1 1_555 1_555
O7 C2 1_555 1_555
C3 C2 1_555 1_555
O8 C3 1_555 1_555
C4 C3 1_555 1_555
O9 C4 1_555 1_555
O10 C4 1_555 1_555
O6A Sr1 1_555 1_555
O7A Sr1 1_555 1_555
O8B Sr1 1_555 1_555
O9_2 Sr1 1_555 1_555
O10B Sr1 1_555 1_555
Sr1A O6 1_555 1_555
Sr1B O8 1_555 1_555
Sr1_2 O9 1_555 1_555
O7 Sr1A 1_555 1_555
O10 Sr1B 1_555 1_555

#END
