
#######################################################################
#
#                 Cambridge Crystallographic Data Centre
#                                CCDC 
#
#######################################################################
#
# If this CIF has been generated from an entry in the Cambridge 
# Structural Database, then it will include bibliographic, chemical, 
# crystal, experimental, refinement or atomic coordinate data resulting 
# from the CCDC's data processing and validation procedures.
#
#######################################################################

data_QALTEC
_symmetry_cell_setting           monoclinic
_symmetry_space_group_name_H-M   'P 21/c'
_symmetry_Int_Tables_number      14
_space_group_name_Hall           '-P 2ybc'
loop_
_symmetry_equiv_pos_site_id
_symmetry_equiv_pos_as_xyz
1 x,y,z
2 -x,1/2+y,1/2-z
3 -x,-y,-z
4 x,1/2-y,1/2+z
_cell_length_a                   13.1382(14)
_cell_length_b                   10.9004(19)
_cell_length_c                   9.269(2)
_cell_angle_alpha                90
_cell_angle_beta                 96.072(12)
_cell_angle_gamma                90
_cell_volume                     1319.98
loop_
_atom_site_label
_atom_site_type_symbol
_atom_site_fract_x
_atom_site_fract_y
_atom_site_fract_z
Mn1 Mn 0.0000 0.0000 0.0000
O1 O 0.1338(3) 0.1076(3) 0.0719(4)
O2 O -0.0271(2) -0.0163(3) 0.2278(3)
O3 O 0.1055(2) 0.1675(3) 0.4535(3)
O4 O -0.0966(2) 0.3381(3) 0.4657(3)
N1 N -0.2328(3) 0.1500(3) 0.2437(4)
C1 C -0.0460(3) 0.0769(4) 0.2979(5)
C2 C 0.0152(4) 0.1617(4) 0.3999(5)
C3 C -0.0775(3) 0.2402(4) 0.4039(5)
C4 C -0.1343(3) 0.1544(4) 0.3084(5)
C5 C -0.2883(3) 0.2622(4) 0.2160(4)
C6 C -0.3929(3) 0.2654(4) 0.2281(5)
C7 C -0.4475(3) 0.3706(4) 0.1914(5)
C8 C -0.3993(4) 0.4739(4) 0.1443(5)
C9 C -0.2947(3) 0.4719(4) 0.1372(5)
C10 C -0.2396(3) 0.3647(4) 0.1714(4)
C11 C -0.2742(3) 0.0349(4) 0.1867(5)
C12 C -0.2495(3) -0.0734(4) 0.2600(5)
C13 C -0.2860(3) -0.1841(4) 0.2034(5)
C14 C -0.3503(3) -0.1858(4) 0.0767(5)
C15 C -0.3772(3) -0.0783(4) 0.0036(5)
C16 C -0.3386(3) 0.0325(4) 0.0568(5)
H1 H -0.4265 0.1954 0.2615
H2 H -0.5191 0.3724 0.1985
H3 H -0.4378 0.5455 0.1171
H4 H -0.2605 0.5434 0.1091
H5 H -0.1681 0.3626 0.1637
H6 H -0.2073 -0.0716 0.3497
H7 H -0.2668 -0.2586 0.2520
H8 H -0.3766 -0.2618 0.0389
H9 H -0.4223 -0.0805 -0.0834
H10 H -0.3557 0.1064 0.0056
H11 H 0.1270(30) 0.1760(40) 0.0260(40)
H12 H 0.1940(40) 0.0780(50) 0.0500(60)
O1B O -0.1338(3) -0.1076(3) -0.0719(4)
H11B H -0.1270(30) -0.1760(40) -0.0260(40)
H12B H -0.1940(40) -0.0780(50) -0.0500(60)
O2B O 0.0271(2) 0.0163(3) -0.2278(3)
O3B O -0.1055(2) -0.1675(3) -0.4535(3)
O4B O 0.0966(2) -0.3381(3) -0.4657(3)
N1B N 0.2328(3) -0.1500(3) -0.2437(4)
C1B C 0.0460(3) -0.0769(4) -0.2979(5)
C2B C -0.0152(4) -0.1617(4) -0.3999(5)
C3B C 0.0775(3) -0.2402(4) -0.4039(5)
C4B C 0.1343(3) -0.1544(4) -0.3084(5)
C5B C 0.2883(3) -0.2622(4) -0.2160(4)
C6B C 0.3929(3) -0.2654(4) -0.2281(5)
C7B C 0.4475(3) -0.3706(4) -0.1914(5)
C8B C 0.3993(4) -0.4739(4) -0.1443(5)
C9B C 0.2947(3) -0.4719(4) -0.1372(5)
C10B C 0.2396(3) -0.3647(4) -0.1714(4)
C11B C 0.2742(3) -0.0349(4) -0.1867(5)
C12B C 0.2495(3) 0.0734(4) -0.2600(5)
C13B C 0.2860(3) 0.1841(4) -0.2034(5)
C14B C 0.3503(3) 0.1858(4) -0.0767(5)
C15B C 0.3772(3) 0.0783(4) -0.0036(5)
C16B C 0.3386(3) -0.0325(4) -0.0568(5)
H1B H 0.4265 -0.1954 -0.2615
H2B H 0.5191 -0.3724 -0.1985
H3B H 0.4378 -0.5455 -0.1171
H4B H 0.2605 -0.5434 -0.1091
H5B H 0.1681 -0.3626 -0.1637
H6B H 0.2073 0.0716 -0.3497
H7B H 0.2668 0.2586 -0.2520
H8B H 0.3766 0.2618 -0.0389
H9B H 0.4223 0.0805 0.0834
H10B H 0.3557 -0.1064 -0.0056
O4A O 0.0966(2) -0.1619(3) 0.0343(3)
O4C O -0.0966(2) 0.1619(3) -0.0343(3)
Mn1A Mn 0.0000 0.5000 0.5000
Mn1A_2 Mn 0.0000 -0.5000 -0.5000
loop_
_geom_bond_atom_site_label_1
_geom_bond_atom_site_label_2
_geom_bond_site_symmetry_1
_geom_bond_site_symmetry_2
Mn1 O1 1_555 1_555
O1 H11 1_555 1_555
O2 Mn1 1_555 1_555
O3 C2 1_555 1_555
O4 C3 1_555 1_555
N1 C4 1_555 1_555
C1 O2 1_555 1_555
C2 C1 1_555 1_555
C3 C2 1_555 1_555
C4 C1 1_555 1_555
C5 N1 1_555 1_555
C6 C5 1_555 1_555
C7 C6 1_555 1_555
C8 C7 1_555 1_555
C9 C8 1_555 1_555
C10 C5 1_555 1_555
C11 N1 1_555 1_555
C12 C11 1_555 1_555
C13 C12 1_555 1_555
C14 C13 1_555 1_555
C15 C14 1_555 1_555
C16 C11 1_555 1_555
H1 C6 1_555 1_555
H2 C7 1_555 1_555
H3 C8 1_555 1_555
H4 C9 1_555 1_555
H5 C10 1_555 1_555
H6 C12 1_555 1_555
H7 C13 1_555 1_555
H8 C14 1_555 1_555
H9 C15 1_555 1_555
H10 C16 1_555 1_555
H12 O1 1_555 1_555
O1B Mn1 1_555 1_555
H11B O1B 1_555 1_555
H12B O1B 1_555 1_555
O2B Mn1 1_555 1_555
O3B C2B 1_555 1_555
O4B C3B 1_555 1_555
N1B C4B 1_555 1_555
C1B O2B 1_555 1_555
C2B C1B 1_555 1_555
C3B C2B 1_555 1_555
C4B C1B 1_555 1_555
C5B N1B 1_555 1_555
C6B C5B 1_555 1_555
C7B C6B 1_555 1_555
C8B C7B 1_555 1_555
C9B C8B 1_555 1_555
C10B C5B 1_555 1_555
C11B N1B 1_555 1_555
C12B C11B 1_555 1_555
C13B C12B 1_555 1_555
C14B C13B 1_555 1_555
C15B C14B 1_555 1_555
C16B C11B 1_555 1_555
H1B C6B 1_555 1_555
H2B C7B 1_555 1_555
H3B C8B 1_555 1_555
H4B C9B 1_555 1_555
H5B C10B 1_555 1_555
H6B C12B 1_555 1_555
H7B C13B 1_555 1_555
H8B C14B 1_555 1_555
H9B C15B 1_555 1_555
H10B C16B 1_555 1_555
O4A Mn1 1_555 1_555
O4C Mn1 1_555 1_555
Mn1A O4 1_555 1_555
Mn1A_2 O4B 1_555 1_555
C3 C4 1_555 1_555
C9 C10 1_555 1_555
C15 C16 1_555 1_555
C3B C4B 1_555 1_555
C9B C10B 1_555 1_555
C15B C16B 1_555 1_555

#END
