
#######################################################################
#
#                 Cambridge Crystallographic Data Centre
#                                CCDC 
#
#######################################################################
#
# If this CIF has been generated from an entry in the Cambridge 
# Structural Database, then it will include bibliographic, chemical, 
# crystal, experimental, refinement or atomic coordinate data resulting 
# from the CCDC's data processing and validation procedures.
#
#######################################################################

data_QALTIG
_symmetry_cell_setting           monoclinic
_symmetry_space_group_name_H-M   'P 21/c'
_symmetry_Int_Tables_number      14
_space_group_name_Hall           '-P 2ybc'
loop_
_symmetry_equiv_pos_site_id
_symmetry_equiv_pos_as_xyz
1 x,y,z
2 x,1/2-y,1/2+z
3 -x,-y,-z
4 -x,1/2+y,1/2-z
_cell_length_a                   13.2091(7)
_cell_length_b                   10.8984(5)
_cell_length_c                   9.3291(5)
_cell_angle_alpha                90
_cell_angle_beta                 98.178(4)
_cell_angle_gamma                90
_cell_volume                     1329.34
loop_
_atom_site_label
_atom_site_type_symbol
_atom_site_fract_x
_atom_site_fract_y
_atom_site_fract_z
Cu1 Cu 0.0000 0.0000 0.0000
O1 O 0.12440(12) -0.0934(2) 0.0629(2)
H1 H 0.1829(15) -0.0523(30) 0.0577(42)
H2 H 0.1255(24) -0.1702(11) 0.0280(32)
C1 C 0.06920(15) 0.2468(2) 0.0978(2)
O2 O 0.08888(11) 0.14620(13) 0.0413(2)
C2 C -0.0236(2) 0.3229(2) 0.0984(2)
O3 O -0.11442(12) 0.3122(2) 0.0492(2)
C3 C 0.0398(2) 0.4152(2) 0.1894(2)
O4 O 0.02280(13) -0.01363(15) -0.2543(2)
C4 C 0.1280(2) 0.3355(2) 0.1876(2)
N1 N 0.22654(13) 0.3414(2) 0.2526(2)
C5 C 0.24398(10) 0.56290(13) 0.22842(12)
H3 H 0.20126(10) 0.55955(13) 0.14021(12)
C6 C 0.28371(12) 0.67476(10) 0.2814(2)
H4 H 0.2676(2) 0.74625(12) 0.2286(2)
C7 C 0.34755(12) 0.67978(10) 0.4133(2)
H5 H 0.3741(2) 0.75462(12) 0.4487(2)
C8 C 0.37168(11) 0.57293(13) 0.49212(13)
H6 H 0.4144(2) 0.5763(2) 0.5803(2)
C9 C 0.33195(11) 0.46107(11) 0.43914(14)
H7 H 0.3481(2) 0.38959(13) 0.4919(2)
C10 C 0.26810(11) 0.45606(10) 0.30729(14)
C11 C 0.38840(10) 0.23123(12) 0.2723(2)
H8 H 0.41945(10) 0.30125(12) 0.2417(2)
C12 C 0.44596(8) 0.12597(14) 0.3077(2)
H9 H 0.51552(8) 0.1256(2) 0.3009(3)
C13 C 0.39956(11) 0.02132(11) 0.3534(2)
H10 H 0.43807(14) -0.04911(14) 0.3771(3)
C14 C 0.29560(11) 0.02194(11) 0.3636(2)
H11 H 0.26455(15) -0.04808(13) 0.3941(3)
C15 C 0.23804(8) 0.12720(13) 0.3281(2)
H12 H 0.16848(8) 0.1276(2) 0.3349(3)
C16 C 0.28444(9) 0.23185(10) 0.2824(2)
O1B O -0.12440(12) 0.0934(2) -0.0629(2)
O2B O -0.08888(11) -0.14620(13) -0.0413(2)
O4B O -0.02280(13) 0.01363(15) 0.2543(2)
O4A O 0.02280(13) 0.51363(15) 0.2457(2)
C3A C 0.0398(2) 0.0848(2) -0.3106(2)
H1B H -0.1829(15) 0.0523(30) -0.0577(42)
H2B H -0.1255(24) 0.1702(11) -0.0280(32)
Cu1A Cu 0.0000 0.5000 0.5000
C2A C -0.0236(2) 0.1771(2) -0.4016(2)
C4A C 0.1280(2) 0.1645(2) -0.3124(2)
C1A C 0.06920(15) 0.2532(2) -0.4022(2)
O3A O -0.11442(12) 0.1878(2) -0.4508(2)
N1A N 0.22654(13) 0.1586(2) -0.2474(2)
O2A O 0.08888(11) 0.35380(13) -0.4587(2)
C10A C 0.26810(11) 0.04394(10) -0.19271(14)
C16A C 0.28444(9) 0.26815(10) -0.2176(2)
Cu1A_2 Cu 0.0000 0.5000 -0.5000
C5A C 0.24398(10) -0.06290(13) -0.27158(12)
C9A C 0.33195(11) 0.03893(11) -0.06086(14)
C11A C 0.38840(10) 0.26877(12) -0.2277(2)
C15A C 0.23804(8) 0.37280(13) -0.1719(2)
H3A H 0.20126(10) -0.05955(13) -0.35979(12)
C6A C 0.28371(12) -0.17476(10) -0.2186(2)
C8A C 0.37168(11) -0.07293(13) -0.00788(13)
H7A H 0.3481(2) 0.11041(13) -0.0081(2)
H8A H 0.41945(10) 0.19875(12) -0.2583(2)
C12A C 0.44596(8) 0.37403(14) -0.1923(2)
C14A C 0.29560(11) 0.47806(11) -0.1364(2)
H12A H 0.16848(8) 0.3724(2) -0.1651(3)
H4A H 0.2676(2) -0.24625(12) -0.2714(2)
C7A C 0.34755(12) -0.17978(10) -0.0867(2)
H6A H 0.4144(2) -0.0763(2) 0.0803(2)
H9A H 0.51552(8) 0.3744(2) -0.1991(3)
C13A C 0.39956(11) 0.47868(11) -0.1466(2)
H11A H 0.26455(15) 0.54808(13) -0.1059(3)
H5A H 0.3741(2) -0.25462(12) -0.0513(2)
H10A H 0.43807(14) 0.54911(14) -0.1229(3)
loop_
_geom_bond_atom_site_label_1
_geom_bond_atom_site_label_2
_geom_bond_site_symmetry_1
_geom_bond_site_symmetry_2
Cu1 O1 1_555 1_555
O1 H1 1_555 1_555
H2 O1 1_555 1_555
C1 O2 1_555 1_555
O2 Cu1 1_555 1_555
C2 C1 1_555 1_555
O3 C2 1_555 1_555
C3 C2 1_555 1_555
O4 Cu1 1_555 1_555
C4 C1 1_555 1_555
N1 C4 1_555 1_555
C5 H3 1_555 1_555
C6 C5 1_555 1_555
H4 C6 1_555 1_555
C7 C6 1_555 1_555
H5 C7 1_555 1_555
C8 C7 1_555 1_555
H6 C8 1_555 1_555
C9 C8 1_555 1_555
H7 C9 1_555 1_555
C10 N1 1_555 1_555
C11 H8 1_555 1_555
C12 C11 1_555 1_555
H9 C12 1_555 1_555
C13 C12 1_555 1_555
H10 C13 1_555 1_555
C14 C13 1_555 1_555
H11 C14 1_555 1_555
C15 C14 1_555 1_555
H12 C15 1_555 1_555
C16 N1 1_555 1_555
O1B Cu1 1_555 1_555
O2B Cu1 1_555 1_555
O4B Cu1 1_555 1_555
O4A C3 1_555 1_555
C3A O4 1_555 1_555
H1B O1B 1_555 1_555
H2B O1B 1_555 1_555
Cu1A O4A 1_555 1_555
C2A C3A 1_555 1_555
C4A C3A 1_555 1_555
C1A C2A 1_555 1_555
O3A C2A 1_555 1_555
N1A C4A 1_555 1_555
O2A C1A 1_555 1_555
C10A N1A 1_555 1_555
C16A N1A 1_555 1_555
Cu1A_2 O2A 1_555 1_555
C5A C10A 1_555 1_555
C9A C10A 1_555 1_555
C11A C16A 1_555 1_555
C15A C16A 1_555 1_555
H3A C5A 1_555 1_555
C6A C5A 1_555 1_555
C8A C9A 1_555 1_555
H7A C9A 1_555 1_555
H8A C11A 1_555 1_555
C12A C11A 1_555 1_555
C14A C15A 1_555 1_555
H12A C15A 1_555 1_555
H4A C6A 1_555 1_555
C7A C6A 1_555 1_555
H6A C8A 1_555 1_555
H9A C12A 1_555 1_555
C13A C12A 1_555 1_555
H11A C14A 1_555 1_555
H5A C7A 1_555 1_555
H10A C13A 1_555 1_555
C3 C4 1_555 1_555
C5 C10 1_555 1_555
C9 C10 1_555 1_555
C11 C16 1_555 1_555
C15 C16 1_555 1_555
C4A C1A 1_555 1_555
C8A C7A 1_555 1_555
C14A C13A 1_555 1_555

#END
