
#######################################################################
#
#                 Cambridge Crystallographic Data Centre
#                                CCDC 
#
#######################################################################
#
# If this CIF has been generated from an entry in the Cambridge 
# Structural Database, then it will include bibliographic, chemical, 
# crystal, experimental, refinement or atomic coordinate data resulting 
# from the CCDC's data processing and validation procedures.
#
#######################################################################

data_QALTOM
_symmetry_cell_setting           monoclinic
_symmetry_space_group_name_H-M   'P 21/c'
_symmetry_Int_Tables_number      14
_space_group_name_Hall           '-P 2ybc'
loop_
_symmetry_equiv_pos_site_id
_symmetry_equiv_pos_as_xyz
1 x,y,z
2 x,1/2-y,1/2+z
3 -x,-y,-z
4 -x,1/2+y,1/2-z
_cell_length_a                   13.2113(9)
_cell_length_b                   11.0383(8)
_cell_length_c                   18.7484(12)
_cell_angle_alpha                90
_cell_angle_beta                 97.753(5)
_cell_angle_gamma                90
_cell_volume                     2709.09
loop_
_atom_site_label
_atom_site_type_symbol
_atom_site_fract_x
_atom_site_fract_y
_atom_site_fract_z
Co1 Co 0.00327(3) 0.12870(4) -0.37506(2)
O1 O 0.0394(2) 0.1202(2) -0.47825(13)
O2 O -0.12853(19) 0.0259(2) -0.40878(13)
O3 O 0.1323(2) 0.2293(2) -0.34218(14)
O4 O -0.09641(17) 0.27802(19) -0.40280(12)
O5 O 0.09979(18) 0.4579(2) -0.37359(13)
O6 O -0.02852(18) 0.6743(2) -0.45067(13)
O7 O 0.09436(17) -0.02486(19) -0.35096(12)
O8 O -0.11154(18) -0.1787(2) -0.33242(13)
O9 O 0.02898(18) -0.37091(19) -0.23028(12)
N1 N -0.2312(2) 0.4927(2) -0.49157(15)
N2 N 0.2324(2) -0.2054(2) -0.24082(16)
C1 C -0.0790(3) 0.3878(3) -0.41571(17)
C2 C 0.0102(3) 0.4681(3) -0.40057(18)
C3 C -0.0505(3) 0.5680(3) -0.43767(17)
C4 C -0.1368(3) 0.4861(3) -0.45306(17)
C5 C 0.0736(3) -0.1177(3) -0.31791(17)
C6 C -0.0201(3) -0.1893(3) -0.31040(17)
C7 C 0.0450(2) -0.2755(3) -0.26292(17)
C8 C 0.1331(3) -0.2008(3) -0.26972(18)
C9 C -0.2850(3) 0.3827(3) -0.51436(18)
C10 C -0.2361(3) 0.2905(3) -0.54619(18)
H1 H -0.1657 0.2971 -0.5511
C11 C -0.2914(3) 0.1883(3) -0.5709(2)
H2 H -0.2583 0.1238 -0.5921
C12 C -0.3939(3) 0.1801(3) -0.5649(2)
H3 H -0.4315 0.1107 -0.5830
C13 C -0.4429(3) 0.2727(3) -0.5324(2)
H4 H -0.5136 0.2666 -0.5280
C14 C -0.3873(3) 0.3738(3) -0.50665(19)
H5 H -0.4196 0.4370 -0.4837
C15 C -0.2725(2) 0.6053(3) -0.52057(18)
C16 C -0.3308(3) 0.6063(3) -0.58842(19)
H6 H -0.3437 0.5329 -0.6145
C17 C -0.3696(3) 0.7143(3) -0.6175(2)
H7 H -0.4102 0.7146 -0.6633
C18 C -0.3501(3) 0.8222(3) -0.5805(2)
H8 H -0.3758 0.8965 -0.6013
C19 C -0.2931(3) 0.8208(3) -0.5136(2)
H9 H -0.2795 0.8948 -0.4883
C20 C -0.2549(3) 0.7129(3) -0.48214(19)
H10 H -0.2175 0.7127 -0.4352
C21 C 0.2755(3) -0.3173(3) -0.21309(18)
C22 C 0.2507(3) -0.4237(3) -0.25154(19)
H11 H 0.2086 -0.4206 -0.2968
C23 C 0.2874(3) -0.5337(3) -0.22385(19)
H12 H 0.2693 -0.6061 -0.2499
C24 C 0.3501(3) -0.5393(3) -0.1585(2)
H13 H 0.3748 -0.6151 -0.1395
C25 C 0.3769(3) -0.4323(3) -0.12082(19)
H14 H 0.4213 -0.4354 -0.0766
C26 C 0.3393(3) -0.3220(3) -0.14749(19)
H15 H 0.3568 -0.2497 -0.1212
C27 C 0.2899(3) -0.0948(3) -0.23034(17)
C28 C 0.3928(3) -0.0942(3) -0.23910(19)
H16 H 0.4245 -0.1661 -0.2530
C29 C 0.4487(3) 0.0114(3) -0.2276(2)
H17 H 0.5191 0.0116 -0.2333
C30 C 0.4030(3) 0.1175(3) -0.2077(2)
H18 H 0.4421 0.1895 -0.1988
C31 C 0.3000(3) 0.1169(3) -0.20122(19)
H19 H 0.2675 0.1896 -0.1894
C32 C 0.2437(3) 0.0104(3) -0.21186(18)
H20 H 0.1733 0.0102 -0.2064
H21 H 0.079(3) 0.064(3) -0.490(3)
H22 H 0.043(4) 0.183(3) -0.505(2)
H23 H -0.120(4) -0.042(3) -0.387(2)
H24 H -0.179(3) 0.073(4) -0.403(3)
H25 H 0.186(3) 0.188(4) -0.350(3)
H26 H 0.124(4) 0.304(2) -0.356(3)
O9C O -0.02898(18) 0.12909(19) -0.26972(12)
Co1C Co -0.00327(3) -0.37130(4) -0.12494(2)
loop_
_geom_bond_atom_site_label_1
_geom_bond_atom_site_label_2
_geom_bond_site_symmetry_1
_geom_bond_site_symmetry_2
Co1 O1 1_555 1_555
O1 H21 1_555 1_555
O2 Co1 1_555 1_555
O3 Co1 1_555 1_555
O4 Co1 1_555 1_555
O5 C2 1_555 1_555
O6 C3 1_555 1_555
O7 Co1 1_555 1_555
O8 C6 1_555 1_555
O9 C7 1_555 1_555
N1 C4 1_555 1_555
N2 C8 1_555 1_555
C1 O4 1_555 1_555
C2 C1 1_555 1_555
C3 C2 1_555 1_555
C4 C1 1_555 1_555
C5 O7 1_555 1_555
C6 C5 1_555 1_555
C7 C6 1_555 1_555
C8 C5 1_555 1_555
C9 N1 1_555 1_555
C10 C9 1_555 1_555
H1 C10 1_555 1_555
C11 C10 1_555 1_555
H2 C11 1_555 1_555
C12 C11 1_555 1_555
H3 C12 1_555 1_555
C13 C12 1_555 1_555
H4 C13 1_555 1_555
C14 C9 1_555 1_555
H5 C14 1_555 1_555
C15 N1 1_555 1_555
C16 C15 1_555 1_555
H6 C16 1_555 1_555
C17 C16 1_555 1_555
H7 C17 1_555 1_555
C18 C17 1_555 1_555
H8 C18 1_555 1_555
C19 C18 1_555 1_555
H9 C19 1_555 1_555
C20 C15 1_555 1_555
H10 C20 1_555 1_555
C21 N2 1_555 1_555
C22 C21 1_555 1_555
H11 C22 1_555 1_555
C23 C22 1_555 1_555
H12 C23 1_555 1_555
C24 C23 1_555 1_555
H13 C24 1_555 1_555
C25 C24 1_555 1_555
H14 C25 1_555 1_555
C26 C21 1_555 1_555
H15 C26 1_555 1_555
C27 N2 1_555 1_555
C28 C27 1_555 1_555
H16 C28 1_555 1_555
C29 C28 1_555 1_555
H17 C29 1_555 1_555
C30 C29 1_555 1_555
H18 C30 1_555 1_555
C31 C30 1_555 1_555
H19 C31 1_555 1_555
C32 C27 1_555 1_555
H20 C32 1_555 1_555
H22 O1 1_555 1_555
H23 O2 1_555 1_555
H24 O2 1_555 1_555
H25 O3 1_555 1_555
H26 O3 1_555 1_555
O9C Co1 1_555 1_555
Co1C O9 1_555 1_555
C3 C4 1_555 1_555
C7 C8 1_555 1_555
C13 C14 1_555 1_555
C19 C20 1_555 1_555
C25 C26 1_555 1_555
C31 C32 1_555 1_555

#END
