
#######################################################################
#
#                 Cambridge Crystallographic Data Centre
#                                CCDC 
#
#######################################################################
#
# If this CIF has been generated from an entry in the Cambridge 
# Structural Database, then it will include bibliographic, chemical, 
# crystal, experimental, refinement or atomic coordinate data resulting 
# from the CCDC's data processing and validation procedures.
#
#######################################################################

data_QAMBEN
_symmetry_cell_setting           monoclinic
_symmetry_space_group_name_H-M   'P 21/n'
_symmetry_Int_Tables_number      14
_space_group_name_Hall           '-P 2yn'
loop_
_symmetry_equiv_pos_site_id
_symmetry_equiv_pos_as_xyz
1 x,y,z
2 1/2-x,1/2+y,1/2-z
3 -x,-y,-z
4 1/2+x,1/2-y,1/2+z
_cell_length_a                   12.6992(14)
_cell_length_b                   5.8010(7)
_cell_length_c                   13.5977(15)
_cell_angle_alpha                90
_cell_angle_beta                 115.8900(10)
_cell_angle_gamma                90
_cell_volume                     901.178
loop_
_atom_site_label
_atom_site_type_symbol
_atom_site_fract_x
_atom_site_fract_y
_atom_site_fract_z
Cu1 Cu 0.0000 1.0000 0.0000
O1 O 0.08521(12) 1.2741(2) 0.06280(10)
O2 O 0.16721(13) 1.4838(2) 0.21399(11)
O3 O 0.31580(11) 1.2771(2) 0.42064(11)
H1 H 0.3145 1.1807 0.3760
O4 O 0.18895(13) 1.4356(3) 0.47155(12)
N1 N 0.00494(13) 0.9709(3) 0.15798(13)
C1 C 0.07883(15) 1.1285(3) 0.22264(14)
C2 C 0.11626(15) 1.1391(3) 0.33710(14)
C3 C 0.06852(18) 0.9838(3) 0.38207(16)
H2 H 0.0908 0.9869 0.4569
C4 C -0.01372(16) 0.8197(3) 0.31661(15)
C5 C -0.06600(17) 0.6585(4) 0.36023(16)
H3 H -0.0485 0.6641 0.4341
C6 C -0.14143(19) 0.4960(3) 0.29536(18)
H4 H -0.1756 0.3917 0.3247
C7 C -0.16762(19) 0.4860(4) 0.18358(19)
H5 H -0.2175 0.3714 0.1402
C8 C -0.12135(18) 0.6414(4) 0.13720(16)
H6 H -0.1415 0.6340 0.0628
C9 C -0.04294(15) 0.8129(3) 0.20270(15)
C10 C 0.11494(15) 1.3093(3) 0.16333(15)
C11 C 0.20851(16) 1.3036(3) 0.41312(14)
Cu1A Cu 0.5000 1.5000 0.5000
Cu1A_2 Cu -0.5000 0.5000 -0.5000
O1B O -0.08521(12) 0.7259(2) -0.06280(10)
O2B O -0.16721(13) 0.5162(2) -0.21399(11)
O3B O -0.31580(11) 0.7229(2) -0.42064(11)
O3A O 0.18420(11) 0.7771(2) 0.07936(11)
O3C O -0.18420(11) 1.2229(2) -0.07936(11)
H1B H -0.3145 0.8193 -0.3760
H1A H 0.1855 0.6807 0.1240
H1C H -0.1855 1.3193 -0.1240
O4B O -0.18895(13) 0.5644(3) -0.47155(12)
N1B N -0.00494(13) 1.0291(3) -0.15798(13)
C1B C -0.07883(15) 0.8715(3) -0.22264(14)
C2B C -0.11626(15) 0.8609(3) -0.33710(14)
C3B C -0.06852(18) 1.0162(3) -0.38207(16)
H2B H -0.0908 1.0131 -0.4569
C4B C 0.01372(16) 1.1803(3) -0.31661(15)
C5B C 0.06600(17) 1.3415(4) -0.36023(16)
H3B H 0.0485 1.3359 -0.4341
C6B C 0.14143(19) 1.5040(3) -0.29536(18)
H4B H 0.1756 1.6083 -0.3247
C7B C 0.16762(19) 1.5140(4) -0.18358(19)
H5B H 0.2175 1.6286 -0.1402
C8B C 0.12135(18) 1.3586(4) -0.13720(16)
H6B H 0.1415 1.3660 -0.0628
C9B C 0.04294(15) 1.1871(3) -0.20270(15)
C10B C -0.11494(15) 0.6907(3) -0.16333(15)
C11B C -0.20851(16) 0.6964(3) -0.41312(14)
loop_
_geom_bond_atom_site_label_1
_geom_bond_atom_site_label_2
_geom_bond_site_symmetry_1
_geom_bond_site_symmetry_2
Cu1 O1 1_555 1_555
O1 C10 1_555 1_555
O2 C10 1_555 1_555
O3 H1 1_555 1_555
O4 C11 1_555 1_555
N1 Cu1 1_555 1_555
C1 N1 1_555 1_555
C2 C1 1_555 1_555
C3 C2 1_555 1_555
H2 C3 1_555 1_555
C4 C3 1_555 1_555
C5 C4 1_555 1_555
H3 C5 1_555 1_555
C6 C5 1_555 1_555
H4 C6 1_555 1_555
C7 C6 1_555 1_555
H5 C7 1_555 1_555
C8 C7 1_555 1_555
H6 C8 1_555 1_555
C9 N1 1_555 1_555
C10 C1 1_555 1_555
C11 O3 1_555 1_555
Cu1A O3 1_555 1_555
Cu1A_2 O3B 1_555 1_555
O1B Cu1 1_555 1_555
O2B C10B 1_555 1_555
O3B H1B 1_555 1_555
O3A Cu1 1_555 1_555
O3C Cu1 1_555 1_555
H1A O3A 1_555 1_555
H1C O3C 1_555 1_555
O4B C11B 1_555 1_555
N1B Cu1 1_555 1_555
C1B N1B 1_555 1_555
C2B C1B 1_555 1_555
C3B C2B 1_555 1_555
H2B C3B 1_555 1_555
C4B C3B 1_555 1_555
C5B C4B 1_555 1_555
H3B C5B 1_555 1_555
C6B C5B 1_555 1_555
H4B C6B 1_555 1_555
C7B C6B 1_555 1_555
H5B C7B 1_555 1_555
C8B C7B 1_555 1_555
H6B C8B 1_555 1_555
C9B N1B 1_555 1_555
C10B O1B 1_555 1_555
C11B O3B 1_555 1_555
C2 C11 1_555 1_555
C4 C9 1_555 1_555
C8 C9 1_555 1_555
C1B C10B 1_555 1_555
C2B C11B 1_555 1_555
C4B C9B 1_555 1_555
C8B C9B 1_555 1_555

#END
