
#######################################################################
#
#                 Cambridge Crystallographic Data Centre
#                                CCDC 
#
#######################################################################
#
# If this CIF has been generated from an entry in the Cambridge 
# Structural Database, then it will include bibliographic, chemical, 
# crystal, experimental, refinement or atomic coordinate data resulting 
# from the CCDC's data processing and validation procedures.
#
#######################################################################

data_QAMDIS
_symmetry_cell_setting           triclinic
_symmetry_space_group_name_H-M   'P -1'
_symmetry_Int_Tables_number      2
_space_group_name_Hall           '-P 1'
loop_
_symmetry_equiv_pos_site_id
_symmetry_equiv_pos_as_xyz
1 x,y,z
2 -x,-y,-z
_cell_length_a                   8.4580(12)
_cell_length_b                   10.6150(15)
_cell_length_c                   11.5384(18)
_cell_angle_alpha                117.056(13)
_cell_angle_beta                 89.986(13)
_cell_angle_gamma                113.448(12)
_cell_volume                     825.41
loop_
_atom_site_label
_atom_site_type_symbol
_atom_site_fract_x
_atom_site_fract_y
_atom_site_fract_z
Cu1 Cu 0.18218(5) 0.00001(5) 0.25003(5)
N1 N 0.2779(4) -0.1668(4) 0.1723(4)
C1 C 0.1980(8) -0.2922(6) 0.2081(6)
H1 H 0.2158 -0.2452 0.3034
H2 H 0.2528 -0.3619 0.1754
H3 H 0.0737 -0.3512 0.1688
C2 C 0.2466(10) -0.2453(8) 0.0259(6)
H4 H 0.1218 -0.3014 -0.0115
H5 H 0.2969 -0.3184 -0.0054
H6 H 0.3007 -0.1675 -0.0010
C3 C 0.4684(7) -0.0782(7) 0.2368(9)
H7 H 0.4832 -0.0779 0.3203
H8 H 0.5301 -0.1333 0.1798
N2 N 0.4448(4) 0.1669(4) 0.3283(4)
C4 C 0.5468(7) 0.0779(8) 0.2626(9)
H9 H 0.5606 0.0777 0.1790
H10 H 0.6639 0.1326 0.3191
C5 C 0.4901(6) 0.2924(6) 0.2921(6)
H11 H 0.4597 0.2450 0.1968
H12 H 0.6145 0.3616 0.3240
H13 H 0.4253 0.3519 0.3320
C6 C 0.4926(7) 0.2451(7) 0.4738(6)
H14 H 0.4661 0.1670 0.5009
H15 H 0.4264 0.3037 0.5116
H16 H 0.6167 0.3158 0.5045
O1 O -0.0584(3) -0.1664(3) 0.1530(3)
O2 O -0.1616(4) -0.2224(4) 0.3110(3)
C7 C -0.1757(4) -0.2440(4) 0.1950(4)
C8 C -0.3434(4) -0.3762(4) 0.0931(3)
C9 C -0.3697(4) -0.4067(4) -0.0383(4)
H17 H -0.2825 -0.3445 -0.0644
C10 C -0.4754(5) -0.4708(4) 0.1301(3)
H18 H -0.4594 -0.4518 0.2173
O3 O 0.1078(3) 0.1663(3) 0.3472(3)
O4 O 0.0608(4) 0.2223(4) 0.1889(3)
C11 C 0.0685(4) 0.2439(4) 0.3047(4)
C12 C 0.0327(4) 0.3767(4) 0.4074(3)
C13 C 0.0366(5) 0.4066(4) 0.5386(4)
H19 H 0.0609 0.3440 0.5646
C14 C -0.0043(5) 0.4711(4) 0.3702(3)
H20 H -0.0074 0.4517 0.2829
O5 O 0.2100(4) 0.0309(4) 0.0380(4)
O6 O 0.1785(4) -0.0310(4) 0.4621(4)
C10A C -0.5246(5) -0.5292(4) -0.1301(3)
C8A C -0.6566(4) -0.6238(4) -0.0931(3)
C7A C -0.8243(4) -0.7560(4) -0.1950(4)
O1A O -0.9416(3) -0.8336(3) -0.1530(3)
O2A O -0.8384(4) -0.7776(4) -0.3110(3)
C9A C -0.6303(4) -0.5933(4) 0.0383(4)
H17A H -0.7175 -0.6555 0.0644
H18A H -0.5406 -0.5482 -0.2173
C14A C 0.0043(5) 0.5289(4) 0.6298(3)
C12A C -0.0327(4) 0.6233(4) 0.5926(3)
C11A C -0.0685(4) 0.7561(4) 0.6953(4)
O3A O -0.1078(3) 0.8337(3) 0.6528(3)
O4A O -0.0608(4) 0.7777(4) 0.8111(3)
C13A C -0.0366(5) 0.5934(4) 0.4614(4)
H19A H -0.0609 0.6560 0.4354
H20A H 0.0074 0.5483 0.7171
Cu1A Cu -1.18218(5) -1.00001(5) -0.25003(5)
N1A N -1.2779(4) -0.8332(4) -0.1723(4)
C1A C -1.1980(8) -0.7078(6) -0.2081(6)
H1A H -1.2158 -0.7548 -0.3034
H2A H -1.2528 -0.6381 -0.1754
H3A H -1.0737 -0.6488 -0.1688
C2A C -1.2466(10) -0.7547(8) -0.0259(6)
H4A H -1.1218 -0.6986 0.0115
H5A H -1.2969 -0.6816 0.0054
H6A H -1.3007 -0.8325 0.0010
C3A C -1.4684(7) -0.9218(7) -0.2368(9)
H7A H -1.4832 -0.9221 -0.3203
H8A H -1.5301 -0.8667 -0.1798
N2A N -1.4448(4) -1.1669(4) -0.3283(4)
C4A C -1.5468(7) -1.0779(8) -0.2626(9)
H9A H -1.5606 -1.0777 -0.1790
H10A H -1.6639 -1.1326 -0.3191
C5A C -1.4901(6) -1.2924(6) -0.2921(6)
H11A H -1.4597 -1.2450 -0.1968
H12A H -1.6145 -1.3616 -0.3240
H13A H -1.4253 -1.3519 -0.3320
C6A C -1.4926(7) -1.2451(7) -0.4738(6)
H14A H -1.4661 -1.1670 -0.5009
H15A H -1.4264 -1.3037 -0.5116
H16A H -1.6167 -1.3158 -0.5045
O5A O -1.2100(4) -1.0309(4) -0.0380(4)
O6A O -1.1785(4) -0.9690(4) -0.4621(4)
Cu1A_2 Cu -0.18218(5) 0.99999(5) 0.74997(5)
O3A_2 O -1.1078(3) -1.1663(3) -0.3472(3)
loop_
_geom_bond_atom_site_label_1
_geom_bond_atom_site_label_2
_geom_bond_site_symmetry_1
_geom_bond_site_symmetry_2
Cu1 N1 1_555 1_555
N1 C1 1_555 1_555
C1 H1 1_555 1_555
H2 C1 1_555 1_555
H3 C1 1_555 1_555
C2 N1 1_555 1_555
H4 C2 1_555 1_555
H5 C2 1_555 1_555
H6 C2 1_555 1_555
C3 N1 1_555 1_555
H7 C3 1_555 1_555
H8 C3 1_555 1_555
N2 Cu1 1_555 1_555
C4 C3 1_555 1_555
H9 C4 1_555 1_555
H10 C4 1_555 1_555
C5 N2 1_555 1_555
H11 C5 1_555 1_555
H12 C5 1_555 1_555
H13 C5 1_555 1_555
C6 N2 1_555 1_555
H14 C6 1_555 1_555
H15 C6 1_555 1_555
H16 C6 1_555 1_555
O1 Cu1 1_555 1_555
O2 C7 1_555 1_555
C7 O1 1_555 1_555
C8 C7 1_555 1_555
C9 C8 1_555 1_555
H17 C9 1_555 1_555
C10 C8 1_555 1_555
H18 C10 1_555 1_555
O3 Cu1 1_555 1_555
O4 C11 1_555 1_555
C11 O3 1_555 1_555
C12 C11 1_555 1_555
C13 C12 1_555 1_555
H19 C13 1_555 1_555
C14 C12 1_555 1_555
H20 C14 1_555 1_555
O5 Cu1 1_555 1_555
O6 Cu1 1_555 1_555
C10A C9 1_555 1_555
C8A C10A 1_555 1_555
C7A C8A 1_555 1_555
O1A C7A 1_555 1_555
O2A C7A 1_555 1_555
C9A C10 1_555 1_555
H17A C9A 1_555 1_555
H18A C10A 1_555 1_555
C14A C13 1_555 1_555
C12A C14A 1_555 1_555
C11A C12A 1_555 1_555
O3A C11A 1_555 1_555
O4A C11A 1_555 1_555
C13A C14 1_555 1_555
H19A C13A 1_555 1_555
H20A C14A 1_555 1_555
Cu1A O1A 1_555 1_555
N1A Cu1A 1_555 1_555
C1A N1A 1_555 1_555
H1A C1A 1_555 1_555
H2A C1A 1_555 1_555
H3A C1A 1_555 1_555
C2A N1A 1_555 1_555
H4A C2A 1_555 1_555
H5A C2A 1_555 1_555
H6A C2A 1_555 1_555
C3A N1A 1_555 1_555
H7A C3A 1_555 1_555
H8A C3A 1_555 1_555
N2A Cu1A 1_555 1_555
C4A C3A 1_555 1_555
H9A C4A 1_555 1_555
H10A C4A 1_555 1_555
C5A N2A 1_555 1_555
H11A C5A 1_555 1_555
H12A C5A 1_555 1_555
H13A C5A 1_555 1_555
C6A N2A 1_555 1_555
H14A C6A 1_555 1_555
H15A C6A 1_555 1_555
H16A C6A 1_555 1_555
O5A Cu1A 1_555 1_555
O6A Cu1A 1_555 1_555
Cu1A_2 O3A 1_555 1_555
O3A_2 Cu1A 1_555 1_555
N2 C4 1_555 1_555
C8A C9A 1_555 1_555
C12A C13A 1_555 1_555
N2A C4A 1_555 1_555

#END
