
#######################################################################
#
#                 Cambridge Crystallographic Data Centre
#                                CCDC 
#
#######################################################################
#
# If this CIF has been generated from an entry in the Cambridge 
# Structural Database, then it will include bibliographic, chemical, 
# crystal, experimental, refinement or atomic coordinate data resulting 
# from the CCDC's data processing and validation procedures.
#
#######################################################################

data_QAMFUF02
_symmetry_cell_setting           trigonal
_symmetry_space_group_name_H-M   'P 31 2 1'
_symmetry_Int_Tables_number      152
_space_group_name_Hall           'P 31 2"'
loop_
_symmetry_equiv_pos_site_id
_symmetry_equiv_pos_as_xyz
1 x,y,z
2 -y,x-y,1/3+z
3 -x+y,-x,2/3+z
4 x-y,-y,2/3-z
5 -x,-x+y,1/3-z
6 y,x,-z
_cell_length_a                   11.115(4)
_cell_length_b                   11.115(4)
_cell_length_c                   11.581(5)
_cell_angle_alpha                90
_cell_angle_beta                 90
_cell_angle_gamma                120
_cell_volume                     1239.07
loop_
_atom_site_label
_atom_site_type_symbol
_atom_site_fract_x
_atom_site_fract_y
_atom_site_fract_z
C1 C -0.3366(2) 0.6666(2) 0.72810(16)
C2 C -0.4388(3) 0.6360(3) 0.64523(16)
H1 H -0.4238 0.6970 0.5847
C3 C -0.5626(3) 0.5131(3) 0.65525(18)
C4 C -0.5914(3) 0.4170(2) 0.74191(19)
H2 H -0.6753 0.3338 0.7462
C5 C -0.4863(2) 0.4532(2) 0.82188(17)
C6 C -0.3612(2) 0.5748(2) 0.81851(16)
H3 H -0.2945 0.5954 0.8753
C7 C -0.2005(2) 0.8000(2) 0.71971(16)
N1 N -0.6711(2) 0.4789(3) 0.5674(2)
N2 N -0.5144(2) 0.3554(2) 0.91793(17)
O1 O -0.11892(17) 0.82862(16) 0.80386(13)
O2 O -0.17905(25) 0.87293(18) 0.63094(13)
O3 O -0.6477(2) 0.5619(3) 0.49067(17)
O4 O -0.7786(3) 0.3681(3) 0.5768(2)
O5 O -0.6233(2) 0.2447(2) 0.91486(18)
O6 O -0.4291(2) 0.3898(2) 0.99409(16)
Zn1 Zn 0.05169(3) 1.0000 0.8333
C1C C -0.0032(3) 1.3334(2) 0.93857(16)
C2C C -0.0748(4) 1.3640(3) 1.02144(16)
H1C H -0.1208 1.3030 1.0820
C3C C -0.0757(4) 1.4869(3) 1.01142(18)
C4C C -0.0084(4) 1.5830(2) 0.92476(19)
H2C H -0.0091 1.6662 0.9205
C5C C 0.0605(3) 1.5468(2) 0.84479(17)
C6C C 0.0640(3) 1.4252(2) 0.84816(16)
H3C H 0.1101 1.4046 0.7914
C7C C -0.0005(3) 1.2000(2) 0.94696(16)
N1C N -0.1500(4) 1.5211(3) 1.0993(2)
N2C N 0.1302(3) 1.6446(2) 0.74874(17)
O1C O 0.05246(23) 1.17138(16) 0.86281(13)
O2C O -0.05198(31) 1.12707(18) 1.03573(13)
O3C O -0.2096(4) 1.4381(3) 1.17600(17)
O4C O -0.1467(4) 1.6319(3) 1.0899(2)
O5C O 0.1320(3) 1.7553(2) 0.75181(18)
O6C O 0.1811(3) 1.6102(2) 0.67258(16)
O2A O 0.12707(18) 0.94802(31) 0.96427(13)
O2D O 0.17905(25) 1.05198(31) 0.70239(13)
Zn1A Zn 0.0000 1.05169(3) 1.1666
Zn1B Zn -0.05169(3) 0.94831(3) 0.5000
loop_
_geom_bond_atom_site_label_1
_geom_bond_atom_site_label_2
_geom_bond_site_symmetry_1
_geom_bond_site_symmetry_2
C1 C2 1_555 1_555
C2 H1 1_555 1_555
C3 C2 1_555 1_555
C4 C3 1_555 1_555
H2 C4 1_555 1_555
C5 C4 1_555 1_555
C6 C1 1_555 1_555
H3 C6 1_555 1_555
C7 C1 1_555 1_555
N1 C3 1_555 1_555
N2 C5 1_555 1_555
O1 C7 1_555 1_555
O2 C7 1_555 1_555
O3 N1 1_555 1_555
O4 N1 1_555 1_555
O5 N2 1_555 1_555
O6 N2 1_555 1_555
Zn1 O1 1_555 1_555
C1C C2C 1_555 1_555
C2C H1C 1_555 1_555
C3C C2C 1_555 1_555
C4C C3C 1_555 1_555
H2C C4C 1_555 1_555
C5C C4C 1_555 1_555
C6C C1C 1_555 1_555
H3C C6C 1_555 1_555
C7C C1C 1_555 1_555
N1C C3C 1_555 1_555
N2C C5C 1_555 1_555
O1C Zn1 1_555 1_555
O2C C7C 1_555 1_555
O3C N1C 1_555 1_555
O4C N1C 1_555 1_555
O5C N2C 1_555 1_555
O6C N2C 1_555 1_555
O2A Zn1 1_555 1_555
O2D Zn1 1_555 1_555
Zn1A O2C 1_555 1_555
Zn1B O2 1_555 1_555
C5 C6 1_555 1_555
C5C C6C 1_555 1_555
C7C O1C 1_555 1_555

#END
