
#######################################################################
#
#                 Cambridge Crystallographic Data Centre
#                                CCDC 
#
#######################################################################
#
# If this CIF has been generated from an entry in the Cambridge 
# Structural Database, then it will include bibliographic, chemical, 
# crystal, experimental, refinement or atomic coordinate data resulting 
# from the CCDC's data processing and validation procedures.
#
#######################################################################

data_QAMFUF03
_symmetry_cell_setting           trigonal
_symmetry_space_group_name_H-M   'P 32 2 1'
_symmetry_Int_Tables_number      154
_space_group_name_Hall           'P 32 2"'
loop_
_symmetry_equiv_pos_site_id
_symmetry_equiv_pos_as_xyz
1 x,y,z
2 -y,x-y,2/3+z
3 -x+y,-x,1/3+z
4 y,x,-z
5 x-y,-y,1/3-z
6 -x,-x+y,2/3-z
_cell_length_a                   11.1029(4)
_cell_length_b                   11.1029(4)
_cell_length_c                   11.5958(8)
_cell_angle_alpha                90
_cell_angle_beta                 90
_cell_angle_gamma                120
_cell_volume                     1237.95
loop_
_atom_site_label
_atom_site_type_symbol
_atom_site_fract_x
_atom_site_fract_y
_atom_site_fract_z
Zn1 Zn 0.94775(4) 0.0000 0.1667
O1 O 0.9457(2) -0.1727(2) 0.13843(18)
O2 O 1.0537(2) -0.1264(2) -0.03407(19)
O3 O 1.2104(3) -0.4370(3) -0.17634(19)
O4 O 1.1479(4) -0.6326(3) -0.0903(3)
O5 O 0.8671(3) -0.7594(3) 0.2482(2)
O6 O 0.8192(3) -0.6128(3) 0.3291(2)
N1 N 1.1506(3) -0.5207(3) -0.0995(3)
N2 N 0.8692(3) -0.6474(3) 0.2520(2)
C1 C 0.9995(3) -0.2008(3) 0.0552(3)
C2 C 1.0027(3) -0.3347(3) 0.0630(3)
C3 C 1.0747(3) -0.3645(3) -0.0205(2)
H1 H 1.1213 -0.3017 -0.0821
C4 C 1.0763(3) -0.4879(3) -0.0110(2)
C5 C 1.0078(3) -0.5849(3) 0.0750(2)
H2 H 1.0079 -0.6704 0.0784
C6 C 0.9391(3) -0.5492(3) 0.1558(2)
C7 C 0.9350(3) -0.4275(3) 0.1524(2)
H3 H 0.8869 -0.4073 0.2101
O1C O 0.8273(2) -0.0543(2) -0.13843(18)
O2C O 0.8736(2) 0.0537(2) 0.03407(19)
O3C O 0.5630(3) 0.2104(3) 0.17634(19)
O4C O 0.3674(3) 0.1479(4) 0.0903(3)
O5C O 0.2406(3) -0.1329(3) -0.2482(2)
O6C O 0.3872(3) -0.1808(3) -0.3291(2)
N1C N 0.4793(3) 0.1506(3) 0.0995(3)
N2C N 0.3526(3) -0.1308(3) -0.2520(2)
C1C C 0.7992(3) -0.0005(3) -0.0552(3)
C2C C 0.6653(3) 0.0027(3) -0.0630(3)
C3C C 0.6355(3) 0.0747(3) 0.0205(2)
H1C H 0.6983 0.1213 0.0821
C4C C 0.5121(3) 0.0763(3) 0.0110(2)
C5C C 0.4151(3) 0.0078(3) -0.0750(2)
H2C H 0.3296 0.0079 -0.0784
C6C C 0.4508(3) -0.0609(3) -0.1558(2)
C7C C 0.5725(3) -0.0650(3) -0.1524(2)
H3C H 0.5927 -0.1131 -0.2101
Zn1A Zn 1.0000 -0.05225(4) -0.1666
O1D O 1.1184(3) 0.1727(2) 0.19490(18)
O2B O 0.8199(3) -0.0537(2) 0.29926(19)
loop_
_geom_bond_atom_site_label_1
_geom_bond_atom_site_label_2
_geom_bond_site_symmetry_1
_geom_bond_site_symmetry_2
Zn1 O1 1_555 1_555
O1 C1 1_555 1_555
O2 C1 1_555 1_555
O3 N1 1_555 1_555
O4 N1 1_555 1_555
O5 N2 1_555 1_555
O6 N2 1_555 1_555
N1 C4 1_555 1_555
N2 C6 1_555 1_555
C1 C2 1_555 1_555
C2 C3 1_555 1_555
C3 H1 1_555 1_555
C4 C3 1_555 1_555
C5 C4 1_555 1_555
H2 C5 1_555 1_555
C6 C5 1_555 1_555
C7 C2 1_555 1_555
H3 C7 1_555 1_555
O1C C1C 1_555 1_555
O2C Zn1 1_555 1_555
O3C N1C 1_555 1_555
O4C N1C 1_555 1_555
O5C N2C 1_555 1_555
O6C N2C 1_555 1_555
N1C C4C 1_555 1_555
N2C C6C 1_555 1_555
C1C O2C 1_555 1_555
C2C C1C 1_555 1_555
C3C C2C 1_555 1_555
H1C C3C 1_555 1_555
C4C C3C 1_555 1_555
C5C C4C 1_555 1_555
H2C C5C 1_555 1_555
C6C C5C 1_555 1_555
C7C C2C 1_555 1_555
H3C C7C 1_555 1_555
Zn1A O2 1_555 1_555
O1D Zn1 1_555 1_555
O2B Zn1 1_555 1_555
C6 C7 1_555 1_555
O1C Zn1A 1_555 1_555
C6C C7C 1_555 1_555

#END
