
#######################################################################
#
#                 Cambridge Crystallographic Data Centre
#                                CCDC 
#
#######################################################################
#
# If this CIF has been generated from an entry in the Cambridge 
# Structural Database, then it will include bibliographic, chemical, 
# crystal, experimental, refinement or atomic coordinate data resulting 
# from the CCDC's data processing and validation procedures.
#
#######################################################################

data_QAMFUF
_symmetry_cell_setting           trigonal
_symmetry_space_group_name_H-M   'P 31 2 1'
_symmetry_Int_Tables_number      152
_space_group_name_Hall           'P 31 2"'
loop_
_symmetry_equiv_pos_site_id
_symmetry_equiv_pos_as_xyz
1 x,y,z
2 -y,x-y,1/3+z
3 -x+y,-x,2/3+z
4 y,x,-z
5 x-y,-y,2/3-z
6 -x,-x+y,1/3-z
_cell_length_a                   11.042(4)
_cell_length_b                   11.042(4)
_cell_length_c                   11.498(5)
_cell_angle_alpha                90
_cell_angle_beta                 90
_cell_angle_gamma                120
_cell_volume                     1214.08
loop_
_atom_site_label
_atom_site_type_symbol
_atom_site_fract_x
_atom_site_fract_y
_atom_site_fract_z
Zn1 Zn 0.0516 0.05159(5) -0.5000
O1 O 0.1192(2) 0.1716(3) -0.19607(19)
O2 O 0.1789(2) 0.1270(2) -0.36921(19)
C1 C 0.2004(3) 0.2001(3) -0.2803(3)
C2 C 0.3366(4) 0.3337(4) -0.2716(3)
C3 C 0.4382(4) 0.3631(4) -0.3550(3)
H1 H 0.4224 0.2995 -0.4177
C4 C 0.5630(4) 0.4867(4) -0.3449(3)
C5 C 0.5917(3) 0.5830(4) -0.2581(3)
H2 H 0.6792 0.6691 -0.2531
C6 C 0.4866(3) 0.5468(4) -0.1781(3)
C7 C 0.3610(4) 0.4252(4) -0.1815(3)
H3 H 0.2914 0.4042 -0.1228
N1 N 0.6708(4) 0.5211(3) -0.4337(3)
O3 O 0.6476(4) 0.4377(4) -0.5093(2)
O4 O 0.7786(4) 0.6324(4) -0.4233(3)
N2 N 0.5150(3) 0.6454(3) -0.0821(2)
O5 O 0.6235(3) 0.7554(4) -0.0842(2)
O6 O 0.4290(3) 0.6106(3) -0.0052(2)
Zn1A Zn -0.05159(5) 0.00001(5) -0.1667
O1B O 0.0524(4) -0.1192(2) -0.52940(19)
O2C O 0.1270(2) 0.1789(2) -0.63079(19)
O1E O -0.1192(2) 0.0524(4) -0.47060(19)
C1E C -0.2004(3) -0.0003(4) -0.3864(3)
O2E O -0.1789(2) -0.0519(3) -0.29746(19)
C2E C -0.3366(4) -0.0029(6) -0.3951(3)
C3E C -0.4382(4) -0.0751(6) -0.3117(3)
H1E H -0.4224 -0.1229 -0.2490
C4E C -0.5630(4) -0.0763(6) -0.3218(3)
C5E C -0.5917(3) -0.0087(5) -0.4086(3)
H2E H -0.6792 -0.0101 -0.4136
C6E C -0.4866(3) 0.0602(5) -0.4886(3)
C7E C -0.3610(4) 0.0642(6) -0.4852(3)
H3E H -0.2914 0.1128 -0.5439
N2E N -0.5150(3) 0.1304(4) -0.5846(2)
O5E O -0.6235(3) 0.1319(5) -0.5825(2)
O6E O -0.4290(3) 0.1816(4) -0.6615(2)
N1E N -0.6708(4) -0.1497(5) -0.2330(3)
O3E O -0.6476(4) -0.2099(6) -0.1574(2)
O4E O -0.7786(4) -0.1462(6) -0.2434(3)
loop_
_geom_bond_atom_site_label_1
_geom_bond_atom_site_label_2
_geom_bond_site_symmetry_1
_geom_bond_site_symmetry_2
Zn1 O2 1_555 1_555
O1 C1 1_555 1_555
O2 C1 1_555 1_555
C1 C2 1_555 1_555
C2 C3 1_555 1_555
C3 H1 1_555 1_555
C4 C3 1_555 1_555
C5 C4 1_555 1_555
H2 C5 1_555 1_555
C6 C5 1_555 1_555
C7 C2 1_555 1_555
H3 C7 1_555 1_555
N1 C4 1_555 1_555
O3 N1 1_555 1_555
O4 N1 1_555 1_555
N2 C6 1_555 1_555
O5 N2 1_555 1_555
O6 N2 1_555 1_555
Zn1A O1 1_555 1_555
O1B Zn1 1_555 1_555
O2C Zn1 1_555 1_555
O1E Zn1 1_555 1_555
C1E O1E 1_555 1_555
O2E Zn1A 1_555 1_555
C2E C1E 1_555 1_555
C3E C2E 1_555 1_555
H1E C3E 1_555 1_555
C4E C3E 1_555 1_555
C5E C4E 1_555 1_555
H2E C5E 1_555 1_555
C6E C5E 1_555 1_555
C7E C2E 1_555 1_555
H3E C7E 1_555 1_555
N2E C6E 1_555 1_555
O5E N2E 1_555 1_555
O6E N2E 1_555 1_555
N1E C4E 1_555 1_555
O3E N1E 1_555 1_555
O4E N1E 1_555 1_555
C6 C7 1_555 1_555
C1E O2E 1_555 1_555
C6E C7E 1_555 1_555

#END
