
#######################################################################
#
#                 Cambridge Crystallographic Data Centre
#                                CCDC 
#
#######################################################################
#
# If this CIF has been generated from an entry in the Cambridge 
# Structural Database, then it will include bibliographic, chemical, 
# crystal, experimental, refinement or atomic coordinate data resulting 
# from the CCDC's data processing and validation procedures.
#
#######################################################################

data_QAMJEU
_symmetry_cell_setting           rhombohedral
_symmetry_space_group_name_H-M   'R -3'
_symmetry_Int_Tables_number      148
_space_group_name_Hall           '-R 3'
loop_
_symmetry_equiv_pos_site_id
_symmetry_equiv_pos_as_xyz
1 x,y,z
2 -y,x-y,z
3 -x+y,-x,z
4 2/3+x,1/3+y,1/3+z
5 2/3-y,1/3+x-y,1/3+z
6 2/3-x+y,1/3-x,1/3+z
7 1/3+x,2/3+y,2/3+z
8 2/3+y,1/3-x+y,1/3-z
9 2/3+x-y,1/3+x,1/3-z
10 -x,-y,-z
11 y,-x+y,-z
12 x-y,x,-z
13 1/3-x,2/3-y,2/3-z
14 1/3+y,2/3-x+y,2/3-z
15 1/3+x-y,2/3+x,2/3-z
16 2/3-x,1/3-y,1/3-z
17 1/3-y,2/3+x-y,2/3+z
18 1/3-x+y,2/3-x,2/3+z
_cell_length_a                   19.410(3)
_cell_length_b                   19.410(3)
_cell_length_c                   7.5413(15)
_cell_angle_alpha                90
_cell_angle_beta                 90
_cell_angle_gamma                120.00
_cell_volume                     2460.53
loop_
_atom_site_label
_atom_site_type_symbol
_atom_site_fract_x
_atom_site_fract_y
_atom_site_fract_z
Cd1 Cd 0.3333 0.6667 0.1667
N1 N 0.10947(13) 0.54943(16) 0.4828(3)
N2 N 0.14150(17) 0.50801(19) 0.5543(4)
N3 N 0.22071(11) 0.59081(12) 0.3437(3)
C1 C 0.20877(18) 0.5368(2) 0.4690(5)
H1 H 0.2458 0.5209 0.4931
C2 C 0.15688(16) 0.59806(18) 0.3574(4)
H2 H 0.1467 0.6320 0.2897
C3 C 0.03218(18) 0.5371(2) 0.5408(5)
H3 H 0.0265 0.5820 0.5055
H4 H 0.0284 0.5328 0.6690
C3I C -0.03218(18) 0.4629(2) 0.4592(5)
N1I N -0.10947(13) 0.45057(16) 0.5172(3)
N2I N -0.14150(17) 0.49199(19) 0.4457(4)
C1I C -0.20877(18) 0.4632(2) 0.5310(5)
N3I N -0.22071(11) 0.40919(12) 0.6563(3)
C2I C -0.15688(16) 0.40194(18) 0.6426(4)
H2I H -0.1467 0.3680 0.7103
H1I H -0.2458 0.4791 0.5069
H3I H -0.0265 0.4180 0.4945
H4I H -0.0284 0.4672 0.3310
N1A N 0.45057(16) 0.56004(21) 0.4828(3)
N2A N 0.49199(19) 0.63349(25) 0.5543(4)
N3A N 0.40919(12) 0.62990(16) 0.3437(3)
C1A C 0.4632(2) 0.67197(27) 0.4690(5)
H1A H 0.4791 0.7249 0.4931
C2A C 0.40194(18) 0.55882(24) 0.3574(4)
H2A H 0.3680 0.5147 0.2897
C3A C 0.4629(2) 0.49508(27) 0.5408(5)
H3A H 0.4180 0.4445 0.5055
H4A H 0.4672 0.4956 0.6690
C3J C 0.5371(2) 0.50492(27) 0.4592(5)
N1J N 0.54943(16) 0.43996(21) 0.5172(3)
N2J N 0.50801(19) 0.36651(25) 0.4457(4)
C1J C 0.5368(2) 0.32803(27) 0.5310(5)
N3J N 0.59081(12) 0.37010(16) 0.6563(3)
C2J C 0.59806(18) 0.44118(24) 0.6426(4)
H2J H 0.6320 0.4853 0.7103
H1J H 0.5209 0.2751 0.5069
H3J H 0.5820 0.5555 0.4945
H4J H 0.5328 0.5044 0.3310
N1B N 0.43996(21) 0.89053(13) 0.4828(3)
N2B N 0.36651(25) 0.85850(17) 0.5543(4)
N3B N 0.37010(16) 0.77929(11) 0.3437(3)
C1B C 0.32803(27) 0.79123(18) 0.4690(5)
H1B H 0.2751 0.7542 0.4931
C2B C 0.44118(24) 0.84312(16) 0.3574(4)
H2B H 0.4853 0.8533 0.2897
C3B C 0.50492(27) 0.96782(18) 0.5408(5)
H3B H 0.5555 0.9735 0.5055
H4B H 0.5044 0.9716 0.6690
C3K C 0.49508(27) 1.03218(18) 0.4592(5)
N1K N 0.56004(21) 1.10947(13) 0.5172(3)
N2K N 0.63349(25) 1.14150(17) 0.4457(4)
C1K C 0.67197(27) 1.20877(18) 0.5310(5)
N3K N 0.62990(16) 1.22071(11) 0.6563(3)
C2K C 0.55882(24) 1.15688(16) 0.6426(4)
H2K H 0.5147 1.1467 0.7103
H1K H 0.7249 1.2458 0.5069
H3K H 0.4445 1.0265 0.4945
H4K H 0.4956 1.0284 0.3310
N3G N 0.25748(12) 0.70343(16) -0.0104(3)
N3H N 0.29657(16) 0.55404(11) -0.0104(3)
N3O N 0.44596(11) 0.74252(12) -0.0104(3)
Cd1F Cd -0.3334 0.3334 0.8334
Cd1F_2 Cd 0.6666 0.3334 0.8334
Cd1F_3 Cd 0.6666 1.3334 0.8334
N4 N 0.0886(10) 0.7431(11) 0.3392(18)
O1 O 0.0322(12) 0.7310(13) 0.423(3)
O2 O 0.0374(19) 0.6814(16) 0.309(7)
O3 O 0.142(2) 0.747(2) 0.257(5)
O4? O 0.132(2) 0.8138(16) 0.343(6)
O5? O 0.075(2) 0.693(2) 0.239(5)
loop_
_geom_bond_atom_site_label_1
_geom_bond_atom_site_label_2
_geom_bond_site_symmetry_1
_geom_bond_site_symmetry_2
Cd1 N3 1_555 1_555
N1 N2 1_555 1_555
N2 C1 1_555 1_555
N3 C1 1_555 1_555
N4 O1 1_555 1_555
C1 H1 1_555 1_555
C2 N1 1_555 1_555
H2 C2 1_555 1_555
C3 N1 1_555 1_555
H3 C3 1_555 1_555
H4 C3 1_555 1_555
O2 N4 1_555 1_555
O3 N4 1_555 1_555
C3I C3 1_555 1_555
N1I C3I 1_555 1_555
N2I N1I 1_555 1_555
C1I N2I 1_555 1_555
N3I C1I 1_555 1_555
C2I N1I 1_555 1_555
H2I C2I 1_555 1_555
H1I C1I 1_555 1_555
H3I C3I 1_555 1_555
H4I C3I 1_555 1_555
N1A N2A 1_555 1_555
N2A C1A 1_555 1_555
N3A Cd1 1_555 1_555
C1A N3A 1_555 1_555
H1A C1A 1_555 1_555
C2A N1A 1_555 1_555
H2A C2A 1_555 1_555
C3A N1A 1_555 1_555
H3A C3A 1_555 1_555
H4A C3A 1_555 1_555
C3J C3A 1_555 1_555
N1J C3J 1_555 1_555
N2J N1J 1_555 1_555
C1J N2J 1_555 1_555
N3J C1J 1_555 1_555
C2J N1J 1_555 1_555
H2J C2J 1_555 1_555
H1J C1J 1_555 1_555
H3J C3J 1_555 1_555
H4J C3J 1_555 1_555
N1B N2B 1_555 1_555
N2B C1B 1_555 1_555
N3B Cd1 1_555 1_555
C1B N3B 1_555 1_555
H1B C1B 1_555 1_555
C2B N1B 1_555 1_555
H2B C2B 1_555 1_555
C3B N1B 1_555 1_555
H3B C3B 1_555 1_555
H4B C3B 1_555 1_555
C3K C3B 1_555 1_555
N1K C3K 1_555 1_555
N2K N1K 1_555 1_555
C1K N2K 1_555 1_555
N3K C1K 1_555 1_555
C2K N1K 1_555 1_555
H2K C2K 1_555 1_555
H1K C1K 1_555 1_555
H3K C3K 1_555 1_555
H4K C3K 1_555 1_555
N3G Cd1 1_555 1_555
N3H Cd1 1_555 1_555
N3O Cd1 1_555 1_555
Cd1F N3I 1_555 1_555
Cd1F_2 N3J 1_555 1_555
Cd1F_3 N3K 1_555 1_555
N3 C2 1_555 1_555
N3I C2I 1_555 1_555
N3A C2A 1_555 1_555
N3J C2J 1_555 1_555
N3B C2B 1_555 1_555
N3K C2K 1_555 1_555

#END
