
#######################################################################
#
#                 Cambridge Crystallographic Data Centre
#                                CCDC 
#
#######################################################################
#
# If this CIF has been generated from an entry in the Cambridge 
# Structural Database, then it will include bibliographic, chemical, 
# crystal, experimental, refinement or atomic coordinate data resulting 
# from the CCDC's data processing and validation procedures.
#
#######################################################################

data_QAMJIY01
_symmetry_cell_setting           monoclinic
_symmetry_space_group_name_H-M   'P 21/c'
_symmetry_Int_Tables_number      14
_space_group_name_Hall           '-P 2ybc'
loop_
_symmetry_equiv_pos_site_id
_symmetry_equiv_pos_as_xyz
1 x,y,z
2 -x,1/2+y,1/2-z
3 -x,-y,-z
4 x,1/2-y,1/2+z
_cell_length_a                   8.767(4)
_cell_length_b                   12.523(6)
_cell_length_c                   10.476(5)
_cell_angle_alpha                90
_cell_angle_beta                 100.963(7)
_cell_angle_gamma                90
_cell_volume                     1129.16
loop_
_atom_site_label
_atom_site_type_symbol
_atom_site_fract_x
_atom_site_fract_y
_atom_site_fract_z
Cd1 Cd 0.0000 1.0000 0.0000
O1 O 0.1156(4) 1.1309(3) 0.1406(3)
H1 H 0.1558 1.1145 0.2269
H2 H 0.1289 1.2025 0.1259
N1 N 0.3441(3) 0.7564(2) 0.1712(3)
N2 N 0.2927(4) 0.7769(3) 0.2838(3)
N3 N 0.1631(4) 0.8758(3) 0.1199(3)
N4 N 0.3369(4) 0.5208(2) 0.2346(3)
N5 N 0.4274(4) 0.4675(3) 0.3341(4)
N6 N 0.1809(4) 0.4783(2) 0.3640(3)
C1 C 0.1840(5) 0.8488(3) 0.2473(4)
H3 H 0.1262 0.8786 0.3041
C2 C 0.2675(4) 0.8166(3) 0.0773(3)
H4 H 0.2846 0.8173 -0.0076
C3 C 0.4682(4) 0.6803(3) 0.1667(4)
H5 H 0.5378 0.6789 0.2505
H6 H 0.5274 0.7036 0.1024
C4 C 0.4068(5) 0.5684(3) 0.1329(4)
H7 H 0.3300 0.5711 0.0530
H8 H 0.4916 0.5234 0.1176
C5 C 0.1926(5) 0.5265(3) 0.2545(4)
H9 H 0.1110 0.5598 0.1990
C6 C 0.3282(5) 0.4435(4) 0.4077(4)
H10 H 0.3563 0.4053 0.4847
Cd1C Cd 0.0000 0.5000 0.5000
Cd1C_2 Cd 0.0000 1.5000 -0.5000
O1B O -0.1156(4) 0.8691(3) -0.1406(3)
H1B H -0.1558 0.8855 -0.2269
H2B H -0.1289 0.7975 -0.1259
N1B N -0.3441(3) 1.2436(2) -0.1712(3)
N2B N -0.2927(4) 1.2231(3) -0.2838(3)
N3B N -0.1631(4) 1.1242(3) -0.1199(3)
N4B N -0.3369(4) 1.4792(2) -0.2346(3)
N5B N -0.4274(4) 1.5325(3) -0.3341(4)
N6B N -0.1809(4) 1.5217(2) -0.3640(3)
N6C N 0.1809(4) 1.0217(2) -0.1360(3)
N6A N -0.1809(4) 0.9783(2) 0.1360(3)
C1B C -0.1840(5) 1.1512(3) -0.2473(4)
H3B H -0.1262 1.1214 -0.3041
C2B C -0.2675(4) 1.1834(3) -0.0773(3)
H4B H -0.2846 1.1827 0.0076
C3B C -0.4682(4) 1.3197(3) -0.1667(4)
H5B H -0.5378 1.3211 -0.2505
H6B H -0.5274 1.2964 -0.1024
C4B C -0.4068(5) 1.4316(3) -0.1329(4)
H7B H -0.3300 1.4289 -0.0530
H8B H -0.4916 1.4766 -0.1176
C5B C -0.1926(5) 1.4735(3) -0.2545(4)
H9B H -0.1110 1.4402 -0.1990
C6B C -0.3282(5) 1.5565(4) -0.4077(4)
H10B H -0.3563 1.5947 -0.4847
N7 N 0.8316(5) 0.6439(3) 0.0171(3)
O2 O 0.7247(5) 0.6888(3) -0.0540(4)
O3 O 0.9652(5) 0.6569(4) 0.0021(5)
O4 O 0.8030(4) 0.5809(3) 0.1025(3)
loop_
_geom_bond_atom_site_label_1
_geom_bond_atom_site_label_2
_geom_bond_site_symmetry_1
_geom_bond_site_symmetry_2
Cd1 O1 1_555 1_555
O1 H1 1_555 1_555
H2 O1 1_555 1_555
N1 N2 1_555 1_555
N2 C1 1_555 1_555
N3 Cd1 1_555 1_555
N4 N5 1_555 1_555
N5 C6 1_555 1_555
N6 C5 1_555 1_555
C1 N3 1_555 1_555
H3 C1 1_555 1_555
C2 N1 1_555 1_555
H4 C2 1_555 1_555
C3 N1 1_555 1_555
H5 C3 1_555 1_555
H6 C3 1_555 1_555
C4 N4 1_555 1_555
H7 C4 1_555 1_555
H8 C4 1_555 1_555
C5 N4 1_555 1_555
H9 C5 1_555 1_555
C6 N6 1_555 1_555
H10 C6 1_555 1_555
N7 O2 1_555 1_555
O3 N7 1_555 1_555
O4 N7 1_555 1_555
Cd1C N6 1_555 1_555
Cd1C_2 N6B 1_555 1_555
O1B Cd1 1_555 1_555
H1B O1B 1_555 1_555
H2B O1B 1_555 1_555
N1B N2B 1_555 1_555
N2B C1B 1_555 1_555
N3B Cd1 1_555 1_555
N4B N5B 1_555 1_555
N5B C6B 1_555 1_555
N6B C5B 1_555 1_555
N6C Cd1 1_555 1_555
N6A Cd1 1_555 1_555
C1B N3B 1_555 1_555
H3B C1B 1_555 1_555
C2B N1B 1_555 1_555
H4B C2B 1_555 1_555
C3B N1B 1_555 1_555
H5B C3B 1_555 1_555
H6B C3B 1_555 1_555
C4B N4B 1_555 1_555
H7B C4B 1_555 1_555
H8B C4B 1_555 1_555
C5B N4B 1_555 1_555
H9B C5B 1_555 1_555
C6B N6B 1_555 1_555
H10B C6B 1_555 1_555
N3 C2 1_555 1_555
C3 C4 1_555 1_555
N3B C2B 1_555 1_555
C3B C4B 1_555 1_555

#END
