
#######################################################################
#
#                 Cambridge Crystallographic Data Centre
#                                CCDC 
#
#######################################################################
#
# If this CIF has been generated from an entry in the Cambridge 
# Structural Database, then it will include bibliographic, chemical, 
# crystal, experimental, refinement or atomic coordinate data resulting 
# from the CCDC's data processing and validation procedures.
#
#######################################################################

data_QAMJUK
_symmetry_cell_setting           triclinic
_symmetry_space_group_name_H-M   'P -1'
_symmetry_Int_Tables_number      2
_space_group_name_Hall           '-P 1'
loop_
_symmetry_equiv_pos_site_id
_symmetry_equiv_pos_as_xyz
1 x,y,z
2 -x,-y,-z
_cell_length_a                   8.311(2)
_cell_length_b                   8.601(2)
_cell_length_c                   10.341(3)
_cell_angle_alpha                66.367(10)
_cell_angle_beta                 76.888(13)
_cell_angle_gamma                77.197(12)
_cell_volume                     652.443
loop_
_atom_site_label
_atom_site_type_symbol
_atom_site_fract_x
_atom_site_fract_y
_atom_site_fract_z
Cd1 Cd 0.0000 0.0000 0.0000
N1 N -0.2520(3) 0.2923(3) 0.2744(3)
N2 N -0.2623(4) 0.4304(3) 0.1492(3)
N3 N -0.1233(3) 0.1954(3) 0.1082(3)
N4 N -0.2298(3) 0.5740(3) 0.3616(3)
N5 N -0.3728(3) 0.6855(4) 0.3343(3)
N6 N -0.1494(3) 0.8044(3) 0.1920(3)
O1 O 0.2164(4) -0.0929(5) 0.1375(3)
C1 C -0.1822(5) 0.3652(4) 0.0532(3)
H1 H -0.1670 0.4299 -0.0442
C2 C -0.1708(4) 0.1555(4) 0.2478(3)
H2 H -0.1498 0.0467 0.3169
C3 C -0.3180(4) 0.8220(4) 0.2324(4)
H3 H -0.3885 0.9223 0.1912
C4 C -0.0989(4) 0.6462(4) 0.2762(3)
H4 H 0.0116 0.5933 0.2758
C5 C -0.3328(4) 0.3070(4) 0.4106(3)
H5 H -0.3432 0.1932 0.4821
H6 H -0.4444 0.3701 0.4008
C6 C -0.2366(4) 0.3972(4) 0.4610(3)
H7 H -0.2902 0.3964 0.5549
H8 H -0.1240 0.3361 0.4687
H9 H 0.310(4) -0.141(6) 0.108(5)
H10 H 0.243(8) -0.047(10) 0.187(8)
N1A N 0.2520(3) -0.2923(3) -0.2744(3)
N2A N 0.2623(4) -0.4304(3) -0.1492(3)
N3A N 0.1233(3) -0.1954(3) -0.1082(3)
N4A N 0.2298(3) -0.5740(3) -0.3616(3)
N5A N 0.3728(3) -0.6855(4) -0.3343(3)
N6A N 0.1494(3) -0.8044(3) -0.1920(3)
C1A C 0.1822(5) -0.3652(4) -0.0532(3)
H1A H 0.1670 -0.4299 0.0442
C2A C 0.1708(4) -0.1555(4) -0.2478(3)
H2A H 0.1498 -0.0467 -0.3169
C3A C 0.3180(4) -0.8220(4) -0.2324(4)
H3A H 0.3885 -0.9223 -0.1912
C4A C 0.0989(4) -0.6462(4) -0.2762(3)
H4A H -0.0116 -0.5933 -0.2758
C5A C 0.3328(4) -0.3070(4) -0.4106(3)
H5A H 0.3432 -0.1932 -0.4821
H6A H 0.4444 -0.3701 -0.4008
C6A C 0.2366(4) -0.3972(4) -0.4610(3)
H7A H 0.2902 -0.3964 -0.5549
H8A H 0.1240 -0.3361 -0.4687
O1A O -0.2164(4) 0.0929(5) -0.1375(3)
H9A H -0.310(4) 0.141(6) -0.108(5)
H10A H -0.243(8) 0.047(10) -0.187(8)
N6_2 N -0.1494(3) -0.1956(3) 0.1920(3)
N6A_2 N 0.1494(3) 0.1956(3) -0.1920(3)
Cd1_2 Cd 0.0000 1.0000 0.0000
Cd1_3 Cd 0.0000 -1.0000 0.0000
O2 O 0.4208(6) 0.1490(10) 0.3070(10)
O3 O 0.2721(8) 0.3978(7) 0.3021(8)
O5 O 0.1656(11) 0.2702(12) 0.2213(7)
O7 O 0.227(2) 0.0358(15) 0.3328(15)
Cl1 Cl 0.25833(12) 0.21358(14) 0.32696(10)
O8 O -0.5039(5) 0.7439(6) 0.0309(4)
H11 H -0.454(8) 0.764(8) -0.042(4)
H12 H -0.468(9) 0.652(7) 0.092(5)
O4? O 0.2077(14) 0.1943(13) 0.4688(7)
O6? O 0.1390(14) 0.1317(16) 0.4372(12)
loop_
_geom_bond_atom_site_label_1
_geom_bond_atom_site_label_2
_geom_bond_site_symmetry_1
_geom_bond_site_symmetry_2
Cd1 N3 1_555 1_555
N1 N2 1_555 1_555
N2 C1 1_555 1_555
N3 C1 1_555 1_555
N4 N5 1_555 1_555
N5 C3 1_555 1_555
N6 C3 1_555 1_555
O1 Cd1 1_555 1_555
O2 Cl1 1_555 1_555
O3 Cl1 1_555 1_555
O5 Cl1 1_555 1_555
O7 Cl1 1_555 1_555
O8 H11 1_555 1_555
C1 H1 1_555 1_555
C2 N1 1_555 1_555
H2 C2 1_555 1_555
C3 H3 1_555 1_555
C4 N4 1_555 1_555
H4 C4 1_555 1_555
C5 N1 1_555 1_555
H5 C5 1_555 1_555
H6 C5 1_555 1_555
C6 N4 1_555 1_555
H7 C6 1_555 1_555
H8 C6 1_555 1_555
H9 O1 1_555 1_555
H10 O1 1_555 1_555
H12 O8 1_555 1_555
N1A N2A 1_555 1_555
N2A C1A 1_555 1_555
N3A Cd1 1_555 1_555
N4A N5A 1_555 1_555
N5A C3A 1_555 1_555
N6A C3A 1_555 1_555
C1A N3A 1_555 1_555
H1A C1A 1_555 1_555
C2A N1A 1_555 1_555
H2A C2A 1_555 1_555
C3A H3A 1_555 1_555
C4A N4A 1_555 1_555
H4A C4A 1_555 1_555
C5A N1A 1_555 1_555
H5A C5A 1_555 1_555
H6A C5A 1_555 1_555
C6A N4A 1_555 1_555
H7A C6A 1_555 1_555
H8A C6A 1_555 1_555
O1A Cd1 1_555 1_555
H9A O1A 1_555 1_555
H10A O1A 1_555 1_555
N6_2 Cd1 1_555 1_555
N6A_2 Cd1 1_555 1_555
Cd1_2 N6 1_555 1_555
Cd1_3 N6A 1_555 1_555
N3 C2 1_555 1_555
N6 C4 1_555 1_555
C5 C6 1_555 1_555
N3A C2A 1_555 1_555
N6A C4A 1_555 1_555
C5A C6A 1_555 1_555

#END
