
#######################################################################
#
#                 Cambridge Crystallographic Data Centre
#                                CCDC 
#
#######################################################################
#
# If this CIF has been generated from an entry in the Cambridge 
# Structural Database, then it will include bibliographic, chemical, 
# crystal, experimental, refinement or atomic coordinate data resulting 
# from the CCDC's data processing and validation procedures.
#
#######################################################################

data_QAMJIY
_symmetry_cell_setting           monoclinic
_symmetry_space_group_name_H-M   'P 21/c'
_symmetry_Int_Tables_number      14
_space_group_name_Hall           '-P 2ybc'
loop_
_symmetry_equiv_pos_site_id
_symmetry_equiv_pos_as_xyz
1 x,y,z
2 x,1/2-y,1/2+z
3 -x,-y,-z
4 -x,1/2+y,1/2-z
_cell_length_a                   8.708(5)
_cell_length_b                   12.403(7)
_cell_length_c                   10.477(6)
_cell_angle_alpha                90
_cell_angle_beta                 100.629(7)
_cell_angle_gamma                90
_cell_volume                     1112.16
loop_
_atom_site_label
_atom_site_type_symbol
_atom_site_fract_x
_atom_site_fract_y
_atom_site_fract_z
Cd1 Cd 0.0000 0.0000 0.0000
N1 N -0.3471(2) 0.24470(16) -0.1698(2)
N2 N -0.2956(3) 0.22502(18) -0.2827(2)
N3 N -0.1648(2) 0.12470(17) -0.1194(2)
N4 N -0.3401(2) 0.48194(15) -0.2347(2)
N5 N -0.4306(3) 0.5348(2) -0.3352(2)
N6 N -0.1823(3) 0.52400(17) -0.3646(2)
O1 O 0.1126(4) 0.13196(18) 0.1409(2)
C1 C -0.1851(3) 0.1525(2) -0.2468(3)
H1 H -0.1263 0.1230 -0.3037
C2 C -0.2689(3) 0.18519(19) -0.0752(2)
H2 H -0.2846 0.1857 0.0102
C3 C -0.3294(3) 0.5584(2) -0.4090(3)
H3 H -0.3569 0.5962 -0.4865
C4 C -0.1940(3) 0.4761(2) -0.2536(3)
H4 H -0.1121 0.4433 -0.1976
C5 C -0.4720(3) 0.3219(2) -0.1642(3)
H5 H -0.5308 0.2986 -0.0990
H6 H -0.5427 0.3231 -0.2474
C6 C -0.4100(3) 0.4350(2) -0.1315(2)
H7 H -0.4949 0.4808 -0.1159
H8 H -0.3323 0.4327 -0.0522
H9 H 0.148(5) 0.126(3) 0.220(2)
H10 H 0.136(5) 0.193(2) 0.120(4)
N1B N 0.3471(2) -0.24470(16) 0.1698(2)
N2B N 0.2956(3) -0.22502(18) 0.2827(2)
N3B N 0.1648(2) -0.12470(17) 0.1194(2)
N4B N 0.3401(2) -0.48194(15) 0.2347(2)
N5B N 0.4306(3) -0.5348(2) 0.3352(2)
N6B N 0.1823(3) -0.52400(17) 0.3646(2)
C1B C 0.1851(3) -0.1525(2) 0.2468(3)
H1B H 0.1263 -0.1230 0.3037
C2B C 0.2689(3) -0.18519(19) 0.0752(2)
H2B H 0.2846 -0.1857 -0.0102
C3B C 0.3294(3) -0.5584(2) 0.4090(3)
H3B H 0.3569 -0.5962 0.4865
C4B C 0.1940(3) -0.4761(2) 0.2536(3)
H4B H 0.1121 -0.4433 0.1976
C5B C 0.4720(3) -0.3219(2) 0.1642(3)
H5B H 0.5308 -0.2986 0.0990
H6B H 0.5427 -0.3231 0.2474
C6B C 0.4100(3) -0.4350(2) 0.1315(2)
H7B H 0.4949 -0.4808 0.1159
H8B H 0.3323 -0.4327 0.0522
O1B O -0.1126(4) -0.13196(18) -0.1409(2)
H9B H -0.148(5) -0.126(3) -0.220(2)
H10B H -0.136(5) -0.193(2) -0.120(4)
N6A N -0.1823(3) -0.02400(17) 0.1354(2)
N6C N 0.1823(3) 0.02400(17) -0.1354(2)
Cd1A Cd 0.0000 0.5000 -0.5000
Cd1A_2 Cd 0.0000 -0.5000 0.5000
N7 N 0.1641(3) 0.35865(18) -0.0167(2)
O2 O 0.0274(3) 0.3463(3) -0.0034(3)
O3 O 0.1953(3) 0.42049(17) -0.1033(2)
O4 O 0.2708(3) 0.3121(2) 0.0565(2)
loop_
_geom_bond_atom_site_label_1
_geom_bond_atom_site_label_2
_geom_bond_site_symmetry_1
_geom_bond_site_symmetry_2
Cd1 N3 1_555 1_555
N1 N2 1_555 1_555
N2 C1 1_555 1_555
N3 C1 1_555 1_555
N4 N5 1_555 1_555
N5 C3 1_555 1_555
N6 C3 1_555 1_555
N7 O2 1_555 1_555
O1 Cd1 1_555 1_555
O3 N7 1_555 1_555
O4 N7 1_555 1_555
C1 H1 1_555 1_555
C2 N1 1_555 1_555
H2 C2 1_555 1_555
C3 H3 1_555 1_555
C4 N4 1_555 1_555
H4 C4 1_555 1_555
C5 N1 1_555 1_555
H5 C5 1_555 1_555
H6 C5 1_555 1_555
C6 N4 1_555 1_555
H7 C6 1_555 1_555
H8 C6 1_555 1_555
H9 O1 1_555 1_555
H10 O1 1_555 1_555
N1B N2B 1_555 1_555
N2B C1B 1_555 1_555
N3B Cd1 1_555 1_555
N4B N5B 1_555 1_555
N5B C3B 1_555 1_555
N6B C3B 1_555 1_555
C1B N3B 1_555 1_555
H1B C1B 1_555 1_555
C2B N1B 1_555 1_555
H2B C2B 1_555 1_555
C3B H3B 1_555 1_555
C4B N4B 1_555 1_555
H4B C4B 1_555 1_555
C5B N1B 1_555 1_555
H5B C5B 1_555 1_555
H6B C5B 1_555 1_555
C6B N4B 1_555 1_555
H7B C6B 1_555 1_555
H8B C6B 1_555 1_555
O1B Cd1 1_555 1_555
H9B O1B 1_555 1_555
H10B O1B 1_555 1_555
N6A Cd1 1_555 1_555
N6C Cd1 1_555 1_555
Cd1A N6 1_555 1_555
Cd1A_2 N6B 1_555 1_555
N3 C2 1_555 1_555
N6 C4 1_555 1_555
C5 C6 1_555 1_555
N3B C2B 1_555 1_555
N6B C4B 1_555 1_555
C5B C6B 1_555 1_555

#END
