
#######################################################################
#
#                 Cambridge Crystallographic Data Centre
#                                CCDC 
#
#######################################################################
#
# If this CIF has been generated from an entry in the Cambridge 
# Structural Database, then it will include bibliographic, chemical, 
# crystal, experimental, refinement or atomic coordinate data resulting 
# from the CCDC's data processing and validation procedures.
#
#######################################################################

data_QAMKIZ
_symmetry_cell_setting           monoclinic
_symmetry_space_group_name_H-M   'P 21/n'
_symmetry_Int_Tables_number      14
_space_group_name_Hall           '-P 2yn'
loop_
_symmetry_equiv_pos_site_id
_symmetry_equiv_pos_as_xyz
1 x,y,z
2 1/2+x,1/2-y,1/2+z
3 -x,-y,-z
4 1/2-x,1/2+y,1/2-z
_cell_length_a                   14.561(5)
_cell_length_b                   9.674(3)
_cell_length_c                   24.463(5)
_cell_angle_alpha                90
_cell_angle_beta                 91.56(2)
_cell_angle_gamma                90
_cell_volume                     3444.66
loop_
_atom_site_label
_atom_site_type_symbol
_atom_site_fract_x
_atom_site_fract_y
_atom_site_fract_z
Ag1 Ag 0.103778(12) 0.16158(2) 0.772253(7)
N1 N 0.15967(15) 0.3823(2) 0.76413(10)
C1 C 0.24365(17) 0.4331(3) 0.77207(11)
H1 H 0.2864 0.3923 0.7960
N2 N 0.26246(14) 0.5450(2) 0.74384(9)
C2 C 0.1222(2) 0.4696(3) 0.72706(14)
H2 H 0.0628 0.4630 0.7123
C3 C 0.1837(2) 0.5681(3) 0.71444(14)
H3 H 0.1737 0.6399 0.6897
P1 P 0.00435(4) 0.12537(7) 0.69002(3)
C4 C 0.04587(19) 0.2149(3) 0.62994(10)
C5 C -0.0115(2) 0.2746(4) 0.59052(12)
H4 H -0.0749 0.2698 0.5941
C6 C 0.0241(3) 0.3408(5) 0.54610(14)
H5 H -0.0151 0.3817 0.5201
C7 C 0.1175(3) 0.3467(5) 0.54007(15)
H6 H 0.1414 0.3902 0.5097
C8 C 0.1752(3) 0.2887(5) 0.57846(15)
H7 H 0.2384 0.2924 0.5740
C9 C 0.1402(2) 0.2245(4) 0.62401(12)
H8 H 0.1799 0.1877 0.6506
C10 C -0.11680(17) 0.1773(3) 0.69029(10)
C11 C -0.18573(19) 0.1026(4) 0.66311(13)
H9 H -0.1713 0.0208 0.6453
C12 C -0.2755(2) 0.1489(5) 0.66234(16)
H10 H -0.3213 0.0979 0.6444
C13 C -0.2967(3) 0.2683(6) 0.68763(17)
H11 H -0.3568 0.3006 0.6861
C14 C -0.2303(3) 0.3422(5) 0.71549(17)
H12 H -0.2459 0.4234 0.7334
C15 C -0.1398(2) 0.2965(4) 0.71719(14)
H13 H -0.0949 0.3465 0.7365
C16 C -0.00334(17) -0.0538(3) 0.66789(11)
C17 C 0.0126(3) -0.0997(4) 0.61670(15)
H14 H 0.0307 -0.0378 0.5900
C18 C 0.0019(4) -0.2393(6) 0.6039(2)
H15 H 0.0143 -0.2703 0.5689
C19 C -0.0260(3) -0.3293(5) 0.6418(3)
H16 H -0.0346 -0.4218 0.6327
C20 C -0.0418(3) -0.2859(4) 0.6931(2)
H17 H -0.0610 -0.3484 0.7194
C21 C -0.0294(2) -0.1492(3) 0.70650(15)
H18 H -0.0387 -0.1204 0.7422
P2 P 0.06060(4) 0.09988(8) 0.86547(3)
C22 C -0.04883(16) 0.1693(3) 0.88911(10)
C23 C -0.0594(2) 0.2353(4) 0.93778(12)
H19 H -0.0089 0.2464 0.9615
C24 C -0.1443(3) 0.2863(4) 0.95249(16)
H20 H -0.1503 0.3305 0.9859
C25 C -0.2184(2) 0.2719(5) 0.91841(19)
H21 H -0.2753 0.3064 0.9282
C26 C -0.2088(2) 0.2066(5) 0.86990(19)
H22 H -0.2597 0.1958 0.8465
C27 C -0.1248(2) 0.1559(4) 0.85475(14)
H23 H -0.1193 0.1123 0.8211
C28 C 0.14206(16) 0.1602(3) 0.91834(10)
C29 C 0.16507(19) 0.0872(3) 0.96577(11)
H24 H 0.1408 -0.0004 0.9714
C30 C 0.2245(2) 0.1457(4) 1.00463(13)
H25 H 0.2397 0.0972 1.0364
C31 C 0.2609(2) 0.2741(5) 0.99646(16)
H26 H 0.3003 0.3125 1.0229
C32 C 0.2397(2) 0.3464(4) 0.94988(16)
H27 H 0.2645 0.4339 0.9446
C33 C 0.1812(2) 0.2890(3) 0.91043(12)
H28 H 0.1681 0.3374 0.8783
C34 C 0.04995(16) -0.0866(3) 0.87693(9)
C35 C 0.1008(2) -0.1740(3) 0.84485(12)
H29 H 0.1404 -0.1371 0.8194
C36 C 0.0934(2) -0.3155(3) 0.85029(15)
H30 H 0.1285 -0.3736 0.8289
C37 C 0.0346(2) -0.3705(3) 0.88715(14)
H31 H 0.0293 -0.4659 0.8904
C38 C -0.0164(2) -0.2862(3) 0.91913(12)
H32 H -0.0560 -0.3242 0.9443
C39 C -0.00925(19) -0.1439(3) 0.91415(11)
H33 H -0.0443 -0.0866 0.9359
N2C N 0.23754(14) 0.0450(2) 0.75616(9)
Ag1C Ag 0.396222(12) 0.66158(2) 0.727747(7)
loop_
_geom_bond_atom_site_label_1
_geom_bond_atom_site_label_2
_geom_bond_site_symmetry_1
_geom_bond_site_symmetry_2
Ag1 N1 1_555 1_555
N1 C1 1_555 1_555
C1 H1 1_555 1_555
N2 C1 1_555 1_555
C2 N1 1_555 1_555
H2 C2 1_555 1_555
C3 N2 1_555 1_555
H3 C3 1_555 1_555
P1 Ag1 1_555 1_555
C4 P1 1_555 1_555
C5 C4 1_555 1_555
H4 C5 1_555 1_555
C6 C5 1_555 1_555
H5 C6 1_555 1_555
C7 C6 1_555 1_555
H6 C7 1_555 1_555
C8 C7 1_555 1_555
H7 C8 1_555 1_555
C9 C4 1_555 1_555
H8 C9 1_555 1_555
C10 P1 1_555 1_555
C11 C10 1_555 1_555
H9 C11 1_555 1_555
C12 C11 1_555 1_555
H10 C12 1_555 1_555
C13 C12 1_555 1_555
H11 C13 1_555 1_555
C14 C13 1_555 1_555
H12 C14 1_555 1_555
C15 C10 1_555 1_555
H13 C15 1_555 1_555
C16 P1 1_555 1_555
C17 C16 1_555 1_555
H14 C17 1_555 1_555
C18 C17 1_555 1_555
H15 C18 1_555 1_555
C19 C18 1_555 1_555
H16 C19 1_555 1_555
C20 C19 1_555 1_555
H17 C20 1_555 1_555
C21 C16 1_555 1_555
H18 C21 1_555 1_555
P2 Ag1 1_555 1_555
C22 P2 1_555 1_555
C23 C22 1_555 1_555
H19 C23 1_555 1_555
C24 C23 1_555 1_555
H20 C24 1_555 1_555
C25 C24 1_555 1_555
H21 C25 1_555 1_555
C26 C25 1_555 1_555
H22 C26 1_555 1_555
C27 C22 1_555 1_555
H23 C27 1_555 1_555
C28 P2 1_555 1_555
C29 C28 1_555 1_555
H24 C29 1_555 1_555
C30 C29 1_555 1_555
H25 C30 1_555 1_555
C31 C30 1_555 1_555
H26 C31 1_555 1_555
C32 C31 1_555 1_555
H27 C32 1_555 1_555
C33 C28 1_555 1_555
H28 C33 1_555 1_555
C34 P2 1_555 1_555
C35 C34 1_555 1_555
H29 C35 1_555 1_555
C36 C35 1_555 1_555
H30 C36 1_555 1_555
C37 C36 1_555 1_555
H31 C37 1_555 1_555
C38 C37 1_555 1_555
H32 C38 1_555 1_555
C39 C34 1_555 1_555
H33 C39 1_555 1_555
N2C Ag1 1_555 1_555
Ag1C N2 1_555 1_555
C2 C3 1_555 1_555
C8 C9 1_555 1_555
C14 C15 1_555 1_555
C20 C21 1_555 1_555
C26 C27 1_555 1_555
C32 C33 1_555 1_555
C38 C39 1_555 1_555

#END
