
#######################################################################
#
#                 Cambridge Crystallographic Data Centre
#                                CCDC 
#
#######################################################################
#
# If this CIF has been generated from an entry in the Cambridge 
# Structural Database, then it will include bibliographic, chemical, 
# crystal, experimental, refinement or atomic coordinate data resulting 
# from the CCDC's data processing and validation procedures.
#
#######################################################################

data_QAMKEV
_symmetry_cell_setting           monoclinic
_symmetry_space_group_name_H-M   'P 21/c'
_symmetry_Int_Tables_number      14
_space_group_name_Hall           '-P 2ybc'
loop_
_symmetry_equiv_pos_site_id
_symmetry_equiv_pos_as_xyz
1 x,y,z
2 x,1/2-y,1/2+z
3 -x,-y,-z
4 -x,1/2+y,1/2-z
_cell_length_a                   10.6780(10)
_cell_length_b                   39.858(12)
_cell_length_c                   13.310(2)
_cell_angle_alpha                90
_cell_angle_beta                 91.310(10)
_cell_angle_gamma                90
_cell_volume                     5663.3
loop_
_atom_site_label
_atom_site_type_symbol
_atom_site_fract_x
_atom_site_fract_y
_atom_site_fract_z
Ag1 Ag 0.41236(4) 0.378339(11) 0.78635(3)
Ag2 Ag -0.10222(4) 0.324049(12) 0.55947(3)
N1 N 0.2704(4) 0.34589(11) 0.6989(3)
C1 C 0.1513(6) 0.35145(14) 0.6729(5)
H1 H 0.1051 0.3682 0.7035
N2 N 0.1008(4) 0.33208(13) 0.6013(4)
C2 C 0.1987(6) 0.31168(15) 0.5787(4)
H2 H 0.1962 0.2947 0.5308
C3 C 0.6598(5) 0.34681(13) 0.6809(5)
H3 H 0.6122 0.3450 0.6217
N3 N 0.6101(4) 0.35674(11) 0.7667(4)
C4 C 0.3003(5) 0.31985(16) 0.6366(4)
H4 H 0.3781 0.3094 0.6343
N4 N 0.7808(4) 0.33969(11) 0.6847(3)
C5 C 0.7086(5) 0.35542(13) 0.8318(4)
H5 H 0.7062 0.3609 0.8996
C6 C 0.8123(5) 0.34475(14) 0.7829(5)
H6 H 0.8913 0.3415 0.8120
P1 P 0.36547(14) 0.39189(4) 0.96107(11)
C7 C 0.2154(5) 0.41324(14) 0.9732(4)
C8 C 0.1998(6) 0.44279(17) 1.0256(5)
H7 H 0.2680 0.4527 1.0587
C9 C 0.0844(8) 0.45748(18) 1.0288(6)
H8 H 0.0750 0.4775 1.0636
C10 C -0.0177(7) 0.4432(2) 0.9817(6)
H9 H -0.0963 0.4531 0.9859
C11 C -0.0026(6) 0.41477(18) 0.9293(5)
H10 H -0.0711 0.4051 0.8961
C12 C 0.1127(6) 0.39980(15) 0.9242(4)
H11 H 0.1215 0.3802 0.8870
C13 C 0.3530(6) 0.35847(16) 1.0521(5)
C14 C 0.4337(7) 0.33123(19) 1.0435(5)
H12 H 0.4926 0.3308 0.9931
C15 C 0.4254(8) 0.3045(2) 1.1114(8)
H13 H 0.4784 0.2861 1.1056
C16 C 0.3399(9) 0.3053(2) 1.1860(6)
H14 H 0.3359 0.2878 1.2321
C17 C 0.2618(8) 0.3316(2) 1.1921(6)
H15 H 0.2024 0.3318 1.2421
C18 C 0.2671(7) 0.35762(17) 1.1275(5)
H16 H 0.2114 0.3754 1.1341
C19 C 0.4802(5) 0.42065(16) 1.0167(5)
C20 C 0.5308(7) 0.4441(2) 0.9576(5)
H17 H 0.5077 0.4447 0.8898
C21 C 0.6171(8) 0.4676(2) 0.9948(6)
H18 H 0.6477 0.4840 0.9522
C22 C 0.6558(6) 0.4669(2) 1.0896(7)
H19 H 0.7165 0.4817 1.1138
C23 C 0.6038(10) 0.4439(2) 1.1499(7)
H20 H 0.6264 0.4436 1.2178
C24 C 0.5172(8) 0.4205(2) 1.1134(6)
H21 H 0.4847 0.4046 1.1568
P2 P 0.44937(14) 0.42737(4) 0.66220(11)
C25 C 0.4865(6) 0.41149(16) 0.5376(4)
C26 C 0.5871(7) 0.4210(2) 0.4841(6)
H22 H 0.6362 0.4387 0.5076
C27 C 0.6197(8) 0.4050(3) 0.3948(6)
H23 H 0.6916 0.4112 0.3612
C28 C 0.5430(10) 0.3802(3) 0.3582(6)
H24 H 0.5613 0.3697 0.2978
C29 C 0.4404(8) 0.37068(19) 0.4094(5)
H25 H 0.3883 0.3538 0.3846
C30 C 0.4146(6) 0.38639(17) 0.4981(5)
H26 H 0.3446 0.3796 0.5330
C31 C 0.5807(6) 0.45568(16) 0.6917(4)
C32 C 0.6969(6) 0.44189(16) 0.7116(4)
H27 H 0.7069 0.4187 0.7088
C33 C 0.7984(6) 0.4618(2) 0.7355(5)
H28 H 0.8764 0.4522 0.7489
C34 C 0.7841(7) 0.4961(2) 0.7396(5)
H29 H 0.8529 0.5097 0.7540
C35 C 0.6701(7) 0.50989(17) 0.7227(5)
H30 H 0.6604 0.5330 0.7280
C36 C 0.5663(6) 0.48991(17) 0.6972(5)
H31 H 0.4885 0.4997 0.6841
C37 C 0.3189(5) 0.45606(14) 0.6405(5)
C38 C 0.3022(6) 0.47445(16) 0.5537(5)
H32 H 0.3564 0.4718 0.5006
C39 C 0.2021(7) 0.49740(16) 0.5464(5)
H33 H 0.1910 0.5099 0.4878
C40 C 0.1215(6) 0.50175(18) 0.6225(7)
H34 H 0.0550 0.5168 0.6167
C41 C 0.1410(6) 0.48342(19) 0.7080(6)
H35 H 0.0882 0.4866 0.7617
C42 C 0.2361(6) 0.46038(15) 0.7171(5)
H36 H 0.2446 0.4476 0.7754
P3 P -0.15255(14) 0.29301(4) 0.40984(12)
C43 C -0.0397(5) 0.25872(15) 0.3975(5)
C44 C 0.0224(6) 0.25202(17) 0.3109(5)
H37 H 0.0073 0.2649 0.2535
C45 C 0.1093(7) 0.2256(2) 0.3095(7)
H38 H 0.1521 0.2209 0.2510
C46 C 0.1307(7) 0.2071(2) 0.3920(9)
H39 H 0.1881 0.1895 0.3902
C47 C 0.0706(8) 0.2135(2) 0.4771(7)
H40 H 0.0845 0.2001 0.5335
C48 C -0.0127(7) 0.24027(19) 0.4805(6)
H41 H -0.0504 0.2456 0.5408
C49 C -0.1527(6) 0.31542(16) 0.2912(5)
C50 C -0.0914(7) 0.3450(2) 0.2861(6)
H42 H -0.0476 0.3530 0.3424
C51 C -0.0926(9) 0.3638(2) 0.1977(8)
H43 H -0.0531 0.3846 0.1963
C52 C -0.1505(9) 0.3519(3) 0.1152(7)
H44 H -0.1470 0.3639 0.0554
C53 C -0.2130(8) 0.3232(3) 0.1177(6)
H45 H -0.2560 0.3156 0.0606
C54 C -0.2142(6) 0.30435(19) 0.2064(6)
H46 H -0.2573 0.2841 0.2076
C55 C -0.3020(5) 0.27102(15) 0.4037(4)
C56 C -0.4044(6) 0.28670(16) 0.4425(5)
H47 H -0.3941 0.3071 0.4758
C57 C -0.5233(7) 0.27264(19) 0.4330(5)
H48 H -0.5920 0.2837 0.4592
C58 C -0.5388(7) 0.2427(2) 0.3851(6)
H49 H -0.6181 0.2331 0.3790
C59 C -0.4384(7) 0.22680(17) 0.3461(5)
H50 H -0.4496 0.2065 0.3125
C60 C -0.3193(6) 0.24051(16) 0.3558(5)
H51 H -0.2510 0.2292 0.3301
N4_2 N -0.2192(4) 0.33969(11) 0.6847(3)
Ag2_2 Ag 0.89778(4) 0.324049(12) 0.55947(3)
Cl1 Cl 0.1104(2) 0.41907(6) 0.35513(19)
Cl2 Cl -0.0669(2) 0.41156(6) 0.5118(2)
C61 C 0.0828(7) 0.4084(2) 0.4765(6)
H52 H 0.1101 0.3854 0.4871
H53 H 0.1340 0.4225 0.5202
loop_
_geom_bond_atom_site_label_1
_geom_bond_atom_site_label_2
_geom_bond_site_symmetry_1
_geom_bond_site_symmetry_2
Ag1 N1 1_555 1_555
Ag2 N2 1_555 1_555
N1 C1 1_555 1_555
C1 H1 1_555 1_555
N2 C1 1_555 1_555
C2 N2 1_555 1_555
H2 C2 1_555 1_555
C3 H3 1_555 1_555
N3 Ag1 1_555 1_555
C4 N1 1_555 1_555
H4 C4 1_555 1_555
N4 C3 1_555 1_555
C5 N3 1_555 1_555
H5 C5 1_555 1_555
C6 N4 1_555 1_555
H6 C6 1_555 1_555
P1 Ag1 1_555 1_555
C7 P1 1_555 1_555
C8 C7 1_555 1_555
H7 C8 1_555 1_555
C9 C8 1_555 1_555
H8 C9 1_555 1_555
C10 C9 1_555 1_555
H9 C10 1_555 1_555
C11 C10 1_555 1_555
H10 C11 1_555 1_555
C12 C7 1_555 1_555
H11 C12 1_555 1_555
C13 P1 1_555 1_555
C14 C13 1_555 1_555
H12 C14 1_555 1_555
C15 C14 1_555 1_555
H13 C15 1_555 1_555
C16 C15 1_555 1_555
H14 C16 1_555 1_555
C17 C16 1_555 1_555
H15 C17 1_555 1_555
C18 C13 1_555 1_555
H16 C18 1_555 1_555
C19 P1 1_555 1_555
C20 C19 1_555 1_555
H17 C20 1_555 1_555
C21 C20 1_555 1_555
H18 C21 1_555 1_555
C22 C21 1_555 1_555
H19 C22 1_555 1_555
C23 C22 1_555 1_555
H20 C23 1_555 1_555
C24 C19 1_555 1_555
H21 C24 1_555 1_555
P2 Ag1 1_555 1_555
C25 P2 1_555 1_555
C26 C25 1_555 1_555
H22 C26 1_555 1_555
C27 C26 1_555 1_555
H23 C27 1_555 1_555
C28 C27 1_555 1_555
H24 C28 1_555 1_555
C29 C28 1_555 1_555
H25 C29 1_555 1_555
C30 C25 1_555 1_555
H26 C30 1_555 1_555
C31 P2 1_555 1_555
C32 C31 1_555 1_555
H27 C32 1_555 1_555
C33 C32 1_555 1_555
H28 C33 1_555 1_555
C34 C33 1_555 1_555
H29 C34 1_555 1_555
C35 C34 1_555 1_555
H30 C35 1_555 1_555
C36 C31 1_555 1_555
H31 C36 1_555 1_555
C37 P2 1_555 1_555
C38 C37 1_555 1_555
H32 C38 1_555 1_555
C39 C38 1_555 1_555
H33 C39 1_555 1_555
C40 C39 1_555 1_555
H34 C40 1_555 1_555
C41 C40 1_555 1_555
H35 C41 1_555 1_555
C42 C37 1_555 1_555
H36 C42 1_555 1_555
P3 Ag2 1_555 1_555
C43 P3 1_555 1_555
C44 C43 1_555 1_555
H37 C44 1_555 1_555
C45 C44 1_555 1_555
H38 C45 1_555 1_555
C46 C45 1_555 1_555
H39 C46 1_555 1_555
C47 C46 1_555 1_555
H40 C47 1_555 1_555
C48 C43 1_555 1_555
H41 C48 1_555 1_555
C49 P3 1_555 1_555
C50 C49 1_555 1_555
H42 C50 1_555 1_555
C51 C50 1_555 1_555
H43 C51 1_555 1_555
C52 C51 1_555 1_555
H44 C52 1_555 1_555
C53 C52 1_555 1_555
H45 C53 1_555 1_555
C54 C49 1_555 1_555
H46 C54 1_555 1_555
C55 P3 1_555 1_555
C56 C55 1_555 1_555
H47 C56 1_555 1_555
C57 C56 1_555 1_555
H48 C57 1_555 1_555
C58 C57 1_555 1_555
H49 C58 1_555 1_555
C59 C58 1_555 1_555
H50 C59 1_555 1_555
C60 C55 1_555 1_555
H51 C60 1_555 1_555
Cl1 C61 1_555 1_555
Cl2 C61 1_555 1_555
C61 H52 1_555 1_555
H53 C61 1_555 1_555
N4_2 Ag2 1_555 1_555
Ag2_2 N4 1_555 1_555
C2 C4 1_555 1_555
C3 N3 1_555 1_555
C5 C6 1_555 1_555
C11 C12 1_555 1_555
C17 C18 1_555 1_555
C23 C24 1_555 1_555
C29 C30 1_555 1_555
C35 C36 1_555 1_555
C41 C42 1_555 1_555
C47 C48 1_555 1_555
C53 C54 1_555 1_555
C59 C60 1_555 1_555

#END
