
#######################################################################
#
#                 Cambridge Crystallographic Data Centre
#                                CCDC 
#
#######################################################################
#
# If this CIF has been generated from an entry in the Cambridge 
# Structural Database, then it will include bibliographic, chemical, 
# crystal, experimental, refinement or atomic coordinate data resulting 
# from the CCDC's data processing and validation procedures.
#
#######################################################################

data_QAMXIL
_symmetry_cell_setting           orthorhombic
_symmetry_space_group_name_H-M   'P n m a'
_symmetry_Int_Tables_number      62
_space_group_name_Hall           '-P 2ac 2n'
loop_
_symmetry_equiv_pos_site_id
_symmetry_equiv_pos_as_xyz
1 x,y,z
2 1/2+x,y,1/2-z
3 x,1/2-y,z
4 1/2-x,1/2+y,1/2+z
5 -x,-y,-z
6 1/2-x,-y,1/2+z
7 -x,1/2+y,-z
8 1/2+x,1/2-y,1/2-z
_cell_length_a                   10.450(2)
_cell_length_b                   19.989(4)
_cell_length_c                   10.011(2)
_cell_angle_alpha                90
_cell_angle_beta                 90
_cell_angle_gamma                90
_cell_volume                     2091.15
loop_
_atom_site_label
_atom_site_type_symbol
_atom_site_fract_x
_atom_site_fract_y
_atom_site_fract_z
Cu1 Cu 0.0000 -0.5000 0.0000
C1 C 0.1801(12) -0.4496(7) 0.1803(13)
C2 C 0.2747(13) -0.4454(7) 0.2707(13)
H1 H 0.3024 -0.4034 0.2982
C3 C 0.2877(13) -0.5576(7) 0.2795(14)
H2 H 0.3243 -0.5962 0.3145
C4 C 0.1925(13) -0.5641(7) 0.1864(14)
H3 H 0.1658 -0.6062 0.1587
C5 C 0.1175(12) -0.3905(7) 0.1138(13)
N1 N 0.1379(9) -0.5086(5) 0.1353(10)
N2 N 0.3296(11) -0.4993(5) 0.3216(12)
O1 O 0.0294(9) -0.4051(5) 0.0260(9)
O2 O 0.1537(9) -0.3350(5) 0.1385(11)
Hg1 Hg 0.04067(9) -0.2500 -0.00723(8)
I1 I 0.19741(16) -0.2500 -0.21318(16)
I2 I -0.17434(15) -0.2500 0.12407(19)
N1D N -0.1379(9) -0.4914(5) -0.1353(10)
N2E N 0.1704(11) -0.5007(5) -0.1784(12)
O1D O -0.0294(9) -0.5949(5) -0.0260(9)
N2A N -0.1704(11) -0.4993(5) 0.1784(12)
O2B O 0.1537(9) -0.1650(5) 0.1385(11)
C1D C -0.1801(12) -0.5504(7) -0.1803(13)
C4D C -0.1925(13) -0.4359(7) -0.1864(14)
C5D C -0.1175(12) -0.6095(7) -0.1138(13)
Cu1A Cu 0.5000 -0.5000 0.5000
C2D C -0.2747(13) -0.5546(7) -0.2707(13)
C3D C -0.2877(13) -0.4424(7) -0.2795(14)
H3D H -0.1658 -0.3938 -0.1587
O2D O -0.1537(9) -0.6650(5) -0.1385(11)
H1D H -0.3024 -0.5966 -0.2982
N2D N -0.3296(11) -0.5007(5) -0.3216(12)
H2D H -0.3243 -0.4038 -0.3145
Hg1D Hg -0.04067(9) -0.7500 0.00723(8)
Cu1A_2 Cu -0.5000 -0.5000 -0.5000
Hg2 Hg 0.98847(16) -0.2500 0.48088(16)
I3 I 0.99169(13) -0.37886(7) 0.48953(13)
I3B I 0.99169(13) -0.12114(7) 0.48953(13)
loop_
_geom_bond_atom_site_label_1
_geom_bond_atom_site_label_2
_geom_bond_site_symmetry_1
_geom_bond_site_symmetry_2
Cu1 N1 1_555 1_555
C1 C2 1_555 1_555
C2 H1 1_555 1_555
C3 H2 1_555 1_555
C4 C3 1_555 1_555
H3 C4 1_555 1_555
C5 C1 1_555 1_555
N1 C1 1_555 1_555
N2 C2 1_555 1_555
O1 Cu1 1_555 1_555
O2 C5 1_555 1_555
Hg1 O2 1_555 1_555
I1 Hg1 1_555 1_555
I2 Hg1 1_555 1_555
Hg2 I3 1_555 1_555
N1D Cu1 1_555 1_555
N2E Cu1 1_555 1_555
O1D Cu1 1_555 1_555
N2A Cu1 1_555 1_555
O2B Hg1 1_555 1_555
I3B Hg2 1_555 1_555
C1D N1D 1_555 1_555
C4D N1D 1_555 1_555
C5D O1D 1_555 1_555
Cu1A N2 1_555 1_555
C2D C1D 1_555 1_555
C3D C4D 1_555 1_555
H3D C4D 1_555 1_555
O2D C5D 1_555 1_555
H1D C2D 1_555 1_555
N2D C2D 1_555 1_555
H2D C3D 1_555 1_555
Hg1D O2D 1_555 1_555
Cu1A_2 N2D 1_555 1_555
C3 N2 1_555 1_555
C4 N1 1_555 1_555
C5 O1 1_555 1_555
C1D C5D 1_555 1_555
C3D N2D 1_555 1_555

#END
