
#######################################################################
#
#                 Cambridge Crystallographic Data Centre
#                                CCDC 
#
#######################################################################
#
# If this CIF has been generated from an entry in the Cambridge 
# Structural Database, then it will include bibliographic, chemical, 
# crystal, experimental, refinement or atomic coordinate data resulting 
# from the CCDC's data processing and validation procedures.
#
#######################################################################

data_QAMXIN
_symmetry_cell_setting           triclinic
_symmetry_space_group_name_H-M   'P -1'
_symmetry_Int_Tables_number      2
_space_group_name_Hall           '-P 1'
loop_
_symmetry_equiv_pos_site_id
_symmetry_equiv_pos_as_xyz
1 x,y,z
2 -x,-y,-z
_cell_length_a                   8.0718(10)
_cell_length_b                   9.9614(12)
_cell_length_c                   11.4448(14)
_cell_angle_alpha                110.032(2)
_cell_angle_beta                 90.134(2)
_cell_angle_gamma                97.081(2)
_cell_volume                     856.988
loop_
_atom_site_label
_atom_site_type_symbol
_atom_site_fract_x
_atom_site_fract_y
_atom_site_fract_z
Co1 Co 1.0000 0.0000 0.0000
O1 O 1.2623(3) 0.0651(3) 0.0414(3)
H1 H 1.3289 0.0325 0.0781
H2 H 1.2961 0.1590 0.0656
O2 O 0.9946(3) 0.0045(2) 0.1832(2)
O3 O 0.8062(3) -0.1786(3) 0.1857(2)
O4 O 0.7122(3) 0.1504(3) 0.3403(2)
O5 O 0.8490(3) 0.3259(2) 0.4984(2)
H3 H 0.7930 0.3744 0.4769
N1 N 0.9523(3) 0.2174(3) 0.0651(2)
N2 N 0.6968(3) 0.5915(3) -0.0224(2)
H4 H 0.7404 0.6745 0.0460
N3 N 0.6038(3) 0.5999(3) -0.1174(3)
N4 N 0.6479(3) 0.3696(3) -0.1528(2)
N5 N 0.3084(4) 0.4883(3) -0.4465(3)
C1 C 0.4781(4) 0.4201(3) -0.3114(3)
C2 C 0.4033(4) 0.5224(4) -0.3433(3)
H5 H 0.4207 0.6180 -0.2903
C3 C 0.2836(5) 0.3512(4) -0.5226(3)
H6 H 0.2157 0.3274 -0.5944
C4 C 0.3542(5) 0.2439(4) -0.4995(4)
H7 H 0.3368 0.1498 -0.5556
C5 C 0.4507(4) 0.2780(4) -0.3921(3)
H8 H 0.4975 0.2066 -0.3734
C6 C 0.5772(4) 0.4635(3) -0.1933(3)
C7 C 0.7227(4) 0.4547(3) -0.0445(3)
C8 C 0.8230(4) 0.4083(3) 0.0379(3)
C9 C 0.8846(4) 0.4998(3) 0.1558(3)
H9 H 0.8614 0.5945 0.1863
C10 C 0.9804(4) 0.4480(4) 0.2267(3)
H10 H 1.0246 0.5075 0.3050
C11 C 1.0091(4) 0.3054(3) 0.1787(3)
H11 H 1.0705 0.2695 0.2275
C12 C 0.8614(4) 0.2687(3) -0.0035(3)
H12 H 0.8221 0.2078 -0.0827
C13 C 0.8134(4) 0.1919(3) 0.4278(3)
C14 C 0.9115(4) 0.0924(3) 0.4640(3)
C15 C 0.9532(4) -0.0328(3) 0.3742(3)
C16 C 0.9123(4) -0.0720(3) 0.2358(3)
C17 C 1.0417(4) -0.1231(3) 0.4116(3)
H13 H 1.0705 -0.2062 0.3521
Co1_2 Co 1.0000 0.0000 1.0000
O1A O 0.7377(3) -0.0651(3) -0.0414(3)
H1A H 0.6711 -0.0325 -0.0781
H2A H 0.7039 -0.1590 -0.0656
O2A O 1.0054(3) -0.0045(2) 0.8168(2)
O2A_2 O 1.0054(3) -0.0045(2) -0.1832(2)
O3A O 1.1938(3) 0.1786(3) 0.8143(2)
O4A O 1.2878(3) -0.1504(3) 0.6597(2)
O5A O 1.1510(3) -0.3259(2) 0.5016(2)
H3A H 1.2070 -0.3744 0.5231
N1A N 1.0477(3) -0.2174(3) -0.0651(2)
N2A N 1.3032(3) -0.5915(3) 0.0224(2)
H4A H 1.2596 -0.6745 -0.0460
N3A N 1.3962(3) -0.5999(3) 0.1174(3)
N4A N 1.3521(3) -0.3696(3) 0.1528(2)
N5A N 1.6916(4) -0.4883(3) 0.4465(3)
C1A C 1.5219(4) -0.4201(3) 0.3114(3)
C2A C 1.5967(4) -0.5224(4) 0.3433(3)
H5A H 1.5793 -0.6180 0.2903
C3A C 1.7164(5) -0.3512(4) 0.5226(3)
H6A H 1.7843 -0.3274 0.5944
C4A C 1.6458(5) -0.2439(4) 0.4995(4)
H7A H 1.6632 -0.1498 0.5556
C5A C 1.5493(4) -0.2780(4) 0.3921(3)
H8A H 1.5025 -0.2066 0.3734
C6A C 1.4228(4) -0.4635(3) 0.1933(3)
C7A C 1.2773(4) -0.4547(3) 0.0445(3)
C8A C 1.1770(4) -0.4083(3) -0.0379(3)
C9A C 1.1154(4) -0.4998(3) -0.1558(3)
H9A H 1.1386 -0.5945 -0.1863
C10A C 1.0196(4) -0.4480(4) -0.2267(3)
H10A H 0.9754 -0.5075 -0.3050
C11A C 0.9909(4) -0.3054(3) -0.1787(3)
H11A H 0.9295 -0.2695 -0.2275
C12A C 1.1386(4) -0.2687(3) 0.0035(3)
H12A H 1.1779 -0.2078 0.0827
C13A C 1.1866(4) -0.1919(3) 0.5722(3)
C14A C 1.0885(4) -0.0924(3) 0.5360(3)
C15A C 1.0468(4) 0.0328(3) 0.6258(3)
C16A C 1.0877(4) 0.0720(3) 0.7642(3)
C17A C 0.9583(4) 0.1231(3) 0.5884(3)
H13A H 0.9295 0.2062 0.6479
O6 O 0.4664(5) 0.9482(4) 0.1716(5)
H14 H 0.5477 1.0136 0.2134
H15 H 0.464(7) 0.862(3) 0.158(5)
loop_
_geom_bond_atom_site_label_1
_geom_bond_atom_site_label_2
_geom_bond_site_symmetry_1
_geom_bond_site_symmetry_2
Co1 O1 1_555 1_555
O1 H1 1_555 1_555
H2 O1 1_555 1_555
O2 Co1 1_555 1_555
O3 C16 1_555 1_555
O4 C13 1_555 1_555
O5 H3 1_555 1_555
N1 Co1 1_555 1_555
N2 H4 1_555 1_555
N3 N2 1_555 1_555
N4 C6 1_555 1_555
N5 C2 1_555 1_555
C1 C2 1_555 1_555
C2 H5 1_555 1_555
C3 N5 1_555 1_555
H6 C3 1_555 1_555
C4 C3 1_555 1_555
H7 C4 1_555 1_555
C5 C1 1_555 1_555
H8 C5 1_555 1_555
C6 N3 1_555 1_555
C7 N2 1_555 1_555
C8 C7 1_555 1_555
C9 C8 1_555 1_555
H9 C9 1_555 1_555
C10 C9 1_555 1_555
H10 C10 1_555 1_555
C11 N1 1_555 1_555
H11 C11 1_555 1_555
C12 N1 1_555 1_555
H12 C12 1_555 1_555
C13 O5 1_555 1_555
C14 C13 1_555 1_555
C15 C14 1_555 1_555
C16 O2 1_555 1_555
C17 C15 1_555 1_555
H13 C17 1_555 1_555
O6 H14 1_555 1_555
H15 O6 1_555 1_555
Co1_2 O2A 1_555 1_555
O1A Co1 1_555 1_555
H1A O1A 1_555 1_555
H2A O1A 1_555 1_555
O2A C16A 1_555 1_555
O2A_2 Co1 1_555 1_555
O3A C16A 1_555 1_555
O4A C13A 1_555 1_555
O5A H3A 1_555 1_555
N1A Co1 1_555 1_555
N2A H4A 1_555 1_555
N3A N2A 1_555 1_555
N4A C6A 1_555 1_555
N5A C2A 1_555 1_555
C1A C2A 1_555 1_555
C2A H5A 1_555 1_555
C3A N5A 1_555 1_555
H6A C3A 1_555 1_555
C4A C3A 1_555 1_555
H7A C4A 1_555 1_555
C5A C1A 1_555 1_555
H8A C5A 1_555 1_555
C6A N3A 1_555 1_555
C7A N2A 1_555 1_555
C8A C7A 1_555 1_555
C9A C8A 1_555 1_555
H9A C9A 1_555 1_555
C10A C9A 1_555 1_555
H10A C10A 1_555 1_555
C11A N1A 1_555 1_555
H11A C11A 1_555 1_555
C12A N1A 1_555 1_555
H12A C12A 1_555 1_555
C13A O5A 1_555 1_555
C14A C17 1_555 1_555
C15A C14A 1_555 1_555
C16A C15A 1_555 1_555
C17A C14 1_555 1_555
H13A C17A 1_555 1_555
N4 C7 1_555 1_555
C1 C6 1_555 1_555
C4 C5 1_555 1_555
C8 C12 1_555 1_555
C10 C11 1_555 1_555
C15 C16 1_555 1_555
N4A C7A 1_555 1_555
C1A C6A 1_555 1_555
C4A C5A 1_555 1_555
C8A C12A 1_555 1_555
C10A C11A 1_555 1_555
C13A C14A 1_555 1_555
C15A C17A 1_555 1_555

#END
