
#######################################################################
#
#                 Cambridge Crystallographic Data Centre
#                                CCDC 
#
#######################################################################
#
# If this CIF has been generated from an entry in the Cambridge 
# Structural Database, then it will include bibliographic, chemical, 
# crystal, experimental, refinement or atomic coordinate data resulting 
# from the CCDC's data processing and validation procedures.
#
#######################################################################

data_QANBAJ
_symmetry_cell_setting           triclinic
_symmetry_space_group_name_H-M   'P -1'
_symmetry_Int_Tables_number      2
_space_group_name_Hall           '-P 1'
loop_
_symmetry_equiv_pos_site_id
_symmetry_equiv_pos_as_xyz
1 x,y,z
2 -x,-y,-z
_cell_length_a                   5.7600(10)
_cell_length_b                   8.1770(10)
_cell_length_c                   10.639(2)
_cell_angle_alpha                106.100(10)
_cell_angle_beta                 96.910(10)
_cell_angle_gamma                97.400(10)
_cell_volume                     470.984
loop_
_atom_site_label
_atom_site_type_symbol
_atom_site_fract_x
_atom_site_fract_y
_atom_site_fract_z
Co1 Co 0.0000 0.0000 1.0000
O1 O -0.3257(8) -0.1436(6) 1.0176(4)
H1 H -0.256(13) -0.213(8) 1.043(8)
H2 H -0.424(11) -0.112(10) 1.066(6)
O2 O -0.4771(8) -0.2380(6) 0.2600(4)
O3 O -1.0798(8) -0.3480(6) 0.1046(5)
O4 O -0.7979(7) -0.1340(5) 0.0994(4)
N1 N -0.0041(9) -0.1961(6) 0.8134(5)
C1 C -0.3033(12) 0.0057(10) 0.4390(7)
H3 H -0.173(12) 0.013(9) 0.390(7)
C2 C -0.5017(11) -0.1217(9) 0.3782(6)
C3 C -0.6996(12) -0.1247(9) 0.4394(6)
H4 H -0.852(11) -0.219(8) 0.388(6)
C4 C -0.6854(12) -0.3576(9) 0.1871(7)
H5 H -0.7551 -0.4144 0.2458
H6 H -0.6401 -0.4455 0.1168
C5 C -0.8716(11) -0.2722(8) 0.1262(6)
C6 C -0.1777(11) -0.2226(8) 0.7103(6)
H7 H -0.3010 -0.1597 0.7218
C7 C -0.1815(11) -0.3394(8) 0.5877(6)
H8 H -0.3054 -0.3526 0.5191
C8 C -0.0019(10) -0.4370(7) 0.5661(5)
C9 C -0.1754(12) -0.5881(9) 0.3260(6)
H9 H -0.2991 -0.5251 0.3339
C10 C -0.1655(11) -0.7085(9) 0.2062(6)
H10 H -0.2855 -0.7232 0.1352
C3A C -0.3004(12) 0.1247(9) 0.5606(6)
C2A C -0.4983(11) 0.1217(9) 0.6218(6)
O2A O -0.5229(8) 0.2380(6) 0.7400(4)
C4A C -0.3146(12) 0.3576(9) 0.8129(7)
H5A H -0.2449 0.4144 0.7542
H6A H -0.3599 0.4455 0.8832
C5A C -0.1284(11) 0.2722(8) 0.8738(6)
O3A O 0.0798(8) 0.3480(6) 0.8954(5)
O4A O -0.2021(7) 0.1340(5) 0.9006(4)
Co1_2 Co -1.0000 0.0000 0.0000
O1A O 0.3257(8) 0.1436(6) 0.9824(4)
O4_2 O 0.2021(7) -0.1340(5) 1.0994(4)
C8A C 0.0019(10) -0.5630(7) 0.4339(5)
C7A C 0.1815(11) -0.6606(8) 0.4123(6)
C6A C 0.1777(11) -0.7774(8) 0.2897(6)
N1A N 0.0041(9) -0.8039(6) 0.1866(5)
Co1_3 Co 0.0000 -1.0000 0.0000
H7A H 0.3010 -0.8403 0.2782
H8A H 0.3054 -0.6474 0.4809
C9A C 0.1754(12) -0.4119(9) 0.6740(6)
H9A H 0.2991 -0.4749 0.6661
C10A C 0.1655(11) -0.2915(9) 0.7938(6)
H10A H 0.2855 -0.2768 0.8648
N1A_2 N 0.0041(9) 0.1961(6) 1.1866(5)
C1A C -0.6967(12) -0.0057(10) 0.5610(7)
H3A H -0.827(12) -0.013(9) 0.610(7)
H4A H -0.148(11) 0.219(8) 0.612(6)
H1A H 0.256(13) 0.213(8) 0.957(8)
H2A H 0.424(11) 0.112(10) 0.934(6)
loop_
_geom_bond_atom_site_label_1
_geom_bond_atom_site_label_2
_geom_bond_site_symmetry_1
_geom_bond_site_symmetry_2
Co1 O1 1_555 1_555
O1 H1 1_555 1_555
H2 O1 1_555 1_555
O2 C2 1_555 1_555
O3 C5 1_555 1_555
O4 C5 1_555 1_555
N1 Co1 1_555 1_555
C1 H3 1_555 1_555
C2 C1 1_555 1_555
C3 C2 1_555 1_555
H4 C3 1_555 1_555
C4 O2 1_555 1_555
H5 C4 1_555 1_555
H6 C4 1_555 1_555
C5 C4 1_555 1_555
C6 N1 1_555 1_555
H7 C6 1_555 1_555
C7 C6 1_555 1_555
H8 C7 1_555 1_555
C8 C7 1_555 1_555
C9 H9 1_555 1_555
C10 C9 1_555 1_555
H10 C10 1_555 1_555
C3A C1 1_555 1_555
C2A C3A 1_555 1_555
O2A C2A 1_555 1_555
C4A O2A 1_555 1_555
H5A C4A 1_555 1_555
H6A C4A 1_555 1_555
C5A C4A 1_555 1_555
O3A C5A 1_555 1_555
O4A Co1 1_555 1_555
Co1_2 O4 1_555 1_555
O1A Co1 1_555 1_555
O4_2 Co1 1_555 1_555
C8A C8 1_555 1_555
C7A C8A 1_555 1_555
C6A C7A 1_555 1_555
N1A C10 1_555 1_555
Co1_3 N1A 1_555 1_555
H7A C6A 1_555 1_555
H8A C7A 1_555 1_555
C9A C8 1_555 1_555
H9A C9A 1_555 1_555
C10A N1 1_555 1_555
H10A C10A 1_555 1_555
N1A_2 Co1 1_555 1_555
C1A C3 1_555 1_555
H3A C1A 1_555 1_555
H4A C3A 1_555 1_555
H1A O1A 1_555 1_555
H2A O1A 1_555 1_555
C9 C8A 1_555 1_555
C2A C1A 1_555 1_555
C5A O4A 1_555 1_555
C6A N1A 1_555 1_555
C9A C10A 1_555 1_555

#END
