
#######################################################################
#
#                 Cambridge Crystallographic Data Centre
#                                CCDC 
#
#######################################################################
#
# If this CIF has been generated from an entry in the Cambridge 
# Structural Database, then it will include bibliographic, chemical, 
# crystal, experimental, refinement or atomic coordinate data resulting 
# from the CCDC's data processing and validation procedures.
#
#######################################################################

data_QANDUF
_symmetry_cell_setting           monoclinic
_symmetry_space_group_name_H-M   'P 21/n'
_symmetry_Int_Tables_number      14
_space_group_name_Hall           '-P 2yn'
loop_
_symmetry_equiv_pos_site_id
_symmetry_equiv_pos_as_xyz
1 x,y,z
2 1/2+x,1/2-y,1/2+z
3 -x,-y,-z
4 1/2-x,1/2+y,1/2-z
_cell_length_a                   7.1120(10)
_cell_length_b                   14.676(3)
_cell_length_c                   12.145(2)
_cell_angle_alpha                90
_cell_angle_beta                 96.65(3)
_cell_angle_gamma                90
_cell_volume                     1259.11
loop_
_atom_site_label
_atom_site_type_symbol
_atom_site_fract_x
_atom_site_fract_y
_atom_site_fract_z
Cu1 Cu -0.11141(5) -0.07768(3) 0.11124(3)
O1 O 0.0549(3) -0.11073(16) -0.00635(17)
O2 O 0.0450(3) -0.19413(16) -0.16180(17)
O3 O -0.2269(3) -0.27558(18) -0.29250(19)
H1 H -0.1415 -0.2533 -0.2498
O4 O -0.5463(3) -0.28344(16) -0.30414(19)
N1 N -0.5564(3) -0.17896(18) -0.1126(2)
H2 H -0.6691 -0.1935 -0.1405
N2 N -0.3200(3) -0.12062(19) -0.0003(2)
C1 C -0.5097(4) -0.1333(2) -0.0175(2)
H3 H -0.5952 -0.1134 0.0296
C2 C -0.2440(4) -0.1611(2) -0.0871(2)
C3 C -0.3904(4) -0.1985(2) -0.1579(2)
C4 C -0.0326(4) -0.1563(2) -0.0862(2)
C5 C -0.3933(4) -0.2553(2) -0.2582(3)
O5 O 0.1017(3) -0.01959(15) 0.21053(16)
O6 O 0.1598(3) 0.05968(16) 0.36885(18)
O7 O -0.0580(4) 0.1345(2) 0.5074(2)
H4 H 0.0063 0.1200 0.4583
O8 O -0.3716(4) 0.1329(2) 0.5292(2)
N3 N -0.4592(4) 0.02622(19) 0.3368(2)
H5 H -0.5599 0.0392 0.3665
N4 N -0.2705(3) -0.02994(18) 0.2218(2)
C6 C -0.4512(4) -0.0242(2) 0.2457(3)
H6 H -0.5548 -0.0514 0.2048
C7 C -0.1613(4) 0.0183(2) 0.3027(2)
C8 C -0.2765(4) 0.0539(2) 0.3752(2)
C9 C 0.0482(4) 0.0202(2) 0.2956(2)
C10 C -0.2408(5) 0.1105(3) 0.4771(3)
Cu1A Cu -0.61141(5) -0.42232(3) -0.38876(3)
O4A O -0.0463(3) -0.21656(16) 0.19586(19)
loop_
_geom_bond_atom_site_label_1
_geom_bond_atom_site_label_2
_geom_bond_site_symmetry_1
_geom_bond_site_symmetry_2
Cu1 O1 1_555 1_555
O1 C4 1_555 1_555
O2 C4 1_555 1_555
O3 H1 1_555 1_555
O4 C5 1_555 1_555
N1 H2 1_555 1_555
N2 Cu1 1_555 1_555
C1 N1 1_555 1_555
H3 C1 1_555 1_555
C2 N2 1_555 1_555
C3 N1 1_555 1_555
C4 C2 1_555 1_555
C5 O3 1_555 1_555
O5 Cu1 1_555 1_555
O6 C9 1_555 1_555
O7 H4 1_555 1_555
O8 C10 1_555 1_555
N3 H5 1_555 1_555
N4 Cu1 1_555 1_555
C6 N3 1_555 1_555
H6 C6 1_555 1_555
C7 N4 1_555 1_555
C8 N3 1_555 1_555
C9 O5 1_555 1_555
C10 O7 1_555 1_555
Cu1A O4 1_555 1_555
O4A Cu1 1_555 1_555
N2 C1 1_555 1_555
C2 C3 1_555 1_555
C3 C5 1_555 1_555
N4 C6 1_555 1_555
C7 C9 1_555 1_555
C7 C8 1_555 1_555
C8 C10 1_555 1_555

#END
