
#######################################################################
#
#                 Cambridge Crystallographic Data Centre
#                                CCDC 
#
#######################################################################
#
# If this CIF has been generated from an entry in the Cambridge 
# Structural Database, then it will include bibliographic, chemical, 
# crystal, experimental, refinement or atomic coordinate data resulting 
# from the CCDC's data processing and validation procedures.
#
#######################################################################

data_QANLIA
_symmetry_cell_setting           monoclinic
_symmetry_space_group_name_H-M   'C 2'
_symmetry_Int_Tables_number      5
_space_group_name_Hall           'C 2y'
loop_
_symmetry_equiv_pos_site_id
_symmetry_equiv_pos_as_xyz
1 x,y,z
2 -x,y,-z
3 1/2+x,1/2+y,z
4 1/2-x,1/2+y,-z
_cell_length_a                   16.644(2)
_cell_length_b                   6.357(1)
_cell_length_c                   6.752(1)
_cell_angle_alpha                90
_cell_angle_beta                 108.12(1)
_cell_angle_gamma                90
_cell_volume                     678.972
loop_
_atom_site_label
_atom_site_type_symbol
_atom_site_fract_x
_atom_site_fract_y
_atom_site_fract_z
Cu1 Cu 0.00000 0.00347 0.00000
O1 O -0.0111(2) 0.0143(7) -0.7131(5)
O2 O 0.0227(3) -0.3260(7) -0.6775(6)
O3 O 0.00000 0.3677(6) 0.00000
N1 N -0.1242(3) -0.0312(7) -0.1182(7)
N2 N -0.3828(3) -0.1381(7) -0.3711(8)
C1 C 0.0037(3) -0.1578(8) -0.6122(7)
C2 C -0.1756(3) 0.1095(8) -0.2460(7)
C3 C -0.2611(4) 0.0820(9) -0.3366(8)
C4 C -0.2994(3) -0.1039(8) -0.2915(7)
C5 C -0.2454(3) -0.2512(8) -0.1594(8)
C6 C -0.1606(3) -0.2082(8) -0.0774(7)
H1 H -0.150(4) 0.246(8) -0.274(7)
H2 H -0.296(4) 0.188(8) -0.433(7)
H3 H -0.269(4) -0.386(8) -0.128(7)
H4 H -0.124(4) -0.312(7) 0.020(6)
H5 H -0.408(5) -0.258(9) -0.339(9)
H6 H -0.419(3) -0.040(7) -0.455(6)
H7 H -0.007(5) 0.458(8) -0.130(7)
C1A C -0.0037(3) -0.1578(8) -0.3878(7)
O1A O 0.0111(2) 0.0143(7) -0.2869(5)
Cu1_2 Cu 0.00000 0.00347 -1.00000
O1_2 O -0.0111(2) 0.0143(7) 0.2869(5)
H7A H 0.007(5) 0.458(8) 0.130(7)
N1A N 0.1242(3) -0.0312(7) 0.1182(7)
C2A C 0.1756(3) 0.1095(8) 0.2460(7)
C3A C 0.2611(4) 0.0820(9) 0.3366(8)
C4A C 0.2994(3) -0.1039(8) 0.2915(7)
N2A N 0.3828(3) -0.1381(7) 0.3711(8)
H5A H 0.408(5) -0.258(9) 0.339(9)
H6A H 0.419(3) -0.040(7) 0.455(6)
C5A C 0.2454(3) -0.2512(8) 0.1594(8)
C6A C 0.1606(3) -0.2082(8) 0.0774(7)
H4A H 0.124(4) -0.312(7) -0.020(6)
H3A H 0.269(4) -0.386(8) 0.128(7)
H2A H 0.296(4) 0.188(8) 0.433(7)
H1A H 0.150(4) 0.246(8) 0.274(7)
O2A O -0.0227(3) -0.3260(7) -0.3225(6)
loop_
_geom_bond_atom_site_label_1
_geom_bond_atom_site_label_2
_geom_bond_site_symmetry_1
_geom_bond_site_symmetry_2
Cu1 O3 1_555 1_555
O1 C1 1_555 1_555
O2 C1 1_555 1_555
O3 H7 1_555 1_555
N1 Cu1 1_555 1_555
N2 C4 1_555 1_555
C1 C1A 1_555 1_555
C2 N1 1_555 1_555
C3 C2 1_555 1_555
C4 C3 1_555 1_555
C5 C4 1_555 1_555
C6 N1 1_555 1_555
H1 C2 1_555 1_555
H2 C3 1_555 1_555
H3 C5 1_555 1_555
H4 C6 1_555 1_555
H5 N2 1_555 1_555
H6 N2 1_555 1_555
C1A O1A 1_555 1_555
O1A Cu1 1_555 1_555
Cu1_2 O1 1_555 1_555
O1_2 Cu1 1_555 1_555
H7A O3 1_555 1_555
N1A Cu1 1_555 1_555
C2A N1A 1_555 1_555
C3A C2A 1_555 1_555
C4A C3A 1_555 1_555
N2A C4A 1_555 1_555
H5A N2A 1_555 1_555
H6A N2A 1_555 1_555
C5A C4A 1_555 1_555
C6A N1A 1_555 1_555
H4A C6A 1_555 1_555
H3A C5A 1_555 1_555
H2A C3A 1_555 1_555
H1A C2A 1_555 1_555
O2A C1A 1_555 1_555
C5 C6 1_555 1_555
C5A C6A 1_555 1_555

#END
