
#######################################################################
#
#                 Cambridge Crystallographic Data Centre
#                                CCDC 
#
#######################################################################
#
# If this CIF has been generated from an entry in the Cambridge 
# Structural Database, then it will include bibliographic, chemical, 
# crystal, experimental, refinement or atomic coordinate data resulting 
# from the CCDC's data processing and validation procedures.
#
#######################################################################

data_QANMID
_symmetry_cell_setting           monoclinic
_symmetry_space_group_name_H-M   'P 21/n'
_symmetry_Int_Tables_number      14
_space_group_name_Hall           '-P 2yn'
loop_
_symmetry_equiv_pos_site_id
_symmetry_equiv_pos_as_xyz
1 x,y,z
2 1/2-x,1/2+y,1/2-z
3 -x,-y,-z
4 1/2+x,1/2-y,1/2+z
_cell_length_a                   11.6919(5)
_cell_length_b                   6.2287(3)
_cell_length_c                   23.6480(13)
_cell_angle_alpha                90
_cell_angle_beta                 96.584(3)
_cell_angle_gamma                90
_cell_volume                     1710.82
loop_
_atom_site_label
_atom_site_type_symbol
_atom_site_fract_x
_atom_site_fract_y
_atom_site_fract_z
Cu1 Cu 0.23712(3) 0.24909(7) 0.152614(16)
O1 O -0.2233(2) -0.1944(4) 0.01145(11)
O2 O 0.24645(19) 0.4815(4) 0.09851(9)
O3 O 0.3479(2) 0.7771(4) 0.08682(11)
O4 O 0.26442(19) 0.0288(4) 0.21169(9)
O5 O 0.36992(19) -0.0286(4) 0.29498(9)
N1 N -0.1852(2) 0.1671(5) 0.00650(11)
H1 H -0.2409 0.1767 -0.0160
N2 N -0.0290(2) 0.3455(4) 0.05936(11)
N3 N 0.0038(2) -0.2070(4) 0.09167(11)
H2 H 0.0037 -0.3470 0.0872
N4 N 0.0995(2) 0.0953(4) 0.11617(11)
N5 N 0.4038(2) 0.3231(5) 0.17679(11)
C1 C -0.1226(3) 0.3438(6) 0.02322(14)
H3 H -0.1495 0.4660 0.0006
C2 C 0.0033(3) 0.1455(5) 0.07909(13)
C3 C -0.0560(3) -0.0423(5) 0.06337(13)
C4 C -0.1600(3) -0.0405(6) 0.02588(13)
C5 C 0.0955(3) -0.1189(5) 0.12179(13)
H4 H 0.1542 -0.1939 0.1438
C6 C 0.4059(3) 0.5588(6) 0.16839(14)
H5 H 0.4837 0.6168 0.1647
H6 H 0.3753 0.6313 0.2003
C7 C 0.3298(3) 0.6107(6) 0.11288(14)
C8 C 0.4284(3) 0.2543(6) 0.23702(13)
H7 H 0.5063 0.2212 0.2460
H8 H 0.4001 0.3794 0.2551
C9 C 0.3498(3) 0.0671(5) 0.24879(14)
C10 C 0.4767(3) 0.2066(6) 0.13836(14)
H9 H 0.4560 0.0461 0.1395
H10 H 0.4475 0.2679 0.1037
C11 C 0.6048(3) 0.2385(6) 0.15273(14)
C12 C 0.6604(3) 0.4156(7) 0.13307(17)
H11 H 0.6197 0.5301 0.1126
C13 C 0.7772(4) 0.4467(8) 0.14866(19)
H12 H 0.8234 0.5704 0.1339
C14 C 0.8395(4) 0.2970(9) 0.1816(2)
H13 H 0.9236 0.3197 0.1892
C15 C 0.7870(4) 0.1167(9) 0.20047(19)
H14 H 0.8335 0.0075 0.2254
C16 C 0.6695(3) 0.0864(7) 0.18583(17)
H15 H 0.6243 -0.0414 0.1995
Cu1A Cu 0.26288(3) -0.25091(7) 0.347386(16)
O5A O 0.13008(19) 0.4714(4) 0.20502(9)
loop_
_geom_bond_atom_site_label_1
_geom_bond_atom_site_label_2
_geom_bond_site_symmetry_1
_geom_bond_site_symmetry_2
Cu1 O2 1_555 1_555
O1 C4 1_555 1_555
O2 C7 1_555 1_555
O3 C7 1_555 1_555
O4 Cu1 1_555 1_555
O5 C9 1_555 1_555
N1 H1 1_555 1_555
N2 C1 1_555 1_555
N3 H2 1_555 1_555
N4 Cu1 1_555 1_555
N5 Cu1 1_555 1_555
C1 N1 1_555 1_555
H3 C1 1_555 1_555
C2 N2 1_555 1_555
C3 N3 1_555 1_555
C4 N1 1_555 1_555
C5 N3 1_555 1_555
H4 C5 1_555 1_555
C6 N5 1_555 1_555
H5 C6 1_555 1_555
H6 C6 1_555 1_555
C7 C6 1_555 1_555
C8 N5 1_555 1_555
H7 C8 1_555 1_555
H8 C8 1_555 1_555
C9 O4 1_555 1_555
C10 N5 1_555 1_555
H9 C10 1_555 1_555
H10 C10 1_555 1_555
C11 C10 1_555 1_555
C12 C11 1_555 1_555
H11 C12 1_555 1_555
C13 C12 1_555 1_555
H12 C13 1_555 1_555
C14 C13 1_555 1_555
H13 C14 1_555 1_555
C15 C14 1_555 1_555
H14 C15 1_555 1_555
C16 C11 1_555 1_555
H15 C16 1_555 1_555
Cu1A O5 1_555 1_555
O5A Cu1 1_555 1_555
N4 C2 1_555 1_555
N4 C5 1_555 1_555
C2 C3 1_555 1_555
C3 C4 1_555 1_555
C8 C9 1_555 1_555
C15 C16 1_555 1_555

#END
