
#######################################################################
#
#                 Cambridge Crystallographic Data Centre
#                                CCDC 
#
#######################################################################
#
# If this CIF has been generated from an entry in the Cambridge 
# Structural Database, then it will include bibliographic, chemical, 
# crystal, experimental, refinement or atomic coordinate data resulting 
# from the CCDC's data processing and validation procedures.
#
#######################################################################

data_QANNOJ
_symmetry_cell_setting           monoclinic
_symmetry_space_group_name_H-M   'P 21'
_symmetry_Int_Tables_number      4
_space_group_name_Hall           'P 2yb'
loop_
_symmetry_equiv_pos_site_id
_symmetry_equiv_pos_as_xyz
1 x,y,z
2 -x,1/2+y,-z
_cell_length_a                   7.6924(6)
_cell_length_b                   10.9917(8)
_cell_length_c                   8.9403(7)
_cell_angle_alpha                90
_cell_angle_beta                 97.213(1)
_cell_angle_gamma                90
_cell_volume                     749.943
loop_
_atom_site_label
_atom_site_type_symbol
_atom_site_fract_x
_atom_site_fract_y
_atom_site_fract_z
Zn1 Zn -0.19231(3) -0.45815(2) -0.79892(2)
Cl1 Cl -0.38906(7) -0.43907(5) -0.63564(5)
Cl2 Cl -0.08488(7) -0.28165(5) -0.87153(6)
N1 N 0.2961(2) -0.04025(16) -0.00649(19)
N2 N 0.4232(2) -0.12584(17) 0.02229(19)
N3 N 0.1369(2) -0.52876(17) -0.5947(2)
N4 N 0.0157(2) -0.56100(16) -0.71218(19)
C1 C 0.2566(3) -0.0040(2) 0.1282(2)
H1 H 0.1612(3) 0.0652(2) 0.1450(2)
C2 C 0.3560(3) -0.0679(2) 0.2442(2)
H2 H 0.3518(3) -0.0595(2) 0.3641(3)
C3 C 0.4607(3) -0.1443(2) 0.1715(2)
H3 H 0.5560(3) -0.2078(2) 0.2251(2)
C4 C 0.4930(3) -0.1905(2) -0.0992(2)
H4 H 0.5083(3) -0.1277(2) -0.1895(2)
H5 H 0.6207(3) -0.2266(2) -0.0582(2)
C5 C 0.3734(3) -0.2934(2) -0.1589(2)
C6 C 0.3104(3) -0.3757(2) -0.0607(2)
H6 H 0.3491(3) -0.3673(2) 0.0592(3)
C7 C 0.1982(3) -0.4687(2) -0.1157(2)
H7 H 0.1513(3) -0.5330(2) -0.0387(2)
C8 C 0.1456(3) -0.4794(2) -0.2706(2)
H8 H 0.0552(3) -0.5502(2) -0.3128(2)
C9 C 0.2096(3) -0.39881(19) -0.3704(2)
C10 C 0.3241(3) -0.3062(2) -0.3142(2)
H9 H 0.3750(3) -0.2439(2) -0.3913(2)
C11 C 0.1460(3) -0.4035(2) -0.5376(3)
H10 H 0.0177(3) -0.3625(2) -0.5583(3)
H11 H 0.2338(3) -0.3514(2) -0.5979(3)
C12 C 0.2475(3) -0.6211(2) -0.5571(2)
H12 H 0.3569(3) -0.6196(2) -0.4686(3)
C13 C 0.1987(3) -0.7181(2) -0.6498(3)
H13 H 0.2586(3) -0.8070(2) -0.6485(3)
C14 C 0.0536(3) -0.67564(19) -0.7468(2)
H14 H -0.0174(3) -0.7281(2) -0.8367(2)
Zn1A Zn 0.19231(3) 0.04185(2) -0.20108(2)
N1A N -0.2961(2) -0.54025(16) -0.99351(19)
loop_
_geom_bond_atom_site_label_1
_geom_bond_atom_site_label_2
_geom_bond_site_symmetry_1
_geom_bond_site_symmetry_2
Zn1 Cl1 1_555 1_555
Cl2 Zn1 1_555 1_555
N1 N2 1_555 1_555
N2 C3 1_555 1_555
N3 N4 1_555 1_555
N4 Zn1 1_555 1_555
C1 N1 1_555 1_555
H1 C1 1_555 1_555
C2 C1 1_555 1_555
H2 C2 1_555 1_555
C3 C2 1_555 1_555
H3 C3 1_555 1_555
C4 N2 1_555 1_555
H4 C4 1_555 1_555
H5 C4 1_555 1_555
C5 C4 1_555 1_555
C6 C5 1_555 1_555
H6 C6 1_555 1_555
C7 C6 1_555 1_555
H7 C7 1_555 1_555
C8 C7 1_555 1_555
H8 C8 1_555 1_555
C9 C8 1_555 1_555
C10 C5 1_555 1_555
H9 C10 1_555 1_555
C11 N3 1_555 1_555
H10 C11 1_555 1_555
H11 C11 1_555 1_555
C12 N3 1_555 1_555
H12 C12 1_555 1_555
C13 C12 1_555 1_555
H13 C13 1_555 1_555
C14 N4 1_555 1_555
H14 C14 1_555 1_555
Zn1A N1 1_555 1_555
N1A Zn1 1_555 1_555
C9 C10 1_555 1_555
C9 C11 1_555 1_555
C13 C14 1_555 1_555

#END
