
#######################################################################
#
#                 Cambridge Crystallographic Data Centre
#                                CCDC 
#
#######################################################################
#
# If this CIF has been generated from an entry in the Cambridge 
# Structural Database, then it will include bibliographic, chemical, 
# crystal, experimental, refinement or atomic coordinate data resulting 
# from the CCDC's data processing and validation procedures.
#
#######################################################################

data_QANNEA
_symmetry_cell_setting           monoclinic
_symmetry_space_group_name_H-M   'P 21/c'
_symmetry_Int_Tables_number      14
_space_group_name_Hall           '-P 2ybc'
loop_
_symmetry_equiv_pos_site_id
_symmetry_equiv_pos_as_xyz
1 x,y,z
2 -x,1/2+y,1/2-z
3 -x,-y,-z
4 x,1/2-y,1/2+z
_cell_length_a                   14.740(3)
_cell_length_b                   6.2690(13)
_cell_length_c                   25.372(5)
_cell_angle_alpha                90
_cell_angle_beta                 106.45(3)
_cell_angle_gamma                90
_cell_volume                     2248.53
loop_
_atom_site_label
_atom_site_type_symbol
_atom_site_fract_x
_atom_site_fract_y
_atom_site_fract_z
Cu1 Cu 0.447152(18) 0.24878(3) 0.324009(10)
N1 N 0.33024(12) 0.3143(3) 0.26175(7)
O1 O 0.43355(12) -0.0431(2) 0.18398(6)
C1 C 0.32180(17) 0.5470(3) 0.26516(9)
H1 H 0.2573 0.5934 0.2446
H2 H 0.3677 0.6184 0.2491
C2 C 0.34214(16) 0.6050(3) 0.32574(9)
O2 O 0.40105(11) 0.4855(2) 0.35978(6)
O3 O 0.30406(14) 0.7643(2) 0.33860(7)
C3 C 0.34870(16) 0.2371(3) 0.21089(9)
H3 H 0.3735 0.3556 0.1932
H4 H 0.2888 0.1871 0.1850
C4 C 0.42009(15) 0.0551(3) 0.22338(9)
O4 O 0.46519(11) 0.0242(2) 0.27365(6)
C5 C 0.24992(16) 0.1996(4) 0.27464(9)
H5 H 0.2471 0.2436 0.3116
H6 H 0.2630 0.0444 0.2759
C6 C 0.1549(2) 0.2396(5) 0.23411(13)
C7 C 0.1016(2) 0.4208(7) 0.23944(16)
H7 H 0.1250 0.5153 0.2695
C8 C 0.0156(3) 0.4628(12) 0.2014(2)
H8 H -0.0189 0.5876 0.2048
C9 C -0.0204(3) 0.3205(16) 0.1579(2)
C10 C -0.1145(3) 0.369(3) 0.1154(3)
H9 H -0.1028 0.4429 0.0839
H10 H -0.1531 0.4597 0.1320
H11 H -0.1482 0.2351 0.1030
C11 C 0.0308(3) 0.1404(15) 0.15391(17)
H12 H 0.0058 0.0423 0.1249
C12 C 0.1187(2) 0.0979(8) 0.19153(13)
H13 H 0.1531 -0.0267 0.1879
N2 N 0.64467(12) 0.1692(3) 0.55074(7)
H14 H 0.6657 0.1849 0.5881
C13 C 0.61575(15) 0.3445(3) 0.51952(9)
H15 H 0.6237 0.4783 0.5378
N3 N 0.57760(13) 0.3458(3) 0.46607(7)
C14 C 0.56658(14) 0.1452(3) 0.44383(9)
C15 C 0.59582(14) -0.0411(3) 0.47317(8)
C16 C 0.64079(14) -0.0394(3) 0.53114(8)
O5 O 0.67173(12) -0.1900(3) 0.56158(6)
N4 N 0.57211(14) -0.2064(3) 0.43640(8)
H16 H 0.5722 -0.3413 0.4420
C17 C 0.53016(14) -0.1197(3) 0.38759(8)
H17 H 0.5064 -0.2005 0.3549
N5 N 0.52511(12) 0.0934(3) 0.38950(7)
Cu1A Cu 0.552848(18) -0.25122(3) 0.175991(10)
O1A O 0.56645(12) 0.4569(2) 0.31602(6)
loop_
_geom_bond_atom_site_label_1
_geom_bond_atom_site_label_2
_geom_bond_site_symmetry_1
_geom_bond_site_symmetry_2
Cu1 N1 1_555 1_555
N1 C1 1_555 1_555
O1 C4 1_555 1_555
C1 H1 1_555 1_555
H2 C1 1_555 1_555
C2 C1 1_555 1_555
O2 Cu1 1_555 1_555
O3 C2 1_555 1_555
C3 N1 1_555 1_555
H3 C3 1_555 1_555
H4 C3 1_555 1_555
C4 C3 1_555 1_555
O4 Cu1 1_555 1_555
C5 N1 1_555 1_555
H5 C5 1_555 1_555
H6 C5 1_555 1_555
C6 C5 1_555 1_555
C7 C6 1_555 1_555
H7 C7 1_555 1_555
C8 C7 1_555 1_555
H8 C8 1_555 1_555
C9 C8 1_555 1_555
C10 C9 1_555 1_555
H9 C10 1_555 1_555
H10 C10 1_555 1_555
H11 C10 1_555 1_555
C11 C9 1_555 1_555
H12 C11 1_555 1_555
C12 C6 1_555 1_555
H13 C12 1_555 1_555
N2 H14 1_555 1_555
C13 N2 1_555 1_555
H15 C13 1_555 1_555
N3 C13 1_555 1_555
C14 N3 1_555 1_555
C15 C14 1_555 1_555
C16 N2 1_555 1_555
O5 C16 1_555 1_555
N4 C15 1_555 1_555
H16 N4 1_555 1_555
C17 N4 1_555 1_555
H17 C17 1_555 1_555
N5 Cu1 1_555 1_555
Cu1A O1 1_555 1_555
O1A Cu1 1_555 1_555
C2 O2 1_555 1_555
C4 O4 1_555 1_555
C11 C12 1_555 1_555
C14 N5 1_555 1_555
C15 C16 1_555 1_555
C17 N5 1_555 1_555

#END
