
#######################################################################
#
#                 Cambridge Crystallographic Data Centre
#                                CCDC 
#
#######################################################################
#
# If this CIF has been generated from an entry in the Cambridge 
# Structural Database, then it will include bibliographic, chemical, 
# crystal, experimental, refinement or atomic coordinate data resulting 
# from the CCDC's data processing and validation procedures.
#
#######################################################################

data_QANSIJ
_symmetry_cell_setting           monoclinic
_symmetry_space_group_name_H-M   'P 21/c'
_symmetry_Int_Tables_number      14
_space_group_name_Hall           '-P 2ybc'
loop_
_symmetry_equiv_pos_site_id
_symmetry_equiv_pos_as_xyz
1 x,y,z
2 -x,1/2+y,1/2-z
3 -x,-y,-z
4 x,1/2-y,1/2+z
_cell_length_a                   6.9797(14)
_cell_length_b                   19.094(4)
_cell_length_c                   7.5079(15)
_cell_angle_alpha                90
_cell_angle_beta                 114.759(3)
_cell_angle_gamma                90
_cell_volume                     908.605
loop_
_atom_site_label
_atom_site_type_symbol
_atom_site_fract_x
_atom_site_fract_y
_atom_site_fract_z
Cu1 Cu 0.26606(13) 0.45715(4) 0.14368(12)
O1 O 0.7629(9) 0.4192(2) 0.3712(9)
O2 O 0.4455(8) 0.3714(3) 0.2086(8)
O3 O 0.2608(10) 0.4548(3) -0.1267(9)
H1 H 0.3680 0.4328 -0.1236
H2 H 0.2625 0.4961 -0.1680
O4 O 0.2523(10) 0.4535(3) 0.4033(9)
H3 H 0.2460 0.4947 0.4436
H4 H 0.3622 0.4335 0.4866
C1 C 0.9039(10) 0.1642(3) 0.4834(10)
C2 C 0.7021(10) 0.1724(3) 0.3319(10)
C3 C 0.6155(11) 0.2390(3) 0.2752(10)
H5 H 0.4819 0.2444 0.1740
C4 C 0.7296(12) 0.2954(3) 0.3701(11)
C5 C 0.9364(11) 0.2875(3) 0.5195(11)
H6 H 1.0144 0.3273 0.5774
C6 C 1.0249(11) 0.2226(3) 0.5812(11)
H7 H 1.1584 0.2176 0.6828
C7 C 0.6423(12) 0.3690(3) 0.3130(11)
N1 N 0.6263(9) 0.1068(3) 0.2686(8)
N2 N 0.7791(8) 0.0626(3) 0.3755(8)
N3 N 0.9487(8) 0.0951(3) 0.5070(8)
Cu1A Cu 0.73394(13) -0.04285(4) 0.35632(12)
Cu1C Cu 1.26606(13) 0.04285(4) 0.64368(12)
N2A N 0.2209(8) 0.5626(3) 0.1245(8)
N3C N -0.0513(8) 0.4049(3) 0.0070(8)
loop_
_geom_bond_atom_site_label_1
_geom_bond_atom_site_label_2
_geom_bond_site_symmetry_1
_geom_bond_site_symmetry_2
Cu1 O2 1_555 1_555
O1 C7 1_555 1_555
O2 C7 1_555 1_555
O3 Cu1 1_555 1_555
H1 O3 1_555 1_555
H2 O3 1_555 1_555
O4 Cu1 1_555 1_555
H3 O4 1_555 1_555
H4 O4 1_555 1_555
C1 C2 1_555 1_555
C2 C3 1_555 1_555
C3 H5 1_555 1_555
C4 C3 1_555 1_555
C5 C4 1_555 1_555
H6 C5 1_555 1_555
C6 C1 1_555 1_555
H7 C6 1_555 1_555
C7 C4 1_555 1_555
N1 C2 1_555 1_555
N2 N1 1_555 1_555
N3 C1 1_555 1_555
Cu1A N2 1_555 1_555
Cu1C N3 1_555 1_555
N2A Cu1 1_555 1_555
N3C Cu1 1_555 1_555
C5 C6 1_555 1_555
N2 N3 1_555 1_555

#END
