
#######################################################################
#
#                 Cambridge Crystallographic Data Centre
#                                CCDC 
#
#######################################################################
#
# If this CIF has been generated from an entry in the Cambridge 
# Structural Database, then it will include bibliographic, chemical, 
# crystal, experimental, refinement or atomic coordinate data resulting 
# from the CCDC's data processing and validation procedures.
#
#######################################################################

data_QANSII
_symmetry_cell_setting           monoclinic
_symmetry_space_group_name_H-M   'P 21/m'
_symmetry_Int_Tables_number      11
_space_group_name_Hall           '-P 2yb'
loop_
_symmetry_equiv_pos_site_id
_symmetry_equiv_pos_as_xyz
1 x,y,z
2 -x,1/2+y,-z
3 -x,-y,-z
4 x,1/2-y,z
_cell_length_a                   12.55370(10)
_cell_length_b                   21.1451(3)
_cell_length_c                   15.8920(2)
_cell_angle_alpha                90
_cell_angle_beta                 97.2730(10)
_cell_angle_gamma                90
_cell_volume                     4184.58
loop_
_atom_site_label
_atom_site_type_symbol
_atom_site_fract_x
_atom_site_fract_y
_atom_site_fract_z
Zn1 Zn -0.5000 0.0000 -0.5000
V1 V -0.59812(10) 0.2500 -0.21912(9)
V2 V -0.36312(11) 0.2500 -0.47380(9)
V3 V -0.03899(11) 0.2500 -0.07800(10)
Zn2 Zn 0.14929(9) 0.2500 -0.47124(7)
V4 V -0.48041(7) 0.12505(4) -0.34510(6)
V5 V -0.12450(11) 0.2500 -0.41601(9)
V6 V -0.56518(10) 0.2500 -0.40046(9)
V7 V -0.04289(8) 0.16240(5) -0.21546(6)
V8 V -0.46148(11) 0.2500 -0.04711(9)
V9 V -0.20446(8) 0.16135(5) -0.03433(6)
V10 V -0.19044(8) 0.12206(5) -0.37116(6)
V11 V -0.42964(8) 0.12316(4) -0.10910(6)
V12 V -0.29377(8) 0.07051(5) -0.22888(6)
O1 O -0.5512(3) 0.06819(19) -0.3953(3)
N1 N -0.6390(5) 0.0328(3) -0.5737(4)
H1 H -0.6573 0.0067 -0.6178
H2 H -0.6938 0.0345 -0.5424
C1 C -0.6159(7) 0.0967(4) -0.6046(5)
H3 H -0.6196 0.1275 -0.5599
H4 H -0.6685 0.1080 -0.6523
C2 C -0.5048(7) 0.0964(4) -0.6314(5)
H5 H -0.5025 0.0673 -0.6784
H6 H -0.4871 0.1383 -0.6501
N2 N -0.4265(5) 0.0768(3) -0.5593(4)
H7 H -0.4120 0.1090 -0.5226
H8 H -0.3648 0.0641 -0.5774
O2 O -0.7258(5) 0.2500 -0.2110(4)
O3 O -0.5757(3) 0.19002(18) -0.3091(2)
O4 O -0.5284(3) 0.19103(18) -0.1335(2)
O5 O -0.0874(3) 0.16427(19) -0.1042(3)
O6 O -0.3910(5) 0.2500 -0.5759(4)
O7 O -0.4588(3) 0.18994(18) -0.4283(2)
O8 O -0.2444(3) 0.19131(18) -0.4438(3)
O9 O 0.0708(5) 0.2500 -0.0120(4)
O10 O -0.1647(4) 0.2500 -0.0188(4)
O11 O -0.0119(5) 0.2500 -0.1950(4)
N3 N 0.1286(5) 0.1728(3) -0.5576(4)
H9 H 0.0730 0.1803 -0.5979
H10 H 0.1881 0.1676 -0.5831
C3 C 0.1082(8) 0.1158(4) -0.5103(7)
H11 H 0.1263 0.0787 -0.5414
H12 H 0.0326 0.1135 -0.5034
C4 C 0.1740(8) 0.1169(4) -0.4253(7)
H13 H 0.1540 0.0815 -0.3918
H14 H 0.2493 0.1125 -0.4321
N4 N 0.1579(5) 0.1757(3) -0.3811(4)
H15 H 0.2129 0.1824 -0.3400
H16 H 0.0967 0.1739 -0.3572
O12 O -0.6739(5) 0.2500 -0.4718(4)
O13 O -0.4411(3) 0.10009(19) -0.2264(2)
O14 O -0.0434(5) 0.2500 -0.4899(4)
O15 O -0.0773(3) 0.18365(19) -0.3359(3)
O16 O 0.0687(4) 0.1234(2) -0.2090(3)
O17 O -0.1565(3) 0.10337(19) -0.2498(3)
O18 O -0.5304(5) 0.2500 0.0320(4)
O19 O -0.3553(3) 0.18444(19) -0.0301(3)
O20 O -0.1615(4) 0.1252(2) 0.0538(3)
O21 O -0.2793(3) 0.10072(19) -0.1135(3)
O22 O -0.1456(4) 0.0654(2) -0.4278(3)
O23 O -0.3315(3) 0.09985(19) -0.3454(2)
O24 O -0.4873(3) 0.06940(19) -0.0568(3)
O25 O -0.2877(4) -0.0067(2) -0.2285(3)
Zn1C Zn -0.5000 0.5000 -0.5000
Zn2_2 Zn -0.85071(9) 0.2500 -0.47124(7)
V4C V -0.48041(7) 0.37495(4) -0.34510(6)
V7C V -0.04289(8) 0.33760(5) -0.21546(6)
V9C V -0.20446(8) 0.33865(5) -0.03433(6)
V10C V -0.19044(8) 0.37794(5) -0.37116(6)
V11C V -0.42964(8) 0.37684(4) -0.10910(6)
V12C V -0.29377(8) 0.42949(5) -0.22888(6)
O1B O -0.4488(3) -0.06819(19) -0.6047(3)
O1C O -0.5512(3) 0.43181(19) -0.3953(3)
N1B N -0.3610(5) -0.0328(3) -0.4263(4)
H1B H -0.3427 -0.0067 -0.3822
H2B H -0.3062 -0.0345 -0.4576
C1B C -0.3841(7) -0.0967(4) -0.3954(5)
H3B H -0.3804 -0.1275 -0.4401
H4B H -0.3315 -0.1080 -0.3477
C2B C -0.4952(7) -0.0964(4) -0.3686(5)
H5B H -0.4975 -0.0673 -0.3216
H6B H -0.5129 -0.1383 -0.3499
N2B N -0.5735(5) -0.0768(3) -0.4407(4)
H7B H -0.5880 -0.1090 -0.4774
H8B H -0.6352 -0.0641 -0.4226
O3C O -0.5757(3) 0.30998(18) -0.3091(2)
O4C O -0.5284(3) 0.30897(18) -0.1335(2)
O5C O -0.0874(3) 0.33573(19) -0.1042(3)
O7C O -0.4588(3) 0.31006(18) -0.4283(2)
O8C O -0.2444(3) 0.30869(18) -0.4438(3)
N3C N 0.1286(5) 0.3272(3) -0.5576(4)
H9C H 0.0730 0.3197 -0.5979
H10C H 0.1881 0.3324 -0.5831
C3C C 0.1082(8) 0.3842(4) -0.5103(7)
H11C H 0.1263 0.4213 -0.5414
H12C H 0.0326 0.3865 -0.5034
C4C C 0.1740(8) 0.3831(4) -0.4253(7)
H13C H 0.1540 0.4185 -0.3918
H14C H 0.2493 0.3875 -0.4321
N4C N 0.1579(5) 0.3243(3) -0.3811(4)
H15C H 0.2129 0.3176 -0.3400
H16C H 0.0967 0.3261 -0.3572
O12_2 O 0.3261(5) 0.2500 -0.4718(4)
O13C O -0.4411(3) 0.39991(19) -0.2264(2)
O15C O -0.0773(3) 0.31635(19) -0.3359(3)
O16C O 0.0687(4) 0.3766(2) -0.2090(3)
O17C O -0.1565(3) 0.39663(19) -0.2498(3)
O19C O -0.3553(3) 0.31556(19) -0.0301(3)
O20C O -0.1615(4) 0.3748(2) 0.0538(3)
O21C O -0.2793(3) 0.39928(19) -0.1135(3)
O22C O -0.1456(4) 0.4346(2) -0.4278(3)
O23C O -0.3315(3) 0.40015(19) -0.3454(2)
O24C O -0.4873(3) 0.43060(19) -0.0568(3)
O25C O -0.2877(4) 0.5067(2) -0.2285(3)
Zn3 Zn -0.73340(6) 0.05420(4) -0.06668(5)
N5 N -0.6669(5) -0.0364(3) -0.1046(4)
H17 H -0.6111 -0.0479 -0.0664
H18 H -0.7174 -0.0667 -0.1065
C5 C -0.6316(9) -0.0292(5) -0.1875(6)
H19 H -0.6367 -0.0696 -0.2167
H20 H -0.5571 -0.0159 -0.1808
C6 C -0.6977(8) 0.0179(5) -0.2386(5)
H21 H -0.6648 0.0275 -0.2891
H22 H -0.7682 0.0001 -0.2565
N6 N -0.7100(5) 0.0761(3) -0.1922(4)
H23 H -0.7666 0.0981 -0.2175
H24 H -0.6509 0.1002 -0.1922
N7 N -0.7419(5) 0.1531(3) -0.0327(5)
H25 H -0.6896 0.1753 -0.0530
H26 H -0.8058 0.1696 -0.0537
C7 C -0.7278(7) 0.1544(4) 0.0616(6)
H27 H -0.7931 0.1400 0.0824
H28 H -0.7134 0.1973 0.0815
C8 C -0.6345(7) 0.1114(3) 0.0951(5)
H29 H -0.5680 0.1273 0.0780
H30 H -0.6269 0.1098 0.1566
N8 N -0.6583(4) 0.0478(2) 0.0591(3)
H31 H -0.7015 0.0270 0.0908
H32 H -0.5968 0.0257 0.0603
N9 N -0.8937(5) 0.0213(3) -0.0709(4)
H33 H -0.9353 0.0472 -0.1060
H34 H -0.8965 -0.0170 -0.0957
C9 C -0.9449(6) 0.0153(4) 0.0070(5)
H35 H -0.9516 0.0570 0.0311
H36 H -0.8987 -0.0097 0.0478
Zn3B Zn -1.26660(6) -0.05420(4) 0.06668(5)
N5B N -1.3331(5) 0.0364(3) 0.1046(4)
H17B H -1.3889 0.0479 0.0664
H18B H -1.2826 0.0667 0.1065
C5B C -1.3684(9) 0.0292(5) 0.1875(6)
H19B H -1.3633 0.0696 0.2167
H20B H -1.4429 0.0159 0.1808
C6B C -1.3023(8) -0.0179(5) 0.2386(5)
H21B H -1.3352 -0.0275 0.2891
H22B H -1.2318 -0.0001 0.2565
N6B N -1.2900(5) -0.0761(3) 0.1922(4)
H23B H -1.2334 -0.0981 0.2175
H24B H -1.3491 -0.1002 0.1922
N7B N -1.2581(5) -0.1531(3) 0.0327(5)
H25B H -1.3104 -0.1753 0.0530
H26B H -1.1942 -0.1696 0.0537
C7B C -1.2722(7) -0.1544(4) -0.0616(6)
H27B H -1.2069 -0.1400 -0.0824
H28B H -1.2866 -0.1973 -0.0815
C8B C -1.3655(7) -0.1114(3) -0.0951(5)
H29B H -1.4320 -0.1273 -0.0780
H30B H -1.3731 -0.1098 -0.1566
N8B N -1.3417(4) -0.0478(2) -0.0591(3)
H31B H -1.2985 -0.0270 -0.0908
H32B H -1.4032 -0.0257 -0.0603
N9B N -1.1063(5) -0.0213(3) 0.0709(4)
H33B H -1.0647 -0.0472 0.1060
H34B H -1.1035 0.0170 0.0957
C9B C -1.0551(6) -0.0153(4) -0.0070(5)
H35B H -1.0484 -0.0570 -0.0311
H36B H -1.1013 0.0097 -0.0478
O26 O -0.3027(10) 0.2500 -0.2351(8)
O27 O -0.1410(4) 0.2500 -0.7579(3)
O28 O 0.0205(7) -0.0014(5) -0.3201(7)
O29 O -0.1752(7) 0.0720(5) -0.6038(5)
O30 O -0.6470(17) 0.2500 -0.6518(10)
O31 O -0.1083(10) -0.0852(6) -0.2413(9)
O32 O 0.025(2) 0.1932(11) -0.8334(16)
O33 O -0.152(3) 0.1865(11) -0.6498(13)
loop_
_geom_bond_atom_site_label_1
_geom_bond_atom_site_label_2
_geom_bond_site_symmetry_1
_geom_bond_site_symmetry_2
Zn1 O1 1_555 1_555
V1 O2 1_555 1_555
V2 O6 1_555 1_555
V3 O5 1_555 1_555
Zn2 N3 1_555 1_555
V4 O1 1_555 1_555
V5 O8 1_555 1_555
V6 O3 1_555 1_555
V7 O5 1_555 1_555
V8 O4 1_555 1_555
V9 O5 1_555 1_555
V10 O8 1_555 1_555
V11 O4 1_555 1_555
V12 O13 1_555 1_555
Zn3 N5 1_555 1_555
N1 Zn1 1_555 1_555
H1 N1 1_555 1_555
H2 N1 1_555 1_555
C1 N1 1_555 1_555
H3 C1 1_555 1_555
H4 C1 1_555 1_555
C2 C1 1_555 1_555
H5 C2 1_555 1_555
H6 C2 1_555 1_555
N2 Zn1 1_555 1_555
H7 N2 1_555 1_555
H8 N2 1_555 1_555
O3 V1 1_555 1_555
O4 V1 1_555 1_555
O7 V2 1_555 1_555
O8 V2 1_555 1_555
O9 V3 1_555 1_555
O10 V3 1_555 1_555
O11 V3 1_555 1_555
N3 H9 1_555 1_555
H10 N3 1_555 1_555
C3 N3 1_555 1_555
H11 C3 1_555 1_555
H12 C3 1_555 1_555
C4 C3 1_555 1_555
H13 C4 1_555 1_555
H14 C4 1_555 1_555
N4 Zn2 1_555 1_555
H15 N4 1_555 1_555
H16 N4 1_555 1_555
O12 V6 1_555 1_555
O13 V4 1_555 1_555
O14 Zn2 1_555 1_555
O15 V5 1_555 1_555
O16 V7 1_555 1_555
O17 V7 1_555 1_555
O18 V8 1_555 1_555
O19 V8 1_555 1_555
O20 V9 1_555 1_555
O21 V9 1_555 1_555
O22 V10 1_555 1_555
O23 V4 1_555 1_555
O24 V11 1_555 1_555
O25 V12 1_555 1_555
N5 H17 1_555 1_555
H18 N5 1_555 1_555
C5 N5 1_555 1_555
H19 C5 1_555 1_555
H20 C5 1_555 1_555
C6 C5 1_555 1_555
H21 C6 1_555 1_555
H22 C6 1_555 1_555
N6 Zn3 1_555 1_555
H23 N6 1_555 1_555
H24 N6 1_555 1_555
N7 Zn3 1_555 1_555
H25 N7 1_555 1_555
H26 N7 1_555 1_555
C7 N7 1_555 1_555
H27 C7 1_555 1_555
H28 C7 1_555 1_555
C8 C7 1_555 1_555
H29 C8 1_555 1_555
H30 C8 1_555 1_555
N8 Zn3 1_555 1_555
H31 N8 1_555 1_555
H32 N8 1_555 1_555
N9 Zn3 1_555 1_555
H33 N9 1_555 1_555
H34 N9 1_555 1_555
C9 N9 1_555 1_555
H35 C9 1_555 1_555
H36 C9 1_555 1_555
Zn1C O1C 1_555 1_555
Zn2_2 O12 1_555 1_555
V4C O1C 1_555 1_555
V7C O11 1_555 1_555
V9C O10 1_555 1_555
V10C O8C 1_555 1_555
V11C O4C 1_555 1_555
V12C O13C 1_555 1_555
Zn3B N5B 1_555 1_555
O1B Zn1 1_555 1_555
N1B Zn1 1_555 1_555
H1B N1B 1_555 1_555
H2B N1B 1_555 1_555
C1B N1B 1_555 1_555
H3B C1B 1_555 1_555
H4B C1B 1_555 1_555
C2B C1B 1_555 1_555
H5B C2B 1_555 1_555
H6B C2B 1_555 1_555
N2B Zn1 1_555 1_555
H7B N2B 1_555 1_555
H8B N2B 1_555 1_555
O3C V1 1_555 1_555
O4C V1 1_555 1_555
O5C V3 1_555 1_555
O7C V2 1_555 1_555
O8C V2 1_555 1_555
N3C Zn2 1_555 1_555
H9C N3C 1_555 1_555
H10C N3C 1_555 1_555
C3C N3C 1_555 1_555
H11C C3C 1_555 1_555
H12C C3C 1_555 1_555
C4C C3C 1_555 1_555
H13C C4C 1_555 1_555
H14C C4C 1_555 1_555
N4C Zn2 1_555 1_555
H15C N4C 1_555 1_555
H16C N4C 1_555 1_555
O12_2 Zn2 1_555 1_555
O13C V4C 1_555 1_555
O15C V5 1_555 1_555
O16C V7C 1_555 1_555
O17C V7C 1_555 1_555
O19C V8 1_555 1_555
O20C V9C 1_555 1_555
O21C V9C 1_555 1_555
O22C V10C 1_555 1_555
O23C V4C 1_555 1_555
O24C V11C 1_555 1_555
O25C V12C 1_555 1_555
N5B H17B 1_555 1_555
H18B N5B 1_555 1_555
C5B N5B 1_555 1_555
H19B C5B 1_555 1_555
H20B C5B 1_555 1_555
C6B C5B 1_555 1_555
H21B C6B 1_555 1_555
H22B C6B 1_555 1_555
N6B Zn3B 1_555 1_555
H23B N6B 1_555 1_555
H24B N6B 1_555 1_555
N7B Zn3B 1_555 1_555
H25B N7B 1_555 1_555
H26B N7B 1_555 1_555
C7B N7B 1_555 1_555
H27B C7B 1_555 1_555
H28B C7B 1_555 1_555
C8B C7B 1_555 1_555
H29B C8B 1_555 1_555
H30B C8B 1_555 1_555
N8B Zn3B 1_555 1_555
H31B N8B 1_555 1_555
H32B N8B 1_555 1_555
N9B Zn3B 1_555 1_555
H33B N9B 1_555 1_555
H34B N9B 1_555 1_555
C9B C9 1_555 1_555
H35B C9B 1_555 1_555
H36B C9B 1_555 1_555
V4 O3 1_555 1_555
V4 O7 1_555 1_555
V5 O14 1_555 1_555
V5 O8C 1_555 1_555
V6 O7 1_555 1_555
V6 O3C 1_555 1_555
V6 O7C 1_555 1_555
V7 O11 1_555 1_555
V7 O15 1_555 1_555
V8 O4C 1_555 1_555
V9 O10 1_555 1_555
V9 O19 1_555 1_555
V10 O15 1_555 1_555
V10 O17 1_555 1_555
V10 O23 1_555 1_555
V11 O13 1_555 1_555
V11 O19 1_555 1_555
V11 O21 1_555 1_555
V12 O17 1_555 1_555
V12 O21 1_555 1_555
V12 O23 1_555 1_555
C2 N2 1_555 1_555
C4 N4 1_555 1_555
C6 N6 1_555 1_555
C8 N8 1_555 1_555
V4C O3C 1_555 1_555
V4C O7C 1_555 1_555
V7C O5C 1_555 1_555
V7C O15C 1_555 1_555
V9C O5C 1_555 1_555
V9C O19C 1_555 1_555
V10C O15C 1_555 1_555
V10C O17C 1_555 1_555
V10C O23C 1_555 1_555
V11C O13C 1_555 1_555
V11C O19C 1_555 1_555
V11C O21C 1_555 1_555
V12C O17C 1_555 1_555
V12C O21C 1_555 1_555
V12C O23C 1_555 1_555
C2B N2B 1_555 1_555
C4C N4C 1_555 1_555
C6B N6B 1_555 1_555
C8B N8B 1_555 1_555
N9B C9B 1_555 1_555

#END
