
#######################################################################
#
#                 Cambridge Crystallographic Data Centre
#                                CCDC 
#
#######################################################################
#
# If this CIF has been generated from an entry in the Cambridge 
# Structural Database, then it will include bibliographic, chemical, 
# crystal, experimental, refinement or atomic coordinate data resulting 
# from the CCDC's data processing and validation procedures.
#
#######################################################################

data_QANSEE
_symmetry_cell_setting           rhombohedral
_symmetry_space_group_name_H-M   'R -3'
_symmetry_Int_Tables_number      148
_space_group_name_Hall           '-R 3'
loop_
_symmetry_equiv_pos_site_id
_symmetry_equiv_pos_as_xyz
1 x,y,z
2 -y,x-y,z
3 -x+y,-x,z
4 2/3+x,1/3+y,1/3+z
5 2/3-y,1/3+x-y,1/3+z
6 2/3-x+y,1/3-x,1/3+z
7 1/3+x,2/3+y,2/3+z
8 1/3-y,2/3+x-y,2/3+z
9 1/3-x+y,2/3-x,2/3+z
10 -x,-y,-z
11 y,-x+y,-z
12 x-y,x,-z
13 1/3-x,2/3-y,2/3-z
14 1/3+y,2/3-x+y,2/3-z
15 1/3+x-y,2/3+x,2/3-z
16 2/3-x,1/3-y,1/3-z
17 2/3+y,1/3-x+y,1/3-z
18 2/3+x-y,1/3+x,1/3-z
_cell_length_a                   33.0359(2)
_cell_length_b                   33.0359(2)
_cell_length_c                   9.0191(3)
_cell_angle_alpha                90
_cell_angle_beta                 90
_cell_angle_gamma                120.00
_cell_volume                     8524.45
loop_
_atom_site_label
_atom_site_type_symbol
_atom_site_fract_x
_atom_site_fract_y
_atom_site_fract_z
Zn1 Zn 0.1667 0.3333 0.3333
C1 C 0.22205(10) 0.30817(10) 0.5496(3)
C2 C 0.25109(11) 0.32486(11) 0.6802(4)
H1 H 0.2688 0.3122 0.7218
C3 C 0.24848(11) 0.36183(11) 0.7328(4)
H2 H 0.2638 0.3800 0.8179
C4 C 0.21771(10) 0.36847(10) 0.6341(3)
C5 C 0.20831(9) 0.40557(10) 0.6424(3)
C6 C 0.18342(9) 0.41569(10) 0.5375(3)
C7 C 0.17026(11) 0.45140(11) 0.5533(4)
H3 H 0.1782 0.4730 0.6327
C8 C 0.14431(11) 0.44778(10) 0.4322(4)
H4 H 0.1304 0.4664 0.4113
C9 C 0.14161(10) 0.41066(10) 0.3409(3)
C10 C 0.21742(10) 0.27191(10) 0.4585(3)
N1 N 0.20172(8) 0.33492(8) 0.5260(3)
N2 N 0.16626(8) 0.39230(8) 0.4065(3)
C11 C 0.22724(10) 0.43775(10) 0.7732(3)
C12 C 0.21209(12) 0.42171(12) 0.9156(4)
H5 H 0.1904 0.3896 0.9326
C13 C 0.22876(13) 0.45280(14) 1.0332(4)
H6 H 0.2172 0.4414 1.1298
N3 N 0.26033(12) 0.49804(11) 1.0173(4)
C14 C 0.27573(15) 0.51314(13) 0.8797(5)
H7 H 0.2987 0.5451 0.8666
C15 C 0.26005(12) 0.48480(11) 0.7555(4)
H8 H 0.2715 0.4973 0.6598
C16 C 0.24354(10) 0.24740(10) 0.5026(3)
C17 C 0.28606(11) 0.25925(11) 0.4367(4)
H9 H 0.2997 0.2839 0.3665
C18 C 0.30806(11) 0.23475(11) 0.4747(4)
H10 H 0.3370 0.2429 0.4286
N4 N 0.29054(9) 0.19986(8) 0.5736(3)
C19 C 0.25012(11) 0.18905(11) 0.6378(4)
H11 H 0.2374 0.1645 0.7086
C20 C 0.22557(11) 0.21200(11) 0.6064(4)
H12 H 0.1970 0.2035 0.6555
Zn1J Zn 0.3333 0.1666 0.6667
Zn1P Zn -0.0000 0.4999 0.0000
C1L C 0.11128(10) 0.35850(10) 0.1171(3)
C2L C 0.08224(11) 0.34181(11) -0.0135(4)
H1L H 0.0645 0.3545 -0.0551
C3L C 0.08485(11) 0.30484(11) -0.0661(4)
H2L H 0.0695 0.2867 -0.1512
C4L C 0.11562(10) 0.29820(10) 0.0326(3)
C5L C 0.12502(9) 0.26110(10) 0.0243(3)
C6L C 0.14991(9) 0.25098(10) 0.1292(3)
C7L C 0.16307(11) 0.21527(11) 0.1134(4)
H3L H 0.1551 0.1937 0.0340
C8L C 0.18902(11) 0.21889(10) 0.2345(4)
H4L H 0.2029 0.2003 0.2554
C9L C 0.19172(10) 0.25601(10) 0.3258(3)
C10L C 0.11591(10) 0.39476(10) 0.2082(3)
N1L N 0.13161(8) 0.33175(8) 0.1407(3)
N2L N 0.16707(8) 0.27437(8) 0.2602(3)
C11L C 0.10609(10) 0.22892(10) -0.1065(3)
C12L C 0.12124(12) 0.24496(12) -0.2489(4)
H5L H 0.1429 0.2771 -0.2659
C13L C 0.10457(13) 0.21387(14) -0.3665(4)
H6L H 0.1161 0.2253 -0.4631
N3L N 0.07300(12) 0.16863(11) -0.3506(4)
C14L C 0.05760(15) 0.15353(13) -0.2130(5)
H7L H 0.0346 0.1216 -0.1999
C15L C 0.07328(12) 0.18187(11) -0.0888(4)
H8L H 0.0618 0.1694 0.0069
C16L C 0.08979(10) 0.41927(10) 0.1641(3)
C17L C 0.04727(11) 0.40742(11) 0.2300(4)
H9L H 0.0336 0.3828 0.3002
C18L C 0.02527(11) 0.43192(11) 0.1920(4)
H10L H -0.0037 0.4238 0.2381
N4L N 0.04279(9) 0.46681(8) 0.0931(3)
N4K N 0.09068(12) 0.29054(9) 0.4264(3)
N4H N 0.24265(12) 0.37613(9) 0.2403(3)
C19L C 0.08321(11) 0.47762(11) 0.0289(4)
H11L H 0.0959 0.5022 -0.0419
C20L C 0.10776(11) 0.45467(11) 0.0603(4)
H12L H 0.1363 0.4632 0.0112
C21 C 0.0392(2) 0.1124(2) 0.3047(7)
C22 C 0.0282(2) 0.0845(3) 0.1785(8)
H13 H 0.0081 0.0907 0.1134
H14 H 0.0117 0.0515 0.2075
H15 H 0.0570 0.0918 0.1258
O1 O 0.0394(3) 0.1470(2) 0.2995(10)
O2 O 0.0523(4) 0.1032(4) 0.4242(9)
H16 H 0.0598 0.1267 0.5067
loop_
_geom_bond_atom_site_label_1
_geom_bond_atom_site_label_2
_geom_bond_site_symmetry_1
_geom_bond_site_symmetry_2
Zn1 N1 1_555 1_555
C1 C2 1_555 1_555
C2 H1 1_555 1_555
C3 C2 1_555 1_555
H2 C3 1_555 1_555
C4 C3 1_555 1_555
C5 C4 1_555 1_555
C6 C5 1_555 1_555
C7 C6 1_555 1_555
H3 C7 1_555 1_555
C8 C7 1_555 1_555
H4 C8 1_555 1_555
C9 C8 1_555 1_555
C10 C1 1_555 1_555
N1 C1 1_555 1_555
N2 Zn1 1_555 1_555
C11 C5 1_555 1_555
C12 C11 1_555 1_555
H5 C12 1_555 1_555
C13 C12 1_555 1_555
H6 C13 1_555 1_555
N3 C13 1_555 1_555
C14 N3 1_555 1_555
H7 C14 1_555 1_555
C15 C11 1_555 1_555
H8 C15 1_555 1_555
C16 C10 1_555 1_555
C17 C16 1_555 1_555
H9 C17 1_555 1_555
C18 C17 1_555 1_555
H10 C18 1_555 1_555
N4 C18 1_555 1_555
C19 N4 1_555 1_555
H11 C19 1_555 1_555
C20 C16 1_555 1_555
H12 C20 1_555 1_555
C21 C22 1_555 1_555
C22 H13 1_555 1_555
H14 C22 1_555 1_555
H15 C22 1_555 1_555
O1 C21 1_555 1_555
O2 C21 1_555 1_555
H16 O2 1_555 1_555
Zn1J N4 1_555 1_555
Zn1P N4L 1_555 1_555
C1L C2L 1_555 1_555
C2L H1L 1_555 1_555
C3L C2L 1_555 1_555
H2L C3L 1_555 1_555
C4L C3L 1_555 1_555
C5L C4L 1_555 1_555
C6L C5L 1_555 1_555
C7L C6L 1_555 1_555
H3L C7L 1_555 1_555
C8L C7L 1_555 1_555
H4L C8L 1_555 1_555
C9L C10 1_555 1_555
C10L C9 1_555 1_555
N1L Zn1 1_555 1_555
N2L Zn1 1_555 1_555
C11L C5L 1_555 1_555
C12L C11L 1_555 1_555
H5L C12L 1_555 1_555
C13L C12L 1_555 1_555
H6L C13L 1_555 1_555
N3L C13L 1_555 1_555
C14L N3L 1_555 1_555
H7L C14L 1_555 1_555
C15L C11L 1_555 1_555
H8L C15L 1_555 1_555
C16L C10L 1_555 1_555
C17L C16L 1_555 1_555
H9L C17L 1_555 1_555
C18L C17L 1_555 1_555
H10L C18L 1_555 1_555
N4L C18L 1_555 1_555
N4K Zn1 1_555 1_555
N4H Zn1 1_555 1_555
C19L N4L 1_555 1_555
H11L C19L 1_555 1_555
C20L C16L 1_555 1_555
H12L C20L 1_555 1_555
C4 N1 1_555 1_555
C6 N2 1_555 1_555
C9 N2 1_555 1_555
C14 C15 1_555 1_555
C19 C20 1_555 1_555
C1L C10L 1_555 1_555
C1L N1L 1_555 1_555
C4L N1L 1_555 1_555
C6L N2L 1_555 1_555
C8L C9L 1_555 1_555
C9L N2L 1_555 1_555
C14L C15L 1_555 1_555
C19L C20L 1_555 1_555

#END
