
#######################################################################
#
#                 Cambridge Crystallographic Data Centre
#                                CCDC 
#
#######################################################################
#
# If this CIF has been generated from an entry in the Cambridge 
# Structural Database, then it will include bibliographic, chemical, 
# crystal, experimental, refinement or atomic coordinate data resulting 
# from the CCDC's data processing and validation procedures.
#
#######################################################################

data_QANTEG
_symmetry_cell_setting           monoclinic
_symmetry_space_group_name_H-M   'P n'
_symmetry_Int_Tables_number      7
_space_group_name_Hall           'P -2yac'
loop_
_symmetry_equiv_pos_site_id
_symmetry_equiv_pos_as_xyz
1 x,y,z
2 1/2+x,-y,1/2+z
_cell_length_a                   5.18330(24)
_cell_length_b                   15.3959(6)
_cell_length_c                   5.94963(25)
_cell_angle_alpha                90
_cell_angle_beta                 94.534(4)
_cell_angle_gamma                90
_cell_volume                     473.304
loop_
_atom_site_label
_atom_site_type_symbol
_atom_site_fract_x
_atom_site_fract_y
_atom_site_fract_z
Cd1 Cd 0.4556(20) 0.017 0.2246(14)
P1 P 0.8830(21) -0.1148(4) 0.2640(14)
O1 O 0.8197(33) -0.0870(9) 0.0224(16)
O2 O 0.6857(24) -0.0769(8) 0.4211(20)
O3 O 1.1528(22) -0.0870(9) 0.3618(22)
C1 C 0.8527(33) -0.2326(5) 0.2737(21)
C2 C 0.8890(32) -0.2794(8) 0.4955(25)
C3 C 0.653(5) -0.2698(13) 0.150(4)
C4 C 1.0574(28) -0.3496(13) 0.504(4)
C5 C 0.675(4) -0.2815(14) 0.6211(31)
C6 C 0.976(5) -0.4285(9) 0.586(4)
C7 C 0.5959(35) -0.3600(19) 0.707(4)
C8 C 0.762(5) -0.4306(13) 0.713(4)
O4 O 0.799(4) 0.1166(12) 0.233(5)
Cd1A Cd 0.9556(20) -0.017 -0.2754(14)
Cd1A_2 Cd 0.9556(20) -0.017 0.7246(14)
Cd1_2 Cd 1.4556(20) 0.017 0.2246(14)
P1A P 0.3830(21) 0.1148(4) -0.2360(14)
O1A O 0.3197(33) 0.0870(9) 0.5224(16)
O2A O 0.1857(24) 0.0769(8) -0.0789(20)
O3_2 O 0.1528(22) -0.0870(9) 0.3618(22)
O3A O 0.6528(22) 0.0870(9) -0.1382(22)
loop_
_geom_bond_atom_site_label_1
_geom_bond_atom_site_label_2
_geom_bond_site_symmetry_1
_geom_bond_site_symmetry_2
Cd1 O1 1_555 1_555
P1 O1 1_555 1_555
O1 Cd1A 1_555 1_555
O2 Cd1 1_555 1_555
O3 P1 1_555 1_555
C1 P1 1_555 1_555
C2 C1 1_555 1_555
C3 C1 1_555 1_555
C4 C2 1_555 1_555
C5 C2 1_555 1_555
C6 C4 1_555 1_555
C7 C5 1_555 1_555
C8 C6 1_555 1_555
O4 Cd1 1_555 1_555
Cd1A O3A 1_555 1_555
Cd1A_2 O2 1_555 1_555
Cd1_2 O3 1_555 1_555
P1A O2A 1_555 1_555
O1A Cd1 1_555 1_555
O2A Cd1 1_555 1_555
O3_2 Cd1 1_555 1_555
O3A Cd1 1_555 1_555
P1 O2 1_555 1_555
O3 Cd1A_2 1_555 1_555
C7 C8 1_555 1_555
P1A O3A 1_555 1_555

#END
