
#######################################################################
#
#                 Cambridge Crystallographic Data Centre
#                                CCDC 
#
#######################################################################
#
# If this CIF has been generated from an entry in the Cambridge 
# Structural Database, then it will include bibliographic, chemical, 
# crystal, experimental, refinement or atomic coordinate data resulting 
# from the CCDC's data processing and validation procedures.
#
#######################################################################

data_QANZIP
_symmetry_cell_setting           monoclinic
_symmetry_space_group_name_H-M   'P 21/c'
_symmetry_Int_Tables_number      14
_space_group_name_Hall           '-P 2ybc'
loop_
_symmetry_equiv_pos_site_id
_symmetry_equiv_pos_as_xyz
1 x,y,z
2 -x,1/2+y,1/2-z
3 -x,-y,-z
4 x,1/2-y,1/2+z
_cell_length_a                   7.5743(15)
_cell_length_b                   9.4265(19)
_cell_length_c                   23.070(5)
_cell_angle_alpha                90
_cell_angle_beta                 99.17(3)
_cell_angle_gamma                90
_cell_volume                     1626.13
loop_
_atom_site_label
_atom_site_type_symbol
_atom_site_fract_x
_atom_site_fract_y
_atom_site_fract_z
Cd1 Cd 0.37207(3) 0.76117(2) 0.151228(8)
C1 C -0.0009(4) 0.5994(3) 0.15162(12)
H1 H -0.0416 0.6587 0.1201
C2 C -0.1268(3) 0.5481(3) 0.18443(11)
C3 C -0.0634(4) 0.4615(3) 0.23177(11)
C4 C 0.1166(4) 0.4230(4) 0.24080(13)
H2 H 0.1604 0.3603 0.2708
C5 C 0.2287(4) 0.4777(3) 0.20540(13)
H3 H 0.3480 0.4498 0.2117
C6 C -0.3151(4) 0.6025(3) 0.16794(13)
C7 C -0.1784(4) 0.4031(3) 0.27446(12)
C8 C 0.4989(5) 1.0964(4) 0.15025(14)
H4 H 0.5467 1.0781 0.1892
C9 C 0.5082(6) 1.2336(4) 0.12965(18)
H5 H 0.5612 1.3051 0.1543
C10 C 0.4388(5) 1.2622(4) 0.07288(18)
H6 H 0.4470 1.3532 0.0580
C11 C 0.3545(4) 1.1537(4) 0.03669(13)
C12 C 0.2740(5) 1.1775(4) -0.02318(14)
H7 H 0.2780 1.2676 -0.0393
C13 C 0.1931(5) 1.0716(4) -0.05628(13)
H8 H 0.1419 1.0894 -0.0950
C14 C 0.1845(4) 0.9320(4) -0.03286(12)
C15 C 0.1030(5) 0.8183(5) -0.06584(14)
H9 H 0.0472 0.8326 -0.1043
C16 C 0.1057(6) 0.6866(5) -0.04139(17)
H10 H 0.0555 0.6097 -0.0633
C17 C 0.1847(5) 0.6691(4) 0.01677(15)
H11 H 0.1843 0.5791 0.0333
C18 C 0.2634(4) 0.9035(3) 0.02590(12)
C19 C 0.3495(4) 1.0176(3) 0.06115(11)
N1 N 0.2603(4) 0.7735(3) 0.04983(11)
N2 N 0.4256(3) 0.9895(3) 0.11747(10)
N3 N 0.1734(3) 0.5698(3) 0.16210(11)
O1 O -0.1087(3) 0.3984(3) 0.32719(10)
O2 O -0.3306(3) 0.3581(3) 0.25541(9)
O3 O -0.3819(3) 0.6673(3) 0.20630(12)
O4 O -0.3912(3) 0.5872(4) 0.11662(11)
Cd1A Cd -0.37207(3) 0.26117(2) 0.348772(8)
Cd1_2 Cd -0.62793(3) 0.76117(2) 0.151228(8)
O1A O 0.1087(3) 0.8984(3) 0.17281(10)
O2A O 0.3306(3) 0.8581(3) 0.24459(9)
O3_2 O 0.6181(3) 0.6673(3) 0.20630(12)
O4_2 O 0.6088(3) 0.5872(4) 0.11662(11)
loop_
_geom_bond_atom_site_label_1
_geom_bond_atom_site_label_2
_geom_bond_site_symmetry_1
_geom_bond_site_symmetry_2
Cd1 N1 1_555 1_555
C1 H1 1_555 1_555
C2 C1 1_555 1_555
C3 C2 1_555 1_555
C4 C3 1_555 1_555
H2 C4 1_555 1_555
C5 C4 1_555 1_555
H3 C5 1_555 1_555
C6 C2 1_555 1_555
C7 C3 1_555 1_555
C8 H4 1_555 1_555
C9 C8 1_555 1_555
H5 C9 1_555 1_555
C10 C9 1_555 1_555
H6 C10 1_555 1_555
C11 C10 1_555 1_555
C12 C11 1_555 1_555
H7 C12 1_555 1_555
C13 C12 1_555 1_555
H8 C13 1_555 1_555
C14 C13 1_555 1_555
C15 C14 1_555 1_555
H9 C15 1_555 1_555
C16 C15 1_555 1_555
H10 C16 1_555 1_555
C17 C16 1_555 1_555
H11 C17 1_555 1_555
C18 C14 1_555 1_555
C19 C11 1_555 1_555
N1 C17 1_555 1_555
N2 Cd1 1_555 1_555
N3 Cd1 1_555 1_555
O1 C7 1_555 1_555
O2 C7 1_555 1_555
O3 C6 1_555 1_555
O4 C6 1_555 1_555
Cd1A O1 1_555 1_555
Cd1_2 O3 1_555 1_555
O1A Cd1 1_555 1_555
O2A Cd1 1_555 1_555
O3_2 Cd1 1_555 1_555
O4_2 Cd1 1_555 1_555
C1 N3 1_555 1_555
C5 N3 1_555 1_555
C8 N2 1_555 1_555
C18 C19 1_555 1_555
C18 N1 1_555 1_555
C19 N2 1_555 1_555
O2 Cd1A 1_555 1_555
O4 Cd1_2 1_555 1_555

#END
