
#######################################################################
#
#                 Cambridge Crystallographic Data Centre
#                                CCDC 
#
#######################################################################
#
# If this CIF has been generated from an entry in the Cambridge 
# Structural Database, then it will include bibliographic, chemical, 
# crystal, experimental, refinement or atomic coordinate data resulting 
# from the CCDC's data processing and validation procedures.
#
#######################################################################

data_QANZEL
_symmetry_cell_setting           monoclinic
_symmetry_space_group_name_H-M   'C 2/c'
_symmetry_Int_Tables_number      15
_space_group_name_Hall           '-C 2yn'
loop_
_symmetry_equiv_pos_site_id
_symmetry_equiv_pos_as_xyz
1 x,y,z
2 1/2+x,1/2+y,z
3 -x,y,1/2-z
4 1/2-x,1/2+y,1/2-z
5 -x,-y,-z
6 1/2-x,1/2-y,-z
7 x,-y,1/2+z
8 1/2+x,1/2-y,1/2+z
_cell_length_a                   6.8980(14)
_cell_length_b                   7.7550(16)
_cell_length_c                   30.339(6)
_cell_angle_alpha                90
_cell_angle_beta                 93.44(3)
_cell_angle_gamma                90
_cell_volume                     1620.03
loop_
_atom_site_label
_atom_site_type_symbol
_atom_site_fract_x
_atom_site_fract_y
_atom_site_fract_z
C1 C 0.7751(4) 0.2507(4) 0.67519(10)
C2 C 0.6807(5) 0.3604(4) 0.63826(11)
H1 H 0.5829 0.4330 0.6505
H2 H 0.7788 0.4355 0.6270
C3 C 0.6981(5) 0.1815(4) 0.57309(11)
C4 C 0.5903(4) 0.0896(4) 0.53576(10)
C5 C 0.6995(5) 0.0020(5) 0.50601(12)
H3 H 0.8343 0.0022 0.5099
C6 C 0.3890(5) 0.0864(5) 0.52941(12)
H4 H 0.3133 0.1439 0.5491
N1 N 0.5918(4) 0.2638(4) 0.60195(9)
H5 H 0.4672 0.2588 0.5987
O1 O 0.7432(3) 0.1770(3) 0.78869(8)
H6 H 0.6959 0.0757 0.7886
H7 H 0.7883 0.2025 0.8145
O2 O 0.8729(3) 0.3362(3) 0.70474(7)
O3 O 0.7580(4) 0.0930(3) 0.67597(9)
O4 O 1.0000 -0.0742(4) 0.7500
H8 H 0.922(4) -0.136(4) 0.7346(11)
O5 O 0.8768(4) 0.1811(3) 0.57643(9)
Zn1 Zn 1.0000 0.18129(6) 0.7500
C1D C 0.2249(4) -0.2507(4) 0.32481(10)
C2D C 0.3193(5) -0.3604(4) 0.36174(11)
H1D H 0.4171 -0.4330 0.3495
H2D H 0.2212 -0.4355 0.3730
C3D C 0.3019(5) -0.1815(4) 0.42691(11)
C4D C 0.4097(4) -0.0896(4) 0.46424(10)
C5D C 0.3005(5) -0.0020(5) 0.49399(12)
H3D H 0.1657 -0.0022 0.4901
C6D C 0.6110(5) -0.0864(5) 0.47059(12)
H4D H 0.6867 -0.1439 0.4509
N1D N 0.4082(4) -0.2638(4) 0.39805(9)
H5D H 0.5328 -0.2588 0.4013
O1B O 1.2568(3) 0.1770(3) 0.71131(8)
H6B H 1.3041 0.0757 0.7114
H7B H 1.2117 0.2025 0.6855
O2D O 0.1271(3) -0.3362(3) 0.29526(7)
O2B O 1.1271(3) 0.3362(3) 0.79526(7)
O3D O 0.2420(4) -0.0930(3) 0.32403(9)
H8B H 1.078(4) -0.136(4) 0.7654(11)
O5D O 0.1232(4) -0.1811(3) 0.42357(9)
Zn1F Zn 0.0000 -0.18129(6) 0.2500
O6 O 0.1926(3) 0.3001(3) 0.62691(8)
H9 H 0.0986 0.2757 0.6086
H10 H 0.1833 0.4053 0.6344
loop_
_geom_bond_atom_site_label_1
_geom_bond_atom_site_label_2
_geom_bond_site_symmetry_1
_geom_bond_site_symmetry_2
C1 C2 1_555 1_555
C2 H1 1_555 1_555
H2 C2 1_555 1_555
C3 C4 1_555 1_555
C4 C5 1_555 1_555
C5 H3 1_555 1_555
C6 C4 1_555 1_555
H4 C6 1_555 1_555
N1 C2 1_555 1_555
H5 N1 1_555 1_555
O1 H6 1_555 1_555
H7 O1 1_555 1_555
O2 C1 1_555 1_555
O3 C1 1_555 1_555
O4 H8 1_555 1_555
O5 C3 1_555 1_555
Zn1 O1 1_555 1_555
O6 H9 1_555 1_555
H10 O6 1_555 1_555
C1D C2D 1_555 1_555
C2D H1D 1_555 1_555
H2D C2D 1_555 1_555
C3D C4D 1_555 1_555
C4D C5D 1_555 1_555
C5D C6 1_555 1_555
H3D C5D 1_555 1_555
C6D C5 1_555 1_555
H4D C6D 1_555 1_555
N1D C2D 1_555 1_555
H5D N1D 1_555 1_555
O1B Zn1 1_555 1_555
H6B O1B 1_555 1_555
H7B O1B 1_555 1_555
O2D C1D 1_555 1_555
O2B Zn1 1_555 1_555
O3D C1D 1_555 1_555
H8B O4 1_555 1_555
O5D C3D 1_555 1_555
Zn1F O2D 1_555 1_555
C3 N1 1_555 1_555
O2 Zn1 1_555 1_555
O4 Zn1 1_555 1_555
C3D N1D 1_555 1_555
C4D C6D 1_555 1_555

#END
