
#######################################################################
#
#                 Cambridge Crystallographic Data Centre
#                                CCDC 
#
#######################################################################
#
# If this CIF has been generated from an entry in the Cambridge 
# Structural Database, then it will include bibliographic, chemical, 
# crystal, experimental, refinement or atomic coordinate data resulting 
# from the CCDC's data processing and validation procedures.
#
#######################################################################

data_QAPCUH
_symmetry_cell_setting           monoclinic
_symmetry_space_group_name_H-M   'P c'
_symmetry_Int_Tables_number      7
_space_group_name_Hall           'P -2yc'
loop_
_symmetry_equiv_pos_site_id
_symmetry_equiv_pos_as_xyz
1 x,y,z
2 x,-y,1/2+z
_cell_length_a                   9.149(3)
_cell_length_b                   7.1226(13)
_cell_length_c                   7.1974(19)
_cell_angle_alpha                90
_cell_angle_beta                 99.88(2)
_cell_angle_gamma                90
_cell_volume                     462.06
loop_
_atom_site_label
_atom_site_type_symbol
_atom_site_fract_x
_atom_site_fract_y
_atom_site_fract_z
Ga1 Ga 0.6000 0.44571(11) 0.5000
S1 S 0.4347(2) 0.5463(3) 0.6985(2)
C1 C 0.7549(10) 0.6428(15) 0.5272(12)
H1 H 0.8194 0.6287 0.6465
H2 H 0.7089 0.7643 0.5209
H3 H 0.8116 0.6310 0.4272
C2 C 0.6401(10) 0.1726(14) 0.5182(13)
H4 H 0.6719 0.1301 0.4051
H5 H 0.5512 0.1073 0.5339
H6 H 0.7165 0.1480 0.6246
C3 C 0.3020(10) 0.3588(14) 0.6878(10)
C4 C 0.1583(11) 0.3980(14) 0.5932(13)
H7 H 0.1351 0.5150 0.5388
C5 C 0.0524(11) 0.260(2) 0.5825(15)
H8 H -0.0424 0.2834 0.5163
C6 C 0.0837(11) 0.0898(19) 0.6673(14)
H9 H 0.0092 0.0002 0.6626
C7 C 0.2276(11) 0.0493(15) 0.7613(12)
H10 H 0.2502 -0.0680 0.8153
C8 C 0.3359(10) 0.1881(15) 0.7724(10)
H11 H 0.4312 0.1650 0.8371
Ga1A Ga 0.6000 0.55429(11) 1.0000
S1A S 0.4347(2) 0.4537(3) 0.1985(2)
loop_
_geom_bond_atom_site_label_1
_geom_bond_atom_site_label_2
_geom_bond_site_symmetry_1
_geom_bond_site_symmetry_2
Ga1 S1 1_555 1_555
S1 C3 1_555 1_555
C1 Ga1 1_555 1_555
H1 C1 1_555 1_555
H2 C1 1_555 1_555
H3 C1 1_555 1_555
C2 Ga1 1_555 1_555
H4 C2 1_555 1_555
H5 C2 1_555 1_555
H6 C2 1_555 1_555
C3 C4 1_555 1_555
C4 H7 1_555 1_555
C5 C4 1_555 1_555
H8 C5 1_555 1_555
C6 C5 1_555 1_555
H9 C6 1_555 1_555
C7 C6 1_555 1_555
H10 C7 1_555 1_555
C8 C3 1_555 1_555
H11 C8 1_555 1_555
Ga1A S1 1_555 1_555
S1A Ga1 1_555 1_555
C7 C8 1_555 1_555

#END
