
#######################################################################
#
#                 Cambridge Crystallographic Data Centre
#                                CCDC 
#
#######################################################################
#
# If this CIF has been generated from an entry in the Cambridge 
# Structural Database, then it will include bibliographic, chemical, 
# crystal, experimental, refinement or atomic coordinate data resulting 
# from the CCDC's data processing and validation procedures.
#
#######################################################################

data_QAPGOF
_symmetry_cell_setting           orthorhombic
_symmetry_space_group_name_H-M   'F d d 2'
_symmetry_Int_Tables_number      43
_space_group_name_Hall           'F 2 -2d'
loop_
_symmetry_equiv_pos_site_id
_symmetry_equiv_pos_as_xyz
1 x,y,z
2 -x,-y,z
3 1/4-x,1/4+y,1/4+z
4 3/4+x,3/4-y,1/4+z
5 x,1/2+y,1/2+z
6 -x,1/2-y,1/2+z
7 1/4-x,3/4+y,3/4+z
8 3/4+x,1/4-y,3/4+z
9 1/2+x,y,1/2+z
10 1/2-x,-y,1/2+z
11 3/4-x,1/4+y,3/4+z
12 1/4+x,3/4-y,3/4+z
13 1/2+x,1/2+y,z
14 1/2-x,1/2-y,z
15 3/4-x,3/4+y,1/4+z
16 1/4+x,1/4-y,1/4+z
_cell_length_a                   11.8787(4)
_cell_length_b                   68.916(3)
_cell_length_c                   20.5275(7)
_cell_angle_alpha                90
_cell_angle_beta                 90
_cell_angle_gamma                90
_cell_volume                     16804.5
loop_
_atom_site_label
_atom_site_type_symbol
_atom_site_fract_x
_atom_site_fract_y
_atom_site_fract_z
Zn1 Zn 0.74073(6) 0.127628(10) 0.91561(3)
Zn2 Zn 0.83531(7) 0.062268(10) 0.70961(4)
Zn3 Zn 1.0000 0.0000 0.91832(6)
O1 O 0.6507(5) 0.14128(7) 0.8365(2)
O2 O 0.5743(4) 0.13661(6) 0.7404(2)
O3 O 0.6340(4) 0.10682(8) 0.6412(2)
O4 O 0.7384(4) 0.08055(8) 0.6445(2)
O5 O 0.6584(4) 0.04851(7) 0.7366(2)
O6 O 0.5858(4) 0.02819(8) 0.8080(3)
H1 H 0.6095 0.0208 0.8363
O7 O 0.6556(5) 0.00368(8) 0.8858(3)
O8 O 0.8198(5) -0.00754(8) 0.9214(3)
N1 N 0.7547(5) 0.10746(8) 0.8431(3)
N2 N 0.7974(5) 0.08551(8) 0.7669(3)
N3 N 0.6716(5) 0.14987(9) 0.9809(3)
N4 N 0.5831(5) 0.11495(9) 0.9560(3)
N5 N 0.8743(5) 0.04105(8) 0.7775(3)
N6 N 0.9384(5) 0.01988(8) 0.8508(3)
N7 N 0.9908(5) 0.07182(7) 0.6644(3)
N8 N 0.8539(4) 0.04210(8) 0.6297(3)
C1 C 0.8136(6) 0.09169(10) 0.8293(4)
C2 C 0.7024(6) 0.11256(9) 0.7850(3)
C3 C 0.7317(5) 0.09895(9) 0.7398(3)
C4 C 0.6376(4) 0.13130(8) 0.7848(3)
C5 C 0.6968(5) 0.09502(9) 0.6701(3)
C6 C 0.8840(10) 0.08037(14) 0.8792(4)
H2 H 0.9625 0.0817 0.8690
H3 H 0.8635 0.0669 0.8779
H4 H 0.8701 0.0854 0.9221
C7 C 0.7073(6) 0.16764(11) 0.9908(4)
H5 H 0.7658 0.1723 0.9652
C8 C 0.6616(8) 0.17973(15) 1.0377(4)
H6 H 0.6924 0.1920 1.0425
C9 C 0.5798(9) 0.17503(16) 1.0748(5)
H7 H 0.5531 0.1836 1.1063
C10 C 0.5304(8) 0.15635(15) 1.0664(4)
C11 C 0.4360(10) 0.1488(2) 1.1005(6)
H8 H 0.4031 0.1563 1.1330
C12 C 0.3926(11) 0.1312(2) 1.0874(6)
H9 H 0.3318 0.1267 1.1117
C13 C 0.4375(8) 0.11919(16) 1.0372(5)
C14 C 0.3930(10) 0.1018(2) 1.0212(6)
H10 H 0.3301 0.0972 1.0433
C15 C 0.4396(7) 0.09085(15) 0.9729(5)
H11 H 0.4079 0.0790 0.9615
C16 C 0.5399(9) 0.09793(16) 0.9391(5)
H12 H 0.5729 0.0906 0.9062
C17 C 0.5381(7) 0.12567(13) 1.0030(3)
C18 C 0.5826(6) 0.14427(12) 1.0169(3)
C19 C 0.9644(5) 0.03341(10) 0.8087(3)
C20 C 0.7858(6) 0.03185(9) 0.8022(3)
C21 C 0.8190(5) 0.01843(10) 0.8490(3)
C22 C 1.0833(7) 0.03899(14) 0.7939(5)
H13 H 1.1328 0.0332 0.8253
H14 H 1.0906 0.0529 0.7957
H15 H 1.1029 0.0345 0.7510
C23 C 0.6693(6) 0.03662(10) 0.7798(3)
C24 C 0.7613(7) 0.00412(11) 0.8881(3)
N9 N 0.9744(6) 0.01903(12) 1.0024(3)
C25 C 0.9549(9) 0.03745(14) 1.0019(4)
H16 H 0.9520 0.0439 0.9621
C26 C 0.9375(11) 0.04839(15) 1.0605(6)
H17 H 0.9180 0.0615 1.0594
C27 C 0.9506(12) 0.03899(17) 1.1160(5)
H18 H 0.9452 0.0459 1.1547
C28 C 0.9714(8) 0.01979(18) 1.1190(4)
C29 C 0.9869(7) 0.00977(13) 1.0595(3)
C30 C 0.9845(13) 0.00851(17) 1.1786(4)
H19 H 0.9687 0.0144 1.2182
C31 C 1.0523(7) 0.08686(10) 0.6790(3)
H20 H 1.0348 0.0940 0.7161
C32 C 1.1453(8) 0.09280(13) 0.6401(4)
H21 H 1.1856 0.1040 0.6502
C33 C 1.1729(7) 0.08194(14) 0.5892(4)
H22 H 1.2354 0.0853 0.5643
C34 C 1.1117(6) 0.06604(13) 0.5727(4)
C35 C 1.1325(9) 0.05402(16) 0.5154(4)
H23 H 1.1932 0.0570 0.4886
C36 C 1.0663(10) 0.03867(15) 0.5000(5)
H24 H 1.0836 0.0312 0.4637
C37 C 0.9724(7) 0.03395(14) 0.5380(4)
C38 C 0.8962(9) 0.01936(15) 0.5226(5)
H25 H 0.9087 0.0117 0.4860
C39 C 0.8093(11) 0.01628(15) 0.5577(6)
H26 H 0.7614 0.0061 0.5476
C40 C 0.7850(8) 0.02832(12) 0.6122(4)
H27 H 0.7191 0.0263 0.6357
C41 C 0.9455(6) 0.04546(10) 0.5929(3)
C42 C 1.0191(5) 0.06139(9) 0.6116(3)
Zn1A Zn 1.25927(6) -0.127628(10) 0.91561(3)
Zn1G Zn 0.49073(6) 0.122372(10) 0.66561(3)
Zn1F Zn 1.50927(6) -0.122372(10) 0.66561(3)
Zn2A Zn 1.16469(7) -0.062268(10) 0.70961(4)
O1A O 1.3493(5) -0.14128(7) 0.8365(2)
O2A O 1.4257(4) -0.13661(6) 0.7404(2)
O2O O 0.8243(4) 0.11339(6) 0.9904(2)
O2N O 1.1757(4) -0.11339(6) 0.9904(2)
O3A O 1.3660(4) -0.10682(8) 0.6412(2)
O3O O 0.8840(4) 0.14318(8) 0.8912(2)
O3N O 1.1160(4) -0.14318(8) 0.8912(2)
O4A O 1.2616(4) -0.08055(8) 0.6445(2)
O5A O 1.3416(4) -0.04851(7) 0.7366(2)
O6A O 1.4142(4) -0.02819(8) 0.8080(3)
H1A H 1.3905 -0.0208 0.8363
O7A O 1.3444(5) -0.00368(8) 0.8858(3)
O8A O 1.1802(5) 0.00754(8) 0.9214(3)
N1A N 1.2453(5) -0.10746(8) 0.8431(3)
N2A N 1.2026(5) -0.08551(8) 0.7669(3)
N3A N 1.3284(5) -0.14987(9) 0.9809(3)
N4A N 1.4169(5) -0.11495(9) 0.9560(3)
N5A N 1.1257(5) -0.04105(8) 0.7775(3)
N6A N 1.0616(5) -0.01988(8) 0.8508(3)
N7A N 1.0092(5) -0.07182(7) 0.6644(3)
N8A N 1.1461(4) -0.04210(8) 0.6297(3)
C1A C 1.1864(6) -0.09169(10) 0.8293(4)
C2A C 1.2976(6) -0.11256(9) 0.7850(3)
C3A C 1.2683(5) -0.09895(9) 0.7398(3)
C4A C 1.3624(4) -0.13130(8) 0.7848(3)
C5A C 1.3032(5) -0.09502(9) 0.6701(3)
C6A C 1.1160(10) -0.08037(14) 0.8792(4)
H2A H 1.0375 -0.0817 0.8690
H3A H 1.1365 -0.0669 0.8779
H4A H 1.1299 -0.0854 0.9221
C7A C 1.2927(6) -0.16764(11) 0.9908(4)
H5A H 1.2342 -0.1723 0.9652
C8A C 1.3384(8) -0.17973(15) 1.0377(4)
H6A H 1.3076 -0.1920 1.0425
C9A C 1.4202(9) -0.17503(16) 1.0748(5)
H7A H 1.4469 -0.1836 1.1063
C10A C 1.4696(8) -0.15635(15) 1.0664(4)
C11A C 1.5640(10) -0.1488(2) 1.1005(6)
H8A H 1.5969 -0.1563 1.1330
C12A C 1.6074(11) -0.1312(2) 1.0874(6)
H9A H 1.6682 -0.1267 1.1117
C13A C 1.5625(8) -0.11919(16) 1.0372(5)
C14A C 1.6070(10) -0.1018(2) 1.0212(6)
H10A H 1.6699 -0.0972 1.0433
C15A C 1.5604(7) -0.09085(15) 0.9729(5)
H11A H 1.5921 -0.0790 0.9615
C16A C 1.4601(9) -0.09793(16) 0.9391(5)
H12A H 1.4271 -0.0906 0.9062
C17A C 1.4619(7) -0.12567(13) 1.0030(3)
C18A C 1.4174(6) -0.14427(12) 1.0169(3)
C19A C 1.0356(5) -0.03341(10) 0.8087(3)
C20A C 1.2142(6) -0.03185(9) 0.8022(3)
C21A C 1.1810(5) -0.01843(10) 0.8490(3)
C22A C 0.9167(7) -0.03899(14) 0.7939(5)
H13A H 0.8672 -0.0332 0.8253
H14A H 0.9094 -0.0529 0.7957
H15A H 0.8971 -0.0345 0.7510
C23A C 1.3307(6) -0.03662(10) 0.7798(3)
C24A C 1.2387(7) -0.00412(11) 0.8881(3)
N9A N 1.0256(6) -0.01903(12) 1.0024(3)
C25A C 1.0451(9) -0.03745(14) 1.0019(4)
H16A H 1.0480 -0.0439 0.9621
C26A C 1.0625(11) -0.04839(15) 1.0605(6)
H17A H 1.0820 -0.0615 1.0594
C27A C 1.0494(12) -0.03899(17) 1.1160(5)
H18A H 1.0548 -0.0459 1.1547
C28A C 1.0286(8) -0.01979(18) 1.1190(4)
C29A C 1.0131(7) -0.00977(13) 1.0595(3)
C30A C 1.0155(13) -0.00851(17) 1.1786(4)
H19A H 1.0313 -0.0144 1.2182
C31A C 0.9477(7) -0.08686(10) 0.6790(3)
H20A H 0.9652 -0.0940 0.7161
C32A C 0.8547(8) -0.09280(13) 0.6401(4)
H21A H 0.8144 -0.1040 0.6502
C33A C 0.8271(7) -0.08194(14) 0.5892(4)
H22A H 0.7646 -0.0853 0.5643
C34A C 0.8883(6) -0.06604(13) 0.5727(4)
C35A C 0.8675(9) -0.05402(16) 0.5154(4)
H23A H 0.8068 -0.0570 0.4886
C36A C 0.9337(10) -0.03867(15) 0.5000(5)
H24A H 0.9164 -0.0312 0.4637
C37A C 1.0276(7) -0.03395(14) 0.5380(4)
C38A C 1.1038(9) -0.01936(15) 0.5226(5)
H25A H 1.0913 -0.0117 0.4860
C39A C 1.1907(11) -0.01628(15) 0.5577(6)
H26A H 1.2386 -0.0061 0.5476
C40A C 1.2150(8) -0.02832(12) 0.6122(4)
H27A H 1.2809 -0.0263 0.6357
C41A C 1.0545(6) -0.04546(10) 0.5929(3)
C42A C 0.9809(5) -0.06139(9) 0.6116(3)
loop_
_geom_bond_atom_site_label_1
_geom_bond_atom_site_label_2
_geom_bond_site_symmetry_1
_geom_bond_site_symmetry_2
Zn1 O1 1_555 1_555
Zn2 O4 1_555 1_555
Zn3 O8 1_555 1_555
O1 C4 1_555 1_555
O2 C4 1_555 1_555
O3 C5 1_555 1_555
O4 C5 1_555 1_555
O5 Zn2 1_555 1_555
O6 H1 1_555 1_555
O7 C24 1_555 1_555
O8 C24 1_555 1_555
N1 Zn1 1_555 1_555
N2 Zn2 1_555 1_555
N3 Zn1 1_555 1_555
N4 Zn1 1_555 1_555
N5 Zn2 1_555 1_555
N6 Zn3 1_555 1_555
N7 Zn2 1_555 1_555
N8 Zn2 1_555 1_555
C1 N1 1_555 1_555
C2 N1 1_555 1_555
C3 N2 1_555 1_555
C4 C2 1_555 1_555
C5 C3 1_555 1_555
C6 C1 1_555 1_555
H2 C6 1_555 1_555
H3 C6 1_555 1_555
H4 C6 1_555 1_555
C7 N3 1_555 1_555
H5 C7 1_555 1_555
C8 C7 1_555 1_555
H6 C8 1_555 1_555
C9 C8 1_555 1_555
H7 C9 1_555 1_555
C10 C9 1_555 1_555
C11 C10 1_555 1_555
H8 C11 1_555 1_555
C12 C11 1_555 1_555
H9 C12 1_555 1_555
C13 C12 1_555 1_555
C14 C13 1_555 1_555
H10 C14 1_555 1_555
C15 C14 1_555 1_555
H11 C15 1_555 1_555
C16 N4 1_555 1_555
H12 C16 1_555 1_555
C17 N4 1_555 1_555
C18 N3 1_555 1_555
C19 N5 1_555 1_555
C20 N5 1_555 1_555
C21 N6 1_555 1_555
C22 C19 1_555 1_555
H13 C22 1_555 1_555
H14 C22 1_555 1_555
H15 C22 1_555 1_555
C23 O5 1_555 1_555
C24 C21 1_555 1_555
N9 Zn3 1_555 1_555
C25 N9 1_555 1_555
H16 C25 1_555 1_555
C26 C25 1_555 1_555
H17 C26 1_555 1_555
C27 C26 1_555 1_555
H18 C27 1_555 1_555
C28 C27 1_555 1_555
C29 N9 1_555 1_555
C30 C28 1_555 1_555
H19 C30 1_555 1_555
C31 N7 1_555 1_555
H20 C31 1_555 1_555
C32 C31 1_555 1_555
H21 C32 1_555 1_555
C33 C32 1_555 1_555
H22 C33 1_555 1_555
C34 C33 1_555 1_555
C35 C34 1_555 1_555
H23 C35 1_555 1_555
C36 C35 1_555 1_555
H24 C36 1_555 1_555
C37 C36 1_555 1_555
C38 C37 1_555 1_555
H25 C38 1_555 1_555
C39 C38 1_555 1_555
H26 C39 1_555 1_555
C40 N8 1_555 1_555
H27 C40 1_555 1_555
C41 N8 1_555 1_555
C42 N7 1_555 1_555
Zn1A O1A 1_555 1_555
Zn1G O2 1_555 1_555
Zn1F O2A 1_555 1_555
Zn2A O4A 1_555 1_555
O1A C4A 1_555 1_555
O2A C4A 1_555 1_555
O2O Zn1 1_555 1_555
O2N Zn1A 1_555 1_555
O3A Zn1F 1_555 1_555
O3O Zn1 1_555 1_555
O3N Zn1A 1_555 1_555
O4A C5A 1_555 1_555
O5A Zn2A 1_555 1_555
O6A H1A 1_555 1_555
O7A C24A 1_555 1_555
O8A Zn3 1_555 1_555
N1A Zn1A 1_555 1_555
N2A Zn2A 1_555 1_555
N3A Zn1A 1_555 1_555
N4A Zn1A 1_555 1_555
N5A Zn2A 1_555 1_555
N6A Zn3 1_555 1_555
N7A Zn2A 1_555 1_555
N8A Zn2A 1_555 1_555
C1A N1A 1_555 1_555
C2A N1A 1_555 1_555
C3A N2A 1_555 1_555
C4A C2A 1_555 1_555
C5A O3A 1_555 1_555
C6A C1A 1_555 1_555
H2A C6A 1_555 1_555
H3A C6A 1_555 1_555
H4A C6A 1_555 1_555
C7A N3A 1_555 1_555
H5A C7A 1_555 1_555
C8A C7A 1_555 1_555
H6A C8A 1_555 1_555
C9A C8A 1_555 1_555
H7A C9A 1_555 1_555
C10A C9A 1_555 1_555
C11A C10A 1_555 1_555
H8A C11A 1_555 1_555
C12A C11A 1_555 1_555
H9A C12A 1_555 1_555
C13A C12A 1_555 1_555
C14A C13A 1_555 1_555
H10A C14A 1_555 1_555
C15A C14A 1_555 1_555
H11A C15A 1_555 1_555
C16A N4A 1_555 1_555
H12A C16A 1_555 1_555
C17A N4A 1_555 1_555
C18A N3A 1_555 1_555
C19A N5A 1_555 1_555
C20A N5A 1_555 1_555
C21A N6A 1_555 1_555
C22A C19A 1_555 1_555
H13A C22A 1_555 1_555
H14A C22A 1_555 1_555
H15A C22A 1_555 1_555
C23A O5A 1_555 1_555
C24A O8A 1_555 1_555
N9A Zn3 1_555 1_555
C25A N9A 1_555 1_555
H16A C25A 1_555 1_555
C26A C25A 1_555 1_555
H17A C26A 1_555 1_555
C27A C26A 1_555 1_555
H18A C27A 1_555 1_555
C28A C27A 1_555 1_555
C29A C29 1_555 1_555
C30A C30 1_555 1_555
H19A C30A 1_555 1_555
C31A N7A 1_555 1_555
H20A C31A 1_555 1_555
C32A C31A 1_555 1_555
H21A C32A 1_555 1_555
C33A C32A 1_555 1_555
H22A C33A 1_555 1_555
C34A C33A 1_555 1_555
C35A C34A 1_555 1_555
H23A C35A 1_555 1_555
C36A C35A 1_555 1_555
H24A C36A 1_555 1_555
C37A C36A 1_555 1_555
C38A C37A 1_555 1_555
H25A C38A 1_555 1_555
C39A C38A 1_555 1_555
H26A C39A 1_555 1_555
C40A N8A 1_555 1_555
H27A C40A 1_555 1_555
C41A N8A 1_555 1_555
C42A N7A 1_555 1_555
O3 Zn1G 1_555 1_555
O6 C23 1_555 1_555
N2 C1 1_555 1_555
N6 C19 1_555 1_555
C2 C3 1_555 1_555
C10 C18 1_555 1_555
C13 C17 1_555 1_555
C15 C16 1_555 1_555
C17 C18 1_555 1_555
C20 C21 1_555 1_555
C20 C23 1_555 1_555
C28 C29 1_555 1_555
C34 C42 1_555 1_555
C37 C41 1_555 1_555
C39 C40 1_555 1_555
C41 C42 1_555 1_555
O6A C23A 1_555 1_555
N2A C1A 1_555 1_555
N6A C19A 1_555 1_555
C2A C3A 1_555 1_555
C3A C5A 1_555 1_555
C10A C18A 1_555 1_555
C13A C17A 1_555 1_555
C15A C16A 1_555 1_555
C17A C18A 1_555 1_555
C20A C21A 1_555 1_555
C20A C23A 1_555 1_555
C21A C24A 1_555 1_555
N9A C29A 1_555 1_555
C28A C29A 1_555 1_555
C28A C30A 1_555 1_555
C34A C42A 1_555 1_555
C37A C41A 1_555 1_555
C39A C40A 1_555 1_555
C41A C42A 1_555 1_555

#END
