
#######################################################################
#
#                 Cambridge Crystallographic Data Centre
#                                CCDC 
#
#######################################################################
#
# If this CIF has been generated from an entry in the Cambridge 
# Structural Database, then it will include bibliographic, chemical, 
# crystal, experimental, refinement or atomic coordinate data resulting 
# from the CCDC's data processing and validation procedures.
#
#######################################################################

data_QAPHOF
_symmetry_cell_setting           orthorhombic
_symmetry_space_group_name_H-M   'P b c n'
_symmetry_Int_Tables_number      60
_space_group_name_Hall           '-P 2n 2ab'
loop_
_symmetry_equiv_pos_site_id
_symmetry_equiv_pos_as_xyz
1 x,y,z
2 1/2-x,1/2-y,1/2+z
3 -x,y,1/2-z
4 1/2+x,1/2-y,-z
5 -x,-y,-z
6 1/2+x,1/2+y,1/2-z
7 x,-y,1/2+z
8 1/2-x,1/2+y,z
_cell_length_a                   26.188(5)
_cell_length_b                   13.264(3)
_cell_length_c                   7.1652(14)
_cell_angle_alpha                90
_cell_angle_beta                 90
_cell_angle_gamma                90
_cell_volume                     2488.89
loop_
_atom_site_label
_atom_site_type_symbol
_atom_site_fract_x
_atom_site_fract_y
_atom_site_fract_z
Cd1 Cd 0.5000 0.04434(2) 0.2500
O1 O 0.46549(10) -0.06167(19) 0.0416(3)
O2 O 0.41262(14) -0.1245(3) 0.2468(3)
O3 O 0.43557(10) -0.1682(2) -0.2344(3)
H1 H 0.4236(15) -0.206(3) -0.320(5)
C1 C 0.43025(11) -0.1197(2) 0.0887(4)
C2 C 0.40686(11) -0.1850(2) -0.0683(4)
C3 C 0.35000(11) -0.1592(2) -0.0828(4)
C4 C 0.32796(14) -0.0692(3) -0.1332(5)
H4 H 0.3477 -0.0158 -0.1763
C5 C 0.27529(16) -0.0605(3) -0.1178(6)
H5 H 0.2596 0.0001 -0.1493
C6 C 0.24581(14) -0.1404(3) -0.0565(6)
H6 H 0.2106 -0.1327 -0.0477
C7 C 0.26787(13) -0.2313(3) -0.0081(5)
H7 H 0.2478 -0.2849 0.0327
C8 C 0.32065(12) -0.2412(2) -0.0217(4)
C9 C 0.35499(11) -0.3255(2) 0.0238(4)
C10 C 0.34495(13) -0.4218(3) 0.0922(5)
H8 H 0.3116 -0.4431 0.1126
C11 C 0.38597(15) -0.4854(3) 0.1293(5)
H9 H 0.3798 -0.5497 0.1762
C12 C 0.43579(16) -0.4548(3) 0.0977(6)
H10 H 0.4626 -0.4989 0.1219
C13 C 0.44600(12) -0.3589(3) 0.0304(5)
H11 H 0.4794 -0.3378 0.0104
C14 C 0.40545(11) -0.2951(2) -0.0064(4)
Cd1F Cd 0.5000 -0.04434(2) -0.2500
Cd1F_2 Cd 0.5000 -0.04434(2) 0.7500
O1F O 0.46549(10) 0.06167(19) 0.5416(3)
O1D O 0.53451(10) 0.06167(19) -0.0416(3)
O1B O 0.53451(10) -0.06167(19) 0.4584(3)
O2F O 0.41262(14) 0.1245(3) 0.7468(3)
O3F O 0.43557(10) 0.1682(2) 0.2656(3)
O3D O 0.56443(10) 0.1682(2) 0.2344(3)
H1F H 0.4236(15) 0.206(3) 0.180(5)
H1D H 0.5764(15) 0.206(3) 0.320(5)
C1F C 0.43025(11) 0.1197(2) 0.5887(4)
C2F C 0.40686(11) 0.1850(2) 0.4317(4)
C3F C 0.35000(11) 0.1592(2) 0.4172(4)
C4F C 0.32796(14) 0.0692(3) 0.3668(5)
H4F H 0.3477 0.0158 0.3237
C5F C 0.27529(16) 0.0605(3) 0.3822(6)
H5F H 0.2596 -0.0001 0.3507
C6F C 0.24581(14) 0.1404(3) 0.4435(6)
H6F H 0.2106 0.1327 0.4523
C7F C 0.26787(13) 0.2313(3) 0.4919(5)
H7F H 0.2478 0.2849 0.5327
C8F C 0.32065(12) 0.2412(2) 0.4783(4)
C9F C 0.35499(11) 0.3255(2) 0.5238(4)
C10F C 0.34495(13) 0.4218(3) 0.5922(5)
H8F H 0.3116 0.4431 0.6126
C11F C 0.38597(15) 0.4854(3) 0.6293(5)
H9F H 0.3798 0.5497 0.6762
C12F C 0.43579(16) 0.4548(3) 0.5977(6)
H10F H 0.4626 0.4989 0.6219
C13F C 0.44600(12) 0.3589(3) 0.5304(5)
H11F H 0.4794 0.3378 0.5104
C14F C 0.40545(11) 0.2951(2) 0.4936(4)
O4 O 0.3961(2) -0.2737(3) 0.4876(5)
H2 H 0.397(3) -0.224(3) 0.413(7)
H3 H 0.396(2) -0.329(2) 0.428(7)
loop_
_geom_bond_atom_site_label_1
_geom_bond_atom_site_label_2
_geom_bond_site_symmetry_1
_geom_bond_site_symmetry_2
Cd1 O1 1_555 1_555
O1 C1 1_555 1_555
O2 C1 1_555 1_555
O3 H1 1_555 1_555
O4 H2 1_555 1_555
H3 O4 1_555 1_555
C1 C2 1_555 1_555
C2 O3 1_555 1_555
C3 C2 1_555 1_555
C4 C3 1_555 1_555
H4 C4 1_555 1_555
C5 C4 1_555 1_555
H5 C5 1_555 1_555
C6 C5 1_555 1_555
H6 C6 1_555 1_555
C7 C6 1_555 1_555
H7 C7 1_555 1_555
C8 C3 1_555 1_555
C9 C8 1_555 1_555
C10 C9 1_555 1_555
H8 C10 1_555 1_555
C11 C10 1_555 1_555
H9 C11 1_555 1_555
C12 C11 1_555 1_555
H10 C12 1_555 1_555
C13 C12 1_555 1_555
H11 C13 1_555 1_555
C14 C2 1_555 1_555
Cd1F O1 1_555 1_555
Cd1F_2 O1F 1_555 1_555
O1F Cd1 1_555 1_555
O1D Cd1 1_555 1_555
O1B Cd1 1_555 1_555
O2F C1F 1_555 1_555
O3F Cd1 1_555 1_555
O3D Cd1 1_555 1_555
H1F O3F 1_555 1_555
H1D O3D 1_555 1_555
C1F O1F 1_555 1_555
C2F O3F 1_555 1_555
C3F C2F 1_555 1_555
C4F C3F 1_555 1_555
H4F C4F 1_555 1_555
C5F C4F 1_555 1_555
H5F C5F 1_555 1_555
C6F C5F 1_555 1_555
H6F C6F 1_555 1_555
C7F C6F 1_555 1_555
H7F C7F 1_555 1_555
C8F C3F 1_555 1_555
C9F C8F 1_555 1_555
C10F C9F 1_555 1_555
H8F C10F 1_555 1_555
C11F C10F 1_555 1_555
H9F C11F 1_555 1_555
C12F C11F 1_555 1_555
H10F C12F 1_555 1_555
C13F C12F 1_555 1_555
H11F C13F 1_555 1_555
C14F C2F 1_555 1_555
O3 Cd1F 1_555 1_555
C7 C8 1_555 1_555
C9 C14 1_555 1_555
C13 C14 1_555 1_555
Cd1F O1D 1_555 1_555
Cd1F_2 O1B 1_555 1_555
C1F C2F 1_555 1_555
C7F C8F 1_555 1_555
C9F C14F 1_555 1_555
C13F C14F 1_555 1_555

#END
