
#######################################################################
#
#                 Cambridge Crystallographic Data Centre
#                                CCDC 
#
#######################################################################
#
# If this CIF has been generated from an entry in the Cambridge 
# Structural Database, then it will include bibliographic, chemical, 
# crystal, experimental, refinement or atomic coordinate data resulting 
# from the CCDC's data processing and validation procedures.
#
#######################################################################

data_QAPLEY
_symmetry_cell_setting           monoclinic
_symmetry_space_group_name_H-M   'P 21/c'
_symmetry_Int_Tables_number      14
_space_group_name_Hall           '-P 2ybc'
loop_
_symmetry_equiv_pos_site_id
_symmetry_equiv_pos_as_xyz
1 x,y,z
2 -x,1/2+y,1/2-z
3 -x,-y,-z
4 x,1/2-y,1/2+z
_cell_length_a                   3.79610(10)
_cell_length_b                   12.7478(1)
_cell_length_c                   11.5244(5)
_cell_angle_alpha                90
_cell_angle_beta                 94.910(4)
_cell_angle_gamma                90
_cell_volume                     555.641
loop_
_atom_site_label
_atom_site_type_symbol
_atom_site_fract_x
_atom_site_fract_y
_atom_site_fract_z
Cu1 Cu 0.2371(2) 0.07385(6) 0.94662(7)
Cl1 Cl 0.6912(3) 0.00137(10) 0.85298(10)
N1 N 0.1502(11) 0.2265(3) 0.9675(4)
C1 C 0.2542(14) 0.2773(4) 1.0668(4)
H1 H 0.3688(14) 0.2394(4) 1.1277(4)
C2 C 0.1991(14) 0.3829(4) 1.0826(4)
H2 H 0.2755(14) 0.4143(4) 1.1531(4)
C3 C 0.0292(12) 0.4429(4) 0.9934(4)
C4 C -0.0763(14) 0.3895(4) 0.8913(4)
H3 H -0.1892(14) 0.4255(4) 0.8285(4)
C5 C -0.0149(14) 0.2840(4) 0.8828(4)
H4 H -0.0931(14) 0.2504(4) 0.8137(4)
Cl1_2 Cl -0.3088(3) 0.00137(10) 0.85298(10)
Cu1B Cu -0.2371(2) -0.07385(6) 1.05338(7)
Cl1B Cl 0.3088(3) -0.00137(10) 1.14702(10)
Cu1_2 Cu 1.2371(2) 0.07385(6) 0.94662(7)
Cu1B_2 Cu 0.7629(2) -0.07385(6) 1.05338(7)
C3B C -0.0292(12) 0.5571(4) 1.0066(4)
C2B C -0.1991(14) 0.6171(4) 0.9174(4)
C4B C 0.0763(14) 0.6105(4) 1.1087(4)
Cl1B_2 Cl 1.3088(3) -0.00137(10) 1.14702(10)
N1B N 0.8498(11) -0.2265(3) 1.0325(4)
C1B C -0.2542(14) 0.7227(4) 0.9332(4)
H2B H -0.2755(14) 0.5857(4) 0.8469(4)
H3B H 0.1892(14) 0.5745(4) 1.1715(4)
C5B C 0.0149(14) 0.7160(4) 1.1172(4)
N1B_2 N -0.1502(11) 0.7735(3) 1.0325(4)
H1B H -0.3688(14) 0.7606(4) 0.8723(4)
H4B H 0.0931(14) 0.7496(4) 1.1863(4)
Cu1B_3 Cu -0.2371(2) 0.92615(6) 1.05338(7)
loop_
_geom_bond_atom_site_label_1
_geom_bond_atom_site_label_2
_geom_bond_site_symmetry_1
_geom_bond_site_symmetry_2
Cu1 Cl1 1_555 1_555
Cl1 Cu1_2 1_555 1_555
N1 Cu1 1_555 1_555
C1 N1 1_555 1_555
H1 C1 1_555 1_555
C2 C1 1_555 1_555
H2 C2 1_555 1_555
C3 C2 1_555 1_555
C4 C3 1_555 1_555
H3 C4 1_555 1_555
C5 N1 1_555 1_555
H4 C5 1_555 1_555
Cl1_2 Cu1 1_555 1_555
Cu1B Cl1_2 1_555 1_555
Cl1B Cu1 1_555 1_555
Cu1_2 Cl1B_2 1_555 1_555
Cu1B_2 Cl1 1_555 1_555
C3B C3 1_555 1_555
C2B C3B 1_555 1_555
C4B C3B 1_555 1_555
Cl1B_2 Cu1B_2 1_555 1_555
N1B Cu1B_2 1_555 1_555
C1B C2B 1_555 1_555
H2B C2B 1_555 1_555
H3B C4B 1_555 1_555
C5B C4B 1_555 1_555
N1B_2 C1B 1_555 1_555
H1B C1B 1_555 1_555
H4B C5B 1_555 1_555
Cu1B_3 N1B_2 1_555 1_555
C4 C5 1_555 1_555
Cu1B Cl1B 1_555 1_555
Cl1B Cu1B_2 1_555 1_555
C5B N1B_2 1_555 1_555

#END
