
#######################################################################
#
#                 Cambridge Crystallographic Data Centre
#                                CCDC 
#
#######################################################################
#
# If this CIF has been generated from an entry in the Cambridge 
# Structural Database, then it will include bibliographic, chemical, 
# crystal, experimental, refinement or atomic coordinate data resulting 
# from the CCDC's data processing and validation procedures.
#
#######################################################################

data_QAPLEY02
_symmetry_cell_setting           monoclinic
_symmetry_space_group_name_H-M   'P 21/c'
_symmetry_Int_Tables_number      14
_space_group_name_Hall           '-P 2ybc'
loop_
_symmetry_equiv_pos_site_id
_symmetry_equiv_pos_as_xyz
1 x,y,z
2 -x,1/2+y,1/2-z
3 -x,-y,-z
4 x,1/2-y,1/2+z
_cell_length_a                   3.8005(6)
_cell_length_b                   12.781(2)
_cell_length_c                   11.5348(19)
_cell_angle_alpha                90
_cell_angle_beta                 94.719(2)
_cell_angle_gamma                90
_cell_volume                     558.394
loop_
_atom_site_label
_atom_site_type_symbol
_atom_site_fract_x
_atom_site_fract_y
_atom_site_fract_z
Cu1 Cu 0.23733(12) 0.57377(3) 0.94643(4)
Cl1 Cl 0.30687(19) 0.49875(6) 1.14750(6)
N1 N 0.1508(6) 0.72619(19) 0.9676(2)
C1 C -0.0166(8) 0.7835(2) 0.8826(3)
H1 H -0.0960 0.7497 0.8139
C2 C -0.0776(8) 0.8893(2) 0.8910(3)
H2 H -0.1910 0.9252 0.8285
C3 C 0.0308(7) 0.9429(2) 0.9936(2)
C4 C 0.1984(8) 0.8827(2) 1.0827(3)
H3 H 0.2738 0.9139 1.1532
C5 C 0.2527(8) 0.7773(2) 1.0666(3)
H4 H 0.3662 0.7394 1.1276
Cu1B Cu -0.23733(12) 0.42623(3) 1.05357(4)
Cu1B_2 Cu 0.76267(12) 0.42623(3) 1.05357(4)
Cu1B_3 Cu -0.23733(12) 1.42623(3) 1.05357(4)
Cu1_2 Cu -0.76267(12) 0.57377(3) 0.94643(4)
Cl1B Cl -0.30687(19) 0.50125(6) 0.85250(6)
Cl1B_2 Cl 0.69313(19) 0.50125(6) 0.85250(6)
Cl1_2 Cl -0.69313(19) 0.49875(6) 1.14750(6)
N1B N -0.1508(6) 1.27381(19) 1.0324(2)
N1B_2 N -0.1508(6) 0.27381(19) 1.0324(2)
C1B C 0.0166(8) 1.2165(2) 1.1174(3)
H1B H 0.0960 1.2503 1.1861
C2B C 0.0776(8) 1.1107(2) 1.1090(3)
H2B H 0.1910 1.0748 1.1715
C3B C -0.0308(7) 1.0571(2) 1.0064(2)
C4B C -0.1984(8) 1.1173(2) 0.9173(3)
H3B H -0.2738 1.0861 0.8468
C5B C -0.2527(8) 1.2227(2) 0.9334(3)
H4B H -0.3662 1.2606 0.8724
loop_
_geom_bond_atom_site_label_1
_geom_bond_atom_site_label_2
_geom_bond_site_symmetry_1
_geom_bond_site_symmetry_2
Cu1 Cl1 1_555 1_555
Cl1 Cu1B 1_555 1_555
N1 Cu1 1_555 1_555
C1 N1 1_555 1_555
H1 C1 1_555 1_555
C2 C1 1_555 1_555
H2 C2 1_555 1_555
C3 C2 1_555 1_555
C4 C3 1_555 1_555
H3 C4 1_555 1_555
C5 N1 1_555 1_555
H4 C5 1_555 1_555
Cu1B Cl1B 1_555 1_555
Cu1B_2 Cl1 1_555 1_555
Cu1B_3 N1B 1_555 1_555
Cu1_2 Cl1B 1_555 1_555
Cl1B Cu1 1_555 1_555
Cl1B_2 Cu1 1_555 1_555
Cl1_2 Cu1B 1_555 1_555
N1B C1B 1_555 1_555
N1B_2 Cu1B 1_555 1_555
C1B H1B 1_555 1_555
C2B C1B 1_555 1_555
H2B C2B 1_555 1_555
C3B C3 1_555 1_555
C4B C3B 1_555 1_555
H3B C4B 1_555 1_555
C5B N1B 1_555 1_555
H4B C5B 1_555 1_555
C4 C5 1_555 1_555
Cu1B_2 Cl1B_2 1_555 1_555
Cu1_2 Cl1_2 1_555 1_555
C2B C3B 1_555 1_555
C4B C5B 1_555 1_555

#END
