
#######################################################################
#
#                 Cambridge Crystallographic Data Centre
#                                CCDC 
#
#######################################################################
#
# If this CIF has been generated from an entry in the Cambridge 
# Structural Database, then it will include bibliographic, chemical, 
# crystal, experimental, refinement or atomic coordinate data resulting 
# from the CCDC's data processing and validation procedures.
#
#######################################################################

data_QAPLEY01
_symmetry_cell_setting           monoclinic
_symmetry_space_group_name_H-M   'P 21/c'
_symmetry_Int_Tables_number      14
_space_group_name_Hall           '-P 2ybc'
loop_
_symmetry_equiv_pos_site_id
_symmetry_equiv_pos_as_xyz
1 x,y,z
2 -x,1/2+y,1/2-z
3 -x,-y,-z
4 x,1/2-y,1/2+z
_cell_length_a                   3.7853(19)
_cell_length_b                   12.732(6)
_cell_length_c                   11.505(6)
_cell_angle_alpha                90
_cell_angle_beta                 94.748(8)
_cell_angle_gamma                90
_cell_volume                     552.574
loop_
_atom_site_label
_atom_site_type_symbol
_atom_site_fract_x
_atom_site_fract_y
_atom_site_fract_z
Cu1 Cu 0.26280(14) 0.42617(4) 0.05356(5)
Cl1 Cl 0.1928(2) 0.50129(7) -0.14741(7)
N1 N 0.3494(8) 0.2739(2) 0.0323(3)
C1 C 0.2459(10) 0.2228(3) -0.0668(3)
H1 H 0.1317 0.2609 -0.1279
C2 C 0.3001(10) 0.1171(3) -0.0827(3)
H2 H 0.2240 0.0856 -0.1533
C3 C 0.4681(8) 0.0575(3) 0.0065(3)
C4 C 0.5774(9) 0.1108(3) 0.1089(3)
H3 H 0.6906 0.0744 0.1715
C5 C 0.5185(10) 0.2167(3) 0.1177(3)
H4 H 0.5999 0.2506 0.1864
Cu1B Cu -0.26280(14) 0.57383(4) -0.05356(5)
Cu1B_2 Cu 0.73720(14) 0.57383(4) -0.05356(5)
Cu1B_3 Cu 0.73720(14) -0.42617(4) -0.05356(5)
Cu1_2 Cu -0.73720(14) 0.42617(4) 0.05356(5)
Cl1B Cl -0.1928(2) 0.49871(7) 0.14741(7)
Cl1B_2 Cl 0.8072(2) 0.49871(7) 0.14741(7)
Cl1_2 Cl -0.8072(2) 0.50129(7) -0.14741(7)
N1B N 0.6506(8) -0.2739(2) -0.0323(3)
N1B_2 N -0.3494(8) 0.7261(2) -0.0323(3)
C1B C 0.7541(10) -0.2228(3) 0.0668(3)
H1B H 0.8683 -0.2609 0.1279
C2B C 0.6999(10) -0.1171(3) 0.0827(3)
H2B H 0.7760 -0.0856 0.1533
C3B C 0.5319(8) -0.0575(3) -0.0065(3)
C4B C 0.4226(9) -0.1108(3) -0.1089(3)
H3B H 0.3094 -0.0744 -0.1715
C5B C 0.4815(10) -0.2167(3) -0.1177(3)
H4B H 0.4001 -0.2506 -0.1864
loop_
_geom_bond_atom_site_label_1
_geom_bond_atom_site_label_2
_geom_bond_site_symmetry_1
_geom_bond_site_symmetry_2
Cu1 Cl1 1_555 1_555
Cl1 Cu1B 1_555 1_555
N1 Cu1 1_555 1_555
C1 N1 1_555 1_555
H1 C1 1_555 1_555
C2 C1 1_555 1_555
H2 C2 1_555 1_555
C3 C2 1_555 1_555
C4 C3 1_555 1_555
H3 C4 1_555 1_555
C5 N1 1_555 1_555
H4 C5 1_555 1_555
Cu1B Cl1B 1_555 1_555
Cu1B_2 Cl1 1_555 1_555
Cu1B_3 N1B 1_555 1_555
Cu1_2 Cl1B 1_555 1_555
Cl1B Cu1 1_555 1_555
Cl1B_2 Cu1 1_555 1_555
Cl1_2 Cu1B 1_555 1_555
N1B C1B 1_555 1_555
N1B_2 Cu1B 1_555 1_555
C1B H1B 1_555 1_555
C2B C1B 1_555 1_555
H2B C2B 1_555 1_555
C3B C3 1_555 1_555
C4B C3B 1_555 1_555
H3B C4B 1_555 1_555
C5B N1B 1_555 1_555
H4B C5B 1_555 1_555
C4 C5 1_555 1_555
Cu1B_2 Cl1B_2 1_555 1_555
Cu1_2 Cl1_2 1_555 1_555
C2B C3B 1_555 1_555
C4B C5B 1_555 1_555

#END
