
#######################################################################
#
#                 Cambridge Crystallographic Data Centre
#                                CCDC 
#
#######################################################################
#
# If this CIF has been generated from an entry in the Cambridge 
# Structural Database, then it will include bibliographic, chemical, 
# crystal, experimental, refinement or atomic coordinate data resulting 
# from the CCDC's data processing and validation procedures.
#
#######################################################################

data_QAPNIF
_symmetry_cell_setting           orthorhombic
_symmetry_space_group_name_H-M   'C c c a'
_symmetry_Int_Tables_number      68
_space_group_name_Hall           '-C 2b 2bc'
loop_
_symmetry_equiv_pos_site_id
_symmetry_equiv_pos_as_xyz
1 x,y,z
2 1/2+x,1/2+y,z
3 1/2-x,-y,z
4 -x,y,1/2-z
5 1/2+x,-y,1/2-z
6 -x,1/2-y,z
7 1/2-x,1/2+y,1/2-z
8 x,1/2-y,1/2-z
9 -x,-y,-z
10 1/2-x,1/2-y,-z
11 1/2+x,y,-z
12 x,-y,1/2+z
13 1/2-x,y,1/2+z
14 x,1/2+y,-z
15 1/2+x,1/2-y,1/2+z
16 -x,1/2+y,1/2+z
_cell_length_a                   11.8508(6)
_cell_length_b                   15.8958(9)
_cell_length_c                   15.9963(9)
_cell_angle_alpha                90
_cell_angle_beta                 90
_cell_angle_gamma                90
_cell_volume                     3013.35
loop_
_atom_site_label
_atom_site_type_symbol
_atom_site_fract_x
_atom_site_fract_y
_atom_site_fract_z
N3 N 0.499(2) 0.4518(3) -0.2366(7)
O2 O 0.5933(4) 0.4612(4) -0.2669(4)
O3 O 0.4540(4) 0.3808(3) -0.2298(4)
O4 O 0.4460(6) 0.5149(4) -0.2117(4)
N3C N 0.501(2) 0.4518(3) -0.2634(7)
O2C O 0.4067(4) 0.4612(4) -0.2331(4)
O3C O 0.5460(4) 0.3808(3) -0.2702(4)
O4C O 0.5540(6) 0.5149(4) -0.2883(4)
O5 O 0.3918(8) 0.2500 -0.2500
H7 H 0.4313 0.2943 -0.2449
H7G H 0.4313 0.2057 -0.2551
Ag1 Ag 0.65617(3) 0.2500 -0.7500
C1 C 0.2278(3) 0.38085(16) -0.38977(18)
C2 C 0.3200(2) 0.34000(17) -0.42414(18)
H1 H 0.3747 0.3146 -0.3888
C3 C 0.3325(2) 0.33627(17) -0.51050(18)
C4 C 0.2537(2) 0.37401(16) -0.56267(18)
H2 H 0.2624 0.3716 -0.6216
C5 C 0.1623(2) 0.41517(18) -0.5278(2)
H3 H 0.1083 0.4414 -0.5631
C6 C 0.1488(2) 0.41846(18) -0.4417(2)
H4 H 0.0854 0.4465 -0.4182
C7 C 0.4257(2) 0.28872(17) -0.54627(17)
N1 N 0.2133(3) 0.37968(18) -0.30144(18)
H5 H 0.276(4) 0.388(3) -0.278(3)
H6 H 0.166(3) 0.415(3) -0.288(3)
N2 N 0.45133(19) 0.27532(14) -0.62406(14)
O1 O 0.5000 0.2500 -0.49373(17)
Ag1C Ag 0.34383(3) 0.2500 -0.7500
Ag1J Ag 0.15617(3) 0.2500 -0.2500
Ag1L Ag 0.84383(3) 0.2500 -0.2500
C1E C 0.7722(3) 0.11915(16) -0.38977(18)
C2E C 0.6800(2) 0.16000(17) -0.42414(18)
H1E H 0.6253 0.1854 -0.3888
C3E C 0.6675(2) 0.16373(17) -0.51050(18)
C4E C 0.7463(2) 0.12599(16) -0.56267(18)
H2E H 0.7376 0.1284 -0.6216
C5E C 0.8377(2) 0.08483(18) -0.5278(2)
H3E H 0.8917 0.0586 -0.5631
C6E C 0.8512(2) 0.08154(18) -0.4417(2)
H4E H 0.9146 0.0535 -0.4182
C7E C 0.5743(2) 0.21128(17) -0.54627(17)
N1E N 0.7867(3) 0.12032(18) -0.30144(18)
N1J N 0.7133(3) 0.37968(18) -0.69856(18)
N1N N 0.7133(3) 0.12032(18) -0.80144(18)
H5E H 0.724(4) 0.112(3) -0.278(3)
H5J H 0.776(4) 0.388(3) -0.722(3)
H5N H 0.776(4) 0.112(3) -0.778(3)
H6E H 0.834(3) 0.085(3) -0.288(3)
H6J H 0.666(3) 0.415(3) -0.712(3)
H6N H 0.666(3) 0.085(3) -0.788(3)
N2E N 0.54867(19) 0.22468(14) -0.62406(14)
N2C N 0.54867(19) 0.27532(14) -0.87594(14)
loop_
_geom_bond_atom_site_label_1
_geom_bond_atom_site_label_2
_geom_bond_site_symmetry_1
_geom_bond_site_symmetry_2
Ag1 N1J 1_555 1_555
C1 C2 1_555 1_555
C2 H1 1_555 1_555
C3 C2 1_555 1_555
C4 C3 1_555 1_555
H2 C4 1_555 1_555
C5 C4 1_555 1_555
H3 C5 1_555 1_555
C6 C1 1_555 1_555
H4 C6 1_555 1_555
C7 C3 1_555 1_555
N1 C1 1_555 1_555
H5 N1 1_555 1_555
H6 N1 1_555 1_555
N2 C7 1_555 1_555
O1 C7 1_555 1_555
N3 O2 1_555 1_555
O2 N3C 1_555 1_555
O3 N3 1_555 1_555
O4 N3 1_555 1_555
O5 H7 1_555 1_555
Ag1C N2 1_555 1_555
Ag1J N1 1_555 1_555
Ag1L N1E 1_555 1_555
C1E C2E 1_555 1_555
C2E H1E 1_555 1_555
C3E C2E 1_555 1_555
C4E C3E 1_555 1_555
H2E C4E 1_555 1_555
C5E C4E 1_555 1_555
H3E C5E 1_555 1_555
C6E C1E 1_555 1_555
H4E C6E 1_555 1_555
C7E O1 1_555 1_555
N1E C1E 1_555 1_555
N1J H5J 1_555 1_555
N1N Ag1 1_555 1_555
H5E N1E 1_555 1_555
H5N N1N 1_555 1_555
H6E N1E 1_555 1_555
H6J N1J 1_555 1_555
H6N N1N 1_555 1_555
N2E Ag1 1_555 1_555
N2C Ag1 1_555 1_555
N3C N3 1_555 1_555
O2C N3 1_555 1_555
O3C N3 1_555 1_555
O4C N3 1_555 1_555
H7G O5 1_555 1_555
C5 C6 1_555 1_555
N2 N2E 1_555 1_555
O2 O3C 1_555 1_555
O2 O4C 1_555 1_555
O3 N3C 1_555 1_555
O3 O2C 1_555 1_555
O3 O3C 1_555 1_555
O4 N3C 1_555 1_555
O4 O2C 1_555 1_555
C3E C7E 1_555 1_555
C5E C6E 1_555 1_555
C7E N2E 1_555 1_555
N3C O2C 1_555 1_555
N3C O3C 1_555 1_555
N3C O4C 1_555 1_555

#END
