
#######################################################################
#
#                 Cambridge Crystallographic Data Centre
#                                CCDC 
#
#######################################################################
#
# If this CIF has been generated from an entry in the Cambridge 
# Structural Database, then it will include bibliographic, chemical, 
# crystal, experimental, refinement or atomic coordinate data resulting 
# from the CCDC's data processing and validation procedures.
#
#######################################################################

data_QAPNOL
_symmetry_cell_setting           orthorhombic
_symmetry_space_group_name_H-M   'C c c a'
_symmetry_Int_Tables_number      68
_space_group_name_Hall           '-C 2b 2bc'
loop_
_symmetry_equiv_pos_site_id
_symmetry_equiv_pos_as_xyz
1 x,y,z
2 1/2+x,1/2+y,z
3 1/2-x,-y,z
4 -x,y,1/2-z
5 1/2+x,-y,1/2-z
6 -x,1/2-y,z
7 1/2-x,1/2+y,1/2-z
8 x,1/2-y,1/2-z
9 -x,-y,-z
10 1/2-x,1/2-y,-z
11 1/2+x,y,-z
12 x,-y,1/2+z
13 1/2-x,y,1/2+z
14 x,1/2+y,-z
15 1/2+x,1/2-y,1/2+z
16 -x,1/2+y,1/2+z
_cell_length_a                   13.225(2)
_cell_length_b                   15.998(3)
_cell_length_c                   16.049(3)
_cell_angle_alpha                90
_cell_angle_beta                 90
_cell_angle_gamma                90
_cell_volume                     3395.54
loop_
_atom_site_label
_atom_site_type_symbol
_atom_site_fract_x
_atom_site_fract_y
_atom_site_fract_z
Ag1 Ag 0.85493(5) 0.2500 0.2500
O1 O 1.0000 0.2500 -0.0010(3)
C1 C 0.9308(3) 0.2157(3) 0.0510(3)
C2 C 0.8437(4) 0.1728(3) 0.0163(3)
C3 C 0.8270(4) 0.1725(3) -0.0695(3)
H1 H 0.8726 0.1989 -0.1049
C4 C 0.6736(5) 0.0968(4) -0.0499(4)
H2 H 0.6156 0.0722 -0.0717
N1 N 0.9544(3) 0.2278(3) 0.1284(2)
C5 C 0.6901(5) 0.0967(4) 0.0348(4)
H3 H 0.6434 0.0713 0.0699
C6 C 0.7428(4) 0.1332(3) -0.1021(3)
C7 C 0.7747(5) 0.1335(3) 0.0681(3)
H4 H 0.7857 0.1321 0.1254
N2 N 0.7278(4) 0.1332(3) -0.1901(3)
H5 H 0.6748 0.1101 -0.2111
H6 H 0.7717 0.1562 -0.2223
Ag1L Ag 0.64507(5) 0.2500 -0.2500
Ag1C Ag 1.14507(5) 0.2500 0.2500
Ag1J Ag 1.35493(5) 0.2500 -0.2500
C1E C 1.0692(3) 0.2843(3) 0.0510(3)
C2E C 1.1563(4) 0.3272(3) 0.0163(3)
C3E C 1.1730(4) 0.3275(3) -0.0695(3)
H1E H 1.1274 0.3011 -0.1049
C4E C 1.3264(5) 0.4032(4) -0.0499(4)
H2E H 1.3844 0.4278 -0.0717
N1E N 1.0456(3) 0.2722(3) 0.1284(2)
N1G N 0.9544(3) 0.2722(3) 0.3716(2)
C5E C 1.3099(5) 0.4033(4) 0.0348(4)
H3E H 1.3566 0.4287 0.0699
C6E C 1.2572(4) 0.3668(3) -0.1021(3)
C7E C 1.2253(5) 0.3665(3) 0.0681(3)
H4E H 1.2143 0.3679 0.1254
N2E N 1.2722(4) 0.3668(3) -0.1901(3)
N2L N 0.7722(4) 0.1332(3) 0.3099(3)
N2I N 0.7722(4) 0.3668(3) 0.1901(3)
H5E H 1.3252 0.3899 -0.2111
H5L H 0.8252 0.1101 0.2889
H5I H 0.8252 0.3899 0.2111
H6E H 1.2283 0.3438 -0.2223
H6L H 0.7283 0.1562 0.2777
H6I H 0.7283 0.3438 0.2223
P1 P 0.5000 0.0346(2) 0.2500
F1 F 0.5301(6) 0.0360(5) 0.3438(4)
F2 F 0.6101(5) 0.0236(8) 0.2318(6)
F3 F 0.5000 -0.0650(9) 0.2500
F4 F 0.5000 0.1250(7) 0.2500
F1C F 0.4699(6) 0.0360(5) 0.1562(4)
F2C F 0.3899(5) 0.0236(8) 0.2682(6)
loop_
_geom_bond_atom_site_label_1
_geom_bond_atom_site_label_2
_geom_bond_site_symmetry_1
_geom_bond_site_symmetry_2
Ag1 N1 1_555 1_555
O1 C1 1_555 1_555
C1 C2 1_555 1_555
C2 C3 1_555 1_555
C3 H1 1_555 1_555
C4 H2 1_555 1_555
N1 C1 1_555 1_555
C5 C4 1_555 1_555
H3 C5 1_555 1_555
C6 C3 1_555 1_555
C7 C2 1_555 1_555
H4 C7 1_555 1_555
P1 F1 1_555 1_555
F2 P1 1_555 1_555
F3 P1 1_555 1_555
F4 P1 1_555 1_555
N2 C6 1_555 1_555
H5 N2 1_555 1_555
H6 N2 1_555 1_555
Ag1L N2 1_555 1_555
Ag1C N1E 1_555 1_555
Ag1J N2E 1_555 1_555
C1E O1 1_555 1_555
C2E C1E 1_555 1_555
C3E C2E 1_555 1_555
H1E C3E 1_555 1_555
C4E H2E 1_555 1_555
N1E N1 1_555 1_555
N1G Ag1 1_555 1_555
C5E C4E 1_555 1_555
H3E C5E 1_555 1_555
C6E C3E 1_555 1_555
C7E C2E 1_555 1_555
H4E C7E 1_555 1_555
F1C P1 1_555 1_555
F2C P1 1_555 1_555
N2E C6E 1_555 1_555
N2L Ag1 1_555 1_555
N2I Ag1 1_555 1_555
H5E N2E 1_555 1_555
H5L N2L 1_555 1_555
H5I N2I 1_555 1_555
H6E N2E 1_555 1_555
H6L N2L 1_555 1_555
H6I N2I 1_555 1_555
C4 C6 1_555 1_555
C5 C7 1_555 1_555
C1E N1E 1_555 1_555
C4E C6E 1_555 1_555
C5E C7E 1_555 1_555

#END
