
#######################################################################
#
#                 Cambridge Crystallographic Data Centre
#                                CCDC 
#
#######################################################################
#
# If this CIF has been generated from an entry in the Cambridge 
# Structural Database, then it will include bibliographic, chemical, 
# crystal, experimental, refinement or atomic coordinate data resulting 
# from the CCDC's data processing and validation procedures.
#
#######################################################################

data_QAPNEB
_symmetry_cell_setting           monoclinic
_symmetry_space_group_name_H-M   'I 2/m'
_symmetry_Int_Tables_number      12
_space_group_name_Hall           '-I 2y'
loop_
_symmetry_equiv_pos_site_id
_symmetry_equiv_pos_as_xyz
1 x,y,z
2 1/2+x,1/2+y,1/2+z
3 -x,y,-z
4 1/2-x,1/2+y,1/2-z
5 -x,-y,-z
6 1/2-x,1/2-y,1/2-z
7 x,-y,z
8 1/2+x,1/2-y,1/2+z
_cell_length_a                   8.035(2)
_cell_length_b                   17.395(5)
_cell_length_c                   11.531(4)
_cell_angle_alpha                90
_cell_angle_beta                 103.807(4)
_cell_angle_gamma                90
_cell_volume                     1565.11
loop_
_atom_site_label
_atom_site_type_symbol
_atom_site_fract_x
_atom_site_fract_y
_atom_site_fract_z
Ag1 Ag 0.0000 0.09658(3) 0.0000
O1 O 0.1332(5) 0.0000 0.3723(3)
N1 N 0.0672(4) 0.04041(18) 0.1874(3)
C1 C 0.2093(6) 0.1464(3) 0.4703(4)
H1 H 0.2466 0.1034 0.5173
N2 N 0.2185(5) 0.3575(2) 0.5018(3)
H2 H 0.1405 0.3907 0.4607
H3 H 0.2078 0.3570 0.5777
C2 C 0.0738(6) 0.2019(2) 0.2833(4)
H4 H 0.0193 0.1965 0.2030
C3 C 0.2338(6) 0.2187(3) 0.5199(4)
H5 H 0.2870 0.2239 0.6005
C4 C 0.1811(6) 0.2832(2) 0.4526(4)
C5 C 0.1293(5) 0.1374(2) 0.3507(4)
C6 C 0.0976(6) 0.2744(2) 0.3325(4)
H6 H 0.0582 0.3173 0.2859
C7 C 0.1078(5) 0.0615(2) 0.2978(3)
Ag1G Ag 0.5000 0.40342(3) 0.5000
Ag1F Ag 0.0000 -0.09658(3) 0.0000
Ag1A Ag 0.5000 -0.40342(3) 0.5000
N1F N 0.0672(4) -0.04041(18) 0.1874(3)
N1B N -0.0672(4) 0.04041(18) -0.1874(3)
C1F C 0.2093(6) -0.1464(3) 0.4703(4)
H1F H 0.2466 -0.1034 0.5173
N2F N 0.2185(5) -0.3575(2) 0.5018(3)
N2G N -0.2815(5) 0.1425(2) 0.0018(3)
N2E N 0.2815(5) 0.1425(2) -0.0018(3)
H2F H 0.1405 -0.3907 0.4607
H2G H -0.3595 0.1093 -0.0393
H2E H 0.3595 0.1093 0.0393
H3F H 0.2078 -0.3570 0.5777
H3G H -0.2922 0.1430 0.0777
H3E H 0.2922 0.1430 -0.0777
C2F C 0.0738(6) -0.2019(2) 0.2833(4)
H4F H 0.0193 -0.1965 0.2030
C3F C 0.2338(6) -0.2187(3) 0.5199(4)
H5F H 0.2870 -0.2239 0.6005
C4F C 0.1811(6) -0.2832(2) 0.4526(4)
C5F C 0.1293(5) -0.1374(2) 0.3507(4)
C6F C 0.0976(6) -0.2744(2) 0.3325(4)
H6F H 0.0582 -0.3173 0.2859
C7F C 0.1078(5) -0.0615(2) 0.2978(3)
Cl1 Cl 0.0897(2) 0.5000 0.73903(14)
O2 O 0.1913(5) 0.4332(3) 0.7463(4)
O3 O -0.0350(9) 0.5000 0.6280(6)
O4 O 0.0090(9) 0.5000 0.8330(6)
O2F O 0.1913(5) 0.5668(3) 0.7463(4)
loop_
_geom_bond_atom_site_label_1
_geom_bond_atom_site_label_2
_geom_bond_site_symmetry_1
_geom_bond_site_symmetry_2
Ag1 N1 1_555 1_555
O1 C7 1_555 1_555
N1 C7 1_555 1_555
C1 H1 1_555 1_555
N2 H2 1_555 1_555
H3 N2 1_555 1_555
C2 H4 1_555 1_555
C3 C1 1_555 1_555
H5 C3 1_555 1_555
C4 N2 1_555 1_555
C5 C1 1_555 1_555
C6 C2 1_555 1_555
H6 C6 1_555 1_555
Cl1 O2 1_555 1_555
O3 Cl1 1_555 1_555
O4 Cl1 1_555 1_555
C7 C5 1_555 1_555
Ag1G N2 1_555 1_555
Ag1F N1F 1_555 1_555
Ag1A N2F 1_555 1_555
N1F N1 1_555 1_555
N1B Ag1 1_555 1_555
C1F H1F 1_555 1_555
N2F H2F 1_555 1_555
N2G Ag1 1_555 1_555
N2E Ag1 1_555 1_555
H2G N2G 1_555 1_555
H2E N2E 1_555 1_555
H3F N2F 1_555 1_555
H3G N2G 1_555 1_555
H3E N2E 1_555 1_555
C2F H4F 1_555 1_555
C3F C1F 1_555 1_555
H5F C3F 1_555 1_555
C4F N2F 1_555 1_555
C5F C1F 1_555 1_555
C6F C2F 1_555 1_555
H6F C6F 1_555 1_555
O2F Cl1 1_555 1_555
C7F O1 1_555 1_555
C2 C5 1_555 1_555
C3 C4 1_555 1_555
C4 C6 1_555 1_555
N1F C7F 1_555 1_555
C2F C5F 1_555 1_555
C3F C4F 1_555 1_555
C4F C6F 1_555 1_555
C5F C7F 1_555 1_555

#END
