
#######################################################################
#
#                 Cambridge Crystallographic Data Centre
#                                CCDC 
#
#######################################################################
#
# If this CIF has been generated from an entry in the Cambridge 
# Structural Database, then it will include bibliographic, chemical, 
# crystal, experimental, refinement or atomic coordinate data resulting 
# from the CCDC's data processing and validation procedures.
#
#######################################################################

data_QAPPAZ
_symmetry_cell_setting           monoclinic
_symmetry_space_group_name_H-M   'P 21/n'
_symmetry_Int_Tables_number      14
_space_group_name_Hall           '-P 2yn'
loop_
_symmetry_equiv_pos_site_id
_symmetry_equiv_pos_as_xyz
1 x,y,z
2 1/2-x,1/2+y,1/2-z
3 -x,-y,-z
4 1/2+x,1/2-y,1/2+z
_cell_length_a                   17.8268(10)
_cell_length_b                   9.9553(5)
_cell_length_c                   20.0682(11)
_cell_angle_alpha                90
_cell_angle_beta                 108.4920(10)
_cell_angle_gamma                90
_cell_volume                     3377.64
loop_
_atom_site_label
_atom_site_type_symbol
_atom_site_fract_x
_atom_site_fract_y
_atom_site_fract_z
Ag1 Ag 0.05873(3) 0.39280(5) 0.16071(3)
C1 C 0.4609(3) 0.2712(4) 0.0946(2)
C2 C 0.4110(3) 0.3775(4) 0.0598(2)
H1 H 0.3563 0.3687 0.0345
C3 C 0.4537(2) 0.4966(5) 0.0681(2)
C4 C 0.5348(3) 0.4638(5) 0.1102(2)
C5 C 0.5346(3) 0.3237(5) 0.1261(2)
H2 H 0.5790 0.2744 0.1542
C6 C 0.4221(3) 0.6257(5) 0.0430(2)
C7 C 0.3355(3) 0.6493(5) 0.0206(2)
C8 C 0.2883(3) 0.5908(5) 0.0564(2)
H3 H 0.3109 0.5298 0.0938
C9 C 0.2083(3) 0.6214(5) 0.0373(3)
C10 C 0.1740(3) 0.7130(6) -0.0169(3)
H4 H 0.1194 0.7344 -0.0295
C11 C 0.2213(3) 0.7714(5) -0.0516(3)
H5 H 0.1987 0.8333 -0.0885
C12 C 0.3010(3) 0.7414(5) -0.0334(3)
H6 H 0.3326 0.7833 -0.0577
C13 C 0.1616(3) 0.5555(6) 0.0747(3)
C14 C 0.6015(3) 0.5451(5) 0.1305(2)
C15 C 0.6770(3) 0.4960(5) 0.1801(2)
C16 C 0.6784(3) 0.4420(6) 0.2445(3)
H7 H 0.6312 0.4410 0.2569
C17 C 0.7471(3) 0.3899(6) 0.2906(3)
H8 H 0.7473 0.3548 0.3346
C18 C 0.8153(3) 0.3889(6) 0.2724(3)
H9 H 0.8624 0.3501 0.3030
C19 C 0.8149(3) 0.4453(5) 0.2085(3)
C20 C 0.7462(3) 0.5008(5) 0.1626(2)
H10 H 0.7466 0.5414 0.1199
C21 C 0.8867(3) 0.4367(5) 0.1906(3)
C22 C 0.4338(3) 0.1264(4) 0.0939(2)
C23 C 0.3696(3) 0.1212(4) 0.1304(2)
C24 C 0.2945(3) 0.0703(5) 0.0982(2)
H11 H 0.2815 0.0341 0.0521
C25 C 0.2376(3) 0.0715(5) 0.1328(2)
H12 H 0.1867 0.0345 0.1102
C26 C 0.2542(3) 0.1255(5) 0.1994(2)
C27 C 0.3310(3) 0.1724(5) 0.2330(2)
H13 H 0.3445 0.2061 0.2796
C28 C 0.3874(3) 0.1700(5) 0.1987(2)
H14 H 0.4392 0.2024 0.2222
C29 C 0.1902(3) 0.1399(5) 0.2321(2)
C30 C 0.1814(3) 0.2616(5) 0.2634(3)
H15 H 0.2182 0.3322 0.2666
C31 C 0.1188(3) 0.2796(5) 0.2899(3)
H16 H 0.1127 0.3629 0.3107
C32 C 0.0656(3) 0.1774(5) 0.2861(2)
H17 H 0.0220 0.1913 0.3028
C33 C 0.0757(3) 0.0553(5) 0.2581(3)
H18 H 0.0401 -0.0163 0.2572
C34 C 0.1378(3) 0.0362(5) 0.2310(3)
H19 H 0.1443 -0.0484 0.2116
C35 C 0.5032(3) 0.0363(5) 0.1340(3)
H20 H 0.5447 0.0411 0.1117
H21 H 0.4848 -0.0566 0.1331
H22 H 0.5244 0.0669 0.1828
C36 C 0.4027(3) 0.0788(5) 0.0171(3)
H23 H 0.3555 0.1307 -0.0081
H24 H 0.3891 -0.0167 0.0158
H25 H 0.4437 0.0922 -0.0053
N1 N 0.1276(3) 0.5015(5) 0.1060(2)
N2 N 0.9449(3) 0.4248(5) 0.1793(2)
O1 O 0.46491(18) 0.7248(3) 0.04059(17)
O2 O 0.6045(2) 0.6672(3) 0.10685(18)
H26 H 0.561(4) 0.685(6) 0.082(3)
O3 O 0.0118(2) 0.1933(5) 0.0898(2)
H27 H 0.036(3) 0.170(6) 0.064(3)
H28 H -0.006(4) 0.130(6) 0.105(4)
Ag1_2 Ag 1.05873(3) 0.39280(5) 0.16071(3)
N2_2 N -0.0551(3) 0.4248(5) 0.1793(2)
Sb1 Sb 0.58822(2) 0.29879(4) 0.407557(18)
F1 F 0.5922(3) 0.3669(5) 0.4952(2)
F2 F 0.5881(4) 0.4757(4) 0.3736(3)
F3 F 0.5816(5) 0.1283(5) 0.4403(3)
F4 F 0.4788(3) 0.3093(8) 0.3780(3)
F5 F 0.5852(3) 0.2385(4) 0.31826(18)
F6 F 0.6954(3) 0.2991(11) 0.4344(3)
loop_
_geom_bond_atom_site_label_1
_geom_bond_atom_site_label_2
_geom_bond_site_symmetry_1
_geom_bond_site_symmetry_2
Ag1 C30 1_555 1_555
C1 C2 1_555 1_555
C2 H1 1_555 1_555
C3 C2 1_555 1_555
C4 C3 1_555 1_555
C5 C1 1_555 1_555
H2 C5 1_555 1_555
C6 C3 1_555 1_555
C7 C6 1_555 1_555
C8 C7 1_555 1_555
H3 C8 1_555 1_555
C9 C8 1_555 1_555
C10 C9 1_555 1_555
H4 C10 1_555 1_555
C11 C10 1_555 1_555
H5 C11 1_555 1_555
C12 C7 1_555 1_555
H6 C12 1_555 1_555
C13 C9 1_555 1_555
C14 C4 1_555 1_555
C15 C14 1_555 1_555
C16 C15 1_555 1_555
H7 C16 1_555 1_555
C17 C16 1_555 1_555
H8 C17 1_555 1_555
C18 C17 1_555 1_555
H9 C18 1_555 1_555
C19 C18 1_555 1_555
C20 C15 1_555 1_555
H10 C20 1_555 1_555
C21 C19 1_555 1_555
C22 C1 1_555 1_555
C23 C22 1_555 1_555
C24 C23 1_555 1_555
H11 C24 1_555 1_555
C25 C24 1_555 1_555
H12 C25 1_555 1_555
C26 C25 1_555 1_555
C27 C26 1_555 1_555
H13 C27 1_555 1_555
C28 C23 1_555 1_555
H14 C28 1_555 1_555
C29 C26 1_555 1_555
C30 C29 1_555 1_555
H15 C30 1_555 1_555
C31 Ag1 1_555 1_555
H16 C31 1_555 1_555
C32 C31 1_555 1_555
H17 C32 1_555 1_555
C33 C32 1_555 1_555
H18 C33 1_555 1_555
C34 C29 1_555 1_555
H19 C34 1_555 1_555
C35 C22 1_555 1_555
H20 C35 1_555 1_555
H21 C35 1_555 1_555
H22 C35 1_555 1_555
C36 C22 1_555 1_555
H23 C36 1_555 1_555
H24 C36 1_555 1_555
H25 C36 1_555 1_555
N1 Ag1 1_555 1_555
N2 C21 1_555 1_555
O1 C6 1_555 1_555
O2 C14 1_555 1_555
H26 O2 1_555 1_555
O3 Ag1 1_555 1_555
H27 O3 1_555 1_555
H28 O3 1_555 1_555
Sb1 F1 1_555 1_555
F2 Sb1 1_555 1_555
F3 Sb1 1_555 1_555
F4 Sb1 1_555 1_555
F5 Sb1 1_555 1_555
F6 Sb1 1_555 1_555
Ag1_2 N2 1_555 1_555
N2_2 Ag1 1_555 1_555
C4 C5 1_555 1_555
C11 C12 1_555 1_555
C13 N1 1_555 1_555
C19 C20 1_555 1_555
C27 C28 1_555 1_555
C30 C31 1_555 1_555
C33 C34 1_555 1_555

#END
