
#######################################################################
#
#                 Cambridge Crystallographic Data Centre
#                                CCDC 
#
#######################################################################
#
# If this CIF has been generated from an entry in the Cambridge 
# Structural Database, then it will include bibliographic, chemical, 
# crystal, experimental, refinement or atomic coordinate data resulting 
# from the CCDC's data processing and validation procedures.
#
#######################################################################

data_QAPQEE
_symmetry_cell_setting           monoclinic
_symmetry_space_group_name_H-M   'C 2/c'
_symmetry_Int_Tables_number      15
_space_group_name_Hall           '-C 2yn'
loop_
_symmetry_equiv_pos_site_id
_symmetry_equiv_pos_as_xyz
1 x,y,z
2 1/2+x,1/2+y,z
3 -x,y,1/2-z
4 1/2-x,1/2+y,1/2-z
5 -x,-y,-z
6 1/2-x,1/2-y,-z
7 x,-y,1/2+z
8 1/2+x,1/2-y,1/2+z
_cell_length_a                   15.2035(10)
_cell_length_b                   16.5919(11)
_cell_length_c                   16.1240(10)
_cell_angle_alpha                90
_cell_angle_beta                 116.8490(10)
_cell_angle_gamma                90
_cell_volume                     3628.9
loop_
_atom_site_label
_atom_site_type_symbol
_atom_site_fract_x
_atom_site_fract_y
_atom_site_fract_z
Ag1 Ag 0.070275(14) 0.411062(11) 0.395584(13)
C1 C 0.16677(18) 0.26358(15) 0.55504(16)
H1 H 0.1890 0.3055 0.6001
C2 C 0.20316(17) 0.18656(14) 0.58266(16)
C3 C 0.17143(19) 0.12508(15) 0.51683(17)
H2 H 0.1957 0.0717 0.5335
C4 C 0.1037(2) 0.14335(16) 0.42644(18)
H3 H 0.0806 0.1028 0.3798
C5 C 0.07047(18) 0.22158(17) 0.40574(17)
H4 H 0.0228 0.2334 0.3440
C6 C 0.3896(3) 0.09724(18) 1.0986(2)
H5 H 0.4002 0.0855 1.1601
C7 C 0.3674(3) 0.1752(2) 1.0673(2)
H6 H 0.3637 0.2162 1.1067
C8 C 0.3505(3) 0.19315(18) 0.9771(2)
H7 H 0.3342 0.2464 0.9534
C9 C 0.35782(19) 0.13167(15) 0.92283(17)
C10 C 0.38134(18) 0.05481(15) 0.96051(16)
H8 H 0.3867 0.0128 0.9230
C11 C 0.27620(18) 0.16705(13) 0.67845(16)
C12 C 0.34293(18) 0.14270(14) 0.82700(16)
N1 N 0.10146(15) 0.28183(13) 0.46741(14)
N2 N 0.39687(16) 0.03704(13) 1.04698(14)
N3 N 0.40322(15) 0.11563(12) 0.79582(13)
N4 N 0.36062(15) 0.13110(12) 0.70120(13)
N5 N 0.26295(15) 0.17698(12) 0.75621(13)
N6 N 0.18221(19) 0.20960(16) 0.76514(16)
H9 H 0.132(2) 0.1817(19) 0.728(2)
H10 H 0.182(2) 0.263(2) 0.750(2)
Ag1C Ag 0.429725(14) -0.088938(11) 1.104416(13)
Ag1G Ag 0.570275(14) 0.088938(11) 0.895584(13)
Ag1E Ag 0.429725(14) 0.088938(11) 0.604416(13)
N2C N 0.10313(16) 0.53704(13) 0.45302(14)
N3G N -0.09678(15) 0.38437(12) 0.29582(13)
N4E N 0.13938(15) 0.36890(12) 0.29880(13)
P1 P 0.3005(3) 0.4211(2) 0.7878(3)
F1 F 0.3432(9) 0.3511(6) 0.7463(8)
F2 F 0.2588(3) 0.4891(2) 0.8275(3)
F3 F 0.3024(3) 0.4822(3) 0.7129(4)
F4 F 0.1912(8) 0.3945(7) 0.7183(5)
F5 F 0.2999(3) 0.3591(2) 0.8616(2)
F6 F 0.4109(2) 0.4468(2) 0.8594(3)
O1 O -0.0117(4) 0.0915(3) 0.8291(4)
H11 H -0.037(7) 0.048(3) 0.826(7)
C13 C 0.0784(12) 0.0920(8) 0.9064(10)
H12 H 0.1165 0.1388 0.9039
H13 H 0.1142 0.0424 0.9080
H14 H 0.0687 0.0951 0.9625
P2? P 0.3179(5) 0.4268(4) 0.7669(4)
F7? F 0.3402(12) 0.3380(8) 0.7530(13)
F8? F 0.2911(5) 0.5165(4) 0.7787(6)
F9? F 0.2706(4) 0.4405(3) 0.6575(4)
F10? F 0.2081(11) 0.3982(12) 0.7491(11)
F11? F 0.3632(8) 0.4126(5) 0.8741(4)
F12? F 0.4220(3) 0.4552(3) 0.7776(4)
O2? O 0.0012(4) 0.1450(4) 0.8310(3)
H15? H -0.013(8) 0.115(5) 0.788(5)
C14? C 0.0495(14) 0.1053(11) 0.9200(12)
H16? H 0.1204 0.1017 0.9391
H17? H 0.0223 0.0509 0.9151
H18? H 0.0385 0.1362 0.9663
loop_
_geom_bond_atom_site_label_1
_geom_bond_atom_site_label_2
_geom_bond_site_symmetry_1
_geom_bond_site_symmetry_2
Ag1 N1 1_555 1_555
C1 H1 1_555 1_555
C2 C1 1_555 1_555
C3 C2 1_555 1_555
H2 C3 1_555 1_555
C4 C3 1_555 1_555
H3 C4 1_555 1_555
C5 C4 1_555 1_555
H4 C5 1_555 1_555
C6 H5 1_555 1_555
C7 C6 1_555 1_555
H6 C7 1_555 1_555
C8 C7 1_555 1_555
H7 C8 1_555 1_555
C9 C8 1_555 1_555
C10 C9 1_555 1_555
H8 C10 1_555 1_555
C11 C2 1_555 1_555
C12 C9 1_555 1_555
N1 C1 1_555 1_555
N2 C6 1_555 1_555
N3 C12 1_555 1_555
N4 C11 1_555 1_555
N5 C11 1_555 1_555
N6 N5 1_555 1_555
H9 N6 1_555 1_555
H10 N6 1_555 1_555
P1 F1 1_555 1_555
F2 P1 1_555 1_555
F3 P1 1_555 1_555
F4 P1 1_555 1_555
F5 P1 1_555 1_555
F6 P1 1_555 1_555
O1 H11 1_555 1_555
C13 O1 1_555 1_555
H12 C13 1_555 1_555
H13 C13 1_555 1_555
H14 C13 1_555 1_555
Ag1C N2 1_555 1_555
Ag1G N3 1_555 1_555
Ag1E N4 1_555 1_555
N2C Ag1 1_555 1_555
N3G Ag1 1_555 1_555
N4E Ag1 1_555 1_555
C5 N1 1_555 1_555
C10 N2 1_555 1_555
C12 N5 1_555 1_555
N3 N4 1_555 1_555

#END
