
#######################################################################
#
#                 Cambridge Crystallographic Data Centre
#                                CCDC 
#
#######################################################################
#
# If this CIF has been generated from an entry in the Cambridge 
# Structural Database, then it will include bibliographic, chemical, 
# crystal, experimental, refinement or atomic coordinate data resulting 
# from the CCDC's data processing and validation procedures.
#
#######################################################################

data_QAPQAA
_symmetry_cell_setting           monoclinic
_symmetry_space_group_name_H-M   'C 2/c'
_symmetry_Int_Tables_number      15
_space_group_name_Hall           '-C 2yn'
loop_
_symmetry_equiv_pos_site_id
_symmetry_equiv_pos_as_xyz
1 x,y,z
2 1/2+x,1/2+y,z
3 -x,y,1/2-z
4 1/2-x,1/2+y,1/2-z
5 -x,-y,-z
6 1/2-x,1/2-y,-z
7 x,-y,1/2+z
8 1/2+x,1/2-y,1/2+z
_cell_length_a                   14.1747(10)
_cell_length_b                   16.2713(11)
_cell_length_c                   15.9983(11)
_cell_angle_alpha                90
_cell_angle_beta                 114.9410(10)
_cell_angle_gamma                90
_cell_volume                     3345.75
loop_
_atom_site_label
_atom_site_type_symbol
_atom_site_fract_x
_atom_site_fract_y
_atom_site_fract_z
Ag1 Ag 0.069777(12) 0.326722(9) 0.391956(10)
C1 C 0.14082(15) 0.48112(12) 0.55077(14)
H1 H 0.1614 0.4389 0.5960
C2 C 0.13856(15) 0.56204(12) 0.57837(13)
C3 C 0.10857(17) 0.62385(13) 0.51240(14)
H2 H 0.1058 0.6795 0.5293
C4 C 0.08279(18) 0.60269(14) 0.42148(16)
H3 H 0.0623 0.6436 0.3748
C5 C 0.08742(17) 0.52101(14) 0.39999(14)
H4 H 0.0701 0.5070 0.3376
C6 C 0.16092(15) 0.58434(11) 0.67413(13)
C7 C 0.23888(15) 0.60511(11) 0.82184(13)
C8 C 0.33533(15) 0.68859(12) 0.95777(14)
H5 H 0.2991 0.7343 0.9215
C9 C 0.31665(15) 0.61096(12) 0.91738(13)
C10 C 0.36813(17) 0.54356(13) 0.97030(15)
H6 H 0.3566 0.4898 0.9449
C11 C 0.43689(18) 0.55719(14) 1.06148(15)
H7 H 0.4729 0.5124 1.0998
C12 C 0.45252(17) 0.63634(14) 1.09620(14)
H8 H 0.5008 0.6449 1.1584
N1 N 0.11502(13) 0.46056(10) 0.46249(12)
N2 N 0.09788(13) 0.62730(10) 0.69765(11)
N3 N 0.14736(13) 0.64047(10) 0.79181(11)
N4 N 0.25013(12) 0.56790(10) 0.75045(11)
N5 N 0.34016(14) 0.52640(13) 0.75790(13)
H9 H 0.361(2) 0.5499(18) 0.725(2)
H10 H 0.325(2) 0.4770(18) 0.7435(19)
N6 N 0.40232(13) 0.70151(11) 1.04564(12)
Ag1D Ag -0.069777(12) 0.673278(9) 0.608044(10)
Ag1F Ag 0.069777(12) 0.673278(9) 0.891956(10)
Ag1C Ag 0.430223(12) 0.826722(9) 1.108044(10)
N2D N -0.09788(13) 0.37270(10) 0.30235(11)
N3F N 0.14736(13) 0.35953(10) 0.29181(11)
N6C N 0.09768(13) 0.20151(11) 0.45436(12)
Cl1 Cl 0.26912(5) 0.82645(3) 0.72979(4)
O1 O 0.20683(15) 0.83785(10) 0.78062(13)
O2 O 0.3320(10) 0.7565(4) 0.7622(8)
O3 O 0.3296(6) 0.8976(6) 0.7394(5)
O4 O 0.1977(7) 0.8156(8) 0.6344(3)
C13 C 0.0987(4) 0.82848(18) 0.4162(3)
H11 H 0.1645 0.8022 0.4563
H12 H 0.0406 0.7925 0.4099
H13 H 0.0921 0.8810 0.4432
O9 O 0.0971(4) 0.8422(3) 0.3304(3)
H14 H 0.1411 0.8092 0.3164
Cl2? Cl 0.26912(5) 0.82645(3) 0.72979(4)
O5? O 0.20683(15) 0.83785(10) 0.78062(13)
O6? O 0.3654(12) 0.785(2) 0.7946(13)
O7? O 0.2356(16) 0.7750(15) 0.6563(15)
O8? O 0.298(3) 0.9031(13) 0.705(3)
C14? C 0.0987(4) 0.82848(18) 0.4162(3)
H15? H 0.1397 0.8604 0.4716
H16? H 0.1409 0.7830 0.4104
H17? H 0.0367 0.8065 0.4208
O10? O 0.0686(4) 0.8790(3) 0.3389(3)
H18? H 0.0246 0.8580 0.2829
loop_
_geom_bond_atom_site_label_1
_geom_bond_atom_site_label_2
_geom_bond_site_symmetry_1
_geom_bond_site_symmetry_2
Ag1 N1 1_555 1_555
C1 H1 1_555 1_555
C2 C1 1_555 1_555
C3 C2 1_555 1_555
H2 C3 1_555 1_555
C4 C3 1_555 1_555
H3 C4 1_555 1_555
C5 C4 1_555 1_555
H4 C5 1_555 1_555
C6 C2 1_555 1_555
C7 C9 1_555 1_555
C8 H5 1_555 1_555
C9 C8 1_555 1_555
C10 C9 1_555 1_555
H6 C10 1_555 1_555
C11 C10 1_555 1_555
H7 C11 1_555 1_555
C12 C11 1_555 1_555
H8 C12 1_555 1_555
N1 C1 1_555 1_555
N2 C6 1_555 1_555
N3 C7 1_555 1_555
N4 C6 1_555 1_555
N5 N4 1_555 1_555
H9 N5 1_555 1_555
H10 N5 1_555 1_555
N6 C8 1_555 1_555
Cl1 O1 1_555 1_555
O2 Cl1 1_555 1_555
O3 Cl1 1_555 1_555
O4 Cl1 1_555 1_555
C13 H11 1_555 1_555
H12 C13 1_555 1_555
H13 C13 1_555 1_555
O9 C13 1_555 1_555
H14 O9 1_555 1_555
Ag1D N2 1_555 1_555
Ag1F N3 1_555 1_555
Ag1C N6 1_555 1_555
N2D Ag1 1_555 1_555
N3F Ag1 1_555 1_555
N6C Ag1 1_555 1_555
C5 N1 1_555 1_555
C7 N4 1_555 1_555
C12 N6 1_555 1_555
N2 N3 1_555 1_555

#END
