
#######################################################################
#
#                 Cambridge Crystallographic Data Centre
#                                CCDC 
#
#######################################################################
#
# If this CIF has been generated from an entry in the Cambridge 
# Structural Database, then it will include bibliographic, chemical, 
# crystal, experimental, refinement or atomic coordinate data resulting 
# from the CCDC's data processing and validation procedures.
#
#######################################################################

data_QAPWIN
_symmetry_cell_setting           monoclinic
_symmetry_space_group_name_H-M   'P 21/a'
_symmetry_Int_Tables_number      14
_space_group_name_Hall           '-P 2yab'
loop_
_symmetry_equiv_pos_site_id
_symmetry_equiv_pos_as_xyz
1 x,y,z
2 1/2-x,1/2+y,-z
3 -x,-y,-z
4 1/2+x,1/2-y,z
_cell_length_a                   12.969(5)
_cell_length_b                   8.3153(9)
_cell_length_c                   16.004(2)
_cell_angle_alpha                90
_cell_angle_beta                 103.36(2)
_cell_angle_gamma                90
_cell_volume                     1679.18
loop_
_atom_site_label
_atom_site_type_symbol
_atom_site_fract_x
_atom_site_fract_y
_atom_site_fract_z
Cu1 Cu 0.1262(1) 0.1140(1) 0.0029(1)
O1 O 0.1036(4) -0.0991(6) -0.0513(3)
O2 O 0.0938(5) -0.2167(7) -0.1776(3)
O3 O 0.0532(6) 0.4182(7) -0.4124(4)
O4 O 0.0392(5) 0.1541(6) -0.4350(3)
N1 N 0.0813(5) 0.1886(7) -0.1194(4)
C1 C 0.0813(5) 0.0674(8) -0.1725(4)
C2 C 0.0705(6) 0.0920(9) -0.2595(4)
C3 C 0.0552(6) 0.2474(8) -0.2912(4)
C4 C 0.0486(6) 0.3709(9) -0.2365(5)
C5 C 0.0626(7) 0.3391(9) -0.1483(5)
C6 C 0.0963(6) -0.0974(9) -0.1339(5)
C7 C 0.0480(6) 0.2765(9) -0.3880(4)
O5 O 0.1275(5) 0.3240(6) 0.0573(3)
O6 O 0.1543(5) 0.4416(6) 0.1874(4)
O7 O 0.2096(5) -0.1970(7) 0.4191(4)
O8 O 0.1862(6) 0.0653(8) 0.4350(4)
N2 N 0.1540(5) 0.0363(7) 0.1243(4)
C8 C 0.1617(6) 0.1566(8) 0.1776(4)
C9 C 0.1765(6) 0.1293(9) 0.2651(4)
C10 C 0.1889(6) -0.0284(8) 0.2962(4)
C11 C 0.1840(6) -0.1505(8) 0.2394(5)
C12 C 0.1689(6) -0.1147(9) 0.1526(4)
C13 C 0.1473(6) 0.3221(9) 0.1389(5)
C14 C 0.1959(6) -0.0545(9) 0.3913(4)
Na1 Na 0.1208(3) -0.0945(4) -0.4599(2)
Na2 Na 0.1195(3) 0.3153(4) -0.5361(2)
O9 O 0.2975(5) 0.1113(7) -0.0057(4)
O10 O 0.2942(5) -0.0179(7) -0.3723(4)
O11 O 0.0618(5) -0.2724(7) -0.3625(4)
H1 H 0.0734(6) 0.0060(9) -0.2961(4)
H2 H 0.0349(6) 0.4750(9) -0.2574(5)
H3 H 0.0589(7) 0.4223(9) -0.1102(5)
H4 H 0.1782(6) 0.2150(9) 0.3027(4)
H5 H 0.1907(6) -0.2566(8) 0.2582(5)
H6 H 0.1691(6) -0.1975(9) 0.1136(4)
Na1_2 Na 0.1208(3) -0.0945(4) 0.5401(2)
Na2_2 Na 0.1195(3) 0.3153(4) 0.4639(2)
O7A O 0.2904(5) 0.3030(7) -0.4191(4)
Na2A Na 0.3805(3) -0.1847(4) 0.5361(2)
Na1B Na -0.1208(3) 0.0945(4) -0.5401(2)
O4B O -0.0392(5) -0.1541(6) -0.5650(3)
O7_2 O 0.2096(5) -0.1970(7) -0.5809(4)
O8_2 O 0.1862(6) 0.0653(8) -0.5650(4)
O10A O 0.2058(5) 0.4821(7) -0.6277(4)
O11B O -0.0618(5) 0.2724(7) -0.6375(4)
Na2A_2 Na 0.3805(3) -0.1847(4) -0.4639(2)
Na2B Na -0.1195(3) -0.3153(4) -0.4639(2)
loop_
_geom_bond_atom_site_label_1
_geom_bond_atom_site_label_2
_geom_bond_site_symmetry_1
_geom_bond_site_symmetry_2
Cu1 O1 1_555 1_555
O1 C6 1_555 1_555
O2 C6 1_555 1_555
O3 C7 1_555 1_555
O4 C7 1_555 1_555
N1 Cu1 1_555 1_555
C1 N1 1_555 1_555
C2 C1 1_555 1_555
C3 C2 1_555 1_555
C4 C3 1_555 1_555
C5 N1 1_555 1_555
C6 C1 1_555 1_555
C7 C3 1_555 1_555
O5 Cu1 1_555 1_555
O6 C13 1_555 1_555
O7 C14 1_555 1_555
O8 C14 1_555 1_555
N2 Cu1 1_555 1_555
C8 N2 1_555 1_555
C9 C8 1_555 1_555
C10 C9 1_555 1_555
C11 C10 1_555 1_555
C12 N2 1_555 1_555
C13 O5 1_555 1_555
C14 C10 1_555 1_555
Na1 O4 1_555 1_555
Na2 O3 1_555 1_555
O9 Cu1 1_555 1_555
O10 Na1 1_555 1_555
O11 Na1 1_555 1_555
H1 C2 1_555 1_555
H2 C4 1_555 1_555
H3 C5 1_555 1_555
H4 C9 1_555 1_555
H5 C11 1_555 1_555
H6 C12 1_555 1_555
Na1_2 O7 1_555 1_555
Na2_2 O8 1_555 1_555
O7A Na2 1_555 1_555
Na2A O7 1_555 1_555
Na1B O4 1_555 1_555
O4B Na1 1_555 1_555
O7_2 Na1 1_555 1_555
O8_2 Na1 1_555 1_555
O10A Na2 1_555 1_555
O11B Na2 1_555 1_555
Na2A_2 O10 1_555 1_555
Na2B O11 1_555 1_555
O4 Na2 1_555 1_555
C4 C5 1_555 1_555
O8 Na1_2 1_555 1_555
C8 C13 1_555 1_555
C11 C12 1_555 1_555
Na2 O8_2 1_555 1_555
Na1B O4B 1_555 1_555
Na1B O11B 1_555 1_555
O4B Na2B 1_555 1_555
O7_2 Na2A_2 1_555 1_555

#END
