
#######################################################################
#
#                 Cambridge Crystallographic Data Centre
#                                CCDC 
#
#######################################################################
#
# If this CIF has been generated from an entry in the Cambridge 
# Structural Database, then it will include bibliographic, chemical, 
# crystal, experimental, refinement or atomic coordinate data resulting 
# from the CCDC's data processing and validation procedures.
#
#######################################################################

data_QAQGUL
_symmetry_cell_setting           monoclinic
_symmetry_space_group_name_H-M   'P 21/c'
_symmetry_Int_Tables_number      14
_space_group_name_Hall           '-P 2ybc'
loop_
_symmetry_equiv_pos_site_id
_symmetry_equiv_pos_as_xyz
1 x,y,z
2 -x,1/2+y,1/2-z
3 -x,-y,-z
4 x,1/2-y,1/2+z
_cell_length_a                   15.5323(10)
_cell_length_b                   9.6926(6)
_cell_length_c                   16.0408(11)
_cell_angle_alpha                90
_cell_angle_beta                 97.4060(10)
_cell_angle_gamma                90
_cell_volume                     2394.77
loop_
_atom_site_label
_atom_site_type_symbol
_atom_site_fract_x
_atom_site_fract_y
_atom_site_fract_z
C1 C 0.8582(2) 0.7111(3) 0.03513(19)
H1 H 0.8058 0.7481 0.0086
C2 C 0.9332(3) 0.6998(3) -0.00302(18)
H2 H 0.9401 0.7266 -0.0581
C3 C 0.9950(2) 0.6418(3) 0.05505(17)
H3 H 1.0528 0.6215 0.0477
C4 C 0.9547(2) 0.6183(3) 0.12895(17)
C5 C 0.99208(17) 0.5596(2) 0.20394(16)
C6 C 0.94842(17) 0.5307(2) 0.27360(16)
C7 C 0.98411(19) 0.4797(3) 0.35351(17)
H4 H 1.0426 0.4569 0.3705
C8 C 0.9173(2) 0.4697(3) 0.40145(17)
H5 H 0.9209 0.4391 0.4574
C9 C 0.84223(19) 0.5144(3) 0.34997(19)
H6 H 0.7867 0.5183 0.3671
C10 C 1.08640(18) 0.5258(3) 0.21238(16)
C11 C 1.1497(2) 0.6242(3) 0.2019(2)
H7 H 1.1342 0.7158 0.1876
C12 C 1.2357(2) 0.5839(4) 0.2128(3)
H8 H 1.2794 0.6480 0.2051
C13 C 1.11485(18) 0.3929(3) 0.23266(16)
H9 H 1.0726 0.3252 0.2382
C14 C 1.2573(2) 0.4516(4) 0.2350(2)
H10 H 1.3164 0.4270 0.2436
C15 C 0.5717(3) 0.7563(7) 0.0027(4)
C16 C 0.6151(2) 0.6973(4) 0.0875(3)
C17 C 0.5670(3) 0.6192(5) 0.1347(3)
H11 H 0.5079 0.6035 0.1161
C18 C 0.6039(2) 0.5639(5) 0.2085(3)
C19 C 0.5468(3) 0.4744(9) 0.2582(5)
Cu1 Cu 0.78073(2) 0.64677(4) 0.18985(2)
F1 F 0.5000(3) 0.7043(8) -0.0236(4)
F2 F 0.5561(5) 0.8820(6) 0.0109(4)
F3 F 0.6182(4) 0.7486(10) -0.0551(3)
F4 F 0.5754(5) 0.3526(9) 0.2656(9)
F5 F 0.4744(3) 0.4459(8) 0.2238(3)
F6 F 0.5430(7) 0.5103(12) 0.3255(4)
N1 N 0.86906(18) 0.6635(2) 0.11395(15)
N2 N 0.85990(15) 0.5505(2) 0.27366(15)
N3 N 1.19763(16) 0.3549(2) 0.24483(16)
O1 O 0.69429(16) 0.7265(3) 0.10183(17)
O2 O 0.68070(16) 0.5715(3) 0.24307(19)
Cu1A Cu 1.21927(2) 0.14677(4) 0.31015(2)
N3A N 0.80237(16) 0.8549(2) 0.25517(16)
loop_
_geom_bond_atom_site_label_1
_geom_bond_atom_site_label_2
_geom_bond_site_symmetry_1
_geom_bond_site_symmetry_2
C1 H1 1_555 1_555
C2 C1 1_555 1_555
H2 C2 1_555 1_555
C3 C2 1_555 1_555
H3 C3 1_555 1_555
C4 C3 1_555 1_555
C5 C4 1_555 1_555
C6 C5 1_555 1_555
C7 C6 1_555 1_555
H4 C7 1_555 1_555
C8 C7 1_555 1_555
H5 C8 1_555 1_555
C9 C8 1_555 1_555
H6 C9 1_555 1_555
C10 C5 1_555 1_555
C11 C10 1_555 1_555
H7 C11 1_555 1_555
C12 C11 1_555 1_555
H8 C12 1_555 1_555
C13 C10 1_555 1_555
H9 C13 1_555 1_555
C14 C12 1_555 1_555
H10 C14 1_555 1_555
C15 C16 1_555 1_555
C16 C17 1_555 1_555
C17 H11 1_555 1_555
C18 C17 1_555 1_555
C19 C18 1_555 1_555
Cu1 N1 1_555 1_555
F1 C15 1_555 1_555
F2 C15 1_555 1_555
F3 C15 1_555 1_555
F4 C19 1_555 1_555
F5 C19 1_555 1_555
F6 C19 1_555 1_555
N1 C1 1_555 1_555
N2 C6 1_555 1_555
N3 C13 1_555 1_555
O1 C16 1_555 1_555
O2 C18 1_555 1_555
Cu1A N3 1_555 1_555
N3A Cu1 1_555 1_555
C4 N1 1_555 1_555
C9 N2 1_555 1_555
C14 N3 1_555 1_555
Cu1 N2 1_555 1_555
Cu1 O1 1_555 1_555
Cu1 O2 1_555 1_555

#END
