
#######################################################################
#
#                 Cambridge Crystallographic Data Centre
#                                CCDC 
#
#######################################################################
#
# If this CIF has been generated from an entry in the Cambridge 
# Structural Database, then it will include bibliographic, chemical, 
# crystal, experimental, refinement or atomic coordinate data resulting 
# from the CCDC's data processing and validation procedures.
#
#######################################################################

data_QAQHAS
_symmetry_cell_setting           monoclinic
_symmetry_space_group_name_H-M   'P 21/c'
_symmetry_Int_Tables_number      14
_space_group_name_Hall           '-P 2ybc'
loop_
_symmetry_equiv_pos_site_id
_symmetry_equiv_pos_as_xyz
1 x,y,z
2 -x,1/2+y,1/2-z
3 -x,-y,-z
4 x,1/2-y,1/2+z
_cell_length_a                   8.4016(5)
_cell_length_b                   28.5805(18)
_cell_length_c                   16.3187(10)
_cell_angle_alpha                90
_cell_angle_beta                 95.7450(10)
_cell_angle_gamma                90
_cell_volume                     3898.8
loop_
_atom_site_label
_atom_site_type_symbol
_atom_site_fract_x
_atom_site_fract_y
_atom_site_fract_z
C1 C 0.3630(5) 0.74538(13) 0.4557(3)
H1 H 0.2811 0.7575 0.4858
C2 C 0.4935(5) 0.77193(14) 0.4334(3)
H2 H 0.5138 0.8041 0.4447
C3 C 0.5848(5) 0.74218(14) 0.3925(3)
H3 H 0.6820 0.7496 0.3703
C4 C 0.5073(4) 0.69784(13) 0.3895(2)
C5 C 0.5542(4) 0.65690(13) 0.3520(2)
C6 C 0.4708(4) 0.61460(13) 0.3469(2)
C7 C 0.5130(4) 0.57285(13) 0.3071(2)
H4 H 0.6069 0.5678 0.2804
C8 C 0.3929(5) 0.54126(13) 0.3144(2)
H5 H 0.3872 0.5102 0.2937
C9 C 0.2793(5) 0.56386(13) 0.3588(2)
H6 H 0.1826 0.5500 0.3724
C10 C 0.7085(4) 0.65885(13) 0.3129(2)
C11 C 0.8546(4) 0.66273(13) 0.3641(2)
H7 H 0.8493 0.6640 0.4220
C12 C 1.0035(5) 0.66251(12) 0.2534(2)
C13 C 1.1551(5) 0.66602(13) 0.2221(3)
H8 H 1.2487 0.6710 0.2588
C14 C 1.1666(5) 0.66235(13) 0.1401(3)
H9 H 1.2682 0.6648 0.1196
C15 C 1.0283(5) 0.65487(14) 0.0848(3)
H10 H 1.0381 0.6511 0.0277
C16 C 0.8815(5) 0.65304(14) 0.1127(3)
H11 H 0.7891 0.6491 0.0748
C17 C 0.8654(5) 0.65694(13) 0.1976(2)
C18 C 0.7145(5) 0.65509(13) 0.2300(3)
H12 H 0.6190 0.6513 0.1942
C19 C -0.0333(5) 0.72058(14) 0.6263(3)
H13 H 0.0590 0.7384 0.6510
H14 H -0.0937 0.7082 0.6698
H15 H -0.1025 0.7412 0.5902
C20 C 0.0234(4) 0.68089(14) 0.5768(2)
C21 C -0.0234(4) 0.63530(13) 0.5931(2)
H16 H -0.0861 0.6306 0.6377
C22 C 0.0156(4) 0.59630(14) 0.5483(2)
C23 C -0.0451(5) 0.54857(14) 0.5700(3)
H17 H -0.1192 0.5369 0.5244
H18 H -0.1008 0.5509 0.6198
H19 H 0.0453 0.5270 0.5799
Cu1 Cu 0.21438(5) 0.650904(16) 0.44779(3)
N1 N 0.3683(3) 0.70154(11) 0.42968(19)
N2 N 0.3258(4) 0.60735(11) 0.37922(19)
N3 N 0.9969(4) 0.66472(11) 0.3372(2)
O1 O 0.1109(3) 0.69263(9) 0.52024(16)
O2 O 0.1013(3) 0.59700(9) 0.48796(16)
Cu1_2 Cu 1.21438(5) 0.650904(16) 0.44779(3)
N3_2 N -0.0031(4) 0.66472(11) 0.3372(2)
C24 C 0.1343(4) 0.69623(13) 0.8209(2)
H20 H 0.2213 0.7148 0.8070
C25 C 0.0063(5) 0.71343(14) 0.8621(3)
H21 H -0.0075 0.7446 0.8806
C26 C -0.0935(4) 0.67635(13) 0.8701(2)
H22 H -0.1909 0.6768 0.8950
C27 C -0.0240(4) 0.63676(13) 0.8338(2)
C28 C -0.0776(4) 0.59079(13) 0.8329(2)
C29 C 0.0005(4) 0.55213(13) 0.8032(2)
C30 C -0.0454(5) 0.50447(13) 0.8043(2)
H23 H -0.1383 0.4923 0.8253
C31 C 0.0687(5) 0.47927(13) 0.7695(3)
H24 H 0.0709 0.4463 0.7617
C32 C 0.1823(5) 0.51196(14) 0.7477(3)
H25 H 0.2758 0.5039 0.7226
C33 C -0.2324(4) 0.58315(13) 0.8692(2)
C34 C -0.3767(4) 0.59732(13) 0.8233(2)
H26 H -0.3705 0.6088 0.7690
C35 C -0.5276(5) 0.57993(13) 0.9296(2)
C36 C -0.6773(5) 0.57921(14) 0.9623(3)
H27 H -0.7704 0.5900 0.9300
C37 C -0.6881(5) 0.56308(14) 1.0404(3)
H28 H -0.7891 0.5627 1.0618
C38 C -0.5531(5) 0.54712(15) 1.0890(3)
H29 H -0.5632 0.5358 1.1430
C39 C -0.4072(5) 0.54759(14) 1.0597(3)
H30 H -0.3160 0.5367 1.0935
C40 C -0.3903(4) 0.56409(13) 0.9800(2)
C41 C -0.2410(4) 0.56623(13) 0.9463(2)
H31 H -0.1466 0.5558 0.9779
C42 C 0.5224(5) 0.72457(16) 0.6520(3)
H32 H 0.4322 0.7465 0.6473
H33 H 0.5807 0.7271 0.6031
H34 H 0.5944 0.7321 0.7012
C43 C 0.4608(5) 0.67540(15) 0.6588(3)
C44 C 0.5041(5) 0.64071(16) 0.6058(3)
H35 H 0.5702 0.6493 0.5643
C45 C 0.4565(5) 0.59402(15) 0.6098(2)
C46 C 0.5081(6) 0.55901(17) 0.5484(3)
H36 H 0.5750 0.5349 0.5774
H37 H 0.5693 0.5750 0.5087
H38 H 0.4133 0.5443 0.5192
Cu2 Cu 0.26302(5) 0.612387(16) 0.74400(3)
N4 N 0.1186(3) 0.65120(10) 0.80404(19)
N5 N 0.1435(4) 0.55545(11) 0.76638(19)
N6 N -0.5191(4) 0.59561(11) 0.8509(2)
O3 O 0.3706(3) 0.66951(9) 0.71598(17)
O4 O 0.3701(3) 0.57734(10) 0.66267(16)
Cu2_2 Cu -0.73698(5) 0.612387(16) 0.74400(3)
N6_2 N 0.4809(4) 0.59561(11) 0.8509(2)
loop_
_geom_bond_atom_site_label_1
_geom_bond_atom_site_label_2
_geom_bond_site_symmetry_1
_geom_bond_site_symmetry_2
C1 H1 1_555 1_555
C2 C1 1_555 1_555
H2 C2 1_555 1_555
C3 C2 1_555 1_555
H3 C3 1_555 1_555
C4 C3 1_555 1_555
C5 C4 1_555 1_555
C6 C5 1_555 1_555
C7 C6 1_555 1_555
H4 C7 1_555 1_555
C8 C7 1_555 1_555
H5 C8 1_555 1_555
C9 C8 1_555 1_555
H6 C9 1_555 1_555
C10 C5 1_555 1_555
C11 C10 1_555 1_555
H7 C11 1_555 1_555
C12 C13 1_555 1_555
C13 H8 1_555 1_555
C14 C13 1_555 1_555
H9 C14 1_555 1_555
C15 C14 1_555 1_555
H10 C15 1_555 1_555
C16 C15 1_555 1_555
H11 C16 1_555 1_555
C17 C12 1_555 1_555
C18 C10 1_555 1_555
H12 C18 1_555 1_555
C19 H13 1_555 1_555
H14 C19 1_555 1_555
H15 C19 1_555 1_555
C20 C19 1_555 1_555
C21 C20 1_555 1_555
H16 C21 1_555 1_555
C22 C21 1_555 1_555
C23 C22 1_555 1_555
H17 C23 1_555 1_555
H18 C23 1_555 1_555
H19 C23 1_555 1_555
C24 H20 1_555 1_555
C25 C24 1_555 1_555
H21 C25 1_555 1_555
C26 C25 1_555 1_555
H22 C26 1_555 1_555
C27 C26 1_555 1_555
C28 C27 1_555 1_555
C29 C28 1_555 1_555
C30 C29 1_555 1_555
H23 C30 1_555 1_555
C31 C30 1_555 1_555
H24 C31 1_555 1_555
C32 C31 1_555 1_555
H25 C32 1_555 1_555
C33 C28 1_555 1_555
C34 C33 1_555 1_555
H26 C34 1_555 1_555
C35 C36 1_555 1_555
C36 H27 1_555 1_555
C37 C36 1_555 1_555
H28 C37 1_555 1_555
C38 C37 1_555 1_555
H29 C38 1_555 1_555
C39 C38 1_555 1_555
H30 C39 1_555 1_555
C40 C35 1_555 1_555
C41 C33 1_555 1_555
H31 C41 1_555 1_555
C42 H32 1_555 1_555
H33 C42 1_555 1_555
H34 C42 1_555 1_555
C43 C42 1_555 1_555
C44 C43 1_555 1_555
H35 C44 1_555 1_555
C45 C44 1_555 1_555
C46 C45 1_555 1_555
H36 C46 1_555 1_555
H37 C46 1_555 1_555
H38 C46 1_555 1_555
Cu1 N1 1_555 1_555
Cu2 N4 1_555 1_555
N1 C1 1_555 1_555
N2 C6 1_555 1_555
N3 C11 1_555 1_555
N4 C24 1_555 1_555
N5 C29 1_555 1_555
N6 C34 1_555 1_555
O1 C20 1_555 1_555
O2 C22 1_555 1_555
O3 C43 1_555 1_555
O4 C45 1_555 1_555
Cu1_2 N3 1_555 1_555
Cu2_2 N6 1_555 1_555
N3_2 Cu1 1_555 1_555
N6_2 Cu2 1_555 1_555
C4 N1 1_555 1_555
C9 N2 1_555 1_555
C12 N3 1_555 1_555
C16 C17 1_555 1_555
C17 C18 1_555 1_555
C27 N4 1_555 1_555
C32 N5 1_555 1_555
C35 N6 1_555 1_555
C39 C40 1_555 1_555
C40 C41 1_555 1_555
Cu1 N2 1_555 1_555
Cu1 O1 1_555 1_555
Cu1 O2 1_555 1_555
Cu2 N5 1_555 1_555
Cu2 O3 1_555 1_555
Cu2 O4 1_555 1_555

#END
