
#######################################################################
#
#                 Cambridge Crystallographic Data Centre
#                                CCDC 
#
#######################################################################
#
# If this CIF has been generated from an entry in the Cambridge 
# Structural Database, then it will include bibliographic, chemical, 
# crystal, experimental, refinement or atomic coordinate data resulting 
# from the CCDC's data processing and validation procedures.
#
#######################################################################

data_QAQHEW
_symmetry_cell_setting           monoclinic
_symmetry_space_group_name_H-M   'P 21/n'
_symmetry_Int_Tables_number      14
_space_group_name_Hall           '-P 2yn'
loop_
_symmetry_equiv_pos_site_id
_symmetry_equiv_pos_as_xyz
1 x,y,z
2 1/2-x,1/2+y,1/2-z
3 -x,-y,-z
4 1/2+x,1/2-y,1/2+z
_cell_length_a                   15.7479(14)
_cell_length_b                   9.6616(8)
_cell_length_c                   32.162(3)
_cell_angle_alpha                90
_cell_angle_beta                 94.2830(10)
_cell_angle_gamma                90
_cell_volume                     4879.78
loop_
_atom_site_label
_atom_site_type_symbol
_atom_site_fract_x
_atom_site_fract_y
_atom_site_fract_z
C1 C 0.0073(2) 0.8509(4) 0.25633(12)
H1 H -0.0439 0.8873 0.2431
C2 C 0.0236(2) 0.8377(4) 0.30003(12)
H2 H -0.0134 0.8629 0.3208
C3 C 0.1029(2) 0.7817(4) 0.30641(12)
H3 H 0.1316 0.7593 0.3326
C4 C 0.1349(2) 0.7630(4) 0.26651(11)
C5 C 0.2150(2) 0.7123(4) 0.25797(12)
C6 C 0.2422(2) 0.6870(4) 0.21802(12)
C7 C 0.3232(2) 0.6387(4) 0.20756(13)
H4 H 0.3699 0.6142 0.2266
C8 C 0.3213(3) 0.6342(4) 0.16478(13)
H5 H 0.3661 0.6055 0.1485
C9 C 0.2401(3) 0.6804(4) 0.14979(12)
H6 H 0.2217 0.6890 0.1211
C10 C 0.2776(2) 0.6878(4) 0.29424(11)
C11 C 0.3161(2) 0.5561(4) 0.30044(12)
H7 H 0.2985 0.4838 0.2817
C12 C 0.3992(2) 0.6309(4) 0.35799(11)
C13 C 0.4631(3) 0.6040(4) 0.39024(13)
H8 H 0.4897 0.5157 0.3921
C14 C 0.4869(3) 0.7040(5) 0.41858(13)
H9 H 0.5300 0.6845 0.4400
C15 C 0.4489(3) 0.8354(4) 0.41672(12)
H10 H 0.4657 0.9033 0.4371
C16 C 0.3875(3) 0.8660(4) 0.38562(12)
H11 H 0.3622 0.9553 0.3844
C17 C 0.3616(2) 0.7645(4) 0.35521(12)
C18 C 0.3007(2) 0.7912(4) 0.32193(12)
H12 H 0.2756 0.8804 0.3187
C19 C -0.1851(3) 0.8775(4) 0.14127(13)
C20 C -0.0943(2) 0.8249(4) 0.13631(12)
C21 C -0.0747(3) 0.7773(4) 0.09724(13)
H13 H -0.1187 0.7631 0.0758
C22 C 0.0092(3) 0.7507(4) 0.08991(12)
C23 C 0.0312(3) 0.7265(5) 0.04473(13)
Cu1 Cu 0.07836(3) 0.79498(5) 0.175703(13)
F1 F -0.18890(16) 1.0131(3) 0.13282(9)
F2 F -0.20764(16) 0.8600(3) 0.17962(8)
F3 F -0.24306(16) 0.8139(3) 0.11512(9)
F4 F 0.0475(3) 0.8434(4) 0.02705(10)
F5 F -0.0283(2) 0.6617(5) 0.02210(10)
F6 F 0.1003(3) 0.6485(5) 0.04353(10)
N1 N 0.07298(19) 0.8056(3) 0.23615(10)
N2 N 0.1916(2) 0.7108(3) 0.18132(10)
N3 N 0.3747(2) 0.5275(3) 0.33050(10)
O1 O -0.04519(17) 0.8413(3) 0.16825(8)
O2 O 0.07347(18) 0.7534(3) 0.11524(9)
Cu1A Cu 0.42164(3) 0.29498(5) 0.324297(13)
N3A N 0.1253(2) 1.0275(3) 0.16950(10)
C24 C 0.5743(2) 0.6482(4) 0.19844(12)
H14 H 0.5311 0.6466 0.1762
C25 C 0.5614(2) 0.6906(4) 0.23929(12)
H15 H 0.5095 0.7221 0.2493
C26 C 0.6388(2) 0.6773(4) 0.26190(11)
H16 H 0.6505 0.6969 0.2907
C27 C 0.6980(2) 0.6287(4) 0.23397(11)
C28 C 0.7854(2) 0.6033(4) 0.24261(11)
C29 C 0.8416(2) 0.5544(4) 0.21421(11)
C30 C 0.9309(2) 0.5354(4) 0.22093(12)
H17 H 0.9648 0.5544 0.2459
C31 C 0.9590(2) 0.4843(4) 0.18453(12)
H18 H 1.0159 0.4600 0.1796
C32 C 0.8867(2) 0.4752(4) 0.15597(12)
H19 H 0.8879 0.4433 0.1281
C33 C 0.8208(2) 0.6318(4) 0.28595(11)
C34 C 0.8631(2) 0.5327(4) 0.31013(12)
H20 H 0.8740 0.4442 0.2988
C35 C 0.8092(2) 0.7636(4) 0.30391(11)
H21 H 0.7826 0.8332 0.2866
C36 C 0.8719(2) 0.6967(4) 0.36754(11)
C37 C 0.8954(3) 0.7269(4) 0.40986(12)
H22 H 0.8839 0.8158 0.4208
C38 C 0.9345(3) 0.6291(5) 0.43506(14)
H23 H 0.9495 0.6501 0.4635
C39 C 0.9529(4) 0.4978(5) 0.41946(14)
H24 H 0.9805 0.4310 0.4374
C40 C 0.9317(3) 0.4651(4) 0.37899(13)
H25 H 0.9449 0.3760 0.3688
C41 C 0.8902(2) 0.5635(4) 0.35191(12)
C42 C 0.4861(3) 0.6134(4) 0.05964(12)
C43 C 0.5794(3) 0.5868(4) 0.07412(12)
C44 C 0.6373(3) 0.5710(4) 0.04414(12)
H26 H 0.6213 0.5932 0.0159
C45 C 0.7190(3) 0.5227(4) 0.05549(12)
C46 C 0.7762(3) 0.4883(7) 0.02017(14)
Cu2 Cu 0.70136(3) 0.52893(5) 0.145464(13)
F7 F 0.44872(16) 0.7002(3) 0.08490(8)
F8 F 0.47583(18) 0.6647(3) 0.02128(8)
F9 F 0.44233(18) 0.4942(3) 0.05940(9)
F10 F 0.7379(2) 0.4047(8) -0.00695(15)
F11 F 0.7935(3) 0.6024(7) -0.00030(15)
F12 F 0.8492(2) 0.4378(4) 0.03365(9)
N4 N 0.65541(19) 0.6102(3) 0.19477(9)
N5 N 0.8161(2) 0.5172(3) 0.17318(9)
N6 N 0.83246(19) 0.7966(3) 0.34266(10)
O3 O 0.59155(17) 0.5712(3) 0.11300(8)
O4 O 0.75172(18) 0.4972(3) 0.09119(8)
Cu2A Cu 0.79864(3) 1.02893(5) 0.354536(13)
N6A N 0.66754(19) 0.2966(3) 0.15734(10)
C47 C 0.731(2) 0.9110(17) 0.9418(12)
H27 H 0.7912 0.8800 0.9396
Cl1 Cl 0.7143(6) 1.0180(6) 0.9022(3)
Cl2 Cl 0.6699(4) 0.7600(7) 0.92712(17)
Cl3 Cl 0.7292(8) 0.9575(9) 0.9940(4)
loop_
_geom_bond_atom_site_label_1
_geom_bond_atom_site_label_2
_geom_bond_site_symmetry_1
_geom_bond_site_symmetry_2
C1 H1 1_555 1_555
C2 C1 1_555 1_555
H2 C2 1_555 1_555
C3 C2 1_555 1_555
H3 C3 1_555 1_555
C4 C3 1_555 1_555
C5 C4 1_555 1_555
C6 C5 1_555 1_555
C7 C6 1_555 1_555
H4 C7 1_555 1_555
C8 C7 1_555 1_555
H5 C8 1_555 1_555
C9 C8 1_555 1_555
H6 C9 1_555 1_555
C10 C5 1_555 1_555
C11 C10 1_555 1_555
H7 C11 1_555 1_555
C12 C13 1_555 1_555
C13 H8 1_555 1_555
C14 C13 1_555 1_555
H9 C14 1_555 1_555
C15 C14 1_555 1_555
H10 C15 1_555 1_555
C16 C15 1_555 1_555
H11 C16 1_555 1_555
C17 C12 1_555 1_555
C18 C10 1_555 1_555
H12 C18 1_555 1_555
C19 C20 1_555 1_555
C20 C21 1_555 1_555
C21 H13 1_555 1_555
C22 C21 1_555 1_555
C23 C22 1_555 1_555
C24 H14 1_555 1_555
C25 C24 1_555 1_555
H15 C25 1_555 1_555
C26 C25 1_555 1_555
H16 C26 1_555 1_555
C27 C26 1_555 1_555
C28 C27 1_555 1_555
C29 C28 1_555 1_555
C30 C29 1_555 1_555
H17 C30 1_555 1_555
C31 C30 1_555 1_555
H18 C31 1_555 1_555
C32 C31 1_555 1_555
H19 C32 1_555 1_555
C33 C28 1_555 1_555
C34 C33 1_555 1_555
H20 C34 1_555 1_555
C35 C33 1_555 1_555
H21 C35 1_555 1_555
C36 C37 1_555 1_555
C37 H22 1_555 1_555
C38 C37 1_555 1_555
H23 C38 1_555 1_555
C39 C38 1_555 1_555
H24 C39 1_555 1_555
C40 C39 1_555 1_555
H25 C40 1_555 1_555
C41 C34 1_555 1_555
C42 C43 1_555 1_555
C43 C44 1_555 1_555
C44 H26 1_555 1_555
C45 C44 1_555 1_555
C46 C45 1_555 1_555
C47 H27 1_555 1_555
Cl1 C47 1_555 1_555
Cl2 C47 1_555 1_555
Cl3 C47 1_555 1_555
Cu1 N1 1_555 1_555
Cu2 N4 1_555 1_555
F1 C19 1_555 1_555
F2 C19 1_555 1_555
F3 C19 1_555 1_555
F4 C23 1_555 1_555
F5 C23 1_555 1_555
F6 C23 1_555 1_555
F7 C42 1_555 1_555
F8 C42 1_555 1_555
F9 C42 1_555 1_555
F10 C46 1_555 1_555
F11 C46 1_555 1_555
F12 C46 1_555 1_555
N1 C1 1_555 1_555
N2 C6 1_555 1_555
N3 C11 1_555 1_555
N4 C24 1_555 1_555
N5 C29 1_555 1_555
N6 C35 1_555 1_555
O1 C20 1_555 1_555
O2 C22 1_555 1_555
O3 C43 1_555 1_555
O4 C45 1_555 1_555
Cu1A N3 1_555 1_555
Cu2A N6 1_555 1_555
N3A Cu1 1_555 1_555
N6A Cu2 1_555 1_555
C4 N1 1_555 1_555
C9 N2 1_555 1_555
C12 N3 1_555 1_555
C16 C17 1_555 1_555
C17 C18 1_555 1_555
C27 N4 1_555 1_555
C32 N5 1_555 1_555
C36 C41 1_555 1_555
C36 N6 1_555 1_555
C40 C41 1_555 1_555
Cu1 N2 1_555 1_555
Cu1 O1 1_555 1_555
Cu1 O2 1_555 1_555
Cu2 N5 1_555 1_555
Cu2 O3 1_555 1_555
Cu2 O4 1_555 1_555

#END
