
#######################################################################
#
#                 Cambridge Crystallographic Data Centre
#                                CCDC 
#
#######################################################################
#
# If this CIF has been generated from an entry in the Cambridge 
# Structural Database, then it will include bibliographic, chemical, 
# crystal, experimental, refinement or atomic coordinate data resulting 
# from the CCDC's data processing and validation procedures.
#
#######################################################################

data_QAQJOI
_symmetry_cell_setting           trigonal
_symmetry_space_group_name_H-M   'P 32 2 1'
_symmetry_Int_Tables_number      154
_space_group_name_Hall           'P 32 2"'
loop_
_symmetry_equiv_pos_site_id
_symmetry_equiv_pos_as_xyz
1 x,y,z
2 -y,x-y,2/3+z
3 -x+y,-x,1/3+z
4 y,x,-z
5 x-y,-y,1/3-z
6 -x,-x+y,2/3-z
_cell_length_a                   11.9961(19)
_cell_length_b                   11.9961(19)
_cell_length_c                   16.062(5)
_cell_angle_alpha                90
_cell_angle_beta                 90
_cell_angle_gamma                120
_cell_volume                     2001.75
loop_
_atom_site_label
_atom_site_type_symbol
_atom_site_fract_x
_atom_site_fract_y
_atom_site_fract_z
Co1 Co 0.00000(3) -0.4238 -0.1667
Fe1 Fe -0.18537(4) -0.18537(4) 0.0000
N1 N -0.0715(2) -0.5950(2) -0.09015(14)
N2 N -0.0067(3) -0.6011(3) -0.02263(15)
N3 N 0.1779(2) -0.3440(2) -0.09913(14)
N4 N 0.1926(3) -0.4027(3) -0.03056(16)
N5 N -0.0766(3) -0.3391(2) -0.08862(13)
N6 N -0.1433(5) -0.2749(5) 0.17118(19)
N7 N -0.4413(4) -0.4413(4) 0.0000
N8 N -0.0477(3) -0.0477(3) 0.0000
O1 O 0.0471(3) 0.0471(3) 0.0000
C1 C -0.1457(3) -0.7175(3) -0.11348(19)
H1 H -0.2009 -0.7437 -0.1590
C2 C -0.1302(4) -0.8002(4) -0.0615(3)
H2 H -0.1717 -0.8895 -0.0650
C3 C -0.0418(4) -0.7242(4) -0.0043(2)
H3 H -0.0109 -0.7517 0.0396
C4 C 0.0817(4) -0.4839(4) 0.01979(19)
H4 H -0.1097 -0.6148 -0.4044
H5 H -0.0377 -0.4749 -0.3676
C5 C -0.3178(5) -0.6814(5) -0.3144(3)
H6 H -0.3512 -0.7423 -0.3568
C6 C -0.3871(5) -0.6650(4) -0.2547(4)
H7 H -0.4759 -0.7109 -0.2476
C7 C -0.2961(4) -0.5638(3) -0.2058(2)
H8 H -0.3160 -0.5305 -0.1595
C8 C -0.1166(3) -0.2821(3) -0.05475(16)
C9 C -0.1589(3) -0.2411(4) 0.10742(19)
C10 C -0.3469(4) -0.3469(4) 0.0000
Fe1A Fe 0.18537(4) 0.00000(6) -0.3333
N1E N 0.0715(2) -0.5235(3) -0.24318(14)
N2E N 0.0067(3) -0.5944(4) -0.31070(15)
N3E N -0.1779(2) -0.5219(3) -0.23420(14)
N4E N -0.1926(3) -0.5953(4) -0.30277(16)
N5E N 0.0766(3) -0.2625(4) -0.24471(13)
N6C N -0.2749(5) -0.1433(5) -0.17118(19)
C1E C 0.1457(3) -0.5718(4) -0.21985(19)
H1E H 0.2009 -0.5428 -0.1743
C2E C 0.1302(4) -0.6700(6) -0.2718(3)
H2E H 0.1717 -0.7178 -0.2683
C3E C 0.0418(4) -0.6824(6) -0.3290(2)
H3E H 0.0109 -0.7408 -0.3729
C4E C -0.0817(4) -0.5656(6) -0.35312(19)
H4E H 0.1097 -0.5051 0.0711
H5E H 0.0377 -0.4372 0.0343
C5E C 0.3178(5) -0.3636(7) -0.0189(3)
H6E H 0.3512 -0.3911 0.0235
C6E C 0.3871(5) -0.2779(6) -0.0786(4)
H7E H 0.4759 -0.2350 -0.0857
C7E C 0.2961(4) -0.2677(5) -0.1275(2)
H8E H 0.3160 -0.2145 -0.1738
C8C C -0.2821(3) -0.1166(3) 0.05475(16)
C8E C 0.1166(3) -0.1655(4) -0.27858(16)
C9C C -0.2411(4) -0.1589(3) -0.10742(19)
O2 O -0.9834(8) 0.6083(8) 0.1978(4)
loop_
_geom_bond_atom_site_label_1
_geom_bond_atom_site_label_2
_geom_bond_site_symmetry_1
_geom_bond_site_symmetry_2
Co1 N1 1_555 1_555
Fe1 N8 1_555 1_555
N1 N2 1_555 1_555
N2 C3 1_555 1_555
N3 Co1 1_555 1_555
N4 N3 1_555 1_555
N5 Co1 1_555 1_555
N6 C9 1_555 1_555
N7 C10 1_555 1_555
N8 O1 1_555 1_555
C1 N1 1_555 1_555
H1 C1 1_555 1_555
C2 C1 1_555 1_555
H2 C2 1_555 1_555
C3 C2 1_555 1_555
H3 C3 1_555 1_555
C4 N2 1_555 1_555
H4 C4E 1_555 1_555
H5 C4E 1_555 1_555
C5 H6 1_555 1_555
C6 C5 1_555 1_555
H7 C6 1_555 1_555
C7 C6 1_555 1_555
H8 C7 1_555 1_555
C8 Fe1 1_555 1_555
C9 Fe1 1_555 1_555
C10 Fe1 1_555 1_555
Fe1A C8E 1_555 1_555
N1E Co1 1_555 1_555
N2E N1E 1_555 1_555
N3E Co1 1_555 1_555
N4E C5 1_555 1_555
N5E Co1 1_555 1_555
N6C C9C 1_555 1_555
C1E N1E 1_555 1_555
H1E C1E 1_555 1_555
C2E C1E 1_555 1_555
H2E C2E 1_555 1_555
C3E N2E 1_555 1_555
H3E C3E 1_555 1_555
C4E N2E 1_555 1_555
H4E C4 1_555 1_555
H5E C4 1_555 1_555
C5E N4 1_555 1_555
H6E C5E 1_555 1_555
C6E C5E 1_555 1_555
H7E C6E 1_555 1_555
C7E N3 1_555 1_555
H8E C7E 1_555 1_555
C8C Fe1 1_555 1_555
C8E N5E 1_555 1_555
C9C Fe1 1_555 1_555
N4 C4 1_555 1_555
N5 C8 1_555 1_555
C7 N3E 1_555 1_555
N3E N4E 1_555 1_555
N4E C4E 1_555 1_555
C2E C3E 1_555 1_555
C6E C7E 1_555 1_555

#END
