
#######################################################################
#
#                 Cambridge Crystallographic Data Centre
#                                CCDC 
#
#######################################################################
#
# If this CIF has been generated from an entry in the Cambridge 
# Structural Database, then it will include bibliographic, chemical, 
# crystal, experimental, refinement or atomic coordinate data resulting 
# from the CCDC's data processing and validation procedures.
#
#######################################################################

data_QAQKID
_symmetry_cell_setting           triclinic
_symmetry_space_group_name_H-M   'P -1'
_symmetry_Int_Tables_number      2
_space_group_name_Hall           '-P 1'
loop_
_symmetry_equiv_pos_site_id
_symmetry_equiv_pos_as_xyz
1 x,y,z
2 -x,-y,-z
_cell_length_a                   6.108(4)
_cell_length_b                   10.180(4)
_cell_length_c                   11.849(4)
_cell_angle_alpha                105.91(3)
_cell_angle_beta                 97.78(3)
_cell_angle_gamma                99.37(4)
_cell_volume                     686.394
loop_
_atom_site_label
_atom_site_type_symbol
_atom_site_fract_x
_atom_site_fract_y
_atom_site_fract_z
C1 C -0.1268(6) -0.0257(3) 0.3785(3)
H1 H -0.2404 -0.1091 0.3710
C2 C 0.1046(7) -0.0589(4) 0.3986(3)
H2 H 0.2180 0.0202 0.3994
H3 H 0.1139 -0.1385 0.3334
C3 C -0.1530(6) 0.0919(4) 0.4826(3)
H4 H -0.3057 0.1074 0.4697
H5 H -0.0497 0.1770 0.4868
C4 C 0.4162(5) 0.4754(3) 0.3719(3)
H6 H 0.5060 0.5571 0.3589
C5 C 0.5752(5) 0.3910(4) 0.4139(3)
H7 H 0.6699 0.3651 0.3555
H8 H 0.4879 0.3058 0.4207
C6 C 0.2761(5) 0.5251(4) 0.4653(3)
H9 H 0.1781 0.4449 0.4742
H10 H 0.1814 0.5826 0.4385
N1 N -0.1639(6) 0.0115(3) 0.2660(3)
N2 N 0.2633(5) 0.3909(3) 0.2585(3)
H13 H -0.153(7) -0.066(5) 0.210(4)
H14 H -0.317(9) 0.018(5) 0.252(4)
H15 H 0.347(8) 0.377(5) 0.210(4)
H16 H 0.180(6) 0.433(4) 0.238(3)
Ag1 Ag 0.06050(4) 0.19287(3) 0.25344(2)
C1A C 0.1268(6) 0.0257(3) 0.6215(3)
H1A H 0.2404 0.1091 0.6290
C2A C -0.1046(7) 0.0589(4) 0.6014(3)
H2A H -0.2180 -0.0202 0.6006
H3A H -0.1139 0.1385 0.6666
C3A C 0.1530(6) -0.0919(4) 0.5174(3)
H4A H 0.3057 -0.1074 0.5303
H5A H 0.0497 -0.1770 0.5132
C4A C 0.5838(5) 0.5246(3) 0.6281(3)
H6A H 0.4940 0.4429 0.6411
C5A C 0.4248(5) 0.6090(4) 0.5861(3)
H7A H 0.3301 0.6349 0.6445
H8A H 0.5121 0.6942 0.5793
C6A C 0.7239(5) 0.4749(4) 0.5347(3)
H9A H 0.8219 0.5551 0.5258
H10A H 0.8186 0.4174 0.5615
N1A N 0.1639(6) -0.0115(3) 0.7340(3)
N2A N 0.7367(5) 0.6091(3) 0.7415(3)
N2A_2 N -0.2633(5) -0.3909(3) 0.7415(3)
H13A H 0.153(7) 0.066(5) 0.790(4)
H14A H 0.317(9) -0.018(5) 0.748(4)
H15A H 0.653(8) 0.623(5) 0.790(4)
H15A_2 H -0.347(8) -0.377(5) 0.790(4)
H16A H 0.820(6) 0.567(4) 0.762(3)
H16A_2 H -0.180(6) -0.433(4) 0.762(3)
Ag1A Ag -0.06050(4) -0.19287(3) 0.74656(2)
Ag1A_2 Ag 0.93950(4) 0.80713(3) 0.74656(2)
O1 O 0.8969(5) 0.1529(3) 0.0216(3)
H19 H 0.799(10) 0.197(6) 0.031(5)
H20 H 1.013(10) 0.193(5) 0.008(5)
O2 O -0.1126(5) 0.5392(3) 0.2033(3)
H11 H -0.1495 0.6231 0.1644
H12 H -0.1796 0.4784 0.1649
O3 O 0.3984(5) 0.0675(4) 0.1577(3)
H17 H 0.308(10) -0.002(7) 0.103(5)
H18 H 0.449(11) 0.126(7) 0.135(6)
C7 C 0.4049(7) 0.6671(5) 1.1217(4)
H21 H 0.4880 0.6335 1.1787
H22 H 0.2741 0.5967 1.0774
H23 H 0.3583 0.7500 1.1628
C8 C 0.5541(5) 0.7004(3) 1.0363(3)
O4 O 0.4575(4) 0.7049(3) 0.9371(2)
O5 O 0.7632(4) 0.7222(3) 1.0692(2)
loop_
_geom_bond_atom_site_label_1
_geom_bond_atom_site_label_2
_geom_bond_site_symmetry_1
_geom_bond_site_symmetry_2
C1 H1 1_555 1_555
C2 C1 1_555 1_555
H2 C2 1_555 1_555
H3 C2 1_555 1_555
C3 C1 1_555 1_555
H4 C3 1_555 1_555
H5 C3 1_555 1_555
C4 H6 1_555 1_555
C5 C4 1_555 1_555
H7 C5 1_555 1_555
H8 C5 1_555 1_555
C6 C4 1_555 1_555
H9 C6 1_555 1_555
H10 C6 1_555 1_555
O1 H19 1_555 1_555
O2 H11 1_555 1_555
O3 H17 1_555 1_555
N1 C1 1_555 1_555
N2 C4 1_555 1_555
H12 O2 1_555 1_555
H13 N1 1_555 1_555
H14 N1 1_555 1_555
H15 N2 1_555 1_555
H16 N2 1_555 1_555
H18 O3 1_555 1_555
H20 O1 1_555 1_555
Ag1 N1 1_555 1_555
C7 H21 1_555 1_555
H22 C7 1_555 1_555
H23 C7 1_555 1_555
C8 C7 1_555 1_555
O4 C8 1_555 1_555
O5 C8 1_555 1_555
C1A H1A 1_555 1_555
C2A C3 1_555 1_555
H2A C2A 1_555 1_555
H3A C2A 1_555 1_555
C3A C2 1_555 1_555
H4A C3A 1_555 1_555
H5A C3A 1_555 1_555
C4A H6A 1_555 1_555
C5A C6 1_555 1_555
H7A C5A 1_555 1_555
H8A C5A 1_555 1_555
C6A C5 1_555 1_555
H9A C6A 1_555 1_555
H10A C6A 1_555 1_555
N1A C1A 1_555 1_555
N2A C4A 1_555 1_555
N2A_2 H15A_2 1_555 1_555
H13A N1A 1_555 1_555
H14A N1A 1_555 1_555
H15A N2A 1_555 1_555
H16A N2A 1_555 1_555
H16A_2 N2A_2 1_555 1_555
Ag1A N1A 1_555 1_555
Ag1A_2 N2A 1_555 1_555
N2 Ag1 1_555 1_555
C1A C2A 1_555 1_555
C1A C3A 1_555 1_555
C4A C5A 1_555 1_555
C4A C6A 1_555 1_555
N2A_2 Ag1A 1_555 1_555

#END
