
#######################################################################
#
#                 Cambridge Crystallographic Data Centre
#                                CCDC 
#
#######################################################################
#
# If this CIF has been generated from an entry in the Cambridge 
# Structural Database, then it will include bibliographic, chemical, 
# crystal, experimental, refinement or atomic coordinate data resulting 
# from the CCDC's data processing and validation procedures.
#
#######################################################################

data_QAQQOP
_symmetry_cell_setting           monoclinic
_symmetry_space_group_name_H-M   'P 21/c'
_symmetry_Int_Tables_number      14
_space_group_name_Hall           '-P 2ybc'
loop_
_symmetry_equiv_pos_site_id
_symmetry_equiv_pos_as_xyz
1 x,y,z
2 -x,1/2+y,1/2-z
3 -x,-y,-z
4 x,1/2-y,1/2+z
_cell_length_a                   9.7364(7)
_cell_length_b                   10.4044(8)
_cell_length_c                   14.6624(11)
_cell_angle_alpha                90
_cell_angle_beta                 109.3910(10)
_cell_angle_gamma                90
_cell_volume                     1401.07
loop_
_atom_site_label
_atom_site_type_symbol
_atom_site_fract_x
_atom_site_fract_y
_atom_site_fract_z
Co1 Co 0.36534(4) 0.39135(4) 0.47525(3)
O1 O 0.4253(2) 0.5776(2) 0.53280(17)
N1 N 0.3228(3) 0.6702(2) 0.52375(19)
C1 C 0.2696(4) 0.6839(4) 0.5960(3)
H1 H 0.3063 0.6349 0.6518
C2 C 0.1595(5) 0.7718(5) 0.5870(3)
H2 H 0.1236 0.7841 0.6378
C3 C 0.1025(5) 0.8415(4) 0.5024(4)
C4 C 0.1685(5) 0.8300(4) 0.4322(3)
H3 H 0.1381 0.8814 0.3772
C5 C 0.2783(4) 0.7430(4) 0.4440(3)
H4 H 0.3220 0.7344 0.3968
C6 C -0.0273(5) 0.9374(5) 0.4869(4)
H5 H -0.0890 0.9363 0.4196
H6 H -0.0855 0.9113 0.5260
O2 O 0.4398(3) 0.3202(2) 0.61509(17)
H7 H 0.4238 0.2490 0.6398
H8 H 0.4374 0.3726 0.6448
O3 O 0.3447(3) 0.2057(3) 0.4262(2)
H9 H 0.3886 0.1487 0.4552
H10 H 0.2618 0.1531 0.3924
O4 O 0.2770(3) 0.4630(3) 0.33443(17)
H11 H 0.1824 0.4486 0.3005
H12 H 0.3255 0.4599 0.2918
O5 O 0.1581(3) 0.3990(3) 0.4821(2)
H13 H 0.0641 0.4481 0.4302
H14 H 0.1515 0.4020 0.5297
Co1B Co -0.36534(4) 1.60865(4) 0.52475(3)
Co1B_2 Co 0.63466(4) 0.60865(4) 0.52475(3)
Co1_2 Co -0.63466(4) 1.39135(4) 0.47525(3)
O1B O -0.4253(2) 1.4224(2) 0.46720(17)
O1B_2 O 0.5747(2) 0.4224(2) 0.46720(17)
O1_2 O -0.5747(2) 1.5776(2) 0.53280(17)
N1B N -0.3228(3) 1.3298(2) 0.47625(19)
C1B C -0.2696(4) 1.3161(4) 0.4040(3)
H1B H -0.3063 1.3651 0.3482
C2B C -0.1595(5) 1.2282(5) 0.4130(3)
H2B H -0.1236 1.2159 0.3622
C3B C -0.1025(5) 1.1585(4) 0.4976(4)
C4B C -0.1685(5) 1.1700(4) 0.5678(3)
H3B H -0.1381 1.1186 0.6228
C5B C -0.2783(4) 1.2570(4) 0.5560(3)
H4B H -0.3220 1.2656 0.6032
C6B C 0.0273(5) 1.0626(5) 0.5131(4)
H5B H 0.0890 1.0637 0.5804
H6B H 0.0855 1.0887 0.4740
O2B O -0.4398(3) 1.6798(2) 0.38491(17)
H7B H -0.4238 1.7510 0.3602
H8B H -0.4374 1.6274 0.3552
O3B O -0.3447(3) 1.7943(3) 0.5738(2)
H9B H -0.3886 1.8513 0.5448
H10B H -0.2618 1.8469 0.6076
O4B O -0.2770(3) 1.5370(3) 0.66557(17)
H11B H -0.1824 1.5514 0.6995
H12B H -0.3255 1.5401 0.7082
O5B O -0.1581(3) 1.6010(3) 0.5179(2)
H13B H -0.0641 1.5519 0.5698
H14B H -0.1515 1.5980 0.4703
N2 N 0.5268(4) 0.5096(3) 0.8335(2)
O6 O 0.4880(8) 0.4128(5) 0.7915(3)
O7 O 0.5973(4) 0.5871(3) 0.8053(3)
O8 O 0.5115(6) 0.5218(4) 0.9116(3)
N3 N -0.0750(4) 0.6064(4) 0.2953(3)
O9 O -0.0175(7) 0.5870(7) 0.2385(4)
O10 O -0.1570(6) 0.6941(6) 0.2867(5)
O11 O -0.0513(6) 0.5464(6) 0.3678(4)
loop_
_geom_bond_atom_site_label_1
_geom_bond_atom_site_label_2
_geom_bond_site_symmetry_1
_geom_bond_site_symmetry_2
Co1 O1 1_555 1_555
O1 N1 1_555 1_555
N1 C1 1_555 1_555
C1 H1 1_555 1_555
C2 C1 1_555 1_555
H2 C2 1_555 1_555
C3 C2 1_555 1_555
C4 C3 1_555 1_555
H3 C4 1_555 1_555
C5 N1 1_555 1_555
H4 C5 1_555 1_555
C6 C3 1_555 1_555
H5 C6 1_555 1_555
H6 C6 1_555 1_555
O2 Co1 1_555 1_555
H7 O2 1_555 1_555
H8 O2 1_555 1_555
O3 Co1 1_555 1_555
H9 O3 1_555 1_555
H10 O3 1_555 1_555
O4 Co1 1_555 1_555
H11 O4 1_555 1_555
H12 O4 1_555 1_555
O5 Co1 1_555 1_555
H13 O5 1_555 1_555
H14 O5 1_555 1_555
N2 O6 1_555 1_555
O7 N2 1_555 1_555
O8 N2 1_555 1_555
N3 O9 1_555 1_555
O10 N3 1_555 1_555
O11 N3 1_555 1_555
Co1B O1B 1_555 1_555
Co1B_2 O1 1_555 1_555
Co1_2 O1B 1_555 1_555
O1B N1B 1_555 1_555
O1B_2 Co1 1_555 1_555
O1_2 Co1B 1_555 1_555
N1B C1B 1_555 1_555
C1B H1B 1_555 1_555
C2B C1B 1_555 1_555
H2B C2B 1_555 1_555
C3B C2B 1_555 1_555
C4B C3B 1_555 1_555
H3B C4B 1_555 1_555
C5B N1B 1_555 1_555
H4B C5B 1_555 1_555
C6B C6 1_555 1_555
H5B C6B 1_555 1_555
H6B C6B 1_555 1_555
O2B Co1B 1_555 1_555
H7B O2B 1_555 1_555
H8B O2B 1_555 1_555
O3B Co1B 1_555 1_555
H9B O3B 1_555 1_555
H10B O3B 1_555 1_555
O4B Co1B 1_555 1_555
H11B O4B 1_555 1_555
H12B O4B 1_555 1_555
O5B Co1B 1_555 1_555
H13B O5B 1_555 1_555
H14B O5B 1_555 1_555
C4 C5 1_555 1_555
Co1B_2 O1B_2 1_555 1_555
Co1_2 O1_2 1_555 1_555
C3B C6B 1_555 1_555
C4B C5B 1_555 1_555

#END
