
#######################################################################
#
#                 Cambridge Crystallographic Data Centre
#                                CCDC 
#
#######################################################################
#
# If this CIF has been generated from an entry in the Cambridge 
# Structural Database, then it will include bibliographic, chemical, 
# crystal, experimental, refinement or atomic coordinate data resulting 
# from the CCDC's data processing and validation procedures.
#
#######################################################################

data_QAQQUV
_symmetry_cell_setting           triclinic
_symmetry_space_group_name_H-M   'P -1'
_symmetry_Int_Tables_number      2
_space_group_name_Hall           '-P 1'
loop_
_symmetry_equiv_pos_site_id
_symmetry_equiv_pos_as_xyz
1 x,y,z
2 -x,-y,-z
_cell_length_a                   7.5143(10)
_cell_length_b                   15.057(2)
_cell_length_c                   19.928(3)
_cell_angle_alpha                111.532(3)
_cell_angle_beta                 90.859(3)
_cell_angle_gamma                97.736(3)
_cell_volume                     2073.19
loop_
_atom_site_label
_atom_site_type_symbol
_atom_site_fract_x
_atom_site_fract_y
_atom_site_fract_z
Co1 Co 0.17373(6) 0.24733(3) 0.26528(2)
O1 O -0.1031(3) 0.22747(16) 0.24100(13)
H1 H -0.1736 0.2024 0.2674
H2 H -0.1587 0.2650 0.2300
O2 O 0.4482(3) 0.27561(17) 0.29131(13)
H3 H 0.5163 0.3029 0.2656
H4 H 0.5211 0.2342 0.2966
O3 O 0.1925(4) 0.33556(19) 0.20482(16)
N1 N 0.2393(4) 0.4294(2) 0.22172(18)
C1 C 0.4964(6) 1.0143(3) 0.2312(3)
H5 H 0.4366 1.0482 0.2097
C2 C 0.4555(6) 0.9148(3) 0.2059(3)
H6 H 0.3669 0.8826 0.1686
C3 C 0.5485(6) 0.8627(3) 0.2370(3)
C4 C 0.6776(6) 0.9161(3) 0.2921(3)
H7 H 0.7436 0.8843 0.3135
C5 C 0.7112(6) 1.0150(3) 0.3161(3)
H8 H 0.7981 1.0494 0.3536
C6 C 0.5040(7) 0.7546(3) 0.2147(3)
H9 H 0.6141 0.7271 0.2136
H10 H 0.4438 0.7267 0.1666
C7 C 0.3834(8) 0.7312(3) 0.2678(3)
H11 H 0.2735 0.7585 0.2680
H12 H 0.4433 0.7617 0.3159
C8 C 0.3344(6) 0.6234(3) 0.2510(3)
C9 C 0.2312(7) 0.5639(3) 0.1893(3)
H13 H 0.1916 0.5895 0.1568
C10 C 0.1863(5) 0.4677(3) 0.1751(2)
H14 H 0.1182 0.4282 0.1328
C11 C 0.3418(5) 0.4849(3) 0.2827(2)
H15 H 0.3785 0.4578 0.3146
C12 C 0.3917(6) 0.5816(3) 0.2973(2)
H16 H 0.4648 0.6194 0.3387
N2 N 0.6187(4) 1.0623(2) 0.2854(2)
O4 O 0.6533(4) 1.15874(19) 0.31190(18)
O5 O 0.2137(3) 0.13916(18) 0.16670(14)
N3 N 0.0601(4) 0.0972(2) 0.12506(16)
C13 C -0.0321(6) 0.0160(3) 0.1281(2)
H17 H 0.0114 -0.0118 0.1585
C14 C -0.1899(6) -0.0258(3) 0.0867(2)
H18 H -0.2520 -0.0822 0.0890
C15 C -0.2589(5) 0.0141(3) 0.0414(2)
C16 C -0.1595(6) 0.0975(3) 0.0397(2)
H19 H -0.2004 0.1264 0.0096
C17 C -0.0001(5) 0.1386(3) 0.0821(2)
H20 H 0.0648 0.1949 0.0807
C18 C -0.4305(6) -0.0321(3) -0.0052(3)
H21 H -0.4024 -0.0542 -0.0555
H22 H -0.4804 -0.0884 0.0048
O6 O 0.1100(4) 0.13254(19) 0.30146(16)
N4 N 0.1937(4) 0.1078(2) 0.34923(18)
C19 C 0.3042(5) 0.1729(3) 0.4038(2)
H23 H 0.3284 0.2366 0.4070
C20 C 0.3806(7) 0.1463(4) 0.4542(2)
H24 H 0.4581 0.1922 0.4912
C21 C 0.3465(8) 0.0529(4) 0.4519(3)
C22 C 0.2382(7) -0.0125(4) 0.3939(3)
H25 H 0.2156 -0.0768 0.3893
C23 C 0.1626(6) 0.0147(3) 0.3429(3)
H26 H 0.0901 -0.0309 0.3040
C24 C 0.4233(9) 0.0239(5) 0.5106(3)
H27 H 0.4572 0.0812 0.5539
H28 H 0.3309 -0.0186 0.5224
O7 O 0.1662(3) 0.35405(18) 0.36708(13)
N5 N 0.0104(4) 0.3766(2) 0.39597(15)
C25 C -0.0533(5) 0.3416(3) 0.4451(3)
H29 H 0.0085 0.2998 0.4577
C26 C -0.2081(6) 0.3666(3) 0.4768(3)
H30 H -0.2496 0.3414 0.5109
C27 C -0.3040(5) 0.4275(2) 0.46011(19)
C28 C -0.2346(6) 0.4620(3) 0.4103(2)
H31 H -0.2944 0.5039 0.3971
C29 C -0.0773(5) 0.4363(3) 0.3790(2)
H32 H -0.0326 0.4615 0.3454
C30 C -0.4787(5) 0.4516(3) 0.4938(3)
H33 H -0.5761 0.4046 0.4630
H34 H -0.4765 0.4435 0.5399
Co1A Co -1.17373(6) -0.24733(3) -0.26528(2)
Co1A_2 Co 0.82627(6) -0.24733(3) 0.73472(2)
Co1A_3 Co -1.17373(6) 0.75267(3) 0.73472(2)
O1A O -0.8969(3) -0.22747(16) -0.24100(13)
H1A H -0.8264 -0.2024 -0.2674
H2A H -0.8413 -0.2650 -0.2300
O2A O -1.4482(3) -0.27561(17) -0.29131(13)
H3A H -1.5163 -0.3029 -0.2656
H4A H -1.5211 -0.2342 -0.2966
O3A O -1.1925(4) -0.33556(19) -0.20482(16)
N1A N -1.2393(4) -0.4294(2) -0.22172(18)
C1A C -1.4964(6) -1.0143(3) -0.2312(3)
H5A H -1.4366 -1.0482 -0.2097
C2A C -1.4555(6) -0.9148(3) -0.2059(3)
H6A H -1.3669 -0.8826 -0.1686
C3A C -1.5485(6) -0.8627(3) -0.2370(3)
C4A C -1.6776(6) -0.9161(3) -0.2921(3)
H7A H -1.7436 -0.8843 -0.3135
C5A C -1.7112(6) -1.0150(3) -0.3161(3)
H8A H -1.7981 -1.0494 -0.3536
C6A C -1.5040(7) -0.7546(3) -0.2147(3)
H9A H -1.6141 -0.7271 -0.2136
H10A H -1.4438 -0.7267 -0.1666
C7A C -1.3834(8) -0.7312(3) -0.2678(3)
H11A H -1.2735 -0.7585 -0.2680
H12A H -1.4433 -0.7617 -0.3159
C8A C -1.3344(6) -0.6234(3) -0.2510(3)
C9A C -1.2312(7) -0.5639(3) -0.1893(3)
H13A H -1.1916 -0.5895 -0.1568
C10A C -1.1863(5) -0.4677(3) -0.1751(2)
H14A H -1.1182 -0.4282 -0.1328
C11A C -1.3418(5) -0.4849(3) -0.2827(2)
H15A H -1.3785 -0.4578 -0.3146
C12A C -1.3917(6) -0.5816(3) -0.2973(2)
H16A H -1.4648 -0.6194 -0.3387
N2A N -1.6187(4) -1.0623(2) -0.2854(2)
O4A O -1.6533(4) -1.15874(19) -0.31190(18)
O5A O -1.2137(3) -0.13916(18) -0.16670(14)
N3A N -1.0601(4) -0.0972(2) -0.12506(16)
C13A C -0.9679(6) -0.0160(3) -0.1281(2)
H17A H -1.0114 0.0118 -0.1585
C14A C -0.8101(6) 0.0258(3) -0.0867(2)
H18A H -0.7480 0.0822 -0.0890
C15A C -0.7411(5) -0.0141(3) -0.0414(2)
C16A C -0.8405(6) -0.0975(3) -0.0397(2)
H19A H -0.7996 -0.1264 -0.0096
C17A C -0.9999(5) -0.1386(3) -0.0821(2)
H20A H -1.0648 -0.1949 -0.0807
C18A C -0.5695(6) 0.0321(3) 0.0052(3)
H21A H -0.5976 0.0542 0.0555
H22A H -0.5196 0.0884 -0.0048
O6A O 0.8900(4) -0.13254(19) 0.69854(16)
O6A_2 O -1.1100(4) -0.13254(19) -0.30146(16)
N4A N 0.8063(4) -0.1078(2) 0.65077(18)
C19A C 0.6958(5) -0.1729(3) 0.5962(2)
H23A H 0.6716 -0.2366 0.5930
C20A C 0.6194(7) -0.1463(4) 0.5458(2)
H24A H 0.5419 -0.1922 0.5088
C21A C 0.6535(8) -0.0529(4) 0.5481(3)
C22A C 0.7618(7) 0.0125(4) 0.6061(3)
H25A H 0.7844 0.0768 0.6107
C23A C 0.8374(6) -0.0147(3) 0.6571(3)
H26A H 0.9099 0.0309 0.6960
C24A C 0.5767(9) -0.0239(5) 0.4894(3)
H27A H 0.5428 -0.0812 0.4461
H28A H 0.6691 0.0186 0.4776
O7A O -1.1662(3) 0.64595(18) 0.63292(13)
O7A_2 O -1.1662(3) -0.35405(18) -0.36708(13)
N5A N -1.0104(4) 0.6234(2) 0.60403(15)
C25A C -0.9467(5) 0.6584(3) 0.5549(3)
H29A H -1.0085 0.7002 0.5423
C26A C -0.7919(6) 0.6334(3) 0.5232(3)
H30A H -0.7504 0.6586 0.4891
C27A C -0.6960(5) 0.5725(2) 0.53989(19)
C28A C -0.7654(6) 0.5380(3) 0.5897(2)
H31A H -0.7056 0.4961 0.6029
C29A C -0.9227(5) 0.5637(3) 0.6210(2)
H32A H -0.9674 0.5385 0.6546
C30A C -0.5213(5) 0.5484(3) 0.5062(3)
H33A H -0.4239 0.5954 0.5370
H34A H -0.5235 0.5565 0.4601
N6 N 0.6615(4) 0.3856(2) 0.17360(18)
O8 O 0.6931(3) 0.3617(2) 0.23017(15)
C31 C 0.7331(5) 0.4726(3) 0.1749(2)
H35 H 0.8036 0.5158 0.2154
C32 C 0.7035(6) 0.4986(3) 0.1171(3)
H36 H 0.7542 0.5594 0.1188
C33 C 0.5999(6) 0.4361(3) 0.0564(2)
C34 C 0.5256(7) 0.3490(3) 0.0581(2)
H37 H 0.4524 0.3055 0.0185
C35 C 0.5559(6) 0.3239(3) 0.1165(2)
H38 H 0.5032 0.2643 0.1163
C36 C 0.5695(7) 0.4657(4) -0.0071(2)
H39 H 0.5288 0.4085 -0.0497
H40 H 0.6825 0.4970 -0.0165
N6A N 0.3385(4) 0.6144(2) -0.17360(18)
O8A O 0.3069(3) 0.6383(2) -0.23017(15)
C31A C 0.2669(5) 0.5274(3) -0.1749(2)
H35A H 0.1964 0.4842 -0.2154
C32A C 0.2965(6) 0.5014(3) -0.1171(3)
H36A H 0.2458 0.4406 -0.1188
C33A C 0.4001(6) 0.5639(3) -0.0564(2)
C34A C 0.4744(7) 0.6510(3) -0.0581(2)
H37A H 0.5476 0.6945 -0.0185
C35A C 0.4441(6) 0.6761(3) -0.1165(2)
H38A H 0.4968 0.7357 -0.1163
C36A C 0.4305(7) 0.5343(4) 0.0071(2)
H39A H 0.4712 0.5915 0.0497
H40A H 0.3175 0.5030 0.0165
Cl1 Cl 0.9966(2) 0.72621(13) 0.06853(12)
O9 O 1.1713(16) 0.7696(10) 0.0637(9)
O10 O 0.879(3) 0.7319(13) 0.0213(12)
O11 O 0.964(2) 0.7755(14) 0.1393(7)
O12 O 1.020(2) 0.6329(9) 0.0587(11)
Cl2 Cl 0.9230(2) 0.72755(12) 0.38500(10)
O17 O 1.0930(16) 0.7459(12) 0.4158(9)
O18 O 0.8032(15) 0.6865(9) 0.4207(7)
O19 O 0.918(3) 0.6655(14) 0.3133(7)
O20 O 0.867(2) 0.8123(9) 0.3870(9)
O13? O 0.8250(14) 0.7382(9) 0.0896(8)
O14? O 0.9806(19) 0.6995(12) -0.0085(5)
O15? O 1.107(2) 0.8123(8) 0.0949(8)
O16? O 1.059(2) 0.6593(11) 0.0859(10)
O21? O 0.920(2) 0.7687(11) 0.3331(7)
O22? O 1.043(2) 0.7837(10) 0.4403(8)
O23? O 0.7580(17) 0.7142(13) 0.4090(10)
O24? O 0.9736(15) 0.6355(6) 0.3478(6)
loop_
_geom_bond_atom_site_label_1
_geom_bond_atom_site_label_2
_geom_bond_site_symmetry_1
_geom_bond_site_symmetry_2
Co1 O1 1_555 1_555
O1 H1 1_555 1_555
H2 O1 1_555 1_555
O2 Co1 1_555 1_555
H3 O2 1_555 1_555
H4 O2 1_555 1_555
O3 Co1 1_555 1_555
N1 O3 1_555 1_555
C1 H5 1_555 1_555
C2 C1 1_555 1_555
H6 C2 1_555 1_555
C3 C2 1_555 1_555
C4 C3 1_555 1_555
H7 C4 1_555 1_555
C5 C4 1_555 1_555
H8 C5 1_555 1_555
C6 C3 1_555 1_555
H9 C6 1_555 1_555
H10 C6 1_555 1_555
C7 C6 1_555 1_555
H11 C7 1_555 1_555
H12 C7 1_555 1_555
C8 C7 1_555 1_555
C9 C8 1_555 1_555
H13 C9 1_555 1_555
C10 N1 1_555 1_555
H14 C10 1_555 1_555
C11 N1 1_555 1_555
H15 C11 1_555 1_555
C12 C8 1_555 1_555
H16 C12 1_555 1_555
N2 C1 1_555 1_555
O4 N2 1_555 1_555
O5 Co1 1_555 1_555
N3 O5 1_555 1_555
C13 N3 1_555 1_555
H17 C13 1_555 1_555
C14 C13 1_555 1_555
H18 C14 1_555 1_555
C15 C14 1_555 1_555
C16 C15 1_555 1_555
H19 C16 1_555 1_555
C17 N3 1_555 1_555
H20 C17 1_555 1_555
C18 C15 1_555 1_555
H21 C18 1_555 1_555
H22 C18 1_555 1_555
O6 Co1 1_555 1_555
N4 O6 1_555 1_555
C19 N4 1_555 1_555
H23 C19 1_555 1_555
C20 C19 1_555 1_555
H24 C20 1_555 1_555
C21 C20 1_555 1_555
C22 C21 1_555 1_555
H25 C22 1_555 1_555
C23 N4 1_555 1_555
H26 C23 1_555 1_555
C24 C21 1_555 1_555
H27 C24 1_555 1_555
H28 C24 1_555 1_555
O7 Co1 1_555 1_555
N5 O7 1_555 1_555
C25 N5 1_555 1_555
H29 C25 1_555 1_555
C26 C25 1_555 1_555
H30 C26 1_555 1_555
C27 C26 1_555 1_555
C28 C27 1_555 1_555
H31 C28 1_555 1_555
C29 N5 1_555 1_555
H32 C29 1_555 1_555
C30 C27 1_555 1_555
H33 C30 1_555 1_555
H34 C30 1_555 1_555
N6 O8 1_555 1_555
C31 N6 1_555 1_555
H35 C31 1_555 1_555
C32 C31 1_555 1_555
H36 C32 1_555 1_555
C33 C32 1_555 1_555
C34 C33 1_555 1_555
H37 C34 1_555 1_555
C35 N6 1_555 1_555
H38 C35 1_555 1_555
C36 C33 1_555 1_555
H39 C36 1_555 1_555
H40 C36 1_555 1_555
Cl1 O9 1_555 1_555
O10 Cl1 1_555 1_555
O11 Cl1 1_555 1_555
O12 Cl1 1_555 1_555
Cl2 O17 1_555 1_555
O18 Cl2 1_555 1_555
O19 Cl2 1_555 1_555
O20 Cl2 1_555 1_555
Co1A O1A 1_555 1_555
Co1A_2 O6A 1_555 1_555
Co1A_3 O7A 1_555 1_555
O1A H1A 1_555 1_555
H2A O1A 1_555 1_555
O2A Co1A 1_555 1_555
H3A O2A 1_555 1_555
H4A O2A 1_555 1_555
O3A Co1A 1_555 1_555
N1A O3A 1_555 1_555
C1A H5A 1_555 1_555
C2A C1A 1_555 1_555
H6A C2A 1_555 1_555
C3A C2A 1_555 1_555
C4A C3A 1_555 1_555
H7A C4A 1_555 1_555
C5A C4A 1_555 1_555
H8A C5A 1_555 1_555
C6A C3A 1_555 1_555
H9A C6A 1_555 1_555
H10A C6A 1_555 1_555
C7A C6A 1_555 1_555
H11A C7A 1_555 1_555
H12A C7A 1_555 1_555
C8A C7A 1_555 1_555
C9A C8A 1_555 1_555
H13A C9A 1_555 1_555
C10A N1A 1_555 1_555
H14A C10A 1_555 1_555
C11A N1A 1_555 1_555
H15A C11A 1_555 1_555
C12A C8A 1_555 1_555
H16A C12A 1_555 1_555
N2A C1A 1_555 1_555
O4A N2A 1_555 1_555
O5A Co1A 1_555 1_555
N3A O5A 1_555 1_555
C13A N3A 1_555 1_555
H17A C13A 1_555 1_555
C14A C13A 1_555 1_555
H18A C14A 1_555 1_555
C15A C14A 1_555 1_555
C16A C15A 1_555 1_555
H19A C16A 1_555 1_555
C17A N3A 1_555 1_555
H20A C17A 1_555 1_555
C18A C18 1_555 1_555
H21A C18A 1_555 1_555
H22A C18A 1_555 1_555
O6A N4A 1_555 1_555
O6A_2 Co1A 1_555 1_555
N4A C19A 1_555 1_555
C19A H23A 1_555 1_555
C20A C19A 1_555 1_555
H24A C20A 1_555 1_555
C21A C20A 1_555 1_555
C22A C21A 1_555 1_555
H25A C22A 1_555 1_555
C23A N4A 1_555 1_555
H26A C23A 1_555 1_555
C24A C24 1_555 1_555
H27A C24A 1_555 1_555
H28A C24A 1_555 1_555
O7A N5A 1_555 1_555
O7A_2 Co1A 1_555 1_555
N5A C25A 1_555 1_555
C25A H29A 1_555 1_555
C26A C25A 1_555 1_555
H30A C26A 1_555 1_555
C27A C26A 1_555 1_555
C28A C27A 1_555 1_555
H31A C28A 1_555 1_555
C29A N5A 1_555 1_555
H32A C29A 1_555 1_555
C30A C30 1_555 1_555
H33A C30A 1_555 1_555
H34A C30A 1_555 1_555
N6A O8A 1_555 1_555
C31A N6A 1_555 1_555
H35A C31A 1_555 1_555
C32A C31A 1_555 1_555
H36A C32A 1_555 1_555
C33A C32A 1_555 1_555
C34A C33A 1_555 1_555
H37A C34A 1_555 1_555
C35A N6A 1_555 1_555
H38A C35A 1_555 1_555
C36A C36 1_555 1_555
H39A C36A 1_555 1_555
H40A C36A 1_555 1_555
C5 N2 1_555 1_555
C9 C10 1_555 1_555
C11 C12 1_555 1_555
C16 C17 1_555 1_555
C22 C23 1_555 1_555
C28 C29 1_555 1_555
C34 C35 1_555 1_555
C5A N2A 1_555 1_555
C9A C10A 1_555 1_555
C11A C12A 1_555 1_555
C15A C18A 1_555 1_555
C16A C17A 1_555 1_555
C21A C24A 1_555 1_555
C22A C23A 1_555 1_555
C27A C30A 1_555 1_555
C28A C29A 1_555 1_555
C33A C36A 1_555 1_555
C34A C35A 1_555 1_555

#END
