
#######################################################################
#
#                 Cambridge Crystallographic Data Centre
#                                CCDC 
#
#######################################################################
#
# If this CIF has been generated from an entry in the Cambridge 
# Structural Database, then it will include bibliographic, chemical, 
# crystal, experimental, refinement or atomic coordinate data resulting 
# from the CCDC's data processing and validation procedures.
#
#######################################################################

data_QAQTOT
_symmetry_cell_setting           monoclinic
_symmetry_space_group_name_H-M   'C 2/c'
_symmetry_Int_Tables_number      15
_space_group_name_Hall           '-C 2yn'
loop_
_symmetry_equiv_pos_site_id
_symmetry_equiv_pos_as_xyz
1 x,y,z
2 -x,y,1/2-z
3 1/2+x,1/2+y,z
4 1/2-x,1/2+y,1/2-z
5 -x,-y,-z
6 x,-y,1/2+z
7 1/2-x,1/2-y,-z
8 1/2+x,1/2-y,1/2+z
_cell_length_a                   22.6810(8)
_cell_length_b                   22.6170(6)
_cell_length_c                   17.2920(7)
_cell_angle_alpha                90
_cell_angle_beta                 117.757(5)
_cell_angle_gamma                90
_cell_volume                     7849.68
loop_
_atom_site_label
_atom_site_type_symbol
_atom_site_fract_x
_atom_site_fract_y
_atom_site_fract_z
Fe1 Fe 0.5000 0.09408(4) 0.7500
Fe2 Fe 1.0000 0.09377(4) 0.7500
S1 S 0.39775(6) 0.08607(6) 0.44110(8)
S2 S 0.93126(6) 0.10472(6) 0.43987(8)
N1 N 0.58664(15) 0.09363(14) 0.7458(2)
N2 N 0.5000 0.1824(2) 0.7500
N3 N 0.5000 0.0062(2) 0.7500
N4 N 0.45217(16) 0.09363(15) 0.6225(2)
N5 N 0.89864(15) 0.09057(15) 0.7446(2)
N6 N 0.5000 0.4957(2) 0.7500
N7 N 0.95488(17) 0.09862(15) 0.6135(2)
N8 N 0.5000 -0.3071(2) 0.7500
C1 C 0.5946(2) 0.06399(19) 0.6833(3)
H1 H 0.5583 0.0438 0.6407
C2 C 0.6536(2) 0.06224(19) 0.6798(3)
H2 H 0.6567 0.0410 0.6358
C3 C 0.70896(18) 0.09221(18) 0.7421(3)
C4 C 0.7013(2) 0.12278(18) 0.8054(3)
H3 H 0.7371 0.1433 0.8483
C5 C 0.6401(2) 0.12298(17) 0.8053(3)
H4 H 0.6359 0.1444 0.8484
C6 C 0.77477(19) 0.09062(19) 0.7422(3)
C7 C 0.7813(2) 0.1058(2) 0.6694(3)
H5 H 0.7439 0.1161 0.6179
C8 C 0.8431(2) 0.10572(19) 0.6728(3)
H6 H 0.8464 0.1167 0.6232
C9 C 0.8921(2) 0.07407(19) 0.8148(3)
H7 H 0.9299 0.0621 0.8649
C10 C 0.8317(2) 0.0742(2) 0.8155(3)
H8 H 0.8294 0.0632 0.8659
C11 C 0.5542(2) -0.02480(18) 0.8044(3)
H9 H 0.5923 -0.0043 0.8425
C12 C 0.5557(2) -0.08578(19) 0.8057(3)
H10 H 0.5944 -0.1054 0.8443
C13 C 0.5000 -0.1182(3) 0.7500
C14 C 0.5000 -0.1832(3) 0.7500
C15 C 0.5449(2) -0.21468(19) 0.7337(3)
H11 H 0.5766 -0.1950 0.7234
C16 C 0.5429(2) -0.27591(19) 0.7328(3)
H12 H 0.5727 -0.2964 0.7197
C17 C 0.48811(19) 0.21330(18) 0.8073(3)
H13 H 0.4797 0.1927 0.8476
C18 C 0.4878(2) 0.27433(18) 0.8094(3)
H14 H 0.4794 0.2940 0.8505
C19 C 0.5000 0.3060(2) 0.7500
C20 C 0.5000 0.3715(3) 0.7500
C21 C 0.5262(2) 0.40346(19) 0.8277(3)
H15 H 0.5440 0.3839 0.8811
C22 C 0.5257(2) 0.46461(19) 0.8249(3)
H16 H 0.5441 0.4852 0.8775
C23 C 0.42913(19) 0.09035(19) 0.5480(3)
C24 C 0.9445(2) 0.10168(18) 0.5411(3)
Fe2_2 Fe 0.0000 0.09377(4) 0.7500
Fe2B Fe 0.5000 -0.40623(4) 0.7500
Fe2B_2 Fe 0.5000 0.59377(4) 0.7500
S1A S 0.60225(6) 0.08607(6) 1.05890(8)
S2A S 1.06874(6) 0.10472(6) 1.06013(8)
N1A N 0.41336(15) 0.09363(14) 0.7542(2)
N4A N 0.54783(16) 0.09363(15) 0.8775(2)
N5A N 0.10136(15) 0.09057(15) 0.7554(2)
N5A_2 N 1.10136(15) 0.09057(15) 0.7554(2)
N6B N 1.0000 -0.0043(2) 0.7500
N7A N 1.04512(17) 0.09862(15) 0.8865(2)
N8B N 1.0000 0.1929(2) 0.7500
C1A C 0.4054(2) 0.06399(19) 0.8167(3)
H1A H 0.4417 0.0438 0.8593
C2A C 0.3464(2) 0.06224(19) 0.8202(3)
H2A H 0.3433 0.0410 0.8642
C3A C 0.29104(18) 0.09221(18) 0.7579(3)
C4A C 0.2987(2) 0.12278(18) 0.6946(3)
H3A H 0.2629 0.1433 0.6517
C5A C 0.3599(2) 0.12298(17) 0.6947(3)
H4A H 0.3641 0.1444 0.6516
C6A C 0.22523(19) 0.09062(19) 0.7578(3)
C7A C 0.2187(2) 0.1058(2) 0.8306(3)
H5A H 0.2561 0.1161 0.8821
C8A C 0.1569(2) 0.10572(19) 0.8272(3)
H6A H 0.1536 0.1167 0.8768
C9A C 0.1079(2) 0.07407(19) 0.6852(3)
H7A H 0.0701 0.0621 0.6351
C10A C 0.1683(2) 0.0742(2) 0.6845(3)
H8A H 0.1706 0.0632 0.6341
C11A C 0.4458(2) -0.02480(18) 0.6956(3)
H9A H 0.4077 -0.0043 0.6575
C12A C 0.4443(2) -0.08578(19) 0.6943(3)
H10A H 0.4056 -0.1054 0.6557
C15A C 0.4551(2) -0.21468(19) 0.7663(3)
H11A H 0.4234 -0.1950 0.7766
C16A C 0.4571(2) -0.27591(19) 0.7672(3)
H12A H 0.4273 -0.2964 0.7803
C17A C 0.51189(19) 0.21330(18) 0.6927(3)
H13A H 0.5203 0.1927 0.6524
C18A C 0.5122(2) 0.27433(18) 0.6906(3)
H14A H 0.5206 0.2940 0.6495
C21A C 0.4738(2) 0.40346(19) 0.6723(3)
H15A H 0.4560 0.3839 0.6189
C22A C 0.4743(2) 0.46461(19) 0.6751(3)
H16A H 0.4559 0.4852 0.6225
C23A C 0.57087(19) 0.09035(19) 0.9520(3)
C24A C 1.0555(2) 0.10168(18) 0.9589(3)
C25 C 0.6284(2) 0.2422(2) 0.0725(3)
Cl1 Cl 0.68456(6) 0.24784(6) 0.18426(8)
Cl2 Cl 0.67015(7) 0.24228(7) 0.00898(10)
Cl3 Cl 0.57105(6) 0.30214(5) 0.04052(8)
H17 H 0.601(2) 0.211(2) 0.064(3)
C26 C 0.5955(2) 0.2347(3) 0.5249(3)
Cl4 Cl 0.63517(10) 0.23658(12) 0.46041(12)
Cl5 Cl 0.65361(7) 0.23132(6) 0.63625(8)
Cl6 Cl 0.54012(6) 0.17455(6) 0.49586(8)
H19 H 0.577(4) 0.272(3) 0.522(5)
C27 C 0.7163(2) 0.3874(2) 0.8665(3)
Cl7 Cl 0.67843(8) 0.44999(7) 0.80417(12)
Cl8 Cl 0.66975(6) 0.32452(7) 0.81356(10)
Cl9 Cl 0.72305(9) 0.39305(7) 0.97043(10)
H18 H 0.765(2) 0.382(2) 0.869(3)
C28 C 0.7402(3) 0.4092(3) 0.6201(4)
Cl10 Cl 0.79990(7) 0.41563(7) 0.72949(9)
Cl11 Cl 0.75451(13) 0.34588(8) 0.57484(12)
Cl12 Cl 0.74112(9) 0.47116(7) 0.56001(11)
H20 H 0.699(3) 0.403(3) 0.615(4)
loop_
_geom_bond_atom_site_label_1
_geom_bond_atom_site_label_2
_geom_bond_site_symmetry_1
_geom_bond_site_symmetry_2
Fe1 N1 1_555 1_555
Fe2 N5 1_555 1_555
S1 C23 1_555 1_555
S2 C24 1_555 1_555
N1 C1 1_555 1_555
N2 Fe1 1_555 1_555
N3 Fe1 1_555 1_555
N4 Fe1 1_555 1_555
N5 C8 1_555 1_555
N6 C22 1_555 1_555
N7 Fe2 1_555 1_555
N8 C16 1_555 1_555
C1 H1 1_555 1_555
C2 C1 1_555 1_555
H2 C2 1_555 1_555
C3 C2 1_555 1_555
C4 C3 1_555 1_555
H3 C4 1_555 1_555
C5 N1 1_555 1_555
H4 C5 1_555 1_555
C6 C3 1_555 1_555
C7 C6 1_555 1_555
H5 C7 1_555 1_555
C8 C7 1_555 1_555
H6 C8 1_555 1_555
C9 N5 1_555 1_555
H7 C9 1_555 1_555
C10 C6 1_555 1_555
H8 C10 1_555 1_555
C11 N3 1_555 1_555
H9 C11 1_555 1_555
C12 C11 1_555 1_555
H10 C12 1_555 1_555
C13 C12 1_555 1_555
C14 C13 1_555 1_555
C15 C14 1_555 1_555
H11 C15 1_555 1_555
C16 C15 1_555 1_555
H12 C16 1_555 1_555
C17 N2 1_555 1_555
H13 C17 1_555 1_555
C18 C17 1_555 1_555
H14 C18 1_555 1_555
C19 C18 1_555 1_555
C20 C19 1_555 1_555
C21 C20 1_555 1_555
H15 C21 1_555 1_555
C22 C21 1_555 1_555
H16 C22 1_555 1_555
C23 N4 1_555 1_555
C24 N7 1_555 1_555
C25 Cl1 1_555 1_555
C26 Cl4 1_555 1_555
C27 Cl7 1_555 1_555
C28 Cl10 1_555 1_555
Cl2 C25 1_555 1_555
Cl3 C25 1_555 1_555
Cl5 C26 1_555 1_555
Cl6 C26 1_555 1_555
Cl8 C27 1_555 1_555
Cl9 C27 1_555 1_555
Cl11 C28 1_555 1_555
Cl12 C28 1_555 1_555
H17 C25 1_555 1_555
H18 C27 1_555 1_555
H19 C26 1_555 1_555
H20 C28 1_555 1_555
Fe2_2 N5A 1_555 1_555
Fe2B N8 1_555 1_555
Fe2B_2 N6 1_555 1_555
S1A C23A 1_555 1_555
S2A C24A 1_555 1_555
N1A Fe1 1_555 1_555
N4A Fe1 1_555 1_555
N5A C8A 1_555 1_555
N5A_2 Fe2 1_555 1_555
N6B Fe2 1_555 1_555
N7A Fe2 1_555 1_555
N8B Fe2 1_555 1_555
C1A N1A 1_555 1_555
H1A C1A 1_555 1_555
C2A C1A 1_555 1_555
H2A C2A 1_555 1_555
C3A C2A 1_555 1_555
C4A C3A 1_555 1_555
H3A C4A 1_555 1_555
C5A N1A 1_555 1_555
H4A C5A 1_555 1_555
C6A C3A 1_555 1_555
C7A C6A 1_555 1_555
H5A C7A 1_555 1_555
C8A C7A 1_555 1_555
H6A C8A 1_555 1_555
C9A N5A 1_555 1_555
H7A C9A 1_555 1_555
C10A C6A 1_555 1_555
H8A C10A 1_555 1_555
C11A N3 1_555 1_555
H9A C11A 1_555 1_555
C12A C13 1_555 1_555
H10A C12A 1_555 1_555
C15A C14 1_555 1_555
H11A C15A 1_555 1_555
C16A N8 1_555 1_555
H12A C16A 1_555 1_555
C17A N2 1_555 1_555
H13A C17A 1_555 1_555
C18A C19 1_555 1_555
H14A C18A 1_555 1_555
C21A C20 1_555 1_555
H15A C21A 1_555 1_555
C22A N6 1_555 1_555
H16A C22A 1_555 1_555
C23A N4A 1_555 1_555
C24A N7A 1_555 1_555
C4 C5 1_555 1_555
C9 C10 1_555 1_555
C4A C5A 1_555 1_555
C9A C10A 1_555 1_555
C11A C12A 1_555 1_555
C15A C16A 1_555 1_555
C17A C18A 1_555 1_555
C21A C22A 1_555 1_555

#END
