
#######################################################################
#
#                 Cambridge Crystallographic Data Centre
#                                CCDC 
#
#######################################################################
#
# If this CIF has been generated from an entry in the Cambridge 
# Structural Database, then it will include bibliographic, chemical, 
# crystal, experimental, refinement or atomic coordinate data resulting 
# from the CCDC's data processing and validation procedures.
#
#######################################################################

data_QAQTEJ01
_symmetry_cell_setting           monoclinic
_symmetry_space_group_name_H-M   'C 2/c'
_symmetry_Int_Tables_number      15
_space_group_name_Hall           '-C 2yn'
loop_
_symmetry_equiv_pos_site_id
_symmetry_equiv_pos_as_xyz
1 x,y,z
2 -x,y,1/2-z
3 1/2+x,1/2+y,z
4 1/2-x,1/2+y,1/2-z
5 -x,-y,-z
6 x,-y,1/2+z
7 1/2-x,1/2-y,-z
8 1/2+x,1/2-y,1/2+z
_cell_length_a                   22.6930(19)
_cell_length_b                   22.608(2)
_cell_length_c                   17.2911(16)
_cell_angle_alpha                90
_cell_angle_beta                 116.933(2)
_cell_angle_gamma                90
_cell_volume                     7908.9
loop_
_atom_site_label
_atom_site_type_symbol
_atom_site_fract_x
_atom_site_fract_y
_atom_site_fract_z
Fe1 Fe 0.5000 0.09312(6) 0.7500
Fe2 Fe 1.0000 0.09258(6) 0.7500
Se1 Se 0.40333(4) 0.08663(3) 0.43374(4)
Se2 Se 0.92540(4) 0.09666(3) 0.42847(4)
N1 N 0.5869(2) 0.0931(2) 0.7462(3)
N2 N 0.5000 0.1808(3) 0.7500
N3 N 0.5000 0.0053(3) 0.7500
N4 N 0.4551(2) 0.0931(2) 0.6243(3)
N5 N 0.8994(3) 0.0895(2) 0.7452(3)
N6 N 0.5000 0.4949(3) 0.7500
N7 N 0.9566(2) 0.0963(2) 0.6138(3)
N8 N 0.5000 -0.3087(3) 0.7500
C1 C 0.5963(3) 0.0629(3) 0.6856(4)
H1 H 0.5601 0.0411 0.6438
C2 C 0.6553(3) 0.0615(3) 0.6803(4)
H2 H 0.6587 0.0407 0.6347
C3 C 0.7099(3) 0.0914(3) 0.7439(4)
C4 C 0.7008(3) 0.1225(3) 0.8063(4)
H3 H 0.7365 0.1440 0.8496
C5 C 0.6394(3) 0.1222(3) 0.8055(4)
H4 H 0.6342 0.1438 0.8492
C6 C 0.7752(3) 0.0903(3) 0.7431(4)
C7 C 0.7823(3) 0.1072(3) 0.6706(4)
H5 H 0.7448 0.1187 0.6189
C8 C 0.8447(3) 0.1071(3) 0.6744(4)
H6 H 0.8491 0.1199 0.6250
C9 C 0.8916(3) 0.0713(3) 0.8135(4)
H7 H 0.9293 0.0573 0.8631
C10 C 0.8314(3) 0.0719(3) 0.8152(4)
H8 H 0.8286 0.0597 0.8659
C11 C 0.5536(3) -0.0262(3) 0.8063(4)
H9 H 0.5914 -0.0054 0.8468
C12 C 0.5547(3) -0.0873(3) 0.8064(4)
H10 H 0.5934 -0.1077 0.8455
C13 C 0.5000 -0.1189(4) 0.7500
C14 C 0.5000 -0.1841(4) 0.7500
C15 C 0.5443(3) -0.2162(3) 0.7306(4)
H11 H 0.5759 -0.1963 0.7181
C16 C 0.5414(3) -0.2771(3) 0.7298(4)
H12 H 0.5705 -0.2981 0.7140
C17 C 0.4867(3) 0.2127(3) 0.8065(4)
H13 H 0.4768 0.1916 0.8467
C18 C 0.4866(3) 0.2732(3) 0.8100(4)
H14 H 0.4776 0.2932 0.8519
C19 C 0.5000 0.3048(4) 0.7500
C20 C 0.5000 0.3706(4) 0.7500
C21 C 0.5304(3) 0.4028(3) 0.8270(4)
H15 H 0.5514 0.3830 0.8813
C22 C 0.5295(3) 0.4635(3) 0.8232(4)
H16 H 0.5513 0.4846 0.8763
C23 C 0.4343(3) 0.0901(3) 0.5507(4)
C24 C 0.9441(3) 0.0969(3) 0.5408(4)
Fe2_2 Fe 0.0000 0.09258(6) 0.7500
Fe2B Fe 0.5000 -0.40742(6) 0.7500
Fe2B_2 Fe 0.5000 0.59258(6) 0.7500
Se1A Se 0.59667(4) 0.08663(3) 1.06626(4)
Se2A Se 1.07460(4) 0.09666(3) 1.07153(4)
N1A N 0.4131(2) 0.0931(2) 0.7538(3)
N4A N 0.5449(2) 0.0931(2) 0.8757(3)
N5A N 0.1006(3) 0.0895(2) 0.7548(3)
N5A_2 N 1.1006(3) 0.0895(2) 0.7548(3)
N6B N 1.0000 -0.0051(3) 0.7500
N7A N 1.0434(2) 0.0963(2) 0.8862(3)
N8B N 1.0000 0.1913(3) 0.7500
C1A C 0.4037(3) 0.0629(3) 0.8144(4)
H1A H 0.4399 0.0411 0.8562
C2A C 0.3447(3) 0.0615(3) 0.8197(4)
H2A H 0.3413 0.0407 0.8653
C3A C 0.2901(3) 0.0914(3) 0.7561(4)
C4A C 0.2992(3) 0.1225(3) 0.6937(4)
H3A H 0.2635 0.1440 0.6504
C5A C 0.3606(3) 0.1222(3) 0.6945(4)
H4A H 0.3658 0.1438 0.6508
C6A C 0.2248(3) 0.0903(3) 0.7569(4)
C7A C 0.2177(3) 0.1072(3) 0.8294(4)
H5A H 0.2552 0.1187 0.8811
C8A C 0.1553(3) 0.1071(3) 0.8256(4)
H6A H 0.1509 0.1199 0.8750
C9A C 0.1084(3) 0.0713(3) 0.6865(4)
H7A H 0.0707 0.0573 0.6369
C10A C 0.1686(3) 0.0719(3) 0.6848(4)
H8A H 0.1714 0.0597 0.6341
C11A C 0.4464(3) -0.0262(3) 0.6937(4)
H9A H 0.4086 -0.0054 0.6532
C12A C 0.4453(3) -0.0873(3) 0.6936(4)
H10A H 0.4066 -0.1077 0.6545
C15A C 0.4557(3) -0.2162(3) 0.7694(4)
H11A H 0.4241 -0.1963 0.7819
C16A C 0.4586(3) -0.2771(3) 0.7702(4)
H12A H 0.4295 -0.2981 0.7860
C17A C 0.5133(3) 0.2127(3) 0.6935(4)
H13A H 0.5232 0.1916 0.6533
C18A C 0.5134(3) 0.2732(3) 0.6900(4)
H14A H 0.5224 0.2932 0.6481
C21A C 0.4696(3) 0.4028(3) 0.6730(4)
H15A H 0.4486 0.3830 0.6187
C22A C 0.4705(3) 0.4635(3) 0.6768(4)
H16A H 0.4487 0.4846 0.6237
C23A C 0.5657(3) 0.0901(3) 0.9493(4)
C24A C 1.0559(3) 0.0969(3) 0.9592(4)
C25 C 0.6247(3) 0.2459(3) 0.0678(4)
H17 H 0.5981 0.2090 0.0580
Cl1 Cl 0.68197(8) 0.25057(9) 0.17975(12)
Cl2 Cl 0.66755(10) 0.24260(10) 0.00486(13)
Cl3 Cl 0.57085(9) 0.30697(8) 0.03745(12)
C26 C 0.5970(3) 0.2430(3) 0.5314(4)
H18 H 0.5704 0.2779 0.5326
Cl4 Cl 0.62661(10) 0.25717(9) 0.45481(12)
Cl5 Cl 0.66269(10) 0.23385(9) 0.63575(12)
Cl6 Cl 0.54512(9) 0.18081(8) 0.50012(12)
C27 C 0.7191(4) 0.3866(3) 0.8698(5)
H19 H 0.7644 0.3817 0.8745
Cl7 Cl 0.68403(12) 0.45072(10) 0.80975(15)
Cl8 Cl 0.67148(9) 0.32457(9) 0.81552(13)
Cl9 Cl 0.72607(12) 0.39178(10) 0.97426(13)
C28 C 0.7463(4) 0.4036(4) 0.6090(5)
H20 H 0.7000 0.3948 0.5980
Cl10 Cl 0.79548(10) 0.41076(12) 0.72132(13)
Cl11 Cl 0.77484(10) 0.34434(9) 0.56872(14)
Cl12 Cl 0.74585(13) 0.46887(11) 0.55502(16)
loop_
_geom_bond_atom_site_label_1
_geom_bond_atom_site_label_2
_geom_bond_site_symmetry_1
_geom_bond_site_symmetry_2
Fe1 N1 1_555 1_555
Fe2 N5 1_555 1_555
Se1 C23 1_555 1_555
Se2 C24 1_555 1_555
N1 C1 1_555 1_555
N2 Fe1 1_555 1_555
N3 Fe1 1_555 1_555
N4 Fe1 1_555 1_555
N5 C8 1_555 1_555
N6 C22 1_555 1_555
N7 Fe2 1_555 1_555
N8 C16 1_555 1_555
C1 H1 1_555 1_555
C2 C1 1_555 1_555
H2 C2 1_555 1_555
C3 C2 1_555 1_555
C4 C3 1_555 1_555
H3 C4 1_555 1_555
C5 N1 1_555 1_555
H4 C5 1_555 1_555
C6 C3 1_555 1_555
C7 C6 1_555 1_555
H5 C7 1_555 1_555
C8 C7 1_555 1_555
H6 C8 1_555 1_555
C9 N5 1_555 1_555
H7 C9 1_555 1_555
C10 C6 1_555 1_555
H8 C10 1_555 1_555
C11 N3 1_555 1_555
H9 C11 1_555 1_555
C12 C11 1_555 1_555
H10 C12 1_555 1_555
C13 C12 1_555 1_555
C14 C13 1_555 1_555
C15 C14 1_555 1_555
H11 C15 1_555 1_555
C16 C15 1_555 1_555
H12 C16 1_555 1_555
C17 N2 1_555 1_555
H13 C17 1_555 1_555
C18 C17 1_555 1_555
H14 C18 1_555 1_555
C19 C18 1_555 1_555
C20 C19 1_555 1_555
C21 C20 1_555 1_555
H15 C21 1_555 1_555
C22 C21 1_555 1_555
H16 C22 1_555 1_555
C23 N4 1_555 1_555
C24 N7 1_555 1_555
C25 H17 1_555 1_555
C26 H18 1_555 1_555
C27 H19 1_555 1_555
C28 H20 1_555 1_555
Cl1 C25 1_555 1_555
Cl2 C25 1_555 1_555
Cl3 C25 1_555 1_555
Cl4 C26 1_555 1_555
Cl5 C26 1_555 1_555
Cl6 C26 1_555 1_555
Cl7 C27 1_555 1_555
Cl8 C27 1_555 1_555
Cl9 C27 1_555 1_555
Cl10 C28 1_555 1_555
Cl11 C28 1_555 1_555
Cl12 C28 1_555 1_555
Fe2_2 N5A 1_555 1_555
Fe2B N8 1_555 1_555
Fe2B_2 N6 1_555 1_555
Se1A C23A 1_555 1_555
Se2A C24A 1_555 1_555
N1A Fe1 1_555 1_555
N4A Fe1 1_555 1_555
N5A C8A 1_555 1_555
N5A_2 Fe2 1_555 1_555
N6B Fe2 1_555 1_555
N7A Fe2 1_555 1_555
N8B Fe2 1_555 1_555
C1A N1A 1_555 1_555
H1A C1A 1_555 1_555
C2A C1A 1_555 1_555
H2A C2A 1_555 1_555
C3A C2A 1_555 1_555
C4A C3A 1_555 1_555
H3A C4A 1_555 1_555
C5A N1A 1_555 1_555
H4A C5A 1_555 1_555
C6A C3A 1_555 1_555
C7A C6A 1_555 1_555
H5A C7A 1_555 1_555
C8A C7A 1_555 1_555
H6A C8A 1_555 1_555
C9A N5A 1_555 1_555
H7A C9A 1_555 1_555
C10A C6A 1_555 1_555
H8A C10A 1_555 1_555
C11A N3 1_555 1_555
H9A C11A 1_555 1_555
C12A C13 1_555 1_555
H10A C12A 1_555 1_555
C15A C14 1_555 1_555
H11A C15A 1_555 1_555
C16A N8 1_555 1_555
H12A C16A 1_555 1_555
C17A N2 1_555 1_555
H13A C17A 1_555 1_555
C18A C19 1_555 1_555
H14A C18A 1_555 1_555
C21A C20 1_555 1_555
H15A C21A 1_555 1_555
C22A N6 1_555 1_555
H16A C22A 1_555 1_555
C23A N4A 1_555 1_555
C24A N7A 1_555 1_555
C4 C5 1_555 1_555
C9 C10 1_555 1_555
C4A C5A 1_555 1_555
C9A C10A 1_555 1_555
C11A C12A 1_555 1_555
C15A C16A 1_555 1_555
C17A C18A 1_555 1_555
C21A C22A 1_555 1_555

#END
