
#######################################################################
#
#                 Cambridge Crystallographic Data Centre
#                                CCDC 
#
#######################################################################
#
# If this CIF has been generated from an entry in the Cambridge 
# Structural Database, then it will include bibliographic, chemical, 
# crystal, experimental, refinement or atomic coordinate data resulting 
# from the CCDC's data processing and validation procedures.
#
#######################################################################

data_QARKUQ
_symmetry_cell_setting           monoclinic
_symmetry_space_group_name_H-M   'P 21/c'
_symmetry_Int_Tables_number      14
_space_group_name_Hall           '-P 2ybc'
loop_
_symmetry_equiv_pos_site_id
_symmetry_equiv_pos_as_xyz
1 x,y,z
2 -x,1/2+y,1/2-z
3 -x,-y,-z
4 x,1/2-y,1/2+z
_cell_length_a                   16.134(3)
_cell_length_b                   6.3060(13)
_cell_length_c                   25.360(5)
_cell_angle_alpha                90
_cell_angle_beta                 108.06(3)
_cell_angle_gamma                90
_cell_volume                     2453.03
loop_
_atom_site_label
_atom_site_type_symbol
_atom_site_fract_x
_atom_site_fract_y
_atom_site_fract_z
Ca1 Ca 0.307431(19) 0.92357(6) 0.393188(14)
Ca2 Ca -0.212331(19) 0.93794(5) 0.345537(14)
O1 O 0.08106(7) 0.9144(2) 0.23293(5)
O2 O -0.16298(7) 0.8893(2) 0.26509(5)
O3 O -0.07329(7) 0.9215(2) 0.21597(5)
O4 O -0.13205(9) 0.5899(2) 0.35770(6)
N1 N 0.12915(8) 1.0136(2) 0.37592(6)
O5 O -0.19566(10) 1.2443(2) 0.40189(7)
C1 C -0.08933(9) 0.9227(2) 0.26248(6)
N2 N -0.04966(8) 1.0266(2) 0.35674(5)
O6 O 0.19961(7) 0.8663(2) 0.30322(5)
O7 O 0.28332(11) 1.2527(3) 0.34344(7)
N3 N 0.46745(9) 0.9682(2) 0.37118(6)
C2 C 0.12174(9) 0.9094(2) 0.28476(6)
O8 O -0.26547(10) 1.2275(2) 0.28403(6)
C3 C 0.00536(10) 1.0828(3) 0.40488(7)
N4 N 0.62877(9) 0.9722(2) 0.35462(6)
O9 O 0.36116(8) 0.6511(2) 0.34692(6)
O10 O 0.28883(8) 1.1002(3) 0.47971(7)
O11 O 0.68559(7) 0.6788(2) 0.30287(6)
C4 C 0.07314(9) 0.9658(2) 0.32542(6)
O12 O 0.24153(11) 0.6023(3) 0.41477(9)
C5 C -0.01693(9) 0.9721(2) 0.31562(6)
C6 C 0.42412(10) 0.6342(3) 0.32985(7)
O13 O 0.43428(9) 0.4748(2) 0.30261(7)
C7 C 0.61070(10) 0.6525(3) 0.30345(7)
C8 C 0.57289(9) 0.8135(3) 0.33469(6)
N6 N 0.35489(10) 1.2157(3) 0.49193(6)
C9 C 0.09501(10) 1.0752(3) 0.41435(7)
C10 C 0.52248(12) 1.1261(3) 0.38893(9)
O15 O 0.56574(9) 0.4969(3) 0.27948(8)
O16 O 0.40091(9) 1.2142(3) 0.46062(6)
C11 C 0.49179(9) 0.8097(3) 0.34427(7)
O18 O 0.41421(12) 0.7433(3) 0.47095(8)
C12 C 0.60413(12) 1.1269(3) 0.38155(8)
O20 O 0.37335(13) 1.3280(3) 0.53303(7)
O21 O -0.19675(12) 0.8019(3) 0.43741(7)
H1 H 0.1322(13) 1.114(3) 0.4480(9)
H2 H -0.0193(13) 1.135(3) 0.4338(8)
H3 H 0.5025(15) 1.242(4) 0.4080(11)
H4 H 0.6458(14) 1.242(3) 0.3977(9)
H5 H -0.083(2) 0.589(5) 0.3736(13)
H6 H -0.1738(19) 1.252(5) 0.4366(14)
H7 H -0.2488(16) 1.255(4) 0.2596(12)
H8 H 0.245(2) 1.260(5) 0.3149(14)
H9 H -0.296(2) 1.312(5) 0.2876(13)
H10 H -0.1324(18) 0.523(5) 0.3287(12)
H11 H 0.315(2) 1.337(5) 0.3476(12)
H12 H 0.005(2) 0.912(5) 0.2230(12)
H13 H -0.1858(18) 1.342(5) 0.3869(11)
H14 H 0.205(2) 0.580(5) 0.4354(13)
H15 H 0.400(2) 0.622(6) 0.4698(14)
H16 H 0.221(2) 0.533(5) 0.3898(13)
H17 H 0.4589(19) 0.753(4) 0.4835(12)
H18 H -0.228(2) 0.798(6) 0.4577(15)
H19 H -0.158(2) 0.708(6) 0.4533(14)
H20 H 0.498(3) 0.488(6) 0.2932(16)
Ca2_2 Ca 0.787669(19) 0.93794(5) 0.345537(14)
N4_2 N -0.37123(9) 0.9722(2) 0.35462(6)
O11_2 O -0.31441(7) 0.6788(2) 0.30287(6)
N5 N 0.06320(10) 0.6253(3) 0.46028(7)
O14 O 0.04328(9) 0.5615(3) 0.41172(6)
O17 O 0.00879(11) 0.7104(3) 0.47839(7)
O19 O 0.14098(10) 0.6044(3) 0.49030(6)
loop_
_geom_bond_atom_site_label_1
_geom_bond_atom_site_label_2
_geom_bond_site_symmetry_1
_geom_bond_site_symmetry_2
Ca1 N1 1_555 1_555
Ca2 O2 1_555 1_555
O1 C2 1_555 1_555
O2 C1 1_555 1_555
O3 C1 1_555 1_555
O4 Ca2 1_555 1_555
N1 C4 1_555 1_555
O5 Ca2 1_555 1_555
C1 C5 1_555 1_555
N2 Ca2 1_555 1_555
O6 Ca1 1_555 1_555
O7 Ca1 1_555 1_555
N3 Ca1 1_555 1_555
C2 O6 1_555 1_555
O8 Ca2 1_555 1_555
C3 N2 1_555 1_555
N4 C8 1_555 1_555
O9 Ca1 1_555 1_555
O10 Ca1 1_555 1_555
O11 C7 1_555 1_555
C4 C2 1_555 1_555
O12 Ca1 1_555 1_555
C5 N2 1_555 1_555
N5 O14 1_555 1_555
C6 O9 1_555 1_555
O13 C6 1_555 1_555
C7 C8 1_555 1_555
C8 C11 1_555 1_555
N6 O10 1_555 1_555
C9 N1 1_555 1_555
C10 N3 1_555 1_555
O15 C7 1_555 1_555
O16 Ca1 1_555 1_555
C11 N3 1_555 1_555
O17 N5 1_555 1_555
O18 Ca1 1_555 1_555
C12 N4 1_555 1_555
O19 N5 1_555 1_555
O20 N6 1_555 1_555
O21 Ca2 1_555 1_555
H1 C9 1_555 1_555
H2 C3 1_555 1_555
H3 C10 1_555 1_555
H4 C12 1_555 1_555
H5 O4 1_555 1_555
H6 O5 1_555 1_555
H7 O8 1_555 1_555
H8 O7 1_555 1_555
H9 O8 1_555 1_555
H10 O4 1_555 1_555
H11 O7 1_555 1_555
H12 O1 1_555 1_555
H13 O5 1_555 1_555
H14 O12 1_555 1_555
H15 O18 1_555 1_555
H16 O12 1_555 1_555
H17 O18 1_555 1_555
H18 O21 1_555 1_555
H19 O21 1_555 1_555
H20 O13 1_555 1_555
Ca2_2 N4 1_555 1_555
N4_2 Ca2 1_555 1_555
O11_2 Ca2 1_555 1_555
C3 C9 1_555 1_555
O11 Ca2_2 1_555 1_555
C4 C5 1_555 1_555
C6 C11 1_555 1_555
N6 O16 1_555 1_555
C10 C12 1_555 1_555

#END
