
#######################################################################
#
#                 Cambridge Crystallographic Data Centre
#                                CCDC 
#
#######################################################################
#
# If this CIF has been generated from an entry in the Cambridge 
# Structural Database, then it will include bibliographic, chemical, 
# crystal, experimental, refinement or atomic coordinate data resulting 
# from the CCDC's data processing and validation procedures.
#
#######################################################################

data_QARLIF
_symmetry_cell_setting           triclinic
_symmetry_space_group_name_H-M   'P -1'
_symmetry_Int_Tables_number      2
_space_group_name_Hall           '-P 1'
loop_
_symmetry_equiv_pos_site_id
_symmetry_equiv_pos_as_xyz
1 x,y,z
2 -x,-y,-z
_cell_length_a                   9.012(5)
_cell_length_b                   9.196(6)
_cell_length_c                   9.910(6)
_cell_angle_alpha                85.074(11)
_cell_angle_beta                 74.881(10)
_cell_angle_gamma                86.913(11)
_cell_volume                     789.506
loop_
_atom_site_label
_atom_site_type_symbol
_atom_site_fract_x
_atom_site_fract_y
_atom_site_fract_z
Mn1 Mn 0.0000 1.0000 1.0000
Mn2 Mn 0.0000 1.0000 1.5000
N1 N 0.4513(7) 0.7671(7) 1.2083(6)
N2 N 0.3973(6) 0.7577(6) 0.7642(6)
N3 N 0.0812(7) 0.5644(6) 1.6684(6)
O1 O 0.0990(5) 0.9008(5) 1.1644(4)
O2 O 0.1917(5) 1.0064(5) 1.3168(4)
O3 O 0.8796(5) 0.8148(5) 0.9955(5)
O4 O 0.7028(5) 0.6529(6) 1.0105(6)
O5 O 0.5330(6) 0.7597(6) 1.2882(5)
O6 O 0.3493(6) 0.6836(6) 1.2117(6)
O7 O 0.1934(5) 0.9140(5) 0.8357(4)
O8 O 0.0810(6) 0.7856(5) 1.5536(5)
O9 O -0.1496(5) 0.8963(6) 1.3940(4)
C1 C 0.3551(7) 0.9848(7) 1.0935(6)
C2 C 0.6229(6) 0.8981(7) 1.0062(6)
C3 C 0.4769(7) 0.8874(7) 1.0973(6)
C4 C 0.2009(7) 0.9628(7) 1.2029(7)
C5 C 0.7446(8) 0.7767(8) 1.0054(6)
C6 C 0.2700(8) 0.7993(8) 0.8514(7)
H1 H 0.2332 0.7385 0.9320
C7 C 0.4638(8) 0.8465(9) 0.6368(8)
H2 H 0.5565 0.7991 0.5857
H3 H 0.4872 0.9402 0.6603
H4 H 0.3919 0.8589 0.5800
C8 C 0.4778(9) 0.6221(8) 0.7889(9)
H5 H 0.5681 0.6112 0.7132
H6 H 0.4117 0.5421 0.7947
H7 H 0.5070 0.6229 0.8753
C9 C 0.0311(8) 0.6999(8) 1.6537(8)
H8 H -0.0488 0.7330 1.7255
C10 C 0.2026(9) 0.5032(9) 1.5620(8)
H9 H 0.2235 0.4035 1.5909
H10 H 0.2936 0.5583 1.5481
H11 H 0.1721 0.5069 1.4760
C11 C 0.0175(10) 0.4673(9) 1.7907(9)
H12 H 0.0698 0.3736 1.7807
H13 H -0.0900 0.4566 1.7996
H14 H 0.0307 0.5076 1.8729
H15 H -0.216(5) 0.952(3) 1.359(6)
H16 H -0.107(3) 0.835(5) 1.331(5)
Mn1_2 Mn 1.0000 1.0000 1.0000
Mn2_2 Mn 1.0000 1.0000 0.5000
N1A N 0.5487(7) 1.2329(7) 0.7917(6)
N2A N -0.3973(6) 1.2423(6) 1.2358(6)
N3A N -0.0812(7) 1.4356(6) 1.3316(6)
O1A O 0.9010(5) 1.0992(5) 0.8356(4)
O1A_2 O -0.0990(5) 1.0992(5) 0.8356(4)
O2A O 0.8083(5) 0.9936(5) 0.6832(4)
O2A_2 O -0.1917(5) 0.9936(5) 1.6832(4)
O3A O 0.1204(5) 1.1852(5) 1.0045(5)
O3_2 O -0.1204(5) 0.8148(5) 0.9955(5)
O4A O 0.2972(5) 1.3471(6) 0.9895(6)
O5A O 0.4670(6) 1.2403(6) 0.7118(5)
O6A O 0.6507(6) 1.3164(6) 0.7883(6)
O7A O -0.1934(5) 1.0860(5) 1.1643(4)
O8A O -0.0810(6) 1.2144(5) 1.4464(5)
O9A O 0.1496(5) 1.1037(6) 1.6060(4)
C1A C 0.6449(7) 1.0152(7) 0.9065(6)
C2A C 0.3771(6) 1.1019(7) 0.9938(6)
C3A C 0.5231(7) 1.1126(7) 0.9027(6)
C4A C 0.7991(7) 1.0372(7) 0.7971(7)
C5A C 0.2554(8) 1.2233(8) 0.9946(6)
C6A C -0.2700(8) 1.2007(8) 1.1486(7)
H1A H -0.2332 1.2615 1.0680
C7A C -0.4638(8) 1.1535(9) 1.3632(8)
H2A H -0.5565 1.2009 1.4143
H3A H -0.4872 1.0598 1.3397
H4A H -0.3919 1.1411 1.4200
C8A C -0.4778(9) 1.3779(8) 1.2111(9)
H5A H -0.5681 1.3888 1.2868
H6A H -0.4117 1.4579 1.2053
H7A H -0.5070 1.3771 1.1247
C9A C -0.0311(8) 1.3001(8) 1.3463(8)
H8A H 0.0488 1.2670 1.2745
C10A C -0.2026(9) 1.4968(9) 1.4380(8)
H9A H -0.2235 1.5965 1.4091
H10A H -0.2936 1.4417 1.4519
H11A H -0.1721 1.4931 1.5240
C11A C -0.0175(10) 1.5327(9) 1.2093(9)
H12A H -0.0698 1.6264 1.2193
H13A H 0.0900 1.5434 1.2004
H14A H -0.0307 1.4924 1.1271
H15A H 0.216(5) 1.048(3) 1.641(6)
H16A H 0.107(3) 1.165(5) 1.669(5)
loop_
_geom_bond_atom_site_label_1
_geom_bond_atom_site_label_2
_geom_bond_site_symmetry_1
_geom_bond_site_symmetry_2
Mn1 O1 1_555 1_555
Mn2 O2 1_555 1_555
N1 O5 1_555 1_555
N2 C6 1_555 1_555
N3 C9 1_555 1_555
O1 C4 1_555 1_555
O2 C4 1_555 1_555
O3 C5 1_555 1_555
O4 C5 1_555 1_555
O6 N1 1_555 1_555
O7 Mn1 1_555 1_555
O8 Mn2 1_555 1_555
O9 Mn2 1_555 1_555
C1 C3 1_555 1_555
C2 C3 1_555 1_555
C3 N1 1_555 1_555
C4 C1 1_555 1_555
C5 C2 1_555 1_555
C6 O7 1_555 1_555
H1 C6 1_555 1_555
C7 N2 1_555 1_555
H2 C7 1_555 1_555
H3 C7 1_555 1_555
H4 C7 1_555 1_555
C8 N2 1_555 1_555
H5 C8 1_555 1_555
H6 C8 1_555 1_555
H7 C8 1_555 1_555
C9 O8 1_555 1_555
H8 C9 1_555 1_555
C10 N3 1_555 1_555
H9 C10 1_555 1_555
H10 C10 1_555 1_555
H11 C10 1_555 1_555
C11 N3 1_555 1_555
H12 C11 1_555 1_555
H13 C11 1_555 1_555
H14 C11 1_555 1_555
H15 O9 1_555 1_555
H16 O9 1_555 1_555
Mn1_2 O3 1_555 1_555
Mn2_2 O2A 1_555 1_555
N1A O5A 1_555 1_555
N2A C6A 1_555 1_555
N3A C9A 1_555 1_555
O1A Mn1_2 1_555 1_555
O1A_2 Mn1 1_555 1_555
O2A C4A 1_555 1_555
O2A_2 Mn2 1_555 1_555
O3A Mn1 1_555 1_555
O3_2 Mn1 1_555 1_555
O4A C5A 1_555 1_555
O6A N1A 1_555 1_555
O7A Mn1 1_555 1_555
O8A Mn2 1_555 1_555
O9A Mn2 1_555 1_555
C1A C2 1_555 1_555
C2A C1 1_555 1_555
C3A N1A 1_555 1_555
C4A O1A 1_555 1_555
C5A O3A 1_555 1_555
C6A O7A 1_555 1_555
H1A C6A 1_555 1_555
C7A N2A 1_555 1_555
H2A C7A 1_555 1_555
H3A C7A 1_555 1_555
H4A C7A 1_555 1_555
C8A N2A 1_555 1_555
H5A C8A 1_555 1_555
H6A C8A 1_555 1_555
H7A C8A 1_555 1_555
C9A O8A 1_555 1_555
H8A C9A 1_555 1_555
C10A N3A 1_555 1_555
H9A C10A 1_555 1_555
H10A C10A 1_555 1_555
H11A C10A 1_555 1_555
C11A N3A 1_555 1_555
H12A C11A 1_555 1_555
H13A C11A 1_555 1_555
H14A C11A 1_555 1_555
H15A O9A 1_555 1_555
H16A O9A 1_555 1_555
C1A C3A 1_555 1_555
C1A C4A 1_555 1_555
C2A C3A 1_555 1_555
C2A C5A 1_555 1_555

#END
