
#######################################################################
#
#                 Cambridge Crystallographic Data Centre
#                                CCDC 
#
#######################################################################
#
# If this CIF has been generated from an entry in the Cambridge 
# Structural Database, then it will include bibliographic, chemical, 
# crystal, experimental, refinement or atomic coordinate data resulting 
# from the CCDC's data processing and validation procedures.
#
#######################################################################

data_QARMAY
_symmetry_cell_setting           monoclinic
_symmetry_space_group_name_H-M   'C 2/c'
_symmetry_Int_Tables_number      15
_space_group_name_Hall           '-C 2yn'
loop_
_symmetry_equiv_pos_site_id
_symmetry_equiv_pos_as_xyz
1 x,y,z
2 1/2+x,1/2+y,z
3 -x,y,1/2-z
4 1/2-x,1/2+y,1/2-z
5 -x,-y,-z
6 1/2-x,1/2-y,-z
7 x,-y,1/2+z
8 1/2+x,1/2-y,1/2+z
_cell_length_a                   14.478(3)
_cell_length_b                   8.4390(17)
_cell_length_c                   12.861(3)
_cell_angle_alpha                90.00
_cell_angle_beta                 114.66(3)
_cell_angle_gamma                90.00
_cell_volume                     1428.05
loop_
_atom_site_label
_atom_site_type_symbol
_atom_site_fract_x
_atom_site_fract_y
_atom_site_fract_z
Zn1 Zn 0.5000 1.00661(4) 0.2500
O2 O 0.58167(15) 0.5561(2) 0.66704(14)
C1 C 0.50954(13) 0.8172(2) 0.44775(15)
O3 O 0.68396(11) 0.8329(2) 0.56589(13)
N1 N 0.38813(13) 0.6826(2) 0.49476(15)
C2 C 0.48339(14) 0.7340(2) 0.52460(16)
N2 N 0.43959(12) 0.85207(19) 0.34304(14)
C3 C 0.61518(14) 0.8771(2) 0.47389(16)
C4 C 0.55547(14) 0.6976(2) 0.64738(16)
C5 C 0.34430(15) 0.8055(3) 0.31432(17)
C6 C 0.31914(15) 0.7183(3) 0.39068(18)
O4 O 0.62555(12) 0.96756(19) 0.40257(13)
O5 O 0.57923(12) 0.80525(18) 0.71902(12)
H2 H 0.250(2) 0.688(4) 0.372(3)
H3 H 0.301(2) 0.823(3) 0.244(3)
Zn1F Zn 0.5000 0.99339(4) 0.7500
Zn1F_2 Zn 0.5000 0.99339(4) -0.2500
O2B O 0.41833(15) 0.5561(2) -0.16704(14)
C1B C 0.49046(13) 0.8172(2) 0.05225(15)
O3B O 0.31604(11) 0.8329(2) -0.06589(13)
N1B N 0.61187(13) 0.6826(2) 0.00524(15)
C2B C 0.51661(14) 0.7340(2) -0.02460(16)
N2B N 0.56041(12) 0.85207(19) 0.15696(14)
C3B C 0.38482(14) 0.8771(2) 0.02611(16)
C4B C 0.44453(14) 0.6976(2) -0.14738(16)
C5B C 0.65570(15) 0.8055(3) 0.18568(17)
C6B C 0.68086(15) 0.7183(3) 0.10932(18)
O4B O 0.37445(12) 0.96756(19) 0.09743(13)
O5B O 0.42077(12) 0.80525(18) -0.21902(12)
O5F O 0.57923(12) 1.19475(18) 0.21902(12)
O5D O 0.42077(12) 1.19475(18) 0.28098(12)
H2B H 0.750(2) 0.688(4) 0.128(3)
H3B H 0.699(2) 0.823(3) 0.256(3)
O1 O 0.14508(14) -0.0395(2) 0.86864(16)
H1 H 0.215(3) -0.091(4) 0.893(3)
H4 H 0.133(3) 0.035(4) 0.909(3)
H5 H 0.149(6) 0.026(8) 0.820(6)
loop_
_geom_bond_atom_site_label_1
_geom_bond_atom_site_label_2
_geom_bond_site_symmetry_1
_geom_bond_site_symmetry_2
Zn1 N2 1_555 1_555
O1 H1 1_555 1_555
O2 C4 1_555 1_555
C1 C2 1_555 1_555
O3 C3 1_555 1_555
N1 C2 1_555 1_555
C2 C4 1_555 1_555
N2 C1 1_555 1_555
C3 C1 1_555 1_555
C4 O5 1_555 1_555
C5 N2 1_555 1_555
C6 N1 1_555 1_555
O4 Zn1 1_555 1_555
O5 Zn1F 1_555 1_555
H2 C6 1_555 1_555
H3 C5 1_555 1_555
H4 O1 1_555 1_555
H5 O1 1_555 1_555
Zn1F_2 O5B 1_555 1_555
O2B C4B 1_555 1_555
C1B C2B 1_555 1_555
O3B C3B 1_555 1_555
N1B C2B 1_555 1_555
C2B C4B 1_555 1_555
N2B Zn1 1_555 1_555
C3B C1B 1_555 1_555
C4B O5B 1_555 1_555
C5B N2B 1_555 1_555
C6B N1B 1_555 1_555
O4B Zn1 1_555 1_555
O5F Zn1 1_555 1_555
O5D Zn1 1_555 1_555
H2B C6B 1_555 1_555
H3B C5B 1_555 1_555
C3 O4 1_555 1_555
C5 C6 1_555 1_555
C1B N2B 1_555 1_555
C3B O4B 1_555 1_555
C5B C6B 1_555 1_555

#END
