
#######################################################################
#
#                 Cambridge Crystallographic Data Centre
#                                CCDC 
#
#######################################################################
#
# If this CIF has been generated from an entry in the Cambridge 
# Structural Database, then it will include bibliographic, chemical, 
# crystal, experimental, refinement or atomic coordinate data resulting 
# from the CCDC's data processing and validation procedures.
#
#######################################################################

data_QARNIG
_symmetry_cell_setting           triclinic
_symmetry_space_group_name_H-M   'P -1'
_symmetry_Int_Tables_number      2
_space_group_name_Hall           '-P 1'
loop_
_symmetry_equiv_pos_site_id
_symmetry_equiv_pos_as_xyz
1 x,y,z
2 -x,-y,-z
_cell_length_a                   6.289(2)
_cell_length_b                   8.193(3)
_cell_length_c                   16.560(6)
_cell_angle_alpha                76.04(3)
_cell_angle_beta                 86.20(4)
_cell_angle_gamma                73.13(3)
_cell_volume                     792.423
loop_
_atom_site_label
_atom_site_type_symbol
_atom_site_fract_x
_atom_site_fract_y
_atom_site_fract_z
Gd1 Gd 0.27652(9) 0.80722(7) 0.28220(3)
Ag1 Ag 0.0000(2) 1.6330(2) -0.20455(8)
O1 O 0.0185(13) 0.6610(11) 0.3653(5)
H1 H 0.0304(13) 0.5681(11) 0.3525(5)
O2 O 0.2897(15) 0.6230(12) 0.1920(5)
H2 H 0.2179(15) 0.6798(12) 0.1497(5)
O3 O 0.6443(14) 0.8311(10) 0.2765(4)
O4 O 0.9175(13) 0.9444(11) 0.2168(5)
O5 O 0.1695(19) 1.4538(15) -0.0985(7)
O6 O -0.0420(18) 1.2739(15) -0.0584(6)
O7 O 0.1788(13) 1.1056(11) 0.2937(5)
O8 O 0.1218(16) 1.3181(11) 0.3591(6)
O9 O 0.3867(15) 0.6516(12) 0.7253(5)
O10 O 0.5044(14) 0.4620(11) 0.6433(5)
N1 N 0.3813(16) 0.9949(13) 0.1430(6)
N2 N 0.2902(16) 0.8561(13) 0.4315(6)
C1 C 0.7242(18) 0.9319(14) 0.2180(7)
C2 C 0.5693(19) 1.0420(16) 0.1457(7)
C3 C 0.6230(22) 1.1779(18) 0.0890(8)
H3 H 0.7520(22) 1.2082(18) 0.0944(8)
C4 C 0.4755(21) 1.2671(17) 0.0237(8)
H4 H 0.5065(21) 1.3577(17) -0.0168(8)
C5 C 0.2838(20) 1.2217(17) 0.0185(7)
C6 C 0.2456(18) 1.0854(16) 0.0785(7)
H5 H 0.1170(18) 1.0539(16) 0.0741(7)
C7 C 0.1193(22) 1.3249(19) -0.0527(8)
C8 C 0.1757(18) 1.1600(16) 0.3604(7)
C9 C 0.2369(17) 1.0224(15) 0.4387(7)
C10 C 0.2304(18) 1.0661(16) 0.5152(7)
H6 H 0.1903(18) 1.1830(16) 0.5182(7)
C11 C 0.2834(18) 0.9359(15) 0.5850(7)
H7 H 0.2789(18) 0.9636(15) 0.6365(7)
C12 C 0.3449(18) 0.7602(15) 0.5802(7)
C13 C 0.3400(19) 0.7311(14) 0.5006(7)
H8 H 0.3744(19) 0.6155(14) 0.4959(7)
C14 C 0.4152(19) 0.6167(17) 0.6563(7)
O4_2 O -0.0825(13) 0.9444(11) 0.2168(5)
O10A O 0.4956(14) 0.5380(11) 0.3567(5)
O7A O -0.1788(13) 1.8944(11) -0.2937(5)
O8A O -0.1218(16) 1.6819(11) -0.3591(6)
O9_2 O 0.3867(15) 1.6516(12) -0.2747(5)
Gd1_2 Gd 1.27652(9) 0.80722(7) 0.28220(3)
Ag1A Ag 0.0000(2) 1.3670(2) 0.20455(8)
Ag1_2 Ag 0.0000(2) 0.6330(2) 0.79545(8)
Gd1A Gd 0.72348(9) 0.19278(7) 0.71780(3)
loop_
_geom_bond_atom_site_label_1
_geom_bond_atom_site_label_2
_geom_bond_site_symmetry_1
_geom_bond_site_symmetry_2
Gd1 O1 1_555 1_555
Ag1 O5 1_555 1_555
O1 H1 1_555 1_555
O2 Gd1 1_555 1_555
H2 O2 1_555 1_555
O3 Gd1 1_555 1_555
O4 C1 1_555 1_555
O5 C7 1_555 1_555
O6 C7 1_555 1_555
O7 Gd1 1_555 1_555
O8 C8 1_555 1_555
O9 C14 1_555 1_555
O10 C14 1_555 1_555
N1 Gd1 1_555 1_555
N2 Gd1 1_555 1_555
C1 O3 1_555 1_555
C2 N1 1_555 1_555
C3 C2 1_555 1_555
H3 C3 1_555 1_555
C4 C3 1_555 1_555
H4 C4 1_555 1_555
C5 C4 1_555 1_555
C6 N1 1_555 1_555
H5 C6 1_555 1_555
C7 C5 1_555 1_555
C8 O7 1_555 1_555
C9 N2 1_555 1_555
C10 C9 1_555 1_555
H6 C10 1_555 1_555
C11 C10 1_555 1_555
H7 C11 1_555 1_555
C12 C11 1_555 1_555
C13 N2 1_555 1_555
H8 C13 1_555 1_555
C14 C12 1_555 1_555
O4_2 Gd1 1_555 1_555
O10A Gd1 1_555 1_555
O7A Ag1 1_555 1_555
O8A Ag1 1_555 1_555
O9_2 Ag1 1_555 1_555
Gd1_2 O4 1_555 1_555
Ag1A O7 1_555 1_555
Ag1_2 O9 1_555 1_555
Gd1A O10 1_555 1_555
O8 Ag1A 1_555 1_555
C1 C2 1_555 1_555
C5 C6 1_555 1_555
C8 C9 1_555 1_555
C12 C13 1_555 1_555

#END
