
#######################################################################
#
#                 Cambridge Crystallographic Data Centre
#                                CCDC 
#
#######################################################################
#
# If this CIF has been generated from an entry in the Cambridge 
# Structural Database, then it will include bibliographic, chemical, 
# crystal, experimental, refinement or atomic coordinate data resulting 
# from the CCDC's data processing and validation procedures.
#
#######################################################################

data_QARNAZ
_symmetry_cell_setting           monoclinic
_symmetry_space_group_name_H-M   'P 21/n'
_symmetry_Int_Tables_number      14
_space_group_name_Hall           '-P 2yn'
loop_
_symmetry_equiv_pos_site_id
_symmetry_equiv_pos_as_xyz
1 x,y,z
2 1/2-x,1/2+y,1/2-z
3 -x,-y,-z
4 1/2+x,1/2-y,1/2+z
_cell_length_a                   10.236(2)
_cell_length_b                   6.8530(14)
_cell_length_c                   13.443(3)
_cell_angle_alpha                90
_cell_angle_beta                 93.51(3)
_cell_angle_gamma                90
_cell_volume                     941.221
loop_
_atom_site_label
_atom_site_type_symbol
_atom_site_fract_x
_atom_site_fract_y
_atom_site_fract_z
Ca1 Ca -0.06151(3) 0.17891(4) 0.12842(2)
O1 O -0.10559(11) 0.50498(16) 0.18465(9)
O2 O -0.12614(13) 0.65091(18) -0.06361(10)
O3 O 0.13447(13) -0.0048(2) 0.18406(10)
O4 O -0.17670(12) 0.2703(2) -0.02244(9)
O6 O -0.09527(12) 0.8775(2) 0.05222(11)
O7 O -0.22086(12) 0.6144(2) 0.30944(9)
N1 N -0.43267(13) 0.6460(2) 0.18018(10)
N2 N -0.39406(13) 0.7536(2) -0.01431(10)
C1 C -0.15968(15) 0.7445(2) 0.01049(11)
C2 C -0.31282(14) 0.6473(2) 0.14604(11)
C3 C -0.20374(14) 0.5837(2) 0.21991(11)
C4 C -0.29327(14) 0.7064(2) 0.04867(11)
C5 C -0.51408(16) 0.7462(3) 0.01931(13)
C6 C -0.53261(16) 0.6942(3) 0.11693(13)
H1 H 0.213(4) 0.044(6) 0.202(3)
H2 H -0.614(3) 0.692(4) 0.141(2)
H3 H 0.131(3) -0.096(5) 0.216(2)
H6 H -0.577(3) 0.782(4) -0.027(2)
H7 H -0.157(3) 0.195(4) -0.059(2)
H8 H -0.160(3) 0.381(5) -0.038(2)
Ca1B Ca 0.06151(3) 0.82109(4) -0.12842(2)
Ca1_2 Ca -0.06151(3) 1.17891(4) 0.12842(2)
Ca1A Ca -0.43849(3) 0.67891(4) 0.37158(2)
O2B O 0.12614(13) 0.34909(18) 0.06361(10)
O6_2 O -0.09527(12) -0.1225(2) 0.05222(11)
O6B O 0.09527(12) 0.1225(2) -0.05222(11)
O7A O -0.27914(12) 0.1144(2) 0.19056(9)
N1A N -0.06733(13) 0.1460(2) 0.31982(10)
O5 O 0.11905(14) 0.6539(2) 0.28441(11)
H4 H 0.110(3) 0.672(4) 0.339(3)
H5 H 0.062(4) 0.613(6) 0.259(3)
loop_
_geom_bond_atom_site_label_1
_geom_bond_atom_site_label_2
_geom_bond_site_symmetry_1
_geom_bond_site_symmetry_2
Ca1 O1 1_555 1_555
O1 C3 1_555 1_555
O2 C1 1_555 1_555
O3 Ca1 1_555 1_555
O4 Ca1 1_555 1_555
O5 H4 1_555 1_555
O6 C1 1_555 1_555
O7 C3 1_555 1_555
N1 C2 1_555 1_555
N2 C4 1_555 1_555
C1 C4 1_555 1_555
C2 C3 1_555 1_555
C4 C2 1_555 1_555
C5 N2 1_555 1_555
C6 N1 1_555 1_555
H1 O3 1_555 1_555
H2 C6 1_555 1_555
H3 O3 1_555 1_555
H5 O5 1_555 1_555
H6 C5 1_555 1_555
H7 O4 1_555 1_555
H8 O4 1_555 1_555
Ca1B O2 1_555 1_555
Ca1_2 O6 1_555 1_555
Ca1A O7 1_555 1_555
O2B Ca1 1_555 1_555
O6_2 Ca1 1_555 1_555
O6B Ca1 1_555 1_555
O7A Ca1 1_555 1_555
N1A Ca1 1_555 1_555
O6 Ca1B 1_555 1_555
N1 Ca1A 1_555 1_555
C5 C6 1_555 1_555

#END
