
#######################################################################
#
#                 Cambridge Crystallographic Data Centre
#                                CCDC 
#
#######################################################################
#
# If this CIF has been generated from an entry in the Cambridge 
# Structural Database, then it will include bibliographic, chemical, 
# crystal, experimental, refinement or atomic coordinate data resulting 
# from the CCDC's data processing and validation procedures.
#
#######################################################################

data_QARRUY
_symmetry_cell_setting           triclinic
_symmetry_space_group_name_H-M   'P -1'
_symmetry_Int_Tables_number      2
_space_group_name_Hall           '-P 1'
loop_
_symmetry_equiv_pos_site_id
_symmetry_equiv_pos_as_xyz
1 x,y,z
2 -x,-y,-z
_cell_length_a                   7.186(2)
_cell_length_b                   8.738(3)
_cell_length_c                   13.252(4)
_cell_angle_alpha                77.509(4)
_cell_angle_beta                 84.313(4)
_cell_angle_gamma                80.135(4)
_cell_volume                     798.735
loop_
_atom_site_label
_atom_site_type_symbol
_atom_site_fract_x
_atom_site_fract_y
_atom_site_fract_z
C1 C 0.4759(13) 0.5584(13) 0.3184(8)
C2 C 0.5707(14) 0.4865(13) 0.2312(8)
C3 C 0.6356(15) 0.3302(13) 0.2191(8)
C4 C 0.6340(15) 0.1720(14) 0.2935(8)
C5 C 0.6912(14) 0.4929(14) 0.0729(9)
C6 C 0.7571(15) 0.5488(14) -0.0336(8)
C7 C 0.8471(17) 0.4458(16) -0.0953(9)
H1 H 0.8634 0.3369 -0.0693
C8 C 0.9118(18) 0.5029(16) -0.1940(9)
H2 H 0.9730 0.4326 -0.2346
C9 C 0.8066(18) 0.7625(15) -0.1765(10)
H3 H 0.7925 0.8706 -0.2050
C10 C 0.7421(19) 0.7126(15) -0.0763(10)
H4 H 0.6884 0.7863 -0.0364
C11 C 0.0282(14) 0.4549(13) 0.5549(7)
C12 C -0.0512(14) 0.9551(13) 0.5489(8)
Ho1 Ho 0.31240(5) 0.70629(5) 0.48616(3)
N1 N 0.6072(12) 0.5846(11) 0.1381(7)
N2 N 0.7086(13) 0.3393(12) 0.1193(7)
H5 H 0.7571 0.2604 0.0911
N3 N 0.8883(14) 0.6604(13) -0.2336(8)
O1 O 0.4107(11) 0.7036(9) 0.3000(6)
O2 O 0.4600(9) 0.4755(9) 0.4095(5)
O3 O 0.6213(13) 0.1693(10) 0.3866(6)
O4 O 0.6486(18) 0.0522(11) 0.2541(7)
H6 H 0.7192 0.0631 0.2014
O5 O 0.1605(9) 0.5005(9) 0.5912(5)
O6 O -0.0608(10) 0.3431(9) 0.5993(6)
O7 O 0.0149(10) 0.8078(9) 0.5764(5)
O8 O -0.1886(10) 1.0278(10) 0.5911(6)
O9 O 0.5930(10) 0.8241(10) 0.4338(6)
H7 H 0.6270 0.9016 0.3940
H8 H 0.6827 0.7520 0.4389
C1A C 0.5241(13) 0.4416(13) 0.6816(8)
C2A C 0.4293(14) 0.5135(13) 0.7688(8)
C3A C 0.3644(15) 0.6698(13) 0.7809(8)
C4A C 0.3660(15) 0.8280(14) 0.7065(8)
C5A C 0.3088(14) 0.5071(14) 0.9271(9)
C6A C 0.2429(15) 0.4512(14) 1.0336(8)
C7A C 0.1529(17) 0.5542(16) 1.0953(9)
H1A H 0.1366 0.6631 1.0693
C8A C 0.0882(18) 0.4971(16) 1.1940(9)
H2A H 0.0270 0.5674 1.2346
C9A C 0.1934(18) 0.2375(15) 1.1765(10)
H3A H 0.2075 0.1294 1.2050
C10A C 0.2579(19) 0.2874(15) 1.0763(10)
H4A H 0.3116 0.2137 1.0364
C11A C -0.0282(14) 0.5451(13) 0.4451(7)
C12A C 0.0512(14) 1.0449(13) 0.4511(8)
Ho1A Ho 0.68760(5) 0.29371(5) 0.51384(3)
Ho1A_2 Ho -0.31240(5) 0.29371(5) 0.51384(3)
Ho1A_3 Ho -0.31240(5) 1.29371(5) 0.51384(3)
N1A N 0.3928(12) 0.4154(11) 0.8619(7)
N2A N 0.2914(13) 0.6607(12) 0.8807(7)
H5A H 0.2429 0.7396 0.9089
N3A N 0.1117(14) 0.3396(13) 1.2336(8)
O1A O 0.5893(11) 0.2964(9) 0.7000(6)
O2A O 0.5400(9) 0.5245(9) 0.5905(5)
O3A O 0.3787(13) 0.8307(10) 0.6134(6)
O4A O 0.3514(18) 0.9478(11) 0.7459(7)
H6A H 0.2808 0.9369 0.7986
O5A O -0.1605(9) 0.4995(9) 0.4088(5)
O5A_2 O 0.8395(9) 0.4995(9) 0.4088(5)
O6A O 0.0608(10) 0.6569(9) 0.4007(6)
O6_2 O 0.9392(10) 0.3431(9) 0.5993(6)
O7A O -0.0149(10) 1.1922(9) 0.4236(5)
O7A_2 O 0.9851(10) 0.1922(9) 0.4236(5)
O8A O 0.1886(10) 0.9722(10) 0.4089(6)
O8_2 O 0.8114(10) 0.0278(10) 0.5911(6)
O9A O 0.4070(10) 0.1759(10) 0.5662(6)
H7A H 0.3730 0.0984 0.6060
H8A H 0.3173 0.2480 0.5611
O10 O 0.860(5) 0.077(4) 0.033(2)
H9 H 0.9224 0.0622 0.0866
H10 H 0.7536 0.0470 0.0524
O11 O 0.058(2) 0.8883(17) 0.1860(10)
H11 H 0.0175 0.8560 0.2481
H12 H 0.1759 0.8541 0.1811
O12 O 0.511(2) 0.9262(14) 0.1008(8)
H13 H 0.5296 0.8317 0.1347
H14 H 0.4942 0.9881 0.1429
loop_
_geom_bond_atom_site_label_1
_geom_bond_atom_site_label_2
_geom_bond_site_symmetry_1
_geom_bond_site_symmetry_2
C1 C2 1_555 1_555
C2 C3 1_555 1_555
C3 C4 1_555 1_555
C4 O3 1_555 1_555
C5 C6 1_555 1_555
C6 C7 1_555 1_555
C7 H1 1_555 1_555
C8 C7 1_555 1_555
H2 C8 1_555 1_555
C9 H3 1_555 1_555
C10 C6 1_555 1_555
H4 C10 1_555 1_555
C11 O5 1_555 1_555
C12 O7 1_555 1_555
Ho1 O1 1_555 1_555
N1 C2 1_555 1_555
N2 C3 1_555 1_555
H5 N2 1_555 1_555
N3 C8 1_555 1_555
O1 C1 1_555 1_555
O2 C1 1_555 1_555
O3 Ho1A 1_555 1_555
O4 C4 1_555 1_555
H6 O4 1_555 1_555
O5 Ho1 1_555 1_555
O6 C11 1_555 1_555
O7 Ho1 1_555 1_555
O8 C12 1_555 1_555
O9 Ho1 1_555 1_555
H7 O9 1_555 1_555
H8 O9 1_555 1_555
O10 H9 1_555 1_555
H10 O10 1_555 1_555
O11 H11 1_555 1_555
H12 O11 1_555 1_555
O12 H13 1_555 1_555
H14 O12 1_555 1_555
C1A C2A 1_555 1_555
C2A C3A 1_555 1_555
C3A C4A 1_555 1_555
C4A O3A 1_555 1_555
C5A C6A 1_555 1_555
C6A C7A 1_555 1_555
C7A H1A 1_555 1_555
C8A C7A 1_555 1_555
H2A C8A 1_555 1_555
C9A H3A 1_555 1_555
C10A C6A 1_555 1_555
H4A C10A 1_555 1_555
C11A C11 1_555 1_555
C12A C12 1_555 1_555
Ho1A O2 1_555 1_555
Ho1A_2 O6 1_555 1_555
Ho1A_3 O8 1_555 1_555
N1A C2A 1_555 1_555
N2A C3A 1_555 1_555
H5A N2A 1_555 1_555
N3A C8A 1_555 1_555
O1A C1A 1_555 1_555
O2A Ho1 1_555 1_555
O3A Ho1 1_555 1_555
O4A C4A 1_555 1_555
H6A O4A 1_555 1_555
O5A C11A 1_555 1_555
O5A_2 Ho1A 1_555 1_555
O6A Ho1 1_555 1_555
O6_2 Ho1A 1_555 1_555
O7A C12A 1_555 1_555
O7A_2 Ho1A 1_555 1_555
O8A Ho1 1_555 1_555
O8_2 Ho1A 1_555 1_555
O9A Ho1A 1_555 1_555
H7A O9A 1_555 1_555
H8A O9A 1_555 1_555
C5 N1 1_555 1_555
C5 N2 1_555 1_555
C9 C10 1_555 1_555
C9 N3 1_555 1_555
Ho1 O2 1_555 1_555
C1A O2A 1_555 1_555
C5A N1A 1_555 1_555
C5A N2A 1_555 1_555
C9A C10A 1_555 1_555
C9A N3A 1_555 1_555
C11A O6A 1_555 1_555
C12A O8A 1_555 1_555
Ho1A O1A 1_555 1_555
Ho1A O2A 1_555 1_555
Ho1A_2 O5A 1_555 1_555
Ho1A_3 O7A 1_555 1_555

#END
