
#######################################################################
#
#                 Cambridge Crystallographic Data Centre
#                                CCDC 
#
#######################################################################
#
# If this CIF has been generated from an entry in the Cambridge 
# Structural Database, then it will include bibliographic, chemical, 
# crystal, experimental, refinement or atomic coordinate data resulting 
# from the CCDC's data processing and validation procedures.
#
#######################################################################

data_QARREI
_symmetry_cell_setting           triclinic
_symmetry_space_group_name_H-M   'P -1'
_symmetry_Int_Tables_number      2
_space_group_name_Hall           '-P 1'
loop_
_symmetry_equiv_pos_site_id
_symmetry_equiv_pos_as_xyz
1 x,y,z
2 -x,-y,-z
_cell_length_a                   7.2662(9)
_cell_length_b                   8.8378(11)
_cell_length_c                   13.2535(16)
_cell_angle_alpha                77.2090(10)
_cell_angle_beta                 84.606(2)
_cell_angle_gamma                80.5500(10)
_cell_volume                     817.247
loop_
_atom_site_label
_atom_site_type_symbol
_atom_site_fract_x
_atom_site_fract_y
_atom_site_fract_z
C1 C 0.4772(9) 0.0581(7) 0.3145(5)
C2 C 0.5715(9) -0.0128(7) 0.2278(5)
C3 C 0.6348(10) -0.1657(8) 0.2163(5)
C4 C 0.6313(10) -0.3241(8) 0.2880(5)
C5 C 0.6897(9) -0.0061(7) 0.0715(5)
C6 C 0.7584(10) 0.0511(8) -0.0352(5)
C7 C 0.7391(12) 0.2139(9) -0.0767(6)
H1 H 0.6820 0.2853 -0.0372
C8 C 0.8067(13) 0.2648(9) -0.1773(6)
H2 H 0.7932 0.3719 -0.2057
C9 C 0.9118(11) 0.0086(9) -0.1956(6)
H3 H 0.9708 -0.0601 -0.2367
C10 C 0.8470(11) -0.0490(8) -0.0964(5)
H4 H 0.8630 -0.1567 -0.0703
C11 C -0.0293(9) 0.0454(7) 0.4455(5)
C12 C -0.0496(9) 0.4540(7) 0.5489(5)
N1 N 0.6169(8) 0.0751(6) 0.1352(4)
H5 H 0.5980 0.1759 0.1212
N2 N 0.7067(8) -0.1591(7) 0.1170(4)
N3 N 0.8901(9) 0.1652(8) -0.2340(5)
O1 O 0.4150(7) 0.2014(5) 0.2959(4)
O2 O 0.4585(6) -0.0252(5) 0.4053(3)
O3 O 0.6116(8) -0.3289(5) 0.3839(4)
O4 O 0.6477(12) -0.4402(6) 0.2492(4)
H6 H 0.7312 -0.4350 0.2030
O5 O 0.0587(6) 0.1536(5) 0.4007(3)
O6 O -0.1611(6) 0.0021(5) 0.4099(3)
O7 O 0.0198(7) 0.3123(5) 0.5767(4)
O8 O -0.1860(7) 0.5242(5) 0.5920(3)
O9 O 0.6007(7) 0.3282(6) 0.4295(4)
H7 H 0.6373 0.3646 0.4744
H8 H 0.6347 0.3728 0.3716
Sm1 Sm 0.31638(4) 0.20870(3) 0.48505(2)
C1A C 0.5228(9) -0.0581(7) 0.6855(5)
C2A C 0.4285(9) 0.0128(7) 0.7722(5)
C3A C 0.3652(10) 0.1657(8) 0.7837(5)
C4A C 0.3687(10) 0.3241(8) 0.7120(5)
C5A C 0.3103(9) 0.0061(7) 0.9285(5)
C6A C 0.2416(10) -0.0511(8) 1.0352(5)
C7A C 0.2609(12) -0.2139(9) 1.0767(6)
H1A H 0.3180 -0.2853 1.0372
C8A C 0.1933(13) -0.2648(9) 1.1773(6)
H2A H 0.2068 -0.3719 1.2057
C9A C 0.0882(11) -0.0086(9) 1.1956(6)
H3A H 0.0292 0.0601 1.2367
C10A C 0.1530(11) 0.0490(8) 1.0964(5)
H4A H 0.1370 0.1567 1.0703
C11A C 0.0293(9) -0.0454(7) 0.5545(5)
C12A C 0.0496(9) 0.5460(7) 0.4511(5)
N1A N 0.3831(8) -0.0751(6) 0.8648(4)
H5A H 0.4020 -0.1759 0.8788
N2A N 0.2933(8) 0.1591(7) 0.8830(4)
N3A N 0.1099(9) -0.1652(8) 1.2340(5)
O1A O 0.5850(7) -0.2014(5) 0.7041(4)
O2A O 0.5415(6) 0.0252(5) 0.5947(3)
O3A O 0.3884(8) 0.3289(5) 0.6161(4)
O4A O 0.3523(12) 0.4402(6) 0.7508(4)
H6A H 0.2688 0.4350 0.7970
O5A O -0.0587(6) -0.1536(5) 0.5993(3)
O5A_2 O 0.9413(6) -0.1536(5) 0.5993(3)
O6A O 0.1611(6) -0.0021(5) 0.5901(3)
O6_2 O 0.8389(6) 0.0021(5) 0.4099(3)
O7A O -0.0198(7) 0.6877(5) 0.4233(4)
O7A_2 O 0.9802(7) -0.3123(5) 0.4233(4)
O8A O 0.1860(7) 0.4758(5) 0.4080(3)
O8_2 O 0.8140(7) -0.4758(5) 0.5920(3)
O9A O 0.3993(7) -0.3282(6) 0.5705(4)
H7A H 0.3627 -0.3646 0.5256
H8A H 0.3653 -0.3728 0.6284
Sm1A Sm 0.68362(4) -0.20870(3) 0.51495(2)
Sm1A_2 Sm -0.31638(4) -0.20870(3) 0.51495(2)
Sm1A_3 Sm -0.31638(4) 0.79130(3) 0.51495(2)
O10 O 0.871(3) 0.5803(18) 0.0323(13)
H9 H 0.7744 0.6442 0.0444
H10 H 0.8336 0.4991 0.0218
O11 O 0.4844(12) 0.4427(8) 0.1027(6)
H11 H 0.5098 0.4870 0.1494
H12 H 0.4206 0.3707 0.1317
O12 O 0.0625(16) 0.3837(10) 0.1826(6)
H13 H 0.0448 0.3128 0.2362
H14 H -0.0423 0.4424 0.1748
loop_
_geom_bond_atom_site_label_1
_geom_bond_atom_site_label_2
_geom_bond_site_symmetry_1
_geom_bond_site_symmetry_2
C1 C2 1_555 1_555
C2 C3 1_555 1_555
C3 C4 1_555 1_555
C4 O3 1_555 1_555
C5 C6 1_555 1_555
C6 C7 1_555 1_555
C7 H1 1_555 1_555
C8 C7 1_555 1_555
H2 C8 1_555 1_555
C9 H3 1_555 1_555
C10 C6 1_555 1_555
H4 C10 1_555 1_555
C11 O5 1_555 1_555
C12 O7 1_555 1_555
N1 C2 1_555 1_555
H5 N1 1_555 1_555
N2 C3 1_555 1_555
N3 C8 1_555 1_555
O1 C1 1_555 1_555
O2 C1 1_555 1_555
O3 Sm1A 1_555 1_555
O4 C4 1_555 1_555
H6 O4 1_555 1_555
O5 Sm1 1_555 1_555
O6 C11 1_555 1_555
O7 Sm1 1_555 1_555
O8 C12 1_555 1_555
O9 H7 1_555 1_555
H8 O9 1_555 1_555
O10 H9 1_555 1_555
H10 O10 1_555 1_555
O11 H11 1_555 1_555
H12 O11 1_555 1_555
O12 H13 1_555 1_555
H14 O12 1_555 1_555
Sm1 O1 1_555 1_555
C1A C2A 1_555 1_555
C2A C3A 1_555 1_555
C3A C4A 1_555 1_555
C4A O3A 1_555 1_555
C5A C6A 1_555 1_555
C6A C7A 1_555 1_555
C7A H1A 1_555 1_555
C8A C7A 1_555 1_555
H2A C8A 1_555 1_555
C9A H3A 1_555 1_555
C10A C6A 1_555 1_555
H4A C10A 1_555 1_555
C11A C11 1_555 1_555
C12A C12 1_555 1_555
N1A C2A 1_555 1_555
H5A N1A 1_555 1_555
N2A C3A 1_555 1_555
N3A C8A 1_555 1_555
O1A C1A 1_555 1_555
O2A Sm1 1_555 1_555
O3A Sm1 1_555 1_555
O4A C4A 1_555 1_555
H6A O4A 1_555 1_555
O5A C11A 1_555 1_555
O5A_2 Sm1A 1_555 1_555
O6A Sm1 1_555 1_555
O6_2 Sm1A 1_555 1_555
O7A C12A 1_555 1_555
O7A_2 Sm1A 1_555 1_555
O8A Sm1 1_555 1_555
O8_2 Sm1A 1_555 1_555
O9A H7A 1_555 1_555
H8A O9A 1_555 1_555
Sm1A O2 1_555 1_555
Sm1A_2 O6 1_555 1_555
Sm1A_3 O8 1_555 1_555
C5 N1 1_555 1_555
C5 N2 1_555 1_555
C9 C10 1_555 1_555
C9 N3 1_555 1_555
O2 Sm1 1_555 1_555
O9 Sm1 1_555 1_555
C1A O2A 1_555 1_555
C5A N1A 1_555 1_555
C5A N2A 1_555 1_555
C9A C10A 1_555 1_555
C9A N3A 1_555 1_555
C11A O6A 1_555 1_555
C12A O8A 1_555 1_555
O1A Sm1A 1_555 1_555
O2A Sm1A 1_555 1_555
O5A Sm1A_2 1_555 1_555
O7A Sm1A_3 1_555 1_555
O9A Sm1A 1_555 1_555

#END
