
#######################################################################
#
#                 Cambridge Crystallographic Data Centre
#                                CCDC 
#
#######################################################################
#
# If this CIF has been generated from an entry in the Cambridge 
# Structural Database, then it will include bibliographic, chemical, 
# crystal, experimental, refinement or atomic coordinate data resulting 
# from the CCDC's data processing and validation procedures.
#
#######################################################################

data_QARROS
_symmetry_cell_setting           triclinic
_symmetry_space_group_name_H-M   'P -1'
_symmetry_Int_Tables_number      2
_space_group_name_Hall           '-P 1'
loop_
_symmetry_equiv_pos_site_id
_symmetry_equiv_pos_as_xyz
1 x,y,z
2 -x,-y,-z
_cell_length_a                   7.1924(8)
_cell_length_b                   8.7480(10)
_cell_length_c                   13.2331(14)
_cell_angle_alpha                77.4040(10)
_cell_angle_beta                 84.4540(10)
_cell_angle_gamma                80.2620(10)
_cell_volume                     799.32
loop_
_atom_site_label
_atom_site_type_symbol
_atom_site_fract_x
_atom_site_fract_y
_atom_site_fract_z
C1 C -0.0245(7) 0.0588(6) 0.3173(4)
C2 C 0.0721(7) -0.0137(6) 0.2301(4)
C3 C 0.1355(7) -0.1689(6) 0.2186(4)
C4 C 0.1329(8) -0.3263(6) 0.2913(4)
C5 C 0.1907(7) -0.0084(6) 0.0725(4)
C6 C 0.2589(7) 0.0498(6) -0.0335(4)
C7 C 0.2411(9) 0.2121(7) -0.0760(5)
H1 H 0.1855 0.2850 -0.0360
C8 C 0.3054(9) 0.2640(7) -0.1765(5)
H2 H 0.2907 0.3719 -0.2052
C9 C 0.4117(9) 0.0031(7) -0.1942(4)
H3 H 0.4721 -0.0669 -0.2350
C10 C 0.3468(8) -0.0545(7) -0.0952(4)
H4 H 0.3614 -0.1633 -0.0691
C11 C -0.5300(7) 0.0452(6) 0.4450(3)
C12 C -0.4489(7) 0.5451(6) 0.4512(4)
Dy1 Dy -0.18695(3) 0.20673(2) 0.485880(16)
N1 N 0.1070(6) 0.0852(5) 0.1374(3)
N2 N 0.2080(6) -0.1614(5) 0.1187(3)
H5 H 0.2558 -0.2405 0.0908
N3 N 0.3896(7) 0.1594(6) -0.2333(3)
O1 O -0.0877(5) 0.2035(4) 0.2986(3)
O2 O -0.0415(5) -0.0255(4) 0.4083(2)
O3 O 0.1194(6) -0.3300(4) 0.3869(3)
O4 O 0.1482(8) -0.4454(5) 0.2535(3)
H6 H 0.1712 -0.4212 0.1907
O5 O -0.4407(5) 0.1550(4) 0.4010(3)
O6 O -0.6612(5) 0.0006(4) 0.4093(2)
O7 O -0.3118(5) 0.4715(4) 0.4082(3)
O8 O -0.5157(5) 0.6886(4) 0.4233(3)
O9 O 0.0938(5) 0.3242(4) 0.4327(3)
H7 H 0.1530 0.4006 0.4050
H8 H 0.1724 0.2390 0.4378
C1A C 0.0245(7) -0.0588(6) 0.6827(4)
C2A C -0.0721(7) 0.0137(6) 0.7699(4)
C3A C -0.1355(7) 0.1689(6) 0.7814(4)
C4A C -0.1329(8) 0.3263(6) 0.7087(4)
C5A C -0.1907(7) 0.0084(6) 0.9275(4)
C6A C -0.2589(7) -0.0498(6) 1.0335(4)
C7A C -0.2411(9) -0.2121(7) 1.0760(5)
H1A H -0.1855 -0.2850 1.0360
C8A C -0.3054(9) -0.2640(7) 1.1765(5)
H2A H -0.2907 -0.3719 1.2052
C9A C -0.4117(9) -0.0031(7) 1.1942(4)
H3A H -0.4721 0.0669 1.2350
C10A C -0.3468(8) 0.0545(7) 1.0952(4)
H4A H -0.3614 0.1633 1.0691
C11A C -0.4700(7) -0.0452(6) 0.5550(3)
C12A C -0.5511(7) 0.4549(6) 0.5488(4)
Dy1A Dy 0.18695(3) -0.20673(2) 0.514120(16)
Dy1A_2 Dy -0.81305(3) -0.20673(2) 0.514120(16)
Dy1A_3 Dy -0.81305(3) 0.79327(2) 0.514120(16)
N1A N -0.1070(6) -0.0852(5) 0.8626(3)
N2A N -0.2080(6) 0.1614(5) 0.8813(3)
H5A H -0.2558 0.2405 0.9092
N3A N -0.3896(7) -0.1594(6) 1.2333(3)
O1A O 0.0877(5) -0.2035(4) 0.7014(3)
O2A O 0.0415(5) 0.0255(4) 0.5917(2)
O3A O -0.1194(6) 0.3300(4) 0.6131(3)
O4A O -0.1482(8) 0.4454(5) 0.7465(3)
H6A H -0.1712 0.4212 0.8093
O5A O -0.5593(5) -0.1550(4) 0.5990(3)
O5A_2 O 0.4407(5) -0.1550(4) 0.5990(3)
O6A O -0.3388(5) -0.0006(4) 0.5907(2)
O6_2 O 0.3388(5) 0.0006(4) 0.4093(2)
O7A O -0.6882(5) 0.5285(4) 0.5918(3)
O7A_2 O 0.3118(5) -0.4715(4) 0.5918(3)
O8A O -0.4843(5) 0.3114(4) 0.5767(3)
O8_2 O 0.4843(5) -0.3114(4) 0.4233(3)
O9A O -0.0938(5) -0.3242(4) 0.5673(3)
H7A H -0.1530 -0.4006 0.5950
H8A H -0.1724 -0.2390 0.5622
O10 O 0.0099(9) 0.4259(6) 0.1003(4)
H9 H 0.0166 0.3256 0.1163
H10 H -0.0017 0.4599 0.1564
O11 O 0.5584(10) 0.3854(7) 0.1837(4)
H11 H 0.5620 0.3416 0.2476
H12 H 0.6694 0.4049 0.1647
O12 O 0.3675(17) 0.5709(14) 0.0340(9)
H13 H 0.3777 0.5371 0.0988
H14 H 0.2503 0.5904 0.0233
loop_
_geom_bond_atom_site_label_1
_geom_bond_atom_site_label_2
_geom_bond_site_symmetry_1
_geom_bond_site_symmetry_2
C1 C2 1_555 1_555
C2 C3 1_555 1_555
C3 C4 1_555 1_555
C4 O3 1_555 1_555
C5 C6 1_555 1_555
C6 C7 1_555 1_555
C7 H1 1_555 1_555
C8 C7 1_555 1_555
H2 C8 1_555 1_555
C9 H3 1_555 1_555
C10 C6 1_555 1_555
H4 C10 1_555 1_555
C11 O5 1_555 1_555
C12 O7 1_555 1_555
Dy1 O1 1_555 1_555
N1 C2 1_555 1_555
N2 C3 1_555 1_555
H5 N2 1_555 1_555
N3 C8 1_555 1_555
O1 C1 1_555 1_555
O2 C1 1_555 1_555
O3 Dy1A 1_555 1_555
O4 C4 1_555 1_555
H6 O4 1_555 1_555
O5 Dy1 1_555 1_555
O6 C11 1_555 1_555
O7 Dy1 1_555 1_555
O8 C12 1_555 1_555
O9 Dy1 1_555 1_555
H7 O9 1_555 1_555
H8 O9 1_555 1_555
O10 H9 1_555 1_555
H10 O10 1_555 1_555
O11 H11 1_555 1_555
H12 O11 1_555 1_555
O12 H13 1_555 1_555
H14 O12 1_555 1_555
C1A C2A 1_555 1_555
C2A C3A 1_555 1_555
C3A C4A 1_555 1_555
C4A O3A 1_555 1_555
C5A C6A 1_555 1_555
C6A C7A 1_555 1_555
C7A H1A 1_555 1_555
C8A C7A 1_555 1_555
H2A C8A 1_555 1_555
C9A H3A 1_555 1_555
C10A C6A 1_555 1_555
H4A C10A 1_555 1_555
C11A C11 1_555 1_555
C12A C12 1_555 1_555
Dy1A O2 1_555 1_555
Dy1A_2 O6 1_555 1_555
Dy1A_3 O8 1_555 1_555
N1A C2A 1_555 1_555
N2A C3A 1_555 1_555
H5A N2A 1_555 1_555
N3A C8A 1_555 1_555
O1A C1A 1_555 1_555
O2A Dy1 1_555 1_555
O3A Dy1 1_555 1_555
O4A C4A 1_555 1_555
H6A O4A 1_555 1_555
O5A C11A 1_555 1_555
O5A_2 Dy1A 1_555 1_555
O6A Dy1 1_555 1_555
O6_2 Dy1A 1_555 1_555
O7A C12A 1_555 1_555
O7A_2 Dy1A 1_555 1_555
O8A Dy1 1_555 1_555
O8_2 Dy1A 1_555 1_555
O9A Dy1A 1_555 1_555
H7A O9A 1_555 1_555
H8A O9A 1_555 1_555
C5 N1 1_555 1_555
C5 N2 1_555 1_555
C9 C10 1_555 1_555
C9 N3 1_555 1_555
Dy1 O2 1_555 1_555
C1A O2A 1_555 1_555
C5A N1A 1_555 1_555
C5A N2A 1_555 1_555
C9A C10A 1_555 1_555
C9A N3A 1_555 1_555
C11A O6A 1_555 1_555
C12A O8A 1_555 1_555
Dy1A O1A 1_555 1_555
Dy1A O2A 1_555 1_555
Dy1A_2 O5A 1_555 1_555
Dy1A_3 O7A 1_555 1_555

#END
