
#######################################################################
#
#                 Cambridge Crystallographic Data Centre
#                                CCDC 
#
#######################################################################
#
# If this CIF has been generated from an entry in the Cambridge 
# Structural Database, then it will include bibliographic, chemical, 
# crystal, experimental, refinement or atomic coordinate data resulting 
# from the CCDC's data processing and validation procedures.
#
#######################################################################

data_QARSOT
_symmetry_cell_setting           monoclinic
_symmetry_space_group_name_H-M   'P 21/c'
_symmetry_Int_Tables_number      14
_space_group_name_Hall           '-P 2ybc'
loop_
_symmetry_equiv_pos_site_id
_symmetry_equiv_pos_as_xyz
1 x,y,z
2 -x,1/2+y,1/2-z
3 -x,-y,-z
4 x,1/2-y,1/2+z
_cell_length_a                   8.3073(9)
_cell_length_b                   14.6061(15)
_cell_length_c                   11.4733(12)
_cell_angle_alpha                90
_cell_angle_beta                 90.7390(10)
_cell_angle_gamma                90
_cell_volume                     1392.02
loop_
_atom_site_label
_atom_site_type_symbol
_atom_site_fract_x
_atom_site_fract_y
_atom_site_fract_z
C1 C -0.2436 0.2366 0.4474
H1 H -0.2501 0.1898 0.5021
C2 C -0.3326(6) 0.2327(3) 0.3438(4)
H2 H -0.3999 0.1827 0.3314
C3 C -0.2304(6) 0.3680(3) 0.2815(4)
H3 H -0.2250 0.4129 0.2242
C4 C -0.1382(6) 0.3792(3) 0.3823(4)
H4 H -0.0734 0.4305 0.3930
C5 C -0.1462 0.3110 0.4669
C6 C -0.0579 0.3201 0.5798
C7 C -0.0056 0.3750 0.7546
C8 C 0.0761 0.2943 0.7386
C9 C 0.1856(4) 0.2384(2) 0.8139(3)
C10 C -0.0368(5) 0.4354(2) 0.8566(3)
C11 C 0.5258(5) -0.0019(3) 0.5625(4)
Ho1 Ho 0.2234 0.1319 0.5664
N1 N 0.0421 0.2604 0.6287
N2 N -0.0875 0.3913 0.6519
H5 H -0.1467 0.4382 0.6363
N3 N -0.3263(5) 0.2960(3) 0.2627(3)
O1 O 0.2333(3) 0.16473(16) 0.76789(19)
O2 O 0.2231(3) 0.26271(16) 0.9142(2)
O3 O 0.0085(3) 0.40912(18) 0.9552(2)
O4 O -0.1149(4) 0.50655(18) 0.8347(2)
O5 O 0.4472(4) 0.0425(2) 0.6344(2)
O6 O 0.6477(4) -0.05159(19) 0.5873(2)
O7 O 0.4411(4) 0.23225(19) 0.5939(2)
H6 H 0.4210 0.2888 0.5945
H7 H 0.5145 0.2236 0.6443
C1B C 1.2436 -0.2366 0.5526
H1B H 1.2501 -0.1898 0.4979
C2B C 1.3326(6) -0.2327(3) 0.6562(4)
H2B H 1.3999 -0.1827 0.6686
C3B C 1.2304(6) -0.3680(3) 0.7185(4)
H3B H 1.2250 -0.4129 0.7758
C4B C 1.1382(6) -0.3792(3) 0.6177(4)
H4B H 1.0734 -0.4305 0.6070
C5B C 1.1462 -0.3110 0.5331
C6B C 1.0579 -0.3201 0.4202
C7B C 1.0056 -0.3750 0.2454
C8B C 0.9239 -0.2943 0.2614
C9B C 0.8144(4) -0.2384(2) 0.1861(3)
C10B C 1.0368(5) -0.4354(2) 0.1434(3)
C11B C 0.4742(5) 0.0019(3) 0.4375(4)
Ho1B Ho 0.7766 -0.1319 0.4336
Ho1A Ho -0.2234 0.6319 0.9336
Ho1A_2 Ho 0.7766 -0.3681 -0.0664
Ho1C Ho 0.2234 0.3681 1.0664
Ho1C_2 Ho 1.2234 -0.6319 0.0664
N1B N 0.9579 -0.2604 0.3713
N2B N 1.0875 -0.3913 0.3481
H5B H 1.1467 -0.4382 0.3637
N3B N 1.3263(5) -0.2960(3) 0.7373(3)
O1B O 0.7667(3) -0.16473(16) 0.23211(19)
O2B O 0.7769(3) -0.26271(16) 0.0858(2)
O2A O 0.7769(3) -0.23729(16) 0.5858(2)
O2C O 0.2231(3) 0.23729(16) 0.4142(2)
O3B O 0.9915(3) -0.40912(18) 0.0448(2)
O3A O 0.9915(3) -0.09088(18) 0.5448(2)
O3C O 0.0085(3) 0.09088(18) 0.4552(2)
O4B O 1.1149(4) -0.50655(18) 0.1653(2)
O4A O 0.1149(4) 0.00655(18) 0.6653(2)
O4C O 0.8851(4) -0.00655(18) 0.3347(2)
O5B O 0.5528(4) -0.0425(2) 0.3656(2)
O6B O 0.3523(4) 0.05159(19) 0.4127(2)
O7B O 0.5589(4) -0.23225(19) 0.4061(2)
H6B H 0.5790 -0.2888 0.4055
H7B H 0.4855 -0.2236 0.3557
O8 O 0.3101(4) 0.02453(19) 0.9135(3)
H8 H 0.2743 0.0717 0.8791
H9 H 0.3226 0.0438 0.9824
O9 O 0.5858(5) 0.9239(2) 0.8558(3)
H10 H 0.4988 0.9539 0.8652
H11 H 0.6205 0.9404 0.7901
loop_
_geom_bond_atom_site_label_1
_geom_bond_atom_site_label_2
_geom_bond_site_symmetry_1
_geom_bond_site_symmetry_2
C1 H1 1_555 1_555
C2 C1 1_555 1_555
H2 C2 1_555 1_555
C3 H3 1_555 1_555
C4 C3 1_555 1_555
H4 C4 1_555 1_555
C5 C1 1_555 1_555
C6 C5 1_555 1_555
C7 C8 1_555 1_555
C8 C9 1_555 1_555
C9 O1 1_555 1_555
C10 C7 1_555 1_555
C11 O5 1_555 1_555
Ho1 N1 1_555 1_555
N1 C6 1_555 1_555
N2 C6 1_555 1_555
H5 N2 1_555 1_555
N3 C2 1_555 1_555
O1 Ho1 1_555 1_555
O2 C9 1_555 1_555
O3 C10 1_555 1_555
O4 C10 1_555 1_555
O5 Ho1 1_555 1_555
O6 C11 1_555 1_555
O7 Ho1 1_555 1_555
H6 O7 1_555 1_555
H7 O7 1_555 1_555
O8 H8 1_555 1_555
H9 O8 1_555 1_555
O9 H10 1_555 1_555
H11 O9 1_555 1_555
C1B H1B 1_555 1_555
C2B C1B 1_555 1_555
H2B C2B 1_555 1_555
C3B H3B 1_555 1_555
C4B C3B 1_555 1_555
H4B C4B 1_555 1_555
C5B C1B 1_555 1_555
C6B C5B 1_555 1_555
C7B C8B 1_555 1_555
C8B C9B 1_555 1_555
C9B O1B 1_555 1_555
C10B C7B 1_555 1_555
C11B C11 1_555 1_555
Ho1B O6 1_555 1_555
Ho1A O4 1_555 1_555
Ho1A_2 O2B 1_555 1_555
Ho1C O2 1_555 1_555
Ho1C_2 O4B 1_555 1_555
N1B C6B 1_555 1_555
N2B C6B 1_555 1_555
H5B N2B 1_555 1_555
N3B C2B 1_555 1_555
O1B Ho1B 1_555 1_555
O2B C9B 1_555 1_555
O2A Ho1B 1_555 1_555
O2C Ho1 1_555 1_555
O3B C10B 1_555 1_555
O3A Ho1B 1_555 1_555
O3C Ho1 1_555 1_555
O4B C10B 1_555 1_555
O4A Ho1 1_555 1_555
O4C Ho1B 1_555 1_555
O5B C11B 1_555 1_555
O6B Ho1 1_555 1_555
O7B Ho1B 1_555 1_555
H6B O7B 1_555 1_555
H7B O7B 1_555 1_555
C3 N3 1_555 1_555
C4 C5 1_555 1_555
C7 N2 1_555 1_555
C8 N1 1_555 1_555
O3 Ho1C 1_555 1_555
C3B N3B 1_555 1_555
C4B C5B 1_555 1_555
C7B N2B 1_555 1_555
C8B N1B 1_555 1_555
C11B O6B 1_555 1_555
Ho1B N1B 1_555 1_555
Ho1B O5B 1_555 1_555
Ho1A_2 O3B 1_555 1_555

#END
