
#######################################################################
#
#                 Cambridge Crystallographic Data Centre
#                                CCDC 
#
#######################################################################
#
# If this CIF has been generated from an entry in the Cambridge 
# Structural Database, then it will include bibliographic, chemical, 
# crystal, experimental, refinement or atomic coordinate data resulting 
# from the CCDC's data processing and validation procedures.
#
#######################################################################

data_QARSEI01
_symmetry_cell_setting           monoclinic
_symmetry_space_group_name_H-M   'P 21/n'
_symmetry_Int_Tables_number      14
_space_group_name_Hall           '-P 2yn'
loop_
_symmetry_equiv_pos_site_id
_symmetry_equiv_pos_as_xyz
1 x,y,z
2 1/2-x,1/2+y,1/2-z
3 -x,-y,-z
4 1/2+x,1/2-y,1/2+z
_cell_length_a                   14.8802(10)
_cell_length_b                   26.9895(19)
_cell_length_c                   18.8546(13)
_cell_angle_alpha                90
_cell_angle_beta                 107.6870(10)
_cell_angle_gamma                90
_cell_volume                     7214.25
loop_
_atom_site_label
_atom_site_type_symbol
_atom_site_fract_x
_atom_site_fract_y
_atom_site_fract_z
Ag1 Ag 0.99749(2) 0.423643(16) 0.756060(19)
Ag2 Ag 0.75133(2) 0.325956(16) 0.750426(18)
Ag3 Ag 0.49715(2) 0.428334(16) 0.749175(18)
Ag4 Ag 1.25337(2) 0.319150(16) 0.741860(19)
Se1 Se 1.17692(3) 0.47044(2) 0.91240(3)
Se2 Se 0.83352(3) 0.48336(2) 0.60189(3)
Se3 Se 0.93492(3) 0.27813(2) 0.90625(3)
Se4 Se 0.58924(3) 0.26963(2) 0.59458(3)
Se5 Se 0.67085(3) 0.47889(2) 0.90270(3)
Se6 Se 0.32605(3) 0.47397(2) 0.58920(3)
Se7 Se 1.08586(3) 0.27517(2) 0.58119(3)
Se8 Se 1.42963(3) 0.26923(2) 0.89363(3)
N1 N 1.0623(3) 0.44256(15) 0.8763(2)
N2 N 1.1691(3) 0.47227(16) 1.0049(2)
N3 N 0.9477(3) 0.45473(15) 0.6387(2)
N4 N 0.8357(3) 0.47811(16) 0.5076(2)
N5 N 0.8201(3) 0.30595(15) 0.8689(2)
N6 N 0.9279(3) 0.27780(15) 0.9992(2)
N7 N 0.7030(2) 0.29840(15) 0.6334(2)
N8 N 0.5935(3) 0.27514(15) 0.5009(2)
N9 N 0.5595(3) 0.44776(15) 0.8672(2)
N10 N 0.6671(3) 0.47690(15) 0.9967(2)
N11 N 0.4417(3) 0.44864(15) 0.6304(2)
N12 N 0.3345(3) 0.47075(16) 0.4965(2)
N13 N 1.2017(2) 0.30161(15) 0.6218(2)
N14 N 1.0959(3) 0.27799(15) 0.4886(2)
N15 N 1.3160(2) 0.29827(15) 0.8592(2)
N16 N 1.4277(3) 0.27095(16) 0.9875(2)
C1 C 1.0258(3) 0.43693(18) 0.9322(3)
C2 C 1.0864(3) 0.45299(18) 1.0040(3)
C3 C 1.0560(3) 0.44802(19) 1.0685(3)
H1 H 1.0945 0.4580 1.1150
C4 C 0.9696(3) 0.42846(18) 1.0601(3)
H2 H 0.9492 0.4244 1.1018
C5 C 0.9087(3) 0.41378(19) 0.9884(3)
H3 H 0.8490 0.4017 0.9846
C6 C 0.9355(3) 0.41692(18) 0.9259(3)
H4 H 0.8957 0.4063 0.8802
C7 C 0.9790(3) 0.44393(18) 0.5814(2)
C8 C 0.9162(3) 0.45660(18) 0.5091(3)
C9 C 0.9412(3) 0.44444(19) 0.4443(3)
H5 H 0.9009 0.4520 0.3972
C10 C 1.0250(4) 0.42158(19) 0.4522(3)
H6 H 1.0415 0.4128 0.4101
C11 C 1.0882(3) 0.41094(18) 0.5243(3)
H7 H 1.1460 0.3964 0.5277
C12 C 1.0676(3) 0.42103(18) 0.5881(3)
H8 H 1.1096 0.4133 0.6344
C13 C 0.7841(3) 0.31265(18) 0.9254(3)
C14 C 0.8454(3) 0.29700(18) 0.9978(3)
C15 C 0.8154(3) 0.30421(18) 1.0621(3)
H9 H 0.8534 0.2947 1.1090
C16 C 0.7295(3) 0.32532(18) 1.0528(3)
H10 H 0.7096 0.3307 1.0943
C17 C 0.6691(3) 0.33953(18) 0.9812(3)
H11 H 0.6102 0.3529 0.9774
C18 C 0.6947(3) 0.33414(17) 0.9190(3)
H12 H 0.6549 0.3442 0.8730
C19 C 0.7359(3) 0.30937(18) 0.5771(3)
C20 C 0.6750(3) 0.29680(18) 0.5036(3)
C21 C 0.7020(3) 0.30837(19) 0.4393(3)
H13 H 0.6623 0.3011 0.3919
C22 C 0.7868(3) 0.33018(19) 0.4488(3)
H14 H 0.8048 0.3383 0.4071
C23 C 0.8496(3) 0.34112(18) 0.5215(3)
H15 H 0.9083 0.3549 0.5258
C24 C 0.8256(3) 0.33188(18) 0.5843(3)
H16 H 0.8665 0.3400 0.6309
C25 C 0.5255(3) 0.43913(18) 0.9241(2)
C26 C 0.5865(3) 0.45488(18) 0.9965(3)
C27 C 0.5598(3) 0.44600(19) 1.0609(3)
H17 H 0.5988 0.4555 1.1075
C28 C 0.4759(3) 0.42326(19) 1.0536(3)
H18 H 0.4580 0.4170 1.0959
C29 C 0.4147(3) 0.40884(18) 0.9824(3)
H19 H 0.3567 0.3947 0.9794
C30 C 0.4387(3) 0.41510(18) 0.9189(3)
H20 H 0.3993 0.4040 0.8734
C31 C 0.4797(3) 0.44050(18) 0.5757(3)
C32 C 0.4200(3) 0.45229(18) 0.5019(3)
C33 C 0.4521(3) 0.44307(19) 0.4394(3)
H21 H 0.4143 0.4507 0.3915
C34 C 0.5394(4) 0.42291(19) 0.4510(3)
H22 H 0.5600 0.4155 0.4103
C35 C 0.5997(3) 0.41294(18) 0.5245(3)
H23 H 0.6599 0.4006 0.5305
C36 C 0.5718(3) 0.42084(18) 0.5862(3)
H24 H 0.6117 0.4136 0.6336
C37 C 1.2393(3) 0.30980(18) 0.5672(3)
C38 C 1.1795(3) 0.29696(18) 0.4930(3)
C39 C 1.2122(3) 0.30556(19) 0.4308(3)
H25 H 1.1744 0.2978 0.3830
C40 C 1.2996(3) 0.32528(18) 0.4423(3)
H26 H 1.3213 0.3316 0.4018
C41 C 1.3586(3) 0.33637(18) 0.5164(3)
H27 H 1.4190 0.3485 0.5224
C42 C 1.3312(3) 0.33017(17) 0.5771(3)
H28 H 1.3704 0.3388 0.6240
C43 C 1.2848(3) 0.30712(18) 0.9175(3)
C44 C 1.3481(3) 0.29224(18) 0.9888(3)
C45 C 1.3232(3) 0.30154(18) 1.0549(3)
H29 H 1.3635 0.2922 1.1012
C46 C 1.2399(4) 0.32428(19) 1.0495(3)
H30 H 1.2238 0.3311 1.0924
C47 C 1.1766(3) 0.33780(18) 0.9786(3)
H31 H 1.1191 0.3522 0.9766
C48 C 1.1977(3) 0.33033(19) 0.9136(3)
H32 H 1.1562 0.3402 0.8681
N21 N 1.0280(3) 0.30951(17) 0.7440(2)
O1 O 1.0669(2) 0.34599(13) 0.72394(19)
O2 O 1.0602(2) 0.26728(14) 0.7403(2)
O3 O 0.9596(2) 0.31611(14) 0.76722(19)
N22 N 0.7830(3) 0.44370(17) 0.7545(2)
O4 O 0.8210(2) 0.40657(12) 0.73532(19)
O5 O 0.7086(2) 0.43839(17) 0.7698(2)
O6 O 0.8232(2) 0.48479(14) 0.7591(2)
N23 N 0.5353(3) 0.30898(18) 0.7485(2)
O7 O 0.5759(2) 0.34684(13) 0.73260(18)
O8 O 0.5734(3) 0.26751(14) 0.7515(2)
O9 O 0.4588(2) 0.31496(17) 0.7609(2)
N24 N 1.2745(3) 0.43929(18) 0.7512(2)
O10 O 1.3143(2) 0.40351(13) 0.72886(19)
O11 O 1.2061(2) 0.43117(14) 0.7738(2)
O12 O 1.3073(3) 0.48151(14) 0.7507(2)
Ag3_2 Ag 1.49715(2) 0.428334(16) 0.749175(18)
O10_2 O 0.3143(2) 0.40351(13) 0.72886(19)
Se9 Se 0.70257(4) 0.31728(2) 0.24591(3)
N17 N 0.7235(3) 0.38255(16) 0.2442(2)
N18 N 0.8206(3) 0.30109(17) 0.2508(2)
C49 C 0.8129(4) 0.38819(19) 0.2457(3)
C50 C 0.8667(4) 0.3432(2) 0.2502(3)
C51 C 0.9651(4) 0.3452(2) 0.2558(3)
H33 H 1.0012 0.3167 0.2594
C52 C 1.0030(4) 0.3920(2) 0.2555(3)
H34 H 1.0666 0.3945 0.2593
C53 C 0.9509(4) 0.4357(2) 0.2498(3)
H35 H 0.9804 0.4660 0.2489
C54 C 0.8582(4) 0.4348(2) 0.2455(3)
H36 H 0.8246 0.4642 0.2424
Se10 Se 0.55575(4) 0.43343(2) 0.25399(3)
N19 N 0.5350(3) 0.36793(16) 0.2558(2)
N20 N 0.4373(3) 0.44990(17) 0.2484(2)
C55 C 0.4440(4) 0.3627(2) 0.2529(3)
C56 C 0.3906(4) 0.4083(2) 0.2471(3)
C57 C 0.2926(4) 0.4052(2) 0.2417(3)
H37 H 0.2563 0.4337 0.2379
C58 C 0.2547(4) 0.3599(2) 0.2423(3)
H38 H 0.1910 0.3576 0.2382
C59 C 0.3085(4) 0.3153(2) 0.2488(3)
H39 H 0.2791 0.2851 0.2503
C60 C 0.4006(3) 0.3156(2) 0.2530(3)
H40 H 0.4344 0.2863 0.2558
loop_
_geom_bond_atom_site_label_1
_geom_bond_atom_site_label_2
_geom_bond_site_symmetry_1
_geom_bond_site_symmetry_2
Ag1 N1 1_555 1_555
Ag2 N5 1_555 1_555
Ag3 N9 1_555 1_555
Ag4 N13 1_555 1_555
Se1 N1 1_555 1_555
Se2 N3 1_555 1_555
Se3 N5 1_555 1_555
Se4 N7 1_555 1_555
Se5 N9 1_555 1_555
Se6 N11 1_555 1_555
Se7 N13 1_555 1_555
Se8 N15 1_555 1_555
N1 C1 1_555 1_555
N2 Se1 1_555 1_555
N3 Ag1 1_555 1_555
N4 Se2 1_555 1_555
N5 C13 1_555 1_555
N6 Se3 1_555 1_555
N7 Ag2 1_555 1_555
N8 Se4 1_555 1_555
N9 C25 1_555 1_555
N10 Se5 1_555 1_555
N11 Ag3 1_555 1_555
N12 Se6 1_555 1_555
N13 C37 1_555 1_555
N14 Se7 1_555 1_555
N15 Ag4 1_555 1_555
N16 Se8 1_555 1_555
C1 C2 1_555 1_555
C2 N2 1_555 1_555
C3 C2 1_555 1_555
H1 C3 1_555 1_555
C4 C3 1_555 1_555
H2 C4 1_555 1_555
C5 C4 1_555 1_555
H3 C5 1_555 1_555
C6 C1 1_555 1_555
H4 C6 1_555 1_555
C7 N3 1_555 1_555
C8 N4 1_555 1_555
C9 C8 1_555 1_555
H5 C9 1_555 1_555
C10 C9 1_555 1_555
H6 C10 1_555 1_555
C11 C10 1_555 1_555
H7 C11 1_555 1_555
C12 C7 1_555 1_555
H8 C12 1_555 1_555
C13 C14 1_555 1_555
C14 N6 1_555 1_555
C15 C14 1_555 1_555
H9 C15 1_555 1_555
C16 C15 1_555 1_555
H10 C16 1_555 1_555
C17 C16 1_555 1_555
H11 C17 1_555 1_555
C18 C13 1_555 1_555
H12 C18 1_555 1_555
C19 N7 1_555 1_555
C20 N8 1_555 1_555
C21 C20 1_555 1_555
H13 C21 1_555 1_555
C22 C21 1_555 1_555
H14 C22 1_555 1_555
C23 C22 1_555 1_555
H15 C23 1_555 1_555
C24 C19 1_555 1_555
H16 C24 1_555 1_555
C25 C26 1_555 1_555
C26 N10 1_555 1_555
C27 C26 1_555 1_555
H17 C27 1_555 1_555
C28 C27 1_555 1_555
H18 C28 1_555 1_555
C29 C28 1_555 1_555
H19 C29 1_555 1_555
C30 C25 1_555 1_555
H20 C30 1_555 1_555
C31 N11 1_555 1_555
C32 N12 1_555 1_555
C33 C32 1_555 1_555
H21 C33 1_555 1_555
C34 C33 1_555 1_555
H22 C34 1_555 1_555
C35 C34 1_555 1_555
H23 C35 1_555 1_555
C36 C31 1_555 1_555
H24 C36 1_555 1_555
C37 C38 1_555 1_555
C38 N14 1_555 1_555
C39 C38 1_555 1_555
H25 C39 1_555 1_555
C40 C39 1_555 1_555
H26 C40 1_555 1_555
C41 C40 1_555 1_555
H27 C41 1_555 1_555
C42 C37 1_555 1_555
H28 C42 1_555 1_555
C43 N15 1_555 1_555
C44 N16 1_555 1_555
C45 C44 1_555 1_555
H29 C45 1_555 1_555
C46 C45 1_555 1_555
H30 C46 1_555 1_555
C47 C46 1_555 1_555
H31 C47 1_555 1_555
C48 C43 1_555 1_555
H32 C48 1_555 1_555
Se9 N17 1_555 1_555
N17 C49 1_555 1_555
N18 Se9 1_555 1_555
C49 C50 1_555 1_555
C50 N18 1_555 1_555
C51 C50 1_555 1_555
H33 C51 1_555 1_555
C52 C51 1_555 1_555
H34 C52 1_555 1_555
C53 C52 1_555 1_555
H35 C53 1_555 1_555
C54 C49 1_555 1_555
H36 C54 1_555 1_555
Se10 N19 1_555 1_555
N19 C55 1_555 1_555
N20 Se10 1_555 1_555
C55 C56 1_555 1_555
C56 N20 1_555 1_555
C57 C56 1_555 1_555
H37 C57 1_555 1_555
C58 C57 1_555 1_555
H38 C58 1_555 1_555
C59 C58 1_555 1_555
H39 C59 1_555 1_555
C60 C55 1_555 1_555
H40 C60 1_555 1_555
N21 O1 1_555 1_555
O1 Ag1 1_555 1_555
O2 N21 1_555 1_555
O3 N21 1_555 1_555
N22 O4 1_555 1_555
O4 Ag1 1_555 1_555
O5 N22 1_555 1_555
O6 N22 1_555 1_555
N23 O7 1_555 1_555
O7 Ag2 1_555 1_555
O8 N23 1_555 1_555
O9 N23 1_555 1_555
N24 O10 1_555 1_555
O10 Ag4 1_555 1_555
O11 N24 1_555 1_555
O12 N24 1_555 1_555
Ag3_2 O10 1_555 1_555
O10_2 Ag3 1_555 1_555
Ag2 O4 1_555 1_555
Ag3 O7 1_555 1_555
Ag4 O1 1_555 1_555
C5 C6 1_555 1_555
C7 C8 1_555 1_555
C11 C12 1_555 1_555
C17 C18 1_555 1_555
C19 C20 1_555 1_555
C23 C24 1_555 1_555
C29 C30 1_555 1_555
C31 C32 1_555 1_555
C35 C36 1_555 1_555
C41 C42 1_555 1_555
C43 C44 1_555 1_555
C47 C48 1_555 1_555
C53 C54 1_555 1_555
C59 C60 1_555 1_555

#END
