
#######################################################################
#
#                 Cambridge Crystallographic Data Centre
#                                CCDC 
#
#######################################################################
#
# If this CIF has been generated from an entry in the Cambridge 
# Structural Database, then it will include bibliographic, chemical, 
# crystal, experimental, refinement or atomic coordinate data resulting 
# from the CCDC's data processing and validation procedures.
#
#######################################################################

data_QARSIM03
_symmetry_cell_setting           triclinic
_symmetry_space_group_name_H-M   'P -1'
_symmetry_Int_Tables_number      2
_space_group_name_Hall           '-P 1'
loop_
_symmetry_equiv_pos_site_id
_symmetry_equiv_pos_as_xyz
1 x,y,z
2 -x,-y,-z
_cell_length_a                   11.3549(8)
_cell_length_b                   11.3690(12)
_cell_length_c                   7.8345(13)
_cell_angle_alpha                95.000(12)
_cell_angle_beta                 86.656(10)
_cell_angle_gamma                120.034(9)
_cell_volume                     872.127
loop_
_atom_site_label
_atom_site_type_symbol
_atom_site_fract_x
_atom_site_fract_y
_atom_site_fract_z
Fe1 Fe 0.0000 0.0000 0.0000
N1 N -0.2898(3) 0.0489(4) -0.2054(6)
N2 N -0.1868(4) 0.0845(4) -0.1008(5)
N3 N -0.1363(4) 0.0038(3) -0.1464(5)
C1 C -0.3747(4) 0.1123(4) -0.1785(7)
H1 H -0.3946 0.1320 -0.2905
H2 H -0.3247 0.1996 -0.1093
C2 C -0.5091(4) 0.0188(4) -0.0860(7)
H3 H -0.5637 0.0650 -0.0704
H4 H -0.5612 -0.0656 -0.1597
C3 C -0.2085(4) -0.0833(5) -0.2808(7)
H5 H -0.1929 -0.1516 -0.3378
C4 C -0.3056(5) -0.0552(5) -0.3183(7)
H6 H -0.3714 -0.0991 -0.4057
N4 N 0.3583(4) 0.2807(4) -0.2006(6)
N5 N 0.2798(3) 0.1811(3) -0.0956(6)
N6 N 0.1529(4) 0.1315(4) -0.1453(5)
C5 C 0.5053(4) 0.3642(4) -0.1645(7)
H7 H 0.5586 0.3752 -0.2725
H8 H 0.5312 0.3176 -0.0860
C6 C 0.5381(4) 0.5048(4) -0.0826(7)
H9 H 0.6370 0.5600 -0.0615
H10 H 0.5148 0.5520 -0.1634
C7 C 0.1513(4) 0.1992(4) -0.2766(7)
H11 H 0.0724 0.1834 -0.3331
C8 C 0.2838(4) 0.2956(5) -0.3155(6)
H12 H 0.3151 0.3579 -0.4030
N7 N -0.0580(4) -0.3635(3) -0.2046(6)
N8 N -0.0880(3) -0.2837(3) -0.0972(6)
N9 N -0.0076(3) -0.1570(3) -0.1447(5)
C9 C -0.1204(4) -0.5086(4) -0.1722(7)
H13 H -0.1498 -0.5639 -0.2823
H14 H -0.2023 -0.5348 -0.0981
C10 C -0.0241(4) -0.5396(4) -0.0872(7)
H15 H 0.0561 -0.5167 -0.1634
H16 H -0.0701 -0.6384 -0.0711
C11 C 0.0717(5) -0.1591(4) -0.2819(7)
H17 H 0.1370 -0.0824 -0.3402
C12 C 0.0406(5) -0.2904(5) -0.3203(7)
H18 H 0.0794 -0.3237 -0.4086
Fe1_2 Fe -1.0000 0.0000 0.0000
Fe1_3 Fe 0.0000 -1.0000 0.0000
Fe1_4 Fe 1.0000 1.0000 0.0000
N1A N -0.7102(3) -0.0489(4) 0.2054(6)
N2A N -0.8132(4) -0.0845(4) 0.1008(5)
N3A N -0.8637(4) -0.0038(3) 0.1464(5)
N3A_2 N 0.1363(4) -0.0038(3) 0.1464(5)
C1A C -0.6253(4) -0.1123(4) 0.1785(7)
H1A H -0.6054 -0.1320 0.2905
H2A H -0.6753 -0.1996 0.1093
C2A C -0.4909(4) -0.0188(4) 0.0860(7)
H3A H -0.4363 -0.0650 0.0704
H4A H -0.4388 0.0656 0.1597
C3A C -0.7915(4) 0.0833(5) 0.2808(7)
H5A H -0.8071 0.1516 0.3378
C4A C -0.6944(5) 0.0552(5) 0.3183(7)
H6A H -0.6286 0.0991 0.4057
N4A N 0.6417(4) 0.7193(4) 0.2006(6)
N5A N 0.7202(3) 0.8189(3) 0.0956(6)
N6A N 0.8471(4) 0.8685(4) 0.1453(5)
N6A_2 N -0.1529(4) -0.1315(4) 0.1453(5)
C5A C 0.4947(4) 0.6358(4) 0.1645(7)
H7A H 0.4414 0.6248 0.2725
H8A H 0.4688 0.6824 0.0860
C6A C 0.4619(4) 0.4952(4) 0.0826(7)
H9A H 0.3630 0.4400 0.0615
H10A H 0.4852 0.4480 0.1634
C7A C 0.8487(4) 0.8008(4) 0.2766(7)
H11A H 0.9276 0.8166 0.3331
C8A C 0.7162(4) 0.7044(5) 0.3155(6)
H12A H 0.6849 0.6421 0.4030
N7A N 0.0580(4) -0.6365(3) 0.2046(6)
N8A N 0.0880(3) -0.7163(3) 0.0972(6)
N9A N 0.0076(3) -0.8430(3) 0.1447(5)
N9A_2 N 0.0076(3) 0.1570(3) 0.1447(5)
C9A C 0.1204(4) -0.4914(4) 0.1722(7)
H13A H 0.1498 -0.4361 0.2823
H14A H 0.2023 -0.4652 0.0981
C10A C 0.0241(4) -0.4604(4) 0.0872(7)
H15A H -0.0561 -0.4833 0.1634
H16A H 0.0701 -0.3616 0.0711
C11A C -0.0717(5) -0.8409(4) 0.2819(7)
H17A H -0.1370 -0.9176 0.3402
C12A C -0.0406(5) -0.7096(5) 0.3203(7)
H18A H -0.0794 -0.6763 0.4086
Cl1 Cl 0.33720(11) -0.35478(11) -0.36728(16)
O1 O 0.3322(4) -0.3413(4) -0.1854(5)
O2 O 0.3594(4) -0.2336(4) -0.4365(6)
O3 O 0.4487(4) -0.3787(4) -0.4206(6)
O4 O 0.2101(4) -0.4680(4) -0.4293(6)
loop_
_geom_bond_atom_site_label_1
_geom_bond_atom_site_label_2
_geom_bond_site_symmetry_1
_geom_bond_site_symmetry_2
Fe1 N3 1_555 1_555
N1 N2 1_555 1_555
N2 N3 1_555 1_555
N3 C3 1_555 1_555
C1 N1 1_555 1_555
H1 C1 1_555 1_555
H2 C1 1_555 1_555
C2 C1 1_555 1_555
H3 C2 1_555 1_555
H4 C2 1_555 1_555
C3 H5 1_555 1_555
C4 N1 1_555 1_555
H6 C4 1_555 1_555
N4 N5 1_555 1_555
N5 N6 1_555 1_555
N6 Fe1 1_555 1_555
C5 N4 1_555 1_555
H7 C5 1_555 1_555
H8 C5 1_555 1_555
C6 C5 1_555 1_555
H9 C6 1_555 1_555
H10 C6 1_555 1_555
C7 N6 1_555 1_555
H11 C7 1_555 1_555
C8 N4 1_555 1_555
H12 C8 1_555 1_555
N7 N8 1_555 1_555
N8 N9 1_555 1_555
N9 Fe1 1_555 1_555
C9 N7 1_555 1_555
H13 C9 1_555 1_555
H14 C9 1_555 1_555
C10 C9 1_555 1_555
H15 C10 1_555 1_555
H16 C10 1_555 1_555
C11 N9 1_555 1_555
H17 C11 1_555 1_555
C12 N7 1_555 1_555
H18 C12 1_555 1_555
Cl1 O1 1_555 1_555
O2 Cl1 1_555 1_555
O3 Cl1 1_555 1_555
O4 Cl1 1_555 1_555
Fe1_2 N3A 1_555 1_555
Fe1_3 N9A 1_555 1_555
Fe1_4 N6A 1_555 1_555
N1A N2A 1_555 1_555
N2A N3A 1_555 1_555
N3A C3A 1_555 1_555
N3A_2 Fe1 1_555 1_555
C1A N1A 1_555 1_555
H1A C1A 1_555 1_555
H2A C1A 1_555 1_555
C2A C2 1_555 1_555
H3A C2A 1_555 1_555
H4A C2A 1_555 1_555
C3A H5A 1_555 1_555
C4A N1A 1_555 1_555
H6A C4A 1_555 1_555
N4A N5A 1_555 1_555
N5A N6A 1_555 1_555
N6A C7A 1_555 1_555
N6A_2 Fe1 1_555 1_555
C5A N4A 1_555 1_555
H7A C5A 1_555 1_555
H8A C5A 1_555 1_555
C6A C6 1_555 1_555
H9A C6A 1_555 1_555
H10A C6A 1_555 1_555
C7A H11A 1_555 1_555
C8A N4A 1_555 1_555
H12A C8A 1_555 1_555
N7A N8A 1_555 1_555
N8A N9A 1_555 1_555
N9A C11A 1_555 1_555
N9A_2 Fe1 1_555 1_555
C9A N7A 1_555 1_555
H13A C9A 1_555 1_555
H14A C9A 1_555 1_555
C10A C10 1_555 1_555
H15A C10A 1_555 1_555
H16A C10A 1_555 1_555
C11A H17A 1_555 1_555
C12A N7A 1_555 1_555
H18A C12A 1_555 1_555
C3 C4 1_555 1_555
C7 C8 1_555 1_555
C11 C12 1_555 1_555
C1A C2A 1_555 1_555
C3A C4A 1_555 1_555
C5A C6A 1_555 1_555
C7A C8A 1_555 1_555
C9A C10A 1_555 1_555
C11A C12A 1_555 1_555

#END
