
#######################################################################
#
#                 Cambridge Crystallographic Data Centre
#                                CCDC 
#
#######################################################################
#
# If this CIF has been generated from an entry in the Cambridge 
# Structural Database, then it will include bibliographic, chemical, 
# crystal, experimental, refinement or atomic coordinate data resulting 
# from the CCDC's data processing and validation procedures.
#
#######################################################################

data_QARSIM04
_symmetry_cell_setting           triclinic
_symmetry_space_group_name_H-M   'P -1'
_symmetry_Int_Tables_number      2
_space_group_name_Hall           '-P 1'
loop_
_symmetry_equiv_pos_site_id
_symmetry_equiv_pos_as_xyz
1 x,y,z
2 -x,-y,-z
_cell_length_a                   11.6013(14)
_cell_length_b                   11.6171(16)
_cell_length_c                   7.717(3)
_cell_angle_alpha                90.36(2)
_cell_angle_beta                 89.88(2)
_cell_angle_gamma                119.961(14)
_cell_volume                     901.042
loop_
_atom_site_label
_atom_site_type_symbol
_atom_site_fract_x
_atom_site_fract_y
_atom_site_fract_z
Fe1 Fe 0.0000 0.0000 0.0000
N1 N -0.2977(2) 0.0640(3) -0.2071(4)
N2 N -0.1901(2) 0.0943(3) -0.1103(4)
N3 N -0.1452(2) 0.0169(3) -0.1624(4)
C1 C -0.3782(3) 0.1264(3) -0.1690(5)
H1 H -0.3959 0.1595 -0.2778
H2 H -0.3281 0.2033 -0.0904
C2 C -0.5098(3) 0.0278(3) -0.0847(5)
H3 H -0.5616 -0.0465 -0.1663
H4 H -0.5619 0.0725 -0.0612
C3 C -0.2237(3) -0.0635(3) -0.2905(5)
H5 H -0.2125 -0.1290 -0.3502
C4 C -0.3225(3) -0.0338(4) -0.3190(5)
H6 H -0.3931 -0.0740 -0.4006
N4 N 0.3619(3) 0.2981(3) -0.2076(4)
N5 N 0.2851(3) 0.1906(3) -0.1100(4)
N6 N 0.1625(2) 0.1454(3) -0.1622(4)
C5 C 0.5051(3) 0.3786(3) -0.1686(5)
H7 H 0.5567 0.3956 -0.2771
H8 H 0.5313 0.3287 -0.0897
C6 C 0.5381(3) 0.5102(3) -0.0847(5)
H9 H 0.5155 0.5616 -0.1658
H10 H 0.6349 0.5623 -0.0612
C7 C 0.1612(3) 0.2242(3) -0.2904(5)
H11 H 0.0845 0.2127 -0.3499
C8 C 0.2899(3) 0.3235(4) -0.3193(5)
H12 H 0.3205 0.3941 -0.4002
N7 N -0.0634(3) -0.3616(3) -0.2070(4)
N8 N -0.0942(3) -0.2847(3) -0.1104(4)
N9 N -0.0168(2) -0.1620(3) -0.1624(4)
C9 C -0.1256(3) -0.5045(3) -0.1689(5)
H13 H -0.1594 -0.5561 -0.2778
H14 H -0.2022 -0.5307 -0.0903
C10 C -0.0273(3) -0.5377(3) -0.0849(5)
H15 H 0.0474 -0.5150 -0.1657
H16 H -0.0720 -0.6343 -0.0626
C11 C 0.0647(3) -0.1602(3) -0.2906(5)
H17 H 0.1303 -0.0838 -0.3493
C12 C 0.0349(4) -0.2889(4) -0.3197(5)
H18 H 0.0748 -0.3198 -0.4013
Fe1_2 Fe -1.0000 0.0000 0.0000
Fe1_3 Fe 0.0000 -1.0000 0.0000
Fe1_4 Fe 1.0000 1.0000 0.0000
N1A N -0.7023(2) -0.0640(3) 0.2071(4)
N2A N -0.8099(2) -0.0943(3) 0.1103(4)
N3A N -0.8548(2) -0.0169(3) 0.1624(4)
N3A_2 N 0.1452(2) -0.0169(3) 0.1624(4)
C1A C -0.6218(3) -0.1264(3) 0.1690(5)
H1A H -0.6041 -0.1595 0.2778
H2A H -0.6719 -0.2033 0.0904
C2A C -0.4902(3) -0.0278(3) 0.0847(5)
H3A H -0.4384 0.0465 0.1663
H4A H -0.4381 -0.0725 0.0612
C3A C -0.7763(3) 0.0635(3) 0.2905(5)
H5A H -0.7875 0.1290 0.3502
C4A C -0.6775(3) 0.0338(4) 0.3190(5)
H6A H -0.6069 0.0740 0.4006
N4A N 0.6381(3) 0.7019(3) 0.2076(4)
N5A N 0.7149(3) 0.8094(3) 0.1100(4)
N6A N 0.8375(2) 0.8546(3) 0.1622(4)
N6A_2 N -0.1625(2) -0.1454(3) 0.1622(4)
C5A C 0.4949(3) 0.6214(3) 0.1686(5)
H7A H 0.4433 0.6044 0.2771
H8A H 0.4687 0.6713 0.0897
C6A C 0.4619(3) 0.4898(3) 0.0847(5)
H9A H 0.4845 0.4384 0.1658
H10A H 0.3651 0.4377 0.0612
C7A C 0.8388(3) 0.7758(3) 0.2904(5)
H11A H 0.9155 0.7873 0.3499
C8A C 0.7101(3) 0.6765(4) 0.3193(5)
H12A H 0.6795 0.6059 0.4002
N7A N 0.0634(3) -0.6384(3) 0.2070(4)
N8A N 0.0942(3) -0.7153(3) 0.1104(4)
N9A N 0.0168(2) -0.8380(3) 0.1624(4)
N9A_2 N 0.0168(2) 0.1620(3) 0.1624(4)
C9A C 0.1256(3) -0.4955(3) 0.1689(5)
H13A H 0.1594 -0.4439 0.2778
H14A H 0.2022 -0.4693 0.0903
C10A C 0.0273(3) -0.4623(3) 0.0849(5)
H15A H -0.0474 -0.4850 0.1657
H16A H 0.0720 -0.3657 0.0626
C11A C -0.0647(3) -0.8398(3) 0.2906(5)
H17A H -0.1303 -0.9162 0.3493
C12A C -0.0349(4) -0.7111(4) 0.3197(5)
H18A H -0.0748 -0.6802 0.4013
Cl1 Cl 0.33406(8) -0.33315(9) -0.35919(12)
O1 O 0.3337(3) -0.3337(3) -0.1733(4)
O2 O 0.3477(3) -0.2096(3) -0.4218(5)
O3 O 0.4447(3) -0.3459(3) -0.4220(4)
O4 O 0.2107(3) -0.4432(3) -0.4220(5)
loop_
_geom_bond_atom_site_label_1
_geom_bond_atom_site_label_2
_geom_bond_site_symmetry_1
_geom_bond_site_symmetry_2
Fe1 N3 1_555 1_555
N1 N2 1_555 1_555
N2 N3 1_555 1_555
N3 C3 1_555 1_555
C1 N1 1_555 1_555
H1 C1 1_555 1_555
H2 C1 1_555 1_555
C2 C1 1_555 1_555
H3 C2 1_555 1_555
H4 C2 1_555 1_555
C3 H5 1_555 1_555
C4 N1 1_555 1_555
H6 C4 1_555 1_555
N4 N5 1_555 1_555
N5 N6 1_555 1_555
N6 Fe1 1_555 1_555
C5 N4 1_555 1_555
H7 C5 1_555 1_555
H8 C5 1_555 1_555
C6 C5 1_555 1_555
H9 C6 1_555 1_555
H10 C6 1_555 1_555
C7 N6 1_555 1_555
H11 C7 1_555 1_555
C8 N4 1_555 1_555
H12 C8 1_555 1_555
N7 N8 1_555 1_555
N8 N9 1_555 1_555
N9 Fe1 1_555 1_555
C9 N7 1_555 1_555
H13 C9 1_555 1_555
H14 C9 1_555 1_555
C10 C9 1_555 1_555
H15 C10 1_555 1_555
H16 C10 1_555 1_555
C11 N9 1_555 1_555
H17 C11 1_555 1_555
C12 N7 1_555 1_555
H18 C12 1_555 1_555
Cl1 O1 1_555 1_555
O2 Cl1 1_555 1_555
O3 Cl1 1_555 1_555
O4 Cl1 1_555 1_555
Fe1_2 N3A 1_555 1_555
Fe1_3 N9A 1_555 1_555
Fe1_4 N6A 1_555 1_555
N1A N2A 1_555 1_555
N2A N3A 1_555 1_555
N3A C3A 1_555 1_555
N3A_2 Fe1 1_555 1_555
C1A N1A 1_555 1_555
H1A C1A 1_555 1_555
H2A C1A 1_555 1_555
C2A C2 1_555 1_555
H3A C2A 1_555 1_555
H4A C2A 1_555 1_555
C3A H5A 1_555 1_555
C4A N1A 1_555 1_555
H6A C4A 1_555 1_555
N4A N5A 1_555 1_555
N5A N6A 1_555 1_555
N6A C7A 1_555 1_555
N6A_2 Fe1 1_555 1_555
C5A N4A 1_555 1_555
H7A C5A 1_555 1_555
H8A C5A 1_555 1_555
C6A C6 1_555 1_555
H9A C6A 1_555 1_555
H10A C6A 1_555 1_555
C7A H11A 1_555 1_555
C8A N4A 1_555 1_555
H12A C8A 1_555 1_555
N7A N8A 1_555 1_555
N8A N9A 1_555 1_555
N9A C11A 1_555 1_555
N9A_2 Fe1 1_555 1_555
C9A N7A 1_555 1_555
H13A C9A 1_555 1_555
H14A C9A 1_555 1_555
C10A C10 1_555 1_555
H15A C10A 1_555 1_555
H16A C10A 1_555 1_555
C11A H17A 1_555 1_555
C12A N7A 1_555 1_555
H18A C12A 1_555 1_555
C3 C4 1_555 1_555
C7 C8 1_555 1_555
C11 C12 1_555 1_555
C1A C2A 1_555 1_555
C3A C4A 1_555 1_555
C5A C6A 1_555 1_555
C7A C8A 1_555 1_555
C9A C10A 1_555 1_555
C11A C12A 1_555 1_555

#END
