
#######################################################################
#
#                 Cambridge Crystallographic Data Centre
#                                CCDC 
#
#######################################################################
#
# If this CIF has been generated from an entry in the Cambridge 
# Structural Database, then it will include bibliographic, chemical, 
# crystal, experimental, refinement or atomic coordinate data resulting 
# from the CCDC's data processing and validation procedures.
#
#######################################################################

data_QARSIM02
_symmetry_cell_setting           trigonal
_symmetry_space_group_name_H-M   'P -3'
_symmetry_Int_Tables_number      147
_space_group_name_Hall           '-P 3'
loop_
_symmetry_equiv_pos_site_id
_symmetry_equiv_pos_as_xyz
1 x,y,z
2 -y,x-y,z
3 -x+y,-x,z
4 -x,-y,-z
5 y,-x+y,-z
6 x-y,x,-z
_cell_length_a                   11.6562(12)
_cell_length_b                   11.6562(12)
_cell_length_c                   7.7453(9)
_cell_angle_alpha                90
_cell_angle_beta                 90
_cell_angle_gamma                120
_cell_volume                     911.345
loop_
_atom_site_label
_atom_site_type_symbol
_atom_site_fract_x
_atom_site_fract_y
_atom_site_fract_z
Fe1 Fe 0.0000 0.0000 0.0000
N1 N 0.3621(2) 0.0644(2) 0.2068(3)
N2 N 0.2855(2) 0.0949(2) 0.1097(3)
N3 N 0.1621(2) 0.0172(2) 0.1624(3)
C1 C 0.5043(3) 0.1264(3) 0.1666(4)
C2 C 0.5369(3) 0.0276(3) 0.0845(4)
C3 C 0.1613(3) -0.0623(3) 0.2911(4)
C4 C 0.2888(3) -0.0327(3) 0.3203(4)
H1 H 0.523(3) 0.200(3) 0.088(4)
H2 H 0.552(3) 0.160(3) 0.270(4)
H3 H 0.515(3) -0.047(3) 0.171(4)
H4 H 0.635(4) 0.078(3) 0.064(4)
H5 H 0.081(4) -0.127(4) 0.350(5)
H6 H 0.325(4) -0.069(4) 0.396(4)
Fe1_2 Fe 1.0000 0.0000 0.0000
Fe1_3 Fe 0.0000 1.0000 0.0000
Fe1_4 Fe -1.0000 -1.0000 0.0000
N1C N 0.6379(2) -0.0644(2) -0.2068(3)
N1A N -0.0644(2) 0.2977(3) 0.2068(3)
N1D N 0.0644(2) 0.7023(3) -0.2068(3)
N1B N -0.2977(3) -0.3621(2) 0.2068(3)
N1E N -0.7023(3) -0.6379(2) -0.2068(3)
N2C N 0.7145(2) -0.0949(2) -0.1097(3)
N2A N -0.0949(2) 0.1906(3) 0.1097(3)
N2D N 0.0949(2) 0.8094(3) -0.1097(3)
N2B N -0.1906(3) -0.2855(2) 0.1097(3)
N2E N -0.8094(3) -0.7145(2) -0.1097(3)
N3C N 0.8379(2) -0.0172(2) -0.1624(3)
N3A N -0.0172(2) 0.1449(3) 0.1624(3)
N3D N 0.0172(2) 0.8551(3) -0.1624(3)
N3B N -0.1449(3) -0.1621(2) 0.1624(3)
N3E N -0.8551(3) -0.8379(2) -0.1624(3)
N3C_2 N -0.1621(2) -0.0172(2) -0.1624(3)
N3D_2 N 0.0172(2) -0.1449(3) -0.1624(3)
N3E_2 N 0.1449(3) 0.1621(2) -0.1624(3)
C1C C 0.4957(3) -0.1264(3) -0.1666(4)
C1A C -0.1264(3) 0.3779(4) 0.1666(4)
C1D C 0.1264(3) 0.6221(4) -0.1666(4)
C1B C -0.3779(4) -0.5043(3) 0.1666(4)
C1E C -0.6221(4) -0.4957(3) -0.1666(4)
C2C C 0.4631(3) -0.0276(3) -0.0845(4)
C2A C -0.0276(3) 0.5093(4) 0.0845(4)
C2D C 0.0276(3) 0.4907(4) -0.0845(4)
C2B C -0.5093(4) -0.5369(3) 0.0845(4)
C2E C -0.4907(4) -0.4631(3) -0.0845(4)
C3C C 0.8387(3) 0.0623(3) -0.2911(4)
C3A C 0.0623(3) 0.2236(4) 0.2911(4)
C3D C -0.0623(3) 0.7764(4) -0.2911(4)
C3B C -0.2236(4) -0.1613(3) 0.2911(4)
C3E C -0.7764(4) -0.8387(3) -0.2911(4)
C4C C 0.7112(3) 0.0327(3) -0.3203(4)
C4A C 0.0327(3) 0.3215(4) 0.3203(4)
C4D C -0.0327(3) 0.6785(4) -0.3203(4)
C4B C -0.3215(4) -0.2888(3) 0.3203(4)
C4E C -0.6785(4) -0.7112(3) -0.3203(4)
H1C H 0.477(3) -0.200(3) -0.088(4)
H1A H -0.200(3) 0.323(4) 0.088(4)
H1D H 0.200(3) 0.677(4) -0.088(4)
H1B H -0.323(4) -0.523(3) 0.088(4)
H1E H -0.677(4) -0.477(3) -0.088(4)
H2C H 0.448(3) -0.160(3) -0.270(4)
H2A H -0.160(3) 0.392(4) 0.270(4)
H2D H 0.160(3) 0.608(4) -0.270(4)
H2B H -0.392(4) -0.552(3) 0.270(4)
H2E H -0.608(4) -0.448(3) -0.270(4)
H3C H 0.485(3) 0.047(3) -0.171(4)
H3A H 0.047(3) 0.562(4) 0.171(4)
H3D H -0.047(3) 0.438(4) -0.171(4)
H3B H -0.562(4) -0.515(3) 0.171(4)
H3E H -0.438(4) -0.485(3) -0.171(4)
H4C H 0.365(4) -0.078(3) -0.064(4)
H4A H -0.078(3) 0.557(5) 0.064(4)
H4D H 0.078(3) 0.443(5) -0.064(4)
H4B H -0.557(5) -0.635(4) 0.064(4)
H4E H -0.443(5) -0.365(4) -0.064(4)
H5C H 0.919(4) 0.127(4) -0.350(5)
H5A H 0.127(4) 0.208(6) 0.350(5)
H5D H -0.127(4) 0.792(6) -0.350(5)
H5B H -0.208(6) -0.081(4) 0.350(5)
H5E H -0.792(6) -0.919(4) -0.350(5)
H6C H 0.675(4) 0.069(4) -0.396(4)
H6A H 0.069(4) 0.394(6) 0.396(4)
H6D H -0.069(4) 0.606(6) -0.396(4)
H6B H -0.394(6) -0.325(4) 0.396(4)
H6E H -0.606(6) -0.675(4) -0.396(4)
Cl1 Cl 0.3333 0.6667 0.35928(15)
O1 O 0.3333 0.6667 0.1736(4)
O2 O 0.3462(3) 0.5571(3) 0.4215(3)
O2A O 0.4429(3) 0.7891(4) 0.4215(3)
O2B O 0.2109(4) 0.6538(3) 0.4215(3)
loop_
_geom_bond_atom_site_label_1
_geom_bond_atom_site_label_2
_geom_bond_site_symmetry_1
_geom_bond_site_symmetry_2
Fe1 N3 1_555 1_555
N1 N2 1_555 1_555
N2 N3 1_555 1_555
N3 C3 1_555 1_555
C1 N1 1_555 1_555
C2 C1 1_555 1_555
C3 C4 1_555 1_555
C4 N1 1_555 1_555
Cl1 O1 1_555 1_555
O2 Cl1 1_555 1_555
H1 C1 1_555 1_555
H2 C1 1_555 1_555
H3 C2 1_555 1_555
H4 C2 1_555 1_555
H5 C3 1_555 1_555
H6 C4 1_555 1_555
Fe1_2 N3C 1_555 1_555
Fe1_3 N3D 1_555 1_555
Fe1_4 N3E 1_555 1_555
N1C N2C 1_555 1_555
N1A N2A 1_555 1_555
N1D N2D 1_555 1_555
N1B N2B 1_555 1_555
N1E N2E 1_555 1_555
N2C N3C 1_555 1_555
N2A N3A 1_555 1_555
N2D N3D 1_555 1_555
N2B N3B 1_555 1_555
N2E N3E 1_555 1_555
N3C C3C 1_555 1_555
N3A Fe1 1_555 1_555
N3D C3D 1_555 1_555
N3B Fe1 1_555 1_555
N3E C3E 1_555 1_555
N3C_2 Fe1 1_555 1_555
N3D_2 Fe1 1_555 1_555
N3E_2 Fe1 1_555 1_555
C1C N1C 1_555 1_555
C1A N1A 1_555 1_555
C1D N1D 1_555 1_555
C1B N1B 1_555 1_555
C1E N1E 1_555 1_555
C2C C2 1_555 1_555
C2A C1A 1_555 1_555
C2D C1D 1_555 1_555
C2B C1B 1_555 1_555
C2E C1E 1_555 1_555
C3C C4C 1_555 1_555
C3A N3A 1_555 1_555
C3D C4D 1_555 1_555
C3B N3B 1_555 1_555
C3E C4E 1_555 1_555
C4C N1C 1_555 1_555
C4A N1A 1_555 1_555
C4D N1D 1_555 1_555
C4B N1B 1_555 1_555
C4E N1E 1_555 1_555
O2A Cl1 1_555 1_555
O2B Cl1 1_555 1_555
H1C C1C 1_555 1_555
H1A C1A 1_555 1_555
H1D C1D 1_555 1_555
H1B C1B 1_555 1_555
H1E C1E 1_555 1_555
H2C C1C 1_555 1_555
H2A C1A 1_555 1_555
H2D C1D 1_555 1_555
H2B C1B 1_555 1_555
H2E C1E 1_555 1_555
H3C C2C 1_555 1_555
H3A C2A 1_555 1_555
H3D C2D 1_555 1_555
H3B C2B 1_555 1_555
H3E C2E 1_555 1_555
H4C C2C 1_555 1_555
H4A C2A 1_555 1_555
H4D C2D 1_555 1_555
H4B C2B 1_555 1_555
H4E C2E 1_555 1_555
H5C C3C 1_555 1_555
H5A C3A 1_555 1_555
H5D C3D 1_555 1_555
H5B C3B 1_555 1_555
H5E C3E 1_555 1_555
H6C C4C 1_555 1_555
H6A C4A 1_555 1_555
H6D C4D 1_555 1_555
H6B C4B 1_555 1_555
H6E C4E 1_555 1_555
C1C C2C 1_555 1_555
C2A C2D 1_555 1_555
C2B C2E 1_555 1_555
C3A C4A 1_555 1_555
C3B C4B 1_555 1_555

#END
