
#######################################################################
#
#                 Cambridge Crystallographic Data Centre
#                                CCDC 
#
#######################################################################
#
# If this CIF has been generated from an entry in the Cambridge 
# Structural Database, then it will include bibliographic, chemical, 
# crystal, experimental, refinement or atomic coordinate data resulting 
# from the CCDC's data processing and validation procedures.
#
#######################################################################

data_QARSIM05
_symmetry_cell_setting           triclinic
_symmetry_space_group_name_H-M   'P -1'
_symmetry_Int_Tables_number      2
_space_group_name_Hall           '-P 1'
loop_
_symmetry_equiv_pos_site_id
_symmetry_equiv_pos_as_xyz
1 x,y,z
2 -x,-y,-z
_cell_length_a                   11.3674(7)
_cell_length_b                   11.3909(10)
_cell_length_c                   7.8457(12)
_cell_angle_alpha                94.934(11)
_cell_angle_beta                 86.725(9)
_cell_angle_gamma                120.082(8)
_cell_volume                     875.694
loop_
_atom_site_label
_atom_site_type_symbol
_atom_site_fract_x
_atom_site_fract_y
_atom_site_fract_z
Fe1 Fe 0.0000 0.0000 0.0000
N1 N -0.2900(3) 0.0485(3) -0.2064(4)
N2 N -0.1873(2) 0.0845(3) -0.1008(4)
N3 N -0.1360(3) 0.0041(3) -0.1470(4)
C1 C -0.3743(3) 0.1126(3) -0.1772(5)
H1 H -0.3933 0.1343 -0.2883
H2 H -0.3238 0.1989 -0.1066
C2 C -0.5092(3) 0.0195(3) -0.0865(5)
H3 H -0.5615 -0.0644 -0.1607
H4 H -0.5631 0.0661 -0.0703
C3 C -0.2082(3) -0.0819(3) -0.2803(5)
H5 H -0.1929 -0.1502 -0.3373
C4 C -0.3062(3) -0.0538(4) -0.3183(5)
H6 H -0.3720 -0.0973 -0.4055
N4 N 0.3582(3) 0.2802(3) -0.2005(4)
N5 N 0.2796(3) 0.1815(2) -0.0947(4)
N6 N 0.1527(2) 0.1315(2) -0.1444(4)
C5 C 0.5044(3) 0.3646(3) -0.1646(5)
H7 H 0.5575 0.3756 -0.2725
H8 H 0.5309 0.3184 -0.0862
C6 C 0.5379(3) 0.5042(3) -0.0836(5)
H9 H 0.5146 0.5514 -0.1643
H10 H 0.6369 0.5589 -0.0633
C7 C 0.1505(3) 0.1986(3) -0.2773(5)
H11 H 0.0718 0.1823 -0.3347
C8 C 0.2835(3) 0.2952(3) -0.3147(5)
H12 H 0.3149 0.3581 -0.4014
N7 N -0.0580(3) -0.3632(3) -0.2043(4)
N8 N -0.0879(3) -0.2828(2) -0.0973(4)
N9 N -0.0083(3) -0.1568(2) -0.1443(4)
C9 C -0.1210(3) -0.5083(3) -0.1731(5)
H13 H -0.1497 -0.5632 -0.2833
H14 H -0.2031 -0.5350 -0.0997
C10 C -0.0232(3) -0.5388(3) -0.0865(5)
H15 H -0.0685 -0.6376 -0.0710
H16 H 0.0574 -0.5149 -0.1619
C11 C 0.0713(3) -0.1585(3) -0.2816(5)
H17 H 0.1364 -0.0818 -0.3399
C12 C 0.0405(4) -0.2900(3) -0.3196(5)
H18 H 0.0795 -0.3231 -0.4076
Fe1_2 Fe -1.0000 0.0000 0.0000
Fe1_3 Fe 0.0000 -1.0000 0.0000
Fe1_4 Fe 1.0000 1.0000 0.0000
N1A N -0.7100(3) -0.0485(3) 0.2064(4)
N2A N -0.8127(2) -0.0845(3) 0.1008(4)
N3A N -0.8640(3) -0.0041(3) 0.1470(4)
N3A_2 N 0.1360(3) -0.0041(3) 0.1470(4)
C1A C -0.6257(3) -0.1126(3) 0.1772(5)
H1A H -0.6067 -0.1343 0.2883
H2A H -0.6762 -0.1989 0.1066
C2A C -0.4908(3) -0.0195(3) 0.0865(5)
H3A H -0.4385 0.0644 0.1607
H4A H -0.4369 -0.0661 0.0703
C3A C -0.7918(3) 0.0819(3) 0.2803(5)
H5A H -0.8071 0.1502 0.3373
C4A C -0.6938(3) 0.0538(4) 0.3183(5)
H6A H -0.6280 0.0973 0.4055
N4A N 0.6418(3) 0.7198(3) 0.2005(4)
N5A N 0.7204(3) 0.8185(2) 0.0947(4)
N6A N 0.8473(2) 0.8685(2) 0.1444(4)
N6A_2 N -0.1527(2) -0.1315(2) 0.1444(4)
C5A C 0.4956(3) 0.6354(3) 0.1646(5)
H7A H 0.4425 0.6244 0.2725
H8A H 0.4691 0.6816 0.0862
C6A C 0.4621(3) 0.4958(3) 0.0836(5)
H9A H 0.4854 0.4486 0.1643
H10A H 0.3631 0.4411 0.0633
C7A C 0.8495(3) 0.8014(3) 0.2773(5)
H11A H 0.9282 0.8177 0.3347
C8A C 0.7165(3) 0.7048(3) 0.3147(5)
H12A H 0.6851 0.6419 0.4014
N7A N 0.0580(3) -0.6368(3) 0.2043(4)
N8A N 0.0879(3) -0.7172(2) 0.0973(4)
N9A N 0.0083(3) -0.8432(2) 0.1443(4)
N9A_2 N 0.0083(3) 0.1568(2) 0.1443(4)
C9A C 0.1210(3) -0.4917(3) 0.1731(5)
H13A H 0.1497 -0.4368 0.2833
H14A H 0.2031 -0.4650 0.0997
C10A C 0.0232(3) -0.4612(3) 0.0865(5)
H15A H 0.0685 -0.3624 0.0710
H16A H -0.0574 -0.4851 0.1619
C11A C -0.0713(3) -0.8415(3) 0.2816(5)
H17A H -0.1364 -0.9182 0.3399
C12A C -0.0405(4) -0.7100(3) 0.3196(5)
H18A H -0.0795 -0.6769 0.4076
Cl1 Cl 0.33716(8) -0.35464(8) -0.36773(12)
O1 O 0.3311(3) -0.3413(3) -0.1851(4)
O2 O 0.3597(3) -0.2329(3) -0.4375(5)
O3 O 0.4473(3) -0.3785(3) -0.4206(5)
O4 O 0.2105(3) -0.4680(3) -0.4298(4)
loop_
_geom_bond_atom_site_label_1
_geom_bond_atom_site_label_2
_geom_bond_site_symmetry_1
_geom_bond_site_symmetry_2
Fe1 N3 1_555 1_555
N1 N2 1_555 1_555
N2 N3 1_555 1_555
N3 C3 1_555 1_555
C1 N1 1_555 1_555
H1 C1 1_555 1_555
H2 C1 1_555 1_555
C2 C1 1_555 1_555
H3 C2 1_555 1_555
H4 C2 1_555 1_555
C3 H5 1_555 1_555
C4 N1 1_555 1_555
H6 C4 1_555 1_555
N4 N5 1_555 1_555
N5 N6 1_555 1_555
N6 Fe1 1_555 1_555
C5 N4 1_555 1_555
H7 C5 1_555 1_555
H8 C5 1_555 1_555
C6 C5 1_555 1_555
H9 C6 1_555 1_555
H10 C6 1_555 1_555
C7 N6 1_555 1_555
H11 C7 1_555 1_555
C8 N4 1_555 1_555
H12 C8 1_555 1_555
N7 N8 1_555 1_555
N8 N9 1_555 1_555
N9 Fe1 1_555 1_555
C9 N7 1_555 1_555
H13 C9 1_555 1_555
H14 C9 1_555 1_555
C10 C9 1_555 1_555
H15 C10 1_555 1_555
H16 C10 1_555 1_555
C11 N9 1_555 1_555
H17 C11 1_555 1_555
C12 N7 1_555 1_555
H18 C12 1_555 1_555
Cl1 O1 1_555 1_555
O2 Cl1 1_555 1_555
O3 Cl1 1_555 1_555
O4 Cl1 1_555 1_555
Fe1_2 N3A 1_555 1_555
Fe1_3 N9A 1_555 1_555
Fe1_4 N6A 1_555 1_555
N1A N2A 1_555 1_555
N2A N3A 1_555 1_555
N3A C3A 1_555 1_555
N3A_2 Fe1 1_555 1_555
C1A N1A 1_555 1_555
H1A C1A 1_555 1_555
H2A C1A 1_555 1_555
C2A C2 1_555 1_555
H3A C2A 1_555 1_555
H4A C2A 1_555 1_555
C3A H5A 1_555 1_555
C4A N1A 1_555 1_555
H6A C4A 1_555 1_555
N4A N5A 1_555 1_555
N5A N6A 1_555 1_555
N6A C7A 1_555 1_555
N6A_2 Fe1 1_555 1_555
C5A N4A 1_555 1_555
H7A C5A 1_555 1_555
H8A C5A 1_555 1_555
C6A C6 1_555 1_555
H9A C6A 1_555 1_555
H10A C6A 1_555 1_555
C7A H11A 1_555 1_555
C8A N4A 1_555 1_555
H12A C8A 1_555 1_555
N7A N8A 1_555 1_555
N8A N9A 1_555 1_555
N9A C11A 1_555 1_555
N9A_2 Fe1 1_555 1_555
C9A N7A 1_555 1_555
H13A C9A 1_555 1_555
H14A C9A 1_555 1_555
C10A C10 1_555 1_555
H15A C10A 1_555 1_555
H16A C10A 1_555 1_555
C11A H17A 1_555 1_555
C12A N7A 1_555 1_555
H18A C12A 1_555 1_555
C3 C4 1_555 1_555
C7 C8 1_555 1_555
C11 C12 1_555 1_555
C1A C2A 1_555 1_555
C3A C4A 1_555 1_555
C5A C6A 1_555 1_555
C7A C8A 1_555 1_555
C9A C10A 1_555 1_555
C11A C12A 1_555 1_555

#END
