
#######################################################################
#
#                 Cambridge Crystallographic Data Centre
#                                CCDC 
#
#######################################################################
#
# If this CIF has been generated from an entry in the Cambridge 
# Structural Database, then it will include bibliographic, chemical, 
# crystal, experimental, refinement or atomic coordinate data resulting 
# from the CCDC's data processing and validation procedures.
#
#######################################################################

data_QARSIM
_symmetry_cell_setting           trigonal
_symmetry_space_group_name_H-M   'P -3'
_symmetry_Int_Tables_number      147
_space_group_name_Hall           '-P 3'
loop_
_symmetry_equiv_pos_site_id
_symmetry_equiv_pos_as_xyz
1 x,y,z
2 -y,x-y,z
3 -x+y,-x,z
4 -x,-y,-z
5 y,-x+y,-z
6 x-y,x,-z
_cell_length_a                   11.7190(9)
_cell_length_b                   11.7190(9)
_cell_length_c                   7.8041(8)
_cell_angle_alpha                90
_cell_angle_beta                 90
_cell_angle_gamma                120
_cell_volume                     928.185
loop_
_atom_site_label
_atom_site_type_symbol
_atom_site_fract_x
_atom_site_fract_y
_atom_site_fract_z
Fe1 Fe 0.0000 1.0000 0.0000
N1 N 0.0634(2) 1.35985(18) 0.2023(3)
N2 N 0.0933(2) 1.28453(18) 0.1073(3)
N3 N 0.01766(19) 1.16219(18) 0.1606(3)
C1 C 0.1255(3) 1.5020(3) 0.1629(4)
C2 C 0.0276(3) 1.5353(2) 0.0842(4)
C3 C -0.0586(3) 1.1625(3) 0.2893(4)
C4 C -0.0289(3) 1.2888(3) 0.3165(4)
H1 H 0.201(3) 1.521(3) 0.075(4)
H2 H 0.155(3) 1.548(3) 0.272(4)
H3 H 0.083(2) 1.636(2) 0.069(3)
H4 H -0.043(2) 1.515(2) 0.167(3)
H5 H -0.117(3) 1.089(3) 0.348(4)
H6 H -0.062(3) 1.322(3) 0.392(4)
Fe1_2 Fe 0.0000 2.0000 0.0000
Fe1_3 Fe -1.0000 0.0000 0.0000
Fe1_4 Fe 1.0000 1.0000 0.0000
N1C N -0.0634(2) 1.64015(18) -0.2023(3)
N1A N -0.35985(18) 0.70355(27) 0.2023(3)
N1D N -0.64015(18) 0.29645(27) -0.2023(3)
N1B N 0.29645(27) 0.9366(2) 0.2023(3)
N1E N 0.70355(27) 1.0634(2) -0.2023(3)
N2C N -0.0933(2) 1.71547(18) -0.1073(3)
N2A N -0.28453(18) 0.80877(27) 0.1073(3)
N2D N -0.71547(18) 0.19123(27) -0.1073(3)
N2B N 0.19123(27) 0.9067(2) 0.1073(3)
N2E N 0.80877(27) 1.0933(2) -0.1073(3)
N3C N -0.01766(19) 1.83781(18) -0.1606(3)
N3A N -0.16219(18) 0.85547(26) 0.1606(3)
N3D N -0.83781(18) 0.14453(26) -0.1606(3)
N3B N 0.14453(26) 0.98234(19) 0.1606(3)
N3E N 0.85547(26) 1.01766(19) -0.1606(3)
N3C_2 N -0.01766(19) 0.83781(18) -0.1606(3)
N3D_2 N 0.16219(18) 1.14453(26) -0.1606(3)
N3E_2 N -0.14453(26) 1.01766(19) -0.1606(3)
C1C C -0.1255(3) 1.4980(3) -0.1629(4)
C1A C -0.5020(3) 0.6235(4) 0.1629(4)
C1D C -0.4980(3) 0.3765(4) -0.1629(4)
C1B C 0.3765(4) 0.8745(3) 0.1629(4)
C1E C 0.6235(4) 1.1255(3) -0.1629(4)
C2C C -0.0276(3) 1.4647(2) -0.0842(4)
C2A C -0.5353(2) 0.4923(4) 0.0842(4)
C2D C -0.4647(2) 0.5077(4) -0.0842(4)
C2B C 0.5077(4) 0.9724(3) 0.0842(4)
C2E C 0.4923(4) 1.0276(3) -0.0842(4)
C3C C 0.0586(3) 1.8375(3) -0.2893(4)
C3A C -0.1625(3) 0.7789(4) 0.2893(4)
C3D C -0.8375(3) 0.2211(4) -0.2893(4)
C3B C 0.2211(4) 1.0586(3) 0.2893(4)
C3E C 0.7789(4) 0.9414(3) -0.2893(4)
C4C C 0.0289(3) 1.7112(3) -0.3165(4)
C4A C -0.2888(3) 0.6823(4) 0.3165(4)
C4D C -0.7112(3) 0.3177(4) -0.3165(4)
C4B C 0.3177(4) 1.0289(3) 0.3165(4)
C4E C 0.6823(4) 0.9711(3) -0.3165(4)
H1C H -0.201(3) 1.479(3) -0.075(4)
H1A H -0.521(3) 0.680(4) 0.075(4)
H1D H -0.479(3) 0.320(4) -0.075(4)
H1B H 0.320(4) 0.799(3) 0.075(4)
H1E H 0.680(4) 1.201(3) -0.075(4)
H2C H -0.155(3) 1.452(3) -0.272(4)
H2A H -0.548(3) 0.607(4) 0.272(4)
H2D H -0.452(3) 0.393(4) -0.272(4)
H2B H 0.393(4) 0.845(3) 0.272(4)
H2E H 0.607(4) 1.155(3) -0.272(4)
H3C H -0.083(2) 1.364(2) -0.069(3)
H3A H -0.636(2) 0.447(3) 0.069(3)
H3D H -0.364(2) 0.553(3) -0.069(3)
H3B H 0.553(3) 0.917(2) 0.069(3)
H3E H 0.447(3) 1.083(2) -0.069(3)
H4C H 0.043(2) 1.485(2) -0.167(3)
H4A H -0.515(2) 0.442(3) 0.167(3)
H4D H -0.485(2) 0.558(3) -0.167(3)
H4B H 0.558(3) 1.043(2) 0.167(3)
H4E H 0.442(3) 0.957(2) -0.167(3)
H5C H 0.117(3) 1.911(3) -0.348(4)
H5A H -0.089(3) 0.794(4) 0.348(4)
H5D H -0.911(3) 0.206(4) -0.348(4)
H5B H 0.206(4) 1.117(3) 0.348(4)
H5E H 0.794(4) 0.883(3) -0.348(4)
H6C H 0.062(3) 1.678(3) -0.392(4)
H6A H -0.322(3) 0.616(4) 0.392(4)
H6D H -0.678(3) 0.384(4) -0.392(4)
H6B H 0.384(4) 1.062(3) 0.392(4)
H6E H 0.616(4) 0.938(3) -0.392(4)
Cl1 Cl -0.3333 1.3333 0.36658(15)
O1 O -0.3333 1.3333 0.1866(4)
O2 O -0.2128(3) 1.4408(3) 0.4267(3)
O2A O -0.4408(3) 1.3464(4) 0.4267(3)
O2B O -0.3464(4) 1.2128(3) 0.4267(3)
loop_
_geom_bond_atom_site_label_1
_geom_bond_atom_site_label_2
_geom_bond_site_symmetry_1
_geom_bond_site_symmetry_2
Fe1 N3 1_555 1_555
N1 N2 1_555 1_555
N2 N3 1_555 1_555
N3 C3 1_555 1_555
C1 N1 1_555 1_555
C2 C1 1_555 1_555
C3 C4 1_555 1_555
C4 N1 1_555 1_555
Cl1 O1 1_555 1_555
O2 Cl1 1_555 1_555
H1 C1 1_555 1_555
H2 C1 1_555 1_555
H3 C2 1_555 1_555
H4 C2 1_555 1_555
H5 C3 1_555 1_555
H6 C4 1_555 1_555
Fe1_2 N3C 1_555 1_555
Fe1_3 N3D 1_555 1_555
Fe1_4 N3E 1_555 1_555
N1C N2C 1_555 1_555
N1A N2A 1_555 1_555
N1D N2D 1_555 1_555
N1B N2B 1_555 1_555
N1E N2E 1_555 1_555
N2C N3C 1_555 1_555
N2A N3A 1_555 1_555
N2D N3D 1_555 1_555
N2B N3B 1_555 1_555
N2E N3E 1_555 1_555
N3C C3C 1_555 1_555
N3A Fe1 1_555 1_555
N3D C3D 1_555 1_555
N3B Fe1 1_555 1_555
N3E C3E 1_555 1_555
N3C_2 Fe1 1_555 1_555
N3D_2 Fe1 1_555 1_555
N3E_2 Fe1 1_555 1_555
C1C N1C 1_555 1_555
C1A N1A 1_555 1_555
C1D N1D 1_555 1_555
C1B N1B 1_555 1_555
C1E N1E 1_555 1_555
C2C C2 1_555 1_555
C2A C1A 1_555 1_555
C2D C1D 1_555 1_555
C2B C1B 1_555 1_555
C2E C1E 1_555 1_555
C3C C4C 1_555 1_555
C3A N3A 1_555 1_555
C3D C4D 1_555 1_555
C3B N3B 1_555 1_555
C3E C4E 1_555 1_555
C4C N1C 1_555 1_555
C4A N1A 1_555 1_555
C4D N1D 1_555 1_555
C4B N1B 1_555 1_555
C4E N1E 1_555 1_555
O2A Cl1 1_555 1_555
O2B Cl1 1_555 1_555
H1C C1C 1_555 1_555
H1A C1A 1_555 1_555
H1D C1D 1_555 1_555
H1B C1B 1_555 1_555
H1E C1E 1_555 1_555
H2C C1C 1_555 1_555
H2A C1A 1_555 1_555
H2D C1D 1_555 1_555
H2B C1B 1_555 1_555
H2E C1E 1_555 1_555
H3C C2C 1_555 1_555
H3A C2A 1_555 1_555
H3D C2D 1_555 1_555
H3B C2B 1_555 1_555
H3E C2E 1_555 1_555
H4C C2C 1_555 1_555
H4A C2A 1_555 1_555
H4D C2D 1_555 1_555
H4B C2B 1_555 1_555
H4E C2E 1_555 1_555
H5C C3C 1_555 1_555
H5A C3A 1_555 1_555
H5D C3D 1_555 1_555
H5B C3B 1_555 1_555
H5E C3E 1_555 1_555
H6C C4C 1_555 1_555
H6A C4A 1_555 1_555
H6D C4D 1_555 1_555
H6B C4B 1_555 1_555
H6E C4E 1_555 1_555
C1C C2C 1_555 1_555
C2A C2D 1_555 1_555
C2B C2E 1_555 1_555
C3A C4A 1_555 1_555
C3B C4B 1_555 1_555

#END
