
#######################################################################
#
#                 Cambridge Crystallographic Data Centre
#                                CCDC 
#
#######################################################################
#
# If this CIF has been generated from an entry in the Cambridge 
# Structural Database, then it will include bibliographic, chemical, 
# crystal, experimental, refinement or atomic coordinate data resulting 
# from the CCDC's data processing and validation procedures.
#
#######################################################################

data_QARSAF02
_symmetry_cell_setting           monoclinic
_symmetry_space_group_name_H-M   'P 21/c'
_symmetry_Int_Tables_number      14
_space_group_name_Hall           '-P 2ybc'
loop_
_symmetry_equiv_pos_site_id
_symmetry_equiv_pos_as_xyz
1 x,y,z
2 -x,1/2+y,1/2-z
3 -x,-y,-z
4 x,1/2-y,1/2+z
_cell_length_a                   8.287(8)
_cell_length_b                   14.796(14)
_cell_length_c                   11.559(11)
_cell_angle_alpha                90
_cell_angle_beta                 90.969(15)
_cell_angle_gamma                90
_cell_volume                     1417.1
loop_
_atom_site_label
_atom_site_type_symbol
_atom_site_fract_x
_atom_site_fract_y
_atom_site_fract_z
Gd1 Gd 0.779034(19) 0.132342(10) -0.067631(13)
C1 C 1.0373(4) 0.0645(2) 0.1449(3)
O1 O 1.1112(4) -0.00710(18) 0.1680(2)
N1 N 1.0892(4) 0.1095(2) 0.3470(3)
H1 H 1.1477 0.0629 0.3628
O2 O 0.9963(3) 0.09048(18) 0.0457(2)
C2 C 1.0081(4) 0.1255(2) 0.2451(3)
N2 N 0.9630(4) 0.2394(2) 0.3698(2)
O3 O 0.7805(3) 0.23692(16) 0.0856(2)
C3 C 0.9288(4) 0.2059(2) 0.2605(3)
C4 C 0.8203(4) 0.2614(2) 0.1850(3)
O4 O 0.7730(3) 0.33417(16) 0.2304(2)
C5 C 1.0611(4) 0.1795(2) 0.4183(3)
O5 O 0.5595(3) 0.23479(19) -0.0981(2)
H2 H 0.5633 0.2928 -0.0828
H3 H 0.4898 0.2121 -0.1434
C6 C 1.1489(5) 0.1881(3) 0.5303(3)
C7 C 1.1438(6) 0.1215(3) 0.6148(4)
H4 H 1.0799 0.0704 0.6041
O6 O 0.5504(3) 0.04365(19) -0.1341(2)
C8 C 1.2347(6) 0.1323(3) 0.7144(4)
H5 H 1.2302 0.0875 0.7707
O7 O 0.3540(3) -0.05173(18) -0.0874(2)
N3 N 1.3295(4) 0.2044(3) 0.7344(3)
C9 C 1.3350(6) 0.2674(3) 0.6536(4)
H6 H 1.4015 0.3172 0.6661
C10 C 1.2462(5) 0.2628(3) 0.5511(4)
H7 H 1.2518 0.3092 0.4970
C11 C 0.4732(4) -0.0023(2) -0.0644(3)
O6B O 0.4496(3) -0.04365(19) 0.1341(2)
O7B O 0.6460(3) 0.05173(18) 0.0874(2)
C11B C 0.5268(4) 0.0023(2) 0.0644(3)
Gd1B Gd 0.220966(19) -0.132342(10) 0.067631(13)
C1B C -0.0373(4) -0.0645(2) -0.1449(3)
O1B O -0.1112(4) 0.00710(18) -0.1680(2)
N1B N -0.0892(4) -0.1095(2) -0.3470(3)
H1B H -0.1477 -0.0629 -0.3628
O2B O 0.0037(3) -0.09048(18) -0.0457(2)
C2B C -0.0081(4) -0.1255(2) -0.2451(3)
N2B N 0.0370(4) -0.2394(2) -0.3698(2)
O3B O 0.2195(3) -0.23692(16) -0.0856(2)
C3B C 0.0712(4) -0.2059(2) -0.2605(3)
C4B C 0.1797(4) -0.2614(2) -0.1850(3)
O4B O 0.2270(3) -0.33417(16) -0.2304(2)
C5B C -0.0611(4) -0.1795(2) -0.4183(3)
O5B O 0.4405(3) -0.23479(19) 0.0981(2)
H2B H 0.4367 -0.2928 0.0828
H3B H 0.5102 -0.2121 0.1434
C6B C -0.1489(5) -0.1881(3) -0.5303(3)
C7B C -0.1438(6) -0.1215(3) -0.6148(4)
H4B H -0.0799 -0.0704 -0.6041
C8B C -0.2347(6) -0.1323(3) -0.7144(4)
H5B H -0.2302 -0.0875 -0.7707
N3B N -0.3295(4) -0.2044(3) -0.7344(3)
C9B C -0.3350(6) -0.2674(3) -0.6536(4)
H6B H -0.4015 -0.3172 -0.6661
C10B C -0.2462(5) -0.2628(3) -0.5511(4)
H7B H -0.2518 -0.3092 -0.4970
Gd1_2 Gd -0.220966(19) 0.132342(10) -0.067631(13)
Gd1A Gd 0.220966(19) -0.367658(10) -0.432369(13)
Gd1B_2 Gd 1.220966(19) -0.132342(10) 0.067631(13)
Gd1C Gd 0.779034(19) 0.367658(10) 0.432369(13)
O1_2 O 0.1112(4) -0.00710(18) 0.1680(2)
O1B_2 O 0.8888(4) 0.00710(18) -0.1680(2)
N2A N 0.0370(4) -0.2606(2) 0.1302(2)
N2C N 0.9630(4) 0.2606(2) -0.1302(2)
O4A O 0.2270(3) -0.16583(16) 0.2696(2)
O4C O 0.7730(3) 0.16583(16) -0.2696(2)
O8 O 0.6930(4) 0.4736(2) 0.0852(3)
H8 H 0.7232 0.4208 0.1325
H9 H 0.6786 0.4472 0.0039
O9 O 0.4164(4) 0.5753(2) 0.1455(3)
H10 H 0.5029 0.5369 0.1331
H11 H 0.3637 0.5805 0.2212
loop_
_geom_bond_atom_site_label_1
_geom_bond_atom_site_label_2
_geom_bond_site_symmetry_1
_geom_bond_site_symmetry_2
Gd1 O2 1_555 1_555
C1 O1 1_555 1_555
O1 Gd1B_2 1_555 1_555
N1 H1 1_555 1_555
O2 C1 1_555 1_555
C2 C1 1_555 1_555
N2 C3 1_555 1_555
O3 Gd1 1_555 1_555
C3 C2 1_555 1_555
C4 O3 1_555 1_555
O4 C4 1_555 1_555
C5 N1 1_555 1_555
O5 Gd1 1_555 1_555
H2 O5 1_555 1_555
H3 O5 1_555 1_555
C6 C5 1_555 1_555
C7 C6 1_555 1_555
H4 C7 1_555 1_555
O6 Gd1 1_555 1_555
C8 C7 1_555 1_555
H5 C8 1_555 1_555
O7 C11 1_555 1_555
N3 C8 1_555 1_555
C9 N3 1_555 1_555
H6 C9 1_555 1_555
C10 C6 1_555 1_555
H7 C10 1_555 1_555
C11 O6 1_555 1_555
O8 H8 1_555 1_555
H9 O8 1_555 1_555
O9 H10 1_555 1_555
H11 O9 1_555 1_555
O6B C11B 1_555 1_555
O7B Gd1 1_555 1_555
C11B C11 1_555 1_555
Gd1B O7 1_555 1_555
C1B O1B 1_555 1_555
O1B Gd1_2 1_555 1_555
N1B H1B 1_555 1_555
O2B Gd1B 1_555 1_555
C2B C1B 1_555 1_555
N2B C3B 1_555 1_555
O3B Gd1B 1_555 1_555
C3B C2B 1_555 1_555
C4B O3B 1_555 1_555
O4B C4B 1_555 1_555
C5B N1B 1_555 1_555
O5B Gd1B 1_555 1_555
H2B O5B 1_555 1_555
H3B O5B 1_555 1_555
C6B C5B 1_555 1_555
C7B C6B 1_555 1_555
H4B C7B 1_555 1_555
C8B C7B 1_555 1_555
H5B C8B 1_555 1_555
N3B C8B 1_555 1_555
C9B N3B 1_555 1_555
H6B C9B 1_555 1_555
C10B C6B 1_555 1_555
H7B C10B 1_555 1_555
Gd1A N2B 1_555 1_555
Gd1C N2 1_555 1_555
O1_2 Gd1B 1_555 1_555
O1B_2 Gd1 1_555 1_555
N2A Gd1B 1_555 1_555
N2C Gd1 1_555 1_555
O4A Gd1B 1_555 1_555
O4C Gd1 1_555 1_555
N1 C2 1_555 1_555
N2 C5 1_555 1_555
C3 C4 1_555 1_555
O4 Gd1C 1_555 1_555
C9 C10 1_555 1_555
O6B Gd1B 1_555 1_555
O7B C11B 1_555 1_555
C1B O2B 1_555 1_555
N1B C2B 1_555 1_555
N2B C5B 1_555 1_555
C3B C4B 1_555 1_555
O4B Gd1A 1_555 1_555
C9B C10B 1_555 1_555

#END
