
#######################################################################
#
#                 Cambridge Crystallographic Data Centre
#                                CCDC 
#
#######################################################################
#
# If this CIF has been generated from an entry in the Cambridge 
# Structural Database, then it will include bibliographic, chemical, 
# crystal, experimental, refinement or atomic coordinate data resulting 
# from the CCDC's data processing and validation procedures.
#
#######################################################################

data_QARSIM06
_symmetry_cell_setting           trigonal
_symmetry_space_group_name_H-M   'P -3'
_symmetry_Int_Tables_number      147
_space_group_name_Hall           '-P 3'
loop_
_symmetry_equiv_pos_site_id
_symmetry_equiv_pos_as_xyz
1 x,y,z
2 -y,x-y,z
3 -x+y,-x,z
4 -x,-y,-z
5 y,-x+y,-z
6 x-y,x,-z
_cell_length_a                   11.6210(2)
_cell_length_b                   11.6210(2)
_cell_length_c                   7.7373(3)
_cell_angle_alpha                90
_cell_angle_beta                 90
_cell_angle_gamma                120
_cell_volume                     904.914
loop_
_atom_site_label
_atom_site_type_symbol
_atom_site_fract_x
_atom_site_fract_y
_atom_site_fract_z
Fe1 Fe 0.0000 0.0000 0.0000
N1 N -0.29731(6) 0.06445(7) -0.20676(10)
N2 N -0.19075(6) 0.09484(6) -0.11010(10)
N3 N -0.14530(6) 0.01721(6) -0.16253(10)
C1 C -0.37789(7) 0.12663(8) -0.16791(12)
H1 H -0.3951 0.1609 -0.2761
H2 H -0.3279 0.2028 -0.0889
C2 C -0.50963(7) 0.02791(8) -0.08461(11)
H3 H -0.5610 -0.0462 -0.1659
H4 H -0.5617 0.0725 -0.0619
C3 C -0.22379(8) -0.06263(8) -0.29103(12)
H5 H -0.2126 -0.1279 -0.3505
C4 C -0.32196(8) -0.03274(9) -0.32014(12)
H6 H -0.3920 -0.0720 -0.4022
Fe1_2 Fe -1.0000 0.0000 0.0000
Fe1_3 Fe 1.0000 0.0000 0.0000
Fe1_4 Fe 0.0000 1.0000 0.0000
N1C N -0.70269(6) -0.06445(7) 0.20676(10)
N1C_2 N 0.29731(6) -0.06445(7) 0.20676(10)
N1_2 N 0.70269(6) 0.06445(7) -0.20676(10)
N1D N 0.06445(7) 0.36176(9) 0.20676(10)
N1A N -0.06445(7) 0.63824(9) -0.20676(10)
N2C N -0.80925(6) -0.09484(6) 0.11010(10)
N2C_2 N 0.19075(6) -0.09484(6) 0.11010(10)
N2_2 N 0.80925(6) 0.09484(6) -0.11010(10)
N2D N 0.09484(6) 0.28559(8) 0.11010(10)
N2A N -0.09484(6) 0.71441(8) -0.11010(10)
N3C N -0.85470(6) -0.01721(6) 0.16253(10)
N3C_2 N 0.14530(6) -0.01721(6) 0.16253(10)
N3_2 N 0.85470(6) 0.01721(6) -0.16253(10)
N3D N 0.01721(6) 0.16251(8) 0.16253(10)
N3A N -0.01721(6) 0.83749(8) -0.16253(10)
N3E N -0.16251(8) -0.14530(6) 0.16253(10)
N3A_2 N -0.01721(6) -0.16251(8) -0.16253(10)
N3B N 0.16251(8) 0.14530(6) -0.16253(10)
C1C C -0.62211(7) -0.12663(8) 0.16791(12)
C1C_2 C 0.37789(7) -0.12663(8) 0.16791(12)
C1_2 C 0.62211(7) 0.12663(8) -0.16791(12)
C1D C 0.12663(8) 0.50452(11) 0.16791(12)
C1A C -0.12663(8) 0.49548(11) -0.16791(12)
H1C H -0.6049 -0.1609 0.2761
H1C_2 H 0.3951 -0.1609 0.2761
H1_2 H 0.6049 0.1609 -0.2761
H1D H 0.1609 0.5560 0.2761
H1A H -0.1609 0.4440 -0.2761
H2C H -0.6721 -0.2028 0.0889
H2C_2 H 0.3279 -0.2028 0.0889
H2_2 H 0.6721 0.2028 -0.0889
H2D H 0.2028 0.5307 0.0889
H2A H -0.2028 0.4693 -0.0889
C2C C -0.49037(7) -0.02791(8) 0.08461(11)
C2C_2 C 0.50963(7) -0.02791(8) 0.08461(11)
C2_2 C 0.49037(7) 0.02791(8) -0.08461(11)
C2D C 0.02791(8) 0.53754(11) 0.08461(11)
C2A C -0.02791(8) 0.46246(11) -0.08461(11)
H3C H -0.4390 0.0462 0.1659
H3C_2 H 0.5610 0.0462 0.1659
H3_2 H 0.4390 -0.0462 -0.1659
H3D H -0.0462 0.5148 0.1659
H3A H 0.0462 0.4852 -0.1659
H4C H -0.4383 -0.0725 0.0619
H4C_2 H 0.5617 -0.0725 0.0619
H4_2 H 0.4383 0.0725 -0.0619
H4D H 0.0725 0.6342 0.0619
H4A H -0.0725 0.3658 -0.0619
C3C C -0.77621(8) 0.06263(8) 0.29103(12)
C3C_2 C 0.22379(8) 0.06263(8) 0.29103(12)
C3_2 C 0.77621(8) -0.06263(8) -0.29103(12)
C3D C -0.06263(8) 0.16116(11) 0.29103(12)
C3A C 0.06263(8) 0.83884(11) -0.29103(12)
H5C H -0.7874 0.1279 0.3505
H5C_2 H 0.2126 0.1279 0.3505
H5_2 H 0.7874 -0.1279 -0.3505
H5D H -0.1279 0.0847 0.3505
H5A H 0.1279 0.9153 -0.3505
C4C C -0.67804(8) 0.03274(9) 0.32014(12)
C4C_2 C 0.32196(8) 0.03274(9) 0.32014(12)
C4_2 C 0.67804(8) -0.03274(9) -0.32014(12)
C4D C -0.03274(9) 0.28922(12) 0.32014(12)
C4A C 0.03274(9) 0.71078(12) -0.32014(12)
H6C H -0.6080 0.0720 0.4022
H6C_2 H 0.3920 0.0720 0.4022
H6_2 H 0.6080 -0.0720 -0.4022
H6D H -0.0720 0.3200 0.4022
H6A H 0.0720 0.6800 -0.4022
Cl1 Cl 0.3333 -0.3333 -0.35900(5)
O1 O 0.3333 -0.3333 -0.17411(15)
O2 O 0.21075(8) -0.44326(8) -0.42133(10)
O2A O 0.44326(8) -0.34599(11) -0.42133(10)
O2B O 0.34599(11) -0.21075(8) -0.42133(10)
loop_
_geom_bond_atom_site_label_1
_geom_bond_atom_site_label_2
_geom_bond_site_symmetry_1
_geom_bond_site_symmetry_2
Fe1 N3 1_555 1_555
N1 N2 1_555 1_555
N2 N3 1_555 1_555
N3 C3 1_555 1_555
C1 N1 1_555 1_555
H1 C1 1_555 1_555
H2 C1 1_555 1_555
C2 C1 1_555 1_555
H3 C2 1_555 1_555
H4 C2 1_555 1_555
C3 H5 1_555 1_555
C4 N1 1_555 1_555
H6 C4 1_555 1_555
Cl1 O1 1_555 1_555
O2 Cl1 1_555 1_555
Fe1_2 N3C 1_555 1_555
Fe1_3 N3_2 1_555 1_555
Fe1_4 N3A 1_555 1_555
N1C N2C 1_555 1_555
N1C_2 N2C_2 1_555 1_555
N1_2 N2_2 1_555 1_555
N1D N2D 1_555 1_555
N1A N2A 1_555 1_555
N2C N3C 1_555 1_555
N2C_2 N3C_2 1_555 1_555
N2_2 N3_2 1_555 1_555
N2D N3D 1_555 1_555
N2A N3A 1_555 1_555
N3C C3C 1_555 1_555
N3C_2 Fe1 1_555 1_555
N3_2 C3_2 1_555 1_555
N3D Fe1 1_555 1_555
N3A C3A 1_555 1_555
N3E Fe1 1_555 1_555
N3A_2 Fe1 1_555 1_555
N3B Fe1 1_555 1_555
C1C N1C 1_555 1_555
C1C_2 N1C_2 1_555 1_555
C1_2 N1_2 1_555 1_555
C1D N1D 1_555 1_555
C1A N1A 1_555 1_555
H1C C1C 1_555 1_555
H1C_2 C1C_2 1_555 1_555
H1_2 C1_2 1_555 1_555
H1D C1D 1_555 1_555
H1A C1A 1_555 1_555
H2C C1C 1_555 1_555
H2C_2 C1C_2 1_555 1_555
H2_2 C1_2 1_555 1_555
H2D C1D 1_555 1_555
H2A C1A 1_555 1_555
C2C C2 1_555 1_555
C2C_2 C1C_2 1_555 1_555
C2_2 C1_2 1_555 1_555
C2D C1D 1_555 1_555
C2A C1A 1_555 1_555
H3C C2C 1_555 1_555
H3C_2 C2C_2 1_555 1_555
H3_2 C2_2 1_555 1_555
H3D C2D 1_555 1_555
H3A C2A 1_555 1_555
H4C C2C 1_555 1_555
H4C_2 C2C_2 1_555 1_555
H4_2 C2_2 1_555 1_555
H4D C2D 1_555 1_555
H4A C2A 1_555 1_555
C3C H5C 1_555 1_555
C3C_2 N3C_2 1_555 1_555
C3_2 H5_2 1_555 1_555
C3D N3D 1_555 1_555
C3A H5A 1_555 1_555
H5C_2 C3C_2 1_555 1_555
H5D C3D 1_555 1_555
C4C N1C 1_555 1_555
C4C_2 N1C_2 1_555 1_555
C4_2 N1_2 1_555 1_555
C4D N1D 1_555 1_555
C4A N1A 1_555 1_555
H6C C4C 1_555 1_555
H6C_2 C4C_2 1_555 1_555
H6_2 C4_2 1_555 1_555
H6D C4D 1_555 1_555
H6A C4A 1_555 1_555
O2A Cl1 1_555 1_555
O2B Cl1 1_555 1_555
C3 C4 1_555 1_555
C1C C2C 1_555 1_555
C2C_2 C2_2 1_555 1_555
C2D C2A 1_555 1_555
C3C C4C 1_555 1_555
C3C_2 C4C_2 1_555 1_555
C3_2 C4_2 1_555 1_555
C3D C4D 1_555 1_555
C3A C4A 1_555 1_555

#END
