
#######################################################################
#
#                 Cambridge Crystallographic Data Centre
#                                CCDC 
#
#######################################################################
#
# If this CIF has been generated from an entry in the Cambridge 
# Structural Database, then it will include bibliographic, chemical, 
# crystal, experimental, refinement or atomic coordinate data resulting 
# from the CCDC's data processing and validation procedures.
#
#######################################################################

data_QARTEJ
_symmetry_cell_setting           triclinic
_symmetry_space_group_name_H-M   'P -1'
_symmetry_Int_Tables_number      2
_space_group_name_Hall           '-P 1'
loop_
_symmetry_equiv_pos_site_id
_symmetry_equiv_pos_as_xyz
1 x,y,z
2 -x,-y,-z
_cell_length_a                   6.9179(9)
_cell_length_b                   10.7325(14)
_cell_length_c                   12.898(2)
_cell_angle_alpha                66.496(2)
_cell_angle_beta                 86.813(2)
_cell_angle_gamma                89.574(2)
_cell_volume                     876.705
loop_
_atom_site_label
_atom_site_type_symbol
_atom_site_fract_x
_atom_site_fract_y
_atom_site_fract_z
Ni1 Ni 0.5000 0.0000 0.0000
S1 S 0.29237(9) 0.16214(7) 0.04672(5)
S2 S 0.69756(8) 0.01687(6) 0.14874(5)
P1 P 0.45893(9) 0.10603(7) 0.17842(5)
O1 O 0.5140(3) 0.22985(18) 0.21133(15)
C1 C 0.6415(5) 0.3377(3) 0.1344(3)
H1 H 0.6028 0.3650 0.0557
H2 H 0.7765 0.3056 0.1384
C2 C 0.6276(6) 0.4557(3) 0.1677(3)
H3 H 0.7135 0.5294 0.1167
H4 H 0.6663 0.4278 0.2457
H5 H 0.4939 0.4874 0.1627
C3 C 0.3319(4) -0.0042(3) 0.3082(2)
C4 C 0.1331(4) -0.0252(3) 0.3155(2)
H6 H 0.0606 0.0201 0.2508
C5 C 0.0391(4) -0.1117(3) 0.4162(2)
H7 H -0.0968 -0.1265 0.4199
C6 C 0.1427(4) -0.1762(3) 0.5109(2)
C7 C 0.3439(4) -0.1554(3) 0.5043(2)
H8 H 0.4162 -0.1995 0.5693
C8 C 0.4356(4) -0.0714(3) 0.4043(2)
H9 H 0.5720 -0.0586 0.4001
O2 O 0.0658(3) -0.2620(2) 0.61422(16)
C9 C -0.1399(4) -0.2777(3) 0.6271(3)
H10 H -0.1776 -0.3416 0.7044
H11 H -0.1846 -0.3129 0.5730
H12 H -0.1988 -0.1894 0.6127
N1 N 0.3330(3) -0.1659(2) 0.12349(16)
C10 C 0.4137(3) -0.2501(2) 0.21635(19)
H13 H 0.5497 -0.2433 0.2203
C11 C 0.3101(3) -0.3479(2) 0.30835(19)
C12 C 0.1106(3) -0.3604(3) 0.3016(2)
H14 H 0.0343 -0.4246 0.3628
C13 C 0.0280(4) -0.2770(3) 0.2035(2)
H15 H -0.1061 -0.2858 0.1951
C14 C 0.1405(3) -0.1804(3) 0.1176(2)
H16 H 0.0801 -0.1219 0.0516
C15 C 0.4109(3) -0.4298(2) 0.4105(2)
N2 N 0.6067(3) -0.4243(2) 0.40347(17)
N3 N 0.3031(3) -0.5038(2) 0.50419(17)
Ni1_2 Ni 0.5000 -1.0000 1.0000
S1A S 0.70763(9) -0.16214(7) -0.04672(5)
S2A S 0.30244(8) -0.01687(6) -0.14874(5)
P1A P 0.54107(9) -0.10603(7) -0.17842(5)
O1A O 0.4860(3) -0.22985(18) -0.21133(15)
C1A C 0.3585(5) -0.3377(3) -0.1344(3)
H1A H 0.3972 -0.3650 -0.0557
H2A H 0.2235 -0.3056 -0.1384
C2A C 0.3724(6) -0.4557(3) -0.1677(3)
H3A H 0.2865 -0.5294 -0.1167
H4A H 0.3337 -0.4278 -0.2457
H5A H 0.5061 -0.4874 -0.1627
C3A C 0.6681(4) 0.0042(3) -0.3082(2)
C4A C 0.8669(4) 0.0252(3) -0.3155(2)
H6A H 0.9394 -0.0201 -0.2508
C5A C 0.9609(4) 0.1117(3) -0.4162(2)
H7A H 1.0968 0.1265 -0.4199
C6A C 0.8573(4) 0.1762(3) -0.5109(2)
C7A C 0.6561(4) 0.1554(3) -0.5043(2)
H8A H 0.5838 0.1995 -0.5693
C8A C 0.5644(4) 0.0714(3) -0.4043(2)
H9A H 0.4280 0.0586 -0.4001
O2A O 0.9342(3) 0.2620(2) -0.61422(16)
C9A C 1.1399(4) 0.2777(3) -0.6271(3)
H10A H 1.1776 0.3416 -0.7044
H11A H 1.1846 0.3129 -0.5730
H12A H 1.1988 0.1894 -0.6127
N1A N 0.6670(3) -0.8341(2) 0.87651(16)
N1A_2 N 0.6670(3) 0.1659(2) -0.12349(16)
C10A C 0.5863(3) -0.7499(2) 0.78365(19)
H13A H 0.4503 -0.7567 0.7797
C11A C 0.6899(3) -0.6521(2) 0.69165(19)
C12A C 0.8894(3) -0.6396(3) 0.6984(2)
H14A H 0.9657 -0.5754 0.6372
C13A C 0.9720(4) -0.7230(3) 0.7965(2)
H15A H 1.1061 -0.7142 0.8049
C14A C 0.8595(3) -0.8196(3) 0.8824(2)
H16A H 0.9199 -0.8781 0.9484
C15A C 0.5891(3) -0.5702(2) 0.5895(2)
N2A N 0.3933(3) -0.5757(2) 0.59653(17)
N3A N 0.6969(3) -0.4962(2) 0.49581(17)
loop_
_geom_bond_atom_site_label_1
_geom_bond_atom_site_label_2
_geom_bond_site_symmetry_1
_geom_bond_site_symmetry_2
Ni1 S1 1_555 1_555
S1 P1 1_555 1_555
S2 Ni1 1_555 1_555
P1 S2 1_555 1_555
O1 P1 1_555 1_555
C1 O1 1_555 1_555
H1 C1 1_555 1_555
H2 C1 1_555 1_555
C2 C1 1_555 1_555
H3 C2 1_555 1_555
H4 C2 1_555 1_555
H5 C2 1_555 1_555
C3 P1 1_555 1_555
C4 C3 1_555 1_555
H6 C4 1_555 1_555
C5 C4 1_555 1_555
H7 C5 1_555 1_555
C6 C5 1_555 1_555
C7 C6 1_555 1_555
H8 C7 1_555 1_555
C8 C3 1_555 1_555
H9 C8 1_555 1_555
O2 C6 1_555 1_555
C9 O2 1_555 1_555
H10 C9 1_555 1_555
H11 C9 1_555 1_555
H12 C9 1_555 1_555
N1 Ni1 1_555 1_555
C10 N1 1_555 1_555
H13 C10 1_555 1_555
C11 C10 1_555 1_555
C12 C11 1_555 1_555
H14 C12 1_555 1_555
C13 C12 1_555 1_555
H15 C13 1_555 1_555
C14 N1 1_555 1_555
H16 C14 1_555 1_555
C15 C11 1_555 1_555
N2 C15 1_555 1_555
N3 C15 1_555 1_555
Ni1_2 N1A 1_555 1_555
S1A Ni1 1_555 1_555
S2A Ni1 1_555 1_555
P1A S1A 1_555 1_555
O1A P1A 1_555 1_555
C1A O1A 1_555 1_555
H1A C1A 1_555 1_555
H2A C1A 1_555 1_555
C2A C1A 1_555 1_555
H3A C2A 1_555 1_555
H4A C2A 1_555 1_555
H5A C2A 1_555 1_555
C3A P1A 1_555 1_555
C4A C3A 1_555 1_555
H6A C4A 1_555 1_555
C5A C4A 1_555 1_555
H7A C5A 1_555 1_555
C6A C5A 1_555 1_555
C7A C6A 1_555 1_555
H8A C7A 1_555 1_555
C8A C3A 1_555 1_555
H9A C8A 1_555 1_555
O2A C6A 1_555 1_555
C9A O2A 1_555 1_555
H10A C9A 1_555 1_555
H11A C9A 1_555 1_555
H12A C9A 1_555 1_555
N1A C10A 1_555 1_555
N1A_2 Ni1 1_555 1_555
C10A H13A 1_555 1_555
C11A C10A 1_555 1_555
C12A C11A 1_555 1_555
H14A C12A 1_555 1_555
C13A C12A 1_555 1_555
H15A C13A 1_555 1_555
C14A N1A 1_555 1_555
H16A C14A 1_555 1_555
C15A C11A 1_555 1_555
N2A N3 1_555 1_555
N3A N2 1_555 1_555
C7 C8 1_555 1_555
C13 C14 1_555 1_555
S2A P1A 1_555 1_555
C7A C8A 1_555 1_555
C13A C14A 1_555 1_555
C15A N2A 1_555 1_555
C15A N3A 1_555 1_555

#END
