
#######################################################################
#
#                 Cambridge Crystallographic Data Centre
#                                CCDC 
#
#######################################################################
#
# If this CIF has been generated from an entry in the Cambridge 
# Structural Database, then it will include bibliographic, chemical, 
# crystal, experimental, refinement or atomic coordinate data resulting 
# from the CCDC's data processing and validation procedures.
#
#######################################################################

data_QARWIR
_symmetry_cell_setting           monoclinic
_symmetry_space_group_name_H-M   'C c'
_symmetry_Int_Tables_number      9
_space_group_name_Hall           'C -2yc'
loop_
_symmetry_equiv_pos_site_id
_symmetry_equiv_pos_as_xyz
1 x,y,z
2 x,-y,1/2+z
3 1/2+x,1/2+y,z
4 1/2+x,1/2-y,1/2+z
_cell_length_a                   9.2655(19)
_cell_length_b                   32.553(7)
_cell_length_c                   6.7034(13)
_cell_angle_alpha                90
_cell_angle_beta                 132.07(3)
_cell_angle_gamma                90
_cell_volume                     1500.89
loop_
_atom_site_label
_atom_site_type_symbol
_atom_site_fract_x
_atom_site_fract_y
_atom_site_fract_z
Rb1 Rb 0.26929(10) 0.19859(2) 0.38657(12)
Rb2 Rb -0.48240(16) 0.05718(4) 0.50534(19)
P1 P -0.2575(3) 0.19621(6) 0.1503(4)
P2 P -0.1370(3) 0.05854(6) 0.3182(4)
N1 N 0.0089(11) 0.0277(2) 0.5861(15)
H1 H -0.073(12) 0.008(2) 0.53(2)
N2 N 0.0092(11) 0.0998(2) 0.4449(15)
H2 H -0.050(14) 0.121(2) 0.341(18)
N3 N 0.2895(10) 0.0661(2) 0.8065(14)
H3 H 0.408(5) 0.067(3) 0.951(12)
N4 N -0.1177(12) 0.2207(2) 0.4427(14)
H4 H -0.050(14) 0.240(2) 0.45(2)
N5 N -0.3823(11) 0.1673(2) 0.1941(13)
H5 H -0.488(9) 0.157(3) 0.051(13)
N6 N -0.2117(13) 0.1846(2) 0.6395(16)
H6 H -0.171(16) 0.179(3) 0.796(11)
C1 C 0.2063(13) 0.0999(2) 0.6513(17)
C2 C 0.1994(13) 0.0309(2) 0.7945(17)
C3 C -0.3621(13) 0.1634(2) 0.4139(17)
C4 C -0.0977(12) 0.2156(3) 0.6620(16)
O1 O -0.1348(9) 0.17092(18) 0.1271(12)
O2 O -0.3136(9) 0.0678(2) 0.2710(14)
O3 O 0.3030(11) 0.1301(2) 0.6958(14)
O4 O -0.1684(12) 0.0426(2) 0.0821(13)
O5 O 0.2945(9) 0.00596(19) 0.9766(12)
O6 O -0.4684(12) 0.1420(2) 0.4160(16)
O7 O -0.3901(9) 0.22574(18) -0.0719(12)
O8 O 0.0080(11) 0.2361(2) 0.8626(13)
O9 O -0.904(2) 0.0894(5) 0.061(3)
Rb1_2 Rb -0.73071(10) 0.19859(2) 0.38657(12)
Rb1C Rb -0.23071(10) 0.30141(2) -0.11343(12)
Rb1_3 Rb -0.73071(10) 0.19859(2) -0.61343(12)
Rb1C_2 Rb -0.23071(10) 0.30141(2) 0.88657(12)
Rb1_4 Rb 0.26929(10) 0.19859(2) 1.38657(12)
Rb2_2 Rb -0.48240(16) 0.05718(4) -0.49466(19)
Rb2_3 Rb 0.51760(16) 0.05718(4) 1.50534(19)
Rb2A Rb 0.51760(16) -0.05718(4) 1.00534(19)
O4_2 O -0.1684(12) 0.0426(2) 1.0821(13)
O5_2 O -0.7055(9) 0.00596(19) -0.0234(12)
O5A O -0.7055(9) -0.00596(19) 0.4766(12)
O6_2 O 0.5316(12) 0.1420(2) 0.4160(16)
O7C O 0.1099(9) 0.27426(18) 0.4281(12)
O7_2 O 0.6099(9) 0.22574(18) 0.9281(12)
O8C O 0.5080(11) 0.2639(2) 0.3626(13)
O8_2 O 0.0080(11) 0.2361(2) -0.1374(13)
loop_
_geom_bond_atom_site_label_1
_geom_bond_atom_site_label_2
_geom_bond_site_symmetry_1
_geom_bond_site_symmetry_2
Rb1 O1 1_555 1_555
Rb2 O2 1_555 1_555
P1 N4 1_555 1_555
P2 N1 1_555 1_555
N1 H1 1_555 1_555
N2 P2 1_555 1_555
H2 N2 1_555 1_555
N3 H3 1_555 1_555
N4 H4 1_555 1_555
N5 P1 1_555 1_555
H5 N5 1_555 1_555
N6 H6 1_555 1_555
C1 N2 1_555 1_555
C2 N1 1_555 1_555
C3 N5 1_555 1_555
C4 N4 1_555 1_555
O1 P1 1_555 1_555
O2 P2 1_555 1_555
O3 Rb1 1_555 1_555
O4 P2 1_555 1_555
O5 C2 1_555 1_555
O6 Rb2 1_555 1_555
O7 P1 1_555 1_555
O8 C4 1_555 1_555
O9 Rb2 1_555 1_555
Rb1_2 O6 1_555 1_555
Rb1C O7 1_555 1_555
Rb1_3 O7 1_555 1_555
Rb1C_2 O8 1_555 1_555
Rb1_4 O8 1_555 1_555
Rb2_2 O4 1_555 1_555
Rb2_3 O5 1_555 1_555
Rb2A O5 1_555 1_555
O4_2 Rb2 1_555 1_555
O5_2 Rb2 1_555 1_555
O5A Rb2 1_555 1_555
O6_2 Rb1 1_555 1_555
O7C Rb1 1_555 1_555
O7_2 Rb1 1_555 1_555
O8C Rb1 1_555 1_555
O8_2 Rb1 1_555 1_555
N3 C1 1_555 1_555
N3 C2 1_555 1_555
N6 C3 1_555 1_555
N6 C4 1_555 1_555
C1 O3 1_555 1_555
C3 O6 1_555 1_555
Rb1C O7C 1_555 1_555
Rb1C O8_2 1_555 1_555

#END
