
#######################################################################
#
#                 Cambridge Crystallographic Data Centre
#                                CCDC 
#
#######################################################################
#
# If this CIF has been generated from an entry in the Cambridge 
# Structural Database, then it will include bibliographic, chemical, 
# crystal, experimental, refinement or atomic coordinate data resulting 
# from the CCDC's data processing and validation procedures.
#
#######################################################################

data_QARYUE
_symmetry_cell_setting           monoclinic
_symmetry_space_group_name_H-M   'P 21/c'
_symmetry_Int_Tables_number      14
_space_group_name_Hall           '-P 2ybc'
loop_
_symmetry_equiv_pos_site_id
_symmetry_equiv_pos_as_xyz
1 x,y,z
2 -x,1/2+y,1/2-z
3 -x,-y,-z
4 x,1/2-y,1/2+z
_cell_length_a                   8.1675(17)
_cell_length_b                   21.554(5)
_cell_length_c                   11.110(2)
_cell_angle_alpha                90
_cell_angle_beta                 93.822(3)
_cell_angle_gamma                90
_cell_volume                     1951.48
loop_
_atom_site_label
_atom_site_type_symbol
_atom_site_fract_x
_atom_site_fract_y
_atom_site_fract_z
Cd1 Cd 0.26540(3) 0.194487(13) 0.44216(2)
P1 P 0.48894(11) 0.26016(5) 0.19899(9)
O1 O 0.3844(3) 0.22624(12) 0.2815(2)
O2 O 0.4898(3) 0.33123(14) 0.2256(2)
H1 H 0.477(5) 0.341(2) 0.2982(15)
O3 O 0.4417(3) 0.25298(12) 0.0659(2)
O4 O 1.0021(3) 0.18331(13) 0.3245(2)
O5 O 1.0351(3) 0.25833(13) 0.4561(3)
N1 N 0.1630(3) 0.12841(15) 0.5870(3)
N2 N 0.3294(4) 0.09248(15) 0.3941(3)
C1 C 0.6995(4) 0.2354(2) 0.2257(3)
H2 H 0.7059 0.1916 0.2108
H3 H 0.7655 0.2560 0.1696
C2 C 0.7696(4) 0.2487(2) 0.3533(3)
H4 H 0.7033 0.2279 0.4090
H5 H 0.7616 0.2924 0.3680
C3 C 0.9468(4) 0.22895(19) 0.3791(3)
C4 C 0.0830(5) 0.1466(2) 0.6819(4)
H6 H 0.0679 0.1902 0.6947
C5 C 0.0211(6) 0.1047(3) 0.7617(4)
H7 H -0.0375 0.1196 0.8281
C6 C 0.0438(6) 0.0432(3) 0.7465(4)
H8 H 0.0020 0.0140 0.8021
C7 C 0.1283(5) 0.0219(2) 0.6489(4)
C8 C 0.1870(4) 0.0672(2) 0.5690(3)
C9 C 0.1546(6) -0.0417(2) 0.6228(5)
H9 H 0.1159 -0.0729 0.6757
C10 C 0.2324(6) -0.0592(2) 0.5279(5)
H10 H 0.2469 -0.1026 0.5124
C11 C 0.2961(5) -0.0148(2) 0.4465(5)
C12 C 0.2729(4) 0.04802(18) 0.4674(4)
C13 C 0.3799(6) -0.0314(2) 0.3454(5)
H11 H 0.3972 -0.0744 0.3274
C14 C 0.4358(6) 0.0125(2) 0.2733(5)
H12 H 0.4960 0.0016 0.2050
C15 C 0.4065(5) 0.0748(2) 0.2994(4)
H13 H 0.4432 0.1062 0.2461
Cd1C Cd 0.26540(3) 0.305513(13) -0.05784(2)
Cd1_2 Cd 1.26540(3) 0.194487(13) 0.44216(2)
O3C O 0.4417(3) 0.24702(12) 0.5659(2)
O4_2 O 0.0021(3) 0.18331(13) 0.3245(2)
O5_2 O 0.0351(3) 0.25833(13) 0.4561(3)
O6 O 0.2426(6) 0.44449(19) 0.5173(5)
H14 H 0.179(6) 0.421(2) 0.554(5)
H15 H 0.233(7) 0.4819(10) 0.495(6)
O7 O 0.0054(5) 0.36281(16) 0.5939(3)
H16 H 0.004(6) 0.352(2) 0.6670(16)
H17 H 0.025(6) 0.3293(13) 0.558(4)
O8 O 0.4692(4) 0.36105(15) 0.4523(3)
H18 H 0.465(6) 0.3271(13) 0.491(4)
H19 H 0.399(4) 0.3848(18) 0.481(4)
O9 O 0.7376(6) 0.4320(2) 0.5220(6)
H20 H 0.824(5) 0.413(3) 0.549(6)
H21 H 0.674(7) 0.413(3) 0.473(5)
loop_
_geom_bond_atom_site_label_1
_geom_bond_atom_site_label_2
_geom_bond_site_symmetry_1
_geom_bond_site_symmetry_2
Cd1 O1 1_555 1_555
P1 O1 1_555 1_555
O2 P1 1_555 1_555
H1 O2 1_555 1_555
O3 P1 1_555 1_555
O4 C3 1_555 1_555
O5 C3 1_555 1_555
N1 Cd1 1_555 1_555
N2 Cd1 1_555 1_555
C1 P1 1_555 1_555
H2 C1 1_555 1_555
H3 C1 1_555 1_555
C2 C1 1_555 1_555
H4 C2 1_555 1_555
H5 C2 1_555 1_555
C3 C2 1_555 1_555
C4 N1 1_555 1_555
H6 C4 1_555 1_555
C5 C4 1_555 1_555
H7 C5 1_555 1_555
C6 C5 1_555 1_555
H8 C6 1_555 1_555
C7 C6 1_555 1_555
C8 N1 1_555 1_555
C9 C7 1_555 1_555
H9 C9 1_555 1_555
C10 C9 1_555 1_555
H10 C10 1_555 1_555
C11 C10 1_555 1_555
C12 N2 1_555 1_555
C13 C11 1_555 1_555
H11 C13 1_555 1_555
C14 C13 1_555 1_555
H12 C14 1_555 1_555
C15 N2 1_555 1_555
H13 C15 1_555 1_555
O6 H14 1_555 1_555
H15 O6 1_555 1_555
O7 H16 1_555 1_555
H17 O7 1_555 1_555
O8 H18 1_555 1_555
H19 O8 1_555 1_555
O9 H20 1_555 1_555
H21 O9 1_555 1_555
Cd1C O3 1_555 1_555
Cd1_2 O4 1_555 1_555
O3C Cd1 1_555 1_555
O4_2 Cd1 1_555 1_555
O5_2 Cd1 1_555 1_555
O5 Cd1_2 1_555 1_555
C7 C8 1_555 1_555
C8 C12 1_555 1_555
C11 C12 1_555 1_555
C14 C15 1_555 1_555

#END
