
#######################################################################
#
#                 Cambridge Crystallographic Data Centre
#                                CCDC 
#
#######################################################################
#
# If this CIF has been generated from an entry in the Cambridge 
# Structural Database, then it will include bibliographic, chemical, 
# crystal, experimental, refinement or atomic coordinate data resulting 
# from the CCDC's data processing and validation procedures.
#
#######################################################################

data_QARYOY
_symmetry_cell_setting           monoclinic
_symmetry_space_group_name_H-M   'P 21/c'
_symmetry_Int_Tables_number      14
_space_group_name_Hall           '-P 2ybc'
loop_
_symmetry_equiv_pos_site_id
_symmetry_equiv_pos_as_xyz
1 x,y,z
2 -x,1/2+y,1/2-z
3 -x,-y,-z
4 x,1/2-y,1/2+z
_cell_length_a                   11.5319(3)
_cell_length_b                   24.2933(5)
_cell_length_c                   7.43510(10)
_cell_angle_alpha                90
_cell_angle_beta                 95.1658(8)
_cell_angle_gamma                90
_cell_volume                     2074.47
loop_
_atom_site_label
_atom_site_type_symbol
_atom_site_fract_x
_atom_site_fract_y
_atom_site_fract_z
Mn1 Mn 0.62293(2) 0.881622(10) 0.23681(3)
O1 O 0.64771(11) 0.94584(5) 0.05003(17)
O2 O 1.21268(10) 1.34873(5) 0.30955(17)
N1 N 0.71394(14) 0.98971(6) 0.09624(19)
N2 N 1.16228(12) 1.30188(6) 0.24993(18)
N3 N 0.53529(14) 0.83584(6) 0.0029(2)
N4 N 0.27214(19) 0.73965(11) -0.3421(3)
N5 N 0.57775(15) 0.81700(7) -0.5679(2)
N6 N 0.45853(16) 0.92323(8) 0.3003(2)
N7 N 0.07869(17) 0.92691(8) 0.3208(3)
N8 N 0.29653(15) 1.06871(7) 0.5243(2)
C1 C 0.66499(18) 1.03939(8) 0.1007(3)
H1 H 0.5850 1.0432 0.0743
C2 C 0.73195(19) 1.08459(8) 0.1439(3)
H2 H 0.6968 1.1190 0.1437
C3 C 0.85009(18) 1.08061(8) 0.1878(3)
C4 C 0.89626(18) 1.02872(9) 0.1809(3)
H3 H 0.9760 1.0240 0.2078
C5 C 0.82881(18) 0.98391(8) 0.1357(3)
H4 H 0.8627 0.9492 0.1323
C6 C 0.9242(2) 1.13020(9) 0.2405(3)
H5 H 0.8754 1.1585 0.2865
H6 H 0.9822 1.1199 0.3373
C7 C 0.9843(2) 1.15347(9) 0.0891(3)
H7 H 0.9273 1.1612 -0.0116
H8 H 1.0384 1.1264 0.0496
C8 C 1.04989(17) 1.20573(8) 0.1421(2)
C9 C 1.16316(18) 1.20544(8) 0.2227(3)
H9 H 1.2024 1.1722 0.2407
C10 C 1.21803(16) 1.25359(7) 0.2763(3)
H10 H 1.2938 1.2528 0.3309
C11 C 1.05301(15) 1.30365(8) 0.1705(2)
H11 H 1.0156 1.3373 0.1517
C12 C 0.99681(17) 1.25629(9) 0.1176(2)
H12 H 0.9209 1.2581 0.0638
C13 C 0.50029(15) 0.81803(7) -0.1342(2)
C14 C 0.45810(15) 0.79750(8) -0.3032(2)
C15 C 0.35500(19) 0.76542(10) -0.3236(3)
C16 C 0.52154(16) 0.80823(7) -0.4503(2)
C17 C 0.37682(18) 0.94653(8) 0.3351(3)
C18 C 0.27593(15) 0.97440(7) 0.3761(2)
C19 C 0.16701(18) 0.94817(8) 0.3470(3)
C20 C 0.28606(15) 1.02643(9) 0.4562(2)
Mn1A Mn 1.37707(2) 1.381622(10) 0.26319(3)
Mn1_2 Mn 0.62293(2) 0.881622(10) -0.76319(3)
Mn1B Mn 0.37707(2) 1.118378(10) 0.76319(3)
O2A O 0.78732(10) 0.84873(5) 0.19045(17)
N5_2 N 0.57775(15) 0.81700(7) 0.4321(2)
N8B N 0.70347(15) 0.93129(7) 0.4757(2)
loop_
_geom_bond_atom_site_label_1
_geom_bond_atom_site_label_2
_geom_bond_site_symmetry_1
_geom_bond_site_symmetry_2
Mn1 O1 1_555 1_555
O1 N1 1_555 1_555
O2 N2 1_555 1_555
N1 C1 1_555 1_555
N2 C10 1_555 1_555
N3 Mn1 1_555 1_555
N4 C15 1_555 1_555
N5 C16 1_555 1_555
N6 Mn1 1_555 1_555
N7 C19 1_555 1_555
N8 C20 1_555 1_555
C1 H1 1_555 1_555
C2 C1 1_555 1_555
H2 C2 1_555 1_555
C3 C2 1_555 1_555
C4 C3 1_555 1_555
H3 C4 1_555 1_555
C5 N1 1_555 1_555
H4 C5 1_555 1_555
C6 C3 1_555 1_555
H5 C6 1_555 1_555
H6 C6 1_555 1_555
C7 C6 1_555 1_555
H7 C7 1_555 1_555
H8 C7 1_555 1_555
C8 C7 1_555 1_555
C9 C8 1_555 1_555
H9 C9 1_555 1_555
C10 C9 1_555 1_555
H10 C10 1_555 1_555
C11 N2 1_555 1_555
H11 C11 1_555 1_555
C12 C8 1_555 1_555
H12 C12 1_555 1_555
C13 N3 1_555 1_555
C14 C13 1_555 1_555
C15 C14 1_555 1_555
C16 C14 1_555 1_555
C17 N6 1_555 1_555
C18 C17 1_555 1_555
C19 C18 1_555 1_555
C20 C18 1_555 1_555
Mn1A O2 1_555 1_555
Mn1_2 N5 1_555 1_555
Mn1B N8 1_555 1_555
O2A Mn1 1_555 1_555
N5_2 Mn1 1_555 1_555
N8B Mn1 1_555 1_555
C4 C5 1_555 1_555
C11 C12 1_555 1_555

#END
