
#######################################################################
#
#                 Cambridge Crystallographic Data Centre
#                                CCDC 
#
#######################################################################
#
# If this CIF has been generated from an entry in the Cambridge 
# Structural Database, then it will include bibliographic, chemical, 
# crystal, experimental, refinement or atomic coordinate data resulting 
# from the CCDC's data processing and validation procedures.
#
#######################################################################

data_QARZUF
_symmetry_cell_setting           monoclinic
_symmetry_space_group_name_H-M   'P 21/c'
_symmetry_Int_Tables_number      14
_space_group_name_Hall           '-P 2ybc'
loop_
_symmetry_equiv_pos_site_id
_symmetry_equiv_pos_as_xyz
1 x,y,z
2 -x,1/2+y,1/2-z
3 -x,-y,-z
4 x,1/2-y,1/2+z
_cell_length_a                   12.710(3)
_cell_length_b                   10.176(2)
_cell_length_c                   13.658(3)
_cell_angle_alpha                90
_cell_angle_beta                 107.15(3)
_cell_angle_gamma                90
_cell_volume                     1687.94
loop_
_atom_site_label
_atom_site_type_symbol
_atom_site_fract_x
_atom_site_fract_y
_atom_site_fract_z
Zn1 Zn -0.26819(3) 1.01980(4) 0.24804(3)
O1 O -0.2430(2) 1.0361(2) 0.1069(2)
O2 O -0.3071(3) 0.9715(3) -0.0562(2)
O3 O -0.6385(2) 0.5337(3) 0.1296(2)
O4 O -0.6295(2) 0.6836(3) 0.2481(2)
N1 N -0.1614(2) 0.8616(3) 0.3228(2)
N2 N -0.1158(2) 1.1205(3) 0.3183(2)
N3 N -0.3920(2) 0.8925(3) 0.1596(2)
C1 C -0.1836(3) 0.7344(4) 0.3270(3)
H1 H -0.2566 0.7074 0.3022
C2 C -0.1041(3) 0.6400(4) 0.3663(3)
H2 H -0.1240 0.5522 0.3675
C3 C 0.0047(3) 0.6765(4) 0.4038(3)
H3 H 0.0589 0.6140 0.4304
C4 C 0.0323(3) 0.8099(4) 0.4012(3)
C5 C -0.0543(3) 0.8989(3) 0.3609(3)
C6 C -0.0296(3) 1.0372(4) 0.3576(3)
C7 C 0.0797(3) 1.0798(4) 0.3943(3)
C8 C 0.0983(3) 1.2163(4) 0.3905(3)
H4 H 0.1696 1.2495 0.4134
C9 C 0.0120(3) 1.2988(4) 0.3533(3)
H5 H 0.0237 1.3890 0.3518
C10 C -0.0947(3) 1.2478(4) 0.3171(3)
H6 H -0.1531 1.3055 0.2912
C11 C 0.1434(3) 0.8580(4) 0.4367(3)
H7 H 0.2007 0.7990 0.4628
C12 C 0.1662(3) 0.9868(4) 0.4332(3)
H8 H 0.2388 1.0154 0.4562
C13 C -0.3068(3) 0.9710(4) 0.0338(3)
C14 C -0.3892(3) 0.8813(4) 0.0630(3)
C15 C -0.4551(3) 0.7928(4) -0.0044(3)
H9 H -0.4534 0.7876 -0.0719
C16 C -0.5240(3) 0.7115(4) 0.0308(3)
H10 H -0.5665 0.6483 -0.0124
C17 C -0.5294(3) 0.7243(4) 0.1287(3)
C18 C -0.4626(3) 0.8182(4) 0.1910(3)
H11 H -0.4671 0.8297 0.2572
C19 C -0.6040(3) 0.6410(4) 0.1708(3)
Zn1A Zn -0.73181(3) 0.51980(4) 0.25196(3)
O3A O -0.3615(2) 1.0337(3) 0.3704(2)
O4A O -0.3705(2) 1.1836(3) 0.2519(2)
O5 O -0.6703(4) 0.9637(5) 0.2615(4)
H12 H -0.638(12) 0.982(17) 0.218(9)
H13 H -0.664(7) 0.891(3) 0.275(6)
loop_
_geom_bond_atom_site_label_1
_geom_bond_atom_site_label_2
_geom_bond_site_symmetry_1
_geom_bond_site_symmetry_2
Zn1 O1 1_555 1_555
O1 C13 1_555 1_555
O2 C13 1_555 1_555
O3 C19 1_555 1_555
O4 C19 1_555 1_555
N1 Zn1 1_555 1_555
N2 Zn1 1_555 1_555
N3 Zn1 1_555 1_555
C1 N1 1_555 1_555
H1 C1 1_555 1_555
C2 C1 1_555 1_555
H2 C2 1_555 1_555
C3 C2 1_555 1_555
H3 C3 1_555 1_555
C4 C3 1_555 1_555
C5 N1 1_555 1_555
C6 N2 1_555 1_555
C7 C6 1_555 1_555
C8 C7 1_555 1_555
H4 C8 1_555 1_555
C9 C8 1_555 1_555
H5 C9 1_555 1_555
C10 N2 1_555 1_555
H6 C10 1_555 1_555
C11 C4 1_555 1_555
H7 C11 1_555 1_555
C12 C7 1_555 1_555
H8 C12 1_555 1_555
C13 C14 1_555 1_555
C14 N3 1_555 1_555
C15 C14 1_555 1_555
H9 C15 1_555 1_555
C16 C15 1_555 1_555
H10 C16 1_555 1_555
C17 C16 1_555 1_555
C18 N3 1_555 1_555
H11 C18 1_555 1_555
C19 C17 1_555 1_555
O5 H12 1_555 1_555
H13 O5 1_555 1_555
Zn1A O3 1_555 1_555
O3A Zn1 1_555 1_555
O4A Zn1 1_555 1_555
O4 Zn1A 1_555 1_555
C4 C5 1_555 1_555
C5 C6 1_555 1_555
C9 C10 1_555 1_555
C11 C12 1_555 1_555
C17 C18 1_555 1_555

#END
