
#######################################################################
#
#                 Cambridge Crystallographic Data Centre
#                                CCDC 
#
#######################################################################
#
# If this CIF has been generated from an entry in the Cambridge 
# Structural Database, then it will include bibliographic, chemical, 
# crystal, experimental, refinement or atomic coordinate data resulting 
# from the CCDC's data processing and validation procedures.
#
#######################################################################

data_QARZIT03
_symmetry_cell_setting           monoclinic
_symmetry_space_group_name_H-M   'P 21/n'
_symmetry_Int_Tables_number      14
_space_group_name_Hall           '-P 2yn'
loop_
_symmetry_equiv_pos_site_id
_symmetry_equiv_pos_as_xyz
1 x,y,z
2 1/2-x,1/2+y,1/2-z
3 -x,-y,-z
4 1/2+x,1/2-y,1/2+z
_cell_length_a                   9.7599(7)
_cell_length_b                   5.5482(4)
_cell_length_c                   14.1954(10)
_cell_angle_alpha                90
_cell_angle_beta                 104.5790(10)
_cell_angle_gamma                90
_cell_volume                     743.929
loop_
_atom_site_label
_atom_site_type_symbol
_atom_site_fract_x
_atom_site_fract_y
_atom_site_fract_z
Pb1 Pb 0.615401(12) 0.236851(18) 0.117698(8)
O1 O 0.8265(2) 0.4660(4) 0.23680(17)
O2 O 1.0591(3) 0.4967(4) 0.29570(18)
O3 O 0.6158(2) -0.1458(4) 0.03948(17)
O4 O 0.7354(3) -0.4602(4) 0.00181(18)
N1 N 0.8565(3) 0.0755(4) 0.13113(19)
C1 C 0.9750(3) 0.1897(5) 0.1793(2)
C2 C 1.1096(3) 0.1113(5) 0.1769(2)
H1 H 1.1916 0.1989 0.2093
C3 C 1.1209(3) -0.0995(6) 0.1257(2)
H2 H 1.2109 -0.1563 0.1212
C4 C 0.9986(4) -0.2247(5) 0.0814(2)
H3 H 1.0042 -0.3733 0.0493
C5 C 0.8674(3) -0.1301(5) 0.0845(2)
C6 C 0.9542(3) 0.4011(5) 0.2415(2)
C7 C 0.7305(4) -0.2569(5) 0.0371(2)
Pb1A Pb 0.884599(12) 0.736851(18) 0.382302(8)
Pb1B Pb 0.384599(12) -0.236851(18) -0.117698(8)
Pb1_2 Pb 0.615401(12) -0.763149(18) 0.117698(8)
O1A O 0.6735(2) -0.0340(4) 0.26320(17)
O2A O 0.4409(3) -0.0033(4) 0.20430(18)
O3B O 0.3842(2) 0.1458(4) -0.03948(17)
O4_2 O 0.7354(3) 0.5398(4) 0.00181(18)
loop_
_geom_bond_atom_site_label_1
_geom_bond_atom_site_label_2
_geom_bond_site_symmetry_1
_geom_bond_site_symmetry_2
Pb1 O1 1_555 1_555
O1 C6 1_555 1_555
O2 C6 1_555 1_555
O3 Pb1 1_555 1_555
O4 C7 1_555 1_555
N1 Pb1 1_555 1_555
C1 N1 1_555 1_555
C2 C1 1_555 1_555
H1 C2 1_555 1_555
C3 C2 1_555 1_555
H2 C3 1_555 1_555
C4 C3 1_555 1_555
H3 C4 1_555 1_555
C5 N1 1_555 1_555
C6 C1 1_555 1_555
C7 O3 1_555 1_555
Pb1A O1 1_555 1_555
Pb1B O3 1_555 1_555
Pb1_2 O4 1_555 1_555
O1A Pb1 1_555 1_555
O2A Pb1 1_555 1_555
O3B Pb1 1_555 1_555
O4_2 Pb1 1_555 1_555
O2 Pb1A 1_555 1_555
C4 C5 1_555 1_555
C5 C7 1_555 1_555
Pb1B O3B 1_555 1_555

#END
