
#######################################################################
#
#                 Cambridge Crystallographic Data Centre
#                                CCDC 
#
#######################################################################
#
# If this CIF has been generated from an entry in the Cambridge 
# Structural Database, then it will include bibliographic, chemical, 
# crystal, experimental, refinement or atomic coordinate data resulting 
# from the CCDC's data processing and validation procedures.
#
#######################################################################

data_QARZEP
_symmetry_cell_setting           triclinic
_symmetry_space_group_name_H-M   'P -1'
_symmetry_Int_Tables_number      2
_space_group_name_Hall           '-P 1'
loop_
_symmetry_equiv_pos_site_id
_symmetry_equiv_pos_as_xyz
1 x,y,z
2 -x,-y,-z
_cell_length_a                   8.2277(16)
_cell_length_b                   13.182(3)
_cell_length_c                   8.2269(16)
_cell_angle_alpha                94.89(3)
_cell_angle_beta                 107.19(3)
_cell_angle_gamma                85.08(3)
_cell_volume                     847.588
loop_
_atom_site_label
_atom_site_type_symbol
_atom_site_fract_x
_atom_site_fract_y
_atom_site_fract_z
Mn1 Mn 0.43423(10) 0.87355(6) 0.02754(10)
Mn2 Mn 0.52750(10) 0.62662(6) -0.06602(10)
O1 O 0.3128(4) 0.7042(3) 0.0097(5)
O2 O 0.0820(5) 0.6135(3) -0.0919(6)
O3 O 0.5099(5) 0.7963(3) -0.1869(4)
O4 O 0.4083(6) 0.8862(3) -0.4176(5)
O5 O 0.3406(4) 1.0287(3) -0.0742(5)
O6 O 0.1097(5) 1.1321(3) -0.1899(7)
O7 O 0.4259(5) 0.4713(3) -0.1599(4)
O8 O 0.3098(7) 0.3680(3) -0.3897(5)
O9 O 0.7743(6) 0.5645(4) -0.0680(6)
O10 O 0.6397(5) 0.7498(3) 0.1399(5)
O11 O 0.4318(6) 0.9352(4) 0.2744(5)
N1 N 0.1513(5) 0.8706(3) -0.1268(5)
N2 N 0.3734(5) 0.6296(3) -0.3487(5)
C1 C 0.0787(6) 0.9548(4) -0.2036(7)
C2 C -0.0763(7) 0.9559(5) -0.3284(9)
H1 H -0.1230 1.0159 -0.3808
C3 C -0.1613(7) 0.8676(5) -0.3746(9)
H2 H -0.2637 0.8662 -0.4614
C4 C -0.0906(7) 0.7808(4) -0.2885(8)
H3 H -0.1477 0.7209 -0.3132
C5 C 0.0660(6) 0.7846(4) -0.1655(7)
C6 C 0.1583(6) 0.6944(4) -0.0745(7)
C7 C 0.2955(7) 0.5448(4) -0.4202(6)
C8 C 0.1710(9) 0.5434(4) -0.5758(7)
H4 H 0.1185 0.4836 -0.6226
C9 C 0.1260(9) 0.6321(5) -0.6606(8)
H5 H 0.0394 0.6337 -0.7632
C10 C 0.2118(8) 0.7190(5) -0.5906(7)
H6 H 0.1874 0.7789 -0.6476
C11 C 0.3350(7) 0.7144(4) -0.4336(6)
C12 C 0.4260(7) 0.8074(4) -0.3412(6)
C13 C 0.1833(7) 1.0473(4) -0.1520(7)
C14 C 0.3477(7) 0.4526(4) -0.3170(7)
H7 H 0.852(9) 0.586(5) -0.073(9)
H8 H 0.471(9) 0.989(6) 0.319(10)
H9 H 0.809(14) 0.476(9) -0.021(14)
H10 H 0.404(11) 0.895(7) 0.364(11)
Mn1A Mn 0.56577(10) 1.12645(6) -0.02754(10)
Mn2A Mn 0.47250(10) 0.37338(6) 0.06602(10)
O5A O 0.6594(4) 0.9713(3) 0.0742(5)
O7A O 0.5741(5) 0.5287(3) 0.1599(4)
loop_
_geom_bond_atom_site_label_1
_geom_bond_atom_site_label_2
_geom_bond_site_symmetry_1
_geom_bond_site_symmetry_2
Mn1 O1 1_555 1_555
Mn2 O1 1_555 1_555
O1 C6 1_555 1_555
O2 C6 1_555 1_555
O3 Mn1 1_555 1_555
O4 C12 1_555 1_555
O5 Mn1 1_555 1_555
O6 C13 1_555 1_555
O7 Mn2 1_555 1_555
O8 C14 1_555 1_555
O9 Mn2 1_555 1_555
O10 Mn1 1_555 1_555
O11 Mn1 1_555 1_555
N1 Mn1 1_555 1_555
N2 Mn2 1_555 1_555
C1 N1 1_555 1_555
C2 C1 1_555 1_555
H1 C2 1_555 1_555
C3 C2 1_555 1_555
H2 C3 1_555 1_555
C4 C3 1_555 1_555
H3 C4 1_555 1_555
C5 N1 1_555 1_555
C6 C5 1_555 1_555
C7 N2 1_555 1_555
C8 C7 1_555 1_555
H4 C8 1_555 1_555
C9 C8 1_555 1_555
H5 C9 1_555 1_555
C10 C9 1_555 1_555
H6 C10 1_555 1_555
C11 N2 1_555 1_555
C12 O3 1_555 1_555
C13 O5 1_555 1_555
C14 O7 1_555 1_555
H7 O9 1_555 1_555
H8 O11 1_555 1_555
H9 O9 1_555 1_555
H10 O11 1_555 1_555
Mn1A O5 1_555 1_555
Mn2A O7 1_555 1_555
O5A Mn1 1_555 1_555
O7A Mn2 1_555 1_555
Mn2 O3 1_555 1_555
Mn2 O10 1_555 1_555
C1 C13 1_555 1_555
C4 C5 1_555 1_555
C7 C14 1_555 1_555
C10 C11 1_555 1_555
C11 C12 1_555 1_555
Mn1A O5A 1_555 1_555
Mn2A O7A 1_555 1_555

#END
