
#######################################################################
#
#                 Cambridge Crystallographic Data Centre
#                                CCDC 
#
#######################################################################
#
# If this CIF has been generated from an entry in the Cambridge 
# Structural Database, then it will include bibliographic, chemical, 
# crystal, experimental, refinement or atomic coordinate data resulting 
# from the CCDC's data processing and validation procedures.
#
#######################################################################

data_QARZIT04
_symmetry_cell_setting           monoclinic
_symmetry_space_group_name_H-M   'P 21/n'
_symmetry_Int_Tables_number      14
_space_group_name_Hall           '-P 2yn'
loop_
_symmetry_equiv_pos_site_id
_symmetry_equiv_pos_as_xyz
1 x,y,z
2 1/2-x,1/2+y,1/2-z
3 -x,-y,-z
4 1/2+x,1/2-y,1/2+z
_cell_length_a                   9.8235(13)
_cell_length_b                   5.5452(8)
_cell_length_c                   14.3578(19)
_cell_angle_alpha                90
_cell_angle_beta                 104.943(2)
_cell_angle_gamma                90
_cell_volume                     755.667
loop_
_atom_site_label
_atom_site_type_symbol
_atom_site_fract_x
_atom_site_fract_y
_atom_site_fract_z
Pb1 Pb 0.38415(3) 0.26719(5) 0.881396(19)
O1 O 0.3830(5) 0.6475(8) 0.9616(3)
O2 O 0.1716(4) 0.0421(7) 0.7615(3)
O3 O -0.0594(4) 0.0096(8) 0.7035(3)
O4 O 0.2655(5) 0.9603(8) 0.9982(3)
N1 N 0.1440(5) 0.4299(8) 0.8677(3)
C1 C 0.0034(9) 0.7248(11) 0.9184(6)
C2 C 0.2712(9) 0.7591(10) 0.9642(6)
C3 C 0.0461(6) 0.1054(11) 0.7572(4)
C4 C 0.0258(7) 0.3171(11) 0.8195(5)
C5 C -0.1164(7) 0.6015(15) 0.8739(4)
H1 H -0.213(10) 0.635(17) 0.873(6)
C6 C 0.1330(6) 0.6333(11) 0.9157(4)
C7 C -0.1071(7) 0.3938(13) 0.8213(5)
H2 H -0.193(8) 0.301(12) 0.787(6)
H3 H -0.008(7) 0.872(14) 0.955(5)
Pb1B Pb 0.61585(3) 0.73281(5) 1.118604(19)
Pb1A Pb 0.11585(3) -0.23281(5) 0.618604(19)
Pb1_2 Pb 0.38415(3) 1.26719(5) 0.881396(19)
O1B O 0.6170(5) 0.3525(8) 1.0384(3)
O2A O 0.3284(4) 0.5421(7) 0.7385(3)
O3A O 0.5594(4) 0.5096(8) 0.7965(3)
O4_2 O 0.2655(5) -0.0397(8) 0.9982(3)
loop_
_geom_bond_atom_site_label_1
_geom_bond_atom_site_label_2
_geom_bond_site_symmetry_1
_geom_bond_site_symmetry_2
Pb1 O1 1_555 1_555
O1 C2 1_555 1_555
O2 Pb1 1_555 1_555
O3 C3 1_555 1_555
O4 C2 1_555 1_555
N1 Pb1 1_555 1_555
C1 C5 1_555 1_555
C2 C6 1_555 1_555
C3 O2 1_555 1_555
C4 N1 1_555 1_555
C5 H1 1_555 1_555
C6 N1 1_555 1_555
C7 C4 1_555 1_555
H2 C7 1_555 1_555
H3 C1 1_555 1_555
Pb1B O1 1_555 1_555
Pb1A O2 1_555 1_555
Pb1_2 O4 1_555 1_555
O1B Pb1 1_555 1_555
O2A Pb1 1_555 1_555
O3A Pb1 1_555 1_555
O4_2 Pb1 1_555 1_555
O3 Pb1A 1_555 1_555
C1 C6 1_555 1_555
C3 C4 1_555 1_555
C5 C7 1_555 1_555
Pb1B O1B 1_555 1_555

#END
