
#######################################################################
#
#                 Cambridge Crystallographic Data Centre
#                                CCDC 
#
#######################################################################
#
# If this CIF has been generated from an entry in the Cambridge 
# Structural Database, then it will include bibliographic, chemical, 
# crystal, experimental, refinement or atomic coordinate data resulting 
# from the CCDC's data processing and validation procedures.
#
#######################################################################

data_QARZOZ
_symmetry_cell_setting           monoclinic
_symmetry_space_group_name_H-M   'C 2/c'
_symmetry_Int_Tables_number      15
_space_group_name_Hall           '-C 2yn'
loop_
_symmetry_equiv_pos_site_id
_symmetry_equiv_pos_as_xyz
1 x,y,z
2 1/2+x,1/2+y,z
3 -x,y,1/2-z
4 1/2-x,1/2+y,1/2-z
5 -x,-y,-z
6 1/2-x,1/2-y,-z
7 x,-y,1/2+z
8 1/2+x,1/2-y,1/2+z
_cell_length_a                   21.488(4)
_cell_length_b                   10.875(2)
_cell_length_c                   16.501(3)
_cell_angle_alpha                90
_cell_angle_beta                 115.83(3)
_cell_angle_gamma                90
_cell_volume                     3470.74
loop_
_atom_site_label
_atom_site_type_symbol
_atom_site_fract_x
_atom_site_fract_y
_atom_site_fract_z
Cd1 Cd 0.208594(10) 0.840219(17) 0.060834(13)
N1 N 0.13159(13) 0.9786(2) 0.07915(16)
N2 N 0.20311(14) 1.0242(2) -0.02006(17)
N3 N 0.30770(12) 0.9139(2) 0.18968(15)
C1 C 0.09821(19) 0.9598(3) 0.1291(2)
H1 H 0.1093 0.8906 0.1659
C2 C 0.04650(19) 1.0402(4) 0.1290(3)
H2 H 0.0241 1.0238 0.1650
C3 C 0.02995(19) 1.1409(3) 0.0761(3)
H3 H -0.0049 1.1934 0.0740
C4 C 0.06564(17) 1.1657(3) 0.0243(3)
C5 C 0.11669(16) 1.0817(3) 0.0278(2)
C6 C 0.15417(16) 1.1050(3) -0.0245(2)
C7 C 0.1393(2) 1.2119(3) -0.0787(3)
C8 C 0.1781(3) 1.2304(4) -0.1278(3)
H4 H 0.1694 1.2987 -0.1650
C9 C 0.2279(3) 1.1495(4) -0.1212(3)
H5 H 0.2542 1.1626 -0.1528
C10 C 0.2393(2) 1.0466(3) -0.0665(3)
H6 H 0.2736 0.9912 -0.0623
C11 C 0.0520(2) 1.2724(3) -0.0324(3)
H7 H 0.0179 1.3275 -0.0356
C12 C 0.0870(3) 1.2942(4) -0.0804(3)
H8 H 0.0772 1.3647 -0.1158
C13 C 0.35964(18) 1.1311(3) 0.3869(2)
C14 C 0.30692(15) 0.9996(3) 0.24763(19)
H9 H 0.2655 1.0400 0.2348
C15 C 0.36497(16) 1.0312(3) 0.32618(19)
C16 C 0.42572(16) 0.9688(3) 0.3455(2)
H10 H 0.4649 0.9853 0.3985
C17 C 0.42819(16) 0.8815(3) 0.2860(2)
H11 H 0.4691 0.8399 0.2977
C18 C 0.36817(14) 0.8573(2) 0.20809(18)
C19 C 0.36854(15) 0.7652(3) 0.13878(19)
O1 O 0.40569(15) 1.1394(2) 0.46466(18)
O2 O 0.30655(14) 1.1987(2) 0.35151(17)
O3 O 0.31179(10) 0.76055(19) 0.06675(13)
O4 O 0.42086(11) 0.7053(2) 0.15497(15)
Cd1C Cd 0.291406(10) 1.340219(17) 0.439166(13)
Cd1E Cd 0.291406(10) 0.659781(17) -0.060834(13)
O2C O 0.19345(14) 0.6987(2) 0.14849(17)
O3E O 0.18821(10) 0.73945(19) -0.06675(13)
loop_
_geom_bond_atom_site_label_1
_geom_bond_atom_site_label_2
_geom_bond_site_symmetry_1
_geom_bond_site_symmetry_2
Cd1 N1 1_555 1_555
N1 C1 1_555 1_555
N2 Cd1 1_555 1_555
N3 Cd1 1_555 1_555
C1 H1 1_555 1_555
C2 C1 1_555 1_555
H2 C2 1_555 1_555
C3 C2 1_555 1_555
H3 C3 1_555 1_555
C4 C3 1_555 1_555
C5 N1 1_555 1_555
C6 N2 1_555 1_555
C7 C6 1_555 1_555
C8 C7 1_555 1_555
H4 C8 1_555 1_555
C9 C8 1_555 1_555
H5 C9 1_555 1_555
C10 N2 1_555 1_555
H6 C10 1_555 1_555
C11 C4 1_555 1_555
H7 C11 1_555 1_555
C12 C7 1_555 1_555
H8 C12 1_555 1_555
C13 C15 1_555 1_555
C14 N3 1_555 1_555
H9 C14 1_555 1_555
C15 C14 1_555 1_555
C16 C15 1_555 1_555
H10 C16 1_555 1_555
C17 C16 1_555 1_555
H11 C17 1_555 1_555
C18 N3 1_555 1_555
C19 C18 1_555 1_555
O1 C13 1_555 1_555
O2 C13 1_555 1_555
O3 Cd1 1_555 1_555
O4 C19 1_555 1_555
Cd1C O2 1_555 1_555
Cd1E O3 1_555 1_555
O2C Cd1 1_555 1_555
O3E Cd1 1_555 1_555
C4 C5 1_555 1_555
C5 C6 1_555 1_555
C9 C10 1_555 1_555
C11 C12 1_555 1_555
C17 C18 1_555 1_555
C19 O3 1_555 1_555
Cd1E O3E 1_555 1_555

#END
