
#######################################################################
#
#                 Cambridge Crystallographic Data Centre
#                                CCDC 
#
#######################################################################
#
# If this CIF has been generated from an entry in the Cambridge 
# Structural Database, then it will include bibliographic, chemical, 
# crystal, experimental, refinement or atomic coordinate data resulting 
# from the CCDC's data processing and validation procedures.
#
#######################################################################

data_QASBUI
_symmetry_cell_setting           triclinic
_symmetry_space_group_name_H-M   'P -1'
_symmetry_Int_Tables_number      2
_space_group_name_Hall           '-P 1'
loop_
_symmetry_equiv_pos_site_id
_symmetry_equiv_pos_as_xyz
1 x,y,z
2 -x,-y,-z
_cell_length_a                   9.9011(13)
_cell_length_b                   9.9978(11)
_cell_length_c                   14.6190(15)
_cell_angle_alpha                97.018(4)
_cell_angle_beta                 95.616(5)
_cell_angle_gamma                107.696(4)
_cell_volume                     1354.3
loop_
_atom_site_label
_atom_site_type_symbol
_atom_site_fract_x
_atom_site_fract_y
_atom_site_fract_z
Ag1 Ag 0.91231(3) 0.22486(3) 0.32980(2)
Ag2 Ag 1.66757(3) 0.44465(3) 0.21247(2)
S1 S 0.54360(8) 0.09130(8) 0.30018(7)
C1 C 1.4714(4) 0.6155(4) 0.2836(3)
H1 H 1.5497 0.6928 0.2784
C2 C 1.3573(4) 0.6417(4) 0.3202(3)
H2 H 1.3597 0.7347 0.3391
C3 C 1.2392(3) 0.5290(3) 0.3287(2)
C4 C 1.2436(4) 0.3942(3) 0.2985(3)
H3 H 1.1662 0.3152 0.3023
C5 C 1.3615(4) 0.3757(4) 0.2628(3)
H4 H 1.3617 0.2837 0.2433
C6 C 1.1146(3) 0.5530(3) 0.3657(2)
C7 C 0.9040(3) 0.5290(3) 0.4051(2)
C8 C 0.7623(4) 0.4801(4) 0.4224(2)
H5 H 0.7082 0.3843 0.4089
C9 C 0.7072(4) 0.5822(4) 0.4607(3)
H6 H 0.6130 0.5536 0.4727
C10 C 0.7868(4) 0.7259(4) 0.4821(3)
H7 H 0.7445 0.7900 0.5080
C11 C 0.9267(4) 0.7753(4) 0.4658(3)
H8 H 0.9805 0.8711 0.4798
C12 C 0.9830(3) 0.6727(3) 0.4269(2)
C13 C 1.0675(3) -0.0044(3) 0.2743(3)
H9 H 1.1499 0.0694 0.3011
C14 C 1.0818(3) -0.1309(3) 0.2360(2)
H10 H 1.1720 -0.1415 0.2366
C15 C 0.9590(3) -0.2437(3) 0.1959(2)
C16 C 0.8286(3) -0.2196(3) 0.1946(3)
H11 H 0.7449 -0.2909 0.1666
C17 C 0.8230(4) -0.0895(3) 0.2348(3)
H12 H 0.7341 -0.0758 0.2340
C18 C 0.9685(3) -0.3838(3) 0.1588(2)
C19 C 1.0623(3) -0.5427(3) 0.1004(2)
C20 C 1.1470(4) -0.6173(4) 0.0629(2)
H13 H 1.2373 -0.5714 0.0486
C21 C 1.0893(4) -0.7638(4) 0.0483(3)
H14 H 1.1425 -0.8182 0.0238
C22 C 0.9539(5) -0.8323(4) 0.0692(3)
H15 H 0.9197 -0.9312 0.0587
C23 C 0.8686(4) -0.7582(4) 0.1051(3)
H16 H 0.7779 -0.8048 0.1186
C24 C 0.9249(3) -0.6098(3) 0.1200(2)
N1 N 1.4754(3) 0.4844(3) 0.2550(2)
N2 N 0.9895(3) 0.4553(3) 0.36663(18)
N3 N 1.1157(3) 0.6850(3) 0.40186(19)
H17 H 1.1867 0.7623 0.4080
N4 N 0.9401(3) 0.0182(3) 0.2751(2)
N5 N 0.8679(3) -0.5073(3) 0.15632(19)
N6 N 1.0872(3) -0.3990(3) 0.12667(19)
H18 H 1.1640 -0.3316 0.1232
O1 O 0.5772(3) 0.1805(3) 0.2268(2)
O4 O 0.6760(3) 0.1127(3) 0.3630(2)
O5 O 0.4890(4) -0.0581(3) 0.2582(2)
O8 O 0.4407(3) 0.1302(3) 0.3530(3)
N5_2 N 1.8679(3) 0.4927(3) 0.15632(19)
O1_2 O 1.5772(3) 0.1805(3) 0.2268(2)
Ag2_2 Ag 0.66757(3) -0.55535(3) 0.21247(2)
Ag2_3 Ag 0.66757(3) 0.44465(3) 0.21247(2)
O2 O 0.3400(3) -0.2096(3) 0.1013(3)
H19 H 0.377(5) -0.158(4) 0.153(2)
H20 H 0.332(6) -0.143(4) 0.073(4)
O3 O 0.4168(6) 0.0837(6) 0.0512(4)
H21 H 0.491(9) 0.087(10) 0.053(7)
H22 H 0.462(11) 0.129(9) 0.105(3)
O6 O 0.4813(5) 0.3512(5) -0.0174(4)
H24 H 0.451(9) 0.276(6) 0.008(5)
H25 H 0.545(6) 0.330(8) -0.049(5)
O7 O 1.2968(4) 0.9465(3) 0.4587(2)
H26 H 1.355(4) 1.002(4) 0.429(3)
H27 H 1.334(6) 0.935(6) 0.511(2)
H23? H 0.471(8) 0.428(4) -0.032(5)
loop_
_geom_bond_atom_site_label_1
_geom_bond_atom_site_label_2
_geom_bond_site_symmetry_1
_geom_bond_site_symmetry_2
Ag1 N2 1_555 1_555
Ag2 N1 1_555 1_555
S1 O1 1_555 1_555
C1 H1 1_555 1_555
C2 C1 1_555 1_555
H2 C2 1_555 1_555
C3 C2 1_555 1_555
C4 C3 1_555 1_555
H3 C4 1_555 1_555
C5 C4 1_555 1_555
H4 C5 1_555 1_555
C6 C3 1_555 1_555
C7 C8 1_555 1_555
C8 H5 1_555 1_555
C9 C8 1_555 1_555
H6 C9 1_555 1_555
C10 C9 1_555 1_555
H7 C10 1_555 1_555
C11 C10 1_555 1_555
H8 C11 1_555 1_555
C12 C7 1_555 1_555
C13 H9 1_555 1_555
C14 C13 1_555 1_555
H10 C14 1_555 1_555
C15 C14 1_555 1_555
C16 C15 1_555 1_555
H11 C16 1_555 1_555
C17 C16 1_555 1_555
H12 C17 1_555 1_555
C18 C15 1_555 1_555
C19 C20 1_555 1_555
C20 H13 1_555 1_555
C21 C20 1_555 1_555
H14 C21 1_555 1_555
C22 C21 1_555 1_555
H15 C22 1_555 1_555
C23 C22 1_555 1_555
H16 C23 1_555 1_555
C24 C19 1_555 1_555
N1 C1 1_555 1_555
N2 C6 1_555 1_555
N3 C6 1_555 1_555
H17 N3 1_555 1_555
N4 Ag1 1_555 1_555
N5 C18 1_555 1_555
N6 C18 1_555 1_555
H18 N6 1_555 1_555
O1 Ag2_3 1_555 1_555
O2 H19 1_555 1_555
H20 O2 1_555 1_555
O3 H21 1_555 1_555
H22 O3 1_555 1_555
O4 Ag1 1_555 1_555
O5 S1 1_555 1_555
O6 H24 1_555 1_555
H25 O6 1_555 1_555
O7 H26 1_555 1_555
H27 O7 1_555 1_555
O8 S1 1_555 1_555
N5_2 Ag2 1_555 1_555
O1_2 Ag2 1_555 1_555
Ag2_2 N5 1_555 1_555
S1 O4 1_555 1_555
C5 N1 1_555 1_555
C7 N2 1_555 1_555
C11 C12 1_555 1_555
C12 N3 1_555 1_555
C13 N4 1_555 1_555
C17 N4 1_555 1_555
C19 N6 1_555 1_555
C23 C24 1_555 1_555
C24 N5 1_555 1_555

#END
