
#######################################################################
#
#                 Cambridge Crystallographic Data Centre
#                                CCDC 
#
#######################################################################
#
# If this CIF has been generated from an entry in the Cambridge 
# Structural Database, then it will include bibliographic, chemical, 
# crystal, experimental, refinement or atomic coordinate data resulting 
# from the CCDC's data processing and validation procedures.
#
#######################################################################

data_QASBIW
_symmetry_cell_setting           hexagonal
_symmetry_space_group_name_H-M   'P 65'
_symmetry_Int_Tables_number      170
_space_group_name_Hall           'P 65'
loop_
_symmetry_equiv_pos_site_id
_symmetry_equiv_pos_as_xyz
1 x,y,z
2 -y,x-y,2/3+z
3 -x+y,-x,1/3+z
4 -x,-y,1/2+z
5 y,-x+y,1/6+z
6 x-y,x,5/6+z
_cell_length_a                   11.4010(7)
_cell_length_b                   11.4010(7)
_cell_length_c                   34.624(3)
_cell_angle_alpha                90
_cell_angle_beta                 90
_cell_angle_gamma                120
_cell_volume                     3897.57
loop_
_atom_site_label
_atom_site_type_symbol
_atom_site_fract_x
_atom_site_fract_y
_atom_site_fract_z
Ag1 Ag 0.93545(11) 0.75546(12) 0.03034(4)
Ag2 Ag 1.65290(13) 1.02696(12) 0.05584(4)
C1 C 1.2057(15) 0.8251(15) 0.0704(4)
H1 H 1.1964 0.8967 0.0796
C2 C 1.3234(15) 0.8229(15) 0.0779(5)
H2 H 1.3925 0.8951 0.0913
C3 C 1.3427(14) 0.7212(15) 0.0666(4)
C4 C 1.2404(14) 0.6168(16) 0.0457(4)
H3 H 1.2494 0.5445 0.0369
C5 C 1.1224(13) 0.6231(13) 0.0380(4)
H4 H 1.0535 0.5529 0.0240
C6 C 1.4675(16) 0.7200(15) 0.0757(4)
C7 C 1.6739(13) 0.7766(14) 0.0916(4)
C8 C 1.8137(15) 0.8478(16) 0.1003(4)
H5 H 1.8659 0.9415 0.0984
C9 C 1.8655(16) 0.7707(18) 0.1114(5)
H6 H 1.9575 0.8130 0.1171
C10 C 1.7877(16) 0.6282(17) 0.1149(5)
H7 H 1.8300 0.5801 0.1225
C11 C 1.6540(15) 0.5607(14) 0.1076(5)
H8 H 1.6020 0.4675 0.1111
C12 C 1.5970(14) 0.6367(13) 0.0945(4)
C13 C 0.5202(14) 0.2071(15) 0.0359(5)
H9 H 0.4412 0.1305 0.0439
C14 C 0.5115(15) 0.3205(15) 0.0249(5)
H10 H 0.4294 0.3194 0.0256
C15 C 0.6276(14) 0.4326(13) 0.0134(4)
C16 C 0.7454(14) 0.4284(16) 0.0108(4)
H11 H 0.8236 0.5021 0.0011
C17 C 0.7465(17) 0.3129(16) 0.0229(5)
H12 H 0.8279 0.3126 0.0222
C18 C 0.6289(14) 0.5595(15) 0.0026(4)
C19 C 0.6913(15) 0.7693(15) -0.0072(4)
C20 C 0.7633(14) 0.9125(14) -0.0109(4)
H13 H 0.8543 0.9648 -0.0042
C21 C 0.6904(17) 0.9681(16) -0.0246(5)
H14 H 0.7339 1.0619 -0.0270
C22 C 0.5552(18) 0.8941(17) -0.0354(5)
H15 H 0.5129 0.9390 -0.0456
C23 C 0.4806(16) 0.7516(16) -0.0313(4)
H16 H 0.3888 0.7005 -0.0371
C24 C 0.5549(14) 0.6940(14) -0.0179(4)
O2 O 1.0896(14) 1.0048(11) 0.0389(4)
O4 O 1.9129(10) 1.1689(11) 0.0525(3)
N1 N 1.1037(12) 0.7255(12) 0.0500(4)
N2 N 1.5880(12) 0.8262(12) 0.0800(3)
N3 N 1.4665(11) 0.6022(11) 0.0845(3)
H17 H 1.3975 0.5218 0.0838
N4 N 0.6346(12) 0.2010(11) 0.0356(4)
N5 N 0.7355(10) 0.6818(11) 0.0062(3)
N6 N 0.5171(11) 0.5600(11) -0.0107(3)
H18 H 0.4380 0.4905 -0.0140
Ag2_2 Ag 0.65290(13) 0.02696(12) 0.05584(4)
N4_2 N 1.6346(12) 1.2010(11) 0.0356(4)
S1 S 1.1540(4) 0.2928(4) -0.02653(12)
O1 O 1.196(2) 0.254(3) 0.0065(6)
O3 O 1.0892(16) 0.1835(15) -0.0536(5)
O5 O 1.2748(14) 0.4026(17) -0.0421(6)
O7 O 1.0556(16) 0.3286(17) -0.0150(5)
O6 O 1.2426(12) 0.3548(11) 0.0799(4)
loop_
_geom_bond_atom_site_label_1
_geom_bond_atom_site_label_2
_geom_bond_site_symmetry_1
_geom_bond_site_symmetry_2
Ag1 O2 1_555 1_555
Ag2 O4 1_555 1_555
S1 O1 1_555 1_555
C1 H1 1_555 1_555
C2 C1 1_555 1_555
H2 C2 1_555 1_555
C3 C2 1_555 1_555
C4 C3 1_555 1_555
H3 C4 1_555 1_555
C5 C4 1_555 1_555
H4 C5 1_555 1_555
C6 C3 1_555 1_555
C7 C8 1_555 1_555
C8 H5 1_555 1_555
C9 C8 1_555 1_555
H6 C9 1_555 1_555
C10 C9 1_555 1_555
H7 C10 1_555 1_555
C11 C10 1_555 1_555
H8 C11 1_555 1_555
C12 C7 1_555 1_555
C13 H9 1_555 1_555
C14 C13 1_555 1_555
H10 C14 1_555 1_555
C15 C14 1_555 1_555
C16 C15 1_555 1_555
H11 C16 1_555 1_555
C17 C16 1_555 1_555
H12 C17 1_555 1_555
C18 C15 1_555 1_555
C19 C20 1_555 1_555
C20 H13 1_555 1_555
C21 C20 1_555 1_555
H14 C21 1_555 1_555
C22 C21 1_555 1_555
H15 C22 1_555 1_555
C23 C22 1_555 1_555
H16 C23 1_555 1_555
C24 C19 1_555 1_555
O3 S1 1_555 1_555
O5 S1 1_555 1_555
O7 S1 1_555 1_555
N1 Ag1 1_555 1_555
N2 Ag2 1_555 1_555
N3 C6 1_555 1_555
H17 N3 1_555 1_555
N4 C13 1_555 1_555
N5 Ag1 1_555 1_555
N6 C18 1_555 1_555
H18 N6 1_555 1_555
Ag2_2 N4 1_555 1_555
N4_2 Ag2 1_555 1_555
C1 N1 1_555 1_555
C5 N1 1_555 1_555
C6 N2 1_555 1_555
C7 N2 1_555 1_555
C11 C12 1_555 1_555
C12 N3 1_555 1_555
C17 N4 1_555 1_555
C18 N5 1_555 1_555
C19 N5 1_555 1_555
C23 C24 1_555 1_555
C24 N6 1_555 1_555

#END
