
#######################################################################
#
#                 Cambridge Crystallographic Data Centre
#                                CCDC 
#
#######################################################################
#
# If this CIF has been generated from an entry in the Cambridge 
# Structural Database, then it will include bibliographic, chemical, 
# crystal, experimental, refinement or atomic coordinate data resulting 
# from the CCDC's data processing and validation procedures.
#
#######################################################################

data_QASDIY
_symmetry_cell_setting           orthorhombic
_symmetry_space_group_name_H-M   'P 21 21 21'
_symmetry_Int_Tables_number      19
_space_group_name_Hall           'P 2ac 2ab'
loop_
_symmetry_equiv_pos_site_id
_symmetry_equiv_pos_as_xyz
1 x,y,z
2 1/2-x,-y,1/2+z
3 1/2+x,1/2-y,-z
4 -x,1/2+y,1/2-z
_cell_length_a                   21.4407(18)
_cell_length_b                   24.779(2)
_cell_length_c                   9.2166(8)
_cell_angle_alpha                90
_cell_angle_beta                 90
_cell_angle_gamma                90
_cell_volume                     4896.59
loop_
_atom_site_label
_atom_site_type_symbol
_atom_site_fract_x
_atom_site_fract_y
_atom_site_fract_z
Br1 Br 0.81527(9) 0.92629(7) 0.0003(2)
Br2 Br 0.79126(9) 1.31907(7) 1.1756(3)
Br3 Br 0.96627(8) 1.33435(7) 1.0598(3)
Br4 Br 0.84119(10) 1.35583(7) 0.7610(3)
Cu1 Cu 0.86944(17) 1.38243(10) 1.0667(6)
Cu2 Cu 0.86264(17) 1.29060(10) 0.9616(4)
C1 C 1.0064(8) 2.0142(7) 1.615(3)
H1 H 1.0481 2.0303 1.6181
O1 O 0.8168(7) 1.6026(5) 1.5296(16)
N1 N 0.8965(5) 1.9713(4) 1.6082(11)
O2 O 0.8321(5) 2.0686(4) 1.5150(11)
C2 C 0.9563(7) 2.0556(6) 1.672(3)
H2 H 0.9507 2.0844 1.6014
H3 H 0.9698 2.0715 1.7626
C3 C 0.9394(7) 1.9346(5) 1.6870(16)
H4 H 0.9473 1.9029 1.6281
H5 H 0.9198 1.9229 1.7765
C4 C 0.8257(7) 1.7834(5) 1.438(2)
C5 C 0.8221(7) 1.6056(6) 1.379(3)
H6 H 0.7844 1.6233 1.3430
C6 C 0.9905(8) 1.6943(9) 1.282(2)
H7 H 1.0254 1.7185 1.3037
C7 C 0.8278(6) 1.8901(5) 1.5388(13)
N2 N 0.8545(7) 2.2157(5) 1.886(2)
C8 C 0.8276(6) 1.8783(5) 1.3862(14)
H8 H 0.8285 1.9062 1.3187
C9 C 0.8428(7) 2.1137(5) 1.7412(18)
N3 N 0.8851(5) 1.6972(4) 1.3871(16)
C10 C 0.8480(7) 2.1694(6) 1.9691(17)
N4 N 0.8474(14) 1.4533(11) 1.149(6)
C11 C 0.9681(17) 1.6811(14) 1.002(4)
H9 H 0.9340 1.7043 1.0010
H10 H 0.9805 1.6640 0.9164
C12 C 0.8391(8) 1.5085(6) 1.377(3)
H11 H 0.8403 1.5079 1.4774
C13 C 1.0010(10) 1.6718(9) 1.131(3)
H12 H 1.0344 1.6482 1.1229
C14 C 0.8574(9) 2.2098(6) 1.745(3)
H13 H 0.8653 2.2403 1.6896
C15 C 0.8338(7) 1.9464(5) 1.5944(16)
H14 H 0.8144 1.9475 1.6894
H15 H 0.8092 1.9695 1.5314
C16 C 0.8504(18) 1.4583(12) 1.276(6)
H16 H 0.8615 1.4270 1.3256
C17 C 0.8375(7) 2.0602(5) 1.6663(16)
H17 H 0.8000 2.0418 1.7011
C18 C 0.8495(9) 2.1618(6) 1.674(2)
H18 H 0.8488 2.1623 1.5734
C19 C 0.8279(7) 1.5503(6) 1.299(2)
C20 C 0.8420(6) 2.1181(5) 1.8929(16)
C21 C 0.9826(8) 1.6755(7) 1.5355(18)
H19 H 1.0101 1.7064 1.5443
H20 H 0.9914 1.6507 1.6144
C22 C 1.0030(7) 1.9633(6) 1.723(2)
H21 H 1.0352 1.9384 1.6879
C23 C 0.8218(7) 1.7941(6) 1.5883(18)
H22 H 0.8170 1.7661 1.6547
C24 C 0.9299(7) 1.7273(8) 1.293(2)
H23 H 0.9386 1.7625 1.3343
H24 H 0.9121 1.7325 1.1971
C25 C 0.8320(6) 2.0729(5) 1.992(2)
H25 H 0.8283 2.0383 1.9537
C26 C 0.8280(8) 2.0797(7) 2.1400(18)
H26 H 0.8201 2.0497 2.1978
C27 C 0.8335(8) 1.4964(7) 1.076(4)
C28 C 0.8933(6) 2.0246(5) 1.6939(16)
H27 H 0.8916 2.0146 1.7967
C29 C 0.9931(15) 1.9660(16) 1.989(3)
H28 H 0.9557 1.9470 1.9909
H29 H 1.0112 1.9777 2.0749
C30 C 0.8219(7) 1.5482(6) 1.133(3)
C31 C 0.8223(7) 1.7258(5) 1.3865(19)
H30 H 0.8055 1.7252 1.2888
H31 H 0.7936 1.7061 1.4484
C32 C 0.9242(7) 1.9801(6) 1.4567(15)
H32 H 0.9220 1.9469 1.4013
H33 H 0.9005 2.0076 1.4056
C33 C 0.8351(8) 2.1293(7) 2.2059(16)
H34 H 0.8342 2.1327 2.3063
C34 C 0.8277(11) 1.4922(11) 0.915(5)
H35 H 0.8333 1.4589 0.8711
C35 C 0.8255(7) 1.8486(5) 1.6352(16)
H36 H 0.8263 1.8561 1.7341
C36 C 0.9912(8) 1.9977(7) 1.472(3)
H37 H 1.0183 1.9681 1.4441
H38 H 0.9991 2.0275 1.4059
C37 C 0.8804(7) 1.6400(6) 1.324(2)
H39 H 0.8767 1.6434 1.2180
C38 C 0.9133(7) 1.6938(7) 1.540(3)
H40 H 0.9106 1.7289 1.5865
H41 H 0.8894 1.6684 1.5979
C39 C 0.8262(6) 1.8235(6) 1.3388(14)
H42 H 0.8255 1.8155 1.2402
C40 C 0.9409(7) 1.6097(8) 1.356(3)
H43 H 0.9345 1.5852 1.4363
H44 H 0.9527 1.5884 1.2716
C41 C 0.8439(7) 2.1747(7) 2.116(2)
H45 H 0.8468 2.2088 2.1577
C42 C 1.0207(14) 1.9764(11) 1.862(3)
H46 H 1.0579 1.9955 1.8693
C43 C 0.8153(11) 1.5339(13) 0.837(4)
H47 H 0.8157 1.5301 0.7362
C44 C 0.8013(10) 1.5840(14) 0.896(4)
H48 H 0.7908 1.6128 0.8355
C45 C 0.9920(8) 1.6481(6) 1.3916(18)
H49 H 1.0325 1.6297 1.3890
C46 C 0.8031(8) 1.5907(9) 1.045(3)
H50 H 0.7918 1.6236 1.0864
Cu2_2 Cu 0.86264(17) 2.29060(10) 1.9616(4)
N2_2 N 0.8545(7) 1.2157(5) 0.886(2)
O3 O 0.8888(12) 0.8050(6) -0.0324(19)
O4 O 0.8020(17) 0.7341(18) 0.014(4)
O5 O 0.9988(17) 0.8088(15) -0.185(4)
loop_
_geom_bond_atom_site_label_1
_geom_bond_atom_site_label_2
_geom_bond_site_symmetry_1
_geom_bond_site_symmetry_2
Br2 Cu1 1_555 1_555
Br3 Cu1 1_555 1_555
Br4 Cu2 1_555 1_555
Cu1 Cu2 1_555 1_555
Cu2 Br2 1_555 1_555
C1 H1 1_555 1_555
O1 C5 1_555 1_555
N1 C3 1_555 1_555
O2 C17 1_555 1_555
C2 C1 1_555 1_555
H2 C2 1_555 1_555
H3 C2 1_555 1_555
C3 H4 1_555 1_555
H5 C3 1_555 1_555
C4 C23 1_555 1_555
C5 H6 1_555 1_555
C6 H7 1_555 1_555
C7 C8 1_555 1_555
N2 C10 1_555 1_555
C8 H8 1_555 1_555
C9 C17 1_555 1_555
N3 C24 1_555 1_555
C10 C20 1_555 1_555
N4 Cu1 1_555 1_555
C11 H9 1_555 1_555
H10 C11 1_555 1_555
C12 H11 1_555 1_555
C13 C6 1_555 1_555
H12 C13 1_555 1_555
C14 N2 1_555 1_555
H13 C14 1_555 1_555
C15 N1 1_555 1_555
H14 C15 1_555 1_555
H15 C15 1_555 1_555
C16 N4 1_555 1_555
H16 C16 1_555 1_555
C17 H17 1_555 1_555
C18 C9 1_555 1_555
H18 C18 1_555 1_555
C19 C5 1_555 1_555
C20 C9 1_555 1_555
C21 H19 1_555 1_555
H20 C21 1_555 1_555
C22 C1 1_555 1_555
H21 C22 1_555 1_555
C23 H22 1_555 1_555
C24 C6 1_555 1_555
H23 C24 1_555 1_555
H24 C24 1_555 1_555
C25 C20 1_555 1_555
H25 C25 1_555 1_555
C26 C25 1_555 1_555
H26 C26 1_555 1_555
C27 N4 1_555 1_555
C28 N1 1_555 1_555
H27 C28 1_555 1_555
C29 H28 1_555 1_555
H29 C29 1_555 1_555
C30 C19 1_555 1_555
C31 C4 1_555 1_555
H30 C31 1_555 1_555
H31 C31 1_555 1_555
C32 N1 1_555 1_555
H32 C32 1_555 1_555
H33 C32 1_555 1_555
C33 C26 1_555 1_555
H34 C33 1_555 1_555
C34 C27 1_555 1_555
H35 C34 1_555 1_555
C35 C7 1_555 1_555
H36 C35 1_555 1_555
C36 C1 1_555 1_555
H37 C36 1_555 1_555
H38 C36 1_555 1_555
C37 C5 1_555 1_555
H39 C37 1_555 1_555
C38 N3 1_555 1_555
H40 C38 1_555 1_555
H41 C38 1_555 1_555
C39 C4 1_555 1_555
H42 C39 1_555 1_555
C40 C37 1_555 1_555
H43 C40 1_555 1_555
H44 C40 1_555 1_555
C41 C10 1_555 1_555
H45 C41 1_555 1_555
C42 C22 1_555 1_555
H46 C42 1_555 1_555
C43 C34 1_555 1_555
H47 C43 1_555 1_555
C44 C43 1_555 1_555
H48 C44 1_555 1_555
C45 C6 1_555 1_555
H49 C45 1_555 1_555
C46 C30 1_555 1_555
H50 C46 1_555 1_555
Cu2_2 N2 1_555 1_555
N2_2 Cu2 1_555 1_555
Br3 Cu2 1_555 1_555
C2 C28 1_555 1_555
C3 C22 1_555 1_555
C7 C15 1_555 1_555
C8 C39 1_555 1_555
N3 C31 1_555 1_555
N3 C37 1_555 1_555
C11 C13 1_555 1_555
C12 C16 1_555 1_555
C12 C19 1_555 1_555
C14 C18 1_555 1_555
C17 C28 1_555 1_555
C21 C38 1_555 1_555
C21 C45 1_555 1_555
C23 C35 1_555 1_555
C27 C30 1_555 1_555
C29 C42 1_555 1_555
C32 C36 1_555 1_555
C33 C41 1_555 1_555
C40 C45 1_555 1_555
C44 C46 1_555 1_555

#END
