
#######################################################################
#
#                 Cambridge Crystallographic Data Centre
#                                CCDC 
#
#######################################################################
#
# If this CIF has been generated from an entry in the Cambridge 
# Structural Database, then it will include bibliographic, chemical, 
# crystal, experimental, refinement or atomic coordinate data resulting 
# from the CCDC's data processing and validation procedures.
#
#######################################################################

data_QASRIM
_symmetry_cell_setting           monoclinic
_symmetry_space_group_name_H-M   'C 2/c'
_symmetry_Int_Tables_number      15
_space_group_name_Hall           '-C 2yn'
loop_
_symmetry_equiv_pos_site_id
_symmetry_equiv_pos_as_xyz
1 x,y,z
2 1/2+x,1/2+y,z
3 -x,y,1/2-z
4 1/2-x,1/2+y,1/2-z
5 -x,-y,-z
6 1/2-x,1/2-y,-z
7 x,-y,1/2+z
8 1/2+x,1/2-y,1/2+z
_cell_length_a                   31.6960(10)
_cell_length_b                   11.1420(10)
_cell_length_c                   34.3170(10)
_cell_angle_alpha                90
_cell_angle_beta                 116.0300(10)
_cell_angle_gamma                90
_cell_volume                     10890
loop_
_atom_site_label
_atom_site_type_symbol
_atom_site_fract_x
_atom_site_fract_y
_atom_site_fract_z
Cl1 Cl 0.23725(4) 0.64532(18) 0.11551(4)
Cl2 Cl 0.19273(5) 0.87820(14) 0.09291(4)
Rh1 Rh 0.007480(6) 0.50791(2) 0.044662(5)
Rh2 Rh 0.000750(6) 0.50615(2) 0.125335(4)
Rh3 Rh 0.005916(7) 0.48473(2) 0.210454(5)
Cl3 Cl -0.23590(3) 0.48750(13) 0.04522(4)
Cl4 Cl -0.21570(4) 0.74243(12) 0.06166(4)
Cl5 Cl 0.19479(6) 0.14274(17) 0.25184(5)
Cl6 Cl 0.23669(4) 0.38317(17) 0.27683(3)
O1 O 0.03658(7) 0.67097(18) 0.05422(5)
O2 O 0.07553(6) 0.46455(18) 0.07174(5)
O3 O -0.02004(11) 0.2490(2) 0.03702(6)
O4 O -0.09132(8) 0.5969(3) 0.00685(6)
O5 O -0.04323(6) 0.64467(16) 0.11061(5)
O6 O -0.06050(6) 0.42037(16) 0.09891(5)
O7 O 0.05699(10) 0.2809(3) 0.14139(7)
O8 O 0.08568(9) 0.6633(3) 0.16098(6)
O9 O 0.07328(6) 0.53627(18) 0.23866(5)
O10 O 0.03829(7) 0.32466(18) 0.22301(5)
O11 O -0.09116(8) 0.3839(3) 0.17234(6)
O12 O -0.03024(10) 0.7361(2) 0.19908(6)
C1 C 0.08272(9) 0.6719(3) 0.07049(7)
C2 C 0.10441(9) 0.5558(3) 0.08008(7)
C3 C 0.15390(10) 0.5396(4) 0.09774(8)
C4 C 0.17770(11) 0.6454(4) 0.10018(8)
C5 C 0.15605(13) 0.7605(4) 0.09014(9)
C6 C 0.10871(12) 0.7800(3) 0.07779(8)
C7 C 0.17832(13) 0.4185(5) 0.11294(11)
C8 C 0.1463(2) 0.3174(6) 0.1089(3)
C9 C 0.2139(2) 0.4232(7) 0.15964(14)
C10 C 0.2020(2) 0.3787(7) 0.08481(17)
C11 C 0.08736(16) 0.9053(4) 0.07449(11)
C12 C 0.0361(2) 0.9047(4) 0.06676(19)
C13 C 0.1142(2) 0.9717(5) 0.11767(15)
C14 C 0.0881(2) 0.9785(4) 0.03673(14)
C15 C -0.01183(10) 0.3484(3) 0.03859(7)
C16 C -0.05458(10) 0.5624(3) 0.02056(7)
C17 C -0.08812(8) 0.6152(2) 0.09348(6)
C18 C -0.09786(8) 0.4903(2) 0.08688(6)
C19 C -0.14381(9) 0.4424(3) 0.06837(7)
C20 C -0.17792(9) 0.5286(3) 0.06196(8)
C21 C -0.16822(10) 0.6522(3) 0.06901(8)
C22 C -0.12430(9) 0.7022(2) 0.08190(7)
C23 C -0.15484(13) 0.3096(3) 0.05507(12)
C24 C -0.1868(2) 0.3045(6) 0.00642(14)
C25 C -0.17899(17) 0.2495(4) 0.08050(13)
C26 C -0.1124(2) 0.2346(5) 0.0626(3)
C27 C -0.11573(12) 0.8382(3) 0.08135(9)
C28 C -0.12487(18) 0.9027(4) 0.11594(11)
C29 C -0.06564(16) 0.8716(4) 0.08951(15)
C30 C -0.14687(16) 0.8871(4) 0.03549(10)
C31 C 0.03686(11) 0.3670(3) 0.13637(7)
C32 C 0.05450(10) 0.6015(3) 0.14835(7)
C33 C 0.10381(9) 0.4494(3) 0.24843(7)
C34 C 0.08424(10) 0.3310(3) 0.23927(7)
C35 C 0.11250(14) 0.2253(3) 0.24671(9)
C36 C 0.15827(15) 0.2531(4) 0.25556(10)
C37 C 0.17794(12) 0.3699(5) 0.26611(9)
C38 C 0.15299(11) 0.4705(4) 0.26751(8)
C39 C 0.0899(2) 0.1011(4) 0.24596(13)
C40 C 0.0610(5) 0.0607(8) 0.2037(2)
C41 C 0.0642(3) 0.1055(6) 0.2734(2)
C42 C 0.1264(4) 0.0092(9) 0.2717(5)
C43 C 0.17508(12) 0.5913(4) 0.28731(9)
C44 C 0.14136(19) 0.6722(5) 0.29677(19)
C45 C 0.21579(19) 0.5724(6) 0.33219(12)
C46 C 0.1903(2) 0.6611(6) 0.25738(13)
C47 C -0.05505(10) 0.4221(3) 0.18572(7)
C48 C -0.01807(10) 0.6405(3) 0.20176(7)
H1 H 0.1297 0.3272 0.1251
H2 H 0.1247 0.3028 0.0787
H3 H 0.1646 0.2416 0.1184
H4 H 0.2318 0.3548 0.1685
H5 H 0.2346 0.4928 0.1639
H6 H 0.1980 0.4386 0.1776
H7 H 0.2201 0.3091 0.0950
H8 H 0.1805 0.3708 0.0552
H9 H 0.2246 0.4432 0.0853
H10 H 0.0240 0.9845 0.0630
H11 H 0.0173 0.8615 0.0399
H12 H 0.0321 0.8666 0.0894
H13 H 0.1082 0.9364 0.1397
H14 H 0.1452 0.9802 0.1248
H15 H 0.1000 1.0546 0.1135
H16 H 0.1189 0.9879 0.0382
H17 H 0.0683 0.9444 0.0086
H18 H 0.0760 1.0608 0.0358
H19 H -0.2149 0.3496 -0.0016
H20 H -0.1710 0.3320 -0.0099
H21 H -0.1961 0.2214 -0.0023
H22 H -0.2068 0.2915 0.0781
H23 H -0.1893 0.1680 0.0702
H24 H -0.1584 0.2425 0.1110
H25 H -0.1217 0.1484 0.0533
H26 H -0.0963 0.2584 0.0457
H27 H -0.0898 0.2282 0.0921
H28 H -0.1042 0.8762 0.1442
H29 H -0.1231 0.9869 0.1140
H30 H -0.1570 0.8838 0.1119
H31 H -0.0438 0.8457 0.1179
H32 H -0.0576 0.8364 0.0687
H33 H -0.0628 0.9576 0.0884
H34 H -0.1452 0.9702 0.0341
H35 H -0.1397 0.8492 0.0144
H36 H -0.1799 0.8658 0.0281
H37 H 0.0253 0.1311 0.1915
H38 H 0.0610 0.0653 0.1794
H39 H 0.0352 -0.0046 0.2016
H40 H 0.0843 0.1183 0.3048
H41 H 0.0404 0.1699 0.2661
H42 H 0.0465 0.0322 0.2728
H43 H 0.1047 -0.0722 0.2626
H44 H 0.1408 -0.0119 0.2496
H45 H 0.1424 0.0140 0.2946
H46 H 0.1565 0.7468 0.3086
H47 H 0.1146 0.6932 0.2685
H48 H 0.1300 0.6355 0.3139
H49 H 0.2065 0.5363 0.3515
H50 H 0.2401 0.5215 0.3298
H51 H 0.2313 0.6477 0.3439
H52 H 0.2120 0.6120 0.2509
H53 H 0.1642 0.6784 0.2306
H54 H 0.2059 0.7321 0.2708
Rh1D Rh -0.007480(6) 0.49209(2) -0.044662(5)
Rh3B Rh -0.005916(7) 0.48473(2) 0.289546(5)
loop_
_geom_bond_atom_site_label_1
_geom_bond_atom_site_label_2
_geom_bond_site_symmetry_1
_geom_bond_site_symmetry_2
Cl1 C4 1_555 1_555
Cl2 C5 1_555 1_555
Rh1 Rh2 1_555 1_555
Rh2 Rh3 1_555 1_555
Rh3 O9 1_555 1_555
Cl3 C20 1_555 1_555
Cl4 C21 1_555 1_555
Cl5 C36 1_555 1_555
Cl6 C37 1_555 1_555
O1 Rh1 1_555 1_555
O2 Rh1 1_555 1_555
O3 C15 1_555 1_555
O4 C16 1_555 1_555
O5 Rh2 1_555 1_555
O6 Rh2 1_555 1_555
O7 C31 1_555 1_555
O8 C32 1_555 1_555
O9 C33 1_555 1_555
O10 Rh3 1_555 1_555
O11 C47 1_555 1_555
O12 C48 1_555 1_555
C1 O1 1_555 1_555
C2 O2 1_555 1_555
C3 C2 1_555 1_555
C4 C3 1_555 1_555
C5 C4 1_555 1_555
C6 C1 1_555 1_555
C7 C3 1_555 1_555
C8 C7 1_555 1_555
C9 C7 1_555 1_555
C10 C7 1_555 1_555
C11 C6 1_555 1_555
C12 C11 1_555 1_555
C13 C11 1_555 1_555
C14 C11 1_555 1_555
C15 Rh1 1_555 1_555
C16 Rh1 1_555 1_555
C17 O5 1_555 1_555
C18 O6 1_555 1_555
C19 C18 1_555 1_555
C20 C19 1_555 1_555
C21 C20 1_555 1_555
C22 C17 1_555 1_555
C23 C19 1_555 1_555
C24 C23 1_555 1_555
C25 C23 1_555 1_555
C26 C23 1_555 1_555
C27 C22 1_555 1_555
C28 C27 1_555 1_555
C29 C27 1_555 1_555
C30 C27 1_555 1_555
C31 Rh2 1_555 1_555
C32 Rh2 1_555 1_555
C33 C34 1_555 1_555
C34 O10 1_555 1_555
C35 C34 1_555 1_555
C36 C35 1_555 1_555
C37 C36 1_555 1_555
C38 C33 1_555 1_555
C39 C35 1_555 1_555
C40 C39 1_555 1_555
C41 C39 1_555 1_555
C42 C39 1_555 1_555
C43 C38 1_555 1_555
C44 C43 1_555 1_555
C45 C43 1_555 1_555
C46 C43 1_555 1_555
C47 Rh3 1_555 1_555
C48 Rh3 1_555 1_555
H1 C8 1_555 1_555
H2 C8 1_555 1_555
H3 C8 1_555 1_555
H4 C9 1_555 1_555
H5 C9 1_555 1_555
H6 C9 1_555 1_555
H7 C10 1_555 1_555
H8 C10 1_555 1_555
H9 C10 1_555 1_555
H10 C12 1_555 1_555
H11 C12 1_555 1_555
H12 C12 1_555 1_555
H13 C13 1_555 1_555
H14 C13 1_555 1_555
H15 C13 1_555 1_555
H16 C14 1_555 1_555
H17 C14 1_555 1_555
H18 C14 1_555 1_555
H19 C24 1_555 1_555
H20 C24 1_555 1_555
H21 C24 1_555 1_555
H22 C25 1_555 1_555
H23 C25 1_555 1_555
H24 C25 1_555 1_555
H25 C26 1_555 1_555
H26 C26 1_555 1_555
H27 C26 1_555 1_555
H28 C28 1_555 1_555
H29 C28 1_555 1_555
H30 C28 1_555 1_555
H31 C29 1_555 1_555
H32 C29 1_555 1_555
H33 C29 1_555 1_555
H34 C30 1_555 1_555
H35 C30 1_555 1_555
H36 C30 1_555 1_555
H37 C40 1_555 1_555
H38 C40 1_555 1_555
H39 C40 1_555 1_555
H40 C41 1_555 1_555
H41 C41 1_555 1_555
H42 C41 1_555 1_555
H43 C42 1_555 1_555
H44 C42 1_555 1_555
H45 C42 1_555 1_555
H46 C44 1_555 1_555
H47 C44 1_555 1_555
H48 C44 1_555 1_555
H49 C45 1_555 1_555
H50 C45 1_555 1_555
H51 C45 1_555 1_555
H52 C46 1_555 1_555
H53 C46 1_555 1_555
H54 C46 1_555 1_555
Rh1D Rh1 1_555 1_555
Rh3B Rh3 1_555 1_555
C1 C2 1_555 1_555
C5 C6 1_555 1_555
C17 C18 1_555 1_555
C21 C22 1_555 1_555
C37 C38 1_555 1_555

#END
