
#######################################################################
#
#                 Cambridge Crystallographic Data Centre
#                                CCDC 
#
#######################################################################
#
# If this CIF has been generated from an entry in the Cambridge 
# Structural Database, then it will include bibliographic, chemical, 
# crystal, experimental, refinement or atomic coordinate data resulting 
# from the CCDC's data processing and validation procedures.
#
#######################################################################

data_QASSUY
_symmetry_cell_setting           triclinic
_symmetry_space_group_name_H-M   'P -1'
_symmetry_Int_Tables_number      2
_space_group_name_Hall           '-P 1'
loop_
_symmetry_equiv_pos_site_id
_symmetry_equiv_pos_as_xyz
1 x,y,z
2 -x,-y,-z
_cell_length_a                   7.522(2)
_cell_length_b                   8.694(3)
_cell_length_c                   11.569(3)
_cell_angle_alpha                98.010(10)
_cell_angle_beta                 91.52(2)
_cell_angle_gamma                104.900(10)
_cell_volume                     722.459
loop_
_atom_site_label
_atom_site_type_symbol
_atom_site_fract_x
_atom_site_fract_y
_atom_site_fract_z
Cs1 Cs 0.35131(6) 0.22400(5) 0.54722(4)
Co1 Co 0.18434(13) -0.26943(12) 0.83912(9)
C1 C 0.2498(7) -0.3069(6) 0.6697(4)
C2 C 0.4095(6) -0.2235(5) 0.7432(5)
H1 H 0.4857 -0.1227 0.7366
C3 C 0.4322(7) -0.3210(7) 0.8283(5)
H2 H 0.5260 -0.2953 0.8873
C4 C 0.2866(9) -0.4647(6) 0.8075(5)
H3 H 0.2683 -0.5496 0.8505
C5 C 0.1739(7) -0.4560(5) 0.7095(5)
H4 H 0.0688 -0.5341 0.6770
C6 C 0.1732(12) -0.2439(10) 0.5686(7)
O1 O 0.2866(10) -0.1377(9) 0.5270(7)
O2 O 0.0075(9) -0.3025(9) 0.5363(7)
C7 C 0.1336(7) -0.0535(5) 0.8964(5)
C8 C 0.1963(6) -0.1173(6) 0.9914(4)
H5 H 0.3006 -0.0683 1.0413
C9 C 0.0718(8) -0.2693(6) 0.9970(5)
H6 H 0.0803 -0.3372 1.0512
C10 C -0.0678(6) -0.2993(5) 0.9055(5)
H7 H -0.1669 -0.3903 0.8891
C11 C -0.0296(7) -0.1659(6) 0.8433(4)
H8 H -0.0993 -0.1543 0.7790
C12 C 0.2303(11) 0.1000(9) 0.8546(7)
O3 O 0.1560(9) 0.1387(8) 0.7694(6)
O4 O 0.3789(10) 0.1814(8) 0.9106(6)
O5 O 0.6547(11) 0.3389(10) 0.7934(8)
O6 O 0.3097(12) 0.4612(11) 0.3781(9)
O7 O 0.2106(10) -0.0855(10) 0.3069(7)
O1A O 0.7134(10) 0.1377(9) 0.4730(7)
O2A O -0.0075(9) 0.3025(9) 0.4637(7)
O6A O 0.6903(12) 0.5388(11) 0.6219(9)
Cs1A Cs 0.64869(6) -0.22400(5) 0.45278(4)
Cs1A_2 Cs -0.35131(6) -0.22400(5) 0.45278(4)
Cs1A_3 Cs 0.64869(6) 0.77600(5) 0.45278(4)
loop_
_geom_bond_atom_site_label_1
_geom_bond_atom_site_label_2
_geom_bond_site_symmetry_1
_geom_bond_site_symmetry_2
Cs1 O1 1_555 1_555
Co1 C1 1_555 1_555
C1 C2 1_555 1_555
C2 Co1 1_555 1_555
H1 C2 1_555 1_555
C3 Co1 1_555 1_555
H2 C3 1_555 1_555
C4 Co1 1_555 1_555
H3 C4 1_555 1_555
C5 Co1 1_555 1_555
H4 C5 1_555 1_555
C6 C1 1_555 1_555
O1 C6 1_555 1_555
O2 C6 1_555 1_555
C7 Co1 1_555 1_555
C8 Co1 1_555 1_555
H5 C8 1_555 1_555
C9 Co1 1_555 1_555
H6 C9 1_555 1_555
C10 Co1 1_555 1_555
H7 C10 1_555 1_555
C11 Co1 1_555 1_555
H8 C11 1_555 1_555
C12 C7 1_555 1_555
O3 Cs1 1_555 1_555
O4 C12 1_555 1_555
O5 Cs1 1_555 1_555
O6 Cs1 1_555 1_555
O7 Cs1 1_555 1_555
O1A Cs1 1_555 1_555
O2A Cs1 1_555 1_555
O6A Cs1 1_555 1_555
Cs1A O1 1_555 1_555
Cs1A_2 O2 1_555 1_555
Cs1A_3 O6 1_555 1_555
C1 C5 1_555 1_555
C2 C3 1_555 1_555
C3 C4 1_555 1_555
C4 C5 1_555 1_555
C7 C8 1_555 1_555
C7 C11 1_555 1_555
C8 C9 1_555 1_555
C9 C10 1_555 1_555
C10 C11 1_555 1_555
C12 O3 1_555 1_555
O1A Cs1A 1_555 1_555
O6A Cs1A_3 1_555 1_555

#END
