
#######################################################################
#
#                 Cambridge Crystallographic Data Centre
#                                CCDC 
#
#######################################################################
#
# If this CIF has been generated from an entry in the Cambridge 
# Structural Database, then it will include bibliographic, chemical, 
# crystal, experimental, refinement or atomic coordinate data resulting 
# from the CCDC's data processing and validation procedures.
#
#######################################################################

data_QASSEJ
_symmetry_cell_setting           triclinic
_symmetry_space_group_name_H-M   'P -1'
_symmetry_Int_Tables_number      2
_space_group_name_Hall           '-P 1'
loop_
_symmetry_equiv_pos_site_id
_symmetry_equiv_pos_as_xyz
1 x,y,z
2 -x,-y,-z
_cell_length_a                   9.7594(8)
_cell_length_b                   13.8993(11)
_cell_length_c                   18.7162(16)
_cell_angle_alpha                97.662(10)
_cell_angle_beta                 100.012(10)
_cell_angle_gamma                93.350(9)
_cell_volume                     2469.17
loop_
_atom_site_label
_atom_site_type_symbol
_atom_site_fract_x
_atom_site_fract_y
_atom_site_fract_z
Fe1 Fe 0.63529(10) 0.55838(7) 0.33066(5)
Fe2 Fe 0.73685(10) 0.80832(7) 0.35323(5)
O1 O 0.7377(5) 0.6725(3) 0.3021(3)
H1 H 0.681(7) 0.662(6) 0.268(4)
O2 O 0.5574(5) 0.6343(3) 0.4056(2)
O3 O 0.5637(5) 0.7922(3) 0.3911(3)
C1 C 0.5028(7) 0.7164(5) 0.4095(4)
O4 O 0.3886(5) 0.7228(4) 0.4315(3)
N1 N 0.7310(5) 0.4431(4) 0.2671(3)
C2 C 0.7032(6) 0.4542(5) 0.1881(3)
H2 H 0.7384 0.5192 0.1831
H3 H 0.7550 0.4082 0.1621
C3 C 0.5541(6) 0.4387(5) 0.1527(4)
O5 O 0.5009(4) 0.5565(3) 0.2454(2)
C4 C 0.4570(7) 0.4943(5) 0.1847(4)
C5 C 0.3168(7) 0.4840(5) 0.1486(4)
C6 C 0.2808(7) 0.4203(5) 0.0849(4)
H4 H 0.1875 0.4131 0.0620
C7 C 0.3746(7) 0.3648(5) 0.0514(4)
C8 C 0.5118(7) 0.3772(5) 0.0889(4)
H5 H 0.5778 0.3415 0.0694
C9 C 0.2099(7) 0.5460(5) 0.1790(4)
C10 C 0.0639(7) 0.5204(6) 0.1379(4)
H6 H 0.0012 0.5587 0.1615
H7 H 0.0387 0.4525 0.1375
H8 H 0.0581 0.5335 0.0885
C11 C 0.2494(9) 0.6525(6) 0.1770(6)
H9 H 0.3420 0.6704 0.2046
H10 H 0.1847 0.6917 0.1982
H11 H 0.2465 0.6629 0.1271
C12 C 0.2102(8) 0.5311(7) 0.2597(4)
H12 H 0.3043 0.5401 0.2867
H13 H 0.1716 0.4663 0.2609
H14 H 0.1549 0.5776 0.2815
C13 C 0.3327(8) 0.2952(5) -0.0192(4)
C14 C 0.3606(9) 0.1926(6) -0.0064(4)
H15 H 0.4593 0.1885 0.0071
H16 H 0.3251 0.1483 -0.0506
H17 H 0.3151 0.1757 0.0322
C15 C 0.4192(11) 0.3244(7) -0.0747(4)
H18 H 0.4065 0.3908 -0.0814
H19 H 0.3893 0.2827 -0.1207
H20 H 0.5161 0.3180 -0.0568
C16 C 0.1798(9) 0.2958(7) -0.0522(5)
H21 H 0.1240 0.2844 -0.0162
H22 H 0.1555 0.2454 -0.0937
H23 H 0.1630 0.3579 -0.0676
C17 C 0.6714(7) 0.3492(5) 0.2801(4)
H24 H 0.7431 0.3037 0.2830
H25 H 0.5977 0.3231 0.2391
C18 C 0.6124(7) 0.3586(5) 0.3504(4)
O6 O 0.5584(5) 0.4366(3) 0.3662(3)
O7 O 0.6161(6) 0.2897(4) 0.3856(3)
C19 C 0.8786(6) 0.4591(5) 0.2973(4)
H26 H 0.9197 0.5091 0.2741
H27 H 0.9223 0.3995 0.2854
C20 C 0.9100(7) 0.4891(5) 0.3787(4)
O8 O 0.8156(5) 0.5371(3) 0.4044(2)
O9 O 1.0192(5) 0.4710(4) 0.4142(3)
N2 N 0.9485(5) 0.8481(4) 0.3334(3)
C21 C 0.9450(7) 0.8457(5) 0.2537(4)
H28 H 0.9113 0.7808 0.2287
H29 H 1.0394 0.8588 0.2456
C22 C 0.8546(7) 0.9177(5) 0.2206(3)
C23 C 0.7128(7) 0.9162(5) 0.2266(4)
O10 O 0.6633(5) 0.8475(3) 0.2632(2)
C24 C 0.6288(7) 0.9818(5) 0.1965(4)
C25 C 0.6885(7) 1.0465(5) 0.1572(4)
H30 H 0.6331 1.0916 0.1368
C26 C 0.8265(7) 1.0469(5) 0.1471(4)
C27 C 0.9083(7) 0.9839(5) 0.1809(4)
H31 H 1.0022 0.9852 0.1773
C28 C 0.4783(7) 0.9889(5) 0.2069(4)
C29 C 0.4046(7) 1.0634(6) 0.1647(4)
H32 H 0.4480 1.1275 0.1842
H33 H 0.3081 1.0606 0.1694
H34 H 0.4112 1.0492 0.1138
C30 C 0.4798(9) 1.0226(7) 0.2889(4)
H35 H 0.5246 1.0874 0.3026
H36 H 0.5301 0.9793 0.3176
H37 H 0.3857 1.0222 0.2975
C31 C 0.3937(8) 0.8926(6) 0.1802(5)
H38 H 0.2986 0.8992 0.1857
H39 H 0.4316 0.8443 0.2084
H40 H 0.3970 0.8729 0.1294
C32 C 0.8752(7) 1.1170(5) 0.0978(4)
C33 C 0.7919(9) 1.0923(6) 0.0210(4)
H41 H 0.8013 1.0258 0.0023
H42 H 0.8261 1.1343 -0.0099
H43 H 0.6953 1.1012 0.0216
C34 C 1.0304(8) 1.1091(6) 0.0956(5)
H44 H 1.0838 1.1239 0.1445
H45 H 1.0606 1.1544 0.0658
H46 H 1.0442 1.0441 0.0751
C35 C 0.8577(8) 1.2215(6) 0.1279(4)
H47 H 0.7607 1.2293 0.1281
H48 H 0.8918 1.2645 0.0976
H49 H 0.9097 1.2369 0.1771
C36 C 0.9963(7) 0.9438(5) 0.3751(4)
H50 H 1.0402 0.9826 0.3446
H51 H 1.0663 0.9363 0.4171
C37 C 0.8787(7) 0.9985(5) 0.4019(4)
O11 O 0.7672(4) 0.9489(3) 0.4032(2)
O12 O 0.9033(5) 1.0857(4) 0.4225(3)
C38 C 1.0306(7) 0.7744(5) 0.3627(4)
H52 H 1.1285 0.7982 0.3732
H53 H 1.0192 0.7166 0.3263
C39 C 0.9881(7) 0.7478(5) 0.4323(4)
O13 O 0.8642(4) 0.7657(3) 0.4389(2)
O14 O 1.0695(5) 0.7107(4) 0.4768(3)
K1 K 0.33717(19) 0.85522(14) 0.54306(10)
K2 K 0.25538(17) 0.58771(13) 0.48036(10)
K3 K 0.8690(3) 0.6489(2) 0.52603(15)
O15 O 0.3556(5) 0.4175(4) 0.4601(3)
O17 O 0.3339(6) 0.9242(5) 0.4175(4)
O18 O 0.8847(5) 0.7983(4) 0.6060(3)
C40 C 0.8911(10) 0.8087(7) 0.6822(5)
H56 H 0.9821 0.7932 0.7056
H57 H 0.8797 0.8759 0.7003
C41 C 0.7818(11) 0.7445(7) 0.7016(5)
H58 H 0.7896 0.6784 0.6813
H59 H 0.7930 0.7498 0.7540
H60 H 0.6915 0.7637 0.6821
O7A O 0.3839(6) 0.7103(4) 0.6144(3)
O9A O 0.9808(5) 0.5290(4) 0.5858(3)
O12A O 0.0967(5) 0.9143(4) 0.5775(3)
O14_2 O 0.0695(5) 0.7107(4) 0.4768(3)
K1A K 0.66283(19) 0.14478(14) 0.45694(10)
K1A_2 K 0.66283(19) 1.14478(14) 0.45694(10)
K2_2 K 1.25538(17) 0.58771(13) 0.48036(10)
K3A K 1.1310(3) 0.3511(2) 0.47397(15)
K3A_2 K 0.1310(3) 0.3511(2) 0.47397(15)
O15A O 0.6444(5) 0.5825(4) 0.5399(3)
O16 O 0.6298(7) 0.8772(5) 0.5475(3)
H54 H 0.624(10) 0.861(7) 0.501(2)
H55 H 0.714(5) 0.869(8) 0.569(5)
loop_
_geom_bond_atom_site_label_1
_geom_bond_atom_site_label_2
_geom_bond_site_symmetry_1
_geom_bond_site_symmetry_2
Fe1 O1 1_555 1_555
Fe2 O1 1_555 1_555
O1 H1 1_555 1_555
O2 Fe1 1_555 1_555
O3 Fe2 1_555 1_555
C1 O2 1_555 1_555
O4 C1 1_555 1_555
N1 Fe1 1_555 1_555
C2 N1 1_555 1_555
H2 C2 1_555 1_555
H3 C2 1_555 1_555
C3 C2 1_555 1_555
O5 Fe1 1_555 1_555
C4 C3 1_555 1_555
C5 C4 1_555 1_555
C6 C5 1_555 1_555
H4 C6 1_555 1_555
C7 C6 1_555 1_555
C8 C3 1_555 1_555
H5 C8 1_555 1_555
C9 C5 1_555 1_555
C10 C9 1_555 1_555
H6 C10 1_555 1_555
H7 C10 1_555 1_555
H8 C10 1_555 1_555
C11 C9 1_555 1_555
H9 C11 1_555 1_555
H10 C11 1_555 1_555
H11 C11 1_555 1_555
C12 C9 1_555 1_555
H12 C12 1_555 1_555
H13 C12 1_555 1_555
H14 C12 1_555 1_555
C13 C7 1_555 1_555
C14 C13 1_555 1_555
H15 C14 1_555 1_555
H16 C14 1_555 1_555
H17 C14 1_555 1_555
C15 C13 1_555 1_555
H18 C15 1_555 1_555
H19 C15 1_555 1_555
H20 C15 1_555 1_555
C16 C13 1_555 1_555
H21 C16 1_555 1_555
H22 C16 1_555 1_555
H23 C16 1_555 1_555
C17 N1 1_555 1_555
H24 C17 1_555 1_555
H25 C17 1_555 1_555
C18 C17 1_555 1_555
O6 Fe1 1_555 1_555
O7 C18 1_555 1_555
C19 N1 1_555 1_555
H26 C19 1_555 1_555
H27 C19 1_555 1_555
C20 C19 1_555 1_555
O8 Fe1 1_555 1_555
O9 C20 1_555 1_555
N2 Fe2 1_555 1_555
C21 N2 1_555 1_555
H28 C21 1_555 1_555
H29 C21 1_555 1_555
C22 C21 1_555 1_555
C23 C22 1_555 1_555
O10 Fe2 1_555 1_555
C24 C23 1_555 1_555
C25 C24 1_555 1_555
H30 C25 1_555 1_555
C26 C25 1_555 1_555
C27 C22 1_555 1_555
H31 C27 1_555 1_555
C28 C24 1_555 1_555
C29 C28 1_555 1_555
H32 C29 1_555 1_555
H33 C29 1_555 1_555
H34 C29 1_555 1_555
C30 C28 1_555 1_555
H35 C30 1_555 1_555
H36 C30 1_555 1_555
H37 C30 1_555 1_555
C31 C28 1_555 1_555
H38 C31 1_555 1_555
H39 C31 1_555 1_555
H40 C31 1_555 1_555
C32 C26 1_555 1_555
C33 C32 1_555 1_555
H41 C33 1_555 1_555
H42 C33 1_555 1_555
H43 C33 1_555 1_555
C34 C32 1_555 1_555
H44 C34 1_555 1_555
H45 C34 1_555 1_555
H46 C34 1_555 1_555
C35 C32 1_555 1_555
H47 C35 1_555 1_555
H48 C35 1_555 1_555
H49 C35 1_555 1_555
C36 N2 1_555 1_555
H50 C36 1_555 1_555
H51 C36 1_555 1_555
C37 C36 1_555 1_555
O11 Fe2 1_555 1_555
O12 C37 1_555 1_555
C38 N2 1_555 1_555
H52 C38 1_555 1_555
H53 C38 1_555 1_555
C39 C38 1_555 1_555
O13 Fe2 1_555 1_555
O14 C39 1_555 1_555
K1 O4 1_555 1_555
K2 O4 1_555 1_555
K3 O8 1_555 1_555
O15 K2 1_555 1_555
O16 H54 1_555 1_555
H55 O16 1_555 1_555
O17 K1 1_555 1_555
O18 K3 1_555 1_555
C40 O18 1_555 1_555
H56 C40 1_555 1_555
H57 C40 1_555 1_555
C41 C40 1_555 1_555
H58 C41 1_555 1_555
H59 C41 1_555 1_555
H60 C41 1_555 1_555
O7A K1 1_555 1_555
O9A K3 1_555 1_555
O12A K1 1_555 1_555
O14_2 K2 1_555 1_555
K1A O7 1_555 1_555
K1A_2 O12 1_555 1_555
K2_2 O14 1_555 1_555
K3A O9 1_555 1_555
K3A_2 O15 1_555 1_555
O15A K3 1_555 1_555
O3 C1 1_555 1_555
O5 C4 1_555 1_555
C7 C8 1_555 1_555
C18 O6 1_555 1_555
C20 O8 1_555 1_555
C23 O10 1_555 1_555
C26 C27 1_555 1_555
C37 O11 1_555 1_555
C39 O13 1_555 1_555
O13 K3 1_555 1_555
O14 K3 1_555 1_555

#END
