
#######################################################################
#
#                 Cambridge Crystallographic Data Centre
#                                CCDC 
#
#######################################################################
#
# If this CIF has been generated from an entry in the Cambridge 
# Structural Database, then it will include bibliographic, chemical, 
# crystal, experimental, refinement or atomic coordinate data resulting 
# from the CCDC's data processing and validation procedures.
#
#######################################################################

data_QASSIN
_symmetry_cell_setting           triclinic
_symmetry_space_group_name_H-M   'P -1'
_symmetry_Int_Tables_number      2
_space_group_name_Hall           '-P 1'
loop_
_symmetry_equiv_pos_site_id
_symmetry_equiv_pos_as_xyz
1 x,y,z
2 -x,-y,-z
_cell_length_a                   8.6793(7)
_cell_length_b                   15.1432(11)
_cell_length_c                   17.9198(15)
_cell_angle_alpha                88.492(9)
_cell_angle_beta                 76.093(9)
_cell_angle_gamma                74.962(9)
_cell_volume                     2206.28
loop_
_atom_site_label
_atom_site_type_symbol
_atom_site_fract_x
_atom_site_fract_y
_atom_site_fract_z
Fe1 Fe 0.44743(6) 0.39906(4) 0.21851(3)
Fe2 Fe 0.34020(6) 0.61296(4) 0.26507(3)
O1 O 0.2946(3) 0.50711(19) 0.24540(14)
O2 O 0.8162(4) 0.5064(2) 0.2528(2)
O3 O 0.5855(3) 0.57709(19) 0.22153(15)
C1 C 0.6822(5) 0.5033(3) 0.2398(2)
O4 O 0.6421(3) 0.4278(2) 0.24550(15)
N1 N 0.6233(4) 0.2689(2) 0.16350(17)
C2 C 0.5347(5) 0.2217(3) 0.1247(2)
H1 H 0.5156 0.1690 0.1537
H2 H 0.6028 0.1997 0.0740
C3 C 0.3728(5) 0.2821(3) 0.1166(2)
O5 O 0.2969(3) 0.3434(2) 0.16972(16)
O6 O 0.3193(4) 0.2693(2) 0.06132(18)
C4 C 0.7497(5) 0.3002(3) 0.1076(2)
H3 H 0.8086 0.2518 0.0688
H4 H 0.8281 0.3129 0.1335
C5 C 0.6765(5) 0.3852(3) 0.0689(2)
O7 O 0.5350(3) 0.4324(2) 0.10379(15)
O8 O 0.7577(4) 0.4071(2) 0.00870(17)
C6 C 0.6960(5) 0.2125(3) 0.2214(2)
H5 H 0.7521 0.2476 0.2449
H6 H 0.7779 0.1591 0.1952
C7 C 0.5746(4) 0.1810(3) 0.2840(2)
C8 C 0.4405(5) 0.2452(3) 0.3275(2)
O9 O 0.4087(3) 0.3343(2) 0.31427(15)
C9 C 0.3337(5) 0.2168(3) 0.3907(2)
H7 H 0.2409 0.2597 0.4180
C10 C 0.3626(5) 0.1297(3) 0.4124(2)
H8 H 0.2919 0.1139 0.4554
C11 C 0.4987(5) 0.0615(3) 0.3710(2)
C12 C 0.5342(5) -0.0297(3) 0.3943(3)
H9 H 0.4650 -0.0459 0.4376
C13 C 0.6662(6) -0.0942(3) 0.3553(3)
H10 H 0.6892 -0.1537 0.3723
C14 C 0.7671(6) -0.0704(3) 0.2896(3)
H11 H 0.8562 -0.1150 0.2617
C15 C 0.7382(5) 0.0163(3) 0.2654(3)
H12 H 0.8087 0.0299 0.2214
C16 C 0.6042(5) 0.0873(3) 0.3050(2)
N2 N 0.3611(4) 0.7395(2) 0.31828(17)
C17 C 0.1999(5) 0.7883(3) 0.3661(2)
H13 H 0.1553 0.8427 0.3405
H14 H 0.2137 0.8076 0.4148
C18 C 0.0800(5) 0.7300(3) 0.3814(2)
O10 O 0.1021(3) 0.6672(2) 0.33106(15)
O11 O -0.0343(4) 0.7472(2) 0.43918(18)
C19 C 0.4800(5) 0.7067(3) 0.3656(2)
H15 H 0.4597 0.7514 0.4070
H16 H 0.5903 0.7010 0.3343
C20 C 0.4691(4) 0.6154(3) 0.3994(2)
O12 O 0.3901(3) 0.5704(2) 0.37181(14)
O13 O 0.5418(4) 0.5874(2) 0.44984(16)
C21 C 0.4272(5) 0.7955(3) 0.2550(2)
H17 H 0.5297 0.7585 0.2235
H18 H 0.4509 0.8468 0.2772
C22 C 0.3108(5) 0.8314(3) 0.2047(2)
C23 C 0.2658(5) 0.7696(3) 0.1643(2)
O14 O 0.3124(3) 0.6795(2) 0.17256(15)
C24 C 0.1706(5) 0.8010(3) 0.1108(2)
H19 H 0.1410 0.7591 0.0837
C25 C 0.1217(5) 0.8915(3) 0.0982(2)
H20 H 0.0623 0.9104 0.0612
C26 C 0.1590(5) 0.9574(3) 0.1399(2)
C27 C 0.1069(5) 1.0516(3) 0.1287(3)
H21 H 0.0483 1.0712 0.0916
C28 C 0.1398(5) 1.1145(3) 0.1705(3)
H22 H 0.1030 1.1765 0.1624
C29 C 0.2289(5) 1.0855(3) 0.2254(3)
H23 H 0.2505 1.1286 0.2547
C30 C 0.2848(5) 0.9952(3) 0.2369(3)
H24 H 0.3452 0.9776 0.2737
C31 C 0.2539(5) 0.9268(3) 0.1945(2)
K1 K 0.12729(12) 0.54559(7) 0.13528(5)
K2 K 0.61076(13) 0.60253(8) 0.06566(6)
K3 K 0.12483(12) 0.48007(7) 0.38996(6)
K4 K 0.60722(13) 0.39751(8) 0.40131(5)
O16 O 0.0621(4) 0.4216(3) 0.0540(2)
H27 H 0.122(7) 0.369(3) 0.056(4)
H28 H 0.003(7) 0.417(5) 0.024(3)
O17 O 0.8364(6) 0.6801(4) 0.1036(2)
H29 H 0.779(9) 0.740(4) 0.091(5)
H30 H 0.833(10) 0.691(6) 0.152(3)
O18 O -0.0924(7) 0.3678(4) 0.4352(4)
H31 H -0.0310 0.3066 0.4152
H32 H -0.1129 0.3657 0.4908
O19 O -0.1610(4) 0.5948(2) 0.47239(19)
H33 H -0.251(5) 0.602(4) 0.461(3)
H34 H -0.146(7) 0.641(3) 0.455(3)
O8A O 0.2423(4) 0.5929(2) -0.00870(17)
O13A O 0.4582(4) 0.4126(2) 0.55016(16)
K1A K 0.87271(12) 0.45441(7) -0.13528(5)
K3A K -0.12483(12) 0.51993(7) 0.61004(6)
K4A K 0.39278(13) 0.60249(8) 0.59869(5)
K4_2 K -0.39278(13) 0.39751(8) 0.40131(5)
O18_2 O 0.9076(7) 0.3678(4) 0.4352(4)
H31_2 H 0.9690 0.3066 0.4152
H32_2 H 0.8871 0.3657 0.4908
O19A O 0.1610(4) 0.4052(2) 0.52761(19)
H33A H 0.251(5) 0.398(4) 0.539(3)
H34A H 0.146(7) 0.359(3) 0.545(3)
O15 O -0.1368(4) 0.6732(3) 0.2509(2)
H25 H -0.163(8) 0.622(3) 0.251(4)
H26 H -0.057(6) 0.666(5) 0.273(3)
O20 O -0.0032(16) 0.3389(11) 0.2780(9)
H35 H -0.048(11) 0.383(7) 0.281(6)
O22 O 0.7134(6) 0.2070(4) 0.4377(3)
C32 C 0.8801(8) 0.1571(5) 0.4017(4)
H36 H 0.9574 0.1859 0.4157
H37 H 0.8975 0.1568 0.3462
C33 C 0.9055(11) 0.0626(6) 0.4286(5)
H38 H 1.0155 0.0279 0.4052
H39 H 0.8285 0.0347 0.4145
H40 H 0.8890 0.0636 0.4835
O23 O 0.1919(5) 0.1657(3) -0.0274(3)
H41 H 0.245(8) 0.191(5) 0.003(4)
C34 C 0.3258(10) 0.1119(6) -0.0800(4)
H42 H 0.4221 0.1331 -0.0801
H43 H 0.3056 0.1199 -0.1310
C35 C 0.3590(15) 0.0192(8) -0.0649(7)
H44 H 0.4352 -0.0153 -0.1088
H45 H 0.2588 0.0003 -0.0544
H46 H 0.4059 0.0086 -0.0210
O21? O 0.015(2) 0.3629(14) 0.3018(11)
loop_
_geom_bond_atom_site_label_1
_geom_bond_atom_site_label_2
_geom_bond_site_symmetry_1
_geom_bond_site_symmetry_2
Fe1 O1 1_555 1_555
Fe2 O1 1_555 1_555
O1 K1 1_555 1_555
O2 C1 1_555 1_555
O3 Fe2 1_555 1_555
C1 O3 1_555 1_555
O4 Fe1 1_555 1_555
N1 Fe1 1_555 1_555
C2 N1 1_555 1_555
H1 C2 1_555 1_555
H2 C2 1_555 1_555
C3 C2 1_555 1_555
O5 Fe1 1_555 1_555
O6 C3 1_555 1_555
C4 N1 1_555 1_555
H3 C4 1_555 1_555
H4 C4 1_555 1_555
C5 C4 1_555 1_555
O7 Fe1 1_555 1_555
O8 C5 1_555 1_555
C6 N1 1_555 1_555
H5 C6 1_555 1_555
H6 C6 1_555 1_555
C7 C6 1_555 1_555
C8 C7 1_555 1_555
O9 Fe1 1_555 1_555
C9 C8 1_555 1_555
H7 C9 1_555 1_555
C10 C9 1_555 1_555
H8 C10 1_555 1_555
C11 C10 1_555 1_555
C12 C11 1_555 1_555
H9 C12 1_555 1_555
C13 C12 1_555 1_555
H10 C13 1_555 1_555
C14 C13 1_555 1_555
H11 C14 1_555 1_555
C15 C14 1_555 1_555
H12 C15 1_555 1_555
C16 C7 1_555 1_555
N2 Fe2 1_555 1_555
C17 N2 1_555 1_555
H13 C17 1_555 1_555
H14 C17 1_555 1_555
C18 C17 1_555 1_555
O10 Fe2 1_555 1_555
O11 C18 1_555 1_555
C19 N2 1_555 1_555
H15 C19 1_555 1_555
H16 C19 1_555 1_555
C20 C19 1_555 1_555
O12 Fe2 1_555 1_555
O13 C20 1_555 1_555
C21 N2 1_555 1_555
H17 C21 1_555 1_555
H18 C21 1_555 1_555
C22 C21 1_555 1_555
C23 C22 1_555 1_555
O14 Fe2 1_555 1_555
C24 C23 1_555 1_555
H19 C24 1_555 1_555
C25 C24 1_555 1_555
H20 C25 1_555 1_555
C26 C25 1_555 1_555
C27 C26 1_555 1_555
H21 C27 1_555 1_555
C28 C27 1_555 1_555
H22 C28 1_555 1_555
C29 C28 1_555 1_555
H23 C29 1_555 1_555
C30 C29 1_555 1_555
H24 C30 1_555 1_555
C31 C22 1_555 1_555
K1 O16 1_555 1_555
K2 O3 1_555 1_555
K3 O1 1_555 1_555
K4 O4 1_555 1_555
O15 H25 1_555 1_555
H26 O15 1_555 1_555
O16 H27 1_555 1_555
H28 O16 1_555 1_555
O17 K2 1_555 1_555
H29 O17 1_555 1_555
H30 O17 1_555 1_555
O18 K3 1_555 1_555
H31 O18 1_555 1_555
H32 O18 1_555 1_555
O19 K3 1_555 1_555
H33 O19 1_555 1_555
H34 O19 1_555 1_555
O20 H35 1_555 1_555
O22 C32 1_555 1_555
C32 H36 1_555 1_555
H37 C32 1_555 1_555
C33 C32 1_555 1_555
H38 C33 1_555 1_555
H39 C33 1_555 1_555
H40 C33 1_555 1_555
O23 H41 1_555 1_555
C34 O23 1_555 1_555
H42 C34 1_555 1_555
H43 C34 1_555 1_555
C35 C34 1_555 1_555
H44 C35 1_555 1_555
H45 C35 1_555 1_555
H46 C35 1_555 1_555
O8A K1 1_555 1_555
O13A K4 1_555 1_555
K1A O8 1_555 1_555
K3A O19 1_555 1_555
K4A O13 1_555 1_555
K4_2 O18 1_555 1_555
O18_2 K4 1_555 1_555
H31_2 O18_2 1_555 1_555
H32_2 O18_2 1_555 1_555
O19A K3 1_555 1_555
H33A O19A 1_555 1_555
H34A O19A 1_555 1_555
C1 O4 1_555 1_555
C3 O5 1_555 1_555
C5 O7 1_555 1_555
O7 K2 1_555 1_555
C8 O9 1_555 1_555
C11 C16 1_555 1_555
C15 C16 1_555 1_555
C18 O10 1_555 1_555
C20 O12 1_555 1_555
C23 O14 1_555 1_555
O14 K2 1_555 1_555
C26 C31 1_555 1_555
C30 C31 1_555 1_555
K3A O19A 1_555 1_555

#END
