
#######################################################################
#
#                 Cambridge Crystallographic Data Centre
#                                CCDC 
#
#######################################################################
#
# If this CIF has been generated from an entry in the Cambridge 
# Structural Database, then it will include bibliographic, chemical, 
# crystal, experimental, refinement or atomic coordinate data resulting 
# from the CCDC's data processing and validation procedures.
#
#######################################################################

data_QASZOB
_symmetry_cell_setting           triclinic
_symmetry_space_group_name_H-M   'P -1'
_symmetry_Int_Tables_number      2
_space_group_name_Hall           '-P 1'
loop_
_symmetry_equiv_pos_site_id
_symmetry_equiv_pos_as_xyz
1 x,y,z
2 -x,-y,-z
_cell_length_a                   9.7380(19)
_cell_length_b                   11.180(2)
_cell_length_c                   12.081(2)
_cell_angle_alpha                92.93(3)
_cell_angle_beta                 109.48(3)
_cell_angle_gamma                109.87(3)
_cell_volume                     1145.92
loop_
_atom_site_label
_atom_site_type_symbol
_atom_site_fract_x
_atom_site_fract_y
_atom_site_fract_z
Ag1 Ag 0.84710(2) 0.357177(17) 0.489121(17)
Br1 Br 1.11262(3) 0.39737(2) 0.44099(2)
N1 N 0.8136(2) 0.18146(19) 0.59133(17)
N2 N 0.9405(2) 0.03300(19) 0.65409(18)
N3 N 1.0600(2) 0.25049(19) 0.74037(18)
N4 N 0.6051(2) 0.19353(19) 0.37310(17)
N5 N 0.5066(2) 0.06000(19) 0.18062(18)
N6 N 0.5292(2) 0.27327(19) 0.20051(18)
C1 C 0.6588(2) 0.0879(2) 0.5451(2)
C2 C 0.5547(3) 0.0929(2) 0.4336(2)
C3 C 0.3986(3) 0.0041(2) 0.3913(2)
H1 H 0.3301 0.0067 0.3172
C4 C 0.9309(3) 0.1537(2) 0.6588(2)
C5 C 0.9929(3) -0.0165(3) 0.7638(2)
H2 H 1.0438 0.0535 0.8311
H3 H 1.0657 -0.0552 0.7598
H4 H 0.9037 -0.0802 0.7726
C6 C 0.8531(3) -0.0653(2) 0.5473(2)
H5 H 0.7604 -0.1256 0.5544
H6 H 0.9176 -0.1102 0.5369
H7 H 0.8233 -0.0255 0.4794
C7 C 1.2189(3) 0.2578(3) 0.7612(3)
H8 H 1.2141 0.1812 0.7177
H9 H 1.2740 0.2644 0.8451
H10 H 1.2734 0.3325 0.7347
C8 C 1.0497(3) 0.3726(2) 0.7768(2)
H11 H 1.0692 0.4291 0.7218
H12 H 1.1267 0.4127 0.8556
H13 H 0.9464 0.3565 0.7769
C9 C 0.5476(3) 0.1742(2) 0.2557(2)
C10 C 0.5783(3) -0.0315(3) 0.2237(2)
H14 H 0.6801 0.0140 0.2853
H15 H 0.5894 -0.0756 0.1589
H16 H 0.5128 -0.0933 0.2554
C11 C 0.3537(3) 0.0036(3) 0.0820(2)
H17 H 0.2850 -0.0677 0.1032
H18 H 0.3672 -0.0265 0.0119
H19 H 0.3086 0.0680 0.0660
C12 C 0.5250(3) 0.3836(2) 0.2659(2)
H20 H 0.4723 0.3547 0.3198
H21 H 0.4693 0.4255 0.2108
H22 H 0.6306 0.4435 0.3106
C13 C 0.5538(3) 0.2927(3) 0.0894(2)
H23 H 0.5785 0.2235 0.0619
H24 H 0.6393 0.3737 0.1027
H25 H 0.4598 0.2939 0.0303
Ag1A Ag 0.15290(2) -0.357177(17) 0.510879(17)
Ag1_2 Ag -0.15290(2) -0.642823(17) 0.489121(17)
Ag1A_2 Ag 1.15290(2) 0.642823(17) 0.510879(17)
Br1A Br -0.11262(3) -0.39737(2) 0.55901(2)
Br1_2 Br 0.11262(3) -0.60263(2) 0.44099(2)
Br1A_2 Br 0.88738(3) 0.60263(2) 0.55901(2)
N1A N 0.1864(2) -0.18146(19) 0.40867(17)
N2A N 0.0595(2) -0.03300(19) 0.34591(18)
N3A N -0.0600(2) -0.25049(19) 0.25963(18)
N4A N 0.3949(2) -0.19353(19) 0.62690(17)
N5A N 0.4934(2) -0.06000(19) 0.81938(18)
N6A N 0.4708(2) -0.27327(19) 0.79949(18)
C1A C 0.3412(2) -0.0879(2) 0.4549(2)
C2A C 0.4453(3) -0.0929(2) 0.5664(2)
C3A C 0.6014(3) -0.0041(2) 0.6087(2)
H1A H 0.6699 -0.0067 0.6828
C4A C 0.0691(3) -0.1537(2) 0.3412(2)
C5A C 0.0071(3) 0.0165(3) 0.2362(2)
H2A H -0.0438 -0.0535 0.1689
H3A H -0.0657 0.0552 0.2402
H4A H 0.0963 0.0802 0.2274
C6A C 0.1469(3) 0.0653(2) 0.4527(2)
H5A H 0.2396 0.1256 0.4456
H6A H 0.0824 0.1102 0.4631
H7A H 0.1767 0.0255 0.5206
C7A C -0.2189(3) -0.2578(3) 0.2388(3)
H8A H -0.2141 -0.1812 0.2823
H9A H -0.2740 -0.2644 0.1549
H10A H -0.2734 -0.3325 0.2653
C8A C -0.0497(3) -0.3726(2) 0.2232(2)
H11A H -0.0692 -0.4291 0.2782
H12A H -0.1267 -0.4127 0.1444
H13A H 0.0536 -0.3565 0.2231
C9A C 0.4524(3) -0.1742(2) 0.7443(2)
C10A C 0.4217(3) 0.0315(3) 0.7763(2)
H14A H 0.3199 -0.0140 0.7147
H15A H 0.4106 0.0756 0.8411
H16A H 0.4872 0.0933 0.7446
C11A C 0.6463(3) -0.0036(3) 0.9180(2)
H17A H 0.7150 0.0677 0.8968
H18A H 0.6328 0.0265 0.9881
H19A H 0.6914 -0.0680 0.9340
C12A C 0.4750(3) -0.3836(2) 0.7341(2)
H20A H 0.5277 -0.3547 0.6802
H21A H 0.5307 -0.4255 0.7892
H22A H 0.3694 -0.4435 0.6894
C13A C 0.4462(3) -0.2927(3) 0.9106(2)
H23A H 0.4215 -0.2235 0.9381
H24A H 0.3607 -0.3737 0.8973
H25A H 0.5402 -0.2939 0.9697
N7 N 1.1426(3) 0.2233(3) 1.0356(2)
C14 C 1.0728(3) 0.2755(3) 1.0620(3)
C15 C 0.9859(4) 0.3430(3) 1.0966(3)
H26 H 0.8825 0.3166 1.0360
H27 H 1.0402 0.4347 1.1059
H28 H 0.9774 0.3227 1.1709
N8 N 0.3267(3) 0.6278(3) 0.1527(3)
C16 C 0.3808(3) 0.6343(3) 0.2527(3)
C17 C 0.4508(3) 0.6424(3) 0.3813(3)
H29 H 0.5547 0.6419 0.4020
H30 H 0.3870 0.5696 0.4044
H31 H 0.4568 0.7211 0.4222
loop_
_geom_bond_atom_site_label_1
_geom_bond_atom_site_label_2
_geom_bond_site_symmetry_1
_geom_bond_site_symmetry_2
Ag1 Br1 1_555 1_555
Br1 Ag1A_2 1_555 1_555
N1 Ag1 1_555 1_555
N2 C4 1_555 1_555
N3 C4 1_555 1_555
N4 Ag1 1_555 1_555
N5 C9 1_555 1_555
N6 C9 1_555 1_555
C1 N1 1_555 1_555
C2 N4 1_555 1_555
C3 C2 1_555 1_555
H1 C3 1_555 1_555
C4 N1 1_555 1_555
C5 N2 1_555 1_555
H2 C5 1_555 1_555
H3 C5 1_555 1_555
H4 C5 1_555 1_555
C6 N2 1_555 1_555
H5 C6 1_555 1_555
H6 C6 1_555 1_555
H7 C6 1_555 1_555
C7 N3 1_555 1_555
H8 C7 1_555 1_555
H9 C7 1_555 1_555
H10 C7 1_555 1_555
C8 N3 1_555 1_555
H11 C8 1_555 1_555
H12 C8 1_555 1_555
H13 C8 1_555 1_555
C9 N4 1_555 1_555
C10 N5 1_555 1_555
H14 C10 1_555 1_555
H15 C10 1_555 1_555
H16 C10 1_555 1_555
C11 N5 1_555 1_555
H17 C11 1_555 1_555
H18 C11 1_555 1_555
H19 C11 1_555 1_555
C12 N6 1_555 1_555
H20 C12 1_555 1_555
H21 C12 1_555 1_555
H22 C12 1_555 1_555
C13 N6 1_555 1_555
H23 C13 1_555 1_555
H24 C13 1_555 1_555
H25 C13 1_555 1_555
N7 C14 1_555 1_555
N8 C16 1_555 1_555
C14 C15 1_555 1_555
C15 H26 1_555 1_555
H27 C15 1_555 1_555
H28 C15 1_555 1_555
C16 C17 1_555 1_555
C17 H29 1_555 1_555
H30 C17 1_555 1_555
H31 C17 1_555 1_555
Ag1A Br1A 1_555 1_555
Ag1_2 Br1A 1_555 1_555
Ag1A_2 Br1A_2 1_555 1_555
Br1_2 Ag1A 1_555 1_555
Br1A_2 Ag1 1_555 1_555
N1A Ag1A 1_555 1_555
N2A C4A 1_555 1_555
N3A C4A 1_555 1_555
N4A Ag1A 1_555 1_555
N5A C9A 1_555 1_555
N6A C9A 1_555 1_555
C1A C3 1_555 1_555
C2A N4A 1_555 1_555
C3A C1 1_555 1_555
H1A C3A 1_555 1_555
C4A N1A 1_555 1_555
C5A N2A 1_555 1_555
H2A C5A 1_555 1_555
H3A C5A 1_555 1_555
H4A C5A 1_555 1_555
C6A N2A 1_555 1_555
H5A C6A 1_555 1_555
H6A C6A 1_555 1_555
H7A C6A 1_555 1_555
C7A N3A 1_555 1_555
H8A C7A 1_555 1_555
H9A C7A 1_555 1_555
H10A C7A 1_555 1_555
C8A N3A 1_555 1_555
H11A C8A 1_555 1_555
H12A C8A 1_555 1_555
H13A C8A 1_555 1_555
C9A N4A 1_555 1_555
C10A N5A 1_555 1_555
H14A C10A 1_555 1_555
H15A C10A 1_555 1_555
H16A C10A 1_555 1_555
C11A N5A 1_555 1_555
H17A C11A 1_555 1_555
H18A C11A 1_555 1_555
H19A C11A 1_555 1_555
C12A N6A 1_555 1_555
H20A C12A 1_555 1_555
H21A C12A 1_555 1_555
H22A C12A 1_555 1_555
C13A N6A 1_555 1_555
H23A C13A 1_555 1_555
H24A C13A 1_555 1_555
H25A C13A 1_555 1_555
C1 C2 1_555 1_555
Ag1_2 Br1_2 1_555 1_555
N1A C1A 1_555 1_555
C1A C2A 1_555 1_555
C2A C3A 1_555 1_555

#END
