
#######################################################################
#
#                 Cambridge Crystallographic Data Centre
#                                CCDC 
#
#######################################################################
#
# If this CIF has been generated from an entry in the Cambridge 
# Structural Database, then it will include bibliographic, chemical, 
# crystal, experimental, refinement or atomic coordinate data resulting 
# from the CCDC's data processing and validation procedures.
#
#######################################################################

data_QASZUF
_symmetry_cell_setting           monoclinic
_symmetry_space_group_name_H-M   'C 2/c'
_symmetry_Int_Tables_number      15
_space_group_name_Hall           '-C 2yn'
loop_
_symmetry_equiv_pos_site_id
_symmetry_equiv_pos_as_xyz
1 x,y,z
2 1/2+x,1/2+y,z
3 x,-y,1/2+z
4 1/2+x,1/2-y,1/2+z
5 -x,-y,-z
6 1/2-x,1/2-y,-z
7 -x,y,1/2-z
8 1/2-x,1/2+y,1/2-z
_cell_length_a                   31.746(6)
_cell_length_b                   6.0830(10)
_cell_length_c                   13.363(3)
_cell_angle_alpha                90
_cell_angle_beta                 104.35(3)
_cell_angle_gamma                90
_cell_volume                     2500.03
loop_
_atom_site_label
_atom_site_type_symbol
_atom_site_fract_x
_atom_site_fract_y
_atom_site_fract_z
Co1 Co 0.2500 0.2500 0.5000
Na1 Na 0.18880(6) 0.1076(4) 0.26252(16)
O1 O 0.19464(9) 0.0671(6) 0.4539(2)
O2 O 0.20110(9) -0.1659(5) 0.5877(3)
O3 O -0.16688(9) -0.2302(7) 0.2933(2)
O4 O -0.15322(10) -0.5666(6) 0.2454(3)
O5 O 0.26667(9) 0.1002(6) 0.3641(2)
H1 H 0.2891 0.1735 0.3375
H2 H 0.2800 -0.0311 0.3958
O6 O 0.22062(9) 0.5115(6) 0.4144(2)
H3 H 0.1958 0.4995 0.3727
H4 H 0.2445 0.5539 0.3902
C1 C 0.17979(15) -0.0754(9) 0.5054(4)
C2 C 0.13253(15) -0.1342(10) 0.4658(4)
C3 C 0.11700(15) -0.3355(9) 0.4862(4)
H5 H 0.1369 -0.4453 0.5174
C4 C 0.07305(14) -0.3812(9) 0.4542(3)
H6 H 0.0610 -0.5073 0.4703
C5 C 0.04387(13) -0.2210(11) 0.4049(3)
C6 C 0.06052(14) -0.0202(9) 0.3837(4)
H7 H 0.0382 0.1006 0.3572
C7 C 0.10445(14) 0.0207(9) 0.4130(4)
H8 H 0.1126 0.1541 0.3886
C8 C -0.00357(14) -0.2654(11) 0.3775(3)
C9 C -0.02030(15) -0.4694(9) 0.3457(4)
H9 H -0.0025 -0.5756 0.3368
C10 C -0.06420(14) -0.5075(10) 0.3127(4)
H10 H -0.0760 -0.6494 0.2957
C11 C -0.09354(16) -0.3416(9) 0.3149(4)
C12 C -0.07767(14) -0.1404(10) 0.3506(4)
H11 H -0.0959 -0.0205 0.3556
C13 C -0.03290(15) -0.0978(9) 0.3804(4)
H12 H -0.0234 0.0422 0.4063
C14 C -0.14124(16) -0.3804(10) 0.2820(4)
O1E O 0.30536(9) 0.4329(6) 0.5461(2)
O2E O 0.29890(9) 0.6659(5) 0.4123(3)
O3E O 0.66688(9) 0.7302(7) 0.7067(2)
O4E O 0.65322(10) 1.0666(6) 0.7546(3)
C1E C 0.32021(15) 0.5754(9) 0.4946(4)
C2E C 0.36747(15) 0.6342(10) 0.5342(4)
C3E C 0.38300(15) 0.8355(9) 0.5138(4)
H5E H 0.3631 0.9453 0.4826
C4E C 0.42695(14) 0.8812(9) 0.5458(3)
H6E H 0.4390 1.0073 0.5297
C5E C 0.45613(13) 0.7210(11) 0.5951(3)
C6E C 0.43948(14) 0.5202(9) 0.6163(4)
H7E H 0.4618 0.3994 0.6428
C7E C 0.39555(14) 0.4793(9) 0.5870(4)
H8E H 0.3874 0.3459 0.6114
C8E C 0.50357(14) 0.7654(11) 0.6225(3)
C9E C 0.52030(15) 0.9694(9) 0.6543(4)
H9E H 0.5025 1.0756 0.6632
C10E C 0.56420(14) 1.0075(10) 0.6873(4)
H10E H 0.5760 1.1494 0.7043
C11E C 0.59354(16) 0.8416(9) 0.6851(4)
C12E C 0.57767(14) 0.6404(10) 0.6494(4)
H11E H 0.5959 0.5205 0.6444
C13E C 0.53290(15) 0.5978(9) 0.6196(4)
H12E H 0.5234 0.4578 0.5937
C14E C 0.64124(16) 0.8804(10) 0.7180(4)
O5E O 0.23333(9) 0.3998(6) 0.6359(2)
H1E H 0.2109 0.3265 0.6625
H2E H 0.2200 0.5311 0.6042
O6E O 0.27938(9) -0.0115(6) 0.5856(2)
H3E H 0.3042 0.0005 0.6273
H4E H 0.2555 -0.0539 0.6098
Na1E Na 0.31120(6) 0.3924(4) 0.73748(16)
O2B O 0.20110(9) 0.1659(5) 0.0877(3)
O3F O 0.16688(9) -0.2302(7) 0.2067(2)
O4F O 0.15322(10) 0.4334(6) 0.2546(3)
Na1B Na 0.18880(6) -0.1076(4) 0.76252(16)
Na1F Na -0.18880(6) 0.1076(4) 0.23748(16)
Na1F_2 Na -0.18880(6) -0.8924(4) 0.23748(16)
Na1G Na 0.31120(6) 0.6076(4) 0.23748(16)
Na1C Na 0.68880(6) 0.3924(4) 0.76252(16)
Na1C_2 Na 0.68880(6) 1.3924(4) 0.76252(16)
O2G O 0.29890(9) 0.3341(5) 0.9123(3)
O3C O 0.33312(9) 0.7302(7) 0.7933(2)
O4C O 0.34678(10) 0.0666(6) 0.7454(3)
loop_
_geom_bond_atom_site_label_1
_geom_bond_atom_site_label_2
_geom_bond_site_symmetry_1
_geom_bond_site_symmetry_2
Co1 O1 1_555 1_555
Na1 O1 1_555 1_555
O1 C1 1_555 1_555
O2 C1 1_555 1_555
O3 C14 1_555 1_555
O4 C14 1_555 1_555
O5 Co1 1_555 1_555
H1 O5 1_555 1_555
H2 O5 1_555 1_555
O6 Co1 1_555 1_555
H3 O6 1_555 1_555
H4 O6 1_555 1_555
C1 C2 1_555 1_555
C2 C3 1_555 1_555
C3 H5 1_555 1_555
C4 C3 1_555 1_555
H6 C4 1_555 1_555
C5 C4 1_555 1_555
C6 C5 1_555 1_555
H7 C6 1_555 1_555
C7 C2 1_555 1_555
H8 C7 1_555 1_555
C8 C5 1_555 1_555
C9 C8 1_555 1_555
H9 C9 1_555 1_555
C10 C9 1_555 1_555
H10 C10 1_555 1_555
C11 C10 1_555 1_555
C12 C11 1_555 1_555
H11 C12 1_555 1_555
C13 C8 1_555 1_555
H12 C13 1_555 1_555
C14 C11 1_555 1_555
O1E Co1 1_555 1_555
O2E C1E 1_555 1_555
O3E C14E 1_555 1_555
O4E C14E 1_555 1_555
C1E O1E 1_555 1_555
C2E C1E 1_555 1_555
C3E C2E 1_555 1_555
H5E C3E 1_555 1_555
C4E C3E 1_555 1_555
H6E C4E 1_555 1_555
C5E C4E 1_555 1_555
C6E C5E 1_555 1_555
H7E C6E 1_555 1_555
C7E C2E 1_555 1_555
H8E C7E 1_555 1_555
C8E C5E 1_555 1_555
C9E C8E 1_555 1_555
H9E C9E 1_555 1_555
C10E C9E 1_555 1_555
H10E C10E 1_555 1_555
C11E C10E 1_555 1_555
C12E C11E 1_555 1_555
H11E C12E 1_555 1_555
C13E C8E 1_555 1_555
H12E C13E 1_555 1_555
C14E C11E 1_555 1_555
O5E Co1 1_555 1_555
H1E O5E 1_555 1_555
H2E O5E 1_555 1_555
O6E Co1 1_555 1_555
H3E O6E 1_555 1_555
H4E O6E 1_555 1_555
Na1E O1E 1_555 1_555
O2B Na1 1_555 1_555
O3F Na1 1_555 1_555
O4F Na1 1_555 1_555
Na1B O2 1_555 1_555
Na1F O3 1_555 1_555
Na1F_2 O4 1_555 1_555
Na1G O2E 1_555 1_555
Na1C O3E 1_555 1_555
Na1C_2 O4E 1_555 1_555
O2G Na1E 1_555 1_555
O3C Na1E 1_555 1_555
O4C Na1E 1_555 1_555
Na1 O5 1_555 1_555
C6 C7 1_555 1_555
C12 C13 1_555 1_555
C6E C7E 1_555 1_555
C12E C13E 1_555 1_555
O5E Na1E 1_555 1_555

#END
