
#######################################################################
#
#                 Cambridge Crystallographic Data Centre
#                                CCDC 
#
#######################################################################
#
# If this CIF has been generated from an entry in the Cambridge 
# Structural Database, then it will include bibliographic, chemical, 
# crystal, experimental, refinement or atomic coordinate data resulting 
# from the CCDC's data processing and validation procedures.
#
#######################################################################

data_QATBIY
_symmetry_cell_setting           triclinic
_symmetry_space_group_name_H-M   'P -1'
_symmetry_Int_Tables_number      2
_space_group_name_Hall           '-P 1'
loop_
_symmetry_equiv_pos_site_id
_symmetry_equiv_pos_as_xyz
1 x,y,z
2 -x,-y,-z
_cell_length_a                   10.154(2)
_cell_length_b                   12.962(3)
_cell_length_c                   20.173(4)
_cell_angle_alpha                91.13(3)
_cell_angle_beta                 101.84(3)
_cell_angle_gamma                109.83(3)
_cell_volume                     2432.98
loop_
_atom_site_label
_atom_site_type_symbol
_atom_site_fract_x
_atom_site_fract_y
_atom_site_fract_z
I1 I 0.13925(5) 0.65057(4) 0.17697(2)
I2 I 0.52899(5) 0.55518(4) 0.31177(2)
I3 I 0.23190(6) 0.99709(5) 0.30537(3)
Ag1 Ag 0.40239(5) 0.61282(4) 0.18703(3)
Ag2 Ag 0.59060(5) 0.79266(4) 0.36070(3)
Ag3 Ag 0.28055(7) 0.79886(5) 0.29754(3)
Ag4 Ag 0.24520(6) 0.55236(5) 0.30025(3)
Ag5 Ag 0.30566(8) 0.93017(7) 0.18823(3)
Br1 Br 0.53437(7) 0.85996(5) 0.23338(3)
Br2 Br 0.34960(7) 0.72545(5) 0.41555(3)
Br3 Br 0.03603(7) 0.39268(6) 0.33181(4)
Br4 Br 0.24977(7) 1.01848(6) 0.07848(3)
N1 N 0.5295(6) 0.6632(5) 0.0980(3)
N2 N 0.5566(6) 0.8389(5) 0.0633(3)
N3 N 0.7538(6) 0.8065(5) 0.1271(3)
N4 N 0.3660(6) 0.4550(5) 0.1085(3)
N5 N 0.2692(6) 0.2938(5) 0.1585(3)
N6 N 0.1286(6) 0.3358(5) 0.0641(3)
N7 N 0.7703(6) 0.9836(5) 0.3946(3)
N8 N 0.7822(6) 1.1069(5) 0.3120(3)
N9 N 0.6648(6) 1.1170(5) 0.3988(3)
N10 N 0.7903(6) 0.8016(5) 0.4460(3)
N11 N 0.7420(6) 0.6441(5) 0.5040(3)
N12 N 0.8952(6) 0.6717(5) 0.4293(3)
C1 C 0.5221(7) 0.5873(5) 0.0503(3)
C2 C 0.4240(7) 0.4719(6) 0.0544(3)
C3 C 0.5920(7) 0.6085(5) -0.0034(3)
H1 H 0.6524 0.6801 -0.0054
C4 C 0.6151(7) 0.7718(5) 0.0944(3)
C5 C 0.6118(8) 0.9585(6) 0.0802(4)
H2 H 0.6785 0.9768 0.1236
H3 H 0.5335 0.9832 0.0821
H4 H 0.6597 0.9939 0.0460
C6 C 0.4125(8) 0.7952(6) 0.0169(4)
H5 H 0.3767 0.7162 0.0146
H6 H 0.4192 0.8178 -0.0277
H7 H 0.3482 0.8233 0.0337
C7 C 0.8688(8) 0.8957(6) 0.1076(4)
H8 H 0.8328 0.9162 0.0639
H9 H 0.9470 0.8712 0.1051
H10 H 0.9020 0.9582 0.1409
C8 C 0.8052(8) 0.7404(6) 0.1787(4)
H11 H 0.7319 0.7071 0.2030
H12 H 0.8903 0.7875 0.2100
H13 H 0.8266 0.6839 0.1564
C9 C 0.2533(7) 0.3582(6) 0.1094(3)
C10 C 0.4099(8) 0.2896(7) 0.1904(4)
H14 H 0.4758 0.3191 0.1618
H15 H 0.4015 0.2146 0.1966
H16 H 0.4448 0.3325 0.2338
C11 C 0.1528(9) 0.2324(7) 0.1900(4)
H17 H 0.0700 0.2522 0.1731
H18 H 0.1827 0.2497 0.2385
H19 H 0.1291 0.1549 0.1792
C12 C 0.0258(8) 0.2231(6) 0.0435(4)
H20 H 0.0715 0.1713 0.0586
H21 H -0.0060 0.2125 -0.0052
H22 H -0.0554 0.2119 0.0635
C13 C 0.0925(8) 0.4191(6) 0.0254(4)
H23 H 0.1445 0.4903 0.0500
H24 H -0.0088 0.4046 0.0184
H25 H 0.1178 0.4175 -0.0178
C14 C 0.8796(7) 0.9967(6) 0.4465(3)
C15 C 0.8961(7) 0.8943(5) 0.4737(3)
C16 C 0.9867(7) 1.0984(5) 0.4762(3)
H26 H 0.9768 1.1632 0.4610
C17 C 0.7415(6) 1.0728(5) 0.3684(3)
C18 C 0.8928(8) 1.0762(6) 0.2894(4)
H27 H 0.9575 1.0651 0.3282
H28 H 0.9452 1.1339 0.2657
H29 H 0.8483 1.0092 0.2595
C19 C 0.6981(9) 1.1528(6) 0.2607(4)
H30 H 0.6026 1.1341 0.2680
H31 H 0.6937 1.1227 0.2161
H32 H 0.7431 1.2315 0.2645
C20 C 0.6668(8) 1.2289(6) 0.3923(4)
H33 H 0.7432 1.2684 0.3710
H34 H 0.6819 1.2652 0.4366
H35 H 0.5767 1.2271 0.3648
C21 C 0.5940(8) 1.0591(6) 0.4499(4)
H36 H 0.5617 0.9811 0.4379
H37 H 0.5130 1.0804 0.4521
H38 H 0.6604 1.0777 0.4934
C22 C 0.8102(7) 0.7035(5) 0.4617(3)
C23 C 0.6831(8) 0.6956(7) 0.5513(4)
H39 H 0.7412 0.7721 0.5620
H40 H 0.6835 0.6592 0.5923
H41 H 0.5864 0.6888 0.5301
C24 C 0.7020(8) 0.5241(6) 0.5030(5)
H42 H 0.6946 0.4933 0.4581
H43 H 0.6112 0.4935 0.5154
H44 H 0.7741 0.5068 0.5348
C25 C 0.9435(9) 0.7270(7) 0.3717(4)
H45 H 0.8720 0.7543 0.3477
H46 H 0.9580 0.6758 0.3415
H47 H 1.0321 0.7874 0.3879
C26 C 0.9703(9) 0.5990(7) 0.4586(4)
H48 H 0.9658 0.5938 0.5056
H49 H 1.0689 0.6285 0.4554
H50 H 0.9254 0.5271 0.4342
I1A I 0.86075(5) 0.34943(4) -0.17697(2)
I2A I 0.47101(5) 0.44482(4) -0.31177(2)
I3A I 0.76810(6) 0.00291(5) -0.30537(3)
Ag1A Ag 0.59761(5) 0.38718(4) -0.18703(3)
Ag2A Ag 0.40940(5) 0.20734(4) -0.36070(3)
Ag2A_2 Ag 1.40940(5) 1.20734(4) 0.63930(3)
Ag3A Ag 0.71945(7) 0.20114(5) -0.29754(3)
Ag4A Ag 0.75480(6) 0.44764(5) -0.30025(3)
Ag5A Ag 0.69434(8) 0.06983(7) -0.18823(3)
Br1A Br 0.46563(7) 0.14004(5) -0.23338(3)
Br2A Br 0.65040(7) 0.27455(5) -0.41555(3)
Br3A Br 0.96397(7) 0.60732(6) -0.33181(4)
Br4A Br 0.75023(7) -0.01848(6) -0.07848(3)
N1A N 0.4705(6) 0.3368(5) -0.0980(3)
N2A N 0.4434(6) 0.1611(5) -0.0633(3)
N3A N 0.2462(6) 0.1935(5) -0.1271(3)
N4A N 0.6340(6) 0.5450(5) -0.1085(3)
N5A N 0.7308(6) 0.7062(5) -0.1585(3)
N6A N 0.8714(6) 0.6642(5) -0.0641(3)
N7A N 1.2297(6) 1.0164(5) 0.6054(3)
N7A_2 N 0.2297(6) 0.0164(5) -0.3946(3)
N8A N 1.2178(6) 0.8931(5) 0.6880(3)
N9A N 1.3352(6) 0.8830(5) 0.6012(3)
N10A N 1.2097(6) 1.1984(5) 0.5540(3)
N10A_2 N 0.2097(6) 0.1984(5) -0.4460(3)
N11A N 1.2580(6) 1.3559(5) 0.4960(3)
N12A N 1.1048(6) 1.3283(5) 0.5707(3)
C1A C 0.4779(7) 0.4127(5) -0.0503(3)
C2A C 0.5760(7) 0.5281(6) -0.0544(3)
C3A C 0.4080(7) 0.3915(5) 0.0034(3)
H1A H 0.3476 0.3199 0.0054
C4A C 0.3849(7) 0.2282(5) -0.0944(3)
C5A C 0.3882(8) 0.0415(6) -0.0802(4)
H2A H 0.3215 0.0232 -0.1236
H3A H 0.4665 0.0168 -0.0821
H4A H 0.3403 0.0061 -0.0460
C6A C 0.5875(8) 0.2048(6) -0.0169(4)
H5A H 0.6233 0.2838 -0.0146
H6A H 0.5808 0.1822 0.0277
H7A H 0.6518 0.1767 -0.0337
C7A C 0.1312(8) 0.1043(6) -0.1076(4)
H8A H 0.1672 0.0838 -0.0639
H9A H 0.0530 0.1288 -0.1051
H10A H 0.0980 0.0418 -0.1409
C8A C 0.1948(8) 0.2596(6) -0.1787(4)
H11A H 0.2681 0.2929 -0.2030
H12A H 0.1097 0.2125 -0.2100
H13A H 0.1734 0.3161 -0.1564
C9A C 0.7467(7) 0.6418(6) -0.1094(3)
C10A C 0.5901(8) 0.7104(7) -0.1904(4)
H14A H 0.5242 0.6809 -0.1618
H15A H 0.5985 0.7854 -0.1966
H16A H 0.5552 0.6675 -0.2338
C11A C 0.8472(9) 0.7676(7) -0.1900(4)
H17A H 0.9300 0.7478 -0.1731
H18A H 0.8173 0.7503 -0.2385
H19A H 0.8709 0.8451 -0.1792
C12A C 0.9742(8) 0.7769(6) -0.0435(4)
H20A H 0.9285 0.8287 -0.0586
H21A H 1.0060 0.7875 0.0052
H22A H 1.0554 0.7881 -0.0635
C13A C 0.9075(8) 0.5809(6) -0.0254(4)
H23A H 0.8555 0.5097 -0.0500
H24A H 1.0088 0.5954 -0.0184
H25A H 0.8822 0.5825 0.0178
C14A C 1.1204(7) 1.0033(6) 0.5535(3)
C15A C 1.1039(7) 1.1057(5) 0.5263(3)
C16A C 1.0133(7) 0.9016(5) 0.5238(3)
H26A H 1.0232 0.8368 0.5390
C17A C 1.2585(6) 0.9272(5) 0.6316(3)
C18A C 1.1072(8) 0.9238(6) 0.7106(4)
H27A H 1.0425 0.9349 0.6718
H28A H 1.0548 0.8661 0.7343
H29A H 1.1517 0.9908 0.7405
C19A C 1.3019(9) 0.8472(6) 0.7393(4)
H30A H 1.3974 0.8659 0.7320
H31A H 1.3063 0.8773 0.7839
H32A H 1.2569 0.7685 0.7355
C20A C 1.3332(8) 0.7711(6) 0.6077(4)
H33A H 1.2568 0.7316 0.6290
H34A H 1.3181 0.7348 0.5634
H35A H 1.4233 0.7729 0.6352
C21A C 1.4060(8) 0.9409(6) 0.5501(4)
H36A H 1.4383 1.0189 0.5621
H37A H 1.4870 0.9196 0.5479
H38A H 1.3396 0.9223 0.5066
C22A C 1.1898(7) 1.2965(5) 0.5383(3)
C23A C 1.3169(8) 1.3044(7) 0.4487(4)
H39A H 1.2588 1.2279 0.4380
H40A H 1.3165 1.3408 0.4077
H41A H 1.4136 1.3112 0.4699
C24A C 1.2980(8) 1.4759(6) 0.4970(5)
H42A H 1.3054 1.5067 0.5419
H43A H 1.3888 1.5065 0.4846
H44A H 1.2259 1.4932 0.4652
C25A C 1.0565(9) 1.2730(7) 0.6283(4)
H45A H 1.1280 1.2457 0.6523
H46A H 1.0420 1.3242 0.6585
H47A H 0.9679 1.2126 0.6121
C26A C 1.0297(9) 1.4010(7) 0.5414(4)
H48A H 1.0342 1.4062 0.4944
H49A H 0.9311 1.3715 0.5446
H50A H 1.0746 1.4729 0.5658
N13 N 0.8149(10) 0.3273(9) 0.1246(4)
C27 C 0.7967(10) 0.3866(9) 0.1612(5)
C28 C 0.7732(9) 0.4593(7) 0.2069(5)
H51 H 0.8593 0.5225 0.2216
H52 H 0.7480 0.4222 0.2457
H53 H 0.6964 0.4824 0.1844
loop_
_geom_bond_atom_site_label_1
_geom_bond_atom_site_label_2
_geom_bond_site_symmetry_1
_geom_bond_site_symmetry_2
I1 Ag1 1_555 1_555
I2 Ag1 1_555 1_555
I3 Ag3 1_555 1_555
Ag1 Br1 1_555 1_555
Ag2 I2 1_555 1_555
Ag3 I1 1_555 1_555
Ag4 I1 1_555 1_555
Ag5 I3 1_555 1_555
Br1 Ag2 1_555 1_555
Br2 Ag2 1_555 1_555
Br3 Ag4 1_555 1_555
Br4 Ag5 1_555 1_555
N1 Ag1 1_555 1_555
N2 C4 1_555 1_555
N3 C4 1_555 1_555
N4 Ag1 1_555 1_555
N5 C9 1_555 1_555
N6 C9 1_555 1_555
N7 Ag2 1_555 1_555
N8 C17 1_555 1_555
N9 C17 1_555 1_555
N10 Ag2 1_555 1_555
N11 C22 1_555 1_555
N12 C22 1_555 1_555
C1 N1 1_555 1_555
C2 N4 1_555 1_555
C3 C1 1_555 1_555
H1 C3 1_555 1_555
C4 N1 1_555 1_555
C5 N2 1_555 1_555
H2 C5 1_555 1_555
H3 C5 1_555 1_555
H4 C5 1_555 1_555
C6 N2 1_555 1_555
H5 C6 1_555 1_555
H6 C6 1_555 1_555
H7 C6 1_555 1_555
C7 N3 1_555 1_555
H8 C7 1_555 1_555
H9 C7 1_555 1_555
H10 C7 1_555 1_555
C8 N3 1_555 1_555
H11 C8 1_555 1_555
H12 C8 1_555 1_555
H13 C8 1_555 1_555
C9 N4 1_555 1_555
C10 N5 1_555 1_555
H14 C10 1_555 1_555
H15 C10 1_555 1_555
H16 C10 1_555 1_555
C11 N5 1_555 1_555
H17 C11 1_555 1_555
H18 C11 1_555 1_555
H19 C11 1_555 1_555
C12 N6 1_555 1_555
H20 C12 1_555 1_555
H21 C12 1_555 1_555
H22 C12 1_555 1_555
C13 N6 1_555 1_555
H23 C13 1_555 1_555
H24 C13 1_555 1_555
H25 C13 1_555 1_555
C14 N7 1_555 1_555
C15 N10 1_555 1_555
C16 C14 1_555 1_555
H26 C16 1_555 1_555
C17 N7 1_555 1_555
C18 N8 1_555 1_555
H27 C18 1_555 1_555
H28 C18 1_555 1_555
H29 C18 1_555 1_555
C19 N8 1_555 1_555
H30 C19 1_555 1_555
H31 C19 1_555 1_555
H32 C19 1_555 1_555
C20 N9 1_555 1_555
H33 C20 1_555 1_555
H34 C20 1_555 1_555
H35 C20 1_555 1_555
C21 N9 1_555 1_555
H36 C21 1_555 1_555
H37 C21 1_555 1_555
H38 C21 1_555 1_555
C22 N10 1_555 1_555
C23 N11 1_555 1_555
H39 C23 1_555 1_555
H40 C23 1_555 1_555
H41 C23 1_555 1_555
C24 N11 1_555 1_555
H42 C24 1_555 1_555
H43 C24 1_555 1_555
H44 C24 1_555 1_555
C25 N12 1_555 1_555
H45 C25 1_555 1_555
H46 C25 1_555 1_555
H47 C25 1_555 1_555
C26 N12 1_555 1_555
H48 C26 1_555 1_555
H49 C26 1_555 1_555
H50 C26 1_555 1_555
N13 C27 1_555 1_555
C27 C28 1_555 1_555
C28 H51 1_555 1_555
H52 C28 1_555 1_555
H53 C28 1_555 1_555
I1A Ag1A 1_555 1_555
I2A Ag1A 1_555 1_555
I3A Ag3A 1_555 1_555
Ag1A Br1A 1_555 1_555
Ag2A I2A 1_555 1_555
Ag2A_2 N7A 1_555 1_555
Ag3A I1A 1_555 1_555
Ag4A I1A 1_555 1_555
Ag5A I3A 1_555 1_555
Br1A Ag2A 1_555 1_555
Br2A Ag2A 1_555 1_555
Br3A Ag4A 1_555 1_555
Br4A Ag5A 1_555 1_555
N1A Ag1A 1_555 1_555
N2A C4A 1_555 1_555
N3A C4A 1_555 1_555
N4A Ag1A 1_555 1_555
N5A C9A 1_555 1_555
N6A C9A 1_555 1_555
N7A C14A 1_555 1_555
N7A_2 Ag2A 1_555 1_555
N8A C17A 1_555 1_555
N9A C17A 1_555 1_555
N10A Ag2A_2 1_555 1_555
N10A_2 Ag2A 1_555 1_555
N11A C22A 1_555 1_555
N12A C22A 1_555 1_555
C1A N1A 1_555 1_555
C2A C3 1_555 1_555
C3A C2 1_555 1_555
H1A C3A 1_555 1_555
C4A N1A 1_555 1_555
C5A N2A 1_555 1_555
H2A C5A 1_555 1_555
H3A C5A 1_555 1_555
H4A C5A 1_555 1_555
C6A N2A 1_555 1_555
H5A C6A 1_555 1_555
H6A C6A 1_555 1_555
H7A C6A 1_555 1_555
C7A N3A 1_555 1_555
H8A C7A 1_555 1_555
H9A C7A 1_555 1_555
H10A C7A 1_555 1_555
C8A N3A 1_555 1_555
H11A C8A 1_555 1_555
H12A C8A 1_555 1_555
H13A C8A 1_555 1_555
C9A N4A 1_555 1_555
C10A N5A 1_555 1_555
H14A C10A 1_555 1_555
H15A C10A 1_555 1_555
H16A C10A 1_555 1_555
C11A N5A 1_555 1_555
H17A C11A 1_555 1_555
H18A C11A 1_555 1_555
H19A C11A 1_555 1_555
C12A N6A 1_555 1_555
H20A C12A 1_555 1_555
H21A C12A 1_555 1_555
H22A C12A 1_555 1_555
C13A N6A 1_555 1_555
H23A C13A 1_555 1_555
H24A C13A 1_555 1_555
H25A C13A 1_555 1_555
C14A C15A 1_555 1_555
C15A C16 1_555 1_555
C16A C15 1_555 1_555
H26A C16A 1_555 1_555
C17A N7A 1_555 1_555
C18A N8A 1_555 1_555
H27A C18A 1_555 1_555
H28A C18A 1_555 1_555
H29A C18A 1_555 1_555
C19A N8A 1_555 1_555
H30A C19A 1_555 1_555
H31A C19A 1_555 1_555
H32A C19A 1_555 1_555
C20A N9A 1_555 1_555
H33A C20A 1_555 1_555
H34A C20A 1_555 1_555
H35A C20A 1_555 1_555
C21A N9A 1_555 1_555
H36A C21A 1_555 1_555
H37A C21A 1_555 1_555
H38A C21A 1_555 1_555
C22A N10A 1_555 1_555
C23A N11A 1_555 1_555
H39A C23A 1_555 1_555
H40A C23A 1_555 1_555
H41A C23A 1_555 1_555
C24A N11A 1_555 1_555
H42A C24A 1_555 1_555
H43A C24A 1_555 1_555
H44A C24A 1_555 1_555
C25A N12A 1_555 1_555
H45A C25A 1_555 1_555
H46A C25A 1_555 1_555
H47A C25A 1_555 1_555
C26A N12A 1_555 1_555
H48A C26A 1_555 1_555
H49A C26A 1_555 1_555
H50A C26A 1_555 1_555
I2 Ag4 1_555 1_555
Ag3 Br1 1_555 1_555
Ag3 Br2 1_555 1_555
Ag4 Br2 1_555 1_555
Ag5 Br1 1_555 1_555
C1 C2 1_555 1_555
C14 C15 1_555 1_555
I2A Ag4A 1_555 1_555
Ag3A Br1A 1_555 1_555
Ag3A Br2A 1_555 1_555
Ag4A Br2A 1_555 1_555
Ag5A Br1A 1_555 1_555
N4A C2A 1_555 1_555
N10A C15A 1_555 1_555
C1A C2A 1_555 1_555
C1A C3A 1_555 1_555
C14A C16A 1_555 1_555

#END
