
#######################################################################
#
#                 Cambridge Crystallographic Data Centre
#                                CCDC 
#
#######################################################################
#
# If this CIF has been generated from an entry in the Cambridge 
# Structural Database, then it will include bibliographic, chemical, 
# crystal, experimental, refinement or atomic coordinate data resulting 
# from the CCDC's data processing and validation procedures.
#
#######################################################################

data_QATBIW
_symmetry_cell_setting           triclinic
_symmetry_space_group_name_H-M   'P -1'
_symmetry_Int_Tables_number      2
_space_group_name_Hall           '-P 1'
loop_
_symmetry_equiv_pos_site_id
_symmetry_equiv_pos_as_xyz
1 x,y,z
2 -x,-y,-z
_cell_length_a                   18.235(6)
_cell_length_b                   18.430(6)
_cell_length_c                   18.665(6)
_cell_angle_alpha                81.839(7)
_cell_angle_beta                 81.775(6)
_cell_angle_gamma                80.742(7)
_cell_volume                     6081.78
loop_
_atom_site_label
_atom_site_type_symbol
_atom_site_fract_x
_atom_site_fract_y
_atom_site_fract_z
Rh1 Rh -0.25002(8) 0.64766(8) -1.03980(7)
Rh2 Rh -0.22764(8) 0.67401(8) -0.92215(7)
Rh3 Rh 0.12892(8) 0.71614(8) -1.05067(7)
Rh4 Rh 0.11013(8) 0.69018(8) -1.17094(7)
N1 N -0.3519(8) 0.6256(8) -0.9919(8)
N2 N -0.3346(7) 0.6680(7) -0.8851(7)
N3 N -0.2864(8) 0.7556(8) -1.0626(8)
N4 N -0.2526(7) 0.7821(8) -0.9579(8)
N5 N 0.2338(7) 0.7317(7) -1.0902(7)
N6 N 0.2194(8) 0.7049(8) -1.2023(8)
N7 N 0.0934(7) 0.8235(8) -1.0811(8)
N8 N 0.0760(8) 0.7982(8) -1.1949(8)
C1 C -0.3739(10) 0.6389(10) -0.9245(10)
H1 H -0.4209 0.6269 -0.9028
C2 C -0.2779(10) 0.8037(11) -1.0200(10)
H2 H -0.2904 0.8546 -1.0348
C3 C 0.2590(10) 0.7238(9) -1.1576(9)
H3 H 0.3083 0.7321 -1.1749
C4 C 0.0747(10) 0.8458(11) -1.1478(10)
H4 H 0.0602 0.8965 -1.1618
C5 C -0.1925(9) 0.5167(10) -0.9445(9)
C6 C -0.1651(9) 0.4381(10) -0.9265(9)
C7 C -0.1007(9) 0.6788(9) -1.0330(9)
C8 C -0.0208(9) 0.6870(8) -1.0625(8)
O1 O -0.1425(6) 0.6704(6) -1.0787(6)
O2 O -0.1170(6) 0.6772(6) -0.9647(6)
O3 O -0.2088(6) 0.5389(6) -1.0103(6)
O4 O -0.2006(6) 0.5610(6) -0.8956(6)
O5 O 0.0195(6) 0.6992(6) -1.0173(6)
O6 O 0.0000(6) 0.6769(6) -1.1285(6)
O7 O -0.1654(6) 0.3958(6) -0.9731(6)
O8 O -0.1458(6) 0.4211(6) -0.8626(6)
O9 O -0.5544(7) 0.5178(7) -1.1337(7)
O10 O -0.4202(13) 0.7048(13) -0.5913(13)
O11 O -0.2379(12) 0.9972(12) -0.7792(12)
O12 O 0.4467(9) 0.7736(9) -0.9191(8)
O13 O 0.3583(11) 0.6583(12) -1.4848(11)
O14 O 0.0715(7) 1.0430(7) -0.8976(7)
C9 C -0.4050(10) 0.6025(10) -1.0313(9)
C10 C -0.3828(10) 0.5365(10) -1.0660(9)
H5 H -0.3337 0.5111 -1.0663
C11 C -0.4353(10) 0.5112(10) -1.0990(9)
H6 H -0.4223 0.4675 -1.1213
C12 C -0.5074(10) 0.5501(10) -1.0995(10)
C13 C -0.5257(12) 0.6122(11) -1.0683(11)
H7 H -0.5740 0.6392 -1.0693
C14 C -0.4732(10) 0.6365(11) -1.0344(10)
H8 H -0.4875 0.6802 -1.0122
C15 C -0.6294(10) 0.5474(10) -1.1289(10)
H9 H -0.6557 0.5197 -1.1549
H10 H -0.6344 0.5988 -1.1502
H11 H -0.6507 0.5443 -1.0780
C16 C -0.3646(9) 0.6730(10) -0.8123(9)
C17 C -0.3661(12) 0.7391(13) -0.7889(12)
H12 H -0.3498 0.7784 -0.8220
C18 C -0.3928(12) 0.7514(14) -0.7119(13)
H13 H -0.4028 0.7983 -0.6954
C19 C -0.4012(12) 0.6857(14) -0.6676(13)
C20 C -0.4026(12) 0.6216(14) -0.6893(13)
H14 H -0.4164 0.5812 -0.6562
C21 C -0.3822(12) 0.6154(13) -0.7651(12)
H15 H -0.3813 0.5696 -0.7821
C22 C -0.4401(19) 0.649(2) -0.5471(19)
H16 H -0.4522 0.6626 -0.4981
H17 H -0.3994 0.6079 -0.5480
H18 H -0.4838 0.6341 -0.5621
C23 C -0.2978(11) 0.7846(11) -1.1349(11)
C24 C -0.2566(11) 0.8301(11) -1.1788(11)
H19 H -0.2188 0.8475 -1.1594
C25 C -0.2661(16) 0.8540(15) -1.2527(15)
H20 H -0.2321 0.8816 -1.2830
C26 C -0.3255(17) 0.8360(16) -1.2783(17)
C27 C -0.3749(18) 0.7952(16) -1.2369(17)
H21 H -0.4167 0.7855 -1.2561
C28 C -0.3619(13) 0.7654(13) -1.1589(13)
H22 H -0.3942 0.7361 -1.1284
O15 O -0.352(2) 0.863(2) -1.350(2)
C29 C -0.303(5) 0.918(4) -1.378(5)
H23 H -0.3146 0.9399 -1.4260
H24 H -0.2516 0.8937 -1.3810
H25 H -0.3106 0.9555 -1.3455
C30 C -0.2463(11) 0.8377(11) -0.9125(10)
C31 C -0.1857(12) 0.8318(12) -0.8771(11)
H26 H -0.1467 0.7926 -0.8851
C32 C -0.1779(12) 0.8812(12) -0.8289(11)
H27 H -0.1370 0.8738 -0.8019
C33 C -0.2295(13) 0.9366(13) -0.8237(12)
C34 C -0.2935(13) 0.9512(13) -0.8540(12)
H28 H -0.3307 0.9917 -0.8452
C35 C -0.2989(13) 0.8947(13) -0.9040(13)
H29 H -0.3408 0.9006 -0.9295
C36 C -0.1834(19) 0.9818(19) -0.7414(19)
H30 H -0.1855 1.0202 -0.7103
H31 H -0.1366 0.9789 -0.7737
H32 H -0.1866 0.9346 -0.7115
C37 C 0.2862(9) 0.7474(9) -1.0482(9)
C38 C 0.3267(10) 0.8056(11) -1.0693(11)
H33 H 0.3174 0.8379 -1.1118
C39 C 0.3835(11) 0.8177(11) -1.0269(11)
H34 H 0.4130 0.8557 -1.0424
C40 C 0.3919(12) 0.7741(12) -0.9667(12)
C41 C 0.3515(11) 0.7159(12) -0.9436(12)
H35 H 0.3601 0.6856 -0.8998
C42 C 0.2982(10) 0.7017(10) -0.9843(9)
H36 H 0.2710 0.6620 -0.9686
C43 C 0.4963(14) 0.8249(14) -0.9453(14)
H37 H 0.5322 0.8224 -0.9111
H38 H 0.5225 0.8135 -0.9923
H39 H 0.4684 0.8744 -0.9507
C44 C 0.2554(11) 0.6909(11) -1.2755(11)
C45 C 0.2579(11) 0.6232(11) -1.2982(11)
H40 H 0.2349 0.5867 -1.2667
C46 C 0.2927(12) 0.6064(13) -1.3657(12)
H41 H 0.2943 0.5597 -1.3809
C47 C 0.3248(13) 0.6619(14) -1.4088(14)
C48 C 0.3273(12) 0.7324(12) -1.3886(12)
H42 H 0.3540 0.7669 -1.4190
C49 C 0.2872(12) 0.7488(13) -1.3197(12)
H43 H 0.2824 0.7961 -1.3048
C50 C 0.3595(19) 0.590(2) -1.4983(19)
H44 H 0.3815 0.5847 -1.5482
H45 H 0.3891 0.5556 -1.4652
H46 H 0.3088 0.5778 -1.4915
C51 C 0.0902(9) 0.8797(9) -1.0348(9)
C52 C 0.0449(9) 0.8777(10) -0.9699(9)
H47 H 0.0160 0.8390 -0.9557
C53 C 0.0410(10) 0.9329(10) -0.9243(10)
H48 H 0.0107 0.9311 -0.8791
C54 C 0.0824(10) 0.9891(10) -0.9473(9)
C55 C 0.1301(11) 0.9909(11) -1.0114(10)
H49 H 0.1587 1.0297 -1.0261
C56 C 0.1349(9) 0.9340(9) -1.0536(9)
H50 H 0.1695 0.9327 -1.0960
C57 C 0.1104(10) 1.1079(10) -0.9219(10)
H51 H 0.0997 1.1412 -0.8847
H52 H 0.1639 1.0918 -0.9302
H53 H 0.0931 1.1334 -0.9669
C58 C 0.0472(10) 0.8255(10) -1.2630(10)
C59 C -0.0197(13) 0.8116(13) -1.2745(13)
H54 H -0.0482 0.7850 -1.2368
C60 C -0.0494(16) 0.8357(15) -1.3419(15)
H55 H -0.0970 0.8281 -1.3503
C61 C -0.0038(15) 0.8693(14) -1.3904(15)
C62 C 0.0628(15) 0.8912(14) -1.3820(15)
H56 H 0.0894 0.9211 -1.4183
C63 C 0.0862(13) 0.8655(12) -1.3166(12)
H57 H 0.1326 0.8763 -1.3080
O16 O -0.022(2) 0.901(2) -1.468(2)
C64 C -0.068(6) 0.909(6) -1.537(6)
H58 H -0.0474 0.9442 -1.5752
H59 H -0.0642 0.8616 -1.5540
H60 H -0.1202 0.9276 -1.5221
N9 N -0.2526(10) 0.6163(10) -1.1539(10)
N10 N -0.1974(11) 0.6788(11) -1.8058(12)
N11 N 0.1317(7) 0.7225(7) -0.9363(7)
N12 N 0.0864(8) 0.6614(8) -0.2776(9)
C65 C -0.2440(11) 0.6127(11) -1.1994(12)
C66 C -0.2373(15) 0.6254(15) -1.2834(15)
C67 C -0.2825(17) 0.5842(17) -1.3186(18)
C68 C -0.2737(17) 0.5930(17) -1.3944(18)
C69 C -0.2230(17) 0.6331(17) -1.4387(17)
C70 C -0.1827(19) 0.6752(19) -1.4057(19)
C71 C -0.1869(16) 0.6673(15) -1.3279(16)
C72 C -0.2141(15) 0.6455(18) -1.5205(17)
C73 C -0.2211(18) 0.715(2) -1.558(2)
C74 C -0.219(2) 0.721(2) -1.634(2)
C75 C -0.2034(15) 0.6549(18) -1.6734(17)
C76 C -0.1937(17) 0.5839(19) -1.6371(18)
C77 C -0.2084(19) 0.586(2) -1.557(2)
C78 C -0.1966(17) 0.6667(16) -1.7499(17)
C79 C 0.0834(11) 0.6578(11) -0.3353(12)
C80 C 0.0848(11) 0.6635(12) -0.4135(11)
C81 C 0.1240(11) 0.7097(12) -0.4579(12)
C82 C 0.1281(14) 0.7168(14) -0.5334(14)
C83 C 0.0908(13) 0.6669(13) -0.5612(13)
C84 C 0.0400(15) 0.6307(15) -0.5144(16)
C85 C 0.0350(15) 0.6274(15) -0.4426(16)
C86 C 0.0955(13) 0.6806(13) -0.6453(12)
C87 C 0.1554(19) 0.6430(18) -0.6843(19)
C88 C 0.1625(17) 0.6617(15) -0.7592(16)
C89 C 0.1095(13) 0.7008(12) -0.7962(12)
C90 C 0.0437(15) 0.7287(14) -0.7584(14)
C91 C 0.0360(16) 0.7164(15) -0.6832(16)
C92 C 0.1214(9) 0.7117(10) -0.8762(10)
F1 F -0.3254(11) 0.5382(13) -1.2815(9)
F2 F -0.3162(13) 0.5571(13) -1.4252(10)
F3 F -0.1301(12) 0.7119(11) -1.4467(9)
F4 F -0.1461(11) 0.6953(14) -1.2979(8)
F5 F -0.2403(16) 0.7719(11) -1.5265(10)
F6 F -0.2242(13) 0.7890(11) -1.6698(11)
F7 F -0.1786(10) 0.5315(8) -1.6650(6)
F8 F -0.1900(13) 0.5122(11) -1.5190(10)
F9 F 0.1655(9) 0.7495(8) -0.4311(7)
F10 F 0.1706(9) 0.7597(10) -0.5757(7)
F11 F -0.0016(14) 0.5937(14) -0.5443(8)
F12 F -0.0002(12) 0.5780(12) -0.4011(7)
F13 F 0.2113(9) 0.6057(18) -0.6488(8)
F14 F 0.2302(9) 0.6275(14) -0.7962(7)
F15 F -0.0081(9) 0.7674(9) -0.7918(7)
F16 F -0.0263(10) 0.7476(10) -0.6464(7)
N10_2 N -0.1974(11) 0.6788(11) -0.8058(12)
O7A O 0.1654(6) 0.6042(6) -1.0269(6)
O8A O 0.1458(6) 0.5789(6) -1.1374(6)
N12_2 N 0.0864(8) 0.6614(8) -1.2776(9)
Rh3A Rh -0.12892(8) 0.28386(8) -0.94933(7)
Rh4A Rh -0.11013(8) 0.30982(8) -0.82906(7)
Rh2_2 Rh -0.22764(8) 0.67401(8) -1.92215(7)
Rh4_2 Rh 0.11013(8) 0.69018(8) -0.17094(7)
C93 C -0.7672(17) 0.8765(17) -0.8827(17)
Cl1 Cl -0.7648(7) 0.8313(7) -0.8022(7)
Cl2 Cl -0.7165(7) 0.9553(7) -0.8982(7)
C94 C -0.4820(19) 0.416(2) -0.702(2)
Cl3 Cl -0.5314(13) 0.3299(13) -0.6652(14)
Cl4 Cl -0.5068(8) 0.4568(8) -0.6243(8)
C95 C -0.081(2) 0.007(2) -1.269(2)
Cl5 Cl -0.1529(9) 0.0312(9) -1.3348(9)
Cl6 Cl -0.0229(9) 0.0797(9) -1.2909(9)
C96 C -0.578(2) 0.719(2) -0.755(2)
Cl7 Cl -0.6183(9) 0.7488(11) -0.6671(9)
Cl8 Cl -0.5983(7) 0.6225(8) -0.7458(7)
C97 C -0.553(4) 0.016(4) -0.817(4)
Cl9 Cl -0.5278(13) -0.0774(13) -0.7700(13)
Cl10 Cl -0.5261(10) 0.0298(10) -0.8959(10)
O17? O -0.300(5) 0.840(3) -1.371(5)
C98? C -0.353(9) 0.825(10) -1.414(9)
H61? H -0.3320 0.8298 -1.4651
H62? H -0.3986 0.8604 -1.4080
H63? H -0.3649 0.7753 -1.3993
O18? O -0.933(3) 0.123(3) -0.541(3)
C99? C -0.010(6) 0.109(9) -0.495(10)
H64? H -0.0045 0.0998 -0.4437
H65? H -0.0269 0.0662 -0.5097
H66? H -0.0475 0.1522 -0.5038
C100? C -0.1421(17) 0.6533(16) -0.7765(16)
Cl11? Cl -0.498(2) 0.339(2) -0.717(2)
C101? C -0.631(12) 0.789(6) -0.778(5)
Cl12? Cl -0.611(5) 0.826(5) -0.699(6)
Cl13? Cl -0.643(5) 0.692(4) -0.742(4)
C102? C -0.387(2) 0.066(2) -0.672(3)
Cl14? Cl -0.4156(14) 0.1199(14) -0.7338(14)
Cl15? Cl -0.414(2) 0.983(2) -0.649(3)
C103? C -0.254(3) 0.098(3) -0.471(3)
Cl16? Cl -0.353(3) 0.113(6) -0.465(5)
Cl17? Cl -0.235(3) 0.034(3) -0.535(3)
C104? C -0.016(2) 0.558(2) -0.7608(19)
Cl18? Cl -0.935(2) 0.488(2) -0.762(2)
Cl19? Cl -0.073(3) 0.512(3) -0.806(3)
C105? C -0.933(6) 0.483(6) -0.857(6)
Cl20? Cl -0.8626(19) 0.5362(19) -0.8697(19)
Cl21? Cl -0.920(2) 0.406(3) -0.794(2)
C106? C -0.004(5) 0.560(5) -0.887(4)
Cl22? Cl -0.0086(19) 0.631(2) -0.864(2)
Cl23? Cl -0.996(2) 0.5067(19) -0.9732(15)
Cl24? Cl -0.968(2) 0.532(2) -0.898(2)
loop_
_geom_bond_atom_site_label_1
_geom_bond_atom_site_label_2
_geom_bond_site_symmetry_1
_geom_bond_site_symmetry_2
Rh1 Rh2 1_555 1_555
Rh2 N2 1_555 1_555
Rh3 Rh4 1_555 1_555
Rh4 N6 1_555 1_555
N1 Rh1 1_555 1_555
N2 C1 1_555 1_555
N3 Rh1 1_555 1_555
N4 Rh2 1_555 1_555
N5 Rh3 1_555 1_555
N6 C3 1_555 1_555
N7 Rh3 1_555 1_555
N8 Rh4 1_555 1_555
C1 N1 1_555 1_555
H1 C1 1_555 1_555
C2 N3 1_555 1_555
H2 C2 1_555 1_555
C3 N5 1_555 1_555
H3 C3 1_555 1_555
C4 N7 1_555 1_555
H4 C4 1_555 1_555
C5 C6 1_555 1_555
C6 O7 1_555 1_555
C7 C8 1_555 1_555
C8 O5 1_555 1_555
O1 Rh1 1_555 1_555
O2 Rh2 1_555 1_555
O3 Rh1 1_555 1_555
O4 Rh2 1_555 1_555
O5 Rh3 1_555 1_555
O6 Rh4 1_555 1_555
O7 Rh3A 1_555 1_555
O8 C6 1_555 1_555
O9 C12 1_555 1_555
O10 C19 1_555 1_555
O11 C33 1_555 1_555
O12 C40 1_555 1_555
O13 C47 1_555 1_555
O14 C54 1_555 1_555
C9 N1 1_555 1_555
C10 C9 1_555 1_555
H5 C10 1_555 1_555
C11 C10 1_555 1_555
H6 C11 1_555 1_555
C12 C11 1_555 1_555
C13 C12 1_555 1_555
H7 C13 1_555 1_555
C14 C9 1_555 1_555
H8 C14 1_555 1_555
C15 O9 1_555 1_555
H9 C15 1_555 1_555
H10 C15 1_555 1_555
H11 C15 1_555 1_555
C16 N2 1_555 1_555
C17 C16 1_555 1_555
H12 C17 1_555 1_555
C18 C17 1_555 1_555
H13 C18 1_555 1_555
C19 C18 1_555 1_555
C20 C19 1_555 1_555
H14 C20 1_555 1_555
C21 C16 1_555 1_555
H15 C21 1_555 1_555
C22 O10 1_555 1_555
H16 C22 1_555 1_555
H17 C22 1_555 1_555
H18 C22 1_555 1_555
C23 N3 1_555 1_555
C24 C23 1_555 1_555
H19 C24 1_555 1_555
C25 C24 1_555 1_555
H20 C25 1_555 1_555
C26 C25 1_555 1_555
C27 C26 1_555 1_555
H21 C27 1_555 1_555
C28 C23 1_555 1_555
H22 C28 1_555 1_555
O15 C26 1_555 1_555
C29 O15 1_555 1_555
H23 C29 1_555 1_555
H24 C29 1_555 1_555
H25 C29 1_555 1_555
C30 N4 1_555 1_555
C31 C30 1_555 1_555
H26 C31 1_555 1_555
C32 C31 1_555 1_555
H27 C32 1_555 1_555
C33 C32 1_555 1_555
C34 C33 1_555 1_555
H28 C34 1_555 1_555
C35 C30 1_555 1_555
H29 C35 1_555 1_555
C36 O11 1_555 1_555
H30 C36 1_555 1_555
H31 C36 1_555 1_555
H32 C36 1_555 1_555
C37 N5 1_555 1_555
C38 C37 1_555 1_555
H33 C38 1_555 1_555
C39 C38 1_555 1_555
H34 C39 1_555 1_555
C40 C39 1_555 1_555
C41 C40 1_555 1_555
H35 C41 1_555 1_555
C42 C37 1_555 1_555
H36 C42 1_555 1_555
C43 O12 1_555 1_555
H37 C43 1_555 1_555
H38 C43 1_555 1_555
H39 C43 1_555 1_555
C44 N6 1_555 1_555
C45 C44 1_555 1_555
H40 C45 1_555 1_555
C46 C45 1_555 1_555
H41 C46 1_555 1_555
C47 C46 1_555 1_555
C48 C47 1_555 1_555
H42 C48 1_555 1_555
C49 C44 1_555 1_555
H43 C49 1_555 1_555
C50 O13 1_555 1_555
H44 C50 1_555 1_555
H45 C50 1_555 1_555
H46 C50 1_555 1_555
C51 N7 1_555 1_555
C52 C51 1_555 1_555
H47 C52 1_555 1_555
C53 C52 1_555 1_555
H48 C53 1_555 1_555
C54 C53 1_555 1_555
C55 C54 1_555 1_555
H49 C55 1_555 1_555
C56 C51 1_555 1_555
H50 C56 1_555 1_555
C57 O14 1_555 1_555
H51 C57 1_555 1_555
H52 C57 1_555 1_555
H53 C57 1_555 1_555
C58 N8 1_555 1_555
C59 C58 1_555 1_555
H54 C59 1_555 1_555
C60 C59 1_555 1_555
H55 C60 1_555 1_555
C61 C60 1_555 1_555
C62 C61 1_555 1_555
H56 C62 1_555 1_555
C63 C58 1_555 1_555
H57 C63 1_555 1_555
O16 C61 1_555 1_555
C64 O16 1_555 1_555
H58 C64 1_555 1_555
H59 C64 1_555 1_555
H60 C64 1_555 1_555
N9 Rh1 1_555 1_555
N10 C78 1_555 1_555
N11 Rh3 1_555 1_555
N12 C79 1_555 1_555
C65 N9 1_555 1_555
C66 C65 1_555 1_555
C67 C66 1_555 1_555
C68 C67 1_555 1_555
C69 C68 1_555 1_555
C70 C69 1_555 1_555
C71 C66 1_555 1_555
C72 C69 1_555 1_555
C73 C72 1_555 1_555
C74 C73 1_555 1_555
C75 C74 1_555 1_555
C76 C75 1_555 1_555
C77 C72 1_555 1_555
C78 C75 1_555 1_555
C79 C80 1_555 1_555
C80 C81 1_555 1_555
C81 C82 1_555 1_555
C82 C83 1_555 1_555
C83 C84 1_555 1_555
C84 C85 1_555 1_555
C85 C80 1_555 1_555
C86 C83 1_555 1_555
C87 C86 1_555 1_555
C88 C87 1_555 1_555
C89 C88 1_555 1_555
C90 C89 1_555 1_555
C91 C86 1_555 1_555
C92 N11 1_555 1_555
F1 C67 1_555 1_555
F2 C68 1_555 1_555
F3 C70 1_555 1_555
F4 C71 1_555 1_555
F5 C73 1_555 1_555
F6 C74 1_555 1_555
F7 C76 1_555 1_555
F8 C77 1_555 1_555
F9 C81 1_555 1_555
F10 C82 1_555 1_555
F11 C84 1_555 1_555
F12 C85 1_555 1_555
F13 C87 1_555 1_555
F14 C88 1_555 1_555
F15 C90 1_555 1_555
F16 C91 1_555 1_555
C93 Cl1 1_555 1_555
Cl2 C93 1_555 1_555
C94 Cl3 1_555 1_555
Cl4 C94 1_555 1_555
C95 Cl5 1_555 1_555
Cl6 C95 1_555 1_555
C96 Cl7 1_555 1_555
Cl8 C96 1_555 1_555
C97 Cl9 1_555 1_555
Cl10 C97 1_555 1_555
N10_2 Rh2 1_555 1_555
O7A Rh3 1_555 1_555
O8A Rh4 1_555 1_555
N12_2 Rh4 1_555 1_555
Rh3A Rh4A 1_555 1_555
Rh4A O8 1_555 1_555
Rh2_2 N10 1_555 1_555
Rh4_2 N12 1_555 1_555
N4 C2 1_555 1_555
N8 C4 1_555 1_555
C5 O3 1_555 1_555
C5 O4 1_555 1_555
C7 O1 1_555 1_555
C7 O2 1_555 1_555
C8 O6 1_555 1_555
C13 C14 1_555 1_555
C20 C21 1_555 1_555
C27 C28 1_555 1_555
C34 C35 1_555 1_555
C41 C42 1_555 1_555
C48 C49 1_555 1_555
C55 C56 1_555 1_555
C62 C63 1_555 1_555
C70 C71 1_555 1_555
C76 C77 1_555 1_555
C89 C92 1_555 1_555
C90 C91 1_555 1_555

#END
