
#######################################################################
#
#                 Cambridge Crystallographic Data Centre
#                                CCDC 
#
#######################################################################
#
# If this CIF has been generated from an entry in the Cambridge 
# Structural Database, then it will include bibliographic, chemical, 
# crystal, experimental, refinement or atomic coordinate data resulting 
# from the CCDC's data processing and validation procedures.
#
#######################################################################

data_QATCOF
_symmetry_cell_setting           monoclinic
_symmetry_space_group_name_H-M   'P 21/c'
_symmetry_Int_Tables_number      14
_space_group_name_Hall           '-P 2ybc'
loop_
_symmetry_equiv_pos_site_id
_symmetry_equiv_pos_as_xyz
1 x,y,z
2 -x,1/2+y,1/2-z
3 -x,-y,-z
4 x,1/2-y,1/2+z
_cell_length_a                   20.956(4)
_cell_length_b                   11.688(2)
_cell_length_c                   23.445(5)
_cell_angle_alpha                90
_cell_angle_beta                 92.82(3)
_cell_angle_gamma                90
_cell_volume                     5735.52
loop_
_atom_site_label
_atom_site_type_symbol
_atom_site_fract_x
_atom_site_fract_y
_atom_site_fract_z
Ag1 Ag 0.541387(14) 0.62731(2) 0.017231(13)
Ag2 Ag 0.358362(15) 0.39764(3) 0.067444(15)
Cl1 Cl 0.46770(5) 0.51242(8) 0.07995(4)
Cl2 Cl 0.66762(5) 0.57693(8) 0.03479(4)
Cl3 Cl 0.32335(5) 0.32785(8) 0.15746(4)
N1 N 0.56441(14) 0.8188(2) 0.05282(13)
N2 N 0.60903(15) 0.7812(3) 0.14348(14)
N3 N 0.67013(15) 0.8761(3) 0.07764(14)
N4 N 0.48036(14) 0.7764(2) -0.03324(13)
N5 N 0.37177(15) 0.7378(3) -0.04658(14)
N6 N 0.43859(16) 0.7125(3) -0.12176(14)
C1 C 0.53670(16) 0.9097(3) 0.02843(15)
C2 C 0.48731(16) 0.8847(3) -0.01878(16)
C3 C 0.54606(16) 1.0240(3) 0.04470(16)
H1 H 0.5760 1.0399 0.0742
C4 C 0.61527(18) 0.8286(3) 0.09206(16)
C5 C 0.5450(2) 0.7568(4) 0.16309(18)
H2 H 0.5154 0.8129 0.1477
H3 H 0.5459 0.7596 0.2040
H4 H 0.5318 0.6821 0.1504
C6 C 0.6611(2) 0.7231(4) 0.17571(19)
H5 H 0.6983 0.7214 0.1534
H6 H 0.6484 0.6463 0.1842
H7 H 0.6707 0.7636 0.2107
C7 C 0.71755(19) 0.9216(4) 0.11965(19)
H8 H 0.6994 0.9249 0.1564
H9 H 0.7299 0.9971 0.1084
H10 H 0.7544 0.8727 0.1216
C8 C 0.68189(19) 0.8992(4) 0.01802(18)
H11 H 0.6600 0.8434 -0.0058
H12 H 0.7269 0.8950 0.0125
H13 H 0.6665 0.9742 0.0080
C9 C 0.42928(18) 0.7433(3) -0.06850(17)
C10 C 0.36506(18) 0.7397(4) 0.01525(17)
H14 H 0.4028 0.7082 0.0341
H15 H 0.3286 0.6949 0.0246
H16 H 0.3594 0.8171 0.0276
C11 C 0.31158(18) 0.7439(4) -0.08144(18)
H17 H 0.3203 0.7681 -0.1194
H18 H 0.2834 0.7978 -0.0647
H19 H 0.2918 0.6698 -0.0829
C12 C 0.49729(19) 0.7452(4) -0.14936(18)
H20 H 0.5155 0.8116 -0.1308
H21 H 0.4874 0.7621 -0.1889
H22 H 0.5273 0.6832 -0.1465
C13 C 0.4018(2) 0.6227(4) -0.15231(19)
H23 H 0.3764 0.5823 -0.1260
H24 H 0.4306 0.5703 -0.1693
H25 H 0.3745 0.6568 -0.1816
Ag1B Ag 0.458613(14) 0.37269(2) -0.017231(13)
Ag1B_2 Ag 0.458613(14) 1.37269(2) -0.017231(13)
Ag2B Ag 0.641638(15) 0.60236(3) -0.067444(15)
Cl1B Cl 0.53230(5) 0.48758(8) -0.07995(4)
Cl2B Cl 0.33238(5) 0.42307(8) -0.03479(4)
Cl3B Cl 0.67665(5) 0.67215(8) -0.15746(4)
N1B N 0.43559(14) 1.1812(2) -0.05282(13)
N1B_2 N 0.43559(14) 0.1812(2) -0.05282(13)
N2B N 0.39097(15) 1.2188(3) -0.14348(14)
N3B N 0.32987(15) 1.1239(3) -0.07764(14)
N4B N 0.51964(14) 1.2236(2) 0.03324(13)
N4B_2 N 0.51964(14) 0.2236(2) 0.03324(13)
N5B N 0.62823(15) 1.2622(3) 0.04658(14)
N6B N 0.56141(16) 1.2875(3) 0.12176(14)
C1B C 0.46330(16) 1.0903(3) -0.02843(15)
C2B C 0.51269(16) 1.1153(3) 0.01878(16)
C3B C 0.45394(16) 0.9760(3) -0.04470(16)
H1B H 0.4240 0.9601 -0.0742
C4B C 0.38473(18) 1.1714(3) -0.09206(16)
C5B C 0.4550(2) 1.2432(4) -0.16309(18)
H2B H 0.4846 1.1871 -0.1477
H3B H 0.4541 1.2404 -0.2040
H4B H 0.4682 1.3179 -0.1504
C6B C 0.3389(2) 1.2769(4) -0.17571(19)
H5B H 0.3017 1.2786 -0.1534
H6B H 0.3516 1.3537 -0.1842
H7B H 0.3293 1.2364 -0.2107
C7B C 0.28245(19) 1.0784(4) -0.11965(19)
H8B H 0.3006 1.0751 -0.1564
H9B H 0.2701 1.0029 -0.1084
H10B H 0.2456 1.1273 -0.1216
C8B C 0.31811(19) 1.1008(4) -0.01802(18)
H11B H 0.3400 1.1566 0.0058
H12B H 0.2731 1.1050 -0.0125
H13B H 0.3335 1.0258 -0.0080
C9B C 0.57072(18) 1.2567(3) 0.06850(17)
C10B C 0.63494(18) 1.2603(4) -0.01525(17)
H14B H 0.5972 1.2918 -0.0341
H15B H 0.6714 1.3051 -0.0246
H16B H 0.6406 1.1829 -0.0276
C11B C 0.68842(18) 1.2561(4) 0.08144(18)
H17B H 0.6797 1.2319 0.1194
H18B H 0.7166 1.2022 0.0647
H19B H 0.7082 1.3302 0.0829
C12B C 0.50271(19) 1.2548(4) 0.14936(18)
H20B H 0.4845 1.1884 0.1308
H21B H 0.5126 1.2379 0.1889
H22B H 0.4727 1.3168 0.1465
C13B C 0.5982(2) 1.3773(4) 0.15231(19)
H23B H 0.6236 1.4177 0.1260
H24B H 0.5694 1.4297 0.1693
H25B H 0.6255 1.3432 0.1816
Ag3 Ag 0.044822(13) 0.87199(2) 0.014950(13)
Ag4 Ag 0.140119(16) 0.89926(3) -0.074414(14)
Cl4 Cl 0.17403(5) 0.92141(9) 0.02601(4)
Cl5 Cl 0.02955(5) 1.01311(8) -0.07819(4)
Cl6 Cl 0.17026(5) 0.82323(8) -0.16413(5)
N7 N 0.06846(14) 0.6816(2) 0.04882(13)
N8 N 0.17481(14) 0.6205(3) 0.06703(14)
N9 N 0.12144(15) 0.7224(3) 0.13524(13)
N10 N -0.02177(14) 0.7231(3) -0.03197(13)
N11 N -0.07032(15) 0.7935(3) -0.11692(14)
N12 N -0.13072(15) 0.7630(3) -0.03764(14)
C14 C 0.03963(16) 0.5897(3) 0.02584(15)
C15 C -0.01408(16) 0.6153(3) -0.01748(15)
C16 C 0.05099(16) 0.4766(3) 0.04092(15)
H26 H 0.0842 0.4603 0.0675
C17 C 0.12192(17) 0.6721(3) 0.08433(16)
C18 C 0.18269(18) 0.5969(3) 0.00677(17)
H27 H 0.1609 0.6545 -0.0160
H28 H 0.1650 0.5232 -0.0027
H29 H 0.2273 0.5976 -0.0007
C19 C 0.22293(18) 0.5691(4) 0.10625(18)
H30 H 0.2074 0.5679 0.1441
H31 H 0.2615 0.6133 0.1062
H32 H 0.2315 0.4923 0.0943
C20 C 0.06082(19) 0.7517(4) 0.16010(18)
H33 H 0.0288 0.6972 0.1478
H34 H 0.0478 0.8269 0.1478
H35 H 0.0661 0.7502 0.2010
C21 C 0.1776(2) 0.7780(4) 0.16297(18)
H36 H 0.2125 0.7751 0.1380
H37 H 0.1893 0.7388 0.1979
H38 H 0.1677 0.8563 0.1711
C22 C -0.07536(17) 0.7585(3) -0.06382(16)
C23 C -0.1085(2) 0.8878(3) -0.14187(18)
H39 H -0.1301 0.9266 -0.1123
H40 H -0.1395 0.8579 -0.1695
H41 H -0.0810 0.9406 -0.1602
C24 C -0.01437(19) 0.7624(4) -0.14839(16)
H42 H 0.0026 0.6910 -0.1342
H43 H 0.0176 0.8209 -0.1434
H44 H -0.0265 0.7550 -0.1882
C25 C -0.13362(18) 0.7600(3) 0.02418(16)
H45 H -0.0919 0.7747 0.0414
H46 H -0.1480 0.6860 0.0358
H47 H -0.1629 0.8174 0.0362
C26 C -0.19311(17) 0.7623(4) -0.06929(18)
H48 H -0.1880 0.7345 -0.1073
H49 H -0.2100 0.8386 -0.0710
H50 H -0.2220 0.7133 -0.0502
Ag3B Ag -0.044822(13) 1.12801(2) -0.014950(13)
Ag3B_2 Ag -0.044822(13) 0.12801(2) -0.014950(13)
Ag4B Ag -0.140119(16) 1.10074(3) 0.074414(14)
Cl4B Cl -0.17403(5) 1.07859(9) -0.02601(4)
Cl5B Cl -0.02955(5) 0.98689(8) 0.07819(4)
Cl6B Cl -0.17026(5) 1.17677(8) 0.16413(5)
N7B N -0.06846(14) 0.3184(2) -0.04882(13)
N7B_2 N -0.06846(14) 1.3184(2) -0.04882(13)
N8B N -0.17481(14) 0.3795(3) -0.06703(14)
N9B N -0.12144(15) 0.2776(3) -0.13524(13)
N10B N 0.02177(14) 0.2769(3) 0.03197(13)
N10B_2 N 0.02177(14) 1.2769(3) 0.03197(13)
N11B N 0.07032(15) 0.2065(3) 0.11692(14)
N12B N 0.13072(15) 0.2370(3) 0.03764(14)
C14B C -0.03963(16) 0.4103(3) -0.02584(15)
C15B C 0.01408(16) 0.3847(3) 0.01748(15)
C16B C -0.05099(16) 0.5234(3) -0.04092(15)
H26B H -0.0842 0.5397 -0.0675
C17B C -0.12192(17) 0.3279(3) -0.08433(16)
C18B C -0.18269(18) 0.4031(3) -0.00677(17)
H27B H -0.1609 0.3455 0.0160
H28B H -0.1650 0.4768 0.0027
H29B H -0.2273 0.4024 0.0007
C19B C -0.22293(18) 0.4309(4) -0.10625(18)
H30B H -0.2074 0.4321 -0.1441
H31B H -0.2615 0.3867 -0.1062
H32B H -0.2315 0.5077 -0.0943
C20B C -0.06082(19) 0.2483(4) -0.16010(18)
H33B H -0.0288 0.3028 -0.1478
H34B H -0.0478 0.1731 -0.1478
H35B H -0.0661 0.2498 -0.2010
C21B C -0.1776(2) 0.2220(4) -0.16297(18)
H36B H -0.2125 0.2249 -0.1380
H37B H -0.1893 0.2612 -0.1979
H38B H -0.1677 0.1437 -0.1711
C22B C 0.07536(17) 0.2415(3) 0.06382(16)
C23B C 0.1085(2) 0.1122(3) 0.14187(18)
H39B H 0.1301 0.0734 0.1123
H40B H 0.1395 0.1421 0.1695
H41B H 0.0810 0.0594 0.1602
C24B C 0.01437(19) 0.2376(4) 0.14839(16)
H42B H -0.0026 0.3090 0.1342
H43B H -0.0176 0.1791 0.1434
H44B H 0.0265 0.2450 0.1882
C25B C 0.13362(18) 0.2400(3) -0.02418(16)
H45B H 0.0919 0.2253 -0.0414
H46B H 0.1480 0.3140 -0.0358
H47B H 0.1629 0.1826 -0.0362
C26B C 0.19311(17) 0.2377(4) 0.06929(18)
H48B H 0.1880 0.2655 0.1073
H49B H 0.2100 0.1614 0.0710
H50B H 0.2220 0.2867 0.0502
Cl7 Cl 0.18270(9) 0.38390(13) 0.22849(6)
Cl8 Cl 0.10507(6) 0.29582(11) 0.31504(6)
Cl9 Cl 0.05416(10) 0.47517(13) 0.24246(9)
C27 C 0.1233(2) 0.4180(4) 0.2767(2)
H51 H 0.1409 0.4752 0.3037
Cl10 Cl 0.38535(6) 0.70790(11) 0.18395(6)
Cl11 Cl 0.29768(6) 0.61847(10) 0.26293(5)
Cl12 Cl 0.42585(7) 0.52660(12) 0.26264(8)
C28 C 0.3617(2) 0.5857(4) 0.2205(2)
H52 H 0.3472 0.5283 0.1922
Cl13 Cl 0.07370(5) 1.01208(10) 0.38253(5)
Cl14 Cl 0.21025(5) 1.02364(9) 0.37086(5)
Cl15 Cl 0.12373(6) 0.99162(12) 0.27078(5)
C29 C 0.1388(2) 0.9610(4) 0.34345(17)
H53 H 0.1419 0.8778 0.3482
Cl16 Cl 0.28396(6) -0.00623(13) 0.23108(6)
Cl17 Cl 0.41536(6) 0.01273(13) 0.20445(8)
Cl18 Cl 0.31402(10) -0.02331(12) 0.11511(6)
C30 C 0.3372(2) 0.0413(4) 0.1794(2)
H54 H 0.3323 0.1243 0.1749
loop_
_geom_bond_atom_site_label_1
_geom_bond_atom_site_label_2
_geom_bond_site_symmetry_1
_geom_bond_site_symmetry_2
Ag1 Cl1 1_555 1_555
Ag2 Cl1 1_555 1_555
Cl1 Ag1B 1_555 1_555
Cl2 Ag1 1_555 1_555
Cl3 Ag2 1_555 1_555
N1 Ag1 1_555 1_555
N2 C4 1_555 1_555
N3 C4 1_555 1_555
N4 Ag1 1_555 1_555
N5 C9 1_555 1_555
N6 C9 1_555 1_555
C1 N1 1_555 1_555
C2 N4 1_555 1_555
C3 C1 1_555 1_555
H1 C3 1_555 1_555
C4 N1 1_555 1_555
C5 N2 1_555 1_555
H2 C5 1_555 1_555
H3 C5 1_555 1_555
H4 C5 1_555 1_555
C6 N2 1_555 1_555
H5 C6 1_555 1_555
H6 C6 1_555 1_555
H7 C6 1_555 1_555
C7 N3 1_555 1_555
H8 C7 1_555 1_555
H9 C7 1_555 1_555
H10 C7 1_555 1_555
C8 N3 1_555 1_555
H11 C8 1_555 1_555
H12 C8 1_555 1_555
H13 C8 1_555 1_555
C9 N4 1_555 1_555
C10 N5 1_555 1_555
H14 C10 1_555 1_555
H15 C10 1_555 1_555
H16 C10 1_555 1_555
C11 N5 1_555 1_555
H17 C11 1_555 1_555
H18 C11 1_555 1_555
H19 C11 1_555 1_555
C12 N6 1_555 1_555
H20 C12 1_555 1_555
H21 C12 1_555 1_555
H22 C12 1_555 1_555
C13 N6 1_555 1_555
H23 C13 1_555 1_555
H24 C13 1_555 1_555
H25 C13 1_555 1_555
Ag3 Cl4 1_555 1_555
Ag4 Cl4 1_555 1_555
Cl5 Ag3 1_555 1_555
Cl6 Ag4 1_555 1_555
N7 Ag3 1_555 1_555
N8 C17 1_555 1_555
N9 C17 1_555 1_555
N10 Ag3 1_555 1_555
N11 C22 1_555 1_555
N12 C22 1_555 1_555
C14 N7 1_555 1_555
C15 N10 1_555 1_555
C16 C14 1_555 1_555
H26 C16 1_555 1_555
C17 N7 1_555 1_555
C18 N8 1_555 1_555
H27 C18 1_555 1_555
H28 C18 1_555 1_555
H29 C18 1_555 1_555
C19 N8 1_555 1_555
H30 C19 1_555 1_555
H31 C19 1_555 1_555
H32 C19 1_555 1_555
C20 N9 1_555 1_555
H33 C20 1_555 1_555
H34 C20 1_555 1_555
H35 C20 1_555 1_555
C21 N9 1_555 1_555
H36 C21 1_555 1_555
H37 C21 1_555 1_555
H38 C21 1_555 1_555
C22 N10 1_555 1_555
C23 N11 1_555 1_555
H39 C23 1_555 1_555
H40 C23 1_555 1_555
H41 C23 1_555 1_555
C24 N11 1_555 1_555
H42 C24 1_555 1_555
H43 C24 1_555 1_555
H44 C24 1_555 1_555
C25 N12 1_555 1_555
H45 C25 1_555 1_555
H46 C25 1_555 1_555
H47 C25 1_555 1_555
C26 N12 1_555 1_555
H48 C26 1_555 1_555
H49 C26 1_555 1_555
H50 C26 1_555 1_555
Cl7 C27 1_555 1_555
Cl8 C27 1_555 1_555
Cl9 C27 1_555 1_555
C27 H51 1_555 1_555
Cl10 C28 1_555 1_555
Cl11 C28 1_555 1_555
Cl12 C28 1_555 1_555
C28 H52 1_555 1_555
Cl13 C29 1_555 1_555
Cl14 C29 1_555 1_555
Cl15 C29 1_555 1_555
C29 H53 1_555 1_555
Cl16 C30 1_555 1_555
Cl17 C30 1_555 1_555
Cl18 C30 1_555 1_555
C30 H54 1_555 1_555
Ag1B Cl1B 1_555 1_555
Ag1B_2 N1B 1_555 1_555
Ag2B Cl2 1_555 1_555
Cl1B Ag1 1_555 1_555
Cl2B Ag2 1_555 1_555
Cl3B Ag2B 1_555 1_555
N1B C1B 1_555 1_555
N1B_2 Ag1B 1_555 1_555
N2B C4B 1_555 1_555
N3B C4B 1_555 1_555
N4B Ag1B_2 1_555 1_555
N4B_2 Ag1B 1_555 1_555
N5B C9B 1_555 1_555
N6B C9B 1_555 1_555
C1B C2B 1_555 1_555
C2B C3 1_555 1_555
C3B C2 1_555 1_555
H1B C3B 1_555 1_555
C4B N1B 1_555 1_555
C5B N2B 1_555 1_555
H2B C5B 1_555 1_555
H3B C5B 1_555 1_555
H4B C5B 1_555 1_555
C6B N2B 1_555 1_555
H5B C6B 1_555 1_555
H6B C6B 1_555 1_555
H7B C6B 1_555 1_555
C7B N3B 1_555 1_555
H8B C7B 1_555 1_555
H9B C7B 1_555 1_555
H10B C7B 1_555 1_555
C8B N3B 1_555 1_555
H11B C8B 1_555 1_555
H12B C8B 1_555 1_555
H13B C8B 1_555 1_555
C9B N4B 1_555 1_555
C10B N5B 1_555 1_555
H14B C10B 1_555 1_555
H15B C10B 1_555 1_555
H16B C10B 1_555 1_555
C11B N5B 1_555 1_555
H17B C11B 1_555 1_555
H18B C11B 1_555 1_555
H19B C11B 1_555 1_555
C12B N6B 1_555 1_555
H20B C12B 1_555 1_555
H21B C12B 1_555 1_555
H22B C12B 1_555 1_555
C13B N6B 1_555 1_555
H23B C13B 1_555 1_555
H24B C13B 1_555 1_555
H25B C13B 1_555 1_555
Ag3B Cl5 1_555 1_555
Ag3B_2 N7B 1_555 1_555
Ag4B Cl4B 1_555 1_555
Cl4B Ag3B 1_555 1_555
Cl5B Ag3 1_555 1_555
Cl6B Ag4B 1_555 1_555
N7B C14B 1_555 1_555
N7B_2 Ag3B 1_555 1_555
N8B C17B 1_555 1_555
N9B C17B 1_555 1_555
N10B Ag3B_2 1_555 1_555
N10B_2 Ag3B 1_555 1_555
N11B C22B 1_555 1_555
N12B C22B 1_555 1_555
C14B C15B 1_555 1_555
C15B C16 1_555 1_555
C16B C15 1_555 1_555
H26B C16B 1_555 1_555
C17B N7B 1_555 1_555
C18B N8B 1_555 1_555
H27B C18B 1_555 1_555
H28B C18B 1_555 1_555
H29B C18B 1_555 1_555
C19B N8B 1_555 1_555
H30B C19B 1_555 1_555
H31B C19B 1_555 1_555
H32B C19B 1_555 1_555
C20B N9B 1_555 1_555
H33B C20B 1_555 1_555
H34B C20B 1_555 1_555
H35B C20B 1_555 1_555
C21B N9B 1_555 1_555
H36B C21B 1_555 1_555
H37B C21B 1_555 1_555
H38B C21B 1_555 1_555
C22B N10B 1_555 1_555
C23B N11B 1_555 1_555
H39B C23B 1_555 1_555
H40B C23B 1_555 1_555
H41B C23B 1_555 1_555
C24B N11B 1_555 1_555
H42B C24B 1_555 1_555
H43B C24B 1_555 1_555
H44B C24B 1_555 1_555
C25B N12B 1_555 1_555
H45B C25B 1_555 1_555
H46B C25B 1_555 1_555
H47B C25B 1_555 1_555
C26B N12B 1_555 1_555
H48B C26B 1_555 1_555
H49B C26B 1_555 1_555
H50B C26B 1_555 1_555
C1 C2 1_555 1_555
Ag4 Cl5 1_555 1_555
C14 C15 1_555 1_555
Ag1B Cl2B 1_555 1_555
Ag2B Cl1B 1_555 1_555
N4B C2B 1_555 1_555
C1B C3B 1_555 1_555
Ag3B Cl5B 1_555 1_555
Ag4B Cl5B 1_555 1_555
N10B C15B 1_555 1_555
C14B C16B 1_555 1_555

#END
