
#######################################################################
#
#                 Cambridge Crystallographic Data Centre
#                                CCDC 
#
#######################################################################
#
# If this CIF has been generated from an entry in the Cambridge 
# Structural Database, then it will include bibliographic, chemical, 
# crystal, experimental, refinement or atomic coordinate data resulting 
# from the CCDC's data processing and validation procedures.
#
#######################################################################

data_QATCIZ
_symmetry_cell_setting           monoclinic
_symmetry_space_group_name_H-M   'P 21/n'
_symmetry_Int_Tables_number      14
_space_group_name_Hall           '-P 2yn'
loop_
_symmetry_equiv_pos_site_id
_symmetry_equiv_pos_as_xyz
1 x,y,z
2 1/2-x,1/2+y,1/2-z
3 -x,-y,-z
4 1/2+x,1/2-y,1/2+z
_cell_length_a                   11.727(2)
_cell_length_b                   19.456(4)
_cell_length_c                   12.991(3)
_cell_angle_alpha                90
_cell_angle_beta                 94.21(3)
_cell_angle_gamma                90
_cell_volume                     2956.04
loop_
_atom_site_label
_atom_site_type_symbol
_atom_site_fract_x
_atom_site_fract_y
_atom_site_fract_z
I1 I 0.22511(4) 0.25108(2) 0.05451(3)
I2 I 0.58435(4) 0.17540(2) -0.07296(3)
I3 I 0.21096(3) 0.03771(2) -0.10581(3)
I4 I 0.44651(3) 0.04752(2) 0.17267(3)
Ag1 Ag 0.44147(4) 0.27717(2) -0.00838(4)
Ag2 Ag 0.35763(4) 0.13459(3) 0.00467(4)
Ag3 Ag 0.60540(4) 0.03861(3) 0.01130(4)
N1 N 0.4903(4) 0.3737(2) 0.1004(4)
N2 N 0.3870(4) 0.3901(3) 0.2484(4)
N3 N 0.5344(4) 0.3124(3) 0.2483(4)
N4 N 0.4686(4) 0.3786(2) -0.1042(4)
N5 N 0.5722(4) 0.3806(3) -0.2517(4)
N6 N 0.3744(4) 0.3673(3) -0.2659(4)
C1 C 0.4929(5) 0.4367(3) 0.0579(4)
C2 C 0.4850(4) 0.4380(3) -0.0574(4)
C3 C 0.5073(5) 0.4980(3) 0.1097(4)
H1 H 0.5122 0.4977 0.1814
C4 C 0.4700(5) 0.3609(3) 0.1989(4)
C5 C 0.2896(5) 0.4240(3) 0.1939(5)
H2 H 0.2890 0.4140 0.1215
H3 H 0.2956 0.4728 0.2042
H4 H 0.2201 0.4077 0.2200
C6 C 0.3889(5) 0.3922(3) 0.3617(5)
H5 H 0.3429 0.3555 0.3854
H6 H 0.3590 0.4355 0.3829
H7 H 0.4662 0.3871 0.3906
C7 C 0.4851(6) 0.2576(3) 0.3095(5)
H8 H 0.4042 0.2646 0.3106
H9 H 0.5197 0.2588 0.3788
H10 H 0.4993 0.2138 0.2790
C8 C 0.6472(6) 0.2967(4) 0.2117(5)
H11 H 0.6403 0.2590 0.1640
H12 H 0.6992 0.2845 0.2693
H13 H 0.6756 0.3363 0.1778
C9 C 0.4709(5) 0.3768(3) -0.2108(4)
C10 C 0.6788(5) 0.3685(3) -0.1875(5)
H14 H 0.7006 0.4097 -0.1505
H15 H 0.7383 0.3556 -0.2307
H16 H 0.6673 0.3322 -0.1392
C11 C 0.5854(5) 0.4112(3) -0.3535(5)
H17 H 0.5183 0.4374 -0.3745
H18 H 0.5955 0.3754 -0.4028
H19 H 0.6510 0.4409 -0.3496
C12 C 0.2646(5) 0.3779(3) -0.2189(5)
H20 H 0.2442 0.3367 -0.1840
H21 H 0.2060 0.3888 -0.2719
H22 H 0.2724 0.4151 -0.1703
C13 C 0.3672(6) 0.3365(3) -0.3704(5)
H23 H 0.3567 0.3722 -0.4211
H24 H 0.3037 0.3053 -0.3773
H25 H 0.4366 0.3120 -0.3804
I1B I 0.77489(4) 0.74892(2) -0.05451(3)
I2B I 0.41565(4) 0.82460(2) 0.07296(3)
I3B I 0.78904(3) -0.03771(2) 0.10581(3)
I3B_2 I 0.78904(3) 0.96229(2) 0.10581(3)
I3_2 I 0.21096(3) 1.03771(2) -0.10581(3)
I4B I 0.55349(3) -0.04752(2) -0.17267(3)
I4B_2 I 0.55349(3) 0.95248(2) -0.17267(3)
I4_2 I 0.44651(3) 1.04752(2) 0.17267(3)
Ag1B Ag 0.55853(4) 0.72283(2) 0.00838(4)
Ag2B Ag 0.64237(4) 0.86541(3) -0.00467(4)
Ag2B_2 Ag 0.64237(4) -0.13459(3) -0.00467(4)
Ag3B Ag 0.39460(4) 0.96139(3) -0.01130(4)
Ag3B_2 Ag 0.39460(4) -0.03861(3) -0.01130(4)
N1B N 0.5097(4) 0.6263(2) -0.1004(4)
N2B N 0.6130(4) 0.6099(3) -0.2484(4)
N3B N 0.4656(4) 0.6876(3) -0.2483(4)
N4B N 0.5314(4) 0.6214(2) 0.1042(4)
N5B N 0.4278(4) 0.6194(3) 0.2517(4)
N6B N 0.6256(4) 0.6327(3) 0.2659(4)
C1B C 0.5071(5) 0.5633(3) -0.0579(4)
C2B C 0.5150(4) 0.5620(3) 0.0574(4)
C3B C 0.4927(5) 0.5020(3) -0.1097(4)
H1B H 0.4878 0.5023 -0.1814
C4B C 0.5300(5) 0.6391(3) -0.1989(4)
C5B C 0.7104(5) 0.5760(3) -0.1939(5)
H2B H 0.7110 0.5860 -0.1215
H3B H 0.7044 0.5272 -0.2042
H4B H 0.7799 0.5923 -0.2200
C6B C 0.6111(5) 0.6078(3) -0.3617(5)
H5B H 0.6571 0.6445 -0.3854
H6B H 0.6410 0.5645 -0.3829
H7B H 0.5338 0.6129 -0.3906
C7B C 0.5149(6) 0.7424(3) -0.3095(5)
H8B H 0.5958 0.7354 -0.3106
H9B H 0.4803 0.7412 -0.3788
H10B H 0.5007 0.7862 -0.2790
C8B C 0.3528(6) 0.7033(4) -0.2117(5)
H11B H 0.3597 0.7410 -0.1640
H12B H 0.3008 0.7155 -0.2693
H13B H 0.3244 0.6637 -0.1778
C9B C 0.5291(5) 0.6232(3) 0.2108(4)
C10B C 0.3212(5) 0.6315(3) 0.1875(5)
H14B H 0.2994 0.5903 0.1505
H15B H 0.2617 0.6444 0.2307
H16B H 0.3327 0.6678 0.1392
C11B C 0.4146(5) 0.5888(3) 0.3535(5)
H17B H 0.4817 0.5626 0.3745
H18B H 0.4045 0.6246 0.4028
H19B H 0.3490 0.5591 0.3496
C12B C 0.7354(5) 0.6221(3) 0.2189(5)
H20B H 0.7558 0.6633 0.1840
H21B H 0.7940 0.6112 0.2719
H22B H 0.7276 0.5849 0.1703
C13B C 0.6328(6) 0.6635(3) 0.3704(5)
H23B H 0.6433 0.6278 0.4211
H24B H 0.6963 0.6947 0.3773
H25B H 0.5634 0.6880 0.3804
N7 N 0.8998(4) 0.4162(3) 0.0765(4)
O1 O 0.7762(4) 0.5000(3) 0.0166(4)
C14 C 0.8170(6) 0.4620(4) 0.0856(5)
H26 H 0.7872 0.4656 0.1498
C15 C 0.9489(6) 0.4060(5) -0.0222(6)
H27 H 0.9276 0.3615 -0.0490
H28 H 1.0307 0.4091 -0.0126
H29 H 0.9207 0.4408 -0.0699
C16 C 0.9427(6) 0.3748(4) 0.1637(6)
H30 H 0.9043 0.3875 0.2236
H31 H 1.0234 0.3823 0.1767
H32 H 0.9289 0.3271 0.1485
loop_
_geom_bond_atom_site_label_1
_geom_bond_atom_site_label_2
_geom_bond_site_symmetry_1
_geom_bond_site_symmetry_2
I1 Ag1 1_555 1_555
I2 Ag1 1_555 1_555
I3 Ag2 1_555 1_555
I4 Ag2 1_555 1_555
Ag1 N1 1_555 1_555
Ag2 I1 1_555 1_555
Ag3 I2 1_555 1_555
N1 C1 1_555 1_555
N2 C4 1_555 1_555
N3 C4 1_555 1_555
N4 Ag1 1_555 1_555
N5 C9 1_555 1_555
N6 C9 1_555 1_555
C1 C2 1_555 1_555
C2 N4 1_555 1_555
C3 C1 1_555 1_555
H1 C3 1_555 1_555
C4 N1 1_555 1_555
C5 N2 1_555 1_555
H2 C5 1_555 1_555
H3 C5 1_555 1_555
H4 C5 1_555 1_555
C6 N2 1_555 1_555
H5 C6 1_555 1_555
H6 C6 1_555 1_555
H7 C6 1_555 1_555
C7 N3 1_555 1_555
H8 C7 1_555 1_555
H9 C7 1_555 1_555
H10 C7 1_555 1_555
C8 N3 1_555 1_555
H11 C8 1_555 1_555
H12 C8 1_555 1_555
H13 C8 1_555 1_555
C9 N4 1_555 1_555
C10 N5 1_555 1_555
H14 C10 1_555 1_555
H15 C10 1_555 1_555
H16 C10 1_555 1_555
C11 N5 1_555 1_555
H17 C11 1_555 1_555
H18 C11 1_555 1_555
H19 C11 1_555 1_555
C12 N6 1_555 1_555
H20 C12 1_555 1_555
H21 C12 1_555 1_555
H22 C12 1_555 1_555
C13 N6 1_555 1_555
H23 C13 1_555 1_555
H24 C13 1_555 1_555
H25 C13 1_555 1_555
N7 C14 1_555 1_555
O1 C14 1_555 1_555
C14 H26 1_555 1_555
C15 N7 1_555 1_555
H27 C15 1_555 1_555
H28 C15 1_555 1_555
H29 C15 1_555 1_555
C16 N7 1_555 1_555
H30 C16 1_555 1_555
H31 C16 1_555 1_555
H32 C16 1_555 1_555
I1B Ag1B 1_555 1_555
I2B Ag1B 1_555 1_555
I3B Ag3 1_555 1_555
I3B_2 Ag2B 1_555 1_555
I3_2 Ag3B 1_555 1_555
I4B Ag3 1_555 1_555
I4B_2 Ag2B 1_555 1_555
I4_2 Ag3B 1_555 1_555
Ag1B N1B 1_555 1_555
Ag2B I1B 1_555 1_555
Ag2B_2 I3B 1_555 1_555
Ag3B I2B 1_555 1_555
Ag3B_2 I3 1_555 1_555
N1B C1B 1_555 1_555
N2B C4B 1_555 1_555
N3B C4B 1_555 1_555
N4B Ag1B 1_555 1_555
N5B C9B 1_555 1_555
N6B C9B 1_555 1_555
C1B C2B 1_555 1_555
C2B C3 1_555 1_555
C3B C2 1_555 1_555
H1B C3B 1_555 1_555
C4B N1B 1_555 1_555
C5B N2B 1_555 1_555
H2B C5B 1_555 1_555
H3B C5B 1_555 1_555
H4B C5B 1_555 1_555
C6B N2B 1_555 1_555
H5B C6B 1_555 1_555
H6B C6B 1_555 1_555
H7B C6B 1_555 1_555
C7B N3B 1_555 1_555
H8B C7B 1_555 1_555
H9B C7B 1_555 1_555
H10B C7B 1_555 1_555
C8B N3B 1_555 1_555
H11B C8B 1_555 1_555
H12B C8B 1_555 1_555
H13B C8B 1_555 1_555
C9B N4B 1_555 1_555
C10B N5B 1_555 1_555
H14B C10B 1_555 1_555
H15B C10B 1_555 1_555
H16B C10B 1_555 1_555
C11B N5B 1_555 1_555
H17B C11B 1_555 1_555
H18B C11B 1_555 1_555
H19B C11B 1_555 1_555
C12B N6B 1_555 1_555
H20B C12B 1_555 1_555
H21B C12B 1_555 1_555
H22B C12B 1_555 1_555
C13B N6B 1_555 1_555
H23B C13B 1_555 1_555
H24B C13B 1_555 1_555
H25B C13B 1_555 1_555
I2 Ag2 1_555 1_555
I4 Ag3 1_555 1_555
I4 Ag3B_2 1_555 1_555
I2B Ag2B 1_555 1_555
I4B Ag2B_2 1_555 1_555
I4B Ag3B_2 1_555 1_555
I4B_2 Ag3B 1_555 1_555
N4B C2B 1_555 1_555
C1B C3B 1_555 1_555

#END
