
#######################################################################
#
#                 Cambridge Crystallographic Data Centre
#                                CCDC 
#
#######################################################################
#
# If this CIF has been generated from an entry in the Cambridge 
# Structural Database, then it will include bibliographic, chemical, 
# crystal, experimental, refinement or atomic coordinate data resulting 
# from the CCDC's data processing and validation procedures.
#
#######################################################################

data_QATCUJ
_symmetry_cell_setting           monoclinic
_symmetry_space_group_name_H-M   'C 2/c'
_symmetry_Int_Tables_number      15
_space_group_name_Hall           '-C 2yn'
loop_
_symmetry_equiv_pos_site_id
_symmetry_equiv_pos_as_xyz
1 x,y,z
2 1/2+x,1/2+y,z
3 x,-y,1/2+z
4 1/2+x,1/2-y,1/2+z
5 -x,-y,-z
6 1/2-x,1/2-y,-z
7 -x,y,1/2-z
8 1/2-x,1/2+y,1/2-z
_cell_length_a                   16.1225(19)
_cell_length_b                   11.3408(13)
_cell_length_c                   31.106(4)
_cell_angle_alpha                90
_cell_angle_beta                 104.190(2)
_cell_angle_gamma                90
_cell_volume                     5513.95
loop_
_atom_site_label
_atom_site_type_symbol
_atom_site_fract_x
_atom_site_fract_y
_atom_site_fract_z
Ni1 Ni 0.5000 0.52264(5) 0.7500
N1 N 0.30236(18) 0.5240(3) 0.74579(10)
O1 O 0.2943(2) 0.4633(3) 0.77511(12)
O2 O 0.36453(13) 0.52025(19) 0.72808(6)
O3 O 0.2556(4) 0.6012(7) 0.7375(3)
N2 N 0.50512(15) 0.5235(2) 0.81766(7)
C1 C 0.4575(2) 0.5966(3) 0.83553(9)
H1 H 0.4218 0.6518 0.8166
C2 C 0.4577(2) 0.5961(3) 0.87991(10)
H2 H 0.4223 0.6495 0.8908
C3 C 0.5098(2) 0.5169(3) 0.90861(9)
C4 C 0.5604(2) 0.4432(3) 0.89011(10)
H3 H 0.5977 0.3883 0.9083
C5 C 0.5569(2) 0.4490(3) 0.84553(9)
H4 H 0.5927 0.3979 0.8339
C6 C 0.4801(2) 0.6049(3) 0.97729(10)
H5 H 0.4667 0.6776 0.9620
C7 C 0.5073(2) 0.5099(3) 0.95586(9)
C8 C 0.5275(2) 0.4052(3) 0.97944(10)
H6 H 0.5469 0.3396 0.9656
N3 N 0.5000 0.3361(3) 0.7500
C9 C 0.5643(2) 0.2742(3) 0.74055(11)
H7 H 0.6101 0.3161 0.7334
C10 C 0.5669(2) 0.1532(3) 0.74078(11)
H8 H 0.6144 0.1131 0.7346
C11 C 0.5000 0.0898(4) 0.7500
N4 N 0.5000 -0.2899(3) 0.7500
C12 C 0.5718(2) -0.2275(3) 0.76609(11)
H9 H 0.6233 -0.2694 0.7780
C13 C 0.5749(2) -0.1058(3) 0.76627(11)
H10 H 0.6276 -0.0659 0.7774
C14 C 0.5000 -0.0424(4) 0.7500
C8D C 0.4725(2) 0.5948(3) 1.02056(10)
C7D C 0.4927(2) 0.4901(3) 1.04414(9)
C3D C 0.4902(2) 0.4831(3) 1.09139(9)
C2D C 0.5423(2) 0.4039(3) 1.12009(10)
C1D C 0.5425(2) 0.4034(3) 1.16447(9)
N2D N 0.49488(15) 0.4765(2) 1.18234(7)
C5D C 0.4431(2) 0.5510(3) 1.15447(9)
C4D C 0.4396(2) 0.5568(3) 1.10989(10)
H3D H 0.4023 0.6117 1.0917
H4D H 0.4073 0.6021 1.1661
H1D H 0.5782 0.3482 1.1834
H2D H 0.5777 0.3505 1.1092
C6D C 0.5199(2) 0.3951(3) 1.02271(10)
H5D H 0.5333 0.3224 1.0380
H6D H 0.4531 0.6604 1.0344
C10F C 0.4331(2) 0.1532(3) 0.75922(11)
C9F C 0.4357(2) 0.2742(3) 0.75945(11)
H7F H 0.3899 0.3161 0.7666
H8F H 0.3856 0.1131 0.7654
C12F C 0.4282(2) -0.2275(3) 0.73391(11)
H9F H 0.3767 -0.2694 0.7220
C13F C 0.4251(2) -0.1058(3) 0.73373(11)
H10F H 0.3724 -0.0659 0.7226
N1F N 0.69764(18) 0.5240(3) 0.75421(10)
O1F O 0.7057(2) 0.4633(3) 0.72489(12)
O2F O 0.63547(13) 0.52025(19) 0.77192(6)
O3F O 0.7444(4) 0.6012(7) 0.7625(3)
N2F N 0.49488(15) 0.5235(2) 0.68234(7)
N4_2 N 0.5000 0.7101(3) 0.7500
Ni1_2 Ni 0.5000 -0.47736(5) 0.7500
Ni1B Ni 0.5000 0.47736(5) 1.2500
C15 C 0.7464(3) 0.6684(4) 0.8770(2)
H11 H 0.7244 0.6015 0.8596
C16 C 0.7561(4) 0.6655(5) 0.9220(2)
H12 H 0.7403 0.5976 0.9360
C17 C 0.7902(4) 0.7663(7) 0.94714(19)
H13 H 0.7994 0.7664 0.9785
C18 C 0.8094(3) 0.8631(5) 0.9254(2)
H14 H 0.8305 0.9321 0.9417
C19 C 0.7988(3) 0.8622(5) 0.8814(2)
H15 H 0.8131 0.9302 0.8668
C20 C 0.7680(3) 0.7655(5) 0.85737(17)
H16 H 0.7615 0.7660 0.8262
C21 C 0.5746(4) -0.0391(6) 0.9538(3)
H17 H 0.6079 -0.0663 0.9816
C22 C 0.5716(4) -0.1024(6) 0.9169(4)
H18 H 0.6017 -0.1748 0.9185
C23 C 0.5250(8) -0.0617(10) 0.8776(3)
H19 H 0.5225 -0.1051 0.8512
C24 C 0.4822(5) 0.0412(8) 0.8760(2)
H20 H 0.4494 0.0696 0.8483
C25 C 0.4855(3) 0.1036(5) 0.9129(2)
H21 H 0.4559 0.1765 0.9114
C26 C 0.5307(4) 0.0623(5) 0.95158(18)
H22 H 0.5320 0.1052 0.9780
C27 C 0.2434(6) 0.7456(10) 0.8451(3)
H23 H 0.2299 0.7341 0.8139
C28 C 0.2944(4) 0.8359(6) 0.8650(3)
H24 H 0.3168 0.8892 0.8471
C29 C 0.3136(4) 0.8513(5) 0.9087(3)
H25 H 0.3493 0.9150 0.9216
C30 C 0.2828(5) 0.7777(8) 0.9346(3)
H26 H 0.2964 0.7896 0.9658
C31 C 0.2292(8) 0.6802(12) 0.9153(6)
H27 H 0.2067 0.6246 0.9323
C32 C 0.2143(7) 0.6758(10) 0.8714(7)
H28 H 0.1777 0.6140 0.8573
loop_
_geom_bond_atom_site_label_1
_geom_bond_atom_site_label_2
_geom_bond_site_symmetry_1
_geom_bond_site_symmetry_2
Ni1 O2 1_555 1_555
N1 O1 1_555 1_555
O2 N1 1_555 1_555
O3 N1 1_555 1_555
N2 Ni1 1_555 1_555
C1 N2 1_555 1_555
H1 C1 1_555 1_555
C2 C1 1_555 1_555
H2 C2 1_555 1_555
C3 C2 1_555 1_555
C4 C3 1_555 1_555
H3 C4 1_555 1_555
C5 N2 1_555 1_555
H4 C5 1_555 1_555
C6 H5 1_555 1_555
C7 C3 1_555 1_555
C8 C7 1_555 1_555
H6 C8 1_555 1_555
N3 Ni1 1_555 1_555
C9 N3 1_555 1_555
H7 C9 1_555 1_555
C10 C9 1_555 1_555
H8 C10 1_555 1_555
C11 C10 1_555 1_555
N4 C12 1_555 1_555
C12 H9 1_555 1_555
C13 C12 1_555 1_555
H10 C13 1_555 1_555
C14 C11 1_555 1_555
C15 H11 1_555 1_555
C16 C15 1_555 1_555
H12 C16 1_555 1_555
C17 C16 1_555 1_555
H13 C17 1_555 1_555
C18 C17 1_555 1_555
H14 C18 1_555 1_555
C19 C18 1_555 1_555
H15 C19 1_555 1_555
C20 C15 1_555 1_555
H16 C20 1_555 1_555
C21 H17 1_555 1_555
C22 C21 1_555 1_555
H18 C22 1_555 1_555
C23 C22 1_555 1_555
H19 C23 1_555 1_555
C24 C23 1_555 1_555
H20 C24 1_555 1_555
C25 C24 1_555 1_555
H21 C25 1_555 1_555
C26 C21 1_555 1_555
H22 C26 1_555 1_555
C27 H23 1_555 1_555
C28 C27 1_555 1_555
H24 C28 1_555 1_555
C29 C28 1_555 1_555
H25 C29 1_555 1_555
C30 C29 1_555 1_555
H26 C30 1_555 1_555
C31 C30 1_555 1_555
H27 C31 1_555 1_555
C32 C27 1_555 1_555
H28 C32 1_555 1_555
C8D C6 1_555 1_555
C7D C8D 1_555 1_555
C3D C7D 1_555 1_555
C2D C3D 1_555 1_555
C1D C2D 1_555 1_555
N2D C1D 1_555 1_555
C5D N2D 1_555 1_555
C4D C3D 1_555 1_555
H3D C4D 1_555 1_555
H4D C5D 1_555 1_555
H1D C1D 1_555 1_555
H2D C2D 1_555 1_555
C6D C8 1_555 1_555
H5D C6D 1_555 1_555
H6D C8D 1_555 1_555
C10F C11 1_555 1_555
C9F N3 1_555 1_555
H7F C9F 1_555 1_555
H8F C10F 1_555 1_555
C12F N4 1_555 1_555
H9F C12F 1_555 1_555
C13F C14 1_555 1_555
H10F C13F 1_555 1_555
N1F O1F 1_555 1_555
O2F Ni1 1_555 1_555
O3F N1F 1_555 1_555
N2F Ni1 1_555 1_555
N4_2 Ni1 1_555 1_555
Ni1_2 N4 1_555 1_555
Ni1B N2D 1_555 1_555
C4 C5 1_555 1_555
C6 C7 1_555 1_555
C13 C14 1_555 1_555
C19 C20 1_555 1_555
C25 C26 1_555 1_555
C31 C32 1_555 1_555
C7D C6D 1_555 1_555
C5D C4D 1_555 1_555
C10F C9F 1_555 1_555
C12F C13F 1_555 1_555
N1F O2F 1_555 1_555

#END
