
#######################################################################
#
#                 Cambridge Crystallographic Data Centre
#                                CCDC 
#
#######################################################################
#
# If this CIF has been generated from an entry in the Cambridge 
# Structural Database, then it will include bibliographic, chemical, 
# crystal, experimental, refinement or atomic coordinate data resulting 
# from the CCDC's data processing and validation procedures.
#
#######################################################################

data_QATCAR
_symmetry_cell_setting           monoclinic
_symmetry_space_group_name_H-M   'P 21/n'
_symmetry_Int_Tables_number      14
_space_group_name_Hall           '-P 2yn'
loop_
_symmetry_equiv_pos_site_id
_symmetry_equiv_pos_as_xyz
1 x,y,z
2 1/2-x,1/2+y,1/2-z
3 -x,-y,-z
4 1/2+x,1/2-y,1/2+z
_cell_length_a                   13.058(3)
_cell_length_b                   11.688(2)
_cell_length_c                   15.697(3)
_cell_angle_alpha                90
_cell_angle_beta                 107.03(3)
_cell_angle_gamma                90
_cell_volume                     2290.66
loop_
_atom_site_label
_atom_site_type_symbol
_atom_site_fract_x
_atom_site_fract_y
_atom_site_fract_z
Ag1 Ag 0.029517(16) 0.876828(18) 0.037414(14)
Ag2 Ag -0.061212(19) 0.98977(2) 0.208342(16)
Cl1 Cl 0.12208(5) 0.94913(7) 0.19994(5)
Cl2 Cl -0.15206(5) 1.00407(5) 0.03791(5)
Cl3 Cl -0.14704(6) 0.99953(6) 0.32521(5)
N1 N -0.08168(17) 0.71056(19) 0.02670(16)
N2 N -0.21039(17) 0.7388(2) 0.10078(16)
N3 N -0.26243(17) 0.7266(2) -0.05384(16)
N4 N 0.10832(17) 0.70110(19) -0.00223(15)
N5 N 0.29379(18) 0.6899(2) 0.06379(16)
N6 N 0.22533(18) 0.7336(2) -0.08679(16)
C1 C -0.04817(19) 0.6072(2) 0.01275(17)
C2 C 0.06196(19) 0.6012(2) 0.00042(17)
C3 C -0.1041(2) 0.5055(2) 0.01131(18)
H1 H -0.1723 0.5087 0.0185
C4 C -0.1868(2) 0.7232(2) 0.02570(18)
C5 C -0.3046(2) 0.8010(3) 0.1083(2)
H2 H -0.3384 0.8392 0.0531
H3 H -0.2831 0.8564 0.1553
H4 H -0.3542 0.7481 0.1215
C6 C -0.1342(2) 0.7048(3) 0.1858(2)
H5 H -0.0705 0.6748 0.1752
H6 H -0.1660 0.6471 0.2134
H7 H -0.1161 0.7701 0.2243
C7 C -0.3716(2) 0.6855(3) -0.0673(2)
H8 H -0.3762 0.6471 -0.0145
H9 H -0.3903 0.6332 -0.1167
H10 H -0.4201 0.7492 -0.0797
C8 C -0.2298(2) 0.7430(3) -0.1348(2)
H11 H -0.1739 0.7993 -0.1238
H12 H -0.2901 0.7686 -0.1823
H13 H -0.2041 0.6719 -0.1513
C9 C 0.2115(2) 0.7055(2) -0.00935(19)
C10 C 0.3979(2) 0.6466(3) 0.0604(2)
H14 H 0.3922 0.6214 0.0009
H15 H 0.4193 0.5836 0.1009
H16 H 0.4503 0.7065 0.0770
C11 C 0.2756(2) 0.6830(3) 0.1517(2)
H17 H 0.2197 0.7352 0.1539
H18 H 0.3403 0.7029 0.1970
H19 H 0.2549 0.6065 0.1616
C12 C 0.3187(2) 0.7955(3) -0.0960(2)
H20 H 0.3606 0.8227 -0.0387
H21 H 0.2955 0.8593 -0.1355
H22 H 0.3615 0.7452 -0.1200
C13 C 0.1370(2) 0.7199(3) -0.1690(2)
H23 H 0.0745 0.6931 -0.1547
H24 H 0.1570 0.6654 -0.2071
H25 H 0.1217 0.7922 -0.1991
Ag1B Ag -0.029517(16) 1.123172(18) -0.037414(14)
Ag1B_2 Ag -0.029517(16) 0.123172(18) -0.037414(14)
Ag2B Ag 0.061212(19) 1.01023(2) -0.208342(16)
Cl1B Cl -0.12208(5) 1.05087(7) -0.19994(5)
Cl2B Cl 0.15206(5) 0.99593(5) -0.03791(5)
Cl3B Cl 0.14704(6) 1.00047(6) -0.32521(5)
N1B N 0.08168(17) 0.28944(19) -0.02670(16)
N1B_2 N 0.08168(17) 1.28944(19) -0.02670(16)
N2B N 0.21039(17) 0.2612(2) -0.10078(16)
N3B N 0.26243(17) 0.2734(2) 0.05384(16)
N4B N -0.10832(17) 0.29890(19) 0.00223(15)
N4B_2 N -0.10832(17) 1.29890(19) 0.00223(15)
N5B N -0.29379(18) 0.3101(2) -0.06379(16)
N6B N -0.22533(18) 0.2664(2) 0.08679(16)
C1B C 0.04817(19) 0.3928(2) -0.01275(17)
C2B C -0.06196(19) 0.3988(2) -0.00042(17)
C3B C 0.1041(2) 0.4945(2) -0.01131(18)
H1B H 0.1723 0.4913 -0.0185
C4B C 0.1868(2) 0.2768(2) -0.02570(18)
C5B C 0.3046(2) 0.1990(3) -0.1083(2)
H2B H 0.3384 0.1608 -0.0531
H3B H 0.2831 0.1436 -0.1553
H4B H 0.3542 0.2519 -0.1215
C6B C 0.1342(2) 0.2952(3) -0.1858(2)
H5B H 0.0705 0.3252 -0.1752
H6B H 0.1660 0.3529 -0.2134
H7B H 0.1161 0.2299 -0.2243
C7B C 0.3716(2) 0.3145(3) 0.0673(2)
H8B H 0.3762 0.3529 0.0145
H9B H 0.3903 0.3668 0.1167
H10B H 0.4201 0.2508 0.0797
C8B C 0.2298(2) 0.2570(3) 0.1348(2)
H11B H 0.1739 0.2007 0.1238
H12B H 0.2901 0.2314 0.1823
H13B H 0.2041 0.3281 0.1513
C9B C -0.2115(2) 0.2945(2) 0.00935(19)
C10B C -0.3979(2) 0.3534(3) -0.0604(2)
H14B H -0.3922 0.3786 -0.0009
H15B H -0.4193 0.4164 -0.1009
H16B H -0.4503 0.2935 -0.0770
C11B C -0.2756(2) 0.3170(3) -0.1517(2)
H17B H -0.2197 0.2648 -0.1539
H18B H -0.3403 0.2971 -0.1970
H19B H -0.2549 0.3935 -0.1616
C12B C -0.3187(2) 0.2045(3) 0.0960(2)
H20B H -0.3606 0.1773 0.0387
H21B H -0.2955 0.1407 0.1355
H22B H -0.3615 0.2548 0.1200
C13B C -0.1370(2) 0.2801(3) 0.1690(2)
H23B H -0.0745 0.3069 0.1547
H24B H -0.1570 0.3346 0.2071
H25B H -0.1217 0.2078 0.1991
Cl4 Cl 0.08587(6) 0.49590(7) 0.23178(5)
Cl5 Cl 0.02820(7) 0.49178(7) 0.39734(6)
C14 C 0.1341(2) 0.4811(3) 0.3480(2)
H26 H 0.1868 0.5402 0.3721
H27 H 0.1691 0.4074 0.3625
loop_
_geom_bond_atom_site_label_1
_geom_bond_atom_site_label_2
_geom_bond_site_symmetry_1
_geom_bond_site_symmetry_2
Ag1 Cl1 1_555 1_555
Ag2 Cl1 1_555 1_555
Cl2 Ag1 1_555 1_555
Cl3 Ag2 1_555 1_555
Cl4 C14 1_555 1_555
Cl5 C14 1_555 1_555
N1 Ag1 1_555 1_555
N2 C4 1_555 1_555
N3 C4 1_555 1_555
N4 Ag1 1_555 1_555
N5 C9 1_555 1_555
N6 C9 1_555 1_555
C1 N1 1_555 1_555
C2 N4 1_555 1_555
C3 C1 1_555 1_555
H1 C3 1_555 1_555
C4 N1 1_555 1_555
C5 N2 1_555 1_555
H2 C5 1_555 1_555
H3 C5 1_555 1_555
H4 C5 1_555 1_555
C6 N2 1_555 1_555
H5 C6 1_555 1_555
H6 C6 1_555 1_555
H7 C6 1_555 1_555
C7 N3 1_555 1_555
H8 C7 1_555 1_555
H9 C7 1_555 1_555
H10 C7 1_555 1_555
C8 N3 1_555 1_555
H11 C8 1_555 1_555
H12 C8 1_555 1_555
H13 C8 1_555 1_555
C9 N4 1_555 1_555
C10 N5 1_555 1_555
H14 C10 1_555 1_555
H15 C10 1_555 1_555
H16 C10 1_555 1_555
C11 N5 1_555 1_555
H17 C11 1_555 1_555
H18 C11 1_555 1_555
H19 C11 1_555 1_555
C12 N6 1_555 1_555
H20 C12 1_555 1_555
H21 C12 1_555 1_555
H22 C12 1_555 1_555
C13 N6 1_555 1_555
H23 C13 1_555 1_555
H24 C13 1_555 1_555
H25 C13 1_555 1_555
C14 H26 1_555 1_555
H27 C14 1_555 1_555
Ag1B Cl2 1_555 1_555
Ag1B_2 N1B 1_555 1_555
Ag2B Cl1B 1_555 1_555
Cl1B Ag1B 1_555 1_555
Cl2B Ag1 1_555 1_555
Cl3B Ag2B 1_555 1_555
N1B C1B 1_555 1_555
N1B_2 Ag1B 1_555 1_555
N2B C4B 1_555 1_555
N3B C4B 1_555 1_555
N4B Ag1B_2 1_555 1_555
N4B_2 Ag1B 1_555 1_555
N5B C9B 1_555 1_555
N6B C9B 1_555 1_555
C1B C2B 1_555 1_555
C2B C3 1_555 1_555
C3B C2 1_555 1_555
H1B C3B 1_555 1_555
C4B N1B 1_555 1_555
C5B N2B 1_555 1_555
H2B C5B 1_555 1_555
H3B C5B 1_555 1_555
H4B C5B 1_555 1_555
C6B N2B 1_555 1_555
H5B C6B 1_555 1_555
H6B C6B 1_555 1_555
H7B C6B 1_555 1_555
C7B N3B 1_555 1_555
H8B C7B 1_555 1_555
H9B C7B 1_555 1_555
H10B C7B 1_555 1_555
C8B N3B 1_555 1_555
H11B C8B 1_555 1_555
H12B C8B 1_555 1_555
H13B C8B 1_555 1_555
C9B N4B 1_555 1_555
C10B N5B 1_555 1_555
H14B C10B 1_555 1_555
H15B C10B 1_555 1_555
H16B C10B 1_555 1_555
C11B N5B 1_555 1_555
H17B C11B 1_555 1_555
H18B C11B 1_555 1_555
H19B C11B 1_555 1_555
C12B N6B 1_555 1_555
H20B C12B 1_555 1_555
H21B C12B 1_555 1_555
H22B C12B 1_555 1_555
C13B N6B 1_555 1_555
H23B C13B 1_555 1_555
H24B C13B 1_555 1_555
H25B C13B 1_555 1_555
Ag2 Cl2 1_555 1_555
C1 C2 1_555 1_555
Ag1B Cl2B 1_555 1_555
Ag2B Cl2B 1_555 1_555
N4B C2B 1_555 1_555
C1B C3B 1_555 1_555

#END
