
#######################################################################
#
#                 Cambridge Crystallographic Data Centre
#                                CCDC 
#
#######################################################################
#
# If this CIF has been generated from an entry in the Cambridge 
# Structural Database, then it will include bibliographic, chemical, 
# crystal, experimental, refinement or atomic coordinate data resulting 
# from the CCDC's data processing and validation procedures.
#
#######################################################################

data_QATDAS
_symmetry_cell_setting           monoclinic
_symmetry_space_group_name_H-M   'P 21/c'
_symmetry_Int_Tables_number      14
_space_group_name_Hall           '-P 2ybc'
loop_
_symmetry_equiv_pos_site_id
_symmetry_equiv_pos_as_xyz
1 x,y,z
2 -x,1/2+y,1/2-z
3 -x,-y,-z
4 x,1/2-y,1/2+z
_cell_length_a                   11.754(5)
_cell_length_b                   22.070(9)
_cell_length_c                   10.787(5)
_cell_angle_alpha                90
_cell_angle_beta                 110.644(6)
_cell_angle_gamma                90
_cell_volume                     2618.58
loop_
_atom_site_label
_atom_site_type_symbol
_atom_site_fract_x
_atom_site_fract_y
_atom_site_fract_z
I1 I 0.531988(11) 0.567970(6) 0.675375(13)
Ag1 Ag 0.645245(14) 0.502300(7) 0.533647(15)
N1 N 0.83288(14) 0.45206(8) 0.60929(16)
N2 N 0.88508(15) 0.34762(7) 0.60970(17)
N3 N 0.82952(16) 0.38850(8) 0.77785(17)
N4 N 0.75497(14) 0.53824(7) 0.40138(16)
N5 N 0.61081(15) 0.59140(8) 0.23277(17)
N6 N 0.72947(15) 0.52156(8) 0.17432(16)
C1 C 0.91463(17) 0.47386(8) 0.55029(18)
C2 C 0.87670(16) 0.51771(9) 0.44907(18)
C3 C 1.03716(17) 0.45732(9) 0.59753(18)
H1 H 1.0632 0.4274 0.6651
C4 C 0.84943(16) 0.39741(9) 0.66199(19)
C5 C 0.8633(2) 0.34504(10) 0.4688(2)
H2 H 0.7903 0.3685 0.4206
H3 H 0.8516 0.3028 0.4390
H4 H 0.9333 0.3621 0.4516
C6 C 0.9748(2) 0.30456(10) 0.6899(2)
H5 H 0.9965 0.3148 0.7838
H6 H 1.0476 0.3063 0.6657
H7 H 0.9407 0.2636 0.6743
C7 C 0.8190(2) 0.44115(10) 0.8538(2)
H8 H 0.8789 0.4717 0.8520
H9 H 0.8338 0.4291 0.9456
H10 H 0.7370 0.4582 0.8150
C8 C 0.7734(2) 0.33326(10) 0.8043(2)
H11 H 0.6869 0.3406 0.7870
H12 H 0.8137 0.3214 0.8971
H13 H 0.7820 0.3007 0.7465
C9 C 0.70281(16) 0.54938(9) 0.27525(19)
C10 C 0.50415(19) 0.57857(10) 0.1157(2)
H14 H 0.5303 0.5645 0.0438
H15 H 0.4556 0.6155 0.0878
H16 H 0.4550 0.5471 0.1367
C11 C 0.5886(2) 0.62992(11) 0.3306(2)
H17 H 0.5429 0.6658 0.2870
H18 H 0.6664 0.6425 0.3966
H19 H 0.5415 0.6075 0.3746
C12 C 0.7523(2) 0.55643(10) 0.0714(2)
H20 H 0.7320 0.5990 0.0785
H21 H 0.7020 0.5407 -0.0156
H22 H 0.8383 0.5531 0.0819
C13 C 0.77364(19) 0.45992(9) 0.1899(2)
H23 H 0.8623 0.4600 0.2154
H24 H 0.7374 0.4381 0.1060
H25 H 0.7512 0.4398 0.2590
I1B I 0.468012(11) 0.432030(6) 0.324625(13)
I1_2 I 1.531988(11) 0.567970(6) 0.675375(13)
I1B_2 I 1.468012(11) 0.432030(6) 0.324625(13)
Ag1B Ag 0.354755(14) 0.497700(7) 0.466353(15)
Ag1B_2 Ag 1.354755(14) 0.497700(7) 0.466353(15)
Ag1_2 Ag 1.645245(14) 0.502300(7) 0.533647(15)
N1B N 1.16712(14) 0.54794(8) 0.39071(16)
N2B N 1.11492(15) 0.65238(7) 0.39030(17)
N3B N 1.17048(16) 0.61150(8) 0.22215(17)
N4B N 1.24503(14) 0.46176(7) 0.59862(16)
N5B N 1.38919(15) 0.40860(8) 0.76723(17)
N6B N 1.27053(15) 0.47844(8) 0.82568(16)
C1B C 1.08537(17) 0.52614(8) 0.44971(18)
C2B C 1.12330(16) 0.48229(9) 0.55093(18)
C3B C 0.96284(17) 0.54268(9) 0.40247(18)
H1B H 0.9368 0.5726 0.3349
C4B C 1.15057(16) 0.60259(9) 0.33801(19)
C5B C 1.1367(2) 0.65496(10) 0.5312(2)
H2B H 1.2097 0.6315 0.5794
H3B H 1.1484 0.6972 0.5610
H4B H 1.0667 0.6379 0.5484
C6B C 1.0252(2) 0.69544(10) 0.3101(2)
H5B H 1.0035 0.6852 0.2162
H6B H 0.9524 0.6937 0.3343
H7B H 1.0593 0.7364 0.3257
C7B C 1.1810(2) 0.55885(10) 0.1462(2)
H8B H 1.1211 0.5283 0.1480
H9B H 1.1662 0.5709 0.0544
H10B H 1.2630 0.5418 0.1850
C8B C 1.2266(2) 0.66674(10) 0.1957(2)
H11B H 1.3131 0.6594 0.2130
H12B H 1.1863 0.6786 0.1029
H13B H 1.2180 0.6993 0.2535
C9B C 1.29719(16) 0.45062(9) 0.72475(19)
C10B C 1.49585(19) 0.42143(10) 0.8843(2)
H14B H 1.4697 0.4355 0.9562
H15B H 1.5444 0.3845 0.9122
H16B H 1.5450 0.4529 0.8633
C11B C 1.4114(2) 0.37008(11) 0.6694(2)
H17B H 1.4571 0.3342 0.7130
H18B H 1.3336 0.3575 0.6034
H19B H 1.4585 0.3925 0.6254
C12B C 1.2477(2) 0.44357(10) 0.9286(2)
H20B H 1.2680 0.4010 0.9215
H21B H 1.2980 0.4593 1.0156
H22B H 1.1617 0.4469 0.9181
C13B C 1.22636(19) 0.54008(9) 0.8101(2)
H23B H 1.1377 0.5400 0.7846
H24B H 1.2626 0.5619 0.8940
H25B H 1.2488 0.5602 0.7410
O1 O 0.1579(2) 0.29119(12) 0.0181(2)
N7 N 0.14096(18) 0.33487(9) 0.2010(2)
C14 C 0.1136(3) 0.32824(15) 0.0709(3)
H26 H 0.0542 0.3549 0.0145
C15 C 0.0912(4) 0.3835(2) 0.2549(5)
H27 H 0.1576 0.4074 0.3163
H28 H 0.0410 0.3667 0.3023
H29 H 0.0411 0.4096 0.1828
C16 C 0.2303(3) 0.29500(16) 0.2922(3)
H30 H 0.2549 0.2639 0.2419
H31 H 0.1946 0.2756 0.3516
H32 H 0.3016 0.3187 0.3445
O2 O 0.76034(16) 0.30951(8) 0.14341(19)
N8 N 0.56228(18) 0.27865(8) 0.05998(19)
C17 C 0.6544(2) 0.31294(10) 0.1367(2)
H33 H 0.6358 0.3425 0.1907
C18 C 0.4377(2) 0.29015(11) 0.0499(3)
H34 H 0.4368 0.3210 0.1149
H35 H 0.4015 0.2526 0.0675
H36 H 0.3908 0.3046 -0.0395
C19 C 0.5822(2) 0.23389(11) -0.0289(3)
H37 H 0.5414 0.2469 -0.1208
H38 H 0.5490 0.1948 -0.0151
H39 H 0.6696 0.2298 -0.0108
C20? C 0.1951(10) 0.3005(6) 0.1436(10)
C21? C 0.0346(11) 0.3729(6) 0.1220(13)
C22? C 0.1613(13) 0.3374(7) 0.3444(11)
H40? H 0.2675 0.2808 0.1973
H41? H -0.0381 0.3595 0.1388
H42? H 0.0212 0.3686 0.0274
H43? H 0.0511 0.4154 0.1479
H44? H 0.2201 0.3062 0.3910
H45? H 0.0842 0.3303 0.3581
H46? H 0.1930 0.3774 0.3792
loop_
_geom_bond_atom_site_label_1
_geom_bond_atom_site_label_2
_geom_bond_site_symmetry_1
_geom_bond_site_symmetry_2
I1 Ag1 1_555 1_555
Ag1 N1 1_555 1_555
N1 C1 1_555 1_555
N2 C4 1_555 1_555
N3 C4 1_555 1_555
N4 Ag1 1_555 1_555
N5 C9 1_555 1_555
N6 C9 1_555 1_555
C1 C2 1_555 1_555
C2 N4 1_555 1_555
C3 C1 1_555 1_555
H1 C3 1_555 1_555
C4 N1 1_555 1_555
C5 N2 1_555 1_555
H2 C5 1_555 1_555
H3 C5 1_555 1_555
H4 C5 1_555 1_555
C6 N2 1_555 1_555
H5 C6 1_555 1_555
H6 C6 1_555 1_555
H7 C6 1_555 1_555
C7 N3 1_555 1_555
H8 C7 1_555 1_555
H9 C7 1_555 1_555
H10 C7 1_555 1_555
C8 N3 1_555 1_555
H11 C8 1_555 1_555
H12 C8 1_555 1_555
H13 C8 1_555 1_555
C9 N4 1_555 1_555
C10 N5 1_555 1_555
H14 C10 1_555 1_555
H15 C10 1_555 1_555
H16 C10 1_555 1_555
C11 N5 1_555 1_555
H17 C11 1_555 1_555
H18 C11 1_555 1_555
H19 C11 1_555 1_555
C12 N6 1_555 1_555
H20 C12 1_555 1_555
H21 C12 1_555 1_555
H22 C12 1_555 1_555
C13 N6 1_555 1_555
H23 C13 1_555 1_555
H24 C13 1_555 1_555
H25 C13 1_555 1_555
O1 C14 1_555 1_555
N7 C14 1_555 1_555
C14 H26 1_555 1_555
C15 N7 1_555 1_555
H27 C15 1_555 1_555
H28 C15 1_555 1_555
H29 C15 1_555 1_555
C16 N7 1_555 1_555
H30 C16 1_555 1_555
H31 C16 1_555 1_555
H32 C16 1_555 1_555
O2 C17 1_555 1_555
N8 C17 1_555 1_555
C17 H33 1_555 1_555
C18 N8 1_555 1_555
H34 C18 1_555 1_555
H35 C18 1_555 1_555
H36 C18 1_555 1_555
C19 N8 1_555 1_555
H37 C19 1_555 1_555
H38 C19 1_555 1_555
H39 C19 1_555 1_555
I1B Ag1 1_555 1_555
I1_2 Ag1B_2 1_555 1_555
I1B_2 Ag1B_2 1_555 1_555
Ag1B I1 1_555 1_555
Ag1B_2 N1B 1_555 1_555
Ag1_2 I1_2 1_555 1_555
N1B C1B 1_555 1_555
N2B C4B 1_555 1_555
N3B C4B 1_555 1_555
N4B Ag1B_2 1_555 1_555
N5B C9B 1_555 1_555
N6B C9B 1_555 1_555
C1B C2B 1_555 1_555
C2B C3 1_555 1_555
C3B C2 1_555 1_555
H1B C3B 1_555 1_555
C4B N1B 1_555 1_555
C5B N2B 1_555 1_555
H2B C5B 1_555 1_555
H3B C5B 1_555 1_555
H4B C5B 1_555 1_555
C6B N2B 1_555 1_555
H5B C6B 1_555 1_555
H6B C6B 1_555 1_555
H7B C6B 1_555 1_555
C7B N3B 1_555 1_555
H8B C7B 1_555 1_555
H9B C7B 1_555 1_555
H10B C7B 1_555 1_555
C8B N3B 1_555 1_555
H11B C8B 1_555 1_555
H12B C8B 1_555 1_555
H13B C8B 1_555 1_555
C9B N4B 1_555 1_555
C10B N5B 1_555 1_555
H14B C10B 1_555 1_555
H15B C10B 1_555 1_555
H16B C10B 1_555 1_555
C11B N5B 1_555 1_555
H17B C11B 1_555 1_555
H18B C11B 1_555 1_555
H19B C11B 1_555 1_555
C12B N6B 1_555 1_555
H20B C12B 1_555 1_555
H21B C12B 1_555 1_555
H22B C12B 1_555 1_555
C13B N6B 1_555 1_555
H23B C13B 1_555 1_555
H24B C13B 1_555 1_555
H25B C13B 1_555 1_555
I1B Ag1B 1_555 1_555
I1B_2 Ag1_2 1_555 1_555
N4B C2B 1_555 1_555
C1B C3B 1_555 1_555

#END
