
#######################################################################
#
#                 Cambridge Crystallographic Data Centre
#                                CCDC 
#
#######################################################################
#
# If this CIF has been generated from an entry in the Cambridge 
# Structural Database, then it will include bibliographic, chemical, 
# crystal, experimental, refinement or atomic coordinate data resulting 
# from the CCDC's data processing and validation procedures.
#
#######################################################################

data_QATGOJ
_symmetry_cell_setting           triclinic
_symmetry_space_group_name_H-M   'P -1'
_symmetry_Int_Tables_number      2
_space_group_name_Hall           '-P 1'
loop_
_symmetry_equiv_pos_site_id
_symmetry_equiv_pos_as_xyz
1 x,y,z
2 -x,-y,-z
_cell_length_a                   10.2817(5)
_cell_length_b                   10.8136(5)
_cell_length_c                   13.9466(5)
_cell_angle_alpha                103.739(4)
_cell_angle_beta                 97.447(3)
_cell_angle_gamma                111.254(4)
_cell_volume                     1363.37
loop_
_atom_site_label
_atom_site_type_symbol
_atom_site_fract_x
_atom_site_fract_y
_atom_site_fract_z
Cd1 Cd 0.12782(4) 0.27350(3) -0.69020(3)
C1 C -0.3315(7) 0.0907(7) -0.7369(6)
C2 C -0.4147(6) 0.1653(6) -0.7187(5)
H1 H -0.3708 0.2621 -0.6945
C3 C -0.5636(6) 0.0976(7) -0.7360(6)
C4 C -0.6262(8) -0.0513(8) -0.7707(8)
H2 H -0.7253 -0.0992 -0.7832
C5 C -0.5422(9) -0.1248(8) -0.7859(9)
C6 C -0.3948(7) -0.0528(7) -0.7702(7)
H3 H -0.3380 -0.1023 -0.7824
C7 C -0.1695(6) 0.1667(7) -0.7176(6)
C8 C -0.6565(7) 0.1734(7) -0.7181(5)
C9 C 0.1866(9) 0.3999(8) -0.4389(5)
H4 H 0.2035 0.4828 -0.4540
C10 C 0.1897(9) 0.4037(8) -0.3399(5)
H5 H 0.2075 0.4862 -0.2903
C11 C 0.1658(9) 0.2813(9) -0.3152(5)
C12 C 0.1439(9) 0.1622(9) -0.3925(6)
H6 H 0.1308 0.0789 -0.3789
C13 C 0.1421(8) 0.1711(7) -0.4895(5)
H7 H 0.1265 0.0909 -0.5409
C14 C 0.1656(12) 0.2727(12) -0.2070(6)
H8 H 0.1731 0.1867 -0.2040
H9 H 0.2506 0.3493 -0.1608
C15 C 0.0437(12) 0.2769(14) -0.1717(7)
H10 H -0.0408 0.1960 -0.2143
H11 H 0.0315 0.3592 -0.1792
C16 C 0.0521(10) 0.2792(12) -0.0633(7)
C17 C 0.0000(10) 0.1677(13) -0.0358(8)
H12 H -0.0528 0.0822 -0.0855
C18 C 0.0206(9) 0.1725(12) 0.0648(8)
H13 H -0.0206 0.0882 0.0781
C19 C 0.1442(10) 0.3960(11) 0.1173(7)
H14 H 0.1956 0.4789 0.1699
C20 C 0.1281(10) 0.3997(12) 0.0168(8)
H15 H 0.1691 0.4844 0.0040
C21 C 0.1606(8) 0.5899(7) -0.6213(6)
H16 H 0.0613 0.5424 -0.6438
C22 C 0.2165(8) 0.7334(7) -0.5782(6)
H17 H 0.1557 0.7790 -0.5686
C23 C 0.3601(8) 0.8059(7) -0.5504(6)
C24 C 0.4418(9) 0.7289(7) -0.5616(9)
H18 H 0.5415 0.7748 -0.5434
C25 C 0.3789(8) 0.5859(7) -0.5990(8)
H19 H 0.4370 0.5369 -0.6007
C26 C 0.4216(8) 0.9642(7) -0.5083(8)
H20 H 0.3762 0.9986 -0.5548
H21 H 0.3960 0.9890 -0.4441
O1 O -0.1144(5) 0.2946(5) -0.6941(5)
O3 O -0.0987(4) 0.0940(5) -0.7258(4)
O5 O -0.6078(6) 0.3011(6) -0.7052(5)
O7 O -0.7839(5) 0.1063(5) -0.7155(4)
O8 O -0.6084(8) -0.2632(6) -0.8230(8)
H22 H -0.5565 -0.3132 -0.8392
N1 N 0.1616(6) 0.2881(5) -0.5148(4)
N2 N 0.0887(7) 0.2782(7) 0.1397(5)
N3 N 0.2382(5) 0.5159(5) -0.6328(4)
Cd1_2 Cd 1.12782(4) 0.27350(3) -0.69020(3)
Cd1_3 Cd -0.87218(4) 0.27350(3) -0.69020(3)
Cd1_4 Cd 0.12782(4) 0.27350(3) 0.30980(3)
Cd1A Cd 0.87218(4) 1.72650(3) -0.30980(3)
Cd1_5 Cd 0.12782(4) 0.27350(3) -1.69020(3)
C1_2 C 0.6685(7) 0.0907(7) -0.7369(6)
C2_2 C 0.5853(6) 0.1653(6) -0.7187(5)
H1_2 H 0.6292 0.2621 -0.6945
C3_2 C 0.4364(6) 0.0976(7) -0.7360(6)
C4_2 C 0.3738(8) -0.0513(8) -0.7707(8)
H2_2 H 0.2747 -0.0992 -0.7832
C5_2 C 0.4578(9) -0.1248(8) -0.7859(9)
C6_2 C 0.6052(7) -0.0528(7) -0.7702(7)
H3_2 H 0.6620 -0.1023 -0.7824
C7_2 C 0.8305(6) 0.1667(7) -0.7176(6)
C8_2 C 0.3435(7) 0.1734(7) -0.7181(5)
C9_2 C 0.1866(9) 0.3999(8) -1.4389(5)
H4_2 H 0.2035 0.4828 -1.4540
C10_2 C 0.1897(9) 0.4037(8) -1.3399(5)
H5_2 H 0.2075 0.4862 -1.2903
C11_2 C 0.1658(9) 0.2813(9) -1.3152(5)
C12_2 C 0.1439(9) 0.1622(9) -1.3925(6)
H6_2 H 0.1308 0.0789 -1.3789
C13_2 C 0.1421(8) 0.1711(7) -1.4895(5)
H7_2 H 0.1265 0.0909 -1.5409
C14_2 C 0.1656(12) 0.2727(12) -1.2070(6)
H8_2 H 0.1731 0.1867 -1.2040
H9_2 H 0.2506 0.3493 -1.1608
C15_2 C 0.0437(12) 0.2769(14) -1.1717(7)
H10_2 H -0.0408 0.1960 -1.2143
H11_2 H 0.0315 0.3592 -1.1792
C16_2 C 0.0521(10) 0.2792(12) -1.0633(7)
C17_2 C 0.0000(10) 0.1677(13) -1.0358(8)
H12_2 H -0.0528 0.0822 -1.0855
C18_2 C 0.0206(9) 0.1725(12) -0.9352(8)
H13_2 H -0.0206 0.0882 -0.9219
C19_2 C 0.1442(10) 0.3960(11) -0.8827(7)
H14_2 H 0.1956 0.4789 -0.8301
C20_2 C 0.1281(10) 0.3997(12) -0.9832(8)
H15_2 H 0.1691 0.4844 -0.9960
C21A C 0.8394(8) 1.4101(7) -0.3787(6)
H16A H 0.9387 1.4576 -0.3562
C22A C 0.7835(8) 1.2666(7) -0.4218(6)
H17A H 0.8443 1.2210 -0.4314
C23A C 0.6399(8) 1.1941(7) -0.4496(6)
C24A C 0.5582(9) 1.2711(7) -0.4384(9)
H18A H 0.4585 1.2252 -0.4566
C25A C 0.6211(8) 1.4141(7) -0.4010(8)
H19A H 0.5630 1.4631 -0.3993
C26A C 0.5784(8) 1.0358(7) -0.4917(8)
H20A H 0.6238 1.0014 -0.4452
H21A H 0.6040 1.0110 -0.5559
O1_2 O 0.8856(5) 0.2946(5) -0.6941(5)
O3_2 O 0.9013(4) 0.0940(5) -0.7258(4)
O5_2 O 0.3922(6) 0.3011(6) -0.7052(5)
O7_2 O 0.2161(5) 0.1063(5) -0.7155(4)
O7_3 O 1.2161(5) 0.1063(5) -0.7155(4)
O8_2 O 0.3916(8) -0.2632(6) -0.8230(8)
H22_2 H 0.4435 -0.3132 -0.8392
N1_2 N 0.1616(6) 0.2881(5) -1.5148(4)
N1_3 N 1.1616(6) 0.2881(5) -0.5148(4)
N2_2 N 0.0887(7) 0.2782(7) -0.8603(5)
N2_3 N 1.0887(7) 0.2782(7) -0.8603(5)
N3A N 0.7618(5) 1.4841(5) -0.3672(4)
N3_2 N 1.2382(5) 0.5159(5) -0.6328(4)
O2 O -0.4971(16) 0.399(4) -0.858(2)
O4 O -0.510(3) -0.4138(18) -0.9451(19)
O6 O -0.286(6) 0.329(4) -0.899(3)
loop_
_geom_bond_atom_site_label_1
_geom_bond_atom_site_label_2
_geom_bond_site_symmetry_1
_geom_bond_site_symmetry_2
Cd1 O1 1_555 1_555
C1 C2 1_555 1_555
C2 H1 1_555 1_555
C3 C2 1_555 1_555
C4 C3 1_555 1_555
H2 C4 1_555 1_555
C5 C4 1_555 1_555
C6 C1 1_555 1_555
H3 C6 1_555 1_555
C7 C1 1_555 1_555
C8 C3 1_555 1_555
C9 H4 1_555 1_555
C10 C9 1_555 1_555
H5 C10 1_555 1_555
C11 C10 1_555 1_555
C12 C11 1_555 1_555
H6 C12 1_555 1_555
C13 C12 1_555 1_555
H7 C13 1_555 1_555
C14 C11 1_555 1_555
H8 C14 1_555 1_555
H9 C14 1_555 1_555
C15 C14 1_555 1_555
H10 C15 1_555 1_555
H11 C15 1_555 1_555
C16 C15 1_555 1_555
C17 C16 1_555 1_555
H12 C17 1_555 1_555
C18 C17 1_555 1_555
H13 C18 1_555 1_555
C19 H14 1_555 1_555
C20 C16 1_555 1_555
H15 C20 1_555 1_555
C21 H16 1_555 1_555
C22 C21 1_555 1_555
H17 C22 1_555 1_555
C23 C22 1_555 1_555
C24 C23 1_555 1_555
H18 C24 1_555 1_555
C25 C24 1_555 1_555
H19 C25 1_555 1_555
C26 C23 1_555 1_555
H20 C26 1_555 1_555
H21 C26 1_555 1_555
O1 C7 1_555 1_555
O3 Cd1 1_555 1_555
O5 C8 1_555 1_555
O7 C8 1_555 1_555
O8 C5 1_555 1_555
H22 O8 1_555 1_555
N1 Cd1 1_555 1_555
N2 C18 1_555 1_555
N3 Cd1 1_555 1_555
Cd1_2 O1_2 1_555 1_555
Cd1_3 O7 1_555 1_555
Cd1_4 N2 1_555 1_555
Cd1A N3A 1_555 1_555
Cd1_5 N1_2 1_555 1_555
C1_2 C2_2 1_555 1_555
C2_2 H1_2 1_555 1_555
C3_2 C2_2 1_555 1_555
C4_2 C3_2 1_555 1_555
H2_2 C4_2 1_555 1_555
C5_2 C4_2 1_555 1_555
C6_2 C1_2 1_555 1_555
H3_2 C6_2 1_555 1_555
C7_2 C1_2 1_555 1_555
C8_2 C3_2 1_555 1_555
C9_2 H4_2 1_555 1_555
C10_2 C9_2 1_555 1_555
H5_2 C10_2 1_555 1_555
C11_2 C10_2 1_555 1_555
C12_2 C11_2 1_555 1_555
H6_2 C12_2 1_555 1_555
C13_2 C12_2 1_555 1_555
H7_2 C13_2 1_555 1_555
C14_2 C11_2 1_555 1_555
H8_2 C14_2 1_555 1_555
H9_2 C14_2 1_555 1_555
C15_2 C14_2 1_555 1_555
H10_2 C15_2 1_555 1_555
H11_2 C15_2 1_555 1_555
C16_2 C15_2 1_555 1_555
C17_2 C16_2 1_555 1_555
H12_2 C17_2 1_555 1_555
C18_2 C17_2 1_555 1_555
H13_2 C18_2 1_555 1_555
C19_2 H14_2 1_555 1_555
C20_2 C16_2 1_555 1_555
H15_2 C20_2 1_555 1_555
C21A H16A 1_555 1_555
C22A C21A 1_555 1_555
H17A C22A 1_555 1_555
C23A C22A 1_555 1_555
C24A C23A 1_555 1_555
H18A C24A 1_555 1_555
C25A C24A 1_555 1_555
H19A C25A 1_555 1_555
C26A C26 1_555 1_555
H20A C26A 1_555 1_555
H21A C26A 1_555 1_555
O1_2 C7_2 1_555 1_555
O3_2 Cd1_2 1_555 1_555
O5_2 C8_2 1_555 1_555
O7_2 Cd1 1_555 1_555
O7_3 Cd1_2 1_555 1_555
O8_2 C5_2 1_555 1_555
H22_2 O8_2 1_555 1_555
N1_2 C9_2 1_555 1_555
N1_3 Cd1_2 1_555 1_555
N2_2 Cd1 1_555 1_555
N2_3 Cd1_2 1_555 1_555
N3A C21A 1_555 1_555
N3_2 Cd1_2 1_555 1_555
C5 C6 1_555 1_555
C7 O3 1_555 1_555
C9 N1 1_555 1_555
C13 N1 1_555 1_555
C19 C20 1_555 1_555
C19 N2 1_555 1_555
C21 N3 1_555 1_555
C25 N3 1_555 1_555
C5_2 C6_2 1_555 1_555
C7_2 O3_2 1_555 1_555
C8_2 O7_2 1_555 1_555
C13_2 N1_2 1_555 1_555
C18_2 N2_2 1_555 1_555
C19_2 C20_2 1_555 1_555
C19_2 N2_2 1_555 1_555
C23A C26A 1_555 1_555
C25A N3A 1_555 1_555

#END
