
#######################################################################
#
#                 Cambridge Crystallographic Data Centre
#                                CCDC 
#
#######################################################################
#
# If this CIF has been generated from an entry in the Cambridge 
# Structural Database, then it will include bibliographic, chemical, 
# crystal, experimental, refinement or atomic coordinate data resulting 
# from the CCDC's data processing and validation procedures.
#
#######################################################################

data_QATHEA
_symmetry_cell_setting           triclinic
_symmetry_space_group_name_H-M   'P -1'
_symmetry_Int_Tables_number      2
_space_group_name_Hall           '-P 1'
loop_
_symmetry_equiv_pos_site_id
_symmetry_equiv_pos_as_xyz
1 x,y,z
2 -x,-y,-z
_cell_length_a                   9.66350(10)
_cell_length_b                   9.92210(10)
_cell_length_c                   12.9340(2)
_cell_angle_alpha                111.1130(10)
_cell_angle_beta                 105.5040(10)
_cell_angle_gamma                93.3500(10)
_cell_volume                     1098.16
loop_
_atom_site_label
_atom_site_type_symbol
_atom_site_fract_x
_atom_site_fract_y
_atom_site_fract_z
Cd1 Cd 0.33973(3) 0.53362(3) 0.21824(2)
O1 O 0.3645(4) 0.3472(3) 0.0559(3)
O3 O 0.4588(4) 0.3347(3) 0.2251(3)
O5 O 0.2863(3) 0.6058(3) 0.3921(2)
O6 O 0.1365(3) 0.4180(3) 0.2484(2)
O7 O -0.0505(4) 0.8792(4) -0.1503(3)
H5 H -0.0728 0.7897 -0.1831
O8 O 1.0761(5) 0.8847(5) 0.3929(5)
H6 H 1.1350 0.9333 0.3791
N1 N 0.5528(4) 0.6953(4) 0.2952(3)
N2 N 0.2014(3) 0.6490(4) 0.1176(3)
C1 C 0.4269(4) 0.2819(4) 0.1159(4)
C2 C 0.4656(4) 0.1354(4) 0.0559(3)
C3 C 0.5403(5) 0.0615(5) 0.1205(4)
H7 H 0.5669 0.1028 0.2014
C4 C 0.4251(5) 0.0726(5) -0.0645(4)
H8 H 0.3742 0.1213 -0.1079
C5 C 0.1758(4) 0.5076(4) 0.3525(3)
C6 C 0.0856(4) 0.5021(4) 0.4294(3)
C7 C -0.0398(5) 0.3981(5) 0.3865(4)
H9 H -0.0666 0.3290 0.3103
C8 C 0.1252(5) 0.6034(5) 0.5433(4)
H10 H 0.2097 0.6728 0.5728
C9 C 0.6775(5) 0.6412(6) 0.3070(6)
H11 H 0.6723 0.5403 0.2838
C10 C 0.8124(6) 0.7281(6) 0.3517(7)
H12 H 0.8957 0.6854 0.3579
C11 C 0.8251(5) 0.8754(6) 0.3866(5)
C12 C 0.6956(5) 0.9333(5) 0.3797(5)
H13 H 0.6988 1.0342 0.4071
C13 C 0.5633(5) 0.8396(5) 0.3320(4)
H14 H 0.4782 0.8794 0.3255
C14 C 0.9785(6) 0.9716(6) 0.4340(5)
H15 H 0.9751 1.0536 0.4087
C15 C 0.2507(5) 0.7030(5) 0.0517(4)
H16 H 0.3387 0.6812 0.0393
C16 C 0.1789(5) 0.7895(5) 0.0007(4)
H17 H 0.2180 0.8254 -0.0445
C17 C 0.0464(4) 0.8226(4) 0.0179(3)
C18 C -0.0056(5) 0.7637(5) 0.0840(4)
H18 H -0.0947 0.7811 0.0961
C19 C 0.0743(5) 0.6787(5) 0.1325(4)
H19 H 0.0375 0.6405 0.1777
C20 C -0.0354(5) 0.9210(4) -0.0329(3)
H20 H -0.1335 0.9121 -0.0255
Cd1A Cd 0.66027(3) -0.53362(3) -0.21824(2)
Cd1A_2 Cd -0.33973(3) 0.46638(3) 0.78176(2)
Cd1A_3 Cd -0.33973(3) 1.46638(3) -0.21824(2)
Cd1A_4 Cd 1.66027(3) 1.46638(3) 0.78176(2)
O1A O 0.6355(4) -0.3472(3) -0.0559(3)
O3A O 0.5412(4) -0.3347(3) -0.2251(3)
O5A O -0.2863(3) 0.3942(3) 0.6079(2)
O5A_2 O 0.7137(3) -0.6058(3) -0.3921(2)
O6A O -0.1365(3) 0.5820(3) 0.7516(2)
O6A_2 O 0.8635(3) -0.4180(3) -0.2484(2)
O7A O 0.0505(4) 1.1208(4) 0.1503(3)
H5A H 0.0728 1.2103 0.1831
O8A O 0.9239(5) 1.1153(5) 0.6071(5)
H6A H 0.8650 1.0667 0.6209
N1A N 1.4472(4) 1.3047(4) 0.7048(3)
N1A_2 N 0.4472(4) -0.6953(4) -0.2952(3)
N2A N -0.2014(3) 1.3510(4) -0.1176(3)
N2A_2 N 0.7986(3) -0.6490(4) -0.1176(3)
C1A C 0.5731(4) -0.2819(4) -0.1159(4)
C2A C 0.5344(4) -0.1354(4) -0.0559(3)
C3A C 0.4597(5) -0.0615(5) -0.1205(4)
H7A H 0.4331 -0.1028 -0.2014
C4A C 0.5749(5) -0.0726(5) 0.0645(4)
H8A H 0.6258 -0.1213 0.1079
C5A C -0.1758(4) 0.4924(4) 0.6475(3)
C6A C -0.0856(4) 0.4979(4) 0.5706(3)
C7A C 0.0398(5) 0.6019(5) 0.6135(4)
H9A H 0.0666 0.6710 0.6897
C8A C -0.1252(5) 0.3966(5) 0.4567(4)
H10A H -0.2097 0.3272 0.4272
C9A C 1.3225(5) 1.3588(6) 0.6930(6)
H11A H 1.3277 1.4597 0.7162
C10A C 1.1876(6) 1.2719(6) 0.6483(7)
H12A H 1.1043 1.3146 0.6421
C11A C 1.1749(5) 1.1246(6) 0.6134(5)
C12A C 1.3044(5) 1.0667(5) 0.6203(5)
H13A H 1.3012 0.9658 0.5929
C13A C 1.4367(5) 1.1604(5) 0.6680(4)
H14A H 1.5218 1.1206 0.6745
C14A C 1.0215(6) 1.0284(6) 0.5660(5)
H15A H 1.0249 0.9464 0.5913
C15A C -0.2507(5) 1.2970(5) -0.0517(4)
H16A H -0.3387 1.3188 -0.0393
C16A C -0.1789(5) 1.2105(5) -0.0007(4)
H17A H -0.2180 1.1746 0.0445
C17A C -0.0464(4) 1.1774(4) -0.0179(3)
C18A C 0.0056(5) 1.2363(5) -0.0840(4)
H18A H 0.0947 1.2189 -0.0961
C19A C -0.0743(5) 1.3213(5) -0.1325(4)
H19A H -0.0375 1.3595 -0.1777
C20A C 0.0354(5) 1.0790(4) 0.0329(3)
H20A H 0.1335 1.0879 0.0255
O2 O 0.2446(4) 0.0321(5) 0.3177(4)
H1 H 0.3118 0.1067 0.3565
H2 H 0.2060 0.0452 0.2424
O4 O 0.4862(6) 0.2373(6) 0.4053(4)
H3 H 0.4890 0.2807 0.3554
H4 H 0.5660 0.2840 0.4612
loop_
_geom_bond_atom_site_label_1
_geom_bond_atom_site_label_2
_geom_bond_site_symmetry_1
_geom_bond_site_symmetry_2
Cd1 O1 1_555 1_555
O1 C1 1_555 1_555
O2 H1 1_555 1_555
H2 O2 1_555 1_555
O3 Cd1 1_555 1_555
O4 H3 1_555 1_555
H4 O4 1_555 1_555
O5 Cd1 1_555 1_555
O6 Cd1 1_555 1_555
O7 H5 1_555 1_555
O8 H6 1_555 1_555
N1 Cd1 1_555 1_555
N2 Cd1 1_555 1_555
C1 O3 1_555 1_555
C2 C1 1_555 1_555
C3 C2 1_555 1_555
H7 C3 1_555 1_555
C4 C2 1_555 1_555
H8 C4 1_555 1_555
C5 O5 1_555 1_555
C6 C5 1_555 1_555
C7 C6 1_555 1_555
H9 C7 1_555 1_555
C8 C6 1_555 1_555
H10 C8 1_555 1_555
C9 N1 1_555 1_555
H11 C9 1_555 1_555
C10 C9 1_555 1_555
H12 C10 1_555 1_555
C11 C10 1_555 1_555
C12 C11 1_555 1_555
H13 C12 1_555 1_555
C13 N1 1_555 1_555
H14 C13 1_555 1_555
C14 O8 1_555 1_555
H15 C14 1_555 1_555
C15 N2 1_555 1_555
H16 C15 1_555 1_555
C16 C15 1_555 1_555
H17 C16 1_555 1_555
C17 C16 1_555 1_555
C18 C17 1_555 1_555
H18 C18 1_555 1_555
C19 N2 1_555 1_555
H19 C19 1_555 1_555
C20 O7 1_555 1_555
H20 C20 1_555 1_555
Cd1A O1A 1_555 1_555
Cd1A_2 O5A 1_555 1_555
Cd1A_3 N2A 1_555 1_555
Cd1A_4 N1A 1_555 1_555
O1A C1A 1_555 1_555
O3A Cd1A 1_555 1_555
O5A C5A 1_555 1_555
O5A_2 Cd1A 1_555 1_555
O6A Cd1A_2 1_555 1_555
O6A_2 Cd1A 1_555 1_555
O7A H5A 1_555 1_555
O8A H6A 1_555 1_555
N1A C9A 1_555 1_555
N1A_2 Cd1A 1_555 1_555
N2A C15A 1_555 1_555
N2A_2 Cd1A 1_555 1_555
C1A O3A 1_555 1_555
C2A C1A 1_555 1_555
C3A C4 1_555 1_555
H7A C3A 1_555 1_555
C4A C3 1_555 1_555
H8A C4A 1_555 1_555
C5A O6A 1_555 1_555
C6A C5A 1_555 1_555
C7A C8 1_555 1_555
H9A C7A 1_555 1_555
C8A C7 1_555 1_555
H10A C8A 1_555 1_555
C9A H11A 1_555 1_555
C10A C9A 1_555 1_555
H12A C10A 1_555 1_555
C11A C10A 1_555 1_555
C12A C11A 1_555 1_555
H13A C12A 1_555 1_555
C13A N1A 1_555 1_555
H14A C13A 1_555 1_555
C14A C14 1_555 1_555
H15A C14A 1_555 1_555
C15A H16A 1_555 1_555
C16A C15A 1_555 1_555
H17A C16A 1_555 1_555
C17A C16A 1_555 1_555
C18A C17A 1_555 1_555
H18A C18A 1_555 1_555
C19A N2A 1_555 1_555
H19A C19A 1_555 1_555
C20A C20 1_555 1_555
H20A C20A 1_555 1_555
O6 C5 1_555 1_555
C11 C14 1_555 1_555
C12 C13 1_555 1_555
C17 C20 1_555 1_555
C18 C19 1_555 1_555
O7A C20A 1_555 1_555
O8A C14A 1_555 1_555
C2A C3A 1_555 1_555
C2A C4A 1_555 1_555
C6A C7A 1_555 1_555
C6A C8A 1_555 1_555
C11A C14A 1_555 1_555
C12A C13A 1_555 1_555
C17A C20A 1_555 1_555
C18A C19A 1_555 1_555

#END
