
#######################################################################
#
#                 Cambridge Crystallographic Data Centre
#                                CCDC 
#
#######################################################################
#
# If this CIF has been generated from an entry in the Cambridge 
# Structural Database, then it will include bibliographic, chemical, 
# crystal, experimental, refinement or atomic coordinate data resulting 
# from the CCDC's data processing and validation procedures.
#
#######################################################################

data_QATHIE
_symmetry_cell_setting           triclinic
_symmetry_space_group_name_H-M   'P -1'
_symmetry_Int_Tables_number      2
_space_group_name_Hall           '-P 1'
loop_
_symmetry_equiv_pos_site_id
_symmetry_equiv_pos_as_xyz
1 x,y,z
2 -x,-y,-z
_cell_length_a                   9.3341(19)
_cell_length_b                   9.758(2)
_cell_length_c                   12.862(3)
_cell_angle_alpha                111.83(3)
_cell_angle_beta                 104.59(3)
_cell_angle_gamma                91.64(3)
_cell_volume                     1042.63
loop_
_atom_site_label
_atom_site_type_symbol
_atom_site_fract_x
_atom_site_fract_y
_atom_site_fract_z
O1 O 0.7527(6) 0.9568(6) 0.1841(5)
H1 H 0.6911 0.8923 0.1548
H2 H 0.7955 0.9107 0.2132
Zn1 Zn 0.65574(7) 0.45615(7) 0.27803(6)
O2 O 0.8698(5) 0.5822(5) 0.2627(4)
O3 O 0.7130(5) 0.3974(5) 0.1213(4)
O4 O 0.6246(6) 0.6313(5) 0.4359(5)
O5 O 0.5477(6) 0.6543(5) 0.2720(5)
O6 O 1.0425(8) 0.1243(6) 0.6501(5)
H3 H 1.0717 0.2140 0.6834
O7 O -0.0824(8) 0.1125(8) 0.1093(8)
H4 H -0.1275 0.0698 0.1381
N1 N 0.7882(5) 0.3532(5) 0.3735(4)
N2 N 0.4569(5) 0.3091(5) 0.2067(4)
C1 C 0.8272(7) 0.4942(7) 0.1578(6)
C2 C 0.9143(6) 0.4984(6) 0.0740(5)
C3 C 0.8716(7) 0.3973(7) -0.0412(5)
H7 H 0.7861 0.3283 -0.0685
C4 C 1.0440(7) 0.6017(7) 0.1165(6)
H8 H 1.0735 0.6689 0.1940
C5 C 0.5716(7) 0.7071(7) 0.3804(8)
C6 C 0.5343(6) 0.8592(6) 0.4425(6)
C7 C 0.5718(7) 0.9212(7) 0.5625(6)
H9 H 0.6204 0.8683 0.6047
C8 C 0.4621(7) 0.9376(7) 0.3785(6)
H10 H 0.4368 0.8963 0.2973
C9 C 0.7354(7) 0.3061(7) 0.4427(6)
H11 H 0.6441 0.3319 0.4548
C10 C 0.8102(7) 0.2201(7) 0.4976(6)
H12 H 0.7692 0.1890 0.5453
C11 C 0.9476(6) 0.1805(6) 0.4809(5)
C12 C 1.0041(7) 0.2353(7) 0.4136(6)
H13 H 1.0972 0.2147 0.4027
C13 C 0.9235(7) 0.3212(7) 0.3614(6)
H14 H 0.9645 0.3579 0.3166
C14 C 1.0304(7) 0.0802(6) 0.5347(6)
C15 C 0.4516(7) 0.1610(7) 0.1630(6)
H15 H 0.5414 0.1217 0.1676
C16 C 0.3201(8) 0.0627(8) 0.1112(7)
H16 H 0.3223 -0.0396 0.0811
C17 C 0.1841(9) 0.1196(9) 0.1050(8)
C18 C 0.1900(8) 0.2720(9) 0.1506(9)
H17 H 0.1022 0.3148 0.1490
C19 C 0.3253(7) 0.3610(8) 0.1984(8)
H18 H 0.3257 0.4637 0.2268
C20 C 0.0203(10) 0.0231(9) 0.0630(7)
Zn1A Zn 1.34426(7) 0.54385(7) -0.27803(6)
Zn1A_2 Zn 0.34426(7) 1.54385(7) 0.72197(6)
Zn1A_3 Zn 1.34426(7) -0.45615(7) 0.72197(6)
Zn1A_4 Zn -0.65574(7) -0.45615(7) -0.27803(6)
O2A O 1.1302(5) 0.4178(5) -0.2627(4)
O3A O 1.2870(5) 0.6026(5) -0.1213(4)
O4A O 0.3754(6) 1.3687(5) 0.5641(5)
O4A_2 O 1.3754(6) 0.3687(5) -0.4359(5)
O5A O 0.4523(6) 1.3457(5) 0.7280(5)
O5A_2 O 1.4523(6) 0.3457(5) -0.2720(5)
O6A O 0.9575(8) -0.1243(6) 0.3499(5)
H3A H 0.9283 -0.2140 0.3166
O7A O 0.0824(8) -0.1125(8) -0.1093(8)
H4A H 0.1275 -0.0698 -0.1381
N1A N 1.2118(5) -0.3532(5) 0.6265(4)
N1A_2 N 1.2118(5) 0.6468(5) -0.3735(4)
N2A N -0.4569(5) -0.3091(5) -0.2067(4)
N2A_2 N 1.5431(5) 0.6909(5) -0.2067(4)
C1A C 1.1728(7) 0.5058(7) -0.1578(6)
C2A C 1.0857(6) 0.5016(6) -0.0740(5)
C3A C 1.1284(7) 0.6027(7) 0.0412(5)
H7A H 1.2139 0.6717 0.0685
C4A C 0.9560(7) 0.3983(7) -0.1165(6)
H8A H 0.9265 0.3311 -0.1940
C5A C 0.4284(7) 1.2929(7) 0.6196(8)
C6A C 0.4657(6) 1.1408(6) 0.5575(6)
C7A C 0.4282(7) 1.0788(7) 0.4375(6)
H9A H 0.3796 1.1317 0.3953
C8A C 0.5379(7) 1.0624(7) 0.6215(6)
H10A H 0.5632 1.1037 0.7027
C9A C 1.2646(7) -0.3061(7) 0.5573(6)
H11A H 1.3559 -0.3319 0.5452
C10A C 1.1898(7) -0.2201(7) 0.5024(6)
H12A H 1.2308 -0.1890 0.4547
C11A C 1.0524(6) -0.1805(6) 0.5191(5)
C12A C 0.9959(7) -0.2353(7) 0.5864(6)
H13A H 0.9028 -0.2147 0.5973
C13A C 1.0765(7) -0.3212(7) 0.6386(6)
H14A H 1.0355 -0.3579 0.6834
C14A C 0.9696(7) -0.0802(6) 0.4653(6)
C15A C -0.4516(7) -0.1610(7) -0.1630(6)
H15A H -0.5414 -0.1217 -0.1676
C16A C -0.3201(8) -0.0627(8) -0.1112(7)
H16A H -0.3223 0.0396 -0.0811
C17A C -0.1841(9) -0.1196(9) -0.1050(8)
C18A C -0.1900(8) -0.2720(9) -0.1506(9)
H17A H -0.1022 -0.3148 -0.1490
C19A C -0.3253(7) -0.3610(8) -0.1984(8)
H18A H -0.3257 -0.4637 -0.2268
C20A C -0.0203(10) -0.0231(9) -0.0630(7)
O8 O 0.5341(9) 0.7203(9) 0.0782(6)
H5 H 0.5201 0.7318 0.1356
H6 H 0.4714 0.6836 0.0231
H19? H 1.1602 0.2191 0.6396
H20? H -0.0274 -0.1357 0.0770
O9? O 1.1540(16) 0.1285(16) 0.6056(15)
O10? O 0.0080(19) -0.049(2) 0.1208(15)
loop_
_geom_bond_atom_site_label_1
_geom_bond_atom_site_label_2
_geom_bond_site_symmetry_1
_geom_bond_site_symmetry_2
O1 H1 1_555 1_555
H2 O1 1_555 1_555
Zn1 O2 1_555 1_555
O2 C1 1_555 1_555
O3 Zn1 1_555 1_555
O4 Zn1 1_555 1_555
O5 Zn1 1_555 1_555
O6 H3 1_555 1_555
O7 H4 1_555 1_555
O8 H5 1_555 1_555
H6 O8 1_555 1_555
N1 Zn1 1_555 1_555
N2 Zn1 1_555 1_555
C1 O3 1_555 1_555
C2 C1 1_555 1_555
C3 C2 1_555 1_555
H7 C3 1_555 1_555
C4 C2 1_555 1_555
H8 C4 1_555 1_555
C5 O4 1_555 1_555
C6 C5 1_555 1_555
C7 C6 1_555 1_555
H9 C7 1_555 1_555
C8 C6 1_555 1_555
H10 C8 1_555 1_555
C9 N1 1_555 1_555
H11 C9 1_555 1_555
C10 C9 1_555 1_555
H12 C10 1_555 1_555
C11 C10 1_555 1_555
C12 C11 1_555 1_555
H13 C12 1_555 1_555
C13 N1 1_555 1_555
H14 C13 1_555 1_555
C14 O6 1_555 1_555
C15 N2 1_555 1_555
H15 C15 1_555 1_555
C16 C15 1_555 1_555
H16 C16 1_555 1_555
C17 C16 1_555 1_555
C18 C17 1_555 1_555
H17 C18 1_555 1_555
C19 N2 1_555 1_555
H18 C19 1_555 1_555
C20 O7 1_555 1_555
Zn1A O2A 1_555 1_555
Zn1A_2 O4A 1_555 1_555
Zn1A_3 N1A 1_555 1_555
Zn1A_4 N2A 1_555 1_555
O2A C1A 1_555 1_555
O3A Zn1A 1_555 1_555
O4A C5A 1_555 1_555
O4A_2 Zn1A 1_555 1_555
O5A Zn1A_2 1_555 1_555
O5A_2 Zn1A 1_555 1_555
O6A H3A 1_555 1_555
O7A H4A 1_555 1_555
N1A C9A 1_555 1_555
N1A_2 Zn1A 1_555 1_555
N2A C15A 1_555 1_555
N2A_2 Zn1A 1_555 1_555
C1A O3A 1_555 1_555
C2A C1A 1_555 1_555
C3A C4 1_555 1_555
H7A C3A 1_555 1_555
C4A C3 1_555 1_555
H8A C4A 1_555 1_555
C5A O5A 1_555 1_555
C6A C5A 1_555 1_555
C7A C8 1_555 1_555
H9A C7A 1_555 1_555
C8A C7 1_555 1_555
H10A C8A 1_555 1_555
C9A H11A 1_555 1_555
C10A C9A 1_555 1_555
H12A C10A 1_555 1_555
C11A C10A 1_555 1_555
C12A C11A 1_555 1_555
H13A C12A 1_555 1_555
C13A N1A 1_555 1_555
H14A C13A 1_555 1_555
C14A C14 1_555 1_555
C15A H15A 1_555 1_555
C16A C15A 1_555 1_555
H16A C16A 1_555 1_555
C17A C16A 1_555 1_555
C18A C17A 1_555 1_555
H17A C18A 1_555 1_555
C19A N2A 1_555 1_555
H18A C19A 1_555 1_555
C20A C20 1_555 1_555
O5 C5 1_555 1_555
C11 C14 1_555 1_555
C12 C13 1_555 1_555
C17 C20 1_555 1_555
C18 C19 1_555 1_555
O6A C14A 1_555 1_555
O7A C20A 1_555 1_555
C2A C3A 1_555 1_555
C2A C4A 1_555 1_555
C6A C7A 1_555 1_555
C6A C8A 1_555 1_555
C11A C14A 1_555 1_555
C12A C13A 1_555 1_555
C17A C20A 1_555 1_555
C18A C19A 1_555 1_555

#END
