
#######################################################################
#
#                 Cambridge Crystallographic Data Centre
#                                CCDC 
#
#######################################################################
#
# If this CIF has been generated from an entry in the Cambridge 
# Structural Database, then it will include bibliographic, chemical, 
# crystal, experimental, refinement or atomic coordinate data resulting 
# from the CCDC's data processing and validation procedures.
#
#######################################################################

data_QATHOK
_symmetry_cell_setting           rhombohedral
_symmetry_space_group_name_H-M   'R -3'
_symmetry_Int_Tables_number      148
_space_group_name_Hall           '-R 3'
loop_
_symmetry_equiv_pos_site_id
_symmetry_equiv_pos_as_xyz
1 x,y,z
2 -y,x-y,z
3 -x+y,-x,z
4 2/3+x,1/3+y,1/3+z
5 2/3-y,1/3+x-y,1/3+z
6 2/3-x+y,1/3-x,1/3+z
7 1/3+x,2/3+y,2/3+z
8 1/3-y,2/3+x-y,2/3+z
9 1/3-x+y,2/3-x,2/3+z
10 -x,-y,-z
11 y,-x+y,-z
12 x-y,x,-z
13 1/3-x,2/3-y,2/3-z
14 1/3+y,2/3-x+y,2/3-z
15 1/3+x-y,2/3+x,2/3-z
16 2/3-x,1/3-y,1/3-z
17 2/3+y,1/3-x+y,1/3-z
18 2/3+x-y,1/3+x,1/3-z
_cell_length_a                   29.9118(16)
_cell_length_b                   29.9118(16)
_cell_length_c                   13.7506(15)
_cell_angle_alpha                90
_cell_angle_beta                 90
_cell_angle_gamma                120
_cell_volume                     10654.6
loop_
_atom_site_label
_atom_site_type_symbol
_atom_site_fract_x
_atom_site_fract_y
_atom_site_fract_z
Cd1 Cd 0.39268(2) 0.01307(2) 0.45919(4)
O1 O 0.3574(2) 0.0353(2) 0.3260(4)
O2 O 0.3269(2) 0.0851(2) 0.2719(4)
O3 O 0.4492(2) 0.3969(2) 0.6200(4)
O4 O 0.4824(3) 0.3518(3) 0.6814(6)
N1 N 0.3794(2) 0.0823(2) 0.5020(4)
N2 N 0.3695(2) 0.3114(2) 0.5465(4)
N3 N 0.4769(3) 0.0707(2) 0.4128(5)
C1 C 0.3612(3) 0.0999(3) 0.4321(5)
C2 C 0.3565(3) 0.1424(3) 0.4440(5)
H1 H 0.3423 0.1528 0.3948
C3 C 0.3729(3) 0.1705(3) 0.5310(5)
C4 C 0.3909(3) 0.1520(3) 0.6011(6)
H2 H 0.4016 0.1690 0.6605
C5 C 0.3935(3) 0.1075(3) 0.5843(5)
H3 H 0.4058 0.0952 0.6335
C6 C 0.3473(3) 0.0711(3) 0.3364(5)
C7 C 0.4086(3) 0.3073(3) 0.5898(5)
C8 C 0.4093(3) 0.2621(3) 0.5888(5)
H4 H 0.4357 0.2601 0.6204
C9 C 0.3707(3) 0.2187(3) 0.5414(5)
C10 C 0.3306(3) 0.2227(3) 0.4997(5)
H5 H 0.3034 0.1941 0.4700
C11 C 0.3312(3) 0.2698(3) 0.5023(6)
H6 H 0.3046 0.2723 0.4729
C12 C 0.4488(4) 0.3554(4) 0.6345(6)
C13 C 0.4867(4) 0.1020(3) 0.3376(7)
H7 H 0.4590 0.0988 0.3012
C14 C 0.5363(4) 0.1395(4) 0.3105(8)
H8 H 0.5414 0.1617 0.2589
C15 C 0.5770(4) 0.1431(5) 0.3604(9)
H9 H 0.6105 0.1673 0.3422
C16 C 0.5689(5) 0.1119(5) 0.4353(10)
H10 H 0.5967 0.1138 0.4694
C17 C 0.5168(4) 0.0753(4) 0.4631(7)
H11 H 0.5110 0.0544 0.5173
Cd1G Cd 0.32026(2) 0.04628(3) 0.12586(4)
Cd1K Cd 0.37961(3) 0.39268(2) 0.54081(4)
O2E O 0.4249(3) 0.0064(2) 0.6052(4)
O3J O 0.3969(2) -0.0523(3) 0.3800(4)
N2J N 0.3114(2) -0.0581(3) 0.4535(4)
O5 O 0.4341(10) -0.1231(7) 0.196(2)
H12 H 0.4650 -0.1084 0.2131
H13 H 0.4157 -0.1220 0.2410
H14? H 0.4998 -0.1160 0.2401
H15? H 0.5271 -0.1218 0.1662
O6? O 0.528(2) -0.1121(18) 0.223(2)
loop_
_geom_bond_atom_site_label_1
_geom_bond_atom_site_label_2
_geom_bond_site_symmetry_1
_geom_bond_site_symmetry_2
Cd1 O1 1_555 1_555
O1 C6 1_555 1_555
O2 C6 1_555 1_555
O3 C12 1_555 1_555
O4 C12 1_555 1_555
N1 Cd1 1_555 1_555
N2 C7 1_555 1_555
N3 Cd1 1_555 1_555
C1 N1 1_555 1_555
C2 C1 1_555 1_555
H1 C2 1_555 1_555
C3 C2 1_555 1_555
C4 C3 1_555 1_555
H2 C4 1_555 1_555
C5 N1 1_555 1_555
H3 C5 1_555 1_555
C6 C1 1_555 1_555
C7 C8 1_555 1_555
C8 H4 1_555 1_555
C9 C3 1_555 1_555
C10 C9 1_555 1_555
H5 C10 1_555 1_555
C11 N2 1_555 1_555
H6 C11 1_555 1_555
C12 C7 1_555 1_555
C13 N3 1_555 1_555
H7 C13 1_555 1_555
C14 C13 1_555 1_555
H8 C14 1_555 1_555
C15 C14 1_555 1_555
H9 C15 1_555 1_555
C16 C15 1_555 1_555
H10 C16 1_555 1_555
C17 N3 1_555 1_555
H11 C17 1_555 1_555
O5 H12 1_555 1_555
H13 O5 1_555 1_555
Cd1G O2 1_555 1_555
Cd1K O3 1_555 1_555
O2E Cd1 1_555 1_555
O3J Cd1 1_555 1_555
N2J Cd1 1_555 1_555
N2 Cd1K 1_555 1_555
C4 C5 1_555 1_555
C8 C9 1_555 1_555
C10 C11 1_555 1_555
C16 C17 1_555 1_555

#END
