
#######################################################################
#
#                 Cambridge Crystallographic Data Centre
#                                CCDC 
#
#######################################################################
#
# If this CIF has been generated from an entry in the Cambridge 
# Structural Database, then it will include bibliographic, chemical, 
# crystal, experimental, refinement or atomic coordinate data resulting 
# from the CCDC's data processing and validation procedures.
#
#######################################################################

data_QATJOM
_symmetry_cell_setting           triclinic
_symmetry_space_group_name_H-M   'P -1'
_symmetry_Int_Tables_number      2
_space_group_name_Hall           '-P 1'
loop_
_symmetry_equiv_pos_site_id
_symmetry_equiv_pos_as_xyz
1 x,y,z
2 -x,-y,-z
_cell_length_a                   9.213(5)
_cell_length_b                   9.215(5)
_cell_length_c                   9.408(6)
_cell_angle_alpha                87.314(13)
_cell_angle_beta                 86.162(10)
_cell_angle_gamma                85.418(13)
_cell_volume                     793.688
loop_
_atom_site_label
_atom_site_type_symbol
_atom_site_fract_x
_atom_site_fract_y
_atom_site_fract_z
Tb1 Tb 0.86997(3) 0.41286(3) 0.14669(3)
O1 O 0.9442(4) 0.6416(4) 0.0549(4)
O2 O 0.8990(5) 0.8788(5) 0.0013(6)
O3 O 0.7550(4) 0.0333(4) 0.4305(4)
O4 O 0.1864(4) 0.8160(4) 0.2642(4)
O5 O 0.2696(4) 0.6321(4) 0.4091(4)
O6 O 0.2463(4) 0.5447(4) 0.0787(4)
O7 O 0.1112(4) 0.4015(4) 0.2240(4)
O8 O 0.8604(4) 0.5366(4) 0.3719(4)
N1 N 0.6656(4) 0.6201(4) 0.1503(4)
N2 N 0.6233(4) 0.3654(4) 0.2696(4)
C1 C 0.8624(6) 0.7617(6) 0.0529(6)
C2 C 0.7057(5) 0.7533(5) 0.1112(5)
C3 C 0.6118(6) 0.8775(6) 0.1211(6)
H1 H 0.6417 0.9684 0.0903
C4 C 0.4720(6) 0.8615(6) 0.1786(6)
H2 H 0.4056 0.9426 0.1873
C5 C 0.4301(5) 0.7244(5) 0.2235(5)
C6 C 0.2864(5) 0.7168(6) 0.3075(5)
C7 C 0.5288(5) 0.6023(6) 0.2010(5)
C8 C 0.5005(5) 0.4458(5) 0.2382(5)
C9 C 0.3648(5) 0.3847(5) 0.2467(5)
C10 C 0.2294(5) 0.4515(5) 0.1797(5)
C11 C 0.3587(6) 0.2462(6) 0.3108(6)
H3 H 0.2699 0.2043 0.3222
C12 C 0.4836(6) 0.1698(6) 0.3578(6)
H4 H 0.4790 0.0806 0.4077
C13 C 0.6147(5) 0.2304(5) 0.3281(5)
O10 O 0.8024(4) 0.1863(4) 0.0476(4)
O11 O 0.8736(4) 0.2151(4) 0.3222(4)
C14 C 0.7602(5) 0.1514(5) 0.3645(5)
H5 H 0.8658 0.1104 0.0559
H6 H 0.9047 0.6146 0.3889
H7 H 0.8155 0.1974 -0.0449
H10 H 0.8211 0.5000 0.4521
H11 H 0.0986 0.7958 0.2937
Tb1A Tb 1.13003(3) 0.58714(3) -0.14669(3)
Tb1A_2 Tb 0.13003(3) 0.58714(3) -0.14669(3)
Tb1_2 Tb -0.13003(3) 0.41286(3) 0.14669(3)
O1A O 1.0558(4) 0.3584(4) -0.0549(4)
O6A O 0.7537(4) 0.4553(4) -0.0787(4)
O7_2 O 1.1112(4) 0.4015(4) 0.2240(4)
O9 O 1.0394(4) 0.1909(4) 0.5596(4)
H8 H 1.0038 0.1816 0.4775
H9 H 1.1242 0.1444 0.5760
loop_
_geom_bond_atom_site_label_1
_geom_bond_atom_site_label_2
_geom_bond_site_symmetry_1
_geom_bond_site_symmetry_2
Tb1 O1 1_555 1_555
O1 C1 1_555 1_555
O2 C1 1_555 1_555
O3 C14 1_555 1_555
O4 C6 1_555 1_555
O5 C6 1_555 1_555
O6 C10 1_555 1_555
O7 C10 1_555 1_555
O8 Tb1 1_555 1_555
O9 H8 1_555 1_555
N1 Tb1 1_555 1_555
N2 Tb1 1_555 1_555
C1 C2 1_555 1_555
C2 N1 1_555 1_555
C3 C2 1_555 1_555
H1 C3 1_555 1_555
C4 C3 1_555 1_555
H2 C4 1_555 1_555
C5 C4 1_555 1_555
C6 C5 1_555 1_555
C7 N1 1_555 1_555
C8 N2 1_555 1_555
C9 C8 1_555 1_555
C10 C9 1_555 1_555
C11 C9 1_555 1_555
H3 C11 1_555 1_555
C12 C11 1_555 1_555
H4 C12 1_555 1_555
C13 N2 1_555 1_555
O10 Tb1 1_555 1_555
O11 Tb1 1_555 1_555
C14 C13 1_555 1_555
H5 O10 1_555 1_555
H6 O8 1_555 1_555
H7 O10 1_555 1_555
H9 O9 1_555 1_555
H10 O8 1_555 1_555
H11 O4 1_555 1_555
Tb1A O1 1_555 1_555
Tb1A_2 O6 1_555 1_555
Tb1_2 O7 1_555 1_555
O1A Tb1 1_555 1_555
O6A Tb1 1_555 1_555
O7_2 Tb1 1_555 1_555
C5 C7 1_555 1_555
C7 C8 1_555 1_555
C12 C13 1_555 1_555
O11 C14 1_555 1_555
Tb1A O1A 1_555 1_555

#END
