
#######################################################################
#
#                 Cambridge Crystallographic Data Centre
#                                CCDC 
#
#######################################################################
#
# If this CIF has been generated from an entry in the Cambridge 
# Structural Database, then it will include bibliographic, chemical, 
# crystal, experimental, refinement or atomic coordinate data resulting 
# from the CCDC's data processing and validation procedures.
#
#######################################################################

data_QATJOM01
_symmetry_cell_setting           triclinic
_symmetry_space_group_name_H-M   'P -1'
_symmetry_Int_Tables_number      2
_space_group_name_Hall           '-P 1'
loop_
_symmetry_equiv_pos_site_id
_symmetry_equiv_pos_as_xyz
1 x,y,z
2 -x,-y,-z
_cell_length_a                   9.236(6)
_cell_length_b                   9.236(6)
_cell_length_c                   9.447(6)
_cell_angle_alpha                87.255(6)
_cell_angle_beta                 86.232(6)
_cell_angle_gamma                85.446(6)
_cell_volume                     800.845
loop_
_atom_site_label
_atom_site_type_symbol
_atom_site_fract_x
_atom_site_fract_y
_atom_site_fract_z
Tb1 Tb 0.370014(11) -0.087159(11) 0.146663(11)
O1 O 0.37388(19) -0.2851(2) 0.32205(19)
O2 O 0.2552(2) -0.4671(2) 0.4310(2)
O3 O -0.2536(2) 0.04562(19) 0.07892(19)
O4 O -0.3888(2) -0.0981(2) 0.2240(2)
O5 O 0.44435(19) 0.14157(19) 0.0554(2)
O6 O 0.3994(3) 0.3782(3) 0.0009(4)
O7 O -0.2298(2) 0.1318(2) 0.4086(2)
O8 O -0.3135(2) 0.3152(2) 0.2641(2)
H1 H -0.3866 0.3126 0.3181
O9 O 0.3601(2) 0.0370(2) 0.3710(2)
H2 H 0.4019 0.1085 0.3984
H3 H 0.3330 -0.0067 0.4483
O10 O 0.3024(2) -0.3141(2) 0.0473(2)
H4 H 0.2966 -0.2993 -0.0417
H5 H 0.3543 -0.3920 0.0662
N1 N 0.1232(2) -0.1346(2) 0.2693(2)
N2 N 0.1660(2) 0.1197(2) 0.1495(2)
C1 C 0.1152(3) -0.2689(3) 0.3286(3)
C2 C -0.0168(3) -0.3300(3) 0.3576(3)
H6 H -0.0214 -0.4192 0.4069
C3 C -0.1413(3) -0.2543(3) 0.3110(3)
H7 H -0.2299 -0.2961 0.3228
C4 C -0.1350(3) -0.1154(3) 0.2465(3)
C5 C 0.0003(3) -0.0536(3) 0.2382(2)
C6 C 0.0287(3) 0.1017(3) 0.2012(3)
C7 C -0.0704(3) 0.2241(3) 0.2235(3)
C8 C -0.0280(3) 0.3608(3) 0.1786(3)
H8 H -0.0939 0.4418 0.1875
C9 C 0.1119(3) 0.3772(3) 0.1208(3)
H9 H 0.1412 0.4679 0.0893
C10 C 0.2067(3) 0.2529(3) 0.1116(3)
C11 C 0.2596(3) -0.3489(3) 0.3634(3)
C12 C -0.2709(3) -0.0489(3) 0.1793(3)
C13 C 0.3623(3) 0.2620(3) 0.0523(3)
C14 C -0.2136(3) 0.2171(3) 0.3069(3)
Tb1A Tb -0.370014(11) 0.087159(11) -0.146663(11)
Tb1_2 Tb -0.629986(11) -0.087159(11) 0.146663(11)
Tb1A_2 Tb 0.629986(11) 0.087159(11) -0.146663(11)
O3A O 0.2536(2) -0.04562(19) -0.07892(19)
O4_2 O 0.6112(2) -0.0981(2) 0.2240(2)
O5A O 0.55565(19) -0.14157(19) -0.0554(2)
O11 O 0.4603(2) 0.3088(2) 0.4399(2)
H10 H 0.4962 0.2989 0.5207
H11 H 0.3989 0.3824 0.4397
loop_
_geom_bond_atom_site_label_1
_geom_bond_atom_site_label_2
_geom_bond_site_symmetry_1
_geom_bond_site_symmetry_2
Tb1 O1 1_555 1_555
O1 C11 1_555 1_555
O2 C11 1_555 1_555
O3 C12 1_555 1_555
O4 C12 1_555 1_555
O5 Tb1 1_555 1_555
O6 C13 1_555 1_555
O7 C14 1_555 1_555
O8 H1 1_555 1_555
O9 Tb1 1_555 1_555
H2 O9 1_555 1_555
H3 O9 1_555 1_555
O10 Tb1 1_555 1_555
H4 O10 1_555 1_555
H5 O10 1_555 1_555
N1 Tb1 1_555 1_555
N2 Tb1 1_555 1_555
C1 N1 1_555 1_555
C2 C1 1_555 1_555
H6 C2 1_555 1_555
C3 C2 1_555 1_555
H7 C3 1_555 1_555
C4 C3 1_555 1_555
C5 N1 1_555 1_555
C6 N2 1_555 1_555
C7 C6 1_555 1_555
C8 C7 1_555 1_555
H8 C8 1_555 1_555
C9 C8 1_555 1_555
H9 C9 1_555 1_555
C10 N2 1_555 1_555
C11 C1 1_555 1_555
C12 C4 1_555 1_555
C13 O5 1_555 1_555
C14 O8 1_555 1_555
O11 H10 1_555 1_555
H11 O11 1_555 1_555
Tb1A O3 1_555 1_555
Tb1_2 O4 1_555 1_555
Tb1A_2 O5 1_555 1_555
O3A Tb1 1_555 1_555
O4_2 Tb1 1_555 1_555
O5A Tb1 1_555 1_555
C4 C5 1_555 1_555
C5 C6 1_555 1_555
C7 C14 1_555 1_555
C9 C10 1_555 1_555
C10 C13 1_555 1_555
Tb1A_2 O5A 1_555 1_555

#END
