
#######################################################################
#
#                 Cambridge Crystallographic Data Centre
#                                CCDC 
#
#######################################################################
#
# If this CIF has been generated from an entry in the Cambridge 
# Structural Database, then it will include bibliographic, chemical, 
# crystal, experimental, refinement or atomic coordinate data resulting 
# from the CCDC's data processing and validation procedures.
#
#######################################################################

data_QATJEC01
_symmetry_cell_setting           triclinic
_symmetry_space_group_name_H-M   'P -1'
_symmetry_Int_Tables_number      2
_space_group_name_Hall           '-P 1'
loop_
_symmetry_equiv_pos_site_id
_symmetry_equiv_pos_as_xyz
1 x,y,z
2 -x,-y,-z
_cell_length_a                   9.2249(11)
_cell_length_b                   9.2640(11)
_cell_length_c                   9.4434(11)
_cell_angle_alpha                86.207(1)
_cell_angle_beta                 87.656(1)
_cell_angle_gamma                85.320(1)
_cell_volume                     802.064
loop_
_atom_site_label
_atom_site_type_symbol
_atom_site_fract_x
_atom_site_fract_y
_atom_site_fract_z
Gd1 Gd 0.588718(11) 0.129340(11) 0.853500(11)
O1 O 0.35739(19) 0.05648(18) 0.94316(19)
O2 O 0.1203(3) 0.1022(3) 0.9926(4)
O3 O 0.3679(2) 0.7302(2) 0.5915(2)
O4 O 0.1847(2) 0.8144(2) 0.7354(2)
H1 H 0.1865 0.8873 0.6814
O5 O 0.5991(2) 0.88739(19) 0.7767(2)
O6 O 0.45512(19) 0.75280(18) 0.92075(19)
O7 O 0.9673(2) 0.2457(2) 0.5682(2)
O8 O 0.7872(2) 0.12679(19) 0.67764(19)
O9 O 0.8155(2) 0.1980(2) 0.95436(19)
H2 H 0.8014 0.2020 1.0436
H3 H 0.8947 0.1460 0.9418
O10 O 0.4633(2) 0.1390(2) 0.6274(2)
H4 H 0.5047 0.1674 0.5496
H5 H 0.3819 0.1152 0.6012
N1 N 0.3804(2) 0.3348(2) 0.8486(2)
N2 N 0.6350(2) 0.3772(2) 0.7294(2)
C1 C 0.2466(3) 0.2943(3) 0.8869(3)
C2 C 0.1225(3) 0.3900(3) 0.8779(3)
H6 H 0.0318 0.3613 0.9093
C3 C 0.1391(3) 0.5297(3) 0.8206(3)
H7 H 0.0582 0.5961 0.8121
C4 C 0.2757(3) 0.5712(3) 0.7758(3)
C5 C 0.3982(3) 0.4712(3) 0.7981(2)
C6 C 0.2368(3) 0.1395(3) 0.9448(3)
C7 C 0.2833(3) 0.7142(3) 0.6920(3)
C8 C 0.5540(3) 0.4996(2) 0.7615(2)
C9 C 0.6159(3) 0.6344(3) 0.7537(3)
C10 C 0.7538(3) 0.6407(3) 0.6888(3)
H8 H 0.7952 0.7292 0.6771
C11 C 0.8302(3) 0.5169(3) 0.6415(3)
H9 H 0.9190 0.5218 0.5919
C12 C 0.7694(3) 0.3849(3) 0.6708(3)
C13 C 0.5490(3) 0.7695(3) 0.8214(3)
C14 C 0.8499(3) 0.2412(3) 0.6366(3)
Gd1A Gd 0.411282(11) -0.129340(11) 1.146500(11)
Gd1_2 Gd 0.588718(11) 1.129340(11) 0.853500(11)
Gd1A_2 Gd 0.411282(11) 0.870660(11) 1.146500(11)
O1A O 0.64261(19) -0.05648(18) 1.05684(19)
O5_2 O 0.5991(2) -0.11261(19) 0.7767(2)
O6A O 0.54488(19) 0.24720(18) 1.07925(19)
O11 O 0.1909(2) 0.0396(2) 0.5590(2)
H10 H 0.1188 0.1028 0.5615
H11 H 0.1987 0.0014 0.4793
loop_
_geom_bond_atom_site_label_1
_geom_bond_atom_site_label_2
_geom_bond_site_symmetry_1
_geom_bond_site_symmetry_2
Gd1 O1 1_555 1_555
O1 C6 1_555 1_555
O2 C6 1_555 1_555
O3 C7 1_555 1_555
O4 H1 1_555 1_555
O5 C13 1_555 1_555
O6 C13 1_555 1_555
O7 C14 1_555 1_555
O8 Gd1 1_555 1_555
O9 Gd1 1_555 1_555
H2 O9 1_555 1_555
H3 O9 1_555 1_555
O10 Gd1 1_555 1_555
H4 O10 1_555 1_555
H5 O10 1_555 1_555
N1 Gd1 1_555 1_555
N2 Gd1 1_555 1_555
C1 N1 1_555 1_555
C2 C1 1_555 1_555
H6 C2 1_555 1_555
C3 C2 1_555 1_555
H7 C3 1_555 1_555
C4 C3 1_555 1_555
C5 N1 1_555 1_555
C6 C1 1_555 1_555
C7 O4 1_555 1_555
C8 N2 1_555 1_555
C9 C8 1_555 1_555
C10 C9 1_555 1_555
H8 C10 1_555 1_555
C11 C10 1_555 1_555
H9 C11 1_555 1_555
C12 N2 1_555 1_555
C13 C9 1_555 1_555
C14 O8 1_555 1_555
O11 H10 1_555 1_555
H11 O11 1_555 1_555
Gd1A O1 1_555 1_555
Gd1_2 O5 1_555 1_555
Gd1A_2 O6 1_555 1_555
O1A Gd1 1_555 1_555
O5_2 Gd1 1_555 1_555
O6A Gd1 1_555 1_555
C4 C5 1_555 1_555
C4 C7 1_555 1_555
C5 C8 1_555 1_555
C11 C12 1_555 1_555
C12 C14 1_555 1_555
Gd1A O1A 1_555 1_555

#END
