
#######################################################################
#
#                 Cambridge Crystallographic Data Centre
#                                CCDC 
#
#######################################################################
#
# If this CIF has been generated from an entry in the Cambridge 
# Structural Database, then it will include bibliographic, chemical, 
# crystal, experimental, refinement or atomic coordinate data resulting 
# from the CCDC's data processing and validation procedures.
#
#######################################################################

data_QATKON
_symmetry_cell_setting           monoclinic
_symmetry_space_group_name_H-M   'P 21/n'
_symmetry_Int_Tables_number      14
_space_group_name_Hall           '-P 2yn'
loop_
_symmetry_equiv_pos_site_id
_symmetry_equiv_pos_as_xyz
1 x,y,z
2 1/2-x,1/2+y,1/2-z
3 -x,-y,-z
4 1/2+x,1/2-y,1/2+z
_cell_length_a                   14.0463(12)
_cell_length_b                   12.6398(11)
_cell_length_c                   14.8804(13)
_cell_angle_alpha                90
_cell_angle_beta                 103.8010(10)
_cell_angle_gamma                90
_cell_volume                     2565.63
loop_
_atom_site_label
_atom_site_type_symbol
_atom_site_fract_x
_atom_site_fract_y
_atom_site_fract_z
Cd1 Cd 0.117179(15) 0.424823(17) 0.025212(14)
C1 C 0.0643(2) 0.5342(3) 0.1656(2)
C2 C 0.0307(3) 0.5725(3) 0.2475(3)
C3 C 0.0960(2) 0.6040(3) 0.3333(2)
C4 C 0.0464(2) 0.6314(3) 0.4068(2)
C5 C 0.1040(3) 0.6645(3) 0.4922(3)
H1 H 0.1719 0.6668 0.5022
C6 C 0.0599(3) 0.6934(3) 0.5608(2)
C7 C -0.0413(3) 0.6956(3) 0.5506(2)
C8 C -0.0972(3) 0.6629(4) 0.4655(3)
C9 C -0.0567(3) 0.6302(4) 0.3922(3)
C10 C -0.0670(3) 0.5747(5) 0.2384(3)
H2 H -0.1057 0.5541 0.1814
C11 C -0.2241(4) 0.6169(6) 0.2719(4)
H3 H -0.2467 0.6762 0.3027
H4 H -0.2447 0.6269 0.2055
C12 C -0.2606(8) 0.5137(7) 0.3007(6)
H5 H -0.3310 0.5131 0.2838
H6 H -0.2381 0.5054 0.3664
H7 H -0.2361 0.4566 0.2701
C13 C -0.0440(3) 0.8171(3) 0.6813(2)
H8 H -0.0031 0.8620 0.6532
H9 H -0.0032 0.7856 0.7366
C14 C -0.1248(3) 0.8821(3) 0.7060(3)
H10 H -0.0960 0.9348 0.7519
H11 H -0.1612 0.9189 0.6513
C15 C -0.2383(3) 0.7301(4) 0.6732(4)
H12 H -0.2707 0.7663 0.6158
C16 C -0.1536(4) 0.6663(3) 0.6535(3)
H13 H -0.1169 0.6338 0.7103
H14 H -0.1791 0.6104 0.6097
C17 C -0.3138(4) 0.6682(5) 0.7041(4)
H15 H -0.3641 0.7149 0.7143
H16 H -0.2844 0.6320 0.7606
H17 H -0.3422 0.6174 0.6574
C18 C 0.4041(2) 0.4758(3) 0.0029(2)
C19 C 0.4223(3) 0.5507(3) -0.0593(3)
H18 H 0.3702 0.5848 -0.0990
C20 C 0.4825(3) 0.4251(3) 0.0627(3)
H19 H 0.4709 0.3751 0.1046
C21 C 0.3006(3) 0.4514(3) 0.0081(3)
C22 C 0.0322(3) 0.1041(3) 0.0068(3)
C23 C -0.0339(4) 0.0692(3) 0.0575(4)
H20 H -0.0574 0.1155 0.0957
C24 C 0.0641(4) 0.0364(3) -0.0496(3)
H21 H 0.1070 0.0605 -0.0839
C25 C 0.0649(3) 0.2179(3) 0.0139(3)
N1 N -0.1926(2) 0.8142(3) 0.7430(2)
H22 H -0.2402 0.8545 0.7565
H23 H -0.1595 0.7830 0.7955
N2 N -0.0895(2) 0.7341(3) 0.6161(2)
N3 N -0.1149(3) 0.6037(5) 0.3032(3)
O1 O 0.15255(19) 0.5318(2) 0.16602(18)
O3 O 0.00059(19) 0.4991(2) 0.09633(17)
O4 O 0.18613(18) 0.6081(2) 0.34861(17)
O5 O 0.28666(19) 0.3862(3) 0.0661(2)
O6 O 0.23124(19) 0.4999(3) -0.0450(2)
O7 O 0.0730(2) 0.26619(19) 0.09044(17)
O8 O 0.0824(3) 0.2621(2) -0.0545(2)
F1 F -0.19477(19) 0.6694(3) 0.4533(2)
F2 F 0.11804(18) 0.7239(3) 0.64396(16)
Cd1B Cd -0.117179(15) 0.575177(17) -0.025212(14)
Cd1B_2 Cd 0.882821(15) 0.575177(17) -0.025212(14)
Cd1B_3 Cd -0.117179(15) -0.424823(17) -0.025212(14)
C1B C -0.0643(2) 0.4658(3) -0.1656(2)
C2B C -0.0307(3) 0.4275(3) -0.2475(3)
C3B C -0.0960(2) 0.3960(3) -0.3333(2)
C4B C -0.0464(2) 0.3686(3) -0.4068(2)
C5B C -0.1040(3) 0.3355(3) -0.4922(3)
H1B H -0.1719 0.3332 -0.5022
C6B C -0.0599(3) 0.3066(3) -0.5608(2)
C7B C 0.0413(3) 0.3044(3) -0.5506(2)
C8B C 0.0972(3) 0.3371(4) -0.4655(3)
C9B C 0.0567(3) 0.3698(4) -0.3922(3)
C10B C 0.0670(3) 0.4253(5) -0.2384(3)
H2B H 0.1057 0.4459 -0.1814
C11B C 0.2241(4) 0.3831(6) -0.2719(4)
H3B H 0.2467 0.3238 -0.3027
H4B H 0.2447 0.3731 -0.2055
C12B C 0.2606(8) 0.4863(7) -0.3007(6)
H5B H 0.3310 0.4869 -0.2838
H6B H 0.2381 0.4946 -0.3664
H7B H 0.2361 0.5434 -0.2701
C13B C 0.0440(3) 0.1829(3) -0.6813(2)
H8B H 0.0031 0.1380 -0.6532
H9B H 0.0032 0.2144 -0.7366
C14B C 0.1248(3) 0.1179(3) -0.7060(3)
H10B H 0.0960 0.0652 -0.7519
H11B H 0.1612 0.0811 -0.6513
C15B C 0.2383(3) 0.2699(4) -0.6732(4)
H12B H 0.2707 0.2337 -0.6158
C16B C 0.1536(4) 0.3337(3) -0.6535(3)
H13B H 0.1169 0.3662 -0.7103
H14B H 0.1791 0.3896 -0.6097
C17B C 0.3138(4) 0.3318(5) -0.7041(4)
H15B H 0.3641 0.2851 -0.7143
H16B H 0.2844 0.3680 -0.7606
H17B H 0.3422 0.3826 -0.6574
C18B C 0.5959(2) 0.5242(3) -0.0029(2)
C19B C 0.5777(3) 0.4493(3) 0.0593(3)
H18B H 0.6298 0.4152 0.0990
C20B C 0.5175(3) 0.5749(3) -0.0627(3)
H19B H 0.5291 0.6249 -0.1046
C21B C 0.6994(3) 0.5486(3) -0.0081(3)
C22B C -0.0322(3) -0.1041(3) -0.0068(3)
C23B C 0.0339(4) -0.0692(3) -0.0575(4)
H20B H 0.0574 -0.1155 -0.0957
C24B C -0.0641(4) -0.0364(3) 0.0496(3)
H21B H -0.1070 -0.0605 0.0839
C25B C -0.0649(3) -0.2179(3) -0.0139(3)
N1B N 0.1926(2) 0.1858(3) -0.7430(2)
H22B H 0.2402 0.1455 -0.7565
H23B H 0.1595 0.2170 -0.7955
N2B N 0.0895(2) 0.2659(3) -0.6161(2)
N3B N 0.1149(3) 0.3963(5) -0.3032(3)
O1B O -0.15255(19) 0.4682(2) -0.16602(18)
O3B O -0.00059(19) 0.5009(2) -0.09633(17)
O4B O -0.18613(18) 0.3919(2) -0.34861(17)
O5B O 0.71334(19) 0.6138(3) -0.0661(2)
O5B_2 O -0.28666(19) 0.6138(3) -0.0661(2)
O6B O 0.76876(19) 0.5001(3) 0.0450(2)
O6B_2 O -0.23124(19) 0.5001(3) 0.0450(2)
O7B O -0.0730(2) -0.26619(19) -0.09044(17)
O7B_2 O -0.0730(2) 0.73381(19) -0.09044(17)
O8B O -0.0824(3) -0.2621(2) 0.0545(2)
O8B_2 O -0.0824(3) 0.7379(2) 0.0545(2)
F1B F 0.19477(19) 0.3306(3) -0.4533(2)
F2B F -0.11804(18) 0.2761(3) -0.64396(16)
O2 O 0.1313(3) 0.6920(4) -0.1250(4)
C26? C -0.1998(8) 0.5268(11) 0.3105(11)
C27? C -0.2892(11) 0.5920(14) 0.2648(12)
H24? H -0.1967 0.4614 0.2773
H25? H -0.1990 0.5108 0.3745
H26? H -0.3476 0.5528 0.2653
H27? H -0.2873 0.6074 0.2021
H28? H -0.2891 0.6570 0.2983
loop_
_geom_bond_atom_site_label_1
_geom_bond_atom_site_label_2
_geom_bond_site_symmetry_1
_geom_bond_site_symmetry_2
Cd1 O1 1_555 1_555
C1 C2 1_555 1_555
C2 C3 1_555 1_555
C3 C4 1_555 1_555
C4 C5 1_555 1_555
C5 H1 1_555 1_555
C6 C5 1_555 1_555
C7 C6 1_555 1_555
C8 C7 1_555 1_555
C9 C4 1_555 1_555
C10 C2 1_555 1_555
H2 C10 1_555 1_555
C11 H3 1_555 1_555
H4 C11 1_555 1_555
C12 C11 1_555 1_555
H5 C12 1_555 1_555
H6 C12 1_555 1_555
H7 C12 1_555 1_555
C13 H8 1_555 1_555
H9 C13 1_555 1_555
C14 C13 1_555 1_555
H10 C14 1_555 1_555
H11 C14 1_555 1_555
C15 H12 1_555 1_555
C16 C15 1_555 1_555
H13 C16 1_555 1_555
H14 C16 1_555 1_555
C17 C15 1_555 1_555
H15 C17 1_555 1_555
H16 C17 1_555 1_555
H17 C17 1_555 1_555
C18 C19 1_555 1_555
C19 H18 1_555 1_555
C20 C18 1_555 1_555
H19 C20 1_555 1_555
C21 C18 1_555 1_555
C22 C23 1_555 1_555
C23 H20 1_555 1_555
C24 C22 1_555 1_555
H21 C24 1_555 1_555
C25 C22 1_555 1_555
N1 C14 1_555 1_555
H22 N1 1_555 1_555
H23 N1 1_555 1_555
N2 C7 1_555 1_555
N3 C9 1_555 1_555
O1 C1 1_555 1_555
O3 Cd1 1_555 1_555
O4 C3 1_555 1_555
O5 Cd1 1_555 1_555
O6 Cd1 1_555 1_555
O7 Cd1 1_555 1_555
O8 Cd1 1_555 1_555
F1 C8 1_555 1_555
F2 C6 1_555 1_555
Cd1B O3 1_555 1_555
Cd1B_2 O5B 1_555 1_555
Cd1B_3 O7B 1_555 1_555
C1B C2B 1_555 1_555
C2B C3B 1_555 1_555
C3B C4B 1_555 1_555
C4B C5B 1_555 1_555
C5B H1B 1_555 1_555
C6B C5B 1_555 1_555
C7B C6B 1_555 1_555
C8B C7B 1_555 1_555
C9B C4B 1_555 1_555
C10B C2B 1_555 1_555
H2B C10B 1_555 1_555
C11B H3B 1_555 1_555
H4B C11B 1_555 1_555
C12B C11B 1_555 1_555
H5B C12B 1_555 1_555
H6B C12B 1_555 1_555
H7B C12B 1_555 1_555
C13B H8B 1_555 1_555
H9B C13B 1_555 1_555
C14B C13B 1_555 1_555
H10B C14B 1_555 1_555
H11B C14B 1_555 1_555
C15B H12B 1_555 1_555
C16B C15B 1_555 1_555
H13B C16B 1_555 1_555
H14B C16B 1_555 1_555
C17B C15B 1_555 1_555
H15B C17B 1_555 1_555
H16B C17B 1_555 1_555
H17B C17B 1_555 1_555
C18B C19B 1_555 1_555
C19B C20 1_555 1_555
H18B C19B 1_555 1_555
C20B C19 1_555 1_555
H19B C20B 1_555 1_555
C21B C18B 1_555 1_555
C22B C23B 1_555 1_555
C23B C24 1_555 1_555
H20B C23B 1_555 1_555
C24B C23 1_555 1_555
H21B C24B 1_555 1_555
C25B C22B 1_555 1_555
N1B C14B 1_555 1_555
H22B N1B 1_555 1_555
H23B N1B 1_555 1_555
N2B C7B 1_555 1_555
N3B C9B 1_555 1_555
O1B Cd1B 1_555 1_555
O3B Cd1 1_555 1_555
O4B C3B 1_555 1_555
O5B C21B 1_555 1_555
O5B_2 Cd1B 1_555 1_555
O6B Cd1B_2 1_555 1_555
O6B_2 Cd1B 1_555 1_555
O7B C25B 1_555 1_555
O7B_2 Cd1B 1_555 1_555
O8B Cd1B_3 1_555 1_555
O8B_2 Cd1B 1_555 1_555
F1B C8B 1_555 1_555
F2B C6B 1_555 1_555
C1 O3 1_555 1_555
C8 C9 1_555 1_555
C10 N3 1_555 1_555
C11 N3 1_555 1_555
C13 N2 1_555 1_555
C15 N1 1_555 1_555
C16 N2 1_555 1_555
C21 O5 1_555 1_555
C21 O6 1_555 1_555
C25 O7 1_555 1_555
C25 O8 1_555 1_555
Cd1B O3B 1_555 1_555
C1B O1B 1_555 1_555
C1B O3B 1_555 1_555
C8B C9B 1_555 1_555
C10B N3B 1_555 1_555
C11B N3B 1_555 1_555
C13B N2B 1_555 1_555
C15B N1B 1_555 1_555
C16B N2B 1_555 1_555
C18B C20B 1_555 1_555
C21B O6B 1_555 1_555
C22B C24B 1_555 1_555
C25B O8B 1_555 1_555

#END
