
#######################################################################
#
#                 Cambridge Crystallographic Data Centre
#                                CCDC 
#
#######################################################################
#
# If this CIF has been generated from an entry in the Cambridge 
# Structural Database, then it will include bibliographic, chemical, 
# crystal, experimental, refinement or atomic coordinate data resulting 
# from the CCDC's data processing and validation procedures.
#
#######################################################################

data_QATQIN
_symmetry_cell_setting           monoclinic
_symmetry_space_group_name_H-M   'C 2/c'
_symmetry_Int_Tables_number      15
_space_group_name_Hall           '-C 2yn'
loop_
_symmetry_equiv_pos_site_id
_symmetry_equiv_pos_as_xyz
1 x,y,z
2 -x,y,1/2-z
3 1/2+x,1/2+y,z
4 1/2-x,1/2+y,1/2-z
5 -x,-y,-z
6 x,-y,1/2+z
7 1/2-x,1/2-y,-z
8 1/2+x,1/2-y,1/2+z
_cell_length_a                   27.3016(8)
_cell_length_b                   9.5472(2)
_cell_length_c                   21.4523(5)
_cell_angle_alpha                90
_cell_angle_beta                 96.771(2)
_cell_angle_gamma                90
_cell_volume                     5552.62
loop_
_atom_site_label
_atom_site_type_symbol
_atom_site_fract_x
_atom_site_fract_y
_atom_site_fract_z
Nd1 Nd 0.014802(3) 0.249591(8) 0.008215(4)
C1 C -0.04401(6) 0.01116(16) -0.10884(8)
C2 C -0.06010(6) 0.07516(16) -0.17181(7)
C3 C -0.05242(7) 0.21719(18) -0.18109(9)
H1 H -0.0353 0.2700 -0.1492
C4 C -0.07010(7) 0.28114(19) -0.23755(9)
H2 H -0.0652 0.3763 -0.2438
C5 C -0.09501(6) 0.20014(19) -0.28398(8)
C6 C -0.10155(7) 0.05761(18) -0.27711(8)
H3 H -0.1174 0.0044 -0.3098
C7 C -0.08402(6) -0.00408(18) -0.22046(8)
H4 H -0.0883 -0.0997 -0.2149
C8 C -0.31514(6) 0.35167(17) -0.41327(9)
C9 C -0.26217(6) 0.32777(17) -0.39188(8)
C10 C -0.22753(7) 0.35579(18) -0.43339(8)
H5 H -0.2380 0.3896 -0.4734
C11 C -0.17796(7) 0.33372(18) -0.41558(8)
H6 H -0.1550 0.3528 -0.4432
C12 C -0.16275(7) 0.28257(18) -0.35575(8)
C13 C -0.19654(7) 0.25384(16) -0.31382(9)
H7 H -0.1859 0.2190 -0.2740
C14 C -0.24623(7) 0.27774(18) -0.33211(9)
H8 H -0.2691 0.2602 -0.3042
C15 C 0.08243(6) 0.51738(17) 0.06007(8)
C16 C 0.12737(6) 0.58773(16) 0.09217(8)
C17 C 0.13797(7) 0.72623(17) 0.07757(9)
H9 H 0.1169 0.7754 0.0482
C18 C 0.18004(7) 0.7901(2) 0.10705(9)
H10 H 0.1876 0.8819 0.0971
C19 C 0.21064(6) 0.71690(19) 0.15114(9)
C20 C 0.20062(7) 0.58064(18) 0.16677(8)
H11 H 0.2214 0.5330 0.1971
C21 C 0.15909(6) 0.51608(17) 0.13662(8)
H12 H 0.1523 0.4236 0.1462
C22 C 0.43593(6) 0.75078(15) 0.08862(8)
C23 C 0.38749(6) 0.75921(15) 0.11375(8)
C24 C 0.38057(6) 0.84455(17) 0.16462(8)
H13 H 0.4067 0.8976 0.1837
C25 C 0.33503(6) 0.85112(18) 0.18696(8)
H14 H 0.3307 0.9074 0.2213
C26 C 0.29590(7) 0.77312(17) 0.15776(9)
C27 C 0.30211(7) 0.68766(19) 0.10661(9)
H15 H 0.2758 0.6359 0.0870
C28 C 0.34784(6) 0.68091(17) 0.08541(8)
H16 H 0.3523 0.6231 0.0516
O1 O -0.01972(4) 0.08334(12) -0.06739(5)
O2 O -0.05625(4) -0.11574(11) -0.09969(5)
O3 O -0.11249(5) 0.26674(12) -0.34077(6)
O4 O -0.34462(5) 0.33091(13) -0.36921(6)
O5 O -0.32953(5) 0.38944(13) -0.46656(6)
O6 O 0.08058(5) 0.38516(12) 0.06225(6)
O7 O 0.04850(4) 0.59093(12) 0.03179(6)
O8 O 0.44296(4) 0.65090(11) 0.05140(6)
O9 O 0.46916(4) 0.84204(11) 0.10199(6)
O10 O 0.25168(5) 0.78635(14) 0.18239(6)
O11 O 0.08146(5) 0.12109(12) -0.03370(6)
O12 O 0.04347(5) 0.37619(14) -0.08189(6)
H17 H -0.3714(9) 0.344(2) -0.3828(11)
H18 H 0.1105(9) 0.116(2) -0.0118(12)
H19 H 0.0724(7) 0.035(2) -0.0425(10)
H20 H 0.0622(8) 0.341(2) -0.1023(10)
H21 H 0.0412(8) 0.460(3) -0.0921(11)
Nd1D Nd -0.014802(3) -0.249591(8) -0.008215(4)
Nd1D_2 Nd -0.014802(3) 0.750409(8) -0.008215(4)
Nd1B Nd 0.514802(3) 0.749591(8) 0.008215(4)
Nd1F Nd -0.514802(3) 0.250409(8) -0.008215(4)
C1D C 0.04401(6) -0.01116(16) 0.10884(8)
C2D C 0.06010(6) -0.07516(16) 0.17181(7)
C3D C 0.05242(7) -0.21719(18) 0.18109(9)
H1D H 0.0353 -0.2700 0.1492
C4D C 0.07010(7) -0.28114(19) 0.23755(9)
H2D H 0.0652 -0.3763 0.2438
C5D C 0.09501(6) -0.20014(19) 0.28398(8)
C6D C 0.10155(7) -0.05761(18) 0.27711(8)
H3D H 0.1174 -0.0044 0.3098
C7D C 0.08402(6) 0.00408(18) 0.22046(8)
H4D H 0.0883 0.0997 0.2149
C8D C 0.31514(6) -0.35167(17) 0.41327(9)
C9D C 0.26217(6) -0.32777(17) 0.39188(8)
C10D C 0.22753(7) -0.35579(18) 0.43339(8)
H5D H 0.2380 -0.3896 0.4734
C11D C 0.17796(7) -0.33372(18) 0.41558(8)
H6D H 0.1550 -0.3528 0.4432
C12D C 0.16275(7) -0.28257(18) 0.35575(8)
C13D C 0.19654(7) -0.25384(16) 0.31382(9)
H7D H 0.1859 -0.2190 0.2740
C14D C 0.24623(7) -0.27774(18) 0.33211(9)
H8D H 0.2691 -0.2602 0.3042
C15D C -0.08243(6) 0.48262(17) -0.06007(8)
C16D C -0.12737(6) 0.41227(16) -0.09217(8)
C17D C -0.13797(7) 0.27377(17) -0.07757(9)
H9D H -0.1169 0.2246 -0.0482
C18D C -0.18004(7) 0.2099(2) -0.10705(9)
H10D H -0.1876 0.1181 -0.0971
C19D C -0.21064(6) 0.28310(19) -0.15114(9)
C20D C -0.20062(7) 0.41936(18) -0.16677(8)
H11D H -0.2214 0.4670 -0.1971
C21D C -0.15909(6) 0.48392(17) -0.13662(8)
H12D H -0.1523 0.5764 -0.1462
C22D C -0.43593(6) 0.24922(15) -0.08862(8)
C23D C -0.38749(6) 0.24079(15) -0.11375(8)
C24D C -0.38057(6) 0.15545(17) -0.16462(8)
H13D H -0.4067 0.1024 -0.1837
C25D C -0.33503(6) 0.14888(18) -0.18696(8)
H14D H -0.3307 0.0926 -0.2213
C26D C -0.29590(7) 0.22688(17) -0.15776(9)
C27D C -0.30211(7) 0.31234(19) -0.10661(9)
H15D H -0.2758 0.3641 -0.0870
C28D C -0.34784(6) 0.31909(17) -0.08541(8)
H16D H -0.3523 0.3769 -0.0516
O1D O 0.01972(4) -0.08334(12) 0.06739(5)
O2D O 0.05625(4) 0.11574(11) 0.09969(5)
O3D O 0.11249(5) -0.26674(12) 0.34077(6)
O4D O 0.34462(5) -0.33091(13) 0.36921(6)
O5D O 0.32953(5) -0.38944(13) 0.46656(6)
O6D O -0.08058(5) 0.61484(12) -0.06225(6)
O6D_2 O -0.08058(5) -0.38516(12) -0.06225(6)
O7D O -0.04850(4) 0.40907(12) -0.03179(6)
O7_2 O 0.04850(4) -0.40907(12) 0.03179(6)
O8D O -0.44296(4) 0.34910(11) -0.05140(6)
O8B O -0.05704(4) 0.15090(11) 0.05140(6)
O8F O 0.05704(4) -0.15090(11) -0.05140(6)
O9D O -0.46916(4) 0.15796(11) -0.10199(6)
O9B O -0.03084(4) 0.34204(11) 0.10199(6)
O9F O 0.03084(4) -0.34204(11) -0.10199(6)
O10D O -0.25168(5) 0.21365(14) -0.18239(6)
O11D O -0.08146(5) -0.12109(12) 0.03370(6)
O12D O -0.04347(5) -0.37619(14) 0.08189(6)
H17D H 0.3714(9) -0.344(2) 0.3828(11)
H18D H -0.1105(9) -0.116(2) 0.0118(12)
H19D H -0.0724(7) -0.035(2) 0.0425(10)
H20D H -0.0622(8) -0.341(2) 0.1023(10)
H21D H -0.0412(8) -0.460(3) 0.0921(11)
O14 O 0.5000 0.9138(8) 0.2500
H23 H 0.5239(14) 0.816(4) 0.2248(14)
H23A H 0.4761(14) 0.816(4) 0.2752(14)
O13? O 0.54138(17) 0.8737(3) 0.20797(16)
H22? H 0.5332(14) 0.876(4) 0.1690(3)
loop_
_geom_bond_atom_site_label_1
_geom_bond_atom_site_label_2
_geom_bond_site_symmetry_1
_geom_bond_site_symmetry_2
Nd1 O1 1_555 1_555
C1 C2 1_555 1_555
C2 C3 1_555 1_555
C3 H1 1_555 1_555
C4 C3 1_555 1_555
H2 C4 1_555 1_555
C5 C4 1_555 1_555
C6 C5 1_555 1_555
H3 C6 1_555 1_555
C7 C2 1_555 1_555
H4 C7 1_555 1_555
C8 C9 1_555 1_555
C9 C10 1_555 1_555
C10 H5 1_555 1_555
C11 C10 1_555 1_555
H6 C11 1_555 1_555
C12 C11 1_555 1_555
C13 C12 1_555 1_555
H7 C13 1_555 1_555
C14 C9 1_555 1_555
H8 C14 1_555 1_555
C15 C16 1_555 1_555
C16 C17 1_555 1_555
C17 H9 1_555 1_555
C18 C17 1_555 1_555
H10 C18 1_555 1_555
C19 C18 1_555 1_555
C20 C19 1_555 1_555
H11 C20 1_555 1_555
C21 C16 1_555 1_555
H12 C21 1_555 1_555
C22 C23 1_555 1_555
C23 C24 1_555 1_555
C24 H13 1_555 1_555
C25 C24 1_555 1_555
H14 C25 1_555 1_555
C26 C25 1_555 1_555
C27 C26 1_555 1_555
H15 C27 1_555 1_555
C28 C23 1_555 1_555
H16 C28 1_555 1_555
O1 C1 1_555 1_555
O2 C1 1_555 1_555
O3 C5 1_555 1_555
O4 C8 1_555 1_555
O5 C8 1_555 1_555
O6 Nd1 1_555 1_555
O7 C15 1_555 1_555
O8 C22 1_555 1_555
O9 C22 1_555 1_555
O10 C19 1_555 1_555
O11 Nd1 1_555 1_555
O12 Nd1 1_555 1_555
O14 H23 1_555 1_555
H17 O4 1_555 1_555
H18 O11 1_555 1_555
H19 O11 1_555 1_555
H20 O12 1_555 1_555
H21 O12 1_555 1_555
Nd1D O2 1_555 1_555
Nd1D_2 O7 1_555 1_555
Nd1B O8 1_555 1_555
Nd1F O8D 1_555 1_555
C1D C2D 1_555 1_555
C2D C3D 1_555 1_555
C3D H1D 1_555 1_555
C4D C3D 1_555 1_555
H2D C4D 1_555 1_555
C5D C4D 1_555 1_555
C6D C5D 1_555 1_555
H3D C6D 1_555 1_555
C7D C2D 1_555 1_555
H4D C7D 1_555 1_555
C8D C9D 1_555 1_555
C9D C10D 1_555 1_555
C10D H5D 1_555 1_555
C11D C10D 1_555 1_555
H6D C11D 1_555 1_555
C12D C11D 1_555 1_555
C13D C12D 1_555 1_555
H7D C13D 1_555 1_555
C14D C9D 1_555 1_555
H8D C14D 1_555 1_555
C15D C16D 1_555 1_555
C16D C17D 1_555 1_555
C17D H9D 1_555 1_555
C18D C17D 1_555 1_555
H10D C18D 1_555 1_555
C19D C18D 1_555 1_555
C20D C19D 1_555 1_555
H11D C20D 1_555 1_555
C21D C16D 1_555 1_555
H12D C21D 1_555 1_555
C22D C23D 1_555 1_555
C23D C24D 1_555 1_555
C24D H13D 1_555 1_555
C25D C24D 1_555 1_555
H14D C25D 1_555 1_555
C26D C25D 1_555 1_555
C27D C26D 1_555 1_555
H15D C27D 1_555 1_555
C28D C23D 1_555 1_555
H16D C28D 1_555 1_555
O1D Nd1D 1_555 1_555
O2D Nd1 1_555 1_555
O3D C5D 1_555 1_555
O4D C8D 1_555 1_555
O5D C8D 1_555 1_555
O6D Nd1D_2 1_555 1_555
O6D_2 Nd1D 1_555 1_555
O7D Nd1 1_555 1_555
O7_2 Nd1D 1_555 1_555
O8D C22D 1_555 1_555
O8B Nd1 1_555 1_555
O8F Nd1D 1_555 1_555
O9D Nd1F 1_555 1_555
O9B Nd1 1_555 1_555
O9F Nd1D 1_555 1_555
O10D C19D 1_555 1_555
O11D Nd1D 1_555 1_555
O12D Nd1D 1_555 1_555
H17D O4D 1_555 1_555
H18D O11D 1_555 1_555
H19D O11D 1_555 1_555
H20D O12D 1_555 1_555
H21D O12D 1_555 1_555
H23A O14 1_555 1_555
C6 C7 1_555 1_555
C12 O3 1_555 1_555
C13 C14 1_555 1_555
C15 O6 1_555 1_555
C20 C21 1_555 1_555
C26 O10 1_555 1_555
C27 C28 1_555 1_555
O9 Nd1B 1_555 1_555
C1D O1D 1_555 1_555
C1D O2D 1_555 1_555
C6D C7D 1_555 1_555
C12D O3D 1_555 1_555
C13D C14D 1_555 1_555
C15D O6D 1_555 1_555
C15D O7D 1_555 1_555
C20D C21D 1_555 1_555
C22D O9D 1_555 1_555
C26D O10D 1_555 1_555
C27D C28D 1_555 1_555

#END
