
#######################################################################
#
#                 Cambridge Crystallographic Data Centre
#                                CCDC 
#
#######################################################################
#
# If this CIF has been generated from an entry in the Cambridge 
# Structural Database, then it will include bibliographic, chemical, 
# crystal, experimental, refinement or atomic coordinate data resulting 
# from the CCDC's data processing and validation procedures.
#
#######################################################################

data_QATQOT
_symmetry_cell_setting           monoclinic
_symmetry_space_group_name_H-M   'C 2/c'
_symmetry_Int_Tables_number      15
_space_group_name_Hall           '-C 2yn'
loop_
_symmetry_equiv_pos_site_id
_symmetry_equiv_pos_as_xyz
1 x,y,z
2 -x,y,1/2-z
3 1/2+x,1/2+y,z
4 1/2-x,1/2+y,1/2-z
5 -x,-y,-z
6 x,-y,1/2+z
7 1/2-x,1/2-y,-z
8 1/2+x,1/2-y,1/2+z
_cell_length_a                   26.8949(7)
_cell_length_b                   9.4436(3)
_cell_length_c                   21.7104(6)
_cell_angle_alpha                90
_cell_angle_beta                 97.026(3)
_cell_angle_gamma                90
_cell_volume                     5472.7
loop_
_atom_site_label
_atom_site_type_symbol
_atom_site_fract_x
_atom_site_fract_y
_atom_site_fract_z
Er1 Er 0.514717(2) 0.252034(8) 0.508483(3)
O1 O 0.55350(4) 0.38527(13) 0.59511(6)
O2 O 0.51904(4) 0.59158(13) 0.56455(6)
O3 O 0.60936(5) 0.75675(13) 0.83992(6)
O4 O 0.84538(5) 0.83153(15) 0.87021(7)
O5 O 0.82912(5) 0.89006(15) 0.96619(6)
O6 O 0.57641(4) 0.11344(13) 0.55901(6)
O7 O 0.54706(4) -0.09872(13) 0.52845(6)
O8 O 0.94503(4) -0.14959(13) 0.54906(6)
O9 O 0.97188(4) -0.34257(13) 0.59913(6)
O10 O 0.75323(5) -0.27769(14) 0.68423(6)
O11 O 0.57986(5) 0.37516(14) 0.46989(6)
O12 O 0.54175(5) 0.12829(15) 0.42259(6)
C1 C 0.54249(6) 0.51413(18) 0.60523(8)
C2 C 0.55842(6) 0.57481(18) 0.66874(8)
C3 C 0.55197(7) 0.71900(19) 0.67888(9)
H1 H 0.5361 0.7752 0.6472
C4 C 0.56913(7) 0.7796(2) 0.73595(9)
H2 H 0.5651 0.8760 0.7427
C5 C 0.59221(6) 0.6937(2) 0.78224(8)
C6 C 0.59769(7) 0.5496(2) 0.77426(9)
H3 H 0.6125 0.4935 0.8066
C7 C 0.58061(7) 0.4903(2) 0.71697(9)
H4 H 0.5840 0.3934 0.7108
C8 C 0.81491(7) 0.85181(19) 0.91336(9)
C9 C 0.76121(7) 0.82665(19) 0.89136(9)
C10 C 0.72596(7) 0.8531(2) 0.93196(9)
H5 H 0.7364 0.8878 0.9715
C11 C 0.67554(7) 0.8281(2) 0.91396(9)
H6 H 0.6521 0.8461 0.9411
C12 C 0.66042(7) 0.77605(18) 0.85492(9)
C13 C 0.69483(7) 0.74976(18) 0.81340(9)
H7 H 0.6843 0.7150 0.7739
C14 C 0.74538(7) 0.77636(19) 0.83194(9)
H8 H 0.7687 0.7604 0.8044
C15 C 0.57986(6) -0.02042(18) 0.55723(8)
C16 C 0.62589(6) -0.08773(18) 0.59089(8)
C17 C 0.65514(6) -0.01492(19) 0.63792(9)
H9 H 0.6461 0.0760 0.6486
C18 C 0.69797(7) -0.0775(2) 0.66913(9)
H10 H 0.7173 -0.0294 0.7009
C19 C 0.71116(7) -0.2116(2) 0.65218(9)
C20 C 0.68275(7) -0.2855(2) 0.60540(10)
H11 H 0.6925 -0.3756 0.5943
C21 C 0.63948(7) -0.22397(18) 0.57510(10)
H12 H 0.6197 -0.2738 0.5443
C22 C 0.93834(6) -0.24943(17) 0.58653(8)
C23 C 0.88970(6) -0.25586(17) 0.61284(8)
C24 C 0.88295(6) -0.34447(19) 0.66258(8)
H13 H 0.9093 -0.4005 0.6803
C25 C 0.83714(7) -0.3496(2) 0.68578(9)
H14 H 0.8328 -0.4083 0.7191
C26 C 0.79778(7) -0.26644(18) 0.65876(9)
C27 C 0.80370(7) -0.1774(2) 0.60902(9)
H15 H 0.7772 -0.1222 0.5911
C28 C 0.84961(7) -0.17235(19) 0.58678(9)
H16 H 0.8540 -0.1124 0.5539
H17 H 0.8705(10) 0.845(3) 0.8838(13)
H18 H 0.6091(9) 0.378(3) 0.4884(12)
H19 H 0.5710(8) 0.465(3) 0.4620(11)
H20 H 0.5585(8) 0.163(3) 0.4015(10)
H21 H 0.5383(8) 0.044(3) 0.4124(11)
Er1D Er 0.485283(2) 0.747966(8) 0.491517(3)
Er1D_2 Er 0.485283(2) -0.252034(8) 0.491517(3)
Er1B Er 1.014717(2) -0.247966(8) 0.508483(3)
O2D O 0.48096(4) 0.40842(13) 0.43545(6)
O7D O 0.45294(4) 0.09872(13) 0.47155(6)
O8B O 0.44503(4) 0.35041(13) 0.54906(6)
O9B O 0.47188(4) 0.15743(13) 0.59913(6)
O13 O 0.46001(19) -0.1251(3) 0.29125(18)
H22 H 0.4781(11) -0.188(3) 0.2780(12)
H23 H 0.4689(11) -0.110(3) 0.3291(4)
O14? O 0.5000 -0.0910(19) 0.2500
loop_
_geom_bond_atom_site_label_1
_geom_bond_atom_site_label_2
_geom_bond_site_symmetry_1
_geom_bond_site_symmetry_2
Er1 O1 1_555 1_555
O1 C1 1_555 1_555
O2 C1 1_555 1_555
O3 C5 1_555 1_555
O4 C8 1_555 1_555
O5 C8 1_555 1_555
O6 Er1 1_555 1_555
O7 C15 1_555 1_555
O8 C22 1_555 1_555
O9 C22 1_555 1_555
O10 C19 1_555 1_555
O11 Er1 1_555 1_555
O12 Er1 1_555 1_555
C1 C2 1_555 1_555
C2 C3 1_555 1_555
C3 H1 1_555 1_555
C4 C3 1_555 1_555
H2 C4 1_555 1_555
C5 C4 1_555 1_555
C6 C5 1_555 1_555
H3 C6 1_555 1_555
C7 C2 1_555 1_555
H4 C7 1_555 1_555
C8 C9 1_555 1_555
C9 C10 1_555 1_555
C10 H5 1_555 1_555
C11 C10 1_555 1_555
H6 C11 1_555 1_555
C12 O3 1_555 1_555
C13 C12 1_555 1_555
H7 C13 1_555 1_555
C14 C9 1_555 1_555
H8 C14 1_555 1_555
C15 O6 1_555 1_555
C16 C15 1_555 1_555
C17 C16 1_555 1_555
H9 C17 1_555 1_555
C18 C17 1_555 1_555
H10 C18 1_555 1_555
C19 C18 1_555 1_555
C20 C19 1_555 1_555
H11 C20 1_555 1_555
C21 C16 1_555 1_555
H12 C21 1_555 1_555
C22 C23 1_555 1_555
C23 C24 1_555 1_555
C24 H13 1_555 1_555
C25 C24 1_555 1_555
H14 C25 1_555 1_555
C26 O10 1_555 1_555
C27 C26 1_555 1_555
H15 C27 1_555 1_555
C28 C23 1_555 1_555
H16 C28 1_555 1_555
H17 O4 1_555 1_555
H18 O11 1_555 1_555
H19 O11 1_555 1_555
H20 O12 1_555 1_555
H21 O12 1_555 1_555
O13 H22 1_555 1_555
H23 O13 1_555 1_555
Er1D O2 1_555 1_555
Er1D_2 O7 1_555 1_555
Er1B O8 1_555 1_555
O2D Er1 1_555 1_555
O7D Er1 1_555 1_555
O8B Er1 1_555 1_555
O9B Er1 1_555 1_555
O9 Er1B 1_555 1_555
C6 C7 1_555 1_555
C11 C12 1_555 1_555
C13 C14 1_555 1_555
C20 C21 1_555 1_555
C25 C26 1_555 1_555
C27 C28 1_555 1_555

#END
