
#######################################################################
#
#                 Cambridge Crystallographic Data Centre
#                                CCDC 
#
#######################################################################
#
# If this CIF has been generated from an entry in the Cambridge 
# Structural Database, then it will include bibliographic, chemical, 
# crystal, experimental, refinement or atomic coordinate data resulting 
# from the CCDC's data processing and validation procedures.
#
#######################################################################

data_QATQUZ
_symmetry_cell_setting           monoclinic
_symmetry_space_group_name_H-M   'P 21/n'
_symmetry_Int_Tables_number      14
_space_group_name_Hall           '-P 2yn'
loop_
_symmetry_equiv_pos_site_id
_symmetry_equiv_pos_as_xyz
1 x,y,z
2 1/2-x,1/2+y,1/2-z
3 -x,-y,-z
4 1/2+x,1/2-y,1/2+z
_cell_length_a                   8.5073(5)
_cell_length_b                   28.8885(2)
_cell_length_c                   16.2398(4)
_cell_angle_alpha                90
_cell_angle_beta                 90.721(5)
_cell_angle_gamma                90
_cell_volume                     3990.83
loop_
_atom_site_label
_atom_site_type_symbol
_atom_site_fract_x
_atom_site_fract_y
_atom_site_fract_z
Tm1 Tm 0.189424(18) 0.014020(5) 0.572964(9)
Tm2 Tm -0.08740(2) -0.510470(6) 0.369360(10)
C1 C 0.1513(4) -0.06700(12) 0.4792(2)
C2 C 0.1334(4) -0.11432(12) 0.4439(2)
C3 C 0.0286(4) -0.14555(12) 0.4801(2)
H1 H -0.0289 -0.1365 0.5257
C4 C 0.0104(4) -0.18966(13) 0.4484(2)
H2 H -0.0557 -0.2108 0.4738
C5 C 0.0918(4) -0.20206(12) 0.3784(2)
C6 C 0.1973(4) -0.17206(13) 0.3422(2)
H3 H 0.2529 -0.1811 0.2960
C7 C 0.2192(4) -0.12834(13) 0.3756(2)
H4 H 0.2914 -0.1082 0.3523
C8 C 0.0874(5) -0.42115(13) 0.4817(3)
C9 C 0.0817(5) -0.37362(12) 0.4446(3)
C10 C 0.1620(4) -0.33724(13) 0.4809(3)
H5 H 0.2214 -0.3424 0.5285
C11 C 0.1555(4) -0.29325(13) 0.4477(3)
H6 H 0.2109 -0.2691 0.4725
C12 C 0.0666(4) -0.28528(12) 0.3777(2)
C13 C -0.0158(6) -0.32090(14) 0.3400(3)
H7 H -0.0769 -0.3154 0.2931
C14 C -0.0059(6) -0.36517(15) 0.3734(3)
H8 H -0.0587 -0.3895 0.3477
C15 C 0.2852(5) 0.08571(13) 0.7185(3)
C16 C 0.3447(4) 0.13408(13) 0.7303(2)
C17 C 0.4364(5) 0.14496(14) 0.7991(3)
H9 H 0.4570 0.1225 0.8388
C18 C 0.4978(5) 0.18938(13) 0.8087(3)
H10 H 0.5586 0.1969 0.8547
C19 C 0.4667(5) 0.22183(13) 0.7489(3)
C20 C 0.3730(5) 0.21227(14) 0.6819(3)
H11 H 0.3495 0.2352 0.6435
C21 C 0.3138(5) 0.16803(13) 0.6722(3)
H12 H 0.2526 0.1610 0.6261
C22 C 0.2626(5) 0.43901(13) 0.7663(2)
C23 C 0.3305(5) 0.39113(13) 0.7628(2)
C24 C 0.3036(5) 0.35949(13) 0.8249(3)
H13 H 0.2421 0.3677 0.8695
C25 C 0.3687(5) 0.31522(13) 0.8207(3)
H14 H 0.3484 0.2934 0.8614
C26 C 0.4637(5) 0.30439(13) 0.7553(3)
C27 C 0.4888(7) 0.33518(15) 0.6914(3)
H15 H 0.5514 0.3271 0.6471
C28 C 0.4181(7) 0.37819(16) 0.6954(3)
H16 H 0.4297 0.3988 0.6520
C29 C 0.2606(5) 0.43235(13) 0.3471(2)
C30 C 0.3360(4) 0.38738(13) 0.3723(2)
C31 C 0.2806(5) 0.36215(15) 0.4396(3)
H17 H 0.1988 0.3740 0.4707
C32 C 0.3460(5) 0.31959(15) 0.4606(3)
H18 H 0.3084 0.3030 0.5053
C33 C 0.4678(5) 0.30239(13) 0.4141(3)
C34 C 0.5246(5) 0.32666(14) 0.3479(3)
H19 H 0.6069 0.3147 0.3173
C35 C 0.4586(5) 0.36898(13) 0.3272(2)
H20 H 0.4971 0.3853 0.2824
C36 C 0.2835(5) 0.08207(13) 0.4120(3)
C37 C 0.3528(4) 0.13021(13) 0.4171(2)
C38 C 0.3076(5) 0.16464(14) 0.3620(3)
H21 H 0.2374 0.1575 0.3195
C39 C 0.3648(5) 0.20967(14) 0.3689(3)
H22 H 0.3309 0.2327 0.3328
C40 C 0.4724(4) 0.21923(13) 0.4303(3)
C41 C 0.5226(5) 0.18550(14) 0.4847(3)
H23 H 0.5972 0.1924 0.5252
C42 C 0.4608(4) 0.14132(13) 0.4784(3)
H24 H 0.4924 0.1187 0.5159
O1 O 0.0296(3) -0.04663(8) 0.50764(15)
O2 O 0.2838(3) -0.04771(8) 0.48396(15)
O3 O 0.0244(4) -0.45447(9) 0.44299(18)
O4 O 0.1505(3) -0.42608(9) 0.55059(17)
O5 O 0.0602(3) -0.24318(8) 0.33668(17)
O6 O 0.1980(3) 0.07695(8) 0.65703(16)
O7 O 0.3255(4) 0.05590(9) 0.77157(17)
O8 O 0.2304(3) 0.45741(9) 0.69784(17)
O9 O 0.2449(3) 0.45745(9) 0.83494(16)
O10 O 0.5497(3) 0.26331(9) 0.7554(2)
O11 O 0.1414(4) 0.44588(10) 0.38640(19)
O12 O 0.3161(4) 0.45422(11) 0.2886(2)
O13 O 0.2179(4) 0.07005(11) 0.3460(2)
O14 O 0.2969(3) 0.05706(9) 0.47478(16)
O15 O 0.5456(3) 0.26218(9) 0.4387(2)
O16 O 0.4577(3) 0.02021(9) 0.60429(15)
O17 O -0.0355(3) 0.00616(9) 0.65294(16)
O18 O 0.0842(3) -0.48664(9) 0.26295(17)
O19 O -0.2986(4) -0.49107(11) 0.4544(2)
H25 H 0.5238 0.0301 0.5626
H26 H 0.5008 0.0028 0.6447
H27 H -0.1031 -0.0106 0.6410
H28 H -0.0346 0.0173 0.6983
H29 H 0.1148 -0.4573 0.2431
H30 H 0.1797 -0.5005 0.2590
H31 H -0.3010 -0.5129 0.4858
H32 H -0.2972 -0.4607 0.4813
Tm1B Tm -0.189424(18) -0.014020(5) 0.427036(9)
Tm1A Tm 0.310576(18) 0.514020(5) 0.927036(9)
Tm2B Tm 0.08740(2) -0.489530(6) 0.630640(10)
Tm2C Tm 0.41260(2) 0.010470(6) 0.869360(10)
Tm2B_2 Tm 0.08740(2) 0.510470(6) 0.630640(10)
Tm2_2 Tm -0.08740(2) 0.489530(6) 0.369360(10)
O1B O -0.0296(3) 0.04663(8) 0.49236(15)
O4B O -0.1505(3) -0.57392(9) 0.44941(17)
O7C O -0.1745(4) -0.55590(9) 0.27157(17)
O8B O -0.2304(3) -0.45741(9) 0.30216(17)
O9A O 0.2551(3) -0.04255(9) 0.66506(16)
O11_2 O 0.1414(4) -0.55412(10) 0.38640(19)
O20 O -0.0848(6) -0.0330(2) 0.9014(3)
O21 O 0.7506(9) 0.4088(3) 0.7029(5)
O22? O -0.0383(8) -0.0686(3) 0.9780(5)
loop_
_geom_bond_atom_site_label_1
_geom_bond_atom_site_label_2
_geom_bond_site_symmetry_1
_geom_bond_site_symmetry_2
Tm1 O1 1_555 1_555
Tm2 O3 1_555 1_555
C1 C2 1_555 1_555
C2 C3 1_555 1_555
C3 H1 1_555 1_555
C4 C3 1_555 1_555
H2 C4 1_555 1_555
C5 C4 1_555 1_555
C6 C5 1_555 1_555
H3 C6 1_555 1_555
C7 C2 1_555 1_555
H4 C7 1_555 1_555
C8 C9 1_555 1_555
C9 C10 1_555 1_555
C10 H5 1_555 1_555
C11 C10 1_555 1_555
H6 C11 1_555 1_555
C12 C11 1_555 1_555
C13 C12 1_555 1_555
H7 C13 1_555 1_555
C14 C9 1_555 1_555
H8 C14 1_555 1_555
C15 C16 1_555 1_555
C16 C17 1_555 1_555
C17 H9 1_555 1_555
C18 C17 1_555 1_555
H10 C18 1_555 1_555
C19 C18 1_555 1_555
C20 C19 1_555 1_555
H11 C20 1_555 1_555
C21 C16 1_555 1_555
H12 C21 1_555 1_555
C22 C23 1_555 1_555
C23 C24 1_555 1_555
C24 H13 1_555 1_555
C25 C24 1_555 1_555
H14 C25 1_555 1_555
C26 C25 1_555 1_555
C27 C26 1_555 1_555
H15 C27 1_555 1_555
C28 C23 1_555 1_555
H16 C28 1_555 1_555
C29 C30 1_555 1_555
C30 C31 1_555 1_555
C31 H17 1_555 1_555
C32 C31 1_555 1_555
H18 C32 1_555 1_555
C33 C32 1_555 1_555
C34 C33 1_555 1_555
H19 C34 1_555 1_555
C35 C30 1_555 1_555
H20 C35 1_555 1_555
C36 C37 1_555 1_555
C37 C38 1_555 1_555
C38 H21 1_555 1_555
C39 C38 1_555 1_555
H22 C39 1_555 1_555
C40 C39 1_555 1_555
C41 C40 1_555 1_555
H23 C41 1_555 1_555
C42 C37 1_555 1_555
H24 C42 1_555 1_555
O1 C1 1_555 1_555
O2 Tm1 1_555 1_555
O3 C8 1_555 1_555
O4 C8 1_555 1_555
O5 C5 1_555 1_555
O6 Tm1 1_555 1_555
O7 C15 1_555 1_555
O8 C22 1_555 1_555
O9 C22 1_555 1_555
O10 C19 1_555 1_555
O11 C29 1_555 1_555
O12 C29 1_555 1_555
O13 C36 1_555 1_555
O14 Tm1 1_555 1_555
O15 C33 1_555 1_555
O16 Tm1 1_555 1_555
O17 Tm1 1_555 1_555
O18 Tm2 1_555 1_555
O19 Tm2 1_555 1_555
H25 O16 1_555 1_555
H26 O16 1_555 1_555
H27 O17 1_555 1_555
H28 O17 1_555 1_555
H29 O18 1_555 1_555
H30 O18 1_555 1_555
H31 O19 1_555 1_555
H32 O19 1_555 1_555
Tm1B O1 1_555 1_555
Tm1A O9 1_555 1_555
Tm2B O4 1_555 1_555
Tm2C O7 1_555 1_555
Tm2B_2 O8 1_555 1_555
Tm2_2 O11 1_555 1_555
O1B Tm1 1_555 1_555
O4B Tm2 1_555 1_555
O7C Tm2 1_555 1_555
O8B Tm2 1_555 1_555
O9A Tm1 1_555 1_555
O11_2 Tm2 1_555 1_555
C1 O2 1_555 1_555
C6 C7 1_555 1_555
C12 O5 1_555 1_555
C13 C14 1_555 1_555
C15 O6 1_555 1_555
C20 C21 1_555 1_555
C26 O10 1_555 1_555
C27 C28 1_555 1_555
C34 C35 1_555 1_555
C36 O14 1_555 1_555
C40 O15 1_555 1_555
C41 C42 1_555 1_555
Tm1B O1B 1_555 1_555

#END
