
#######################################################################
#
#                 Cambridge Crystallographic Data Centre
#                                CCDC 
#
#######################################################################
#
# If this CIF has been generated from an entry in the Cambridge 
# Structural Database, then it will include bibliographic, chemical, 
# crystal, experimental, refinement or atomic coordinate data resulting 
# from the CCDC's data processing and validation procedures.
#
#######################################################################

data_QATREK
_symmetry_cell_setting           triclinic
_symmetry_space_group_name_H-M   'P -1'
_symmetry_Int_Tables_number      2
_space_group_name_Hall           '-P 1'
loop_
_symmetry_equiv_pos_site_id
_symmetry_equiv_pos_as_xyz
1 x,y,z
2 -x,-y,-z
_cell_length_a                   6.50820(10)
_cell_length_b                   7.88800(10)
_cell_length_c                   9.5195(2)
_cell_angle_alpha                102.2300(10)
_cell_angle_beta                 90.3220(10)
_cell_angle_gamma                104.8770(10)
_cell_volume                     460.666
loop_
_atom_site_label
_atom_site_type_symbol
_atom_site_fract_x
_atom_site_fract_y
_atom_site_fract_z
Ce1 Ce 0.802944(17) 0.293406(15) 0.193243(12)
O1 O 0.9690(3) 0.5846(2) 0.1425(2)
O2 O 1.2617(3) 0.7634(2) 0.08082(19)
O3 O 1.1645(3) 0.4856(2) 0.33244(18)
H1 H 1.203(5) 0.486(4) 0.415(2)
O4 O 1.5098(3) 0.4452(2) 0.15435(19)
H2 H 1.388(3) 0.379(4) 0.143(4)
O5 O 1.7107(3) 0.5070(2) 0.40392(19)
O6 O 1.7090(3) 0.7956(3) 0.4617(2)
O7 O 0.7544(3) -0.0307(2) 0.0773(2)
O8 O 0.8740(3) -0.2175(3) -0.0910(2)
O9 O 0.4703(3) 0.0952(3) 0.2642(2)
H3 H 0.402(5) 0.004(3) 0.211(3)
H4 H 0.393(5) 0.124(4) 0.329(3)
O10 O 0.8945(3) 0.1537(3) 0.3966(2)
H5 H 1.010(4) 0.166(5) 0.441(4)
H6 H 0.824(5) 0.050(3) 0.400(4)
C1 C 1.1636(4) 0.6609(3) 0.1576(3)
C2 C 1.2914(3) 0.6351(3) 0.2842(2)
H7 H 1.3099 0.7420 0.3625
C3 C 1.5134(3) 0.6141(3) 0.2450(2)
H8 H 1.5782 0.7078 0.1935
C4 C 1.6557(3) 0.6430(3) 0.3815(3)
C5 C 0.8916(4) -0.0712(3) -0.0028(3)
Ce1A Ce 1.197056(17) 0.706594(15) -0.193243(12)
Ce1_2 Ce 1.802944(17) 0.293406(15) 0.193243(12)
Ce1A_2 Ce 1.197056(17) -0.293406(15) -0.193243(12)
Ce1A_3 Ce 0.197056(17) 0.706594(15) -0.193243(12)
O1A O 1.0310(3) 0.4154(2) -0.1425(2)
O2A O 0.7383(3) 0.2366(2) -0.08082(19)
O3A O 0.8355(3) 0.5144(2) -0.33244(18)
H1A H 0.797(5) 0.514(4) -0.415(2)
O4A O 0.4902(3) 0.5548(2) -0.15435(19)
O4_2 O 0.5098(3) 0.4452(2) 0.15435(19)
O4A_2 O 1.4902(3) 0.5548(2) -0.15435(19)
H2A H 0.612(3) 0.621(4) -0.143(4)
H2_2 H 0.388(3) 0.379(4) 0.143(4)
H2A_2 H 1.612(3) 0.621(4) -0.143(4)
O5A O 0.2893(3) 0.4930(2) -0.40392(19)
O5_2 O 0.7107(3) 0.5070(2) 0.40392(19)
O5A_2 O 1.2893(3) 0.4930(2) -0.40392(19)
O6A O 0.2910(3) 0.2044(3) -0.4617(2)
O7A O 1.2456(3) 0.0307(2) -0.0773(2)
O7A_2 O 1.2456(3) 1.0307(2) -0.0773(2)
O8A O 1.1260(3) 0.2175(3) 0.0910(2)
O8_2 O 0.8740(3) 0.7825(3) -0.0910(2)
O9A O 1.5297(3) 0.9048(3) -0.2642(2)
H3A H 1.598(5) 0.996(3) -0.211(3)
H4A H 1.607(5) 0.876(4) -0.329(3)
O10A O 1.1055(3) 0.8463(3) -0.3966(2)
H5A H 0.990(4) 0.834(5) -0.441(4)
H6A H 1.176(5) 0.950(3) -0.400(4)
C1A C 0.8364(4) 0.3391(3) -0.1576(3)
C2A C 0.7086(3) 0.3649(3) -0.2842(2)
H7A H 0.6901 0.2580 -0.3625
C3A C 0.4866(3) 0.3859(3) -0.2450(2)
H8A H 0.4218 0.2922 -0.1935
C4A C 0.3443(3) 0.3570(3) -0.3815(3)
C5A C 1.1084(4) 0.0712(3) 0.0028(3)
loop_
_geom_bond_atom_site_label_1
_geom_bond_atom_site_label_2
_geom_bond_site_symmetry_1
_geom_bond_site_symmetry_2
Ce1 O1 1_555 1_555
O1 C1 1_555 1_555
O2 C1 1_555 1_555
O3 Ce1 1_555 1_555
H1 O3 1_555 1_555
O4 H2 1_555 1_555
O5 C4 1_555 1_555
O6 C4 1_555 1_555
O7 Ce1 1_555 1_555
O8 C5 1_555 1_555
O9 Ce1 1_555 1_555
H3 O9 1_555 1_555
H4 O9 1_555 1_555
O10 Ce1 1_555 1_555
H5 O10 1_555 1_555
H6 O10 1_555 1_555
C1 C2 1_555 1_555
C2 O3 1_555 1_555
H7 C2 1_555 1_555
C3 O4 1_555 1_555
H8 C3 1_555 1_555
C4 C3 1_555 1_555
C5 O7 1_555 1_555
Ce1A O2 1_555 1_555
Ce1_2 O4 1_555 1_555
Ce1A_2 O8 1_555 1_555
Ce1A_3 O4A 1_555 1_555
O1A Ce1A 1_555 1_555
O2A Ce1 1_555 1_555
O3A Ce1A 1_555 1_555
H1A O3A 1_555 1_555
O4A H2A 1_555 1_555
O4_2 Ce1 1_555 1_555
O4A_2 Ce1A 1_555 1_555
H2_2 O4_2 1_555 1_555
H2A_2 O4A_2 1_555 1_555
O5A Ce1A_3 1_555 1_555
O5_2 Ce1 1_555 1_555
O5A_2 Ce1A 1_555 1_555
O6A C4A 1_555 1_555
O7A Ce1A_2 1_555 1_555
O7A_2 Ce1A 1_555 1_555
O8A Ce1 1_555 1_555
O8_2 Ce1A 1_555 1_555
O9A Ce1A 1_555 1_555
H3A O9A 1_555 1_555
H4A O9A 1_555 1_555
O10A Ce1A 1_555 1_555
H5A O10A 1_555 1_555
H6A O10A 1_555 1_555
C1A O1A 1_555 1_555
C2A O3A 1_555 1_555
H7A C2A 1_555 1_555
C3A O4A 1_555 1_555
H8A C3A 1_555 1_555
C4A O5A 1_555 1_555
C5A C5 1_555 1_555
O5 Ce1_2 1_555 1_555
C2 C3 1_555 1_555
O2A C1A 1_555 1_555
O7A C5A 1_555 1_555
O8A C5A 1_555 1_555
C1A C2A 1_555 1_555
C2A C3A 1_555 1_555
C3A C4A 1_555 1_555

#END
