
#######################################################################
#
#                 Cambridge Crystallographic Data Centre
#                                CCDC 
#
#######################################################################
#
# If this CIF has been generated from an entry in the Cambridge 
# Structural Database, then it will include bibliographic, chemical, 
# crystal, experimental, refinement or atomic coordinate data resulting 
# from the CCDC's data processing and validation procedures.
#
#######################################################################

data_QATSUA
_symmetry_cell_setting           triclinic
_symmetry_space_group_name_H-M   'P -1'
_symmetry_Int_Tables_number      2
_space_group_name_Hall           '-P 1'
loop_
_symmetry_equiv_pos_site_id
_symmetry_equiv_pos_as_xyz
1 x,y,z
2 -x,-y,-z
_cell_length_a                   8.8360(3)
_cell_length_b                   15.2570(6)
_cell_length_c                   17.4370(7)
_cell_angle_alpha                79.5540(16)
_cell_angle_beta                 86.5260(13)
_cell_angle_gamma                80.7980(17)
_cell_volume                     2280.78
loop_
_atom_site_label
_atom_site_type_symbol
_atom_site_fract_x
_atom_site_fract_y
_atom_site_fract_z
Ru1 Ru 0.03972(5) 0.37026(3) 0.23005(3)
Hg1 Hg 0.43727(7) 0.58915(5) 0.00362(3)
Cl1 Cl 0.3733(3) 0.59439(17) 0.14234(12)
S1 S 0.2758(2) 0.47350(12) -0.02104(10)
C1 C 0.1891(7) 0.4445(4) 0.0656(4)
N1 N 0.1272(5) 0.4231(3) 0.1240(3)
S2 S -0.3960(3) 0.29010(15) 0.11717(15)
N2 N -0.1365(6) 0.3353(3) 0.1795(3)
C2 C -0.2413(8) 0.3167(4) 0.1528(4)
N3 N -0.0277(5) 0.3033(3) 0.3343(3)
N4 N 0.1612(5) 0.2443(3) 0.2282(3)
C3 C -0.1287(6) 0.3381(4) 0.3866(4)
H1 H -0.1715 0.3985 0.3746
C4 C -0.1714(7) 0.2892(4) 0.4564(4)
H2 H -0.2419 0.3158 0.4904
C5 C -0.1069(9) 0.1991(4) 0.4752(4)
C6 C -0.1147(19) 0.1469(10) 0.5581(9)
O1 O -0.0771(12) 0.0641(6) 0.5703(6)
O2 O -0.1797(15) 0.1951(8) 0.6096(7)
H3 H -0.1798 0.1632 0.6528
C8 C -0.0050(8) 0.1610(4) 0.4223(4)
H5 H 0.0365 0.1002 0.4331
C9 C 0.0343(7) 0.2141(3) 0.3533(3)
C10 C 0.1421(7) 0.1818(3) 0.2943(3)
C11 C 0.2260(8) 0.0954(4) 0.3025(4)
H6 H 0.2136 0.0539 0.3477
C12 C 0.3272(7) 0.0711(4) 0.2441(4)
C13 C 0.4263(10) -0.0210(4) 0.2533(5)
O5 O 0.5159(7) -0.0353(3) 0.2011(4)
H7 H 0.5630 -0.0866 0.2117
O6 O 0.4331(11) -0.0680(6) 0.3273(6)
C14 C 0.3418(7) 0.1350(4) 0.1778(4)
H9 H 0.4090 0.1204 0.1373
C15 C 0.2579(7) 0.2194(4) 0.1715(4)
H10 H 0.2687 0.2609 0.1261
N5 N 0.2035(5) 0.4191(3) 0.2820(3)
N6 N -0.0738(5) 0.4966(3) 0.2404(3)
C16 C 0.3438(7) 0.3753(4) 0.3039(4)
H11 H 0.3731 0.3170 0.2940
C17 C 0.4442(7) 0.4120(4) 0.3396(4)
H12 H 0.5396 0.3792 0.3534
C18 C 0.4040(8) 0.4978(5) 0.3553(4)
C19 C 0.5100(8) 0.5413(6) 0.3953(5)
O8 O 0.4585(7) 0.6243(5) 0.4005(5)
H13 H 0.527(17) 0.639(10) 0.417(9)
O9 O 0.6299(6) 0.4980(5) 0.4210(4)
C20 C 0.2617(8) 0.5453(4) 0.3317(4)
H14 H 0.2337 0.6046 0.3393
C21 C 0.1619(7) 0.5041(4) 0.2971(4)
C22 C 0.0089(7) 0.5493(4) 0.2704(4)
C23 C -0.0459(8) 0.6403(4) 0.2746(5)
H15 H 0.0135 0.6754 0.2947
C24 C -0.1907(9) 0.6756(5) 0.2480(6)
C25 C -0.2458(10) 0.7768(6) 0.2462(7)
O10 O -0.3714(8) 0.8027(4) 0.2148(5)
H16 H -0.3972 0.8567 0.2152
O11 O -0.1882(15) 0.8133(8) 0.2976(8)
C26 C -0.2787(8) 0.6195(4) 0.2215(5)
H18 H -0.3790 0.6414 0.2067
C27 C -0.2162(7) 0.5317(4) 0.2173(4)
H19 H -0.2746 0.4956 0.1978
S1A S 0.7242(2) 0.52650(12) 0.02104(10)
S2A S 0.3960(3) 0.70990(15) -0.11717(15)
Hg1A Hg 0.56273(7) 0.41085(5) -0.00362(3)
Hg1A_2 Hg -0.43727(7) 0.41085(5) -0.00362(3)
Cl2 Cl -0.6344(2) 0.80611(12) 0.12571(12)
O13 O -0.3735(11) 0.1857(6) 0.3192(5)
O15 O 0.5625(13) 0.7898(6) 0.0331(6)
O16 O -0.432(2) 0.7717(12) 0.4095(11)
O17 O -0.024(4) 0.700(2) 0.028(2)
O22 O -0.873(3) 0.8795(18) 0.2453(16)
O23 O 0.185(4) -0.062(2) 0.735(2)
O25 O -0.373(8) 0.844(5) 0.532(4)
O32 O 0.192(5) 1.358(3) -0.504(3)
O33 O 0.379(5) 0.974(3) -0.401(2)
Hg2? Hg -0.37558(10) 0.34804(6) -0.01295(4)
C7? C -0.1752(14) 0.1361(7) 0.5400(6)
O3? O -0.1414(13) 0.0560(6) 0.5500(6)
O4? O -0.2687(11) 0.1796(6) 0.5875(5)
H4? H -0.3020 0.1432 0.6222
H8? H 0.4885 -0.1166 0.3277
O7? O 0.3971(12) -0.0795(7) 0.3000(7)
H17? H -0.2227 0.8672 0.2919
O12? O -0.1551(16) 0.8260(9) 0.2547(9)
O14? O 0.3034(14) -0.1248(9) 0.6885(9)
O18? O -0.042(3) 0.518(2) 0.5014(18)
O19? O -0.048(3) 0.555(2) 0.4867(16)
O20? O -0.362(3) 0.6855(14) 0.4825(13)
O21? O -0.826(2) 0.8174(12) 0.2120(10)
O24? O -0.443(5) 0.801(3) 0.491(3)
O26? O -0.129(3) 0.6231(18) 0.4746(16)
O27? O -0.311(3) 0.6655(16) 0.4651(14)
O28? O -0.363(9) -0.105(6) 0.501(5)
O29? O -0.180(5) 0.036(3) 0.310(3)
O30? O -0.251(5) -0.265(3) 0.491(3)
O31? O 1.006(5) 0.682(3) 0.050(3)
loop_
_geom_bond_atom_site_label_1
_geom_bond_atom_site_label_2
_geom_bond_site_symmetry_1
_geom_bond_site_symmetry_2
Ru1 N1 1_555 1_555
Hg1 Cl1 1_555 1_555
S1 Hg1 1_555 1_555
C1 S1 1_555 1_555
N1 C1 1_555 1_555
S2 C2 1_555 1_555
N2 Ru1 1_555 1_555
C2 N2 1_555 1_555
N3 Ru1 1_555 1_555
N4 Ru1 1_555 1_555
C3 N3 1_555 1_555
H1 C3 1_555 1_555
C4 C3 1_555 1_555
H2 C4 1_555 1_555
C5 C4 1_555 1_555
C6 C5 1_555 1_555
O1 C6 1_555 1_555
O2 C6 1_555 1_555
H3 O2 1_555 1_555
C8 C5 1_555 1_555
H5 C8 1_555 1_555
C9 N3 1_555 1_555
C10 N4 1_555 1_555
C11 C10 1_555 1_555
H6 C11 1_555 1_555
C12 C11 1_555 1_555
C13 C12 1_555 1_555
O5 C13 1_555 1_555
H7 O5 1_555 1_555
O6 C13 1_555 1_555
C14 C12 1_555 1_555
H9 C14 1_555 1_555
C15 N4 1_555 1_555
H10 C15 1_555 1_555
N5 Ru1 1_555 1_555
N6 Ru1 1_555 1_555
C16 N5 1_555 1_555
H11 C16 1_555 1_555
C17 C16 1_555 1_555
H12 C17 1_555 1_555
C18 C17 1_555 1_555
C19 C18 1_555 1_555
O8 C19 1_555 1_555
H13 O8 1_555 1_555
O9 C19 1_555 1_555
C20 C18 1_555 1_555
H14 C20 1_555 1_555
C21 N5 1_555 1_555
C22 N6 1_555 1_555
C23 C22 1_555 1_555
H15 C23 1_555 1_555
C24 C23 1_555 1_555
C25 C24 1_555 1_555
O10 C25 1_555 1_555
H16 O10 1_555 1_555
O11 C25 1_555 1_555
C26 C24 1_555 1_555
H18 C26 1_555 1_555
C27 N6 1_555 1_555
H19 C27 1_555 1_555
S1A Hg1 1_555 1_555
S2A Hg1 1_555 1_555
Hg1A S1 1_555 1_555
Hg1A_2 S2 1_555 1_555
C8 C9 1_555 1_555
C9 C10 1_555 1_555
C14 C15 1_555 1_555
C20 C21 1_555 1_555
C21 C22 1_555 1_555
C26 C27 1_555 1_555
S1A Hg1A 1_555 1_555

#END
