
#######################################################################
#
#                 Cambridge Crystallographic Data Centre
#                                CCDC 
#
#######################################################################
#
# If this CIF has been generated from an entry in the Cambridge 
# Structural Database, then it will include bibliographic, chemical, 
# crystal, experimental, refinement or atomic coordinate data resulting 
# from the CCDC's data processing and validation procedures.
#
#######################################################################

data_QATVUE
_symmetry_cell_setting           tetragonal
_symmetry_space_group_name_H-M   'I -4 2 d'
_symmetry_Int_Tables_number      122
_space_group_name_Hall           'I -4 2bw'
loop_
_symmetry_equiv_pos_site_id
_symmetry_equiv_pos_as_xyz
1 x,y,z
2 -x,-y,z
3 y,-x,-z
4 -y,x,-z
5 1/2-x,y,3/4-z
6 1/2+x,-y,3/4-z
7 1/2-y,-x,3/4+z
8 1/2+y,x,3/4+z
9 1/2+x,1/2+y,1/2+z
10 1/2-x,1/2-y,1/2+z
11 1/2+y,1/2-x,1/2-z
12 1/2-y,1/2+x,1/2-z
13 -x,1/2+y,1/4-z
14 x,1/2-y,1/4-z
15 -y,1/2-x,1/4+z
16 y,1/2+x,1/4+z
_cell_length_a                   17.540(2)
_cell_length_b                   17.540(2)
_cell_length_c                   21.383(6)
_cell_angle_alpha                90
_cell_angle_beta                 90
_cell_angle_gamma                90
_cell_volume                     6578.51
loop_
_atom_site_label
_atom_site_type_symbol
_atom_site_fract_x
_atom_site_fract_y
_atom_site_fract_z
Cu1 Cu 0.27912(6) 0.2500 0.1250
O1 O 0.3616(3) 0.0690(3) 0.0037(2)
N1 N 0.3626(3) 0.2626(3) 0.0588(3)
N2 N 0.2941(3) 0.1223(3) 0.0782(3)
N3 N 0.2689(4) 0.0459(3) 0.0712(3)
C1 C 0.3972(5) 0.3298(5) 0.0498(4)
H1 H 0.3824 0.3716 0.0736
C2 C 0.4541(6) 0.3381(6) 0.0062(5)
H2 H 0.4760 0.3858 0.0004
C3 C 0.4791(7) 0.2791(6) -0.0283(5)
H3 H 0.5175 0.2856 -0.0578
C4 C 0.4448(5) 0.2058(5) -0.0185(4)
H4 H 0.4603 0.1630 -0.0408
C5 C 0.3882(4) 0.2023(4) 0.0252(3)
C6 C 0.3469(4) 0.1302(4) 0.0377(3)
C7 C 0.3084(4) 0.0180(4) 0.0267(3)
C8 C 0.3037(5) -0.0568(4) -0.0027(4)
C9 C 0.2538(6) -0.1112(5) 0.0195(4)
H5 H 0.2254 -0.1030 0.0556
C10 C 0.3476(5) -0.0755(4) -0.0558(4)
H6 H 0.3843 -0.0418 -0.0707
N4 N 0.2827(4) -0.1940(3) -0.0654(3)
C11 C 0.2475(7) -0.1775(5) -0.0136(4)
H7 H 0.2149 -0.2144 0.0025
C12 C 0.3360(5) -0.1423(4) -0.0844(5)
H8 H 0.3658 -0.1541 -0.1191
Cu1B Cu 0.2500 -0.27912(6) -0.1250
Cu1K Cu 0.2500 0.77912(6) 0.3750
O1M O 0.3616(3) 0.4310(3) 0.2463(2)
N1M N 0.3626(3) 0.2374(3) 0.1912(3)
N2M N 0.2941(3) 0.3777(3) 0.1718(3)
N3M N 0.2689(4) 0.4541(3) 0.1788(3)
C1M C 0.3972(5) 0.1702(5) 0.2002(4)
H1M H 0.3824 0.1284 0.1764
C2M C 0.4541(6) 0.1619(6) 0.2438(5)
H2M H 0.4760 0.1142 0.2496
C3M C 0.4791(7) 0.2209(6) 0.2783(5)
H3M H 0.5175 0.2144 0.3078
C4M C 0.4448(5) 0.2942(5) 0.2685(4)
H4M H 0.4603 0.3370 0.2908
C5M C 0.3882(4) 0.2977(4) 0.2248(3)
C6M C 0.3469(4) 0.3698(4) 0.2123(3)
C7M C 0.3084(4) 0.4820(4) 0.2233(3)
C8M C 0.3037(5) 0.5568(4) 0.2527(4)
C9M C 0.2538(6) 0.6112(5) 0.2305(4)
H5M H 0.2254 0.6030 0.1944
C10M C 0.3476(5) 0.5755(4) 0.3058(4)
H6M H 0.3843 0.5418 0.3207
N4M N 0.2827(4) 0.6940(3) 0.3154(3)
N4C N 0.1940(3) 0.2827(4) 0.0654(3)
N4N N 0.1940(3) 0.2173(4) 0.1846(3)
C11M C 0.2475(7) 0.6775(5) 0.2636(4)
H7M H 0.2149 0.7144 0.2475
C12M C 0.3360(5) 0.6423(4) 0.3344(5)
H8M H 0.3658 0.6541 0.3691
Cl1 Cl 0.1263(2) 0.7500 0.1250
O2 O 0.0828(7) 0.7813(6) 0.0788(5)
O3 O 0.1727(6) 0.6954(5) 0.0982(4)
O2M O 0.0828(7) 0.7187(6) 0.1712(5)
O3M O 0.1727(6) 0.8046(5) 0.1518(4)
Cl2 Cl 0.5000 1.0000 0.10609(19)
O4 O 0.4810(10) 0.9375(10) 0.0703(7)
O5 O 0.4343(6) 1.0157(7) 0.1325(6)
O4A O 0.5190(10) 1.0625(10) 0.0703(7)
O5A O 0.5657(6) 0.9843(7) 0.1325(6)
O6 O 0.381(2) 0.7500 0.1250
loop_
_geom_bond_atom_site_label_1
_geom_bond_atom_site_label_2
_geom_bond_site_symmetry_1
_geom_bond_site_symmetry_2
Cu1 N1 1_555 1_555
Cl1 O2 1_555 1_555
Cl2 O4 1_555 1_555
O1 C6 1_555 1_555
O3 Cl1 1_555 1_555
O5 Cl2 1_555 1_555
N1 C1 1_555 1_555
N2 Cu1 1_555 1_555
N3 N2 1_555 1_555
C1 H1 1_555 1_555
C2 C1 1_555 1_555
H2 C2 1_555 1_555
C3 C2 1_555 1_555
H3 C3 1_555 1_555
C4 C3 1_555 1_555
H4 C4 1_555 1_555
C5 N1 1_555 1_555
C6 N2 1_555 1_555
C7 O1 1_555 1_555
C8 C7 1_555 1_555
C9 C8 1_555 1_555
H5 C9 1_555 1_555
C10 C8 1_555 1_555
H6 C10 1_555 1_555
N4 C11 1_555 1_555
C11 C9 1_555 1_555
H7 C11 1_555 1_555
C12 C10 1_555 1_555
H8 C12 1_555 1_555
Cu1B N4 1_555 1_555
Cu1K N4M 1_555 1_555
O1M C6M 1_555 1_555
O2M Cl1 1_555 1_555
O3M Cl1 1_555 1_555
O4A Cl2 1_555 1_555
O5A Cl2 1_555 1_555
N1M Cu1 1_555 1_555
N2M Cu1 1_555 1_555
N3M N2M 1_555 1_555
C1M N1M 1_555 1_555
H1M C1M 1_555 1_555
C2M C1M 1_555 1_555
H2M C2M 1_555 1_555
C3M C2M 1_555 1_555
H3M C3M 1_555 1_555
C4M C3M 1_555 1_555
H4M C4M 1_555 1_555
C5M N1M 1_555 1_555
C6M N2M 1_555 1_555
C7M O1M 1_555 1_555
C8M C7M 1_555 1_555
C9M C8M 1_555 1_555
H5M C9M 1_555 1_555
C10M C8M 1_555 1_555
H6M C10M 1_555 1_555
N4M C11M 1_555 1_555
N4C Cu1 1_555 1_555
N4N Cu1 1_555 1_555
C11M C9M 1_555 1_555
H7M C11M 1_555 1_555
C12M C10M 1_555 1_555
H8M C12M 1_555 1_555
N3 C7 1_555 1_555
C4 C5 1_555 1_555
C5 C6 1_555 1_555
N4 C12 1_555 1_555
N3M C7M 1_555 1_555
C4M C5M 1_555 1_555
C5M C6M 1_555 1_555
N4M C12M 1_555 1_555

#END
