
#######################################################################
#
#                 Cambridge Crystallographic Data Centre
#                                CCDC 
#
#######################################################################
#
# If this CIF has been generated from an entry in the Cambridge 
# Structural Database, then it will include bibliographic, chemical, 
# crystal, experimental, refinement or atomic coordinate data resulting 
# from the CCDC's data processing and validation procedures.
#
#######################################################################

data_QATVOY
_symmetry_cell_setting           tetragonal
_symmetry_space_group_name_H-M   'P 41 21 2'
_symmetry_Int_Tables_number      92
_space_group_name_Hall           'P 4abw 2nw'
loop_
_symmetry_equiv_pos_site_id
_symmetry_equiv_pos_as_xyz
1 x,y,z
2 -x,-y,1/2+z
3 1/2-y,1/2+x,1/4+z
4 1/2+y,1/2-x,3/4+z
5 1/2-x,1/2+y,1/4-z
6 1/2+x,1/2-y,3/4-z
7 y,x,-z
8 -y,-x,1/2-z
_cell_length_a                   12.129(4)
_cell_length_b                   12.129(4)
_cell_length_c                   35.69(3)
_cell_angle_alpha                90
_cell_angle_beta                 90
_cell_angle_gamma                90
_cell_volume                     5250.45
loop_
_atom_site_label
_atom_site_type_symbol
_atom_site_fract_x
_atom_site_fract_y
_atom_site_fract_z
C1 C -0.0294(3) 0.4420(3) -0.32841(10)
H1 H -0.1058 0.4682 -0.3282
C2 C -0.0083(3) 0.3826(3) -0.36501(12)
H2 H -0.0545 0.3175 -0.3665
H3 H 0.0681 0.3594 -0.3662
C3 C -0.0340(4) 0.4598(4) -0.39763(12)
H4 H -0.0178 0.4224 -0.4210
H5 H -0.1121 0.4773 -0.3974
C4 C 0.0306(4) 0.5639(4) -0.39580(13)
H6 H 0.0060 0.6132 -0.4155
H7 H 0.1079 0.5476 -0.4001
C5 C 0.0177(3) 0.6205(3) -0.35812(12)
H8 H 0.0647 0.6852 -0.3572
H9 H -0.0581 0.6444 -0.3550
C6 C 0.0483(3) 0.5432(3) -0.32694(11)
H10 H 0.1240 0.5177 -0.3311
C7 C 0.1236(3) 0.5970(3) -0.26766(12)
H11 H 0.1859 0.5565 -0.2741
C8 C 0.1259(3) 0.6513(3) -0.23317(12)
C9 C 0.2201(3) 0.6409(3) -0.20848(13)
C10 C 0.3052(4) 0.5653(4) -0.21425(17)
H12 H 0.3030 0.5193 -0.2351
C11 C 0.3911(4) 0.5578(5) -0.19002(19)
H13 H 0.4474 0.5076 -0.1947
C12 C 0.3960(4) 0.6241(4) -0.15834(17)
H14 H 0.4560 0.6198 -0.1422
C13 C 0.3121(3) 0.6951(4) -0.15130(15)
H15 H 0.3139 0.7381 -0.1297
C14 C 0.2232(3) 0.7047(3) -0.17581(11)
C15 C 0.1337(3) 0.7772(3) -0.16824(13)
H16 H 0.1378 0.8222 -0.1472
C16 C 0.0441(3) 0.7840(4) -0.18983(13)
H17 H -0.0131 0.8310 -0.1830
C17 C 0.0351(3) 0.7211(3) -0.22278(12)
C18 C -0.0845(3) 0.3629(3) -0.26982(12)
H18 H -0.1486 0.4045 -0.2720
C19 C -0.0736(3) 0.2972(3) -0.23776(13)
C20 C -0.1559(3) 0.2998(3) -0.20862(13)
C21 C -0.2500(3) 0.3667(4) -0.20965(15)
H19 H -0.2624 0.4106 -0.2306
C22 C -0.3236(4) 0.3695(6) -0.18111(19)
H20 H -0.3858 0.4142 -0.1824
C23 C -0.3042(6) 0.3040(6) -0.1498(2)
H21 H -0.3542 0.3049 -0.1301
C24 C -0.2146(5) 0.2397(5) -0.14758(15)
H22 H -0.2024 0.1986 -0.1260
C25 C -0.1402(4) 0.2334(4) -0.17672(13)
C26 C -0.0467(5) 0.1638(4) -0.17510(16)
H23 H -0.0391 0.1164 -0.1548
C27 C 0.0322(4) 0.1635(4) -0.20200(15)
H24 H 0.0933 0.1178 -0.1995
C28 C 0.0221(4) 0.2309(3) -0.23319(14)
Cl1 Cl 0.29366(11) 0.30835(12) -0.30979(4)
Cl2 Cl 0.35403(13) 0.25136(10) -0.20765(4)
N1 N 0.0438(2) 0.5975(2) -0.29152(10)
H25 H -0.0155 0.6324 -0.2857
N2 N -0.0132(2) 0.3708(2) -0.29684(10)
O1 O -0.0518(2) 0.7248(2) -0.24338(9)
O2 O 0.0980(2) 0.2311(3) -0.25858(11)
H26 H 0.0883 0.3024 -0.2704
Zn1 Zn 0.25825(4) 0.21233(3) -0.259010(14)
O1G O 0.2752(2) 0.0518(2) -0.25662(9)
Zn1G Zn -0.21233(3) 0.74175(4) -0.240990(14)
loop_
_geom_bond_atom_site_label_1
_geom_bond_atom_site_label_2
_geom_bond_site_symmetry_1
_geom_bond_site_symmetry_2
C1 H1 1_555 1_555
C2 C1 1_555 1_555
H2 C2 1_555 1_555
H3 C2 1_555 1_555
C3 C2 1_555 1_555
H4 C3 1_555 1_555
H5 C3 1_555 1_555
C4 C3 1_555 1_555
H6 C4 1_555 1_555
H7 C4 1_555 1_555
C5 C4 1_555 1_555
H8 C5 1_555 1_555
H9 C5 1_555 1_555
C6 C1 1_555 1_555
H10 C6 1_555 1_555
C7 H11 1_555 1_555
C8 C7 1_555 1_555
C9 C8 1_555 1_555
C10 C9 1_555 1_555
H12 C10 1_555 1_555
C11 C10 1_555 1_555
H13 C11 1_555 1_555
C12 C11 1_555 1_555
H14 C12 1_555 1_555
C13 C12 1_555 1_555
H15 C13 1_555 1_555
C14 C9 1_555 1_555
C15 C14 1_555 1_555
H16 C15 1_555 1_555
C16 C15 1_555 1_555
H17 C16 1_555 1_555
C17 C8 1_555 1_555
C18 H18 1_555 1_555
C19 C18 1_555 1_555
C20 C19 1_555 1_555
C21 C20 1_555 1_555
H19 C21 1_555 1_555
C22 C21 1_555 1_555
H20 C22 1_555 1_555
C23 C22 1_555 1_555
H21 C23 1_555 1_555
C24 C23 1_555 1_555
H22 C24 1_555 1_555
C25 C20 1_555 1_555
C26 C25 1_555 1_555
H23 C26 1_555 1_555
C27 C26 1_555 1_555
H24 C27 1_555 1_555
C28 C19 1_555 1_555
Cl1 Zn1 1_555 1_555
Cl2 Zn1 1_555 1_555
N1 C6 1_555 1_555
H25 N1 1_555 1_555
N2 C1 1_555 1_555
O1 C17 1_555 1_555
O2 C28 1_555 1_555
H26 O2 1_555 1_555
Zn1 O2 1_555 1_555
O1G Zn1 1_555 1_555
Zn1G O1 1_555 1_555
C5 C6 1_555 1_555
C7 N1 1_555 1_555
C13 C14 1_555 1_555
C16 C17 1_555 1_555
C18 N2 1_555 1_555
C24 C25 1_555 1_555
C27 C28 1_555 1_555

#END
