
#######################################################################
#
#                 Cambridge Crystallographic Data Centre
#                                CCDC 
#
#######################################################################
#
# If this CIF has been generated from an entry in the Cambridge 
# Structural Database, then it will include bibliographic, chemical, 
# crystal, experimental, refinement or atomic coordinate data resulting 
# from the CCDC's data processing and validation procedures.
#
#######################################################################

data_QATWEP
_symmetry_cell_setting           triclinic
_symmetry_space_group_name_H-M   'P -1'
_symmetry_Int_Tables_number      2
_space_group_name_Hall           '-P 1'
loop_
_symmetry_equiv_pos_site_id
_symmetry_equiv_pos_as_xyz
1 x,y,z
2 -x,-y,-z
_cell_length_a                   8.4140(8)
_cell_length_b                   10.7045(11)
_cell_length_c                   11.5400(11)
_cell_angle_alpha                101.004(2)
_cell_angle_beta                 109.371(2)
_cell_angle_gamma                90.558(2)
_cell_volume                     959.514
loop_
_atom_site_label
_atom_site_type_symbol
_atom_site_fract_x
_atom_site_fract_y
_atom_site_fract_z
Cu1 Cu 0.5000 0.0000 0.0000
C1 C 0.7501(5) 0.1301(3) 0.2596(3)
H1 H 0.8008 0.0565 0.2794
C2 C 0.7847(5) 0.2468(4) 0.3363(3)
H2 H 0.8628 0.2684 0.4173
C3 C 0.5909(4) 0.2581(3) 0.1587(3)
H3 H 0.5120 0.2907 0.0962
C4 C 0.6745(5) 0.4630(3) 0.3163(3)
H4 H 0.6146 0.5012 0.2459
H5 H 0.7881 0.5043 0.3541
C5 C 0.5852(4) 0.4838(3) 0.4116(3)
C6 C 0.6718(4) 0.5129(3) 0.5390(3)
C7 C 0.4112(5) 0.4708(3) 0.3750(3)
C8 C 0.2586(4) 0.0787(3) 0.1385(3)
H6 H 0.3264 0.0525 0.2100
C9 C 0.1141(4) 0.1391(3) 0.1281(3)
H7 H 0.0652 0.1617 0.1898
C10 C 0.1641(4) 0.1124(3) -0.0498(3)
H8 H 0.1529 0.1146 -0.1323
C11 C -0.0937(4) 0.2262(3) -0.0485(3)
H9 H -0.1797 0.2117 -0.0126
H10 H -0.1397 0.1921 -0.1381
C12 C -0.0482(4) 0.3679(3) -0.0252(3)
C13 C -0.0429(4) 0.4485(3) 0.0852(3)
C14 C -0.0037(4) 0.4230(3) -0.1105(3)
F1 F 0.8423(3) 0.5254(3) 0.5812(2)
F2 F 0.3195(3) 0.4421(2) 0.25137(19)
F3 F -0.0816(3) 0.3990(2) 0.1724(2)
F4 F -0.0083(3) 0.3506(2) -0.2201(2)
N1 N 0.6281(3) 0.1376(2) 0.1481(3)
N2 N 0.6826(4) 0.3266(3) 0.2717(3)
N3 N 0.2881(3) 0.0628(2) 0.0265(3)
N4 N 0.0556(3) 0.1596(2) 0.0076(3)
N5 N 0.5544(5) -0.2477(3) 0.1778(3)
O1 O 0.5152(4) -0.1422(3) 0.1543(3)
O2 O 0.5588(9) -0.2724(4) 0.2795(4)
O3 O 0.6056(5) -0.3275(3) 0.1069(3)
Cu1_2 Cu 0.5000 1.0000 1.0000
Cu1_3 Cu -0.5000 1.0000 0.0000
C1A C 0.2499(5) 0.8699(3) 0.7404(3)
H1A H 0.1992 0.9435 0.7206
C2A C 0.2153(5) 0.7532(4) 0.6637(3)
H2A H 0.1372 0.7316 0.5827
C3A C 0.4091(4) 0.7419(3) 0.8413(3)
H3A H 0.4880 0.7093 0.9038
C4A C 0.3255(5) 0.5370(3) 0.6837(3)
H4A H 0.3854 0.4988 0.7541
H5A H 0.2119 0.4957 0.6459
C5A C 0.4148(4) 0.5162(3) 0.5884(3)
C6A C 0.3282(4) 0.4871(3) 0.4610(3)
C7A C 0.5888(5) 0.5292(3) 0.6250(3)
C8A C -0.2586(4) 0.9213(3) -0.1385(3)
H6A H -0.3264 0.9475 -0.2100
C9A C -0.1141(4) 0.8609(3) -0.1281(3)
H7A H -0.0652 0.8383 -0.1898
C10A C -0.1641(4) 0.8876(3) 0.0498(3)
H8A H -0.1529 0.8854 0.1323
C11A C 0.0937(4) 0.7738(3) 0.0485(3)
H9A H 0.1797 0.7883 0.0126
H10A H 0.1397 0.8079 0.1381
C12A C 0.0482(4) 0.6321(3) 0.0252(3)
C13A C 0.0429(4) 0.5515(3) -0.0852(3)
C14A C 0.0037(4) 0.5770(3) 0.1105(3)
F1A F 0.1577(3) 0.4746(3) 0.4188(2)
F2A F 0.6805(3) 0.5579(2) 0.74863(19)
F3A F 0.0816(3) 0.6010(2) -0.1724(2)
F4A F 0.0083(3) 0.6494(2) 0.2201(2)
N1A N 0.3719(3) 0.8624(2) 0.8519(3)
N1A_2 N 0.3719(3) -0.1376(2) -0.1481(3)
N2A N 0.3174(4) 0.6734(3) 0.7283(3)
N3A N -0.2881(3) 0.9372(2) -0.0265(3)
N3A_2 N 0.7119(3) -0.0628(2) -0.0265(3)
N4A N -0.0556(3) 0.8404(2) -0.0076(3)
N5A N 0.4456(5) 0.2477(3) -0.1778(3)
O1A O 0.4848(4) 0.1422(3) -0.1543(3)
O2A O 0.4412(9) 0.2724(4) -0.2795(4)
O3A O 0.3944(5) 0.3275(3) -0.1069(3)
O4 O 0.9257(10) 0.0528(6) 0.6390(4)
H11 H 0.8567 0.1047 0.6167
H12 H 0.8954 -0.0201 0.6395
O5 O 0.1059(11) 0.1727(7) 0.5445(5)
H13 H 0.1968 0.2071 0.5509
H14 H 0.0985 0.1283 0.5932
O6 O 0.5549(12) 0.0666(6) 0.5795(7)
O7? O 0.526(2) 0.1530(12) 0.4911(13)
O8? O 0.6445(15) 0.1494(12) 0.5835(10)
loop_
_geom_bond_atom_site_label_1
_geom_bond_atom_site_label_2
_geom_bond_site_symmetry_1
_geom_bond_site_symmetry_2
Cu1 N1 1_555 1_555
C1 H1 1_555 1_555
C2 C1 1_555 1_555
H2 C2 1_555 1_555
C3 H3 1_555 1_555
C4 H4 1_555 1_555
H5 C4 1_555 1_555
C5 C4 1_555 1_555
C6 C5 1_555 1_555
C7 C5 1_555 1_555
C8 H6 1_555 1_555
C9 C8 1_555 1_555
H7 C9 1_555 1_555
C10 H8 1_555 1_555
C11 H9 1_555 1_555
H10 C11 1_555 1_555
C12 C11 1_555 1_555
C13 C12 1_555 1_555
C14 C12 1_555 1_555
F1 C6 1_555 1_555
F2 C7 1_555 1_555
F3 C13 1_555 1_555
F4 C14 1_555 1_555
N1 C1 1_555 1_555
N2 C2 1_555 1_555
N3 Cu1 1_555 1_555
N4 C9 1_555 1_555
N5 O1 1_555 1_555
O1 Cu1 1_555 1_555
O2 N5 1_555 1_555
O3 N5 1_555 1_555
O4 H11 1_555 1_555
H12 O4 1_555 1_555
O5 H13 1_555 1_555
H14 O5 1_555 1_555
Cu1_2 N1A 1_555 1_555
Cu1_3 N3A 1_555 1_555
C1A H1A 1_555 1_555
C2A C1A 1_555 1_555
H2A C2A 1_555 1_555
C3A H3A 1_555 1_555
C4A H4A 1_555 1_555
H5A C4A 1_555 1_555
C5A C4A 1_555 1_555
C6A C7 1_555 1_555
C7A C6 1_555 1_555
C8A H6A 1_555 1_555
C9A C8A 1_555 1_555
H7A C9A 1_555 1_555
C10A H8A 1_555 1_555
C11A H9A 1_555 1_555
H10A C11A 1_555 1_555
C12A C11A 1_555 1_555
C13A C14 1_555 1_555
C14A C13 1_555 1_555
F1A C6A 1_555 1_555
F2A C7A 1_555 1_555
F3A C13A 1_555 1_555
F4A C14A 1_555 1_555
N1A C1A 1_555 1_555
N1A_2 Cu1 1_555 1_555
N2A C2A 1_555 1_555
N3A C8A 1_555 1_555
N3A_2 Cu1 1_555 1_555
N4A C9A 1_555 1_555
N5A O1A 1_555 1_555
O1A Cu1 1_555 1_555
O2A N5A 1_555 1_555
O3A N5A 1_555 1_555
C3 N1 1_555 1_555
C3 N2 1_555 1_555
C4 N2 1_555 1_555
C8 N3 1_555 1_555
C10 N3 1_555 1_555
C10 N4 1_555 1_555
C11 N4 1_555 1_555
C3A N1A 1_555 1_555
C3A N2A 1_555 1_555
C4A N2A 1_555 1_555
C5A C6A 1_555 1_555
C5A C7A 1_555 1_555
C10A N3A 1_555 1_555
C10A N4A 1_555 1_555
C11A N4A 1_555 1_555
C12A C13A 1_555 1_555
C12A C14A 1_555 1_555

#END
