
#######################################################################
#
#                 Cambridge Crystallographic Data Centre
#                                CCDC 
#
#######################################################################
#
# If this CIF has been generated from an entry in the Cambridge 
# Structural Database, then it will include bibliographic, chemical, 
# crystal, experimental, refinement or atomic coordinate data resulting 
# from the CCDC's data processing and validation procedures.
#
#######################################################################

data_QATWAL
_symmetry_cell_setting           monoclinic
_symmetry_space_group_name_H-M   'C 2/c'
_symmetry_Int_Tables_number      15
_space_group_name_Hall           '-C 2yn'
loop_
_symmetry_equiv_pos_site_id
_symmetry_equiv_pos_as_xyz
1 x,y,z
2 -x,y,1/2-z
3 1/2+x,1/2+y,z
4 1/2-x,1/2+y,1/2-z
5 -x,-y,-z
6 x,-y,1/2+z
7 1/2-x,1/2-y,-z
8 1/2+x,1/2-y,1/2+z
_cell_length_a                   17.8788(19)
_cell_length_b                   8.7402(9)
_cell_length_c                   19.985(2)
_cell_angle_alpha                90
_cell_angle_beta                 97.691(2)
_cell_angle_gamma                90
_cell_volume                     3094.85
loop_
_atom_site_label
_atom_site_type_symbol
_atom_site_fract_x
_atom_site_fract_y
_atom_site_fract_z
Cu1 Cu 0.0000 0.0000 1.0000
N1 N 0.04259(12) 0.2113(2) 1.00713(10)
N2 N 0.10587(12) 0.4124(2) 0.98154(10)
N3 N 0.06026(13) 0.0535(3) 0.58980(10)
N4 N 0.14626(13) 0.1553(3) 0.66457(10)
N5 N 0.15843(13) -0.0737(3) 0.91237(11)
O1 O 0.10268(13) -0.1048(3) 0.93993(12)
O2 O 0.21974(14) -0.1338(4) 0.93570(15)
O3 O 0.1537(2) 0.0145(3) 0.86470(18)
C1 C 0.21195(16) 0.2474(4) 0.69313(15)
H1 H 0.2218 0.3257 0.6610
H2 H 0.2562 0.1824 0.7015
C2 C 0.13739(15) 0.4211(3) 0.76032(12)
C3 C 0.12335(16) 0.4864(3) 0.82053(16)
C4 C 0.16731(15) 0.4558(3) 0.88045(13)
C5 C 0.22714(15) 0.3586(3) 0.87793(13)
C6 C 0.24235(16) 0.2934(3) 0.81802(14)
C7 C 0.19722(14) 0.3217(3) 0.75827(12)
C8 C 0.15010(18) 0.5209(3) 0.94593(15)
H3 H 0.1970 0.5447 0.9744
H4 H 0.1219 0.6152 0.9373
C9 C 0.08706(19) 0.4367(3) 1.04440(14)
H5 H 0.0990 0.5220 1.0715
C10 C 0.04764(17) 0.3129(3) 1.05964(13)
H6 H 0.0271 0.2988 1.0996
C11 C 0.07881(14) 0.2762(3) 0.96126(12)
H7 H 0.0846 0.2321 0.9199
C12 C 0.0456(2) 0.0126(3) 0.65303(18)
H8 H 0.0054 -0.0476 0.6622
C13 C 0.09858(19) 0.0731(4) 0.69958(15)
H9 H 0.1023 0.0616 0.7462
C14 C 0.12089(15) 0.1395(3) 0.59886(12)
H10 H 0.1433 0.1836 0.5642
F1 F 0.06405(11) 0.5824(2) 0.81893(10)
F2 F 0.09220(11) 0.4551(3) 0.70312(9)
F3 F 0.30024(11) 0.1966(2) 0.81919(10)
F4 F 0.27221(12) 0.3232(3) 0.93483(8)
Cu1A Cu 0.0000 0.0000 0.5000
Cu1A_2 Cu 0.0000 0.0000 1.5000
N1D N -0.04259(12) -0.2113(2) 0.99287(10)
N2D N -0.10587(12) -0.4124(2) 1.01846(10)
N3D N -0.06026(13) -0.0535(3) 1.41020(10)
N3A N -0.06026(13) 0.0535(3) 0.91020(10)
N3E N 0.06026(13) -0.0535(3) 1.08980(10)
N4D N -0.14626(13) -0.1553(3) 1.33543(10)
N5D N -0.15843(13) 0.0737(3) 1.08763(11)
O1D O -0.10268(13) 0.1048(3) 1.06007(12)
O2D O -0.21974(14) 0.1338(4) 1.06430(15)
O3D O -0.1537(2) -0.0145(3) 1.13530(18)
C1D C -0.21195(16) -0.2474(4) 1.30687(15)
H1D H -0.2218 -0.3257 1.3390
H2D H -0.2562 -0.1824 1.2985
C2D C -0.13739(15) -0.4211(3) 1.23968(12)
C3D C -0.12335(16) -0.4864(3) 1.17947(16)
C4D C -0.16731(15) -0.4558(3) 1.11955(13)
C5D C -0.22714(15) -0.3586(3) 1.12207(13)
C6D C -0.24235(16) -0.2934(3) 1.18198(14)
C7D C -0.19722(14) -0.3217(3) 1.24173(12)
C8D C -0.15010(18) -0.5209(3) 1.05407(15)
H3D H -0.1970 -0.5447 1.0256
H4D H -0.1219 -0.6152 1.0627
C9D C -0.08706(19) -0.4367(3) 0.95560(14)
H5D H -0.0990 -0.5220 0.9285
C10D C -0.04764(17) -0.3129(3) 0.94036(13)
H6D H -0.0271 -0.2988 0.9004
C11D C -0.07881(14) -0.2762(3) 1.03874(12)
H7D H -0.0846 -0.2321 1.0801
C12D C -0.0456(2) -0.0126(3) 1.34697(18)
H8D H -0.0054 0.0476 1.3378
C13D C -0.09858(19) -0.0731(4) 1.30042(15)
H9D H -0.1023 -0.0616 1.2538
C14D C -0.12089(15) -0.1395(3) 1.40114(12)
H10D H -0.1433 -0.1836 1.4358
F1D F -0.06405(11) -0.5824(2) 1.18107(10)
F2D F -0.09220(11) -0.4551(3) 1.29688(9)
F3D F -0.30024(11) -0.1966(2) 1.18081(10)
F4D F -0.27221(12) -0.3232(3) 1.06517(8)
loop_
_geom_bond_atom_site_label_1
_geom_bond_atom_site_label_2
_geom_bond_site_symmetry_1
_geom_bond_site_symmetry_2
Cu1 N1 1_555 1_555
N1 C10 1_555 1_555
N2 C8 1_555 1_555
N3 C12 1_555 1_555
N4 C1 1_555 1_555
N5 O1 1_555 1_555
O1 Cu1 1_555 1_555
O2 N5 1_555 1_555
O3 N5 1_555 1_555
C1 H1 1_555 1_555
H2 C1 1_555 1_555
C2 C3 1_555 1_555
C3 C4 1_555 1_555
C4 C5 1_555 1_555
C5 C6 1_555 1_555
C6 C7 1_555 1_555
C7 C1 1_555 1_555
C8 C4 1_555 1_555
H3 C8 1_555 1_555
H4 C8 1_555 1_555
C9 N2 1_555 1_555
H5 C9 1_555 1_555
C10 C9 1_555 1_555
H6 C10 1_555 1_555
C11 N1 1_555 1_555
H7 C11 1_555 1_555
C12 H8 1_555 1_555
C13 N4 1_555 1_555
H9 C13 1_555 1_555
C14 N3 1_555 1_555
H10 C14 1_555 1_555
F1 C3 1_555 1_555
F2 C2 1_555 1_555
F3 C6 1_555 1_555
F4 C5 1_555 1_555
Cu1A N3 1_555 1_555
Cu1A_2 N3D 1_555 1_555
N1D Cu1 1_555 1_555
N2D C8D 1_555 1_555
N3D C12D 1_555 1_555
N3A Cu1 1_555 1_555
N3E Cu1 1_555 1_555
N4D C1D 1_555 1_555
N5D O1D 1_555 1_555
O1D Cu1 1_555 1_555
O2D N5D 1_555 1_555
O3D N5D 1_555 1_555
C1D H1D 1_555 1_555
H2D C1D 1_555 1_555
C2D C3D 1_555 1_555
C3D C4D 1_555 1_555
C4D C5D 1_555 1_555
C5D C6D 1_555 1_555
C6D C7D 1_555 1_555
C7D C1D 1_555 1_555
C8D C4D 1_555 1_555
H3D C8D 1_555 1_555
H4D C8D 1_555 1_555
C9D N2D 1_555 1_555
H5D C9D 1_555 1_555
C10D N1D 1_555 1_555
H6D C10D 1_555 1_555
C11D N1D 1_555 1_555
H7D C11D 1_555 1_555
C12D H8D 1_555 1_555
C13D N4D 1_555 1_555
H9D C13D 1_555 1_555
C14D N3D 1_555 1_555
H10D C14D 1_555 1_555
F1D C3D 1_555 1_555
F2D C2D 1_555 1_555
F3D C6D 1_555 1_555
F4D C5D 1_555 1_555
N2 C11 1_555 1_555
N4 C14 1_555 1_555
C2 C7 1_555 1_555
C12 C13 1_555 1_555
N2D C11D 1_555 1_555
N4D C14D 1_555 1_555
C2D C7D 1_555 1_555
C9D C10D 1_555 1_555
C12D C13D 1_555 1_555

#END
