
#######################################################################
#
#                 Cambridge Crystallographic Data Centre
#                                CCDC 
#
#######################################################################
#
# If this CIF has been generated from an entry in the Cambridge 
# Structural Database, then it will include bibliographic, chemical, 
# crystal, experimental, refinement or atomic coordinate data resulting 
# from the CCDC's data processing and validation procedures.
#
#######################################################################

data_QATXOA
_symmetry_cell_setting           triclinic
_symmetry_space_group_name_H-M   'P -1'
_symmetry_Int_Tables_number      2
_space_group_name_Hall           '-P 1'
loop_
_symmetry_equiv_pos_site_id
_symmetry_equiv_pos_as_xyz
1 x,y,z
2 -x,-y,-z
_cell_length_a                   4.4982(12)
_cell_length_b                   12.177(5)
_cell_length_c                   12.407(7)
_cell_angle_alpha                60.767(15)
_cell_angle_beta                 81.089(11)
_cell_angle_gamma                81.362(7)
_cell_volume                     583.684
loop_
_atom_site_label
_atom_site_type_symbol
_atom_site_fract_x
_atom_site_fract_y
_atom_site_fract_z
I1 I 0.83557(18) 0.13842(8) 0.82008(8)
I2 I 1.21216(18) 0.29011(9) 1.07145(8)
Ag1 Ag 0.7803(3) 0.33597(13) 0.91672(12)
Ag2 Ag 0.2791(3) 0.11628(12) 0.98006(13)
N1 N 0.643(2) 0.4994(9) 0.7391(10)
N2 N 0.378(2) 0.6678(9) 0.6077(9)
C1 C 0.433(3) 0.5909(12) 0.7265(12)
H1 H 0.3300 0.6016 0.7941
C2 C 0.738(3) 0.5226(12) 0.6204(12)
H2 H 0.8957 0.4736 0.5986
C3 C 0.580(3) 0.6240(12) 0.5390(14)
H3 H 0.6025 0.6588 0.4513
C4 C 0.176(3) 0.7835(10) 0.5615(13)
H4 H 0.0079 0.7756 0.6261
H5 H 0.0875 0.7951 0.4879
C5 C 0.337(2) 0.8974(11) 0.5268(11)
C6 C 0.479(3) 0.9664(12) 0.4092(12)
H6 H 0.4674 0.9447 0.3462
C7 C 0.361(3) 0.9326(10) 0.6171(10)
H7 H 0.2652 0.8862 0.6983
I1_2 I -0.16443(18) 0.13842(8) 0.82008(8)
I1A I 0.16443(18) -0.13842(8) 1.17992(8)
I1_3 I 1.83557(18) 0.13842(8) 0.82008(8)
I1A_2 I 1.16443(18) -0.13842(8) 1.17992(8)
I2_2 I 0.21216(18) 0.29011(9) 1.07145(8)
I2_3 I -0.78784(18) 0.29011(9) 1.07145(8)
Ag1_2 Ag -0.2197(3) 0.33597(13) 0.91672(12)
Ag1_3 Ag 1.7803(3) 0.33597(13) 0.91672(12)
Ag1A Ag 0.2197(3) 1.66403(13) 0.08328(12)
Ag2_2 Ag 1.2791(3) 0.11628(12) 0.98006(13)
Ag2A Ag 0.7209(3) -0.11628(12) 1.01994(13)
Ag2_3 Ag -0.7209(3) 0.11628(12) 0.98006(13)
Ag2A_2 Ag -0.2791(3) -0.11628(12) 1.01994(13)
N1A N 0.357(2) 1.5006(9) 0.2609(10)
N1_2 N -0.357(2) 0.4994(9) 0.7391(10)
N2A N 0.622(2) 1.3322(9) 0.3923(9)
C1A C 0.567(3) 1.4091(12) 0.2735(12)
H1A H 0.6700 1.3984 0.2059
C2A C 0.262(3) 1.4774(12) 0.3796(12)
H2A H 0.1043 1.5264 0.4014
C3A C 0.420(3) 1.3760(12) 0.4610(14)
H3A H 0.3975 1.3412 0.5487
C4A C 0.824(3) 1.2165(10) 0.4385(13)
H4A H 0.9921 1.2244 0.3739
H5A H 0.9125 1.2049 0.5121
C5A C 0.663(2) 1.1026(11) 0.4732(11)
C6A C 0.521(3) 1.0336(12) 0.5908(12)
H6A H 0.5326 1.0553 0.6538
C7A C 0.639(3) 1.0674(10) 0.3829(10)
H7A H 0.7348 1.1138 0.3017
loop_
_geom_bond_atom_site_label_1
_geom_bond_atom_site_label_2
_geom_bond_site_symmetry_1
_geom_bond_site_symmetry_2
I1 Ag1 1_555 1_555
I2 Ag1 1_555 1_555
Ag1 N1 1_555 1_555
Ag2 I1 1_555 1_555
N1 C1 1_555 1_555
N2 C1 1_555 1_555
C1 H1 1_555 1_555
C2 N1 1_555 1_555
H2 C2 1_555 1_555
C3 N2 1_555 1_555
H3 C3 1_555 1_555
C4 N2 1_555 1_555
H4 C4 1_555 1_555
H5 C4 1_555 1_555
C5 C4 1_555 1_555
C6 C5 1_555 1_555
H6 C6 1_555 1_555
C7 C5 1_555 1_555
H7 C7 1_555 1_555
I1_2 Ag2 1_555 1_555
I1A Ag2 1_555 1_555
I1_3 Ag1_3 1_555 1_555
I1A_2 Ag2_2 1_555 1_555
I2_2 Ag1 1_555 1_555
I2_3 Ag1_2 1_555 1_555
Ag1_2 I1_2 1_555 1_555
Ag1_3 I2 1_555 1_555
Ag1A N1A 1_555 1_555
Ag2_2 I1 1_555 1_555
Ag2A I1 1_555 1_555
Ag2_3 I1_2 1_555 1_555
Ag2A_2 I1_2 1_555 1_555
N1A C1A 1_555 1_555
N1_2 Ag1_2 1_555 1_555
N2A C1A 1_555 1_555
C1A H1A 1_555 1_555
C2A N1A 1_555 1_555
H2A C2A 1_555 1_555
C3A N2A 1_555 1_555
H3A C3A 1_555 1_555
C4A N2A 1_555 1_555
H4A C4A 1_555 1_555
H5A C4A 1_555 1_555
C5A C4A 1_555 1_555
C6A C7 1_555 1_555
H6A C6A 1_555 1_555
C7A C6 1_555 1_555
H7A C7A 1_555 1_555
I2 Ag2_2 1_555 1_555
Ag2 I2_2 1_555 1_555
C2 C3 1_555 1_555
I1A Ag2A 1_555 1_555
I1A Ag2A_2 1_555 1_555
I1_3 Ag2_2 1_555 1_555
I1A_2 Ag2A 1_555 1_555
I2_2 Ag1_2 1_555 1_555
I2_3 Ag2_3 1_555 1_555
C2A C3A 1_555 1_555
C5A C6A 1_555 1_555
C5A C7A 1_555 1_555

#END
