
#######################################################################
#
#                 Cambridge Crystallographic Data Centre
#                                CCDC 
#
#######################################################################
#
# If this CIF has been generated from an entry in the Cambridge 
# Structural Database, then it will include bibliographic, chemical, 
# crystal, experimental, refinement or atomic coordinate data resulting 
# from the CCDC's data processing and validation procedures.
#
#######################################################################

data_QATXIU
_symmetry_cell_setting           cubic
_symmetry_space_group_name_H-M   'I -4 3 d'
_symmetry_Int_Tables_number      220
_space_group_name_Hall           'I -4bd 2c 3'
loop_
_symmetry_equiv_pos_site_id
_symmetry_equiv_pos_as_xyz
1 x,y,z
2 1/2-x,-y,1/2+z
3 -x,1/2+y,1/2-z
4 1/2+x,1/2-y,-z
5 z,x,y
6 1/2+z,1/2-x,-y
7 1/2-z,-x,1/2+y
8 -z,1/2+x,1/2-y
9 y,z,x
10 -y,1/2+z,1/2-x
11 1/2+y,1/2-z,-x
12 1/2-y,-z,1/2+x
13 1/4+y,1/4+x,1/4+z
14 1/4-y,3/4-x,3/4+z
15 3/4+y,1/4-x,3/4-z
16 3/4-y,3/4+x,1/4-z
17 1/4+x,1/4+z,1/4+y
18 3/4-x,3/4+z,1/4-y
19 1/4-x,3/4-z,3/4+y
20 3/4+x,1/4-z,3/4-y
21 1/4+z,1/4+y,1/4+x
22 3/4+z,1/4-y,3/4-x
23 3/4-z,3/4+y,1/4-x
24 1/4-z,3/4-y,3/4+x
25 1/2+x,1/2+y,1/2+z
26 -x,1/2-y,z
27 1/2-x,y,-z
28 x,-y,1/2-z
29 1/2+z,1/2+x,1/2+y
30 z,-x,1/2-y
31 -z,1/2-x,y
32 1/2-z,x,-y
33 1/2+y,1/2+z,1/2+x
34 1/2-y,z,-x
35 y,-z,1/2-x
36 -y,1/2-z,x
37 3/4+y,3/4+x,3/4+z
38 3/4-y,1/4-x,1/4+z
39 1/4+y,3/4-x,1/4-z
40 1/4-y,1/4+x,3/4-z
41 3/4+x,3/4+z,3/4+y
42 1/4-x,1/4+z,3/4-y
43 3/4-x,1/4-z,1/4+y
44 1/4+x,3/4-z,1/4-y
45 3/4+z,3/4+y,3/4+x
46 1/4+z,3/4-y,1/4-x
47 1/4-z,1/4+y,3/4-x
48 3/4-z,1/4-y,1/4+x
_cell_length_a                   31.2009(10)
_cell_length_b                   31.2009(10)
_cell_length_c                   31.2009(10)
_cell_angle_alpha                90
_cell_angle_beta                 90
_cell_angle_gamma                90
_cell_volume                     30374
loop_
_atom_site_label
_atom_site_type_symbol
_atom_site_fract_x
_atom_site_fract_y
_atom_site_fract_z
Cd1 Cd 0.7500 0.1250 1.0000
Cd2 Cd 1.06204(5) 0.12044(5) 0.92395(5)
C1 C 0.8807(4) 0.1644(4) 1.0064(4)
C2 C 0.8859(6) 0.2019(6) 1.0325(7)
H1 H 0.8639 0.2121 1.0498
C3 C 0.9267(6) 0.2228(6) 1.0305(8)
H2 H 0.9315 0.2494 1.0432
C4 C 0.9580(5) 0.2015(6) 1.0089(7)
H3 H 0.9852 0.2136 1.0097
C5 C 0.9540(5) 0.1657(4) 0.9869(5)
C6 C 0.9154(4) 0.1462(4) 0.9859(4)
C7 C 0.9118(4) 0.1027(4) 0.9630(4)
C8 C 0.9182(4) 0.0649(4) 0.9876(4)
C9 C 0.9160(5) 0.0257(4) 0.9676(6)
H4 H 0.9200 0.0012 0.9840
C10 C 0.9081(5) 0.0210(5) 0.9235(7)
H5 H 0.9068 -0.0057 0.9104
C11 C 0.9026(4) 0.0583(6) 0.9015(5)
H6 H 0.8972 0.0564 0.8722
C12 C 0.9043(4) 0.0985(4) 0.9190(5)
C13 C 0.8373(5) 0.1455(5) 1.0065(4)
C14 C 0.9930(5) 0.1498(5) 0.9614(8)
C15 C 0.9212(6) 0.0655(5) 1.0358(5)
C16 C 0.8956(5) 0.1358(5) 0.8886(6)
O1 O 0.8311(3) 0.1074(3) 1.0091(4)
O2 O 0.8055(3) 0.1724(3) 1.0025(3)
O3 O 0.9962(7) 0.1497(7) 0.9260(5)
O4 O 1.0193(7) 0.1310(10) 0.9777(6)
O5 O 0.9464(4) 0.0896(4) 1.0533(4)
O6 O 0.9001(4) 0.0386(5) 1.0553(5)
O7 O 0.8994(4) 0.1304(4) 0.8503(4)
O8 O 0.8818(4) 0.1707(3) 0.9046(3)
Cd2U Cd 0.67395(5) 0.12956(5) 0.68796(5)
Cd2Z Cd 0.43796(5) 0.12044(5) 1.07605(5)
Cd2UA Cd 0.82605(5) 0.12956(5) 1.31204(5)
Cd2D Cd 0.92395(5) 0.06204(5) 1.12044(5)
Cd2N Cd 0.87044(5) 0.18796(5) 0.82605(5)
Cd2EA Cd 0.57605(5) 0.06204(5) 0.87956(5)
Cd2KA Cd 0.62956(5) 0.18796(5) 1.17395(5)
C1U C 0.7564(4) 0.0856(4) 0.8693(4)
C1Z C 0.6193(4) 0.1644(4) 0.9936(4)
C1UA C 0.7436(4) 0.0856(4) 1.1307(4)
C2U C 0.7825(7) 0.0481(6) 0.8641(6)
C2Z C 0.6141(6) 0.2019(6) 0.9675(7)
C2UA C 0.7175(7) 0.0481(6) 1.1359(6)
H1U H 0.7998 0.0379 0.8861
H1Z H 0.6361 0.2121 0.9502
H1UA H 0.7002 0.0379 1.1139
C3U C 0.7805(8) 0.0272(6) 0.8233(6)
C3Z C 0.5733(6) 0.2228(6) 0.9695(8)
C3UA C 0.7195(8) 0.0272(6) 1.1767(6)
H2U H 0.7932 0.0006 0.8185
H2Z H 0.5685 0.2494 0.9568
H2UA H 0.7068 0.0006 1.1815
C4U C 0.7589(7) 0.0485(6) 0.7920(5)
C4Z C 0.5420(5) 0.2015(6) 0.9911(7)
C4UA C 0.7411(7) 0.0485(6) 1.2080(5)
H3U H 0.7597 0.0364 0.7648
H3Z H 0.5148 0.2136 0.9903
H3UA H 0.7403 0.0364 1.2352
C5U C 0.7369(5) 0.0843(4) 0.7960(5)
C5Z C 0.5460(5) 0.1657(4) 1.0131(5)
C5UA C 0.7631(5) 0.0843(4) 1.2040(5)
C6U C 0.7359(4) 0.1038(4) 0.8346(4)
C6Z C 0.5846(4) 0.1462(4) 1.0141(4)
C6UA C 0.7641(4) 0.1038(4) 1.1654(4)
C7U C 0.7130(4) 0.1473(4) 0.8382(4)
C7Z C 0.5882(4) 0.1027(4) 1.0370(4)
C7UA C 0.7870(4) 0.1473(4) 1.1618(4)
C8U C 0.7376(4) 0.1851(4) 0.8318(4)
C8Z C 0.5818(4) 0.0649(4) 1.0124(4)
C8UA C 0.7624(4) 0.1851(4) 1.1682(4)
C9U C 0.7176(6) 0.2243(4) 0.8340(5)
C9Z C 0.5840(5) 0.0257(4) 1.0324(6)
C9UA C 0.7824(6) 0.2243(4) 1.1660(5)
H4U H 0.7340 0.2488 0.8300
H4Z H 0.5800 0.0012 1.0160
H4UA H 0.7660 0.2488 1.1700
C10U C 0.6735(7) 0.2290(5) 0.8419(5)
C10Z C 0.5919(5) 0.0210(5) 1.0765(7)
C10UA C 0.8265(7) 0.2290(5) 1.1581(5)
H5U H 0.6604 0.2557 0.8432
H5Z H 0.5932 -0.0057 1.0896
H5UA H 0.8396 0.2557 1.1568
C11U C 0.6515(5) 0.1917(6) 0.8474(4)
C11Z C 0.5974(4) 0.0583(6) 1.0985(5)
C11UA C 0.8485(5) 0.1917(6) 1.1526(4)
H6U H 0.6222 0.1936 0.8528
H6Z H 0.6028 0.0564 1.1278
H6UA H 0.8778 0.1936 1.1472
C12U C 0.6690(5) 0.1515(4) 0.8457(4)
C12Z C 0.5957(4) 0.0985(4) 1.0810(5)
C12UA C 0.8310(5) 0.1515(4) 1.1543(4)
C13U C 0.7565(4) 0.1045(5) 0.9127(5)
C13Z C 0.6627(5) 0.1455(5) 0.9935(4)
C13UA C 0.7435(4) 0.1045(5) 1.0873(5)
C14U C 0.7114(8) 0.1002(5) 0.7570(5)
C14Z C 0.5070(5) 0.1498(5) 1.0386(8)
C14UA C 0.7886(8) 0.1002(5) 1.2430(5)
C15U C 0.7858(5) 0.1845(5) 0.8288(6)
C15Z C 0.5788(6) 0.0655(5) 0.9642(5)
C15UA C 0.7142(5) 0.1845(5) 1.1712(6)
C16U C 0.6386(6) 0.1142(5) 0.8544(5)
C16Z C 0.6044(5) 0.1358(5) 1.1114(6)
C16UA C 0.8614(6) 0.1142(5) 1.1456(5)
O1U O 0.7591(4) 0.1426(3) 0.9189(3)
O1Z O 0.6689(3) 0.1074(3) 0.9909(4)
O1UA O 0.7409(4) 0.1426(3) 1.0811(3)
O2U O 0.7525(3) 0.0776(3) 0.9445(3)
O2Z O 0.6945(3) 0.1724(3) 0.9975(3)
O2UA O 0.7475(3) 0.0776(3) 1.0555(3)
O3U O 0.6760(5) 0.1003(7) 0.7538(7)
O3Z O 0.5038(7) 0.1497(7) 1.0740(5)
O3UA O 0.8240(5) 0.1003(7) 1.2462(7)
O4U O 0.7277(6) 0.1190(10) 0.7307(7)
O4Z O 0.4807(7) 0.1310(10) 1.0223(6)
O4UA O 0.7723(6) 0.1190(10) 1.2693(7)
O5U O 0.8033(4) 0.1604(4) 0.8036(4)
O5Z O 0.5536(4) 0.0896(4) 0.9467(4)
O5UA O 0.6967(4) 0.1604(4) 1.1964(4)
O5H O 1.0896(4) 0.0533(4) 0.9464(4)
O5S O 0.6964(4) 0.1967(4) 0.6604(4)
O5GA O 0.4104(4) 0.0533(4) 1.0536(4)
O5PA O 0.8036(4) 0.1967(4) 1.3396(4)
O6U O 0.8053(5) 0.2114(5) 0.8499(4)
O6Z O 0.5999(4) 0.0386(5) 0.9447(5)
O6UA O 0.6947(5) 0.2114(5) 1.1501(4)
O6H O 1.0386(5) 0.0553(5) 0.9001(4)
O6S O 0.6501(4) 0.1947(5) 0.7114(5)
O6GA O 0.4614(5) 0.0553(5) 1.0999(4)
O6PA O 0.8499(4) 0.1947(5) 1.2886(5)
O7U O 0.6003(4) 0.1196(4) 0.8506(4)
O7Z O 0.6006(4) 0.1304(4) 1.1497(4)
O7UA O 0.8997(4) 0.1196(4) 1.1494(4)
O7MA O 1.1196(4) 0.1494(4) 0.8997(4)
O7F O 0.6497(4) 0.1006(4) 0.6304(4)
O7L O 0.3804(4) 0.1494(4) 1.1003(4)
O7CA O 0.8503(4) 0.1006(4) 1.3696(4)
O8U O 0.6546(3) 0.0793(3) 0.8682(4)
O8Z O 0.6182(4) 0.1707(3) 1.0954(3)
O8UA O 0.8454(3) 0.0793(3) 1.1318(4)
O8MA O 1.0793(3) 0.1318(4) 0.8454(3)
O8F O 0.5954(3) 0.1182(4) 0.6707(3)
O8L O 0.4207(3) 0.1318(4) 1.1546(3)
O8CA O 0.9046(3) 0.1182(4) 1.3293(3)
N1 N 1.0260(5) 0.0518(5) 0.8181(5)
H7 H 1.0455 0.0559 0.7972
H8 H 1.0396 0.0524 0.8436
C17 C 1.0034(6) 0.0093(6) 0.8120(6)
H9 H 1.0241 -0.0134 0.8123
H10 H 0.9885 0.0094 0.7851
H11 H 0.9832 0.0051 0.8349
C18 C 0.9913(6) 0.0867(6) 0.8163(6)
H12 H 1.0044 0.1144 0.8195
H13 H 0.9711 0.0823 0.8390
H14 H 0.9768 0.0853 0.7892
C19 C 1.006(3) 0.111(4) 1.147(2)
H15 H 0.9824 0.0907 1.1442
H16 H 1.0179 0.1080 1.1752
H17 H 1.0271 0.1046 1.1259
C20 C 1.025(3) 0.184(2) 1.138(2)
H18 H 1.0147 0.2106 1.1270
H19 H 1.0463 0.1725 1.1184
H20 H 1.0377 0.1878 1.1655
N2 N 0.990(3) 0.154(3) 1.1410(16)
H21 H 0.9731 0.1610 1.1634
H22 H 0.9739 0.1548 1.1171
loop_
_geom_bond_atom_site_label_1
_geom_bond_atom_site_label_2
_geom_bond_site_symmetry_1
_geom_bond_site_symmetry_2
Cd1 O1 1_555 1_555
Cd2 O3 1_555 1_555
C1 C2 1_555 1_555
C2 H1 1_555 1_555
C3 C2 1_555 1_555
H2 C3 1_555 1_555
C4 C3 1_555 1_555
H3 C4 1_555 1_555
C5 C4 1_555 1_555
C6 C1 1_555 1_555
C7 C6 1_555 1_555
C8 C7 1_555 1_555
C9 C8 1_555 1_555
H4 C9 1_555 1_555
C10 C9 1_555 1_555
H5 C10 1_555 1_555
C11 C10 1_555 1_555
H6 C11 1_555 1_555
C12 C7 1_555 1_555
C13 C1 1_555 1_555
C14 C5 1_555 1_555
C15 C8 1_555 1_555
C16 C12 1_555 1_555
O1 C13 1_555 1_555
O2 Cd1 1_555 1_555
O3 C14 1_555 1_555
O4 Cd2 1_555 1_555
O5 C15 1_555 1_555
O6 C15 1_555 1_555
O7 C16 1_555 1_555
O8 C16 1_555 1_555
N1 H7 1_555 1_555
H8 N1 1_555 1_555
C17 N1 1_555 1_555
H9 C17 1_555 1_555
H10 C17 1_555 1_555
H11 C17 1_555 1_555
C18 N1 1_555 1_555
H12 C18 1_555 1_555
H13 C18 1_555 1_555
H14 C18 1_555 1_555
C19 H15 1_555 1_555
H16 C19 1_555 1_555
H17 C19 1_555 1_555
C20 H18 1_555 1_555
H19 C20 1_555 1_555
H20 C20 1_555 1_555
N2 C19 1_555 1_555
H21 N2 1_555 1_555
H22 N2 1_555 1_555
Cd2U O3U 1_555 1_555
Cd2Z O3Z 1_555 1_555
Cd2UA O3UA 1_555 1_555
Cd2D O5 1_555 1_555
Cd2N O7 1_555 1_555
Cd2EA O5Z 1_555 1_555
Cd2KA O5UA 1_555 1_555
C1U C2U 1_555 1_555
C1Z C2Z 1_555 1_555
C1UA C2UA 1_555 1_555
C2U H1U 1_555 1_555
C2Z H1Z 1_555 1_555
C2UA H1UA 1_555 1_555
C3U C2U 1_555 1_555
C3Z C2Z 1_555 1_555
C3UA C2UA 1_555 1_555
H2U C3U 1_555 1_555
H2Z C3Z 1_555 1_555
H2UA C3UA 1_555 1_555
C4U C3U 1_555 1_555
C4Z C3Z 1_555 1_555
C4UA C3UA 1_555 1_555
H3U C4U 1_555 1_555
H3Z C4Z 1_555 1_555
H3UA C4UA 1_555 1_555
C5U C4U 1_555 1_555
C5Z C4Z 1_555 1_555
C5UA C4UA 1_555 1_555
C6U C1U 1_555 1_555
C6Z C1Z 1_555 1_555
C6UA C1UA 1_555 1_555
C7U C6U 1_555 1_555
C7Z C6Z 1_555 1_555
C7UA C6UA 1_555 1_555
C8U C7U 1_555 1_555
C8Z C7Z 1_555 1_555
C8UA C7UA 1_555 1_555
C9U C8U 1_555 1_555
C9Z C8Z 1_555 1_555
C9UA C8UA 1_555 1_555
H4U C9U 1_555 1_555
H4Z C9Z 1_555 1_555
H4UA C9UA 1_555 1_555
C10U C9U 1_555 1_555
C10Z C9Z 1_555 1_555
C10UA C9UA 1_555 1_555
H5U C10U 1_555 1_555
H5Z C10Z 1_555 1_555
H5UA C10UA 1_555 1_555
C11U C10U 1_555 1_555
C11Z C10Z 1_555 1_555
C11UA C10UA 1_555 1_555
H6U C11U 1_555 1_555
H6Z C11Z 1_555 1_555
H6UA C11UA 1_555 1_555
C12U C7U 1_555 1_555
C12Z C7Z 1_555 1_555
C12UA C7UA 1_555 1_555
C13U C1U 1_555 1_555
C13Z C1Z 1_555 1_555
C13UA C1UA 1_555 1_555
C14U C5U 1_555 1_555
C14Z C5Z 1_555 1_555
C14UA C5UA 1_555 1_555
C15U C8U 1_555 1_555
C15Z C8Z 1_555 1_555
C15UA C8UA 1_555 1_555
C16U C12U 1_555 1_555
C16Z C12Z 1_555 1_555
C16UA C12UA 1_555 1_555
O1U Cd1 1_555 1_555
O1Z Cd1 1_555 1_555
O1UA Cd1 1_555 1_555
O2U Cd1 1_555 1_555
O2Z Cd1 1_555 1_555
O2UA Cd1 1_555 1_555
O3U C14U 1_555 1_555
O3Z C14Z 1_555 1_555
O3UA C14UA 1_555 1_555
O4U Cd2U 1_555 1_555
O4Z Cd2Z 1_555 1_555
O4UA Cd2UA 1_555 1_555
O5U Cd2N 1_555 1_555
O5Z C15Z 1_555 1_555
O5UA C15UA 1_555 1_555
O5H Cd2 1_555 1_555
O5S Cd2U 1_555 1_555
O5GA Cd2Z 1_555 1_555
O5PA Cd2UA 1_555 1_555
O6U Cd2N 1_555 1_555
O6Z Cd2EA 1_555 1_555
O6UA Cd2KA 1_555 1_555
O6H Cd2 1_555 1_555
O6S Cd2U 1_555 1_555
O6GA Cd2Z 1_555 1_555
O6PA Cd2UA 1_555 1_555
O7U Cd2EA 1_555 1_555
O7Z Cd2KA 1_555 1_555
O7UA Cd2D 1_555 1_555
O7MA Cd2 1_555 1_555
O7F Cd2U 1_555 1_555
O7L Cd2Z 1_555 1_555
O7CA Cd2UA 1_555 1_555
O8U Cd2EA 1_555 1_555
O8Z Cd2KA 1_555 1_555
O8UA Cd2D 1_555 1_555
O8MA Cd2 1_555 1_555
O8F Cd2U 1_555 1_555
O8L Cd2Z 1_555 1_555
O8CA Cd2UA 1_555 1_555
C5 C6 1_555 1_555
C11 C12 1_555 1_555
C13 O2 1_555 1_555
C14 O4 1_555 1_555
O6 Cd2D 1_555 1_555
O8 Cd2N 1_555 1_555
C20 N2 1_555 1_555
C5U C6U 1_555 1_555
C5Z C6Z 1_555 1_555
C5UA C6UA 1_555 1_555
C11U C12U 1_555 1_555
C11Z C12Z 1_555 1_555
C11UA C12UA 1_555 1_555
C13U O1U 1_555 1_555
C13U O2U 1_555 1_555
C13Z O1Z 1_555 1_555
C13Z O2Z 1_555 1_555
C13UA O1UA 1_555 1_555
C13UA O2UA 1_555 1_555
C14U O4U 1_555 1_555
C14Z O4Z 1_555 1_555
C14UA O4UA 1_555 1_555
C15U O5U 1_555 1_555
C15U O6U 1_555 1_555
C15Z O6Z 1_555 1_555
C15UA O6UA 1_555 1_555
C16U O7U 1_555 1_555
C16U O8U 1_555 1_555
C16Z O7Z 1_555 1_555
C16Z O8Z 1_555 1_555
C16UA O7UA 1_555 1_555
C16UA O8UA 1_555 1_555

#END
