
#######################################################################
#
#                 Cambridge Crystallographic Data Centre
#                                CCDC 
#
#######################################################################
#
# If this CIF has been generated from an entry in the Cambridge 
# Structural Database, then it will include bibliographic, chemical, 
# crystal, experimental, refinement or atomic coordinate data resulting 
# from the CCDC's data processing and validation procedures.
#
#######################################################################

data_QATZUI
_symmetry_cell_setting           orthorhombic
_symmetry_space_group_name_H-M   'C m c a'
_symmetry_Int_Tables_number      64
_space_group_name_Hall           '-C 2ac 2'
loop_
_symmetry_equiv_pos_site_id
_symmetry_equiv_pos_as_xyz
1 x,y,z
2 -x,1/2-y,1/2+z
3 x,-y,-z
4 1/2-x,y,1/2-z
5 1/2+x,1/2+y,z
6 1/2-x,-y,1/2+z
7 1/2+x,1/2-y,-z
8 -x,1/2+y,1/2-z
9 -x,-y,-z
10 x,1/2+y,1/2-z
11 -x,y,z
12 1/2+x,-y,1/2+z
13 1/2-x,1/2-y,-z
14 1/2+x,y,1/2-z
15 1/2-x,1/2+y,z
16 x,1/2-y,1/2+z
_cell_length_a                   16.372(5)
_cell_length_b                   19.603(5)
_cell_length_c                   14.413(5)
_cell_angle_alpha                90
_cell_angle_beta                 90
_cell_angle_gamma                90
_cell_volume                     4625.71
loop_
_atom_site_label
_atom_site_type_symbol
_atom_site_fract_x
_atom_site_fract_y
_atom_site_fract_z
W1 W 0.28296(12) -0.0005(3) 0.4877(3)
W2 W 0.5000 0.17919(9) 0.50974(14)
W3 W 0.39148(10) 0.09494(8) 0.33248(10)
W4 W 0.39129(9) 0.08408(7) 0.67685(9)
Ag2 Ag 0.5000 0.3397(3) 0.3767(4)
Si1 Si 0.5000 0.0000 0.5000
O1 O 0.3449(19) 0.1252(15) 0.762(2)
O2 O 0.5000 0.265(2) 0.519(3)
O3 O 0.181(3) 0.0000 0.5000
O4 O 0.4198(19) 0.1596(17) 0.422(2)
O5 O 0.5000 0.085(2) 0.723(3)
O6 O 0.4207(19) 0.1564(16) 0.597(2)
O7 O 0.4188(18) 0.0012(17) 0.428(2)
O8 O 0.5000 0.104(2) 0.287(3)
O9 O 0.3826(19) 0.0068(16) 0.277(2)
O10 O 0.304(4) 0.070(3) 0.407(4)
O11 O 0.310(4) 0.063(3) 0.591(4)
O12 O 0.3456(19) 0.1418(15) 0.251(2)
O13 O 0.5000 0.073(2) 0.447(3)
O14 O 0.5000 -0.066(2) 0.438(3)
N2 N 0.5000 0.437(2) 0.450(3)
C3 C 0.5000 0.436(2) 0.544(3)
H3 H 0.5000 0.3955 0.5772
C4 C 0.5000 0.498(3) 0.409(4)
H4 H 0.5000 0.4988 0.3449
O15 O 0.485(3) 0.257(3) 0.264(4)
W1H W 0.71704(12) 0.0005(3) 0.5123(3)
W1J W 0.71704(12) -0.0005(3) 0.4877(3)
W1B W 0.28296(12) 0.0005(3) 0.5123(3)
W2B W 0.5000 -0.17919(9) 0.49026(14)
W3J W 0.60852(10) 0.09494(8) 0.33248(10)
W3H W 0.60852(10) -0.09494(8) 0.66752(10)
W3B W 0.39148(10) -0.09494(8) 0.66752(10)
W4J W 0.60871(9) 0.08408(7) 0.67685(9)
W4B W 0.39129(9) -0.08408(7) 0.32315(9)
W4H W 0.60871(9) -0.08408(7) 0.32315(9)
W4A W 0.60871(9) 0.41592(7) 0.17685(9)
W4O W 0.39129(9) 0.41592(7) 0.17685(9)
Ag2B Ag 0.5000 -0.3397(3) 0.6233(4)
Ag2A Ag 0.5000 0.1603(3) 0.8767(4)
Ag2B_2 Ag 0.5000 0.6603(3) 0.6233(4)
Ag2G Ag 0.5000 -0.1603(3) 0.1233(4)
O1J O 0.6551(19) 0.1252(15) 0.762(2)
O1B O 0.3449(19) -0.1252(15) 0.238(2)
O1H O 0.6551(19) -0.1252(15) 0.238(2)
O2B O 0.5000 -0.265(2) 0.481(3)
O3H O 0.819(3) 0.0000 0.5000
O4J O 0.5802(19) 0.1596(17) 0.422(2)
O4B O 0.4198(19) -0.1596(17) 0.578(2)
O4H O 0.5802(19) -0.1596(17) 0.578(2)
O5A O 0.5000 0.415(2) 0.223(3)
O5B O 0.5000 -0.085(2) 0.277(3)
O5G O 0.5000 -0.415(2) 0.777(3)
O6J O 0.5793(19) 0.1564(16) 0.597(2)
O6B O 0.4207(19) -0.1564(16) 0.403(2)
O6H O 0.5793(19) -0.1564(16) 0.403(2)
O7H O 0.5812(18) -0.0012(17) 0.572(2)
O7J O 0.5812(18) 0.0012(17) 0.428(2)
O7B O 0.4188(18) -0.0012(17) 0.572(2)
O8B O 0.5000 -0.104(2) 0.713(3)
O9B O 0.3826(19) -0.0068(16) 0.723(2)
O9J O 0.6174(19) 0.0068(16) 0.277(2)
O9H O 0.6174(19) -0.0068(16) 0.723(2)
O10B O 0.304(4) -0.070(3) 0.593(4)
O10H O 0.696(4) -0.070(3) 0.593(4)
O10J O 0.696(4) 0.070(3) 0.407(4)
O11B O 0.310(4) -0.063(3) 0.409(4)
O11H O 0.690(4) -0.063(3) 0.409(4)
O11J O 0.690(4) 0.063(3) 0.591(4)
O12J O 0.6544(19) 0.1418(15) 0.251(2)
O12H O 0.6544(19) -0.1418(15) 0.749(2)
O12B O 0.3456(19) -0.1418(15) 0.749(2)
O13B O 0.5000 -0.073(2) 0.553(3)
O14B O 0.5000 0.066(2) 0.562(3)
N2B N 0.5000 0.563(2) 0.550(3)
N2B_2 N 0.5000 -0.437(2) 0.550(3)
C3B C 0.5000 0.564(2) 0.456(3)
H3B H 0.5000 0.6045 0.4228
C4B C 0.5000 0.502(3) 0.591(4)
H4B H 0.5000 0.5012 0.6551
O15J O 0.515(3) 0.257(3) 0.264(4)
O15B O 0.485(3) -0.257(3) 0.736(4)
O15H O 0.515(3) -0.257(3) 0.736(4)
Ag1 Ag 0.7500 0.2413(2) 0.7500
N1 N 0.750(2) 0.2466(16) 0.5971(18)
C1 C 0.7885(18) 0.2006(14) 0.5427(19)
H1 H 0.8139 0.1637 0.5711
C2 C 0.708(2) 0.2946(16) 0.550(2)
H2 H 0.6756 0.3252 0.5832
Ag1L Ag 0.7500 0.2587(2) 0.2500
Ag1L_2 Ag 0.7500 0.2587(2) 1.2500
N1L N 0.750(2) 0.2534(16) 0.4029(18)
N1C N 0.750(2) 0.2466(16) 0.9029(18)
N1O N 0.750(2) 0.2534(16) 1.0971(18)
N1O_2 N 0.750(2) 0.2534(16) 0.0971(18)
C1L C 0.7115(18) 0.2994(14) 0.4573(19)
C1C C 0.7115(18) 0.2006(14) 0.9573(19)
C1O C 0.7885(18) 0.2994(14) 1.0427(19)
H1L H 0.6861 0.3363 0.4289
H1C H 0.6861 0.1637 0.9289
H1O H 0.8139 0.3363 1.0711
C2L C 0.792(2) 0.2054(16) 0.450(2)
C2C C 0.792(2) 0.2946(16) 0.950(2)
C2O C 0.708(2) 0.2054(16) 1.050(2)
H2L H 0.8244 0.1748 0.4168
H2C H 0.8244 0.3252 0.9168
H2O H 0.6756 0.1748 1.0832
H5? H 0.5193 -0.2128 0.7187
H6? H 0.5175 -0.2685 0.7959
loop_
_geom_bond_atom_site_label_1
_geom_bond_atom_site_label_2
_geom_bond_site_symmetry_1
_geom_bond_site_symmetry_2
Ag1 N1 1_555 1_555
N1 C1 1_555 1_555
C1 H1 1_555 1_555
C2 N1 1_555 1_555
H2 C2 1_555 1_555
W1 O3 1_555 1_555
W2 O2 1_555 1_555
W3 O4 1_555 1_555
W4 O1 1_555 1_555
Ag2 O2 1_555 1_555
Si1 O7 1_555 1_555
O3 W1B 1_555 1_555
O4 W2 1_555 1_555
O5 W4 1_555 1_555
O6 W2 1_555 1_555
O7 W1 1_555 1_555
O8 W3 1_555 1_555
O9 W3 1_555 1_555
O10 W1 1_555 1_555
O11 W1 1_555 1_555
O12 W3 1_555 1_555
O13 W2 1_555 1_555
O14 Si1 1_555 1_555
N2 Ag2 1_555 1_555
C3 N2 1_555 1_555
H3 C3 1_555 1_555
C4 N2 1_555 1_555
H4 C4 1_555 1_555
O15 Ag2 1_555 1_555
Ag1L N1L 1_555 1_555
Ag1L_2 N1O 1_555 1_555
N1L C1L 1_555 1_555
N1C Ag1 1_555 1_555
N1O C1O 1_555 1_555
N1O_2 Ag1L 1_555 1_555
C1L C2 1_555 1_555
C1C N1C 1_555 1_555
C1O H1O 1_555 1_555
H1L C1L 1_555 1_555
H1C C1C 1_555 1_555
C2L C1 1_555 1_555
C2C N1C 1_555 1_555
C2O N1O 1_555 1_555
H2L C2L 1_555 1_555
H2C C2C 1_555 1_555
H2O C2O 1_555 1_555
W1H W1J 1_555 1_555
W1J O3H 1_555 1_555
W1B W1 1_555 1_555
W2B O14 1_555 1_555
W3J O8 1_555 1_555
W3H O4H 1_555 1_555
W3B O4B 1_555 1_555
W4J O5 1_555 1_555
W4B O7 1_555 1_555
W4H O14 1_555 1_555
W4A O5A 1_555 1_555
W4O O5A 1_555 1_555
Ag2B O2B 1_555 1_555
Ag2A O5 1_555 1_555
Ag2B_2 N2B 1_555 1_555
Ag2G O5B 1_555 1_555
O1J W4J 1_555 1_555
O1B W4B 1_555 1_555
O1H W4H 1_555 1_555
O2B W2B 1_555 1_555
O3H W1H 1_555 1_555
O4J W2 1_555 1_555
O4B W2B 1_555 1_555
O4H W2B 1_555 1_555
O5A Ag2 1_555 1_555
O5B W4B 1_555 1_555
O5G Ag2B 1_555 1_555
O6J W2 1_555 1_555
O6B W2B 1_555 1_555
O6H W2B 1_555 1_555
O7H Si1 1_555 1_555
O7J Si1 1_555 1_555
O7B W4 1_555 1_555
O8B W3H 1_555 1_555
O9B W4 1_555 1_555
O9J W3J 1_555 1_555
O9H W3H 1_555 1_555
O10B W1 1_555 1_555
O10H W1H 1_555 1_555
O10J W1H 1_555 1_555
O11B W1 1_555 1_555
O11H W1H 1_555 1_555
O11J W1H 1_555 1_555
O12J W3J 1_555 1_555
O12H W3H 1_555 1_555
O12B W3B 1_555 1_555
O13B Si1 1_555 1_555
O14B W2 1_555 1_555
N2B C3B 1_555 1_555
N2B_2 Ag2B 1_555 1_555
C3B C4 1_555 1_555
H3B C3B 1_555 1_555
C4B C3 1_555 1_555
H4B C4B 1_555 1_555
O15J Ag2 1_555 1_555
O15B Ag2B 1_555 1_555
O15H Ag2B 1_555 1_555
W3 O7 1_555 1_555
W3 O10 1_555 1_555
W3 O13 1_555 1_555
W4 O6 1_555 1_555
W4 O11 1_555 1_555
W4 O14B 1_555 1_555
Si1 O13 1_555 1_555
Si1 O7B 1_555 1_555
Si1 O14B 1_555 1_555
O9 W4B 1_555 1_555
O10 W1B 1_555 1_555
O11 W1B 1_555 1_555
O13 W3J 1_555 1_555
O13 O14B 1_555 1_555
O14 W4B 1_555 1_555
O14 O13B 1_555 1_555
O15 O15J 1_555 1_555
N1L C2L 1_555 1_555
C1C C2O 1_555 1_555
C1O C2C 1_555 1_555
W1H O7H 1_555 1_555
W1J O7J 1_555 1_555
W1J O10H 1_555 1_555
W1J O10J 1_555 1_555
W1J O11H 1_555 1_555
W1J O11J 1_555 1_555
W1B O7B 1_555 1_555
W1B O10B 1_555 1_555
W1B O11B 1_555 1_555
W2B O13B 1_555 1_555
W3J O4J 1_555 1_555
W3J O7J 1_555 1_555
W3J O10J 1_555 1_555
W3H O7H 1_555 1_555
W3H O10H 1_555 1_555
W3H O13B 1_555 1_555
W3B O7B 1_555 1_555
W3B O8B 1_555 1_555
W3B O9B 1_555 1_555
W3B O10B 1_555 1_555
W3B O13B 1_555 1_555
W4J O6J 1_555 1_555
W4J O7H 1_555 1_555
W4J O9H 1_555 1_555
W4J O11J 1_555 1_555
W4J O14B 1_555 1_555
W4B O6B 1_555 1_555
W4B O11B 1_555 1_555
W4H O5B 1_555 1_555
W4H O6H 1_555 1_555
W4H O7J 1_555 1_555
W4H O9J 1_555 1_555
W4H O11H 1_555 1_555
N2B C4B 1_555 1_555
O15B O15H 1_555 1_555

#END
