
#######################################################################
#
#                 Cambridge Crystallographic Data Centre
#                                CCDC 
#
#######################################################################
#
# If this CIF has been generated from an entry in the Cambridge 
# Structural Database, then it will include bibliographic, chemical, 
# crystal, experimental, refinement or atomic coordinate data resulting 
# from the CCDC's data processing and validation procedures.
#
#######################################################################

data_QAVBIA
_symmetry_cell_setting           monoclinic
_symmetry_space_group_name_H-M   'P 21/c'
_symmetry_Int_Tables_number      14
_space_group_name_Hall           '-P 2ybc'
loop_
_symmetry_equiv_pos_site_id
_symmetry_equiv_pos_as_xyz
1 x,y,z
2 -x,1/2+y,1/2-z
3 -x,-y,-z
4 x,1/2-y,1/2+z
_cell_length_a                   10.0970(9)
_cell_length_b                   33.269(3)
_cell_length_c                   7.2394(7)
_cell_angle_alpha                90
_cell_angle_beta                 97.411(6)
_cell_angle_gamma                90
_cell_volume                     2411.52
loop_
_atom_site_label
_atom_site_type_symbol
_atom_site_fract_x
_atom_site_fract_y
_atom_site_fract_z
C1 C 1.2527(3) 0.04460(10) 0.4326(5)
C2 C 0.6336(3) 0.00532(9) 0.0736(4)
C3 C 0.5888(3) -0.03150(9) 0.0004(4)
H1 H 0.6483 -0.0528 0.0007
C4 C 0.8038(3) 0.24381(10) 0.3340(4)
C5 C 0.9837(3) 0.19338(11) 0.3186(5)
H2 H 1.0439 0.2140 0.3057
C6 C 1.3803(3) 0.02140(9) 0.4679(4)
C7 C 0.7774(3) 0.01105(9) 0.1548(4)
C8 C 0.5432(3) 0.03681(9) 0.0730(4)
H3 H 0.5717 0.0616 0.1222
C9 C 0.8520(3) 0.20220(9) 0.3343(4)
C10 C 1.4949(3) 0.03987(10) 0.5535(4)
H4 H 1.4922 0.0667 0.5894
C11 C 1.3860(3) -0.01857(10) 0.4139(4)
H5 H 1.3095 -0.0312 0.3556
C12 C 0.8165(3) 0.13144(10) 0.3523(5)
H6 H 0.7581 0.1102 0.3638
C13 C 0.5883(4) 0.36071(12) 0.3559(6)
H7 H 0.5198 0.3791 0.3624
C14 C 0.7952(3) 0.30827(9) 0.3355(5)
C15 C 0.6654(3) 0.29446(10) 0.3462(5)
C16 C 0.7173(4) 0.37484(11) 0.3474(6)
H8 H 0.7323 0.4024 0.3502
C17 C 0.7678(3) 0.17002(10) 0.3515(5)
H9 H 0.6782 0.1745 0.3624
C18 C 0.8224(4) 0.34959(11) 0.3351(5)
H10 H 0.9077 0.3593 0.3268
C19 C 1.0256(3) 0.15417(10) 0.3221(6)
H11 H 1.1150 0.1489 0.3134
C20 C 0.5597(3) 0.32065(8) 0.3550(4)
H12 H 0.4734 0.3113 0.3600
H13 H 0.6132 0.2361 0.3481
H14 H 1.0148 0.0423 0.6605
H15 H 1.0743 0.0542 -0.0122
H21 H 0.9045 0.0295 0.5844
H22 H 1.0926 0.0916 -0.0066
N1 N 0.9431(3) 0.12305(8) 0.3375(4)
N2 N 0.6751(3) 0.25331(8) 0.3460(4)
N3 N 0.8805(3) 0.27596(8) 0.3270(4)
O1 O 0.9471(2) 0.05156(7) 0.5924(3)
O2 O 1.0541(3) 0.07393(8) 0.0519(4)
O3 O 1.2498(2) 0.08127(7) 0.4680(4)
O4 O 1.1482(2) 0.02525(7) 0.3655(3)
O5 O 0.8542(2) -0.01805(8) 0.1605(4)
O6 O 0.8108(2) 0.04551(7) 0.2137(4)
Zn1 Zn 0.99280(3) 0.063087(10) 0.31689(5)
C1B C 1.7473(3) -0.04460(10) 0.5674(5)
C2B C 0.3664(3) -0.00532(9) -0.0736(4)
C3B C 0.4112(3) 0.03150(9) -0.0004(4)
H1B H 0.3517 0.0528 -0.0007
C4B C 2.1962(3) -0.24381(10) 0.6660(4)
C5B C 2.0163(3) -0.19338(11) 0.6814(5)
H2B H 1.9561 -0.2140 0.6943
C6B C 1.6197(3) -0.02140(9) 0.5321(4)
C7B C 0.2226(3) -0.01105(9) -0.1548(4)
C8B C 0.4568(3) -0.03681(9) -0.0730(4)
H3B H 0.4283 -0.0616 -0.1222
C9B C 2.1480(3) -0.20220(9) 0.6657(4)
C10B C 1.5051(3) -0.03987(10) 0.4465(4)
H4B H 1.5078 -0.0667 0.4106
C11B C 1.6140(3) 0.01857(10) 0.5861(4)
H5B H 1.6905 0.0312 0.6444
C12B C 2.1835(3) -0.13144(10) 0.6477(5)
H6B H 2.2419 -0.1102 0.6362
C13B C 2.4117(4) -0.36071(12) 0.6441(6)
H7B H 2.4802 -0.3791 0.6376
C14B C 2.2048(3) -0.30827(9) 0.6645(5)
C15B C 2.3346(3) -0.29446(10) 0.6538(5)
C16B C 2.2827(4) -0.37484(11) 0.6526(6)
H8B H 2.2677 -0.4024 0.6498
C17B C 2.2322(3) -0.17002(10) 0.6485(5)
H9B H 2.3218 -0.1745 0.6376
C18B C 2.1776(4) -0.34959(11) 0.6649(5)
H10B H 2.0923 -0.3593 0.6732
C19B C 1.9744(3) -0.15417(10) 0.6779(6)
H11B H 1.8850 -0.1489 0.6866
C20B C 2.4403(3) -0.32065(8) 0.6450(4)
H12B H 2.5266 -0.3113 0.6400
H13B H 2.3868 -0.2361 0.6519
H14B H 1.9852 -0.0423 0.3395
H15B H 1.9257 -0.0542 1.0122
H21B H 2.0955 -0.0295 0.4156
H22B H 1.9074 -0.0916 1.0066
N1B N 2.0569(3) -0.12305(8) 0.6625(4)
N2B N 2.3249(3) -0.25331(8) 0.6540(4)
N3B N 2.1195(3) -0.27596(8) 0.6730(4)
O1B O 2.0529(2) -0.05156(7) 0.4076(3)
O2B O 1.9459(3) -0.07393(8) 0.9481(4)
O3B O 1.7502(2) -0.08127(7) 0.5320(4)
O4B O 1.8518(2) -0.02525(7) 0.6345(3)
O5B O 0.1458(2) 0.01805(8) -0.1605(4)
O6B O 0.1892(2) -0.04551(7) -0.2137(4)
O6B_2 O 2.1892(2) -0.04551(7) 0.7863(4)
Zn1B Zn 2.00720(3) -0.063087(10) 0.68311(5)
Zn1B_2 Zn 0.00720(3) -0.063087(10) -0.31689(5)
H16 H 0.4291 0.1829 0.3580
H23 H 0.3974 0.2160 0.4237
O7 O 0.4381(3) 0.20778(8) 0.3361(4)
H17 H 0.0671 0.2881 0.3156
H24 H 0.1827 0.2790 0.3878
O8 O 0.1463(3) 0.29568(9) 0.3077(4)
H18 H 0.2383 0.2340 0.6393
H25 H 0.3354 0.2577 0.6615
O9 O 0.2866(3) 0.24681(10) 0.5703(4)
H19 H 0.1999 0.3512 0.3387
O10 O 0.2170(4) 0.37645(10) 0.3397(5)
H27 H 0.2699 0.3746 0.4447
H20 H 0.3453 0.1524 0.2610
H26 H 0.3454 0.1156 0.3009
O11 O 0.3823(4) 0.13032(10) 0.2281(6)
loop_
_geom_bond_atom_site_label_1
_geom_bond_atom_site_label_2
_geom_bond_site_symmetry_1
_geom_bond_site_symmetry_2
C1 C6 1_555 1_555
C2 C3 1_555 1_555
C3 H1 1_555 1_555
C4 C9 1_555 1_555
C5 H2 1_555 1_555
C6 C10 1_555 1_555
C7 C2 1_555 1_555
C8 C2 1_555 1_555
H3 C8 1_555 1_555
C9 C5 1_555 1_555
C10 H4 1_555 1_555
C11 C6 1_555 1_555
H5 C11 1_555 1_555
C12 H6 1_555 1_555
C13 H7 1_555 1_555
C14 C15 1_555 1_555
C15 C20 1_555 1_555
C16 C13 1_555 1_555
H8 C16 1_555 1_555
C17 C9 1_555 1_555
H9 C17 1_555 1_555
C18 C14 1_555 1_555
H10 C18 1_555 1_555
C19 C5 1_555 1_555
H11 C19 1_555 1_555
C20 C13 1_555 1_555
H12 C20 1_555 1_555
H13 N2 1_555 1_555
H14 O1 1_555 1_555
H15 O2 1_555 1_555
H16 O7 1_555 1_555
H17 O8 1_555 1_555
H18 O9 1_555 1_555
H19 O10 1_555 1_555
H20 O11 1_555 1_555
H21 O1 1_555 1_555
H22 O2 1_555 1_555
H23 O7 1_555 1_555
H24 O8 1_555 1_555
H25 O9 1_555 1_555
H26 O11 1_555 1_555
N1 C12 1_555 1_555
N2 C4 1_555 1_555
N3 C4 1_555 1_555
O1 Zn1 1_555 1_555
O2 Zn1 1_555 1_555
O3 C1 1_555 1_555
O4 C1 1_555 1_555
O5 C7 1_555 1_555
O6 C7 1_555 1_555
O10 H27 1_555 1_555
Zn1 N1 1_555 1_555
C1B C6B 1_555 1_555
C2B C3B 1_555 1_555
C3B C8 1_555 1_555
H1B C3B 1_555 1_555
C4B C9B 1_555 1_555
C5B H2B 1_555 1_555
C6B C10B 1_555 1_555
C7B C2B 1_555 1_555
C8B C3 1_555 1_555
H3B C8B 1_555 1_555
C9B C5B 1_555 1_555
C10B C11 1_555 1_555
H4B C10B 1_555 1_555
C11B C10 1_555 1_555
H5B C11B 1_555 1_555
C12B H6B 1_555 1_555
C13B H7B 1_555 1_555
C14B C15B 1_555 1_555
C15B C20B 1_555 1_555
C16B C13B 1_555 1_555
H8B C16B 1_555 1_555
C17B C9B 1_555 1_555
H9B C17B 1_555 1_555
C18B C14B 1_555 1_555
H10B C18B 1_555 1_555
C19B C5B 1_555 1_555
H11B C19B 1_555 1_555
C20B C13B 1_555 1_555
H12B C20B 1_555 1_555
H13B N2B 1_555 1_555
H14B O1B 1_555 1_555
H15B O2B 1_555 1_555
H21B O1B 1_555 1_555
H22B O2B 1_555 1_555
N1B C12B 1_555 1_555
N2B C4B 1_555 1_555
N3B C4B 1_555 1_555
O1B Zn1B 1_555 1_555
O2B Zn1B 1_555 1_555
O3B C1B 1_555 1_555
O4B C1B 1_555 1_555
O5B C7B 1_555 1_555
O6B C7B 1_555 1_555
O6B_2 Zn1B 1_555 1_555
Zn1B N1B 1_555 1_555
Zn1B_2 O6B 1_555 1_555
C12 C17 1_555 1_555
C14 N3 1_555 1_555
C15 N2 1_555 1_555
C16 C18 1_555 1_555
C19 N1 1_555 1_555
O4 Zn1 1_555 1_555
O6 Zn1 1_555 1_555
C2B C8B 1_555 1_555
C6B C11B 1_555 1_555
C12B C17B 1_555 1_555
C14B N3B 1_555 1_555
C15B N2B 1_555 1_555
C16B C18B 1_555 1_555
C19B N1B 1_555 1_555
O4B Zn1B 1_555 1_555

#END
