
#######################################################################
#
#                 Cambridge Crystallographic Data Centre
#                                CCDC 
#
#######################################################################
#
# If this CIF has been generated from an entry in the Cambridge 
# Structural Database, then it will include bibliographic, chemical, 
# crystal, experimental, refinement or atomic coordinate data resulting 
# from the CCDC's data processing and validation procedures.
#
#######################################################################

data_QAVBUL
_symmetry_cell_setting           rhombohedral
_symmetry_space_group_name_H-M   'R 3 2'
_symmetry_Int_Tables_number      155
_space_group_name_Hall           'R 3 2"'
loop_
_symmetry_equiv_pos_site_id
_symmetry_equiv_pos_as_xyz
1 x,y,z
2 -y,x-y,z
3 -x+y,-x,z
4 y,x,-z
5 x-y,-y,-z
6 -x,-x+y,-z
7 2/3+x,1/3+y,1/3+z
8 2/3-y,1/3+x-y,1/3+z
9 2/3-x+y,1/3-x,1/3+z
10 2/3+y,1/3+x,1/3-z
11 2/3+x-y,1/3-y,1/3-z
12 2/3-x,1/3-x+y,1/3-z
13 1/3+x,2/3+y,2/3+z
14 1/3-y,2/3+x-y,2/3+z
15 1/3-x+y,2/3-x,2/3+z
16 1/3+y,2/3+x,2/3-z
17 1/3+x-y,2/3-y,2/3-z
18 1/3-x,2/3-x+y,2/3-z
_cell_length_a                   28.5344(8)
_cell_length_b                   28.5344(8)
_cell_length_c                   12.2148(5)
_cell_angle_alpha                90
_cell_angle_beta                 90
_cell_angle_gamma                120.00
_cell_volume                     8613
loop_
_atom_site_label
_atom_site_type_symbol
_atom_site_fract_x
_atom_site_fract_y
_atom_site_fract_z
Tb1 Tb 0.344180(6) 0.010846(6) 0.3333
O1 O 0.31930(8) 0.06930(7) 0.25274(16)
O2 O 0.04295(6) 0.31906(6) 0.16358(13)
O3 O 0.08329(6) 0.38600(7) 0.28140(14)
O4 O 0.42939(10) 0.09605(10) 0.3333
C1 C 0.3333 0.09651(14) 0.1667
C2 C 0.3333 0.14994(15) 0.1667
C3 C 0.29961(11) 0.15703(10) 0.2369(2)
H2 H 0.2779 0.1303 0.2867
C4 C 0.29902(11) 0.20502(10) 0.2311(3)
H3 H 0.2741 0.2090 0.2732
C5 C 0.3333 0.24627(15) 0.1667
C6 C 0.3333 0.29962(14) 0.1667
C7 C 0.28521(10) 0.30086(11) 0.1747(2)
H4 H 0.2527 0.2684 0.1803
C8 C 0.28427(10) 0.34885(10) 0.1744(2)
C9 C 0.3333 0.39752(14) 0.1667
H5 H 0.3333 0.4301 0.1667
C10 C 0.23262(9) 0.34915(10) 0.1836(2)
C11 C 0.18488(10) 0.30997(11) 0.1373(3)
H6 H 0.1844 0.2810 0.1014
C12 C 0.13826(10) 0.31235(10) 0.1423(2)
H7 H 0.1070 0.2856 0.1088
C13 C 0.13740(10) 0.35489(10) 0.1977(2)
C14 C 0.18449(10) 0.39419(11) 0.2455(2)
H8 H 0.1845 0.4227 0.2822
C15 C 0.23104(11) 0.39206(10) 0.2402(2)
H9 H 0.2622 0.4189 0.2738
C16 C 0.08595(10) 0.35457(10) 0.2135(2)
Tb1A Tb -0.010846(6) 0.333334(8) 0.3333
Tb1J Tb 0.000001(8) 0.322487(6) 0.0000
Tb1K Tb 0.322487(6) -0.000001(8) 0.0000
Tb1B Tb 0.666666(8) 0.655820(6) 0.3333
Tb1I Tb 0.677513(6) 0.677513(6) 0.0000
O1K O 0.34737(8) 0.08333(11) 0.08059(16)
O1O O 0.40263(7) -0.01403(8) 0.41393(16)
O2K O 0.62372(6) 0.60944(8) 0.16975(13)
O2B O 0.27611(8) -0.04295(6) 0.16358(13)
O2G O 0.34761(6) 0.05722(8) 0.49691(13)
O2J O 0.39056(8) 0.01427(6) 0.16975(13)
O2Q O 0.29038(6) -0.05722(8) 0.50309(13)
O3K O 0.58338(6) 0.63604(9) 0.05193(14)
O3B O 0.30271(9) -0.08329(6) 0.28140(14)
O3Q O 0.25004(6) -0.03062(9) 0.38527(14)
C3K C 0.36706(11) 0.19075(15) 0.0964(2)
H2K H 0.3888 0.1857 0.0466
C4K C 0.36765(11) 0.23933(15) 0.1022(3)
H3K H 0.3926 0.2682 0.0601
C7K C 0.38146(10) 0.34898(15) 0.1586(2)
H4K H 0.4140 0.3490 0.1530
C8K C 0.38240(10) 0.39791(14) 0.1589(2)
C10K C 0.43405(9) 0.44986(13) 0.1497(2)
C11K C 0.48179(10) 0.45842(15) 0.1960(3)
H6K H 0.4823 0.4299 0.2319
C12K C 0.52841(10) 0.50742(14) 0.1910(2)
H7K H 0.5597 0.5119 0.2245
C13K C 0.52927(10) 0.55082(14) 0.1356(2)
C14K C 0.48218(10) 0.54303(15) 0.0878(2)
H8K H 0.4822 0.5715 0.0511
C15K C 0.43563(11) 0.49435(15) 0.0931(2)
H9K H 0.4045 0.4900 0.0595
C16K C 0.58072(10) 0.60195(14) 0.1198(2)
O5 O 0.18599(10) -0.01373(10) 0.1998(2)
H1 H 0.1723 -0.0301 0.1428
C17 C 0.16561(16) 0.02014(19) 0.2245(3)
H10 H 0.1976 0.0556 0.2111
C18 C 0.1566(2) 0.02496(19) 0.3446(4)
H11 H 0.1910 0.0411 0.3827
H12 H 0.1336 -0.0109 0.3749
C19 C 0.12958(19) 0.0603(2) 0.3637(5)
H13 H 0.1033 0.0438 0.4221
H14 H 0.1573 0.0956 0.3892
C20 C 0.1012(2) 0.0686(2) 0.2655(3)
H15 H 0.0636 0.0400 0.2679
H16 H 0.1014 0.1023 0.2778
C21 C 0.1207(3) 0.0705(2) 0.1497(5)
H17 H 0.1551 0.1033 0.1377
H18 H 0.0946 0.0693 0.0974
C22 C 0.1271(2) 0.02010(18) 0.1376(5)
H19 H 0.0920 -0.0124 0.1451
H20 H 0.1411 0.0199 0.0654
loop_
_geom_bond_atom_site_label_1
_geom_bond_atom_site_label_2
_geom_bond_site_symmetry_1
_geom_bond_site_symmetry_2
Tb1 O1 1_555 1_555
O1 C1 1_555 1_555
O2 C16 1_555 1_555
O3 C16 1_555 1_555
O4 Tb1 1_555 1_555
O5 H1 1_555 1_555
C1 C2 1_555 1_555
C2 C3 1_555 1_555
C3 H2 1_555 1_555
C4 C3 1_555 1_555
H3 C4 1_555 1_555
C5 C4 1_555 1_555
C6 C5 1_555 1_555
C7 C6 1_555 1_555
H4 C7 1_555 1_555
C8 C7 1_555 1_555
C9 C8 1_555 1_555
H5 C9 1_555 1_555
C10 C8 1_555 1_555
C11 C10 1_555 1_555
H6 C11 1_555 1_555
C12 C11 1_555 1_555
H7 C12 1_555 1_555
C13 C12 1_555 1_555
C14 C13 1_555 1_555
H8 C14 1_555 1_555
C15 C10 1_555 1_555
H9 C15 1_555 1_555
C16 C13 1_555 1_555
C17 O5 1_555 1_555
H10 C17 1_555 1_555
C18 C17 1_555 1_555
H11 C18 1_555 1_555
H12 C18 1_555 1_555
C19 C18 1_555 1_555
H13 C19 1_555 1_555
H14 C19 1_555 1_555
C20 C19 1_555 1_555
H15 C20 1_555 1_555
H16 C20 1_555 1_555
C21 C20 1_555 1_555
H17 C21 1_555 1_555
H18 C21 1_555 1_555
C22 C17 1_555 1_555
H19 C22 1_555 1_555
H20 C22 1_555 1_555
Tb1A O2 1_555 1_555
Tb1J O2 1_555 1_555
Tb1K O1K 1_555 1_555
Tb1B O2K 1_555 1_555
Tb1I O2K 1_555 1_555
O1K C1 1_555 1_555
O1O Tb1 1_555 1_555
O2K C16K 1_555 1_555
O2B Tb1 1_555 1_555
O2G Tb1 1_555 1_555
O2J Tb1 1_555 1_555
O2Q Tb1 1_555 1_555
O3K Tb1I 1_555 1_555
O3B Tb1 1_555 1_555
O3Q Tb1 1_555 1_555
C3K C2 1_555 1_555
H2K C3K 1_555 1_555
C4K C5 1_555 1_555
H3K C4K 1_555 1_555
C7K C6 1_555 1_555
H4K C7K 1_555 1_555
C8K C9 1_555 1_555
C10K C8K 1_555 1_555
C11K C10K 1_555 1_555
H6K C11K 1_555 1_555
C12K C11K 1_555 1_555
H7K C12K 1_555 1_555
C13K C12K 1_555 1_555
C14K C13K 1_555 1_555
H8K C14K 1_555 1_555
C15K C10K 1_555 1_555
H9K C15K 1_555 1_555
C16K O3K 1_555 1_555
O3 Tb1A 1_555 1_555
C14 C15 1_555 1_555
C21 C22 1_555 1_555
Tb1K O2B 1_555 1_555
Tb1K O2J 1_555 1_555
C3K C4K 1_555 1_555
C7K C8K 1_555 1_555
C13K C16K 1_555 1_555
C14K C15K 1_555 1_555

#END
