
#######################################################################
#
#                 Cambridge Crystallographic Data Centre
#                                CCDC 
#
#######################################################################
#
# If this CIF has been generated from an entry in the Cambridge 
# Structural Database, then it will include bibliographic, chemical, 
# crystal, experimental, refinement or atomic coordinate data resulting 
# from the CCDC's data processing and validation procedures.
#
#######################################################################

data_QAVBOG
_symmetry_cell_setting           orthorhombic
_symmetry_space_group_name_H-M   'P 21 21 21'
_symmetry_Int_Tables_number      19
_space_group_name_Hall           'P 2ac 2ab'
loop_
_symmetry_equiv_pos_site_id
_symmetry_equiv_pos_as_xyz
1 x,y,z
2 1/2-x,-y,1/2+z
3 -x,1/2+y,1/2-z
4 1/2+x,1/2-y,-z
_cell_length_a                   13.5289(6)
_cell_length_b                   13.9881(6)
_cell_length_c                   15.3190(7)
_cell_angle_alpha                90
_cell_angle_beta                 90
_cell_angle_gamma                90
_cell_volume                     2899.02
loop_
_atom_site_label
_atom_site_type_symbol
_atom_site_fract_x
_atom_site_fract_y
_atom_site_fract_z
Cd1 Cd 0.53457(3) 0.79392(3) 0.14360(3)
O1 O 0.5767(3) 0.6243(3) 0.1390(3)
O2 O 0.6629(3) 0.8015(4) 0.2542(3)
C1 C 0.5349(5) 0.5227(4) 0.0185(4)
C2 C 0.6453(5) 0.8875(5) 0.2647(4)
C3 C 0.8228(4) 1.0530(5) 0.4409(4)
C4 C 0.2443(4) 0.2133(5) -0.2261(4)
O3 O 0.5769(3) 0.9292(3) 0.2250(3)
C5 C 0.5308(5) 0.6177(4) 0.0659(4)
O4 O 0.4868(3) 0.6846(3) 0.0316(3)
C6 C 0.7086(4) 0.9457(4) 0.3254(4)
C7 C 0.1488(5) 0.2049(6) -0.2757(5)
C8 C 0.5255(5) 0.3475(4) -0.0614(5)
C9 C 0.7424(5) 1.0927(5) 0.3989(5)
H1 H 0.7248 1.1557 0.4104
C10 C 0.6881(5) 1.0403(5) 0.3405(5)
H2 H 0.6365 1.0694 0.3105
C11 C 0.8807(5) 1.1105(5) 0.5058(4)
O5 O 0.1439(4) 0.1519(4) -0.3407(4)
O6 O 0.0773(4) 0.2511(4) -0.2492(3)
C12 C 0.4184(5) 0.1821(6) -0.2112(6)
H3 H 0.4752 0.1512 -0.2304
C13 C 0.7908(5) 0.9063(5) 0.3655(6)
H4 H 0.8082 0.8432 0.3540
C14 C 0.8469(5) 0.9601(5) 0.4222(5)
H5 H 0.9021 0.9328 0.4483
C15 C 0.4209(5) 0.2427(5) -0.1398(6)
C16 C 0.2496(5) 0.2718(5) -0.1547(5)
H6 H 0.1927 0.3019 -0.1346
O7 O 0.5130(3) 0.2583(3) -0.1024(4)
C17 C 0.3384(5) 0.2870(7) -0.1119(5)
H7 H 0.3410 0.3276 -0.0639
C18 C 0.3278(6) 0.1687(5) -0.2535(5)
H8 H 0.3247 0.1282 -0.3016
C19 C 0.5148(6) 0.5161(5) -0.0671(5)
H9 H 0.5045 0.5716 -0.0993
O8 O 0.9666(4) 1.0897(3) 0.5233(3)
O9 O 0.8353(3) 1.1773(3) 0.5439(3)
C20 C 0.5551(6) 0.4393(5) 0.0643(5)
H12 H 0.5719 0.4421 0.1231
C21 C 0.5501(6) 0.3525(5) 0.0222(6)
H13 H 0.5642 0.2967 0.0529
C22 C 0.5094(7) 0.4286(6) -0.1080(5)
H14 H 0.4947 0.4251 -0.1672
Cd1A Cd -0.03457(3) 0.20608(3) -0.35640(3)
Cd1A_2 Cd 0.96543(3) 1.20608(3) 0.64360(3)
O5A O 0.3561(4) 0.8481(4) 0.1593(4)
O6A O 0.4227(4) 0.7489(4) 0.2508(3)
O8A O 0.5334(4) 0.9103(3) 0.0233(3)
O9A O 0.6647(3) 0.8227(3) 0.0439(3)
N1 N 0.3330(5) 0.7903(9) 0.9428(6)
H10 H 0.2811 0.7521 0.9544
H11 H 0.3801 0.7773 0.9826
C24 C 0.3725(9) 0.7647(11) 0.8540(8)
H20 H 0.3248 0.7815 0.8103
H21 H 0.3852 0.6972 0.8516
H22 H 0.4328 0.7990 0.8436
C25 C 0.3027(9) 0.8860(9) 0.9544(9)
H23 H 0.3557 0.9281 0.9384
H24 H 0.2854 0.8963 1.0145
H25 H 0.2463 0.8986 0.9182
N2 N 0.5864(9) 0.5639(6) 0.3153(5)
H15 H 0.5633 0.5870 0.2644
H16 H 0.5728 0.5009 0.3165
C23 C 0.5344(10) 0.6075(7) 0.3828(8)
H17 H 0.5469 0.5740 0.4364
H18 H 0.4650 0.6058 0.3702
H19 H 0.5556 0.6727 0.3885
C26 C 0.6940(9) 0.5756(8) 0.3162(9)
H26 H 0.7102 0.6418 0.3081
H27 H 0.7226 0.5386 0.2698
H28 H 0.7198 0.5540 0.3711
loop_
_geom_bond_atom_site_label_1
_geom_bond_atom_site_label_2
_geom_bond_site_symmetry_1
_geom_bond_site_symmetry_2
Cd1 O1 1_555 1_555
O1 C5 1_555 1_555
O2 Cd1 1_555 1_555
C1 C5 1_555 1_555
C2 O2 1_555 1_555
C3 C9 1_555 1_555
C4 C7 1_555 1_555
O3 Cd1 1_555 1_555
C5 O4 1_555 1_555
O4 Cd1 1_555 1_555
C6 C2 1_555 1_555
C7 O5 1_555 1_555
C8 O7 1_555 1_555
C9 H1 1_555 1_555
C10 C6 1_555 1_555
H2 C10 1_555 1_555
C11 C3 1_555 1_555
O5 Cd1A 1_555 1_555
O6 C7 1_555 1_555
C12 H3 1_555 1_555
C13 C6 1_555 1_555
H4 C13 1_555 1_555
C14 C3 1_555 1_555
H5 C14 1_555 1_555
C15 C12 1_555 1_555
C16 C4 1_555 1_555
H6 C16 1_555 1_555
O7 C15 1_555 1_555
C17 C15 1_555 1_555
H7 C17 1_555 1_555
C18 C4 1_555 1_555
H8 C18 1_555 1_555
C19 C1 1_555 1_555
H9 C19 1_555 1_555
O8 C11 1_555 1_555
O9 C11 1_555 1_555
N1 H10 1_555 1_555
H11 N1 1_555 1_555
C20 C1 1_555 1_555
H12 C20 1_555 1_555
C21 C8 1_555 1_555
H13 C21 1_555 1_555
C22 C8 1_555 1_555
H14 C22 1_555 1_555
N2 H15 1_555 1_555
H16 N2 1_555 1_555
C23 N2 1_555 1_555
H17 C23 1_555 1_555
H18 C23 1_555 1_555
H19 C23 1_555 1_555
C24 N1 1_555 1_555
H20 C24 1_555 1_555
H21 C24 1_555 1_555
H22 C24 1_555 1_555
C25 N1 1_555 1_555
H23 C25 1_555 1_555
H24 C25 1_555 1_555
H25 C25 1_555 1_555
C26 N2 1_555 1_555
H26 C26 1_555 1_555
H27 C26 1_555 1_555
H28 C26 1_555 1_555
Cd1A O6 1_555 1_555
Cd1A_2 O8 1_555 1_555
O5A Cd1 1_555 1_555
O6A Cd1 1_555 1_555
O8A Cd1 1_555 1_555
O9A Cd1 1_555 1_555
C2 O3 1_555 1_555
C9 C10 1_555 1_555
C12 C18 1_555 1_555
C13 C14 1_555 1_555
C16 C17 1_555 1_555
C19 C22 1_555 1_555
O9 Cd1A_2 1_555 1_555
C20 C21 1_555 1_555

#END
