
#######################################################################
#
#                 Cambridge Crystallographic Data Centre
#                                CCDC 
#
#######################################################################
#
# If this CIF has been generated from an entry in the Cambridge 
# Structural Database, then it will include bibliographic, chemical, 
# crystal, experimental, refinement or atomic coordinate data resulting 
# from the CCDC's data processing and validation procedures.
#
#######################################################################

data_QAVBAS
_symmetry_cell_setting           monoclinic
_symmetry_space_group_name_H-M   'C 2/c'
_symmetry_Int_Tables_number      15
_space_group_name_Hall           '-C 2yn'
loop_
_symmetry_equiv_pos_site_id
_symmetry_equiv_pos_as_xyz
1 x,y,z
2 -x,y,1/2-z
3 1/2+x,1/2+y,z
4 1/2-x,1/2+y,1/2-z
5 -x,-y,-z
6 x,-y,1/2+z
7 1/2-x,1/2-y,-z
8 1/2+x,1/2-y,1/2+z
_cell_length_a                   13.3004(17)
_cell_length_b                   7.8266(10)
_cell_length_c                   12.3149(16)
_cell_angle_alpha                90
_cell_angle_beta                 94.377(1)
_cell_angle_gamma                90
_cell_volume                     1278.2
loop_
_atom_site_label
_atom_site_type_symbol
_atom_site_fract_x
_atom_site_fract_y
_atom_site_fract_z
Zn1 Zn 0.5000 0.59384(10) 0.7500
N1 N 0.3488(3) 0.5985(4) 0.8201(4)
N2 N 0.1806(3) 0.6572(6) 0.8223(3)
N3 N 0.4185(4) 0.4067(5) 1.0776(4)
N4 N 0.1037(4) 0.5021(7) 1.0743(4)
O1 O 0.5000 0.8674(7) 0.7500
H1 H 0.5311 0.9023 0.6995
O2 O 0.5000 0.3227(7) 0.7500
H2 H 0.4603 0.2877 0.7008
C1 C 0.3154(3) 0.5384(5) 0.9140(3)
C2 C 0.2140(4) 0.5764(6) 0.9166(4)
C3 C 0.2655(3) 0.6682(6) 0.7683(4)
H3 H 0.2663 0.7200 0.7004
C4 C 0.3755(3) 0.4637(6) 1.0020(3)
C5 C 0.1506(4) 0.5361(7) 1.0015(4)
Zn1D Zn 0.5000 0.40616(10) 1.2500
Zn1D_2 Zn 0.5000 0.40616(10) 0.2500
N1A N 0.6512(3) 0.5985(4) 0.6799(4)
N2A N 0.8194(3) 0.6572(6) 0.6777(3)
N3D N 0.5815(4) 0.5933(5) 0.9224(4)
N3E N 0.4185(4) 0.5933(5) 0.5776(4)
N3A N 0.5815(4) 0.4067(5) 0.4224(4)
N4A N 0.8963(4) 0.5021(7) 0.4257(4)
H1A H 0.4689 0.9023 0.8005
H2A H 0.5397 0.2877 0.7992
C1A C 0.6846(3) 0.5384(5) 0.5860(3)
C2A C 0.7860(4) 0.5764(6) 0.5834(4)
C3A C 0.7345(3) 0.6682(6) 0.7317(4)
H3A H 0.7337 0.7200 0.7996
C4A C 0.6245(3) 0.4637(6) 0.4980(3)
C5A C 0.8494(4) 0.5361(7) 0.4985(4)
loop_
_geom_bond_atom_site_label_1
_geom_bond_atom_site_label_2
_geom_bond_site_symmetry_1
_geom_bond_site_symmetry_2
Zn1 N1 1_555 1_555
N1 C1 1_555 1_555
N2 C2 1_555 1_555
N3 C4 1_555 1_555
N4 C5 1_555 1_555
O1 Zn1 1_555 1_555
H1 O1 1_555 1_555
O2 Zn1 1_555 1_555
H2 O2 1_555 1_555
C1 C2 1_555 1_555
C2 C5 1_555 1_555
C3 N1 1_555 1_555
H3 C3 1_555 1_555
C4 C1 1_555 1_555
Zn1D N3 1_555 1_555
Zn1D_2 N3A 1_555 1_555
N1A Zn1 1_555 1_555
N2A C2A 1_555 1_555
N3D Zn1 1_555 1_555
N3E Zn1 1_555 1_555
N3A C4A 1_555 1_555
N4A C5A 1_555 1_555
H1A O1 1_555 1_555
H2A O2 1_555 1_555
C1A N1A 1_555 1_555
C2A C1A 1_555 1_555
C3A N1A 1_555 1_555
H3A C3A 1_555 1_555
C4A C1A 1_555 1_555
C5A C2A 1_555 1_555
N2 C3 1_555 1_555
N2A C3A 1_555 1_555

#END
