
#######################################################################
#
#                 Cambridge Crystallographic Data Centre
#                                CCDC 
#
#######################################################################
#
# If this CIF has been generated from an entry in the Cambridge 
# Structural Database, then it will include bibliographic, chemical, 
# crystal, experimental, refinement or atomic coordinate data resulting 
# from the CCDC's data processing and validation procedures.
#
#######################################################################

data_QAVCUN
_symmetry_cell_setting           monoclinic
_symmetry_space_group_name_H-M   'P 21/n'
_symmetry_Int_Tables_number      14
_space_group_name_Hall           '-P 2yn'
loop_
_symmetry_equiv_pos_site_id
_symmetry_equiv_pos_as_xyz
1 x,y,z
2 1/2-x,1/2+y,1/2-z
3 -x,-y,-z
4 1/2+x,1/2-y,1/2+z
_cell_length_a                   12.813(2)
_cell_length_b                   17.781(3)
_cell_length_c                   17.338(3)
_cell_angle_alpha                90
_cell_angle_beta                 109.619(3)
_cell_angle_gamma                90
_cell_volume                     3720.76
loop_
_atom_site_label
_atom_site_type_symbol
_atom_site_fract_x
_atom_site_fract_y
_atom_site_fract_z
Ag1 Ag 0.53484(3) 0.60988(2) 0.53004(2)
Ag2 Ag -0.01896(3) 0.638700(19) 0.99869(2)
O1 O 0.7263(2) 0.56043(18) 0.64009(19)
H1 H 0.7395 0.5152 0.6564
H2 H 0.7876 0.5824 0.6465
O3 O -0.2152(3) 0.63983(17) 0.89233(19)
H3 H -0.2367 0.6787 0.8626
H4 H -0.2673 0.6077 0.8793
C2 C 0.3321(4) 0.5248(3) 0.5407(3)
H18 H 0.2972 0.5480 0.4890
C3 C 0.2691(3) 0.4802(2) 0.5723(3)
H19 H 0.1923 0.4735 0.5433
C4 C 0.3183(3) 0.4453(2) 0.6466(3)
C5 C 0.4291(3) 0.4586(2) 0.6858(3)
H20 H 0.4655 0.4359 0.7375
C6 C 0.4884(4) 0.5043(2) 0.6513(3)
C7 C 0.2526(4) 0.3984(2) 0.6861(3)
H21 H 0.2990 0.3564 0.7167
H22 H 0.1875 0.3766 0.6433
C8 C 0.2140(4) 0.4460(2) 0.7442(3)
H23 H 0.1673 0.4876 0.7130
H24 H 0.2794 0.4685 0.7860
C9 C 0.1482(4) 0.4011(3) 0.7873(3)
H25 H 0.0845 0.3763 0.7460
H26 H 0.1959 0.3615 0.8217
C10 C 0.1073(3) 0.4520(2) 0.8396(3)
C11 C 0.0069(4) 0.4897(3) 0.8076(3)
H27 H -0.0401 0.4801 0.7531
C12 C -0.0240(4) 0.5413(3) 0.8554(3)
H28 H -0.0925 0.5669 0.8325
C13 C 0.1339(4) 0.5195(3) 0.9638(3)
H29 H 0.1791 0.5298 1.0186
C14 C 0.1699(3) 0.4671(3) 0.9201(3)
H30 H 0.2377 0.4412 0.9453
C15 C 0.5446(3) 0.7151(3) 0.3930(3)
H31 H 0.4728 0.6950 0.3660
C16 C 0.5851(3) 0.7657(2) 0.3512(3)
H32 H 0.5423 0.7797 0.2969
C17 C 0.6899(3) 0.7969(2) 0.3886(2)
C18 C 0.7455(4) 0.7735(3) 0.4675(3)
H33 H 0.8170 0.7932 0.4960
C19 C 0.6991(4) 0.7222(3) 0.5054(3)
H34 H 0.7399 0.7074 0.5599
C20 C 0.7413(4) 0.8493(2) 0.3442(3)
H35 H 0.8012 0.8782 0.3844
H36 H 0.6848 0.8855 0.3118
C21 C 0.7885(3) 0.8067(2) 0.2875(3)
H37 H 0.7282 0.7778 0.2476
H38 H 0.8443 0.7703 0.3202
C22 C 0.8424(4) 0.8579(2) 0.2409(3)
H39 H 0.7884 0.8963 0.2104
H40 H 0.9065 0.8842 0.2802
C23 C 0.8804(3) 0.8132(2) 0.1825(2)
C24 C 0.8056(3) 0.7898(2) 0.1083(3)
H41 H 0.7305 0.8058 0.0921
C25 C 0.8402(4) 0.7435(2) 0.0580(3)
H42 H 0.7871 0.7276 0.0079
C26 C 1.0174(4) 0.7444(3) 0.1469(3)
H43 H 1.0926 0.7296 0.1604
C27 C 0.9890(3) 0.7898(3) 0.2007(3)
H44 H 1.0438 0.8051 0.2504
N1 N 0.4402(3) 0.5375(2) 0.5788(2)
N2 N 0.0383(3) 0.5566(2) 0.9327(2)
N3 N 0.5985(3) 0.6920(2) 0.4689(2)
N4 N 0.9442(3) 0.7199(2) 0.0760(2)
Ag2_2 Ag 0.98104(3) 0.638700(19) -0.00131(2)
N4_2 N -0.0558(3) 0.7199(2) 1.0760(2)
B1 B 0.7810(4) 0.3406(3) 0.6673(3)
O8 O 0.7512(3) 0.40738(17) 0.69124(19)
H9 H 0.7256 0.4028 0.7303
O9 O 0.8371(3) 0.34534(17) 0.61292(18)
H10 H 0.8620 0.3060 0.5973
O10 O 0.7606(2) 0.27297(15) 0.69413(17)
H11 H 0.7254 0.2723 0.7278
B2 B -0.0109(4) 0.6531(3) 0.6091(3)
O11 O 0.0229(3) 0.59112(18) 0.57753(19)
H12 H 0.0053 0.5471 0.5879
O12 O 0.0235(2) 0.72017(17) 0.58974(18)
H13 H -0.0026 0.7579 0.6073
O13 O -0.0763(2) 0.64511(16) 0.65634(17)
H14 H -0.0931 0.6874 0.6718
B3 B 0.5734(4) 0.5167(3) -0.0832(3)
O14 O 0.5330(3) 0.45117(17) -0.06756(19)
H15 H 0.5399 0.4111 -0.0922
O15 O 0.5564(2) 0.58134(17) -0.04681(18)
H16 H 0.5281 0.5707 -0.0103
O16 O 0.6310(2) 0.52377(17) -0.13614(17)
H17 H 0.6510 0.4835 -0.1537
O2 O 0.5550(2) 0.33474(16) 0.85689(17)
O4 O 0.6732(3) 0.39361(16) 0.80994(18)
O5 O 0.6524(2) 0.26935(15) 0.79640(16)
C1 C 0.6282(3) 0.3326(2) 0.8208(2)
O6 O 0.5618(3) 0.73739(17) -0.05777(18)
H5 H 0.5507 0.7531 -0.0148
H6 H 0.5607 0.6896 -0.0574
O7 O -0.0287(2) 0.44781(18) 0.57792(18)
H7 H -0.0259 0.4369 0.5309
H8 H -0.0705 0.4161 0.5899
loop_
_geom_bond_atom_site_label_1
_geom_bond_atom_site_label_2
_geom_bond_site_symmetry_1
_geom_bond_site_symmetry_2
Ag1 O1 1_555 1_555
Ag2 O3 1_555 1_555
B1 O8 1_555 1_555
B2 O11 1_555 1_555
B3 O14 1_555 1_555
O1 H1 1_555 1_555
H2 O1 1_555 1_555
O2 C1 1_555 1_555
O3 H3 1_555 1_555
H4 O3 1_555 1_555
O4 C1 1_555 1_555
O5 C1 1_555 1_555
O6 H5 1_555 1_555
H6 O6 1_555 1_555
O7 H7 1_555 1_555
H8 O7 1_555 1_555
O8 H9 1_555 1_555
O9 B1 1_555 1_555
H10 O9 1_555 1_555
O10 B1 1_555 1_555
H11 O10 1_555 1_555
O11 H12 1_555 1_555
O12 B2 1_555 1_555
H13 O12 1_555 1_555
O13 B2 1_555 1_555
H14 O13 1_555 1_555
O14 H15 1_555 1_555
O15 B3 1_555 1_555
H16 O15 1_555 1_555
O16 B3 1_555 1_555
H17 O16 1_555 1_555
C2 H18 1_555 1_555
C3 C2 1_555 1_555
H19 C3 1_555 1_555
C4 C3 1_555 1_555
C5 C4 1_555 1_555
H20 C5 1_555 1_555
C6 C5 1_555 1_555
C7 C4 1_555 1_555
H21 C7 1_555 1_555
H22 C7 1_555 1_555
C8 C7 1_555 1_555
H23 C8 1_555 1_555
H24 C8 1_555 1_555
C9 C8 1_555 1_555
H25 C9 1_555 1_555
H26 C9 1_555 1_555
C10 C9 1_555 1_555
C11 C10 1_555 1_555
H27 C11 1_555 1_555
C12 C11 1_555 1_555
H28 C12 1_555 1_555
C13 H29 1_555 1_555
C14 C10 1_555 1_555
H30 C14 1_555 1_555
C15 H31 1_555 1_555
C16 C15 1_555 1_555
H32 C16 1_555 1_555
C17 C16 1_555 1_555
C18 C17 1_555 1_555
H33 C18 1_555 1_555
C19 C18 1_555 1_555
H34 C19 1_555 1_555
C20 C17 1_555 1_555
H35 C20 1_555 1_555
H36 C20 1_555 1_555
C21 C20 1_555 1_555
H37 C21 1_555 1_555
H38 C21 1_555 1_555
C22 C21 1_555 1_555
H39 C22 1_555 1_555
H40 C22 1_555 1_555
C23 C22 1_555 1_555
C24 C23 1_555 1_555
H41 C24 1_555 1_555
C25 C24 1_555 1_555
H42 C25 1_555 1_555
C26 H43 1_555 1_555
C27 C23 1_555 1_555
H44 C27 1_555 1_555
N1 Ag1 1_555 1_555
N2 Ag2 1_555 1_555
N3 Ag1 1_555 1_555
N4 C25 1_555 1_555
Ag2_2 N4 1_555 1_555
N4_2 Ag2 1_555 1_555
C2 N1 1_555 1_555
C6 N1 1_555 1_555
C12 N2 1_555 1_555
C13 C14 1_555 1_555
C13 N2 1_555 1_555
C15 N3 1_555 1_555
C19 N3 1_555 1_555
C26 C27 1_555 1_555
C26 N4 1_555 1_555

#END
