
#######################################################################
#
#                 Cambridge Crystallographic Data Centre
#                                CCDC 
#
#######################################################################
#
# If this CIF has been generated from an entry in the Cambridge 
# Structural Database, then it will include bibliographic, chemical, 
# crystal, experimental, refinement or atomic coordinate data resulting 
# from the CCDC's data processing and validation procedures.
#
#######################################################################

data_QAVDIC
_symmetry_cell_setting           monoclinic
_symmetry_space_group_name_H-M   'C 2/c'
_symmetry_Int_Tables_number      15
_space_group_name_Hall           '-C 2yn'
loop_
_symmetry_equiv_pos_site_id
_symmetry_equiv_pos_as_xyz
1 x,y,z
2 -x,y,1/2-z
3 1/2+x,1/2+y,z
4 1/2-x,1/2+y,1/2-z
5 -x,-y,-z
6 x,-y,1/2+z
7 1/2-x,1/2-y,-z
8 1/2+x,1/2-y,1/2+z
_cell_length_a                   25.847(5)
_cell_length_b                   11.454(5)
_cell_length_c                   7.315(5)
_cell_angle_alpha                90
_cell_angle_beta                 98.024(5)
_cell_angle_gamma                90
_cell_volume                     2144.41
loop_
_atom_site_label
_atom_site_type_symbol
_atom_site_fract_x
_atom_site_fract_y
_atom_site_fract_z
Cd1 Cd 0.0000 0.10017(3) 0.2500
O1 O 0.02961(11) 0.1155(3) 0.5654(4)
O2 O 0.15938(11) 0.1326(3) 0.7796(4)
N1 N 0.04966(12) 0.2742(3) 0.2047(4)
O3 O 0.07761(11) -0.0122(3) 0.7446(4)
C1 C 0.22943(13) 0.2083(3) 0.9799(5)
C2 C 0.24907(16) 0.1283(4) 1.2851(6)
H1 H 0.2421 0.0746 1.3739
C3 C 0.02673(16) 0.3780(3) 0.2268(5)
C4 C 0.19898(14) 0.2123(3) 0.8021(5)
C5 C 0.12058(14) 0.1468(4) 0.6198(5)
H2 H 0.1118 0.2287 0.6024
H3 H 0.1342 0.1190 0.5107
C6 C 0.07199(15) 0.0778(3) 0.6469(5)
C7 C 0.21955(15) 0.1274(3) 1.1174(6)
H4 H 0.1926 0.0734 1.0922
C8 C 0.05192(18) 0.4852(4) 0.2085(6)
C9 C 0.09774(16) 0.2748(4) 0.1625(7)
H5 H 0.1135 0.2036 0.1439
C10 C 0.10341(19) 0.4810(4) 0.1697(7)
H6 H 0.1221 0.5497 0.1613
C11 C 0.20975(15) 0.2911(4) 0.6717(6)
H7 H 0.1900 0.2914 0.5553
C12 C 0.0247(2) 0.5944(4) 0.2280(7)
C13 C 0.12590(19) 0.3764(4) 0.1445(8)
H8 H 0.1598 0.3728 0.1156
Cd1D Cd 0.0000 -0.10017(3) 0.7500
Cd1F Cd 0.5000 0.39983(3) 1.7500
Cd1B Cd 0.5000 0.60017(3) 1.2500
O1F O 0.47039(11) 0.3845(3) 1.4346(4)
O1A O -0.02961(11) 0.1155(3) -0.0654(4)
O2F O 0.34062(11) 0.3674(3) 1.2204(4)
N1A N -0.04966(12) 0.2742(3) 0.2953(4)
O3F O 0.42239(11) 0.5122(3) 1.2554(4)
O3D O -0.07761(11) 0.0122(3) 0.2554(4)
O3E O 0.07761(11) 0.0122(3) 0.2446(4)
C1F C 0.27057(13) 0.2917(3) 1.0201(5)
C2F C 0.25093(16) 0.3717(4) 0.7149(6)
H1F H 0.2579 0.4254 0.6261
C3A C -0.02673(16) 0.3780(3) 0.2732(5)
C4F C 0.30102(14) 0.2877(3) 1.1979(5)
C5F C 0.37942(14) 0.3532(4) 1.3802(5)
H2F H 0.3882 0.2713 1.3976
H3F H 0.3658 0.3810 1.4893
C6F C 0.42801(15) 0.4222(3) 1.3531(5)
C7F C 0.28045(15) 0.3726(3) 0.8826(6)
H4F H 0.3074 0.4266 0.9078
C8A C -0.05192(18) 0.4852(4) 0.2915(6)
C9A C -0.09774(16) 0.2748(4) 0.3375(7)
H5A H -0.1135 0.2036 0.3561
C10A C -0.10341(19) 0.4810(4) 0.3303(7)
H6A H -0.1221 0.5497 0.3387
C11F C 0.29025(15) 0.2089(4) 1.3283(6)
H7F H 0.3100 0.2086 1.4447
C12A C -0.0247(2) 0.5944(4) 0.2720(7)
C13A C -0.12590(19) 0.3764(4) 0.3555(8)
H8A H -0.1598 0.3728 0.3844
loop_
_geom_bond_atom_site_label_1
_geom_bond_atom_site_label_2
_geom_bond_site_symmetry_1
_geom_bond_site_symmetry_2
Cd1 O1 1_555 1_555
O1 C6 1_555 1_555
O2 C4 1_555 1_555
N1 Cd1 1_555 1_555
O3 C6 1_555 1_555
C1 C4 1_555 1_555
C2 H1 1_555 1_555
C3 N1 1_555 1_555
C4 C11 1_555 1_555
C5 O2 1_555 1_555
H2 C5 1_555 1_555
H3 C5 1_555 1_555
C6 C5 1_555 1_555
C7 C1 1_555 1_555
H4 C7 1_555 1_555
C8 C3 1_555 1_555
C9 N1 1_555 1_555
H5 C9 1_555 1_555
C10 C8 1_555 1_555
H6 C10 1_555 1_555
C11 H7 1_555 1_555
C12 C8 1_555 1_555
C13 C9 1_555 1_555
H8 C13 1_555 1_555
Cd1D O3 1_555 1_555
Cd1F O1F 1_555 1_555
Cd1B O3F 1_555 1_555
O1F C6F 1_555 1_555
O1A Cd1 1_555 1_555
O2F C4F 1_555 1_555
N1A Cd1 1_555 1_555
O3F C6F 1_555 1_555
O3D Cd1 1_555 1_555
O3E Cd1 1_555 1_555
C1F C1 1_555 1_555
C2F C11 1_555 1_555
H1F C2F 1_555 1_555
C3A C3 1_555 1_555
C4F C1F 1_555 1_555
C5F O2F 1_555 1_555
H2F C5F 1_555 1_555
H3F C5F 1_555 1_555
C6F C5F 1_555 1_555
C7F C1F 1_555 1_555
H4F C7F 1_555 1_555
C8A C3A 1_555 1_555
C9A N1A 1_555 1_555
H5A C9A 1_555 1_555
C10A C8A 1_555 1_555
H6A C10A 1_555 1_555
C11F C2 1_555 1_555
H7F C11F 1_555 1_555
C12A C12 1_555 1_555
C13A C9A 1_555 1_555
H8A C13A 1_555 1_555
C2 C7 1_555 1_555
C10 C13 1_555 1_555
N1A C3A 1_555 1_555
C2F C7F 1_555 1_555
C4F C11F 1_555 1_555
C8A C12A 1_555 1_555
C10A C13A 1_555 1_555

#END
