
#######################################################################
#
#                 Cambridge Crystallographic Data Centre
#                                CCDC 
#
#######################################################################
#
# If this CIF has been generated from an entry in the Cambridge 
# Structural Database, then it will include bibliographic, chemical, 
# crystal, experimental, refinement or atomic coordinate data resulting 
# from the CCDC's data processing and validation procedures.
#
#######################################################################

data_QAVDOG
_symmetry_cell_setting           orthorhombic
_symmetry_space_group_name_H-M   'F d d 2'
_symmetry_Int_Tables_number      43
_space_group_name_Hall           'F 2 -2d'
loop_
_symmetry_equiv_pos_site_id
_symmetry_equiv_pos_as_xyz
1 x,y,z
2 -x,-y,z
3 1/4-x,1/4+y,1/4+z
4 1/4+x,1/4-y,1/4+z
5 x,1/2+y,1/2+z
6 -x,1/2-y,1/2+z
7 1/4-x,3/4+y,3/4+z
8 1/4+x,3/4-y,3/4+z
9 1/2+x,y,1/2+z
10 1/2-x,-y,1/2+z
11 3/4-x,1/4+y,3/4+z
12 3/4+x,1/4-y,3/4+z
13 1/2+x,1/2+y,z
14 1/2-x,1/2-y,z
15 3/4-x,3/4+y,1/4+z
16 3/4+x,3/4-y,1/4+z
_cell_length_a                   18.267(5)
_cell_length_b                   22.482(7)
_cell_length_c                   6.392(3)
_cell_angle_alpha                90
_cell_angle_beta                 90
_cell_angle_gamma                90
_cell_volume                     2625.06
loop_
_atom_site_label
_atom_site_type_symbol
_atom_site_fract_x
_atom_site_fract_y
_atom_site_fract_z
Cu1 Cu 0.38614(5) 0.08108(4) 0.50468(16)
S1 S 0.5000 0.0000 0.2857(4)
O1 O 0.4801(2) 0.10688(19) 0.6051(10)
O2 O 0.4033(3) 0.3016(2) 0.5865(9)
O3 O 0.4342(3) 0.00598(19) 0.4171(11)
O4 O 0.4901(3) -0.0534(2) 0.1549(11)
N1 N 0.5154(3) 0.2549(2) 0.6487(12)
H1 H 0.5420 0.2855 0.6754
N2 N 0.5420(3) 0.1963(2) 0.6438(10)
N3 N 0.4233(3) 0.1985(2) 0.5965(10)
N4 N 0.3554(3) 0.1715(2) 0.5509(11)
H2 H 0.3238 0.1753 0.6582
H3 H 0.3351 0.1870 0.4347
C1 C 0.4841(4) 0.1630(3) 0.6153(12)
C2 C 0.4431(4) 0.2575(3) 0.6064(11)
O3A O 0.5658(3) -0.00598(19) 0.4171(11)
O4A O 0.5099(3) 0.0534(2) 0.1549(11)
O1N O 0.2699(2) -0.14312(19) 0.8551(10)
O2N O 0.3467(3) 0.0516(2) 0.8365(9)
N1N N 0.2346(3) 0.0049(2) 0.8987(12)
H1N H 0.2080 0.0355 0.9254
N2N N 0.2080(3) -0.0537(2) 0.8938(10)
N3N N 0.3267(3) -0.0515(2) 0.8465(10)
N4N N 0.3946(3) -0.0785(2) 0.8009(11)
H2N H 0.4262 -0.0747 0.9082
H3N H 0.4149 -0.0630 0.6847
C1N C 0.2659(4) -0.0870(3) 0.8653(12)
C2N C 0.3069(4) 0.0075(3) 0.8564(11)
Cu1N Cu 0.36386(5) -0.16892(4) 0.75468(16)
N2K N 0.2920(3) 0.0537(2) 0.3938(10)
Cu1J Cu 0.36386(5) 0.33108(4) 0.25468(16)
Cu1C Cu 0.63614(5) 0.16892(4) 0.75468(16)
Cu1A Cu 0.61386(5) -0.08108(4) 0.50468(16)
Cu1I Cu 0.11386(5) -0.08108(4) 1.00468(16)
O2D O 0.4033(3) -0.1984(2) 1.0865(9)
O3N O 0.3158(3) -0.24402(19) 0.6671(11)
N2A N 0.4580(3) -0.1963(2) 0.6438(10)
O5 O 0.3445(3) -0.1103(3) 0.3745(12)
H4 H 0.311(4) -0.134(4) 0.356(17)
H5 H 0.358(6) -0.100(5) 0.256(9)
loop_
_geom_bond_atom_site_label_1
_geom_bond_atom_site_label_2
_geom_bond_site_symmetry_1
_geom_bond_site_symmetry_2
Cu1 O1 1_555 1_555
S1 O3 1_555 1_555
O1 C1 1_555 1_555
O2 C2 1_555 1_555
O3 Cu1 1_555 1_555
O4 S1 1_555 1_555
N1 H1 1_555 1_555
N2 N1 1_555 1_555
N3 N4 1_555 1_555
N4 Cu1 1_555 1_555
H2 N4 1_555 1_555
H3 N4 1_555 1_555
C1 N2 1_555 1_555
C2 N1 1_555 1_555
O5 H4 1_555 1_555
H5 O5 1_555 1_555
O3A S1 1_555 1_555
O4A S1 1_555 1_555
O1N C1N 1_555 1_555
O2N Cu1 1_555 1_555
N1N H1N 1_555 1_555
N2N N1N 1_555 1_555
N3N N4N 1_555 1_555
N4N H2N 1_555 1_555
H3N N4N 1_555 1_555
C1N N2N 1_555 1_555
C2N O2N 1_555 1_555
Cu1N O1N 1_555 1_555
N2K Cu1 1_555 1_555
Cu1J O2 1_555 1_555
Cu1C N2 1_555 1_555
Cu1A O3A 1_555 1_555
Cu1I N2N 1_555 1_555
O2D Cu1N 1_555 1_555
O3N Cu1N 1_555 1_555
N2A Cu1N 1_555 1_555
N3 C2 1_555 1_555
N3 C1 1_555 1_555
N1N C2N 1_555 1_555
N3N C2N 1_555 1_555
N3N C1N 1_555 1_555
N4N Cu1N 1_555 1_555

#END
