
#######################################################################
#
#                 Cambridge Crystallographic Data Centre
#                                CCDC 
#
#######################################################################
#
# If this CIF has been generated from an entry in the Cambridge 
# Structural Database, then it will include bibliographic, chemical, 
# crystal, experimental, refinement or atomic coordinate data resulting 
# from the CCDC's data processing and validation procedures.
#
#######################################################################

data_QAVDOI
_symmetry_cell_setting           orthorhombic
_symmetry_space_group_name_H-M   'P n a 21'
_symmetry_Int_Tables_number      33
_space_group_name_Hall           'P 2c -2n'
loop_
_symmetry_equiv_pos_site_id
_symmetry_equiv_pos_as_xyz
1 x,y,z
2 -x,-y,1/2+z
3 1/2-x,1/2+y,1/2+z
4 1/2+x,1/2-y,z
_cell_length_a                   14.381(5)
_cell_length_b                   23.168(5)
_cell_length_c                   13.654(5)
_cell_angle_alpha                90
_cell_angle_beta                 90
_cell_angle_gamma                90
_cell_volume                     4549.23
loop_
_atom_site_label
_atom_site_type_symbol
_atom_site_fract_x
_atom_site_fract_y
_atom_site_fract_z
Zn1 Zn 0.02368(5) -0.27281(3) 0.18322(5)
Zn2 Zn 0.71841(5) -0.71715(3) 0.25183(5)
O1 O -0.1108(3) -0.73419(16) 0.4124(3)
O2 O 0.0045(3) -0.22109(16) 0.0570(3)
O3 O 0.0947(3) -0.34176(17) 0.1116(3)
O4 O 0.2487(3) -0.40510(17) 0.1150(4)
O5 O 0.6424(3) -0.65250(19) 0.3504(3)
O6 O 0.4764(3) -0.59667(16) 0.2748(4)
O7 O -0.1091(3) -0.30334(15) 0.1738(3)
O8 O -0.2259(3) -0.39655(17) 0.1743(4)
O9 O -0.0153(3) -0.60437(18) 0.3064(3)
C1 C 0.3219(4) -0.4849(2) 0.1846(5)
O10 O -0.1444(3) -0.28232(17) 0.0195(3)
O11 O 0.7394(3) -0.78385(16) 0.3522(3)
O12 O -0.1503(3) -0.68608(16) 0.2766(3)
C2 C -0.0198(5) -0.6539(3) 0.3694(6)
H1 H -0.0232 -0.6406 0.4367
H2 H 0.0376 -0.6755 0.3624
C3 C 0.3966(4) -0.5655(2) 0.2653(5)
N1 N 0.7173(3) -0.7708(2) 0.1242(4)
O13 O 0.1773(3) -0.26625(18) 0.1523(3)
N2 N 0.0282(3) -0.2019(2) 0.2822(4)
N3 N 0.0336(3) -0.3155(2) 0.3225(4)
C4 C 0.1713(5) -0.3165(3) 0.1180(4)
O14 O 0.5699(3) -0.72075(18) 0.2694(3)
N4 N 0.7151(4) -0.6552(2) 0.1351(4)
C5 C -0.1528(4) -0.4354(2) 0.1686(5)
C6 C -0.0835(5) -0.5634(2) 0.3163(5)
C7 C -0.1518(4) -0.4771(2) 0.2436(5)
C8 C 0.2383(4) -0.5415(3) 0.3023(5)
H3 H 0.1840 -0.5493 0.3368
C9 C 0.0357(4) -0.2790(3) 0.3989(5)
C10 C 0.7126(5) -0.6453(3) -0.0416(5)
C11 C 0.5693(5) -0.6758(3) 0.3180(5)
C12 C 0.4065(5) -0.4274(3) 0.0665(5)
H4 H 0.4090 -0.3965 0.0230
C13 C 0.4013(4) -0.5198(2) 0.1975(5)
C14 C 0.7133(4) -0.6788(3) 0.0438(4)
C15 C 0.3282(4) -0.4378(2) 0.1196(5)
C16 C 0.4817(5) -0.5086(2) 0.1427(5)
H5 H 0.5339 -0.5319 0.1504
C17 C -0.0813(4) -0.5198(2) 0.2421(5)
C18 C -0.1547(4) -0.3095(2) 0.0969(5)
C19 C -0.1003(4) -0.6944(2) 0.3511(4)
C20 C -0.0868(5) -0.4356(3) 0.0969(5)
H6 H -0.0890 -0.4085 0.0467
C21 C 0.4762(4) -0.6458(3) 0.3360(5)
H7 H 0.4250 -0.6713 0.3193
H8 H 0.4703 -0.6347 0.4041
C22 C -0.0144(4) -0.5178(2) 0.1689(5)
H9 H 0.0325 -0.5454 0.1677
C23 C 0.2396(4) -0.4969(2) 0.2373(5)
H10 H 0.1867 -0.4745 0.2278
C24 C -0.2191(5) -0.4769(3) 0.3190(5)
H11 H -0.2655 -0.4489 0.3205
C25 C 0.4836(5) -0.4639(3) 0.0783(5)
H12 H 0.5369 -0.4575 0.0413
C26 C 0.2579(5) -0.3463(3) 0.0844(5)
H13 H 0.2637 -0.3439 0.0138
H14 H 0.3123 -0.3288 0.1140
C27 C 0.0335(4) -0.2180(3) 0.3764(5)
C28 C 0.0267(4) -0.1466(3) 0.2609(5)
H15 H 0.0225 -0.1357 0.1954
C29 C -0.2335(5) -0.3546(3) 0.0986(5)
H16 H -0.2923 -0.3346 0.1060
H17 H -0.2347 -0.3744 0.0360
C30 C 0.3170(4) -0.5761(2) 0.3184(5)
H18 H 0.3154 -0.6058 0.3642
C31 C 0.7172(4) -0.5980(3) 0.1419(5)
H19 H 0.7185 -0.5816 0.2041
C32 C 0.7117(5) -0.7314(4) -0.1408(6)
H20 H 0.7123 -0.7488 -0.2021
C33 C 0.7133(4) -0.7412(3) 0.0386(5)
C34 C 0.7078(5) -0.8271(4) -0.0570(7)
H21 H 0.7045 -0.8463 -0.1167
C35 C 0.7106(5) -0.7664(3) -0.0545(5)
C36 C -0.2146(5) -0.5187(3) 0.3897(5)
H22 H -0.2578 -0.5181 0.4403
C37 C 0.0416(5) -0.2983(4) 0.4980(6)
C38 C -0.0163(5) -0.4765(3) 0.0994(5)
H23 H 0.0303 -0.4753 0.0523
C39 C -0.1476(5) -0.5619(3) 0.3885(5)
H24 H -0.1470 -0.5898 0.4375
C40 C 0.0433(5) -0.2536(4) 0.5718(6)
H25 H 0.0466 -0.2646 0.6372
C41 C 0.7147(5) -0.8275(3) 0.1196(6)
H26 H 0.7161 -0.8486 0.1775
C42 C 0.0372(5) -0.1758(4) 0.4536(5)
C43 C 0.0312(5) -0.1033(3) 0.3319(7)
H27 H 0.0299 -0.0647 0.3135
C44 C 0.0358(5) -0.3714(3) 0.3403(6)
H28 H 0.0343 -0.3967 0.2874
C45 C 0.0403(6) -0.3944(4) 0.4348(7)
H29 H 0.0406 -0.4341 0.4450
C46 C 0.7099(5) -0.8577(4) 0.0280(7)
H30 H 0.7083 -0.8979 0.0267
C47 C 0.7175(5) -0.5615(3) 0.0620(6)
H31 H 0.7201 -0.5217 0.0704
C48 C 0.0404(5) -0.1974(5) 0.5513(6)
H32 H 0.0406 -0.1712 0.6028
C49 C 0.7119(5) -0.6730(4) -0.1338(5)
H33 H 0.7117 -0.6508 -0.1906
C50 C 0.0372(5) -0.1175(3) 0.4261(7)
H34 H 0.0414 -0.0888 0.4735
C51 C 0.7139(5) -0.5850(3) -0.0294(6)
H35 H 0.7124 -0.5610 -0.0840
C52 C 0.0442(6) -0.3577(4) 0.5097(7)
H36 H 0.0489 -0.3727 0.5728
Zn2_2 Zn -0.28159(5) -0.71715(3) 0.25183(5)
O12_2 O 0.8497(3) -0.68608(16) 0.2766(3)
loop_
_geom_bond_atom_site_label_1
_geom_bond_atom_site_label_2
_geom_bond_site_symmetry_1
_geom_bond_site_symmetry_2
Zn1 O2 1_555 1_555
Zn2 O5 1_555 1_555
O1 C19 1_555 1_555
O3 Zn1 1_555 1_555
O4 C15 1_555 1_555
O5 C11 1_555 1_555
O6 C3 1_555 1_555
O7 Zn1 1_555 1_555
O8 C5 1_555 1_555
O9 C2 1_555 1_555
C1 C13 1_555 1_555
O10 C18 1_555 1_555
O11 Zn2 1_555 1_555
O12 C19 1_555 1_555
C2 H1 1_555 1_555
H2 C2 1_555 1_555
C3 C13 1_555 1_555
N1 Zn2 1_555 1_555
O13 Zn1 1_555 1_555
N2 Zn1 1_555 1_555
N3 Zn1 1_555 1_555
C4 O3 1_555 1_555
O14 Zn2 1_555 1_555
N4 Zn2 1_555 1_555
C5 C7 1_555 1_555
C6 O9 1_555 1_555
C7 C17 1_555 1_555
C8 H3 1_555 1_555
C9 N3 1_555 1_555
C10 C14 1_555 1_555
C11 O14 1_555 1_555
C12 H4 1_555 1_555
C13 C16 1_555 1_555
C14 N4 1_555 1_555
C15 C1 1_555 1_555
C16 H5 1_555 1_555
C17 C6 1_555 1_555
C18 O7 1_555 1_555
C19 C2 1_555 1_555
C20 C5 1_555 1_555
H6 C20 1_555 1_555
C21 O6 1_555 1_555
H7 C21 1_555 1_555
H8 C21 1_555 1_555
C22 C17 1_555 1_555
H9 C22 1_555 1_555
C23 C1 1_555 1_555
H10 C23 1_555 1_555
C24 C7 1_555 1_555
H11 C24 1_555 1_555
C25 C12 1_555 1_555
H12 C25 1_555 1_555
C26 O4 1_555 1_555
H13 C26 1_555 1_555
H14 C26 1_555 1_555
C27 N2 1_555 1_555
C28 N2 1_555 1_555
H15 C28 1_555 1_555
C29 O8 1_555 1_555
H16 C29 1_555 1_555
H17 C29 1_555 1_555
C30 C3 1_555 1_555
H18 C30 1_555 1_555
C31 N4 1_555 1_555
H19 C31 1_555 1_555
C32 H20 1_555 1_555
C33 N1 1_555 1_555
C34 H21 1_555 1_555
C35 C32 1_555 1_555
C36 C24 1_555 1_555
H22 C36 1_555 1_555
C37 C9 1_555 1_555
C38 C20 1_555 1_555
H23 C38 1_555 1_555
C39 C6 1_555 1_555
H24 C39 1_555 1_555
C40 C37 1_555 1_555
H25 C40 1_555 1_555
C41 N1 1_555 1_555
H26 C41 1_555 1_555
C42 C27 1_555 1_555
C43 C28 1_555 1_555
H27 C43 1_555 1_555
C44 N3 1_555 1_555
H28 C44 1_555 1_555
C45 C44 1_555 1_555
H29 C45 1_555 1_555
C46 C34 1_555 1_555
H30 C46 1_555 1_555
C47 C31 1_555 1_555
H31 C47 1_555 1_555
C48 C40 1_555 1_555
H32 C48 1_555 1_555
C49 C10 1_555 1_555
H33 C49 1_555 1_555
C50 C42 1_555 1_555
H34 C50 1_555 1_555
C51 C10 1_555 1_555
H35 C51 1_555 1_555
C52 C37 1_555 1_555
H36 C52 1_555 1_555
Zn2_2 O12 1_555 1_555
O12_2 Zn2 1_555 1_555
O13 C4 1_555 1_555
C4 C26 1_555 1_555
C8 C23 1_555 1_555
C8 C30 1_555 1_555
C9 C27 1_555 1_555
C11 C21 1_555 1_555
C12 C15 1_555 1_555
C14 C33 1_555 1_555
C16 C25 1_555 1_555
C18 C29 1_555 1_555
C22 C38 1_555 1_555
C32 C49 1_555 1_555
C33 C35 1_555 1_555
C34 C35 1_555 1_555
C36 C39 1_555 1_555
C41 C46 1_555 1_555
C42 C48 1_555 1_555
C43 C50 1_555 1_555
C45 C52 1_555 1_555
C47 C51 1_555 1_555

#END
