
#######################################################################
#
#                 Cambridge Crystallographic Data Centre
#                                CCDC 
#
#######################################################################
#
# If this CIF has been generated from an entry in the Cambridge 
# Structural Database, then it will include bibliographic, chemical, 
# crystal, experimental, refinement or atomic coordinate data resulting 
# from the CCDC's data processing and validation procedures.
#
#######################################################################

data_QAVFEA01
_symmetry_cell_setting           monoclinic
_symmetry_space_group_name_H-M   'P 21/c'
_symmetry_Int_Tables_number      14
_space_group_name_Hall           '-P 2ybc'
loop_
_symmetry_equiv_pos_site_id
_symmetry_equiv_pos_as_xyz
1 x,y,z
2 -x,1/2+y,1/2-z
3 -x,-y,-z
4 x,1/2-y,1/2+z
_cell_length_a                   14.429(5)
_cell_length_b                   19.984(7)
_cell_length_c                   8.724(3)
_cell_angle_alpha                90
_cell_angle_beta                 95.681(9)
_cell_angle_gamma                90
_cell_volume                     2503.2
loop_
_atom_site_label
_atom_site_type_symbol
_atom_site_fract_x
_atom_site_fract_y
_atom_site_fract_z
C1 C 0.9204(5) 0.0988(4) 1.1166(9)
H1 H 0.8803 0.1058 1.1923
C2 C 0.3732(5) 0.1174(4) 1.0057(9)
C3 C 0.3117(5) -0.1467(4) 0.4725(10)
H2 H 0.2637 -0.1199 0.5011
C4 C 0.5135(5) 0.0111(4) 0.7564(8)
C5 C 0.6208(5) 0.0767(4) 0.9247(8)
C6 C 0.4563(5) 0.0904(4) 0.9319(8)
C7 C 0.2583(5) 0.1672(4) 1.2499(9)
H3 H 0.2682 0.1213 1.2600
C8 C 0.5463(5) 0.1068(4) 0.9866(8)
H4 H 0.5571 0.1381 1.0653
C9 C 0.4396(5) 0.0422(4) 0.8186(9)
H5 H 0.3787 0.0306 0.7839
C10 C 0.1764(6) 0.2605(4) 1.3087(10)
H6 H 0.1271 0.2795 1.3545
C11 C 0.8833(5) 0.0873(4) 0.9645(9)
C12 C 0.6039(5) 0.0298(4) 0.8089(9)
H7 H 0.6538 0.0105 0.7653
C13 C 0.3060(6) 0.2733(4) 1.1650(10)
H8 H 0.3460 0.3002 1.1146
C14 C 0.7161(5) 0.0893(4) 1.0055(9)
C15 C 0.4024(6) -0.1339(4) 0.5297(9)
C16 C 0.3177(5) 0.2048(4) 1.1678(9)
C17 C 1.0693(5) 0.0889(4) 1.0483(10)
H9 H 1.1330 0.0881 1.0779
C18 C 0.5046(5) -0.0461(4) 0.6453(9)
C19 C 0.3660(6) -0.2386(5) 0.3382(11)
H10 H 0.3540 -0.2729 0.2672
C20 C 0.2925(6) -0.1993(4) 0.3732(11)
H11 H 0.2320 -0.2081 0.3311
C21 C 1.0378(6) 0.0789(5) 0.8967(10)
H12 H 1.0796 0.0726 0.8235
C22 C 0.2353(6) 0.3016(4) 1.2368(10)
H13 H 0.2272 0.3478 1.2370
C23 C 0.4701(6) -0.1789(4) 0.4936(11)
H14 H 0.5309 -0.1727 0.5378
C24 C 0.9443(6) 0.0784(4) 0.8545(9)
H15 H 0.9218 0.0721 0.7519
Hg1 Hg 1.06949(2) 0.124129(17) 1.41460(4)
I1 I 0.95048(5) 0.21131(4) 1.50718(8)
I2 I 1.17166(5) 0.01927(3) 1.51418(8)
N1 N 1.0106(4) 0.0997(3) 1.1541(7)
N2 N 0.7876(4) 0.0837(4) 0.9179(7)
H16 H 0.7726 0.0770 0.8212
N3 N 0.3885(4) 0.1744(3) 1.0907(8)
H17 H 0.4429 0.1924 1.0975
N4 N 0.4224(4) -0.0790(3) 0.6279(8)
H18 H 0.3790 -0.0654 0.6812
N5 N 0.4525(5) -0.2301(4) 0.3997(10)
N6 N 0.1875(4) 0.1950(3) 1.3146(7)
O1 O 0.7248(4) 0.1016(4) 1.1425(7)
O2 O 0.5713(4) -0.0626(3) 0.5787(7)
O3 O 0.2993(3) 0.0878(3) 0.9917(7)
Hg1_2 Hg 0.06949(2) 0.124129(17) 1.41460(4)
N6_2 N 1.1875(4) 0.1950(3) 1.3146(7)
loop_
_geom_bond_atom_site_label_1
_geom_bond_atom_site_label_2
_geom_bond_site_symmetry_1
_geom_bond_site_symmetry_2
C1 H1 1_555 1_555
C2 C6 1_555 1_555
C3 H2 1_555 1_555
C4 C9 1_555 1_555
C5 C8 1_555 1_555
C6 C8 1_555 1_555
C7 H3 1_555 1_555
C8 H4 1_555 1_555
C9 C6 1_555 1_555
H5 C9 1_555 1_555
C10 H6 1_555 1_555
C11 C1 1_555 1_555
C12 C4 1_555 1_555
H7 C12 1_555 1_555
C13 H8 1_555 1_555
C14 C5 1_555 1_555
C15 C3 1_555 1_555
C16 C7 1_555 1_555
C17 H9 1_555 1_555
C18 C4 1_555 1_555
C19 H10 1_555 1_555
C20 C3 1_555 1_555
H11 C20 1_555 1_555
C21 C17 1_555 1_555
H12 C21 1_555 1_555
C22 C10 1_555 1_555
H13 C22 1_555 1_555
C23 C15 1_555 1_555
H14 C23 1_555 1_555
C24 C11 1_555 1_555
H15 C24 1_555 1_555
Hg1 I1 1_555 1_555
I2 Hg1 1_555 1_555
N1 C1 1_555 1_555
N2 C11 1_555 1_555
H16 N2 1_555 1_555
N3 C2 1_555 1_555
H17 N3 1_555 1_555
N4 C15 1_555 1_555
H18 N4 1_555 1_555
N5 C19 1_555 1_555
N6 C7 1_555 1_555
O1 C14 1_555 1_555
O2 C18 1_555 1_555
O3 C2 1_555 1_555
Hg1_2 N6 1_555 1_555
N6_2 Hg1 1_555 1_555
C5 C12 1_555 1_555
C10 N6 1_555 1_555
C13 C16 1_555 1_555
C13 C22 1_555 1_555
C14 N2 1_555 1_555
C16 N3 1_555 1_555
C17 N1 1_555 1_555
C18 N4 1_555 1_555
C19 C20 1_555 1_555
C21 C24 1_555 1_555
C23 N5 1_555 1_555
Hg1 N1 1_555 1_555

#END
