
#######################################################################
#
#                 Cambridge Crystallographic Data Centre
#                                CCDC 
#
#######################################################################
#
# If this CIF has been generated from an entry in the Cambridge 
# Structural Database, then it will include bibliographic, chemical, 
# crystal, experimental, refinement or atomic coordinate data resulting 
# from the CCDC's data processing and validation procedures.
#
#######################################################################

data_QAVFEA
_symmetry_cell_setting           monoclinic
_symmetry_space_group_name_H-M   'P 21/c'
_symmetry_Int_Tables_number      14
_space_group_name_Hall           '-P 2ybc'
loop_
_symmetry_equiv_pos_site_id
_symmetry_equiv_pos_as_xyz
1 x,y,z
2 -x,1/2+y,1/2-z
3 -x,-y,-z
4 x,1/2-y,1/2+z
_cell_length_a                   14.469(3)
_cell_length_b                   20.049(4)
_cell_length_c                   8.7359(17)
_cell_angle_alpha                90
_cell_angle_beta                 95.31(3)
_cell_angle_gamma                90
_cell_volume                     2523.31
loop_
_atom_site_label
_atom_site_type_symbol
_atom_site_fract_x
_atom_site_fract_y
_atom_site_fract_z
Hg1 Hg 0.931130(16) 0.123949(12) 0.08508(3)
I1 I 0.82842(3) 0.01930(2) -0.01293(6)
I2 I 1.05048(3) 0.21090(2) -0.00750(6)
O1 O 0.7004(3) 0.08796(19) 0.5078(5)
O2 O 0.2753(3) 0.1018(3) 0.3568(5)
O3 O 0.4285(3) -0.0631(2) 0.9217(5)
N1 N 0.8125(3) 0.1952(2) 0.1841(5)
N2 N 0.6126(3) 0.1743(2) 0.4097(5)
H1 H 0.5584 0.1922 0.4036
N3 N 0.2122(3) 0.0836(3) 0.5812(6)
H2 H 0.2267 0.0767 0.6776
N4 N -0.0115(3) 0.0999(2) 0.3447(5)
N5 N 0.5774(3) -0.0787(2) 0.8713(6)
H3 H 0.6208 -0.0650 0.8180
N6 N 0.5471(4) -0.2299(3) 1.1021(8)
C1 C 0.8246(4) 0.2607(3) 0.1912(7)
H4 H 0.8741 0.2799 0.1465
C2 C 0.7648(4) 0.3009(3) 0.2637(7)
H5 H 0.7727 0.3470 0.2637
C3 C 0.6942(4) 0.2734(3) 0.3356(7)
H6 H 0.6546 0.3003 0.3865
C4 C 0.6824(4) 0.2050(3) 0.3317(6)
C5 C 0.7420(4) 0.1680(3) 0.2494(6)
H7 H 0.7322 0.1223 0.2394
C6 C 0.6270(4) 0.1176(3) 0.4940(6)
C7 C 0.5444(3) 0.0908(3) 0.5678(6)
C8 C 0.4538(3) 0.1069(3) 0.5143(6)
H8 H 0.4429 0.1386 0.4369
C9 C 0.3791(3) 0.0762(3) 0.5753(6)
C10 C 0.3962(4) 0.0298(3) 0.6916(6)
H9 H 0.3466 0.0106 0.7362
C11 C 0.4862(4) 0.0112(3) 0.7427(6)
C12 C 0.5606(4) 0.0422(3) 0.6814(6)
H10 H 0.6211 0.0305 0.7163
C13 C 0.2840(4) 0.0893(3) 0.4938(7)
C14 C 0.1163(4) 0.0878(3) 0.5343(7)
C15 C 0.0557(4) 0.0781(3) 0.6452(7)
H11 H 0.0782 0.0713 0.7472
C16 C -0.0392(4) 0.0785(3) 0.6032(7)
H12 H -0.0814 0.0716 0.6758
C17 C -0.0691(4) 0.0894(3) 0.4516(7)
H13 H -0.1326 0.0894 0.4225
C18 C 0.0803(4) 0.0995(3) 0.3845(7)
H14 H 0.1207 0.1072 0.3095
C19 C 0.4946(4) -0.0461(3) 0.8543(6)
C20 C 0.5970(4) -0.1334(3) 0.9699(7)
C21 C 0.6873(4) -0.1463(3) 1.0265(7)
H15 H 0.7354 -0.1196 0.9978
C22 C 0.7061(4) -0.1995(3) 1.1266(8)
H16 H 0.7665 -0.2084 1.1675
C23 C 0.6340(5) -0.2384(3) 1.1633(8)
H17 H 0.6462 -0.2724 1.2346
C24 C 0.5299(4) -0.1784(3) 1.0086(9)
H18 H 0.4692 -0.1720 0.9662
Hg1_2 Hg -0.068870(16) 0.123949(12) 0.08508(3)
N4_2 N 0.9885(3) 0.0999(2) 0.3447(5)
loop_
_geom_bond_atom_site_label_1
_geom_bond_atom_site_label_2
_geom_bond_site_symmetry_1
_geom_bond_site_symmetry_2
Hg1 I1 1_555 1_555
I2 Hg1 1_555 1_555
O1 C6 1_555 1_555
O2 C13 1_555 1_555
O3 C19 1_555 1_555
N1 Hg1 1_555 1_555
N2 H1 1_555 1_555
N3 H2 1_555 1_555
N4 C17 1_555 1_555
N5 H3 1_555 1_555
N6 C23 1_555 1_555
C1 N1 1_555 1_555
H4 C1 1_555 1_555
C2 C1 1_555 1_555
H5 C2 1_555 1_555
C3 C2 1_555 1_555
H6 C3 1_555 1_555
C4 N2 1_555 1_555
C5 N1 1_555 1_555
H7 C5 1_555 1_555
C6 N2 1_555 1_555
C7 C6 1_555 1_555
C8 C7 1_555 1_555
H8 C8 1_555 1_555
C9 C8 1_555 1_555
C10 C9 1_555 1_555
H9 C10 1_555 1_555
C11 C10 1_555 1_555
C12 C7 1_555 1_555
H10 C12 1_555 1_555
C13 N3 1_555 1_555
C14 N3 1_555 1_555
C15 C14 1_555 1_555
H11 C15 1_555 1_555
C16 C15 1_555 1_555
H12 C16 1_555 1_555
C17 C16 1_555 1_555
H13 C17 1_555 1_555
C18 N4 1_555 1_555
H14 C18 1_555 1_555
C19 N5 1_555 1_555
C20 N5 1_555 1_555
C21 C20 1_555 1_555
H15 C21 1_555 1_555
C22 C21 1_555 1_555
H16 C22 1_555 1_555
C23 C22 1_555 1_555
H17 C23 1_555 1_555
C24 N6 1_555 1_555
H18 C24 1_555 1_555
Hg1_2 N4 1_555 1_555
N4_2 Hg1 1_555 1_555
C3 C4 1_555 1_555
C4 C5 1_555 1_555
C9 C13 1_555 1_555
C11 C12 1_555 1_555
C11 C19 1_555 1_555
C14 C18 1_555 1_555
C20 C24 1_555 1_555

#END
