
#######################################################################
#
#                 Cambridge Crystallographic Data Centre
#                                CCDC 
#
#######################################################################
#
# If this CIF has been generated from an entry in the Cambridge 
# Structural Database, then it will include bibliographic, chemical, 
# crystal, experimental, refinement or atomic coordinate data resulting 
# from the CCDC's data processing and validation procedures.
#
#######################################################################

data_QAVFOK
_symmetry_cell_setting           triclinic
_symmetry_space_group_name_H-M   'P -1'
_symmetry_Int_Tables_number      2
_space_group_name_Hall           '-P 1'
loop_
_symmetry_equiv_pos_site_id
_symmetry_equiv_pos_as_xyz
1 x,y,z
2 -x,-y,-z
_cell_length_a                   20.0534(3)
_cell_length_b                   24.1087(1)
_cell_length_c                   24.2218(1)
_cell_angle_alpha                117.760(4)
_cell_angle_beta                 98.364(7)
_cell_angle_gamma                96.981(5)
_cell_volume                     10009.8
loop_
_atom_site_label
_atom_site_type_symbol
_atom_site_fract_x
_atom_site_fract_y
_atom_site_fract_z
Mo17 Mo 0.12000(4) 0.59301(3) 0.65765(3)
Mo18 Mo 0.15954(4) 0.60667(3) 0.53687(3)
Mo19 Mo -0.05323(4) 0.48831(3) 0.60397(3)
Mo20 Mo 0.06084(3) 0.45920(3) 0.50844(3)
Mo21 Mo 0.59413(4) 0.65307(3) 1.60559(3)
Mo22 Mo 0.67419(4) 0.54846(3) 1.61960(3)
Mo23 Mo 0.46502(4) 0.60671(3) 1.48352(3)
Mo24 Mo 0.57438(3) 0.50045(3) 1.47276(3)
Cu9 Cu 0.37619(7) 0.42856(6) 0.94354(5)
Cu10 Cu 0.08760(6) 0.34351(5) 0.57882(5)
Cu11 Cu -0.15618(7) -0.06324(5) 0.42321(6)
Cu12 Cu 0.55773(6) 0.58723(5) 1.37144(5)
O58 O 0.1926(4) 0.5799(4) 0.6902(3)
O59 O 0.1344(3) 0.6638(3) 0.5216(3)
O60 O 0.1386(3) 0.5251(3) 0.5515(3)
O61 O 0.1376(4) 0.6443(3) 0.6216(3)
O62 O -0.0448(3) 0.4251(3) 0.6129(3)
O63 O 0.0474(3) 0.5191(3) 0.6128(3)
O64 O -0.0643(3) 0.5452(3) 0.6756(3)
O65 O 0.0605(3) 0.4310(2) 0.4287(3)
O66 O 0.0907(4) 0.6423(3) 0.7213(3)
O67 O 0.1452(3) 0.5404(2) 0.4475(3)
O68 O 0.2471(3) 0.6255(3) 0.5557(3)
O69 O 0.0360(3) 0.5490(2) 0.4944(2)
O70 O 0.0813(3) 0.3995(3) 0.5217(3)
O71 O 0.6751(3) 0.5177(3) 1.6699(3)
O72 O 0.7547(3) 0.5971(3) 1.6440(3)
O73 O 0.7251(3) 0.4777(3) 1.5546(3)
H12 H 0.7053 0.4647 1.5174
O74 O 0.4151(3) 0.6537(3) 1.5275(3)
O75 O 0.6705(3) 0.7047(3) 1.6283(3)
O76 O 0.4589(4) 0.6159(3) 1.4171(3)
O77 O 0.5377(3) 0.5323(2) 1.4270(2)
O78 O 0.5552(3) 0.6564(2) 1.5303(3)
O79 O 0.5472(3) 0.6968(3) 1.6563(3)
O80 O 0.6162(3) 0.6054(3) 1.6509(2)
O81 O 0.6243(3) 0.4532(3) 1.4292(3)
O82 O 0.5055(3) 0.5634(2) 1.5416(2)
O83 O 0.6393(3) 0.5720(2) 1.5382(2)
O84 O 0.4046(3) 0.5241(2) 1.4522(2)
N33 N 0.4543(3) 0.4733(3) 1.2783(3)
H29 H 0.4417 0.4682 1.3084
N34 N 0.5065(3) 0.5221(3) 1.2884(3)
N35 N 0.4294(4) 0.3655(4) 1.0105(3)
H30 H 0.4264 0.3312 0.9750
N36 N 0.4132(4) 0.4205(4) 1.0146(3)
N37 N 0.3325(4) 0.4533(3) 0.8875(3)
N38 N 0.3304(5) 0.5160(4) 0.9082(4)
H31 H 0.3485 0.5463 0.9467
N39 N 0.1599(4) 0.4008(3) 0.6504(3)
N40 N 0.2130(4) 0.4389(4) 0.6481(4)
H32 H 0.2151 0.4436 0.6153
N41 N 0.0223(4) 0.2687(3) 0.5184(3)
N42 N -0.0335(3) 0.2666(3) 0.4778(3)
H33 H -0.0433 0.2996 0.4761
N43 N -0.1096(4) 0.0011(3) 0.4122(3)
N44 N -0.1011(4) -0.0038(3) 0.3563(3)
H34 H -0.1133 -0.0390 0.3203
N45 N -0.2052(4) -0.0844(3) 0.5172(3)
H35 H -0.1893 -0.0445 0.5450
N46 N -0.2018(4) -0.1105(3) 0.4546(3)
N47 N 0.6857(4) 0.6633(4) 1.4682(4)
H36 H 0.6882 0.6339 1.4786
N48 N 0.6323(4) 0.6605(3) 1.4246(3)
C81 C 0.3645(5) 0.3810(4) 1.1931(4)
H133 H 0.3543 0.3775 1.2290
H134 H 0.3748 0.3416 1.1631
H135 H 0.3254 0.3893 1.1725
C82 C 0.4257(4) 0.4351(4) 1.2159(3)
C83 C 0.4591(4) 0.4581(3) 1.1826(3)
C84 C 0.5083(4) 0.5127(4) 1.2301(3)
C85 C 0.5586(5) 0.5582(5) 1.2224(4)
H136 H 0.5853 0.5910 1.2638
H137 H 0.5339 0.5775 1.2014
H138 H 0.5887 0.5352 1.1970
C86 C 0.4705(6) 0.3153(4) 1.0716(4)
H139 H 0.4671 0.2806 1.0293
H140 H 0.4404 0.3014 1.0923
H141 H 0.5172 0.3280 1.0960
C87 C 0.4500(5) 0.3710(4) 1.0673(4)
C88 C 0.4455(4) 0.4317(4) 1.1135(4)
C89 C 0.4235(5) 0.4606(4) 1.0776(4)
C90 C 0.4120(6) 0.5283(4) 1.1026(5)
H142 H 0.3971 0.5351 1.0672
H143 H 0.4544 0.5584 1.1295
H144 H 0.3773 0.5342 1.1271
C91 C 0.2913(4) 0.3521(4) 0.7859(4)
H145 H 0.3119 0.3355 0.8118
H146 H 0.3146 0.3442 0.7519
H147 H 0.2434 0.3313 0.7681
C92 C 0.2976(4) 0.4216(4) 0.8258(4)
C93 C 0.2746(5) 0.4650(4) 0.8082(4)
C94 C 0.2975(6) 0.5255(4) 0.8627(5)
C95 C 0.2866(8) 0.5904(5) 0.8746(6)
H148 H 0.3090 0.6221 0.9179
H149 H 0.2380 0.5897 0.8678
H150 H 0.3056 0.6008 0.8456
C96 C 0.1249(5) 0.3722(5) 0.7274(4)
H151 H 0.0857 0.3468 0.6922
H152 H 0.1099 0.4026 0.7634
H153 H 0.1468 0.3447 0.7390
C97 C 0.1739(5) 0.4066(4) 0.7087(4)
C98 C 0.2375(5) 0.4486(4) 0.7434(4)
C99 C 0.2619(5) 0.4686(4) 0.7024(5)
C100 C 0.3234(6) 0.5159(5) 0.7132(5)
H154 H 0.3241 0.5176 0.6744
H155 H 0.3643 0.5034 0.7254
H156 H 0.3219 0.5575 0.7467
C101 C 0.0744(6) 0.1904(5) 0.5402(6)
H157 H 0.1078 0.2286 0.5715
H158 H 0.0969 0.1613 0.5102
H159 H 0.0532 0.1703 0.5613
C102 C 0.0201(4) 0.2079(4) 0.5052(4)
C103 C -0.0383(4) 0.1683(4) 0.4569(4)
C104 C -0.0715(4) 0.2069(4) 0.4410(4)
C105 C -0.1387(5) 0.1925(4) 0.3947(4)
H160 H -0.1465 0.2313 0.3954
H161 H -0.1758 0.1754 0.4071
H162 H -0.1365 0.1617 0.3522
C106 C -0.0856(6) 0.0875(4) 0.5249(4)
H163 H -0.1047 0.0528 0.5309
H164 H -0.1127 0.1197 0.5385
H165 H -0.0390 0.1059 0.5498
C107 C -0.0862(5) 0.0631(4) 0.4561(4)
C108 C -0.0631(4) 0.0978(4) 0.4270(4)
C109 C -0.0714(5) 0.0526(4) 0.3632(4)
C110 C -0.0487(5) 0.0597(4) 0.3100(4)
H166 H -0.0624 0.0192 0.2711
H167 H 0.0007 0.0737 0.3209
H168 H -0.0697 0.0909 0.3041
C111 C -0.2457(5) -0.1077(4) 0.5962(4)
H169 H -0.2257 -0.0627 0.6236
H170 H -0.2236 -0.1319 0.6126
H171 H -0.2941 -0.1154 0.5949
C112 C -0.2358(4) -0.1276(4) 0.5309(4)
C113 C -0.2539(4) -0.1854(3) 0.4732(3)
C114 C -0.2313(4) -0.1730(4) 0.4271(4)
C115 C -0.2358(5) -0.2167(4) 0.3591(4)
H172 H -0.2158 -0.1931 0.3405
H173 H -0.2833 -0.2359 0.3372
H174 H -0.2112 -0.2497 0.3550
C116 C 0.7973(6) 0.7310(5) 1.5417(5)
H175 H 0.7960 0.6966 1.5514
H176 H 0.7997 0.7704 1.5800
H177 H 0.8371 0.7349 1.5250
C117 C 0.7330(5) 0.7170(4) 1.4926(4)
C118 C -0.2892(4) -0.2492(4) 0.4630(4)
C119 C 0.6476(5) 0.7123(4) 1.4205(4)
C120 C 0.6002(5) 0.7257(4) 1.3770(5)
H178 H 0.5611 0.6904 1.3533
H179 H 0.6242 0.7312 1.3477
H180 H 0.5849 0.7642 1.4019
Mo18A Mo -0.15954(4) 0.39333(3) 0.46313(3)
Mo19A Mo 0.05323(4) 0.51169(3) 0.39603(3)
Mo20A Mo -0.06084(3) 0.54080(3) 0.49156(3)
Mo21A Mo 0.40587(4) 0.34693(3) 1.39441(3)
Mo22A Mo 0.32581(4) 0.45154(3) 1.38040(3)
Mo23A Mo 0.53498(4) 0.39329(3) 1.51648(3)
Mo24A Mo 0.42562(3) 0.49955(3) 1.52724(3)
O60A O -0.1386(3) 0.4749(3) 0.4485(3)
O62A O 0.0448(3) 0.5749(3) 0.3871(3)
O63A O -0.0474(3) 0.4809(3) 0.3872(3)
O64A O 0.0643(3) 0.4548(3) 0.3244(3)
O65A O -0.0605(3) 0.5690(2) 0.5713(3)
O67A O -0.1452(3) 0.4596(2) 0.5525(3)
O69A O -0.0360(3) 0.4510(2) 0.5056(2)
O70A O -0.0813(3) 0.6005(3) 0.4783(3)
O71A O 0.3249(3) 0.4823(3) 1.3301(3)
O72A O 0.2453(3) 0.4029(3) 1.3560(3)
O73A O 0.2749(3) 0.5223(3) 1.4454(3)
H12A H 0.2947 0.5353 1.4826
O77A O 0.4623(3) 0.4677(2) 1.5730(2)
O80A O 0.3838(3) 0.3946(3) 1.3491(2)
O81A O 0.3757(3) 0.5468(3) 1.5708(3)
O82A O 0.4945(3) 0.4366(2) 1.4584(2)
O83A O 0.3607(3) 0.4280(2) 1.4618(2)
O84A O 0.5954(3) 0.4759(2) 1.5478(2)
N47_2 N -0.3143(4) -0.3367(4) 0.4682(4)
H36_2 H -0.3118 -0.3661 0.4786
N48_2 N -0.3677(4) -0.3395(3) 0.4246(3)
C113_2 C 0.7461(4) 0.8146(3) 1.4732(3)
C116_2 C -0.2027(6) -0.2690(5) 0.5417(5)
H175_2 H -0.2040 -0.3034 0.5514
H176_2 H -0.2003 -0.2296 0.5800
H177_2 H -0.1629 -0.2651 0.5250
C117_2 C -0.2670(5) -0.2830(4) 0.4926(4)
C118_2 C 0.7108(4) 0.7508(4) 1.4630(4)
C119_2 C -0.3524(5) -0.2877(4) 0.4205(4)
C120_2 C -0.3998(5) -0.2743(4) 0.3770(5)
H178_2 H -0.4389 -0.3096 0.3533
H179_2 H -0.3758 -0.2688 0.3477
H180_2 H -0.4151 -0.2358 0.4019
O2 O 0.7386(4) -0.1248(4) 1.1191(4)
H1 H 0.7005 -0.1475 1.1255
H2 H 0.7517 -0.1534 1.0809
H3 H 0.7770 -0.1083 1.1552
O4 O 1.2453(4) 0.4486(4) -0.4594(4)
H4 H 1.2088 0.4581 -0.4818
H5 H 1.2859 0.4821 -0.4433
H6 H 1.2551 0.4084 -0.4882
O6 O 0.2524(4) 0.7789(4) 0.2048(4)
H7 H 0.2810 0.7900 0.1813
H8 H 0.2048 0.7676 0.1829
H9 H 0.2592 0.8150 0.2470
Mo1 Mo 0.55479(4) 0.73021(3) 0.18012(3)
Mo2 Mo 0.43734(3) 0.82431(3) 0.20557(3)
Mo3 Mo 0.55942(4) 0.84240(3) 0.12746(3)
Mo4 Mo 0.33660(4) 0.79408(3) 0.05651(3)
Mo5 Mo 0.65609(4) 0.87199(3) 0.27732(3)
Mo6 Mo 0.44076(4) 0.93622(3) 0.15257(3)
Mo7 Mo 0.61334(4) 0.99311(3) 0.26276(4)
Mo8 Mo 0.38227(4) 0.67569(3) 0.07276(3)
Mo9 Mo 0.82057(4) 0.71962(3) 1.11521(3)
Mo10 Mo 1.17478(4) 0.94683(3) 1.21855(3)
Mo11 Mo 1.09299(4) 0.93532(3) 1.32177(3)
Mo12 Mo 0.90305(4) 0.73138(3) 1.01304(3)
Mo13 Mo 1.03537(4) 0.84924(3) 1.06217(3)
Mo14 Mo 0.92557(3) 0.86371(3) 1.16634(3)
Mo15 Mo 1.07048(3) 0.80195(3) 1.16771(3)
Mo16 Mo 0.96113(4) 0.81579(3) 1.27140(3)
Cu1 Cu 1.05354(6) 0.69822(5) 1.24771(5)
Cu2 Cu 0.85880(7) 0.27256(6) 1.08723(7)
Cu3 Cu 0.58022(6) -0.08944(5) 1.01013(5)
Cu4 Cu 1.34474(7) 0.74921(7) 1.59677(6)
Cu5 Cu 0.93782(6) 0.96169(5) 1.08074(5)
Cu6 Cu 0.64118(6) 0.90077(6) 0.72662(5)
Cu7 Cu 0.40814(6) 0.74969(5) 0.31552(5)
Cu8 Cu 1.12636(7) 1.38364(5) 1.23197(6)
O1 O 0.6858(4) 1.0255(3) 0.2520(4)
O3 O 0.3624(4) 0.7106(3) 0.0205(3)
O5 O 0.3107(4) 0.6412(3) 0.0826(4)
O7 O 0.4511(4) 0.9424(3) 0.0882(3)
O8 O 0.6293(4) 0.9558(3) 0.3131(3)
O9 O 0.5785(3) -0.1429(3) 1.0692(3)
O10 O 0.3583(3) 0.8097(3) -0.0007(3)
O11 O 0.5848(4) 1.0565(3) 0.3123(3)
O12 O 0.4254(4) 1.0079(3) 0.2044(3)
O13 O 0.4164(4) 0.6146(3) 0.0253(3)
O14 O 0.6326(3) 0.8561(3) 0.3339(2)
O15 O 0.5414(3) 0.9490(3) 0.1886(3)
O16 O 0.5459(3) 0.7204(3) 0.2431(3)
O17 O 0.5343(3) 0.8277(2) 0.2168(2)
O18 O 0.4165(3) 0.8104(3) 0.2646(3)
O19 O 0.5677(3) 0.6591(3) 0.1238(3)
O20 O 0.2499(3) 0.7732(3) 0.0366(3)
O21 O 0.5609(3) 0.7632(3) 0.1003(2)
O22 O 0.4348(3) 0.9044(3) 0.2322(2)
O23 O 0.4541(3) 0.7215(3) 0.1478(2)
O24 O 0.7419(3) 0.8924(3) 0.2988(3)
O25 O 0.4639(3) 0.8390(2) 0.1181(2)
O26 O 0.6364(3) 0.8873(3) 0.1954(3)
O27 O 0.3490(3) 0.8827(3) 0.1217(2)
O28 O 0.6460(3) 0.7836(3) 0.2121(2)
O29 O 0.3594(3) 0.7786(3) 0.1374(2)
O30 O 0.7407(4) 0.7022(4) 1.0669(3)
O31 O 1.2532(4) 0.9644(4) 1.2661(4)
O32 O 1.0466(4) 0.9168(3) 1.0548(3)
O33 O 0.9519(4) 0.7482(3) 1.2789(3)
O34 O 0.8160(4) 0.6666(3) 1.1421(3)
O35 O 1.1778(4) 0.9992(3) 1.1904(3)
O36 O 0.9499(3) 0.6799(3) 0.9719(3)
O37 O 0.7743(3) 0.7876(3) 1.1884(3)
H10 H 0.7336 0.7716 1.1822
O38 O 1.2222(3) 0.8788(3) 1.1462(3)
H11 H 1.2626 0.8954 1.1521
O39 O 0.9101(3) 0.8609(3) 1.3163(3)
O40 O 1.0831(3) 0.8010(3) 1.0161(3)
O41 O 0.8277(3) 0.7104(3) 0.9590(3)
O42 O 0.9450(3) 0.8063(3) 1.0106(2)
O43 O 1.1688(3) 0.9565(3) 1.3753(3)
O44 O 1.0471(3) 0.9878(3) 1.3638(3)
O45 O 1.0312(3) 0.7570(2) 1.1982(2)
O46 O 1.0513(3) 0.8597(3) 1.3232(2)
O47 O 0.8766(3) 0.6856(2) 1.0576(3)
O48 O 0.9652(3) 0.9083(2) 1.1357(2)
O49 O 1.1187(3) 0.9804(2) 1.2755(3)
O50 O 0.8766(3) 0.9104(3) 1.2134(3)
O51 O 1.1181(3) 0.7542(3) 1.1201(3)
O52 O 1.0949(3) 0.8784(2) 1.1453(2)
O53 O 1.0040(2) 0.8744(2) 1.2306(2)
O54 O 0.9008(3) 0.7877(2) 1.1881(2)
O55 O 1.1367(3) 0.8643(2) 1.2404(2)
O56 O 0.9918(2) 0.7914(2) 1.1037(2)
O57 O 0.8590(3) 0.8014(2) 1.0935(2)
N1 N 1.1289(4) 0.7520(3) 1.3199(3)
N2 N 1.1810(4) 0.7950(3) 1.3212(3)
H13 H 1.1819 0.8045 1.2912
N3 N 1.3057(4) 0.7819(4) 1.5462(3)
N4 N 1.3065(4) 0.8453(4) 1.5712(3)
H14 H 1.3254 0.8734 1.6105
N5 N 0.9991(4) 0.6161(3) 1.1829(3)
N6 N 0.9443(4) 0.6097(3) 1.1382(3)
H15 H 0.9326 0.6410 1.1343
N7 N 0.8929(4) 0.3433(3) 1.0793(4)
N8 N 0.9081(4) 0.3386(3) 1.0243(3)
H16 H 0.9029 0.3029 0.9895
N9 N 0.8239(4) 0.2397(3) 1.1781(4)
H17 H 0.8437 0.2778 1.2083
N10 N 0.8218(4) 0.2180(3) 1.1149(3)
N11 N 0.7074(4) -0.0199(4) 1.1051(3)
H18 H 0.7110 -0.0525 1.1102
N12 N 0.6526(4) -0.0178(3) 1.0664(3)
N13 N 0.5147(4) -0.1502(3) 0.9347(3)
N14 N 0.4585(4) -0.1899(3) 0.9330(3)
H19 H 0.4491 -0.1907 0.9662
N15 N 1.3837(4) 0.7402(4) 1.6658(3)
N16 N 1.3981(4) 0.6850(4) 1.6620(3)
H20 H 1.3895 0.6490 1.6269
N17 N 0.9905(4) 1.0446(3) 1.1455(3)
N18 N 1.0432(4) 1.0541(3) 1.1927(3)
H21 H 1.0552 1.0238 1.1986
N19 N 1.0814(4) 1.3161(3) 1.2416(3)
N20 N 1.0691(4) 1.3234(3) 1.2979(4)
H22 H 1.0725 1.3600 1.3312
N21 N 0.8124(4) 0.8648(3) 1.0063(3)
H23 H 0.8126 0.8538 1.0354
N22 N 0.8628(4) 0.9091(3) 1.0095(3)
N23 N 0.6980(4) 0.8114(3) 0.7523(3)
H24 H 0.6838 0.7831 0.7124
N24 N 0.6899(4) 0.8731(3) 0.7777(3)
N25 N 0.5942(4) 0.9120(3) 0.6607(3)
N26 N 0.5834(4) 0.9683(3) 0.6670(3)
H25 H 0.5927 1.0034 0.7030
N27 N 0.4726(3) 0.8109(3) 0.3917(3)
N28 N 0.5254(4) 0.8555(3) 0.3971(3)
H26 H 0.5344 0.8594 0.3653
N29 N 0.3365(4) 0.6773(3) 0.2601(3)
N30 N 0.2824(4) 0.6761(3) 0.2188(3)
H27 H 0.2773 0.7074 0.2119
N31 N 1.1766(4) 1.4357(3) 1.2071(3)
N32 N 1.1885(4) 1.4136(3) 1.1472(3)
H28 H 1.1765 1.3740 1.1176
C1 C 1.0993(4) 0.7094(4) 1.3891(4)
H37 H 1.0581 0.6874 1.3555
H38 H 1.0872 0.7358 1.4287
H39 H 1.1226 0.6786 1.3932
C2 C 1.1458(4) 0.7506(3) 1.3733(4)
C3 C 1.2118(4) 0.7913(4) 1.4096(4)
C4 C 1.2307(5) 0.8208(4) 1.3753(4)
C5 C 1.2927(5) 0.8688(5) 1.3867(5)
H40 H 1.2880 0.8787 1.3525
H41 H 1.3331 0.8515 1.3885
H42 H 1.2970 0.9072 1.4266
C6 C 1.2610(5) 0.6849(4) 1.4419(4)
H43 H 1.2800 0.6658 1.4658
H44 H 1.2849 0.6783 1.4084
H45 H 1.2129 0.6655 1.4233
C7 C 1.2693(4) 0.7549(4) 1.4853(4)
C8 C 1.2493(5) 0.8023(4) 1.4720(4)
C9 C 1.2746(5) 0.8599(4) 1.5281(4)
C10 C 1.2693(6) 0.9266(4) 1.5470(5)
H46 H 1.2938 0.9545 1.5908
H47 H 1.2217 0.9293 1.5426
H48 H 1.2891 0.9395 1.5198
C11 C 1.0526(5) 0.5448(5) 1.2143(5)
H49 H 1.0826 0.5848 1.2466
H50 H 1.0793 0.5172 1.1882
H51 H 1.0298 0.5245 1.2345
C12 C 0.9999(4) 0.5571(4) 1.1732(4)
C13 C 0.9464(4) 0.5119(4) 1.1208(3)
C14 C 0.9103(5) 0.5467(4) 1.1004(4)
C15 C 0.8481(6) 0.5269(5) 1.0485(5)
H52 H 0.8367 0.5641 1.0479
H53 H 0.8101 0.5051 1.0561
H54 H 0.8572 0.4985 1.0080
C16 C 0.8971(6) 0.4308(5) 1.1874(5)
H55 H 0.8801 0.3952 1.1930
H56 H 0.8651 0.4586 1.1956
H57 H 0.9411 0.4542 1.2166
C17 C 0.9052(5) 0.4064(4) 1.1203(4)
C18 C 0.9291(4) 0.4420(4) 1.0918(4)
C19 C 0.9320(4) 0.3958(4) 1.0311(4)
C20 C 0.9601(5) 0.4027(4) 0.9807(4)
H58 H 0.9542 0.3611 0.9439
H59 H 1.0083 0.4227 0.9969
H60 H 0.9360 0.4289 0.9686
C21 C 0.7860(7) 0.2074(5) 1.2537(5)
H61 H 0.8091 0.2509 1.2843
H62 H 0.8073 0.1786 1.2637
H63 H 0.7383 0.2013 1.2555
C22 C 0.7910(6) 0.1940(5) 1.1872(4)
C23 C 0.7662(5) 0.1395(4) 1.1282(4)
C24 C 0.7876(4) 0.1561(4) 1.0847(4)
C25 C 0.7795(5) 0.1158(4) 1.0149(4)
H64 H 0.7995 0.1412 0.9982
H65 H 0.7313 0.0991 0.9945
H66 H 0.8023 0.0809 1.0067
C26 C 0.8190(5) 0.0453(5) 1.1817(5)
H67 H 0.8193 0.0072 1.1849
H68 H 0.8195 0.0806 1.2228
H69 H 0.8590 0.0549 1.1676
C27 C 0.7554(4) 0.0351(4) 1.1345(4)
C28 C 0.7304(5) 0.0746(4) 1.1130(4)
C29 C 0.6663(4) 0.0404(4) 1.0724(4)
C30 C 0.6140(5) 0.0586(5) 1.0363(5)
H70 H 0.5748 0.0234 1.0122
H71 H 0.6343 0.0686 1.0076
H72 H 0.5994 0.0954 1.0661
C31 C 0.3538(5) -0.2726(5) 0.8570(4)
H73 H 0.3445 -0.2704 0.8957
H74 H 0.3571 -0.3155 0.8281
H75 H 0.3170 -0.2611 0.8373
C32 C 0.4195(4) -0.2278(4) 0.8725(4)
C33 C 0.4538(4) -0.2146(4) 0.8336(4)
C34 C 0.5114(5) -0.1659(4) 0.8738(4)
C35 C 0.5645(5) -0.1322(6) 0.8567(5)
H76 H 0.5976 -0.1004 0.8949
H77 H 0.5428 -0.1117 0.8355
H78 H 0.5874 -0.1626 0.8286
C36 C 1.4540(6) 0.6418(4) 1.7268(4)
H79 H 1.4433 0.6030 1.6862
H80 H 1.4331 0.6342 1.7566
H81 H 1.5031 0.6553 1.7430
C37 C 1.4266(4) 0.6931(4) 1.7186(4)
C38 C 0.4294(4) -0.2440(4) 0.7630(3)
C39 C 1.4034(5) 0.7837(4) 1.7285(4)
C40 C 1.3982(6) 0.8516(4) 1.7520(5)
H82 H 1.3782 0.8566 1.7166
H83 H 1.4434 0.8789 1.7722
H84 H 1.3696 0.8631 1.7825
C41 C 1.1340(6) 1.1375(4) 1.2836(4)
H85 H 1.1471 1.1010 1.2849
H86 H 1.1216 1.1643 1.3229
H87 H 1.1722 1.1614 1.2784
C42 C 1.0742(4) 1.1153(4) 1.2289(4)
C43 C 1.0374(4) 1.1493(4) 1.2076(3)
C44 C 0.9858(4) 1.1027(4) 1.1539(4)
C45 C 0.9339(5) 1.1105(4) 1.1086(5)
H88 H 0.9060 1.0692 1.0769
H89 H 0.9574 1.1298 1.0879
H90 H 0.9050 1.1375 1.1318
C46 C 1.0313(6) 1.2624(4) 1.3495(4)
H91 H 1.0371 1.3048 1.3850
H92 H 1.0600 1.2391 1.3618
H93 H 0.9838 1.2404 1.3370
C47 C 1.0510(5) 1.2668(4) 1.2951(4)
C48 C 1.0513(5) 1.2196(4) 1.2339(4)
C49 C 1.0691(4) 1.2528(4) 1.2018(4)
C50 C 1.0756(5) 1.2274(4) 1.1341(4)
H94 H 1.0885 1.2626 1.1267
H95 H 1.0322 1.2010 1.1055
H96 H 1.1104 1.2023 1.1266
C51 C 0.6983(5) 0.7909(5) 0.9399(5)
H97 H 0.7013 0.7807 0.9739
H98 H 0.6951 0.7527 0.9001
H99 H 0.6582 0.8083 0.9369
C52 C 0.7618(4) 0.8397(4) 0.9535(4)
C53 C 0.7815(4) 0.8695(4) 0.9191(4)
C54 C 0.8445(4) 0.9129(4) 0.9563(4)
C55 C 0.8892(4) 0.9562(4) 0.9419(4)
H100 H 0.9291 0.9801 0.9767
H101 H 0.8638 0.9853 0.9366
H102 H 0.9036 0.9310 0.9032
C56 C 0.7464(5) 0.7354(4) 0.7791(4)
H103 H 0.7284 0.7074 0.7339
H104 H 0.7251 0.7179 0.8023
H105 H 0.7954 0.7393 0.7893
C57 C 0.7310(4) 0.8002(3) 0.7976(4)
C58 C 0.7442(4) 0.8568(4) 0.8544(3)
C59 C 0.7199(4) 0.9016(4) 0.8401(3)
C60 C 0.7187(5) 0.9698(4) 0.8838(4)
H106 H 0.6986 0.9878 0.8592
H107 H 0.7650 0.9937 0.9063
H108 H 0.6917 0.9717 0.9140
C61 C 0.5772(6) 0.8013(4) 0.5728(4)
H109 H 0.5952 0.7951 0.6080
H110 H 0.6069 0.7898 0.5432
H111 H 0.5317 0.7748 0.5513
C62 C 0.5740(5) 0.8689(4) 0.5970(4)
C63 C 0.5517(4) 0.9013(4) 0.5647(4)
C64 C 0.5566(5) 0.9633(4) 0.6105(4)
C65 C 0.5371(6) 1.0201(4) 0.6069(5)
H112 H 0.5189 1.0079 0.5629
H113 H 0.5771 1.0543 0.6244
H114 H 0.5027 1.0342 0.6310
C66 C 0.4234(5) 0.7826(5) 0.4649(5)
H115 H 0.3922 0.7503 0.4256
H116 H 0.3979 0.8099 0.4928
H117 H 0.4471 0.7623 0.4853
C67 C 0.4748(4) 0.8217(4) 0.4509(4)
C68 C 0.5294(4) 0.8731(4) 0.4941(3)
C69 C 0.5617(4) 0.8928(4) 0.4577(4)
C70 C 0.6252(5) 0.9440(4) 0.4760(4)
H118 H 0.6335 0.9450 0.4384
H119 H 0.6644 0.9346 0.4952
H120 H 0.6182 0.9851 0.5060
C71 C 0.3760(5) 0.6038(4) 0.2944(5)
H121 H 0.4136 0.6403 0.3204
H122 H 0.3934 0.5682 0.2661
H123 H 0.3540 0.5925 0.3215
C72 C 0.3249(4) 0.6199(4) 0.2559(4)
C73 C 0.2636(4) 0.5818(4) 0.2126(4)
C74 C 0.2381(4) 0.6198(4) 0.1905(4)
C75 C 0.1757(5) 0.6064(5) 0.1410(5)
H124 H 0.1733 0.6442 0.1375
H125 H 0.1352 0.5943 0.1532
H126 H 0.1782 0.5720 0.1005
C76 C 1.2000(5) 1.5407(4) 1.3054(4)
H127 H 1.1776 1.5147 1.3205
H128 H 1.1746 1.5728 1.3083
H129 H 1.2461 1.5611 1.3312
C77 C 1.2027(4) 1.4997(4) 1.2379(3)
C78 C 0.2308(4) 0.5167(4) 0.1973(4)
C79 C 1.2211(5) 1.4607(4) 1.1399(4)
C80 C 1.2403(6) 1.4445(5) 1.0783(4)
H130 H 1.2244 1.3992 1.0492
H131 H 1.2896 1.4558 1.0855
H132 H 1.2194 1.4679 1.0601
Mo1_2 Mo 0.55479(4) -0.26979(3) 1.18012(3)
Mo2_2 Mo 0.43734(3) -0.17569(3) 1.20557(3)
Mo3_2 Mo 0.55942(4) -0.15760(3) 1.12746(3)
Mo4_2 Mo 0.33660(4) -0.20592(3) 1.05651(3)
Mo5_2 Mo 0.65609(4) -0.12801(3) 1.27732(3)
Mo6_2 Mo 0.44076(4) -0.06378(3) 1.15257(3)
Mo7_2 Mo 0.61334(4) -0.00689(3) 1.26276(4)
Mo8_2 Mo 0.38227(4) -0.32431(3) 1.07276(3)
Cu1_2 Cu 0.05354(6) -0.30178(5) 0.24771(5)
Cu3_2 Cu 1.58022(6) 0.91056(5) 2.01013(5)
Cu3_3 Cu 0.58022(6) 0.91056(5) 0.01013(5)
Cu4_2 Cu 0.34474(7) -0.25079(7) 0.59677(6)
Cu5_2 Cu -0.06218(6) -0.03831(5) 0.08074(5)
Cu7_2 Cu 1.40814(6) 1.74969(5) 1.31552(5)
Cu7_3 Cu 0.40814(6) -0.25031(5) 1.31552(5)
Cu8_2 Cu 0.12636(7) 0.38364(5) 0.23197(6)
O1_2 O 0.6858(4) 0.0255(3) 1.2520(4)
O3_2 O 0.3624(4) -0.2894(3) 1.0205(3)
O5_2 O 0.3107(4) -0.3588(3) 1.0826(4)
O7_2 O 0.4511(4) -0.0576(3) 1.0882(3)
O8_2 O 0.6293(4) -0.0442(3) 1.3131(3)
O9_2 O 0.5785(3) 0.8571(3) 0.0692(3)
O10_2 O 0.3583(3) -0.1903(3) 0.9993(3)
O11_2 O 0.5848(4) 0.0565(3) 1.3123(3)
O12_2 O 0.4254(4) 0.0079(3) 1.2044(3)
O13_2 O 0.4164(4) -0.3854(3) 1.0253(3)
O14_2 O 0.6326(3) -0.1439(3) 1.3339(2)
O15_2 O 0.5414(3) -0.0510(3) 1.1886(3)
O16_2 O 0.5459(3) -0.2796(3) 1.2431(3)
O17_2 O 0.5343(3) -0.1723(2) 1.2168(2)
O18_2 O 0.4165(3) -0.1896(3) 1.2646(3)
O19_2 O 0.5677(3) -0.3409(3) 1.1238(3)
O20_2 O 0.2499(3) -0.2268(3) 1.0366(3)
O21_2 O 0.5609(3) -0.2368(3) 1.1003(2)
O22_2 O 0.4348(3) -0.0956(3) 1.2322(2)
O23_2 O 0.4541(3) -0.2785(3) 1.1478(2)
O24_2 O 0.7419(3) -0.1076(3) 1.2988(3)
O25_2 O 0.4639(3) -0.1610(2) 1.1181(2)
O26_2 O 0.6364(3) -0.1127(3) 1.1954(3)
O27_2 O 0.3490(3) -0.1173(3) 1.1217(2)
O28_2 O 0.6460(3) -0.2164(3) 1.2121(2)
O29_2 O 0.3594(3) -0.2214(3) 1.1374(2)
O45_2 O 0.0312(3) -0.2430(2) 0.1982(2)
O48_2 O -0.0348(3) -0.0917(2) 0.1357(2)
N1_2 N 0.1289(4) -0.2480(3) 0.3199(3)
N2_2 N 0.1810(4) -0.2050(3) 0.3212(3)
H13_2 H 0.1819 -0.1955 0.2912
N3_2 N 0.3057(4) -0.2181(4) 0.5462(3)
N4_2 N 0.3065(4) -0.1547(4) 0.5712(3)
H14_2 H 0.3254 -0.1266 0.6105
N5_2 N -0.0009(4) -0.3839(3) 0.1829(3)
N13_2 N 1.5147(4) 0.8498(3) 1.9347(3)
N14_2 N 1.4585(4) 0.8101(3) 1.9330(3)
H19_2 H 1.4491 0.8093 1.9662
N15_2 N 0.3837(4) -0.2598(4) 0.6658(3)
N16_2 N 0.3981(4) -0.3150(4) 0.6620(3)
H20_2 H 0.3895 -0.3510 0.6269
N17_2 N -0.0095(4) 0.0446(3) 0.1455(3)
N18_2 N 0.0432(4) 0.0541(3) 0.1927(3)
H21_2 H 0.0552 0.0238 0.1986
N19_2 N 0.0814(4) 0.3161(3) 0.2416(3)
N20_2 N 0.0691(4) 0.3234(3) 0.2979(4)
H22_2 H 0.0725 0.3600 0.3312
N22_2 N -0.1372(4) -0.0909(3) 0.0095(3)
N29_2 N 1.3365(4) 1.6773(3) 1.2601(3)
N30_2 N 1.2824(4) 1.6761(3) 1.2188(3)
H27_2 H 1.2773 1.7074 1.2119
N31_2 N 0.1766(4) 0.4357(3) 0.2071(3)
N32_2 N 0.1885(4) 0.4136(3) 0.1472(3)
H28_2 H 0.1765 0.3740 0.1176
C1_2 C 0.0993(4) -0.2906(4) 0.3891(4)
H37_2 H 0.0581 -0.3126 0.3555
H38_2 H 0.0872 -0.2642 0.4287
H39_2 H 0.1226 -0.3214 0.3932
C2_2 C 0.1458(4) -0.2494(3) 0.3733(4)
C3_2 C 0.2118(4) -0.2087(4) 0.4096(4)
C4_2 C 0.2307(5) -0.1792(4) 0.3753(4)
C5_2 C 0.2927(5) -0.1312(5) 0.3867(5)
H40_2 H 0.2880 -0.1213 0.3525
H41_2 H 0.3331 -0.1485 0.3885
H42_2 H 0.2970 -0.0928 0.4266
C6_2 C 0.2610(5) -0.3151(4) 0.4419(4)
H43_2 H 0.2800 -0.3342 0.4658
H44_2 H 0.2849 -0.3217 0.4084
H45_2 H 0.2129 -0.3345 0.4233
C7_2 C 0.2693(4) -0.2451(4) 0.4853(4)
C8_2 C 0.2493(5) -0.1977(4) 0.4720(4)
C9_2 C 0.2746(5) -0.1401(4) 0.5281(4)
C10_2 C 0.2693(6) -0.0734(4) 0.5470(5)
H46_2 H 0.2938 -0.0455 0.5908
H47_2 H 0.2217 -0.0707 0.5426
H48_2 H 0.2891 -0.0605 0.5198
C31_2 C 1.3538(5) 0.7274(5) 1.8570(4)
H73_2 H 1.3445 0.7296 1.8957
H74_2 H 1.3571 0.6845 1.8281
H75_2 H 1.3170 0.7389 1.8373
C32_2 C 1.4195(4) 0.7722(4) 1.8725(4)
C33_2 C 1.4538(4) 0.7854(4) 1.8336(4)
C34_2 C 1.5114(5) 0.8341(4) 1.8738(4)
C35_2 C 1.5645(5) 0.8678(6) 1.8567(5)
H76_2 H 1.5976 0.8996 1.8949
H77_2 H 1.5428 0.8883 1.8355
H78_2 H 1.5874 0.8374 1.8286
C36_2 C 0.4540(6) -0.3582(4) 0.7268(4)
H79_2 H 0.4433 -0.3970 0.6862
H80_2 H 0.4331 -0.3658 0.7566
H81_2 H 0.5031 -0.3447 0.7430
C37_2 C 0.4266(4) -0.3069(4) 0.7186(4)
C38_2 C 1.4294(4) 0.7560(4) 1.7630(3)
C39_2 C 0.4034(5) -0.2163(4) 0.7285(4)
C40_2 C 0.3982(6) -0.1484(4) 0.7520(5)
H82_2 H 0.3782 -0.1434 0.7166
H83_2 H 0.4434 -0.1211 0.7722
H84_2 H 0.3696 -0.1369 0.7825
C41_2 C 0.1340(6) 0.1375(4) 0.2836(4)
H85_2 H 0.1471 0.1010 0.2849
H86_2 H 0.1216 0.1643 0.3229
H87_2 H 0.1722 0.1614 0.2784
C42_2 C 0.0742(4) 0.1153(4) 0.2289(4)
C43_2 C 0.0374(4) 0.1493(4) 0.2076(3)
C44_2 C -0.0142(4) 0.1027(4) 0.1539(4)
C45_2 C -0.0661(5) 0.1105(4) 0.1086(5)
H88_2 H -0.0940 0.0692 0.0769
H89_2 H -0.0426 0.1298 0.0879
H90_2 H -0.0950 0.1375 0.1318
C46_2 C 0.0313(6) 0.2624(4) 0.3495(4)
H91_2 H 0.0371 0.3048 0.3850
H92_2 H 0.0600 0.2391 0.3618
H93_2 H -0.0162 0.2404 0.3370
C47_2 C 0.0510(5) 0.2668(4) 0.2951(4)
C48_2 C 0.0513(5) 0.2196(4) 0.2339(4)
C49_2 C 0.0691(4) 0.2528(4) 0.2018(4)
C50_2 C 0.0756(5) 0.2274(4) 0.1341(4)
H94_2 H 0.0885 0.2626 0.1267
H95_2 H 0.0322 0.2010 0.1055
H96_2 H 0.1104 0.2023 0.1266
C71_2 C 1.3760(5) 1.6038(4) 1.2944(5)
H121_2 H 1.4136 1.6403 1.3204
H122_2 H 1.3934 1.5682 1.2661
H123_2 H 1.3540 1.5925 1.3215
C72_2 C 1.3249(4) 1.6199(4) 1.2559(4)
C73_2 C 1.2636(4) 1.5818(4) 1.2126(4)
C74_2 C 1.2381(4) 1.6198(4) 1.1905(4)
C75_2 C 1.1757(5) 1.6064(5) 1.1410(5)
H124_2 H 1.1733 1.6442 1.1375
H125_2 H 1.1352 1.5943 1.1532
H126_2 H 1.1782 1.5720 1.1005
C76_2 C 0.2000(5) 0.5407(4) 0.3054(4)
H127_2 H 0.1776 0.5147 0.3205
H128_2 H 0.1746 0.5728 0.3083
H129_2 H 0.2461 0.5611 0.3312
C77_2 C 0.2027(4) 0.4997(4) 0.2379(3)
C78_2 C 1.2308(4) 1.5167(4) 1.1973(4)
C79_2 C 0.2211(5) 0.4607(4) 0.1399(4)
C80_2 C 0.2403(6) 0.4445(5) 0.0783(4)
H130_2 H 0.2244 0.3992 0.0492
H131_2 H 0.2896 0.4558 0.0855
H132_2 H 0.2194 0.4679 0.0601
loop_
_geom_bond_atom_site_label_1
_geom_bond_atom_site_label_2
_geom_bond_site_symmetry_1
_geom_bond_site_symmetry_2
Mo1 O16 1_555 1_555
Mo2 O17 1_555 1_555
Mo3 O15 1_555 1_555
Mo4 O3 1_555 1_555
Mo5 O8 1_555 1_555
Mo6 O7 1_555 1_555
Mo7 O1 1_555 1_555
Mo8 O3 1_555 1_555
Mo9 O30 1_555 1_555
Mo10 O31 1_555 1_555
Mo11 O43 1_555 1_555
Mo12 O36 1_555 1_555
Mo13 O32 1_555 1_555
Mo14 O48 1_555 1_555
Mo15 O45 1_555 1_555
Mo16 O33 1_555 1_555
Mo17 O58 1_555 1_555
Mo18 O59 1_555 1_555
Mo19 O62 1_555 1_555
Mo20 O60 1_555 1_555
Mo21 O75 1_555 1_555
Mo22 O71 1_555 1_555
Mo23 O74 1_555 1_555
Mo24 O77 1_555 1_555
Cu1 O45 1_555 1_555
Cu2 N7 1_555 1_555
Cu3 O9 1_555 1_555
Cu4 N3 1_555 1_555
Cu5 O48 1_555 1_555
Cu6 N24 1_555 1_555
Cu7 O18 1_555 1_555
Cu8 N19 1_555 1_555
Cu9 N36 1_555 1_555
Cu10 O70 1_555 1_555
Cu11 N43 1_555 1_555
Cu12 O77 1_555 1_555
O2 H1 1_555 1_555
H2 O2 1_555 1_555
H3 O2 1_555 1_555
O4 H4 1_555 1_555
H5 O4 1_555 1_555
H6 O4 1_555 1_555
O5 Mo8 1_555 1_555
O6 H7 1_555 1_555
H8 O6 1_555 1_555
H9 O6 1_555 1_555
O8 Mo7 1_555 1_555
O9 Mo3_2 1_555 1_555
O10 Mo4 1_555 1_555
O11 Mo7 1_555 1_555
O12 Mo6 1_555 1_555
O13 Mo8 1_555 1_555
O14 Mo5 1_555 1_555
O15 Mo6 1_555 1_555
O17 Mo1 1_555 1_555
O18 Mo2 1_555 1_555
O19 Mo1 1_555 1_555
O20 Mo4 1_555 1_555
O21 Mo1 1_555 1_555
O22 Mo2 1_555 1_555
O23 Mo1 1_555 1_555
O24 Mo5 1_555 1_555
O25 Mo2 1_555 1_555
O26 Mo3 1_555 1_555
O27 Mo4 1_555 1_555
O28 Mo1 1_555 1_555
O29 Mo2 1_555 1_555
O34 Mo9 1_555 1_555
O35 Mo10 1_555 1_555
O37 Mo9 1_555 1_555
H10 O37 1_555 1_555
O38 Mo10 1_555 1_555
H11 O38 1_555 1_555
O39 Mo16 1_555 1_555
O40 Mo13 1_555 1_555
O41 Mo12 1_555 1_555
O42 Mo12 1_555 1_555
O44 Mo11 1_555 1_555
O45 Mo16 1_555 1_555
O46 Mo11 1_555 1_555
O47 Mo9 1_555 1_555
O48 Mo13 1_555 1_555
O49 Mo10 1_555 1_555
O50 Mo14 1_555 1_555
O51 Mo15 1_555 1_555
O52 Mo10 1_555 1_555
O53 Mo11 1_555 1_555
O54 Mo9 1_555 1_555
O55 Mo10 1_555 1_555
O56 Mo12 1_555 1_555
O57 Mo9 1_555 1_555
O60 Mo17 1_555 1_555
O61 Mo17 1_555 1_555
O63 Mo17 1_555 1_555
O64 Mo19 1_555 1_555
O65 Mo20 1_555 1_555
O66 Mo17 1_555 1_555
O67 Mo18 1_555 1_555
O68 Mo18 1_555 1_555
O69 Mo18 1_555 1_555
O70 Mo20 1_555 1_555
O72 Mo22 1_555 1_555
O73 Mo22 1_555 1_555
H12 O73 1_555 1_555
O76 Mo23 1_555 1_555
O77 Mo23 1_555 1_555
O78 Mo21 1_555 1_555
O79 Mo21 1_555 1_555
O80 Mo21 1_555 1_555
O81 Mo24 1_555 1_555
O82 Mo21 1_555 1_555
O83 Mo21 1_555 1_555
O84 Mo23 1_555 1_555
N1 Cu1 1_555 1_555
N2 N1 1_555 1_555
H13 N2 1_555 1_555
N3 N4 1_555 1_555
N4 H14 1_555 1_555
N5 Cu1 1_555 1_555
N6 N5 1_555 1_555
H15 N6 1_555 1_555
N7 N8 1_555 1_555
N8 H16 1_555 1_555
N9 H17 1_555 1_555
N10 Cu2 1_555 1_555
N11 H18 1_555 1_555
N12 Cu3 1_555 1_555
N13 Cu3 1_555 1_555
N14 N13 1_555 1_555
H19 N14 1_555 1_555
N15 Cu4 1_555 1_555
N16 N15 1_555 1_555
H20 N16 1_555 1_555
N17 Cu5 1_555 1_555
N18 N17 1_555 1_555
H21 N18 1_555 1_555
N19 N20 1_555 1_555
N20 H22 1_555 1_555
N21 H23 1_555 1_555
N22 Cu5 1_555 1_555
N23 H24 1_555 1_555
N24 N23 1_555 1_555
N25 Cu6 1_555 1_555
N26 N25 1_555 1_555
H25 N26 1_555 1_555
N27 Cu7 1_555 1_555
N28 N27 1_555 1_555
H26 N28 1_555 1_555
N29 Cu7 1_555 1_555
N30 N29 1_555 1_555
H27 N30 1_555 1_555
N31 Cu8 1_555 1_555
N32 N31 1_555 1_555
H28 N32 1_555 1_555
N33 H29 1_555 1_555
N34 Cu12 1_555 1_555
N35 H30 1_555 1_555
N36 N35 1_555 1_555
N37 Cu9 1_555 1_555
N38 N37 1_555 1_555
H31 N38 1_555 1_555
N39 Cu10 1_555 1_555
N40 N39 1_555 1_555
H32 N40 1_555 1_555
N41 Cu10 1_555 1_555
N42 N41 1_555 1_555
H33 N42 1_555 1_555
N43 N44 1_555 1_555
N44 H34 1_555 1_555
N45 H35 1_555 1_555
N46 Cu11 1_555 1_555
N47 H36 1_555 1_555
N48 Cu12 1_555 1_555
C1 H37 1_555 1_555
H38 C1 1_555 1_555
H39 C1 1_555 1_555
C2 N1 1_555 1_555
C3 C2 1_555 1_555
C4 N2 1_555 1_555
C5 C4 1_555 1_555
H40 C5 1_555 1_555
H41 C5 1_555 1_555
H42 C5 1_555 1_555
C6 H43 1_555 1_555
H44 C6 1_555 1_555
H45 C6 1_555 1_555
C7 N3 1_555 1_555
C8 C3 1_555 1_555
C9 N4 1_555 1_555
C10 C9 1_555 1_555
H46 C10 1_555 1_555
H47 C10 1_555 1_555
H48 C10 1_555 1_555
C11 H49 1_555 1_555
H50 C11 1_555 1_555
H51 C11 1_555 1_555
C12 N5 1_555 1_555
C13 C12 1_555 1_555
C14 N6 1_555 1_555
C15 C14 1_555 1_555
H52 C15 1_555 1_555
H53 C15 1_555 1_555
H54 C15 1_555 1_555
C16 H55 1_555 1_555
H56 C16 1_555 1_555
H57 C16 1_555 1_555
C17 N7 1_555 1_555
C18 C13 1_555 1_555
C19 N8 1_555 1_555
C20 C19 1_555 1_555
H58 C20 1_555 1_555
H59 C20 1_555 1_555
H60 C20 1_555 1_555
C21 H61 1_555 1_555
H62 C21 1_555 1_555
H63 C21 1_555 1_555
C22 N9 1_555 1_555
C23 C22 1_555 1_555
C24 N10 1_555 1_555
C25 C24 1_555 1_555
H64 C25 1_555 1_555
H65 C25 1_555 1_555
H66 C25 1_555 1_555
C26 H67 1_555 1_555
H68 C26 1_555 1_555
H69 C26 1_555 1_555
C27 N11 1_555 1_555
C28 C23 1_555 1_555
C29 N12 1_555 1_555
C30 C29 1_555 1_555
H70 C30 1_555 1_555
H71 C30 1_555 1_555
H72 C30 1_555 1_555
C31 H73 1_555 1_555
H74 C31 1_555 1_555
H75 C31 1_555 1_555
C32 N14 1_555 1_555
C33 C32 1_555 1_555
C34 N13 1_555 1_555
C35 C34 1_555 1_555
H76 C35 1_555 1_555
H77 C35 1_555 1_555
H78 C35 1_555 1_555
C36 H79 1_555 1_555
H80 C36 1_555 1_555
H81 C36 1_555 1_555
C37 N16 1_555 1_555
C38 C33 1_555 1_555
C39 N15 1_555 1_555
C40 C39 1_555 1_555
H82 C40 1_555 1_555
H83 C40 1_555 1_555
H84 C40 1_555 1_555
C41 H85 1_555 1_555
H86 C41 1_555 1_555
H87 C41 1_555 1_555
C42 N18 1_555 1_555
C43 C42 1_555 1_555
C44 N17 1_555 1_555
C45 C44 1_555 1_555
H88 C45 1_555 1_555
H89 C45 1_555 1_555
H90 C45 1_555 1_555
C46 H91 1_555 1_555
H92 C46 1_555 1_555
H93 C46 1_555 1_555
C47 N20 1_555 1_555
C48 C43 1_555 1_555
C49 N19 1_555 1_555
C50 C49 1_555 1_555
H94 C50 1_555 1_555
H95 C50 1_555 1_555
H96 C50 1_555 1_555
C51 H97 1_555 1_555
H98 C51 1_555 1_555
H99 C51 1_555 1_555
C52 N21 1_555 1_555
C53 C52 1_555 1_555
C54 N22 1_555 1_555
C55 C54 1_555 1_555
H100 C55 1_555 1_555
H101 C55 1_555 1_555
H102 C55 1_555 1_555
C56 H103 1_555 1_555
H104 C56 1_555 1_555
H105 C56 1_555 1_555
C57 N23 1_555 1_555
C58 C53 1_555 1_555
C59 N24 1_555 1_555
C60 C59 1_555 1_555
H106 C60 1_555 1_555
H107 C60 1_555 1_555
H108 C60 1_555 1_555
C61 H109 1_555 1_555
H110 C61 1_555 1_555
H111 C61 1_555 1_555
C62 N25 1_555 1_555
C63 C62 1_555 1_555
C64 N26 1_555 1_555
C65 C64 1_555 1_555
H112 C65 1_555 1_555
H113 C65 1_555 1_555
H114 C65 1_555 1_555
C66 H115 1_555 1_555
H116 C66 1_555 1_555
H117 C66 1_555 1_555
C67 N27 1_555 1_555
C68 C63 1_555 1_555
C69 N28 1_555 1_555
C70 C69 1_555 1_555
H118 C70 1_555 1_555
H119 C70 1_555 1_555
H120 C70 1_555 1_555
C71 H121 1_555 1_555
H122 C71 1_555 1_555
H123 C71 1_555 1_555
C72 N29 1_555 1_555
C73 C72 1_555 1_555
C74 N30 1_555 1_555
C75 C74 1_555 1_555
H124 C75 1_555 1_555
H125 C75 1_555 1_555
H126 C75 1_555 1_555
C76 H127 1_555 1_555
H128 C76 1_555 1_555
H129 C76 1_555 1_555
C77 N31 1_555 1_555
C78 C73 1_555 1_555
C79 N32 1_555 1_555
C80 C79 1_555 1_555
H130 C80 1_555 1_555
H131 C80 1_555 1_555
H132 C80 1_555 1_555
C81 H133 1_555 1_555
H134 C81 1_555 1_555
H135 C81 1_555 1_555
C82 N33 1_555 1_555
C83 C82 1_555 1_555
C84 N34 1_555 1_555
C85 C84 1_555 1_555
H136 C85 1_555 1_555
H137 C85 1_555 1_555
H138 C85 1_555 1_555
C86 H139 1_555 1_555
H140 C86 1_555 1_555
H141 C86 1_555 1_555
C87 N35 1_555 1_555
C88 C83 1_555 1_555
C89 N36 1_555 1_555
C90 C89 1_555 1_555
H142 C90 1_555 1_555
H143 C90 1_555 1_555
H144 C90 1_555 1_555
C91 H145 1_555 1_555
H146 C91 1_555 1_555
H147 C91 1_555 1_555
C92 N37 1_555 1_555
C93 C92 1_555 1_555
C94 N38 1_555 1_555
C95 C94 1_555 1_555
H148 C95 1_555 1_555
H149 C95 1_555 1_555
H150 C95 1_555 1_555
C96 H151 1_555 1_555
H152 C96 1_555 1_555
H153 C96 1_555 1_555
C97 N39 1_555 1_555
C98 C93 1_555 1_555
C99 N40 1_555 1_555
C100 C99 1_555 1_555
H154 C100 1_555 1_555
H155 C100 1_555 1_555
H156 C100 1_555 1_555
C101 H157 1_555 1_555
H158 C101 1_555 1_555
H159 C101 1_555 1_555
C102 N41 1_555 1_555
C103 C102 1_555 1_555
C104 N42 1_555 1_555
C105 C104 1_555 1_555
H160 C105 1_555 1_555
H161 C105 1_555 1_555
H162 C105 1_555 1_555
C106 H163 1_555 1_555
H164 C106 1_555 1_555
H165 C106 1_555 1_555
C107 N43 1_555 1_555
C108 C103 1_555 1_555
C109 N44 1_555 1_555
C110 C109 1_555 1_555
H166 C110 1_555 1_555
H167 C110 1_555 1_555
H168 C110 1_555 1_555
C111 H169 1_555 1_555
H170 C111 1_555 1_555
H171 C111 1_555 1_555
C112 N45 1_555 1_555
C113 C112 1_555 1_555
C114 N46 1_555 1_555
C115 C114 1_555 1_555
H172 C115 1_555 1_555
H173 C115 1_555 1_555
H174 C115 1_555 1_555
C116 H175 1_555 1_555
H176 C116 1_555 1_555
H177 C116 1_555 1_555
C117 N47 1_555 1_555
C118 C113 1_555 1_555
C119 N48 1_555 1_555
C120 C119 1_555 1_555
H178 C120 1_555 1_555
H179 C120 1_555 1_555
H180 C120 1_555 1_555
Mo1_2 O16_2 1_555 1_555
Mo2_2 O17_2 1_555 1_555
Mo3_2 O15_2 1_555 1_555
Mo4_2 O3_2 1_555 1_555
Mo5_2 O8_2 1_555 1_555
Mo6_2 O7_2 1_555 1_555
Mo7_2 O1_2 1_555 1_555
Mo8_2 O3_2 1_555 1_555
Mo18A O60A 1_555 1_555
Mo19A O65 1_555 1_555
Mo20A O69 1_555 1_555
Mo21A O80A 1_555 1_555
Mo22A O84 1_555 1_555
Mo23A O77A 1_555 1_555
Mo24A O82 1_555 1_555
Cu1_2 O45_2 1_555 1_555
Cu3_2 N13_2 1_555 1_555
Cu3_3 O9_2 1_555 1_555
Cu4_2 N3_2 1_555 1_555
Cu5_2 O48_2 1_555 1_555
Cu7_2 N29_2 1_555 1_555
Cu7_3 O18_2 1_555 1_555
Cu8_2 N19_2 1_555 1_555
O5_2 Mo8_2 1_555 1_555
O8_2 Mo7_2 1_555 1_555
O9_2 Mo3 1_555 1_555
O10_2 Mo4_2 1_555 1_555
O11_2 Mo7_2 1_555 1_555
O12_2 Mo6_2 1_555 1_555
O13_2 Mo8_2 1_555 1_555
O14_2 Mo5_2 1_555 1_555
O15_2 Mo6_2 1_555 1_555
O17_2 Mo1_2 1_555 1_555
O18_2 Mo2_2 1_555 1_555
O19_2 Mo1_2 1_555 1_555
O20_2 Mo4_2 1_555 1_555
O21_2 Mo1_2 1_555 1_555
O22_2 Mo2_2 1_555 1_555
O23_2 Mo1_2 1_555 1_555
O24_2 Mo5_2 1_555 1_555
O25_2 Mo2_2 1_555 1_555
O26_2 Mo3_2 1_555 1_555
O27_2 Mo4_2 1_555 1_555
O28_2 Mo1_2 1_555 1_555
O29_2 Mo2_2 1_555 1_555
O60A Mo20A 1_555 1_555
O62A Mo19A 1_555 1_555
O63A Mo19A 1_555 1_555
O64A Mo19A 1_555 1_555
O65A Mo19 1_555 1_555
O67A Mo19 1_555 1_555
O69A Mo19 1_555 1_555
O70A Mo20A 1_555 1_555
O71A Mo22A 1_555 1_555
O72A Mo22A 1_555 1_555
O73A Mo22A 1_555 1_555
H12A O73A 1_555 1_555
O77A Mo24A 1_555 1_555
O80A Mo22A 1_555 1_555
O81A Mo24A 1_555 1_555
O82A Mo24 1_555 1_555
O83A Mo21A 1_555 1_555
O84A Mo22 1_555 1_555
N1_2 Cu1_2 1_555 1_555
N2_2 N1_2 1_555 1_555
H13_2 N2_2 1_555 1_555
N3_2 N4_2 1_555 1_555
N4_2 H14_2 1_555 1_555
N5_2 Cu1_2 1_555 1_555
N13_2 N14_2 1_555 1_555
N14_2 H19_2 1_555 1_555
N15_2 Cu4_2 1_555 1_555
N16_2 N15_2 1_555 1_555
H20_2 N16_2 1_555 1_555
N17_2 Cu5_2 1_555 1_555
N18_2 N17_2 1_555 1_555
H21_2 N18_2 1_555 1_555
N19_2 N20_2 1_555 1_555
N20_2 H22_2 1_555 1_555
N22_2 Cu5_2 1_555 1_555
N29_2 N30_2 1_555 1_555
N30_2 H27_2 1_555 1_555
N31_2 Cu8_2 1_555 1_555
N32_2 N31_2 1_555 1_555
H28_2 N32_2 1_555 1_555
N47_2 H36_2 1_555 1_555
N48_2 N47_2 1_555 1_555
C1_2 H37_2 1_555 1_555
H38_2 C1_2 1_555 1_555
H39_2 C1_2 1_555 1_555
C2_2 N1_2 1_555 1_555
C3_2 C2_2 1_555 1_555
C4_2 N2_2 1_555 1_555
C5_2 C4_2 1_555 1_555
H40_2 C5_2 1_555 1_555
H41_2 C5_2 1_555 1_555
H42_2 C5_2 1_555 1_555
C6_2 H43_2 1_555 1_555
H44_2 C6_2 1_555 1_555
H45_2 C6_2 1_555 1_555
C7_2 N3_2 1_555 1_555
C8_2 C3_2 1_555 1_555
C9_2 N4_2 1_555 1_555
C10_2 C9_2 1_555 1_555
H46_2 C10_2 1_555 1_555
H47_2 C10_2 1_555 1_555
H48_2 C10_2 1_555 1_555
C31_2 H73_2 1_555 1_555
H74_2 C31_2 1_555 1_555
H75_2 C31_2 1_555 1_555
C32_2 N14_2 1_555 1_555
C33_2 C32_2 1_555 1_555
C34_2 N13_2 1_555 1_555
C35_2 C34_2 1_555 1_555
H76_2 C35_2 1_555 1_555
H77_2 C35_2 1_555 1_555
H78_2 C35_2 1_555 1_555
C36_2 H79_2 1_555 1_555
H80_2 C36_2 1_555 1_555
H81_2 C36_2 1_555 1_555
C37_2 C38 1_555 1_555
C38_2 C37 1_555 1_555
C39_2 C38 1_555 1_555
C40_2 C39_2 1_555 1_555
H82_2 C40_2 1_555 1_555
H83_2 C40_2 1_555 1_555
H84_2 C40_2 1_555 1_555
C41_2 H85_2 1_555 1_555
H86_2 C41_2 1_555 1_555
H87_2 C41_2 1_555 1_555
C42_2 N18_2 1_555 1_555
C43_2 C42_2 1_555 1_555
C44_2 N17_2 1_555 1_555
C45_2 C44_2 1_555 1_555
H88_2 C45_2 1_555 1_555
H89_2 C45_2 1_555 1_555
H90_2 C45_2 1_555 1_555
C46_2 H91_2 1_555 1_555
H92_2 C46_2 1_555 1_555
H93_2 C46_2 1_555 1_555
C47_2 N20_2 1_555 1_555
C48_2 C43_2 1_555 1_555
C49_2 N19_2 1_555 1_555
C50_2 C49_2 1_555 1_555
H94_2 C50_2 1_555 1_555
H95_2 C50_2 1_555 1_555
H96_2 C50_2 1_555 1_555
C71_2 H121_2 1_555 1_555
H122_2 C71_2 1_555 1_555
H123_2 C71_2 1_555 1_555
C72_2 N29_2 1_555 1_555
C73_2 C72_2 1_555 1_555
C74_2 N30_2 1_555 1_555
C75_2 C74_2 1_555 1_555
H124_2 C75_2 1_555 1_555
H125_2 C75_2 1_555 1_555
H126_2 C75_2 1_555 1_555
C76_2 H127_2 1_555 1_555
H128_2 C76_2 1_555 1_555
H129_2 C76_2 1_555 1_555
C77_2 C78 1_555 1_555
C78_2 C77 1_555 1_555
C79_2 C78 1_555 1_555
C80_2 C79_2 1_555 1_555
H130_2 C80_2 1_555 1_555
H131_2 C80_2 1_555 1_555
H132_2 C80_2 1_555 1_555
C113_2 C118_2 1_555 1_555
C116_2 H175_2 1_555 1_555
H176_2 C116_2 1_555 1_555
H177_2 C116_2 1_555 1_555
C117_2 C118 1_555 1_555
C118_2 C117 1_555 1_555
C119_2 C118 1_555 1_555
C120_2 C119_2 1_555 1_555
H178_2 C120_2 1_555 1_555
H179_2 C120_2 1_555 1_555
H180_2 C120_2 1_555 1_555
Mo2 O23 1_555 1_555
Mo3 O17 1_555 1_555
Mo3 O21 1_555 1_555
Mo3 O25 1_555 1_555
Mo4 O29 1_555 1_555
Mo5 O17 1_555 1_555
Mo5 O26 1_555 1_555
Mo5 O28 1_555 1_555
Mo6 O22 1_555 1_555
Mo6 O25 1_555 1_555
Mo6 O27 1_555 1_555
Mo7 O15 1_555 1_555
Mo7 O26 1_555 1_555
Mo8 O23 1_555 1_555
Mo8 O29 1_555 1_555
Mo11 O49 1_555 1_555
Mo11 O55 1_555 1_555
Mo12 O47 1_555 1_555
Mo12 O57 1_555 1_555
Mo13 O42 1_555 1_555
Mo13 O52 1_555 1_555
Mo13 O56 1_555 1_555
Mo14 O53 1_555 1_555
Mo14 O54 1_555 1_555
Mo14 O56 1_555 1_555
Mo14 O57 1_555 1_555
Mo15 O52 1_555 1_555
Mo15 O53 1_555 1_555
Mo15 O55 1_555 1_555
Mo15 O56 1_555 1_555
Mo16 O46 1_555 1_555
Mo16 O53 1_555 1_555
Mo16 O54 1_555 1_555
Mo18 O60 1_555 1_555
Mo18 O61 1_555 1_555
Mo19 O63 1_555 1_555
Mo20 O63 1_555 1_555
Mo20 O69 1_555 1_555
Mo20 O69A 1_555 1_555
Mo22 O80 1_555 1_555
Mo22 O83 1_555 1_555
Mo23 O78 1_555 1_555
Mo23 O82 1_555 1_555
Mo24 O82 1_555 1_555
Mo24 O83 1_555 1_555
Mo24 O84A 1_555 1_555
O67 Mo19A 1_555 1_555
O69 Mo19A 1_555 1_555
O84 Mo24A 1_555 1_555
N9 N10 1_555 1_555
N11 N12 1_555 1_555
N21 N22 1_555 1_555
N33 N34 1_555 1_555
N45 N46 1_555 1_555
N47 N48 1_555 1_555
C1 C2 1_555 1_555
C3 C4 1_555 1_555
C6 C7 1_555 1_555
C7 C8 1_555 1_555
C8 C9 1_555 1_555
C11 C12 1_555 1_555
C13 C14 1_555 1_555
C16 C17 1_555 1_555
C17 C18 1_555 1_555
C18 C19 1_555 1_555
C21 C22 1_555 1_555
C23 C24 1_555 1_555
C26 C27 1_555 1_555
C27 C28 1_555 1_555
C28 C29 1_555 1_555
C31 C32 1_555 1_555
C33 C34 1_555 1_555
C36 C37 1_555 1_555
C39 C38_2 1_555 1_555
C41 C42 1_555 1_555
C43 C44 1_555 1_555
C46 C47 1_555 1_555
C47 C48 1_555 1_555
C48 C49 1_555 1_555
C51 C52 1_555 1_555
C53 C54 1_555 1_555
C56 C57 1_555 1_555
C57 C58 1_555 1_555
C58 C59 1_555 1_555
C61 C62 1_555 1_555
C63 C64 1_555 1_555
C66 C67 1_555 1_555
C67 C68 1_555 1_555
C68 C69 1_555 1_555
C71 C72 1_555 1_555
C73 C74 1_555 1_555
C76 C77 1_555 1_555
C79 C78_2 1_555 1_555
C81 C82 1_555 1_555
C83 C84 1_555 1_555
C86 C87 1_555 1_555
C87 C88 1_555 1_555
C88 C89 1_555 1_555
C91 C92 1_555 1_555
C93 C94 1_555 1_555
C96 C97 1_555 1_555
C97 C98 1_555 1_555
C98 C99 1_555 1_555
C101 C102 1_555 1_555
C103 C104 1_555 1_555
C106 C107 1_555 1_555
C107 C108 1_555 1_555
C108 C109 1_555 1_555
C111 C112 1_555 1_555
C113 C114 1_555 1_555
C116 C117 1_555 1_555
C119 C118_2 1_555 1_555
Mo2_2 O23_2 1_555 1_555
Mo3_2 O17_2 1_555 1_555
Mo3_2 O21_2 1_555 1_555
Mo3_2 O25_2 1_555 1_555
Mo4_2 O29_2 1_555 1_555
Mo5_2 O17_2 1_555 1_555
Mo5_2 O26_2 1_555 1_555
Mo5_2 O28_2 1_555 1_555
Mo6_2 O22_2 1_555 1_555
Mo6_2 O25_2 1_555 1_555
Mo6_2 O27_2 1_555 1_555
Mo7_2 O15_2 1_555 1_555
Mo7_2 O26_2 1_555 1_555
Mo8_2 O23_2 1_555 1_555
Mo8_2 O29_2 1_555 1_555
Mo18A O67A 1_555 1_555
Mo18A O69A 1_555 1_555
Mo20A O63A 1_555 1_555
Mo20A O65A 1_555 1_555
Mo20A O69A 1_555 1_555
Mo21A O82A 1_555 1_555
Mo22A O83A 1_555 1_555
Mo23A O82A 1_555 1_555
Mo23A O84A 1_555 1_555
Mo24A O82A 1_555 1_555
Mo24A O83A 1_555 1_555
N15_2 C39_2 1_555 1_555
N16_2 C37_2 1_555 1_555
N31_2 C77_2 1_555 1_555
N32_2 C79_2 1_555 1_555
N47_2 C117_2 1_555 1_555
N48_2 C119_2 1_555 1_555
C1_2 C2_2 1_555 1_555
C3_2 C4_2 1_555 1_555
C6_2 C7_2 1_555 1_555
C7_2 C8_2 1_555 1_555
C8_2 C9_2 1_555 1_555
C31_2 C32_2 1_555 1_555
C33_2 C34_2 1_555 1_555
C33_2 C38_2 1_555 1_555
C36_2 C37_2 1_555 1_555
C41_2 C42_2 1_555 1_555
C43_2 C44_2 1_555 1_555
C46_2 C47_2 1_555 1_555
C47_2 C48_2 1_555 1_555
C48_2 C49_2 1_555 1_555
C71_2 C72_2 1_555 1_555
C73_2 C74_2 1_555 1_555
C73_2 C78_2 1_555 1_555
C76_2 C77_2 1_555 1_555
C116_2 C117_2 1_555 1_555

#END
