
#######################################################################
#
#                 Cambridge Crystallographic Data Centre
#                                CCDC 
#
#######################################################################
#
# If this CIF has been generated from an entry in the Cambridge 
# Structural Database, then it will include bibliographic, chemical, 
# crystal, experimental, refinement or atomic coordinate data resulting 
# from the CCDC's data processing and validation procedures.
#
#######################################################################

data_QAVFAW
_symmetry_cell_setting           triclinic
_symmetry_space_group_name_H-M   'P -1'
_symmetry_Int_Tables_number      2
_space_group_name_Hall           '-P 1'
loop_
_symmetry_equiv_pos_site_id
_symmetry_equiv_pos_as_xyz
1 x,y,z
2 -x,-y,-z
_cell_length_a                   8.7413(17)
_cell_length_b                   10.086(2)
_cell_length_c                   13.318(3)
_cell_angle_alpha                82.14(3)
_cell_angle_beta                 87.82(3)
_cell_angle_gamma                89.04(3)
_cell_volume                     1162.23
loop_
_atom_site_label
_atom_site_type_symbol
_atom_site_fract_x
_atom_site_fract_y
_atom_site_fract_z
Cd1 Cd 1.5000 0.5000 0.5000
Cd2 Cd 1.5000 1.0000 0.5000
Cl1 Cl 1.40357(11) 0.75701(9) 0.49994(7)
Cl2 Cl 1.45843(12) 0.53361(11) 0.30173(7)
O1 O 0.9646(5) 0.8098(4) 1.0654(4)
O2 O 0.5706(5) 0.2309(3) 0.9748(3)
O3 O 1.0854(4) 0.6083(3) 0.7690(2)
N1 N 0.6932(4) 0.9622(3) 1.3762(3)
N2 N 0.7473(4) 0.7780(4) 1.1592(3)
H1 H 0.6645 0.7325 1.1689
N3 N 0.5326(5) 0.2951(3) 1.1292(2)
H2 H 0.5451 0.3598 1.1639
N4 N 0.3705(4) 0.0682(3) 1.3400(3)
N5 N 0.9346(4) 0.4524(4) 0.7173(2)
H3 H 0.8456 0.4170 0.7268
N6 N 1.2559(4) 0.4216(3) 0.5339(2)
C1 C 0.8006(6) 1.0542(5) 1.3557(4)
H4 H 0.8127 1.1149 1.4013
C2 C 0.8947(7) 1.0639(5) 1.2704(5)
H5 H 0.9693 1.1294 1.2592
C3 C 0.8779(7) 0.9758(5) 1.2014(4)
H6 H 0.9374 0.9831 1.1416
C4 C 0.7704(5) 0.8763(4) 1.2233(3)
C5 C 0.6791(5) 0.8737(4) 1.3109(3)
H7 H 0.6051 0.8078 1.3248
C6 C 0.8453(5) 0.7503(4) 1.0840(3)
C7 C 0.8085(5) 0.6390(4) 1.0251(3)
C8 C 0.8882(5) 0.6389(4) 0.9347(3)
H8 H 0.9555 0.7081 0.9126
C9 C 0.8707(5) 0.5380(4) 0.8755(3)
C10 C 0.7713(5) 0.4334(4) 0.9107(3)
H9 H 0.7591 0.3646 0.8719
C11 C 0.6908(5) 0.4307(4) 1.0024(3)
C12 C 0.7088(5) 0.5341(4) 1.0600(3)
H10 H 0.6548 0.5336 1.1215
C13 C 0.5937(5) 0.3097(4) 1.0340(3)
C14 C 0.4498(5) 0.1833(4) 1.1776(3)
C15 C 0.3822(6) 0.0883(4) 1.1286(3)
H11 H 0.3879 0.0935 1.0583
C16 C 0.3055(6) -0.0150(5) 1.1883(4)
H12 H 0.2567 -0.0798 1.1582
C17 C 0.3019(6) -0.0213(5) 1.2923(3)
H13 H 0.2493 -0.0909 1.3310
C18 C 0.4405(5) 0.1697(4) 1.2821(3)
H14 H 0.4854 0.2348 1.3141
C19 C 0.9722(5) 0.5381(4) 0.7820(3)
C20 C 1.0253(4) 0.4153(4) 0.6363(3)
C21 C 0.9644(5) 0.3253(4) 0.5787(3)
H15 H 0.8654 0.2939 0.5925
C22 C 1.0530(5) 0.2834(4) 0.5011(3)
H16 H 1.0154 0.2211 0.4631
C23 C 1.1972(5) 0.3343(4) 0.4801(3)
H17 H 1.2556 0.3069 0.4266
C24 C 1.1727(4) 0.4617(4) 0.6115(3)
H18 H 1.2146 0.5219 0.6494
Cd2_2 Cd 0.5000 1.0000 1.5000
Cd2_3 Cd 0.5000 0.0000 1.5000
Cd2_4 Cd 1.5000 0.0000 0.5000
Cd2_5 Cd 2.5000 0.0000 -0.5000
Cd2_6 Cd 2.5000 1.0000 -0.5000
Cl1A Cl 1.59643(11) 0.24299(9) 0.50006(7)
Cl1A_2 Cl 1.59643(11) 1.24299(9) 0.50006(7)
Cl2A Cl 1.54157(12) 0.46639(11) 0.69827(7)
O1A O 2.0354(5) 0.1902(4) -0.0654(4)
O2A O 2.4294(5) 0.7691(3) 0.0252(3)
O3A O 1.9146(4) 0.3917(3) 0.2310(2)
N1A N 2.3068(4) 0.0378(3) -0.3762(3)
N1_2 N 1.6932(4) 0.9622(3) 0.3762(3)
N1A_2 N 1.3068(4) 1.0378(3) 0.6238(3)
N2A N 2.2527(4) 0.2220(4) -0.1592(3)
H1A H 2.3355 0.2675 -0.1689
N3A N 2.4674(5) 0.7049(3) -0.1292(2)
H2A H 2.4549 0.6402 -0.1639
N4A N 2.6295(4) 0.9318(3) -0.3400(3)
N4_2 N 1.3705(4) 1.0682(3) 0.3400(3)
N4A_2 N 1.6295(4) 0.9318(3) 0.6600(3)
N5A N 2.0654(4) 0.5476(4) 0.2827(2)
H3A H 2.1544 0.5830 0.2732
N6A N 1.7441(4) 0.5784(3) 0.4661(2)
C1A C 2.1994(6) -0.0542(5) -0.3557(4)
H4A H 2.1873 -0.1149 -0.4013
C2A C 2.1053(7) -0.0639(5) -0.2704(5)
H5A H 2.0307 -0.1294 -0.2592
C3A C 2.1221(7) 0.0242(5) -0.2014(4)
H6A H 2.0626 0.0169 -0.1416
C4A C 2.2296(5) 0.1237(4) -0.2233(3)
C5A C 2.3209(5) 0.1263(4) -0.3109(3)
H7A H 2.3949 0.1922 -0.3248
C6A C 2.1547(5) 0.2497(4) -0.0840(3)
C7A C 2.1915(5) 0.3610(4) -0.0251(3)
C8A C 2.1118(5) 0.3611(4) 0.0653(3)
H8A H 2.0445 0.2919 0.0874
C9A C 2.1293(5) 0.4620(4) 0.1245(3)
C10A C 2.2287(5) 0.5666(4) 0.0893(3)
H9A H 2.2409 0.6354 0.1281
C11A C 2.3092(5) 0.5693(4) -0.0024(3)
C12A C 2.2912(5) 0.4659(4) -0.0600(3)
H10A H 2.3452 0.4664 -0.1215
C13A C 2.4063(5) 0.6903(4) -0.0340(3)
C14A C 2.5502(5) 0.8167(4) -0.1776(3)
C15A C 2.6178(6) 0.9117(4) -0.1286(3)
H11A H 2.6121 0.9065 -0.0583
C16A C 2.6945(6) 1.0150(5) -0.1883(4)
H12A H 2.7433 1.0798 -0.1582
C17A C 2.6981(6) 1.0213(5) -0.2923(3)
H13A H 2.7507 1.0909 -0.3310
C18A C 2.5595(5) 0.8303(4) -0.2821(3)
H14A H 2.5146 0.7652 -0.3141
C19A C 2.0278(5) 0.4619(4) 0.2180(3)
C20A C 1.9747(4) 0.5847(4) 0.3637(3)
C21A C 2.0356(5) 0.6747(4) 0.4213(3)
H15A H 2.1346 0.7061 0.4075
C22A C 1.9470(5) 0.7166(4) 0.4989(3)
H16A H 1.9846 0.7789 0.5369
C23A C 1.8028(5) 0.6657(4) 0.5199(3)
H17A H 1.7444 0.6931 0.5734
C24A C 1.8273(4) 0.5383(4) 0.3885(3)
H18A H 1.7854 0.4781 0.3506
loop_
_geom_bond_atom_site_label_1
_geom_bond_atom_site_label_2
_geom_bond_site_symmetry_1
_geom_bond_site_symmetry_2
Cd1 Cl1 1_555 1_555
Cd2 Cl1 1_555 1_555
Cl2 Cd1 1_555 1_555
O1 C6 1_555 1_555
O2 C13 1_555 1_555
O3 C19 1_555 1_555
N1 C1 1_555 1_555
N2 H1 1_555 1_555
N3 H2 1_555 1_555
N4 C17 1_555 1_555
N5 H3 1_555 1_555
N6 Cd1 1_555 1_555
C1 H4 1_555 1_555
C2 C1 1_555 1_555
H5 C2 1_555 1_555
C3 C2 1_555 1_555
H6 C3 1_555 1_555
C4 N2 1_555 1_555
C5 N1 1_555 1_555
H7 C5 1_555 1_555
C6 N2 1_555 1_555
C7 C6 1_555 1_555
C8 C7 1_555 1_555
H8 C8 1_555 1_555
C9 C8 1_555 1_555
C10 C9 1_555 1_555
H9 C10 1_555 1_555
C11 C10 1_555 1_555
C12 C7 1_555 1_555
H10 C12 1_555 1_555
C13 N3 1_555 1_555
C14 N3 1_555 1_555
C15 C14 1_555 1_555
H11 C15 1_555 1_555
C16 C15 1_555 1_555
H12 C16 1_555 1_555
C17 C16 1_555 1_555
H13 C17 1_555 1_555
C18 N4 1_555 1_555
H14 C18 1_555 1_555
C19 N5 1_555 1_555
C20 N5 1_555 1_555
C21 C20 1_555 1_555
H15 C21 1_555 1_555
C22 C21 1_555 1_555
H16 C22 1_555 1_555
C23 N6 1_555 1_555
H17 C23 1_555 1_555
C24 N6 1_555 1_555
H18 C24 1_555 1_555
Cd2_2 N1 1_555 1_555
Cd2_3 N4 1_555 1_555
Cd2_4 Cl1A 1_555 1_555
Cd2_5 N1A 1_555 1_555
Cd2_6 N4A 1_555 1_555
Cl1A Cd1 1_555 1_555
Cl1A_2 Cd2 1_555 1_555
Cl2A Cd1 1_555 1_555
O1A C6A 1_555 1_555
O2A C13A 1_555 1_555
O3A C19A 1_555 1_555
N1A C1A 1_555 1_555
N1_2 Cd2 1_555 1_555
N1A_2 Cd2 1_555 1_555
N2A H1A 1_555 1_555
N3A H2A 1_555 1_555
N4A C17A 1_555 1_555
N4_2 Cd2 1_555 1_555
N4A_2 Cd2 1_555 1_555
N5A H3A 1_555 1_555
N6A Cd1 1_555 1_555
C1A H4A 1_555 1_555
C2A C1A 1_555 1_555
H5A C2A 1_555 1_555
C3A C2A 1_555 1_555
H6A C3A 1_555 1_555
C4A N2A 1_555 1_555
C5A N1A 1_555 1_555
H7A C5A 1_555 1_555
C6A N2A 1_555 1_555
C7A C6A 1_555 1_555
C8A C7A 1_555 1_555
H8A C8A 1_555 1_555
C9A C8A 1_555 1_555
C10A C9A 1_555 1_555
H9A C10A 1_555 1_555
C11A C10A 1_555 1_555
C12A C7A 1_555 1_555
H10A C12A 1_555 1_555
C13A N3A 1_555 1_555
C14A N3A 1_555 1_555
C15A C14A 1_555 1_555
H11A C15A 1_555 1_555
C16A C15A 1_555 1_555
H12A C16A 1_555 1_555
C17A C16A 1_555 1_555
H13A C17A 1_555 1_555
C18A N4A 1_555 1_555
H14A C18A 1_555 1_555
C19A N5A 1_555 1_555
C20A N5A 1_555 1_555
C21A C20A 1_555 1_555
H15A C21A 1_555 1_555
C22A C21A 1_555 1_555
H16A C22A 1_555 1_555
C23A N6A 1_555 1_555
H17A C23A 1_555 1_555
C24A N6A 1_555 1_555
H18A C24A 1_555 1_555
C3 C4 1_555 1_555
C4 C5 1_555 1_555
C9 C19 1_555 1_555
C11 C12 1_555 1_555
C11 C13 1_555 1_555
C14 C18 1_555 1_555
C20 C24 1_555 1_555
C22 C23 1_555 1_555
C3A C4A 1_555 1_555
C4A C5A 1_555 1_555
C9A C19A 1_555 1_555
C11A C12A 1_555 1_555
C11A C13A 1_555 1_555
C14A C18A 1_555 1_555
C20A C24A 1_555 1_555
C22A C23A 1_555 1_555

#END
