
#######################################################################
#
#                 Cambridge Crystallographic Data Centre
#                                CCDC 
#
#######################################################################
#
# If this CIF has been generated from an entry in the Cambridge 
# Structural Database, then it will include bibliographic, chemical, 
# crystal, experimental, refinement or atomic coordinate data resulting 
# from the CCDC's data processing and validation procedures.
#
#######################################################################

data_QAVGUR
_symmetry_cell_setting           monoclinic
_symmetry_space_group_name_H-M   'C 2'
_symmetry_Int_Tables_number      5
_space_group_name_Hall           'C 2y'
loop_
_symmetry_equiv_pos_site_id
_symmetry_equiv_pos_as_xyz
1 x,y,z
2 -x,y,-z
3 1/2+x,1/2+y,z
4 1/2-x,1/2+y,-z
_cell_length_a                   25.128(3)
_cell_length_b                   9.9884(10)
_cell_length_c                   20.044(2)
_cell_angle_alpha                90
_cell_angle_beta                 99.307(1)
_cell_angle_gamma                90
_cell_volume                     4964.59
loop_
_atom_site_label
_atom_site_type_symbol
_atom_site_fract_x
_atom_site_fract_y
_atom_site_fract_z
C1 C 0.7504(3) 1.0009(9) 0.5794(4)
C2 C 0.8039(4) 0.9552(9) 0.5878(4)
H1 H 0.8264 0.9649 0.6291
C3 C 0.8223(3) 0.8968(9) 0.5351(4)
C4 C 0.7886(4) 0.8718(10) 0.4735(4)
H2 H 0.8020 0.8298 0.4382
C5 C 0.7349(3) 0.9109(10) 0.4663(4)
C6 C 0.7163(4) 0.9832(9) 0.5199(4)
H3 H 0.6815 1.0175 0.5142
C7 C 0.7275(3) 1.0625(10) 0.6380(4)
C8 C 0.9194(4) 0.8926(11) 0.5893(5)
H4 H 0.9199 0.9642 0.6190
C9 C 0.9610(4) 0.8082(14) 0.5818(5)
H5 H 0.9953 0.8122 0.6076
C10 C 0.8957(4) 0.7480(11) 0.5093(5)
H6 H 0.8753 0.7037 0.4731
C11 C 0.6442(3) 0.8513(11) 0.4094(4)
H7 H 0.6244 0.8689 0.4437
C12 C 0.6259(4) 0.7915(11) 0.3467(4)
H8 H 0.5912 0.7588 0.3329
C13 C 0.7090(3) 0.8383(11) 0.3477(4)
H9 H 0.7426 0.8452 0.3344
C14 C 0.7533(4) 0.8563(9) 0.0888(4)
C15 C 0.8052(4) 0.8975(9) 0.0938(5)
H10 H 0.8294 0.8831 0.1334
C16 C 0.8225(3) 0.9631(9) 0.0378(4)
C17 C 0.7868(4) 0.9845(9) -0.0221(4)
H11 H 0.7981 1.0243 -0.0593
C18 C 0.7339(3) 0.9444(9) -0.0241(4)
C19 C 0.7172(4) 0.8766(9) 0.0292(4)
H12 H 0.6821 0.8447 0.0251
C20 C 0.7340(4) 0.7881(9) 0.1490(5)
C21 C 0.8932(3) 1.1135(11) 0.0087(5)
H13 H 0.8705 1.1623 -0.0238
C22 C 0.9626(4) 1.0397(13) 0.0745(6)
H14 H 0.9979 1.0284 0.0964
C23 C 0.9214(4) 0.9649(13) 0.0840(5)
H15 H 0.9229 0.8936 0.1140
C24 C 0.6410(4) 0.9945(13) -0.0856(5)
H16 H 0.6211 0.9860 -0.0504
C25 C 0.6226(4) 1.0300(11) -0.1489(5)
H17 H 0.5867 1.0493 -0.1657
C26 C 0.7076(4) 1.0006(10) -0.1466(4)
H18 H 0.7416 0.9958 -0.1590
C27 C 1.1053(5) 0.3213(14) 0.6376(7)
H19 H 1.1147 0.3726 0.6795
C28 C 1.1572(5) 0.2673(12) 0.6172(8)
H20 H 1.1539 0.2633 0.5683
H21 H 1.1874 0.3250 0.6344
C29 C 1.1659(5) 0.1316(12) 0.6465(7)
H22 H 1.2016 0.1258 0.6733
H23 H 1.1634 0.0657 0.6106
C30 C 1.1235(5) 0.1035(13) 0.6906(7)
C31 C 1.0760(6) 0.1918(13) 0.6538(7)
C32 C 1.0712(4) 0.4088(9) 0.5861(5)
C33 C 1.1129(4) -0.0455(10) 0.6967(5)
C34 C 1.0378(6) 0.2350(15) 0.7038(7)
H24 H 1.0178 0.1588 0.7152
H25 H 1.0132 0.3022 0.6830
H26 H 1.0588 0.2709 0.7441
C35 C 1.0481(5) 0.1285(14) 0.5924(7)
H27 H 1.0739 0.1018 0.5645
H28 H 1.0231 0.1909 0.5680
H29 H 1.0289 0.0513 0.6041
C36 C 1.1465(6) 0.1585(14) 0.7624(7)
H30 H 1.1758 0.1027 0.7828
H31 H 1.1186 0.1584 0.7899
H32 H 1.1593 0.2482 0.7585
C37 C 0.6381(5) 0.2209(11) 0.2080(6)
C38 C 0.6007(5) 0.1638(11) 0.2480(6)
H33 H 0.5738 0.2301 0.2542
H34 H 0.6200 0.1398 0.2923
C39 C 0.5730(5) 0.0403(11) 0.2143(5)
H35 H 0.5343 0.0528 0.2040
H36 H 0.5808 -0.0383 0.2427
C40 C 0.5989(4) 0.0279(9) 0.1470(5)
H37 H 0.6319 -0.0249 0.1593
C41 C 0.6175(5) 0.1717(10) 0.1354(6)
C42 C 0.6458(4) 0.3757(11) 0.2151(5)
C43 C 0.5649(3) -0.0476(10) 0.0921(5)
C44 C 0.5702(5) 0.2579(11) 0.1027(6)
H38 H 0.5577 0.2264 0.0576
H39 H 0.5817 0.3493 0.1010
H40 H 0.5414 0.2521 0.1289
C45 C 0.6583(5) 0.1711(12) 0.0871(6)
H41 H 0.6413 0.1396 0.0436
H42 H 0.6878 0.1131 0.1044
H43 H 0.6716 0.2603 0.0828
C46 C 0.6962(4) 0.1759(12) 0.2299(6)
H44 H 0.6979 0.0799 0.2288
H45 H 0.7089 0.2069 0.2750
H46 H 0.7184 0.2125 0.1997
Cd1 Cd 0.66516(2) 0.63911(5) 0.22583(3)
Cd2 Cd 0.66472(3) 1.17455(6) 0.72585(3)
Cd3 Cd 1.0000 0.55712(9) 0.5000
Cd4 Cd 1.0000 1.30357(9) 0.0000
N1 N 0.9456(3) 0.7184(8) 0.5319(4)
N2 N 0.8761(3) 0.8471(8) 0.5424(3)
N3 N 0.6660(3) 0.7884(9) 0.3092(4)
N4 N 0.6985(3) 0.8786(9) 0.4092(4)
N5 N 0.6640(3) 1.0343(9) -0.1862(3)
N6 N 0.6960(3) 0.9726(8) -0.0825(4)
N7 N 0.9455(3) 1.1380(9) 0.0270(4)
N8 N 0.8770(3) 1.0075(9) 0.0436(4)
O1 O 0.6815(2) 1.1127(7) 0.6245(3)
O2 O 0.7527(2) 1.0539(7) 0.6964(3)
O3 O 0.6870(3) 0.7371(7) 0.1352(3)
O4 O 0.7626(3) 0.7874(8) 0.2036(3)
O5 O 1.0743(3) 0.3997(9) 0.5258(4)
O6 O 1.0366(3) 0.4831(7) 0.6061(3)
O7 O 1.0695(3) -0.0866(9) 0.7131(6)
O8 O 1.1500(3) -0.1235(8) 0.6872(4)
O9 O 0.6715(3) 0.4372(6) 0.1745(3)
O10 O 0.6265(2) 0.4326(6) 0.2585(3)
O11 O 0.5719(3) -0.0380(9) 0.0319(3)
O12 O 0.5298(3) -0.1256(7) 0.1074(3)
O13 O 0.5730(3) 0.6820(8) 0.1928(4)
O14 O 0.5722(3) 1.1415(8) 0.7124(3)
C1A C 1.2496(3) 1.0009(9) 0.4206(4)
C2A C 1.1961(4) 0.9552(9) 0.4122(4)
H1A H 1.1736 0.9649 0.3709
C3A C 1.1777(3) 0.8968(9) 0.4649(4)
C4A C 1.2114(4) 0.8718(10) 0.5265(4)
H2A H 1.1980 0.8298 0.5618
C5A C 1.2651(3) 0.9109(10) 0.5337(4)
C6A C 1.2837(4) 0.9832(9) 0.4801(4)
H3A H 1.3185 1.0175 0.4858
C7A C 1.2725(3) 1.0625(10) 0.3620(4)
C8A C 1.0806(4) 0.8926(11) 0.4107(5)
H4A H 1.0801 0.9642 0.3810
C9A C 1.0390(4) 0.8082(14) 0.4182(5)
H5A H 1.0047 0.8122 0.3924
C10A C 1.1043(4) 0.7480(11) 0.4907(5)
H6A H 1.1247 0.7037 0.5269
C11A C 1.3558(3) 0.8513(11) 0.5906(4)
H7A H 1.3756 0.8689 0.5563
C12A C 1.3741(4) 0.7915(11) 0.6533(4)
H8A H 1.4088 0.7588 0.6671
C13A C 1.2910(3) 0.8383(11) 0.6523(4)
H9A H 1.2574 0.8452 0.6656
C14_2 C 0.7533(4) 0.8563(9) 1.0888(4)
C15_2 C 0.8052(4) 0.8975(9) 1.0938(5)
H10_2 H 0.8294 0.8831 1.1334
C16_2 C 0.8225(3) 0.9631(9) 1.0378(4)
C17_2 C 0.7868(4) 0.9845(9) 0.9779(4)
H11_2 H 0.7981 1.0243 0.9407
C18_2 C 0.7339(3) 0.9444(9) 0.9759(4)
C19_2 C 0.7172(4) 0.8766(9) 1.0292(4)
H12_2 H 0.6821 0.8447 1.0251
C20_2 C 0.7340(4) 0.7881(9) 1.1490(5)
C21_2 C 0.8932(3) 1.1135(11) 1.0087(5)
H13_2 H 0.8705 1.1623 0.9762
C22_2 C 0.9626(4) 1.0397(13) 1.0745(6)
H14_2 H 0.9979 1.0284 1.0964
C23_2 C 0.9214(4) 0.9649(13) 1.0840(5)
H15_2 H 0.9229 0.8936 1.1140
C24_2 C 0.6410(4) 0.9945(13) 0.9144(5)
H16_2 H 0.6211 0.9860 0.9496
C25_2 C 0.6226(4) 1.0300(11) 0.8511(5)
H17_2 H 0.5867 1.0493 0.8343
C26_2 C 0.7076(4) 1.0006(10) 0.8534(4)
H18_2 H 0.7416 0.9958 0.8410
C27A C 0.8947(5) 0.3213(14) 0.3624(7)
H19A H 0.8853 0.3726 0.3205
C28A C 0.8428(5) 0.2673(12) 0.3828(8)
H20A H 0.8461 0.2633 0.4317
H21A H 0.8126 0.3250 0.3656
C29A C 0.8341(5) 0.1316(12) 0.3535(7)
H22A H 0.7984 0.1258 0.3267
H23A H 0.8366 0.0657 0.3894
C30A C 0.8765(5) 0.1035(13) 0.3094(7)
C31A C 0.9240(6) 0.1918(13) 0.3462(7)
C32A C 0.9288(4) 0.4088(9) 0.4139(5)
C33A C 0.8871(4) -0.0455(10) 0.3033(5)
C34A C 0.9622(6) 0.2350(15) 0.2962(7)
H24A H 0.9822 0.1588 0.2848
H25A H 0.9868 0.3022 0.3170
H26A H 0.9412 0.2709 0.2559
C35A C 0.9519(5) 0.1285(14) 0.4076(7)
H27A H 0.9261 0.1018 0.4355
H28A H 0.9769 0.1909 0.4320
H29A H 0.9711 0.0513 0.3959
C36A C 0.8535(6) 0.1585(14) 0.2376(7)
H30A H 0.8242 0.1027 0.2172
H31A H 0.8814 0.1584 0.2101
H32A H 0.8407 0.2482 0.2415
C37A C 1.3619(5) 0.2209(11) 0.7920(6)
C38A C 1.3993(5) 0.1638(11) 0.7520(6)
H33A H 1.4262 0.2301 0.7458
H34A H 1.3800 0.1398 0.7077
C39A C 1.4270(5) 0.0403(11) 0.7857(5)
H35A H 1.4657 0.0528 0.7960
H36A H 1.4192 -0.0383 0.7573
C40A C 1.4011(4) 0.0279(9) 0.8530(5)
H37A H 1.3681 -0.0249 0.8407
C41A C 1.3825(5) 0.1717(10) 0.8646(6)
C42A C 1.3542(4) 0.3757(11) 0.7849(5)
C43A C 1.4351(3) -0.0476(10) 0.9079(5)
C44A C 1.4298(5) 0.2579(11) 0.8973(6)
H38A H 1.4423 0.2264 0.9424
H39A H 1.4183 0.3493 0.8990
H40A H 1.4586 0.2521 0.8711
C45A C 1.3417(5) 0.1711(12) 0.9129(6)
H41A H 1.3587 0.1396 0.9564
H42A H 1.3122 0.1131 0.8956
H43A H 1.3284 0.2603 0.9172
C46A C 1.3038(4) 0.1759(12) 0.7701(6)
H44A H 1.3021 0.0799 0.7712
H45A H 1.2911 0.2069 0.7250
H46A H 1.2816 0.2125 0.8003
Cd1A Cd 1.33484(2) 0.63911(5) 0.77417(3)
Cd1C Cd 0.83484(2) 1.13911(5) 0.77417(3)
Cd1B Cd 1.16516(2) 1.13911(5) 0.22583(3)
Cd1_2 Cd 0.66516(2) 0.63911(5) 1.22583(3)
Cd2A Cd 1.33528(3) 1.17455(6) 0.27415(3)
Cd2_2 Cd 0.66472(3) 1.17455(6) -0.27415(3)
Cd2C Cd 0.83528(3) 0.67455(6) 0.27415(3)
Cd2B Cd 1.16472(3) -0.32545(6) 0.72585(3)
Cd2C_2 Cd 0.83528(3) -0.32545(6) 0.27415(3)
Cd2C_3 Cd 0.83528(3) 0.67455(6) 1.27415(3)
Cd4B Cd 0.5000 -0.19643(9) 0.0000
Cd4_2 Cd 1.0000 1.30357(9) 1.0000
Cd4B_2 Cd 1.5000 -0.19643(9) 1.0000
N1A N 1.0544(3) 0.7184(8) 0.4681(4)
N2A N 1.1239(3) 0.8471(8) 0.4576(3)
N3A N 1.3340(3) 0.7884(9) 0.6908(4)
N4A N 1.3015(3) 0.8786(9) 0.5908(4)
N5_2 N 0.6640(3) 1.0343(9) 0.8138(3)
N5A N 1.3360(3) 1.0343(9) 0.1862(3)
N6_2 N 0.6960(3) 0.9726(8) 0.9175(4)
N7_2 N 0.9455(3) 1.1380(9) 1.0270(4)
N7A N 1.0545(3) 1.1380(9) -0.0270(4)
N8_2 N 0.8770(3) 1.0075(9) 1.0436(4)
O1A O 1.3185(2) 1.1127(7) 0.3755(3)
O2A O 1.2473(2) 1.0539(7) 0.3036(3)
O2C O 0.7473(2) 0.5539(7) 0.3036(3)
O2B O 1.2527(2) 0.5539(7) 0.6964(3)
O3_2 O 0.6870(3) 0.7371(7) 1.1352(3)
O3A O 1.3130(3) 0.7371(7) 0.8648(3)
O4_2 O 0.7626(3) 0.7874(8) 1.2036(3)
O4C O 0.7374(3) 1.2874(8) 0.7964(3)
O4B O 1.2626(3) 1.2874(8) 0.2036(3)
O5A O 0.9257(3) 0.3997(9) 0.4742(4)
O6A O 0.9634(3) 0.4831(7) 0.3939(3)
O7A O 0.9305(3) -0.0866(9) 0.2869(6)
O8A O 0.8500(3) -0.1235(8) 0.3128(4)
O8B O 0.6500(3) 1.3765(8) 0.6872(4)
O8C O 1.3500(3) 1.3765(8) 0.3128(4)
O9A O 1.3285(3) 0.4372(6) 0.8255(3)
O10A O 1.3735(2) 0.4326(6) 0.7415(3)
O11A O 1.4281(3) -0.0380(9) 0.9681(3)
O11B O 1.0719(3) 1.4620(9) 0.0319(3)
O11C O 0.9281(3) 1.4620(9) -0.0319(3)
O12A O 1.4702(3) -0.1256(7) 0.8926(3)
O12B O 1.0298(3) 1.3744(7) 0.1074(3)
O12C O 0.9702(3) 1.3744(7) -0.1074(3)
O13A O 1.4270(3) 0.6820(8) 0.8072(4)
O14A O 1.4278(3) 1.1415(8) 0.2876(3)
O15 O 0.9834(3) 0.9673(11) 0.7740(5)
loop_
_geom_bond_atom_site_label_1
_geom_bond_atom_site_label_2
_geom_bond_site_symmetry_1
_geom_bond_site_symmetry_2
C1 C2 1_555 1_555
C2 H1 1_555 1_555
C3 C2 1_555 1_555
C4 C3 1_555 1_555
H2 C4 1_555 1_555
C5 C4 1_555 1_555
C6 C1 1_555 1_555
H3 C6 1_555 1_555
C7 C1 1_555 1_555
C8 H4 1_555 1_555
C9 C8 1_555 1_555
H5 C9 1_555 1_555
C10 H6 1_555 1_555
C11 H7 1_555 1_555
C12 C11 1_555 1_555
H8 C12 1_555 1_555
C13 H9 1_555 1_555
C14 C15 1_555 1_555
C15 H10 1_555 1_555
C16 C15 1_555 1_555
C17 C16 1_555 1_555
H11 C17 1_555 1_555
C18 C17 1_555 1_555
C19 C14 1_555 1_555
H12 C19 1_555 1_555
C20 C14 1_555 1_555
C21 H13 1_555 1_555
C22 H14 1_555 1_555
C23 C22 1_555 1_555
H15 C23 1_555 1_555
C24 H16 1_555 1_555
C25 C24 1_555 1_555
H17 C25 1_555 1_555
C26 H18 1_555 1_555
C27 H19 1_555 1_555
C28 C27 1_555 1_555
H20 C28 1_555 1_555
H21 C28 1_555 1_555
C29 C28 1_555 1_555
H22 C29 1_555 1_555
H23 C29 1_555 1_555
C30 C29 1_555 1_555
C31 C27 1_555 1_555
C32 C27 1_555 1_555
C33 C30 1_555 1_555
C34 C31 1_555 1_555
H24 C34 1_555 1_555
H25 C34 1_555 1_555
H26 C34 1_555 1_555
C35 C31 1_555 1_555
H27 C35 1_555 1_555
H28 C35 1_555 1_555
H29 C35 1_555 1_555
C36 C30 1_555 1_555
H30 C36 1_555 1_555
H31 C36 1_555 1_555
H32 C36 1_555 1_555
C37 C38 1_555 1_555
C38 H33 1_555 1_555
H34 C38 1_555 1_555
C39 C38 1_555 1_555
H35 C39 1_555 1_555
H36 C39 1_555 1_555
C40 C39 1_555 1_555
H37 C40 1_555 1_555
C41 C37 1_555 1_555
C42 C37 1_555 1_555
C43 C40 1_555 1_555
C44 C41 1_555 1_555
H38 C44 1_555 1_555
H39 C44 1_555 1_555
H40 C44 1_555 1_555
C45 C41 1_555 1_555
H41 C45 1_555 1_555
H42 C45 1_555 1_555
H43 C45 1_555 1_555
C46 C37 1_555 1_555
H44 C46 1_555 1_555
H45 C46 1_555 1_555
H46 C46 1_555 1_555
Cd1 N3 1_555 1_555
Cd2 O1 1_555 1_555
Cd3 N1 1_555 1_555
Cd4 N7 1_555 1_555
N1 C9 1_555 1_555
N2 C3 1_555 1_555
N3 C12 1_555 1_555
N4 C5 1_555 1_555
N5 C25 1_555 1_555
N6 C18 1_555 1_555
N7 C21 1_555 1_555
N8 C16 1_555 1_555
O1 C7 1_555 1_555
O2 C7 1_555 1_555
O3 C20 1_555 1_555
O4 C20 1_555 1_555
O5 C32 1_555 1_555
O6 C32 1_555 1_555
O7 C33 1_555 1_555
O8 C33 1_555 1_555
O9 C42 1_555 1_555
O10 C42 1_555 1_555
O11 C43 1_555 1_555
O12 C43 1_555 1_555
O13 Cd1 1_555 1_555
O14 Cd2 1_555 1_555
C1A C2A 1_555 1_555
C2A H1A 1_555 1_555
C3A C2A 1_555 1_555
C4A C3A 1_555 1_555
H2A C4A 1_555 1_555
C5A C4A 1_555 1_555
C6A C1A 1_555 1_555
H3A C6A 1_555 1_555
C7A C1A 1_555 1_555
C8A H4A 1_555 1_555
C9A C8A 1_555 1_555
H5A C9A 1_555 1_555
C10A H6A 1_555 1_555
C11A H7A 1_555 1_555
C12A C11A 1_555 1_555
H8A C12A 1_555 1_555
C13A H9A 1_555 1_555
C14_2 C15_2 1_555 1_555
C15_2 H10_2 1_555 1_555
C16_2 C15_2 1_555 1_555
C17_2 C16_2 1_555 1_555
H11_2 C17_2 1_555 1_555
C18_2 C17_2 1_555 1_555
C19_2 C14_2 1_555 1_555
H12_2 C19_2 1_555 1_555
C20_2 C14_2 1_555 1_555
C21_2 H13_2 1_555 1_555
C22_2 H14_2 1_555 1_555
C23_2 C22_2 1_555 1_555
H15_2 C23_2 1_555 1_555
C24_2 H16_2 1_555 1_555
C25_2 C24_2 1_555 1_555
H17_2 C25_2 1_555 1_555
C26_2 H18_2 1_555 1_555
C27A H19A 1_555 1_555
C28A C27A 1_555 1_555
H20A C28A 1_555 1_555
H21A C28A 1_555 1_555
C29A C28A 1_555 1_555
H22A C29A 1_555 1_555
H23A C29A 1_555 1_555
C30A C29A 1_555 1_555
C31A C27A 1_555 1_555
C32A C27A 1_555 1_555
C33A C30A 1_555 1_555
C34A C31A 1_555 1_555
H24A C34A 1_555 1_555
H25A C34A 1_555 1_555
H26A C34A 1_555 1_555
C35A C31A 1_555 1_555
H27A C35A 1_555 1_555
H28A C35A 1_555 1_555
H29A C35A 1_555 1_555
C36A C30A 1_555 1_555
H30A C36A 1_555 1_555
H31A C36A 1_555 1_555
H32A C36A 1_555 1_555
C37A C38A 1_555 1_555
C38A H33A 1_555 1_555
H34A C38A 1_555 1_555
C39A C38A 1_555 1_555
H35A C39A 1_555 1_555
H36A C39A 1_555 1_555
C40A C39A 1_555 1_555
H37A C40A 1_555 1_555
C41A C37A 1_555 1_555
C42A C37A 1_555 1_555
C43A C40A 1_555 1_555
C44A C41A 1_555 1_555
H38A C44A 1_555 1_555
H39A C44A 1_555 1_555
H40A C44A 1_555 1_555
C45A C41A 1_555 1_555
H41A C45A 1_555 1_555
H42A C45A 1_555 1_555
H43A C45A 1_555 1_555
C46A C37A 1_555 1_555
H44A C46A 1_555 1_555
H45A C46A 1_555 1_555
H46A C46A 1_555 1_555
Cd1A N3A 1_555 1_555
Cd1C O2 1_555 1_555
Cd1B O2A 1_555 1_555
Cd1_2 O3_2 1_555 1_555
Cd2A N5A 1_555 1_555
Cd2_2 N5 1_555 1_555
Cd2C O4 1_555 1_555
Cd2B O8 1_555 1_555
Cd2C_2 O8A 1_555 1_555
Cd2C_3 O4_2 1_555 1_555
Cd4B O11 1_555 1_555
Cd4_2 N7_2 1_555 1_555
Cd4B_2 O11A 1_555 1_555
N1A Cd3 1_555 1_555
N2A C3A 1_555 1_555
N3A C12A 1_555 1_555
N4A C5A 1_555 1_555
N5_2 Cd2 1_555 1_555
N6_2 C18_2 1_555 1_555
N7_2 C21_2 1_555 1_555
N7A Cd4 1_555 1_555
N8_2 C16_2 1_555 1_555
O1A C7A 1_555 1_555
O2A C7A 1_555 1_555
O2C Cd1 1_555 1_555
O2B Cd1A 1_555 1_555
O3_2 C20_2 1_555 1_555
O3A Cd1A 1_555 1_555
O4_2 C20_2 1_555 1_555
O4C Cd2 1_555 1_555
O4B Cd2A 1_555 1_555
O5A Cd3 1_555 1_555
O6A Cd3 1_555 1_555
O7A C33A 1_555 1_555
O8A C33A 1_555 1_555
O8B Cd2 1_555 1_555
O8C Cd2A 1_555 1_555
O9A C42A 1_555 1_555
O10A C42A 1_555 1_555
O11A C43A 1_555 1_555
O11B Cd4 1_555 1_555
O11C Cd4 1_555 1_555
O12A C43A 1_555 1_555
O12B Cd4 1_555 1_555
O12C Cd4 1_555 1_555
O13A Cd1A 1_555 1_555
O14A Cd2A 1_555 1_555
C5 C6 1_555 1_555
C8 N2 1_555 1_555
C10 N1 1_555 1_555
C10 N2 1_555 1_555
C11 N4 1_555 1_555
C13 N3 1_555 1_555
C13 N4 1_555 1_555
C18 C19 1_555 1_555
C21 N8 1_555 1_555
C22 N7 1_555 1_555
C23 N8 1_555 1_555
C24 N6 1_555 1_555
C26 N5 1_555 1_555
C26 N6 1_555 1_555
C30 C31 1_555 1_555
C40 C41 1_555 1_555
Cd1 O3 1_555 1_555
Cd1 O9 1_555 1_555
Cd1 O10 1_555 1_555
Cd2 O2 1_555 1_555
Cd3 O5 1_555 1_555
Cd3 O6 1_555 1_555
O12 Cd4B 1_555 1_555
C5A C6A 1_555 1_555
C8A N2A 1_555 1_555
C9A N1A 1_555 1_555
C10A N1A 1_555 1_555
C10A N2A 1_555 1_555
C11A N4A 1_555 1_555
C13A N3A 1_555 1_555
C13A N4A 1_555 1_555
C18_2 C19_2 1_555 1_555
C21_2 N8_2 1_555 1_555
C22_2 N7_2 1_555 1_555
C23_2 N8_2 1_555 1_555
C24_2 N6_2 1_555 1_555
C25_2 N5_2 1_555 1_555
C26_2 N5_2 1_555 1_555
C26_2 N6_2 1_555 1_555
C30A C31A 1_555 1_555
C32A O5A 1_555 1_555
C32A O6A 1_555 1_555
C40A C41A 1_555 1_555
Cd1A O9A 1_555 1_555
Cd1A O10A 1_555 1_555
Cd2A O1A 1_555 1_555
Cd2A O2A 1_555 1_555
Cd2C O2C 1_555 1_555
Cd4B_2 O12A 1_555 1_555

#END
