
#######################################################################
#
#                 Cambridge Crystallographic Data Centre
#                                CCDC 
#
#######################################################################
#
# If this CIF has been generated from an entry in the Cambridge 
# Structural Database, then it will include bibliographic, chemical, 
# crystal, experimental, refinement or atomic coordinate data resulting 
# from the CCDC's data processing and validation procedures.
#
#######################################################################

data_QAVQIO
_symmetry_cell_setting           triclinic
_symmetry_space_group_name_H-M   'P -1'
_symmetry_Int_Tables_number      2
_space_group_name_Hall           '-P 1'
loop_
_symmetry_equiv_pos_site_id
_symmetry_equiv_pos_as_xyz
1 x,y,z
2 -x,-y,-z
_cell_length_a                   8.4715(12)
_cell_length_b                   10.5250(15)
_cell_length_c                   11.9813(16)
_cell_angle_alpha                99.290(4)
_cell_angle_beta                 100.791(4)
_cell_angle_gamma                107.102(4)
_cell_volume                     975.963
loop_
_atom_site_label
_atom_site_type_symbol
_atom_site_fract_x
_atom_site_fract_y
_atom_site_fract_z
W1 W 0.65378(5) 0.18957(4) 0.27440(3)
C1 C 0.6471(16) 0.2085(14) 0.0999(12)
N1 N 0.6575(18) 0.2215(16) 0.0060(10)
C2 C 0.8033(15) 0.0815(13) 0.2018(10)
N2 N 0.8852(14) 0.0274(12) 0.1573(10)
C3 C 0.5325(16) -0.0199(14) 0.2728(11)
N3 N 0.4673(19) -0.1325(13) 0.2780(11)
C4 C 0.5083(14) 0.2056(13) 0.4017(11)
N4 N 0.4295(17) 0.2164(15) 0.4682(12)
C5 C 0.5908(16) 0.3733(14) 0.2816(11)
N5 N 0.5602(17) 0.4737(14) 0.2893(13)
C6 C 1.3964(15) 0.1230(13) 0.1735(11)
N6 N 1.2569(14) 0.0914(13) 0.1162(10)
N7 N 0.9024(12) 0.3564(10) 0.3035(9)
C7 C 0.9316(16) 0.4475(14) 0.2380(13)
H1 H 0.8410 0.4472 0.1804
C8 C 1.0902(17) 0.5420(16) 0.2518(12)
H2 H 1.1071 0.6027 0.2032
C9 C 1.2250(19) 0.5446(15) 0.3405(13)
H3 H 1.3328 0.6091 0.3537
C10 C 1.1960(15) 0.4516(14) 0.4070(11)
H4 H 1.2857 0.4511 0.4649
C11 C 1.0346(14) 0.3569(12) 0.3902(10)
C12 C 0.9908(14) 0.2608(12) 0.4638(10)
C13 C 1.1090(16) 0.2537(14) 0.5587(12)
H5 H 1.2241 0.3040 0.5733
C14 C 1.0501(18) 0.1699(16) 0.6303(11)
H6 H 1.1243 0.1713 0.6987
C15 C 0.890(2) 0.0878(15) 0.6030(10)
H7 H 0.8553 0.0241 0.6467
C16 C 0.7727(16) 0.0973(14) 0.5082(10)
H8 H 0.6580 0.0459 0.4937
N8 N 0.8243(12) 0.1802(10) 0.4375(9)
Mn1 Mn 1.0000 0.0000 0.0000
O1 O 1.0122(15) -0.1944(11) 0.0256(13)
W1A W 1.34622(5) -0.18957(4) -0.27440(3)
W1_2 W 1.65378(5) 0.18957(4) 0.27440(3)
W1A_2 W 0.34622(5) -0.18957(4) -0.27440(3)
C1A C 1.3529(16) -0.2085(14) -0.0999(12)
N1A N 1.3425(18) -0.2215(16) -0.0060(10)
C2A C 1.1967(15) -0.0815(13) -0.2018(10)
N2A N 1.1148(14) -0.0274(12) -0.1573(10)
C3A C 1.4675(16) 0.0199(14) -0.2728(11)
N3A N 1.5327(19) 0.1325(13) -0.2780(11)
C4A C 1.4917(14) -0.2056(13) -0.4017(11)
N4A N 1.5705(17) -0.2164(15) -0.4682(12)
C5A C 1.4092(16) -0.3733(14) -0.2816(11)
N5A N 1.4398(17) -0.4737(14) -0.2893(13)
C6A C 0.6036(15) -0.1230(13) -0.1735(11)
C6_2 C 0.3964(15) 0.1230(13) 0.1735(11)
C6A_2 C 1.6036(15) -0.1230(13) -0.1735(11)
N6A N 0.7431(14) -0.0914(13) -0.1162(10)
N7A N 1.0976(12) -0.3564(10) -0.3035(9)
C7A C 1.0684(16) -0.4475(14) -0.2380(13)
H1A H 1.1590 -0.4472 -0.1804
C8A C 0.9098(17) -0.5420(16) -0.2518(12)
H2A H 0.8929 -0.6027 -0.2032
C9A C 0.7750(19) -0.5446(15) -0.3405(13)
H3A H 0.6672 -0.6091 -0.3537
C10A C 0.8040(15) -0.4516(14) -0.4070(11)
H4A H 0.7143 -0.4511 -0.4649
C11A C 0.9654(14) -0.3569(12) -0.3902(10)
C12A C 1.0092(14) -0.2608(12) -0.4638(10)
C13A C 0.8910(16) -0.2537(14) -0.5587(12)
H5A H 0.7759 -0.3040 -0.5733
C14A C 0.9499(18) -0.1699(16) -0.6303(11)
H6A H 0.8757 -0.1713 -0.6987
C15A C 1.110(2) -0.0878(15) -0.6030(10)
H7A H 1.1447 -0.0241 -0.6467
C16A C 1.2273(16) -0.0973(14) -0.5082(10)
H8A H 1.3420 -0.0459 -0.4937
N8A N 1.1757(12) -0.1802(10) -0.4375(9)
O1A O 0.9878(15) 0.1944(11) -0.0256(13)
O2 O 0.492(4) 0.373(2) 0.8741(17)
O3 O 0.758(2) 0.5914(17) 0.0367(18)
loop_
_geom_bond_atom_site_label_1
_geom_bond_atom_site_label_2
_geom_bond_site_symmetry_1
_geom_bond_site_symmetry_2
W1 C1 1_555 1_555
C1 N1 1_555 1_555
C2 W1 1_555 1_555
N2 C2 1_555 1_555
C3 W1 1_555 1_555
N3 C3 1_555 1_555
C4 W1 1_555 1_555
N4 C4 1_555 1_555
C5 W1 1_555 1_555
N5 C5 1_555 1_555
C6 N6 1_555 1_555
N6 Mn1 1_555 1_555
N7 W1 1_555 1_555
C7 N7 1_555 1_555
H1 C7 1_555 1_555
C8 C7 1_555 1_555
H2 C8 1_555 1_555
C9 C8 1_555 1_555
H3 C9 1_555 1_555
C10 C9 1_555 1_555
H4 C10 1_555 1_555
C11 N7 1_555 1_555
C12 C11 1_555 1_555
C13 C12 1_555 1_555
H5 C13 1_555 1_555
C14 C13 1_555 1_555
H6 C14 1_555 1_555
C15 C14 1_555 1_555
H7 C15 1_555 1_555
C16 C15 1_555 1_555
H8 C16 1_555 1_555
N8 W1 1_555 1_555
Mn1 N2 1_555 1_555
O1 Mn1 1_555 1_555
W1A C1A 1_555 1_555
W1_2 C6 1_555 1_555
W1A_2 C6A 1_555 1_555
C1A N1A 1_555 1_555
C2A W1A 1_555 1_555
N2A Mn1 1_555 1_555
C3A W1A 1_555 1_555
N3A C3A 1_555 1_555
C4A W1A 1_555 1_555
N4A C4A 1_555 1_555
C5A W1A 1_555 1_555
N5A C5A 1_555 1_555
C6A N6A 1_555 1_555
C6_2 W1 1_555 1_555
C6A_2 W1A 1_555 1_555
N6A Mn1 1_555 1_555
N7A W1A 1_555 1_555
C7A N7A 1_555 1_555
H1A C7A 1_555 1_555
C8A C7A 1_555 1_555
H2A C8A 1_555 1_555
C9A C8A 1_555 1_555
H3A C9A 1_555 1_555
C10A C9A 1_555 1_555
H4A C10A 1_555 1_555
C11A N7A 1_555 1_555
C12A C11A 1_555 1_555
C13A C12A 1_555 1_555
H5A C13A 1_555 1_555
C14A C13A 1_555 1_555
H6A C14A 1_555 1_555
C15A C14A 1_555 1_555
H7A C15A 1_555 1_555
C16A C15A 1_555 1_555
H8A C16A 1_555 1_555
N8A W1A 1_555 1_555
O1A Mn1 1_555 1_555
C10 C11 1_555 1_555
C12 N8 1_555 1_555
C16 N8 1_555 1_555
C2A N2A 1_555 1_555
C10A C11A 1_555 1_555
C12A N8A 1_555 1_555
C16A N8A 1_555 1_555

#END
