
#######################################################################
#
#                 Cambridge Crystallographic Data Centre
#                                CCDC 
#
#######################################################################
#
# If this CIF has been generated from an entry in the Cambridge 
# Structural Database, then it will include bibliographic, chemical, 
# crystal, experimental, refinement or atomic coordinate data resulting 
# from the CCDC's data processing and validation procedures.
#
#######################################################################

data_QAVREM
_symmetry_cell_setting           monoclinic
_symmetry_space_group_name_H-M   'P 21/c'
_symmetry_Int_Tables_number      14
_space_group_name_Hall           '-P 2ybc'
loop_
_symmetry_equiv_pos_site_id
_symmetry_equiv_pos_as_xyz
1 x,y,z
2 -x,1/2+y,1/2-z
3 -x,-y,-z
4 x,1/2-y,1/2+z
_cell_length_a                   10.435(2)
_cell_length_b                   13.419(3)
_cell_length_c                   10.709(2)
_cell_angle_alpha                90
_cell_angle_beta                 118.74(3)
_cell_angle_gamma                90
_cell_volume                     1314.82
loop_
_atom_site_label
_atom_site_type_symbol
_atom_site_fract_x
_atom_site_fract_y
_atom_site_fract_z
Cd1 Cd 0.698987(12) 0.060979(9) 0.903510(12)
S1 S 0.90575(4) 0.18431(3) 0.90036(5)
C1 C 1.05322(18) 0.11761(12) 0.99925(18)
N1 N 1.15948(17) 0.07324(11) 1.06873(17)
S2 S 0.76782(5) 0.10085(4) 1.16384(4)
C2 C 0.6144(2) 0.05963(12) 1.15585(18)
N2 N 0.50677(17) 0.03286(12) 1.15099(16)
O1 O 0.54297(13) 0.19399(9) 0.75042(12)
O2 O 0.59759(13) 0.06592(8) 0.65373(13)
C3 C 0.54022(17) 0.14990(12) 0.64543(17)
C4 C 0.46767(18) 0.20315(12) 0.50194(17)
H1 H 0.5157 0.2680 0.5148
N3 N 0.49714(15) 0.14406(11) 0.39972(14)
H2 H 0.4686 0.1788 0.3199
H3 H 0.4479 0.0869 0.3798
H4 H 0.5924 0.1314 0.4387
C5 C 0.30450(18) 0.22261(13) 0.44811(18)
H5 H 0.2975 0.2622 0.5215
C6 C 0.2385(2) 0.28580(14) 0.31261(19)
H6 H 0.2961 0.3449 0.3283
H7 H 0.1403 0.3041 0.2884
H8 H 0.2376 0.2481 0.2360
C7 C 0.21864(19) 0.12672(14) 0.4308(2)
H9 H 0.1191 0.1429 0.4042
H10 H 0.2618 0.0908 0.5192
H11 H 0.2210 0.0862 0.3581
Cd1B Cd 1.301013(12) -0.060979(9) 1.096490(12)
Cd1B_2 Cd 0.301013(12) -0.060979(9) 1.096490(12)
N1B N 0.84052(17) -0.07324(11) 0.93127(17)
N2B N 0.49323(17) -0.03286(12) 0.84901(16)
O3 O 0.80120(16) 0.12971(11) 0.53860(17)
H12 H 0.832(3) 0.134(2) 0.622(3)
H13 H 0.848(3) 0.165(2) 0.521(3)
loop_
_geom_bond_atom_site_label_1
_geom_bond_atom_site_label_2
_geom_bond_site_symmetry_1
_geom_bond_site_symmetry_2
Cd1 S1 1_555 1_555
S1 C1 1_555 1_555
C1 N1 1_555 1_555
N1 Cd1B 1_555 1_555
S2 Cd1 1_555 1_555
C2 S2 1_555 1_555
N2 C2 1_555 1_555
O1 Cd1 1_555 1_555
O2 Cd1 1_555 1_555
C3 O1 1_555 1_555
C4 C3 1_555 1_555
H1 C4 1_555 1_555
N3 C4 1_555 1_555
H2 N3 1_555 1_555
H3 N3 1_555 1_555
H4 N3 1_555 1_555
C5 C4 1_555 1_555
H5 C5 1_555 1_555
C6 C5 1_555 1_555
H6 C6 1_555 1_555
H7 C6 1_555 1_555
H8 C6 1_555 1_555
C7 C5 1_555 1_555
H9 C7 1_555 1_555
H10 C7 1_555 1_555
H11 C7 1_555 1_555
O3 H12 1_555 1_555
H13 O3 1_555 1_555
Cd1B_2 N2 1_555 1_555
N1B Cd1 1_555 1_555
N2B Cd1 1_555 1_555
O2 C3 1_555 1_555

#END
