
#######################################################################
#
#                 Cambridge Crystallographic Data Centre
#                                CCDC 
#
#######################################################################
#
# If this CIF has been generated from an entry in the Cambridge 
# Structural Database, then it will include bibliographic, chemical, 
# crystal, experimental, refinement or atomic coordinate data resulting 
# from the CCDC's data processing and validation procedures.
#
#######################################################################

data_QAVRIQ
_symmetry_cell_setting           monoclinic
_symmetry_space_group_name_H-M   'P 21/c'
_symmetry_Int_Tables_number      14
_space_group_name_Hall           '-P 2ybc'
loop_
_symmetry_equiv_pos_site_id
_symmetry_equiv_pos_as_xyz
1 x,y,z
2 -x,1/2+y,1/2-z
3 -x,-y,-z
4 x,1/2-y,1/2+z
_cell_length_a                   11.3946(12)
_cell_length_b                   16.6003(14)
_cell_length_c                   9.0345(11)
_cell_angle_alpha                90
_cell_angle_beta                 112.503(14)
_cell_angle_gamma                90
_cell_volume                     1578.79
loop_
_atom_site_label
_atom_site_type_symbol
_atom_site_fract_x
_atom_site_fract_y
_atom_site_fract_z
Cd1 Cd 0.223700(11) 0.019619(7) 0.285249(14)
S1 S -0.00860(4) 0.02517(3) 0.30441(5)
S2 S 0.30362(4) -0.00635(3) 0.60652(5)
N1 N 0.56710(15) -0.02350(9) 0.69857(19)
N2 N 0.23025(13) 0.15995(9) 0.29466(16)
C1 C 0.45831(17) -0.01573(9) 0.6577(2)
N3 N -0.15018(15) -0.02742(9) -0.00854(19)
N4 N 0.21858(14) -0.11995(9) 0.23940(18)
C2 C 0.24017(18) 0.32664(11) 0.2937(2)
H1 H 0.2427 0.3838 0.2925
N5 N 0.41848(18) 0.32222(11) 0.5500(2)
C3 C 0.21675(18) -0.28436(11) 0.1830(2)
H2 H 0.2160 -0.3408 0.1649
C4 C 0.32413(17) 0.28374(11) 0.4242(2)
N6 N 0.39755(16) -0.26562(11) 0.1053(2)
C5 C 0.15088(17) 0.20183(11) 0.1700(2)
H3 H 0.0912 0.1737 0.0817
C6 C 0.31478(17) 0.19970(11) 0.4184(2)
H4 H 0.3710 0.1695 0.5062
C7 C 0.15353(18) 0.28512(11) 0.1665(2)
H5 H 0.0959 0.3136 0.0769
C8 C 0.30386(17) -0.23478(11) 0.1532(2)
C9 C 0.30080(17) -0.15261(11) 0.1825(2)
H6 H 0.3592 -0.1182 0.1613
C10 C 0.13503(17) -0.16815(11) 0.2671(2)
H7 H 0.0765 -0.1452 0.3069
C11 C 0.13109(18) -0.24996(11) 0.2397(2)
H8 H 0.0701 -0.2826 0.2595
C12 C -0.09126(16) -0.00473(11) 0.1191(2)
H9 H 0.401(2) 0.3692(15) 0.560(3)
H10 H 0.381(2) -0.3070(15) 0.064(3)
H11 H 0.426(2) -0.2317(14) 0.053(3)
H12 H 0.448(2) 0.2983(15) 0.634(3)
Cd1B Cd 0.776300(11) -0.019619(7) 0.714751(14)
Cd1B_2 Cd -0.223700(11) -0.019619(7) -0.285249(14)
N1B N 0.43290(15) 0.02350(9) 0.30143(19)
N3B N 0.15018(15) 0.02742(9) 0.00854(19)
loop_
_geom_bond_atom_site_label_1
_geom_bond_atom_site_label_2
_geom_bond_site_symmetry_1
_geom_bond_site_symmetry_2
Cd1 S1 1_555 1_555
S1 C12 1_555 1_555
S2 Cd1 1_555 1_555
N1 C1 1_555 1_555
N2 Cd1 1_555 1_555
C1 S2 1_555 1_555
N3 C12 1_555 1_555
N4 Cd1 1_555 1_555
C2 H1 1_555 1_555
N5 C4 1_555 1_555
C3 H2 1_555 1_555
C4 C2 1_555 1_555
N6 C8 1_555 1_555
C5 N2 1_555 1_555
H3 C5 1_555 1_555
C6 N2 1_555 1_555
H4 C6 1_555 1_555
C7 C2 1_555 1_555
H5 C7 1_555 1_555
C8 C3 1_555 1_555
C9 N4 1_555 1_555
H6 C9 1_555 1_555
C10 N4 1_555 1_555
H7 C10 1_555 1_555
C11 C3 1_555 1_555
H8 C11 1_555 1_555
H9 N5 1_555 1_555
H10 N6 1_555 1_555
H11 N6 1_555 1_555
H12 N5 1_555 1_555
Cd1B N1 1_555 1_555
Cd1B_2 N3 1_555 1_555
N1B Cd1 1_555 1_555
N3B Cd1 1_555 1_555
C4 C6 1_555 1_555
C5 C7 1_555 1_555
C8 C9 1_555 1_555
C10 C11 1_555 1_555

#END
