
#######################################################################
#
#                 Cambridge Crystallographic Data Centre
#                                CCDC 
#
#######################################################################
#
# If this CIF has been generated from an entry in the Cambridge 
# Structural Database, then it will include bibliographic, chemical, 
# crystal, experimental, refinement or atomic coordinate data resulting 
# from the CCDC's data processing and validation procedures.
#
#######################################################################

data_QAVWUH
_symmetry_cell_setting           monoclinic
_symmetry_space_group_name_H-M   'P 21/n'
_symmetry_Int_Tables_number      14
_space_group_name_Hall           '-P 2yn'
loop_
_symmetry_equiv_pos_site_id
_symmetry_equiv_pos_as_xyz
1 x,y,z
2 1/2-x,1/2+y,1/2-z
3 -x,-y,-z
4 1/2+x,1/2-y,1/2+z
_cell_length_a                   9.943(2)
_cell_length_b                   21.7104(15)
_cell_length_c                   13.2658(18)
_cell_angle_alpha                90
_cell_angle_beta                 97.638(3)
_cell_angle_gamma                90
_cell_volume                     2838.23
loop_
_atom_site_label
_atom_site_type_symbol
_atom_site_fract_x
_atom_site_fract_y
_atom_site_fract_z
C1 C -0.1134(3) 0.45610(15) 0.4245(2)
H1 H -0.1493 0.4903 0.4535
C2 C -0.0598(3) 0.40819(15) 0.4768(2)
H2 H -0.0511 0.4037 0.5471
C3 C -0.0501(3) 0.39325(15) 0.3175(2)
H3 H -0.0331 0.3760 0.2563
C4 C 0.0381(3) 0.30650(16) 0.4409(2)
C5 C 0.0499(4) 0.28631(15) 0.5406(2)
H4 H 0.0241 0.3123 0.5903
C6 C 0.0988(3) 0.22869(15) 0.5678(2)
H5 H 0.1053 0.2165 0.6355
C7 C 0.1389(3) 0.18824(15) 0.4964(2)
C8 C 0.1269(4) 0.20904(16) 0.3965(3)
H6 H 0.1511 0.1830 0.3463
C9 C 0.0807(4) 0.26649(16) 0.3706(3)
H7 H 0.0776 0.2793 0.3034
C10 C 0.2031(3) 0.09739(15) 0.6172(2)
H8 H 0.1689 0.1119 0.6747
C11 C 0.2988(4) 0.04100(16) 0.5175(3)
H9 H 0.3455 0.0088 0.4916
C12 C 0.2550(3) 0.09015(14) 0.4645(2)
H10 H 0.2639 0.0976 0.3967
C13 C -0.1052(3) 0.63545(16) 0.0966(2)
H11 H -0.0130 0.6360 0.1208
C14 C -0.2962(3) 0.66077(16) 0.0231(2)
H12 H -0.3687 0.6821 -0.0123
C15 C -0.3044(4) 0.60801(18) 0.0714(3)
H13 H -0.3840 0.5853 0.0695
C16 C -0.11566(19) 0.73388(8) -0.01138(17)
C17 C 0.01146(19) 0.73150(8) -0.04396(17)
H14 H 0.0617 0.6953 -0.0371
C18 C 0.06345(16) 0.78328(9) -0.08680(17)
H15 H 0.1485 0.7817 -0.1086
C19 C -0.0117(2) 0.83744(8) -0.09706(16)
C20 C -0.1388(2) 0.83982(8) -0.06448(16)
H16 H -0.1891 0.8761 -0.0713
C21 C -0.19078(16) 0.78804(10) -0.02164(16)
H17 H -0.2758 0.7896 0.0002
C22 C 0.1725(3) 0.89969(15) -0.1704(2)
H18 H 0.2421 0.8707 -0.1626
C23 C 0.0630(3) 0.98209(15) -0.2079(2)
H19 H 0.0398 1.0215 -0.2316
C24 C -0.0202(3) 0.94490(14) -0.1649(2)
H20 H -0.1084 0.9538 -0.1534
Co1 Co -0.15368(4) 0.51810(2) 0.22041(3)
N1 N -0.1095(3) 0.44932(12) 0.32643(18)
N2 N -0.0192(3) 0.36597(13) 0.4093(2)
N3 N 0.1943(3) 0.12793(13) 0.5267(2)
N4 N 0.2689(3) 0.04265(12) 0.61157(19)
N5 N -0.1928(3) 0.59173(12) 0.12043(19)
N6 N -0.1686(3) 0.67810(13) 0.0335(2)
N7 N 0.0484(3) 0.89171(13) -0.1413(2)
N8 N 0.1804(3) 0.95644(12) -0.2126(2)
O1 O 0.0541(2) 0.51175(11) 0.18632(16)
O2 O -0.0050(2) 0.57787(10) 0.31407(15)
O3 O 0.1873(2) 0.60361(11) 0.22839(15)
O4 O 0.2047(2) 0.52038(11) 0.34609(16)
S1 S 0.11408(8) 0.55308(4) 0.26912(6)
Co1C Co 0.34632(4) -0.01810(2) 0.72041(3)
Co1C_2 Co 0.34632(4) 0.98190(2) -0.27959(3)
N4C N -0.2311(3) 0.45735(12) 0.11157(19)
N8C N -0.3196(3) 0.54356(12) 0.2874(2)
O5 O 0.3305(8) 0.4066(4) 0.3719(6)
H21 H 0.2500 0.4155 0.3816
H22 H 0.3812 0.4051 0.4287
O6 O 0.9185(8) 0.2655(3) 0.7622(6)
H23 H 0.8553 0.2808 0.7201
H24 H 0.8936 0.2307 0.7825
O7 O 0.8200(6) 0.5929(3) 0.8402(4)
H25 H 0.8005 0.6310 0.8405
H26 H 0.7577 0.5736 0.8029
loop_
_geom_bond_atom_site_label_1
_geom_bond_atom_site_label_2
_geom_bond_site_symmetry_1
_geom_bond_site_symmetry_2
C1 H1 1_555 1_555
C2 C1 1_555 1_555
H2 C2 1_555 1_555
C3 H3 1_555 1_555
C4 C5 1_555 1_555
C5 H4 1_555 1_555
C6 C5 1_555 1_555
H5 C6 1_555 1_555
C7 C6 1_555 1_555
C8 C7 1_555 1_555
H6 C8 1_555 1_555
C9 C4 1_555 1_555
H7 C9 1_555 1_555
C10 H8 1_555 1_555
C11 H9 1_555 1_555
C12 C11 1_555 1_555
H10 C12 1_555 1_555
C13 H11 1_555 1_555
C14 H12 1_555 1_555
C15 C14 1_555 1_555
H13 C15 1_555 1_555
C16 C17 1_555 1_555
C17 H14 1_555 1_555
C18 C17 1_555 1_555
H15 C18 1_555 1_555
C19 C18 1_555 1_555
C20 C19 1_555 1_555
H16 C20 1_555 1_555
C21 C16 1_555 1_555
H17 C21 1_555 1_555
C22 H18 1_555 1_555
C23 H19 1_555 1_555
C24 C23 1_555 1_555
H20 C24 1_555 1_555
Co1 N1 1_555 1_555
N1 C1 1_555 1_555
N2 C2 1_555 1_555
N3 C7 1_555 1_555
N4 C10 1_555 1_555
N5 C13 1_555 1_555
N6 C13 1_555 1_555
N7 C19 1_555 1_555
N8 C22 1_555 1_555
O1 Co1 1_555 1_555
O2 Co1 1_555 1_555
O3 S1 1_555 1_555
O4 S1 1_555 1_555
O5 H21 1_555 1_555
H22 O5 1_555 1_555
O6 H23 1_555 1_555
H24 O6 1_555 1_555
O7 H25 1_555 1_555
H26 O7 1_555 1_555
S1 O1 1_555 1_555
Co1C N4 1_555 1_555
Co1C_2 N8 1_555 1_555
N4C Co1 1_555 1_555
N8C Co1 1_555 1_555
C3 N1 1_555 1_555
C3 N2 1_555 1_555
C4 N2 1_555 1_555
C8 C9 1_555 1_555
C10 N3 1_555 1_555
C11 N4 1_555 1_555
C12 N3 1_555 1_555
C14 N6 1_555 1_555
C15 N5 1_555 1_555
C16 N6 1_555 1_555
C20 C21 1_555 1_555
C22 N7 1_555 1_555
C23 N8 1_555 1_555
C24 N7 1_555 1_555
Co1 N5 1_555 1_555
O2 S1 1_555 1_555

#END
