
#######################################################################
#
#                 Cambridge Crystallographic Data Centre
#                                CCDC 
#
#######################################################################
#
# If this CIF has been generated from an entry in the Cambridge 
# Structural Database, then it will include bibliographic, chemical, 
# crystal, experimental, refinement or atomic coordinate data resulting 
# from the CCDC's data processing and validation procedures.
#
#######################################################################

data_QAVZEU
_symmetry_cell_setting           monoclinic
_symmetry_space_group_name_H-M   'C 2/c'
_symmetry_Int_Tables_number      15
_space_group_name_Hall           '-C 2yn'
loop_
_symmetry_equiv_pos_site_id
_symmetry_equiv_pos_as_xyz
1 x,y,z
2 -x,y,1/2-z
3 1/2+x,1/2+y,z
4 1/2-x,1/2+y,1/2-z
5 -x,-y,-z
6 x,-y,1/2+z
7 1/2-x,1/2-y,-z
8 1/2+x,1/2-y,1/2+z
_cell_length_a                   19.022
_cell_length_b                   15.354
_cell_length_c                   18.757
_cell_angle_alpha                90
_cell_angle_beta                 116.79
_cell_angle_gamma                90
_cell_volume                     4890.23
loop_
_atom_site_label
_atom_site_type_symbol
_atom_site_fract_x
_atom_site_fract_y
_atom_site_fract_z
Sm1 Sm 0.219267(14) 0.879361(15) 0.013729(14)
O1 O 0.1017(2) 0.8189(3) -0.1017(2)
O2 O 0.0814(2) 0.8816(3) -0.0071(2)
O3 O -0.2526(2) 0.9041(3) -0.4004(2)
O4 O -0.2781(2) 0.7710(2) -0.4466(2)
O5 O 0.2934(2) 1.0184(3) 0.0514(3)
O6 O 0.1675(2) 1.0281(3) -0.0329(3)
O7 O 0.3576(2) 0.8512(3) 0.1032(2)
H1 H 0.3685 0.7987 0.0977
H2 H 0.3863 0.8852 0.0918
O8 O 0.2237(3) 0.9030(3) 0.1421(2)
N1 N 0.1821(4) 0.9228(4) 0.2373(3)
C1 C 0.0549(3) 0.8467(3) -0.0748(3)
C2 C -0.0320(3) 0.8386(4) -0.1248(3)
C3 C -0.0836(4) 0.8840(4) -0.1032(4)
H3 H -0.0638 0.9185 -0.0575
C4 C -0.1640(3) 0.8771(4) -0.1504(4)
H4 H -0.1979 0.9077 -0.1362
C5 C -0.1953(3) 0.8254(4) -0.2189(3)
C6 C -0.1431(3) 0.7790(4) -0.2387(3)
H5 H -0.1627 0.7431 -0.2835
C7 C -0.0634(3) 0.7861(4) -0.1927(3)
H6 H -0.0296 0.7554 -0.2070
C8 C -0.2801(3) 0.8300(3) -0.4005(3)
C9 C -0.3206(3) 0.8124(3) -0.3493(3)
C10 C -0.4012(3) 0.7968(4) -0.3890(4)
H7 H -0.4262 0.7929 -0.4445
C11 C -0.4445(4) 0.7870(5) -0.3469(4)
H8 H -0.4985 0.7777 -0.3737
C12 C -0.4066(4) 0.7910(6) -0.2643(5)
H9 H -0.4353 0.7847 -0.2355
C13 C -0.3266(4) 0.8044(5) -0.2248(4)
H10 H -0.3017 0.8060 -0.1693
C14 C -0.2820(3) 0.8157(4) -0.2661(3)
C15 C 0.2336(3) 1.0629(3) 0.0064(3)
C16 C 0.2423(3) 1.1598(3) 0.0021(3)
C17 C 0.1757(3) 1.2131(4) -0.0287(4)
H11 H 0.119(4) 1.181(4) -0.053(4)
C18 C 0.3163(3) 1.1970(4) 0.0306(3)
H12 H 0.3608 1.1617 0.0512
C19 C 0.1704(4) 0.9134(4) 0.1633(3)
H13 H 0.1186 0.9145 0.1234
C20 C 0.1170(4) 0.9457(4) 0.2569(3)
H14 H 0.0680 0.9458 0.2089
H15 H 0.1262 1.0025 0.2808
H16 H 0.1146 0.9037 0.2936
C21 C 0.2614(5) 0.9214(6) 0.3024(4)
H17 H 0.2980 0.9070 0.2819
H18 H 0.2646 0.8786 0.3410
H19 H 0.2741 0.9777 0.3273
Sm1A Sm -0.219267(14) 0.879361(15) -0.513729(14)
Sm1G Sm -0.280733(14) 0.620639(15) -0.486271(14)
Sm1F Sm 0.280733(14) 1.620639(15) -0.013729(14)
Sm1F_2 Sm 0.280733(14) 0.620639(15) -0.013729(14)
O1A O -0.1017(2) 0.8189(3) -0.3983(2)
O2A O -0.0814(2) 0.8816(3) -0.4929(2)
O3A O 0.2526(2) 0.9041(3) -0.0996(2)
O4A O 0.2781(2) 0.7710(2) -0.0534(2)
O4G O 0.2219(2) 0.7290(2) 0.0534(2)
O4F O -0.2219(2) 0.7290(2) -0.5534(2)
O5F O 0.2066(2) 1.4816(3) -0.0514(3)
O5A O -0.2934(2) 1.0184(3) -0.5514(3)
O6F O 0.3325(2) 1.4719(3) 0.0329(3)
O6A O -0.1675(2) 1.0281(3) -0.4671(3)
O7A O -0.3576(2) 0.8512(3) -0.6032(2)
H1A H -0.3685 0.7987 -0.5977
H2A H -0.3863 0.8852 -0.5918
O8A O -0.2237(3) 0.9030(3) -0.6421(2)
N1A N -0.1821(4) 0.9228(4) -0.7373(3)
C1A C -0.0549(3) 0.8467(3) -0.4252(3)
C2A C 0.0320(3) 0.8386(4) -0.3752(3)
C3A C 0.0836(4) 0.8840(4) -0.3968(4)
H3A H 0.0638 0.9185 -0.4425
C4A C 0.1640(3) 0.8771(4) -0.3496(4)
H4A H 0.1979 0.9077 -0.3638
C5A C 0.1953(3) 0.8254(4) -0.2811(3)
C6A C 0.1431(3) 0.7790(4) -0.2613(3)
H5A H 0.1627 0.7431 -0.2165
C7A C 0.0634(3) 0.7861(4) -0.3073(3)
H6A H 0.0296 0.7554 -0.2930
C8A C 0.2801(3) 0.8300(3) -0.0995(3)
C9A C 0.3206(3) 0.8124(3) -0.1507(3)
C10A C 0.4012(3) 0.7968(4) -0.1110(4)
H7A H 0.4262 0.7929 -0.0555
C11A C 0.4445(4) 0.7870(5) -0.1531(4)
H8A H 0.4985 0.7777 -0.1263
C12A C 0.4066(4) 0.7910(6) -0.2357(5)
H9A H 0.4353 0.7847 -0.2645
C13A C 0.3266(4) 0.8044(5) -0.2752(4)
H10A H 0.3017 0.8060 -0.3307
C14A C 0.2820(3) 0.8157(4) -0.2339(3)
C15F C 0.2664(3) 1.4371(3) -0.0064(3)
C16F C 0.2577(3) 1.3402(3) -0.0021(3)
C17F C 0.3243(3) 1.2869(4) 0.0287(4)
H11F H 0.381(4) 1.319(4) 0.053(4)
C18F C 0.1837(3) 1.3030(4) -0.0306(3)
H12F H 0.1392 1.3383 -0.0512
C19A C -0.1704(4) 0.9134(4) -0.6633(3)
H13A H -0.1186 0.9145 -0.6234
C20A C -0.1170(4) 0.9457(4) -0.7569(3)
H14A H -0.0680 0.9458 -0.7089
H15A H -0.1262 1.0025 -0.7808
H16A H -0.1146 0.9037 -0.7936
C21A C -0.2614(5) 0.9214(6) -0.8024(4)
H17A H -0.2980 0.9070 -0.7819
H18A H -0.2646 0.8786 -0.8410
H19A H -0.2741 0.9777 -0.8273
O9 O 0.5000 1.0000 0.5000
H21 H 0.5485 1.0137 0.5241
H21D H 0.4515 0.9863 0.4759
O10 O 0.4211(7) 0.9744(8) 0.2199(8)
H22 H 0.3996 0.9668 0.1696
H23 H 0.4366 1.0268 0.2306
H20? H 0.4929 0.9516 0.5178
loop_
_geom_bond_atom_site_label_1
_geom_bond_atom_site_label_2
_geom_bond_site_symmetry_1
_geom_bond_site_symmetry_2
Sm1 O1 1_555 1_555
O1 C1 1_555 1_555
O2 Sm1 1_555 1_555
O3 C8 1_555 1_555
O4 C8 1_555 1_555
O5 Sm1 1_555 1_555
O6 Sm1 1_555 1_555
O7 Sm1 1_555 1_555
H1 O7 1_555 1_555
H2 O7 1_555 1_555
O8 Sm1 1_555 1_555
N1 C19 1_555 1_555
C1 O2 1_555 1_555
C2 C1 1_555 1_555
C3 C2 1_555 1_555
H3 C3 1_555 1_555
C4 C3 1_555 1_555
H4 C4 1_555 1_555
C5 C4 1_555 1_555
C6 C5 1_555 1_555
H5 C6 1_555 1_555
C7 C2 1_555 1_555
H6 C7 1_555 1_555
C8 C9 1_555 1_555
C9 C10 1_555 1_555
C10 H7 1_555 1_555
C11 C10 1_555 1_555
H8 C11 1_555 1_555
C12 C11 1_555 1_555
H9 C12 1_555 1_555
C13 C12 1_555 1_555
H10 C13 1_555 1_555
C14 C5 1_555 1_555
C15 O5 1_555 1_555
C16 C15 1_555 1_555
C17 C16 1_555 1_555
H11 C17 1_555 1_555
C18 C16 1_555 1_555
H12 C18 1_555 1_555
C19 O8 1_555 1_555
H13 C19 1_555 1_555
C20 N1 1_555 1_555
H14 C20 1_555 1_555
H15 C20 1_555 1_555
H16 C20 1_555 1_555
C21 N1 1_555 1_555
H17 C21 1_555 1_555
H18 C21 1_555 1_555
H19 C21 1_555 1_555
O9 H21 1_555 1_555
O10 H22 1_555 1_555
H23 O10 1_555 1_555
Sm1A O3 1_555 1_555
Sm1G O4 1_555 1_555
Sm1F O5F 1_555 1_555
Sm1F_2 O4A 1_555 1_555
O1A Sm1A 1_555 1_555
O2A Sm1A 1_555 1_555
O3A Sm1 1_555 1_555
O4A Sm1 1_555 1_555
O4G Sm1 1_555 1_555
O4F Sm1A 1_555 1_555
O5F C15F 1_555 1_555
O5A Sm1A 1_555 1_555
O6F Sm1F 1_555 1_555
O6A Sm1A 1_555 1_555
O7A Sm1A 1_555 1_555
H1A O7A 1_555 1_555
H2A O7A 1_555 1_555
O8A Sm1A 1_555 1_555
N1A C19A 1_555 1_555
C1A O1A 1_555 1_555
C2A C1A 1_555 1_555
C3A C2A 1_555 1_555
H3A C3A 1_555 1_555
C4A C3A 1_555 1_555
H4A C4A 1_555 1_555
C5A C4A 1_555 1_555
C6A C5A 1_555 1_555
H5A C6A 1_555 1_555
C7A C2A 1_555 1_555
H6A C7A 1_555 1_555
C8A O3A 1_555 1_555
C9A C8A 1_555 1_555
C10A C9A 1_555 1_555
H7A C10A 1_555 1_555
C11A C10A 1_555 1_555
H8A C11A 1_555 1_555
C12A C11A 1_555 1_555
H9A C12A 1_555 1_555
C13A C12A 1_555 1_555
H10A C13A 1_555 1_555
C14A C5A 1_555 1_555
C15F O6F 1_555 1_555
C16F C15F 1_555 1_555
C17F C18 1_555 1_555
H11F C17F 1_555 1_555
C18F C17 1_555 1_555
H12F C18F 1_555 1_555
C19A O8A 1_555 1_555
H13A C19A 1_555 1_555
C20A N1A 1_555 1_555
H14A C20A 1_555 1_555
H15A C20A 1_555 1_555
H16A C20A 1_555 1_555
C21A N1A 1_555 1_555
H17A C21A 1_555 1_555
H18A C21A 1_555 1_555
H19A C21A 1_555 1_555
H21D O9 1_555 1_555
O4 Sm1A 1_555 1_555
O6 C15 1_555 1_555
C6 C7 1_555 1_555
C9 C14 1_555 1_555
C13 C14 1_555 1_555
Sm1G O4F 1_555 1_555
Sm1F_2 O4G 1_555 1_555
O2A C1A 1_555 1_555
O4A C8A 1_555 1_555
C6A C7A 1_555 1_555
C9A C14A 1_555 1_555
C13A C14A 1_555 1_555
C16F C17F 1_555 1_555
C16F C18F 1_555 1_555

#END
