
#######################################################################
#
#                 Cambridge Crystallographic Data Centre
#                                CCDC 
#
#######################################################################
#
# If this CIF has been generated from an entry in the Cambridge 
# Structural Database, then it will include bibliographic, chemical, 
# crystal, experimental, refinement or atomic coordinate data resulting 
# from the CCDC's data processing and validation procedures.
#
#######################################################################

data_QAVZUK
_symmetry_cell_setting           monoclinic
_symmetry_space_group_name_H-M   'P 21/c'
_symmetry_Int_Tables_number      14
_space_group_name_Hall           '-P 2ybc'
loop_
_symmetry_equiv_pos_site_id
_symmetry_equiv_pos_as_xyz
1 x,y,z
2 -x,1/2+y,1/2-z
3 -x,-y,-z
4 x,1/2-y,1/2+z
_cell_length_a                   9.3706(6)
_cell_length_b                   18.8789(14)
_cell_length_c                   15.3146(7)
_cell_angle_alpha                90
_cell_angle_beta                 125.188(3)
_cell_angle_gamma                90
_cell_volume                     2214.18
loop_
_atom_site_label
_atom_site_type_symbol
_atom_site_fract_x
_atom_site_fract_y
_atom_site_fract_z
Mn1 Mn 0.81232(4) 0.957396(17) 0.69719(3)
Mn2 Mn 0.5000 0.5000 0.5000
S1 S 0.35833(7) 0.60972(3) 0.60462(5)
O1 O 0.6127(2) 0.90335(8) 0.53474(13)
O2 O 0.6470(2) 0.86515(9) 0.68046(13)
O3 O 0.1821(2) 0.58158(9) 0.54165(14)
O4 O 0.4877(2) 0.55763(8) 0.62067(12)
O5 O 0.4064(2) 0.63993(9) 0.70472(13)
O6 O 0.2592(2) 0.54908(8) 0.37909(13)
O7 O 0.0271(2) 0.61694(9) 0.27569(13)
O8 O 0.6119(2) 1.03699(9) 0.66022(14)
H1 H 0.546(3) 1.0548(15) 0.5984(14)
H2 H 0.609(4) 1.0607(14) 0.7045(17)
O9 O 0.9286(2) 0.99887(11) 0.85573(14)
H3 H 0.891(4) 1.0285(14) 0.879(2)
H4 H 1.019(3) 0.9806(16) 0.9075(19)
N1 N -0.0976(3) 0.02002(10) 0.61416(16)
N2 N 0.3377(2) 0.41027(10) 0.49749(16)
C1 C 0.5844(3) 0.85768(11) 0.58421(18)
C2 C 0.4769(3) 0.79327(11) 0.52530(18)
C3 C 0.4573(3) 0.74025(11) 0.57998(18)
H5 H 0.5074 0.7455 0.6526
C4 C 0.3639(3) 0.67946(11) 0.52773(18)
C5 C 0.2824(3) 0.67204(12) 0.41770(18)
C6 C 0.1820(3) 0.60735(12) 0.35349(17)
C7 C 0.3013(3) 0.72606(13) 0.3641(2)
H6 H 0.2461 0.7223 0.2908
C8 C 0.4000(3) 0.78526(13) 0.41702(19)
H7 H 0.4150 0.8199 0.3798
C9 C -0.2092(3) 0.04934(13) 0.5183(2)
H8 H -0.3266 0.0373 0.4813
C10 C -0.1610(3) 0.09617(14) 0.4713(2)
H9 H -0.2446 0.1148 0.4042
C11 C 0.0131(3) 0.11577(13) 0.5241(2)
C12 C 0.1282(3) 0.08399(15) 0.6213(2)
H10 H 0.2466 0.0945 0.6593
C13 C 0.0709(3) 0.03704(14) 0.6628(2)
H11 H 0.1530 0.0159 0.7281
C14 C 0.0732(4) 0.17195(13) 0.4829(2)
H12 H 0.0261 0.1622 0.4088
H13 H 0.1996 0.1707 0.5234
C15 C 0.0160(4) 0.24518(14) 0.4915(3)
H14 H -0.1046 0.2525 0.4317
H15 H 0.0216 0.2480 0.5566
C16 C 0.1261(4) 0.30290(13) 0.4920(2)
C17 C 0.2319(4) 0.34368(15) 0.5811(2)
H16 H 0.2341 0.3360 0.6418
C18 C 0.3349(4) 0.39587(15) 0.5816(2)
H17 H 0.4059 0.4223 0.6436
C19 C 0.2356(4) 0.37062(14) 0.4113(2)
H18 H 0.2357 0.3793 0.3516
C20 C 0.1293(4) 0.31721(15) 0.4051(2)
H19 H 0.0604 0.2911 0.3425
Mn1B Mn 0.18768(4) 0.042604(17) 0.30281(3)
Mn1C Mn -0.18768(4) 0.542604(17) 0.19719(3)
Mn1_2 Mn -0.18768(4) -0.042604(17) 0.69719(3)
Mn1A Mn 1.18768(4) 0.457396(17) 0.80281(3)
Mn1B_2 Mn 1.18768(4) 1.042604(17) 0.30281(3)
S1B S 0.64167(7) 0.39028(3) 0.39538(5)
O1B O 0.3873(2) 0.09665(8) 0.46526(13)
O2B O 0.3530(2) 0.13485(9) 0.31954(13)
O3B O 0.8179(2) 0.41842(9) 0.45835(14)
O4B O 0.5123(2) 0.44237(8) 0.37933(12)
O5B O 0.5936(2) 0.36007(9) 0.29528(13)
O6B O 0.7408(2) 0.45092(8) 0.62091(13)
O7B O 0.9729(2) 0.38306(9) 0.72431(13)
O7C O 1.0271(2) 0.88306(9) 0.77569(13)
O7A O -0.0271(2) 0.11694(9) 0.22431(13)
O8B O 0.3881(2) -0.03699(9) 0.33978(14)
H1B H 0.454(3) -0.0548(15) 0.4016(14)
H2B H 0.391(4) -0.0607(14) 0.2955(17)
O9B O 0.0714(2) 0.00113(11) 0.14427(14)
H3B H 0.109(4) -0.0285(14) 0.121(2)
H4B H -0.019(3) 0.0194(16) 0.0925(19)
N1B N 1.0976(3) 0.97998(10) 0.38584(16)
N1_2 N 0.9024(3) 1.02002(10) 0.61416(16)
N1B_2 N 0.0976(3) -0.02002(10) 0.38584(16)
N2B N 0.6623(2) 0.58973(10) 0.50251(16)
C1B C 0.4156(3) 0.14232(11) 0.41579(18)
C2B C 0.5231(3) 0.20673(11) 0.47470(18)
C3B C 0.5427(3) 0.25975(11) 0.42002(18)
H5B H 0.4926 0.2545 0.3474
C4B C 0.6361(3) 0.32054(11) 0.47227(18)
C5B C 0.7176(3) 0.32796(12) 0.58230(18)
C6B C 0.8180(3) 0.39265(12) 0.64651(17)
C7B C 0.6987(3) 0.27394(13) 0.6359(2)
H6B H 0.7539 0.2777 0.7092
C8B C 0.6000(3) 0.21474(13) 0.58298(19)
H7B H 0.5850 0.1801 0.6202
C9B C 1.2092(3) 0.95066(13) 0.4817(2)
H8B H 1.3266 0.9627 0.5187
C10B C 1.1610(3) 0.90383(14) 0.5287(2)
H9B H 1.2446 0.8852 0.5958
C11B C 0.9869(3) 0.88423(13) 0.4759(2)
C12B C 0.8718(3) 0.91601(15) 0.3787(2)
H10B H 0.7534 0.9055 0.3407
C13B C 0.9291(3) 0.96296(14) 0.3372(2)
H11B H 0.8470 0.9841 0.2719
C14B C 0.9268(4) 0.82805(13) 0.5171(2)
H12B H 0.9739 0.8378 0.5912
H13B H 0.8004 0.8293 0.4766
C15B C 0.9840(4) 0.75482(14) 0.5085(3)
H14B H 1.1046 0.7475 0.5683
H15B H 0.9784 0.7520 0.4434
C16B C 0.8739(4) 0.69710(13) 0.5080(2)
C17B C 0.7681(4) 0.65632(15) 0.4189(2)
H16B H 0.7659 0.6640 0.3582
C18B C 0.6651(4) 0.60413(15) 0.4184(2)
H17B H 0.5941 0.5777 0.3564
C19B C 0.7644(4) 0.62938(14) 0.5887(2)
H18B H 0.7643 0.6207 0.6484
C20B C 0.8707(4) 0.68279(15) 0.5949(2)
H19B H 0.9396 0.7089 0.6575
loop_
_geom_bond_atom_site_label_1
_geom_bond_atom_site_label_2
_geom_bond_site_symmetry_1
_geom_bond_site_symmetry_2
Mn1 O1 1_555 1_555
Mn2 O4 1_555 1_555
S1 O3 1_555 1_555
O1 C1 1_555 1_555
O2 Mn1 1_555 1_555
O4 S1 1_555 1_555
O5 S1 1_555 1_555
O6 Mn2 1_555 1_555
O7 C6 1_555 1_555
O8 Mn1 1_555 1_555
H1 O8 1_555 1_555
H2 O8 1_555 1_555
O9 Mn1 1_555 1_555
H3 O9 1_555 1_555
H4 O9 1_555 1_555
N1 C9 1_555 1_555
N2 Mn2 1_555 1_555
C1 O2 1_555 1_555
C2 C1 1_555 1_555
C3 C2 1_555 1_555
H5 C3 1_555 1_555
C4 S1 1_555 1_555
C5 C4 1_555 1_555
C6 O6 1_555 1_555
C7 C5 1_555 1_555
H6 C7 1_555 1_555
C8 C2 1_555 1_555
H7 C8 1_555 1_555
C9 H8 1_555 1_555
C10 C9 1_555 1_555
H9 C10 1_555 1_555
C11 C10 1_555 1_555
C12 C11 1_555 1_555
H10 C12 1_555 1_555
C13 N1 1_555 1_555
H11 C13 1_555 1_555
C14 C11 1_555 1_555
H12 C14 1_555 1_555
H13 C14 1_555 1_555
C15 C14 1_555 1_555
H14 C15 1_555 1_555
H15 C15 1_555 1_555
C16 C15 1_555 1_555
C17 C16 1_555 1_555
H16 C17 1_555 1_555
C18 N2 1_555 1_555
H17 C18 1_555 1_555
C19 N2 1_555 1_555
H18 C19 1_555 1_555
C20 C16 1_555 1_555
H19 C20 1_555 1_555
Mn1B O1B 1_555 1_555
Mn1C O7 1_555 1_555
Mn1_2 N1 1_555 1_555
Mn1A O7B 1_555 1_555
Mn1B_2 N1B 1_555 1_555
S1B O3B 1_555 1_555
O1B C1B 1_555 1_555
O2B Mn1B 1_555 1_555
O4B Mn2 1_555 1_555
O5B S1B 1_555 1_555
O6B Mn2 1_555 1_555
O7B C6B 1_555 1_555
O7C Mn1 1_555 1_555
O7A Mn1B 1_555 1_555
O8B Mn1B 1_555 1_555
H1B O8B 1_555 1_555
H2B O8B 1_555 1_555
O9B Mn1B 1_555 1_555
H3B O9B 1_555 1_555
H4B O9B 1_555 1_555
N1B C9B 1_555 1_555
N1_2 Mn1 1_555 1_555
N1B_2 Mn1B 1_555 1_555
N2B Mn2 1_555 1_555
C1B O2B 1_555 1_555
C2B C1B 1_555 1_555
C3B C2B 1_555 1_555
H5B C3B 1_555 1_555
C4B S1B 1_555 1_555
C5B C4B 1_555 1_555
C6B O6B 1_555 1_555
C7B C5B 1_555 1_555
H6B C7B 1_555 1_555
C8B C2B 1_555 1_555
H7B C8B 1_555 1_555
C9B H8B 1_555 1_555
C10B C9B 1_555 1_555
H9B C10B 1_555 1_555
C11B C10B 1_555 1_555
C12B C11B 1_555 1_555
H10B C12B 1_555 1_555
C13B N1B 1_555 1_555
H11B C13B 1_555 1_555
C14B C11B 1_555 1_555
H12B C14B 1_555 1_555
H13B C14B 1_555 1_555
C15B C14B 1_555 1_555
H14B C15B 1_555 1_555
H15B C15B 1_555 1_555
C16B C15B 1_555 1_555
C17B C16B 1_555 1_555
H16B C17B 1_555 1_555
C18B N2B 1_555 1_555
H17B C18B 1_555 1_555
C19B N2B 1_555 1_555
H18B C19B 1_555 1_555
C20B C16B 1_555 1_555
H19B C20B 1_555 1_555
C3 C4 1_555 1_555
C5 C6 1_555 1_555
C7 C8 1_555 1_555
C12 C13 1_555 1_555
C17 C18 1_555 1_555
C19 C20 1_555 1_555
S1B O4B 1_555 1_555
C3B C4B 1_555 1_555
C5B C6B 1_555 1_555
C7B C8B 1_555 1_555
C12B C13B 1_555 1_555
C17B C18B 1_555 1_555
C19B C20B 1_555 1_555

#END
