
#######################################################################
#
#                 Cambridge Crystallographic Data Centre
#                                CCDC 
#
#######################################################################
#
# If this CIF has been generated from an entry in the Cambridge 
# Structural Database, then it will include bibliographic, chemical, 
# crystal, experimental, refinement or atomic coordinate data resulting 
# from the CCDC's data processing and validation procedures.
#
#######################################################################

data_QAWBOH
_symmetry_cell_setting           monoclinic
_symmetry_space_group_name_H-M   'P 2/n'
_symmetry_Int_Tables_number      13
_space_group_name_Hall           '-P 2yac'
loop_
_symmetry_equiv_pos_site_id
_symmetry_equiv_pos_as_xyz
1 x,y,z
2 1/2-x,y,1/2-z
3 -x,-y,-z
4 1/2+x,-y,1/2+z
_cell_length_a                   8.9943(7)
_cell_length_b                   13.3254(11)
_cell_length_c                   19.2289(16)
_cell_angle_alpha                90
_cell_angle_beta                 103.406(2)
_cell_angle_gamma                90
_cell_volume                     2241.84
loop_
_atom_site_label
_atom_site_type_symbol
_atom_site_fract_x
_atom_site_fract_y
_atom_site_fract_z
N4 N 0.2500 0.9306(11) 0.2500
C19 C 0.127(4) 1.1075(17) 0.2639(13)
H16 H 0.1093 1.1116 0.3123
H17 H 0.0287 1.1136 0.2289
H18 H 0.1947 1.1619 0.2568
C20 C 0.201(3) 1.0046(13) 0.2541(16)
C19A C 0.373(4) 1.1075(17) 0.2361(13)
H16A H 0.3907 1.1116 0.1877
H17A H 0.4713 1.1136 0.2711
H18A H 0.3053 1.1619 0.2432
C20A C 0.299(3) 1.0046(13) 0.2459(16)
Ag1 Ag -0.33905(6) 0.49096(5) 0.56568(3)
N1 N -0.4258(6) 0.4363(5) 0.6537(3)
N2 N -0.4795(6) 0.3184(4) 0.8502(3)
N3 N -0.7066(7) 0.4537(5) 0.9945(3)
C1 C -0.4520(7) 0.4630(5) 0.7742(4)
H1 H -0.4532 0.5084 0.8121
C2 C -0.4309(8) 0.4972(5) 0.7106(4)
H2 H -0.4190 0.5674 0.7052
C3 C -0.4485(7) 0.3393(6) 0.6628(4)
H3 H -0.4486 0.2955 0.6237
C4 C -0.4723(7) 0.2972(5) 0.7258(3)
H4 H -0.4884 0.2271 0.7293
C5 C -0.4718(7) 0.3606(5) 0.7831(3)
C6 C -0.5543(7) 0.3652(5) 0.8973(3)
C7 C -0.5310(8) 0.3326(5) 0.9675(4)
H5 H -0.4612 0.2797 0.9844
C8 C -0.6099(9) 0.3778(6) 1.0124(4)
H6 H -0.5939 0.3527 1.0598
C9 C -0.7263(8) 0.4841(5) 0.9263(4)
H7 H -0.7940 0.5387 0.9112
C10 C -0.6575(7) 0.4434(5) 0.8777(3)
H8 H -0.6797 0.4682 0.8300
C11 C -0.4019(8) 0.2208(5) 0.8703(4)
H9 H -0.3391 0.2050 0.8357
H10 H -0.3317 0.2278 0.9180
C12 C -0.5070(8) 0.1347(5) 0.8724(4)
C13 C -0.4462(11) 0.0462(7) 0.9041(6)
H11 H -0.3394 0.0420 0.9241
C14 C -0.5374(15) -0.0367(8) 0.9073(7)
H12 H -0.4931 -0.0968 0.9295
C15 C -0.6886(14) -0.0323(8) 0.8789(6)
H13 H -0.7514 -0.0889 0.8813
C16 C -0.7490(11) 0.0505(10) 0.8481(7)
H14 H -0.8561 0.0528 0.8285
C17 C -0.6591(9) 0.1375(7) 0.8431(6)
H15 H -0.7052 0.1963 0.8197
C18 C -0.5505(12) 0.1543(7) 0.4674(6)
S1 S -0.4880(3) 0.27048(15) 0.43355(12)
O1 O -0.6174(14) 0.2976(6) 0.3776(4)
O2 O -0.4716(8) 0.3372(5) 0.4912(3)
O3 O -0.3569(15) 0.2462(7) 0.4136(9)
F1 F -0.6778(9) 0.1674(6) 0.4855(5)
F2 F -0.4494(10) 0.1252(6) 0.5224(5)
F3 F -0.5691(8) 0.0819(4) 0.4184(4)
Ag1C Ag 0.16095(6) 0.50904(5) 0.06568(3)
Ag1C_2 Ag -0.83905(6) 0.50904(5) 1.06568(3)
N1C N 0.0742(6) 0.5637(5) 0.1537(3)
N2C N 0.0205(6) 0.6816(4) 0.3502(3)
N3C N -0.2066(7) 0.5463(5) 0.4945(3)
N3_2 N 0.2934(7) 0.4537(5) -0.0055(3)
C1C C 0.0480(7) 0.5370(5) 0.2742(4)
H1C H 0.0468 0.4916 0.3121
C2C C 0.0691(8) 0.5028(5) 0.2106(4)
H2C H 0.0810 0.4326 0.2052
C3C C 0.0515(7) 0.6607(6) 0.1628(4)
H3C H 0.0514 0.7045 0.1237
C4C C 0.0277(7) 0.7028(5) 0.2258(3)
H4C H 0.0116 0.7729 0.2293
C5C C 0.0282(7) 0.6394(5) 0.2831(3)
C6C C -0.0543(7) 0.6348(5) 0.3973(3)
C7C C -0.0310(8) 0.6674(5) 0.4675(4)
H5C H 0.0388 0.7203 0.4844
C8C C -0.1099(9) 0.6222(6) 0.5124(4)
H6C H -0.0939 0.6473 0.5598
C9C C -0.2263(8) 0.5159(5) 0.4263(4)
H7C H -0.2940 0.4613 0.4112
C10C C -0.1575(7) 0.5566(5) 0.3777(3)
H8C H -0.1797 0.5318 0.3300
C11C C 0.0981(8) 0.7792(5) 0.3703(4)
H9C H 0.1609 0.7950 0.3357
H10C H 0.1683 0.7722 0.4180
C12C C -0.0070(8) 0.8653(5) 0.3724(4)
C13C C 0.0538(11) 0.9538(7) 0.4041(6)
H11C H 0.1606 0.9580 0.4241
C14C C -0.0374(15) 1.0367(8) 0.4073(7)
H12C H 0.0069 1.0968 0.4295
C15C C -0.1886(14) 1.0323(8) 0.3789(6)
H13C H -0.2514 1.0889 0.3813
C16C C -0.2490(11) 0.9495(10) 0.3481(7)
H14C H -0.3561 0.9472 0.3285
C17C C -0.1591(9) 0.8625(7) 0.3431(6)
H15C H -0.2052 0.8037 0.3197
C18C C -0.0505(12) 0.8457(7) -0.0326(6)
S1C S 0.0120(3) 0.72952(15) -0.06645(12)
O1C O -0.1174(14) 0.7024(6) -0.1224(4)
O2C O 0.0284(8) 0.6628(5) -0.0088(3)
O3C O 0.1431(15) 0.7538(7) -0.0864(9)
F1C F -0.1778(9) 0.8326(6) -0.0145(5)
F2C F 0.0506(10) 0.8748(6) 0.0224(5)
F3C F -0.0691(8) 0.9181(4) -0.0816(4)
loop_
_geom_bond_atom_site_label_1
_geom_bond_atom_site_label_2
_geom_bond_site_symmetry_1
_geom_bond_site_symmetry_2
Ag1 N1 1_555 1_555
N1 C2 1_555 1_555
N2 C5 1_555 1_555
N3 C8 1_555 1_555
C1 H1 1_555 1_555
C2 C1 1_555 1_555
H2 C2 1_555 1_555
C3 N1 1_555 1_555
H3 C3 1_555 1_555
C4 C3 1_555 1_555
H4 C4 1_555 1_555
C5 C1 1_555 1_555
C6 N2 1_555 1_555
C7 C6 1_555 1_555
H5 C7 1_555 1_555
C8 C7 1_555 1_555
H6 C8 1_555 1_555
C9 N3 1_555 1_555
H7 C9 1_555 1_555
C10 C6 1_555 1_555
H8 C10 1_555 1_555
C11 N2 1_555 1_555
H9 C11 1_555 1_555
H10 C11 1_555 1_555
C12 C11 1_555 1_555
C13 C12 1_555 1_555
H11 C13 1_555 1_555
C14 C13 1_555 1_555
H12 C14 1_555 1_555
C15 C14 1_555 1_555
H13 C15 1_555 1_555
C16 C15 1_555 1_555
H14 C16 1_555 1_555
C17 C12 1_555 1_555
H15 C17 1_555 1_555
C18 S1 1_555 1_555
S1 O1 1_555 1_555
O2 Ag1 1_555 1_555
O3 S1 1_555 1_555
F1 C18 1_555 1_555
F2 C18 1_555 1_555
F3 C18 1_555 1_555
N4 C20 1_555 1_555
C19 H16 1_555 1_555
H17 C19 1_555 1_555
H18 C19 1_555 1_555
C20 C19 1_555 1_555
Ag1C N1C 1_555 1_555
Ag1C_2 N3 1_555 1_555
N1C C2C 1_555 1_555
N2C C5C 1_555 1_555
N3C Ag1 1_555 1_555
N3_2 Ag1C 1_555 1_555
C1C H1C 1_555 1_555
C2C C1C 1_555 1_555
H2C C2C 1_555 1_555
C3C N1C 1_555 1_555
H3C C3C 1_555 1_555
C4C C3C 1_555 1_555
H4C C4C 1_555 1_555
C5C C1C 1_555 1_555
C6C N2C 1_555 1_555
C7C C6C 1_555 1_555
H5C C7C 1_555 1_555
C8C N3C 1_555 1_555
H6C C8C 1_555 1_555
C9C N3C 1_555 1_555
H7C C9C 1_555 1_555
C10C C6C 1_555 1_555
H8C C10C 1_555 1_555
C11C N2C 1_555 1_555
H9C C11C 1_555 1_555
H10C C11C 1_555 1_555
C12C C11C 1_555 1_555
C13C C12C 1_555 1_555
H11C C13C 1_555 1_555
C14C C13C 1_555 1_555
H12C C14C 1_555 1_555
C15C C14C 1_555 1_555
H13C C15C 1_555 1_555
C16C C15C 1_555 1_555
H14C C16C 1_555 1_555
C17C C12C 1_555 1_555
H15C C17C 1_555 1_555
C18C S1C 1_555 1_555
S1C O1C 1_555 1_555
O2C Ag1C 1_555 1_555
O3C S1C 1_555 1_555
F1C C18C 1_555 1_555
F2C C18C 1_555 1_555
F3C C18C 1_555 1_555
C19A H16A 1_555 1_555
H17A C19A 1_555 1_555
H18A C19A 1_555 1_555
C20A N4 1_555 1_555
C4 C5 1_555 1_555
C9 C10 1_555 1_555
C16 C17 1_555 1_555
S1 O2 1_555 1_555
C20 C20A 1_555 1_555
C4C C5C 1_555 1_555
C7C C8C 1_555 1_555
C9C C10C 1_555 1_555
C16C C17C 1_555 1_555
S1C O2C 1_555 1_555
C19A C20A 1_555 1_555

#END
