
#######################################################################
#
#                 Cambridge Crystallographic Data Centre
#                                CCDC 
#
#######################################################################
#
# If this CIF has been generated from an entry in the Cambridge 
# Structural Database, then it will include bibliographic, chemical, 
# crystal, experimental, refinement or atomic coordinate data resulting 
# from the CCDC's data processing and validation procedures.
#
#######################################################################

data_QAWBUN
_symmetry_cell_setting           monoclinic
_symmetry_space_group_name_H-M   'C 2/m'
_symmetry_Int_Tables_number      12
_space_group_name_Hall           '-C 2y'
loop_
_symmetry_equiv_pos_site_id
_symmetry_equiv_pos_as_xyz
1 x,y,z
2 -x,y,-z
3 1/2+x,1/2+y,z
4 1/2-x,1/2+y,-z
5 -x,-y,-z
6 x,-y,z
7 1/2-x,1/2-y,-z
8 1/2+x,1/2-y,z
_cell_length_a                   18.0058(19)
_cell_length_b                   6.7693(7)
_cell_length_c                   10.9566(12)
_cell_angle_alpha                90
_cell_angle_beta                 92.319(1)
_cell_angle_gamma                90
_cell_volume                     1334.37
loop_
_atom_site_label
_atom_site_type_symbol
_atom_site_fract_x
_atom_site_fract_y
_atom_site_fract_z
Ga1 Ga 0.2500 0.2500 0.5000
O1 O 0.26740(15) 0.1652(4) 0.3304(2)
O2 O 0.64894(13) -0.1651(4) 0.4436(2)
O3 O 0.20816(17) 0.0000 0.5408(3)
H1 H 0.1957 0.0000 0.6148
C1 C 0.2719(2) 0.0000 0.2801(4)
C2 C 0.2837(3) 0.0000 0.1450(4)
C3 C 0.2219(3) 0.0000 0.0633(5)
H2 H 0.1743 0.0000 0.0930
C4 C 0.2313(3) 0.0000 -0.0601(4)
H3 H 0.1901 0.0000 -0.1142
C5 C 0.3035(3) 0.0000 -0.1048(5)
H4 H 0.3104 0.0000 -0.1884
C6 C 0.3635(3) 0.0000 -0.0240(5)
H5 H 0.4111 0.0000 -0.0541
C7 C 0.3557(3) 0.0000 0.1016(4)
C8 C 0.4212(3) 0.0000 0.1880(4)
C9 C 0.4530(3) 0.1689(8) 0.2285(6)
H6 H 0.4316 0.2884 0.2045
C10 C 0.5169(3) 0.1717(8) 0.3051(6)
H7 H 0.5373 0.2918 0.3305
C11 C 0.5495(2) 0.0000 0.3426(4)
C12 C 0.6211(2) 0.0000 0.4165(4)
Ga1B Ga 0.7500 -0.2500 0.5000
Ga1C Ga 0.2500 -0.2500 0.5000
Ga1A Ga 0.7500 0.2500 0.5000
O1E O 0.26740(15) -0.1652(4) 0.3304(2)
O1F O 0.23260(15) 0.3348(4) 0.6696(2)
O2E O 0.64894(13) 0.1651(4) 0.4436(2)
O2B O 0.14894(13) 0.3349(4) 0.4436(2)
O2D O 0.35106(13) 0.1651(4) 0.5564(2)
O3C O 0.29184(17) 0.5000 0.4592(3)
H1C H 0.3043 0.5000 0.3852
C9E C 0.4530(3) -0.1689(8) 0.2285(6)
H6E H 0.4316 -0.2884 0.2045
C10E C 0.5169(3) -0.1717(8) 0.3051(6)
H7E H 0.5373 -0.2918 0.3305
loop_
_geom_bond_atom_site_label_1
_geom_bond_atom_site_label_2
_geom_bond_site_symmetry_1
_geom_bond_site_symmetry_2
Ga1 O1 1_555 1_555
O1 C1 1_555 1_555
O2 C12 1_555 1_555
O3 Ga1 1_555 1_555
H1 O3 1_555 1_555
C1 C2 1_555 1_555
C2 C3 1_555 1_555
C3 H2 1_555 1_555
C4 C3 1_555 1_555
H3 C4 1_555 1_555
C5 C4 1_555 1_555
H4 C5 1_555 1_555
C6 C5 1_555 1_555
H5 C6 1_555 1_555
C7 C2 1_555 1_555
C8 C7 1_555 1_555
C9 C8 1_555 1_555
H6 C9 1_555 1_555
C10 C9 1_555 1_555
H7 C10 1_555 1_555
C11 C10 1_555 1_555
C12 C11 1_555 1_555
Ga1B O2 1_555 1_555
Ga1C O3 1_555 1_555
Ga1A O2E 1_555 1_555
O1E C1 1_555 1_555
O1F Ga1 1_555 1_555
O2E C12 1_555 1_555
O2B Ga1 1_555 1_555
O2D Ga1 1_555 1_555
O3C Ga1 1_555 1_555
H1C O3C 1_555 1_555
C9E C8 1_555 1_555
H6E C9E 1_555 1_555
C10E C11 1_555 1_555
H7E C10E 1_555 1_555
C6 C7 1_555 1_555
Ga1C O1E 1_555 1_555
C9E C10E 1_555 1_555

#END
