
#######################################################################
#
#                 Cambridge Crystallographic Data Centre
#                                CCDC 
#
#######################################################################
#
# If this CIF has been generated from an entry in the Cambridge 
# Structural Database, then it will include bibliographic, chemical, 
# crystal, experimental, refinement or atomic coordinate data resulting 
# from the CCDC's data processing and validation procedures.
#
#######################################################################

data_QAWBAT
_symmetry_cell_setting           monoclinic
_symmetry_space_group_name_H-M   'P 21/c'
_symmetry_Int_Tables_number      14
_space_group_name_Hall           '-P 2ybc'
loop_
_symmetry_equiv_pos_site_id
_symmetry_equiv_pos_as_xyz
1 x,y,z
2 -x,1/2+y,1/2-z
3 -x,-y,-z
4 x,1/2-y,1/2+z
_cell_length_a                   9.4377(8)
_cell_length_b                   19.1024(18)
_cell_length_c                   15.3449(11)
_cell_angle_alpha                90
_cell_angle_beta                 124.858(4)
_cell_angle_gamma                90
_cell_volume                     2270.04
loop_
_atom_site_label
_atom_site_type_symbol
_atom_site_fract_x
_atom_site_fract_y
_atom_site_fract_z
Cd1 Cd -0.81446(4) -0.458800(15) -0.19651(2)
Cd2 Cd -0.5000 0.0000 0.0000
S1 S -0.35389(13) -0.11274(5) -0.10441(8)
O1 O -0.2453(3) -0.05115(15) 0.1284(2)
O2 O -0.0241(3) -0.12363(15) 0.2213(2)
O3 O -0.1817(3) -0.08344(15) -0.0401(2)
O4 O -0.3926(4) -0.14462(15) -0.2011(2)
O5 O -0.4874(3) -0.06223(14) -0.1265(2)
O6 O -0.6105(3) -0.40039(14) -0.0322(2)
O7 O -0.6379(4) -0.36457(15) -0.1767(2)
O8 O -0.9360(4) -0.5035(2) -0.3615(2)
H1 H -1.017(5) -0.480(2) -0.413(3)
H2 H -0.902(6) -0.533(2) -0.387(3)
O9 O -0.6020(4) -0.53933(17) -0.1609(2)
H3 H -0.610(6) -0.567(2) -0.206(2)
H4 H -0.534(5) -0.556(2) -0.0984(17)
N1 N 0.0942(4) 0.47710(17) -0.1127(3)
N2 N -0.3359(4) 0.08938(18) 0.0019(3)
C1 C -0.0716(5) 0.4601(2) -0.1607(3)
H5 H -0.1525 0.4812 -0.2254
C2 C -0.1295(6) 0.4130(3) -0.1198(4)
H6 H -0.2466 0.4026 -0.1571
C3 C -0.0137(5) 0.3813(2) -0.0237(3)
C4 C 0.1565(5) 0.4011(2) 0.0287(3)
H7 H 0.2390 0.3826 0.0952
C5 C 0.2039(5) 0.4483(2) -0.0178(3)
H8 H 0.3197 0.4609 0.0193
C6 C -0.0752(6) 0.3259(2) 0.0170(4)
H9 H -0.0268 0.3346 0.0913
H10 H -0.2000 0.3281 -0.0222
C7 C -0.0220(7) 0.2537(2) 0.0051(4)
H11 H 0.0978 0.2459 0.0629
H12 H -0.0302 0.2520 -0.0608
C8 C -0.1301(6) 0.1958(2) 0.0049(4)
C9 C -0.2296(6) 0.1541(2) -0.0814(4)
H13 H -0.2297 0.1610 -0.1415
C10 C -0.3293(6) 0.1022(2) -0.0816(4)
H14 H -0.3953 0.0746 -0.1420
C11 C -0.2401(6) 0.1304(2) 0.0852(3)
H15 H -0.2420 0.1227 0.1444
C12 C -0.1381(6) 0.1835(3) 0.0902(4)
H16 H -0.0749 0.2111 0.1509
C13 C -0.1773(5) -0.1101(2) 0.1472(3)
C14 C -0.2836(4) -0.1722(2) 0.0822(3)
C15 C -0.3614(5) -0.1802(2) -0.0267(3)
C16 C -0.4548(5) -0.2407(2) -0.0787(3)
H17 H -0.5031 -0.2462 -0.1507
C17 C -0.4767(5) -0.2928(2) -0.0243(3)
C18 C -0.5804(5) -0.3561(2) -0.0812(3)
C19 C -0.4024(5) -0.2837(2) 0.0833(3)
H18 H -0.4182 -0.3176 0.1206
C20 C -0.3057(5) -0.2253(2) 0.1353(3)
H19 H -0.2536 -0.2212 0.2080
Cd1A Cd -1.18554(4) 0.041200(15) -0.30349(2)
Cd1C Cd 0.18554(4) -0.041200(15) 0.30349(2)
Cd1_2 Cd 0.18554(4) 0.541200(15) -0.19651(2)
Cd1B Cd -1.18554(4) -0.541200(15) 0.19651(2)
Cd1B_2 Cd -0.18554(4) 0.458800(15) 0.19651(2)
S1B S -0.64611(13) 0.11274(5) 0.10441(8)
O1B O -0.7547(3) 0.05115(15) -0.1284(2)
O2B O -0.9759(3) 0.12363(15) -0.2213(2)
O2C O -1.0241(3) -0.37637(15) -0.2787(2)
O2A O 0.0241(3) 0.37637(15) 0.2787(2)
O3B O -0.8183(3) 0.08344(15) 0.0401(2)
O4B O -0.6074(4) 0.14462(15) 0.2011(2)
O5B O -0.5126(3) 0.06223(14) 0.1265(2)
O6B O -0.3895(3) 0.40039(14) 0.0322(2)
O7B O -0.3621(4) 0.36457(15) 0.1767(2)
O8B O -0.0640(4) 0.5035(2) 0.3615(2)
H1B H 0.017(5) 0.480(2) 0.413(3)
H2B H -0.098(6) 0.533(2) 0.387(3)
O9B O -0.3980(4) 0.53933(17) 0.1609(2)
H3B H -0.390(6) 0.567(2) 0.206(2)
H4B H -0.466(5) 0.556(2) 0.0984(17)
N1B N -1.0942(4) -0.47710(17) 0.1127(3)
N1_2 N -0.9058(4) -0.52290(17) -0.1127(3)
N1B_2 N -0.0942(4) 0.52290(17) 0.1127(3)
N2B N -0.6641(4) -0.08938(18) -0.0019(3)
C1B C -0.9284(5) -0.4601(2) 0.1607(3)
H5B H -0.8475 -0.4812 0.2254
C2B C -0.8705(6) -0.4130(3) 0.1198(4)
H6B H -0.7534 -0.4026 0.1571
C3B C -0.9863(5) -0.3813(2) 0.0237(3)
C4B C -1.1565(5) -0.4011(2) -0.0287(3)
H7B H -1.2390 -0.3826 -0.0952
C5B C -1.2039(5) -0.4483(2) 0.0178(3)
H8B H -1.3197 -0.4609 -0.0193
C6B C -0.9248(6) -0.3259(2) -0.0170(4)
H9B H -0.9732 -0.3346 -0.0913
H10B H -0.8000 -0.3281 0.0222
C7B C -0.9780(7) -0.2537(2) -0.0051(4)
H11B H -1.0978 -0.2459 -0.0629
H12B H -0.9698 -0.2520 0.0608
C8B C -0.8699(6) -0.1958(2) -0.0049(4)
C9B C -0.7704(6) -0.1541(2) 0.0814(4)
H13B H -0.7703 -0.1610 0.1415
C10B C -0.6707(6) -0.1022(2) 0.0816(4)
H14B H -0.6047 -0.0746 0.1420
C11B C -0.7599(6) -0.1304(2) -0.0852(3)
H15B H -0.7580 -0.1227 -0.1444
C12B C -0.8619(6) -0.1835(3) -0.0902(4)
H16B H -0.9251 -0.2111 -0.1509
C13B C -0.8227(5) 0.1101(2) -0.1472(3)
C14B C -0.7164(4) 0.1722(2) -0.0822(3)
C15B C -0.6386(5) 0.1802(2) 0.0267(3)
C16B C -0.5452(5) 0.2407(2) 0.0787(3)
H17B H -0.4969 0.2462 0.1507
C17B C -0.5233(5) 0.2928(2) 0.0243(3)
C18B C -0.4196(5) 0.3561(2) 0.0812(3)
C19B C -0.5976(5) 0.2837(2) -0.0833(3)
H18B H -0.5818 0.3176 -0.1206
C20B C -0.6943(5) 0.2253(2) -0.1353(3)
H19B H -0.7464 0.2212 -0.2080
loop_
_geom_bond_atom_site_label_1
_geom_bond_atom_site_label_2
_geom_bond_site_symmetry_1
_geom_bond_site_symmetry_2
Cd1 O6 1_555 1_555
Cd2 O1 1_555 1_555
S1 O3 1_555 1_555
O1 C13 1_555 1_555
O2 C13 1_555 1_555
O4 S1 1_555 1_555
O5 Cd2 1_555 1_555
O6 C18 1_555 1_555
O7 Cd1 1_555 1_555
O8 Cd1 1_555 1_555
H1 O8 1_555 1_555
H2 O8 1_555 1_555
O9 Cd1 1_555 1_555
H3 O9 1_555 1_555
H4 O9 1_555 1_555
N1 C1 1_555 1_555
N2 Cd2 1_555 1_555
C1 H5 1_555 1_555
C2 C1 1_555 1_555
H6 C2 1_555 1_555
C3 C2 1_555 1_555
C4 C3 1_555 1_555
H7 C4 1_555 1_555
C5 N1 1_555 1_555
H8 C5 1_555 1_555
C6 C3 1_555 1_555
H9 C6 1_555 1_555
H10 C6 1_555 1_555
C7 C6 1_555 1_555
H11 C7 1_555 1_555
H12 C7 1_555 1_555
C8 C7 1_555 1_555
C9 C8 1_555 1_555
H13 C9 1_555 1_555
C10 N2 1_555 1_555
H14 C10 1_555 1_555
C11 N2 1_555 1_555
H15 C11 1_555 1_555
C12 C8 1_555 1_555
H16 C12 1_555 1_555
C13 C14 1_555 1_555
C14 C15 1_555 1_555
C15 S1 1_555 1_555
C16 C15 1_555 1_555
H17 C16 1_555 1_555
C17 C16 1_555 1_555
C18 O7 1_555 1_555
C19 C17 1_555 1_555
H18 C19 1_555 1_555
C20 C14 1_555 1_555
H19 C20 1_555 1_555
Cd1A O2B 1_555 1_555
Cd1C O2 1_555 1_555
Cd1_2 N1 1_555 1_555
Cd1B N1B 1_555 1_555
Cd1B_2 O2A 1_555 1_555
S1B O3B 1_555 1_555
O1B Cd2 1_555 1_555
O2B C13B 1_555 1_555
O2C Cd1 1_555 1_555
O4B S1B 1_555 1_555
O5B Cd2 1_555 1_555
O6B Cd1B_2 1_555 1_555
O7B Cd1B_2 1_555 1_555
O8B Cd1B_2 1_555 1_555
H1B O8B 1_555 1_555
H2B O8B 1_555 1_555
O9B Cd1B_2 1_555 1_555
H3B O9B 1_555 1_555
H4B O9B 1_555 1_555
N1B C1B 1_555 1_555
N1_2 Cd1 1_555 1_555
N1B_2 Cd1B_2 1_555 1_555
N2B Cd2 1_555 1_555
C1B H5B 1_555 1_555
C2B C1B 1_555 1_555
H6B C2B 1_555 1_555
C3B C2B 1_555 1_555
C4B C3B 1_555 1_555
H7B C4B 1_555 1_555
C5B N1B 1_555 1_555
H8B C5B 1_555 1_555
C6B C3B 1_555 1_555
H9B C6B 1_555 1_555
H10B C6B 1_555 1_555
C7B C6B 1_555 1_555
H11B C7B 1_555 1_555
H12B C7B 1_555 1_555
C8B C7B 1_555 1_555
C9B C8B 1_555 1_555
H13B C9B 1_555 1_555
C10B N2B 1_555 1_555
H14B C10B 1_555 1_555
C11B N2B 1_555 1_555
H15B C11B 1_555 1_555
C12B C8B 1_555 1_555
H16B C12B 1_555 1_555
C13B O1B 1_555 1_555
C14B C13B 1_555 1_555
C15B S1B 1_555 1_555
C16B C15B 1_555 1_555
H17B C16B 1_555 1_555
C17B C16B 1_555 1_555
C18B O6B 1_555 1_555
C19B C17B 1_555 1_555
H18B C19B 1_555 1_555
C20B C14B 1_555 1_555
H19B C20B 1_555 1_555
S1 O5 1_555 1_555
C4 C5 1_555 1_555
C9 C10 1_555 1_555
C11 C12 1_555 1_555
C17 C18 1_555 1_555
C19 C20 1_555 1_555
S1B O5B 1_555 1_555
O7B C18B 1_555 1_555
C4B C5B 1_555 1_555
C9B C10B 1_555 1_555
C11B C12B 1_555 1_555
C14B C15B 1_555 1_555
C17B C18B 1_555 1_555
C19B C20B 1_555 1_555

#END
