
#######################################################################
#
#                 Cambridge Crystallographic Data Centre
#                                CCDC 
#
#######################################################################
#
# If this CIF has been generated from an entry in the Cambridge 
# Structural Database, then it will include bibliographic, chemical, 
# crystal, experimental, refinement or atomic coordinate data resulting 
# from the CCDC's data processing and validation procedures.
#
#######################################################################

data_QAWCIC
_symmetry_cell_setting           triclinic
_symmetry_space_group_name_H-M   'P -1'
_symmetry_Int_Tables_number      2
_space_group_name_Hall           '-P 1'
loop_
_symmetry_equiv_pos_site_id
_symmetry_equiv_pos_as_xyz
1 x,y,z
2 -x,-y,-z
_cell_length_a                   7.6570(5)
_cell_length_b                   11.4161(5)
_cell_length_c                   13.0749(8)
_cell_angle_alpha                75.563(3)
_cell_angle_beta                 82.687(3)
_cell_angle_gamma                81.306(3)
_cell_volume                     1089.31
loop_
_atom_site_label
_atom_site_type_symbol
_atom_site_fract_x
_atom_site_fract_y
_atom_site_fract_z
Eu1 Eu -0.39223(2) 0.391210(15) 0.351856(14)
N1 N -0.7317(8) 0.5608(6) 0.1001(4)
O1 O -0.1991(4) 0.1957(3) 0.3999(2)
O2 O -0.1678(4) 0.2976(3) 0.2332(2)
O3 O 0.0329(5) -0.3466(3) 0.3429(3)
O4 O -0.1134(4) -0.2663(3) 0.4701(2)
O5 O 0.4151(4) 0.3945(3) -0.3252(3)
O6 O 0.5623(5) 0.3335(3) -0.4637(2)
O7 O 0.7335(5) -0.1053(3) -0.4357(3)
H1 H 0.7694 -0.1642 -0.4612
O8 O 0.5582(5) -0.2340(3) -0.3331(3)
O9 O -0.4915(5) 0.4692(3) 0.1803(3)
O10 O -0.7045(4) 0.4529(3) 0.3988(3)
O11 O -0.1250(4) 0.4434(3) 0.3977(3)
C1 C -0.0420(5) 0.0877(3) 0.2741(3)
C2 C 0.0495(5) 0.0943(4) 0.1746(3)
H2 H 0.0608 0.1700 0.1287
C3 C 0.1244(5) -0.0112(4) 0.1428(3)
C4 C 0.1020(5) -0.1247(4) 0.2116(3)
H3 H 0.1495 -0.1958 0.1903
C5 C 0.0088(5) -0.1323(3) 0.3120(3)
C6 C -0.0584(5) -0.0255(4) 0.3438(3)
H4 H -0.1146 -0.0295 0.4118
C7 C -0.1394(5) 0.2017(4) 0.3048(3)
C8 C -0.0248(5) -0.2571(3) 0.3796(3)
C9 C 0.2159(5) -0.0022(4) 0.0375(3)
C10 C 0.2852(6) 0.0107(4) -0.0507(3)
C11 C 0.4704(5) 0.1822(3) -0.3146(3)
C12 C 0.5511(5) 0.0883(3) -0.3617(3)
H5 H 0.6154 0.1057 -0.4278
C13 C 0.5343(5) -0.0325(3) -0.3083(3)
C14 C 0.4442(5) -0.0602(3) -0.2072(3)
H6 H 0.4331 -0.1409 -0.1728
C15 C 0.3701(5) 0.0344(3) -0.1575(3)
C16 C 0.3801(5) 0.1555(3) -0.2139(3)
H7 H 0.3256 0.2189 -0.1835
C17 C 0.4828(5) 0.3133(3) -0.3732(3)
C18 C 0.6094(5) -0.1333(3) -0.3607(3)
C19 C -0.5723(9) 0.5561(6) 0.1149(5)
C20 C -0.4784(10) 0.6619(6) 0.0467(5)
H8 H -0.3573 0.6509 0.0629
H9 H -0.5374 0.7372 0.0614
H10 H -0.4814 0.6640 -0.0269
C21 C -0.8344(11) 0.6540(8) 0.0239(6)
H11 H -0.9532 0.6344 0.0292
H12 H -0.7795 0.6564 -0.0467
H13 H -0.8374 0.7322 0.0395
C22 C -0.8310(10) 0.4529(9) 0.1632(6)
H14 H -0.9503 0.4657 0.1436
H15 H -0.8334 0.4476 0.2378
H16 H -0.7710 0.3785 0.1474
H17 H -0.078(8) 0.530(3) 0.371(6)
H18 H -0.045(7) 0.390(4) 0.437(5)
H19 H -0.764(9) 0.401(5) 0.459(4)
H20 H -0.735(9) 0.535(2) 0.399(5)
Eu1A Eu 0.39223(2) 0.608790(15) -0.351856(14)
Eu1_2 Eu 0.60777(2) 0.391210(15) -0.648144(14)
Eu1A_2 Eu 0.39223(2) -0.391210(15) -0.351856(14)
O5A O -0.4151(4) 0.6055(3) 0.3252(3)
O6_2 O -0.4377(5) 0.3335(3) 0.5363(2)
O8A O -0.5582(5) 0.2340(3) 0.3331(3)
loop_
_geom_bond_atom_site_label_1
_geom_bond_atom_site_label_2
_geom_bond_site_symmetry_1
_geom_bond_site_symmetry_2
Eu1 O1 1_555 1_555
N1 C19 1_555 1_555
O1 C7 1_555 1_555
O2 Eu1 1_555 1_555
O3 C8 1_555 1_555
O4 C8 1_555 1_555
O5 C17 1_555 1_555
O6 C17 1_555 1_555
O7 H1 1_555 1_555
O8 C18 1_555 1_555
O9 Eu1 1_555 1_555
O10 Eu1 1_555 1_555
O11 Eu1 1_555 1_555
C1 C2 1_555 1_555
C2 H2 1_555 1_555
C3 C2 1_555 1_555
C4 C3 1_555 1_555
H3 C4 1_555 1_555
C5 C4 1_555 1_555
C6 C1 1_555 1_555
H4 C6 1_555 1_555
C7 O2 1_555 1_555
C8 C5 1_555 1_555
C9 C3 1_555 1_555
C10 C9 1_555 1_555
C11 C12 1_555 1_555
C12 H5 1_555 1_555
C13 C12 1_555 1_555
C14 C13 1_555 1_555
H6 C14 1_555 1_555
C15 C10 1_555 1_555
C16 C11 1_555 1_555
H7 C16 1_555 1_555
C17 C11 1_555 1_555
C18 O7 1_555 1_555
C19 O9 1_555 1_555
C20 C19 1_555 1_555
H8 C20 1_555 1_555
H9 C20 1_555 1_555
H10 C20 1_555 1_555
C21 N1 1_555 1_555
H11 C21 1_555 1_555
H12 C21 1_555 1_555
H13 C21 1_555 1_555
C22 N1 1_555 1_555
H14 C22 1_555 1_555
H15 C22 1_555 1_555
H16 C22 1_555 1_555
H17 O11 1_555 1_555
H18 O11 1_555 1_555
H19 O10 1_555 1_555
H20 O10 1_555 1_555
Eu1A O5 1_555 1_555
Eu1_2 O6 1_555 1_555
Eu1A_2 O8 1_555 1_555
O5A Eu1 1_555 1_555
O6_2 Eu1 1_555 1_555
O8A Eu1 1_555 1_555
C1 C7 1_555 1_555
C5 C6 1_555 1_555
C13 C18 1_555 1_555
C14 C15 1_555 1_555
C15 C16 1_555 1_555

#END
