
#######################################################################
#
#                 Cambridge Crystallographic Data Centre
#                                CCDC 
#
#######################################################################
#
# If this CIF has been generated from an entry in the Cambridge 
# Structural Database, then it will include bibliographic, chemical, 
# crystal, experimental, refinement or atomic coordinate data resulting 
# from the CCDC's data processing and validation procedures.
#
#######################################################################

data_QAWCAU
_symmetry_cell_setting           monoclinic
_symmetry_space_group_name_H-M   'P 21/c'
_symmetry_Int_Tables_number      14
_space_group_name_Hall           '-P 2ybc'
loop_
_symmetry_equiv_pos_site_id
_symmetry_equiv_pos_as_xyz
1 x,y,z
2 -x,1/2+y,1/2-z
3 -x,-y,-z
4 x,1/2-y,1/2+z
_cell_length_a                   12.8513(17)
_cell_length_b                   12.4666(16)
_cell_length_c                   17.686(3)
_cell_angle_alpha                90
_cell_angle_beta                 93.486(4)
_cell_angle_gamma                90
_cell_volume                     2828.27
loop_
_atom_site_label
_atom_site_type_symbol
_atom_site_fract_x
_atom_site_fract_y
_atom_site_fract_z
Pb1 Pb 0.65639(2) 0.987488(19) 0.260685(16)
S1 S 0.5488(3) 0.8045(2) 0.35518(15)
N1 N 0.5214(4) 0.9354(5) 0.1481(4)
S2 S 0.8916(3) 1.0019(3) 0.0542(3)
N2 N 0.6899(5) 0.8154(5) 0.1907(4)
C1 C 0.9802(6) 1.1264(6) 0.3891(4)
H1 H 1.0471 1.0980 0.3958
C2 C 0.6378(5) 0.7853(5) 0.1314(4)
C3 C 0.5450(5) 0.8520(5) 0.1054(4)
C4 C 0.4396(6) 0.9941(6) 0.1261(6)
H2 H 0.4234 1.0530 0.1555
C5 C 0.6626(6) 0.6904(6) 0.0848(4)
C6 C 0.4857(6) 0.8257(7) 0.0390(4)
H3 H 0.5038 0.7675 0.0096
C7 C 0.3771(6) 0.9725(7) 0.0617(6)
H4 H 0.3198 1.0157 0.0484
C8 C 0.4005(6) 0.8872(7) 0.0179(5)
H5 H 0.3592 0.8708 -0.0256
C9 C 0.4889(6) 0.7367(6) 0.2868(5)
N3 N 0.4496(6) 0.6870(6) 0.2401(5)
N4 N 0.8065(4) 1.1123(4) 0.3355(3)
C10 C 0.9036(5) 1.0725(5) 0.3462(4)
C11 C 0.9563(7) 1.2234(7) 0.4222(5)
H6 H 1.0068 1.2613 0.4510
C12 C 0.7856(6) 1.2053(6) 0.3672(5)
H7 H 0.7189 1.2337 0.3588
C13 C 0.9245(6) 0.9674(6) 0.3098(4)
C14 C 1.0367(7) 0.9365(7) 0.3040(6)
C15 C 0.8576(7) 1.2622(7) 0.4118(5)
H8 H 0.8390 1.3261 0.4345
C16 C 0.7372(7) 0.6988(8) 0.0319(5)
H9 H 0.7721 0.7632 0.0254
C17 C 0.6109(8) 0.5941(7) 0.0929(5)
H10 H 0.5617 0.5875 0.1291
C18 C 0.7095(12) 0.5165(10) -0.0026(7)
H11 H 0.7276 0.4571 -0.0307
C19 C 0.6323(12) 0.5075(7) 0.0472(7)
H12 H 0.5947 0.4440 0.0503
C20 C 0.7591(9) 0.6098(11) -0.0114(6)
H13 H 0.8090 0.6149 -0.0472
C21 C 1.0912(9) 0.9835(9) 0.2473(8)
H14 H 1.0552 1.0325 0.2159
C22 C 1.0813(10) 0.8626(10) 0.3531(8)
H15 H 1.0457 0.8312 0.3917
C23 C 1.1957(12) 0.9638(15) 0.2331(11)
H16 H 1.2344 0.9955 0.1964
N5 N 0.8478(5) 0.9121(5) 0.2835(4)
C24 C 0.8684(7) 0.8142(7) 0.2395(6)
H17 H 0.8971 0.8346 0.1921
H18 H 0.9200 0.7709 0.2678
C25 C 0.7762(7) 0.7514(7) 0.2237(6)
H19 H 0.7555 0.7188 0.2703
H20 H 0.7915 0.6942 0.1889
C26 C 1.2273(13) 0.8905(15) 0.2833(11)
H21 H 1.2960 0.8723 0.2755
C27 C 1.1966(12) 0.8357(12) 0.3390(10)
H22 H 1.2376 0.7867 0.3671
C28 C 0.8081(8) 1.0376(9) 0.1160(6)
N6 N 0.7440(6) 1.0555(7) 0.1535(4)
Pb1A Pb 0.34361(2) 0.487488(19) 0.239315(16)
N3A N 0.5504(6) 1.1870(6) 0.2599(5)
loop_
_geom_bond_atom_site_label_1
_geom_bond_atom_site_label_2
_geom_bond_site_symmetry_1
_geom_bond_site_symmetry_2
Pb1 S1 1_555 1_555
S1 C9 1_555 1_555
N1 Pb1 1_555 1_555
S2 C28 1_555 1_555
N2 Pb1 1_555 1_555
C1 H1 1_555 1_555
C2 N2 1_555 1_555
C3 N1 1_555 1_555
C4 N1 1_555 1_555
H2 C4 1_555 1_555
C5 C2 1_555 1_555
C6 C3 1_555 1_555
H3 C6 1_555 1_555
C7 C4 1_555 1_555
H4 C7 1_555 1_555
C8 C6 1_555 1_555
H5 C8 1_555 1_555
C9 N3 1_555 1_555
N3 Pb1A 1_555 1_555
N4 Pb1 1_555 1_555
C10 C1 1_555 1_555
C11 C1 1_555 1_555
H6 C11 1_555 1_555
C12 N4 1_555 1_555
H7 C12 1_555 1_555
C13 C10 1_555 1_555
C14 C13 1_555 1_555
C15 C11 1_555 1_555
H8 C15 1_555 1_555
C16 C5 1_555 1_555
H9 C16 1_555 1_555
C17 C5 1_555 1_555
H10 C17 1_555 1_555
C18 H11 1_555 1_555
C19 C17 1_555 1_555
H12 C19 1_555 1_555
C20 C16 1_555 1_555
H13 C20 1_555 1_555
C21 C14 1_555 1_555
H14 C21 1_555 1_555
C22 C14 1_555 1_555
H15 C22 1_555 1_555
C23 C21 1_555 1_555
H16 C23 1_555 1_555
N5 Pb1 1_555 1_555
C24 N5 1_555 1_555
H17 C24 1_555 1_555
H18 C24 1_555 1_555
C25 N2 1_555 1_555
H19 C25 1_555 1_555
H20 C25 1_555 1_555
C26 C23 1_555 1_555
H21 C26 1_555 1_555
C27 C22 1_555 1_555
H22 C27 1_555 1_555
C28 N6 1_555 1_555
N6 Pb1 1_555 1_555
N3A Pb1 1_555 1_555
C2 C3 1_555 1_555
C7 C8 1_555 1_555
N4 C10 1_555 1_555
C12 C15 1_555 1_555
C13 N5 1_555 1_555
C18 C19 1_555 1_555
C18 C20 1_555 1_555
C24 C25 1_555 1_555
C26 C27 1_555 1_555

#END
