
#######################################################################
#
#                 Cambridge Crystallographic Data Centre
#                                CCDC 
#
#######################################################################
#
# If this CIF has been generated from an entry in the Cambridge 
# Structural Database, then it will include bibliographic, chemical, 
# crystal, experimental, refinement or atomic coordinate data resulting 
# from the CCDC's data processing and validation procedures.
#
#######################################################################

data_QAWCOI
_symmetry_cell_setting           triclinic
_symmetry_space_group_name_H-M   'P -1'
_symmetry_Int_Tables_number      2
_space_group_name_Hall           '-P 1'
loop_
_symmetry_equiv_pos_site_id
_symmetry_equiv_pos_as_xyz
1 x,y,z
2 -x,-y,-z
_cell_length_a                   7.6316(5)
_cell_length_b                   11.3898(7)
_cell_length_c                   13.0863(8)
_cell_angle_alpha                75.580(4)
_cell_angle_beta                 82.545(4)
_cell_angle_gamma                81.533(4)
_cell_volume                     1084.49
loop_
_atom_site_label
_atom_site_type_symbol
_atom_site_fract_x
_atom_site_fract_y
_atom_site_fract_z
Tb1 Tb 0.10645(2) 0.391091(16) 0.352240(15)
N1 N -0.2298(10) 0.5610(8) 0.0992(5)
O1 O 0.2985(5) 0.1965(3) 0.4004(3)
O2 O 0.3286(5) 0.2992(3) 0.2333(3)
O3 O 0.5336(5) -0.3469(3) 0.3422(3)
O4 O 0.3882(5) -0.2659(3) 0.4695(3)
O5 O 0.9142(5) 0.3970(3) -0.3267(3)
O6 O 1.0612(5) 0.3342(3) -0.4659(3)
O7 O 1.2342(6) -0.1056(3) -0.4355(3)
H1 H 1.2702 -0.1647 -0.4610
O8 O 1.0579(5) -0.2350(3) -0.3338(3)
O9 O 0.0084(5) 0.4687(4) 0.1824(3)
O10 O -0.2037(4) 0.4527(3) 0.3978(3)
O11 O 0.3729(4) 0.4422(3) 0.3978(3)
C1 C 0.4561(6) 0.0894(4) 0.2741(3)
C2 C 0.5484(6) 0.0960(4) 0.1743(3)
H2 H 0.5597 0.1719 0.1285
C3 C 0.6242(6) -0.0098(4) 0.1420(3)
C4 C 0.6028(6) -0.1244(4) 0.2109(3)
H3 H 0.6505 -0.1956 0.1898
C5 C 0.5094(5) -0.1310(4) 0.3115(3)
C6 C 0.4412(6) -0.0239(4) 0.3427(3)
H4 H 0.3847 -0.0282 0.4107
C7 C 0.3594(6) 0.2019(4) 0.3049(4)
C8 C 0.4766(6) -0.2568(4) 0.3792(3)
C9 C 0.7162(6) -0.0009(4) 0.0375(4)
C10 C 0.7855(6) 0.0126(4) -0.0517(3)
C11 C 0.8699(6) 0.0358(4) -0.1583(3)
C12 C 0.8797(6) 0.1571(4) -0.2152(3)
H5 H 0.8249 0.2207 -0.1852
C13 C 0.9705(5) 0.1834(4) -0.3161(3)
C14 C 1.0507(5) 0.0886(4) -0.3625(3)
H6 H 1.1149 0.1058 -0.4288
C15 C 1.0340(5) -0.0326(4) -0.3087(3)
C16 C 0.9443(6) -0.0586(4) -0.2072(3)
H7 H 0.9338 -0.1392 -0.1718
C17 C 0.9823(5) 0.3145(4) -0.3745(3)
C18 C 1.1096(6) -0.1338(4) -0.3608(3)
C19 C -0.0719(11) 0.5550(8) 0.1165(5)
C20 C 0.0247(11) 0.6615(7) 0.0465(6)
H8 H 0.1452 0.6519 0.0639
H9 H -0.0357 0.7375 0.0589
H10 H 0.0247 0.6614 -0.0268
C21 C -0.3316(11) 0.4515(10) 0.1642(6)
H11 H -0.4513 0.4640 0.1450
H12 H -0.3338 0.4468 0.2386
H13 H -0.2718 0.3767 0.1487
C22 C -0.3276(12) 0.6541(9) 0.0208(7)
H14 H -0.4474 0.6357 0.0248
H15 H -0.2699 0.6546 -0.0490
H16 H -0.3293 0.7329 0.0353
H17 H 0.460(6) 0.385(4) 0.425(6)
H18 H -0.262(9) 0.408(5) 0.460(4)
H19 H 0.422(9) 0.527(3) 0.362(6)
H20 H -0.235(10) 0.536(2) 0.381(6)
Tb1A Tb 0.89355(2) 0.608909(16) -0.352240(15)
Tb1_2 Tb 1.10645(2) 0.391091(16) -0.647760(15)
Tb1A_2 Tb 0.89355(2) -0.391091(16) -0.352240(15)
O5A O 0.0858(5) 0.6030(3) 0.3267(3)
O6_2 O 0.0612(5) 0.3342(3) 0.5341(3)
O8A O -0.0579(5) 0.2350(3) 0.3338(3)
loop_
_geom_bond_atom_site_label_1
_geom_bond_atom_site_label_2
_geom_bond_site_symmetry_1
_geom_bond_site_symmetry_2
Tb1 O1 1_555 1_555
N1 C19 1_555 1_555
O1 C7 1_555 1_555
O2 Tb1 1_555 1_555
O3 C8 1_555 1_555
O4 C8 1_555 1_555
O5 C17 1_555 1_555
O6 C17 1_555 1_555
O7 H1 1_555 1_555
O8 C18 1_555 1_555
O9 Tb1 1_555 1_555
O10 Tb1 1_555 1_555
O11 Tb1 1_555 1_555
C1 C2 1_555 1_555
C2 H2 1_555 1_555
C3 C2 1_555 1_555
C4 C3 1_555 1_555
H3 C4 1_555 1_555
C5 C4 1_555 1_555
C6 C1 1_555 1_555
H4 C6 1_555 1_555
C7 O2 1_555 1_555
C8 C5 1_555 1_555
C9 C3 1_555 1_555
C10 C9 1_555 1_555
C11 C10 1_555 1_555
C12 C11 1_555 1_555
H5 C12 1_555 1_555
C13 C12 1_555 1_555
C14 C13 1_555 1_555
H6 C14 1_555 1_555
C15 C14 1_555 1_555
C16 C11 1_555 1_555
H7 C16 1_555 1_555
C17 C13 1_555 1_555
C18 O7 1_555 1_555
C19 O9 1_555 1_555
C20 C19 1_555 1_555
H8 C20 1_555 1_555
H9 C20 1_555 1_555
H10 C20 1_555 1_555
C21 N1 1_555 1_555
H11 C21 1_555 1_555
H12 C21 1_555 1_555
H13 C21 1_555 1_555
C22 N1 1_555 1_555
H14 C22 1_555 1_555
H15 C22 1_555 1_555
H16 C22 1_555 1_555
H17 O11 1_555 1_555
H18 O10 1_555 1_555
H19 O11 1_555 1_555
H20 O10 1_555 1_555
Tb1A O5 1_555 1_555
Tb1_2 O6 1_555 1_555
Tb1A_2 O8 1_555 1_555
O5A Tb1 1_555 1_555
O6_2 Tb1 1_555 1_555
O8A Tb1 1_555 1_555
C1 C7 1_555 1_555
C5 C6 1_555 1_555
C15 C16 1_555 1_555
C15 C18 1_555 1_555

#END
