
#######################################################################
#
#                 Cambridge Crystallographic Data Centre
#                                CCDC 
#
#######################################################################
#
# If this CIF has been generated from an entry in the Cambridge 
# Structural Database, then it will include bibliographic, chemical, 
# crystal, experimental, refinement or atomic coordinate data resulting 
# from the CCDC's data processing and validation procedures.
#
#######################################################################

data_QAWGOM
_symmetry_cell_setting           monoclinic
_symmetry_space_group_name_H-M   'P 21/n'
_symmetry_Int_Tables_number      14
_space_group_name_Hall           '-P 2yn'
loop_
_symmetry_equiv_pos_site_id
_symmetry_equiv_pos_as_xyz
1 x,y,z
2 1/2-x,1/2+y,1/2-z
3 -x,-y,-z
4 1/2+x,1/2-y,1/2+z
_cell_length_a                   15.673(4)
_cell_length_b                   17.495(4)
_cell_length_c                   19.235(5)
_cell_angle_alpha                90
_cell_angle_beta                 110.215(4)
_cell_angle_gamma                90
_cell_volume                     4949.34
loop_
_atom_site_label
_atom_site_type_symbol
_atom_site_fract_x
_atom_site_fract_y
_atom_site_fract_z
Gd1 Gd 0.481511(17) 0.835322(15) 0.196212(16)
Cu1 Cu 0.19255(5) 1.03836(4) 0.25684(4)
Cu2 Cu 0.78924(5) 0.63549(4) 0.22594(4)
Cu3 Cu 0.07565(5) 0.85763(4) 0.30493(4)
Cu4 Cu -0.06627(5) 0.81696(4) 0.18903(4)
C1 C 0.1635(5) 1.0979(4) 0.1123(4)
H1 H 0.1108 1.1285 0.1093
H2 H 0.1639 1.0910 0.0623
C2 C 0.2484(5) 1.1397(4) 0.1578(4)
H3 H 0.3013 1.1101 0.1590
H4 H 0.2511 1.1884 0.1346
C3 C 0.0624(4) 0.9924(4) 0.1136(4)
H5 H 0.0520 0.9718 0.0646
H6 H 0.0198 1.0340 0.1088
C4 C 0.0450(4) 0.9303(3) 0.1626(4)
C5 C 0.2206(5) 0.9654(4) 0.1342(4)
H7 H 0.2455 0.9846 0.0979
H8 H 0.1878 0.9187 0.1147
C6 C 0.2975(4) 0.9472(3) 0.2042(4)
C7 C 0.1850(6) 1.2091(4) 0.2395(5)
H9 H 0.1669 1.2407 0.1953
H10 H 0.2142 1.2421 0.2815
C8 C 0.1000(5) 1.1748(4) 0.2484(5)
C9 C 0.3433(5) 1.1632(4) 0.2871(4)
H11 H 0.3780 1.1175 0.2864
H12 H 0.3395 1.1674 0.3362
C10 C 0.3966(5) 1.2321(4) 0.2749(4)
C11 C 0.8038(5) 0.5961(3) 0.3744(4)
H13 H 0.7997 0.6114 0.4216
H14 H 0.8541 0.5606 0.3841
C12 C 0.7162(4) 0.5562(4) 0.3287(4)
H15 H 0.7067 0.5121 0.3556
H16 H 0.6654 0.5908 0.3210
C13 C 0.9178(4) 0.6876(4) 0.3691(4)
H17 H 0.9558 0.6424 0.3770
H18 H 0.9274 0.7106 0.4171
C14 C 0.9467(4) 0.7439(3) 0.3212(4)
C15 C 0.7605(4) 0.7294(3) 0.3375(4)
H19 H 0.7967 0.7751 0.3544
H20 H 0.7309 0.7177 0.3729
C16 C 0.6888(4) 0.7449(3) 0.2629(4)
C17 C 0.7854(4) 0.4689(3) 0.2616(4)
H21 H 0.7606 0.4350 0.2196
H22 H 0.7932 0.4395 0.3062
C18 C 0.8780(4) 0.4974(4) 0.2635(4)
C19 C 0.6294(4) 0.5146(4) 0.2029(4)
H23 H 0.6357 0.5059 0.1551
H24 H 0.5917 0.5596 0.1982
C20 C 0.5789(4) 0.4466(3) 0.2197(4)
N1 N 0.1560(3) 1.0224(3) 0.1441(3)
N2 N 0.2512(4) 1.1529(3) 0.2339(4)
N3 N 0.8217(3) 0.6649(3) 0.3356(3)
N4 N 0.7191(3) 0.5315(3) 0.2563(3)
O1 O 0.0967(3) 0.9257(2) 0.2282(2)
O2 O -0.0241(3) 0.8898(3) 0.1320(3)
O3 O 0.2971(3) 0.9751(3) 0.2639(3)
O4 O 0.3579(4) 0.9036(3) 0.1990(4)
O5 O 0.0900(3) 1.1042(3) 0.2491(3)
O6 O 0.0414(4) 1.2207(3) 0.2541(4)
O7 O 0.3580(3) 1.2772(3) 0.2225(3)
O8 O 0.4774(4) 1.2377(3) 0.3181(3)
O9 O 0.2263(5) 1.0354(4) 0.3660(3)
H25 H 0.1910 1.0646 0.3788
H26 H 0.2820 1.0469 0.3873
O10 O 0.7659(4) 0.6274(3) 0.1181(3)
H27 H 0.7978 0.5920 0.1091
H28 H 0.7156 0.6289 0.0822
O11 O 0.8984(3) 0.7473(3) 0.2539(3)
O12 O 1.0172(3) 0.7816(3) 0.3530(3)
O13 O 0.6902(3) 0.7080(3) 0.2076(3)
O14 O 0.6320(3) 0.7958(3) 0.2611(3)
O15 O 0.8891(3) 0.5648(2) 0.2471(3)
O16 O 0.9409(4) 0.4486(3) 0.2807(4)
O17 O 0.6204(3) 0.4042(2) 0.2735(3)
O18 O 0.4979(3) 0.4383(3) 0.1764(3)
O19 O 0.1905(4) 0.8831(4) 0.4024(3)
H29 H 0.2110 0.9279 0.4014
H30 H 0.2339 0.8521 0.4070
O20 O -0.1744(4) 0.7779(3) 0.0923(3)
H31 H -0.1560 0.7748 0.0557
H32 H -0.2203 0.8072 0.0831
O21 O 0.3476(4) 0.7732(4) 0.1056(4)
H33 H 0.3649 0.7322 0.0907
H34 H 0.3210 0.8056 0.0723
O22 O 0.5120(5) 0.8576(4) 0.3289(3)
H35 H 0.5432 0.8985 0.3357
H36 H 0.5443 0.8183 0.3461
O23 O 0.4401(5) 0.9066(4) 0.0784(3)
H37 H 0.4110 0.8758 0.0443
H38 H 0.4897 0.9235 0.0758
O24 O 0.5334(4) 0.7637(4) 0.1114(3)
H39 H 0.5867 0.7475 0.1349
H40 H 0.5316 0.7943 0.0765
Gd1A Gd 0.018489(17) 1.335322(15) 0.303788(16)
Gd1A_2 Gd 1.018489(17) 0.335322(15) 0.303788(16)
Cu3A Cu 0.42435(5) 1.35763(4) 0.19507(4)
Cu3_2 Cu 1.07565(5) 0.85763(4) 0.30493(4)
Cu3A_2 Cu 0.42435(5) 0.35763(4) 0.19507(4)
Cu4A Cu 0.56627(5) 1.31696(4) 0.31097(4)
Cu4_2 Cu 0.93373(5) 0.81696(4) 0.18903(4)
Cu4A_2 Cu 0.56627(5) 0.31696(4) 0.31097(4)
O6A O 0.4586(4) 0.7207(3) 0.2459(4)
O7A O 0.1420(3) 0.7772(3) 0.2775(3)
O8A O 0.0226(4) 0.7377(3) 0.1819(3)
O11_2 O -0.1016(3) 0.7473(3) 0.2539(3)
O12_2 O 0.0172(3) 0.7816(3) 0.3530(3)
O16A O 0.5591(4) 0.9486(3) 0.2193(4)
O17A O -0.1204(3) 0.9042(2) 0.2265(3)
O18A O 0.0021(3) 0.9383(3) 0.3236(3)
O25 O 0.3975(7) 0.3557(7) -0.0101(5)
H41 H 0.3848 0.3667 0.0283
H42 H 0.4549 0.3521 0.0027
O26 O 0.1162(14) 0.3877(13) 0.0999(12)
H43 H 0.0979 0.3420 0.1000
H44 H 0.1319 0.4020 0.1449
O27 O 0.1104(13) 0.5608(14) 0.0369(9)
H45 H 0.1068 0.6074 0.0231
H46 H 0.0602 0.5532 0.0434
O28 O 0.5239(15) 0.1358(12) 0.4503(12)
H47 H 0.5709 0.1561 0.4813
H48 H 0.5247 0.1637 0.4143
O29 O 0.897(2) 0.5187(16) 0.0963(15)
H49 H 0.9385 0.5427 0.0843
H50 H 0.8591 0.4973 0.0608
Cl1 Cl 0.86030(12) 0.40556(11) 0.50516(10)
O30 O 0.8985(6) 0.4341(5) 0.5806(4)
O31 O 0.7657(5) 0.4255(6) 0.4770(6)
O32 O 0.8705(9) 0.3230(5) 0.5077(7)
O33 O 0.9056(8) 0.4391(6) 0.4601(6)
Cl2 Cl 0.88680(18) 0.19979(18) 0.01532(15)
O34 O 0.8021(8) 0.1577(7) 0.0111(8)
O35 O 0.8712(11) 0.2104(9) -0.0627(6)
O36 O 0.8767(13) 0.2701(8) 0.0490(9)
O37 O 0.9601(14) 0.1538(16) 0.0536(16)
Cl3 Cl 0.6362(3) 0.4020(2) 0.00976(17)
O38 O 0.7331(14) 0.3689(18) 0.0380(19)
O39 O 0.5977(18) 0.3860(14) -0.0655(8)
O40 O 0.6611(16) 0.4858(8) 0.0152(11)
O41 O 0.5988(16) 0.3856(13) 0.0623(10)
Cl4? Cl 0.86030(12) 0.40556(11) 0.50516(10)
Cl5? Cl 0.88680(18) 0.19979(18) 0.01532(15)
Cl6? Cl 0.6362(3) 0.4020(2) 0.00976(17)
O42? O 0.9518(12) 0.4310(15) 0.5104(15)
O43? O 0.8134(19) 0.4681(13) 0.5246(17)
O44? O 0.8135(19) 0.3909(17) 0.4243(9)
O45? O 0.8611(19) 0.3381(11) 0.5450(14)
O46? O 0.8021(8) 0.1577(7) 0.0111(8)
O47? O 0.868(2) 0.2662(14) -0.0276(19)
O48? O 0.9314(17) 0.2166(19) 0.0946(10)
O49? O 0.9426(14) 0.1457(13) -0.0045(14)
O50? O 0.5876(14) 0.3282(9) 0.0240(11)
O51? O 0.7090(14) 0.4115(14) 0.0785(10)
O52? O 0.5657(13) 0.4574(10) -0.0049(12)
O53? O 0.6620(13) 0.3777(9) -0.0493(8)
loop_
_geom_bond_atom_site_label_1
_geom_bond_atom_site_label_2
_geom_bond_site_symmetry_1
_geom_bond_site_symmetry_2
Gd1 O4 1_555 1_555
Cu1 N1 1_555 1_555
Cu2 N3 1_555 1_555
Cu3 Cu4 1_555 1_555
Cu4 O2 1_555 1_555
C1 H1 1_555 1_555
H2 C1 1_555 1_555
C2 C1 1_555 1_555
H3 C2 1_555 1_555
H4 C2 1_555 1_555
C3 H5 1_555 1_555
H6 C3 1_555 1_555
C4 C3 1_555 1_555
C5 H7 1_555 1_555
H8 C5 1_555 1_555
C6 C5 1_555 1_555
C7 H9 1_555 1_555
H10 C7 1_555 1_555
C8 C7 1_555 1_555
C9 H11 1_555 1_555
H12 C9 1_555 1_555
C10 C9 1_555 1_555
C11 H13 1_555 1_555
H14 C11 1_555 1_555
C12 C11 1_555 1_555
H15 C12 1_555 1_555
H16 C12 1_555 1_555
C13 H17 1_555 1_555
H18 C13 1_555 1_555
C14 C13 1_555 1_555
C15 H19 1_555 1_555
H20 C15 1_555 1_555
C16 C15 1_555 1_555
C17 H21 1_555 1_555
H22 C17 1_555 1_555
C18 C17 1_555 1_555
C19 H23 1_555 1_555
H24 C19 1_555 1_555
C20 C19 1_555 1_555
N1 C1 1_555 1_555
N2 Cu1 1_555 1_555
N3 C11 1_555 1_555
N4 Cu2 1_555 1_555
O1 Cu1 1_555 1_555
O2 C4 1_555 1_555
O3 Cu1 1_555 1_555
O4 C6 1_555 1_555
O5 Cu1 1_555 1_555
O6 C8 1_555 1_555
O7 C10 1_555 1_555
O8 C10 1_555 1_555
O9 Cu1 1_555 1_555
H25 O9 1_555 1_555
H26 O9 1_555 1_555
O10 Cu2 1_555 1_555
H27 O10 1_555 1_555
H28 O10 1_555 1_555
O11 Cu2 1_555 1_555
O12 C14 1_555 1_555
O13 Cu2 1_555 1_555
O14 Gd1 1_555 1_555
O15 Cu2 1_555 1_555
O16 C18 1_555 1_555
O17 C20 1_555 1_555
O18 C20 1_555 1_555
O19 Cu3 1_555 1_555
H29 O19 1_555 1_555
H30 O19 1_555 1_555
O20 Cu4 1_555 1_555
H31 O20 1_555 1_555
H32 O20 1_555 1_555
O21 Gd1 1_555 1_555
H33 O21 1_555 1_555
H34 O21 1_555 1_555
O22 Gd1 1_555 1_555
H35 O22 1_555 1_555
H36 O22 1_555 1_555
O23 Gd1 1_555 1_555
H37 O23 1_555 1_555
H38 O23 1_555 1_555
O24 Gd1 1_555 1_555
H39 O24 1_555 1_555
H40 O24 1_555 1_555
O25 H41 1_555 1_555
H42 O25 1_555 1_555
O26 H43 1_555 1_555
H44 O26 1_555 1_555
O27 H45 1_555 1_555
H46 O27 1_555 1_555
O28 H47 1_555 1_555
H48 O28 1_555 1_555
O29 H49 1_555 1_555
H50 O29 1_555 1_555
Cl1 O30 1_555 1_555
O31 Cl1 1_555 1_555
O32 Cl1 1_555 1_555
O33 Cl1 1_555 1_555
Cl2 O34 1_555 1_555
O35 Cl2 1_555 1_555
O36 Cl2 1_555 1_555
O37 Cl2 1_555 1_555
Cl3 O38 1_555 1_555
O39 Cl3 1_555 1_555
O40 Cl3 1_555 1_555
O41 Cl3 1_555 1_555
Gd1A O6 1_555 1_555
Gd1A_2 O16 1_555 1_555
Cu3A O7 1_555 1_555
Cu3_2 O12 1_555 1_555
Cu3A_2 O18 1_555 1_555
Cu4A O8 1_555 1_555
Cu4_2 O11 1_555 1_555
Cu4A_2 O17 1_555 1_555
O6A Gd1 1_555 1_555
O7A Cu3 1_555 1_555
O8A Cu4 1_555 1_555
O11_2 Cu4 1_555 1_555
O12_2 Cu3 1_555 1_555
O16A Gd1 1_555 1_555
O17A Cu4 1_555 1_555
O18A Cu3 1_555 1_555
Cu3 O1 1_555 1_555
C2 N2 1_555 1_555
C3 N1 1_555 1_555
C4 O1 1_555 1_555
C5 N1 1_555 1_555
C6 O3 1_555 1_555
C7 N2 1_555 1_555
C8 O5 1_555 1_555
C9 N2 1_555 1_555
C12 N4 1_555 1_555
C13 N3 1_555 1_555
C14 O11 1_555 1_555
C15 N3 1_555 1_555
C16 O13 1_555 1_555
C16 O14 1_555 1_555
C17 N4 1_555 1_555
C18 O15 1_555 1_555
C19 N4 1_555 1_555
Cu3A Cu4A 1_555 1_555
Cu3_2 Cu4_2 1_555 1_555
Cu3A_2 Cu4A_2 1_555 1_555

#END
