
#######################################################################
#
#                 Cambridge Crystallographic Data Centre
#                                CCDC 
#
#######################################################################
#
# If this CIF has been generated from an entry in the Cambridge 
# Structural Database, then it will include bibliographic, chemical, 
# crystal, experimental, refinement or atomic coordinate data resulting 
# from the CCDC's data processing and validation procedures.
#
#######################################################################

data_QAWGAX
_symmetry_cell_setting           monoclinic
_symmetry_space_group_name_H-M   'C 2/c'
_symmetry_Int_Tables_number      15
_space_group_name_Hall           '-C 2yn'
loop_
_symmetry_equiv_pos_site_id
_symmetry_equiv_pos_as_xyz
1 x,y,z
2 1/2+x,1/2+y,z
3 -x,y,1/2-z
4 1/2-x,1/2+y,1/2-z
5 -x,-y,-z
6 1/2-x,1/2-y,-z
7 x,-y,1/2+z
8 1/2+x,1/2-y,1/2+z
_cell_length_a                   16.830(3)
_cell_length_b                   20.701(4)
_cell_length_c                   18.170(4)
_cell_angle_alpha                90
_cell_angle_beta                 113.26(3)
_cell_angle_gamma                90
_cell_volume                     5815.87
loop_
_atom_site_label
_atom_site_type_symbol
_atom_site_fract_x
_atom_site_fract_y
_atom_site_fract_z
Cu1 Cu 0.5000 0.04432(3) 0.2500
Cu2 Cu 0.51005(2) 0.28457(2) 0.57659(2)
N1 N 0.43838(17) 0.09124(13) 0.14147(15)
C1 C 0.3833(2) 0.13950(15) 0.13654(18)
C2 C 0.3383(2) 0.17258(16) 0.06598(19)
H1 H 0.2994 0.2063 0.0644
C3 C 0.3510(2) 0.15555(18) -0.0016(2)
H2 H 0.3210 0.1776 -0.0506
C4 C 0.4079(3) 0.10590(19) 0.0021(2)
H3 H 0.4177 0.0937 -0.0440
C5 C 0.4497(2) 0.07476(18) 0.0739(2)
H4 H 0.4880 0.0403 0.0763
N2 N 0.37127(16) 0.15228(12) 0.20913(14)
N3 N 0.38492(17) 0.04624(13) 0.26102(15)
C6 C 0.33802(19) 0.10077(15) 0.24165(17)
C7 C 0.25898(19) 0.10665(16) 0.24814(18)
H5 H 0.2270 0.1457 0.2333
C8 C 0.2273(2) 0.05527(16) 0.27633(19)
H6 H 0.1739 0.0587 0.2824
C9 C 0.2746(2) -0.00173(17) 0.2957(2)
H7 H 0.2538 -0.0382 0.3145
C10 C 0.3526(2) -0.00425(16) 0.2872(2)
H8 H 0.3848 -0.0433 0.3003
C11 C 0.37680(18) 0.21505(15) 0.23933(17)
N4 N 0.37118(15) 0.22003(12) 0.31091(14)
C12 C 0.37884(18) 0.28101(15) 0.33661(16)
N5 N 0.39661(15) 0.33280(12) 0.30275(14)
C13 C 0.40004(18) 0.32092(15) 0.23130(17)
N6 N 0.38898(16) 0.26190(12) 0.19549(14)
N7 N 0.41519(16) 0.37066(12) 0.19078(15)
H9 H 0.4039 0.3661 0.1395
C14 C 0.4498(2) 0.43182(15) 0.23001(19)
H10 H 0.4266 0.4405 0.2713
H11 H 0.4303 0.4670 0.1900
N8 N 0.40723(16) 0.22801(13) 0.52590(15)
C15 C 0.3501(2) 0.23883(16) 0.45027(18)
C16 C 0.2754(2) 0.20318(17) 0.41406(19)
H12 H 0.2347 0.2139 0.3620
C17 C 0.2614(2) 0.15111(18) 0.4559(2)
H13 H 0.2116 0.1246 0.4321
C18 C 0.3208(2) 0.13854(18) 0.5324(2)
H14 H 0.3130 0.1025 0.5611
C19 C 0.3916(2) 0.17850(18) 0.5671(2)
H15 H 0.4301 0.1711 0.6210
N9 N 0.37027(16) 0.29143(12) 0.40924(14)
N10 N 0.43710(16) 0.36028(13) 0.51937(15)
C20 C 0.38024(19) 0.35460(15) 0.44281(17)
C21 C 0.3328(2) 0.40635(17) 0.39923(19)
H16 H 0.2927 0.4008 0.3454
C22 C 0.3449(2) 0.46617(17) 0.4354(2)
H17 H 0.3141 0.5028 0.4066
C23 C 0.4033(2) 0.47213(17) 0.5152(2)
H18 H 0.4123 0.5127 0.5416
C24 C 0.4471(2) 0.41856(17) 0.5546(2)
H19 H 0.4861 0.4227 0.6090
N11 N 0.5000 -0.08327(16) 0.2500
O1 O 0.53758(19) -0.05415(14) 0.31290(19)
O2 O 0.5000 -0.14407(19) 0.2500
N12 N 0.5000 0.3386(2) 0.7500
O3 O 0.46850(18) 0.30834(13) 0.68447(14)
O4 O 0.5000 0.3991(2) 0.7500
N13 N 0.64012(18) 0.20795(16) 0.69207(17)
O5 O 0.57573(14) 0.20654(11) 0.62271(13)
O6 O 0.65326(18) 0.25689(14) 0.73262(15)
O7 O 0.68401(18) 0.15797(14) 0.71334(19)
N14 N 0.61884(17) 0.34771(14) 0.52486(18)
O8 O 0.61466(15) 0.33755(12) 0.59337(14)
O9 O 0.57203(16) 0.31573(13) 0.46655(15)
O10 O 0.66925(17) 0.38883(13) 0.52060(18)
Cu2B Cu 0.48995(2) 0.28457(2) -0.07659(2)
Cu2B_2 Cu 0.48995(2) 0.28457(2) 0.92341(2)
N1B N 0.56162(17) 0.09124(13) 0.35853(15)
C1B C 0.6167(2) 0.13950(15) 0.36346(18)
C2B C 0.6617(2) 0.17258(16) 0.43402(19)
H1B H 0.7006 0.2063 0.4356
C3B C 0.6490(2) 0.15555(18) 0.5016(2)
H2B H 0.6790 0.1776 0.5506
C4B C 0.5921(3) 0.10590(19) 0.4979(2)
H3B H 0.5823 0.0937 0.5440
C5B C 0.5503(2) 0.07476(18) 0.4261(2)
H4B H 0.5120 0.0403 0.4237
N2B N 0.62873(16) 0.15228(12) 0.29087(14)
N3B N 0.61508(17) 0.04624(13) 0.23898(15)
C6B C 0.66198(19) 0.10077(15) 0.25835(17)
C7B C 0.74102(19) 0.10665(16) 0.25186(18)
H5B H 0.7730 0.1457 0.2667
C8B C 0.7727(2) 0.05527(16) 0.22367(19)
H6B H 0.8261 0.0587 0.2176
C9B C 0.7254(2) -0.00173(17) 0.2043(2)
H7B H 0.7462 -0.0382 0.1855
C10B C 0.6474(2) -0.00425(16) 0.2128(2)
H8B H 0.6152 -0.0433 0.1997
C11B C 0.62320(18) 0.21505(15) 0.26067(17)
N4B N 0.62882(15) 0.22003(12) 0.18909(14)
C12B C 0.62116(18) 0.28101(15) 0.16339(16)
N5B N 0.60339(15) 0.33280(12) 0.19725(14)
C13B C 0.59996(18) 0.32092(15) 0.26870(17)
N6B N 0.61102(16) 0.26190(12) 0.30451(14)
N7B N 0.58481(16) 0.37066(12) 0.30922(15)
H9B H 0.5961 0.3661 0.3605
C14B C 0.5502(2) 0.43182(15) 0.26999(19)
H10B H 0.5734 0.4405 0.2287
H11B H 0.5697 0.4670 0.3100
N8B N 0.59277(16) 0.22801(13) -0.02590(15)
C15B C 0.6499(2) 0.23883(16) 0.04973(18)
C16B C 0.7246(2) 0.20318(17) 0.08594(19)
H12B H 0.7653 0.2139 0.1380
C17B C 0.7386(2) 0.15111(18) 0.0441(2)
H13B H 0.7884 0.1246 0.0679
C18B C 0.6792(2) 0.13854(18) -0.0324(2)
H14B H 0.6870 0.1025 -0.0611
C19B C 0.6084(2) 0.17850(18) -0.0671(2)
H15B H 0.5699 0.1711 -0.1210
N9B N 0.62973(16) 0.29143(12) 0.09076(14)
N10B N 0.56290(16) 0.36028(13) -0.01937(15)
C20B C 0.61976(19) 0.35460(15) 0.05719(17)
C21B C 0.6672(2) 0.40635(17) 0.10077(19)
H16B H 0.7073 0.4008 0.1546
C22B C 0.6551(2) 0.46617(17) 0.0646(2)
H17B H 0.6859 0.5028 0.0934
C23B C 0.5967(2) 0.47213(17) -0.0152(2)
H18B H 0.5877 0.5127 -0.0416
C24B C 0.5529(2) 0.41856(17) -0.0546(2)
H19B H 0.5139 0.4227 -0.1090
O1B O 0.46242(19) -0.05415(14) 0.18710(19)
O3B O 0.53150(18) 0.30834(13) 0.81553(14)
O3B_2 O 0.53150(18) 0.30834(13) -0.18447(14)
N13B N 0.35988(18) 0.20795(16) -0.19207(17)
O5B O 0.42427(14) 0.20654(11) -0.12271(13)
O6B O 0.34674(18) 0.25689(14) -0.23262(15)
O7B O 0.31599(18) 0.15797(14) -0.21334(19)
N14B N 0.38116(17) 0.34771(14) -0.02486(18)
O8B O 0.38534(15) 0.33755(12) -0.09337(14)
O9B O 0.42797(16) 0.31573(13) 0.03345(15)
O10B O 0.33075(17) 0.38883(13) -0.02060(18)
loop_
_geom_bond_atom_site_label_1
_geom_bond_atom_site_label_2
_geom_bond_site_symmetry_1
_geom_bond_site_symmetry_2
Cu1 N1 1_555 1_555
Cu2 N8 1_555 1_555
N1 C1 1_555 1_555
C1 C2 1_555 1_555
C2 H1 1_555 1_555
C3 C2 1_555 1_555
H2 C3 1_555 1_555
C4 C3 1_555 1_555
H3 C4 1_555 1_555
C5 N1 1_555 1_555
H4 C5 1_555 1_555
N2 C1 1_555 1_555
N3 Cu1 1_555 1_555
C6 N2 1_555 1_555
C7 C6 1_555 1_555
H5 C7 1_555 1_555
C8 C7 1_555 1_555
H6 C8 1_555 1_555
C9 C8 1_555 1_555
H7 C9 1_555 1_555
C10 N3 1_555 1_555
H8 C10 1_555 1_555
C11 N2 1_555 1_555
N4 C11 1_555 1_555
C12 N4 1_555 1_555
N5 C12 1_555 1_555
C13 N5 1_555 1_555
N6 C11 1_555 1_555
N7 C13 1_555 1_555
H9 N7 1_555 1_555
C14 N7 1_555 1_555
H10 C14 1_555 1_555
H11 C14 1_555 1_555
N8 C15 1_555 1_555
C15 C16 1_555 1_555
C16 H12 1_555 1_555
C17 C16 1_555 1_555
H13 C17 1_555 1_555
C18 C17 1_555 1_555
H14 C18 1_555 1_555
C19 N8 1_555 1_555
H15 C19 1_555 1_555
N9 C12 1_555 1_555
N10 Cu2 1_555 1_555
C20 N9 1_555 1_555
C21 C20 1_555 1_555
H16 C21 1_555 1_555
C22 C21 1_555 1_555
H17 C22 1_555 1_555
C23 C22 1_555 1_555
H18 C23 1_555 1_555
C24 N10 1_555 1_555
H19 C24 1_555 1_555
N11 O1 1_555 1_555
O1 Cu1 1_555 1_555
O2 N11 1_555 1_555
N12 O3 1_555 1_555
O3 Cu2 1_555 1_555
O4 N12 1_555 1_555
N13 O5 1_555 1_555
O5 Cu2 1_555 1_555
O6 N13 1_555 1_555
O7 N13 1_555 1_555
N14 O8 1_555 1_555
O8 Cu2 1_555 1_555
O9 N14 1_555 1_555
O10 N14 1_555 1_555
Cu2B N8B 1_555 1_555
Cu2B_2 O3B 1_555 1_555
N1B Cu1 1_555 1_555
C1B N1B 1_555 1_555
C2B C1B 1_555 1_555
H1B C2B 1_555 1_555
C3B C2B 1_555 1_555
H2B C3B 1_555 1_555
C4B C3B 1_555 1_555
H3B C4B 1_555 1_555
C5B N1B 1_555 1_555
H4B C5B 1_555 1_555
N2B C1B 1_555 1_555
N3B Cu1 1_555 1_555
C6B N2B 1_555 1_555
C7B C6B 1_555 1_555
H5B C7B 1_555 1_555
C8B C7B 1_555 1_555
H6B C8B 1_555 1_555
C9B C8B 1_555 1_555
H7B C9B 1_555 1_555
C10B N3B 1_555 1_555
H8B C10B 1_555 1_555
C11B N2B 1_555 1_555
N4B C11B 1_555 1_555
C12B N4B 1_555 1_555
N5B C12B 1_555 1_555
C13B N5B 1_555 1_555
N6B C11B 1_555 1_555
N7B C13B 1_555 1_555
H9B N7B 1_555 1_555
C14B C14 1_555 1_555
H10B C14B 1_555 1_555
H11B C14B 1_555 1_555
N8B C15B 1_555 1_555
C15B C16B 1_555 1_555
C16B H12B 1_555 1_555
C17B C16B 1_555 1_555
H13B C17B 1_555 1_555
C18B C17B 1_555 1_555
H14B C18B 1_555 1_555
C19B N8B 1_555 1_555
H15B C19B 1_555 1_555
N9B C12B 1_555 1_555
N10B Cu2B 1_555 1_555
C20B N9B 1_555 1_555
C21B C20B 1_555 1_555
H16B C21B 1_555 1_555
C22B C21B 1_555 1_555
H17B C22B 1_555 1_555
C23B C22B 1_555 1_555
H18B C23B 1_555 1_555
C24B N10B 1_555 1_555
H19B C24B 1_555 1_555
O1B Cu1 1_555 1_555
O3B N12 1_555 1_555
O3B_2 Cu2B 1_555 1_555
N13B O5B 1_555 1_555
O5B Cu2B 1_555 1_555
O6B N13B 1_555 1_555
O7B N13B 1_555 1_555
N14B O8B 1_555 1_555
O8B Cu2B 1_555 1_555
O9B N14B 1_555 1_555
O10B N14B 1_555 1_555
C4 C5 1_555 1_555
N3 C6 1_555 1_555
C9 C10 1_555 1_555
C13 N6 1_555 1_555
C15 N9 1_555 1_555
C18 C19 1_555 1_555
N10 C20 1_555 1_555
C23 C24 1_555 1_555
N11 O1B 1_555 1_555
C4B C5B 1_555 1_555
N3B C6B 1_555 1_555
C9B C10B 1_555 1_555
C13B N6B 1_555 1_555
N7B C14B 1_555 1_555
C15B N9B 1_555 1_555
C18B C19B 1_555 1_555
N10B C20B 1_555 1_555
C23B C24B 1_555 1_555

#END
