
#######################################################################
#
#                 Cambridge Crystallographic Data Centre
#                                CCDC 
#
#######################################################################
#
# If this CIF has been generated from an entry in the Cambridge 
# Structural Database, then it will include bibliographic, chemical, 
# crystal, experimental, refinement or atomic coordinate data resulting 
# from the CCDC's data processing and validation procedures.
#
#######################################################################

data_QAWHIH01
_symmetry_cell_setting           monoclinic
_symmetry_space_group_name_H-M   'P 21/c'
_symmetry_Int_Tables_number      14
_space_group_name_Hall           '-P 2ybc'
loop_
_symmetry_equiv_pos_site_id
_symmetry_equiv_pos_as_xyz
1 x,y,z
2 -x,1/2+y,1/2-z
3 -x,-y,-z
4 x,1/2-y,1/2+z
_cell_length_a                   10.7687(14)
_cell_length_b                   12.8355(16)
_cell_length_c                   17.0513(17)
_cell_angle_alpha                90
_cell_angle_beta                 126.803(6)
_cell_angle_gamma                90
_cell_volume                     1887.14
loop_
_atom_site_label
_atom_site_type_symbol
_atom_site_fract_x
_atom_site_fract_y
_atom_site_fract_z
O8 O 0.0458(6) 0.9049(4) 0.6615(5)
H12 H -0.010(7) 0.850(3) 0.640(6)
H13 H -0.005(7) 0.933(4) 0.680(5)
Cu1 Cu 0.35081(5) 0.64511(4) 0.84300(3)
O1 O 0.4788(3) 0.5966(2) 0.97768(19)
H1 H 0.503(5) 0.644(3) 1.008(3)
Cu2 Cu 0.64198(5) 0.50257(3) 1.00405(3)
O2 O 1.2007(3) 0.59673(19) 0.96868(19)
O3 O 0.5405(3) 0.7087(2) 0.8618(2)
O4 O 0.7312(3) 0.5957(2) 0.9603(2)
O5 O 0.6321(3) 0.9921(2) 0.7030(2)
O6 O 0.7962(3) 0.9531(2) 0.6690(2)
C1 C 0.7978(4) 0.8461(3) 0.7817(3)
C2 C 0.7357(4) 0.9362(3) 0.7126(3)
C3 C 0.7160(4) 0.8055(3) 0.8134(3)
H2 H 0.6232 0.8366 0.7934
C4 C 0.9348(4) 0.7993(3) 0.8114(3)
H3 H 0.9891 0.8249 0.7889
C5 C 0.9103(4) 0.6743(3) 0.9062(3)
H4 H 0.9488 0.6175 0.9485
C6 C 0.7701(4) 0.7192(3) 0.8747(3)
C7 C 0.9928(4) 0.7144(3) 0.8745(3)
O7 O 1.1921(3) 0.6970(2) 0.8579(2)
N1 N 0.2101(4) 0.6981(3) 0.7061(3)
H5 H 0.195(5) 0.761(4) 0.704(4)
C8 C 0.0648(7) 0.6404(5) 0.6460(4)
H6 H -0.0077 0.6787 0.5870
H7 H 0.0228 0.6308 0.6817
H8 H 0.0837 0.5736 0.6296
C9 C 0.6720(4) 0.6708(3) 0.9013(3)
C10 C 0.2753(8) 0.7165(8) 0.6544(5)
H9 H 0.3204 0.6533 0.6520
H10 H 0.3539 0.7693 0.6878
H11 H 0.1952 0.7394 0.5890
C11 C 1.1407(4) 0.6655(3) 0.9030(3)
Cu1A Cu 0.64919(5) 1.14511(4) 0.65700(3)
Cu1_2 Cu 1.35081(5) 0.64511(4) 0.84300(3)
O1B O 0.5212(3) 0.4034(2) 1.02232(19)
H1B H 0.497(5) 0.356(3) 0.992(3)
Cu2B Cu 0.35802(5) 0.49743(3) 0.99595(3)
Cu2B_2 Cu 1.35802(5) 0.49743(3) 0.99595(3)
Cu2C Cu 0.64198(5) 0.99743(3) 0.50405(3)
O2B O 0.7993(3) 0.40327(19) 1.03132(19)
O5A O 0.3679(3) 0.4921(2) 0.7970(2)
O6C O 0.7962(3) 0.5469(2) 1.1690(2)
O7_2 O 0.1921(3) 0.6970(2) 0.8579(2)
loop_
_geom_bond_atom_site_label_1
_geom_bond_atom_site_label_2
_geom_bond_site_symmetry_1
_geom_bond_site_symmetry_2
Cu1 O1 1_555 1_555
O1 H1 1_555 1_555
Cu2 O1 1_555 1_555
O2 C11 1_555 1_555
O3 Cu1 1_555 1_555
O4 Cu2 1_555 1_555
O5 C2 1_555 1_555
O6 C2 1_555 1_555
C1 C2 1_555 1_555
C3 C1 1_555 1_555
H2 C3 1_555 1_555
C4 C1 1_555 1_555
H3 C4 1_555 1_555
C5 H4 1_555 1_555
C6 C3 1_555 1_555
C7 C4 1_555 1_555
O7 C11 1_555 1_555
N1 Cu1 1_555 1_555
H5 N1 1_555 1_555
C8 N1 1_555 1_555
H6 C8 1_555 1_555
H7 C8 1_555 1_555
H8 C8 1_555 1_555
C9 O3 1_555 1_555
C10 N1 1_555 1_555
H9 C10 1_555 1_555
H10 C10 1_555 1_555
H11 C10 1_555 1_555
C11 C7 1_555 1_555
O8 H12 1_555 1_555
H13 O8 1_555 1_555
Cu1A O5 1_555 1_555
Cu1_2 O7 1_555 1_555
O1B Cu2 1_555 1_555
H1B O1B 1_555 1_555
Cu2B O1 1_555 1_555
Cu2B_2 O2 1_555 1_555
Cu2C O6 1_555 1_555
O2B Cu2 1_555 1_555
O5A Cu1 1_555 1_555
O6C Cu2 1_555 1_555
O7_2 Cu1 1_555 1_555
O4 C9 1_555 1_555
C5 C6 1_555 1_555
C5 C7 1_555 1_555
C6 C9 1_555 1_555
O1B Cu2B 1_555 1_555

#END
