
#######################################################################
#
#                 Cambridge Crystallographic Data Centre
#                                CCDC 
#
#######################################################################
#
# If this CIF has been generated from an entry in the Cambridge 
# Structural Database, then it will include bibliographic, chemical, 
# crystal, experimental, refinement or atomic coordinate data resulting 
# from the CCDC's data processing and validation procedures.
#
#######################################################################

data_QAWHEC
_symmetry_cell_setting           monoclinic
_symmetry_space_group_name_H-M   'P 21/c'
_symmetry_Int_Tables_number      14
_space_group_name_Hall           '-P 2ybc'
loop_
_symmetry_equiv_pos_site_id
_symmetry_equiv_pos_as_xyz
1 x,y,z
2 -x,1/2+y,1/2-z
3 -x,-y,-z
4 x,1/2-y,1/2+z
_cell_length_a                   7.5962(15)
_cell_length_b                   13.056(3)
_cell_length_c                   9.1695(18)
_cell_angle_alpha                90
_cell_angle_beta                 94.20(3)
_cell_angle_gamma                90
_cell_volume                     906.952
loop_
_atom_site_label
_atom_site_type_symbol
_atom_site_fract_x
_atom_site_fract_y
_atom_site_fract_z
Cu1 Cu 0.91995(4) 0.905034(18) 0.20761(3)
N1 N 0.9203(3) 0.75249(14) -0.03336(19)
N2 N 1.2791(3) 0.91803(15) -0.0010(2)
N3 N 1.1443(3) 0.98471(13) 0.20829(18)
C1 C 1.2752(3) 0.98134(16) 0.1186(2)
N4 N 1.0041(3) 0.83443(13) 0.03239(19)
N5 N 1.3480(3) 1.09390(14) 0.2790(2)
N6 N 1.4032(3) 1.04761(14) 0.1571(2)
C2 C 1.1543(3) 0.84336(16) -0.0332(2)
N7 N 1.1957(3) 1.05732(15) 0.3095(2)
N8 N 0.6859(3) 0.83497(16) 0.1728(2)
N9 N 1.1702(3) 0.77325(15) -0.1357(2)
N10 N 1.0193(3) 0.71752(14) -0.1313(2)
N11 N 0.8192(4) 1.00260(18) 0.3529(2)
H1 H 0.703(4) 0.768(2) 0.175(3)
H2 H 1.370(4) 0.925(2) -0.056(3)
H3 H 0.638(5) 0.853(3) 0.091(4)
H4 H 0.610(5) 0.850(3) 0.243(4)
H6 H 0.711(5) 1.012(3) 0.337(3)
H7 H 0.873(5) 1.053(3) 0.358(4)
H8 H 0.823(5) 0.978(3) 0.445(4)
Cu1C Cu 0.91995(4) 0.594966(18) -0.29239(3)
N10C N 1.0193(3) 0.78248(14) 0.3687(2)
O1 O 0.4708(3) 0.8702(2) 0.4217(2)
H5 H 0.512(5) 0.868(3) 0.508(4)
H9 H 0.410(6) 0.829(3) 0.415(5)
loop_
_geom_bond_atom_site_label_1
_geom_bond_atom_site_label_2
_geom_bond_site_symmetry_1
_geom_bond_site_symmetry_2
Cu1 N3 1_555 1_555
N1 N4 1_555 1_555
N2 C1 1_555 1_555
N3 C1 1_555 1_555
C1 N6 1_555 1_555
N4 Cu1 1_555 1_555
N5 N6 1_555 1_555
C2 N2 1_555 1_555
N7 N3 1_555 1_555
N8 Cu1 1_555 1_555
N9 C2 1_555 1_555
N10 N1 1_555 1_555
N11 Cu1 1_555 1_555
O1 H5 1_555 1_555
H1 N8 1_555 1_555
H2 N2 1_555 1_555
H3 N8 1_555 1_555
H4 N8 1_555 1_555
H6 N11 1_555 1_555
H7 N11 1_555 1_555
H8 N11 1_555 1_555
H9 O1 1_555 1_555
Cu1C N10 1_555 1_555
N10C Cu1 1_555 1_555
N4 C2 1_555 1_555
N5 N7 1_555 1_555
N9 N10 1_555 1_555

#END
