
#######################################################################
#
#                 Cambridge Crystallographic Data Centre
#                                CCDC 
#
#######################################################################
#
# If this CIF has been generated from an entry in the Cambridge 
# Structural Database, then it will include bibliographic, chemical, 
# crystal, experimental, refinement or atomic coordinate data resulting 
# from the CCDC's data processing and validation procedures.
#
#######################################################################

data_QAWHED
_symmetry_cell_setting           monoclinic
_symmetry_space_group_name_H-M   'P 21/c'
_symmetry_Int_Tables_number      14
_space_group_name_Hall           '-P 2ybc'
loop_
_symmetry_equiv_pos_site_id
_symmetry_equiv_pos_as_xyz
1 x,y,z
2 -x,1/2+y,1/2-z
3 -x,-y,-z
4 x,1/2-y,1/2+z
_cell_length_a                   12.2553(10)
_cell_length_b                   11.1222(9)
_cell_length_c                   12.7478(11)
_cell_angle_alpha                90
_cell_angle_beta                 112.874(1)
_cell_angle_gamma                90
_cell_volume                     1600.96
loop_
_atom_site_label
_atom_site_type_symbol
_atom_site_fract_x
_atom_site_fract_y
_atom_site_fract_z
C1 C 0.6769(2) 0.9789(3) 0.3655(2)
C2 C 0.6649(2) 0.9407(2) 0.4746(2)
C3 C 0.6517(2) 1.0210(2) 0.5484(2)
H1 H 0.6514 1.1029 0.5335
C4 C 0.6381(2) 0.9806(2) 0.6493(2)
C5 C 0.6604(2) 0.7879(2) 0.5916(2)
H2 H 0.6641 0.7058 0.6065
C6 C 0.9367(3) 0.7880(3) 0.4168(3)
H3 H 0.9101 0.8417 0.3561
C7 C 1.0552(4) 0.7927(5) 0.4902(5)
H4 H 1.1062 0.8485 0.4790
C8 C 1.0949(4) 0.7146(5) 0.5784(4)
H5 H 1.1743 0.7155 0.6276
C9 C 1.0169(3) 0.6318(4) 0.5963(3)
C10 C 1.0502(5) 0.5465(6) 0.6878(4)
H6 H 1.1284 0.5437 0.7398
C11 C 0.9717(5) 0.4713(6) 0.6996(4)
H7 H 0.9959 0.4190 0.7613
C12 C 0.8513(4) 0.4682(4) 0.6207(3)
C13 C 0.6555(4) 0.3885(3) 0.5449(4)
H8 H 0.5995 0.3330 0.5466
C14 C 0.6273(3) 0.4733(3) 0.4593(3)
H9 H 0.5506 0.4741 0.4040
C15 C 0.8997(3) 0.6345(3) 0.5172(3)
C16 C 0.8154(3) 0.5508(3) 0.5299(2)
C17 C 0.7655(5) 0.3883(4) 0.6256(4)
H10 H 0.7850 0.3340 0.6856
Mn1 Mn 0.65703(4) 0.71224(4) 0.33535(3)
N1 N 0.66709(19) 0.81973(18) 0.49419(18)
N2 N 0.64901(18) 0.85862(19) 0.67045(17)
N3 N 0.8601(2) 0.7118(2) 0.4285(2)
N4 N 0.7036(2) 0.5534(2) 0.45170(19)
O1 O 0.67158(18) 0.89723(16) 0.29504(15)
O2 O 0.69189(18) 1.08800(17) 0.35438(16)
O3 O 0.61968(19) 1.04894(18) 0.71823(16)
O4 O 0.46989(18) 0.72788(18) 0.29057(19)
H11 H 0.439(3) 0.8038(17) 0.287(3)
H12 H 0.415(2) 0.676(2) 0.241(3)
Mn1C Mn 0.65703(4) 0.78776(4) 0.83535(3)
N2C N 0.64901(18) 0.64138(19) 0.17045(17)
loop_
_geom_bond_atom_site_label_1
_geom_bond_atom_site_label_2
_geom_bond_site_symmetry_1
_geom_bond_site_symmetry_2
C1 C2 1_555 1_555
C2 C3 1_555 1_555
C3 H1 1_555 1_555
C4 C3 1_555 1_555
C5 H2 1_555 1_555
C6 H3 1_555 1_555
C7 C6 1_555 1_555
H4 C7 1_555 1_555
C8 C7 1_555 1_555
H5 C8 1_555 1_555
C9 C8 1_555 1_555
C10 C9 1_555 1_555
H6 C10 1_555 1_555
C11 C10 1_555 1_555
H7 C11 1_555 1_555
C12 C11 1_555 1_555
C13 H8 1_555 1_555
C14 C13 1_555 1_555
H9 C14 1_555 1_555
C15 C9 1_555 1_555
C16 C12 1_555 1_555
C17 C12 1_555 1_555
H10 C17 1_555 1_555
Mn1 N1 1_555 1_555
N1 C2 1_555 1_555
N2 C4 1_555 1_555
N3 C6 1_555 1_555
N4 C14 1_555 1_555
O1 C1 1_555 1_555
O2 C1 1_555 1_555
O3 C4 1_555 1_555
O4 Mn1 1_555 1_555
H11 O4 1_555 1_555
H12 O4 1_555 1_555
Mn1C N2 1_555 1_555
N2C Mn1 1_555 1_555
C5 N1 1_555 1_555
C5 N2 1_555 1_555
C13 C17 1_555 1_555
C15 C16 1_555 1_555
C15 N3 1_555 1_555
C16 N4 1_555 1_555
Mn1 N3 1_555 1_555
Mn1 N4 1_555 1_555
Mn1 O1 1_555 1_555

#END
