
#######################################################################
#
#                 Cambridge Crystallographic Data Centre
#                                CCDC 
#
#######################################################################
#
# If this CIF has been generated from an entry in the Cambridge 
# Structural Database, then it will include bibliographic, chemical, 
# crystal, experimental, refinement or atomic coordinate data resulting 
# from the CCDC's data processing and validation procedures.
#
#######################################################################

data_QAWHIH
_symmetry_cell_setting           monoclinic
_symmetry_space_group_name_H-M   'P 21/c'
_symmetry_Int_Tables_number      14
_space_group_name_Hall           '-P 2ybc'
loop_
_symmetry_equiv_pos_site_id
_symmetry_equiv_pos_as_xyz
1 x,y,z
2 -x,1/2+y,1/2-z
3 -x,-y,-z
4 x,1/2-y,1/2+z
_cell_length_a                   10.7687(14)
_cell_length_b                   12.8355(16)
_cell_length_c                   17.0513(17)
_cell_angle_alpha                90
_cell_angle_beta                 126.803(6)
_cell_angle_gamma                90
_cell_volume                     1887.14
loop_
_atom_site_label
_atom_site_type_symbol
_atom_site_fract_x
_atom_site_fract_y
_atom_site_fract_z
Cu1 Cu 0.35083(6) 0.64510(4) 0.84303(4)
O1 O 0.4787(4) 0.5966(2) 0.9776(2)
H1 H 0.498(6) 0.645(4) 1.005(4)
Cu2 Cu 0.64201(6) 0.50255(4) 1.00413(4)
O2 O 1.2005(4) 0.5968(2) 0.9685(2)
O3 O 0.5399(4) 0.7087(3) 0.8616(3)
O4 O 0.7319(4) 0.5958(3) 0.9607(3)
O5 O 0.6320(4) 0.9918(3) 0.7029(3)
O6 O 0.7957(4) 0.9533(3) 0.6688(3)
C1 C 0.7978(5) 0.8456(4) 0.7818(3)
C2 C 0.7358(5) 0.9364(4) 0.7124(4)
C3 C 0.7156(5) 0.8055(3) 0.8135(4)
H2 H 0.6230 0.8367 0.7936
C4 C 0.9344(5) 0.7989(4) 0.8111(4)
H3 H 0.9882 0.8243 0.7882
C5 C 0.9101(5) 0.6741(3) 0.9061(3)
H4 H 0.9484 0.6172 0.9482
C6 C 0.7695(5) 0.7192(3) 0.8746(3)
C7 C 0.9929(5) 0.7143(3) 0.8744(3)
O7 O 1.1922(4) 0.6969(3) 0.8578(3)
N1 N 0.2098(5) 0.6984(4) 0.7060(3)
H5 H 0.187(7) 0.766(5) 0.707(4)
C8 C 0.0644(9) 0.6408(6) 0.6451(5)
H6 H -0.0094 0.6810 0.5878
H7 H 0.0244 0.6280 0.6816
H8 H 0.0826 0.5757 0.6259
C9 C 0.6721(5) 0.6708(3) 0.9010(3)
C10 C 0.2751(9) 0.7142(10) 0.6539(5)
H9 H 0.3255 0.6514 0.6560
H10 H 0.3494 0.7698 0.6840
H11 H 0.1940 0.7318 0.5870
C11 C 1.1407(5) 0.6655(4) 0.9028(3)
Cu1A Cu 0.64917(6) 1.14510(4) 0.65697(4)
Cu1_2 Cu 1.35083(6) 0.64510(4) 0.84303(4)
O1B O 0.5213(4) 0.4034(2) 1.0224(2)
H1B H 0.502(6) 0.355(4) 0.995(4)
Cu2B Cu 0.35799(6) 0.49745(4) 0.99587(4)
Cu2B_2 Cu 1.35799(6) 0.49745(4) 0.99587(4)
Cu2C Cu 0.64201(6) 0.99745(4) 0.50413(4)
O2B O 0.7995(4) 0.4032(2) 1.0315(2)
O5A O 0.3680(4) 0.4918(3) 0.7971(3)
O6C O 0.7957(4) 0.5467(3) 1.1688(3)
O7_2 O 0.1922(4) 0.6969(3) 0.8578(3)
O8 O 0.5451(9) 0.7820(4) 0.0704(5)
C12 C 0.5845(16) 0.9808(11) 0.1714(10)
N2 N 0.4678(17) 0.9448(9) 0.0847(11)
C13 C 0.321(3) 1.0046(18) 0.0229(18)
C14 C 0.454(2) 0.8464(18) 0.0404(15)
O9 O 0.0426(6) 0.9033(5) 0.6616(4)
C15? C 0.747(3) 1.007(2) 0.103(2)
C16? C 0.612(3) 0.8406(18) 0.0824(17)
N3? N 0.653(2) 0.9381(15) 0.1182(15)
loop_
_geom_bond_atom_site_label_1
_geom_bond_atom_site_label_2
_geom_bond_site_symmetry_1
_geom_bond_site_symmetry_2
Cu1 O1 1_555 1_555
O1 H1 1_555 1_555
Cu2 O1 1_555 1_555
O2 C11 1_555 1_555
O3 Cu1 1_555 1_555
O4 Cu2 1_555 1_555
O5 C2 1_555 1_555
O6 C2 1_555 1_555
C1 C2 1_555 1_555
C3 C1 1_555 1_555
H2 C3 1_555 1_555
C4 C1 1_555 1_555
H3 C4 1_555 1_555
C5 H4 1_555 1_555
C6 C3 1_555 1_555
C7 C4 1_555 1_555
O7 C11 1_555 1_555
N1 Cu1 1_555 1_555
H5 N1 1_555 1_555
C8 N1 1_555 1_555
H6 C8 1_555 1_555
H7 C8 1_555 1_555
H8 C8 1_555 1_555
C9 O3 1_555 1_555
C10 N1 1_555 1_555
H9 C10 1_555 1_555
H10 C10 1_555 1_555
H11 C10 1_555 1_555
C11 C7 1_555 1_555
O8 C14 1_555 1_555
C12 N2 1_555 1_555
N2 C13 1_555 1_555
C14 N2 1_555 1_555
Cu1A O5 1_555 1_555
Cu1_2 O7 1_555 1_555
O1B Cu2 1_555 1_555
H1B O1B 1_555 1_555
Cu2B O1 1_555 1_555
Cu2B_2 O2 1_555 1_555
Cu2C O6 1_555 1_555
O2B Cu2 1_555 1_555
O5A Cu1 1_555 1_555
O6C Cu2 1_555 1_555
O7_2 Cu1 1_555 1_555
O4 C9 1_555 1_555
C5 C6 1_555 1_555
C5 C7 1_555 1_555
C6 C9 1_555 1_555
O1B Cu2B 1_555 1_555

#END
