
#######################################################################
#
#                 Cambridge Crystallographic Data Centre
#                                CCDC 
#
#######################################################################
#
# If this CIF has been generated from an entry in the Cambridge 
# Structural Database, then it will include bibliographic, chemical, 
# crystal, experimental, refinement or atomic coordinate data resulting 
# from the CCDC's data processing and validation procedures.
#
#######################################################################

data_QAWHAZ
_symmetry_cell_setting           monoclinic
_symmetry_space_group_name_H-M   'P 21/c'
_symmetry_Int_Tables_number      14
_space_group_name_Hall           '-P 2ybc'
loop_
_symmetry_equiv_pos_site_id
_symmetry_equiv_pos_as_xyz
1 x,y,z
2 -x,1/2+y,1/2-z
3 -x,-y,-z
4 x,1/2-y,1/2+z
_cell_length_a                   12.3207(7)
_cell_length_b                   11.1565(6)
_cell_length_c                   12.2989(7)
_cell_angle_alpha                90
_cell_angle_beta                 113.712(1)
_cell_angle_gamma                90
_cell_volume                     1547.84
loop_
_atom_site_label
_atom_site_type_symbol
_atom_site_fract_x
_atom_site_fract_y
_atom_site_fract_z
C1 C 0.67441(15) 0.97739(15) 0.36324(14)
C2 C 0.66433(14) 0.94116(14) 0.47802(14)
C3 C 0.64869(16) 1.02198(15) 0.55210(15)
H1 H 0.6462 1.1034 0.5349
C4 C 0.63595(15) 0.98238(15) 0.65726(15)
C5 C 0.66452(16) 0.78958(15) 0.60209(15)
H2 H 0.6710 0.7080 0.6193
C6 C 0.9309(2) 0.7959(2) 0.4169(3)
H3 H 0.9021 0.8530 0.3569
C7 C 1.0514(3) 0.7947(3) 0.4894(4)
H4 H 1.1019 0.8497 0.4769
C8 C 1.0948(2) 0.7132(4) 0.5781(3)
H5 H 1.1755 0.7119 0.6263
C9 C 1.0181(2) 0.6306(3) 0.5971(2)
C10 C 1.0534(3) 0.5399(4) 0.6883(3)
H6 H 1.1327 0.5345 0.7404
C11 C 0.9756(4) 0.4636(4) 0.7000(3)
H7 H 1.0019 0.4076 0.7612
C12 C 0.8527(3) 0.4651(3) 0.6214(2)
C13 C 0.6543(3) 0.3923(2) 0.5446(3)
H8 H 0.5979 0.3376 0.5460
C14 C 0.6228(2) 0.48263(18) 0.4591(2)
H9 H 0.5447 0.4872 0.4038
C15 C 0.89773(18) 0.6367(2) 0.51925(17)
C16 C 0.81453(19) 0.55360(18) 0.53171(16)
C17 C 0.7665(4) 0.3850(3) 0.6247(3)
H10 H 0.7874 0.3261 0.6832
Co1 Co 0.66278(2) 0.718884(19) 0.346881(19)
N1 N 0.66982(13) 0.82108(12) 0.50031(12)
N2 N 0.65102(13) 0.86082(13) 0.68246(12)
N3 N 0.85528(15) 0.71812(15) 0.43052(16)
N4 N 0.70062(14) 0.56227(13) 0.45394(13)
O1 O 0.66994(13) 0.89364(11) 0.29260(11)
O2 O 0.68783(12) 1.08521(12) 0.34860(11)
O3 O 0.61350(15) 1.05119(12) 0.72513(12)
O4 O 0.48131(12) 0.72769(12) 0.29530(14)
H11 H 0.454(2) 0.8050(15) 0.288(3)
H12 H 0.424(2) 0.677(2) 0.246(2)
Co1C Co 0.66278(2) 0.781116(19) 0.846881(19)
N2C N 0.65102(13) 0.63918(13) 0.18246(12)
loop_
_geom_bond_atom_site_label_1
_geom_bond_atom_site_label_2
_geom_bond_site_symmetry_1
_geom_bond_site_symmetry_2
C1 C2 1_555 1_555
C2 C3 1_555 1_555
C3 H1 1_555 1_555
C4 C3 1_555 1_555
C5 H2 1_555 1_555
C6 H3 1_555 1_555
C7 C6 1_555 1_555
H4 C7 1_555 1_555
C8 C7 1_555 1_555
H5 C8 1_555 1_555
C9 C8 1_555 1_555
C10 C9 1_555 1_555
H6 C10 1_555 1_555
C11 C10 1_555 1_555
H7 C11 1_555 1_555
C12 C11 1_555 1_555
C13 H8 1_555 1_555
C14 C13 1_555 1_555
H9 C14 1_555 1_555
C15 C9 1_555 1_555
C16 C12 1_555 1_555
C17 C12 1_555 1_555
H10 C17 1_555 1_555
Co1 N1 1_555 1_555
N1 C2 1_555 1_555
N2 C4 1_555 1_555
N3 C6 1_555 1_555
N4 C14 1_555 1_555
O1 C1 1_555 1_555
O2 C1 1_555 1_555
O3 C4 1_555 1_555
O4 Co1 1_555 1_555
H11 O4 1_555 1_555
H12 O4 1_555 1_555
Co1C N2 1_555 1_555
N2C Co1 1_555 1_555
C5 N1 1_555 1_555
C5 N2 1_555 1_555
C13 C17 1_555 1_555
C15 C16 1_555 1_555
C15 N3 1_555 1_555
C16 N4 1_555 1_555
Co1 N3 1_555 1_555
Co1 N4 1_555 1_555
Co1 O1 1_555 1_555

#END
