
#######################################################################
#
#                 Cambridge Crystallographic Data Centre
#                                CCDC 
#
#######################################################################
#
# If this CIF has been generated from an entry in the Cambridge 
# Structural Database, then it will include bibliographic, chemical, 
# crystal, experimental, refinement or atomic coordinate data resulting 
# from the CCDC's data processing and validation procedures.
#
#######################################################################

data_QAWJOP
_symmetry_cell_setting           triclinic
_symmetry_space_group_name_H-M   'P -1'
_symmetry_Int_Tables_number      2
_space_group_name_Hall           '-P 1'
loop_
_symmetry_equiv_pos_site_id
_symmetry_equiv_pos_as_xyz
1 x,y,z
2 -x,-y,-z
_cell_length_a                   9.1690(18)
_cell_length_b                   9.3230(19)
_cell_length_c                   10.268(2)
_cell_angle_alpha                79.51(3)
_cell_angle_beta                 88.38(2)
_cell_angle_gamma                72.61(3)
_cell_volume                     823.297
loop_
_atom_site_label
_atom_site_type_symbol
_atom_site_fract_x
_atom_site_fract_y
_atom_site_fract_z
C1 C 0.7056(6) 0.8920(6) 0.7521(5)
C2 C 0.8636(6) 0.8985(6) 0.7800(5)
C3 C 0.9456(6) 0.9482(6) 0.6750(5)
H1 H 0.9034 0.9758 0.5873
C4 C 1.0888(7) 0.9567(7) 0.6999(6)
H2 H 1.1422 0.9946 0.6276
C5 C 1.0769(6) 0.8659(6) 0.9192(6)
H3 H 1.1236 0.8349 1.0052
C6 C 0.9319(6) 0.8577(6) 0.9048(5)
H4 H 0.8791 0.8244 0.9795
C7 C 0.6629(6) 0.8056(6) 0.2864(5)
C8 C 0.6953(6) 0.6535(6) 0.3731(5)
C9 C 0.6439(6) 0.5401(6) 0.3381(5)
H5 H 0.5920 0.5582 0.2552
C10 C 0.6668(6) 0.4002(6) 0.4222(5)
C11 C 0.6041(6) 0.2787(6) 0.3870(5)
C12 C 0.7519(6) 0.3684(6) 0.5398(5)
H6 H 0.7698 0.2729 0.5980
C13 C 0.8094(6) 0.4807(6) 0.5691(5)
C14 C 0.7800(6) 0.6237(6) 0.4914(5)
H7 H 0.8162 0.7000 0.5174
Co1 Co 0.5000 1.0000 0.5000
Co2 Co 1.39450(8) 0.89996(8) 0.82702(7)
N1 N 1.1570(5) 0.9153(5) 0.8188(4)
N2 N 0.9092(5) 0.4447(5) 0.6891(5)
O1 O 0.6733(4) 0.8925(4) 0.6347(4)
O2 O 0.6165(4) 0.8917(4) 0.8482(4)
O3 O 0.6435(4) 0.9246(4) 0.3407(4)
O4 O 0.6552(4) 0.8199(4) 0.1631(4)
O5 O 0.5911(4) 0.1782(4) 0.4828(4)
O6 O 0.5690(4) 0.2876(4) 0.2682(4)
O7 O 0.9570(5) 0.3111(4) 0.7448(4)
O8 O 0.9429(5) 0.5503(5) 0.7233(4)
O9 O 1.4103(4) 0.7976(4) 1.0189(4)
H8 H 1.4829 0.8066 1.0641
H9 H 1.3956 0.7096 1.0347
C1A C 0.2944(6) 1.1080(6) 0.2479(5)
C2A C 0.1364(6) 1.1015(6) 0.2200(5)
C3A C 0.0544(6) 1.0518(6) 0.3250(5)
H1A H 0.0966 1.0242 0.4127
C4A C -0.0888(7) 1.0433(7) 0.3001(6)
H2A H -0.1422 1.0054 0.3724
C5A C -0.0769(6) 1.1341(6) 0.0808(6)
H3A H -0.1236 1.1651 -0.0052
C6A C 0.0681(6) 1.1423(6) 0.0952(5)
H4A H 0.1209 1.1756 0.0205
C7A C 0.3371(6) 1.1944(6) 0.7136(5)
C8A C 0.3047(6) 1.3465(6) 0.6269(5)
C9A C 0.3561(6) 1.4599(6) 0.6619(5)
H5A H 0.4080 1.4418 0.7448
C10A C 0.3332(6) 1.5998(6) 0.5778(5)
C11A C 0.3959(6) 1.7213(6) 0.6130(5)
C12A C 0.2481(6) 1.6316(6) 0.4602(5)
H6A H 0.2302 1.7271 0.4020
C13A C 0.1906(6) 1.5193(6) 0.4309(5)
C14A C 0.2200(6) 1.3763(6) 0.5086(5)
H7A H 0.1838 1.3000 0.4826
Co1_2 Co 0.5000 0.0000 0.5000
Co1_3 Co 0.5000 2.0000 0.5000
Co2A Co -0.39450(8) 1.10004(8) 0.17298(7)
Co2_2 Co 0.39450(8) 0.89996(8) 0.82702(7)
Co2A_2 Co 0.60550(8) 1.10004(8) 0.17298(7)
Co2A_3 Co 0.60550(8) 0.10004(8) 0.17298(7)
Co2_3 Co 0.39450(8) 1.89996(8) 0.82702(7)
N1A N -0.1570(5) 1.0847(5) 0.1812(4)
N2A N 0.0908(5) 1.5553(5) 0.3109(5)
O1A O 0.3267(4) 1.1075(4) 0.3653(4)
O2A O 0.3835(4) 1.1083(4) 0.1518(4)
O2_2 O 1.6165(4) 0.8917(4) 0.8482(4)
O2A_2 O -0.6165(4) 1.1083(4) 0.1518(4)
O3A O 0.3565(4) 1.0754(4) 0.6593(4)
O3A_2 O 1.3565(4) 1.0754(4) 0.6593(4)
O3_2 O -0.3565(4) 0.9246(4) 0.3407(4)
O4A O 0.3448(4) 1.1801(4) 0.8369(4)
O5A O 0.4089(4) 1.8218(4) 0.5172(4)
O5_2 O 0.5911(4) 1.1782(4) 0.4828(4)
O5A_2 O 0.4089(4) 0.8218(4) 0.5172(4)
O6A O 0.4310(4) 1.7124(4) 0.7318(4)
O6A_2 O 1.4310(4) 0.7124(4) 0.7318(4)
O6_2 O -0.4310(4) 1.2876(4) 0.2682(4)
O7A O 0.0430(5) 1.6889(4) 0.2552(4)
O8A O 0.0571(5) 1.4497(5) 0.2767(4)
O9A O -0.4103(4) 1.2024(4) -0.0189(4)
H8A H -0.4829 1.1934 -0.0641
H9A H -0.3956 1.2904 -0.0347
O10 O 0.6525(5) 0.4590(4) 0.8832(4)
H10 H 0.5789 0.5210 0.8324
H11 H 0.6828 0.4977 0.9420
O11 O 0.1779(5) 0.4496(5) 0.9504(4)
H12 H 0.1097 0.5111 0.8964
H13 H 0.2133 0.3584 0.9376
loop_
_geom_bond_atom_site_label_1
_geom_bond_atom_site_label_2
_geom_bond_site_symmetry_1
_geom_bond_site_symmetry_2
C1 C2 1_555 1_555
C2 C3 1_555 1_555
C3 H1 1_555 1_555
C4 C3 1_555 1_555
H2 C4 1_555 1_555
C5 H3 1_555 1_555
C6 C2 1_555 1_555
H4 C6 1_555 1_555
C7 C8 1_555 1_555
C8 C9 1_555 1_555
C9 H5 1_555 1_555
C10 C9 1_555 1_555
C11 C10 1_555 1_555
C12 C10 1_555 1_555
H6 C12 1_555 1_555
C13 C12 1_555 1_555
C14 C8 1_555 1_555
H7 C14 1_555 1_555
Co1 O1 1_555 1_555
Co2 N1 1_555 1_555
N1 C4 1_555 1_555
N2 C13 1_555 1_555
O1 C1 1_555 1_555
O2 C1 1_555 1_555
O3 C7 1_555 1_555
O4 C7 1_555 1_555
O5 C11 1_555 1_555
O6 C11 1_555 1_555
O7 N2 1_555 1_555
O8 N2 1_555 1_555
O9 Co2 1_555 1_555
H8 O9 1_555 1_555
H9 O9 1_555 1_555
O10 H10 1_555 1_555
H11 O10 1_555 1_555
O11 H12 1_555 1_555
H13 O11 1_555 1_555
C1A C2A 1_555 1_555
C2A C3A 1_555 1_555
C3A H1A 1_555 1_555
C4A C3A 1_555 1_555
H2A C4A 1_555 1_555
C5A H3A 1_555 1_555
C6A C2A 1_555 1_555
H4A C6A 1_555 1_555
C7A C8A 1_555 1_555
C8A C9A 1_555 1_555
C9A H5A 1_555 1_555
C10A C9A 1_555 1_555
C11A C10A 1_555 1_555
C12A C10A 1_555 1_555
H6A C12A 1_555 1_555
C13A C12A 1_555 1_555
C14A C8A 1_555 1_555
H7A C14A 1_555 1_555
Co1_2 O5 1_555 1_555
Co1_3 O5A 1_555 1_555
Co2A N1A 1_555 1_555
Co2_2 O2 1_555 1_555
Co2A_2 O3 1_555 1_555
Co2A_3 O6 1_555 1_555
Co2_3 O6A 1_555 1_555
N1A C4A 1_555 1_555
N2A C13A 1_555 1_555
O1A Co1 1_555 1_555
O2A C1A 1_555 1_555
O2_2 Co2 1_555 1_555
O2A_2 Co2A 1_555 1_555
O3A Co1 1_555 1_555
O3A_2 Co2 1_555 1_555
O3_2 Co2A 1_555 1_555
O4A C7A 1_555 1_555
O5A C11A 1_555 1_555
O5_2 Co1 1_555 1_555
O5A_2 Co1 1_555 1_555
O6A C11A 1_555 1_555
O6A_2 Co2 1_555 1_555
O6_2 Co2A 1_555 1_555
O7A N2A 1_555 1_555
O8A N2A 1_555 1_555
O9A Co2A 1_555 1_555
H8A O9A 1_555 1_555
H9A O9A 1_555 1_555
C5 C6 1_555 1_555
C5 N1 1_555 1_555
C13 C14 1_555 1_555
Co1 O3 1_555 1_555
C1A O1A 1_555 1_555
C5A C6A 1_555 1_555
C5A N1A 1_555 1_555
C7A O3A 1_555 1_555
C13A C14A 1_555 1_555
Co2_2 O3A 1_555 1_555
Co2A_2 O2A 1_555 1_555

#END
