
#######################################################################
#
#                 Cambridge Crystallographic Data Centre
#                                CCDC 
#
#######################################################################
#
# If this CIF has been generated from an entry in the Cambridge 
# Structural Database, then it will include bibliographic, chemical, 
# crystal, experimental, refinement or atomic coordinate data resulting 
# from the CCDC's data processing and validation procedures.
#
#######################################################################

data_QAWJUV
_symmetry_cell_setting           triclinic
_symmetry_space_group_name_H-M   'P -1'
_symmetry_Int_Tables_number      2
_space_group_name_Hall           '-P 1'
loop_
_symmetry_equiv_pos_site_id
_symmetry_equiv_pos_as_xyz
1 x,y,z
2 -x,-y,-z
_cell_length_a                   8.2183(16)
_cell_length_b                   9.2260(18)
_cell_length_c                   9.7288(19)
_cell_angle_alpha                78.52(3)
_cell_angle_beta                 82.56(2)
_cell_angle_gamma                89.12(3)
_cell_volume                     716.773
loop_
_atom_site_label
_atom_site_type_symbol
_atom_site_fract_x
_atom_site_fract_y
_atom_site_fract_z
C1 C 0.6604(4) 0.4071(4) 0.2276(3)
C2 C 0.6182(4) 0.3625(4) 0.0974(3)
C3 C 0.7054(4) 0.4162(4) -0.0311(3)
H1 H 0.7934 0.4802 -0.0365
C4 C 0.6675(4) 0.3788(3) -0.1524(3)
C5 C 0.7582(4) 0.4460(4) -0.2907(3)
C6 C 0.5424(4) 0.2763(4) -0.1415(4)
H2 H 0.5154 0.2458 -0.2213
C7 C 0.4615(4) 0.2224(4) -0.0135(4)
C8 C 0.4920(4) 0.2651(4) 0.1074(4)
H3 H 0.4289 0.2290 0.1937
C9 C 0.7951(4) 0.7265(4) 0.4108(3)
C10 C 0.8169(4) 0.8867(3) 0.4063(3)
C11 C 0.7095(4) 0.9563(4) 0.4901(4)
H4 H 0.6192 0.9054 0.5451
C12 C 0.7361(4) 1.1009(4) 0.4920(4)
H5 H 0.6642 1.1464 0.5519
C13 C 0.9586(4) 1.1115(4) 0.3280(4)
H6 H 1.0427 1.1669 0.2683
C14 C 0.9444(4) 0.9673(4) 0.3237(4)
H7 H 1.0200 0.9233 0.2654
Mn1 Mn 0.5000 0.5000 0.5000
Mn2 Mn 0.90371(5) 1.41380(5) 0.41227(5)
N1 N 0.8579(3) 1.1789(3) 0.4140(3)
N2 N 0.3326(4) 0.1112(4) -0.0005(4)
O1 O 0.8006(3) 0.4583(3) 0.2226(3)
O2 O 0.5547(3) 0.3876(3) 0.3320(2)
O3 O 0.7221(3) 0.4042(2) -0.3997(2)
O4 O 0.8635(3) 0.5393(3) -0.2918(2)
O5 O 0.2647(4) 0.0597(4) 0.1134(4)
O6 O 0.3133(5) 0.0669(4) -0.1056(4)
O7 O 0.9191(3) 0.6474(2) 0.4148(2)
O8 O 0.6544(3) 0.6835(2) 0.4108(2)
C1A C 0.3396(4) 0.5929(4) 0.7724(3)
C2A C 0.3818(4) 0.6375(4) 0.9026(3)
C3A C 0.2946(4) 0.5838(4) 1.0311(3)
H1A H 0.2066 0.5198 1.0365
C4A C 0.3325(4) 0.6212(3) 1.1524(3)
C5A C 0.2418(4) 0.5540(4) 1.2907(3)
C6A C 0.4576(4) 0.7237(4) 1.1415(4)
H2A H 0.4846 0.7542 1.2213
C7A C 0.5385(4) 0.7776(4) 1.0135(4)
C8A C 0.5080(4) 0.7349(4) 0.8926(4)
H3A H 0.5711 0.7710 0.8063
C9A C 0.2049(4) 0.2735(4) 0.5892(3)
C10A C 0.1831(4) 0.1133(3) 0.5937(3)
C11A C 0.2905(4) 0.0437(4) 0.5099(4)
H4A H 0.3808 0.0946 0.4549
C12A C 0.2639(4) -0.1009(4) 0.5080(4)
H5A H 0.3358 -0.1464 0.4481
C13A C 0.0414(4) -0.1115(4) 0.6720(4)
H6A H -0.0427 -0.1669 0.7317
C14A C 0.0556(4) 0.0327(4) 0.6763(4)
H7A H -0.0200 0.0767 0.7346
Mn1_2 Mn 0.5000 0.5000 -0.5000
Mn1_3 Mn 0.5000 0.5000 1.5000
Mn2A Mn 0.09629(5) -0.41380(5) 0.58773(5)
Mn2_2 Mn 0.90371(5) 0.41380(5) 0.41227(5)
Mn2_3 Mn 0.90371(5) 0.41380(5) -0.58773(5)
Mn2A_2 Mn 1.09629(5) 0.58620(5) -0.41227(5)
Mn2A_3 Mn 1.09629(5) 0.58620(5) 0.58773(5)
Mn2A_4 Mn 0.09629(5) 0.58620(5) 0.58773(5)
Mn2A_5 Mn 0.09629(5) 0.58620(5) 1.58773(5)
Mn2_4 Mn -0.09629(5) 0.41380(5) 1.41227(5)
Mn2_5 Mn -0.09629(5) 0.41380(5) 0.41227(5)
N1A N 0.1421(3) -0.1789(3) 0.5860(3)
N2A N 0.6674(4) 0.8888(4) 1.0005(4)
O1A O 0.1994(3) 0.5417(3) 0.7774(3)
O1_2 O 0.8006(3) 1.4583(3) 0.2226(3)
O1A_2 O 0.1994(3) -0.4583(3) 0.7774(3)
O2A O 0.4453(3) 0.6124(3) 0.6680(2)
O3A O 0.2779(3) 0.5958(2) 1.3997(2)
O3_2 O 0.7221(3) 0.4042(2) 0.6003(2)
O3A_2 O 0.2779(3) 0.5958(2) 0.3997(2)
O3_3 O 0.7221(3) 1.4042(2) 0.6003(2)
O3A_3 O 0.2779(3) -0.4042(2) 0.3997(2)
O4A O 0.1365(3) 0.4607(3) 1.2918(2)
O4A_2 O 1.1365(3) 1.4607(3) 0.2918(2)
O4_2 O -0.1365(3) -0.4607(3) 0.7082(2)
O5A O 0.7353(4) 0.9403(4) 0.8866(4)
O6A O 0.6867(5) 0.9331(4) 1.1056(4)
O7A O 0.0809(3) 0.3526(2) 0.5852(2)
O7_2 O 0.9191(3) 1.6474(2) 0.4148(2)
O7A_2 O 1.0809(3) 1.3526(2) 0.5852(2)
O7A_3 O 0.0809(3) -0.6474(2) 0.5852(2)
O7_3 O -0.0809(3) -0.3526(2) 0.4148(2)
O8A O 0.3456(3) 0.3165(2) 0.5892(2)
loop_
_geom_bond_atom_site_label_1
_geom_bond_atom_site_label_2
_geom_bond_site_symmetry_1
_geom_bond_site_symmetry_2
C1 C2 1_555 1_555
C2 C3 1_555 1_555
C3 H1 1_555 1_555
C4 C3 1_555 1_555
C5 C4 1_555 1_555
C6 C4 1_555 1_555
H2 C6 1_555 1_555
C7 C6 1_555 1_555
C8 C2 1_555 1_555
H3 C8 1_555 1_555
C9 C10 1_555 1_555
C10 C11 1_555 1_555
C11 H4 1_555 1_555
C12 C11 1_555 1_555
H5 C12 1_555 1_555
C13 H6 1_555 1_555
C14 C10 1_555 1_555
H7 C14 1_555 1_555
Mn1 O2 1_555 1_555
Mn2 N1 1_555 1_555
N1 C12 1_555 1_555
N2 C7 1_555 1_555
O1 C1 1_555 1_555
O2 C1 1_555 1_555
O3 C5 1_555 1_555
O4 C5 1_555 1_555
O5 N2 1_555 1_555
O6 N2 1_555 1_555
O7 C9 1_555 1_555
O8 C9 1_555 1_555
C1A C2A 1_555 1_555
C2A C3A 1_555 1_555
C3A H1A 1_555 1_555
C4A C3A 1_555 1_555
C5A C4A 1_555 1_555
C6A C4A 1_555 1_555
H2A C6A 1_555 1_555
C7A C6A 1_555 1_555
C8A C2A 1_555 1_555
H3A C8A 1_555 1_555
C9A C10A 1_555 1_555
C10A C11A 1_555 1_555
C11A H4A 1_555 1_555
C12A C11A 1_555 1_555
H5A C12A 1_555 1_555
C13A H6A 1_555 1_555
C14A C10A 1_555 1_555
H7A C14A 1_555 1_555
Mn1_2 O3 1_555 1_555
Mn1_3 O3A 1_555 1_555
Mn2A N1A 1_555 1_555
Mn2_2 O1 1_555 1_555
Mn2_3 O3 1_555 1_555
Mn2A_2 O4 1_555 1_555
Mn2A_3 O7 1_555 1_555
Mn2A_4 O1A 1_555 1_555
Mn2A_5 O3A 1_555 1_555
Mn2_4 O4A 1_555 1_555
Mn2_5 O7A 1_555 1_555
N1A C12A 1_555 1_555
N2A C7A 1_555 1_555
O1A C1A 1_555 1_555
O1_2 Mn2 1_555 1_555
O1A_2 Mn2A 1_555 1_555
O2A Mn1 1_555 1_555
O3A C5A 1_555 1_555
O3_2 Mn1 1_555 1_555
O3A_2 Mn1 1_555 1_555
O3_3 Mn2 1_555 1_555
O3A_3 Mn2A 1_555 1_555
O4A C5A 1_555 1_555
O4A_2 Mn2 1_555 1_555
O4_2 Mn2A 1_555 1_555
O5A N2A 1_555 1_555
O6A N2A 1_555 1_555
O7A C9A 1_555 1_555
O7_2 Mn2 1_555 1_555
O7A_2 Mn2 1_555 1_555
O7A_3 Mn2A 1_555 1_555
O7_3 Mn2A 1_555 1_555
O8A Mn1 1_555 1_555
C7 C8 1_555 1_555
C13 C14 1_555 1_555
C13 N1 1_555 1_555
Mn1 O8 1_555 1_555
O7 Mn2_2 1_555 1_555
C1A O2A 1_555 1_555
C7A C8A 1_555 1_555
C9A O8A 1_555 1_555
C13A C14A 1_555 1_555
C13A N1A 1_555 1_555
Mn2_2 O3_2 1_555 1_555
Mn2A_4 O3A_2 1_555 1_555
Mn2A_4 O7A 1_555 1_555

#END
