
#######################################################################
#
#                 Cambridge Crystallographic Data Centre
#                                CCDC 
#
#######################################################################
#
# If this CIF has been generated from an entry in the Cambridge 
# Structural Database, then it will include bibliographic, chemical, 
# crystal, experimental, refinement or atomic coordinate data resulting 
# from the CCDC's data processing and validation procedures.
#
#######################################################################

data_QAWNAE
_symmetry_cell_setting           orthorhombic
_symmetry_space_group_name_H-M   'P 21 21 21'
_symmetry_Int_Tables_number      19
_space_group_name_Hall           'P 2ac 2ab'
loop_
_symmetry_equiv_pos_site_id
_symmetry_equiv_pos_as_xyz
1 x,y,z
2 1/2-x,-y,1/2+z
3 1/2+x,1/2-y,-z
4 -x,1/2+y,1/2-z
_cell_length_a                   9.408(9)
_cell_length_b                   11.050(10)
_cell_length_c                   31.83(3)
_cell_angle_alpha                90
_cell_angle_beta                 90
_cell_angle_gamma                90
_cell_volume                     3309
loop_
_atom_site_label
_atom_site_type_symbol
_atom_site_fract_x
_atom_site_fract_y
_atom_site_fract_z
P1 P 0.12633(9) 1.62732(7) 0.31002(2)
O1 O 0.2928(3) 1.0183(2) 0.37447(8)
O2 O 0.2481(3) 1.5611(2) 0.28862(8)
O3 O 0.7162(3) 0.6370(2) 0.31627(7)
O4 O 0.1367(3) 1.7638(2) 0.30406(7)
O5 O 0.4595(3) 0.3952(2) 0.29140(8)
O6 O -0.0168(3) 1.5776(2) 0.29558(7)
O7 O 0.8381(3) 0.3668(2) 0.27640(8)
O8 O 0.7672(3) 1.0420(2) 0.38083(8)
O9 O 0.4672(3) 0.6414(2) 0.24353(8)
O10 O 0.6081(3) 0.3814(2) 0.19454(7)
O13 O 0.8499(3) 0.6219(3) 0.22452(9)
C1 C 0.3645(3) 1.1236(3) 0.43816(9)
C2 C 0.6075(4) 0.7788(3) 0.43863(10)
C3 C 0.5215(3) 1.1218(3) 0.42414(9)
H1 H 0.5208 1.1198 0.3934
C4 C 0.6046(3) 1.0111(3) 0.43842(10)
H2 H 0.6023 1.01 0.4692
C5 C 0.7642(4) 0.7832(3) 0.42344(11)
H3 H 0.8144 0.7164 0.4372
C6 C 0.7061(4) 0.6465(3) 0.36131(10)
H4 H 0.7554 0.5776 0.3741
C7 C 0.7602(4) 1.0160(3) 0.42519(11)
H5 H 0.8051 1.0834 0.4402
C8 C 0.1775(4) 1.3046(3) 0.43565(11)
H6 H 0.1789 1.3032 0.4664
C9 C 0.5312(3) 0.8948(3) 0.42300(9)
H7 H 0.5395 0.8947 0.3923
C10 C 0.5526(4) 0.6443(3) 0.37457(11)
H8 H 0.5102 0.5675 0.3667
H9 H 0.5011 0.7083 0.3603
C11 C 0.2944(4) 1.0103(3) 0.41951(11)
H10 H 0.1961 1.006 0.4296
C12 C 0.7755(4) 0.7628(3) 0.37617(10)
H11 H 0.7315 0.8305 0.3618
H12 H 0.8751 0.7614 0.3684
C13 C 0.3715(4) 0.8956(3) 0.43291(12)
H13 H 0.3275 0.827 0.419
H14 H 0.3591 0.885 0.4629
C14 C 0.6039(5) 0.7690(4) 0.48707(11)
H15 H 0.507 0.7644 0.4964
H16 H 0.6485 0.8389 0.4991
H17 H 0.6539 0.6975 0.4957
C15 C 0.5413(4) 0.6615(3) 0.42149(11)
H18 H 0.5868 0.5933 0.4352
H19 H 0.4416 0.66 0.4292
C16 C 0.1425(4) 1.5951(3) 0.36561(10)
H20 H 0.2269 1.6351 0.3763
H21 H 0.0611 1.629 0.3801
C17 C 0.5766(4) 1.2466(3) 0.43665(12)
H22 H 0.6098 1.2467 0.4655
H23 H 0.6538 1.2718 0.4184
C18 C 0.1520(4) 1.4612(3) 0.37580(11)
H24 H 0.0695 1.4203 0.3643
H25 H 0.2358 1.4276 0.3624
C19 C 0.3191(3) 1.2487(3) 0.42091(10)
H26 H 0.3145 1.2419 0.3902
C20 C 0.1595(4) 1.4368(3) 0.42265(11)
H27 H 0.0732 1.4675 0.4355
H28 H 0.2383 1.4828 0.4341
C21 C 0.8389(4) 0.9015(3) 0.43678(11)
H29 H 0.8523 0.9001 0.467
H30 H 0.9323 0.9038 0.4239
C22 C 0.3481(4) 1.1203(3) 0.48600(10)
H31 H 0.2498 1.1095 0.4931
H32 H 0.3818 1.1951 0.4977
H33 H 0.4026 1.0543 0.4972
C23 C 0.4486(4) 1.3291(3) 0.43150(12)
H34 H 0.4653 1.3868 0.4091
H35 H 0.4314 1.3736 0.4573
O14 O 0.8031(5) 0.8951(6) 0.2700(2)
C24 C 0.0496(4) 1.2295(4) 0.42199(15)
H36 H -0.0357 1.2759 0.4258
H37 H 0.0446 1.1573 0.4387
H38 H 0.0595 1.2079 0.3929
Na1 Na 0.64745(15) 0.50165(13) 0.25694(4)
Na2 Na 0.59618(15) 0.79599(14) 0.27539(5)
O5C O 0.5405(3) 0.8952(2) 0.20860(8)
O10C O 0.3919(3) 0.8814(2) 0.30546(7)
Na2C Na 0.40382(15) 0.29599(14) 0.22461(5)
O11 O 0.0279(3) 0.9706(3) 0.33578(9)
O12 O 0.6606(3) 0.2366(3) 0.33023(9)
loop_
_geom_bond_atom_site_label_1
_geom_bond_atom_site_label_2
_geom_bond_site_symmetry_1
_geom_bond_site_symmetry_2
P1 O2 1_555 1_555
O1 C11 1_555 1_555
O3 C6 1_555 1_555
O4 P1 1_555 1_555
O5 Na1 1_555 1_555
O6 P1 1_555 1_555
O7 Na1 1_555 1_555
O8 C7 1_555 1_555
O9 Na1 1_555 1_555
O10 Na1 1_555 1_555
O13 Na1 1_555 1_555
C1 C3 1_555 1_555
C2 C5 1_555 1_555
C3 H1 1_555 1_555
C4 C3 1_555 1_555
H2 C4 1_555 1_555
C5 H3 1_555 1_555
C6 H4 1_555 1_555
C7 C4 1_555 1_555
H5 C7 1_555 1_555
C8 H6 1_555 1_555
C9 C2 1_555 1_555
H7 C9 1_555 1_555
C10 C6 1_555 1_555
H8 C10 1_555 1_555
H9 C10 1_555 1_555
C11 C1 1_555 1_555
H10 C11 1_555 1_555
C12 C5 1_555 1_555
H11 C12 1_555 1_555
H12 C12 1_555 1_555
C13 C9 1_555 1_555
H13 C13 1_555 1_555
H14 C13 1_555 1_555
C14 C2 1_555 1_555
H15 C14 1_555 1_555
H16 C14 1_555 1_555
H17 C14 1_555 1_555
C15 C2 1_555 1_555
H18 C15 1_555 1_555
H19 C15 1_555 1_555
C16 P1 1_555 1_555
H20 C16 1_555 1_555
H21 C16 1_555 1_555
C17 C3 1_555 1_555
H22 C17 1_555 1_555
H23 C17 1_555 1_555
C18 C16 1_555 1_555
H24 C18 1_555 1_555
H25 C18 1_555 1_555
C19 C1 1_555 1_555
H26 C19 1_555 1_555
C20 C8 1_555 1_555
H27 C20 1_555 1_555
H28 C20 1_555 1_555
C21 C5 1_555 1_555
H29 C21 1_555 1_555
H30 C21 1_555 1_555
C22 C1 1_555 1_555
H31 C22 1_555 1_555
H32 C22 1_555 1_555
H33 C22 1_555 1_555
C23 C17 1_555 1_555
H34 C23 1_555 1_555
H35 C23 1_555 1_555
O14 Na2 1_555 1_555
C24 C8 1_555 1_555
H36 C24 1_555 1_555
H37 C24 1_555 1_555
H38 C24 1_555 1_555
Na1 O3 1_555 1_555
Na2 O3 1_555 1_555
O5C Na2 1_555 1_555
O10C Na2 1_555 1_555
Na2C O5 1_555 1_555
O9 Na2 1_555 1_555
O10 Na2C 1_555 1_555
C4 C9 1_555 1_555
C6 C12 1_555 1_555
C7 C21 1_555 1_555
C8 C19 1_555 1_555
C10 C15 1_555 1_555
C11 C13 1_555 1_555
C18 C20 1_555 1_555
C19 C23 1_555 1_555

#END
