
#######################################################################
#
#                 Cambridge Crystallographic Data Centre
#                                CCDC 
#
#######################################################################
#
# If this CIF has been generated from an entry in the Cambridge 
# Structural Database, then it will include bibliographic, chemical, 
# crystal, experimental, refinement or atomic coordinate data resulting 
# from the CCDC's data processing and validation procedures.
#
#######################################################################

data_QAWRIQ
_symmetry_cell_setting           triclinic
_symmetry_space_group_name_H-M   'P -1'
_symmetry_Int_Tables_number      2
_space_group_name_Hall           '-P 1'
loop_
_symmetry_equiv_pos_site_id
_symmetry_equiv_pos_as_xyz
1 x,y,z
2 -x,-y,-z
_cell_length_a                   10.524(3)
_cell_length_b                   11.307(3)
_cell_length_c                   14.316(4)
_cell_angle_alpha                111.186(4)
_cell_angle_beta                 107.831(4)
_cell_angle_gamma                91.583(4)
_cell_volume                     1493.63
loop_
_atom_site_label
_atom_site_type_symbol
_atom_site_fract_x
_atom_site_fract_y
_atom_site_fract_z
O1 O 0.4582(5) 0.4678(5) 0.0717(4)
O2 O 0.5889(5) 0.5561(5) 0.2389(4)
O3 O -0.1112(5) 0.5569(5) 0.2291(4)
O4 O 0.0171(6) 0.6456(6) 0.3965(5)
O5 O 0.7053(6) 0.7093(5) 0.1435(5)
O6 O 0.7819(7) 0.7850(5) 0.3209(5)
O7 O 0.6917(7) 1.3251(6) 0.1521(5)
O8 O 0.7940(7) 1.4080(5) 0.3283(5)
O9 O 0.8732(6) -0.1666(6) -0.4523(5)
O10 O 0.6536(7) -0.2101(6) -0.5256(6)
O11 O 0.6096(6) 0.2923(6) -0.0780(5)
O12 O 0.8306(6) 0.3366(6) -0.0067(5)
O13 O 0.9205(7) 0.5913(6) 0.5524(5)
H1 H 0.9640 0.5282 0.5445
H2 H 0.9234 0.6404 0.6144
O14 O 0.6424(7) 0.5375(7) 0.4613(6)
H3 H 0.5783 0.4765 0.4183
H4 H 0.6565 0.5651 0.5278
N1 N 0.1953(8) 0.4086(8) 0.0195(6)
H5 H 0.1137 0.3808 -0.0239
H6 H 0.2620 0.3924 -0.0035
N2 N 0.8388(11) 1.0372(9) 0.4345(7)
H7 H 0.8664 1.1072 0.4906
H8 H 0.8419 0.9643 0.4405
N3 N 0.4951(10) -0.0791(10) -0.4231(8)
H9 H 0.4216 -0.0622 -0.4102
H10 H 0.4925 -0.1422 -0.4801
C1 C 0.4725(8) 0.5195(7) 0.1703(6)
C2 C 0.3504(8) 0.5353(8) 0.2025(7)
C3 C 0.3643(9) 0.6104(8) 0.3071(7)
H11 H 0.4506 0.6464 0.3561
C4 C 0.2554(9) 0.6333(9) 0.3404(7)
H12 H 0.2671 0.6849 0.4107
C5 C 0.1268(8) 0.5779(8) 0.2671(6)
C6 C 0.0036(8) 0.5961(8) 0.2994(7)
C7 C 0.1101(8) 0.5048(8) 0.1627(7)
H13 H 0.0232 0.4709 0.1141
C8 C 0.2197(8) 0.4802(8) 0.1278(6)
C9 C 0.7412(9) 0.7997(7) 0.2342(7)
C10 C 0.7358(9) 0.9335(7) 0.2386(7)
C11 C 0.6731(11) 0.9528(8) 0.1460(7)
H14 H 0.6330 0.8817 0.0828
C12 C 0.6682(11) 1.0750(8) 0.1444(8)
H15 H 0.6230 1.0855 0.0817
C13 C 0.7322(9) 1.1808(8) 0.2381(7)
C14 C 0.7387(9) 1.3154(8) 0.2393(7)
C15 C 0.7879(9) 1.1635(8) 0.3321(7)
H16 H 0.8254 1.2353 0.3952
C16 C 0.7899(9) 1.0420(8) 0.3357(7)
C17 C 0.7576(10) -0.1407(8) -0.4515(7)
C18 C 0.7454(10) -0.0299(8) -0.3617(7)
C19 C 0.8617(10) 0.0458(9) -0.2812(8)
H17 H 0.9448 0.0292 -0.2889
C20 C 0.8602(10) 0.1439(9) -0.1907(8)
H18 H 0.9398 0.1930 -0.1379
C21 C 0.7338(10) 0.1672(8) -0.1810(7)
C22 C 0.7236(9) 0.2701(8) -0.0823(7)
C23 C 0.6163(10) 0.0959(8) -0.2612(7)
H19 H 0.5333 0.1152 -0.2547
C24 C 0.6200(9) -0.0034(9) -0.3507(7)
Gd1 Gd 0.69317(4) 0.48274(3) 0.08113(3)
Gd2 Gd 0.78443(4) 0.63236(3) 0.39475(3)
O1A O 0.5418(5) 0.5322(5) -0.0717(4)
O2A O 0.4111(5) 0.4439(5) -0.2389(4)
O3A O 1.1112(5) 0.4431(5) -0.2291(4)
O3_2 O 0.8888(5) 0.5569(5) 0.2291(4)
O3A_2 O 0.1112(5) 0.4431(5) -0.2291(4)
O4A O 0.9829(6) 0.3544(6) -0.3965(5)
O4_2 O 1.0171(6) 0.6456(6) 0.3965(5)
O4A_2 O -0.0171(6) 0.3544(6) -0.3965(5)
O5_2 O 0.7053(6) -0.2907(5) 0.1435(5)
O5A O 0.2947(6) 0.2907(5) -0.1435(5)
O6_2 O 0.7819(7) -0.2150(5) 0.3209(5)
O6A O 0.2181(7) 0.2150(5) -0.3209(5)
O7_2 O 0.6917(7) 0.3251(6) 0.1521(5)
O7A O 0.3083(7) 0.6749(6) -0.1521(5)
O8_2 O 0.7940(7) 0.4080(5) 0.3283(5)
O8A O 0.2060(7) 0.5920(5) -0.3283(5)
O9_2 O 0.8732(6) 0.8334(6) 0.5477(5)
O9A O 0.1268(6) 0.1666(6) -0.5477(5)
O10_2 O 0.6536(7) 0.7899(6) 0.4744(6)
O10A O 0.3464(7) 0.2101(6) -0.4744(6)
O11_2 O 0.6096(6) 1.2923(6) 0.9220(5)
O11A O 0.3904(6) 0.7077(6) 0.0780(5)
O12_2 O 0.8306(6) 1.3366(6) 0.9933(5)
O12A O 0.1694(6) 0.6634(6) 0.0067(5)
O13A O 0.0795(7) 0.4087(6) -0.5524(5)
H1A H 0.0360 0.4718 -0.5445
H2A H 0.0766 0.3596 -0.6144
O14A O 0.3576(7) 0.4625(7) -0.4613(6)
H3A H 0.4217 0.5235 -0.4183
H4A H 0.3435 0.4349 -0.5278
N1A N 0.8047(8) 0.5914(8) -0.0195(6)
H5A H 0.8863 0.6192 0.0239
H6A H 0.7380 0.6076 0.0035
N2_2 N 0.8388(11) 0.0372(9) 0.4345(7)
H7_2 H 0.8664 0.1072 0.4906
H8_2 H 0.8419 -0.0357 0.4405
N3_2 N 0.4951(10) 0.9209(10) 0.5769(8)
H9_2 H 0.4216 0.9378 0.5898
H10_2 H 0.4925 0.8578 0.5199
C1A C 0.5275(8) 0.4805(7) -0.1703(6)
C2A C 0.6496(8) 0.4647(8) -0.2025(7)
C3A C 0.6357(9) 0.3896(8) -0.3071(7)
H11A H 0.5494 0.3536 -0.3561
C4A C 0.7446(9) 0.3667(9) -0.3404(7)
H12A H 0.7329 0.3151 -0.4107
C5A C 0.8732(8) 0.4221(8) -0.2671(6)
C6A C 0.9964(8) 0.4039(8) -0.2994(7)
C7A C 0.8899(8) 0.4952(8) -0.1627(7)
H13A H 0.9768 0.5291 -0.1141
C8A C 0.7803(8) 0.5198(8) -0.1278(6)
C9_2 C 0.7412(9) -0.2003(7) 0.2342(7)
C10_2 C 0.7358(9) -0.0665(7) 0.2386(7)
C11_2 C 0.6731(11) -0.0472(8) 0.1460(7)
H14_2 H 0.6330 -0.1183 0.0828
C12_2 C 0.6682(11) 0.0750(8) 0.1444(8)
H15_2 H 0.6230 0.0855 0.0817
C13_2 C 0.7322(9) 0.1808(8) 0.2381(7)
C14_2 C 0.7387(9) 0.3154(8) 0.2393(7)
C15_2 C 0.7879(9) 0.1635(8) 0.3321(7)
H16_2 H 0.8254 0.2353 0.3952
C16_2 C 0.7899(9) 0.0420(8) 0.3357(7)
C17_2 C 0.7576(10) 0.8593(8) 0.5485(7)
C18_2 C 0.7454(10) 0.9701(8) 0.6383(7)
C19_2 C 0.8617(10) 1.0458(9) 0.7188(8)
H17_2 H 0.9448 1.0292 0.7111
C20_2 C 0.8602(10) 1.1439(9) 0.8093(8)
H18_2 H 0.9398 1.1930 0.8621
C21_2 C 0.7338(10) 1.1672(8) 0.8190(7)
C22_2 C 0.7236(9) 1.2701(8) 0.9177(7)
C23_2 C 0.6163(10) 1.0959(8) 0.7388(7)
H19_2 H 0.5333 1.1152 0.7453
C24_2 C 0.6200(9) 0.9966(9) 0.6493(7)
Gd1A Gd 0.30683(4) 0.51726(3) -0.08113(3)
Gd1_2 Gd -0.30683(4) 0.48274(3) 0.08113(3)
Gd1_3 Gd 0.69317(4) 1.48274(3) 0.08113(3)
Gd1A_2 Gd 1.30683(4) 0.51726(3) -0.08113(3)
Gd1_4 Gd 0.69317(4) -0.51726(3) 0.08113(3)
Gd1_5 Gd 0.69317(4) 1.48274(3) 1.08113(3)
Gd2A Gd 0.21557(4) 0.36764(3) -0.39475(3)
Gd2_2 Gd -0.21557(4) 0.63236(3) 0.39475(3)
Gd2_3 Gd 0.78443(4) 1.63236(3) 0.39475(3)
Gd2_4 Gd 0.78443(4) -0.36764(3) -0.60525(3)
Gd2A_2 Gd 1.21557(4) 0.36764(3) -0.39475(3)
Gd2_5 Gd 0.78443(4) -0.36764(3) 0.39475(3)
C25 C 0.1422(18) 0.2325(11) 0.2130(10)
H20 H 0.1270 0.2962 0.2696
C26 C 0.0340(12) 0.1468(15) 0.1295(13)
H21 H -0.0537 0.1532 0.1303
C27 C 0.0567(14) 0.0516(12) 0.0449(10)
C28 C 0.1876(18) 0.0421(13) 0.0438(11)
H22 H 0.2028 -0.0216 -0.0129
C29 C 0.2959(12) 0.1278(16) 0.1272(14)
H23 H 0.3835 0.1214 0.1264
N4 N 0.2731(14) 0.2230(13) 0.2118(10)
C25A C -0.1422(18) -0.2325(11) -0.2130(10)
H20A H -0.1270 -0.2962 -0.2696
C26A C -0.0340(12) -0.1468(15) -0.1295(13)
H21A H 0.0537 -0.1532 -0.1303
C27A C -0.0567(14) -0.0516(12) -0.0449(10)
C28A C -0.1876(18) -0.0421(13) -0.0438(11)
H22A H -0.2028 0.0216 0.0129
C29A C -0.2959(12) -0.1278(16) -0.1272(14)
H23A H -0.3835 -0.1214 -0.1264
N4A N -0.2731(14) -0.2230(13) -0.2118(10)
O15 O 0.4765(10) 0.3176(8) 0.3875(9)
H24 H 0.4105 0.2869 0.3301
H25 H 0.4425 0.2894 0.4243
loop_
_geom_bond_atom_site_label_1
_geom_bond_atom_site_label_2
_geom_bond_site_symmetry_1
_geom_bond_site_symmetry_2
O1 C1 1_555 1_555
O2 C1 1_555 1_555
O3 C6 1_555 1_555
O4 C6 1_555 1_555
O5 C9 1_555 1_555
O6 C9 1_555 1_555
O7 C14 1_555 1_555
O8 C14 1_555 1_555
O9 C17 1_555 1_555
O10 C17 1_555 1_555
O11 C22 1_555 1_555
O12 C22 1_555 1_555
O13 H1 1_555 1_555
H2 O13 1_555 1_555
O14 H3 1_555 1_555
H4 O14 1_555 1_555
N1 H5 1_555 1_555
H6 N1 1_555 1_555
N2 H7 1_555 1_555
H8 N2 1_555 1_555
N3 H9 1_555 1_555
H10 N3 1_555 1_555
C1 C2 1_555 1_555
C2 C3 1_555 1_555
C3 H11 1_555 1_555
C4 C3 1_555 1_555
H12 C4 1_555 1_555
C5 C4 1_555 1_555
C6 C5 1_555 1_555
C7 C5 1_555 1_555
H13 C7 1_555 1_555
C8 N1 1_555 1_555
C9 C10 1_555 1_555
C10 C11 1_555 1_555
C11 H14 1_555 1_555
C12 C11 1_555 1_555
H15 C12 1_555 1_555
C13 C12 1_555 1_555
C14 C13 1_555 1_555
C15 C13 1_555 1_555
H16 C15 1_555 1_555
C16 N2 1_555 1_555
C17 C18 1_555 1_555
C18 C19 1_555 1_555
C19 H17 1_555 1_555
C20 C19 1_555 1_555
H18 C20 1_555 1_555
C21 C20 1_555 1_555
C22 C21 1_555 1_555
C23 C21 1_555 1_555
H19 C23 1_555 1_555
C24 N3 1_555 1_555
C25 H20 1_555 1_555
C26 C25 1_555 1_555
H21 C26 1_555 1_555
C27 C26 1_555 1_555
C28 C27 1_555 1_555
H22 C28 1_555 1_555
C29 C28 1_555 1_555
H23 C29 1_555 1_555
N4 C25 1_555 1_555
O15 H24 1_555 1_555
H25 O15 1_555 1_555
Gd1 O1 1_555 1_555
Gd2 O2 1_555 1_555
O1A Gd1 1_555 1_555
O2A C1A 1_555 1_555
O3A C6A 1_555 1_555
O3_2 Gd1 1_555 1_555
O3A_2 Gd1A 1_555 1_555
O4A C6A 1_555 1_555
O4_2 Gd2 1_555 1_555
O4A_2 Gd2A 1_555 1_555
O5_2 C9_2 1_555 1_555
O5A Gd1A 1_555 1_555
O6_2 C9_2 1_555 1_555
O6A Gd2A 1_555 1_555
O7_2 Gd1 1_555 1_555
O7A Gd1A 1_555 1_555
O8_2 Gd2 1_555 1_555
O8A Gd2A 1_555 1_555
O9_2 Gd2 1_555 1_555
O9A Gd2A 1_555 1_555
O10_2 Gd2 1_555 1_555
O10A Gd2A 1_555 1_555
O11_2 C22_2 1_555 1_555
O11A Gd1A 1_555 1_555
O12_2 C22_2 1_555 1_555
O12A Gd1A 1_555 1_555
O13A H1A 1_555 1_555
H2A O13A 1_555 1_555
O14A H3A 1_555 1_555
H4A O14A 1_555 1_555
N1A Gd1 1_555 1_555
H5A N1A 1_555 1_555
H6A N1A 1_555 1_555
N2_2 H7_2 1_555 1_555
H8_2 N2_2 1_555 1_555
N3_2 H9_2 1_555 1_555
H10_2 N3_2 1_555 1_555
C1A O1A 1_555 1_555
C2A C1A 1_555 1_555
C3A C2A 1_555 1_555
H11A C3A 1_555 1_555
C4A C3A 1_555 1_555
H12A C4A 1_555 1_555
C5A C4A 1_555 1_555
C6A C5A 1_555 1_555
C7A C5A 1_555 1_555
H13A C7A 1_555 1_555
C8A N1A 1_555 1_555
C9_2 C10_2 1_555 1_555
C10_2 C11_2 1_555 1_555
C11_2 H14_2 1_555 1_555
C12_2 C11_2 1_555 1_555
H15_2 C12_2 1_555 1_555
C13_2 C12_2 1_555 1_555
C14_2 O7_2 1_555 1_555
C15_2 C13_2 1_555 1_555
H16_2 C15_2 1_555 1_555
C16_2 N2_2 1_555 1_555
C17_2 O9_2 1_555 1_555
C18_2 C17_2 1_555 1_555
C19_2 C18_2 1_555 1_555
H17_2 C19_2 1_555 1_555
C20_2 C19_2 1_555 1_555
H18_2 C20_2 1_555 1_555
C21_2 C20_2 1_555 1_555
C22_2 C21_2 1_555 1_555
C23_2 C21_2 1_555 1_555
H19_2 C23_2 1_555 1_555
C24_2 N3_2 1_555 1_555
C25A H20A 1_555 1_555
C26A C25A 1_555 1_555
H21A C26A 1_555 1_555
C27A C27 1_555 1_555
C28A C27A 1_555 1_555
H22A C28A 1_555 1_555
C29A C28A 1_555 1_555
H23A C29A 1_555 1_555
N4A C25A 1_555 1_555
Gd1A O1 1_555 1_555
Gd1_2 O3 1_555 1_555
Gd1_3 O7 1_555 1_555
Gd1A_2 O3A 1_555 1_555
Gd1_4 O5_2 1_555 1_555
Gd1_5 O11_2 1_555 1_555
Gd2A O2A 1_555 1_555
Gd2_2 O4 1_555 1_555
Gd2_3 O8 1_555 1_555
Gd2_4 O9 1_555 1_555
Gd2A_2 O4A 1_555 1_555
Gd2_5 O6_2 1_555 1_555
O2 Gd1 1_555 1_555
O5 Gd1 1_555 1_555
O6 Gd2 1_555 1_555
O10 Gd2_4 1_555 1_555
O11 Gd1 1_555 1_555
O12 Gd1 1_555 1_555
O13 Gd2 1_555 1_555
O14 Gd2 1_555 1_555
N1 Gd1A 1_555 1_555
C2 C8 1_555 1_555
C7 C8 1_555 1_555
C10 C16 1_555 1_555
C15 C16 1_555 1_555
C18 C24 1_555 1_555
C23 C24 1_555 1_555
C29 N4 1_555 1_555
O1A Gd1A 1_555 1_555
O2A Gd1A 1_555 1_555
O8_2 C14_2 1_555 1_555
O10_2 C17_2 1_555 1_555
O12_2 Gd1_5 1_555 1_555
O13A Gd2A 1_555 1_555
O14A Gd2A 1_555 1_555
C2A C8A 1_555 1_555
C7A C8A 1_555 1_555
C10_2 C16_2 1_555 1_555
C13_2 C14_2 1_555 1_555
C15_2 C16_2 1_555 1_555
C18_2 C24_2 1_555 1_555
C23_2 C24_2 1_555 1_555
C26A C27A 1_555 1_555
C29A N4A 1_555 1_555

#END
