
#######################################################################
#
#                 Cambridge Crystallographic Data Centre
#                                CCDC 
#
#######################################################################
#
# If this CIF has been generated from an entry in the Cambridge 
# Structural Database, then it will include bibliographic, chemical, 
# crystal, experimental, refinement or atomic coordinate data resulting 
# from the CCDC's data processing and validation procedures.
#
#######################################################################

data_QAWROX
_symmetry_cell_setting           monoclinic
_symmetry_space_group_name_H-M   'P 21/c'
_symmetry_Int_Tables_number      14
_space_group_name_Hall           '-P 2ybc'
loop_
_symmetry_equiv_pos_site_id
_symmetry_equiv_pos_as_xyz
1 x,y,z
2 -x,1/2+y,1/2-z
3 -x,-y,-z
4 x,1/2-y,1/2+z
_cell_length_a                   12.426(5)
_cell_length_b                   15.162(6)
_cell_length_c                   11.390(5)
_cell_angle_alpha                90
_cell_angle_beta                 114.88(4)
_cell_angle_gamma                90
_cell_volume                     1946.75
loop_
_atom_site_label
_atom_site_type_symbol
_atom_site_fract_x
_atom_site_fract_y
_atom_site_fract_z
Co1 Co 0.661613(15) 0.612644(12) 0.629368(16)
O1 O 0.81553(8) 0.58906(6) 0.76217(8)
O2 O 0.96289(8) 0.49303(7) 0.83107(9)
N1 N 0.68415(9) 0.50644(7) 0.54790(10)
H1 H 0.6306 0.4644 0.5475
H2 H 0.6694 0.5186 0.4633
C1 C 0.86789(11) 0.51948(9) 0.74696(12)
C2 C 0.80747(11) 0.47062(9) 0.61662(12)
C3 C 0.80312(13) 0.37183(9) 0.63769(15)
H3 H 0.7598 0.3606 0.6909
H4 H 0.8841 0.3489 0.6818
H5 H 0.7626 0.3423 0.5539
C4 C 0.87868(12) 0.49173(10) 0.53812(13)
H6 H 0.9594 0.4684 0.5832
H7 H 0.8821 0.5558 0.5286
H8 H 0.8401 0.4645 0.4524
O3 O 0.72866(8) 0.67616(6) 0.53299(8)
O4 O 0.78552(9) 0.80851(7) 0.49999(9)
N2 N 0.65981(10) 0.72384(7) 0.71268(10)
H9 H 0.5839 0.7356 0.7031
H10 H 0.7080 0.7198 0.7998
C5 C 0.74315(11) 0.75908(9) 0.55618(12)
C6 C 0.70205(13) 0.79781(9) 0.65507(13)
C7 C 0.59809(18) 0.86008(12) 0.57992(19)
H11 H 0.6240 0.9052 0.5358
H12 H 0.5714 0.8886 0.6402
H13 H 0.5325 0.8262 0.5158
C8 C 0.80452(19) 0.84549(13) 0.76126(16)
H14 H 0.8703 0.8042 0.8036
H15 H 0.7783 0.8687 0.8252
H16 H 0.8310 0.8943 0.7235
N3 N 0.59974(10) 0.54426(8) 0.73384(11)
N4 N 0.50391(10) 0.55959(8) 0.73247(11)
N5 N 0.41311(12) 0.57017(11) 0.73499(13)
N6 N 0.50239(10) 0.63107(7) 0.49644(11)
N7 N 0.48755(10) 0.66151(8) 0.39185(11)
N8 N 0.46588(12) 0.68934(11) 0.29013(13)
O5 O 0.77223(9) 0.45168(8) 0.94993(10)
H17 H 0.7111 0.4728 0.8866
C9 C 0.73348(18) 0.40645(13) 1.03607(19)
H18 H 0.6949 0.3510 0.9963
H19 H 0.6770 0.4436 1.0530
H20 H 0.8021 0.3939 1.1177
O6 O 1.05829(11) 0.68348(9) 1.03016(13)
H21 H 1.1191 0.6491 1.0602
C10 C 1.0832(2) 0.76686(13) 1.0931(2)
H22 H 1.0586 0.7664 1.1643
H23 H 1.0396 0.8130 1.0309
H24 H 1.1685 0.7787 1.1273
Na1 Na 0.90448(5) 0.58131(4) 0.99398(5)
O2B O 1.03711(8) 0.50697(7) 1.16893(9)
O4C O 0.78552(9) 0.69149(7) 0.99999(9)
Na1B Na 1.09552(5) 0.41869(4) 1.00602(5)
Na1C Na 0.90448(5) 0.91869(4) 0.49398(5)
loop_
_geom_bond_atom_site_label_1
_geom_bond_atom_site_label_2
_geom_bond_site_symmetry_1
_geom_bond_site_symmetry_2
Co1 O1 1_555 1_555
O1 C1 1_555 1_555
O2 C1 1_555 1_555
N1 Co1 1_555 1_555
H1 N1 1_555 1_555
H2 N1 1_555 1_555
C1 C2 1_555 1_555
C2 N1 1_555 1_555
C3 C2 1_555 1_555
H3 C3 1_555 1_555
H4 C3 1_555 1_555
H5 C3 1_555 1_555
C4 C2 1_555 1_555
H6 C4 1_555 1_555
H7 C4 1_555 1_555
H8 C4 1_555 1_555
O3 Co1 1_555 1_555
O4 C5 1_555 1_555
N2 Co1 1_555 1_555
H9 N2 1_555 1_555
H10 N2 1_555 1_555
C5 O3 1_555 1_555
C6 N2 1_555 1_555
C7 C6 1_555 1_555
H11 C7 1_555 1_555
H12 C7 1_555 1_555
H13 C7 1_555 1_555
C8 C6 1_555 1_555
H14 C8 1_555 1_555
H15 C8 1_555 1_555
H16 C8 1_555 1_555
N3 Co1 1_555 1_555
N4 N3 1_555 1_555
N5 N4 1_555 1_555
N6 Co1 1_555 1_555
N7 N6 1_555 1_555
N8 N7 1_555 1_555
O5 H17 1_555 1_555
C9 O5 1_555 1_555
H18 C9 1_555 1_555
H19 C9 1_555 1_555
H20 C9 1_555 1_555
O6 H21 1_555 1_555
C10 O6 1_555 1_555
H22 C10 1_555 1_555
H23 C10 1_555 1_555
H24 C10 1_555 1_555
Na1 O1 1_555 1_555
O2B Na1 1_555 1_555
O4C Na1 1_555 1_555
Na1B O2 1_555 1_555
Na1C O4 1_555 1_555
O2 Na1 1_555 1_555
C5 C6 1_555 1_555
O5 Na1 1_555 1_555
O6 Na1 1_555 1_555
O2B Na1B 1_555 1_555

#END
