
#######################################################################
#
#                 Cambridge Crystallographic Data Centre
#                                CCDC 
#
#######################################################################
#
# If this CIF has been generated from an entry in the Cambridge 
# Structural Database, then it will include bibliographic, chemical, 
# crystal, experimental, refinement or atomic coordinate data resulting 
# from the CCDC's data processing and validation procedures.
#
#######################################################################

data_QAWSOX
_symmetry_cell_setting           monoclinic
_symmetry_space_group_name_H-M   'P 21/c'
_symmetry_Int_Tables_number      14
_space_group_name_Hall           '-P 2ybc'
loop_
_symmetry_equiv_pos_site_id
_symmetry_equiv_pos_as_xyz
1 x,y,z
2 -x,1/2+y,1/2-z
3 -x,-y,-z
4 x,1/2-y,1/2+z
_cell_length_a                   15.4237(6)
_cell_length_b                   6.8772(2)
_cell_length_c                   15.6463(6)
_cell_angle_alpha                90.00
_cell_angle_beta                 109.4920(10)
_cell_angle_gamma                90.00
_cell_volume                     1564.52
loop_
_atom_site_label
_atom_site_type_symbol
_atom_site_fract_x
_atom_site_fract_y
_atom_site_fract_z
C1 C 0.24512(19) 0.8068(4) 0.21908(17)
C2 C 0.17642(14) 0.5110(3) 0.22271(14)
C3 C 0.20601(14) 0.5233(3) 0.31630(13)
C4 C 0.25532(15) 0.6881(4) 0.36078(15)
C5 C 0.12732(19) 0.2559(3) 0.26838(17)
C6 C 0.33125(16) 0.8885(4) 0.49543(16)
C7 C 0.42303(15) 0.8441(4) 0.56504(15)
C8 C 0.4898(2) 0.7454(4) 0.5406(2)
C9 C 0.5753(2) 0.7104(5) 0.6044(2)
C10 C 0.5961(2) 0.7766(4) 0.6928(2)
C11 C 0.5304(2) 0.8752(5) 0.71753(18)
C12 C 0.44395(18) 0.9091(4) 0.65384(17)
N1 N 0.27319(15) 0.8284(3) 0.30722(14)
N2 N 0.19823(14) 0.6524(3) 0.17329(13)
N3 N 0.28494(14) 0.7122(3) 0.44922(13)
N4 N 0.17447(13) 0.3547(3) 0.34329(13)
N5 N 0.12746(13) 0.3458(3) 0.19275(12)
Cl1 Cl 0.22989(4) 0.15132(8) 0.05453(3)
Cl2 Cl 0.01601(4) -0.07319(8) 0.11241(3)
Cl3 Cl -0.09161(3) 0.43186(8) 0.03592(3)
Cd1 Cd 0.059836(11) 0.24107(2) 0.042271(10)
H1 H 0.259(2) 0.909(5) 0.184(2)
H2 H 0.174(2) 0.661(5) 0.116(2)
H3 H 0.2692(19) 0.632(5) 0.4796(18)
H4 H 0.182(2) 0.333(6) 0.391(2)
H5 H 0.0976(19) 0.137(5) 0.2701(18)
H6 H 0.2921(19) 0.955(5) 0.5218(18)
H7 H 0.3403(18) 0.969(5) 0.4535(17)
H8 H 0.476(3) 0.694(6) 0.482(3)
H9 H 0.620(3) 0.640(7) 0.587(3)
H10 H 0.651(3) 0.751(5) 0.739(3)
H11 H 0.544(3) 0.933(7) 0.778(3)
H12 H 0.399(2) 0.982(5) 0.675(2)
Cl2B Cl -0.01601(4) 0.07319(8) -0.11241(3)
Cl3B Cl 0.09161(3) 0.56814(8) -0.03592(3)
Cd1B Cd -0.059836(11) -0.24107(2) -0.042271(10)
Cd1B_2 Cd -0.059836(11) 0.75893(2) -0.042271(10)
loop_
_geom_bond_atom_site_label_1
_geom_bond_atom_site_label_2
_geom_bond_site_symmetry_1
_geom_bond_site_symmetry_2
C1 N1 1_555 1_555
C2 C3 1_555 1_555
C3 C4 1_555 1_555
C4 N1 1_555 1_555
C5 N4 1_555 1_555
C6 C7 1_555 1_555
C7 C8 1_555 1_555
C8 C9 1_555 1_555
C9 C10 1_555 1_555
C10 C11 1_555 1_555
C11 C12 1_555 1_555
C12 C7 1_555 1_555
N2 C1 1_555 1_555
N3 C4 1_555 1_555
N4 C3 1_555 1_555
N5 C2 1_555 1_555
Cl1 Cd1 1_555 1_555
Cl2 Cd1 1_555 1_555
Cl3 Cd1 1_555 1_555
Cd1 N5 1_555 1_555
H1 C1 1_555 1_555
H2 N2 1_555 1_555
H3 N3 1_555 1_555
H4 N4 1_555 1_555
H5 C5 1_555 1_555
H6 C6 1_555 1_555
H7 C6 1_555 1_555
H8 C8 1_555 1_555
H9 C9 1_555 1_555
H10 C10 1_555 1_555
H11 C11 1_555 1_555
H12 C12 1_555 1_555
Cl2B Cd1 1_555 1_555
Cl3B Cd1 1_555 1_555
Cd1B Cl2 1_555 1_555
Cd1B_2 Cl3 1_555 1_555
C2 N2 1_555 1_555
C5 N5 1_555 1_555
C6 N3 1_555 1_555
Cl2B Cd1B 1_555 1_555
Cl3B Cd1B_2 1_555 1_555

#END
