
#######################################################################
#
#                 Cambridge Crystallographic Data Centre
#                                CCDC 
#
#######################################################################
#
# If this CIF has been generated from an entry in the Cambridge 
# Structural Database, then it will include bibliographic, chemical, 
# crystal, experimental, refinement or atomic coordinate data resulting 
# from the CCDC's data processing and validation procedures.
#
#######################################################################

data_QAWWAN
_symmetry_cell_setting           triclinic
_symmetry_space_group_name_H-M   'P -1'
_symmetry_Int_Tables_number      2
_space_group_name_Hall           '-P 1'
loop_
_symmetry_equiv_pos_site_id
_symmetry_equiv_pos_as_xyz
1 x,y,z
2 -x,-y,-z
_cell_length_a                   8.00120(10)
_cell_length_b                   14.1769(2)
_cell_length_c                   14.1819(2)
_cell_angle_alpha                108.0052(5)
_cell_angle_beta                 99.8834(5)
_cell_angle_gamma                97.6791(5)
_cell_volume                     1476.98
loop_
_atom_site_label
_atom_site_type_symbol
_atom_site_fract_x
_atom_site_fract_y
_atom_site_fract_z
Bi1 Bi 0.75141(2) -0.417020(14) 0.009620(14)
Br1 Br 0.54267(8) -0.60043(5) -0.12346(5)
Br2 Br 0.58209(9) -0.33168(6) -0.10535(5)
Br3 Br 1.01759(9) -0.41810(5) -0.08639(6)
S1 S 0.95610(19) -0.33867(11) 0.25101(11)
S2 S 0.95522(19) -0.20372(11) 0.12274(11)
S3 S 0.7592(3) 0.31480(13) 0.31437(16)
S4 S 0.6661(3) 0.39300(14) 0.52073(16)
S5 S 0.6091(2) 0.03585(14) 0.83750(12)
S6 S 0.7305(3) -0.16200(13) 0.76531(12)
C1 C 0.8016(6) -0.0938(4) 0.4293(4)
C2 C 0.8434(7) -0.1890(4) 0.3918(4)
H1 H 0.8397 -0.2316 0.4302
C3 C 0.8904(6) -0.2220(4) 0.2987(4)
C4 C 0.8920(7) -0.1584(4) 0.2397(4)
C5 C 0.8526(7) -0.0652(4) 0.2760(4)
H2 H 0.8557 -0.0235 0.2367
C6 C 0.8072(6) -0.0291(4) 0.3713(4)
C7 C 0.7699(6) 0.0716(4) 0.4099(4)
C8 C 0.7804(8) 0.1370(4) 0.3534(5)
H3 H 0.8103 0.1143 0.2908
C9 C 0.7481(7) 0.2330(4) 0.3869(5)
C10 C 0.7029(7) 0.2679(4) 0.4819(5)
C11 C 0.6893(7) 0.2034(4) 0.5377(4)
H4 H 0.6567 0.2261 0.5995
C12 C 0.7231(6) 0.1046(4) 0.5045(4)
C13 C 0.7145(6) 0.0377(4) 0.5644(4)
C14 C 0.6690(7) 0.0665(4) 0.6593(4)
H5 H 0.6374 0.1289 0.6828
C15 C 0.6695(7) 0.0054(4) 0.7190(4)
C16 C 0.7192(7) -0.0898(4) 0.6840(4)
C17 C 0.7579(7) -0.1200(4) 0.5903(4)
H6 H 0.7856 -0.1835 0.5662
C18 C 0.7574(6) -0.0585(4) 0.5285(4)
C19 C 0.8733(11) -0.4136(5) 0.3194(6)
H7 H 0.9042 -0.4788 0.2976
H8 H 0.7495 -0.4218 0.3065
H9 H 0.9216 -0.3805 0.3910
C20 C 0.9035(11) -0.1167(6) 0.0591(5)
H10 H 0.9343 -0.1364 -0.0057
H11 H 0.9669 -0.0498 0.0998
H12 H 0.7816 -0.1172 0.0492
C21 C 0.7655(11) 0.2317(6) 0.1932(6)
H13 H 0.7724 0.2691 0.1474
H14 H 0.6625 0.1799 0.1673
H15 H 0.8651 0.2012 0.1993
C22 C 0.6030(14) 0.4078(7) 0.6368(8)
H16 H 0.5808 0.4747 0.6638
H17 H 0.6941 0.3980 0.6844
H18 H 0.4999 0.3588 0.6255
C23 C 0.5780(10) 0.1615(6) 0.8630(6)
H19 H 0.5444 0.1843 0.9268
H20 H 0.4888 0.1641 0.8096
H21 H 0.6840 0.2044 0.8664
C24 C 0.7622(11) -0.2804(6) 0.6868(6)
H22 H 0.7699 -0.3255 0.7250
H23 H 0.8674 -0.2701 0.6641
H24 H 0.6664 -0.3092 0.6289
Bi1A Bi 0.24859(2) -0.582980(14) -0.009620(14)
Bi1A_2 Bi 1.24859(2) -0.582980(14) -0.009620(14)
Br1A Br 0.45733(8) -0.39957(5) 0.12346(5)
Br3A Br 0.98241(9) -0.58190(5) 0.08639(6)
loop_
_geom_bond_atom_site_label_1
_geom_bond_atom_site_label_2
_geom_bond_site_symmetry_1
_geom_bond_site_symmetry_2
Bi1 Br1 1_555 1_555
Br1 Bi1A 1_555 1_555
Br2 Bi1 1_555 1_555
Br3 Bi1 1_555 1_555
S1 Bi1 1_555 1_555
S2 Bi1 1_555 1_555
S3 C9 1_555 1_555
S4 C10 1_555 1_555
S5 C15 1_555 1_555
S6 C16 1_555 1_555
C1 C2 1_555 1_555
C2 H1 1_555 1_555
C3 S1 1_555 1_555
C4 S2 1_555 1_555
C5 C4 1_555 1_555
H2 C5 1_555 1_555
C6 C1 1_555 1_555
C7 C6 1_555 1_555
C8 C7 1_555 1_555
H3 C8 1_555 1_555
C9 C8 1_555 1_555
C10 C9 1_555 1_555
C11 C10 1_555 1_555
H4 C11 1_555 1_555
C12 C7 1_555 1_555
C13 C12 1_555 1_555
C14 C13 1_555 1_555
H5 C14 1_555 1_555
C15 C14 1_555 1_555
C16 C15 1_555 1_555
C17 C16 1_555 1_555
H6 C17 1_555 1_555
C18 C1 1_555 1_555
C19 S1 1_555 1_555
H7 C19 1_555 1_555
H8 C19 1_555 1_555
H9 C19 1_555 1_555
C20 S2 1_555 1_555
H10 C20 1_555 1_555
H11 C20 1_555 1_555
H12 C20 1_555 1_555
C21 S3 1_555 1_555
H13 C21 1_555 1_555
H14 C21 1_555 1_555
H15 C21 1_555 1_555
C22 S4 1_555 1_555
H16 C22 1_555 1_555
H17 C22 1_555 1_555
H18 C22 1_555 1_555
C23 S5 1_555 1_555
H19 C23 1_555 1_555
H20 C23 1_555 1_555
H21 C23 1_555 1_555
C24 S6 1_555 1_555
H22 C24 1_555 1_555
H23 C24 1_555 1_555
H24 C24 1_555 1_555
Bi1A Br1A 1_555 1_555
Bi1A_2 Br3 1_555 1_555
Br1A Bi1 1_555 1_555
Br3A Bi1 1_555 1_555
C2 C3 1_555 1_555
C3 C4 1_555 1_555
C5 C6 1_555 1_555
C11 C12 1_555 1_555
C13 C18 1_555 1_555
C17 C18 1_555 1_555
Bi1A_2 Br3A 1_555 1_555

#END
