
#######################################################################
#
#                 Cambridge Crystallographic Data Centre
#                                CCDC 
#
#######################################################################
#
# If this CIF has been generated from an entry in the Cambridge 
# Structural Database, then it will include bibliographic, chemical, 
# crystal, experimental, refinement or atomic coordinate data resulting 
# from the CCDC's data processing and validation procedures.
#
#######################################################################

data_QAWYUJ
_symmetry_cell_setting           triclinic
_symmetry_space_group_name_H-M   'P -1'
_symmetry_Int_Tables_number      2
_space_group_name_Hall           '-P 1'
loop_
_symmetry_equiv_pos_site_id
_symmetry_equiv_pos_as_xyz
1 x,y,z
2 -x,-y,-z
_cell_length_a                   9.4174(12)
_cell_length_b                   10.0025(13)
_cell_length_c                   11.4460(15)
_cell_angle_alpha                94.035(2)
_cell_angle_beta                 108.040(2)
_cell_angle_gamma                114.221(2)
_cell_volume                     910.384
loop_
_atom_site_label
_atom_site_type_symbol
_atom_site_fract_x
_atom_site_fract_y
_atom_site_fract_z
O5 O 0.8346(9) 0.4809(7) 0.6729(5)
H11 H 0.7869 0.4154 0.7095
H12 H 0.9048 0.5615 0.7292
Cu1 Cu 0.50189(7) 0.16532(7) 0.97158(5)
Br1 Br -0.1077(3) -0.1566(2) 0.71388(19)
Br2 Br 0.1552(3) -0.0504(3) 0.5417(2)
O1 O 0.3362(5) -0.0834(4) 0.9866(4)
O2 O 0.0997(6) -0.2920(5) 0.8914(5)
O3 O 0.4408(5) 0.0833(5) 0.7929(4)
O4 O 0.6711(7) 0.2731(6) 0.7980(5)
N1 N 0.3486(6) 0.2612(5) 0.9285(5)
N2 N 0.5542(6) 0.2726(5) 1.1469(4)
C1 C 0.2447(8) 0.2482(7) 0.8112(6)
H1 H 0.2407 0.1893 0.7425
C2 C 0.1450(8) 0.3199(8) 0.7910(7)
H2 H 0.0756 0.3117 0.7099
C3 C 0.1512(9) 0.4063(8) 0.8971(8)
H3 H 0.0853 0.4561 0.8865
C4 C 0.2526(8) 0.4164(7) 1.0135(8)
H4 H 0.2566 0.4726 1.0838
C5 C 0.3503(7) 0.3429(6) 1.0277(6)
C6 C 0.4664(7) 0.3489(6) 1.1500(6)
C7 C 0.4898(10) 0.4281(8) 1.2663(7)
H5 H 0.4277 0.4796 1.2691
C8 C 0.6023(12) 0.4294(9) 1.3737(7)
H6 H 0.6193 0.4830 1.4506
C9 C 0.6937(11) 0.3501(8) 1.3694(6)
H7 H 0.7728 0.3505 1.4425
C10 C 0.6621(8) 0.2703(7) 1.2519(6)
H8 H 0.7187 0.2139 1.2472
C11 C 0.1772(7) -0.1603(6) 0.9454(6)
C12 C 0.0867(6) -0.0751(6) 0.9717(5)
C13 C -0.0504(7) -0.0759(7) 0.8770(6)
C14 C -0.1355(7) -0.0015(6) 0.9053(6)
H9 H -0.2261 -0.0027 0.8416
C15 C 0.5477(8) 0.1534(6) 0.7462(5)
C16 C 0.5167(8) 0.0712(6) 0.6163(6)
C17 C 0.3612(8) -0.0171(7) 0.5272(6)
C18 C 0.3420(9) -0.0885(7) 0.4095(6)
H10 H 0.2353 -0.1472 0.3486
Cu1A Cu -0.50189(7) -0.16532(7) 1.02842(5)
Cu1A_2 Cu 0.49811(7) -0.16532(7) 1.02842(5)
Cu1_2 Cu -0.49811(7) 0.16532(7) 0.97158(5)
Cu1A_3 Cu 0.49811(7) -0.16532(7) 0.02842(5)
Br1A Br 0.1077(3) 0.1566(2) 1.28612(19)
Br2A Br 0.8448(3) 0.0504(3) 0.4583(2)
O1A O -0.3362(5) 0.0834(4) 1.0134(4)
O1A_2 O 0.6638(5) 0.0834(4) 1.0134(4)
O1_2 O -0.6638(5) -0.0834(4) 0.9866(4)
O2A O -0.0997(6) 0.2920(5) 1.1086(5)
O3A O 0.5592(5) -0.0833(5) 0.2071(4)
O3A_2 O -0.4408(5) -0.0833(5) 1.2071(4)
O4A O 0.3289(7) -0.2731(6) 0.2020(5)
N1A N -0.3486(6) -0.2612(5) 1.0715(5)
N2A N -0.5542(6) -0.2726(5) 0.8531(4)
C1A C -0.2447(8) -0.2482(7) 1.1888(6)
H1A H -0.2407 -0.1893 1.2575
C2A C -0.1450(8) -0.3199(8) 1.2090(7)
H2A H -0.0756 -0.3117 1.2901
C3A C -0.1512(9) -0.4063(8) 1.1029(8)
H3A H -0.0853 -0.4561 1.1135
C4A C -0.2526(8) -0.4164(7) 0.9865(8)
H4A H -0.2566 -0.4726 0.9162
C5A C -0.3503(7) -0.3429(6) 0.9723(6)
C6A C -0.4664(7) -0.3489(6) 0.8500(6)
C7A C -0.4898(10) -0.4281(8) 0.7337(7)
H5A H -0.4277 -0.4796 0.7309
C8A C -0.6023(12) -0.4294(9) 0.6263(7)
H6A H -0.6193 -0.4830 0.5494
C9A C -0.6937(11) -0.3501(8) 0.6306(6)
H7A H -0.7728 -0.3505 0.5575
C10A C -0.6621(8) -0.2703(7) 0.7481(6)
H8A H -0.7187 -0.2139 0.7528
C11A C -0.1772(7) 0.1603(6) 1.0546(6)
C12A C -0.0867(6) 0.0751(6) 1.0283(5)
C13A C 0.0504(7) 0.0759(7) 1.1230(6)
C14A C 0.1355(7) 0.0015(6) 1.0947(6)
H9A H 0.2261 0.0027 1.1584
C15A C 0.4523(8) -0.1534(6) 0.2538(5)
C16A C 0.4833(8) -0.0712(6) 0.3837(6)
C17A C 0.6388(8) 0.0171(7) 0.4728(6)
C18A C 0.6580(9) 0.0885(7) 0.5905(6)
H10A H 0.7647 0.1472 0.6514
loop_
_geom_bond_atom_site_label_1
_geom_bond_atom_site_label_2
_geom_bond_site_symmetry_1
_geom_bond_site_symmetry_2
Cu1 O1 1_555 1_555
Br1 C13 1_555 1_555
Br2 C17 1_555 1_555
O1 C11 1_555 1_555
O2 C11 1_555 1_555
O3 Cu1 1_555 1_555
O4 C15 1_555 1_555
O5 H11 1_555 1_555
N1 Cu1 1_555 1_555
N2 Cu1 1_555 1_555
C1 N1 1_555 1_555
H1 C1 1_555 1_555
C2 C1 1_555 1_555
H2 C2 1_555 1_555
C3 C2 1_555 1_555
H3 C3 1_555 1_555
C4 C3 1_555 1_555
H4 C4 1_555 1_555
C5 N1 1_555 1_555
C6 N2 1_555 1_555
C7 C6 1_555 1_555
H5 C7 1_555 1_555
C8 C7 1_555 1_555
H6 C8 1_555 1_555
C9 C8 1_555 1_555
H7 C9 1_555 1_555
C10 N2 1_555 1_555
H8 C10 1_555 1_555
C11 C12 1_555 1_555
C12 C13 1_555 1_555
C13 C14 1_555 1_555
C14 H9 1_555 1_555
C15 O3 1_555 1_555
C16 C15 1_555 1_555
C17 C16 1_555 1_555
C18 C17 1_555 1_555
H10 C18 1_555 1_555
H12 O5 1_555 1_555
Cu1A O1A 1_555 1_555
Cu1A_2 O1 1_555 1_555
Cu1_2 O1A 1_555 1_555
Cu1A_3 O3A 1_555 1_555
Br1A C13A 1_555 1_555
Br2A C17A 1_555 1_555
O1A C11A 1_555 1_555
O1A_2 Cu1 1_555 1_555
O1_2 Cu1A 1_555 1_555
O2A C11A 1_555 1_555
O3A C15A 1_555 1_555
O3A_2 Cu1A 1_555 1_555
O4A C15A 1_555 1_555
N1A Cu1A 1_555 1_555
N2A Cu1A 1_555 1_555
C1A N1A 1_555 1_555
H1A C1A 1_555 1_555
C2A C1A 1_555 1_555
H2A C2A 1_555 1_555
C3A C2A 1_555 1_555
H3A C3A 1_555 1_555
C4A C3A 1_555 1_555
H4A C4A 1_555 1_555
C5A N1A 1_555 1_555
C6A N2A 1_555 1_555
C7A C6A 1_555 1_555
H5A C7A 1_555 1_555
C8A C7A 1_555 1_555
H6A C8A 1_555 1_555
C9A C8A 1_555 1_555
H7A C9A 1_555 1_555
C10A N2A 1_555 1_555
H8A C10A 1_555 1_555
C11A C12A 1_555 1_555
C12A C14 1_555 1_555
C13A C12A 1_555 1_555
C14A C12 1_555 1_555
H9A C14A 1_555 1_555
C15A C16A 1_555 1_555
C16A C18 1_555 1_555
C17A C16A 1_555 1_555
C18A C16 1_555 1_555
H10A C18A 1_555 1_555
C4 C5 1_555 1_555
C5 C6 1_555 1_555
C9 C10 1_555 1_555
Cu1A_2 O1A_2 1_555 1_555
Cu1_2 O1_2 1_555 1_555
C4A C5A 1_555 1_555
C5A C6A 1_555 1_555
C9A C10A 1_555 1_555
C13A C14A 1_555 1_555
C17A C18A 1_555 1_555

#END
