
#######################################################################
#
#                 Cambridge Crystallographic Data Centre
#                                CCDC 
#
#######################################################################
#
# If this CIF has been generated from an entry in the Cambridge 
# Structural Database, then it will include bibliographic, chemical, 
# crystal, experimental, refinement or atomic coordinate data resulting 
# from the CCDC's data processing and validation procedures.
#
#######################################################################

data_QAXBOH
_symmetry_cell_setting           monoclinic
_symmetry_space_group_name_H-M   'P 21/c'
_symmetry_Int_Tables_number      14
_space_group_name_Hall           '-P 2ybc'
loop_
_symmetry_equiv_pos_site_id
_symmetry_equiv_pos_as_xyz
1 x,y,z
2 -x,1/2+y,1/2-z
3 -x,-y,-z
4 x,1/2-y,1/2+z
_cell_length_a                   7.5756(4)
_cell_length_b                   5.4207(2)
_cell_length_c                   12.5711(6)
_cell_angle_alpha                90
_cell_angle_beta                 117.506(3)
_cell_angle_gamma                90
_cell_volume                     457.879
loop_
_atom_site_label
_atom_site_type_symbol
_atom_site_fract_x
_atom_site_fract_y
_atom_site_fract_z
Ag1 Ag 0.64709(26) 0.73684(41) 0.55315(14)
N1 N 0.721590 0.869660 0.730510
C1 C 0.657420 0.774260 0.805720
H1 H 0.598260 0.615130 0.790880
N2 N 0.677310 0.905000 0.902030
C2 C 0.761370 1.131140 0.923130
C3 C 0.825540 1.226540 0.847920
H2 H 0.884700 1.385670 0.862760
C4 C 0.805650 1.095800 0.751610
H3 H 0.852060 1.167370 0.7003
O1 O 0.779810 1.252170 1.012190
Ag1B Ag 0.35291(26) 0.26316(41) 0.44685(14)
Ag1B_2 Ag 0.35291(26) 1.26316(41) 0.44685(14)
Ag1C Ag 0.64709(26) 0.76316(41) 1.05315(14)
N2C N 0.677310 0.595000 0.402030
loop_
_geom_bond_atom_site_label_1
_geom_bond_atom_site_label_2
_geom_bond_site_symmetry_1
_geom_bond_site_symmetry_2
Ag1 N1 1_555 1_555
N1 C1 1_555 1_555
C1 H1 1_555 1_555
N2 C1 1_555 1_555
C2 N2 1_555 1_555
C3 C2 1_555 1_555
H2 C3 1_555 1_555
C4 N1 1_555 1_555
H3 C4 1_555 1_555
O1 C2 1_555 1_555
Ag1B Ag1 1_555 1_555
Ag1B_2 Ag1 1_555 1_555
Ag1C N2 1_555 1_555
N2C Ag1 1_555 1_555
C3 C4 1_555 1_555

#END
