
#######################################################################
#
#                 Cambridge Crystallographic Data Centre
#                                CCDC 
#
#######################################################################
#
# If this CIF has been generated from an entry in the Cambridge 
# Structural Database, then it will include bibliographic, chemical, 
# crystal, experimental, refinement or atomic coordinate data resulting 
# from the CCDC's data processing and validation procedures.
#
#######################################################################

data_QAXBIB
_symmetry_cell_setting           orthorhombic
_symmetry_space_group_name_H-M   'P c a n'
_symmetry_Int_Tables_number      60
_space_group_name_Hall           '-P 2n 2c'
loop_
_symmetry_equiv_pos_site_id
_symmetry_equiv_pos_as_xyz
1 x,y,z
2 1/2-x,1/2-y,1/2+z
3 x,-y,1/2-z
4 1/2-x,1/2+y,-z
5 -x,-y,-z
6 1/2+x,1/2+y,1/2-z
7 -x,y,1/2+z
8 1/2+x,1/2-y,z
_cell_length_a                   7.1981(7)
_cell_length_b                   11.9620(12)
_cell_length_c                   17.4481(18)
_cell_angle_alpha                90
_cell_angle_beta                 90
_cell_angle_gamma                90
_cell_volume                     1502.35
loop_
_atom_site_label
_atom_site_type_symbol
_atom_site_fract_x
_atom_site_fract_y
_atom_site_fract_z
Ag1 Ag 0.24790(12) -0.52809(5) 0.52302(4)
N1 N 0.3562(9) -0.3688(5) 0.5581(4)
C1 C 0.3180(11) -0.2779(6) 0.5176(4)
H1 H 0.2648 -0.2889 0.4696
N2 N 0.3477(9) -0.1725(5) 0.5386(4)
C2 C 0.0797(10) 0.3483(6) 0.3915(4)
C3 C 0.0335(10) 0.2547(6) 0.3452(4)
H2 H -0.0182 0.2650 0.2968
O1 O 0.0521(9) 0.4491(4) 0.3714(3)
C4 C 0.4347(12) -0.3493(6) 0.6280(4)
H3 H 0.4677 -0.4101 0.6583
Ag1C Ag 0.25210(12) -0.02809(5) 0.47698(4)
Ag1_2 Ag 0.24790(12) 0.47191(5) 0.52302(4)
N1C N 0.1438(9) 0.1312(5) 0.4419(4)
C1C C 0.1820(11) 0.2221(6) 0.4824(4)
H1C H 0.2352 0.2111 0.5304
N2C N 0.1523(9) -0.6725(5) 0.4614(4)
N2C_2 N 0.1523(9) 0.3275(5) 0.4614(4)
C2C C 0.4203(10) -0.1517(6) 0.6085(4)
C3C C 0.4665(10) -0.2453(6) 0.6548(4)
H2C H 0.5182 -0.2350 0.7032
O1C O 0.4479(9) -0.0509(4) 0.6286(3)
C4C C 0.0653(12) 0.1507(6) 0.3720(4)
H3C H 0.0323 0.0899 0.3417
O2 O 0.1609(12) -0.5000 0.7500
O3 O 0.1460(11) -0.1482(6) 0.3457(4)
O4 O 0.2710(13) -0.3662(7) 0.3270(5)
loop_
_geom_bond_atom_site_label_1
_geom_bond_atom_site_label_2
_geom_bond_site_symmetry_1
_geom_bond_site_symmetry_2
Ag1 N1 1_555 1_555
N1 C1 1_555 1_555
C1 H1 1_555 1_555
N2 C1 1_555 1_555
C2 C3 1_555 1_555
C3 H2 1_555 1_555
O1 C2 1_555 1_555
C4 N1 1_555 1_555
H3 C4 1_555 1_555
Ag1C N2 1_555 1_555
Ag1_2 N2C_2 1_555 1_555
N1C Ag1C 1_555 1_555
C1C N1C 1_555 1_555
H1C C1C 1_555 1_555
N2C Ag1 1_555 1_555
N2C_2 C2 1_555 1_555
C2C N2 1_555 1_555
C3C C4 1_555 1_555
H2C C3C 1_555 1_555
O1C C2C 1_555 1_555
C4C C3 1_555 1_555
H3C C4C 1_555 1_555
N1C C4C 1_555 1_555
C1C N2C_2 1_555 1_555
C2C C3C 1_555 1_555

#END
