
#######################################################################
#
#                 Cambridge Crystallographic Data Centre
#                                CCDC 
#
#######################################################################
#
# If this CIF has been generated from an entry in the Cambridge 
# Structural Database, then it will include bibliographic, chemical, 
# crystal, experimental, refinement or atomic coordinate data resulting 
# from the CCDC's data processing and validation procedures.
#
#######################################################################

data_QAXCIC
_symmetry_cell_setting           monoclinic
_symmetry_space_group_name_H-M   'P 21/c'
_symmetry_Int_Tables_number      14
_space_group_name_Hall           '-P 2ybc'
loop_
_symmetry_equiv_pos_site_id
_symmetry_equiv_pos_as_xyz
1 x,y,z
2 -x,1/2+y,1/2-z
3 -x,-y,-z
4 x,1/2-y,1/2+z
_cell_length_a                   9.875(2)
_cell_length_b                   11.268(2)
_cell_length_c                   9.7207(19)
_cell_angle_alpha                90
_cell_angle_beta                 108.75(3)
_cell_angle_gamma                90
_cell_volume                     1024.23
loop_
_atom_site_label
_atom_site_type_symbol
_atom_site_fract_x
_atom_site_fract_y
_atom_site_fract_z
Co1 Co 0.0000 0.0000 0.0000
N1 N 0.0712(3) 0.1728(2) 0.0472(3)
O1 O 0.2049(2) -0.0660(2) 0.1022(2)
C1 C 0.0999(3) 0.2714(3) 0.0733(3)
C2 C 0.1340(3) 0.3911(3) 0.1049(3)
O2 O 0.2484(3) 0.5616(2) 0.0521(3)
N2 N 0.0461(3) 0.4820(2) 0.3020(3)
C3 C 0.2740(3) 0.3831(3) -0.0592(3)
C4 C 0.2171(4) 0.4569(3) 0.0360(3)
C5 C 0.0859(3) 0.4450(3) 0.2126(3)
N3 N 0.3232(4) 0.3309(3) -0.1331(4)
C6 C 0.2403(4) -0.1669(3) 0.2021(4)
H1 H 0.1867 -0.2383 0.1552
H2 H 0.2152 -0.1491 0.2907
C7 C 0.3973(4) -0.1873(4) 0.2400(5)
H3 H 0.4423 -0.1935 0.3466
H4 H 0.4162 -0.2614 0.1947
C8 C 0.3325(4) -0.0263(4) 0.0732(5)
H5 H 0.3407 0.0612 0.0810
H6 H 0.3293 -0.0500 -0.0258
C9 C 0.4549(5) -0.0828(5) 0.1827(7)
H7 H 0.5006 -0.0264 0.2621
H8 H 0.5270 -0.1086 0.1379
Co1C Co 0.0000 0.5000 0.5000
Co1C_2 Co 0.0000 -0.5000 0.5000
N1A N -0.0712(3) -0.3272(2) 0.4528(3)
N1B N -0.0712(3) -0.1728(2) -0.0472(3)
O1B O -0.2049(2) 0.0660(2) -0.1022(2)
C1A C -0.0999(3) -0.2286(3) 0.4267(3)
C2A C -0.1340(3) -0.1089(3) 0.3951(3)
O2A O -0.2484(3) 0.0616(2) 0.4479(3)
N2C N 0.0461(3) 0.0180(2) -0.1980(3)
N2A N -0.0461(3) -0.0180(2) 0.1980(3)
C3A C -0.2740(3) -0.1169(3) 0.5592(3)
C4A C -0.2171(4) -0.0431(3) 0.4640(3)
C5A C -0.0859(3) -0.0550(3) 0.2874(3)
N3A N -0.3232(4) -0.1691(3) 0.6331(4)
C6B C -0.2403(4) 0.1669(3) -0.2021(4)
H1B H -0.1867 0.2383 -0.1552
H2B H -0.2152 0.1491 -0.2907
C7B C -0.3973(4) 0.1873(4) -0.2400(5)
H3B H -0.4423 0.1935 -0.3466
H4B H -0.4162 0.2614 -0.1947
C8B C -0.3325(4) 0.0263(4) -0.0732(5)
H5B H -0.3407 -0.0612 -0.0810
H6B H -0.3293 0.0500 0.0258
C9B C -0.4549(5) 0.0828(5) -0.1827(7)
H7B H -0.5006 0.0264 -0.2621
H8B H -0.5270 0.1086 -0.1379
loop_
_geom_bond_atom_site_label_1
_geom_bond_atom_site_label_2
_geom_bond_site_symmetry_1
_geom_bond_site_symmetry_2
Co1 N1 1_555 1_555
N1 C1 1_555 1_555
O1 Co1 1_555 1_555
C1 C2 1_555 1_555
C2 C4 1_555 1_555
O2 C4 1_555 1_555
N2 C5 1_555 1_555
C3 C4 1_555 1_555
C5 C2 1_555 1_555
N3 C3 1_555 1_555
C6 O1 1_555 1_555
H1 C6 1_555 1_555
H2 C6 1_555 1_555
C7 C6 1_555 1_555
H3 C7 1_555 1_555
H4 C7 1_555 1_555
C8 O1 1_555 1_555
H5 C8 1_555 1_555
H6 C8 1_555 1_555
C9 C7 1_555 1_555
H7 C9 1_555 1_555
H8 C9 1_555 1_555
Co1C N2 1_555 1_555
Co1C_2 N1A 1_555 1_555
N1A C1A 1_555 1_555
N1B Co1 1_555 1_555
O1B Co1 1_555 1_555
C1A C2A 1_555 1_555
C2A C4A 1_555 1_555
O2A C4A 1_555 1_555
N2C Co1 1_555 1_555
N2A Co1 1_555 1_555
C3A C4A 1_555 1_555
C5A C2A 1_555 1_555
N3A C3A 1_555 1_555
C6B O1B 1_555 1_555
H1B C6B 1_555 1_555
H2B C6B 1_555 1_555
C7B C6B 1_555 1_555
H3B C7B 1_555 1_555
H4B C7B 1_555 1_555
C8B O1B 1_555 1_555
H5B C8B 1_555 1_555
H6B C8B 1_555 1_555
C9B C7B 1_555 1_555
H7B C9B 1_555 1_555
H8B C9B 1_555 1_555
C8 C9 1_555 1_555
N2A C5A 1_555 1_555
C8B C9B 1_555 1_555

#END
