
#######################################################################
#
#                 Cambridge Crystallographic Data Centre
#                                CCDC 
#
#######################################################################
#
# If this CIF has been generated from an entry in the Cambridge 
# Structural Database, then it will include bibliographic, chemical, 
# crystal, experimental, refinement or atomic coordinate data resulting 
# from the CCDC's data processing and validation procedures.
#
#######################################################################

data_QAXCEY
_symmetry_cell_setting           monoclinic
_symmetry_space_group_name_H-M   'P 21/n'
_symmetry_Int_Tables_number      14
_space_group_name_Hall           '-P 2yn'
loop_
_symmetry_equiv_pos_site_id
_symmetry_equiv_pos_as_xyz
1 x,y,z
2 1/2-x,1/2+y,1/2-z
3 -x,-y,-z
4 1/2+x,1/2-y,1/2+z
_cell_length_a                   7.9970(16)
_cell_length_b                   8.9870(18)
_cell_length_c                   11.758(2)
_cell_angle_alpha                90
_cell_angle_beta                 102.06(3)
_cell_angle_gamma                90
_cell_volume                     826.386
loop_
_atom_site_label
_atom_site_type_symbol
_atom_site_fract_x
_atom_site_fract_y
_atom_site_fract_z
Fe1 Fe 0.0000 0.5000 0.0000
O1 O 0.20936(16) 0.56298(14) 0.57075(10)
C1 C 0.19345(19) 0.46042(17) 0.27146(15)
C2 C 0.34226(19) 0.33273(18) 0.44406(13)
N1 N 0.14883(17) 0.46649(15) 0.17192(13)
N2 N 0.41992(18) 0.22973(15) 0.48199(12)
C3 C 0.1828(2) 0.56136(18) 0.46487(15)
C4 C 0.30189(19) 0.40992(18) -0.13608(15)
C5 C 0.24348(19) 0.45553(17) 0.39324(14)
N3 N -0.0128(2) 0.77277(19) 0.35227(16)
C6 C 0.0723(2) 0.68057(19) 0.39930(15)
N4 N 0.20851(17) 0.44826(16) -0.08124(13)
C7 C 0.4204(2) 0.3591(2) -0.20595(16)
H1 H 0.5380 0.3740 -0.1628
H2 H 0.4019 0.4158 -0.2787
H3 H 0.4012 0.2531 -0.2235
Fe1C Fe 0.5000 0.0000 0.5000
Fe1C_2 Fe 0.5000 1.0000 0.5000
O1A O 0.29064(16) 1.06298(14) -0.07075(10)
C1A C 0.30655(19) 0.96042(17) 0.22854(15)
C2A C 0.15774(19) 0.83273(18) 0.05594(13)
N1A N 0.35117(17) 0.96649(15) 0.32808(13)
N1B N -0.14883(17) 0.53351(15) -0.17192(13)
N2C N -0.08008(18) 0.27027(15) -0.01801(12)
N2A N 0.08008(18) 0.72973(15) 0.01801(12)
C3A C 0.3172(2) 1.06136(18) 0.03513(15)
C4B C -0.30189(19) 0.59008(18) 0.13608(15)
C5A C 0.25652(19) 0.95553(17) 0.10676(14)
N3A N 0.5128(2) 1.27277(19) 0.14773(16)
C6A C 0.4277(2) 1.18057(19) 0.10070(15)
N4B N -0.20851(17) 0.55174(16) 0.08124(13)
C7B C -0.4204(2) 0.6409(2) 0.20595(16)
H1B H -0.5380 0.6260 0.1628
H2B H -0.4019 0.5842 0.2787
H3B H -0.4012 0.7469 0.2235
loop_
_geom_bond_atom_site_label_1
_geom_bond_atom_site_label_2
_geom_bond_site_symmetry_1
_geom_bond_site_symmetry_2
Fe1 N1 1_555 1_555
O1 C3 1_555 1_555
C1 N1 1_555 1_555
C2 N2 1_555 1_555
N2 Fe1C 1_555 1_555
C3 C5 1_555 1_555
C4 N4 1_555 1_555
C5 C1 1_555 1_555
N3 C6 1_555 1_555
C6 C3 1_555 1_555
N4 Fe1 1_555 1_555
C7 C4 1_555 1_555
H1 C7 1_555 1_555
H2 C7 1_555 1_555
H3 C7 1_555 1_555
Fe1C_2 N1A 1_555 1_555
O1A C3A 1_555 1_555
C1A N1A 1_555 1_555
C2A N2A 1_555 1_555
N1B Fe1 1_555 1_555
N2C Fe1 1_555 1_555
N2A Fe1 1_555 1_555
C3A C5A 1_555 1_555
C4B N4B 1_555 1_555
C5A C1A 1_555 1_555
N3A C6A 1_555 1_555
C6A C3A 1_555 1_555
N4B Fe1 1_555 1_555
C7B C4B 1_555 1_555
H1B C7B 1_555 1_555
H2B C7B 1_555 1_555
H3B C7B 1_555 1_555
C2 C5 1_555 1_555
C2A C5A 1_555 1_555

#END
