
#######################################################################
#
#                 Cambridge Crystallographic Data Centre
#                                CCDC 
#
#######################################################################
#
# If this CIF has been generated from an entry in the Cambridge 
# Structural Database, then it will include bibliographic, chemical, 
# crystal, experimental, refinement or atomic coordinate data resulting 
# from the CCDC's data processing and validation procedures.
#
#######################################################################

data_QAXDUQ
_symmetry_cell_setting           orthorhombic
_symmetry_space_group_name_H-M   'P b c a'
_symmetry_Int_Tables_number      61
_space_group_name_Hall           '-P 2ac 2ab'
loop_
_symmetry_equiv_pos_site_id
_symmetry_equiv_pos_as_xyz
1 x,y,z
2 1/2+x,1/2-y,-z
3 -x,1/2+y,1/2-z
4 1/2-x,-y,1/2+z
5 -x,-y,-z
6 1/2-x,1/2+y,z
7 x,1/2-y,1/2+z
8 1/2+x,y,1/2-z
_cell_length_a                   6.8371(3)
_cell_length_b                   17.1234(7)
_cell_length_c                   29.0604(12)
_cell_angle_alpha                90
_cell_angle_beta                 90
_cell_angle_gamma                90
_cell_volume                     3402.23
loop_
_atom_site_label
_atom_site_type_symbol
_atom_site_fract_x
_atom_site_fract_y
_atom_site_fract_z
Ag1 Ag 0.49841(6) 0.021942(10) 0.247455(8)
Cu1 Cu 0.25065(6) -0.222605(15) 0.161417(10)
C1 C 0.4605(5) -0.27074(17) 0.07828(10)
C2 C 0.6315(6) -0.2673(2) 0.05086(12)
C3 C 0.6589(7) -0.3195(3) 0.01494(13)
C4 C 0.5210(8) -0.3760(3) 0.00503(14)
C5 C 0.3549(7) -0.3794(2) 0.03073(13)
C6 C 0.3196(5) -0.32821(18) 0.06762(11)
C7 C 0.1387(5) -0.33653(18) 0.09240(11)
C8 C -0.0924(5) -0.31612(18) 0.15226(11)
C9 C -0.1630(4) -0.24091(19) 0.17373(12)
C11 C 0.4236(4) -0.07750(17) 0.21096(11)
C12 C 0.4182(4) -0.37292(15) 0.22383(10)
N1 N 0.0918(4) -0.29939(13) 0.12859(8)
N2 N 0.0033(4) -0.20462(14) 0.19813(8)
N3 N 0.3763(4) -0.13178(13) 0.19142(9)
N4 N 0.3767(4) -0.31419(13) 0.20836(8)
O1 O 0.4392(3) -0.21943(12) 0.11178(7)
H1 H 0.7246 -0.2280 0.0578
H2 H 0.7716 -0.3182 -0.0024
H3 H 0.5413 -0.4106 -0.0191
H4 H 0.2608 -0.4164 0.0240
H5 H 0.0494 -0.3727 0.0809
H6 H -0.0714 -0.3556 0.1762
H7 H -0.1877 -0.3369 0.1300
H8 H -0.2672 -0.2517 0.1967
H9 H -0.2021 -0.2028 0.1488
H10 H -0.0176 -0.1525 0.1999
H12 H 0.0165 -0.2239 0.2258
Ag1B Ag 0.50159(6) -0.478058(10) 0.252545(8)
C12B C 0.5818(4) 0.12708(15) 0.27617(10)
C10 C 0.5287(7) -0.0071(3) 0.36855(14)
O2 O 0.3994(4) -0.03974(15) 0.33609(9)
H11 H 0.6424 0.0109 0.3532
H13 H 0.3134 -0.0610 0.3517
H14 H 0.4666 0.0355 0.3837
H15 H 0.5620 -0.0465 0.3906
C13 C 0.9545(8) 0.4575(3) 0.0679(2)
O3 O 0.8682(6) 0.4143(2) 0.09890(12)
H16 H 0.8758 0.4969 0.0587
H17 H 0.9265 0.3676 0.1035
H18 H 1.0658 0.4778 0.0793
H19 H 0.9824 0.4272 0.0435
loop_
_geom_bond_atom_site_label_1
_geom_bond_atom_site_label_2
_geom_bond_site_symmetry_1
_geom_bond_site_symmetry_2
Ag1 C11 1_555 1_555
Cu1 N1 1_555 1_555
C1 C2 1_555 1_555
C2 C3 1_555 1_555
C3 C4 1_555 1_555
C4 C5 1_555 1_555
C5 C6 1_555 1_555
C6 C1 1_555 1_555
C7 C6 1_555 1_555
C8 C9 1_555 1_555
C9 N2 1_555 1_555
C10 O2 1_555 1_555
C11 N3 1_555 1_555
C12 N4 1_555 1_555
C13 O3 1_555 1_555
N1 C7 1_555 1_555
N2 Cu1 1_555 1_555
N3 Cu1 1_555 1_555
N4 Cu1 1_555 1_555
O1 Cu1 1_555 1_555
O2 H13 1_555 1_555
O3 H17 1_555 1_555
H1 C2 1_555 1_555
H2 C3 1_555 1_555
H3 C4 1_555 1_555
H4 C5 1_555 1_555
H5 C7 1_555 1_555
H6 C8 1_555 1_555
H7 C8 1_555 1_555
H8 C9 1_555 1_555
H9 C9 1_555 1_555
H10 N2 1_555 1_555
H11 C10 1_555 1_555
H12 N2 1_555 1_555
H14 C10 1_555 1_555
H15 C10 1_555 1_555
H16 C13 1_555 1_555
H18 C13 1_555 1_555
H19 C13 1_555 1_555
Ag1B C12 1_555 1_555
C12B Ag1 1_555 1_555
C1 O1 1_555 1_555
C8 N1 1_555 1_555

#END
