
#######################################################################
#
#                 Cambridge Crystallographic Data Centre
#                                CCDC 
#
#######################################################################
#
# If this CIF has been generated from an entry in the Cambridge 
# Structural Database, then it will include bibliographic, chemical, 
# crystal, experimental, refinement or atomic coordinate data resulting 
# from the CCDC's data processing and validation procedures.
#
#######################################################################

data_QAXDIE
_symmetry_cell_setting           monoclinic
_symmetry_space_group_name_H-M   'P 21/n'
_symmetry_Int_Tables_number      14
_space_group_name_Hall           '-P 2yn'
loop_
_symmetry_equiv_pos_site_id
_symmetry_equiv_pos_as_xyz
1 x,y,z
2 1/2-x,1/2+y,1/2-z
3 -x,-y,-z
4 1/2+x,1/2-y,1/2+z
_cell_length_a                   7.4181(18)
_cell_length_b                   13.345(3)
_cell_length_c                   13.526(3)
_cell_angle_alpha                90
_cell_angle_beta                 100.446(4)
_cell_angle_gamma                90
_cell_volume                     1316.81
loop_
_atom_site_label
_atom_site_type_symbol
_atom_site_fract_x
_atom_site_fract_y
_atom_site_fract_z
Cu1 Cu 0.44567(5) 0.05740(3) -0.26208(3)
Ni1 Ni 1.0000 0.0000 0.0000
O1 O 0.4940(3) -0.06850(16) -0.32137(17)
N1 N 0.3899(4) 0.1931(2) -0.2085(2)
H1 H 0.3710 0.1875 -0.1449
H2 H 0.4846 0.2352 -0.2091
C1 C 0.3636(5) -0.2471(3) -0.5216(3)
H3 H 0.3864 -0.3140 -0.5343
N2 N 0.2960(3) 0.1053(2) -0.38635(19)
N3 N 0.6579(4) 0.0376(2) -0.1526(2)
C2 C 0.2490(5) -0.1911(3) -0.5941(3)
H4 H 0.1971 -0.2197 -0.6554
C3 C 0.2142(5) -0.0940(3) -0.5740(3)
H5 H 0.1379 -0.0563 -0.6222
C4 C 0.4432(5) -0.2052(3) -0.4320(3)
H6 H 0.5209 -0.2441 -0.3855
C5 C 0.2231(5) 0.2319(3) -0.2743(2)
H7 H 0.2116 0.3035 -0.2643
H8 H 0.1149 0.1991 -0.2588
C6 C 0.2916(4) -0.0485(2) -0.4808(2)
C7 C 0.7869(5) 0.0253(3) -0.0926(3)
C8 C 0.2422(5) 0.2104(3) -0.3816(2)
H9 H 0.1266 0.2222 -0.4266
H10 H 0.3345 0.2536 -0.4015
C9 C 0.1323(5) -0.0021(2) -0.1058(2)
C10 C 0.4106(4) -0.1044(2) -0.4081(2)
N4 N 0.2102(4) -0.0016(2) -0.1710(2)
C11 C 0.2455(4) 0.0546(2) -0.4672(2)
H11 H 0.1734 0.0870 -0.5212
Cu1B Cu 1.55433(5) -0.05740(3) 0.26208(3)
Ni1_2 Ni 0.0000 0.0000 0.0000
Ni1_3 Ni 2.0000 0.0000 0.0000
O1B O 1.5060(3) 0.06850(16) 0.32137(17)
N1B N 1.6101(4) -0.1931(2) 0.2085(2)
H1B H 1.6290 -0.1875 0.1449
H2B H 1.5154 -0.2352 0.2091
C1B C 1.6364(5) 0.2471(3) 0.5216(3)
H3B H 1.6136 0.3140 0.5343
N2B N 1.7040(3) -0.1053(2) 0.38635(19)
N3B N 1.3421(4) -0.0376(2) 0.1526(2)
C2B C 1.7510(5) 0.1911(3) 0.5941(3)
H4B H 1.8029 0.2197 0.6554
C3B C 1.7858(5) 0.0940(3) 0.5740(3)
H5B H 1.8621 0.0563 0.6222
C4B C 1.5568(5) 0.2052(3) 0.4320(3)
H6B H 1.4791 0.2441 0.3855
C5B C 1.7769(5) -0.2319(3) 0.2743(2)
H7B H 1.7884 -0.3035 0.2643
H8B H 1.8851 -0.1991 0.2588
C6B C 1.7084(4) 0.0485(2) 0.4808(2)
C7B C 1.2131(5) -0.0253(3) 0.0926(3)
C8B C 1.7578(5) -0.2104(3) 0.3816(2)
H9B H 1.8734 -0.2222 0.4266
H10B H 1.6655 -0.2536 0.4015
C9_2 C 1.1323(5) -0.0021(2) -0.1058(2)
C9B C 0.8677(5) 0.0021(2) 0.1058(2)
C9B_2 C 1.8677(5) 0.0021(2) 0.1058(2)
C10B C 1.5894(4) 0.1044(2) 0.4081(2)
N4B N 1.7898(4) 0.0016(2) 0.1710(2)
C11B C 1.7545(4) -0.0546(2) 0.4672(2)
H11B H 1.8266 -0.0870 0.5212
O2 O -0.1414(4) -0.1378(2) -0.2819(2)
H12 H -0.250(4) -0.111(4) -0.288(4)
H13 H -0.066(5) -0.092(3) -0.250(3)
loop_
_geom_bond_atom_site_label_1
_geom_bond_atom_site_label_2
_geom_bond_site_symmetry_1
_geom_bond_site_symmetry_2
Cu1 O1 1_555 1_555
Ni1 C7 1_555 1_555
O1 C10 1_555 1_555
N1 Cu1 1_555 1_555
H1 N1 1_555 1_555
H2 N1 1_555 1_555
C1 H3 1_555 1_555
O2 H12 1_555 1_555
N2 Cu1 1_555 1_555
N3 Cu1 1_555 1_555
C2 C1 1_555 1_555
H4 C2 1_555 1_555
C3 C2 1_555 1_555
H5 C3 1_555 1_555
C4 C1 1_555 1_555
H6 C4 1_555 1_555
C5 N1 1_555 1_555
H7 C5 1_555 1_555
H8 C5 1_555 1_555
C6 C3 1_555 1_555
C7 N3 1_555 1_555
C8 N2 1_555 1_555
H9 C8 1_555 1_555
H10 C8 1_555 1_555
C9 N4 1_555 1_555
C10 C4 1_555 1_555
N4 Cu1 1_555 1_555
C11 N2 1_555 1_555
H11 C11 1_555 1_555
H13 O2 1_555 1_555
Cu1B O1B 1_555 1_555
Ni1_2 C9 1_555 1_555
Ni1_3 C9B_2 1_555 1_555
O1B C10B 1_555 1_555
N1B Cu1B 1_555 1_555
H1B N1B 1_555 1_555
H2B N1B 1_555 1_555
C1B H3B 1_555 1_555
N2B Cu1B 1_555 1_555
N3B Cu1B 1_555 1_555
C2B C1B 1_555 1_555
H4B C2B 1_555 1_555
C3B C2B 1_555 1_555
H5B C3B 1_555 1_555
C4B C1B 1_555 1_555
H6B C4B 1_555 1_555
C5B N1B 1_555 1_555
H7B C5B 1_555 1_555
H8B C5B 1_555 1_555
C6B C3B 1_555 1_555
C7B Ni1 1_555 1_555
C8B N2B 1_555 1_555
H9B C8B 1_555 1_555
H10B C8B 1_555 1_555
C9_2 Ni1 1_555 1_555
C9B Ni1 1_555 1_555
C9B_2 N4B 1_555 1_555
C10B C4B 1_555 1_555
N4B Cu1B 1_555 1_555
C11B N2B 1_555 1_555
H11B C11B 1_555 1_555
C5 C8 1_555 1_555
C6 C10 1_555 1_555
C6 C11 1_555 1_555
N3B C7B 1_555 1_555
C5B C8B 1_555 1_555
C6B C10B 1_555 1_555
C6B C11B 1_555 1_555

#END
