
#######################################################################
#
#                 Cambridge Crystallographic Data Centre
#                                CCDC 
#
#######################################################################
#
# If this CIF has been generated from an entry in the Cambridge 
# Structural Database, then it will include bibliographic, chemical, 
# crystal, experimental, refinement or atomic coordinate data resulting 
# from the CCDC's data processing and validation procedures.
#
#######################################################################

data_QAXHII
_symmetry_cell_setting           triclinic
_symmetry_space_group_name_H-M   'P -1'
_symmetry_Int_Tables_number      2
_space_group_name_Hall           '-P 1'
loop_
_symmetry_equiv_pos_site_id
_symmetry_equiv_pos_as_xyz
1 x,y,z
2 -x,-y,-z
_cell_length_a                   8.9223(2)
_cell_length_b                   9.7239(2)
_cell_length_c                   14.8391(4)
_cell_angle_alpha                99.8050(10)
_cell_angle_beta                 90.6560(10)
_cell_angle_gamma                96.2220(10)
_cell_volume                     1260.57
loop_
_atom_site_label
_atom_site_type_symbol
_atom_site_fract_x
_atom_site_fract_y
_atom_site_fract_z
Ru1 Ru 0.16424(5) 0.83017(5) 0.66294(3)
Cl1 Cl 0.02957(16) 0.69580(14) 0.75940(9)
Cl2 Cl 0.01241(17) 0.71696(16) 0.53725(9)
Cl3 Cl 0.30850(16) 0.96164(14) 0.57000(8)
Cl4 Cl 0.32101(14) 0.93919(14) 0.79043(8)
Na1 Na 0.0817(2) 0.9160(2) 0.90642(13)
S1 S 0.00563(16) 0.99870(14) 0.70276(8)
O1 O 0.7497(5) 0.1549(5) 0.9824(3)
O2 O 0.9017(5) 0.3453(5) 0.9960(3)
O3 O -0.0283(4) 1.0291(4) 0.8009(2)
O4 O 0.1397(4) 1.1368(4) 1.0082(2)
O5 O 0.3262(5) 1.3084(4) 0.9941(3)
N1 N 0.3092(4) 0.6699(4) 0.6348(2)
N2 N 0.8028(6) 0.2607(6) 0.9544(3)
C1 C 0.2547(6) 0.5353(5) 0.6136(3)
C2 C 0.3471(6) 0.4282(5) 0.6002(3)
C3 C 0.5012(6) 0.4595(5) 0.6108(3)
C4 C 0.5559(6) 0.5993(5) 0.6302(3)
C5 C 0.4591(6) 0.7025(5) 0.6429(3)
C6 C 0.5801(6) 0.2171(5) 0.7367(4)
C7 C 0.6286(6) 0.1976(5) 0.8225(3)
C8 C 0.7480(6) 0.2835(5) 0.8656(3)
C9 C 0.8207(6) 0.3915(6) 0.8276(4)
C10 C 0.7728(6) 0.4068(6) 0.7406(4)
C11 C 0.6534(6) 0.3215(5) 0.6951(3)
C12 C 0.6032(6) 0.3432(6) 0.6012(3)
C13 C -0.1677(7) 0.9619(8) 0.6425(4)
C14 C 0.0722(9) 1.1616(6) 0.6718(4)
C15 C 0.3436(9) 1.4548(7) 0.8793(5)
C16 C 0.2532(8) 1.3301(7) 0.9095(4)
C17 C 0.2555(7) 1.2091(7) 1.0364(4)
C18 C 0.3392(8) 1.2006(8) 1.1227(4)
H1 H 0.1498 0.5131 0.6073
H2 H 0.3057 0.3344 0.5845
H3 H 0.6601 0.6247 0.6355
H4 H 0.4988 0.7972 0.6573
H5 H 0.4978 0.1592 0.7068
H6 H 0.5802 0.1265 0.8499
H7 H 0.9000 0.4516 0.8590
H8 H 0.8222 0.4767 0.7127
H9 H 0.6912 0.3693 0.5672
H10 H 0.5476 0.2563 0.5696
H11 H -0.1514 0.9414 0.5780
H12 H -0.2239 1.0414 0.6555
H13 H -0.2233 0.8820 0.6613
H14 H 0.0961 1.1479 0.6083
H15 H -0.0034 1.2251 0.6827
H16 H 0.1613 1.2002 0.7083
H17 H 0.4439 1.4328 0.8662
H18 H 0.3484 1.5336 0.9282
H19 H 0.2969 1.4780 0.8265
H20 H 0.1501 1.3503 0.9210
H21 H 0.2541 1.2468 0.8632
H22 H 0.4364 1.2552 1.1240
H23 H 0.2815 1.2370 1.1735
H24 H 0.3515 1.1039 1.1231
Na1A Na 0.9183(2) 0.0840(2) 1.09358(13)
Na1A_2 Na -0.0817(2) 1.0840(2) 1.09358(13)
O1A O 0.2503(5) 0.8451(5) 1.0176(3)
O4A O -0.1397(4) 0.8632(4) 0.9918(2)
loop_
_geom_bond_atom_site_label_1
_geom_bond_atom_site_label_2
_geom_bond_site_symmetry_1
_geom_bond_site_symmetry_2
Ru1 Cl1 1_555 1_555
Cl1 Na1 1_555 1_555
Cl2 Ru1 1_555 1_555
Cl3 Ru1 1_555 1_555
Cl4 Ru1 1_555 1_555
Na1 Cl4 1_555 1_555
S1 Ru1 1_555 1_555
O1 N2 1_555 1_555
O2 N2 1_555 1_555
O3 Na1 1_555 1_555
O4 Na1 1_555 1_555
O5 C16 1_555 1_555
N1 Ru1 1_555 1_555
N2 C8 1_555 1_555
C1 N1 1_555 1_555
C2 C1 1_555 1_555
C3 C2 1_555 1_555
C4 C3 1_555 1_555
C5 N1 1_555 1_555
C6 C7 1_555 1_555
C7 C8 1_555 1_555
C8 C9 1_555 1_555
C9 C10 1_555 1_555
C10 C11 1_555 1_555
C11 C6 1_555 1_555
C12 C3 1_555 1_555
C13 S1 1_555 1_555
C14 S1 1_555 1_555
C15 C16 1_555 1_555
C16 H20 1_555 1_555
C17 O4 1_555 1_555
C18 C17 1_555 1_555
H1 C1 1_555 1_555
H2 C2 1_555 1_555
H3 C4 1_555 1_555
H4 C5 1_555 1_555
H5 C6 1_555 1_555
H6 C7 1_555 1_555
H7 C9 1_555 1_555
H8 C10 1_555 1_555
H9 C12 1_555 1_555
H10 C12 1_555 1_555
H11 C13 1_555 1_555
H12 C13 1_555 1_555
H13 C13 1_555 1_555
H14 C14 1_555 1_555
H15 C14 1_555 1_555
H16 C14 1_555 1_555
H17 C15 1_555 1_555
H18 C15 1_555 1_555
H19 C15 1_555 1_555
H21 C16 1_555 1_555
H22 C18 1_555 1_555
H23 C18 1_555 1_555
H24 C18 1_555 1_555
Na1A O1 1_555 1_555
Na1A_2 O4 1_555 1_555
O1A Na1 1_555 1_555
O4A Na1 1_555 1_555
S1 O3 1_555 1_555
O5 C17 1_555 1_555
C4 C5 1_555 1_555
C11 C12 1_555 1_555
Na1A_2 O4A 1_555 1_555

#END
