
#######################################################################
#
#                 Cambridge Crystallographic Data Centre
#                                CCDC 
#
#######################################################################
#
# If this CIF has been generated from an entry in the Cambridge 
# Structural Database, then it will include bibliographic, chemical, 
# crystal, experimental, refinement or atomic coordinate data resulting 
# from the CCDC's data processing and validation procedures.
#
#######################################################################

data_QAXKUW
_symmetry_cell_setting           monoclinic
_symmetry_space_group_name_H-M   'P 21/c'
_symmetry_Int_Tables_number      14
_space_group_name_Hall           '-P 2ybc'
loop_
_symmetry_equiv_pos_site_id
_symmetry_equiv_pos_as_xyz
1 x,y,z
2 -x,1/2+y,1/2-z
3 -x,-y,-z
4 x,1/2-y,1/2+z
_cell_length_a                   12.8418(5)
_cell_length_b                   5.9505(2)
_cell_length_c                   17.2989(5)
_cell_angle_alpha                90
_cell_angle_beta                 104.020(2)
_cell_angle_gamma                90
_cell_volume                     1282.52
loop_
_atom_site_label
_atom_site_type_symbol
_atom_site_fract_x
_atom_site_fract_y
_atom_site_fract_z
Zn1 Zn -0.05903(8) 0.52513(17) -0.11038(6)
O1 O 0.0805(5) 0.6655(13) -0.0742(4)
O2 O -0.0437(5) 0.3619(12) -0.2057(4)
H1 H 0.0070 0.4127 -0.2212
H2 H -0.0706 0.2375 -0.2161
O3 O 0.1053(5) 0.7272(12) 0.0559(4)
O4 O 0.1046(5) 1.0639(12) 0.2128(4)
O5 O 0.1772(5) 1.2652(11) 0.1310(4)
C1 C 0.2897(6) 1.0065(14) 0.0460(5)
C2 C 0.2052(7) 0.9430(15) -0.0168(5)
C3 C 0.1900(8) 1.0551(19) -0.0903(6)
H3 H 0.1329 1.0142 -0.1322
C4 C 0.2573(9) 1.223(2) -0.1012(6)
H4 H 0.2454 1.2962 -0.1500
C5 C 0.3430(9) 1.2833(19) -0.0398(7)
H5 H 0.3895 1.3967 -0.0471
C6 C 0.3592(8) 1.1735(18) 0.0329(6)
H6 H 0.4180 1.2124 0.0738
C7 C 0.3169(7) 0.8887(16) 0.1242(5)
C8 C 0.2644(7) 0.9292(16) 0.1857(5)
C9 C 0.2926(7) 0.8025(17) 0.2557(5)
H7 H 0.2560 0.8248 0.2954
C10 C 0.3732(8) 0.6458(19) 0.2670(6)
H8 H 0.3920 0.5650 0.3143
C11 C 0.4258(8) 0.6091(19) 0.2083(6)
H9 H 0.4805 0.5030 0.2156
C12 C 0.3976(8) 0.7301(17) 0.1376(6)
H10 H 0.4342 0.7034 0.0983
C13 C 0.1250(7) 0.7640(15) -0.0102(5)
C14 C 0.1762(7) 1.0976(16) 0.1753(5)
Zn1B Zn 0.05903(8) 0.47487(17) 0.11038(6)
Zn1B_2 Zn 0.05903(8) 1.47487(17) 0.11038(6)
O3B O -0.1053(5) 0.2728(12) -0.0559(4)
O5B O -0.1772(5) 0.7348(11) -0.1310(4)
loop_
_geom_bond_atom_site_label_1
_geom_bond_atom_site_label_2
_geom_bond_site_symmetry_1
_geom_bond_site_symmetry_2
Zn1 O1 1_555 1_555
O1 C13 1_555 1_555
O2 Zn1 1_555 1_555
H1 O2 1_555 1_555
H2 O2 1_555 1_555
O3 C13 1_555 1_555
O4 C14 1_555 1_555
O5 C14 1_555 1_555
C1 C2 1_555 1_555
C2 C3 1_555 1_555
C3 H3 1_555 1_555
C4 C3 1_555 1_555
H4 C4 1_555 1_555
C5 C4 1_555 1_555
H5 C5 1_555 1_555
C6 C1 1_555 1_555
H6 C6 1_555 1_555
C7 C1 1_555 1_555
C8 C7 1_555 1_555
C9 C8 1_555 1_555
H7 C9 1_555 1_555
C10 C9 1_555 1_555
H8 C10 1_555 1_555
C11 C10 1_555 1_555
H9 C11 1_555 1_555
C12 C7 1_555 1_555
H10 C12 1_555 1_555
C13 C2 1_555 1_555
C14 C8 1_555 1_555
Zn1B O3 1_555 1_555
Zn1B_2 O5 1_555 1_555
O3B Zn1 1_555 1_555
O5B Zn1 1_555 1_555
C5 C6 1_555 1_555
C11 C12 1_555 1_555

#END
