
#######################################################################
#
#                 Cambridge Crystallographic Data Centre
#                                CCDC 
#
#######################################################################
#
# If this CIF has been generated from an entry in the Cambridge 
# Structural Database, then it will include bibliographic, chemical, 
# crystal, experimental, refinement or atomic coordinate data resulting 
# from the CCDC's data processing and validation procedures.
#
#######################################################################

data_QAXKIL
_symmetry_cell_setting           monoclinic
_symmetry_space_group_name_H-M   'P 21/c'
_symmetry_Int_Tables_number      14
_space_group_name_Hall           '-P 2ybc'
loop_
_symmetry_equiv_pos_site_id
_symmetry_equiv_pos_as_xyz
1 x,y,z
2 -x,1/2+y,1/2-z
3 -x,-y,-z
4 x,1/2-y,1/2+z
_cell_length_a                   12.0702(6)
_cell_length_b                   19.1886(10)
_cell_length_c                   16.1095(7)
_cell_angle_alpha                90
_cell_angle_beta                 95.285(3)
_cell_angle_gamma                90
_cell_volume                     3715.26
loop_
_atom_site_label
_atom_site_type_symbol
_atom_site_fract_x
_atom_site_fract_y
_atom_site_fract_z
Ge1 Ge 0.27160(3) 0.15393(2) 0.26730(2)
K1 K 0.32299(7) 0.22170(4) -0.08778(5)
C1 C 0.3463(3) 0.14077(17) 0.1691(2)
C2 C 0.4465(3) 0.17086(18) 0.1456(2)
C3 C 0.4920(3) 0.15039(19) 0.0740(2)
H1 H 0.5595 0.1710 0.0602
C4 C 0.4393(3) 0.0989(2) 0.0207(2)
H2 H 0.4721 0.0844 -0.0279
C5 C 0.3407(3) 0.07027(19) 0.0397(2)
H3 H 0.3044 0.0369 0.0031
C6 C 0.2920(3) 0.08959(18) 0.1130(2)
C7 C 0.1959(3) 0.06090(18) 0.1411(2)
H4 H 0.1516 0.0273 0.1101
C8 C 0.0800(3) 0.05660(18) 0.2570(2)
C9 C 0.1014(3) 0.00449(18) 0.3177(2)
C10 C 0.2146(3) -0.02903(19) 0.3351(2)
H5 H 0.2634 -0.0105 0.2933
C11 C 0.2085(4) -0.1083(2) 0.3243(3)
H6 H 0.1776 -0.1195 0.2675
H7 H 0.1607 -0.1280 0.3643
H8 H 0.2834 -0.1281 0.3342
C12 C 0.2689(4) -0.0101(2) 0.4222(2)
H9 H 0.2202 -0.0247 0.4644
H10 H 0.2805 0.0404 0.4258
H11 H 0.3407 -0.0340 0.4320
C13 C 0.0143(3) -0.01683(19) 0.3622(2)
H12 H 0.0277 -0.0509 0.4047
C14 C -0.0909(3) 0.0102(2) 0.3463(2)
H13 H -0.1491 -0.0053 0.3777
C15 C -0.1123(3) 0.0597(2) 0.2846(2)
H14 H -0.1856 0.0774 0.2732
C16 C -0.0279(3) 0.08410(18) 0.2389(2)
C17 C -0.0540(3) 0.13723(19) 0.1696(2)
H15 H 0.0181 0.1583 0.1564
C18 C -0.1050(4) 0.1006(2) 0.0909(2)
H16 H -0.1181 0.1347 0.0458
H17 H -0.1757 0.0790 0.1021
H18 H -0.0538 0.0645 0.0745
C19 C -0.1297(4) 0.1964(2) 0.1921(3)
H19 H -0.0991 0.2180 0.2444
H20 H -0.2040 0.1779 0.1988
H21 H -0.1346 0.2313 0.1476
C20 C 0.5071(3) 0.22335(19) 0.1974(2)
H22 H 0.5752 0.2403 0.1799
C21 C 0.5473(3) 0.29614(19) 0.3100(2)
C22 C 0.6340(3) 0.26953(19) 0.3665(2)
C23 C 0.6471(3) 0.1915(2) 0.3808(2)
H23 H 0.6407 0.1683 0.3250
C24 C 0.5536(4) 0.1627(2) 0.4299(3)
H24 H 0.4820 0.1680 0.3966
H25 H 0.5521 0.1885 0.4823
H26 H 0.5672 0.1132 0.4421
C25 C 0.7603(3) 0.1711(2) 0.4259(3)
H27 H 0.7667 0.1903 0.4825
H28 H 0.8202 0.1898 0.3952
H29 H 0.7662 0.1202 0.4286
C26 C 0.7033(3) 0.3175(2) 0.4098(2)
H30 H 0.7608 0.3012 0.4493
C27 C 0.6904(3) 0.3886(2) 0.3966(2)
H31 H 0.7414 0.4203 0.4247
C28 C 0.6038(3) 0.4135(2) 0.3428(2)
H32 H 0.5947 0.4623 0.3351
C29 C 0.5296(3) 0.3679(2) 0.2998(2)
C30 C 0.4315(3) 0.3955(2) 0.2426(2)
H33 H 0.3739 0.3579 0.2367
C31 C 0.4650(4) 0.4119(3) 0.1554(3)
H34 H 0.4952 0.3698 0.1313
H35 H 0.5218 0.4486 0.1592
H36 H 0.3996 0.4278 0.1199
C32 C 0.3780(4) 0.4596(2) 0.2794(3)
H37 H 0.4310 0.4984 0.2826
H38 H 0.3577 0.4486 0.3355
H39 H 0.3111 0.4728 0.2437
C33 C 0.0960(4) 0.3482(2) -0.0364(3)
H40 H 0.0300 0.3579 -0.0072
H41 H 0.1506 0.3856 -0.0249
H42 H 0.0747 0.3458 -0.0965
C34 C 0.1798(5) 0.2893(3) 0.0816(3)
H43 H 0.1159 0.3028 0.1114
H44 H 0.2093 0.2446 0.1033
H45 H 0.2378 0.3250 0.0897
C35 C 0.0577(4) 0.2270(2) -0.0155(3)
H46 H 0.0838 0.1866 0.0191
H47 H -0.0109 0.2450 0.0063
C36 C 0.0314(4) 0.2038(2) -0.1033(3)
H48 H 0.0251 0.2453 -0.1399
H49 H -0.0418 0.1801 -0.1081
C37 C 0.1067(4) 0.1595(2) -0.2244(3)
H50 H 0.0311 0.1470 -0.2469
H51 H 0.1239 0.2068 -0.2419
H52 H 0.1599 0.1267 -0.2453
C38 C 0.0951(4) 0.0843(2) -0.1077(3)
H53 H 0.0974 0.0819 -0.0468
H54 H 0.0220 0.0689 -0.1324
H55 H 0.1529 0.0540 -0.1269
N1 N 0.1709(2) 0.08509(15) 0.21658(17)
N2 N 0.4743(3) 0.24805(16) 0.26485(18)
N3 N 0.1445(3) 0.28233(17) -0.00781(19)
N4 N 0.1146(3) 0.15622(17) -0.1331(2)
Ge1C Ge 0.27160(3) 0.34607(2) -0.23270(2)
K1C K 0.32299(7) 0.27830(4) 0.41222(5)
C21C C 0.5473(3) 0.20386(19) -0.1900(2)
N2C N 0.4743(3) 0.25195(16) -0.23515(18)
loop_
_geom_bond_atom_site_label_1
_geom_bond_atom_site_label_2
_geom_bond_site_symmetry_1
_geom_bond_site_symmetry_2
Ge1 C1 1_555 1_555
K1 C4 1_555 1_555
C1 C2 1_555 1_555
C2 C3 1_555 1_555
C3 H1 1_555 1_555
C4 C3 1_555 1_555
H2 C4 1_555 1_555
C5 C4 1_555 1_555
H3 C5 1_555 1_555
C6 C1 1_555 1_555
C7 C6 1_555 1_555
H4 C7 1_555 1_555
C8 C9 1_555 1_555
C9 C10 1_555 1_555
C10 H5 1_555 1_555
C11 C10 1_555 1_555
H6 C11 1_555 1_555
H7 C11 1_555 1_555
H8 C11 1_555 1_555
C12 C10 1_555 1_555
H9 C12 1_555 1_555
H10 C12 1_555 1_555
H11 C12 1_555 1_555
C13 C9 1_555 1_555
H12 C13 1_555 1_555
C14 C13 1_555 1_555
H13 C14 1_555 1_555
C15 C14 1_555 1_555
H14 C15 1_555 1_555
C16 C8 1_555 1_555
C17 C16 1_555 1_555
H15 C17 1_555 1_555
C18 C17 1_555 1_555
H16 C18 1_555 1_555
H17 C18 1_555 1_555
H18 C18 1_555 1_555
C19 C17 1_555 1_555
H19 C19 1_555 1_555
H20 C19 1_555 1_555
H21 C19 1_555 1_555
C20 C2 1_555 1_555
H22 C20 1_555 1_555
C21 C22 1_555 1_555
C22 C23 1_555 1_555
C23 H23 1_555 1_555
C24 C23 1_555 1_555
H24 C24 1_555 1_555
H25 C24 1_555 1_555
H26 C24 1_555 1_555
C25 C23 1_555 1_555
H27 C25 1_555 1_555
H28 C25 1_555 1_555
H29 C25 1_555 1_555
C26 C22 1_555 1_555
H30 C26 1_555 1_555
C27 C26 1_555 1_555
H31 C27 1_555 1_555
C28 C27 1_555 1_555
H32 C28 1_555 1_555
C29 C21 1_555 1_555
C30 C29 1_555 1_555
H33 C30 1_555 1_555
C31 C30 1_555 1_555
H34 C31 1_555 1_555
H35 C31 1_555 1_555
H36 C31 1_555 1_555
C32 C30 1_555 1_555
H37 C32 1_555 1_555
H38 C32 1_555 1_555
H39 C32 1_555 1_555
C33 H40 1_555 1_555
H41 C33 1_555 1_555
H42 C33 1_555 1_555
C34 H43 1_555 1_555
H44 C34 1_555 1_555
H45 C34 1_555 1_555
C35 H46 1_555 1_555
H47 C35 1_555 1_555
C36 C35 1_555 1_555
H48 C36 1_555 1_555
H49 C36 1_555 1_555
C37 H50 1_555 1_555
H51 C37 1_555 1_555
H52 C37 1_555 1_555
C38 H53 1_555 1_555
H54 C38 1_555 1_555
H55 C38 1_555 1_555
N1 Ge1 1_555 1_555
N2 C20 1_555 1_555
N3 K1 1_555 1_555
N4 K1 1_555 1_555
Ge1C K1 1_555 1_555
K1C Ge1 1_555 1_555
C21C K1 1_555 1_555
N2C K1 1_555 1_555
C5 C6 1_555 1_555
C7 N1 1_555 1_555
C8 N1 1_555 1_555
C15 C16 1_555 1_555
C21 N2 1_555 1_555
C21 K1C 1_555 1_555
C28 C29 1_555 1_555
C33 N3 1_555 1_555
C34 N3 1_555 1_555
C35 N3 1_555 1_555
C36 N4 1_555 1_555
C37 N4 1_555 1_555
C38 N4 1_555 1_555
N2 K1C 1_555 1_555
C21C N2C 1_555 1_555

#END
