
#######################################################################
#
#                 Cambridge Crystallographic Data Centre
#                                CCDC 
#
#######################################################################
#
# If this CIF has been generated from an entry in the Cambridge 
# Structural Database, then it will include bibliographic, chemical, 
# crystal, experimental, refinement or atomic coordinate data resulting 
# from the CCDC's data processing and validation procedures.
#
#######################################################################

data_QAXKUW03
_symmetry_cell_setting           monoclinic
_symmetry_space_group_name_H-M   'P 21/c'
_symmetry_Int_Tables_number      14
_space_group_name_Hall           '-P 2ybc'
loop_
_symmetry_equiv_pos_site_id
_symmetry_equiv_pos_as_xyz
1 x,y,z
2 -x,1/2+y,1/2-z
3 -x,-y,-z
4 x,1/2-y,1/2+z
_cell_length_a                   12.8437(10)
_cell_length_b                   5.9596(5)
_cell_length_c                   17.2934(14)
_cell_angle_alpha                90.00
_cell_angle_beta                 104.057(4)
_cell_angle_gamma                90.00
_cell_volume                     1284.06
loop_
_atom_site_label
_atom_site_type_symbol
_atom_site_fract_x
_atom_site_fract_y
_atom_site_fract_z
O1 O 1.0793(2) 0.8350(6) 0.92590(17)
Zn1 Zn 0.94098(3) 0.97444(8) 0.88960(3)
O2 O 1.1775(2) 0.2349(5) 1.13159(17)
O3 O 1.1054(2) 0.7735(5) 1.05553(17)
O4 O 0.9566(3) 1.1360(6) 0.79392(18)
C1 C 1.1760(3) 0.4034(7) 1.1756(2)
C2 C 1.3161(3) 0.6118(7) 1.1245(2)
C3 C 1.2644(3) 0.5701(7) 1.1853(2)
C4 C 1.3979(3) 0.7729(8) 1.1377(3)
H1 H 1.4341 0.7997 1.0981
C5 C 1.3728(3) 0.8527(8) 1.2668(3)
H2 H 1.3913 0.9333 1.3142
C6 C 1.2929(3) 0.6954(7) 1.2557(2)
H3 H 1.2569 0.6714 1.2956
C7 C 1.4260(4) 0.8921(9) 1.2074(3)
H4 H 1.4805 0.9986 1.2148
O5 O 1.1049(2) 0.4364(5) 1.2129(2)
C8 C 1.2900(3) 0.4951(6) 1.0451(2)
C9 C 1.2045(3) 0.5588(6) 0.9823(2)
C10 C 1.1893(4) 0.4478(8) 0.9095(3)
H5 H 1.1327 0.4894 0.8673
C11 C 1.3586(3) 0.3277(8) 1.0324(3)
H6 H 1.4171 0.2890 1.0736
C12 C 1.2571(4) 0.2772(9) 0.8994(3)
H7 H 1.2450 0.2021 0.8509
C13 C 1.3431(4) 0.2172(9) 0.9612(3)
H8 H 1.3897 0.1035 0.9543
C14 C 1.1249(3) 0.7360(6) 0.9888(2)
H9 H 0.934(4) 1.268(10) 0.787(3)
H10 H 1.002(5) 1.119(13) 0.770(4)
Zn1B Zn 1.05902(3) 0.02556(8) 1.11040(3)
Zn1B_2 Zn 1.05902(3) 1.02556(8) 1.11040(3)
O2B O 0.8225(2) 0.7651(5) 0.86841(17)
O3B O 0.8946(2) 1.2265(5) 0.94447(17)
loop_
_geom_bond_atom_site_label_1
_geom_bond_atom_site_label_2
_geom_bond_site_symmetry_1
_geom_bond_site_symmetry_2
O1 Zn1 1_555 1_555
Zn1 O4 1_555 1_555
O2 C1 1_555 1_555
O3 C14 1_555 1_555
O4 H9 1_555 1_555
C1 C3 1_555 1_555
C2 C3 1_555 1_555
C3 C6 1_555 1_555
C4 C2 1_555 1_555
H1 C4 1_555 1_555
C5 H2 1_555 1_555
C6 C5 1_555 1_555
H3 C6 1_555 1_555
C7 C4 1_555 1_555
H4 C7 1_555 1_555
O5 C1 1_555 1_555
C8 C2 1_555 1_555
C9 C8 1_555 1_555
C10 C9 1_555 1_555
H5 C10 1_555 1_555
C11 C8 1_555 1_555
H6 C11 1_555 1_555
C12 C10 1_555 1_555
H7 C12 1_555 1_555
C13 C11 1_555 1_555
H8 C13 1_555 1_555
C14 O1 1_555 1_555
H10 O4 1_555 1_555
Zn1B O2 1_555 1_555
Zn1B_2 O3 1_555 1_555
O2B Zn1 1_555 1_555
O3B Zn1 1_555 1_555
C5 C7 1_555 1_555
C9 C14 1_555 1_555
C12 C13 1_555 1_555

#END
