
#######################################################################
#
#                 Cambridge Crystallographic Data Centre
#                                CCDC 
#
#######################################################################
#
# If this CIF has been generated from an entry in the Cambridge 
# Structural Database, then it will include bibliographic, chemical, 
# crystal, experimental, refinement or atomic coordinate data resulting 
# from the CCDC's data processing and validation procedures.
#
#######################################################################

data_QAXKUW02
_symmetry_cell_setting           monoclinic
_symmetry_space_group_name_H-M   'P 21/c'
_symmetry_Int_Tables_number      14
_space_group_name_Hall           '-P 2ybc'
loop_
_symmetry_equiv_pos_site_id
_symmetry_equiv_pos_as_xyz
1 x,y,z
2 -x,1/2+y,1/2-z
3 -x,-y,-z
4 x,1/2-y,1/2+z
_cell_length_a                   12.848(3)
_cell_length_b                   5.9592(12)
_cell_length_c                   17.323(4)
_cell_angle_alpha                90
_cell_angle_beta                 104.06(3)
_cell_angle_gamma                90
_cell_volume                     1286.58
loop_
_atom_site_label
_atom_site_type_symbol
_atom_site_fract_x
_atom_site_fract_y
_atom_site_fract_z
Zn1 Zn 0.559040(17) 0.47493(4) 0.110401(12)
O1 O 0.67737(11) 0.2651(2) 0.13121(9)
O2 O 0.57962(12) -0.3350(3) -0.07454(8)
O3 O 0.60440(13) 0.0641(2) 0.21250(10)
O4 O 0.54368(13) 0.6366(3) 0.20614(9)
C1 C 0.67543(15) 0.0977(3) 0.17553(11)
C2 C 0.81666(14) -0.1122(3) 0.12455(10)
C3 C 0.62424(14) -0.2365(3) -0.01111(11)
C4 C 0.76467(15) -0.0710(3) 0.18541(11)
C5 C 0.89763(17) -0.2731(4) 0.13747(12)
H1 H 0.9333 -0.3013 0.0977
C6 C 0.87286(18) -0.3540(4) 0.26673(13)
H2 H 0.8909 -0.4357 0.3138
C7 C 0.79279(16) -0.1951(4) 0.25566(11)
H3 H 0.7570 -0.1703 0.2955
C8 C 0.92627(19) -0.3917(4) 0.20790(15)
H4 H 0.9814 -0.4967 0.2156
C9 C 0.70463(16) -0.0578(3) -0.01725(11)
C10 C 0.6901(2) 0.0516(4) -0.09062(14)
H5 H 0.6341 0.0081 -0.1329
C11 C 0.7573(2) 0.2225(4) -0.10109(14)
H6 H 0.7457 0.2962 -0.1498
C12 C 0.8418(2) 0.2842(4) -0.03929(15)
H7 H 0.8874 0.4000 -0.0460
C13 C 0.85859(18) 0.1733(4) 0.03276(13)
H8 H 0.9172 0.2126 0.0736
C14 C 0.78992(17) 0.0041(3) 0.04571(12)
O5 O 0.60517(12) -0.2724(3) 0.05523(8)
H9 H 0.566(2) 0.763(2) 0.2131(17)
H10 H 0.4933(15) 0.632(5) 0.2261(15)
Zn1B Zn 0.440960(17) -0.47493(4) -0.110401(12)
Zn1_2 Zn 0.559040(17) -0.52507(4) 0.110401(12)
O2B O 0.42038(12) 0.3350(3) 0.07454(8)
O5_2 O 0.60517(12) 0.7276(3) 0.05523(8)
loop_
_geom_bond_atom_site_label_1
_geom_bond_atom_site_label_2
_geom_bond_site_symmetry_1
_geom_bond_site_symmetry_2
Zn1 O1 1_555 1_555
O1 C1 1_555 1_555
O2 C3 1_555 1_555
O3 C1 1_555 1_555
O4 Zn1 1_555 1_555
C1 C4 1_555 1_555
C2 C4 1_555 1_555
C3 C9 1_555 1_555
C4 C7 1_555 1_555
C5 C2 1_555 1_555
H1 C5 1_555 1_555
C6 H2 1_555 1_555
C7 C6 1_555 1_555
H3 C7 1_555 1_555
C8 C5 1_555 1_555
H4 C8 1_555 1_555
C9 C10 1_555 1_555
C10 H5 1_555 1_555
C11 C10 1_555 1_555
H6 C11 1_555 1_555
C12 C11 1_555 1_555
H7 C12 1_555 1_555
C13 C12 1_555 1_555
H8 C13 1_555 1_555
C14 C2 1_555 1_555
O5 C3 1_555 1_555
H9 O4 1_555 1_555
H10 O4 1_555 1_555
Zn1B O2 1_555 1_555
Zn1_2 O5 1_555 1_555
O2B Zn1 1_555 1_555
O5_2 Zn1 1_555 1_555
C6 C8 1_555 1_555
C9 C14 1_555 1_555
C13 C14 1_555 1_555

#END
