
#######################################################################
#
#                 Cambridge Crystallographic Data Centre
#                                CCDC 
#
#######################################################################
#
# If this CIF has been generated from an entry in the Cambridge 
# Structural Database, then it will include bibliographic, chemical, 
# crystal, experimental, refinement or atomic coordinate data resulting 
# from the CCDC's data processing and validation procedures.
#
#######################################################################

data_QAXLIL
_symmetry_cell_setting           orthorhombic
_symmetry_space_group_name_H-M   'P b c a'
_symmetry_Int_Tables_number      61
_space_group_name_Hall           '-P 2ac 2ab'
loop_
_symmetry_equiv_pos_site_id
_symmetry_equiv_pos_as_xyz
1 x,y,z
2 1/2-x,-y,1/2+z
3 -x,1/2+y,1/2-z
4 1/2+x,1/2-y,-z
5 -x,-y,-z
6 1/2+x,y,1/2-z
7 x,1/2-y,1/2+z
8 1/2-x,1/2+y,z
_cell_length_a                   8.0193(5)
_cell_length_b                   8.7837(5)
_cell_length_c                   18.0385(11)
_cell_angle_alpha                90
_cell_angle_beta                 90
_cell_angle_gamma                90
_cell_volume                     1270.62
loop_
_atom_site_label
_atom_site_type_symbol
_atom_site_fract_x
_atom_site_fract_y
_atom_site_fract_z
Fe1 Fe 0.0000 0.0000 0.0000
N1 N 0.15064(14) 0.17147(13) 0.01795(6)
N2 N -0.05152(15) 0.03774(13) 0.10661(6)
C1 C 0.02649(17) 0.15944(15) 0.13746(8)
N3 N 0.32246(14) 0.35621(12) 0.02785(6)
C2 C 0.14153(16) 0.23258(15) 0.08598(7)
C3 C -0.15629(17) -0.03963(16) 0.15090(7)
H1 H -0.2139 -0.1256 0.1318
N4 N 0.00776(14) 0.21024(14) 0.20612(7)
C4 C -0.1818(2) 0.00383(14) 0.22402(8)
H2 H -0.2547 -0.0516 0.2555
C5 C -0.09715(18) 0.13067(15) 0.24926(7)
H3 H -0.1138 0.1628 0.2990
N5 N 0.26556(14) 0.25108(12) -0.01837(7)
N6 N 0.24685(14) 0.34799(13) 0.09453(6)
Fe1G Fe 0.5000 0.5000 0.0000
Fe1G_2 Fe -0.5000 -0.5000 0.0000
N1D N -0.15064(14) -0.17147(13) -0.01795(6)
N2D N 0.05152(15) -0.03774(13) -0.10661(6)
C1D C -0.02649(17) -0.15944(15) -0.13746(8)
N3D N -0.32246(14) -0.35621(12) -0.02785(6)
N3G N 0.17754(14) -0.14379(12) 0.02785(6)
N3C N -0.17754(14) 0.14379(12) -0.02785(6)
C2D C -0.14153(16) -0.23258(15) -0.08598(7)
C3D C 0.15629(17) 0.03963(16) -0.15090(7)
H1D H 0.2139 0.1256 -0.1318
N4D N -0.00776(14) -0.21024(14) -0.20612(7)
C4D C 0.1818(2) -0.00383(14) -0.22402(8)
H2D H 0.2547 0.0516 -0.2555
C5D C 0.09715(18) -0.13067(15) -0.24926(7)
H3D H 0.1138 -0.1628 -0.2990
N5D N -0.26556(14) -0.25108(12) 0.01837(7)
N6D N -0.24685(14) -0.34799(13) -0.09453(6)
loop_
_geom_bond_atom_site_label_1
_geom_bond_atom_site_label_2
_geom_bond_site_symmetry_1
_geom_bond_site_symmetry_2
Fe1 N1 1_555 1_555
N1 C2 1_555 1_555
N2 Fe1 1_555 1_555
C1 N2 1_555 1_555
N3 N5 1_555 1_555
C2 C1 1_555 1_555
C3 N2 1_555 1_555
H1 C3 1_555 1_555
N4 C1 1_555 1_555
C4 C3 1_555 1_555
H2 C4 1_555 1_555
C5 N4 1_555 1_555
H3 C5 1_555 1_555
N5 N1 1_555 1_555
N6 N3 1_555 1_555
Fe1G N3 1_555 1_555
Fe1G_2 N3D 1_555 1_555
N1D Fe1 1_555 1_555
N2D Fe1 1_555 1_555
C1D N2D 1_555 1_555
N3D N5D 1_555 1_555
N3G Fe1 1_555 1_555
N3C Fe1 1_555 1_555
C2D N1D 1_555 1_555
C3D N2D 1_555 1_555
H1D C3D 1_555 1_555
N4D C1D 1_555 1_555
C4D C3D 1_555 1_555
H2D C4D 1_555 1_555
C5D N4D 1_555 1_555
H3D C5D 1_555 1_555
N5D N1D 1_555 1_555
N6D N3D 1_555 1_555
C2 N6 1_555 1_555
C4 C5 1_555 1_555
C1D C2D 1_555 1_555
C2D N6D 1_555 1_555
C4D C5D 1_555 1_555

#END
