
#######################################################################
#
#                 Cambridge Crystallographic Data Centre
#                                CCDC 
#
#######################################################################
#
# If this CIF has been generated from an entry in the Cambridge 
# Structural Database, then it will include bibliographic, chemical, 
# crystal, experimental, refinement or atomic coordinate data resulting 
# from the CCDC's data processing and validation procedures.
#
#######################################################################

data_QAXLUX
_symmetry_cell_setting           triclinic
_symmetry_space_group_name_H-M   'P -1'
_symmetry_Int_Tables_number      2
_space_group_name_Hall           '-P 1'
loop_
_symmetry_equiv_pos_site_id
_symmetry_equiv_pos_as_xyz
1 x,y,z
2 -x,-y,-z
_cell_length_a                   11.3336(15)
_cell_length_b                   17.332(3)
_cell_length_c                   17.721(3)
_cell_angle_alpha                110.910(6)
_cell_angle_beta                 99.2770(10)
_cell_angle_gamma                107.205(3)
_cell_volume                     2964.18
loop_
_atom_site_label
_atom_site_type_symbol
_atom_site_fract_x
_atom_site_fract_y
_atom_site_fract_z
Zn1 Zn -1.20046(5) -1.34934(4) -0.28089(4)
S1 S -0.75607(17) -0.32746(11) 0.28873(12)
S2 S -1.19209(14) -1.31892(10) -0.45785(9)
O1 O -0.6974(5) -0.2602(4) 0.3741(4)
O2 O -0.7129(6) -0.2948(5) 0.2320(4)
O3 O -0.7370(5) -0.4070(3) 0.2809(5)
O7 O -1.1841(3) -1.2877(2) -0.3675(2)
O8 O -1.2318(4) -1.2627(3) -0.4920(3)
O9 O -1.2712(4) -1.4133(3) -0.5063(3)
O10 O -1.2207(4) -1.4204(3) -0.2003(3)
H1 H -1.243(7) -1.4836(15) -0.226(4)
H2 H -1.153(6) -1.397(4) -0.150(3)
O11 O -1.2754(4) -1.4783(3) -0.3862(3)
H3 H -1.287(6) -1.468(4) -0.436(3)
H4 H -1.339(6) -1.535(3) -0.400(4)
N1 N -1.3914(4) -1.3551(3) -0.2879(3)
N2 N -2.0113(4) -1.3496(3) -0.2738(3)
N3 N -1.1191(4) -1.2150(3) -0.1744(3)
C1 C -0.9262(6) -0.3539(4) 0.2664(4)
C2 C -0.9723(8) -0.3088(4) 0.3297(5)
H15 H -0.9146 -0.2672 0.3825
C3 C -1.1034(8) -0.3254(5) 0.3148(5)
H16 H -1.1333 -0.2952 0.3574
C4 C -1.1881(7) -0.3862(4) 0.2373(5)
H17 H -1.2755 -0.3958 0.2260
C5 C -1.1429(7) -0.4336(4) 0.1754(4)
H18 H -1.2016 -0.4763 0.1234
C6 C -1.0126(6) -0.4192(4) 0.1890(4)
C7 C -0.9699(6) -0.4765(4) 0.1235(4)
H19 H -0.8892 -0.4513 0.1176
C8 C -1.0411(6) -0.5616(4) 0.0732(4)
H20 H -1.1238 -0.5832 0.0778
C9 C -1.0063(6) -0.6259(4) 0.0113(4)
C10 C -1.1018(6) -0.7096(4) -0.0417(4)
H21 H -1.1858 -0.7214 -0.0383
C11 C -1.0760(6) -0.7751(4) -0.0987(4)
H22 H -1.1427 -0.8306 -0.1322
C12 C -0.9539(6) -0.7615(4) -0.1080(4)
C13 C -0.8594(6) -0.6777(4) -0.0569(4)
H23 H -0.7761 -0.6657 -0.0618
C14 C -0.8835(5) -0.6113(4) 0.0009(4)
H24 H -0.8169 -0.5557 0.0336
C15 C -0.9267(5) -0.8349(4) -0.1660(4)
C16 C -1.0237(6) -0.9064(4) -0.2349(4)
H25 H -1.1057 -0.9051 -0.2476
C17 C -1.0027(6) -0.9794(4) -0.2853(4)
H26 H -1.0708 -1.0262 -0.3308
C18 C -0.8809(6) -0.9846(4) -0.2693(4)
C19 C -0.7820(6) -0.9115(4) -0.2023(4)
H27 H -0.6989 -0.9116 -0.1916
C20 C -0.8035(6) -0.8384(4) -0.1507(4)
H28 H -0.7354 -0.7912 -0.1055
C21 C -0.8586(6) -1.0641(4) -0.3184(4)
H29 H -0.7739 -1.0610 -0.3072
C22 C -0.9486(6) -1.1397(4) -0.3772(4)
H30 H -1.0322 -1.1412 -0.3907
C23 C -0.9290(5) -1.2221(4) -0.4236(3)
C24 C -0.8056(6) -1.2191(5) -0.4290(4)
H31 H -0.7370 -1.1639 -0.4065
C25 C -0.7841(7) -1.2962(5) -0.4670(4)
H32 H -0.7011 -1.2928 -0.4685
C26 C -0.8854(7) -1.3783(5) -0.5029(4)
H33 H -0.8712 -1.4303 -0.5292
C27 C -1.0088(6) -1.3831(4) -0.4995(4)
H34 H -1.0768 -1.4385 -0.5226
C28 C -1.0315(5) -1.3062(4) -0.4621(3)
C43 C -1.4218(5) -1.2857(4) -0.2835(5)
H45 H -1.3585 -1.2358 -0.2812
C44 C -1.4867(5) -1.4262(4) -0.2943(4)
H46 H -1.4691 -1.4766 -0.2993
C45 C -1.6089(5) -1.4298(4) -0.2939(4)
H47 H -1.6716 -1.4819 -0.2992
C46 C -1.9896(5) -1.4253(4) -0.2884(4)
H48 H -2.0573 -1.4766 -0.2970
C47 C -1.8707(5) -1.4293(4) -0.2911(4)
H49 H -1.8587 -1.4822 -0.2998
C48 C -1.7681(5) -1.3542(3) -0.2808(3)
C49 C -1.7934(5) -1.2773(4) -0.2655(3)
H50 H -1.7281 -1.2250 -0.2573
C50 C -1.9135(5) -1.2777(3) -0.2625(3)
H51 H -1.9271 -1.2250 -0.2521
C51 C -1.6390(5) -1.3557(3) -0.2854(3)
C52 C -1.5414(5) -1.2836(4) -0.2819(5)
H52 H -1.5568 -1.2328 -0.2785
C53 C -1.0945(6) -1.1405(4) -0.1850(4)
H53 H -1.1090 -1.1451 -0.2399
C54 C -1.0481(6) -1.0563(4) -0.1186(4)
H54 H -1.0330 -1.0065 -0.1302
C55 C -1.0242(5) -1.0445(3) -0.0368(3)
C56 C -1.0455(8) -1.1215(4) -0.0262(4)
H55 H -1.0272 -1.1183 0.0282
C57 C -1.0935(8) -1.2033(4) -0.0949(4)
H56 H -1.1089 -1.2539 -0.0846
Zn1_2 Zn -0.20046(5) -1.34934(4) -0.28089(4)
Zn1_3 Zn -2.20046(5) -1.34934(4) -0.28089(4)
Zn1A Zn -0.79954(5) -0.65066(4) 0.28089(4)
S1_2 S 0.24393(17) -0.32746(11) 0.28873(12)
S2_2 S -0.19209(14) -1.31892(10) -0.45785(9)
O1_2 O 0.3026(5) -0.2602(4) 0.3741(4)
O2_2 O 0.2871(6) -0.2948(5) 0.2320(4)
O3_2 O 0.2630(5) -0.4070(3) 0.2809(5)
O7_2 O -0.1841(3) -1.2877(2) -0.3675(2)
O8_2 O -0.2318(4) -1.2627(3) -0.4920(3)
O9_2 O -0.2712(4) -1.4133(3) -0.5063(3)
O10_2 O -0.2207(4) -1.4204(3) -0.2003(3)
H1_2 H -0.243(7) -1.4836(15) -0.226(4)
H2_2 H -0.153(6) -1.397(4) -0.150(3)
O11_2 O -0.2754(4) -1.4783(3) -0.3862(3)
H3_2 H -0.287(6) -1.468(4) -0.436(3)
H4_2 H -0.339(6) -1.535(3) -0.400(4)
N1_2 N -0.3914(4) -1.3551(3) -0.2879(3)
N2_2 N -1.0113(4) -1.3496(3) -0.2738(3)
N2_3 N -0.0113(4) -1.3496(3) -0.2738(3)
N3A N -0.8809(4) -0.7850(3) 0.1744(3)
N3_2 N -0.1191(4) -1.2150(3) -0.1744(3)
C1_2 C 0.0738(6) -0.3539(4) 0.2664(4)
C2_2 C 0.0277(8) -0.3088(4) 0.3297(5)
H15_2 H 0.0854 -0.2672 0.3825
C3_2 C -0.1034(8) -0.3254(5) 0.3148(5)
H16_2 H -0.1333 -0.2952 0.3574
C4_2 C -0.1881(7) -0.3862(4) 0.2373(5)
H17_2 H -0.2755 -0.3958 0.2260
C5_2 C -0.1429(7) -0.4336(4) 0.1754(4)
H18_2 H -0.2016 -0.4763 0.1234
C6_2 C -0.0126(6) -0.4192(4) 0.1890(4)
C7_2 C 0.0301(6) -0.4765(4) 0.1235(4)
H19_2 H 0.1108 -0.4513 0.1176
C8_2 C -0.0411(6) -0.5616(4) 0.0732(4)
H20_2 H -0.1238 -0.5832 0.0778
C9_2 C -0.0063(6) -0.6259(4) 0.0113(4)
C10_2 C -0.1018(6) -0.7096(4) -0.0417(4)
H21_2 H -0.1858 -0.7214 -0.0383
C11_2 C -0.0760(6) -0.7751(4) -0.0987(4)
H22_2 H -0.1427 -0.8306 -0.1322
C12_2 C 0.0461(6) -0.7615(4) -0.1080(4)
C13_2 C 0.1406(6) -0.6777(4) -0.0569(4)
H23_2 H 0.2239 -0.6657 -0.0618
C14_2 C 0.1165(5) -0.6113(4) 0.0009(4)
H24_2 H 0.1831 -0.5557 0.0336
C15_2 C 0.0733(5) -0.8349(4) -0.1660(4)
C16_2 C -0.0237(6) -0.9064(4) -0.2349(4)
H25_2 H -0.1057 -0.9051 -0.2476
C17_2 C -0.0027(6) -0.9794(4) -0.2853(4)
H26_2 H -0.0708 -1.0262 -0.3308
C18_2 C 0.1191(6) -0.9846(4) -0.2693(4)
C19_2 C 0.2180(6) -0.9115(4) -0.2023(4)
H27_2 H 0.3011 -0.9116 -0.1916
C20_2 C 0.1965(6) -0.8384(4) -0.1507(4)
H28_2 H 0.2646 -0.7912 -0.1055
C21_2 C 0.1414(6) -1.0641(4) -0.3184(4)
H29_2 H 0.2261 -1.0610 -0.3072
C22_2 C 0.0514(6) -1.1397(4) -0.3772(4)
H30_2 H -0.0322 -1.1412 -0.3907
C23_2 C 0.0710(5) -1.2221(4) -0.4236(3)
C24_2 C 0.1944(6) -1.2191(5) -0.4290(4)
H31_2 H 0.2630 -1.1639 -0.4065
C25_2 C 0.2159(7) -1.2962(5) -0.4670(4)
H32_2 H 0.2989 -1.2928 -0.4685
C26_2 C 0.1146(7) -1.3783(5) -0.5029(4)
H33_2 H 0.1288 -1.4303 -0.5292
C27_2 C -0.0088(6) -1.3831(4) -0.4995(4)
H34_2 H -0.0768 -1.4385 -0.5226
C28_2 C -0.0315(5) -1.3062(4) -0.4621(3)
C43_2 C -0.4218(5) -1.2857(4) -0.2835(5)
H45_2 H -0.3585 -1.2358 -0.2812
C44_2 C -0.4867(5) -1.4262(4) -0.2943(4)
H46_2 H -0.4691 -1.4766 -0.2993
C45_2 C -0.6089(5) -1.4298(4) -0.2939(4)
H47_2 H -0.6716 -1.4819 -0.2992
C46_2 C -0.9896(5) -1.4253(4) -0.2884(4)
H48_2 H -1.0573 -1.4766 -0.2970
C47_2 C -0.8707(5) -1.4293(4) -0.2911(4)
H49_2 H -0.8587 -1.4822 -0.2998
C48_2 C -0.7681(5) -1.3542(3) -0.2808(3)
C49_2 C -0.7934(5) -1.2773(4) -0.2655(3)
H50_2 H -0.7281 -1.2250 -0.2573
C50_2 C -0.9135(5) -1.2777(3) -0.2625(3)
H51_2 H -0.9271 -1.2250 -0.2521
C51_2 C -0.6390(5) -1.3557(3) -0.2854(3)
C52_2 C -0.5414(5) -1.2836(4) -0.2819(5)
H52_2 H -0.5568 -1.2328 -0.2785
C53A C -0.9055(6) -0.8595(4) 0.1850(4)
H53A H -0.8910 -0.8549 0.2399
C54A C -0.9519(6) -0.9437(4) 0.1186(4)
H54A H -0.9670 -0.9935 0.1302
C55A C -0.9758(5) -0.9555(3) 0.0368(3)
C56A C -0.9545(8) -0.8785(4) 0.0262(4)
H55A H -0.9728 -0.8817 -0.0282
C57A C -0.9065(8) -0.7967(4) 0.0949(4)
H56A H -0.8911 -0.7461 0.0846
S3 S -1.42893(16) -1.01951(11) -0.20961(10)
O4 O -1.3613(6) -1.0764(4) -0.2446(3)
O5 O -1.3884(6) -0.9413(3) -0.2237(3)
O6 O -1.5637(5) -1.0699(4) -0.2361(3)
C29 C -1.3758(5) -0.9852(4) -0.0980(4)
C30 C -1.3419(5) -1.0475(4) -0.0755(4)
H35 H -1.3428 -1.0988 -0.1175
C31 C -1.3075(6) -1.0337(5) 0.0075(4)
H36 H -1.2872 -1.0761 0.0215
C32 C -1.3032(6) -0.9578(5) 0.0692(4)
H37 H -1.2785 -0.9476 0.1257
C33 C -1.3358(6) -0.8956(4) 0.0479(4)
H38 H -1.3313 -0.8437 0.0910
C34 C -1.3748(5) -0.9080(4) -0.0356(4)
C35 C -1.4103(5) -0.8388(4) -0.0532(4)
H39 H -1.4129 -0.8388 -0.1060
C36 C -1.4385(6) -0.7769(4) 0.0022(4)
H40 H -1.4458 -0.7839 0.0511
C37 C -1.4597(6) -0.6994(4) -0.0028(4)
C38 C -1.4978(7) -0.6462(4) 0.0612(4)
H41 H -1.5140 -0.6631 0.1040
C39 C -1.5116(7) -0.5698(4) 0.0621(5)
H42 H -1.5352 -0.5357 0.1063
C40 C -1.4916(6) -0.5419(4) -0.0006(5)
C41 C -1.4552(7) -0.5950(4) -0.0644(5)
H43 H -1.4415 -0.5785 -0.1078
C42 C -1.4385(7) -0.6716(4) -0.0659(5)
H44 H -1.4130 -0.7048 -0.1095
S3A S -1.57107(16) 0.01951(11) 0.20961(10)
O4A O -1.6387(6) 0.0764(4) 0.2446(3)
O5A O -1.6116(6) -0.0587(3) 0.2237(3)
O6A O -1.4363(5) 0.0699(4) 0.2361(3)
C29A C -1.6242(5) -0.0148(4) 0.0980(4)
C30A C -1.6581(5) 0.0475(4) 0.0755(4)
H35A H -1.6572 0.0988 0.1175
C31A C -1.6925(6) 0.0337(5) -0.0075(4)
H36A H -1.7128 0.0761 -0.0215
C32A C -1.6968(6) -0.0422(5) -0.0692(4)
H37A H -1.7215 -0.0524 -0.1257
C33A C -1.6642(6) -0.1044(4) -0.0479(4)
H38A H -1.6687 -0.1563 -0.0910
C34A C -1.6252(5) -0.0920(4) 0.0356(4)
C35A C -1.5897(5) -0.1612(4) 0.0532(4)
H39A H -1.5871 -0.1612 0.1060
C36A C -1.5615(6) -0.2231(4) -0.0022(4)
H40A H -1.5542 -0.2161 -0.0511
C37A C -1.5403(6) -0.3006(4) 0.0028(4)
C38A C -1.5022(7) -0.3538(4) -0.0612(4)
H41A H -1.4860 -0.3369 -0.1040
C39A C -1.4884(7) -0.4302(4) -0.0621(5)
H42A H -1.4648 -0.4643 -0.1063
C40A C -1.5084(6) -0.4581(4) 0.0006(5)
C41A C -1.5448(7) -0.4050(4) 0.0644(5)
H43A H -1.5585 -0.4215 0.1078
C42A C -1.5615(7) -0.3284(4) 0.0659(5)
H44A H -1.5870 -0.2952 0.1095
O12 O -1.5424(4) -1.1159(3) -0.4795(3)
H5 H -1.467(4) -1.119(4) -0.451(4)
H6 H -1.583(7) -1.168(3) -0.531(3)
O13 O -1.4223(4) -0.9165(3) -0.3653(3)
H7 H -1.418(9) -0.931(5) -0.318(3)
H8 H -1.397(10) -0.8537(17) -0.343(5)
N4 N -1.6860(4) -1.0005(3) -0.4955(3)
C58 C -1.7035(6) -0.9302(5) -0.4440(5)
H57 H -1.6311 -0.8803 -0.4056
C59 C -1.8241(6) -0.9278(4) -0.4451(5)
H58 H -1.8309 -0.8762 -0.4089
C60 C -1.9338(5) -1.0000(4) -0.4986(4)
C61 C -1.9151(6) -1.0730(4) -0.5498(5)
H59 H -1.9860 -1.1246 -0.5872
C62 C -1.7920(6) -1.0703(4) -0.5462(5)
H60 H -1.7830 -1.1212 -0.5819
Zn2 Zn -1.5000 -1.0000 -0.5000
O12A O -1.4576(4) -0.8841(3) -0.5205(3)
H5A H -1.533(4) -0.881(4) -0.549(4)
H6A H -1.417(7) -0.832(3) -0.469(3)
O13A O -1.5777(4) -1.0835(3) -0.6347(3)
H7A H -1.582(9) -1.069(5) -0.682(3)
H8A H -1.603(10) -1.1463(17) -0.657(5)
N4A N -2.3140(4) -0.9995(3) -0.5045(3)
N4A_2 N -1.3140(4) -0.9995(3) -0.5045(3)
C58A C -2.2965(6) -1.0698(5) -0.5560(5)
H57A H -2.3689 -1.1197 -0.5944
C59A C -2.1759(6) -1.0722(4) -0.5549(5)
H58A H -2.1691 -1.1238 -0.5911
C60A C -2.0662(5) -1.0000(4) -0.5014(4)
C61A C -2.0849(6) -0.9270(4) -0.4502(5)
H59A H -2.0140 -0.8754 -0.4128
C62A C -2.2080(6) -0.9297(4) -0.4538(5)
H60A H -2.2170 -0.8788 -0.4181
Zn2_2 Zn -2.5000 -1.0000 -0.5000
O14 O -1.3413(7) -1.1373(5) -0.4020(4)
H9 H -1.297(10) -1.178(6) -0.415(7)
H10 H -1.384(10) -1.151(7) -0.363(6)
O15 O -1.5246(7) -1.3654(6) -0.5695(8)
H11 H -1.50(3) -1.38(2) -0.524(14)
H12 H -1.47(8) -1.30(2) -0.54(3)
O16 O -1.467(5) -1.343(5) -0.721(3)
H13 H -1.415(4) -1.347(3) -0.675(3)
H14 H -1.414(12) -1.289(7) -0.722(8)
loop_
_geom_bond_atom_site_label_1
_geom_bond_atom_site_label_2
_geom_bond_site_symmetry_1
_geom_bond_site_symmetry_2
Zn1 O7 1_555 1_555
S1 O1 1_555 1_555
S2 O7 1_555 1_555
S3 O4 1_555 1_555
O2 S1 1_555 1_555
O3 S1 1_555 1_555
O5 S3 1_555 1_555
O6 S3 1_555 1_555
O8 S2 1_555 1_555
O9 S2 1_555 1_555
O10 Zn1 1_555 1_555
H1 O10 1_555 1_555
H2 O10 1_555 1_555
O11 Zn1 1_555 1_555
H3 O11 1_555 1_555
H4 O11 1_555 1_555
O12 H5 1_555 1_555
H6 O12 1_555 1_555
O13 H7 1_555 1_555
H8 O13 1_555 1_555
O14 H9 1_555 1_555
H10 O14 1_555 1_555
O15 H11 1_555 1_555
H12 O15 1_555 1_555
O16 H13 1_555 1_555
H14 O16 1_555 1_555
N1 Zn1 1_555 1_555
N2 C46 1_555 1_555
N3 Zn1 1_555 1_555
N4 C58 1_555 1_555
C1 S1 1_555 1_555
C2 C1 1_555 1_555
H15 C2 1_555 1_555
C3 C2 1_555 1_555
H16 C3 1_555 1_555
C4 C3 1_555 1_555
H17 C4 1_555 1_555
C5 C4 1_555 1_555
H18 C5 1_555 1_555
C6 C1 1_555 1_555
C7 C6 1_555 1_555
H19 C7 1_555 1_555
C8 C7 1_555 1_555
H20 C8 1_555 1_555
C9 C8 1_555 1_555
C10 C9 1_555 1_555
H21 C10 1_555 1_555
C11 C10 1_555 1_555
H22 C11 1_555 1_555
C12 C11 1_555 1_555
C13 C12 1_555 1_555
H23 C13 1_555 1_555
C14 C9 1_555 1_555
H24 C14 1_555 1_555
C15 C12 1_555 1_555
C16 C15 1_555 1_555
H25 C16 1_555 1_555
C17 C16 1_555 1_555
H26 C17 1_555 1_555
C18 C17 1_555 1_555
C19 C18 1_555 1_555
H27 C19 1_555 1_555
C20 C15 1_555 1_555
H28 C20 1_555 1_555
C21 C18 1_555 1_555
H29 C21 1_555 1_555
C22 C21 1_555 1_555
H30 C22 1_555 1_555
C23 C22 1_555 1_555
C24 C23 1_555 1_555
H31 C24 1_555 1_555
C25 C24 1_555 1_555
H32 C25 1_555 1_555
C26 C25 1_555 1_555
H33 C26 1_555 1_555
C27 C26 1_555 1_555
H34 C27 1_555 1_555
C28 S2 1_555 1_555
C29 S3 1_555 1_555
C30 C29 1_555 1_555
H35 C30 1_555 1_555
C31 C30 1_555 1_555
H36 C31 1_555 1_555
C32 C31 1_555 1_555
H37 C32 1_555 1_555
C33 C32 1_555 1_555
H38 C33 1_555 1_555
C34 C29 1_555 1_555
C35 C34 1_555 1_555
H39 C35 1_555 1_555
C36 C35 1_555 1_555
H40 C36 1_555 1_555
C37 C36 1_555 1_555
C38 C37 1_555 1_555
H41 C38 1_555 1_555
C39 C38 1_555 1_555
H42 C39 1_555 1_555
C40 C39 1_555 1_555
C41 C40 1_555 1_555
H43 C41 1_555 1_555
C42 C37 1_555 1_555
H44 C42 1_555 1_555
C43 N1 1_555 1_555
H45 C43 1_555 1_555
C44 N1 1_555 1_555
H46 C44 1_555 1_555
C45 C44 1_555 1_555
H47 C45 1_555 1_555
C46 H48 1_555 1_555
C47 C46 1_555 1_555
H49 C47 1_555 1_555
C48 C47 1_555 1_555
C49 C48 1_555 1_555
H50 C49 1_555 1_555
C50 N2 1_555 1_555
H51 C50 1_555 1_555
C51 C45 1_555 1_555
C52 C43 1_555 1_555
H52 C52 1_555 1_555
C53 N3 1_555 1_555
H53 C53 1_555 1_555
C54 C53 1_555 1_555
H54 C54 1_555 1_555
C55 C54 1_555 1_555
C56 C55 1_555 1_555
H55 C56 1_555 1_555
C57 N3 1_555 1_555
H56 C57 1_555 1_555
C58 H57 1_555 1_555
C59 C58 1_555 1_555
H58 C59 1_555 1_555
C60 C59 1_555 1_555
C61 C60 1_555 1_555
H59 C61 1_555 1_555
C62 N4 1_555 1_555
H60 C62 1_555 1_555
Zn2 O12 1_555 1_555
Zn1_2 O7_2 1_555 1_555
Zn1_3 N2 1_555 1_555
Zn1A N3A 1_555 1_555
S1_2 O1_2 1_555 1_555
S2_2 O7_2 1_555 1_555
S3A O4A 1_555 1_555
O2_2 S1_2 1_555 1_555
O3_2 S1_2 1_555 1_555
O5A S3A 1_555 1_555
O6A S3A 1_555 1_555
O8_2 S2_2 1_555 1_555
O9_2 S2_2 1_555 1_555
O10_2 Zn1_2 1_555 1_555
H1_2 O10_2 1_555 1_555
H2_2 O10_2 1_555 1_555
O11_2 Zn1_2 1_555 1_555
H3_2 O11_2 1_555 1_555
H4_2 O11_2 1_555 1_555
O12A Zn2 1_555 1_555
H5A O12A 1_555 1_555
H6A O12A 1_555 1_555
O13A Zn2 1_555 1_555
H7A O13A 1_555 1_555
H8A O13A 1_555 1_555
N1_2 Zn1_2 1_555 1_555
N2_2 Zn1 1_555 1_555
N2_3 Zn1_2 1_555 1_555
N3A C53A 1_555 1_555
N3_2 Zn1_2 1_555 1_555
N4A C58A 1_555 1_555
N4A_2 Zn2 1_555 1_555
C1_2 S1_2 1_555 1_555
C2_2 C1_2 1_555 1_555
H15_2 C2_2 1_555 1_555
C3_2 C2_2 1_555 1_555
H16_2 C3_2 1_555 1_555
C4_2 C3_2 1_555 1_555
H17_2 C4_2 1_555 1_555
C5_2 C4_2 1_555 1_555
H18_2 C5_2 1_555 1_555
C6_2 C1_2 1_555 1_555
C7_2 C6_2 1_555 1_555
H19_2 C7_2 1_555 1_555
C8_2 C7_2 1_555 1_555
H20_2 C8_2 1_555 1_555
C9_2 C8_2 1_555 1_555
C10_2 C9_2 1_555 1_555
H21_2 C10_2 1_555 1_555
C11_2 C10_2 1_555 1_555
H22_2 C11_2 1_555 1_555
C12_2 C11_2 1_555 1_555
C13_2 C12_2 1_555 1_555
H23_2 C13_2 1_555 1_555
C14_2 C9_2 1_555 1_555
H24_2 C14_2 1_555 1_555
C15_2 C12_2 1_555 1_555
C16_2 C15_2 1_555 1_555
H25_2 C16_2 1_555 1_555
C17_2 C16_2 1_555 1_555
H26_2 C17_2 1_555 1_555
C18_2 C17_2 1_555 1_555
C19_2 C18_2 1_555 1_555
H27_2 C19_2 1_555 1_555
C20_2 C15_2 1_555 1_555
H28_2 C20_2 1_555 1_555
C21_2 C18_2 1_555 1_555
H29_2 C21_2 1_555 1_555
C22_2 C21_2 1_555 1_555
H30_2 C22_2 1_555 1_555
C23_2 C22_2 1_555 1_555
C24_2 C23_2 1_555 1_555
H31_2 C24_2 1_555 1_555
C25_2 C24_2 1_555 1_555
H32_2 C25_2 1_555 1_555
C26_2 C25_2 1_555 1_555
H33_2 C26_2 1_555 1_555
C27_2 C26_2 1_555 1_555
H34_2 C27_2 1_555 1_555
C28_2 S2_2 1_555 1_555
C29A S3A 1_555 1_555
C30A C29A 1_555 1_555
H35A C30A 1_555 1_555
C31A C30A 1_555 1_555
H36A C31A 1_555 1_555
C32A C31A 1_555 1_555
H37A C32A 1_555 1_555
C33A C32A 1_555 1_555
H38A C33A 1_555 1_555
C34A C29A 1_555 1_555
C35A C34A 1_555 1_555
H39A C35A 1_555 1_555
C36A C35A 1_555 1_555
H40A C36A 1_555 1_555
C37A C36A 1_555 1_555
C38A C37A 1_555 1_555
H41A C38A 1_555 1_555
C39A C38A 1_555 1_555
H42A C39A 1_555 1_555
C40A C40 1_555 1_555
C41A C40A 1_555 1_555
H43A C41A 1_555 1_555
C42A C37A 1_555 1_555
H44A C42A 1_555 1_555
C43_2 N1_2 1_555 1_555
H45_2 C43_2 1_555 1_555
C44_2 N1_2 1_555 1_555
H46_2 C44_2 1_555 1_555
C45_2 C44_2 1_555 1_555
H47_2 C45_2 1_555 1_555
C46_2 N2_2 1_555 1_555
H48_2 C46_2 1_555 1_555
C47_2 C46_2 1_555 1_555
H49_2 C47_2 1_555 1_555
C48_2 C47_2 1_555 1_555
C49_2 C48_2 1_555 1_555
H50_2 C49_2 1_555 1_555
C50_2 N2_2 1_555 1_555
H51_2 C50_2 1_555 1_555
C51_2 C45_2 1_555 1_555
C52_2 C43_2 1_555 1_555
H52_2 C52_2 1_555 1_555
C53A H53A 1_555 1_555
C54A C53A 1_555 1_555
H54A C54A 1_555 1_555
C55A C55 1_555 1_555
C56A C55A 1_555 1_555
H55A C56A 1_555 1_555
C57A N3A 1_555 1_555
H56A C57A 1_555 1_555
C58A H57A 1_555 1_555
C59A C58A 1_555 1_555
H58A C59A 1_555 1_555
C60A C60 1_555 1_555
C61A C60A 1_555 1_555
H59A C61A 1_555 1_555
C62A N4A 1_555 1_555
H60A C62A 1_555 1_555
Zn2_2 N4A 1_555 1_555
O13 Zn2 1_555 1_555
N4 Zn2 1_555 1_555
C5 C6 1_555 1_555
C13 C14 1_555 1_555
C19 C20 1_555 1_555
C23 C28 1_555 1_555
C27 C28 1_555 1_555
C33 C34 1_555 1_555
C41 C42 1_555 1_555
C48 C51 1_555 1_555
C49 C50 1_555 1_555
C51 C52 1_555 1_555
C56 C57 1_555 1_555
C61 C62 1_555 1_555
C5_2 C6_2 1_555 1_555
C13_2 C14_2 1_555 1_555
C19_2 C20_2 1_555 1_555
C23_2 C28_2 1_555 1_555
C27_2 C28_2 1_555 1_555
C33A C34A 1_555 1_555
C39A C40A 1_555 1_555
C41A C42A 1_555 1_555
C48_2 C51_2 1_555 1_555
C49_2 C50_2 1_555 1_555
C51_2 C52_2 1_555 1_555
C54A C55A 1_555 1_555
C56A C57A 1_555 1_555
C59A C60A 1_555 1_555
C61A C62A 1_555 1_555

#END
