
#######################################################################
#
#                 Cambridge Crystallographic Data Centre
#                                CCDC 
#
#######################################################################
#
# If this CIF has been generated from an entry in the Cambridge 
# Structural Database, then it will include bibliographic, chemical, 
# crystal, experimental, refinement or atomic coordinate data resulting 
# from the CCDC's data processing and validation procedures.
#
#######################################################################

data_QAXLEH
_symmetry_cell_setting           orthorhombic
_symmetry_space_group_name_H-M   'P b c a'
_symmetry_Int_Tables_number      61
_space_group_name_Hall           '-P 2ac 2ab'
loop_
_symmetry_equiv_pos_site_id
_symmetry_equiv_pos_as_xyz
1 x,y,z
2 1/2-x,-y,1/2+z
3 1/2+x,1/2-y,-z
4 -x,1/2+y,1/2-z
5 -x,-y,-z
6 1/2+x,y,1/2-z
7 1/2-x,1/2+y,z
8 x,1/2-y,1/2+z
_cell_length_a                   8.2299(6)
_cell_length_b                   9.3483(7)
_cell_length_c                   17.8999(14)
_cell_angle_alpha                90
_cell_angle_beta                 90
_cell_angle_gamma                90
_cell_volume                     1377.14
loop_
_atom_site_label
_atom_site_type_symbol
_atom_site_fract_x
_atom_site_fract_y
_atom_site_fract_z
Co1 Co 0.0000 0.0000 0.0000
N1 N 0.14909(18) 0.17760(16) 0.01829(8)
N2 N -0.04425(18) 0.04668(16) 0.11580(8)
C1 C 0.0292(2) 0.16530(19) 0.14168(10)
N3 N 0.30780(18) 0.35751(16) 0.02829(9)
C2 C 0.1374(2) 0.23369(19) 0.08694(9)
C3 C -0.1403(2) -0.02362(19) 0.16378(10)
H1 H -0.1931 -0.1062 0.1479
N4 N 0.01399(19) 0.22063(18) 0.20969(9)
C4 C -0.1626(2) 0.0233(2) 0.23600(11)
H2 H -0.2282 -0.0263 0.2695
C5 C -0.0831(2) 0.1478(2) 0.25651(11)
H3 H -0.0975 0.1825 0.3048
N5 N 0.25700(17) 0.25705(15) -0.01818(9)
N6 N 0.23474(18) 0.34611(16) 0.09551(8)
Co1F Co 0.5000 0.5000 0.0000
Co1F_2 Co -0.5000 -0.5000 0.0000
N1D N -0.14909(18) -0.17760(16) -0.01829(8)
N2D N 0.04425(18) -0.04668(16) -0.11580(8)
C1D C -0.0292(2) -0.16530(19) -0.14168(10)
N3D N -0.30780(18) -0.35751(16) -0.02829(9)
N3F N 0.19220(18) -0.14249(16) 0.02829(9)
N3B N -0.19220(18) 0.14249(16) -0.02829(9)
C2D C -0.1374(2) -0.23369(19) -0.08694(9)
C3D C 0.1403(2) 0.02362(19) -0.16378(10)
H1D H 0.1931 0.1062 -0.1479
N4D N -0.01399(19) -0.22063(18) -0.20969(9)
C4D C 0.1626(2) -0.0233(2) -0.23600(11)
H2D H 0.2282 0.0263 -0.2695
C5D C 0.0831(2) -0.1478(2) -0.25651(11)
H3D H 0.0975 -0.1825 -0.3048
N5D N -0.25700(17) -0.25705(15) 0.01818(9)
N6D N -0.23474(18) -0.34611(16) -0.09551(8)
loop_
_geom_bond_atom_site_label_1
_geom_bond_atom_site_label_2
_geom_bond_site_symmetry_1
_geom_bond_site_symmetry_2
Co1 N1 1_555 1_555
N1 C2 1_555 1_555
N2 Co1 1_555 1_555
C1 N2 1_555 1_555
N3 N5 1_555 1_555
C2 C1 1_555 1_555
C3 N2 1_555 1_555
H1 C3 1_555 1_555
N4 C1 1_555 1_555
C4 C3 1_555 1_555
H2 C4 1_555 1_555
C5 N4 1_555 1_555
H3 C5 1_555 1_555
N5 N1 1_555 1_555
N6 N3 1_555 1_555
Co1F N3 1_555 1_555
Co1F_2 N3D 1_555 1_555
N1D Co1 1_555 1_555
N2D Co1 1_555 1_555
C1D N2D 1_555 1_555
N3D N5D 1_555 1_555
N3F Co1 1_555 1_555
N3B Co1 1_555 1_555
C2D N1D 1_555 1_555
C3D N2D 1_555 1_555
H1D C3D 1_555 1_555
N4D C1D 1_555 1_555
C4D C3D 1_555 1_555
H2D C4D 1_555 1_555
C5D N4D 1_555 1_555
H3D C5D 1_555 1_555
N5D N1D 1_555 1_555
N6D N3D 1_555 1_555
C2 N6 1_555 1_555
C4 C5 1_555 1_555
C1D C2D 1_555 1_555
C2D N6D 1_555 1_555
C4D C5D 1_555 1_555

#END
