
#######################################################################
#
#                 Cambridge Crystallographic Data Centre
#                                CCDC 
#
#######################################################################
#
# If this CIF has been generated from an entry in the Cambridge 
# Structural Database, then it will include bibliographic, chemical, 
# crystal, experimental, refinement or atomic coordinate data resulting 
# from the CCDC's data processing and validation procedures.
#
#######################################################################

data_QAXSIT
_symmetry_cell_setting           monoclinic
_symmetry_space_group_name_H-M   'C 2/c'
_symmetry_Int_Tables_number      15
_space_group_name_Hall           '-C 2yn'
loop_
_symmetry_equiv_pos_site_id
_symmetry_equiv_pos_as_xyz
1 x,y,z
2 -x,y,1/2-z
3 1/2+x,1/2+y,z
4 1/2-x,1/2+y,1/2-z
5 -x,-y,-z
6 x,-y,1/2+z
7 1/2-x,1/2-y,-z
8 1/2+x,1/2-y,1/2+z
_cell_length_a                   10.2260(2)
_cell_length_b                   19.9234(2)
_cell_length_c                   35.9064(4)
_cell_angle_alpha                90
_cell_angle_beta                 93.3664(6)
_cell_angle_gamma                90
_cell_volume                     7302.83
loop_
_atom_site_label
_atom_site_type_symbol
_atom_site_fract_x
_atom_site_fract_y
_atom_site_fract_z
S1 S -0.07821(11) 0.21348(6) 0.00917(3)
S2 S 0.16717(11) 0.14416(6) 0.03164(3)
S3 S 0.03486(11) 0.24335(6) -0.07197(3)
S4 S 0.27756(11) 0.17295(6) -0.04854(3)
S5 S -0.20140(11) 0.19419(7) 0.07999(3)
S6 S 0.09453(11) 0.11368(6) 0.10823(3)
S7 S 0.10556(14) 0.26886(7) -0.14861(3)
S8 S 0.40208(12) 0.19069(6) -0.11964(4)
C1 C 0.0759(4) 0.1878(2) -0.00315(11)
C2 C 0.1234(4) 0.2000(2) -0.03702(11)
C3 C -0.0638(4) 0.1809(2) 0.05446(12)
C4 C 0.0490(4) 0.1499(2) 0.06502(11)
C5 C 0.1553(4) 0.2365(2) -0.10470(11)
C6 C 0.2667(4) 0.2056(2) -0.09360(11)
C7 C -0.1399(5) 0.1731(2) 0.12694(13)
H1 H -0.0863 0.2100 0.1368
H2 H -0.2136 0.1685 0.1426
C8 C -0.0602(4) 0.1097(2) 0.12951(13)
H3 H -0.1116 0.0737 0.1178
H4 H -0.0440 0.0983 0.1556
C9 C 0.2521(6) 0.2578(3) -0.17373(14)
H5 H 0.2284 0.2597 -0.2003
H6 H 0.3109 0.2950 -0.1678
C10 C 0.3231(6) 0.1942(3) -0.16559(14)
H7 H 0.3887 0.1883 -0.1838
H8 H 0.2617 0.1572 -0.1685
S9 S 0.52526(11) 0.08852(6) 0.02034(3)
S10 S 0.76200(11) 0.01318(6) 0.04462(3)
S11 S 0.64272(11) 0.11552(6) -0.05907(3)
S12 S 0.88171(11) 0.04124(6) -0.03552(3)
S13 S 0.39477(13) 0.07348(8) 0.08990(4)
S14 S 0.67811(11) -0.01369(7) 0.12093(3)
S15 S 0.73527(14) 0.15494(7) -0.13241(3)
S16 S 1.01454(11) 0.06986(6) -0.10516(3)
C11 C 0.6795(4) 0.0594(2) 0.00959(11)
C12 C 0.7293(4) 0.0716(2) -0.02392(11)
C13 C 0.5327(4) 0.0561(2) 0.06532(11)
C14 C 0.6416(4) 0.0218(2) 0.07709(11)
C15 C 0.7685(4) 0.1149(2) -0.08979(11)
C16 C 0.8787(4) 0.0816(2) -0.07881(11)
C17 C 0.4595(14) 0.0571(10) 0.1372(6)
H9 H 0.5231 0.0915 0.1445
H10 H 0.3887 0.0600 0.1540
C18 C 0.5243(7) -0.0113(4) 0.14171(18)
H11 H 0.4669 -0.0451 0.1302
H12 H 0.5371 -0.0218 0.1681
C19 C 0.8521(15) 0.1235(7) -0.1629(3)
H13 H 0.8078 0.1155 -0.1871
H14 H 0.9174 0.1580 -0.1661
C20 C 0.9207(12) 0.0607(6) -0.15064(19)
H15 H 0.9802 0.0475 -0.1694
H16 H 0.8567 0.0251 -0.1487
Fe1 Fe 1.0000 0.08757(4) 0.2500
C21 C 1.0458(5) 0.2248(2) 0.26814(13)
C22 C 0.7687(5) 0.0253(2) 0.27169(13)
C23 C 0.7879(5) 0.0005(2) 0.23126(13)
O1 O 1.0720(3) 0.16590(16) 0.28068(8)
O2 O 1.0827(4) 0.27800(17) 0.28194(10)
O3 O 0.8514(3) 0.06990(16) 0.28332(8)
O4 O 0.8924(3) 0.02347(15) 0.21753(8)
O5 O 0.6812(3) 0.00081(19) 0.28915(10)
O6 O 0.7072(3) -0.03695(17) 0.21556(10)
K1 K 0.5000 -0.09379(7) 0.2500
Fe1_2 Fe 0.0000 0.08757(4) 0.2500
C21A C 0.9542(5) 0.2248(2) 0.23186(13)
C22A C 0.2313(5) 0.0253(2) 0.22831(13)
C23A C 0.2121(5) 0.0005(2) 0.26874(13)
O1A O 0.9280(3) 0.16590(16) 0.21932(8)
O2A O 0.9173(4) 0.27800(17) 0.21806(10)
O2B O 0.5827(4) -0.22200(17) 0.28194(10)
O2C O 0.4173(4) -0.22200(17) 0.21806(10)
O3A O 0.1486(3) 0.06990(16) 0.21668(8)
O3A_2 O 1.1486(3) 0.06990(16) 0.21668(8)
O4A O 0.1076(3) 0.02347(15) 0.28247(8)
O4A_2 O 1.1076(3) 0.02347(15) 0.28247(8)
O5A O 0.3188(3) 0.00081(19) 0.21085(10)
O6A O 0.2928(3) -0.03695(17) 0.28444(10)
K1B K 1.0000 0.40621(7) 0.2500
I1 I 0.5000 0.36270(3) 0.2500
C24 C 0.5000 0.2584(3) 0.2500
C25 C 0.5941(5) 0.2253(3) 0.23073(14)
H17 H 0.6555 0.2491 0.2179
C26 C 0.5943(6) 0.1568(3) 0.2310(2)
H18 H 0.6571 0.1333 0.2186
C27 C 0.5000 0.1222(4) 0.2500
H19 H 0.5000 0.0755 0.2500
C25A C 0.4059(5) 0.2253(3) 0.26927(14)
H17A H 0.3445 0.2491 0.2821
C26A C 0.4057(6) 0.1568(3) 0.2690(2)
H18A H 0.3429 0.1333 0.2814
C28? C 0.422(2) 0.040(2) 0.1347(12)
C29? C 0.5632(18) 0.0410(12) 0.1465(4)
C30? C 0.828(3) 0.094(2) -0.1592(10)
C31? C 0.974(3) 0.0904(19) -0.1501(6)
H20? H 0.3743 0.0664 0.1522
H21? H 0.3900 -0.0055 0.1351
H22? H 0.5714 0.0286 0.1726
H23? H 0.5937 0.0869 0.1448
H24? H 0.7908 0.0501 -0.1554
H25? H 0.8133 0.1051 -0.1854
H26? H 1.0129 0.1336 -0.1554
H27? H 1.0113 0.0574 -0.1662
loop_
_geom_bond_atom_site_label_1
_geom_bond_atom_site_label_2
_geom_bond_site_symmetry_1
_geom_bond_site_symmetry_2
S1 C1 1_555 1_555
S2 C1 1_555 1_555
S3 C2 1_555 1_555
S4 C2 1_555 1_555
S5 C3 1_555 1_555
S6 C4 1_555 1_555
S7 C5 1_555 1_555
S8 C6 1_555 1_555
C1 C2 1_555 1_555
C3 S1 1_555 1_555
C4 S2 1_555 1_555
C5 S3 1_555 1_555
C6 S4 1_555 1_555
C7 S5 1_555 1_555
H1 C7 1_555 1_555
H2 C7 1_555 1_555
C8 S6 1_555 1_555
H3 C8 1_555 1_555
H4 C8 1_555 1_555
C9 S7 1_555 1_555
H5 C9 1_555 1_555
H6 C9 1_555 1_555
C10 S8 1_555 1_555
H7 C10 1_555 1_555
H8 C10 1_555 1_555
S9 C11 1_555 1_555
S10 C11 1_555 1_555
S11 C12 1_555 1_555
S12 C12 1_555 1_555
S13 C13 1_555 1_555
S14 C14 1_555 1_555
S15 C15 1_555 1_555
S16 C16 1_555 1_555
C11 C12 1_555 1_555
C13 S9 1_555 1_555
C14 S10 1_555 1_555
C15 S11 1_555 1_555
C16 S12 1_555 1_555
C17 S13 1_555 1_555
H9 C17 1_555 1_555
H10 C17 1_555 1_555
C18 S14 1_555 1_555
H11 C18 1_555 1_555
H12 C18 1_555 1_555
C19 S15 1_555 1_555
H13 C19 1_555 1_555
H14 C19 1_555 1_555
C20 S16 1_555 1_555
H15 C20 1_555 1_555
H16 C20 1_555 1_555
Fe1 O1 1_555 1_555
C21 O1 1_555 1_555
C22 C23 1_555 1_555
C23 O4 1_555 1_555
O2 C21 1_555 1_555
O3 Fe1 1_555 1_555
O4 Fe1 1_555 1_555
O5 C22 1_555 1_555
O6 C23 1_555 1_555
I1 C24 1_555 1_555
C24 C25 1_555 1_555
C25 H17 1_555 1_555
C26 C25 1_555 1_555
H18 C26 1_555 1_555
C27 C26 1_555 1_555
H19 C27 1_555 1_555
K1 O5 1_555 1_555
Fe1_2 O3A 1_555 1_555
C21A C21 1_555 1_555
C22A C23A 1_555 1_555
C23A O4A 1_555 1_555
O1A Fe1 1_555 1_555
O2A C21A 1_555 1_555
O2B K1 1_555 1_555
O2C K1 1_555 1_555
O3A C22A 1_555 1_555
O3A_2 Fe1 1_555 1_555
O4A Fe1_2 1_555 1_555
O4A_2 Fe1 1_555 1_555
O5A K1 1_555 1_555
O6A K1 1_555 1_555
C25A C24 1_555 1_555
H17A C25A 1_555 1_555
C26A C27 1_555 1_555
H18A C26A 1_555 1_555
K1B O2 1_555 1_555
C3 C4 1_555 1_555
C5 C6 1_555 1_555
C7 C8 1_555 1_555
C9 C10 1_555 1_555
C13 C14 1_555 1_555
C15 C16 1_555 1_555
C17 C18 1_555 1_555
C19 C20 1_555 1_555
C22 O3 1_555 1_555
O6 K1 1_555 1_555
C21A O1A 1_555 1_555
C22A O5A 1_555 1_555
C23A O6A 1_555 1_555
O2A K1B 1_555 1_555
C25A C26A 1_555 1_555

#END
