
#######################################################################
#
#                 Cambridge Crystallographic Data Centre
#                                CCDC 
#
#######################################################################
#
# If this CIF has been generated from an entry in the Cambridge 
# Structural Database, then it will include bibliographic, chemical, 
# crystal, experimental, refinement or atomic coordinate data resulting 
# from the CCDC's data processing and validation procedures.
#
#######################################################################

data_QAXSIT01
_symmetry_cell_setting           monoclinic
_symmetry_space_group_name_H-M   'C 2/c'
_symmetry_Int_Tables_number      15
_space_group_name_Hall           '-C 2yn'
loop_
_symmetry_equiv_pos_site_id
_symmetry_equiv_pos_as_xyz
1 x,y,z
2 -x,y,1/2-z
3 1/2+x,1/2+y,z
4 1/2-x,1/2+y,1/2-z
5 -x,-y,-z
6 x,-y,1/2+z
7 1/2-x,1/2-y,-z
8 1/2+x,1/2-y,1/2+z
_cell_length_a                   10.1637(3)
_cell_length_b                   19.7251(6)
_cell_length_c                   35.6405(11)
_cell_angle_alpha                90
_cell_angle_beta                 93.895(3)
_cell_angle_gamma                90
_cell_volume                     7128.7
loop_
_atom_site_label
_atom_site_type_symbol
_atom_site_fract_x
_atom_site_fract_y
_atom_site_fract_z
S1 S -0.07958(5) 0.21285(3) 0.008370(14)
S2 S 0.16869(5) 0.14344(3) 0.031635(14)
S3 S 0.03603(5) 0.24484(3) -0.073027(14)
S4 S 0.28018(5) 0.17313(3) -0.048237(14)
S5 S -0.20385(5) 0.19179(3) 0.079209(15)
S6 S 0.09605(5) 0.11195(3) 0.108753(14)
S7 S 0.10953(6) 0.27175(3) -0.149708(15)
S8 S 0.40810(5) 0.19357(3) -0.119118(15)
C1 C 0.07607(19) 0.18711(11) -0.00334(5)
C2 C 0.12475(19) 0.20064(10) -0.03732(5)
C3 C -0.06420(19) 0.17904(10) 0.05403(6)
C4 C 0.04984(19) 0.14749(10) 0.06490(5)
C5 C 0.1574(2) 0.23880(11) -0.10532(5)
C6 C 0.27080(19) 0.20749(11) -0.09351(5)
C7 C -0.1430(2) 0.16942(12) 0.12672(6)
H1 H -0.0888 0.2073 0.1375
H2 H -0.2192 0.1637 0.1423
C8 C -0.0612(2) 0.10510(11) 0.12900(6)
H3 H -0.1124 0.0683 0.1160
H4 H -0.0460 0.0920 0.1558
C9 C 0.2563(2) 0.26028(13) -0.17495(6)
H5 H 0.2314 0.2619 -0.2023
H6 H 0.3171 0.2986 -0.1689
C10 C 0.3289(2) 0.19451(13) -0.16613(6)
H7 H 0.3964 0.1877 -0.1845
H8 H 0.2657 0.1563 -0.1688
S9 S 0.52511(5) 0.08773(3) 0.020303(13)
S10 S 0.76323(5) 0.01124(3) 0.045142(13)
S11 S 0.64197(5) 0.11629(3) -0.059064(13)
S12 S 0.88345(5) 0.04134(3) -0.035344(13)
S13 S 0.39294(5) 0.07077(3) 0.089971(15)
S14 S 0.67952(5) -0.01736(3) 0.121739(15)
S15 S 0.73283(6) 0.15899(3) -0.132378(15)
S16 S 1.01518(5) 0.07235(3) -0.105485(14)
C11 C 0.68005(19) 0.05855(10) 0.01009(5)
C12 C 0.73096(19) 0.07142(10) -0.02376(5)
C13 C 0.53218(19) 0.05396(11) 0.06565(5)
C14 C 0.64216(19) 0.01916(11) 0.07766(5)
C15 C 0.7687(2) 0.11698(11) -0.08988(5)
C16 C 0.88000(19) 0.08321(11) -0.07866(5)
C17 C 0.4558(4) 0.0529(2) 0.13815(10)
H9 H 0.5192 0.0888 0.1466
H10 H 0.3816 0.0542 0.1548
C18 C 0.5229(2) -0.01504(13) 0.14201(7)
H11 H 0.4647 -0.0499 0.1297
H12 H 0.5357 -0.0267 0.1690
C19 C 0.8514(2) 0.12716(15) -0.16343(6)
H13 H 0.8055 0.1193 -0.1885
H14 H 0.9185 0.1628 -0.1665
C20 C 0.9217(3) 0.06255(15) -0.15110(6)
H15 H 0.9827 0.0492 -0.1703
H16 H 0.8561 0.0258 -0.1493
Fe1 Fe 1.0000 0.08345(2) 0.2500
C21 C 1.0473(2) 0.22167(12) 0.26842(6)
C22 C 0.7694(2) 0.01977(12) 0.27212(6)
C23 C 0.7869(2) -0.00497(11) 0.23119(6)
O1 O 1.07467(16) 0.16201(8) 0.28102(4)
O2 O 1.08625(17) 0.27578(9) 0.28204(5)
O3 O 0.85227(15) 0.06584(8) 0.28374(4)
O4 O 0.89113(15) 0.01797(8) 0.21727(4)
O5 O 0.68299(16) -0.00553(9) 0.29002(5)
O6 O 0.70508(16) -0.04299(9) 0.21553(5)
K1 K 0.5000 -0.09834(4) 0.2500
Fe1B Fe 0.5000 -0.41655(2) 0.2500
C21A C 0.9527(2) 0.22167(12) 0.23158(6)
C21B C 0.5473(2) -0.27833(12) 0.26842(6)
C21C C 0.4527(2) -0.27833(12) 0.23158(6)
O1A O 0.92533(16) 0.16201(8) 0.21898(4)
O1B O 0.57467(16) -0.33799(8) 0.28102(4)
O1C O 0.42533(16) -0.33799(8) 0.21898(4)
O2A O 0.91375(17) 0.27578(9) 0.21796(5)
O2B O 0.58625(17) -0.22422(9) 0.28204(5)
O2C O 0.41375(17) -0.22422(9) 0.21796(5)
O3A O 1.14773(15) 0.06584(8) 0.21626(4)
O4A O 1.10887(15) 0.01797(8) 0.28273(4)
O5A O 0.31701(16) -0.00553(9) 0.20998(5)
O6A O 0.29492(16) -0.04299(9) 0.28447(5)
K1B K 1.0000 0.40166(4) 0.2500
I1 I 0.5000 0.358696(13) 0.2500
C24 C 0.5000 0.25311(18) 0.2500
C25 C 0.5934(3) 0.21860(14) 0.23059(7)
H17 H 0.6568 0.2428 0.2175
C26 C 0.5923(3) 0.14830(15) 0.23070(10)
H18 H 0.6551 0.1238 0.2175
C27 C 0.5000 0.1140(2) 0.2500
H19 H 0.5000 0.0659 0.2500
C25A C 0.4066(3) 0.21860(14) 0.26941(7)
H17A H 0.3432 0.2428 0.2825
C26A C 0.4077(3) 0.14830(15) 0.26930(10)
H18A H 0.3449 0.1238 0.2825
C28? C 0.420(2) 0.0330(15) 0.1317(7)
C29? C 0.5644(17) 0.0387(9) 0.1471(4)
C30? C 0.830(2) 0.0910(14) -0.1588(6)
C31? C 0.977(3) 0.0902(14) -0.1501(7)
H20? H 0.3622 0.0541 0.1499
H21? H 0.3951 -0.0154 0.1293
H22? H 0.5705 0.0265 0.1741
H23? H 0.5934 0.0864 0.1450
H24? H 0.7948 0.0457 -0.1529
H25? H 0.8126 0.0983 -0.1862
H26? H 1.0136 0.1350 -0.1561
H27? H 1.0169 0.0559 -0.1661
loop_
_geom_bond_atom_site_label_1
_geom_bond_atom_site_label_2
_geom_bond_site_symmetry_1
_geom_bond_site_symmetry_2
S1 C1 1_555 1_555
S2 C1 1_555 1_555
S3 C2 1_555 1_555
S4 C2 1_555 1_555
S5 C3 1_555 1_555
S6 C4 1_555 1_555
S7 C5 1_555 1_555
S8 C6 1_555 1_555
C1 C2 1_555 1_555
C3 S1 1_555 1_555
C4 S2 1_555 1_555
C5 S3 1_555 1_555
C6 S4 1_555 1_555
C7 S5 1_555 1_555
H1 C7 1_555 1_555
H2 C7 1_555 1_555
C8 S6 1_555 1_555
H3 C8 1_555 1_555
H4 C8 1_555 1_555
C9 S7 1_555 1_555
H5 C9 1_555 1_555
H6 C9 1_555 1_555
C10 S8 1_555 1_555
H7 C10 1_555 1_555
H8 C10 1_555 1_555
S9 C11 1_555 1_555
S10 C11 1_555 1_555
S11 C12 1_555 1_555
S12 C12 1_555 1_555
S13 C13 1_555 1_555
S14 C14 1_555 1_555
S15 C15 1_555 1_555
S16 C16 1_555 1_555
C11 C12 1_555 1_555
C13 S9 1_555 1_555
C14 S10 1_555 1_555
C15 S11 1_555 1_555
C16 S12 1_555 1_555
C17 S13 1_555 1_555
H9 C17 1_555 1_555
H10 C17 1_555 1_555
C18 S14 1_555 1_555
H11 C18 1_555 1_555
H12 C18 1_555 1_555
C19 S15 1_555 1_555
H13 C19 1_555 1_555
H14 C19 1_555 1_555
C20 S16 1_555 1_555
H15 C20 1_555 1_555
H16 C20 1_555 1_555
Fe1 O1 1_555 1_555
C21 O1 1_555 1_555
C22 C23 1_555 1_555
C23 O4 1_555 1_555
O2 C21 1_555 1_555
O3 Fe1 1_555 1_555
O4 Fe1 1_555 1_555
O5 C22 1_555 1_555
O6 C23 1_555 1_555
I1 C24 1_555 1_555
C24 C25 1_555 1_555
C25 H17 1_555 1_555
C26 C25 1_555 1_555
H18 C26 1_555 1_555
C27 C26 1_555 1_555
H19 C27 1_555 1_555
K1 O5 1_555 1_555
Fe1B O1B 1_555 1_555
C21A C21 1_555 1_555
C21B C21C 1_555 1_555
C21C O1C 1_555 1_555
O1A Fe1 1_555 1_555
O1B C21B 1_555 1_555
O1C Fe1B 1_555 1_555
O2A C21A 1_555 1_555
O2B K1 1_555 1_555
O2C K1 1_555 1_555
O3A Fe1 1_555 1_555
O4A Fe1 1_555 1_555
O5A K1 1_555 1_555
O6A K1 1_555 1_555
C25A C24 1_555 1_555
H17A C25A 1_555 1_555
C26A C27 1_555 1_555
H18A C26A 1_555 1_555
K1B O2 1_555 1_555
C3 C4 1_555 1_555
C5 C6 1_555 1_555
C7 C8 1_555 1_555
C9 C10 1_555 1_555
C13 C14 1_555 1_555
C15 C16 1_555 1_555
C17 C18 1_555 1_555
C19 C20 1_555 1_555
C22 O3 1_555 1_555
O6 K1 1_555 1_555
C21A O1A 1_555 1_555
C21B O2B 1_555 1_555
C21C O2C 1_555 1_555
O2A K1B 1_555 1_555
C25A C26A 1_555 1_555

#END
