
#######################################################################
#
#                 Cambridge Crystallographic Data Centre
#                                CCDC 
#
#######################################################################
#
# If this CIF has been generated from an entry in the Cambridge 
# Structural Database, then it will include bibliographic, chemical, 
# crystal, experimental, refinement or atomic coordinate data resulting 
# from the CCDC's data processing and validation procedures.
#
#######################################################################

data_QAXVIV
_symmetry_cell_setting           triclinic
_symmetry_space_group_name_H-M   'P -1'
_symmetry_Int_Tables_number      2
_space_group_name_Hall           '-P 1'
loop_
_symmetry_equiv_pos_site_id
_symmetry_equiv_pos_as_xyz
1 x,y,z
2 -x,-y,-z
_cell_length_a                   9.6538(3)
_cell_length_b                   10.0533(2)
_cell_length_c                   16.0045(5)
_cell_angle_alpha                76.5810(10)
_cell_angle_beta                 81.4980(10)
_cell_angle_gamma                73.6290(10)
_cell_volume                     1443.95
loop_
_atom_site_label
_atom_site_type_symbol
_atom_site_fract_x
_atom_site_fract_y
_atom_site_fract_z
O3 O -0.4281(9) 1.1249(8) -0.0053(5)
C30 C -0.5521(7) 1.1200(7) -0.0027(4)
H34 H -0.5827 1.1779 -0.0591
H35 H -0.6029 1.1786 0.0401
C31 C -0.3724(5) 0.9890(5) -0.0126(3)
H36 H -0.2923 0.9517 0.0255
H37 H -0.3262 0.9925 -0.0723
O3A O -0.5719(9) 0.8751(8) 0.0053(5)
C30A C -0.4479(7) 0.8800(7) 0.0027(4)
H34A H -0.4173 0.8221 0.0591
H35A H -0.3971 0.8214 -0.0401
C31A C -0.6276(5) 1.0110(5) 0.0126(3)
H36A H -0.7077 1.0483 -0.0255
H37A H -0.6738 1.0075 0.0723
S1 S -0.80842(6) 0.51103(6) 0.37724(4)
S2 S -0.79083(6) 0.20298(7) 0.40056(4)
N1 N -1.0930(2) 0.5810(2) 0.39078(14)
H1 H -1.115(3) 0.601(3) 0.441(2)
N2 N -1.3926(2) 0.2382(2) 0.40038(16)
C1 C -0.9804(3) 0.6451(2) 0.34518(15)
C2 C -1.0455(2) 0.4288(2) 0.39763(14)
C3 C -0.8979(3) 0.3741(2) 0.39231(15)
C4 C -0.9840(3) 0.6657(2) 0.24776(15)
C5 C -0.8754(3) 0.7124(3) 0.19079(16)
H2 H -0.7955 0.7257 0.2131
C6 C -0.8820(3) 0.7400(3) 0.10225(17)
H3 H -0.8066 0.7719 0.0650
C7 C -0.9972(3) 0.7216(3) 0.06712(16)
C8 C -1.1025(3) 0.6711(3) 0.12402(17)
H4 H -1.1806 0.6545 0.1017
C9 C -1.0970(3) 0.6443(3) 0.21280(16)
H5 H -1.1717 0.6109 0.2500
C10 C -1.0097(3) 0.7588(3) -0.02750(17)
C11 C -0.9668(4) 0.8763(3) -0.07770(18)
H6 H -0.9250 0.9295 -0.0514
C12 C -0.9841(4) 0.9167(4) -0.1651(2)
H7 H -0.9544 0.9971 -0.1982
C13 C -1.0438(4) 0.8410(4) -0.2041(2)
H8 H -1.0579 0.8705 -0.2638
C14 C -1.0830(4) 0.7232(4) -0.1574(2)
H9 H -1.1207 0.6688 -0.1852
C15 C -1.0680(3) 0.6821(4) -0.0685(2)
H10 H -1.0978 0.6013 -0.0362
C16 C -1.1596(2) 0.3582(3) 0.40428(15)
C17 C -1.3046(3) 0.4393(3) 0.40121(19)
H11 H -1.3277 0.5378 0.4007
C18 C -1.4129(3) 0.3759(3) 0.3989(2)
H12 H -1.5091 0.4343 0.3961
C19 C -1.2553(3) 0.1588(3) 0.40910(18)
H13 H -1.2372 0.0597 0.4134
C20 C -1.1392(3) 0.2117(3) 0.41228(16)
H14 H -1.0456 0.1493 0.4199
C21 C -0.9922(3) 0.7856(3) 0.37101(17)
H15 H -1.0829 0.8535 0.3533
H16 H -0.9100 0.8230 0.3426
H17 H -0.9912 0.7701 0.4337
Li1 Li -0.5408(5) 0.1905(5) 0.3386(3)
O1 O -0.5082(2) 0.2886(2) 0.21819(14)
O2 O -0.4584(2) -0.0069(2) 0.32751(14)
C22 C -0.5933(4) 0.4097(4) 0.1699(2)
H18 H -0.6808 0.4523 0.2051
H19 H -0.6230 0.3890 0.1187
C23 C -0.4903(6) 0.5060(5) 0.1440(5)
H20 H -0.5109 0.5701 0.0876
H21 H -0.4984 0.5635 0.1879
C24 C -0.3464(6) 0.4078(5) 0.1387(5)
H22 H -0.3066 0.4121 0.0778
H23 H -0.2794 0.4327 0.1701
C25 C -0.3629(4) 0.2671(5) 0.1774(3)
H24 H -0.3491 0.2097 0.1328
H25 H -0.2915 0.2184 0.2203
C26 C -0.4688(6) -0.0546(5) 0.2517(3)
H26 H -0.3709 -0.0958 0.2258
H27 H -0.5190 0.0254 0.2086
C27 C -0.5525(6) -0.1636(5) 0.2783(3)
H28 H -0.4936 -0.2550 0.2643
H29 H -0.6420 -0.1335 0.2481
C28 C -0.5886(4) -0.1777(4) 0.3731(3)
H30 H -0.5764 -0.2781 0.4021
H31 H -0.6893 -0.1240 0.3867
C29 C -0.4811(4) -0.1158(3) 0.3995(2)
H32 H -0.5203 -0.0759 0.4518
H33 H -0.3892 -0.1888 0.4115
S1_2 S 0.19158(6) 0.51103(6) 0.37724(4)
S2_2 S 0.20917(6) 0.20298(7) 0.40056(4)
N1_2 N -0.0930(2) 0.5810(2) 0.39078(14)
H1_2 H -0.115(3) 0.601(3) 0.441(2)
N2_2 N -0.3926(2) 0.2382(2) 0.40038(16)
N2_3 N 0.6074(2) 0.2382(2) 0.40038(16)
C1_2 C 0.0196(3) 0.6451(2) 0.34518(15)
C2_2 C -0.0455(2) 0.4288(2) 0.39763(14)
C3_2 C 0.1021(3) 0.3741(2) 0.39231(15)
C4_2 C 0.0160(3) 0.6657(2) 0.24776(15)
C5_2 C 0.1246(3) 0.7124(3) 0.19079(16)
H2_2 H 0.2045 0.7257 0.2131
C6_2 C 0.1180(3) 0.7400(3) 0.10225(17)
H3_2 H 0.1934 0.7719 0.0650
C7_2 C 0.0028(3) 0.7216(3) 0.06712(16)
C8_2 C -0.1025(3) 0.6711(3) 0.12402(17)
H4_2 H -0.1806 0.6545 0.1017
C9_2 C -0.0970(3) 0.6443(3) 0.21280(16)
H5_2 H -0.1717 0.6109 0.2500
C10_2 C -0.0097(3) 0.7588(3) -0.02750(17)
C11_2 C 0.0332(4) 0.8763(3) -0.07770(18)
H6_2 H 0.0750 0.9295 -0.0514
C12_2 C 0.0159(4) 0.9167(4) -0.1651(2)
H7_2 H 0.0456 0.9971 -0.1982
C13_2 C -0.0438(4) 0.8410(4) -0.2041(2)
H8_2 H -0.0579 0.8705 -0.2638
C14_2 C -0.0830(4) 0.7232(4) -0.1574(2)
H9_2 H -0.1207 0.6688 -0.1852
C15_2 C -0.0680(3) 0.6821(4) -0.0685(2)
H10_2 H -0.0978 0.6013 -0.0362
C16_2 C -0.1596(2) 0.3582(3) 0.40428(15)
C17_2 C -0.3046(3) 0.4393(3) 0.40121(19)
H11_2 H -0.3277 0.5378 0.4007
C18_2 C -0.4129(3) 0.3759(3) 0.3989(2)
H12_2 H -0.5091 0.4343 0.3961
C19_2 C -0.2553(3) 0.1588(3) 0.40910(18)
H13_2 H -0.2372 0.0597 0.4134
C20_2 C -0.1392(3) 0.2117(3) 0.41228(16)
H14_2 H -0.0456 0.1493 0.4199
C21_2 C 0.0078(3) 0.7856(3) 0.37101(17)
H15_2 H -0.0829 0.8535 0.3533
H16_2 H 0.0900 0.8230 0.3426
H17_2 H 0.0088 0.7701 0.4337
Li1_2 Li 0.4592(5) 0.1905(5) 0.3386(3)
Li1_3 Li -1.5408(5) 0.1905(5) 0.3386(3)
O1_2 O 0.4918(2) 0.2886(2) 0.21819(14)
O2_2 O 0.5416(2) -0.0069(2) 0.32751(14)
C22_2 C 0.4067(4) 0.4097(4) 0.1699(2)
H18_2 H 0.3192 0.4523 0.2051
H19_2 H 0.3770 0.3890 0.1187
C23_2 C 0.5097(6) 0.5060(5) 0.1440(5)
H20_2 H 0.4891 0.5701 0.0876
H21_2 H 0.5016 0.5635 0.1879
C24_2 C 0.6536(6) 0.4078(5) 0.1387(5)
H22_2 H 0.6934 0.4121 0.0778
H23_2 H 0.7206 0.4327 0.1701
C25_2 C 0.6371(4) 0.2671(5) 0.1774(3)
H24_2 H 0.6509 0.2097 0.1328
H25_2 H 0.7085 0.2184 0.2203
C26_2 C 0.5312(6) -0.0546(5) 0.2517(3)
H26_2 H 0.6291 -0.0958 0.2258
H27_2 H 0.4810 0.0254 0.2086
C27_2 C 0.4475(6) -0.1636(5) 0.2783(3)
H28_2 H 0.5064 -0.2550 0.2643
H29_2 H 0.3580 -0.1335 0.2481
C28_2 C 0.4114(4) -0.1777(4) 0.3731(3)
H30_2 H 0.4236 -0.2781 0.4021
H31_2 H 0.3107 -0.1240 0.3867
C29_2 C 0.5189(4) -0.1158(3) 0.3995(2)
H32_2 H 0.4797 -0.0759 0.4518
H33_2 H 0.6108 -0.1888 0.4115
loop_
_geom_bond_atom_site_label_1
_geom_bond_atom_site_label_2
_geom_bond_site_symmetry_1
_geom_bond_site_symmetry_2
S1 C1 1_555 1_555
S2 C3 1_555 1_555
N1 H1 1_555 1_555
N2 C18 1_555 1_555
C1 N1 1_555 1_555
C2 N1 1_555 1_555
C3 S1 1_555 1_555
C4 C1 1_555 1_555
C5 C4 1_555 1_555
H2 C5 1_555 1_555
C6 C5 1_555 1_555
H3 C6 1_555 1_555
C7 C6 1_555 1_555
C8 C7 1_555 1_555
H4 C8 1_555 1_555
C9 C4 1_555 1_555
H5 C9 1_555 1_555
C10 C7 1_555 1_555
C11 C10 1_555 1_555
H6 C11 1_555 1_555
C12 C11 1_555 1_555
H7 C12 1_555 1_555
C13 C12 1_555 1_555
H8 C13 1_555 1_555
C14 C13 1_555 1_555
H9 C14 1_555 1_555
C15 C10 1_555 1_555
H10 C15 1_555 1_555
C16 C2 1_555 1_555
C17 C16 1_555 1_555
H11 C17 1_555 1_555
C18 C17 1_555 1_555
H12 C18 1_555 1_555
C19 N2 1_555 1_555
H13 C19 1_555 1_555
C20 C16 1_555 1_555
H14 C20 1_555 1_555
C21 C1 1_555 1_555
H15 C21 1_555 1_555
H16 C21 1_555 1_555
H17 C21 1_555 1_555
Li1 S2 1_555 1_555
O1 Li1 1_555 1_555
O2 Li1 1_555 1_555
C22 O1 1_555 1_555
H18 C22 1_555 1_555
H19 C22 1_555 1_555
C23 C22 1_555 1_555
H20 C23 1_555 1_555
H21 C23 1_555 1_555
C24 C23 1_555 1_555
H22 C24 1_555 1_555
H23 C24 1_555 1_555
C25 O1 1_555 1_555
H24 C25 1_555 1_555
H25 C25 1_555 1_555
C26 O2 1_555 1_555
H26 C26 1_555 1_555
H27 C26 1_555 1_555
C27 C26 1_555 1_555
H28 C27 1_555 1_555
H29 C27 1_555 1_555
C28 C27 1_555 1_555
H30 C28 1_555 1_555
H31 C28 1_555 1_555
C29 O2 1_555 1_555
H32 C29 1_555 1_555
H33 C29 1_555 1_555
O3 C30 1_555 1_555
C30 H34 1_555 1_555
H35 C30 1_555 1_555
C31 O3 1_555 1_555
H36 C31 1_555 1_555
H37 C31 1_555 1_555
S1_2 C1_2 1_555 1_555
S2_2 C3_2 1_555 1_555
N1_2 H1_2 1_555 1_555
N2_2 Li1 1_555 1_555
N2_3 Li1_2 1_555 1_555
C1_2 N1_2 1_555 1_555
C2_2 N1_2 1_555 1_555
C3_2 S1_2 1_555 1_555
C4_2 C1_2 1_555 1_555
C5_2 C4_2 1_555 1_555
H2_2 C5_2 1_555 1_555
C6_2 C5_2 1_555 1_555
H3_2 C6_2 1_555 1_555
C7_2 C6_2 1_555 1_555
C8_2 C7_2 1_555 1_555
H4_2 C8_2 1_555 1_555
C9_2 C4_2 1_555 1_555
H5_2 C9_2 1_555 1_555
C10_2 C7_2 1_555 1_555
C11_2 C10_2 1_555 1_555
H6_2 C11_2 1_555 1_555
C12_2 C11_2 1_555 1_555
H7_2 C12_2 1_555 1_555
C13_2 C12_2 1_555 1_555
H8_2 C13_2 1_555 1_555
C14_2 C13_2 1_555 1_555
H9_2 C14_2 1_555 1_555
C15_2 C10_2 1_555 1_555
H10_2 C15_2 1_555 1_555
C16_2 C2_2 1_555 1_555
C17_2 C16_2 1_555 1_555
H11_2 C17_2 1_555 1_555
C18_2 N2_2 1_555 1_555
H12_2 C18_2 1_555 1_555
C19_2 N2_2 1_555 1_555
H13_2 C19_2 1_555 1_555
C20_2 C16_2 1_555 1_555
H14_2 C20_2 1_555 1_555
C21_2 C1_2 1_555 1_555
H15_2 C21_2 1_555 1_555
H16_2 C21_2 1_555 1_555
H17_2 C21_2 1_555 1_555
Li1_2 S2_2 1_555 1_555
Li1_3 N2 1_555 1_555
O1_2 Li1_2 1_555 1_555
O2_2 Li1_2 1_555 1_555
C22_2 O1_2 1_555 1_555
H18_2 C22_2 1_555 1_555
H19_2 C22_2 1_555 1_555
C23_2 C22_2 1_555 1_555
H20_2 C23_2 1_555 1_555
H21_2 C23_2 1_555 1_555
C24_2 C23_2 1_555 1_555
H22_2 C24_2 1_555 1_555
H23_2 C24_2 1_555 1_555
C25_2 O1_2 1_555 1_555
H24_2 C25_2 1_555 1_555
H25_2 C25_2 1_555 1_555
C26_2 O2_2 1_555 1_555
H26_2 C26_2 1_555 1_555
H27_2 C26_2 1_555 1_555
C27_2 C26_2 1_555 1_555
H28_2 C27_2 1_555 1_555
H29_2 C27_2 1_555 1_555
C28_2 C27_2 1_555 1_555
H30_2 C28_2 1_555 1_555
H31_2 C28_2 1_555 1_555
C29_2 O2_2 1_555 1_555
H32_2 C29_2 1_555 1_555
H33_2 C29_2 1_555 1_555
O3A C30A 1_555 1_555
C30A C31 1_555 1_555
H34A C30A 1_555 1_555
H35A C30A 1_555 1_555
C31A C30 1_555 1_555
H36A C31A 1_555 1_555
H37A C31A 1_555 1_555
C2 C3 1_555 1_555
C8 C9 1_555 1_555
C14 C15 1_555 1_555
C19 C20 1_555 1_555
C24 C25 1_555 1_555
C28 C29 1_555 1_555
C2_2 C3_2 1_555 1_555
C8_2 C9_2 1_555 1_555
C14_2 C15_2 1_555 1_555
C17_2 C18_2 1_555 1_555
C19_2 C20_2 1_555 1_555
C24_2 C25_2 1_555 1_555
C28_2 C29_2 1_555 1_555
O3A C31A 1_555 1_555

#END
