
#######################################################################
#
#                 Cambridge Crystallographic Data Centre
#                                CCDC 
#
#######################################################################
#
# If this CIF has been generated from an entry in the Cambridge 
# Structural Database, then it will include bibliographic, chemical, 
# crystal, experimental, refinement or atomic coordinate data resulting 
# from the CCDC's data processing and validation procedures.
#
#######################################################################

data_QAXXUJ
_symmetry_cell_setting           monoclinic
_symmetry_space_group_name_H-M   'C 2/c'
_symmetry_Int_Tables_number      15
_space_group_name_Hall           '-C 2yn'
loop_
_symmetry_equiv_pos_site_id
_symmetry_equiv_pos_as_xyz
1 x,y,z
2 1/2+x,1/2+y,z
3 -x,y,1/2-z
4 1/2-x,1/2+y,1/2-z
5 -x,-y,-z
6 1/2-x,1/2-y,-z
7 x,-y,1/2+z
8 1/2+x,1/2-y,1/2+z
_cell_length_a                   8.9116(18)
_cell_length_b                   16.498(2)
_cell_length_c                   7.7768(14)
_cell_angle_alpha                90
_cell_angle_beta                 101.265(15)
_cell_angle_gamma                90
_cell_volume                     1121.34
loop_
_atom_site_label
_atom_site_type_symbol
_atom_site_fract_x
_atom_site_fract_y
_atom_site_fract_z
Hg1 Hg 0.0000 0.397064(19) 0.2500
F1 F -0.2679(15) 0.4617(7) 0.0165(14)
F2 F -0.2382(7) 0.3393(4) -0.0333(8)
F3 F -0.1032(13) 0.4261(8) -0.1220(9)
N1 N 0.1776(8) 0.2866(4) 0.1344(8)
H1 H 0.218(11) 0.265(6) 0.217(13)
C1 C -0.1640(10) 0.4074(5) 0.0161(10)
C2 C 0.2879(10) 0.3307(5) 0.0537(11)
H2 H 0.346(10) 0.367(6) 0.140(12)
H3 H 0.233(11) 0.364(6) -0.040(13)
C3 C 0.1015(9) 0.2237(5) 0.0200(12)
H4 H 0.032(10) 0.249(5) -0.077(12)
H5 H 0.042(10) 0.191(6) 0.085(11)
Hg1G Hg 0.5000 0.102936(19) -0.2500
F1B F 0.2679(15) 0.4617(7) 0.4835(14)
F2B F 0.2382(7) 0.3393(4) 0.5333(8)
F3B F 0.1032(13) 0.4261(8) 0.6220(9)
N1E N 0.3224(8) 0.2134(4) -0.1344(8)
N1B N -0.1776(8) 0.2866(4) 0.3656(8)
H1E H 0.282(11) 0.235(6) -0.217(13)
H1B H -0.218(11) 0.265(6) 0.283(13)
C1B C 0.1640(10) 0.4074(5) 0.4839(10)
C2E C 0.2121(10) 0.1693(5) -0.0537(11)
H2E H 0.154(10) 0.133(6) -0.140(12)
H3E H 0.267(11) 0.136(6) 0.040(13)
C3E C 0.3985(9) 0.2763(5) -0.0200(12)
H4E H 0.468(10) 0.251(5) 0.077(12)
H5E H 0.458(10) 0.309(6) -0.085(11)
loop_
_geom_bond_atom_site_label_1
_geom_bond_atom_site_label_2
_geom_bond_site_symmetry_1
_geom_bond_site_symmetry_2
Hg1 N1 1_555 1_555
F1 C1 1_555 1_555
F2 C1 1_555 1_555
F3 C1 1_555 1_555
N1 H1 1_555 1_555
C1 Hg1 1_555 1_555
C2 N1 1_555 1_555
H2 C2 1_555 1_555
H3 C2 1_555 1_555
C3 N1 1_555 1_555
H4 C3 1_555 1_555
H5 C3 1_555 1_555
Hg1G N1E 1_555 1_555
F1B C1B 1_555 1_555
F2B C1B 1_555 1_555
F3B C1B 1_555 1_555
N1E H1E 1_555 1_555
N1B Hg1 1_555 1_555
H1B N1B 1_555 1_555
C1B Hg1 1_555 1_555
C2E C3 1_555 1_555
H2E C2E 1_555 1_555
H3E C2E 1_555 1_555
C3E C2 1_555 1_555
H4E C3E 1_555 1_555
H5E C3E 1_555 1_555
N1E C2E 1_555 1_555
N1E C3E 1_555 1_555

#END
