
#######################################################################
#
#                 Cambridge Crystallographic Data Centre
#                                CCDC 
#
#######################################################################
#
# If this CIF has been generated from an entry in the Cambridge 
# Structural Database, then it will include bibliographic, chemical, 
# crystal, experimental, refinement or atomic coordinate data resulting 
# from the CCDC's data processing and validation procedures.
#
#######################################################################

data_QAXYAQ
_symmetry_cell_setting           triclinic
_symmetry_space_group_name_H-M   'P -1'
_symmetry_Int_Tables_number      2
_space_group_name_Hall           '-P 1'
loop_
_symmetry_equiv_pos_site_id
_symmetry_equiv_pos_as_xyz
1 x,y,z
2 -x,-y,-z
_cell_length_a                   5.9059(13)
_cell_length_b                   7.3855(18)
_cell_length_c                   9.195(2)
_cell_angle_alpha                88.96(2)
_cell_angle_beta                 82.80(2)
_cell_angle_gamma                78.214(18)
_cell_volume                     389.505
loop_
_atom_site_label
_atom_site_type_symbol
_atom_site_fract_x
_atom_site_fract_y
_atom_site_fract_z
Hg1 Hg 0.17681(6) 0.65928(5) 0.19157(4)
S1 S -0.0490(4) 0.7639(4) -0.0114(3)
C1 C -0.3175(16) 0.8112(11) 0.0784(9)
N1 N -0.5070(15) 0.8448(13) 0.1369(9)
S2 S 0.4582(5) 0.3725(3) 0.2308(3)
C2 C 0.6504(15) 0.4626(12) 0.3104(10)
N2 N 0.7905(16) 0.5148(12) 0.3637(10)
N3 N 0.0579(12) 0.8328(10) 0.4072(8)
H1 H 0.041(18) 0.747(15) 0.467(12)
C3 C 0.2377(14) 0.9144(12) 0.4632(10)
H2 H 0.2923 0.9971 0.3901
H3 H 0.3692 0.8165 0.4788
C4 C -0.1494(15) 0.9789(13) 0.3937(10)
H4 H -0.2723 0.9233 0.3647
H5 H -0.1111 1.0641 0.3175
Hg1_2 Hg 1.17681(6) 0.65928(5) 0.19157(4)
Hg1_3 Hg -0.82319(6) 0.65928(5) 0.19157(4)
Hg1A Hg -0.17681(6) 1.34072(5) 0.80843(4)
S1_2 S 0.9510(4) 0.7639(4) -0.0114(3)
C1_2 C 0.6825(16) 0.8112(11) 0.0784(9)
N1_2 N 0.4930(15) 0.8448(13) 0.1369(9)
N1_3 N 1.4930(15) 0.8448(13) 0.1369(9)
S2_2 S 1.4582(5) 0.3725(3) 0.2308(3)
C2_2 C 1.6504(15) 0.4626(12) 0.3104(10)
N2_2 N 1.7905(16) 0.5148(12) 0.3637(10)
N3A N -0.0579(12) 1.1672(10) 0.5928(8)
N3_2 N 1.0579(12) 0.8328(10) 0.4072(8)
H1A H -0.041(18) 1.253(15) 0.533(12)
H1_2 H 1.041(18) 0.747(15) 0.467(12)
C3A C -0.2377(14) 1.0856(12) 0.5368(10)
H2A H -0.2923 1.0029 0.6099
H3A H -0.3692 1.1835 0.5212
C4A C 0.1494(15) 1.0211(13) 0.6063(10)
H4A H 0.2723 1.0767 0.6353
H5A H 0.1111 0.9359 0.6825
loop_
_geom_bond_atom_site_label_1
_geom_bond_atom_site_label_2
_geom_bond_site_symmetry_1
_geom_bond_site_symmetry_2
Hg1 S1 1_555 1_555
S1 C1 1_555 1_555
C1 N1 1_555 1_555
N1 Hg1_3 1_555 1_555
S2 Hg1 1_555 1_555
C2 S2 1_555 1_555
N2 C2 1_555 1_555
N3 Hg1 1_555 1_555
H1 N3 1_555 1_555
C3 N3 1_555 1_555
H2 C3 1_555 1_555
H3 C3 1_555 1_555
C4 N3 1_555 1_555
H4 C4 1_555 1_555
H5 C4 1_555 1_555
Hg1_2 S1_2 1_555 1_555
Hg1A N3A 1_555 1_555
S1_2 C1_2 1_555 1_555
C1_2 N1_2 1_555 1_555
N1_2 Hg1 1_555 1_555
N1_3 Hg1_2 1_555 1_555
S2_2 Hg1_2 1_555 1_555
C2_2 S2_2 1_555 1_555
N2_2 C2_2 1_555 1_555
N3A H1A 1_555 1_555
N3_2 Hg1_2 1_555 1_555
H1_2 N3_2 1_555 1_555
C3A C4 1_555 1_555
H2A C3A 1_555 1_555
H3A C3A 1_555 1_555
C4A C3 1_555 1_555
H4A C4A 1_555 1_555
H5A C4A 1_555 1_555
N3A C3A 1_555 1_555
N3A C4A 1_555 1_555

#END
