
#######################################################################
#
#                 Cambridge Crystallographic Data Centre
#                                CCDC 
#
#######################################################################
#
# If this CIF has been generated from an entry in the Cambridge 
# Structural Database, then it will include bibliographic, chemical, 
# crystal, experimental, refinement or atomic coordinate data resulting 
# from the CCDC's data processing and validation procedures.
#
#######################################################################

data_QAXZEU01
_symmetry_cell_setting           monoclinic
_symmetry_space_group_name_H-M   'P 21/n'
_symmetry_Int_Tables_number      14
_space_group_name_Hall           '-P 2yn'
loop_
_symmetry_equiv_pos_site_id
_symmetry_equiv_pos_as_xyz
1 x,y,z
2 1/2-x,1/2+y,1/2-z
3 -x,-y,-z
4 1/2+x,1/2-y,1/2+z
_cell_length_a                   8.5644(19)
_cell_length_b                   16.354(2)
_cell_length_c                   15.510(2)
_cell_angle_alpha                90
_cell_angle_beta                 93.811(17)
_cell_angle_gamma                90
_cell_volume                     2167.56
loop_
_atom_site_label
_atom_site_type_symbol
_atom_site_fract_x
_atom_site_fract_y
_atom_site_fract_z
K1 K -0.05811(6) 0.36478(3) 0.80380(3)
S1 S 0.18646(10) 0.51699(4) 0.82081(5)
F1 F -0.00282(19) 0.36293(8) 0.98265(9)
F2 F 0.06971(18) 0.08049(9) 0.96147(10)
O1 O -0.70469(18) 0.27562(10) 1.23819(11)
O2 O -0.8358(2) 0.18071(12) 1.37445(12)
O3 O -0.7890(2) 0.01909(11) 1.31541(12)
O4 O -0.68818(19) 0.06584(10) 1.15101(10)
O5 O 0.13444(19) 0.23813(11) 0.90591(12)
N1 N -0.4640(2) 0.19489(12) 1.14062(12)
N2 N 0.2329(3) 0.62211(18) 0.6847(2)
C1 C -0.5105(3) 0.28096(16) 1.13367(17)
C2 C -0.6809(3) 0.29249(17) 1.1504(2)
C3 C -0.5230(2) 0.14564(17) 1.06719(15)
C4 C -0.8665(2) 0.27517(17) 1.25453(19)
C5 C -0.8820(3) 0.26085(19) 1.3490(2)
C6 C -0.9598(3) 0.1223(2) 1.3707(2)
C7 C -0.8892(3) 0.0390(2) 1.3818(2)
C8 C -0.8684(3) -0.00317(18) 1.2361(2)
C9 C -0.7500(3) -0.01219(16) 1.17013(19)
C10 C -0.5694(3) 0.06103(17) 1.09174(17)
C11 C -0.2963(2) 0.18186(15) 1.16456(15)
C12 C -0.1817(2) 0.19661(14) 1.09554(14)
C13 C -0.1445(2) 0.27527(14) 1.06961(15)
C14 C -0.0398(2) 0.28568(14) 1.00758(14)
C15 C 0.0339(2) 0.22199(14) 0.96755(15)
C16 C -0.0030(2) 0.14494(14) 0.99643(16)
C17 C -0.1084(2) 0.13094(14) 1.05790(16)
C18 C 0.2132(2) 0.57721(17) 0.7403(2)
H1 H -0.1315 0.0768 1.0751
H2 H -0.1914 0.3214 1.0947
H3 H -0.4437 0.1418 1.0275
H4 H -0.6120 0.1724 1.0404
H5 H -0.6086 0.0319 1.0417
H6 H -0.4818 0.0327 1.1179
H7 H -0.6677 -0.0468 1.1922
H8 H -0.7982 -0.0354 1.1189
H9 H -0.9420 0.0382 1.2186
H10 H -0.9221 -0.0535 1.2426
H11 H -0.8301 0.0363 1.4357
H12 H -0.9708 -0.0007 1.3807
H13 H -1.0172 0.1260 1.3162
H14 H -1.0273 0.1326 1.4155
H15 H -0.8175 0.2991 1.3810
H16 H -0.9878 0.2689 1.3614
H17 H -0.9183 0.2326 1.2223
H18 H -0.9120 0.3262 1.2384
H19 H -0.7101 0.3475 1.1377
H20 H -0.7428 0.2566 1.1144
H21 H -0.4931 0.2997 1.0775
H22 H -0.4481 0.3118 1.1752
H23 H -0.2832 0.1270 1.1831
H24 H -0.2672 0.2177 1.2113
H25 H 0.2321 0.2599 0.9297
K1C K -0.55811(6) 0.13522(3) 1.30380(3)
O1C O -0.20469(18) 0.22438(10) 0.73819(11)
O2C O -0.3358(2) 0.31929(12) 0.87445(12)
O3C O -0.2890(2) 0.48091(11) 0.81541(12)
O4C O -0.18818(19) 0.43416(10) 0.65101(10)
N1C N 0.0360(2) 0.30511(12) 0.64062(12)
loop_
_geom_bond_atom_site_label_1
_geom_bond_atom_site_label_2
_geom_bond_site_symmetry_1
_geom_bond_site_symmetry_2
K1 S1 1_555 1_555
S1 C18 1_555 1_555
F1 K1 1_555 1_555
F2 C16 1_555 1_555
O1 C2 1_555 1_555
O2 C5 1_555 1_555
O3 C7 1_555 1_555
O4 C9 1_555 1_555
O5 K1 1_555 1_555
N1 C1 1_555 1_555
N2 C18 1_555 1_555
C1 C2 1_555 1_555
C2 H19 1_555 1_555
C3 N1 1_555 1_555
C4 O1 1_555 1_555
C5 C4 1_555 1_555
C6 O2 1_555 1_555
C7 C6 1_555 1_555
C8 O3 1_555 1_555
C9 C8 1_555 1_555
C10 O4 1_555 1_555
C11 N1 1_555 1_555
C12 C11 1_555 1_555
C13 C12 1_555 1_555
C14 F1 1_555 1_555
C15 O5 1_555 1_555
C16 C15 1_555 1_555
C17 C12 1_555 1_555
H1 C17 1_555 1_555
H2 C13 1_555 1_555
H3 C3 1_555 1_555
H4 C3 1_555 1_555
H5 C10 1_555 1_555
H6 C10 1_555 1_555
H7 C9 1_555 1_555
H8 C9 1_555 1_555
H9 C8 1_555 1_555
H10 C8 1_555 1_555
H11 C7 1_555 1_555
H12 C7 1_555 1_555
H13 C6 1_555 1_555
H14 C6 1_555 1_555
H15 C5 1_555 1_555
H16 C5 1_555 1_555
H17 C4 1_555 1_555
H18 C4 1_555 1_555
H20 C2 1_555 1_555
H21 C1 1_555 1_555
H22 C1 1_555 1_555
H23 C11 1_555 1_555
H24 C11 1_555 1_555
H25 O5 1_555 1_555
K1C O1 1_555 1_555
O1C K1 1_555 1_555
O2C K1 1_555 1_555
O3C K1 1_555 1_555
O4C K1 1_555 1_555
N1C K1 1_555 1_555
O2 K1C 1_555 1_555
O3 K1C 1_555 1_555
O4 K1C 1_555 1_555
N1 K1C 1_555 1_555
C3 C10 1_555 1_555
C13 C14 1_555 1_555
C14 C15 1_555 1_555
C16 C17 1_555 1_555

#END
