
#######################################################################
#
#                 Cambridge Crystallographic Data Centre
#                                CCDC 
#
#######################################################################
#
# If this CIF has been generated from an entry in the Cambridge 
# Structural Database, then it will include bibliographic, chemical, 
# crystal, experimental, refinement or atomic coordinate data resulting 
# from the CCDC's data processing and validation procedures.
#
#######################################################################

data_QAXZEU
_symmetry_cell_setting           monoclinic
_symmetry_space_group_name_H-M   'P 21/n'
_symmetry_Int_Tables_number      14
_space_group_name_Hall           '-P 2yn'
loop_
_symmetry_equiv_pos_site_id
_symmetry_equiv_pos_as_xyz
1 x,y,z
2 1/2+x,1/2-y,1/2+z
3 -x,-y,-z
4 1/2-x,1/2+y,1/2-z
_cell_length_a                   8.564(2)
_cell_length_b                   16.354(2)
_cell_length_c                   15.510(2)
_cell_angle_alpha                90
_cell_angle_beta                 93.81(2)
_cell_angle_gamma                90
_cell_volume                     2167.46
loop_
_atom_site_label
_atom_site_type_symbol
_atom_site_fract_x
_atom_site_fract_y
_atom_site_fract_z
K1 K -0.05811(6) 0.36478(3) 0.80380(4)
S1 S 0.1865(1) 0.51699(5) 0.82081(6)
F1 F 0.0697(2) 0.08049(9) 0.9615(1)
F2 F -0.0028(2) 0.36293(9) 0.98265(10)
O1 O -0.6882(2) 0.0658(1) 1.1510(1)
O2 O -0.7890(2) 0.0191(1) 1.3154(1)
O3 O -0.8358(2) 0.1807(1) 1.3744(1)
O4 O -0.7047(2) 0.2756(1) 1.2382(1)
O5 O 0.1344(2) 0.2381(1) 0.9059(1)
N1 N -0.4640(2) 0.1949(1) 1.1406(1)
N2 N 0.2329(3) 0.6221(2) 0.6847(2)
C1 C -0.5230(3) 0.1456(2) 1.0672(2)
C2 C -0.5694(3) 0.0610(2) 1.0917(2)
C3 C -0.7500(4) -0.0122(2) 1.1701(2)
C4 C -0.8684(3) -0.0032(2) 1.2361(2)
C5 C -0.8892(4) 0.0390(2) 1.3818(2)
C6 C -0.9598(4) 0.1223(2) 1.3707(2)
C7 C -0.8820(3) 0.2609(2) 1.3490(2)
C8 C -0.8665(3) 0.2752(2) 1.2545(2)
C9 C -0.6809(3) 0.2925(2) 1.1504(2)
C10 C -0.5105(3) 0.2810(2) 1.1337(2)
C11 C -0.2963(3) 0.1819(2) 1.1646(2)
C12 C -0.1817(3) 0.1966(1) 1.0955(1)
C13 C -0.1084(3) 0.1309(1) 1.0579(2)
C14 C -0.0030(3) 0.1449(1) 0.9964(2)
C15 C 0.0339(3) 0.2220(1) 0.9676(2)
C16 C -0.0398(3) 0.2857(1) 1.0076(1)
C17 C -0.1445(3) 0.2753(1) 1.0696(2)
C18 C 0.2132(3) 0.5772(2) 0.7403(2)
H1 H -0.1315 0.0768 1.0751
H2 H -0.1914 0.3214 1.0947
H3 H -0.4437 0.1418 1.0275
H4 H -0.6120 0.1724 1.0404
H5 H -0.6086 0.0319 1.0417
H6 H -0.4818 0.0327 1.1179
H7 H -0.6677 -0.0468 1.1922
H8 H -0.7982 -0.0354 1.1189
H9 H -0.9420 0.0382 1.2186
H10 H -0.9221 -0.0535 1.2426
H11 H -0.8301 0.0363 1.4357
H12 H -0.9708 -0.0007 1.3807
H13 H -1.0172 0.1260 1.3162
H14 H -1.0273 0.1326 1.4155
H15 H -0.8175 0.2992 1.3810
H16 H -0.9878 0.2689 1.3614
H17 H -0.9183 0.2326 1.2223
H18 H -0.9120 0.3262 1.2384
H19 H -0.7101 0.3476 1.1377
H20 H -0.7428 0.2566 1.1144
H21 H -0.4931 0.2997 1.0775
H22 H -0.4481 0.3118 1.1752
H23 H -0.2832 0.1270 1.1831
H24 H -0.2672 0.2177 1.2113
H25 H 0.2321 0.2599 0.9297
O1A O -0.1882(2) 0.4342(1) 0.6510(1)
O2A O -0.2890(2) 0.4809(1) 0.8154(1)
O3A O -0.3358(2) 0.3193(1) 0.8744(1)
O4A O -0.2047(2) 0.2244(1) 0.7382(1)
N1A N 0.0360(2) 0.3051(1) 0.6406(1)
K1A K -0.55811(6) 0.13522(3) 1.30380(4)
loop_
_geom_bond_atom_site_label_1
_geom_bond_atom_site_label_2
_geom_bond_site_symmetry_1
_geom_bond_site_symmetry_2
K1 S1 1_555 1_555
S1 C18 1_555 1_555
F1 C14 1_555 1_555
F2 K1 1_555 1_555
O1 C2 1_555 1_555
O2 C4 1_555 1_555
O3 C6 1_555 1_555
O4 C8 1_555 1_555
O5 K1 1_555 1_555
N1 C1 1_555 1_555
N2 C18 1_555 1_555
C1 C2 1_555 1_555
C2 H5 1_555 1_555
C3 O1 1_555 1_555
C4 C3 1_555 1_555
C5 O2 1_555 1_555
C6 C5 1_555 1_555
C7 O3 1_555 1_555
C8 C7 1_555 1_555
C9 O4 1_555 1_555
C10 N1 1_555 1_555
C11 N1 1_555 1_555
C12 C11 1_555 1_555
C13 C12 1_555 1_555
C14 C13 1_555 1_555
C15 O5 1_555 1_555
C16 F2 1_555 1_555
C17 C12 1_555 1_555
H1 C13 1_555 1_555
H2 C17 1_555 1_555
H3 C1 1_555 1_555
H4 C1 1_555 1_555
H6 C2 1_555 1_555
H7 C3 1_555 1_555
H8 C3 1_555 1_555
H9 C4 1_555 1_555
H10 C4 1_555 1_555
H11 C5 1_555 1_555
H12 C5 1_555 1_555
H13 C6 1_555 1_555
H14 C6 1_555 1_555
H15 C7 1_555 1_555
H16 C7 1_555 1_555
H17 C8 1_555 1_555
H18 C8 1_555 1_555
H19 C9 1_555 1_555
H20 C9 1_555 1_555
H21 C10 1_555 1_555
H22 C10 1_555 1_555
H23 C11 1_555 1_555
H24 C11 1_555 1_555
H25 O5 1_555 1_555
O1A K1 1_555 1_555
O2A K1 1_555 1_555
O3A K1 1_555 1_555
O4A K1 1_555 1_555
N1A K1 1_555 1_555
K1A O1 1_555 1_555
O2 K1A 1_555 1_555
O3 K1A 1_555 1_555
O4 K1A 1_555 1_555
N1 K1A 1_555 1_555
C9 C10 1_555 1_555
C14 C15 1_555 1_555
C15 C16 1_555 1_555
C16 C17 1_555 1_555

#END
