
#######################################################################
#
#                 Cambridge Crystallographic Data Centre
#                                CCDC 
#
#######################################################################
#
# If this CIF has been generated from an entry in the Cambridge 
# Structural Database, then it will include bibliographic, chemical, 
# crystal, experimental, refinement or atomic coordinate data resulting 
# from the CCDC's data processing and validation procedures.
#
#######################################################################

data_QAYBEX
_symmetry_cell_setting           triclinic
_symmetry_space_group_name_H-M   'P -1'
_symmetry_Int_Tables_number      2
_space_group_name_Hall           '-P 1'
loop_
_symmetry_equiv_pos_site_id
_symmetry_equiv_pos_as_xyz
1 x,y,z
2 -x,-y,-z
_cell_length_a                   7.425(2)
_cell_length_b                   10.493(3)
_cell_length_c                   12.277(3)
_cell_angle_alpha                108.12(3)
_cell_angle_beta                 91.82(3)
_cell_angle_gamma                94.31(3)
_cell_volume                     904.966
loop_
_atom_site_label
_atom_site_type_symbol
_atom_site_fract_x
_atom_site_fract_y
_atom_site_fract_z
Cu1 Cu 0.05990(7) 0.86781(5) 0.19586(4)
N1 N -0.2133(4) 0.8762(3) 0.1826(3)
C1 C -1.0459(6) 0.7535(5) -0.0453(4)
C2 C -0.7644(5) 0.8644(4) 0.0678(4)
N2 N 0.1691(5) 1.0151(4) 0.3332(3)
N3 N 0.0981(5) 0.7556(4) 0.3081(3)
O1 O -1.1483(5) 0.6373(4) -0.0701(3)
C3 C -0.3267(6) 0.7646(5) 0.1643(4)
O2 O -1.0775(5) 0.8442(3) -0.0806(3)
C4 C 0.2096(6) 0.9780(4) 0.4255(4)
C5 C -0.5778(5) 0.8676(4) 0.1142(3)
C6 C -0.8867(6) 0.7544(5) 0.0324(3)
C7 C -0.4639(6) 0.9853(4) 0.1380(4)
C8 C -0.5051(6) 0.7560(4) 0.1297(4)
C9 C 0.2078(7) 1.1442(5) 0.3395(4)
C10 C -0.2849(6) 0.9860(4) 0.1711(4)
C11 C 0.1701(6) 0.8317(5) 0.4118(4)
C12 C 0.0612(7) 0.6234(5) 0.2886(5)
C13 C 0.2876(7) 1.0702(5) 0.5257(4)
C14 C 0.1737(8) 0.6381(6) 0.4729(6)
C15 C 0.2874(7) 1.2403(5) 0.4362(4)
C16 C 0.3248(7) 1.2020(5) 0.5320(4)
C17 C 0.2102(7) 0.7753(6) 0.4962(5)
C18 C 0.0993(8) 0.5625(6) 0.3688(5)
H1 H -0.576(6) 0.673(5) 0.118(4)
H2 H -0.274(6) 0.690(5) 0.170(4)
H3 H -0.501(7) 1.071(5) 0.129(4)
H4 H -0.792(6) 0.933(5) 0.051(4)
H5 H 0.308(8) 1.049(5) 0.586(5)
H6 H 0.074(6) 0.476(5) 0.353(4)
H7 H -0.203(7) 1.063(5) 0.180(4)
H8 H -0.863(6) 0.678(4) 0.045(4)
H9 H 0.380(8) 1.274(6) 0.610(5)
H10 H 0.320(7) 1.336(6) 0.420(5)
H11 H 0.185(6) 1.160(5) 0.271(4)
H12 H 0.244(6) 0.835(5) 0.574(5)
H13 H -1.221(7) 0.643(6) -0.098(5)
H14 H 0.197(9) 0.602(6) 0.531(6)
H15 H 0.024(8) 0.577(6) 0.217(6)
C2_2 C 0.2356(5) 0.8644(4) 0.0678(4)
C6_2 C 0.1133(6) 0.7544(5) 0.0324(3)
Cu1_2 Cu -0.94010(7) 0.86781(5) 0.19586(4)
H4_2 H 0.208(6) 0.933(5) 0.051(4)
H8_2 H 0.137(6) 0.678(4) 0.045(4)
B1 B 0.4017(8) 0.6008(6) 0.7670(6)
F1 F 0.5598(6) 0.6773(5) 0.8071(5)
F2 F 0.4102(8) 0.5114(5) 0.6623(4)
F3 F 0.2782(7) 0.6894(5) 0.7599(5)
F4 F 0.3451(9) 0.5421(5) 0.8446(5)
loop_
_geom_bond_atom_site_label_1
_geom_bond_atom_site_label_2
_geom_bond_site_symmetry_1
_geom_bond_site_symmetry_2
Cu1 N1 1_555 1_555
N1 C3 1_555 1_555
C1 O1 1_555 1_555
C2 C5 1_555 1_555
N2 Cu1 1_555 1_555
N3 Cu1 1_555 1_555
O1 H13 1_555 1_555
C3 C8 1_555 1_555
O2 C1 1_555 1_555
C4 N2 1_555 1_555
C5 C7 1_555 1_555
C6 C1 1_555 1_555
C7 C10 1_555 1_555
C8 C5 1_555 1_555
C9 N2 1_555 1_555
C10 N1 1_555 1_555
C11 N3 1_555 1_555
C12 N3 1_555 1_555
C13 C4 1_555 1_555
C14 C17 1_555 1_555
C15 C9 1_555 1_555
C16 C13 1_555 1_555
C17 C11 1_555 1_555
C18 C12 1_555 1_555
B1 F1 1_555 1_555
F2 B1 1_555 1_555
F3 B1 1_555 1_555
F4 B1 1_555 1_555
H1 C8 1_555 1_555
H2 C3 1_555 1_555
H3 C7 1_555 1_555
H4 C2 1_555 1_555
H5 C13 1_555 1_555
H6 C18 1_555 1_555
H7 C10 1_555 1_555
H8 C6 1_555 1_555
H9 C16 1_555 1_555
H10 C15 1_555 1_555
H11 C9 1_555 1_555
H12 C17 1_555 1_555
H14 C14 1_555 1_555
H15 C12 1_555 1_555
C2_2 Cu1 1_555 1_555
C6_2 Cu1 1_555 1_555
Cu1_2 C2 1_555 1_555
H4_2 C2_2 1_555 1_555
H8_2 C6_2 1_555 1_555
C2 C6 1_555 1_555
C4 C11 1_555 1_555
C6 Cu1_2 1_555 1_555
C14 C18 1_555 1_555
C15 C16 1_555 1_555
C2_2 C6_2 1_555 1_555

#END
