
#######################################################################
#
#                 Cambridge Crystallographic Data Centre
#                                CCDC 
#
#######################################################################
#
# If this CIF has been generated from an entry in the Cambridge 
# Structural Database, then it will include bibliographic, chemical, 
# crystal, experimental, refinement or atomic coordinate data resulting 
# from the CCDC's data processing and validation procedures.
#
#######################################################################

data_QAYCEZ
_symmetry_cell_setting           monoclinic
_symmetry_space_group_name_H-M   'P 21/c'
_symmetry_Int_Tables_number      14
_space_group_name_Hall           '-P 2ybc'
loop_
_symmetry_equiv_pos_site_id
_symmetry_equiv_pos_as_xyz
1 x,y,z
2 -x,1/2+y,1/2-z
3 -x,-y,-z
4 x,1/2-y,1/2+z
_cell_length_a                   10.8980(7)
_cell_length_b                   23.4492(17)
_cell_length_c                   14.8137(10)
_cell_angle_alpha                90
_cell_angle_beta                 110.57(3)
_cell_angle_gamma                90
_cell_volume                     3544.27
loop_
_atom_site_label
_atom_site_type_symbol
_atom_site_fract_x
_atom_site_fract_y
_atom_site_fract_z
Pb1 Pb 0.20278(2) 0.338966(9) 0.438196(16)
Pb2 Pb 0.13434(2) 0.215179(9) 0.629388(17)
N1 N 0.4495(4) 0.32074(19) 0.4893(3)
N2 N 0.3355(5) 0.4141(2) 0.3837(3)
N3 N 0.3656(4) 0.17893(18) 0.6990(3)
N4 N 0.1761(5) 0.1153(2) 0.5679(3)
N5 N -0.0431(6) 0.1228(3) 0.6881(5)
O1 O 0.3151(5) 0.39618(17) 0.5920(3)
O2 O 0.2799(4) 0.30650(16) 0.6196(3)
O3 O 0.2178(4) 0.24319(15) 0.8148(3)
O4 O 0.1977(4) 0.27213(16) 0.9509(3)
O5 O 0.0730(4) 0.13766(19) 0.7315(3)
O6 O -0.1033(6) 0.1486(3) 0.6158(5)
O7 O -0.0891(6) 0.0829(3) 0.7181(5)
C1 C 0.3296(6) 0.3546(2) 0.6472(4)
C2 C 0.4153(6) 0.3605(2) 0.7512(4)
C3 C 0.5516(6) 0.3560(2) 0.7767(5)
H1 H 0.5877 0.3529 0.7286
C4 C 0.6322(6) 0.3562(3) 0.8715(5)
H2 H 0.7225 0.3530 0.8879
C5 C 0.5775(6) 0.3612(3) 0.9429(5)
H3 H 0.6312 0.3614 1.0075
C6 C 0.4441(6) 0.3659(2) 0.9179(4)
H4 H 0.4087 0.3686 0.9665
C7 C 0.3603(5) 0.3667(2) 0.8223(4)
C8 C 0.2169(5) 0.3755(2) 0.7955(4)
C9 C 0.1360(6) 0.3367(2) 0.8180(4)
C10 C 0.0043(6) 0.3471(3) 0.7918(5)
H5 H -0.0492 0.3206 0.8066
C11 C -0.0490(7) 0.3963(3) 0.7439(5)
H6 H -0.1382 0.4034 0.7278
C12 C 0.0274(7) 0.4347(3) 0.7200(5)
H7 H -0.0098 0.4675 0.6860
C13 C 0.1595(6) 0.4253(2) 0.7456(4)
H8 H 0.2116 0.4522 0.7299
C14 C 0.1897(5) 0.2808(2) 0.8655(4)
C15 C 0.5064(6) 0.2749(2) 0.5377(4)
H9 H 0.4533 0.2463 0.5472
C16 C 0.6412(6) 0.2672(3) 0.5751(5)
H10 H 0.6769 0.2336 0.6068
C17 C 0.7200(6) 0.3097(3) 0.5645(4)
H11 H 0.8107 0.3057 0.5904
C18 C 0.6646(6) 0.3591(3) 0.5149(4)
C19 C 0.7420(6) 0.4052(3) 0.4996(5)
H12 H 0.8329 0.4026 0.5252
C20 C 0.6868(6) 0.4518(3) 0.4497(5)
H13 H 0.7392 0.4812 0.4414
C21 C 0.5480(6) 0.4565(2) 0.4092(4)
C22 C 0.4853(7) 0.5020(3) 0.3506(5)
H14 H 0.5346 0.5316 0.3390
C23 C 0.3520(7) 0.5033(3) 0.3101(5)
H15 H 0.3097 0.5334 0.2705
C24 C 0.2805(6) 0.4586(2) 0.3294(5)
H16 H 0.1896 0.4600 0.3027
C25 C 0.4672(6) 0.4123(2) 0.4220(4)
C26 C 0.5285(5) 0.3631(2) 0.4777(4)
C27 C 0.4588(6) 0.2110(2) 0.7589(4)
H17 H 0.4347 0.2445 0.7821
C28 C 0.5914(6) 0.1971(3) 0.7887(4)
H18 H 0.6541 0.2213 0.8295
C29 C 0.6282(6) 0.1470(3) 0.7571(5)
H19 H 0.7162 0.1370 0.7760
C30 C 0.5318(6) 0.1115(3) 0.6963(4)
C31 C 0.5629(8) 0.0577(3) 0.6641(5)
H20 H 0.6498 0.0457 0.6845
C32 C 0.4693(8) 0.0243(3) 0.6053(5)
H21 H 0.4912 -0.0111 0.5871
C33 C 0.3359(8) 0.0426(3) 0.5703(4)
C34 C 0.2342(10) 0.0118(3) 0.5016(5)
H22 H 0.2525 -0.0235 0.4805
C35 C 0.1103(9) 0.0327(3) 0.4658(5)
H23 H 0.0445 0.0133 0.4181
C36 C 0.0848(7) 0.0845(3) 0.5027(5)
H24 H -0.0008 0.0981 0.4805
C37 C 0.3011(6) 0.0952(2) 0.6015(4)
C38 C 0.4012(6) 0.1294(2) 0.6674(4)
Pb1C Pb 0.20278(2) 0.161034(9) 0.938196(16)
O3C O 0.2178(4) 0.25681(15) 0.3148(3)
O4C O 0.1977(4) 0.22787(16) 0.4509(3)
N6 N 0.9298(6) 0.2762(3) 0.4339(5)
O8 O 0.8975(5) 0.2291(3) 0.4529(4)
O9 O 0.9109(6) 0.2909(3) 0.3506(4)
O10 O 0.9882(5) 0.3093(2) 0.5027(4)
O11 O -0.0218(11) 0.5605(7) 0.5700(10)
H25 H -0.025(13) 0.542(6) 0.518(6)
H26 H 0.055(8) 0.566(7) 0.621(7)
loop_
_geom_bond_atom_site_label_1
_geom_bond_atom_site_label_2
_geom_bond_site_symmetry_1
_geom_bond_site_symmetry_2
Pb1 N1 1_555 1_555
Pb2 N3 1_555 1_555
N1 C15 1_555 1_555
N2 Pb1 1_555 1_555
N3 C27 1_555 1_555
N4 Pb2 1_555 1_555
N5 O5 1_555 1_555
O1 Pb1 1_555 1_555
O2 Pb1 1_555 1_555
O3 Pb2 1_555 1_555
O4 C14 1_555 1_555
O5 Pb2 1_555 1_555
O6 N5 1_555 1_555
O7 N5 1_555 1_555
C1 O1 1_555 1_555
C2 C1 1_555 1_555
C3 C2 1_555 1_555
H1 C3 1_555 1_555
C4 C3 1_555 1_555
H2 C4 1_555 1_555
C5 C4 1_555 1_555
H3 C5 1_555 1_555
C6 C5 1_555 1_555
H4 C6 1_555 1_555
C7 C2 1_555 1_555
C8 C7 1_555 1_555
C9 C8 1_555 1_555
C10 C9 1_555 1_555
H5 C10 1_555 1_555
C11 C10 1_555 1_555
H6 C11 1_555 1_555
C12 C11 1_555 1_555
H7 C12 1_555 1_555
C13 C8 1_555 1_555
H8 C13 1_555 1_555
C14 O3 1_555 1_555
C15 H9 1_555 1_555
C16 C15 1_555 1_555
H10 C16 1_555 1_555
C17 C16 1_555 1_555
H11 C17 1_555 1_555
C18 C17 1_555 1_555
C19 C18 1_555 1_555
H12 C19 1_555 1_555
C20 C19 1_555 1_555
H13 C20 1_555 1_555
C21 C20 1_555 1_555
C22 C21 1_555 1_555
H14 C22 1_555 1_555
C23 C22 1_555 1_555
H15 C23 1_555 1_555
C24 N2 1_555 1_555
H16 C24 1_555 1_555
C25 N2 1_555 1_555
C26 N1 1_555 1_555
C27 H17 1_555 1_555
C28 C27 1_555 1_555
H18 C28 1_555 1_555
C29 C28 1_555 1_555
H19 C29 1_555 1_555
C30 C29 1_555 1_555
C31 C30 1_555 1_555
H20 C31 1_555 1_555
C32 C31 1_555 1_555
H21 C32 1_555 1_555
C33 C32 1_555 1_555
C34 C33 1_555 1_555
H22 C34 1_555 1_555
C35 C34 1_555 1_555
H23 C35 1_555 1_555
C36 N4 1_555 1_555
H24 C36 1_555 1_555
C37 N4 1_555 1_555
C38 N3 1_555 1_555
N6 O8 1_555 1_555
O9 N6 1_555 1_555
O10 N6 1_555 1_555
O11 H25 1_555 1_555
H26 O11 1_555 1_555
Pb1C O3 1_555 1_555
O3C Pb1 1_555 1_555
O4C Pb1 1_555 1_555
Pb2 O2 1_555 1_555
O2 C1 1_555 1_555
O4 Pb1C 1_555 1_555
C6 C7 1_555 1_555
C9 C14 1_555 1_555
C12 C13 1_555 1_555
C18 C26 1_555 1_555
C21 C25 1_555 1_555
C23 C24 1_555 1_555
C25 C26 1_555 1_555
C30 C38 1_555 1_555
C33 C37 1_555 1_555
C35 C36 1_555 1_555
C37 C38 1_555 1_555

#END
