
#######################################################################
#
#                 Cambridge Crystallographic Data Centre
#                                CCDC 
#
#######################################################################
#
# If this CIF has been generated from an entry in the Cambridge 
# Structural Database, then it will include bibliographic, chemical, 
# crystal, experimental, refinement or atomic coordinate data resulting 
# from the CCDC's data processing and validation procedures.
#
#######################################################################

data_QAYFUR
_symmetry_cell_setting           monoclinic
_symmetry_space_group_name_H-M   'P 21/n'
_symmetry_Int_Tables_number      14
_space_group_name_Hall           '-P 2yn'
loop_
_symmetry_equiv_pos_site_id
_symmetry_equiv_pos_as_xyz
1 x,y,z
2 1/2+x,1/2-y,1/2+z
3 -x,-y,-z
4 1/2-x,1/2+y,1/2-z
_cell_length_a                   14.121(2)
_cell_length_b                   7.0410(10)
_cell_length_c                   19.803(3)
_cell_angle_alpha                90
_cell_angle_beta                 94.700(10)
_cell_angle_gamma                90
_cell_volume                     1962.31
loop_
_atom_site_label
_atom_site_type_symbol
_atom_site_fract_x
_atom_site_fract_y
_atom_site_fract_z
Ag1 Ag -0.047367(19) -0.05742(5) 0.829148(14)
N1 N -0.0539(2) -0.2467(4) 0.92571(14)
N2 N -0.0954(2) -0.1278(4) 1.16717(14)
H1 H -0.1412 -0.0581 1.1435
N3 N -0.01373(18) 0.1289(4) 1.27456(13)
H2 H 0.0179 0.0536 1.3062
N4 N 0.29441(19) 0.4576(4) 1.31919(14)
C1 C 0.0181(3) -0.2364(5) 0.97393(19)
H3 H 0.0787 -0.2102 0.9611
C2 C 0.0066(3) -0.2627(5) 1.04122(18)
H4 H 0.0587 -0.2525 1.0729
C3 C -0.0820(3) -0.3044(5) 1.06241(18)
C4 C -0.1552(2) -0.3237(6) 1.01267(18)
H5 H -0.2157 -0.3562 1.0241
C5 C -0.1385(3) -0.2948(6) 0.94607(18)
H6 H -0.1890 -0.3097 0.9133
C6 C -0.0983(3) -0.3180(6) 1.13631(17)
H7 H -0.0497 -0.3975 1.1593
H8 H -0.1596 -0.3761 1.1413
C7 C -0.1206(3) -0.1325(6) 1.23736(18)
H9 H -0.1850 -0.1794 1.2386
H10 H -0.0784 -0.2187 1.2634
C8 C -0.1133(2) 0.0637(6) 1.26884(18)
H11 H -0.1369 0.0604 1.3134
H12 H -0.1521 0.1521 1.2411
C9 C -0.0031(2) 0.3238(5) 1.29946(18)
H13 H -0.0375 0.4097 1.2680
H14 H -0.0297 0.3346 1.3429
C10 C 0.2429(3) 0.4739(6) 1.25984(17)
H15 H 0.2733 0.5117 1.2221
C11 C 0.1473(2) 0.4373(5) 1.25193(17)
H16 H 0.1142 0.4525 1.2097
C12 C 0.0997(2) 0.3776(5) 1.30688(17)
C13 C 0.1536(2) 0.3603(5) 1.36782(17)
H17 H 0.1255 0.3197 1.4062
C14 C 0.2486(3) 0.4029(5) 1.37192(18)
H18 H 0.2829 0.3929 1.4139
N2B N 0.0954(2) 0.1278(4) 0.83283(14)
N3B N 0.01373(18) -0.1289(4) 0.72544(13)
N4A N -0.20559(19) 0.0424(4) 0.81919(14)
Ag1B Ag 0.047367(19) 0.05742(5) 1.170852(14)
Ag1A Ag 0.452633(19) 0.55742(5) 1.329148(14)
H1B H 0.1412 0.0581 0.8565
H2B H -0.0179 -0.0536 0.6938
N5 N 0.1097(3) -0.1206(7) 0.3829(2)
C15 C 0.0691(4) -0.2390(9) 0.4998(2)
H19 H 0.1082 -0.3466 0.5128
H20 H 0.0034 -0.2752 0.4980
H21 H 0.0810 -0.1390 0.5323
C16 C 0.0915(3) -0.1729(7) 0.4334(3)
F1 F -0.2244(4) -0.7377(10) 0.1251(3)
F2 F -0.2596(6) -0.8962(11) 0.0371(4)
F3 F -0.3459(6) -0.9122(11) 0.1188(3)
F4 F -0.3436(6) -0.6603(10) 0.0605(5)
B1 B -0.2953(2) -0.8015(5) 0.08502(17)
F5? F -0.2397(10) -0.6882(19) 0.1197(6)
F6? F -0.2966(13) -0.759(3) 0.0214(3)
F7? F -0.2692(13) -0.9749(10) 0.0939(12)
F8? F -0.3812(5) -0.783(3) 0.1031(8)
loop_
_geom_bond_atom_site_label_1
_geom_bond_atom_site_label_2
_geom_bond_site_symmetry_1
_geom_bond_site_symmetry_2
Ag1 N1 1_555 1_555
N1 C1 1_555 1_555
N2 H1 1_555 1_555
N3 H2 1_555 1_555
N4 C10 1_555 1_555
C1 H3 1_555 1_555
C2 C1 1_555 1_555
H4 C2 1_555 1_555
C3 C2 1_555 1_555
C4 C3 1_555 1_555
H5 C4 1_555 1_555
C5 N1 1_555 1_555
H6 C5 1_555 1_555
C6 N2 1_555 1_555
H7 C6 1_555 1_555
H8 C6 1_555 1_555
C7 N2 1_555 1_555
H9 C7 1_555 1_555
H10 C7 1_555 1_555
C8 N3 1_555 1_555
H11 C8 1_555 1_555
H12 C8 1_555 1_555
C9 N3 1_555 1_555
H13 C9 1_555 1_555
H14 C9 1_555 1_555
C10 H15 1_555 1_555
C11 C10 1_555 1_555
H16 C11 1_555 1_555
C12 C9 1_555 1_555
C13 C12 1_555 1_555
H17 C13 1_555 1_555
C14 N4 1_555 1_555
H18 C14 1_555 1_555
N5 C16 1_555 1_555
C15 H19 1_555 1_555
H20 C15 1_555 1_555
H21 C15 1_555 1_555
C16 C15 1_555 1_555
F1 B1 1_555 1_555
F2 B1 1_555 1_555
F3 B1 1_555 1_555
F4 B1 1_555 1_555
N2B Ag1 1_555 1_555
N3B Ag1 1_555 1_555
N4A Ag1 1_555 1_555
Ag1B N2 1_555 1_555
Ag1A N4 1_555 1_555
H1B N2B 1_555 1_555
H2B N3B 1_555 1_555
N3 Ag1B 1_555 1_555
C3 C6 1_555 1_555
C4 C5 1_555 1_555
C7 C8 1_555 1_555
C11 C12 1_555 1_555
C13 C14 1_555 1_555

#END
