
#######################################################################
#
#                 Cambridge Crystallographic Data Centre
#                                CCDC 
#
#######################################################################
#
# If this CIF has been generated from an entry in the Cambridge 
# Structural Database, then it will include bibliographic, chemical, 
# crystal, experimental, refinement or atomic coordinate data resulting 
# from the CCDC's data processing and validation procedures.
#
#######################################################################

data_QAYNAF
_symmetry_cell_setting           hexagonal
_symmetry_space_group_name_H-M   'P 61'
_symmetry_Int_Tables_number      169
_space_group_name_Hall           'P 61'
loop_
_symmetry_equiv_pos_site_id
_symmetry_equiv_pos_as_xyz
1 x,y,z
2 -y,x-y,1/3+z
3 -x+y,-x,2/3+z
4 -x,-y,1/2+z
5 y,-x+y,5/6+z
6 x-y,x,1/6+z
_cell_length_a                   11.3400(10)
_cell_length_b                   11.3400(10)
_cell_length_c                   32.9840(10)
_cell_angle_alpha                90
_cell_angle_beta                 90
_cell_angle_gamma                120
_cell_volume                     3673.33
loop_
_atom_site_label
_atom_site_type_symbol
_atom_site_fract_x
_atom_site_fract_y
_atom_site_fract_z
Zn1 Zn 0.19938(9) 0.00137(9) -0.34179(2)
Zn2 Zn 0.16794(9) 0.07264(9) -0.43237(2)
C1 C -0.0841(8) -0.1022(8) -0.3807(2)
C2 C -0.1488(9) -0.2189(9) -0.3546(2)
C3 C -0.2910(10) -0.2920(10) -0.3531(3)
H1 H -0.3319(10) -0.3695(10) -0.3370(3)
C4 C -0.3751(9) -0.2579(9) -0.3738(3)
C5 C -0.3087(9) -0.1405(9) -0.3982(2)
H2 H -0.3612(9) -0.1120(9) -0.4121(2)
C6 C -0.1690(9) -0.0661(9) -0.4023(2)
C7 C -0.5273(11) -0.3386(11) -0.3704(3)
H3 H -0.5666(11) -0.2979(11) -0.3872(3)
H4 H -0.5536(11) -0.3394(11) -0.3427(3)
H5 H -0.5590(11) -0.4303(11) -0.3793(3)
C8 C -0.0724(9) -0.2639(8) -0.3317(2)
H6 H -0.1198(9) -0.3507(8) -0.3205(2)
C9 C 0.1134(11) -0.2640(11) -0.2984(4)
H7 H 0.1068(11) -0.2459(11) -0.2700(4)
H8 H 0.0650(11) -0.3618(11) -0.3026(4)
C10 C 0.2538(16) -0.2050(16) -0.3105(5)
H9 H 0.2565(16) -0.2335(16) -0.3381(5)
H10 H 0.2971(16) -0.2416(16) -0.2933(5)
C11 C 0.3751(17) 0.0064(17) -0.2727(5)
H11 H 0.2972(17) -0.0078(17) -0.2574(5)
H12 H 0.4355(17) 0.1023(17) -0.2765(5)
H13 H 0.4218(17) -0.0319(17) -0.2584(5)
C12 C 0.4514(16) -0.0328(18) -0.3320(4)
H14 H 0.4217(16) -0.0763(18) -0.3580(4)
H15 H 0.4981(16) -0.0712(18) -0.3178(4)
H16 H 0.5119(16) 0.0630(18) -0.3359(4)
C13 C -0.1082(10) 0.0565(10) -0.4287(3)
H17 H -0.1660(10) 0.0874(10) -0.4375(3)
C14 C 0.0588(11) 0.2406(11) -0.4672(3)
H18 H 0.0823(11) 0.3211(11) -0.4512(3)
H19 H -0.0160(11) 0.2245(11) -0.4850(3)
C15 C 0.1778(11) 0.2637(11) -0.4918(3)
H20 H 0.1489(11) 0.1936(11) -0.5125(3)
H21 H 0.2160(11) 0.3511(11) -0.5054(3)
C16 C 0.3488(13) 0.3825(11) -0.4389(3)
H22 H 0.4161(13) 0.3774(11) -0.4226(3)
H23 H 0.2815(13) 0.3842(11) -0.4216(3)
H24 H 0.3916(13) 0.4640(11) -0.4549(3)
C17 C 0.3835(15) 0.2657(18) -0.4947(4)
H25 H 0.4557(15) 0.2643(18) -0.4799(4)
H26 H 0.4200(15) 0.3477(18) -0.5105(4)
H27 H 0.3412(15) 0.1882(18) -0.5124(4)
N1 N 0.0542(8) -0.1961(8) -0.3253(2)
N2 N 0.3348(8) -0.0536(9) -0.3087(2)
N3 N 0.0167(8) 0.1242(7) -0.4406(2)
N4 N 0.2819(8) 0.2610(8) -0.4661(2)
O1 O 0.0459(6) -0.0323(6) -0.3836(2)
O2 O 0.3080(6) 0.0870(7) -0.3921(2)
O3 O 0.1429(6) -0.0627(7) -0.4735(2)
O3E O 0.2056(9) 0.1429(6) -0.3068(2)
Zn1D Zn 0.00137(9) -0.19801(13) -0.50846(2)
N5 N -0.3539(18) -0.6359(16) -0.3412(5)
O4 O -0.3357(15) -0.5954(16) -0.3050(5)
O5 O -0.2504(19) -0.6290(19) -0.3576(5)
O6 O -0.4675(19) -0.6677(18) -0.3530(6)
O7 O -0.2904(14) 0.2114(15) -0.4260(5)
O8 O -0.5414(15) -0.0027(16) -0.4406(5)
loop_
_geom_bond_atom_site_label_1
_geom_bond_atom_site_label_2
_geom_bond_site_symmetry_1
_geom_bond_site_symmetry_2
Zn1 N1 1_555 1_555
Zn2 N3 1_555 1_555
C1 C2 1_555 1_555
C2 C3 1_555 1_555
C3 H1 1_555 1_555
C4 C3 1_555 1_555
C5 C4 1_555 1_555
H2 C5 1_555 1_555
C6 C1 1_555 1_555
C7 C4 1_555 1_555
H3 C7 1_555 1_555
H4 C7 1_555 1_555
H5 C7 1_555 1_555
C8 C2 1_555 1_555
H6 C8 1_555 1_555
C9 H7 1_555 1_555
H8 C9 1_555 1_555
C10 C9 1_555 1_555
H9 C10 1_555 1_555
H10 C10 1_555 1_555
C11 H11 1_555 1_555
H12 C11 1_555 1_555
H13 C11 1_555 1_555
C12 H14 1_555 1_555
H15 C12 1_555 1_555
H16 C12 1_555 1_555
C13 C6 1_555 1_555
H17 C13 1_555 1_555
C14 H18 1_555 1_555
H19 C14 1_555 1_555
C15 C14 1_555 1_555
H20 C15 1_555 1_555
H21 C15 1_555 1_555
C16 H22 1_555 1_555
H23 C16 1_555 1_555
H24 C16 1_555 1_555
C17 H25 1_555 1_555
H26 C17 1_555 1_555
H27 C17 1_555 1_555
N1 C8 1_555 1_555
N2 Zn1 1_555 1_555
N3 C13 1_555 1_555
N4 Zn2 1_555 1_555
N5 O4 1_555 1_555
O1 Zn1 1_555 1_555
O2 Zn1 1_555 1_555
O3 Zn2 1_555 1_555
O5 N5 1_555 1_555
O6 N5 1_555 1_555
O3E Zn1 1_555 1_555
Zn1D O3 1_555 1_555
Zn2 O1 1_555 1_555
Zn2 O2 1_555 1_555
C1 O1 1_555 1_555
C5 C6 1_555 1_555
C9 N1 1_555 1_555
C10 N2 1_555 1_555
C11 N2 1_555 1_555
C12 N2 1_555 1_555
C14 N3 1_555 1_555
C15 N4 1_555 1_555
C16 N4 1_555 1_555
C17 N4 1_555 1_555

#END
