
#######################################################################
#
#                 Cambridge Crystallographic Data Centre
#                                CCDC 
#
#######################################################################
#
# If this CIF has been generated from an entry in the Cambridge 
# Structural Database, then it will include bibliographic, chemical, 
# crystal, experimental, refinement or atomic coordinate data resulting 
# from the CCDC's data processing and validation procedures.
#
#######################################################################

data_QAYTAL
_symmetry_cell_setting           triclinic
_symmetry_space_group_name_H-M   'P -1'
_symmetry_Int_Tables_number      2
_space_group_name_Hall           '-P 1'
loop_
_symmetry_equiv_pos_site_id
_symmetry_equiv_pos_as_xyz
1 x,y,z
2 -x,-y,-z
_cell_length_a                   11.528(3)
_cell_length_b                   11.791(3)
_cell_length_c                   20.334(4)
_cell_angle_alpha                94.01(2)
_cell_angle_beta                 103.75(2)
_cell_angle_gamma                111.80(2)
_cell_volume                     2454.08
loop_
_atom_site_label
_atom_site_type_symbol
_atom_site_fract_x
_atom_site_fract_y
_atom_site_fract_z
Co1 Co 0.03778(10) -0.67846(11) -0.73695(6)
N7 N 0.0745(7) -0.6532(8) -0.6361(4)
C31 C 0.0836(7) -0.6552(8) -0.5802(5)
S1 S 0.0971(4) -0.6564(3) -0.49955(14)
N8 N 0.1003(7) -0.5187(8) -0.7641(4)
C32 C 0.1317(7) -0.4216(10) -0.7806(5)
S2 S 0.1714(3) -0.2905(3) -0.8055(2)
N9 N -0.1496(7) -0.7648(8) -0.7799(4)
C33 C -0.2585(8) -0.8165(8) -0.8046(4)
S3 S -0.4142(2) -0.8849(3) -0.83847(13)
N10 N 0.1263(9) -0.7777(10) -0.7682(5)
C34 C 0.1589(8) -0.8488(8) -0.7813(4)
S4 S 0.2051(6) -0.9483(5) -0.8090(3)
Co2 Co 0.5000 -1.0000 -0.5000
Co3 Co 0.5000 -0.5000 0.0000
C1 C 0.3161(13) -0.8085(12) -0.5776(7)
H1 H 0.2887(95) -0.7446(51) -0.5650(38)
H2 H 0.2725(81) -0.8451(23) -0.6251(8)
H3 H 0.4086(16) -0.7732(69) -0.5708(41)
O1 O 0.3215(5) -0.9876(5) -0.5361(3)
C2 C 0.2835(6) -0.9036(7) -0.5349(4)
N1 N 0.2135(7) -0.8923(7) -0.4939(4)
H4 H 0.1901(92) -0.8275(61) -0.4922(50)
C3 C 0.1754(14) -0.9770(13) -0.4483(7)
H5 H 0.2321(14) -1.0213(13) -0.4402(7)
H6 H 0.0870(14) -1.0374(13) -0.4694(7)
C4 C 0.1831(17) -0.9083(13) -0.3796(7)
H7 H 0.2719(17) -0.8481(13) -0.3592(7)
H8 H 0.1277(17) -0.8629(13) -0.3886(7)
C5 C 0.1466(23) -0.9835(18) -0.3321(8)
H9 H 0.1941(23) -1.0366(18) -0.3291(8)
H10 H 0.0551(23) -1.0371(18) -0.3518(8)
C6 C 0.1618(24) -0.9328(16) -0.2635(10)
H11 H 0.2494(24) -0.9181(16) -0.2368(10)
H12 H 0.1026(24) -0.9969(16) -0.2457(10)
C7 C 0.1426(18) -0.8221(16) -0.2485(9)
H13 H 0.0556(18) -0.8336(16) -0.2745(9)
H14 H 0.2044(18) -0.7545(16) -0.2630(9)
C8 C 0.1596(11) -0.7873(12) -0.1718(7)
H15 H 0.0934(11) -0.8522(12) -0.1582(7)
H16 H 0.2440(11) -0.7822(12) -0.1457(7)
N2 N 0.1503(7) -0.6739(8) -0.1557(4)
H17 H 0.0630(34) -0.6974(97) -0.1724(51)
O2 O 0.3584(4) -0.5711(5) -0.0968(3)
C9 C 0.2489(7) -0.5710(8) -0.1191(4)
C10 C 0.2195(10) -0.4625(11) -0.1074(6)
H18 H 0.1295(25) -0.4826(28) -0.1304(42)
H19 H 0.2737(66) -0.3957(30) -0.1251(44)
H20 H 0.2358(89) -0.4377(54) -0.0590(7)
C11 C 0.4392(10) -1.0324(8) -0.6828(4)
H21 H 0.4271(54) -1.0214(31) -0.7299(5)
H22 H 0.3601(20) -1.0459(43) -0.6707(28)
H23 H 0.4610(35) -1.1028(15) -0.6770(31)
O3 O 0.5710(5) -0.9064(5) -0.5740(3)
C12 C 0.5460(7) -0.9199(7) -0.6379(4)
N3 N 0.6113(7) -0.8328(7) -0.6672(4)
H24 H 0.6003(93) -0.8171(90) -0.7095(23)
C13 C 0.7198(8) -0.7188(9) -0.6318(5)
H25 H 0.7997(8) -0.7224(9) -0.6372(5)
H26 H 0.7265(8) -0.7095(9) -0.5830(5)
C14 C 0.7041(9) -0.6062(8) -0.6594(5)
H27 H 0.7830(9) -0.5329(8) -0.6377(5)
H28 H 0.6939(9) -0.6177(8) -0.7084(5)
C15 C 0.5888(10) -0.5848(12) -0.6468(7)
H29 H 0.5095(10) -0.6524(12) -0.6746(7)
H30 H 0.5915(10) -0.5882(12) -0.5990(7)
C16 C 0.5815(12) -0.4711(13) -0.6615(9)
H31 H 0.5808(12) -0.4663(13) -0.7090(9)
H32 H 0.6592(12) -0.4030(13) -0.6327(9)
C17 C 0.4618(13) -0.4546(19) -0.6502(13)
H33 H 0.4159(13) -0.4463(19) -0.6949(13)
H34 H 0.4081(13) -0.5348(19) -0.6420(13)
C18 C 0.4530(13) -0.3899(16) -0.6152(13)
H35 H 0.5064(13) -0.3095(16) -0.6232(13)
H36 H 0.4986(13) -0.3981(16) -0.5703(13)
N4 N 0.3362(8) -0.3762(8) -0.6053(6)
H37 H 0.2689(90) -0.4489(66) -0.6144(70)
O4 O 0.4372(4) -0.1794(4) -0.5576(2)
C19 C 0.3370(7) -0.2727(7) -0.5795(4)
C20 C 0.2068(8) -0.2774(9) -0.5785(6)
H38 H 0.1410(12) -0.3574(28) -0.6014(39)
H39 H 0.1902(35) -0.2144(52) -0.6016(38)
H40 H 0.2049(28) -0.2634(78) -0.5317(6)
C21 C 0.4486(12) -0.2655(12) 0.1040(7)
H41 H 0.3562(16) -0.294(11) 0.0839(12)
H42 H 0.4791(89) -0.1911(29) 0.1371(35)
H43 H 0.4672(95) -0.3283(81) 0.1264(41)
O5 O 0.5039(5) -0.3216(5) 0.0037(3)
C22 C 0.5151(8) -0.2396(8) 0.0494(5)
N5 N 0.5900(9) -0.1224(8) 0.0491(5)
H44 H 0.598(13) -0.077(11) 0.0876(39)
C23 C 0.6631(15) -0.0847(12) 0.0013(7)
H45 H 0.6076(15) -0.0754(12) -0.0401(7)
H46 H 0.6917(15) -0.1487(12) -0.0111(7)
C24 C 0.7784(20) 0.0340(19) 0.0297(11)
H47 H 0.7538(20) 0.0910(19) 0.0541(11)
H48 H 0.8452(20) 0.0189(19) 0.0624(11)
C25 C 0.8273(30) 0.0862(21) -0.0194(12)
H49 H 0.7701(30) 0.1222(21) -0.0437(12)
H50 H 0.8253(30) 0.0212(21) -0.0522(12)
C26 C 0.9806(20) 0.1972(22) 0.0068(9)
H51 H 1.0395(20) 0.1686(22) 0.0363(9)
H52 H 1.0127(20) 0.2220(22) -0.0322(9)
C27 C 0.9681(14) 0.2888(17) 0.0407(10)
H53 H 0.9497(14) 0.2678(17) 0.0834(10)
H54 H 0.8974(14) 0.3064(17) 0.0134(10)
C28 C 1.0999(11) 0.4032(14) 0.0554(8)
H55 H 1.1208(11) 0.4186(14) 0.0125(8)
H56 H 1.0921(11) 0.4759(14) 0.0757(8)
N6 N 1.2042(9) 0.3816(12) 0.1020(5)
H57 H 1.190(14) 0.337(12) 0.1364(52)
O6 O 1.3447(5) 0.4430(5) 0.0411(3)
C29 C 1.3197(8) 0.3968(10) 0.0913(4)
C30 C 1.4117(11) 0.3720(13) 0.1441(6)
H58 H 1.3664(18) 0.3211(80) 0.1724(33)
H59 H 1.4759(58) 0.4489(14) 0.1720(32)
H60 H 1.4539(72) 0.3295(83) 0.1230(6)
O1A O 0.6785(5) -1.0124(5) -0.4639(3)
O3A O 0.4290(5) -1.0936(5) -0.4260(3)
O4A O 0.5628(4) -0.8206(4) -0.4424(2)
O2A O 0.6416(4) -0.4289(5) 0.0968(3)
O5A O 0.4961(5) -0.6784(5) -0.0037(3)
O6A O 0.6553(5) -0.4430(5) -0.0411(3)
O4_2 O 0.4372(4) -1.1794(4) -0.5576(2)
O6_2 O 0.3447(5) -0.5570(5) 0.0411(3)
C22A C 0.4849(8) -0.7604(8) -0.0494(5)
C21A C 0.5514(12) -0.7345(12) -0.1040(7)
N5A N 0.4100(9) -0.8776(8) -0.0491(5)
H44A H 0.402(13) -0.923(11) -0.0876(39)
C23A C 0.3369(15) -0.9153(12) -0.0013(7)
H45A H 0.3924(15) -0.9246(12) 0.0401(7)
H46A H 0.3083(15) -0.8513(12) 0.0111(7)
C24A C 0.2216(20) -1.0340(19) -0.0297(11)
H47A H 0.2462(20) -1.0910(19) -0.0541(11)
H48A H 0.1548(20) -1.0189(19) -0.0624(11)
C25A C 0.1727(30) -1.0862(21) 0.0194(12)
H49A H 0.2299(30) -1.1222(21) 0.0437(12)
H50A H 0.1747(30) -1.0212(21) 0.0522(12)
C26A C 0.0194(20) -1.1972(22) -0.0068(9)
H51A H -0.0395(20) -1.1686(22) -0.0363(9)
H52A H -0.0127(20) -1.2220(22) 0.0322(9)
C27A C 0.0319(14) -1.2888(17) -0.0407(10)
H53A H 0.0503(14) -1.2678(17) -0.0834(10)
H54A H 0.1026(14) -1.3064(17) -0.0134(10)
C28A C -0.0999(11) -1.4032(14) -0.0554(8)
H55A H -0.1208(11) -1.4186(14) -0.0125(8)
H56A H -0.0921(11) -1.4759(14) -0.0757(8)
N6A N -0.2042(9) -1.3816(12) -0.1020(5)
H57A H -0.190(14) -1.337(12) -0.1364(52)
C29A C -0.3197(8) -1.3968(10) -0.0913(4)
O6A_2 O -0.3447(5) -1.4430(5) -0.0411(3)
C30A C -0.4117(11) -1.3720(13) -0.1441(6)
Co3_2 Co -0.5000 -1.5000 0.0000
C12A C 0.4540(7) -1.0801(7) -0.3621(4)
C11A C 0.5608(10) -0.9676(8) -0.3172(4)
N3A N 0.3887(7) -1.1672(7) -0.3328(4)
H24A H 0.3997(93) -1.1829(90) -0.2905(23)
C13A C 0.2802(8) -1.2812(9) -0.3682(5)
H25A H 0.2003(8) -1.2776(9) -0.3628(5)
H26A H 0.2735(8) -1.2905(9) -0.4170(5)
C14A C 0.2959(9) -1.3938(8) -0.3406(5)
H27A H 0.2170(9) -1.4671(8) -0.3623(5)
H28A H 0.3061(9) -1.3823(8) -0.2916(5)
C15A C 0.4112(10) -1.4152(12) -0.3532(7)
H29A H 0.4905(10) -1.3476(12) -0.3254(7)
H30A H 0.4085(10) -1.4118(12) -0.4010(7)
C16A C 0.4185(12) -1.5289(13) -0.3385(9)
H31A H 0.4192(12) -1.5337(13) -0.2910(9)
H32A H 0.3408(12) -1.5970(13) -0.3673(9)
C17A C 0.5382(13) -1.5454(19) -0.3498(13)
H33A H 0.5841(13) -1.5537(19) -0.3051(13)
H34A H 0.5919(13) -1.4652(19) -0.3580(13)
C18A C 0.5470(13) -1.6101(16) -0.3848(13)
H35A H 0.4936(13) -1.6905(16) -0.3768(13)
H36A H 0.5014(13) -1.6019(16) -0.4297(13)
N4A N 0.6638(8) -1.6238(8) -0.3947(6)
H37A H 0.7311(90) -1.5511(66) -0.3856(70)
C19A C 0.6630(7) -1.7273(7) -0.4205(4)
O4A_2 O 0.5628(4) -1.8206(4) -0.4424(2)
C20A C 0.7932(8) -1.7226(9) -0.4215(6)
Co2_2 Co 0.5000 -2.0000 -0.5000
Co2_3 Co 0.5000 0.0000 -0.5000
C2A C 0.7165(6) -1.0964(7) -0.4651(4)
C1A C 0.6839(13) -1.1915(12) -0.4224(7)
N1A N 0.7865(7) -1.1077(7) -0.5061(4)
H4A H 0.8099(92) -1.1725(61) -0.5078(50)
C3A C 0.8246(14) -1.0230(13) -0.5517(7)
H5A H 0.7679(14) -0.9787(13) -0.5598(7)
H6A H 0.9130(14) -0.9626(13) -0.5306(7)
C4A C 0.8169(17) -1.0917(13) -0.6204(7)
H7A H 0.7281(17) -1.1519(13) -0.6408(7)
H8A H 0.8723(17) -1.1371(13) -0.6114(7)
C5A C 0.8534(23) -1.0165(18) -0.6679(8)
H9A H 0.8059(23) -0.9634(18) -0.6709(8)
H10A H 0.9449(23) -0.9629(18) -0.6482(8)
C6A C 0.8382(24) -1.0672(16) -0.7365(10)
H11A H 0.7506(24) -1.0819(16) -0.7632(10)
H12A H 0.8974(24) -1.0031(16) -0.7543(10)
C7A C 0.8574(18) -1.1779(16) -0.7515(9)
H13A H 0.9444(18) -1.1664(16) -0.7255(9)
H14A H 0.7956(18) -1.2455(16) -0.7370(9)
C8A C 0.8404(11) -1.2127(12) -0.8282(7)
H15A H 0.9066(11) -1.1478(12) -0.8418(7)
H16A H 0.7560(11) -1.2178(12) -0.8543(7)
N2A N 0.8497(7) -1.3261(8) -0.8443(4)
H17A H 0.9370(34) -1.3026(97) -0.8276(51)
C9A C 0.7511(7) -1.4290(8) -0.8809(4)
O2A_2 O 0.6416(4) -1.4289(5) -0.9032(3)
C10A C 0.7805(10) -1.5375(11) -0.8926(6)
Co3_3 Co 0.5000 -1.5000 -1.0000
Co3_4 Co 1.5000 0.5000 0.0000
H41A H 0.6438(16) -0.706(11) -0.0839(12)
H42A H 0.5209(89) -0.8089(29) -0.1371(35)
H43A H 0.5328(95) -0.6717(81) -0.1264(41)
H58A H -0.3664(18) -1.3211(80) -0.1724(33)
H59A H -0.4759(58) -1.4489(14) -0.1720(32)
H60A H -0.4539(72) -1.3295(83) -0.1230(6)
H21A H 0.5729(54) -0.9786(31) -0.2701(5)
H22A H 0.6399(20) -0.9541(43) -0.3293(28)
H23A H 0.5390(35) -0.8972(15) -0.3230(31)
H38A H 0.8590(12) -1.6426(28) -0.3986(39)
H39A H 0.8098(35) -1.7856(52) -0.3984(38)
H40A H 0.7951(28) -1.7366(78) -0.4683(6)
H1A H 0.7113(95) -1.2554(51) -0.4350(38)
H2A H 0.7275(81) -1.1549(23) -0.3749(8)
H3A H 0.5914(16) -1.2268(69) -0.4292(41)
H18A H 0.8705(25) -1.5174(28) -0.8696(42)
H19A H 0.7263(66) -1.6043(30) -0.8749(44)
H20A H 0.7642(89) -1.5623(54) -0.9410(7)
loop_
_geom_bond_atom_site_label_1
_geom_bond_atom_site_label_2
_geom_bond_site_symmetry_1
_geom_bond_site_symmetry_2
Co1 N7 1_555 1_555
Co2 O1 1_555 1_555
Co3 O2 1_555 1_555
C1 H1 1_555 1_555
H2 C1 1_555 1_555
H3 C1 1_555 1_555
O1 C2 1_555 1_555
C2 C1 1_555 1_555
N1 C2 1_555 1_555
H4 N1 1_555 1_555
C3 N1 1_555 1_555
H5 C3 1_555 1_555
H6 C3 1_555 1_555
C4 C3 1_555 1_555
H7 C4 1_555 1_555
H8 C4 1_555 1_555
C5 C4 1_555 1_555
H9 C5 1_555 1_555
H10 C5 1_555 1_555
C6 C5 1_555 1_555
H11 C6 1_555 1_555
H12 C6 1_555 1_555
C7 C6 1_555 1_555
H13 C7 1_555 1_555
H14 C7 1_555 1_555
C8 C7 1_555 1_555
H15 C8 1_555 1_555
H16 C8 1_555 1_555
N2 C8 1_555 1_555
H17 N2 1_555 1_555
O2 C9 1_555 1_555
C9 N2 1_555 1_555
C10 C9 1_555 1_555
H18 C10 1_555 1_555
H19 C10 1_555 1_555
H20 C10 1_555 1_555
C11 H21 1_555 1_555
H22 C11 1_555 1_555
H23 C11 1_555 1_555
O3 Co2 1_555 1_555
C12 C11 1_555 1_555
N3 C12 1_555 1_555
H24 N3 1_555 1_555
C13 N3 1_555 1_555
H25 C13 1_555 1_555
H26 C13 1_555 1_555
C14 C13 1_555 1_555
H27 C14 1_555 1_555
H28 C14 1_555 1_555
C15 C14 1_555 1_555
H29 C15 1_555 1_555
H30 C15 1_555 1_555
C16 C15 1_555 1_555
H31 C16 1_555 1_555
H32 C16 1_555 1_555
C17 C16 1_555 1_555
H33 C17 1_555 1_555
H34 C17 1_555 1_555
C18 C17 1_555 1_555
H35 C18 1_555 1_555
H36 C18 1_555 1_555
N4 C18 1_555 1_555
H37 N4 1_555 1_555
O4 C19 1_555 1_555
C19 N4 1_555 1_555
C20 C19 1_555 1_555
H38 C20 1_555 1_555
H39 C20 1_555 1_555
H40 C20 1_555 1_555
C21 H41 1_555 1_555
H42 C21 1_555 1_555
H43 C21 1_555 1_555
O5 Co3 1_555 1_555
C22 C21 1_555 1_555
N5 C22 1_555 1_555
H44 N5 1_555 1_555
C23 N5 1_555 1_555
H45 C23 1_555 1_555
H46 C23 1_555 1_555
C24 C23 1_555 1_555
H47 C24 1_555 1_555
H48 C24 1_555 1_555
C25 C24 1_555 1_555
H49 C25 1_555 1_555
H50 C25 1_555 1_555
C26 C25 1_555 1_555
H51 C26 1_555 1_555
H52 C26 1_555 1_555
C27 C26 1_555 1_555
H53 C27 1_555 1_555
H54 C27 1_555 1_555
C28 C27 1_555 1_555
H55 C28 1_555 1_555
H56 C28 1_555 1_555
N6 C28 1_555 1_555
H57 N6 1_555 1_555
O6 C29 1_555 1_555
C29 N6 1_555 1_555
C30 C29 1_555 1_555
H58 C30 1_555 1_555
H59 C30 1_555 1_555
H60 C30 1_555 1_555
N7 C31 1_555 1_555
C31 S1 1_555 1_555
N8 Co1 1_555 1_555
C32 N8 1_555 1_555
S2 C32 1_555 1_555
N9 Co1 1_555 1_555
C33 N9 1_555 1_555
S3 C33 1_555 1_555
N10 Co1 1_555 1_555
C34 N10 1_555 1_555
S4 C34 1_555 1_555
O1A Co2 1_555 1_555
O3A Co2 1_555 1_555
O4A Co2 1_555 1_555
O2A Co3 1_555 1_555
O5A Co3 1_555 1_555
O6A Co3 1_555 1_555
O4_2 Co2 1_555 1_555
O6_2 Co3 1_555 1_555
C22A O5A 1_555 1_555
C21A C22A 1_555 1_555
N5A C22A 1_555 1_555
H44A N5A 1_555 1_555
C23A N5A 1_555 1_555
H45A C23A 1_555 1_555
H46A C23A 1_555 1_555
C24A C23A 1_555 1_555
H47A C24A 1_555 1_555
H48A C24A 1_555 1_555
C25A C24A 1_555 1_555
H49A C25A 1_555 1_555
H50A C25A 1_555 1_555
C26A C25A 1_555 1_555
H51A C26A 1_555 1_555
H52A C26A 1_555 1_555
C27A C26A 1_555 1_555
H53A C27A 1_555 1_555
H54A C27A 1_555 1_555
C28A C27A 1_555 1_555
H55A C28A 1_555 1_555
H56A C28A 1_555 1_555
N6A C28A 1_555 1_555
H57A N6A 1_555 1_555
C29A N6A 1_555 1_555
O6A_2 C29A 1_555 1_555
C30A C29A 1_555 1_555
Co3_2 O6A_2 1_555 1_555
C12A O3A 1_555 1_555
C11A C12A 1_555 1_555
N3A C12A 1_555 1_555
H24A N3A 1_555 1_555
C13A N3A 1_555 1_555
H25A C13A 1_555 1_555
H26A C13A 1_555 1_555
C14A C13A 1_555 1_555
H27A C14A 1_555 1_555
H28A C14A 1_555 1_555
C15A C14A 1_555 1_555
H29A C15A 1_555 1_555
H30A C15A 1_555 1_555
C16A C15A 1_555 1_555
H31A C16A 1_555 1_555
H32A C16A 1_555 1_555
C17A C16A 1_555 1_555
H33A C17A 1_555 1_555
H34A C17A 1_555 1_555
C18A C17A 1_555 1_555
H35A C18A 1_555 1_555
H36A C18A 1_555 1_555
N4A C18A 1_555 1_555
H37A N4A 1_555 1_555
C19A N4A 1_555 1_555
O4A_2 C19A 1_555 1_555
C20A C19A 1_555 1_555
Co2_2 O4A_2 1_555 1_555
Co2_3 O4 1_555 1_555
C2A O1A 1_555 1_555
C1A C2A 1_555 1_555
N1A C2A 1_555 1_555
H4A N1A 1_555 1_555
C3A N1A 1_555 1_555
H5A C3A 1_555 1_555
H6A C3A 1_555 1_555
C4A C3A 1_555 1_555
H7A C4A 1_555 1_555
H8A C4A 1_555 1_555
C5A C4A 1_555 1_555
H9A C5A 1_555 1_555
H10A C5A 1_555 1_555
C6A C5A 1_555 1_555
H11A C6A 1_555 1_555
H12A C6A 1_555 1_555
C7A C6A 1_555 1_555
H13A C7A 1_555 1_555
H14A C7A 1_555 1_555
C8A C7A 1_555 1_555
H15A C8A 1_555 1_555
H16A C8A 1_555 1_555
N2A C8A 1_555 1_555
H17A N2A 1_555 1_555
C9A N2A 1_555 1_555
O2A_2 C9A 1_555 1_555
C10A C9A 1_555 1_555
Co3_3 O2A_2 1_555 1_555
Co3_4 O6 1_555 1_555
H41A C21A 1_555 1_555
H42A C21A 1_555 1_555
H43A C21A 1_555 1_555
H58A C30A 1_555 1_555
H59A C30A 1_555 1_555
H60A C30A 1_555 1_555
H21A C11A 1_555 1_555
H22A C11A 1_555 1_555
H23A C11A 1_555 1_555
H38A C20A 1_555 1_555
H39A C20A 1_555 1_555
H40A C20A 1_555 1_555
H1A C1A 1_555 1_555
H2A C1A 1_555 1_555
H3A C1A 1_555 1_555
H18A C10A 1_555 1_555
H19A C10A 1_555 1_555
H20A C10A 1_555 1_555
O3 C12 1_555 1_555
O5 C22 1_555 1_555

#END
