
#######################################################################
#
#                 Cambridge Crystallographic Data Centre
#                                CCDC 
#
#######################################################################
#
# If this CIF has been generated from an entry in the Cambridge 
# Structural Database, then it will include bibliographic, chemical, 
# crystal, experimental, refinement or atomic coordinate data resulting 
# from the CCDC's data processing and validation procedures.
#
#######################################################################

data_QAYTOZ
_symmetry_cell_setting           triclinic
_symmetry_space_group_name_H-M   'P -1'
_symmetry_Int_Tables_number      2
_space_group_name_Hall           '-P 1'
loop_
_symmetry_equiv_pos_site_id
_symmetry_equiv_pos_as_xyz
1 x,y,z
2 -x,-y,-z
_cell_length_a                   12.856(2)
_cell_length_b                   13.097(2)
_cell_length_c                   18.002(2)
_cell_angle_alpha                93.609(10)
_cell_angle_beta                 99.887(11)
_cell_angle_gamma                91.441(11)
_cell_volume                     2978.16
loop_
_atom_site_label
_atom_site_type_symbol
_atom_site_fract_x
_atom_site_fract_y
_atom_site_fract_z
Mn1 Mn 0.2582(2) 0.2162(2) 0.25185(10)
O1 O 0.1616(9) 0.3467(7) 0.2716(5)
C1 C 0.0688(16) 0.3728(14) 0.2503(9)
N1 N 0.0415(11) 0.4675(9) 0.2659(9)
H1 H -0.0272(11) 0.4821(9) 0.2547(9)
O2 O 0.2012(7) 0.2172(8) 0.1312(5)
C2 C 0.2396(12) 0.2098(13) 0.0720(8)
N2 N 0.1977(11) 0.2558(11) 0.0109(7)
H2 H 0.2310(11) 0.2514(11) -0.0292(7)
O3 O 0.3215(8) 0.2206(8) 0.3723(5)
C3 C 0.2979(13) 0.2430(10) 0.4346(8)
N3 N 0.3729(11) 0.2538(10) 0.4962(6)
H3 H 0.3525(11) 0.2704(10) 0.5407(6)
O4 O 0.1325(8) 0.1073(8) 0.2597(5)
C4 C 0.1160(12) 0.0200(12) 0.2817(8)
N4 N 0.0476(10) -0.0445(10) 0.2405(6)
H4 H 0.0388(10) -0.1070(10) 0.2573(6)
O5 O 0.3787(8) 0.3254(8) 0.2302(5)
C5 C 0.4183(12) 0.4080(12) 0.2600(7)
N5 N 0.4736(12) 0.4686(11) 0.2220(6)
H5 H 0.5009(12) 0.5287(11) 0.2451(6)
O6 O 0.3534(8) 0.0833(7) 0.2399(5)
C6 C 0.4459(15) 0.0611(13) 0.2437(8)
N6 N 0.4727(10) -0.0306(11) 0.2209(8)
H6 H 0.5418(10) -0.0434(11) 0.2249(8)
C7 C -0.0157(16) 0.2981(15) 0.2106(10)
H7 H -0.0838(16) 0.3236(51) 0.2155(65)
H8 H -0.0073(66) 0.2334(33) 0.2327(52)
H9 H -0.0103(68) 0.2895(80) 0.1580(19)
C8 C 0.1150(14) 0.5480(13) 0.2997(9)
H10 H 0.1714(14) 0.5198(13) 0.3344(9)
H11 H 0.0794(14) 0.5971(13) 0.3283(9)
C9 C 0.1618(14) 0.6023(13) 0.2401(9)
H12 H 0.1996(14) 0.5539(13) 0.2127(9)
H13 H 0.1053(14) 0.6287(13) 0.2044(9)
C10 C 0.2367(14) 0.6899(12) 0.2764(9)
H14 H 0.1997(14) 0.7367(12) 0.3057(9)
H15 H 0.2948(14) 0.6631(12) 0.3105(9)
C11 C 0.3278(16) 0.1451(15) 0.0660(10)
H16 H 0.3925(18) 0.1813(40) 0.0887(70)
H17 H 0.3294(67) 0.1272(89) 0.0137(10)
H18 H 0.3201(58) 0.0841(49) 0.0917(68)
C12 C 0.0993(14) 0.3142(12) 0.0045(11)
H19 H 0.0646(14) 0.3118(12) -0.0479(11)
H20 H 0.0513(14) 0.2835(12) 0.0336(11)
C13 C 0.1247(13) 0.4201(12) 0.0327(10)
H21 H 0.1671(13) 0.4517(12) 0.0002(10)
H22 H 0.1668(13) 0.4211(12) 0.0829(10)
C14 C 0.0262(14) 0.4842(14) 0.0363(6)
H23 H -0.0241(14) 0.4445(14) 0.0583(6)
H24 H 0.0471(14) 0.5449(14) 0.0699(6)
C15 C 0.1867(15) 0.2622(15) 0.4437(10)
H25 H 0.1779(31) 0.2493(98) 0.4942(24)
H26 H 0.1394(16) 0.2176(70) 0.4082(51)
H27 H 0.1714(35) 0.3322(29) 0.4346(72)
C16 C 0.4842(14) 0.2409(11) 0.4966(10)
H28 H 0.5241(14) 0.2986(11) 0.5253(10)
H29 H 0.4978(14) 0.2400(11) 0.4452(10)
C17 C 0.5211(14) 0.1432(9) 0.5308(9)
H30 H 0.4979(14) 0.1399(9) 0.5791(9)
H31 H 0.5977(14) 0.1446(9) 0.5401(9)
C18 C 0.4806(14) 0.0483(7) 0.4816(8)
H32 H 0.5042(14) 0.0507(7) 0.4333(8)
H33 H 0.4040(14) 0.0463(7) 0.4722(8)
C19 C 0.1723(15) -0.0083(14) 0.3552(9)
H34 H 0.1588(87) -0.0796(28) 0.3605(33)
H35 H 0.1480(79) 0.0317(76) 0.3950(9)
H36 H 0.2468(18) 0.0046(98) 0.3582(31)
C20 C -0.0148(14) -0.0211(15) 0.1694(7)
H37 H -0.0348(14) 0.0497(15) 0.1732(7)
H38 H -0.0792(14) -0.0636(15) 0.1603(7)
C21 C 0.0400(15) -0.0369(15) 0.1038(6)
H39 H 0.0509(15) -0.1093(15) 0.0946(6)
H40 H 0.1086(15) -0.0014(15) 0.1146(6)
C22 C -0.0263(13) 0.0041(16) 0.0330(6)
H41 H -0.0935(13) -0.0340(16) 0.0213(6)
H42 H -0.0408(13) 0.0753(16) 0.0439(6)
C23 C 0.4151(15) 0.4445(14) 0.3387(9)
H43 H 0.421(11) 0.5179(15) 0.3434(19)
H44 H 0.4729(62) 0.4173(83) 0.3718(12)
H45 H 0.3496(47) 0.4220(86) 0.3521(25)
C24 C 0.4916(16) 0.4416(14) 0.1448(8)
H46 H 0.5663(16) 0.4322(14) 0.1454(8)
H47 H 0.4538(16) 0.3778(14) 0.1257(8)
C25 C 0.4555(16) 0.5222(14) 0.0954(7)
H48 H 0.5037(16) 0.5812(14) 0.1086(7)
H49 H 0.3866(16) 0.5425(14) 0.1047(7)
C26 C 0.4475(9) 0.4918(17) 0.0103(7)
H50 H 0.4244(9) 0.4205(17) -0.0002(7)
H51 H 0.3963(9) 0.5333(17) -0.0190(7)
C27 C 0.5361(15) 0.1368(15) 0.2730(10)
H52 H 0.6008(22) 0.1011(19) 0.2830(73)
H53 H 0.5236(54) 0.1721(75) 0.3189(43)
H54 H 0.5412(70) 0.1854(65) 0.2360(34)
C28 C 0.3963(14) -0.1116(13) 0.1897(9)
H55 H 0.4278(14) -0.1581(13) 0.1565(9)
H56 H 0.3360(14) -0.0822(13) 0.1595(9)
C29 C 0.3593(14) -0.1704(12) 0.2493(9)
H57 H 0.3287(14) -0.1237(12) 0.2828(9)
H58 H 0.4196(14) -0.2006(12) 0.2790(9)
C30 C 0.2794(14) 0.7468(12) 0.2169(9)
H59 H 0.3113(14) 0.6983(12) 0.1854(9)
H60 H 0.2211(14) 0.7766(12) 0.1850(9)
C14A C -0.0262(14) 0.5158(14) -0.0363(6)
C18A C 0.5194(14) -0.0483(7) 0.5184(8)
C22A C 0.0263(13) -0.0041(16) -0.0330(6)
C26A C 0.5525(9) 0.5082(17) -0.0103(7)
C30_2 C 0.2794(14) -0.2532(12) 0.2169(9)
C29_2 C 0.3593(14) 0.8296(12) 0.2493(9)
C13A C -0.1247(13) 0.5799(12) -0.0327(10)
H23A H 0.0241(14) 0.5555(14) -0.0583(6)
H24A H -0.0471(14) 0.4551(14) -0.0699(6)
C17A C 0.4789(14) -0.1432(9) 0.4692(9)
H32A H 0.4958(14) -0.0507(7) 0.5667(8)
H33A H 0.5960(14) -0.0463(7) 0.5278(8)
C21A C -0.0400(15) 0.0369(15) -0.1038(6)
H41A H 0.0935(13) 0.0340(16) -0.0213(6)
H42A H 0.0408(13) -0.0753(16) -0.0439(6)
C25A C 0.5445(16) 0.4778(14) -0.0954(7)
H50A H 0.5756(9) 0.5795(17) 0.0002(7)
H51A H 0.6037(9) 0.4667(17) 0.0190(7)
C10_2 C 0.2367(14) -0.3101(12) 0.2764(9)
H59_2 H 0.3113(14) -0.3017(12) 0.1854(9)
H60_2 H 0.2211(14) -0.2234(12) 0.1850(9)
C28_2 C 0.3963(14) 0.8884(13) 0.1897(9)
H57_2 H 0.3287(14) 0.8763(12) 0.2828(9)
H58_2 H 0.4196(14) 0.7994(12) 0.2790(9)
C12A C -0.0993(14) 0.6858(12) -0.0045(11)
H21A H -0.1671(13) 0.5483(12) -0.0002(10)
H22A H -0.1668(13) 0.5789(12) -0.0829(10)
C16A C 0.5158(14) -0.2409(11) 0.5034(10)
H30A H 0.5021(14) -0.1399(9) 0.4209(9)
H31A H 0.4023(14) -0.1446(9) 0.4599(9)
C20A C 0.0148(14) 0.0211(15) -0.1694(7)
H39A H -0.0509(15) 0.1093(15) -0.0946(6)
H40A H -0.1086(15) 0.0014(15) -0.1146(6)
C24A C 0.5084(16) 0.5584(14) -0.1448(8)
H48A H 0.4963(16) 0.4188(14) -0.1086(7)
H49A H 0.6134(16) 0.4575(14) -0.1047(7)
C9_2 C 0.1618(14) -0.3977(13) 0.2401(9)
H14_2 H 0.1997(14) -0.2633(12) 0.3057(9)
H15_2 H 0.2948(14) -0.3369(12) 0.3105(9)
N6_2 N 0.4727(10) 0.9694(11) 0.2209(8)
H55_2 H 0.4278(14) 0.8419(13) 0.1565(9)
H56_2 H 0.3360(14) 0.9178(13) 0.1595(9)
N2A N -0.1977(11) 0.7442(11) -0.0109(7)
H19A H -0.0646(14) 0.6882(12) 0.0479(11)
H20A H -0.0513(14) 0.7165(12) -0.0336(11)
N3A N 0.6271(11) -0.2538(10) 0.5038(6)
H28A H 0.4759(14) -0.2986(11) 0.4747(10)
H29A H 0.5022(14) -0.2400(11) 0.5548(10)
N4A N -0.0476(10) 0.0445(10) -0.2405(6)
H37A H 0.0348(14) -0.0497(15) -0.1732(7)
H38A H 0.0792(14) 0.0636(15) -0.1603(7)
N5A N 0.5264(12) 0.5314(11) -0.2220(6)
H46A H 0.4337(16) 0.5678(14) -0.1454(8)
H47A H 0.5462(16) 0.6222(14) -0.1257(8)
C8_2 C 0.1150(14) -0.4520(13) 0.2997(9)
H12_2 H 0.1996(14) -0.4461(13) 0.2127(9)
H13_2 H 0.1053(14) -0.3713(13) 0.2044(9)
C6_2 C 0.4459(15) 1.0611(13) 0.2437(8)
H6_2 H 0.5418(10) 0.9566(11) 0.2249(8)
C2A C -0.2396(12) 0.7902(13) -0.0720(8)
H2A H -0.2310(11) 0.7486(11) 0.0292(7)
C3A C 0.7021(13) -0.2430(10) 0.5654(8)
H3A H 0.6475(11) -0.2704(10) 0.4593(6)
C4A C -0.1160(12) -0.0200(12) -0.2817(8)
H4A H -0.0388(10) 0.1070(10) -0.2573(6)
C5A C 0.5817(12) 0.5920(12) -0.2600(7)
H5A H 0.4991(12) 0.4713(11) -0.2451(6)
N1_2 N 0.0415(11) -0.5325(9) 0.2659(9)
H10_2 H 0.1714(14) -0.4802(13) 0.3344(9)
H11_2 H 0.0794(14) -0.4029(13) 0.3283(9)
O6_2 O 0.3534(8) 1.0833(7) 0.2399(5)
C27_2 C 0.5361(15) 1.1368(15) 0.2730(10)
O2A O -0.2012(7) 0.7828(8) -0.1312(5)
C11A C -0.3278(16) 0.8549(15) -0.0660(10)
O3A O 0.6785(8) -0.2206(8) 0.6277(5)
C15A C 0.8133(15) -0.2622(15) 0.5563(10)
O4A O -0.1325(8) -0.1073(8) -0.2597(5)
C19A C -0.1723(15) 0.0083(14) -0.3552(9)
O5A O 0.6213(8) 0.6746(8) -0.2302(5)
C23A C 0.5849(15) 0.5555(14) -0.3387(9)
C1_2 C 0.0688(16) -0.6272(14) 0.2503(9)
H1_2 H -0.0272(11) -0.5179(9) 0.2547(9)
Mn1_2 Mn 0.2582(2) 1.2162(2) 0.25185(10)
H52_2 H 0.6008(22) 1.1011(19) 0.2830(73)
H53_2 H 0.5236(54) 1.1721(75) 0.3189(43)
H54_2 H 0.5412(70) 1.1854(65) 0.2360(34)
Mn1A Mn 0.7418(2) -0.2162(2) 0.74815(10)
O1_2 O 0.1616(9) -0.6533(7) 0.2716(5)
C7_2 C -0.0157(16) -0.7019(15) 0.2106(10)
Mn1A_2 Mn -0.2582(2) -0.2162(2) -0.25185(10)
Mn1A_3 Mn -0.2582(2) 0.7838(2) -0.25185(10)
Mn1A_4 Mn 0.7418(2) 0.7838(2) -0.25185(10)
O1_3 O 0.1616(9) 1.3467(7) 0.2716(5)
O2_2 O 0.2012(7) 1.2172(8) 0.1312(5)
O3_2 O 0.3215(8) 1.2206(8) 0.3723(5)
O4_2 O 0.1325(8) 1.1073(8) 0.2597(5)
O5_2 O 0.3787(8) 1.3254(8) 0.2302(5)
Mn1_3 Mn 0.2582(2) -0.7838(2) 0.25185(10)
C31 C 0.1386(15) -0.0311(17) 0.6008(10)
H61 H 0.0945(15) 0.0282(17) 0.6048(10)
Cl1 Cl 0.1579(6) -0.0862(6) 0.6872(3)
Cl2 Cl 0.2601(6) 0.0120(7) 0.5834(5)
Cl3 Cl 0.0759(7) -0.1132(7) 0.5309(4)
C32 C 0.7623(22) 0.4488(22) 0.4013(16)
H62 H 0.7407(22) 0.5080(22) 0.3724(16)
Cl4 Cl 0.7008(8) 0.4587(9) 0.4791(5)
Cl5 Cl 0.7243(10) 0.3477(8) 0.3435(7)
Cl6 Cl 0.8916(8) 0.4622(12) 0.4265(8)
C33 C 0.3073(17) 0.7652(25) -0.0634(16)
H63 H 0.3095(17) 0.7061(25) -0.0992(16)
Cl7 Cl 0.2165(14) 0.7420(22) -0.0078(9)
Cl8 Cl 0.2766(16) 0.8719(18) -0.1116(13)
Cl9 Cl 0.4272(11) 0.7833(19) -0.0042(9)
Hg1 Hg 0.23233(6) 0.28740(6) 0.75696(4)
Br1 Br 0.38620(15) 0.32379(14) 0.68072(8)
Br2 Br 0.06412(15) 0.22917(14) 0.66023(11)
Br3 Br 0.3071(2) 0.1513(2) 0.84865(10)
Br4 Br 0.1999(2) 0.4564(2) 0.82998(12)
C34? C 0.3300(30) 0.7896(29) -0.0510(14)
H64? H 0.3705(30) 0.7304(29) -0.0340(14)
Cl10? Cl 0.2929(19) 0.7776(22) -0.1461(10)
Cl11? Cl 0.4068(20) 0.8991(19) -0.0279(16)
Cl12? Cl 0.2208(31) 0.7959(38) -0.0106(21)
loop_
_geom_bond_atom_site_label_1
_geom_bond_atom_site_label_2
_geom_bond_site_symmetry_1
_geom_bond_site_symmetry_2
Hg1 Br1 1_555 1_555
Br2 Hg1 1_555 1_555
Br3 Hg1 1_555 1_555
Br4 Hg1 1_555 1_555
Mn1 O1 1_555 1_555
O1 C1 1_555 1_555
C1 N1 1_555 1_555
N1 H1 1_555 1_555
O2 Mn1 1_555 1_555
C2 O2 1_555 1_555
N2 C2 1_555 1_555
H2 N2 1_555 1_555
O3 Mn1 1_555 1_555
C3 O3 1_555 1_555
N3 C3 1_555 1_555
H3 N3 1_555 1_555
O4 Mn1 1_555 1_555
C4 O4 1_555 1_555
N4 C4 1_555 1_555
H4 N4 1_555 1_555
O5 Mn1 1_555 1_555
C5 O5 1_555 1_555
N5 C5 1_555 1_555
H5 N5 1_555 1_555
O6 Mn1 1_555 1_555
C6 O6 1_555 1_555
N6 C6 1_555 1_555
H6 N6 1_555 1_555
C7 C1 1_555 1_555
H7 C7 1_555 1_555
H8 C7 1_555 1_555
H9 C7 1_555 1_555
C8 N1 1_555 1_555
H10 C8 1_555 1_555
H11 C8 1_555 1_555
C9 C8 1_555 1_555
H12 C9 1_555 1_555
H13 C9 1_555 1_555
C10 C9 1_555 1_555
H14 C10 1_555 1_555
H15 C10 1_555 1_555
C11 C2 1_555 1_555
H16 C11 1_555 1_555
H17 C11 1_555 1_555
H18 C11 1_555 1_555
C12 N2 1_555 1_555
H19 C12 1_555 1_555
H20 C12 1_555 1_555
C13 C12 1_555 1_555
H21 C13 1_555 1_555
H22 C13 1_555 1_555
C14 C13 1_555 1_555
H23 C14 1_555 1_555
H24 C14 1_555 1_555
C15 C3 1_555 1_555
H25 C15 1_555 1_555
H26 C15 1_555 1_555
H27 C15 1_555 1_555
C16 N3 1_555 1_555
H28 C16 1_555 1_555
H29 C16 1_555 1_555
C17 C16 1_555 1_555
H30 C17 1_555 1_555
H31 C17 1_555 1_555
C18 C17 1_555 1_555
H32 C18 1_555 1_555
H33 C18 1_555 1_555
C19 C4 1_555 1_555
H34 C19 1_555 1_555
H35 C19 1_555 1_555
H36 C19 1_555 1_555
C20 N4 1_555 1_555
H37 C20 1_555 1_555
H38 C20 1_555 1_555
C21 C20 1_555 1_555
H39 C21 1_555 1_555
H40 C21 1_555 1_555
C22 C21 1_555 1_555
H41 C22 1_555 1_555
H42 C22 1_555 1_555
C23 C5 1_555 1_555
H43 C23 1_555 1_555
H44 C23 1_555 1_555
H45 C23 1_555 1_555
C24 N5 1_555 1_555
H46 C24 1_555 1_555
H47 C24 1_555 1_555
C25 C24 1_555 1_555
H48 C25 1_555 1_555
H49 C25 1_555 1_555
C26 C25 1_555 1_555
H50 C26 1_555 1_555
H51 C26 1_555 1_555
C27 C6 1_555 1_555
H52 C27 1_555 1_555
H53 C27 1_555 1_555
H54 C27 1_555 1_555
C28 N6 1_555 1_555
H55 C28 1_555 1_555
H56 C28 1_555 1_555
C29 C28 1_555 1_555
H57 C29 1_555 1_555
H58 C29 1_555 1_555
C30 C10 1_555 1_555
H59 C30 1_555 1_555
H60 C30 1_555 1_555
C31 H61 1_555 1_555
Cl1 C31 1_555 1_555
Cl2 C31 1_555 1_555
Cl3 C31 1_555 1_555
C32 H62 1_555 1_555
Cl4 C32 1_555 1_555
Cl5 C32 1_555 1_555
Cl6 C32 1_555 1_555
C33 H63 1_555 1_555
Cl7 C33 1_555 1_555
Cl8 C33 1_555 1_555
Cl9 C33 1_555 1_555
C14A C14 1_555 1_555
C18A C18 1_555 1_555
C22A C22 1_555 1_555
C26A C26 1_555 1_555
C30_2 C29 1_555 1_555
C29_2 C30 1_555 1_555
C13A C14A 1_555 1_555
H23A C14A 1_555 1_555
H24A C14A 1_555 1_555
C17A C18A 1_555 1_555
H32A C18A 1_555 1_555
H33A C18A 1_555 1_555
C21A C22A 1_555 1_555
H41A C22A 1_555 1_555
H42A C22A 1_555 1_555
C25A C26A 1_555 1_555
H50A C26A 1_555 1_555
H51A C26A 1_555 1_555
C10_2 C30_2 1_555 1_555
H59_2 C30_2 1_555 1_555
H60_2 C30_2 1_555 1_555
C28_2 C29_2 1_555 1_555
H57_2 C29_2 1_555 1_555
H58_2 C29_2 1_555 1_555
C12A C13A 1_555 1_555
H21A C13A 1_555 1_555
H22A C13A 1_555 1_555
C16A C17A 1_555 1_555
H30A C17A 1_555 1_555
H31A C17A 1_555 1_555
C20A C21A 1_555 1_555
H39A C21A 1_555 1_555
H40A C21A 1_555 1_555
C24A C25A 1_555 1_555
H48A C25A 1_555 1_555
H49A C25A 1_555 1_555
C9_2 C10_2 1_555 1_555
H14_2 C10_2 1_555 1_555
H15_2 C10_2 1_555 1_555
N6_2 C28_2 1_555 1_555
H55_2 C28_2 1_555 1_555
H56_2 C28_2 1_555 1_555
N2A C12A 1_555 1_555
H19A C12A 1_555 1_555
H20A C12A 1_555 1_555
N3A C16A 1_555 1_555
H28A C16A 1_555 1_555
H29A C16A 1_555 1_555
N4A C20A 1_555 1_555
H37A C20A 1_555 1_555
H38A C20A 1_555 1_555
N5A C24A 1_555 1_555
H46A C24A 1_555 1_555
H47A C24A 1_555 1_555
C8_2 C9_2 1_555 1_555
H12_2 C9_2 1_555 1_555
H13_2 C9_2 1_555 1_555
C6_2 N6_2 1_555 1_555
H6_2 N6_2 1_555 1_555
C2A N2A 1_555 1_555
H2A N2A 1_555 1_555
C3A N3A 1_555 1_555
H3A N3A 1_555 1_555
C4A N4A 1_555 1_555
H4A N4A 1_555 1_555
C5A N5A 1_555 1_555
H5A N5A 1_555 1_555
N1_2 C8_2 1_555 1_555
H10_2 C8_2 1_555 1_555
H11_2 C8_2 1_555 1_555
O6_2 C6_2 1_555 1_555
C27_2 C6_2 1_555 1_555
O2A C2A 1_555 1_555
C11A C2A 1_555 1_555
O3A C3A 1_555 1_555
C15A C3A 1_555 1_555
O4A C4A 1_555 1_555
C19A C4A 1_555 1_555
O5A C5A 1_555 1_555
C23A C5A 1_555 1_555
C1_2 N1_2 1_555 1_555
H1_2 N1_2 1_555 1_555
Mn1_2 O6_2 1_555 1_555
H52_2 C27_2 1_555 1_555
H53_2 C27_2 1_555 1_555
H54_2 C27_2 1_555 1_555
Mn1A O3A 1_555 1_555
O1_2 C1_2 1_555 1_555
C7_2 C1_2 1_555 1_555
Mn1A_2 O4A 1_555 1_555
Mn1A_3 O2A 1_555 1_555
Mn1A_4 O5A 1_555 1_555
O1_3 Mn1_2 1_555 1_555
O2_2 Mn1_2 1_555 1_555
O3_2 Mn1_2 1_555 1_555
O4_2 Mn1_2 1_555 1_555
O5_2 Mn1_2 1_555 1_555
Mn1_3 O1_2 1_555 1_555

#END
