
#######################################################################
#
#                 Cambridge Crystallographic Data Centre
#                                CCDC 
#
#######################################################################
#
# If this CIF has been generated from an entry in the Cambridge 
# Structural Database, then it will include bibliographic, chemical, 
# crystal, experimental, refinement or atomic coordinate data resulting 
# from the CCDC's data processing and validation procedures.
#
#######################################################################

data_QAYXAR
_symmetry_cell_setting           monoclinic
_symmetry_space_group_name_H-M   'P 21/c'
_symmetry_Int_Tables_number      14
_space_group_name_Hall           '-P 2ybc'
loop_
_symmetry_equiv_pos_site_id
_symmetry_equiv_pos_as_xyz
1 x,y,z
2 -x,1/2+y,1/2-z
3 -x,-y,-z
4 x,1/2-y,1/2+z
_cell_length_a                   11.545(13)
_cell_length_b                   13.044(15)
_cell_length_c                   18.265(16)
_cell_angle_alpha                90
_cell_angle_beta                 117.83(5)
_cell_angle_gamma                90
_cell_volume                     2432.44
loop_
_atom_site_label
_atom_site_type_symbol
_atom_site_fract_x
_atom_site_fract_y
_atom_site_fract_z
Cd1 Cd 0.14707(5) -0.15893(3) 0.17721(3)
Cd2 Cd -0.20681(5) -0.83308(3) 0.08978(3)
C1 C 0.2805(7) 0.0171(5) 0.1880(4)
C2 C 0.3569(6) 0.1127(5) 0.2020(4)
C3 C 0.4500(6) 0.1198(5) 0.1762(4)
H1 H 0.4631 0.0648 0.1485
C4 C 0.5249(6) 0.2067(5) 0.1902(4)
C5 C 0.5038(6) 0.2882(5) 0.2298(4)
H2 H 0.5528 0.3479 0.2396
C6 C 0.4097(7) 0.2801(5) 0.2544(4)
C7 C 0.3360(7) 0.1942(5) 0.2424(4)
H3 H 0.2735 0.1906 0.2610
C8 C 0.6270(6) 0.2125(6) 0.1638(4)
C9 C 0.1472(7) -0.3553(5) 0.1300(4)
C10 C 0.1571(6) -0.4633(5) 0.1082(4)
C11 C 0.0702(6) -0.5346(5) 0.1075(4)
H4 H 0.0057 -0.5143 0.1214
C12 C 0.0749(6) -0.6348(5) 0.0871(4)
C13 C 0.1702(7) -0.6645(5) 0.0651(4)
H5 H 0.1744 -0.7316 0.0493
C14 C 0.2565(7) -0.5926(5) 0.0675(4)
C15 C 0.2527(7) -0.4921(5) 0.0875(4)
H6 H 0.3128 -0.4448 0.0872
C16 C -0.0186(7) -0.7112(5) 0.0885(4)
F1 F 0.3864(5) 0.3615(4) 0.2916(3)
F2 F 0.3524(5) -0.6219(4) 0.0490(3)
O1 O 0.2221(6) 0.0010(4) 0.2296(3)
O2 O 0.2778(5) -0.0469(4) 0.1372(3)
O3 O 0.6187(5) 0.1488(4) 0.1101(3)
O4 O 0.7153(5) 0.2774(4) 0.1928(3)
O5 O 0.2162(5) -0.2888(3) 0.1213(3)
O6 O 0.0706(5) -0.3334(3) 0.1582(3)
O7 O -0.0948(5) -0.6829(4) 0.1163(3)
O8 O -0.0226(5) -0.7993(4) 0.0623(3)
O9 O -0.0059(5) -0.1290(4) 0.2221(3)
H7 H -0.0757 -0.1770 0.1924
H8 H 0.0221 -0.1420 0.2714
O10 O -0.0206(6) -0.1155(5) 0.0541(3)
H9 H -0.0183 -0.1447 0.0151
H10 H -0.0666 -0.0647 0.0471
O11 O -0.3512(5) -0.7754(4) -0.0386(3)
H11 H -0.3928 -0.7329 -0.0272
H12 H -0.3089 -0.7589 -0.0624
O12 O -0.2314(5) -0.9841(4) 0.0202(3)
H13 H -0.2791 -1.0284 0.0237
H14 H -0.2452 -0.9604 -0.0247
O13 O -0.0696(7) -0.9128(5) 0.2066(3)
H15 H -0.0595 -0.8854 0.2496
H16 H -0.0299 -0.9652 0.2073
Cd1A Cd 0.85293(5) 0.34107(3) 0.32279(3)
Cd2_2 Cd 0.79319(5) 0.16692(3) 0.08978(3)
O3_2 O -0.3813(5) -0.8512(4) 0.1101(3)
O4A O 0.2847(5) -0.2226(4) 0.3072(3)
O14 O 0.4693(11) -0.1096(7) 0.5247(7)
H17 H 0.4632 -0.0551 0.5451
H18 H 0.4859 -0.1102 0.4857
O15 O 0.8014(6) -0.2612(6) 0.1272(5)
H19 H 0.7478 -0.2198 0.0957
H20 H 0.7977 -0.3220 0.1149
O16 O 0.2601(12) 0.0111(9) 0.3886(5)
H21 H 0.3346 0.0298 0.4004
H22 H 0.2398 -0.0497 0.3824
O17 O 0.3982(6) -0.8838(5) 0.9637(4)
H23 H 0.4543 -0.8790 1.0122
H24 H 0.4171 -0.9004 0.9273
loop_
_geom_bond_atom_site_label_1
_geom_bond_atom_site_label_2
_geom_bond_site_symmetry_1
_geom_bond_site_symmetry_2
Cd1 O1 1_555 1_555
Cd2 O7 1_555 1_555
C1 C2 1_555 1_555
C2 C3 1_555 1_555
C3 H1 1_555 1_555
C4 C3 1_555 1_555
C5 C4 1_555 1_555
H2 C5 1_555 1_555
C6 C5 1_555 1_555
C7 C2 1_555 1_555
H3 C7 1_555 1_555
C8 C4 1_555 1_555
C9 C10 1_555 1_555
C10 C11 1_555 1_555
C11 H4 1_555 1_555
C12 C11 1_555 1_555
C13 C12 1_555 1_555
H5 C13 1_555 1_555
C14 C13 1_555 1_555
C15 C10 1_555 1_555
H6 C15 1_555 1_555
C16 C12 1_555 1_555
F1 C6 1_555 1_555
F2 C14 1_555 1_555
O1 C1 1_555 1_555
O2 Cd1 1_555 1_555
O3 C8 1_555 1_555
O4 C8 1_555 1_555
O5 Cd1 1_555 1_555
O6 Cd1 1_555 1_555
O7 C16 1_555 1_555
O8 Cd2 1_555 1_555
O9 Cd1 1_555 1_555
H7 O9 1_555 1_555
H8 O9 1_555 1_555
O10 Cd1 1_555 1_555
H9 O10 1_555 1_555
H10 O10 1_555 1_555
O11 Cd2 1_555 1_555
H11 O11 1_555 1_555
H12 O11 1_555 1_555
O12 Cd2 1_555 1_555
H13 O12 1_555 1_555
H14 O12 1_555 1_555
O13 Cd2 1_555 1_555
H15 O13 1_555 1_555
H16 O13 1_555 1_555
O14 H17 1_555 1_555
H18 O14 1_555 1_555
O15 H19 1_555 1_555
H20 O15 1_555 1_555
O16 H21 1_555 1_555
H22 O16 1_555 1_555
O17 H23 1_555 1_555
H24 O17 1_555 1_555
Cd1A O4 1_555 1_555
Cd2_2 O3 1_555 1_555
O3_2 Cd2 1_555 1_555
O4A Cd1 1_555 1_555
C1 O2 1_555 1_555
C6 C7 1_555 1_555
C9 O5 1_555 1_555
C9 O6 1_555 1_555
C14 C15 1_555 1_555
C16 O8 1_555 1_555

#END
