
#######################################################################
#
#                 Cambridge Crystallographic Data Centre
#                                CCDC 
#
#######################################################################
#
# If this CIF has been generated from an entry in the Cambridge 
# Structural Database, then it will include bibliographic, chemical, 
# crystal, experimental, refinement or atomic coordinate data resulting 
# from the CCDC's data processing and validation procedures.
#
#######################################################################

data_QAYXEV
_symmetry_cell_setting           triclinic
_symmetry_space_group_name_H-M   'P -1'
_symmetry_Int_Tables_number      2
_space_group_name_Hall           '-P 1'
loop_
_symmetry_equiv_pos_site_id
_symmetry_equiv_pos_as_xyz
1 x,y,z
2 -x,-y,-z
_cell_length_a                   9.7958(15)
_cell_length_b                   11.9927(19)
_cell_length_c                   13.362(2)
_cell_angle_alpha                114.579(3)
_cell_angle_beta                 91.172(3)
_cell_angle_gamma                91.630(3)
_cell_volume                     1426.03
loop_
_atom_site_label
_atom_site_type_symbol
_atom_site_fract_x
_atom_site_fract_y
_atom_site_fract_z
C1 C 0.4821(7) 0.8954(6) -0.3127(5)
Cd1 Cd 0.5000 1.0000 -0.5000
Cd2 Cd 0.44880(4) 0.81372(3) -0.80237(3)
C2 C 0.2108(6) 0.8565(6) -0.6626(7)
C3 C 0.0739(6) 0.8441(6) -0.6176(5)
C4 C -0.0478(5) 0.8272(5) -0.6785(4)
H1 H -0.0450 0.8200 -0.7505
C5 C -0.1709(5) 0.8210(5) -0.6353(4)
C6 C -0.1756(6) 0.8264(6) -0.5302(5)
H2 H -0.2588 0.8206 -0.5000
C7 C -0.0551(8) 0.8406(8) -0.4713(6)
C8 C 0.0686(6) 0.8516(7) -0.5117(6)
H3 H 0.1482 0.8641 -0.4688
C9 C -0.3025(5) 0.8121(5) -0.6981(4)
C10 C 0.4457(7) 0.7830(5) -0.2934(5)
C11 C 0.4464(6) 0.7871(5) -0.1890(5)
H4 H 0.4687 0.8609 -0.1291
C12 C 0.4146(7) 0.6836(5) -0.1714(5)
C13 C 0.3788(10) 0.5734(6) -0.2618(6)
H5 H 0.3580 0.5022 -0.2526
C14 C 0.3752(11) 0.5737(7) -0.3632(6)
C15 C 0.4087(9) 0.6729(7) -0.3847(5)
H6 H 0.4072 0.6678 -0.4561
C16 C 0.4213(7) 0.6857(6) -0.0579(5)
F1 F -0.0587(6) 0.8497(7) -0.3671(4)
F2 F 0.3375(10) 0.4653(5) -0.4505(4)
O1 O 0.3068(5) 0.8980(6) -0.5940(6)
O2 O 0.2222(4) 0.8237(5) -0.7637(5)
O3 O -0.3032(4) 0.7767(4) -0.7985(3)
O4 O -0.4099(4) 0.8419(4) -0.6463(3)
O5 O 0.4820(7) 0.8816(5) -0.4109(4)
O6 O 0.5113(6) 0.9913(4) -0.2298(4)
O7 O 0.4338(5) 0.7865(4) 0.0212(3)
O8 O 0.4148(8) 0.5836(5) -0.0506(5)
O9 O 0.4133(6) 0.6138(4) -0.8279(5)
H21 H 0.4441 0.5688 -0.8872
H22 H 0.4327 0.6059 -0.7713
C1A C 0.5179(7) 1.1046(6) -0.6873(5)
Cd1_2 Cd -0.5000 1.0000 -0.5000
Cd1_3 Cd 1.5000 1.0000 -0.5000
Cd2A Cd 0.55120(4) 1.18628(3) -0.19763(3)
Cd2_2 Cd -0.55120(4) 0.81372(3) -0.80237(3)
Cd2_3 Cd 0.44880(4) 0.81372(3) 0.19763(3)
Cd2A_2 Cd 1.55120(4) 1.18628(3) -0.19763(3)
Cd2A_3 Cd 0.55120(4) 1.18628(3) -1.19763(3)
C2A C 0.7892(6) 1.1435(6) -0.3374(7)
C3A C 0.9261(6) 1.1559(6) -0.3824(5)
C4A C 1.0478(5) 1.1728(5) -0.3215(4)
H1A H 1.0450 1.1800 -0.2495
C5A C 1.1709(5) 1.1790(5) -0.3647(4)
C6A C 1.1756(6) 1.1736(6) -0.4698(5)
H2A H 1.2588 1.1794 -0.5000
C7A C 1.0551(8) 1.1594(8) -0.5287(6)
C8A C 0.9314(6) 1.1484(7) -0.4883(6)
H3A H 0.8518 1.1359 -0.5312
C9A C 1.3025(5) 1.1879(5) -0.3019(4)
C10A C 0.5543(7) 1.2170(5) -0.7066(5)
C11A C 0.5536(6) 1.2129(5) -0.8110(5)
H4A H 0.5313 1.1391 -0.8709
C12A C 0.5854(7) 1.3164(5) -0.8286(5)
C13A C 0.6212(10) 1.4266(6) -0.7382(6)
H5A H 0.6420 1.4978 -0.7474
C14A C 0.6248(11) 1.4263(7) -0.6368(6)
C15A C 0.5913(9) 1.3271(7) -0.6153(5)
H6A H 0.5928 1.3322 -0.5439
C16A C 0.5787(7) 1.3143(6) -0.9421(5)
F1A F 1.0587(6) 1.1503(7) -0.6329(4)
F2A F 0.6625(10) 1.5347(5) -0.5495(4)
O1A O 0.6932(5) 1.1020(6) -0.4060(6)
O2A O 0.7778(4) 1.1763(5) -0.2363(5)
O3A O 1.3032(4) 1.2233(4) -0.2015(3)
O3_2 O 0.6968(4) 0.7767(4) -0.7985(3)
O3A_2 O 0.3032(4) 1.2233(4) -0.2015(3)
O4A O 1.4099(4) 1.1581(4) -0.3537(3)
O4_2 O 0.5901(4) 0.8419(4) -0.6463(3)
O4A_2 O 0.4099(4) 1.1581(4) -0.3537(3)
O5A O 0.5180(7) 1.1184(5) -0.5891(4)
O6A O 0.4887(6) 1.0087(4) -0.7702(4)
O7A O 0.5662(5) 1.2135(4) -1.0212(3)
O7_2 O 0.4338(5) 0.7865(4) -0.9788(3)
O7A_2 O 0.5662(5) 1.2135(4) -0.0212(3)
O8A O 0.5852(8) 1.4164(5) -0.9494(5)
O9A O 0.5867(6) 1.3862(4) -0.1721(5)
H21A H 0.5559 1.4312 -0.1128
H22A H 0.5673 1.3941 -0.2287
Cd3 Cd 0.0000 0.5000 0.0000
C17 C 0.075(2) 0.4887(19) 0.2155(17)
H7 H -0.0197 0.4929 0.2161
C18 C 0.240(2) 0.393(2) 0.288(2)
H8 H 0.2873 0.3785 0.2216
H9 H 0.2214 0.3168 0.2930
H10 H 0.2965 0.4462 0.3504
C19 C 0.029(4) 0.439(3) 0.365(3)
H11 H -0.0143 0.3588 0.3352
H12 H -0.0387 0.4999 0.3837
H13 H 0.0828 0.4509 0.4300
N1 N 0.1144(15) 0.4506(11) 0.2871(10)
O10 O 0.1095(13) 0.5151(9) 0.1604(8)
O11 O 0.1881(9) 0.4427(6) -0.0886(8)
H23 H 0.2446 0.4388 -0.0441
H24 H 0.1515 0.3776 -0.1384
O12 O -0.0604(7) 0.3040(5) -0.0517(5)
H25 H -0.0506 0.2578 -0.1165
H26 H -0.1032 0.2816 -0.0107
C17A C -0.075(2) 0.5113(19) -0.2155(17)
H7A H 0.0197 0.5071 -0.2161
C18A C -0.240(2) 0.607(2) -0.288(2)
H8A H -0.2873 0.6215 -0.2216
H9A H -0.2214 0.6832 -0.2930
H10A H -0.2965 0.5538 -0.3504
C19A C -0.029(4) 0.561(3) -0.365(3)
H11A H 0.0143 0.6412 -0.3352
H12A H 0.0387 0.5001 -0.3837
H13A H -0.0828 0.5491 -0.4300
N1A N -0.1144(15) 0.5494(11) -0.2871(10)
O10A O -0.1095(13) 0.4849(9) -0.1604(8)
O11A O -0.1881(9) 0.5573(6) 0.0886(8)
H23A H -0.2446 0.5612 0.0441
H24A H -0.1515 0.6224 0.1384
O12A O 0.0604(7) 0.6960(5) 0.0517(5)
H25A H 0.0506 0.7422 0.1165
H26A H 0.1032 0.7184 0.0107
C20 C 0.8405(18) 1.079(3) 0.007(3)
H14 H 0.8134 1.0596 -0.0654
C21 C 0.852(3) 1.021(2) 0.1639(17)
H15 H 0.7741 1.0505 0.2087
H16 H 0.9291 1.0768 0.1967
H17 H 0.8722 0.9413 0.1582
C22 C 0.7441(19) 0.9015(17) 0.011(2)
H18 H 0.7117 0.8809 -0.0629
H19 H 0.6676 0.9088 0.0570
H20 H 0.8010 0.8382 0.0124
N2 N 0.8209(7) 1.0150(8) 0.0514(8)
O13 O 0.9144(9) 1.1971(8) 0.0811(8)
loop_
_geom_bond_atom_site_label_1
_geom_bond_atom_site_label_2
_geom_bond_site_symmetry_1
_geom_bond_site_symmetry_2
C1 C10 1_555 1_555
Cd1 O1 1_555 1_555
Cd2 O2 1_555 1_555
Cd3 O10 1_555 1_555
C2 C3 1_555 1_555
C3 C4 1_555 1_555
C4 H1 1_555 1_555
C5 C4 1_555 1_555
C6 C5 1_555 1_555
H2 C6 1_555 1_555
C7 C6 1_555 1_555
C8 C3 1_555 1_555
H3 C8 1_555 1_555
C9 C5 1_555 1_555
C10 C11 1_555 1_555
C11 H4 1_555 1_555
C12 C11 1_555 1_555
C13 C12 1_555 1_555
H5 C13 1_555 1_555
C14 C13 1_555 1_555
C15 C10 1_555 1_555
H6 C15 1_555 1_555
C16 C12 1_555 1_555
C17 H7 1_555 1_555
C18 H8 1_555 1_555
H9 C18 1_555 1_555
H10 C18 1_555 1_555
C19 H11 1_555 1_555
H12 C19 1_555 1_555
H13 C19 1_555 1_555
C20 H14 1_555 1_555
C21 H15 1_555 1_555
H16 C21 1_555 1_555
H17 C21 1_555 1_555
C22 H18 1_555 1_555
H19 C22 1_555 1_555
H20 C22 1_555 1_555
F1 C7 1_555 1_555
F2 C14 1_555 1_555
N1 C17 1_555 1_555
N2 C20 1_555 1_555
O1 C2 1_555 1_555
O2 C2 1_555 1_555
O3 C9 1_555 1_555
O4 C9 1_555 1_555
O5 C1 1_555 1_555
O6 C1 1_555 1_555
O7 C16 1_555 1_555
O8 C16 1_555 1_555
O9 Cd2 1_555 1_555
H21 O9 1_555 1_555
H22 O9 1_555 1_555
O10 C17 1_555 1_555
O11 Cd3 1_555 1_555
H23 O11 1_555 1_555
H24 O11 1_555 1_555
O12 Cd3 1_555 1_555
H25 O12 1_555 1_555
H26 O12 1_555 1_555
O13 C20 1_555 1_555
C1A C10A 1_555 1_555
Cd1_2 O4 1_555 1_555
Cd1_3 O4A 1_555 1_555
Cd2A O6 1_555 1_555
Cd2_2 O3 1_555 1_555
Cd2_3 O7 1_555 1_555
Cd2A_2 O3A 1_555 1_555
Cd2A_3 O7A 1_555 1_555
C2A C3A 1_555 1_555
C3A C4A 1_555 1_555
C4A H1A 1_555 1_555
C5A C4A 1_555 1_555
C6A C5A 1_555 1_555
H2A C6A 1_555 1_555
C7A C6A 1_555 1_555
C8A C3A 1_555 1_555
H3A C8A 1_555 1_555
C9A C5A 1_555 1_555
C10A C11A 1_555 1_555
C11A H4A 1_555 1_555
C12A C11A 1_555 1_555
C13A C12A 1_555 1_555
H5A C13A 1_555 1_555
C14A C13A 1_555 1_555
C15A C10A 1_555 1_555
H6A C15A 1_555 1_555
C16A C12A 1_555 1_555
C17A H7A 1_555 1_555
C18A H8A 1_555 1_555
H9A C18A 1_555 1_555
H10A C18A 1_555 1_555
C19A H11A 1_555 1_555
H12A C19A 1_555 1_555
H13A C19A 1_555 1_555
F1A C7A 1_555 1_555
F2A C14A 1_555 1_555
N1A C17A 1_555 1_555
O1A Cd1 1_555 1_555
O2A Cd2A 1_555 1_555
O3A C9A 1_555 1_555
O3_2 Cd2 1_555 1_555
O3A_2 Cd2A 1_555 1_555
O4A Cd2A_2 1_555 1_555
O4_2 Cd1 1_555 1_555
O4A_2 Cd1 1_555 1_555
O5A Cd1 1_555 1_555
O6A Cd2 1_555 1_555
O7A C16A 1_555 1_555
O7_2 Cd2 1_555 1_555
O7A_2 Cd2A 1_555 1_555
O8A C16A 1_555 1_555
O9A Cd2A 1_555 1_555
H21A O9A 1_555 1_555
H22A O9A 1_555 1_555
O10A Cd3 1_555 1_555
O11A Cd3 1_555 1_555
H23A O11A 1_555 1_555
H24A O11A 1_555 1_555
O12A Cd3 1_555 1_555
H25A O12A 1_555 1_555
H26A O12A 1_555 1_555
Cd1 O5 1_555 1_555
Cd2 O4_2 1_555 1_555
C7 C8 1_555 1_555
C14 C15 1_555 1_555
C18 N1 1_555 1_555
C19 N1 1_555 1_555
C21 N2 1_555 1_555
C22 N2 1_555 1_555
O4 Cd2_2 1_555 1_555
C1A O5A 1_555 1_555
C1A O6A 1_555 1_555
Cd2A O4A_2 1_555 1_555
C2A O1A 1_555 1_555
C2A O2A 1_555 1_555
C7A C8A 1_555 1_555
C9A O4A 1_555 1_555
C14A C15A 1_555 1_555
C17A O10A 1_555 1_555
C18A N1A 1_555 1_555
C19A N1A 1_555 1_555

#END
