
#######################################################################
#
#                 Cambridge Crystallographic Data Centre
#                                CCDC 
#
#######################################################################
#
# If this CIF has been generated from an entry in the Cambridge 
# Structural Database, then it will include bibliographic, chemical, 
# crystal, experimental, refinement or atomic coordinate data resulting 
# from the CCDC's data processing and validation procedures.
#
#######################################################################

data_QAZCUP
_symmetry_cell_setting           monoclinic
_symmetry_space_group_name_H-M   'P 21/n'
_symmetry_Int_Tables_number      14
_space_group_name_Hall           '-P 2yn'
loop_
_symmetry_equiv_pos_site_id
_symmetry_equiv_pos_as_xyz
1 x,y,z
2 1/2+x,1/2-y,1/2+z
3 -x,-y,-z
4 1/2-x,1/2+y,1/2-z
_cell_length_a                   11.769(4)
_cell_length_b                   10.666(4)
_cell_length_c                   22.941(7)
_cell_angle_alpha                90
_cell_angle_beta                 101.210(10)
_cell_angle_gamma                90
_cell_volume                     2824.8
loop_
_atom_site_label
_atom_site_type_symbol
_atom_site_fract_x
_atom_site_fract_y
_atom_site_fract_z
Ag1 Ag 0.25691(3) 0.44921(3) 0.004582(12)
Ag2 Ag 0.5000 0.5000 0.0000
Ag3 Ag 0.0000 0.5000 0.0000
N1 N 0.0785(3) 0.4951(3) 0.09214(13)
N2 N 0.1378(3) 0.4112(3) 0.17977(12)
N3 N 0.1744(2) 0.2779(3) 0.04172(12)
N4 N 0.3943(3) 0.5100(3) 0.09629(13)
N5 N 0.4671(3) 0.4342(3) 0.18478(13)
N6 N 0.5158(2) 0.3211(3) 0.04605(13)
N7 N 0.1831(3) 0.6515(3) -0.03356(14)
N8 N 0.1450(3) 0.7689(3) -0.11420(14)
N9 N 0.2565(3) 0.4565(3) -0.09809(13)
N10 N 0.3372(2) 0.2220(3) -0.03904(12)
C1 C 0.0654(3) 0.5802(4) 0.13514(18)
H1 H 0.0349 0.6634 0.1275
C2 C 0.1034(4) 0.5295(4) 0.18878(18)
H2 H 0.1030 0.5683 0.2265
C3 C 0.1879(4) 0.3228(4) 0.22596(17)
H3 H 0.2073 0.2463 0.2081
H4 H 0.2566 0.3584 0.2496
H5 H 0.1328 0.3054 0.2508
C4 C 0.1235(3) 0.3939(3) 0.12041(14)
C5 C 0.1477(3) 0.2781(3) 0.09203(15)
H6 H 0.1423 0.2002 0.1122
C6 C 0.1795(3) 0.1556(4) 0.01295(17)
H7 H 0.1216 0.1530 -0.0229
H8 H 0.1611 0.0918 0.0391
C7 C 0.2957(3) 0.1278(4) -0.00259(16)
H9 H 0.3515 0.1190 0.0337
H10 H 0.2914 0.0491 -0.0232
C8 C 0.3684(4) 0.5892(4) 0.13816(18)
H11 H 0.3251 0.6656 0.1299
C9 C 0.4126(4) 0.5432(4) 0.19270(19)
H12 H 0.4061 0.5802 0.2300
C10 C 0.5291(4) 0.3521(5) 0.23153(18)
H13 H 0.5590 0.2823 0.2128
H14 H 0.5922 0.3976 0.2551
H15 H 0.4784 0.3222 0.2566
C11 C 0.4552(3) 0.4183(4) 0.12599(15)
C12 C 0.4969(3) 0.3123(4) 0.09798(16)
H16 H 0.5095 0.2345 0.1193
C13 C 0.5407(3) 0.2060(4) 0.01562(17)
H17 H 0.5307 0.1346 0.0396
H18 H 0.6193 0.2067 0.0099
C14 C 0.4578(3) 0.1958(4) -0.04304(16)
H19 H 0.4811 0.2547 -0.0701
H20 H 0.4624 0.1133 -0.0591
C15 C 0.1462(4) 0.7659(4) -0.0193(2)
H21 H 0.1389 0.7912 0.0200
C16 C 0.1222(3) 0.8390(4) -0.0685(2)
H22 H 0.0951 0.9241 -0.0712
C17 C 0.1351(4) 0.8114(5) -0.1748(2)
H23 H 0.1068 0.8960 -0.1781
H24 H 0.2097 0.8082 -0.1857
H25 H 0.0821 0.7582 -0.2008
C18 C 0.1822(3) 0.6559(4) -0.09136(16)
C19 C 0.2133(3) 0.5528(4) -0.12553(16)
H26 H 0.1993 0.5570 -0.1681
C20 C 0.2855(4) 0.3486(4) -0.13101(16)
H27 H 0.3659 0.3532 -0.1335
H28 H 0.2405 0.3485 -0.1707
C21 C 0.2657(3) 0.2278(4) -0.09897(16)
H29 H 0.1855 0.2243 -0.0960
H30 H 0.2819 0.1566 -0.1216
N1B N 0.9215(3) 0.5049(3) -0.09214(13)
N2B N 0.8622(3) 0.5888(3) -0.17977(12)
N3B N 0.8256(2) 0.7221(3) -0.04172(12)
N4B N 0.6057(3) 0.4900(3) -0.09629(13)
N5B N 0.5329(3) 0.5658(3) -0.18478(13)
N6B N 0.4842(2) 0.6789(3) -0.04605(13)
N7B N 0.8169(3) 0.3485(3) 0.03356(14)
N8B N 0.8550(3) 0.2311(3) 0.11420(14)
N9B N 0.7435(3) 0.5435(3) 0.09809(13)
N10B N 0.6628(2) 0.7780(3) 0.03904(12)
C1B C 0.9346(3) 0.4198(4) -0.13514(18)
H1B H 0.9651 0.3366 -0.1275
C2B C 0.8966(4) 0.4705(4) -0.18878(18)
H2B H 0.8970 0.4317 -0.2265
C3B C 0.8121(4) 0.6772(4) -0.22596(17)
H3B H 0.7927 0.7537 -0.2081
H4B H 0.7434 0.6416 -0.2496
H5B H 0.8672 0.6946 -0.2508
C4B C 0.8765(3) 0.6061(3) -0.12041(14)
C5B C 0.8523(3) 0.7219(3) -0.09203(15)
H6B H 0.8577 0.7998 -0.1122
C6B C 0.8205(3) 0.8444(4) -0.01295(17)
H7B H 0.8784 0.8470 0.0229
H8B H 0.8389 0.9082 -0.0391
C7B C 0.7043(3) 0.8722(4) 0.00259(16)
H9B H 0.6485 0.8810 -0.0337
H10B H 0.7086 0.9509 0.0232
C8B C 0.6316(4) 0.4108(4) -0.13816(18)
H11B H 0.6749 0.3344 -0.1299
C9B C 0.5874(4) 0.4568(4) -0.19270(19)
H12B H 0.5939 0.4198 -0.2300
C10B C 0.4709(4) 0.6479(5) -0.23153(18)
H13B H 0.4410 0.7177 -0.2128
H14B H 0.4078 0.6024 -0.2551
H15B H 0.5216 0.6778 -0.2566
C11B C 0.5448(3) 0.5817(4) -0.12599(15)
C12B C 0.5031(3) 0.6877(4) -0.09798(16)
H16B H 0.4905 0.7655 -0.1193
C13B C 0.4593(3) 0.7940(4) -0.01562(17)
H17B H 0.4693 0.8654 -0.0396
H18B H 0.3807 0.7933 -0.0099
C14B C 0.5422(3) 0.8042(4) 0.04304(16)
H19B H 0.5189 0.7453 0.0701
H20B H 0.5376 0.8867 0.0591
C15B C 0.8538(4) 0.2341(4) 0.0193(2)
H21B H 0.8611 0.2088 -0.0200
C16B C 0.8778(3) 0.1610(4) 0.0685(2)
H22B H 0.9049 0.0759 0.0712
C17B C 0.8649(4) 0.1886(5) 0.1748(2)
H23B H 0.8932 0.1040 0.1781
H24B H 0.7903 0.1918 0.1857
H25B H 0.9179 0.2418 0.2008
C18B C 0.8178(3) 0.3441(4) 0.09136(16)
C19B C 0.7867(3) 0.4472(4) 0.12553(16)
H26B H 0.8007 0.4430 0.1681
C20B C 0.7145(4) 0.6514(4) 0.13101(16)
H27B H 0.6341 0.6468 0.1335
H28B H 0.7595 0.6515 0.1707
C21B C 0.7343(3) 0.7722(4) 0.09897(16)
H29B H 0.8145 0.7757 0.0960
H30B H 0.7181 0.8434 0.1216
Ag1B Ag 0.74309(3) 0.55079(3) -0.004582(12)
N1B_2 N -0.0785(3) 0.5049(3) -0.09214(13)
Ag3_2 Ag 1.0000 0.5000 0.0000
N11 N 0.1184(4) 0.5226(5) -0.29643(18)
O1 O 0.2109(4) 0.5484(5) -0.26906(18)
O2 O 0.0991(4) 0.4527(4) -0.3380(2)
O3 O 0.0415(5) 0.5941(6) -0.2905(3)
N12 N -0.3949(3) 0.5725(3) -0.36414(15)
O4 O -0.3811(3) 0.4821(3) -0.33013(14)
O5 O -0.3083(4) 0.6213(4) -0.37753(18)
O6 O -0.4894(3) 0.6137(4) -0.3835(2)
O7 O -0.1449(3) 0.3994(4) -0.33993(16)
H31 H -0.0674 0.4170 -0.3399
H32 H -0.2172 0.4639 -0.3398
loop_
_geom_bond_atom_site_label_1
_geom_bond_atom_site_label_2
_geom_bond_site_symmetry_1
_geom_bond_site_symmetry_2
Ag1 N3 1_555 1_555
Ag2 N6 1_555 1_555
Ag3 N1 1_555 1_555
N1 C1 1_555 1_555
N2 C2 1_555 1_555
N3 C5 1_555 1_555
N4 Ag1 1_555 1_555
N5 C9 1_555 1_555
N6 C12 1_555 1_555
N7 Ag1 1_555 1_555
N8 C16 1_555 1_555
N9 Ag1 1_555 1_555
N10 C7 1_555 1_555
C1 H1 1_555 1_555
C2 C1 1_555 1_555
H2 C2 1_555 1_555
C3 N2 1_555 1_555
H3 C3 1_555 1_555
H4 C3 1_555 1_555
H5 C3 1_555 1_555
C4 N1 1_555 1_555
C5 C4 1_555 1_555
H6 C5 1_555 1_555
C6 N3 1_555 1_555
H7 C6 1_555 1_555
H8 C6 1_555 1_555
C7 C6 1_555 1_555
H9 C7 1_555 1_555
H10 C7 1_555 1_555
C8 N4 1_555 1_555
H11 C8 1_555 1_555
C9 C8 1_555 1_555
H12 C9 1_555 1_555
C10 N5 1_555 1_555
H13 C10 1_555 1_555
H14 C10 1_555 1_555
H15 C10 1_555 1_555
C11 N4 1_555 1_555
C12 C11 1_555 1_555
H16 C12 1_555 1_555
C13 N6 1_555 1_555
H17 C13 1_555 1_555
H18 C13 1_555 1_555
C14 N10 1_555 1_555
H19 C14 1_555 1_555
H20 C14 1_555 1_555
C15 N7 1_555 1_555
H21 C15 1_555 1_555
C16 C15 1_555 1_555
H22 C16 1_555 1_555
C17 N8 1_555 1_555
H23 C17 1_555 1_555
H24 C17 1_555 1_555
H25 C17 1_555 1_555
C18 N7 1_555 1_555
C19 N9 1_555 1_555
H26 C19 1_555 1_555
C20 N9 1_555 1_555
H27 C20 1_555 1_555
H28 C20 1_555 1_555
C21 N10 1_555 1_555
H29 C21 1_555 1_555
H30 C21 1_555 1_555
N11 O1 1_555 1_555
O2 N11 1_555 1_555
O3 N11 1_555 1_555
N12 O4 1_555 1_555
O5 N12 1_555 1_555
O6 N12 1_555 1_555
O7 H31 1_555 1_555
H32 O7 1_555 1_555
N1B C1B 1_555 1_555
N2B C2B 1_555 1_555
N3B C5B 1_555 1_555
N4B C8B 1_555 1_555
N5B C9B 1_555 1_555
N6B Ag2 1_555 1_555
N7B C15B 1_555 1_555
N8B C16B 1_555 1_555
N9B C19B 1_555 1_555
N10B C7B 1_555 1_555
C1B H1B 1_555 1_555
C2B C1B 1_555 1_555
H2B C2B 1_555 1_555
C3B N2B 1_555 1_555
H3B C3B 1_555 1_555
H4B C3B 1_555 1_555
H5B C3B 1_555 1_555
C4B N1B 1_555 1_555
C5B C4B 1_555 1_555
H6B C5B 1_555 1_555
C6B N3B 1_555 1_555
H7B C6B 1_555 1_555
H8B C6B 1_555 1_555
C7B C6B 1_555 1_555
H9B C7B 1_555 1_555
H10B C7B 1_555 1_555
C8B H11B 1_555 1_555
C9B C8B 1_555 1_555
H12B C9B 1_555 1_555
C10B N5B 1_555 1_555
H13B C10B 1_555 1_555
H14B C10B 1_555 1_555
H15B C10B 1_555 1_555
C11B N4B 1_555 1_555
C12B N6B 1_555 1_555
H16B C12B 1_555 1_555
C13B N6B 1_555 1_555
H17B C13B 1_555 1_555
H18B C13B 1_555 1_555
C14B N10B 1_555 1_555
H19B C14B 1_555 1_555
H20B C14B 1_555 1_555
C15B H21B 1_555 1_555
C16B C15B 1_555 1_555
H22B C16B 1_555 1_555
C17B N8B 1_555 1_555
H23B C17B 1_555 1_555
H24B C17B 1_555 1_555
H25B C17B 1_555 1_555
C18B N7B 1_555 1_555
C19B C18B 1_555 1_555
H26B C19B 1_555 1_555
C20B N9B 1_555 1_555
H27B C20B 1_555 1_555
H28B C20B 1_555 1_555
C21B N10B 1_555 1_555
H29B C21B 1_555 1_555
H30B C21B 1_555 1_555
Ag1B N3B 1_555 1_555
N1B_2 Ag3 1_555 1_555
Ag3_2 N1B 1_555 1_555
N2 C4 1_555 1_555
N5 C11 1_555 1_555
N8 C18 1_555 1_555
C13 C14 1_555 1_555
C18 C19 1_555 1_555
C20 C21 1_555 1_555
N2B C4B 1_555 1_555
N4B Ag1B 1_555 1_555
N5B C11B 1_555 1_555
N7B Ag1B 1_555 1_555
N8B C18B 1_555 1_555
N9B Ag1B 1_555 1_555
C11B C12B 1_555 1_555
C13B C14B 1_555 1_555
C20B C21B 1_555 1_555

#END
