
#######################################################################
#
#                 Cambridge Crystallographic Data Centre
#                                CCDC 
#
#######################################################################
#
# If this CIF has been generated from an entry in the Cambridge 
# Structural Database, then it will include bibliographic, chemical, 
# crystal, experimental, refinement or atomic coordinate data resulting 
# from the CCDC's data processing and validation procedures.
#
#######################################################################

data_QAZCUR
_symmetry_cell_setting           triclinic
_symmetry_space_group_name_H-M   'P -1'
_symmetry_Int_Tables_number      2
_space_group_name_Hall           '-P 1'
loop_
_symmetry_equiv_pos_site_id
_symmetry_equiv_pos_as_xyz
1 x,y,z
2 -x,-y,-z
_cell_length_a                   8.580(4)
_cell_length_b                   9.636(4)
_cell_length_c                   13.281(6)
_cell_angle_alpha                97.978(5)
_cell_angle_beta                 96.321(6)
_cell_angle_gamma                104.489(7)
_cell_volume                     1040.74
loop_
_atom_site_label
_atom_site_type_symbol
_atom_site_fract_x
_atom_site_fract_y
_atom_site_fract_z
Co1 Co -0.43841(5) 0.24663(5) 0.23321(3)
Co2 Co -1.0000 0.0000 0.0000
O1 O -0.8560(3) -0.0378(2) 0.12454(19)
O2 O -0.8489(3) 0.2078(2) 0.05243(18)
N1 N -0.6181(3) 0.0864(3) 0.2389(2)
N2 N -0.5935(3) 0.3119(3) 0.1510(2)
N3 N -0.2591(3) 0.3991(3) 0.2139(2)
N4 N -0.2855(3) 0.1757(3) 0.3127(2)
N5 N -0.4687(4) 0.3685(3) 0.3556(2)
N6 N -0.6060(4) 0.3603(4) 0.3664(3)
N7 N -0.7381(5) 0.3585(5) 0.3787(3)
N8 N -0.1792(3) 0.0308(3) 0.0965(2)
N9 N -0.2874(3) 0.0820(3) 0.1018(2)
N10 N -0.4020(3) 0.1298(3) 0.1063(2)
C1 C -0.7372(4) 0.0710(3) 0.1616(3)
C2 C -0.7279(4) 0.2076(3) 0.1159(3)
C3 C -0.5715(4) 0.4567(4) 0.1350(3)
C4 C -0.7051(4) 0.5121(4) 0.1169(3)
H1 H -0.8115 0.4506 0.1143
C5 C -0.6870(4) 0.6544(4) 0.1026(3)
H2 H -0.7799 0.6898 0.0901
C6 C -0.5317(4) 0.7453(4) 0.1068(3)
H3 H -0.5180 0.8428 0.0960
C7 C -0.3982(4) 0.6936(4) 0.1265(3)
H4 H -0.2927 0.7572 0.1301
C8 C -0.4123(4) 0.5496(4) 0.1417(3)
C9 C -0.2608(4) 0.5072(4) 0.1671(3)
C10 C -0.1055(4) 0.5979(4) 0.1407(3)
H5 H -0.0457 0.6685 0.2016
H6 H -0.1313 0.6496 0.0853
H7 H -0.0382 0.5345 0.1181
C11 C -0.1025(4) 0.3685(4) 0.2471(3)
H8 H -0.0157 0.4606 0.2700
H9 H -0.0706 0.3104 0.1893
C12 C -0.1262(4) 0.2845(4) 0.3348(3)
H10 H -0.0385 0.2354 0.3444
H11 H -0.1200 0.3524 0.3993
C13 C -0.3072(4) 0.0510(4) 0.3443(3)
C14 C -0.1622(5) 0.0009(4) 0.3850(3)
H12 H -0.0665 0.0481 0.3559
H13 H -0.1860 -0.1050 0.3651
H14 H -0.1402 0.0271 0.4601
C15 C -0.4710(4) -0.0424(4) 0.3465(3)
C16 C -0.4831(5) -0.1551(4) 0.4049(3)
H15 H -0.3858 -0.1728 0.4350
C17 C -0.6301(5) -0.2406(4) 0.4200(3)
H16 H -0.6334 -0.3165 0.4590
C18 C -0.7741(5) -0.2152(4) 0.3777(3)
H17 H -0.8762 -0.2724 0.3890
C19 C -0.7676(4) -0.1061(4) 0.3192(3)
H18 H -0.8660 -0.0881 0.2913
C20 C -0.6183(4) -0.0218(4) 0.3004(2)
Co1A Co -1.56159(5) -0.24663(5) -0.23321(3)
Co2_2 Co 0.0000 0.0000 0.0000
Co2_3 Co -2.0000 0.0000 0.0000
O1A O -1.1440(3) 0.0378(2) -0.12454(19)
O2A O -1.1511(3) -0.2078(2) -0.05243(18)
N1A N -1.3819(3) -0.0864(3) -0.2389(2)
N2A N -1.4065(3) -0.3119(3) -0.1510(2)
N3A N -1.7409(3) -0.3991(3) -0.2139(2)
N4A N -1.7145(3) -0.1757(3) -0.3127(2)
N5A N -1.5313(4) -0.3685(3) -0.3556(2)
N6A N -1.3940(4) -0.3603(4) -0.3664(3)
N7A N -1.2619(5) -0.3585(5) -0.3787(3)
N8_2 N -1.1792(3) 0.0308(3) 0.0965(2)
N8A N -0.8208(3) -0.0308(3) -0.0965(2)
N8A_2 N -1.8208(3) -0.0308(3) -0.0965(2)
N9A N -1.7126(3) -0.0820(3) -0.1018(2)
N10A N -1.5980(3) -0.1298(3) -0.1063(2)
C1A C -1.2628(4) -0.0710(3) -0.1616(3)
C2A C -1.2721(4) -0.2076(3) -0.1159(3)
C3A C -1.4285(4) -0.4567(4) -0.1350(3)
C4A C -1.2949(4) -0.5121(4) -0.1169(3)
H1A H -1.1885 -0.4506 -0.1143
C5A C -1.3130(4) -0.6544(4) -0.1026(3)
H2A H -1.2201 -0.6898 -0.0901
C6A C -1.4683(4) -0.7453(4) -0.1068(3)
H3A H -1.4820 -0.8428 -0.0960
C7A C -1.6018(4) -0.6936(4) -0.1265(3)
H4A H -1.7073 -0.7572 -0.1301
C8A C -1.5877(4) -0.5496(4) -0.1417(3)
C9A C -1.7392(4) -0.5072(4) -0.1671(3)
C10A C -1.8945(4) -0.5979(4) -0.1407(3)
H5A H -1.9543 -0.6685 -0.2016
H6A H -1.8687 -0.6496 -0.0853
H7A H -1.9618 -0.5345 -0.1181
C11A C -1.8975(4) -0.3685(4) -0.2471(3)
H8A H -1.9843 -0.4606 -0.2700
H9A H -1.9294 -0.3104 -0.1893
C12A C -1.8738(4) -0.2845(4) -0.3348(3)
H10A H -1.9615 -0.2354 -0.3444
H11A H -1.8800 -0.3524 -0.3993
C13A C -1.6928(4) -0.0510(4) -0.3443(3)
C14A C -1.8378(5) -0.0009(4) -0.3850(3)
H12A H -1.9335 -0.0481 -0.3559
H13A H -1.8140 0.1050 -0.3651
H14A H -1.8598 -0.0271 -0.4601
C15A C -1.5290(4) 0.0424(4) -0.3465(3)
C16A C -1.5169(5) 0.1551(4) -0.4049(3)
H15A H -1.6142 0.1728 -0.4350
C17A C -1.3699(5) 0.2406(4) -0.4200(3)
H16A H -1.3666 0.3165 -0.4590
C18A C -1.2259(5) 0.2152(4) -0.3777(3)
H17A H -1.1238 0.2724 -0.3890
C19A C -1.2324(4) 0.1061(4) -0.3192(3)
H18A H -1.1340 0.0881 -0.2913
C20A C -1.3817(4) 0.0218(4) -0.3004(2)
O3 O -0.8209(4) 0.3646(3) 0.5872(3)
loop_
_geom_bond_atom_site_label_1
_geom_bond_atom_site_label_2
_geom_bond_site_symmetry_1
_geom_bond_site_symmetry_2
Co1 N1 1_555 1_555
Co2 O1 1_555 1_555
O1 C1 1_555 1_555
O2 Co2 1_555 1_555
N1 C1 1_555 1_555
N2 Co1 1_555 1_555
N3 Co1 1_555 1_555
N4 Co1 1_555 1_555
N5 Co1 1_555 1_555
N6 N5 1_555 1_555
N7 N6 1_555 1_555
N8 N9 1_555 1_555
N9 N10 1_555 1_555
N10 Co1 1_555 1_555
C1 C2 1_555 1_555
C2 O2 1_555 1_555
C3 N2 1_555 1_555
C4 C3 1_555 1_555
H1 C4 1_555 1_555
C5 C4 1_555 1_555
H2 C5 1_555 1_555
C6 C5 1_555 1_555
H3 C6 1_555 1_555
C7 C6 1_555 1_555
H4 C7 1_555 1_555
C8 C3 1_555 1_555
C9 N3 1_555 1_555
C10 C9 1_555 1_555
H5 C10 1_555 1_555
H6 C10 1_555 1_555
H7 C10 1_555 1_555
C11 N3 1_555 1_555
H8 C11 1_555 1_555
H9 C11 1_555 1_555
C12 N4 1_555 1_555
H10 C12 1_555 1_555
H11 C12 1_555 1_555
C13 N4 1_555 1_555
C14 C13 1_555 1_555
H12 C14 1_555 1_555
H13 C14 1_555 1_555
H14 C14 1_555 1_555
C15 C13 1_555 1_555
C16 C15 1_555 1_555
H15 C16 1_555 1_555
C17 C16 1_555 1_555
H16 C17 1_555 1_555
C18 C17 1_555 1_555
H17 C18 1_555 1_555
C19 C18 1_555 1_555
H18 C19 1_555 1_555
C20 N1 1_555 1_555
Co1A N1A 1_555 1_555
Co2_2 N8 1_555 1_555
Co2_3 N8A_2 1_555 1_555
O1A Co2 1_555 1_555
O2A Co2 1_555 1_555
N1A C1A 1_555 1_555
N2A Co1A 1_555 1_555
N3A Co1A 1_555 1_555
N4A Co1A 1_555 1_555
N5A Co1A 1_555 1_555
N6A N5A 1_555 1_555
N7A N6A 1_555 1_555
N8_2 Co2 1_555 1_555
N8A Co2 1_555 1_555
N8A_2 N9A 1_555 1_555
N9A N10A 1_555 1_555
N10A Co1A 1_555 1_555
C1A O1A 1_555 1_555
C2A O2A 1_555 1_555
C3A N2A 1_555 1_555
C4A C3A 1_555 1_555
H1A C4A 1_555 1_555
C5A C4A 1_555 1_555
H2A C5A 1_555 1_555
C6A C5A 1_555 1_555
H3A C6A 1_555 1_555
C7A C6A 1_555 1_555
H4A C7A 1_555 1_555
C8A C3A 1_555 1_555
C9A N3A 1_555 1_555
C10A C9A 1_555 1_555
H5A C10A 1_555 1_555
H6A C10A 1_555 1_555
H7A C10A 1_555 1_555
C11A N3A 1_555 1_555
H8A C11A 1_555 1_555
H9A C11A 1_555 1_555
C12A N4A 1_555 1_555
H10A C12A 1_555 1_555
H11A C12A 1_555 1_555
C13A N4A 1_555 1_555
C14A C13A 1_555 1_555
H12A C14A 1_555 1_555
H13A C14A 1_555 1_555
H14A C14A 1_555 1_555
C15A C13A 1_555 1_555
C16A C15A 1_555 1_555
H15A C16A 1_555 1_555
C17A C16A 1_555 1_555
H16A C17A 1_555 1_555
C18A C17A 1_555 1_555
H17A C18A 1_555 1_555
C19A C18A 1_555 1_555
H18A C19A 1_555 1_555
C20A N1A 1_555 1_555
N2 C2 1_555 1_555
C7 C8 1_555 1_555
C8 C9 1_555 1_555
C11 C12 1_555 1_555
C15 C20 1_555 1_555
C19 C20 1_555 1_555
N2A C2A 1_555 1_555
C1A C2A 1_555 1_555
C7A C8A 1_555 1_555
C8A C9A 1_555 1_555
C11A C12A 1_555 1_555
C15A C20A 1_555 1_555
C19A C20A 1_555 1_555

#END
