
#######################################################################
#
#                 Cambridge Crystallographic Data Centre
#                                CCDC 
#
#######################################################################
#
# If this CIF has been generated from an entry in the Cambridge 
# Structural Database, then it will include bibliographic, chemical, 
# crystal, experimental, refinement or atomic coordinate data resulting 
# from the CCDC's data processing and validation procedures.
#
#######################################################################

data_QAZCOL
_symmetry_cell_setting           triclinic
_symmetry_space_group_name_H-M   'P -1'
_symmetry_Int_Tables_number      2
_space_group_name_Hall           '-P 1'
loop_
_symmetry_equiv_pos_site_id
_symmetry_equiv_pos_as_xyz
1 x,y,z
2 -x,-y,-z
_cell_length_a                   8.713(4)
_cell_length_b                   9.714(5)
_cell_length_c                   13.316(6)
_cell_angle_alpha                97.967(5)
_cell_angle_beta                 95.629(9)
_cell_angle_gamma                104.336(7)
_cell_volume                     1071.06
loop_
_atom_site_label
_atom_site_type_symbol
_atom_site_fract_x
_atom_site_fract_y
_atom_site_fract_z
Cd1 Cd 0.0000 0.0000 0.0000
Co1 Co 0.56513(3) 0.25794(3) 0.24015(2)
N1 N 0.3890(2) 0.09865(18) 0.24721(14)
N2 N 0.7164(2) 0.1881(2) 0.31892(15)
N3 N 0.7416(2) 0.40828(19) 0.21787(14)
N4 N 0.4126(2) 0.32083(18) 0.15892(14)
N5 N 0.5341(2) 0.3804(2) 0.36187(15)
N6 N 0.3963(3) 0.3713(2) 0.37143(15)
N7 N 0.2646(3) 0.3672(3) 0.38162(18)
N8 N 0.5996(2) 0.1414(2) 0.11273(14)
N9 N 0.7070(2) 0.0863(2) 0.11078(14)
N10 N 0.8097(2) 0.0273(2) 0.10780(15)
O1 O 0.16366(17) 0.22044(15) 0.06093(12)
O2 O 0.16082(18) -0.02960(15) 0.13416(12)
C1 C 0.2807(3) 0.2178(2) 0.12324(17)
C2 C 0.2738(3) 0.0810(2) 0.16997(17)
C3 C 0.3920(3) -0.0105(2) 0.30685(17)
C4 C 0.2466(3) -0.0973(2) 0.32572(17)
H1 H 0.1490 -0.0793 0.3001
C5 C 0.2426(3) -0.2087(2) 0.38086(18)
H2 H 0.1431 -0.2667 0.3927
C6 C 0.3851(3) -0.2352(3) 0.41888(19)
H3 H 0.3836 -0.3134 0.4548
C7 C 0.5280(3) -0.1475(2) 0.40410(18)
H4 H 0.6245 -0.1650 0.4323
C8 C 0.5377(3) -0.0326(2) 0.34893(17)
C9 C 0.6989(3) 0.0631(2) 0.34746(17)
C10 C 0.8432(3) 0.0131(3) 0.3841(2)
H5 H 0.9346 0.0578 0.3515
H6 H 0.8189 -0.0920 0.3659
H7 H 0.8694 0.0412 0.4586
C11 C 0.8726(3) 0.2983(3) 0.34030(19)
H8 H 0.9601 0.2513 0.3512
H9 H 0.8759 0.3670 0.4033
C12 C 0.8950(3) 0.3780(2) 0.25091(19)
H10 H 0.9803 0.4693 0.2717
H11 H 0.9262 0.3184 0.1940
C13 C 0.7383(3) 0.5138(2) 0.16852(17)
C14 C 0.8908(3) 0.6008(3) 0.1385(2)
H12 H 0.9483 0.6750 0.1966
H13 H 0.8648 0.6467 0.0804
H14 H 0.9581 0.5370 0.1191
C15 C 0.5889(3) 0.5547(2) 0.14400(16)
C16 C 0.6022(3) 0.6968(2) 0.12636(18)
H15 H 0.7055 0.7586 0.1266
C17 C 0.4708(3) 0.7488(2) 0.10884(17)
H16 H 0.4836 0.8449 0.0968
C18 C 0.3198(3) 0.6603(2) 0.10890(18)
H17 H 0.2287 0.6962 0.0977
C19 C 0.3007(3) 0.5196(2) 0.12519(17)
H18 H 0.1964 0.4598 0.1255
C20 C 0.4334(3) 0.4646(2) 0.14121(16)
Cd1_2 Cd -1.0000 0.0000 0.0000
Cd1_3 Cd 1.0000 0.0000 0.0000
Co1A Co -0.56513(3) -0.25794(3) -0.24015(2)
N1A N -0.3890(2) -0.09865(18) -0.24721(14)
N2A N -0.7164(2) -0.1881(2) -0.31892(15)
N3A N -0.7416(2) -0.40828(19) -0.21787(14)
N4A N -0.4126(2) -0.32083(18) -0.15892(14)
N5A N -0.5341(2) -0.3804(2) -0.36187(15)
N6A N -0.3963(3) -0.3713(2) -0.37143(15)
N7A N -0.2646(3) -0.3672(3) -0.38162(18)
N8A N -0.5996(2) -0.1414(2) -0.11273(14)
N9A N -0.7070(2) -0.0863(2) -0.11078(14)
N10A N -0.8097(2) -0.0273(2) -0.10780(15)
N10_2 N -0.1903(2) 0.0273(2) 0.10780(15)
N10A_2 N 0.1903(2) -0.0273(2) -0.10780(15)
O1A O -0.16366(17) -0.22044(15) -0.06093(12)
O2A O -0.16082(18) 0.02960(15) -0.13416(12)
C1A C -0.2807(3) -0.2178(2) -0.12324(17)
C2A C -0.2738(3) -0.0810(2) -0.16997(17)
C3A C -0.3920(3) 0.0105(2) -0.30685(17)
C4A C -0.2466(3) 0.0973(2) -0.32572(17)
H1A H -0.1490 0.0793 -0.3001
C5A C -0.2426(3) 0.2087(2) -0.38086(18)
H2A H -0.1431 0.2667 -0.3927
C6A C -0.3851(3) 0.2352(3) -0.41888(19)
H3A H -0.3836 0.3134 -0.4548
C7A C -0.5280(3) 0.1475(2) -0.40410(18)
H4A H -0.6245 0.1650 -0.4323
C8A C -0.5377(3) 0.0326(2) -0.34893(17)
C9A C -0.6989(3) -0.0631(2) -0.34746(17)
C10A C -0.8432(3) -0.0131(3) -0.3841(2)
H5A H -0.9346 -0.0578 -0.3515
H6A H -0.8189 0.0920 -0.3659
H7A H -0.8694 -0.0412 -0.4586
C11A C -0.8726(3) -0.2983(3) -0.34030(19)
H8A H -0.9601 -0.2513 -0.3512
H9A H -0.8759 -0.3670 -0.4033
C12A C -0.8950(3) -0.3780(2) -0.25091(19)
H10A H -0.9803 -0.4693 -0.2717
H11A H -0.9262 -0.3184 -0.1940
C13A C -0.7383(3) -0.5138(2) -0.16852(17)
C14A C -0.8908(3) -0.6008(3) -0.1385(2)
H12A H -0.9483 -0.6750 -0.1966
H13A H -0.8648 -0.6467 -0.0804
H14A H -0.9581 -0.5370 -0.1191
C15A C -0.5889(3) -0.5547(2) -0.14400(16)
C16A C -0.6022(3) -0.6968(2) -0.12636(18)
H15A H -0.7055 -0.7586 -0.1266
C17A C -0.4708(3) -0.7488(2) -0.10884(17)
H16A H -0.4836 -0.8449 -0.0968
C18A C -0.3198(3) -0.6603(2) -0.10890(18)
H17A H -0.2287 -0.6962 -0.0977
C19A C -0.3007(3) -0.5196(2) -0.12519(17)
H18A H -0.1964 -0.4598 -0.1255
C20A C -0.4334(3) -0.4646(2) -0.14121(16)
O3 O 0.8250(3) 0.6483(2) 0.41184(17)
H19 H 0.813(5) 0.650(5) 0.4752(12)
H20 H 0.740(5) 0.579(6) 0.402(6)
loop_
_geom_bond_atom_site_label_1
_geom_bond_atom_site_label_2
_geom_bond_site_symmetry_1
_geom_bond_site_symmetry_2
Cd1 O1 1_555 1_555
Co1 N1 1_555 1_555
N1 C2 1_555 1_555
N2 Co1 1_555 1_555
N3 Co1 1_555 1_555
N4 Co1 1_555 1_555
N5 Co1 1_555 1_555
N6 N5 1_555 1_555
N7 N6 1_555 1_555
N8 Co1 1_555 1_555
N9 N8 1_555 1_555
N10 N9 1_555 1_555
O1 C1 1_555 1_555
O2 Cd1 1_555 1_555
O3 H19 1_555 1_555
C1 N4 1_555 1_555
C2 O2 1_555 1_555
C3 N1 1_555 1_555
C4 C3 1_555 1_555
H1 C4 1_555 1_555
C5 C4 1_555 1_555
H2 C5 1_555 1_555
C6 C5 1_555 1_555
H3 C6 1_555 1_555
C7 C6 1_555 1_555
H4 C7 1_555 1_555
C8 C3 1_555 1_555
C9 N2 1_555 1_555
C10 C9 1_555 1_555
H5 C10 1_555 1_555
H6 C10 1_555 1_555
H7 C10 1_555 1_555
C11 N2 1_555 1_555
H8 C11 1_555 1_555
H9 C11 1_555 1_555
C12 N3 1_555 1_555
H10 C12 1_555 1_555
H11 C12 1_555 1_555
C13 N3 1_555 1_555
C14 C13 1_555 1_555
H12 C14 1_555 1_555
H13 C14 1_555 1_555
H14 C14 1_555 1_555
C15 C13 1_555 1_555
C16 C15 1_555 1_555
H15 C16 1_555 1_555
C17 C16 1_555 1_555
H16 C17 1_555 1_555
C18 C17 1_555 1_555
H17 C18 1_555 1_555
C19 C18 1_555 1_555
H18 C19 1_555 1_555
C20 N4 1_555 1_555
H20 O3 1_555 1_555
Cd1_2 N10A 1_555 1_555
Cd1_3 N10 1_555 1_555
Co1A N1A 1_555 1_555
N1A C2A 1_555 1_555
N2A Co1A 1_555 1_555
N3A Co1A 1_555 1_555
N4A Co1A 1_555 1_555
N5A Co1A 1_555 1_555
N6A N5A 1_555 1_555
N7A N6A 1_555 1_555
N8A Co1A 1_555 1_555
N9A N8A 1_555 1_555
N10A N9A 1_555 1_555
N10_2 Cd1 1_555 1_555
N10A_2 Cd1 1_555 1_555
O1A Cd1 1_555 1_555
O2A Cd1 1_555 1_555
C1A N4A 1_555 1_555
C2A O2A 1_555 1_555
C3A N1A 1_555 1_555
C4A C3A 1_555 1_555
H1A C4A 1_555 1_555
C5A C4A 1_555 1_555
H2A C5A 1_555 1_555
C6A C5A 1_555 1_555
H3A C6A 1_555 1_555
C7A C6A 1_555 1_555
H4A C7A 1_555 1_555
C8A C3A 1_555 1_555
C9A N2A 1_555 1_555
C10A C9A 1_555 1_555
H5A C10A 1_555 1_555
H6A C10A 1_555 1_555
H7A C10A 1_555 1_555
C11A N2A 1_555 1_555
H8A C11A 1_555 1_555
H9A C11A 1_555 1_555
C12A N3A 1_555 1_555
H10A C12A 1_555 1_555
H11A C12A 1_555 1_555
C13A N3A 1_555 1_555
C14A C13A 1_555 1_555
H12A C14A 1_555 1_555
H13A C14A 1_555 1_555
H14A C14A 1_555 1_555
C15A C13A 1_555 1_555
C16A C15A 1_555 1_555
H15A C16A 1_555 1_555
C17A C16A 1_555 1_555
H16A C17A 1_555 1_555
C18A C17A 1_555 1_555
H17A C18A 1_555 1_555
C19A C18A 1_555 1_555
H18A C19A 1_555 1_555
C20A N4A 1_555 1_555
C1 C2 1_555 1_555
C7 C8 1_555 1_555
C8 C9 1_555 1_555
C11 C12 1_555 1_555
C15 C20 1_555 1_555
C19 C20 1_555 1_555
O1A C1A 1_555 1_555
C1A C2A 1_555 1_555
C7A C8A 1_555 1_555
C8A C9A 1_555 1_555
C11A C12A 1_555 1_555
C15A C20A 1_555 1_555
C19A C20A 1_555 1_555

#END
