
#######################################################################
#
#                 Cambridge Crystallographic Data Centre
#                                CCDC 
#
#######################################################################
#
# If this CIF has been generated from an entry in the Cambridge 
# Structural Database, then it will include bibliographic, chemical, 
# crystal, experimental, refinement or atomic coordinate data resulting 
# from the CCDC's data processing and validation procedures.
#
#######################################################################

data_QAZKEJ
_symmetry_cell_setting           monoclinic
_symmetry_space_group_name_H-M   'C 2/c'
_symmetry_Int_Tables_number      15
_space_group_name_Hall           '-C 2yn'
loop_
_symmetry_equiv_pos_site_id
_symmetry_equiv_pos_as_xyz
1 x,y,z
2 -x,y,1/2-z
3 1/2+x,1/2+y,z
4 1/2-x,1/2+y,1/2-z
5 -x,-y,-z
6 x,-y,1/2+z
7 1/2-x,1/2-y,-z
8 1/2+x,1/2-y,1/2+z
_cell_length_a                   19.901(3)
_cell_length_b                   11.4451(16)
_cell_length_c                   13.496(2)
_cell_angle_alpha                90
_cell_angle_beta                 124.811(18)
_cell_angle_gamma                90
_cell_volume                     2523.85
loop_
_atom_site_label
_atom_site_type_symbol
_atom_site_fract_x
_atom_site_fract_y
_atom_site_fract_z
Cd1 Cd 0.477438(8) 0.608123(12) 0.870548(13)
Cl1 Cl 0.45134(3) 0.38951(4) 0.89561(5)
Cl2 Cl 0.60679(3) 0.58634(5) 0.87175(5)
N1 N 0.47225(9) 0.81150(14) 0.85364(14)
N2 N 0.41744(10) 0.98914(14) 0.79738(15)
H1 H 0.3807 1.0427 0.7623
N3 N 0.29846(9) 0.74230(14) 0.76951(15)
N4 N 0.34747(10) 0.65093(15) 0.83558(16)
N5 N 0.23148(11) 0.64618(17) 0.82686(18)
C1 C 0.53461(12) 0.89443(16) 0.90762(18)
C2 C 0.61937(13) 0.88017(19) 0.98345(19)
H2 H 0.6429 0.8065 1.0091
C3 C 0.66701(14) 0.9796(2) 1.0189(2)
H3 H 0.7237 0.9727 1.0693
C4 C 0.63179(15) 1.0908(2) 0.9804(2)
H4 H 0.6658 1.1558 1.0045
C5 C 0.54879(15) 1.10635(18) 0.9085(2)
H5 H 0.5255 1.1804 0.8850
C6 C 0.50098(12) 1.00610(17) 0.87221(18)
C7 C 0.40417(12) 0.87276(17) 0.78943(18)
C8 C 0.32051(12) 0.82190(18) 0.70751(18)
H6 H 0.2809 0.8849 0.6715
H7 H 0.3178 0.7800 0.6428
C9 C 0.23018(12) 0.73685(19) 0.76542(19)
H8 H 0.1872 0.7899 0.7247
C10 C 0.30504(13) 0.59775(19) 0.8691(2)
H9 H 0.3242 0.5318 0.9181
Cd1D Cd 0.522562(8) 0.391877(12) 1.129452(13)
Cd1A Cd 0.522562(8) 0.608123(12) 0.629452(13)
Cl1D Cl 0.54866(3) 0.61049(4) 1.10439(5)
Cl2A Cl 0.39321(3) 0.58634(5) 0.62825(5)
loop_
_geom_bond_atom_site_label_1
_geom_bond_atom_site_label_2
_geom_bond_site_symmetry_1
_geom_bond_site_symmetry_2
Cd1 Cl1 1_555 1_555
Cl1 Cd1D 1_555 1_555
Cl2 Cd1 1_555 1_555
N1 Cd1 1_555 1_555
N2 H1 1_555 1_555
N3 N4 1_555 1_555
N4 Cd1 1_555 1_555
N5 C9 1_555 1_555
C1 N1 1_555 1_555
C2 C1 1_555 1_555
H2 C2 1_555 1_555
C3 C2 1_555 1_555
H3 C3 1_555 1_555
C4 C3 1_555 1_555
H4 C4 1_555 1_555
C5 C4 1_555 1_555
H5 C5 1_555 1_555
C6 N2 1_555 1_555
C7 N1 1_555 1_555
C8 N3 1_555 1_555
H6 C8 1_555 1_555
H7 C8 1_555 1_555
C9 N3 1_555 1_555
H8 C9 1_555 1_555
C10 N4 1_555 1_555
H9 C10 1_555 1_555
Cd1D Cl1D 1_555 1_555
Cd1A Cl2 1_555 1_555
Cl1D Cd1 1_555 1_555
Cl2A Cd1 1_555 1_555
N2 C7 1_555 1_555
N5 C10 1_555 1_555
C1 C6 1_555 1_555
C5 C6 1_555 1_555
C7 C8 1_555 1_555
Cd1A Cl2A 1_555 1_555

#END
