
#######################################################################
#
#                 Cambridge Crystallographic Data Centre
#                                CCDC 
#
#######################################################################
#
# If this CIF has been generated from an entry in the Cambridge 
# Structural Database, then it will include bibliographic, chemical, 
# crystal, experimental, refinement or atomic coordinate data resulting 
# from the CCDC's data processing and validation procedures.
#
#######################################################################

data_QAZKOT
_symmetry_cell_setting           monoclinic
_symmetry_space_group_name_H-M   'P 21/c'
_symmetry_Int_Tables_number      14
_space_group_name_Hall           '-P 2ybc'
loop_
_symmetry_equiv_pos_site_id
_symmetry_equiv_pos_as_xyz
1 x,y,z
2 -x,1/2+y,1/2-z
3 -x,-y,-z
4 x,1/2-y,1/2+z
_cell_length_a                   7.7352(15)
_cell_length_b                   18.000(4)
_cell_length_c                   14.355(3)
_cell_angle_alpha                90
_cell_angle_beta                 97.06(3)
_cell_angle_gamma                90
_cell_volume                     1983.54
loop_
_atom_site_label
_atom_site_type_symbol
_atom_site_fract_x
_atom_site_fract_y
_atom_site_fract_z
Cd1 Cd 0.81126(4) 0.755495(18) 0.43254(2)
I1 I 0.95064(6) 0.88901(2) 0.49075(3)
I2 I 0.46923(4) 0.71749(2) 0.40317(3)
N1 N 1.0063(5) 0.6608(2) 0.4465(2)
N2 N 1.1979(5) 0.5833(2) 0.5215(3)
H1 H 1.2725 0.5656 0.5652
N3 N 1.0117(4) 0.7113(2) 0.6577(2)
N4 N 0.8456(5) 0.7190(2) 0.6167(2)
N5 N 0.8587(5) 0.7284(2) 0.7730(2)
C1 C 1.0228(6) 0.5988(2) 0.3897(3)
C2 C 0.9466(7) 0.5830(3) 0.2990(3)
H2 H 0.8645 0.6145 0.2671
C3 C 0.9976(7) 0.5190(3) 0.2586(4)
H3 H 0.9510 0.5078 0.1974
C4 C 1.1173(8) 0.4701(3) 0.3063(4)
H4 H 1.1477 0.4270 0.2764
C5 C 1.1908(7) 0.4843(3) 0.3963(4)
H5 H 1.2694 0.4515 0.4287
C6 C 1.1428(6) 0.5499(2) 0.4369(3)
C7 C 1.1148(6) 0.6481(3) 0.5235(3)
C8 C 1.1558(6) 0.7028(3) 0.6017(3)
H6 H 1.2585 0.6863 0.6420
H7 H 1.1819 0.7506 0.5756
C9 C 1.0170(6) 0.7166(3) 0.7503(3)
H8 H 1.1173 0.7126 0.7929
C10 C 0.7590(6) 0.7290(3) 0.6890(3)
H9 H 0.6390 0.7359 0.6828
Cd1C Cd 0.81126(4) 0.744505(18) 0.93254(2)
N5C N 0.8587(5) 0.7716(2) 0.2730(2)
N6 N 0.4828(6) 0.0086(3) 0.3113(3)
O1 O 0.4093(6) -0.0596(3) 0.1817(3)
C11 C 0.5492(12) 0.0787(4) 0.3523(6)
H10 H 0.6637 0.0712 0.3850
H11 H 0.4730 0.0964 0.3954
H12 H 0.5545 0.1147 0.3034
C12 C 0.4460(12) -0.0501(5) 0.3751(5)
H13 H 0.4058 -0.0933 0.3398
H14 H 0.3576 -0.0337 0.4119
H15 H 0.5500 -0.0620 0.4159
C13 C 0.4592(7) -0.0015(4) 0.2207(4)
H16 H 0.4818 0.0384 0.1828
loop_
_geom_bond_atom_site_label_1
_geom_bond_atom_site_label_2
_geom_bond_site_symmetry_1
_geom_bond_site_symmetry_2
Cd1 I1 1_555 1_555
I2 Cd1 1_555 1_555
N1 Cd1 1_555 1_555
N2 H1 1_555 1_555
N3 N4 1_555 1_555
N4 Cd1 1_555 1_555
N5 C9 1_555 1_555
C1 N1 1_555 1_555
C2 C1 1_555 1_555
H2 C2 1_555 1_555
C3 C2 1_555 1_555
H3 C3 1_555 1_555
C4 C3 1_555 1_555
H4 C4 1_555 1_555
C5 C4 1_555 1_555
H5 C5 1_555 1_555
C6 N2 1_555 1_555
C7 N1 1_555 1_555
C8 N3 1_555 1_555
H6 C8 1_555 1_555
H7 C8 1_555 1_555
C9 N3 1_555 1_555
H8 C9 1_555 1_555
C10 N4 1_555 1_555
H9 C10 1_555 1_555
N6 C11 1_555 1_555
O1 C13 1_555 1_555
C11 H10 1_555 1_555
H11 C11 1_555 1_555
H12 C11 1_555 1_555
C12 N6 1_555 1_555
H13 C12 1_555 1_555
H14 C12 1_555 1_555
H15 C12 1_555 1_555
C13 N6 1_555 1_555
H16 C13 1_555 1_555
Cd1C N5 1_555 1_555
N5C Cd1 1_555 1_555
N2 C7 1_555 1_555
N5 C10 1_555 1_555
C1 C6 1_555 1_555
C5 C6 1_555 1_555
C7 C8 1_555 1_555

#END
