
#######################################################################
#
#                 Cambridge Crystallographic Data Centre
#                                CCDC 
#
#######################################################################
#
# If this CIF has been generated from an entry in the Cambridge 
# Structural Database, then it will include bibliographic, chemical, 
# crystal, experimental, refinement or atomic coordinate data resulting 
# from the CCDC's data processing and validation procedures.
#
#######################################################################

data_QAZLIO
_symmetry_cell_setting           triclinic
_symmetry_space_group_name_H-M   'P -1'
_symmetry_Int_Tables_number      2
_space_group_name_Hall           '-P 1'
loop_
_symmetry_equiv_pos_site_id
_symmetry_equiv_pos_as_xyz
1 x,y,z
2 -x,-y,-z
_cell_length_a                   14.0199(6)
_cell_length_b                   14.0431(6)
_cell_length_c                   19.3706(9)
_cell_angle_alpha                71.245(3)
_cell_angle_beta                 82.224(4)
_cell_angle_gamma                86.512(4)
_cell_volume                     3577.42
loop_
_atom_site_label
_atom_site_type_symbol
_atom_site_fract_x
_atom_site_fract_y
_atom_site_fract_z
Mn1 Mn 0.07966(4) -0.75171(4) -0.37463(3)
S1 S 0.09252(12) -0.92318(10) -0.11451(8)
S2 S 0.20207(11) -0.58572(10) -0.63029(8)
N1 N -0.0861(2) -0.7543(2) -0.37945(17)
N2 N -0.7590(2) -0.7479(2) -0.36870(19)
N3 N 0.0568(3) -0.8106(2) -0.2554(2)
N4 N 0.1090(3) -0.6947(2) -0.4939(2)
N5 N 0.0924(2) -0.9150(2) -0.38034(17)
N6 N 0.0695(2) -1.5887(2) -0.37039(18)
C1 C -0.1273(3) -0.8301(3) -0.3925(2)
H1 H -0.0876 -0.8829 -0.3988
C2 C -0.2239(3) -0.8347(3) -0.3973(2)
H2 H -0.2476 -0.8884 -0.4076
C3 C -0.2851(3) -0.7589(3) -0.3867(2)
C4 C -0.2450(3) -0.6808(3) -0.3725(3)
H3 H -0.2839 -0.6283 -0.3649
C5 C -0.1468(3) -0.6807(3) -0.3698(2)
H4 H -0.1216 -0.6267 -0.3608
C6 C -0.3896(4) -0.7649(3) -0.3924(3)
H5 H -0.4064 -0.8002 -0.4221
C7 C -0.4570(4) -0.7252(4) -0.3598(3)
H6 H -0.4406 -0.6887 -0.3309
C8 C -0.5614(3) -0.7335(3) -0.3652(2)
C9 C -0.6287(3) -0.7103(3) -0.3138(3)
H7 H -0.6093 -0.6890 -0.2771
C10 C -0.7250(3) -0.7190(3) -0.3176(3)
H8 H -0.7693 -0.7036 -0.2822
C11 C -0.6934(3) -0.7698(3) -0.4182(3)
H9 H -0.7147 -0.7897 -0.4549
C12 C -0.5952(3) -0.7644(3) -0.4178(3)
H10 H -0.5522 -0.7815 -0.4530
C13 C 0.0721(3) -0.8575(3) -0.1964(3)
C14 C 0.1477(3) -0.6501(3) -0.5509(2)
C15 C 0.0752(3) -0.9967(3) -0.3214(2)
H11 H 0.0648 -0.9880 -0.2753
C16 C 0.0718(3) -1.0928(3) -0.3249(2)
H12 H 0.0598 -1.1467 -0.2820
C17 C 0.0865(3) -1.1090(3) -0.3925(2)
C18 C 0.1049(3) -1.0248(3) -0.4532(2)
H13 H 0.1156 -1.0316 -0.4999
C19 C 0.1075(3) -0.9308(3) -0.4454(2)
H14 H 0.1204 -0.8758 -0.4874
C20 C 0.0857(4) -1.2089(3) -0.4015(2)
H15 H 0.0986 -1.2111 -0.4493
C21 C 0.0694(3) -1.2934(3) -0.3511(2)
H16 H 0.0554 -1.2908 -0.3034
C22 C 0.0699(3) -1.3939(3) -0.3594(2)
C23 C 0.0915(3) -1.4113(3) -0.4265(2)
H17 H 0.1066 -1.3579 -0.4693
C24 C 0.0904(3) -1.5078(3) -0.4295(2)
H18 H 0.1049 -1.5176 -0.4751
C25 C 0.0496(3) -1.5715(3) -0.3059(2)
H19 H 0.0349 -1.6260 -0.2638
C26 C 0.0497(3) -1.4770(3) -0.2987(2)
H20 H 0.0360 -1.4694 -0.2524
Mn1_2 Mn -0.92034(4) -0.75171(4) -0.37463(3)
Mn1_3 Mn 0.07966(4) -1.75171(4) -0.37463(3)
N2_2 N 0.2410(2) -0.7479(2) -0.36870(19)
N6_2 N 0.0695(2) -0.5887(2) -0.37039(18)
Mn2 Mn -0.15478(4) -0.26196(4) -0.12210(3)
S3 S -0.13994(14) -0.38607(12) 0.14271(8)
S4 S -0.21125(13) -0.11307(11) -0.37003(8)
N7 N -0.1632(3) -0.3043(3) -0.0049(2)
N8 N -0.1388(3) -0.2230(3) -0.2404(2)
N9 N -0.3179(2) -0.2567(2) -0.12257(19)
N10 N -0.9856(3) -0.2624(2) -0.13010(18)
N11 N -0.1657(2) -0.0943(2) -0.12727(19)
N12 N -0.1521(2) 0.5692(2) -0.11482(18)
C27 C -0.1533(3) -0.3382(3) 0.0571(2)
C28 C -0.1680(3) -0.1774(3) -0.2951(2)
C29 C -0.3635(3) -0.2782(3) -0.1727(2)
H21 H -0.3260 -0.2992 -0.2087
C30 C -0.4613(3) -0.2712(3) -0.1742(2)
H22 H -0.4883 -0.2885 -0.2097
C31 C -0.5198(3) -0.2382(3) -0.1222(2)
C32 C -0.4737(3) -0.2138(3) -0.0715(2)
H23 H -0.5095 -0.1899 -0.0362
C33 C -0.3758(3) -0.2246(3) -0.0727(2)
H24 H -0.3476 -0.2088 -0.0371
C34 C -0.6247(3) -0.2298(3) -0.1204(3)
H25 H -0.6571 -0.1937 -0.0914
C35 C -0.6771(3) -0.2676(3) -0.1552(3)
H26 H -0.6451 -0.3004 -0.1867
C36 C -0.7825(3) -0.2626(3) -0.1490(2)
C37 C -0.8369(3) -0.1842(3) -0.1338(2)
H27 H -0.8064 -0.1298 -0.1294
C38 C -0.9360(3) -0.1866(3) -0.1252(2)
H28 H -0.9704 -0.1327 -0.1155
C39 C -0.9331(3) -0.3367(3) -0.1461(2)
H29 H -0.9655 -0.3899 -0.1508
C40 C -0.8342(3) -0.3395(3) -0.1562(2)
H30 H -0.8017 -0.3931 -0.1678
C41 C -0.1595(3) -0.0653(3) -0.0689(2)
H31 H -0.1520 -0.1147 -0.0244
C42 C -0.1635(4) 0.0337(3) -0.0708(3)
H32 H -0.1589 0.0496 -0.0283
C43 C -0.1744(3) 0.1089(3) -0.1353(2)
C44 C -0.1836(4) 0.0795(3) -0.1952(2)
H33 H -0.1932 0.1276 -0.2398
C45 C -0.1788(3) -0.0202(3) -0.1894(2)
H34 H -0.1850 -0.0377 -0.2310
C46 C -0.1750(3) 0.2173(3) -0.1435(3)
H35 H -0.1953 0.2612 -0.1864
C47 C -0.1501(4) 0.2574(3) -0.0973(3)
H36 H -0.1304 0.2133 -0.0542
C48 C -0.1498(3) 0.3653(3) -0.1053(2)
C49 C -0.1614(3) 0.4404(3) -0.1699(2)
H37 H -0.1694 0.4240 -0.2117
C50 C -0.1613(3) 0.5400(3) -0.1731(2)
H38 H -0.1680 0.5893 -0.2177
C51 C -0.1395(4) 0.4956(3) -0.0523(3)
H39 H -0.1316 0.5132 -0.0111
C52 C -0.1377(4) 0.3956(3) -0.0461(3)
H40 H -0.1283 0.3476 -0.0015
Mn2_2 Mn -1.15478(4) -0.26196(4) -0.12210(3)
Mn2_3 Mn -0.15478(4) 0.73804(4) -0.12210(3)
N10_2 N 0.0144(3) -0.2624(2) -0.13010(18)
N12_2 N -0.1521(2) -0.4308(2) -0.11482(18)
N13 N -0.5506(4) -0.1366(4) -0.4591(3)
N14 N -0.5580(6) 0.1267(5) -0.0680(3)
C53 C -0.6344(5) -0.1075(5) -0.4330(4)
H41 H -0.6881 -0.1148 -0.4541
C54 C -0.6483(5) -0.0668(5) -0.3762(4)
H42 H -0.7100 -0.0481 -0.3603
C55 C -0.5728(4) -0.0539(4) -0.3435(3)
C56 C -0.4836(4) -0.0855(4) -0.3693(3)
H43 H -0.4290 -0.0811 -0.3482
C57 C -0.4773(5) -0.1240(5) -0.4275(4)
H44 H -0.4164 -0.1423 -0.4455
C58 C -0.5879(5) -0.0094(4) -0.2830(3)
H45 H -0.6507 0.0098 -0.2701
C59 C -0.5232(5) 0.0053(4) -0.2466(3)
H46 H -0.4603 -0.0126 -0.2603
C60 C -0.5384(5) 0.0479(4) -0.1853(3)
C61 C -0.4601(5) 0.0593(5) -0.1535(4)
H47 H -0.3987 0.0415 -0.1709
C62 C -0.4733(6) 0.0977(6) -0.0949(4)
H48 H -0.4195 0.1034 -0.0734
C63 C -0.6318(6) 0.1157(5) -0.0995(4)
H49 H -0.6922 0.1350 -0.0815
C64 C -0.6268(5) 0.0777(4) -0.1574(3)
H50 H -0.6821 0.0723 -0.1773
N15 N -0.5034(5) -0.6221(4) -0.1997(3)
C65 C -0.5858(5) -0.6044(5) -0.1639(4)
H51 H -0.6421 -0.6168 -0.1798
C66 C -0.5948(5) -0.5690(5) -0.1051(3)
H52 H -0.6555 -0.5593 -0.0821
C67 C -0.5141(5) -0.5480(4) -0.0803(3)
C68 C -0.4290(6) -0.5649(6) -0.1168(4)
H53 H -0.3716 -0.5525 -0.1025
C69 C -0.4276(6) -0.6007(6) -0.1754(4)
H54 H -0.3677 -0.6104 -0.1997
C70 C -0.5283(6) -0.5108(5) -0.0156(4)
H55 H -0.5922 -0.5035 0.0027
N15A N -0.4966(5) -0.3779(4) 0.1997(3)
C65A C -0.4142(5) -0.3956(5) 0.1639(4)
H51A H -0.3579 -0.3832 0.1798
C66A C -0.4052(5) -0.4310(5) 0.1051(3)
H52A H -0.3445 -0.4407 0.0821
C67A C -0.4859(5) -0.4520(4) 0.0803(3)
C68A C -0.5710(6) -0.4351(6) 0.1168(4)
H53A H -0.6284 -0.4475 0.1025
C69A C -0.5724(6) -0.3993(6) 0.1754(4)
H54A H -0.6323 -0.3896 0.1997
C70A C -0.4717(6) -0.4892(5) 0.0156(4)
H55A H -0.4078 -0.4965 -0.0027
N16 N -0.5732(5) -0.3651(4) -0.3042(3)
C71 C -0.4878(5) -0.3821(5) -0.3366(3)
H56 H -0.4342 -0.3664 -0.3191
C72 C -0.4710(4) -0.4209(4) -0.3941(3)
H57 H -0.4084 -0.4302 -0.4142
C73 C -0.5482(4) -0.4459(4) -0.4213(3)
C74 C -0.6385(5) -0.4292(5) -0.3882(4)
H58 H -0.6934 -0.4448 -0.4042
C75 C -0.6469(5) -0.3890(6) -0.3312(4)
H59 H -0.7086 -0.3780 -0.3103
C76 C -0.5397(4) -0.4897(4) -0.4819(3)
H60 H -0.5969 -0.5042 -0.4954
N16A N -0.4268(5) -0.6349(4) -0.6958(3)
C71A C -0.5122(5) -0.6179(5) -0.6634(3)
H56A H -0.5658 -0.6336 -0.6809
C72A C -0.5290(4) -0.5791(4) -0.6059(3)
H57A H -0.5916 -0.5698 -0.5858
C73A C -0.4518(4) -0.5541(4) -0.5787(3)
C74A C -0.3615(5) -0.5708(5) -0.6118(4)
H58A H -0.3066 -0.5552 -0.5958
C75A C -0.3531(5) -0.6110(6) -0.6688(4)
H59A H -0.2914 -0.6220 -0.6897
C76A C -0.4603(4) -0.5103(4) -0.5181(3)
H60A H -0.4031 -0.4958 -0.5046
loop_
_geom_bond_atom_site_label_1
_geom_bond_atom_site_label_2
_geom_bond_site_symmetry_1
_geom_bond_site_symmetry_2
Mn1 N1 1_555 1_555
S1 C13 1_555 1_555
S2 C14 1_555 1_555
N1 C1 1_555 1_555
N2 C10 1_555 1_555
N3 Mn1 1_555 1_555
N4 Mn1 1_555 1_555
N5 Mn1 1_555 1_555
N6 C24 1_555 1_555
C1 H1 1_555 1_555
C2 C1 1_555 1_555
H2 C2 1_555 1_555
C3 C2 1_555 1_555
C4 C3 1_555 1_555
H3 C4 1_555 1_555
C5 N1 1_555 1_555
H4 C5 1_555 1_555
C6 C3 1_555 1_555
H5 C6 1_555 1_555
C7 C6 1_555 1_555
H6 C7 1_555 1_555
C8 C7 1_555 1_555
C9 C8 1_555 1_555
H7 C9 1_555 1_555
C10 C9 1_555 1_555
H8 C10 1_555 1_555
C11 N2 1_555 1_555
H9 C11 1_555 1_555
C12 C8 1_555 1_555
H10 C12 1_555 1_555
C13 N3 1_555 1_555
C14 N4 1_555 1_555
C15 N5 1_555 1_555
H11 C15 1_555 1_555
C16 C15 1_555 1_555
H12 C16 1_555 1_555
C17 C16 1_555 1_555
C18 C17 1_555 1_555
H13 C18 1_555 1_555
C19 N5 1_555 1_555
H14 C19 1_555 1_555
C20 C17 1_555 1_555
H15 C20 1_555 1_555
C21 C20 1_555 1_555
H16 C21 1_555 1_555
C22 C21 1_555 1_555
C23 C22 1_555 1_555
H17 C23 1_555 1_555
C24 C23 1_555 1_555
H18 C24 1_555 1_555
C25 N6 1_555 1_555
H19 C25 1_555 1_555
C26 C22 1_555 1_555
H20 C26 1_555 1_555
Mn2 N7 1_555 1_555
S3 C27 1_555 1_555
S4 C28 1_555 1_555
N7 C27 1_555 1_555
N8 Mn2 1_555 1_555
N9 Mn2 1_555 1_555
N10 C38 1_555 1_555
N11 Mn2 1_555 1_555
N12 C50 1_555 1_555
C28 N8 1_555 1_555
C29 N9 1_555 1_555
H21 C29 1_555 1_555
C30 C29 1_555 1_555
H22 C30 1_555 1_555
C31 C30 1_555 1_555
C32 C31 1_555 1_555
H23 C32 1_555 1_555
C33 N9 1_555 1_555
H24 C33 1_555 1_555
C34 C31 1_555 1_555
H25 C34 1_555 1_555
C35 C34 1_555 1_555
H26 C35 1_555 1_555
C36 C35 1_555 1_555
C37 C36 1_555 1_555
H27 C37 1_555 1_555
C38 C37 1_555 1_555
H28 C38 1_555 1_555
C39 N10 1_555 1_555
H29 C39 1_555 1_555
C40 C36 1_555 1_555
H30 C40 1_555 1_555
C41 N11 1_555 1_555
H31 C41 1_555 1_555
C42 C41 1_555 1_555
H32 C42 1_555 1_555
C43 C42 1_555 1_555
C44 C43 1_555 1_555
H33 C44 1_555 1_555
C45 N11 1_555 1_555
H34 C45 1_555 1_555
C46 C43 1_555 1_555
H35 C46 1_555 1_555
C47 C46 1_555 1_555
H36 C47 1_555 1_555
C48 C47 1_555 1_555
C49 C48 1_555 1_555
H37 C49 1_555 1_555
C50 C49 1_555 1_555
H38 C50 1_555 1_555
C51 N12 1_555 1_555
H39 C51 1_555 1_555
C52 C48 1_555 1_555
H40 C52 1_555 1_555
N13 C53 1_555 1_555
N14 C62 1_555 1_555
C53 H41 1_555 1_555
C54 C53 1_555 1_555
H42 C54 1_555 1_555
C55 C54 1_555 1_555
C56 C55 1_555 1_555
H43 C56 1_555 1_555
C57 N13 1_555 1_555
H44 C57 1_555 1_555
C58 C55 1_555 1_555
H45 C58 1_555 1_555
C59 C58 1_555 1_555
H46 C59 1_555 1_555
C60 C59 1_555 1_555
C61 C60 1_555 1_555
H47 C61 1_555 1_555
C62 C61 1_555 1_555
H48 C62 1_555 1_555
C63 N14 1_555 1_555
H49 C63 1_555 1_555
C64 C60 1_555 1_555
H50 C64 1_555 1_555
N15 C65 1_555 1_555
C65 H51 1_555 1_555
C66 C65 1_555 1_555
H52 C66 1_555 1_555
C67 C66 1_555 1_555
C68 C67 1_555 1_555
H53 C68 1_555 1_555
C69 N15 1_555 1_555
H54 C69 1_555 1_555
C70 C67 1_555 1_555
H55 C70 1_555 1_555
N16 C71 1_555 1_555
C71 H56 1_555 1_555
C72 C71 1_555 1_555
H57 C72 1_555 1_555
C73 C72 1_555 1_555
C74 C73 1_555 1_555
H58 C74 1_555 1_555
C75 N16 1_555 1_555
H59 C75 1_555 1_555
C76 C73 1_555 1_555
H60 C76 1_555 1_555
Mn1_2 N2 1_555 1_555
Mn1_3 N6 1_555 1_555
N2_2 Mn1 1_555 1_555
N6_2 Mn1 1_555 1_555
Mn2_2 N10 1_555 1_555
Mn2_3 N12 1_555 1_555
N10_2 Mn2 1_555 1_555
N12_2 Mn2 1_555 1_555
N15A C65A 1_555 1_555
C65A H51A 1_555 1_555
C66A C65A 1_555 1_555
H52A C66A 1_555 1_555
C67A C66A 1_555 1_555
C68A C67A 1_555 1_555
H53A C68A 1_555 1_555
C69A N15A 1_555 1_555
H54A C69A 1_555 1_555
C70A C70 1_555 1_555
H55A C70A 1_555 1_555
N16A C71A 1_555 1_555
C71A H56A 1_555 1_555
C72A C71A 1_555 1_555
H57A C72A 1_555 1_555
C73A C72A 1_555 1_555
C74A C73A 1_555 1_555
H58A C74A 1_555 1_555
C75A N16A 1_555 1_555
H59A C75A 1_555 1_555
C76A C76 1_555 1_555
H60A C76A 1_555 1_555
C4 C5 1_555 1_555
C11 C12 1_555 1_555
C18 C19 1_555 1_555
C25 C26 1_555 1_555
C32 C33 1_555 1_555
C39 C40 1_555 1_555
C44 C45 1_555 1_555
C51 C52 1_555 1_555
C56 C57 1_555 1_555
C63 C64 1_555 1_555
C68 C69 1_555 1_555
C74 C75 1_555 1_555
C67A C70A 1_555 1_555
C68A C69A 1_555 1_555
C73A C76A 1_555 1_555
C74A C75A 1_555 1_555

#END
