
#######################################################################
#
#                 Cambridge Crystallographic Data Centre
#                                CCDC 
#
#######################################################################
#
# If this CIF has been generated from an entry in the Cambridge 
# Structural Database, then it will include bibliographic, chemical, 
# crystal, experimental, refinement or atomic coordinate data resulting 
# from the CCDC's data processing and validation procedures.
#
#######################################################################

data_QAZMUB
_symmetry_cell_setting           triclinic
_symmetry_space_group_name_H-M   'P -1'
_symmetry_Int_Tables_number      2
_space_group_name_Hall           '-P 1'
loop_
_symmetry_equiv_pos_site_id
_symmetry_equiv_pos_as_xyz
1 x,y,z
2 -x,-y,-z
_cell_length_a                   7.662(5)
_cell_length_b                   11.935(5)
_cell_length_c                   13.404(5)
_cell_angle_alpha                108.998(5)
_cell_angle_beta                 92.692(5)
_cell_angle_gamma                101.757(5)
_cell_volume                     1126.13
loop_
_atom_site_label
_atom_site_type_symbol
_atom_site_fract_x
_atom_site_fract_y
_atom_site_fract_z
Pb1 Pb 0.786784(9) 0.108816(6) 0.513988(6)
C1 C 0.0684(3) 0.0894(2) 0.67538(18)
C2 C 0.2007(3) 0.0958(2) 0.76468(19)
C3 C 0.1568(4) 0.0063(3) 0.8108(2)
H1 H 0.0538 -0.0556 0.7826
C4 C 0.2622(5) 0.0074(3) 0.8972(3)
H2 H 0.2310 -0.0532 0.9269
C5 C 0.4149(5) 0.0997(3) 0.9392(3)
H3 H 0.4852 0.1029 0.9990
C6 C 0.3598(3) 0.1858(2) 0.80420(18)
C7 C 0.5330(3) 0.2216(2) 0.65976(17)
C8 C 1.2036(3) 0.4587(2) 0.4103(2)
H4 H 1.2797 0.5186 0.3922
C9 C 1.0254(3) 0.41372(19) 0.36301(18)
C10 C 0.9145(3) 0.32301(18) 0.39327(17)
C11 C 0.7285(3) 0.27097(19) 0.34604(18)
C12 C 0.6570(3) 0.3077(2) 0.26613(18)
C13 C 0.4772(3) 0.2536(3) 0.2226(2)
H5 H 0.4244 0.2758 0.1703
C14 C 0.4625(4) 0.1369(3) 0.3376(3)
H6 H 0.3949 0.0786 0.3613
C15 C 0.7701(3) 0.3973(2) 0.23508(17)
C16 C 0.8783(3) 0.5270(2) 0.16309(17)
C17 C 0.8991(3) 0.5987(2) 0.09244(18)
C18 C 1.0449(3) 0.6940(2) 0.1059(2)
H7 H 1.1352 0.7156 0.1621
C19 C 0.9229(4) 0.7234(3) -0.0454(2)
C20 C 0.7684(4) 0.5692(3) 0.0069(2)
H8 H 0.6696 0.5050 -0.0033
C21 C 0.9439(3) 0.44998(19) 0.28395(17)
C22 C 0.4630(4) 0.1865(3) 0.8929(2)
H9 H 0.5672 0.2473 0.9214
C23 C 0.4319(3) 0.2768(2) 0.75194(19)
H10 H 0.5120 0.3475 0.8039
H11 H 0.3332 0.3034 0.7258
C24 C 0.3813(4) 0.1678(4) 0.2583(3)
H12 H 0.2625 0.1303 0.2299
C25 C 1.1476(3) 0.3247(3) 0.5101(2)
H13 H 1.1908 0.2943 0.5595
C26 C 1.2649(3) 0.4137(3) 0.4835(3)
H14 H 1.3835 0.4421 0.5152
C27 C 1.0560(4) 0.7563(3) 0.0364(2)
H15 H 1.1537 0.8207 0.0450
N1 N 0.9778(2) 0.28198(17) 0.46791(16)
N2 N 0.6304(3) 0.1861(2) 0.38053(18)
N3 N 0.7308(3) 0.44567(18) 0.15958(15)
N4 N 1.0118(3) 0.53385(17) 0.23823(15)
N5 N 0.7803(4) 0.6311(3) -0.0623(2)
O1 O 0.6857(2) 0.28133(15) 0.65374(14)
O2 O 0.4630(3) 0.11932(18) 0.59415(16)
O3 O 0.0446(2) 0.18520(15) 0.66392(14)
O4 O -0.0145(3) -0.01550(18) 0.61562(16)
H16 H 1.108(4) 0.585(3) 0.259(2)
Pb1_2 Pb -0.213216(9) 0.108816(6) 0.513988(6)
Pb1A Pb 0.213216(9) -0.108816(6) 0.486012(6)
O3_2 O 1.0446(2) 0.18520(15) 0.66392(14)
O4A O 1.0145(3) 0.01550(18) 0.38438(16)
loop_
_geom_bond_atom_site_label_1
_geom_bond_atom_site_label_2
_geom_bond_site_symmetry_1
_geom_bond_site_symmetry_2
Pb1 N1 1_555 1_555
C1 C2 1_555 1_555
C2 C3 1_555 1_555
C3 H1 1_555 1_555
C4 C3 1_555 1_555
H2 C4 1_555 1_555
C5 C4 1_555 1_555
H3 C5 1_555 1_555
C6 C2 1_555 1_555
C7 C23 1_555 1_555
C8 H4 1_555 1_555
C9 C8 1_555 1_555
C10 C9 1_555 1_555
C11 C10 1_555 1_555
C12 C11 1_555 1_555
C13 C12 1_555 1_555
H5 C13 1_555 1_555
C14 H6 1_555 1_555
C15 C12 1_555 1_555
C16 C17 1_555 1_555
C17 C18 1_555 1_555
C18 H7 1_555 1_555
C19 C27 1_555 1_555
C20 C17 1_555 1_555
H8 C20 1_555 1_555
C21 C9 1_555 1_555
C22 C5 1_555 1_555
H9 C22 1_555 1_555
C23 C6 1_555 1_555
H10 C23 1_555 1_555
H11 C23 1_555 1_555
C24 C13 1_555 1_555
H12 C24 1_555 1_555
C25 H13 1_555 1_555
C26 C8 1_555 1_555
H14 C26 1_555 1_555
C27 C18 1_555 1_555
H15 C27 1_555 1_555
N1 C10 1_555 1_555
N2 Pb1 1_555 1_555
N3 C15 1_555 1_555
N4 C16 1_555 1_555
N5 C19 1_555 1_555
O1 Pb1 1_555 1_555
O2 Pb1 1_555 1_555
O3 C1 1_555 1_555
O4 C1 1_555 1_555
H16 N4 1_555 1_555
Pb1_2 O3 1_555 1_555
Pb1A O4 1_555 1_555
O3_2 Pb1 1_555 1_555
O4A Pb1 1_555 1_555
C6 C22 1_555 1_555
C7 O1 1_555 1_555
C7 O2 1_555 1_555
C11 N2 1_555 1_555
C14 C24 1_555 1_555
C14 N2 1_555 1_555
C15 C21 1_555 1_555
C16 N3 1_555 1_555
C20 N5 1_555 1_555
C21 N4 1_555 1_555
C25 C26 1_555 1_555
C25 N1 1_555 1_555

#END
