
#######################################################################
#
#                 Cambridge Crystallographic Data Centre
#                                CCDC 
#
#######################################################################
#
# If this CIF has been generated from an entry in the Cambridge 
# Structural Database, then it will include bibliographic, chemical, 
# crystal, experimental, refinement or atomic coordinate data resulting 
# from the CCDC's data processing and validation procedures.
#
#######################################################################

data_QAZWAR
_symmetry_cell_setting           monoclinic
_symmetry_space_group_name_H-M   'P 21/n'
_symmetry_Int_Tables_number      14
_space_group_name_Hall           '-P 2yn'
loop_
_symmetry_equiv_pos_site_id
_symmetry_equiv_pos_as_xyz
1 x,y,z
2 1/2-x,1/2+y,1/2-z
3 -x,-y,-z
4 1/2+x,1/2-y,1/2+z
_cell_length_a                   11.148(3)
_cell_length_b                   7.071(2)
_cell_length_c                   14.751(14)
_cell_angle_alpha                90
_cell_angle_beta                 104.23(3)
_cell_angle_gamma                90
_cell_volume                     1127.11
loop_
_atom_site_label
_atom_site_type_symbol
_atom_site_fract_x
_atom_site_fract_y
_atom_site_fract_z
C1 C 1.0865(3) -0.2376(5) 0.5558(2)
H1 H 1.0832 -0.3292 0.51
C2 C 1.1902(3) -0.1540(5) 0.6087(2)
H2 H 1.2715 -0.1761 0.6063
C3 C 1.1491(3) -0.0279(5) 0.6677(2)
H3 H 1.2006 0.0483 0.7121
C4 C 0.8618(3) -0.1969(4) 0.5540(2)
C5 C 0.7006(3) -0.3458(5) 0.4626(2)
H4 H 0.667 -0.4282 0.4139
C6 C 0.6220(3) -0.2596(5) 0.5080(2)
H5 H 0.5375 -0.2847 0.4919
C7 C 0.6721(3) -0.1358(4) 0.5776(2)
H6 H 0.621 -0.0744 0.6094
N1 N 1.0268(2) -0.0316(3) 0.65181(17)
N2 N 0.9889(2) -0.1614(3) 0.58271(17)
N3 N 0.7945(2) -0.1008(3) 0.60103(17)
N4 N 0.8232(3) -0.3177(4) 0.48486(18)
N5 N 0.6773(2) 0.3138(4) 0.65053(17)
N6 N 1.0024(2) 0.4214(4) 0.7370(2)
O1 O 0.74512(19) 0.2202(3) 0.71911(13)
O2 O 0.59994(19) 0.4255(3) 0.66746(15)
O3 O 0.6893(2) 0.2885(3) 0.57087(14)
O4 O 1.00146(19) 0.2620(3) 0.77860(14)
O5 O 0.9468(3) 0.4340(4) 0.65419(18)
O6 O 1.0559(3) 0.5554(4) 0.7822(2)
Cu1 Cu 0.88928(3) 0.08597(5) 0.69379(2)
O2A O 0.90006(19) -0.0745(3) 0.83254(15)
Cu1A Cu 0.61072(3) 0.58597(5) 0.80621(2)
loop_
_geom_bond_atom_site_label_1
_geom_bond_atom_site_label_2
_geom_bond_site_symmetry_1
_geom_bond_site_symmetry_2
C1 H1 1_555 1_555
C2 C1 1_555 1_555
H2 C2 1_555 1_555
C3 C2 1_555 1_555
H3 C3 1_555 1_555
C4 N2 1_555 1_555
C5 H4 1_555 1_555
C6 C5 1_555 1_555
H5 C6 1_555 1_555
C7 C6 1_555 1_555
H6 C7 1_555 1_555
N1 C3 1_555 1_555
N2 C1 1_555 1_555
N3 C4 1_555 1_555
N4 C4 1_555 1_555
N5 O1 1_555 1_555
N6 O4 1_555 1_555
O1 Cu1 1_555 1_555
O2 N5 1_555 1_555
O3 N5 1_555 1_555
O4 Cu1 1_555 1_555
O5 N6 1_555 1_555
O6 N6 1_555 1_555
Cu1 N1 1_555 1_555
O2A Cu1 1_555 1_555
Cu1A O2 1_555 1_555
C5 N4 1_555 1_555
C7 N3 1_555 1_555
N1 N2 1_555 1_555
N3 Cu1 1_555 1_555
O5 Cu1 1_555 1_555

#END
