
#######################################################################
#
#                 Cambridge Crystallographic Data Centre
#                                CCDC 
#
#######################################################################
#
# If this CIF has been generated from an entry in the Cambridge 
# Structural Database, then it will include bibliographic, chemical, 
# crystal, experimental, refinement or atomic coordinate data resulting 
# from the CCDC's data processing and validation procedures.
#
#######################################################################

data_QEBJOW01
_symmetry_cell_setting           monoclinic
_symmetry_space_group_name_H-M   'P n'
_symmetry_Int_Tables_number      7
_space_group_name_Hall           'P -2yac'
loop_
_symmetry_equiv_pos_site_id
_symmetry_equiv_pos_as_xyz
1 x,y,z
2 1/2+x,-y,1/2+z
_cell_length_a                   8.5824(3)
_cell_length_b                   16.7687(7)
_cell_length_c                   11.4092(4)
_cell_angle_alpha                90
_cell_angle_beta                 90.068(3)
_cell_angle_gamma                90
_cell_volume                     1641.96
loop_
_atom_site_label
_atom_site_type_symbol
_atom_site_fract_x
_atom_site_fract_y
_atom_site_fract_z
Co1 Co 0.5000 0.11247(6) 0.5000
Co2 Co 0.66793(10) 0.61055(6) 0.49933(17)
N1 N 0.5545(8) 0.2357(4) 0.4913(7)
N2 N 0.7256(11) 0.3473(5) 0.4424(10)
N3 N 0.6973(8) 0.4858(4) 0.4946(7)
N4 N 0.4672(8) -0.0104(4) 0.5004(8)
N5 N 0.4535(9) -0.1536(5) 0.4504(8)
N6 N 0.6289(8) -0.2652(4) 0.4944(7)
N7 N 0.2582(7) 0.1299(4) 0.5024(8)
N8 N -0.0001(9) 0.1275(7) 0.5934(6)
N9 N -0.2549(9) 0.0980(4) 0.5112(8)
N10 N 0.4241(9) 0.5962(4) 0.5024(9)
N11 N 0.1783(9) 0.6647(4) 0.5517(7)
N12 N -0.0889(8) 0.6324(4) 0.5021(8)
N13 N 0.4976(10) 0.1110(5) 0.3132(7)
N14 N 0.4961(10) 0.1149(5) -0.3103(7)
N15 N 0.6647(10) 0.6116(4) 0.3107(6)
N16 N 0.6660(10) 0.6112(5) -0.3120(7)
C1 C 0.6293(11) 0.2907(5) 0.4726(7)
C2 C 0.7027(11) 0.4189(5) 0.4707(7)
C3 C 0.4691(10) -0.0768(5) 0.4804(8)
C4 C 0.5550(10) -0.2095(5) 0.4762(7)
C5 C 0.1345(9) 0.1303(6) 0.5401(7)
C6 C -0.1309(11) 0.1127(5) 0.5438(8)
C7 C 0.3048(13) 0.6254(5) 0.5236(9)
C8 C 0.0392(11) 0.6429(5) 0.5240(7)
C9 C 0.6142(9) 0.1410(5) 0.2490(7)
H1 H 0.7024 0.1616 0.2893
C10 C 0.6146(9) 0.1441(5) 0.1282(6)
H2 H 0.7024 0.1649 0.0878
C11 C 0.4855(14) 0.1166(7) 0.0650(9)
C12 C 0.4844(13) 0.1158(6) -0.0666(8)
C13 C 0.5835(10) 0.1669(5) -0.1275(7)
H3 H 0.6493 0.2030 -0.0867
C14 C 0.5841(9) 0.1638(5) -0.2481(7)
H4 H 0.6518 0.1989 -0.2890
C15 C 0.3955(10) 0.0674(4) -0.2501(7)
H5 H 0.3280 0.0330 -0.2926
C16 C 0.3885(11) 0.0677(5) -0.1292(7)
H6 H 0.3164 0.0341 -0.0899
C17 C 0.3645(10) 0.0838(5) 0.1326(7)
H7 H 0.2762 0.0609 0.0951
C18 C 0.3740(10) 0.0848(5) 0.2524(7)
H8 H 0.2871 0.0656 0.2954
C19 C 0.7510(10) 0.6628(5) 0.2495(8)
H9 H 0.8147 0.6996 0.2907
C20 C 0.7516(11) 0.6643(6) 0.1271(7)
H10 H 0.8168 0.7008 0.0865
C21 C 0.6554(12) 0.6118(6) 0.0647(9)
C22 C 0.6569(13) 0.6142(6) -0.0663(9)
C23 C 0.7225(11) 0.6745(6) -0.1324(7)
H11 H 0.7663 0.7195 -0.0940
C24 C 0.7256(10) 0.6705(5) -0.2505(8)
H12 H 0.7735 0.7131 -0.2920
C25 C 0.5977(10) 0.5511(4) -0.2500(7)
H13 H 0.5513 0.5080 -0.2912
C26 C 0.5940(10) 0.5512(5) -0.1307(7)
H14 H 0.5478 0.5075 -0.0906
C27 C 0.5614(10) 0.5619(5) 0.1303(7)
H15 H 0.4910 0.5266 0.0924
C28 C 0.5705(10) 0.5636(4) 0.2511(7)
H16 H 0.5054 0.5284 0.2941
N9_2 N 0.7451(9) 0.0980(4) 0.5112(8)
N14_2 N 0.4961(10) 0.1149(5) 0.6897(7)
N6_2 N 0.6289(8) 0.7348(4) 0.4944(7)
N12_2 N 0.9111(8) 0.6324(4) 0.5021(8)
N16_2 N 0.6660(10) 0.6112(5) 0.6880(7)
Co2_2 Co 0.66793(10) -0.38945(6) 0.49933(17)
Co1_2 Co -0.5000 0.11247(6) 0.5000
Co2_3 Co -0.33207(10) 0.61055(6) 0.49933(17)
Co1_3 Co 0.5000 0.11247(6) -0.5000
Co2_4 Co 0.66793(10) 0.61055(6) -0.50067(17)
loop_
_geom_bond_atom_site_label_1
_geom_bond_atom_site_label_2
_geom_bond_site_symmetry_1
_geom_bond_site_symmetry_2
Co1 N1 1_555 1_555
Co2 N3 1_555 1_555
N1 C1 1_555 1_555
N2 C1 1_555 1_555
N3 C2 1_555 1_555
N4 Co1 1_555 1_555
N5 C3 1_555 1_555
N6 C4 1_555 1_555
N7 Co1 1_555 1_555
N8 C5 1_555 1_555
N9 C6 1_555 1_555
N10 Co2 1_555 1_555
N11 C7 1_555 1_555
N12 C8 1_555 1_555
N13 Co1 1_555 1_555
N14 C14 1_555 1_555
N15 Co2 1_555 1_555
N16 C24 1_555 1_555
C2 N2 1_555 1_555
C3 N4 1_555 1_555
C4 N5 1_555 1_555
C5 N7 1_555 1_555
C6 N8 1_555 1_555
C7 N10 1_555 1_555
C8 N11 1_555 1_555
C9 N13 1_555 1_555
H1 C9 1_555 1_555
C10 C9 1_555 1_555
H2 C10 1_555 1_555
C11 C10 1_555 1_555
C12 C11 1_555 1_555
C13 C12 1_555 1_555
H3 C13 1_555 1_555
C14 C13 1_555 1_555
H4 C14 1_555 1_555
C15 N14 1_555 1_555
H5 C15 1_555 1_555
C16 C12 1_555 1_555
H6 C16 1_555 1_555
C17 C11 1_555 1_555
H7 C17 1_555 1_555
C18 N13 1_555 1_555
H8 C18 1_555 1_555
C19 N15 1_555 1_555
H9 C19 1_555 1_555
C20 C19 1_555 1_555
H10 C20 1_555 1_555
C21 C20 1_555 1_555
C22 C21 1_555 1_555
C23 C22 1_555 1_555
H11 C23 1_555 1_555
C24 C23 1_555 1_555
H12 C24 1_555 1_555
C25 N16 1_555 1_555
H13 C25 1_555 1_555
C26 C22 1_555 1_555
H14 C26 1_555 1_555
C27 C21 1_555 1_555
H15 C27 1_555 1_555
C28 N15 1_555 1_555
H16 C28 1_555 1_555
N9_2 Co1 1_555 1_555
N14_2 Co1 1_555 1_555
N6_2 Co2 1_555 1_555
N12_2 Co2 1_555 1_555
N16_2 Co2 1_555 1_555
Co2_2 N6 1_555 1_555
Co1_2 N9 1_555 1_555
Co2_3 N12 1_555 1_555
Co1_3 N14 1_555 1_555
Co2_4 N16 1_555 1_555
C15 C16 1_555 1_555
C17 C18 1_555 1_555
C25 C26 1_555 1_555
C27 C28 1_555 1_555

#END
