
#######################################################################
#
#                 Cambridge Crystallographic Data Centre
#                                CCDC 
#
#######################################################################
#
# If this CIF has been generated from an entry in the Cambridge 
# Structural Database, then it will include bibliographic, chemical, 
# crystal, experimental, refinement or atomic coordinate data resulting 
# from the CCDC's data processing and validation procedures.
#
#######################################################################

data_QEBJUC
_symmetry_cell_setting           trigonal
_symmetry_space_group_name_H-M   'P 3 c 1'
_symmetry_Int_Tables_number      158
_space_group_name_Hall           'P 3 -2"c'
loop_
_symmetry_equiv_pos_site_id
_symmetry_equiv_pos_as_xyz
1 x,y,z
2 -y,x-y,z
3 -x+y,-x,z
4 -y,-x,1/2+z
5 x,x-y,1/2+z
6 -x+y,y,1/2+z
_cell_length_a                   10.993(1)
_cell_length_b                   10.993(1)
_cell_length_c                   21.554(2)
_cell_angle_alpha                90
_cell_angle_beta                 90
_cell_angle_gamma                120
_cell_volume                     2255.75
loop_
_atom_site_label
_atom_site_type_symbol
_atom_site_fract_x
_atom_site_fract_y
_atom_site_fract_z
Nd1 Nd 0.6667 0.3333 0.4429
O1 O 0.826(1) 0.516(1) 0.5108(4)
O2 O 0.6848(8) 0.7481(9) 0.5653(4)
O3 O 0.599(1) 0.759(1) 0.6817(5)
O4 O 0.6504(9) 0.5533(8) 0.4204(4)
O5 O 0.531(1) 0.374(1) 0.3591(4)
O6 O 0.527(2) 0.572(2) 0.3490(7)
N1 N 0.942(1) 0.754(1) 0.5124(5)
N2 N 1.0000 1.0000 0.4298(6)
N3 N 0.571(1) 0.501(2) 0.3739(6)
C1 C 0.856(1) 0.627(1) 0.5373(6)
C2 C 0.800(1) 0.6243(10) 0.6008(4)
C3 C 0.720(1) 0.686(1) 0.6134(5)
C4 C 0.673(1) 0.688(1) 0.6735(6)
C5 C 0.709(2) 0.627(1) 0.7204(6)
C6 C 0.788(2) 0.564(1) 0.7083(5)
C7 C 0.832(1) 0.564(1) 0.6490(5)
C8 C 0.541(2) 0.676(2) 0.5476(7)
C9 C 0.574(2) 0.792(2) 0.7410(8)
C10 C 1.002(1) 0.779(1) 0.4501(5)
C11 C 0.9513(10) 0.854(1) 0.4091(4)
H1 H 0.6788 0.6287 0.7616
H2 H 0.8120 0.5209 0.7407
H3 H 0.8858 0.5201 0.6409
H4 H 0.4845 0.6670 0.5824
H5 H 0.5164 0.5851 0.5326
H6 H 0.5264 0.7270 0.5158
H7 H 0.5206 0.8379 0.7380
H8 H 0.6615 0.8531 0.7607
H9 H 0.5243 0.7087 0.7647
H10 H 0.9555 0.8306 0.5259
H11 H 1.1015 0.8336 0.4533
H12 H 0.9772 0.6906 0.4317
H13 H 0.8515 0.8035 0.4090
H14 H 0.9848 0.8569 0.3682
O1A O 0.484(1) 0.310(1) 0.5108(4)
O1B O 0.690(1) 0.174(1) 0.5108(4)
O4A O 0.4467(8) 0.0971(12) 0.4204(4)
O4B O 0.9029(12) 0.3496(9) 0.4204(4)
O5A O 0.626(1) 0.157(1) 0.3591(4)
O5B O 0.843(1) 0.469(1) 0.3591(4)
C11A C 1.146(1) 1.0973(14) 0.4091(4)
C11B C 0.9027(14) 1.0487(10) 0.4091(4)
N3A N 0.499(2) 0.070(2) 0.3739(6)
N3B N 0.930(2) 0.429(1) 0.3739(6)
O6A O 0.428(2) -0.045(3) 0.3490(7)
O6B O 1.045(3) 0.473(2) 0.3490(7)
C10A C 1.221(1) 1.223(1) 0.4501(5)
H13A H 1.1965 1.0480 0.4090
H14A H 1.1431 1.1279 0.3682
C10B C 0.777(1) 0.998(1) 0.4501(5)
H13B H 0.9520 1.1485 0.4090
H14B H 0.8721 1.0152 0.3682
N1B N 0.812(1) 1.058(1) 0.5124(5)
H11B H 0.7321 0.8985 0.4533
H12B H 0.7134 1.0228 0.4317
N1A N 1.246(1) 1.188(1) 0.5124(5)
H11A H 1.1664 1.2679 0.4533
H12A H 1.3094 1.2866 0.4317
C1A C 1.373(1) 1.229(1) 0.5373(6)
H10A H 1.1694 1.1249 0.5259
C1B C 0.771(1) 1.144(1) 0.5373(6)
H10B H 0.8751 1.0445 0.5259
O1A_2 O 1.484(1) 1.310(1) 0.5108(4)
C2A C 1.3757(10) 1.1757(14) 0.6008(4)
O1B_2 O 0.690(1) 1.174(1) 0.5108(4)
C2B C 0.8243(14) 1.200(1) 0.6008(4)
C3B C 0.966(1) 1.280(1) 0.6134(5)
C7B C 0.732(1) 1.168(1) 0.6490(5)
Nd1_2 Nd 0.6667 1.3333 0.4429
Nd1_3 Nd 1.6667 1.3333 0.4429
C3A C 1.314(1) 1.034(1) 0.6134(5)
C7A C 1.436(1) 1.268(1) 0.6490(5)
C6B C 0.776(2) 1.212(2) 0.7083(5)
H3B H 0.6343 1.1142 0.6409
O2B O 1.0633(12) 1.3152(8) 0.5653(4)
C4B C 1.015(1) 1.327(1) 0.6735(6)
C6A C 1.436(1) 1.224(2) 0.7083(5)
H3A H 1.4799 1.3657 0.6409
O2A O 1.2519(9) 0.9367(12) 0.5653(4)
C4A C 1.312(1) 0.985(1) 0.6735(6)
C5B C 0.918(2) 1.291(2) 0.7204(6)
H2B H 0.7089 1.1880 0.7407
O3B O 1.160(1) 1.401(1) 0.6817(5)
C5A C 1.373(1) 1.082(2) 0.7204(6)
H2A H 1.4791 1.2911 0.7407
O3A O 1.241(1) 0.840(1) 0.6817(5)
C9A C 1.208(2) 0.782(3) 0.7410(8)
C9B C 1.218(3) 1.426(2) 0.7410(8)
H7B H 1.3173 1.4794 0.7380
H8B H 1.1916 1.3385 0.7607
H9B H 1.1844 1.4757 0.7647
H7A H 1.1621 0.6827 0.7380
H8A H 1.1469 0.8084 0.7607
H9A H 1.2913 0.8156 0.7647
C8A C 1.324(2) 0.865(3) 0.5476(7)
C8B C 1.135(3) 1.459(2) 0.5476(7)
H4A H 1.3330 0.8175 0.5824
H5A H 1.4149 0.9313 0.5326
H6A H 1.2730 0.7994 0.5158
H4B H 1.1825 1.5155 0.5824
H5B H 1.0687 1.4836 0.5326
H6B H 1.2006 1.4736 0.5158
H1B H 0.9499 1.3212 0.7616
H1A H 1.3713 1.0501 0.7616
N4 N 1.0000 1.0000 0.6061(7)
C12 C 1.0000 1.0000 0.7268(9)
C13 C 1.0000 1.0000 0.6567(9)
loop_
_geom_bond_atom_site_label_1
_geom_bond_atom_site_label_2
_geom_bond_site_symmetry_1
_geom_bond_site_symmetry_2
Nd1 O1 1_555 1_555
O1 C1 1_555 1_555
O2 C3 1_555 1_555
O3 C4 1_555 1_555
O4 Nd1 1_555 1_555
O5 Nd1 1_555 1_555
O6 N3 1_555 1_555
N1 C1 1_555 1_555
N2 C11 1_555 1_555
N3 O4 1_555 1_555
N4 C13 1_555 1_555
C1 C2 1_555 1_555
C2 C3 1_555 1_555
C3 C4 1_555 1_555
C4 C5 1_555 1_555
C5 C6 1_555 1_555
C6 C7 1_555 1_555
C7 C2 1_555 1_555
C8 O2 1_555 1_555
C9 O3 1_555 1_555
C10 N1 1_555 1_555
C11 C10 1_555 1_555
C12 C13 1_555 1_555
H1 C5 1_555 1_555
H2 C6 1_555 1_555
H3 C7 1_555 1_555
H4 C8 1_555 1_555
H5 C8 1_555 1_555
H6 C8 1_555 1_555
H7 C9 1_555 1_555
H8 C9 1_555 1_555
H9 C9 1_555 1_555
H10 N1 1_555 1_555
H11 C10 1_555 1_555
H12 C10 1_555 1_555
H13 C11 1_555 1_555
H14 C11 1_555 1_555
O1A Nd1 1_555 1_555
O1B Nd1 1_555 1_555
O4A Nd1 1_555 1_555
O4B Nd1 1_555 1_555
O5A Nd1 1_555 1_555
O5B Nd1 1_555 1_555
C11A N2 1_555 1_555
C11B N2 1_555 1_555
N3A O4A 1_555 1_555
N3B O4B 1_555 1_555
O6A N3A 1_555 1_555
O6B N3B 1_555 1_555
C10A C11A 1_555 1_555
H13A C11A 1_555 1_555
H14A C11A 1_555 1_555
C10B C11B 1_555 1_555
H13B C11B 1_555 1_555
H14B C11B 1_555 1_555
N1B C10B 1_555 1_555
H11B C10B 1_555 1_555
H12B C10B 1_555 1_555
N1A C10A 1_555 1_555
H11A C10A 1_555 1_555
H12A C10A 1_555 1_555
C1A N1A 1_555 1_555
H10A N1A 1_555 1_555
C1B N1B 1_555 1_555
H10B N1B 1_555 1_555
O1A_2 C1A 1_555 1_555
C2A C1A 1_555 1_555
O1B_2 C1B 1_555 1_555
C2B C1B 1_555 1_555
C3B C2B 1_555 1_555
C7B C2B 1_555 1_555
Nd1_2 O1B_2 1_555 1_555
Nd1_3 O1A_2 1_555 1_555
C3A C2A 1_555 1_555
C7A C2A 1_555 1_555
C6B C7B 1_555 1_555
H3B C7B 1_555 1_555
O2B C3B 1_555 1_555
C4B C3B 1_555 1_555
C6A C7A 1_555 1_555
H3A C7A 1_555 1_555
O2A C3A 1_555 1_555
C4A C3A 1_555 1_555
C5B C6B 1_555 1_555
H2B C6B 1_555 1_555
O3B C4B 1_555 1_555
C5A C6A 1_555 1_555
H2A C6A 1_555 1_555
O3A C4A 1_555 1_555
C9A O3A 1_555 1_555
C9B O3B 1_555 1_555
H7B C9B 1_555 1_555
H8B C9B 1_555 1_555
H9B C9B 1_555 1_555
H7A C9A 1_555 1_555
H8A C9A 1_555 1_555
H9A C9A 1_555 1_555
C8A O2A 1_555 1_555
C8B O2B 1_555 1_555
H4A C8A 1_555 1_555
H5A C8A 1_555 1_555
H6A C8A 1_555 1_555
H4B C8B 1_555 1_555
H5B C8B 1_555 1_555
H6B C8B 1_555 1_555
H1B C5B 1_555 1_555
H1A C5A 1_555 1_555
O5 N3 1_555 1_555
O5A N3A 1_555 1_555
O5B N3B 1_555 1_555
C4B C5B 1_555 1_555
C4A C5A 1_555 1_555

#END
