
#######################################################################
#
#                 Cambridge Crystallographic Data Centre
#                                CCDC 
#
#######################################################################
#
# If this CIF has been generated from an entry in the Cambridge 
# Structural Database, then it will include bibliographic, chemical, 
# crystal, experimental, refinement or atomic coordinate data resulting 
# from the CCDC's data processing and validation procedures.
#
#######################################################################

data_QEBQAR
_symmetry_cell_setting           orthorhombic
_symmetry_space_group_name_H-M   'P b c a'
_symmetry_Int_Tables_number      61
_space_group_name_Hall           '-P 2ac 2ab'
loop_
_symmetry_equiv_pos_site_id
_symmetry_equiv_pos_as_xyz
1 x,y,z
2 1/2-x,-y,1/2+z
3 1/2+x,1/2-y,-z
4 -x,1/2+y,1/2-z
5 -x,-y,-z
6 1/2+x,y,1/2-z
7 1/2-x,1/2+y,z
8 x,1/2-y,1/2+z
_cell_length_a                   15.620(3)
_cell_length_b                   14.598(3)
_cell_length_c                   18.616(4)
_cell_angle_alpha                90
_cell_angle_beta                 90
_cell_angle_gamma                90
_cell_volume                     4244.83
loop_
_atom_site_label
_atom_site_type_symbol
_atom_site_fract_x
_atom_site_fract_y
_atom_site_fract_z
Cu1 Cu 0.24404(3) 0.39844(3) 0.43722(2)
O1 O 0.14532(17) 0.4367(2) 0.38161(13)
O2 O 0.12024(19) 0.2971(2) 0.33748(15)
O3 O -0.00981(17) 0.36718(18) 0.25302(14)
O4 O -0.17851(18) 0.4375(2) 0.13743(13)
O5 O -0.12344(19) 0.2972(2) 0.15283(14)
O6 O 0.36449(19) 0.5888(2) 0.54050(16)
N1 N 0.3387(2) 0.3743(2) 0.50900(16)
N2 N 0.1712(2) 0.3470(2) 0.51765(16)
N3 N 0.2429(2) 0.5747(3) 0.60884(18)
N4 N 0.2290(2) 0.5799(2) 0.48911(17)
C1 C 0.1065(2) 0.3789(3) 0.34036(19)
C2 C 0.0400(2) 0.4234(3) 0.29553(19)
C3 C 0.0156(3) 0.5122(3) 0.2869(2)
H1 H 0.0392 0.5632 0.3094
C4 C -0.0534(3) 0.5117(3) 0.2366(2)
H2 H -0.0833 0.5626 0.2200
C5 C -0.0672(3) 0.4228(3) 0.21737(19)
C6 C -0.1268(2) 0.3795(3) 0.16585(19)
C7 C 0.4221(3) 0.3874(3) 0.5029(2)
H3 H 0.4432 0.4125 0.4605
C8 C 0.4805(3) 0.3649(3) 0.5581(2)
H4 H 0.5391 0.3719 0.5511
C9 C 0.4493(3) 0.3325(3) 0.6221(2)
H5 H 0.4868 0.3178 0.6591
C10 C 0.3614(3) 0.3216(3) 0.6314(2)
C11 C 0.3216(3) 0.2927(3) 0.6978(2)
H6 H 0.3558 0.2809 0.7377
C12 C 0.2360(3) 0.2825(3) 0.7033(2)
H7 H 0.2123 0.2652 0.7470
C13 C 0.1811(3) 0.2980(3) 0.6430(2)
C14 C 0.0921(3) 0.2848(3) 0.6432(2)
H8 H 0.0648 0.2653 0.6848
C15 C 0.0454(3) 0.3007(3) 0.5821(2)
H9 H -0.0134 0.2907 0.5816
C16 C 0.0877(3) 0.3324(3) 0.5202(2)
H10 H 0.0554 0.3436 0.4792
C17 C 0.2179(3) 0.3287(2) 0.5782(2)
C18 C 0.3083(3) 0.3418(3) 0.57286(19)
C19 C 0.2874(3) 0.5825(3) 0.5464(2)
C20 C 0.1433(3) 0.5936(3) 0.5180(2)
H11 H 0.1018 0.5556 0.4932
H12 H 0.1260 0.6572 0.5142
C21 C 0.1525(3) 0.5647(3) 0.5963(3)
H13 H 0.1196 0.6044 0.6277
H14 H 0.1343 0.5019 0.6033
C22 C 0.2507(3) 0.6290(3) 0.4228(2)
H15 H 0.2415 0.6934 0.4296
H16 H 0.2152 0.6073 0.3843
H17 H 0.3098 0.6183 0.4112
C23 C 0.2837(3) 0.5516(3) 0.6760(2)
H18 H 0.2734 0.4883 0.6869
H19 H 0.2607 0.5892 0.7136
H20 H 0.3442 0.5621 0.6721
Cu1E Cu -0.25596(3) 0.39844(3) 0.06278(2)
O4E O 0.32149(18) 0.4375(2) 0.36257(13)
loop_
_geom_bond_atom_site_label_1
_geom_bond_atom_site_label_2
_geom_bond_site_symmetry_1
_geom_bond_site_symmetry_2
Cu1 O1 1_555 1_555
O1 C1 1_555 1_555
O2 C1 1_555 1_555
O3 C2 1_555 1_555
O4 C6 1_555 1_555
O5 C6 1_555 1_555
O6 C19 1_555 1_555
N1 Cu1 1_555 1_555
N2 Cu1 1_555 1_555
N3 C19 1_555 1_555
N4 Cu1 1_555 1_555
C1 C2 1_555 1_555
C2 C3 1_555 1_555
C3 H1 1_555 1_555
C4 C3 1_555 1_555
H2 C4 1_555 1_555
C5 O3 1_555 1_555
C6 C5 1_555 1_555
C7 N1 1_555 1_555
H3 C7 1_555 1_555
C8 C7 1_555 1_555
H4 C8 1_555 1_555
C9 C8 1_555 1_555
H5 C9 1_555 1_555
C10 C9 1_555 1_555
C11 C10 1_555 1_555
H6 C11 1_555 1_555
C12 C11 1_555 1_555
H7 C12 1_555 1_555
C13 C12 1_555 1_555
C14 C13 1_555 1_555
H8 C14 1_555 1_555
C15 C14 1_555 1_555
H9 C15 1_555 1_555
C16 N2 1_555 1_555
H10 C16 1_555 1_555
C17 N2 1_555 1_555
C18 N1 1_555 1_555
C19 N4 1_555 1_555
C20 N4 1_555 1_555
H11 C20 1_555 1_555
H12 C20 1_555 1_555
C21 N3 1_555 1_555
H13 C21 1_555 1_555
H14 C21 1_555 1_555
C22 N4 1_555 1_555
H15 C22 1_555 1_555
H16 C22 1_555 1_555
H17 C22 1_555 1_555
C23 N3 1_555 1_555
H18 C23 1_555 1_555
H19 C23 1_555 1_555
H20 C23 1_555 1_555
Cu1E O4 1_555 1_555
O4E Cu1 1_555 1_555
C4 C5 1_555 1_555
C10 C18 1_555 1_555
C13 C17 1_555 1_555
C15 C16 1_555 1_555
C17 C18 1_555 1_555
C20 C21 1_555 1_555

#END
