
#######################################################################
#
#                 Cambridge Crystallographic Data Centre
#                                CCDC 
#
#######################################################################
#
# If this CIF has been generated from an entry in the Cambridge 
# Structural Database, then it will include bibliographic, chemical, 
# crystal, experimental, refinement or atomic coordinate data resulting 
# from the CCDC's data processing and validation procedures.
#
#######################################################################

data_QEBRAS
_symmetry_cell_setting           triclinic
_symmetry_space_group_name_H-M   'P -1'
_symmetry_Int_Tables_number      2
_space_group_name_Hall           '-P 1'
loop_
_symmetry_equiv_pos_site_id
_symmetry_equiv_pos_as_xyz
1 x,y,z
2 -x,-y,-z
_cell_length_a                   7.7786(16)
_cell_length_b                   8.0562(17)
_cell_length_c                   9.505(2)
_cell_angle_alpha                110.912(3)
_cell_angle_beta                 96.862(3)
_cell_angle_gamma                95.770(3)
_cell_volume                     545.796
loop_
_atom_site_label
_atom_site_type_symbol
_atom_site_fract_x
_atom_site_fract_y
_atom_site_fract_z
C1 C 0.6934(4) 0.2898(4) 0.1270(3)
C2 C 0.7746(4) 0.4547(4) 0.2648(3)
C3 C 0.7041(4) 0.5062(4) 0.3987(3)
H1 H 0.5989 0.4387 0.4032
C4 C 0.7864(4) 0.6576(4) 0.5285(3)
C5 C 0.9393(4) 0.7518(4) 0.5123(3)
H2 H 0.9999 0.8543 0.5962
C6 C 0.9258(4) 0.5562(4) 0.2565(4)
H3 H 0.9743 0.5245 0.1651
C7 C 0.9532(4) 0.9560(4) 1.0490(3)
C8 C 0.4187(4) 0.9302(4) 0.4887(3)
Ho1 Ho 0.647369(16) 0.971506(16) 0.803507(14)
N1 N 1.0014(3) 0.6993(4) 0.3802(3)
O1 O 0.7614(3) 0.2593(3) 0.0082(2)
O2 O 0.5654(3) 0.1872(3) 0.1357(2)
O3 O 0.7231(3) 0.7072(3) 0.6565(2)
O4 O 0.7922(3) 0.8943(3) 1.0004(2)
O5 O 1.0405(3) 0.9536(3) 1.1658(2)
O6 O 0.4182(3) 0.8477(3) 0.5761(2)
O7 O 0.2967(3) 0.9132(3) 0.3810(2)
O8 O 0.4335(3) 1.1739(3) 0.8101(3)
H4 H 1.102(3) 0.760(4) 0.373(4)
H5 H 0.489(6) 1.275(4) 0.822(6)
H6 H 0.363(6) 1.155(7) 0.866(5)
C1A C 0.3066(4) 0.7102(4) 0.8730(3)
C2A C 0.2254(4) 0.5453(4) 0.7352(3)
C3A C 0.2959(4) 0.4938(4) 0.6013(3)
H1A H 0.4011 0.5613 0.5968
C4A C 0.2136(4) 0.3424(4) 0.4715(3)
C5A C 0.0607(4) 0.2482(4) 0.4877(3)
H2A H 0.0001 0.1457 0.4038
C6A C 0.0742(4) 0.4438(4) 0.7435(4)
H3A H 0.0257 0.4755 0.8349
C7A C 1.0468(4) 1.0440(4) 0.9510(3)
C8A C 0.5813(4) 1.0698(4) 0.5113(3)
Ho1A Ho 0.352631(16) 0.028494(16) 0.196493(14)
Ho1_2 Ho 0.647369(16) -0.028494(16) -0.196493(14)
Ho1A_2 Ho 1.352631(16) 1.028494(16) 1.196493(14)
Ho1A_3 Ho 0.352631(16) 1.028494(16) 0.196493(14)
Ho1A_4 Ho 0.352631(16) 1.028494(16) 1.196493(14)
N1A N -0.0014(3) 0.3007(4) 0.6198(3)
O1A O 0.2386(3) 0.7407(3) 0.9918(2)
O1_2 O 0.7614(3) 1.2593(3) 1.0082(2)
O1A_2 O 0.2386(3) -0.2593(3) -0.0082(2)
O2A O 0.4346(3) 0.8128(3) 0.8643(2)
O3A O 0.2769(3) 0.2928(3) 0.3435(2)
O4A O 1.2078(3) 1.1057(3) 0.9996(2)
O4A_2 O 0.2078(3) 0.1057(3) -0.0004(2)
O5A O 0.9595(3) 1.0464(3) 0.8342(2)
O5_2 O 0.0405(3) -0.0464(3) 0.1658(2)
O6A O 0.5818(3) 1.1523(3) 0.4239(2)
O6A_2 O 0.5818(3) 0.1523(3) 0.4239(2)
O7A O 0.7033(3) 1.0868(3) 0.6190(2)
O7_2 O 0.2967(3) -0.0868(3) 0.3810(2)
O8A O 0.5665(3) -0.1739(3) 0.1899(3)
H4A H -0.102(3) 0.240(4) 0.627(4)
H5A H 0.511(6) -0.275(4) 0.178(6)
H6A H 0.637(6) -0.155(7) 0.134(5)
O9 O 0.3549(5) 0.5133(4) 0.1651(4)
H7 H 0.331(8) 0.448(7) 0.216(6)
H8 H 0.269(6) 0.501(9) 0.096(5)
loop_
_geom_bond_atom_site_label_1
_geom_bond_atom_site_label_2
_geom_bond_site_symmetry_1
_geom_bond_site_symmetry_2
C1 C2 1_555 1_555
C2 C3 1_555 1_555
C3 H1 1_555 1_555
C4 C3 1_555 1_555
C5 C4 1_555 1_555
H2 C5 1_555 1_555
C6 C2 1_555 1_555
H3 C6 1_555 1_555
C7 O4 1_555 1_555
C8 O6 1_555 1_555
Ho1 O3 1_555 1_555
N1 C5 1_555 1_555
O1 C1 1_555 1_555
O2 C1 1_555 1_555
O3 C4 1_555 1_555
O4 Ho1 1_555 1_555
O5 C7 1_555 1_555
O6 Ho1 1_555 1_555
O7 C8 1_555 1_555
O8 Ho1 1_555 1_555
O9 H7 1_555 1_555
H4 N1 1_555 1_555
H5 O8 1_555 1_555
H6 O8 1_555 1_555
H8 O9 1_555 1_555
C1A C2A 1_555 1_555
C2A C3A 1_555 1_555
C3A H1A 1_555 1_555
C4A C3A 1_555 1_555
C5A C4A 1_555 1_555
H2A C5A 1_555 1_555
C6A C2A 1_555 1_555
H3A C6A 1_555 1_555
C7A C7 1_555 1_555
C8A C8 1_555 1_555
Ho1A O2 1_555 1_555
Ho1_2 O1 1_555 1_555
Ho1A_2 O5 1_555 1_555
Ho1A_3 O7 1_555 1_555
Ho1A_4 O1A 1_555 1_555
N1A C5A 1_555 1_555
O1A C1A 1_555 1_555
O1_2 Ho1 1_555 1_555
O1A_2 Ho1A 1_555 1_555
O2A Ho1 1_555 1_555
O3A C4A 1_555 1_555
O4A C7A 1_555 1_555
O4A_2 Ho1A 1_555 1_555
O5A Ho1 1_555 1_555
O5_2 Ho1A 1_555 1_555
O6A C8A 1_555 1_555
O6A_2 Ho1A 1_555 1_555
O7A Ho1 1_555 1_555
O7_2 Ho1A 1_555 1_555
O8A Ho1A 1_555 1_555
H4A N1A 1_555 1_555
H5A O8A 1_555 1_555
H6A O8A 1_555 1_555
C6 N1 1_555 1_555
C1A O2A 1_555 1_555
C6A N1A 1_555 1_555
C7A O5A 1_555 1_555
C8A O7A 1_555 1_555
Ho1A O3A 1_555 1_555
Ho1A_2 O4A 1_555 1_555
Ho1A_3 O6A 1_555 1_555

#END
