
#######################################################################
#
#                 Cambridge Crystallographic Data Centre
#                                CCDC 
#
#######################################################################
#
# If this CIF has been generated from an entry in the Cambridge 
# Structural Database, then it will include bibliographic, chemical, 
# crystal, experimental, refinement or atomic coordinate data resulting 
# from the CCDC's data processing and validation procedures.
#
#######################################################################

data_QEBROG
_symmetry_cell_setting           monoclinic
_symmetry_space_group_name_H-M   'P 2/c'
_symmetry_Int_Tables_number      13
_space_group_name_Hall           '-P 2yc'
loop_
_symmetry_equiv_pos_site_id
_symmetry_equiv_pos_as_xyz
1 x,y,z
2 -x,y,1/2-z
3 -x,-y,-z
4 x,-y,1/2+z
_cell_length_a                   6.2006(12)
_cell_length_b                   9.770(2)
_cell_length_c                   11.259(3)
_cell_angle_alpha                90
_cell_angle_beta                 115.33(2)
_cell_angle_gamma                90
_cell_volume                     616.494
loop_
_atom_site_label
_atom_site_type_symbol
_atom_site_fract_x
_atom_site_fract_y
_atom_site_fract_z
Zn1 Zn 0.0000 -0.23661(3) -0.2500
Ca1 Ca 0.5000 -0.48363(6) -0.2500
O1 O 0.2538(3) -0.34567(15) -0.11362(14)
O2 O 0.5157(3) -0.35902(17) 0.09520(15)
O3 O 0.7153(3) -0.29814(17) -0.11799(15)
O4 O 0.8547(3) -0.10913(16) -0.16958(16)
O5 O 0.9045(3) -0.5630(2) -0.14219(19)
H1 H 0.9466 -0.6438 -0.1510
H2 H 1.0270 -0.5118 -0.1110
C1 C 0.4111(4) -0.2941(2) -0.00731(19)
C2 C 0.7341(3) -0.1716(2) -0.11904(19)
C3 C 0.4642(3) -0.1423(2) -0.00489(18)
C4 C 0.6098(3) -0.0840(2) -0.05841(18)
C5 C 0.3573(4) -0.0571(2) 0.05340(18)
H3 H 0.2618 -0.0953 0.0898
Zn1_2 Zn 1.0000 -0.23661(3) -0.2500
Zn1B Zn 1.0000 0.23661(3) 0.2500
Zn1B_2 Zn 0.0000 0.23661(3) 0.2500
Ca1B Ca 0.5000 -0.51637(6) 0.2500
Ca1B_2 Ca 0.5000 0.48363(6) 0.2500
Ca1_2 Ca 0.5000 0.51637(6) -0.2500
O1B O 0.7462(3) 0.34567(15) 0.11362(14)
O1A O -0.2538(3) -0.34567(15) -0.38638(14)
O1A_2 O 0.7462(3) -0.34567(15) -0.38638(14)
O2B O 0.4843(3) 0.35902(17) -0.09520(15)
O2B_2 O 0.4843(3) -0.64098(17) -0.09520(15)
O2C O 0.5157(3) -0.64098(17) -0.40480(15)
O3B O 0.2847(3) 0.29814(17) 0.11799(15)
O3A O 0.2847(3) -0.29814(17) -0.38201(15)
O4B O 0.1453(3) 0.10913(16) 0.16958(16)
O4_2 O -0.1453(3) -0.10913(16) -0.16958(16)
O4A O 0.1453(3) -0.10913(16) -0.33042(16)
O5A O 0.0955(3) -0.5630(2) -0.35781(19)
H1A H 0.0534 -0.6438 -0.3490
H2A H -0.0270 -0.5118 -0.3890
C1B C 0.5889(4) 0.2941(2) 0.00731(19)
C2B C 0.2659(3) 0.1716(2) 0.11904(19)
C3B C 0.5358(3) 0.1423(2) 0.00489(18)
C4B C 0.3902(3) 0.0840(2) 0.05841(18)
C5B C 0.6427(4) 0.0571(2) -0.05340(18)
H3B H 0.7382 0.0953 -0.0898
O6 O 1.0000 0.1852(4) -0.2500
H4 H 0.9216 0.1282 -0.2269
H4A H 1.0784 0.1282 -0.2731
loop_
_geom_bond_atom_site_label_1
_geom_bond_atom_site_label_2
_geom_bond_site_symmetry_1
_geom_bond_site_symmetry_2
Zn1 O1 1_555 1_555
Ca1 O1 1_555 1_555
O1 C1 1_555 1_555
O2 C1 1_555 1_555
O3 Ca1 1_555 1_555
O4 C2 1_555 1_555
O5 Ca1 1_555 1_555
H1 O5 1_555 1_555
H2 O5 1_555 1_555
C1 C3 1_555 1_555
C2 O3 1_555 1_555
C3 C4 1_555 1_555
C4 C2 1_555 1_555
C5 C3 1_555 1_555
H3 C5 1_555 1_555
O6 H4 1_555 1_555
Zn1_2 O4 1_555 1_555
Zn1B O1B 1_555 1_555
Zn1B_2 O4B 1_555 1_555
Ca1B O2 1_555 1_555
Ca1B_2 O1B 1_555 1_555
Ca1_2 O2B 1_555 1_555
O1B C1B 1_555 1_555
O1A Zn1 1_555 1_555
O1A_2 Ca1 1_555 1_555
O2B C1B 1_555 1_555
O2B_2 Ca1 1_555 1_555
O2C Ca1 1_555 1_555
O3B Ca1B_2 1_555 1_555
O3A Ca1 1_555 1_555
O4B C2B 1_555 1_555
O4_2 Zn1 1_555 1_555
O4A Zn1 1_555 1_555
O5A Ca1 1_555 1_555
H1A O5A 1_555 1_555
H2A O5A 1_555 1_555
C1B C3B 1_555 1_555
C2B O3B 1_555 1_555
C3B C4B 1_555 1_555
C4B C5 1_555 1_555
C5B C4 1_555 1_555
H3B C5B 1_555 1_555
H4A O6 1_555 1_555
Zn1_2 O1A_2 1_555 1_555
C2B C4B 1_555 1_555
C3B C5B 1_555 1_555

#END
