
#######################################################################
#
#                 Cambridge Crystallographic Data Centre
#                                CCDC 
#
#######################################################################
#
# If this CIF has been generated from an entry in the Cambridge 
# Structural Database, then it will include bibliographic, chemical, 
# crystal, experimental, refinement or atomic coordinate data resulting 
# from the CCDC's data processing and validation procedures.
#
#######################################################################

data_QEBREW
_symmetry_cell_setting           monoclinic
_symmetry_space_group_name_H-M   'P 21/c'
_symmetry_Int_Tables_number      14
_space_group_name_Hall           '-P 2ybc'
loop_
_symmetry_equiv_pos_site_id
_symmetry_equiv_pos_as_xyz
1 x,y,z
2 -x,1/2+y,1/2-z
3 -x,-y,-z
4 x,1/2-y,1/2+z
_cell_length_a                   21.5625(2)
_cell_length_b                   23.4621(2)
_cell_length_c                   8.60300(10)
_cell_angle_alpha                90
_cell_angle_beta                 98.8990(10)
_cell_angle_gamma                90
_cell_volume                     4299.88
loop_
_atom_site_label
_atom_site_type_symbol
_atom_site_fract_x
_atom_site_fract_y
_atom_site_fract_z
Pr1 Pr 0.911380(7) 0.703539(6) 0.660845(17)
O1 O 0.82724(10) 0.69075(10) 0.8105(3)
O2 O 0.82646(10) 0.74065(11) 1.0300(3)
O3 O 0.54691(13) 0.65243(17) 0.9284(4)
H1 H 0.5307 0.6376 0.8457
O4 O 0.99741(10) 0.76381(10) 0.6186(3)
O5 O 0.98379(10) 0.81352(10) 0.3967(3)
O6 O 1.27882(11) 0.83426(15) 0.5929(3)
H2 H 1.2891 0.8501 0.5159
O7 O 0.85863(12) 0.63832(10) 0.4358(3)
O8 O 0.91180(11) 0.70593(8) 0.3492(3)
O9 O 0.87386(16) 0.63694(11) 0.1925(3)
N1 N 0.91051(12) 0.58977(11) 0.7443(3)
N2 N 0.99832(12) 0.63129(11) 0.5726(3)
N7 N 0.88073(13) 0.65978(11) 0.3208(3)
C1 C 0.86749(17) 0.56790(15) 0.8203(4)
H3 H 0.8333 0.5905 0.8339
C2 C 0.8705(2) 0.51245(17) 0.8815(5)
H4 H 0.8385 0.4987 0.9324
C3 C 0.9202(2) 0.47938(16) 0.8658(4)
H5 H 0.9230 0.4426 0.9064
C4 C 0.96762(18) 0.50076(15) 0.7881(4)
C5 C 1.0222(2) 0.46801(16) 0.7694(4)
H6 H 1.0271 0.4316 0.8125
C6 C 1.06627(19) 0.48895(16) 0.6909(5)
H7 H 1.1014 0.4670 0.6810
C7 C 1.05998(16) 0.54452(15) 0.6224(4)
C8 C 1.10422(18) 0.56691(18) 0.5375(5)
H8 H 1.1401 0.5461 0.5269
C9 C 1.09484(17) 0.61956(18) 0.4694(5)
H9 H 1.1240 0.6349 0.4119
C10 C 1.04075(16) 0.64978(15) 0.4880(4)
H10 H 1.0340 0.6849 0.4382
C11 C 1.00721(15) 0.57883(13) 0.6386(4)
C12 C 0.96066(15) 0.55657(13) 0.7261(4)
C13 C 0.80099(15) 0.70958(12) 0.9199(4)
C14 C 0.73337(15) 0.69387(13) 0.9191(4)
C15 C 0.69901(15) 0.66640(15) 0.7909(4)
H11 H 0.7182 0.6573 0.7044
C16 C 0.63630(16) 0.65238(16) 0.7902(4)
H12 H 0.6135 0.6347 0.7028
C17 C 0.60788(16) 0.66489(18) 0.9204(5)
C18 C 0.64241(19) 0.6915(2) 1.0494(5)
H13 H 0.6239 0.6994 1.1377
C19 C 0.70412(18) 0.70630(15) 1.0472(5)
H14 H 0.7265 0.7250 1.1335
C20 C 1.01715(15) 0.79388(12) 0.5157(4)
C21 C 1.08667(14) 0.80619(13) 0.5374(4)
C22 C 1.12756(16) 0.77961(17) 0.6560(4)
H15 H 1.1119 0.7551 0.7255
C23 C 1.19154(18) 0.78935(18) 0.6716(5)
H16 H 1.2185 0.7713 0.7513
C24 C 1.21567(15) 0.82586(16) 0.5690(4)
C25 C 1.17529(15) 0.85264(15) 0.4508(4)
H17 H 1.1908 0.8776 0.3822
C26 C 1.11146(15) 0.84181(14) 0.4357(4)
H18 H 1.0846 0.8591 0.3545
Pr1C Pr 0.911380(7) 0.796461(6) 1.160845(17)
Pr1C_2 Pr 0.911380(7) 0.796461(6) 0.160845(17)
O2C O 0.82646(10) 0.75935(11) 0.5300(3)
O5C O 0.98379(10) 0.68648(10) 0.8967(3)
O8C O 0.91180(11) 0.79407(8) 0.8492(3)
N3 N 0.29434(16) 0.53994(16) 0.9226(4)
N4 N 0.32464(19) 0.64182(15) 0.8063(4)
C27 C 0.2817(2) 0.4893(2) 0.9770(7)
H19 H 0.2878 0.4838 1.0853
C28 C 0.2599(3) 0.4442(3) 0.8801(10)
H20 H 0.2521 0.4092 0.9237
C29 C 0.2501(2) 0.4509(3) 0.7224(9)
H21 H 0.2343 0.4209 0.6573
C30 C 0.26354(17) 0.5030(2) 0.6578(6)
C31 C 0.2559(2) 0.5159(3) 0.4895(6)
H22 H 0.2396 0.4880 0.4178
C32 C 0.2714(2) 0.5660(3) 0.4363(6)
H23 H 0.2657 0.5724 0.3283
C33 C 0.29633(18) 0.6099(2) 0.5385(5)
C34 C 0.3163(2) 0.6624(2) 0.4868(6)
H24 H 0.3126 0.6700 0.3796
C35 C 0.3411(4) 0.7024(2) 0.5929(8)
H25 H 0.3564 0.7368 0.5604
C36 C 0.3430(3) 0.6902(2) 0.7513(7)
H26 H 0.3583 0.7182 0.8237
C37 C 0.30263(17) 0.60086(18) 0.7031(4)
C38 C 0.28600(16) 0.54654(18) 0.7640(5)
N5 N 0.50294(18) 0.33752(18) 0.4667(5)
N6 N 0.52702(16) 0.42317(16) 0.2691(4)
C39 C 0.4948(3) 0.2955(2) 0.5625(8)
H27 H 0.4729 0.2635 0.5204
C40 C 0.5173(4) 0.2960(3) 0.7245(9)
H28 H 0.5115 0.2648 0.7873
C41 C 0.5475(3) 0.3430(4) 0.7867(7)
H29 H 0.5621 0.3446 0.8942
C42 C 0.5571(2) 0.3895(3) 0.6909(6)
C43 C 0.5878(2) 0.4410(4) 0.7490(7)
H30 H 0.6026 0.4443 0.8560
C44 C 0.5958(2) 0.4845(3) 0.6533(8)
H31 H 0.6146 0.5179 0.6955
C45 C 0.57586(18) 0.4804(2) 0.4878(7)
C46 C 0.5861(2) 0.5236(2) 0.3827(9)
H32 H 0.6047 0.5577 0.4203
C47 C 0.5686(2) 0.5157(3) 0.2249(10)
H33 H 0.5763 0.5434 0.1529
C48 C 0.5387(2) 0.4646(2) 0.1750(7)
H34 H 0.5262 0.4595 0.0676
C49 C 0.54567(17) 0.42982(19) 0.4263(5)
C50 C 0.53442(17) 0.3839(2) 0.5292(5)
loop_
_geom_bond_atom_site_label_1
_geom_bond_atom_site_label_2
_geom_bond_site_symmetry_1
_geom_bond_site_symmetry_2
Pr1 O1 1_555 1_555
O1 C13 1_555 1_555
O2 C13 1_555 1_555
O3 H1 1_555 1_555
O4 Pr1 1_555 1_555
O5 C20 1_555 1_555
O6 H2 1_555 1_555
O7 Pr1 1_555 1_555
O8 Pr1 1_555 1_555
O9 N7 1_555 1_555
N1 Pr1 1_555 1_555
N2 Pr1 1_555 1_555
N3 C27 1_555 1_555
N4 C36 1_555 1_555
N5 C39 1_555 1_555
N6 C48 1_555 1_555
N7 O7 1_555 1_555
C1 N1 1_555 1_555
H3 C1 1_555 1_555
C2 C1 1_555 1_555
H4 C2 1_555 1_555
C3 C2 1_555 1_555
H5 C3 1_555 1_555
C4 C3 1_555 1_555
C5 C4 1_555 1_555
H6 C5 1_555 1_555
C6 C5 1_555 1_555
H7 C6 1_555 1_555
C7 C6 1_555 1_555
C8 C7 1_555 1_555
H8 C8 1_555 1_555
C9 C8 1_555 1_555
H9 C9 1_555 1_555
C10 N2 1_555 1_555
H10 C10 1_555 1_555
C11 N2 1_555 1_555
C12 N1 1_555 1_555
C13 C14 1_555 1_555
C14 C15 1_555 1_555
C15 H11 1_555 1_555
C16 C15 1_555 1_555
H12 C16 1_555 1_555
C17 O3 1_555 1_555
C18 C17 1_555 1_555
H13 C18 1_555 1_555
C19 C14 1_555 1_555
H14 C19 1_555 1_555
C20 O4 1_555 1_555
C21 C20 1_555 1_555
C22 C21 1_555 1_555
H15 C22 1_555 1_555
C23 C22 1_555 1_555
H16 C23 1_555 1_555
C24 O6 1_555 1_555
C25 C24 1_555 1_555
H17 C25 1_555 1_555
C26 C21 1_555 1_555
H18 C26 1_555 1_555
C27 H19 1_555 1_555
C28 C27 1_555 1_555
H20 C28 1_555 1_555
C29 C28 1_555 1_555
H21 C29 1_555 1_555
C30 C29 1_555 1_555
C31 C30 1_555 1_555
H22 C31 1_555 1_555
C32 C31 1_555 1_555
H23 C32 1_555 1_555
C33 C32 1_555 1_555
C34 C33 1_555 1_555
H24 C34 1_555 1_555
C35 C34 1_555 1_555
H25 C35 1_555 1_555
C36 C35 1_555 1_555
H26 C36 1_555 1_555
C37 N4 1_555 1_555
C38 N3 1_555 1_555
C39 H27 1_555 1_555
C40 C39 1_555 1_555
H28 C40 1_555 1_555
C41 C40 1_555 1_555
H29 C41 1_555 1_555
C42 C41 1_555 1_555
C43 C42 1_555 1_555
H30 C43 1_555 1_555
C44 C43 1_555 1_555
H31 C44 1_555 1_555
C45 C44 1_555 1_555
C46 C45 1_555 1_555
H32 C46 1_555 1_555
C47 C46 1_555 1_555
H33 C47 1_555 1_555
C48 C47 1_555 1_555
H34 C48 1_555 1_555
C49 N6 1_555 1_555
C50 N5 1_555 1_555
Pr1C O2 1_555 1_555
Pr1C_2 O5 1_555 1_555
O2C Pr1 1_555 1_555
O5C Pr1 1_555 1_555
O8C Pr1 1_555 1_555
O8 N7 1_555 1_555
O8 Pr1C_2 1_555 1_555
C4 C12 1_555 1_555
C7 C11 1_555 1_555
C9 C10 1_555 1_555
C11 C12 1_555 1_555
C16 C17 1_555 1_555
C18 C19 1_555 1_555
C23 C24 1_555 1_555
C25 C26 1_555 1_555
C30 C38 1_555 1_555
C33 C37 1_555 1_555
C37 C38 1_555 1_555
C42 C50 1_555 1_555
C45 C49 1_555 1_555
C49 C50 1_555 1_555
Pr1C O8C 1_555 1_555

#END
