
#######################################################################
#
#                 Cambridge Crystallographic Data Centre
#                                CCDC 
#
#######################################################################
#
# If this CIF has been generated from an entry in the Cambridge 
# Structural Database, then it will include bibliographic, chemical, 
# crystal, experimental, refinement or atomic coordinate data resulting 
# from the CCDC's data processing and validation procedures.
#
#######################################################################

data_QEBVUQ
_symmetry_cell_setting           orthorhombic
_symmetry_space_group_name_H-M   'P b c a'
_symmetry_Int_Tables_number      61
_space_group_name_Hall           '-P 2ac 2ab'
loop_
_symmetry_equiv_pos_site_id
_symmetry_equiv_pos_as_xyz
1 x,y,z
2 1/2-x,-y,1/2+z
3 -x,1/2+y,1/2-z
4 1/2+x,1/2-y,-z
5 -x,-y,-z
6 1/2+x,y,1/2-z
7 x,1/2-y,1/2+z
8 1/2-x,1/2+y,z
_cell_length_a                   12.3996(2)
_cell_length_b                   21.0115(4)
_cell_length_c                   26.7059(5)
_cell_angle_alpha                90
_cell_angle_beta                 90
_cell_angle_gamma                90
_cell_volume                     6957.8
loop_
_atom_site_label
_atom_site_type_symbol
_atom_site_fract_x
_atom_site_fract_y
_atom_site_fract_z
Cu1 Cu 0.74889(4) 0.32160(2) 0.591725(16)
Cu2 Cu 0.51236(4) 0.06952(2) 0.406562(15)
O1 O 0.6417(2) 0.38125(13) 0.61888(10)
O2 O 0.6166(2) 0.13248(12) 0.38040(10)
N1 N 0.8834(3) 0.26882(16) 0.58984(12)
N2 N 0.7736(3) 0.31179(14) 0.66329(11)
N3 N 0.7020(3) 0.33965(15) 0.69487(11)
N4 N 0.5629(3) 0.41008(19) 0.69133(14)
H5 H 0.5184 0.4351 0.6749
H6 H 0.5586 0.4073 0.7241
N5 N 0.3807(3) 0.01320(15) 0.40768(10)
N6 N 0.4882(2) 0.06112(14) 0.33509(11)
N7 N 0.5555(3) 0.09307(15) 0.30382(11)
N8 N 0.6909(3) 0.16608(17) 0.30793(13)
H7 H 0.7353 0.1909 0.3246
H8 H 0.6936 0.1649 0.2750
N9 N 0.6399(4) 0.2399(2) 0.58076(14)
N10 N 0.5250(4) 0.1525(2) 0.55530(14)
N11 N 0.5158(3) 0.09809(17) 0.47568(12)
N12 N 0.7496(3) 0.35269(18) 0.52272(13)
N13 N 0.7622(4) 0.3993(2) 0.43995(14)
N14 N 0.8717(3) 0.48903(18) 0.41363(13)
C1 C 0.9380(4) 0.2496(2) 0.54957(17)
H9 H 0.9131 0.2611 0.5180
C2 C 1.0297(5) 0.2132(3) 0.5532(2)
H10 H 1.0658 0.1998 0.5246
C3 C 1.0669(5) 0.1972(2) 0.6000(2)
H11 H 1.1305 0.1741 0.6035
C4 C 1.0095(4) 0.2154(2) 0.64189(17)
H12 H 1.0326 0.2039 0.6737
C5 C 0.9172(3) 0.25110(17) 0.63568(14)
C6 C 0.8486(3) 0.27313(16) 0.67749(13)
C7 C 0.8605(3) 0.24717(17) 0.72905(13)
C8 C 0.7886(4) 0.2016(2) 0.74534(17)
H13 H 0.7321 0.1890 0.7247
C9 C 0.8002(5) 0.1745(2) 0.7924(2)
H14 H 0.7519 0.1436 0.8032
C10 C 0.8835(5) 0.1935(3) 0.82286(19)
H15 H 0.8909 0.1758 0.8546
C11 C 0.9552(5) 0.2379(3) 0.80682(19)
H16 H 1.0119 0.2504 0.8275
C12 C 0.9440(4) 0.2645(2) 0.76020(17)
H17 H 0.9937 0.2947 0.7494
C13 C 0.6370(3) 0.37643(18) 0.66655(14)
C14 C 0.3281(4) -0.0096(2) 0.44722(15)
H18 H 0.3484 0.0040 0.4790
C15 C 0.2455(4) -0.0522(3) 0.44297(19)
H19 H 0.2098 -0.0671 0.4713
C16 C 0.2161(5) -0.0725(3) 0.3959(2)
H20 H 0.1602 -0.1016 0.3920
C17 C 0.2703(4) -0.0494(2) 0.35449(17)
H21 H 0.2513 -0.0627 0.3225
C18 C 0.3520(3) -0.00673(18) 0.36126(13)
C19 C 0.4168(3) 0.02092(17) 0.32052(13)
C20 C 0.4045(3) -0.00038(17) 0.26745(13)
C21 C 0.3209(4) 0.0214(2) 0.23788(15)
H22 H 0.2697 0.0492 0.2508
C22 C 0.3144(4) 0.0011(3) 0.18867(17)
H23 H 0.2580 0.0154 0.1687
C23 C 0.3888(4) -0.0392(2) 0.16898(16)
H24 H 0.3844 -0.0514 0.1356
C24 C 0.4709(4) -0.0618(2) 0.19901(19)
H25 H 0.5207 -0.0906 0.1862
C25 C 0.4789(4) -0.0417(2) 0.24776(17)
H26 H 0.5354 -0.0562 0.2676
C26 C 0.6197(3) 0.13029(17) 0.33247(14)
C27 C 0.5897(4) 0.1987(2) 0.56680(14)
C28 C 0.5253(3) 0.12554(19) 0.51235(14)
C29 C 0.7585(3) 0.3768(2) 0.48527(16)
C30 C 0.8225(3) 0.4478(2) 0.42797(13)
Cu2G Cu 0.98764(4) 0.56952(2) 0.406562(15)
N14G N 0.6283(3) -0.01097(18) 0.41363(13)
O3 O 0.4729(16) 0.4332(10) 0.5571(8)
H1 H 0.5266 0.4228 0.5745
H2 H 0.4808 0.4710 0.5475
O4 O 0.8427(16) 0.1463(9) 0.4332(7)
H3 H 0.7879 0.1336 0.4177
H4 H 0.8367 0.1858 0.4373
O5? O 0.7929(19) 0.1888(10) 0.4402(8)
loop_
_geom_bond_atom_site_label_1
_geom_bond_atom_site_label_2
_geom_bond_site_symmetry_1
_geom_bond_site_symmetry_2
Cu1 O1 1_555 1_555
Cu2 O2 1_555 1_555
O1 C13 1_555 1_555
O2 C26 1_555 1_555
O3 H1 1_555 1_555
H2 O3 1_555 1_555
O4 H3 1_555 1_555
H4 O4 1_555 1_555
N1 Cu1 1_555 1_555
N2 Cu1 1_555 1_555
N3 N2 1_555 1_555
N4 H5 1_555 1_555
H6 N4 1_555 1_555
N5 Cu2 1_555 1_555
N6 Cu2 1_555 1_555
N7 N6 1_555 1_555
N8 H7 1_555 1_555
H8 N8 1_555 1_555
N9 Cu1 1_555 1_555
N10 C27 1_555 1_555
N11 Cu2 1_555 1_555
N12 Cu1 1_555 1_555
N13 C29 1_555 1_555
N14 C30 1_555 1_555
C1 N1 1_555 1_555
H9 C1 1_555 1_555
C2 C1 1_555 1_555
H10 C2 1_555 1_555
C3 C2 1_555 1_555
H11 C3 1_555 1_555
C4 C3 1_555 1_555
H12 C4 1_555 1_555
C5 N1 1_555 1_555
C6 N2 1_555 1_555
C7 C6 1_555 1_555
C8 C7 1_555 1_555
H13 C8 1_555 1_555
C9 C8 1_555 1_555
H14 C9 1_555 1_555
C10 C9 1_555 1_555
H15 C10 1_555 1_555
C11 C10 1_555 1_555
H16 C11 1_555 1_555
C12 C7 1_555 1_555
H17 C12 1_555 1_555
C13 N3 1_555 1_555
C14 N5 1_555 1_555
H18 C14 1_555 1_555
C15 C14 1_555 1_555
H19 C15 1_555 1_555
C16 C15 1_555 1_555
H20 C16 1_555 1_555
C17 C16 1_555 1_555
H21 C17 1_555 1_555
C18 N5 1_555 1_555
C19 N6 1_555 1_555
C20 C19 1_555 1_555
C21 C20 1_555 1_555
H22 C21 1_555 1_555
C22 C21 1_555 1_555
H23 C22 1_555 1_555
C23 C22 1_555 1_555
H24 C23 1_555 1_555
C24 C23 1_555 1_555
H25 C24 1_555 1_555
C25 C20 1_555 1_555
H26 C25 1_555 1_555
C26 N7 1_555 1_555
C27 N9 1_555 1_555
C28 N10 1_555 1_555
C29 N12 1_555 1_555
C30 N13 1_555 1_555
Cu2G N14 1_555 1_555
N14G Cu2 1_555 1_555
N4 C13 1_555 1_555
N8 C26 1_555 1_555
N11 C28 1_555 1_555
C4 C5 1_555 1_555
C5 C6 1_555 1_555
C11 C12 1_555 1_555
C17 C18 1_555 1_555
C18 C19 1_555 1_555
C24 C25 1_555 1_555

#END
