
#######################################################################
#
#                 Cambridge Crystallographic Data Centre
#                                CCDC 
#
#######################################################################
#
# If this CIF has been generated from an entry in the Cambridge 
# Structural Database, then it will include bibliographic, chemical, 
# crystal, experimental, refinement or atomic coordinate data resulting 
# from the CCDC's data processing and validation procedures.
#
#######################################################################

data_QEBVAW
_symmetry_cell_setting           monoclinic
_symmetry_space_group_name_H-M   'P 21/c'
_symmetry_Int_Tables_number      14
_space_group_name_Hall           '-P 2ybc'
loop_
_symmetry_equiv_pos_site_id
_symmetry_equiv_pos_as_xyz
1 x,y,z
2 -x,1/2+y,1/2-z
3 -x,-y,-z
4 x,1/2-y,1/2+z
_cell_length_a                   7.1265(9)
_cell_length_b                   9.5249(14)
_cell_length_c                   18.654(2)
_cell_angle_alpha                90
_cell_angle_beta                 97.240(4)
_cell_angle_gamma                90
_cell_volume                     1256.12
loop_
_atom_site_label
_atom_site_type_symbol
_atom_site_fract_x
_atom_site_fract_y
_atom_site_fract_z
Ag1 Ag 0.06666(5) 0.59659(5) 0.58246(2)
O1 O 0.3023(5) 0.4649(5) 0.8136(2)
H1 H 0.2582 0.5291 0.8375
N1 N 0.3716(5) 0.5848(4) 0.5842(2)
N2 N 0.7616(5) 0.5983(4) 0.5896(2)
N3 N 0.4029(6) 0.4097(5) 0.6707(2)
H2 H 0.2785 0.4081 0.6661
C1 C 0.4556(6) 0.6685(5) 0.5406(3)
H3 H 0.3804 0.7245 0.5078
C2 C 0.6473(7) 0.6755(5) 0.5421(3)
H4 H 0.6993 0.7341 0.5100
C3 C 0.6828(6) 0.5159(6) 0.6338(3)
H5 H 0.7599 0.4648 0.6683
C4 C 0.4845(6) 0.5027(5) 0.6304(2)
C5 C 0.5036(8) 0.3108(6) 0.7217(3)
H6 H 0.6001 0.2642 0.6980
H7 H 0.4151 0.2395 0.7333
C6 C 0.5967(7) 0.3745(5) 0.7914(3)
C7 C 0.7896(7) 0.3554(6) 0.8134(3)
H8 H 0.8625 0.3062 0.7839
C8 C 0.8733(8) 0.4086(6) 0.8783(3)
H9 H 1.0016 0.3941 0.8926
C9 C 0.7677(8) 0.4832(7) 0.9221(3)
H10 H 0.8247 0.5192 0.9658
C10 C 0.5791(8) 0.5042(6) 0.9013(3)
H11 H 0.5082 0.5552 0.9308
C11 C 0.4926(7) 0.4498(6) 0.8363(3)
Ag1_2 Ag 1.06666(5) 0.59659(5) 0.58246(2)
N2_2 N -0.2384(5) 0.5983(4) 0.5896(2)
O2 O -0.0170(6) 0.6917(5) 0.4458(2)
O3 O 0.1837(5) 0.8322(5) 0.4064(2)
O4 O -0.0257(6) 0.7272(6) 0.3321(2)
N4 N 0.0450(6) 0.7509(5) 0.3943(2)
loop_
_geom_bond_atom_site_label_1
_geom_bond_atom_site_label_2
_geom_bond_site_symmetry_1
_geom_bond_site_symmetry_2
Ag1 N1 1_555 1_555
O1 H1 1_555 1_555
O2 N4 1_555 1_555
O3 N4 1_555 1_555
O4 N4 1_555 1_555
N1 C1 1_555 1_555
N2 C2 1_555 1_555
N3 H2 1_555 1_555
C1 H3 1_555 1_555
C2 C1 1_555 1_555
H4 C2 1_555 1_555
C3 N2 1_555 1_555
H5 C3 1_555 1_555
C4 N1 1_555 1_555
C5 N3 1_555 1_555
H6 C5 1_555 1_555
H7 C5 1_555 1_555
C6 C5 1_555 1_555
C7 C6 1_555 1_555
H8 C7 1_555 1_555
C8 C7 1_555 1_555
H9 C8 1_555 1_555
C9 C8 1_555 1_555
H10 C9 1_555 1_555
C10 C9 1_555 1_555
H11 C10 1_555 1_555
C11 O1 1_555 1_555
Ag1_2 N2 1_555 1_555
N2_2 Ag1 1_555 1_555
N3 C4 1_555 1_555
C3 C4 1_555 1_555
C6 C11 1_555 1_555
C10 C11 1_555 1_555

#END
