
#######################################################################
#
#                 Cambridge Crystallographic Data Centre
#                                CCDC 
#
#######################################################################
#
# If this CIF has been generated from an entry in the Cambridge 
# Structural Database, then it will include bibliographic, chemical, 
# crystal, experimental, refinement or atomic coordinate data resulting 
# from the CCDC's data processing and validation procedures.
#
#######################################################################

data_QEBWEB
_symmetry_cell_setting           monoclinic
_symmetry_space_group_name_H-M   'P 21/c'
_symmetry_Int_Tables_number      14
_space_group_name_Hall           '-P 2ybc'
loop_
_symmetry_equiv_pos_site_id
_symmetry_equiv_pos_as_xyz
1 x,y,z
2 -x,1/2+y,1/2-z
3 -x,-y,-z
4 x,1/2-y,1/2+z
_cell_length_a                   17.2526(9)
_cell_length_b                   6.8899(3)
_cell_length_c                   7.5474(3)
_cell_angle_alpha                90
_cell_angle_beta                 95.118(4)
_cell_angle_gamma                90
_cell_volume                     893.573
loop_
_atom_site_label
_atom_site_type_symbol
_atom_site_fract_x
_atom_site_fract_y
_atom_site_fract_z
Mg1 Mg 0.00000 0.50000 0.50000
F1 F 0.49577(8) -0.0237(3) 0.7819(2)
O1 O 0.20100(10) -0.0103(3) 0.4489(2)
O2 O 0.09125(8) 0.6177(2) 0.36712(19)
O3 O 0.01967(8) 0.2303(2) 0.39916(19)
O4 O 0.07774(8) 0.02846(19) 0.22234(18)
C1 C 0.27377(13) -0.0045(4) 0.5408(3)
C2 C 0.32768(15) -0.1323(4) 0.4814(4)
C3 C 0.40282(15) -0.1370(4) 0.5616(4)
C4 C 0.42218(13) -0.0158(4) 0.7001(3)
C5 C 0.37063(15) 0.1118(4) 0.7620(3)
C6 C 0.29510(14) 0.1183(4) 0.6810(3)
C7 C 0.14596(12) 0.1286(3) 0.4960(3)
C8 C 0.07588(12) 0.1271(3) 0.3609(3)
H1 H 0.31330 -0.21540 0.38700
H2 H 0.43940 -0.22160 0.52140
H3 H 0.38580 0.19330 0.85700
H4 H 0.25920 0.20490 0.72100
H5 H 0.16940 0.25660 0.50070
H6 H 0.12990 0.09860 0.61290
H7 H 0.13290 0.67830 0.42470
H8 H 0.06600 0.68980 0.27780
Mg1A Mg 0.00000 0.00000 0.00000
Mg1A_2 Mg 0.00000 1.00000 1.00000
F1B F -0.49577(8) 1.0237(3) 0.2181(2)
O1B O -0.20100(10) 1.0103(3) 0.5511(2)
O2B O -0.09125(8) 0.3823(2) 0.63288(19)
O3B O -0.01967(8) 0.7697(2) 0.60084(19)
O4B O -0.07774(8) 0.97154(19) 0.77766(18)
O4A O -0.07774(8) 0.52846(19) 0.27766(18)
O4C O 0.07774(8) 0.47154(19) 0.72234(18)
C1B C -0.27377(13) 1.0045(4) 0.4592(3)
C2B C -0.32768(15) 1.1323(4) 0.5186(4)
C3B C -0.40282(15) 1.1370(4) 0.4384(4)
C4B C -0.42218(13) 1.0158(4) 0.2999(3)
C5B C -0.37063(15) 0.8882(4) 0.2380(3)
C6B C -0.29510(14) 0.8817(4) 0.3190(3)
C7B C -0.14596(12) 0.8714(3) 0.5040(3)
C8B C -0.07588(12) 0.8729(3) 0.6391(3)
H1B H -0.31330 1.21540 0.61300
H2B H -0.43940 1.22160 0.47860
H3B H -0.38580 0.80670 0.14300
H4B H -0.25920 0.79510 0.27900
H5B H -0.16940 0.74340 0.49930
H6B H -0.12990 0.90140 0.38710
H7B H -0.13290 0.32170 0.57530
H8B H -0.06600 0.31020 0.72220
O5 O 0.2262(5) 0.5768(14) 0.5816(12)
H9 H 0.22790 0.70540 0.62850
H10 H 0.18990 0.52540 0.63450
loop_
_geom_bond_atom_site_label_1
_geom_bond_atom_site_label_2
_geom_bond_site_symmetry_1
_geom_bond_site_symmetry_2
Mg1 O2 1_555 1_555
F1 C4 1_555 1_555
O1 C1 1_555 1_555
O2 H7 1_555 1_555
O3 Mg1 1_555 1_555
O4 C8 1_555 1_555
C1 C2 1_555 1_555
C2 C3 1_555 1_555
C3 C4 1_555 1_555
C4 C5 1_555 1_555
C5 C6 1_555 1_555
C6 C1 1_555 1_555
C7 O1 1_555 1_555
C8 O3 1_555 1_555
O5 H9 1_555 1_555
H1 C2 1_555 1_555
H2 C3 1_555 1_555
H3 C5 1_555 1_555
H4 C6 1_555 1_555
H5 C7 1_555 1_555
H6 C7 1_555 1_555
H8 O2 1_555 1_555
H10 O5 1_555 1_555
Mg1A O4 1_555 1_555
Mg1A_2 O4B 1_555 1_555
F1B C4B 1_555 1_555
O1B C1B 1_555 1_555
O2B Mg1 1_555 1_555
O3B Mg1 1_555 1_555
O4B C8B 1_555 1_555
O4A Mg1 1_555 1_555
O4C Mg1 1_555 1_555
C1B C2B 1_555 1_555
C2B C3B 1_555 1_555
C3B C4B 1_555 1_555
C4B C5B 1_555 1_555
C5B C6B 1_555 1_555
C6B C1B 1_555 1_555
C7B O1B 1_555 1_555
C8B O3B 1_555 1_555
H1B C2B 1_555 1_555
H2B C3B 1_555 1_555
H3B C5B 1_555 1_555
H4B C6B 1_555 1_555
H5B C7B 1_555 1_555
H6B C7B 1_555 1_555
H7B O2B 1_555 1_555
H8B O2B 1_555 1_555
C7 C8 1_555 1_555
C7B C8B 1_555 1_555

#END
