
#######################################################################
#
#                 Cambridge Crystallographic Data Centre
#                                CCDC 
#
#######################################################################
#
# If this CIF has been generated from an entry in the Cambridge 
# Structural Database, then it will include bibliographic, chemical, 
# crystal, experimental, refinement or atomic coordinate data resulting 
# from the CCDC's data processing and validation procedures.
#
#######################################################################

data_QEBWAX
_symmetry_cell_setting           triclinic
_symmetry_space_group_name_H-M   'P -1'
_symmetry_Int_Tables_number      2
_space_group_name_Hall           '-P 1'
loop_
_symmetry_equiv_pos_site_id
_symmetry_equiv_pos_as_xyz
1 x,y,z
2 -x,-y,-z
_cell_length_a                   8.0583(15)
_cell_length_b                   8.4824(15)
_cell_length_c                   12.934(2)
_cell_angle_alpha                93.225(2)
_cell_angle_beta                 94.812(2)
_cell_angle_gamma                104.640(2)
_cell_volume                     849.613
loop_
_atom_site_label
_atom_site_type_symbol
_atom_site_fract_x
_atom_site_fract_y
_atom_site_fract_z
C1 C -0.1643(5) -0.0050(5) -0.5811(3)
H1 H -0.2270 -0.0137 -0.5236
C2 C -0.1310(5) -0.1487(5) -0.6247(3)
C3 C -0.0444(5) -0.1377(5) -0.7121(3)
H2 H -0.0203 -0.2302 -0.7426
C4 C 0.0077(5) 0.0126(5) -0.7558(3)
C5 C -0.0247(5) 0.1526(5) -0.7037(3)
C6 C 0.0337(6) 0.3077(6) -0.7424(4)
H3 H 0.0133 0.3995 -0.7084
C7 C 0.1193(6) 0.3232(6) -0.8289(4)
H4 H 0.1604 0.4260 -0.8527
C8 C 0.1461(6) 0.1846(6) -0.8827(4)
H5 H 0.2010 0.1959 -0.9433
C9 C 0.0927(6) 0.0338(6) -0.8471(4)
H6 H 0.1125 -0.0564 -0.8834
C10 C -0.1873(5) -0.3042(5) -0.5732(3)
C11 C -0.4490(6) 0.8739(5) -0.3354(3)
H7 H -0.3994 0.8810 -0.3979
C12 C -0.4669(5) 1.0201(5) -0.2856(3)
C13 C -0.5425(5) 1.0106(5) -0.1949(3)
H8 H -0.5586 1.1043 -0.1609
C14 C -0.5964(6) 0.8582(6) -0.1528(3)
C15 C -0.5711(5) 0.7163(5) -0.2080(4)
C16 C -0.6198(6) 0.5640(6) -0.1661(4)
H9 H -0.6048 0.4710 -0.2016
C17 C -0.6891(7) 0.5526(7) -0.0733(4)
H10 H -0.7191 0.4517 -0.0456
C18 C -0.7161(7) 0.6908(7) -0.0189(4)
H11 H -0.7641 0.6804 0.0440
C19 C -0.6723(6) 0.8391(6) -0.0579(4)
H12 H -0.6925 0.9294 -0.0219
C20 C -0.4039(6) 1.1778(5) -0.3343(4)
N1 N -0.1132(4) 0.1405(4) -0.6158(3)
N2 N -0.4967(5) 0.7289(4) -0.3006(3)
O1 O -0.2977(4) -0.3102(4) -0.5106(3)
O2 O -0.1188(4) -0.4181(4) -0.5961(2)
O3 O -0.4134(5) 1.3064(4) -0.2867(3)
O4 O -0.3435(4) 1.1679(4) -0.4198(3)
Ag1 Ag -0.20473(5) 0.35203(4) -0.51917(3)
Ag2 Ag -0.39100(5) 0.52274(4) -0.38350(3)
O1_2 O -0.2977(4) 0.6898(4) -0.5106(3)
O2_2 O -0.1188(4) 0.5819(4) -0.5961(2)
O3_2 O -0.4134(5) 0.3064(4) -0.2867(3)
O4_2 O -0.3435(4) 0.1679(4) -0.4198(3)
Ag1_2 Ag -0.20473(5) -0.64797(4) -0.51917(3)
Ag1_3 Ag -0.20473(5) 1.35203(4) -0.51917(3)
Ag2_2 Ag -0.39100(5) -0.47726(4) -0.38350(3)
Ag2_3 Ag -0.39100(5) 1.52274(4) -0.38350(3)
loop_
_geom_bond_atom_site_label_1
_geom_bond_atom_site_label_2
_geom_bond_site_symmetry_1
_geom_bond_site_symmetry_2
C1 H1 1_555 1_555
C2 C1 1_555 1_555
C3 C2 1_555 1_555
H2 C3 1_555 1_555
C4 C3 1_555 1_555
C5 C4 1_555 1_555
C6 C5 1_555 1_555
H3 C6 1_555 1_555
C7 C6 1_555 1_555
H4 C7 1_555 1_555
C8 C7 1_555 1_555
H5 C8 1_555 1_555
C9 C4 1_555 1_555
H6 C9 1_555 1_555
C10 C2 1_555 1_555
C11 H7 1_555 1_555
C12 C11 1_555 1_555
C13 C12 1_555 1_555
H8 C13 1_555 1_555
C14 C13 1_555 1_555
C15 C14 1_555 1_555
C16 C15 1_555 1_555
H9 C16 1_555 1_555
C17 C16 1_555 1_555
H10 C17 1_555 1_555
C18 C17 1_555 1_555
H11 C18 1_555 1_555
C19 C14 1_555 1_555
H12 C19 1_555 1_555
C20 C12 1_555 1_555
N1 C1 1_555 1_555
N2 C11 1_555 1_555
O1 C10 1_555 1_555
O2 C10 1_555 1_555
O3 C20 1_555 1_555
O4 C20 1_555 1_555
Ag1 N1 1_555 1_555
Ag2 N2 1_555 1_555
O1_2 Ag2 1_555 1_555
O2_2 Ag1 1_555 1_555
O3_2 Ag2 1_555 1_555
O4_2 Ag1 1_555 1_555
Ag1_2 O2 1_555 1_555
Ag1_3 O4 1_555 1_555
Ag2_2 O1 1_555 1_555
Ag2_3 O3 1_555 1_555
C5 N1 1_555 1_555
C8 C9 1_555 1_555
C15 N2 1_555 1_555
C18 C19 1_555 1_555
Ag1 Ag2 1_555 1_555
Ag1_2 Ag2_2 1_555 1_555
Ag1_3 Ag2_3 1_555 1_555

#END
