
#######################################################################
#
#                 Cambridge Crystallographic Data Centre
#                                CCDC 
#
#######################################################################
#
# If this CIF has been generated from an entry in the Cambridge 
# Structural Database, then it will include bibliographic, chemical, 
# crystal, experimental, refinement or atomic coordinate data resulting 
# from the CCDC's data processing and validation procedures.
#
#######################################################################

data_QEBYON
_symmetry_cell_setting           orthorhombic
_symmetry_space_group_name_H-M   'P m n 21'
_symmetry_Int_Tables_number      31
_space_group_name_Hall           'P 2ac -2'
loop_
_symmetry_equiv_pos_site_id
_symmetry_equiv_pos_as_xyz
1 x,y,z
2 1/2-x,-y,1/2+z
3 -x,y,z
4 1/2+x,-y,1/2+z
_cell_length_a                   13.6224(3)
_cell_length_b                   4.1923(2)
_cell_length_c                   10.2180(3)
_cell_angle_alpha                90
_cell_angle_beta                 90
_cell_angle_gamma                90
_cell_volume                     583.542
loop_
_atom_site_label
_atom_site_type_symbol
_atom_site_fract_x
_atom_site_fract_y
_atom_site_fract_z
Pb1 Pb 0.0000 -0.18621(5) -0.3757
O1 O 0.3476(4) -0.7588(13) -0.0609(5)
O2 O 0.3886(3) -0.3849(12) 0.0873(4)
N1 N 0.0870(4) -0.2738(14) -0.1444(5)
C1 C 0.1730(4) -0.4235(15) -0.1213(5)
H1 H 0.1929 -0.5925 -0.1773
C2 C 0.2338(4) -0.3352(14) -0.0165(6)
C3 C 0.2044(5) -0.0948(17) 0.0680(6)
H2 H 0.2446 -0.0323 0.1395
C4 C 0.1157(5) 0.0506(17) 0.0457(6)
H3 H 0.0926 0.2117 0.1034
C5 C 0.0596(5) -0.0403(17) -0.0627(6)
C6 C 0.3296(4) -0.5104(16) 0.0016(5)
Pb1A Pb 0.5000 -0.81379(5) 0.1243
Pb1A_2 Pb 0.5000 0.18621(5) 0.1243
Pb1A_3 Pb -0.5000 -0.81379(5) 0.1243
Pb1A_4 Pb -0.5000 0.18621(5) 0.1243
O1C O -0.1524(4) -0.2412(13) -0.5609(5)
O1A O 0.1524(4) -0.2412(13) -0.5609(5)
O1B O -0.3476(4) -0.7588(13) -0.0609(5)
O2A O 0.1114(3) 0.3849(12) -0.4127(4)
O2C O -0.1114(3) -0.6151(12) -0.4127(4)
O2C_2 O -0.1114(3) 0.3849(12) -0.4127(4)
O2A_2 O 0.1114(3) -0.6151(12) -0.4127(4)
O2B O -0.3886(3) -0.3849(12) 0.0873(4)
N1B N -0.0870(4) -0.2738(14) -0.1444(5)
C1B C -0.1730(4) -0.4235(15) -0.1213(5)
H1B H -0.1929 -0.5925 -0.1773
C2B C -0.2338(4) -0.3352(14) -0.0165(6)
C3B C -0.2044(5) -0.0948(17) 0.0680(6)
H2B H -0.2446 -0.0323 0.1395
C4B C -0.1157(5) 0.0506(17) 0.0457(6)
H3B H -0.0926 0.2117 0.1034
C5B C -0.0596(5) -0.0403(17) -0.0627(6)
C6B C -0.3296(4) -0.5104(16) 0.0016(5)
loop_
_geom_bond_atom_site_label_1
_geom_bond_atom_site_label_2
_geom_bond_site_symmetry_1
_geom_bond_site_symmetry_2
Pb1 N1 1_555 1_555
O1 C6 1_555 1_555
O2 C6 1_555 1_555
N1 C1 1_555 1_555
C1 H1 1_555 1_555
C2 C1 1_555 1_555
C3 C2 1_555 1_555
H2 C3 1_555 1_555
C4 C3 1_555 1_555
H3 C4 1_555 1_555
C5 N1 1_555 1_555
C6 C2 1_555 1_555
Pb1A O1 1_555 1_555
Pb1A_2 O2 1_555 1_555
Pb1A_3 O1B 1_555 1_555
Pb1A_4 O2B 1_555 1_555
O1C Pb1 1_555 1_555
O1A Pb1 1_555 1_555
O1B C6B 1_555 1_555
O2A Pb1 1_555 1_555
O2C Pb1 1_555 1_555
O2C_2 Pb1 1_555 1_555
O2A_2 Pb1 1_555 1_555
O2B Pb1A_3 1_555 1_555
N1B Pb1 1_555 1_555
C1B N1B 1_555 1_555
H1B C1B 1_555 1_555
C2B C1B 1_555 1_555
C3B C2B 1_555 1_555
H2B C3B 1_555 1_555
C4B C3B 1_555 1_555
H3B C4B 1_555 1_555
C5B C5 1_555 1_555
C6B O2B 1_555 1_555
O2 Pb1A 1_555 1_555
C4 C5 1_555 1_555
N1B C5B 1_555 1_555
C2B C6B 1_555 1_555
C4B C5B 1_555 1_555

#END
