
#######################################################################
#
#                 Cambridge Crystallographic Data Centre
#                                CCDC 
#
#######################################################################
#
# If this CIF has been generated from an entry in the Cambridge 
# Structural Database, then it will include bibliographic, chemical, 
# crystal, experimental, refinement or atomic coordinate data resulting 
# from the CCDC's data processing and validation procedures.
#
#######################################################################

data_QEBZII
_symmetry_cell_setting           monoclinic
_symmetry_space_group_name_H-M   'P 21/c'
_symmetry_Int_Tables_number      14
_space_group_name_Hall           '-P 2ybc'
loop_
_symmetry_equiv_pos_site_id
_symmetry_equiv_pos_as_xyz
1 x,y,z
2 -x,1/2+y,1/2-z
3 -x,-y,-z
4 x,1/2-y,1/2+z
_cell_length_a                   10.3684(2)
_cell_length_b                   15.0571(3)
_cell_length_c                   10.0976(2)
_cell_angle_alpha                90
_cell_angle_beta                 103.832(2)
_cell_angle_gamma                90
_cell_volume                     1530.7
loop_
_atom_site_label
_atom_site_type_symbol
_atom_site_fract_x
_atom_site_fract_y
_atom_site_fract_z
Ni1 Ni 0.41415(2) 0.603502(16) 0.48905(2)
C1 C 0.38923(19) 0.80038(13) 0.50209(19)
H1 H 0.3489 0.7849 0.5718
C2 C 0.4014(2) 0.88919(13) 0.4737(2)
H2 H 0.3717 0.9325 0.5251
C3 C 0.4579(2) 0.91299(13) 0.3683(2)
H3 H 0.4655 0.9725 0.3466
C4 C 0.50335(19) 0.84671(13) 0.29533(19)
C5 C 0.49098(19) 0.75896(13) 0.33264(19)
H4 H 0.5242 0.7146 0.2860
C6 C 0.1441(2) 0.62218(13) 0.5369(2)
H5 H 0.1190 0.5851 0.4614
C7 C -0.0851(2) 0.61693(15) 0.5540(3)
H6 H -0.0954 0.5838 0.4709
H7 H -0.1451 0.6665 0.5390
H8 H -0.1045 0.5793 0.6235
C8 C 0.0852(2) 0.70808(15) 0.7160(2)
H9 H 0.1524 0.7493 0.7047
H10 H 0.1179 0.6734 0.7968
H11 H 0.0074 0.7401 0.7241
N1 N 0.43323(16) 0.73532(11) 0.43310(16)
N2 N 0.55335(18) 0.86856(12) 0.18049(17)
H19 H 0.596(2) 0.9204(15) 0.190(2)
H20 H 0.600(2) 0.8292(16) 0.160(2)
N3 N 0.05143(17) 0.64924(11) 0.59758(17)
O1 O 0.26235(14) 0.64348(8) 0.57502(14)
Cl1 Cl 0.60647(5) 0.54783(3) 0.42042(5)
Cl2 Cl 0.26678(5) 0.56642(3) 0.27259(5)
Ni1C Ni 0.41415(2) 0.896498(16) -0.01095(2)
Ni1B Ni 0.58585(2) 0.396498(16) 0.51095(2)
N2C N 0.55335(18) 0.63144(12) 0.68049(17)
H19C H 0.596(2) 0.5796(15) 0.690(2)
H20C H 0.600(2) 0.6708(16) 0.660(2)
Cl1B Cl 0.39353(5) 0.45217(3) 0.57958(5)
C9 C 0.2418(2) 1.14619(14) 0.3491(3)
H12 H 0.2665 1.1173 0.2775
C10 C 0.1142(2) 1.01507(16) 0.3680(3)
H13 H 0.1512 0.9948 0.2949
H14 H 0.0196 1.0210 0.3358
H15 H 0.1338 0.9730 0.4414
C11 C 0.1376(3) 1.13771(16) 0.5363(2)
H16 H 0.1539 1.0943 0.6080
H17 H 0.0455 1.1541 0.5146
H18 H 0.1913 1.1893 0.5657
N4 N 0.17122(19) 1.10045(12) 0.41599(19)
O2 O 0.27851(16) 1.22267(10) 0.37064(17)
loop_
_geom_bond_atom_site_label_1
_geom_bond_atom_site_label_2
_geom_bond_site_symmetry_1
_geom_bond_site_symmetry_2
Ni1 N1 1_555 1_555
C1 H1 1_555 1_555
C2 C1 1_555 1_555
H2 C2 1_555 1_555
C3 C2 1_555 1_555
H3 C3 1_555 1_555
C4 C3 1_555 1_555
C5 C4 1_555 1_555
H4 C5 1_555 1_555
C6 H5 1_555 1_555
C7 H6 1_555 1_555
H7 C7 1_555 1_555
H8 C7 1_555 1_555
C8 H9 1_555 1_555
H10 C8 1_555 1_555
H11 C8 1_555 1_555
C9 H12 1_555 1_555
C10 H13 1_555 1_555
H14 C10 1_555 1_555
H15 C10 1_555 1_555
C11 H16 1_555 1_555
H17 C11 1_555 1_555
H18 C11 1_555 1_555
N1 C1 1_555 1_555
N2 C4 1_555 1_555
H19 N2 1_555 1_555
H20 N2 1_555 1_555
N3 C6 1_555 1_555
N4 C9 1_555 1_555
O1 Ni1 1_555 1_555
O2 C9 1_555 1_555
Cl1 Ni1 1_555 1_555
Cl2 Ni1 1_555 1_555
Ni1C N2 1_555 1_555
Ni1B Cl1 1_555 1_555
N2C Ni1 1_555 1_555
H19C N2C 1_555 1_555
H20C N2C 1_555 1_555
Cl1B Ni1 1_555 1_555
C5 N1 1_555 1_555
C6 O1 1_555 1_555
C7 N3 1_555 1_555
C8 N3 1_555 1_555
C10 N4 1_555 1_555
C11 N4 1_555 1_555
Ni1B Cl1B 1_555 1_555

#END
