
#######################################################################
#
#                 Cambridge Crystallographic Data Centre
#                                CCDC 
#
#######################################################################
#
# If this CIF has been generated from an entry in the Cambridge 
# Structural Database, then it will include bibliographic, chemical, 
# crystal, experimental, refinement or atomic coordinate data resulting 
# from the CCDC's data processing and validation procedures.
#
#######################################################################

data_QECCIM
_symmetry_cell_setting           monoclinic
_symmetry_space_group_name_H-M   'P 21/c'
_symmetry_Int_Tables_number      14
_space_group_name_Hall           '-P 2ybc'
loop_
_symmetry_equiv_pos_site_id
_symmetry_equiv_pos_as_xyz
1 x,y,z
2 -x,1/2+y,1/2-z
3 -x,-y,-z
4 x,1/2-y,1/2+z
_cell_length_a                   11.3910(11)
_cell_length_b                   13.0561(13)
_cell_length_c                   19.8509(18)
_cell_angle_alpha                90
_cell_angle_beta                 103.4870(10)
_cell_angle_gamma                90
_cell_volume                     2870.85
loop_
_atom_site_label
_atom_site_type_symbol
_atom_site_fract_x
_atom_site_fract_y
_atom_site_fract_z
Zn1 Zn 0.79800(4) 0.79895(4) 0.38707(2)
N1 N 0.8386(3) 0.7200(3) 0.48637(17)
N2 N 0.7735(3) 0.6396(3) 0.35719(18)
N3 N -0.0104(3) 0.7983(3) 0.38878(17)
N4 N 0.6095(3) 0.8140(3) 0.38381(17)
O1 O 0.8234(2) 0.9520(2) 0.42605(15)
H1 H 0.8747 0.9816 0.4078
H2 H 0.7603 0.9890 0.4194
O2 O 0.7743(2) 0.8506(2) 0.28439(14)
H3 H 0.7144 0.8618 0.2507
H4 H 0.8287 0.8944 0.2826
C1 C 0.8733(4) 0.7593(4) 0.5490(2)
H5 H 0.8777 0.8301 0.5541
C2 C 0.9036(5) 0.6974(6) 0.6082(3)
H6 H 0.9285 0.7271 0.6518
C3 C 0.8967(5) 0.5944(6) 0.6017(3)
H7 H 0.9166 0.5530 0.6409
C4 C 0.8602(4) 0.5505(5) 0.5369(3)
C5 C 0.8325(4) 0.6162(4) 0.4794(2)
C6 C 0.7960(4) 0.5739(4) 0.4114(2)
C7 C 0.7839(4) 0.4668(4) 0.4024(3)
C8 C 0.7443(6) 0.4308(5) 0.3349(3)
H8 H 0.7346 0.3608 0.3266
C9 C 0.7204(6) 0.4973(5) 0.2817(3)
H9 H 0.6925 0.4737 0.2366
C10 C 0.7374(4) 0.6014(4) 0.2944(3)
H10 H 0.7226 0.6461 0.2569
C11 C 0.8484(5) 0.4422(5) 0.5253(4)
H11 H 0.8674 0.3981 0.5630
C12 C 0.8109(6) 0.4029(5) 0.4618(4)
H12 H 0.8023 0.3323 0.4564
C13 C 0.0304(4) 0.7574(4) 0.3374(2)
H13 H -0.0247 0.7248 0.3019
C14 C 0.1494(4) 0.7604(4) 0.3336(2)
H14 H 0.1729 0.7300 0.2965
C15 C 0.2337(3) 0.8084(3) 0.3850(2)
C16 C 0.1911(3) 0.8501(4) 0.4388(2)
H15 H 0.2441 0.8832 0.4750
C17 C 0.0713(4) 0.8429(4) 0.4390(2)
H16 H 0.0457 0.8708 0.4762
C18 C 0.5701(3) 0.8456(3) 0.4383(2)
H17 H 0.6270 0.8680 0.4770
C19 C 0.4508(3) 0.8473(3) 0.4409(2)
H18 H 0.4284 0.8705 0.4804
C20 C 0.3639(3) 0.8139(3) 0.3839(2)
C21 C 0.4049(3) 0.7837(3) 0.3263(2)
H19 H 0.3501 0.7623 0.2864
C22 C 0.5252(3) 0.7853(3) 0.3281(2)
H20 H 0.5499 0.7655 0.2886
Zn1_2 Zn -0.20200(4) 0.79895(4) 0.38707(2)
N3_2 N 0.9896(3) 0.7983(3) 0.38878(17)
N5 N 0.6004(4) 0.9079(4) 0.1717(2)
C23 C 0.5748(6) 1.0034(5) 0.1576(3)
H21 H 0.5841 1.0487 0.1946
C24 C 0.5350(6) 1.0426(4) 0.0921(3)
H22 H 0.5182 1.1122 0.0860
C25 C 0.5200(4) 0.9801(3) 0.0361(2)
C26 C 0.5451(6) 0.8796(4) 0.0508(3)
H23 H 0.5353 0.8320 0.0151
C27 C 0.5849(6) 0.8484(5) 0.1182(3)
H24 H 0.6020 0.7792 0.1261
N5B N 0.3996(4) 1.0921(4) -0.1717(2)
C23B C 0.4252(6) 0.9966(5) -0.1576(3)
H21B H 0.4159 0.9513 -0.1946
C24B C 0.4650(6) 0.9574(4) -0.0921(3)
H22B H 0.4818 0.8878 -0.0860
C25B C 0.4800(4) 1.0199(3) -0.0361(2)
C26B C 0.4549(6) 1.1204(4) -0.0508(3)
H23B H 0.4647 1.1680 -0.0151
C27B C 0.4151(6) 1.1516(5) -0.1182(3)
H24B H 0.3980 1.2208 -0.1261
N6 N 1.0006(4) 0.0462(4) 0.3071(3)
O3 O 0.9895(4) 0.0465(3) 0.3673(2)
O4 O 1.0852(4) 0.0946(4) 0.2944(3)
O5 O 0.9290(5) 0.0019(4) 0.2633(2)
N7 N 0.3949(6) 0.6227(5) 0.1489(3)
O6 O 0.4873(5) 0.6379(5) 0.1878(3)
O7 O 0.2995(7) 0.6575(6) 0.1641(4)
O8 O 0.3835(4) 0.5724(3) 0.0954(2)
O9 O 0.3302(5) 0.0820(4) 0.4013(2)
H25 H 0.2611 0.0847 0.3736
H26 H 0.3830 0.0968 0.3789
loop_
_geom_bond_atom_site_label_1
_geom_bond_atom_site_label_2
_geom_bond_site_symmetry_1
_geom_bond_site_symmetry_2
Zn1 N1 1_555 1_555
N1 C1 1_555 1_555
N2 Zn1 1_555 1_555
N3 C13 1_555 1_555
N4 Zn1 1_555 1_555
O1 Zn1 1_555 1_555
H1 O1 1_555 1_555
H2 O1 1_555 1_555
O2 Zn1 1_555 1_555
H3 O2 1_555 1_555
H4 O2 1_555 1_555
C1 H5 1_555 1_555
C2 C1 1_555 1_555
H6 C2 1_555 1_555
C3 C2 1_555 1_555
H7 C3 1_555 1_555
C4 C3 1_555 1_555
C5 N1 1_555 1_555
C6 N2 1_555 1_555
C7 C6 1_555 1_555
C8 C7 1_555 1_555
H8 C8 1_555 1_555
C9 C8 1_555 1_555
H9 C9 1_555 1_555
C10 N2 1_555 1_555
H10 C10 1_555 1_555
C11 C4 1_555 1_555
H11 C11 1_555 1_555
C12 C7 1_555 1_555
H12 C12 1_555 1_555
C13 H13 1_555 1_555
C14 C13 1_555 1_555
H14 C14 1_555 1_555
C15 C14 1_555 1_555
C16 C15 1_555 1_555
H15 C16 1_555 1_555
C17 N3 1_555 1_555
H16 C17 1_555 1_555
C18 N4 1_555 1_555
H17 C18 1_555 1_555
C19 C18 1_555 1_555
H18 C19 1_555 1_555
C20 C15 1_555 1_555
C21 C20 1_555 1_555
H19 C21 1_555 1_555
C22 N4 1_555 1_555
H20 C22 1_555 1_555
N5 C23 1_555 1_555
C23 H21 1_555 1_555
C24 C23 1_555 1_555
H22 C24 1_555 1_555
C25 C24 1_555 1_555
C26 C25 1_555 1_555
H23 C26 1_555 1_555
C27 N5 1_555 1_555
H24 C27 1_555 1_555
N6 O3 1_555 1_555
O4 N6 1_555 1_555
O5 N6 1_555 1_555
N7 O6 1_555 1_555
O7 N7 1_555 1_555
O8 N7 1_555 1_555
O9 H25 1_555 1_555
H26 O9 1_555 1_555
Zn1_2 N3 1_555 1_555
N3_2 Zn1 1_555 1_555
N5B C23B 1_555 1_555
C23B H21B 1_555 1_555
C24B C23B 1_555 1_555
H22B C24B 1_555 1_555
C25B C25 1_555 1_555
C26B C25B 1_555 1_555
H23B C26B 1_555 1_555
C27B N5B 1_555 1_555
H24B C27B 1_555 1_555
C4 C5 1_555 1_555
C5 C6 1_555 1_555
C9 C10 1_555 1_555
C11 C12 1_555 1_555
C16 C17 1_555 1_555
C19 C20 1_555 1_555
C21 C22 1_555 1_555
C26 C27 1_555 1_555
C24B C25B 1_555 1_555
C26B C27B 1_555 1_555

#END
