
#######################################################################
#
#                 Cambridge Crystallographic Data Centre
#                                CCDC 
#
#######################################################################
#
# If this CIF has been generated from an entry in the Cambridge 
# Structural Database, then it will include bibliographic, chemical, 
# crystal, experimental, refinement or atomic coordinate data resulting 
# from the CCDC's data processing and validation procedures.
#
#######################################################################

data_QECDIN
_symmetry_cell_setting           monoclinic
_symmetry_space_group_name_H-M   'P 21/c'
_symmetry_Int_Tables_number      14
_space_group_name_Hall           '-P 2ybc'
loop_
_symmetry_equiv_pos_site_id
_symmetry_equiv_pos_as_xyz
1 x,y,z
2 -x,1/2+y,1/2-z
3 -x,-y,-z
4 x,1/2-y,1/2+z
_cell_length_a                   7.5493(10)
_cell_length_b                   6.6775(9)
_cell_length_c                   19.335(3)
_cell_angle_alpha                90
_cell_angle_beta                 92.884(2)
_cell_angle_gamma                90
_cell_volume                     973.452
loop_
_atom_site_label
_atom_site_type_symbol
_atom_site_fract_x
_atom_site_fract_y
_atom_site_fract_z
Pb1 Pb 0.29327(3) -0.20899(3) 0.782606(12)
Br1 Br 0.00888(10) 0.08548(11) 0.80760(4)
O1 O 0.5113(7) 0.0867(8) 0.7933(3)
O2 O 0.4664(8) -0.0254(8) 0.8984(3)
O3 O 0.2211(10) -0.5006(9) 0.8682(3)
H1 H 0.2481 -0.4963 0.9114
H2 H 0.1828 -0.6189 0.8608
N1 N 0.6818(7) 0.4165(8) 0.8455(3)
N2 N 0.7181(8) 0.4728(9) 0.9872(3)
C1 C 0.6189(9) 0.2822(9) 0.8890(4)
C2 C 0.6373(10) 0.3105(10) 0.9598(4)
H3 H 0.5925 0.2146 0.9891
C3 C 0.7783(9) 0.6113(9) 0.9431(4)
C4 C 0.7588(9) 0.5805(9) 0.8721(4)
H4 H 0.8006 0.6771 0.8423
C5 C 0.5250(9) 0.0994(10) 0.8587(4)
C6 C 0.8627(14) 0.7958(11) 0.9749(6)
H5 H 0.7859 0.8517 1.0079
H6 H 0.8818 0.8924 0.9392
H7 H 0.9743 0.7609 0.9977
Pb1A Pb -0.29327(3) 0.29101(3) 0.717394(12)
Pb1A_2 Pb 0.70673(3) 0.29101(3) 0.717394(12)
Br1A Br -0.00888(10) -0.41452(11) 0.69240(4)
O1A O 0.4887(7) -0.4133(8) 0.7067(3)
N1A N 0.3182(7) -0.0835(8) 0.6545(3)
loop_
_geom_bond_atom_site_label_1
_geom_bond_atom_site_label_2
_geom_bond_site_symmetry_1
_geom_bond_site_symmetry_2
Pb1 Br1 1_555 1_555
Br1 Pb1A 1_555 1_555
O1 Pb1 1_555 1_555
O2 Pb1 1_555 1_555
O3 Pb1 1_555 1_555
H1 O3 1_555 1_555
H2 O3 1_555 1_555
N1 C1 1_555 1_555
N2 C2 1_555 1_555
C1 C2 1_555 1_555
C2 H3 1_555 1_555
C3 N2 1_555 1_555
C4 N1 1_555 1_555
H4 C4 1_555 1_555
C5 O1 1_555 1_555
C6 C3 1_555 1_555
H5 C6 1_555 1_555
H6 C6 1_555 1_555
H7 C6 1_555 1_555
Pb1A_2 O1 1_555 1_555
Br1A Pb1 1_555 1_555
O1A Pb1 1_555 1_555
N1A Pb1 1_555 1_555
O2 C5 1_555 1_555
N1 Pb1A_2 1_555 1_555
C1 C5 1_555 1_555
C3 C4 1_555 1_555

#END
