
#######################################################################
#
#                 Cambridge Crystallographic Data Centre
#                                CCDC 
#
#######################################################################
#
# If this CIF has been generated from an entry in the Cambridge 
# Structural Database, then it will include bibliographic, chemical, 
# crystal, experimental, refinement or atomic coordinate data resulting 
# from the CCDC's data processing and validation procedures.
#
#######################################################################

data_QECDAF
_symmetry_cell_setting           monoclinic
_symmetry_space_group_name_H-M   'P 21/c'
_symmetry_Int_Tables_number      14
_space_group_name_Hall           '-P 2ybc'
loop_
_symmetry_equiv_pos_site_id
_symmetry_equiv_pos_as_xyz
1 x,y,z
2 -x,1/2+y,1/2-z
3 -x,-y,-z
4 x,1/2-y,1/2+z
_cell_length_a                   7.239(3)
_cell_length_b                   11.185(3)
_cell_length_c                   9.786(4)
_cell_angle_alpha                90
_cell_angle_beta                 124.27(2)
_cell_angle_gamma                90
_cell_volume                     654.797
loop_
_atom_site_label
_atom_site_type_symbol
_atom_site_fract_x
_atom_site_fract_y
_atom_site_fract_z
Li1 Li 0.7137(2) 0.01566(12) 0.50356(15)
Li2 Li 0.7135(2) 0.44875(12) 0.68236(17)
S1 S 0.89112(2) 0.276700(11) 0.483760(16)
O1 O 0.79819(8) 0.30805(4) 0.57658(6)
O2 O 0.84435(8) 0.15390(4) 0.42528(6)
N1 N 0.79993(8) 0.36662(4) 0.32836(6)
N2 N 1.16044(8) 0.30019(5) 0.59118(6)
C1 C 0.97800(9) 0.41019(5) 0.33782(7)
C2 C 1.19895(9) 0.37147(5) 0.49882(7)
O3 O 0.97919(7) 0.47482(4) 0.23492(5)
O4 O 1.38036(7) 0.40613(4) 0.52912(6)
O5 O 0.56092(8) -0.12147(4) 0.56167(6)
H1 H 0.642(3) -0.1436(15) 0.654(2)
H2 H 0.497(3) -0.1828(15) 0.504(2)
O6 O 0.64205(7) -0.06718(4) 0.30255(6)
H3 H 0.702(2) -0.1334(14) 0.3304(18)
H4 H 0.512(3) -0.0804(14) 0.2543(19)
Li1C Li 0.7137(2) 0.48434(12) 0.00356(15)
Li1B Li 0.2863(2) -0.01566(12) 0.49644(15)
Li2C Li 0.7135(2) 0.05125(12) 0.18236(17)
Li2B Li 1.2865(2) 0.55125(12) 0.31764(17)
Li2_2 Li 1.7135(2) 0.44875(12) 0.68236(17)
O2C O 0.84435(8) 0.34610(4) 0.92528(6)
O3C O 0.97919(7) 0.02518(4) 0.73492(5)
O3B O 1.02081(7) 0.52518(4) 0.76508(5)
O4_2 O 0.38036(7) 0.40613(4) 0.52912(6)
O4B O 0.61964(7) 0.59387(4) 0.47088(6)
O5B O 0.43908(8) 0.12147(4) 0.43833(6)
H1B H 0.358(3) 0.1436(15) 0.346(2)
H2B H 0.503(3) 0.1828(15) 0.496(2)
O6C O 0.64205(7) 0.56718(4) 0.80255(6)
H3C H 0.702(2) 0.6334(14) 0.8304(18)
H4C H 0.512(3) 0.5804(14) 0.7543(19)
loop_
_geom_bond_atom_site_label_1
_geom_bond_atom_site_label_2
_geom_bond_site_symmetry_1
_geom_bond_site_symmetry_2
Li1 O2 1_555 1_555
Li2 O1 1_555 1_555
S1 O1 1_555 1_555
O2 S1 1_555 1_555
N1 S1 1_555 1_555
N2 S1 1_555 1_555
C1 N1 1_555 1_555
C2 N2 1_555 1_555
O3 C1 1_555 1_555
O4 C2 1_555 1_555
O5 Li1 1_555 1_555
H1 O5 1_555 1_555
H2 O5 1_555 1_555
O6 Li1 1_555 1_555
H3 O6 1_555 1_555
H4 O6 1_555 1_555
Li1C O3 1_555 1_555
Li1B O5 1_555 1_555
Li2C O2 1_555 1_555
Li2B O3 1_555 1_555
Li2_2 O4 1_555 1_555
O2C Li2 1_555 1_555
O3C Li1 1_555 1_555
O3B Li2 1_555 1_555
O4_2 Li2 1_555 1_555
O4B Li2 1_555 1_555
O5B Li1 1_555 1_555
H1B O5B 1_555 1_555
H2B O5B 1_555 1_555
O6C Li2 1_555 1_555
H3C O6C 1_555 1_555
H4C O6C 1_555 1_555
C1 C2 1_555 1_555
O4 Li2B 1_555 1_555
O6 Li2C 1_555 1_555
Li1B O5B 1_555 1_555

#END
