
#######################################################################
#
#                 Cambridge Crystallographic Data Centre
#                                CCDC 
#
#######################################################################
#
# If this CIF has been generated from an entry in the Cambridge 
# Structural Database, then it will include bibliographic, chemical, 
# crystal, experimental, refinement or atomic coordinate data resulting 
# from the CCDC's data processing and validation procedures.
#
#######################################################################

data_QECFOV
_symmetry_cell_setting           triclinic
_symmetry_space_group_name_H-M   'P -1'
_symmetry_Int_Tables_number      2
_space_group_name_Hall           '-P 1'
loop_
_symmetry_equiv_pos_site_id
_symmetry_equiv_pos_as_xyz
1 x,y,z
2 -x,-y,-z
_cell_length_a                   9.880(2)
_cell_length_b                   10.246(2)
_cell_length_c                   11.272(2)
_cell_angle_alpha                86.29(3)
_cell_angle_beta                 71.82(3)
_cell_angle_gamma                65.32(3)
_cell_volume                     982.234
loop_
_atom_site_label
_atom_site_type_symbol
_atom_site_fract_x
_atom_site_fract_y
_atom_site_fract_z
Mn1 Mn 0.03585(3) 0.13877(2) 0.76264(2)
O1 O -0.07365(14) 0.18231(12) 0.61328(10)
O2 O 0.19967(17) -0.06467(13) 0.65855(13)
H1 H 0.235(3) -0.112(2) 0.709(2)
H2 H 0.191(3) -0.113(2) 0.610(2)
O3 O -0.20089(15) 0.27574(12) 0.47561(11)
O4 O -0.36828(15) 0.48967(13) 0.70890(11)
O5 O -0.38216(15) 0.71264(12) 0.71302(12)
H3 H -0.4697 0.7305 0.7625
O6 O -0.16064(13) -0.06578(11) 1.09959(10)
O7 O -0.32453(13) 0.16588(11) 1.15378(10)
O8 O -0.15899(14) 0.08266(12) 0.86097(10)
O9 O -0.24706(16) 0.05474(14) 0.70863(10)
H4 H -0.1745 0.0730 0.6647
N1 N -0.10378(17) 0.35804(14) 0.86211(12)
N2 N 0.19008(17) 0.25423(14) 0.69255(12)
C1 C -0.2460(2) 0.40702(19) 0.94468(16)
H5 H -0.2977 0.3468 0.9626
C2 C -0.3227(3) 0.5448(2) 1.00651(18)
H6 H -0.4231 0.5759 1.0636
C3 C -0.2453(3) 0.63274(19) 0.98044(18)
H7 H -0.2940 0.7250 1.0199
C4 C -0.0943(2) 0.58473(18) 0.89512(16)
C5 C -0.0026(3) 0.6674(2) 0.86821(19)
H8 H -0.0461 0.7597 0.9068
C6 C 0.1431(3) 0.6146(2) 0.78925(19)
H9 H 0.1996 0.6706 0.7747
C7 C 0.2162(2) 0.4723(2) 0.72534(16)
C8 C 0.3693(3) 0.4120(2) 0.64430(18)
H10 H 0.4301 0.4641 0.6276
C9 C 0.4304(2) 0.2758(2) 0.58920(19)
H11 H 0.5329 0.2340 0.5354
C10 C 0.3351(2) 0.2004(2) 0.61544(17)
H12 H 0.3762 0.1085 0.5768
C11 C 0.1296(2) 0.38922(17) 0.74896(15)
C12 C -0.0266(2) 0.44510(17) 0.83610(15)
C13 C 0.08667(19) 0.36364(16) 0.44035(14)
H13 H 0.1458 0.2719 0.3997
C14 C -0.06214(19) 0.39624(16) 0.52328(13)
C15 C -0.15027(19) 0.53453(16) 0.58379(14)
C16 C -0.39312(18) 0.02498(15) 1.04387(13)
C17 C -0.37723(18) 0.02458(15) 0.91572(14)
C18 C -0.51609(18) 0.00020(15) 1.12579(13)
H14 H -0.5277 0.0001 1.2109
C19 C -0.12121(19) 0.27874(16) 0.53878(13)
C20 C -0.3108(2) 0.57403(17) 0.67429(14)
C21 C -0.28096(18) 0.04445(16) 1.10044(13)
C22 C -0.25052(19) 0.05606(16) 0.82447(14)
Mn1A Mn -0.03585(3) 0.86123(2) 0.23736(2)
Mn1A_2 Mn -0.03585(3) -0.13877(2) 1.23736(2)
Mn1A_3 Mn -1.03585(3) -0.13877(2) 1.23736(2)
Mn1_2 Mn -0.96415(3) 0.13877(2) 0.76264(2)
O1A O 0.07365(14) 0.81769(12) 0.38672(10)
O1A_2 O -0.92635(14) -0.18231(12) 1.38672(10)
O2A O -1.19967(17) 0.06467(13) 1.34145(13)
H1A H -1.235(3) 0.112(2) 1.291(2)
H2A H -1.191(3) 0.113(2) 1.390(2)
O3A O 0.20089(15) 0.72426(12) 0.52439(11)
O4A O 0.36828(15) 0.51033(13) 0.29110(11)
O5A O 0.38216(15) 0.28736(12) 0.28698(12)
H3A H 0.4697 0.2695 0.2375
O6A O -0.83936(13) 0.06578(11) 0.90041(10)
O6A_2 O 0.16064(13) 0.06578(11) 0.90041(10)
O6_2 O -1.16064(13) -0.06578(11) 1.09959(10)
O7A O -0.67547(13) -0.16588(11) 0.84622(10)
O8A O -0.84101(14) -0.08266(12) 1.13903(10)
O9A O -0.75294(16) -0.05474(14) 1.29137(10)
H4A H -0.8255 -0.0730 1.3353
N1A N -0.89622(17) -0.35804(14) 1.13789(12)
N2A N -1.19008(17) -0.25423(14) 1.30745(12)
C1A C -0.7540(2) -0.40702(19) 1.05532(16)
H5A H -0.7023 -0.3468 1.0374
C2A C -0.6773(3) -0.5448(2) 0.99349(18)
H6A H -0.5769 -0.5759 0.9364
C3A C -0.7547(3) -0.63274(19) 1.01956(18)
H7A H -0.7060 -0.7250 0.9801
C4A C -0.9057(2) -0.58473(18) 1.10488(16)
C5A C -0.9974(3) -0.6674(2) 1.13179(19)
H8A H -0.9539 -0.7597 1.0932
C6A C -1.1431(3) -0.6146(2) 1.21075(19)
H9A H -1.1996 -0.6706 1.2253
C7A C -1.2162(2) -0.4723(2) 1.27466(16)
C8A C -1.3693(3) -0.4120(2) 1.35570(18)
H10A H -1.4301 -0.4641 1.3724
C9A C -1.4304(2) -0.2758(2) 1.41080(19)
H11A H -1.5329 -0.2340 1.4646
C10A C -1.3351(2) -0.2004(2) 1.38456(17)
H12A H -1.3762 -0.1085 1.4232
C11A C -1.1296(2) -0.38922(17) 1.25104(15)
C12A C -0.9734(2) -0.44510(17) 1.16390(15)
C13A C -0.08667(19) 0.63636(16) 0.55965(14)
H13A H -0.1458 0.7281 0.6003
C14A C 0.06214(19) 0.60376(16) 0.47672(13)
C15A C 0.15027(19) 0.46547(16) 0.41621(14)
C16A C -0.60688(18) -0.02498(15) 0.95613(13)
C17A C -0.62277(18) -0.02458(15) 1.08428(14)
C18A C -0.48391(18) -0.00020(15) 0.87421(13)
H14A H -0.4723 -0.0001 0.7891
C19A C 0.12121(19) 0.72126(16) 0.46122(13)
C20A C 0.3108(2) 0.42597(17) 0.32571(14)
C21A C -0.71904(18) -0.04445(16) 0.89956(13)
C22A C -0.74948(19) -0.05606(16) 1.17553(14)
loop_
_geom_bond_atom_site_label_1
_geom_bond_atom_site_label_2
_geom_bond_site_symmetry_1
_geom_bond_site_symmetry_2
Mn1 O1 1_555 1_555
O1 C19 1_555 1_555
O2 Mn1 1_555 1_555
H1 O2 1_555 1_555
H2 O2 1_555 1_555
O3 C19 1_555 1_555
O4 C20 1_555 1_555
O5 H3 1_555 1_555
O6 C21 1_555 1_555
O7 C21 1_555 1_555
O8 Mn1 1_555 1_555
O9 H4 1_555 1_555
N1 Mn1 1_555 1_555
N2 Mn1 1_555 1_555
C1 N1 1_555 1_555
H5 C1 1_555 1_555
C2 C1 1_555 1_555
H6 C2 1_555 1_555
C3 C2 1_555 1_555
H7 C3 1_555 1_555
C4 C3 1_555 1_555
C5 C4 1_555 1_555
H8 C5 1_555 1_555
C6 C5 1_555 1_555
H9 C6 1_555 1_555
C7 C6 1_555 1_555
C8 C7 1_555 1_555
H10 C8 1_555 1_555
C9 C8 1_555 1_555
H11 C9 1_555 1_555
C10 N2 1_555 1_555
H12 C10 1_555 1_555
C11 N2 1_555 1_555
C12 N1 1_555 1_555
C13 H13 1_555 1_555
C14 C13 1_555 1_555
C15 C14 1_555 1_555
C16 C17 1_555 1_555
C17 C22 1_555 1_555
C18 C16 1_555 1_555
H14 C18 1_555 1_555
C19 C14 1_555 1_555
C20 O5 1_555 1_555
C21 C16 1_555 1_555
C22 O8 1_555 1_555
Mn1A O1A 1_555 1_555
Mn1A_2 O6 1_555 1_555
Mn1A_3 O1A_2 1_555 1_555
Mn1_2 O6A 1_555 1_555
O1A C19A 1_555 1_555
O2A Mn1A_3 1_555 1_555
H1A O2A 1_555 1_555
H2A O2A 1_555 1_555
O3A C19A 1_555 1_555
O4A C20A 1_555 1_555
O5A H3A 1_555 1_555
O6A C21A 1_555 1_555
O6A_2 Mn1 1_555 1_555
O6_2 Mn1A_3 1_555 1_555
O7A C21A 1_555 1_555
O8A Mn1A_3 1_555 1_555
O9A H4A 1_555 1_555
N1A Mn1A_3 1_555 1_555
N2A Mn1A_3 1_555 1_555
C1A N1A 1_555 1_555
H5A C1A 1_555 1_555
C2A C1A 1_555 1_555
H6A C2A 1_555 1_555
C3A C2A 1_555 1_555
H7A C3A 1_555 1_555
C4A C3A 1_555 1_555
C5A C4A 1_555 1_555
H8A C5A 1_555 1_555
C6A C5A 1_555 1_555
H9A C6A 1_555 1_555
C7A C6A 1_555 1_555
C8A C7A 1_555 1_555
H10A C8A 1_555 1_555
C9A C8A 1_555 1_555
H11A C9A 1_555 1_555
C10A N2A 1_555 1_555
H12A C10A 1_555 1_555
C11A N2A 1_555 1_555
C12A N1A 1_555 1_555
C13A C15 1_555 1_555
H13A C13A 1_555 1_555
C14A C13A 1_555 1_555
C15A C13 1_555 1_555
C16A C17A 1_555 1_555
C17A C18 1_555 1_555
C18A C17 1_555 1_555
H14A C18A 1_555 1_555
C19A C14A 1_555 1_555
C20A O5A 1_555 1_555
C21A C16A 1_555 1_555
C22A O8A 1_555 1_555
O9 C22 1_555 1_555
C4 C12 1_555 1_555
C7 C11 1_555 1_555
C9 C10 1_555 1_555
C11 C12 1_555 1_555
C15 C20 1_555 1_555
O9A C22A 1_555 1_555
C4A C12A 1_555 1_555
C7A C11A 1_555 1_555
C9A C10A 1_555 1_555
C11A C12A 1_555 1_555
C14A C15A 1_555 1_555
C15A C20A 1_555 1_555
C16A C18A 1_555 1_555
C17A C22A 1_555 1_555

#END
