
#######################################################################
#
#                 Cambridge Crystallographic Data Centre
#                                CCDC 
#
#######################################################################
#
# If this CIF has been generated from an entry in the Cambridge 
# Structural Database, then it will include bibliographic, chemical, 
# crystal, experimental, refinement or atomic coordinate data resulting 
# from the CCDC's data processing and validation procedures.
#
#######################################################################

data_QECXEB
_symmetry_cell_setting           monoclinic
_symmetry_space_group_name_H-M   'P c'
_symmetry_Int_Tables_number      7
_space_group_name_Hall           'P -2yc'
loop_
_symmetry_equiv_pos_site_id
_symmetry_equiv_pos_as_xyz
1 x,y,z
2 x,-y,1/2+z
_cell_length_a                   7.0206(7)
_cell_length_b                   13.7308(13)
_cell_length_c                   16.9225(16)
_cell_angle_alpha                90
_cell_angle_beta                 93.133(2)
_cell_angle_gamma                90
_cell_volume                     1628.86
loop_
_atom_site_label
_atom_site_type_symbol
_atom_site_fract_x
_atom_site_fract_y
_atom_site_fract_z
Ag1 Ag 0.57743(12) 1.04209(7) 0.72584(6)
Ag2 Ag 0.24187(12) 0.97365(6) 0.81263(6)
Ag3 Ag 0.87662(13) 1.04989(7) 0.89093(5)
Ag4 Ag 0.05173(11) 0.97546(6) 0.58646(5)
Ag5 Ag 0.64482(10) 0.93137(6) 0.53488(5)
S1 S 0.3958(3) 0.92975(18) 0.63728(15)
S2 S 0.4875(4) 1.0752(2) 0.88933(15)
S3 S 0.9478(3) 1.03369(18) 0.72411(15)
S4 S -0.0941(4) 0.80339(19) 0.54728(15)
S5 S 1.0166(4) 0.9137(2) 0.96809(15)
N1 N 0.5255(11) 1.1989(7) 0.7702(5)
N2 N 0.3272(12) 0.8224(6) 0.7640(5)
N3 N 0.9694(11) 1.1829(6) 0.8220(5)
N4 N -0.1665(15) 0.7736(8) 0.7051(7)
H1 H -0.1760 0.8355 0.7118
N5 N 0.6594(12) 0.8929(6) 1.0153(5)
C1 C 0.4976(14) 1.1946(8) 0.8493(6)
C2 C 0.4893(17) 1.2790(9) 0.8941(8)
H2 H 0.4707 1.2748 0.9480
C3 C 0.5076(19) 1.3652(9) 0.8609(10)
H3 H 0.5003 1.4215 0.8912
C4 C 0.5383(16) 1.3718(9) 0.7799(8)
H4 H 0.5565 1.4316 0.7556
C5 C 0.5402(16) 1.2877(8) 0.7388(7)
H5 H 0.5526 1.2918 0.6845
C6 C 0.3630(13) 0.8171(7) 0.6882(6)
C7 C 0.3709(15) 0.7297(7) 0.6485(7)
H6 H 0.3945 0.7281 0.5950
C8 C 0.3438(17) 0.6462(8) 0.6889(8)
H7 H 0.3430 0.5866 0.6628
C9 C 0.3170(17) 0.6500(9) 0.7695(7)
H8 H 0.3075 0.5932 0.7990
C10 C 0.3053(15) 0.7384(8) 0.8038(6)
H9 H 0.2810 0.7415 0.8572
C11 C 0.9880(13) 1.1586(7) 0.7451(6)
C12 C 0.9986(15) 1.2756(8) 0.8414(7)
H10 H 0.9868 1.2929 0.8941
C13 C 1.0452(16) 1.3487(8) 0.7892(7)
H11 H 1.0640 1.4125 0.8063
C14 C 1.0625(16) 1.3235(9) 0.7123(8)
H12 H 1.0930 1.3702 0.6752
C15 C 1.0338(14) 1.2264(8) 0.6896(6)
H13 H 1.0457 1.2079 0.6372
C16 C -0.1322(13) 0.7381(7) 0.6305(6)
C17 C -0.1274(14) 0.6373(7) 0.6257(7)
H14 H -0.1078 0.6097 0.5766
C18 C -0.149(2) 0.5780(9) 0.6857(10)
H15 H -0.1424 0.5111 0.6778
C19 C -0.1796(19) 0.6128(11) 0.7586(10)
H16 H -0.1962 0.5709 0.8008
C20 C -0.1858(17) 0.7128(11) 0.7682(7)
H17 H -0.2032 0.7389 0.8180
C21 C 0.8130(15) 0.8480(7) 0.9889(6)
C22 C 0.5004(18) 0.8420(10) 1.0298(8)
H18 H 0.3949 0.8757 1.0465
C23 C 0.487(2) 0.7425(10) 1.0211(8)
H19 H 0.3763 0.7092 1.0315
C24 C 0.648(3) 0.6936(9) 0.9958(9)
H20 H 0.6443 0.6264 0.9888
C25 C 0.811(2) 0.7444(8) 0.9814(7)
H21 H 0.9198 0.7116 0.9668
S3_2 S -0.0522(3) 1.03369(18) 0.72411(15)
Ag5A Ag 0.64482(10) 1.06863(6) 1.03488(5)
Ag5_2 Ag -0.35518(10) 0.93137(6) 0.53488(5)
S5A S 0.0166(4) 1.0863(2) 0.46809(15)
Ag3A Ag 0.87662(13) 0.95011(7) 0.39093(5)
Ag4_2 Ag 1.05173(11) 0.97546(6) 0.58646(5)
S2A S 0.4875(4) 0.9248(2) 0.38933(15)
S4_2 S 0.9059(4) 0.80339(19) 0.54728(15)
N5A N 0.6594(12) 1.1071(6) 0.5153(5)
Ag2_2 Ag 1.24187(12) 0.97365(6) 0.81263(6)
Ag4A Ag 1.05173(11) 1.02454(6) 1.08646(5)
B1 B 0.130(3) 0.5057(16) 0.9930(13)
F1 F 0.150(2) 0.5587(11) 0.9287(10)
F2 F -0.062(4) 0.479(2) 0.9929(17)
F3 F 0.208(3) 0.4196(14) 0.9967(12)
F4 F 0.132(3) 0.5611(15) 1.0548(13)
loop_
_geom_bond_atom_site_label_1
_geom_bond_atom_site_label_2
_geom_bond_site_symmetry_1
_geom_bond_site_symmetry_2
Ag1 Ag2 1_555 1_555
Ag2 S2 1_555 1_555
Ag3 S5 1_555 1_555
Ag4 S1 1_555 1_555
Ag5 S1 1_555 1_555
S1 Ag1 1_555 1_555
S2 C1 1_555 1_555
S3 Ag1 1_555 1_555
S4 Ag4 1_555 1_555
S5 C21 1_555 1_555
N1 Ag1 1_555 1_555
N2 Ag2 1_555 1_555
N3 Ag3 1_555 1_555
N4 H1 1_555 1_555
N5 C21 1_555 1_555
C1 N1 1_555 1_555
C2 C1 1_555 1_555
H2 C2 1_555 1_555
C3 C2 1_555 1_555
H3 C3 1_555 1_555
C4 C3 1_555 1_555
H4 C4 1_555 1_555
C5 N1 1_555 1_555
H5 C5 1_555 1_555
C6 S1 1_555 1_555
C7 C6 1_555 1_555
H6 C7 1_555 1_555
C8 C7 1_555 1_555
H7 C8 1_555 1_555
C9 C8 1_555 1_555
H8 C9 1_555 1_555
C10 N2 1_555 1_555
H9 C10 1_555 1_555
C11 S3 1_555 1_555
C12 N3 1_555 1_555
H10 C12 1_555 1_555
C13 C12 1_555 1_555
H11 C13 1_555 1_555
C14 C13 1_555 1_555
H12 C14 1_555 1_555
C15 C11 1_555 1_555
H13 C15 1_555 1_555
C16 S4 1_555 1_555
C17 C16 1_555 1_555
H14 C17 1_555 1_555
C18 C17 1_555 1_555
H15 C18 1_555 1_555
C19 C18 1_555 1_555
H16 C19 1_555 1_555
C20 N4 1_555 1_555
H17 C20 1_555 1_555
C21 C25 1_555 1_555
C22 N5 1_555 1_555
H18 C22 1_555 1_555
C23 C22 1_555 1_555
H19 C23 1_555 1_555
C24 C23 1_555 1_555
H20 C24 1_555 1_555
C25 C24 1_555 1_555
H21 C25 1_555 1_555
B1 F1 1_555 1_555
F2 B1 1_555 1_555
F3 B1 1_555 1_555
F4 B1 1_555 1_555
S3_2 Ag2 1_555 1_555
Ag5A Ag3 1_555 1_555
Ag5_2 Ag4 1_555 1_555
S5A Ag4 1_555 1_555
Ag3A Ag5 1_555 1_555
Ag4_2 Ag5 1_555 1_555
S2A Ag5 1_555 1_555
S4_2 Ag5 1_555 1_555
N5A Ag5 1_555 1_555
Ag2_2 S3 1_555 1_555
Ag4A S5 1_555 1_555
Ag4 S3_2 1_555 1_555
S2 Ag5A 1_555 1_555
S3 Ag4_2 1_555 1_555
S4 Ag5_2 1_555 1_555
N2 C6 1_555 1_555
N3 C11 1_555 1_555
N4 C16 1_555 1_555
N5 Ag5A 1_555 1_555
C4 C5 1_555 1_555
C9 C10 1_555 1_555
C14 C15 1_555 1_555
C19 C20 1_555 1_555
Ag5A Ag4A 1_555 1_555
Ag4_2 S4_2 1_555 1_555

#END
