
#######################################################################
#
#                 Cambridge Crystallographic Data Centre
#                                CCDC 
#
#######################################################################
#
# If this CIF has been generated from an entry in the Cambridge 
# Structural Database, then it will include bibliographic, chemical, 
# crystal, experimental, refinement or atomic coordinate data resulting 
# from the CCDC's data processing and validation procedures.
#
#######################################################################

data_QECZUT
_symmetry_cell_setting           monoclinic
_symmetry_space_group_name_H-M   'P 21/n'
_symmetry_Int_Tables_number      14
_space_group_name_Hall           '-P 2yn'
loop_
_symmetry_equiv_pos_site_id
_symmetry_equiv_pos_as_xyz
1 x,y,z
2 1/2+x,1/2-y,1/2+z
3 -x,-y,-z
4 1/2-x,1/2+y,1/2-z
_cell_length_a                   6.1411(8)
_cell_length_b                   36.618(5)
_cell_length_c                   13.486(2)
_cell_angle_alpha                90
_cell_angle_beta                 100.599(3)
_cell_angle_gamma                90
_cell_volume                     2980.92
loop_
_atom_site_label
_atom_site_type_symbol
_atom_site_fract_x
_atom_site_fract_y
_atom_site_fract_z
Ag1 Ag 0.48205(6) 0.084530(10) 0.76924(3)
Ag2 Ag 1.24869(6) 0.004670(9) 0.56351(3)
S1 S 0.8118(2) 0.01011(3) 0.70305(8)
O1 O 1.0457(5) 0.00786(9) 0.7026(2)
O2 O 0.6705(5) 0.00720(8) 0.6047(2)
O3 O 0.7509(6) 0.03881(10) 0.7661(2)
C1 C 0.7513(8) -0.03167(14) 0.7670(4)
F1 F 0.8528(5) -0.03124(9) 0.8632(2)
F2 F 0.8129(6) -0.06093(8) 0.7220(2)
F3 F 0.5336(5) -0.03380(11) 0.7674(2)
S2 S 1.2317(2) -0.08787(3) 0.52145(8)
O4 O 1.1287(6) -0.05668(8) 0.5606(2)
O5 O 1.1233(5) -0.09881(9) 0.4217(2)
O6 O 1.4704(5) -0.08736(9) 0.5367(2)
C2 C 1.1712(7) -0.12513(13) 0.6010(3)
F4 F 0.9539(5) -0.13168(9) 0.5867(2)
F5 F 1.2396(5) -0.11812(9) 0.6978(2)
F6 F 1.2697(6) -0.15584(8) 0.5789(2)
O7 O 0.2951(5) 0.06759(8) 0.6075(2)
H1 H 0.3739(5) 0.07918(8) 0.5579(2)
H2 H 0.1457(5) 0.07867(8) 0.5977(2)
C3 C 0.3320(7) 0.18319(11) 0.9456(3)
C4 C 0.3124(7) 0.15715(11) 1.0123(3)
C5 C 0.2337(7) 0.17016(11) 1.1058(3)
C6 C 0.3855(7) 0.20088(12) 1.1607(3)
H3 H 0.5355(7) 0.19111(12) 1.1902(3)
C7 C 0.4026(7) 0.23258(12) 1.0835(3)
H4 H 0.5615(7) 0.23815(12) 1.0823(3)
C8 C 0.2786(7) 0.22117(11) 0.9750(3)
C9 C 0.0402(6) 0.22323(11) 1.0010(3)
H5 H -0.0748(6) 0.21936(11) 0.9390(3)
C10 C 0.0183(6) 0.19387(12) 1.0825(3)
H6 H -0.1136(6) 0.17799(12) 1.0589(3)
C11 C 0.3240(7) 0.24925(11) 0.8964(3)
H7 H 0.3184(50) 0.27395(12) 0.9238(9)
H8 H 0.2115(30) 0.2469(6) 0.8349(9)
H9 H 0.4711(21) 0.2448(5) 0.8803(17)
C12 C 0.2046(7) 0.13753(12) 1.1741(3)
H10 H 0.1374(45) 0.1459(2) 1.2305(12)
H11 H 0.3496(9) 0.1266(5) 1.2002(18)
H12 H 0.1084(40) 0.1193(4) 1.1350(6)
C13 C 0.3931(7) 0.17407(11) 0.8458(3)
C14 C 0.5976(7) 0.15764(12) 0.8395(3)
H13 H 0.7046(7) 0.15417(12) 0.8993(3)
C15 C 0.6455(7) 0.14639(11) 0.7471(3)
H14 H 0.7854(7) 0.13591(11) 0.7437(3)
C16 C 0.4851(7) 0.15066(12) 0.6590(3)
H15 H 0.5145(7) 0.14258(12) 0.5959(3)
C17 C 0.2838(7) 0.16676(12) 0.6650(3)
H16 H 0.1760(7) 0.17007(12) 0.6055(3)
C18 C 0.2384(7) 0.17807(11) 0.7571(3)
H17 H 0.0987(7) 0.18878(11) 0.7597(3)
C19 C 0.2767(7) 0.26799(12) 1.0988(3)
H18 H 0.3499(7) 0.28937(12) 1.0742(3)
H19 H 0.2723(7) 0.27163(12) 1.1711(3)
C20 C 0.0381(7) 0.26312(12) 1.0368(3)
H20 H -0.0750(7) 0.26692(12) 1.0795(3)
H21 H 0.0097(7) 0.28020(12) 0.9789(3)
C21 C 0.3630(7) 0.11820(11) 0.9952(3)
C22 C 0.5571(7) 0.10217(12) 1.0453(3)
H22 H 0.6498(7) 0.11538(12) 1.0973(3)
C23 C 0.6190(8) 0.06730(14) 1.0213(4)
H23 H 0.7549(8) 0.05727(14) 1.0555(4)
C24 C 0.4849(10) 0.04708(14) 0.9480(4)
H24 H 0.5293(10) 0.02346(14) 0.9304(4)
C25 C 0.2810(9) 0.06193(14) 0.8995(4)
H25 H 0.1835(9) 0.04789(14) 0.8512(4)
C26 C 0.2229(8) 0.09756(13) 0.9229(3)
H26 H 0.0869(8) 0.10775(13) 0.8893(3)
C27 C 0.2566(7) 0.21143(13) 1.2443(3)
H27 H 0.2961(7) 0.23635(13) 1.2699(3)
H28 H 0.2861(7) 0.19397(13) 1.3013(3)
C28 C 0.0107(7) 0.20952(12) 1.1898(3)
H29 H -0.0575(7) 0.23410(12) 1.1848(3)
H30 H -0.0757(7) 0.19325(12) 1.2267(3)
Ag2B Ag 0.75131(6) -0.004670(9) 0.43649(3)
O2_2 O 1.6705(5) 0.00720(8) 0.6047(2)
O2B O 1.3295(5) -0.00720(8) 0.3953(2)
O7_2 O 1.2951(5) 0.06759(8) 0.6075(2)
Ag2_2 Ag 0.24869(6) 0.004670(9) 0.56351(3)
loop_
_geom_bond_atom_site_label_1
_geom_bond_atom_site_label_2
_geom_bond_site_symmetry_1
_geom_bond_site_symmetry_2
Ag1 O3 1_555 1_555
Ag2 O1 1_555 1_555
S1 O1 1_555 1_555
O2 S1 1_555 1_555
O3 S1 1_555 1_555
C1 S1 1_555 1_555
F1 C1 1_555 1_555
F2 C1 1_555 1_555
F3 C1 1_555 1_555
S2 O4 1_555 1_555
O4 Ag2 1_555 1_555
O5 S2 1_555 1_555
O6 S2 1_555 1_555
C2 S2 1_555 1_555
F4 C2 1_555 1_555
F5 C2 1_555 1_555
F6 C2 1_555 1_555
O7 Ag1 1_555 1_555
H1 O7 1_555 1_555
H2 O7 1_555 1_555
C3 C4 1_555 1_555
C4 C5 1_555 1_555
C5 C6 1_555 1_555
C6 H3 1_555 1_555
C7 C6 1_555 1_555
H4 C7 1_555 1_555
C8 C3 1_555 1_555
C9 C8 1_555 1_555
H5 C9 1_555 1_555
C10 C5 1_555 1_555
H6 C10 1_555 1_555
C11 C8 1_555 1_555
H7 C11 1_555 1_555
H8 C11 1_555 1_555
H9 C11 1_555 1_555
C12 C5 1_555 1_555
H10 C12 1_555 1_555
H11 C12 1_555 1_555
H12 C12 1_555 1_555
C13 C3 1_555 1_555
C14 C13 1_555 1_555
H13 C14 1_555 1_555
C15 Ag1 1_555 1_555
H14 C15 1_555 1_555
C16 C15 1_555 1_555
H15 C16 1_555 1_555
C17 C16 1_555 1_555
H16 C17 1_555 1_555
C18 C13 1_555 1_555
H17 C18 1_555 1_555
C19 C7 1_555 1_555
H18 C19 1_555 1_555
H19 C19 1_555 1_555
C20 C9 1_555 1_555
H20 C20 1_555 1_555
H21 C20 1_555 1_555
C21 C4 1_555 1_555
C22 C21 1_555 1_555
H22 C22 1_555 1_555
C23 C22 1_555 1_555
H23 C23 1_555 1_555
C24 C23 1_555 1_555
H24 C24 1_555 1_555
C25 Ag1 1_555 1_555
H25 C25 1_555 1_555
C26 C21 1_555 1_555
H26 C26 1_555 1_555
C27 C6 1_555 1_555
H27 C27 1_555 1_555
H28 C27 1_555 1_555
C28 C10 1_555 1_555
H29 C28 1_555 1_555
H30 C28 1_555 1_555
Ag2B Ag2 1_555 1_555
O2_2 Ag2 1_555 1_555
O2B Ag2 1_555 1_555
O7_2 Ag2 1_555 1_555
Ag2_2 O2 1_555 1_555
O2 Ag2B 1_555 1_555
O7 Ag2_2 1_555 1_555
C7 C8 1_555 1_555
C9 C10 1_555 1_555
C14 C15 1_555 1_555
C17 C18 1_555 1_555
C19 C20 1_555 1_555
C24 C25 1_555 1_555
C25 C26 1_555 1_555
C27 C28 1_555 1_555

#END
