
#######################################################################
#
#                 Cambridge Crystallographic Data Centre
#                                CCDC 
#
#######################################################################
#
# If this CIF has been generated from an entry in the Cambridge 
# Structural Database, then it will include bibliographic, chemical, 
# crystal, experimental, refinement or atomic coordinate data resulting 
# from the CCDC's data processing and validation procedures.
#
#######################################################################

data_QEDDAE
_symmetry_cell_setting           triclinic
_symmetry_space_group_name_H-M   'P -1'
_symmetry_Int_Tables_number      2
_space_group_name_Hall           '-P 1'
loop_
_symmetry_equiv_pos_site_id
_symmetry_equiv_pos_as_xyz
1 x,y,z
2 -x,-y,-z
_cell_length_a                   8.570(5)
_cell_length_b                   9.135(5)
_cell_length_c                   11.871(5)
_cell_angle_alpha                67.555(5)
_cell_angle_beta                 88.810(5)
_cell_angle_gamma                63.899(5)
_cell_volume                     759.12
loop_
_atom_site_label
_atom_site_type_symbol
_atom_site_fract_x
_atom_site_fract_y
_atom_site_fract_z
Rh1 Rh 0.48254(8) 0.48683(9) -0.09571(5)
O1 O 0.2168(7) 0.6022(7) -0.0990(5)
O2 O 0.2493(7) 0.6262(7) 0.0804(5)
O3 O 0.5042(7) 0.2404(7) 0.0081(5)
O4 O 0.5369(7) 0.2655(7) 0.1868(4)
N1 N 0.4463(9) 0.4640(9) -0.2692(6)
N2 N 0.3388(8) 0.4268(9) -0.4446(5)
F1 F -0.1201(7) 0.7078(8) -0.0938(5)
F2 F -0.0944(8) 0.9162(8) -0.0687(7)
F3 F -0.0837(7) 0.6927(9) 0.0869(5)
F4 F 0.4840(8) -0.0135(7) 0.2999(5)
F5 F 0.4823(9) -0.0561(8) 0.1387(6)
F6 F 0.7243(8) -0.1152(8) 0.2339(6)
C1 C 0.1645(10) 0.6449(10) -0.0126(7)
C2 C -0.0360(11) 0.7402(13) -0.0209(8)
C3 C 0.5273(10) 0.1868(11) 0.1224(7)
C4 C 0.5526(11) -0.0005(11) 0.1964(7)
C5 C 0.3865(10) 0.4534(10) -0.3504(7)
C6 C 0.1735(9) 0.4656(10) -0.4700(6)
C7 C 0.1297(10) 0.4181(10) -0.5650(6)
C8 C 0.0360(10) 0.5491(10) -0.4080(6)
H1 H 0.0642 0.5803 -0.3483
C9 C 0.2743(11) 0.3265(12) -0.6243(8)
H2 H 0.3831 0.3145 -0.5920
H3 H 0.2461 0.3963 -0.7123
H4 H 0.2866 0.2099 -0.6067
C8A C -0.0360(10) 0.4509(10) -0.5920(6)
C6A C -0.1735(9) 0.5344(10) -0.5300(6)
N2A N -0.3388(8) 0.5732(9) -0.5554(5)
C5A C -0.3865(10) 0.5466(10) -0.6496(7)
N1A N -0.4463(9) 0.5360(9) -0.7308(6)
C7A C -0.1297(10) 0.5819(10) -0.4350(6)
C9A C -0.2743(11) 0.6735(12) -0.3757(8)
H2A H -0.3831 0.6855 -0.4080
H3A H -0.2461 0.6037 -0.2877
H4A H -0.2866 0.7901 -0.3933
H1A H -0.0642 0.4197 -0.6517
O1A O 0.7832(7) 0.3978(7) 0.0990(5)
O2A O 0.7507(7) 0.3738(7) -0.0804(5)
F1A F 1.1201(7) 0.2922(8) 0.0938(5)
F2A F 1.0944(8) 0.0838(8) 0.0687(7)
F3A F 1.0837(7) 0.3073(9) -0.0869(5)
C1A C 0.8355(10) 0.3551(10) 0.0126(7)
C2A C 1.0360(11) 0.2598(13) 0.0209(8)
O3A O 0.4958(7) 0.7596(7) -0.0081(5)
O4A O 0.4631(7) 0.7345(7) -0.1868(4)
F4A F 0.5160(8) 1.0135(7) -0.2999(5)
F5A F 0.5177(9) 1.0561(8) -0.1387(6)
F6A F 0.2757(8) 1.1152(8) -0.2339(6)
C3A C 0.4727(10) 0.8132(11) -0.1224(7)
C4A C 0.4474(11) 1.0005(11) -0.1964(7)
Rh1A Rh 0.51746(8) 0.51317(9) 0.09571(5)
Rh1A_2 Rh -0.48254(8) 0.51317(9) -0.90429(5)
N1A_2 N 0.5537(9) 0.5360(9) 0.2692(6)
C10 C 0.9551(17) 0.0111(16) 0.3856(10)
H5 H 0.9264 0.0181 0.3079
C11 C 0.8270(14) 0.0700(15) 0.4489(11)
H6 H 0.7094 0.1173 0.4151
C12 C 1.1306(14) -0.0604(15) 0.4373(10)
H7 H 1.2196 -0.1018 0.3941
C12A C 0.8694(14) 0.0604(15) 0.5627(10)
C10A C 1.0449(17) -0.0111(16) 0.6144(10)
H5A H 1.0736 -0.0181 0.6921
C11A C 1.1730(14) -0.0700(15) 0.5511(11)
H6A H 1.2906 -0.1173 0.5849
H7A H 0.7804 0.1018 0.6059
loop_
_geom_bond_atom_site_label_1
_geom_bond_atom_site_label_2
_geom_bond_site_symmetry_1
_geom_bond_site_symmetry_2
Rh1 O1 1_555 1_555
O1 C1 1_555 1_555
O2 C1 1_555 1_555
O3 Rh1 1_555 1_555
O4 C3 1_555 1_555
N1 Rh1 1_555 1_555
N2 C5 1_555 1_555
F1 C2 1_555 1_555
F2 C2 1_555 1_555
F3 C2 1_555 1_555
F4 C4 1_555 1_555
F5 C4 1_555 1_555
F6 C4 1_555 1_555
C1 C2 1_555 1_555
C3 O3 1_555 1_555
C4 C3 1_555 1_555
C5 N1 1_555 1_555
C6 N2 1_555 1_555
C7 C6 1_555 1_555
C8 C6 1_555 1_555
H1 C8 1_555 1_555
C9 C7 1_555 1_555
H2 C9 1_555 1_555
H3 C9 1_555 1_555
H4 C9 1_555 1_555
C10 H5 1_555 1_555
C11 C10 1_555 1_555
H6 C11 1_555 1_555
C12 C10 1_555 1_555
H7 C12 1_555 1_555
C8A C7 1_555 1_555
C6A C8A 1_555 1_555
N2A C6A 1_555 1_555
C5A N2A 1_555 1_555
N1A C5A 1_555 1_555
C7A C8 1_555 1_555
C9A C7A 1_555 1_555
H2A C9A 1_555 1_555
H3A C9A 1_555 1_555
H4A C9A 1_555 1_555
H1A C8A 1_555 1_555
C12A C11 1_555 1_555
C10A C12A 1_555 1_555
H5A C10A 1_555 1_555
C11A C12 1_555 1_555
H6A C11A 1_555 1_555
H7A C12A 1_555 1_555
O1A C1A 1_555 1_555
O2A Rh1 1_555 1_555
F1A C2A 1_555 1_555
F2A C2A 1_555 1_555
F3A C2A 1_555 1_555
C1A O2A 1_555 1_555
C2A C1A 1_555 1_555
O3A C3A 1_555 1_555
O4A Rh1 1_555 1_555
F4A C4A 1_555 1_555
F5A C4A 1_555 1_555
F6A C4A 1_555 1_555
C3A O4A 1_555 1_555
C4A C3A 1_555 1_555
Rh1A Rh1 1_555 1_555
Rh1A_2 N1A 1_555 1_555
N1A_2 Rh1A 1_555 1_555
O2 Rh1A 1_555 1_555
O4 Rh1A 1_555 1_555
C6A C7A 1_555 1_555
C10A C11A 1_555 1_555
O1A Rh1A 1_555 1_555
O3A Rh1A 1_555 1_555

#END
