
#######################################################################
#
#                 Cambridge Crystallographic Data Centre
#                                CCDC 
#
#######################################################################
#
# If this CIF has been generated from an entry in the Cambridge 
# Structural Database, then it will include bibliographic, chemical, 
# crystal, experimental, refinement or atomic coordinate data resulting 
# from the CCDC's data processing and validation procedures.
#
#######################################################################

data_QEDKUF
_symmetry_cell_setting           triclinic
_symmetry_space_group_name_H-M   'P -1'
_symmetry_Int_Tables_number      2
_space_group_name_Hall           '-P 1'
loop_
_symmetry_equiv_pos_site_id
_symmetry_equiv_pos_as_xyz
1 x,y,z
2 -x,-y,-z
_cell_length_a                   8.8547(16)
_cell_length_b                   9.8709(16)
_cell_length_c                   14.718(3)
_cell_angle_alpha                92.620(3)
_cell_angle_beta                 95.352(3)
_cell_angle_gamma                113.621(3)
_cell_volume                     1168.61
loop_
_atom_site_label
_atom_site_type_symbol
_atom_site_fract_x
_atom_site_fract_y
_atom_site_fract_z
Tb1 Tb 0.52999(2) 0.756719(16) 0.489569(12)
O1 O 0.3739(3) 0.5330(2) 0.40971(18)
C1 C 0.1671(4) 0.3844(3) 0.2919(2)
O2 O 0.2820(3) 0.2900(2) 0.40991(17)
C2 C 0.1854(5) 0.5047(4) 0.2410(3)
H1 H 0.2696 0.5976 0.2598
O3 O 0.5334(3) 0.9272(2) 0.60090(16)
C3 C 0.0787(7) 0.4852(6) 0.1632(3)
H2 H 0.0918 0.5653 0.1290
O4 O 0.4836(3) 1.1220(2) 0.64136(17)
C4 C -0.0461(7) 0.3504(6) 0.1352(3)
H3 H -0.1180 0.3392 0.0824
O5 O 0.7015(3) 0.7060(2) 0.38693(17)
C5 C -0.0665(6) 0.2308(5) 0.1843(3)
H4 H -0.1520 0.1387 0.1649
O6 O 0.9080(3) 0.9144(3) 0.36032(18)
C6 C 0.0405(5) 0.2475(4) 0.2631(3)
H5 H 0.0270 0.1666 0.2965
C7 C 0.2825(4) 0.4049(3) 0.3761(2)
O7 O 0.2583(3) 0.7664(3) 0.4739(2)
H6 H 0.256(5) 0.835(4) 0.484(3)
O8 O 0.3629(3) 0.5995(3) 0.60076(19)
H7 H 0.359(5) 0.529(4) 0.607(3)
C8 C 0.5840(4) 1.0115(3) 0.7571(2)
O9 O 0.7952(4) 0.9809(3) 0.5054(2)
H8 H 0.845(4) 0.978(4) 0.469(2)
H9 H 0.855(5) 0.977(4) 0.554(3)
C9 C 0.6522(5) 0.9114(4) 0.7804(3)
H10 H 0.6630 0.8488 0.7347
C10 C 0.7038(6) 0.9038(5) 0.8698(3)
H11 H 0.7499 0.8367 0.8846
C11 C 0.6878(6) 0.9934(6) 0.9366(3)
H12 H 0.7214 0.9863 0.9974
C12 C 0.6229(6) 1.0943(5) 0.9166(3)
H13 H 0.6144 1.1564 0.9634
C13 C 0.5698(5) 1.1045(4) 0.8264(3)
H14 H 0.5252 1.1729 0.8125
C14 C 0.5308(4) 1.0209(3) 0.6601(2)
C15 C 0.7798(5) 0.7293(4) 0.2374(3)
C16 C 0.8959(6) 0.8028(5) 0.1808(3)
H15 H 0.9860 0.8902 0.2035
C17 C 0.8807(6) 0.7490(6) 0.0914(3)
H16 H 0.9601 0.7998 0.0539
C18 C 0.7503(7) 0.6219(6) 0.0578(3)
H17 H 0.7404 0.5844 -0.0026
C19 C 0.6323(6) 0.5484(5) 0.1132(3)
H18 H 0.5419 0.4616 0.0898
C20 C 0.6468(5) 0.6018(4) 0.2020(3)
H19 H 0.5661 0.5515 0.2389
C21 C 0.7982(5) 0.7882(4) 0.3349(3)
C22 C 0.0992(5) 0.6721(4) 0.4354(3)
H20 H 0.0818 0.6925 0.3731
H21 H 0.0195 0.6875 0.4696
H22 H 0.0864 0.5709 0.4368
C23 C 0.2675(5) 0.6323(4) 0.6636(3)
H23 H 0.3381 0.6833 0.7189
H24 H 0.1817 0.5416 0.6776
H25 H 0.2180 0.6941 0.6370
O2A O 0.7180(3) 0.7100(2) 0.59009(17)
O4A O 0.5164(3) 0.8780(2) 0.35864(17)
Tb1A Tb 0.47001(2) 0.243281(16) 0.510431(12)
Tb1A_2 Tb 0.47001(2) 1.243281(16) 0.510431(12)
loop_
_geom_bond_atom_site_label_1
_geom_bond_atom_site_label_2
_geom_bond_site_symmetry_1
_geom_bond_site_symmetry_2
Tb1 O1 1_555 1_555
O1 C7 1_555 1_555
C1 C2 1_555 1_555
O2 C7 1_555 1_555
C2 H1 1_555 1_555
O3 Tb1 1_555 1_555
C3 C2 1_555 1_555
H2 C3 1_555 1_555
O4 C14 1_555 1_555
C4 C3 1_555 1_555
H3 C4 1_555 1_555
O5 Tb1 1_555 1_555
C5 C4 1_555 1_555
H4 C5 1_555 1_555
O6 C21 1_555 1_555
C6 C1 1_555 1_555
H5 C6 1_555 1_555
C7 C1 1_555 1_555
O7 Tb1 1_555 1_555
H6 O7 1_555 1_555
O8 Tb1 1_555 1_555
H7 O8 1_555 1_555
C8 C9 1_555 1_555
O9 Tb1 1_555 1_555
H8 O9 1_555 1_555
H9 O9 1_555 1_555
C9 H10 1_555 1_555
C10 C9 1_555 1_555
H11 C10 1_555 1_555
C11 C10 1_555 1_555
H12 C11 1_555 1_555
C12 C11 1_555 1_555
H13 C12 1_555 1_555
C13 C8 1_555 1_555
H14 C13 1_555 1_555
C14 O3 1_555 1_555
C15 C16 1_555 1_555
C16 H15 1_555 1_555
C17 C16 1_555 1_555
H16 C17 1_555 1_555
C18 C17 1_555 1_555
H17 C18 1_555 1_555
C19 C18 1_555 1_555
H18 C19 1_555 1_555
C20 C15 1_555 1_555
H19 C20 1_555 1_555
C21 O5 1_555 1_555
C22 O7 1_555 1_555
H20 C22 1_555 1_555
H21 C22 1_555 1_555
H22 C22 1_555 1_555
C23 O8 1_555 1_555
H23 C23 1_555 1_555
H24 C23 1_555 1_555
H25 C23 1_555 1_555
O2A Tb1 1_555 1_555
O4A Tb1 1_555 1_555
Tb1A O2 1_555 1_555
Tb1A_2 O4 1_555 1_555
C5 C6 1_555 1_555
C8 C14 1_555 1_555
C12 C13 1_555 1_555
C15 C21 1_555 1_555
C19 C20 1_555 1_555

#END
