
#######################################################################
#
#                 Cambridge Crystallographic Data Centre
#                                CCDC 
#
#######################################################################
#
# If this CIF has been generated from an entry in the Cambridge 
# Structural Database, then it will include bibliographic, chemical, 
# crystal, experimental, refinement or atomic coordinate data resulting 
# from the CCDC's data processing and validation procedures.
#
#######################################################################

data_QEDLAM
_symmetry_cell_setting           monoclinic
_symmetry_space_group_name_H-M   'C 2/c'
_symmetry_Int_Tables_number      15
_space_group_name_Hall           '-C 2yn'
loop_
_symmetry_equiv_pos_site_id
_symmetry_equiv_pos_as_xyz
1 x,y,z
2 1/2+x,1/2+y,z
3 x,-y,1/2+z
4 1/2+x,1/2-y,1/2+z
5 -x,-y,-z
6 1/2-x,1/2-y,-z
7 -x,y,1/2-z
8 1/2-x,1/2+y,1/2-z
_cell_length_a                   16.2103(14)
_cell_length_b                   17.7707(16)
_cell_length_c                   17.6211(13)
_cell_angle_alpha                90.00
_cell_angle_beta                 108.247(2)
_cell_angle_gamma                90.00
_cell_volume                     4820.83
loop_
_atom_site_label
_atom_site_type_symbol
_atom_site_fract_x
_atom_site_fract_y
_atom_site_fract_z
Tb1 Tb -0.03780(2) -0.04840(2) 0.345281(18)
N1 N -0.1279(5) -0.1353(4) 0.4101(3)
O1 O -0.0257(3) -0.1687(3) 0.3019(3)
C1 C 0.0000 -0.2022(6) 0.2500
O2 O -0.1820(3) -0.0401(3) 0.2568(3)
C2 C 0.0000 -0.2837(8) 0.2500
O3 O -0.0920(3) -0.0442(3) 0.1879(3)
C3 C -0.0044(10) -0.3219(7) 0.3134(8)
H1 H -0.0110 -0.2963 0.3572
O4 O -0.0940(3) 0.0254(3) 0.4230(3)
C4 C 0.001(3) -0.3998(11) 0.3145(19)
H2 H 0.0053 -0.4265 0.3610
O5 O -0.0589(3) 0.0829(3) 0.5383(3)
C5 C 0.0000 -0.4350(19) 0.2500
H3 H 0.0000 -0.4873 0.2500
O6 O -0.0208(3) 0.0742(3) 0.3048(3)
C6 C -0.1664(6) -0.0324(4) 0.1926(4)
C7 C -0.2376(6) -0.0077(6) 0.1207(5)
C8 C -0.3091(11) 0.0106(18) 0.1307(9)
H4 H -0.3155 0.0053 0.1811
C9 C -0.3817(18) 0.040(2) 0.0653(14)
H5 H -0.4316 0.0558 0.0757
C10 C -0.3778(11) 0.0438(15) -0.0125(12)
H6 H -0.4229 0.0621 -0.0553
C11 C -0.3063(10) 0.0199(7) -0.0188(6)
H7 H -0.2994 0.0188 -0.0692
C12 C -0.2357(7) -0.0053(7) 0.0483(6)
H8 H -0.1851 -0.0210 0.0387
C13 C -0.0993(5) 0.0802(5) 0.4649(4)
C14 C -0.1545(5) 0.1448(5) 0.4279(5)
C15 C -0.2118(6) 0.1387(6) 0.3527(6)
H9 H -0.2169 0.0941 0.3239
C16 C -0.2622(9) 0.2011(10) 0.3203(7)
H10 H -0.3029 0.1980 0.2697
C17 C -0.2528(11) 0.2639(9) 0.3603(10)
H11 H -0.2873 0.3046 0.3366
C18 C -0.1963(10) 0.2730(8) 0.4333(8)
H12 H -0.1908 0.3188 0.4600
C19 C -0.1465(7) 0.2116(6) 0.4674(6)
H13 H -0.1066 0.2159 0.5183
C20 C -0.1915(8) -0.1754(6) 0.3689(5)
H14 H -0.2046 -0.1745 0.3136
C21 C -0.2425(8) -0.2203(6) 0.4008(5)
H15 H -0.2898 -0.2462 0.3673
C22 C -0.2227(6) -0.2261(5) 0.4819(4)
C23 C -0.1573(6) -0.1831(5) 0.5236(5)
H16 H -0.1426 -0.1824 0.5791
C24 C -0.1112(6) -0.1401(6) 0.4873(4)
H17 H -0.0649 -0.1123 0.5196
C25 C 0.0000 0.1059(7) 0.2500
C26 C 0.0000 0.1910(6) 0.2500
C27 C -0.0349(7) 0.2302(6) 0.2981(5)
H18 H -0.0587 0.2043 0.3321
C28 C -0.0360(9) 0.3079(6) 0.2979(7)
H19 H -0.0615 0.3336 0.3307
C29 C 0.0000 0.3468(10) 0.2500
H20 H 0.0000 0.3991 0.2500
C22E C -0.2773(6) -0.2739(5) 0.5181(4)
C21E C -0.2575(8) -0.2797(6) 0.5992(5)
C20E C -0.3085(8) -0.3246(6) 0.6311(5)
N1E N -0.3721(5) -0.3647(4) 0.5899(3)
C24E C -0.3888(6) -0.3599(6) 0.5127(4)
C23E C -0.3427(6) -0.3169(5) 0.4764(5)
H16E H -0.3574 -0.3176 0.4209
H17E H -0.4351 -0.3877 0.4804
H14E H -0.2954 -0.3255 0.6864
H15E H -0.2102 -0.2538 0.6327
O1F O 0.0257(3) -0.1687(3) 0.1981(3)
C4F C -0.001(3) -0.3998(11) 0.1855(19)
C3F C 0.0044(10) -0.3219(7) 0.1866(8)
H1F H 0.0110 -0.2963 0.1428
H2F H -0.0053 -0.4265 0.1390
O6F O 0.0208(3) 0.0742(3) 0.1952(3)
C28F C 0.0360(9) 0.3079(6) 0.2021(7)
C27F C 0.0349(7) 0.2302(6) 0.2019(5)
H18F H 0.0587 0.2043 0.1679
H19F H 0.0615 0.3336 0.1693
O2F O 0.1820(3) -0.0401(3) 0.2432(3)
O3F O 0.0920(3) -0.0442(3) 0.3121(3)
C6F C 0.1664(6) -0.0324(4) 0.3074(4)
C7F C 0.2376(6) -0.0077(6) 0.3793(5)
C8F C 0.3091(11) 0.0106(18) 0.3693(9)
H4F H 0.3155 0.0053 0.3189
C9F C 0.3817(18) 0.040(2) 0.4347(14)
H5F H 0.4316 0.0558 0.4243
C10F C 0.3778(11) 0.0438(15) 0.5125(12)
H6F H 0.4229 0.0621 0.5553
C11F C 0.3063(10) 0.0199(7) 0.5188(6)
H7F H 0.2994 0.0188 0.5692
C12F C 0.2357(7) -0.0053(7) 0.4517(6)
H8F H 0.1851 -0.0210 0.4613
O4D O 0.0940(3) -0.0254(3) 0.5770(3)
O5D O 0.0589(3) -0.0829(3) 0.4617(3)
C13D C 0.0993(5) -0.0802(5) 0.5351(4)
C14D C 0.1545(5) -0.1448(5) 0.5721(5)
C15D C 0.2118(6) -0.1387(6) 0.6473(6)
H9D H 0.2169 -0.0941 0.6761
C16D C 0.2622(9) -0.2011(10) 0.6797(7)
H10D H 0.3029 -0.1980 0.7303
C17D C 0.2528(11) -0.2639(9) 0.6397(10)
H11D H 0.2873 -0.3046 0.6634
C18D C 0.1963(10) -0.2730(8) 0.5667(8)
H12D H 0.1908 -0.3188 0.5400
C19D C 0.1465(7) -0.2116(6) 0.5326(6)
H13D H 0.1066 -0.2159 0.4817
Tb1E Tb -0.46220(2) -0.45160(2) 0.654719(18)
Tb1F Tb 0.03780(2) -0.04840(2) 0.154719(18)
Tb1D Tb 0.03780(2) 0.04840(2) 0.654719(18)
O1E O -0.4743(3) -0.3313(3) 0.6981(3)
O2E O -0.3180(3) -0.4599(3) 0.7432(3)
O3C O -0.5920(3) -0.4558(3) 0.6879(3)
O3E O -0.4080(3) -0.4558(3) 0.8121(3)
O4E O -0.4060(3) -0.5254(3) 0.5770(3)
O5A O -0.5589(3) -0.4171(3) 0.5383(3)
O6E O -0.4792(3) -0.5742(3) 0.6952(3)
loop_
_geom_bond_atom_site_label_1
_geom_bond_atom_site_label_2
_geom_bond_site_symmetry_1
_geom_bond_site_symmetry_2
Tb1 N1 1_555 1_555
N1 C20 1_555 1_555
O1 Tb1 1_555 1_555
C1 O1 1_555 1_555
O2 Tb1 1_555 1_555
C2 C1 1_555 1_555
O3 Tb1 1_555 1_555
C3 C2 1_555 1_555
H1 C3 1_555 1_555
O4 Tb1 1_555 1_555
C4 C3 1_555 1_555
H2 C4 1_555 1_555
O5 C13 1_555 1_555
C5 C4 1_555 1_555
H3 C5 1_555 1_555
O6 Tb1 1_555 1_555
C6 O2 1_555 1_555
C7 C6 1_555 1_555
C8 C7 1_555 1_555
H4 C8 1_555 1_555
C9 C8 1_555 1_555
H5 C9 1_555 1_555
C10 C9 1_555 1_555
H6 C10 1_555 1_555
C11 C10 1_555 1_555
H7 C11 1_555 1_555
C12 C7 1_555 1_555
H8 C12 1_555 1_555
C13 O4 1_555 1_555
C14 C13 1_555 1_555
C15 C14 1_555 1_555
H9 C15 1_555 1_555
C16 C15 1_555 1_555
H10 C16 1_555 1_555
C17 C16 1_555 1_555
H11 C17 1_555 1_555
C18 C17 1_555 1_555
H12 C18 1_555 1_555
C19 C14 1_555 1_555
H13 C19 1_555 1_555
C20 H14 1_555 1_555
C21 C20 1_555 1_555
H15 C21 1_555 1_555
C22 C21 1_555 1_555
C23 C22 1_555 1_555
H16 C23 1_555 1_555
C24 N1 1_555 1_555
H17 C24 1_555 1_555
C25 O6 1_555 1_555
C26 C25 1_555 1_555
C27 C26 1_555 1_555
H18 C27 1_555 1_555
C28 C27 1_555 1_555
H19 C28 1_555 1_555
C29 C28 1_555 1_555
H20 C29 1_555 1_555
C22E C22 1_555 1_555
C21E C22E 1_555 1_555
C20E C21E 1_555 1_555
N1E C20E 1_555 1_555
C24E N1E 1_555 1_555
C23E C22E 1_555 1_555
H16E C23E 1_555 1_555
H17E C24E 1_555 1_555
H14E C20E 1_555 1_555
H15E C21E 1_555 1_555
O1F C1 1_555 1_555
C4F C5 1_555 1_555
C3F C2 1_555 1_555
H1F C3F 1_555 1_555
H2F C4F 1_555 1_555
O6F C25 1_555 1_555
C28F C29 1_555 1_555
C27F C26 1_555 1_555
H18F C27F 1_555 1_555
H19F C28F 1_555 1_555
O2F C6F 1_555 1_555
O3F Tb1 1_555 1_555
C6F O3F 1_555 1_555
C7F C6F 1_555 1_555
C8F C7F 1_555 1_555
H4F C8F 1_555 1_555
C9F C8F 1_555 1_555
H5F C9F 1_555 1_555
C10F C9F 1_555 1_555
H6F C10F 1_555 1_555
C11F C10F 1_555 1_555
H7F C11F 1_555 1_555
C12F C7F 1_555 1_555
H8F C12F 1_555 1_555
O4D C13D 1_555 1_555
O5D Tb1 1_555 1_555
C13D O5D 1_555 1_555
C14D C13D 1_555 1_555
C15D C14D 1_555 1_555
H9D C15D 1_555 1_555
C16D C15D 1_555 1_555
H10D C16D 1_555 1_555
C17D C16D 1_555 1_555
H11D C17D 1_555 1_555
C18D C17D 1_555 1_555
H12D C18D 1_555 1_555
C19D C14D 1_555 1_555
H13D C19D 1_555 1_555
Tb1E N1E 1_555 1_555
Tb1F O3 1_555 1_555
Tb1D O5 1_555 1_555
O1E Tb1E 1_555 1_555
O2E Tb1E 1_555 1_555
O3C Tb1E 1_555 1_555
O3E Tb1E 1_555 1_555
O4E Tb1E 1_555 1_555
O5A Tb1E 1_555 1_555
O6E Tb1E 1_555 1_555
O3 C6 1_555 1_555
C11 C12 1_555 1_555
C18 C19 1_555 1_555
C23 C24 1_555 1_555
C24E C23E 1_555 1_555
O1F Tb1F 1_555 1_555
C4F C3F 1_555 1_555
O6F Tb1F 1_555 1_555
C28F C27F 1_555 1_555
O2F Tb1F 1_555 1_555
O3F Tb1F 1_555 1_555
C11F C12F 1_555 1_555
O4D Tb1D 1_555 1_555
C18D C19D 1_555 1_555

#END
