
#######################################################################
#
#                 Cambridge Crystallographic Data Centre
#                                CCDC 
#
#######################################################################
#
# If this CIF has been generated from an entry in the Cambridge 
# Structural Database, then it will include bibliographic, chemical, 
# crystal, experimental, refinement or atomic coordinate data resulting 
# from the CCDC's data processing and validation procedures.
#
#######################################################################

data_QEDZEG
_symmetry_cell_setting           monoclinic
_symmetry_space_group_name_H-M   'C 2/c'
_symmetry_Int_Tables_number      15
_space_group_name_Hall           '-C 2yn'
loop_
_symmetry_equiv_pos_site_id
_symmetry_equiv_pos_as_xyz
1 x,y,z
2 1/2+x,1/2+y,z
3 -x,y,1/2-z
4 1/2-x,1/2+y,1/2-z
5 -x,-y,-z
6 1/2-x,1/2-y,-z
7 x,-y,1/2+z
8 1/2+x,1/2-y,1/2+z
_cell_length_a                   31.97(4)
_cell_length_b                   6.334(9)
_cell_length_c                   20.49(3)
_cell_angle_alpha                90
_cell_angle_beta                 120.078(13)
_cell_angle_gamma                90
_cell_volume                     3590.47
loop_
_atom_site_label
_atom_site_type_symbol
_atom_site_fract_x
_atom_site_fract_y
_atom_site_fract_z
Zn1 Zn -0.02347(5) 0.2488(3) -0.01248(9)
O1 O 0.0220(3) 0.2817(14) 0.0926(5)
O2 O 0.0183(3) 0.8033(17) 0.4462(5)
O3 O 0.0667(4) 0.5489(15) 0.0837(6)
O4 O 0.0703(3) 1.0568(15) 0.5143(5)
C1 C 0.1316(5) 0.519(2) 0.2385(9)
H1 H 0.1302 0.6465 0.2130
C2 C 0.1662(5) 0.499(3) 0.3115(8)
H2 H 0.1874 0.6137 0.3369
C3 C 0.1377(6) 0.143(3) 0.3082(10)
H3 H 0.1395 0.0096 0.3306
C4 C 0.1010(6) 0.178(3) 0.2320(9)
H4 H 0.0786 0.0688 0.2047
C5 C 0.2089(5) 0.272(2) 0.4258(8)
C6 C 0.0879(6) 0.564(3) 0.4385(9)
H5 H 0.0563 0.5054 0.4148
C7 C 0.0595(5) 0.401(2) 0.1195(9)
C8 C 0.0979(5) 0.363(3) 0.1987(8)
C9 C 0.0604(5) 0.887(2) 0.4773(7)
C10 C 0.1708(4) 0.527(3) 0.4778(7)
C11 C 0.1263(5) 0.460(2) 0.4441(8)
H6 H 0.1203 0.3241 0.4213
C12 C 0.0984(5) 0.768(3) 0.4709(9)
C13 C 0.1711(4) 0.301(3) 0.3513(8)
C14 C 0.2468(6) 0.139(3) 0.4409(8)
H7 H 0.2458 0.0636 0.4002
C15 C 0.2134(5) 0.390(2) 0.4868(7)
C16 C 0.1450(5) 0.853(3) 0.5063(8)
H8 H 0.1509 0.9914 0.5272
C17 C 0.1807(5) 0.738(2) 0.5102(8)
H9 H 0.2127 0.7921 0.5342
Zn1E Zn 0.52347(5) 0.2512(3) 1.01248(9)
Zn1F Zn -0.02347(5) 0.7512(3) 0.48752(9)
Zn1D Zn 0.02347(5) 0.7512(3) 0.01248(9)
Zn1B Zn 0.02347(5) 1.2488(3) 0.51248(9)
Zn1A Zn 0.47653(5) -0.2512(3) 0.98752(9)
Zn1C Zn 0.52347(5) -0.2512(3) 0.51248(9)
Zn1G Zn 0.47653(5) -0.7488(3) 0.48752(9)
O1E O 0.4780(3) 0.2183(14) 0.9074(5)
O2E O 0.4817(3) -0.3033(17) 0.5538(5)
O2F O 0.0183(3) 0.1967(17) -0.0538(5)
O2C O 0.4817(3) 0.3033(17) 1.0538(5)
O3E O 0.4333(4) -0.0489(15) 0.9163(6)
O3D O -0.0667(4) 0.4511(15) -0.0837(6)
O3A O 0.5667(4) 0.0489(15) 1.0837(6)
O4E O 0.4297(3) -0.5568(15) 0.4857(5)
O4B O -0.0703(3) 0.0568(15) -0.0143(5)
O4G O 0.5703(3) 0.4432(15) 1.0143(5)
C1E C 0.3684(5) -0.019(2) 0.7615(9)
H1E H 0.3698 -0.1465 0.7870
C2E C 0.3338(5) 0.001(3) 0.6885(8)
H2E H 0.3126 -0.1137 0.6631
C3E C 0.3623(6) 0.357(3) 0.6918(10)
H3E H 0.3605 0.4904 0.6694
C4E C 0.3990(6) 0.322(3) 0.7680(9)
H4E H 0.4214 0.4312 0.7953
C5E C 0.2911(5) 0.228(2) 0.5742(8)
C6E C 0.4121(6) -0.064(3) 0.5615(9)
H5E H 0.4437 -0.0054 0.5852
C7E C 0.4405(5) 0.099(2) 0.8805(9)
C8E C 0.4021(5) 0.137(3) 0.8013(8)
C9E C 0.4396(5) -0.387(2) 0.5227(7)
C10E C 0.3292(4) -0.027(3) 0.5222(7)
C11E C 0.3737(5) 0.040(2) 0.5559(8)
H6E H 0.3797 0.1759 0.5787
C12E C 0.4016(5) -0.268(3) 0.5291(9)
C13E C 0.3289(4) 0.199(3) 0.6487(8)
C14E C 0.2532(6) 0.361(3) 0.5591(8)
H7E H 0.2542 0.4364 0.5998
C15E C 0.2866(5) 0.110(2) 0.5132(7)
C16E C 0.3550(5) -0.353(3) 0.4937(8)
H8E H 0.3491 -0.4914 0.4728
C17E C 0.3193(5) -0.238(2) 0.4898(8)
H9E H 0.2873 -0.2921 0.4658
loop_
_geom_bond_atom_site_label_1
_geom_bond_atom_site_label_2
_geom_bond_site_symmetry_1
_geom_bond_site_symmetry_2
Zn1 O1 1_555 1_555
O1 C7 1_555 1_555
O2 C9 1_555 1_555
O3 C7 1_555 1_555
O4 C9 1_555 1_555
C1 H1 1_555 1_555
C2 C1 1_555 1_555
H2 C2 1_555 1_555
C3 H3 1_555 1_555
C4 C3 1_555 1_555
H4 C4 1_555 1_555
C5 C13 1_555 1_555
C6 H5 1_555 1_555
C7 C8 1_555 1_555
C8 C1 1_555 1_555
C9 C12 1_555 1_555
C10 C11 1_555 1_555
C11 C6 1_555 1_555
H6 C11 1_555 1_555
C12 C6 1_555 1_555
C13 C2 1_555 1_555
C14 C5 1_555 1_555
H7 C14 1_555 1_555
C15 C5 1_555 1_555
C16 C12 1_555 1_555
H8 C16 1_555 1_555
C17 C10 1_555 1_555
H9 C17 1_555 1_555
Zn1E O1E 1_555 1_555
Zn1F O2 1_555 1_555
Zn1D O3 1_555 1_555
Zn1B O4 1_555 1_555
Zn1A O3E 1_555 1_555
Zn1C O2E 1_555 1_555
Zn1G O4E 1_555 1_555
O1E C7E 1_555 1_555
O2E C9E 1_555 1_555
O2F Zn1 1_555 1_555
O2C Zn1E 1_555 1_555
O3E C7E 1_555 1_555
O3D Zn1 1_555 1_555
O3A Zn1E 1_555 1_555
O4E C9E 1_555 1_555
O4B Zn1 1_555 1_555
O4G Zn1E 1_555 1_555
C1E H1E 1_555 1_555
C2E C1E 1_555 1_555
H2E C2E 1_555 1_555
C3E H3E 1_555 1_555
C4E C3E 1_555 1_555
H4E C4E 1_555 1_555
C5E C13E 1_555 1_555
C6E H5E 1_555 1_555
C7E C8E 1_555 1_555
C8E C1E 1_555 1_555
C9E C12E 1_555 1_555
C10E C11E 1_555 1_555
C11E C6E 1_555 1_555
H6E C11E 1_555 1_555
C12E C6E 1_555 1_555
C13E C2E 1_555 1_555
C14E C15 1_555 1_555
H7E C14E 1_555 1_555
C15E C14 1_555 1_555
C16E C12E 1_555 1_555
H8E C16E 1_555 1_555
C17E C10E 1_555 1_555
H9E C17E 1_555 1_555
C3 C13 1_555 1_555
C4 C8 1_555 1_555
C10 C15 1_555 1_555
C16 C17 1_555 1_555
C3E C13E 1_555 1_555
C4E C8E 1_555 1_555
C5E C14E 1_555 1_555
C5E C15E 1_555 1_555
C10E C15E 1_555 1_555
C16E C17E 1_555 1_555

#END
