
#######################################################################
#
#                 Cambridge Crystallographic Data Centre
#                                CCDC 
#
#######################################################################
#
# If this CIF has been generated from an entry in the Cambridge 
# Structural Database, then it will include bibliographic, chemical, 
# crystal, experimental, refinement or atomic coordinate data resulting 
# from the CCDC's data processing and validation procedures.
#
#######################################################################

data_QEDZIK
_symmetry_cell_setting           monoclinic
_symmetry_space_group_name_H-M   'C 2/c'
_symmetry_Int_Tables_number      15
_space_group_name_Hall           '-C 2yn'
loop_
_symmetry_equiv_pos_site_id
_symmetry_equiv_pos_as_xyz
1 x,y,z
2 -x,y,1/2-z
3 1/2+x,1/2+y,z
4 1/2-x,1/2+y,1/2-z
5 -x,-y,-z
6 x,-y,1/2+z
7 1/2-x,1/2-y,-z
8 1/2+x,1/2-y,1/2+z
_cell_length_a                   16.731(2)
_cell_length_b                   9.9396(6)
_cell_length_c                   29.731(4)
_cell_angle_alpha                90
_cell_angle_beta                 94.60(1)
_cell_angle_gamma                90
_cell_volume                     4928.32
loop_
_atom_site_label
_atom_site_type_symbol
_atom_site_fract_x
_atom_site_fract_y
_atom_site_fract_z
Co1 Co 0.5000 0.68905(4) 0.7500
S1 S 0.39816(5) 0.19005(5) 0.60271(2)
N1 N 0.46655(15) 0.53565(17) 0.70001(7)
N2 N 0.46605(13) -0.15374(17) 0.70116(6)
O1 O 0.38293(12) 0.6859(2) 0.76949(7)
C1 C 0.51571(18) 0.4290(2) 0.69539(10)
H1 H 0.5642 0.4259 0.7129
C2 C 0.49684(19) 0.3252(2) 0.66579(10)
H2 H 0.5325 0.2543 0.6633
C3 C 0.42529(19) 0.3270(2) 0.64009(8)
C4 C 0.37428(17) 0.4364(2) 0.64328(8)
H3 H 0.3259 0.4420 0.6256
C5 C 0.39838(18) 0.5374(2) 0.67392(8)
H4 H 0.3645 0.6108 0.6762
C6 C 0.42404(17) 0.0550(2) 0.64067(8)
C7 C 0.47221(18) -0.0501(2) 0.62874(8)
H5 H 0.4916 -0.0524 0.6003
C8 C 0.49126(18) -0.1513(2) 0.65941(8)
H6 H 0.5233 -0.2217 0.6507
C9 C 0.41779(18) -0.0520(2) 0.71200(9)
H7 H 0.3989 -0.0521 0.7406
C10 C 0.39507(18) 0.0513(2) 0.68329(9)
H8 H 0.3608 0.1182 0.6921
H17 H 0.3506(19) 0.618(3) 0.7684(10)
H18 H 0.360(2) 0.752(3) 0.7797(10)
Co1_2 Co 0.5000 -0.31095(4) 0.7500
S1A S 0.60184(5) 0.19005(5) 0.89729(2)
N1A N 0.53345(15) 0.53565(17) 0.79999(7)
N2A N 0.53395(13) -0.15374(17) 0.79884(6)
N2_2 N 0.46605(13) 0.84626(17) 0.70116(6)
N2A_2 N 0.53395(13) 0.84626(17) 0.79884(6)
O1A O 0.61707(12) 0.6859(2) 0.73051(7)
C1A C 0.48429(18) 0.4290(2) 0.80461(10)
H1A H 0.4358 0.4259 0.7871
C2A C 0.50316(19) 0.3252(2) 0.83421(10)
H2A H 0.4675 0.2543 0.8367
C3A C 0.57471(19) 0.3270(2) 0.85991(8)
C4A C 0.62572(17) 0.4364(2) 0.85672(8)
H3A H 0.6741 0.4420 0.8744
C5A C 0.60162(18) 0.5374(2) 0.82608(8)
H4A H 0.6355 0.6108 0.8238
C6A C 0.57596(17) 0.0550(2) 0.85933(8)
C7A C 0.52779(18) -0.0501(2) 0.87126(8)
H5A H 0.5084 -0.0524 0.8997
C8A C 0.50874(18) -0.1513(2) 0.84059(8)
H6A H 0.4767 -0.2217 0.8493
C9A C 0.58221(18) -0.0520(2) 0.78800(9)
H7A H 0.6011 -0.0521 0.7594
C10A C 0.60493(18) 0.0513(2) 0.81671(9)
H8A H 0.6392 0.1182 0.8079
H17A H 0.6494(19) 0.618(3) 0.7316(10)
H18A H 0.640(2) 0.752(3) 0.7203(10)
S2 S 0.36092(8) 0.46697(7) 0.52467(2)
N3 N 0.32696(18) 0.2464(2) 0.39070(8)
N4 N 0.3932(2) 0.9217(2) 0.51352(11)
C11 C 0.3732(2) 0.6426(3) 0.51687(9)
C12 C 0.4281(2) 0.7003(3) 0.49057(11)
H9 H 0.4598 0.6469 0.4735
C13 C 0.4355(3) 0.8376(3) 0.49002(13)
H10 H 0.4726 0.8745 0.4719
C14 C 0.3419(2) 0.8646(3) 0.53892(13)
H11 H 0.3124 0.9209 0.5563
C15 C 0.3281(2) 0.7270(3) 0.54177(10)
H12 H 0.2900 0.6929 0.5598
C16 C 0.35077(19) 0.3915(2) 0.47104(8)
C17 C 0.3496(2) 0.2511(3) 0.47062(9)
H13 H 0.3570 0.2030 0.4975
C18 C 0.3374(2) 0.1851(3) 0.43028(10)
H14 H 0.3364 0.0916 0.4307
C19 C 0.3277(2) 0.3816(3) 0.39128(10)
H15 H 0.3198 0.4266 0.3639
C20 C 0.3396(2) 0.4579(3) 0.43010(9)
H16 H 0.3400 0.5513 0.4287
N5 N 0.6996(2) 0.2065(3) 0.65099(10)
O2 O 0.6798(2) 0.1724(2) 0.68840(9)
O3 O 0.6937(2) 0.1284(3) 0.61961(9)
O4 O 0.7264(2) 0.3192(2) 0.64656(11)
O5 O 0.7096(2) 0.4640(3) 0.73211(13)
H19 H 0.718(3) 0.408(5) 0.7139(17)
H20 H 0.712(3) 0.420(3) 0.7530(14)
O6 O 0.69079(16) 0.8908(3) 0.69088(7)
H21 H 0.683(2) 0.972(4) 0.6864(12)
H22 H 0.689(2) 0.855(3) 0.6692(10)
loop_
_geom_bond_atom_site_label_1
_geom_bond_atom_site_label_2
_geom_bond_site_symmetry_1
_geom_bond_site_symmetry_2
Co1 N1 1_555 1_555
S1 C3 1_555 1_555
S2 C11 1_555 1_555
N1 C1 1_555 1_555
N2 C8 1_555 1_555
N3 C18 1_555 1_555
N4 C13 1_555 1_555
N5 O2 1_555 1_555
O1 Co1 1_555 1_555
O3 N5 1_555 1_555
O4 N5 1_555 1_555
O5 H19 1_555 1_555
O6 H21 1_555 1_555
C1 H1 1_555 1_555
C2 C1 1_555 1_555
H2 C2 1_555 1_555
C3 C2 1_555 1_555
C4 C3 1_555 1_555
H3 C4 1_555 1_555
C5 N1 1_555 1_555
H4 C5 1_555 1_555
C6 S1 1_555 1_555
C7 C6 1_555 1_555
H5 C7 1_555 1_555
C8 C7 1_555 1_555
H6 C8 1_555 1_555
C9 N2 1_555 1_555
H7 C9 1_555 1_555
C10 C6 1_555 1_555
H8 C10 1_555 1_555
C11 C12 1_555 1_555
C12 H9 1_555 1_555
C13 C12 1_555 1_555
H10 C13 1_555 1_555
C14 N4 1_555 1_555
H11 C14 1_555 1_555
C15 C11 1_555 1_555
H12 C15 1_555 1_555
C16 S2 1_555 1_555
C17 C16 1_555 1_555
H13 C17 1_555 1_555
C18 C17 1_555 1_555
H14 C18 1_555 1_555
C19 N3 1_555 1_555
H15 C19 1_555 1_555
C20 C16 1_555 1_555
H16 C20 1_555 1_555
H17 O1 1_555 1_555
H18 O1 1_555 1_555
H20 O5 1_555 1_555
H22 O6 1_555 1_555
Co1_2 N2 1_555 1_555
S1A C3A 1_555 1_555
N1A Co1 1_555 1_555
N2A Co1_2 1_555 1_555
N2_2 Co1 1_555 1_555
N2A_2 Co1 1_555 1_555
O1A Co1 1_555 1_555
C1A N1A 1_555 1_555
H1A C1A 1_555 1_555
C2A C1A 1_555 1_555
H2A C2A 1_555 1_555
C3A C2A 1_555 1_555
C4A C3A 1_555 1_555
H3A C4A 1_555 1_555
C5A N1A 1_555 1_555
H4A C5A 1_555 1_555
C6A S1A 1_555 1_555
C7A C6A 1_555 1_555
H5A C7A 1_555 1_555
C8A N2A 1_555 1_555
H6A C8A 1_555 1_555
C9A N2A 1_555 1_555
H7A C9A 1_555 1_555
C10A C6A 1_555 1_555
H8A C10A 1_555 1_555
H17A O1A 1_555 1_555
H18A O1A 1_555 1_555
C4 C5 1_555 1_555
C9 C10 1_555 1_555
C14 C15 1_555 1_555
C19 C20 1_555 1_555
C4A C5A 1_555 1_555
C7A C8A 1_555 1_555
C9A C10A 1_555 1_555

#END
