
#######################################################################
#
#                 Cambridge Crystallographic Data Centre
#                                CCDC 
#
#######################################################################
#
# If this CIF has been generated from an entry in the Cambridge 
# Structural Database, then it will include bibliographic, chemical, 
# crystal, experimental, refinement or atomic coordinate data resulting 
# from the CCDC's data processing and validation procedures.
#
#######################################################################

data_QEFHOA
_symmetry_cell_setting           monoclinic
_symmetry_space_group_name_H-M   'C 2/c'
_symmetry_Int_Tables_number      15
_space_group_name_Hall           '-C 2yn'
loop_
_symmetry_equiv_pos_site_id
_symmetry_equiv_pos_as_xyz
1 x,y,z
2 -x,y,1/2-z
3 1/2+x,1/2+y,z
4 1/2-x,1/2+y,1/2-z
5 -x,-y,-z
6 x,-y,1/2+z
7 1/2-x,1/2-y,-z
8 1/2+x,1/2-y,1/2+z
_cell_length_a                   15.2304(15)
_cell_length_b                   5.1706(2)
_cell_length_c                   13.3116(16)
_cell_angle_alpha                90
_cell_angle_beta                 125.558(16)
_cell_angle_gamma                90
_cell_volume                     852.815
loop_
_atom_site_label
_atom_site_type_symbol
_atom_site_fract_x
_atom_site_fract_y
_atom_site_fract_z
Ag1 Ag 0.45683(5) 0.79781(11) 0.04270(6)
S1 S 1.0000 0.4817(4) 0.2500
O1 O 0.7013(4) 0.9756(8) 0.1035(5)
O2 O 0.5986(4) 0.6247(9) 0.0455(5)
C1 C 0.7846(5) 0.5640(12) 0.1401(7)
H1 H 0.7744 0.4712 0.0707
H2 H 0.7880 0.4370 0.1959
C2 C 0.6881(6) 0.7360(12) 0.0933(7)
C3 C 0.8922(5) 0.7070(11) 0.2071(7)
H3 H 0.9063 0.7898 0.2805
H4 H 0.8890 0.8401 0.1537
Ag1A Ag 1.54317(5) 0.79781(11) 0.45730(6)
Ag1B Ag 0.95683(5) 0.29781(11) 0.04270(6)
Ag1C Ag 1.04317(5) 0.29781(11) 0.45730(6)
Ag1D Ag 0.54317(5) 0.20219(11) -0.04270(6)
Ag1D_2 Ag 0.54317(5) 1.20219(11) -0.04270(6)
Ag1E Ag 1.45683(5) 0.20219(11) 0.54270(6)
Ag1E_2 Ag 1.45683(5) 1.20219(11) 0.54270(6)
S1B S 0.5000 0.9817(4) 0.2500
S1B_2 S 1.5000 0.9817(4) 0.2500
O1A O 1.2987(4) 0.9756(8) 0.3965(5)
O1D O 0.2987(4) 1.0244(8) -0.1035(5)
O1E O 1.7013(4) 1.0244(8) 0.6035(5)
O2A O 1.4014(4) 0.6247(9) 0.4545(5)
O2D O 0.4014(4) 0.3753(9) -0.0455(5)
O2E O 1.5986(4) 0.3753(9) 0.5455(5)
C1A C 1.2154(5) 0.5640(12) 0.3599(7)
H1A H 1.2256 0.4712 0.4293
H2A H 1.2120 0.4370 0.3041
C2A C 1.3119(6) 0.7360(12) 0.4067(7)
C3A C 1.1078(5) 0.7070(11) 0.2929(7)
H3A H 1.0937 0.7898 0.2195
H4A H 1.1110 0.8401 0.3463
loop_
_geom_bond_atom_site_label_1
_geom_bond_atom_site_label_2
_geom_bond_site_symmetry_1
_geom_bond_site_symmetry_2
Ag1 O2 1_555 1_555
S1 C3 1_555 1_555
O1 C2 1_555 1_555
O2 C2 1_555 1_555
C1 H1 1_555 1_555
H2 C1 1_555 1_555
C2 C1 1_555 1_555
C3 C1 1_555 1_555
H3 C3 1_555 1_555
H4 C3 1_555 1_555
Ag1A Ag1E_2 1_555 1_555
Ag1B S1 1_555 1_555
Ag1C S1 1_555 1_555
Ag1D O2 1_555 1_555
Ag1D_2 Ag1 1_555 1_555
Ag1E O2A 1_555 1_555
Ag1E_2 O1A 1_555 1_555
S1B Ag1 1_555 1_555
S1B_2 Ag1A 1_555 1_555
O1A C2A 1_555 1_555
O1D Ag1 1_555 1_555
O1E Ag1A 1_555 1_555
O2A Ag1A 1_555 1_555
O2D Ag1 1_555 1_555
O2E Ag1A 1_555 1_555
C1A H1A 1_555 1_555
H2A C1A 1_555 1_555
C2A O2A 1_555 1_555
C3A S1 1_555 1_555
H3A C3A 1_555 1_555
H4A C3A 1_555 1_555
O1 Ag1D_2 1_555 1_555
Ag1D O2D 1_555 1_555
Ag1E O2E 1_555 1_555
C1A C2A 1_555 1_555
C1A C3A 1_555 1_555

#END
