
#######################################################################
#
#                 Cambridge Crystallographic Data Centre
#                                CCDC 
#
#######################################################################
#
# If this CIF has been generated from an entry in the Cambridge 
# Structural Database, then it will include bibliographic, chemical, 
# crystal, experimental, refinement or atomic coordinate data resulting 
# from the CCDC's data processing and validation procedures.
#
#######################################################################

data_QEFQEX01
_symmetry_cell_setting           orthorhombic
_symmetry_space_group_name_H-M   'P n m a'
_symmetry_Int_Tables_number      62
_space_group_name_Hall           '-P 2ac 2n'
loop_
_symmetry_equiv_pos_site_id
_symmetry_equiv_pos_as_xyz
1 x,y,z
2 1/2+x,y,1/2-z
3 x,1/2-y,z
4 1/2-x,1/2+y,1/2+z
5 -x,-y,-z
6 1/2-x,-y,1/2+z
7 -x,1/2+y,-z
8 1/2+x,1/2-y,1/2-z
_cell_length_a                   16.212(2)
_cell_length_b                   12.972(2)
_cell_length_c                   10.502(2)
_cell_angle_alpha                90
_cell_angle_beta                 90
_cell_angle_gamma                90
_cell_volume                     2208.59
loop_
_atom_site_label
_atom_site_type_symbol
_atom_site_fract_x
_atom_site_fract_y
_atom_site_fract_z
Co1 Co -0.35382(2) 0.02757(2) 0.33469(4)
N1 N -0.38152(14) 0.15833(16) 0.4559(2)
N2 N -0.33064(14) 0.34144(16) 0.2120(2)
C1 C -0.4229(3) 0.2500 0.6407(4)
C2 C -0.4082(2) 0.1593(2) 0.5760(3)
C3 C -0.3695(2) 0.2500 0.4016(4)
C4 C -0.3418(2) 0.2500 0.2666(4)
C5 C -0.3069(2) 0.1588(2) 0.0903(3)
C6 C -0.2948(3) 0.2500 0.0254(4)
N3 N -0.38184(17) -0.08358(19) 0.4732(3)
C7 C -0.39628(18) -0.1633(2) 0.5152(3)
N4 N -0.4147(3) -0.2500 0.5719(4)
N5 N -0.3213(2) -0.4152(2) 0.2027(3)
C8 C -0.3076(2) -0.3359(2) 0.1602(3)
N6 N -0.2884(3) -0.2500 0.1027(5)
N7 N -0.72784(16) 0.0410(2) 0.1164(3)
C9 C -0.6592(2) 0.0548(3) 0.1193(4)
N8 N -0.5841(11) 0.0979(9) 0.1164(18)
C10 C -0.5270(2) 0.0499(4) 0.1923(4)
N11 N -0.47404(17) 0.0328(2) 0.2597(3)
H1 H -0.439(4) 0.2500 0.722(6)
H2 H -0.418(2) 0.396(3) 0.607(4)
H3 H -0.299(2) 0.400(3) 0.051(4)
H4 H -0.278(3) 0.2500 -0.051(6)
Co1A Co -0.85382(2) 0.02757(2) 0.16531(4)
C2B C -0.4082(2) 0.3407(2) 0.5760(3)
N1B N -0.38152(14) 0.34167(16) 0.4559(2)
Co1B Co -0.35382(2) 0.47243(2) 0.33469(4)
N2B N -0.33064(14) 0.15856(16) 0.2120(2)
C7B C -0.39628(18) -0.3367(2) 0.5152(3)
N3B N -0.38184(17) -0.41642(19) 0.4732(3)
Co1B_2 Co -0.35382(2) -0.52757(2) 0.33469(4)
C8B C -0.3076(2) -0.1641(2) 0.1602(3)
N5B N -0.3213(2) -0.0848(2) 0.2027(3)
N7A N -0.22784(16) 0.0410(2) 0.3836(3)
C9A C -0.1592(2) 0.0548(3) 0.3807(4)
N8A N -0.0841(11) 0.0979(9) 0.3836(18)
C10A C -0.0270(2) 0.0499(4) 0.3077(4)
N11A N 0.02596(17) 0.0328(2) 0.2403(3)
Co1A_2 Co 0.14618(2) 0.02757(2) 0.16531(4)
C5B C -0.3069(2) 0.3412(2) 0.0903(3)
H3B H -0.299(2) 0.100(3) 0.051(4)
N3B_2 N -0.38184(17) 0.58358(19) 0.4732(3)
N5_2 N -0.3213(2) 0.5848(2) 0.2027(3)
N7G N -0.22784(16) 0.4590(2) 0.3836(3)
N11B N -0.47404(17) 0.4672(2) 0.2597(3)
H2B H -0.418(2) 0.104(3) 0.607(4)
O1 O -0.4962(4) 0.2500 0.9420(7)
N9? N 0.4183(15) 0.0615(14) 0.101(2)
N10? N 0.4213(17) 0.018(2) 0.097(3)
loop_
_geom_bond_atom_site_label_1
_geom_bond_atom_site_label_2
_geom_bond_site_symmetry_1
_geom_bond_site_symmetry_2
Co1 N1 1_555 1_555
N1 C2 1_555 1_555
N2 C4 1_555 1_555
C1 C2 1_555 1_555
C2 H2B 1_555 1_555
C3 N1 1_555 1_555
C4 C3 1_555 1_555
C5 C6 1_555 1_555
C6 H4 1_555 1_555
N3 Co1 1_555 1_555
C7 N3 1_555 1_555
N4 C7 1_555 1_555
N5 C8 1_555 1_555
C8 N6 1_555 1_555
N6 C8B 1_555 1_555
N7 C9 1_555 1_555
C9 N8 1_555 1_555
N8 C10 1_555 1_555
C10 N11 1_555 1_555
N11 Co1 1_555 1_555
H1 C1 1_555 1_555
H2 C2B 1_555 1_555
H3 C5B 1_555 1_555
Co1A N7 1_555 1_555
C2B C1 1_555 1_555
N1B C3 1_555 1_555
Co1B N2 1_555 1_555
N2B Co1 1_555 1_555
C7B N4 1_555 1_555
N3B C7B 1_555 1_555
Co1B_2 N5 1_555 1_555
C8B N5B 1_555 1_555
N5B Co1 1_555 1_555
N7A Co1 1_555 1_555
C9A N7A 1_555 1_555
N8A C9A 1_555 1_555
C10A N8A 1_555 1_555
N11A C10A 1_555 1_555
Co1A_2 N11A 1_555 1_555
C5B N2 1_555 1_555
H3B C5 1_555 1_555
N3B_2 Co1B 1_555 1_555
N5_2 Co1B 1_555 1_555
N7G Co1B 1_555 1_555
N11B Co1B 1_555 1_555
C4 N2B 1_555 1_555
C5 N2B 1_555 1_555
C6 C5B 1_555 1_555
C2B N1B 1_555 1_555
N1B Co1B 1_555 1_555
N3B Co1B_2 1_555 1_555

#END
