
#######################################################################
#
#                 Cambridge Crystallographic Data Centre
#                                CCDC 
#
#######################################################################
#
# If this CIF has been generated from an entry in the Cambridge 
# Structural Database, then it will include bibliographic, chemical, 
# crystal, experimental, refinement or atomic coordinate data resulting 
# from the CCDC's data processing and validation procedures.
#
#######################################################################

data_QEFQEX
_symmetry_cell_setting           orthorhombic
_symmetry_space_group_name_H-M   'P n m a'
_symmetry_Int_Tables_number      62
_space_group_name_Hall           '-P 2ac 2n'
loop_
_symmetry_equiv_pos_site_id
_symmetry_equiv_pos_as_xyz
1 x,y,z
2 1/2-x,-y,1/2+z
3 1/2+x,1/2-y,1/2-z
4 -x,1/2+y,-z
5 -x,-y,-z
6 1/2+x,y,1/2-z
7 1/2-x,1/2+y,1/2+z
8 x,1/2-y,z
_cell_length_a                   16.1684(5)
_cell_length_b                   12.9860(3)
_cell_length_c                   10.4207(3)
_cell_angle_alpha                90
_cell_angle_beta                 90
_cell_angle_gamma                90
_cell_volume                     2187.96
loop_
_atom_site_label
_atom_site_type_symbol
_atom_site_fract_x
_atom_site_fract_y
_atom_site_fract_z
Co1 Co 0.3539(1) -0.0280(1) 0.6623(1)
N1 N 0.3306(2) -0.1588(2) 0.7863(3)
N2 N 0.3827(2) -0.1582(2) 0.5405(3)
N3 N 0.3826(2) 0.0830(2) 0.5233(3)
N4 N 0.4161(3) 0.2500 0.4225(5)
N5 N 0.3198(2) 0.0844(2) 0.7935(3)
N6 N 0.2874(3) 0.2500 0.8962(5)
N7 N 0.4735(2) -0.0332(2) 0.7411(3)
N8 N 0.2277(2) -0.0429(2) 0.6127(3)
N9 N 0.5799(2) -0.0813(4) 0.8995(4)
C1 C 0.3415(3) -0.2500 0.7318(5)
C2 C 0.3056(2) -0.1592(3) 0.9093(3)
C3 C 0.2942(4) -0.2500 0.9742(5)
C4 C 0.3711(3) -0.2500 0.5942(5)
C5 C 0.4104(2) -0.1585(3) 0.4192(4)
C6 C 0.4268(4) -0.2500 0.3552(5)
C7 C 0.3972(2) 0.1640(3) 0.4800(3)
C8 C 0.3060(3) 0.1643(3) 0.8386(3)
C9 C 0.5260(3) -0.0538(3) 0.8119(4)
C10 C 0.1584(3) -0.0594(3) 0.6134(4)
C7G C 0.3972(2) 0.3360(3) 0.4800(3)
C8G C 0.3060(3) 0.3357(3) 0.8386(3)
C10E C 0.6584(3) -0.0594(3) 0.8866(4)
N1G N 0.3306(2) -0.3412(2) 0.7863(3)
C2G C 0.3056(2) -0.3408(3) 0.9093(3)
N2G N 0.3827(2) -0.3418(2) 0.5405(3)
C5G C 0.4104(2) -0.3415(3) 0.4192(4)
N9E N 0.0799(2) -0.0813(4) 0.6005(4)
N5G N 0.3198(2) 0.4156(2) 0.7935(3)
N3G N 0.3826(2) 0.4170(2) 0.5233(3)
Co1G Co 0.3539(1) 0.5280(1) 0.6623(1)
Co1G_2 Co 0.3539(1) -0.4720(1) 0.6623(1)
C9E C 0.0260(3) -0.0538(3) 0.6881(4)
N8E N 0.7277(2) -0.0429(2) 0.8873(3)
N7E N -0.0265(2) -0.0332(2) 0.7589(3)
Co1E Co 0.8539(1) -0.0280(1) 0.8377(1)
Co1E_2 Co -0.1461(1) -0.0280(1) 0.8377(1)
N3G_2 N 0.3826(2) -0.5830(2) 0.5233(3)
N5G_2 N 0.3198(2) -0.5844(2) 0.7935(3)
N7G N 0.4735(2) -0.4668(2) 0.7411(3)
N8G N 0.2277(2) -0.4571(2) 0.6127(3)
O1 O -0.0027(3) -0.2500 0.4422(5)
loop_
_geom_bond_atom_site_label_1
_geom_bond_atom_site_label_2
_geom_bond_site_symmetry_1
_geom_bond_site_symmetry_2
Co1 N1 1_555 1_555
N1 C1 1_555 1_555
N2 Co1 1_555 1_555
N3 Co1 1_555 1_555
N4 C7 1_555 1_555
N5 Co1 1_555 1_555
N6 C8 1_555 1_555
N7 Co1 1_555 1_555
N8 Co1 1_555 1_555
N9 C9 1_555 1_555
C1 C4 1_555 1_555
C2 N1 1_555 1_555
C3 C2 1_555 1_555
C4 N2 1_555 1_555
C5 N2 1_555 1_555
C6 C5 1_555 1_555
C7 N3 1_555 1_555
C8 N5 1_555 1_555
C9 N7 1_555 1_555
C10 N8 1_555 1_555
C7G N4 1_555 1_555
C8G N6 1_555 1_555
C10E N9 1_555 1_555
N1G C1 1_555 1_555
C2G C3 1_555 1_555
N2G C4 1_555 1_555
C5G C6 1_555 1_555
N9E C10 1_555 1_555
N5G C8G 1_555 1_555
N3G C7G 1_555 1_555
Co1G N5G 1_555 1_555
Co1G_2 N1G 1_555 1_555
C9E N9E 1_555 1_555
N8E C10E 1_555 1_555
N7E C9E 1_555 1_555
Co1E N8E 1_555 1_555
Co1E_2 N7E 1_555 1_555
N3G_2 Co1G_2 1_555 1_555
N5G_2 Co1G_2 1_555 1_555
N7G Co1G_2 1_555 1_555
N8G Co1G_2 1_555 1_555
N1G C2G 1_555 1_555
N2G C5G 1_555 1_555
N2G Co1G_2 1_555 1_555
N3G Co1G 1_555 1_555

#END
