
#######################################################################
#
#                 Cambridge Crystallographic Data Centre
#                                CCDC 
#
#######################################################################
#
# If this CIF has been generated from an entry in the Cambridge 
# Structural Database, then it will include bibliographic, chemical, 
# crystal, experimental, refinement or atomic coordinate data resulting 
# from the CCDC's data processing and validation procedures.
#
#######################################################################

data_QEFSUR
_symmetry_cell_setting           monoclinic
_symmetry_space_group_name_H-M   'C 2/c'
_symmetry_Int_Tables_number      15
_space_group_name_Hall           '-C 2yn'
loop_
_symmetry_equiv_pos_site_id
_symmetry_equiv_pos_as_xyz
1 x,y,z
2 -x,y,1/2-z
3 1/2+x,1/2+y,z
4 1/2-x,1/2+y,1/2-z
5 -x,-y,-z
6 x,-y,1/2+z
7 1/2-x,1/2-y,-z
8 1/2+x,1/2-y,1/2+z
_cell_length_a                   19.6559(12)
_cell_length_b                   21.3909(13)
_cell_length_c                   15.3121(10)
_cell_angle_alpha                90
_cell_angle_beta                 126.8220(10)
_cell_angle_gamma                90
_cell_volume                     5153.7
loop_
_atom_site_label
_atom_site_type_symbol
_atom_site_fract_x
_atom_site_fract_y
_atom_site_fract_z
Zn1 Zn 0.7500 0.2500 1.0000
S1 S 0.89959(6) 0.22108(4) 1.37011(6)
O1 O 0.43010(11) 0.02475(8) 0.8598(2)
O2 O 0.81191(11) -0.02414(7) 0.78055(16)
O3 O 0.49261(10) -0.34023(7) 0.86358(14)
N1 N 0.78806(10) 0.17605(8) 0.93210(14)
N2 N 0.84689(11) 0.22252(8) 1.15729(15)
N3 N 0.66584(11) 0.17432(7) 0.98928(14)
N4 N 0.53244(11) -0.04220(8) 0.89319(16)
H1 H 0.5852 -0.0441 0.9150
N5 N 0.91961(11) 0.03554(7) 0.80999(15)
H2 H 0.9429 0.0728 0.8329
N6 N 0.53771(10) -0.14805(7) 0.88541(14)
N7 N 1.0000 0.02768(10) 0.7500
N8 N 0.56496(11) -0.25125(7) 0.89153(15)
H3 H 0.6140 -0.2373 0.9097
N9 N 0.77977(13) -0.42201(9) 1.00025(19)
C1 C 0.58152(14) 0.17759(10) 0.9186(2)
H4 H 0.5565 0.2170 0.8872
C2 C 0.69869(14) 0.11819(10) 1.03400(18)
H5 H 0.7584 0.1150 1.0878
C3 C 0.65035(14) 0.06477(10) 1.00612(19)
H6 H 0.6766 0.0258 1.0389
C4 C 0.52896(14) 0.12719(10) 0.8889(2)
H7 H 0.4691 0.1324 0.8401
C5 C 0.56336(13) 0.06880(10) 0.92993(19)
C6 C 0.50265(14) 0.01494(10) 0.8913(2)
C7 C 0.48783(13) -0.09924(9) 0.86392(17)
C8 C 0.40247(14) -0.10518(10) 0.8189(2)
H8 H 0.3675 -0.0696 0.8008
C9 C 0.37051(14) -0.16486(11) 0.8014(2)
H9 H 0.3124 -0.1706 0.7715
C10 C 0.42141(14) -0.21651(10) 0.82647(18)
H10 H 0.4004 -0.2579 0.8170
C11 C 0.50455(13) -0.20496(9) 0.86612(16)
C12 C 0.55783(13) -0.31424(9) 0.89175(17)
C13 C 0.63701(13) -0.34995(9) 0.93055(17)
C14 C 0.65560(16) -0.40367(10) 0.9908(2)
H11 H 0.6197 -0.4172 1.0094
C15 C 0.69176(14) -0.33289(11) 0.90654(18)
H12 H 0.6818 -0.2959 0.8662
C16 C 0.72678(17) -0.43720(12) 1.0235(3)
H13 H 0.7390 -0.4738 1.0657
C17 C 0.76106(14) -0.37009(11) 0.9417(2)
H14 H 0.7975 -0.3581 0.9232
C18 C 0.72928(13) 0.14265(10) 0.84492(18)
H15 H 0.6713 0.1537 0.8084
C19 C 0.86859(13) 0.16002(10) 0.98082(18)
H16 H 0.9116 0.1827 1.0438
C20 C 0.74744(13) 0.09314(10) 0.80473(18)
H17 H 0.7030 0.0701 0.7436
C21 C 0.89307(13) 0.11207(10) 0.94467(18)
H18 H 0.9516 0.1030 0.9812
C22 C 0.83161(12) 0.07759(9) 0.85501(17)
C23 C 0.85270(13) 0.02393(9) 0.81170(17)
C24 C 0.95666(12) -0.00427(8) 0.77625(16)
C25 C 0.95244(13) -0.06884(9) 0.77508(17)
H19 H 0.9186 -0.0904 0.7907
C26 C 1.0000 -0.10027(13) 0.7500
H20 H 1.0000 -0.1447 0.7500
C27 C 0.86802(13) 0.22155(9) 1.24566(18)
Zn1A Zn 1.2500 0.2500 0.5000
S1F S 0.60041(6) 0.27892(4) 0.62989(6)
O1F O 1.06990(11) 0.47525(8) 1.1402(2)
O2A O 1.18809(11) -0.02414(7) 0.71945(16)
O3F O 1.00739(10) 0.84023(7) 1.13642(14)
N1A N 1.21194(10) 0.17605(8) 0.56790(14)
N1F N 0.71194(10) 0.32395(8) 1.06790(14)
N2F N 0.65311(11) 0.27748(8) 0.84271(15)
N3F N 0.83416(11) 0.32568(7) 1.01072(14)
N4F N 0.96756(11) 0.54220(8) 1.10681(16)
H1F H 0.9148 0.5441 1.0850
N5A N 1.08039(11) 0.03554(7) 0.69001(15)
H2A H 1.0571 0.0728 0.6671
N6F N 0.96229(10) 0.64805(7) 1.11459(14)
N8F N 0.93504(11) 0.75125(7) 1.10847(15)
H3F H 0.8860 0.7373 1.0903
N9F N 0.72023(13) 0.92201(9) 0.99975(19)
C1F C 0.91848(14) 0.32241(10) 1.0814(2)
H4F H 0.9435 0.2830 1.1128
C2F C 0.80131(14) 0.38181(10) 0.96600(18)
H5F H 0.7416 0.3850 0.9122
C3F C 0.84965(14) 0.43523(10) 0.99388(19)
H6F H 0.8234 0.4742 0.9611
C4F C 0.97104(14) 0.37281(10) 1.1111(2)
H7F H 1.0309 0.3676 1.1599
C5F C 0.93664(13) 0.43120(10) 1.07007(19)
C6F C 0.99735(14) 0.48506(10) 1.1087(2)
C7F C 1.01217(13) 0.59924(9) 1.13608(17)
C8F C 1.09753(14) 0.60518(10) 1.1811(2)
H8F H 1.1325 0.5696 1.1992
C9F C 1.12949(14) 0.66486(11) 1.1986(2)
H9F H 1.1876 0.6706 1.2285
C10F C 1.07859(14) 0.71651(10) 1.17353(18)
H10F H 1.0996 0.7579 1.1830
C11F C 0.99545(13) 0.70496(9) 1.13388(16)
C12F C 0.94217(13) 0.81424(9) 1.10825(17)
C13F C 0.86299(13) 0.84995(9) 1.06945(17)
C14F C 0.84440(16) 0.90367(10) 1.0092(2)
H11F H 0.8803 0.9172 0.9906
C15F C 0.80824(14) 0.83289(11) 1.09346(18)
H12F H 0.8182 0.7959 1.1338
C16F C 0.77322(17) 0.93720(12) 0.9765(3)
H13F H 0.7610 0.9738 0.9343
C17F C 0.73894(14) 0.87009(11) 1.0583(2)
H14F H 0.7025 0.8581 1.0768
C18A C 1.27072(13) 0.14265(10) 0.65508(18)
H15A H 1.3287 0.1537 0.6916
C19A C 1.13141(13) 0.16002(10) 0.51918(18)
H16A H 1.0884 0.1827 0.4562
C20A C 1.25256(13) 0.09314(10) 0.69527(18)
H17A H 1.2970 0.0701 0.7564
C21A C 1.10693(13) 0.11207(10) 0.55533(18)
H18A H 1.0484 0.1030 0.5188
C22A C 1.16839(12) 0.07759(9) 0.64499(17)
C23A C 1.14730(13) 0.02393(9) 0.68830(17)
C24A C 1.04334(12) -0.00427(8) 0.72375(16)
C25A C 1.04756(13) -0.06884(9) 0.72492(17)
H19A H 1.0814 -0.0904 0.7093
C27F C 0.63198(13) 0.27845(9) 0.75434(18)
loop_
_geom_bond_atom_site_label_1
_geom_bond_atom_site_label_2
_geom_bond_site_symmetry_1
_geom_bond_site_symmetry_2
Zn1 N1 1_555 1_555
S1 C27 1_555 1_555
O1 C6 1_555 1_555
O2 C23 1_555 1_555
O3 C12 1_555 1_555
N1 C18 1_555 1_555
N2 Zn1 1_555 1_555
N3 Zn1 1_555 1_555
N4 H1 1_555 1_555
N5 H2 1_555 1_555
N6 C7 1_555 1_555
N7 C24 1_555 1_555
N8 H3 1_555 1_555
N9 C16 1_555 1_555
C1 N3 1_555 1_555
H4 C1 1_555 1_555
C2 N3 1_555 1_555
H5 C2 1_555 1_555
C3 C2 1_555 1_555
H6 C3 1_555 1_555
C4 C1 1_555 1_555
H7 C4 1_555 1_555
C5 C3 1_555 1_555
C6 N4 1_555 1_555
C7 N4 1_555 1_555
C8 C7 1_555 1_555
H8 C8 1_555 1_555
C9 C8 1_555 1_555
H9 C9 1_555 1_555
C10 C9 1_555 1_555
H10 C10 1_555 1_555
C11 N6 1_555 1_555
C12 N8 1_555 1_555
C13 C12 1_555 1_555
C14 C13 1_555 1_555
H11 C14 1_555 1_555
C15 C13 1_555 1_555
H12 C15 1_555 1_555
C16 C14 1_555 1_555
H13 C16 1_555 1_555
C17 N9 1_555 1_555
H14 C17 1_555 1_555
C18 H15 1_555 1_555
C19 N1 1_555 1_555
H16 C19 1_555 1_555
C20 C18 1_555 1_555
H17 C20 1_555 1_555
C21 C19 1_555 1_555
H18 C21 1_555 1_555
C22 C20 1_555 1_555
C23 N5 1_555 1_555
C24 N5 1_555 1_555
C25 C24 1_555 1_555
H19 C25 1_555 1_555
C26 C25 1_555 1_555
H20 C26 1_555 1_555
C27 N2 1_555 1_555
Zn1A N1A 1_555 1_555
S1F C27F 1_555 1_555
O1F C6F 1_555 1_555
O2A C23A 1_555 1_555
O3F C12F 1_555 1_555
N1A C18A 1_555 1_555
N1F Zn1 1_555 1_555
N2F Zn1 1_555 1_555
N3F Zn1 1_555 1_555
N4F H1F 1_555 1_555
N5A H2A 1_555 1_555
N6F C7F 1_555 1_555
N8F H3F 1_555 1_555
N9F C16F 1_555 1_555
C1F N3F 1_555 1_555
H4F C1F 1_555 1_555
C2F N3F 1_555 1_555
H5F C2F 1_555 1_555
C3F C2F 1_555 1_555
H6F C3F 1_555 1_555
C4F C1F 1_555 1_555
H7F C4F 1_555 1_555
C5F C3F 1_555 1_555
C6F N4F 1_555 1_555
C7F N4F 1_555 1_555
C8F C7F 1_555 1_555
H8F C8F 1_555 1_555
C9F C8F 1_555 1_555
H9F C9F 1_555 1_555
C10F C9F 1_555 1_555
H10F C10F 1_555 1_555
C11F N6F 1_555 1_555
C12F N8F 1_555 1_555
C13F C12F 1_555 1_555
C14F C13F 1_555 1_555
H11F C14F 1_555 1_555
C15F C13F 1_555 1_555
H12F C15F 1_555 1_555
C16F C14F 1_555 1_555
H13F C16F 1_555 1_555
C17F N9F 1_555 1_555
H14F C17F 1_555 1_555
C18A H15A 1_555 1_555
C19A N1A 1_555 1_555
H16A C19A 1_555 1_555
C20A C18A 1_555 1_555
H17A C20A 1_555 1_555
C21A C19A 1_555 1_555
H18A C21A 1_555 1_555
C22A C20A 1_555 1_555
C23A N5A 1_555 1_555
C24A N7 1_555 1_555
C25A C26 1_555 1_555
H19A C25A 1_555 1_555
C27F N2F 1_555 1_555
N8 C11 1_555 1_555
C4 C5 1_555 1_555
C5 C6 1_555 1_555
C10 C11 1_555 1_555
C15 C17 1_555 1_555
C21 C22 1_555 1_555
C22 C23 1_555 1_555
N5A C24A 1_555 1_555
N8F C11F 1_555 1_555
C4F C5F 1_555 1_555
C5F C6F 1_555 1_555
C10F C11F 1_555 1_555
C15F C17F 1_555 1_555
C21A C22A 1_555 1_555
C22A C23A 1_555 1_555
C24A C25A 1_555 1_555

#END
