
#######################################################################
#
#                 Cambridge Crystallographic Data Centre
#                                CCDC 
#
#######################################################################
#
# If this CIF has been generated from an entry in the Cambridge 
# Structural Database, then it will include bibliographic, chemical, 
# crystal, experimental, refinement or atomic coordinate data resulting 
# from the CCDC's data processing and validation procedures.
#
#######################################################################

data_QEGCAG
_symmetry_cell_setting           monoclinic
_symmetry_space_group_name_H-M   'C 2'
_symmetry_Int_Tables_number      5
_space_group_name_Hall           'C 2y'
loop_
_symmetry_equiv_pos_site_id
_symmetry_equiv_pos_as_xyz
1 x,y,z
2 -x,y,-z
3 1/2+x,1/2+y,z
4 1/2-x,1/2+y,-z
_cell_length_a                   28.071(10)
_cell_length_b                   14.304(6)
_cell_length_c                   8.721(7)
_cell_angle_alpha                90
_cell_angle_beta                 95.28(2)
_cell_angle_gamma                90
_cell_volume                     3486.86
loop_
_atom_site_label
_atom_site_type_symbol
_atom_site_fract_x
_atom_site_fract_y
_atom_site_fract_z
Cu1 Cu 0.5487(2) 0.2065(3) 0.3152(5)
Cu2 Cu 0.4316(2) 0.4777(3) 0.1906(6)
Cu3 Cu 0.6812(2) -0.0415(3) 0.3858(5)
C1 C 0.4788(14) 0.3182(25) 0.1778(41)
C2 C 0.5067(14) 0.3758(27) 0.2967(43)
C3 C 0.5998(14) 0.0511(27) 0.2838(42)
C4 C 0.6277(15) 0.1140(28) 0.4056(44)
C5 C 0.4654(12) 0.1597(22) 0.0799(38)
C6 C 0.5312(10) 0.0361(20) 0.1056(32)
C7 C 0.5000 0.1065(36) 0.0000
C8 C 0.3705(14) 0.6175(25) 0.0563(42)
C9 C 0.3753(14) 0.6471(26) 0.1994(43)
C10 C 0.3983(20) 0.4962(38) -0.1356(64)
C11 C 0.3373(18) 0.4573(37) 0.0381(53)
C12 C 0.4664(14) 0.6660(25) 0.2205(42)
C13 C 0.4223(19) 0.6104(33) 0.4541(63)
C14 C 0.7476(20) -0.1767(36) 0.3343(65)
C15 C 0.7650(21) -0.1474(39) 0.4876(71)
C16 C 0.6963(17) -0.1519(33) 0.1315(58)
C17 C 0.6684(23) -0.2405(44) 0.3362(67)
C18 C 0.7761(19) 0.0188(34) 0.5080(59)
C19 C 0.7296(13) -0.0582(24) 0.6888(42)
N1 N 0.4897(10) 0.2323(17) 0.1803(28)
N2 N 0.5624(11) 0.0878(21) 0.2258(33)
N3 N 0.3815(12) 0.5100(24) 0.0233(38)
N4 N 0.4234(11) 0.6087(23) 0.2894(61)
N5 N 0.6967(10) -0.1620(21) 0.2908(50)
N6 N 0.7409(12) -0.0590(24) 0.5244(54)
O1 O 0.4444(9) 0.3566(17) 0.0949(33)
O2 O 0.4962(8) 0.4610(16) 0.3074(27)
O3 O 0.5431(9) 0.3387(17) 0.3743(27)
O4 O 0.6196(8) -0.0273(17) 0.2580(24)
O5 O 0.6676(9) 0.0836(16) 0.4681(26)
O6 O 0.6086(9) 0.1935(19) 0.4338(28)
O7 O 0.5000 0.1247(27) 0.5000
O8 O 0.3898(9) 0.3986(19) 0.3717(33)
C5A C 0.5346(12) 0.1597(22) -0.0799(38)
N1A N 0.5103(10) 0.2323(17) -0.1803(28)
C1A C 0.5212(14) 0.3182(25) -0.1778(41)
C2A C 0.4933(14) 0.3758(27) -0.2967(43)
O2A O 0.5038(8) 0.4610(16) -0.3074(27)
O3A O 0.4569(9) 0.3387(17) -0.3743(27)
O1A O 0.5556(9) 0.3566(17) -0.0949(33)
C6A C 0.4688(10) 0.0361(20) -0.1056(32)
N2A N 0.4376(11) 0.0878(21) -0.2258(33)
C3A C 0.4002(14) 0.0511(27) -0.2838(42)
C4A C 0.3723(15) 0.1140(28) -0.4056(44)
O5A O 0.3324(9) 0.0836(16) -0.4681(26)
O6A O 0.3914(9) 0.1935(19) -0.4338(28)
O4A O 0.3804(8) -0.0273(17) -0.2580(24)
Cu1A Cu 0.4513(2) 0.2065(3) -0.3152(5)
Cu2A Cu 0.5684(2) 0.4777(3) -0.1906(6)
Cu3A Cu 0.3188(2) -0.0415(3) -0.3858(5)
C8A C 0.6295(14) 0.6175(25) -0.0563(42)
C9A C 0.6247(14) 0.6471(26) -0.1994(43)
C10A C 0.6017(20) 0.4962(38) 0.1356(64)
C11A C 0.6627(18) 0.4573(37) -0.0381(53)
C12A C 0.5336(14) 0.6660(25) -0.2205(42)
C13A C 0.5777(19) 0.6104(33) -0.4541(63)
N3A N 0.6185(12) 0.5100(24) -0.0233(38)
N4A N 0.5766(11) 0.6087(23) -0.2894(61)
O8A O 0.6102(9) 0.3986(19) -0.3717(33)
C14A C 0.2524(20) -0.1767(36) -0.3343(65)
C15A C 0.2350(21) -0.1474(39) -0.4876(71)
C16A C 0.3037(17) -0.1519(33) -0.1315(58)
C17A C 0.3316(23) -0.2405(44) -0.3362(67)
C18A C 0.2239(19) 0.0188(34) -0.5080(59)
C19A C 0.2704(13) -0.0582(24) -0.6888(42)
N5A N 0.3033(10) -0.1620(21) -0.2908(50)
N6A N 0.2591(12) -0.0590(24) -0.5244(54)
Cu1A_2 Cu 0.4513(2) 0.2065(3) 0.6848(5)
O7_2 O 0.5000 0.1247(27) -0.5000
Cl1 Cl 0.7253(4) 0.1450(8) 0.1030(16)
O9 O 0.7615(15) 0.1933(25) 0.2069(50)
O10 O 0.7245(14) 0.0502(24) 0.1706(57)
O11 O 0.6820(15) 0.1780(36) 0.1015(61)
O12 O 0.7379(15) 0.1336(27) -0.0487(47)
Cl2 Cl 0.5923(7) -0.0670(12) 0.6888(24)
O13 O 0.6236(13) -0.1149(22) 0.6061(43)
O14 O 0.5781(18) 0.0073(30) 0.6199(48)
O15 O 0.5750(19) -0.1127(27) 0.7964(38)
O16 O 0.5512(16) -0.1188(29) 0.5768(55)
O17 O 0.3552(13) 0.2344(20) 0.2442(38)
loop_
_geom_bond_atom_site_label_1
_geom_bond_atom_site_label_2
_geom_bond_site_symmetry_1
_geom_bond_site_symmetry_2
Cu1 N1 1_555 1_555
Cu2 N3 1_555 1_555
Cu3 N5 1_555 1_555
Cl1 O9 1_555 1_555
Cl2 O13 1_555 1_555
C1 C2 1_555 1_555
C2 O2 1_555 1_555
C3 C4 1_555 1_555
C4 O5 1_555 1_555
C5 C7 1_555 1_555
C6 C7 1_555 1_555
C7 C5A 1_555 1_555
C8 C9 1_555 1_555
C9 N4 1_555 1_555
C10 N3 1_555 1_555
C11 N3 1_555 1_555
C12 N4 1_555 1_555
C13 N4 1_555 1_555
C14 C15 1_555 1_555
C15 N6 1_555 1_555
C16 N5 1_555 1_555
C17 N5 1_555 1_555
C18 N6 1_555 1_555
C19 N6 1_555 1_555
N1 C1 1_555 1_555
N2 Cu1 1_555 1_555
N3 C8 1_555 1_555
N4 Cu2 1_555 1_555
N5 C14 1_555 1_555
N6 Cu3 1_555 1_555
O1 Cu2 1_555 1_555
O2 Cu2 1_555 1_555
O3 Cu1 1_555 1_555
O4 Cu3 1_555 1_555
O5 Cu3 1_555 1_555
O6 Cu1 1_555 1_555
O7 Cu1 1_555 1_555
O8 Cu2 1_555 1_555
O10 Cl1 1_555 1_555
O11 Cl1 1_555 1_555
O12 Cl1 1_555 1_555
O14 Cl2 1_555 1_555
O15 Cl2 1_555 1_555
O16 Cl2 1_555 1_555
C5A N1A 1_555 1_555
N1A C1A 1_555 1_555
C1A C2A 1_555 1_555
C2A O2A 1_555 1_555
O2A Cu2A 1_555 1_555
O3A C2A 1_555 1_555
O1A C1A 1_555 1_555
C6A C7 1_555 1_555
N2A C6A 1_555 1_555
C3A N2A 1_555 1_555
C4A C3A 1_555 1_555
O5A C4A 1_555 1_555
O6A C4A 1_555 1_555
O4A C3A 1_555 1_555
Cu1A N1A 1_555 1_555
Cu2A O1A 1_555 1_555
Cu3A O5A 1_555 1_555
C8A C9A 1_555 1_555
C9A N4A 1_555 1_555
C10A N3A 1_555 1_555
C11A N3A 1_555 1_555
C12A N4A 1_555 1_555
C13A N4A 1_555 1_555
N3A Cu2A 1_555 1_555
N4A Cu2A 1_555 1_555
O8A Cu2A 1_555 1_555
C14A C15A 1_555 1_555
C15A N6A 1_555 1_555
C16A N5A 1_555 1_555
C17A N5A 1_555 1_555
C18A N6A 1_555 1_555
C19A N6A 1_555 1_555
N5A Cu3A 1_555 1_555
N6A Cu3A 1_555 1_555
Cu1A_2 O7 1_555 1_555
O7_2 Cu1A 1_555 1_555
C1 O1 1_555 1_555
C2 O3 1_555 1_555
C3 N2 1_555 1_555
C3 O4 1_555 1_555
C4 O6 1_555 1_555
C5 N1 1_555 1_555
C6 N2 1_555 1_555
O3A Cu1A 1_555 1_555
N2A Cu1A 1_555 1_555
O6A Cu1A 1_555 1_555
O4A Cu3A 1_555 1_555
C8A N3A 1_555 1_555
C14A N5A 1_555 1_555

#END
