
#######################################################################
#
#                 Cambridge Crystallographic Data Centre
#                                CCDC 
#
#######################################################################
#
# If this CIF has been generated from an entry in the Cambridge 
# Structural Database, then it will include bibliographic, chemical, 
# crystal, experimental, refinement or atomic coordinate data resulting 
# from the CCDC's data processing and validation procedures.
#
#######################################################################

data_QEGGUE
_symmetry_cell_setting           tetragonal
_symmetry_space_group_name_H-M   'I 41/a c d'
_symmetry_Int_Tables_number      142
_space_group_name_Hall           '-I 4bd 2c'
loop_
_symmetry_equiv_pos_site_id
_symmetry_equiv_pos_as_xyz
1 x,y,z
2 1/4-y,3/4+x,1/4+z
3 x,-y,1/2-z
4 1/2-x,-y,1/2+z
5 1/4+y,3/4+x,3/4-z
6 1/4+y,1/4-x,3/4+z
7 1/2-x,y,-z
8 1/4-y,1/4-x,1/4-z
9 1/2+x,1/2+y,1/2+z
10 3/4-y,1/4+x,3/4+z
11 1/2+x,1/2-y,-z
12 -x,1/2-y,z
13 3/4+y,1/4+x,1/4-z
14 3/4+y,3/4-x,1/4+z
15 -x,1/2+y,1/2-z
16 3/4-y,3/4-x,3/4-z
17 -x,-y,-z
18 3/4+y,1/4-x,3/4-z
19 -x,y,1/2+z
20 1/2+x,y,1/2-z
21 3/4-y,1/4-x,1/4+z
22 3/4-y,3/4+x,1/4-z
23 1/2+x,-y,z
24 3/4+y,3/4+x,3/4+z
25 1/2-x,1/2-y,1/2-z
26 1/4+y,3/4-x,1/4-z
27 1/2-x,1/2+y,z
28 x,1/2+y,-z
29 1/4-y,3/4-x,3/4+z
30 1/4-y,1/4+x,3/4-z
31 x,1/2-y,1/2+z
32 1/4+y,1/4+x,1/4+z
_cell_length_a                   24.4478(4)
_cell_length_b                   24.4478(4)
_cell_length_c                   68.740(1)
_cell_angle_alpha                90
_cell_angle_beta                 90
_cell_angle_gamma                90
_cell_volume                     41085.5
loop_
_atom_site_label
_atom_site_type_symbol
_atom_site_fract_x
_atom_site_fract_y
_atom_site_fract_z
Ag1 Ag 0.31293(8) 0.8297(1) 0.00171(2)
N1 N 0.3129(9) 0.793(1) 0.0305(2)
C1 C 0.300(1) 0.740(1) 0.0338(3)
C2 C 0.304(1) 0.719(1) 0.0521(3)
C3 C 0.3184(9) 0.7479(9) 0.0678(2)
C4 C 0.333(1) 0.801(1) 0.0643(3)
C5 C 0.328(1) 0.825(1) 0.0456(3)
N2 N 0.1137(9) 0.5631(9) 0.2230(2)
C6 C 0.084(1) 0.5800(9) 0.2077(3)
C7 C 0.106(1) 0.581(1) 0.1888(3)
C8 C 0.1610(9) 0.568(1) 0.1859(2)
C9 C 0.194(1) 0.553(1) 0.2019(3)
C10 C 0.170(1) 0.553(1) 0.2206(3)
C11 C 0.3229(9) 0.726(1) 0.0880(3)
C12 C 0.2727(9) 0.716(1) 0.0980(3)
C13 C 0.274(1) 0.692(1) 0.1168(3)
C14 C 0.3262(9) 0.6824(8) 0.1255(2)
C15 C 0.3762(9) 0.692(1) 0.1152(3)
C16 C 0.3743(9) 0.713(1) 0.0962(3)
C17 C 0.218(1) 0.730(1) 0.0888(3)
C18 C 0.328(1) 0.664(1) 0.1470(2)
C19 C 0.4257(9) 0.726(1) 0.0850(3)
C20 C 0.430(1) 0.6803 0.1250
C21 C 0.2218(9) 0.6806(9) 0.1279(3)
C22 C 0.2207(8) 0.5776(9) 0.1274(2)
C23 C 0.2133(9) 0.5282(9) 0.1359(3)
C24 C 0.1945(9) 0.5240(8) 0.1557(2)
C25 C 0.1860(9) 0.570(1) 0.1653(2)
C26 C 0.197(1) 0.6233(9) 0.1572(3)
C27 C 0.2140(9) 0.6248(9) 0.1374(2)
C28 C 0.225(1) 0.4750 0.1250
C29 C 0.181(1) 0.470(1) 0.1652(3)
C30 C 0.185(1) 0.6771(9) 0.1689(3)
C31 C 0.2330(8) 0.579(1) 0.1058(3)
H1 H 0.2885 0.7178 0.0234
H2 H 0.2959 0.6810 0.0538
H3 H 0.3472 0.8225 0.0747
H4 H 0.3359 0.8630 0.0436
H5 H 0.0466 0.5905 0.2096
H6 H 0.0835 0.5905 0.1780
H7 H 0.2308 0.5436 0.2001
H8 H 0.1927 0.5452 0.2316
H9 H 0.1891 0.7203 0.0976
H10 H 0.2159 0.7675 0.0859
H11 H 0.2133 0.7091 0.0772
H12 H 0.2918 0.6600 0.1517
H13 H 0.3471 0.6306 0.1480
H14 H 0.3465 0.6914 0.1545
H15 H 0.4567 0.7157 0.0924
H16 H 0.4254 0.7071 0.0730
H17 H 0.4273 0.7646 0.0825
H18 H 0.4347 0.7077 0.1347
H19 H 0.1925 0.6853 0.1189
H20 H 0.2191 0.7072 0.1379
H21 H 0.1900 0.4409 0.1565
H22 H 0.1436 0.4686 0.1683
H23 H 0.2024 0.4662 0.1767
H24 H 0.1952 0.7078 0.1612
H25 H 0.2061 0.6770 0.1805
H26 H 0.1474 0.6791 0.1720
H27 H 0.2372 0.6160 0.1018
H28 H 0.2036 0.5627 0.0989
H29 H 0.2658 0.5595 0.1033
H30 H 0.2216 0.4466 0.1344
C15L C 0.442(1) 0.6262(9) 0.1348(3)
C14L C 0.4324(8) 0.5762(9) 0.1245(2)
C13L C 0.442(1) 0.524(1) 0.1332(3)
C12L C 0.466(1) 0.5227(9) 0.1520(3)
C11L C 0.476(1) 0.5729(9) 0.1620(3)
C3L C 0.4979(9) 0.5684(9) 0.1822(2)
C2L C 0.469(1) 0.554(1) 0.1979(3)
C1L C 0.490(1) 0.550(1) 0.2162(3)
N1L N 0.543(1) 0.5629(9) 0.2195(2)
C5L C 0.575(1) 0.578(1) 0.2044(3)
C4L C 0.551(1) 0.583(1) 0.1857(3)
H3L H 0.5725 0.5972 0.1753
H4L H 0.6130 0.5859 0.2064
H1L H 0.4678 0.5385 0.2266
H2L H 0.4310 0.5459 0.1962
C16L C 0.463(1) 0.6243(9) 0.1538(3)
C19L C 0.476(1) 0.6757(9) 0.1650(3)
H15L H 0.4657 0.7067 0.1576
H16L H 0.4571 0.6754 0.1770
H17L H 0.5146 0.6773 0.1675
C17L C 0.480(1) 0.468(1) 0.1612(3)
H9L H 0.4703 0.4391 0.1524
H10L H 0.5175 0.4659 0.1641
H11L H 0.4591 0.4633 0.1728
C21L C 0.4306(9) 0.4718(9) 0.1221(3)
C27L C 0.3748(9) 0.4640(9) 0.1126(2)
C22L C 0.3276(9) 0.4707(8) 0.1226(2)
C23L C 0.2782(9) 0.4633(9) 0.1141(3)
C24L C 0.2740(8) 0.4445(9) 0.0943(2)
C25L C 0.320(1) 0.4360(9) 0.0847(2)
C8L C 0.318(1) 0.4110(9) 0.0641(2)
C7L C 0.331(1) 0.356(1) 0.0612(3)
C6L C 0.3300(9) 0.334(1) 0.0423(3)
N2L N 0.3131(9) 0.3637(9) 0.0270(2)
C10L C 0.303(1) 0.420(1) 0.0294(3)
C9L C 0.303(1) 0.444(1) 0.0481(3)
H7L H 0.2936 0.4808 0.0499
H8L H 0.2952 0.4427 0.0184
H5L H 0.3405 0.2966 0.0404
H6L H 0.3405 0.3335 0.0720
C26L C 0.3733(9) 0.447(1) 0.0928(3)
C30L C 0.4271(9) 0.435(1) 0.0811(3)
H24L H 0.4578 0.4452 0.0888
H25L H 0.4270 0.4561 0.0695
H26L H 0.4291 0.3974 0.0780
C29L C 0.220(1) 0.431(1) 0.0848(3)
H21L H 0.1909 0.4400 0.0935
H22L H 0.2186 0.3936 0.0817
H23L H 0.2162 0.4524 0.0733
H30L H 0.1966 0.4716 0.1156
C31L C 0.329(1) 0.4830(8) 0.1442(3)
H27L H 0.3660 0.4872 0.1482
H28L H 0.3127 0.4536 0.1511
H29L H 0.3095 0.5158 0.1467
H19L H 0.4353 0.4425 0.1311
H20L H 0.4572 0.4691 0.1121
C18L C 0.414(1) 0.578(1) 0.1030(2)
H12L H 0.4100 0.5418 0.0983
H13L H 0.3806 0.5971 0.1020
H14L H 0.4414 0.5965 0.0955
H18L H 0.4577 0.6847 0.1153
Ag1L Ag 0.5797(1) 0.56293(8) 0.24829(2)
N2W N 0.3131(9) 0.8637(9) -0.0270(2)
Ag1EA Ag 0.0797(1) 0.56293(8) 0.25171(2)
Ag1AA Ag 0.31293(8) 0.3297(1) -0.00171(2)
N2S N 0.6137(9) 0.5631(9) 0.2770(2)
C32 C 0.072(2) 0.477(2) 0.0841(6)
C33 C 0.067(2) 0.433(2) 0.1023(6)
C34 C 0.073(2) 0.453(2) 0.1218(6)
C35 C 0.083(2) 0.514(2) 0.1199(5)
C36 C 0.088(2) 0.547(2) 0.1055(6)
C37 C 0.084(2) 0.536(2) 0.0864(6)
Cl1 Cl 0.0616(7) 0.3627(7) 0.1013(2)
Cl2 Cl 0.0661(8) 0.4274(9) 0.0636(3)
P1 P 0.2079 0.5922 0.0425
F1 F 0.2672 0.5768 0.0483
F2 F 0.2303 0.6310 0.0265
F3 F 0.1486 0.6076 0.0367
F4 F 0.1855 0.5534 0.0584
F5 F 0.2088 0.6399 0.0573
F6 F 0.2070 0.5445 0.0276
O1 O 0.347(1) 0.944(1) 0.0178(3)
O2 O 0.493(4) 0.788(3) 0.036(1)
O3 O -0.077(4) 0.655(4) 0.190(1)
O4 O 0.156(2) 0.717(2) 0.0132(7)
O5 O 0.068(1) 0.664(1) 0.1353(4)
O6 O 0.350(2) 0.586(2) 0.0616(8)
loop_
_geom_bond_atom_site_label_1
_geom_bond_atom_site_label_2
_geom_bond_site_symmetry_1
_geom_bond_site_symmetry_2
Ag1 N1 1_555 1_555
N1 C1 1_555 1_555
C1 C2 1_555 1_555
C2 C3 1_555 1_555
C3 C4 1_555 1_555
C4 C5 1_555 1_555
C5 N1 1_555 1_555
N2 C6 1_555 1_555
C6 C7 1_555 1_555
C7 C8 1_555 1_555
C8 C9 1_555 1_555
C9 C10 1_555 1_555
C10 N2 1_555 1_555
C11 C3 1_555 1_555
C12 C11 1_555 1_555
C13 C12 1_555 1_555
C14 C13 1_555 1_555
C15 C14 1_555 1_555
C16 C11 1_555 1_555
C17 C12 1_555 1_555
C18 C14 1_555 1_555
C19 C16 1_555 1_555
C20 C15 1_555 1_555
C21 C13 1_555 1_555
C22 C23 1_555 1_555
C23 C24 1_555 1_555
C24 C25 1_555 1_555
C25 C8 1_555 1_555
C26 C25 1_555 1_555
C27 C21 1_555 1_555
C28 C23 1_555 1_555
C29 C24 1_555 1_555
C30 C26 1_555 1_555
C31 C22 1_555 1_555
C32 C33 1_555 1_555
C33 C34 1_555 1_555
C34 C35 1_555 1_555
C35 C36 1_555 1_555
C36 C37 1_555 1_555
C37 C32 1_555 1_555
Cl1 C33 1_555 1_555
Cl2 C32 1_555 1_555
P1 F1 1_555 1_555
F2 P1 1_555 1_555
F3 P1 1_555 1_555
F4 P1 1_555 1_555
F5 P1 1_555 1_555
F6 P1 1_555 1_555
H1 C1 1_555 1_555
H2 C2 1_555 1_555
H3 C4 1_555 1_555
H4 C5 1_555 1_555
H5 C6 1_555 1_555
H6 C7 1_555 1_555
H7 C9 1_555 1_555
H8 C10 1_555 1_555
H9 C17 1_555 1_555
H10 C17 1_555 1_555
H11 C17 1_555 1_555
H12 C18 1_555 1_555
H13 C18 1_555 1_555
H14 C18 1_555 1_555
H15 C19 1_555 1_555
H16 C19 1_555 1_555
H17 C19 1_555 1_555
H18 C20 1_555 1_555
H19 C21 1_555 1_555
H20 C21 1_555 1_555
H21 C29 1_555 1_555
H22 C29 1_555 1_555
H23 C29 1_555 1_555
H24 C30 1_555 1_555
H25 C30 1_555 1_555
H26 C30 1_555 1_555
H27 C31 1_555 1_555
H28 C31 1_555 1_555
H29 C31 1_555 1_555
H30 C28 1_555 1_555
C15L C20 1_555 1_555
C14L C15L 1_555 1_555
C13L C14L 1_555 1_555
C12L C13L 1_555 1_555
C11L C12L 1_555 1_555
C3L C11L 1_555 1_555
C2L C3L 1_555 1_555
C1L C2L 1_555 1_555
N1L C1L 1_555 1_555
C5L N1L 1_555 1_555
C4L C3L 1_555 1_555
H3L C4L 1_555 1_555
H4L C5L 1_555 1_555
H1L C1L 1_555 1_555
H2L C2L 1_555 1_555
C16L C15L 1_555 1_555
C19L C16L 1_555 1_555
H15L C19L 1_555 1_555
H16L C19L 1_555 1_555
H17L C19L 1_555 1_555
C17L C12L 1_555 1_555
H9L C17L 1_555 1_555
H10L C17L 1_555 1_555
H11L C17L 1_555 1_555
C21L C13L 1_555 1_555
C27L C21L 1_555 1_555
C22L C27L 1_555 1_555
C23L C28 1_555 1_555
C24L C23L 1_555 1_555
C25L C24L 1_555 1_555
C8L C25L 1_555 1_555
C7L C8L 1_555 1_555
C6L C7L 1_555 1_555
N2L C6L 1_555 1_555
C10L N2L 1_555 1_555
C9L C8L 1_555 1_555
H7L C9L 1_555 1_555
H8L C10L 1_555 1_555
H5L C6L 1_555 1_555
H6L C7L 1_555 1_555
C26L C27L 1_555 1_555
C30L C26L 1_555 1_555
H24L C30L 1_555 1_555
H25L C30L 1_555 1_555
H26L C30L 1_555 1_555
C29L C24L 1_555 1_555
H21L C29L 1_555 1_555
H22L C29L 1_555 1_555
H23L C29L 1_555 1_555
H30L C28 1_555 1_555
C31L C22L 1_555 1_555
H27L C31L 1_555 1_555
H28L C31L 1_555 1_555
H29L C31L 1_555 1_555
H19L C21L 1_555 1_555
H20L C21L 1_555 1_555
C18L C14L 1_555 1_555
H12L C18L 1_555 1_555
H13L C18L 1_555 1_555
H14L C18L 1_555 1_555
H18L C20 1_555 1_555
Ag1L N1L 1_555 1_555
N2W Ag1 1_555 1_555
Ag1EA N2 1_555 1_555
Ag1AA N2L 1_555 1_555
N2S Ag1L 1_555 1_555
C15 C16 1_555 1_555
C22 C27 1_555 1_555
C26 C27 1_555 1_555
C11L C16L 1_555 1_555
C5L C4L 1_555 1_555
C22L C23L 1_555 1_555
C25L C26L 1_555 1_555
C10L C9L 1_555 1_555

#END
