
#######################################################################
#
#                 Cambridge Crystallographic Data Centre
#                                CCDC 
#
#######################################################################
#
# If this CIF has been generated from an entry in the Cambridge 
# Structural Database, then it will include bibliographic, chemical, 
# crystal, experimental, refinement or atomic coordinate data resulting 
# from the CCDC's data processing and validation procedures.
#
#######################################################################

data_QEGHAL
_symmetry_cell_setting           triclinic
_symmetry_space_group_name_H-M   'P -1'
_symmetry_Int_Tables_number      2
_space_group_name_Hall           '-P 1'
loop_
_symmetry_equiv_pos_site_id
_symmetry_equiv_pos_as_xyz
1 x,y,z
2 -x,-y,-z
_cell_length_a                   13.612(2)
_cell_length_b                   15.789(4)
_cell_length_c                   10.172(4)
_cell_angle_alpha                100.50(3)
_cell_angle_beta                 102.23(2)
_cell_angle_gamma                97.16(2)
_cell_volume                     2070.24
loop_
_atom_site_label
_atom_site_type_symbol
_atom_site_fract_x
_atom_site_fract_y
_atom_site_fract_z
Cl1 Cl 0.8638(2) 0.0575(1) 0.1700(2)
O1 O 0.8643(6) 0.1229(4) 0.2843(7)
O2 O 0.7730(5) -0.0022(5) 0.1266(7)
O3 O 0.8840(6) 0.0957(4) 0.0612(7)
O4 O 0.9425(6) 0.0108(5) 0.2166(10)
Cl2 Cl 0.2343(2) 0.4312(1) 0.8226(3)
O5 O 0.2242(5) 0.3848(4) 0.9233(7)
O6 O 0.152(1) 0.462(1) 0.773(2)
O7 O 0.249(1) 0.3739(8) 0.718(1)
O8 O 0.309(1) 0.4910(8) 0.859(1)
Cl3 Cl 0.6565(2) 0.2291(2) 0.6121(3)
O9 O 0.6484(6) 0.1566(4) 0.6738(8)
O10 O 0.5886(8) 0.2839(6) 0.644(1)
O11 O 0.6296(9) 0.2057(6) 0.4691(9)
O12 O 0.7521(6) 0.2740(8) 0.652(1)
N1 N 0.898(3) 0.435(2) 0.882(4)
C31 C 0.961(1) 0.481(1) 0.940(2)
C31A C 1.039(1) 0.519(1) 1.060(2)
N1A N 1.102(3) 0.565(2) 1.118(4)
Ag1 Ag 0.65232(4) 0.38757(4) 1.31766(7)
Ag2 Ag 0.21719(4) 0.19245(4) 0.87693(6)
Ag3 Ag 0.50197(6) -0.01378(6) 0.65142(7)
N2 N 0.7848(4) 0.4406(3) 1.5208(6)
N3 N 0.5035(4) 0.5872(4) 1.6684(6)
N4 N 0.7433(4) 0.2936(3) 1.2173(6)
N5 N 0.3876(4) 0.2108(4) 0.9318(6)
N6 N 0.0767(4) 0.1638(3) 0.6833(5)
N7 N 0.3718(5) 0.0433(5) 0.5940(7)
N8 N 0.0916(4) 0.1879(3) 1.0018(5)
N9 N 0.3763(5) 0.0760(5) 1.2730(6)
C1 C 0.8887(4) 0.4311(5) 1.5009(7)
C2 C 0.8932(5) 0.3406(5) 1.4187(8)
C3 C 0.8548(4) 0.3234(4) 1.2683(8)
C4 C -0.0088(5) 0.2097(5) 0.6938(8)
C5 C -0.0535(5) 0.1961(6) 0.8116(9)
C6 C 0.0114(5) 0.2391(5) 0.9544(8)
C7 C 0.7903(5) 0.5307(5) 1.5978(9)
C8 C 0.6885(5) 0.5487(4) 1.6221(8)
C9 C 0.6264(5) 0.5887(5) 1.5363(8)
C10 C 0.5361(5) 0.6078(4) 1.5632(8)
C11 C 0.5619(5) 0.5484(5) 1.7533(7)
C12 C 0.6543(6) 0.5282(5) 1.7322(8)
C13 C 0.7131(5) 0.2652(5) 1.0684(8)
C14 C 0.6001(5) 0.2440(5) 1.0165(7)
C15 C 0.5439(6) 0.3090(5) 0.9850(9)
C16 C 0.4409(6) 0.2895(5) 0.9440(8)
C17 C 0.4399(5) 0.1471(5) 0.9587(8)
C18 C 0.5448(5) 0.1622(5) 1.0017(8)
C19 C 0.1075(6) 0.1663(6) 0.5536(8)
C20 C 0.1984(5) 0.1228(5) 0.5549(7)
C21 C 0.1911(6) 0.0328(5) 0.5363(9)
C22 C 0.2785(7) -0.0036(5) 0.5591(9)
C23 C 0.3797(6) 0.1300(6) 0.6062(8)
C24 C 0.2950(6) 0.1708(5) 0.5875(8)
C25 C 0.1312(6) 0.2133(5) 1.1510(8)
C26 C 0.2168(5) 0.1642(5) 1.1954(6)
C27 C 0.1980(6) 0.0783(5) 1.1977(7)
C28 C 0.2789(7) 0.0353(5) 1.2350(8)
C29 C 0.3932(6) 0.1596(7) 1.2678(8)
C30 C 0.3173(6) 0.2057(5) 1.2280(7)
H1 H 0.7728 0.4024 1.5838
H2 H 0.7304 0.2407 1.2505
H3 H 0.0469 0.1030 0.6719
H4 H 0.0577 0.1277 0.9823
H5 H 0.9080 0.4746 1.4511
H6 H 0.9365 0.4441 1.5888
H7 H 0.9628 0.3304 1.4392
H8 H 0.8536 0.2974 1.4517
H9 H 0.8895 0.2814 1.2245
H10 H 0.8714 0.3774 1.2388
H11 H 0.0168 0.2719 0.7063
H12 H -0.0597 0.1932 0.6085
H13 H -0.1184 0.2160 0.8007
H14 H -0.0670 0.1341 0.8072
H15 H -0.0304 0.2468 1.0195
H16 H 0.0444 0.2964 0.9524
H17 H 0.8394 0.5421 1.6854
H18 H 0.8136 0.5713 1.5463
H19 H 0.7401 0.3111 1.0280
H20 H 0.7427 0.2147 1.0393
H21 H 0.0530 0.1384 0.4758
H22 H 0.1244 0.2266 0.5478
H23 H 0.1563 0.2751 1.1790
H24 H 0.0783 0.2008 1.1987
H25 H 0.6476 0.6049 1.4580
H26 H 0.4941 0.6372 1.5036
H27 H 0.5390 0.5347 1.8326
H28 H 0.6942 0.4987 1.7940
H29 H 0.5791 0.3677 0.9933
H30 H 0.4032 0.3353 0.9220
H31 H 0.4028 0.0887 0.9454
H32 H 0.5797 0.1153 1.0232
H33 H 0.1245 -0.0050 0.5099
H34 H 0.2711 -0.0673 0.5457
H35 H 0.4475 0.1649 0.6301
H36 H 0.3037 0.2347 0.5988
H37 H 0.1291 0.0476 1.1718
H38 H 0.2648 -0.0259 1.2343
H39 H 0.4628 0.1907 1.2960
H40 H 0.3329 0.2660 1.2229
N3A N 0.4965(4) 0.4128(4) 1.3316(6)
Ag1A Ag 0.34768(4) 0.61243(4) 1.68234(7)
N9A N 0.6237(5) -0.0760(5) 0.7270(6)
Ag3A Ag 0.49803(6) 0.01378(6) 1.34858(7)
loop_
_geom_bond_atom_site_label_1
_geom_bond_atom_site_label_2
_geom_bond_site_symmetry_1
_geom_bond_site_symmetry_2
Ag1 N2 1_555 1_555
Ag2 N5 1_555 1_555
Ag3 N7 1_555 1_555
Cl1 O1 1_555 1_555
Cl2 O5 1_555 1_555
Cl3 O9 1_555 1_555
O2 Cl1 1_555 1_555
O3 Cl1 1_555 1_555
O4 Cl1 1_555 1_555
O6 Cl2 1_555 1_555
O7 Cl2 1_555 1_555
O8 Cl2 1_555 1_555
O10 Cl3 1_555 1_555
O11 Cl3 1_555 1_555
O12 Cl3 1_555 1_555
N1 C31 1_555 1_555
N2 C1 1_555 1_555
N3 C10 1_555 1_555
N4 Ag1 1_555 1_555
N5 C16 1_555 1_555
N6 Ag2 1_555 1_555
N7 C22 1_555 1_555
N8 Ag2 1_555 1_555
N9 C28 1_555 1_555
C1 C2 1_555 1_555
C2 C3 1_555 1_555
C3 N4 1_555 1_555
C4 N6 1_555 1_555
C5 C4 1_555 1_555
C6 N8 1_555 1_555
C7 N2 1_555 1_555
C8 C7 1_555 1_555
C9 C8 1_555 1_555
C10 C9 1_555 1_555
C11 N3 1_555 1_555
C12 C8 1_555 1_555
C13 N4 1_555 1_555
C14 C13 1_555 1_555
C15 C14 1_555 1_555
C16 C15 1_555 1_555
C17 N5 1_555 1_555
C18 C14 1_555 1_555
C19 N6 1_555 1_555
C20 C19 1_555 1_555
C21 C20 1_555 1_555
C22 C21 1_555 1_555
C23 N7 1_555 1_555
C24 C20 1_555 1_555
C25 N8 1_555 1_555
C26 C25 1_555 1_555
C27 C26 1_555 1_555
C28 C27 1_555 1_555
C29 N9 1_555 1_555
C30 C26 1_555 1_555
C31 C31A 1_555 1_555
H1 N2 1_555 1_555
H2 N4 1_555 1_555
H3 N6 1_555 1_555
H4 N8 1_555 1_555
H5 C1 1_555 1_555
H6 C1 1_555 1_555
H7 C2 1_555 1_555
H8 C2 1_555 1_555
H9 C3 1_555 1_555
H10 C3 1_555 1_555
H11 C4 1_555 1_555
H12 C4 1_555 1_555
H13 C5 1_555 1_555
H14 C5 1_555 1_555
H15 C6 1_555 1_555
H16 C6 1_555 1_555
H17 C7 1_555 1_555
H18 C7 1_555 1_555
H19 C13 1_555 1_555
H20 C13 1_555 1_555
H21 C19 1_555 1_555
H22 C19 1_555 1_555
H23 C25 1_555 1_555
H24 C25 1_555 1_555
H25 C9 1_555 1_555
H26 C10 1_555 1_555
H27 C11 1_555 1_555
H28 C12 1_555 1_555
H29 C15 1_555 1_555
H30 C16 1_555 1_555
H31 C17 1_555 1_555
H32 C18 1_555 1_555
H33 C21 1_555 1_555
H34 C22 1_555 1_555
H35 C23 1_555 1_555
H36 C24 1_555 1_555
H37 C27 1_555 1_555
H38 C28 1_555 1_555
H39 C29 1_555 1_555
H40 C30 1_555 1_555
C31A N1A 1_555 1_555
N3A Ag1 1_555 1_555
Ag1A N3 1_555 1_555
N9A Ag3 1_555 1_555
Ag3A N9 1_555 1_555
C5 C6 1_555 1_555
C11 C12 1_555 1_555
C17 C18 1_555 1_555
C23 C24 1_555 1_555
C29 C30 1_555 1_555

#END
