
#######################################################################
#
#                 Cambridge Crystallographic Data Centre
#                                CCDC 
#
#######################################################################
#
# If this CIF has been generated from an entry in the Cambridge 
# Structural Database, then it will include bibliographic, chemical, 
# crystal, experimental, refinement or atomic coordinate data resulting 
# from the CCDC's data processing and validation procedures.
#
#######################################################################

data_QEGJAN
_symmetry_cell_setting           orthorhombic
_symmetry_space_group_name_H-M   'P n m a'
_symmetry_Int_Tables_number      62
_space_group_name_Hall           '-P 2ac 2n'
loop_
_symmetry_equiv_pos_site_id
_symmetry_equiv_pos_as_xyz
1 x,y,z
2 1/2-x,-y,1/2+z
3 1/2+x,1/2-y,1/2-z
4 -x,1/2+y,-z
5 -x,-y,-z
6 1/2+x,y,1/2-z
7 1/2-x,1/2+y,1/2+z
8 x,1/2-y,z
_cell_length_a                   17.5112(4)
_cell_length_b                   11.9955(4)
_cell_length_c                   7.4684(2)
_cell_angle_alpha                90
_cell_angle_beta                 90
_cell_angle_gamma                90
_cell_volume                     1568.78
loop_
_atom_site_label
_atom_site_type_symbol
_atom_site_fract_x
_atom_site_fract_y
_atom_site_fract_z
Mn1 Mn 0.5714(1) 0.2500 -0.6155(1)
O1 O 0.6845(2) 0.2500 -0.7414(5)
N1 N 0.6232(2) 0.1389(3) -0.4000(4)
N2 N 0.6835(2) 0.1365(3) -0.1137(5)
N3 N 0.5384(3) 0.1125(5) -0.7825(6)
N4 N 0.5224(5) -0.0885(8) -0.9185(12)
N5 N 0.4620(3) 0.2500 -0.4716(7)
N6 N 0.3727(7) 0.1795(8) -0.2588(15)
N7 N 0.3037(3) 0.2500 -0.0065(7)
C1 C 0.6536(2) 0.1878(3) -0.2547(5)
C2 C 0.6830(3) 0.0256(5) -0.1209(7)
C3 C 0.6542(3) -0.0344(5) -0.2618(8)
C4 C 0.6242(3) 0.0274(4) -0.4014(6)
C5 C 0.5319(5) 0.0120(9) -0.8484(10)
C6 C 0.5074(5) 0.1042(9) -0.9265(12)
C7 C 0.4196(4) 0.2500 -0.3698(10)
C8 C 0.3371(4) 0.2500 -0.1265(10)
N1G N 0.6232(2) 0.3611(3) -0.4000(4)
N3G N 0.5384(3) 0.3875(5) -0.7825(6)
C6D C 0.4926(5) -0.1042(9) -1.0735(12)
N6G N 0.3727(7) 0.3205(8) -0.2588(15)
C1G C 0.6536(2) 0.3122(3) -0.2547(5)
N4D N 0.4776(5) 0.0885(8) -1.0815(12)
N3D N 0.4616(3) -0.1125(5) -1.2175(6)
C5D C 0.4681(5) -0.0120(9) -1.1516(10)
C4G C 0.6242(3) 0.4726(4) -0.4014(6)
N2G N 0.6835(2) 0.3635(3) -0.1137(5)
C2G C 0.6830(3) 0.4744(5) -0.1209(7)
C3G C 0.6542(3) 0.5344(5) -0.2618(8)
Mn1C Mn 0.4286(1) -0.2500 -1.3845(1)
loop_
_geom_bond_atom_site_label_1
_geom_bond_atom_site_label_2
_geom_bond_site_symmetry_1
_geom_bond_site_symmetry_2
Mn1 O1 1_555 1_555
N1 Mn1 1_555 1_555
N2 C1 1_555 1_555
N3 Mn1 1_555 1_555
N4 C5 1_555 1_555
N5 Mn1 1_555 1_555
N6 C7 1_555 1_555
N7 C8 1_555 1_555
C1 N1 1_555 1_555
C2 N2 1_555 1_555
C3 C2 1_555 1_555
C4 N1 1_555 1_555
C5 N3 1_555 1_555
C6 N3 1_555 1_555
C7 N5 1_555 1_555
C8 N6 1_555 1_555
N1G Mn1 1_555 1_555
N3G Mn1 1_555 1_555
C6D N4 1_555 1_555
N6G N6 1_555 1_555
C1G C1 1_555 1_555
N4D C6 1_555 1_555
N3D C6D 1_555 1_555
C5D C6D 1_555 1_555
C4G N1G 1_555 1_555
N2G C1G 1_555 1_555
C2G N2G 1_555 1_555
C3G C4G 1_555 1_555
Mn1C N3D 1_555 1_555
C3 C4 1_555 1_555
C5 C6 1_555 1_555
C7 N6G 1_555 1_555
C8 N6G 1_555 1_555
N1G C1G 1_555 1_555
N4D C5D 1_555 1_555
N3D C5D 1_555 1_555
C2G C3G 1_555 1_555

#END
