
#######################################################################
#
#                 Cambridge Crystallographic Data Centre
#                                CCDC 
#
#######################################################################
#
# If this CIF has been generated from an entry in the Cambridge 
# Structural Database, then it will include bibliographic, chemical, 
# crystal, experimental, refinement or atomic coordinate data resulting 
# from the CCDC's data processing and validation procedures.
#
#######################################################################

data_QEGNUN
_symmetry_cell_setting           monoclinic
_symmetry_space_group_name_H-M   'C 2/c'
_symmetry_Int_Tables_number      15
_space_group_name_Hall           '-C 2yn'
loop_
_symmetry_equiv_pos_site_id
_symmetry_equiv_pos_as_xyz
1 x,y,z
2 -x,y,1/2-z
3 1/2+x,1/2+y,z
4 1/2-x,1/2+y,1/2-z
5 -x,-y,-z
6 x,-y,1/2+z
7 1/2-x,1/2-y,-z
8 1/2+x,1/2-y,1/2+z
_cell_length_a                   15.884(3)
_cell_length_b                   22.496(5)
_cell_length_c                   13.204(3)
_cell_angle_alpha                90
_cell_angle_beta                 92.11(3)
_cell_angle_gamma                90
_cell_volume                     4714.94
loop_
_atom_site_label
_atom_site_type_symbol
_atom_site_fract_x
_atom_site_fract_y
_atom_site_fract_z
Co1 Co -0.40981(6) 0.02716(3) 0.48663(6)
Co2 Co -0.5000 0.01666(5) 0.2500
O1 O -0.5284(3) 0.02455(17) 0.4050(3)
H1 H -0.554(6) 0.055(4) 0.409(7)
O2 O -0.4464(4) 0.10503(19) 0.5605(3)
H2 H -0.471(5) 0.139(2) 0.537(5)
H3 H -0.428(5) 0.109(3) 0.625(3)
N1 N -0.3133(4) 0.1307(2) 0.3718(4)
N2 N -0.3667(4) 0.0850(2) 0.3701(4)
N3 N -0.4075(3) 0.0834(2) 0.2817(4)
N4 N -0.3840(4) 0.1274(2) 0.2228(4)
N5 N -0.1666(4) 0.4020(2) 0.0869(4)
N6 N -0.1214(3) 0.4512(2) 0.1034(4)
N7 N -0.0835(3) 0.4492(2) 0.1948(4)
N8 N -0.1035(4) 0.3978(2) 0.2392(4)
N9 N -0.2906(4) 0.0234(3) 0.5738(4)
N10 N 0.0181(6) 0.2735(4) 1.0158(7)
C1 C -0.3247(5) 0.1556(3) 0.2800(5)
C2 C -0.2784(5) 0.2090(3) 0.2485(5)
C3 C -0.2939(5) 0.2351(3) 0.1536(5)
H4 H -0.3327 0.2177 0.1083
C4 C -0.2529(5) 0.2861(3) 0.1262(5)
H5 H -0.2633 0.3022 0.0622
C5 C -0.1959(5) 0.3137(3) 0.1937(5)
C6 C -0.1793(6) 0.2866(3) 0.2879(5)
H6 H -0.1398 0.3032 0.3332
C7 C -0.2217(6) 0.2351(4) 0.3139(5)
H7 H -0.2110 0.2181 0.3774
C8 C -0.1555(5) 0.3701(3) 0.1711(5)
C9 C -0.2690(8) -0.0268(5) 0.6212(9)
H8 H -0.2941 -0.0622 0.5997
C10 C -0.2101(8) -0.0282(5) 0.7020(9)
H9 H -0.1953 -0.0643 0.7321
C11 C -0.1740(8) 0.0231(5) 0.7372(9)
C12 C -0.1937(7) 0.0751(5) 0.6822(9)
H10 H -0.1676 0.1108 0.6996
C13 C -0.2516(8) 0.0727(5) 0.6026(9)
H11 H -0.2640 0.1076 0.5673
C14 C -0.1175(8) 0.0244(5) 0.8293(9)
H12 H -0.1436 0.0013 0.8817
H13 H -0.0653 0.0047 0.8137
C15 C -0.0970(7) 0.0835(5) 0.8711(9)
H14 H -0.1494 0.1017 0.8902
H15 H -0.0755 0.1072 0.8164
C16 C -0.0344(8) 0.0896(5) 0.9620(9)
H16 H -0.0586 0.0707 1.0202
H17 H 0.0166 0.0681 0.9469
C17 C 0.0424(7) 0.2440(5) 0.9418(9)
H18 H 0.0690 0.2649 0.8913
C18 C 0.0333(7) 0.1829(5) 0.9280(9)
H19 H 0.0588 0.1641 0.8745
C19 C -0.0109(8) 0.1525(6) 0.9902(10)
C20 C -0.0433(9) 0.1831(7) 1.0663(11)
H20 H -0.0784 0.1648 1.1117
C21 C -0.0234(9) 0.2421(6) 1.0756(10)
H21 H -0.0427 0.2613 1.1327
Co1A Co -0.59019(6) 0.02716(3) 0.01337(6)
Co1D Co -0.59019(6) -0.02716(3) 0.51337(6)
Co1C Co -0.09019(6) 0.52716(3) 0.01337(6)
Co1E Co -0.40981(6) -0.02716(3) -0.01337(6)
Co1B Co -0.90981(6) 0.52716(3) 0.48663(6)
Co2B Co 0.0000 0.51666(5) 0.2500
Co2B_2 Co -1.0000 0.51666(5) 0.2500
O1A O -0.4716(3) 0.02455(17) 0.0950(3)
O1D O -0.4716(3) -0.02455(17) 0.5950(3)
O1E O -0.5284(3) -0.02455(17) -0.0950(3)
H1A H -0.446(6) 0.055(4) 0.091(7)
H1D H -0.446(6) -0.055(4) 0.591(7)
H1E H -0.554(6) -0.055(4) -0.091(7)
O2A O -0.5536(4) 0.10503(19) -0.0605(3)
H2A H -0.529(5) 0.139(2) -0.037(5)
H3A H -0.572(5) 0.109(3) -0.125(3)
N1A N -0.6867(4) 0.1307(2) 0.1282(4)
N2A N -0.6333(4) 0.0850(2) 0.1299(4)
N3A N -0.5925(3) 0.0834(2) 0.2183(4)
N4A N -0.6160(4) 0.1274(2) 0.2772(4)
N5A N -0.8334(4) 0.4020(2) 0.4131(4)
N6A N -0.8786(3) 0.4512(2) 0.3966(4)
N6C N -0.3786(3) -0.0488(2) 0.3966(4)
N6B N -0.6214(3) -0.0488(2) 0.1034(4)
N7A N -0.9165(3) 0.4492(2) 0.3052(4)
N7B N -0.5835(3) -0.0508(2) 0.1948(4)
N7C N -0.4165(3) -0.0508(2) 0.3052(4)
N8A N -0.8965(4) 0.3978(2) 0.2608(4)
N9A N -0.7094(4) 0.0234(3) -0.0738(4)
N10A N -1.0181(6) 0.2735(4) -0.5158(7)
C1A C -0.6753(5) 0.1556(3) 0.2200(5)
C2A C -0.7216(5) 0.2090(3) 0.2515(5)
C3A C -0.7061(5) 0.2351(3) 0.3464(5)
H4A H -0.6673 0.2177 0.3917
C4A C -0.7471(5) 0.2861(3) 0.3738(5)
H5A H -0.7367 0.3022 0.4378
C5A C -0.8041(5) 0.3137(3) 0.3063(5)
C6A C -0.8207(6) 0.2866(3) 0.2121(5)
H6A H -0.8602 0.3032 0.1668
C7A C -0.7783(6) 0.2351(4) 0.1861(5)
H7A H -0.7890 0.2181 0.1226
C8A C -0.8445(5) 0.3701(3) 0.3289(5)
C9A C -0.7310(8) -0.0268(5) -0.1212(9)
H8A H -0.7059 -0.0622 -0.0997
C10A C -0.7899(8) -0.0282(5) -0.2020(9)
H9A H -0.8047 -0.0643 -0.2321
C11A C -0.8260(8) 0.0231(5) -0.2372(9)
C12A C -0.8063(7) 0.0751(5) -0.1822(9)
H10A H -0.8324 0.1108 -0.1996
C13A C -0.7484(8) 0.0727(5) -0.1026(9)
H11A H -0.7360 0.1076 -0.0673
C14A C -0.8825(8) 0.0244(5) -0.3293(9)
H12A H -0.8564 0.0013 -0.3817
H13A H -0.9347 0.0047 -0.3137
C15A C -0.9030(7) 0.0835(5) -0.3711(9)
H14A H -0.8506 0.1017 -0.3902
H15A H -0.9245 0.1072 -0.3164
C16A C -0.9656(8) 0.0896(5) -0.4620(9)
H16A H -0.9414 0.0707 -0.5202
H17A H -1.0166 0.0681 -0.4469
C17A C -1.0424(7) 0.2440(5) -0.4418(9)
H18A H -1.0690 0.2649 -0.3913
C18A C -1.0333(7) 0.1829(5) -0.4280(9)
H19A H -1.0588 0.1641 -0.3745
C19A C -0.9891(8) 0.1525(6) -0.4902(10)
C20A C -0.9567(9) 0.1831(7) -0.5663(11)
H20A H -0.9216 0.1648 -0.6117
C21A C -0.9766(9) 0.2421(6) -0.5756(10)
H21A H -0.9573 0.2613 -0.6327
loop_
_geom_bond_atom_site_label_1
_geom_bond_atom_site_label_2
_geom_bond_site_symmetry_1
_geom_bond_site_symmetry_2
Co1 O1 1_555 1_555
Co2 O1 1_555 1_555
O1 H1 1_555 1_555
O2 Co1 1_555 1_555
H2 O2 1_555 1_555
H3 O2 1_555 1_555
N1 N2 1_555 1_555
N2 Co1 1_555 1_555
N3 Co2 1_555 1_555
N4 N3 1_555 1_555
N5 N6 1_555 1_555
N6 N7 1_555 1_555
N7 N8 1_555 1_555
N8 C8 1_555 1_555
N9 Co1 1_555 1_555
N10 C17 1_555 1_555
C1 N1 1_555 1_555
C2 C1 1_555 1_555
C3 C2 1_555 1_555
H4 C3 1_555 1_555
C4 C3 1_555 1_555
H5 C4 1_555 1_555
C5 C4 1_555 1_555
C6 C5 1_555 1_555
H6 C6 1_555 1_555
C7 C2 1_555 1_555
H7 C7 1_555 1_555
C8 N5 1_555 1_555
C9 N9 1_555 1_555
H8 C9 1_555 1_555
C10 C9 1_555 1_555
H9 C10 1_555 1_555
C11 C10 1_555 1_555
C12 C11 1_555 1_555
H10 C12 1_555 1_555
C13 N9 1_555 1_555
H11 C13 1_555 1_555
C14 C11 1_555 1_555
H12 C14 1_555 1_555
H13 C14 1_555 1_555
C15 C14 1_555 1_555
H14 C15 1_555 1_555
H15 C15 1_555 1_555
C16 C15 1_555 1_555
H16 C16 1_555 1_555
H17 C16 1_555 1_555
C17 H18 1_555 1_555
C18 C17 1_555 1_555
H19 C18 1_555 1_555
C19 C16 1_555 1_555
C20 C19 1_555 1_555
H20 C20 1_555 1_555
C21 N10 1_555 1_555
H21 C21 1_555 1_555
Co1A O1A 1_555 1_555
Co1D O1 1_555 1_555
Co1C N6 1_555 1_555
Co1E O1A 1_555 1_555
Co1B N6A 1_555 1_555
Co2B N7 1_555 1_555
Co2B_2 N7A 1_555 1_555
O1A Co2 1_555 1_555
O1D Co1 1_555 1_555
O1E Co1A 1_555 1_555
H1A O1A 1_555 1_555
H1D O1D 1_555 1_555
H1E O1E 1_555 1_555
O2A Co1A 1_555 1_555
H2A O2A 1_555 1_555
H3A O2A 1_555 1_555
N1A N2A 1_555 1_555
N2A Co1A 1_555 1_555
N3A Co2 1_555 1_555
N4A N3A 1_555 1_555
N5A N6A 1_555 1_555
N6A N7A 1_555 1_555
N6C Co1 1_555 1_555
N6B Co1A 1_555 1_555
N7A N8A 1_555 1_555
N7B Co2 1_555 1_555
N7C Co2 1_555 1_555
N8A C8A 1_555 1_555
N9A Co1A 1_555 1_555
N10A C17A 1_555 1_555
C1A N1A 1_555 1_555
C2A C1A 1_555 1_555
C3A C2A 1_555 1_555
H4A C3A 1_555 1_555
C4A C3A 1_555 1_555
H5A C4A 1_555 1_555
C5A C4A 1_555 1_555
C6A C5A 1_555 1_555
H6A C6A 1_555 1_555
C7A C2A 1_555 1_555
H7A C7A 1_555 1_555
C8A N5A 1_555 1_555
C9A N9A 1_555 1_555
H8A C9A 1_555 1_555
C10A C9A 1_555 1_555
H9A C10A 1_555 1_555
C11A C10A 1_555 1_555
C12A C11A 1_555 1_555
H10A C12A 1_555 1_555
C13A N9A 1_555 1_555
H11A C13A 1_555 1_555
C14A C11A 1_555 1_555
H12A C14A 1_555 1_555
H13A C14A 1_555 1_555
C15A C14A 1_555 1_555
H14A C15A 1_555 1_555
H15A C15A 1_555 1_555
C16A C15A 1_555 1_555
H16A C16A 1_555 1_555
H17A C16A 1_555 1_555
C17A H18A 1_555 1_555
C18A C17A 1_555 1_555
H19A C18A 1_555 1_555
C19A C16A 1_555 1_555
C20A C19A 1_555 1_555
H20A C20A 1_555 1_555
C21A N10A 1_555 1_555
H21A C21A 1_555 1_555
N2 N3 1_555 1_555
N4 C1 1_555 1_555
C5 C8 1_555 1_555
C6 C7 1_555 1_555
C12 C13 1_555 1_555
C18 C19 1_555 1_555
C20 C21 1_555 1_555
Co1D O1D 1_555 1_555
Co1E O1E 1_555 1_555
N2A N3A 1_555 1_555
N4A C1A 1_555 1_555
N6C N7C 1_555 1_555
N6B N7B 1_555 1_555
C5A C8A 1_555 1_555
C6A C7A 1_555 1_555
C12A C13A 1_555 1_555
C18A C19A 1_555 1_555
C20A C21A 1_555 1_555

#END
