
#######################################################################
#
#                 Cambridge Crystallographic Data Centre
#                                CCDC 
#
#######################################################################
#
# If this CIF has been generated from an entry in the Cambridge 
# Structural Database, then it will include bibliographic, chemical, 
# crystal, experimental, refinement or atomic coordinate data resulting 
# from the CCDC's data processing and validation procedures.
#
#######################################################################

data_QEGPOJ
_symmetry_cell_setting           monoclinic
_symmetry_space_group_name_H-M   'C 2/m'
_symmetry_Int_Tables_number      12
_space_group_name_Hall           '-C 2y'
loop_
_symmetry_equiv_pos_site_id
_symmetry_equiv_pos_as_xyz
1 x,y,z
2 -x,y,-z
3 1/2+x,1/2+y,z
4 1/2-x,1/2+y,-z
5 -x,-y,-z
6 x,-y,z
7 1/2-x,1/2-y,-z
8 1/2+x,1/2-y,z
_cell_length_a                   8.3514(15)
_cell_length_b                   14.097(3)
_cell_length_c                   5.3568(10)
_cell_angle_alpha                90
_cell_angle_beta                 111.342(2)
_cell_angle_gamma                90
_cell_volume                     587.407
loop_
_atom_site_label
_atom_site_type_symbol
_atom_site_fract_x
_atom_site_fract_y
_atom_site_fract_z
Ce1 Ce 0.0000 0.273539(14) 0.5000
P1 P 0.24588(9) 0.11044(5) 0.87167(14)
O1 O 0.2894(3) 0.18913(14) 0.7093(4)
O2 O 0.0509(3) 0.12605(15) 0.8145(4)
O3 O 0.3520(3) 0.11289(15) 1.1664(4)
C1 C 0.2735(5) 0.0000 0.7265(8)
H1 H 0.1943 0.0000 0.5416
H2 H 0.3886 0.0000 0.7222
Ce1F Ce 0.5000 0.226461(14) 0.5000
Ce1F_2 Ce 0.5000 0.226461(14) 1.5000
Ce1D Ce 0.0000 -0.273539(14) 0.5000
Ce1B Ce 0.5000 -0.226461(14) 0.5000
Ce1B_2 Ce 0.5000 -0.226461(14) 1.5000
P1E P 0.24588(9) -0.11044(5) 0.87167(14)
O1E O 0.2894(3) -0.18913(14) 0.7093(4)
O1A O -0.2894(3) 0.18913(14) 0.2907(4)
O1F O 0.2106(3) 0.31087(14) 0.2907(4)
O1G O -0.2106(3) 0.31087(14) 0.7093(4)
O2E O 0.0509(3) -0.12605(15) 0.8145(4)
O2A O -0.0509(3) 0.12605(15) 0.1855(4)
O3E O 0.3520(3) -0.11289(15) 1.1664(4)
O3F O 0.1480(3) 0.38711(15) 0.8336(4)
O3G O -0.1480(3) 0.38711(15) 0.1664(4)
loop_
_geom_bond_atom_site_label_1
_geom_bond_atom_site_label_2
_geom_bond_site_symmetry_1
_geom_bond_site_symmetry_2
Ce1 O1 1_555 1_555
P1 O1 1_555 1_555
O1 Ce1F 1_555 1_555
O2 Ce1 1_555 1_555
O3 P1 1_555 1_555
C1 P1 1_555 1_555
H1 C1 1_555 1_555
H2 C1 1_555 1_555
Ce1F O1F 1_555 1_555
Ce1F_2 O3 1_555 1_555
Ce1D O1E 1_555 1_555
Ce1B O1E 1_555 1_555
Ce1B_2 O3E 1_555 1_555
P1E C1 1_555 1_555
O1E P1E 1_555 1_555
O1A Ce1 1_555 1_555
O1F Ce1 1_555 1_555
O1G Ce1 1_555 1_555
O2E Ce1D 1_555 1_555
O2A Ce1 1_555 1_555
O3E P1E 1_555 1_555
O3F Ce1 1_555 1_555
O3G Ce1 1_555 1_555
P1 O2 1_555 1_555
P1E O2E 1_555 1_555

#END
