
#######################################################################
#
#                 Cambridge Crystallographic Data Centre
#                                CCDC 
#
#######################################################################
#
# If this CIF has been generated from an entry in the Cambridge 
# Structural Database, then it will include bibliographic, chemical, 
# crystal, experimental, refinement or atomic coordinate data resulting 
# from the CCDC's data processing and validation procedures.
#
#######################################################################

data_QEGPID
_symmetry_cell_setting           monoclinic
_symmetry_space_group_name_H-M   'C 2/m'
_symmetry_Int_Tables_number      12
_space_group_name_Hall           '-C 2y'
loop_
_symmetry_equiv_pos_site_id
_symmetry_equiv_pos_as_xyz
1 x,y,z
2 -x,y,-z
3 1/2+x,1/2+y,z
4 1/2-x,1/2+y,-z
5 -x,-y,-z
6 x,-y,z
7 1/2-x,1/2-y,-z
8 1/2+x,1/2-y,z
_cell_length_a                   8.4055(15)
_cell_length_b                   14.145(3)
_cell_length_c                   5.3953(10)
_cell_angle_alpha                90
_cell_angle_beta                 111.162(2)
_cell_angle_gamma                90
_cell_volume                     598.219
loop_
_atom_site_label
_atom_site_type_symbol
_atom_site_fract_x
_atom_site_fract_y
_atom_site_fract_z
La1 La 0.0000 0.27344(3) 0.0000
P1 P 0.24565(14) 0.11022(8) 0.3724(2)
O1 O 0.2889(4) 0.1881(2) 0.2101(6)
O2 O 0.0512(4) 0.1257(2) 0.3153(6)
O3 O 0.3506(4) 0.1124(2) 0.6647(6)
C1 C 0.2718(8) 0.0000 0.2267(13)
H1 H 0.3855 0.0000 0.2197
H2 H 0.1921 0.0000 0.0444
La1F La 0.5000 0.22656(3) 0.0000
La1F_2 La 0.5000 0.22656(3) 1.0000
La1D La 0.0000 -0.27344(3) 0.0000
La1B La 0.5000 -0.22656(3) 0.0000
La1B_2 La 0.5000 -0.22656(3) 1.0000
P1E P 0.24565(14) -0.11022(8) 0.3724(2)
O1E O 0.2889(4) -0.1881(2) 0.2101(6)
O1A O -0.2889(4) 0.1881(2) -0.2101(6)
O1F O 0.2111(4) 0.3119(2) -0.2101(6)
O1G O -0.2111(4) 0.3119(2) 0.2101(6)
O2E O 0.0512(4) -0.1257(2) 0.3153(6)
O2A O -0.0512(4) 0.1257(2) -0.3153(6)
O3E O 0.3506(4) -0.1124(2) 0.6647(6)
O3F O 0.1494(4) 0.3876(2) 0.3353(6)
O3G O -0.1494(4) 0.3876(2) -0.3353(6)
loop_
_geom_bond_atom_site_label_1
_geom_bond_atom_site_label_2
_geom_bond_site_symmetry_1
_geom_bond_site_symmetry_2
La1 O1 1_555 1_555
P1 O1 1_555 1_555
O1 La1F 1_555 1_555
O2 La1 1_555 1_555
O3 P1 1_555 1_555
C1 P1 1_555 1_555
H1 C1 1_555 1_555
H2 C1 1_555 1_555
La1F O1F 1_555 1_555
La1F_2 O3 1_555 1_555
La1D O1E 1_555 1_555
La1B O1E 1_555 1_555
La1B_2 O3E 1_555 1_555
P1E C1 1_555 1_555
O1E P1E 1_555 1_555
O1A La1 1_555 1_555
O1F La1 1_555 1_555
O1G La1 1_555 1_555
O2E La1D 1_555 1_555
O2A La1 1_555 1_555
O3E P1E 1_555 1_555
O3F La1 1_555 1_555
O3G La1 1_555 1_555
P1 O2 1_555 1_555
P1E O2E 1_555 1_555

#END
