
#######################################################################
#
#                 Cambridge Crystallographic Data Centre
#                                CCDC 
#
#######################################################################
#
# If this CIF has been generated from an entry in the Cambridge 
# Structural Database, then it will include bibliographic, chemical, 
# crystal, experimental, refinement or atomic coordinate data resulting 
# from the CCDC's data processing and validation procedures.
#
#######################################################################

data_QEGQEZ
_symmetry_cell_setting           monoclinic
_symmetry_space_group_name_H-M   'P 21/n'
_symmetry_Int_Tables_number      14
_space_group_name_Hall           '-P 2yn'
loop_
_symmetry_equiv_pos_site_id
_symmetry_equiv_pos_as_xyz
1 x,y,z
2 1/2-x,1/2+y,1/2-z
3 -x,-y,-z
4 1/2+x,1/2-y,1/2+z
_cell_length_a                   10.6895(17)
_cell_length_b                   9.1164(11)
_cell_length_c                   10.8987(17)
_cell_angle_alpha                90
_cell_angle_beta                 96.874(19)
_cell_angle_gamma                90
_cell_volume                     1054.44
loop_
_atom_site_label
_atom_site_type_symbol
_atom_site_fract_x
_atom_site_fract_y
_atom_site_fract_z
Hg1 Hg 0.57586(3) 0.13677(4) 0.86856(3)
Cl1 Cl 0.4189(2) 0.1950(3) 0.9859(2)
O1 O 0.6454(7) 0.0911(8) 0.2511(6)
O2 O 0.4910(6) 0.2470(7) 0.6016(6)
O3 O 0.7745(7) 0.0826(9) 1.0354(7)
N1 N 0.5711(6) 0.1720(7) 0.4260(6)
N2 N 0.7396(7) 0.0022(8) 0.4313(6)
N3 N 0.6866(7) 0.0525(8) 0.7406(7)
N4 N 0.8193(7) -0.0837(8) 0.6405(6)
C1 C 0.4823(9) 0.2702(11) 0.3505(9)
C2 C 0.6524(8) 0.0895(9) 0.3615(8)
C3 C 0.8368(11) -0.0728(12) 0.3692(10)
C4 C 0.7435(8) -0.0016(8) 0.5581(7)
C5 C 0.6599(8) 0.0811(9) 0.6163(8)
C6 C 0.5680(8) 0.1734(9) 0.5538(8)
C7 C 0.7809(9) -0.0447(9) 0.7504(9)
Hg1A Hg 0.92414(3) -0.36323(4) 0.63144(3)
N4A N 0.6807(7) 0.4163(8) 0.8595(6)
loop_
_geom_bond_atom_site_label_1
_geom_bond_atom_site_label_2
_geom_bond_site_symmetry_1
_geom_bond_site_symmetry_2
Hg1 Cl1 1_555 1_555
O1 C2 1_555 1_555
O2 C6 1_555 1_555
O3 Hg1 1_555 1_555
N1 C1 1_555 1_555
N2 C2 1_555 1_555
N3 Hg1 1_555 1_555
N4 C4 1_555 1_555
C2 N1 1_555 1_555
C3 N2 1_555 1_555
C4 N2 1_555 1_555
C5 N3 1_555 1_555
C6 N1 1_555 1_555
C7 N3 1_555 1_555
Hg1A N4 1_555 1_555
N4A Hg1 1_555 1_555
N4 C7 1_555 1_555
C4 C5 1_555 1_555
C5 C6 1_555 1_555

#END
