
#######################################################################
#
#                 Cambridge Crystallographic Data Centre
#                                CCDC 
#
#######################################################################
#
# If this CIF has been generated from an entry in the Cambridge 
# Structural Database, then it will include bibliographic, chemical, 
# crystal, experimental, refinement or atomic coordinate data resulting 
# from the CCDC's data processing and validation procedures.
#
#######################################################################

data_QEGQEA
_symmetry_cell_setting           monoclinic
_symmetry_space_group_name_H-M   'C 2/m'
_symmetry_Int_Tables_number      12
_space_group_name_Hall           '-C 2y'
loop_
_symmetry_equiv_pos_site_id
_symmetry_equiv_pos_as_xyz
1 x,y,z
2 -x,y,-z
3 1/2+x,1/2+y,z
4 1/2-x,1/2+y,-z
5 -x,-y,-z
6 x,-y,z
7 1/2-x,1/2-y,-z
8 1/2+x,1/2-y,z
_cell_length_a                   8.207(2)
_cell_length_b                   13.938(4)
_cell_length_c                   5.303(3)
_cell_angle_alpha                90
_cell_angle_beta                 111.725(2)
_cell_angle_gamma                90
_cell_volume                     563.519
loop_
_atom_site_label
_atom_site_type_symbol
_atom_site_fract_x
_atom_site_fract_y
_atom_site_fract_z
Sm1 Sm 0.0000 0.22766(2) 0.0000
P1 P 0.24749(14) 0.38800(8) 0.3719(2)
O1 O 0.0482(4) 0.3711(2) 0.3105(6)
O2 O 0.2911(4) 0.3092(2) 0.2074(6)
O3 O 0.3546(4) 0.3854(2) 0.6724(6)
C1 C 0.2741(8) 0.5000 0.2258(12)
H1 H 0.3933 0.5000 0.2203
H2 H 0.1905 0.5000 0.0350
Sm1F Sm 0.5000 0.27234(2) 0.0000
Sm1F_2 Sm 0.5000 0.27234(2) 1.0000
Sm1D Sm 0.0000 0.77234(2) 0.0000
Sm1B Sm 0.5000 0.72766(2) 0.0000
Sm1B_2 Sm 0.5000 0.72766(2) 1.0000
P1E P 0.24749(14) 0.61200(8) 0.3719(2)
O1E O 0.0482(4) 0.6289(2) 0.3105(6)
O1A O -0.0482(4) 0.3711(2) -0.3105(6)
O2E O 0.2911(4) 0.6908(2) 0.2074(6)
O2A O -0.2911(4) 0.3092(2) -0.2074(6)
O2F O 0.2089(4) 0.1908(2) -0.2074(6)
O2G O -0.2089(4) 0.1908(2) 0.2074(6)
O3E O 0.3546(4) 0.6146(2) 0.6724(6)
O3F O 0.1454(4) 0.1146(2) 0.3276(6)
O3G O -0.1454(4) 0.1146(2) -0.3276(6)
loop_
_geom_bond_atom_site_label_1
_geom_bond_atom_site_label_2
_geom_bond_site_symmetry_1
_geom_bond_site_symmetry_2
Sm1 O1 1_555 1_555
P1 O1 1_555 1_555
O2 Sm1 1_555 1_555
O3 P1 1_555 1_555
C1 P1 1_555 1_555
H1 C1 1_555 1_555
H2 C1 1_555 1_555
Sm1F O2 1_555 1_555
Sm1F_2 O3 1_555 1_555
Sm1D O1E 1_555 1_555
Sm1B O2E 1_555 1_555
Sm1B_2 O3E 1_555 1_555
P1E C1 1_555 1_555
O1E P1E 1_555 1_555
O1A Sm1 1_555 1_555
O2E Sm1D 1_555 1_555
O2A Sm1 1_555 1_555
O2F Sm1 1_555 1_555
O2G Sm1 1_555 1_555
O3E P1E 1_555 1_555
O3F Sm1 1_555 1_555
O3G Sm1 1_555 1_555
P1 O2 1_555 1_555
Sm1F O2F 1_555 1_555
P1E O2E 1_555 1_555

#END
