
#######################################################################
#
#                 Cambridge Crystallographic Data Centre
#                                CCDC 
#
#######################################################################
#
# If this CIF has been generated from an entry in the Cambridge 
# Structural Database, then it will include bibliographic, chemical, 
# crystal, experimental, refinement or atomic coordinate data resulting 
# from the CCDC's data processing and validation procedures.
#
#######################################################################

data_QEGQAW
_symmetry_cell_setting           monoclinic
_symmetry_space_group_name_H-M   'C 2/m'
_symmetry_Int_Tables_number      12
_space_group_name_Hall           '-C 2y'
loop_
_symmetry_equiv_pos_site_id
_symmetry_equiv_pos_as_xyz
1 x,y,z
2 -x,y,-z
3 1/2+x,1/2+y,z
4 1/2-x,1/2+y,-z
5 -x,-y,-z
6 x,-y,z
7 1/2-x,1/2-y,-z
8 1/2+x,1/2-y,z
_cell_length_a                   8.2640(13)
_cell_length_b                   14.008(2)
_cell_length_c                   5.3404(8)
_cell_angle_alpha                90
_cell_angle_beta                 111.557(2)
_cell_angle_gamma                90
_cell_volume                     574.973
loop_
_atom_site_label
_atom_site_type_symbol
_atom_site_fract_x
_atom_site_fract_y
_atom_site_fract_z
Nd1 Nd 0.0000 0.22762(2) 0.5000
P1 P 0.24684(14) 0.38855(8) 0.8722(2)
O1 O 0.2916(4) 0.3098(2) 0.7094(6)
O2 O 0.0486(4) 0.3721(2) 0.8104(6)
O3 O 0.3530(4) 0.3860(2) 1.1706(6)
C1 C 0.2727(7) 0.5000 0.7258(12)
H1 H 0.1892 0.5000 0.5372
H2 H 0.3907 0.5000 0.7186
Nd1F Nd 0.5000 0.27238(2) 0.5000
Nd1F_2 Nd 0.5000 0.27238(2) 1.5000
Nd1D Nd 0.0000 0.77238(2) 0.5000
Nd1B Nd 0.5000 0.72762(2) 0.5000
Nd1B_2 Nd 0.5000 0.72762(2) 1.5000
P1E P 0.24684(14) 0.61145(8) 0.8722(2)
O1E O 0.2916(4) 0.6902(2) 0.7094(6)
O1A O -0.2916(4) 0.3098(2) 0.2906(6)
O1F O 0.2084(4) 0.1902(2) 0.2906(6)
O1G O -0.2084(4) 0.1902(2) 0.7094(6)
O2E O 0.0486(4) 0.6279(2) 0.8104(6)
O2A O -0.0486(4) 0.3721(2) 0.1896(6)
O3E O 0.3530(4) 0.6140(2) 1.1706(6)
O3F O 0.1470(4) 0.1140(2) 0.8294(6)
O3G O -0.1470(4) 0.1140(2) 0.1706(6)
loop_
_geom_bond_atom_site_label_1
_geom_bond_atom_site_label_2
_geom_bond_site_symmetry_1
_geom_bond_site_symmetry_2
Nd1 O1 1_555 1_555
P1 O1 1_555 1_555
O1 Nd1F 1_555 1_555
O2 Nd1 1_555 1_555
O3 P1 1_555 1_555
C1 P1 1_555 1_555
H1 C1 1_555 1_555
H2 C1 1_555 1_555
Nd1F O1F 1_555 1_555
Nd1F_2 O3 1_555 1_555
Nd1D O1E 1_555 1_555
Nd1B O1E 1_555 1_555
Nd1B_2 O3E 1_555 1_555
P1E C1 1_555 1_555
O1E P1E 1_555 1_555
O1A Nd1 1_555 1_555
O1F Nd1 1_555 1_555
O1G Nd1 1_555 1_555
O2E Nd1D 1_555 1_555
O2A Nd1 1_555 1_555
O3E P1E 1_555 1_555
O3F Nd1 1_555 1_555
O3G Nd1 1_555 1_555
P1 O2 1_555 1_555
P1E O2E 1_555 1_555

#END
