
#######################################################################
#
#                 Cambridge Crystallographic Data Centre
#                                CCDC 
#
#######################################################################
#
# If this CIF has been generated from an entry in the Cambridge 
# Structural Database, then it will include bibliographic, chemical, 
# crystal, experimental, refinement or atomic coordinate data resulting 
# from the CCDC's data processing and validation procedures.
#
#######################################################################

data_QEGVOP
_symmetry_cell_setting           triclinic
_symmetry_space_group_name_H-M   'P -1'
_symmetry_Int_Tables_number      2
_space_group_name_Hall           '-P 1'
loop_
_symmetry_equiv_pos_site_id
_symmetry_equiv_pos_as_xyz
1 x,y,z
2 -x,-y,-z
_cell_length_a                   7.4767(15)
_cell_length_b                   10.094(2)
_cell_length_c                   14.772(3)
_cell_angle_alpha                91.23(3)
_cell_angle_beta                 100.95(3)
_cell_angle_gamma                106.57(3)
_cell_volume                     1045.69
loop_
_atom_site_label
_atom_site_type_symbol
_atom_site_fract_x
_atom_site_fract_y
_atom_site_fract_z
C1 C 0.5691(7) 0.4184(5) 0.3233(3)
H1 H 0.5529 0.4358 0.2612
C2 C 0.7161(7) 0.5103(6) 0.3853(3)
H2 H 0.7959 0.5873 0.3649
C3 C 0.7435(7) 0.4866(5) 0.4784(3)
H3 H 0.8400 0.5483 0.5214
C4 C 0.6220(6) 0.3670(5) 0.5065(3)
C5 C 0.4779(6) 0.2794(5) 0.4380(3)
C6 C 0.3546(6) 0.1497(5) 0.4601(3)
C7 C 0.1121(6) -0.0513(5) 0.4037(3)
H4 H 0.0176 -0.1032 0.3553
C8 C 0.1388(7) -0.1088(5) 0.4910(3)
H5 H 0.0675 -0.1983 0.4987
C9 C 0.2709(7) -0.0298(5) 0.5628(3)
H6 H 0.2858 -0.0637 0.6209
C10 C 0.3851(6) 0.1026(5) 0.5495(3)
C11 C 0.5275(6) 0.1968(5) 0.6164(3)
C12 C 0.6370(6) 0.3240(5) 0.5979(3)
C13 C 0.7290(7) 0.3029(6) 0.7420(3)
C14 C 0.8229(8) 0.3211(6) 0.8411(3)
C15 C 0.7327(8) 0.3429(6) 0.9106(4)
C16 C 0.8145(10) 0.3445(6) 1.0039(4)
H7 H 0.7515 0.3595 1.0500
C17 C 0.9892(10) 0.3235(6) 1.0256(4)
H8 H 1.0440 0.3235 1.0877
C18 C 1.0870(9) 0.3025(7) 0.9608(4)
H9 H 1.2068 0.2895 0.9776
C19 C 1.0021(9) 0.3011(6) 0.8688(4)
C20 C -0.2281(6) 0.0968(5) 0.1744(3)
C21 C -0.3733(6) 0.0418(4) 0.0864(3)
C22 C -0.5570(5) 0.0571(5) 0.0730(3)
C23 C -0.6366(6) 0.1080(5) 0.1479(3)
C24 C -0.3200(6) -0.0170(5) 0.0122(3)
H10 H -0.1994 -0.0291 0.0206
N1 N 0.4502(5) 0.3072(4) 0.3473(2)
N2 N 0.2171(5) 0.0731(4) 0.3891(2)
N3 N 0.5907(6) 0.1844(4) 0.7092(2)
H11 H 0.5497 0.1146 0.7399
N4 N 0.7655(6) 0.3914(4) 0.6783(2)
O1 O -0.0724(4) 0.0671(4) 0.1848(2)
O2 O -0.2685(5) 0.1743(5) 0.2296(2)
O3 O 0.0708(5) 0.3194(4) 0.3074(3)
O4 O -0.6791(5) 0.0277(4) 0.2105(2)
O5 O -0.6769(5) 0.2204(4) 0.1452(2)
F1 F 1.0985(4) 0.2768(4) 0.80013(19)
Cl1 Cl 0.5186(3) 0.3712(3) 0.88124(12)
Co1 Co 0.19201(8) 0.17209(7) 0.26417(3)
C1A C -1.5691(7) -0.4184(5) -0.3233(3)
H1A H -1.5529 -0.4358 -0.2612
C2A C -1.7161(7) -0.5103(6) -0.3853(3)
H2A H -1.7959 -0.5873 -0.3649
C3A C -1.7435(7) -0.4866(5) -0.4784(3)
H3A H -1.8400 -0.5483 -0.5214
C4A C -1.6220(6) -0.3670(5) -0.5065(3)
C5A C -1.4779(6) -0.2794(5) -0.4380(3)
C6A C -1.3546(6) -0.1497(5) -0.4601(3)
C7A C -1.1121(6) 0.0513(5) -0.4037(3)
H4A H -1.0176 0.1032 -0.3553
C8A C -1.1388(7) 0.1088(5) -0.4910(3)
H5A H -1.0675 0.1983 -0.4987
C9A C -1.2709(7) 0.0298(5) -0.5628(3)
H6A H -1.2858 0.0637 -0.6209
C10A C -1.3851(6) -0.1026(5) -0.5495(3)
C11A C -1.5275(6) -0.1968(5) -0.6164(3)
C12A C -1.6370(6) -0.3240(5) -0.5979(3)
C13A C -1.7290(7) -0.3029(6) -0.7420(3)
C14A C -1.8229(8) -0.3211(6) -0.8411(3)
C15A C -1.7327(8) -0.3429(6) -0.9106(4)
C16A C -1.8145(10) -0.3445(6) -1.0039(4)
H7A H -1.7515 -0.3595 -1.0500
C17A C -1.9892(10) -0.3235(6) -1.0256(4)
H8A H -2.0440 -0.3235 -1.0877
C18A C -2.0870(9) -0.3025(7) -0.9608(4)
H9A H -2.2068 -0.2895 -0.9776
C19A C -2.0021(9) -0.3011(6) -0.8688(4)
C20A C -0.7719(6) -0.0968(5) -0.1744(3)
C21A C -0.6267(6) -0.0418(4) -0.0864(3)
C22A C -0.4430(5) -0.0571(5) -0.0730(3)
C23A C -0.3634(6) -0.1080(5) -0.1479(3)
C24A C -0.6800(6) 0.0170(5) -0.0122(3)
H10A H -0.8006 0.0291 -0.0206
N1A N -1.4502(5) -0.3072(4) -0.3473(2)
N2A N -1.2171(5) -0.0731(4) -0.3891(2)
N3A N -1.5907(6) -0.1844(4) -0.7092(2)
H11A H -1.5497 -0.1146 -0.7399
N4A N -1.7655(6) -0.3914(4) -0.6783(2)
O1A O -0.9276(4) -0.0671(4) -0.1848(2)
O2A O -0.7315(5) -0.1743(5) -0.2296(2)
O3A O -1.0708(5) -0.3194(4) -0.3074(3)
O4A O -0.3209(5) -0.0277(4) -0.2105(2)
O4_2 O 0.3209(5) 0.0277(4) 0.2105(2)
O4A_2 O -1.3209(5) -0.0277(4) -0.2105(2)
O5A O -0.3231(5) -0.2204(4) -0.1452(2)
O5_2 O 0.3231(5) 0.2204(4) 0.1452(2)
O5A_2 O -1.3231(5) -0.2204(4) -0.1452(2)
F1A F -2.0985(4) -0.2768(4) -0.80013(19)
Cl1A Cl -1.5186(3) -0.3712(3) -0.88124(12)
Co1A Co -1.19201(8) -0.17209(7) -0.26417(3)
Co1_2 Co -0.80799(8) 0.17209(7) 0.26417(3)
Co1A_2 Co -0.19201(8) -0.17209(7) -0.26417(3)
loop_
_geom_bond_atom_site_label_1
_geom_bond_atom_site_label_2
_geom_bond_site_symmetry_1
_geom_bond_site_symmetry_2
C1 H1 1_555 1_555
C2 C1 1_555 1_555
H2 C2 1_555 1_555
C3 C2 1_555 1_555
H3 C3 1_555 1_555
C4 C3 1_555 1_555
C5 C4 1_555 1_555
C6 C5 1_555 1_555
C7 H4 1_555 1_555
C8 C7 1_555 1_555
H5 C8 1_555 1_555
C9 C8 1_555 1_555
H6 C9 1_555 1_555
C10 C6 1_555 1_555
C11 C10 1_555 1_555
C12 C4 1_555 1_555
C13 C14 1_555 1_555
C14 C15 1_555 1_555
C15 C16 1_555 1_555
C16 H7 1_555 1_555
C17 C16 1_555 1_555
H8 C17 1_555 1_555
C18 C17 1_555 1_555
H9 C18 1_555 1_555
C19 C14 1_555 1_555
C20 C21 1_555 1_555
C21 C22 1_555 1_555
C22 C23 1_555 1_555
C23 O4 1_555 1_555
C24 C21 1_555 1_555
H10 C24 1_555 1_555
N1 C1 1_555 1_555
N2 C6 1_555 1_555
N3 C11 1_555 1_555
H11 N3 1_555 1_555
N4 C12 1_555 1_555
O1 C20 1_555 1_555
O2 C20 1_555 1_555
O3 Co1 1_555 1_555
O4 Co1_2 1_555 1_555
O5 C23 1_555 1_555
F1 C19 1_555 1_555
Cl1 C15 1_555 1_555
Co1 N1 1_555 1_555
C1A H1A 1_555 1_555
C2A C1A 1_555 1_555
H2A C2A 1_555 1_555
C3A C2A 1_555 1_555
H3A C3A 1_555 1_555
C4A C3A 1_555 1_555
C5A C4A 1_555 1_555
C6A C5A 1_555 1_555
C7A H4A 1_555 1_555
C8A C7A 1_555 1_555
H5A C8A 1_555 1_555
C9A C8A 1_555 1_555
H6A C9A 1_555 1_555
C10A C6A 1_555 1_555
C11A C10A 1_555 1_555
C12A C4A 1_555 1_555
C13A C14A 1_555 1_555
C14A C15A 1_555 1_555
C15A C16A 1_555 1_555
C16A H7A 1_555 1_555
C17A C16A 1_555 1_555
H8A C17A 1_555 1_555
C18A C17A 1_555 1_555
H9A C18A 1_555 1_555
C19A C14A 1_555 1_555
C20A C21A 1_555 1_555
C21A C22A 1_555 1_555
C22A C24 1_555 1_555
C23A C22A 1_555 1_555
C24A C22 1_555 1_555
H10A C24A 1_555 1_555
N1A C1A 1_555 1_555
N2A C6A 1_555 1_555
N3A C11A 1_555 1_555
H11A N3A 1_555 1_555
N4A C12A 1_555 1_555
O1A C20A 1_555 1_555
O2A C20A 1_555 1_555
O3A Co1A 1_555 1_555
O4A C23A 1_555 1_555
O4_2 Co1 1_555 1_555
O4A_2 Co1A 1_555 1_555
O5A C23A 1_555 1_555
O5_2 Co1 1_555 1_555
O5A_2 Co1A 1_555 1_555
F1A C19A 1_555 1_555
Cl1A C15A 1_555 1_555
Co1A N1A 1_555 1_555
Co1_2 O5 1_555 1_555
Co1A_2 O4A 1_555 1_555
C5 N1 1_555 1_555
C7 N2 1_555 1_555
C9 C10 1_555 1_555
C11 C12 1_555 1_555
C13 N3 1_555 1_555
C13 N4 1_555 1_555
C18 C19 1_555 1_555
N2 Co1 1_555 1_555
O1 Co1 1_555 1_555
C5A N1A 1_555 1_555
C7A N2A 1_555 1_555
C9A C10A 1_555 1_555
C11A C12A 1_555 1_555
C13A N3A 1_555 1_555
C13A N4A 1_555 1_555
C18A C19A 1_555 1_555
C21A C24A 1_555 1_555
N2A Co1A 1_555 1_555
O1A Co1A 1_555 1_555
O5A Co1A_2 1_555 1_555

#END
