
#######################################################################
#
#                 Cambridge Crystallographic Data Centre
#                                CCDC 
#
#######################################################################
#
# If this CIF has been generated from an entry in the Cambridge 
# Structural Database, then it will include bibliographic, chemical, 
# crystal, experimental, refinement or atomic coordinate data resulting 
# from the CCDC's data processing and validation procedures.
#
#######################################################################

data_QEGVIJ
_symmetry_cell_setting           triclinic
_symmetry_space_group_name_H-M   'P -1'
_symmetry_Int_Tables_number      2
_space_group_name_Hall           '-P 1'
loop_
_symmetry_equiv_pos_site_id
_symmetry_equiv_pos_as_xyz
1 x,y,z
2 -x,-y,-z
_cell_length_a                   10.1084(5)
_cell_length_b                   14.9285(7)
_cell_length_c                   15.2930(4)
_cell_angle_alpha                72.1050(10)
_cell_angle_beta                 86.160(2)
_cell_angle_gamma                79.6000(10)
_cell_volume                     2159.87
loop_
_atom_site_label
_atom_site_type_symbol
_atom_site_fract_x
_atom_site_fract_y
_atom_site_fract_z
C1 C 0.2241(4) -0.0820(3) 0.6149(3)
H1 H 0.2544 -0.1328 0.6660
C2 C 0.2179(4) -0.1005(3) 0.5319(3)
H2 H 0.2429 -0.1624 0.5284
C3 C 0.1743(4) -0.0265(3) 0.4549(3)
H3 H 0.1696 -0.0373 0.3985
C4 C 0.1371(3) 0.0658(2) 0.4636(2)
C5 C 0.1452(3) 0.0783(2) 0.5505(2)
C6 C 0.1089(3) 0.1730(3) 0.5634(2)
C7 C 0.0916(4) 0.2664(3) 0.6604(3)
H4 H 0.1011 0.2712 0.7188
C8 C 0.0487(4) 0.3496(3) 0.5899(3)
H5 H 0.0282 0.4083 0.6014
C9 C 0.0372(4) 0.3435(3) 0.5035(3)
H6 H 0.0092 0.3982 0.4553
C10 C 0.0680(3) 0.2543(3) 0.4881(2)
C11 C 0.0625(4) 0.2398(3) 0.4005(2)
C12 C 0.0939(3) 0.1497(2) 0.3902(2)
C13 C 0.0455(4) 0.2581(3) 0.2579(3)
C14 C 0.0297(5) 0.3017(3) 0.1572(3)
C15 C 0.1433(7) 0.3042(4) 0.1000(3)
C16 C 0.1369(8) 0.3459(5) 0.0067(4)
H7 H 0.2136 0.3453 -0.0305
C17 C 0.0139(9) 0.3882(5) -0.0290(4)
H8 H 0.0080 0.4171 -0.0922
C18 C -0.1021(8) 0.3908(4) 0.0221(4)
H9 H -0.1843 0.4216 -0.0050
C19 C -0.0926(6) 0.3453(4) 0.1172(3)
C20 C 0.4415(4) 0.1440(3) 0.5103(3)
H10 H 0.4613 0.0807 0.5467
C21 C 0.4322(4) 0.1625(3) 0.4158(3)
H11 H 0.4436 0.1125 0.3902
C22 C 0.4061(4) 0.2551(3) 0.3611(3)
H12 H 0.4016 0.2691 0.2977
C23 C 0.3862(4) 0.3286(3) 0.4020(2)
C24 C 0.3951(3) 0.3042(3) 0.4986(2)
C25 C 0.3706(3) 0.3781(3) 0.5446(2)
C26 C 0.3364(4) 0.4754(3) 0.4943(2)
C27 C 0.3094(4) 0.5429(3) 0.5434(3)
H13 H 0.2869 0.6077 0.5124
C28 C 0.3167(4) 0.5119(3) 0.6369(3)
H14 H 0.2973 0.5552 0.6705
C29 C 0.3535(4) 0.4148(3) 0.6813(3)
H15 H 0.3590 0.3948 0.7450
C30 C 0.3327(4) 0.4970(3) 0.3969(2)
C31 C 0.3568(4) 0.4279(3) 0.3523(2)
C32 C 0.3255(4) 0.5621(3) 0.2472(3)
C33 C 0.3119(4) 0.6380(3) 0.1583(3)
C34 C 0.4020(5) 0.6398(3) 0.0862(3)
C35 C 0.3824(6) 0.7137(4) 0.0034(3)
H16 H 0.4430 0.7145 -0.0453
C36 C 0.2737(6) 0.7844(4) -0.0052(4)
H17 H 0.2608 0.8328 -0.0607
C37 C 0.1839(6) 0.7869(3) 0.0640(4)
H18 H 0.1114 0.8365 0.0576
C38 C 0.2043(5) 0.7129(3) 0.1441(3)
C39 C 0.5358(3) 0.0242(2) 1.1985(2)
C40 C 0.4178(3) 0.0515(2) 1.1347(2)
C41 C 0.2937(3) 0.0282(2) 1.1698(2)
H19 H 0.2823 0.0024 1.2329
C42 C 0.1867(3) 0.0429(2) 1.1119(2)
C43 C 0.0544(3) 0.0180(2) 1.1540(2)
C44 C 0.2044(3) 0.0799(2) 1.0172(2)
H20 H 0.1346 0.0867 0.9777
C45 C 0.3274(3) 0.1067(2) 0.9817(2)
C46 C 0.4336(3) 0.0919(2) 1.0408(2)
H21 H 0.5156 0.1093 1.0171
C47 C 0.3479(4) 0.1463(3) 0.8795(2)
N1 N 0.1893(3) 0.0041(2) 0.62520(19)
N2 N 0.1197(3) 0.1804(2) 0.64867(19)
N3 N 0.0324(4) 0.3077(2) 0.3168(2)
N4 N 0.0814(3) 0.1632(2) 0.29758(19)
H22 H 0.0940 0.1197 0.2704
N5 N 0.4236(3) 0.2118(2) 0.5510(2)
N6 N 0.3809(3) 0.3494(2) 0.6381(2)
N7 N 0.3121(3) 0.5823(2) 0.3287(2)
H23 H 0.2940 0.6381 0.3359
N8 N 0.3509(3) 0.4690(2) 0.2582(2)
O1 O 0.4575(3) 0.1755(2) 0.85144(16)
O2 O 0.2582(3) 0.1481(2) 0.82559(17)
O4 O -0.0240(3) -0.0089(2) 1.11297(18)
O5 O 0.0276(3) 0.0243(2) 1.23365(17)
O6 O 0.6402(2) 0.05906(19) 1.16870(17)
O7 O 0.5270(2) -0.03351(17) 1.27742(16)
F1 F 0.2666(3) 0.2661(2) 0.1372(2)
F2 F 0.1121(3) 0.7111(2) 0.2114(2)
Cl1 Cl 0.71839(10) 0.20939(7) 0.65426(8)
Cl2 Cl 0.54332(14) 0.55221(12) 0.09747(9)
Cl3 Cl -0.23575(18) 0.34101(14) 0.18420(12)
Cd1 Cd 0.17667(2) 0.04083(2) 0.765743(17)
Cd2 Cd 0.48208(3) 0.19015(2) 0.703220(17)
O4A O 0.0240(3) 0.0089(2) 0.88703(18)
O5A O -0.0276(3) -0.0243(2) 0.76635(17)
O6A O 0.3598(2) -0.05906(19) 0.83130(17)
O7A O 0.4730(2) 0.03351(17) 0.72258(16)
Cd1A Cd -0.17667(2) -0.04083(2) 1.234257(17)
Cd1A_2 Cd 0.82333(2) -0.04083(2) 1.234257(17)
Cd2A Cd 0.51792(3) -0.19015(2) 1.296780(17)
O3 O 0.0004(4) 0.5103(2) 0.2719(3)
H24 H -0.0008 0.4521 0.2746
H25 H 0.0921 0.5214 0.2510
loop_
_geom_bond_atom_site_label_1
_geom_bond_atom_site_label_2
_geom_bond_site_symmetry_1
_geom_bond_site_symmetry_2
C1 H1 1_555 1_555
C2 C1 1_555 1_555
H2 C2 1_555 1_555
C3 C2 1_555 1_555
H3 C3 1_555 1_555
C4 C3 1_555 1_555
C5 C4 1_555 1_555
C6 C5 1_555 1_555
C7 H4 1_555 1_555
C8 C7 1_555 1_555
H5 C8 1_555 1_555
C9 C8 1_555 1_555
H6 C9 1_555 1_555
C10 C6 1_555 1_555
C11 C10 1_555 1_555
C12 C4 1_555 1_555
C13 C14 1_555 1_555
C14 C15 1_555 1_555
C15 C16 1_555 1_555
C16 H7 1_555 1_555
C17 C16 1_555 1_555
H8 C17 1_555 1_555
C18 C17 1_555 1_555
H9 C18 1_555 1_555
C19 C14 1_555 1_555
C20 H10 1_555 1_555
C21 C20 1_555 1_555
H11 C21 1_555 1_555
C22 C21 1_555 1_555
H12 C22 1_555 1_555
C23 C22 1_555 1_555
C24 C23 1_555 1_555
C25 C24 1_555 1_555
C26 C25 1_555 1_555
C27 C26 1_555 1_555
H13 C27 1_555 1_555
C28 C27 1_555 1_555
H14 C28 1_555 1_555
C29 C28 1_555 1_555
H15 C29 1_555 1_555
C30 C26 1_555 1_555
C31 C23 1_555 1_555
C32 C33 1_555 1_555
C33 C34 1_555 1_555
C34 C35 1_555 1_555
C35 H16 1_555 1_555
C36 C35 1_555 1_555
H17 C36 1_555 1_555
C37 C36 1_555 1_555
H18 C37 1_555 1_555
C38 C33 1_555 1_555
C39 C40 1_555 1_555
C40 C41 1_555 1_555
C41 H19 1_555 1_555
C42 C41 1_555 1_555
C43 C42 1_555 1_555
C44 C42 1_555 1_555
H20 C44 1_555 1_555
C45 C44 1_555 1_555
C46 C40 1_555 1_555
H21 C46 1_555 1_555
C47 C45 1_555 1_555
N1 C1 1_555 1_555
N2 C6 1_555 1_555
N3 C11 1_555 1_555
N4 C12 1_555 1_555
H22 N4 1_555 1_555
N5 C20 1_555 1_555
N6 C25 1_555 1_555
N7 C30 1_555 1_555
H23 N7 1_555 1_555
N8 C31 1_555 1_555
O1 C47 1_555 1_555
O2 C47 1_555 1_555
O3 H24 1_555 1_555
H25 O3 1_555 1_555
O4 C43 1_555 1_555
O5 C43 1_555 1_555
O6 C39 1_555 1_555
O7 C39 1_555 1_555
F1 C15 1_555 1_555
F2 C38 1_555 1_555
Cl1 Cd2 1_555 1_555
Cl2 C34 1_555 1_555
Cl3 C19 1_555 1_555
Cd1 N1 1_555 1_555
Cd2 N5 1_555 1_555
O4A Cd1 1_555 1_555
O5A Cd1 1_555 1_555
O6A Cd1 1_555 1_555
O7A Cd2 1_555 1_555
Cd1A O4 1_555 1_555
Cd1A_2 O6 1_555 1_555
Cd2A O7 1_555 1_555
C5 N1 1_555 1_555
C7 N2 1_555 1_555
C9 C10 1_555 1_555
C11 C12 1_555 1_555
C13 N3 1_555 1_555
C13 N4 1_555 1_555
C18 C19 1_555 1_555
C24 N5 1_555 1_555
C29 N6 1_555 1_555
C30 C31 1_555 1_555
C32 N7 1_555 1_555
C32 N8 1_555 1_555
C37 C38 1_555 1_555
C45 C46 1_555 1_555
N2 Cd1 1_555 1_555
N6 Cd2 1_555 1_555
O1 Cd2 1_555 1_555
O2 Cd1 1_555 1_555
O5 Cd1A 1_555 1_555

#END
