
#######################################################################
#
#                 Cambridge Crystallographic Data Centre
#                                CCDC 
#
#######################################################################
#
# If this CIF has been generated from an entry in the Cambridge 
# Structural Database, then it will include bibliographic, chemical, 
# crystal, experimental, refinement or atomic coordinate data resulting 
# from the CCDC's data processing and validation procedures.
#
#######################################################################

data_QEHCUC
_symmetry_cell_setting           monoclinic
_symmetry_space_group_name_H-M   'P 2/n'
_symmetry_Int_Tables_number      13
_space_group_name_Hall           '-P 2yac'
loop_
_symmetry_equiv_pos_site_id
_symmetry_equiv_pos_as_xyz
1 x,y,z
2 1/2-x,y,1/2-z
3 -x,-y,-z
4 1/2+x,-y,1/2+z
_cell_length_a                   7.6500(15)
_cell_length_b                   11.390(2)
_cell_length_c                   10.790(2)
_cell_angle_alpha                90
_cell_angle_beta                 92.67(3)
_cell_angle_gamma                90
_cell_volume                     939.15
loop_
_atom_site_label
_atom_site_type_symbol
_atom_site_fract_x
_atom_site_fract_y
_atom_site_fract_z
Fe1 Fe 0.7500 0.71949(3) 0.7500
O1 O 0.53330(17) 0.70774(11) 0.87060(11)
O3 O 0.58204(17) 0.71695(11) 0.58432(11)
H3 H 0.475(2) 0.702(2) 0.589(2)
H4 H 0.627(3) 0.6745(19) 0.5298(18)
O4 O 0.25817(19) 0.65775(13) 0.90009(14)
N1 N 0.7500 0.52792(17) 0.7500
N2 N 0.7500 -0.09021(17) 0.7500
C1 C 0.8984(3) 0.46695(16) 0.77147(18)
H5 H 1.0024 0.5083 0.7850
C2 C 0.9041(3) 0.34672(16) 0.77445(17)
H6 H 1.0091 0.3078 0.7925
C3 C 0.7500 0.2837(2) 0.7500
C4 C 0.7500 0.1548(2) 0.7500
C5 C 0.8199(3) 0.09142(16) 0.85050(15)
H7 H 0.8691 0.1302 0.9195
C6 C 0.8157(3) -0.02886(15) 0.84711(15)
H8 H 0.8609 -0.0699 0.9159
C7 C 0.3712(2) 0.72555(15) 0.86116(14)
C8 C 0.3078(2) 0.83838(14) 0.80155(13)
C9 C 0.3612(3) 0.94446(17) 0.85363(17)
H9 H 0.4365 0.9448 0.9238
C10 C 0.3045(3) 1.04915(17) 0.8029(2)
H10 H 0.3394 1.1198 0.8396
Fe1_2 Fe 0.7500 -0.28051(3) 0.7500
Fe1_3 Fe -0.2500 0.71949(3) 0.7500
O1A O -0.03330(17) 0.70774(11) 0.62940(11)
O1A_2 O 0.96670(17) 0.70774(11) 0.62940(11)
O3A O 0.91796(17) 0.71695(11) 0.91568(11)
H3A H 1.025(2) 0.702(2) 0.911(2)
H4A H 0.873(3) 0.6745(19) 0.9702(18)
O4A O 0.24183(19) 0.65775(13) 0.59991(14)
N2_2 N 0.7500 0.90979(17) 0.7500
C1A C 0.6016(3) 0.46695(16) 0.72853(18)
H5A H 0.4976 0.5083 0.7150
C2A C 0.5959(3) 0.34672(16) 0.72555(17)
H6A H 0.4909 0.3078 0.7075
C5A C 0.6801(3) 0.09142(16) 0.64950(15)
H7A H 0.6309 0.1302 0.5805
C6A C 0.6843(3) -0.02886(15) 0.65289(15)
H8A H 0.6391 -0.0699 0.5841
C7A C 0.1288(2) 0.72555(15) 0.63884(14)
C8A C 0.1922(2) 0.83838(14) 0.69845(13)
C9A C 0.1388(3) 0.94446(17) 0.64637(17)
H9A H 0.0635 0.9448 0.5762
C10A C 0.1955(3) 1.04915(17) 0.6971(2)
H10A H 0.1606 1.1198 0.6604
O2 O 0.7844(2) 0.58658(15) 0.43664(14)
H1 H 0.872(3) 0.604(3) 0.482(2)
H2 H 0.795(4) 0.5146(16) 0.433(3)
loop_
_geom_bond_atom_site_label_1
_geom_bond_atom_site_label_2
_geom_bond_site_symmetry_1
_geom_bond_site_symmetry_2
Fe1 O1 1_555 1_555
O1 C7 1_555 1_555
O2 H1 1_555 1_555
H2 O2 1_555 1_555
O3 Fe1 1_555 1_555
H3 O3 1_555 1_555
H4 O3 1_555 1_555
O4 C7 1_555 1_555
N1 Fe1 1_555 1_555
N2 C6 1_555 1_555
C1 N1 1_555 1_555
H5 C1 1_555 1_555
C2 C1 1_555 1_555
H6 C2 1_555 1_555
C3 C2 1_555 1_555
C4 C3 1_555 1_555
C5 C4 1_555 1_555
H7 C5 1_555 1_555
C6 C5 1_555 1_555
H8 C6 1_555 1_555
C7 C8 1_555 1_555
C8 C9 1_555 1_555
C9 H9 1_555 1_555
C10 C9 1_555 1_555
H10 C10 1_555 1_555
Fe1_2 N2 1_555 1_555
Fe1_3 O1A 1_555 1_555
O1A C7A 1_555 1_555
O1A_2 Fe1 1_555 1_555
O3A Fe1 1_555 1_555
H3A O3A 1_555 1_555
H4A O3A 1_555 1_555
O4A C7A 1_555 1_555
N2_2 Fe1 1_555 1_555
C1A N1 1_555 1_555
H5A C1A 1_555 1_555
C2A C3 1_555 1_555
H6A C2A 1_555 1_555
C5A C4 1_555 1_555
H7A C5A 1_555 1_555
C6A N2 1_555 1_555
H8A C6A 1_555 1_555
C7A C8A 1_555 1_555
C8A C8 1_555 1_555
C9A C8A 1_555 1_555
H9A C9A 1_555 1_555
C10A C10 1_555 1_555
H10A C10A 1_555 1_555
C1A C2A 1_555 1_555
C5A C6A 1_555 1_555
C9A C10A 1_555 1_555

#END
