
#######################################################################
#
#                 Cambridge Crystallographic Data Centre
#                                CCDC 
#
#######################################################################
#
# If this CIF has been generated from an entry in the Cambridge 
# Structural Database, then it will include bibliographic, chemical, 
# crystal, experimental, refinement or atomic coordinate data resulting 
# from the CCDC's data processing and validation procedures.
#
#######################################################################

data_QEHFOZ
_symmetry_cell_setting           monoclinic
_symmetry_space_group_name_H-M   'P 21/n'
_symmetry_Int_Tables_number      14
_space_group_name_Hall           '-P 2yn'
loop_
_symmetry_equiv_pos_site_id
_symmetry_equiv_pos_as_xyz
1 x,y,z
2 1/2-x,1/2+y,1/2-z
3 -x,-y,-z
4 1/2+x,1/2-y,1/2+z
_cell_length_a                   12.006(2)
_cell_length_b                   18.014(4)
_cell_length_c                   18.953(4)
_cell_angle_alpha                90
_cell_angle_beta                 93.81(3)
_cell_angle_gamma                90
_cell_volume                     4090.02
loop_
_atom_site_label
_atom_site_type_symbol
_atom_site_fract_x
_atom_site_fract_y
_atom_site_fract_z
Cu1 Cu 0.76691(4) 0.71295(3) 0.69708(2)
N1 N 0.6005(3) 0.70747(19) 0.66712(14)
N2 N 0.4306(3) 0.6563(2) 0.65925(18)
N3 N 0.4281(3) 0.72531(18) 0.63027(15)
N4 N 0.1940(3) 0.76260(18) 0.40945(14)
N5 N 0.1314(3) 0.7063(2) 0.38003(16)
N6 N 0.2222(3) 0.76584(18) 0.29663(14)
N7 N 0.8039(3) 0.70503(18) 0.59482(14)
N8 N 0.8857(3) 0.6699(2) 0.49741(16)
N9 N 0.8262(3) 0.73286(18) 0.48540(15)
N10 N 0.6057(3) 0.79432(18) 0.26479(15)
N11 N 0.6115(3) 0.74692(19) 0.20859(15)
N12 N 0.4340(3) 0.78232(18) 0.22170(14)
O1 O 0.4064(2) 0.77586(17) 0.48645(13)
O2 O 0.6217(2) 0.74724(16) 0.40795(13)
O3 O 0.7667(3) 0.5841(2) 0.7211(2)
O10 O 0.7905(3) 0.8495(2) 0.68852(19)
F1 F 0.1711(2) 0.62766(17) 0.56680(14)
F2 F 0.3442(3) 0.43498(17) 0.45050(18)
F3 F 0.8831(2) 0.70826(16) 0.27302(13)
F4 F 0.7635(3) 0.46192(17) 0.25289(17)
C1 C 0.5362(4) 0.6481(3) 0.6803(2)
H2 H 0.5644 0.6053 0.7023
C2 C 0.5293(3) 0.7552(2) 0.63577(17)
H3 H 0.5475 0.8023 0.6200
C3 C 0.3246(3) 0.7558(2) 0.59686(17)
H4 H 0.3225 0.8090 0.6047
H5 H 0.2611 0.7339 0.6182
C4 C 0.3167(3) 0.7400(2) 0.51747(18)
C5 C 0.3239(3) 0.6583(2) 0.50044(17)
C6 C 0.2514(4) 0.6053(3) 0.5251(2)
C7 C 0.2564(4) 0.5306(3) 0.5093(2)
H6 H 0.2067 0.4969 0.5271
C8 C 0.3371(5) 0.5083(3) 0.4667(3)
C9 C 0.4108(4) 0.5566(3) 0.4397(3)
H7 H 0.4648 0.5398 0.4105
C10 C 0.4034(4) 0.6313(3) 0.4568(2)
H8 H 0.4533 0.6644 0.4384
C11 C 0.2049(3) 0.7728(2) 0.48611(18)
H9 H 0.1433 0.7484 0.5073
H10 H 0.2018 0.8253 0.4971
C12 C 0.2485(3) 0.7975(2) 0.35937(18)
H11 H 0.2969 0.8374 0.3671
C13 C 0.1505(4) 0.7114(3) 0.31270(19)
H12 H 0.1171 0.6799 0.2786
C14 C 0.8696(4) 0.6554(2) 0.56416(19)
H13 H 0.9007 0.6145 0.5880
C15 C 0.7788(4) 0.7535(2) 0.54348(19)
H14 H 0.7347 0.7956 0.5476
C16 C 0.8214(3) 0.7716(2) 0.41771(17)
H15 H 0.8886 0.7609 0.3939
H16 H 0.8190 0.8247 0.4260
C17 C 0.7191(3) 0.7489(2) 0.36961(17)
C18 C 0.7319(3) 0.6714(2) 0.33929(17)
C19 C 0.8115(4) 0.6539(3) 0.29164(19)
C20 C 0.8226(4) 0.5851(3) 0.2608(2)
H17 H 0.8749 0.5764 0.2277
C21 C 0.7537(5) 0.5313(3) 0.2811(2)
C22 C 0.6735(4) 0.5422(3) 0.3278(2)
H18 H 0.6271 0.5038 0.3403
C23 C 0.6640(4) 0.6133(2) 0.3560(2)
H19 H 0.6094 0.6217 0.3876
C24 C 0.7034(3) 0.8094(2) 0.31116(18)
H20 H 0.6959 0.8576 0.3331
H21 H 0.7689 0.8106 0.2838
C25 C 0.5068(3) 0.7417(2) 0.18483(19)
H22 H 0.4839 0.7126 0.1460
C26 C 0.5008(3) 0.8146(2) 0.27153(18)
H23 H 0.4774 0.8466 0.3060
C31 C 0.8464(5) 0.8930(3) 0.7426(3)
H34 H 0.9161 0.9105 0.7267
H35 H 0.8603 0.8633 0.7843
H36 H 0.8006 0.9347 0.7532
H37 H 0.611(3) 0.800(2) 0.4228(18)
H38 H 0.393(3) 0.826(2) 0.4946(19)
H41 H 0.788(6) 0.560(4) 0.761(3)
H42 H 0.788(4) 0.562(3) 0.698(2)
H44 H 0.756(4) 0.872(3) 0.668(2)
Cu1C Cu 0.26691(4) 0.78705(3) 0.19708(2)
N6C N 0.7222(3) 0.73416(18) 0.79663(14)
N12C N 0.9340(3) 0.71768(18) 0.72170(14)
S1 S 0.42811(9) 1.02560(6) 0.35577(5)
O4 O 0.3735(3) 1.07726(19) 0.40261(15)
O5 O 0.4226(3) 1.05949(19) 0.28579(14)
O6 O 0.3685(3) 0.95517(17) 0.35393(17)
O7 O 0.5439(3) 1.0142(2) 0.38145(17)
N13 N 0.5064(4) 0.4825(3) 0.9056(2)
O8 O 0.5338(5) 0.3737(3) 0.9644(2)
C27 C 0.5514(7) 0.5502(4) 0.8795(4)
H24 H 0.6309 0.5505 0.8889
H25 H 0.5195 0.5917 0.9028
H26 H 0.5337 0.5538 0.8295
C28 C 0.3884(6) 0.4705(4) 0.8945(4)
H27 H 0.3695 0.4233 0.9140
H28 H 0.3675 0.4709 0.8447
H29 H 0.3492 0.5092 0.9173
C29 C 0.5693(6) 0.4321(4) 0.9408(3)
H30 H 0.6453 0.4417 0.9480
O9 O 0.9242(6) 0.4993(4) 0.6549(2)
H1 H 0.8926 0.5364 0.6384
C30 C 0.9831(7) 0.4677(5) 0.6055(4)
H31 H 0.9693 0.4936 0.5615
H32 H 0.9610 0.4168 0.5996
H33 H 1.0612 0.4701 0.6199
O11 O 0.6199(4) 0.8898(2) 0.4551(2)
H39 H 0.607(4) 0.899(3) 0.489(2)
H43 H 0.600(6) 0.934(4) 0.423(4)
O12 O 0.6530(3) 1.0800(2) 0.4965(2)
H40 H 0.640(5) 1.052(3) 0.525(3)
H45 H 0.620(5) 1.053(4) 0.463(3)
loop_
_geom_bond_atom_site_label_1
_geom_bond_atom_site_label_2
_geom_bond_site_symmetry_1
_geom_bond_site_symmetry_2
Cu1 N1 1_555 1_555
S1 O4 1_555 1_555
N1 C1 1_555 1_555
N2 N3 1_555 1_555
N3 C2 1_555 1_555
N4 N5 1_555 1_555
N5 C13 1_555 1_555
N6 C12 1_555 1_555
N7 Cu1 1_555 1_555
N8 N9 1_555 1_555
N9 C15 1_555 1_555
N10 N11 1_555 1_555
N11 C25 1_555 1_555
N12 C25 1_555 1_555
N13 C27 1_555 1_555
O1 C4 1_555 1_555
O2 C17 1_555 1_555
O3 Cu1 1_555 1_555
O5 S1 1_555 1_555
O6 S1 1_555 1_555
O7 S1 1_555 1_555
O8 C29 1_555 1_555
O9 H1 1_555 1_555
O10 Cu1 1_555 1_555
O11 H39 1_555 1_555
O12 H40 1_555 1_555
F1 C6 1_555 1_555
F2 C8 1_555 1_555
F3 C19 1_555 1_555
F4 C21 1_555 1_555
C1 N2 1_555 1_555
H2 C1 1_555 1_555
C2 N1 1_555 1_555
H3 C2 1_555 1_555
C3 N3 1_555 1_555
H4 C3 1_555 1_555
H5 C3 1_555 1_555
C4 C3 1_555 1_555
C5 C4 1_555 1_555
C6 C5 1_555 1_555
C7 C6 1_555 1_555
H6 C7 1_555 1_555
C8 C7 1_555 1_555
C9 C8 1_555 1_555
H7 C9 1_555 1_555
C10 C5 1_555 1_555
H8 C10 1_555 1_555
C11 N4 1_555 1_555
H9 C11 1_555 1_555
H10 C11 1_555 1_555
C12 N4 1_555 1_555
H11 C12 1_555 1_555
C13 N6 1_555 1_555
H12 C13 1_555 1_555
C14 N7 1_555 1_555
H13 C14 1_555 1_555
C15 N7 1_555 1_555
H14 C15 1_555 1_555
C16 N9 1_555 1_555
H15 C16 1_555 1_555
H16 C16 1_555 1_555
C17 C16 1_555 1_555
C18 C17 1_555 1_555
C19 C18 1_555 1_555
C20 C19 1_555 1_555
H17 C20 1_555 1_555
C21 C20 1_555 1_555
C22 C21 1_555 1_555
H18 C22 1_555 1_555
C23 C18 1_555 1_555
H19 C23 1_555 1_555
C24 N10 1_555 1_555
H20 C24 1_555 1_555
H21 C24 1_555 1_555
C25 H22 1_555 1_555
C26 N10 1_555 1_555
H23 C26 1_555 1_555
C27 H24 1_555 1_555
H25 C27 1_555 1_555
H26 C27 1_555 1_555
C28 N13 1_555 1_555
H27 C28 1_555 1_555
H28 C28 1_555 1_555
H29 C28 1_555 1_555
C29 N13 1_555 1_555
H30 C29 1_555 1_555
C30 O9 1_555 1_555
H31 C30 1_555 1_555
H32 C30 1_555 1_555
H33 C30 1_555 1_555
C31 O10 1_555 1_555
H34 C31 1_555 1_555
H35 C31 1_555 1_555
H36 C31 1_555 1_555
H37 O2 1_555 1_555
H38 O1 1_555 1_555
H41 O3 1_555 1_555
H42 O3 1_555 1_555
H43 O11 1_555 1_555
H44 O10 1_555 1_555
H45 O12 1_555 1_555
Cu1C N6 1_555 1_555
N6C Cu1 1_555 1_555
N12C Cu1 1_555 1_555
N8 C14 1_555 1_555
N12 C26 1_555 1_555
N12 Cu1C 1_555 1_555
C4 C11 1_555 1_555
C9 C10 1_555 1_555
C17 C24 1_555 1_555
C22 C23 1_555 1_555

#END
