
#######################################################################
#
#                 Cambridge Crystallographic Data Centre
#                                CCDC 
#
#######################################################################
#
# If this CIF has been generated from an entry in the Cambridge 
# Structural Database, then it will include bibliographic, chemical, 
# crystal, experimental, refinement or atomic coordinate data resulting 
# from the CCDC's data processing and validation procedures.
#
#######################################################################

data_QEHFIT
_symmetry_cell_setting           monoclinic
_symmetry_space_group_name_H-M   'C 2/c'
_symmetry_Int_Tables_number      15
_space_group_name_Hall           '-C 2yn'
loop_
_symmetry_equiv_pos_site_id
_symmetry_equiv_pos_as_xyz
1 x,y,z
2 1/2+x,1/2+y,z
3 -x,y,1/2-z
4 1/2-x,1/2+y,1/2-z
5 -x,-y,-z
6 1/2-x,1/2-y,-z
7 x,-y,1/2+z
8 1/2+x,1/2-y,1/2+z
_cell_length_a                   23.423(5)
_cell_length_b                   9.4356(19)
_cell_length_c                   20.826(4)
_cell_angle_alpha                90
_cell_angle_beta                 125.66(3)
_cell_angle_gamma                90
_cell_volume                     3739.7
loop_
_atom_site_label
_atom_site_type_symbol
_atom_site_fract_x
_atom_site_fract_y
_atom_site_fract_z
Fe1 Fe 0.0000 1.0000 0.0000
Cl1 Cl 0.06073(13) 0.7774(2) -0.00336(13)
F1 F 0.1824(3) 1.0479(5) 0.4354(3)
F2 F 0.1441(4) 1.5228(5) 0.3600(4)
N1 N 0.0468(4) 0.9670(7) 0.1242(4)
N2 N 0.0666(4) 0.9573(9) 0.2438(4)
N3 N 0.1230(4) 0.9110(7) 0.2474(4)
N4 N 0.4087(4) 0.6266(7) 0.4677(4)
N5 N 0.3393(4) 0.8023(7) 0.4505(4)
N6 N 0.3072(4) 0.6835(8) 0.4538(5)
C1 C 0.0233(5) 0.9889(11) 0.1684(5)
H1 H -0.0214 1.0247 0.1469
C2 C 0.1114(5) 0.9197(8) 0.1773(5)
H2 H 0.1438 0.8961 0.1668
C3 C 0.1881(4) 0.8658(8) 0.3236(4)
H3 H 0.2046 0.7777 0.3158
H4 H 0.1774 0.8484 0.3615
C4 C 0.2466(4) 0.9777(8) 0.3573(4)
C5 C 0.2188(4) 1.1288(8) 0.3574(4)
C6 C 0.2228(5) 1.2424(9) 0.3186(5)
H5 H 0.2425 1.2301 0.2910
C7 C 0.1976(5) 1.3758(9) 0.3200(6)
H6 H 0.2007 1.4520 0.2939
C8 C 0.1691(6) 1.3925(10) 0.3594(6)
C9 C 0.1632(5) 1.2844(10) 0.3987(5)
H7 H 0.1430 1.2980 0.4258
C10 C 0.1887(5) 1.1533(9) 0.3964(5)
C11 C 0.3083(5) 0.9420(9) 0.4429(4)
H8 H 0.3444 1.0138 0.4619
H9 H 0.2918 0.9447 0.4761
C12 C 0.3977(5) 0.7643(10) 0.4585(5)
H10 H 0.4275 0.8280 0.4577
C13 C 0.3505(5) 0.5821(10) 0.4630(5)
H11 H 0.3421 0.4869 0.4661
O1 O 0.2699(3) 0.9755(6) 0.3073(3)
Fe1G Fe 0.5000 0.5000 0.5000
Fe1G_2 Fe -0.5000 1.5000 -0.5000
Cl1D Cl -0.06073(13) 1.2226(2) 0.00336(13)
F1D F -0.1824(3) 0.9521(5) -0.4354(3)
F2D F -0.1441(4) 0.4772(5) -0.3600(4)
N1D N -0.0468(4) 1.0330(7) -0.1242(4)
N2D N -0.0666(4) 1.0427(9) -0.2438(4)
N3D N -0.1230(4) 1.0890(7) -0.2474(4)
N4D N -0.4087(4) 1.3734(7) -0.4677(4)
N4G N -0.0913(4) 0.8734(7) -0.0323(4)
N4C N 0.0913(4) 1.1266(7) 0.0323(4)
N5D N -0.3393(4) 1.1977(7) -0.4505(4)
N6D N -0.3072(4) 1.3165(8) -0.4538(5)
C1D C -0.0233(5) 1.0111(11) -0.1684(5)
H1D H 0.0214 0.9753 -0.1469
C2D C -0.1114(5) 1.0803(8) -0.1773(5)
H2D H -0.1438 1.1039 -0.1668
C3D C -0.1881(4) 1.1342(8) -0.3236(4)
H3D H -0.2046 1.2223 -0.3158
H4D H -0.1774 1.1516 -0.3615
C4D C -0.2466(4) 1.0223(8) -0.3573(4)
C5D C -0.2188(4) 0.8712(8) -0.3574(4)
C6D C -0.2228(5) 0.7576(9) -0.3186(5)
H5D H -0.2425 0.7699 -0.2910
C7D C -0.1976(5) 0.6242(9) -0.3200(6)
H6D H -0.2007 0.5480 -0.2939
C8D C -0.1691(6) 0.6075(10) -0.3594(6)
C9D C -0.1632(5) 0.7156(10) -0.3987(5)
H7D H -0.1430 0.7020 -0.4258
C10D C -0.1887(5) 0.8467(9) -0.3964(5)
C11D C -0.3083(5) 1.0580(9) -0.4429(4)
H8D H -0.3444 0.9862 -0.4619
H9D H -0.2918 1.0553 -0.4761
C12D C -0.3977(5) 1.2357(10) -0.4585(5)
H10D H -0.4275 1.1720 -0.4577
C13D C -0.3505(5) 1.4179(10) -0.4630(5)
H11D H -0.3421 1.5131 -0.4661
O1D O -0.2699(3) 1.0245(6) -0.3073(3)
C14 C 0.0397(10) 0.5440(15) 0.1418(9)
H12 H 0.0348 0.4430 0.1421
H13 H -0.0038 0.5843 0.0987
H14 H 0.0514 0.5828 0.1908
O2 O 0.1001(4) 0.5803(8) 0.1318(5)
H15 H 0.0830 0.6170 0.0885
loop_
_geom_bond_atom_site_label_1
_geom_bond_atom_site_label_2
_geom_bond_site_symmetry_1
_geom_bond_site_symmetry_2
Fe1 Cl1 1_555 1_555
F1 C10 1_555 1_555
F2 C8 1_555 1_555
N1 Fe1 1_555 1_555
N2 N3 1_555 1_555
N3 C2 1_555 1_555
N4 C12 1_555 1_555
N5 N6 1_555 1_555
N6 C13 1_555 1_555
C1 N1 1_555 1_555
H1 C1 1_555 1_555
C2 N1 1_555 1_555
H2 C2 1_555 1_555
C3 N3 1_555 1_555
H3 C3 1_555 1_555
H4 C3 1_555 1_555
C4 C3 1_555 1_555
C5 C4 1_555 1_555
C6 C5 1_555 1_555
H5 C6 1_555 1_555
C7 C6 1_555 1_555
H6 C7 1_555 1_555
C8 C7 1_555 1_555
C9 C8 1_555 1_555
H7 C9 1_555 1_555
C10 C5 1_555 1_555
C11 N5 1_555 1_555
H8 C11 1_555 1_555
H9 C11 1_555 1_555
C12 N5 1_555 1_555
H10 C12 1_555 1_555
C13 N4 1_555 1_555
H11 C13 1_555 1_555
C14 H12 1_555 1_555
H13 C14 1_555 1_555
H14 C14 1_555 1_555
O1 C4 1_555 1_555
O2 C14 1_555 1_555
H15 O2 1_555 1_555
Fe1G N4 1_555 1_555
Fe1G_2 N4D 1_555 1_555
Cl1D Fe1 1_555 1_555
F1D C10D 1_555 1_555
F2D C8D 1_555 1_555
N1D Fe1 1_555 1_555
N2D N3D 1_555 1_555
N3D C2D 1_555 1_555
N4D C12D 1_555 1_555
N4G Fe1 1_555 1_555
N4C Fe1 1_555 1_555
N5D N6D 1_555 1_555
N6D C13D 1_555 1_555
C1D N1D 1_555 1_555
H1D C1D 1_555 1_555
C2D N1D 1_555 1_555
H2D C2D 1_555 1_555
C3D N3D 1_555 1_555
H3D C3D 1_555 1_555
H4D C3D 1_555 1_555
C4D C3D 1_555 1_555
C5D C4D 1_555 1_555
C6D C5D 1_555 1_555
H5D C6D 1_555 1_555
C7D C6D 1_555 1_555
H6D C7D 1_555 1_555
C8D C7D 1_555 1_555
C9D C8D 1_555 1_555
H7D C9D 1_555 1_555
C10D C5D 1_555 1_555
C11D N5D 1_555 1_555
H8D C11D 1_555 1_555
H9D C11D 1_555 1_555
C12D N5D 1_555 1_555
H10D C12D 1_555 1_555
C13D N4D 1_555 1_555
H11D C13D 1_555 1_555
O1D C4D 1_555 1_555
N2 C1 1_555 1_555
C4 C11 1_555 1_555
C9 C10 1_555 1_555
N2D C1D 1_555 1_555
C4D C11D 1_555 1_555
C9D C10D 1_555 1_555

#END
