
#######################################################################
#
#                 Cambridge Crystallographic Data Centre
#                                CCDC 
#
#######################################################################
#
# If this CIF has been generated from an entry in the Cambridge 
# Structural Database, then it will include bibliographic, chemical, 
# crystal, experimental, refinement or atomic coordinate data resulting 
# from the CCDC's data processing and validation procedures.
#
#######################################################################

data_QEHHIV
_symmetry_cell_setting           monoclinic
_symmetry_space_group_name_H-M   'C 2/c'
_symmetry_Int_Tables_number      15
_space_group_name_Hall           '-C 2yn'
loop_
_symmetry_equiv_pos_site_id
_symmetry_equiv_pos_as_xyz
1 x,y,z
2 1/2+x,1/2+y,z
3 -x,y,1/2-z
4 1/2-x,1/2+y,1/2-z
5 -x,-y,-z
6 1/2-x,1/2-y,-z
7 x,-y,1/2+z
8 1/2+x,1/2-y,1/2+z
_cell_length_a                   30.205(9)
_cell_length_b                   5.410(8)
_cell_length_c                   21.114(9)
_cell_angle_alpha                90
_cell_angle_beta                 127.33(4)
_cell_angle_gamma                90
_cell_volume                     2743.46
loop_
_atom_site_label
_atom_site_type_symbol
_atom_site_fract_x
_atom_site_fract_y
_atom_site_fract_z
Mg1 Mg 0.25000 0.75000 0.50000
P1 P 0.19668(3) 0.24282(15) 0.37560(5)
P2 P 0.13977(3) 0.43835(16) 0.44545(5)
O1 O 0.24033(8) 0.4366(4) 0.42934(12)
O2 O 0.20866(10) -0.0192(4) 0.40336(12)
O3 O 0.17478(9) 0.6639(4) 0.47805(13)
O4 O 0.15908(10) 0.2167(4) 0.50306(14)
C1 C 0.13232(14) 0.3402(7) 0.3582(2)
H1 H 0.1157 0.4795 0.3215
H2 H 0.1091 0.2033 0.3381
C2 C 0.18211(13) 0.2578(6) 0.27943(18)
C3 C 0.15281(17) 0.0684(7) 0.2260(2)
H3 H 0.1399 -0.0619 0.2396
C4 C 0.14222(19) 0.0690(8) 0.1521(2)
H4 H 0.1218 -0.0585 0.1161
C5 C 0.16186(18) 0.2570(8) 0.1329(2)
H5 H 0.1558 0.2558 0.0841
C6 C 0.19057(18) 0.4479(8) 0.1849(2)
H6 H 0.2036 0.5769 0.1711
C7 C 0.20040(15) 0.4503(7) 0.2583(2)
H7 H 0.2193 0.582 0.293
C8 C 0.07045(14) 0.4925(7) 0.4146(2)
C9 C 0.0456(2) 0.3411(13) 0.4345(4)
H8 H 0.0646 0.2029 0.4658
C10 C -0.0080(2) 0.3878(16) 0.4090(4)
H9 H -0.024 0.2794 0.424
C11 C -0.03656(18) 0.5755(9) 0.3652(3)
H10 H -0.0727 0.6018 0.3481
C12 C -0.0129(3) 0.7278(12) 0.3458(6)
H11 H -0.0326 0.8648 0.3142
C13 C 0.0413(2) 0.6872(11) 0.3717(5)
H12 H 0.0574 0.8012 0.3583
H13 H 0.1893 0.1685 0.5229
Mg1_2 Mg 0.25000 -0.25000 0.50000
Mg1_3 Mg 0.25000 1.75000 0.50000
P1E P 0.30332(3) 1.25718(15) 0.62440(5)
P2E P 0.36023(3) 1.06165(16) 0.55455(5)
O1E O 0.25967(8) 1.0634(4) 0.57066(12)
O2E O 0.29134(10) 1.5192(4) 0.59664(12)
O2_2 O 0.20866(10) 0.9808(4) 0.40336(12)
O2E_2 O 0.29134(10) 0.5192(4) 0.59664(12)
O3E O 0.32522(9) 0.8361(4) 0.52195(13)
O4E O 0.34092(10) 1.2833(4) 0.49694(14)
C1E C 0.36768(14) 1.1598(7) 0.6418(2)
H1E H 0.3843 1.0205 0.6785
H2E H 0.3909 1.2967 0.6619
C2E C 0.31789(13) 1.2422(6) 0.72057(18)
C3E C 0.34719(17) 1.4316(7) 0.7740(2)
H3E H 0.3601 1.5619 0.7604
C4E C 0.35778(19) 1.4310(8) 0.8479(2)
H4E H 0.3782 1.5585 0.8839
C5E C 0.33814(18) 1.2430(8) 0.8671(2)
H5E H 0.3442 1.2442 0.9159
C6E C 0.30943(18) 1.0521(8) 0.8151(2)
H6E H 0.2964 0.9231 0.8289
C7E C 0.29960(15) 1.0497(7) 0.7417(2)
H7E H 0.2807 0.918 0.707
C8E C 0.42955(14) 1.0075(7) 0.5854(2)
C9E C 0.4544(2) 1.1589(13) 0.5655(4)
H8E H 0.4354 1.2971 0.5342
C10E C 0.5080(2) 1.1122(16) 0.5910(4)
H9E H 0.524 1.2206 0.576
C11E C 0.53656(18) 0.9245(9) 0.6348(3)
H10E H 0.5727 0.8982 0.6519
C12E C 0.5129(3) 0.7722(12) 0.6542(6)
H11E H 0.5326 0.6352 0.6858
C13E C 0.4587(2) 0.8128(11) 0.6283(5)
H12E H 0.4426 0.6988 0.6417
H13E H 0.3107 1.3315 0.4771
loop_
_geom_bond_atom_site_label_1
_geom_bond_atom_site_label_2
_geom_bond_site_symmetry_1
_geom_bond_site_symmetry_2
Mg1 O1 1_555 1_555
P1 O1 1_555 1_555
P2 O3 1_555 1_555
O2 P1 1_555 1_555
O3 Mg1 1_555 1_555
O4 P2 1_555 1_555
C1 P1 1_555 1_555
H1 C1 1_555 1_555
H2 C1 1_555 1_555
C2 P1 1_555 1_555
C3 C2 1_555 1_555
H3 C3 1_555 1_555
C4 C3 1_555 1_555
H4 C4 1_555 1_555
C5 C4 1_555 1_555
H5 C5 1_555 1_555
C6 C5 1_555 1_555
H6 C6 1_555 1_555
C7 C2 1_555 1_555
H7 C7 1_555 1_555
C8 P2 1_555 1_555
C9 C8 1_555 1_555
H8 C9 1_555 1_555
C10 C9 1_555 1_555
H9 C10 1_555 1_555
C11 C10 1_555 1_555
H10 C11 1_555 1_555
C12 C11 1_555 1_555
H11 C12 1_555 1_555
C13 C8 1_555 1_555
H12 C13 1_555 1_555
H13 O4 1_555 1_555
Mg1_2 O2 1_555 1_555
Mg1_3 O2E 1_555 1_555
P1E O1E 1_555 1_555
P2E O3E 1_555 1_555
O1E Mg1 1_555 1_555
O2E P1E 1_555 1_555
O2_2 Mg1 1_555 1_555
O2E_2 Mg1 1_555 1_555
O3E Mg1 1_555 1_555
O4E P2E 1_555 1_555
C1E P1E 1_555 1_555
H1E C1E 1_555 1_555
H2E C1E 1_555 1_555
C2E P1E 1_555 1_555
C3E C2E 1_555 1_555
H3E C3E 1_555 1_555
C4E C3E 1_555 1_555
H4E C4E 1_555 1_555
C5E C4E 1_555 1_555
H5E C5E 1_555 1_555
C6E C5E 1_555 1_555
H6E C6E 1_555 1_555
C7E C2E 1_555 1_555
H7E C7E 1_555 1_555
C8E P2E 1_555 1_555
C9E C8E 1_555 1_555
H8E C9E 1_555 1_555
C10E C9E 1_555 1_555
H9E C10E 1_555 1_555
C11E C10E 1_555 1_555
H10E C11E 1_555 1_555
C12E C11E 1_555 1_555
H11E C12E 1_555 1_555
C13E C8E 1_555 1_555
H12E C13E 1_555 1_555
H13E O4E 1_555 1_555
P2 C1 1_555 1_555
C6 C7 1_555 1_555
C12 C13 1_555 1_555
P2E C1E 1_555 1_555
C6E C7E 1_555 1_555
C12E C13E 1_555 1_555

#END
