
#######################################################################
#
#                 Cambridge Crystallographic Data Centre
#                                CCDC 
#
#######################################################################
#
# If this CIF has been generated from an entry in the Cambridge 
# Structural Database, then it will include bibliographic, chemical, 
# crystal, experimental, refinement or atomic coordinate data resulting 
# from the CCDC's data processing and validation procedures.
#
#######################################################################

data_QEHHUH
_symmetry_cell_setting           monoclinic
_symmetry_space_group_name_H-M   'C 2/c'
_symmetry_Int_Tables_number      15
_space_group_name_Hall           '-C 2yn'
loop_
_symmetry_equiv_pos_site_id
_symmetry_equiv_pos_as_xyz
1 x,y,z
2 1/2+x,1/2+y,z
3 -x,y,1/2-z
4 1/2-x,1/2+y,1/2-z
5 -x,-y,-z
6 1/2-x,1/2-y,-z
7 x,-y,1/2+z
8 1/2+x,1/2-y,1/2+z
_cell_length_a                   30.298(9)
_cell_length_b                   12.395(6)
_cell_length_c                   7.864(6)
_cell_angle_alpha                90
_cell_angle_beta                 91.05(6)
_cell_angle_gamma                90
_cell_volume                     2952.78
loop_
_atom_site_label
_atom_site_type_symbol
_atom_site_fract_x
_atom_site_fract_y
_atom_site_fract_z
Ca1 Ca 0.25649(7) 0.34660(15) 0.8286(2)
P1 P 0.18923(9) 0.1095(2) 0.7796(3)
P2 P 0.18278(9) 0.2885(2) 0.4829(3)
O1 O 0.2125(2) 0.1905(5) 0.8927(8)
O2 O 0.2057(2) -0.0053(5) 0.7670(7)
O3 O 0.20938(19) 0.3679(4) 0.5952(7)
O4 O 0.19526(19) 0.2773(5) 0.2921(7)
O5 O 0.2010(2) 0.4243(6) 1.0059(8)
C1 C 0.1910(4) 0.1612(8) 0.5602(13)
H1 H 0.2199 0.1407 0.5203
H2 H 0.17 0.1168 0.497
C2 C 0.1053(2) 0.0301(5) 0.7853(8)
H3 H 0.1169 -0.0271 0.724
C3 C 0.0609(2) 0.0308(5) 0.8256(9)
H4 H 0.0427 -0.026 0.7914
C4 C 0.04350(17) 0.1163(6) 0.9172(9)
H5 H 0.0137 0.1167 0.9442
C5 C 0.0706(2) 0.2011(5) 0.9684(8)
H6 H 0.059 0.2583 1.0297
C6 C 0.1151(2) 0.2005(4) 0.9281(8)
H7 H 0.1332 0.2573 0.9624
C7 C 0.13244(17) 0.1150(5) 0.8365(8)
C8 C 0.1163(2) 0.4054(5) 0.6240(8)
H8 H 0.1384 0.4399 0.687
C9 C 0.0723(3) 0.4311(5) 0.6504(8)
H9 H 0.065 0.4827 0.7309
C10 C 0.03922(18) 0.3796(6) 0.5563(10)
H10 H 0.0098 0.3968 0.5739
C11 C 0.0501(2) 0.3025(6) 0.4358(9)
H11 H 0.028 0.268 0.3729
C12 C 0.0942(2) 0.2768(4) 0.4095(8)
H12 H 0.1015 0.2252 0.329
C13 C 0.12724(17) 0.3283(5) 0.5036(8)
Ca1E Ca 0.24351(7) 0.15340(15) 1.1714(2)
Ca1C Ca 0.24351(7) -0.15340(15) 0.6714(2)
Ca1E_2 Ca 0.24351(7) 0.15340(15) 0.1714(2)
O1E O 0.2875(2) 0.3095(5) 1.1073(8)
O2C O 0.2943(2) 0.4947(5) 0.7330(7)
O4E O 0.30474(19) 0.2227(5) 0.7079(7)
loop_
_geom_bond_atom_site_label_1
_geom_bond_atom_site_label_2
_geom_bond_site_symmetry_1
_geom_bond_site_symmetry_2
Ca1 O1 1_555 1_555
P1 O1 1_555 1_555
P2 O3 1_555 1_555
O1 Ca1E 1_555 1_555
O2 P1 1_555 1_555
O3 Ca1 1_555 1_555
O4 P2 1_555 1_555
O5 Ca1 1_555 1_555
C1 P1 1_555 1_555
H1 C1 1_555 1_555
H2 C1 1_555 1_555
C2 H3 1_555 1_555
C3 C2 1_555 1_555
H4 C3 1_555 1_555
C4 C3 1_555 1_555
H5 C4 1_555 1_555
C5 C4 1_555 1_555
H6 C5 1_555 1_555
C6 C5 1_555 1_555
H7 C6 1_555 1_555
C7 P1 1_555 1_555
C8 H8 1_555 1_555
C9 C8 1_555 1_555
H9 C9 1_555 1_555
C10 C9 1_555 1_555
H10 C10 1_555 1_555
C11 C10 1_555 1_555
H11 C11 1_555 1_555
C12 C11 1_555 1_555
H12 C12 1_555 1_555
C13 P2 1_555 1_555
Ca1E O1E 1_555 1_555
Ca1C O2 1_555 1_555
Ca1E_2 O4 1_555 1_555
O1E Ca1 1_555 1_555
O2C Ca1 1_555 1_555
O4E Ca1 1_555 1_555
P2 C1 1_555 1_555
C2 C7 1_555 1_555
C6 C7 1_555 1_555
C8 C13 1_555 1_555
C12 C13 1_555 1_555

#END
