
#######################################################################
#
#                 Cambridge Crystallographic Data Centre
#                                CCDC 
#
#######################################################################
#
# If this CIF has been generated from an entry in the Cambridge 
# Structural Database, then it will include bibliographic, chemical, 
# crystal, experimental, refinement or atomic coordinate data resulting 
# from the CCDC's data processing and validation procedures.
#
#######################################################################

data_QEHJIX
_symmetry_cell_setting           monoclinic
_symmetry_space_group_name_H-M   'P 21'
_symmetry_Int_Tables_number      4
_space_group_name_Hall           'P 2yb'
loop_
_symmetry_equiv_pos_site_id
_symmetry_equiv_pos_as_xyz
1 x,y,z
2 -x,1/2+y,-z
_cell_length_a                   6.5862(16)
_cell_length_b                   7.4959(19)
_cell_length_c                   12.106(3)
_cell_angle_alpha                90.00
_cell_angle_beta                 97.954(5)
_cell_angle_gamma                90.00
_cell_volume                     591.917
loop_
_atom_site_label
_atom_site_type_symbol
_atom_site_fract_x
_atom_site_fract_y
_atom_site_fract_z
Ba1 Ba 0.65090(5) 0.64389(10) 0.08550(3)
C1 C 0.6489(10) 0.7134(9) 0.4271(6)
C2 C 0.8262(8) 0.6127(10) 0.4341(5)
H1 H 0.8550 0.5471 0.3729
C3 C 0.9659(8) 0.6155(10) 0.5352(4)
H2 H 1.0843 0.5465 0.5407
C4 C 0.9223(10) 0.7144(8) 0.6242(5)
C5 C 0.7448(10) 0.8080(8) 0.6198(6)
H3 H 0.7149 0.8716 0.6816
C6 C 0.6024(10) 0.8050(9) 0.5200(5)
H4 H 0.4786 0.8658 0.5165
C7 C 0.3254(9) 0.7765(10) 0.3209(6)
H5 H 0.3283 0.9058 0.3185
H6 H 0.2679 0.7410 0.3871
C8 C 0.1953(10) 0.7006(9) 0.2184(5)
C9 C 1.2279(9) 0.6087(9) 0.7346(5)
H7 H 1.3126 0.6315 0.6767
H8 H 1.1789 0.4867 0.7267
C10 C 1.3540(8) 0.638(2) 0.8481(4)
O1 O 0.5280(7) 0.7068(6) 0.3254(3)
O2 O 0.2760(7) 0.6119(8) 0.1469(3)
O3 O 0.0054(7) 0.7313(7) 0.2108(4)
O4 O 1.0553(7) 0.7289(6) 0.7210(4)
O5 O 1.4426(9) 0.4982(8) 0.8910(5)
O6 O 1.3677(8) 0.7870(8) 0.8916(5)
O7 O 0.9530(13) 0.4942(13) -0.0232(8)
H9 H 0.9091 0.3900 -0.0664
H10 H 1.0810 0.4697 0.0224
Ba1_2 Ba -0.34910(5) 0.64389(10) 0.08550(3)
Ba1_3 Ba 1.65090(5) 0.64389(10) 1.08550(3)
Ba1A Ba 1.34910(5) 0.14389(10) 0.91450(3)
Ba1A_2 Ba 1.34910(5) 1.14389(10) 0.91450(3)
O3_2 O 1.0054(7) 0.7313(7) 0.2108(4)
O5_2 O 0.4426(9) 0.4982(8) -0.1090(5)
O5A O 0.5574(9) 0.9982(8) 0.1090(5)
O6_2 O 0.3677(8) 0.7870(8) -0.1084(5)
O6A O 0.6323(8) 0.2870(8) 0.1084(5)
loop_
_geom_bond_atom_site_label_1
_geom_bond_atom_site_label_2
_geom_bond_site_symmetry_1
_geom_bond_site_symmetry_2
Ba1 O1 1_555 1_555
C1 C2 1_555 1_555
C2 H1 1_555 1_555
C3 C2 1_555 1_555
H2 C3 1_555 1_555
C4 C3 1_555 1_555
C5 C4 1_555 1_555
H3 C5 1_555 1_555
C6 C1 1_555 1_555
H4 C6 1_555 1_555
C7 H5 1_555 1_555
H6 C7 1_555 1_555
C8 C7 1_555 1_555
C9 H7 1_555 1_555
H8 C9 1_555 1_555
C10 C9 1_555 1_555
O1 C1 1_555 1_555
O2 Ba1 1_555 1_555
O3 C8 1_555 1_555
O4 C4 1_555 1_555
O5 C10 1_555 1_555
O6 C10 1_555 1_555
O7 Ba1 1_555 1_555
H9 O7 1_555 1_555
H10 O7 1_555 1_555
Ba1_2 O3 1_555 1_555
Ba1_3 O5 1_555 1_555
Ba1A O5 1_555 1_555
Ba1A_2 O6 1_555 1_555
O3_2 Ba1 1_555 1_555
O5_2 Ba1 1_555 1_555
O5A Ba1 1_555 1_555
O6_2 Ba1 1_555 1_555
O6A Ba1 1_555 1_555
C5 C6 1_555 1_555
C7 O1 1_555 1_555
C8 O2 1_555 1_555
C9 O4 1_555 1_555
O6 Ba1_3 1_555 1_555

#END
