
#######################################################################
#
#                 Cambridge Crystallographic Data Centre
#                                CCDC 
#
#######################################################################
#
# If this CIF has been generated from an entry in the Cambridge 
# Structural Database, then it will include bibliographic, chemical, 
# crystal, experimental, refinement or atomic coordinate data resulting 
# from the CCDC's data processing and validation procedures.
#
#######################################################################

data_QEHJOD
_symmetry_cell_setting           monoclinic
_symmetry_space_group_name_H-M   'P 21/c'
_symmetry_Int_Tables_number      14
_space_group_name_Hall           '-P 2ybc'
loop_
_symmetry_equiv_pos_site_id
_symmetry_equiv_pos_as_xyz
1 x,y,z
2 -x,1/2+y,1/2-z
3 -x,-y,-z
4 x,1/2-y,1/2+z
_cell_length_a                   6.4361(15)
_cell_length_b                   7.1745(17)
_cell_length_c                   24.245(6)
_cell_angle_alpha                90.00
_cell_angle_beta                 100.010(6)
_cell_angle_gamma                90.00
_cell_volume                     1102.49
loop_
_atom_site_label
_atom_site_type_symbol
_atom_site_fract_x
_atom_site_fract_y
_atom_site_fract_z
Sr1 Sr 0.88706(5) 0.24984(4) 0.959862(12)
C1 C 0.8700(5) 0.3199(5) 0.79592(12)
C2 C 0.6823(5) 0.2233(4) 0.78976(14)
H1 H 0.6486 0.1563 0.8198
C3 C 0.5433(5) 0.2231(4) 0.73898(13)
H2 H 0.4161 0.1589 0.7352
C4 C 0.5960(5) 0.3196(5) 0.69387(13)
C5 C 0.7861(5) 0.4132(4) 0.69986(13)
H3 H 0.8239 0.4742 0.6693
C6 C 0.9223(5) 0.4140(5) 0.75086(13)
H4 H 1.0488 0.4793 0.7548
C7 C 1.2035(5) 0.3799(5) 0.85338(13)
H5 H 1.2024 0.5149 0.8555
H6 H 1.2599 0.3446 0.8204
C8 C 1.3432(5) 0.3014(5) 0.90506(13)
C9 C 0.2868(5) 0.2166(5) 0.63433(13)
H7 H 0.1995 0.2437 0.6621
H8 H 0.3312 0.0879 0.6388
C10 C 0.1611(5) 0.2456(5) 0.57644(14)
O1 O 0.9932(3) 0.3113(3) 0.84865(8)
O2 O 1.2584(3) 0.2238(3) 0.94138(9)
O3 O 1.5332(3) 0.3207(3) 0.90628(9)
O4 O 0.4679(3) 0.3355(3) 0.64277(9)
O5 O 0.0780(3) 0.1014(3) 0.55214(9)
O6 O 0.1350(3) 0.4064(3) 0.55608(9)
O7 O 0.6222(4) 0.1994(3) 1.02588(9)
H9 H 0.6626 0.0917 1.0487
H10 H 0.4841 0.1806 1.0043
Sr1_2 Sr 1.88706(5) 0.24984(4) 0.959862(12)
Sr1C Sr -0.11294(5) 0.25016(4) 0.459862(12)
Sr1A Sr 0.11294(5) -0.25016(4) 0.540138(12)
Sr1A_2 Sr 0.11294(5) 0.74984(4) 0.540138(12)
O3_2 O 0.5332(3) 0.3207(3) 0.90628(9)
O5C O 1.0780(3) 0.3986(3) 1.05214(9)
O5A O 0.9220(3) 0.6014(3) 0.94786(9)
O6C O 1.1350(3) 0.0936(3) 1.05608(9)
O6A O 0.8650(3) -0.0936(3) 0.94392(9)
loop_
_geom_bond_atom_site_label_1
_geom_bond_atom_site_label_2
_geom_bond_site_symmetry_1
_geom_bond_site_symmetry_2
Sr1 O1 1_555 1_555
C1 C2 1_555 1_555
C2 H1 1_555 1_555
C3 C2 1_555 1_555
H2 C3 1_555 1_555
C4 C3 1_555 1_555
C5 C4 1_555 1_555
H3 C5 1_555 1_555
C6 C1 1_555 1_555
H4 C6 1_555 1_555
C7 H5 1_555 1_555
H6 C7 1_555 1_555
C8 C7 1_555 1_555
C9 H7 1_555 1_555
H8 C9 1_555 1_555
C10 C9 1_555 1_555
O1 C1 1_555 1_555
O2 Sr1 1_555 1_555
O3 C8 1_555 1_555
O4 C4 1_555 1_555
O5 C10 1_555 1_555
O6 C10 1_555 1_555
O7 Sr1 1_555 1_555
H9 O7 1_555 1_555
H10 O7 1_555 1_555
Sr1_2 O3 1_555 1_555
Sr1C O5 1_555 1_555
Sr1A O5 1_555 1_555
Sr1A_2 O6 1_555 1_555
O3_2 Sr1 1_555 1_555
O5C Sr1 1_555 1_555
O5A Sr1 1_555 1_555
O6C Sr1 1_555 1_555
O6A Sr1 1_555 1_555
C5 C6 1_555 1_555
C7 O1 1_555 1_555
C8 O2 1_555 1_555
C9 O4 1_555 1_555
O6 Sr1C 1_555 1_555

#END
