
#######################################################################
#
#                 Cambridge Crystallographic Data Centre
#                                CCDC 
#
#######################################################################
#
# If this CIF has been generated from an entry in the Cambridge 
# Structural Database, then it will include bibliographic, chemical, 
# crystal, experimental, refinement or atomic coordinate data resulting 
# from the CCDC's data processing and validation procedures.
#
#######################################################################

data_QEHKUK
_symmetry_cell_setting           triclinic
_symmetry_space_group_name_H-M   'P -1'
_symmetry_Int_Tables_number      2
_space_group_name_Hall           '-P 1'
loop_
_symmetry_equiv_pos_site_id
_symmetry_equiv_pos_as_xyz
1 x,y,z
2 -x,-y,-z
_cell_length_a                   7.5866(5)
_cell_length_b                   9.8144(7)
_cell_length_c                   10.0945(7)
_cell_angle_alpha                86.302(3)
_cell_angle_beta                 88.910(3)
_cell_angle_gamma                85.664(3)
_cell_volume                     747.828
loop_
_atom_site_label
_atom_site_type_symbol
_atom_site_fract_x
_atom_site_fract_y
_atom_site_fract_z
Cu1 Cu -0.14258(11) 0.28050(9) 0.20816(9)
Cl1 Cl 0.0335(3) 0.4770(2) 0.2253(2)
O1 O 0.0043(6) 0.2231(6) 0.0540(5)
O2 O -0.2093(7) -0.0366(6) 0.1628(6)
O3 O 0.0304(7) 0.1533(6) 0.3217(5)
O4 O -0.3010(7) 0.0093(6) 0.4840(6)
N1 N -0.5205(9) 0.3106(7) 0.5037(6)
H3 H -0.6241 0.2993 0.5367
N2 N -0.2930(8) 0.3181(6) 0.3627(6)
N3 N -0.3577(8) 0.2995(7) 0.0939(6)
N4 N -0.6390(8) 0.3149(7) 0.0406(6)
H4 H -0.7517 0.3114 0.0475
N5 N -0.5387(8) 0.0765(7) 0.2889(6)
H5 H -0.4214 0.0544 0.2880
H6 H -0.5810 0.0469 0.3686
C1 C -0.6190(11) 0.0011(9) 0.1861(9)
H7 H -0.5912 -0.0954 0.2034
H8 H -0.5730 0.0294 0.1003
H9 H -0.7450 0.0203 0.1880
C2 C -0.5689(10) 0.2322(8) 0.2759(7)
H10 H -0.6947 0.2572 0.2917
C3 C -0.4675(11) 0.2887(8) 0.3782(8)
C4 C -0.3823(12) 0.3537(9) 0.5692(8)
H11 H -0.3822 0.3757 0.6575
C5 C -0.2445(10) 0.3586(9) 0.4821(8)
H12 H -0.1334 0.3856 0.5012
C6 C -0.5208(9) 0.2844(8) 0.1380(7)
C7 C -0.3711(10) 0.3431(7) -0.0383(8)
H13 H -0.2770 0.3627 -0.0950
C8 C -0.5446(11) 0.3528(9) -0.0721(8)
H14 H -0.5906 0.3798 -0.1552
C9 C 0.0015(9) 0.1005(8) 0.0233(7)
C10 C -0.0932(10) -0.0161(8) 0.0747(7)
C11 C 0.0064(10) 0.0711(8) 0.4192(7)
C12 C -0.1358(10) 0.0060(8) 0.4923(7)
Cu1A Cu 0.14258(11) -0.28050(9) -0.20816(9)
Cu1A_2 Cu 0.14258(11) -0.28050(9) 0.79184(9)
Cl1A Cl -0.0335(3) -0.4770(2) -0.2253(2)
O1A O -0.0043(6) -0.2231(6) -0.0540(5)
O2A O 0.2093(7) 0.0366(6) -0.1628(6)
O3A O -0.0304(7) -0.1533(6) 0.6783(5)
O3A_2 O -0.0304(7) -0.1533(6) -0.3217(5)
O4A O 0.3010(7) -0.0093(6) 0.5160(6)
N1A N 0.5205(9) -0.3106(7) -0.5037(6)
H3A H 0.6241 -0.2993 -0.5367
N2A N 0.2930(8) -0.3181(6) -0.3627(6)
N3A N 0.3577(8) -0.2995(7) -0.0939(6)
N4A N 0.6390(8) -0.3149(7) -0.0406(6)
H4A H 0.7517 -0.3114 -0.0475
N5A N 0.5387(8) -0.0765(7) -0.2889(6)
H5A H 0.4214 -0.0544 -0.2880
H6A H 0.5810 -0.0469 -0.3686
C1A C 0.6190(11) -0.0011(9) -0.1861(9)
H7A H 0.5912 0.0954 -0.2034
H8A H 0.5730 -0.0294 -0.1003
H9A H 0.7450 -0.0203 -0.1880
C2A C 0.5689(10) -0.2322(8) -0.2759(7)
H10A H 0.6947 -0.2572 -0.2917
C3A C 0.4675(11) -0.2887(8) -0.3782(8)
C4A C 0.3823(12) -0.3537(9) -0.5692(8)
H11A H 0.3822 -0.3757 -0.6575
C5A C 0.2445(10) -0.3586(9) -0.4821(8)
H12A H 0.1334 -0.3856 -0.5012
C6A C 0.5208(9) -0.2844(8) -0.1380(7)
C7A C 0.3711(10) -0.3431(7) 0.0383(8)
H13A H 0.2770 -0.3627 0.0950
C8A C 0.5446(11) -0.3528(9) 0.0721(8)
H14A H 0.5906 -0.3798 0.1552
C9A C -0.0015(9) -0.1005(8) -0.0233(7)
C10A C 0.0932(10) 0.0161(8) -0.0747(7)
C11A C -0.0064(10) -0.0711(8) 0.5808(7)
C12A C 0.1358(10) -0.0060(8) 0.5077(7)
O5 O -0.1880(9) -0.2762(7) 0.3413(7)
H1 H -0.0908 -0.3268 0.2723
H2 H -0.1328 -0.1913 0.2939
loop_
_geom_bond_atom_site_label_1
_geom_bond_atom_site_label_2
_geom_bond_site_symmetry_1
_geom_bond_site_symmetry_2
Cu1 Cl1 1_555 1_555
O1 Cu1 1_555 1_555
O2 C10 1_555 1_555
O3 Cu1 1_555 1_555
O4 C12 1_555 1_555
O5 H1 1_555 1_555
H2 O5 1_555 1_555
N1 H3 1_555 1_555
N2 Cu1 1_555 1_555
N3 Cu1 1_555 1_555
N4 H4 1_555 1_555
N5 H5 1_555 1_555
H6 N5 1_555 1_555
C1 N5 1_555 1_555
H7 C1 1_555 1_555
H8 C1 1_555 1_555
H9 C1 1_555 1_555
C2 N5 1_555 1_555
H10 C2 1_555 1_555
C3 N1 1_555 1_555
C4 N1 1_555 1_555
H11 C4 1_555 1_555
C5 N2 1_555 1_555
H12 C5 1_555 1_555
C6 N3 1_555 1_555
C7 N3 1_555 1_555
H13 C7 1_555 1_555
C8 N4 1_555 1_555
H14 C8 1_555 1_555
C9 O1 1_555 1_555
C10 C9 1_555 1_555
C11 O3 1_555 1_555
C12 C11 1_555 1_555
Cu1A Cl1A 1_555 1_555
Cu1A_2 O3A 1_555 1_555
O1A Cu1A 1_555 1_555
O2A C10A 1_555 1_555
O3A C11A 1_555 1_555
O3A_2 Cu1A 1_555 1_555
O4A C12A 1_555 1_555
N1A H3A 1_555 1_555
N2A Cu1A 1_555 1_555
N3A Cu1A 1_555 1_555
N4A H4A 1_555 1_555
N5A H5A 1_555 1_555
H6A N5A 1_555 1_555
C1A N5A 1_555 1_555
H7A C1A 1_555 1_555
H8A C1A 1_555 1_555
H9A C1A 1_555 1_555
C2A N5A 1_555 1_555
H10A C2A 1_555 1_555
C3A N1A 1_555 1_555
C4A N1A 1_555 1_555
H11A C4A 1_555 1_555
C5A N2A 1_555 1_555
H12A C5A 1_555 1_555
C6A N3A 1_555 1_555
C7A N3A 1_555 1_555
H13A C7A 1_555 1_555
C8A N4A 1_555 1_555
H14A C8A 1_555 1_555
C9A C10 1_555 1_555
C10A C9 1_555 1_555
C11A C12 1_555 1_555
C12A C11 1_555 1_555
N2 C3 1_555 1_555
N4 C6 1_555 1_555
C2 C3 1_555 1_555
C2 C6 1_555 1_555
C4 C5 1_555 1_555
C7 C8 1_555 1_555
O1A C9A 1_555 1_555
N2A C3A 1_555 1_555
N4A C6A 1_555 1_555
C2A C3A 1_555 1_555
C2A C6A 1_555 1_555
C4A C5A 1_555 1_555
C7A C8A 1_555 1_555
C9A C10A 1_555 1_555
C11A C12A 1_555 1_555

#END
