
#######################################################################
#
#                 Cambridge Crystallographic Data Centre
#                                CCDC 
#
#######################################################################
#
# If this CIF has been generated from an entry in the Cambridge 
# Structural Database, then it will include bibliographic, chemical, 
# crystal, experimental, refinement or atomic coordinate data resulting 
# from the CCDC's data processing and validation procedures.
#
#######################################################################

data_QEHLEU
_symmetry_cell_setting           orthorhombic
_symmetry_space_group_name_H-M   'P n m a'
_symmetry_Int_Tables_number      62
_space_group_name_Hall           '-P 2ac 2n'
loop_
_symmetry_equiv_pos_site_id
_symmetry_equiv_pos_as_xyz
1 x,y,z
2 1/2-x,-y,1/2+z
3 1/2+x,1/2-y,1/2-z
4 -x,1/2+y,-z
5 -x,-y,-z
6 1/2+x,y,1/2-z
7 1/2-x,1/2+y,1/2+z
8 x,1/2-y,z
_cell_length_a                   17.8642(2)
_cell_length_b                   11.9216(2)
_cell_length_c                   7.2860(2)
_cell_angle_alpha                90
_cell_angle_beta                 90
_cell_angle_gamma                90
_cell_volume                     1551.7
loop_
_atom_site_label
_atom_site_type_symbol
_atom_site_fract_x
_atom_site_fract_y
_atom_site_fract_z
Co1 Co 0.4249(1) 0.2500 0.3886(1)
O1 O 0.3178(2) 0.2500 0.2621(5)
N1 N 0.3782(2) 0.1385(3) 0.5905(4)
N2 N 0.3182(2) 0.1339(3) 0.8830(4)
N3 N 0.4605(2) 0.1231(4) 0.2106(5)
N4 N 0.5204(6) 0.0695(8) -0.0795(11)
N5 N 0.5268(3) 0.2500 0.5329(8)
N6 N 0.6403(7) 0.2932(12) 0.6960(18)
N7 N 0.6969(3) 0.2500 0.9858(8)
C1 C 0.3479(2) 0.1868(3) 0.7399(5)
C2 C 0.3183(3) 0.0229(4) 0.8745(6)
C3 C 0.3468(3) -0.0355(4) 0.7263(7)
C4 C 0.3777(3) 0.0261(4) 0.5867(6)
C5 C 0.4886(5) 0.0948(9) 0.0775(12)
C6 C 0.4701(5) 0.0303(10) 0.1405(11)
C7 C 0.5776(4) 0.2500 0.6188(11)
C8 C 0.6656(4) 0.2500 0.8547(11)
N1G N 0.3782(2) 0.3615(3) 0.5905(4)
N3G N 0.4605(2) 0.3769(4) 0.2106(5)
C6D C 0.5299(5) -0.0303(10) -0.1405(11)
N6G N 0.6403(7) 0.2068(12) 0.6960(18)
C1G C 0.3479(2) 0.3132(3) 0.7399(5)
N4D N 0.4796(6) -0.0695(8) 0.0795(11)
N2G N 0.3182(2) 0.3661(3) 0.8830(4)
C4G C 0.3777(3) 0.4739(4) 0.5867(6)
C5D C 0.5114(5) -0.0948(9) -0.0775(12)
N3D N 0.5395(2) -0.1231(4) -0.2106(5)
C2G C 0.3183(3) 0.4771(4) 0.8745(6)
C3G C 0.3468(3) 0.5355(4) 0.7263(7)
Co1C Co 0.5751(1) -0.2500 -0.3886(1)
loop_
_geom_bond_atom_site_label_1
_geom_bond_atom_site_label_2
_geom_bond_site_symmetry_1
_geom_bond_site_symmetry_2
Co1 O1 1_555 1_555
N1 Co1 1_555 1_555
N2 C1 1_555 1_555
N3 Co1 1_555 1_555
N4 C5 1_555 1_555
N5 Co1 1_555 1_555
N6 C7 1_555 1_555
N7 C8 1_555 1_555
C1 N1 1_555 1_555
C2 N2 1_555 1_555
C3 C2 1_555 1_555
C4 N1 1_555 1_555
C5 N3 1_555 1_555
C6 N3 1_555 1_555
C7 N5 1_555 1_555
C8 N6 1_555 1_555
N1G Co1 1_555 1_555
N3G Co1 1_555 1_555
C6D N4 1_555 1_555
N6G N6 1_555 1_555
C1G C1 1_555 1_555
N4D C6 1_555 1_555
N2G C1G 1_555 1_555
C4G N1G 1_555 1_555
C5D C6D 1_555 1_555
N3D C6D 1_555 1_555
C2G N2G 1_555 1_555
C3G C4G 1_555 1_555
Co1C N3D 1_555 1_555
C3 C4 1_555 1_555
C5 C6 1_555 1_555
C7 N6G 1_555 1_555
C8 N6G 1_555 1_555
N1G C1G 1_555 1_555
N4D C5D 1_555 1_555
C5D N3D 1_555 1_555
C2G C3G 1_555 1_555

#END
