
#######################################################################
#
#                 Cambridge Crystallographic Data Centre
#                                CCDC 
#
#######################################################################
#
# If this CIF has been generated from an entry in the Cambridge 
# Structural Database, then it will include bibliographic, chemical, 
# crystal, experimental, refinement or atomic coordinate data resulting 
# from the CCDC's data processing and validation procedures.
#
#######################################################################

data_QEHTII
_symmetry_cell_setting           orthorhombic
_symmetry_space_group_name_H-M   'P 21 21 21'
_symmetry_Int_Tables_number      19
_space_group_name_Hall           'P 2ac 2ab'
loop_
_symmetry_equiv_pos_site_id
_symmetry_equiv_pos_as_xyz
1 x,y,z
2 1/2-x,-y,1/2+z
3 -x,1/2+y,1/2-z
4 1/2+x,1/2-y,-z
_cell_length_a                   13.4048(4)
_cell_length_b                   14.1978(3)
_cell_length_c                   25.6592(8)
_cell_angle_alpha                90
_cell_angle_beta                 90
_cell_angle_gamma                90
_cell_volume                     4883.42
loop_
_atom_site_label
_atom_site_type_symbol
_atom_site_fract_x
_atom_site_fract_y
_atom_site_fract_z
La1 La 0.74625(11) 0.86490(7) 0.83519(4)
La2 La 1.24336(11) 1.38797(7) 0.83171(4)
O1 O 0.8495(18) 0.9326(18) 0.9090(9)
O2 O 1.1220(16) 1.3365(15) 0.7668(7)
O3 O 0.6293(15) 0.9420(15) 0.9074(7)
O4 O 0.7840(13) 1.0277(13) 0.7200(7)
O5 O 1.1229(14) 1.3089(13) 0.9016(6)
O6 O 1.0654(13) 1.4343(12) 0.8694(6)
O7 O 0.7758(16) 0.7379(14) 0.8967(7)
C1 C 1.047(2) 1.3619(19) 0.8984(10)
O8 O 1.2696(17) 1.5202(14) 0.8947(7)
C2 C 1.058(2) 1.314(2) 0.7302(12)
C3 C 0.958(2) 1.290(2) 0.7518(10)
O9 O 0.5692(15) 0.8117(15) 0.8815(7)
C4 C 0.802(2) 1.056(2) 0.7604(12)
C5 C 0.998(2) 1.117(2) 0.7282(12)
C6 C 0.879(2) 1.307(2) 0.7073(11)
C7 C 0.948(2) 1.180(2) 0.7628(12)
O10 O 0.8010(14) 1.0235(14) 0.8073(8)
C8 C 0.563(2) 0.876(2) 0.9096(11)
O11 O 1.0800(14) 1.3157(14) 0.6859(7)
O12 O 0.5877(12) 0.9298(12) 0.6971(7)
C9 C 0.448(2) 0.9635(19) 0.7508(10)
O13 O 0.6124(13) 0.9238(12) 0.7801(6)
O14 O 0.2948(12) 1.2312(11) 0.7200(6)
C10 C 0.976(2) 1.3511(18) 0.9202(9)
C11 C 1.251(3) 1.575(3) 0.9238(13)
C12 C 0.563(2) 0.9358(19) 0.7409(11)
C13 C 0.384(2) 0.966(2) 0.7007(11)
O15 O 1.3539(13) 1.3284(13) 0.9036(6)
C14 C 0.321(2) 1.0858(19) 0.7615(9)
N1 N 0.756(3) 0.5929(17) 0.9347(9)
C15 C 0.830(2) 1.170(2) 0.7650(11)
N2 N 1.487(2) 1.2476(19) 0.9265(10)
C16 C 0.281(2) 1.0387(19) 0.7133(10)
C17 C 1.546(3) 1.311(3) 0.8961(12)
C18 C 0.885(4) 1.005(3) 0.9343(16)
C19 C 0.495(2) 0.893(2) 0.9396(11)
C20 C 0.309(2) 1.1947(19) 0.7655(11)
C21 C 0.795(2) 1.217(2) 0.8083(10)
C22 C 0.811(2) 1.217(2) 0.7159(11)
C23 C 1.391(2) 1.253(2) 0.9256(11)
C24 C 1.327(2) 1.184(2) 0.9515(10)
O16 O 0.3007(13) 1.2312(12) 0.8042(7)
C25 C 1.282(3) 1.725(3) 0.9735(13)
C26 C 0.824(3) 0.663(3) 0.9178(13)
C27 C 0.471(2) 1.081(2) 0.8255(11)
C28 C 0.441(2) 1.067(2) 0.7665(11)
C29 C 0.504(2) 1.138(2) 0.7470(12)
C30 C 1.009(2) 1.157(2) 0.8166(11)
C31 C 1.061(3) 0.950(3) 0.9068(16)
C32 C 1.546(3) 1.165(2) 0.9474(12)
C33 C 0.825(3) 1.086(3) 0.9593(14)
C34 C 1.034(3) 1.103(3) 0.9538(17)
C35 C 0.404(2) 0.9074(19) 0.7952(9)
C36 C 0.932(3) 0.662(3) 0.9189(12)
N3 N 0.959(3) 1.027(3) 0.9371(13)
C37 C 1.157(3) 1.584(3) 0.9628(14)
C38 C 0.652(3) 0.604(3) 0.9383(13)
N4 N 1.293(3) 1.645(2) 0.9300(12)
C39 C 1.387(3) 1.648(3) 0.8910(13)
C40 C 0.812(3) 0.505(3) 0.9637(14)
La1B La 1.25375(11) 1.36490(7) 0.66481(4)
La1B_2 La 0.25375(11) 1.36490(7) 0.66481(4)
La2B La 0.75664(11) 0.88797(7) 0.66829(4)
La2_2 La 0.24336(11) 1.38797(7) 0.83171(4)
O4B O 1.2160(13) 1.5277(13) 0.7800(7)
O11B O 0.9200(14) 0.8157(14) 0.8141(7)
O12B O 1.4123(12) 1.4298(12) 0.8029(7)
O14B O 0.7052(12) 0.7312(11) 0.7800(6)
O16_2 O 1.3007(13) 1.2312(12) 0.8042(7)
loop_
_geom_bond_atom_site_label_1
_geom_bond_atom_site_label_2
_geom_bond_site_symmetry_1
_geom_bond_site_symmetry_2
La1 O1 1_555 1_555
La2 O2 1_555 1_555
O1 C18 1_555 1_555
O2 C2 1_555 1_555
O3 La1 1_555 1_555
O4 C4 1_555 1_555
O5 La2 1_555 1_555
O6 La2 1_555 1_555
O7 La1 1_555 1_555
C1 O5 1_555 1_555
O8 La2 1_555 1_555
C2 C3 1_555 1_555
C3 C6 1_555 1_555
O9 La1 1_555 1_555
C4 O10 1_555 1_555
C5 C7 1_555 1_555
C6 C22 1_555 1_555
C7 C3 1_555 1_555
O10 La1 1_555 1_555
C8 O3 1_555 1_555
O11 C2 1_555 1_555
O12 C12 1_555 1_555
C9 C12 1_555 1_555
O13 La1 1_555 1_555
O14 C20 1_555 1_555
C10 C1 1_555 1_555
C11 O8 1_555 1_555
C12 O13 1_555 1_555
C13 C9 1_555 1_555
O15 La2 1_555 1_555
C14 C16 1_555 1_555
N1 C26 1_555 1_555
C15 C4 1_555 1_555
N2 C17 1_555 1_555
C16 C13 1_555 1_555
C18 C33 1_555 1_555
C19 C8 1_555 1_555
C20 C14 1_555 1_555
C21 C15 1_555 1_555
C22 C15 1_555 1_555
C23 O15 1_555 1_555
C24 C23 1_555 1_555
O16 C20 1_555 1_555
C25 N4 1_555 1_555
C26 O7 1_555 1_555
C27 C28 1_555 1_555
C28 C9 1_555 1_555
C29 C28 1_555 1_555
C30 C7 1_555 1_555
C31 N3 1_555 1_555
C32 N2 1_555 1_555
C34 N3 1_555 1_555
C35 C9 1_555 1_555
C36 C26 1_555 1_555
N3 C18 1_555 1_555
C37 C11 1_555 1_555
C38 N1 1_555 1_555
N4 C11 1_555 1_555
C39 N4 1_555 1_555
C40 N1 1_555 1_555
La1B O11 1_555 1_555
La1B_2 O14 1_555 1_555
La2B O4 1_555 1_555
La2_2 O16 1_555 1_555
O4B La2 1_555 1_555
O11B La1 1_555 1_555
O12B La2 1_555 1_555
O14B La1 1_555 1_555
O16_2 La2 1_555 1_555
O6 C1 1_555 1_555
O9 C8 1_555 1_555
C7 C15 1_555 1_555
O12 La2B 1_555 1_555
C14 C28 1_555 1_555
N2 C23 1_555 1_555

#END
