
#######################################################################
#
#                 Cambridge Crystallographic Data Centre
#                                CCDC 
#
#######################################################################
#
# If this CIF has been generated from an entry in the Cambridge 
# Structural Database, then it will include bibliographic, chemical, 
# crystal, experimental, refinement or atomic coordinate data resulting 
# from the CCDC's data processing and validation procedures.
#
#######################################################################

data_QEHVIK
_symmetry_cell_setting           triclinic
_symmetry_space_group_name_H-M   'P -1'
_symmetry_Int_Tables_number      2
_space_group_name_Hall           '-P 1'
loop_
_symmetry_equiv_pos_site_id
_symmetry_equiv_pos_as_xyz
1 x,y,z
2 -x,-y,-z
_cell_length_a                   8.5708(4)
_cell_length_b                   9.1083(5)
_cell_length_c                   13.2817(7)
_cell_angle_alpha                88.8720(10)
_cell_angle_beta                 82.3350(10)
_cell_angle_gamma                79.8000(10)
_cell_volume                     1011.33
loop_
_atom_site_label
_atom_site_type_symbol
_atom_site_fract_x
_atom_site_fract_y
_atom_site_fract_z
Cd1 Cd 0.759109(19) 0.268489(17) 0.525525(11)
S1 S 1.05303(7) 0.27724(6) 0.42191(5)
S2 S 0.46582(7) 0.25205(7) 0.62446(5)
N1 N 0.1517(2) 0.6484(2) 0.32405(14)
N2 N 0.2868(3) 0.4251(2) -0.00576(15)
N3 N 0.4064(3) 0.3254(2) -0.06111(15)
N4 N 0.4439(2) 0.3086(2) 0.09996(13)
N5 N 0.6888(3) 0.0493(2) 0.04814(16)
N6 N 0.6669(2) 0.2313(2) 0.36396(13)
N7 N 1.1773(3) -0.0260(2) 0.42944(18)
N8 N 0.3071(2) 0.4853(2) 0.51602(18)
C1 C 0.2509(3) 0.5582(2) 0.25589(17)
H1 H 0.3571 0.5304 0.2665
C2 C -0.0010(3) 0.6873(3) 0.30793(18)
H2 H -0.0707 0.7503 0.3546
C3 C -0.0599(3) 0.6384(3) 0.22561(19)
H3 H -0.1671 0.6672 0.2173
C4 C 0.0428(3) 0.5463(3) 0.15586(18)
H4 H 0.0058 0.5122 0.0995
C5 C 0.2030(3) 0.5043(2) 0.17019(16)
C6 C 0.3106(3) 0.4138(3) 0.09020(17)
C7 C 0.4989(3) 0.2562(3) 0.00255(16)
C8 C 0.6346(3) 0.1356(3) -0.02670(17)
C9 C 0.6967(4) 0.1127(3) -0.12803(19)
H5 H 0.6546 0.1738 -0.1783
C10 C 0.8223(4) -0.0030(4) -0.1521(2)
H6 H 0.8681 -0.0203 -0.2193
C11 C 0.8792(4) -0.0923(4) -0.0765(3)
H7 H 0.9638 -0.1713 -0.0913
C12 C 0.8090(4) -0.0632(3) 0.0218(2)
H8 H 0.8474 -0.1252 0.0728
C13 C 0.5217(3) 0.2767(2) 0.18980(15)
C14 C 0.4590(3) 0.1958(3) 0.26859(16)
H9 H 0.3676 0.1556 0.2644
C15 C 0.5356(3) 0.1760(3) 0.35418(17)
H10 H 0.4936 0.1214 0.4077
C16 C 0.7266(3) 0.3075(3) 0.28510(17)
H11 H 0.8193 0.3451 0.2902
C17 C 0.6581(3) 0.3332(3) 0.19714(17)
H12 H 0.7027 0.3873 0.1442
C18 C 1.1243(3) 0.0989(3) 0.42747(16)
C19 C 0.3725(3) 0.3898(3) 0.56095(18)
Cd1A Cd 0.240891(19) 0.731511(17) 0.474475(11)
Cd1A_2 Cd 1.240891(19) -0.268489(17) 0.474475(11)
N1A N 0.8483(2) 0.3516(2) 0.67595(14)
N7A N 0.8227(3) 0.0260(2) 0.57056(18)
N8A N 0.6929(2) 0.5147(2) 0.48398(18)
loop_
_geom_bond_atom_site_label_1
_geom_bond_atom_site_label_2
_geom_bond_site_symmetry_1
_geom_bond_site_symmetry_2
Cd1 S1 1_555 1_555
S1 C18 1_555 1_555
S2 Cd1 1_555 1_555
N1 C1 1_555 1_555
N2 N3 1_555 1_555
N3 C7 1_555 1_555
N4 C6 1_555 1_555
N5 C8 1_555 1_555
N6 Cd1 1_555 1_555
N7 C18 1_555 1_555
N8 C19 1_555 1_555
C1 H1 1_555 1_555
C2 N1 1_555 1_555
H2 C2 1_555 1_555
C3 C2 1_555 1_555
H3 C3 1_555 1_555
C4 C3 1_555 1_555
H4 C4 1_555 1_555
C5 C1 1_555 1_555
C6 N2 1_555 1_555
C7 N4 1_555 1_555
C8 C7 1_555 1_555
C9 C8 1_555 1_555
H5 C9 1_555 1_555
C10 C9 1_555 1_555
H6 C10 1_555 1_555
C11 C10 1_555 1_555
H7 C11 1_555 1_555
C12 N5 1_555 1_555
H8 C12 1_555 1_555
C13 N4 1_555 1_555
C14 C13 1_555 1_555
H9 C14 1_555 1_555
C15 N6 1_555 1_555
H10 C15 1_555 1_555
C16 N6 1_555 1_555
H11 C16 1_555 1_555
C17 C13 1_555 1_555
H12 C17 1_555 1_555
C19 S2 1_555 1_555
Cd1A N1 1_555 1_555
Cd1A_2 N7 1_555 1_555
N1A Cd1 1_555 1_555
N7A Cd1 1_555 1_555
N8A Cd1 1_555 1_555
N8 Cd1A 1_555 1_555
C4 C5 1_555 1_555
C5 C6 1_555 1_555
C11 C12 1_555 1_555
C14 C15 1_555 1_555
C16 C17 1_555 1_555

#END
