
#######################################################################
#
#                 Cambridge Crystallographic Data Centre
#                                CCDC 
#
#######################################################################
#
# If this CIF has been generated from an entry in the Cambridge 
# Structural Database, then it will include bibliographic, chemical, 
# crystal, experimental, refinement or atomic coordinate data resulting 
# from the CCDC's data processing and validation procedures.
#
#######################################################################

data_QEHVAC
_symmetry_cell_setting           triclinic
_symmetry_space_group_name_H-M   'P -1'
_symmetry_Int_Tables_number      2
_space_group_name_Hall           '-P 1'
loop_
_symmetry_equiv_pos_site_id
_symmetry_equiv_pos_as_xyz
1 x,y,z
2 -x,-y,-z
_cell_length_a                   8.8602(4)
_cell_length_b                   9.9943(5)
_cell_length_c                   12.4881(6)
_cell_angle_alpha                72.4040(10)
_cell_angle_beta                 74.1700(10)
_cell_angle_gamma                78.9840(10)
_cell_volume                     1006.98
loop_
_atom_site_label
_atom_site_type_symbol
_atom_site_fract_x
_atom_site_fract_y
_atom_site_fract_z
Cd1 Cd 0.635417(19) 0.805342(18) 0.686743(14)
S1 S 0.55652(9) 0.71174(7) 0.52397(7)
S2 S 0.76642(10) 1.06653(8) 0.91954(7)
N1 N 0.9066(2) 0.7444(2) 0.58492(18)
N2 N 0.7403(2) 0.5759(2) 0.77685(17)
N3 N 0.6899(2) 0.4943(2) 0.88677(17)
N4 N 0.9452(2) 0.43618(19) 0.82648(16)
N5 N 0.6245(2) 0.2111(2) 1.20708(17)
N6 N 1.2021(3) 0.4519(3) 0.8304(3)
N7 N 0.3968(3) 0.9663(2) 0.4203(2)
N8 N 0.6940(3) 0.8783(3) 0.8230(2)
C1 C 0.9741(3) 0.8184(3) 0.4803(2)
H1 H 0.9228 0.9064 0.4495
C2 C 1.1154(3) 0.7723(3) 0.4150(3)
H2 H 1.1582 0.8276 0.3421
C3 C 1.1913(3) 0.6428(3) 0.4601(2)
H3 H 1.2873 0.6090 0.4183
C4 C 1.1238(3) 0.5632(3) 0.5683(2)
H4 H 1.1734 0.4749 0.6002
C5 C 0.9815(3) 0.6169(2) 0.6284(2)
C6 C 0.8924(3) 0.5424(2) 0.74182(19)
C7 C 0.8142(3) 0.4108(2) 0.9162(2)
C8 C 0.8046(3) 0.3141(2) 1.03206(19)
C9 C 0.9308(3) 0.2571(3) 1.0844(2)
H5 H 1.0336 0.2727 1.0439
C10 C 0.9005(3) 0.1770(3) 1.1975(2)
H6 H 0.9833 0.1363 1.2338
C11 C 0.7485(3) 0.1578(3) 1.2559(2)
H7 H 0.7299 0.1055 1.3328
C12 C 0.6538(3) 0.2857(2) 1.0972(2)
H8 H 0.5691 0.3207 1.0619
C13 C 1.1074(2) 0.3705(2) 0.82295(19)
C14 C 1.3513(3) 0.3943(4) 0.8274(4)
H9 H 1.4220 0.4483 0.8330
C15 C 1.4063(3) 0.2611(3) 0.8167(3)
H10 H 1.5121 0.2265 0.8136
C16 C 1.3050(3) 0.1796(3) 0.8106(2)
H11 H 1.3395 0.0876 0.8050
C17 C 1.1483(3) 0.2358(3) 0.8129(2)
H12 H 1.0751 0.1838 0.8078
C18 C 0.4645(3) 0.8620(3) 0.4618(2)
C19 C 0.7216(3) 0.9573(3) 0.8637(2)
Cd1A Cd 0.364583(19) 0.194658(18) 1.313257(14)
Cd1A_2 Cd 0.364583(19) 1.194658(18) 0.313257(14)
N5A N 0.3755(2) 0.7889(2) 0.79292(17)
N7A N 0.6032(3) 1.0337(2) 0.5797(2)
loop_
_geom_bond_atom_site_label_1
_geom_bond_atom_site_label_2
_geom_bond_site_symmetry_1
_geom_bond_site_symmetry_2
Cd1 S1 1_555 1_555
S1 C18 1_555 1_555
S2 C19 1_555 1_555
N1 Cd1 1_555 1_555
N2 Cd1 1_555 1_555
N3 N2 1_555 1_555
N4 C6 1_555 1_555
N5 C11 1_555 1_555
N6 C13 1_555 1_555
N7 C18 1_555 1_555
N8 Cd1 1_555 1_555
C1 N1 1_555 1_555
H1 C1 1_555 1_555
C2 C1 1_555 1_555
H2 C2 1_555 1_555
C3 C2 1_555 1_555
H3 C3 1_555 1_555
C4 C3 1_555 1_555
H4 C4 1_555 1_555
C5 N1 1_555 1_555
C6 N2 1_555 1_555
C7 N3 1_555 1_555
C8 C7 1_555 1_555
C9 C8 1_555 1_555
H5 C9 1_555 1_555
C10 C9 1_555 1_555
H6 C10 1_555 1_555
C11 C10 1_555 1_555
H7 C11 1_555 1_555
C12 N5 1_555 1_555
H8 C12 1_555 1_555
C13 N4 1_555 1_555
C14 N6 1_555 1_555
H9 C14 1_555 1_555
C15 C14 1_555 1_555
H10 C15 1_555 1_555
C16 C15 1_555 1_555
H11 C16 1_555 1_555
C17 C13 1_555 1_555
H12 C17 1_555 1_555
C19 N8 1_555 1_555
Cd1A N5 1_555 1_555
Cd1A_2 N7 1_555 1_555
N5A Cd1 1_555 1_555
N7A Cd1 1_555 1_555
N4 C7 1_555 1_555
C4 C5 1_555 1_555
C5 C6 1_555 1_555
C8 C12 1_555 1_555
C16 C17 1_555 1_555

#END
