
#######################################################################
#
#                 Cambridge Crystallographic Data Centre
#                                CCDC 
#
#######################################################################
#
# If this CIF has been generated from an entry in the Cambridge 
# Structural Database, then it will include bibliographic, chemical, 
# crystal, experimental, refinement or atomic coordinate data resulting 
# from the CCDC's data processing and validation procedures.
#
#######################################################################

data_QEJCOX
_symmetry_cell_setting           orthorhombic
_symmetry_space_group_name_H-M   'C m m m'
_symmetry_Int_Tables_number      65
_space_group_name_Hall           '-C 2 2'
loop_
_symmetry_equiv_pos_site_id
_symmetry_equiv_pos_as_xyz
1 x,y,z
2 -x,-y,z
3 x,-y,-z
4 -x,y,-z
5 1/2+x,1/2+y,z
6 1/2-x,1/2-y,z
7 1/2+x,1/2-y,-z
8 1/2-x,1/2+y,-z
9 -x,-y,-z
10 x,y,-z
11 -x,y,z
12 x,-y,z
13 1/2-x,1/2-y,-z
14 1/2+x,1/2+y,-z
15 1/2-x,1/2+y,z
16 1/2+x,1/2-y,z
_cell_length_a                   11.993(2)
_cell_length_b                   11.374(2)
_cell_length_c                   3.611(1)
_cell_angle_alpha                90
_cell_angle_beta                 90
_cell_angle_gamma                90
_cell_volume                     492.571
loop_
_atom_site_label
_atom_site_type_symbol
_atom_site_fract_x
_atom_site_fract_y
_atom_site_fract_z
Co1 Co 0.0000 0.0000 0.0000
Cl1 Cl 0.1426(2) 0.0000 -0.5000
N1 N 0.0000 0.1892(8) 0.0000
C1 C 0.0921(7) 0.2517(8) 0.0000
C2 C 0.0967(9) 0.3699(7) 0.0000
C3 C 0.0000 0.4354(10) 0.0000
H1 H 0.1581 0.2144 0.0000
H2 H 0.1679 0.4092 0.0000
C2C C -0.0967(9) 0.3699(7) 0.0000
C1C C -0.0921(7) 0.2517(8) 0.0000
H1C H -0.1581 0.2144 0.0000
H2C H -0.1679 0.4092 0.0000
C3A C 0.0000 0.5646(10) 0.0000
C2A C -0.0967(9) 0.6301(7) 0.0000
C1A C -0.0921(7) 0.7483(8) 0.0000
N1A N 0.0000 0.8108(8) 0.0000
C1B C 0.0921(7) 0.7483(8) 0.0000
C2B C 0.0967(9) 0.6301(7) 0.0000
H2B H 0.1679 0.5908 0.0000
H1B H 0.1581 0.7856 0.0000
H1A H -0.1581 0.7856 0.0000
H2A H -0.1679 0.5908 0.0000
Cl1_2 Cl 0.1426(2) 0.0000 0.5000
Cl1A Cl -0.1426(2) 0.0000 -0.5000
Cl1A_2 Cl -0.1426(2) 0.0000 0.5000
N1A_2 N 0.0000 -0.1892(8) 0.0000
Co1_2 Co 0.0000 0.0000 -1.0000
Co1A Co 0.0000 1.0000 0.0000
loop_
_geom_bond_atom_site_label_1
_geom_bond_atom_site_label_2
_geom_bond_site_symmetry_1
_geom_bond_site_symmetry_2
Co1 Cl1 1_555 1_555
Cl1 Co1_2 1_555 1_555
N1 Co1 1_555 1_555
C1 N1 1_555 1_555
C2 C1 1_555 1_555
C3 C2 1_555 1_555
H1 C1 1_555 1_555
H2 C2 1_555 1_555
C2C C3 1_555 1_555
C1C N1 1_555 1_555
H1C C1C 1_555 1_555
H2C C2C 1_555 1_555
C3A C3 1_555 1_555
C2A C3A 1_555 1_555
C1A C2A 1_555 1_555
N1A C1A 1_555 1_555
C1B N1A 1_555 1_555
C2B C3A 1_555 1_555
H2B C2B 1_555 1_555
H1B C1B 1_555 1_555
H1A C1A 1_555 1_555
H2A C2A 1_555 1_555
Cl1_2 Co1 1_555 1_555
Cl1A Co1 1_555 1_555
Cl1A_2 Co1 1_555 1_555
N1A_2 Co1 1_555 1_555
Co1_2 Cl1A 1_555 1_555
Co1A N1A 1_555 1_555
C2C C1C 1_555 1_555
C1B C2B 1_555 1_555

#END
