
#######################################################################
#
#                 Cambridge Crystallographic Data Centre
#                                CCDC 
#
#######################################################################
#
# If this CIF has been generated from an entry in the Cambridge 
# Structural Database, then it will include bibliographic, chemical, 
# crystal, experimental, refinement or atomic coordinate data resulting 
# from the CCDC's data processing and validation procedures.
#
#######################################################################

data_QEJCAK
_symmetry_cell_setting           monoclinic
_symmetry_space_group_name_H-M   'C 2/m'
_symmetry_Int_Tables_number      12
_space_group_name_Hall           '-C 2y'
loop_
_symmetry_equiv_pos_site_id
_symmetry_equiv_pos_as_xyz
1 x,y,z
2 1/2+x,1/2+y,z
3 -x,y,-z
4 1/2-x,1/2+y,-z
5 -x,-y,-z
6 1/2-x,1/2-y,-z
7 x,-y,z
8 1/2+x,1/2-y,z
_cell_length_a                   9.428(4)
_cell_length_b                   22.396(9)
_cell_length_c                   7.908(3)
_cell_angle_alpha                90.00
_cell_angle_beta                 105.951(7)
_cell_angle_gamma                90.00
_cell_volume                     1605.48
loop_
_atom_site_label
_atom_site_type_symbol
_atom_site_fract_x
_atom_site_fract_y
_atom_site_fract_z
Cd1 Cd 1.0000 1.0000 0.5000
Cl1 Cl 0.84181(11) 1.0000 0.17362(12)
N1 N 0.8551(2) 0.92098(10) 0.5721(3)
N2 N 0.6146(3) 0.87893(12) 0.9822(4)
S1 S 0.5000 0.77157(5) 1.0000
C1 C 0.7899(4) 0.88205(14) 0.4469(4)
H1 H 0.7974 0.8882 0.3334
C2 C 0.7126(4) 0.83362(15) 0.4776(4)
H2 H 0.6690 0.8075 0.3868
C3 C 0.7002(4) 0.82393(14) 0.6456(4)
H3 H 0.6482 0.7911 0.6690
C4 C 0.7654(3) 0.86323(12) 0.7778(3)
C5 C 0.8418(3) 0.91080(12) 0.7346(3)
H4 H 0.8868 0.9374 0.8233
C6 C 0.7529(3) 0.85593(14) 0.9621(4)
H5 H 0.7609 0.8139 0.9930
H6 H 0.8340 0.8767 1.0428
C7 C 0.5000 0.84650(16) 1.0000
H11 H 0.605(4) 0.9137(16) 0.972(4)
Cd1_2 Cd 0.0000 1.0000 1.5000
Cl1D Cl 1.15819(11) 1.0000 0.82638(12)
N1B N 0.1449(2) 0.92098(10) 1.4279(3)
N1F N 0.8551(2) 1.07902(10) 0.5721(3)
N1D N 0.1449(2) 1.07902(10) 1.4279(3)
N1D_2 N 1.1449(2) 1.07902(10) 0.4279(3)
N1B_2 N 1.1449(2) 0.92098(10) 0.4279(3)
N2B N 0.3854(3) 0.87893(12) 1.0178(4)
N2F N 0.6146(3) 1.12107(12) 0.9822(4)
N2D N 0.3854(3) 1.12107(12) 1.0178(4)
S1F S 0.5000 1.22843(5) 1.0000
C1B C 0.2101(4) 0.88205(14) 1.5531(4)
C1F C 0.7899(4) 1.11795(14) 0.4469(4)
C1D C 0.2101(4) 1.11795(14) 1.5531(4)
H1B H 0.2026 0.8882 1.6666
H1F H 0.7974 1.1118 0.3334
H1D H 0.2026 1.1118 1.6666
C2B C 0.2874(4) 0.83362(15) 1.5224(4)
C2F C 0.7126(4) 1.16638(15) 0.4776(4)
C2D C 0.2874(4) 1.16638(15) 1.5224(4)
H2B H 0.3310 0.8075 1.6132
H2F H 0.6690 1.1925 0.3868
H2D H 0.3310 1.1925 1.6132
C3B C 0.2998(4) 0.82393(14) 1.3544(4)
C3F C 0.7002(4) 1.17607(14) 0.6456(4)
C3D C 0.2998(4) 1.17607(14) 1.3544(4)
H3B H 0.3518 0.7911 1.3310
H3F H 0.6482 1.2089 0.6690
H3D H 0.3518 1.2089 1.3310
C4B C 0.2346(3) 0.86323(12) 1.2222(3)
C4F C 0.7654(3) 1.13677(12) 0.7778(3)
C4D C 0.2346(3) 1.13677(12) 1.2222(3)
C5B C 0.1582(3) 0.91080(12) 1.2654(3)
C5F C 0.8418(3) 1.08920(12) 0.7346(3)
C5D C 0.1582(3) 1.08920(12) 1.2654(3)
H4B H 0.1132 0.9374 1.1767
H4F H 0.8868 1.0626 0.8233
H4D H 0.1132 1.0626 1.1767
C6B C 0.2471(3) 0.85593(14) 1.0379(4)
C6F C 0.7529(3) 1.14407(14) 0.9621(4)
C6D C 0.2471(3) 1.14407(14) 1.0379(4)
H5B H 0.2391 0.8139 1.0070
H5F H 0.7609 1.1861 0.9930
H5D H 0.2391 1.1861 1.0070
H6B H 0.1660 0.8767 0.9572
H6F H 0.8340 1.1233 1.0428
H6D H 0.1660 1.1233 0.9572
C7F C 0.5000 1.15350(16) 1.0000
H11B H 0.395(4) 0.9137(16) 1.028(4)
H11F H 0.605(4) 1.0863(16) 0.972(4)
H11D H 0.395(4) 1.0863(16) 1.028(4)
O1 O 0.4910(6) 0.0000 0.8153(9)
C8 C 0.5017(17) 0.0000 0.640(2)
H7? H 0.4091 0.0119 0.8167
H8? H 0.5753 -0.0283 0.6296
H9? H 0.5290 0.0391 0.6108
H10? H 0.4082 -0.0109 0.5617
loop_
_geom_bond_atom_site_label_1
_geom_bond_atom_site_label_2
_geom_bond_site_symmetry_1
_geom_bond_site_symmetry_2
Cd1 Cl1 1_555 1_555
N1 Cd1 1_555 1_555
N2 C6 1_555 1_555
S1 C7 1_555 1_555
C1 N1 1_555 1_555
H1 C1 1_555 1_555
C2 C1 1_555 1_555
H2 C2 1_555 1_555
C3 C2 1_555 1_555
H3 C3 1_555 1_555
C4 C3 1_555 1_555
C5 N1 1_555 1_555
H4 C5 1_555 1_555
C6 C4 1_555 1_555
H5 C6 1_555 1_555
H6 C6 1_555 1_555
C7 N2 1_555 1_555
O1 C8 1_555 1_555
H11 N2 1_555 1_555
Cd1_2 N1B 1_555 1_555
Cl1D Cd1 1_555 1_555
N1B C1B 1_555 1_555
N1F Cd1 1_555 1_555
N1D Cd1_2 1_555 1_555
N1D_2 Cd1 1_555 1_555
N1B_2 Cd1 1_555 1_555
N2B C7 1_555 1_555
N2F C6F 1_555 1_555
N2D C6D 1_555 1_555
S1F C7F 1_555 1_555
C1B H1B 1_555 1_555
C1F N1F 1_555 1_555
C1D N1D 1_555 1_555
H1F C1F 1_555 1_555
H1D C1D 1_555 1_555
C2B C1B 1_555 1_555
C2F C1F 1_555 1_555
C2D C1D 1_555 1_555
H2B C2B 1_555 1_555
H2F C2F 1_555 1_555
H2D C2D 1_555 1_555
C3B C2B 1_555 1_555
C3F C2F 1_555 1_555
C3D C2D 1_555 1_555
H3B C3B 1_555 1_555
H3F C3F 1_555 1_555
H3D C3D 1_555 1_555
C4B C3B 1_555 1_555
C4F C3F 1_555 1_555
C4D C3D 1_555 1_555
C5B N1B 1_555 1_555
C5F N1F 1_555 1_555
C5D N1D 1_555 1_555
H4B C5B 1_555 1_555
H4F C5F 1_555 1_555
H4D C5D 1_555 1_555
C6B N2B 1_555 1_555
C6F C4F 1_555 1_555
C6D C4D 1_555 1_555
H5B C6B 1_555 1_555
H5F C6F 1_555 1_555
H5D C6D 1_555 1_555
H6B C6B 1_555 1_555
H6F C6F 1_555 1_555
H6D C6D 1_555 1_555
C7F N2F 1_555 1_555
H11B N2B 1_555 1_555
H11F N2F 1_555 1_555
H11D N2D 1_555 1_555
C4 C5 1_555 1_555
N2D C7F 1_555 1_555
C4B C5B 1_555 1_555
C4B C6B 1_555 1_555
C4F C5F 1_555 1_555
C4D C5D 1_555 1_555

#END
