
#######################################################################
#
#                 Cambridge Crystallographic Data Centre
#                                CCDC 
#
#######################################################################
#
# If this CIF has been generated from an entry in the Cambridge 
# Structural Database, then it will include bibliographic, chemical, 
# crystal, experimental, refinement or atomic coordinate data resulting 
# from the CCDC's data processing and validation procedures.
#
#######################################################################

data_QEJLIB
_symmetry_cell_setting           orthorhombic
_symmetry_space_group_name_H-M   'P b c a'
_symmetry_Int_Tables_number      61
_space_group_name_Hall           '-P 2ac 2ab'
loop_
_symmetry_equiv_pos_site_id
_symmetry_equiv_pos_as_xyz
1 x,y,z
2 1/2+x,1/2-y,-z
3 -x,1/2+y,1/2-z
4 1/2-x,-y,1/2+z
5 -x,-y,-z
6 1/2-x,1/2+y,z
7 x,1/2-y,1/2+z
8 1/2+x,y,1/2-z
_cell_length_a                   13.63122(39)
_cell_length_b                   15.23971(48)
_cell_length_c                   6.47958(19)
_cell_angle_alpha                90
_cell_angle_beta                 90
_cell_angle_gamma                90
_cell_volume                     1346.04
loop_
_atom_site_label
_atom_site_type_symbol
_atom_site_fract_x
_atom_site_fract_y
_atom_site_fract_z
Zn1 Zn -0.12469(19) 0.53032(18) 0.05840(38)
C1 C -0.00044 0.34783 0.44385
C2 C -0.06887 0.40656 0.39684
N1 N -0.04249 0.44588 0.22255
N2 N 0.04224 0.41146 0.16184
C3 C 0.06822 0.35086 0.29862
H1 H -0.00059 0.31021 0.56096
H2 H -0.12662 0.41838 0.47437
H3 H 0.12588 0.31579 0.29347
C4 C -0.23939 0.39055 -0.16786
C5 C -0.18713 0.31991 -0.06594
O1 O -0.22446 0.46647 -0.11736
O2 O -0.29829 0.37406 -0.30411
Zn1D Zn 0.12469(19) 0.46968(18) -0.05840(38)
Zn1C Zn -0.37531(19) 0.46968(18) -0.44160(38)
N2D N -0.04224 0.58854 -0.16184
O2C O -0.20171 0.62594 0.19589
loop_
_geom_bond_atom_site_label_1
_geom_bond_atom_site_label_2
_geom_bond_site_symmetry_1
_geom_bond_site_symmetry_2
Zn1 N1 1_555 1_555
C1 C2 1_555 1_555
C2 N1 1_555 1_555
N1 N2 1_555 1_555
N2 C3 1_555 1_555
C3 C1 1_555 1_555
H1 C1 1_555 1_555
H2 C2 1_555 1_555
H3 C3 1_555 1_555
C4 C5 1_555 1_555
O1 Zn1 1_555 1_555
O2 C4 1_555 1_555
Zn1D N2 1_555 1_555
Zn1C O2 1_555 1_555
N2D Zn1 1_555 1_555
O2C Zn1 1_555 1_555
C4 O1 1_555 1_555

#END
