
#######################################################################
#
#                 Cambridge Crystallographic Data Centre
#                                CCDC 
#
#######################################################################
#
# If this CIF has been generated from an entry in the Cambridge 
# Structural Database, then it will include bibliographic, chemical, 
# crystal, experimental, refinement or atomic coordinate data resulting 
# from the CCDC's data processing and validation procedures.
#
#######################################################################

data_QEJLOH
_symmetry_cell_setting           triclinic
_symmetry_space_group_name_H-M   'P 1'
_symmetry_Int_Tables_number      1
_space_group_name_Hall           'P 1'
loop_
_symmetry_equiv_pos_site_id
_symmetry_equiv_pos_as_xyz
1 x,y,z
_cell_length_a                   7.5269(1)
_cell_length_b                   10.4241(1)
_cell_length_c                   11.0236(1)
_cell_angle_alpha                68.994(1)
_cell_angle_beta                 71.029(1)
_cell_angle_gamma                89.920(1)
_cell_volume                     757.065
loop_
_atom_site_label
_atom_site_type_symbol
_atom_site_fract_x
_atom_site_fract_y
_atom_site_fract_z
Ag1 Ag 0.63255(3) 0.528113(19) 0.007882(19)
Ag2 Ag 0.43993(3) 0.56986(2) 0.55817(2)
Ag3 Ag 0.06238(3) 1.05356(2) 0.08871(2)
Ag4 Ag 0.15574(3) 0.534260(18) 0.033630(18)
N1 N 0.5304(3) 0.7252(2) -0.0891(2)
C1 C 0.4757(4) 0.8047(3) -0.0130(3)
H1 H 0.4614 0.7660 0.0824
C2 C 0.4392(3) 0.9408(3) -0.0681(3)
N2 N 0.3857(3) 1.0205(3) 0.0161(3)
C3 C 0.4536(4) 0.9954(3) -0.2081(3)
H2 H 0.4272 1.0870 -0.2490
C4 C 0.5073(4) 0.9124(3) -0.2857(3)
H3 H 0.5166 0.9466 -0.3801
C5 C 0.5471(4) 0.7787(3) -0.2236(3)
H4 H 0.5873 0.7239 -0.2778
N3 N 0.7237(4) 0.3486(3) -0.1586(2)
O1 O 0.8049(4) 0.4691(3) -0.2038(3)
O2 O 0.5982(3) 0.3009(2) -0.0413(2)
O3 O 0.7685(4) 0.2753(3) -0.2309(3)
N4 N 0.7057(3) 0.4152(2) 0.1956(2)
C6 C 0.7077(4) 0.4809(3) 0.2811(3)
H5 H 0.6922 0.5764 0.2532
N5 N 0.7286(3) 0.4928(3) 0.4930(3)
C7 C 0.7316(3) 0.4147(3) 0.4087(3)
C8 C 0.7509(4) 0.2736(3) 0.4504(3)
H6 H 0.7659 0.2249 0.5369
C9 C 0.7478(4) 0.2059(3) 0.3625(3)
H7 H 0.7611 0.1101 0.3883
C10 C 0.7250(4) 0.2798(3) 0.2365(3)
H8 H 0.7230 0.2326 0.1774
O4 O 0.4740(5) 0.8231(3) 0.4676(2)
N6 N 0.4983(4) 0.8594(3) 0.3419(3)
O5 O 0.5257(5) 0.9846(3) 0.2636(3)
O6 O 0.4966(6) 0.7690(3) 0.2925(3)
N7 N 0.2314(4) 0.3566(2) 0.8665(2)
O7 O 0.3062(4) 0.4816(2) 0.8129(2)
O8 O 0.1282(3) 0.3083(2) 0.9932(2)
O9 O 0.2580(5) 0.2831(3) 0.7966(3)
N8 N 0.0400(3) 0.7140(2) -0.0825(2)
C11 C -0.0312(4) 0.7996(3) -0.0169(3)
H9 H -0.0467 0.7718 0.0783
C12 C -0.0828(3) 0.9273(3) -0.0832(3)
N9 N -0.1551(3) 1.0120(3) -0.0054(3)
C13 C -0.0562(4) 0.9688(3) -0.2234(3)
H10 H -0.0873 1.0562 -0.2719
C14 C 0.0163(4) 0.8808(3) -0.2916(3)
H11 H 0.0341 0.9067 -0.3871
C15 C 0.0624(4) 0.7542(3) -0.2178(3)
H12 H 0.1115 0.6939 -0.2645
N10 N -0.0189(4) 0.8284(3) 0.3730(3)
O10 O 0.0154(4) 0.9561(2) 0.3371(3)
O11 O -0.0348(5) 0.7798(3) 0.2874(3)
O12 O -0.0403(4) 0.7474(3) 0.4935(3)
N11 N 0.2178(3) 0.4242(2) 0.2246(2)
C16 C 0.1923(3) 0.4885(3) 0.3149(3)
H13 H 0.1746 0.5836 0.2854
C17 C 0.1910(3) 0.4203(3) 0.4505(3)
N12 N 0.1601(3) 0.4934(3) 0.5412(2)
C18 C 0.2251(4) 0.2815(3) 0.4914(3)
H14 H 0.2289 0.2329 0.5816
C19 C 0.2532(4) 0.2167(3) 0.3977(3)
H15 H 0.2765 0.1228 0.4233
C20 C 0.2471(4) 0.2906(3) 0.2652(3)
H16 H 0.2642 0.2448 0.2024
H17 H 0.391(7) 0.981(5) 0.097(3)
H18 H 0.435(7) 1.105(3) -0.029(5)
H19 H 0.801(6) 0.568(3) 0.443(5)
H20 H 0.756(7) 0.441(4) 0.561(4)
H21 H -0.244(5) 0.978(5) 0.070(3)
H22 H -0.168(7) 1.089(3) -0.059(4)
H23 H 0.126(7) 0.570(3) 0.511(5)
H24 H 0.104(6) 0.445(5) 0.621(3)
Ag3_2 Ag 0.06238(3) 0.05356(2) 1.08871(2)
Ag4_2 Ag 0.15574(3) 0.534260(18) 1.033630(18)
O7_2 O 0.3062(4) 0.4816(2) -0.1871(2)
O8_2 O 0.1282(3) 1.3083(2) -0.0068(2)
O8_3 O 0.1282(3) 0.3083(2) -0.0068(2)
loop_
_geom_bond_atom_site_label_1
_geom_bond_atom_site_label_2
_geom_bond_site_symmetry_1
_geom_bond_site_symmetry_2
Ag1 N1 1_555 1_555
Ag2 N5 1_555 1_555
Ag3 N2 1_555 1_555
Ag4 N8 1_555 1_555
N1 C1 1_555 1_555
C1 H1 1_555 1_555
C2 C1 1_555 1_555
N2 C2 1_555 1_555
C3 C2 1_555 1_555
H2 C3 1_555 1_555
C4 C3 1_555 1_555
H3 C4 1_555 1_555
C5 N1 1_555 1_555
H4 C5 1_555 1_555
N3 O1 1_555 1_555
O1 Ag1 1_555 1_555
O2 Ag1 1_555 1_555
O3 N3 1_555 1_555
N4 Ag1 1_555 1_555
C6 N4 1_555 1_555
H5 C6 1_555 1_555
N5 C7 1_555 1_555
C7 C6 1_555 1_555
C8 C7 1_555 1_555
H6 C8 1_555 1_555
C9 C8 1_555 1_555
H7 C9 1_555 1_555
C10 N4 1_555 1_555
H8 C10 1_555 1_555
O4 Ag2 1_555 1_555
N6 O4 1_555 1_555
O5 N6 1_555 1_555
O6 Ag2 1_555 1_555
N7 O7 1_555 1_555
O7 Ag2 1_555 1_555
O8 N7 1_555 1_555
O9 N7 1_555 1_555
N8 C11 1_555 1_555
C11 H9 1_555 1_555
C12 C11 1_555 1_555
N9 Ag3 1_555 1_555
C13 C12 1_555 1_555
H10 C13 1_555 1_555
C14 C13 1_555 1_555
H11 C14 1_555 1_555
C15 N8 1_555 1_555
H12 C15 1_555 1_555
N10 O10 1_555 1_555
O10 Ag3 1_555 1_555
O11 Ag3 1_555 1_555
O12 N10 1_555 1_555
N11 Ag4 1_555 1_555
C16 N11 1_555 1_555
H13 C16 1_555 1_555
C17 C16 1_555 1_555
N12 Ag2 1_555 1_555
C18 C17 1_555 1_555
H14 C18 1_555 1_555
C19 C18 1_555 1_555
H15 C19 1_555 1_555
C20 N11 1_555 1_555
H16 C20 1_555 1_555
H17 N2 1_555 1_555
H18 N2 1_555 1_555
H19 N5 1_555 1_555
H20 N5 1_555 1_555
H21 N9 1_555 1_555
H22 N9 1_555 1_555
H23 N12 1_555 1_555
H24 N12 1_555 1_555
Ag3_2 O8 1_555 1_555
Ag4_2 O7 1_555 1_555
O7_2 Ag4 1_555 1_555
O8_2 Ag3 1_555 1_555
O8_3 Ag4 1_555 1_555
C4 C5 1_555 1_555
N3 O2 1_555 1_555
C9 C10 1_555 1_555
N6 O6 1_555 1_555
O8 Ag4_2 1_555 1_555
C12 N9 1_555 1_555
C14 C15 1_555 1_555
N10 O11 1_555 1_555
C17 N12 1_555 1_555
C19 C20 1_555 1_555

#END
