
#######################################################################
#
#                 Cambridge Crystallographic Data Centre
#                                CCDC 
#
#######################################################################
#
# If this CIF has been generated from an entry in the Cambridge 
# Structural Database, then it will include bibliographic, chemical, 
# crystal, experimental, refinement or atomic coordinate data resulting 
# from the CCDC's data processing and validation procedures.
#
#######################################################################

data_QEJQON
_symmetry_cell_setting           monoclinic
_symmetry_space_group_name_H-M   'C 2/c'
_symmetry_Int_Tables_number      15
_space_group_name_Hall           '-C 2yn'
loop_
_symmetry_equiv_pos_site_id
_symmetry_equiv_pos_as_xyz
1 x,y,z
2 -x,y,1/2-z
3 1/2+x,1/2+y,z
4 1/2-x,1/2+y,1/2-z
5 -x,-y,-z
6 x,-y,1/2+z
7 1/2-x,1/2-y,-z
8 1/2+x,1/2-y,1/2+z
_cell_length_a                   23.038(1)
_cell_length_b                   13.1094(7)
_cell_length_c                   7.6853(4)
_cell_angle_alpha                90
_cell_angle_beta                 98.349(3)
_cell_angle_gamma                90
_cell_volume                     2296.47
loop_
_atom_site_label
_atom_site_type_symbol
_atom_site_fract_x
_atom_site_fract_y
_atom_site_fract_z
O7 O 0.0794(14) 0.4009(25) 0.023(4)
O8 O 0.2343(16) 0.5330(24) -0.078(4)
O9 O 0.2016(15) 0.8609(29) 0.871(4)
O1 O 0.0557(5) 0.7574(8) -0.1253(19)
O2 O 0.0619(4) 1.0211(9) 0.3404(25)
O3 O 0.0976(10) 0.5853(14) -0.1672(23)
C1 C 0.1089(9) 0.8310(14) 0.2739(23)
P1 P 0.0849(5) 0.6607(7) -0.0276(13)
O4 O 0.0430(8) 0.6195(17) 0.0907(24)
O5 O 0.1458(6) 0.9505(15) 0.5642(24)
P2 P 0.0914(5) 0.9229(10) 0.4424(16)
N1 N 0.1431(6) 0.7327(15) 0.2840(21)
C2 C 0.2372(9) 0.8208(16) 0.3522(27)
C3 C 0.1533(6) 0.6996(17) 0.1111(22)
C4 C 0.1924(6) 0.7488(11) 0.4185(16)
C5 C 0.2226(9) 0.6485(11) 0.4706(32)
O6 O 0.0444(7) 0.8771(14) 0.5412(18)
Zr1 Zr 0.0000 0.8716(5) -0.2500
O1F O 0.4443(5) 0.7426(8) 1.1253(19)
O1A O -0.0557(5) 0.7574(8) -0.3747(19)
O2F O 0.4381(4) 0.4789(9) 0.6596(25)
O2D O -0.0619(4) 0.9789(9) -0.3404(25)
O2E O 0.0619(4) 0.9789(9) -0.1596(25)
O3F O 0.4024(10) 0.9147(14) 1.1672(23)
C1F C 0.3911(9) 0.6690(14) 0.7261(23)
P1F P 0.4151(5) 0.8393(7) 1.0276(13)
O4F O 0.4570(8) 0.8805(17) 0.9093(24)
O5F O 0.3542(6) 0.5495(15) 0.4358(24)
P2F P 0.4086(5) 0.5771(10) 0.5576(16)
N1F N 0.3569(6) 0.7673(15) 0.7160(21)
C2F C 0.2628(9) 0.6792(16) 0.6478(27)
C3F C 0.3467(6) 0.8004(17) 0.8889(22)
C4F C 0.3076(6) 0.7512(11) 0.5815(16)
C5F C 0.2774(9) 0.8515(11) 0.5294(32)
O6F O 0.4556(7) 0.6229(14) 0.4588(18)
O6_2 O 0.0444(7) 0.8771(14) -0.4588(18)
O6A O -0.0444(7) 0.8771(14) -0.0412(18)
Zr1D Zr 0.0000 1.1284(5) 0.2500
Zr1_2 Zr 0.0000 0.8716(5) 0.7500
Zr1B Zr 0.5000 0.3716(5) 0.7500
Zr1F Zr 0.5000 0.6284(5) 0.2500
Zr1F_2 Zr 0.5000 0.6284(5) 1.2500
loop_
_geom_bond_atom_site_label_1
_geom_bond_atom_site_label_2
_geom_bond_site_symmetry_1
_geom_bond_site_symmetry_2
O1 P1 1_555 1_555
O2 P2 1_555 1_555
O3 P1 1_555 1_555
C1 P2 1_555 1_555
P1 O4 1_555 1_555
O5 P2 1_555 1_555
P2 O6 1_555 1_555
N1 C1 1_555 1_555
C2 C4 1_555 1_555
C3 P1 1_555 1_555
C4 N1 1_555 1_555
C5 C4 1_555 1_555
O6 Zr1_2 1_555 1_555
Zr1 O1 1_555 1_555
O1F P1F 1_555 1_555
O1A Zr1 1_555 1_555
O2F P2F 1_555 1_555
O2D Zr1 1_555 1_555
O2E Zr1 1_555 1_555
O3F P1F 1_555 1_555
C1F P2F 1_555 1_555
P1F O4F 1_555 1_555
O5F P2F 1_555 1_555
P2F O6F 1_555 1_555
N1F C1F 1_555 1_555
C2F C5 1_555 1_555
C3F P1F 1_555 1_555
C4F N1F 1_555 1_555
C5F C2 1_555 1_555
O6F Zr1F 1_555 1_555
O6_2 Zr1 1_555 1_555
O6A Zr1 1_555 1_555
Zr1D O2 1_555 1_555
Zr1B O2F 1_555 1_555
Zr1F_2 O1F 1_555 1_555
N1 C3 1_555 1_555
N1F C3F 1_555 1_555
C2F C4F 1_555 1_555
C4F C5F 1_555 1_555

#END
