
#######################################################################
#
#                 Cambridge Crystallographic Data Centre
#                                CCDC 
#
#######################################################################
#
# If this CIF has been generated from an entry in the Cambridge 
# Structural Database, then it will include bibliographic, chemical, 
# crystal, experimental, refinement or atomic coordinate data resulting 
# from the CCDC's data processing and validation procedures.
#
#######################################################################

data_QEJVIK
_symmetry_cell_setting           monoclinic
_symmetry_space_group_name_H-M   'P 21/n'
_symmetry_Int_Tables_number      14
_space_group_name_Hall           '-P 2yn'
loop_
_symmetry_equiv_pos_site_id
_symmetry_equiv_pos_as_xyz
1 x,y,z
2 1/2-x,1/2+y,1/2-z
3 -x,-y,-z
4 1/2+x,1/2-y,1/2+z
_cell_length_a                   12.694(3)
_cell_length_b                   12.895(1)
_cell_length_c                   22.895(3)
_cell_angle_alpha                90
_cell_angle_beta                 94.250(10)
_cell_angle_gamma                90
_cell_volume                     3737.36
loop_
_atom_site_label
_atom_site_type_symbol
_atom_site_fract_x
_atom_site_fract_y
_atom_site_fract_z
Au1 Au 0.72706(2) -0.26867(2) 0.302516(9)
Au2 Au 0.91843(2) 0.09147(2) 0.296668(10)
S1 S 0.81840(12) -0.27563(11) 0.21593(7)
S2 S 0.80700(11) -0.02302(11) 0.24123(7)
S3 S 1.03770(14) -0.15159(13) 0.27723(8)
P1 P 0.63599(11) -0.25972(11) 0.38605(6)
P2 P 1.02165(11) 0.19886(12) 0.35632(7)
P3 P 0.90829(11) -0.14288(10) 0.22511(6)
O1 O 0.9439(3) -0.1263(3) 0.1573(2)
C1 C 0.8682(6) -0.1264(5) 0.1061(3)
C2 C 0.4956(5) -0.2788(4) 0.3690(2)
C3 C 0.4618(5) -0.3742(5) 0.3446(3)
C4 C 0.3559(5) -0.3904(5) 0.3264(3)
C5 C 0.2834(5) -0.3116(5) 0.3317(3)
C6 C 0.3159(5) -0.2170(5) 0.3566(3)
C7 C 0.4207(5) -0.2011(5) 0.3744(3)
C8 C 0.6485(5) -0.1357(5) 0.4242(2)
C9 C 0.6292(5) -0.1236(5) 0.4849(3)
C10 C 0.6372(6) -0.0278(5) 0.5125(3)
C11 C 0.6637(8) 0.0582(6) 0.4792(3)
C12 C 0.6842(9) 0.0466(6) 0.4193(4)
C13 C 0.6769(7) -0.0502(6) 0.3920(3)
C14 C 0.6731(5) -0.3566(4) 0.4432(2)
C15 C 0.6060(5) -0.3863(5) 0.4862(3)
C16 C 0.6384(5) -0.4578(5) 0.5312(3)
C17 C 0.7373(5) -0.5004(5) 0.5313(3)
C18 C 0.8056(5) -0.4732(5) 0.4882(3)
C19 C 0.7735(5) -0.4003(5) 0.4436(3)
C20 C 1.0056(4) 0.3363(4) 0.3398(3)
C21 C 1.0191(5) 0.4119(5) 0.3850(3)
C22 C 1.0150(5) 0.5165(5) 0.3699(3)
C23 C 0.9951(5) 0.5455(6) 0.3106(4)
C24 C 0.9795(5) 0.4726(6) 0.2661(3)
C25 C 0.9865(5) 0.3673(5) 0.2801(3)
C26 C 1.1622(5) 0.1761(5) 0.3505(3)
C27 C 1.2352(5) 0.2521(5) 0.3670(3)
C28 C 1.3411(5) 0.2358(6) 0.3585(3)
C29 C 1.3740(5) 0.1453(5) 0.3338(3)
C30 C 1.3013(5) 0.0677(5) 0.3182(3)
C31 C 1.1948(5) 0.0830(5) 0.3270(3)
C32 C 0.9988(5) 0.1878(5) 0.4360(3)
C33 C 0.9059(6) 0.2272(6) 0.4559(3)
C34 C 0.8855(9) 0.2230(8) 0.5165(4)
C35 C 0.9558(9) 0.1809(10) 0.5577(4)
C36 C 1.0490(9) 0.1396(11) 0.5383(4)
C37 C 1.0716(6) 0.1443(8) 0.4778(4)
H1 H 0.9047(6) -0.1158(5) 0.0714(3)
H2 H 0.8319(6) -0.1917(5) 0.1035(3)
H3 H 0.8180(6) -0.0716(5) 0.1099(3)
H4 H 0.5123(5) -0.4287(5) 0.3406(3)
H5 H 0.3335(5) -0.4561(5) 0.3102(3)
H6 H 0.2107(5) -0.3219(5) 0.3184(3)
H7 H 0.2653(5) -0.1629(5) 0.3613(3)
H8 H 0.4428(5) -0.1353(5) 0.3907(3)
H9 H 0.6100(5) -0.1834(5) 0.5067(3)
H10 H 0.6250(6) -0.0209(5) 0.5532(3)
H11 H 0.6693(8) 0.1254(6) 0.4972(3)
H12 H 0.7015(9) 0.1064(6) 0.3970(4)
H13 H 0.6918(7) -0.0579(6) 0.3518(3)
H14 H 0.5361(5) -0.3577(5) 0.4849(3)
H15 H 0.5920(5) -0.4757(5) 0.5609(3)
H16 H 0.7601(5) -0.5493(5) 0.5612(3)
H17 H 0.8745(5) -0.5042(5) 0.4888(3)
H18 H 0.8203(5) -0.3813(5) 0.4143(3)
H19 H 1.0308(5) 0.3906(5) 0.4251(3)
H20 H 1.0262(5) 0.5686(5) 0.3996(3)
H21 H 0.9921(5) 0.6178(6) 0.3007(4)
H22 H 0.9638(5) 0.4943(6) 0.2263(3)
H23 H 0.9787(5) 0.3157(5) 0.2499(3)
H24 H 1.2127(5) 0.3156(5) 0.3840(3)
H25 H 1.3921(5) 0.2883(6) 0.3700(3)
H26 H 1.4473(5) 0.1355(5) 0.3274(3)
H27 H 1.3243(5) 0.0041(5) 0.3014(3)
H28 H 1.1441(5) 0.0296(5) 0.3168(3)
H29 H 0.8543(6) 0.2578(6) 0.4283(3)
H30 H 0.8202(9) 0.2504(8) 0.5285(4)
H31 H 0.9418(9) 0.1800(10) 0.5984(4)
H32 H 1.0992(9) 0.1077(11) 0.5661(4)
H33 H 1.1369(6) 0.1169(8) 0.4657(4)
Au2A Au 0.58157(2) -0.40853(2) 0.203332(10)
Au1A Au 0.77294(2) 0.23133(2) 0.197484(9)
loop_
_geom_bond_atom_site_label_1
_geom_bond_atom_site_label_2
_geom_bond_site_symmetry_1
_geom_bond_site_symmetry_2
Au1 S1 1_555 1_555
Au2 S2 1_555 1_555
S1 P3 1_555 1_555
S2 P3 1_555 1_555
S3 P3 1_555 1_555
P1 Au1 1_555 1_555
P2 Au2 1_555 1_555
P3 O1 1_555 1_555
O1 C1 1_555 1_555
C1 H1 1_555 1_555
C2 P1 1_555 1_555
C3 C2 1_555 1_555
C4 C3 1_555 1_555
C5 C4 1_555 1_555
C6 C5 1_555 1_555
C7 C2 1_555 1_555
C8 P1 1_555 1_555
C9 C8 1_555 1_555
C10 C9 1_555 1_555
C11 C10 1_555 1_555
C12 C11 1_555 1_555
C13 C8 1_555 1_555
C14 P1 1_555 1_555
C15 C14 1_555 1_555
C16 C15 1_555 1_555
C17 C16 1_555 1_555
C18 C17 1_555 1_555
C19 C14 1_555 1_555
C20 P2 1_555 1_555
C21 C20 1_555 1_555
C22 C21 1_555 1_555
C23 C22 1_555 1_555
C24 C23 1_555 1_555
C25 C20 1_555 1_555
C26 P2 1_555 1_555
C27 C26 1_555 1_555
C28 C27 1_555 1_555
C29 C28 1_555 1_555
C30 C29 1_555 1_555
C31 C26 1_555 1_555
C32 P2 1_555 1_555
C33 C32 1_555 1_555
C34 C33 1_555 1_555
C35 C34 1_555 1_555
C36 C35 1_555 1_555
C37 C32 1_555 1_555
H2 C1 1_555 1_555
H3 C1 1_555 1_555
H4 C3 1_555 1_555
H5 C4 1_555 1_555
H6 C5 1_555 1_555
H7 C6 1_555 1_555
H8 C7 1_555 1_555
H9 C9 1_555 1_555
H10 C10 1_555 1_555
H11 C11 1_555 1_555
H12 C12 1_555 1_555
H13 C13 1_555 1_555
H14 C15 1_555 1_555
H15 C16 1_555 1_555
H16 C17 1_555 1_555
H17 C18 1_555 1_555
H18 C19 1_555 1_555
H19 C21 1_555 1_555
H20 C22 1_555 1_555
H21 C23 1_555 1_555
H22 C24 1_555 1_555
H23 C25 1_555 1_555
H24 C27 1_555 1_555
H25 C28 1_555 1_555
H26 C29 1_555 1_555
H27 C30 1_555 1_555
H28 C31 1_555 1_555
H29 C33 1_555 1_555
H30 C34 1_555 1_555
H31 C35 1_555 1_555
H32 C36 1_555 1_555
H33 C37 1_555 1_555
Au2A Au1 1_555 1_555
Au1A Au2 1_555 1_555
C6 C7 1_555 1_555
C12 C13 1_555 1_555
C18 C19 1_555 1_555
C24 C25 1_555 1_555
C30 C31 1_555 1_555
C36 C37 1_555 1_555

#END
