
#######################################################################
#
#                 Cambridge Crystallographic Data Centre
#                                CCDC 
#
#######################################################################
#
# If this CIF has been generated from an entry in the Cambridge 
# Structural Database, then it will include bibliographic, chemical, 
# crystal, experimental, refinement or atomic coordinate data resulting 
# from the CCDC's data processing and validation procedures.
#
#######################################################################

data_QEJYIO
_symmetry_cell_setting           orthorhombic
_symmetry_space_group_name_H-M   'P n m a'
_symmetry_Int_Tables_number      62
_space_group_name_Hall           '-P 2ac 2n'
loop_
_symmetry_equiv_pos_site_id
_symmetry_equiv_pos_as_xyz
1 x,y,z
2 1/2-x,-y,1/2+z
3 1/2+x,1/2-y,1/2-z
4 -x,1/2+y,-z
5 -x,-y,-z
6 1/2+x,y,1/2-z
7 1/2-x,1/2+y,1/2+z
8 x,1/2-y,z
_cell_length_a                   11.303
_cell_length_b                   26.8081(10)
_cell_length_c                   24.3370(10)
_cell_angle_alpha                90
_cell_angle_beta                 90
_cell_angle_gamma                90
_cell_volume                     7374.4
loop_
_atom_site_label
_atom_site_type_symbol
_atom_site_fract_x
_atom_site_fract_y
_atom_site_fract_z
Cd1 Cd 0.74603(5) 0.2500 -0.16984(2)
Cd2 Cd 0.41464(4) 0.341389(16) -0.015093(17)
Cd3 Cd 0.64663(5) 0.2500 0.16563(2)
Cl1 Cl 0.3282(2) 0.2500 -0.00316(9)
N1 N 0.6607(5) 0.2500 -0.2643(2)
N2 N 0.4776(5) 0.2500 -0.3203(3)
N3 N 0.6543(4) 0.29577(17) -0.35126(19)
N4 N 0.5648(5) 0.2500 0.2600(2)
N5 N 0.3858(5) 0.2500 0.3184(2)
N6 N 0.5653(4) 0.29537(18) 0.34732(18)
O1 O 0.5508(5) 0.2500 -0.1421(3)
O2 O 0.2306(4) 0.36788(18) -0.0489(2)
O3 O 0.5991(4) 0.3050(2) -0.0072(2)
O4 O 0.4518(5) 0.2500 0.1318(2)
O7 O 0.7534(3) 0.33437(13) -0.17843(15)
O8 O 0.7759(4) 0.31120(14) -0.09336(15)
O9 O 0.4481(4) 0.33727(14) -0.11121(19)
O10 O 0.5049(4) 0.40711(16) -0.07197(17)
O11 O 0.4409(5) 0.41180(18) 0.05356(18)
O12 O 0.3850(5) 0.33884(15) 0.0792(2)
O13 O 0.6970(3) 0.31349(13) 0.09465(15)
O14 O 0.6457(3) 0.33388(13) 0.17820(15)
C1 C 0.5288(6) 0.2500 -0.2643(3)
C2 C 0.5254(4) 0.2945(2) -0.3492(2)
H1 H 0.4948 0.2950 -0.3864
H2 H 0.4974 0.3243 -0.3308
C3 C 0.6953(7) 0.2500 -0.3790(3)
C4 C 0.7002(5) 0.2952(2) -0.2948(2)
H3 H 0.6731 0.3248 -0.2756
H4 H 0.7860 0.2961 -0.2958
C5 C 0.6077(6) 0.2500 0.3749(3)
C6 C 0.4354(4) 0.2944(2) 0.3466(2)
H5 H 0.4067 0.3242 0.3284
H6 H 0.4066 0.2950 0.3842
C7 C 0.4333(6) 0.2500 0.2611(3)
C8 C 0.6075(5) 0.2948(2) 0.2900(2)
H7 H 0.6933 0.2953 0.2897
H8 H 0.5800 0.3246 0.2714
C9 C 0.7683(4) 0.34448(18) -0.1287(2)
C10 C 0.7855(4) 0.39812(18) -0.1127(2)
C11 C 0.7201(4) 0.43684(18) -0.1373(2)
C12 C 0.7482(6) 0.4856(2) -0.1235(3)
H9 H 0.7062 0.5116 -0.1396
C13 C 0.8370(7) 0.4965(2) -0.0865(3)
H10 H 0.8542 0.5295 -0.0779
C14 C 0.9001(6) 0.4585(3) -0.0625(3)
H11 H 0.9605 0.4656 -0.0378
C15 C 0.8733(5) 0.4096(2) -0.0753(2)
H12 H 0.9152 0.3840 -0.0584
C16 C 0.4924(4) 0.3807(2) -0.1133(2)
C17 C 0.5237(4) 0.40062(18) -0.1694(2)
C18 C 0.6281(5) 0.42778(18) -0.1798(2)
C19 C 0.6464(5) 0.4465(2) -0.2321(3)
H13 H 0.7147 0.4648 -0.2391
C20 C 0.5671(7) 0.4390(2) -0.2741(3)
H14 H 0.5817 0.4515 -0.3091
C21 C 0.4645(6) 0.4123(2) -0.2631(3)
H15 H 0.4094 0.4071 -0.2908
C22 C 0.4439(5) 0.3934(2) -0.2116(3)
H16 H 0.3749 0.3755 -0.2050
C23 C 0.4141(4) 0.3825(2) 0.0902(2)
C24 C 0.4155(4) 0.39769(17) 0.1493(2)
C25 C 0.5104(5) 0.42406(18) 0.1724(2)
C26 C 0.5025(5) 0.4389(2) 0.2277(2)
H17 H 0.5638 0.4570 0.2436
C27 C 0.4028(6) 0.4263(2) 0.2591(3)
H18 H 0.3987 0.4357 0.2958
C28 C 0.3109(6) 0.4001(2) 0.2355(3)
H19 H 0.2444 0.3922 0.2563
C29 C 0.3176(5) 0.3858(2) 0.1815(2)
H20 H 0.2556 0.3677 0.1661
C30 C 0.6755(4) 0.34582(18) 0.1303(2)
C31 C 0.6920(4) 0.40039(18) 0.1183(2)
C32 C 0.6181(4) 0.43694(18) 0.1408(2)
C33 C 0.6454(6) 0.4870(2) 0.1320(3)
H21 H 0.5973 0.5116 0.1471
C34 C 0.7430(7) 0.5006(3) 0.1012(3)
H22 H 0.7603 0.5342 0.0958
C35 C 0.8139(6) 0.4649(3) 0.0788(3)
H23 H 0.8796 0.4742 0.0582
C36 C 0.7885(5) 0.4150(2) 0.0866(3)
H24 H 0.8364 0.3908 0.0705
Cd1E Cd 0.24603(5) 0.2500 -0.33016(2)
Cd2G Cd 0.41464(4) 0.158611(16) -0.015093(17)
N2E N 0.9776(5) 0.2500 -0.1797(3)
N3G N 0.6543(4) 0.20423(17) -0.35126(19)
N6G N 0.5653(4) 0.20463(18) 0.34732(18)
O2G O 0.2306(4) 0.13212(18) -0.0489(2)
O3G O 0.5991(4) 0.1950(2) -0.0072(2)
O7G O 0.7534(3) 0.16563(13) -0.17843(15)
O8G O 0.7759(4) 0.18880(14) -0.09336(15)
O9G O 0.4481(4) 0.16273(14) -0.11121(19)
O10G O 0.5049(4) 0.09289(16) -0.07197(17)
O11G O 0.4409(5) 0.08820(18) 0.05356(18)
O12G O 0.3850(5) 0.16116(15) 0.0792(2)
O13G O 0.6970(3) 0.18651(13) 0.09465(15)
O14G O 0.6457(3) 0.16612(13) 0.17820(15)
C2G C 0.5254(4) 0.2055(2) -0.3492(2)
H1G H 0.4948 0.2050 -0.3864
H2G H 0.4974 0.1757 -0.3308
C4G C 0.7002(5) 0.2048(2) -0.2948(2)
H3G H 0.6731 0.1752 -0.2756
H4G H 0.7860 0.2039 -0.2958
C6G C 0.4354(4) 0.2056(2) 0.3466(2)
H5G H 0.4067 0.1758 0.3284
H6G H 0.4066 0.2050 0.3842
C8G C 0.6075(5) 0.2052(2) 0.2900(2)
H7G H 0.6933 0.2047 0.2897
H8G H 0.5800 0.1754 0.2714
C9G C 0.7683(4) 0.15552(18) -0.1287(2)
C10G C 0.7855(4) 0.10188(18) -0.1127(2)
C11G C 0.7201(4) 0.06316(18) -0.1373(2)
C12G C 0.7482(6) 0.0144(2) -0.1235(3)
H9G H 0.7062 -0.0116 -0.1396
C13G C 0.8370(7) 0.0035(2) -0.0865(3)
H10G H 0.8542 -0.0295 -0.0779
C14G C 0.9001(6) 0.0415(3) -0.0625(3)
H11G H 0.9605 0.0344 -0.0378
C15G C 0.8733(5) 0.0904(2) -0.0753(2)
H12G H 0.9152 0.1160 -0.0584
C16G C 0.4924(4) 0.1193(2) -0.1133(2)
C17G C 0.5237(4) 0.09938(18) -0.1694(2)
C18G C 0.6281(5) 0.07222(18) -0.1798(2)
C19G C 0.6464(5) 0.0535(2) -0.2321(3)
H13G H 0.7147 0.0352 -0.2391
C20G C 0.5671(7) 0.0610(2) -0.2741(3)
H14G H 0.5817 0.0485 -0.3091
C21G C 0.4645(6) 0.0877(2) -0.2631(3)
H15G H 0.4094 0.0929 -0.2908
C22G C 0.4439(5) 0.1066(2) -0.2116(3)
H16G H 0.3749 0.1245 -0.2050
C23G C 0.4141(4) 0.1175(2) 0.0902(2)
C24G C 0.4155(4) 0.10231(17) 0.1493(2)
C25G C 0.5104(5) 0.07594(18) 0.1724(2)
C26G C 0.5025(5) 0.0611(2) 0.2277(2)
H17G H 0.5638 0.0430 0.2436
C27G C 0.4028(6) 0.0737(2) 0.2591(3)
H18G H 0.3987 0.0643 0.2958
C28G C 0.3109(6) 0.0999(2) 0.2355(3)
H19G H 0.2444 0.1078 0.2563
C29G C 0.3176(5) 0.1142(2) 0.1815(2)
H20G H 0.2556 0.1323 0.1661
C30G C 0.6755(4) 0.15418(18) 0.1303(2)
C31G C 0.6920(4) 0.09961(18) 0.1183(2)
C32G C 0.6181(4) 0.06306(18) 0.1408(2)
C33G C 0.6454(6) 0.0130(2) 0.1320(3)
H21G H 0.5973 -0.0116 0.1471
C34G C 0.7430(7) -0.0006(3) 0.1012(3)
H22G H 0.7603 -0.0342 0.0958
C35G C 0.8139(6) 0.0351(3) 0.0788(3)
H23G H 0.8796 0.0258 0.0582
C36G C 0.7885(5) 0.0850(2) 0.0866(3)
H24G H 0.8364 0.1092 0.0705
Na1 Na 0.5000 0.5000 0.0000
O5 O 0.8947(9) 0.2993(3) 0.0049(3)
O6 O 0.0779(5) 0.3604(2) 0.0401(3)
loop_
_geom_bond_atom_site_label_1
_geom_bond_atom_site_label_2
_geom_bond_site_symmetry_1
_geom_bond_site_symmetry_2
Cd1 N1 1_555 1_555
Cd2 Cl1 1_555 1_555
Cd3 N4 1_555 1_555
Cl1 Cd2G 1_555 1_555
N1 C1 1_555 1_555
N2 C1 1_555 1_555
N3 C2 1_555 1_555
N4 C7 1_555 1_555
N5 C6 1_555 1_555
N6 C5 1_555 1_555
O1 Cd1 1_555 1_555
O2 Cd2 1_555 1_555
O3 Cd2 1_555 1_555
O4 Cd3 1_555 1_555
O7 Cd1 1_555 1_555
O8 Cd1 1_555 1_555
O9 Cd2 1_555 1_555
O10 Cd2 1_555 1_555
O11 Cd2 1_555 1_555
O12 Cd2 1_555 1_555
O13 Cd3 1_555 1_555
O14 Cd3 1_555 1_555
C2 N2 1_555 1_555
H1 C2 1_555 1_555
H2 C2 1_555 1_555
C3 N3 1_555 1_555
C4 N1 1_555 1_555
H3 C4 1_555 1_555
H4 C4 1_555 1_555
C5 N6G 1_555 1_555
C6 N6 1_555 1_555
H5 C6 1_555 1_555
H6 C6 1_555 1_555
C7 N5 1_555 1_555
C8 N4 1_555 1_555
H7 C8 1_555 1_555
H8 C8 1_555 1_555
C9 O7 1_555 1_555
C10 C9 1_555 1_555
C11 C10 1_555 1_555
C12 C11 1_555 1_555
H9 C12 1_555 1_555
C13 C12 1_555 1_555
H10 C13 1_555 1_555
C14 C13 1_555 1_555
H11 C14 1_555 1_555
C15 C10 1_555 1_555
H12 C15 1_555 1_555
C16 O9 1_555 1_555
C17 C16 1_555 1_555
C18 C11 1_555 1_555
C19 C18 1_555 1_555
H13 C19 1_555 1_555
C20 C19 1_555 1_555
H14 C20 1_555 1_555
C21 C20 1_555 1_555
H15 C21 1_555 1_555
C22 C17 1_555 1_555
H16 C22 1_555 1_555
C23 O11 1_555 1_555
C24 C23 1_555 1_555
C25 C24 1_555 1_555
C26 C25 1_555 1_555
H17 C26 1_555 1_555
C27 C26 1_555 1_555
H18 C27 1_555 1_555
C28 C27 1_555 1_555
H19 C28 1_555 1_555
C29 C24 1_555 1_555
H20 C29 1_555 1_555
C30 O13 1_555 1_555
C31 C30 1_555 1_555
C32 C25 1_555 1_555
C33 C32 1_555 1_555
H21 C33 1_555 1_555
C34 C33 1_555 1_555
H22 C34 1_555 1_555
C35 C34 1_555 1_555
H23 C35 1_555 1_555
C36 C31 1_555 1_555
H24 C36 1_555 1_555
Cd1E N2 1_555 1_555
Cd2G O2G 1_555 1_555
N2E Cd1 1_555 1_555
N3G C3 1_555 1_555
N6G C6G 1_555 1_555
O3G Cd2G 1_555 1_555
O7G Cd1 1_555 1_555
O8G Cd1 1_555 1_555
O9G Cd2G 1_555 1_555
O10G Cd2G 1_555 1_555
O11G Cd2G 1_555 1_555
O12G Cd2G 1_555 1_555
O13G Cd3 1_555 1_555
O14G Cd3 1_555 1_555
C2G N2 1_555 1_555
H1G C2G 1_555 1_555
H2G C2G 1_555 1_555
C4G N1 1_555 1_555
H3G C4G 1_555 1_555
H4G C4G 1_555 1_555
C6G N5 1_555 1_555
H5G C6G 1_555 1_555
H6G C6G 1_555 1_555
C8G N4 1_555 1_555
H7G C8G 1_555 1_555
H8G C8G 1_555 1_555
C9G O7G 1_555 1_555
C10G C9G 1_555 1_555
C11G C10G 1_555 1_555
C12G C11G 1_555 1_555
H9G C12G 1_555 1_555
C13G C12G 1_555 1_555
H10G C13G 1_555 1_555
C14G C13G 1_555 1_555
H11G C14G 1_555 1_555
C15G C10G 1_555 1_555
H12G C15G 1_555 1_555
C16G O9G 1_555 1_555
C17G C16G 1_555 1_555
C18G C11G 1_555 1_555
C19G C18G 1_555 1_555
H13G C19G 1_555 1_555
C20G C19G 1_555 1_555
H14G C20G 1_555 1_555
C21G C20G 1_555 1_555
H15G C21G 1_555 1_555
C22G C17G 1_555 1_555
H16G C22G 1_555 1_555
C23G O11G 1_555 1_555
C24G C23G 1_555 1_555
C25G C24G 1_555 1_555
C26G C25G 1_555 1_555
H17G C26G 1_555 1_555
C27G C26G 1_555 1_555
H18G C27G 1_555 1_555
C28G C27G 1_555 1_555
H19G C28G 1_555 1_555
C29G C24G 1_555 1_555
H20G C29G 1_555 1_555
C30G O13G 1_555 1_555
C31G C30G 1_555 1_555
C32G C25G 1_555 1_555
C33G C32G 1_555 1_555
H21G C33G 1_555 1_555
C34G C33G 1_555 1_555
H22G C34G 1_555 1_555
C35G C34G 1_555 1_555
H23G C35G 1_555 1_555
C36G C31G 1_555 1_555
H24G C36G 1_555 1_555
N3 C4 1_555 1_555
N6 C8 1_555 1_555
O8 C9 1_555 1_555
O10 C16 1_555 1_555
O12 C23 1_555 1_555
O14 C30 1_555 1_555
C14 C15 1_555 1_555
C17 C18 1_555 1_555
C21 C22 1_555 1_555
C28 C29 1_555 1_555
C31 C32 1_555 1_555
C35 C36 1_555 1_555
N3G C2G 1_555 1_555
N3G C4G 1_555 1_555
N6G C8G 1_555 1_555
O8G C9G 1_555 1_555
O10G C16G 1_555 1_555
O12G C23G 1_555 1_555
O14G C30G 1_555 1_555
C14G C15G 1_555 1_555
C17G C18G 1_555 1_555
C21G C22G 1_555 1_555
C28G C29G 1_555 1_555
C31G C32G 1_555 1_555
C35G C36G 1_555 1_555

#END
