
#######################################################################
#
#                 Cambridge Crystallographic Data Centre
#                                CCDC 
#
#######################################################################
#
# If this CIF has been generated from an entry in the Cambridge 
# Structural Database, then it will include bibliographic, chemical, 
# crystal, experimental, refinement or atomic coordinate data resulting 
# from the CCDC's data processing and validation procedures.
#
#######################################################################

data_QEJYOU
_symmetry_cell_setting           monoclinic
_symmetry_space_group_name_H-M   'P 21/n'
_symmetry_Int_Tables_number      14
_space_group_name_Hall           '-P 2yn'
loop_
_symmetry_equiv_pos_site_id
_symmetry_equiv_pos_as_xyz
1 x,y,z
2 1/2-x,1/2+y,1/2-z
3 -x,-y,-z
4 1/2+x,1/2-y,1/2+z
_cell_length_a                   20.9727(4)
_cell_length_b                   19.1255(2)
_cell_length_c                   21.2366(3)
_cell_angle_alpha                90
_cell_angle_beta                 90.8020(10)
_cell_angle_gamma                90
_cell_volume                     8517.45
loop_
_atom_site_label
_atom_site_type_symbol
_atom_site_fract_x
_atom_site_fract_y
_atom_site_fract_z
Cd1 Cd 0.81358(2) 0.87454(3) 0.17659(3)
Cd2 Cd 0.82667(3) 0.69840(3) -0.07277(3)
Cd3 Cd 0.65667(3) 0.76521(3) 0.41906(3)
Cd4 Cd 1.14764(3) 0.74512(3) 0.19228(3)
N1 N 0.8812(3) 0.8505(4) 0.0889(3)
N2 N 0.9851(3) 0.8076(5) 0.0553(4)
N3 N 0.9322(4) 0.8987(4) -0.0044(4)
N4 N 0.8898(3) 0.7795(4) -0.0065(3)
N5 N 0.7491(3) 0.9044(3) 0.2688(3)
N6 N 0.7468(3) 0.9729(4) 0.3662(3)
N7 N 0.6505(3) 0.9608(4) 0.3015(3)
N8 N 0.6914(3) 0.8606(3) 0.3605(3)
N9 N 0.7655(3) 0.6384(3) -0.1585(3)
N10 N 0.7731(3) 0.5612(4) -0.2512(3)
N11 N 0.6800(3) 0.5549(3) -0.1843(4)
N12 N 0.6958(3) 0.6572(3) -0.2517(3)
O1 O 0.7854(3) 0.9795(3) 0.1321(3)
O2 O 0.8330(3) 0.5985(5) -0.0139(4)
O3 O 0.6190(4) 0.8369(5) 0.4943(3)
O4 O 1.1110(3) 0.8122(4) 0.1100(3)
O5 O 1.1867(3) 0.6557(4) 0.2568(4)
O6 O 0.7590(3) 0.7736(3) 0.1657(3)
O7 O 0.7069(3) 0.8447(3) 0.1034(3)
O8 O 0.7253(3) 0.7065(3) -0.0138(3)
O9 O 0.7544(2) 0.7898(3) -0.0773(3)
O10 O 0.9223(2) 0.6524(3) -0.1111(3)
O11 O 0.8852(2) 0.7437(3) -0.1622(3)
O12 O 1.0537(3) 0.7595(4) -0.1143(3)
O13 O 1.1300(3) 0.8093(4) -0.1632(4)
O14 O 0.6844(2) 0.6875(3) 0.5007(3)
O15 O 0.7595(3) 0.7427(3) 0.4512(3)
O16 O 0.6858(3) 0.8379(4) 0.6043(3)
O17 O 0.7471(3) 0.7603(3) 0.6506(3)
O18 O 1.0442(3) 0.6788(4) 0.2029(3)
O19 O 1.0719(4) 0.7603(4) 0.2671(4)
O20 O 0.9017(3) 0.9186(3) 0.2296(3)
O21 O 0.8778(3) 0.8108(3) 0.2543(3)
C1 C 0.9443(4) 0.8242(5) 0.1094(4)
H1 H 0.9388 0.7825 0.1347
H2 H 0.9653 0.8592 0.1354
C2 C 0.9931(4) 0.8715(6) 0.0183(5)
H3 H 1.0141 0.9067 0.0442
H4 H 1.0202 0.8618 -0.0173
C3 C 0.9528(4) 0.7557(5) 0.0165(5)
H5 H 0.9475 0.7132 0.0408
H6 H 0.9792 0.7447 -0.0193
C4 C 0.8925(4) 0.9143(5) 0.0496(4)
H7 H 0.8519 0.9328 0.0350
H8 H 0.9132 0.9499 0.0753
C5 C 0.8503(3) 0.7962(5) 0.0477(4)
H9 H 0.8433 0.7541 0.0721
H10 H 0.8092 0.8132 0.0330
C6 C 0.9006(4) 0.8449(5) -0.0431(4)
H11 H 0.9267 0.8344 -0.0792
H12 H 0.8600 0.8627 -0.0586
C7 C 0.7849(4) 0.9519(4) 0.3116(4)
H13 H 0.8234 0.9286 0.3263
H14 H 0.7975 0.9933 0.2885
C8 C 0.6897(4) 0.9410(5) 0.2489(4)
H15 H 0.7008 0.9826 0.2254
H16 H 0.6652 0.9107 0.2211
C9 C 0.7302(4) 0.8415(4) 0.3050(4)
H17 H 0.7681 0.8167 0.3190
H18 H 0.7057 0.8105 0.2778
C10 C 0.7298(4) 0.9096(5) 0.4000(4)
H19 H 0.7057 0.9222 0.4370
H20 H 0.7685 0.8862 0.4141
C11 C 0.6337(4) 0.8982(4) 0.3356(4)
H21 H 0.6098 0.8672 0.3079
H22 H 0.6065 0.9106 0.3704
C12 C 0.6891(4) 1.0075(5) 0.3416(5)
H23 H 0.7013 1.0483 0.3174
H24 H 0.6636 1.0234 0.3766
C13 C 0.8082(4) 0.5968(4) -0.2000(4)
H25 H 0.8397 0.6278 -0.2181
H26 H 0.8306 0.5623 -0.1747
C14 C 0.7161(4) 0.5902(4) -0.1339(4)
H27 H 0.7365 0.5552 -0.1074
H28 H 0.6868 0.6164 -0.1080
C15 C 0.7326(3) 0.6903(4) -0.1997(3)
H29 H 0.7039 0.7181 -0.1744
H30 H 0.7641 0.7216 -0.2173
C16 C 0.6490(4) 0.6079(4) -0.2234(4)
H31 H 0.6193 0.6341 -0.1980
H32 H 0.6249 0.5851 -0.2568
C17 C 0.7243(4) 0.5154(4) -0.2233(4)
H33 H 0.7007 0.4919 -0.2567
H34 H 0.7452 0.4798 -0.1977
C18 C 0.7411(4) 0.6147(4) -0.2897(4)
H35 H 0.7180 0.5922 -0.3240
H36 H 0.7729 0.6453 -0.3078
C19 C 0.7131(3) 0.7874(4) 0.1281(4)
C20 C 0.6646(3) 0.7298(4) 0.1173(4)
C21 C 0.6195(3) 0.7304(4) 0.0680(3)
C22 C 0.5746(4) 0.6776(4) 0.0655(4)
H37 H 0.5444 0.6781 0.0331
C23 C 0.5727(4) 0.6242(5) 0.1093(4)
H38 H 0.5418 0.5896 0.1062
C24 C 0.6179(4) 0.6231(4) 0.1580(4)
H39 H 0.6178 0.5876 0.1880
C25 C 0.6629(4) 0.6760(4) 0.1608(4)
H40 H 0.6931 0.6753 0.1932
C26 C 0.7138(3) 0.7633(4) -0.0411(3)
C27 C 0.6530(3) 0.8017(4) -0.0303(4)
C28 C 0.6113(3) 0.7868(4) 0.0193(3)
C29 C 0.5543(3) 0.8248(5) 0.0219(4)
H41 H 0.5263 0.8157 0.0544
C30 C 0.5383(4) 0.8748(5) -0.0219(4)
H42 H 0.5002 0.8993 -0.0187
C31 C 0.5791(4) 0.8885(5) -0.0702(4)
H43 H 0.5687 0.9221 -0.1003
C32 C 0.6357(4) 0.8522(4) -0.0742(4)
H44 H 0.6630 0.8618 -0.1071
C33 C 0.9235(3) 0.6940(4) -0.1579(4)
C34 C 0.9677(3) 0.6768(4) -0.2103(4)
C35 C 0.9938(3) 0.7276(4) -0.2493(4)
C36 C 1.0306(4) 0.7061(5) -0.2989(4)
H45 H 1.0490 0.7396 -0.3247
C37 C 1.0407(4) 0.6372(5) -0.3111(4)
H46 H 1.0654 0.6244 -0.3452
C38 C 1.0151(4) 0.5862(5) -0.2737(4)
H47 H 1.0218 0.5390 -0.2820
C39 C 0.9790(3) 0.6073(4) -0.2233(4)
H48 H 0.9617 0.5734 -0.1971
C40 C 1.0718(4) 0.8004(4) -0.1546(4)
C41 C 1.0236(4) 0.8397(4) -0.1936(4)
C42 C 0.9854(3) 0.8045(4) -0.2372(4)
C43 C 0.9416(4) 0.8433(5) -0.2726(5)
H49 H 0.9159 0.8210 -0.3023
C44 C 0.9361(5) 0.9142(6) -0.2640(6)
H50 H 0.9065 0.9395 -0.2879
C45 C 0.9739(5) 0.9481(5) -0.2203(6)
H51 H 0.9691 0.9959 -0.2138
C46 C 1.0180(5) 0.9120(5) -0.1869(5)
H52 H 1.0450 0.9356 -0.1590
C47 C 0.7424(4) 0.7021(4) 0.4934(4)
C48 C 0.7915(4) 0.6693(4) 0.5353(4)
C49 C 0.8397(3) 0.7093(4) 0.5635(4)
C50 C 0.8856(4) 0.6748(5) 0.5995(4)
H53 H 0.9183 0.7002 0.6186
C51 C 0.8833(5) 0.6031(6) 0.6073(5)
H54 H 0.9147 0.5806 0.6311
C52 C 0.8353(5) 0.5655(5) 0.5802(5)
H55 H 0.8339 0.5172 0.5855
C53 C 0.7888(5) 0.5983(5) 0.5449(5)
H56 H 0.7554 0.5725 0.5275
C54 C 0.7389(4) 0.8086(5) 0.6119(4)
C55 C 0.7957(4) 0.8323(5) 0.5752(4)
C56 C 0.8439(4) 0.7862(5) 0.5558(4)
C57 C 0.8963(4) 0.8134(5) 0.5262(4)
H57 H 0.9288 0.7834 0.5139
C58 C 0.9022(4) 0.8839(6) 0.5143(5)
H58 H 0.9382 0.9009 0.4943
C59 C 0.8544(5) 0.9294(5) 0.5321(5)
H59 H 0.8575 0.9770 0.5238
C60 C 0.8021(4) 0.9026(5) 0.5627(4)
H60 H 0.7700 0.9330 0.5752
C61 C 1.0370(4) 0.7108(5) 0.2535(4)
C62 C 0.9847(3) 0.6900(4) 0.2966(4)
C63 C 0.9575(3) 0.7369(4) 0.3389(4)
C64 C 0.9090(4) 0.7115(5) 0.3765(4)
H61 H 0.8887 0.7424 0.4034
C65 C 0.8899(4) 0.6436(5) 0.3756(4)
H62 H 0.8582 0.6288 0.4028
C66 C 0.9168(4) 0.5966(5) 0.3352(5)
H63 H 0.9040 0.5500 0.3347
C67 C 0.9640(4) 0.6204(5) 0.2947(5)
H64 H 0.9819 0.5896 0.2661
C68 C 0.9100(3) 0.8652(4) 0.2629(4)
C69 C 0.9584(3) 0.8693(4) 0.3158(3)
C70 C 0.9805(3) 0.8100(4) 0.3488(3)
C71 C 1.0257(4) 0.8205(4) 0.3961(4)
H65 H 1.0418 0.7818 0.4177
C72 C 1.0477(4) 0.8856(5) 0.4123(4)
H66 H 1.0777 0.8910 0.4446
C73 C 1.0246(4) 0.9426(5) 0.3801(4)
H67 H 1.0391 0.9872 0.3905
C74 C 0.98054(11) 0.93410(12) 0.33288(12)
H68 H 0.9651 0.9733 0.3117
Cd3C Cd 1.15667(3) 0.73479(3) -0.08094(3)
Cd4C Cd 0.64764(3) 0.75488(3) -0.30772(3)
Cd4C_2 Cd 0.64764(3) 0.75488(3) 0.69228(3)
N12C N 1.1958(3) 0.8428(3) 0.2483(3)
O12C O 0.5537(3) 0.7405(4) 0.3857(3)
O13C O 0.6300(3) 0.6907(4) 0.3368(4)
O16C O 1.1858(3) 0.6621(4) 0.1043(3)
O17C O 1.2471(3) 0.7397(3) 0.1506(3)
O22 O 0.77904(11) 1.09690(12) 0.20149(12)
O23 O 0.67992(11) 1.17392(12) 0.26366(12)
O24 O 1.01415(11) 0.58949(12) -0.04014(12)
O25 O 1.30140(11) 0.63579(12) 0.31762(12)
O26 O 1.12420(11) 0.53374(12) 0.28231(12)
O27 O 0.71894(11) 0.56930(12) 0.03304(12)
O28 O 0.92438(11) 0.64405(12) 0.14667(12)
O29 O 0.66530(11) 0.97050(12) 0.06840(12)
O30 O 0.94899(11) 0.54624(12) 0.06171(12)
O31 O 1.06702(11) 0.55354(12) 0.15701(12)
O32 O 0.87381(11) 0.46981(12) -0.09860(12)
loop_
_geom_bond_atom_site_label_1
_geom_bond_atom_site_label_2
_geom_bond_site_symmetry_1
_geom_bond_site_symmetry_2
Cd1 N1 1_555 1_555
Cd2 N4 1_555 1_555
Cd3 N8 1_555 1_555
Cd4 O4 1_555 1_555
N1 C1 1_555 1_555
N2 C1 1_555 1_555
N3 C2 1_555 1_555
N4 C3 1_555 1_555
N5 Cd1 1_555 1_555
N6 C7 1_555 1_555
N7 C8 1_555 1_555
N8 C9 1_555 1_555
N9 Cd2 1_555 1_555
N10 C13 1_555 1_555
N11 C14 1_555 1_555
N12 C15 1_555 1_555
O1 Cd1 1_555 1_555
O2 Cd2 1_555 1_555
O3 Cd3 1_555 1_555
O5 Cd4 1_555 1_555
O6 Cd1 1_555 1_555
O7 C19 1_555 1_555
O8 Cd2 1_555 1_555
O9 Cd2 1_555 1_555
O10 Cd2 1_555 1_555
O11 Cd2 1_555 1_555
O12 C40 1_555 1_555
O13 C40 1_555 1_555
O14 Cd3 1_555 1_555
O15 Cd3 1_555 1_555
O16 C54 1_555 1_555
O17 C54 1_555 1_555
O18 Cd4 1_555 1_555
O19 Cd4 1_555 1_555
O20 Cd1 1_555 1_555
O21 Cd1 1_555 1_555
C1 H1 1_555 1_555
H2 C1 1_555 1_555
C2 N2 1_555 1_555
H3 C2 1_555 1_555
H4 C2 1_555 1_555
C3 N2 1_555 1_555
H5 C3 1_555 1_555
H6 C3 1_555 1_555
C4 N1 1_555 1_555
H7 C4 1_555 1_555
H8 C4 1_555 1_555
C5 N1 1_555 1_555
H9 C5 1_555 1_555
H10 C5 1_555 1_555
C6 N3 1_555 1_555
H11 C6 1_555 1_555
H12 C6 1_555 1_555
C7 N5 1_555 1_555
H13 C7 1_555 1_555
H14 C7 1_555 1_555
C8 N5 1_555 1_555
H15 C8 1_555 1_555
H16 C8 1_555 1_555
C9 N5 1_555 1_555
H17 C9 1_555 1_555
H18 C9 1_555 1_555
C10 N6 1_555 1_555
H19 C10 1_555 1_555
H20 C10 1_555 1_555
C11 N7 1_555 1_555
H21 C11 1_555 1_555
H22 C11 1_555 1_555
C12 N6 1_555 1_555
H23 C12 1_555 1_555
H24 C12 1_555 1_555
C13 N9 1_555 1_555
H25 C13 1_555 1_555
H26 C13 1_555 1_555
C14 N9 1_555 1_555
H27 C14 1_555 1_555
H28 C14 1_555 1_555
C15 N9 1_555 1_555
H29 C15 1_555 1_555
H30 C15 1_555 1_555
C16 N11 1_555 1_555
H31 C16 1_555 1_555
H32 C16 1_555 1_555
C17 N10 1_555 1_555
H33 C17 1_555 1_555
H34 C17 1_555 1_555
C18 N10 1_555 1_555
H35 C18 1_555 1_555
H36 C18 1_555 1_555
C19 O6 1_555 1_555
C20 C19 1_555 1_555
C21 C20 1_555 1_555
C22 C21 1_555 1_555
H37 C22 1_555 1_555
C23 C22 1_555 1_555
H38 C23 1_555 1_555
C24 C23 1_555 1_555
H39 C24 1_555 1_555
C25 C20 1_555 1_555
H40 C25 1_555 1_555
C26 O8 1_555 1_555
C27 C26 1_555 1_555
C28 C21 1_555 1_555
C29 C28 1_555 1_555
H41 C29 1_555 1_555
C30 C29 1_555 1_555
H42 C30 1_555 1_555
C31 C30 1_555 1_555
H43 C31 1_555 1_555
C32 C27 1_555 1_555
H44 C32 1_555 1_555
C33 O10 1_555 1_555
C34 C33 1_555 1_555
C35 C34 1_555 1_555
C36 C35 1_555 1_555
H45 C36 1_555 1_555
C37 C36 1_555 1_555
H46 C37 1_555 1_555
C38 C37 1_555 1_555
H47 C38 1_555 1_555
C39 C34 1_555 1_555
H48 C39 1_555 1_555
C40 C41 1_555 1_555
C41 C42 1_555 1_555
C42 C35 1_555 1_555
C43 C42 1_555 1_555
H49 C43 1_555 1_555
C44 C43 1_555 1_555
H50 C44 1_555 1_555
C45 C44 1_555 1_555
H51 C45 1_555 1_555
C46 C41 1_555 1_555
H52 C46 1_555 1_555
C47 O14 1_555 1_555
C48 C47 1_555 1_555
C49 C48 1_555 1_555
C50 C49 1_555 1_555
H53 C50 1_555 1_555
C51 C50 1_555 1_555
H54 C51 1_555 1_555
C52 C51 1_555 1_555
H55 C52 1_555 1_555
C53 C48 1_555 1_555
H56 C53 1_555 1_555
C54 C55 1_555 1_555
C55 C56 1_555 1_555
C56 C49 1_555 1_555
C57 C56 1_555 1_555
H57 C57 1_555 1_555
C58 C57 1_555 1_555
H58 C58 1_555 1_555
C59 C58 1_555 1_555
H59 C59 1_555 1_555
C60 C55 1_555 1_555
H60 C60 1_555 1_555
C61 O18 1_555 1_555
C62 C61 1_555 1_555
C63 C62 1_555 1_555
C64 C63 1_555 1_555
H61 C64 1_555 1_555
C65 C64 1_555 1_555
H62 C65 1_555 1_555
C66 C65 1_555 1_555
H63 C66 1_555 1_555
C67 C62 1_555 1_555
H64 C67 1_555 1_555
C68 O20 1_555 1_555
C69 C68 1_555 1_555
C70 C63 1_555 1_555
C71 C70 1_555 1_555
H65 C71 1_555 1_555
C72 C71 1_555 1_555
H66 C72 1_555 1_555
C73 C72 1_555 1_555
H67 C73 1_555 1_555
C74 C69 1_555 1_555
H68 C74 1_555 1_555
Cd3C O12 1_555 1_555
Cd4C N12 1_555 1_555
Cd4C_2 O16 1_555 1_555
N12C Cd4 1_555 1_555
O12C Cd3 1_555 1_555
O13C Cd3 1_555 1_555
O16C Cd4 1_555 1_555
O17C Cd4 1_555 1_555
N3 C4 1_555 1_555
N4 C5 1_555 1_555
N4 C6 1_555 1_555
N7 C12 1_555 1_555
N8 C10 1_555 1_555
N8 C11 1_555 1_555
N11 C17 1_555 1_555
N12 C16 1_555 1_555
N12 C18 1_555 1_555
O9 C26 1_555 1_555
O11 C33 1_555 1_555
O13 Cd3C 1_555 1_555
O15 C47 1_555 1_555
O17 Cd4C_2 1_555 1_555
O19 C61 1_555 1_555
O21 C68 1_555 1_555
C24 C25 1_555 1_555
C27 C28 1_555 1_555
C31 C32 1_555 1_555
C38 C39 1_555 1_555
C45 C46 1_555 1_555
C52 C53 1_555 1_555
C59 C60 1_555 1_555
C66 C67 1_555 1_555
C69 C70 1_555 1_555
C73 C74 1_555 1_555

#END
