
#######################################################################
#
#                 Cambridge Crystallographic Data Centre
#                                CCDC 
#
#######################################################################
#
# If this CIF has been generated from an entry in the Cambridge 
# Structural Database, then it will include bibliographic, chemical, 
# crystal, experimental, refinement or atomic coordinate data resulting 
# from the CCDC's data processing and validation procedures.
#
#######################################################################

data_QEJZUB01
_symmetry_cell_setting           orthorhombic
_symmetry_space_group_name_H-M   'P n n a'
_symmetry_Int_Tables_number      52
_space_group_name_Hall           '-P 2a 2bc'
loop_
_symmetry_equiv_pos_site_id
_symmetry_equiv_pos_as_xyz
1 x,y,z
2 1/2-x,-y,z
3 1/2-x,1/2+y,1/2-z
4 x,1/2-y,1/2-z
5 -x,-y,-z
6 1/2+x,y,-z
7 1/2+x,1/2-y,1/2+z
8 -x,1/2+y,1/2+z
_cell_length_a                   6.7716(4)
_cell_length_b                   6.8885(5)
_cell_length_c                   12.3605(8)
_cell_angle_alpha                90
_cell_angle_beta                 90
_cell_angle_gamma                90
_cell_volume                     576.57
loop_
_atom_site_label
_atom_site_type_symbol
_atom_site_fract_x
_atom_site_fract_y
_atom_site_fract_z
Cu1 Cu 0.0000 0.0000 0.5000
Cu2 Cu 0.2500 0.5000 0.54025(3)
Cl1 Cl 0.21284(8) 0.24531(8) 0.42441(5)
N1 N 0.1489(3) 0.0031(3) 0.63376(16)
N2 N 0.2500 0.0000 0.8038(2)
C1 C 0.0939(4) 0.0055(4) 0.73634(18)
H1 H -0.0397 0.0105 0.7597
Cu1E Cu 0.5000 0.0000 0.5000
Cu1E_2 Cu -0.5000 0.0000 0.5000
Cu2B Cu 0.2500 0.0000 0.95975(3)
Cu2E Cu -0.2500 0.5000 0.45975(3)
Cl1E Cl -0.28716(8) 0.24531(8) 0.57559(5)
Cl1D Cl -0.21284(8) -0.24531(8) 0.57559(5)
Cl1A Cl 0.28716(8) -0.24531(8) 0.42441(5)
Cl1A_2 Cl 0.28716(8) 0.75469(8) 0.42441(5)
N1A N 0.3511(3) -0.0031(3) 0.63376(16)
N1D N -0.1489(3) -0.0031(3) 0.36624(16)
N2B N 0.2500 0.5000 0.6962(2)
C1A C 0.4061(4) -0.0055(4) 0.73634(18)
H1A H 0.5397 -0.0105 0.7597
loop_
_geom_bond_atom_site_label_1
_geom_bond_atom_site_label_2
_geom_bond_site_symmetry_1
_geom_bond_site_symmetry_2
Cu1 Cl1 1_555 1_555
Cu2 Cl1 1_555 1_555
Cl1 Cu1E 1_555 1_555
N1 Cu1 1_555 1_555
N2 C1 1_555 1_555
C1 N1 1_555 1_555
H1 C1 1_555 1_555
Cu1E Cl1A 1_555 1_555
Cu1E_2 Cl1E 1_555 1_555
Cu2B N2 1_555 1_555
Cu2E Cl1E 1_555 1_555
Cl1E Cu1 1_555 1_555
Cl1D Cu1 1_555 1_555
Cl1A Cu1 1_555 1_555
Cl1A_2 Cu2 1_555 1_555
N1A N1 1_555 1_555
N1D Cu1 1_555 1_555
N2B Cu2 1_555 1_555
C1A N2 1_555 1_555
H1A C1A 1_555 1_555
Cu1E N1A 1_555 1_555
Cu1E_2 Cl1D 1_555 1_555
N1A C1A 1_555 1_555

#END
