
#######################################################################
#
#                 Cambridge Crystallographic Data Centre
#                                CCDC 
#
#######################################################################
#
# If this CIF has been generated from an entry in the Cambridge 
# Structural Database, then it will include bibliographic, chemical, 
# crystal, experimental, refinement or atomic coordinate data resulting 
# from the CCDC's data processing and validation procedures.
#
#######################################################################

data_QEKBIS
_symmetry_cell_setting           triclinic
_symmetry_space_group_name_H-M   'P -1'
_symmetry_Int_Tables_number      2
_space_group_name_Hall           '-P 1'
loop_
_symmetry_equiv_pos_site_id
_symmetry_equiv_pos_as_xyz
1 x,y,z
2 -x,-y,-z
_cell_length_a                   14.132(11)
_cell_length_b                   16.266(13)
_cell_length_c                   30.62(2)
_cell_angle_alpha                99.91(7)
_cell_angle_beta                 91.37(7)
_cell_angle_gamma                92.56(7)
_cell_volume                     6923.14
loop_
_atom_site_label
_atom_site_type_symbol
_atom_site_fract_x
_atom_site_fract_y
_atom_site_fract_z
Ag1 Ag 0.19068(3) 0.87891(3) 0.003527(15)
Ag2 Ag -0.09336(4) 1.13480(4) 0.494432(17)
O49 O 0.2097(2) 0.9132(2) -0.07393(10)
N1 N -0.1181(3) 0.8740(2) 0.13908(11)
H1 H -0.1675 0.9079 0.1362
H2 H -0.1283 0.8496 0.1636
N2 N 0.1716(3) 1.0832(2) 0.34098(11)
H3 H 0.1849 1.0303 0.3453
H4 H 0.2056 1.0944 0.3173
N3 N 0.5259(3) 0.7266(2) 0.05299(11)
H5 H 0.5659 0.6993 0.0692
H6 H 0.4673 0.7261 0.0654
N4 N -0.4659(3) 1.2743(3) 0.45919(15)
H7 H -0.4051 1.2939 0.4553
H8 H -0.5032 1.2826 0.4354
N5 N 0.0411(3) 0.8654(3) 0.01092(13)
N6 N 0.0483(3) 1.1126(3) 0.47545(15)
N7 N 0.3364(3) 0.9110(3) 0.02466(13)
N8 N -0.2351(3) 1.1462(3) 0.51476(14)
C1 C -0.0077(3) 0.9660(3) 0.19525(14)
C2 C 0.5083(3) 0.5878(3) 0.00493(15)
C3 C 0.0817(3) 0.9595(3) 0.21323(16)
H9 H 0.1268 0.9287 0.1955
C4 C 0.4920(5) 0.5490(3) 0.03968(17)
H10 H 0.4861 0.5815 0.0683
C5 C 0.1070(3) 0.9958(3) 0.25560(15)
H11 H 0.1692 0.9899 0.2668
C6 C 0.5163(5) 0.5359(3) -0.03466(17)
H12 H 0.5284 0.5603 -0.0602
C7 C 0.0436(3) 1.0415(3) 0.28281(14)
C8 C -0.4977(4) 1.4135(3) 0.49688(18)
C9 C -0.0465(3) 1.0469(3) 0.26478(16)
H13 H -0.0923 1.0768 0.2825
C10 C -0.5297(5) 1.4630(4) 0.53383(17)
H14 H -0.5513 1.4378 0.5578
C11 C -0.0713(3) 1.0099(3) 0.22193(15)
H15 H -0.1336 1.0149 0.2107
C12 C -0.4686(4) 1.4521(3) 0.46294(17)
H16 H -0.4469 1.4195 0.4367
C13 C -0.0279(3) 0.9268(3) 0.14651(14)
H17 H -0.0310 0.9720 0.1287
H18 H 0.0254 0.8921 0.1358
C14 C -0.1185(4) 0.8068(3) 0.09883(14)
H19 H -0.1834 0.7810 0.0931
H20 H -0.0762 0.7628 0.1047
C15 C 0.0075(4) 0.8374(3) 0.04705(15)
H21 H 0.0507 0.8150 0.0656
C16 C -0.0866(3) 0.8398(3) 0.05828(15)
C17 C -0.1495(4) 0.8699(3) 0.02995(17)
H22 H -0.2150 0.8716 0.0362
C18 C -0.1168(4) 0.8972(4) -0.00706(17)
H23 H -0.1593 0.9181 -0.0265
C19 C -0.0215(4) 0.8941(3) -0.01588(16)
H24 H 0.0006 0.9128 -0.0417
C20 C 0.0682(3) 1.0840(3) 0.32924(15)
H25 H 0.0314 1.0559 0.3501
H26 H 0.0494 1.1426 0.3329
C21 C 0.2048(3) 1.1441(3) 0.38129(14)
H27 H 0.1815 1.1998 0.3790
H28 H 0.2749 1.1488 0.3823
C22 C 0.0808(4) 1.1329(3) 0.43770(16)
H29 H 0.0390 1.1582 0.4198
C23 C 0.1713(4) 1.1192(3) 0.42345(15)
C24 C 0.2326(4) 1.0854(3) 0.45083(17)
H30 H 0.2959 1.0756 0.4424
C25 C 0.2016(4) 1.0660(4) 0.49038(19)
H31 H 0.2431 1.0436 0.5097
C26 C 0.1113(5) 1.0794(4) 0.50104(19)
H32 H 0.0901 1.0649 0.5281
C27 C 0.5175(3) 0.6807(3) 0.00684(14)
H33 H 0.5742 0.6946 -0.0093
H34 H 0.4614 0.6989 -0.0082
C28 C 0.5629(3) 0.8160(3) 0.05631(17)
H35 H 0.5926 0.8348 0.0862
H36 H 0.6129 0.8180 0.0344
C29 C 0.3993(3) 0.8544(3) 0.03080(15)
H37 H 0.3810 0.7968 0.0225
C30 C 0.4896(3) 0.8758(3) 0.04863(15)
C31 C 0.5155(4) 0.9610(3) 0.06086(18)
H38 H 0.5773 0.9785 0.0727
C32 C 0.4498(4) 1.0192(3) 0.0554(2)
H39 H 0.4655 1.0771 0.0642
C33 C 0.3616(4) 0.9928(3) 0.0370(2)
H40 H 0.3173 1.0332 0.0329
C34 C -0.5005(4) 1.3175(4) 0.49847(17)
H41 H -0.4614 1.3073 0.5241
H42 H -0.5665 1.2973 0.5022
C35 C -0.4667(4) 1.1794(3) 0.4616(2)
H43 H -0.5310 1.1598 0.4686
H44 H -0.4502 1.1475 0.4325
C36 C -0.3042(5) 1.1589(3) 0.48656(18)
H45 H -0.2877 1.1653 0.4574
C37 C -0.3957(5) 1.1632(3) 0.4972(2)
C38 C -0.4204(4) 1.1551(3) 0.5380(2)
H46 H -0.4849 1.1579 0.5459
C39 C -0.3519(4) 1.1424(3) 0.56882(19)
H47 H -0.3681 1.1369 0.5981
C40 C -0.2581(4) 1.1380(3) 0.55553(17)
H48 H -0.2099 1.1291 0.5761
Ag1A Ag 0.80932(3) 0.12109(3) -0.003527(15)
Ag2A Ag 1.09336(4) -0.13480(4) -0.494432(17)
Ag2A_2 Ag -0.90664(4) 1.86520(4) 0.505568(17)
O49A O 0.7903(2) 0.0868(2) 0.07393(10)
N1A N 1.1181(3) 0.1260(2) -0.13908(11)
H1A H 1.1675 0.0921 -0.1362
H2A H 1.1283 0.1504 -0.1636
N2A N 0.8284(3) -0.0832(2) -0.34098(11)
H3A H 0.8151 -0.0303 -0.3453
H4A H 0.7944 -0.0944 -0.3173
N3A N 0.4741(3) 0.2734(2) -0.05299(11)
H5A H 0.4341 0.3007 -0.0692
H6A H 0.5327 0.2739 -0.0654
N4A N -0.5341(3) 1.7257(3) 0.54081(15)
H7A H -0.5949 1.7061 0.5447
H8A H -0.4968 1.7174 0.5646
N5A N 0.9589(3) 0.1346(3) -0.01092(13)
N6A N 0.9517(3) -0.1126(3) -0.47545(15)
N7A N 0.6636(3) 0.0890(3) -0.02466(13)
N8A N -0.7649(3) 1.8538(3) 0.48524(14)
N8A_2 N 1.2351(3) -0.1462(3) -0.51476(14)
C1A C 1.0077(3) 0.0340(3) -0.19525(14)
C2A C 0.4917(3) 0.4122(3) -0.00493(15)
C3A C 0.9183(3) 0.0405(3) -0.21323(16)
H9A H 0.8732 0.0713 -0.1955
C4A C 0.5080(5) 0.4510(3) -0.03968(17)
H10A H 0.5139 0.4185 -0.0683
C5A C 0.8930(3) 0.0042(3) -0.25560(15)
H11A H 0.8308 0.0101 -0.2668
C6A C 0.4837(5) 0.4641(3) 0.03466(17)
H12A H 0.4716 0.4397 0.0602
C7A C 0.9564(3) -0.0415(3) -0.28281(14)
C8A C -0.5023(4) 1.5865(3) 0.50312(18)
C9A C 1.0465(3) -0.0469(3) -0.26478(16)
H13A H 1.0923 -0.0768 -0.2825
C10A C -0.4703(5) 1.5370(4) 0.46617(17)
H14A H -0.4487 1.5622 0.4422
C11A C 1.0713(3) -0.0099(3) -0.22193(15)
H15A H 1.1336 -0.0149 -0.2107
C12A C -0.5314(4) 1.5479(3) 0.53706(17)
H16A H -0.5531 1.5805 0.5633
C13A C 1.0279(3) 0.0732(3) -0.14651(14)
H17A H 1.0310 0.0280 -0.1287
H18A H 0.9746 0.1079 -0.1358
C14A C 1.1185(4) 0.1932(3) -0.09883(14)
H19A H 1.1834 0.2190 -0.0931
H20A H 1.0762 0.2372 -0.1047
C15A C 0.9925(4) 0.1626(3) -0.04705(15)
H21A H 0.9493 0.1850 -0.0656
C16A C 1.0866(3) 0.1602(3) -0.05828(15)
C17A C 1.1495(4) 0.1301(3) -0.02995(17)
H22A H 1.2150 0.1284 -0.0362
C18A C 1.1168(4) 0.1028(4) 0.00706(17)
H23A H 1.1593 0.0819 0.0265
C19A C 1.0215(4) 0.1059(3) 0.01588(16)
H24A H 0.9994 0.0872 0.0417
C20A C 0.9318(3) -0.0840(3) -0.32924(15)
H25A H 0.9686 -0.0559 -0.3501
H26A H 0.9506 -0.1426 -0.3329
C21A C 0.7952(3) -0.1441(3) -0.38129(14)
H27A H 0.8185 -0.1998 -0.3790
H28A H 0.7251 -0.1488 -0.3823
C22A C 0.9192(4) -0.1329(3) -0.43770(16)
H29A H 0.9610 -0.1582 -0.4198
C23A C 0.8287(4) -0.1192(3) -0.42345(15)
C24A C 0.7674(4) -0.0854(3) -0.45083(17)
H30A H 0.7041 -0.0756 -0.4424
C25A C 0.7984(4) -0.0660(4) -0.49038(19)
H31A H 0.7569 -0.0436 -0.5097
C26A C 0.8887(5) -0.0794(4) -0.50104(19)
H32A H 0.9099 -0.0649 -0.5281
C27A C 0.4825(3) 0.3193(3) -0.00684(14)
H33A H 0.4258 0.3054 0.0093
H34A H 0.5386 0.3011 0.0082
C28A C 0.4371(3) 0.1840(3) -0.05631(17)
H35A H 0.4074 0.1652 -0.0862
H36A H 0.3871 0.1820 -0.0344
C29A C 0.6007(3) 0.1456(3) -0.03080(15)
H37A H 0.6190 0.2032 -0.0225
C30A C 0.5104(3) 0.1242(3) -0.04863(15)
C31A C 0.4845(4) 0.0390(3) -0.06086(18)
H38A H 0.4227 0.0215 -0.0727
C32A C 0.5502(4) -0.0192(3) -0.0554(2)
H39A H 0.5345 -0.0771 -0.0642
C33A C 0.6384(4) 0.0072(3) -0.0370(2)
H40A H 0.6827 -0.0332 -0.0329
C34A C -0.4995(4) 1.6825(4) 0.50153(17)
H41A H -0.5386 1.6927 0.4759
H42A H -0.4335 1.7027 0.4978
C35A C -0.5333(4) 1.8206(3) 0.5384(2)
H43A H -0.4690 1.8402 0.5314
H44A H -0.5498 1.8525 0.5675
C36A C -0.6958(5) 1.8411(3) 0.51344(18)
H45A H -0.7123 1.8347 0.5426
C37A C -0.6043(5) 1.8368(3) 0.5028(2)
C38A C -0.5796(4) 1.8449(3) 0.4620(2)
H46A H -0.5151 1.8421 0.4541
C39A C -0.6481(4) 1.8576(3) 0.43118(19)
H47A H -0.6319 1.8631 0.4019
C40A C -0.7419(4) 1.8620(3) 0.44447(17)
H48A H -0.7901 1.8709 0.4239
Cl1 Cl 0.18850(9) 0.49169(8) 0.24933(4)
O1 O 0.2720(3) 0.4466(3) 0.25146(13)
O2 O 0.2032(3) 0.5732(2) 0.27242(17)
O3 O 0.1607(3) 0.4893(3) 0.20433(12)
O4 O 0.1186(3) 0.4525(3) 0.27053(16)
Cl2 Cl 0.84030(10) 0.52555(8) 0.25280(4)
O5 O 0.7552(4) 0.5668(4) 0.25526(17)
O6 O 0.8604(3) 0.5071(3) 0.29563(11)
O7 O 0.9100(4) 0.5798(3) 0.24056(15)
O8 O 0.8339(4) 0.4540(2) 0.22017(13)
Cl3 Cl 0.52609(9) 0.27766(9) 0.22384(5)
O9 O 0.6161(3) 0.3196(3) 0.23205(17)
O10 O 0.5014(2) 0.2366(2) 0.25984(11)
O11 O 0.5295(4) 0.2168(3) 0.18506(14)
O12 O 0.4590(3) 0.3368(3) 0.21753(16)
Cl4 Cl 0.00190(11) 0.33109(8) 0.08706(5)
O13 O 0.0153(7) 0.3762(3) 0.12890(15)
O14 O 0.0134(2) 0.3858(2) 0.05567(12)
O15 O -0.0871(3) 0.2911(4) 0.0821(2)
O16 O 0.0673(3) 0.2711(3) 0.08331(19)
Cl5 Cl 0.00394(11) 0.70568(9) 0.41955(5)
O17 O 0.0225(3) 0.7923(2) 0.42478(13)
O18 O 0.0864(4) 0.6665(3) 0.40081(17)
O19 O -0.0106(3) 0.6794(3) 0.46042(14)
O20 O -0.0713(3) 0.6807(3) 0.38879(16)
Cl6 Cl 0.51513(13) 0.73066(15) 0.27916(7)
O21 O 0.5422(4) 0.7707(4) 0.24500(19)
O22 O 0.5898(3) 0.7263(4) 0.30801(15)
O23 O 0.4838(8) 0.6471(7) 0.2590(3)
O24 O 0.4388(4) 0.7576(4) 0.3003(2)
O25 O 0.1593(2) 0.96041(19) 0.10464(10)
O26 O 0.3248(2) 1.11581(18) 0.28691(10)
O27 O 0.1324(2) 0.77753(18) 0.13756(10)
O28 O 0.2969(2) 0.94233(18) 0.32085(10)
O29 O -0.0923(2) 0.75665(18) 0.19071(10)
O30 O 0.0878(2) 0.91903(19) 0.36734(10)
O31 O -0.2797(2) 0.91119(18) 0.20862(10)
O32 O -0.1139(2) 1.05964(19) 0.39505(10)
O33 O -0.2618(2) 1.09497(19) 0.17727(10)
O34 O -0.0752(2) 1.23306(18) 0.36052(10)
O35 O -0.0445(2) 1.11512(18) 0.12673(10)
O36 O 0.1503(2) 1.25955(19) 0.30653(10)
N9 N 0.2232(3) 1.0820(2) 0.14617(12)
N10 N 0.2964(3) 1.1465(2) 0.21707(12)
N11 N 0.2927(3) 0.9636(2) 0.15008(12)
N12 N 0.3632(2) 1.0280(2) 0.22243(12)
N13 N 0.2719(3) 0.8300(2) 0.17473(12)
N14 N 0.3353(3) 0.8967(2) 0.24819(12)
N15 N 0.1721(3) 0.7520(2) 0.20730(12)
N16 N 0.2383(3) 0.8168(2) 0.28033(12)
N17 N 0.0221(3) 0.7413(2) 0.24351(11)
N18 N 0.0910(3) 0.7967(2) 0.31665(12)
N19 N -0.1201(3) 0.7797(2) 0.26539(12)
N20 N -0.0487(3) 0.8456(2) 0.33638(12)
N21 N -0.2437(3) 0.8800(2) 0.27793(12)
N22 N -0.1779(3) 0.9386(2) 0.35183(12)
N23 N -0.3149(3) 0.9971(2) 0.27403(12)
N24 N -0.2421(3) 1.0582(2) 0.34656(12)
N25 N -0.2877(3) 1.1317(2) 0.25206(12)
N26 N -0.2211(3) 1.1943(2) 0.32571(11)
N27 N -0.1926(3) 1.2142(2) 0.21992(11)
N28 N -0.1183(3) 1.2681(2) 0.29293(12)
N29 N -0.0440(2) 1.2290(2) 0.18350(11)
N30 N 0.0308(3) 1.2762(2) 0.25641(12)
N31 N 0.0933(3) 1.1760(2) 0.16228(11)
N32 N 0.1722(3) 1.2447(2) 0.23153(12)
C41 C 0.2184(3) 0.9976(3) 0.13077(15)
C42 C 0.3275(3) 1.0988(3) 0.24545(16)
C43 C 0.3099(3) 1.1108(3) 0.17151(14)
H49 H 0.3508 1.1482 0.1563
C44 C 0.3579(3) 1.0270(3) 0.17533(14)
H50 H 0.4223 1.0254 0.1624
C45 C 0.3075(3) 0.8745(3) 0.14126(15)
H51 H 0.2763 0.8500 0.1124
H52 H 0.3763 0.8664 0.1387
C46 C 0.4028(3) 0.9641(3) 0.24393(15)
H53 H 0.4567 0.9407 0.2267
H54 H 0.4277 0.9901 0.2738
C47 C 0.1862(4) 0.7858(3) 0.16986(16)
C48 C 0.2914(3) 0.8902(3) 0.28654(16)
C49 C 0.3217(3) 0.8207(3) 0.21515(15)
H55 H 0.3831 0.7935 0.2087
C50 C 0.2544(3) 0.7662(3) 0.23813(14)
H56 H 0.2830 0.7125 0.2417
C51 C 0.0889(3) 0.7004(3) 0.21305(15)
H57 H 0.0563 0.6819 0.1838
H58 H 0.1093 0.6498 0.2239
C52 C 0.1908(3) 0.7871(3) 0.31676(15)
H59 H 0.2027 0.7272 0.3154
H60 H 0.2191 0.8179 0.3451
C53 C -0.0659(3) 0.7601(3) 0.22957(15)
C54 C 0.0466(4) 0.8602(3) 0.34339(14)
C55 C 0.0246(3) 0.7377(3) 0.29047(14)
H61 H 0.0334 0.6796 0.2959
C56 C -0.0730(3) 0.7692(3) 0.30620(14)
H62 H -0.1086 0.7278 0.3211
C57 C -0.2201(3) 0.7936(3) 0.26230(15)
H63 H -0.2548 0.7570 0.2799
H64 H -0.2424 0.7771 0.2310
C58 C -0.1154(3) 0.8824(3) 0.36852(14)
H65 H -0.1542 0.8370 0.3782
H66 H -0.0795 0.9133 0.3949
C59 C -0.2788(3) 0.9281(3) 0.24972(16)
C60 C -0.1721(3) 1.0212(3) 0.36745(16)
C61 C -0.2608(3) 0.9124(3) 0.32408(15)
H67 H -0.3038 0.8735 0.3373
C62 C -0.3083(3) 0.9965(3) 0.32113(15)
H68 H -0.3723 0.9981 0.3344
C63 C -0.3546(3) 1.0636(3) 0.25501(15)
H69 H -0.3807 1.0404 0.2249
H70 H -0.4079 1.0856 0.2732
C64 C -0.2580(3) 1.1471(3) 0.35767(14)
H71 H -0.3269 1.1547 0.3599
H72 H -0.2278 1.1695 0.3871
C65 C -0.2484(3) 1.1416(3) 0.21257(16)
C66 C -0.1327(4) 1.2312(3) 0.32926(16)
C67 C -0.2715(3) 1.2062(3) 0.28583(15)
H73 H -0.3318 1.2348 0.2930
C68 C -0.2020(3) 1.2609(3) 0.26384(14)
H74 H -0.2275 1.3169 0.2628
C69 C -0.1455(3) 1.2433(3) 0.18411(15)
H75 H -0.1542 1.3040 0.1864
H76 H -0.1757 1.2148 0.1557
C70 C -0.0330(3) 1.3180(3) 0.28819(14)
H77 H -0.0509 1.3707 0.2788
H78 H 0.0006 1.3327 0.3174
C71 C -0.0025(3) 1.1675(3) 0.15469(16)
C72 C 0.1210(3) 1.2602(3) 0.26915(16)
C73 C 0.0253(3) 1.2860(3) 0.21019(14)
H79 H 0.0172 1.3454 0.2068
C74 C 0.1198(3) 1.2538(3) 0.19221(14)
H80 H 0.1529 1.2948 0.1762
C75 C 0.1577(3) 1.1375(3) 0.12985(14)
H81 H 0.1950 1.1821 0.1187
H82 H 0.1200 1.1052 0.1044
C76 C 0.2721(3) 1.2319(3) 0.23257(15)
H83 H 0.2972 1.2493 0.2634
H84 H 0.3040 1.2684 0.2141
O37 O 0.6466(2) 0.70892(19) 0.58398(11)
O38 O 0.6880(3) 0.3362(2) 0.56163(12)
O39 O 0.7085(2) 0.7133(2) 0.46457(10)
O40 O 0.7265(2) 0.3292(2) 0.44026(11)
O41 O 0.5285(2) 0.6782(2) 0.39581(11)
O42 O 0.5591(2) 0.3040(2) 0.36571(10)
N33 N 0.6713(3) 0.6037(2) 0.62449(14)
N34 N 0.6905(3) 0.4524(2) 0.61634(14)
N35 N 0.7580(3) 0.6100(2) 0.56591(14)
N36 N 0.7710(3) 0.4582(2) 0.55558(14)
N37 N 0.7848(3) 0.6050(2) 0.48678(14)
N38 N 0.7964(3) 0.4538(2) 0.47727(14)
N39 N 0.7485(3) 0.5966(2) 0.41551(14)
N40 N 0.7542(3) 0.4442(2) 0.40691(14)
N41 N 0.6205(3) 0.5745(2) 0.36127(13)
N42 N 0.6336(3) 0.4225(2) 0.34790(12)
N43 N 0.4652(3) 0.5575(3) 0.35185(13)
N44 N 0.4777(3) 0.4068(2) 0.33899(13)
C77 C 0.6859(4) 0.6472(3) 0.59067(17)
C78 C 0.7137(4) 0.4088(4) 0.57608(19)
C79 C 0.7354(4) 0.5358(3) 0.62509(17)
H85 H 0.7765 0.5450 0.6527
C80 C 0.7947(3) 0.5379(3) 0.58301(17)
H86 H 0.8641 0.5457 0.5905
C81 C 0.8052(4) 0.6467(3) 0.53196(18)
H87 H 0.8745 0.6474 0.5378
H88 H 0.7873 0.7054 0.5346
C82 C 0.8248(4) 0.4255(3) 0.51795(17)
H89 H 0.8183 0.3637 0.5130
H90 H 0.8926 0.4419 0.5247
C83 C 0.7435(3) 0.6455(3) 0.45661(18)
C84 C 0.7562(4) 0.4023(4) 0.4418(2)
C85 C 0.8333(4) 0.5318(3) 0.46621(18)
H91 H 0.9035 0.5393 0.4717
C86 C 0.8062(3) 0.5257(3) 0.41703(17)
H92 H 0.8634 0.5276 0.3986
C87 C 0.7109(4) 0.6161(3) 0.37453(15)
H93 H 0.7045 0.6772 0.3779
H94 H 0.7563 0.5999 0.3508
C88 C 0.7260(4) 0.4053(3) 0.36233(17)
H95 H 0.7723 0.4237 0.3418
H96 H 0.7294 0.3441 0.3600
C89 C 0.5363(4) 0.6103(3) 0.37147(16)
C90 C 0.5559(4) 0.3707(3) 0.35203(16)
C91 C 0.6075(4) 0.4968(3) 0.33074(16)
H97 H 0.6386 0.5001 0.3021
C92 C 0.4989(4) 0.4848(3) 0.32412(17)
H98 H 0.4787 0.4821 0.2924
C93 C 0.6330(4) 0.4174(3) 0.64776(17)
H99 H 0.6331 0.3557 0.6406
H100 H 0.6621 0.4350 0.6778
C94 C 0.6162(4) 0.6332(3) 0.66171(16)
H101 H 0.6509 0.6249 0.6890
H102 H 0.6097 0.6940 0.6635
O37A O 0.3534(2) 0.29108(19) 0.41602(11)
O38A O 0.3120(3) 0.6638(2) 0.43837(12)
O39A O 0.2915(2) 0.2867(2) 0.53543(10)
O40A O 0.2735(2) 0.6708(2) 0.55974(11)
O41A O 0.4715(2) 0.3218(2) 0.60419(11)
O42A O 0.4409(2) 0.6960(2) 0.63429(10)
N33A N 0.3287(3) 0.3963(2) 0.37551(14)
N34A N 0.3095(3) 0.5476(2) 0.38366(14)
N35A N 0.2420(3) 0.3900(2) 0.43409(14)
N36A N 0.2290(3) 0.5418(2) 0.44442(14)
N37A N 0.2152(3) 0.3950(2) 0.51322(14)
N38A N 0.2036(3) 0.5462(2) 0.52273(14)
N39A N 0.2515(3) 0.4034(2) 0.58449(14)
N40A N 0.2458(3) 0.5558(2) 0.59309(14)
N41A N 0.3795(3) 0.4255(2) 0.63873(13)
N42A N 0.3664(3) 0.5775(2) 0.65210(12)
N43A N 0.5348(3) 0.4425(3) 0.64815(13)
N44A N 0.5223(3) 0.5932(2) 0.66101(13)
C77A C 0.3141(4) 0.3528(3) 0.40933(17)
C78A C 0.2863(4) 0.5912(4) 0.42392(19)
C79A C 0.2646(4) 0.4642(3) 0.37491(17)
H85A H 0.2235 0.4550 0.3473
C80A C 0.2053(3) 0.4621(3) 0.41699(17)
H86A H 0.1359 0.4543 0.4095
C81A C 0.1948(4) 0.3533(3) 0.46804(18)
H87A H 0.1255 0.3526 0.4622
H88A H 0.2127 0.2946 0.4654
C82A C 0.1752(4) 0.5745(3) 0.48205(17)
H89A H 0.1817 0.6363 0.4870
H90A H 0.1074 0.5581 0.4753
C83A C 0.2565(3) 0.3545(3) 0.54339(18)
C84A C 0.2438(4) 0.5977(4) 0.5582(2)
C85A C 0.1667(4) 0.4682(3) 0.53379(18)
H91A H 0.0965 0.4607 0.5283
C86A C 0.1938(3) 0.4743(3) 0.58297(17)
H92A H 0.1366 0.4724 0.6014
C87A C 0.2891(4) 0.3839(3) 0.62547(15)
H93A H 0.2955 0.3228 0.6221
H94A H 0.2437 0.4001 0.6492
C88A C 0.2740(4) 0.5947(3) 0.63767(17)
H95A H 0.2277 0.5763 0.6582
H96A H 0.2706 0.6559 0.6400
C89A C 0.4637(4) 0.3897(3) 0.62853(16)
C90A C 0.4441(4) 0.6293(3) 0.64797(16)
C91A C 0.3925(4) 0.5032(3) 0.66926(16)
H97A H 0.3614 0.4999 0.6979
C92A C 0.5011(4) 0.5152(3) 0.67588(17)
H98A H 0.5213 0.5179 0.7076
C93A C 0.3670(4) 0.5826(3) 0.35224(17)
H99A H 0.3669 0.6443 0.3594
H100A H 0.3379 0.5650 0.3222
C94A C 0.3838(4) 0.3668(3) 0.33829(16)
H101A H 0.3491 0.3751 0.3110
H102A H 0.3903 0.3060 0.3365
O43 O 0.5049(2) 0.69060(18) 0.13963(10)
O44 O 0.4749(2) 0.31137(19) 0.10162(10)
O45 O 0.3257(2) 0.69511(19) 0.07283(10)
O46 O 0.2760(2) 0.31601(19) 0.03559(10)
O47 O 0.3246(2) 0.70204(19) -0.05075(10)
O48 O 0.3011(2) 0.32239(18) -0.08122(10)
N45 N 0.5709(3) 0.5742(2) 0.16091(12)
N46 N 0.5580(3) 0.4223(2) 0.14510(12)
N47 N 0.4156(3) 0.5787(2) 0.15575(12)
N48 N 0.4022(3) 0.4265(2) 0.13934(12)
N49 N 0.2802(3) 0.5843(2) 0.10624(12)
N50 N 0.2644(3) 0.4309(2) 0.09111(12)
N51 N 0.2246(3) 0.5872(2) 0.03804(12)
N52 N 0.2061(3) 0.4352(2) 0.02342(12)
N53 N 0.2302(3) 0.5877(2) -0.04062(12)
N54 N 0.2104(2) 0.4345(2) -0.05550(12)
N55 N 0.2928(3) 0.5862(2) -0.10659(12)
N56 N 0.2872(3) 0.4336(2) -0.11792(12)
C95 C 0.4983(4) 0.6213(3) 0.15113(14)
C96 C 0.4785(4) 0.3791(3) 0.12613(15)
C97 C 0.5395(3) 0.4986(3) 0.17558(15)
H103 H 0.5620 0.4969 0.2066
C98 C 0.4295(3) 0.5000(3) 0.17115(14)
H104 H 0.3993 0.4989 0.2003
C99 C 0.3256(3) 0.6127(3) 0.14929(15)
H105 H 0.3343 0.6744 0.1539
H106 H 0.2826 0.5984 0.1722
C100 C 0.3046(3) 0.3974(3) 0.12766(15)
H107 H 0.3017 0.3356 0.1199
H108 H 0.2654 0.4128 0.1539
C101 C 0.2809(3) 0.6291(3) 0.07230(15)
C102 C 0.2516(3) 0.3868(3) 0.04887(16)
C103 C 0.2167(3) 0.5100(3) 0.09636(15)
H109 H 0.1648 0.5114 0.1181
C104 C 0.1777(3) 0.5130(3) 0.04910(14)
H110 H 0.1073 0.5167 0.0484
C105 C 0.1933(3) 0.6255(3) 0.00125(14)
H111 H 0.1232 0.6212 -0.0010
H112 H 0.2133 0.6856 0.0073
C106 C 0.1660(3) 0.4015(3) -0.01968(15)
H113 H 0.0978 0.4130 -0.0201
H114 H 0.1709 0.3401 -0.0249
C107 C 0.2866(3) 0.6328(3) -0.06442(16)
C108 C 0.2705(3) 0.3903(3) -0.08419(15)
C109 C 0.1868(3) 0.5125(3) -0.06794(15)
H115 H 0.1166 0.5163 -0.0710
C110 C 0.2348(3) 0.5106(3) -0.11363(15)
H116 H 0.1871 0.5087 -0.1385
C111 C 0.6508(3) 0.3867(3) 0.14138(16)
H117 H 0.6861 0.4027 0.1701
H118 H 0.6423 0.3250 0.1352
C112 C 0.6678(3) 0.6020(3) 0.15856(15)
H119 H 0.6713 0.6636 0.1614
H120 H 0.7040 0.5877 0.1841
O43A O 0.4951(2) 0.30940(18) -0.13963(10)
O44A O 0.5251(2) 0.68863(19) -0.10162(10)
O45A O 0.6743(2) 0.30489(19) -0.07283(10)
O46A O 0.7240(2) 0.68399(19) -0.03559(10)
O47A O 0.6754(2) 0.29796(19) 0.05075(10)
O48A O 0.6989(2) 0.67761(18) 0.08122(10)
N45A N 0.4291(3) 0.4258(2) -0.16091(12)
N46A N 0.4420(3) 0.5777(2) -0.14510(12)
N47A N 0.5844(3) 0.4213(2) -0.15575(12)
N48A N 0.5978(3) 0.5735(2) -0.13934(12)
N49A N 0.7198(3) 0.4157(2) -0.10624(12)
N50A N 0.7356(3) 0.5691(2) -0.09111(12)
N51A N 0.7754(3) 0.4128(2) -0.03804(12)
N52A N 0.7939(3) 0.5648(2) -0.02342(12)
N53A N 0.7698(3) 0.4123(2) 0.04062(12)
N54A N 0.7896(2) 0.5655(2) 0.05550(12)
N55A N 0.7072(3) 0.4138(2) 0.10659(12)
N56A N 0.7128(3) 0.5664(2) 0.11792(12)
C95A C 0.5017(4) 0.3787(3) -0.15113(14)
C96A C 0.5215(4) 0.6209(3) -0.12613(15)
C97A C 0.4605(3) 0.5014(3) -0.17558(15)
H103A H 0.4380 0.5031 -0.2066
C98A C 0.5705(3) 0.5000(3) -0.17115(14)
H104A H 0.6007 0.5011 -0.2003
C99A C 0.6744(3) 0.3873(3) -0.14929(15)
H105A H 0.6657 0.3256 -0.1539
H106A H 0.7174 0.4016 -0.1722
C100A C 0.6954(3) 0.6026(3) -0.12766(15)
H107A H 0.6983 0.6644 -0.1199
H108A H 0.7346 0.5872 -0.1539
C101A C 0.7191(3) 0.3709(3) -0.07230(15)
C102A C 0.7484(3) 0.6132(3) -0.04887(16)
C103A C 0.7833(3) 0.4900(3) -0.09636(15)
H109A H 0.8352 0.4886 -0.1181
C104A C 0.8223(3) 0.4870(3) -0.04910(14)
H110A H 0.8927 0.4833 -0.0484
C105A C 0.8067(3) 0.3745(3) -0.00125(14)
H111A H 0.8768 0.3788 0.0010
H112A H 0.7867 0.3144 -0.0073
C106A C 0.8340(3) 0.5985(3) 0.01968(15)
H113A H 0.9022 0.5870 0.0201
H114A H 0.8291 0.6599 0.0249
C107A C 0.7134(3) 0.3672(3) 0.06442(16)
C108A C 0.7295(3) 0.6097(3) 0.08419(15)
C109A C 0.8132(3) 0.4875(3) 0.06794(15)
H115A H 0.8834 0.4837 0.0710
C110A C 0.7652(3) 0.4894(3) 0.11363(15)
H116A H 0.8129 0.4913 0.1385
C111A C 0.3492(3) 0.6133(3) -0.14138(16)
H117A H 0.3139 0.5973 -0.1701
H118A H 0.3577 0.6750 -0.1352
C112A C 0.3322(3) 0.3980(3) -0.15856(15)
H119A H 0.3287 0.3364 -0.1614
H120A H 0.2960 0.4123 -0.1841
O50 O 0.7279(2) 0.95540(19) 0.11447(10)
O51 O 0.6242(3) 0.1632(2) 0.09557(12)
O52 O 0.5438(2) 0.86431(19) 0.16449(10)
O53 O 0.6136(3) 0.9921(2) 0.41925(14)
O54 O 0.6526(3) 0.8241(2) 0.41028(12)
O55 O 0.0264(2) 0.6381(2) 0.08700(11)
O56 O 0.9775(3) 0.5418(2) 0.15075(11)
O57 O 0.0270(3) 0.4997(2) 0.35845(12)
O58 O 0.3397(3) 0.1829(2) 0.06879(12)
O59 O 0.4898(2) 0.14332(18) 0.33965(10)
O60 O 0.4289(3) 0.0262(2) 0.38831(12)
O61 O 0.9732(3) 0.3917(2) 0.41861(13)
loop_
_geom_bond_atom_site_label_1
_geom_bond_atom_site_label_2
_geom_bond_site_symmetry_1
_geom_bond_site_symmetry_2
Ag1 O49 1_555 1_555
Ag2 N6 1_555 1_555
Cl1 O1 1_555 1_555
Cl2 O5 1_555 1_555
Cl3 O9 1_555 1_555
Cl4 O13 1_555 1_555
Cl5 O17 1_555 1_555
Cl6 O21 1_555 1_555
O2 Cl1 1_555 1_555
O3 Cl1 1_555 1_555
O4 Cl1 1_555 1_555
O6 Cl2 1_555 1_555
O7 Cl2 1_555 1_555
O8 Cl2 1_555 1_555
O10 Cl3 1_555 1_555
O11 Cl3 1_555 1_555
O12 Cl3 1_555 1_555
O14 Cl4 1_555 1_555
O15 Cl4 1_555 1_555
O16 Cl4 1_555 1_555
O18 Cl5 1_555 1_555
O19 Cl5 1_555 1_555
O20 Cl5 1_555 1_555
O22 Cl6 1_555 1_555
O23 Cl6 1_555 1_555
O24 Cl6 1_555 1_555
O25 C41 1_555 1_555
O26 C42 1_555 1_555
O27 C47 1_555 1_555
O28 C48 1_555 1_555
O29 C53 1_555 1_555
O30 C54 1_555 1_555
O31 C59 1_555 1_555
O32 C60 1_555 1_555
O33 C65 1_555 1_555
O34 C66 1_555 1_555
O35 C71 1_555 1_555
O36 C72 1_555 1_555
O37 C77 1_555 1_555
O38 C78 1_555 1_555
O39 C83 1_555 1_555
O40 C84 1_555 1_555
O41 C89 1_555 1_555
O42 C90 1_555 1_555
O43 C95 1_555 1_555
O44 C96 1_555 1_555
O45 C101 1_555 1_555
O46 C102 1_555 1_555
O47 C107 1_555 1_555
O48 C108 1_555 1_555
N1 H1 1_555 1_555
H2 N1 1_555 1_555
N2 H3 1_555 1_555
H4 N2 1_555 1_555
N3 H5 1_555 1_555
H6 N3 1_555 1_555
N4 H7 1_555 1_555
H8 N4 1_555 1_555
N5 Ag1 1_555 1_555
N6 C22 1_555 1_555
N7 Ag1 1_555 1_555
N8 Ag2 1_555 1_555
N9 C41 1_555 1_555
N10 C42 1_555 1_555
N11 C41 1_555 1_555
N12 C42 1_555 1_555
N13 C45 1_555 1_555
N14 C46 1_555 1_555
N15 C47 1_555 1_555
N16 C48 1_555 1_555
N17 C51 1_555 1_555
N18 C52 1_555 1_555
N19 C53 1_555 1_555
N20 C54 1_555 1_555
N21 C57 1_555 1_555
N22 C58 1_555 1_555
N23 C59 1_555 1_555
N24 C60 1_555 1_555
N25 C63 1_555 1_555
N26 C64 1_555 1_555
N27 C65 1_555 1_555
N28 C66 1_555 1_555
N29 C69 1_555 1_555
N30 C70 1_555 1_555
N31 C71 1_555 1_555
N32 C72 1_555 1_555
N33 C77 1_555 1_555
N34 C78 1_555 1_555
N35 C77 1_555 1_555
N36 C78 1_555 1_555
N37 C81 1_555 1_555
N38 C82 1_555 1_555
N39 C83 1_555 1_555
N40 C84 1_555 1_555
N41 C87 1_555 1_555
N42 C88 1_555 1_555
N43 C89 1_555 1_555
N44 C90 1_555 1_555
N45 C95 1_555 1_555
N46 C96 1_555 1_555
N47 C95 1_555 1_555
N48 C96 1_555 1_555
N49 C99 1_555 1_555
N50 C100 1_555 1_555
N51 C101 1_555 1_555
N52 C102 1_555 1_555
N53 C105 1_555 1_555
N54 C106 1_555 1_555
N55 C107 1_555 1_555
N56 C108 1_555 1_555
C1 C3 1_555 1_555
C2 C4 1_555 1_555
C3 H9 1_555 1_555
C4 H10 1_555 1_555
C5 C3 1_555 1_555
H11 C5 1_555 1_555
C6 C2 1_555 1_555
H12 C6 1_555 1_555
C7 C5 1_555 1_555
C8 C10 1_555 1_555
C9 C7 1_555 1_555
H13 C9 1_555 1_555
C10 H14 1_555 1_555
C11 C1 1_555 1_555
H15 C11 1_555 1_555
C12 C8 1_555 1_555
H16 C12 1_555 1_555
C13 N1 1_555 1_555
H17 C13 1_555 1_555
H18 C13 1_555 1_555
C14 N1 1_555 1_555
H19 C14 1_555 1_555
H20 C14 1_555 1_555
C15 N5 1_555 1_555
H21 C15 1_555 1_555
C16 C14 1_555 1_555
C17 C16 1_555 1_555
H22 C17 1_555 1_555
C18 C17 1_555 1_555
H23 C18 1_555 1_555
C19 N5 1_555 1_555
H24 C19 1_555 1_555
C20 N2 1_555 1_555
H25 C20 1_555 1_555
H26 C20 1_555 1_555
C21 N2 1_555 1_555
H27 C21 1_555 1_555
H28 C21 1_555 1_555
C22 H29 1_555 1_555
C23 C21 1_555 1_555
C24 C23 1_555 1_555
H30 C24 1_555 1_555
C25 C24 1_555 1_555
H31 C25 1_555 1_555
C26 N6 1_555 1_555
H32 C26 1_555 1_555
C27 N3 1_555 1_555
H33 C27 1_555 1_555
H34 C27 1_555 1_555
C28 N3 1_555 1_555
H35 C28 1_555 1_555
H36 C28 1_555 1_555
C29 N7 1_555 1_555
H37 C29 1_555 1_555
C30 C28 1_555 1_555
C31 C30 1_555 1_555
H38 C31 1_555 1_555
C32 C31 1_555 1_555
H39 C32 1_555 1_555
C33 N7 1_555 1_555
H40 C33 1_555 1_555
C34 N4 1_555 1_555
H41 C34 1_555 1_555
H42 C34 1_555 1_555
C35 N4 1_555 1_555
H43 C35 1_555 1_555
H44 C35 1_555 1_555
C36 N8 1_555 1_555
H45 C36 1_555 1_555
C37 C35 1_555 1_555
C38 C37 1_555 1_555
H46 C38 1_555 1_555
C39 C38 1_555 1_555
H47 C39 1_555 1_555
C40 N8 1_555 1_555
H48 C40 1_555 1_555
C43 N9 1_555 1_555
H49 C43 1_555 1_555
C44 N11 1_555 1_555
H50 C44 1_555 1_555
C45 N11 1_555 1_555
H51 C45 1_555 1_555
H52 C45 1_555 1_555
C46 N12 1_555 1_555
H53 C46 1_555 1_555
H54 C46 1_555 1_555
C47 N13 1_555 1_555
C48 N14 1_555 1_555
C49 N13 1_555 1_555
H55 C49 1_555 1_555
C50 N15 1_555 1_555
H56 C50 1_555 1_555
C51 N15 1_555 1_555
H57 C51 1_555 1_555
H58 C51 1_555 1_555
C52 N16 1_555 1_555
H59 C52 1_555 1_555
H60 C52 1_555 1_555
C53 N17 1_555 1_555
C54 N18 1_555 1_555
C55 N17 1_555 1_555
H61 C55 1_555 1_555
C56 N19 1_555 1_555
H62 C56 1_555 1_555
C57 N19 1_555 1_555
H63 C57 1_555 1_555
H64 C57 1_555 1_555
C58 N20 1_555 1_555
H65 C58 1_555 1_555
H66 C58 1_555 1_555
C59 N21 1_555 1_555
C60 N22 1_555 1_555
C61 N21 1_555 1_555
H67 C61 1_555 1_555
C62 N23 1_555 1_555
H68 C62 1_555 1_555
C63 N23 1_555 1_555
H69 C63 1_555 1_555
H70 C63 1_555 1_555
C64 N24 1_555 1_555
H71 C64 1_555 1_555
H72 C64 1_555 1_555
C65 N25 1_555 1_555
C66 N26 1_555 1_555
C67 N25 1_555 1_555
H73 C67 1_555 1_555
C68 N27 1_555 1_555
H74 C68 1_555 1_555
C69 N27 1_555 1_555
H75 C69 1_555 1_555
H76 C69 1_555 1_555
C70 N28 1_555 1_555
H77 C70 1_555 1_555
H78 C70 1_555 1_555
C71 N29 1_555 1_555
C72 N30 1_555 1_555
C73 N29 1_555 1_555
H79 C73 1_555 1_555
C74 N31 1_555 1_555
H80 C74 1_555 1_555
C75 N9 1_555 1_555
H81 C75 1_555 1_555
H82 C75 1_555 1_555
C76 N10 1_555 1_555
H83 C76 1_555 1_555
H84 C76 1_555 1_555
C79 N33 1_555 1_555
H85 C79 1_555 1_555
C80 N35 1_555 1_555
H86 C80 1_555 1_555
C81 N35 1_555 1_555
H87 C81 1_555 1_555
H88 C81 1_555 1_555
C82 N36 1_555 1_555
H89 C82 1_555 1_555
H90 C82 1_555 1_555
C83 N37 1_555 1_555
C84 N38 1_555 1_555
C85 N37 1_555 1_555
H91 C85 1_555 1_555
C86 N39 1_555 1_555
H92 C86 1_555 1_555
C87 N39 1_555 1_555
H93 C87 1_555 1_555
H94 C87 1_555 1_555
C88 N40 1_555 1_555
H95 C88 1_555 1_555
H96 C88 1_555 1_555
C89 N41 1_555 1_555
C90 N42 1_555 1_555
C91 N41 1_555 1_555
H97 C91 1_555 1_555
C92 N43 1_555 1_555
H98 C92 1_555 1_555
C93 N34 1_555 1_555
H99 C93 1_555 1_555
H100 C93 1_555 1_555
C94 N33 1_555 1_555
H101 C94 1_555 1_555
H102 C94 1_555 1_555
C97 N45 1_555 1_555
H103 C97 1_555 1_555
C98 N47 1_555 1_555
H104 C98 1_555 1_555
C99 N47 1_555 1_555
H105 C99 1_555 1_555
H106 C99 1_555 1_555
C100 N48 1_555 1_555
H107 C100 1_555 1_555
H108 C100 1_555 1_555
C101 N49 1_555 1_555
C102 N50 1_555 1_555
C103 N49 1_555 1_555
H109 C103 1_555 1_555
C104 N51 1_555 1_555
H110 C104 1_555 1_555
C105 N51 1_555 1_555
H111 C105 1_555 1_555
H112 C105 1_555 1_555
C106 N52 1_555 1_555
H113 C106 1_555 1_555
H114 C106 1_555 1_555
C107 N53 1_555 1_555
C108 N54 1_555 1_555
C109 N53 1_555 1_555
H115 C109 1_555 1_555
C110 N55 1_555 1_555
H116 C110 1_555 1_555
C111 N46 1_555 1_555
H117 C111 1_555 1_555
H118 C111 1_555 1_555
C112 N45 1_555 1_555
H119 C112 1_555 1_555
H120 C112 1_555 1_555
Ag1A O49A 1_555 1_555
Ag2A N6A 1_555 1_555
Ag2A_2 N8A 1_555 1_555
O37A C77A 1_555 1_555
O38A C78A 1_555 1_555
O39A C83A 1_555 1_555
O40A C84A 1_555 1_555
O41A C89A 1_555 1_555
O42A C90A 1_555 1_555
O43A C95A 1_555 1_555
O44A C96A 1_555 1_555
O45A C101A 1_555 1_555
O46A C102A 1_555 1_555
O47A C107A 1_555 1_555
O48A C108A 1_555 1_555
N1A H1A 1_555 1_555
H2A N1A 1_555 1_555
N2A H3A 1_555 1_555
H4A N2A 1_555 1_555
N3A H5A 1_555 1_555
H6A N3A 1_555 1_555
N4A H7A 1_555 1_555
H8A N4A 1_555 1_555
N5A Ag1A 1_555 1_555
N6A C22A 1_555 1_555
N7A Ag1A 1_555 1_555
N8A C36A 1_555 1_555
N8A_2 Ag2A 1_555 1_555
N33A C77A 1_555 1_555
N34A C78A 1_555 1_555
N35A C77A 1_555 1_555
N36A C78A 1_555 1_555
N37A C81A 1_555 1_555
N38A C82A 1_555 1_555
N39A C83A 1_555 1_555
N40A C84A 1_555 1_555
N41A C87A 1_555 1_555
N42A C88A 1_555 1_555
N43A C93 1_555 1_555
N44A C94 1_555 1_555
N45A C95A 1_555 1_555
N46A C96A 1_555 1_555
N47A C95A 1_555 1_555
N48A C96A 1_555 1_555
N49A C99A 1_555 1_555
N50A C100A 1_555 1_555
N51A C101A 1_555 1_555
N52A C102A 1_555 1_555
N53A C105A 1_555 1_555
N54A C106A 1_555 1_555
N55A C111 1_555 1_555
N56A C112 1_555 1_555
C1A C3A 1_555 1_555
C2A C4A 1_555 1_555
C3A H9A 1_555 1_555
C4A C6 1_555 1_555
H10A C4A 1_555 1_555
C5A C3A 1_555 1_555
H11A C5A 1_555 1_555
C6A C4 1_555 1_555
H12A C6A 1_555 1_555
C7A C5A 1_555 1_555
C8A C10A 1_555 1_555
C9A C7A 1_555 1_555
H13A C9A 1_555 1_555
C10A C12 1_555 1_555
H14A C10A 1_555 1_555
C11A C1A 1_555 1_555
H15A C11A 1_555 1_555
C12A C10 1_555 1_555
H16A C12A 1_555 1_555
C13A N1A 1_555 1_555
H17A C13A 1_555 1_555
H18A C13A 1_555 1_555
C14A N1A 1_555 1_555
H19A C14A 1_555 1_555
H20A C14A 1_555 1_555
C15A N5A 1_555 1_555
H21A C15A 1_555 1_555
C16A C14A 1_555 1_555
C17A C16A 1_555 1_555
H22A C17A 1_555 1_555
C18A C17A 1_555 1_555
H23A C18A 1_555 1_555
C19A N5A 1_555 1_555
H24A C19A 1_555 1_555
C20A N2A 1_555 1_555
H25A C20A 1_555 1_555
H26A C20A 1_555 1_555
C21A N2A 1_555 1_555
H27A C21A 1_555 1_555
H28A C21A 1_555 1_555
C22A H29A 1_555 1_555
C23A C21A 1_555 1_555
C24A C23A 1_555 1_555
H30A C24A 1_555 1_555
C25A C24A 1_555 1_555
H31A C25A 1_555 1_555
C26A N6A 1_555 1_555
H32A C26A 1_555 1_555
C27A N3A 1_555 1_555
H33A C27A 1_555 1_555
H34A C27A 1_555 1_555
C28A N3A 1_555 1_555
H35A C28A 1_555 1_555
H36A C28A 1_555 1_555
C29A N7A 1_555 1_555
H37A C29A 1_555 1_555
C30A C28A 1_555 1_555
C31A C30A 1_555 1_555
H38A C31A 1_555 1_555
C32A C31A 1_555 1_555
H39A C32A 1_555 1_555
C33A N7A 1_555 1_555
H40A C33A 1_555 1_555
C34A N4A 1_555 1_555
H41A C34A 1_555 1_555
H42A C34A 1_555 1_555
C35A N4A 1_555 1_555
H43A C35A 1_555 1_555
H44A C35A 1_555 1_555
C36A H45A 1_555 1_555
C37A C35A 1_555 1_555
C38A C37A 1_555 1_555
H46A C38A 1_555 1_555
C39A C38A 1_555 1_555
H47A C39A 1_555 1_555
C40A N8A 1_555 1_555
H48A C40A 1_555 1_555
C79A N33A 1_555 1_555
H85A C79A 1_555 1_555
C80A N35A 1_555 1_555
H86A C80A 1_555 1_555
C81A N35A 1_555 1_555
H87A C81A 1_555 1_555
H88A C81A 1_555 1_555
C82A N36A 1_555 1_555
H89A C82A 1_555 1_555
H90A C82A 1_555 1_555
C83A N37A 1_555 1_555
C84A N38A 1_555 1_555
C85A N37A 1_555 1_555
H91A C85A 1_555 1_555
C86A N39A 1_555 1_555
H92A C86A 1_555 1_555
C87A N39A 1_555 1_555
H93A C87A 1_555 1_555
H94A C87A 1_555 1_555
C88A N40A 1_555 1_555
H95A C88A 1_555 1_555
H96A C88A 1_555 1_555
C89A N41A 1_555 1_555
C90A N42A 1_555 1_555
C91A N41A 1_555 1_555
H97A C91A 1_555 1_555
C92A N43A 1_555 1_555
H98A C92A 1_555 1_555
C93A N43 1_555 1_555
H99A C93A 1_555 1_555
H100A C93A 1_555 1_555
C94A N44 1_555 1_555
H101A C94A 1_555 1_555
H102A C94A 1_555 1_555
C97A N45A 1_555 1_555
H103A C97A 1_555 1_555
C98A N47A 1_555 1_555
H104A C98A 1_555 1_555
C99A N47A 1_555 1_555
H105A C99A 1_555 1_555
H106A C99A 1_555 1_555
C100A N48A 1_555 1_555
H107A C100A 1_555 1_555
H108A C100A 1_555 1_555
C101A N49A 1_555 1_555
C102A N50A 1_555 1_555
C103A N49A 1_555 1_555
H109A C103A 1_555 1_555
C104A N51A 1_555 1_555
H110A C104A 1_555 1_555
C105A N51A 1_555 1_555
H111A C105A 1_555 1_555
H112A C105A 1_555 1_555
C106A N52A 1_555 1_555
H113A C106A 1_555 1_555
H114A C106A 1_555 1_555
C107A N53A 1_555 1_555
C108A N54A 1_555 1_555
C109A N53A 1_555 1_555
H115A C109A 1_555 1_555
C110A N55A 1_555 1_555
H116A C110A 1_555 1_555
C111A N55 1_555 1_555
H117A C111A 1_555 1_555
H118A C111A 1_555 1_555
C112A N56 1_555 1_555
H119A C112A 1_555 1_555
H120A C112A 1_555 1_555
N10 C43 1_555 1_555
N12 C44 1_555 1_555
N14 C49 1_555 1_555
N16 C50 1_555 1_555
N18 C55 1_555 1_555
N20 C56 1_555 1_555
N22 C61 1_555 1_555
N24 C62 1_555 1_555
N26 C67 1_555 1_555
N28 C68 1_555 1_555
N30 C73 1_555 1_555
N31 C75 1_555 1_555
N32 C74 1_555 1_555
N32 C76 1_555 1_555
N34 C79 1_555 1_555
N36 C80 1_555 1_555
N38 C85 1_555 1_555
N40 C86 1_555 1_555
N42 C91 1_555 1_555
N44 C92 1_555 1_555
N46 C97 1_555 1_555
N48 C98 1_555 1_555
N50 C103 1_555 1_555
N52 C104 1_555 1_555
N54 C109 1_555 1_555
N56 C110 1_555 1_555
C1 C13 1_555 1_555
C2 C27 1_555 1_555
C7 C20 1_555 1_555
C8 C34 1_555 1_555
C9 C11 1_555 1_555
C15 C16 1_555 1_555
C18 C19 1_555 1_555
C22 C23 1_555 1_555
C25 C26 1_555 1_555
C29 C30 1_555 1_555
C32 C33 1_555 1_555
C36 C37 1_555 1_555
C39 C40 1_555 1_555
C43 C44 1_555 1_555
C49 C50 1_555 1_555
C55 C56 1_555 1_555
C61 C62 1_555 1_555
C67 C68 1_555 1_555
C73 C74 1_555 1_555
C79 C80 1_555 1_555
C85 C86 1_555 1_555
C91 C92 1_555 1_555
C97 C98 1_555 1_555
C103 C104 1_555 1_555
C109 C110 1_555 1_555
N33A C94A 1_555 1_555
N34A C79A 1_555 1_555
N34A C93A 1_555 1_555
N36A C80A 1_555 1_555
N38A C85A 1_555 1_555
N40A C86A 1_555 1_555
N42A C91A 1_555 1_555
N43A C89A 1_555 1_555
N44A C90A 1_555 1_555
N44A C92A 1_555 1_555
N45A C112A 1_555 1_555
N46A C97A 1_555 1_555
N46A C111A 1_555 1_555
N48A C98A 1_555 1_555
N50A C103A 1_555 1_555
N52A C104A 1_555 1_555
N54A C109A 1_555 1_555
N55A C107A 1_555 1_555
N56A C108A 1_555 1_555
N56A C110A 1_555 1_555
C1A C13A 1_555 1_555
C2A C6A 1_555 1_555
C2A C27A 1_555 1_555
C7A C20A 1_555 1_555
C8A C12A 1_555 1_555
C8A C34A 1_555 1_555
C9A C11A 1_555 1_555
C15A C16A 1_555 1_555
C18A C19A 1_555 1_555
C22A C23A 1_555 1_555
C25A C26A 1_555 1_555
C29A C30A 1_555 1_555
C32A C33A 1_555 1_555
C36A C37A 1_555 1_555
C39A C40A 1_555 1_555
C79A C80A 1_555 1_555
C85A C86A 1_555 1_555
C91A C92A 1_555 1_555
C97A C98A 1_555 1_555
C103A C104A 1_555 1_555
C109A C110A 1_555 1_555

#END
