
#######################################################################
#
#                 Cambridge Crystallographic Data Centre
#                                CCDC 
#
#######################################################################
#
# If this CIF has been generated from an entry in the Cambridge 
# Structural Database, then it will include bibliographic, chemical, 
# crystal, experimental, refinement or atomic coordinate data resulting 
# from the CCDC's data processing and validation procedures.
#
#######################################################################

data_QEKBAK
_symmetry_cell_setting           hexagonal
_symmetry_space_group_name_H-M   'P 63/m m c'
_symmetry_Int_Tables_number      194
_space_group_name_Hall           "-P 6c 2'c"
loop_
_symmetry_equiv_pos_site_id
_symmetry_equiv_pos_as_xyz
1 x,y,z
2 -y,x-y,z
3 -x+y,-x,z
4 y,-x+y,1/2+z
5 x-y,x,1/2+z
6 y,x,-z
7 -x+y,y,1/2-z
8 x,x-y,1/2-z
9 -x,-y,1/2+z
10 x-y,-y,-z
11 -x,-x+y,-z
12 -y,-x,1/2-z
13 -x,-y,-z
14 y,-x+y,-z
15 x-y,x,-z
16 -y,x-y,1/2-z
17 -x+y,-x,1/2-z
18 -y,-x,z
19 x-y,-y,1/2+z
20 -x,-x+y,1/2+z
21 x,y,1/2-z
22 -x+y,y,z
23 x,x-y,z
24 y,x,1/2+z
_cell_length_a                   11.6208(7)
_cell_length_b                   11.6208(7)
_cell_length_c                   5.9640(8)
_cell_angle_alpha                90
_cell_angle_beta                 90
_cell_angle_gamma                120
_cell_volume                     697.494
loop_
_atom_site_label
_atom_site_type_symbol
_atom_site_fract_x
_atom_site_fract_y
_atom_site_fract_z
Cu1 Cu 0.56655(5) 0.43345(5) 0.2500
Cu2 Cu 0.0000 0.0000 0.2500
N1 N 0.4044(5) 0.2613(4) 0.2500
N2 N 0.1953(7) 0.0977(3) 0.2500
O1 O 0.6667 0.3333 0.2500
Cl1 Cl 0.44996(10) 0.55004(10) 0.2500
C1 C 0.2790(5) 0.2299(6) 0.2500
H1 H 0.2511 0.2922 0.2500
Cu1A Cu 0.56655(5) 0.13310(7) 0.2500
Cu1A_2 Cu -0.43345(5) 0.13310(7) 0.2500
Cu1B Cu 0.86690(7) 0.43345(5) 0.2500
Cu1B_2 Cu -0.13310(7) 0.43345(5) 0.2500
Cu1B_3 Cu -0.13310(7) -0.56655(5) 0.2500
Cu1_2 Cu -0.43345(5) -0.56655(5) 0.2500
N1G N 0.4044(5) 0.1431(6) 0.2500
N1A N -0.2613(4) 0.1431(6) 0.2500
N1F N -0.1431(6) 0.2613(4) 0.2500
N1B N -0.1431(6) -0.4044(5) 0.2500
N1Q N -0.2613(4) -0.4044(5) 0.2500
N1Q_2 N 0.7387(4) 0.5956(5) 0.2500
N1A_2 N 0.7387(4) 0.1431(6) 0.2500
N1G_2 N -0.5956(5) 0.1431(6) 0.2500
N2A N -0.0977(3) 0.0976(8) 0.2500
N2B N -0.0976(8) -0.1953(7) 0.2500
O1_2 O -0.3333 0.3333 0.2500
Cl1A Cl 0.44996(10) -0.10008(14) 0.2500
Cl1A_2 Cl -0.55004(10) -0.10008(14) 0.2500
C1G C 0.2790(5) 0.0491(8) 0.2500
C1A C -0.2299(6) 0.0491(8) 0.2500
C1F C -0.0491(8) 0.2299(6) 0.2500
C1B C -0.0491(8) -0.2790(5) 0.2500
C1Q C -0.2299(6) -0.2790(5) 0.2500
H1G H 0.2511 -0.0411 0.2500
H1A H -0.2922 -0.0411 0.2500
H1F H 0.0411 0.2922 0.2500
H1B H 0.0411 -0.2511 0.2500
H1Q H -0.2922 -0.2511 0.2500
loop_
_geom_bond_atom_site_label_1
_geom_bond_atom_site_label_2
_geom_bond_site_symmetry_1
_geom_bond_site_symmetry_2
Cu1 N1 1_555 1_555
Cu2 N2 1_555 1_555
N1 C1 1_555 1_555
N2 C1 1_555 1_555
O1 Cu1 1_555 1_555
Cl1 Cu1 1_555 1_555
C1 H1 1_555 1_555
Cu1A O1 1_555 1_555
Cu1A_2 N1A 1_555 1_555
Cu1B O1 1_555 1_555
Cu1B_2 N1F 1_555 1_555
Cu1B_3 N1B 1_555 1_555
Cu1_2 N1Q 1_555 1_555
N1G N1 1_555 1_555
N1A N1F 1_555 1_555
N1F C1F 1_555 1_555
N1B N1Q 1_555 1_555
N1Q C1Q 1_555 1_555
N1Q_2 Cu1 1_555 1_555
N1A_2 Cu1A 1_555 1_555
N1G_2 Cu1A_2 1_555 1_555
N2A Cu2 1_555 1_555
N2B Cu2 1_555 1_555
O1_2 Cu1A_2 1_555 1_555
Cl1A Cu1A 1_555 1_555
Cl1A_2 Cu1A_2 1_555 1_555
C1G N2 1_555 1_555
C1A N1A 1_555 1_555
C1F N2A 1_555 1_555
C1B N1B 1_555 1_555
C1Q N2B 1_555 1_555
H1G C1G 1_555 1_555
H1A C1A 1_555 1_555
H1F C1F 1_555 1_555
H1B C1B 1_555 1_555
H1Q C1Q 1_555 1_555
Cu1A N1G 1_555 1_555
Cu1B_2 O1_2 1_555 1_555
N1G C1G 1_555 1_555
N2A C1A 1_555 1_555
N2B C1B 1_555 1_555

#END
