
#######################################################################
#
#                 Cambridge Crystallographic Data Centre
#                                CCDC 
#
#######################################################################
#
# If this CIF has been generated from an entry in the Cambridge 
# Structural Database, then it will include bibliographic, chemical, 
# crystal, experimental, refinement or atomic coordinate data resulting 
# from the CCDC's data processing and validation procedures.
#
#######################################################################

data_QEKBOY
_symmetry_cell_setting           triclinic
_symmetry_space_group_name_H-M   'P -1'
_symmetry_Int_Tables_number      2
_space_group_name_Hall           '-P 1'
loop_
_symmetry_equiv_pos_site_id
_symmetry_equiv_pos_as_xyz
1 x,y,z
2 -x,-y,-z
_cell_length_a                   13.716(17)
_cell_length_b                   14.257(11)
_cell_length_c                   18.69(3)
_cell_angle_alpha                81.43(9)
_cell_angle_beta                 76.57(11)
_cell_angle_gamma                83.52(9)
_cell_volume                     3503.52
loop_
_atom_site_label
_atom_site_type_symbol
_atom_site_fract_x
_atom_site_fract_y
_atom_site_fract_z
Ag1 Ag 0.0000 0.0000 1.0000
N1 N -0.4062(3) 0.2386(2) 1.0171(2)
H1 H -0.3439 0.2620 1.0058
H2 H -0.4263 0.2381 0.9735
N2 N -0.1534(4) 0.0034(3) 0.9867(3)
C1 C -0.4866(4) 0.4033(3) 1.0285(3)
C2 C -0.4443(6) 0.4360(4) 0.9584(3)
H3 H -0.4046 0.3927 0.9273
C3 C -0.5436(6) 0.4691(4) 1.0701(3)
H4 H -0.5757 0.4493 1.1201
C4 C -0.4794(4) 0.3009(3) 1.0649(3)
H5 H -0.4588 0.2991 1.1125
H6 H -0.5466 0.2760 1.0760
C5 C -0.3999(4) 0.1383(3) 1.0572(3)
H7 H -0.3818 0.1401 1.1053
H8 H -0.4667 0.1130 1.0677
C6 C -0.2241(5) 0.0648(4) 1.0197(3)
H9 H -0.2052 0.1054 1.0493
C7 C -0.3242(4) 0.0729(3) 1.0134(3)
C8 C -0.3496(5) 0.0128(4) 0.9690(3)
H10 H -0.4165 0.0163 0.9623
C9 C -0.2770(5) -0.0521(4) 0.9347(3)
H11 H -0.2932 -0.0930 0.9042
C10 C -0.1804(5) -0.0556(4) 0.9461(3)
H12 H -0.1312 -0.1016 0.9244
Ag1_2 Ag -1.0000 1.0000 1.0000
N1A N -0.5938(3) 0.7614(2) 0.9829(2)
H1A H -0.6561 0.7380 0.9942
H2A H -0.5737 0.7619 1.0265
N2A N -0.8466(4) 0.9966(3) 1.0133(3)
N2A_2 N 0.1534(4) -0.0034(3) 1.0133(3)
C1A C -0.5134(4) 0.5967(3) 0.9715(3)
C2A C -0.5557(6) 0.5640(4) 1.0416(3)
H3A H -0.5954 0.6073 1.0727
C3A C -0.4564(6) 0.5309(4) 0.9299(3)
H4A H -0.4243 0.5507 0.8799
C4A C -0.5206(4) 0.6991(3) 0.9351(3)
H5A H -0.5412 0.7009 0.8875
H6A H -0.4534 0.7240 0.9240
C5A C -0.6001(4) 0.8617(3) 0.9428(3)
H7A H -0.6182 0.8599 0.8947
H8A H -0.5333 0.8870 0.9323
C6A C -0.7759(5) 0.9352(4) 0.9803(3)
H9A H -0.7948 0.8946 0.9507
C7A C -0.6758(4) 0.9271(3) 0.9866(3)
C8A C -0.6504(5) 0.9872(4) 1.0310(3)
H10A H -0.5835 0.9837 1.0377
C9A C -0.7230(5) 1.0521(4) 1.0653(3)
H11A H -0.7068 1.0930 1.0958
C10A C -0.8196(5) 1.0556(4) 1.0539(3)
H12A H -0.8688 1.1016 1.0756
Ag2 Ag 0.5000 0.5000 0.5000
N3 N 0.0994(3) 0.7425(3) 0.5305(3)
H13 H 0.1633 0.7624 0.5163
H14 H 0.0754 0.7422 0.4885
N4 N 0.3412(4) 0.4980(3) 0.4988(3)
C11 C 0.0174(4) 0.9079(3) 0.5360(3)
C12 C 0.0757(5) 0.9374(4) 0.4678(3)
H15 H 0.1278 0.8949 0.4445
C13 C -0.0591(5) 0.9699(4) 0.5680(3)
H16 H -0.1011 0.9500 0.6146
C14 C 0.0328(5) 0.8098(3) 0.5787(3)
H17 H 0.0633 0.8157 0.6208
H18 H -0.0333 0.7836 0.5993
C15 C 0.1024(5) 0.6423(3) 0.5723(3)
H19 H 0.1221 0.6441 0.6198
H20 H 0.0344 0.6193 0.5839
C16 C 0.2733(5) 0.5612(4) 0.5345(4)
H21 H 0.2951 0.5981 0.5652
C17 C 0.1743(5) 0.5751(4) 0.5289(3)
C18 C 0.1431(5) 0.5220(4) 0.4816(4)
H22 H 0.0762 0.5310 0.4744
C19 C 0.2121(5) 0.4566(4) 0.4462(3)
H23 H 0.1924 0.4186 0.4151
C20 C 0.3113(5) 0.4461(4) 0.4558(3)
H24 H 0.3582 0.4009 0.4309
Ag2_2 Ag -0.5000 1.5000 0.5000
N3A N -0.0994(3) 1.2575(3) 0.4695(3)
H13A H -0.1633 1.2376 0.4837
H14A H -0.0754 1.2578 0.5115
N4A N -0.3412(4) 1.5020(3) 0.5012(3)
N4A_2 N 0.6588(4) 0.5020(3) 0.5012(3)
C11A C -0.0174(4) 1.0921(3) 0.4640(3)
C12A C -0.0757(5) 1.0626(4) 0.5322(3)
H15A H -0.1278 1.1051 0.5555
C13A C 0.0591(5) 1.0301(4) 0.4320(3)
H16A H 0.1011 1.0500 0.3854
C14A C -0.0328(5) 1.1902(3) 0.4213(3)
H17A H -0.0633 1.1843 0.3792
H18A H 0.0333 1.2164 0.4007
C15A C -0.1024(5) 1.3577(3) 0.4277(3)
H19A H -0.1221 1.3559 0.3802
H20A H -0.0344 1.3807 0.4161
C16A C -0.2733(5) 1.4388(4) 0.4655(4)
H21A H -0.2951 1.4019 0.4348
C17A C -0.1743(5) 1.4249(4) 0.4711(3)
C18A C -0.1431(5) 1.4780(4) 0.5184(4)
H22A H -0.0762 1.4690 0.5256
C19A C -0.2121(5) 1.5434(4) 0.5538(3)
H23A H -0.1924 1.5814 0.5849
C20A C -0.3113(5) 1.5539(4) 0.5442(3)
H24A H -0.3582 1.5991 0.5691
O1 O -0.2348(3) 0.1877(2) 1.1743(2)
O2 O -0.0105(3) 0.7072(3) 0.8366(3)
O3 O -0.0501(3) 0.1802(3) 1.0756(2)
O4 O -0.4993(3) -0.0533(3) 1.1541(3)
O5 O 0.3424(4) 0.7137(3) 0.6465(3)
O6 O 0.1665(4) 0.6482(3) 0.7371(3)
O7 O 0.5225(4) 0.1885(3) 0.3071(3)
O8 O 0.6036(5) 0.0214(4) 0.2438(3)
O9 O 0.3104(5) 0.2443(4) 0.7254(4)
O10 O 0.2537(6) 0.1036(5) 0.8376(4)
O11 O 0.0327(4) 0.4644(4) 0.6961(3)
O12 O 0.1860(5) 0.4640(3) 0.7162(3)
O13 O 0.1526(5) 0.3491(4) 0.6675(3)
N5 N 0.1205(6) 0.4261(4) 0.6949(4)
O14 O 0.0921(6) 0.2882(5) 0.8315(4)
O15 O 0.0107(6) 0.1729(4) 0.8981(3)
O16 O 0.0161(4) 0.3040(4) 0.9419(4)
N6 N 0.0419(5) 0.2504(6) 0.8929(4)
O17 O 0.4553(4) 0.1945(4) 0.5911(4)
O18 O 0.4955(4) 0.2995(4) 0.4922(4)
O19 O 0.4988(5) 0.3329(4) 0.6030(3)
N7 N 0.4829(5) 0.2760(5) 0.5648(4)
O20 O -0.7791(3) 0.6840(2) 0.9996(2)
O21 O -0.7134(3) 0.2647(2) 1.1245(2)
O22 O -0.6871(3) 0.7558(2) 1.1348(2)
O23 O -0.6075(3) 0.3347(2) 1.2469(2)
O24 O -0.4465(3) 0.7736(2) 1.0699(2)
O25 O -0.3585(3) 0.3558(2) 1.1817(2)
N8 N -0.8222(3) 0.5347(3) 0.9888(2)
N9 N -0.7798(3) 0.3688(3) 1.0364(2)
N10 N -0.8303(3) 0.5718(3) 1.1013(2)
N11 N -0.8085(3) 0.4047(3) 1.1522(2)
N12 N -0.7662(4) 0.6227(3) 1.1982(2)
N13 N -0.7364(4) 0.4527(3) 1.2470(2)
N14 N -0.6276(4) 0.6568(3) 1.2278(2)
N15 N -0.5938(4) 0.4868(3) 1.2712(2)
N16 N -0.4494(3) 0.6698(3) 1.1795(2)
N17 N -0.4147(4) 0.5022(3) 1.2228(3)
N18 N -0.3148(3) 0.6605(3) 1.0863(2)
N19 N -0.2767(4) 0.4942(3) 1.1333(2)
C21 C -0.8080(4) 0.6046(3) 1.0275(3)
C22 C -0.7617(4) 0.3383(3) 1.1060(3)
C23 C -0.8557(4) 0.4493(3) 1.0378(3)
H25 H -0.9201 0.4310 1.0295
C24 C -0.8692(4) 0.4782(3) 1.1162(3)
H26 H -0.9414 0.4808 1.1432
C25 C -0.8467(4) 0.6338(3) 1.1590(3)
H27 H -0.8540 0.7008 1.1362
H28 H -0.9104 0.6201 1.1950
C26 C -0.8084(4) 0.3965(3) 1.2303(3)
H29 H -0.7933 0.3288 1.2485
H30 H -0.8766 0.4166 1.2577
C27 C -0.6935(4) 0.6857(4) 1.1818(3)
C28 C -0.6426(4) 0.4160(4) 1.2545(3)
C29 C -0.7576(4) 0.5513(3) 1.2625(3)
H31 H -0.8168 0.5584 1.3048
C30 C -0.6602(4) 0.5748(3) 1.2814(3)
H32 H -0.6726 0.5898 1.3335
C31 C -0.5409(4) 0.7075(3) 1.2240(3)
H33 H -0.5546 0.7747 1.2037
H34 H -0.5313 0.7069 1.2749
C32 C -0.4930(4) 0.4710(4) 1.2846(3)
H35 H -0.4907 0.5043 1.3270
H36 H -0.4788 0.4021 1.2993
C33 C -0.4077(5) 0.7073(3) 1.1086(3)
C34 C -0.3496(4) 0.4427(4) 1.1800(3)
C35 C -0.3814(4) 0.5975(3) 1.2107(3)
H37 H -0.3656 0.6153 1.2563
C36 C -0.2875(4) 0.5934(3) 1.1468(3)
H38 H -0.2268 0.6113 1.1611
C37 C -0.7576(4) 0.3048(3) 0.9800(3)
H39 H -0.7307 0.2420 1.0013
H40 H -0.8208 0.2955 0.9660
C38 C -0.8151(4) 0.5489(3) 0.9089(3)
H41 H -0.8198 0.6181 0.8919
H42 H -0.8731 0.5221 0.8985
O20A O -0.2209(3) 0.3160(2) 1.0004(2)
O21A O -0.2866(3) 0.7353(2) 0.8755(2)
O22A O -0.3129(3) 0.2442(2) 0.8652(2)
O23A O -0.3925(3) 0.6653(2) 0.7531(2)
O24A O -0.5535(3) 0.2264(2) 0.9301(2)
O25A O -0.6415(3) 0.6442(2) 0.8183(2)
N8A N -0.1778(3) 0.4653(3) 1.0112(2)
N9A N -0.2202(3) 0.6312(3) 0.9636(2)
N10A N -0.1697(3) 0.4282(3) 0.8987(2)
N11A N -0.1915(3) 0.5953(3) 0.8478(2)
N12A N -0.2338(4) 0.3773(3) 0.8018(2)
N13A N -0.2636(4) 0.5473(3) 0.7530(2)
N14A N -0.3724(4) 0.3432(3) 0.7722(2)
N15A N -0.4062(4) 0.5132(3) 0.7288(2)
N16A N -0.5506(3) 0.3302(3) 0.8205(2)
N17A N -0.5853(4) 0.4978(3) 0.7772(3)
N18A N -0.6852(3) 0.3395(3) 0.9137(2)
N19A N -0.7233(4) 0.5058(3) 0.8667(2)
C21A C -0.1920(4) 0.3954(3) 0.9725(3)
C22A C -0.2383(4) 0.6617(3) 0.8940(3)
C23A C -0.1443(4) 0.5507(3) 0.9622(3)
H25A H -0.0799 0.5690 0.9705
C24A C -0.1308(4) 0.5218(3) 0.8838(3)
H26A H -0.0586 0.5192 0.8568
C25A C -0.1533(4) 0.3662(3) 0.8410(3)
H27A H -0.1460 0.2992 0.8638
H28A H -0.0896 0.3799 0.8050
C26A C -0.1916(4) 0.6035(3) 0.7697(3)
H29A H -0.2067 0.6712 0.7515
H30A H -0.1234 0.5834 0.7423
C27A C -0.3065(4) 0.3143(4) 0.8182(3)
C28A C -0.3574(4) 0.5840(4) 0.7455(3)
C29A C -0.2424(4) 0.4487(3) 0.7375(3)
H31A H -0.1832 0.4416 0.6952
C30A C -0.3398(4) 0.4252(3) 0.7186(3)
H32A H -0.3274 0.4102 0.6665
C31A C -0.4591(4) 0.2925(3) 0.7760(3)
H33A H -0.4454 0.2253 0.7963
H34A H -0.4687 0.2931 0.7251
C32A C -0.5070(4) 0.5290(4) 0.7154(3)
H35A H -0.5093 0.4957 0.6730
H36A H -0.5212 0.5979 0.7007
C33A C -0.5923(5) 0.2927(3) 0.8914(3)
C34A C -0.6504(4) 0.5573(4) 0.8200(3)
C35A C -0.6186(4) 0.4025(3) 0.7893(3)
H37A H -0.6344 0.3847 0.7437
C36A C -0.7125(4) 0.4066(3) 0.8532(3)
H38A H -0.7732 0.3887 0.8389
C37A C -0.2424(4) 0.6952(3) 1.0200(3)
H39A H -0.2693 0.7580 0.9987
H40A H -0.1792 0.7045 1.0340
C38A C -0.1849(4) 0.4511(3) 1.0911(3)
H41A H -0.1802 0.3819 1.1081
H42A H -0.1269 0.4779 1.1015
O26 O 0.2059(3) 1.2312(2) 0.3652(2)
O27 O 0.2912(3) 0.8259(2) 0.5063(2)
O28 O 0.1010(3) 1.1467(2) 0.2511(2)
O29 O 0.1993(3) 0.7349(2) 0.3783(2)
O30 O -0.1596(3) 1.1242(2) 0.3076(2)
O31 O -0.0464(3) 0.7243(2) 0.4522(2)
N20 N 0.2820(3) 1.1403(3) 0.4531(2)
N21 N 0.3296(4) 0.9795(3) 0.5084(2)
N22 N 0.3103(3) 1.0946(3) 0.3413(2)
N23 N 0.3357(3) 0.9320(3) 0.3996(2)
N24 N 0.2341(3) 1.0332(3) 0.2547(2)
N25 N 0.2715(4) 0.8680(3) 0.3083(2)
N26 N 0.0899(3) 0.9892(3) 0.2387(2)
N27 N 0.1345(4) 0.8222(3) 0.2828(2)
N28 N -0.0907(3) 0.9753(3) 0.2792(2)
N29 N -0.0433(3) 0.8190(3) 0.3385(3)
N30 N -0.2248(4) 0.9855(3) 0.3723(2)
N31 N -0.1830(4) 0.8242(3) 0.4272(2)
C39 C 0.2607(4) 1.1627(4) 0.3844(3)
C40 C 0.3166(4) 0.9047(4) 0.4748(3)
C41 C 0.3604(4) 1.0631(3) 0.4556(3)
H43 H 0.4240 1.0854 0.4620
C42 C 0.3736(4) 1.0269(3) 0.3795(3)
H44 H 0.4454 1.0241 0.3518
C43 C 0.3048(5) 1.0959(3) 0.2648(3)
H45 H 0.3725 1.0772 0.2357
H46 H 0.2852 1.1617 0.2446
C44 C 0.3522(4) 0.8645(3) 0.3462(3)
H47 H 0.4151 0.8771 0.3089
H48 H 0.3614 0.7994 0.3722
C45 C 0.1377(4) 1.0639(4) 0.2482(3)
C46 C 0.2010(4) 0.8023(4) 0.3289(3)
C47 C 0.2568(4) 0.9328(3) 0.2430(3)
H49 H 0.3146 0.9248 0.1999
C48 C 0.1585(4) 0.9049(3) 0.2277(3)
H50 H 0.1688 0.8885 0.1761
C49 C -0.0077(5) 1.0030(4) 0.2196(3)
H51 H -0.0205 1.0712 0.2015
H52 H -0.0055 0.9663 0.1782
C50 C 0.0449(4) 0.7712(3) 0.2957(3)
H53 H 0.0315 0.7630 0.2473
H54 H 0.0575 0.7070 0.3221
C51 C -0.1586(5) 1.0373(4) 0.3194(3)
C52 C -0.0860(4) 0.7832(3) 0.4106(3)
C53 C -0.1155(4) 0.8764(3) 0.3025(3)
H55 H -0.1275 0.8466 0.2604
C54 C -0.2111(5) 0.8839(3) 0.3641(3)
H56 H -0.2702 0.8617 0.3506
C55 C 0.3209(4) 0.9735(4) 0.5880(3)
H57 H 0.3302 0.9058 0.6086
H58 H 0.3757 1.0067 0.5970
C56 C 0.2559(4) 1.2085(3) 0.5073(3)
H59 H 0.2286 1.2695 0.4836
H60 H 0.3177 1.2206 0.5220
O26A O -0.2059(3) 0.7688(2) 0.6348(2)
O27A O -0.2912(3) 1.1741(2) 0.4937(2)
O28A O -0.1010(3) 0.8533(2) 0.7489(2)
O29A O -0.1993(3) 1.2651(2) 0.6217(2)
O30A O 0.1596(3) 0.8758(2) 0.6924(2)
O31A O 0.0464(3) 1.2757(2) 0.5478(2)
N20A N -0.2820(3) 0.8597(3) 0.5469(2)
N21A N -0.3296(4) 1.0205(3) 0.4916(2)
N22A N -0.3103(3) 0.9054(3) 0.6587(2)
N23A N -0.3357(3) 1.0680(3) 0.6004(2)
N24A N -0.2341(3) 0.9668(3) 0.7453(2)
N25A N -0.2715(4) 1.1320(3) 0.6917(2)
N26A N -0.0899(3) 1.0108(3) 0.7613(2)
N27A N -0.1345(4) 1.1778(3) 0.7172(2)
N28A N 0.0907(3) 1.0247(3) 0.7208(2)
N29A N 0.0433(3) 1.1810(3) 0.6615(3)
N30A N 0.2248(4) 1.0145(3) 0.6277(2)
N31A N 0.1830(4) 1.1758(3) 0.5728(2)
C39A C -0.2607(4) 0.8373(4) 0.6156(3)
C40A C -0.3166(4) 1.0953(4) 0.5252(3)
C41A C -0.3604(4) 0.9369(3) 0.5444(3)
H43A H -0.4240 0.9146 0.5380
C42A C -0.3736(4) 0.9731(3) 0.6205(3)
H44A H -0.4454 0.9759 0.6482
C43A C -0.3048(5) 0.9041(3) 0.7352(3)
H45A H -0.3725 0.9228 0.7643
H46A H -0.2852 0.8383 0.7554
C44A C -0.3522(4) 1.1355(3) 0.6538(3)
H47A H -0.4151 1.1229 0.6911
H48A H -0.3614 1.2006 0.6278
C45A C -0.1377(4) 0.9361(4) 0.7518(3)
C46A C -0.2010(4) 1.1977(4) 0.6711(3)
C47A C -0.2568(4) 1.0672(3) 0.7570(3)
H49A H -0.3146 1.0752 0.8001
C48A C -0.1585(4) 1.0951(3) 0.7723(3)
H50A H -0.1688 1.1115 0.8239
C49A C 0.0077(5) 0.9970(4) 0.7804(3)
H51A H 0.0205 0.9288 0.7985
H52A H 0.0055 1.0337 0.8218
C50A C -0.0449(4) 1.2288(3) 0.7043(3)
H53A H -0.0315 1.2370 0.7527
H54A H -0.0575 1.2930 0.6779
C51A C 0.1586(5) 0.9627(4) 0.6806(3)
C52A C 0.0860(4) 1.2168(3) 0.5894(3)
C53A C 0.1155(4) 1.1236(3) 0.6975(3)
H55A H 0.1275 1.1534 0.7396
C54A C 0.2111(5) 1.1161(3) 0.6359(3)
H56A H 0.2702 1.1383 0.6494
C55A C -0.3209(4) 1.0265(4) 0.4120(3)
H57A H -0.3302 1.0942 0.3914
H58A H -0.3757 0.9933 0.4030
C56A C -0.2559(4) 0.7915(3) 0.4927(3)
H59A H -0.2286 0.7305 0.5164
H60A H -0.3177 0.7794 0.4780
loop_
_geom_bond_atom_site_label_1
_geom_bond_atom_site_label_2
_geom_bond_site_symmetry_1
_geom_bond_site_symmetry_2
Ag1 N2 1_555 1_555
N1 H1 1_555 1_555
H2 N1 1_555 1_555
N2 C6 1_555 1_555
C1 C2 1_555 1_555
C2 H3 1_555 1_555
C3 C1 1_555 1_555
H4 C3 1_555 1_555
C4 N1 1_555 1_555
H5 C4 1_555 1_555
H6 C4 1_555 1_555
C5 N1 1_555 1_555
H7 C5 1_555 1_555
H8 C5 1_555 1_555
C6 H9 1_555 1_555
C7 C5 1_555 1_555
C8 C7 1_555 1_555
H10 C8 1_555 1_555
C9 C8 1_555 1_555
H11 C9 1_555 1_555
C10 N2 1_555 1_555
H12 C10 1_555 1_555
Ag2 N4 1_555 1_555
N3 H13 1_555 1_555
H14 N3 1_555 1_555
N4 C16 1_555 1_555
C11 C12 1_555 1_555
C12 H15 1_555 1_555
C13 C11 1_555 1_555
H16 C13 1_555 1_555
C14 N3 1_555 1_555
H17 C14 1_555 1_555
H18 C14 1_555 1_555
C15 N3 1_555 1_555
H19 C15 1_555 1_555
H20 C15 1_555 1_555
C16 H21 1_555 1_555
C17 C15 1_555 1_555
C18 C17 1_555 1_555
H22 C18 1_555 1_555
C19 C18 1_555 1_555
H23 C19 1_555 1_555
C20 N4 1_555 1_555
H24 C20 1_555 1_555
O11 N5 1_555 1_555
O12 N5 1_555 1_555
O13 N5 1_555 1_555
O14 N6 1_555 1_555
O15 N6 1_555 1_555
O16 N6 1_555 1_555
O17 N7 1_555 1_555
O18 N7 1_555 1_555
O19 N7 1_555 1_555
O20 C21 1_555 1_555
O21 C22 1_555 1_555
O22 C27 1_555 1_555
O23 C28 1_555 1_555
O24 C33 1_555 1_555
O25 C34 1_555 1_555
N8 C21 1_555 1_555
N9 C22 1_555 1_555
N10 C21 1_555 1_555
N11 C22 1_555 1_555
N12 C25 1_555 1_555
N13 C26 1_555 1_555
N14 C27 1_555 1_555
N15 C28 1_555 1_555
N16 C31 1_555 1_555
N17 C32 1_555 1_555
N18 C33 1_555 1_555
N19 C34 1_555 1_555
C23 N8 1_555 1_555
H25 C23 1_555 1_555
C24 N10 1_555 1_555
H26 C24 1_555 1_555
C25 N10 1_555 1_555
H27 C25 1_555 1_555
H28 C25 1_555 1_555
C26 N11 1_555 1_555
H29 C26 1_555 1_555
H30 C26 1_555 1_555
C27 N12 1_555 1_555
C28 N13 1_555 1_555
C29 N12 1_555 1_555
H31 C29 1_555 1_555
C30 N14 1_555 1_555
H32 C30 1_555 1_555
C31 N14 1_555 1_555
H33 C31 1_555 1_555
H34 C31 1_555 1_555
C32 N15 1_555 1_555
H35 C32 1_555 1_555
H36 C32 1_555 1_555
C33 N16 1_555 1_555
C34 N17 1_555 1_555
C35 N16 1_555 1_555
H37 C35 1_555 1_555
C36 N18 1_555 1_555
H38 C36 1_555 1_555
C37 N9 1_555 1_555
H39 C37 1_555 1_555
H40 C37 1_555 1_555
C38 N8 1_555 1_555
H41 C38 1_555 1_555
H42 C38 1_555 1_555
O26 C39 1_555 1_555
O27 C40 1_555 1_555
O28 C45 1_555 1_555
O29 C46 1_555 1_555
O30 C51 1_555 1_555
O31 C52 1_555 1_555
N20 C39 1_555 1_555
N21 C40 1_555 1_555
N22 C39 1_555 1_555
N23 C40 1_555 1_555
N24 C43 1_555 1_555
N25 C44 1_555 1_555
N26 C45 1_555 1_555
N27 C46 1_555 1_555
N28 C49 1_555 1_555
N29 C50 1_555 1_555
N30 C51 1_555 1_555
N31 C52 1_555 1_555
C41 N20 1_555 1_555
H43 C41 1_555 1_555
C42 N22 1_555 1_555
H44 C42 1_555 1_555
C43 N22 1_555 1_555
H45 C43 1_555 1_555
H46 C43 1_555 1_555
C44 N23 1_555 1_555
H47 C44 1_555 1_555
H48 C44 1_555 1_555
C45 N24 1_555 1_555
C46 N25 1_555 1_555
C47 N24 1_555 1_555
H49 C47 1_555 1_555
C48 N26 1_555 1_555
H50 C48 1_555 1_555
C49 N26 1_555 1_555
H51 C49 1_555 1_555
H52 C49 1_555 1_555
C50 N27 1_555 1_555
H53 C50 1_555 1_555
H54 C50 1_555 1_555
C51 N28 1_555 1_555
C52 N29 1_555 1_555
C53 N28 1_555 1_555
H55 C53 1_555 1_555
C54 N30 1_555 1_555
H56 C54 1_555 1_555
C55 N21 1_555 1_555
H57 C55 1_555 1_555
H58 C55 1_555 1_555
C56 N20 1_555 1_555
H59 C56 1_555 1_555
H60 C56 1_555 1_555
Ag1_2 N2A 1_555 1_555
N1A H1A 1_555 1_555
H2A N1A 1_555 1_555
N2A C6A 1_555 1_555
N2A_2 Ag1 1_555 1_555
C1A C2A 1_555 1_555
C2A C3 1_555 1_555
H3A C2A 1_555 1_555
C3A C2 1_555 1_555
H4A C3A 1_555 1_555
C4A N1A 1_555 1_555
H5A C4A 1_555 1_555
H6A C4A 1_555 1_555
C5A N1A 1_555 1_555
H7A C5A 1_555 1_555
H8A C5A 1_555 1_555
C6A H9A 1_555 1_555
C7A C5A 1_555 1_555
C8A C7A 1_555 1_555
H10A C8A 1_555 1_555
C9A C8A 1_555 1_555
H11A C9A 1_555 1_555
C10A N2A 1_555 1_555
H12A C10A 1_555 1_555
Ag2_2 N4A 1_555 1_555
N3A H13A 1_555 1_555
H14A N3A 1_555 1_555
N4A C16A 1_555 1_555
N4A_2 Ag2 1_555 1_555
C11A C12A 1_555 1_555
C12A C13 1_555 1_555
H15A C12A 1_555 1_555
C13A C12 1_555 1_555
H16A C13A 1_555 1_555
C14A N3A 1_555 1_555
H17A C14A 1_555 1_555
H18A C14A 1_555 1_555
C15A N3A 1_555 1_555
H19A C15A 1_555 1_555
H20A C15A 1_555 1_555
C16A H21A 1_555 1_555
C17A C15A 1_555 1_555
C18A C17A 1_555 1_555
H22A C18A 1_555 1_555
C19A C18A 1_555 1_555
H23A C19A 1_555 1_555
C20A N4A 1_555 1_555
H24A C20A 1_555 1_555
O20A C21A 1_555 1_555
O21A C22A 1_555 1_555
O22A C27A 1_555 1_555
O23A C28A 1_555 1_555
O24A C33A 1_555 1_555
O25A C34A 1_555 1_555
N8A C21A 1_555 1_555
N9A C22A 1_555 1_555
N10A C21A 1_555 1_555
N11A C22A 1_555 1_555
N12A C25A 1_555 1_555
N13A C26A 1_555 1_555
N14A C27A 1_555 1_555
N15A C28A 1_555 1_555
N16A C31A 1_555 1_555
N17A C32A 1_555 1_555
N18A C37 1_555 1_555
N19A C38 1_555 1_555
C23A N8A 1_555 1_555
H25A C23A 1_555 1_555
C24A N10A 1_555 1_555
H26A C24A 1_555 1_555
C25A N10A 1_555 1_555
H27A C25A 1_555 1_555
H28A C25A 1_555 1_555
C26A N11A 1_555 1_555
H29A C26A 1_555 1_555
H30A C26A 1_555 1_555
C27A N12A 1_555 1_555
C28A N13A 1_555 1_555
C29A N12A 1_555 1_555
H31A C29A 1_555 1_555
C30A N14A 1_555 1_555
H32A C30A 1_555 1_555
C31A N14A 1_555 1_555
H33A C31A 1_555 1_555
H34A C31A 1_555 1_555
C32A N15A 1_555 1_555
H35A C32A 1_555 1_555
H36A C32A 1_555 1_555
C33A N16A 1_555 1_555
C34A N17A 1_555 1_555
C35A N16A 1_555 1_555
H37A C35A 1_555 1_555
C36A N18A 1_555 1_555
H38A C36A 1_555 1_555
C37A N18 1_555 1_555
H39A C37A 1_555 1_555
H40A C37A 1_555 1_555
C38A N19 1_555 1_555
H41A C38A 1_555 1_555
H42A C38A 1_555 1_555
O26A C39A 1_555 1_555
O27A C40A 1_555 1_555
O28A C45A 1_555 1_555
O29A C46A 1_555 1_555
O30A C51A 1_555 1_555
O31A C52A 1_555 1_555
N20A C39A 1_555 1_555
N21A C40A 1_555 1_555
N22A C39A 1_555 1_555
N23A C40A 1_555 1_555
N24A C43A 1_555 1_555
N25A C44A 1_555 1_555
N26A C45A 1_555 1_555
N27A C46A 1_555 1_555
N28A C49A 1_555 1_555
N29A C50A 1_555 1_555
N30A C55 1_555 1_555
N31A C56 1_555 1_555
C41A N20A 1_555 1_555
H43A C41A 1_555 1_555
C42A N22A 1_555 1_555
H44A C42A 1_555 1_555
C43A N22A 1_555 1_555
H45A C43A 1_555 1_555
H46A C43A 1_555 1_555
C44A N23A 1_555 1_555
H47A C44A 1_555 1_555
H48A C44A 1_555 1_555
C45A N24A 1_555 1_555
C46A N25A 1_555 1_555
C47A N24A 1_555 1_555
H49A C47A 1_555 1_555
C48A N26A 1_555 1_555
H50A C48A 1_555 1_555
C49A N26A 1_555 1_555
H51A C49A 1_555 1_555
H52A C49A 1_555 1_555
C50A N27A 1_555 1_555
H53A C50A 1_555 1_555
H54A C50A 1_555 1_555
C51A N28A 1_555 1_555
C52A N29A 1_555 1_555
C53A N28A 1_555 1_555
H55A C53A 1_555 1_555
C54A N30A 1_555 1_555
H56A C54A 1_555 1_555
C55A N30 1_555 1_555
H57A C55A 1_555 1_555
H58A C55A 1_555 1_555
C56A N31 1_555 1_555
H59A C56A 1_555 1_555
H60A C56A 1_555 1_555
C1 C4 1_555 1_555
C6 C7 1_555 1_555
C9 C10 1_555 1_555
C11 C14 1_555 1_555
C16 C17 1_555 1_555
C19 C20 1_555 1_555
N9 C23 1_555 1_555
N11 C24 1_555 1_555
N13 C29 1_555 1_555
N15 C30 1_555 1_555
N17 C35 1_555 1_555
N19 C36 1_555 1_555
C23 C24 1_555 1_555
C29 C30 1_555 1_555
C35 C36 1_555 1_555
N21 C41 1_555 1_555
N23 C42 1_555 1_555
N25 C47 1_555 1_555
N27 C48 1_555 1_555
N29 C53 1_555 1_555
N31 C54 1_555 1_555
C41 C42 1_555 1_555
C47 C48 1_555 1_555
C53 C54 1_555 1_555
C1A C3A 1_555 1_555
C1A C4A 1_555 1_555
C6A C7A 1_555 1_555
C9A C10A 1_555 1_555
C11A C13A 1_555 1_555
C11A C14A 1_555 1_555
C16A C17A 1_555 1_555
C19A C20A 1_555 1_555
N8A C38A 1_555 1_555
N9A C23A 1_555 1_555
N9A C37A 1_555 1_555
N11A C24A 1_555 1_555
N13A C29A 1_555 1_555
N15A C30A 1_555 1_555
N17A C35A 1_555 1_555
N18A C33A 1_555 1_555
N19A C34A 1_555 1_555
N19A C36A 1_555 1_555
C23A C24A 1_555 1_555
C29A C30A 1_555 1_555
C35A C36A 1_555 1_555
N20A C56A 1_555 1_555
N21A C41A 1_555 1_555
N21A C55A 1_555 1_555
N23A C42A 1_555 1_555
N25A C47A 1_555 1_555
N27A C48A 1_555 1_555
N29A C53A 1_555 1_555
N30A C51A 1_555 1_555
N31A C52A 1_555 1_555
N31A C54A 1_555 1_555
C41A C42A 1_555 1_555
C47A C48A 1_555 1_555
C53A C54A 1_555 1_555

#END
