
#######################################################################
#
#                 Cambridge Crystallographic Data Centre
#                                CCDC 
#
#######################################################################
#
# If this CIF has been generated from an entry in the Cambridge 
# Structural Database, then it will include bibliographic, chemical, 
# crystal, experimental, refinement or atomic coordinate data resulting 
# from the CCDC's data processing and validation procedures.
#
#######################################################################

data_QEKDAN
_symmetry_cell_setting           orthorhombic
_symmetry_space_group_name_H-M   'C m c a'
_symmetry_Int_Tables_number      64
_space_group_name_Hall           '-C 2ac 2'
loop_
_symmetry_equiv_pos_site_id
_symmetry_equiv_pos_as_xyz
1 x,y,z
2 -x,1/2-y,1/2+z
3 -x,1/2+y,1/2-z
4 x,-y,-z
5 1/2+x,1/2+y,z
6 1/2-x,-y,1/2+z
7 1/2-x,y,1/2-z
8 1/2+x,1/2-y,-z
9 -x,-y,-z
10 x,1/2+y,1/2-z
11 x,1/2-y,1/2+z
12 -x,y,z
13 1/2-x,1/2-y,-z
14 1/2+x,y,1/2-z
15 1/2+x,-y,1/2+z
16 1/2-x,1/2+y,z
_cell_length_a                   13.872(3)
_cell_length_b                   13.658(3)
_cell_length_c                   7.5695(15)
_cell_angle_alpha                90
_cell_angle_beta                 90
_cell_angle_gamma                90
_cell_volume                     1434.15
loop_
_atom_site_label
_atom_site_type_symbol
_atom_site_fract_x
_atom_site_fract_y
_atom_site_fract_z
U1 U 1.0000 0.72318(2) 0.74867(5)
U2 U 1.0000 0.5000 0.5000
O1 O 1.1278(3) 0.7245(3) 0.7490(9)
O2 O 1.0000 0.5406(4) 0.7338(9)
O3 O 1.0000 0.6524(5) 1.0385(8)
O4 O 1.0000 0.3500(5) 0.5455(8)
N1 N 0.8200(6) 0.5000 0.5000
N2 N 0.6694(4) 0.4504(4) 0.5183(11)
C1 C 0.7600(5) 0.4228(5) 0.5276(10)
U1C U 1.0000 0.27682(2) 0.25133(5)
U1A U 1.0000 0.77682(2) 1.24867(5)
U1B U 1.0000 0.22318(2) 0.75133(5)
U1A_2 U 1.0000 0.77682(2) 0.24867(5)
O1K O 0.8722(3) 0.7245(3) 0.7490(9)
O1C O 1.1278(3) 0.2755(3) 0.2510(9)
O1H O 0.8722(3) 0.2755(3) 0.2510(9)
O2C O 1.0000 0.4594(4) 0.2662(9)
O3A O 1.0000 0.8476(5) 0.5385(8)
O3C O 1.0000 0.3476(5) -0.0385(8)
O3B O 1.0000 0.1524(5) 0.4615(8)
O4C O 1.0000 0.6500(5) 0.4545(8)
O4B O 1.0000 0.8500(5) 0.9545(8)
O4A O 1.0000 0.1500(5) 0.0455(8)
N1H N 1.1800(6) 0.5000 0.5000
N2C N 0.6694(4) 0.5496(4) 0.4817(11)
N2H N 1.3306(4) 0.5496(4) 0.4817(11)
N2K N 1.3306(4) 0.4504(4) 0.5183(11)
C1C C 0.7600(5) 0.5772(5) 0.4724(10)
C1H C 1.2400(5) 0.5772(5) 0.4724(10)
C1K C 1.2400(5) 0.4228(5) 0.5276(10)
loop_
_geom_bond_atom_site_label_1
_geom_bond_atom_site_label_2
_geom_bond_site_symmetry_1
_geom_bond_site_symmetry_2
U1 O1 1_555 1_555
U2 O2 1_555 1_555
O2 U1 1_555 1_555
O3 U1 1_555 1_555
O4 U2 1_555 1_555
N1 U2 1_555 1_555
N2 C1 1_555 1_555
C1 N1 1_555 1_555
U1C O4 1_555 1_555
U1A O3 1_555 1_555
U1B O4 1_555 1_555
U1A_2 O3A 1_555 1_555
O1K U1 1_555 1_555
O1C U1C 1_555 1_555
O1H U1C 1_555 1_555
O2C U2 1_555 1_555
O3A U1 1_555 1_555
O3C U1C 1_555 1_555
O3B U1C 1_555 1_555
O4C U1 1_555 1_555
O4B U1 1_555 1_555
O4A U1C 1_555 1_555
N1H U2 1_555 1_555
N2C N2 1_555 1_555
N2H N2K 1_555 1_555
N2K C1K 1_555 1_555
C1C N1 1_555 1_555
C1H N1H 1_555 1_555
C1K N1H 1_555 1_555
U2 O4C 1_555 1_555
U1C O2C 1_555 1_555
U1A O4B 1_555 1_555
U1B O3B 1_555 1_555
U1A_2 O4C 1_555 1_555
N2C C1C 1_555 1_555
N2H C1H 1_555 1_555

#END
