
#######################################################################
#
#                 Cambridge Crystallographic Data Centre
#                                CCDC 
#
#######################################################################
#
# If this CIF has been generated from an entry in the Cambridge 
# Structural Database, then it will include bibliographic, chemical, 
# crystal, experimental, refinement or atomic coordinate data resulting 
# from the CCDC's data processing and validation procedures.
#
#######################################################################

data_QEKFES
_symmetry_cell_setting           monoclinic
_symmetry_space_group_name_H-M   'P 21/c'
_symmetry_Int_Tables_number      14
_space_group_name_Hall           '-P 2ybc'
loop_
_symmetry_equiv_pos_site_id
_symmetry_equiv_pos_as_xyz
1 x,y,z
2 -x,1/2+y,1/2-z
3 -x,-y,-z
4 x,1/2-y,1/2+z
_cell_length_a                   15.6619(6)
_cell_length_b                   23.6142(8)
_cell_length_c                   11.9926(4)
_cell_angle_alpha                90
_cell_angle_beta                 105.2590(16)
_cell_angle_gamma                90
_cell_volume                     4279.02
loop_
_atom_site_label
_atom_site_type_symbol
_atom_site_fract_x
_atom_site_fract_y
_atom_site_fract_z
O1 O 0.6888(11) 0.0551(7) 0.0550(14)
C29 C 0.748(2) 0.0248(12) 0.126(3)
H21 H 0.7458 0.0319 0.2050
H22 H 0.8067 0.0349 0.1197
C30 C 0.651(2) -0.0366(14) 0.011(3)
H23 H 0.6055 -0.0555 0.0390
H24 H 0.6595 -0.0573 -0.0555
C31 C 0.732(3) -0.031(2) 0.100(4)
H25 H 0.7279 -0.0515 0.1683
H26 H 0.7805 -0.0470 0.0738
C32 C 0.6269(17) 0.0246(10) -0.020(2)
H27 H 0.6277 0.0326 -0.0986
H28 H 0.5684 0.0332 -0.0107
Ag1 Ag 0.69561(6) 0.29494(4) 0.06655(9)
Ag2 Ag 0.62451(6) 0.28487(4) 0.29531(9)
Ag3 Ag 0.69543(6) 0.16572(4) 0.05960(9)
Ag4 Ag 0.77426(6) 0.20504(4) 0.33493(9)
S1 S 0.5437(2) 0.33393(14) 0.4458(3)
S2 S 0.7182(2) 0.36160(13) 0.2587(3)
S3 S 0.6807(2) 0.36805(14) -0.1119(3)
S4 S 0.84721(19) 0.16354(14) 0.1728(3)
N1 N 0.4177(6) 0.2444(4) -0.0463(8)
N2 N 0.4097(7) 0.2969(5) -0.0073(9)
N3 N 0.4896(7) 0.3153(4) 0.0415(8)
N4 N 0.5499(6) 0.2742(4) 0.0334(8)
N5 N 0.5523(7) 0.2034(4) 0.2671(8)
N6 N 0.4629(7) 0.2018(5) 0.2160(9)
N7 N 0.4345(7) 0.1516(5) 0.2233(9)
N8 N 0.5050(6) 0.1188(4) 0.2816(8)
N9 N 0.9740(6) 0.2437(4) 0.1748(8)
N10 N 0.9801(7) 0.2979(5) 0.1374(10)
N11 N 0.9008(7) 0.3154(4) 0.0940(9)
N12 N 0.8415(6) 0.2736(4) 0.0999(9)
N13 N 0.8479(6) 0.2875(4) 0.3643(9)
N14 N 0.9376(7) 0.2888(5) 0.4149(9)
N15 N 0.9677(7) 0.3402(5) 0.4137(9)
N16 N 0.8950(7) 0.3722(4) 0.3596(9)
C1 C 0.3404(8) 0.2137(5) -0.1093(10)
C2 C 0.2718(9) 0.2077(5) -0.0574(12)
H1 H 0.2757 0.2226 0.0155
C3 C 0.1954(10) 0.1779(6) -0.1188(13)
H2 H 0.1483 0.1720 -0.0864
C4 C 0.1925(10) 0.1586(6) -0.2238(13)
H3 H 0.1412 0.1407 -0.2657
C5 C 0.2605(10) 0.1639(6) -0.2726(13)
H4 H 0.2566 0.1485 -0.3451
C6 C 0.3376(9) 0.1929(5) -0.2128(11)
H5 H 0.3851 0.1972 -0.2450
C7 C 0.5047(8) 0.2702(5) 0.4772(10)
C8 C 0.5765(8) 0.3485(5) -0.1925(10)
C9 C 0.4905(9) 0.0619(6) 0.3058(11)
C10 C 0.4203(11) 0.0485(7) 0.3452(13)
H6 H 0.3817 0.0767 0.3556
C11 C 0.4047(14) -0.0102(8) 0.3716(16)
H7 H 0.3565 -0.0207 0.3986
C12 C 0.4617(12) -0.0472(9) 0.3556(15)
H8 H 0.4533 -0.0842 0.3765
C13 C 0.5296(13) -0.0383(9) 0.3134(16)
H9 H 0.5652 -0.0678 0.3007
C14 C 0.5466(12) 0.0205(7) 0.2872(14)
H10 H 0.5946 0.0296 0.2585
C15 C 0.8863(8) 0.2289(5) 0.1482(10)
C16 C 1.0507(8) 0.2124(5) 0.2295(11)
C17 C 1.0559(9) 0.1872(5) 0.3358(11)
H11 H 1.0083 0.1898 0.3684
C18 C 1.1325(9) 0.1580(6) 0.3942(13)
H12 H 1.1380 0.1414 0.4660
C19 C 1.1996(10) 0.1553(6) 0.3386(13)
H13 H 1.2508 0.1360 0.3763
C20 C 1.1976(10) 0.1771(6) 0.2395(13)
H14 H 1.2453 0.1733 0.2076
C21 C 1.1186(9) 0.2080(6) 0.1788(13)
H15 H 1.1146 0.2244 0.1071
C22 C 0.8219(8) 0.3402(5) 0.3281(10)
C23 C 0.9083(10) 0.4305(6) 0.3456(12)
C24 C 0.9843(16) 0.4489(11) 0.3291(19)
H16 H 1.0274 0.4233 0.3211
C25 C 0.9992(17) 0.5090(11) 0.324(2)
H17 H 1.0521 0.5218 0.3114
C26 C 0.9445(15) 0.5433(10) 0.3352(17)
H18 H 0.9584 0.5814 0.3314
C27 C 0.864(2) 0.5305(13) 0.353(2)
H19 H 0.8219 0.5575 0.3578
C28 C 0.8519(15) 0.4689(10) 0.3646(19)
H20 H 0.8022 0.4565 0.3861
Ag2C Ag 0.62451(6) 0.21513(4) -0.20469(9)
Ag3C Ag 0.69543(6) 0.33428(4) 0.55960(9)
Ag4C Ag 0.77426(6) 0.29496(4) -0.16507(9)
S1C S 0.5437(2) 0.16607(14) -0.0542(3)
S3C S 0.6807(2) 0.13195(14) 0.3881(3)
N1C N 0.4177(6) 0.2556(4) 0.4537(8)
N4C N 0.5499(6) 0.2258(4) 0.5334(8)
N5C N 0.5523(7) 0.2966(4) -0.2329(8)
N8C N 0.5050(6) 0.3812(4) -0.2184(8)
C7C C 0.5047(8) 0.2298(5) -0.0228(10)
C8C C 0.5765(8) 0.1515(5) 0.3075(10)
loop_
_geom_bond_atom_site_label_1
_geom_bond_atom_site_label_2
_geom_bond_site_symmetry_1
_geom_bond_site_symmetry_2
Ag1 Ag2 1_555 1_555
Ag2 Ag4 1_555 1_555
Ag3 Ag1 1_555 1_555
Ag4 S4 1_555 1_555
S1 Ag2 1_555 1_555
S2 Ag1 1_555 1_555
S3 Ag1 1_555 1_555
S4 Ag3 1_555 1_555
N1 N2 1_555 1_555
N2 N3 1_555 1_555
N3 N4 1_555 1_555
N4 Ag1 1_555 1_555
N5 Ag2 1_555 1_555
N6 N5 1_555 1_555
N7 N6 1_555 1_555
N8 N7 1_555 1_555
N9 N10 1_555 1_555
N10 N11 1_555 1_555
N11 N12 1_555 1_555
N12 Ag1 1_555 1_555
N13 Ag4 1_555 1_555
N14 N13 1_555 1_555
N15 N14 1_555 1_555
N16 N15 1_555 1_555
C1 N1 1_555 1_555
C2 C1 1_555 1_555
H1 C2 1_555 1_555
C3 C2 1_555 1_555
H2 C3 1_555 1_555
C4 C3 1_555 1_555
H3 C4 1_555 1_555
C5 C4 1_555 1_555
H4 C5 1_555 1_555
C6 C1 1_555 1_555
H5 C6 1_555 1_555
C7 S1 1_555 1_555
C8 S3 1_555 1_555
C9 N8 1_555 1_555
C10 C9 1_555 1_555
H6 C10 1_555 1_555
C11 C10 1_555 1_555
H7 C11 1_555 1_555
C12 C11 1_555 1_555
H8 C12 1_555 1_555
C13 C12 1_555 1_555
H9 C13 1_555 1_555
C14 C9 1_555 1_555
H10 C14 1_555 1_555
C15 S4 1_555 1_555
C16 N9 1_555 1_555
C17 C16 1_555 1_555
H11 C17 1_555 1_555
C18 C17 1_555 1_555
H12 C18 1_555 1_555
C19 C18 1_555 1_555
H13 C19 1_555 1_555
C20 C19 1_555 1_555
H14 C20 1_555 1_555
C21 C16 1_555 1_555
H15 C21 1_555 1_555
C22 S2 1_555 1_555
C23 N16 1_555 1_555
C24 C23 1_555 1_555
H16 C24 1_555 1_555
C25 C24 1_555 1_555
H17 C25 1_555 1_555
C26 C25 1_555 1_555
H18 C26 1_555 1_555
C27 C26 1_555 1_555
H19 C27 1_555 1_555
C28 C23 1_555 1_555
H20 C28 1_555 1_555
O1 C29 1_555 1_555
C29 H21 1_555 1_555
H22 C29 1_555 1_555
C30 H23 1_555 1_555
H24 C30 1_555 1_555
C31 C29 1_555 1_555
H25 C31 1_555 1_555
H26 C31 1_555 1_555
C32 O1 1_555 1_555
H27 C32 1_555 1_555
H28 C32 1_555 1_555
Ag2C Ag3 1_555 1_555
Ag3C Ag2 1_555 1_555
Ag4C S3 1_555 1_555
S1C Ag3 1_555 1_555
S3C Ag4 1_555 1_555
N1C C7 1_555 1_555
N4C C7 1_555 1_555
N5C C8 1_555 1_555
N8C C8 1_555 1_555
C7C N1 1_555 1_555
C8C N5 1_555 1_555
Ag2 S2 1_555 1_555
S1 Ag3C 1_555 1_555
N4 C7C 1_555 1_555
N8 C8C 1_555 1_555
N9 C15 1_555 1_555
N12 C15 1_555 1_555
N13 C22 1_555 1_555
N16 C22 1_555 1_555
C5 C6 1_555 1_555
C13 C14 1_555 1_555
C20 C21 1_555 1_555
C27 C28 1_555 1_555
C30 C31 1_555 1_555
C30 C32 1_555 1_555
Ag2C Ag4C 1_555 1_555
Ag2C S1C 1_555 1_555
Ag2C N5C 1_555 1_555
S1C C7C 1_555 1_555
S3C C8C 1_555 1_555

#END
