
#######################################################################
#
#                 Cambridge Crystallographic Data Centre
#                                CCDC 
#
#######################################################################
#
# If this CIF has been generated from an entry in the Cambridge 
# Structural Database, then it will include bibliographic, chemical, 
# crystal, experimental, refinement or atomic coordinate data resulting 
# from the CCDC's data processing and validation procedures.
#
#######################################################################

data_QEKGOC
_symmetry_cell_setting           tetragonal
_symmetry_space_group_name_H-M   'P 4/n'
_symmetry_Int_Tables_number      85
_space_group_name_Hall           '-P 4a'
loop_
_symmetry_equiv_pos_site_id
_symmetry_equiv_pos_as_xyz
1 x,y,z
2 1/2-y,x,z
3 1/2-x,1/2-y,z
4 y,1/2-x,z
5 -x,-y,-z
6 1/2+y,-x,-z
7 1/2+x,1/2+y,-z
8 -y,1/2+x,-z
_cell_length_a                   13.2862(7)
_cell_length_b                   13.2862(7)
_cell_length_c                   8.7665(4)
_cell_angle_alpha                90
_cell_angle_beta                 90
_cell_angle_gamma                90
_cell_volume                     1547.49
loop_
_atom_site_label
_atom_site_type_symbol
_atom_site_fract_x
_atom_site_fract_y
_atom_site_fract_z
Fe3 Fe 0.2500 0.2500 0.58166(10)
C5 C 0.3311(4) 0.2759(6) 0.3871(5)
C6 C 0.3433(13) 0.1970(11) 0.427(2)
C7 C 0.2891(6) 0.1744(5) 0.7735(5)
C8 C 0.1999(15) 0.1342(12) 0.736(2)
C5A C 0.2241(6) 0.3311(4) 0.3871(5)
C5B C 0.1689(4) 0.2241(6) 0.3871(5)
C5C C 0.2759(6) 0.1689(4) 0.3871(5)
C6C C 0.1970(11) 0.1567(13) 0.427(2)
C6B C 0.1567(13) 0.3030(11) 0.427(2)
C6A C 0.3030(11) 0.3433(13) 0.427(2)
C7A C 0.3256(5) 0.2891(6) 0.7735(5)
C7B C 0.2109(6) 0.3256(5) 0.7735(5)
C7C C 0.1744(5) 0.2109(6) 0.7735(5)
C8C C 0.1342(12) 0.3001(15) 0.736(2)
C8B C 0.3001(15) 0.3658(12) 0.736(2)
C8A C 0.3658(12) 0.1999(15) 0.736(2)
Fe1 Fe 0.7500 0.2500 0.0000
Fe2 Fe 0.7500 0.2500 0.5000
S1 S 0.62187(6) 0.31672(6) 0.15814(9)
N1 N 0.6407(2) 0.1738(2) 0.3812(3)
N2 N 0.5293(2) 0.1341(2) 0.2031(3)
C1 C 0.5963(2) 0.2049(2) 0.2521(4)
C2 C 0.6013(2) 0.0795(2) 0.4115(4)
C3 C 0.5330(3) 0.0543(3) 0.3028(4)
C4 C 0.4625(2) 0.1423(3) 0.0722(4)
H1 H 0.6200 0.0371 0.4986
H2 H 0.4941 -0.0083 0.2967
H3 H 0.4174 0.1999 0.0861
H4 H 0.5026 0.1519 -0.0205
H5 H 0.4226 0.0805 0.0628
S1B S 0.87813(6) 0.18328(6) 0.15814(9)
N1B N 0.8593(2) 0.3262(2) 0.3812(3)
N2B N 0.9707(2) 0.3659(2) 0.2031(3)
C1B C 0.9037(2) 0.2951(2) 0.2521(4)
C2B C 0.8987(2) 0.4205(2) 0.4115(4)
C3B C 0.9670(3) 0.4457(3) 0.3028(4)
C4B C 1.0375(2) 0.3577(3) 0.0722(4)
H1B H 0.8800 0.4629 0.4986
H2B H 1.0059 0.5083 0.2967
H3B H 1.0826 0.3001 0.0861
H4B H 0.9974 0.3481 -0.0205
H5B H 1.0774 0.4195 0.0628
S1E S 0.81672(6) 0.37813(6) -0.15814(9)
N1E N 0.6738(2) 0.3593(2) -0.3812(3)
N2E N 0.6341(2) 0.4707(2) -0.2031(3)
C1E C 0.7049(2) 0.4037(2) -0.2521(4)
C2E C 0.5795(2) 0.3987(2) -0.4115(4)
C3E C 0.5543(3) 0.4670(3) -0.3028(4)
C4E C 0.6423(3) 0.5375(2) -0.0722(4)
H1E H 0.5371 0.3800 -0.4986
H2E H 0.4917 0.5059 -0.2967
H3E H 0.6999 0.5826 -0.0861
H4E H 0.6519 0.4974 0.0205
H5E H 0.5805 0.5774 -0.0628
S1G S 0.68328(6) 0.12187(6) -0.15814(9)
N1G N 0.8262(2) 0.1407(2) -0.3812(3)
N2G N 0.8659(2) 0.0293(2) -0.2031(3)
C1G C 0.7951(2) 0.0963(2) -0.2521(4)
C2G C 0.9205(2) 0.1013(2) -0.4115(4)
C3G C 0.9457(3) 0.0330(3) -0.3028(4)
C4G C 0.8577(3) -0.0375(2) -0.0722(4)
H1G H 0.9629 0.1200 -0.4986
H2G H 1.0083 -0.0059 -0.2967
H3G H 0.8001 -0.0826 -0.0861
H4G H 0.8481 0.0026 0.0205
H5G H 0.9195 -0.0774 -0.0628
N1E_2 N 0.6738(2) 0.3593(2) 0.6188(3)
N1G_2 N 0.8262(2) 0.1407(2) 0.6188(3)
Fe2_2 Fe 0.7500 0.2500 -0.5000
loop_
_geom_bond_atom_site_label_1
_geom_bond_atom_site_label_2
_geom_bond_site_symmetry_1
_geom_bond_site_symmetry_2
Fe1 S1 1_555 1_555
Fe2 N1 1_555 1_555
Fe3 C5 1_555 1_555
S1 C1 1_555 1_555
N1 C1 1_555 1_555
N2 C1 1_555 1_555
C2 N1 1_555 1_555
C3 N2 1_555 1_555
C4 N2 1_555 1_555
C5 C6 1_555 1_555
C6 Fe3 1_555 1_555
C7 Fe3 1_555 1_555
C8 Fe3 1_555 1_555
H1 C2 1_555 1_555
H2 C3 1_555 1_555
H3 C4 1_555 1_555
H4 C4 1_555 1_555
H5 C4 1_555 1_555
C5A Fe3 1_555 1_555
C5B Fe3 1_555 1_555
C5C Fe3 1_555 1_555
C6C Fe3 1_555 1_555
C6B Fe3 1_555 1_555
C6A Fe3 1_555 1_555
C7A Fe3 1_555 1_555
C7B Fe3 1_555 1_555
C7C Fe3 1_555 1_555
C8C Fe3 1_555 1_555
C8B Fe3 1_555 1_555
C8A Fe3 1_555 1_555
S1B Fe1 1_555 1_555
N1B Fe2 1_555 1_555
N2B C1B 1_555 1_555
C1B S1B 1_555 1_555
C2B N1B 1_555 1_555
C3B N2B 1_555 1_555
C4B N2B 1_555 1_555
H1B C2B 1_555 1_555
H2B C3B 1_555 1_555
H3B C4B 1_555 1_555
H4B C4B 1_555 1_555
H5B C4B 1_555 1_555
S1E Fe1 1_555 1_555
N1E C1E 1_555 1_555
N2E C1E 1_555 1_555
C1E S1E 1_555 1_555
C2E N1E 1_555 1_555
C3E N2E 1_555 1_555
C4E N2E 1_555 1_555
H1E C2E 1_555 1_555
H2E C3E 1_555 1_555
H3E C4E 1_555 1_555
H4E C4E 1_555 1_555
H5E C4E 1_555 1_555
S1G Fe1 1_555 1_555
N1G C1G 1_555 1_555
N2G C1G 1_555 1_555
C1G S1G 1_555 1_555
C2G N1G 1_555 1_555
C3G N2G 1_555 1_555
C4G N2G 1_555 1_555
H1G C2G 1_555 1_555
H2G C3G 1_555 1_555
H3G C4G 1_555 1_555
H4G C4G 1_555 1_555
H5G C4G 1_555 1_555
N1E_2 Fe2 1_555 1_555
N1G_2 Fe2 1_555 1_555
Fe2_2 N1E 1_555 1_555
C2 C3 1_555 1_555
C5 C5A 1_555 1_555
C5 C5C 1_555 1_555
C5 C6A 1_555 1_555
C6 C5C 1_555 1_555
C7 C7A 1_555 1_555
C7 C8 1_555 1_555
C7 C7C 1_555 1_555
C7 C8A 1_555 1_555
C8 C7C 1_555 1_555
C5A C5B 1_555 1_555
C5A C6A 1_555 1_555
C5A C6B 1_555 1_555
C5B C5C 1_555 1_555
C5B C6B 1_555 1_555
C5B C6C 1_555 1_555
C5C C6C 1_555 1_555
C7A C7B 1_555 1_555
C7A C8A 1_555 1_555
C7A C8B 1_555 1_555
C7B C7C 1_555 1_555
C7B C8B 1_555 1_555
C7B C8C 1_555 1_555
C7C C8C 1_555 1_555
N1B C1B 1_555 1_555
C2B C3B 1_555 1_555
C2E C3E 1_555 1_555
N1G Fe2_2 1_555 1_555
C2G C3G 1_555 1_555

#END
