
#######################################################################
#
#                 Cambridge Crystallographic Data Centre
#                                CCDC 
#
#######################################################################
#
# If this CIF has been generated from an entry in the Cambridge 
# Structural Database, then it will include bibliographic, chemical, 
# crystal, experimental, refinement or atomic coordinate data resulting 
# from the CCDC's data processing and validation procedures.
#
#######################################################################

data_QEKKEY
_symmetry_cell_setting           orthorhombic
_symmetry_space_group_name_H-M   'P b c a'
_symmetry_Int_Tables_number      61
_space_group_name_Hall           '-P 2ac 2ab'
loop_
_symmetry_equiv_pos_site_id
_symmetry_equiv_pos_as_xyz
1 x,y,z
2 1/2-x,-y,1/2+z
3 -x,1/2+y,1/2-z
4 1/2+x,1/2-y,-z
5 -x,-y,-z
6 1/2+x,y,1/2-z
7 x,1/2-y,1/2+z
8 1/2-x,1/2+y,z
_cell_length_a                   11.9058(7)
_cell_length_b                   8.9589(6)
_cell_length_c                   15.0190(9)
_cell_angle_alpha                90
_cell_angle_beta                 90
_cell_angle_gamma                90
_cell_volume                     1601.97
loop_
_atom_site_label
_atom_site_type_symbol
_atom_site_fract_x
_atom_site_fract_y
_atom_site_fract_z
Co1 Co 0.0000 0.0000 0.5000
O1 O -0.16162(9) -0.00027(11) 0.55621(7)
O2 O 0.01290(8) 0.22501(11) 0.52799(8)
O3 O 0.18910(9) 0.28883(12) 0.49237(8)
N1 N -0.06787(10) 0.06274(13) 0.37025(8)
C1 C -0.16194(14) 0.00175(16) 0.33774(11)
C2 C -0.20951(17) 0.0454(2) 0.25756(13)
C3 C -0.15777(18) 0.1568(2) 0.20881(12)
C4 C -0.06055(17) 0.2200(2) 0.24106(11)
C5 C -0.01835(14) 0.16986(19) 0.32171(11)
C6 C 0.08800(12) 0.31939(15) 0.50990(9)
C7 C 0.05340(14) 0.48064(16) 0.50586(9)
H1 H -0.2041(18) 0.067(3) 0.5396(15)
H2 H -0.1861(19) -0.088(3) 0.5412(16)
H3 H 0.1187(19) 0.561(3) 0.5100(12)
H4 H -0.1945(16) -0.075(2) 0.3733(12)
H5 H -0.274(2) 0.002(2) 0.2381(18)
H6 H -0.188(2) 0.185(3) 0.1542(17)
H7 H -0.0168(17) 0.291(3) 0.2059(16)
H8 H 0.0454(17) 0.212(2) 0.3439(14)
Co1_2 Co 0.0000 1.0000 0.5000
O1D O 0.16162(9) 0.00027(11) 0.44379(7)
O2D O -0.01290(8) 0.77499(11) 0.47201(8)
O2D_2 O -0.01290(8) -0.22501(11) 0.47201(8)
O3D O -0.18910(9) 0.71117(12) 0.50763(8)
N1D N 0.06787(10) -0.06274(13) 0.62975(8)
C1D C 0.16194(14) -0.00175(16) 0.66226(11)
C2D C 0.20951(17) -0.0454(2) 0.74244(13)
C3D C 0.15777(18) -0.1568(2) 0.79119(12)
C4D C 0.06055(17) -0.2200(2) 0.75894(11)
C5D C 0.01835(14) -0.16986(19) 0.67829(11)
C6D C -0.08800(12) 0.68061(15) 0.49010(9)
C7D C -0.05340(14) 0.51936(16) 0.49414(9)
H1D H 0.2041(18) -0.067(3) 0.4604(15)
H2D H 0.1861(19) 0.088(3) 0.4588(16)
H3D H -0.1187(19) 0.439(3) 0.4900(12)
H4D H 0.1945(16) 0.075(2) 0.6267(12)
H5D H 0.274(2) -0.002(2) 0.7619(18)
H6D H 0.188(2) -0.185(3) 0.8458(17)
H7D H 0.0168(17) -0.291(3) 0.7941(16)
H8D H -0.0454(17) -0.212(2) 0.6561(14)
loop_
_geom_bond_atom_site_label_1
_geom_bond_atom_site_label_2
_geom_bond_site_symmetry_1
_geom_bond_site_symmetry_2
Co1 O1 1_555 1_555
O1 H1 1_555 1_555
O2 Co1 1_555 1_555
O3 C6 1_555 1_555
N1 Co1 1_555 1_555
C1 N1 1_555 1_555
C2 C1 1_555 1_555
C3 C2 1_555 1_555
C4 C3 1_555 1_555
C5 N1 1_555 1_555
C6 O2 1_555 1_555
C7 C6 1_555 1_555
H2 O1 1_555 1_555
H3 C7 1_555 1_555
H4 C1 1_555 1_555
H5 C2 1_555 1_555
H6 C3 1_555 1_555
H7 C4 1_555 1_555
H8 C5 1_555 1_555
Co1_2 O2D 1_555 1_555
O1D Co1 1_555 1_555
O2D C6D 1_555 1_555
O2D_2 Co1 1_555 1_555
O3D C6D 1_555 1_555
N1D Co1 1_555 1_555
C1D N1D 1_555 1_555
C2D C1D 1_555 1_555
C3D C2D 1_555 1_555
C4D C3D 1_555 1_555
C5D N1D 1_555 1_555
C6D C7D 1_555 1_555
C7D C7 1_555 1_555
H1D O1D 1_555 1_555
H2D O1D 1_555 1_555
H3D C7D 1_555 1_555
H4D C1D 1_555 1_555
H5D C2D 1_555 1_555
H6D C3D 1_555 1_555
H7D C4D 1_555 1_555
H8D C5D 1_555 1_555
C4 C5 1_555 1_555
C4D C5D 1_555 1_555

#END
