
#######################################################################
#
#                 Cambridge Crystallographic Data Centre
#                                CCDC 
#
#######################################################################
#
# If this CIF has been generated from an entry in the Cambridge 
# Structural Database, then it will include bibliographic, chemical, 
# crystal, experimental, refinement or atomic coordinate data resulting 
# from the CCDC's data processing and validation procedures.
#
#######################################################################

data_QEKLID
_symmetry_cell_setting           triclinic
_symmetry_space_group_name_H-M   'P -1'
_symmetry_Int_Tables_number      2
_space_group_name_Hall           '-P 1'
loop_
_symmetry_equiv_pos_site_id
_symmetry_equiv_pos_as_xyz
1 x,y,z
2 -x,-y,-z
_cell_length_a                   7.8681(8)
_cell_length_b                   10.1311(10)
_cell_length_c                   13.4927(14)
_cell_angle_alpha                68.376(2)
_cell_angle_beta                 79.855(2)
_cell_angle_gamma                70.823(2)
_cell_volume                     942.5
loop_
_atom_site_label
_atom_site_type_symbol
_atom_site_fract_x
_atom_site_fract_y
_atom_site_fract_z
O1 O 0.2990(6) 1.9469(4) 0.1716(3)
C1 C 0.3369(8) 1.8566(6) 0.1232(5)
C2 C 0.3300(7) 1.7011(6) 0.1834(4)
C3 C 0.3096(7) 1.6574(6) 0.2940(4)
H1 H 0.2977 1.7255 0.3277
Cd1 Cd 0.0000 1.5000 0.0000
Cd2 Cd 0.32722(6) 2.15623(4) 0.04344(3)
O2 O 0.3800(5) 1.8937(4) 0.0222(3)
O3 O 0.2990(5) 1.4017(4) 0.0422(3)
O4 O 0.3869(7) 1.2157(4) 0.1876(3)
O5 O 0.0799(6) 1.4724(5) 0.8440(3)
O6 O -0.0034(6) 1.2516(4) 0.0865(3)
C4 C 0.3413(7) 1.4578(6) 0.1911(4)
C5 C 0.3436(8) 1.3502(7) 0.1388(5)
C6 C 0.3439(7) 1.6017(6) 0.1310(4)
H2 H 0.3548 1.6316 0.0568
C7 C 0.3591(8) 1.3320(6) 0.5415(4)
H3 H 0.4352 1.2608 0.5131
C8 C 0.3274(8) 1.4135(6) 0.3027(4)
H4 H 0.3321 1.3155 0.3424
N1 N -0.1398(7) 1.1031(6) 0.2246(4)
C9 C 0.1290(8) 1.5422(7) 0.6264(5)
H5 H 0.0519 1.6139 0.6540
C10 C 0.2131(8) 1.4018(6) 0.6957(4)
C11 C 0.3067(7) 1.5134(6) 0.3556(4)
C12 C 0.1601(8) 1.5747(7) 0.5175(4)
H6 H 0.1013 1.6678 0.4723
C13 C 0.2766(8) 1.4716(6) 0.4744(4)
C14 C 0.3288(8) 1.2974(6) 0.6512(4)
H7 H 0.3864 1.2034 0.6958
C15 C -0.0785(10) 1.2166(8) 0.1794(6)
H8 H -0.0908 1.2779 0.2188
C16 C -0.1317(11) 1.0017(8) 0.1698(7)
H9 H -0.2486 0.9882 0.1753
H10 H -0.0464 0.9079 0.2019
H11 H -0.0948 1.0420 0.0958
C17 C -0.2200(13) 1.0700(11) 0.3343(7)
H12 H -0.2275 1.1481 0.3604
H13 H -0.1464 0.9779 0.3789
H14 H -0.3388 1.0622 0.3355
O7 O 0.2630(5) 1.2424(5) 0.8729(3)
C18 C 0.1840(7) 1.3679(6) 0.8144(4)
O1_2 O 0.2990(6) 1.9469(4) -0.8284(3)
C1_2 C 0.3369(8) 1.8566(6) -0.8768(5)
C2_2 C 0.3300(7) 1.7011(6) -0.8166(4)
C3_2 C 0.3096(7) 1.6574(6) -0.7060(4)
H1_2 H 0.2977 1.7255 -0.6723
Cd1_2 Cd 0.0000 1.5000 1.0000
Cd1_3 Cd 0.0000 1.5000 -1.0000
Cd2_2 Cd 0.32722(6) 2.15623(4) -0.95656(3)
Cd2A Cd 0.67278(6) 1.84377(4) -0.04344(3)
Cd2_3 Cd 0.32722(6) 1.15623(4) 0.04344(3)
Cd2_4 Cd 0.32722(6) 1.15623(4) 1.04344(3)
Cd2A_2 Cd 0.67278(6) 1.84377(4) -1.04344(3)
Cd2_5 Cd 0.32722(6) 1.15623(4) -0.95656(3)
Cd2A_3 Cd -0.32722(6) 1.84377(4) -0.04344(3)
O2_2 O 0.3800(5) 1.8937(4) -0.9778(3)
O2A O 0.6200(5) 2.1063(4) -0.0222(3)
O2A_2 O 0.6200(5) 2.1063(4) -1.0222(3)
O3_2 O 0.2990(5) 1.4017(4) -0.9578(3)
O3A O -0.2990(5) 1.5983(4) -0.0422(3)
O3_3 O 0.2990(5) 2.4017(4) 0.0422(3)
O3_4 O 0.2990(5) 2.4017(4) -0.9578(3)
O4_2 O 0.3869(7) 1.2157(4) -0.8124(3)
O4_3 O 0.3869(7) 2.2157(4) 0.1876(3)
O4_4 O 0.3869(7) 2.2157(4) -0.8124(3)
O5_2 O 0.0799(6) 1.4724(5) -0.1560(3)
O5A O -0.0799(6) 1.5276(5) 0.1560(3)
O6A O 0.0034(6) 1.7484(4) -0.0865(3)
O6_2 O -0.0034(6) 2.2516(4) 0.0865(3)
O6_3 O -0.0034(6) 2.2516(4) -0.9135(3)
C4_2 C 0.3413(7) 1.4578(6) -0.8089(4)
C5_2 C 0.3436(8) 1.3502(7) -0.8612(5)
C6_2 C 0.3439(7) 1.6017(6) -0.8690(4)
H2_2 H 0.3548 1.6316 -0.9432
C7_2 C 0.3591(8) 1.3320(6) -0.4585(4)
H3_2 H 0.4352 1.2608 -0.4869
C8_2 C 0.3274(8) 1.4135(6) -0.6973(4)
H4_2 H 0.3321 1.3155 -0.6576
N1A N 0.1398(7) 1.8969(6) -0.2246(4)
C9_2 C 0.1290(8) 1.5422(7) -0.3736(5)
H5_2 H 0.0519 1.6139 -0.3460
C10_2 C 0.2131(8) 1.4018(6) -0.3043(4)
C11_2 C 0.3067(7) 1.5134(6) -0.6444(4)
C12_2 C 0.1601(8) 1.5747(7) -0.4825(4)
H6_2 H 0.1013 1.6678 -0.5277
C13_2 C 0.2766(8) 1.4716(6) -0.5256(4)
C14_2 C 0.3288(8) 1.2974(6) -0.3488(4)
H7_2 H 0.3864 1.2034 -0.3042
C15A C 0.0785(10) 1.7834(8) -0.1794(6)
H8A H 0.0908 1.7221 -0.2188
C16A C 0.1317(11) 1.9983(8) -0.1698(7)
H9A H 0.2486 2.0118 -0.1753
H10A H 0.0464 2.0921 -0.2019
H11A H 0.0948 1.9580 -0.0958
C17A C 0.2200(13) 1.9300(11) -0.3343(7)
H12A H 0.2275 1.8519 -0.3604
H13A H 0.1464 2.0221 -0.3789
H14A H 0.3388 1.9378 -0.3355
O7_2 O 0.2630(5) 1.2424(5) -0.1271(3)
O7_3 O 0.2630(5) 2.2424(5) -0.1271(3)
O7_4 O 0.2630(5) 2.2424(5) -1.1271(3)
C18_2 C 0.1840(7) 1.3679(6) -0.1856(4)
O8 O 0.2511(14) 0.0156(12) 0.3812(9)
H15 H 0.2967 0.0852 0.3435
H16 H 0.2544 -0.0354 0.3427
loop_
_geom_bond_atom_site_label_1
_geom_bond_atom_site_label_2
_geom_bond_site_symmetry_1
_geom_bond_site_symmetry_2
O1 C1 1_555 1_555
C1 C2 1_555 1_555
C2 C3 1_555 1_555
C3 H1 1_555 1_555
Cd1 O3 1_555 1_555
Cd2 O1 1_555 1_555
O2 C1 1_555 1_555
O3 C5 1_555 1_555
O4 C5 1_555 1_555
O5 C18 1_555 1_555
O6 Cd1 1_555 1_555
C4 C5 1_555 1_555
C6 C2 1_555 1_555
H2 C6 1_555 1_555
C7 H3 1_555 1_555
C8 C4 1_555 1_555
H4 C8 1_555 1_555
N1 C15 1_555 1_555
C9 H5 1_555 1_555
C10 C9 1_555 1_555
C11 C3 1_555 1_555
C12 C9 1_555 1_555
H6 C12 1_555 1_555
C13 C7 1_555 1_555
C14 C7 1_555 1_555
H7 C14 1_555 1_555
C15 O6 1_555 1_555
H8 C15 1_555 1_555
C16 N1 1_555 1_555
H9 C16 1_555 1_555
H10 C16 1_555 1_555
H11 C16 1_555 1_555
C17 N1 1_555 1_555
H12 C17 1_555 1_555
H13 C17 1_555 1_555
H14 C17 1_555 1_555
O7 C18 1_555 1_555
O8 H15 1_555 1_555
H16 O8 1_555 1_555
C18 C10 1_555 1_555
O1_2 C1_2 1_555 1_555
C1_2 C2_2 1_555 1_555
C2_2 C3_2 1_555 1_555
C3_2 H1_2 1_555 1_555
Cd1_2 O5 1_555 1_555
Cd1_3 O3_2 1_555 1_555
Cd2_2 O1_2 1_555 1_555
Cd2A O2 1_555 1_555
Cd2_3 O3 1_555 1_555
Cd2_4 O7 1_555 1_555
Cd2A_2 O2_2 1_555 1_555
Cd2_5 O3_2 1_555 1_555
Cd2A_3 O3A 1_555 1_555
O2_2 C1_2 1_555 1_555
O2A Cd2 1_555 1_555
O2A_2 Cd2_2 1_555 1_555
O3_2 C5_2 1_555 1_555
O3A Cd1 1_555 1_555
O3_3 Cd2 1_555 1_555
O3_4 Cd2_2 1_555 1_555
O4_2 Cd2_5 1_555 1_555
O4_3 Cd2 1_555 1_555
O4_4 Cd2_2 1_555 1_555
O5_2 Cd1 1_555 1_555
O5A Cd1 1_555 1_555
O6A Cd1 1_555 1_555
O6_2 Cd2 1_555 1_555
O6_3 Cd2_2 1_555 1_555
C4_2 C5_2 1_555 1_555
C5_2 O4_2 1_555 1_555
C6_2 C2_2 1_555 1_555
H2_2 C6_2 1_555 1_555
C7_2 H3_2 1_555 1_555
C8_2 C4_2 1_555 1_555
H4_2 C8_2 1_555 1_555
N1A C15A 1_555 1_555
C9_2 H5_2 1_555 1_555
C10_2 C9_2 1_555 1_555
C11_2 C3_2 1_555 1_555
C12_2 C9_2 1_555 1_555
H6_2 C12_2 1_555 1_555
C13_2 C7_2 1_555 1_555
C14_2 C7_2 1_555 1_555
H7_2 C14_2 1_555 1_555
C15A O6A 1_555 1_555
H8A C15A 1_555 1_555
C16A N1A 1_555 1_555
H9A C16A 1_555 1_555
H10A C16A 1_555 1_555
H11A C16A 1_555 1_555
C17A N1A 1_555 1_555
H12A C17A 1_555 1_555
H13A C17A 1_555 1_555
H14A C17A 1_555 1_555
O7_2 Cd2_3 1_555 1_555
O7_3 Cd2 1_555 1_555
O7_4 Cd2_2 1_555 1_555
C18_2 O5_2 1_555 1_555
Cd2 O2 1_555 1_555
O4 Cd2_3 1_555 1_555
O6 Cd2_3 1_555 1_555
C4 C6 1_555 1_555
C8 C11 1_555 1_555
C10 C14 1_555 1_555
C11 C13 1_555 1_555
C12 C13 1_555 1_555
Cd2_2 O2_2 1_555 1_555
Cd2A O2A 1_555 1_555
Cd2A_2 O2A_2 1_555 1_555
Cd2A_3 O6A 1_555 1_555
C4_2 C6_2 1_555 1_555
C8_2 C11_2 1_555 1_555
C10_2 C14_2 1_555 1_555
C10_2 C18_2 1_555 1_555
C11_2 C13_2 1_555 1_555
C12_2 C13_2 1_555 1_555
O7_2 C18_2 1_555 1_555

#END
