
#######################################################################
#
#                 Cambridge Crystallographic Data Centre
#                                CCDC 
#
#######################################################################
#
# If this CIF has been generated from an entry in the Cambridge 
# Structural Database, then it will include bibliographic, chemical, 
# crystal, experimental, refinement or atomic coordinate data resulting 
# from the CCDC's data processing and validation procedures.
#
#######################################################################

data_QEKLEZ
_symmetry_cell_setting           triclinic
_symmetry_space_group_name_H-M   'P -1'
_symmetry_Int_Tables_number      2
_space_group_name_Hall           '-P 1'
loop_
_symmetry_equiv_pos_site_id
_symmetry_equiv_pos_as_xyz
1 x,y,z
2 -x,-y,-z
_cell_length_a                   6.973(4)
_cell_length_b                   10.019(6)
_cell_length_c                   13.116(8)
_cell_angle_alpha                95.369(11)
_cell_angle_beta                 100.034(10)
_cell_angle_gamma                97.626(13)
_cell_volume                     887.905
loop_
_atom_site_label
_atom_site_type_symbol
_atom_site_fract_x
_atom_site_fract_y
_atom_site_fract_z
O1 O 0.2820(11) 1.3224(7) 0.4511(5)
O2 O 0.2476(11) 1.2419(7) 0.5977(5)
C1 C 0.2682(13) 1.2248(9) 0.5052(7)
C2 C 0.2651(13) 1.0842(9) 0.4569(7)
C3 C 0.2424(14) 0.9768(9) 0.5167(6)
H1 H 0.2334 0.9936 0.5866
Cd1 Cd 0.20266(11) 1.46246(7) 0.59302(5)
O3 O 0.1497(10) 0.6130(6) 0.4835(5)
O4 O 0.5163(10) 1.5502(8) 0.6821(5)
H2 H 0.5802 1.5946 0.6434
H3 H 0.5067 1.6050 0.7338
O5 O 0.2334(12) 0.7496(7) 0.6313(5)
O6 O 0.4678(13) 0.7196(9) -0.1385(6)
C4 C 0.2036(13) 0.7315(9) 0.5345(7)
O7 O 0.2679(12) 0.8684(8) -0.1829(5)
C5 C 0.2783(14) 0.9262(9) 0.3083(6)
C6 C 0.2334(13) 0.8468(9) 0.4716(6)
N1 N 0.1000(11) 1.4691(8) 0.7465(6)
C7 C 0.0202(14) 1.4952(11) 0.9471(7)
C8 C 0.2549(14) 0.8212(10) 0.3694(6)
C9 C 0.2991(15) 0.8965(9) 0.1996(7)
C10 C 0.3419(15) 0.8376(11) -0.0058(7)
C11 C 0.3957(17) 0.7920(12) 0.1719(7)
C12 C 0.2849(14) 1.0567(10) 0.3547(7)
C13 C 0.2227(16) 0.9721(11) 0.1234(7)
C14 C 0.2453(17) 0.9405(12) 0.0220(8)
H4 H 0.1929 0.9911 -0.0289
C15 C -0.0510(18) 1.5719(13) 0.8734(8)
C16 C 0.4157(17) 0.7611(14) 0.0700(8)
C17 C 0.3690(17) 0.8022(12) -0.1145(7)
C18 C -0.0063(17) 1.5570(12) 0.7761(8)
H5 H -0.0547 1.6130 0.7283
C19 C 0.123(2) 1.3964(16) 0.9141(9)
H6 H 0.1686 1.3373 0.9599
C20 C 0.157(3) 1.3844(17) 0.8135(9)
H7 H 0.422(10) 0.725(8) 0.217(6)
H8 H 0.157(12) 1.054(10) 0.150(7)
H9 H 0.468(12) 0.687(10) 0.051(7)
H10 H 0.316(15) 1.133(11) 0.303(9)
H11 H 0.232(14) 0.716(11) 0.342(8)
H12 H -0.138(15) 1.650(11) 0.893(8)
H13 H 0.235(14) 1.331(11) 0.796(8)
O1_2 O 0.2820(11) 2.3224(7) 0.4511(5)
O2_2 O 0.2476(11) 2.2419(7) 0.5977(5)
C1_2 C 0.2682(13) 2.2248(9) 0.5052(7)
C2_2 C 0.2651(13) 2.0842(9) 0.4569(7)
C3_2 C 0.2424(14) 1.9768(9) 0.5167(6)
H1_2 H 0.2334 1.9936 0.5866
Cd1_2 Cd 0.20266(11) 2.46246(7) 0.59302(5)
Cd1_3 Cd 0.20266(11) 0.46246(7) 0.59302(5)
Cd1A Cd -0.20266(11) 0.53754(7) 0.40698(5)
Cd1A_2 Cd -0.20266(11) 1.53754(7) 1.40698(5)
Cd1A_3 Cd -0.20266(11) 1.53754(7) 0.40698(5)
O3_2 O 0.1497(10) 1.6130(6) 0.4835(5)
O3A O -0.1497(10) 1.3870(6) 0.5165(5)
O3_3 O 0.1497(10) 2.6130(6) 0.4835(5)
O3A_2 O -0.1497(10) 2.3870(6) 0.5165(5)
O4_2 O 0.5163(10) 2.5502(8) 0.6821(5)
H2_2 H 0.5802 2.5946 0.6434
H3_2 H 0.5067 2.6050 0.7338
O5_2 O 0.2334(12) 1.7496(7) 0.6313(5)
O6_2 O 0.4678(13) 1.7196(9) -0.1385(6)
C4_2 C 0.2036(13) 1.7315(9) 0.5345(7)
O7_2 O 0.2679(12) 1.8684(8) -0.1829(5)
C5_2 C 0.2783(14) 1.9262(9) 0.3083(6)
C6_2 C 0.2334(13) 1.8468(9) 0.4716(6)
N1A N -0.1000(11) 1.5309(8) 1.2535(6)
N1_2 N 0.1000(11) 2.4691(8) 0.7465(6)
C7A C -0.0202(14) 1.5048(11) 1.0529(7)
C8_2 C 0.2549(14) 1.8212(10) 0.3694(6)
C9_2 C 0.2991(15) 1.8965(9) 0.1996(7)
C10_2 C 0.3419(15) 1.8376(11) -0.0058(7)
C11_2 C 0.3957(17) 1.7920(12) 0.1719(7)
C12_2 C 0.2849(14) 2.0567(10) 0.3547(7)
C13_2 C 0.2227(16) 1.9721(11) 0.1234(7)
C14_2 C 0.2453(17) 1.9405(12) 0.0220(8)
H4_2 H 0.1929 1.9911 -0.0289
C15A C 0.0510(18) 1.4281(13) 1.1266(8)
C16_2 C 0.4157(17) 1.7611(14) 0.0700(8)
C17_2 C 0.3690(17) 1.8022(12) -0.1145(7)
C18A C 0.0063(17) 1.4430(12) 1.2239(8)
H5A H 0.0547 1.3870 1.2717
C19A C -0.123(2) 1.6036(16) 1.0859(9)
H6A H -0.1686 1.6627 1.0401
C20A C -0.157(3) 1.6156(17) 1.1865(9)
H7_2 H 0.422(10) 1.725(8) 0.217(6)
H8_2 H 0.157(12) 2.054(10) 0.150(7)
H9_2 H 0.468(12) 1.687(10) 0.051(7)
H10_2 H 0.316(15) 2.133(11) 0.303(9)
H11_2 H 0.232(14) 1.716(11) 0.342(8)
H12A H 0.138(15) 1.350(11) 1.107(8)
H13A H -0.235(14) 1.669(11) 1.204(8)
loop_
_geom_bond_atom_site_label_1
_geom_bond_atom_site_label_2
_geom_bond_site_symmetry_1
_geom_bond_site_symmetry_2
O1 C1 1_555 1_555
O2 C1 1_555 1_555
C1 C2 1_555 1_555
C2 C3 1_555 1_555
C3 H1 1_555 1_555
Cd1 O1 1_555 1_555
O3 C4 1_555 1_555
O4 Cd1 1_555 1_555
H2 O4 1_555 1_555
H3 O4 1_555 1_555
O5 C4 1_555 1_555
O6 C17 1_555 1_555
C4 C6 1_555 1_555
O7 C17 1_555 1_555
C5 C8 1_555 1_555
C6 C3 1_555 1_555
N1 Cd1 1_555 1_555
C7 C15 1_555 1_555
C8 C6 1_555 1_555
C9 C5 1_555 1_555
C10 C14 1_555 1_555
C11 C9 1_555 1_555
C12 C2 1_555 1_555
C13 C9 1_555 1_555
C14 C13 1_555 1_555
H4 C14 1_555 1_555
C15 C18 1_555 1_555
C16 C10 1_555 1_555
C17 C10 1_555 1_555
C18 N1 1_555 1_555
H5 C18 1_555 1_555
C19 C7 1_555 1_555
H6 C19 1_555 1_555
C20 N1 1_555 1_555
H7 C11 1_555 1_555
H8 C13 1_555 1_555
H9 C16 1_555 1_555
H10 C12 1_555 1_555
H11 C8 1_555 1_555
H12 C15 1_555 1_555
H13 C20 1_555 1_555
O1_2 C1_2 1_555 1_555
O2_2 C1_2 1_555 1_555
C1_2 C2_2 1_555 1_555
C2_2 C3_2 1_555 1_555
C3_2 H1_2 1_555 1_555
Cd1_2 O1_2 1_555 1_555
Cd1_3 O3 1_555 1_555
Cd1A O3 1_555 1_555
Cd1A_2 N1A 1_555 1_555
Cd1A_3 O3_2 1_555 1_555
O3_2 Cd1 1_555 1_555
O3A Cd1 1_555 1_555
O3_3 Cd1_2 1_555 1_555
O3A_2 Cd1_2 1_555 1_555
O4_2 Cd1_2 1_555 1_555
H2_2 O4_2 1_555 1_555
H3_2 O4_2 1_555 1_555
O5_2 C4_2 1_555 1_555
O6_2 C17_2 1_555 1_555
C4_2 O3_2 1_555 1_555
O7_2 C17_2 1_555 1_555
C5_2 C8_2 1_555 1_555
C6_2 C3_2 1_555 1_555
N1A C18A 1_555 1_555
N1_2 Cd1_2 1_555 1_555
C7A C7 1_555 1_555
C8_2 C6_2 1_555 1_555
C9_2 C5_2 1_555 1_555
C10_2 C14_2 1_555 1_555
C11_2 C9_2 1_555 1_555
C12_2 C2_2 1_555 1_555
C13_2 C9_2 1_555 1_555
C14_2 C13_2 1_555 1_555
H4_2 C14_2 1_555 1_555
C15A C7A 1_555 1_555
C16_2 C10_2 1_555 1_555
C17_2 C10_2 1_555 1_555
C18A C15A 1_555 1_555
H5A C18A 1_555 1_555
C19A C7A 1_555 1_555
H6A C19A 1_555 1_555
C20A N1A 1_555 1_555
H7_2 C11_2 1_555 1_555
H8_2 C13_2 1_555 1_555
H9_2 C16_2 1_555 1_555
H10_2 C12_2 1_555 1_555
H11_2 C8_2 1_555 1_555
H12A C15A 1_555 1_555
H13A C20A 1_555 1_555
O2 Cd1 1_555 1_555
C5 C12 1_555 1_555
C11 C16 1_555 1_555
C19 C20 1_555 1_555
O2_2 Cd1_2 1_555 1_555
Cd1A_3 O3A 1_555 1_555
C4_2 C6_2 1_555 1_555
C5_2 C12_2 1_555 1_555
C11_2 C16_2 1_555 1_555
C19A C20A 1_555 1_555

#END
