
#######################################################################
#
#                 Cambridge Crystallographic Data Centre
#                                CCDC 
#
#######################################################################
#
# If this CIF has been generated from an entry in the Cambridge 
# Structural Database, then it will include bibliographic, chemical, 
# crystal, experimental, refinement or atomic coordinate data resulting 
# from the CCDC's data processing and validation procedures.
#
#######################################################################

data_QEKLOJ
_symmetry_cell_setting           triclinic
_symmetry_space_group_name_H-M   'P -1'
_symmetry_Int_Tables_number      2
_space_group_name_Hall           '-P 1'
loop_
_symmetry_equiv_pos_site_id
_symmetry_equiv_pos_as_xyz
1 x,y,z
2 -x,-y,-z
_cell_length_a                   15.421(2)
_cell_length_b                   17.915(3)
_cell_length_c                   19.673(3)
_cell_angle_alpha                76.245(3)
_cell_angle_beta                 76.861(4)
_cell_angle_gamma                75.649(3)
_cell_volume                     5031.86
loop_
_atom_site_label
_atom_site_type_symbol
_atom_site_fract_x
_atom_site_fract_y
_atom_site_fract_z
C1 C 0.1085(5) 1.0466(4) 0.4115(4)
Mn1 Mn 0.22316(8) 0.99708(7) 0.71423(6)
Mn2 Mn 0.23679(7) 0.97609(7) 1.21717(6)
Mn3 Mn -0.00730(7) 1.00739(6) 0.74980(6)
Mn4 Mn 0.45111(8) 0.41207(7) 0.85476(7)
Mn5 Mn 0.55020(8) 0.60474(7) 0.70609(7)
O1 O 0.0985(3) 1.0353(3) 0.6580(3)
O2 O 0.2423(3) 0.9852(3) 1.0874(3)
O3 O 0.2307(3) 0.9913(3) 0.5941(3)
O4 O 0.1164(3) 1.0202(3) 1.1600(3)
O5 O 0.2155(4) 0.8775(3) 0.7460(3)
O6 O 0.2266(4) 0.8586(3) 1.2416(3)
O7 O 0.0651(3) 0.8884(3) 0.7642(3)
O8 O 0.1067(4) 1.0235(3) 0.2975(3)
O9 O 0.2373(4) 0.9877(3) 0.3332(3)
O10 O 0.3470(4) 0.4947(3) 1.2694(3)
O11 O 0.2221(4) 1.0147(3) 0.8244(3)
O12 O 0.0847(4) 1.0414(3) 0.8010(3)
O13 O 0.0759(4) 0.8731(3) 1.2646(4)
O14 O 0.3510(4) 0.5119(3) 0.8263(3)
O15 O 0.4367(5) 0.3546(4) 0.7695(4)
C2 C 0.1391(6) 1.0367(4) 0.8414(4)
C3 C 0.1477(5) 1.0228(4) 0.5981(4)
O16 O 0.4136(4) 0.6073(3) 0.7537(3)
C4 C 0.1001(5) 1.0593(4) 0.9130(4)
O17 O 0.5662(4) 0.6418(4) 0.7991(4)
H1 H 0.5223 0.6565 0.8313
H2 H 0.6080 0.6108 0.8196
C5 C 0.1503(5) 1.0220(4) 0.4716(4)
H3 H 0.2075 0.9890 0.4698
O18 O -0.3800(4) 1.4089(3) 1.0116(4)
H4 H -0.3346 1.4262 1.0091
C6 C 0.1573(5) 0.7604(4) 0.7777(4)
N1 N 0.3910(4) 0.9399(4) 1.2021(3)
O19 O 0.5334(5) 0.5438(4) 0.6230(4)
H5 H 0.512(7) 0.529(6) 0.646(5)
C7 C 0.0207(5) 1.0989(4) 0.5362(4)
H6 H -0.0082 1.1163 0.5782
C8 C 0.4345(5) 1.0022(5) 1.1762(4)
H7 H 0.3789 0.3779 0.7759
C9 C 0.0238(5) 1.0961(4) 0.4146(4)
H8 H -0.0039 1.1108 0.3747
C10 C 0.2533(5) 0.6319(4) 0.7919(4)
C11 C 0.1047(5) 1.0478(5) 0.5337(4)
O20 O 0.4156(4) 0.5889(3) 1.2051(4)
C12 C 0.1596(5) 1.0140(4) 1.0959(4)
C13 C -0.1150(5) 1.1793(4) 1.0030(4)
N2 N 0.5073(4) 0.2895(4) 0.9105(4)
C14 C 0.1782(5) 0.5926(5) 1.2458(5)
H9 H 0.1826 0.5401 1.2450
C15 C 0.1096(5) 1.0469(4) 1.0366(4)
O21 O 0.4778(4) 0.4644(4) 0.9330(4)
H10 H 0.5209 0.4460 0.9564
N3 N 0.4953(5) 0.7221(4) 0.6337(4)
C16 C 0.0874(5) 0.7206(5) 1.2520(4)
C17 C -0.0208(5) 1.1244(4) 0.4763(4)
C18 C 0.3470(5) 0.5629(5) 1.2368(4)
C19 C 0.2569(5) 0.6195(4) 1.2410(4)
C20 C 0.4477(5) 0.2398(5) 0.9363(4)
C21 C 0.2438(5) 0.7133(4) 0.7771(4)
H11 H 0.2946 0.7357 0.7669
N4 N 0.2890(4) 1.0889(4) 1.1765(4)
C22 C -0.2815(5) 1.2823(5) 1.0296(4)
C23 C -0.1409(5) 1.2455(5) 0.9518(4)
H12 H -0.1020 1.2556 0.9086
C24 C 0.3525(6) 0.2733(5) 0.9386(4)
C25 C 0.1482(5) 1.0308(5) 0.9694(5)
O22 O -0.4295(4) 1.3144(4) 1.0957(4)
C26 C 0.0138(5) 1.1065(5) 0.9242(4)
N5 N 0.3292(5) 0.3526(4) 0.9175(4)
C27 C 0.1451(5) 0.8499(4) 0.7613(4)
C28 C 0.2498(5) 0.6985(5) 1.2421(4)
O23 O -0.2397(4) 0.4736(4) 0.9685(4)
O24 O -0.3705(4) 1.4050(4) 0.4262(4)
H13 H -0.4226 1.4181 0.4182
C29 C -0.2577(5) 1.2157(5) 1.0802(4)
H14 H -0.2974 1.2047 1.1228
C30 C -0.2769(6) 1.2903(5) 0.4772(5)
N6 N 0.6711(5) 0.6631(4) 0.6439(4)
C31 C 0.0028(6) 0.5500(5) 0.8904(6)
H15 H 0.0516 0.5299 0.9143
C32 C -0.0235(5) 1.1267(4) 0.9914(4)
C33 C 0.0819(5) 0.7265(4) 0.7932(5)
H16 H 0.0246 0.7588 0.7925
N7 N 0.2552(6) 1.1173(5) 0.6687(4)
C34 C 0.0940(5) 0.6416(5) 1.2518(5)
C35 C -0.2237(6) 1.2960(5) 0.9649(5)
C36 C 0.1555(5) 0.8337(4) 1.2520(4)
C37 C 0.5580(6) 0.7674(5) 0.5973(4)
O25 O -0.4286(4) 1.3373(4) 0.5281(4)
C38 C -0.2569(6) 1.2383(5) 0.5384(5)
H17 H -0.2999 1.2391 0.5801
C39 C 0.1535(5) 1.0169(5) 0.3438(4)
N8 N 0.3741(5) 0.9813(6) 0.6939(4)
C40 C 0.4092(6) 0.7501(5) 0.6286(4)
H18 H 0.3674 0.7191 0.6530
C41 C 0.3477(5) 0.5800(5) 0.7908(5)
C42 C -0.3708(6) 1.3398(5) 1.0475(5)
C43 C 0.0895(5) 0.6464(5) 0.8096(5)
C44 C 0.3763(7) 0.8238(5) 0.5887(5)
H19 H 0.3147 0.8410 0.5869
C45 C 0.3812(6) 1.0800(5) 1.1629(4)
C46 C -0.0656(6) 0.6505(5) 1.2326(5)
H20 H -0.0634 0.6980 1.2010
C47 C 0.0089(5) 0.6099(5) 0.8310(5)
C48 C 0.0093(5) 0.6098(5) 1.2618(5)
C49 C -0.1746(5) 1.1663(5) 1.0664(4)
H21 H -0.1581 1.1226 1.1009
C50 C -0.1484(6) 0.5465(5) 0.8794(5)
C51 C 0.6512(6) 0.7362(5) 0.6028(5)
C52 C 0.6860(8) 0.8569(6) 0.5260(5)
H22 H 0.7294 0.8862 0.5014
C53 C -0.1489(5) 0.5524(5) 1.2985(5)
C54 C 0.5965(6) 0.2581(5) 0.9104(5)
H23 H 0.6379 0.2913 0.8951
C55 C 0.1641(5) 0.7494(4) 1.2494(4)
C56 C 0.7586(6) 0.6364(7) 0.6481(6)
H24 H 0.7749 0.5860 0.6740
C57 C 0.4772(6) 0.1584(5) 0.9598(4)
C58 C -0.2129(6) 1.2856(5) 0.4150(5)
H25 H -0.2251 1.3193 0.3728
C59 C 0.4366(7) 0.8686(5) 0.5531(5)
H26 H 0.4163 0.9178 0.5266
C60 C -0.2369(6) 0.5253(6) 1.3208(5)
C61 C -0.1096(6) 1.1812(5) 0.4767(5)
C62 C 0.1764(5) 0.5996(5) 0.8090(5)
H27 H 0.1829 0.5453 0.8203
C63 C -0.1315(5) 1.2314(5) 0.4153(5)
H28 H -0.0904 1.2287 0.3728
C64 C -0.3658(6) 1.3478(5) 0.4779(6)
O26 O -0.2313(5) 0.4605(5) 1.3676(5)
C65 C 0.4257(7) 1.1435(6) 1.1384(5)
C66 C 0.0061(6) 0.5375(5) 1.3076(6)
H29 H 0.0572 0.5086 1.3264
C67 C 0.5700(7) 0.1298(5) 0.9551(5)
H30 H 0.5922 0.0761 0.9678
C68 C 0.5790(6) 0.9128(7) 1.1798(5)
H31 H 0.6422 0.9030 1.1730
C69 C -0.0625(6) 0.6347(5) 0.7938(5)
H32 H -0.0586 0.6729 0.7525
C70 C 0.6286(6) 0.1793(5) 0.9320(5)
H33 H 0.6906 0.1599 0.9308
O27 O -0.2970(5) 0.5383(6) 0.8734(4)
H34 H -0.2768 0.5320 0.8324
C71 C -0.1750(6) 1.1853(5) 0.5395(5)
H35 H -0.1629 1.1520 0.5819
C72 C 0.5349(6) 0.8527(6) 1.2047(5)
H36 H 0.5674 0.8014 1.2148
C73 C 0.3208(7) 0.1429(6) 0.9857(5)
H37 H 0.2787 0.1105 1.0025
C74 C 0.4398(6) 0.8683(5) 1.2153(5)
H38 H 0.4101 0.8265 1.2322
C75 C 0.8052(8) 0.7513(7) 0.5756(7)
H39 H 0.8500 0.7797 0.5525
C76 C 0.2900(6) 0.2240(6) 0.9621(5)
O28 O -0.3055(5) 0.5600(5) 1.3031(5)
C77 C -0.1386(6) 0.6034(6) 0.8174(6)
H40 H -0.1856 0.6206 0.7914
C78 C 0.5984(8) 0.8863(6) 0.5197(5)
H41 H 0.5822 0.9358 0.4922
C79 C 0.4095(7) 0.1115(5) 0.9845(5)
H42 H 0.4274 0.0577 1.0002
C80 C -0.2356(7) 0.5193(6) 0.9069(6)
C81 C 0.5726(6) 1.0563(7) 1.1371(4)
H45 H 0.6357 1.0485 1.1281
C82 C -0.0758(6) 0.5200(6) 0.9141(6)
H46 H -0.0794 0.4809 0.9547
C83 C 0.1979(7) 0.2600(7) 0.9639(6)
H47 H 0.1533 0.2301 0.9774
C84 C 0.2416(6) 0.3837(6) 0.9222(6)
H48 H 0.2238 0.4379 0.9092
C85 C 0.2408(7) 1.1604(5) 1.1631(5)
H49 H 0.1778 1.1672 1.1714
C86 C 0.5293(6) 0.9905(6) 1.1642(4)
C87 C 0.7147(7) 0.7826(6) 0.5688(5)
C88 C 0.5300(7) 0.8420(5) 0.5553(5)
C89 C -0.1446(6) 0.6211(6) 1.2502(5)
H52 H -0.1947 0.6479 1.2292
C90 C 0.4065(9) 1.0475(10) 0.6674(6)
C91 C 0.5219(7) 1.1299(7) 1.1247(5)
H53 H 0.5507 1.1722 1.1069
C92 C -0.0726(6) 0.5094(6) 1.3248(6)
H54 H -0.0743 0.4608 1.3545
C93 C 0.3700(8) 1.2180(6) 1.1253(6)
H55 H 0.3961 1.2620 1.1082
C94 C 0.3429(11) 1.1214(9) 0.6537(6)
C95 C 0.2785(8) 1.2264(6) 1.1373(6)
H56 H 0.2414 1.2759 1.1283
C96 C 0.4327(7) 0.9143(8) 0.7081(6)
H57 H 0.4092 0.8692 0.7275
C97 C 0.5021(11) 1.0477(14) 0.6513(8)
C98 C 0.1752(7) 0.3394(7) 0.9455(6)
H58 H 0.1142 0.3642 0.9487
C99 C 0.8281(7) 0.6778(8) 0.6170(8)
H59 H 0.8877 0.6566 0.6239
C100 C 0.5586(12) 0.9741(16) 0.6662(8)
H60 H 0.6212 0.9707 0.6554
C101 C 0.1960(11) 1.1845(7) 0.6546(6)
H61 H 0.1344 1.1832 0.6657
C102 C 0.2206(16) 1.2571(9) 0.6239(9)
H62 H 0.1774 1.3024 0.6129
C103 C 0.3132(19) 1.2577(12) 0.6108(9)
H63 H 0.3324 1.3048 0.5915
C104 C 0.473(2) 1.1882(15) 0.6125(15)
H64 H 0.4948 1.2342 0.5966
C105 C 0.5263(9) 0.9062(11) 0.6960(7)
H65 H 0.5649 0.8579 0.7073
C106 C 0.5280(17) 1.1214(18) 0.6229(13)
H66 H 0.5899 1.1214 0.6108
C107 C 0.3750(17) 1.1914(12) 0.6256(6)
H67 H 0.024(4) 0.757(3) 1.260(3)
H68 H 0.299(4) 0.722(3) 1.244(3)
H69 H -0.239(4) 1.345(3) 0.934(3)
C108 C 0.0240(5) 1.0953(5) 1.0462(4)
H70 H 0.201(5) 0.996(4) 0.961(4)
H71 H 0.479(7) 0.358(6) 0.730(6)
H72 H -0.016(5) 1.127(5) 0.883(4)
H79 H 0.014(4) 1.107(3) 1.088(3)
H80 H -0.285(6) 0.437(5) 1.378(5)
Mn2_2 Mn 0.23679(7) 0.97609(7) 0.21717(6)
Mn3A Mn 0.00730(7) 0.99261(6) 1.25020(6)
Mn3A_2 Mn 0.00730(7) 0.99261(6) 0.25020(6)
Mn4A Mn 0.54889(8) 0.58793(7) 1.14524(7)
Mn5A Mn 0.44980(8) 0.39526(7) 1.29391(7)
O4A O -0.1164(3) 0.9798(3) 0.8400(3)
O8_2 O 0.1067(4) 1.0235(3) 1.2975(3)
O8A O -0.1067(4) 0.9765(3) 0.7025(3)
O9_2 O 0.2373(4) 0.9877(3) 1.3332(3)
O10A O 0.6530(4) 0.5053(3) 0.7306(3)
O13A O -0.0759(4) 1.1269(3) 0.7354(4)
O20A O 0.5844(4) 0.4111(3) 0.7949(4)
O29 O 0.5967(5) 0.5671(4) 0.4799(4)
H43 H 0.5784 0.5596 0.5247
H44 H 0.6058 0.5234 0.4669
O30 O 0.4231(5) 0.6343(5) 0.3432(4)
H50 H 0.4378 0.5846 0.3486
H51 H 0.3667 0.6465 0.3599
C109 C 0.093(2) 0.6310(16) 0.4488(15)
H73 H 0.0525 0.5954 0.4594
H74 H 0.0822 0.6688 0.4064
H75 H 0.0835 0.6576 0.4877
N9 N 0.206(2) 0.516(3) 0.462(2)
C111 C 0.178(2) 0.5915(19) 0.4389(13)
C110? C 0.122(2) 0.4539(18) 0.4937(15)
H76? H 0.1569 0.4484 0.4473
H77? H 0.0967 0.4084 0.5148
H78? H 0.1618 0.4592 0.5230
N10? N -0.011(3) 0.637(2) 0.462(2)
C112? C 0.0377(18) 0.5351(18) 0.4865(15)
loop_
_geom_bond_atom_site_label_1
_geom_bond_atom_site_label_2
_geom_bond_site_symmetry_1
_geom_bond_site_symmetry_2
C1 C5 1_555 1_555
Mn1 O1 1_555 1_555
Mn2 O2 1_555 1_555
Mn3 O1 1_555 1_555
Mn4 O14 1_555 1_555
Mn5 O16 1_555 1_555
O1 C3 1_555 1_555
O2 C12 1_555 1_555
O3 Mn1 1_555 1_555
O4 Mn2 1_555 1_555
O5 Mn1 1_555 1_555
O6 Mn2 1_555 1_555
O7 Mn3 1_555 1_555
O8 C39 1_555 1_555
O9 C39 1_555 1_555
O10 C18 1_555 1_555
O11 Mn1 1_555 1_555
O12 Mn1 1_555 1_555
O13 C36 1_555 1_555
O14 C41 1_555 1_555
O15 Mn4 1_555 1_555
C2 O11 1_555 1_555
C3 O3 1_555 1_555
O16 C41 1_555 1_555
C4 C2 1_555 1_555
O17 Mn5 1_555 1_555
H1 O17 1_555 1_555
H2 O17 1_555 1_555
C5 H3 1_555 1_555
O18 H4 1_555 1_555
C6 C21 1_555 1_555
N1 Mn2 1_555 1_555
O19 Mn5 1_555 1_555
H5 O19 1_555 1_555
C7 H6 1_555 1_555
C8 N1 1_555 1_555
H7 O15 1_555 1_555
C9 C1 1_555 1_555
H8 C9 1_555 1_555
C10 C21 1_555 1_555
C11 C3 1_555 1_555
O20 C18 1_555 1_555
C12 O4 1_555 1_555
C13 C23 1_555 1_555
N2 Mn4 1_555 1_555
C14 H9 1_555 1_555
C15 C12 1_555 1_555
O21 Mn4 1_555 1_555
H10 O21 1_555 1_555
N3 Mn5 1_555 1_555
C16 C34 1_555 1_555
C17 C7 1_555 1_555
C18 C19 1_555 1_555
C19 C14 1_555 1_555
C20 N2 1_555 1_555
C21 H11 1_555 1_555
N4 Mn2 1_555 1_555
C22 C29 1_555 1_555
C23 H12 1_555 1_555
C24 C20 1_555 1_555
C25 C4 1_555 1_555
O22 C42 1_555 1_555
C26 C4 1_555 1_555
N5 Mn4 1_555 1_555
C27 O5 1_555 1_555
C28 C19 1_555 1_555
O23 C80 1_555 1_555
O24 H13 1_555 1_555
C29 H14 1_555 1_555
C30 C38 1_555 1_555
N6 Mn5 1_555 1_555
C31 H15 1_555 1_555
C32 C13 1_555 1_555
C33 C6 1_555 1_555
H16 C33 1_555 1_555
N7 Mn1 1_555 1_555
C34 C14 1_555 1_555
C35 C22 1_555 1_555
C36 O6 1_555 1_555
C37 N3 1_555 1_555
O25 C64 1_555 1_555
C38 H17 1_555 1_555
C39 C1 1_555 1_555
N8 Mn1 1_555 1_555
C40 N3 1_555 1_555
H18 C40 1_555 1_555
C41 C10 1_555 1_555
C42 O18 1_555 1_555
C43 C33 1_555 1_555
C44 C40 1_555 1_555
H19 C44 1_555 1_555
C45 C8 1_555 1_555
C46 H20 1_555 1_555
C47 C31 1_555 1_555
C48 C34 1_555 1_555
C49 C13 1_555 1_555
H21 C49 1_555 1_555
C50 C77 1_555 1_555
C51 N6 1_555 1_555
C52 H22 1_555 1_555
C53 C60 1_555 1_555
C54 N2 1_555 1_555
H23 C54 1_555 1_555
C55 C16 1_555 1_555
C56 N6 1_555 1_555
H24 C56 1_555 1_555
C57 C20 1_555 1_555
C58 C30 1_555 1_555
H25 C58 1_555 1_555
C59 C44 1_555 1_555
H26 C59 1_555 1_555
C60 O26 1_555 1_555
C61 C17 1_555 1_555
C62 C10 1_555 1_555
H27 C62 1_555 1_555
C63 C58 1_555 1_555
H28 C63 1_555 1_555
C64 O24 1_555 1_555
O26 H80 1_555 1_555
C65 C45 1_555 1_555
C66 C48 1_555 1_555
H29 C66 1_555 1_555
C67 C57 1_555 1_555
H30 C67 1_555 1_555
C68 H31 1_555 1_555
C69 C47 1_555 1_555
H32 C69 1_555 1_555
C70 C54 1_555 1_555
H33 C70 1_555 1_555
O27 H34 1_555 1_555
C71 C38 1_555 1_555
H35 C71 1_555 1_555
C72 C68 1_555 1_555
H36 C72 1_555 1_555
C73 H37 1_555 1_555
C74 N1 1_555 1_555
H38 C74 1_555 1_555
C75 H39 1_555 1_555
C76 C24 1_555 1_555
O28 C60 1_555 1_555
C77 C69 1_555 1_555
H40 C77 1_555 1_555
C78 C52 1_555 1_555
H41 C78 1_555 1_555
C79 C57 1_555 1_555
H42 C79 1_555 1_555
C80 C50 1_555 1_555
O29 H43 1_555 1_555
H44 O29 1_555 1_555
C81 H45 1_555 1_555
C82 C31 1_555 1_555
H46 C82 1_555 1_555
C83 C76 1_555 1_555
H47 C83 1_555 1_555
C84 N5 1_555 1_555
H48 C84 1_555 1_555
C85 N4 1_555 1_555
H49 C85 1_555 1_555
C86 C8 1_555 1_555
C87 C51 1_555 1_555
C88 C37 1_555 1_555
O30 H50 1_555 1_555
H51 O30 1_555 1_555
C89 C46 1_555 1_555
H52 C89 1_555 1_555
C90 N8 1_555 1_555
C91 C65 1_555 1_555
H53 C91 1_555 1_555
C92 C53 1_555 1_555
H54 C92 1_555 1_555
C93 C65 1_555 1_555
H55 C93 1_555 1_555
C94 N7 1_555 1_555
C95 C85 1_555 1_555
H56 C95 1_555 1_555
C96 N8 1_555 1_555
H57 C96 1_555 1_555
C97 C90 1_555 1_555
C98 C83 1_555 1_555
H58 C98 1_555 1_555
C99 C56 1_555 1_555
H59 C99 1_555 1_555
C100 C97 1_555 1_555
H60 C100 1_555 1_555
C101 N7 1_555 1_555
H61 C101 1_555 1_555
C102 C101 1_555 1_555
H62 C102 1_555 1_555
C103 C102 1_555 1_555
H63 C103 1_555 1_555
C104 H64 1_555 1_555
C105 C96 1_555 1_555
H65 C105 1_555 1_555
C106 C97 1_555 1_555
H66 C106 1_555 1_555
C107 C94 1_555 1_555
H67 C16 1_555 1_555
H68 C28 1_555 1_555
H69 C35 1_555 1_555
C108 C15 1_555 1_555
H70 C25 1_555 1_555
H71 O15 1_555 1_555
H72 C26 1_555 1_555
C109 H73 1_555 1_555
H74 C109 1_555 1_555
H75 C109 1_555 1_555
N9 C111 1_555 1_555
C111 C109 1_555 1_555
H79 C108 1_555 1_555
Mn2_2 O8 1_555 1_555
Mn3A O4 1_555 1_555
Mn3A_2 O8 1_555 1_555
Mn4A O20 1_555 1_555
Mn5A O10 1_555 1_555
O4A Mn3 1_555 1_555
O8_2 Mn2 1_555 1_555
O8A Mn3 1_555 1_555
O9_2 Mn2 1_555 1_555
O10A Mn5 1_555 1_555
O13A Mn3 1_555 1_555
O20A Mn4 1_555 1_555
Mn3 O12 1_555 1_555
O7 C27 1_555 1_555
O9 Mn2_2 1_555 1_555
O12 C2 1_555 1_555
O13 Mn3A 1_555 1_555
C5 C11 1_555 1_555
C6 C27 1_555 1_555
C7 C11 1_555 1_555
C9 C17 1_555 1_555
C15 C25 1_555 1_555
N4 C45 1_555 1_555
C22 C42 1_555 1_555
C23 C35 1_555 1_555
C24 N5 1_555 1_555
C26 C32 1_555 1_555
C28 C55 1_555 1_555
C29 C49 1_555 1_555
C30 C64 1_555 1_555
C32 C108 1_555 1_555
C36 C55 1_555 1_555
C37 C51 1_555 1_555
C43 C47 1_555 1_555
C43 C62 1_555 1_555
C46 C48 1_555 1_555
C50 C82 1_555 1_555
C52 C87 1_555 1_555
C53 C89 1_555 1_555
C59 C88 1_555 1_555
C61 C63 1_555 1_555
C61 C71 1_555 1_555
C66 C92 1_555 1_555
C67 C70 1_555 1_555
C68 C86 1_555 1_555
O27 C80 1_555 1_555
C72 C74 1_555 1_555
C73 C76 1_555 1_555
C73 C79 1_555 1_555
C75 C87 1_555 1_555
C75 C99 1_555 1_555
C78 C88 1_555 1_555
C81 C86 1_555 1_555
C81 C91 1_555 1_555
C84 C98 1_555 1_555
C90 C94 1_555 1_555
C93 C95 1_555 1_555
C100 C105 1_555 1_555
C103 C107 1_555 1_555
C104 C106 1_555 1_555
C104 C107 1_555 1_555
Mn3A O8_2 1_555 1_555

#END
