
#######################################################################
#
#                 Cambridge Crystallographic Data Centre
#                                CCDC 
#
#######################################################################
#
# If this CIF has been generated from an entry in the Cambridge 
# Structural Database, then it will include bibliographic, chemical, 
# crystal, experimental, refinement or atomic coordinate data resulting 
# from the CCDC's data processing and validation procedures.
#
#######################################################################

data_QEKRII
_symmetry_cell_setting           monoclinic
_symmetry_space_group_name_H-M   'P 21/n'
_symmetry_Int_Tables_number      14
_space_group_name_Hall           '-P 2yn'
loop_
_symmetry_equiv_pos_site_id
_symmetry_equiv_pos_as_xyz
1 x,y,z
2 1/2-x,1/2+y,1/2-z
3 -x,-y,-z
4 1/2+x,1/2-y,1/2+z
_cell_length_a                   13.946(4)
_cell_length_b                   7.163(1)
_cell_length_c                   18.389(5)
_cell_angle_alpha                90
_cell_angle_beta                 93.37(2)
_cell_angle_gamma                90
_cell_volume                     1833.8
loop_
_atom_site_label
_atom_site_type_symbol
_atom_site_fract_x
_atom_site_fract_y
_atom_site_fract_z
Cu1 Cu 0.68450(2) 0.25659(6) 0.07159(2)
Fe1 Fe 1.00000 0.00000 0.00000
S1 S 0.72192(6) 0.3431(2) 0.18733(5)
O1 O 0.6479(1) 0.1609(3) -0.0239(1)
O2 O 0.7060(2) 0.5451(4) 0.0117(2)
N1 N 0.5893(3) 0.4469(7) 0.2754(2)
N2 N 0.5284(2) 0.3593(4) 0.1629(2)
N3 N 0.5503(2) 0.3001(4) 0.0939(1)
N4 N 0.4768(2) 0.1267(4) -0.1708(2)
N5 N 0.8164(2) 0.1686(4) 0.0563(2)
N6 N 1.0666(3) 0.3782(6) -0.0394(2)
N7 N 1.1077(3) 0.0311(7) 0.1486(2)
C1 C 0.6044(2) 0.3839(5) 0.2076(2)
C2 C 0.4764(2) 0.2821(5) 0.0486(2)
C3 C 0.4787(2) 0.2285(4) -0.0272(2)
C4 C 0.3916(2) 0.2266(4) -0.0710(2)
C5 C 0.3930(2) 0.1760(5) -0.1424(2)
C6 C 0.5607(2) 0.1207(5) -0.1333(2)
C7 C 0.5650(2) 0.1735(5) -0.0580(2)
C8 C 0.6479(4) 0.0616(9) -0.1693(3)
C9 C 0.7052(2) 0.7307(5) 0.0407(2)
C10 C 0.8861(2) 0.1078(6) 0.0374(2)
C11 C 1.0411(2) 0.2342(6) -0.0242(2)
C12 C 1.0682(2) 0.0198(6) 0.0939(2)
H1 H 0.5368(36) 0.4845(67) 0.2814(26)
H2 H 0.6500(54) 0.4842(96) 0.2998(39)
H3 H 0.4174(27) 0.3059(52) 0.0688(20)
H4 H 0.3406(27) 0.1777(56) -0.1669(21)
H5 H 0.4728(25) 0.0949(53) -0.2122(20)
H6 H 0.6369(45) 0.0193(89) -0.1988(35)
H7 H 0.6658(40) -0.0384(87) -0.1452(32)
H8 H 0.6899(42) 0.1469(90) -0.1702(31)
H9 H 0.7553(24) 0.7360(44) 0.0762(19)
H10 H 0.7239(26) 0.8237(56) 0.0012(21)
H11 H 0.7555(38) 0.5292(78) -0.0062(31)
Cu1B Cu 0.31550(2) 0.74341(6) -0.07159(2)
Cu1B_2 Cu 1.31550(2) -0.25659(6) -0.07159(2)
S1B S 0.27808(6) 0.6569(2) -0.18733(5)
S1B_2 S 1.27808(6) -0.3431(2) -0.18733(5)
O1B O 0.3521(1) 0.8391(3) 0.0239(1)
O1B_2 O 1.3521(1) -0.1609(3) 0.0239(1)
O2B O 0.2940(2) 0.4549(4) -0.0117(2)
O2B_2 O 1.2940(2) -0.5451(4) -0.0117(2)
N1B N 0.4107(3) 0.5531(7) -0.2754(2)
N2B N 0.4716(2) 0.6407(4) -0.1629(2)
N3B N 0.4497(2) 0.6999(4) -0.0939(1)
N3B_2 N 1.4497(2) -0.3001(4) -0.0939(1)
N4B N 0.5232(2) 0.8733(4) 0.1708(2)
N5B N 1.1836(2) -0.1686(4) -0.0563(2)
N6B N 0.9334(3) -0.3782(6) 0.0394(2)
N7B N 0.8923(3) -0.0311(7) -0.1486(2)
C1B C 0.3956(2) 0.6161(5) -0.2076(2)
C2B C 0.5236(2) 0.7179(5) -0.0486(2)
C3B C 0.5213(2) 0.7715(4) 0.0272(2)
C4B C 0.6084(2) 0.7734(4) 0.0710(2)
C5B C 0.6070(2) 0.8240(5) 0.1424(2)
C6B C 0.4393(2) 0.8793(5) 0.1333(2)
C7B C 0.4350(2) 0.8265(5) 0.0580(2)
C8B C 0.3521(4) 0.9384(9) 0.1693(3)
C9B C 0.2948(2) 0.2693(5) -0.0407(2)
C10B C 1.1139(2) -0.1078(6) -0.0374(2)
C11B C 0.9589(2) -0.2342(6) 0.0242(2)
C12B C 0.9318(2) -0.0198(6) -0.0939(2)
H1B H 0.4632(36) 0.5155(67) -0.2814(26)
H2B H 0.3500(54) 0.5158(96) -0.2998(39)
H3B H 0.5826(27) 0.6941(52) -0.0688(20)
H4B H 0.6594(27) 0.8223(56) 0.1669(21)
H5B H 0.5272(25) 0.9051(53) 0.2122(20)
H6B H 0.3631(45) 0.9807(89) 0.1988(35)
H7B H 0.3342(40) 1.0384(87) 0.1452(32)
H8B H 0.3101(42) 0.8531(90) 0.1702(31)
H9B H 0.2447(24) 0.2640(44) -0.0762(19)
H10B H 0.2761(26) 0.1763(56) -0.0012(21)
H11B H 0.2445(38) 0.4708(78) 0.0062(31)
H11B_2 H 1.2445(38) -0.5292(78) 0.0062(31)
O3 O 0.4846(3) 0.0452(8) 0.6829(2)
O4 O 0.3328(3) 0.4546(8) 0.2013(2)
H12 H 0.3668(41) 0.4471(99) 0.1892(36)
O5 O 0.1762(3) 0.5057(8) 0.1108(3)
loop_
_geom_bond_atom_site_label_1
_geom_bond_atom_site_label_2
_geom_bond_site_symmetry_1
_geom_bond_site_symmetry_2
Cu1 S1 1_555 1_555
Fe1 C10 1_555 1_555
S1 C1 1_555 1_555
O1 Cu1 1_555 1_555
O2 Cu1 1_555 1_555
O4 H12 1_555 1_555
N1 C1 1_555 1_555
N2 N3 1_555 1_555
N3 Cu1 1_555 1_555
N4 C5 1_555 1_555
N5 Cu1 1_555 1_555
N6 C11 1_555 1_555
N7 C12 1_555 1_555
C1 N2 1_555 1_555
C2 N3 1_555 1_555
C3 C2 1_555 1_555
C4 C3 1_555 1_555
C5 C4 1_555 1_555
C6 N4 1_555 1_555
C7 O1 1_555 1_555
C8 C6 1_555 1_555
C9 O2 1_555 1_555
C10 N5 1_555 1_555
C11 Fe1 1_555 1_555
C12 Fe1 1_555 1_555
H1 N1 1_555 1_555
H2 N1 1_555 1_555
H3 C2 1_555 1_555
H4 C5 1_555 1_555
H5 N4 1_555 1_555
H6 C8 1_555 1_555
H7 C8 1_555 1_555
H8 C8 1_555 1_555
H9 C9 1_555 1_555
H10 C9 1_555 1_555
H11 O2 1_555 1_555
Cu1B S1B 1_555 1_555
Cu1B_2 S1B_2 1_555 1_555
S1B C1B 1_555 1_555
O1B Cu1B 1_555 1_555
O1B_2 Cu1B_2 1_555 1_555
O2B Cu1B 1_555 1_555
O2B_2 Cu1B_2 1_555 1_555
N1B C1B 1_555 1_555
N2B N3B 1_555 1_555
N3B Cu1B 1_555 1_555
N3B_2 Cu1B_2 1_555 1_555
N4B C5B 1_555 1_555
N5B Cu1B_2 1_555 1_555
N6B C11B 1_555 1_555
N7B C12B 1_555 1_555
C1B N2B 1_555 1_555
C2B N3B 1_555 1_555
C3B C2B 1_555 1_555
C4B C9 1_555 1_555
C5B C4B 1_555 1_555
C6B N4B 1_555 1_555
C7B O1B 1_555 1_555
C8B C6B 1_555 1_555
C9B C4 1_555 1_555
C10B Fe1 1_555 1_555
C11B Fe1 1_555 1_555
C12B Fe1 1_555 1_555
H1B N1B 1_555 1_555
H2B N1B 1_555 1_555
H3B C2B 1_555 1_555
H4B C5B 1_555 1_555
H5B N4B 1_555 1_555
H6B C8B 1_555 1_555
H7B C8B 1_555 1_555
H8B C8B 1_555 1_555
H9B C9B 1_555 1_555
H10B C9B 1_555 1_555
H11B O2B 1_555 1_555
H11B_2 O2B_2 1_555 1_555
C3 C7 1_555 1_555
C6 C7 1_555 1_555
O2B C9B 1_555 1_555
N5B C10B 1_555 1_555
C3B C4B 1_555 1_555
C3B C7B 1_555 1_555
C6B C7B 1_555 1_555

#END
