
#######################################################################
#
#                 Cambridge Crystallographic Data Centre
#                                CCDC 
#
#######################################################################
#
# If this CIF has been generated from an entry in the Cambridge 
# Structural Database, then it will include bibliographic, chemical, 
# crystal, experimental, refinement or atomic coordinate data resulting 
# from the CCDC's data processing and validation procedures.
#
#######################################################################

data_QEKREE
_symmetry_cell_setting           monoclinic
_symmetry_space_group_name_H-M   'P 21/n'
_symmetry_Int_Tables_number      14
_space_group_name_Hall           '-P 2yn'
loop_
_symmetry_equiv_pos_site_id
_symmetry_equiv_pos_as_xyz
1 x,y,z
2 1/2-x,1/2+y,1/2-z
3 -x,-y,-z
4 1/2+x,1/2-y,1/2+z
_cell_length_a                   13.157(3)
_cell_length_b                   13.641(3)
_cell_length_c                   14.205(4)
_cell_angle_alpha                90
_cell_angle_beta                 115.98(1)
_cell_angle_gamma                90
_cell_volume                     2291.81
loop_
_atom_site_label
_atom_site_type_symbol
_atom_site_fract_x
_atom_site_fract_y
_atom_site_fract_z
Fe1 Fe -0.13766(4) 0.04812(3) 0.60802(3)
Cu1 Cu -0.07612(3) 0.33852(2) 0.41981(3)
S1 S 0.05308(7) 0.25322(6) 0.38802(6)
O1 O -0.1525(2) 0.4251(1) 0.4729(2)
O2 O -0.2547(2) 0.8136(1) 0.2336(2)
O3 O 0.0789(2) -0.0306(2) 0.6888(3)
N1 N 0.1386(3) 0.3224(2) 0.2645(3)
N2 N 0.0241(2) 0.4283(2) 0.2979(2)
N3 N -0.0452(2) 0.4474(2) 0.3444(2)
N4 N -0.3225(2) 0.6354(2) 0.4310(2)
N5 N -0.0994(2) 0.2291(2) 0.4973(2)
N6 N -0.2173(3) -0.1146(2) 0.7107(3)
N7 N -0.3799(3) 0.1229(2) 0.5367(3)
N8 N -0.2254(3) -0.0630(2) 0.3990(3)
N9 N -0.0832(4) 0.1731(3) 0.8044(3)
N10 N -0.0089(3) 0.0026(2) 0.6536(2)
C1 C 0.0736(3) 0.3395(2) 0.3106(2)
C2 C -0.0885(3) 0.5353(2) 0.3296(2)
C3 C -0.1670(2) 0.5681(2) 0.3684(2)
C4 C -0.2184(3) 0.6620(2) 0.3356(2)
C5 C -0.2946(3) 0.6922(2) 0.3695(3)
C6 C -0.2781(3) 0.5468(2) 0.4659(2)
C7 C -0.1959(3) 0.5105(2) 0.4351(2)
C8 C -0.1893(3) -0.0548(2) 0.6709(3)
C9 C -0.2904(3) 0.0966(2) 0.5612(3)
C10 C -0.1118(3) 0.1615(2) 0.5377(2)
C11 C -0.1042(3) 0.1283(2) 0.7303(3)
C12 C -0.1941(3) -0.0223(2) 0.4774(3)
C13 C -0.3178(5) 0.4902(4) 0.5322(4)
C14 C -0.1880(3) 0.7272(2) 0.2648(3)
H1 H -0.3461(41) 0.4375(35) 0.5021(40)
H2 H 0.0329(22) 0.4738(18) 0.2571(20)
H3 H -0.3350(24) 0.7523(22) 0.3537(22)
H4 H -0.2658(37) 0.4685(31) 0.5853(34)
H5 H -0.0643(25) 0.5754(20) 0.2874(24)
H6 H -0.3628(32) 0.5259(26) 0.5579(30)
H7 H 0.1734(30) 0.2661(28) 0.2754(28)
H8 H -0.3736(27) 0.6595(21) 0.4584(24)
H9 H 0.1447(30) 0.3655(25) 0.2228(28)
H10 H -0.2452(24) 0.8452(17) 0.2809(21)
H11 H -0.1132(22) 0.7383(17) 0.2958(19)
H12 H -0.2088(25) 0.6891(20) 0.1912(25)
Cu1A Cu -0.42388(3) 0.83852(2) 0.08019(3)
O2A O -0.2453(2) 0.3136(1) 0.2664(2)
H10A H -0.2548(24) 0.3452(17) 0.2191(21)
O4 O -0.5491(4) -0.9261(3) 0.3170(3)
H13 H -0.5921(52) -0.9089(42) 0.3149(51)
H14 H -0.4809(65) -0.9223(44) 0.3941(62)
O5 O -0.4679(3) 0.7134(3) 0.4910(3)
H15 H -0.4554(40) 0.7083(33) 0.5618(41)
H16 H -0.5051(54) 0.7517(43) 0.4768(49)
O6? O -0.2453(2) -0.6864(1) 0.2664(2)
loop_
_geom_bond_atom_site_label_1
_geom_bond_atom_site_label_2
_geom_bond_site_symmetry_1
_geom_bond_site_symmetry_2
Fe1 N10 1_555 1_555
Cu1 S1 1_555 1_555
S1 C1 1_555 1_555
O1 Cu1 1_555 1_555
O2 C14 1_555 1_555
O3 N10 1_555 1_555
N1 C1 1_555 1_555
N2 N3 1_555 1_555
N3 Cu1 1_555 1_555
N4 C5 1_555 1_555
N5 Cu1 1_555 1_555
N6 C8 1_555 1_555
N7 C9 1_555 1_555
N8 C12 1_555 1_555
N9 C11 1_555 1_555
C1 N2 1_555 1_555
C2 N3 1_555 1_555
C3 C2 1_555 1_555
C4 C3 1_555 1_555
C5 C4 1_555 1_555
C6 N4 1_555 1_555
C7 O1 1_555 1_555
C8 Fe1 1_555 1_555
C9 Fe1 1_555 1_555
C10 Fe1 1_555 1_555
C11 Fe1 1_555 1_555
C12 Fe1 1_555 1_555
C13 C6 1_555 1_555
C14 C4 1_555 1_555
H1 C13 1_555 1_555
H2 N2 1_555 1_555
H3 C5 1_555 1_555
H4 C13 1_555 1_555
H5 C2 1_555 1_555
H6 C13 1_555 1_555
H7 N1 1_555 1_555
H8 N4 1_555 1_555
H9 N1 1_555 1_555
H10 O2 1_555 1_555
H11 C14 1_555 1_555
H12 C14 1_555 1_555
O4 H13 1_555 1_555
H14 O4 1_555 1_555
O5 H15 1_555 1_555
H16 O5 1_555 1_555
Cu1A O2 1_555 1_555
O2A Cu1 1_555 1_555
H10A O2A 1_555 1_555
N5 C10 1_555 1_555
C3 C7 1_555 1_555
C6 C7 1_555 1_555

#END
