
#######################################################################
#
#                 Cambridge Crystallographic Data Centre
#                                CCDC 
#
#######################################################################
#
# If this CIF has been generated from an entry in the Cambridge 
# Structural Database, then it will include bibliographic, chemical, 
# crystal, experimental, refinement or atomic coordinate data resulting 
# from the CCDC's data processing and validation procedures.
#
#######################################################################

data_QEKSUV
_symmetry_cell_setting           monoclinic
_symmetry_space_group_name_H-M   'P 2/c'
_symmetry_Int_Tables_number      13
_space_group_name_Hall           '-P 2yc'
loop_
_symmetry_equiv_pos_site_id
_symmetry_equiv_pos_as_xyz
1 x,y,z
2 -x,y,1/2-z
3 -x,-y,-z
4 x,-y,1/2+z
_cell_length_a                   7.1828(11)
_cell_length_b                   7.2045(11)
_cell_length_c                   21.598(4)
_cell_angle_alpha                90
_cell_angle_beta                 99.027(3)
_cell_angle_gamma                90
_cell_volume                     1103.82
loop_
_atom_site_label
_atom_site_type_symbol
_atom_site_fract_x
_atom_site_fract_y
_atom_site_fract_z
Zn1 Zn 0.12095(8) 0.94517(9) 0.07724(3)
Cl1 Cl 0.0352(3) 1.1659(3) 0.13687(9)
C1 C 0.3480(8) 0.6255(8) 0.1342(3)
H1 H 0.2424 0.5552 0.1186
C2 C 0.5031(8) 0.5360(8) 0.1659(3)
H2 H 0.4994 0.4085 0.1722
C3 C 0.6645(8) 0.6342(8) 0.1883(2)
C4 C 0.6587(8) 0.8236(8) 0.1788(3)
H3 H 0.7634 0.8960 0.1936
C5 C 0.4975(8) 0.9054(9) 0.1475(3)
H4 H 0.4962 1.0334 0.1417
C6 C 0.8374(8) 0.5334(8) 0.2192(3)
H5 H 0.8829 0.4563 0.1879
H6 H 0.8011 0.4514 0.2508
C7 C 1.0000 0.6548(12) 0.2500
H7 H 0.9573 0.7337 0.2813
H8 H 1.0427 0.7337 0.2187
C8 C -0.2083(7) 0.7795(8) 0.0160(3)
C9 C -0.3598(7) 0.6342(7) 0.0078(2)
C10 C -0.5415(7) 0.6806(7) -0.0201(2)
H9 H -0.5690 0.8015 -0.0336
C11 C -0.3184(7) 0.4535(7) 0.0279(2)
H10 H -0.1967 0.4226 0.0464
N1 N 0.3418(6) 0.8074(7) 0.1248(2)
O1 O -0.0549(5) 0.7426(5) 0.0512(2)
O2 O -0.2410(5) 0.9327(5) -0.01175(19)
Zn1A Zn 1.87905(8) 0.94517(9) 0.42276(3)
Zn1B Zn -0.12095(8) 1.05483(9) -0.07724(3)
Zn1B_2 Zn -1.12095(8) 0.05483(9) -0.07724(3)
Zn1_2 Zn -0.87905(8) -0.05483(9) 0.07724(3)
Cl1A Cl 1.9648(3) 1.1659(3) 0.36313(9)
C1A C 1.6520(8) 0.6255(8) 0.3658(3)
H1A H 1.7576 0.5552 0.3814
C2A C 1.4969(8) 0.5360(8) 0.3341(3)
H2A H 1.5006 0.4085 0.3278
C3A C 1.3355(8) 0.6342(8) 0.3117(2)
C4A C 1.3413(8) 0.8236(8) 0.3212(3)
H3A H 1.2366 0.8960 0.3064
C5A C 1.5025(8) 0.9054(9) 0.3525(3)
H4A H 1.5038 1.0334 0.3583
C6A C 1.1626(8) 0.5334(8) 0.2808(3)
H5A H 1.1171 0.4563 0.3121
H6A H 1.1989 0.4514 0.2492
C8B C -0.7917(7) 0.2205(8) -0.0160(3)
C9B C -0.6402(7) 0.3658(7) -0.0078(2)
C10B C -0.4585(7) 0.3194(7) 0.0201(2)
H9B H -0.4310 0.1985 0.0336
C11B C -0.6816(7) 0.5465(7) -0.0279(2)
H10B H -0.8033 0.5774 -0.0464
N1A N 1.6582(6) 0.8074(7) 0.3752(2)
O1B O -0.9451(5) 0.2574(5) -0.0512(2)
O1A O 2.0549(5) 0.7426(5) 0.4488(2)
O2B O -0.7590(5) 0.0673(5) 0.01175(19)
O2B_2 O 0.2410(5) 1.0673(5) 0.01175(19)
O2C O 1.7590(5) 1.0673(5) 0.48825(19)
loop_
_geom_bond_atom_site_label_1
_geom_bond_atom_site_label_2
_geom_bond_site_symmetry_1
_geom_bond_site_symmetry_2
Zn1 Cl1 1_555 1_555
C1 H1 1_555 1_555
C2 C1 1_555 1_555
H2 C2 1_555 1_555
C3 C2 1_555 1_555
C4 C3 1_555 1_555
H3 C4 1_555 1_555
C5 C4 1_555 1_555
H4 C5 1_555 1_555
C6 C3 1_555 1_555
H5 C6 1_555 1_555
H6 C6 1_555 1_555
C7 C6 1_555 1_555
H7 C7 1_555 1_555
H8 C7 1_555 1_555
C8 C9 1_555 1_555
C9 C10 1_555 1_555
C10 H9 1_555 1_555
C11 C9 1_555 1_555
H10 C11 1_555 1_555
N1 Zn1 1_555 1_555
O1 Zn1 1_555 1_555
O2 C8 1_555 1_555
Zn1A Cl1A 1_555 1_555
Zn1B O2 1_555 1_555
Zn1B_2 O1B 1_555 1_555
Zn1_2 O2B 1_555 1_555
C1A H1A 1_555 1_555
C2A C1A 1_555 1_555
H2A C2A 1_555 1_555
C3A C2A 1_555 1_555
C4A C3A 1_555 1_555
H3A C4A 1_555 1_555
C5A C4A 1_555 1_555
H4A C5A 1_555 1_555
C6A C7 1_555 1_555
H5A C6A 1_555 1_555
H6A C6A 1_555 1_555
C8B C9B 1_555 1_555
C9B C10B 1_555 1_555
C10B C11 1_555 1_555
H9B C10B 1_555 1_555
C11B C10 1_555 1_555
H10B C11B 1_555 1_555
N1A Zn1A 1_555 1_555
O1B C8B 1_555 1_555
O1A Zn1A 1_555 1_555
O2B C8B 1_555 1_555
O2B_2 Zn1 1_555 1_555
O2C Zn1A 1_555 1_555
C1 N1 1_555 1_555
C5 N1 1_555 1_555
C8 O1 1_555 1_555
C1A N1A 1_555 1_555
C3A C6A 1_555 1_555
C5A N1A 1_555 1_555
C9B C11B 1_555 1_555

#END
