
#######################################################################
#
#                 Cambridge Crystallographic Data Centre
#                                CCDC 
#
#######################################################################
#
# If this CIF has been generated from an entry in the Cambridge 
# Structural Database, then it will include bibliographic, chemical, 
# crystal, experimental, refinement or atomic coordinate data resulting 
# from the CCDC's data processing and validation procedures.
#
#######################################################################

data_QEKTEG
_symmetry_cell_setting           monoclinic
_symmetry_space_group_name_H-M   'P 21/c'
_symmetry_Int_Tables_number      14
_space_group_name_Hall           '-P 2ybc'
loop_
_symmetry_equiv_pos_site_id
_symmetry_equiv_pos_as_xyz
1 x,y,z
2 -x,1/2+y,1/2-z
3 -x,-y,-z
4 x,1/2-y,1/2+z
_cell_length_a                   12.695(2)
_cell_length_b                   7.9170(15)
_cell_length_c                   12.154(2)
_cell_angle_alpha                90
_cell_angle_beta                 99.56(3)
_cell_angle_gamma                90
_cell_volume                     1204.59
loop_
_atom_site_label
_atom_site_type_symbol
_atom_site_fract_x
_atom_site_fract_y
_atom_site_fract_z
Cu1 Cu 0.858638(19) 0.10865(3) 0.434494(17)
O1 O 0.68339(12) 0.19751(19) 0.41535(12)
N1 N 0.66137(13) 0.3228(2) 0.34422(13)
C1 C 0.64684(17) 0.2904(3) 0.23243(16)
H1 H 0.6524 0.1779 0.2069
C2 C 0.62419(17) 0.4198(3) 0.15647(16)
H2 H 0.6147 0.3980 0.0786
C3 C 0.61548(15) 0.5826(3) 0.19613(16)
C4 C 0.63161(18) 0.6166(3) 0.30994(17)
H3 H 0.6268 0.7286 0.3367
C5 C 0.65480(17) 0.4834(3) 0.38256(16)
H4 H 0.6664 0.5037 0.4607
N2 N 0.58824(14) 0.7230(2) 0.11757(15)
O2 O 0.57526(14) 0.6902(2) 0.01752(13)
O3 O 0.58029(14) 0.8660(2) 0.15580(15)
N3 N 0.89493(14) 0.3131(2) 0.35393(13)
C6 C 0.91921(15) 0.4499(2) 0.33636(14)
N4 N 0.94083(15) 0.6038(2) 0.30747(14)
C7 C 1.01102(17) 0.6921(2) 0.37419(15)
N5 N 1.07254(16) 0.7795(2) 0.42697(14)
N6 N 0.83739(16) -0.0965(2) 0.51870(14)
C8 C 0.83315(16) -0.2226(2) 0.56525(15)
N7 N 0.82282(16) -0.3754(2) 0.60156(14)
C9 C 0.83006(15) -0.4205(2) 0.70575(16)
N8 N 0.83276(14) -0.4811(2) 0.79240(13)
Cu1B Cu 1.141362(19) 0.89135(3) 0.565506(17)
Cu1C Cu 0.858638(19) -0.60865(3) 0.934494(17)
N5B N 0.92746(16) 0.2205(2) 0.57303(14)
N8C N 0.83276(14) -0.0189(2) 0.29240(13)
loop_
_geom_bond_atom_site_label_1
_geom_bond_atom_site_label_2
_geom_bond_site_symmetry_1
_geom_bond_site_symmetry_2
Cu1 O1 1_555 1_555
O1 N1 1_555 1_555
N1 C1 1_555 1_555
C1 H1 1_555 1_555
C2 C1 1_555 1_555
H2 C2 1_555 1_555
C3 C2 1_555 1_555
C4 C3 1_555 1_555
H3 C4 1_555 1_555
C5 N1 1_555 1_555
H4 C5 1_555 1_555
N2 C3 1_555 1_555
O2 N2 1_555 1_555
O3 N2 1_555 1_555
N3 Cu1 1_555 1_555
C6 N3 1_555 1_555
N4 C6 1_555 1_555
C7 N4 1_555 1_555
N5 C7 1_555 1_555
N6 Cu1 1_555 1_555
C8 N6 1_555 1_555
N7 C8 1_555 1_555
C9 N7 1_555 1_555
N8 C9 1_555 1_555
Cu1B N5 1_555 1_555
Cu1C N8 1_555 1_555
N5B Cu1 1_555 1_555
N8C Cu1 1_555 1_555
C4 C5 1_555 1_555

#END
