
#######################################################################
#
#                 Cambridge Crystallographic Data Centre
#                                CCDC 
#
#######################################################################
#
# If this CIF has been generated from an entry in the Cambridge 
# Structural Database, then it will include bibliographic, chemical, 
# crystal, experimental, refinement or atomic coordinate data resulting 
# from the CCDC's data processing and validation procedures.
#
#######################################################################

data_QEKTAC
_symmetry_cell_setting           monoclinic
_symmetry_space_group_name_H-M   'P 21/n'
_symmetry_Int_Tables_number      14
_space_group_name_Hall           '-P 2yn'
loop_
_symmetry_equiv_pos_site_id
_symmetry_equiv_pos_as_xyz
1 x,y,z
2 1/2-x,1/2+y,1/2-z
3 -x,-y,-z
4 1/2+x,1/2-y,1/2+z
_cell_length_a                   9.4919(19)
_cell_length_b                   17.994(4)
_cell_length_c                   15.486(3)
_cell_angle_alpha                90
_cell_angle_beta                 103.83(3)
_cell_angle_gamma                90
_cell_volume                     2568.29
loop_
_atom_site_label
_atom_site_type_symbol
_atom_site_fract_x
_atom_site_fract_y
_atom_site_fract_z
C1 C 0.2383(3) -0.16198(15) 0.80869(18)
C2 C 0.3077(3) -0.14627(16) 0.74106(18)
H1 H 0.3312 -0.0964 0.7300
C3 C 0.3422(3) -0.20331(17) 0.69018(19)
C4 C 0.3121(3) -0.27670(18) 0.7040(2)
H2 H 0.3407 -0.3153 0.6699
C5 C 0.2388(3) -0.29221(18) 0.7690(2)
H3 H 0.2146 -0.3422 0.7791
C6 C 0.2004(3) -0.23566(17) 0.8195(2)
C7 C 0.2235(3) -0.09778(15) 0.86830(17)
C8 C 0.1503(3) -0.03972(15) 1.24886(17)
C9 C 0.1018(3) -0.04100(16) 1.32796(18)
C10 C 0.1998(3) -0.04625(17) 1.41049(18)
H4 H 0.1650 -0.0474 1.4631
C11 C 0.3470(3) -0.04973(16) 1.41652(18)
H5 H 0.4143 -0.0549 1.4725
C12 C 0.3937(3) -0.04552(15) 1.33884(18)
C13 C 0.2989(3) -0.04006(15) 1.25634(18)
H6 H 0.3354 -0.0365 1.2045
C14 C 0.0523(3) -0.03968(14) 1.15618(17)
C15 C 0.5516(3) 0.19857(15) 0.91896(18)
C16 C 0.6331(3) 0.20486(16) 0.85595(19)
H7 H 0.6586 0.1616 0.8279
C17 C 0.6771(3) 0.27422(18) 0.8339(2)
C18 C 0.6475(4) 0.33810(18) 0.8755(3)
H8 H 0.6800 0.3851 0.8601
C19 C 0.5700(4) 0.33232(18) 0.9396(3)
H9 H 0.5506 0.3755 0.9701
C20 C 0.5199(3) 0.26351(16) 0.9601(2)
C21 C 0.5007(3) 0.12122(14) 0.93640(16)
Cl1 Cl -0.07882(7) -0.03275(4) 1.32931(5)
Cl2 Cl 0.10697(9) -0.26139(4) 0.89843(6)
Cl3 Cl 0.42332(9) 0.26121(4) 1.04206(6)
Eu1 Eu 0.236703(13) 0.020504(7) 0.992196(8)
N1 N 0.4174(3) -0.18366(15) 0.62037(16)
N2 N 0.7591(3) 0.27865(16) 0.76473(19)
N3 N 0.5497(2) -0.04602(13) 1.34363(16)
O1 O 0.1283(2) -0.09599(11) 0.91243(13)
O2 O 0.3153(2) -0.04625(11) 0.87339(12)
O3 O 0.4369(3) -0.11818(14) 0.60698(16)
O4 O 0.4597(3) -0.23451(14) 0.57998(17)
O5 O 0.1082(2) -0.01954(11) 1.09324(13)
O6 O -0.0761(2) -0.06011(11) 1.14474(12)
O7 O 0.6343(2) -0.05100(13) 1.41731(14)
O8 O 0.5889(2) -0.04183(13) 1.27431(15)
O9 O 0.3722(2) 0.11426(11) 0.94265(13)
O10 O 0.8010(3) 0.34059(14) 0.74833(17)
O11 O 0.7830(3) 0.22227(15) 0.7278(2)
O12 O 0.1224(2) 0.13278(11) 1.03559(13)
O13 O 0.3993(2) 0.07034(11) 1.12443(12)
O14 O 0.5919(2) 0.07012(11) 0.94212(13)
Eu1B Eu -0.236703(13) -0.020504(7) 1.007804(8)
Eu1B_2 Eu 0.763297(13) -0.020504(7) 1.007804(8)
O6B O 0.0761(2) 0.06011(11) 0.85526(12)
O14B O 0.4081(2) -0.07012(11) 1.05788(13)
loop_
_geom_bond_atom_site_label_1
_geom_bond_atom_site_label_2
_geom_bond_site_symmetry_1
_geom_bond_site_symmetry_2
C1 C2 1_555 1_555
C2 H1 1_555 1_555
C3 C2 1_555 1_555
C4 C3 1_555 1_555
H2 C4 1_555 1_555
C5 C4 1_555 1_555
H3 C5 1_555 1_555
C6 C1 1_555 1_555
C7 C1 1_555 1_555
C8 C9 1_555 1_555
C9 C10 1_555 1_555
C10 H4 1_555 1_555
C11 C10 1_555 1_555
H5 C11 1_555 1_555
C12 C11 1_555 1_555
C13 C8 1_555 1_555
H6 C13 1_555 1_555
C14 C8 1_555 1_555
C15 C16 1_555 1_555
C16 H7 1_555 1_555
C17 C16 1_555 1_555
C18 C17 1_555 1_555
H8 C18 1_555 1_555
C19 C18 1_555 1_555
H9 C19 1_555 1_555
C20 C15 1_555 1_555
C21 C15 1_555 1_555
Cl1 C9 1_555 1_555
Cl2 C6 1_555 1_555
Cl3 C20 1_555 1_555
Eu1 O1 1_555 1_555
N1 C3 1_555 1_555
N2 C17 1_555 1_555
N3 C12 1_555 1_555
O1 C7 1_555 1_555
O2 C7 1_555 1_555
O3 N1 1_555 1_555
O4 N1 1_555 1_555
O5 C14 1_555 1_555
O6 C14 1_555 1_555
O7 N3 1_555 1_555
O8 N3 1_555 1_555
O9 C21 1_555 1_555
O10 N2 1_555 1_555
O11 N2 1_555 1_555
O12 Eu1 1_555 1_555
O13 Eu1 1_555 1_555
O14 C21 1_555 1_555
Eu1B O6 1_555 1_555
Eu1B_2 O14 1_555 1_555
O6B Eu1 1_555 1_555
O14B Eu1 1_555 1_555
C5 C6 1_555 1_555
C12 C13 1_555 1_555
C19 C20 1_555 1_555
Eu1 O2 1_555 1_555
Eu1 O5 1_555 1_555
Eu1 O9 1_555 1_555

#END
