
#######################################################################
#
#                 Cambridge Crystallographic Data Centre
#                                CCDC 
#
#######################################################################
#
# If this CIF has been generated from an entry in the Cambridge 
# Structural Database, then it will include bibliographic, chemical, 
# crystal, experimental, refinement or atomic coordinate data resulting 
# from the CCDC's data processing and validation procedures.
#
#######################################################################

data_QELSUW
_symmetry_cell_setting           triclinic
_symmetry_space_group_name_H-M   'P -1'
_symmetry_Int_Tables_number      2
_space_group_name_Hall           '-P 1'
loop_
_symmetry_equiv_pos_site_id
_symmetry_equiv_pos_as_xyz
1 x,y,z
2 -x,-y,-z
_cell_length_a                   5.5621(8)
_cell_length_b                   8.149(1)
_cell_length_c                   11.876(2)
_cell_angle_alpha                88.866(7)
_cell_angle_beta                 82.204(6)
_cell_angle_gamma                87.378(6)
_cell_volume                     532.703
loop_
_atom_site_label
_atom_site_type_symbol
_atom_site_fract_x
_atom_site_fract_y
_atom_site_fract_z
U1 U 0.12692(2) 0.303971(15) 0.066509(11)
O1 O 0.3536(6) 0.4164(4) 0.1204(3)
O2 O -0.1004(6) 0.1894(4) 0.0179(3)
O3 O -0.1529(6) 0.5256(4) 0.0953(3)
H1 H -0.278(12) 0.505(8) 0.110(6)
C1 C 0.4787(7) -0.0339(5) 0.0606(3)
O4 O 0.3337(5) 0.0500(4) 0.1304(2)
O5 O 0.5857(5) -0.1655(4) 0.0820(3)
C2 C -0.2166(12) 0.1701(9) 0.2960(6)
H2 H -0.3192 0.1427 0.2443
O6 O -0.0440(7) 0.2486(5) 0.2563(3)
O7 O -0.2770(7) 0.1213(6) 0.3940(4)
U1A U -0.12692(2) 0.696029(15) -0.066509(11)
U1A_2 U 0.87308(2) -0.303971(15) -0.066509(11)
O1A O -0.3536(6) 0.5836(4) -0.1204(3)
O2A O 0.1004(6) 0.8106(4) -0.0179(3)
O3A O 0.1529(6) 0.4744(4) -0.0953(3)
H1A H 0.278(12) 0.495(8) -0.110(6)
C1A C 0.5213(7) 0.0339(5) -0.0606(3)
O4A O 0.6663(5) -0.0500(4) -0.1304(2)
O4A_2 O -0.3337(5) 0.9500(4) -0.1304(2)
O5A O 0.4143(5) 0.1655(4) -0.0820(3)
O5_2 O -0.4143(5) 0.8345(4) 0.0820(3)
C2A C 0.2166(12) 0.8299(9) -0.2960(6)
H2A H 0.3192 0.8573 -0.2443
O6A O 0.0440(7) 0.7514(5) -0.2563(3)
O7A O 0.2770(7) 0.8787(6) -0.3940(4)
N1 N 0.0148(10) 0.2452(7) 0.5409(4)
H3 H -0.0404 0.2120 0.4815
N2 N 0.2703(10) 0.3974(7) 0.4162(5)
H4 H 0.3848 0.4644 0.3984
H5 H 0.1950 0.3596 0.3643
C3 C -0.0896(12) 0.1921(8) 0.6422(6)
N3 N -0.0168(13) 0.2313(8) 0.7397(5)
H6 H 0.1034 0.2940 0.7398
H7 H -0.0899 0.1940 0.8029
N4 N -0.2767(10) 0.0920(7) 0.6384(5)
H8 H -0.3516 0.0521 0.7003
H9 H -0.3203 0.0685 0.5741
O8 O 0.3060(9) 0.3993(6) 0.6046(4)
C4 C 0.2093(11) 0.3520(8) 0.5247(5)
loop_
_geom_bond_atom_site_label_1
_geom_bond_atom_site_label_2
_geom_bond_site_symmetry_1
_geom_bond_site_symmetry_2
U1 O1 1_555 1_555
O2 U1 1_555 1_555
O3 U1 1_555 1_555
H1 O3 1_555 1_555
C1 O4 1_555 1_555
O4 U1 1_555 1_555
O5 C1 1_555 1_555
C2 H2 1_555 1_555
O6 U1 1_555 1_555
O7 C2 1_555 1_555
N1 H3 1_555 1_555
N2 H4 1_555 1_555
H5 N2 1_555 1_555
C3 N1 1_555 1_555
N3 C3 1_555 1_555
H6 N3 1_555 1_555
H7 N3 1_555 1_555
N4 C3 1_555 1_555
H8 N4 1_555 1_555
H9 N4 1_555 1_555
O8 C4 1_555 1_555
C4 N1 1_555 1_555
U1A O3 1_555 1_555
U1A_2 O5 1_555 1_555
O1A U1A 1_555 1_555
O2A U1A 1_555 1_555
O3A U1 1_555 1_555
H1A O3A 1_555 1_555
C1A C1 1_555 1_555
O4A U1A_2 1_555 1_555
O4A_2 U1A 1_555 1_555
O5A U1 1_555 1_555
O5_2 U1A 1_555 1_555
C2A H2A 1_555 1_555
O6A U1A 1_555 1_555
O7A C2A 1_555 1_555
C2 O6 1_555 1_555
N2 C4 1_555 1_555
U1A O3A 1_555 1_555
C1A O4A 1_555 1_555
C1A O5A 1_555 1_555
C2A O6A 1_555 1_555

#END
