
#######################################################################
#
#                 Cambridge Crystallographic Data Centre
#                                CCDC 
#
#######################################################################
#
# If this CIF has been generated from an entry in the Cambridge 
# Structural Database, then it will include bibliographic, chemical, 
# crystal, experimental, refinement or atomic coordinate data resulting 
# from the CCDC's data processing and validation procedures.
#
#######################################################################

data_QEMFOD
_symmetry_cell_setting           triclinic
_symmetry_space_group_name_H-M   'P 1'
_symmetry_Int_Tables_number      1
_space_group_name_Hall           'P 1'
loop_
_symmetry_equiv_pos_site_id
_symmetry_equiv_pos_as_xyz
1 x,y,z
_cell_length_a                   7.043(1)
_cell_length_b                   7.076(1)
_cell_length_c                   6.459(1)
_cell_angle_alpha                102.37(1)
_cell_angle_beta                 106.70(1)
_cell_angle_gamma                85.33(1)
_cell_volume                     301.09
loop_
_atom_site_label
_atom_site_type_symbol
_atom_site_fract_x
_atom_site_fract_y
_atom_site_fract_z
Sr1 Sr 0.0000 0.0000 0.0000
O1 O -0.1522(11) -0.3211(11) -0.2356(13)
O2 O 0.0511(14) 0.3979(15) 0.1605(18)
O5 O 0.2755(11) -0.2652(11) -0.8676(13)
O6 O 0.1718(10) -0.1412(10) -0.3370(12)
O7 O 0.1965(10) 0.0536(10) -0.5805(12)
O8 O -0.0529(10) 0.1219(11) -0.3716(12)
O9 O -0.0843(11) -0.1398(11) -0.692(12)
O10 O 0.6399(11) 0.0924(10) -0.0746(13)
O11 O 0.3547(11) 0.1270(11) 0.014(12)
C1 C 0.4090(13) -0.2195(12) -0.6937(15)
C2 C 0.3820(13) -0.0457(13) -0.5180(14)
C3 C 0.3749(14) -0.1116(12) -0.3082(14)
C4 C 0.4614(14) 0.0464(14) -0.1056(16)
B1 B 0.0467(14) -0.0256(14) -0.5022(18)
H1 H 0.486 0.047 -0.483
H2 H 0.451 -0.229 -0.297
H7 H -0.210 -0.313 -0.369
H8 H -0.037 -0.314 -0.247
H9 H 0.161 0.419 0.141
H10 H -0.105 0.467 0.109
O12 O 0.5774(11) -0.3037(10) -0.6466(12)
O7_2 O 0.1965(10) 0.0536(10) 0.4195(12)
O10_2 O -0.3601(11) 0.0924(10) -0.0746(13)
Sr1_2 Sr 1.0000 0.0000 0.0000
O9_2 O -0.0843(11) -0.1398(11) 0.308(12)
Sr1_3 Sr 0.0000 0.0000 -1.0000
O5_2 O 0.2755(11) -0.2652(11) 0.1324(13)
O3 O -0.3789(14) -0.5097(13) -0.0525(15)
H11 H -0.355 -0.507 0.084
H12 H -0.284 -0.441 -0.045
O4 O 0.5947(7) -0.6854(13) 0.4234(15)
H13 H 0.515 -0.731 0.299
H14 H 0.636 -0.754 0.522
N1 N 0.2033(15) -0.5495(13) -0.3310(18)
H3 H 0.172 -0.592 -0.471
H4 H 0.336 -0.553 -0.272
H5 H 0.150 -0.626 -0.258
H6 H 0.156 -0.427 -0.288
loop_
_geom_bond_atom_site_label_1
_geom_bond_atom_site_label_2
_geom_bond_site_symmetry_1
_geom_bond_site_symmetry_2
Sr1 O1 1_555 1_555
O1 H7 1_555 1_555
O2 Sr1 1_555 1_555
O3 H11 1_555 1_555
O4 H13 1_555 1_555
O5 C1 1_555 1_555
O6 Sr1 1_555 1_555
O7 C2 1_555 1_555
O8 Sr1 1_555 1_555
O9 B1 1_555 1_555
O10 C4 1_555 1_555
O11 Sr1 1_555 1_555
N1 H3 1_555 1_555
C1 C2 1_555 1_555
C2 C3 1_555 1_555
C3 O6 1_555 1_555
C4 O11 1_555 1_555
B1 O6 1_555 1_555
H1 C2 1_555 1_555
H2 C3 1_555 1_555
H4 N1 1_555 1_555
H5 N1 1_555 1_555
H6 N1 1_555 1_555
H8 O1 1_555 1_555
H9 O2 1_555 1_555
H10 O2 1_555 1_555
H12 O3 1_555 1_555
H14 O4 1_555 1_555
O12 C1 1_555 1_555
O7_2 Sr1 1_555 1_555
O10_2 Sr1 1_555 1_555
Sr1_2 O10 1_555 1_555
O9_2 Sr1 1_555 1_555
Sr1_3 O5 1_555 1_555
O5_2 Sr1 1_555 1_555
O7 Sr1_3 1_555 1_555
O7 B1 1_555 1_555
O8 B1 1_555 1_555
O9 Sr1_3 1_555 1_555
C3 C4 1_555 1_555

#END
