
#######################################################################
#
#                 Cambridge Crystallographic Data Centre
#                                CCDC 
#
#######################################################################
#
# If this CIF has been generated from an entry in the Cambridge 
# Structural Database, then it will include bibliographic, chemical, 
# crystal, experimental, refinement or atomic coordinate data resulting 
# from the CCDC's data processing and validation procedures.
#
#######################################################################

data_QEMFOD01
_symmetry_cell_setting           triclinic
_symmetry_space_group_name_H-M   'P 1'
_symmetry_Int_Tables_number      1
_space_group_name_Hall           'P 1'
loop_
_symmetry_equiv_pos_site_id
_symmetry_equiv_pos_as_xyz
1 x,y,z
_cell_length_a                   7.043(1)
_cell_length_b                   7.076(1)
_cell_length_c                   6.459(1)
_cell_angle_alpha                102.37(1)
_cell_angle_beta                 106.70(1)
_cell_angle_gamma                85.33(1)
_cell_volume                     301.09
loop_
_atom_site_label
_atom_site_type_symbol
_atom_site_fract_x
_atom_site_fract_y
_atom_site_fract_z
Sr1 Sr 0.00000 0.00000 0.00000
O1 O -0.1522(11) -0.3211(11) -0.2356(13)
O2 O 0.0511(14) 0.3979(15) 0.1605(18)
O5 O 0.2755(11) -0.2652(11) -0.8676(13)
O6 O 0.5784(11) -0.3037(10) -0.6466(12)
O7 O 0.17176(97) -0.14116(95) -0.3370(12)
O8 O 0.1965(10) 0.0536(10) -0.5805(12)
O9 O -0.0529(10) 0.1219(11) -0.3716(12)
O10 O -0.0843(11) -0.1398(11) -0.6919(12)
O11 O 0.6399(11) 0.0924(10) -0.0746(13)
O12 O 0.3547(11) 0.1270(11) 0.0144(12)
C1 C 0.4090(13) -0.2195(12) -0.6937(15)
C2 C 0.3820(13) -0.0457(13) -0.5180(14)
C3 C 0.3749(14) -0.1116(12) -0.3082(14)
C4 C 0.4614(14) 0.0464(14) -0.1056(16)
B1 B 0.0467(14) -0.0256(14) -0.5022(18)
H1 H 0.48573 0.04651 -0.48349
H2 H 0.45059 -0.22881 -0.29720
H7 H -0.20977 -0.31309 -0.36851
H8 H -0.03659 -0.31403 -0.24705
H9 H 0.16116 0.41930 0.14056
H10 H -0.05007 0.46674 0.10919
O8_2 O 0.1965(10) 0.0536(10) 0.4195(12)
O10_2 O -0.0843(11) -0.1398(11) 0.3081(12)
O11_2 O -0.3601(11) 0.0924(10) -0.0746(13)
Sr1_2 Sr 0.00000 0.00000 -1.00000
Sr1_3 Sr 1.00000 0.00000 0.00000
O5_2 O 0.2755(11) -0.2652(11) 0.1324(13)
O3 O -0.3789(14) -0.5097(13) -0.0525(15)
H11 H -0.35532 -0.50654 0.08372
H12 H -0.28367 -0.44122 -0.04536
O4 O 0.5947(17) -0.6854(13) 0.4234(15)
H13 H 0.51454 -0.73113 0.29937
H14 H 0.63560 -0.75372 0.52205
N1 N 0.2033(15) -0.5495(13) -0.3210(18)
H3 H 0.17204 -0.59218 -0.47082
H4 H 0.33607 -0.55263 -0.27246
H5 H 0.15022 -0.62566 -0.25825
H6 H 0.15592 -0.42730 -0.28820
loop_
_geom_bond_atom_site_label_1
_geom_bond_atom_site_label_2
_geom_bond_site_symmetry_1
_geom_bond_site_symmetry_2
Sr1 O1 1_555 1_555
O1 H7 1_555 1_555
O2 Sr1 1_555 1_555
O3 H11 1_555 1_555
O4 H13 1_555 1_555
O5 C1 1_555 1_555
O6 C1 1_555 1_555
O7 Sr1 1_555 1_555
O8 C2 1_555 1_555
O9 Sr1 1_555 1_555
O10 B1 1_555 1_555
O11 C4 1_555 1_555
O12 Sr1 1_555 1_555
N1 H3 1_555 1_555
C1 C2 1_555 1_555
C2 C3 1_555 1_555
C3 O7 1_555 1_555
C4 O12 1_555 1_555
B1 O7 1_555 1_555
H1 C2 1_555 1_555
H2 C3 1_555 1_555
H4 N1 1_555 1_555
H5 N1 1_555 1_555
H6 N1 1_555 1_555
H8 O1 1_555 1_555
H9 O2 1_555 1_555
H10 O2 1_555 1_555
H12 O3 1_555 1_555
H14 O4 1_555 1_555
O8_2 Sr1 1_555 1_555
O10_2 Sr1 1_555 1_555
O11_2 Sr1 1_555 1_555
Sr1_2 O5 1_555 1_555
Sr1_3 O11 1_555 1_555
O5_2 Sr1 1_555 1_555
O8 B1 1_555 1_555
O8 Sr1_2 1_555 1_555
O9 B1 1_555 1_555
O10 Sr1_2 1_555 1_555
C3 C4 1_555 1_555

#END
