
#######################################################################
#
#                 Cambridge Crystallographic Data Centre
#                                CCDC 
#
#######################################################################
#
# If this CIF has been generated from an entry in the Cambridge 
# Structural Database, then it will include bibliographic, chemical, 
# crystal, experimental, refinement or atomic coordinate data resulting 
# from the CCDC's data processing and validation procedures.
#
#######################################################################

data_QEMJEY
_symmetry_cell_setting           monoclinic
_symmetry_space_group_name_H-M   'P 2/c'
_symmetry_Int_Tables_number      13
_space_group_name_Hall           '-P 2yc'
loop_
_symmetry_equiv_pos_site_id
_symmetry_equiv_pos_as_xyz
1 x,y,z
2 -x,y,1/2-z
3 -x,-y,-z
4 x,-y,1/2+z
_cell_length_a                   11.502(8)
_cell_length_b                   6.032(4)
_cell_length_c                   16.359(8)
_cell_angle_alpha                90
_cell_angle_beta                 131.47(3)
_cell_angle_gamma                90
_cell_volume                     850.45
loop_
_atom_site_label
_atom_site_type_symbol
_atom_site_fract_x
_atom_site_fract_y
_atom_site_fract_z
Ag1 Ag 0.22730(9) 0.42740(15) 0.47654(8)
N1 N 0.3376(9) 0.5455(13) 0.4178(7)
N2 N 0.1205(9) 0.3435(14) 0.5430(7)
C1 C 0.4109(11) 0.3718(16) 0.4024(8)
C2 C 0.4507(11) 0.7235(14) 0.4878(8)
C3 C -0.0463(11) 0.2778(15) 0.4581(8)
C4 C 0.1384(10) 0.5211(17) 0.6107(7)
H1 H 0.2667 0.6027 0.3555
H2 H 0.1690 0.2318 0.5843
H3 H 0.4447 0.4336 0.3663
H4 H 0.3365 0.2551 0.3565
H5 H 0.4849 0.7902 0.4529
H6 H 0.4020 0.8378 0.4980
H7 H -0.0840 0.2233 0.4927
H8 H -0.0575 0.1605 0.4127
H9 H 0.1027 0.4710 0.6472
H10 H 0.2472 0.5603 0.6661
Ag1B Ag 0.77270(9) 0.57260(15) 0.52346(8)
Ag1B_2 Ag -0.22730(9) 0.57260(15) 0.52346(8)
N1B N 0.6624(9) 0.4545(13) 0.5822(7)
N2B N -0.1205(9) 0.6565(14) 0.4570(7)
N2B_2 N 0.8795(9) 0.6565(14) 0.4570(7)
C1B C 0.5891(11) 0.6282(16) 0.5976(8)
C2B C 0.5493(11) 0.2765(14) 0.5122(8)
C3B C 0.0463(11) 0.7222(15) 0.5419(8)
C4B C -0.1384(10) 0.4789(17) 0.3893(7)
H1B H 0.7333 0.3973 0.6445
H2B H -0.1690 0.7682 0.4157
H2B_2 H 0.8310 0.7682 0.4157
H3B H 0.5553 0.5664 0.6337
H4B H 0.6635 0.7449 0.6435
H5B H 0.5151 0.2098 0.5471
H6B H 0.5980 0.1622 0.5020
H7B H 0.0840 0.7767 0.5073
H8B H 0.0575 0.8395 0.5873
H9B H -0.1027 0.5290 0.3528
H10B H -0.2472 0.4397 0.3339
Cl1 Cl 0.0000 0.9914(6) 0.2500
O1 O 0.1315(17) 0.922(3) 0.2661(18)
O3 O -0.1255(18) 0.973(3) 0.1327(8)
O1A O -0.1315(17) 0.922(3) 0.2339(18)
O3A O 0.1255(18) 0.973(3) 0.3673(8)
Cl2 Cl 0.5000 0.0424(7) 0.7500
O5 O 0.3820(19) 0.082(3) 0.7560(16)
O6 O 0.6301(17) -0.036(4) 0.8548(12)
O5A O 0.6180(19) 0.082(3) 0.7440(16)
O6A O 0.3699(17) -0.036(4) 0.6452(12)
O2? O -0.034(3) 0.857(4) 0.3004(18)
O4? O 0.009(3) 1.2194(17) 0.2721(13)
O7? O 0.532(2) 0.248(3) 0.7279(19)
O8? O 0.433(4) -0.106(4) 0.662(2)
loop_
_geom_bond_atom_site_label_1
_geom_bond_atom_site_label_2
_geom_bond_site_symmetry_1
_geom_bond_site_symmetry_2
Ag1 N1 1_555 1_555
Cl1 O1 1_555 1_555
Cl2 O5 1_555 1_555
O3 Cl1 1_555 1_555
O6 Cl2 1_555 1_555
N1 C1 1_555 1_555
N2 Ag1 1_555 1_555
C1 H3 1_555 1_555
C2 N1 1_555 1_555
C3 N2 1_555 1_555
C4 N2 1_555 1_555
H1 N1 1_555 1_555
H2 N2 1_555 1_555
H4 C1 1_555 1_555
H5 C2 1_555 1_555
H6 C2 1_555 1_555
H7 C3 1_555 1_555
H8 C3 1_555 1_555
H9 C4 1_555 1_555
H10 C4 1_555 1_555
Ag1B N1B 1_555 1_555
Ag1B_2 N2B 1_555 1_555
O1A Cl1 1_555 1_555
O3A Cl1 1_555 1_555
O5A Cl2 1_555 1_555
O6A Cl2 1_555 1_555
N1B C1B 1_555 1_555
N2B C3B 1_555 1_555
N2B_2 Ag1B 1_555 1_555
C1B C2 1_555 1_555
C2B C1 1_555 1_555
C3B C4 1_555 1_555
C4B C3 1_555 1_555
H1B N1B 1_555 1_555
H2B N2B 1_555 1_555
H2B_2 N2B_2 1_555 1_555
H3B C1B 1_555 1_555
H4B C1B 1_555 1_555
H5B C2B 1_555 1_555
H6B C2B 1_555 1_555
H7B C3B 1_555 1_555
H8B C3B 1_555 1_555
H9B C4B 1_555 1_555
H10B C4B 1_555 1_555
N1B C2B 1_555 1_555
N2B C4B 1_555 1_555

#END
