
#######################################################################
#
#                 Cambridge Crystallographic Data Centre
#                                CCDC 
#
#######################################################################
#
# If this CIF has been generated from an entry in the Cambridge 
# Structural Database, then it will include bibliographic, chemical, 
# crystal, experimental, refinement or atomic coordinate data resulting 
# from the CCDC's data processing and validation procedures.
#
#######################################################################

data_QEMJOI
_symmetry_cell_setting           orthorhombic
_symmetry_space_group_name_H-M   'P b c n'
_symmetry_Int_Tables_number      60
_space_group_name_Hall           '-P 2n 2ab'
loop_
_symmetry_equiv_pos_site_id
_symmetry_equiv_pos_as_xyz
1 x,y,z
2 1/2-x,1/2-y,1/2+z
3 -x,y,1/2-z
4 1/2+x,1/2-y,-z
5 -x,-y,-z
6 1/2+x,1/2+y,1/2-z
7 x,-y,1/2+z
8 1/2-x,1/2+y,z
_cell_length_a                   13.167(2)
_cell_length_b                   11.055(2)
_cell_length_c                   15.534(2)
_cell_angle_alpha                90
_cell_angle_beta                 90
_cell_angle_gamma                90
_cell_volume                     2261.15
loop_
_atom_site_label
_atom_site_type_symbol
_atom_site_fract_x
_atom_site_fract_y
_atom_site_fract_z
Pt1 Pt 0.0000 0.0000 0.0000
Cu1 Cu 0.0000 0.33069(9) 0.2500
N1 N 0.1504(3) 0.3427(4) 0.2250(3)
N2 N 0.0460(4) 0.4727(5) 0.3373(4)
C1 C 0.1985(5) 0.2686(6) 0.1710(5)
H1 H 0.1611 0.2091 0.1430
C2 C 0.3010(5) 0.2761(8) 0.1550(5)
H2 H 0.3327 0.2238 0.1166
C3 C 0.2016(5) 0.4291(6) 0.2668(4)
C4 C 0.1438(5) 0.5080(5) 0.3240(4)
N3 N -0.0283(5) 0.1863(6) 0.1515(5)
C5 C 0.3059(6) 0.4394(8) 0.2538(5)
H3 H 0.3424 0.4981 0.2835
N4 N 0.2339(5) 0.0480(8) 0.0203(5)
C6 C 0.1492(7) 0.0283(7) 0.0112(5)
C7 C 0.1842(7) 0.6112(7) 0.3633(5)
H4 H 0.2509 0.6352 0.3531
C8 C -0.0111(7) 0.5406(10) 0.3932(7)
H5 H -0.0777 0.5171 0.4042
C9 C 0.3551(5) 0.3639(8) 0.1978(6)
H6 H 0.4246 0.3719 0.1888
C10 C 0.0246(10) 0.6374(10) 0.4318(6)
H7 H -0.0169 0.6805 0.4694
C11 C -0.0210(5) 0.1180(7) 0.0960(6)
C12 C 0.1223(9) 0.6760(8) 0.4175(6)
H8 H 0.1464 0.7455 0.4443
Cu1F Cu 0.0000 -0.33069(9) -0.2500
N1B N -0.1504(3) 0.3427(4) 0.2750(3)
N2B N -0.0460(4) 0.4727(5) 0.1627(4)
C1B C -0.1985(5) 0.2686(6) 0.3290(5)
H1B H -0.1611 0.2091 0.3570
C2B C -0.3010(5) 0.2761(8) 0.3450(5)
H2B H -0.3327 0.2238 0.3834
C3B C -0.2016(5) 0.4291(6) 0.2332(4)
C4B C -0.1438(5) 0.5080(5) 0.1760(4)
N3D N 0.0283(5) -0.1863(6) -0.1515(5)
N3B N 0.0283(5) 0.1863(6) 0.3485(5)
C5B C -0.3059(6) 0.4394(8) 0.2462(5)
H3B H -0.3424 0.4981 0.2165
N4D N -0.2339(5) -0.0480(8) -0.0203(5)
C6D C -0.1492(7) -0.0283(7) -0.0112(5)
C7B C -0.1842(7) 0.6112(7) 0.1367(5)
H4B H -0.2509 0.6352 0.1469
C8B C 0.0111(7) 0.5406(10) 0.1068(7)
H5B H 0.0777 0.5171 0.0958
C9B C -0.3551(5) 0.3639(8) 0.3022(6)
H6B H -0.4246 0.3719 0.3112
C10B C -0.0246(10) 0.6374(10) 0.0682(6)
H7B H 0.0169 0.6805 0.0306
C11D C 0.0210(5) -0.1180(7) -0.0960(6)
C12B C -0.1223(9) 0.6760(8) 0.0825(6)
H8B H -0.1464 0.7455 0.0557
loop_
_geom_bond_atom_site_label_1
_geom_bond_atom_site_label_2
_geom_bond_site_symmetry_1
_geom_bond_site_symmetry_2
Pt1 C6 1_555 1_555
Cu1 N1 1_555 1_555
N1 C1 1_555 1_555
N2 Cu1 1_555 1_555
C1 H1 1_555 1_555
C2 C1 1_555 1_555
H2 C2 1_555 1_555
C3 N1 1_555 1_555
C4 N2 1_555 1_555
N3 Cu1 1_555 1_555
C5 C3 1_555 1_555
H3 C5 1_555 1_555
N4 C6 1_555 1_555
C7 C4 1_555 1_555
H4 C7 1_555 1_555
C8 N2 1_555 1_555
H5 C8 1_555 1_555
C9 C2 1_555 1_555
H6 C9 1_555 1_555
C10 C8 1_555 1_555
H7 C10 1_555 1_555
C11 Pt1 1_555 1_555
C12 C7 1_555 1_555
H8 C12 1_555 1_555
Cu1F N3D 1_555 1_555
N1B Cu1 1_555 1_555
N2B Cu1 1_555 1_555
C1B N1B 1_555 1_555
H1B C1B 1_555 1_555
C2B C1B 1_555 1_555
H2B C2B 1_555 1_555
C3B N1B 1_555 1_555
C4B N2B 1_555 1_555
N3D C11D 1_555 1_555
N3B Cu1 1_555 1_555
C5B C3B 1_555 1_555
H3B C5B 1_555 1_555
N4D C6D 1_555 1_555
C6D Pt1 1_555 1_555
C7B C4B 1_555 1_555
H4B C7B 1_555 1_555
C8B N2B 1_555 1_555
H5B C8B 1_555 1_555
C9B C2B 1_555 1_555
H6B C9B 1_555 1_555
C10B C8B 1_555 1_555
H7B C10B 1_555 1_555
C11D Pt1 1_555 1_555
C12B C7B 1_555 1_555
H8B C12B 1_555 1_555
C3 C4 1_555 1_555
N3 C11 1_555 1_555
C5 C9 1_555 1_555
C10 C12 1_555 1_555
C3B C4B 1_555 1_555
C5B C9B 1_555 1_555
C10B C12B 1_555 1_555

#END
