
#######################################################################
#
#                 Cambridge Crystallographic Data Centre
#                                CCDC 
#
#######################################################################
#
# If this CIF has been generated from an entry in the Cambridge 
# Structural Database, then it will include bibliographic, chemical, 
# crystal, experimental, refinement or atomic coordinate data resulting 
# from the CCDC's data processing and validation procedures.
#
#######################################################################

data_QEMYIQ
_symmetry_cell_setting           orthorhombic
_symmetry_space_group_name_H-M   'P 21 21 21'
_symmetry_Int_Tables_number      19
_space_group_name_Hall           'P 2ac 2ab'
loop_
_symmetry_equiv_pos_site_id
_symmetry_equiv_pos_as_xyz
1 x,y,z
2 1/2-x,-y,1/2+z
3 -x,1/2+y,1/2-z
4 1/2+x,1/2-y,-z
_cell_length_a                   5.441(2)
_cell_length_b                   9.0578(10)
_cell_length_c                   26.338(7)
_cell_angle_alpha                90
_cell_angle_beta                 90
_cell_angle_gamma                90
_cell_volume                     1298.03
loop_
_atom_site_label
_atom_site_type_symbol
_atom_site_fract_x
_atom_site_fract_y
_atom_site_fract_z
Cu1 Cu 0.04863(11) 0.79137(5) 0.79673(2)
O1 O 0.0232(7) 0.6089(4) 0.75488(13)
O2 O 0.2044(7) 0.3916(4) 0.74360(13)
O3 O 0.7286(6) 0.7534(4) 0.85354(14)
N1 N 0.1554(10) 0.9560(5) 0.8424(2)
H1 H 0.1471(10) 1.0419(5) 0.8253(2)
H2 H 0.0519(10) 0.9617(5) 0.8690(2)
N2 N 0.3513(7) 0.7060(4) 0.81745(13)
C1 C 0.4073(11) 0.9344(6) 0.8612(2)
H3 H 0.5089(11) 1.0114(6) 0.8456(2)
C2 C 0.5084(8) 0.7855(5) 0.8427(2)
C3 C 0.4207(8) 0.5683(4) 0.7927(2)
H4 H 0.5533(8) 0.5908(4) 0.7688(2)
C4 C 0.1984(9) 0.5198(5) 0.7618(2)
C5 C 0.4237(27) 0.9548(13) 0.9162(3)
H5 H 0.376(23) 1.0536(46) 0.9247(6)
H6 H 0.5898(50) 0.938(13) 0.9270(7)
H7 H 0.317(17) 0.8859(96) 0.9328(4)
C6 C 0.5147(9) 0.4473(5) 0.8288(2)
H8 H 0.5334(9) 0.3565(5) 0.8096(2)
H9 H 0.6760(9) 0.4755(5) 0.8410(2)
C7 C 0.3536(11) 0.4176(5) 0.8733(2)
C8 C 0.4144(16) 0.4755(7) 0.9207(2)
H10 H 0.5551(16) 0.5328(7) 0.9245(2)
C9 C 0.2631(17) 0.4472(9) 0.9626(3)
H11 H 0.3019(17) 0.4881(9) 0.9940(3)
C10 C 0.0592(18) 0.3605(8) 0.9580(3)
H12 H -0.0385(18) 0.3408(8) 0.9862(3)
C11 C -0.0019(14) 0.3013(7) 0.9105(3)
H13 H -0.1402(14) 0.2418(7) 0.9071(3)
C12 C 0.1433(12) 0.3314(6) 0.8690(2)
H14 H 0.0998(12) 0.2934(6) 0.8375(2)
O2B O -0.2044(7) 0.8916(4) 0.75640(13)
O3_2 O -0.2714(6) 0.7534(4) 0.85354(14)
Cu1B Cu -0.04863(11) 0.29137(5) 0.70327(2)
Cu1_2 Cu 1.04863(11) 0.79137(5) 0.79673(2)
O4 O -0.0551(30) 0.7632(16) 0.9509(5)
loop_
_geom_bond_atom_site_label_1
_geom_bond_atom_site_label_2
_geom_bond_site_symmetry_1
_geom_bond_site_symmetry_2
Cu1 O1 1_555 1_555
O1 C4 1_555 1_555
O2 C4 1_555 1_555
O3 C2 1_555 1_555
N1 Cu1 1_555 1_555
H1 N1 1_555 1_555
H2 N1 1_555 1_555
N2 Cu1 1_555 1_555
C1 N1 1_555 1_555
H3 C1 1_555 1_555
C2 N2 1_555 1_555
C3 N2 1_555 1_555
H4 C3 1_555 1_555
C4 C3 1_555 1_555
C5 C1 1_555 1_555
H5 C5 1_555 1_555
H6 C5 1_555 1_555
H7 C5 1_555 1_555
C6 C3 1_555 1_555
H8 C6 1_555 1_555
H9 C6 1_555 1_555
C7 C6 1_555 1_555
C8 C7 1_555 1_555
H10 C8 1_555 1_555
C9 C8 1_555 1_555
H11 C9 1_555 1_555
C10 C9 1_555 1_555
H12 C10 1_555 1_555
C11 C10 1_555 1_555
H13 C11 1_555 1_555
C12 C7 1_555 1_555
H14 C12 1_555 1_555
O2B Cu1 1_555 1_555
O3_2 Cu1 1_555 1_555
Cu1B O2 1_555 1_555
Cu1_2 O3 1_555 1_555
C1 C2 1_555 1_555
C11 C12 1_555 1_555

#END
