
#######################################################################
#
#                 Cambridge Crystallographic Data Centre
#                                CCDC 
#
#######################################################################
#
# If this CIF has been generated from an entry in the Cambridge 
# Structural Database, then it will include bibliographic, chemical, 
# crystal, experimental, refinement or atomic coordinate data resulting 
# from the CCDC's data processing and validation procedures.
#
#######################################################################

data_QEMYEM
_symmetry_cell_setting           orthorhombic
_symmetry_space_group_name_H-M   'P 21 21 21'
_symmetry_Int_Tables_number      19
_space_group_name_Hall           'P 2ac 2ab'
loop_
_symmetry_equiv_pos_site_id
_symmetry_equiv_pos_as_xyz
1 x,y,z
2 1/2-x,-y,1/2+z
3 -x,1/2+y,1/2-z
4 1/2+x,1/2-y,-z
_cell_length_a                   9.371(2)
_cell_length_b                   10.195(2)
_cell_length_c                   10.688(2)
_cell_angle_alpha                90
_cell_angle_beta                 90
_cell_angle_gamma                90
_cell_volume                     1021.1
loop_
_atom_site_label
_atom_site_type_symbol
_atom_site_fract_x
_atom_site_fract_y
_atom_site_fract_z
Cu1 Cu 0.73895(4) 0.14235(4) 0.52839(3)
O1 O 0.9348(2) 0.2151(2) 0.5023(2)
O2 O 1.1521(2) 0.2259(2) 0.5852(2)
O3 O 0.7820(2) 0.0069(2) 0.8757(2)
N1 N 0.5622(2) 0.0614(2) 0.6033(2)
H1 H 0.4984(2) 0.1249(2) 0.6205(2)
H2 H 0.5224(2) 0.0063(2) 0.5474(2)
N2 N 0.8267(2) 0.0723(2) 0.6743(2)
C1 C 0.5962(3) -0.0115(3) 0.7193(3)
H3 H 0.5262(3) 0.0099(3) 0.7843(3)
C2 C 0.7455(3) 0.0261(2) 0.7639(2)
C3 C 0.9775(3) 0.0985(3) 0.6944(2)
H4 H 0.9887(3) 0.1474(3) 0.7727(2)
C4 C 1.0248(3) 0.1858(2) 0.5855(3)
C5 C 0.5934(4) -0.1585(3) 0.6929(3)
H5 H 0.4975(6) -0.1852(6) 0.6744(24)
H6 H 0.6272(27) -0.2052(3) 0.7651(10)
H7 H 0.6538(23) -0.1776(5) 0.6227(16)
C6 C 1.0629(3) -0.0302(3) 0.7036(3)
H8 H 1.0081(3) -0.0886(3) 0.7583(3)
C7 C 1.0741(3) -0.0989(4) 0.5778(3)
H9 H 0.9809(3) -0.1055(8) 0.5409(5)
H10 H 1.1129(6) -0.1852(3) 0.5894(3)
H11 H 1.1354(6) -0.0494(3) 0.5235(3)
C8 C 1.2078(3) -0.0110(4) 0.7660(3)
H12 H 1.1946(3) 0.0270(4) 0.8474(3)
H13 H 1.2653(4) 0.0464(4) 0.7157(3)
H14 H 1.2546(4) -0.0943(3) 0.7741(3)
O2C O 0.6521(2) 0.2741(2) 0.4148(2)
O3A O 0.7180(2) -0.0069(2) 0.3757(2)
Cu1C Cu 1.23895(4) 0.35765(4) 0.47161(3)
Cu1A Cu 0.76105(4) -0.14235(4) 1.02839(3)
loop_
_geom_bond_atom_site_label_1
_geom_bond_atom_site_label_2
_geom_bond_site_symmetry_1
_geom_bond_site_symmetry_2
Cu1 O1 1_555 1_555
O1 C4 1_555 1_555
O2 C4 1_555 1_555
O3 C2 1_555 1_555
N1 Cu1 1_555 1_555
H1 N1 1_555 1_555
H2 N1 1_555 1_555
N2 Cu1 1_555 1_555
C1 N1 1_555 1_555
H3 C1 1_555 1_555
C2 N2 1_555 1_555
C3 N2 1_555 1_555
H4 C3 1_555 1_555
C4 C3 1_555 1_555
C5 C1 1_555 1_555
H5 C5 1_555 1_555
H6 C5 1_555 1_555
H7 C5 1_555 1_555
C6 C3 1_555 1_555
H8 C6 1_555 1_555
C7 C6 1_555 1_555
H9 C7 1_555 1_555
H10 C7 1_555 1_555
H11 C7 1_555 1_555
C8 C6 1_555 1_555
H12 C8 1_555 1_555
H13 C8 1_555 1_555
H14 C8 1_555 1_555
O2C Cu1 1_555 1_555
O3A Cu1 1_555 1_555
Cu1C O2 1_555 1_555
Cu1A O3 1_555 1_555
C1 C2 1_555 1_555

#END
