
#######################################################################
#
#                 Cambridge Crystallographic Data Centre
#                                CCDC 
#
#######################################################################
#
# If this CIF has been generated from an entry in the Cambridge 
# Structural Database, then it will include bibliographic, chemical, 
# crystal, experimental, refinement or atomic coordinate data resulting 
# from the CCDC's data processing and validation procedures.
#
#######################################################################

data_QENBOB
_symmetry_cell_setting           triclinic
_symmetry_space_group_name_H-M   'P 1'
_symmetry_Int_Tables_number      1
_space_group_name_Hall           'P 1'
loop_
_symmetry_equiv_pos_site_id
_symmetry_equiv_pos_as_xyz
1 x,y,z
_cell_length_a                   10.787(3)
_cell_length_b                   11.602(3)
_cell_length_c                   14.244(4)
_cell_angle_alpha                110.584(3)
_cell_angle_beta                 91.9410(10)
_cell_angle_gamma                109.711(2)
_cell_volume                     1547.37
loop_
_atom_site_label
_atom_site_type_symbol
_atom_site_fract_x
_atom_site_fract_y
_atom_site_fract_z
Zn1 Zn 0.71880(4) 0.27368(5) 0.96978(4)
Zn2 Zn 0.72311(4) 0.25853(5) 0.63005(3)
Zn3 Zn 1.13641(4) 0.46357(5) 0.53110(3)
Zn4 Zn 1.10713(5) 0.43765(5) 1.18650(4)
O1 O 0.7008(4) 0.2544(4) 1.1131(3)
O2 O 0.7145(5) 0.0827(5) 0.9019(4)
O3 O 0.9189(3) 0.3641(4) 1.0316(3)
O4 O 0.7743(3) 0.2969(3) 0.8368(2)
O5 O 0.8995(3) 0.3588(4) 0.7315(2)
O6 O 0.7648(4) 0.0890(5) 0.5868(4)
O7 O 0.7284(3) 0.2960(4) 0.5022(3)
O8 O 0.9439(3) 0.3404(4) 0.5210(2)
O9 O 1.1500(3) 0.4773(4) 0.6854(3)
O10 O 1.1011(4) 0.6441(5) 0.5793(4)
O11 O 1.0770(3) 0.4419(4) 0.3823(2)
O12 O 0.9377(3) 0.3908(4) 0.2457(2)
O13 O 1.1306(5) 0.6358(5) 1.2460(4)
O14 O 1.1359(3) 0.4500(4) 1.0452(3)
N1 N 0.6844(5) 0.4571(5) 1.0305(3)
N2 N 0.5097(4) 0.2131(4) 0.9248(3)
N3 N 0.6423(4) 0.4025(5) 0.7105(3)
N4 N 0.5165(4) 0.1454(5) 0.6075(4)
N5 N 1.3480(4) 0.5676(5) 0.5554(4)
N6 N 1.2093(4) 0.3102(4) 0.4709(3)
N7 N 1.3048(4) 0.4708(5) 1.2398(3)
N8 N 1.1039(5) 0.2420(5) 1.1383(4)
C1 C 0.7769(7) 0.5762(6) 1.0832(5)
H1 H 0.8655 0.5855 1.0964
C2 C 0.7416(10) 0.6901(7) 1.1197(6)
H2 H 0.8072 0.7740 1.1543
C3 C 0.6084(10) 0.6746(8) 1.1031(6)
H3 H 0.5826 0.7471 1.1277
C4 C 0.5169(8) 0.5508(7) 1.0500(5)
H4 H 0.4269 0.5375 1.0383
C5 C 0.5568(6) 0.4450(6) 1.0134(4)
C6 C 0.4592(5) 0.3069(6) 0.9573(4)
C7 C 0.3212(6) 0.2750(8) 0.9392(5)
H5 H 0.2860 0.3410 0.9621
C8 C 0.2382(6) 0.1448(9) 0.8869(6)
H6 H 0.1460 0.1216 0.8757
C9 C 0.2917(6) 0.0497(9) 0.8515(6)
H7 H 0.2375 -0.0384 0.8139
C10 C 0.4279(5) 0.0879(6) 0.8732(5)
H8 H 0.4647 0.0232 0.8506
C11 C 1.0212(4) 0.4057(5) 0.9945(4)
C12 C 1.0169(5) 0.4083(7) 0.8905(4)
H9 H 1.0737 0.3633 0.8565
H10 H 1.0591 0.5004 0.8990
C13 C 0.8852(4) 0.3503(5) 0.8166(3)
C14 C 0.7137(6) 0.5321(6) 0.7613(5)
H11 H 0.8054 0.5634 0.7623
C15 C 0.6557(8) 0.6225(8) 0.8129(5)
H12 H 0.7070 0.7121 0.8479
C16 C 0.5184(9) 0.5728(9) 0.8098(6)
H13 H 0.4766 0.6293 0.8446
C17 C 0.4450(7) 0.4421(8) 0.7563(5)
H14 H 0.3526 0.4097 0.7523
C18 C 0.5088(5) 0.3560(6) 0.7070(4)
C19 C 0.4395(5) 0.2119(6) 0.6498(4)
C20 C 0.3013(5) 0.1476(8) 0.6387(5)
H15 H 0.2487 0.1952 0.6680
C21 C 0.2443(6) 0.0131(9) 0.5840(6)
H16 H 0.1532 -0.0322 0.5785
C22 C 0.3242(7) -0.0548(8) 0.5368(7)
H17 H 0.2873 -0.1445 0.4950
C23 C 0.4589(6) 0.0154(6) 0.5540(6)
H18 H 0.5135 -0.0306 0.5266
C24 C 0.8407(4) 0.3356(4) 0.4762(3)
C25 C 0.8393(4) 0.3789(5) 0.3883(3)
H19 H 0.8207 0.4596 0.4119
H20 H 0.7642 0.3117 0.3362
C26 C 0.9607(4) 0.4047(4) 0.3373(3)
C27 C 1.4110(6) 0.6988(7) 0.6060(5)
H21 H 1.3615 0.7516 0.6303
C28 C 1.5505(6) 0.7569(8) 0.6224(6)
H22 H 1.5934 0.8485 0.6544
C29 C 1.6228(6) 0.6793(8) 0.5915(5)
H23 H 1.7157 0.7172 0.6037
C30 C 1.5589(5) 0.5445(7) 0.5422(4)
H24 H 1.6070 0.4896 0.5207
C31 C 1.4199(4) 0.4927(6) 0.5255(4)
C32 C 1.3417(5) 0.3470(6) 0.4736(4)
C33 C 1.3999(6) 0.2550(7) 0.4287(4)
H25 H 1.4920 0.2825 0.4319
C34 C 1.3201(8) 0.1237(8) 0.3798(5)
H26 H 1.3572 0.0608 0.3496
C35 C 1.1849(7) 0.0866(7) 0.3762(5)
H27 H 1.1290 -0.0020 0.3423
C36 C 1.1311(6) 0.1809(7) 0.4229(5)
H28 H 1.0392 0.1545 0.4212
C37 C 1.4000(5) 0.5885(7) 1.2894(5)
H29 H 1.3795 0.6644 1.3076
C38 C 1.5334(6) 0.6004(9) 1.3153(5)
H30 H 1.5992 0.6830 1.3532
C39 C 1.5634(6) 0.4895(10) 1.2840(6)
H31 H 1.6511 0.4962 1.2972
C40 C 1.4657(6) 0.3699(8) 1.2339(5)
H32 H 1.4852 0.2934 1.2131
C41 C 1.3354(5) 0.3617(6) 1.2133(4)
C42 C 1.2224(6) 0.2331(6) 1.1601(4)
C43 C 1.2334(8) 0.1106(8) 1.1338(5)
H33 H 1.3150 0.1050 1.1495
C44 C 1.1204(9) -0.0045(8) 1.0835(6)
H34 H 1.1260 -0.0877 1.0641
C45 C 0.9974(9) 0.0077(8) 1.0627(6)
H35 H 0.9199 -0.0670 1.0307
C46 C 0.9960(6) 0.1308(7) 1.0905(5)
H36 H 0.9156 0.1392 1.0757
Zn4_2 Zn 1.10713(5) 0.43765(5) 0.18650(4)
O12_2 O 0.9377(3) 0.3908(4) 1.2457(2)
O15 O 0.5360(6) -0.0430(6) 1.2835(5)
O16 O 0.7076(5) 0.0303(7) 1.2207(5)
O17 O 0.5388(5) 0.0827(6) 1.2009(4)
N9 N 0.5942(5) 0.0249(5) 1.2340(4)
O18 O 0.9701(7) -0.0614(9) 0.6723(6)
O19 O 0.8732(8) 0.0604(7) 0.7536(5)
O20 O 0.9034(6) -0.0770(7) 0.8059(5)
N10 N 0.9180(5) -0.0251(6) 0.7425(4)
O21 O 1.3743(7) 0.7953(11) 0.9896(5)
O22 O 1.1680(6) 0.7282(6) 0.9283(5)
O23 O 1.3164(6) 0.7376(7) 0.8302(4)
N11 N 1.2866(6) 0.7531(6) 0.9171(4)
O24 O 0.8361(5) 0.7061(8) 0.4525(5)
O25 O 1.0274(4) 0.7073(5) 0.4194(3)
O26 O 0.9257(7) 0.7910(7) 0.3490(5)
N12 N 0.9288(4) 0.7367(5) 0.4080(4)
O27 O 1.0191(5) 0.7266(5) 0.7591(4)
O28 O 0.7873(9) -0.0345(8) 0.3988(5)
O29 O 0.6506(6) -0.0862(5) 0.9983(4)
O30 O 1.2629(7) 0.8126(6) 0.1731(5)
loop_
_geom_bond_atom_site_label_1
_geom_bond_atom_site_label_2
_geom_bond_site_symmetry_1
_geom_bond_site_symmetry_2
Zn1 O1 1_555 1_555
Zn2 O5 1_555 1_555
Zn3 O8 1_555 1_555
Zn4 O13 1_555 1_555
O2 Zn1 1_555 1_555
O3 Zn1 1_555 1_555
O4 Zn1 1_555 1_555
O5 C13 1_555 1_555
O6 Zn2 1_555 1_555
O7 Zn2 1_555 1_555
O8 C24 1_555 1_555
O9 Zn3 1_555 1_555
O10 Zn3 1_555 1_555
O11 Zn3 1_555 1_555
O12 C26 1_555 1_555
O14 Zn4 1_555 1_555
O15 N9 1_555 1_555
O16 N9 1_555 1_555
O17 N9 1_555 1_555
O18 N10 1_555 1_555
O19 N10 1_555 1_555
O20 N10 1_555 1_555
O21 N11 1_555 1_555
O22 N11 1_555 1_555
O23 N11 1_555 1_555
O24 N12 1_555 1_555
O25 N12 1_555 1_555
O26 N12 1_555 1_555
N1 Zn1 1_555 1_555
N2 Zn1 1_555 1_555
N3 Zn2 1_555 1_555
N4 Zn2 1_555 1_555
N5 Zn3 1_555 1_555
N6 Zn3 1_555 1_555
N7 Zn4 1_555 1_555
N8 Zn4 1_555 1_555
C1 N1 1_555 1_555
H1 C1 1_555 1_555
C2 C1 1_555 1_555
H2 C2 1_555 1_555
C3 C2 1_555 1_555
H3 C3 1_555 1_555
C4 C3 1_555 1_555
H4 C4 1_555 1_555
C5 N1 1_555 1_555
C6 N2 1_555 1_555
C7 C6 1_555 1_555
H5 C7 1_555 1_555
C8 C7 1_555 1_555
H6 C8 1_555 1_555
C9 C8 1_555 1_555
H7 C9 1_555 1_555
C10 N2 1_555 1_555
H8 C10 1_555 1_555
C11 O3 1_555 1_555
C12 C11 1_555 1_555
H9 C12 1_555 1_555
H10 C12 1_555 1_555
C13 O4 1_555 1_555
C14 N3 1_555 1_555
H11 C14 1_555 1_555
C15 C14 1_555 1_555
H12 C15 1_555 1_555
C16 C15 1_555 1_555
H13 C16 1_555 1_555
C17 C16 1_555 1_555
H14 C17 1_555 1_555
C18 N3 1_555 1_555
C19 N4 1_555 1_555
C20 C19 1_555 1_555
H15 C20 1_555 1_555
C21 C20 1_555 1_555
H16 C21 1_555 1_555
C22 C21 1_555 1_555
H17 C22 1_555 1_555
C23 N4 1_555 1_555
H18 C23 1_555 1_555
C24 O7 1_555 1_555
C25 C24 1_555 1_555
H19 C25 1_555 1_555
H20 C25 1_555 1_555
C26 O11 1_555 1_555
C27 N5 1_555 1_555
H21 C27 1_555 1_555
C28 C27 1_555 1_555
H22 C28 1_555 1_555
C29 C28 1_555 1_555
H23 C29 1_555 1_555
C30 C29 1_555 1_555
H24 C30 1_555 1_555
C31 N5 1_555 1_555
C32 N6 1_555 1_555
C33 C32 1_555 1_555
H25 C33 1_555 1_555
C34 C33 1_555 1_555
H26 C34 1_555 1_555
C35 C34 1_555 1_555
H27 C35 1_555 1_555
C36 N6 1_555 1_555
H28 C36 1_555 1_555
C37 N7 1_555 1_555
H29 C37 1_555 1_555
C38 C37 1_555 1_555
H30 C38 1_555 1_555
C39 C38 1_555 1_555
H31 C39 1_555 1_555
C40 C39 1_555 1_555
H32 C40 1_555 1_555
C41 N7 1_555 1_555
C42 N8 1_555 1_555
C43 C42 1_555 1_555
H33 C43 1_555 1_555
C44 C43 1_555 1_555
H34 C44 1_555 1_555
C45 C44 1_555 1_555
H35 C45 1_555 1_555
C46 N8 1_555 1_555
H36 C46 1_555 1_555
Zn4_2 O12 1_555 1_555
O12_2 Zn4 1_555 1_555
O14 C11 1_555 1_555
C4 C5 1_555 1_555
C5 C6 1_555 1_555
C9 C10 1_555 1_555
C12 C13 1_555 1_555
C17 C18 1_555 1_555
C18 C19 1_555 1_555
C22 C23 1_555 1_555
C25 C26 1_555 1_555
C30 C31 1_555 1_555
C31 C32 1_555 1_555
C35 C36 1_555 1_555
C40 C41 1_555 1_555
C41 C42 1_555 1_555
C45 C46 1_555 1_555

#END
