
#######################################################################
#
#                 Cambridge Crystallographic Data Centre
#                                CCDC 
#
#######################################################################
#
# If this CIF has been generated from an entry in the Cambridge 
# Structural Database, then it will include bibliographic, chemical, 
# crystal, experimental, refinement or atomic coordinate data resulting 
# from the CCDC's data processing and validation procedures.
#
#######################################################################

data_QENFEV
_symmetry_cell_setting           monoclinic
_symmetry_space_group_name_H-M   'P 21/n'
_symmetry_Int_Tables_number      14
_space_group_name_Hall           '-P 2yn'
loop_
_symmetry_equiv_pos_site_id
_symmetry_equiv_pos_as_xyz
1 x,y,z
2 1/2-x,1/2+y,1/2-z
3 -x,-y,-z
4 1/2+x,1/2-y,1/2+z
_cell_length_a                   8.377(5)
_cell_length_b                   13.291(8)
_cell_length_c                   17.116(10)
_cell_angle_alpha                90
_cell_angle_beta                 97.930(9)
_cell_angle_gamma                90
_cell_volume                     1887.45
loop_
_atom_site_label
_atom_site_type_symbol
_atom_site_fract_x
_atom_site_fract_y
_atom_site_fract_z
Zn1 Zn 0.68596(3) 0.46175(2) 0.076996(16)
O1 O 0.7175(2) 0.45866(14) -0.03796(11)
O2 O 0.4963(2) 0.47224(14) -0.12510(12)
O3 O 0.9024(2) 0.38056(16) 0.11550(11)
O4 O 0.7820(2) 0.42454(17) 0.21253(12)
N1 N 0.5466(2) 0.32204(15) 0.06526(12)
N2 N 0.2156(3) 0.01006(18) 0.09809(14)
N3 N 0.1451(3) -0.08310(18) 0.07458(14)
N4 N -0.1915(2) -0.39490(15) 0.08681(11)
C1 C 0.5487(3) 0.26072(19) 0.00433(15)
H1 H 0.6108 0.2786 -0.0345
C2 C 0.4637(3) 0.17195(19) -0.00428(15)
H2 H 0.4662 0.1324 -0.0489
C3 C 0.3744(3) 0.14195(19) 0.05389(14)
C4 C 0.3741(3) 0.2053(2) 0.11788(15)
H3 H 0.3164 0.1881 0.1586
C5 C 0.4589(3) 0.2934(2) 0.12114(15)
H4 H 0.4556 0.3355 0.1643
C6 C 0.2881(3) 0.0465(2) 0.04457(16)
H5 H 0.2864 0.0111 -0.0024
C7 C 0.0525(3) -0.11486(19) 0.12093(15)
H6 H 0.0375 -0.0765 0.1648
C8 C -0.0318(3) -0.21044(18) 0.10741(14)
C9 C -0.0186(3) -0.27136(19) 0.04259(14)
H7 H 0.0444 -0.2511 0.0048
C10 C -0.0986(3) -0.36113(19) 0.03476(14)
H8 H -0.0880 -0.4008 -0.0090
C11 C -0.2046(3) -0.3363(2) 0.14864(14)
H9 H -0.2689 -0.3584 0.1854
C12 C -0.1286(3) -0.2453(2) 0.16117(15)
H10 H -0.1418 -0.2071 0.2054
C13 C 0.6429(3) 0.45683(18) -0.10591(15)
C14 C 0.7392(4) 0.4334(3) -0.17090(17)
H11 H 0.7525 0.3619 -0.1745
H12 H 0.8430 0.4649 -0.1600
H13 H 0.6839 0.4585 -0.2199
C15 C 0.8981(3) 0.3835(2) 0.18724(15)
C16 C 1.0292(4) 0.3382(3) 0.2444(2)
H14 H 1.0725 0.3884 0.2817
H15 H 1.1130 0.3137 0.2164
H16 H 0.9864 0.2836 0.2717
Zn1B Zn 0.31404(3) 0.53825(2) -0.076996(16)
Zn1_2 Zn -0.31404(3) -0.53825(2) 0.076996(16)
O2B O 0.5037(2) 0.52776(14) 0.12510(12)
N4_2 N 0.8085(2) 0.60510(15) 0.08681(11)
O5 O 0.7807(4) 0.5130(2) 0.35832(13)
H17 H 0.7882 0.4895 0.3147
C17 C 0.6905(4) 0.6018(3) 0.34971(19)
H18 H 0.6517 0.6174 0.3985
H19 H 0.6008 0.5932 0.3089
H20 H 0.7573 0.6559 0.3358
loop_
_geom_bond_atom_site_label_1
_geom_bond_atom_site_label_2
_geom_bond_site_symmetry_1
_geom_bond_site_symmetry_2
Zn1 O1 1_555 1_555
O1 C13 1_555 1_555
O2 C13 1_555 1_555
O3 Zn1 1_555 1_555
O4 Zn1 1_555 1_555
N1 Zn1 1_555 1_555
N2 N3 1_555 1_555
N3 C7 1_555 1_555
N4 C10 1_555 1_555
C1 N1 1_555 1_555
H1 C1 1_555 1_555
C2 C1 1_555 1_555
H2 C2 1_555 1_555
C3 C2 1_555 1_555
C4 C3 1_555 1_555
H3 C4 1_555 1_555
C5 N1 1_555 1_555
H4 C5 1_555 1_555
C6 N2 1_555 1_555
H5 C6 1_555 1_555
C7 H6 1_555 1_555
C8 C7 1_555 1_555
C9 C8 1_555 1_555
H7 C9 1_555 1_555
C10 C9 1_555 1_555
H8 C10 1_555 1_555
C11 N4 1_555 1_555
H9 C11 1_555 1_555
C12 C8 1_555 1_555
H10 C12 1_555 1_555
C13 C14 1_555 1_555
C14 H11 1_555 1_555
H12 C14 1_555 1_555
H13 C14 1_555 1_555
C15 O3 1_555 1_555
C16 C15 1_555 1_555
H14 C16 1_555 1_555
H15 C16 1_555 1_555
H16 C16 1_555 1_555
O5 H17 1_555 1_555
C17 O5 1_555 1_555
H18 C17 1_555 1_555
H19 C17 1_555 1_555
H20 C17 1_555 1_555
Zn1B O2 1_555 1_555
Zn1_2 N4 1_555 1_555
O2B Zn1 1_555 1_555
N4_2 Zn1 1_555 1_555
O4 C15 1_555 1_555
C3 C6 1_555 1_555
C4 C5 1_555 1_555
C11 C12 1_555 1_555

#END
