
#######################################################################
#
#                 Cambridge Crystallographic Data Centre
#                                CCDC 
#
#######################################################################
#
# If this CIF has been generated from an entry in the Cambridge 
# Structural Database, then it will include bibliographic, chemical, 
# crystal, experimental, refinement or atomic coordinate data resulting 
# from the CCDC's data processing and validation procedures.
#
#######################################################################

data_QENFAR
_symmetry_cell_setting           monoclinic
_symmetry_space_group_name_H-M   'P 21'
_symmetry_Int_Tables_number      4
_space_group_name_Hall           'P 2yb'
loop_
_symmetry_equiv_pos_site_id
_symmetry_equiv_pos_as_xyz
1 x,y,z
2 -x,1/2+y,-z
_cell_length_a                   11.755(2)
_cell_length_b                   4.9670(10)
_cell_length_c                   14.654(3)
_cell_angle_alpha                90
_cell_angle_beta                 92.27(3)
_cell_angle_gamma                90
_cell_volume                     854.933
loop_
_atom_site_label
_atom_site_type_symbol
_atom_site_fract_x
_atom_site_fract_y
_atom_site_fract_z
Zn1 Zn -0.03135(5) 0.09119(16) 0.83995(4)
C1 C 0.2160(4) 0.085(2) 0.8831(3)
C2 C 0.3297(5) 0.1824(13) 0.8470(4)
H1 H 0.3719 0.0251 0.8263
C3 C 0.4006(5) 0.3195(13) 0.9235(4)
H2 H 0.4746 0.3619 0.9021
H3 H 0.4083 0.2004 0.9750
H4 H 0.3633 0.4821 0.9414
C4 C 0.3827(5) 0.4038(17) 0.7044(4)
C5 C 0.3398(5) 0.570(2) 0.6247(4)
C6 C 0.3846(5) 0.5176(13) 0.5402(4)
H5 H 0.4393 0.3839 0.5346
C7 C 0.3476(5) 0.6652(12) 0.4640(4)
H6 H 0.3753 0.6257 0.4070
C8 C 0.2717(5) 0.8647(15) 0.4728(4)
C9 C 0.2225(5) 0.9164(15) 0.5570(4)
H7 H 0.1670 1.0485 0.5619
C10 C 0.2578(5) 0.7687(14) 0.6317(4)
H8 H 0.2264 0.8019 0.6879
C11 C 0.2267(5) 1.0332(13) 0.3928(4)
C12 C 0.2535(5) 1.2289(13) 0.2460(4)
H9 H 0.2250 1.4038 0.2660
C13 C 0.1543(4) 1.0732(17) 0.1974(4)
C14 C 0.3483(5) 1.2765(14) 0.1790(4)
H10 H 0.4126 1.3574 0.2108
H11 H 0.3211 1.3943 0.1310
H12 H 0.3706 1.1077 0.1533
N1 N 0.3082(4) 0.3590(12) 0.7690(3)
H13 H 0.2435 0.4395 0.7643
N2 N 0.2963(4) 1.0811(16) 0.3253(3)
H14 H 0.3656 1.0252 0.3287
O1 O -0.0619(4) 0.1468(9) 0.9769(2)
H15 H -0.1425 0.1607 0.9842
H16 H -0.0254 0.3092 0.9983
O2 O -0.0046(4) 0.0493(11) 0.6893(3)
H17 H -0.0334 0.2066 0.6581
H18 H -0.0444 -0.1069 0.6663
O3 O 0.1293(3) 0.1915(8) 0.8457(3)
O4 O 0.2213(4) -0.0779(10) 0.9449(3)
O5 O 0.1598(3) 0.8295(9) 0.1984(3)
O6 O 0.0729(4) 1.2056(9) 0.1596(3)
O7 O 0.4807(3) 0.3115(9) 0.7091(3)
O8 O 0.1291(3) 1.1316(10) 0.3913(2)
Zn1A Zn 0.03135(5) 0.59119(16) 0.16005(4)
Zn1A_2 Zn 0.03135(5) 1.59119(16) 0.16005(4)
O5A O -0.1598(3) 0.3295(9) 0.8016(3)
O6A O -0.0729(4) -0.2944(9) 0.8404(3)
O9 O 0.9633(7) 0.8822(19) 0.4330(6)
H19 H 0.9044 0.9812 0.4276
H20 H 0.9725 0.8312 0.4882
loop_
_geom_bond_atom_site_label_1
_geom_bond_atom_site_label_2
_geom_bond_site_symmetry_1
_geom_bond_site_symmetry_2
Zn1 O1 1_555 1_555
C1 C2 1_555 1_555
C2 H1 1_555 1_555
C3 C2 1_555 1_555
H2 C3 1_555 1_555
H3 C3 1_555 1_555
H4 C3 1_555 1_555
C4 C5 1_555 1_555
C5 C6 1_555 1_555
C6 H5 1_555 1_555
C7 C6 1_555 1_555
H6 C7 1_555 1_555
C8 C7 1_555 1_555
C9 C8 1_555 1_555
H7 C9 1_555 1_555
C10 C5 1_555 1_555
H8 C10 1_555 1_555
C11 C8 1_555 1_555
C12 H9 1_555 1_555
C13 C12 1_555 1_555
C14 C12 1_555 1_555
H10 C14 1_555 1_555
H11 C14 1_555 1_555
H12 C14 1_555 1_555
N1 C2 1_555 1_555
H13 N1 1_555 1_555
N2 C11 1_555 1_555
H14 N2 1_555 1_555
O1 H15 1_555 1_555
H16 O1 1_555 1_555
O2 Zn1 1_555 1_555
H17 O2 1_555 1_555
H18 O2 1_555 1_555
O3 Zn1 1_555 1_555
O4 C1 1_555 1_555
O5 C13 1_555 1_555
O6 C13 1_555 1_555
O7 C4 1_555 1_555
O8 C11 1_555 1_555
O9 H19 1_555 1_555
H20 O9 1_555 1_555
Zn1A O5 1_555 1_555
Zn1A_2 O6 1_555 1_555
O5A Zn1 1_555 1_555
O6A Zn1 1_555 1_555
C1 O3 1_555 1_555
C4 N1 1_555 1_555
C9 C10 1_555 1_555
C12 N2 1_555 1_555

#END
