
#######################################################################
#
#                 Cambridge Crystallographic Data Centre
#                                CCDC 
#
#######################################################################
#
# If this CIF has been generated from an entry in the Cambridge 
# Structural Database, then it will include bibliographic, chemical, 
# crystal, experimental, refinement or atomic coordinate data resulting 
# from the CCDC's data processing and validation procedures.
#
#######################################################################

data_QENFIZ
_symmetry_cell_setting           monoclinic
_symmetry_space_group_name_H-M   'P 21/n'
_symmetry_Int_Tables_number      14
_space_group_name_Hall           '-P 2yn'
loop_
_symmetry_equiv_pos_site_id
_symmetry_equiv_pos_as_xyz
1 x,y,z
2 1/2-x,1/2+y,1/2-z
3 -x,-y,-z
4 1/2+x,1/2-y,1/2+z
_cell_length_a                   8.3127(17)
_cell_length_b                   13.613(3)
_cell_length_c                   16.817(3)
_cell_angle_alpha                90
_cell_angle_beta                 98.21(3)
_cell_angle_gamma                90
_cell_volume                     1883.52
loop_
_atom_site_label
_atom_site_type_symbol
_atom_site_fract_x
_atom_site_fract_y
_atom_site_fract_z
Mn1 Mn 0.68956(8) 0.53767(4) 0.08246(4)
N1 N 0.5406(4) 0.6786(2) 0.0673(2)
N2 N -0.1894(4) 1.3884(3) 0.0898(2)
N3 N 0.1392(5) 1.0786(3) 0.0746(2)
N4 N 0.2085(5) 0.9858(3) 0.0977(2)
O1 O 0.7928(4) 0.5725(2) 0.21275(19)
O2 O 0.9217(4) 0.6273(2) 0.11703(18)
O3 O 0.4974(4) 0.4721(2) 0.1345(2)
O4 O 0.2812(4) 0.4597(2) 0.03936(19)
C1 C 0.4477(5) 0.7066(3) 0.1222(3)
H2 H 0.4390 0.6646 0.1650
C2 C 0.3641(6) 0.7947(3) 0.1184(3)
H3 H 0.3031 0.8118 0.1586
C3 C 0.3725(5) 0.8571(3) 0.0541(3)
C4 C 0.4659(5) 0.8284(3) -0.0034(3)
H4 H 0.4732 0.8680 -0.0478
C5 C 0.5485(5) 0.7396(3) 0.0057(3)
H5 H 0.6126 0.7217 -0.0330
C6 C -0.2064(5) 1.3298(3) 0.1524(3)
H6 H -0.2704 1.3519 0.1898
C7 C -0.1340(6) 1.2387(3) 0.1642(3)
H7 H -0.1493 1.2007 0.2085
C8 C -0.0383(5) 1.2046(3) 0.1090(3)
C9 C -0.0197(5) 1.2648(3) 0.0432(3)
H8 H 0.0439 1.2444 0.0050
C10 C -0.0972(5) 1.3544(3) 0.0360(3)
H9 H -0.0853 1.3935 -0.0081
C11 C 0.0456(5) 1.1092(3) 0.1220(3)
H10 H 0.0291 1.0709 0.1659
C12 C 0.2886(5) 0.9520(3) 0.0443(3)
H11 H 0.2938 0.9885 -0.0020
C13 C 0.9108(5) 0.6192(3) 0.1902(3)
C14 C 1.0398(6) 0.6627(4) 0.2529(3)
H12 H 1.1188 0.6968 0.2268
H13 H 1.0922 0.6111 0.2858
H14 H 0.9901 0.7079 0.2859
C15 C 0.3492(5) 0.4565(3) 0.1113(3)
C16 C 0.2430(6) 0.4309(4) 0.1740(3)
H15 H 0.3075 0.4306 0.2262
H16 H 0.1579 0.4787 0.1730
H17 H 0.1962 0.3670 0.1629
Mn1_2 Mn -0.31044(8) 1.53767(4) 0.08246(4)
Mn1B Mn 0.31044(8) 0.46233(4) -0.08246(4)
N2_2 N 0.8106(4) 0.3884(3) 0.0898(2)
O4B O 0.7188(4) 0.5403(2) -0.03936(19)
O5 O 0.7121(5) 0.9854(3) 0.1400(2)
H1 H 0.695(8) 1.005(5) 0.185(4)
C17 C 0.8061(6) 0.8977(4) 0.1483(3)
H18 H 0.8973 0.9063 0.1897
H19 H 0.8445 0.8832 0.0984
H20 H 0.7401 0.8443 0.1624
loop_
_geom_bond_atom_site_label_1
_geom_bond_atom_site_label_2
_geom_bond_site_symmetry_1
_geom_bond_site_symmetry_2
Mn1 N1 1_555 1_555
N1 C1 1_555 1_555
N2 C6 1_555 1_555
N3 N4 1_555 1_555
N4 C12 1_555 1_555
O1 Mn1 1_555 1_555
O2 Mn1 1_555 1_555
O3 Mn1 1_555 1_555
O4 C15 1_555 1_555
O5 H1 1_555 1_555
C1 H2 1_555 1_555
C2 C1 1_555 1_555
H3 C2 1_555 1_555
C3 C2 1_555 1_555
C4 C3 1_555 1_555
H4 C4 1_555 1_555
C5 N1 1_555 1_555
H5 C5 1_555 1_555
C6 H6 1_555 1_555
C7 C6 1_555 1_555
H7 C7 1_555 1_555
C8 C7 1_555 1_555
C9 C8 1_555 1_555
H8 C9 1_555 1_555
C10 N2 1_555 1_555
H9 C10 1_555 1_555
C11 N3 1_555 1_555
H10 C11 1_555 1_555
C12 C3 1_555 1_555
H11 C12 1_555 1_555
C13 O1 1_555 1_555
C14 C13 1_555 1_555
H12 C14 1_555 1_555
H13 C14 1_555 1_555
H14 C14 1_555 1_555
C15 O3 1_555 1_555
C16 C15 1_555 1_555
H15 C16 1_555 1_555
H16 C16 1_555 1_555
H17 C16 1_555 1_555
C17 O5 1_555 1_555
H18 C17 1_555 1_555
H19 C17 1_555 1_555
H20 C17 1_555 1_555
Mn1_2 N2 1_555 1_555
Mn1B O4 1_555 1_555
N2_2 Mn1 1_555 1_555
O4B Mn1 1_555 1_555
O2 C13 1_555 1_555
C4 C5 1_555 1_555
C8 C11 1_555 1_555
C9 C10 1_555 1_555

#END
