
#######################################################################
#
#                 Cambridge Crystallographic Data Centre
#                                CCDC 
#
#######################################################################
#
# If this CIF has been generated from an entry in the Cambridge 
# Structural Database, then it will include bibliographic, chemical, 
# crystal, experimental, refinement or atomic coordinate data resulting 
# from the CCDC's data processing and validation procedures.
#
#######################################################################

data_QENHOG
_symmetry_cell_setting           orthorhombic
_symmetry_space_group_name_H-M   'P c a b'
_symmetry_Int_Tables_number      61
_space_group_name_Hall           '-P 2bc 2ac'
loop_
_symmetry_equiv_pos_site_id
_symmetry_equiv_pos_as_xyz
1 x,y,z
2 -x,1/2-y,1/2+z
3 1/2+x,-y,1/2-z
4 1/2-x,1/2+y,-z
5 -x,-y,-z
6 x,1/2+y,1/2-z
7 1/2-x,y,1/2+z
8 1/2+x,1/2-y,z
_cell_length_a                   7.651(2)
_cell_length_b                   17.995(3)
_cell_length_c                   20.450(5)
_cell_angle_alpha                90
_cell_angle_beta                 90
_cell_angle_gamma                90
_cell_volume                     2815.55
loop_
_atom_site_label
_atom_site_type_symbol
_atom_site_fract_x
_atom_site_fract_y
_atom_site_fract_z
Cu1 Cu 0.0455(5) 0.1013(3) 0.0868(2)
C1 C -0.453(5) 0.102(2) -0.027(1)
C2 C -0.294(4) 0.092(2) 0.005(2)
N1 N -0.166(3) 0.0932(2) 0.035(1)
C3 C -0.612(5) 0.106(3) 0.009(2)
N2 N -0.737(3) 0.109(2) 0.036(1)
C4 C -0.463(4) 0.092(2) -0.096(2)
N3 N -0.479(3) 0.080(2) -0.150(1)
N4 N 0.030(3) 0.185(2) 0.149(1)
C5 C 0.005(3) 0.189(2) 0.213(1)
C6 C -0.004(3) 0.250(2) 0.253(2)
C7 C 0.072(4) 0.258(2) 0.124(1)
C8 C 0.060(4) 0.321(2) 0.161(1)
C9 C 0.035(4) 0.313(2) 0.228(1)
C10 C 0.029(3) 0.377(2) 0.270(1)
C11 C 0.131(4) 0.445(2) 0.256(2)
C12 C 0.134(4) 0.503(2) 0.298(2)
C13 C -0.065(4) 0.388(2) 0.328(1)
C14 C -0.049(4) 0.450(2) 0.367(1)
N5 N 0.048(3) 0.507(2) 0.354(1)
H1 H -0.011(3) 0.136(2) 0.237(1)
H2 H -0.041(3) 0.244(2) 0.303(1)
H3 H 0.116(4) 0.264(2) 0.074(1)
H4 H 0.069(4) 0.376(2) 0.139(1)
H5 H 0.205(4) 0.448(2) 0.211(2)
H6 H 0.214(4) 0.550(2) 0.285(2)
H7 H -0.155(4) 0.345(2) 0.342(1)
H8 H -0.124(4) 0.452(2) 0.412(1)
N2_2 N 0.263(3) 0.109(2) 0.036(1)
N5E N 0.048(3) 0.007(2) 0.146(1)
Cu1_2 Cu -0.9545(5) 0.1013(3) 0.0868(2)
Cu1E Cu 0.0455(5) 0.6013(3) 0.4132(2)
loop_
_geom_bond_atom_site_label_1
_geom_bond_atom_site_label_2
_geom_bond_site_symmetry_1
_geom_bond_site_symmetry_2
Cu1 N1 1_555 1_555
C1 C2 1_555 1_555
C2 N1 1_555 1_555
C3 C1 1_555 1_555
N2 C3 1_555 1_555
C4 C1 1_555 1_555
N3 C4 1_555 1_555
N4 Cu1 1_555 1_555
C5 N4 1_555 1_555
C6 C5 1_555 1_555
C7 N4 1_555 1_555
C8 C7 1_555 1_555
C9 C6 1_555 1_555
C10 C9 1_555 1_555
C11 C10 1_555 1_555
C12 C11 1_555 1_555
C13 C10 1_555 1_555
C14 C13 1_555 1_555
N5 C12 1_555 1_555
H1 C5 1_555 1_555
H2 C6 1_555 1_555
H3 C7 1_555 1_555
H4 C8 1_555 1_555
H5 C11 1_555 1_555
H6 C12 1_555 1_555
H7 C13 1_555 1_555
H8 C14 1_555 1_555
N2_2 Cu1 1_555 1_555
N5E Cu1 1_555 1_555
Cu1_2 N2 1_555 1_555
Cu1E N5 1_555 1_555
C8 C9 1_555 1_555
C14 N5 1_555 1_555

#END
