
#######################################################################
#
#                 Cambridge Crystallographic Data Centre
#                                CCDC 
#
#######################################################################
#
# If this CIF has been generated from an entry in the Cambridge 
# Structural Database, then it will include bibliographic, chemical, 
# crystal, experimental, refinement or atomic coordinate data resulting 
# from the CCDC's data processing and validation procedures.
#
#######################################################################

data_QENNED
_symmetry_cell_setting           monoclinic
_symmetry_space_group_name_H-M   'P 21'
_symmetry_Int_Tables_number      4
_space_group_name_Hall           'P 2yb'
loop_
_symmetry_equiv_pos_site_id
_symmetry_equiv_pos_as_xyz
1 x,y,z
2 -x,1/2+y,-z
_cell_length_a                   7.9274(5)
_cell_length_b                   25.8939(15)
_cell_length_c                   13.6475(8)
_cell_angle_alpha                90
_cell_angle_beta                 91.1700(10)
_cell_angle_gamma                90
_cell_volume                     2800.86
loop_
_atom_site_label
_atom_site_type_symbol
_atom_site_fract_x
_atom_site_fract_y
_atom_site_fract_z
W1 W 0.32729(9) 0.080167(14) 0.00662(5)
W2 W 0.82701(8) 0.087310(12) 0.50669(5)
O1 O 0.4875(14) 0.0789(5) -0.0812(8)
O2 O 0.1450(13) 0.0826(7) -0.0707(10)
O3 O 0.2957(17) 0.0056(5) 0.0412(10)
O4 O 0.5033(16) 0.0607(5) 0.1223(10)
O5 O 0.5892(18) -0.0003(5) 0.2335(10)
O6 O 0.3767(16) 0.1492(5) 0.0405(10)
O7 O 0.1771(15) 0.0926(6) 0.1318(9)
O8 O 0.128(2) 0.1487(6) 0.2541(9)
O9 O 0.6555(14) 0.0859(7) 0.4323(8)
O10 O -0.0134(14) 0.0846(7) 0.4250(8)
O11 O -0.2083(14) 0.1587(5) -0.4673(9)
O12 O 0.0130(17) 0.1015(5) -0.3764(10)
O13 O 0.1000(17) 0.1592(5) -0.2673(10)
O14 O 0.8750(15) 0.0128(5) -0.4581(9)
O15 O 0.6784(14) 0.0708(5) -0.3663(9)
O16 O 0.6334(15) 0.0161(5) -0.2444(9)
C1 C 0.389(2) -0.0203(7) 0.1088(13)
C2 C 0.499(2) 0.0168(8) 0.1652(14)
C3 C 0.281(2) 0.1782(7) 0.1162(13)
C4 C 0.188(2) 0.1407(7) 0.1762(15)
C5 C -0.105(3) 0.1900(8) -0.3955(15)
C6 C 0.013(2) 0.1493(7) -0.3399(13)
C7 C 0.788(3) -0.0135(7) -0.3916(13)
C8 C 0.691(2) 0.0298(7) -0.3266(11)
C9 C 0.2652(14) -0.0451(5) 0.1798(8)
C10 C 0.2056(16) -0.0160(4) 0.2573(9)
H1 H 0.2456 0.0173 0.2678
C11 C 0.0861(17) -0.0367(6) 0.3193(7)
H2 H 0.0462 -0.0173 0.3711
C12 C 0.0262(13) -0.0866(6) 0.3036(9)
H3 H -0.0538 -0.1004 0.3450
C13 C 0.0858(16) -0.1157(4) 0.2260(11)
H4 H 0.0457 -0.1490 0.2156
C14 C 0.2053(16) -0.0949(5) 0.1641(9)
H5 H 0.2451 -0.1144 0.1122
C15 C 0.5092(12) -0.0613(4) 0.0568(8)
C16 C 0.5904(15) -0.0997(4) 0.1111(6)
H6 H 0.5661 -0.1041 0.1769
C17 C 0.7077(15) -0.1315(4) 0.0669(8)
H7 H 0.7620 -0.1572 0.1032
C18 C 0.7440(14) -0.1249(5) -0.0316(8)
H8 H 0.8226 -0.1462 -0.0611
C19 C 0.6629(15) -0.0865(5) -0.0858(6)
H9 H 0.6872 -0.0821 -0.1517
C20 C 0.5455(14) -0.0547(4) -0.0416(7)
H10 H 0.4912 -0.0290 -0.0779
C21 C 0.1481(13) 0.2126(4) 0.0633(7)
C22 C 0.1338(14) 0.2142(5) -0.0384(7)
H11 H 0.2103 0.1962 -0.0763
C23 C 0.0050(16) 0.2426(5) -0.0833(6)
H12 H -0.0045 0.2436 -0.1513
C24 C -0.1094(14) 0.2694(5) -0.0266(8)
H13 H -0.1955 0.2884 -0.0566
C25 C -0.0950(13) 0.2678(5) 0.0751(8)
H14 H -0.1716 0.2857 0.1130
C26 C 0.0337(14) 0.2394(4) 0.1200(6)
H15 H 0.0433 0.2383 0.1880
C27 C 0.4136(15) 0.2075(5) 0.1828(8)
C28 C 0.4203(16) 0.2611(4) 0.1819(9)
H16 H 0.3518 0.2797 0.1384
C29 C 0.5295(19) 0.2870(3) 0.2460(11)
H17 H 0.5340 0.3229 0.2453
C30 C 0.6320(17) 0.2593(4) 0.3109(9)
H18 H 0.7050 0.2766 0.3538
C31 C 0.6253(16) 0.2056(4) 0.3118(8)
H19 H 0.6938 0.1871 0.3553
C32 C 0.5161(17) 0.1797(3) 0.2478(9)
H20 H 0.5116 0.1438 0.2484
C33 C 0.0066(13) 0.2262(4) -0.4438(8)
C34 C 0.0423(16) 0.2212(4) -0.5426(8)
H21 H -0.0141 0.1967 -0.5807
C35 C 0.1624(17) 0.2530(5) -0.5846(7)
H22 H 0.1863 0.2497 -0.6507
C36 C 0.2467(15) 0.2897(5) -0.5277(9)
H23 H 0.3270 0.3109 -0.5558
C37 C 0.2110(16) 0.2946(4) -0.4289(9)
H24 H 0.2675 0.3192 -0.3908
C38 C 0.0910(15) 0.2629(5) -0.3869(7)
H25 H 0.0671 0.2662 -0.3207
C39 C -0.2321(13) 0.2147(4) -0.3210(7)
C40 C -0.2988(15) 0.2635(4) -0.3393(8)
H26 H -0.2598 0.2829 -0.3915
C41 C -0.4235(15) 0.2831(4) -0.2798(10)
H27 H -0.4681 0.3158 -0.2920
C42 C -0.4817(15) 0.2540(5) -0.2018(9)
H28 H -0.5652 0.2672 -0.1620
C43 C -0.4151(17) 0.2052(5) -0.1835(7)
H29 H -0.4540 0.1858 -0.1313
C44 C -0.2903(16) 0.1856(4) -0.2431(8)
H30 H -0.2457 0.1529 -0.2308
C45 C 0.6461(13) -0.0468(4) -0.4361(7)
C46 C 0.5282(15) -0.0718(5) -0.3789(5)
H31 H 0.5346 -0.0690 -0.3110
C47 C 0.4009(14) -0.1010(5) -0.4232(8)
H32 H 0.3220 -0.1178 -0.3849
C48 C 0.3914(14) -0.1052(5) -0.5247(8)
H33 H 0.3062 -0.1248 -0.5543
C49 C 0.5093(17) -0.0802(5) -0.5819(5)
H34 H 0.5030 -0.0830 -0.6498
C50 C 0.6367(15) -0.0510(5) -0.5376(7)
H35 H 0.7155 -0.0342 -0.5759
C51 C 0.9096(13) -0.0444(3) -0.3243(7)
C52 C 1.0093(16) -0.0166(3) -0.2580(8)
H36 H 1.0010 0.0192 -0.2556
C53 C 1.1213(16) -0.0423(5) -0.1954(8)
H37 H 1.1880 -0.0236 -0.1510
C54 C 1.1337(15) -0.0958(5) -0.1990(8)
H38 H 1.2087 -0.1130 -0.1570
C55 C 1.0341(16) -0.1236(3) -0.2652(9)
H39 H 1.0424 -0.1594 -0.2676
C56 C 0.9220(14) -0.0979(3) -0.3279(8)
H40 H 0.8553 -0.1165 -0.3722
K1 K 0.3144(7) 0.1024(3) 0.4220(5)
K2 K 0.8150(6) 0.05800(18) -0.0780(3)
K3 K 0.3540(6) 0.0920(2) -0.2719(3)
K4 K 0.8488(9) 0.0827(4) 0.2284(5)
O17 O 0.9306(19) -0.0027(6) 0.0726(12)
O18 O 0.7643(7) 0.1416(2) 0.0556(4)
O19 O 0.4150(17) 0.1668(7) 0.5731(12)
W2_2 W -0.17299(8) 0.087310(12) 0.50669(5)
W2_3 W -0.17299(8) 0.087310(12) -0.49331(5)
W2_4 W 0.82701(8) 0.087310(12) -0.49331(5)
O2_2 O 1.1450(13) 0.0826(7) -0.0707(10)
O7_2 O 1.1771(15) 0.0926(6) 0.1318(9)
O8_2 O 1.128(2) 0.1487(6) 0.2541(9)
O10_2 O 0.9866(14) 0.0846(7) 0.4250(8)
O11_2 O 0.7917(14) 0.1587(5) 0.5327(9)
O12_2 O 1.0130(17) 0.1015(5) 0.6236(10)
O14_2 O 0.8750(15) 0.0128(5) 0.5419(9)
O15_2 O 0.6784(14) 0.0708(5) 0.6337(9)
K2_2 K -0.1850(6) 0.05800(18) -0.0780(3)
K3_2 K 0.3540(6) 0.0920(2) 0.7281(3)
K4_2 K -0.1512(9) 0.0827(4) 0.2284(5)
O19_2 O 0.4150(17) 0.1668(7) -0.4269(12)
loop_
_geom_bond_atom_site_label_1
_geom_bond_atom_site_label_2
_geom_bond_site_symmetry_1
_geom_bond_site_symmetry_2
W1 O1 1_555 1_555
W2 O9 1_555 1_555
O1 K2 1_555 1_555
O2 W1 1_555 1_555
O3 W1 1_555 1_555
O4 W1 1_555 1_555
O5 C2 1_555 1_555
O6 W1 1_555 1_555
O7 W1 1_555 1_555
O8 C4 1_555 1_555
O9 K1 1_555 1_555
O10 K1 1_555 1_555
O11 C5 1_555 1_555
O12 C6 1_555 1_555
O13 C6 1_555 1_555
O14 C7 1_555 1_555
O15 C8 1_555 1_555
O16 C8 1_555 1_555
C1 O3 1_555 1_555
C2 O4 1_555 1_555
C3 O6 1_555 1_555
C4 O7 1_555 1_555
C5 C6 1_555 1_555
C7 C8 1_555 1_555
C9 C1 1_555 1_555
C10 C9 1_555 1_555
H1 C10 1_555 1_555
C11 C10 1_555 1_555
H2 C11 1_555 1_555
C12 C11 1_555 1_555
H3 C12 1_555 1_555
C13 C12 1_555 1_555
H4 C13 1_555 1_555
C14 C9 1_555 1_555
H5 C14 1_555 1_555
C15 C1 1_555 1_555
C16 C15 1_555 1_555
H6 C16 1_555 1_555
C17 C16 1_555 1_555
H7 C17 1_555 1_555
C18 C17 1_555 1_555
H8 C18 1_555 1_555
C19 C18 1_555 1_555
H9 C19 1_555 1_555
C20 C15 1_555 1_555
H10 C20 1_555 1_555
C21 C3 1_555 1_555
C22 C21 1_555 1_555
H11 C22 1_555 1_555
C23 C22 1_555 1_555
H12 C23 1_555 1_555
C24 C23 1_555 1_555
H13 C24 1_555 1_555
C25 C24 1_555 1_555
H14 C25 1_555 1_555
C26 C21 1_555 1_555
H15 C26 1_555 1_555
C27 C3 1_555 1_555
C28 C27 1_555 1_555
H16 C28 1_555 1_555
C29 C28 1_555 1_555
H17 C29 1_555 1_555
C30 C29 1_555 1_555
H18 C30 1_555 1_555
C31 C30 1_555 1_555
H19 C31 1_555 1_555
C32 C27 1_555 1_555
H20 C32 1_555 1_555
C33 C5 1_555 1_555
C34 C33 1_555 1_555
H21 C34 1_555 1_555
C35 C34 1_555 1_555
H22 C35 1_555 1_555
C36 C35 1_555 1_555
H23 C36 1_555 1_555
C37 C36 1_555 1_555
H24 C37 1_555 1_555
C38 C33 1_555 1_555
H25 C38 1_555 1_555
C39 C5 1_555 1_555
C40 C39 1_555 1_555
H26 C40 1_555 1_555
C41 C40 1_555 1_555
H27 C41 1_555 1_555
C42 C41 1_555 1_555
H28 C42 1_555 1_555
C43 C42 1_555 1_555
H29 C43 1_555 1_555
C44 C39 1_555 1_555
H30 C44 1_555 1_555
C45 C7 1_555 1_555
C46 C45 1_555 1_555
H31 C46 1_555 1_555
C47 C46 1_555 1_555
H32 C47 1_555 1_555
C48 C47 1_555 1_555
H33 C48 1_555 1_555
C49 C48 1_555 1_555
H34 C49 1_555 1_555
C50 C45 1_555 1_555
H35 C50 1_555 1_555
C51 C7 1_555 1_555
C52 C51 1_555 1_555
H36 C52 1_555 1_555
C53 C52 1_555 1_555
H37 C53 1_555 1_555
C54 C53 1_555 1_555
H38 C54 1_555 1_555
C55 C54 1_555 1_555
H39 C55 1_555 1_555
C56 C51 1_555 1_555
H40 C56 1_555 1_555
K1 O8 1_555 1_555
K2 O16 1_555 1_555
K3 O1 1_555 1_555
K4 O5 1_555 1_555
O17 K2 1_555 1_555
O18 K2 1_555 1_555
O19 K1 1_555 1_555
W2_2 O10 1_555 1_555
W2_3 O11 1_555 1_555
W2_4 O14 1_555 1_555
O2_2 K2 1_555 1_555
O7_2 K4 1_555 1_555
O8_2 K4 1_555 1_555
O10_2 W2 1_555 1_555
O11_2 W2 1_555 1_555
O12_2 W2 1_555 1_555
O14_2 W2 1_555 1_555
O15_2 W2 1_555 1_555
K2_2 O2 1_555 1_555
K3_2 O19 1_555 1_555
K4_2 O7 1_555 1_555
O19_2 K3 1_555 1_555
O8 K4_2 1_555 1_555
O10 K4_2 1_555 1_555
O12 K3 1_555 1_555
O12 W2_3 1_555 1_555
O13 K3 1_555 1_555
O15 K3 1_555 1_555
O15 W2_4 1_555 1_555
O16 K3 1_555 1_555
C1 C2 1_555 1_555
C3 C4 1_555 1_555
C13 C14 1_555 1_555
C19 C20 1_555 1_555
C25 C26 1_555 1_555
C31 C32 1_555 1_555
C37 C38 1_555 1_555
C43 C44 1_555 1_555
C49 C50 1_555 1_555
C55 C56 1_555 1_555
K4 O18 1_555 1_555
K4 O10_2 1_555 1_555
O15_2 K3_2 1_555 1_555

#END
