
#######################################################################
#
#                 Cambridge Crystallographic Data Centre
#                                CCDC 
#
#######################################################################
#
# If this CIF has been generated from an entry in the Cambridge 
# Structural Database, then it will include bibliographic, chemical, 
# crystal, experimental, refinement or atomic coordinate data resulting 
# from the CCDC's data processing and validation procedures.
#
#######################################################################

data_QENQUV
_symmetry_cell_setting           monoclinic
_symmetry_space_group_name_H-M   'P 21/n'
_symmetry_Int_Tables_number      14
_space_group_name_Hall           '-P 2yn'
loop_
_symmetry_equiv_pos_site_id
_symmetry_equiv_pos_as_xyz
1 x,y,z
2 1/2+x,1/2-y,1/2+z
3 -x,-y,-z
4 1/2-x,1/2+y,1/2-z
_cell_length_a                   13.9434(10)
_cell_length_b                   11.9926(10)
_cell_length_c                   31.732(2)
_cell_angle_alpha                90
_cell_angle_beta                 91.438(6)
_cell_angle_gamma                90
_cell_volume                     5304.48
loop_
_atom_site_label
_atom_site_type_symbol
_atom_site_fract_x
_atom_site_fract_y
_atom_site_fract_z
Sn1 Sn 0.26126(2) 0.08377(3) 0.244816(9)
Sn2 Sn 0.54436(3) 0.32811(3) 0.131361(11)
Br1 Br 0.70338(5) 0.28558(6) 0.08736(3)
Se1 Se 0.31469(3) 0.35157(3) 0.191180(13)
O1 O 0.3353(2) 0.2281(2) 0.21174(9)
O2 O 0.4042(2) 0.3801(3) 0.16091(11)
O3 O 0.3213(2) 0.4416(3) 0.23021(10)
O4 O 0.2144(3) 0.3624(3) 0.16569(12)
C1 C 0.2727(4) 0.1687(4) 0.30383(14)
C2 C 0.2124(4) 0.1471(4) 0.33679(15)
H1 H 0.1645 0.0935 0.3336
C3 C 0.2226(5) 0.2041(5) 0.37430(17)
H2 H 0.1807 0.1897 0.3960
C4 C 0.2936(5) 0.2814(5) 0.37996(18)
H3 H 0.2997 0.3195 0.4054
C5 C 0.3564(5) 0.3031(5) 0.34821(18)
H4 H 0.4055 0.3548 0.3522
C6 C 0.3455(4) 0.2474(4) 0.31040(15)
H5 H 0.3875 0.2625 0.2888
C7 C 0.3868(3) -0.0097(4) 0.23188(14)
C8 C 0.4773(4) 0.0344(6) 0.2403(2)
H6 H 0.4830 0.1071 0.2503
C9 C 0.5596(4) -0.0283(7) 0.2340(2)
H7 H 0.6198 0.0020 0.2401
C10 C 0.5516(5) -0.1342(7) 0.2190(3)
H8 H 0.6061 -0.1760 0.2137
C11 C 0.4635(6) -0.1775(6) 0.2119(4)
H9 H 0.4577 -0.2508 0.2027
C12 C 0.3816(4) -0.1154(5) 0.2180(3)
H10 H 0.3218 -0.1473 0.2125
C13 C 0.1429(4) 0.0959(4) 0.20053(15)
C14 C 0.1590(5) 0.1128(5) 0.15866(17)
H11 H 0.2215 0.1181 0.1493
C15 C 0.0819(7) 0.1222(6) 0.1298(2)
H12 H 0.0936 0.1338 0.1014
C16 C -0.0067(7) 0.1147(7) 0.1423(3)
H13 H -0.0572 0.1241 0.1229
C17 C -0.0259(6) 0.0930(10) 0.1840(3)
H14 H -0.0887 0.0846 0.1926
C18 C 0.0509(5) 0.0840(8) 0.2132(2)
H15 H 0.0390 0.0697 0.2413
C19 C 0.4737(4) 0.1918(4) 0.10040(15)
C20 C 0.4751(5) 0.1793(5) 0.05703(18)
H16 H 0.5050 0.2328 0.0407
C21 C 0.4324(5) 0.0883(7) 0.0378(2)
H17 H 0.4322 0.0816 0.0086
C22 C 0.3911(5) 0.0091(7) 0.0614(3)
H18 H 0.3623 -0.0521 0.0483
C23 C 0.3910(5) 0.0174(6) 0.1043(2)
H19 H 0.3634 -0.0383 0.1204
C24 C 0.4324(4) 0.1100(5) 0.12364(19)
H20 H 0.4320 0.1164 0.1528
C25 C 0.6105(4) 0.2976(5) 0.19174(18)
C26 C 0.5691(5) 0.3358(7) 0.2279(2)
H21 H 0.5143 0.3799 0.2261
C27 C 0.6092(5) 0.3085(9) 0.2675(2)
H22 H 0.5808 0.3343 0.2919
C28 C 0.6897(6) 0.2443(9) 0.2705(3)
H23 H 0.7150 0.2244 0.2968
C29 C 0.7331(6) 0.2095(8) 0.2350(3)
H24 H 0.7893 0.1680 0.2370
C30 C 0.6941(5) 0.2356(6) 0.1961(2)
H25 H 0.7245 0.2111 0.1721
C31 C 0.5403(4) 0.4933(5) 0.10648(18)
C32 C 0.5482(6) 0.5827(6) 0.1309(3)
H26 H 0.5534 0.5733 0.1599
C33 C 0.5489(7) 0.6907(7) 0.1144(4)
H27 H 0.5583 0.7515 0.1322
C34 C 0.5358(6) 0.7065(7) 0.0725(3)
H28 H 0.5310 0.7779 0.0612
C35 C 0.5340(8) 0.5134(6) 0.0654(2)
H29 H 0.5320 0.4528 0.0472
C36 C 0.5301(9) 0.6182(8) 0.0483(3)
H30 H 0.5233 0.6266 0.0193
O3C O 0.1787(2) -0.0584(3) 0.26979(10)
Sn1C Sn 0.23874(2) 0.58377(3) 0.255184(9)
P1 P 0.87792(10) 0.70993(12) 0.05234(4)
C37 C 0.8057(3) 0.8129(4) 0.07696(15)
C38 C 0.7364(4) 0.8724(5) 0.05474(17)
H31 H 0.7250 0.8566 0.0264
C39 C 0.6842(4) 0.9539(5) 0.0736(2)
H32 H 0.6383 0.9929 0.0577
C40 C 0.6983(4) 0.9792(5) 0.1154(2)
H33 H 0.6622 1.0342 0.1283
C41 C 0.7670(5) 0.9211(6) 0.1373(2)
H34 H 0.7773 0.9373 0.1658
C42 C 0.8219(5) 0.8393(6) 0.11937(18)
H35 H 0.8690 0.8022 0.1352
C43 C 0.9157(4) 0.6092(5) 0.09077(16)
C44 C 1.0113(4) 0.5790(5) 0.09419(19)
H36 H 1.0560 0.6109 0.0766
C45 C 1.0400(5) 0.5004(6) 0.1241(2)
H37 H 1.1044 0.4811 0.1271
C46 C 0.9746(7) 0.4521(6) 0.1489(3)
H38 H 0.9947 0.3990 0.1685
C47 C 0.8774(6) 0.4803(7) 0.1456(2)
H39 H 0.8327 0.4462 0.1627
C48 C 0.8496(5) 0.5604(6) 0.11629(19)
H40 H 0.7855 0.5813 0.1138
C49 C 0.8132(4) 0.6455(5) 0.00942(15)
C50 C 0.7811(5) 0.5380(6) 0.0119(2)
H41 H 0.7910 0.4969 0.0365
C51 C 0.7329(6) 0.4902(7) -0.0232(3)
H42 H 0.7092 0.4179 -0.0217
C52 C 0.7212(6) 0.5501(8) -0.0590(2)
H43 H 0.6906 0.5171 -0.0821
C53 C 0.7525(7) 0.6561(8) -0.0623(2)
H44 H 0.7427 0.6957 -0.0872
C54 C 0.7989(5) 0.7045(6) -0.02836(18)
H45 H 0.8211 0.7774 -0.0304
C55 C 0.9799(4) 0.7761(5) 0.03013(19)
C56 C 1.0128(4) 0.8762(6) 0.0444(2)
H46 H 0.9817 0.9125 0.0661
C57 C 1.0930(5) 0.9244(7) 0.0266(3)
H47 H 1.1164 0.9924 0.0366
C58 C 1.1371(6) 0.8707(11) -0.0055(4)
H48 H 1.1896 0.9036 -0.0181
C59 C 1.1059(7) 0.7718(10) -0.0193(3)
H49 H 1.1383 0.7347 -0.0404
C60 C 1.0255(5) 0.7244(7) -0.0021(2)
H50 H 1.0022 0.6569 -0.0125
loop_
_geom_bond_atom_site_label_1
_geom_bond_atom_site_label_2
_geom_bond_site_symmetry_1
_geom_bond_site_symmetry_2
Sn1 O1 1_555 1_555
Sn2 Br1 1_555 1_555
Se1 O1 1_555 1_555
O2 Sn2 1_555 1_555
O3 Se1 1_555 1_555
O4 Se1 1_555 1_555
C1 Sn1 1_555 1_555
C2 C1 1_555 1_555
H1 C2 1_555 1_555
C3 C2 1_555 1_555
H2 C3 1_555 1_555
C4 C3 1_555 1_555
H3 C4 1_555 1_555
C5 C4 1_555 1_555
H4 C5 1_555 1_555
C6 C1 1_555 1_555
H5 C6 1_555 1_555
C7 Sn1 1_555 1_555
C8 C7 1_555 1_555
H6 C8 1_555 1_555
C9 C8 1_555 1_555
H7 C9 1_555 1_555
C10 C9 1_555 1_555
H8 C10 1_555 1_555
C11 C10 1_555 1_555
H9 C11 1_555 1_555
C12 C7 1_555 1_555
H10 C12 1_555 1_555
C13 Sn1 1_555 1_555
C14 C13 1_555 1_555
H11 C14 1_555 1_555
C15 C14 1_555 1_555
H12 C15 1_555 1_555
C16 C15 1_555 1_555
H13 C16 1_555 1_555
C17 C16 1_555 1_555
H14 C17 1_555 1_555
C18 C13 1_555 1_555
H15 C18 1_555 1_555
C19 Sn2 1_555 1_555
C20 C19 1_555 1_555
H16 C20 1_555 1_555
C21 C20 1_555 1_555
H17 C21 1_555 1_555
C22 C21 1_555 1_555
H18 C22 1_555 1_555
C23 C22 1_555 1_555
H19 C23 1_555 1_555
C24 C19 1_555 1_555
H20 C24 1_555 1_555
C25 Sn2 1_555 1_555
C26 C25 1_555 1_555
H21 C26 1_555 1_555
C27 C26 1_555 1_555
H22 C27 1_555 1_555
C28 C27 1_555 1_555
H23 C28 1_555 1_555
C29 C28 1_555 1_555
H24 C29 1_555 1_555
C30 C25 1_555 1_555
H25 C30 1_555 1_555
C31 Sn2 1_555 1_555
C32 C31 1_555 1_555
H26 C32 1_555 1_555
C33 C32 1_555 1_555
H27 C33 1_555 1_555
C34 C33 1_555 1_555
H28 C34 1_555 1_555
C35 C31 1_555 1_555
H29 C35 1_555 1_555
C36 C34 1_555 1_555
H30 C36 1_555 1_555
P1 C37 1_555 1_555
C37 C38 1_555 1_555
C38 H31 1_555 1_555
C39 C38 1_555 1_555
H32 C39 1_555 1_555
C40 C39 1_555 1_555
H33 C40 1_555 1_555
C41 C40 1_555 1_555
H34 C41 1_555 1_555
C42 C37 1_555 1_555
H35 C42 1_555 1_555
C43 P1 1_555 1_555
C44 C43 1_555 1_555
H36 C44 1_555 1_555
C45 C44 1_555 1_555
H37 C45 1_555 1_555
C46 C45 1_555 1_555
H38 C46 1_555 1_555
C47 C46 1_555 1_555
H39 C47 1_555 1_555
C48 C43 1_555 1_555
H40 C48 1_555 1_555
C49 P1 1_555 1_555
C50 C49 1_555 1_555
H41 C50 1_555 1_555
C51 C50 1_555 1_555
H42 C51 1_555 1_555
C52 C51 1_555 1_555
H43 C52 1_555 1_555
C53 C52 1_555 1_555
H44 C53 1_555 1_555
C54 C49 1_555 1_555
H45 C54 1_555 1_555
C55 P1 1_555 1_555
C56 C55 1_555 1_555
H46 C56 1_555 1_555
C57 C56 1_555 1_555
H47 C57 1_555 1_555
C58 C57 1_555 1_555
H48 C58 1_555 1_555
C59 C58 1_555 1_555
H49 C59 1_555 1_555
C60 C55 1_555 1_555
H50 C60 1_555 1_555
O3C Sn1 1_555 1_555
Sn1C O3 1_555 1_555
Se1 O2 1_555 1_555
C5 C6 1_555 1_555
C11 C12 1_555 1_555
C17 C18 1_555 1_555
C23 C24 1_555 1_555
C29 C30 1_555 1_555
C35 C36 1_555 1_555
C41 C42 1_555 1_555
C47 C48 1_555 1_555
C53 C54 1_555 1_555
C59 C60 1_555 1_555

#END
