
#######################################################################
#
#                 Cambridge Crystallographic Data Centre
#                                CCDC 
#
#######################################################################
#
# If this CIF has been generated from an entry in the Cambridge 
# Structural Database, then it will include bibliographic, chemical, 
# crystal, experimental, refinement or atomic coordinate data resulting 
# from the CCDC's data processing and validation procedures.
#
#######################################################################

data_QENRUW
_symmetry_cell_setting           monoclinic
_symmetry_space_group_name_H-M   'P 21/n'
_symmetry_Int_Tables_number      14
_space_group_name_Hall           '-P 2yn'
loop_
_symmetry_equiv_pos_site_id
_symmetry_equiv_pos_as_xyz
1 x,y,z
2 1/2+x,1/2-y,1/2+z
3 -x,-y,-z
4 1/2-x,1/2+y,1/2-z
_cell_length_a                   13.8510(10)
_cell_length_b                   11.9611(8)
_cell_length_c                   31.689(2)
_cell_angle_alpha                90
_cell_angle_beta                 91.124(6)
_cell_angle_gamma                90
_cell_volume                     5249.01
loop_
_atom_site_label
_atom_site_type_symbol
_atom_site_fract_x
_atom_site_fract_y
_atom_site_fract_z
Sn1 Sn 0.26170(7) 0.08716(7) 0.24526(3)
Sn2 Sn 0.55180(6) 0.32888(8) 0.13220(3)
Se1 Se 0.31751(9) 0.35476(10) 0.19139(4)
Cl1 Cl 0.7037(2) 0.2866(3) 0.09195(11)
O1 O 0.3387(5) 0.2301(6) 0.2125(2)
O2 O 0.4072(5) 0.3822(5) 0.1615(2)
O3 O 0.3238(5) 0.4466(6) 0.2301(2)
O4 O 0.2189(6) 0.3641(6) 0.1656(2)
C1 C 0.2733(9) 0.1718(10) 0.3037(3)
C2 C 0.2116(10) 0.1492(10) 0.3374(4)
H1 H 0.1637 0.0952 0.3344
C3 C 0.2221(11) 0.2071(11) 0.3750(4)
H2 H 0.1784 0.1937 0.3963
C4 C 0.2957(12) 0.2846(12) 0.3819(4)
H3 H 0.3038 0.3209 0.4077
C5 C 0.3554(10) 0.3045(11) 0.3489(4)
H4 H 0.4044 0.3569 0.3526
C6 C 0.3469(9) 0.2509(10) 0.3103(4)
H5 H 0.3897 0.2672 0.2889
C7 C 0.3878(9) -0.0081(10) 0.2326(4)
C8 C 0.4773(10) 0.0294(12) 0.2407(5)
H6 H 0.4836 0.1015 0.2514
C9 C 0.5580(11) -0.0284(14) 0.2347(5)
H7 H 0.6180 0.0036 0.2406
C10 C 0.5518(12) -0.1320(13) 0.2202(5)
H8 H 0.6075 -0.1744 0.2172
C11 C 0.4647(13) -0.1766(14) 0.2095(6)
H9 H 0.4599 -0.2472 0.1974
C12 C 0.3823(10) -0.1124(12) 0.2174(5)
H10 H 0.3217 -0.1433 0.2118
C13 C 0.1456(9) 0.0986(9) 0.2004(4)
C14 C 0.1623(11) 0.1144(10) 0.1584(5)
H11 H 0.2257 0.1209 0.1496
C15 C 0.0884(15) 0.1208(12) 0.1288(5)
H12 H 0.1014 0.1287 0.1003
C16 C -0.0044(14) 0.1154(14) 0.1424(6)
H13 H -0.0552 0.1234 0.1230
C17 C -0.0232(14) 0.0990(18) 0.1829(6)
H14 H -0.0867 0.0917 0.1914
C18 C 0.0524(11) 0.0927(14) 0.2126(4)
H15 H 0.0387 0.0845 0.2411
C19 C 0.4807(8) 0.1951(9) 0.1007(4)
C20 C 0.4817(10) 0.1826(12) 0.0575(4)
H16 H 0.5131 0.2364 0.0416
C21 C 0.4384(11) 0.0944(14) 0.0368(4)
H17 H 0.4387 0.0903 0.0075
C22 C 0.3946(11) 0.0124(13) 0.0599(5)
H18 H 0.3643 -0.0473 0.0463
C23 C 0.3956(12) 0.0184(12) 0.1028(5)
H19 H 0.3700 -0.0396 0.1186
C24 C 0.4353(9) 0.1119(11) 0.1229(4)
H20 H 0.4308 0.1184 0.1521
C25 C 0.6157(11) 0.2963(11) 0.1933(4)
C26 C 0.5723(10) 0.3387(13) 0.2291(5)
H21 H 0.5187 0.3852 0.2268
C27 C 0.6112(11) 0.3097(16) 0.2689(5)
H22 H 0.5819 0.3357 0.2932
C28 C 0.6906(13) 0.2444(18) 0.2723(6)
H23 H 0.7154 0.2253 0.2988
C29 C 0.7337(12) 0.2071(15) 0.2373(6)
H24 H 0.7885 0.1625 0.2403
C30 C 0.7000(11) 0.2323(13) 0.1975(5)
H25 H 0.7323 0.2074 0.1738
C31 C 0.5497(9) 0.4940(11) 0.1063(5)
C32 C 0.5458(13) 0.5860(13) 0.1303(5)
H26 H 0.5453 0.5790 0.1596
C33 C 0.5427(15) 0.6938(13) 0.1119(6)
H27 H 0.5421 0.7562 0.1294
C34 C 0.5406(13) 0.7077(15) 0.0712(7)
H28 H 0.5401 0.7789 0.0594
C35 C 0.5489(13) 0.5097(12) 0.0654(5)
H29 H 0.5548 0.4480 0.0478
C36 C 0.5393(16) 0.6169(16) 0.0470(5)
H30 H 0.5321 0.6239 0.0179
O3C O 0.1762(5) -0.0534(6) 0.2699(2)
Sn1C Sn 0.23830(7) 0.58716(7) 0.25474(3)
P1 P 0.8785(2) 0.7052(3) 0.04932(10)
C37 C 0.8082(9) 0.8115(10) 0.0743(4)
C38 C 0.7378(9) 0.8692(10) 0.0526(4)
H31 H 0.7245 0.8510 0.0245
C39 C 0.6858(9) 0.9545(11) 0.0715(4)
H32 H 0.6395 0.9945 0.0561
C40 C 0.7039(10) 0.9780(11) 0.1125(5)
H33 H 0.6662 1.0316 0.1256
C41 C 0.7748(11) 0.9266(12) 0.1354(5)
H34 H 0.7892 0.9482 0.1630
C42 C 0.8259(9) 0.8396(12) 0.1161(4)
H35 H 0.8724 0.8003 0.1316
C43 C 0.9204(10) 0.6081(9) 0.0884(4)
C44 C 1.0160(10) 0.5785(11) 0.0919(4)
H36 H 1.0619 0.6095 0.0743
C45 C 1.0415(12) 0.5019(13) 0.1222(5)
H37 H 1.1068 0.4847 0.1252
C46 C 0.9801(17) 0.4489(15) 0.1481(6)
H38 H 1.0016 0.3963 0.1678
C47 C 0.8847(14) 0.4769(14) 0.1437(5)
H39 H 0.8402 0.4421 0.1610
C48 C 0.8514(10) 0.5554(12) 0.1145(5)
H40 H 0.7861 0.5729 0.1121
C49 C 0.8120(9) 0.6404(13) 0.0078(4)
C50 C 0.7771(11) 0.5308(13) 0.0108(5)
H41 H 0.7880 0.4899 0.0354
C51 C 0.7272(13) 0.4838(15) -0.0224(6)
H42 H 0.7050 0.4108 -0.0202
C52 C 0.7098(14) 0.5418(17) -0.0583(6)
H43 H 0.6746 0.5089 -0.0803
C53 C 0.7426(12) 0.6454(16) -0.0624(5)
H44 H 0.7320 0.6840 -0.0875
C54 C 0.7919(10) 0.6954(12) -0.0297(4)
H45 H 0.8126 0.7689 -0.0328
C55 C 0.9809(9) 0.7699(13) 0.0252(4)
C56 C 1.0178(11) 0.8705(13) 0.0396(5)
H46 H 0.9885 0.9072 0.0618
C57 C 1.0998(12) 0.9177(15) 0.0207(6)
H47 H 1.1234 0.9871 0.0292
C58 C 1.1438(13) 0.8583(16) -0.0107(7)
H48 H 1.2011 0.8843 -0.0219
C59 C 1.1032(14) 0.7601(18) -0.0256(6)
H49 H 1.1304 0.7246 -0.0486
C60 C 1.0235(11) 0.7137(13) -0.0072(5)
H50 H 0.9990 0.6455 -0.0165
loop_
_geom_bond_atom_site_label_1
_geom_bond_atom_site_label_2
_geom_bond_site_symmetry_1
_geom_bond_site_symmetry_2
Sn1 O1 1_555 1_555
Sn2 Cl1 1_555 1_555
Se1 O1 1_555 1_555
O2 Sn2 1_555 1_555
O3 Se1 1_555 1_555
O4 Se1 1_555 1_555
C1 Sn1 1_555 1_555
C2 C1 1_555 1_555
H1 C2 1_555 1_555
C3 C2 1_555 1_555
H2 C3 1_555 1_555
C4 C3 1_555 1_555
H3 C4 1_555 1_555
C5 C4 1_555 1_555
H4 C5 1_555 1_555
C6 C1 1_555 1_555
H5 C6 1_555 1_555
C7 Sn1 1_555 1_555
C8 C7 1_555 1_555
H6 C8 1_555 1_555
C9 C8 1_555 1_555
H7 C9 1_555 1_555
C10 C9 1_555 1_555
H8 C10 1_555 1_555
C11 C10 1_555 1_555
H9 C11 1_555 1_555
C12 C7 1_555 1_555
H10 C12 1_555 1_555
C13 Sn1 1_555 1_555
C14 C13 1_555 1_555
H11 C14 1_555 1_555
C15 C14 1_555 1_555
H12 C15 1_555 1_555
C16 C15 1_555 1_555
H13 C16 1_555 1_555
C17 C16 1_555 1_555
H14 C17 1_555 1_555
C18 C13 1_555 1_555
H15 C18 1_555 1_555
C19 Sn2 1_555 1_555
C20 C19 1_555 1_555
H16 C20 1_555 1_555
C21 C20 1_555 1_555
H17 C21 1_555 1_555
C22 C21 1_555 1_555
H18 C22 1_555 1_555
C23 C22 1_555 1_555
H19 C23 1_555 1_555
C24 C19 1_555 1_555
H20 C24 1_555 1_555
C25 Sn2 1_555 1_555
C26 C25 1_555 1_555
H21 C26 1_555 1_555
C27 C26 1_555 1_555
H22 C27 1_555 1_555
C28 C27 1_555 1_555
H23 C28 1_555 1_555
C29 C28 1_555 1_555
H24 C29 1_555 1_555
C30 C25 1_555 1_555
H25 C30 1_555 1_555
C31 Sn2 1_555 1_555
C32 C31 1_555 1_555
H26 C32 1_555 1_555
C33 C32 1_555 1_555
H27 C33 1_555 1_555
C34 C33 1_555 1_555
H28 C34 1_555 1_555
C35 C31 1_555 1_555
H29 C35 1_555 1_555
C36 C34 1_555 1_555
H30 C36 1_555 1_555
P1 C37 1_555 1_555
C37 C38 1_555 1_555
C38 H31 1_555 1_555
C39 C38 1_555 1_555
H32 C39 1_555 1_555
C40 C39 1_555 1_555
H33 C40 1_555 1_555
C41 C40 1_555 1_555
H34 C41 1_555 1_555
C42 C37 1_555 1_555
H35 C42 1_555 1_555
C43 P1 1_555 1_555
C44 C43 1_555 1_555
H36 C44 1_555 1_555
C45 C44 1_555 1_555
H37 C45 1_555 1_555
C46 C45 1_555 1_555
H38 C46 1_555 1_555
C47 C46 1_555 1_555
H39 C47 1_555 1_555
C48 C43 1_555 1_555
H40 C48 1_555 1_555
C49 P1 1_555 1_555
C50 C49 1_555 1_555
H41 C50 1_555 1_555
C51 C50 1_555 1_555
H42 C51 1_555 1_555
C52 C51 1_555 1_555
H43 C52 1_555 1_555
C53 C52 1_555 1_555
H44 C53 1_555 1_555
C54 C49 1_555 1_555
H45 C54 1_555 1_555
C55 P1 1_555 1_555
C56 C55 1_555 1_555
H46 C56 1_555 1_555
C57 C56 1_555 1_555
H47 C57 1_555 1_555
C58 C57 1_555 1_555
H48 C58 1_555 1_555
C59 C58 1_555 1_555
H49 C59 1_555 1_555
C60 C55 1_555 1_555
H50 C60 1_555 1_555
O3C Sn1 1_555 1_555
Sn1C O3 1_555 1_555
Se1 O2 1_555 1_555
C5 C6 1_555 1_555
C11 C12 1_555 1_555
C17 C18 1_555 1_555
C23 C24 1_555 1_555
C29 C30 1_555 1_555
C35 C36 1_555 1_555
C41 C42 1_555 1_555
C47 C48 1_555 1_555
C53 C54 1_555 1_555
C59 C60 1_555 1_555

#END
