
#######################################################################
#
#                 Cambridge Crystallographic Data Centre
#                                CCDC 
#
#######################################################################
#
# If this CIF has been generated from an entry in the Cambridge 
# Structural Database, then it will include bibliographic, chemical, 
# crystal, experimental, refinement or atomic coordinate data resulting 
# from the CCDC's data processing and validation procedures.
#
#######################################################################

data_QENZAK
_symmetry_cell_setting           monoclinic
_symmetry_space_group_name_H-M   'P 21/n'
_symmetry_Int_Tables_number      14
_space_group_name_Hall           '-P 2yn'
loop_
_symmetry_equiv_pos_site_id
_symmetry_equiv_pos_as_xyz
1 x,y,z
2 1/2+x,1/2-y,1/2+z
3 -x,-y,-z
4 1/2-x,1/2+y,1/2-z
_cell_length_a                   9.4926(2)
_cell_length_b                   8.8679(2)
_cell_length_c                   22.9175(5)
_cell_angle_alpha                90.00
_cell_angle_beta                 99.6419(13)
_cell_angle_gamma                90.00
_cell_volume                     1901.93
loop_
_atom_site_label
_atom_site_type_symbol
_atom_site_fract_x
_atom_site_fract_y
_atom_site_fract_z
Cl1 Cl 0.59743(7) 0.82694(10) 0.11429(3)
Zn1 Zn 0.97229(3) 1.31411(3) 0.131336(11)
Zn2 Zn 0.78790(3) 0.82382(3) 0.187972(11)
O1 O 1.08081(18) 1.14971(18) 0.17993(7)
O2 O 0.88057(18) 1.01868(19) 0.17033(8)
O3 O 0.9012(2) 0.64581(19) 0.16460(7)
O4 O 1.05694(17) 0.46652(18) 0.19723(7)
O5 O 0.69836(18) 0.8145(2) 0.26161(8)
O6 O 0.73362(18) 0.84384(19) 0.35958(7)
N1 N 1.1135(2) 1.3923(2) 0.07522(8)
N2 N 0.8954(2) 1.2054(2) 0.04879(9)
N3 N 0.9830(2) 0.82390(19) 0.25862(8)
H1 H 1.231(3) 1.529(3) 0.1309(13)
H2 H 1.390(3) 1.593(4) 0.0661(13)
H3 H 1.356(3) 1.503(3) -0.0296(14)
H4 H 1.169(3) 1.334(3) -0.0535(14)
H5 H 0.984(3) 1.183(3) -0.0822(15)
H8 H 0.787(3) 1.025(4) -0.0954(15)
H9 H 0.659(3) 0.987(4) -0.0188(14)
H10 H 0.728(3) 1.101(3) 0.0690(13)
H11 H 1.147(3) 0.976(3) 0.2661(12)
H12 H 1.143(3) 0.864(3) 0.2147(12)
H13 H 0.975(3) 0.611(3) 0.2899(11)
H14 H 1.127(3) 0.656(3) 0.2788(11)
H15 H 0.935(3) 0.988(3) 0.3116(12)
H16 H 0.991(3) 0.840(3) 0.3474(14)
C1 C 1.2207(3) 1.4897(3) 0.09127(12)
C2 C 1.3143(3) 1.5314(3) 0.05380(13)
C3 C 1.2956(3) 1.4718(4) -0.00202(13)
C4 C 1.1848(3) 1.3708(4) -0.01921(13)
C5 C 1.0948(3) 1.3338(3) 0.02024(10)
C6 C 0.9713(3) 1.2295(3) 0.00495(10)
C7 C 0.9330(3) 1.1633(3) -0.05028(12)
C8 C 0.8141(3) 1.0726(4) -0.06059(13)
C9 C 0.7359(3) 1.0479(3) -0.01593(12)
C10 C 0.7803(3) 1.1170(3) 0.03832(12)
C11 C 1.0842(2) 0.9253(3) 0.23615(11)
C12 C 1.0084(2) 1.0395(3) 0.19276(10)
C13 C 1.0311(3) 0.6664(3) 0.26319(11)
C14 C 0.9951(2) 0.5875(3) 0.20349(10)
C15 C 0.9326(3) 0.8795(3) 0.31170(11)
C16 C 0.7762(3) 0.8412(3) 0.31082(10)
O4_2 O 1.05694(17) 1.46652(18) 0.19723(7)
O6C O 0.76638(18) 1.34384(19) 0.14042(7)
Zn1_2 Zn 0.97229(3) 0.31411(3) 0.131336(11)
Zn1C Zn 0.52771(3) 0.81411(3) 0.368664(11)
O7 O 1.1456(3) 1.2592(3) 0.30935(13)
H6 H 1.106(4) 1.289(4) 0.3288(18)
H7 H 1.121(5) 1.271(6) 0.273(3)
loop_
_geom_bond_atom_site_label_1
_geom_bond_atom_site_label_2
_geom_bond_site_symmetry_1
_geom_bond_site_symmetry_2
Cl1 Zn2 1_555 1_555
Zn1 O1 1_555 1_555
Zn2 O2 1_555 1_555
O1 C12 1_555 1_555
O2 C12 1_555 1_555
O3 Zn2 1_555 1_555
O4 C14 1_555 1_555
O5 Zn2 1_555 1_555
O6 C16 1_555 1_555
O7 H6 1_555 1_555
N1 Zn1 1_555 1_555
N2 Zn1 1_555 1_555
N3 Zn2 1_555 1_555
H1 C1 1_555 1_555
H2 C2 1_555 1_555
H3 C3 1_555 1_555
H4 C4 1_555 1_555
H5 C7 1_555 1_555
H7 O7 1_555 1_555
H8 C8 1_555 1_555
H9 C9 1_555 1_555
H10 C10 1_555 1_555
H11 C11 1_555 1_555
H12 C11 1_555 1_555
H13 C13 1_555 1_555
H14 C13 1_555 1_555
H15 C15 1_555 1_555
H16 C15 1_555 1_555
C1 N1 1_555 1_555
C2 C1 1_555 1_555
C3 C2 1_555 1_555
C4 C3 1_555 1_555
C5 N1 1_555 1_555
C6 N2 1_555 1_555
C7 C6 1_555 1_555
C8 C7 1_555 1_555
C9 C8 1_555 1_555
C10 N2 1_555 1_555
C11 N3 1_555 1_555
C12 C11 1_555 1_555
C13 N3 1_555 1_555
C14 O3 1_555 1_555
C15 N3 1_555 1_555
C16 O5 1_555 1_555
O4_2 Zn1 1_555 1_555
O6C Zn1 1_555 1_555
Zn1_2 O4 1_555 1_555
Zn1C O6 1_555 1_555
C4 C5 1_555 1_555
C5 C6 1_555 1_555
C9 C10 1_555 1_555
C13 C14 1_555 1_555
C15 C16 1_555 1_555

#END
