
#######################################################################
#
#                 Cambridge Crystallographic Data Centre
#                                CCDC 
#
#######################################################################
#
# If this CIF has been generated from an entry in the Cambridge 
# Structural Database, then it will include bibliographic, chemical, 
# crystal, experimental, refinement or atomic coordinate data resulting 
# from the CCDC's data processing and validation procedures.
#
#######################################################################

data_QEPBES
_symmetry_cell_setting           triclinic
_symmetry_space_group_name_H-M   'P -1'
_symmetry_Int_Tables_number      2
_space_group_name_Hall           '-P 1'
loop_
_symmetry_equiv_pos_site_id
_symmetry_equiv_pos_as_xyz
1 x,y,z
2 -x,-y,-z
_cell_length_a                   6.7316(11)
_cell_length_b                   9.4810(14)
_cell_length_c                   11.087(2)
_cell_angle_alpha                83.695(8)
_cell_angle_beta                 77.616(8)
_cell_angle_gamma                77.190(8)
_cell_volume                     672.49
loop_
_atom_site_label
_atom_site_type_symbol
_atom_site_fract_x
_atom_site_fract_y
_atom_site_fract_z
Cd1 Cd -0.33778(2) -0.257930(14) 0.643530(11)
Cl1 Cl -0.03857(9) -0.30361(6) 0.76188(6)
N1 N 0.2586(3) -0.2626(2) 0.02036(14)
O1 O -0.3096(3) -0.5083(2) 0.6344(2)
H1 H -0.2231(3) -0.5547(2) 0.6777(2)
H2 H -0.4279(3) -0.5297(2) 0.6621(2)
C1 C 0.2264(4) -0.4125(2) 0.0519(2)
H3 H 0.2854(4) -0.4691(2) -0.0186(2)
H4 H 0.0803(4) -0.4114(2) 0.0750(2)
H5 H 0.2927(4) -0.4542(2) 0.1197(2)
N2 N 0.1072(3) -0.2015(2) 0.22153(14)
H6 H 0.1047(3) -0.2916(2) 0.24062(14)
C2 C 0.1880(3) -0.1595(2) 0.1062(2)
O2 O -0.6338(3) -0.2265(2) 0.5537(2)
H7 H -0.7289(3) -0.2603(2) 0.6040(2)
H8 H -0.6765(3) -0.1368(2) 0.5364(2)
N3 N 0.1895(3) -0.0194(2) 0.08117(14)
N4 N 0.2687(3) 0.1673(2) -0.0533(2)
H9 H 0.2148(3) 0.2241(2) 0.0058(2)
H10 H 0.3200(3) 0.2020(2) -0.1253(2)
C3 C 0.2725(3) 0.0256(2) -0.0333(2)
N5 N 0.4735(3) -0.0456(2) -0.24138(14)
O3 O 0.4794(3) 0.0853(2) -0.27724(14)
C4 C 0.3672(3) -0.0748(2) -0.1269(2)
O4 O 0.4377(2) -0.3228(2) -0.17130(13)
C5 C 0.3606(3) -0.2270(2) -0.0981(2)
C6 C 0.0232(3) -0.0967(2) 0.3156(2)
H11 H -0.0585(3) -0.0107(2) 0.2807(2)
H12 H 0.1366(3) -0.0684(2) 0.3417(2)
C7 C -0.1112(3) -0.1592(2) 0.4264(2)
O5 O -0.1064(3) -0.2936(2) 0.43918(15)
O6 O -0.2210(3) -0.0729(2) 0.50429(13)
Cd1_2 Cd 0.66222(2) -0.257930(14) -0.356470(11)
N5_2 N -0.5265(3) -0.0456(2) 0.75862(14)
O4_2 O -0.5623(2) -0.3228(2) 0.82870(13)
O7 O 0.3171(3) -0.5934(2) -0.2765(2)
H13 H 0.2253(3) -0.5156(2) -0.2745(2)
H14 H 0.2918(3) -0.6397(2) -0.3310(2)
loop_
_geom_bond_atom_site_label_1
_geom_bond_atom_site_label_2
_geom_bond_site_symmetry_1
_geom_bond_site_symmetry_2
Cd1 Cl1 1_555 1_555
N1 C1 1_555 1_555
O1 Cd1 1_555 1_555
H1 O1 1_555 1_555
H2 O1 1_555 1_555
C1 H3 1_555 1_555
H4 C1 1_555 1_555
H5 C1 1_555 1_555
N2 H6 1_555 1_555
C2 N1 1_555 1_555
O2 Cd1 1_555 1_555
H7 O2 1_555 1_555
H8 O2 1_555 1_555
N3 C2 1_555 1_555
N4 H9 1_555 1_555
H10 N4 1_555 1_555
C3 N3 1_555 1_555
N5 O3 1_555 1_555
C4 C3 1_555 1_555
O4 C5 1_555 1_555
C5 N1 1_555 1_555
C6 N2 1_555 1_555
H11 C6 1_555 1_555
H12 C6 1_555 1_555
C7 C6 1_555 1_555
O5 Cd1 1_555 1_555
O6 Cd1 1_555 1_555
O7 H13 1_555 1_555
H14 O7 1_555 1_555
Cd1_2 N5 1_555 1_555
N5_2 Cd1 1_555 1_555
O4_2 Cd1 1_555 1_555
N2 C2 1_555 1_555
N4 C3 1_555 1_555
N5 C4 1_555 1_555
C4 C5 1_555 1_555
O4 Cd1_2 1_555 1_555
C7 O5 1_555 1_555
C7 O6 1_555 1_555

#END
