
#######################################################################
#
#                 Cambridge Crystallographic Data Centre
#                                CCDC 
#
#######################################################################
#
# If this CIF has been generated from an entry in the Cambridge 
# Structural Database, then it will include bibliographic, chemical, 
# crystal, experimental, refinement or atomic coordinate data resulting 
# from the CCDC's data processing and validation procedures.
#
#######################################################################

data_QEPCOD
_symmetry_cell_setting           monoclinic
_symmetry_space_group_name_H-M   'P 21/c'
_symmetry_Int_Tables_number      14
_space_group_name_Hall           '-P 2ybc'
loop_
_symmetry_equiv_pos_site_id
_symmetry_equiv_pos_as_xyz
1 x,y,z
2 x,1/2-y,1/2+z
3 -x,-y,-z
4 -x,1/2+y,1/2-z
_cell_length_a                   9.6932(5)
_cell_length_b                   21.4518(12)
_cell_length_c                   21.1781(12)
_cell_angle_alpha                90.00
_cell_angle_beta                 97.8660(10)
_cell_angle_gamma                90.00
_cell_volume                     4362.27
loop_
_atom_site_label
_atom_site_type_symbol
_atom_site_fract_x
_atom_site_fract_y
_atom_site_fract_z
Ba1 Ba 0.27205(2) 0.068948(9) 0.076187(9)
Ba2 Ba 0.78021(2) 0.075210(9) 0.085650(9)
S1 S 0.86781(10) 0.02918(4) 0.24489(4)
S2 S 0.27608(10) 0.24657(4) 0.02687(4)
S3 S 0.45772(8) 0.06659(4) -0.06135(4)
S4 S 0.04560(9) -0.06432(4) 0.06379(4)
N1 N 0.8981(5) 0.1736(2) 0.4436(2)
N2 N 0.4221(5) 0.3988(2) 0.2079(2)
N3 N 0.6641(5) 0.2227(2) -0.2084(2)
N4 N -0.0312(5) -0.16533(19) 0.26388(19)
O1 O 0.9293(3) 0.08099(12) 0.21313(11)
O2 O 0.9690(3) -0.01364(13) 0.27531(12)
O3 O 0.7567(3) 0.00023(11) 0.20035(11)
O4 O 0.2846(3) 0.26058(14) -0.03883(13)
O5 O 0.3415(3) 0.18733(11) 0.04654(12)
O6 O 0.1365(3) 0.25208(12) 0.04364(13)
O7 O 0.5367(2) 0.08297(11) -0.00006(10)
O8 O 0.5287(2) 0.02224(10) -0.09839(10)
O9 O 0.3167(2) 0.04512(10) -0.05293(10)
O10 O 0.0006(3) -0.00511(10) 0.08792(11)
O11 O -0.0545(2) -0.09256(11) 0.01476(10)
O12 O 0.1836(2) -0.05724(11) 0.04292(11)
O13 O 0.0298(3) 0.14724(11) 0.10285(11)
O14 O 0.5363(2) 0.09525(11) 0.15281(11)
O15 O 0.2280(3) 0.05440(13) 0.20148(12)
O16 O 0.6599(3) 0.19401(11) 0.07506(12)
C1 C 0.8181(4) 0.13212(19) 0.40447(18)
C2 C 0.6772(5) 0.1298(2) 0.4110(2)
H1 H 0.6175 0.1031 0.3857
C3 C 0.6274(5) 0.1673(2) 0.4553(2)
H2 H 0.5331 0.1646 0.4590
C4 C 0.7015(4) 0.20630(18) 0.49227(17)
H3 H 0.6629 0.2307 0.5216
C5 C 0.8346(5) 0.2095(2) 0.4860(2)
H4 H 0.8898 0.2376 0.5117
C6 C 0.8821(4) 0.0948(2) 0.35651(19)
H5 H 0.9415 0.1223 0.3357
H6 H 0.9415 0.0633 0.3791
C7 C 0.7840(4) 0.06289(18) 0.30591(16)
H7 H 0.7345 0.0305 0.3256
H8 H 0.7157 0.0929 0.2869
C8 C 0.4739(6) 0.3611(3) 0.1646(3)
C9 C 0.6112(6) 0.3717(3) 0.1531(3)
H9 H 0.6492 0.3476 0.1232
C10 C 0.6889(5) 0.4177(3) 0.1861(2)
H10 H 0.7788 0.4249 0.1771
C11 C 0.6414(4) 0.45201(18) 0.23000(17)
H11 H 0.6966 0.4823 0.2525
C12 C 0.5139(5) 0.44192(19) 0.24067(19)
H12 H 0.4815 0.4652 0.2726
C13 C 0.3897(6) 0.3037(3) 0.1336(3)
H13 H 0.4363 0.2655 0.1489
H14 H 0.2974 0.3036 0.1464
C14 C 0.3784(5) 0.3056(2) 0.0686(2)
H15 H 0.4714 0.3034 0.0567
H16 H 0.3395 0.3457 0.0544
C15 C 0.5606(4) 0.21478(17) -0.16812(17)
C16 C 0.4506(4) 0.25725(18) -0.1749(2)
H17 H 0.3795 0.2538 -0.1498
C17 C 0.4485(5) 0.30437(19) -0.2193(2)
H18 H 0.3738 0.3320 -0.2234
C18 C 0.5459(4) 0.31276(15) -0.25643(16)
H19 H 0.5402 0.3454 -0.2856
C19 C 0.6507(5) 0.2737(2) -0.2508(2)
H20 H 0.7204 0.2800 -0.2763
C20 C 0.5754(4) 0.16270(16) -0.12052(17)
H21 H 0.6300 0.1296 -0.1361
H22 H 0.6261 0.1778 -0.0808
C21 C 0.4357(4) 0.13597(15) -0.10746(15)
H23 H 0.3877 0.1668 -0.0850
H24 H 0.3783 0.1271 -0.1477
C22 C -0.0637(4) -0.18252(16) 0.19958(16)
C23 C -0.0845(4) -0.24455(17) 0.18618(18)
H25 H -0.1069 -0.2577 0.1442
C24 C -0.0722(5) -0.28750(19) 0.2351(2)
H26 H -0.0865 -0.3294 0.2248
C25 C -0.0414(4) -0.27232(16) 0.29553(15)
H27 H -0.0345 -0.3023 0.3275
C26 C -0.0210(5) -0.2133(2) 0.30867(19)
H28 H 0.0023 -0.2024 0.3513
C27 C -0.0770(4) -0.13313(17) 0.14774(17)
H29 H -0.1184 -0.0959 0.1630
H30 H -0.1381 -0.1482 0.1108
C28 C 0.0652(3) -0.11698(15) 0.12829(15)
H31 H 0.1102 -0.1547 0.1162
H32 H 0.1240 -0.0985 0.1642
O8B O 0.4713(2) -0.02224(10) 0.09839(10)
O11B O 0.0545(2) 0.09256(11) -0.01476(10)
O9B O 0.6833(2) -0.04512(10) 0.05293(10)
O10_2 O 1.0006(3) -0.00511(10) 0.08792(11)
O12B O 0.8164(2) 0.05724(11) -0.04292(11)
O13_2 O 1.0298(3) 0.14724(11) 0.10285(11)
Ba1B Ba 0.72795(2) -0.068948(9) -0.076187(9)
Ba2B Ba 0.21979(2) -0.075210(9) -0.085650(9)
Ba2_2 Ba -0.21979(2) 0.075210(9) 0.085650(9)
Ba1B_2 Ba -0.27205(2) -0.068948(9) -0.076187(9)
Ba1_2 Ba 1.27205(2) 0.068948(9) 0.076187(9)
O17 O 0.8244(7) 0.5588(3) 0.0221(2)
O18 O 0.7178(9) 0.5219(4) -0.0689(3)
C29 C 0.7187(10) 0.5731(5) 0.1130(5)
H33 H 0.6435 0.5633 0.1364
H34 H 0.7187 0.6171 0.1045
H35 H 0.8055 0.5616 0.1376
C30 C 0.7006(11) 0.5378(5) 0.0510(4)
H36 H 0.7022 0.4931 0.0580
H37 H 0.6145 0.5491 0.0245
C31 C 0.8271(11) 0.5463(4) -0.0350(4)
C32 C 0.9477(12) 0.5733(4) -0.0657(4)
H38 H 0.9388 0.5607 -0.1095
H39 H 1.0343 0.5581 -0.0436
H40 H 0.9458 0.6179 -0.0632
loop_
_geom_bond_atom_site_label_1
_geom_bond_atom_site_label_2
_geom_bond_site_symmetry_1
_geom_bond_site_symmetry_2
Ba1 O5 1_555 1_555
Ba2 O1 1_555 1_555
S1 O1 1_555 1_555
S2 O4 1_555 1_555
S3 O7 1_555 1_555
S4 O10 1_555 1_555
N1 C1 1_555 1_555
N2 C8 1_555 1_555
N3 C15 1_555 1_555
N4 C22 1_555 1_555
O2 S1 1_555 1_555
O3 Ba2 1_555 1_555
O5 S2 1_555 1_555
O6 S2 1_555 1_555
O7 Ba1 1_555 1_555
O8 S3 1_555 1_555
O9 Ba1 1_555 1_555
O10 Ba1 1_555 1_555
O11 S4 1_555 1_555
O12 Ba1 1_555 1_555
O13 Ba1 1_555 1_555
O14 Ba1 1_555 1_555
O15 Ba1 1_555 1_555
O16 Ba2 1_555 1_555
O17 C30 1_555 1_555
O18 C31 1_555 1_555
C1 C2 1_555 1_555
C2 H1 1_555 1_555
C3 C2 1_555 1_555
H2 C3 1_555 1_555
C4 C3 1_555 1_555
H3 C4 1_555 1_555
C5 N1 1_555 1_555
H4 C5 1_555 1_555
C6 C1 1_555 1_555
H5 C6 1_555 1_555
H6 C6 1_555 1_555
C7 S1 1_555 1_555
H7 C7 1_555 1_555
H8 C7 1_555 1_555
C8 C9 1_555 1_555
C9 H9 1_555 1_555
C10 C9 1_555 1_555
H10 C10 1_555 1_555
C11 C10 1_555 1_555
H11 C11 1_555 1_555
C12 N2 1_555 1_555
H12 C12 1_555 1_555
C13 C8 1_555 1_555
H13 C13 1_555 1_555
H14 C13 1_555 1_555
C14 S2 1_555 1_555
H15 C14 1_555 1_555
H16 C14 1_555 1_555
C15 C16 1_555 1_555
C16 H17 1_555 1_555
C17 C16 1_555 1_555
H18 C17 1_555 1_555
C18 C17 1_555 1_555
H19 C18 1_555 1_555
C19 N3 1_555 1_555
H20 C19 1_555 1_555
C20 C15 1_555 1_555
H21 C20 1_555 1_555
H22 C20 1_555 1_555
C21 S3 1_555 1_555
H23 C21 1_555 1_555
H24 C21 1_555 1_555
C22 C23 1_555 1_555
C23 H25 1_555 1_555
C24 C23 1_555 1_555
H26 C24 1_555 1_555
C25 C24 1_555 1_555
H27 C25 1_555 1_555
C26 N4 1_555 1_555
H28 C26 1_555 1_555
C27 C22 1_555 1_555
H29 C27 1_555 1_555
H30 C27 1_555 1_555
C28 S4 1_555 1_555
H31 C28 1_555 1_555
H32 C28 1_555 1_555
C29 H33 1_555 1_555
H34 C29 1_555 1_555
H35 C29 1_555 1_555
C30 C29 1_555 1_555
H36 C30 1_555 1_555
H37 C30 1_555 1_555
C31 O17 1_555 1_555
C32 C31 1_555 1_555
H38 C32 1_555 1_555
H39 C32 1_555 1_555
H40 C32 1_555 1_555
O8B Ba1 1_555 1_555
O11B Ba1 1_555 1_555
O9B Ba2 1_555 1_555
O10_2 Ba2 1_555 1_555
O12B Ba2 1_555 1_555
O13_2 Ba2 1_555 1_555
Ba1B O8 1_555 1_555
Ba2B O9 1_555 1_555
Ba2_2 O10 1_555 1_555
Ba1B_2 O11 1_555 1_555
Ba1_2 O10_2 1_555 1_555
Ba2 O7 1_555 1_555
Ba2 O14 1_555 1_555
S1 O3 1_555 1_555
S3 O9 1_555 1_555
S4 O12 1_555 1_555
O12 Ba2B 1_555 1_555
O13 Ba2_2 1_555 1_555
C4 C5 1_555 1_555
C6 C7 1_555 1_555
C11 C12 1_555 1_555
C13 C14 1_555 1_555
C18 C19 1_555 1_555
C20 C21 1_555 1_555
C25 C26 1_555 1_555
C27 C28 1_555 1_555
O9B Ba1B 1_555 1_555
O12B Ba1B 1_555 1_555
O13_2 Ba1_2 1_555 1_555

#END
