
#######################################################################
#
#                 Cambridge Crystallographic Data Centre
#                                CCDC 
#
#######################################################################
#
# If this CIF has been generated from an entry in the Cambridge 
# Structural Database, then it will include bibliographic, chemical, 
# crystal, experimental, refinement or atomic coordinate data resulting 
# from the CCDC's data processing and validation procedures.
#
#######################################################################

data_QEPKAY
_symmetry_cell_setting           triclinic
_symmetry_space_group_name_H-M   'P -1'
_symmetry_Int_Tables_number      2
_space_group_name_Hall           '-P 1'
loop_
_symmetry_equiv_pos_site_id
_symmetry_equiv_pos_as_xyz
1 x,y,z
2 -x,-y,-z
_cell_length_a                   7.8843(17)
_cell_length_b                   10.321(2)
_cell_length_c                   11.395(2)
_cell_angle_alpha                107.139(3)
_cell_angle_beta                 105.101(3)
_cell_angle_gamma                99.328(3)
_cell_volume                     826.312
loop_
_atom_site_label
_atom_site_type_symbol
_atom_site_fract_x
_atom_site_fract_y
_atom_site_fract_z
In1 In 0.35268(7) 0.09397(5) 0.14863(5)
In2 In 0.20147(7) -0.43264(6) -0.01161(5)
P1 P 0.5561(2) -0.1643(2) 0.09863(19)
P2 P -0.0440(3) 0.1959(2) 0.11931(19)
F1 F 0.3278(6) -0.5357(5) -0.1350(5)
O1 O 0.4072(7) -0.2584(6) 0.1196(5)
O2 O 0.1590(7) 0.2163(5) 0.1412(5)
F2 F -0.0235(5) -0.6115(5) -0.0990(4)
O3 O -0.0863(7) 0.3380(6) 0.1388(5)
O4 O 0.5726(6) -0.0086(5) 0.1660(5)
O5 O 0.5327(7) -0.2006(6) -0.0448(5)
O6 O 0.7408(7) -0.1881(5) 0.1711(5)
H1 H 0.7400 -0.2709 0.1404
O7 O -0.1629(7) 0.0856(6) -0.0093(5)
O8 O -0.0758(8) 0.1486(6) 0.2325(5)
H2 H -0.1828 0.1392 0.2279
O9 O 0.3228(7) -0.5357(6) 0.1212(5)
N1 N 0.5340(9) 0.2668(7) 0.3368(6)
N2 N 0.2909(9) 0.0380(7) 0.3106(6)
C1 C 0.6570(12) 0.3781(9) 0.3422(9)
C2 C 0.5155(11) 0.2582(9) 0.4466(8)
C3 C 0.3781(11) 0.1327(9) 0.4341(8)
C4 C 0.1684(12) -0.0792(10) 0.2918(9)
C5 C 0.1309(12) -0.1107(11) 0.3934(10)
C6 C 0.7630(13) 0.4820(11) 0.4584(11)
C7 C 0.3444(13) 0.1043(11) 0.5382(9)
C8 C 0.6181(15) 0.3604(12) 0.5677(9)
C9 C 0.2192(14) -0.0176(13) 0.5176(11)
C10 C 0.7401(15) 0.4736(12) 0.5731(11)
H3 H 0.693(18) 0.386(14) 0.280(13)
H4 H 0.406(13) 0.163(10) 0.614(10)
H5 H 0.047(13) -0.200(11) 0.387(9)
H6 H 0.178(12) -0.038(9) 0.573(9)
H7 H 0.854(16) 0.561(13) 0.453(11)
H8 H 0.592(17) 0.345(13) 0.633(12)
H9 H 0.823(14) 0.551(12) 0.653(10)
H10 H 0.129(13) -0.148(11) 0.187(10)
In1A In 0.64732(7) -0.09397(5) -0.14863(5)
In1A_2 In -0.35268(7) -0.09397(5) -0.14863(5)
In2A In -0.20147(7) -0.56736(6) 0.01161(5)
In2A_2 In -0.20147(7) 0.43264(6) 0.01161(5)
F2A F 0.0235(5) -0.3885(5) 0.0990(4)
O3A O 0.0863(7) -0.3380(6) -0.1388(5)
O5A O 0.4673(7) 0.2006(6) 0.0448(5)
O7A O 0.1629(7) -0.0856(6) 0.0093(5)
loop_
_geom_bond_atom_site_label_1
_geom_bond_atom_site_label_2
_geom_bond_site_symmetry_1
_geom_bond_site_symmetry_2
In1 O2 1_555 1_555
In2 F1 1_555 1_555
P1 O1 1_555 1_555
P2 O2 1_555 1_555
O1 In2 1_555 1_555
F2 In2 1_555 1_555
O3 P2 1_555 1_555
O4 In1 1_555 1_555
O5 P1 1_555 1_555
O6 P1 1_555 1_555
H1 O6 1_555 1_555
O7 P2 1_555 1_555
O8 P2 1_555 1_555
H2 O8 1_555 1_555
O9 In2 1_555 1_555
N1 In1 1_555 1_555
N2 In1 1_555 1_555
C1 N1 1_555 1_555
C2 N1 1_555 1_555
C3 N2 1_555 1_555
C4 N2 1_555 1_555
C5 C4 1_555 1_555
C6 C1 1_555 1_555
C7 C3 1_555 1_555
C8 C2 1_555 1_555
C9 C5 1_555 1_555
C10 C6 1_555 1_555
H3 C1 1_555 1_555
H4 C7 1_555 1_555
H5 C5 1_555 1_555
H6 C9 1_555 1_555
H7 C6 1_555 1_555
H8 C8 1_555 1_555
H9 C10 1_555 1_555
H10 C4 1_555 1_555
In1A O5 1_555 1_555
In1A_2 O7 1_555 1_555
In2A F2 1_555 1_555
In2A_2 O3 1_555 1_555
F2A In2 1_555 1_555
O3A In2 1_555 1_555
O5A In1 1_555 1_555
O7A In1 1_555 1_555
P1 O4 1_555 1_555
C2 C3 1_555 1_555
C7 C9 1_555 1_555
C8 C10 1_555 1_555
In2A F2A 1_555 1_555

#END
