
#######################################################################
#
#                 Cambridge Crystallographic Data Centre
#                                CCDC 
#
#######################################################################
#
# If this CIF has been generated from an entry in the Cambridge 
# Structural Database, then it will include bibliographic, chemical, 
# crystal, experimental, refinement or atomic coordinate data resulting 
# from the CCDC's data processing and validation procedures.
#
#######################################################################

data_QEPKEC
_symmetry_cell_setting           triclinic
_symmetry_space_group_name_H-M   'P -1'
_symmetry_Int_Tables_number      2
_space_group_name_Hall           '-P 1'
loop_
_symmetry_equiv_pos_site_id
_symmetry_equiv_pos_as_xyz
1 x,y,z
2 -x,-y,-z
_cell_length_a                   7.899(3)
_cell_length_b                   10.405(4)
_cell_length_c                   11.387(5)
_cell_angle_alpha                108.01(3)
_cell_angle_beta                 104.52(3)
_cell_angle_gamma                99.36(2)
_cell_volume                     831.772
loop_
_atom_site_label
_atom_site_type_symbol
_atom_site_fract_x
_atom_site_fract_y
_atom_site_fract_z
In1 In 0.79865(10) 0.43228(7) 0.01257(7)
In2 In 0.64969(9) -0.09463(7) -0.15017(6)
P1 P 0.9532(3) 0.1971(3) 0.1201(2)
P2 P 0.4447(3) 0.1639(3) -0.0962(2)
O1 O 0.9137(9) 0.3382(7) 0.1372(6)
O2 O 0.6787(9) 0.5365(7) -0.1160(6)
F1 F 0.6769(8) 0.5392(6) 0.1405(6)
F2 F 1.0233(8) 0.6116(6) 0.0995(5)
O3 O 0.5931(9) 0.2577(7) -0.1159(6)
O4 O 0.8354(9) 0.0849(7) -0.0073(6)
O5 O 0.4284(9) 0.0078(7) -0.1656(6)
O6 O 0.4648(9) 0.2000(7) 0.0461(6)
O7 O 0.2619(9) 0.1876(7) -0.1667(7)
H1 H 0.2624 0.2699 -0.1340
O8 O 0.9155(9) 0.1539(7) 0.2347(6)
H2 H 0.9790 0.2143 0.3050
O9 O 1.1573(9) 0.2174(7) 0.1419(7)
N1 N 0.4704(11) -0.2667(8) -0.3389(7)
N2 N 0.7139(12) -0.0377(9) -0.3116(8)
C1 C 0.3565(15) -0.3768(11) -0.3427(10)
H3 H 0.3428 -0.3822 -0.2655
C2 C 0.6232(14) -0.1309(10) -0.4355(9)
C3 C 0.3914(16) -0.3556(13) -0.5681(11)
H4 H 0.4032 -0.3436 -0.6435
C4 C 0.2549(16) -0.4869(11) -0.4622(12)
C5 C 0.4915(15) -0.2570(11) -0.4491(10)
C6 C 0.8312(16) 0.0775(11) -0.2917(11)
H5 H 0.8917 0.1378 -0.2059
C7 C 0.8719(18) 0.1161(14) -0.3913(11)
H6 H 0.9544 0.1995 -0.3745
C8 C 0.7799(17) 0.0206(15) -0.5159(12)
H7 H 0.8040 0.0391 -0.5858
C9 C 0.6533(17) -0.1016(14) -0.5411(11)
H8 H 0.5900 -0.1624 -0.6262
N3 N 0.1487(18) -0.6001(13) -0.4638(13)
H9 H 0.0887 -0.6675 -0.5367
H10 H 0.1397 -0.6064 -0.3920
C10 C 0.2728(16) -0.4730(13) -0.5764(11)
H11 H 0.2057 -0.5421 -0.6571
In1A In 1.20135(10) 0.56772(7) -0.01257(7)
In2A In 0.35031(9) 0.09463(7) 0.15017(6)
In2A_2 In 1.35031(9) 0.09463(7) 0.15017(6)
F2A F 0.9767(8) 0.3884(6) -0.0995(5)
O6A O 0.5352(9) -0.2000(7) -0.0461(6)
O9A O 0.8427(9) -0.2174(7) -0.1419(7)
loop_
_geom_bond_atom_site_label_1
_geom_bond_atom_site_label_2
_geom_bond_site_symmetry_1
_geom_bond_site_symmetry_2
In1 O1 1_555 1_555
In2 O4 1_555 1_555
P1 O1 1_555 1_555
P2 O3 1_555 1_555
O2 In1 1_555 1_555
F1 In1 1_555 1_555
F2 In1 1_555 1_555
O3 In1 1_555 1_555
O4 P1 1_555 1_555
O5 In2 1_555 1_555
O6 P2 1_555 1_555
O7 P2 1_555 1_555
H1 O7 1_555 1_555
O8 P1 1_555 1_555
H2 O8 1_555 1_555
O9 P1 1_555 1_555
N1 In2 1_555 1_555
N2 In2 1_555 1_555
C1 N1 1_555 1_555
H3 C1 1_555 1_555
C2 N2 1_555 1_555
C3 H4 1_555 1_555
C4 C1 1_555 1_555
C5 N1 1_555 1_555
C6 N2 1_555 1_555
H5 C6 1_555 1_555
C7 C6 1_555 1_555
H6 C7 1_555 1_555
C8 C7 1_555 1_555
H7 C8 1_555 1_555
C9 C2 1_555 1_555
H8 C9 1_555 1_555
N3 C4 1_555 1_555
H9 N3 1_555 1_555
H10 N3 1_555 1_555
C10 C3 1_555 1_555
H11 C10 1_555 1_555
In1A F2 1_555 1_555
In2A O6 1_555 1_555
In2A_2 O9 1_555 1_555
F2A In1 1_555 1_555
O6A In2 1_555 1_555
O9A In2 1_555 1_555
P2 O5 1_555 1_555
C2 C5 1_555 1_555
C3 C5 1_555 1_555
C4 C10 1_555 1_555
C8 C9 1_555 1_555
In1A F2A 1_555 1_555

#END
