
#######################################################################
#
#                 Cambridge Crystallographic Data Centre
#                                CCDC 
#
#######################################################################
#
# If this CIF has been generated from an entry in the Cambridge 
# Structural Database, then it will include bibliographic, chemical, 
# crystal, experimental, refinement or atomic coordinate data resulting 
# from the CCDC's data processing and validation procedures.
#
#######################################################################

data_QEPNEE
_symmetry_cell_setting           monoclinic
_symmetry_space_group_name_H-M   'P 21'
_symmetry_Int_Tables_number      4
_space_group_name_Hall           'P 2yb'
loop_
_symmetry_equiv_pos_site_id
_symmetry_equiv_pos_as_xyz
1 x,y,z
2 -x,1/2+y,-z
_cell_length_a                   19.517(2)
_cell_length_b                   14.080(1)
_cell_length_c                   23.918(2)
_cell_angle_alpha                90
_cell_angle_beta                 106.04(1)
_cell_angle_gamma                90
_cell_volume                     6316.77
loop_
_atom_site_label
_atom_site_type_symbol
_atom_site_fract_x
_atom_site_fract_y
_atom_site_fract_z
Rh1 Rh 0.81026(7) 0.1892(2) 0.27953(5)
Rh2 Rh 0.69274(7) 0.1685(2) 0.21751(5)
O1 O 0.8254(5) 0.2885(7) 0.2229(4)
O2 O 0.7161(5) 0.2649(7) 0.1648(4)
C1 C 0.7796(8) 0.3098(10) 0.1810(6)
C2 C 0.7883(9) 0.3899(11) 0.1354(6)
O3 O 0.7712(6) 0.2997(8) 0.3206(4)
O4 O 0.6607(6) 0.2763(8) 0.2602(5)
C3 C 0.7065(10) 0.3170(12) 0.3003(7)
C4 C 0.6871(10) 0.4104(12) 0.3321(7)
O5 O 0.7878(7) 0.0918(8) 0.3346(5)
O6 O 0.6763(6) 0.0671(7) 0.2729(5)
C5 C 0.7328(13) 0.0486(14) 0.3187(9)
C6 C 0.7140(9) -0.0247(12) 0.3603(6)
O7 O 0.8428(5) 0.0873(7) 0.2324(4)
O8 O 0.7314(5) 0.0664(7) 0.1761(4)
C7 C 0.7985(8) 0.0492(10) 0.1907(6)
C8 C 0.8265(7) -0.0238(9) 0.1528(6)
F1 F 0.8506(6) 0.4852(8) 0.2187(4)
F2 F 0.9126(5) 0.3905(7) 0.1775(4)
F3 F 0.8650(6) 0.5139(9) 0.1314(5)
O9 O 0.7324(7) 0.4588(9) 0.1345(5)
C9 C 0.8570(9) 0.4484(11) 0.1698(6)
C10 C 0.6690(9) 0.4348(12) 0.1033(7)
H1 H 0.6357(9) 0.4842(12) 0.1052(7)
H2 H 0.6549(9) 0.3768(12) 0.1180(7)
H3 H 0.6695(9) 0.4259(12) 0.0636(7)
C11 C 0.7959(6) 0.3392(11) 0.0825(4)
C12 C 0.8191(7) 0.2465(10) 0.0795(5)
H4 H 0.8279(10) 0.2074(14) 0.1120(7)
C13 C 0.8292(7) 0.2124(8) 0.0278(7)
H5 H 0.8448(10) 0.1503(9) 0.0258(10)
C14 C 0.8161(7) 0.2709(12) -0.0208(5)
H6 H 0.8229(10) 0.2480(17) -0.0554(6)
C15 C 0.7929(7) 0.3636(11) -0.0177(5)
H7 H 0.7842(11) 0.4027(15) -0.0503(6)
C16 C 0.7828(7) 0.3977(8) 0.0339(6)
H8 H 0.7673(10) 0.4598(9) 0.0360(10)
F4 F 0.7837(7) 0.4979(10) 0.3299(6)
F5 F 0.7120(11) 0.5471(15) 0.3855(9)
F6 F 0.7855(10) 0.4288(13) 0.4070(7)
O10 O 0.6453(9) 0.3714(13) 0.3663(7)
C17 C 0.7447(11) 0.4787(16) 0.3641(9)
C18 C 0.6684(15) 0.2833(19) 0.4019(11)
H9 H 0.6337(15) 0.2674(19) 0.4220(11)
H10 H 0.7137(15) 0.2944(19) 0.4297(11)
H11 H 0.6727(15) 0.2318(19) 0.3768(11)
C19 C 0.6299(8) 0.4629(10) 0.2830(5)
C20 C 0.6544(6) 0.5182(12) 0.2444(7)
H12 H 0.7028(7) 0.5193(17) 0.2468(10)
C21 C 0.6068(10) 0.5720(10) 0.2024(6)
H13 H 0.6232(14) 0.6090(14) 0.1766(8)
C22 C 0.5345(9) 0.5704(10) 0.1990(6)
H14 H 0.5026(12) 0.6063(14) 0.1709(8)
C23 C 0.5099(6) 0.5150(12) 0.2375(7)
H15 H 0.4616(6) 0.5139(17) 0.2352(11)
C24 C 0.5576(9) 0.4613(10) 0.2795(6)
H16 H 0.5412(13) 0.4242(14) 0.3053(8)
C25 C 0.7478(7) 0.0023(10) 0.4249(4)
F7 F 0.8125(7) 0.0362(10) 0.4312(4)
F8 F 0.7514(7) -0.0739(10) 0.4578(4)
F9 F 0.7082(7) 0.0674(10) 0.4406(4)
O11 O 0.7547(9) -0.1005(11) 0.3450(7)
C26 C 0.8115(16) -0.1190(22) 0.3932(12)
H17 H 0.8399(16) -0.1695(22) 0.3844(12)
H18 H 0.7937(16) -0.1374(22) 0.4253(12)
H19 H 0.8402(16) -0.0629(22) 0.4035(12)
C27 C 0.6487(6) -0.0594(11) 0.3504(6)
C28 C 0.6224(8) -0.1315(10) 0.3105(6)
H20 H 0.6524(11) -0.1617(15) 0.2920(8)
C29 C 0.5513(9) -0.1583(9) 0.2983(5)
H21 H 0.5337(13) -0.2065(12) 0.2716(7)
C30 C 0.5064(6) -0.1131(12) 0.3260(7)
H22 H 0.4588(7) -0.1310(17) 0.3178(10)
C31 C 0.5326(8) -0.0410(11) 0.3659(6)
H23 H 0.5026(11) -0.0107(15) 0.3844(9)
C32 C 0.6038(9) -0.0142(9) 0.3780(5)
H24 H 0.6214(13) 0.0341(11) 0.4047(7)
F10 F 0.9394(5) -0.0447(6) 0.2201(4)
F11 F 0.9282(5) 0.0696(7) 0.1596(4)
F12 F 0.9285(5) -0.0777(7) 0.1314(4)
O12 O 0.8042(6) 0.0046(8) 0.0963(4)
C33 C 0.9086(7) -0.0161(8) 0.1665(5)
C34 C 0.7328(9) -0.0068(13) 0.0672(7)
H25 H 0.7242(9) 0.0159(13) 0.0280(7)
H26 H 0.7043(9) 0.0287(13) 0.0868(7)
H27 H 0.7204(9) -0.0728(13) 0.0666(7)
C35 C 0.8045(6) -0.1201(7) 0.1650(6)
C36 C 0.8063(7) -0.1858(11) 0.1221(5)
H28 H 0.8205(10) -0.1670(15) 0.0897(6)
C37 C 0.7869(7) -0.2796(9) 0.1275(6)
H29 H 0.7880(11) -0.3236(13) 0.0988(7)
C38 C 0.7656(7) -0.3077(7) 0.1759(7)
H30 H 0.7526(10) -0.3704(8) 0.1796(10)
C39 C 0.7639(7) -0.2420(11) 0.2189(5)
H31 H 0.7497(10) -0.2608(16) 0.2512(7)
C40 C 0.7833(7) -0.1482(10) 0.2134(5)
H32 H 0.7821(11) -0.1042(13) 0.2421(7)
O13 O 0.5835(5) 0.1430(8) 0.1587(4)
O14 O 0.4041(5) 0.3126(7) 0.2020(4)
N1 N 0.4953(6) 0.2311(9) 0.1786(5)
N2 N 0.4297(6) 0.3492(9) 0.1175(4)
N3 N 0.4604(6) 0.3739(8) 0.0272(5)
N4 N 0.5200(6) 0.3410(10) -0.0462(5)
N5 N 0.5447(6) 0.2559(8) 0.0421(4)
C41 C 0.4378(9) 0.2984(12) 0.1658(7)
C42 C 0.4688(7) 0.3311(11) 0.0779(6)
C43 C 0.5198(7) 0.2626(10) 0.0913(6)
C44 C 0.5375(8) 0.2100(10) 0.1441(6)
C45 C 0.5123(8) 0.3292(12) 0.0062(6)
C46 C 0.6041(7) 0.1964(10) 0.0335(5)
H33 H 0.6499(7) 0.2235(10) 0.0540(5)
H34 H 0.6013(7) 0.1324(10) 0.0477(5)
C47 C 0.5955(8) 0.1955(11) -0.0297(5)
H35 H 0.5538(8) 0.1580(11) -0.0486(5)
H36 H 0.6367(8) 0.1653(11) -0.0372(5)
C48 C 0.5871(9) 0.2945(11) -0.0558(7)
H37 H 0.5829(9) 0.2907(11) -0.0971(7)
H38 H 0.6288(9) 0.3324(11) -0.0376(7)
C49 C 0.5001(7) 0.1763(11) 0.2317(5)
H39 H 0.4665(7) 0.2008(11) 0.2508(5)
H40 H 0.5475(7) 0.1815(11) 0.2573(5)
H41 H 0.4895(7) 0.1108(11) 0.2219(5)
C50 C 0.3732(9) 0.4160(12) 0.0967(7)
H42 H 0.3776(9) 0.4443(12) 0.0613(7)
H43 H 0.3760(9) 0.4645(12) 0.1254(7)
H44 H 0.3282(9) 0.3839(12) 0.0893(7)
C51 C 0.4590(10) 0.4021(14) -0.1459(7)
H45 H 0.4250(10) 0.3518(14) -0.1484(7)
H46 H 0.4956(10) 0.3815(14) -0.1630(7)
H47 H 0.4354(10) 0.4568(14) -0.1663(7)
C52 C 0.4944(8) 0.4289(11) -0.0784(6)
H48 H 0.4551(8) 0.4516(11) -0.0638(6)
C53 C 0.5486(6) 0.5055(8) -0.0655(6)
C54 C 0.5905(8) 0.5237(10) -0.1029(5)
H49 H 0.5836(12) 0.4889(14) -0.1370(6)
C55 C 0.6426(7) 0.5937(11) -0.0891(6)
H50 H 0.6706(10) 0.6059(16) -0.1141(8)
C56 C 0.6529(7) 0.6457(9) -0.0380(7)
H51 H 0.6878(9) 0.6925(12) -0.0288(10)
C57 C 0.6111(8) 0.6275(9) -0.0007(5)
H52 H 0.6180(11) 0.6622(13) 0.0335(6)
C58 C 0.5589(7) 0.5575(10) -0.0144(5)
H53 H 0.5310(9) 0.5453(14) 0.0105(7)
Rh3 Rh 1.20459(7) 0.3429(2) 0.26917(6)
Rh4 Rh 0.30478(7) 0.3275(2) 0.23156(6)
O15 O 1.2001(5) 0.4821(7) 0.2480(4)
O16 O 1.2985(5) 0.4674(7) 0.2169(4)
C59 C 1.2483(8) 0.5130(9) 0.2255(5)
C60 C 1.2414(8) 0.6259(9) 0.2131(6)
O17 O 1.2730(5) 0.3710(7) 0.3471(4)
O18 O 1.3654(5) 0.3490(7) 0.3137(4)
C61 C 1.3376(8) 0.3718(10) 0.3535(6)
C62 C 1.3882(8) 0.4045(11) 0.4145(6)
O19 O 1.2141(5) 0.2027(7) 0.2896(4)
O20 O 1.3026(5) 0.1855(8) 0.2480(4)
C63 C 1.2589(9) 0.1515(11) 0.2715(6)
C64 C 1.2519(11) 0.0412(12) 0.2874(9)
O21 O 1.1418(5) 0.3127(7) 0.1890(4)
O22 O 1.2358(5) 0.3074(7) 0.1524(4)
C65 C 1.1687(8) 0.3055(10) 0.1450(6)
C66 C 1.1129(7) 0.2970(10) 0.0838(5)
F13 F 1.2873(6) 0.7447(8) 0.1646(4)
F14 F 1.3628(6) 0.6387(7) 0.2018(4)
F15 F 1.2776(5) 0.6078(7) 0.1263(4)
O23 O 1.2722(4) 0.6674(8) 0.2634(4)
C67 C 1.2940(7) 0.6505(9) 0.1777(5)
C68 C 1.2361(10) 0.6658(15) 0.3075(7)
H54 H 1.2643(10) 0.6982(15) 0.3414(7)
H55 H 1.2289(10) 0.6011(15) 0.3173(7)
H56 H 1.1908(10) 0.6969(15) 0.2936(7)
C69 C 1.1670(5) 0.6498(10) 0.1811(4)
C70 C 1.1166(8) 0.5895(8) 0.1461(6)
H57 H 1.1280(11) 0.5264(8) 0.1416(9)
C71 C 1.0490(7) 0.6236(12) 0.1180(5)
H58 H 1.0153(9) 0.5833(16) 0.0946(8)
C72 C 1.0318(5) 0.7179(13) 0.1248(5)
H59 H 0.9866(6) 0.7407(18) 0.1059(8)
C73 C 1.0822(8) 0.7781(9) 0.1597(6)
H60 H 1.0707(12) 0.8412(10) 0.1643(9)
C74 C 1.1498(7) 0.7441(9) 0.1879(5)
H61 H 1.1835(9) 0.7844(12) 0.2113(7)
F16 F 1.4528(7) 0.2589(9) 0.4162(5)
F17 F 1.4996(6) 0.3831(8) 0.3926(5)
F18 F 1.4966(6) 0.3693(8) 0.4798(4)
O24 O 1.3554(5) 0.3833(8) 0.4572(4)
C75 C 1.4586(7) 0.3515(9) 0.4247(5)
C76 C 1.3331(10) 0.2915(13) 0.4647(8)
H62 H 1.3116(10) 0.2907(13) 0.4963(8)
H63 H 1.3734(10) 0.2495(13) 0.4734(8)
H64 H 1.2989(10) 0.2710(13) 0.4297(8)
C77 C 1.3969(7) 0.5135(8) 0.4113(7)
C78 C 1.4153(7) 0.5567(11) 0.3652(5)
H65 H 1.4191(11) 0.5206(15) 0.3337(7)
C79 C 1.4279(7) 0.6540(12) 0.3663(6)
H66 H 1.4402(10) 0.6829(16) 0.3355(7)
C80 C 1.4222(7) 0.7080(8) 0.4134(7)
H67 H 1.4306(10) 0.7730(8) 0.4142(11)
C81 C 1.4038(7) 0.6647(11) 0.4595(6)
H68 H 1.4000(10) 0.7009(15) 0.4911(7)
C82 C 1.3912(7) 0.5675(12) 0.4584(5)
H69 H 1.3789(10) 0.5386(16) 0.4893(7)
F19 F 1.2862(7) 0.0064(10) 0.1946(6)
F20 F 1.3717(6) 0.0159(8) 0.2700(4)
F21 F 1.3012(7) -0.1010(10) 0.2624(6)
O25 O 1.2025(15) 0.0099(18) 0.2413(11)
C83 C 1.3025(8) -0.0053(11) 0.2520(6)
C84 C 1.1425(11) 0.0326(15) 0.2587(9)
H70 H 1.1006(11) 0.0138(15) 0.2290(9)
H71 H 1.1413(11) 0.0999(15) 0.2649(9)
H72 H 1.1440(11) -0.0002(15) 0.2942(9)
C85 C 1.2901(9) 0.0238(11) 0.3413(5)
C86 C 1.3457(8) 0.0709(10) 0.3805(7)
H73 H 1.3707(11) 0.1183(12) 0.3675(11)
C87 C 1.3640(7) 0.0470(11) 0.4392(7)
H74 H 1.4012(9) 0.0785(16) 0.4654(9)
C88 C 1.3267(9) -0.0239(12) 0.4587(5)
H75 H 1.3389(13) -0.0399(17) 0.4979(5)
C89 C 1.2711(8) -0.0710(10) 0.4195(7)
H76 H 1.2461(12) -0.1184(12) 0.4325(11)
C90 C 1.2528(7) -0.0471(11) 0.3608(7)
H77 H 1.2156(9) -0.0786(15) 0.3346(9)
F22 F 1.2073(5) 0.2736(7) 0.0354(4)
F23 F 1.1041(5) 0.3263(8) -0.0130(4)
F24 F 1.1773(5) 0.4162(7) 0.0503(3)
O26 O 1.0629(6) 0.3636(7) 0.0781(4)
C91 C 1.1537(6) 0.3301(9) 0.0380(5)
C92 C 1.0104(8) 0.3566(12) 0.1095(7)
H78 H 0.9788(8) 0.4101(12) 0.1004(7)
H79 H 1.0336(8) 0.3558(12) 0.1505(7)
H80 H 0.9836(8) 0.2990(12) 0.0987(7)
C93 C 1.0961(7) 0.1948(8) 0.0757(5)
C94 C 1.1411(6) 0.1223(11) 0.1035(5)
H81 H 1.1857(6) 0.1368(16) 0.1282(7)
C95 C 1.1193(8) 0.0282(9) 0.0945(6)
H82 H 1.1494(11) -0.0203(12) 0.1132(9)
C96 C 1.0526(9) 0.0066(8) 0.0577(7)
H83 H 1.0380(13) -0.0564(9) 0.0517(9)
C97 C 1.0076(6) 0.0791(12) 0.0298(5)
H84 H 0.9630(8) 0.0646(17) 0.0051(8)
C98 C 1.0294(7) 0.1732(10) 0.0388(5)
H85 H 0.9993(9) 0.2217(13) 0.0202(7)
O27 O 1.1059(6) 0.3618(8) 0.3034(4)
O28 O 0.9229(5) 0.1982(7) 0.3381(4)
N6 N 1.0150(6) 0.2819(8) 0.3208(4)
N7 N 1.0794(7) 0.3937(9) 0.3854(5)
N8 N 1.0383(7) 0.4246(9) 0.4720(5)
N9 N 0.9714(7) 0.3973(10) 0.5389(6)
N10 N 0.9475(5) 0.3109(8) 0.4483(4)
C99 C 1.0665(8) 0.3484(12) 0.3337(6)
C100 C 1.0339(8) 0.3779(10) 0.4196(6)
C101 C 0.9804(7) 0.3156(10) 0.4038(5)
C102 C 0.9697(8) 0.2580(11) 0.3519(6)
C103 C 0.9864(8) 0.3770(10) 0.4875(6)
C104 C 0.8911(8) 0.2548(10) 0.4563(6)
H86 H 0.8967(8) 0.1902(10) 0.4442(6)
H87 H 0.8463(8) 0.2790(10) 0.4317(6)
C105 C 0.8879(10) 0.2540(12) 0.5175(7)
H88 H 0.9216(10) 0.2079(12) 0.5396(7)
H89 H 0.8405(10) 0.2357(12) 0.5189(7)
C106 C 0.9054(10) 0.3500(15) 0.5434(8)
H90 H 0.8657(10) 0.3916(15) 0.5257(8)
H91 H 0.9079(10) 0.3455(15) 0.5844(8)
C107 C 1.0037(9) 0.2326(12) 0.2634(6)
H92 H 0.9660(9) 0.1870(12) 0.2587(6)
H93 H 1.0468(9) 0.2009(12) 0.2623(6)
H94 H 0.9910(9) 0.2785(12) 0.2326(6)
C108 C 1.1319(9) 0.4609(12) 0.4033(7)
H95 H 1.1320(9) 0.4839(12) 0.4411(7)
H96 H 1.1231(9) 0.5127(12) 0.3762(7)
H97 H 1.1774(9) 0.4331(12) 0.4052(7)
C109 C 1.0248(10) 0.4535(14) 0.6350(7)
H98 H 1.0569(10) 0.4009(14) 0.6380(7)
H99 H 0.9860(10) 0.4353(14) 0.6501(7)
H100 H 1.0496(10) 0.5063(14) 0.6569(7)
C110 C 0.9961(8) 0.4816(11) 0.5721(6)
H101 H 1.0383(8) 0.5011(11) 0.5603(6)
C111 C 0.9468(6) 0.5581(7) 0.5543(5)
C112 C 0.9047(6) 0.5824(8) 0.5905(4)
H102 H 0.9093(9) 0.5493(11) 0.6250(5)
C113 C 0.8558(6) 0.6562(9) 0.5751(5)
H103 H 0.8276(8) 0.6725(13) 0.5992(6)
C114 C 0.8490(6) 0.7057(8) 0.5235(5)
H104 H 0.8162(8) 0.7550(10) 0.5132(7)
C115 C 0.8911(7) 0.6813(9) 0.4874(4)
H105 H 0.8865(10) 0.7144(12) 0.4529(5)
C116 C 0.9400(6) 0.6076(9) 0.5028(5)
H106 H 0.9682(8) 0.5913(13) 0.4786(6)
Rh4_2 Rh 1.30478(7) 0.3275(2) 0.23156(6)
Rh3_2 Rh 0.20459(7) 0.3429(2) 0.26917(6)
O16_2 O 0.2985(5) 0.4674(7) 0.2169(4)
O18_2 O 0.3654(5) 0.3490(7) 0.3137(4)
O20_2 O 0.3026(5) 0.1855(8) 0.2480(4)
O22_2 O 0.2358(5) 0.3074(7) 0.1524(4)
C117 C -0.0214(8) 0.6653(10) 0.2780(7)
H107 H -0.0604(8) 0.6883(10) 0.2455(7)
Cl1 Cl 0.0235(13) 0.5651(8) 0.2650(11)
Cl2 Cl -0.0421(8) 0.6424(6) 0.3430(6)
Cl3 Cl 0.0526(6) 0.7452(7) 0.3052(6)
C118? C -0.0431(9) 0.6341(9) 0.2711(7)
H108? H -0.0867(9) 0.6250(9) 0.2393(7)
Cl4? Cl 0.0295(14) 0.5729(7) 0.2612(11)
Cl5? Cl -0.0504(9) 0.5927(5) 0.3381(6)
Cl6? Cl -0.0169(6) 0.7498(6) 0.2811(6)
loop_
_geom_bond_atom_site_label_1
_geom_bond_atom_site_label_2
_geom_bond_site_symmetry_1
_geom_bond_site_symmetry_2
Rh1 Rh2 1_555 1_555
Rh2 O2 1_555 1_555
O1 Rh1 1_555 1_555
O2 C1 1_555 1_555
C1 O1 1_555 1_555
C2 C1 1_555 1_555
O3 Rh1 1_555 1_555
O4 Rh2 1_555 1_555
C3 O3 1_555 1_555
C4 C3 1_555 1_555
O5 Rh1 1_555 1_555
O6 Rh2 1_555 1_555
C5 O5 1_555 1_555
C6 C5 1_555 1_555
O7 Rh1 1_555 1_555
O8 Rh2 1_555 1_555
C7 O7 1_555 1_555
C8 C7 1_555 1_555
F1 C9 1_555 1_555
F2 C9 1_555 1_555
F3 C9 1_555 1_555
O9 C2 1_555 1_555
C9 C2 1_555 1_555
C10 O9 1_555 1_555
H1 C10 1_555 1_555
H2 C10 1_555 1_555
H3 C10 1_555 1_555
C11 C2 1_555 1_555
C12 C11 1_555 1_555
H4 C12 1_555 1_555
C13 C12 1_555 1_555
H5 C13 1_555 1_555
C14 C13 1_555 1_555
H6 C14 1_555 1_555
C15 C14 1_555 1_555
H7 C15 1_555 1_555
C16 C11 1_555 1_555
H8 C16 1_555 1_555
F4 C17 1_555 1_555
F5 C17 1_555 1_555
F6 C17 1_555 1_555
O10 C4 1_555 1_555
C17 C4 1_555 1_555
C18 O10 1_555 1_555
H9 C18 1_555 1_555
H10 C18 1_555 1_555
H11 C18 1_555 1_555
C19 C4 1_555 1_555
C20 C19 1_555 1_555
H12 C20 1_555 1_555
C21 C20 1_555 1_555
H13 C21 1_555 1_555
C22 C21 1_555 1_555
H14 C22 1_555 1_555
C23 C22 1_555 1_555
H15 C23 1_555 1_555
C24 C19 1_555 1_555
H16 C24 1_555 1_555
C25 C6 1_555 1_555
F7 C25 1_555 1_555
F8 C25 1_555 1_555
F9 C25 1_555 1_555
O11 C6 1_555 1_555
C26 O11 1_555 1_555
H17 C26 1_555 1_555
H18 C26 1_555 1_555
H19 C26 1_555 1_555
C27 C6 1_555 1_555
C28 C27 1_555 1_555
H20 C28 1_555 1_555
C29 C28 1_555 1_555
H21 C29 1_555 1_555
C30 C29 1_555 1_555
H22 C30 1_555 1_555
C31 C30 1_555 1_555
H23 C31 1_555 1_555
C32 C27 1_555 1_555
H24 C32 1_555 1_555
F10 C33 1_555 1_555
F11 C33 1_555 1_555
F12 C33 1_555 1_555
O12 C8 1_555 1_555
C33 C8 1_555 1_555
C34 O12 1_555 1_555
H25 C34 1_555 1_555
H26 C34 1_555 1_555
H27 C34 1_555 1_555
C35 C8 1_555 1_555
C36 C35 1_555 1_555
H28 C36 1_555 1_555
C37 C36 1_555 1_555
H29 C37 1_555 1_555
C38 C37 1_555 1_555
H30 C38 1_555 1_555
C39 C38 1_555 1_555
H31 C39 1_555 1_555
C40 C35 1_555 1_555
H32 C40 1_555 1_555
O13 Rh2 1_555 1_555
O14 C41 1_555 1_555
N1 C41 1_555 1_555
N2 C41 1_555 1_555
N3 C42 1_555 1_555
N4 C45 1_555 1_555
N5 C43 1_555 1_555
C42 N2 1_555 1_555
C43 C42 1_555 1_555
C44 O13 1_555 1_555
C45 N3 1_555 1_555
C46 N5 1_555 1_555
H33 C46 1_555 1_555
H34 C46 1_555 1_555
C47 C46 1_555 1_555
H35 C47 1_555 1_555
H36 C47 1_555 1_555
C48 N4 1_555 1_555
H37 C48 1_555 1_555
H38 C48 1_555 1_555
C49 N1 1_555 1_555
H39 C49 1_555 1_555
H40 C49 1_555 1_555
H41 C49 1_555 1_555
C50 N2 1_555 1_555
H42 C50 1_555 1_555
H43 C50 1_555 1_555
H44 C50 1_555 1_555
C51 H45 1_555 1_555
H46 C51 1_555 1_555
H47 C51 1_555 1_555
C52 N4 1_555 1_555
H48 C52 1_555 1_555
C53 C52 1_555 1_555
C54 C53 1_555 1_555
H49 C54 1_555 1_555
C55 C54 1_555 1_555
H50 C55 1_555 1_555
C56 C55 1_555 1_555
H51 C56 1_555 1_555
C57 C56 1_555 1_555
H52 C57 1_555 1_555
C58 C53 1_555 1_555
H53 C58 1_555 1_555
Rh3 O15 1_555 1_555
Rh4 O14 1_555 1_555
O15 C59 1_555 1_555
O16 C59 1_555 1_555
C59 C60 1_555 1_555
C60 O23 1_555 1_555
O17 Rh3 1_555 1_555
O18 C61 1_555 1_555
C61 O17 1_555 1_555
C62 C61 1_555 1_555
O19 Rh3 1_555 1_555
O20 C63 1_555 1_555
C63 O19 1_555 1_555
C64 C63 1_555 1_555
O21 Rh3 1_555 1_555
O22 C65 1_555 1_555
C65 O21 1_555 1_555
C66 C65 1_555 1_555
F13 C67 1_555 1_555
F14 C67 1_555 1_555
F15 C67 1_555 1_555
O23 C68 1_555 1_555
C67 C60 1_555 1_555
C68 H54 1_555 1_555
H55 C68 1_555 1_555
H56 C68 1_555 1_555
C69 C60 1_555 1_555
C70 C69 1_555 1_555
H57 C70 1_555 1_555
C71 C70 1_555 1_555
H58 C71 1_555 1_555
C72 C71 1_555 1_555
H59 C72 1_555 1_555
C73 C72 1_555 1_555
H60 C73 1_555 1_555
C74 C69 1_555 1_555
H61 C74 1_555 1_555
F16 C75 1_555 1_555
F17 C75 1_555 1_555
F18 C75 1_555 1_555
O24 C62 1_555 1_555
C75 C62 1_555 1_555
C76 O24 1_555 1_555
H62 C76 1_555 1_555
H63 C76 1_555 1_555
H64 C76 1_555 1_555
C77 C62 1_555 1_555
C78 C77 1_555 1_555
H65 C78 1_555 1_555
C79 C78 1_555 1_555
H66 C79 1_555 1_555
C80 C79 1_555 1_555
H67 C80 1_555 1_555
C81 C80 1_555 1_555
H68 C81 1_555 1_555
C82 C77 1_555 1_555
H69 C82 1_555 1_555
F19 C83 1_555 1_555
F20 C83 1_555 1_555
F21 C83 1_555 1_555
O25 C64 1_555 1_555
C83 C64 1_555 1_555
C84 O25 1_555 1_555
H70 C84 1_555 1_555
H71 C84 1_555 1_555
H72 C84 1_555 1_555
C85 C64 1_555 1_555
C86 C85 1_555 1_555
H73 C86 1_555 1_555
C87 C86 1_555 1_555
H74 C87 1_555 1_555
C88 C87 1_555 1_555
H75 C88 1_555 1_555
C89 C88 1_555 1_555
H76 C89 1_555 1_555
C90 C85 1_555 1_555
H77 C90 1_555 1_555
F22 C91 1_555 1_555
F23 C91 1_555 1_555
F24 C91 1_555 1_555
O26 C66 1_555 1_555
C91 C66 1_555 1_555
C92 O26 1_555 1_555
H78 C92 1_555 1_555
H79 C92 1_555 1_555
H80 C92 1_555 1_555
C93 C66 1_555 1_555
C94 C93 1_555 1_555
H81 C94 1_555 1_555
C95 C94 1_555 1_555
H82 C95 1_555 1_555
C96 C95 1_555 1_555
H83 C96 1_555 1_555
C97 C96 1_555 1_555
H84 C97 1_555 1_555
C98 C93 1_555 1_555
H85 C98 1_555 1_555
O27 Rh3 1_555 1_555
O28 Rh1 1_555 1_555
N6 C99 1_555 1_555
N7 C99 1_555 1_555
N8 C100 1_555 1_555
N9 C103 1_555 1_555
N10 C101 1_555 1_555
C99 O27 1_555 1_555
C100 N7 1_555 1_555
C101 C100 1_555 1_555
C102 O28 1_555 1_555
C103 N8 1_555 1_555
C104 N10 1_555 1_555
H86 C104 1_555 1_555
H87 C104 1_555 1_555
C105 C104 1_555 1_555
H88 C105 1_555 1_555
H89 C105 1_555 1_555
C106 N9 1_555 1_555
H90 C106 1_555 1_555
H91 C106 1_555 1_555
C107 N6 1_555 1_555
H92 C107 1_555 1_555
H93 C107 1_555 1_555
H94 C107 1_555 1_555
C108 N7 1_555 1_555
H95 C108 1_555 1_555
H96 C108 1_555 1_555
H97 C108 1_555 1_555
C109 H98 1_555 1_555
H99 C109 1_555 1_555
H100 C109 1_555 1_555
C110 N9 1_555 1_555
H101 C110 1_555 1_555
C111 C110 1_555 1_555
C112 C111 1_555 1_555
H102 C112 1_555 1_555
C113 C112 1_555 1_555
H103 C113 1_555 1_555
C114 C113 1_555 1_555
H104 C114 1_555 1_555
C115 C114 1_555 1_555
H105 C115 1_555 1_555
C116 C111 1_555 1_555
H106 C116 1_555 1_555
C117 H107 1_555 1_555
Cl1 C117 1_555 1_555
Cl2 C117 1_555 1_555
Cl3 C117 1_555 1_555
Rh4_2 Rh3 1_555 1_555
Rh3_2 Rh4 1_555 1_555
O16_2 Rh4 1_555 1_555
O18_2 Rh4 1_555 1_555
O20_2 Rh4 1_555 1_555
O22_2 Rh4 1_555 1_555
O4 C3 1_555 1_555
O6 C5 1_555 1_555
O8 C7 1_555 1_555
C15 C16 1_555 1_555
C23 C24 1_555 1_555
C31 C32 1_555 1_555
C39 C40 1_555 1_555
N1 C44 1_555 1_555
N5 C45 1_555 1_555
C43 C44 1_555 1_555
C47 C48 1_555 1_555
C51 C52 1_555 1_555
C57 C58 1_555 1_555
O16 Rh4_2 1_555 1_555
O18 Rh4_2 1_555 1_555
O20 Rh4_2 1_555 1_555
O22 Rh4_2 1_555 1_555
C73 C74 1_555 1_555
C81 C82 1_555 1_555
C89 C90 1_555 1_555
C97 C98 1_555 1_555
N6 C102 1_555 1_555
N10 C103 1_555 1_555
C101 C102 1_555 1_555
C105 C106 1_555 1_555
C109 C110 1_555 1_555
C115 C116 1_555 1_555

#END
