
#######################################################################
#
#                 Cambridge Crystallographic Data Centre
#                                CCDC 
#
#######################################################################
#
# If this CIF has been generated from an entry in the Cambridge 
# Structural Database, then it will include bibliographic, chemical, 
# crystal, experimental, refinement or atomic coordinate data resulting 
# from the CCDC's data processing and validation procedures.
#
#######################################################################

data_QEPQAF
_symmetry_cell_setting           orthorhombic
_symmetry_space_group_name_H-M   'P 21 21 21'
_symmetry_Int_Tables_number      19
_space_group_name_Hall           'P 2ac 2ab'
loop_
_symmetry_equiv_pos_site_id
_symmetry_equiv_pos_as_xyz
1 x,y,z
2 1/2-x,-y,1/2+z
3 -x,1/2+y,1/2-z
4 1/2+x,1/2-y,-z
_cell_length_a                   9.959(2)
_cell_length_b                   13.432(3)
_cell_length_c                   21.049(4)
_cell_angle_alpha                90
_cell_angle_beta                 90
_cell_angle_gamma                90
_cell_volume                     2815.71
loop_
_atom_site_label
_atom_site_type_symbol
_atom_site_fract_x
_atom_site_fract_y
_atom_site_fract_z
Al1 Al 0.34779(9) -0.00088(7) 0.40719(4)
O1 O 0.3177(2) -0.10297(17) 0.36115(11)
O2 O 0.2531(2) -0.01602(16) 0.47708(10)
O3 O 0.5148(2) 0.02403(17) 0.41388(11)
O4 O 0.2511(2) 0.10427(16) 0.38340(11)
C1 C 0.2358(3) -0.1784(2) 0.34357(16)
C2 C 0.0946(4) -0.1678(3) 0.37442(16)
C3 C 0.2965(4) -0.2793(3) 0.36415(19)
C4 C 0.2190(4) -0.1758(3) 0.26969(17)
C5 C 0.2483(3) 0.0053(2) 0.54072(15)
C6 C 0.1114(4) -0.0353(3) 0.56593(17)
C7 C 0.3655(4) -0.0440(3) 0.57766(17)
C8 C 0.2514(4) 0.1199(3) 0.54856(17)
C9 C 0.6409(3) -0.0106(2) 0.40240(15)
C10 C 0.6797(4) -0.0931(3) 0.4506(2)
C11 C 0.6534(4) -0.0541(4) 0.3338(2)
C12 C 0.7367(4) 0.0788(3) 0.4096(2)
C13 C 0.2487(3) 0.1835(2) 0.34245(15)
C14 C 0.2155(4) 0.1458(3) 0.27442(16)
C15 C 0.1350(4) 0.2543(3) 0.36554(17)
C16 C 0.3839(4) 0.2414(3) 0.34217(17)
F1 F 0.0579(2) -0.06918(15) 0.37436(10)
F2 F 0.0945(2) -0.19566(16) 0.43459(10)
F3 F -0.0007(2) -0.21697(16) 0.34389(10)
F4 F 0.1341(2) -0.10403(17) 0.25296(10)
F5 F 0.1716(2) -0.26204(17) 0.24750(11)
F6 F 0.3365(2) -0.15756(18) 0.24234(10)
F7 F 0.3422(2) -0.27339(17) 0.42369(11)
F8 F 0.3999(2) -0.30430(17) 0.32669(12)
F9 F 0.2067(2) -0.35286(16) 0.36172(12)
F10 F 0.1157(3) -0.13375(18) 0.57111(12)
F11 F 0.0148(2) -0.0126(2) 0.52294(11)
F12 F 0.0748(3) 0.0037(2) 0.62072(11)
F13 F 0.4784(2) 0.0055(2) 0.56788(11)
F14 F 0.3404(3) -0.0437(2) 0.63998(10)
F15 F 0.3558(3) 0.15914(16) 0.51880(11)
F16 F 0.2527(3) 0.14985(17) 0.60844(11)
F17 F 0.1399(3) 0.15813(17) 0.52053(12)
F18 F 0.7843(2) -0.14613(16) 0.43196(12)
F19 F 0.5771(2) -0.15317(17) 0.46103(12)
F20 F 0.7099(3) -0.0494(2) 0.50731(12)
F21 F 0.7817(2) -0.05524(18) 0.31442(11)
F22 F 0.6043(3) -0.1479(2) 0.33359(16)
F23 F 0.5831(2) -0.0014(2) 0.29339(10)
F24 F 0.7067(2) 0.13500(17) 0.45837(11)
F25 F 0.2956(2) 0.06925(16) 0.26000(9)
F26 F 0.2312(3) 0.21510(16) 0.23062(10)
F27 F 0.0898(2) 0.11301(16) 0.27230(10)
F28 F 0.0894(2) 0.31397(16) 0.32073(11)
F29 F 0.1762(2) 0.30903(16) 0.41454(11)
F30 F 0.0304(2) 0.19923(16) 0.38687(11)
F31 F 0.4314(2) 0.25078(17) 0.40066(11)
F32 F 0.4751(2) 0.19328(17) 0.30767(11)
F33 F 0.3687(2) 0.33220(15) 0.31771(11)
F34 F 0.7346(3) 0.13604(19) 0.35758(14)
F35 F 0.8665(2) 0.04762(16) 0.41925(12)
F36 F 0.3817(3) -0.13627(19) 0.55922(11)
Li1 Li 0.0827(7) 0.0602(5) 0.4328(3)
F35_2 F -0.1335(2) 0.04762(16) 0.41925(12)
Li1_2 Li 1.0827(7) 0.0602(5) 0.4328(3)
loop_
_geom_bond_atom_site_label_1
_geom_bond_atom_site_label_2
_geom_bond_site_symmetry_1
_geom_bond_site_symmetry_2
Al1 O1 1_555 1_555
O1 C1 1_555 1_555
O2 Al1 1_555 1_555
O3 Al1 1_555 1_555
O4 Al1 1_555 1_555
C1 C2 1_555 1_555
C2 F1 1_555 1_555
C3 C1 1_555 1_555
C4 C1 1_555 1_555
C5 O2 1_555 1_555
C6 C5 1_555 1_555
C7 C5 1_555 1_555
C8 C5 1_555 1_555
C9 O3 1_555 1_555
C10 C9 1_555 1_555
C11 C9 1_555 1_555
C12 C9 1_555 1_555
C13 O4 1_555 1_555
C14 C13 1_555 1_555
C15 C13 1_555 1_555
C16 C13 1_555 1_555
F1 Li1 1_555 1_555
F2 C2 1_555 1_555
F3 C2 1_555 1_555
F4 C4 1_555 1_555
F5 C4 1_555 1_555
F6 C4 1_555 1_555
F7 C3 1_555 1_555
F8 C3 1_555 1_555
F9 C3 1_555 1_555
F10 C6 1_555 1_555
F11 C6 1_555 1_555
F12 C6 1_555 1_555
F13 C7 1_555 1_555
F14 C7 1_555 1_555
F15 C8 1_555 1_555
F16 C8 1_555 1_555
F17 C8 1_555 1_555
F18 C10 1_555 1_555
F19 C10 1_555 1_555
F20 C10 1_555 1_555
F21 C11 1_555 1_555
F22 C11 1_555 1_555
F23 C11 1_555 1_555
F24 C12 1_555 1_555
F25 C14 1_555 1_555
F26 C14 1_555 1_555
F27 C14 1_555 1_555
F28 C15 1_555 1_555
F29 C15 1_555 1_555
F30 C15 1_555 1_555
F31 C16 1_555 1_555
F32 C16 1_555 1_555
F33 C16 1_555 1_555
F34 C12 1_555 1_555
F35 C12 1_555 1_555
F36 C7 1_555 1_555
Li1 O2 1_555 1_555
F35_2 Li1 1_555 1_555
Li1_2 F35 1_555 1_555
O4 Li1 1_555 1_555
F11 Li1 1_555 1_555
F17 Li1 1_555 1_555
F30 Li1 1_555 1_555

#END
