
#######################################################################
#
#                 Cambridge Crystallographic Data Centre
#                                CCDC 
#
#######################################################################
#
# If this CIF has been generated from an entry in the Cambridge 
# Structural Database, then it will include bibliographic, chemical, 
# crystal, experimental, refinement or atomic coordinate data resulting 
# from the CCDC's data processing and validation procedures.
#
#######################################################################

data_QEPQOS
_symmetry_cell_setting           monoclinic
_symmetry_space_group_name_H-M   'C 2/c'
_symmetry_Int_Tables_number      15
_space_group_name_Hall           '-C 2yn'
loop_
_symmetry_equiv_pos_site_id
_symmetry_equiv_pos_as_xyz
1 x,y,z
2 1/2+x,1/2+y,z
3 -x,y,1/2-z
4 1/2-x,1/2+y,1/2-z
5 -x,-y,-z
6 1/2-x,1/2-y,-z
7 x,-y,1/2+z
8 1/2+x,1/2-y,1/2+z
_cell_length_a                   24.629(3)
_cell_length_b                   15.3476(19)
_cell_length_c                   12.1402(16)
_cell_angle_alpha                90
_cell_angle_beta                 113.198(6)
_cell_angle_gamma                90
_cell_volume                     4217.93
loop_
_atom_site_label
_atom_site_type_symbol
_atom_site_fract_x
_atom_site_fract_y
_atom_site_fract_z
Mn1 Mn 1.0000 0.18724(4) 0.2500
O1 O 1.06070(9) 0.26960(12) 0.3201(2)
N1 N 1.05228(11) 0.08949(16) 0.3345(2)
N2 N 1.29790(12) 0.23787(18) 0.8114(2)
N3 N 0.97490(12) 0.20265(18) 0.4193(2)
N4 N 1.08224(14) 0.2815(2) 0.7933(2)
C1 C 1.10290(12) 0.26345(19) 0.4290(2)
C2 C 1.13253(13) 0.3393(2) 0.4866(2)
C3 C 1.17469(13) 0.3362(2) 0.6025(3)
C4 C 1.19053(12) 0.2567(2) 0.6657(2)
C5 C 1.23381(13) 0.2548(2) 0.7942(2)
C6 C 1.31951(14) 0.3075(2) 0.7531(3)
C7 C 1.33430(14) 0.2378(2) 0.9441(2)
C8 C 1.30425(16) 0.1514(2) 0.7612(3)
C9 C 1.16301(13) 0.1814(2) 0.6086(2)
C10 C 1.11965(12) 0.18258(19) 0.4907(2)
C11 C 1.09666(12) 0.09952(19) 0.4358(2)
C12 C 1.03481(12) 0.00095(19) 0.2778(2)
C13 C 1.06021(14) -0.0061(2) 0.1811(2)
C14 C 1.05970(16) -0.0732(2) 0.3679(3)
C15 C 0.99453(13) 0.2553(2) 0.4919(2)
C16 C 1.01806(14) 0.3230(2) 0.5763(2)
C17 C 1.05357(16) 0.2999(2) 0.6967(3)
C18 C 1.00859(13) 0.4119(2) 0.5376(3)
C19 C 1.03070(14) 0.4810(2) 0.6210(3)
C20 C 0.97780(14) 0.4336(2) 0.4148(2)
Mn1F Mn 1.0000 0.81276(4) 0.7500
O1B O 0.93930(9) 0.26960(12) 0.1799(2)
N1B N 0.94772(11) 0.08949(16) 0.1655(2)
N2B N 0.70210(12) 0.23787(18) -0.3114(2)
N3D N 1.02510(12) 0.79735(18) 0.5807(2)
N3B N 1.02510(12) 0.20265(18) 0.0807(2)
N4D N 0.91776(14) 0.7185(2) 0.2067(2)
C1B C 0.89710(12) 0.26345(19) 0.0710(2)
C2B C 0.86747(13) 0.3393(2) 0.0134(2)
C3B C 0.82531(13) 0.3362(2) -0.1025(3)
C4B C 0.80947(12) 0.2567(2) -0.1657(2)
C5B C 0.76619(13) 0.2548(2) -0.2942(2)
C6B C 0.68049(14) 0.3075(2) -0.2531(3)
C7B C 0.66570(14) 0.2378(2) -0.4441(2)
C8B C 0.69575(16) 0.1514(2) -0.2612(3)
C9B C 0.83699(13) 0.1814(2) -0.1086(2)
C10B C 0.88035(12) 0.18258(19) 0.0093(2)
C11B C 0.90334(12) 0.09952(19) 0.0642(2)
C12B C 0.96519(12) 0.00095(19) 0.2222(2)
C13B C 0.93979(14) -0.0061(2) 0.3189(2)
C14B C 0.94030(16) -0.0732(2) 0.1321(3)
C15D C 1.00547(13) 0.7447(2) 0.5081(2)
C16D C 0.98194(14) 0.6770(2) 0.4237(2)
C17D C 0.94643(16) 0.7001(2) 0.3033(3)
C18D C 0.99141(13) 0.5881(2) 0.4624(3)
C19D C 0.96930(14) 0.5190(2) 0.3790(3)
C20D C 1.02220(14) 0.5664(2) 0.5852(2)
Cl1 Cl 1.24188(4) -0.01909(5) 0.51761(10)
O2 O 1.23001(12) 0.06721(18) 0.4730(2)
O3 O 1.2163(2) -0.0816(2) 0.4270(5)
O4 O 1.30366(14) -0.0324(2) 0.5725(5)
O5 O 1.21479(17) -0.0298(2) 0.6036(3)
loop_
_geom_bond_atom_site_label_1
_geom_bond_atom_site_label_2
_geom_bond_site_symmetry_1
_geom_bond_site_symmetry_2
Mn1 O1 1_555 1_555
Cl1 O2 1_555 1_555
O1 C1 1_555 1_555
O3 Cl1 1_555 1_555
O4 Cl1 1_555 1_555
O5 Cl1 1_555 1_555
N1 Mn1 1_555 1_555
N2 C5 1_555 1_555
N3 Mn1 1_555 1_555
N4 C17 1_555 1_555
C1 C2 1_555 1_555
C2 C3 1_555 1_555
C3 C4 1_555 1_555
C4 C5 1_555 1_555
C6 N2 1_555 1_555
C7 N2 1_555 1_555
C8 N2 1_555 1_555
C9 C4 1_555 1_555
C10 C1 1_555 1_555
C11 N1 1_555 1_555
C12 N1 1_555 1_555
C13 C12 1_555 1_555
C14 C12 1_555 1_555
C15 N3 1_555 1_555
C16 C15 1_555 1_555
C17 C16 1_555 1_555
C18 C16 1_555 1_555
C19 C18 1_555 1_555
C20 C18 1_555 1_555
Mn1F N3D 1_555 1_555
O1B Mn1 1_555 1_555
N1B Mn1 1_555 1_555
N2B C5B 1_555 1_555
N3D C15D 1_555 1_555
N3B Mn1 1_555 1_555
N4D C17D 1_555 1_555
C1B O1B 1_555 1_555
C2B C1B 1_555 1_555
C3B C2B 1_555 1_555
C4B C3B 1_555 1_555
C5B C4B 1_555 1_555
C6B N2B 1_555 1_555
C7B N2B 1_555 1_555
C8B N2B 1_555 1_555
C9B C4B 1_555 1_555
C10B C1B 1_555 1_555
C11B N1B 1_555 1_555
C12B C12 1_555 1_555
C13B C12B 1_555 1_555
C14B C12B 1_555 1_555
C15D C16D 1_555 1_555
C16D C17D 1_555 1_555
C18D C16D 1_555 1_555
C19D C20 1_555 1_555
C20D C19 1_555 1_555
C9 C10 1_555 1_555
C10 C11 1_555 1_555
N1B C12B 1_555 1_555
C9B C10B 1_555 1_555
C10B C11B 1_555 1_555
C18D C19D 1_555 1_555
C18D C20D 1_555 1_555

#END
