
#######################################################################
#
#                 Cambridge Crystallographic Data Centre
#                                CCDC 
#
#######################################################################
#
# If this CIF has been generated from an entry in the Cambridge 
# Structural Database, then it will include bibliographic, chemical, 
# crystal, experimental, refinement or atomic coordinate data resulting 
# from the CCDC's data processing and validation procedures.
#
#######################################################################

data_QEPROT
_symmetry_cell_setting           orthorhombic
_symmetry_space_group_name_H-M   'P 21 21 2'
_symmetry_Int_Tables_number      18
_space_group_name_Hall           'P 2 2ab'
loop_
_symmetry_equiv_pos_site_id
_symmetry_equiv_pos_as_xyz
1 x,y,z
2 -x,-y,z
3 1/2-x,1/2+y,-z
4 1/2+x,1/2-y,-z
_cell_length_a                   29.570(11)
_cell_length_b                   17.221(5)
_cell_length_c                   12.542(6)
_cell_angle_alpha                90
_cell_angle_beta                 90
_cell_angle_gamma                90
_cell_volume                     6386.7
loop_
_atom_site_label
_atom_site_type_symbol
_atom_site_fract_x
_atom_site_fract_y
_atom_site_fract_z
Pt1 Pt 0.073107(15) 0.22478(3) 0.10665(4)
Pt2 Pt -0.123401(15) 0.14507(3) -0.10390(4)
Cu1 Cu 0.0000 0.0000 -0.30234(16)
Cu2 Cu 0.0000 0.0000 0.30675(16)
S1 S 0.11067(10) 0.1610(2) -0.0258(2)
S2 S 0.03136(12) 0.25207(18) -0.0433(2)
S3 S -0.09082(12) 0.20118(19) 0.0431(3)
S4 S -0.14150(11) 0.0615(2) 0.0314(3)
P1 P 0.0000 0.0000 0.0015(3)
F1 F 0.0121(3) -0.0902(5) 0.0027(10)
F2 F 0.0000 0.0000 0.1219(9)
F3 F 0.0515(3) 0.0190(6) -0.0017(10)
F4 F 0.0000 0.0000 -0.1175(9)
N1 N 0.0355(3) 0.2824(6) 0.2236(7)
H1 H 0.0284 0.3305 0.2008
H2 H 0.0096 0.2565 0.2358
N2 N 0.1105(3) 0.1898(7) 0.2407(7)
H3 H 0.1163 0.1386 0.2366
H4 H 0.1370 0.2153 0.2423
N3 N -0.1047(4) 0.2250(7) -0.2227(8)
H5 H -0.1115 0.2736 -0.2016
H6 H -0.0747 0.2224 -0.2344
N4 N -0.1502(3) 0.0868(7) -0.2344(8)
H7 H -0.1433 0.0360 -0.2305
H8 H -0.1805 0.0914 -0.2346
C1 C 0.0635(4) 0.1796(7) -0.1126(10)
C2 C 0.0531(3) 0.1429(7) -0.2028(8)
C3 C 0.0072(4) 0.1648(8) -0.2610(9)
C4 C 0.0825(4) 0.0797(7) -0.2494(8)
C5 C 0.1526(4) 0.2337(11) -0.0763(12)
H9 H 0.1764 0.2372 -0.0233
H10 H 0.1662 0.2115 -0.1397
C6 C 0.1399(9) 0.3130(15) -0.103(3)
H11 H 0.1521 0.3443 -0.0457
H12 H 0.1579 0.3255 -0.1655
C7 C 0.1018(12) 0.3417(13) -0.122(3)
H13 H 0.1015 0.3366 -0.1988
H14 H 0.1089 0.3960 -0.1100
C8 C 0.0521(6) 0.3445(8) -0.1022(13)
H15 H 0.0366 0.3540 -0.1690
H16 H 0.0453 0.3870 -0.0542
C9 C 0.0628(4) 0.2877(8) 0.3266(8)
H17 H 0.0869 0.3264 0.3180
C10 C 0.0335(5) 0.3098(9) 0.4196(10)
H18 H 0.0074 0.2759 0.4232
H19 H 0.0229 0.3628 0.4114
C11 C 0.0623(6) 0.3021(10) 0.5242(11)
H20 H 0.0858 0.3414 0.5235
H21 H 0.0429 0.3124 0.5851
C12 C 0.0833(6) 0.2263(11) 0.5380(11)
H22 H 0.0598 0.1880 0.5503
H23 H 0.1025 0.2276 0.6007
C13 C 0.1124(4) 0.2007(9) 0.4386(10)
H24 H 0.1388 0.2340 0.4321
H25 H 0.1227 0.1477 0.4478
C14 C 0.0841(4) 0.2068(7) 0.3412(8)
H26 H 0.0596 0.1688 0.3468
C15 C -0.1025(4) 0.1162(7) 0.1172(9)
C16 C -0.0823(4) 0.0903(7) 0.2078(8)
C17 C -0.0487(4) 0.1411(8) 0.2616(9)
C18 C -0.0948(4) 0.0093(8) 0.2546(8)
C19 C -0.1322(6) 0.2678(9) 0.0980(14)
H27 H -0.1163 0.3022 0.1463
H28 H -0.1432 0.2996 0.0396
C20 C -0.1712(8) 0.2391(14) 0.154(2)
H29 H -0.1614 0.2091 0.2150
H30 H -0.1890 0.2826 0.1794
C21 C -0.1975(7) 0.193(2) 0.089(3)
H31 H -0.1920 0.2111 0.0164
H32 H -0.2286 0.2064 0.1049
C22 C -0.1953(4) 0.0935(10) 0.0837(13)
H33 H -0.2195 0.0742 0.0387
H34 H -0.1996 0.0725 0.1547
C23 C -0.1292(5) 0.2065(8) -0.3211(9)
H35 H -0.1603 0.2252 -0.3129
C24 C -0.1097(5) 0.2441(10) -0.4204(10)
H36 H -0.0778 0.2312 -0.4261
H37 H -0.1122 0.3001 -0.4144
C25 C -0.1351(6) 0.2160(13) -0.5246(12)
H38 H -0.1661 0.2343 -0.5220
H39 H -0.1208 0.2395 -0.5862
C26 C -0.1354(6) 0.1356(12) -0.5377(12)
H40 H -0.1046 0.1175 -0.5479
H41 H -0.1526 0.1224 -0.6010
C27 C -0.1574(5) 0.0916(10) -0.4344(11)
H42 H -0.1893 0.1041 -0.4281
H43 H -0.1544 0.0357 -0.4415
C28 C -0.1311(4) 0.1210(9) -0.3347(8)
H44 H -0.0998 0.1024 -0.3412
O1 O 0.0633(3) 0.0236(5) -0.3000(7)
O2 O 0.1234(3) 0.0838(5) -0.2299(7)
O3 O -0.0146(3) 0.1112(5) -0.3069(6)
O4 O -0.0054(3) 0.2331(5) -0.2544(6)
O5 O -0.0155(3) 0.1096(5) 0.3090(7)
O6 O -0.0533(3) 0.2137(5) 0.2528(6)
O7 O -0.1334(3) -0.0155(5) 0.2386(6)
O8 O -0.0641(3) -0.0261(5) 0.3038(7)
O9 O 0.0000 0.0000 -0.4895(15)
Pt1A Pt -0.073107(15) -0.22478(3) 0.10665(4)
Pt2A Pt 0.123401(15) -0.14507(3) -0.10390(4)
Cu2_2 Cu 0.0000 0.0000 -0.69325(16)
S1A S -0.11067(10) -0.1610(2) -0.0258(2)
S2A S -0.03136(12) -0.25207(18) -0.0433(2)
S3A S 0.09082(12) -0.20118(19) 0.0431(3)
S4A S 0.14150(11) -0.0615(2) 0.0314(3)
F1A F -0.0121(3) 0.0902(5) 0.0027(10)
F3A F -0.0515(3) -0.0190(6) -0.0017(10)
N1A N -0.0355(3) -0.2824(6) 0.2236(7)
H1A H -0.0284 -0.3305 0.2008
H2A H -0.0096 -0.2565 0.2358
N2A N -0.1105(3) -0.1898(7) 0.2407(7)
H3A H -0.1163 -0.1386 0.2366
H4A H -0.1370 -0.2153 0.2423
N3A N 0.1047(4) -0.2250(7) -0.2227(8)
H5A H 0.1115 -0.2736 -0.2016
H6A H 0.0747 -0.2224 -0.2344
N4A N 0.1502(3) -0.0868(7) -0.2344(8)
H7A H 0.1433 -0.0360 -0.2305
H8A H 0.1805 -0.0914 -0.2346
C1A C -0.0635(4) -0.1796(7) -0.1126(10)
C2A C -0.0531(3) -0.1429(7) -0.2028(8)
C3A C -0.0072(4) -0.1648(8) -0.2610(9)
C4A C -0.0825(4) -0.0797(7) -0.2494(8)
C5A C -0.1526(4) -0.2337(11) -0.0763(12)
H9A H -0.1764 -0.2372 -0.0233
H10A H -0.1662 -0.2115 -0.1397
C6A C -0.1399(9) -0.3130(15) -0.103(3)
H11A H -0.1521 -0.3443 -0.0457
H12A H -0.1579 -0.3255 -0.1655
C7A C -0.1018(12) -0.3417(13) -0.122(3)
H13A H -0.1015 -0.3366 -0.1988
H14A H -0.1089 -0.3960 -0.1100
C8A C -0.0521(6) -0.3445(8) -0.1022(13)
H15A H -0.0366 -0.3540 -0.1690
H16A H -0.0453 -0.3870 -0.0542
C9A C -0.0628(4) -0.2877(8) 0.3266(8)
H17A H -0.0869 -0.3264 0.3180
C10A C -0.0335(5) -0.3098(9) 0.4196(10)
H18A H -0.0074 -0.2759 0.4232
H19A H -0.0229 -0.3628 0.4114
C11A C -0.0623(6) -0.3021(10) 0.5242(11)
H20A H -0.0858 -0.3414 0.5235
H21A H -0.0429 -0.3124 0.5851
C12A C -0.0833(6) -0.2263(11) 0.5380(11)
H22A H -0.0598 -0.1880 0.5503
H23A H -0.1025 -0.2276 0.6007
C13A C -0.1124(4) -0.2007(9) 0.4386(10)
H24A H -0.1388 -0.2340 0.4321
H25A H -0.1227 -0.1477 0.4478
C14A C -0.0841(4) -0.2068(7) 0.3412(8)
H26A H -0.0596 -0.1688 0.3468
C15A C 0.1025(4) -0.1162(7) 0.1172(9)
C16A C 0.0823(4) -0.0903(7) 0.2078(8)
C17A C 0.0487(4) -0.1411(8) 0.2616(9)
C18A C 0.0948(4) -0.0093(8) 0.2546(8)
C19A C 0.1322(6) -0.2678(9) 0.0980(14)
H27A H 0.1163 -0.3022 0.1463
H28A H 0.1432 -0.2996 0.0396
C20A C 0.1712(8) -0.2391(14) 0.154(2)
H29A H 0.1614 -0.2091 0.2150
H30A H 0.1890 -0.2826 0.1794
C21A C 0.1975(7) -0.193(2) 0.089(3)
H31A H 0.1920 -0.2111 0.0164
H32A H 0.2286 -0.2064 0.1049
C22A C 0.1953(4) -0.0935(10) 0.0837(13)
H33A H 0.2195 -0.0742 0.0387
H34A H 0.1996 -0.0725 0.1547
C23A C 0.1292(5) -0.2065(8) -0.3211(9)
H35A H 0.1603 -0.2252 -0.3129
C24A C 0.1097(5) -0.2441(10) -0.4204(10)
H36A H 0.0778 -0.2312 -0.4261
H37A H 0.1122 -0.3001 -0.4144
C25A C 0.1351(6) -0.2160(13) -0.5246(12)
H38A H 0.1661 -0.2343 -0.5220
H39A H 0.1208 -0.2395 -0.5862
C26A C 0.1354(6) -0.1356(12) -0.5377(12)
H40A H 0.1046 -0.1175 -0.5479
H41A H 0.1526 -0.1224 -0.6010
C27A C 0.1574(5) -0.0916(10) -0.4344(11)
H42A H 0.1893 -0.1041 -0.4281
H43A H 0.1544 -0.0357 -0.4415
C28A C 0.1311(4) -0.1210(9) -0.3347(8)
H44A H 0.0998 -0.1024 -0.3412
O1A O -0.0633(3) -0.0236(5) -0.3000(7)
O2A O -0.1234(3) -0.0838(5) -0.2299(7)
O3A O 0.0146(3) -0.1112(5) -0.3069(6)
O4A O 0.0054(3) -0.2331(5) -0.2544(6)
O5A O 0.0155(3) -0.1096(5) 0.3090(7)
O6A O 0.0533(3) -0.2137(5) 0.2528(6)
O7A O 0.1334(3) 0.0155(5) 0.2386(6)
O8A O 0.0641(3) 0.0261(5) 0.3038(7)
O9_2 O 0.0000 0.0000 0.5105(15)
P2 P 0.2196(2) 0.3350(7) 0.2153(5)
F5 F 0.2694(6) 0.2993(14) 0.209(2)
F6 F 0.2362(8) 0.4108(14) 0.262(2)
F7 F 0.2128(10) 0.3810(18) 0.095(3)
F8 F 0.2181(11) 0.2923(18) 0.321(2)
F9 F 0.1982(7) 0.2606(15) 0.178(2)
F10 F 0.1744(7) 0.3537(16) 0.240(2)
P3 P 0.0000 0.5000 0.1319(12)
F11 F 0.0000 0.5000 0.013(3)
F12 F 0.0431(10) 0.4493(9) 0.1314(14)
F13 F 0.0000 0.5000 0.261(4)
F14 F 0.0285(11) 0.5879(18) 0.125(2)
F12A F -0.0431(10) 0.5507(9) 0.1314(14)
F14A F -0.0285(11) 0.4121(18) 0.125(2)
O10 O 0.1203(13) 0.6216(15) 0.847(2)
loop_
_geom_bond_atom_site_label_1
_geom_bond_atom_site_label_2
_geom_bond_site_symmetry_1
_geom_bond_site_symmetry_2
Pt1 S1 1_555 1_555
Pt2 S3 1_555 1_555
Cu1 F4 1_555 1_555
Cu2 F2 1_555 1_555
S1 C1 1_555 1_555
S2 Pt1 1_555 1_555
S3 C15 1_555 1_555
S4 Pt2 1_555 1_555
P1 F1 1_555 1_555
F2 P1 1_555 1_555
F3 P1 1_555 1_555
F4 P1 1_555 1_555
N1 Pt1 1_555 1_555
H1 N1 1_555 1_555
H2 N1 1_555 1_555
N2 Pt1 1_555 1_555
H3 N2 1_555 1_555
H4 N2 1_555 1_555
N3 Pt2 1_555 1_555
H5 N3 1_555 1_555
H6 N3 1_555 1_555
N4 Pt2 1_555 1_555
H7 N4 1_555 1_555
H8 N4 1_555 1_555
C1 S2 1_555 1_555
C2 C1 1_555 1_555
C3 C2 1_555 1_555
C4 C2 1_555 1_555
C5 S1 1_555 1_555
H9 C5 1_555 1_555
H10 C5 1_555 1_555
C6 C5 1_555 1_555
H11 C6 1_555 1_555
H12 C6 1_555 1_555
C7 C6 1_555 1_555
H13 C7 1_555 1_555
H14 C7 1_555 1_555
C8 S2 1_555 1_555
H15 C8 1_555 1_555
H16 C8 1_555 1_555
C9 N1 1_555 1_555
H17 C9 1_555 1_555
C10 C9 1_555 1_555
H18 C10 1_555 1_555
H19 C10 1_555 1_555
C11 C10 1_555 1_555
H20 C11 1_555 1_555
H21 C11 1_555 1_555
C12 C11 1_555 1_555
H22 C12 1_555 1_555
H23 C12 1_555 1_555
C13 C12 1_555 1_555
H24 C13 1_555 1_555
H25 C13 1_555 1_555
C14 N2 1_555 1_555
H26 C14 1_555 1_555
C15 S4 1_555 1_555
C16 C15 1_555 1_555
C17 C16 1_555 1_555
C18 C16 1_555 1_555
C19 S3 1_555 1_555
H27 C19 1_555 1_555
H28 C19 1_555 1_555
C20 C19 1_555 1_555
H29 C20 1_555 1_555
H30 C20 1_555 1_555
C21 C20 1_555 1_555
H31 C21 1_555 1_555
H32 C21 1_555 1_555
C22 S4 1_555 1_555
H33 C22 1_555 1_555
H34 C22 1_555 1_555
C23 N3 1_555 1_555
H35 C23 1_555 1_555
C24 C23 1_555 1_555
H36 C24 1_555 1_555
H37 C24 1_555 1_555
C25 C24 1_555 1_555
H38 C25 1_555 1_555
H39 C25 1_555 1_555
C26 C25 1_555 1_555
H40 C26 1_555 1_555
H41 C26 1_555 1_555
C27 C26 1_555 1_555
H42 C27 1_555 1_555
H43 C27 1_555 1_555
C28 N4 1_555 1_555
H44 C28 1_555 1_555
O1 Cu1 1_555 1_555
O2 C4 1_555 1_555
O3 Cu1 1_555 1_555
O4 C3 1_555 1_555
O5 Cu2 1_555 1_555
O6 C17 1_555 1_555
O7 C18 1_555 1_555
O8 Cu2 1_555 1_555
P2 F5 1_555 1_555
F6 P2 1_555 1_555
F7 P2 1_555 1_555
F8 P2 1_555 1_555
F9 P2 1_555 1_555
F10 P2 1_555 1_555
P3 F11 1_555 1_555
F12 P3 1_555 1_555
F13 P3 1_555 1_555
F14 P3 1_555 1_555
O9 Cu1 1_555 1_555
Pt1A S1A 1_555 1_555
Pt2A S3A 1_555 1_555
Cu2_2 O9 1_555 1_555
S1A C1A 1_555 1_555
S2A Pt1A 1_555 1_555
S3A C15A 1_555 1_555
S4A Pt2A 1_555 1_555
F1A P1 1_555 1_555
F3A P1 1_555 1_555
N1A Pt1A 1_555 1_555
H1A N1A 1_555 1_555
H2A N1A 1_555 1_555
N2A Pt1A 1_555 1_555
H3A N2A 1_555 1_555
H4A N2A 1_555 1_555
N3A Pt2A 1_555 1_555
H5A N3A 1_555 1_555
H6A N3A 1_555 1_555
N4A Pt2A 1_555 1_555
H7A N4A 1_555 1_555
H8A N4A 1_555 1_555
C1A S2A 1_555 1_555
C2A C1A 1_555 1_555
C3A C2A 1_555 1_555
C4A C2A 1_555 1_555
C5A S1A 1_555 1_555
H9A C5A 1_555 1_555
H10A C5A 1_555 1_555
C6A C5A 1_555 1_555
H11A C6A 1_555 1_555
H12A C6A 1_555 1_555
C7A C6A 1_555 1_555
H13A C7A 1_555 1_555
H14A C7A 1_555 1_555
C8A S2A 1_555 1_555
H15A C8A 1_555 1_555
H16A C8A 1_555 1_555
C9A N1A 1_555 1_555
H17A C9A 1_555 1_555
C10A C9A 1_555 1_555
H18A C10A 1_555 1_555
H19A C10A 1_555 1_555
C11A C10A 1_555 1_555
H20A C11A 1_555 1_555
H21A C11A 1_555 1_555
C12A C11A 1_555 1_555
H22A C12A 1_555 1_555
H23A C12A 1_555 1_555
C13A C12A 1_555 1_555
H24A C13A 1_555 1_555
H25A C13A 1_555 1_555
C14A N2A 1_555 1_555
H26A C14A 1_555 1_555
C15A S4A 1_555 1_555
C16A C15A 1_555 1_555
C17A C16A 1_555 1_555
C18A C16A 1_555 1_555
C19A S3A 1_555 1_555
H27A C19A 1_555 1_555
H28A C19A 1_555 1_555
C20A C19A 1_555 1_555
H29A C20A 1_555 1_555
H30A C20A 1_555 1_555
C21A C20A 1_555 1_555
H31A C21A 1_555 1_555
H32A C21A 1_555 1_555
C22A S4A 1_555 1_555
H33A C22A 1_555 1_555
H34A C22A 1_555 1_555
C23A N3A 1_555 1_555
H35A C23A 1_555 1_555
C24A C23A 1_555 1_555
H36A C24A 1_555 1_555
H37A C24A 1_555 1_555
C25A C24A 1_555 1_555
H38A C25A 1_555 1_555
H39A C25A 1_555 1_555
C26A C25A 1_555 1_555
H40A C26A 1_555 1_555
H41A C26A 1_555 1_555
C27A C26A 1_555 1_555
H42A C27A 1_555 1_555
H43A C27A 1_555 1_555
C28A N4A 1_555 1_555
H44A C28A 1_555 1_555
O1A Cu1 1_555 1_555
O2A C4A 1_555 1_555
O3A Cu1 1_555 1_555
O4A C3A 1_555 1_555
O5A Cu2 1_555 1_555
O6A C17A 1_555 1_555
O7A C18A 1_555 1_555
O8A Cu2 1_555 1_555
F12A P3 1_555 1_555
F14A P3 1_555 1_555
O9_2 Cu2 1_555 1_555
C3 O3 1_555 1_555
C4 O1 1_555 1_555
C7 C8 1_555 1_555
C9 C14 1_555 1_555
C13 C14 1_555 1_555
C17 O5 1_555 1_555
C18 O8 1_555 1_555
C21 C22 1_555 1_555
C23 C28 1_555 1_555
C27 C28 1_555 1_555
C3A O3A 1_555 1_555
C4A O1A 1_555 1_555
C7A C8A 1_555 1_555
C9A C14A 1_555 1_555
C13A C14A 1_555 1_555
C17A O5A 1_555 1_555
C18A O8A 1_555 1_555
C21A C22A 1_555 1_555
C23A C28A 1_555 1_555
C27A C28A 1_555 1_555

#END
