
#######################################################################
#
#                 Cambridge Crystallographic Data Centre
#                                CCDC 
#
#######################################################################
#
# If this CIF has been generated from an entry in the Cambridge 
# Structural Database, then it will include bibliographic, chemical, 
# crystal, experimental, refinement or atomic coordinate data resulting 
# from the CCDC's data processing and validation procedures.
#
#######################################################################

data_QEPSUA
_symmetry_cell_setting           monoclinic
_symmetry_space_group_name_H-M   'P 21/n'
_symmetry_Int_Tables_number      14
_space_group_name_Hall           '-P 2yn'
loop_
_symmetry_equiv_pos_site_id
_symmetry_equiv_pos_as_xyz
1 x,y,z
2 1/2-x,1/2+y,1/2-z
3 -x,-y,-z
4 1/2+x,1/2-y,1/2+z
_cell_length_a                   3.8522(11)
_cell_length_b                   13.288(4)
_cell_length_c                   14.930(4)
_cell_angle_alpha                90
_cell_angle_beta                 96.744(6)
_cell_angle_gamma                90
_cell_volume                     758.949
loop_
_atom_site_label
_atom_site_type_symbol
_atom_site_fract_x
_atom_site_fract_y
_atom_site_fract_z
Cd1 Cd 0.61761(12) 0.58292(3) 0.75148(3)
Br1 Br 0.08601(17) 0.45378(4) 0.70089(5)
O1 O 0.5267(10) 0.5908(3) 0.8973(2)
O2 O 0.1255(10) 0.6833(2) 0.8137(2)
N1 N 0.1124(11) 0.8126(3) 1.1310(3)
C1 C -0.0193(15) 0.8473(4) 1.0475(4)
H1 H -0.1495 0.9064 1.0428
C2 C 0.0380(16) 0.7959(4) 0.9699(4)
H2 H -0.0383 0.8238 0.9140
C3 C 0.2053(14) 0.7046(4) 0.9740(4)
C4 C 0.3273(14) 0.6677(4) 1.0606(3)
H3 H 0.4475 0.6069 1.0665
C5 C 0.2717(15) 0.7193(4) 1.1341(4)
H4 H 0.3437 0.6911 1.1902
C6 C 0.2739(15) 0.6516(4) 0.8891(4)
Cd1_2 Cd -0.38239(12) 0.58292(3) 0.75148(3)
Cd1C Cd 0.11761(12) 0.91708(3) 1.25148(3)
Br1_2 Br 1.08601(17) 0.45378(4) 0.70089(5)
O2_2 O 1.1255(10) 0.6833(2) 0.8137(2)
N1C N 0.6124(11) 0.6874(3) 0.6310(3)
loop_
_geom_bond_atom_site_label_1
_geom_bond_atom_site_label_2
_geom_bond_site_symmetry_1
_geom_bond_site_symmetry_2
Cd1 Br1 1_555 1_555
Br1 Cd1_2 1_555 1_555
O1 Cd1 1_555 1_555
O2 Cd1 1_555 1_555
N1 C1 1_555 1_555
C1 H1 1_555 1_555
C2 C1 1_555 1_555
H2 C2 1_555 1_555
C3 C2 1_555 1_555
C4 C3 1_555 1_555
H3 C4 1_555 1_555
C5 N1 1_555 1_555
H4 C5 1_555 1_555
C6 O1 1_555 1_555
Cd1_2 O2 1_555 1_555
Cd1C N1 1_555 1_555
Br1_2 Cd1 1_555 1_555
O2_2 Cd1 1_555 1_555
N1C Cd1 1_555 1_555
O2 C6 1_555 1_555
C3 C6 1_555 1_555
C4 C5 1_555 1_555

#END
