
#######################################################################
#
#                 Cambridge Crystallographic Data Centre
#                                CCDC 
#
#######################################################################
#
# If this CIF has been generated from an entry in the Cambridge 
# Structural Database, then it will include bibliographic, chemical, 
# crystal, experimental, refinement or atomic coordinate data resulting 
# from the CCDC's data processing and validation procedures.
#
#######################################################################

data_QEPSOU
_symmetry_cell_setting           monoclinic
_symmetry_space_group_name_H-M   'P 2/n'
_symmetry_Int_Tables_number      13
_space_group_name_Hall           '-P 2yac'
loop_
_symmetry_equiv_pos_site_id
_symmetry_equiv_pos_as_xyz
1 x,y,z
2 1/2-x,y,1/2-z
3 -x,-y,-z
4 1/2+x,-y,1/2+z
_cell_length_a                   7.2633(9)
_cell_length_b                   12.1201(15)
_cell_length_c                   12.8298(16)
_cell_angle_alpha                90
_cell_angle_beta                 93.475(2)
_cell_angle_gamma                90
_cell_volume                     1127.36
loop_
_atom_site_label
_atom_site_type_symbol
_atom_site_fract_x
_atom_site_fract_y
_atom_site_fract_z
Zn1 Zn 0.81163(8) 0.71196(4) 0.50522(4)
Na1 Na 1.2500 0.8970(3) 0.7500
Na2 Na 0.7500 0.8985(3) 0.7500
Cl1 Cl 1.0559(2) 0.75650(11) 0.41156(11)
Cl2 Cl 0.6174(2) 0.85368(11) 0.52004(11)
O1 O 0.9962(5) 0.7637(3) 0.7319(3)
O2 O 0.8778(5) 0.6276(3) 0.6316(2)
N1 N 1.1783(6) 0.4132(3) 0.9231(3)
C1 C 1.0730(7) 0.3875(4) 0.8369(4)
H1 H 1.0486 0.3136 0.8221
C2 C 0.9997(7) 0.4669(4) 0.7694(4)
H2 H 0.9288 0.4460 0.7098
C3 C 1.0314(6) 0.5771(4) 0.7901(3)
C4 C 1.1357(6) 0.6047(4) 0.8823(4)
H3 H 1.1567 0.6781 0.9005
C5 C 1.2060(7) 0.5209(4) 0.9449(4)
H4 H 1.2763 0.5394 1.0053
C6 C 0.9631(6) 0.6652(4) 0.7134(4)
O3 O 1.1547(7) 0.9457(4) 0.5820(3)
O4 O 0.9849(6) 1.0379(4) 0.7772(4)
Zn1A Zn 1.68837(8) 0.71196(4) 0.99478(4)
Zn1C Zn 1.31163(8) 0.28804(4) 1.00522(4)
Zn1B Zn 1.18837(8) 0.28804(4) 0.49478(4)
Zn1A_2 Zn 0.68837(8) 0.71196(4) 0.99478(4)
Na1_2 Na 0.2500 0.8970(3) 0.7500
Na2_2 Na 1.7500 0.8985(3) 0.7500
Cl1A Cl 1.4441(2) 0.75650(11) 1.08844(11)
Cl2A Cl 0.8826(2) 0.85368(11) 0.97996(11)
Cl2A_2 Cl 1.8826(2) 0.85368(11) 0.97996(11)
O1A O 1.5038(5) 0.7637(3) 0.7681(3)
O1A_2 O 0.5038(5) 0.7637(3) 0.7681(3)
O2A O 1.6222(5) 0.6276(3) 0.8684(2)
N1A N 1.3217(6) 0.4132(3) 0.5769(3)
N1C N 0.6783(6) 0.5868(3) 0.4231(3)
N1B N 1.8217(6) 0.5868(3) 1.0769(3)
C1A C 1.4270(7) 0.3875(4) 0.6631(4)
H1A H 1.4514 0.3136 0.6779
C2A C 1.5003(7) 0.4669(4) 0.7306(4)
H2A H 1.5712 0.4460 0.7902
C3A C 1.4686(6) 0.5771(4) 0.7099(3)
C4A C 1.3643(6) 0.6047(4) 0.6177(4)
H3A H 1.3433 0.6781 0.5995
C5A C 1.2940(7) 0.5209(4) 0.5551(4)
H4A H 1.2237 0.5394 0.4947
C6A C 1.5369(6) 0.6652(4) 0.7866(4)
O3A O 1.3453(7) 0.9457(4) 0.9180(3)
O4A O 1.5151(6) 1.0379(4) 0.7228(4)
O4A_2 O 0.5151(6) 1.0379(4) 0.7228(4)
loop_
_geom_bond_atom_site_label_1
_geom_bond_atom_site_label_2
_geom_bond_site_symmetry_1
_geom_bond_site_symmetry_2
Zn1 Cl1 1_555 1_555
Na1 O1 1_555 1_555
Na2 Cl2 1_555 1_555
Cl2 Zn1 1_555 1_555
O1 Na2 1_555 1_555
O2 Zn1 1_555 1_555
N1 C1 1_555 1_555
C1 H1 1_555 1_555
C2 C1 1_555 1_555
H2 C2 1_555 1_555
C3 C2 1_555 1_555
C4 C3 1_555 1_555
H3 C4 1_555 1_555
C5 N1 1_555 1_555
H4 C5 1_555 1_555
C6 O1 1_555 1_555
O3 Na1 1_555 1_555
O4 Na1 1_555 1_555
Zn1A Cl1A 1_555 1_555
Zn1C N1 1_555 1_555
Zn1B N1A 1_555 1_555
Zn1A_2 Cl2A 1_555 1_555
Na1_2 O1A_2 1_555 1_555
Na2_2 Cl2A_2 1_555 1_555
Cl2A Na2 1_555 1_555
Cl2A_2 Zn1A 1_555 1_555
O1A Na1 1_555 1_555
O1A_2 Na2 1_555 1_555
O2A Zn1A 1_555 1_555
N1A C1A 1_555 1_555
N1C Zn1 1_555 1_555
N1B Zn1A 1_555 1_555
C1A H1A 1_555 1_555
C2A C1A 1_555 1_555
H2A C2A 1_555 1_555
C3A C2A 1_555 1_555
C4A C3A 1_555 1_555
H3A C4A 1_555 1_555
C5A N1A 1_555 1_555
H4A C5A 1_555 1_555
C6A O1A 1_555 1_555
O3A Na1 1_555 1_555
O4A Na1 1_555 1_555
O4A_2 Na2 1_555 1_555
Na2 O4 1_555 1_555
O2 C6 1_555 1_555
C3 C6 1_555 1_555
C4 C5 1_555 1_555
Na1_2 O4A_2 1_555 1_555
Na2_2 O1A 1_555 1_555
Na2_2 O4A 1_555 1_555
O2A C6A 1_555 1_555
C3A C6A 1_555 1_555
C4A C5A 1_555 1_555

#END
