
#######################################################################
#
#                 Cambridge Crystallographic Data Centre
#                                CCDC 
#
#######################################################################
#
# If this CIF has been generated from an entry in the Cambridge 
# Structural Database, then it will include bibliographic, chemical, 
# crystal, experimental, refinement or atomic coordinate data resulting 
# from the CCDC's data processing and validation procedures.
#
#######################################################################

data_QEPTEL
_symmetry_cell_setting           orthorhombic
_symmetry_space_group_name_H-M   'P b c a'
_symmetry_Int_Tables_number      61
_space_group_name_Hall           '-P 2ac 2ab'
loop_
_symmetry_equiv_pos_site_id
_symmetry_equiv_pos_as_xyz
1 x,y,z
2 1/2-x,-y,1/2+z
3 -x,1/2+y,1/2-z
4 1/2+x,1/2-y,-z
5 -x,-y,-z
6 1/2+x,y,1/2-z
7 x,1/2-y,1/2+z
8 1/2-x,1/2+y,z
_cell_length_a                   7.0170(2)
_cell_length_b                   12.73570(10)
_cell_length_c                   18.7559(3)
_cell_angle_alpha                90
_cell_angle_beta                 90
_cell_angle_gamma                90
_cell_volume                     1676.15
loop_
_atom_site_label
_atom_site_type_symbol
_atom_site_fract_x
_atom_site_fract_y
_atom_site_fract_z
Cd1 Cd 0.59275(3) 0.731096(19) 0.014304(12)
Cd2 Cd 0.0000 0.5000 0.0000
Cl1 Cl 0.32773(12) 0.60050(7) -0.03169(5)
O1 O 0.0818(4) 0.7135(2) 0.10244(13)
O2 O 0.0270(4) 0.5423(2) 0.11911(13)
O3 O 0.1492(3) 0.35105(18) 0.02842(12)
N1 N 0.0842(4) 0.6915(2) 0.36579(15)
C1 C 0.0583(5) 0.6340(3) 0.13982(18)
C2 C 0.0678(5) 0.6529(3) 0.21968(18)
C3 C 0.0437(6) 0.5729(3) 0.26856(18)
H1 H 0.0220 0.5046 0.2531
C4 C 0.0519(6) 0.5951(3) 0.34049(19)
H2 H 0.0343 0.5405 0.3728
C5 C 0.1075(6) 0.7698(3) 0.31833(19)
H3 H 0.1299 0.8374 0.3351
C6 C 0.0994(6) 0.7532(3) 0.24571(19)
H4 H 0.1152 0.8091 0.2144
Cd1D Cd -0.59275(3) 0.268904(19) -0.014304(12)
Cd1C Cd 0.09275(3) 0.768904(19) -0.014304(12)
Cd1G Cd -0.09275(3) 0.231096(19) 0.014304(12)
Cd1D_2 Cd 0.40725(3) 0.268904(19) -0.014304(12)
Cd1E Cd 0.09275(3) 0.731096(19) 0.485696(12)
Cd1A Cd -0.09275(3) 0.268904(19) -0.485696(12)
Cd1_2 Cd -0.40725(3) 0.731096(19) 0.014304(12)
Cl1D Cl -0.32773(12) 0.39950(7) 0.03169(5)
Cl1C Cl 0.82773(12) 0.89950(7) 0.03169(5)
Cl1G Cl -0.82773(12) 0.10050(7) -0.03169(5)
O1D O -0.0818(4) 0.2865(2) -0.10244(13)
O1C O 0.5818(4) 0.7865(2) -0.10244(13)
O1G O -0.5818(4) 0.2135(2) 0.10244(13)
O2D O -0.0270(4) 0.4577(2) -0.11911(13)
O3D O -0.1492(3) 0.64895(18) -0.02842(12)
O3G O 0.3508(3) 0.85105(18) 0.02842(12)
O3D_2 O 0.8508(3) 0.64895(18) -0.02842(12)
O3_2 O -0.8508(3) 0.35105(18) 0.02842(12)
O3C O -0.3508(3) 0.14895(18) -0.02842(12)
N1D N -0.0842(4) 0.3085(2) -0.36579(15)
N1E N 0.5842(4) 0.6915(2) 0.13421(15)
N1A N -0.5842(4) 0.3085(2) -0.13421(15)
C1D C -0.0583(5) 0.3660(3) -0.13982(18)
C2D C -0.0678(5) 0.3471(3) -0.21968(18)
C3D C -0.0437(6) 0.4271(3) -0.26856(18)
H1D H -0.0220 0.4954 -0.2531
C4D C -0.0519(6) 0.4049(3) -0.34049(19)
H2D H -0.0343 0.4595 -0.3728
C5D C -0.1075(6) 0.2302(3) -0.31833(19)
H3D H -0.1299 0.1626 -0.3351
C6D C -0.0994(6) 0.2468(3) -0.24571(19)
H4D H -0.1152 0.1909 -0.2144
loop_
_geom_bond_atom_site_label_1
_geom_bond_atom_site_label_2
_geom_bond_site_symmetry_1
_geom_bond_site_symmetry_2
Cd1 Cl1 1_555 1_555
Cd2 Cl1 1_555 1_555
Cl1 Cd1C 1_555 1_555
O1 C1 1_555 1_555
O2 Cd2 1_555 1_555
O3 Cd2 1_555 1_555
N1 C4 1_555 1_555
C1 O2 1_555 1_555
C2 C1 1_555 1_555
C3 C2 1_555 1_555
H1 C3 1_555 1_555
C4 C3 1_555 1_555
H2 C4 1_555 1_555
C5 N1 1_555 1_555
H3 C5 1_555 1_555
C6 C2 1_555 1_555
H4 C6 1_555 1_555
Cd1D Cl1D 1_555 1_555
Cd1C O1 1_555 1_555
Cd1G O3 1_555 1_555
Cd1D_2 O3 1_555 1_555
Cd1E N1 1_555 1_555
Cd1A N1D 1_555 1_555
Cd1_2 O3D 1_555 1_555
Cl1D Cd2 1_555 1_555
Cl1C Cd1 1_555 1_555
Cl1G Cd1D 1_555 1_555
O1D Cd1G 1_555 1_555
O1C Cd1 1_555 1_555
O1G Cd1D 1_555 1_555
O2D Cd2 1_555 1_555
O3D Cd2 1_555 1_555
O3G Cd1 1_555 1_555
O3D_2 Cd1 1_555 1_555
O3_2 Cd1D 1_555 1_555
O3C Cd1D 1_555 1_555
N1D C4D 1_555 1_555
N1E Cd1 1_555 1_555
N1A Cd1D 1_555 1_555
C1D O1D 1_555 1_555
C2D C1D 1_555 1_555
C3D C2D 1_555 1_555
H1D C3D 1_555 1_555
C4D C3D 1_555 1_555
H2D C4D 1_555 1_555
C5D N1D 1_555 1_555
H3D C5D 1_555 1_555
C6D C2D 1_555 1_555
H4D C6D 1_555 1_555
C5 C6 1_555 1_555
Cd1C O3D 1_555 1_555
Cd1C O3G 1_555 1_555
Cd1G Cl1D 1_555 1_555
Cd1G O3C 1_555 1_555
O2D C1D 1_555 1_555
C5D C6D 1_555 1_555

#END
