
#######################################################################
#
#                 Cambridge Crystallographic Data Centre
#                                CCDC 
#
#######################################################################
#
# If this CIF has been generated from an entry in the Cambridge 
# Structural Database, then it will include bibliographic, chemical, 
# crystal, experimental, refinement or atomic coordinate data resulting 
# from the CCDC's data processing and validation procedures.
#
#######################################################################

data_QEPYIU
_symmetry_cell_setting           monoclinic
_symmetry_space_group_name_H-M   'P 21/c'
_symmetry_Int_Tables_number      14
_space_group_name_Hall           '-P 2ybc'
loop_
_symmetry_equiv_pos_site_id
_symmetry_equiv_pos_as_xyz
1 x,y,z
2 -x,1/2+y,1/2-z
3 -x,-y,-z
4 x,1/2-y,1/2+z
_cell_length_a                   17.1470(3)
_cell_length_b                   11.7946(2)
_cell_length_c                   19.4809(3)
_cell_angle_alpha                90
_cell_angle_beta                 102.5100(10)
_cell_angle_gamma                90
_cell_volume                     3846.32
loop_
_atom_site_label
_atom_site_type_symbol
_atom_site_fract_x
_atom_site_fract_y
_atom_site_fract_z
Hg1 Hg 0.494512(16) 0.41418(2) 0.759953(13)
Cl1 Cl 0.52885(14) 0.35092(17) 0.87860(9)
Cl2 Cl 0.38444(11) 0.47454(16) 0.66979(10)
N1 N 0.5461(3) 0.2767(4) 0.6929(2)
O1 O 0.6988(3) -0.0212(4) 0.5972(3)
C1 C 0.5156(6) 0.2716(9) 0.6235(5)
H1 H 0.4733 0.3214 0.6033
C2 C 0.5437(6) 0.1963(9) 0.5808(5)
H2 H 0.5253 0.1997 0.5312
C3 C 0.6313(6) 0.1232(9) 0.6812(5)
H3 H 0.6744 0.0761 0.7032
C4 C 0.6006(6) 0.2014(8) 0.7206(5)
H4 H 0.6195 0.2010 0.7702
C9 C 0.6008(4) 0.1130(5) 0.6119(3)
C10 C 0.6243(4) 0.0222(7) 0.5659(4)
H9 H 0.5841 -0.0393 0.5588
H10 H 0.6260 0.0545 0.5193
C11 C 0.7276(4) -0.1111(5) 0.5646(3)
C12 C 0.6795(4) -0.1773(6) 0.5131(4)
H11 H 0.6245 -0.1591 0.4977
C13 C 0.7099(4) -0.2669(6) 0.4846(4)
H12 H 0.6759 -0.3113 0.4498
C14 C 0.7917(4) -0.2957(5) 0.5060(3)
C15 C 0.8406(4) -0.2290(5) 0.5591(3)
C16 C 0.8068(3) -0.1360(5) 0.5884(3)
C17 C 0.8244(5) -0.3878(6) 0.4761(3)
H13 H 0.7913 -0.4323 0.4408
C18 C 0.9028(5) -0.4133(6) 0.4976(4)
H14 H 0.9244 -0.4754 0.4768
C19 C 0.9528(5) -0.3493(7) 0.5501(4)
H15 H 1.0078 -0.3684 0.5644
C20 C 0.9230(4) -0.2601(6) 0.5805(3)
H16 H 0.9572 -0.2179 0.6163
C21 C 0.8570(4) -0.0690(5) 0.6478(3)
C22 C 0.8480(4) -0.0878(5) 0.7148(3)
O2 O 0.7951(3) -0.1731(4) 0.7222(2)
C23 C 0.8928(4) -0.0260(6) 0.7720(3)
H17 H 0.8860 -0.0398 0.8184
C24 C 0.9450(5) 0.0526(7) 0.7601(4)
H18 H 0.9753 0.0936 0.7988
C25 C 0.9564(5) 0.0758(7) 0.6922(4)
C26 C 0.9110(4) 0.0150(6) 0.6347(3)
C27 C 0.9231(5) 0.0395(7) 0.5669(4)
H19 H 0.8943 -0.0020 0.5278
C28 C 0.9751(6) 0.1209(10) 0.5567(5)
H20 H 0.9817 0.1355 0.5103
C29 C 1.0187(7) 0.1831(11) 0.6119(6)
H21 H 1.0540 0.2411 0.6037
C30 C 1.0101(7) 0.1599(10) 0.6785(5)
H22 H 1.0409 0.2014 0.7167
N2 N 0.5941(3) -0.4453(4) 0.7661(3)
C31 C 0.5946(4) -0.3701(6) 0.7153(3)
H23 H 0.5531 -0.3734 0.6742
C32 C 0.6525(4) -0.2875(6) 0.7193(3)
H24 H 0.6501 -0.2347 0.6821
C33 C 0.7146(4) -0.2825(5) 0.7787(3)
C34 C 0.7131(4) -0.3600(6) 0.8301(4)
H25 H 0.7541 -0.3591 0.8716
C35 C 0.6527(5) -0.4403(6) 0.8232(4)
H26 H 0.6533 -0.4930 0.8602
C36 C 0.7773(4) -0.1924(6) 0.7876(3)
H27 H 0.7574 -0.1219 0.8055
H28 H 0.8258 -0.2175 0.8217
Hg1_2 Hg 0.494512(16) -0.58582(2) 0.759953(13)
N2_2 N 0.5941(3) 0.5547(4) 0.7661(3)
O3 O 0.8220(12) -0.5072(14) 0.6742(10)
C37 C 0.8650(13) -0.6046(17) 0.6734(15)
H29 H 0.8976 -0.6206 0.7209
H30 H 0.9012 -0.5970 0.6404
C38 C 0.8086(13) -0.6949(16) 0.6512(13)
H31 H 0.8319 -0.7537 0.6254
H32 H 0.7931 -0.7307 0.6923
C39 C 0.7412(13) -0.6435(18) 0.6066(13)
H33 H 0.6906 -0.6816 0.6097
H34 H 0.7464 -0.6414 0.5570
C40 C 0.7477(15) -0.532(2) 0.6379(17)
H35 H 0.7313 -0.4753 0.6004
H36 H 0.7103 -0.5272 0.6700
C41 C 0.781(3) -0.689(2) 0.442(3)
H37 H 0.7327 -0.6425 0.4266
H38 H 0.7997 -0.6788 0.4937
C43 C 0.8130(17) -0.8359(15) 0.3780(13)
O5 O 0.7856(15) -0.8912(15) 0.4274(12)
C45 C 0.7603(16) -0.8038(18) 0.4641(14)
H45 H 0.7664 -0.8258 0.5140
H46 H 0.7031 -0.7882 0.4445
C47 C 0.800(2) -0.7100(18) 0.3833(16)
H49 H 0.8406 -0.6654 0.3661
H50 H 0.7458 -0.6870 0.3574
C5? C 0.4966(12) 0.2167(15) 0.6482(10)
H5? H 0.4412 0.2329 0.6418
C6? C 0.5196(11) 0.1298(16) 0.6086(9)
H6? H 0.4808 0.0827 0.5800
C7? C 0.6542(15) 0.1601(18) 0.6638(12)
H7? H 0.7091 0.1395 0.6730
C8? C 0.6248(14) 0.243(2) 0.7046(12)
H8? H 0.6616 0.2766 0.7424
O4? O 0.8378(9) -0.6529(12) 0.4105(8)
C42? C 0.7621(15) -0.8069(18) 0.4272(13)
H39? H 0.7048 -0.8168 0.4052
H40? H 0.7755 -0.8537 0.4704
H41? H 0.8635 -0.8726 0.4019
H42? H 0.7849 -0.8848 0.3391
C44? C 0.826(2) -0.722(2) 0.3540(13)
H43? H 0.8732 -0.7205 0.3325
H44? H 0.7789 -0.6963 0.3184
C46? C 0.808(3) -0.699(2) 0.4591(17)
H47? H 0.7837 -0.6296 0.4730
H48? H 0.8646 -0.7058 0.4853
C48? C 0.8130(17) -0.8359(15) 0.3780(13)
H51? H 0.7851 -0.8633 0.3310
H52? H 0.8708 -0.8513 0.3834
O6? O 0.4543(11) 0.4155(15) 0.4726(11)
C49? C 0.4015(15) 0.503(2) 0.4621(17)
H53? H 0.3512 0.4808 0.4756
H54? H 0.3889 0.5254 0.4119
C50? C 0.4382(17) 0.596(2) 0.505(2)
H55? H 0.4150 0.6050 0.5470
H56? H 0.4308 0.6681 0.4780
C51? C 0.5230(17) 0.567(3) 0.525(2)
H57? H 0.5570 0.6276 0.5128
H58? H 0.5392 0.5515 0.5765
C52? C 0.5278(13) 0.465(2) 0.4850(15)
H59? H 0.5427 0.4843 0.4400
H60? H 0.5686 0.4128 0.5116
loop_
_geom_bond_atom_site_label_1
_geom_bond_atom_site_label_2
_geom_bond_site_symmetry_1
_geom_bond_site_symmetry_2
Hg1 Cl1 1_555 1_555
Cl2 Hg1 1_555 1_555
N1 Hg1 1_555 1_555
O1 C10 1_555 1_555
C1 N1 1_555 1_555
H1 C1 1_555 1_555
C2 C1 1_555 1_555
H2 C2 1_555 1_555
C3 H3 1_555 1_555
C4 N1 1_555 1_555
H4 C4 1_555 1_555
C9 C2 1_555 1_555
C10 C9 1_555 1_555
H9 C10 1_555 1_555
H10 C10 1_555 1_555
C11 O1 1_555 1_555
C12 C11 1_555 1_555
H11 C12 1_555 1_555
C13 C12 1_555 1_555
H12 C13 1_555 1_555
C14 C13 1_555 1_555
C15 C14 1_555 1_555
C16 C11 1_555 1_555
C17 C14 1_555 1_555
H13 C17 1_555 1_555
C18 C17 1_555 1_555
H14 C18 1_555 1_555
C19 C18 1_555 1_555
H15 C19 1_555 1_555
C20 C15 1_555 1_555
H16 C20 1_555 1_555
C21 C16 1_555 1_555
C22 C21 1_555 1_555
O2 C22 1_555 1_555
C23 C22 1_555 1_555
H17 C23 1_555 1_555
C24 C23 1_555 1_555
H18 C24 1_555 1_555
C25 C24 1_555 1_555
C26 C21 1_555 1_555
C27 C26 1_555 1_555
H19 C27 1_555 1_555
C28 C27 1_555 1_555
H20 C28 1_555 1_555
C29 C28 1_555 1_555
H21 C29 1_555 1_555
C30 C25 1_555 1_555
H22 C30 1_555 1_555
N2 C31 1_555 1_555
C31 H23 1_555 1_555
C32 C31 1_555 1_555
H24 C32 1_555 1_555
C33 C32 1_555 1_555
C34 C33 1_555 1_555
H25 C34 1_555 1_555
C35 N2 1_555 1_555
H26 C35 1_555 1_555
C36 O2 1_555 1_555
H27 C36 1_555 1_555
H28 C36 1_555 1_555
O3 C37 1_555 1_555
C37 H29 1_555 1_555
H30 C37 1_555 1_555
C38 C37 1_555 1_555
H31 C38 1_555 1_555
H32 C38 1_555 1_555
C39 C38 1_555 1_555
H33 C39 1_555 1_555
H34 C39 1_555 1_555
C40 O3 1_555 1_555
H35 C40 1_555 1_555
H36 C40 1_555 1_555
C41 H37 1_555 1_555
H38 C41 1_555 1_555
C43 O5 1_555 1_555
O5 C45 1_555 1_555
C45 C41 1_555 1_555
H45 C45 1_555 1_555
H46 C45 1_555 1_555
C47 C41 1_555 1_555
H49 C47 1_555 1_555
H50 C47 1_555 1_555
Hg1_2 N2 1_555 1_555
N2_2 Hg1 1_555 1_555
C3 C4 1_555 1_555
C3 C9 1_555 1_555
C15 C16 1_555 1_555
C19 C20 1_555 1_555
C25 C26 1_555 1_555
C29 C30 1_555 1_555
C33 C36 1_555 1_555
C34 C35 1_555 1_555
C39 C40 1_555 1_555
C43 C47 1_555 1_555

#END
