
#######################################################################
#
#                 Cambridge Crystallographic Data Centre
#                                CCDC 
#
#######################################################################
#
# If this CIF has been generated from an entry in the Cambridge 
# Structural Database, then it will include bibliographic, chemical, 
# crystal, experimental, refinement or atomic coordinate data resulting 
# from the CCDC's data processing and validation procedures.
#
#######################################################################

data_QEPYEQ
_symmetry_cell_setting           triclinic
_symmetry_space_group_name_H-M   'P -1'
_symmetry_Int_Tables_number      2
_space_group_name_Hall           '-P 1'
loop_
_symmetry_equiv_pos_site_id
_symmetry_equiv_pos_as_xyz
1 x,y,z
2 -x,-y,-z
_cell_length_a                   10.526(2)
_cell_length_b                   13.321(3)
_cell_length_c                   14.546(3)
_cell_angle_alpha                71.45(3)
_cell_angle_beta                 86.66(3)
_cell_angle_gamma                74.71(3)
_cell_volume                     1864.45
loop_
_atom_site_label
_atom_site_type_symbol
_atom_site_fract_x
_atom_site_fract_y
_atom_site_fract_z
Ag1 Ag 1.08581(3) 0.08646(3) 0.46708(3)
O1 O 1.2180(4) -0.0368(3) 0.6205(3)
O2 O 1.0801(3) -0.1370(3) 0.6931(3)
C1 C 1.1879(5) -0.1166(4) 0.6797(3)
C2 C 1.3039(6) -0.1986(5) 0.7434(4)
F1 F 1.3242(5) -0.1738(4) 0.8196(3)
F2 F 1.2966(5) -0.3007(3) 0.7684(4)
F3 F 1.4195(4) -0.2033(4) 0.6957(4)
N1 N 0.9167(3) 0.1577(3) 0.5407(3)
C3 C 0.9111(4) 0.1246(4) 0.6381(3)
H1 H 0.9838 0.0712 0.6754
C4 C 0.8023(4) 0.1665(4) 0.6849(3)
H2 H 0.8017 0.1434 0.7538
C5 C 0.6943(4) 0.2418(3) 0.6320(3)
H3 H 0.6179 0.2693 0.6638
C6 C 0.6991(4) 0.2767(3) 0.5318(3)
C7 C 0.8125(4) 0.2336(3) 0.4889(3)
H4 H 0.8170 0.2586 0.4202
C8 C 0.5859(4) 0.3576(3) 0.4680(3)
H5 H 0.5635 0.3280 0.4184
H6 H 0.5072 0.3725 0.5072
O3 O 0.6262(3) 0.4561(2) 0.4224(2)
C9 C 0.5628(4) 0.5278(3) 0.3380(3)
C10 C 0.4447(4) 0.5195(4) 0.3032(4)
H7 H 0.4066 0.4617 0.3383
C11 C 0.3855(4) 0.5939(4) 0.2196(4)
H8 H 0.3063 0.5872 0.1969
C12 C 0.4388(4) 0.6808(4) 0.1659(3)
C13 C 0.3795(5) 0.7602(4) 0.0777(4)
H9 H 0.2991 0.7564 0.0542
C14 C 0.4362(6) 0.8411(4) 0.0266(4)
H10 H 0.3949 0.8934 -0.0317
C15 C 0.5556(5) 0.8479(4) 0.0598(4)
H11 H 0.5953 0.9040 0.0230
C16 C 0.6149(4) 0.7740(4) 0.1448(3)
H12 H 0.6953 0.7799 0.1664
C17 C 0.5585(4) 0.6890(3) 0.2011(3)
C18 C 0.6187(4) 0.6122(3) 0.2894(3)
C19 C 0.7409(4) 0.6223(3) 0.3296(3)
C20 C 0.8653(4) 0.5465(3) 0.3272(3)
C21 C 0.8785(4) 0.4612(4) 0.2870(4)
H13 H 0.8029 0.4532 0.2603
C22 C 0.9981(5) 0.3896(4) 0.2857(4)
H14 H 1.0046 0.3319 0.2591
C23 C 1.1123(5) 0.4011(4) 0.3238(4)
H15 H 1.1956 0.3523 0.3216
C24 C 1.1024(4) 0.4828(4) 0.3640(4)
H16 H 1.1792 0.4895 0.3902
C25 C 0.9797(4) 0.5575(4) 0.3670(3)
C26 C 0.9680(4) 0.6405(4) 0.4080(3)
H17 H 1.0439 0.6468 0.4357
C27 C 0.8484(4) 0.7140(4) 0.4093(3)
H18 H 0.8426 0.7708 0.4369
C28 C 0.7355(4) 0.7044(3) 0.3698(3)
O4 O 0.6125(3) 0.7746(2) 0.3682(2)
C29 C 0.6013(4) 0.8671(4) 0.4017(4)
H19 H 0.6773 0.8990 0.3806
H20 H 0.5993 0.8445 0.4734
C30 C 0.4746(4) 0.9499(3) 0.3580(4)
C31 C 0.4588(5) 0.9970(4) 0.2580(4)
H21 H 0.5269 0.9772 0.2163
C32 C 0.3415(5) 1.0736(4) 0.2203(4)
H22 H 0.3291 1.1084 0.1523
C33 C 0.2433(5) 1.0989(4) 0.2823(4)
H23 H 0.1628 1.1504 0.2556
N2 N 0.2569(3) 1.0538(3) 0.3783(3)
C34 C 0.3719(4) 0.9804(3) 0.4155(3)
H24 H 0.3824 0.9484 0.4839
Ag1A Ag 0.91419(3) -0.08646(3) 0.53292(3)
Ag1_2 Ag 0.08581(3) 1.08646(3) 0.46708(3)
N2_2 N 1.2569(3) 0.0538(3) 0.3783(3)
C35 C 0.8499(8) 0.9349(8) 0.1535(6)
H25 H 0.8072 1.0103 0.1146
H26 H 0.9167 0.9356 0.1973
H27 H 0.7838 0.9008 0.1916
C36 C 0.9134(6) 0.8716(6) 0.0885(5)
C37 C 0.9794(7) 0.7633(7) 0.1280(6)
H28 H 0.9856 0.7309 0.1965
C38 C 1.0379(8) 0.6998(8) 0.0684(10)
H29 H 1.0785 0.6236 0.0950
C39 C 1.0339(9) 0.7540(12) -0.0338(9)
H30 H 1.0775 0.7153 -0.0763
C40 C 0.9690(9) 0.8585(9) -0.0690(6)
H31 H 0.9661 0.8941 -0.1370
C41 C 0.9074(8) 0.9151(7) -0.0105(5)
H32 H 0.8574 0.9886 -0.0391
O5 O 1.2964(14) 0.3784(11) 0.1295(8)
C42 C 1.2042(15) 0.3726(14) 0.0754(10)
H33 H 1.1164 0.3974 0.1011
H34 H 1.2166 0.2957 0.0772
C43 C 1.2108(12) 0.4401(11) -0.0223(8)
H35 H 1.1317 0.5028 -0.0409
H36 H 1.2192 0.3975 -0.0680
C44 C 1.3288(13) 0.4774(9) -0.0207(10)
H37 H 1.3065 0.5553 -0.0237
H38 H 1.3871 0.4670 -0.0747
C45 C 1.3913(13) 0.4018(11) 0.0774(9)
H39 H 1.4534 0.3346 0.0704
H40 H 1.4395 0.4394 0.1064
loop_
_geom_bond_atom_site_label_1
_geom_bond_atom_site_label_2
_geom_bond_site_symmetry_1
_geom_bond_site_symmetry_2
Ag1 O1 1_555 1_555
O1 C1 1_555 1_555
O2 C1 1_555 1_555
C1 C2 1_555 1_555
C2 F1 1_555 1_555
F2 C2 1_555 1_555
F3 C2 1_555 1_555
N1 Ag1 1_555 1_555
C3 N1 1_555 1_555
H1 C3 1_555 1_555
C4 C3 1_555 1_555
H2 C4 1_555 1_555
C5 C4 1_555 1_555
H3 C5 1_555 1_555
C6 C5 1_555 1_555
C7 N1 1_555 1_555
H4 C7 1_555 1_555
C8 C6 1_555 1_555
H5 C8 1_555 1_555
H6 C8 1_555 1_555
O3 C8 1_555 1_555
C9 O3 1_555 1_555
C10 C9 1_555 1_555
H7 C10 1_555 1_555
C11 C10 1_555 1_555
H8 C11 1_555 1_555
C12 C11 1_555 1_555
C13 C12 1_555 1_555
H9 C13 1_555 1_555
C14 C13 1_555 1_555
H10 C14 1_555 1_555
C15 C14 1_555 1_555
H11 C15 1_555 1_555
C16 C15 1_555 1_555
H12 C16 1_555 1_555
C17 C12 1_555 1_555
C18 C9 1_555 1_555
C19 C18 1_555 1_555
C20 C19 1_555 1_555
C21 C20 1_555 1_555
H13 C21 1_555 1_555
C22 C21 1_555 1_555
H14 C22 1_555 1_555
C23 C22 1_555 1_555
H15 C23 1_555 1_555
C24 C23 1_555 1_555
H16 C24 1_555 1_555
C25 C20 1_555 1_555
C26 C25 1_555 1_555
H17 C26 1_555 1_555
C27 C26 1_555 1_555
H18 C27 1_555 1_555
C28 C19 1_555 1_555
O4 C28 1_555 1_555
C29 O4 1_555 1_555
H19 C29 1_555 1_555
H20 C29 1_555 1_555
C30 C29 1_555 1_555
C31 C30 1_555 1_555
H21 C31 1_555 1_555
C32 C31 1_555 1_555
H22 C32 1_555 1_555
C33 C32 1_555 1_555
H23 C33 1_555 1_555
N2 C33 1_555 1_555
C34 C30 1_555 1_555
H24 C34 1_555 1_555
C35 H25 1_555 1_555
H26 C35 1_555 1_555
H27 C35 1_555 1_555
C36 C35 1_555 1_555
C37 C36 1_555 1_555
H28 C37 1_555 1_555
C38 C37 1_555 1_555
H29 C38 1_555 1_555
C39 C38 1_555 1_555
H30 C39 1_555 1_555
C40 C39 1_555 1_555
H31 C40 1_555 1_555
C41 C36 1_555 1_555
H32 C41 1_555 1_555
O5 C42 1_555 1_555
C42 H33 1_555 1_555
H34 C42 1_555 1_555
C43 C42 1_555 1_555
H35 C43 1_555 1_555
H36 C43 1_555 1_555
C44 C43 1_555 1_555
H37 C44 1_555 1_555
H38 C44 1_555 1_555
C45 O5 1_555 1_555
H39 C45 1_555 1_555
H40 C45 1_555 1_555
Ag1A Ag1 1_555 1_555
Ag1_2 N2 1_555 1_555
N2_2 Ag1 1_555 1_555
C6 C7 1_555 1_555
C16 C17 1_555 1_555
C17 C18 1_555 1_555
C24 C25 1_555 1_555
C27 C28 1_555 1_555
N2 C34 1_555 1_555
C40 C41 1_555 1_555
C44 C45 1_555 1_555

#END
