
#######################################################################
#
#                 Cambridge Crystallographic Data Centre
#                                CCDC 
#
#######################################################################
#
# If this CIF has been generated from an entry in the Cambridge 
# Structural Database, then it will include bibliographic, chemical, 
# crystal, experimental, refinement or atomic coordinate data resulting 
# from the CCDC's data processing and validation procedures.
#
#######################################################################

data_QEPYUG
_symmetry_cell_setting           monoclinic
_symmetry_space_group_name_H-M   'P 21/n'
_symmetry_Int_Tables_number      14
_space_group_name_Hall           '-P 2yn'
loop_
_symmetry_equiv_pos_site_id
_symmetry_equiv_pos_as_xyz
1 x,y,z
2 1/2-x,1/2+y,1/2-z
3 -x,-y,-z
4 1/2+x,1/2-y,1/2+z
_cell_length_a                   11.899(2)
_cell_length_b                   15.757(3)
_cell_length_c                   14.915(3)
_cell_angle_alpha                90
_cell_angle_beta                 99.14(3)
_cell_angle_gamma                90
_cell_volume                     2760.95
loop_
_atom_site_label
_atom_site_type_symbol
_atom_site_fract_x
_atom_site_fract_y
_atom_site_fract_z
Hg1 Hg 0.877120(13) 0.556521(10) 0.563811(12)
N1 N 0.8390(3) 0.65764(19) 0.6822(2)
C1 C 0.9079(3) 0.7245(2) 0.7061(3)
H1 H 0.9654 0.7371 0.6706
C2 C 0.8989(3) 0.7750(3) 0.7791(3)
H2 H 0.9502 0.8209 0.7943
C3 C 0.8147(3) 0.7589(2) 0.8301(3)
H3 H 0.8066 0.7937 0.8807
C4 C 0.7418(3) 0.6908(2) 0.8065(3)
C5 C 0.7594(3) 0.6426(2) 0.7338(3)
H4 H 0.7114 0.5948 0.7190
C6 C 0.6489(3) 0.6697(2) 0.8603(3)
H5 H 0.6223 0.7217 0.8877
H6 H 0.5835 0.6436 0.8204
O1 O 0.6959(2) 0.61106(15) 0.92989(19)
C7 C 0.6360(3) 0.5982(2) 0.9998(3)
C8 C 0.5166(3) 0.6099(2) 0.9904(3)
H7 H 0.4754 0.6315 0.9354
C9 C 0.4616(3) 0.5900(2) 1.0606(3)
H8 H 0.3816 0.5981 1.0538
Cl1 Cl 0.71339(11) 0.47495(8) 0.57224(10)
Cl2 Cl 1.07832(9) 0.57546(7) 0.59288(9)
C10 C 0.5199(3) 0.5576(2) 1.1436(3)
C11 C 0.4638(3) 0.5337(2) 1.2165(3)
H9 H 0.3831 0.5369 1.2089
C12 C 0.5224(3) 0.5060(2) 1.2979(3)
H10 H 0.4831 0.4899 1.3459
C13 C 0.6423(3) 0.5020(2) 1.3090(3)
H11 H 0.6843 0.4850 1.3657
C14 C 0.6985(3) 0.5224(2) 1.2388(3)
H12 H 0.7791 0.5180 1.2477
C15 C 0.6412(3) 0.5495(2) 1.1542(3)
C16 C 0.6982(3) 0.5697(2) 1.0801(3)
C17 C 0.8249(3) 0.5626(2) 1.0898(3)
C18 C 0.8925(3) 0.6373(2) 1.0900(3)
C19 C 0.8439(3) 0.7194(2) 1.0775(3)
H13 H 0.7635 0.7254 1.0695
C20 C 0.9105(3) 0.7903(3) 1.0768(3)
H14 H 0.8758 0.8445 1.0670
C21 C 1.0304(3) 0.7832(2) 1.0905(3)
H15 H 1.0761 0.8325 1.0894
C22 C 1.0803(3) 0.7054(2) 1.1052(3)
H16 H 1.1609 0.7012 1.1164
C23 C 1.0136(3) 0.6306(2) 1.1041(3)
C24 C 1.0636(3) 0.5494(2) 1.1178(3)
H17 H 1.1441 0.5443 1.1287
C25 C 0.9980(3) 0.4781(2) 1.1158(3)
H18 H 1.0331 0.4239 1.1242
C26 C 0.8786(3) 0.4849(2) 1.1011(3)
O2 O 0.80831(19) 0.41477(15) 1.0950(2)
C27 C 0.8577(3) 0.3373(2) 1.1329(3)
H19 H 0.8963 0.3468 1.1960
H20 H 0.9146 0.3161 1.0965
C28 C 0.7626(3) 0.2738(2) 1.1316(3)
C29 C 0.6916(3) 0.2751(2) 1.1971(3)
H21 H 0.7028 0.3157 1.2448
C30 C 0.6045(3) 0.2166(2) 1.1918(3)
H22 H 0.5555 0.2157 1.2362
C31 C 0.5902(3) 0.1598(2) 1.1216(3)
H23 H 0.5291 0.1205 1.1178
N2 N 0.6574(2) 0.15666(18) 1.0580(2)
C32 C 0.7435(3) 0.2134(2) 1.0640(3)
H24 H 0.7928 0.2117 1.0199
Hg1A Hg 0.622880(13) 0.056521(10) 0.936189(12)
N2A N 0.8426(2) 0.65666(18) 0.4420(2)
loop_
_geom_bond_atom_site_label_1
_geom_bond_atom_site_label_2
_geom_bond_site_symmetry_1
_geom_bond_site_symmetry_2
Hg1 N1 1_555 1_555
N1 C1 1_555 1_555
C1 H1 1_555 1_555
C2 C1 1_555 1_555
H2 C2 1_555 1_555
C3 C2 1_555 1_555
H3 C3 1_555 1_555
C4 C3 1_555 1_555
C5 N1 1_555 1_555
H4 C5 1_555 1_555
C6 C4 1_555 1_555
H5 C6 1_555 1_555
H6 C6 1_555 1_555
O1 C6 1_555 1_555
C7 O1 1_555 1_555
C8 C7 1_555 1_555
H7 C8 1_555 1_555
C9 C8 1_555 1_555
H8 C9 1_555 1_555
Cl1 Hg1 1_555 1_555
Cl2 Hg1 1_555 1_555
C10 C9 1_555 1_555
C11 C10 1_555 1_555
H9 C11 1_555 1_555
C12 C11 1_555 1_555
H10 C12 1_555 1_555
C13 C12 1_555 1_555
H11 C13 1_555 1_555
C14 C13 1_555 1_555
H12 C14 1_555 1_555
C15 C10 1_555 1_555
C16 C7 1_555 1_555
C17 C16 1_555 1_555
C18 C17 1_555 1_555
C19 C18 1_555 1_555
H13 C19 1_555 1_555
C20 C19 1_555 1_555
H14 C20 1_555 1_555
C21 C20 1_555 1_555
H15 C21 1_555 1_555
C22 C21 1_555 1_555
H16 C22 1_555 1_555
C23 C18 1_555 1_555
C24 C23 1_555 1_555
H17 C24 1_555 1_555
C25 C24 1_555 1_555
H18 C25 1_555 1_555
C26 C17 1_555 1_555
O2 C26 1_555 1_555
C27 O2 1_555 1_555
H19 C27 1_555 1_555
H20 C27 1_555 1_555
C28 C27 1_555 1_555
C29 C28 1_555 1_555
H21 C29 1_555 1_555
C30 C29 1_555 1_555
H22 C30 1_555 1_555
C31 C30 1_555 1_555
H23 C31 1_555 1_555
N2 C31 1_555 1_555
C32 C28 1_555 1_555
H24 C32 1_555 1_555
Hg1A N2 1_555 1_555
N2A Hg1 1_555 1_555
C4 C5 1_555 1_555
C14 C15 1_555 1_555
C15 C16 1_555 1_555
C22 C23 1_555 1_555
C25 C26 1_555 1_555
N2 C32 1_555 1_555

#END
