
#######################################################################
#
#                 Cambridge Crystallographic Data Centre
#                                CCDC 
#
#######################################################################
#
# If this CIF has been generated from an entry in the Cambridge 
# Structural Database, then it will include bibliographic, chemical, 
# crystal, experimental, refinement or atomic coordinate data resulting 
# from the CCDC's data processing and validation procedures.
#
#######################################################################

data_QEPYOA
_symmetry_cell_setting           triclinic
_symmetry_space_group_name_H-M   'P -1'
_symmetry_Int_Tables_number      2
_space_group_name_Hall           '-P 1'
loop_
_symmetry_equiv_pos_site_id
_symmetry_equiv_pos_as_xyz
1 x,y,z
2 -x,-y,-z
_cell_length_a                   10.012(2)
_cell_length_b                   13.206(3)
_cell_length_c                   15.098(3)
_cell_angle_alpha                76.28(3)
_cell_angle_beta                 72.97(3)
_cell_angle_gamma                80.64(3)
_cell_volume                     1844.89
loop_
_atom_site_label
_atom_site_type_symbol
_atom_site_fract_x
_atom_site_fract_y
_atom_site_fract_z
C37 C -0.756(2) 1.051(2) -0.3963(16)
H25 H -0.7672 1.1218 -0.3823
H26 H -0.8162 1.0509 -0.4379
Cl1 Cl -0.5834(14) 1.0161(12) -0.4500(9)
Cl2 Cl -0.7998(13) 0.9620(11) -0.2964(9)
C37A C -0.244(2) 0.949(2) -0.6037(16)
H25A H -0.2328 0.8782 -0.6177
H26A H -0.1838 0.9491 -0.5621
Cl1A Cl -0.4166(14) 0.9839(12) -0.5500(9)
Cl2A Cl -0.2002(13) 1.0380(11) -0.7036(9)
O7 O -0.8989(11) 1.4905(8) -1.1414(7)
H27 H -0.8204 1.4718 -1.1299
C38 C -0.9951(15) 1.4175(11) -1.0849(10)
H28 H -1.0239 1.4277 -1.0195
H29 H -0.9500 1.3461 -1.0867
H30 H -1.0778 1.4282 -1.1094
Hg1 Hg -0.11443(5) 1.56016(4) -0.59711(3)
O1 O -0.1801(8) 1.3806(6) -0.5817(6)
O2 O -0.0246(9) 1.3563(8) -0.4968(6)
C1 C -0.1192(13) 1.3307(10) -0.5233(8)
C2 C -0.1664(16) 1.2231(12) -0.4717(11)
F1 F -0.2038(16) 1.1746(12) -0.5291(10)
F2 F -0.2810(16) 1.2346(11) -0.4017(10)
F3 F -0.0738(14) 1.1600(10) -0.4306(9)
O3 O -0.2583(9) 1.6199(7) -0.7209(5)
O4 O -0.1842(9) 1.7546(7) -0.6925(6)
C3 C -0.2528(13) 1.7165(11) -0.7304(9)
C4 C -0.3375(17) 1.7918(13) -0.7910(11)
F7 F -0.3109(16) 1.7673(13) -0.8758(10)
F8 F -0.4725(18) 1.7862(15) -0.7542(13)
F9 F -0.3097(16) 1.8902(12) -0.8125(10)
N1 N 0.0917(9) 1.5555(8) -0.6928(6)
N2 N 0.7049(10) 1.5920(8) -1.4864(6)
O5 O 0.4728(8) 1.6333(7) -0.9664(5)
O6 O 0.3989(7) 1.7021(7) -1.2071(5)
C5 C 0.1641(12) 1.4653(10) -0.7091(7)
H1 H 0.1238 1.4013 -0.6792
C6 C 0.2950(13) 1.4640(11) -0.7682(8)
H2 H 0.3470 1.3987 -0.7775
C7 C 0.3553(12) 1.5570(11) -0.8160(8)
C8 C 0.2771(12) 1.6501(10) -0.7947(8)
H3 H 0.3151 1.7152 -0.8230
C9 C 0.1447(12) 1.6476(11) -0.7327(8)
H4 H 0.0914 1.7108 -0.7183
C10 C 0.4981(11) 1.5593(10) -0.8865(7)
H5 H 0.5670 1.5821 -0.8617
H6 H 0.5332 1.4895 -0.9024
C11 C 0.5832(11) 1.6784(9) -1.0379(7)
C12 C 0.7248(12) 1.6410(11) -1.0452(8)
H7 H 0.7506 1.5867 -0.9976
C13 C 0.8243(12) 1.6840(10) -1.1220(8)
H8 H 0.9197 1.6567 -1.1290
C14 C 0.7896(12) 1.7683(10) -1.1917(8)
C15 C 0.8889(13) 1.8134(11) -1.2714(9)
H9 H 0.9850 1.7870 -1.2803
C16 C 0.8513(14) 1.8932(11) -1.3357(9)
H10 H 0.9217 1.9215 -1.3895
C17 C 0.7126(14) 1.9361(10) -1.3264(9)
H11 H 0.6884 1.9940 -1.3719
C18 C 0.6147(13) 1.8938(9) -1.2520(8)
H12 H 0.5199 1.9226 -1.2455
C19 C 0.6455(12) 1.8070(9) -1.1813(8)
C20 C 0.5420(11) 1.7611(9) -1.1024(8)
C21 C 0.3884(11) 1.7910(9) -1.0889(7)
C22 C 0.3115(13) 1.8478(10) -1.0180(8)
C23 C 0.3813(13) 1.8896(9) -0.9666(8)
H13 H 0.4808 1.8819 -0.9808
C24 C 0.3027(16) 1.9408(11) -0.8964(10)
H14 H 0.3495 1.9704 -0.8638
C25 C 0.1553(15) 1.9509(11) -0.8711(9)
H15 H 0.1033 1.9827 -0.8195
C26 C 0.0891(13) 1.9151(10) -0.9210(9)
H16 H -0.0106 1.9236 -0.9047
C27 C 0.1623(13) 1.8649(9) -0.9970(8)
C28 C 0.0962(12) 1.8288(11) -1.0524(8)
H17 H -0.0029 1.8426 -1.0411
C29 C 0.1691(11) 1.7742(10) -1.1224(8)
H18 H 0.1214 1.7495 -1.1578
C30 C 0.3165(11) 1.7561(9) -1.1398(8)
C31 C 0.3410(12) 1.6799(11) -1.2769(8)
H19 H 0.2830 1.7422 -1.3019
H20 H 0.2821 1.6209 -1.2492
C32 C 0.4630(11) 1.6524(10) -1.3521(8)
C33 C 0.4856(11) 1.5526(10) -1.3742(8)
H21 H 0.4189 1.5032 -1.3435
C34 C 0.6079(11) 1.5266(10) -1.4421(8)
H22 H 0.6219 1.4591 -1.4570
C35 C 0.5638(13) 1.7200(10) -1.3999(8)
H23 H 0.5521 1.7887 -1.3876
C36 C 0.6823(13) 1.6881(11) -1.4660(8)
H24 H 0.7503 1.7361 -1.4981
Hg1A Hg 0.11443(5) 1.43984(4) -0.40289(3)
Hg1_2 Hg 0.88557(5) 1.56016(4) -1.59711(3)
Hg1_3 Hg -1.11443(5) 1.56016(4) 0.40289(3)
O1A O 0.1801(8) 1.6194(6) -0.4183(6)
O2A O 0.0246(9) 1.6437(8) -0.5032(6)
C1A C 0.1192(13) 1.6693(10) -0.4767(8)
C2A C 0.1664(16) 1.7769(12) -0.5283(11)
F1A F 0.2038(16) 1.8254(12) -0.4709(10)
F2A F 0.2810(16) 1.7654(11) -0.5983(10)
F3A F 0.0738(14) 1.8400(10) -0.5694(9)
O3A O 0.2583(9) 1.3801(7) -0.2791(5)
O4A O 0.1842(9) 1.2454(7) -0.3075(6)
C3A C 0.2528(13) 1.2835(11) -0.2696(9)
C4A C 0.3375(17) 1.2082(13) -0.2090(11)
F7A F 0.3109(16) 1.2327(13) -0.1242(10)
F8A F 0.4725(18) 1.2138(15) -0.2458(13)
F9A F 0.3097(16) 1.1098(12) -0.1875(10)
N1_2 N -0.9083(9) 1.5555(8) 0.3072(6)
N1A N -0.0917(9) 1.4445(8) -0.3072(6)
N2_2 N -0.2951(10) 1.5920(8) -0.4864(6)
N2A N 0.2951(10) 1.4080(8) -0.5136(6)
O5_2 O -0.5272(8) 1.6333(7) 0.0336(5)
O6_2 O -0.6011(7) 1.7021(7) -0.2071(5)
C5_2 C -0.8359(12) 1.4653(10) 0.2909(7)
H1_2 H -0.8762 1.4013 0.3208
C6_2 C -0.7050(13) 1.4640(11) 0.2318(8)
H2_2 H -0.6530 1.3987 0.2225
C7_2 C -0.6447(12) 1.5570(11) 0.1840(8)
C8_2 C -0.7229(12) 1.6501(10) 0.2053(8)
H3_2 H -0.6849 1.7152 0.1770
C9_2 C -0.8553(12) 1.6476(11) 0.2673(8)
H4_2 H -0.9086 1.7108 0.2817
C10_2 C -0.5019(11) 1.5593(10) 0.1135(7)
H5_2 H -0.4330 1.5821 0.1383
H6_2 H -0.4668 1.4895 0.0976
C11_2 C -0.4168(11) 1.6784(9) -0.0379(7)
C12_2 C -0.2752(12) 1.6410(11) -0.0452(8)
H7_2 H -0.2494 1.5867 0.0024
C13_2 C -0.1757(12) 1.6840(10) -0.1220(8)
H8_2 H -0.0803 1.6567 -0.1290
C14_2 C -0.2104(12) 1.7683(10) -0.1917(8)
C15_2 C -0.1111(13) 1.8134(11) -0.2714(9)
H9_2 H -0.0150 1.7870 -0.2803
C16_2 C -0.1487(14) 1.8932(11) -0.3357(9)
H10_2 H -0.0783 1.9215 -0.3895
C17_2 C -0.2874(14) 1.9361(10) -0.3264(9)
H11_2 H -0.3116 1.9940 -0.3719
C18_2 C -0.3853(13) 1.8938(9) -0.2520(8)
H12_2 H -0.4801 1.9226 -0.2455
C19_2 C -0.3545(12) 1.8070(9) -0.1813(8)
C20_2 C -0.4580(11) 1.7611(9) -0.1024(8)
C21_2 C -0.6116(11) 1.7910(9) -0.0889(7)
C22_2 C -0.6885(13) 1.8478(10) -0.0180(8)
C23_2 C -0.6187(13) 1.8896(9) 0.0334(8)
H13_2 H -0.5192 1.8819 0.0192
C24_2 C -0.6973(16) 1.9408(11) 0.1036(10)
H14_2 H -0.6505 1.9704 0.1362
C25_2 C -0.8447(15) 1.9509(11) 0.1289(9)
H15_2 H -0.8967 1.9827 0.1805
C26_2 C -0.9109(13) 1.9151(10) 0.0790(9)
H16_2 H -1.0106 1.9236 0.0953
C27_2 C -0.8377(13) 1.8649(9) 0.0030(8)
C28_2 C -0.9038(12) 1.8288(11) -0.0524(8)
H17_2 H -1.0029 1.8426 -0.0411
C29_2 C -0.8309(11) 1.7742(10) -0.1224(8)
H18_2 H -0.8786 1.7495 -0.1578
C30_2 C -0.6835(11) 1.7561(9) -0.1398(8)
C31_2 C -0.6590(12) 1.6799(11) -0.2769(8)
H19_2 H -0.7170 1.7422 -0.3019
H20_2 H -0.7179 1.6209 -0.2492
C32_2 C -0.5370(11) 1.6524(10) -0.3521(8)
C33_2 C -0.5144(11) 1.5526(10) -0.3742(8)
H21_2 H -0.5811 1.5032 -0.3435
C34_2 C -0.3921(11) 1.5266(10) -0.4421(8)
H22_2 H -0.3781 1.4591 -0.4570
C35_2 C -0.4362(13) 1.7200(10) -0.3999(8)
H23_2 H -0.4479 1.7887 -0.3876
C36_2 C -0.3177(13) 1.6881(11) -0.4660(8)
H24_2 H -0.2497 1.7361 -0.4981
F4? F -0.190(4) 1.196(3) -0.383(2)
F5? F -0.338(4) 1.251(3) -0.447(3)
F6? F -0.159(3) 1.153(2) -0.518(2)
F10? F -0.444(2) 1.7494(19) -0.7972(17)
F11? F -0.261(3) 1.821(3) -0.880(2)
F12? F -0.405(3) 1.869(2) -0.7494(17)
loop_
_geom_bond_atom_site_label_1
_geom_bond_atom_site_label_2
_geom_bond_site_symmetry_1
_geom_bond_site_symmetry_2
Hg1 O1 1_555 1_555
O1 C1 1_555 1_555
O2 C1 1_555 1_555
C1 C2 1_555 1_555
C2 F1 1_555 1_555
F2 C2 1_555 1_555
F3 C2 1_555 1_555
O3 Hg1 1_555 1_555
O4 Hg1 1_555 1_555
C3 O3 1_555 1_555
C4 C3 1_555 1_555
F7 C4 1_555 1_555
F8 C4 1_555 1_555
F9 C4 1_555 1_555
N1 Hg1 1_555 1_555
N2 C34 1_555 1_555
O5 C10 1_555 1_555
O6 C30 1_555 1_555
C5 N1 1_555 1_555
H1 C5 1_555 1_555
C6 C5 1_555 1_555
H2 C6 1_555 1_555
C7 C6 1_555 1_555
C8 C7 1_555 1_555
H3 C8 1_555 1_555
C9 N1 1_555 1_555
H4 C9 1_555 1_555
C10 C7 1_555 1_555
H5 C10 1_555 1_555
H6 C10 1_555 1_555
C11 O5 1_555 1_555
C12 C11 1_555 1_555
H7 C12 1_555 1_555
C13 C12 1_555 1_555
H8 C13 1_555 1_555
C14 C13 1_555 1_555
C15 C14 1_555 1_555
H9 C15 1_555 1_555
C16 C15 1_555 1_555
H10 C16 1_555 1_555
C17 C16 1_555 1_555
H11 C17 1_555 1_555
C18 C17 1_555 1_555
H12 C18 1_555 1_555
C19 C14 1_555 1_555
C20 C11 1_555 1_555
C21 C20 1_555 1_555
C22 C21 1_555 1_555
C23 C22 1_555 1_555
H13 C23 1_555 1_555
C24 C23 1_555 1_555
H14 C24 1_555 1_555
C25 C24 1_555 1_555
H15 C25 1_555 1_555
C26 C25 1_555 1_555
H16 C26 1_555 1_555
C27 C22 1_555 1_555
C28 C27 1_555 1_555
H17 C28 1_555 1_555
C29 C28 1_555 1_555
H18 C29 1_555 1_555
C30 C21 1_555 1_555
C31 O6 1_555 1_555
H19 C31 1_555 1_555
H20 C31 1_555 1_555
C32 C31 1_555 1_555
C33 C32 1_555 1_555
H21 C33 1_555 1_555
C34 C33 1_555 1_555
H22 C34 1_555 1_555
C35 C32 1_555 1_555
H23 C35 1_555 1_555
C36 N2 1_555 1_555
H24 C36 1_555 1_555
C37 H25 1_555 1_555
H26 C37 1_555 1_555
Cl1 C37 1_555 1_555
Cl2 C37 1_555 1_555
O7 H27 1_555 1_555
C38 O7 1_555 1_555
H28 C38 1_555 1_555
H29 C38 1_555 1_555
H30 C38 1_555 1_555
Hg1A O2 1_555 1_555
Hg1_2 N2 1_555 1_555
Hg1_3 N1_2 1_555 1_555
O1A Hg1A 1_555 1_555
O2A Hg1 1_555 1_555
C1A O1A 1_555 1_555
C2A C1A 1_555 1_555
F1A C2A 1_555 1_555
F2A C2A 1_555 1_555
F3A C2A 1_555 1_555
O3A Hg1A 1_555 1_555
O4A Hg1A 1_555 1_555
C3A O3A 1_555 1_555
C4A C3A 1_555 1_555
F7A C4A 1_555 1_555
F8A C4A 1_555 1_555
F9A C4A 1_555 1_555
N1_2 C5_2 1_555 1_555
N1A Hg1A 1_555 1_555
N2_2 Hg1 1_555 1_555
N2A Hg1A 1_555 1_555
O5_2 C10_2 1_555 1_555
O6_2 C30_2 1_555 1_555
C5_2 H1_2 1_555 1_555
C6_2 C5_2 1_555 1_555
H2_2 C6_2 1_555 1_555
C7_2 C6_2 1_555 1_555
C8_2 C7_2 1_555 1_555
H3_2 C8_2 1_555 1_555
C9_2 N1_2 1_555 1_555
H4_2 C9_2 1_555 1_555
C10_2 C7_2 1_555 1_555
H5_2 C10_2 1_555 1_555
H6_2 C10_2 1_555 1_555
C11_2 O5_2 1_555 1_555
C12_2 C11_2 1_555 1_555
H7_2 C12_2 1_555 1_555
C13_2 C12_2 1_555 1_555
H8_2 C13_2 1_555 1_555
C14_2 C13_2 1_555 1_555
C15_2 C14_2 1_555 1_555
H9_2 C15_2 1_555 1_555
C16_2 C15_2 1_555 1_555
H10_2 C16_2 1_555 1_555
C17_2 C16_2 1_555 1_555
H11_2 C17_2 1_555 1_555
C18_2 C17_2 1_555 1_555
H12_2 C18_2 1_555 1_555
C19_2 C14_2 1_555 1_555
C20_2 C11_2 1_555 1_555
C21_2 C20_2 1_555 1_555
C22_2 C21_2 1_555 1_555
C23_2 C22_2 1_555 1_555
H13_2 C23_2 1_555 1_555
C24_2 C23_2 1_555 1_555
H14_2 C24_2 1_555 1_555
C25_2 C24_2 1_555 1_555
H15_2 C25_2 1_555 1_555
C26_2 C25_2 1_555 1_555
H16_2 C26_2 1_555 1_555
C27_2 C22_2 1_555 1_555
C28_2 C27_2 1_555 1_555
H17_2 C28_2 1_555 1_555
C29_2 C28_2 1_555 1_555
H18_2 C29_2 1_555 1_555
C30_2 C21_2 1_555 1_555
C31_2 O6_2 1_555 1_555
H19_2 C31_2 1_555 1_555
H20_2 C31_2 1_555 1_555
C32_2 C31_2 1_555 1_555
C33_2 C32_2 1_555 1_555
H21_2 C33_2 1_555 1_555
C34_2 N2_2 1_555 1_555
H22_2 C34_2 1_555 1_555
C35_2 C32_2 1_555 1_555
H23_2 C35_2 1_555 1_555
C36_2 N2_2 1_555 1_555
H24_2 C36_2 1_555 1_555
C37A H25A 1_555 1_555
H26A C37A 1_555 1_555
Cl1A Cl1 1_555 1_555
Cl2A C37A 1_555 1_555
O4 C3 1_555 1_555
C8 C9 1_555 1_555
C18 C19 1_555 1_555
C19 C20 1_555 1_555
C26 C27 1_555 1_555
C29 C30 1_555 1_555
C35 C36 1_555 1_555
O2A C1A 1_555 1_555
O4A C3A 1_555 1_555
C8_2 C9_2 1_555 1_555
C18_2 C19_2 1_555 1_555
C19_2 C20_2 1_555 1_555
C26_2 C27_2 1_555 1_555
C29_2 C30_2 1_555 1_555
C33_2 C34_2 1_555 1_555
C35_2 C36_2 1_555 1_555
C37A Cl1A 1_555 1_555

#END
