
#######################################################################
#
#                 Cambridge Crystallographic Data Centre
#                                CCDC 
#
#######################################################################
#
# If this CIF has been generated from an entry in the Cambridge 
# Structural Database, then it will include bibliographic, chemical, 
# crystal, experimental, refinement or atomic coordinate data resulting 
# from the CCDC's data processing and validation procedures.
#
#######################################################################

data_QEPZOB
_symmetry_cell_setting           monoclinic
_symmetry_space_group_name_H-M   'P 21/c'
_symmetry_Int_Tables_number      14
_space_group_name_Hall           '-P 2ybc'
loop_
_symmetry_equiv_pos_site_id
_symmetry_equiv_pos_as_xyz
1 x,y,z
2 -x,1/2+y,1/2-z
3 -x,-y,-z
4 x,1/2-y,1/2+z
_cell_length_a                   12.770(3)
_cell_length_b                   30.195(7)
_cell_length_c                   16.428(4)
_cell_angle_alpha                90
_cell_angle_beta                 108.083(4)
_cell_angle_gamma                90
_cell_volume                     6021.6
loop_
_atom_site_label
_atom_site_type_symbol
_atom_site_fract_x
_atom_site_fract_y
_atom_site_fract_z
N1 N 0.6170(6) 0.2964(2) 0.7238(5)
C1 C 0.6496(7) 0.2902(2) 0.6514(4)
H1 H 0.6338 0.3116 0.6086
C2 C 0.7057(8) 0.2519(3) 0.6428(5)
H2 H 0.7275 0.2478 0.5943
C3 C 0.7293(7) 0.2199(2) 0.7066(5)
C4 C 0.6968(8) 0.2261(2) 0.7791(5)
H3 H 0.7126 0.2046 0.8219
C5 C 0.6407(8) 0.2644(3) 0.7877(4)
H4 H 0.6189 0.2685 0.8362
C6 C 0.9652(11) 0.2112(4) 0.7193(9)
H5 H 1.0390 0.2014 0.7263
H6 H 0.9636 0.2271 0.7695
H7 H 0.9410 0.2303 0.6703
C7 C 0.7777(6) 0.17593(19) 0.6949(6)
C8 C 0.8898(6) 0.1716(2) 0.7065(6)
C9 C 0.9361(5) 0.1298(3) 0.7087(6)
C10 C 0.8703(6) 0.09228(19) 0.6993(6)
C11 C 0.7582(6) 0.0966(2) 0.6877(6)
C12 C 0.7119(5) 0.1384(3) 0.6855(6)
C13 C 0.9195(12) 0.0455(4) 0.7053(9)
H8 H 0.8619 0.0239 0.6971
H9 H 0.9728 0.0414 0.7607
H10 H 0.9546 0.0418 0.6618
C14 C 0.5879(11) 0.1438(4) 0.6601(10)
H11 H 0.5701 0.1746 0.6620
H12 H 0.5600 0.1276 0.6992
H13 H 0.5550 0.1327 0.6031
C15 C 0.5478(6) 0.0023(3) 0.6258(4)
H14 H 0.5026 -0.0115 0.5769
N2 N 0.5445(6) -0.0109(2) 0.7061(4)
C16 C 0.6122(7) 0.0096(3) 0.7793(3)
H15 H 0.6099 0.0009 0.8330
C17 C 0.6832(6) 0.0432(3) 0.7723(4)
H16 H 0.7285 0.0570 0.8213
C18 C 0.6866(6) 0.0564(2) 0.6921(5)
C19 C 0.6189(7) 0.0359(3) 0.6188(4)
H17 H 0.6212 0.0447 0.5651
C20 C 1.2168(6) 0.1210(3) 0.6769(4)
C21 C 1.2855(4) 0.1224(3) 0.7611(5)
C22 C 1.2405(6) 0.1250(3) 0.8279(3)
C23 C 1.1268(6) 0.1263(3) 0.8105(4)
C24 C 1.0581(4) 0.1249(3) 0.7262(5)
C25 C 1.1032(6) 0.1223(3) 0.6594(3)
C26 C 1.4111(12) 0.1192(5) 0.7852(10)
H18 H 1.4427 0.1210 0.8463
H19 H 1.4383 0.1432 0.7590
H20 H 1.4310 0.0915 0.7654
C27 C 1.0758(10) 0.1275(5) 0.8832(8)
H21 H 1.1333 0.1285 0.9372
H22 H 1.0317 0.1015 0.8807
H23 H 1.0304 0.1534 0.8774
C28 C 1.0256(11) 0.1240(5) 0.5676(8)
H24 H 1.0676 0.1217 0.5284
H25 H 0.9860 0.1515 0.5584
H26 H 0.9743 0.0998 0.5582
N3 N 1.3406(7) 0.1162(2) 0.4622(4)
C29 C 1.3144(7) 0.0769(2) 0.4954(5)
H27 H 1.3223 0.0500 0.4703
C30 C 1.2764(7) 0.0778(2) 0.5660(5)
H28 H 1.2589 0.0515 0.5882
C31 C 1.2647(8) 0.1180(3) 0.6034(4)
C32 C 1.2909(7) 0.1573(2) 0.5702(5)
H29 H 1.2830 0.1842 0.5953
C33 C 1.3289(7) 0.1564(2) 0.4996(5)
H30 H 1.3464 0.1827 0.4774
N4 N 1.4403(6) 0.1455(2) 1.0883(3)
C34 C 1.4398(6) 0.1041(2) 1.0511(4)
H31 H 1.4822 0.0812 1.0827
C35 C 1.3760(7) 0.0970(2) 0.9667(5)
H32 H 1.3757 0.0693 0.9418
C36 C 1.3127(7) 0.1312(3) 0.9195(4)
C37 C 1.3132(7) 0.1725(2) 0.9568(5)
H33 H 1.2708 0.1954 0.9252
C38 C 1.3770(7) 0.1797(2) 1.0412(5)
H34 H 1.3773 0.2074 1.0661
C39 C 0.2095(13) 0.0107(5) 0.7899(10)
H35 H 0.1587 0.0116 0.7329
H36 H 0.2225 0.0402 0.8123
H37 H 0.1790 -0.0069 0.8257
C40 C 0.3180(12) -0.0097(4) 0.7878(11)
C41 C 1.0693(15) 0.0632(6) 0.1910(12)
H38 H 1.0429 0.0626 0.1296
H39 H 1.0622 0.0343 0.2130
H40 H 1.0267 0.0841 0.2117
C42 C 1.1925(14) 0.0774(6) 0.2214(12)
C43 C 0.2673(13) 0.2515(4) 0.7450(9)
H41 H 0.2973 0.2335 0.7093
H42 H 0.1907 0.2570 0.7161
H43 H 0.2751 0.2363 0.7979
C44 C 0.3270(13) 0.2939(5) 0.7629(10)
C45 C 0.7392(15) 0.3876(6) 0.7501(12)
H44 H 0.7556 0.3579 0.7372
H45 H 0.7905 0.3965 0.8038
H46 H 0.7450 0.4071 0.7057
C46 C 1.7178(11) 0.1449(4) 0.4708(8)
H47 H 1.7048 0.1763 0.4692
H48 H 1.7528 0.1358 0.5290
H49 H 1.7648 0.1379 0.4369
C47 C 1.6110(12) 0.1212(5) 0.4359(8)
Cu1 Cu 0.51410(13) 0.34458(5) 0.73053(9)
Cu2 Cu 1.38046(13) 0.11563(5) 0.35399(10)
Cu3 Cu 0.44655(13) -0.05925(5) 0.71960(9)
O1 O 0.4035(8) 0.2984(3) 0.7303(6)
O2 O 0.3010(8) 0.3212(3) 0.8078(6)
O3 O 0.6269(7) 0.3893(3) 0.7558(5)
O4 O 0.4348(7) 0.3957(3) 0.7566(5)
O5 O 1.5211(9) 0.1450(3) 0.4123(6)
O6 O 1.6098(7) 0.0797(3) 0.4322(5)
O7 O 1.2438(8) 0.0811(3) 0.3011(6)
O8 O 0.3256(7) -0.0193(3) 0.7140(6)
O9 O 1.2356(8) 0.0836(3) 0.1576(6)
O10 O 0.3960(8) -0.0145(3) 0.8553(6)
N4C N 0.4403(6) 0.3545(2) 0.5883(3)
Cu1C Cu 1.51410(13) 0.15542(5) 1.23053(9)
Cu2C Cu 0.38046(13) 0.38437(5) 0.85399(10)
Cu3A Cu 0.55345(13) 0.44075(5) 0.78040(9)
Cu3B Cu 1.55345(13) 0.05925(5) 0.28040(9)
O2C O 1.3010(8) 0.1788(3) 0.3078(6)
O3A O 0.3731(7) -0.1107(3) 0.7442(5)
O4C O 1.4348(7) 0.1043(3) 0.2566(5)
O4A O 0.5652(7) -0.1043(3) 0.7434(5)
O6B O 0.3902(7) -0.0797(3) 0.5678(5)
loop_
_geom_bond_atom_site_label_1
_geom_bond_atom_site_label_2
_geom_bond_site_symmetry_1
_geom_bond_site_symmetry_2
N1 C1 1_555 1_555
C1 H1 1_555 1_555
C2 C1 1_555 1_555
H2 C2 1_555 1_555
C3 C2 1_555 1_555
C4 C3 1_555 1_555
H3 C4 1_555 1_555
C5 N1 1_555 1_555
H4 C5 1_555 1_555
C6 H5 1_555 1_555
H6 C6 1_555 1_555
H7 C6 1_555 1_555
C7 C3 1_555 1_555
C8 C6 1_555 1_555
C9 C8 1_555 1_555
C10 C9 1_555 1_555
C11 C10 1_555 1_555
C12 C7 1_555 1_555
C13 C10 1_555 1_555
H8 C13 1_555 1_555
H9 C13 1_555 1_555
H10 C13 1_555 1_555
C14 C12 1_555 1_555
H11 C14 1_555 1_555
H12 C14 1_555 1_555
H13 C14 1_555 1_555
C15 H14 1_555 1_555
N2 C15 1_555 1_555
C16 N2 1_555 1_555
H15 C16 1_555 1_555
C17 C16 1_555 1_555
H16 C17 1_555 1_555
C18 C11 1_555 1_555
C19 C15 1_555 1_555
H17 C19 1_555 1_555
C20 C21 1_555 1_555
C21 C22 1_555 1_555
C22 C23 1_555 1_555
C23 C24 1_555 1_555
C24 C9 1_555 1_555
C25 C20 1_555 1_555
C26 C21 1_555 1_555
H18 C26 1_555 1_555
H19 C26 1_555 1_555
H20 C26 1_555 1_555
C27 C23 1_555 1_555
H21 C27 1_555 1_555
H22 C27 1_555 1_555
H23 C27 1_555 1_555
C28 C25 1_555 1_555
H24 C28 1_555 1_555
H25 C28 1_555 1_555
H26 C28 1_555 1_555
N3 C29 1_555 1_555
C29 H27 1_555 1_555
C30 C29 1_555 1_555
H28 C30 1_555 1_555
C31 C20 1_555 1_555
C32 C31 1_555 1_555
H29 C32 1_555 1_555
C33 N3 1_555 1_555
H30 C33 1_555 1_555
N4 C34 1_555 1_555
C34 H31 1_555 1_555
C35 C34 1_555 1_555
H32 C35 1_555 1_555
C36 C22 1_555 1_555
C37 C36 1_555 1_555
H33 C37 1_555 1_555
C38 N4 1_555 1_555
H34 C38 1_555 1_555
C39 H35 1_555 1_555
H36 C39 1_555 1_555
H37 C39 1_555 1_555
C40 C39 1_555 1_555
C41 H38 1_555 1_555
H39 C41 1_555 1_555
H40 C41 1_555 1_555
C42 C41 1_555 1_555
C43 H41 1_555 1_555
H42 C43 1_555 1_555
H43 C43 1_555 1_555
C44 C43 1_555 1_555
C45 H44 1_555 1_555
H45 C45 1_555 1_555
H46 C45 1_555 1_555
C46 H47 1_555 1_555
H48 C46 1_555 1_555
H49 C46 1_555 1_555
C47 C46 1_555 1_555
Cu1 N1 1_555 1_555
Cu2 N3 1_555 1_555
Cu3 N2 1_555 1_555
O1 C44 1_555 1_555
O2 C44 1_555 1_555
O3 C45 1_555 1_555
O4 Cu1 1_555 1_555
O5 C47 1_555 1_555
O6 C47 1_555 1_555
O7 C42 1_555 1_555
O8 C40 1_555 1_555
O9 C42 1_555 1_555
O10 C40 1_555 1_555
N4C Cu1 1_555 1_555
Cu1C N4 1_555 1_555
Cu2C O2 1_555 1_555
Cu3A O3 1_555 1_555
Cu3B O6 1_555 1_555
O2C Cu2 1_555 1_555
O3A Cu3 1_555 1_555
O4C Cu2 1_555 1_555
O4A Cu3 1_555 1_555
O6B Cu3 1_555 1_555
C4 C5 1_555 1_555
C7 C8 1_555 1_555
C11 C12 1_555 1_555
C17 C18 1_555 1_555
C18 C19 1_555 1_555
C24 C25 1_555 1_555
C30 C31 1_555 1_555
C32 C33 1_555 1_555
C35 C36 1_555 1_555
C37 C38 1_555 1_555
Cu1 O1 1_555 1_555
Cu1 O3 1_555 1_555
Cu2 O5 1_555 1_555
Cu2 O7 1_555 1_555
Cu3 O8 1_555 1_555
O4 Cu2C 1_555 1_555
O4 Cu3A 1_555 1_555
Cu3B O4C 1_555 1_555

#END
