
#######################################################################
#
#                 Cambridge Crystallographic Data Centre
#                                CCDC 
#
#######################################################################
#
# If this CIF has been generated from an entry in the Cambridge 
# Structural Database, then it will include bibliographic, chemical, 
# crystal, experimental, refinement or atomic coordinate data resulting 
# from the CCDC's data processing and validation procedures.
#
#######################################################################

data_QEQBAQ
_symmetry_cell_setting           monoclinic
_symmetry_space_group_name_H-M   'P 21/n'
_symmetry_Int_Tables_number      14
_space_group_name_Hall           '-P 2yn'
loop_
_symmetry_equiv_pos_site_id
_symmetry_equiv_pos_as_xyz
1 x,y,z
2 1/2-x,1/2+y,1/2-z
3 -x,-y,-z
4 1/2+x,1/2-y,1/2+z
_cell_length_a                   11.4223(8)
_cell_length_b                   18.7350(13)
_cell_length_c                   18.5393(12)
_cell_angle_alpha                90
_cell_angle_beta                 94.8750(10)
_cell_angle_gamma                90
_cell_volume                     3953
loop_
_atom_site_label
_atom_site_type_symbol
_atom_site_fract_x
_atom_site_fract_y
_atom_site_fract_z
Co1 Co 0.5000 0.5000 0.5000
Co2 Co 0.48776(3) 0.70098(2) 0.47271(2)
O1 O 0.50535(18) 0.56264(11) 0.59294(11)
O2 O 0.50377(18) 0.68040(11) 0.57768(11)
O3 O 0.48495(17) 0.59103(10) 0.42932(10)
O4 O 0.46729(19) 0.68473(11) 0.36036(11)
N1 N 0.6774(2) 0.70400(14) 0.47135(14)
N2 N 1.2989(2) 0.70243(13) 0.47462(14)
N3 N 0.3118(2) 0.49471(12) 0.49902(13)
N4 N 0.4897(2) 0.81241(13) 0.48057(14)
C1 C 0.5446(4) 0.7126(2) 0.71785(18)
C2 C 0.6580(5) 0.7387(3) 0.7253(2)
H1 H 0.7198 0.7072 0.7202
C3 C 0.6832(7) 0.8082(4) 0.7396(3)
H2 H 0.7603 0.8246 0.7455
C4 C 0.5919(9) 0.8524(4) 0.7448(3)
H3 H 0.6082 0.9006 0.7521
C5 C 0.4765(7) 0.8319(3) 0.7403(3)
H4 H 0.4166 0.8644 0.7464
C6 C 0.4524(5) 0.7580(2) 0.7256(2)
H5 H 0.3756 0.7411 0.7215
C7 C 0.5242(4) 0.63636(19) 0.69682(18)
H6 H 0.4540 0.6195 0.7174
H7 H 0.5898 0.6080 0.7173
C8 C 0.5103(2) 0.62513(16) 0.61605(16)
C9 C 0.5456(3) 0.5930(2) 0.24263(18)
C10 C 0.6247(4) 0.5449(3) 0.2202(3)
H8 H 0.6322 0.5003 0.2420
C11 C 0.6947(5) 0.5632(4) 0.1641(4)
H9 H 0.7462 0.5298 0.1474
C12 C 0.6877(6) 0.6289(5) 0.1343(3)
H10 H 0.7332 0.6402 0.0966
C13 C 0.6149(6) 0.6785(4) 0.1588(3)
H11 H 0.6135 0.7245 0.1399
C14 C 0.5423(5) 0.6608(3) 0.2122(2)
H12 H 0.4906 0.6947 0.2279
C15 C 0.4653(3) 0.57184(18) 0.30009(16)
H13 H 0.3848 0.5726 0.2787
H14 H 0.4834 0.5231 0.3148
C16 C 0.4735(2) 0.61798(16) 0.36620(16)
C17 C 0.7316(3) 0.7118(3) 0.4118(2)
H15 H 0.6859 0.7157 0.3680
C18 C 0.8516(3) 0.7144(3) 0.4108(2)
H16 H 0.8843 0.7202 0.3669
C19 C 0.9234(3) 0.70854(17) 0.47315(17)
C20 C 0.8672(3) 0.7009(3) 0.5354(2)
H17 H 0.9109 0.6968 0.5799
C21 C 0.7468(3) 0.6994(3) 0.5320(2)
H18 H 0.7116 0.6949 0.5752
C22 C 1.0528(3) 0.70769(16) 0.47404(17)
C23 C 1.1111(3) 0.7354(2) 0.41731(19)
H19 H 1.0689 0.7563 0.3777
C24 C 1.2313(3) 0.7316(2) 0.42029(19)
H20 H 1.2681 0.7507 0.3818
C25 C 1.1225(3) 0.67736(18) 0.53043(18)
H21 H 1.0879 0.6578 0.5695
C26 C 1.2424(3) 0.67595(18) 0.52911(18)
H22 H 1.2868 0.6555 0.5681
C27 C 0.2581(3) 0.49093(18) 0.56058(17)
H23 H 0.3047 0.4873 0.6041
C28 C 0.1385(3) 0.49211(18) 0.56299(17)
H24 H 0.1064 0.4889 0.6073
C29 C 0.0649(2) 0.49811(15) 0.49981(16)
C30 C 0.1210(3) 0.50076(19) 0.43602(17)
H25 H 0.0765 0.5039 0.3917
C31 C 0.2416(3) 0.49875(18) 0.43801(17)
H26 H 0.2760 0.5003 0.3943
C32 C 0.4828(4) 0.84341(18) 0.5442(2)
H27 H 0.4750 0.8147 0.5844
C33 C 0.4865(4) 0.91613(19) 0.5535(2)
H28 H 0.4813 0.9353 0.5993
C34 C 0.4977(3) 0.96074(17) 0.49579(19)
C35 C 0.5047(4) 0.92804(19) 0.4302(2)
H29 H 0.5121 0.9555 0.3891
C36 C 0.5009(4) 0.85494(19) 0.4247(2)
H30 H 0.5063 0.8344 0.3795
Co1_2 Co -0.5000 0.5000 0.5000
Co2B Co 0.51224(3) 0.29902(2) 0.52729(2)
Co2_2 Co 1.48776(3) 0.70098(2) 0.47271(2)
Co2B_2 Co 0.51224(3) 1.29902(2) 0.52729(2)
Co2_3 Co -0.51224(3) 0.70098(2) 0.47271(2)
O1B O 0.49465(18) 0.43736(11) 0.40706(11)
O2B O 0.49623(18) 0.31960(11) 0.42232(11)
O3B O 0.51505(17) 0.40897(10) 0.57068(10)
O4B O 0.53271(19) 0.31527(11) 0.63964(11)
N1_2 N -0.3226(2) 0.70400(14) 0.47135(14)
N1B N 0.3226(2) 0.29600(14) 0.52865(14)
N2_2 N 0.2989(2) 0.70243(13) 0.47462(14)
N2B N 0.7011(2) 0.29757(13) 0.52538(14)
N3B N -0.3118(2) 0.50529(12) 0.50098(13)
N3B_2 N 0.6882(2) 0.50529(12) 0.50098(13)
N4B N 0.5103(2) 1.18759(13) 0.51943(14)
N4B_2 N 0.5103(2) 0.18759(13) 0.51943(14)
C1B C 0.4554(4) 0.2874(2) 0.28215(18)
C2B C 0.3420(5) 0.2613(3) 0.2747(2)
H1B H 0.2802 0.2928 0.2798
C3B C 0.3168(7) 0.1918(4) 0.2604(3)
H2B H 0.2397 0.1754 0.2545
C4B C 0.4081(9) 0.1476(4) 0.2552(3)
H3B H 0.3918 0.0994 0.2479
C5B C 0.5235(7) 0.1681(3) 0.2597(3)
H4B H 0.5834 0.1356 0.2536
C6B C 0.5476(5) 0.2420(2) 0.2744(2)
H5B H 0.6244 0.2589 0.2785
C7B C 0.4758(4) 0.36364(19) 0.30318(18)
H6B H 0.5460 0.3805 0.2826
H7B H 0.4102 0.3920 0.2827
C8B C 0.4897(2) 0.37487(16) 0.38395(16)
C9B C 0.4544(3) 0.4070(2) 0.75737(18)
C10B C 0.3753(4) 0.4551(3) 0.7798(3)
H8B H 0.3678 0.4997 0.7580
C11B C 0.3053(5) 0.4368(4) 0.8359(4)
H9B H 0.2538 0.4702 0.8526
C12B C 0.3123(6) 0.3711(5) 0.8657(3)
H10B H 0.2668 0.3598 0.9034
C13B C 0.3851(6) 0.3215(4) 0.8412(3)
H11B H 0.3865 0.2755 0.8601
C14B C 0.4577(5) 0.3392(3) 0.7878(2)
H12B H 0.5094 0.3053 0.7721
C15B C 0.5347(3) 0.42816(18) 0.69991(16)
H13B H 0.6152 0.4274 0.7213
H14B H 0.5166 0.4769 0.6852
C16B C 0.5265(2) 0.38202(16) 0.63380(16)
C17_2 C -0.2684(3) 0.7118(3) 0.4118(2)
H15_2 H -0.3141 0.7157 0.3680
C18_2 C -0.1484(3) 0.7144(3) 0.4108(2)
H16_2 H -0.1157 0.7202 0.3669
C19_2 C -0.0766(3) 0.70854(17) 0.47315(17)
C20_2 C -0.1328(3) 0.7009(3) 0.5354(2)
H17_2 H -0.0891 0.6968 0.5799
C21_2 C -0.2532(3) 0.6994(3) 0.5320(2)
H18_2 H -0.2884 0.6949 0.5752
C22_2 C 0.0528(3) 0.70769(16) 0.47404(17)
C23_2 C 0.1111(3) 0.7354(2) 0.41731(19)
H19_2 H 0.0689 0.7563 0.3777
C24_2 C 0.2313(3) 0.7316(2) 0.42029(19)
H20_2 H 0.2681 0.7507 0.3818
C25_2 C 0.1225(3) 0.67736(18) 0.53043(18)
H21_2 H 0.0879 0.6578 0.5695
C26_2 C 0.2424(3) 0.67595(18) 0.52911(18)
H22_2 H 0.2868 0.6555 0.5681
C27B C -0.2581(3) 0.50907(18) 0.43942(17)
H23B H -0.3047 0.5127 0.3959
C28B C -0.1385(3) 0.50789(18) 0.43701(17)
H24B H -0.1064 0.5111 0.3927
C29B C -0.0649(2) 0.50189(15) 0.50019(16)
C30B C -0.1210(3) 0.49924(19) 0.56398(17)
H25B H -0.0765 0.4961 0.6083
C31B C -0.2416(3) 0.50125(18) 0.56199(17)
H26B H -0.2760 0.4997 0.6057
C32B C 0.5172(4) 1.15659(18) 0.4558(2)
H27B H 0.5250 1.1853 0.4156
C33B C 0.5135(4) 1.08387(19) 0.4465(2)
H28B H 0.5187 1.0647 0.4007
C34B C 0.5023(3) 1.03926(17) 0.50421(19)
C35B C 0.4953(4) 1.07196(19) 0.5698(2)
H29B H 0.4879 1.0445 0.6109
C36B C 0.4991(4) 1.14506(19) 0.5753(2)
H30B H 0.4937 1.1656 0.6205
N5 N 0.2160(5) 0.9963(4) 0.3718(3)
C37 C 0.1566(8) 0.9407(5) 0.3876(4)
H31 H 0.1709 0.8983 0.3638
C38 C 0.0728(7) 0.9396(4) 0.4377(4)
H32 H 0.0347 0.8971 0.4466
C39 C 0.0457(5) 0.9990(3) 0.4736(3)
C40 C 0.1061(6) 1.0577(4) 0.4558(4)
H33 H 0.0930 1.1010 0.4783
C41 C 0.1880(6) 1.0538(5) 0.4043(4)
H34 H 0.2251 1.0959 0.3925
N5B N -0.2160(5) 1.0037(4) 0.6282(3)
C37B C -0.1566(8) 1.0593(5) 0.6124(4)
H31B H -0.1709 1.1017 0.6362
C38B C -0.0728(7) 1.0604(4) 0.5623(4)
H32B H -0.0347 1.1029 0.5534
C39B C -0.0457(5) 1.0010(3) 0.5264(3)
C40B C -0.1061(6) 0.9423(4) 0.5442(4)
H33B H -0.0930 0.8990 0.5217
C41B C -0.1880(6) 0.9462(5) 0.5957(4)
H34B H -0.2251 0.9041 0.6075
N6 N 0.1114(6) 0.6030(3) 0.7258(3)
O5 O 0.2041(5) 0.6154(3) 0.7022(3)
O6 O 0.0246(6) 0.6248(4) 0.6933(4)
O7 O 0.1015(9) 0.5726(7) 0.7748(5)
O8 O 0.1890(4) 0.4575(4) 0.2635(2)
H35 H 0.110(7) 0.433(4) 0.257(4)
H36 H 0.188(6) 0.467(4) 0.213(4)
O9 O 0.8282(18) 0.8758(12) 0.3569(12)
H37 H 0.7835 0.8932 0.3868
H38 H 0.7897 0.8707 0.3160
O10 O 0.905(4) 0.688(3) 0.750(3)
H39 H 0.8920 0.7206 0.7796
H40 H 0.9036 0.6474 0.7710
loop_
_geom_bond_atom_site_label_1
_geom_bond_atom_site_label_2
_geom_bond_site_symmetry_1
_geom_bond_site_symmetry_2
Co1 O1 1_555 1_555
Co2 O2 1_555 1_555
O1 C8 1_555 1_555
O2 C8 1_555 1_555
O3 Co1 1_555 1_555
O4 Co2 1_555 1_555
N1 Co2 1_555 1_555
N2 C24 1_555 1_555
N3 Co1 1_555 1_555
N4 Co2 1_555 1_555
C1 C2 1_555 1_555
C2 H1 1_555 1_555
C3 C2 1_555 1_555
H2 C3 1_555 1_555
C4 C3 1_555 1_555
H3 C4 1_555 1_555
C5 C4 1_555 1_555
H4 C5 1_555 1_555
C6 C1 1_555 1_555
H5 C6 1_555 1_555
C7 C1 1_555 1_555
H6 C7 1_555 1_555
H7 C7 1_555 1_555
C8 C7 1_555 1_555
C9 C10 1_555 1_555
C10 H8 1_555 1_555
C11 C10 1_555 1_555
H9 C11 1_555 1_555
C12 C11 1_555 1_555
H10 C12 1_555 1_555
C13 C12 1_555 1_555
H11 C13 1_555 1_555
C14 C9 1_555 1_555
H12 C14 1_555 1_555
C15 C9 1_555 1_555
H13 C15 1_555 1_555
H14 C15 1_555 1_555
C16 O3 1_555 1_555
C17 N1 1_555 1_555
H15 C17 1_555 1_555
C18 C17 1_555 1_555
H16 C18 1_555 1_555
C19 C18 1_555 1_555
C20 C19 1_555 1_555
H17 C20 1_555 1_555
C21 N1 1_555 1_555
H18 C21 1_555 1_555
C22 C19 1_555 1_555
C23 C22 1_555 1_555
H19 C23 1_555 1_555
C24 C23 1_555 1_555
H20 C24 1_555 1_555
C25 C22 1_555 1_555
H21 C25 1_555 1_555
C26 N2 1_555 1_555
H22 C26 1_555 1_555
C27 N3 1_555 1_555
H23 C27 1_555 1_555
C28 C27 1_555 1_555
H24 C28 1_555 1_555
C29 C28 1_555 1_555
C30 C29 1_555 1_555
H25 C30 1_555 1_555
C31 N3 1_555 1_555
H26 C31 1_555 1_555
C32 N4 1_555 1_555
H27 C32 1_555 1_555
C33 C32 1_555 1_555
H28 C33 1_555 1_555
C34 C33 1_555 1_555
C35 C34 1_555 1_555
H29 C35 1_555 1_555
C36 N4 1_555 1_555
H30 C36 1_555 1_555
N5 C37 1_555 1_555
C37 H31 1_555 1_555
C38 C37 1_555 1_555
H32 C38 1_555 1_555
C39 C38 1_555 1_555
C40 C39 1_555 1_555
H33 C40 1_555 1_555
C41 N5 1_555 1_555
H34 C41 1_555 1_555
N6 O5 1_555 1_555
O6 N6 1_555 1_555
O7 N6 1_555 1_555
O8 H35 1_555 1_555
H36 O8 1_555 1_555
O9 H37 1_555 1_555
H38 O9 1_555 1_555
O10 H39 1_555 1_555
H40 O10 1_555 1_555
Co1_2 N3B 1_555 1_555
Co2B O2B 1_555 1_555
Co2_2 N2 1_555 1_555
Co2B_2 N4B 1_555 1_555
Co2_3 N1_2 1_555 1_555
O1B Co1 1_555 1_555
O2B C8B 1_555 1_555
O3B Co1 1_555 1_555
O4B Co2B 1_555 1_555
N1_2 C17_2 1_555 1_555
N1B Co2B 1_555 1_555
N2_2 Co2 1_555 1_555
N2B Co2B 1_555 1_555
N3B C27B 1_555 1_555
N3B_2 Co1 1_555 1_555
N4B C32B 1_555 1_555
N4B_2 Co2B 1_555 1_555
C1B C2B 1_555 1_555
C2B H1B 1_555 1_555
C3B C2B 1_555 1_555
H2B C3B 1_555 1_555
C4B C3B 1_555 1_555
H3B C4B 1_555 1_555
C5B C4B 1_555 1_555
H4B C5B 1_555 1_555
C6B C1B 1_555 1_555
H5B C6B 1_555 1_555
C7B C1B 1_555 1_555
H6B C7B 1_555 1_555
H7B C7B 1_555 1_555
C8B O1B 1_555 1_555
C9B C10B 1_555 1_555
C10B H8B 1_555 1_555
C11B C10B 1_555 1_555
H9B C11B 1_555 1_555
C12B C11B 1_555 1_555
H10B C12B 1_555 1_555
C13B C12B 1_555 1_555
H11B C13B 1_555 1_555
C14B C9B 1_555 1_555
H12B C14B 1_555 1_555
C15B C9B 1_555 1_555
H13B C15B 1_555 1_555
H14B C15B 1_555 1_555
C16B O3B 1_555 1_555
C17_2 H15_2 1_555 1_555
C18_2 C17_2 1_555 1_555
H16_2 C18_2 1_555 1_555
C19_2 C18_2 1_555 1_555
C20_2 C19_2 1_555 1_555
H17_2 C20_2 1_555 1_555
C21_2 N1_2 1_555 1_555
H18_2 C21_2 1_555 1_555
C22_2 C19_2 1_555 1_555
C23_2 C22_2 1_555 1_555
H19_2 C23_2 1_555 1_555
C24_2 N2_2 1_555 1_555
H20_2 C24_2 1_555 1_555
C25_2 C22_2 1_555 1_555
H21_2 C25_2 1_555 1_555
C26_2 N2_2 1_555 1_555
H22_2 C26_2 1_555 1_555
C27B H23B 1_555 1_555
C28B C27B 1_555 1_555
H24B C28B 1_555 1_555
C29B C29 1_555 1_555
C30B C29B 1_555 1_555
H25B C30B 1_555 1_555
C31B N3B 1_555 1_555
H26B C31B 1_555 1_555
C32B H27B 1_555 1_555
C33B C32B 1_555 1_555
H28B C33B 1_555 1_555
C34B C34 1_555 1_555
C35B C34B 1_555 1_555
H29B C35B 1_555 1_555
C36B N4B 1_555 1_555
H30B C36B 1_555 1_555
N5B C37B 1_555 1_555
C37B H31B 1_555 1_555
C38B C37B 1_555 1_555
H32B C38B 1_555 1_555
C39B C39 1_555 1_555
C40B C39B 1_555 1_555
H33B C40B 1_555 1_555
C41B N5B 1_555 1_555
H34B C41B 1_555 1_555
Co2 O3 1_555 1_555
O4 C16 1_555 1_555
C5 C6 1_555 1_555
C13 C14 1_555 1_555
C15 C16 1_555 1_555
C20 C21 1_555 1_555
C25 C26 1_555 1_555
C30 C31 1_555 1_555
C35 C36 1_555 1_555
C40 C41 1_555 1_555
Co2B O3B 1_555 1_555
O4B C16B 1_555 1_555
C5B C6B 1_555 1_555
C7B C8B 1_555 1_555
C13B C14B 1_555 1_555
C15B C16B 1_555 1_555
C20_2 C21_2 1_555 1_555
C23_2 C24_2 1_555 1_555
C25_2 C26_2 1_555 1_555
C28B C29B 1_555 1_555
C30B C31B 1_555 1_555
C33B C34B 1_555 1_555
C35B C36B 1_555 1_555
C38B C39B 1_555 1_555
C40B C41B 1_555 1_555

#END
