
#######################################################################
#
#                 Cambridge Crystallographic Data Centre
#                                CCDC 
#
#######################################################################
#
# If this CIF has been generated from an entry in the Cambridge 
# Structural Database, then it will include bibliographic, chemical, 
# crystal, experimental, refinement or atomic coordinate data resulting 
# from the CCDC's data processing and validation procedures.
#
#######################################################################

data_QEQBEU
_symmetry_cell_setting           monoclinic
_symmetry_space_group_name_H-M   'C 2/c'
_symmetry_Int_Tables_number      15
_space_group_name_Hall           '-C 2yn'
loop_
_symmetry_equiv_pos_site_id
_symmetry_equiv_pos_as_xyz
1 x,y,z
2 1/2+x,1/2+y,z
3 -x,y,1/2-z
4 1/2-x,1/2+y,1/2-z
5 -x,-y,-z
6 1/2-x,1/2-y,-z
7 x,-y,1/2+z
8 1/2+x,1/2-y,1/2+z
_cell_length_a                   33.150(7)
_cell_length_b                   11.385(3)
_cell_length_c                   10.929(2)
_cell_angle_alpha                90
_cell_angle_beta                 107.231(4)
_cell_angle_gamma                90
_cell_volume                     3939.62
loop_
_atom_site_label
_atom_site_type_symbol
_atom_site_fract_x
_atom_site_fract_y
_atom_site_fract_z
Co1 Co 0.5000 0.46093(3) 0.2500
O1 O 0.44431(6) 0.45124(13) 0.09300(16)
O2 O 0.39856(7) 0.3955(2) 0.1940(2)
O5 O 0.46552(7) 0.45188(15) 0.38349(18)
H2 H 0.4624(8) 0.495(2) 0.443(2)
H3 H 0.4418(6) 0.427(3) 0.337(3)
N1 N 0.5000 0.2720(2) 0.2500
N2 N 0.5000 -0.3514(2) 0.2500
C1 C 0.37924(10) 0.2612(3) -0.0706(3)
C2 C 0.39439(12) 0.2303(4) -0.1694(4)
H4 H 0.4026 0.2885 -0.2168
C3 C 0.39770(15) 0.1120(5) -0.2001(5)
H5 H 0.4079 0.0922 -0.2681
C4 C 0.38617(16) 0.0260(4) -0.1312(6)
H6 H 0.3887 -0.0525 -0.1514
C5 C 0.37095(19) 0.0545(4) -0.0334(5)
H7 H 0.3627 -0.0042 0.0134
C6 C 0.36761(15) 0.1711(3) -0.0030(4)
H8 H 0.3572 0.1897 0.0649
C7 C 0.37631(10) 0.3884(3) -0.0343(3)
H9 H 0.3481 0.4046 -0.0295
H10 H 0.3815 0.4388 -0.0997
C8 C 0.40830(9) 0.4150(2) 0.0938(3)
C9 C 0.48825(9) 0.2105(2) 0.1409(2)
H11 H 0.4802 0.2515 0.0639
C10 C 0.48742(9) 0.0896(2) 0.1369(2)
H12 H 0.4785 0.0511 0.0584
C11 C 0.5000 0.0248(3) 0.2500
C12 C 0.5000 -0.1045(3) 0.2500
C13 C 0.47421(9) -0.1690(2) 0.1481(2)
H13 H 0.4566 -0.1305 0.0773
C14 C 0.47490(9) -0.2899(2) 0.1527(2)
H14 H 0.4570 -0.3310 0.0845
Co1_2 Co 0.5000 -0.53907(3) 0.2500
O1B O 0.55569(6) 0.45124(13) 0.40700(16)
O2B O 0.60144(7) 0.3955(2) 0.3060(2)
O5B O 0.53448(7) 0.45188(15) 0.11651(18)
H2B H 0.5376(8) 0.495(2) 0.057(2)
H3B H 0.5582(6) 0.427(3) 0.163(3)
N2_2 N 0.5000 0.6486(2) 0.2500
C1B C 0.62076(10) 0.2612(3) 0.5706(3)
C2B C 0.60561(12) 0.2303(4) 0.6694(4)
H4B H 0.5974 0.2885 0.7168
C3B C 0.60230(15) 0.1120(5) 0.7001(5)
H5B H 0.5921 0.0922 0.7681
C4B C 0.61383(16) 0.0260(4) 0.6312(6)
H6B H 0.6113 -0.0525 0.6514
C5B C 0.62905(19) 0.0545(4) 0.5334(5)
H7B H 0.6373 -0.0042 0.4866
C6B C 0.63239(15) 0.1711(3) 0.5030(4)
H8B H 0.6428 0.1897 0.4351
C7B C 0.62369(10) 0.3884(3) 0.5343(3)
H9B H 0.6519 0.4046 0.5295
H10B H 0.6185 0.4388 0.5997
C8B C 0.59170(9) 0.4150(2) 0.4062(3)
C9B C 0.51175(9) 0.2105(2) 0.3591(2)
H11B H 0.5198 0.2515 0.4361
C10B C 0.51258(9) 0.0896(2) 0.3631(2)
H12B H 0.5215 0.0511 0.4416
C13B C 0.52579(9) -0.1690(2) 0.3519(2)
H13B H 0.5434 -0.1305 0.4227
C14B C 0.52510(9) -0.2899(2) 0.3473(2)
H14B H 0.5430 -0.3310 0.4155
O3 O 0.33647(9) 0.2990(3) 0.2684(3)
H1 H 0.3550(11) 0.339(4) 0.248(4)
O4 O 0.38246(12) 0.2872(4) 0.4580(4)
C15 C 0.34773(15) 0.2779(3) 0.3919(5)
C16 C 0.30997(16) 0.2425(4) 0.4351(6)
H15 H 0.2935 0.1844 0.3764
H16 H 0.3197 0.2072 0.5195
C17 C 0.28300(9) 0.3452(3) 0.4394(3)
C18 C 0.29437(11) 0.4199(4) 0.5446(3)
H17 H 0.3181 0.4036 0.6130
C19 C 0.27018(18) 0.5189(3) 0.5477(6)
H18 H 0.2778 0.5689 0.6182
C20 C 0.23464(17) 0.5433(3) 0.4456(7)
H19 H 0.2185 0.6096 0.4477
C21 C 0.22327(11) 0.4686(5) 0.3404(5)
H20 H 0.1995 0.4849 0.2720
C22 C 0.24745(11) 0.3695(5) 0.3372(3)
H21 H 0.2398 0.3195 0.2668
loop_
_geom_bond_atom_site_label_1
_geom_bond_atom_site_label_2
_geom_bond_site_symmetry_1
_geom_bond_site_symmetry_2
Co1 O1 1_555 1_555
O1 C8 1_555 1_555
O2 C8 1_555 1_555
O3 H1 1_555 1_555
O4 C15 1_555 1_555
O5 Co1 1_555 1_555
H2 O5 1_555 1_555
H3 O5 1_555 1_555
N1 Co1 1_555 1_555
N2 C14 1_555 1_555
C1 C2 1_555 1_555
C2 H4 1_555 1_555
C3 C2 1_555 1_555
H5 C3 1_555 1_555
C4 C3 1_555 1_555
H6 C4 1_555 1_555
C5 C4 1_555 1_555
H7 C5 1_555 1_555
C6 C1 1_555 1_555
H8 C6 1_555 1_555
C7 C1 1_555 1_555
H9 C7 1_555 1_555
H10 C7 1_555 1_555
C8 C7 1_555 1_555
C9 N1 1_555 1_555
H11 C9 1_555 1_555
C10 C9 1_555 1_555
H12 C10 1_555 1_555
C11 C10 1_555 1_555
C12 C11 1_555 1_555
C13 C12 1_555 1_555
H13 C13 1_555 1_555
C14 C13 1_555 1_555
H14 C14 1_555 1_555
C15 O3 1_555 1_555
C16 C15 1_555 1_555
H15 C16 1_555 1_555
H16 C16 1_555 1_555
C17 C16 1_555 1_555
C18 C17 1_555 1_555
H17 C18 1_555 1_555
C19 C18 1_555 1_555
H18 C19 1_555 1_555
C20 C19 1_555 1_555
H19 C20 1_555 1_555
C21 C20 1_555 1_555
H20 C21 1_555 1_555
C22 C17 1_555 1_555
H21 C22 1_555 1_555
Co1_2 N2 1_555 1_555
O1B Co1 1_555 1_555
O2B C8B 1_555 1_555
O5B Co1 1_555 1_555
H2B O5B 1_555 1_555
H3B O5B 1_555 1_555
N2_2 Co1 1_555 1_555
C1B C2B 1_555 1_555
C2B H4B 1_555 1_555
C3B C2B 1_555 1_555
H5B C3B 1_555 1_555
C4B C3B 1_555 1_555
H6B C4B 1_555 1_555
C5B C4B 1_555 1_555
H7B C5B 1_555 1_555
C6B C1B 1_555 1_555
H8B C6B 1_555 1_555
C7B C1B 1_555 1_555
H9B C7B 1_555 1_555
H10B C7B 1_555 1_555
C8B O1B 1_555 1_555
C9B N1 1_555 1_555
H11B C9B 1_555 1_555
C10B C11 1_555 1_555
H12B C10B 1_555 1_555
C13B C12 1_555 1_555
H13B C13B 1_555 1_555
C14B N2 1_555 1_555
H14B C14B 1_555 1_555
C5 C6 1_555 1_555
C21 C22 1_555 1_555
C5B C6B 1_555 1_555
C7B C8B 1_555 1_555
C9B C10B 1_555 1_555
C13B C14B 1_555 1_555

#END
