
#######################################################################
#
#                 Cambridge Crystallographic Data Centre
#                                CCDC 
#
#######################################################################
#
# If this CIF has been generated from an entry in the Cambridge 
# Structural Database, then it will include bibliographic, chemical, 
# crystal, experimental, refinement or atomic coordinate data resulting 
# from the CCDC's data processing and validation procedures.
#
#######################################################################

data_QEQDEW
_symmetry_cell_setting           triclinic
_symmetry_space_group_name_H-M   'P -1'
_symmetry_Int_Tables_number      2
_space_group_name_Hall           '-P 1'
loop_
_symmetry_equiv_pos_site_id
_symmetry_equiv_pos_as_xyz
1 x,y,z
2 -x,-y,-z
_cell_length_a                   9.3811(6)
_cell_length_b                   11.8334(7)
_cell_length_c                   13.0174(8)
_cell_angle_alpha                113.721(1)
_cell_angle_beta                 105.738(1)
_cell_angle_gamma                93.088(1)
_cell_volume                     1251.41
loop_
_atom_site_label
_atom_site_type_symbol
_atom_site_fract_x
_atom_site_fract_y
_atom_site_fract_z
Cd1 Cd 0.5000 0.5000 0.5000
S1 S 0.58407(7) 0.29940(6) 0.35660(6)
S2 S 0.40485(7) 0.50911(6) 0.28870(6)
P1 P 0.51209(7) 0.36526(6) 0.23760(6)
O1 O 0.4124(2) 0.25857(18) 0.11224(16)
O2 O 0.65431(19) 0.40183(17) 0.20654(16)
N1 N 0.7392(2) 0.6221(2) 0.54956(19)
N2 N 1.0121(3) 0.9532(2) 0.5203(2)
C1 C 0.2550(3) 0.2056(3) 0.0879(3)
H1 H 0.2091 0.2703 0.1377
C2 C 0.2468(4) 0.0940(4) 0.1143(3)
H2 H 0.1419 0.0645 0.1037
H3 H 0.3060 0.1189 0.1971
C3 C 0.3043(5) -0.0098(4) 0.0367(4)
H4 H 0.4129 0.0160 0.0557
H5 H 0.2893 -0.0828 0.0529
C4 C 0.2283(5) -0.0473(4) -0.0925(4)
H6 H 0.1225 -0.0849 -0.1147
H7 H 0.2770 -0.1105 -0.1393
C5 C 0.2368(5) 0.0661(5) -0.1205(3)
H8 H 0.1776 0.0412 -0.2033
H9 H 0.3417 0.0962 -0.1096
C6 C 0.1760(4) 0.1720(4) -0.0391(4)
H10 H 0.1896 0.2462 -0.0539
H11 H 0.0679 0.1453 -0.0573
C7 C 0.6396(3) 0.4596(3) 0.1237(2)
H12 H 0.5319 0.4591 0.0876
C8 C 0.7249(4) 0.5938(3) 0.1940(3)
H13 H 0.6874 0.6369 0.2604
H14 H 0.7059 0.6376 0.1432
C9 C 0.8937(4) 0.6004(3) 0.2416(3)
H15 H 0.9451 0.6882 0.2795
H16 H 0.9141 0.5685 0.3019
C10 C 0.9561(4) 0.5245(3) 0.1443(3)
H17 H 0.9470 0.5625 0.0889
H18 H 1.0633 0.5259 0.1789
C11 C 0.8710(4) 0.3884(3) 0.0772(3)
H19 H 0.8897 0.3477 0.1308
H20 H 0.9089 0.3426 0.0118
C12 C 0.7028(4) 0.3816(3) 0.0286(3)
H21 H 0.6831 0.4112 -0.0333
H22 H 0.6513 0.2939 -0.0076
C13 C 0.7509(3) 0.7203(2) 0.5243(2)
H23 H 0.6620 0.7448 0.4928
C14 C 0.8877(3) 0.7876(2) 0.5422(2)
C15 C 1.0192(3) 0.7522(2) 0.5901(2)
H24 H 1.1140 0.7957 0.6031
C16 C 1.0080(3) 0.6526(3) 0.6179(2)
H25 H 1.0952 0.6276 0.6516
C17 C 0.8666(3) 0.5892(3) 0.5958(2)
H26 H 0.8598 0.5203 0.6140
C18 C 0.8891(3) 0.8908(2) 0.5072(2)
H27 H 0.7974 0.9110 0.4746
Cd1_2 Cd 1.5000 1.5000 0.5000
S1A S 0.41593(7) 0.70060(6) 0.64340(6)
S2A S 0.59515(7) 0.49089(6) 0.71130(6)
P1A P 0.48791(7) 0.63474(6) 0.76240(6)
O1A O 0.5876(2) 0.74143(18) 0.88776(16)
O2A O 0.34569(19) 0.59817(17) 0.79346(16)
N1A N 1.2608(2) 1.3779(2) 0.45044(19)
N1A_2 N 0.2608(2) 0.3779(2) 0.45044(19)
N2A N 0.9879(3) 1.0468(2) 0.4797(2)
C1A C 0.7450(3) 0.7944(3) 0.9121(3)
H1A H 0.7909 0.7297 0.8623
C2A C 0.7532(4) 0.9060(4) 0.8857(3)
H2A H 0.8581 0.9355 0.8963
H3A H 0.6940 0.8811 0.8029
C3A C 0.6957(5) 1.0098(4) 0.9633(4)
H4A H 0.5871 0.9840 0.9443
H5A H 0.7107 1.0828 0.9471
C4A C 0.7717(5) 1.0473(4) 1.0925(4)
H6A H 0.8775 1.0849 1.1147
H7A H 0.7230 1.1105 1.1393
C5A C 0.7632(5) 0.9339(5) 1.1205(3)
H8A H 0.8224 0.9588 1.2033
H9A H 0.6583 0.9038 1.1096
C6A C 0.8240(4) 0.8280(4) 1.0391(4)
H10A H 0.8104 0.7538 1.0539
H11A H 0.9321 0.8547 1.0573
C7A C 0.3604(3) 0.5404(3) 0.8763(2)
H12A H 0.4681 0.5409 0.9124
C8A C 0.2751(4) 0.4062(3) 0.8060(3)
H13A H 0.3126 0.3631 0.7396
H14A H 0.2941 0.3624 0.8568
C9A C 0.1063(4) 0.3996(3) 0.7584(3)
H15A H 0.0549 0.3118 0.7205
H16A H 0.0859 0.4315 0.6981
C10A C 0.0439(4) 0.4755(3) 0.8557(3)
H17A H 0.0530 0.4375 0.9111
H18A H -0.0633 0.4741 0.8211
C11A C 0.1290(4) 0.6116(3) 0.9228(3)
H19A H 0.1103 0.6523 0.8692
H20A H 0.0911 0.6574 0.9882
C12A C 0.2972(4) 0.6184(3) 0.9714(3)
H21A H 0.3169 0.5888 1.0333
H22A H 0.3487 0.7061 1.0076
C13A C 1.2491(3) 1.2797(2) 0.4757(2)
H23A H 1.3380 1.2552 0.5072
C14A C 1.1123(3) 1.2124(2) 0.4578(2)
C15A C 0.9808(3) 1.2478(2) 0.4099(2)
H24A H 0.8860 1.2043 0.3969
C16A C 0.9920(3) 1.3474(3) 0.3821(2)
H25A H 0.9048 1.3724 0.3484
C17A C 1.1334(3) 1.4108(3) 0.4042(2)
H26A H 1.1402 1.4797 0.3860
C18A C 1.1109(3) 1.1092(2) 0.4928(2)
H27A H 1.2026 1.0890 0.5254
Cl1 Cl 0.35614(17) 0.82940(13) 0.44151(9)
Cl2 Cl 0.17992(12) 0.86861(13) 0.24655(10)
Cl3 Cl 0.49677(13) 0.87426(15) 0.28617(11)
C19 C 0.3346(5) 0.8087(4) 0.2978(3)
H28 H 0.3144 0.7173 0.2467
loop_
_geom_bond_atom_site_label_1
_geom_bond_atom_site_label_2
_geom_bond_site_symmetry_1
_geom_bond_site_symmetry_2
Cd1 S1 1_555 1_555
Cl1 C19 1_555 1_555
Cl2 C19 1_555 1_555
Cl3 C19 1_555 1_555
S1 P1 1_555 1_555
S2 Cd1 1_555 1_555
P1 S2 1_555 1_555
O1 P1 1_555 1_555
O2 P1 1_555 1_555
N1 Cd1 1_555 1_555
N2 C18 1_555 1_555
C1 O1 1_555 1_555
H1 C1 1_555 1_555
C2 C1 1_555 1_555
H2 C2 1_555 1_555
H3 C2 1_555 1_555
C3 C2 1_555 1_555
H4 C3 1_555 1_555
H5 C3 1_555 1_555
C4 C3 1_555 1_555
H6 C4 1_555 1_555
H7 C4 1_555 1_555
C5 C4 1_555 1_555
H8 C5 1_555 1_555
H9 C5 1_555 1_555
C6 C1 1_555 1_555
H10 C6 1_555 1_555
H11 C6 1_555 1_555
C7 O2 1_555 1_555
H12 C7 1_555 1_555
C8 C7 1_555 1_555
H13 C8 1_555 1_555
H14 C8 1_555 1_555
C9 C8 1_555 1_555
H15 C9 1_555 1_555
H16 C9 1_555 1_555
C10 C9 1_555 1_555
H17 C10 1_555 1_555
H18 C10 1_555 1_555
C11 C10 1_555 1_555
H19 C11 1_555 1_555
H20 C11 1_555 1_555
C12 C7 1_555 1_555
H21 C12 1_555 1_555
H22 C12 1_555 1_555
C13 N1 1_555 1_555
H23 C13 1_555 1_555
C14 C13 1_555 1_555
C15 C14 1_555 1_555
H24 C15 1_555 1_555
C16 C15 1_555 1_555
H25 C16 1_555 1_555
C17 N1 1_555 1_555
H26 C17 1_555 1_555
C18 C14 1_555 1_555
H27 C18 1_555 1_555
C19 H28 1_555 1_555
Cd1_2 N1A 1_555 1_555
S1A Cd1 1_555 1_555
S2A Cd1 1_555 1_555
P1A S1A 1_555 1_555
O1A P1A 1_555 1_555
O2A P1A 1_555 1_555
N1A C13A 1_555 1_555
N1A_2 Cd1 1_555 1_555
N2A N2 1_555 1_555
C1A O1A 1_555 1_555
H1A C1A 1_555 1_555
C2A C1A 1_555 1_555
H2A C2A 1_555 1_555
H3A C2A 1_555 1_555
C3A C2A 1_555 1_555
H4A C3A 1_555 1_555
H5A C3A 1_555 1_555
C4A C3A 1_555 1_555
H6A C4A 1_555 1_555
H7A C4A 1_555 1_555
C5A C4A 1_555 1_555
H8A C5A 1_555 1_555
H9A C5A 1_555 1_555
C6A C1A 1_555 1_555
H10A C6A 1_555 1_555
H11A C6A 1_555 1_555
C7A O2A 1_555 1_555
H12A C7A 1_555 1_555
C8A C7A 1_555 1_555
H13A C8A 1_555 1_555
H14A C8A 1_555 1_555
C9A C8A 1_555 1_555
H15A C9A 1_555 1_555
H16A C9A 1_555 1_555
C10A C9A 1_555 1_555
H17A C10A 1_555 1_555
H18A C10A 1_555 1_555
C11A C10A 1_555 1_555
H19A C11A 1_555 1_555
H20A C11A 1_555 1_555
C12A C7A 1_555 1_555
H21A C12A 1_555 1_555
H22A C12A 1_555 1_555
C13A H23A 1_555 1_555
C14A C13A 1_555 1_555
C15A C14A 1_555 1_555
H24A C15A 1_555 1_555
C16A C15A 1_555 1_555
H25A C16A 1_555 1_555
C17A N1A 1_555 1_555
H26A C17A 1_555 1_555
C18A N2A 1_555 1_555
H27A C18A 1_555 1_555
C5 C6 1_555 1_555
C11 C12 1_555 1_555
C16 C17 1_555 1_555
S2A P1A 1_555 1_555
C5A C6A 1_555 1_555
C11A C12A 1_555 1_555
C14A C18A 1_555 1_555
C16A C17A 1_555 1_555

#END
