
#######################################################################
#
#                 Cambridge Crystallographic Data Centre
#                                CCDC 
#
#######################################################################
#
# If this CIF has been generated from an entry in the Cambridge 
# Structural Database, then it will include bibliographic, chemical, 
# crystal, experimental, refinement or atomic coordinate data resulting 
# from the CCDC's data processing and validation procedures.
#
#######################################################################

data_QEQLAZ
_symmetry_cell_setting           monoclinic
_symmetry_space_group_name_H-M   'P 21/c'
_symmetry_Int_Tables_number      14
_space_group_name_Hall           '-P 2ybc'
loop_
_symmetry_equiv_pos_site_id
_symmetry_equiv_pos_as_xyz
1 x,y,z
2 -x,1/2+y,1/2-z
3 -x,-y,-z
4 x,1/2-y,1/2+z
_cell_length_a                   9.134(2)
_cell_length_b                   8.811(2)
_cell_length_c                   18.013(4)
_cell_angle_alpha                90
_cell_angle_beta                 101.53(3)
_cell_angle_gamma                90
_cell_volume                     1420.43
loop_
_atom_site_label
_atom_site_type_symbol
_atom_site_fract_x
_atom_site_fract_y
_atom_site_fract_z
Ba1 Ba 0.47070(2) 0.05571(2) 0.19897(1)
Cu1 Cu -0.06235(5) 0.17807(5) 0.10522(2)
O1 O 0.16617(29) 0.18035(31) 0.18431(17)
O2 O 0.34802(29) 0.34651(33) 0.22060(17)
O3 O -0.27320(34) 0.28790(34) 0.03097(17)
O4 O -0.32547(35) 0.51070(37) -0.02611(17)
O5 O -0.19433(33) 0.15283(32) 0.17935(15)
O6 O -0.31061(31) 0.29165(36) 0.25209(17)
O7 O -0.08715(30) -0.03715(31) 0.07541(16)
O8 O -0.04111(31) -0.19192(31) -0.01632(16)
O9 O 0.27256(41) -0.11569(46) 0.09556(21)
O10 O 0.45074(46) 0.20601(44) 0.05883(21)
O11 O 0.62148(39) -0.11305(41) 0.09838(21)
O12 O 0.45785(44) 0.09775(44) 0.34980(19)
N1 N -0.04407(31) 0.40127(33) 0.13881(17)
C1 C 0.11672(36) 0.44314(41) 0.15618(21)
C2 C 0.21649(37) 0.31336(41) 0.19051(19)
C3 C -0.12893(50) 0.50400(48) 0.08050(28)
C4 C -0.25263(40) 0.42882(45) 0.02424(20)
C5 C -0.10591(49) 0.40449(48) 0.20875(25)
C6 C -0.21319(39) 0.27510(43) 0.21302(20)
C7 C -0.03760(38) -0.06652(41) 0.01676(20)
H1 H 0.3112(98) -0.174(11) 0.0612(52)
H2 H 0.235(12) -0.186(13) 0.1236(62)
H3 H 0.5210(77) 0.2238(79) 0.0467(37)
H4 H 0.4069(69) 0.2661(72) 0.0530(35)
H5 H 0.7136(66) -0.0981(65) 0.1028(31)
H6 H 0.5948(66) -0.1261(70) 0.0558(35)
H7 H 0.4408(72) 0.1782(79) 0.3614(36)
H8 H 0.5285(57) 0.0791(59) 0.3794(29)
H9 H 0.1351(48) 0.5381(52) 0.1867(25)
H10 H 0.1432(42) 0.4720(45) 0.1089(22)
H11 H -0.0509(62) 0.5404(66) 0.0461(31)
H12 H -0.1769(57) 0.5888(62) 0.1037(29)
H13 H -0.0258(66) 0.3841(66) 0.2484(34)
H14 H -0.1690(66) 0.4988(72) 0.2135(33)
C7B C 0.03760(38) 0.06652(41) -0.01676(20)
O7B O 0.08715(30) 0.03715(31) -0.07541(16)
O8B O 0.04111(31) 0.19192(31) 0.01632(16)
O1A O 0.83383(29) -0.31965(31) 0.31569(17)
O2A O 0.65198(29) -0.15349(33) 0.27940(17)
O3A O 1.27320(34) -0.21210(34) 0.46903(17)
O4A O 1.32547(35) 0.01070(37) 0.52611(17)
O5A O 1.19433(33) -0.34717(32) 0.32065(15)
O6A O 1.31061(31) -0.20835(36) 0.24791(17)
N1A N 1.04407(31) -0.09873(33) 0.36119(17)
C1A C 0.88328(36) -0.05686(41) 0.34382(21)
C2A C 0.78351(37) -0.18664(41) 0.30949(19)
C3A C 1.12893(50) 0.00400(48) 0.41950(28)
C4A C 1.25263(40) -0.07118(45) 0.47576(20)
C5A C 1.10591(49) -0.09551(48) 0.29125(25)
C6A C 1.21319(39) -0.22490(43) 0.28698(20)
H9A H 0.8649(48) 0.0381(52) 0.3133(25)
H10A H 0.8568(42) -0.0280(45) 0.3911(22)
H11A H 1.0509(62) 0.0404(66) 0.4539(31)
H12A H 1.1769(57) 0.0888(62) 0.3963(29)
H13A H 1.0258(66) -0.1159(66) 0.2516(34)
H14A H 1.1690(66) -0.0012(72) 0.2865(33)
Ba1A Ba 0.52930(2) -0.44429(2) 0.30103(1)
Cu1A Cu 1.06235(5) -0.32193(5) 0.39478(2)
O6_2 O 0.68939(31) 0.29165(36) 0.25209(17)
O6A_2 O 0.31061(31) -0.20835(36) 0.24791(17)
Ba1A_2 Ba 0.52930(2) 0.55571(2) 0.30103(1)
Ba1_2 Ba -0.52930(2) 0.05571(2) 0.19897(1)
Ba1A_3 Ba -0.47070(2) 0.55571(2) 0.30103(1)
Cu1B Cu 0.06235(5) -0.17807(5) -0.10522(2)
Ba1_3 Ba 1.47070(2) 0.05571(2) 0.19897(1)
Ba1A_4 Ba 1.52930(2) -0.44429(2) 0.30103(1)
O2_2 O 0.34802(29) -0.65349(33) 0.22060(17)
O6_3 O 0.68939(31) -0.70835(36) 0.25209(17)
O9A O 0.72744(41) -0.61569(46) 0.40444(21)
O10A O 0.54926(46) -0.29399(44) 0.44117(21)
O11A O 0.37852(39) -0.61305(41) 0.40162(21)
O12A O 0.54215(44) -0.40225(44) 0.15020(19)
O7A O 1.08715(30) -0.53715(31) 0.42459(16)
O8C O 0.95889(31) -0.30808(31) 0.48368(16)
H1A H 0.6888(98) -0.674(11) 0.4388(52)
H2A H 0.765(12) -0.686(13) 0.3764(62)
H3A H 0.4790(77) -0.2762(79) 0.4533(37)
H4A H 0.5931(69) -0.2339(72) 0.4470(35)
H5A H 0.2864(66) -0.5981(65) 0.3972(31)
H6A H 0.4052(66) -0.6261(70) 0.4442(35)
H7A H 0.5592(72) -0.3218(79) 0.1386(36)
H8A H 0.4715(57) -0.4209(59) 0.1206(29)
loop_
_geom_bond_atom_site_label_1
_geom_bond_atom_site_label_2
_geom_bond_site_symmetry_1
_geom_bond_site_symmetry_2
Ba1 O1 1_555 1_555
Cu1 O1 1_555 1_555
O1 C2 1_555 1_555
O2 Ba1 1_555 1_555
O3 Cu1 1_555 1_555
O4 C4 1_555 1_555
O5 Cu1 1_555 1_555
O6 C6 1_555 1_555
O7 Cu1 1_555 1_555
O8 C7 1_555 1_555
O9 Ba1 1_555 1_555
O10 Ba1 1_555 1_555
O11 Ba1 1_555 1_555
O12 Ba1 1_555 1_555
N1 Cu1 1_555 1_555
C1 N1 1_555 1_555
C2 O2 1_555 1_555
C3 N1 1_555 1_555
C4 O3 1_555 1_555
C5 N1 1_555 1_555
C6 O5 1_555 1_555
C7 O7 1_555 1_555
H1 O9 1_555 1_555
H2 O9 1_555 1_555
H3 O10 1_555 1_555
H4 O10 1_555 1_555
H5 O11 1_555 1_555
H6 O11 1_555 1_555
H7 O12 1_555 1_555
H8 O12 1_555 1_555
H9 C1 1_555 1_555
H10 C1 1_555 1_555
H11 C3 1_555 1_555
H12 C3 1_555 1_555
H13 C5 1_555 1_555
H14 C5 1_555 1_555
C7B C7 1_555 1_555
O7B C7B 1_555 1_555
O8B Cu1 1_555 1_555
O1A C2A 1_555 1_555
O2A Ba1 1_555 1_555
O3A C4A 1_555 1_555
O4A C4A 1_555 1_555
O5A C6A 1_555 1_555
O6A C6A 1_555 1_555
N1A C1A 1_555 1_555
C1A C2A 1_555 1_555
C2A O2A 1_555 1_555
C3A N1A 1_555 1_555
C4A C3A 1_555 1_555
C5A N1A 1_555 1_555
C6A C5A 1_555 1_555
H9A C1A 1_555 1_555
H10A C1A 1_555 1_555
H11A C3A 1_555 1_555
H12A C3A 1_555 1_555
H13A C5A 1_555 1_555
H14A C5A 1_555 1_555
Ba1A O1A 1_555 1_555
Cu1A O1A 1_555 1_555
O6_2 Ba1 1_555 1_555
O6A_2 Ba1 1_555 1_555
Ba1A_2 O2 1_555 1_555
Ba1_2 O6 1_555 1_555
Ba1A_3 O6 1_555 1_555
Cu1B O8 1_555 1_555
Ba1_3 O6A 1_555 1_555
Ba1A_4 O6A 1_555 1_555
O2_2 Ba1A 1_555 1_555
O6_3 Ba1A 1_555 1_555
O9A Ba1A 1_555 1_555
O10A Ba1A 1_555 1_555
O11A Ba1A 1_555 1_555
O12A Ba1A 1_555 1_555
O7A Cu1A 1_555 1_555
O8C Cu1A 1_555 1_555
H1A O9A 1_555 1_555
H2A O9A 1_555 1_555
H3A O10A 1_555 1_555
H4A O10A 1_555 1_555
H5A O11A 1_555 1_555
H6A O11A 1_555 1_555
H7A O12A 1_555 1_555
H8A O12A 1_555 1_555
C1 C2 1_555 1_555
C3 C4 1_555 1_555
C5 C6 1_555 1_555
C7B O8B 1_555 1_555
O7B Cu1B 1_555 1_555
O2A Ba1A 1_555 1_555
O3A Cu1A 1_555 1_555
O5A Cu1A 1_555 1_555
N1A Cu1A 1_555 1_555
Ba1A O6A_2 1_555 1_555
O6_2 Ba1A_2 1_555 1_555

#END
