
#######################################################################
#
#                 Cambridge Crystallographic Data Centre
#                                CCDC 
#
#######################################################################
#
# If this CIF has been generated from an entry in the Cambridge 
# Structural Database, then it will include bibliographic, chemical, 
# crystal, experimental, refinement or atomic coordinate data resulting 
# from the CCDC's data processing and validation procedures.
#
#######################################################################

data_QEQPAD
_symmetry_cell_setting           monoclinic
_symmetry_space_group_name_H-M   'P 21/n'
_symmetry_Int_Tables_number      14
_space_group_name_Hall           '-P 2yn'
loop_
_symmetry_equiv_pos_site_id
_symmetry_equiv_pos_as_xyz
1 x,y,z
2 1/2+x,1/2-y,1/2+z
3 -x,-y,-z
4 1/2-x,1/2+y,1/2-z
_cell_length_a                   11.327(3)
_cell_length_b                   14.301(4)
_cell_length_c                   13.886(3)
_cell_angle_alpha                90
_cell_angle_beta                 101.22(2)
_cell_angle_gamma                90
_cell_volume                     2206.37
loop_
_atom_site_label
_atom_site_type_symbol
_atom_site_fract_x
_atom_site_fract_y
_atom_site_fract_z
Np1 Np 0.20022(2) 0.41061(2) 0.26967(2)
N1 N 0.3526(5) 0.3984(4) 0.4419(4)
N2 N 0.0463(5) 0.3928(4) 0.1004(4)
C1 C 0.3143(5) 0.4074(4) 0.5271(5)
C2 C 0.3908(6) 0.3984(5) 0.6178(5)
H1 H 0.3617(6) 0.4057(5) 0.6755(5)
C3 C 0.5109(6) 0.3784(6) 0.6209(5)
H2 H 0.5638(6) 0.3718(6) 0.6807(5)
C4 C 0.5510(6) 0.3684(5) 0.5335(5)
H3 H 0.6311(6) 0.3541(5) 0.5336(5)
C5 C 0.4695(5) 0.3801(5) 0.4457(5)
C6 C 0.0824(6) 0.3889(4) 0.0141(5)
C7 C 0.0056(6) 0.3695(5) -0.0735(5)
H4 H 0.0344(6) 0.3675(5) -0.1318(5)
C8 C -0.1162(6) 0.3529(5) -0.0734(5)
H5 H -0.1702(6) 0.3392(5) -0.1311(5)
C9 C -0.1534(6) 0.3576(5) 0.0163(5)
H6 H -0.2334(6) 0.3466(5) 0.0196(5)
C10 C -0.0708(5) 0.3785(5) 0.0999(4)
C11 C 0.1827(5) 0.4302(4) 0.5173(5)
C12 C 0.5051(6) 0.3736(5) 0.3478(5)
C13 C 0.2164(6) 0.4041(5) 0.0214(5)
C14 C -0.1043(6) 0.3885(5) 0.1984(5)
Li1 Li -0.3339(11) 0.2949(10) 0.2307(9)
Li2 Li 0.4496(12) 0.4207(9) 0.1427(10)
Li3 Li 0.0512(12) 0.5553(10) 0.6057(9)
O1 O 0.2086(5) 0.5375(4) 0.2668(4)
O2 O 0.1909(4) 0.2829(4) 0.2730(3)
O3 O 0.2572(5) 0.4104(4) -0.0548(4)
O4 O -0.2102(5) 0.3724(6) 0.2052(5)
O5 O 0.6101(4) 0.3481(4) 0.3444(4)
O6 O 0.1403(4) 0.4425(4) 0.5926(4)
O7 O 0.2762(4) 0.4114(4) 0.1082(3)
O8 O -0.0258(5) 0.4149(4) 0.2666(4)
O9 O 0.1236(4) 0.4342(4) 0.4310(3)
O10 O 0.4265(5) 0.3940(4) 0.2754(4)
O11 O 0.5334(4) 0.3030(4) 0.1112(4)
O12 O -0.3070(6) 0.1686(4) 0.2597(4)
O13 O 0.1463(5) 0.6539(4) 0.5579(4)
O14 O 0.5399(6) 0.5288(4) 0.1248(5)
O5_2 O -0.3899(4) 0.3481(4) 0.3444(4)
O11_2 O -0.4666(4) 0.3030(4) 0.1112(4)
O8B O 0.0258(5) 0.5851(4) 0.7334(4)
O9B O -0.1236(4) 0.5658(4) 0.5690(3)
Li1_2 Li 0.6661(11) 0.2949(10) 0.2307(9)
Li3B Li -0.0512(12) 0.4447(10) 0.3943(9)
Li2_2 Li -0.5504(12) 0.4207(9) 0.1427(10)
O15 O 0.0409(6) 0.2133(4) 0.4055(5)
O16 O 0.1543(5) 0.6920(4) 0.3593(4)
loop_
_geom_bond_atom_site_label_1
_geom_bond_atom_site_label_2
_geom_bond_site_symmetry_1
_geom_bond_site_symmetry_2
Np1 N1 1_555 1_555
N1 C1 1_555 1_555
N2 Np1 1_555 1_555
C1 C2 1_555 1_555
C2 H1 1_555 1_555
C3 C2 1_555 1_555
H2 C3 1_555 1_555
C4 C3 1_555 1_555
H3 C4 1_555 1_555
C5 N1 1_555 1_555
C6 N2 1_555 1_555
C7 C6 1_555 1_555
H4 C7 1_555 1_555
C8 C7 1_555 1_555
H5 C8 1_555 1_555
C9 C8 1_555 1_555
H6 C9 1_555 1_555
C10 N2 1_555 1_555
C11 C1 1_555 1_555
C12 C5 1_555 1_555
C13 C6 1_555 1_555
C14 C10 1_555 1_555
Li1 O4 1_555 1_555
Li2 O7 1_555 1_555
Li3 O6 1_555 1_555
O1 Np1 1_555 1_555
O2 Np1 1_555 1_555
O3 C13 1_555 1_555
O4 C14 1_555 1_555
O5 C12 1_555 1_555
O6 C11 1_555 1_555
O7 Np1 1_555 1_555
O8 Np1 1_555 1_555
O9 Np1 1_555 1_555
O10 Np1 1_555 1_555
O11 Li2 1_555 1_555
O12 Li1 1_555 1_555
O13 Li3 1_555 1_555
O14 Li2 1_555 1_555
O5_2 Li1 1_555 1_555
O11_2 Li1 1_555 1_555
O8B Li3 1_555 1_555
O9B Li3 1_555 1_555
Li1_2 O5 1_555 1_555
Li3B O8 1_555 1_555
Li2_2 O11_2 1_555 1_555
C4 C5 1_555 1_555
C9 C10 1_555 1_555
C11 O9 1_555 1_555
C12 O10 1_555 1_555
C13 O7 1_555 1_555
C14 O8 1_555 1_555
Li2 O10 1_555 1_555
O9 Li3B 1_555 1_555
O11 Li1_2 1_555 1_555

#END
