
#######################################################################
#
#                 Cambridge Crystallographic Data Centre
#                                CCDC 
#
#######################################################################
#
# If this CIF has been generated from an entry in the Cambridge 
# Structural Database, then it will include bibliographic, chemical, 
# crystal, experimental, refinement or atomic coordinate data resulting 
# from the CCDC's data processing and validation procedures.
#
#######################################################################

data_QEQPOR
_symmetry_cell_setting           monoclinic
_symmetry_space_group_name_H-M   'C 2/c'
_symmetry_Int_Tables_number      15
_space_group_name_Hall           '-C 2yn'
loop_
_symmetry_equiv_pos_site_id
_symmetry_equiv_pos_as_xyz
1 x,y,z
2 -x,y,1/2-z
3 1/2+x,1/2+y,z
4 1/2-x,1/2+y,1/2-z
5 -x,-y,-z
6 x,-y,1/2+z
7 1/2-x,1/2-y,-z
8 1/2+x,1/2-y,1/2+z
_cell_length_a                   22.784(7)
_cell_length_b                   6.160(1)
_cell_length_c                   17.447(4)
_cell_angle_alpha                90
_cell_angle_beta                 100.46(4)
_cell_angle_gamma                90
_cell_volume                     2407.98
loop_
_atom_site_label
_atom_site_type_symbol
_atom_site_fract_x
_atom_site_fract_y
_atom_site_fract_z
Mo1 Mo 0.0000 0.7050(9) 0.7500(9)
K1 K -0.0010(9) 1.243(1) 0.917(1)
O1 O -0.034(1) 0.877(2) 0.807(1)
O2 O 0.055(1) 0.444(2) 0.722(1)
O3 O 0.058(1) 0.623(2) 0.847(1)
O4 O -0.072(1) 1.101(2) 1.023(1)
O5 O 0.071(1) 1.385(2) 1.058(1)
N1 N 0.100(1) 0.463(2) 0.850(1)
N2 N 0.193(1) -0.125(3) 0.810(1)
C1 C 0.095(1) 0.371(2) 0.780(1)
C2 C 0.149(1) 0.163(3) 0.692(1)
C3 C 0.158(1) 0.049(3) 0.826(1)
C4 C 0.203(1) -0.146(3) 0.731(1)
C5 C 0.135(1) 0.199(3) 0.768(1)
C6 C 0.181(1) -0.004(3) 0.676(1)
H1 H 0.240 -0.270 0.720
H2 H 0.150 0.007 0.880
H3 H 0.140 0.260 0.650
H4 H 0.210 -0.030 0.620
O1A O 0.034(1) 0.877(2) 0.693(1)
O2A O -0.055(1) 0.444(2) 0.778(1)
O3A O -0.058(1) 0.623(2) 0.653(1)
N1A N -0.100(1) 0.463(2) 0.650(1)
N2A N -0.193(1) -0.125(3) 0.690(1)
C1A C -0.095(1) 0.371(2) 0.720(1)
C2A C -0.149(1) 0.163(3) 0.808(1)
C3A C -0.158(1) 0.049(3) 0.674(1)
C4A C -0.203(1) -0.146(3) 0.769(1)
C5A C -0.135(1) 0.199(3) 0.732(1)
C6A C -0.181(1) -0.004(3) 0.824(1)
H1A H -0.240 -0.270 0.780
H2A H -0.150 0.007 0.620
H3A H -0.140 0.260 0.850
H4A H -0.210 -0.030 0.880
K1A K 0.0010(9) 1.243(1) 0.583(1)
O4D O 0.072(1) 0.899(2) 0.977(1)
O5D O -0.071(1) 1.615(2) 0.942(1)
K1D K 0.0010(9) 0.757(1) 1.083(1)
K1D_2 K 0.0010(9) 1.757(1) 1.083(1)
O2A_2 O -0.055(1) 1.444(2) 0.778(1)
O3_2 O 0.058(1) 1.623(2) 0.847(1)
N1_2 N 0.100(1) 1.463(2) 0.850(1)
K1A_2 K 0.0010(9) 0.243(1) 0.583(1)
K1_2 K -0.0010(9) 0.243(1) 0.917(1)
K1E K -0.0010(9) 0.757(1) 0.417(1)
K1E_2 K -0.0010(9) 1.757(1) 0.417(1)
O2_2 O 0.055(1) 1.444(2) 0.722(1)
O3A_2 O -0.058(1) 1.623(2) 0.653(1)
O4A O 0.072(1) 1.101(2) 0.477(1)
O4E O -0.072(1) 0.899(2) 0.523(1)
O5A O -0.071(1) 1.385(2) 0.442(1)
O5E O 0.071(1) 1.615(2) 0.558(1)
N1A_2 N -0.100(1) 1.463(2) 0.650(1)
O6 O 0.179(1) 0.476(3) 0.995(1)
O7 O 0.200(1) 0.975(3) 0.024(1)
loop_
_geom_bond_atom_site_label_1
_geom_bond_atom_site_label_2
_geom_bond_site_symmetry_1
_geom_bond_site_symmetry_2
Mo1 O1 1_555 1_555
K1 O1 1_555 1_555
O2 Mo1 1_555 1_555
O3 Mo1 1_555 1_555
O4 K1 1_555 1_555
O5 K1 1_555 1_555
N1 O3 1_555 1_555
N2 C3 1_555 1_555
C1 O2 1_555 1_555
C2 C5 1_555 1_555
C3 C5 1_555 1_555
C4 N2 1_555 1_555
C5 C1 1_555 1_555
C6 C2 1_555 1_555
H1 C4 1_555 1_555
H2 C3 1_555 1_555
H3 C2 1_555 1_555
H4 C6 1_555 1_555
O1A Mo1 1_555 1_555
O2A Mo1 1_555 1_555
O3A Mo1 1_555 1_555
N1A O3A 1_555 1_555
N2A C3A 1_555 1_555
C1A O2A 1_555 1_555
C2A C5A 1_555 1_555
C3A C5A 1_555 1_555
C4A N2A 1_555 1_555
C5A C1A 1_555 1_555
C6A C2A 1_555 1_555
H1A C4A 1_555 1_555
H2A C3A 1_555 1_555
H3A C2A 1_555 1_555
H4A C6A 1_555 1_555
K1A O1A 1_555 1_555
O4D K1 1_555 1_555
O5D K1 1_555 1_555
K1D O4 1_555 1_555
K1D_2 O5 1_555 1_555
O2A_2 K1 1_555 1_555
O3_2 K1 1_555 1_555
N1_2 K1 1_555 1_555
K1A_2 O2 1_555 1_555
K1_2 O3 1_555 1_555
K1E O4A 1_555 1_555
K1E_2 O5A 1_555 1_555
O2_2 K1A 1_555 1_555
O3A_2 K1A 1_555 1_555
O4A K1A 1_555 1_555
O4E K1A 1_555 1_555
O5A K1A 1_555 1_555
O5E K1A 1_555 1_555
N1A_2 K1A 1_555 1_555
N1 C1 1_555 1_555
N1 K1_2 1_555 1_555
C4 C6 1_555 1_555
O2A K1_2 1_555 1_555
O3A K1A_2 1_555 1_555
N1A C1A 1_555 1_555
N1A K1A_2 1_555 1_555
C4A C6A 1_555 1_555
O4D K1D 1_555 1_555
O5D K1D_2 1_555 1_555
O3_2 N1_2 1_555 1_555
K1E O4E 1_555 1_555
K1E_2 O5E 1_555 1_555
O3A_2 N1A_2 1_555 1_555

#END
