
#######################################################################
#
#                 Cambridge Crystallographic Data Centre
#                                CCDC 
#
#######################################################################
#
# If this CIF has been generated from an entry in the Cambridge 
# Structural Database, then it will include bibliographic, chemical, 
# crystal, experimental, refinement or atomic coordinate data resulting 
# from the CCDC's data processing and validation procedures.
#
#######################################################################

data_QEQSUB
_symmetry_cell_setting           orthorhombic
_symmetry_space_group_name_H-M   'P n a 21'
_symmetry_Int_Tables_number      33
_space_group_name_Hall           'P 2c -2n'
loop_
_symmetry_equiv_pos_site_id
_symmetry_equiv_pos_as_xyz
1 x,y,z
2 -x,-y,1/2+z
3 1/2+x,1/2-y,z
4 1/2-x,1/2+y,1/2+z
_cell_length_a                   10.224(2)
_cell_length_b                   12.541(3)
_cell_length_c                   16.146(3)
_cell_angle_alpha                90
_cell_angle_beta                 90
_cell_angle_gamma                90
_cell_volume                     2070.23
loop_
_atom_site_label
_atom_site_type_symbol
_atom_site_fract_x
_atom_site_fract_y
_atom_site_fract_z
Sn1 Sn 0.37642(4) 0.69136(3) 0.42549(9)
Cl1 Cl 0.0611(3) 0.8881(3) 0.73010(19)
Cl2 Cl 0.5588(4) 0.2284(3) 0.4941(3)
O1 O 0.1930(4) 0.7845(4) 0.4228(6)
O2 O 0.0493(5) 0.9087(4) 0.3991(4)
S1 S 0.4203(4) 0.7766(3) 0.2956(2)
C1 C 0.1629(7) 0.8723(7) 0.3955(5)
C2 C 0.2637(8) 0.9466(7) 0.3544(6)
C3 C 0.3771(9) 0.9105(11) 0.3154(8)
C4 C 0.4598(10) 0.9873(10) 0.2798(8)
H1 H 0.5359 0.9660 0.2528
C5 C 0.4292(11) 1.0919(10) 0.2847(9)
H2 H 0.4849 1.1409 0.2598
C6 C 0.3208(11) 1.1293(9) 0.3244(8)
H3 H 0.3037 1.2019 0.3284
C7 C 0.2374(9) 1.0544(8) 0.3583(7)
H4 H 0.1615 1.0773 0.3845
C8 C 0.4380(11) 0.7611(10) 0.5414(6)
H5 H 0.4402 0.7048 0.5826
H6 H 0.5270 0.7864 0.5345
C9 C 0.3618(8) 0.8474(8) 0.5744(6)
C10 C 0.2605(9) 0.8285(7) 0.6318(6)
H7 H 0.2424 0.7594 0.6490
C11 C 0.1883(10) 0.9127(8) 0.6623(6)
C12 C 0.2122(11) 1.0167(8) 0.6360(7)
H8 H 0.1624 1.0730 0.6562
C13 C 0.3081(12) 1.0340(9) 0.5811(8)
H9 H 0.3247 1.1030 0.5628
C14 C 0.3832(10) 0.9498(9) 0.5512(8)
H10 H 0.4503 0.9642 0.5140
C15 C 0.2602(6) 0.5495(5) 0.4236(11)
H11 H 0.1695 0.5673 0.4347
H12 H 0.2649 0.5168 0.3692
C16 C 0.3089(8) 0.4723(7) 0.4879(6)
C17 C 0.3958(8) 0.3918(7) 0.4652(6)
H13 H 0.4208 0.3854 0.4101
C18 C 0.4456(11) 0.3214(8) 0.5227(9)
C19 C 0.4071(17) 0.3305(13) 0.6030(10)
H14 H 0.4391 0.2837 0.6427
C20 C 0.3215(17) 0.4086(14) 0.6248(9)
H15 H 0.2960 0.4145 0.6799
C21 C 0.2721(12) 0.4785(10) 0.5684(9)
H16 H 0.2131 0.5306 0.5851
Sn1B Sn -0.12358(4) 0.80864(3) 0.42549(9)
O2B O 0.5493(5) 0.5913(4) 0.3991(4)
loop_
_geom_bond_atom_site_label_1
_geom_bond_atom_site_label_2
_geom_bond_site_symmetry_1
_geom_bond_site_symmetry_2
Sn1 O1 1_555 1_555
Cl1 C11 1_555 1_555
Cl2 C18 1_555 1_555
O1 C1 1_555 1_555
O2 C1 1_555 1_555
S1 Sn1 1_555 1_555
C1 C2 1_555 1_555
C2 C3 1_555 1_555
C3 S1 1_555 1_555
C4 C3 1_555 1_555
H1 C4 1_555 1_555
C5 C4 1_555 1_555
H2 C5 1_555 1_555
C6 C5 1_555 1_555
H3 C6 1_555 1_555
C7 C2 1_555 1_555
H4 C7 1_555 1_555
C8 Sn1 1_555 1_555
H5 C8 1_555 1_555
H6 C8 1_555 1_555
C9 C8 1_555 1_555
C10 C9 1_555 1_555
H7 C10 1_555 1_555
C11 C10 1_555 1_555
C12 C11 1_555 1_555
H8 C12 1_555 1_555
C13 C12 1_555 1_555
H9 C13 1_555 1_555
C14 C9 1_555 1_555
H10 C14 1_555 1_555
C15 Sn1 1_555 1_555
H11 C15 1_555 1_555
H12 C15 1_555 1_555
C16 C15 1_555 1_555
C17 C16 1_555 1_555
H13 C17 1_555 1_555
C18 C17 1_555 1_555
C19 C18 1_555 1_555
H14 C19 1_555 1_555
C20 C19 1_555 1_555
H15 C20 1_555 1_555
C21 C16 1_555 1_555
H16 C21 1_555 1_555
Sn1B O2 1_555 1_555
O2B Sn1 1_555 1_555
C6 C7 1_555 1_555
C13 C14 1_555 1_555
C20 C21 1_555 1_555

#END
