
#######################################################################
#
#                 Cambridge Crystallographic Data Centre
#                                CCDC 
#
#######################################################################
#
# If this CIF has been generated from an entry in the Cambridge 
# Structural Database, then it will include bibliographic, chemical, 
# crystal, experimental, refinement or atomic coordinate data resulting 
# from the CCDC's data processing and validation procedures.
#
#######################################################################

data_QEQTOV
_symmetry_cell_setting           tetragonal
_symmetry_space_group_name_H-M   'P 4 21 2'
_symmetry_Int_Tables_number      90
_space_group_name_Hall           'P 4ab 2ab'
loop_
_symmetry_equiv_pos_site_id
_symmetry_equiv_pos_as_xyz
1 x,y,z
2 -x,-y,z
3 1/2-y,1/2+x,z
4 1/2+y,1/2-x,z
5 1/2-x,1/2+y,-z
6 1/2+x,1/2-y,-z
7 y,x,-z
8 -y,-x,-z
_cell_length_a                   12.951(2)
_cell_length_b                   12.951(2)
_cell_length_c                   6.129(1)
_cell_angle_alpha                90
_cell_angle_beta                 90
_cell_angle_gamma                90
_cell_volume                     1028.01
loop_
_atom_site_label
_atom_site_type_symbol
_atom_site_fract_x
_atom_site_fract_y
_atom_site_fract_z
Cd1 Cd 0.5000 0.5000 0.0000
O1 O 0.3337(2) 0.5164(3) 0.1063(5)
O2 O 0.2245(3) 0.6349(3) 0.2327(8)
O3 O 0.4932(3) 0.5927(2) 0.3602(4)
C1 C 0.3112(3) 0.5929(4) 0.2267(8)
C2 C 0.3919(3) 0.6366(3) 0.3830(7)
B1 B 0.5000 0.5000 0.5000
H1 H 0.4160 0.7068 0.3705
O3A O 0.5068(3) 0.4073(2) 0.3602(4)
C2A C 0.6081(3) 0.3634(3) 0.3830(7)
C1A C 0.6888(3) 0.4071(4) 0.2267(8)
O1A O 0.6663(2) 0.4836(3) 0.1063(5)
O2A O 0.7755(3) 0.3651(3) 0.2327(8)
C2F C 0.6366(3) 0.3919(3) 0.6170(7)
O3F O 0.5927(2) 0.4932(3) 0.6398(4)
O3G O 0.4073(2) 0.5068(3) 0.6398(4)
C2G C 0.3634(3) 0.6081(3) 0.6170(7)
C1G C 0.4071(4) 0.6888(3) 0.7733(8)
O1G O 0.4836(3) 0.6663(2) 0.8937(5)
O2G O 0.3651(3) 0.7755(3) 0.7673(8)
H1G H 0.2932 0.5840 0.6295
C1F C 0.5929(4) 0.3112(3) 0.7733(8)
O1F O 0.5164(3) 0.3337(2) 0.8937(5)
O2F O 0.6349(3) 0.2245(3) 0.7673(8)
H1F H 0.7068 0.4160 0.6295
H1A H 0.5840 0.2932 0.3705
O1F_2 O 0.5164(3) 0.3337(2) -0.1063(5)
O1G_2 O 0.4836(3) 0.6663(2) -0.1063(5)
O3F_2 O 0.5927(2) 0.4932(3) -0.3602(4)
O3G_2 O 0.4073(2) 0.5068(3) -0.3602(4)
Cd1_2 Cd 0.5000 0.5000 1.0000
O4 O 0.8085(3) 0.5992(3) 0.8692(7)
H2 H 0.8604 0.6238 0.9410
H3 H 0.7931 0.5454 0.9454
N1 N 0.0000 0.5000 0.713(2)
H4 H -0.0096 0.5675 0.7495
H4A H 0.0096 0.4325 0.7495
H4B H -0.0675 0.4904 0.7495
H4C H 0.0675 0.5096 0.7495
N2 N 0.0000 0.5000 0.274(4)
H5 H -0.0068 0.4326 0.2411
H5A H 0.0068 0.5674 0.2411
H5B H 0.0674 0.4932 0.2411
H5C H -0.0674 0.5068 0.2411
N3 N 0.3098(3) 0.3098(3) 0.5000
H6 H 0.2523 0.3123 0.4156
H7 H 0.3581 0.3152 0.3967
H6F H 0.3123 0.2523 0.5844
H7F H 0.3152 0.3581 0.6033
loop_
_geom_bond_atom_site_label_1
_geom_bond_atom_site_label_2
_geom_bond_site_symmetry_1
_geom_bond_site_symmetry_2
Cd1 O1 1_555 1_555
O1 C1 1_555 1_555
O2 C1 1_555 1_555
O3 Cd1 1_555 1_555
C1 C2 1_555 1_555
C2 O3 1_555 1_555
B1 O3 1_555 1_555
O4 H2 1_555 1_555
N1 H4 1_555 1_555
N2 H5 1_555 1_555
N3 H6 1_555 1_555
H1 C2 1_555 1_555
H3 O4 1_555 1_555
H7 N3 1_555 1_555
O3A Cd1 1_555 1_555
C2A O3A 1_555 1_555
C1A C2A 1_555 1_555
O1A Cd1 1_555 1_555
O2A C1A 1_555 1_555
C2F C2A 1_555 1_555
O3F B1 1_555 1_555
O3G B1 1_555 1_555
C2G C2 1_555 1_555
C1G C2G 1_555 1_555
O1G C1G 1_555 1_555
O2G C1G 1_555 1_555
H1G C2G 1_555 1_555
C1F C2F 1_555 1_555
O1F C1F 1_555 1_555
O2F C1F 1_555 1_555
H1F C2F 1_555 1_555
H1A C2A 1_555 1_555
H4A N1 1_555 1_555
H4B N1 1_555 1_555
H4C N1 1_555 1_555
H5A N2 1_555 1_555
H5B N2 1_555 1_555
H5C N2 1_555 1_555
H6F N3 1_555 1_555
H7F N3 1_555 1_555
O1F_2 Cd1 1_555 1_555
O1G_2 Cd1 1_555 1_555
O3F_2 Cd1 1_555 1_555
O3G_2 Cd1 1_555 1_555
Cd1_2 O3F 1_555 1_555
B1 O3A 1_555 1_555
C1A O1A 1_555 1_555
C2F O3F 1_555 1_555
O3G C2G 1_555 1_555
O3G Cd1_2 1_555 1_555
O1G Cd1_2 1_555 1_555
O1F Cd1_2 1_555 1_555

#END
