
#######################################################################
#
#                 Cambridge Crystallographic Data Centre
#                                CCDC 
#
#######################################################################
#
# If this CIF has been generated from an entry in the Cambridge 
# Structural Database, then it will include bibliographic, chemical, 
# crystal, experimental, refinement or atomic coordinate data resulting 
# from the CCDC's data processing and validation procedures.
#
#######################################################################

data_QERGUP
_symmetry_cell_setting           monoclinic
_symmetry_space_group_name_H-M   'P 21/c'
_symmetry_Int_Tables_number      14
_space_group_name_Hall           '-P 2ybc'
loop_
_symmetry_equiv_pos_site_id
_symmetry_equiv_pos_as_xyz
1 x,y,z
2 x,1/2-y,1/2+z
3 -x,-y,-z
4 -x,1/2+y,1/2-z
_cell_length_a                   12.3592(9)
_cell_length_b                   18.3531(14)
_cell_length_c                   17.9411(13)
_cell_angle_alpha                90
_cell_angle_beta                 109.4780(10)
_cell_angle_gamma                90
_cell_volume                     3836.67
loop_
_atom_site_label
_atom_site_type_symbol
_atom_site_fract_x
_atom_site_fract_y
_atom_site_fract_z
C1 C 0.00833(16) 0.11718(10) 0.67171(11)
C2 C 0.06305(16) 0.05266(10) 0.66829(10)
C3 C 0.16035(16) 0.06181(10) 0.64357(10)
H1 H 0.2064 0.0225 0.6372
C4 C 0.18078(16) 0.13276(10) 0.63001(10)
C5 C 0.02271(15) -0.01807(10) 0.68676(11)
C6 C -0.00171(18) -0.07952(11) 0.62770(12)
C7 C -0.07746(18) -0.13203(11) 0.65544(12)
C8 C -0.04388(18) -0.11534(11) 0.74442(12)
C9 C 0.00028(16) -0.03861(10) 0.75233(11)
C10 C 0.11729(16) 0.04075(10) 0.86464(11)
C11 C 0.01729(16) 0.00473(10) 0.82476(10)
C12 C -0.07159(16) 0.01847(10) 0.85743(10)
H2 H -0.1453 -0.0035 0.8378
C13 C -0.04081(16) 0.06599(10) 0.91940(10)
C14 C -0.09652(17) 0.13074(12) 0.69390(13)
H3 H -0.1442 0.0868 0.6837
H4 H -0.1404 0.1712 0.6624
H5 H -0.0736 0.1431 0.7502
C15 C 0.23137(16) 0.03826(12) 0.85240(12)
H6 H 0.2397 -0.0084 0.8284
H7 H 0.2928 0.0435 0.9035
H8 H 0.2362 0.0781 0.8173
C16 C 0.27635(16) 0.16468(10) 0.60984(10)
C17 C 0.38311(16) 0.13088(10) 0.63209(11)
H9 H 0.3936 0.0845 0.6570
C18 C 0.47368(17) 0.16493(10) 0.61785(11)
H10 H 0.5457 0.1407 0.6333
C19 C 0.36136(17) 0.26255(11) 0.56018(11)
H11 H 0.3528 0.3084 0.5343
C20 C 0.26704(16) 0.23216(11) 0.57212(11)
H12 H 0.1955 0.2570 0.5548
C21 C -0.11292(15) 0.09705(10) 0.96202(10)
C22 C -0.21846(16) 0.06543(10) 0.95547(11)
H13 H -0.2411 0.0212 0.9270
C23 C -0.28964(16) 0.09832(10) 0.99027(11)
H14 H -0.3612 0.0759 0.9847
C24 C -0.16035(17) 0.19002(11) 1.03967(11)
H15 H -0.1390 0.2336 1.0696
C25 C -0.08416(17) 0.16025(11) 1.00658(11)
H16 H -0.0122 0.1831 1.0144
C26 C 0.59888(18) 0.14576(11) 0.47777(12)
C27 C 0.50369(18) 0.16732(12) 0.41434(12)
H17 H 0.4625 0.1314 0.3777
C28 C 0.46653(17) 0.23954(12) 0.40252(11)
C29 C 0.6388(2) 0.06642(13) 0.47984(15)
C30 C 0.36815(19) 0.25847(13) 0.32629(12)
C31 C 0.68632(16) 0.28793(11) 0.73812(11)
C32 C 0.61997(17) 0.34850(11) 0.74083(11)
H18 H 0.6144 0.3627 0.7903
C33 C 0.56144(16) 0.38906(10) 0.67394(11)
C34 C 0.73640(18) 0.24279(13) 0.81428(12)
C35 C 0.48586(19) 0.45160(12) 0.68456(12)
F1 F -0.05406(12) -0.05746(7) 0.55256(7)
F2 F 0.09653(11) -0.11394(7) 0.62913(8)
F3 F -0.18900(11) -0.11444(7) 0.61922(8)
F4 F -0.06420(11) -0.20221(6) 0.63939(8)
F5 F -0.13265(11) -0.12508(7) 0.77141(8)
F6 F 0.03964(11) -0.16281(6) 0.78566(7)
F7 F 0.66200(16) 0.03759(7) 0.55033(9)
F8 F 0.56064(18) 0.02272(8) 0.43086(10)
F9 F 0.73160(19) 0.06238(9) 0.46040(16)
F10 F 0.34776(13) 0.20712(9) 0.27090(8)
F11 F 0.38949(12) 0.32069(8) 0.29521(8)
F12 F 0.27122(11) 0.26891(8) 0.34164(8)
F13 F 0.37531(11) 0.43225(7) 0.65590(9)
F14 F 0.49698(12) 0.51110(7) 0.64618(9)
F15 F 0.50525(14) 0.47042(8) 0.76000(8)
F16 F 0.72983(13) 0.27622(9) 0.87866(7)
F17 F 0.84626(11) 0.22748(7) 0.82888(7)
F18 F 0.68073(14) 0.18035(9) 0.80671(9)
N1 N 0.46516(13) 0.23077(8) 0.58317(9)
N2 N -0.26294(13) 0.16050(8) 1.03163(9)
O1 O 0.50188(11) 0.29375(7) 0.44624(7)
O2 O 0.66134(11) 0.18302(7) 0.53402(8)
O3 O 0.70861(11) 0.26206(7) 0.68052(7)
O4 O 0.55772(11) 0.38085(7) 0.60358(7)
S1 S 0.07831(4) 0.18901(3) 0.64615(3)
S2 S 0.10031(4) 0.09314(3) 0.93976(3)
Zn1 Zn 0.610500(18) 0.284034(12) 0.563520(12)
Zn1A Zn -0.389500(18) 0.215966(12) 1.063520(12)
N2A N 0.73706(13) 0.33950(8) 0.53163(9)
loop_
_geom_bond_atom_site_label_1
_geom_bond_atom_site_label_2
_geom_bond_site_symmetry_1
_geom_bond_site_symmetry_2
C1 C2 1_555 1_555
C2 C3 1_555 1_555
C3 H1 1_555 1_555
C4 C3 1_555 1_555
C5 C2 1_555 1_555
C6 C5 1_555 1_555
C7 C6 1_555 1_555
C8 C7 1_555 1_555
C9 C5 1_555 1_555
C10 C11 1_555 1_555
C11 C9 1_555 1_555
C12 C11 1_555 1_555
H2 C12 1_555 1_555
C13 C12 1_555 1_555
C14 C1 1_555 1_555
H3 C14 1_555 1_555
H4 C14 1_555 1_555
H5 C14 1_555 1_555
C15 C10 1_555 1_555
H6 C15 1_555 1_555
H7 C15 1_555 1_555
H8 C15 1_555 1_555
C16 C4 1_555 1_555
C17 C16 1_555 1_555
H9 C17 1_555 1_555
C18 C17 1_555 1_555
H10 C18 1_555 1_555
C19 H11 1_555 1_555
C20 C16 1_555 1_555
H12 C20 1_555 1_555
C21 C13 1_555 1_555
C22 C21 1_555 1_555
H13 C22 1_555 1_555
C23 C22 1_555 1_555
H14 C23 1_555 1_555
C24 H15 1_555 1_555
C25 C21 1_555 1_555
H16 C25 1_555 1_555
C26 C27 1_555 1_555
C27 H17 1_555 1_555
C28 C27 1_555 1_555
C29 C26 1_555 1_555
C30 C28 1_555 1_555
C31 C32 1_555 1_555
C32 H18 1_555 1_555
C33 C32 1_555 1_555
C34 C31 1_555 1_555
C35 C33 1_555 1_555
F1 C6 1_555 1_555
F2 C6 1_555 1_555
F3 C7 1_555 1_555
F4 C7 1_555 1_555
F5 C8 1_555 1_555
F6 C8 1_555 1_555
F7 C29 1_555 1_555
F8 C29 1_555 1_555
F9 C29 1_555 1_555
F10 C30 1_555 1_555
F11 C30 1_555 1_555
F12 C30 1_555 1_555
F13 C35 1_555 1_555
F14 C35 1_555 1_555
F15 C35 1_555 1_555
F16 C34 1_555 1_555
F17 C34 1_555 1_555
F18 C34 1_555 1_555
N1 C18 1_555 1_555
N2 C23 1_555 1_555
O1 C28 1_555 1_555
O2 C26 1_555 1_555
O3 C31 1_555 1_555
O4 C33 1_555 1_555
S1 C1 1_555 1_555
S2 C10 1_555 1_555
Zn1 N1 1_555 1_555
Zn1A N2 1_555 1_555
N2A Zn1 1_555 1_555
C4 S1 1_555 1_555
C8 C9 1_555 1_555
C13 S2 1_555 1_555
C19 C20 1_555 1_555
C19 N1 1_555 1_555
C24 C25 1_555 1_555
C24 N2 1_555 1_555
O1 Zn1 1_555 1_555
O2 Zn1 1_555 1_555
O3 Zn1 1_555 1_555
O4 Zn1 1_555 1_555

#END
