
#######################################################################
#
#                 Cambridge Crystallographic Data Centre
#                                CCDC 
#
#######################################################################
#
# If this CIF has been generated from an entry in the Cambridge 
# Structural Database, then it will include bibliographic, chemical, 
# crystal, experimental, refinement or atomic coordinate data resulting 
# from the CCDC's data processing and validation procedures.
#
#######################################################################

data_QERQUA
_symmetry_cell_setting           monoclinic
_symmetry_space_group_name_H-M   'P 21/c'
_symmetry_Int_Tables_number      14
_space_group_name_Hall           '-P 2ybc'
loop_
_symmetry_equiv_pos_site_id
_symmetry_equiv_pos_as_xyz
1 x,y,z
2 -x,1/2+y,1/2-z
3 -x,-y,-z
4 x,1/2-y,1/2+z
_cell_length_a                   9.6639(19)
_cell_length_b                   15.692(3)
_cell_length_c                   10.083(2)
_cell_angle_alpha                90
_cell_angle_beta                 111.69(3)
_cell_angle_gamma                90
_cell_volume                     1420.78
loop_
_atom_site_label
_atom_site_type_symbol
_atom_site_fract_x
_atom_site_fract_y
_atom_site_fract_z
Cu1 Cu 0.37524(3) 0.160908(14) 0.75733(2)
N1 N 0.27871(19) 0.07120(10) 0.60987(17)
N2 N 0.52056(19) 0.06652(10) 0.83814(17)
C1 C 0.1556(2) 0.08109(14) 0.4943(2)
H1 H 0.0952 0.1281 0.4890
C2 C 0.1140(3) 0.02389(15) 0.3818(2)
H2 H 0.0268 0.0319 0.3028
C3 C 0.2050(3) -0.04532(15) 0.3896(2)
H3 H 0.1809 -0.0838 0.3143
C4 C 0.3319(2) -0.05703(13) 0.5095(2)
H4 H 0.3937 -0.1036 0.5165
C5 C 0.3658(2) 0.00228(12) 0.6197(2)
C6 C 0.4986(2) -0.00283(12) 0.7524(2)
C7 C 0.5949(2) -0.07162(13) 0.7898(2)
H5 H 0.5782 -0.1189 0.7303
C8 C 0.7164(3) -0.06911(14) 0.9172(2)
H6 H 0.7830 -0.1145 0.9439
C9 C 0.7376(3) 0.00160(14) 1.0042(2)
H7 H 0.8179 0.0041 1.0908
C10 C 0.6380(2) 0.06861(13) 0.9608(2)
H8 H 0.6532 0.1165 1.0188
O1 O 0.21318(17) 0.24305(9) 0.67693(15)
O2 O 0.08930(17) 0.18554(9) 0.80244(15)
C11 C 0.1040(2) 0.23887(13) 0.7177(2)
H9 H 0.0287 0.2791 0.6812
O3 O 0.48174(16) 0.23548(9) 0.91633(14)
O4 O 0.49916(16) 0.29672(9) 1.12067(14)
C12 C 0.4297(2) 0.25646(12) 1.0107(2)
H10 H 0.3325 0.2404 0.9958
Cu1C Cu 0.37524(3) 0.339092(14) 1.25733(2)
O4C O 0.49916(16) 0.20328(9) 0.62067(14)
O5 O 0.82585(19) 0.33536(10) 0.77809(18)
O6 O 0.86199(17) 0.20494(10) 0.87720(16)
C13 C 0.7892(2) 0.27710(14) 0.8358(2)
H11 H 0.7014 0.2837 0.8525
H12 H 0.9516 0.2025 0.8640
loop_
_geom_bond_atom_site_label_1
_geom_bond_atom_site_label_2
_geom_bond_site_symmetry_1
_geom_bond_site_symmetry_2
Cu1 N1 1_555 1_555
N1 C1 1_555 1_555
N2 Cu1 1_555 1_555
C1 H1 1_555 1_555
C2 C1 1_555 1_555
H2 C2 1_555 1_555
C3 C2 1_555 1_555
H3 C3 1_555 1_555
C4 C3 1_555 1_555
H4 C4 1_555 1_555
C5 N1 1_555 1_555
C6 N2 1_555 1_555
C7 C6 1_555 1_555
H5 C7 1_555 1_555
C8 C7 1_555 1_555
H6 C8 1_555 1_555
C9 C8 1_555 1_555
H7 C9 1_555 1_555
C10 N2 1_555 1_555
H8 C10 1_555 1_555
O1 Cu1 1_555 1_555
O2 C11 1_555 1_555
C11 O1 1_555 1_555
H9 C11 1_555 1_555
O3 Cu1 1_555 1_555
O4 C12 1_555 1_555
C12 O3 1_555 1_555
H10 C12 1_555 1_555
O5 C13 1_555 1_555
O6 C13 1_555 1_555
C13 H11 1_555 1_555
H12 O6 1_555 1_555
Cu1C O4 1_555 1_555
O4C Cu1 1_555 1_555
C4 C5 1_555 1_555
C5 C6 1_555 1_555
C9 C10 1_555 1_555

#END
