
#######################################################################
#
#                 Cambridge Crystallographic Data Centre
#                                CCDC 
#
#######################################################################
#
# If this CIF has been generated from an entry in the Cambridge 
# Structural Database, then it will include bibliographic, chemical, 
# crystal, experimental, refinement or atomic coordinate data resulting 
# from the CCDC's data processing and validation procedures.
#
#######################################################################

data_QERQEJ
_symmetry_cell_setting           monoclinic
_symmetry_space_group_name_H-M   'P 21/n'
_symmetry_Int_Tables_number      14
_space_group_name_Hall           '-P 2yn'
loop_
_symmetry_equiv_pos_site_id
_symmetry_equiv_pos_as_xyz
1 x,y,z
2 1/2+x,1/2-y,1/2+z
3 -x,-y,-z
4 1/2-x,1/2+y,1/2-z
_cell_length_a                   12.3530(6)
_cell_length_b                   20.6111(5)
_cell_length_c                   17.2796(8)
_cell_angle_alpha                90
_cell_angle_beta                 94.7550(10)
_cell_angle_gamma                90
_cell_volume                     4384.4
loop_
_atom_site_label
_atom_site_type_symbol
_atom_site_fract_x
_atom_site_fract_y
_atom_site_fract_z
Mo1 Mo 0.59440(3) -0.40527(2) 0.27588(2)
O1 O 0.4452(4) -0.3001(2) 0.1885(3)
O2 O 0.4732(3) -0.3487(2) 0.4121(2)
O3 O 0.7416(3) -0.2833(2) 0.2888(2)
O4 O 0.7678(3) -0.4459(2) 0.4121(2)
N1 N 0.4989(3) -0.4970(2) 0.2541(2)
N2 N 0.6637(3) -0.4598(2) 0.1770(2)
N3 N 0.5019(3) -0.6004(2) 0.1845(2)
N4 N 0.6469(3) -0.5556(2) 0.0992(2)
N5 N 0.4945(3) -0.7361(2) 0.1968(3)
N6 N 0.8367(3) -0.6237(2) 0.1563(2)
C1 C 0.5320(3) -0.5411(2) 0.2034(2)
C2 C 0.6237(3) -0.5158(2) 0.1579(2)
C3 C 0.3996(3) -0.5043(2) 0.2889(2)
C4 C 0.3020(4) -0.4878(2) 0.2462(3)
C5 C 0.2061(4) -0.4930(2) 0.2817(3)
H1 H 0.1400(4) -0.4817(2) 0.2527(3)
C6 C 0.2018(4) -0.5138(2) 0.3575(3)
C7 C 0.2989(4) -0.5299(2) 0.3981(3)
H2 H 0.2981(4) -0.5442(2) 0.4503(3)
C8 C 0.3978(4) -0.5259(2) 0.3656(3)
C9 C 0.5012(4) -0.5473(3) 0.4111(3)
H3 H 0.5627(4) -0.5411(3) 0.3794(3)
H4 H 0.4955(4) -0.5933(3) 0.4246(3)
H5 H 0.5125(4) -0.5215(3) 0.4586(3)
C10 C 0.0948(4) -0.5199(3) 0.3946(3)
H6 H 0.0349(4) -0.5064(3) 0.3573(3)
H7 H 0.0965(4) -0.4921(3) 0.4407(3)
H8 H 0.0840(4) -0.5651(3) 0.4098(3)
C11 C 0.3007(4) -0.4662(3) 0.1624(3)
H9 H 0.3752(4) -0.4653(3) 0.1468(3)
H10 H 0.2688(4) -0.4228(3) 0.1569(3)
H11 H 0.2572(4) -0.4967(3) 0.1293(3)
C12 C 0.7375(3) -0.4256(2) 0.1309(3)
C13 C 0.6982(4) -0.3977(2) 0.0601(3)
C14 C 0.7683(5) -0.3594(2) 0.0199(3)
H12 H 0.7424(5) -0.3405(2) -0.0283(3)
C15 C 0.8744(5) -0.3483(2) 0.0489(3)
C16 C 0.9109(4) -0.3771(2) 0.1177(3)
H13 H 0.9840(4) -0.3701(2) 0.1374(3)
C17 C 0.8458(4) -0.4160(2) 0.1596(3)
C18 C 0.5834(4) -0.4094(3) 0.0270(3)
H14 H 0.5461(4) -0.4371(3) 0.0625(3)
H15 H 0.5841(4) -0.4308(3) -0.0235(3)
H16 H 0.5452(4) -0.3678(3) 0.0206(3)
C19 C 0.9478(6) -0.3027(3) 0.0059(4)
H17 H 0.9079(6) -0.2869(3) -0.0417(4)
H18 H 1.0125(6) -0.3264(3) -0.0073(4)
H19 H 0.9698(6) -0.2658(3) 0.0394(4)
C20 C 0.8903(4) -0.4474(3) 0.2335(3)
H20 H 0.8331(4) -0.4730(3) 0.2552(3)
H21 H 0.9162(4) -0.4139(3) 0.2708(3)
H22 H 0.9508(4) -0.4760(3) 0.2230(3)
C21 C 0.4134(4) -0.6321(2) 0.2215(3)
H23 H 0.3441(4) -0.6101(2) 0.2050(3)
H24 H 0.4263(4) -0.6275(2) 0.2786(3)
C22 C 0.4035(4) -0.7032(2) 0.2012(3)
C23 C 0.3040(4) -0.7325(3) 0.1903(4)
H25 H 0.2400(4) -0.7072(3) 0.1924(4)
C24 C 0.2954(5) -0.7978(3) 0.1763(4)
H26 H 0.2264(5) -0.8184(3) 0.1703(4)
C25 C 0.3876(5) -0.8320(3) 0.1713(4)
H27 H 0.3851(5) -0.8772(3) 0.1608(4)
C26 C 0.4848(5) -0.8001(3) 0.1817(5)
H28 H 0.5494(5) -0.8245(3) 0.1782(5)
C27 C 0.7422(4) -0.5575(2) 0.0559(3)
H29 H 0.7534(4) -0.5138(2) 0.0340(3)
H30 H 0.7283(4) -0.5879(2) 0.0119(3)
C28 C 0.8453(4) -0.5779(2) 0.1024(3)
C29 C 0.9442(5) -0.5515(3) 0.0868(4)
H31 H 0.9475(5) -0.5196(3) 0.0474(4)
C30 C 1.0373(5) -0.5714(4) 0.1287(5)
H32 H 1.1058(5) -0.5535(4) 0.1193(5)
C31 C 1.0287(5) -0.6183(4) 0.1849(5)
H33 H 1.0917(5) -0.6334(4) 0.2148(5)
C32 C 0.9278(4) -0.6431(3) 0.1970(4)
H34 H 0.9227(4) -0.6753(3) 0.2359(4)
C33 C 0.4942(4) -0.3440(3) 0.2119(3)
C34 C 0.5182(4) -0.3708(2) 0.3611(3)
C35 C 0.6860(4) -0.3302(2) 0.2834(3)
C36 C 0.7039(4) -0.4384(2) 0.3596(3)
Na1 Na 0.66806(14) -0.68215(8) 0.19019(11)
O5 O 0.7337(3) -0.6609(2) 0.3196(2)
O6 O 0.6584(4) -0.7124(2) 0.0503(2)
C37 C 0.7749(5) -0.6026(3) 0.3526(4)
H35 H 0.7235(5) -0.5666(3) 0.3396(4)
H36 H 0.8452(5) -0.5919(3) 0.3321(4)
C38 C 0.7901(6) -0.6119(3) 0.4398(4)
H37 H 0.8659(6) -0.6024(3) 0.4597(4)
H38 H 0.7405(6) -0.5833(3) 0.4664(4)
C39 C 0.7633(9) -0.6818(4) 0.4517(4)
H39 H 0.8237(9) -0.7037(4) 0.4826(4)
H40 H 0.6968(9) -0.6857(4) 0.4798(4)
C40 C 0.7466(10) -0.7105(3) 0.3775(4)
H41 H 0.6809(10) -0.7381(3) 0.3750(4)
H42 H 0.8095(10) -0.7382(3) 0.3678(4)
C41 C 0.5663(7) -0.7414(3) 0.0059(5)
H43 H 0.5411(7) -0.7138(3) -0.0389(5)
H44 H 0.5053(7) -0.7484(3) 0.0387(5)
C42 C 0.6103(9) -0.8049(4) -0.0206(7)
H45 H 0.5979(9) -0.8398(4) 0.0170(7)
H46 H 0.5750(9) -0.8172(4) -0.0720(7)
C43 C 0.7273(10) -0.7939(4) -0.0251(7)
H47 H 0.7700(10) -0.8306(4) -0.0018(7)
H48 H 0.7442(10) -0.7888(4) -0.0798(7)
C44 C 0.7514(8) -0.7350(4) 0.0180(5)
H49 H 0.8095(8) -0.7434(4) 0.0598(5)
H50 H 0.7779(8) -0.7015(4) -0.0170(5)
H51 H 0.6138(41) -0.5869(24) 0.1026(29)
Na1C Na 0.83194(14) -0.18215(8) 0.30981(11)
O3C O 0.7584(3) -0.7833(2) 0.2112(2)
loop_
_geom_bond_atom_site_label_1
_geom_bond_atom_site_label_2
_geom_bond_site_symmetry_1
_geom_bond_site_symmetry_2
Mo1 N1 1_555 1_555
O1 C33 1_555 1_555
O2 C34 1_555 1_555
O3 C35 1_555 1_555
O4 C36 1_555 1_555
N1 C1 1_555 1_555
N2 Mo1 1_555 1_555
N3 C1 1_555 1_555
N4 C2 1_555 1_555
N5 C22 1_555 1_555
N6 C28 1_555 1_555
C1 C2 1_555 1_555
C2 N2 1_555 1_555
C3 N1 1_555 1_555
C4 C3 1_555 1_555
C5 C4 1_555 1_555
H1 C5 1_555 1_555
C6 C5 1_555 1_555
C7 C6 1_555 1_555
H2 C7 1_555 1_555
C8 C3 1_555 1_555
C9 C8 1_555 1_555
H3 C9 1_555 1_555
H4 C9 1_555 1_555
H5 C9 1_555 1_555
C10 C6 1_555 1_555
H6 C10 1_555 1_555
H7 C10 1_555 1_555
H8 C10 1_555 1_555
C11 C4 1_555 1_555
H9 C11 1_555 1_555
H10 C11 1_555 1_555
H11 C11 1_555 1_555
C12 N2 1_555 1_555
C13 C12 1_555 1_555
C14 C13 1_555 1_555
H12 C14 1_555 1_555
C15 C14 1_555 1_555
C16 C15 1_555 1_555
H13 C16 1_555 1_555
C17 C12 1_555 1_555
C18 C13 1_555 1_555
H14 C18 1_555 1_555
H15 C18 1_555 1_555
H16 C18 1_555 1_555
C19 C15 1_555 1_555
H17 C19 1_555 1_555
H18 C19 1_555 1_555
H19 C19 1_555 1_555
C20 C17 1_555 1_555
H20 C20 1_555 1_555
H21 C20 1_555 1_555
H22 C20 1_555 1_555
C21 N3 1_555 1_555
H23 C21 1_555 1_555
H24 C21 1_555 1_555
C22 C21 1_555 1_555
C23 C22 1_555 1_555
H25 C23 1_555 1_555
C24 C23 1_555 1_555
H26 C24 1_555 1_555
C25 C24 1_555 1_555
H27 C25 1_555 1_555
C26 N5 1_555 1_555
H28 C26 1_555 1_555
C27 N4 1_555 1_555
H29 C27 1_555 1_555
H30 C27 1_555 1_555
C28 C27 1_555 1_555
C29 C28 1_555 1_555
H31 C29 1_555 1_555
C30 C29 1_555 1_555
H32 C30 1_555 1_555
C31 C30 1_555 1_555
H33 C31 1_555 1_555
C32 N6 1_555 1_555
H34 C32 1_555 1_555
C33 Mo1 1_555 1_555
C34 Mo1 1_555 1_555
C35 Mo1 1_555 1_555
C36 Mo1 1_555 1_555
Na1 N3 1_555 1_555
O5 Na1 1_555 1_555
O6 Na1 1_555 1_555
C37 O5 1_555 1_555
H35 C37 1_555 1_555
H36 C37 1_555 1_555
C38 C37 1_555 1_555
H37 C38 1_555 1_555
H38 C38 1_555 1_555
C39 C38 1_555 1_555
H39 C39 1_555 1_555
H40 C39 1_555 1_555
C40 O5 1_555 1_555
H41 C40 1_555 1_555
H42 C40 1_555 1_555
C41 O6 1_555 1_555
H43 C41 1_555 1_555
H44 C41 1_555 1_555
C42 C41 1_555 1_555
H45 C42 1_555 1_555
H46 C42 1_555 1_555
C43 C42 1_555 1_555
H47 C43 1_555 1_555
H48 C43 1_555 1_555
C44 O6 1_555 1_555
H49 C44 1_555 1_555
H50 C44 1_555 1_555
H51 N4 1_555 1_555
Na1C O3 1_555 1_555
O3C Na1 1_555 1_555
N5 Na1 1_555 1_555
N6 Na1 1_555 1_555
C7 C8 1_555 1_555
C16 C17 1_555 1_555
C25 C26 1_555 1_555
C31 C32 1_555 1_555
C39 C40 1_555 1_555
C43 C44 1_555 1_555

#END
