
#######################################################################
#
#                 Cambridge Crystallographic Data Centre
#                                CCDC 
#
#######################################################################
#
# If this CIF has been generated from an entry in the Cambridge 
# Structural Database, then it will include bibliographic, chemical, 
# crystal, experimental, refinement or atomic coordinate data resulting 
# from the CCDC's data processing and validation procedures.
#
#######################################################################

data_QERRUB
_symmetry_cell_setting           monoclinic
_symmetry_space_group_name_H-M   'P 21/c'
_symmetry_Int_Tables_number      14
_space_group_name_Hall           '-P 2ybc'
loop_
_symmetry_equiv_pos_site_id
_symmetry_equiv_pos_as_xyz
1 x,y,z
2 -x,1/2+y,1/2-z
3 -x,-y,-z
4 x,1/2-y,1/2+z
_cell_length_a                   5.5628(3)
_cell_length_b                   22.2025(13)
_cell_length_c                   13.5034(8)
_cell_angle_alpha                90
_cell_angle_beta                 98.5220(10)
_cell_angle_gamma                90
_cell_volume                     1649.36
loop_
_atom_site_label
_atom_site_type_symbol
_atom_site_fract_x
_atom_site_fract_y
_atom_site_fract_z
Cd1 Cd 0.5000 0.5000 0.5000
F1 F 0.8056(4) 0.74914(9) 0.82913(15)
C1 C 1.7412(6) 0.98233(14) 0.7951(2)
C2 C 1.5872(5) 0.92725(12) 0.7654(2)
C3 C 1.6371(5) 0.89748(13) 0.6819(2)
H1 H 1.7551 0.9143 0.6482
C4 C 1.3539(5) 0.81964(12) 0.6914(2)
C5 C 1.0617(5) 0.73836(13) 0.7029(2)
C6 C 0.9938(6) 0.66476(14) 0.5698(2)
H2 H 1.0021 0.6981 0.5241
H3 H 1.1512 0.6451 0.5804
C7 C 0.8016(6) 0.62055(13) 0.5245(2)
H4 H 0.8475 0.6047 0.4630
H5 H 0.6490 0.6419 0.5072
C8 C 0.7138(6) 0.59378(13) 0.6868(2)
H6 H 0.5583 0.6144 0.6767
H7 H 0.7020 0.5605 0.7323
C9 C 0.9085(6) 0.63707(13) 0.7343(2)
H8 H 1.0618 0.6159 0.7501
H9 H 0.8643 0.6528 0.7961
C10 C 0.9933(5) 0.77044(13) 0.7857(2)
C11 C 1.1009(5) 0.82228(13) 0.8200(2)
H10 H 1.0505 0.8411 0.8749
C12 C 1.2858(5) 0.84855(12) 0.7753(2)
C13 C 1.3988(5) 0.90428(12) 0.8161(2)
C14 C 1.5989(6) 0.82138(15) 0.5503(2)
H11 H 1.7525 0.8388 0.5391
H12 H 1.6216 0.7782 0.5578
C15 C 1.4107(8) 0.8335(2) 0.4603(3)
H13 H 1.4018 0.8760 0.4474
H14 H 1.4552 0.8130 0.4031
H15 H 1.2553 0.8193 0.4730
N1 N 1.5315(4) 0.84630(11) 0.64404(17)
N2 N 1.2465(5) 0.76455(13) 0.6572(2)
N3 N 0.9367(4) 0.68742(11) 0.66538(17)
N4 N 0.7639(4) 0.56999(10) 0.59036(17)
H16 H 0.9103 0.5511 0.6038
O1 O 1.7523(4) 1.00332(8) 0.88224(17)
O2 O 1.3261(4) 0.92648(9) 0.89234(15)
O3 O 1.8536(7) 1.00365(11) 0.7315(2)
Cd1C Cd 1.5000 1.0000 1.0000
Cd1C_2 Cd -0.5000 0.0000 0.0000
F1B F 0.1944(4) 0.25086(9) 0.17087(15)
C1B C -0.7412(6) 0.01767(14) 0.2049(2)
C2B C -0.5872(5) 0.07275(12) 0.2346(2)
C3B C -0.6371(5) 0.10252(13) 0.3181(2)
H1B H -0.7551 0.0857 0.3518
C4B C -0.3539(5) 0.18036(12) 0.3086(2)
C5B C -0.0617(5) 0.26164(13) 0.2971(2)
C6B C 0.0062(6) 0.33524(14) 0.4302(2)
H2B H -0.0021 0.3019 0.4759
H3B H -0.1512 0.3549 0.4196
C7B C 0.1984(6) 0.37945(13) 0.4755(2)
H4B H 0.1525 0.3953 0.5370
H5B H 0.3510 0.3581 0.4928
C8B C 0.2862(6) 0.40622(13) 0.3132(2)
H6B H 0.4417 0.3856 0.3233
H7B H 0.2980 0.4395 0.2677
C9B C 0.0915(6) 0.36293(13) 0.2657(2)
H8B H -0.0618 0.3841 0.2499
H9B H 0.1357 0.3472 0.2039
C10B C 0.0067(5) 0.22956(13) 0.2143(2)
C11B C -0.1009(5) 0.17772(13) 0.1800(2)
H10B H -0.0505 0.1589 0.1251
C12B C -0.2858(5) 0.15145(12) 0.2247(2)
C13B C -0.3988(5) 0.09572(12) 0.1839(2)
C14B C -0.5989(6) 0.17862(15) 0.4497(2)
H11B H -0.7525 0.1612 0.4609
H12B H -0.6216 0.2218 0.4422
C15B C -0.4107(8) 0.1665(2) 0.5397(3)
H13B H -0.4018 0.1240 0.5526
H14B H -0.4552 0.1870 0.5969
H15B H -0.2553 0.1807 0.5270
N1B N -0.5315(4) 0.15370(11) 0.35596(17)
N2B N -0.2465(5) 0.23545(13) 0.3428(2)
N3B N 0.0633(4) 0.31258(11) 0.33462(17)
N4B N 0.2361(4) 0.43001(10) 0.40964(17)
H16B H 0.0897 0.4489 0.3962
O1B O -0.7523(4) -0.00332(8) 0.11776(17)
O1C O 0.7523(4) 0.49668(8) 0.38224(17)
O1A O 0.2477(4) 0.50332(8) 0.61776(17)
O2B O -0.3261(4) 0.07352(9) 0.10766(15)
O2C O 0.3261(4) 0.57352(9) 0.39234(15)
O2A O 0.6739(4) 0.42648(9) 0.60766(15)
O3B O -0.8536(7) -0.00365(11) 0.2685(2)
O5 O 1.076(4) 0.4607(7) 0.0607(11)
H18 H 1.0943 0.4261 0.0879
O6 O 1.109(2) 0.5295(8) 0.0776(9)
H19 H 1.1837 0.5578 0.1118
O4? O 0.444(3) 0.5135(5) -0.0311(7)
H17? H 0.4057 0.5248 -0.0916
loop_
_geom_bond_atom_site_label_1
_geom_bond_atom_site_label_2
_geom_bond_site_symmetry_1
_geom_bond_site_symmetry_2
Cd1 N4 1_555 1_555
F1 C10 1_555 1_555
C1 C2 1_555 1_555
C2 C3 1_555 1_555
C3 H1 1_555 1_555
C4 C12 1_555 1_555
C5 C10 1_555 1_555
C6 H2 1_555 1_555
H3 C6 1_555 1_555
C7 C6 1_555 1_555
H4 C7 1_555 1_555
H5 C7 1_555 1_555
C8 H6 1_555 1_555
H7 C8 1_555 1_555
C9 C8 1_555 1_555
H8 C9 1_555 1_555
H9 C9 1_555 1_555
C10 C11 1_555 1_555
C11 H10 1_555 1_555
C12 C11 1_555 1_555
C13 C2 1_555 1_555
C14 H11 1_555 1_555
H12 C14 1_555 1_555
C15 C14 1_555 1_555
H13 C15 1_555 1_555
H14 C15 1_555 1_555
H15 C15 1_555 1_555
N1 C3 1_555 1_555
N2 C4 1_555 1_555
N3 C5 1_555 1_555
N4 C7 1_555 1_555
H16 N4 1_555 1_555
O1 C1 1_555 1_555
O2 C13 1_555 1_555
O3 C1 1_555 1_555
O5 H18 1_555 1_555
O6 H19 1_555 1_555
Cd1C O1 1_555 1_555
Cd1C_2 O1B 1_555 1_555
F1B C10B 1_555 1_555
C1B C2B 1_555 1_555
C2B C3B 1_555 1_555
C3B H1B 1_555 1_555
C4B C12B 1_555 1_555
C5B C10B 1_555 1_555
C6B H2B 1_555 1_555
H3B C6B 1_555 1_555
C7B C6B 1_555 1_555
H4B C7B 1_555 1_555
H5B C7B 1_555 1_555
C8B H6B 1_555 1_555
H7B C8B 1_555 1_555
C9B C8B 1_555 1_555
H8B C9B 1_555 1_555
H9B C9B 1_555 1_555
C10B C11B 1_555 1_555
C11B H10B 1_555 1_555
C12B C11B 1_555 1_555
C13B C2B 1_555 1_555
C14B H11B 1_555 1_555
H12B C14B 1_555 1_555
C15B C14B 1_555 1_555
H13B C15B 1_555 1_555
H14B C15B 1_555 1_555
H15B C15B 1_555 1_555
N1B C3B 1_555 1_555
N2B C4B 1_555 1_555
N3B C5B 1_555 1_555
N4B Cd1 1_555 1_555
H16B N4B 1_555 1_555
O1B C1B 1_555 1_555
O1C Cd1 1_555 1_555
O1A Cd1 1_555 1_555
O2B Cd1C_2 1_555 1_555
O2C Cd1 1_555 1_555
O2A Cd1 1_555 1_555
O3B C1B 1_555 1_555
C4 N1 1_555 1_555
C5 N2 1_555 1_555
C6 N3 1_555 1_555
C8 N4 1_555 1_555
C9 N3 1_555 1_555
C12 C13 1_555 1_555
C14 N1 1_555 1_555
O2 Cd1C 1_555 1_555
C4B N1B 1_555 1_555
C5B N2B 1_555 1_555
C6B N3B 1_555 1_555
C7B N4B 1_555 1_555
C8B N4B 1_555 1_555
C9B N3B 1_555 1_555
C12B C13B 1_555 1_555
C13B O2B 1_555 1_555
C14B N1B 1_555 1_555

#END
