
#######################################################################
#
#                 Cambridge Crystallographic Data Centre
#                                CCDC 
#
#######################################################################
#
# If this CIF has been generated from an entry in the Cambridge 
# Structural Database, then it will include bibliographic, chemical, 
# crystal, experimental, refinement or atomic coordinate data resulting 
# from the CCDC's data processing and validation procedures.
#
#######################################################################

data_QERSOW
_symmetry_cell_setting           triclinic
_symmetry_space_group_name_H-M   'P -1'
_symmetry_Int_Tables_number      2
_space_group_name_Hall           '-P 1'
loop_
_symmetry_equiv_pos_site_id
_symmetry_equiv_pos_as_xyz
1 x,y,z
2 -x,-y,-z
_cell_length_a                   9.3630(19)
_cell_length_b                   9.991(2)
_cell_length_c                   10.629(2)
_cell_angle_alpha                89.79(3)
_cell_angle_beta                 79.70(3)
_cell_angle_gamma                73.99(3)
_cell_volume                     939.235
loop_
_atom_site_label
_atom_site_type_symbol
_atom_site_fract_x
_atom_site_fract_y
_atom_site_fract_z
Mn1 Mn 0.49164(4) 0.00534(4) 0.16747(4)
N1 N 0.2931(3) 0.2009(3) 0.1851(2)
N2 N -0.3135(3) 0.8047(2) 0.1512(2)
C1 C 0.1511(3) 0.1949(3) 0.2016(3)
H1 H 0.1324 0.1090 0.2172
C2 C 0.0290(3) 0.3097(3) 0.1968(3)
H2 H -0.0682 0.2997 0.2079
C3 C 0.0529(3) 0.4402(3) 0.1752(3)
C4 C 0.2015(3) 0.4472(3) 0.1635(3)
H3 H 0.2234 0.5322 0.1517
C5 C 0.3164(3) 0.3265(3) 0.1696(3)
H4 H 0.4145 0.3334 0.1626
C6 C -0.0733(3) 0.5655(3) 0.1658(3)
C7 C -0.2208(3) 0.5592(3) 0.1771(3)
H5 H -0.2428 0.4744 0.1903
C8 C -0.3358(3) 0.6790(3) 0.1689(3)
H6 H -0.4337 0.6714 0.1761
C9 C -0.1713(3) 0.8107(3) 0.1386(3)
H7 H -0.1526 0.8968 0.1247
C10 C -0.0492(3) 0.6961(3) 0.1450(3)
H8 H 0.0479 0.7064 0.1354
O1 O 0.3497(3) -0.0862(3) 0.3068(2)
H9 H 0.358(5) -0.132(5) 0.365(5)
H10 H 0.327(5) -0.137(5) 0.263(5)
O2 O 0.6007(2) 0.0792(2) -0.01133(19)
C11 C 0.6876(4) 0.1582(4) -0.0215(3)
H11 H 0.7149 0.1829 0.0532
O3 O 0.7383(4) 0.2045(4) -0.1213(3)
S1 S 0.65558(8) 0.17856(7) 0.35859(6)
O4 O 0.5901(3) 0.0795(3) 0.3039(3)
O5 O 0.6511(3) 0.2978(2) 0.2787(2)
O6 O 0.8133(3) 0.1058(3) 0.3671(3)
O7 O 0.5667(3) 0.2235(3) 0.4874(2)
Mn1_2 Mn 1.49164(4) -0.99466(4) 0.16747(4)
Mn1_3 Mn -0.50836(4) 1.00534(4) 0.16747(4)
Mn1A Mn 0.50836(4) -0.00534(4) -0.16747(4)
N1_2 N 1.2931(3) -0.7991(3) 0.1851(2)
N2_2 N 0.6865(3) -0.1953(2) 0.1512(2)
N2_3 N 1.6865(3) -1.1953(2) 0.1512(2)
C1_2 C 1.1511(3) -0.8051(3) 0.2016(3)
H1_2 H 1.1324 -0.8910 0.2172
C2_2 C 1.0290(3) -0.6903(3) 0.1968(3)
H2_2 H 0.9318 -0.7003 0.2079
C3_2 C 1.0529(3) -0.5598(3) 0.1752(3)
C4_2 C 1.2015(3) -0.5528(3) 0.1635(3)
H3_2 H 1.2234 -0.4678 0.1517
C5_2 C 1.3164(3) -0.6735(3) 0.1696(3)
H4_2 H 1.4145 -0.6666 0.1626
C6_2 C 0.9267(3) -0.4345(3) 0.1658(3)
C7_2 C 0.7792(3) -0.4408(3) 0.1771(3)
H5_2 H 0.7572 -0.5256 0.1903
C8_2 C 0.6642(3) -0.3210(3) 0.1689(3)
H6_2 H 0.5663 -0.3286 0.1761
C9_2 C 0.8287(3) -0.1893(3) 0.1386(3)
H7_2 H 0.8474 -0.1032 0.1247
C10_2 C 0.9508(3) -0.3039(3) 0.1450(3)
H8_2 H 1.0479 -0.2936 0.1354
O1_2 O 1.3497(3) -1.0862(3) 0.3068(2)
H9_2 H 1.358(5) -1.132(5) 0.365(5)
H10_2 H 1.327(5) -1.137(5) 0.263(5)
O2A O 0.3993(2) -0.0792(2) 0.01133(19)
O2_2 O 1.6007(2) -0.9208(2) -0.01133(19)
O2A_2 O 1.3993(2) -1.0792(2) 0.01133(19)
C11A C 0.3124(4) -0.1582(4) 0.0215(3)
H11A H 0.2851 -0.1829 -0.0532
O3A O 0.2617(4) -0.2045(4) 0.1213(3)
S1_2 S 1.65558(8) -0.82144(7) 0.35859(6)
O4_2 O 1.5901(3) -0.9205(3) 0.3039(3)
O5_2 O 1.6511(3) -0.7022(2) 0.2787(2)
O6_2 O 1.8133(3) -0.8942(3) 0.3671(3)
O7_2 O 1.5667(3) -0.7765(3) 0.4874(2)
N3 N 0.1262(3) 0.1465(3) 0.5557(3)
H12 H 0.159(5) 0.063(5) 0.583(4)
C12 C -0.0206(4) 0.2069(4) 0.5658(4)
H13 H -0.0884 0.1543 0.5886
C13 C -0.0747(4) 0.3456(3) 0.5431(4)
H14 H -0.1779 0.3864 0.5490
C14 C 0.0275(3) 0.4246(3) 0.5111(3)
C15 C 0.1813(3) 0.3569(3) 0.5000(3)
H15 H 0.2525 0.4059 0.4772
C16 C 0.2270(4) 0.2173(3) 0.5231(3)
H16 H 0.3295 0.1722 0.5158
N3A N -0.1262(3) 0.8535(3) 0.4443(3)
H12A H -0.159(5) 0.937(5) 0.417(4)
C12A C 0.0206(4) 0.7931(4) 0.4342(4)
H13A H 0.0884 0.8457 0.4114
C13A C 0.0747(4) 0.6544(3) 0.4569(4)
H14A H 0.1779 0.6136 0.4510
C14A C -0.0275(3) 0.5754(3) 0.4889(3)
C15A C -0.1813(3) 0.6431(3) 0.5000(3)
H15A H -0.2525 0.5941 0.5228
C16A C -0.2270(4) 0.7827(3) 0.4769(3)
H16A H -0.3295 0.8278 0.4842
O8 O 0.5749(3) 0.4552(3) 0.6360(3)
H17 H 0.548(6) 0.403(7) 0.587(6)
H18 H 0.496(6) 0.528(7) 0.655(6)
loop_
_geom_bond_atom_site_label_1
_geom_bond_atom_site_label_2
_geom_bond_site_symmetry_1
_geom_bond_site_symmetry_2
Mn1 N1 1_555 1_555
N1 C1 1_555 1_555
N2 C8 1_555 1_555
C1 H1 1_555 1_555
C2 C1 1_555 1_555
H2 C2 1_555 1_555
C3 C2 1_555 1_555
C4 C3 1_555 1_555
H3 C4 1_555 1_555
C5 N1 1_555 1_555
H4 C5 1_555 1_555
C6 C3 1_555 1_555
C7 C6 1_555 1_555
H5 C7 1_555 1_555
C8 C7 1_555 1_555
H6 C8 1_555 1_555
C9 N2 1_555 1_555
H7 C9 1_555 1_555
C10 C6 1_555 1_555
H8 C10 1_555 1_555
O1 Mn1 1_555 1_555
H9 O1 1_555 1_555
H10 O1 1_555 1_555
O2 Mn1 1_555 1_555
C11 O2 1_555 1_555
H11 C11 1_555 1_555
O3 C11 1_555 1_555
S1 O4 1_555 1_555
O4 Mn1 1_555 1_555
O5 S1 1_555 1_555
O6 S1 1_555 1_555
O7 S1 1_555 1_555
N3 H12 1_555 1_555
C12 N3 1_555 1_555
H13 C12 1_555 1_555
C13 C12 1_555 1_555
H14 C13 1_555 1_555
C14 C13 1_555 1_555
C15 C14 1_555 1_555
H15 C15 1_555 1_555
C16 N3 1_555 1_555
H16 C16 1_555 1_555
O8 H17 1_555 1_555
H18 O8 1_555 1_555
Mn1_2 N1_2 1_555 1_555
Mn1_3 N2 1_555 1_555
Mn1A O2 1_555 1_555
N1_2 C1_2 1_555 1_555
N2_2 Mn1 1_555 1_555
N2_3 Mn1_2 1_555 1_555
C1_2 H1_2 1_555 1_555
C2_2 C1_2 1_555 1_555
H2_2 C2_2 1_555 1_555
C3_2 C2_2 1_555 1_555
C4_2 C3_2 1_555 1_555
H3_2 C4_2 1_555 1_555
C5_2 N1_2 1_555 1_555
H4_2 C5_2 1_555 1_555
C6_2 C3_2 1_555 1_555
C7_2 C6_2 1_555 1_555
H5_2 C7_2 1_555 1_555
C8_2 N2_2 1_555 1_555
H6_2 C8_2 1_555 1_555
C9_2 N2_2 1_555 1_555
H7_2 C9_2 1_555 1_555
C10_2 C6_2 1_555 1_555
H8_2 C10_2 1_555 1_555
O1_2 Mn1_2 1_555 1_555
H9_2 O1_2 1_555 1_555
H10_2 O1_2 1_555 1_555
O2A Mn1 1_555 1_555
O2_2 Mn1_2 1_555 1_555
O2A_2 Mn1_2 1_555 1_555
C11A O2A 1_555 1_555
H11A C11A 1_555 1_555
O3A C11A 1_555 1_555
S1_2 O4_2 1_555 1_555
O4_2 Mn1_2 1_555 1_555
O5_2 S1_2 1_555 1_555
O6_2 S1_2 1_555 1_555
O7_2 S1_2 1_555 1_555
N3A H12A 1_555 1_555
C12A N3A 1_555 1_555
H13A C12A 1_555 1_555
C13A C12A 1_555 1_555
H14A C13A 1_555 1_555
C14A C14 1_555 1_555
C15A C14A 1_555 1_555
H15A C15A 1_555 1_555
C16A N3A 1_555 1_555
H16A C16A 1_555 1_555
C4 C5 1_555 1_555
C9 C10 1_555 1_555
C15 C16 1_555 1_555
Mn1A O2A 1_555 1_555
C4_2 C5_2 1_555 1_555
C7_2 C8_2 1_555 1_555
C9_2 C10_2 1_555 1_555
C13A C14A 1_555 1_555
C15A C16A 1_555 1_555

#END
