
#######################################################################
#
#                 Cambridge Crystallographic Data Centre
#                                CCDC 
#
#######################################################################
#
# If this CIF has been generated from an entry in the Cambridge 
# Structural Database, then it will include bibliographic, chemical, 
# crystal, experimental, refinement or atomic coordinate data resulting 
# from the CCDC's data processing and validation procedures.
#
#######################################################################

data_QERXER
_symmetry_cell_setting           monoclinic
_symmetry_space_group_name_H-M   'P 21/n'
_symmetry_Int_Tables_number      14
_space_group_name_Hall           '-P 2yn'
loop_
_symmetry_equiv_pos_site_id
_symmetry_equiv_pos_as_xyz
1 x,y,z
2 1/2-x,1/2+y,1/2-z
3 -x,-y,-z
4 1/2+x,1/2-y,1/2+z
_cell_length_a                   12.3340(5)
_cell_length_b                   8.1155(3)
_cell_length_c                   18.4810(7)
_cell_angle_alpha                90
_cell_angle_beta                 104.403(2)
_cell_angle_gamma                90
_cell_volume                     1791.74
loop_
_atom_site_label
_atom_site_type_symbol
_atom_site_fract_x
_atom_site_fract_y
_atom_site_fract_z
C1 C 0.8283(2) 0.5222(3) 0.09833(13)
H1 H 0.8707 0.5174 0.1475
C2 C 0.8694(2) 0.4465(4) 0.04290(15)
H2 H 0.9377 0.3916 0.0552
C3 C 0.8085(2) 0.4537(3) -0.02955(14)
H3 H 0.8354 0.4042 -0.0670
C4 C 0.70555(19) 0.5356(3) -0.04725(12)
C5 C 0.67079(17) 0.6094(2) 0.01204(11)
C6 C 0.56659(17) 0.6963(2) -0.00229(11)
C7 C 0.43901(19) 0.8414(3) 0.04500(13)
H4 H 0.4179 0.8870 0.0856
C8 C 0.3664(2) 0.8572(3) -0.02585(14)
H5 H 0.2981 0.9110 -0.0320
C9 C 0.3974(2) 0.7924(3) -0.08595(13)
H6 H 0.3508 0.8039 -0.1337
C10 C 0.49930(19) 0.7088(3) -0.07564(12)
C11 C 0.5383(2) 0.6346(3) -0.13508(12)
H7 H 0.4954 0.6447 -0.1840
C12 C 0.6349(2) 0.5512(3) -0.12171(12)
H8 H 0.6568 0.5023 -0.1613
C13 C 0.67305(16) 0.5171(2) 0.28973(11)
C14 C 0.56999(16) 0.5953(2) 0.30411(11)
C15 C 0.51963(17) 0.7397(2) 0.26518(11)
C16 C 0.42306(18) 0.7987(3) 0.28703(12)
C17 C 0.37846(19) 0.7269(3) 0.33997(13)
H9 H 0.3155 0.7707 0.3520
C18 C 0.42992(18) 0.5876(3) 0.37479(12)
C19 C 0.52401(18) 0.5217(3) 0.35777(12)
H10 H 0.5569 0.4275 0.3824
N1 N 0.73140(15) 0.6007(2) 0.08362(9)
N2 N 0.53688(15) 0.7641(2) 0.05711(10)
N3 N 0.38490(18) 0.5103(3) 0.43198(12)
N4 N 0.3680(2) 0.9467(4) 0.25036(13)
O1 O 0.55428(13) 0.8190(2) 0.21580(8)
O2 O 0.71333(13) 0.5642(2) 0.23767(8)
O3 O 0.3272(3) 0.9401(5) 0.18426(15)
O4 O 0.3554(4) 1.0607(4) 0.28650(19)
O5 O 0.31450(17) 0.5872(3) 0.45531(12)
O6 O 0.42009(18) 0.3746(3) 0.45508(11)
O7 O 0.71546(13) 0.4023(2) 0.33357(9)
Zn1 Zn 0.662556(19) 0.74050(3) 0.159885(12)
O7A O 0.78454(13) 0.9023(2) 0.16643(9)
Zn1A Zn 0.837444(19) 0.24050(3) 0.340115(12)
loop_
_geom_bond_atom_site_label_1
_geom_bond_atom_site_label_2
_geom_bond_site_symmetry_1
_geom_bond_site_symmetry_2
C1 H1 1_555 1_555
C2 C1 1_555 1_555
H2 C2 1_555 1_555
C3 C2 1_555 1_555
H3 C3 1_555 1_555
C4 C3 1_555 1_555
C5 C4 1_555 1_555
C6 C5 1_555 1_555
C7 H4 1_555 1_555
C8 C7 1_555 1_555
H5 C8 1_555 1_555
C9 C8 1_555 1_555
H6 C9 1_555 1_555
C10 C6 1_555 1_555
C11 C10 1_555 1_555
H7 C11 1_555 1_555
C12 C4 1_555 1_555
H8 C12 1_555 1_555
C13 C14 1_555 1_555
C14 C15 1_555 1_555
C15 C16 1_555 1_555
C16 C17 1_555 1_555
C17 H9 1_555 1_555
C18 C17 1_555 1_555
C19 C14 1_555 1_555
H10 C19 1_555 1_555
N1 C1 1_555 1_555
N2 C6 1_555 1_555
N3 C18 1_555 1_555
N4 C16 1_555 1_555
O1 C15 1_555 1_555
O2 C13 1_555 1_555
O3 N4 1_555 1_555
O4 N4 1_555 1_555
O5 N3 1_555 1_555
O6 N3 1_555 1_555
O7 C13 1_555 1_555
Zn1 N1 1_555 1_555
O7A Zn1 1_555 1_555
Zn1A O7 1_555 1_555
C5 N1 1_555 1_555
C7 N2 1_555 1_555
C9 C10 1_555 1_555
C11 C12 1_555 1_555
C18 C19 1_555 1_555
N2 Zn1 1_555 1_555
O1 Zn1 1_555 1_555
O2 Zn1 1_555 1_555

#END
