
#######################################################################
#
#                 Cambridge Crystallographic Data Centre
#                                CCDC 
#
#######################################################################
#
# If this CIF has been generated from an entry in the Cambridge 
# Structural Database, then it will include bibliographic, chemical, 
# crystal, experimental, refinement or atomic coordinate data resulting 
# from the CCDC's data processing and validation procedures.
#
#######################################################################

data_QESBAR01
_symmetry_cell_setting           monoclinic
_symmetry_space_group_name_H-M   'P 21/n'
_symmetry_Int_Tables_number      14
_space_group_name_Hall           '-P 2yn'
loop_
_symmetry_equiv_pos_site_id
_symmetry_equiv_pos_as_xyz
1 x,y,z
2 1/2-x,1/2+y,1/2-z
3 -x,-y,-z
4 1/2+x,1/2-y,1/2+z
_cell_length_a                   10.780(2)
_cell_length_b                   9.447(2)
_cell_length_c                   12.604(3)
_cell_angle_alpha                90
_cell_angle_beta                 112.38(3)
_cell_angle_gamma                90
_cell_volume                     1186.89
loop_
_atom_site_label
_atom_site_type_symbol
_atom_site_fract_x
_atom_site_fract_y
_atom_site_fract_z
Cu1 Cu 0.1076(1) 0.1398(1) 0.9375(1)
O1 O 0.0907(2) 0.1975(2) 0.7824(1)
O2 O 0.1863(2) 0.1569(2) 1.1027(1)
O3 O 0.2753(2) 0.3264(2) 0.8691(1)
O4 O 0.0514(2) 0.0243(2) 1.1597(1)
N1 N 0.2553(2) 0.4882(2) 0.5576(2)
N2 N 0.4531(2) 0.2279(2) 1.4264(1)
C1 C 0.1561(2) 0.4427(3) 0.4607(2)
C2 C 0.0638(2) 0.3420(3) 0.4609(2)
C3 C 0.0695(2) 0.2866(3) 0.5646(2)
C4 C 0.1710(2) 0.3326(2) 0.6652(2)
C5 C 0.2617(2) 0.4314(2) 0.6572(2)
C6 C 0.4348(2) 0.1639(2) 1.5150(2)
C7 C 0.3274(2) 0.0777(3) 1.5018(2)
C8 C 0.2322(2) 0.0532(2) 1.3920(2)
C9 C 0.2491(2) 0.1187(2) 1.2998(2)
C10 C 0.3598(2) 0.2049(2) 1.3210(2)
C11 C 0.1521(2) 0.0963(2) 1.1775(2)
C12 C 0.1824(2) 0.2828(2) 0.7825(2)
H1 H 0.1498 0.4811 0.3909
H2 H -0.0016 0.3114 0.3922
H3 H 0.0069 0.2201 0.5668
H4 H 0.3307 0.4601 0.7245
H5 H 0.4980 0.1790 1.5887
H6 H 0.3183 0.0362 1.5653
H7 H 0.1591 -0.0056 1.3807
H8 H 0.3701 0.2493 1.2590
O4B O -0.0514(2) -0.0243(2) 0.8403(1)
N1A N 0.2447(2) -0.0118(2) 0.9424(2)
N2C N -0.0469(2) 0.2721(2) 0.9264(1)
Cu1B Cu -0.1076(1) -0.1398(1) 1.0625(1)
Cu1A Cu 0.3924(1) 0.6398(1) 0.5625(1)
Cu1C Cu 0.6076(1) 0.3602(1) 1.4375(1)
loop_
_geom_bond_atom_site_label_1
_geom_bond_atom_site_label_2
_geom_bond_site_symmetry_1
_geom_bond_site_symmetry_2
Cu1 O1 1_555 1_555
O1 C12 1_555 1_555
O2 Cu1 1_555 1_555
O3 C12 1_555 1_555
O4 C11 1_555 1_555
N1 C1 1_555 1_555
N2 C6 1_555 1_555
C1 C2 1_555 1_555
C2 C3 1_555 1_555
C3 C4 1_555 1_555
C4 C5 1_555 1_555
C5 N1 1_555 1_555
C6 C7 1_555 1_555
C7 C8 1_555 1_555
C8 C9 1_555 1_555
C9 C10 1_555 1_555
C10 N2 1_555 1_555
C11 O2 1_555 1_555
C12 C4 1_555 1_555
H1 C1 1_555 1_555
H2 C2 1_555 1_555
H3 C3 1_555 1_555
H4 C5 1_555 1_555
H5 C6 1_555 1_555
H6 C7 1_555 1_555
H7 C8 1_555 1_555
H8 C10 1_555 1_555
O4B Cu1 1_555 1_555
N1A Cu1 1_555 1_555
N2C Cu1 1_555 1_555
Cu1B O4 1_555 1_555
Cu1A N1 1_555 1_555
Cu1C N2 1_555 1_555
C9 C11 1_555 1_555

#END
