
#######################################################################
#
#                 Cambridge Crystallographic Data Centre
#                                CCDC 
#
#######################################################################
#
# If this CIF has been generated from an entry in the Cambridge 
# Structural Database, then it will include bibliographic, chemical, 
# crystal, experimental, refinement or atomic coordinate data resulting 
# from the CCDC's data processing and validation procedures.
#
#######################################################################

data_QESBEV
_symmetry_cell_setting           monoclinic
_symmetry_space_group_name_H-M   'P 21/c'
_symmetry_Int_Tables_number      14
_space_group_name_Hall           '-P 2ybc'
loop_
_symmetry_equiv_pos_site_id
_symmetry_equiv_pos_as_xyz
1 x,y,z
2 x,1/2-y,1/2+z
3 -x,-y,-z
4 -x,1/2+y,1/2-z
_cell_length_a                   7.5454(7)
_cell_length_b                   16.5778(16)
_cell_length_c                   9.1049(9)
_cell_angle_alpha                90.00
_cell_angle_beta                 104.863(2)
_cell_angle_gamma                90.00
_cell_volume                     1100.79
loop_
_atom_site_label
_atom_site_type_symbol
_atom_site_fract_x
_atom_site_fract_y
_atom_site_fract_z
Zn1 Zn 0.47717(7) 0.33839(3) 1.52337(6)
O1 O 0.3288(4) 0.32558(19) 1.2967(3)
O2 O 0.6233(4) 0.24393(18) 1.4564(3)
O3 O 0.3273(4) 0.44082(19) 1.5441(3)
C1 C 0.3814(6) 0.2682(3) 1.2318(5)
C2 C 0.4053(6) 0.5045(3) 1.5186(5)
O4 O 0.6556(4) 0.42524(18) 1.4797(3)
O5 O 0.3091(4) 0.25765(18) 1.6006(3)
C9 C 0.5577(6) 0.2222(3) 1.3207(5)
O6 O 0.6216(4) 0.33081(19) 1.7519(3)
O5A O 0.3091(4) 0.24235(18) 1.1006(3)
C2B C 0.5947(6) 0.4955(3) 1.4814(5)
O4B O 0.3444(4) 0.57476(18) 1.5203(3)
C1A C 0.3814(6) 0.2318(3) 1.7318(5)
O6A O 0.6216(4) 0.16919(19) 1.2519(3)
C9A C 0.5577(6) 0.2778(3) 1.8207(5)
Zn1A Zn 0.47717(7) 0.16161(3) 1.02337(6)
O3B O 0.6727(4) 0.55918(19) 1.4559(3)
Zn1B Zn 0.52283(7) 0.66161(3) 1.47663(6)
O1A O 0.3288(4) 0.17442(19) 1.7967(3)
O2A O 0.6233(4) 0.25607(18) 1.9564(3)
Zn1A_2 Zn 0.47717(7) 0.16161(3) 2.02337(6)
O1A_2 O 0.3288(4) 0.17442(19) 0.7967(3)
O2A_2 O 0.6233(4) 0.25607(18) 0.9564(3)
O3A O 0.3273(4) 0.05918(19) 1.0441(3)
O4A O 0.6556(4) 0.07476(18) 0.9797(3)
N1 N 0.1236(5) 0.5592(3) 0.8091(4)
C3 C 0.2278(7) 0.5420(5) 0.9481(7)
C4 C 0.0304(7) 0.5002(4) 0.7206(6)
C5 C 0.2413(10) 0.4648(6) 1.0001(9)
C6 C 0.0434(8) 0.4231(4) 0.7714(7)
C7 C 0.1480(8) 0.4034(5) 0.9112(8)
C8 C 0.1072(9) 0.6427(4) 0.7514(8)
H1 H -0.044(7) 0.516(3) 0.624(6)
H2 H 0.280(7) 0.587(3) 0.990(6)
H3 H 0.172(6) 0.682(3) 0.831(5)
H4 H 0.147(8) 0.642(3) 0.661(7)
H5 H -0.030(9) 0.660(4) 0.722(7)
H6 H 0.162(8) 0.346(4) 0.941(7)
H7 H -0.019(7) 0.389(3) 0.707(6)
H8 H 0.300(8) 0.457(3) 1.079(7)
loop_
_geom_bond_atom_site_label_1
_geom_bond_atom_site_label_2
_geom_bond_site_symmetry_1
_geom_bond_site_symmetry_2
Zn1 O1 1_555 1_555
O1 C1 1_555 1_555
O2 Zn1 1_555 1_555
O3 Zn1 1_555 1_555
C1 C9 1_555 1_555
C2 O3 1_555 1_555
N1 C3 1_555 1_555
C3 C5 1_555 1_555
C4 N1 1_555 1_555
C5 C7 1_555 1_555
C6 C4 1_555 1_555
C7 C6 1_555 1_555
O4 Zn1 1_555 1_555
C8 N1 1_555 1_555
O5 Zn1 1_555 1_555
C9 O2 1_555 1_555
O6 Zn1 1_555 1_555
H1 C4 1_555 1_555
H2 C3 1_555 1_555
H3 C8 1_555 1_555
H4 C8 1_555 1_555
H5 C8 1_555 1_555
H6 C7 1_555 1_555
H7 C6 1_555 1_555
H8 C5 1_555 1_555
O5A C1 1_555 1_555
C2B C2 1_555 1_555
O4B C2 1_555 1_555
C1A O5 1_555 1_555
O6A C9 1_555 1_555
C9A O6 1_555 1_555
Zn1A O5A 1_555 1_555
O3B C2B 1_555 1_555
Zn1B O4B 1_555 1_555
O1A C1A 1_555 1_555
O2A C9A 1_555 1_555
Zn1A_2 O1A 1_555 1_555
O1A_2 Zn1A 1_555 1_555
O2A_2 Zn1A 1_555 1_555
O3A Zn1A 1_555 1_555
O4A Zn1A 1_555 1_555
O4 C2B 1_555 1_555
C1A C9A 1_555 1_555
O6A Zn1A 1_555 1_555
O3B Zn1B 1_555 1_555
O2A Zn1A_2 1_555 1_555

#END
