
#######################################################################
#
#                 Cambridge Crystallographic Data Centre
#                                CCDC 
#
#######################################################################
#
# If this CIF has been generated from an entry in the Cambridge 
# Structural Database, then it will include bibliographic, chemical, 
# crystal, experimental, refinement or atomic coordinate data resulting 
# from the CCDC's data processing and validation procedures.
#
#######################################################################

data_QESBIZ01
_symmetry_cell_setting           monoclinic
_symmetry_space_group_name_H-M   'P 21/n'
_symmetry_Int_Tables_number      14
_space_group_name_Hall           '-P 2yn'
loop_
_symmetry_equiv_pos_site_id
_symmetry_equiv_pos_as_xyz
1 x,y,z
2 1/2-x,1/2+y,1/2-z
3 -x,-y,-z
4 1/2+x,1/2-y,1/2+z
_cell_length_a                   9.4780(9)
_cell_length_b                   9.2118(8)
_cell_length_c                   15.0863(13)
_cell_angle_alpha                90
_cell_angle_beta                 94.402(4)
_cell_angle_gamma                90
_cell_volume                     1313.29
loop_
_atom_site_label
_atom_site_type_symbol
_atom_site_fract_x
_atom_site_fract_y
_atom_site_fract_z
Zn1 Zn 0.75084(3) -0.34984(3) 0.504672(15)
O1 O 0.56734(16) -0.36565(17) 0.57297(10)
O2 O 0.92978(16) -0.36105(18) 0.43119(9)
O3 O 1.13088(16) -0.48438(18) 0.42529(10)
O4 O 0.36375(16) -0.48637(18) 0.57088(10)
N1 N 0.6728(2) -0.1855(2) 0.41113(12)
N2 N 0.8342(2) -0.1952(2) 0.60162(12)
C1 C 0.4796(2) -0.4570(2) 0.54165(13)
C2 C 1.0183(2) -0.4548(3) 0.45843(12)
C3 C 0.6379(3) -0.0519(3) 0.43339(17)
H1 H 0.6433 -0.0276 0.4934
C4 C 0.5940(4) 0.0530(4) 0.37219(19)
H2 H 0.5703 0.1456 0.3907
C5 C 0.5860(3) 0.0183(4) 0.28352(19)
H3 H 0.5558 0.0865 0.2407
C6 C 0.6231(4) -0.1172(4) 0.25962(18)
H4 H 0.6201 -0.1430 0.1999
C7 C 0.6655(3) -0.2167(3) 0.32437(16)
H5 H 0.6900 -0.3097 0.3070
C8 C 0.9477(3) -0.1161(3) 0.58687(16)
H6 H 0.9903 -0.1306 0.5340
C9 C 1.0050(3) -0.0147(3) 0.64543(18)
H7 H 1.0835 0.0391 0.6317
C10 C 0.9457(3) 0.0066(3) 0.72456(17)
H8 H 0.9831 0.0744 0.7656
C11 C 0.8304(3) -0.0743(4) 0.74121(17)
H9 H 0.7875 -0.0626 0.7942
C12 C 0.7781(3) -0.1733(3) 0.67895(16)
H10 H 0.6995 -0.2279 0.6914
Zn1B Zn 0.24916(3) -0.65016(3) 0.495328(15)
Zn1B_2 Zn 1.24916(3) -0.65016(3) 0.495328(15)
O1B O 0.43266(16) -0.63435(17) 0.42703(10)
O2B O 1.07022(16) -0.63895(18) 0.56881(9)
O2B_2 O 0.07022(16) -0.63895(18) 0.56881(9)
O3B O 0.86912(16) -0.51562(18) 0.57471(10)
O3_2 O 0.13088(16) -0.48438(18) 0.42529(10)
O4B O 0.63625(16) -0.51363(18) 0.42912(10)
N1B N 0.3272(2) -0.8145(2) 0.58887(12)
N2B N 0.1658(2) -0.8048(2) 0.39838(12)
C1B C 0.5204(2) -0.5430(2) 0.45835(13)
C2B C 0.9817(2) -0.5452(3) 0.54157(12)
C3B C 0.3621(3) -0.9481(3) 0.56661(17)
H1B H 0.3567 -0.9724 0.5066
C4B C 0.4060(4) -1.0530(4) 0.62781(19)
H2B H 0.4297 -1.1456 0.6093
C5B C 0.4140(3) -1.0183(4) 0.71648(19)
H3B H 0.4442 -1.0865 0.7593
C6B C 0.3769(4) -0.8828(4) 0.74038(18)
H4B H 0.3799 -0.8570 0.8001
C7B C 0.3345(3) -0.7833(3) 0.67563(16)
H5B H 0.3100 -0.6903 0.6930
C8B C 0.0523(3) -0.8839(3) 0.41313(16)
H6B H 0.0097 -0.8694 0.4660
C9B C -0.0050(3) -0.9853(3) 0.35457(18)
H7B H -0.0835 -1.0391 0.3683
C10B C 0.0543(3) -1.0066(3) 0.27544(17)
H8B H 0.0169 -1.0744 0.2344
C11B C 0.1696(3) -0.9257(4) 0.25879(17)
H9B H 0.2125 -0.9374 0.2058
C12B C 0.2219(3) -0.8267(3) 0.32105(16)
H10B H 0.3005 -0.7721 0.3086
loop_
_geom_bond_atom_site_label_1
_geom_bond_atom_site_label_2
_geom_bond_site_symmetry_1
_geom_bond_site_symmetry_2
Zn1 O1 1_555 1_555
O1 C1 1_555 1_555
O2 Zn1 1_555 1_555
O3 C2 1_555 1_555
O4 C1 1_555 1_555
N1 Zn1 1_555 1_555
N2 Zn1 1_555 1_555
C1 C1B 1_555 1_555
C2 O2 1_555 1_555
C3 N1 1_555 1_555
H1 C3 1_555 1_555
C4 C3 1_555 1_555
H2 C4 1_555 1_555
C5 C4 1_555 1_555
H3 C5 1_555 1_555
C6 C5 1_555 1_555
H4 C6 1_555 1_555
C7 N1 1_555 1_555
H5 C7 1_555 1_555
C8 N2 1_555 1_555
H6 C8 1_555 1_555
C9 C8 1_555 1_555
H7 C9 1_555 1_555
C10 C9 1_555 1_555
H8 C10 1_555 1_555
C11 C10 1_555 1_555
H9 C11 1_555 1_555
C12 N2 1_555 1_555
H10 C12 1_555 1_555
Zn1B O4 1_555 1_555
Zn1B_2 O3 1_555 1_555
O1B Zn1B 1_555 1_555
O2B Zn1B_2 1_555 1_555
O2B_2 Zn1B 1_555 1_555
O3B Zn1 1_555 1_555
O3_2 Zn1B 1_555 1_555
O4B Zn1 1_555 1_555
N1B Zn1B 1_555 1_555
N2B Zn1B 1_555 1_555
C1B O1B 1_555 1_555
C2B C2 1_555 1_555
C3B N1B 1_555 1_555
H1B C3B 1_555 1_555
C4B C3B 1_555 1_555
H2B C4B 1_555 1_555
C5B C4B 1_555 1_555
H3B C5B 1_555 1_555
C6B C5B 1_555 1_555
H4B C6B 1_555 1_555
C7B N1B 1_555 1_555
H5B C7B 1_555 1_555
C8B N2B 1_555 1_555
H6B C8B 1_555 1_555
C9B C8B 1_555 1_555
H7B C9B 1_555 1_555
C10B C9B 1_555 1_555
H8B C10B 1_555 1_555
C11B C10B 1_555 1_555
H9B C11B 1_555 1_555
C12B N2B 1_555 1_555
H10B C12B 1_555 1_555
C6 C7 1_555 1_555
C11 C12 1_555 1_555
O2B C2B 1_555 1_555
O3B C2B 1_555 1_555
O4B C1B 1_555 1_555
C6B C7B 1_555 1_555
C11B C12B 1_555 1_555

#END
