
#######################################################################
#
#                 Cambridge Crystallographic Data Centre
#                                CCDC 
#
#######################################################################
#
# If this CIF has been generated from an entry in the Cambridge 
# Structural Database, then it will include bibliographic, chemical, 
# crystal, experimental, refinement or atomic coordinate data resulting 
# from the CCDC's data processing and validation procedures.
#
#######################################################################

data_QESBAR
_symmetry_cell_setting           monoclinic
_symmetry_space_group_name_H-M   'P 21/n'
_symmetry_Int_Tables_number      14
_space_group_name_Hall           '-P 2yn'
loop_
_symmetry_equiv_pos_site_id
_symmetry_equiv_pos_as_xyz
1 x,y,z
2 1/2+x,1/2-y,1/2+z
3 -x,-y,-z
4 1/2-x,1/2+y,1/2-z
_cell_length_a                   10.693(2)
_cell_length_b                   9.5894(19)
_cell_length_c                   12.535(3)
_cell_angle_alpha                90.00
_cell_angle_beta                 112.09(3)
_cell_angle_gamma                90.00
_cell_volume                     1190.98
loop_
_atom_site_label
_atom_site_type_symbol
_atom_site_fract_x
_atom_site_fract_y
_atom_site_fract_z
Cu1 Cu -0.39228(6) 0.13911(7) -0.06248(5)
O1 O -0.0930(3) -0.3032(4) -0.2828(3)
O2 O -0.8137(3) 0.3438(4) -0.3974(3)
C1 C -0.8471(5) 0.4061(5) -0.3219(4)
O3 O -0.2741(4) -0.1736(5) -0.3702(3)
C2 C -0.7497(5) 0.3818(5) -0.1997(4)
C3 C -0.1834(5) -0.2175(5) -0.2834(4)
O4 O -0.9450(4) 0.4790(4) -0.3392(3)
C4 C -0.5640(6) 0.3354(6) 0.0152(5)
H1 H -0.4998 0.3209 0.0887
N1 N -0.5469(4) 0.2712(4) -0.0733(3)
C5 C -0.6400(5) 0.2950(5) -0.1789(4)
H2 H -0.6301 0.2508 -0.2413
C6 C -0.6714(6) 0.4213(6) 0.0030(4)
H3 H -0.6806 0.4614 0.0673
C7 C -0.7664(5) 0.4477(6) -0.1072(4)
H4 H -0.8387 0.5076 -0.1184
N2 N -0.2555(4) -0.0113(4) -0.0580(3)
C8 C -0.2621(5) -0.0679(5) -0.1572(4)
H5 H -0.3315 -0.0396 -0.2244
C9 C -0.0647(6) -0.1578(6) 0.0396(5)
H6 H 0.0004 -0.1886 0.1085
C10 C -0.1567(5) -0.0565(6) 0.0399(4)
H7 H -0.1505 -0.0182 0.1098
C11 C -0.0704(5) -0.2130(6) -0.0650(4)
H8 H -0.0081 -0.2795 -0.0674
C12 C -0.1718(5) -0.1663(5) -0.1660(4)
O1C O -0.4070(3) 0.1968(4) -0.2172(3)
Cu1C Cu -0.10772(6) -0.36089(7) -0.43752(5)
O2A O -0.3137(3) 0.1562(4) 0.1026(3)
O4C O -0.5550(4) -0.0210(4) -0.1608(3)
Cu1A Cu -0.89228(6) 0.36089(7) -0.56248(5)
Cu1C_2 Cu -1.10772(6) 0.63911(7) -0.43752(5)
loop_
_geom_bond_atom_site_label_1
_geom_bond_atom_site_label_2
_geom_bond_site_symmetry_1
_geom_bond_site_symmetry_2
Cu1 N1 1_555 1_555
O1 C3 1_555 1_555
O2 C1 1_555 1_555
C1 C2 1_555 1_555
O3 C3 1_555 1_555
C2 C5 1_555 1_555
C3 C12 1_555 1_555
O4 C1 1_555 1_555
C4 H1 1_555 1_555
N1 C4 1_555 1_555
C5 N1 1_555 1_555
H2 C5 1_555 1_555
C6 C4 1_555 1_555
H3 C6 1_555 1_555
C7 C2 1_555 1_555
H4 C7 1_555 1_555
N2 Cu1 1_555 1_555
C8 N2 1_555 1_555
H5 C8 1_555 1_555
C9 H6 1_555 1_555
C10 N2 1_555 1_555
H7 C10 1_555 1_555
C11 C9 1_555 1_555
H8 C11 1_555 1_555
C12 C8 1_555 1_555
O1C Cu1 1_555 1_555
Cu1C O1 1_555 1_555
O2A Cu1 1_555 1_555
O4C Cu1 1_555 1_555
Cu1A O2 1_555 1_555
Cu1C_2 O4 1_555 1_555
C6 C7 1_555 1_555
C9 C10 1_555 1_555
C11 C12 1_555 1_555

#END
