
#######################################################################
#
#                 Cambridge Crystallographic Data Centre
#                                CCDC 
#
#######################################################################
#
# If this CIF has been generated from an entry in the Cambridge 
# Structural Database, then it will include bibliographic, chemical, 
# crystal, experimental, refinement or atomic coordinate data resulting 
# from the CCDC's data processing and validation procedures.
#
#######################################################################

data_QESDEY
_symmetry_cell_setting           monoclinic
_symmetry_space_group_name_H-M   'P 21/c'
_symmetry_Int_Tables_number      14
_space_group_name_Hall           '-P 2ybc'
loop_
_symmetry_equiv_pos_site_id
_symmetry_equiv_pos_as_xyz
1 x,y,z
2 -x,1/2+y,1/2-z
3 -x,-y,-z
4 x,1/2-y,1/2+z
_cell_length_a                   14.3397(12)
_cell_length_b                   7.6085(6)
_cell_length_c                   18.6129(15)
_cell_angle_alpha                90
_cell_angle_beta                 108.0880(10)
_cell_angle_gamma                90
_cell_volume                     1930.38
loop_
_atom_site_label
_atom_site_type_symbol
_atom_site_fract_x
_atom_site_fract_y
_atom_site_fract_z
Ni1 Ni 0.277612(14) 0.42313(3) 0.201304(11)
S1 S 0.34972(3) 0.47414(5) 0.66051(2)
O1 O 0.46353(11) 0.20387(19) 0.40279(7)
H1 H 0.4301 0.2447 0.3622
O2 O 0.32114(10) 0.38388(17) 0.31511(6)
O3 O 0.25550(11) 0.60468(19) 0.36176(7)
O4 O 0.25273(9) 0.55288(16) 0.63200(7)
O5 O 0.42398(9) 0.59970(15) 0.70316(7)
O6 O 0.35395(8) 0.31609(14) 0.70626(6)
O7 O 0.40539(9) 0.54530(17) 0.20651(8)
O8 O 0.20621(9) 0.65896(17) 0.21190(7)
N1 N 0.14404(10) 0.29541(19) 0.17753(8)
N2 N 0.23131(10) 0.44077(18) 0.08420(8)
C1 C 0.10156(16) 0.2283(3) 0.22496(12)
H2 H 0.1343 0.2340 0.2766
C2 C 0.00852(18) 0.1485(3) 0.20014(16)
H3 H -0.0197 0.1037 0.2350
C3 C -0.03989(15) 0.1373(3) 0.12490(15)
H4 H -0.1012 0.0839 0.1081
C4 C 0.00292(13) 0.2067(2) 0.07250(12)
C5 C -0.04279(15) 0.2051(3) -0.00782(14)
H5 H -0.1039 0.1522 -0.0279
C6 C 0.00118(16) 0.2789(3) -0.05495(12)
H6 H -0.0305 0.2767 -0.1068
C7 C 0.09605(14) 0.3610(3) -0.02670(10)
C8 C 0.14475(17) 0.4450(3) -0.07165(11)
H7 H 0.1164 0.4472 -0.1239
C9 C 0.23399(17) 0.5241(3) -0.03934(11)
H8 H 0.2662 0.5803 -0.0692
C10 C 0.27574(14) 0.5186(3) 0.03948(10)
H9 H 0.3366 0.5710 0.0613
C11 C 0.14317(12) 0.3631(2) 0.05217(9)
C12 C 0.09586(12) 0.2856(2) 0.10199(10)
C13 C 0.30804(12) 0.4716(2) 0.36968(9)
C14 C 0.36121(12) 0.4035(2) 0.44734(9)
C15 C 0.43649(12) 0.2771(2) 0.45920(9)
C16 C 0.48762(13) 0.2228(2) 0.53295(10)
H10 H 0.5396 0.1445 0.5410
C17 C 0.46133(12) 0.2848(2) 0.59357(9)
H11 H 0.4948 0.2467 0.6422
C18 C 0.38424(12) 0.4048(2) 0.58169(9)
C19 C 0.33583(12) 0.4655(2) 0.50953(9)
H12 H 0.2860 0.5481 0.5024
H13 H 0.4539(11) 0.498(2) 0.2353(11)
H14 H 0.2179(15) 0.666(3) 0.2582(5)
H15 H 0.2220(17) 0.748(2) 0.1940(10)
H16 H 0.4091(15) 0.6520(12) 0.2060(12)
Ni1C Ni 0.277612(14) 0.07687(3) 0.701304(11)
O6C O 0.35395(8) 0.18391(14) 0.20626(6)
loop_
_geom_bond_atom_site_label_1
_geom_bond_atom_site_label_2
_geom_bond_site_symmetry_1
_geom_bond_site_symmetry_2
Ni1 O2 1_555 1_555
S1 O4 1_555 1_555
O1 H1 1_555 1_555
O2 C13 1_555 1_555
O3 C13 1_555 1_555
O5 S1 1_555 1_555
O6 S1 1_555 1_555
O7 Ni1 1_555 1_555
O8 Ni1 1_555 1_555
N1 Ni1 1_555 1_555
N2 Ni1 1_555 1_555
C1 N1 1_555 1_555
H2 C1 1_555 1_555
C2 C1 1_555 1_555
H3 C2 1_555 1_555
C3 C2 1_555 1_555
H4 C3 1_555 1_555
C4 C3 1_555 1_555
C5 C4 1_555 1_555
H5 C5 1_555 1_555
C6 C5 1_555 1_555
H6 C6 1_555 1_555
C7 C6 1_555 1_555
C8 C7 1_555 1_555
H7 C8 1_555 1_555
C9 C8 1_555 1_555
H8 C9 1_555 1_555
C10 N2 1_555 1_555
H9 C10 1_555 1_555
C11 N2 1_555 1_555
C12 N1 1_555 1_555
C13 C14 1_555 1_555
C14 C15 1_555 1_555
C15 O1 1_555 1_555
C16 C15 1_555 1_555
H10 C16 1_555 1_555
C17 C16 1_555 1_555
H11 C17 1_555 1_555
C18 S1 1_555 1_555
C19 C14 1_555 1_555
H12 C19 1_555 1_555
H13 O7 1_555 1_555
H14 O8 1_555 1_555
H15 O8 1_555 1_555
H16 O7 1_555 1_555
Ni1C O6 1_555 1_555
O6C Ni1 1_555 1_555
C4 C12 1_555 1_555
C7 C11 1_555 1_555
C9 C10 1_555 1_555
C11 C12 1_555 1_555
C17 C18 1_555 1_555
C18 C19 1_555 1_555

#END
