
#######################################################################
#
#                 Cambridge Crystallographic Data Centre
#                                CCDC 
#
#######################################################################
#
# If this CIF has been generated from an entry in the Cambridge 
# Structural Database, then it will include bibliographic, chemical, 
# crystal, experimental, refinement or atomic coordinate data resulting 
# from the CCDC's data processing and validation procedures.
#
#######################################################################

data_QESGEA
_symmetry_cell_setting           triclinic
_symmetry_space_group_name_H-M   'P -1'
_symmetry_Int_Tables_number      2
_space_group_name_Hall           '-P 1'
loop_
_symmetry_equiv_pos_site_id
_symmetry_equiv_pos_as_xyz
1 x,y,z
2 -x,-y,-z
_cell_length_a                   11.032(3)
_cell_length_b                   14.753(3)
_cell_length_c                   9.447(1)
_cell_angle_alpha                96.67(1)
_cell_angle_beta                 90.11(1)
_cell_angle_gamma                71.71(2)
_cell_volume                     1449.02
loop_
_atom_site_label
_atom_site_type_symbol
_atom_site_fract_x
_atom_site_fract_y
_atom_site_fract_z
Ca1 Ca -0.1377(1) -0.54061(7) 0.6989(1)
S1 S -0.8160(1) -0.53332(9) 0.6712(1)
O1 O -0.3603(4) -0.4991(3) 0.7232(5)
O3 O -0.1112(4) -0.6954(3) 0.5776(4)
O4 O -0.1202(5) -0.6470(3) 0.8845(5)
O5 O -0.1300(4) -0.4470(3) 0.9277(4)
O6 O -0.1256(4) -0.3877(3) 0.6514(4)
O7 O -0.9085(4) -0.5861(3) 0.6578(4)
O8 O -0.8157(4) -0.4845(3) 0.8141(4)
O9 O -0.8265(4) -0.4702(2) 0.5622(4)
N1 N -0.5651(5) -0.4987(3) 0.7108(6)
C1 C -0.6615(6) -0.6219(4) 0.6421(5)
C2 C -0.5494(6) -0.5949(4) 0.6576(6)
C3 C -0.4347(6) -0.6648(5) 0.6257(8)
C4 C -0.4272(6) -0.7598(4) 0.5812(7)
C5 C -0.5351(7) -0.7848(4) 0.5698(7)
C6 C -0.6530(6) -0.7148(4) 0.5960(6)
C7 C -0.4751(6) -0.4568(4) 0.7495(6)
C8 C -0.5218(6) -0.3564(4) 0.8322(6)
C17 C -0.6570(7) -0.3030(5) 0.800(1)
C18 C -0.511(1) -0.3707(5) 0.9890(8)
C19 C -0.4366(8) -0.2991(5) 0.7955(9)
H1 H -0.6501 -0.4576 0.7202
H3 H -0.3575 -0.6486 0.6317
H4 H -0.3459 -0.8061 0.5580
H5 H -0.5305 -0.8496 0.5439
H6 H -0.7288 -0.7329 0.5812
H11 H -0.6833 -0.2412 0.8561
H12 H -0.6634 -0.2950 0.7025
H13 H -0.7120 -0.3379 0.8247
H14 H -0.5640 -0.4079 1.0112
H15 H -0.4257 -0.4028 1.0086
H16 H -0.5401 -0.3096 1.0457
H17 H -0.3509 -0.3321 0.8142
H18 H -0.4431 -0.2910 0.6963
H19 H -0.4635 -0.2376 0.8502
O7_2 O 0.0915(4) -0.5861(3) 0.6578(4)
O9A O -0.1735(4) -0.5298(2) 0.4378(4)
Ca1_2 Ca -1.1377(1) -0.54061(7) 0.6989(1)
Ca1A Ca -0.8623(1) -0.45939(7) 0.3011(1)
S2 S 0.0276(2) 0.19630(9) 0.1651(1)
O2 O 0.0744(5) -0.1469(3) 0.2841(5)
O10 O -0.0223(6) 0.2176(3) 0.3095(4)
O11 O -0.0567(5) 0.1709(3) 0.0630(5)
O12 O 0.0756(5) 0.2705(3) 0.1227(5)
N2 N 0.0245(5) -0.0053(3) 0.1961(5)
C9 C 0.1645(6) 0.0915(4) 0.1633(5)
C10 C 0.1503(6) 0.0010(4) 0.1741(5)
C11 C 0.2606(7) -0.0792(4) 0.1672(7)
C12 C 0.3790(7) -0.0680(6) 0.1540(8)
C13 C 0.3916(8) 0.0202(6) 0.1491(8)
C14 C 0.2855(7) 0.0999(5) 0.1527(7)
C15 C -0.0051(6) -0.0727(4) 0.2551(5)
C16 C -0.1510(6) -0.0515(4) 0.2928(6)
C20 C -0.2372(7) 0.0367(5) 0.2374(8)
C21 C -0.1892(8) -0.1390(5) 0.2352(8)
C22 C -0.1607(8) -0.0390(6) 0.4571(7)
H2 H -0.0451 0.0453 0.1667
H7 H 0.2536 -0.1410 0.1715
H8 H 0.4544 -0.1229 0.1489
H9 H 0.4738 0.0273 0.1472
H10 H 0.2948 0.1610 0.1443
H20 H -0.2132 0.0906 0.2716
H21 H -0.2299 0.0271 0.1349
H22 H -0.3229 0.0456 0.2657
H23 H -0.2745 -0.1295 0.2642
H24 H -0.1802 -0.1481 0.1344
H25 H -0.1343 -0.1948 0.2719
H26 H -0.1086 -0.0959 0.4915
H27 H -0.1328 0.0136 0.4928
H28 H -0.2470 -0.0267 0.4866
loop_
_geom_bond_atom_site_label_1
_geom_bond_atom_site_label_2
_geom_bond_site_symmetry_1
_geom_bond_site_symmetry_2
Ca1 O1 1_555 1_555
S1 O7 1_555 1_555
S2 O10 1_555 1_555
O1 C7 1_555 1_555
O2 C15 1_555 1_555
O3 Ca1 1_555 1_555
O4 Ca1 1_555 1_555
O5 Ca1 1_555 1_555
O6 Ca1 1_555 1_555
O7 Ca1_2 1_555 1_555
O8 S1 1_555 1_555
O9 S1 1_555 1_555
O11 S2 1_555 1_555
O12 S2 1_555 1_555
N1 C2 1_555 1_555
N2 C10 1_555 1_555
C1 S1 1_555 1_555
C2 C1 1_555 1_555
C3 C2 1_555 1_555
C4 C3 1_555 1_555
C5 C4 1_555 1_555
C6 C1 1_555 1_555
C7 N1 1_555 1_555
C8 C7 1_555 1_555
C9 S2 1_555 1_555
C10 C9 1_555 1_555
C11 C10 1_555 1_555
C12 C11 1_555 1_555
C13 C12 1_555 1_555
C14 C9 1_555 1_555
C15 N2 1_555 1_555
C16 C15 1_555 1_555
C17 C8 1_555 1_555
C18 C8 1_555 1_555
C19 C8 1_555 1_555
C20 C16 1_555 1_555
C21 C16 1_555 1_555
C22 C16 1_555 1_555
H1 N1 1_555 1_555
H2 N2 1_555 1_555
H3 C3 1_555 1_555
H4 C4 1_555 1_555
H5 C5 1_555 1_555
H6 C6 1_555 1_555
H7 C11 1_555 1_555
H8 C12 1_555 1_555
H9 C13 1_555 1_555
H10 C14 1_555 1_555
H11 C17 1_555 1_555
H12 C17 1_555 1_555
H13 C17 1_555 1_555
H14 C18 1_555 1_555
H15 C18 1_555 1_555
H16 C18 1_555 1_555
H17 C19 1_555 1_555
H18 C19 1_555 1_555
H19 C19 1_555 1_555
H20 C20 1_555 1_555
H21 C20 1_555 1_555
H22 C20 1_555 1_555
H23 C21 1_555 1_555
H24 C21 1_555 1_555
H25 C21 1_555 1_555
H26 C22 1_555 1_555
H27 C22 1_555 1_555
H28 C22 1_555 1_555
O7_2 Ca1 1_555 1_555
O9A Ca1 1_555 1_555
Ca1A O9 1_555 1_555
C5 C6 1_555 1_555
C13 C14 1_555 1_555

#END
