
#######################################################################
#
#                 Cambridge Crystallographic Data Centre
#                                CCDC 
#
#######################################################################
#
# If this CIF has been generated from an entry in the Cambridge 
# Structural Database, then it will include bibliographic, chemical, 
# crystal, experimental, refinement or atomic coordinate data resulting 
# from the CCDC's data processing and validation procedures.
#
#######################################################################

data_QESLEG
_symmetry_cell_setting           triclinic
_symmetry_space_group_name_H-M   'P -1'
_symmetry_Int_Tables_number      2
_space_group_name_Hall           '-P 1'
loop_
_symmetry_equiv_pos_site_id
_symmetry_equiv_pos_as_xyz
1 x,y,z
2 -x,-y,-z
_cell_length_a                   5.5662(17)
_cell_length_b                   6.454(2)
_cell_length_c                   8.966(3)
_cell_angle_alpha                102.609(4)
_cell_angle_beta                 107.319(3)
_cell_angle_gamma                94.426(4)
_cell_volume                     296.564
loop_
_atom_site_label
_atom_site_type_symbol
_atom_site_fract_x
_atom_site_fract_y
_atom_site_fract_z
In1 In 0.2188(1) 0.6955(1) 0.8486(1)
P1 P 0.1739(2) 0.2071(2) 0.9254(1)
O1 O 0.2996(6) 0.6439(5) 0.6099(4)
O2 O 0.2618(6) 0.3761(5) 0.8486(4)
O3 O 0.1495(6) 0.4614(5) 0.3520(4)
O4 O -0.0718(6) 0.2511(5) 0.9605(4)
O5 O 0.1166(6) -0.0112(5) 0.7987(4)
O6 O 0.3870(6) 0.2002(5) 1.0789(4)
C1 C 0.1293(8) 0.5302(7) 0.4892(5)
In1A In -0.2188(1) 0.3045(1) 0.1514(1)
In1A_2 In -0.2188(1) 0.3045(1) 1.1514(1)
In1_2 In 0.2188(1) -0.3045(1) 0.8486(1)
In1A_3 In 0.7812(1) 0.3045(1) 1.1514(1)
In1A_4 In -0.2188(1) 1.3045(1) 1.1514(1)
In1_3 In -0.7812(1) 0.6955(1) 0.8486(1)
P1A P -0.1739(2) 0.7929(2) 1.0746(1)
O1A O -0.2996(6) 0.3561(5) 0.3901(4)
O2A O -0.2618(6) 0.6239(5) 1.1514(4)
O2A_2 O -0.2618(6) 0.6239(5) 0.1514(4)
O3A O -0.1495(6) 0.5386(5) 0.6480(4)
O4A O 0.0718(6) 0.7489(5) 1.0395(4)
O4_2 O -0.0718(6) 0.2511(5) -0.0395(4)
O5A O -0.1166(6) 1.0112(5) 1.2013(4)
O5_2 O 0.1166(6) 0.9888(5) 0.7987(4)
O5A_2 O -0.1166(6) 0.0112(5) 0.2013(4)
O6A O -0.3870(6) 0.7998(5) 0.9211(4)
O6A_2 O 0.6130(6) 0.7998(5) 0.9211(4)
O6_2 O -0.6130(6) 0.2002(5) 0.0789(4)
C1A C -0.1293(8) 0.4698(7) 0.5108(5)
O7 O 0.4525(8) 0.1918(7) 0.6114(5)
Na1 Na 0.3770(4) 0.0936(3) 0.3179(2)
loop_
_geom_bond_atom_site_label_1
_geom_bond_atom_site_label_2
_geom_bond_site_symmetry_1
_geom_bond_site_symmetry_2
In1 O1 1_555 1_555
P1 O2 1_555 1_555
O1 C1 1_555 1_555
O2 In1 1_555 1_555
O3 C1 1_555 1_555
O4 P1 1_555 1_555
O5 P1 1_555 1_555
O6 P1 1_555 1_555
C1 C1A 1_555 1_555
In1A O3 1_555 1_555
In1A_2 O4 1_555 1_555
In1_2 O5 1_555 1_555
In1A_3 O6 1_555 1_555
In1A_4 O5A 1_555 1_555
In1_3 O6A 1_555 1_555
P1A O2A 1_555 1_555
O1A In1A 1_555 1_555
O2A In1A_2 1_555 1_555
O2A_2 In1A 1_555 1_555
O3A In1 1_555 1_555
O4A In1 1_555 1_555
O4_2 In1A 1_555 1_555
O5A P1A 1_555 1_555
O5_2 In1 1_555 1_555
O5A_2 In1A 1_555 1_555
O6A P1A 1_555 1_555
O6A_2 In1 1_555 1_555
O6_2 In1A 1_555 1_555
C1A O1A 1_555 1_555
P1A O4A 1_555 1_555
O3A C1A 1_555 1_555

#END
