
#######################################################################
#
#                 Cambridge Crystallographic Data Centre
#                                CCDC 
#
#######################################################################
#
# If this CIF has been generated from an entry in the Cambridge 
# Structural Database, then it will include bibliographic, chemical, 
# crystal, experimental, refinement or atomic coordinate data resulting 
# from the CCDC's data processing and validation procedures.
#
#######################################################################

data_QESYUJ
_symmetry_cell_setting           monoclinic
_symmetry_space_group_name_H-M   'C 2'
_symmetry_Int_Tables_number      5
_space_group_name_Hall           'C 2y'
loop_
_symmetry_equiv_pos_site_id
_symmetry_equiv_pos_as_xyz
1 x,y,z
2 -x,y,-z
3 1/2+x,1/2+y,z
4 1/2-x,1/2+y,-z
_cell_length_a                   13.2917(12)
_cell_length_b                   17.1187(18)
_cell_length_c                   11.2791(12)
_cell_angle_alpha                90
_cell_angle_beta                 126.00(1)
_cell_angle_gamma                90
_cell_volume                     2076.27
loop_
_atom_site_label
_atom_site_type_symbol
_atom_site_fract_x
_atom_site_fract_y
_atom_site_fract_z
Cu1 Cu 0.90490(6) 0.48164(3) 0.04852(7)
Cu2 Cu 0.64506(6) 0.46956(3) 0.03197(8)
Br1 Br 1.0000 0.37509(4) 0.0000
Br2 Br 0.68556(4) 0.50852(3) -0.14604(4)
Br3 Br 0.5000 0.57320(4) 0.0000
N1 N 0.9245(4) 0.4579(3) 0.2399(4)
N2 N 0.8179(3) 0.4579(3) 0.2359(4)
N3 N 0.9684(4) 0.5891(2) 0.0310(4)
N4 N 0.9578(4) 0.8675(3) 0.0180(4)
C1 C 1.0376(4) 0.4507(3) 0.3662(5)
C2 C 1.0523(5) 0.4477(3) 0.5015(6)
C3 C 0.8292(4) 0.4504(3) 0.3602(5)
C4 C 0.7140(5) 0.4449(4) 0.3559(5)
H1 H 0.6932 0.3909 0.3526
H2 H 0.6456 0.4699 0.2689
C5 C 0.7353(4) 0.4846(3) 0.4915(7)
C6 C 1.1512(5) 0.4500(4) 0.3683(5)
H3 H 1.1355 0.4788 0.2859
H4 H 1.1683 0.3968 0.3586
C7 C 0.7541(7) 0.5720(4) 0.4890(9)
H5 H 0.7434 0.5971 0.5570
H6 H 0.6944 0.5931 0.3931
H7 H 0.8362 0.5831 0.5172
C8 C 0.6206(5) 0.4687(6) 0.4903(7)
H8 H 0.6350 0.4884 0.5787
H9 H 0.6045 0.4136 0.4823
H10 H 0.5492 0.4938 0.4069
C9 C 0.9341(5) 0.6552(3) 0.0575(5)
C10 C 0.9650(4) 0.7279(3) 0.0269(5)
C11 C 0.9248(4) 0.8015(3) 0.0446(5)
C12 C 0.8403(5) 0.8008(3) 0.0920(6)
H11 H 0.7554 0.7971 0.0077
H12 H 0.8500 0.8487 0.1420
C13 C 0.8726(5) 0.7324(3) 0.1969(5)
C14 C 0.8621(5) 0.6546(3) 0.1215(6)
H13 H 0.8918 0.6129 0.1914
H14 H 0.7761 0.6448 0.0448
C15 C 1.0034(5) 0.7413(4) 0.3385(6)
H15 H 0.9991 0.7595 0.4159
H16 H 1.0487 0.7779 0.3218
H17 H 1.0461 0.6921 0.3644
C16 C 0.7766(6) 0.7313(4) 0.2326(7)
H18 H 0.6937 0.7283 0.1439
H19 H 0.7859 0.7779 0.2855
H20 H 0.7924 0.6873 0.2941
Cu1A Cu 1.09510(6) 0.48164(3) -0.04852(7)
Cu1A_2 Cu 1.09510(6) 0.48164(3) 0.95148(7)
Cu2A Cu 1.35494(6) 0.46956(3) 0.96803(8)
Cu2A_2 Cu 0.35494(6) 0.46956(3) -0.03197(8)
Cu2C Cu 0.85494(6) 0.96956(3) -0.03197(8)
Cu2B Cu 1.14506(6) 0.96956(3) 0.03197(8)
Br2A Br 1.31444(4) 0.50852(3) 0.14604(4)
Br2A_2 Br 1.31444(4) 0.50852(3) 1.14604(4)
Br3_2 Br 1.5000 0.57320(4) 1.0000
N1A N 1.0755(4) 0.4579(3) 0.7601(4)
N1A_2 N 1.0755(4) 0.4579(3) -0.2399(4)
N2A N 1.1821(3) 0.4579(3) 0.7641(4)
N3A N 1.0316(4) 0.5891(2) -0.0310(4)
N4A N 1.0422(4) 0.8675(3) -0.0180(4)
N4C N 0.5422(4) 0.3675(3) -0.0180(4)
N4B N 1.4578(4) 0.3675(3) 1.0180(4)
C1A C 0.9624(4) 0.4507(3) 0.6338(5)
C2A C 0.9477(5) 0.4477(3) 0.4985(6)
C3A C 1.1708(4) 0.4504(3) 0.6398(5)
C4A C 1.2860(5) 0.4449(4) 0.6441(5)
H1A H 1.3068 0.3909 0.6474
H2A H 1.3544 0.4699 0.7311
C5A C 1.2647(4) 0.4846(3) 0.5085(7)
C6A C 0.8488(5) 0.4500(4) 0.6317(5)
H3A H 0.8645 0.4788 0.7141
H4A H 0.8317 0.3968 0.6414
C7A C 1.2459(7) 0.5720(4) 0.5110(9)
H5A H 1.2566 0.5971 0.4430
H6A H 1.3056 0.5931 0.6069
H7A H 1.1638 0.5831 0.4828
C8A C 1.3794(5) 0.4687(6) 0.5097(7)
H8A H 1.3650 0.4884 0.4213
H9A H 1.3955 0.4136 0.5177
H10A H 1.4508 0.4938 0.5931
C9A C 1.0659(5) 0.6552(3) -0.0575(5)
C10A C 1.0350(4) 0.7279(3) -0.0269(5)
C11A C 1.0752(4) 0.8015(3) -0.0446(5)
C12A C 1.1597(5) 0.8008(3) -0.0920(6)
H11A H 1.2446 0.7971 -0.0077
H12A H 1.1500 0.8487 -0.1420
C13A C 1.1274(5) 0.7324(3) -0.1969(5)
C14A C 1.1379(5) 0.6546(3) -0.1215(6)
H13A H 1.1082 0.6129 -0.1914
H14A H 1.2239 0.6448 -0.0448
C15A C 0.9966(5) 0.7413(4) -0.3385(6)
H15A H 1.0009 0.7595 -0.4159
H16A H 0.9513 0.7779 -0.3218
H17A H 0.9539 0.6921 -0.3644
C16A C 1.2234(6) 0.7313(4) -0.2326(7)
H18A H 1.3063 0.7283 -0.1439
H19A H 1.2141 0.7779 -0.2855
H20A H 1.2076 0.6873 -0.2941
N5 N 0.6829(10) 0.7594(7) -0.3138(10)
C17 C 0.6120(11) 0.7422(5) -0.2974(8)
C18 C 0.5169(9) 0.7234(8) -0.2734(12)
H21 H 0.4361 0.7391 -0.3567
H22 H 0.5372 0.7498 -0.1867
H23 H 0.5184 0.6683 -0.2570
loop_
_geom_bond_atom_site_label_1
_geom_bond_atom_site_label_2
_geom_bond_site_symmetry_1
_geom_bond_site_symmetry_2
Cu1 Br1 1_555 1_555
Cu2 Br2 1_555 1_555
Br1 Cu1A 1_555 1_555
Br2 Cu1 1_555 1_555
Br3 Cu2 1_555 1_555
N1 Cu1 1_555 1_555
N2 Cu2 1_555 1_555
N3 Cu1 1_555 1_555
N4 C11 1_555 1_555
N5 C17 1_555 1_555
C1 N1 1_555 1_555
C2 C1 1_555 1_555
C3 N2 1_555 1_555
C4 C3 1_555 1_555
H1 C4 1_555 1_555
H2 C4 1_555 1_555
C5 C4 1_555 1_555
C6 C1 1_555 1_555
H3 C6 1_555 1_555
H4 C6 1_555 1_555
C7 C5 1_555 1_555
H5 C7 1_555 1_555
H6 C7 1_555 1_555
H7 C7 1_555 1_555
C8 C5 1_555 1_555
H8 C8 1_555 1_555
H9 C8 1_555 1_555
H10 C8 1_555 1_555
C9 N3 1_555 1_555
C10 C9 1_555 1_555
C11 C10 1_555 1_555
C12 C11 1_555 1_555
H11 C12 1_555 1_555
H12 C12 1_555 1_555
C13 C12 1_555 1_555
C14 C9 1_555 1_555
H13 C14 1_555 1_555
H14 C14 1_555 1_555
C15 C13 1_555 1_555
H15 C15 1_555 1_555
H16 C15 1_555 1_555
H17 C15 1_555 1_555
C16 C13 1_555 1_555
H18 C16 1_555 1_555
H19 C16 1_555 1_555
H20 C16 1_555 1_555
C17 C18 1_555 1_555
C18 H21 1_555 1_555
H22 C18 1_555 1_555
H23 C18 1_555 1_555
Cu1A Br2A 1_555 1_555
Cu1A_2 Br2A_2 1_555 1_555
Cu2A Br2A_2 1_555 1_555
Cu2A_2 Br3 1_555 1_555
Cu2C N4 1_555 1_555
Cu2B N4A 1_555 1_555
Br3_2 Cu2A 1_555 1_555
N1A Cu1A_2 1_555 1_555
N1A_2 Cu1A 1_555 1_555
N2A Cu2A 1_555 1_555
N3A N3 1_555 1_555
N4A N4 1_555 1_555
N4C Cu2 1_555 1_555
N4B Cu2A 1_555 1_555
C1A N1A 1_555 1_555
C2A C2 1_555 1_555
C3A C2 1_555 1_555
C4A C3A 1_555 1_555
H1A C4A 1_555 1_555
H2A C4A 1_555 1_555
C5A C6 1_555 1_555
C6A C5 1_555 1_555
H3A C6A 1_555 1_555
H4A C6A 1_555 1_555
C7A C5A 1_555 1_555
H5A C7A 1_555 1_555
H6A C7A 1_555 1_555
H7A C7A 1_555 1_555
C8A C5A 1_555 1_555
H8A C8A 1_555 1_555
H9A C8A 1_555 1_555
H10A C8A 1_555 1_555
C9A N3A 1_555 1_555
C10A C10 1_555 1_555
C11A N4A 1_555 1_555
C12A C11A 1_555 1_555
H11A C12A 1_555 1_555
H12A C12A 1_555 1_555
C13A C12A 1_555 1_555
C14A C9A 1_555 1_555
H13A C14A 1_555 1_555
H14A C14A 1_555 1_555
C15A C13A 1_555 1_555
H15A C15A 1_555 1_555
H16A C15A 1_555 1_555
H17A C15A 1_555 1_555
C16A C13A 1_555 1_555
H18A C16A 1_555 1_555
H19A C16A 1_555 1_555
H20A C16A 1_555 1_555
N1 N2 1_555 1_555
C3 C2A 1_555 1_555
C13 C14 1_555 1_555
Cu1A N3A 1_555 1_555
N1A N2A 1_555 1_555
N2A C3A 1_555 1_555
C1A C2A 1_555 1_555
C1A C6A 1_555 1_555
C4A C5A 1_555 1_555
C9A C10A 1_555 1_555
C10A C11A 1_555 1_555
C13A C14A 1_555 1_555

#END
