
#######################################################################
#
#                 Cambridge Crystallographic Data Centre
#                                CCDC 
#
#######################################################################
#
# If this CIF has been generated from an entry in the Cambridge 
# Structural Database, then it will include bibliographic, chemical, 
# crystal, experimental, refinement or atomic coordinate data resulting 
# from the CCDC's data processing and validation procedures.
#
#######################################################################

data_QESYET
_symmetry_cell_setting           triclinic
_symmetry_space_group_name_H-M   'P -1'
_symmetry_Int_Tables_number      2
_space_group_name_Hall           '-P 1'
loop_
_symmetry_equiv_pos_site_id
_symmetry_equiv_pos_as_xyz
1 x,y,z
2 -x,-y,-z
_cell_length_a                   11.965(2)
_cell_length_b                   12.546(2)
_cell_length_c                   16.425(2)
_cell_angle_alpha                68.069(2)
_cell_angle_beta                 89.949(2)
_cell_angle_gamma                77.067(2)
_cell_volume                     2219.81
loop_
_atom_site_label
_atom_site_type_symbol
_atom_site_fract_x
_atom_site_fract_y
_atom_site_fract_z
Cu1 Cu 0.24969(8) 0.50418(9) 0.29842(6)
I1 I 0.25274(5) 0.49791(7) 0.15196(4)
N1 N 0.3391(5) 0.6276(6) 0.3871(4)
N2 N 0.3681(5) 0.5210(6) 0.3766(4)
N3 N 0.1586(5) 0.3756(6) 0.4532(4)
N4 N 0.1297(5) 0.4853(6) 0.3856(4)
C1 C 0.3912(6) 0.6432(7) 0.4495(5)
C2 C 0.4840(6) 0.5517(7) 0.5073(5)
C3 C 0.4555(6) 0.4359(7) 0.4250(4)
C4 C 0.4894(7) 0.3236(8) 0.4093(5)
H1 H 0.4217(7) 0.3097(8) 0.3878(5)
H2 H 0.5431(7) 0.3311(8) 0.3652(5)
C5 C 0.5432(7) 0.2154(8) 0.4953(5)
C6 C 0.3592(7) 0.7572(7) 0.4635(6)
H3 H 0.2974(7) 0.7542(7) 0.5010(6)
H4 H 0.3314(7) 0.8210(7) 0.4079(6)
C7 C 0.5914(9) 0.1110(10) 0.4689(7)
H5 H 0.6264(9) 0.0428(10) 0.5204(7)
H6 H 0.6481(9) 0.1303(10) 0.4280(7)
H7 H 0.5302(9) 0.0942(10) 0.4417(7)
C8 C 0.4503(8) 0.1878(9) 0.5589(6)
H8 H 0.4833(8) 0.1224(9) 0.6126(6)
H9 H 0.3917(8) 0.1678(9) 0.5315(6)
H10 H 0.4170(8) 0.2560(9) 0.5719(6)
C9 C 0.1036(6) 0.3564(7) 0.5243(5)
C10 C 0.0161(6) 0.4468(7) 0.5335(5)
C11 C 0.0462(6) 0.5722(8) 0.3892(5)
C12 C 0.0133(7) 0.6905(8) 0.3145(5)
H11 H 0.0798(7) 0.7057(8) 0.2837(5)
H12 H -0.0432(7) 0.6883(8) 0.2741(5)
C13 C -0.0358(7) 0.7921(8) 0.3452(5)
C14 C 0.1372(7) 0.2375(8) 0.5991(5)
H13 H 0.1991(7) 0.2374(8) 0.6363(5)
H14 H 0.1648(7) 0.1775(8) 0.5760(5)
C15 C -0.0813(8) 0.9045(8) 0.2647(6)
H15 H -0.0196(8) 0.9246(8) 0.2293(6)
H16 H -0.1151(8) 0.9680(8) 0.2829(6)
H17 H -0.1387(8) 0.8917(8) 0.2309(6)
C16 C 0.0565(7) 0.8089(8) 0.3973(6)
H18 H 0.1183(7) 0.8274(8) 0.3614(6)
H19 H 0.0853(7) 0.7377(8) 0.4483(6)
H20 H 0.0249(7) 0.8729(8) 0.4156(6)
Cu1A Cu 0.75031(8) 0.49582(9) 0.70158(6)
Cu1A_2 Cu -0.24969(8) 0.49582(9) 0.70158(6)
I1A I 0.74726(5) 0.50209(7) 0.84804(4)
N1A N 0.6609(5) 0.3724(6) 0.6129(4)
N2A N 0.6319(5) 0.4790(6) 0.6234(4)
N3A N -0.1586(5) 0.6244(6) 0.5468(4)
N4A N -0.1297(5) 0.5147(6) 0.6144(4)
N4A_2 N 0.8703(5) 0.5147(6) 0.6144(4)
C1A C 0.6088(6) 0.3568(7) 0.5505(5)
C2A C 0.5160(6) 0.4483(7) 0.4927(5)
C3A C 0.5445(6) 0.5641(7) 0.5750(4)
C4A C 0.5106(7) 0.6764(8) 0.5907(5)
H1A H 0.5783(7) 0.6903(8) 0.6122(5)
H2A H 0.4569(7) 0.6689(8) 0.6348(5)
C5A C 0.4568(7) 0.7846(8) 0.5047(5)
C6A C 0.6408(7) 0.2428(7) 0.5365(6)
H3A H 0.7026(7) 0.2458(7) 0.4990(6)
H4A H 0.6686(7) 0.1790(7) 0.5921(6)
C7A C 0.4086(9) 0.8890(10) 0.5311(7)
H5A H 0.3736(9) 0.9572(10) 0.4796(7)
H6A H 0.3519(9) 0.8697(10) 0.5720(7)
H7A H 0.4698(9) 0.9058(10) 0.5583(7)
C8A C 0.5497(8) 0.8122(9) 0.4411(6)
H8A H 0.5167(8) 0.8776(9) 0.3874(6)
H9A H 0.6083(8) 0.8322(9) 0.4685(6)
H10A H 0.5830(8) 0.7440(9) 0.4281(6)
C9A C -0.1036(6) 0.6436(7) 0.4757(5)
C10A C -0.0161(6) 0.5532(7) 0.4665(5)
C11A C -0.0462(6) 0.4278(8) 0.6108(5)
C12A C -0.0133(7) 0.3095(8) 0.6855(5)
H11A H -0.0798(7) 0.2943(8) 0.7163(5)
H12A H 0.0432(7) 0.3117(8) 0.7259(5)
C13A C 0.0358(7) 0.2079(8) 0.6548(5)
C14A C -0.1372(7) 0.7625(8) 0.4009(5)
H13A H -0.1991(7) 0.7626(8) 0.3637(5)
H14A H -0.1648(7) 0.8225(8) 0.4240(5)
C15A C 0.0813(8) 0.0955(8) 0.7353(6)
H15A H 0.0196(8) 0.0754(8) 0.7707(6)
H16A H 0.1151(8) 0.0320(8) 0.7171(6)
H17A H 0.1387(8) 0.1083(8) 0.7691(6)
C16A C -0.0565(7) 0.1911(8) 0.6027(6)
H18A H -0.1183(7) 0.1726(8) 0.6386(6)
H19A H -0.0853(7) 0.2623(8) 0.5517(6)
H20A H -0.0249(7) 0.1271(8) 0.5844(6)
Cu2 Cu 0.24948(8) 0.50643(9) -0.20221(6)
I2 I 0.24897(5) 0.49562(6) -0.34771(3)
N5 N 0.1185(5) 0.5233(6) -0.1244(4)
N6 N 0.0982(5) 0.6308(6) -0.1143(4)
N7 N 0.3975(5) 0.3774(6) -0.0469(4)
N8 N 0.3763(7) 0.4872(9) -0.1144(4)
C17 C 0.0765(6) 0.4381(7) -0.0762(5)
C18 C 0.0091(6) 0.4477(8) -0.0066(5)
C19 C 0.0367(6) 0.6439(7) -0.0516(5)
C20 C 0.0176(8) 0.7577(8) -0.0367(6)
H21 H 0.0816(8) 0.7551(8) -0.0002(6)
H22 H 0.0134(8) 0.8218(8) -0.0926(6)
C21 C -0.0956(7) 0.7817(8) 0.0061(5)
C22 C 0.0952(7) 0.3242(8) -0.0905(5)
H23 H 0.1665(7) 0.3107(8) -0.1161(5)
H24 H 0.0342(7) 0.3314(8) -0.1315(5)
C23 C -0.0986(9) 0.8918(9) 0.0309(8)
H25 H -0.1676(9) 0.9082(9) 0.0585(8)
H26 H -0.0975(9) 0.9592(9) -0.0218(8)
H27 H -0.0326(9) 0.8754(9) 0.0707(8)
C24 C -0.2013(8) 0.8094(9) -0.0575(7)
H28 H -0.2706(8) 0.8229(9) -0.0295(7)
H29 H -0.1977(8) 0.7433(9) -0.0743(7)
H30 H -0.2012(8) 0.8787(9) -0.1089(7)
C25 C 0.4609(8) 0.3575(9) 0.0242(5)
C26 C 0.5081(7) 0.4444(11) 0.0344(5)
C27 C 0.4208(7) 0.5701(10) -0.1095(5)
C28 C 0.4021(7) 0.6900(8) -0.1854(5)
H31 H 0.4594(7) 0.6858(8) -0.2257(5)
H32 H 0.3281(7) 0.7067(8) -0.2162(5)
C29 C 0.4056(7) 0.7919(7) -0.1566(5)
C30 C 0.4817(7) 0.2399(8) 0.0988(5)
H33 H 0.4840(7) 0.1806(8) 0.0746(5)
H34 H 0.4184(7) 0.2386(8) 0.1348(5)
C31 C 0.4015(8) 0.9013(9) -0.2383(6)
H35 H 0.4044(8) 0.9650(9) -0.2201(6)
H36 H 0.3318(8) 0.9219(9) -0.2756(6)
H37 H 0.4667(8) 0.8874(9) -0.2703(6)
C32 C 0.3022(7) 0.8152(8) -0.1048(6)
H38 H 0.3061(7) 0.8788(8) -0.0866(6)
H39 H 0.3031(7) 0.7451(8) -0.0538(6)
H40 H 0.2324(7) 0.8365(8) -0.1420(6)
Cu2A Cu -0.24948(8) 0.49357(9) 0.20221(6)
Cu2A_2 Cu 0.75052(8) 0.49357(9) 0.20221(6)
I2A I -0.24897(5) 0.50438(6) 0.34771(3)
N5A N -0.1185(5) 0.4767(6) 0.1244(4)
N6A N -0.0982(5) 0.3692(6) 0.1143(4)
N7A N 0.6025(5) 0.6226(6) 0.0469(4)
N8A N 0.6237(7) 0.5128(9) 0.1144(4)
N8A_2 N -0.3763(7) 0.5128(9) 0.1144(4)
C17A C -0.0765(6) 0.5619(7) 0.0762(5)
C18A C -0.0091(6) 0.5523(8) 0.0066(5)
C19A C -0.0367(6) 0.3561(7) 0.0516(5)
C20A C -0.0176(8) 0.2423(8) 0.0367(6)
H21A H -0.0816(8) 0.2449(8) 0.0002(6)
H22A H -0.0134(8) 0.1782(8) 0.0926(6)
C21A C 0.0956(7) 0.2183(8) -0.0061(5)
C22A C -0.0952(7) 0.6758(8) 0.0905(5)
H23A H -0.1665(7) 0.6893(8) 0.1161(5)
H24A H -0.0342(7) 0.6686(8) 0.1315(5)
C23A C 0.0986(9) 0.1082(9) -0.0309(8)
H25A H 0.1676(9) 0.0918(9) -0.0585(8)
H26A H 0.0975(9) 0.0408(9) 0.0218(8)
H27A H 0.0326(9) 0.1246(9) -0.0707(8)
C24A C 0.2013(8) 0.1906(9) 0.0575(7)
H28A H 0.2706(8) 0.1771(9) 0.0295(7)
H29A H 0.1977(8) 0.2567(9) 0.0743(7)
H30A H 0.2012(8) 0.1213(9) 0.1089(7)
C25A C 0.5391(8) 0.6425(9) -0.0242(5)
C26A C 0.4919(7) 0.5556(11) -0.0344(5)
C27A C 0.5792(7) 0.4299(10) 0.1095(5)
C28A C 0.5979(7) 0.3100(8) 0.1854(5)
H31A H 0.5406(7) 0.3142(8) 0.2257(5)
H32A H 0.6719(7) 0.2933(8) 0.2162(5)
C29A C 0.5944(7) 0.2081(7) 0.1566(5)
C30A C 0.5183(7) 0.7601(8) -0.0988(5)
H33A H 0.5160(7) 0.8194(8) -0.0746(5)
H34A H 0.5816(7) 0.7614(8) -0.1348(5)
C31A C 0.5985(8) 0.0987(9) 0.2383(6)
H35A H 0.5956(8) 0.0350(9) 0.2201(6)
H36A H 0.6682(8) 0.0781(9) 0.2756(6)
H37A H 0.5333(8) 0.1126(9) 0.2703(6)
C32A C 0.6978(7) 0.1848(8) 0.1048(6)
H38A H 0.6939(7) 0.1212(8) 0.0866(6)
H39A H 0.6969(7) 0.2549(8) 0.0538(6)
H40A H 0.7676(7) 0.1635(8) 0.1420(6)
N9 N 0.1316(30) -0.1302(28) 0.6321(20)
C33 C 0.0648(19) -0.1781(18) 0.6477(12)
C34 C -0.0216(18) -0.2392(18) 0.6563(13)
N10 N 0.2037(55) -0.1387(53) 0.1951(39)
C35 C 0.2894(23) -0.1790(22) 0.1680(16)
C36 C 0.4026(28) -0.2447(28) 0.1623(20)
loop_
_geom_bond_atom_site_label_1
_geom_bond_atom_site_label_2
_geom_bond_site_symmetry_1
_geom_bond_site_symmetry_2
Cu1 I1 1_555 1_555
Cu2 I2 1_555 1_555
N1 N2 1_555 1_555
N2 Cu1 1_555 1_555
N3 N4 1_555 1_555
N4 Cu1 1_555 1_555
N5 Cu2 1_555 1_555
N6 N5 1_555 1_555
N7 N8 1_555 1_555
N8 Cu2 1_555 1_555
C1 N1 1_555 1_555
C2 C1 1_555 1_555
C3 N2 1_555 1_555
C4 C3 1_555 1_555
H1 C4 1_555 1_555
H2 C4 1_555 1_555
C5 C4 1_555 1_555
C6 C1 1_555 1_555
H3 C6 1_555 1_555
H4 C6 1_555 1_555
C7 C5 1_555 1_555
H5 C7 1_555 1_555
H6 C7 1_555 1_555
H7 C7 1_555 1_555
C8 C5 1_555 1_555
H8 C8 1_555 1_555
H9 C8 1_555 1_555
H10 C8 1_555 1_555
C9 N3 1_555 1_555
C10 C9 1_555 1_555
C11 N4 1_555 1_555
C12 C11 1_555 1_555
H11 C12 1_555 1_555
H12 C12 1_555 1_555
C13 C12 1_555 1_555
C14 C9 1_555 1_555
H13 C14 1_555 1_555
H14 C14 1_555 1_555
C15 C13 1_555 1_555
H15 C15 1_555 1_555
H16 C15 1_555 1_555
H17 C15 1_555 1_555
C16 C13 1_555 1_555
H18 C16 1_555 1_555
H19 C16 1_555 1_555
H20 C16 1_555 1_555
C17 N5 1_555 1_555
C18 C17 1_555 1_555
C19 N6 1_555 1_555
C20 C19 1_555 1_555
H21 C20 1_555 1_555
H22 C20 1_555 1_555
C21 C20 1_555 1_555
C22 C17 1_555 1_555
H23 C22 1_555 1_555
H24 C22 1_555 1_555
C23 C21 1_555 1_555
H25 C23 1_555 1_555
H26 C23 1_555 1_555
H27 C23 1_555 1_555
C24 C21 1_555 1_555
H28 C24 1_555 1_555
H29 C24 1_555 1_555
H30 C24 1_555 1_555
C25 N7 1_555 1_555
C26 C25 1_555 1_555
C27 N8 1_555 1_555
C28 C27 1_555 1_555
H31 C28 1_555 1_555
H32 C28 1_555 1_555
C29 C28 1_555 1_555
C30 C25 1_555 1_555
H33 C30 1_555 1_555
H34 C30 1_555 1_555
C31 C29 1_555 1_555
H35 C31 1_555 1_555
H36 C31 1_555 1_555
H37 C31 1_555 1_555
C32 C29 1_555 1_555
H38 C32 1_555 1_555
H39 C32 1_555 1_555
H40 C32 1_555 1_555
N9 C33 1_555 1_555
N10 C35 1_555 1_555
C33 C34 1_555 1_555
C35 C36 1_555 1_555
Cu1A I1A 1_555 1_555
Cu1A_2 N4A 1_555 1_555
Cu2A I2A 1_555 1_555
Cu2A_2 N8A 1_555 1_555
N1A N2A 1_555 1_555
N2A Cu1A 1_555 1_555
N3A N4A 1_555 1_555
N4A C11A 1_555 1_555
N4A_2 Cu1A 1_555 1_555
N5A Cu2A 1_555 1_555
N6A N5A 1_555 1_555
N7A N8A 1_555 1_555
N8A C27A 1_555 1_555
N8A_2 Cu2A 1_555 1_555
C1A N1A 1_555 1_555
C2A C2 1_555 1_555
C3A C2 1_555 1_555
C4A C3A 1_555 1_555
H1A C4A 1_555 1_555
H2A C4A 1_555 1_555
C5A C6 1_555 1_555
C6A C5 1_555 1_555
H3A C6A 1_555 1_555
H4A C6A 1_555 1_555
C7A C5A 1_555 1_555
H5A C7A 1_555 1_555
H6A C7A 1_555 1_555
H7A C7A 1_555 1_555
C8A C5A 1_555 1_555
H8A C8A 1_555 1_555
H9A C8A 1_555 1_555
H10A C8A 1_555 1_555
C9A N3A 1_555 1_555
C10A C10 1_555 1_555
C11A C10 1_555 1_555
C12A C11A 1_555 1_555
H11A C12A 1_555 1_555
H12A C12A 1_555 1_555
C13A C14 1_555 1_555
C14A C13 1_555 1_555
H13A C14A 1_555 1_555
H14A C14A 1_555 1_555
C15A C13A 1_555 1_555
H15A C15A 1_555 1_555
H16A C15A 1_555 1_555
H17A C15A 1_555 1_555
C16A C13A 1_555 1_555
H18A C16A 1_555 1_555
H19A C16A 1_555 1_555
H20A C16A 1_555 1_555
C17A N5A 1_555 1_555
C18A C18 1_555 1_555
C19A C18 1_555 1_555
C20A C19A 1_555 1_555
H21A C20A 1_555 1_555
H22A C20A 1_555 1_555
C21A C22 1_555 1_555
C22A C21 1_555 1_555
H23A C22A 1_555 1_555
H24A C22A 1_555 1_555
C23A C21A 1_555 1_555
H25A C23A 1_555 1_555
H26A C23A 1_555 1_555
H27A C23A 1_555 1_555
C24A C21A 1_555 1_555
H28A C24A 1_555 1_555
H29A C24A 1_555 1_555
H30A C24A 1_555 1_555
C25A N7A 1_555 1_555
C26A C26 1_555 1_555
C27A C26 1_555 1_555
C28A C27A 1_555 1_555
H31A C28A 1_555 1_555
H32A C28A 1_555 1_555
C29A C30 1_555 1_555
C30A C29 1_555 1_555
H33A C30A 1_555 1_555
H34A C30A 1_555 1_555
C31A C29A 1_555 1_555
H35A C31A 1_555 1_555
H36A C31A 1_555 1_555
H37A C31A 1_555 1_555
C32A C29A 1_555 1_555
H38A C32A 1_555 1_555
H39A C32A 1_555 1_555
H40A C32A 1_555 1_555
C3 C2A 1_555 1_555
C11 C10A 1_555 1_555
C19 C18A 1_555 1_555
C27 C26A 1_555 1_555
N2A C3A 1_555 1_555
N6A C19A 1_555 1_555
C1A C2A 1_555 1_555
C1A C6A 1_555 1_555
C4A C5A 1_555 1_555
C9A C10A 1_555 1_555
C9A C14A 1_555 1_555
C12A C13A 1_555 1_555
C17A C18A 1_555 1_555
C17A C22A 1_555 1_555
C20A C21A 1_555 1_555
C25A C26A 1_555 1_555
C25A C30A 1_555 1_555
C28A C29A 1_555 1_555

#END
