
#######################################################################
#
#                 Cambridge Crystallographic Data Centre
#                                CCDC 
#
#######################################################################
#
# If this CIF has been generated from an entry in the Cambridge 
# Structural Database, then it will include bibliographic, chemical, 
# crystal, experimental, refinement or atomic coordinate data resulting 
# from the CCDC's data processing and validation procedures.
#
#######################################################################

data_QETCIC
_symmetry_cell_setting           triclinic
_symmetry_space_group_name_H-M   'P -1'
_symmetry_Int_Tables_number      2
_space_group_name_Hall           '-P 1'
loop_
_symmetry_equiv_pos_site_id
_symmetry_equiv_pos_as_xyz
1 x,y,z
2 -x,-y,-z
_cell_length_a                   9.137(3)
_cell_length_b                   10.816(4)
_cell_length_c                   11.176(4)
_cell_angle_alpha                85.675(4)
_cell_angle_beta                 68.052(4)
_cell_angle_gamma                72.061(4)
_cell_volume                     973.639
loop_
_atom_site_label
_atom_site_type_symbol
_atom_site_fract_x
_atom_site_fract_y
_atom_site_fract_z
Cd1 Cd 0.41033(2) 0.569242(17) 0.168873(18)
O1 O 0.2408(3) 0.4252(2) 0.2100(2)
O2 O 0.3385(2) 0.4841(2) 0.0124(2)
O3 O 0.3311(3) 0.7627(2) 0.0674(2)
O4 O 0.1499(3) 0.7440(2) 0.2571(2)
N1 N 0.5099(3) 0.6814(2) 0.2814(2)
N2 N 0.5610(3) 0.4204(2) 0.2734(2)
C1 C 0.6353(3) 0.4677(3) 0.3366(2)
C2 C 0.6090(3) 0.6059(3) 0.3396(2)
C3 C 0.4864(5) 0.8085(3) 0.2833(3)
H1 H 0.4171 0.8611 0.2440
C4 C 0.5602(5) 0.8667(4) 0.3412(4)
H2 H 0.5415 0.9562 0.3398
C5 C 0.6606(5) 0.7908(4) 0.4001(4)
H3 H 0.7113 0.8282 0.4394
C6 C 0.6870(4) 0.6569(3) 0.4011(3)
C7 C 0.7894(4) 0.5692(4) 0.4627(3)
H4 H 0.8407 0.6024 0.5048
C8 C 0.8117(4) 0.4415(4) 0.4603(3)
H5 H 0.8770 0.3878 0.5020
C9 C 0.7385(3) 0.3856(3) 0.3957(3)
C10 C 0.7623(4) 0.2519(3) 0.3888(3)
H6 H 0.8293 0.1947 0.4272
C11 C 0.6868(4) 0.2060(3) 0.3257(3)
H7 H 0.7016 0.1173 0.3206
C12 C 0.5867(4) 0.2935(3) 0.2685(3)
H8 H 0.5360 0.2610 0.2252
C13 C 0.2484(3) 0.4271(3) 0.0960(3)
C14 C 0.1495(4) 0.3603(3) 0.0570(4)
H9 H 0.0665 0.3417 0.1344
H10 H 0.2229 0.2778 0.0126
C15 C 0.0641(4) 0.4382(3) -0.0293(3)
H11 H 0.1474 0.4573 -0.1062
H12 H 0.0134 0.3845 -0.0564
C16 C 0.1903(4) 0.8028(3) 0.1560(3)
C17 C 0.0696(5) 0.9288(4) 0.1382(4)
H13 H -0.0395 0.9367 0.2026
H14 H 0.1029 1.0013 0.1533
C18 C 0.0594(5) 0.9379(4) 0.0096(4)
H15 H 0.0263 0.8652 -0.0053
H16 H 0.1688 0.9298 -0.0546
Cd1A Cd -0.41033(2) 0.430758(17) -0.168873(18)
Cd1A_2 Cd 0.58967(2) 0.430758(17) -0.168873(18)
Cd1_2 Cd -0.58967(2) 0.569242(17) 0.168873(18)
Cd1A_3 Cd -0.41033(2) 1.430758(17) -0.168873(18)
O1A O -0.2408(3) 0.5748(2) -0.2100(2)
O2A O -0.3385(2) 0.5159(2) -0.0124(2)
O2A_2 O 0.6615(2) 0.5159(2) -0.0124(2)
O2_2 O -0.6615(2) 0.4841(2) 0.0124(2)
O3A O -0.3311(3) 1.2373(2) -0.0674(2)
O3A_2 O -0.3311(3) 0.2373(2) -0.0674(2)
O4A O -0.1499(3) 1.2560(2) -0.2571(2)
O4A_2 O -0.1499(3) 0.2560(2) -0.2571(2)
N1A N -0.5099(3) 0.3186(2) -0.2814(2)
N2A N -0.5610(3) 0.5796(2) -0.2734(2)
C1A C -0.6353(3) 0.5323(3) -0.3366(2)
C2A C -0.6090(3) 0.3941(3) -0.3396(2)
C3A C -0.4864(5) 0.1915(3) -0.2833(3)
H1A H -0.4171 0.1389 -0.2440
C4A C -0.5602(5) 0.1333(4) -0.3412(4)
H2A H -0.5415 0.0438 -0.3398
C5A C -0.6606(5) 0.2092(4) -0.4001(4)
H3A H -0.7113 0.1718 -0.4394
C6A C -0.6870(4) 0.3431(3) -0.4011(3)
C7A C -0.7894(4) 0.4308(4) -0.4627(3)
H4A H -0.8407 0.3976 -0.5048
C8A C -0.8117(4) 0.5585(4) -0.4603(3)
H5A H -0.8770 0.6122 -0.5020
C9A C -0.7385(3) 0.6144(3) -0.3957(3)
C10A C -0.7623(4) 0.7481(3) -0.3888(3)
H6A H -0.8293 0.8053 -0.4272
C11A C -0.6868(4) 0.7940(3) -0.3257(3)
H7A H -0.7016 0.8827 -0.3206
C12A C -0.5867(4) 0.7065(3) -0.2685(3)
H8A H -0.5360 0.7390 -0.2252
C13A C -0.2484(3) 0.5729(3) -0.0960(3)
C14A C -0.1495(4) 0.6397(3) -0.0570(4)
H9A H -0.0665 0.6583 -0.1344
H10A H -0.2229 0.7222 -0.0126
C15A C -0.0641(4) 0.5618(3) 0.0293(3)
H11A H -0.1474 0.5427 0.1062
H12A H -0.0134 0.6155 0.0564
C16A C -0.1903(4) 1.1972(3) -0.1560(3)
C17A C -0.0696(5) 1.0712(4) -0.1382(4)
H13A H 0.0395 1.0633 -0.2026
H14A H -0.1029 0.9987 -0.1533
C18A C -0.0594(5) 1.0621(4) -0.0096(4)
H15A H -0.0263 1.1348 0.0053
H16A H -0.1688 1.0702 0.0546
O5 O 0.2426(4) 0.1799(3) 0.3055(3)
O6 O 0.5047(4) 0.0740(3) 0.0902(3)
O7 O 0.0687(3) 0.0842(3) 0.5285(2)
loop_
_geom_bond_atom_site_label_1
_geom_bond_atom_site_label_2
_geom_bond_site_symmetry_1
_geom_bond_site_symmetry_2
Cd1 O1 1_555 1_555
O1 C13 1_555 1_555
O2 Cd1 1_555 1_555
O3 Cd1 1_555 1_555
O4 Cd1 1_555 1_555
N1 Cd1 1_555 1_555
N2 Cd1 1_555 1_555
C1 N2 1_555 1_555
C2 N1 1_555 1_555
C3 N1 1_555 1_555
H1 C3 1_555 1_555
C4 C3 1_555 1_555
H2 C4 1_555 1_555
C5 C4 1_555 1_555
H3 C5 1_555 1_555
C6 C2 1_555 1_555
C7 C6 1_555 1_555
H4 C7 1_555 1_555
C8 C7 1_555 1_555
H5 C8 1_555 1_555
C9 C1 1_555 1_555
C10 C9 1_555 1_555
H6 C10 1_555 1_555
C11 C10 1_555 1_555
H7 C11 1_555 1_555
C12 N2 1_555 1_555
H8 C12 1_555 1_555
C13 O2 1_555 1_555
C14 C13 1_555 1_555
H9 C14 1_555 1_555
H10 C14 1_555 1_555
C15 C14 1_555 1_555
H11 C15 1_555 1_555
H12 C15 1_555 1_555
C16 O3 1_555 1_555
C17 C16 1_555 1_555
H13 C17 1_555 1_555
H14 C17 1_555 1_555
C18 C17 1_555 1_555
H15 C18 1_555 1_555
H16 C18 1_555 1_555
Cd1A O1A 1_555 1_555
Cd1A_2 O2 1_555 1_555
Cd1_2 O2A 1_555 1_555
Cd1A_3 O3A 1_555 1_555
O1A C13A 1_555 1_555
O2A Cd1A 1_555 1_555
O2A_2 Cd1 1_555 1_555
O2_2 Cd1A 1_555 1_555
O3A C16A 1_555 1_555
O3A_2 Cd1A 1_555 1_555
O4A Cd1A_3 1_555 1_555
O4A_2 Cd1A 1_555 1_555
N1A Cd1A 1_555 1_555
N2A Cd1A 1_555 1_555
C1A N2A 1_555 1_555
C2A N1A 1_555 1_555
C3A N1A 1_555 1_555
H1A C3A 1_555 1_555
C4A C3A 1_555 1_555
H2A C4A 1_555 1_555
C5A C4A 1_555 1_555
H3A C5A 1_555 1_555
C6A C2A 1_555 1_555
C7A C6A 1_555 1_555
H4A C7A 1_555 1_555
C8A C7A 1_555 1_555
H5A C8A 1_555 1_555
C9A C1A 1_555 1_555
C10A C9A 1_555 1_555
H6A C10A 1_555 1_555
C11A C10A 1_555 1_555
H7A C11A 1_555 1_555
C12A N2A 1_555 1_555
H8A C12A 1_555 1_555
C13A O2A 1_555 1_555
C14A C13A 1_555 1_555
H9A C14A 1_555 1_555
H10A C14A 1_555 1_555
C15A C15 1_555 1_555
H11A C15A 1_555 1_555
H12A C15A 1_555 1_555
C16A O4A 1_555 1_555
C17A C16A 1_555 1_555
H13A C17A 1_555 1_555
H14A C17A 1_555 1_555
C18A C18 1_555 1_555
H15A C18A 1_555 1_555
H16A C18A 1_555 1_555
O4 C16 1_555 1_555
C1 C2 1_555 1_555
C5 C6 1_555 1_555
C8 C9 1_555 1_555
C11 C12 1_555 1_555
Cd1A_2 O2A_2 1_555 1_555
Cd1_2 O2_2 1_555 1_555
C1A C2A 1_555 1_555
C5A C6A 1_555 1_555
C8A C9A 1_555 1_555
C11A C12A 1_555 1_555
C14A C15A 1_555 1_555
C17A C18A 1_555 1_555

#END
