
#######################################################################
#
#                 Cambridge Crystallographic Data Centre
#                                CCDC 
#
#######################################################################
#
# If this CIF has been generated from an entry in the Cambridge 
# Structural Database, then it will include bibliographic, chemical, 
# crystal, experimental, refinement or atomic coordinate data resulting 
# from the CCDC's data processing and validation procedures.
#
#######################################################################

data_QETCUO
_symmetry_cell_setting           triclinic
_symmetry_space_group_name_H-M   'P -1'
_symmetry_Int_Tables_number      2
_space_group_name_Hall           '-P 1'
loop_
_symmetry_equiv_pos_site_id
_symmetry_equiv_pos_as_xyz
1 x,y,z
2 -x,-y,-z
_cell_length_a                   9.938(2)
_cell_length_b                   11.713(2)
_cell_length_c                   13.498(3)
_cell_angle_alpha                66.88(3)
_cell_angle_beta                 86.94(3)
_cell_angle_gamma                76.45(3)
_cell_volume                     1403.49
loop_
_atom_site_label
_atom_site_type_symbol
_atom_site_fract_x
_atom_site_fract_y
_atom_site_fract_z
Gd1 Gd 0.763590(10) 0.473828(10) -0.004825(8)
O1 O 0.6035(2) 0.83589(19) -0.12352(16)
O2 O 0.79559(17) 0.68575(15) -0.10700(13)
O3 O 0.65617(17) 1.35088(16) -0.84964(13)
O4 O 0.43161(17) 1.44123(17) -0.87834(13)
O5 O 0.91115(17) 0.49376(17) 0.11065(13)
O6 O 1.10438(17) 0.52693(17) 0.15775(13)
O7 O 0.6070(2) 0.62621(19) 0.06050(16)
O8 O 0.9499(2) 0.28236(19) 0.06116(17)
O9 O 0.70790(19) 0.30624(18) -0.05286(16)
N1 N 0.8086(3) 0.9987(3) -0.4851(2)
N2 N 0.4608(3) 1.1768(2) -0.48430(18)
N3 N 0.8438(3) 0.4497(4) 0.4935(2)
N4 N 0.6937(4) 0.2036(4) -0.1606(3)
C1 C 0.7111(3) 0.7913(2) -0.15876(19)
C2 C 0.7475(3) 0.8652(2) -0.27255(19)
C3 C 0.8764(3) 0.8322(3) -0.3104(2)
H1 H 0.9448 0.7652 -0.2655
C4 C 0.9015(3) 0.9009(3) -0.4164(3)
H2 H 0.9884 0.8778 -0.4415
C5 C 0.6843(3) 1.0309(2) -0.4474(2)
C6 C 0.6499(3) 0.9665(2) -0.34251(19)
H3 H 0.5621 0.9911 -0.3193
C7 C 0.5817(3) 1.1404(2) -0.5249(2)
C8 C 0.3660(3) 1.2718(3) -0.5517(2)
H4 H 0.2820 1.2978 -0.5242
C9 C 0.3844(3) 1.3347(3) -0.6606(2)
H5 H 0.3139 1.3996 -0.7049
C10 C 0.5102(2) 1.2986(2) -0.70161(18)
C11 C 0.6108(3) 1.1999(2) -0.63257(19)
H6 H 0.6965 1.1738 -0.6578
C12 C 0.5349(2) 1.3673(2) -0.81908(18)
C13 C 0.9868(2) 0.5042(2) 0.17633(18)
C14 C 0.9341(3) 0.4868(3) 0.28656(19)
C15 C 0.8133(3) 0.4465(4) 0.3197(2)
H7 H 0.7602 0.4312 0.2736
C16 C 0.7735(4) 0.4295(5) 0.4232(3)
H8 H 0.6922 0.4021 0.4452
C17 C 0.9610(3) 0.4887(3) 0.4606(2)
C18 C 1.0090(3) 0.5074(3) 0.3585(2)
H9 H 1.0912 0.5338 0.3386
C19 C 0.7272(4) 0.2909(4) -0.1365(3)
H10 H 0.7706 0.3476 -0.1893
C20 C 0.6300(7) 0.1079(5) -0.0821(5)
H11 H 0.6247 0.1188 -0.0150
H12 H 0.6847 0.0243 -0.0712
H13 H 0.5384 0.1172 -0.1082
C21 C 0.7168(10) 0.1994(8) -0.2668(6)
H14 H 0.7553 0.2697 -0.3117
H15 H 0.6302 0.2053 -0.2990
H16 H 0.7799 0.1206 -0.2598
H17 H 1.020(4) 0.292(3) 0.080(3)
H18 H 0.600(3) 0.699(3) 0.011(3)
H19 H 0.536(4) 0.618(3) 0.061(3)
H20 H 0.974(4) 0.246(4) 0.020(4)
Gd1_2 Gd 0.763590(10) -0.526172(10) 0.995175(8)
Gd1_3 Gd 0.763590(10) 1.473828(10) -1.004825(8)
Gd1A Gd 0.236410(10) 1.526172(10) -0.995175(8)
Gd1A_2 Gd 1.236410(10) 0.526172(10) 0.004825(8)
Gd1A_3 Gd 1.236410(10) 0.526172(10) 1.004825(8)
Gd1_4 Gd 0.763590(10) 0.473828(10) 0.995175(8)
Gd1A_4 Gd 0.236410(10) 0.526172(10) 0.004825(8)
O1_2 O 0.6035(2) -0.16411(19) 0.87648(16)
O2_2 O 0.79559(17) -0.31425(15) 0.89300(13)
O3_2 O 0.65617(17) 0.35088(16) 0.15036(13)
O3_3 O 0.65617(17) -0.64912(16) 1.15036(13)
O4_2 O 0.43161(17) 0.44123(17) 0.12166(13)
O4A O 0.56839(17) 0.55877(17) -0.12166(13)
O4A_2 O 0.56839(17) -0.44123(17) 0.87834(13)
O5A O 1.08885(17) 0.50624(17) 0.88935(13)
O5_2 O 0.91115(17) -0.50624(17) 1.11065(13)
O6A O 0.89562(17) 0.47307(17) 0.84225(13)
O6A_2 O 0.89562(17) 0.47307(17) -0.15775(13)
O6A_3 O 0.89562(17) -0.52693(17) 0.84225(13)
O7_2 O 0.6070(2) -0.37379(19) 1.06050(16)
O8_2 O 0.9499(2) -0.71764(19) 1.06116(17)
O9_2 O 0.70790(19) -0.69376(18) 0.94714(16)
N1_2 N 0.8086(3) -0.0013(3) 0.5149(2)
N2_2 N 0.4608(3) 0.1768(2) 0.51570(18)
N3A N 1.1562(3) 0.5503(4) 0.5065(2)
N4_2 N 0.6937(4) -0.7964(4) 0.8394(3)
C1_2 C 0.7111(3) -0.2087(2) 0.84124(19)
C2_2 C 0.7475(3) -0.1348(2) 0.72745(19)
C3_2 C 0.8764(3) -0.1678(3) 0.6896(2)
H1_2 H 0.9448 -0.2348 0.7345
C4_2 C 0.9015(3) -0.0991(3) 0.5836(3)
H2_2 H 0.9884 -0.1222 0.5585
C5_2 C 0.6843(3) 0.0309(2) 0.5526(2)
C6_2 C 0.6499(3) -0.0335(2) 0.65749(19)
H3_2 H 0.5621 -0.0089 0.6807
C7_2 C 0.5817(3) 0.1404(2) 0.4751(2)
C8_2 C 0.3660(3) 0.2718(3) 0.4483(2)
H4_2 H 0.2820 0.2978 0.4758
C9_2 C 0.3844(3) 0.3347(3) 0.3394(2)
H5_2 H 0.3139 0.3996 0.2951
C10_2 C 0.5102(2) 0.2986(2) 0.29839(18)
C11_2 C 0.6108(3) 0.1999(2) 0.36743(19)
H6_2 H 0.6965 0.1738 0.3422
C12_2 C 0.5349(2) 0.3673(2) 0.18092(18)
C13A C 1.0132(2) 0.4958(2) 0.82367(18)
C14A C 1.0659(3) 0.5132(3) 0.71344(19)
C15A C 1.1867(3) 0.5535(4) 0.6803(2)
H7A H 1.2398 0.5688 0.7264
C16A C 1.2265(4) 0.5705(5) 0.5768(3)
H8A H 1.3078 0.5979 0.5548
C17A C 1.0390(3) 0.5113(3) 0.5394(2)
C18A C 0.9910(3) 0.4926(3) 0.6415(2)
H9A H 0.9088 0.4662 0.6614
C19_2 C 0.7272(4) -0.7091(4) 0.8635(3)
H10_2 H 0.7706 -0.6524 0.8107
C20_2 C 0.6300(7) -0.8921(5) 0.9179(5)
H11_2 H 0.6247 -0.8812 0.9850
H12_2 H 0.6847 -0.9757 0.9288
H13_2 H 0.5384 -0.8828 0.8918
C21_2 C 0.7168(10) -0.8006(8) 0.7332(6)
H14_2 H 0.7553 -0.7303 0.6883
H15_2 H 0.6302 -0.7947 0.7010
H16_2 H 0.7799 -0.8794 0.7402
H17_2 H 1.020(4) -0.708(3) 1.080(3)
H18_2 H 0.600(3) -0.301(3) 1.011(3)
H19_2 H 0.536(4) -0.382(3) 1.061(3)
H20_2 H 0.974(4) -0.754(4) 1.020(4)
O10 O 0.9517(5) -0.1594(5) 0.0728(5)
N5 N 0.8262(5) -0.0921(4) 0.1897(4)
C22 C 0.8907(11) -0.1311(13) 0.1244(7)
H21 H 0.8175 -0.1605 0.1105
C23 C 0.827(2) 0.0174(10) 0.2024(11)
H22 H 0.7671 0.0248 0.2586
H23 H 0.7961 0.0894 0.1361
H24 H 0.9200 0.0153 0.2213
C24 C 0.7273(12) -0.1592(12) 0.2482(9)
H25 H 0.6838 -0.1211 0.2967
H26 H 0.7725 -0.2467 0.2887
H27 H 0.6584 -0.1553 0.1990
loop_
_geom_bond_atom_site_label_1
_geom_bond_atom_site_label_2
_geom_bond_site_symmetry_1
_geom_bond_site_symmetry_2
Gd1 O2 1_555 1_555
O1 C1 1_555 1_555
O2 C1 1_555 1_555
O3 C12 1_555 1_555
O4 C12 1_555 1_555
O5 Gd1 1_555 1_555
O6 C13 1_555 1_555
O7 Gd1 1_555 1_555
O8 Gd1 1_555 1_555
O9 Gd1 1_555 1_555
N1 C4 1_555 1_555
N2 C7 1_555 1_555
N3 C16 1_555 1_555
N4 C19 1_555 1_555
C1 C2 1_555 1_555
C2 C3 1_555 1_555
C3 H1 1_555 1_555
C4 C3 1_555 1_555
H2 C4 1_555 1_555
C5 N1 1_555 1_555
C6 C2 1_555 1_555
H3 C6 1_555 1_555
C7 C5 1_555 1_555
C8 N2 1_555 1_555
H4 C8 1_555 1_555
C9 C8 1_555 1_555
H5 C9 1_555 1_555
C10 C9 1_555 1_555
C11 C7 1_555 1_555
H6 C11 1_555 1_555
C12 C10 1_555 1_555
C13 O5 1_555 1_555
C14 C13 1_555 1_555
C15 C14 1_555 1_555
H7 C15 1_555 1_555
C16 C15 1_555 1_555
H8 C16 1_555 1_555
C17 N3 1_555 1_555
C18 C14 1_555 1_555
H9 C18 1_555 1_555
C19 O9 1_555 1_555
H10 C19 1_555 1_555
C20 N4 1_555 1_555
H11 C20 1_555 1_555
H12 C20 1_555 1_555
H13 C20 1_555 1_555
C21 N4 1_555 1_555
H14 C21 1_555 1_555
H15 C21 1_555 1_555
H16 C21 1_555 1_555
H17 O8 1_555 1_555
H18 O7 1_555 1_555
H19 O7 1_555 1_555
H20 O8 1_555 1_555
O10 C22 1_555 1_555
N5 C22 1_555 1_555
C22 H21 1_555 1_555
C23 N5 1_555 1_555
H22 C23 1_555 1_555
H23 C23 1_555 1_555
H24 C23 1_555 1_555
C24 N5 1_555 1_555
H25 C24 1_555 1_555
H26 C24 1_555 1_555
H27 C24 1_555 1_555
Gd1_2 O2_2 1_555 1_555
Gd1_3 O3 1_555 1_555
Gd1A O4 1_555 1_555
Gd1A_2 O6 1_555 1_555
Gd1A_3 O5A 1_555 1_555
Gd1_4 O6A 1_555 1_555
Gd1A_4 O4_2 1_555 1_555
O1_2 C1_2 1_555 1_555
O2_2 C1_2 1_555 1_555
O3_2 Gd1 1_555 1_555
O3_3 Gd1_2 1_555 1_555
O4_2 C12_2 1_555 1_555
O4A Gd1 1_555 1_555
O4A_2 Gd1_2 1_555 1_555
O5A C13A 1_555 1_555
O5_2 Gd1_2 1_555 1_555
O6A C13A 1_555 1_555
O6A_2 Gd1 1_555 1_555
O6A_3 Gd1_2 1_555 1_555
O7_2 Gd1_2 1_555 1_555
O8_2 Gd1_2 1_555 1_555
O9_2 Gd1_2 1_555 1_555
N1_2 C4_2 1_555 1_555
N2_2 C7_2 1_555 1_555
N3A C16A 1_555 1_555
N4_2 C19_2 1_555 1_555
C1_2 C2_2 1_555 1_555
C2_2 C3_2 1_555 1_555
C3_2 H1_2 1_555 1_555
C4_2 C3_2 1_555 1_555
H2_2 C4_2 1_555 1_555
C5_2 N1_2 1_555 1_555
C6_2 C2_2 1_555 1_555
H3_2 C6_2 1_555 1_555
C7_2 C5_2 1_555 1_555
C8_2 N2_2 1_555 1_555
H4_2 C8_2 1_555 1_555
C9_2 C8_2 1_555 1_555
H5_2 C9_2 1_555 1_555
C10_2 C9_2 1_555 1_555
C11_2 C7_2 1_555 1_555
H6_2 C11_2 1_555 1_555
C12_2 O3_2 1_555 1_555
C13A C14A 1_555 1_555
C14A C15A 1_555 1_555
C15A H7A 1_555 1_555
C16A C15A 1_555 1_555
H8A C16A 1_555 1_555
C17A C17 1_555 1_555
C18A C14A 1_555 1_555
H9A C18A 1_555 1_555
C19_2 O9_2 1_555 1_555
H10_2 C19_2 1_555 1_555
C20_2 N4_2 1_555 1_555
H11_2 C20_2 1_555 1_555
H12_2 C20_2 1_555 1_555
H13_2 C20_2 1_555 1_555
C21_2 N4_2 1_555 1_555
H14_2 C21_2 1_555 1_555
H15_2 C21_2 1_555 1_555
H16_2 C21_2 1_555 1_555
H17_2 O8_2 1_555 1_555
H18_2 O7_2 1_555 1_555
H19_2 O7_2 1_555 1_555
H20_2 O8_2 1_555 1_555
C5 C6 1_555 1_555
C10 C11 1_555 1_555
C17 C18 1_555 1_555
N3A C17A 1_555 1_555
C5_2 C6_2 1_555 1_555
C10_2 C11_2 1_555 1_555
C10_2 C12_2 1_555 1_555
C17A C18A 1_555 1_555

#END
