
#######################################################################
#
#                 Cambridge Crystallographic Data Centre
#                                CCDC 
#
#######################################################################
#
# If this CIF has been generated from an entry in the Cambridge 
# Structural Database, then it will include bibliographic, chemical, 
# crystal, experimental, refinement or atomic coordinate data resulting 
# from the CCDC's data processing and validation procedures.
#
#######################################################################

data_QETCOI
_symmetry_cell_setting           monoclinic
_symmetry_space_group_name_H-M   'P 21/n'
_symmetry_Int_Tables_number      14
_space_group_name_Hall           '-P 2yn'
loop_
_symmetry_equiv_pos_site_id
_symmetry_equiv_pos_as_xyz
1 x,y,z
2 1/2-x,1/2+y,1/2-z
3 -x,-y,-z
4 1/2+x,1/2-y,1/2+z
_cell_length_a                   13.2721(19)
_cell_length_b                   10.4681(16)
_cell_length_c                   20.279(3)
_cell_angle_alpha                90
_cell_angle_beta                 102.059(2)
_cell_angle_gamma                90
_cell_volume                     2755.26
loop_
_atom_site_label
_atom_site_type_symbol
_atom_site_fract_x
_atom_site_fract_y
_atom_site_fract_z
Mn1 Mn 0.19656(3) 0.81959(4) 0.18055(2)
O1 O 0.37149(18) 0.4493(3) -0.05858(12)
O2 O -0.30441(18) 0.8416(2) -0.02422(11)
N1 N 0.16746(19) 0.6105(2) 0.13945(12)
N2 N 0.06039(18) 0.7415(3) 0.21727(12)
N3 N 0.12074(19) 0.8532(2) 0.06847(11)
N4 N 0.32514(19) 0.8444(2) 0.12621(13)
N5 N 0.30097(19) 0.7302(3) 0.26866(13)
N6 N 0.31003(18) 0.6195(3) 0.27744(12)
N7 N 0.3209(2) 0.5091(3) 0.28567(14)
C1 C 0.3173(3) 0.4283(5) -0.12589(17)
H1 H 0.2722 0.3563 -0.1271
H2 H 0.3657 0.4115 -0.1541
H3 H 0.2776 0.5028 -0.1420
C2 C 0.3153(3) 0.4817(3) -0.01182(17)
C3 C 0.3717(3) 0.5064(3) 0.05260(17)
H4 H 0.4430 0.4970 0.0619
C4 C 0.3225(2) 0.5449(3) 0.10285(16)
H5 H 0.3607 0.5627 0.1458
C5 C 0.2166(2) 0.5569(3) 0.08933(15)
C6 C 0.1605(2) 0.5309(3) 0.02550(16)
H6 H 0.0891 0.5382 0.0164
C7 C 0.2102(3) 0.4940(3) -0.02513(16)
H7 H 0.1721 0.4775 -0.0682
C8 C 0.0902(2) 0.5568(3) 0.15522(15)
H8 H 0.0700 0.4761 0.1383
C9 C 0.0324(2) 0.6205(3) 0.19978(15)
C10 C -0.0480(3) 0.5599(4) 0.22046(17)
H9 H -0.0651 0.4760 0.2077
C11 C -0.1024(3) 0.6258(5) 0.2602(2)
H10 H -0.1566 0.5869 0.2751
C12 C -0.0758(3) 0.7488(4) 0.27760(18)
H11 H -0.1119 0.7952 0.3042
C13 C 0.0055(3) 0.8036(4) 0.25520(16)
H12 H 0.0228 0.8878 0.2671
C14 C 0.4252(3) 0.8416(3) 0.15407(17)
H13 H 0.4453 0.8371 0.2008
C15 C 0.5003(3) 0.8453(4) 0.1163(2)
H14 H 0.5697 0.8446 0.1373
C16 C 0.4716(3) 0.8501(4) 0.0478(2)
H15 H 0.5211 0.8518 0.0214
C17 C 0.3683(3) 0.8523(3) 0.01783(18)
H16 H 0.3471 0.8552 -0.0289
C18 C 0.2969(2) 0.8501(3) 0.05857(16)
C19 C 0.1864(3) 0.8521(3) 0.03008(16)
H17 H 0.1633 0.8524 -0.0165
C20 C 0.0129(2) 0.8480(3) 0.04081(14)
C21 C -0.0296(3) 0.8028(3) -0.02328(14)
H18 H 0.0136 0.7743 -0.0509
C22 C -0.1345(2) 0.7995(3) -0.04660(15)
H19 H -0.1617 0.7695 -0.0898
C23 C -0.1994(3) 0.8407(3) -0.00586(16)
C24 C -0.1577(3) 0.8853(3) 0.05863(16)
H20 H -0.2010 0.9122 0.0865
C25 C -0.0532(3) 0.8899(3) 0.08128(15)
H21 H -0.0260 0.9214 0.1242
C26 C -0.3499(3) 0.8177(4) -0.09312(17)
H22 H -0.3232 0.8774 -0.1211
H23 H -0.4233 0.8274 -0.1000
H24 H -0.3338 0.7323 -0.1047
Mn1A Mn 0.30344(3) 0.31959(4) 0.31945(2)
N7A N 0.1791(2) 1.0091(3) 0.21433(14)
Cl1 Cl 0.86388(7) 0.19676(9) 0.18923(4)
O3 O 0.9205(10) 0.2701(9) 0.1491(5)
O4 O 0.7833(7) 0.1317(13) 0.1477(6)
O5 O 0.9326(10) 0.1077(9) 0.2283(4)
O6 O 0.8381(12) 0.2720(15) 0.2411(7)
O7? O 0.7784(12) 0.2061(19) 0.1328(6)
O8? O 0.8636(17) 0.0698(10) 0.2110(7)
O9? O 0.9541(11) 0.2321(19) 0.1714(9)
O10? O 0.8207(18) 0.294(2) 0.2260(12)
loop_
_geom_bond_atom_site_label_1
_geom_bond_atom_site_label_2
_geom_bond_site_symmetry_1
_geom_bond_site_symmetry_2
Mn1 N1 1_555 1_555
O1 C1 1_555 1_555
O2 C23 1_555 1_555
N1 C5 1_555 1_555
N2 Mn1 1_555 1_555
N3 Mn1 1_555 1_555
N4 Mn1 1_555 1_555
N5 Mn1 1_555 1_555
N6 N5 1_555 1_555
N7 N6 1_555 1_555
C1 H1 1_555 1_555
H2 C1 1_555 1_555
H3 C1 1_555 1_555
C2 O1 1_555 1_555
C3 C2 1_555 1_555
H4 C3 1_555 1_555
C4 C3 1_555 1_555
H5 C4 1_555 1_555
C5 C4 1_555 1_555
C6 C5 1_555 1_555
H6 C6 1_555 1_555
C7 C2 1_555 1_555
H7 C7 1_555 1_555
C8 N1 1_555 1_555
H8 C8 1_555 1_555
C9 N2 1_555 1_555
C10 C9 1_555 1_555
H9 C10 1_555 1_555
C11 C10 1_555 1_555
H10 C11 1_555 1_555
C12 C11 1_555 1_555
H11 C12 1_555 1_555
C13 N2 1_555 1_555
H12 C13 1_555 1_555
C14 N4 1_555 1_555
H13 C14 1_555 1_555
C15 C14 1_555 1_555
H14 C15 1_555 1_555
C16 C15 1_555 1_555
H15 C16 1_555 1_555
C17 C16 1_555 1_555
H16 C17 1_555 1_555
C18 N4 1_555 1_555
C19 N3 1_555 1_555
H17 C19 1_555 1_555
C20 N3 1_555 1_555
C21 C20 1_555 1_555
H18 C21 1_555 1_555
C22 C21 1_555 1_555
H19 C22 1_555 1_555
C23 C22 1_555 1_555
C24 C23 1_555 1_555
H20 C24 1_555 1_555
C25 C20 1_555 1_555
H21 C25 1_555 1_555
C26 O2 1_555 1_555
H22 C26 1_555 1_555
H23 C26 1_555 1_555
H24 C26 1_555 1_555
Cl1 O3 1_555 1_555
O4 Cl1 1_555 1_555
O5 Cl1 1_555 1_555
O6 Cl1 1_555 1_555
Mn1A N7 1_555 1_555
N7A Mn1 1_555 1_555
C6 C7 1_555 1_555
C8 C9 1_555 1_555
C12 C13 1_555 1_555
C17 C18 1_555 1_555
C18 C19 1_555 1_555
C24 C25 1_555 1_555

#END
