
#######################################################################
#
#                 Cambridge Crystallographic Data Centre
#                                CCDC 
#
#######################################################################
#
# If this CIF has been generated from an entry in the Cambridge 
# Structural Database, then it will include bibliographic, chemical, 
# crystal, experimental, refinement or atomic coordinate data resulting 
# from the CCDC's data processing and validation procedures.
#
#######################################################################

data_QETDAV
_symmetry_cell_setting           monoclinic
_symmetry_space_group_name_H-M   'P 21/c'
_symmetry_Int_Tables_number      14
_space_group_name_Hall           '-P 2ybc'
loop_
_symmetry_equiv_pos_site_id
_symmetry_equiv_pos_as_xyz
1 x,y,z
2 -x,1/2+y,1/2-z
3 -x,-y,-z
4 x,1/2-y,1/2+z
_cell_length_a                   13.6661(8)
_cell_length_b                   10.2967(6)
_cell_length_c                   17.8289(10)
_cell_angle_alpha                90
_cell_angle_beta                 110.2460(10)
_cell_angle_gamma                90
_cell_volume                     2353.8
loop_
_atom_site_label
_atom_site_type_symbol
_atom_site_fract_x
_atom_site_fract_y
_atom_site_fract_z
Cd1 Cd 1.0000 0.5000 0.5000
Cd2 Cd 0.727101(14) 0.575974(17) 0.435577(11)
Br1 Br 0.54570(3) 0.65599(5) 0.42465(3)
O1 O 0.76011(18) 0.4252(2) 0.52766(14)
O2 O 0.93160(18) 0.3862(3) 0.57330(15)
O3 O 0.86007(17) 0.0280(3) 0.88317(13)
O4 O 0.69226(17) 0.0545(2) 0.82699(13)
O5 O 0.89709(17) 0.67401(18) 0.51076(13)
O6 O 0.78262(19) 0.7783(2) 0.41123(18)
C1 C 0.8421(2) 0.3785(3) 0.57636(18)
C2 C 0.8295(2) 0.3030(3) 0.64481(17)
C3 C 0.9092(2) 0.2261(4) 0.6930(2)
H1 H 0.9726 0.2231 0.6846
C4 C 0.8950(2) 0.1536(4) 0.7538(2)
H2 H 0.9491 0.1023 0.7863
C5 C 0.8007(2) 0.1570(3) 0.76654(16)
C6 C 0.7213(2) 0.2347(3) 0.71832(19)
H3 H 0.6577 0.2379 0.7265
C7 C 0.7361(2) 0.3077(3) 0.65798(19)
H4 H 0.6825 0.3603 0.6261
C8 C 0.7838(2) 0.0759(3) 0.83013(17)
C9 C 0.8687(3) 0.7727(3) 0.4664(2)
C10 C 0.9381(2) 0.8896(3) 0.4833(2)
C11 C 0.9135(3) 0.9937(3) 0.4310(2)
H5 H 0.8557 0.9895 0.3843
C12 C 1.0244(3) 0.8949(3) 0.5517(2)
H6 H 1.0415 0.8244 0.5864
Cd1C Cd 1.0000 0.0000 1.0000
Cd1_2 Cd 1.0000 1.5000 0.5000
Cd1C_2 Cd 1.0000 1.0000 0.0000
Cd2B Cd 1.272899(14) 0.424026(17) 0.564423(11)
Cd2C Cd 0.727101(14) -0.075974(17) 0.935577(11)
Cd2B_2 Cd 1.272899(14) 1.424026(17) 0.564423(11)
Cd2A Cd 1.272899(14) 1.075974(17) 0.064423(11)
Br1B Br 1.45430(3) 0.34401(5) 0.57535(3)
O1B O 1.23989(18) 0.5748(2) 0.47234(14)
O2B O 1.06840(18) 0.6138(3) 0.42670(15)
O3B O 1.13993(17) 0.9720(3) 0.11683(13)
O3C O 0.86007(17) 0.4720(3) 0.38317(13)
O3A O 1.13993(17) 0.5280(3) 0.61683(13)
O4B O 1.30774(17) 0.9455(2) 0.17301(13)
O4C O 0.69226(17) 0.4455(2) 0.32699(13)
O4A O 1.30774(17) 0.5545(2) 0.67301(13)
O5B O 1.10291(17) 1.32599(18) 0.48924(13)
O5B_2 O 1.10291(17) 0.32599(18) 0.48924(13)
O6B O 1.21738(19) 1.2217(2) 0.58877(18)
O6B_2 O 1.21738(19) 0.2217(2) 0.58877(18)
C1B C 1.1579(2) 0.6215(3) 0.42364(18)
C2B C 1.1705(2) 0.6970(3) 0.35519(17)
C3B C 1.0908(2) 0.7739(4) 0.3070(2)
H1B H 1.0274 0.7769 0.3154
C4B C 1.1050(2) 0.8464(4) 0.2462(2)
H2B H 1.0509 0.8977 0.2137
C5B C 1.1993(2) 0.8430(3) 0.23346(16)
C6B C 1.2787(2) 0.7653(3) 0.28168(19)
H3B H 1.3423 0.7621 0.2735
C7B C 1.2639(2) 0.6923(3) 0.34202(19)
H4B H 1.3175 0.6397 0.3739
C8B C 1.2162(2) 0.9241(3) 0.16987(17)
C9B C 1.1313(3) 1.2273(3) 0.5336(2)
C10B C 1.0619(2) 1.1104(3) 0.5167(2)
C11B C 1.0865(3) 1.0063(3) 0.5690(2)
H5B H 1.1443 1.0105 0.6157
C12B C 0.9756(3) 1.1051(3) 0.4483(2)
H6B H 0.9585 1.1756 0.4136
N1 N 0.3799(3) 0.9182(3) 0.5546(2)
N2 N 0.4812(3) 0.7961(3) 0.6457(3)
C13 C 0.3061(6) 0.9662(7) 0.4782(3)
H7 H 0.3208 0.9258 0.4347
H8 H 0.3131 1.0586 0.4753
H9 H 0.2362 0.9454 0.4747
C14 C 0.4173(4) 0.8014(5) 0.5721(3)
H10 H 0.4006 0.7314 0.5369
C15 C 0.4841(6) 0.9155(6) 0.6764(4)
H11 H 0.5238 0.9412 0.7280
C16 C 0.4214(6) 0.9894(5) 0.6211(3)
H12 H 0.4078 1.0766 0.6268
C17 C 0.5391(5) 0.6823(5) 0.6860(5)
H13 H 0.5332 0.6768 0.7385
H14 H 0.5055 0.6059 0.6564
C18 C 0.6438(5) 0.6769(8) 0.6954(6)
H15 H 0.6766 0.6615 0.7523
H16 H 0.6492 0.5949 0.6704
C19 C 0.7119(6) 0.7488(10) 0.6791(6)
H17 H 0.7152 0.8270 0.7102
H18 H 0.6769 0.7741 0.6239
C20 C 0.8142(6) 0.7285(12) 0.6843(6)
H19 H 0.8415 0.6537 0.7170
H20 H 0.8553 0.8033 0.7078
H21 H 0.8167 0.7144 0.6318
loop_
_geom_bond_atom_site_label_1
_geom_bond_atom_site_label_2
_geom_bond_site_symmetry_1
_geom_bond_site_symmetry_2
Cd1 O2 1_555 1_555
Cd2 Br1 1_555 1_555
O1 Cd2 1_555 1_555
O2 C1 1_555 1_555
O3 C8 1_555 1_555
O4 C8 1_555 1_555
O5 Cd1 1_555 1_555
O6 Cd2 1_555 1_555
N1 C13 1_555 1_555
N2 C14 1_555 1_555
C1 O1 1_555 1_555
C2 C1 1_555 1_555
C3 C2 1_555 1_555
H1 C3 1_555 1_555
C4 C3 1_555 1_555
H2 C4 1_555 1_555
C5 C4 1_555 1_555
C6 C5 1_555 1_555
H3 C6 1_555 1_555
C7 C2 1_555 1_555
H4 C7 1_555 1_555
C8 C5 1_555 1_555
C9 O5 1_555 1_555
C10 C9 1_555 1_555
C11 C10 1_555 1_555
H5 C11 1_555 1_555
C12 C10 1_555 1_555
H6 C12 1_555 1_555
C13 H7 1_555 1_555
H8 C13 1_555 1_555
H9 C13 1_555 1_555
C14 N1 1_555 1_555
H10 C14 1_555 1_555
C15 N2 1_555 1_555
H11 C15 1_555 1_555
C16 N1 1_555 1_555
H12 C16 1_555 1_555
C17 N2 1_555 1_555
H13 C17 1_555 1_555
H14 C17 1_555 1_555
C18 C17 1_555 1_555
H15 C18 1_555 1_555
H16 C18 1_555 1_555
C19 C18 1_555 1_555
H17 C19 1_555 1_555
H18 C19 1_555 1_555
C20 C19 1_555 1_555
H19 C20 1_555 1_555
H20 C20 1_555 1_555
H21 C20 1_555 1_555
Cd1C O3 1_555 1_555
Cd1_2 O5B 1_555 1_555
Cd1C_2 O3B 1_555 1_555
Cd2B Br1B 1_555 1_555
Cd2C O3 1_555 1_555
Cd2B_2 O5B 1_555 1_555
Cd2A O3B 1_555 1_555
O1B Cd2B 1_555 1_555
O2B Cd1 1_555 1_555
O3B C8B 1_555 1_555
O3C Cd1 1_555 1_555
O3A Cd1 1_555 1_555
O4B Cd2A 1_555 1_555
O4C Cd2 1_555 1_555
O4A Cd2B 1_555 1_555
O5B C9B 1_555 1_555
O5B_2 Cd1 1_555 1_555
O6B Cd2B_2 1_555 1_555
O6B_2 Cd2B 1_555 1_555
C1B O1B 1_555 1_555
C2B C1B 1_555 1_555
C3B C2B 1_555 1_555
H1B C3B 1_555 1_555
C4B C3B 1_555 1_555
H2B C4B 1_555 1_555
C5B C4B 1_555 1_555
C6B C5B 1_555 1_555
H3B C6B 1_555 1_555
C7B C2B 1_555 1_555
H4B C7B 1_555 1_555
C8B O4B 1_555 1_555
C9B O6B 1_555 1_555
C10B C9B 1_555 1_555
C11B C12 1_555 1_555
H5B C11B 1_555 1_555
C12B C11 1_555 1_555
H6B C12B 1_555 1_555
Cd2 O5 1_555 1_555
Cd2 O3C 1_555 1_555
O4 Cd2C 1_555 1_555
O6 C9 1_555 1_555
C6 C7 1_555 1_555
C15 C16 1_555 1_555
Cd2B O3A 1_555 1_555
Cd2B O5B_2 1_555 1_555
O2B C1B 1_555 1_555
C5B C8B 1_555 1_555
C6B C7B 1_555 1_555
C10B C11B 1_555 1_555
C10B C12B 1_555 1_555

#END
