
#######################################################################
#
#                 Cambridge Crystallographic Data Centre
#                                CCDC 
#
#######################################################################
#
# If this CIF has been generated from an entry in the Cambridge 
# Structural Database, then it will include bibliographic, chemical, 
# crystal, experimental, refinement or atomic coordinate data resulting 
# from the CCDC's data processing and validation procedures.
#
#######################################################################

data_QETDOJ
_symmetry_cell_setting           monoclinic
_symmetry_space_group_name_H-M   'P 21/c'
_symmetry_Int_Tables_number      14
_space_group_name_Hall           '-P 2ybc'
loop_
_symmetry_equiv_pos_site_id
_symmetry_equiv_pos_as_xyz
1 x,y,z
2 -x,1/2+y,1/2-z
3 -x,-y,-z
4 x,1/2-y,1/2+z
_cell_length_a                   12.032(3)
_cell_length_b                   11.573(3)
_cell_length_c                   14.662(4)
_cell_angle_alpha                90
_cell_angle_beta                 104.552(4)
_cell_angle_gamma                90
_cell_volume                     1976.13
loop_
_atom_site_label
_atom_site_type_symbol
_atom_site_fract_x
_atom_site_fract_y
_atom_site_fract_z
Cd1 Cd 0.352295(17) 0.496115(18) 0.035073(14)
N1 N 0.6516(2) 0.4577(3) 0.46687(17)
N2 N 0.2252(2) 0.6375(2) 0.06983(18)
N3 N 0.1793(2) 0.4992(2) -0.08653(18)
O1 O 0.37386(18) 0.3999(2) 0.17576(14)
O2 O 0.4811(2) 0.5550(2) 0.18378(15)
O3 O 0.54342(19) 0.11982(18) 0.53234(15)
O4 O 0.36829(19) 0.1795(2) 0.46320(15)
C1 C 0.6036(3) 0.4921(3) 0.3780(2)
C2 C 0.5113(2) 0.4325(3) 0.3202(2)
C3 C 0.4712(2) 0.3365(3) 0.3581(2)
H3 H 0.4089 0.2959 0.3218
C4 C 0.5214(2) 0.2994(2) 0.4484(2)
C5 C 0.6127(3) 0.3634(3) 0.5023(2)
C6 C 0.6590(4) 0.5975(4) 0.3478(3)
H4 H 0.7206 0.6232 0.3990
H5 H 0.6029 0.6579 0.3307
H6 H 0.6886 0.5785 0.2947
C7 C 0.4521(3) 0.4665(3) 0.2201(2)
C8 C 0.4758(3) 0.1925(3) 0.4844(2)
C9 C 0.6727(3) 0.3350(3) 0.6028(2)
H7 H 0.7327 0.3903 0.6259
H8 H 0.7053 0.2590 0.6057
H9 H 0.6185 0.3377 0.6408
C10 C 0.2478(3) 0.7055(3) 0.1443(2)
H10 H 0.3201 0.7011 0.1860
C11 C 0.1684(4) 0.7838(3) 0.1636(3)
H11 H 0.1879 0.8312 0.2165
C12 C 0.0620(4) 0.7896(4) 0.1037(3)
H12 H 0.0076 0.8404 0.1159
C13 C 0.0346(3) 0.7194(3) 0.0240(3)
C14 C 0.1198(3) 0.6437(3) 0.0086(2)
C15 C 0.0959(3) 0.5716(3) -0.0739(2)
C16 C -0.0130(3) 0.5775(3) -0.1386(2)
C17 C -0.0318(3) 0.5072(3) -0.2187(3)
H13 H -0.1017 0.5098 -0.2636
C18 C 0.0525(4) 0.4354(4) -0.2305(3)
H14 H 0.0408 0.3880 -0.2833
C19 C 0.1569(3) 0.4336(3) -0.1626(2)
H15 H 0.2138 0.3835 -0.1714
C20 C -0.0753(3) 0.7202(4) -0.0429(3)
H16 H -0.1327 0.7684 -0.0322
C21 C -0.0979(3) 0.6542(4) -0.1198(3)
H17 H -0.1699 0.6581 -0.1619
Cd1C Cd 0.352295(17) 0.003885(18) 0.535073(14)
Cd1A Cd 0.647705(17) -0.003885(18) 0.464927(14)
O3C O 0.54342(19) 0.38018(18) 0.03234(15)
O3A O 0.45658(19) 0.61982(18) -0.03234(15)
O4C O 0.36829(19) 0.3205(2) -0.03680(15)
O5 O 0.7884(2) 0.6222(2) 0.59656(17)
H1 H 0.7558 0.5697 0.5586
H2 H 0.7395 0.6765 0.5906
loop_
_geom_bond_atom_site_label_1
_geom_bond_atom_site_label_2
_geom_bond_site_symmetry_1
_geom_bond_site_symmetry_2
Cd1 N2 1_555 1_555
N1 C1 1_555 1_555
N2 C10 1_555 1_555
N3 Cd1 1_555 1_555
O1 Cd1 1_555 1_555
O2 Cd1 1_555 1_555
O3 C8 1_555 1_555
O4 C8 1_555 1_555
O5 H1 1_555 1_555
H2 O5 1_555 1_555
C1 C2 1_555 1_555
C2 C3 1_555 1_555
C3 H3 1_555 1_555
C4 C3 1_555 1_555
C5 N1 1_555 1_555
C6 C1 1_555 1_555
H4 C6 1_555 1_555
H5 C6 1_555 1_555
H6 C6 1_555 1_555
C7 O1 1_555 1_555
C8 C4 1_555 1_555
C9 C5 1_555 1_555
H7 C9 1_555 1_555
H8 C9 1_555 1_555
H9 C9 1_555 1_555
C10 H10 1_555 1_555
C11 C10 1_555 1_555
H11 C11 1_555 1_555
C12 C11 1_555 1_555
H12 C12 1_555 1_555
C13 C12 1_555 1_555
C14 N2 1_555 1_555
C15 N3 1_555 1_555
C16 C15 1_555 1_555
C17 C16 1_555 1_555
H13 C17 1_555 1_555
C18 C17 1_555 1_555
H14 C18 1_555 1_555
C19 N3 1_555 1_555
H15 C19 1_555 1_555
C20 C13 1_555 1_555
H16 C20 1_555 1_555
C21 C16 1_555 1_555
H17 C21 1_555 1_555
Cd1C O3 1_555 1_555
Cd1A O3 1_555 1_555
O3C Cd1 1_555 1_555
O3A Cd1 1_555 1_555
O4C Cd1 1_555 1_555
O2 C7 1_555 1_555
O4 Cd1C 1_555 1_555
C2 C7 1_555 1_555
C4 C5 1_555 1_555
C13 C14 1_555 1_555
C14 C15 1_555 1_555
C18 C19 1_555 1_555
C20 C21 1_555 1_555

#END
