
#######################################################################
#
#                 Cambridge Crystallographic Data Centre
#                                CCDC 
#
#######################################################################
#
# If this CIF has been generated from an entry in the Cambridge 
# Structural Database, then it will include bibliographic, chemical, 
# crystal, experimental, refinement or atomic coordinate data resulting 
# from the CCDC's data processing and validation procedures.
#
#######################################################################

data_QETFUR
_symmetry_cell_setting           monoclinic
_symmetry_space_group_name_H-M   'P 21/n'
_symmetry_Int_Tables_number      14
_space_group_name_Hall           '-P 2yn'
loop_
_symmetry_equiv_pos_site_id
_symmetry_equiv_pos_as_xyz
1 x,y,z
2 1/2-x,1/2+y,1/2-z
3 -x,-y,-z
4 1/2+x,1/2-y,1/2+z
_cell_length_a                   12.3464(12)
_cell_length_b                   8.2020(6)
_cell_length_c                   18.6288(14)
_cell_angle_alpha                90
_cell_angle_beta                 104.023(5)
_cell_angle_gamma                90
_cell_volume                     1830.23
loop_
_atom_site_label
_atom_site_type_symbol
_atom_site_fract_x
_atom_site_fract_y
_atom_site_fract_z
C1 C 0.8239(4) 0.5189(5) 0.0940(2)
H1 H 0.8665 0.5151 0.1425
C2 C 0.8641(4) 0.4400(5) 0.0390(2)
H2 H 0.9320 0.3851 0.0511
C3 C 0.8022(4) 0.4444(5) -0.0330(2)
H3 H 0.8273 0.3918 -0.0701
C4 C 0.7012(3) 0.5292(4) -0.0494(2)
C5 C 0.6673(3) 0.6042(4) 0.00942(18)
C6 C 0.6316(4) 0.5425(5) -0.12250(19)
H4 H 0.6532 0.4916 -0.1614
C7 C 0.5351(4) 0.6273(5) -0.1364(2)
H5 H 0.4921 0.6363 -0.1847
C8 C 0.4985(3) 0.7035(4) -0.07742(19)
C9 C 0.3975(3) 0.7887(5) -0.0877(2)
H6 H 0.3514 0.7986 -0.1350
C10 C 0.3660(3) 0.8574(5) -0.0294(2)
H7 H 0.2986 0.9129 -0.0362
C11 C 0.4377(3) 0.8420(5) 0.0410(2)
H8 H 0.4162 0.8882 0.0810
C12 C 0.5643(3) 0.6927(4) -0.00536(18)
C13 C 0.8342(3) 1.0221(4) 0.20783(19)
C14 C 0.9876(3) 1.2437(5) 0.23300(16)
C15 C 0.9365(3) 1.1011(4) 0.19315(17)
C16 C 1.0761(3) 1.0971(5) 0.12260(19)
C17 C 1.1275(3) 1.2360(5) 0.15840(18)
H9 H 1.1897 1.2816 0.1462
C18 C 1.0832(3) 1.3025(4) 0.21188(19)
C19 C 0.9835(3) 1.0317(4) 0.13992(18)
H10 H 0.9513 0.9384 0.1153
Mn1 Mn 0.66427(5) 0.74877(7) 0.16079(3)
N1 N 0.7287(3) 0.5978(4) 0.08011(15)
N2 N 0.5344(2) 0.7650(4) 0.05332(14)
N3 N 1.1390(3) 1.4454(5) 0.2500(2)
N4 N 1.1221(3) 1.0238(5) 0.06600(18)
O1 O 0.7936(2) 0.9059(3) 0.16514(13)
O2 O 0.7906(2) 1.0719(3) 0.25733(12)
O3 O 0.9511(2) 1.3188(3) 0.28261(12)
O4 O 1.1743(4) 1.4388(6) 0.3159(2)
O5 O 1.1528(4) 1.5605(5) 0.2157(2)
O6 O 1.0883(3) 0.8878(4) 0.04308(15)
O7 O 1.1914(3) 1.1007(4) 0.04233(16)
Mn1A Mn 0.83573(5) 1.24877(7) 0.33921(3)
O2A O 0.7094(2) 0.5719(3) 0.24267(12)
O3A O 0.5489(2) 0.8188(3) 0.21739(12)
loop_
_geom_bond_atom_site_label_1
_geom_bond_atom_site_label_2
_geom_bond_site_symmetry_1
_geom_bond_site_symmetry_2
C1 H1 1_555 1_555
C2 C1 1_555 1_555
H2 C2 1_555 1_555
C3 C2 1_555 1_555
H3 C3 1_555 1_555
C4 C3 1_555 1_555
C5 C4 1_555 1_555
C6 C4 1_555 1_555
H4 C6 1_555 1_555
C7 C6 1_555 1_555
H5 C7 1_555 1_555
C8 C7 1_555 1_555
C9 C8 1_555 1_555
H6 C9 1_555 1_555
C10 C9 1_555 1_555
H7 C10 1_555 1_555
C11 C10 1_555 1_555
H8 C11 1_555 1_555
C12 C5 1_555 1_555
C13 C15 1_555 1_555
C14 C15 1_555 1_555
C15 C19 1_555 1_555
C16 C17 1_555 1_555
C17 H9 1_555 1_555
C18 C14 1_555 1_555
C19 C16 1_555 1_555
H10 C19 1_555 1_555
Mn1 N1 1_555 1_555
N1 C1 1_555 1_555
N2 C11 1_555 1_555
N3 C18 1_555 1_555
N4 C16 1_555 1_555
O1 C13 1_555 1_555
O2 C13 1_555 1_555
O3 C14 1_555 1_555
O4 N3 1_555 1_555
O5 N3 1_555 1_555
O6 N4 1_555 1_555
O7 N4 1_555 1_555
Mn1A O2 1_555 1_555
O2A Mn1 1_555 1_555
O3A Mn1 1_555 1_555
C5 N1 1_555 1_555
C8 C12 1_555 1_555
C12 N2 1_555 1_555
C17 C18 1_555 1_555
Mn1 N2 1_555 1_555
Mn1 O1 1_555 1_555
O3 Mn1A 1_555 1_555

#END
