
#######################################################################
#
#                 Cambridge Crystallographic Data Centre
#                                CCDC 
#
#######################################################################
#
# If this CIF has been generated from an entry in the Cambridge 
# Structural Database, then it will include bibliographic, chemical, 
# crystal, experimental, refinement or atomic coordinate data resulting 
# from the CCDC's data processing and validation procedures.
#
#######################################################################

data_QETHON
_symmetry_cell_setting           monoclinic
_symmetry_space_group_name_H-M   'P 21/c'
_symmetry_Int_Tables_number      14
_space_group_name_Hall           '-P 2ybc'
loop_
_symmetry_equiv_pos_site_id
_symmetry_equiv_pos_as_xyz
1 x,y,z
2 -x,1/2+y,1/2-z
3 -x,-y,-z
4 x,1/2-y,1/2+z
_cell_length_a                   10.137(4)
_cell_length_b                   15.340(6)
_cell_length_c                   12.647(5)
_cell_angle_alpha                90
_cell_angle_beta                 97.615(7)
_cell_angle_gamma                90
_cell_volume                     1949.28
loop_
_atom_site_label
_atom_site_type_symbol
_atom_site_fract_x
_atom_site_fract_y
_atom_site_fract_z
Cu1 Cu 0.62711(4) 0.48933(2) 0.20610(3)
N1 N 0.5541(3) 0.55239(16) 0.35089(19)
N2 N 0.4199(3) 0.55685(15) 0.34748(19)
N3 N 0.4865(2) 0.40016(14) 0.22509(18)
N4 N 0.3655(2) 0.42609(14) 0.24889(19)
N5 N 0.4748(2) 0.56162(15) 0.12512(18)
N6 N 0.3548(2) 0.56344(14) 0.16105(18)
C1 C 0.6013(4) 0.5988(2) 0.4358(2)
H1 H 0.6913 0.6069 0.4592
C2 C 0.4989(4) 0.6339(2) 0.4857(3)
H2 H 0.5073 0.6688 0.5464
C3 C 0.3846(4) 0.6067(2) 0.4273(2)
H3 H 0.2984 0.6198 0.4397
C4 C 0.3360(3) 0.51814(18) 0.2580(2)
H4 H 0.2428 0.5244 0.2697
C5 C 0.4807(3) 0.31337(18) 0.2232(2)
H5 H 0.5500 0.2772 0.2092
C6 C 0.3565(3) 0.2840(2) 0.2450(3)
H6 H 0.3278 0.2266 0.2478
C7 C 0.2867(3) 0.35739(19) 0.2613(2)
H7 H 0.2002 0.3597 0.2779
C8 C 0.4629(3) 0.61549(19) 0.0424(2)
H8 H 0.5303 0.6276 0.0015
C9 C 0.3364(3) 0.6513(2) 0.0253(3)
H9 H 0.3039 0.6906 -0.0278
C10 C 0.2697(3) 0.61725(19) 0.1017(3)
H10 H 0.1820 0.6288 0.1113
O1 O 0.7576(2) 0.39586(13) 0.22742(16)
O2 O 0.8301(2) 0.44852(15) 0.38826(18)
O3 O 1.2448(2) 0.07934(13) 0.30314(18)
O4 O 1.2212(3) 0.06686(15) 0.4753(2)
C11 C 0.8300(3) 0.39229(19) 0.3179(3)
C12 C 0.9217(3) 0.31543(18) 0.3359(2)
C13 C 0.9860(3) 0.2966(2) 0.4369(2)
H11 H 0.9715 0.3319 0.4940
C14 C 1.0712(3) 0.2265(2) 0.4540(3)
H12 H 1.1119 0.2140 0.5227
C15 C 1.0964(3) 0.17428(18) 0.3692(2)
C16 C 1.0317(3) 0.19275(19) 0.2683(2)
H13 H 1.0474 0.1582 0.2109
C17 C 0.9445(3) 0.26150(19) 0.2519(2)
H14 H 0.9003 0.2721 0.1839
C18 C 1.1944(3) 0.10036(19) 0.3865(3)
Cu1A Cu 1.37289(4) -0.01067(2) 0.29390(3)
O3A O 0.7552(2) 0.57934(13) 0.19686(18)
O5 O 0.0510(3) 0.46148(18) 0.1340(2)
H15 H -0.0186 0.4881 0.1063
H16 H 0.0966 0.4404 0.0879
O6 O 0.8938(3) 0.48496(18) 0.6043(2)
H17 H 0.8838 0.4774 0.5372
H18 H 0.9709 0.5002 0.6331
loop_
_geom_bond_atom_site_label_1
_geom_bond_atom_site_label_2
_geom_bond_site_symmetry_1
_geom_bond_site_symmetry_2
Cu1 N1 1_555 1_555
N1 N2 1_555 1_555
N2 C3 1_555 1_555
N3 Cu1 1_555 1_555
N4 N3 1_555 1_555
N5 Cu1 1_555 1_555
N6 N5 1_555 1_555
C1 N1 1_555 1_555
H1 C1 1_555 1_555
C2 C1 1_555 1_555
H2 C2 1_555 1_555
C3 C2 1_555 1_555
H3 C3 1_555 1_555
C4 N2 1_555 1_555
H4 C4 1_555 1_555
C5 N3 1_555 1_555
H5 C5 1_555 1_555
C6 C5 1_555 1_555
H6 C6 1_555 1_555
C7 N4 1_555 1_555
H7 C7 1_555 1_555
C8 N5 1_555 1_555
H8 C8 1_555 1_555
C9 C8 1_555 1_555
H9 C9 1_555 1_555
C10 N6 1_555 1_555
H10 C10 1_555 1_555
O1 Cu1 1_555 1_555
O2 C11 1_555 1_555
O3 C18 1_555 1_555
O4 C18 1_555 1_555
C11 O1 1_555 1_555
C12 C11 1_555 1_555
C13 C12 1_555 1_555
H11 C13 1_555 1_555
C14 C13 1_555 1_555
H12 C14 1_555 1_555
C15 C14 1_555 1_555
C16 C15 1_555 1_555
H13 C16 1_555 1_555
C17 C12 1_555 1_555
H14 C17 1_555 1_555
C18 C15 1_555 1_555
O5 H15 1_555 1_555
H16 O5 1_555 1_555
O6 H17 1_555 1_555
H18 O6 1_555 1_555
Cu1A O3 1_555 1_555
O3A Cu1 1_555 1_555
N4 C4 1_555 1_555
N6 C4 1_555 1_555
C6 C7 1_555 1_555
C9 C10 1_555 1_555
C16 C17 1_555 1_555

#END
