
#######################################################################
#
#                 Cambridge Crystallographic Data Centre
#                                CCDC 
#
#######################################################################
#
# If this CIF has been generated from an entry in the Cambridge 
# Structural Database, then it will include bibliographic, chemical, 
# crystal, experimental, refinement or atomic coordinate data resulting 
# from the CCDC's data processing and validation procedures.
#
#######################################################################

data_QETJOO
_symmetry_cell_setting           orthorhombic
_symmetry_space_group_name_H-M   'P 21 21 21'
_symmetry_Int_Tables_number      19
_space_group_name_Hall           'P 2ac 2ab'
loop_
_symmetry_equiv_pos_site_id
_symmetry_equiv_pos_as_xyz
1 x,y,z
2 1/2-x,-y,1/2+z
3 1/2+x,1/2-y,-z
4 -x,1/2+y,1/2-z
_cell_length_a                   11.721(1)
_cell_length_b                   16.797(2)
_cell_length_c                   7.875(2)
_cell_angle_alpha                90
_cell_angle_beta                 90
_cell_angle_gamma                90
_cell_volume                     1550.41
loop_
_atom_site_label
_atom_site_type_symbol
_atom_site_fract_x
_atom_site_fract_y
_atom_site_fract_z
Mn1 Mn 0.75250(4) 0.50238(3) 0.73228(4)
O1 O 0.9153(2) 0.5175(1) 0.7334(3)
O2 O 0.7584(2) 0.6170(1) 0.7352(3)
N1 N 0.7242(2) 0.4812(2) 0.5495(3)
N2 N 0.7740(2) 0.3905(1) 0.8119(3)
N3 N 0.5916(2) 0.5064(2) 0.8125(3)
C1 C 0.9924(3) 0.4775(2) 0.8172(4)
C2 C 1.1037(3) 0.5090(2) 0.8277(5)
C3 C 1.1865(3) 0.4713(3) 0.9221(7)
C4 C 1.1662(3) 0.4005(3) 1.0056(7)
C5 C 1.0592(3) 0.3677(2) 0.9927(6)
C6 C 0.9719(3) 0.4042(2) 0.8997(4)
C7 C 0.8648(3) 0.3635(2) 0.8820(5)
C8 C 0.6794(3) 0.3334(2) 0.7898(5)
C9 C 0.5698(3) 0.3621(2) 0.8720(5)
C10 C 0.5203(3) 0.4349(2) 0.7890(5)
C11 C 0.5445(3) 0.5669(2) 0.8831(4)
C12 C 0.5920(3) 0.6449(2) 0.9030(5)
C13 C 0.5310(3) 0.7019(2) 0.9970(5)
C14 C 0.5681(4) 0.7784(2) 1.0129(5)
C15 C 0.6673(4) 0.8008(2) 0.9293(6)
C16 C 0.7290(3) 0.7469(2) 0.8325(5)
C17 C 0.6945(3) 0.6665(2) 0.8208(4)
H1 H 1.1240 0.5590 0.7716
H2 H 1.2606 0.4965 0.9305
H3 H 1.2266 0.3725 1.0745
H4 H 1.0403 0.3193 1.0545
H5 H 0.8612 0.3092 0.9262
H6 H 0.7027 0.2832 0.8417
H7 H 0.6690 0.3248 0.6707
H8 H 0.5119 0.3199 0.8620
H9 H 0.5809 0.3729 0.9896
H10 H 0.5131 0.4260 0.6689
H11 H 0.4460 0.4463 0.8356
H12 H 0.4685 0.5586 0.9274
H13 H 0.4611 0.6860 1.0540
H14 H 0.5289 0.8171 1.0773
H15 H 0.6918 0.8549 0.9385
H16 H 0.7963 0.7656 0.7706
Mn1A Mn 0.74750(4) 0.49762(3) 0.23228(4)
N1A N 0.7758(2) 0.5188(2) 1.0495(3)
loop_
_geom_bond_atom_site_label_1
_geom_bond_atom_site_label_2
_geom_bond_site_symmetry_1
_geom_bond_site_symmetry_2
Mn1 O1 1_555 1_555
O1 C1 1_555 1_555
O2 Mn1 1_555 1_555
N1 Mn1 1_555 1_555
N2 Mn1 1_555 1_555
N3 Mn1 1_555 1_555
C1 C2 1_555 1_555
C2 C3 1_555 1_555
C3 C4 1_555 1_555
C4 C5 1_555 1_555
C5 C6 1_555 1_555
C6 C1 1_555 1_555
C7 N2 1_555 1_555
C8 N2 1_555 1_555
C9 C8 1_555 1_555
C10 N3 1_555 1_555
C11 N3 1_555 1_555
C12 C11 1_555 1_555
C13 C12 1_555 1_555
C14 C13 1_555 1_555
C15 C14 1_555 1_555
C16 C15 1_555 1_555
C17 O2 1_555 1_555
H1 C2 1_555 1_555
H2 C3 1_555 1_555
H3 C4 1_555 1_555
H4 C5 1_555 1_555
H5 C7 1_555 1_555
H6 C8 1_555 1_555
H7 C8 1_555 1_555
H8 C9 1_555 1_555
H9 C9 1_555 1_555
H10 C10 1_555 1_555
H11 C10 1_555 1_555
H12 C11 1_555 1_555
H13 C13 1_555 1_555
H14 C14 1_555 1_555
H15 C15 1_555 1_555
H16 C16 1_555 1_555
Mn1A N1 1_555 1_555
N1A Mn1 1_555 1_555
C6 C7 1_555 1_555
C9 C10 1_555 1_555
C12 C17 1_555 1_555
C16 C17 1_555 1_555

#END
