
#######################################################################
#
#                 Cambridge Crystallographic Data Centre
#                                CCDC 
#
#######################################################################
#
# If this CIF has been generated from an entry in the Cambridge 
# Structural Database, then it will include bibliographic, chemical, 
# crystal, experimental, refinement or atomic coordinate data resulting 
# from the CCDC's data processing and validation procedures.
#
#######################################################################

data_QETMAE
_symmetry_cell_setting           monoclinic
_symmetry_space_group_name_H-M   'C 2/c'
_symmetry_Int_Tables_number      15
_space_group_name_Hall           '-C 2yn'
loop_
_symmetry_equiv_pos_site_id
_symmetry_equiv_pos_as_xyz
1 x,y,z
2 1/2+x,1/2+y,z
3 -x,y,1/2-z
4 1/2-x,1/2+y,1/2-z
5 -x,-y,-z
6 1/2-x,1/2-y,-z
7 x,-y,1/2+z
8 1/2+x,1/2-y,1/2+z
_cell_length_a                   27.6489(9)
_cell_length_b                   11.5053(4)
_cell_length_c                   13.1287(5)
_cell_angle_alpha                90
_cell_angle_beta                 102.525(2)
_cell_angle_gamma                90
_cell_volume                     4076.97
loop_
_atom_site_label
_atom_site_type_symbol
_atom_site_fract_x
_atom_site_fract_y
_atom_site_fract_z
Fe1 Fe 0.626070(7) 0.336650(18) 0.301490(15)
Co1 Co 0.5000 0.5000 0.5000
B1 B 0.67712(8) 0.09852(18) 0.30036(18)
O1 O 0.50986(5) 0.65456(12) 0.42526(12)
N1 N 0.66070(5) 0.24892(12) 0.42491(10)
N2 N 0.68247(6) 0.14525(13) 0.41151(13)
N3 N 0.59407(5) 0.19084(11) 0.24298(10)
N4 N 0.62122(5) 0.09137(12) 0.25107(12)
N5 N 0.68054(4) 0.29878(12) 0.23080(10)
N6 N 0.69910(5) 0.18896(13) 0.23836(11)
N7 N 0.43569(5) 0.46215(13) 0.38752(11)
N8 N 0.67405(6) 0.56451(16) 0.39217(15)
N9 N 0.54444(5) 0.41095(12) 0.41242(10)
C1 C 0.67010(7) 0.26965(19) 0.52718(14)
H1 H 0.6593 0.3344 0.5585
C2 C 0.69840(9) 0.1798(2) 0.57971(18)
H2 H 0.7103 0.1732 0.6514
C3 C 0.70522(8) 0.1036(2) 0.50557(18)
H3 H 0.7227 0.0341 0.5176
C4 C 0.54863(7) 0.16487(16) 0.18971(15)
H4 H 0.5226 0.2174 0.1727
C5 C 0.54597(8) 0.04815(19) 0.16333(19)
H5 H 0.5186 0.0077 0.1265
C6 C 0.59231(9) 0.00547(17) 0.20330(19)
H6 H 0.6022 -0.0712 0.1981
C7 C 0.70373(6) 0.35770(17) 0.16850(13)
H7 H 0.6977 0.4351 0.1493
C8 C 0.73806(7) 0.2870(2) 0.13636(15)
H8 H 0.7593 0.3070 0.0931
C9 C 0.73411(7) 0.1816(2) 0.18169(16)
H9 H 0.7526 0.1157 0.1746
C10 C 0.57379(5) 0.37981(13) 0.36960(12)
C11 C 0.41028(5) 0.41959(13) 0.31693(12)
C12 C 0.65676(6) 0.47940(15) 0.35697(14)
C13 C 0.47307(11) 0.7302(3) 0.3779(3)
H10 H 0.4710 0.7304 0.3040
H11 H 0.4807 0.8072 0.4050
H12 H 0.4419 0.7058 0.3919
H16 H 0.6958(7) 0.0165(17) 0.3041(15)
H17 H 0.5349(8) 0.6702(17) 0.4241(17)
Fe1D Fe 0.373930(7) 0.663350(18) 0.698510(15)
Fe1B Fe 0.373930(7) 0.336650(18) 0.198510(15)
Fe1F Fe 0.626070(7) 0.663350(18) 0.801490(15)
B1D B 0.32288(8) 0.90148(18) 0.69964(18)
O1D O 0.49014(5) 0.34544(12) 0.57474(12)
N1D N 0.33930(5) 0.75108(12) 0.57509(10)
N2D N 0.31753(6) 0.85475(13) 0.58849(13)
N3D N 0.40593(5) 0.80916(11) 0.75702(10)
N4D N 0.37878(5) 0.90863(12) 0.74893(12)
N5D N 0.31946(4) 0.70122(12) 0.76920(10)
N6D N 0.30090(5) 0.81104(13) 0.76164(11)
N7D N 0.56431(5) 0.53785(13) 0.61248(11)
N8D N 0.32595(6) 0.43549(16) 0.60783(15)
N9D N 0.45556(5) 0.58905(12) 0.58758(10)
C1D C 0.32990(7) 0.73035(19) 0.47282(14)
H1D H 0.3407 0.6656 0.4415
C2D C 0.30160(9) 0.8202(2) 0.42029(18)
H2D H 0.2897 0.8268 0.3486
C3D C 0.29478(8) 0.8964(2) 0.49443(18)
H3D H 0.2773 0.9659 0.4824
C4D C 0.45137(7) 0.83513(16) 0.81029(15)
H4D H 0.4774 0.7826 0.8273
C5D C 0.45403(8) 0.95185(19) 0.83667(19)
H5D H 0.4814 0.9923 0.8735
C6D C 0.40769(9) 0.99453(17) 0.79670(19)
H6D H 0.3978 1.0712 0.8019
C7D C 0.29627(6) 0.64230(17) 0.83150(13)
H7D H 0.3023 0.5649 0.8507
C8D C 0.26194(7) 0.7130(2) 0.86364(15)
H8D H 0.2407 0.6930 0.9069
C9D C 0.26589(7) 0.8184(2) 0.81831(16)
H9D H 0.2474 0.8843 0.8254
C10D C 0.42621(5) 0.62019(13) 0.63040(12)
C11D C 0.58972(5) 0.58041(13) 0.68307(12)
C11B C 0.58972(5) 0.41959(13) 0.18307(12)
C11F C 0.41028(5) 0.58041(13) 0.81693(12)
C12D C 0.34324(6) 0.52060(15) 0.64303(14)
C13D C 0.52693(11) 0.2698(3) 0.6221(3)
H10D H 0.5290 0.2696 0.6960
H11D H 0.5193 0.1928 0.5950
H12D H 0.5581 0.2942 0.6081
H16D H 0.3042(7) 0.9835(17) 0.6959(15)
H17D H 0.4651(8) 0.3298(17) 0.5759(17)
O2 O 0.59689(7) 0.73827(18) 0.39465(18)
C14 C 0.61745(11) 0.8290(2) 0.4599(2)
H13 H 0.6232 0.8039 0.5312
H14 H 0.5951 0.8938 0.4498
H15 H 0.6483 0.8519 0.4436
H18 H 0.6209(16) 0.689(3) 0.397(3)
loop_
_geom_bond_atom_site_label_1
_geom_bond_atom_site_label_2
_geom_bond_site_symmetry_1
_geom_bond_site_symmetry_2
Fe1 N1 1_555 1_555
Co1 O1 1_555 1_555
B1 N2 1_555 1_555
O1 C13 1_555 1_555
O2 C14 1_555 1_555
N1 N2 1_555 1_555
N2 C3 1_555 1_555
N3 Fe1 1_555 1_555
N4 B1 1_555 1_555
N5 Fe1 1_555 1_555
N6 B1 1_555 1_555
N7 Co1 1_555 1_555
N8 C12 1_555 1_555
N9 Co1 1_555 1_555
C1 N1 1_555 1_555
H1 C1 1_555 1_555
C2 C1 1_555 1_555
H2 C2 1_555 1_555
C3 C2 1_555 1_555
H3 C3 1_555 1_555
C4 N3 1_555 1_555
H4 C4 1_555 1_555
C5 C4 1_555 1_555
H5 C5 1_555 1_555
C6 N4 1_555 1_555
H6 C6 1_555 1_555
C7 N5 1_555 1_555
H7 C7 1_555 1_555
C8 C7 1_555 1_555
H8 C8 1_555 1_555
C9 N6 1_555 1_555
H9 C9 1_555 1_555
C10 Fe1 1_555 1_555
C11 N7 1_555 1_555
C12 Fe1 1_555 1_555
C13 H10 1_555 1_555
H11 C13 1_555 1_555
H12 C13 1_555 1_555
C14 H13 1_555 1_555
H14 C14 1_555 1_555
H15 C14 1_555 1_555
H16 B1 1_555 1_555
H17 O1 1_555 1_555
H18 O2 1_555 1_555
Fe1D N1D 1_555 1_555
Fe1B C11 1_555 1_555
Fe1F C11D 1_555 1_555
B1D N2D 1_555 1_555
O1D Co1 1_555 1_555
N1D N2D 1_555 1_555
N2D C3D 1_555 1_555
N3D Fe1D 1_555 1_555
N4D B1D 1_555 1_555
N5D Fe1D 1_555 1_555
N6D B1D 1_555 1_555
N7D Co1 1_555 1_555
N8D C12D 1_555 1_555
N9D Co1 1_555 1_555
C1D N1D 1_555 1_555
H1D C1D 1_555 1_555
C2D C1D 1_555 1_555
H2D C2D 1_555 1_555
C3D C2D 1_555 1_555
H3D C3D 1_555 1_555
C4D N3D 1_555 1_555
H4D C4D 1_555 1_555
C5D C4D 1_555 1_555
H5D C5D 1_555 1_555
C6D N4D 1_555 1_555
H6D C6D 1_555 1_555
C7D N5D 1_555 1_555
H7D C7D 1_555 1_555
C8D C7D 1_555 1_555
H8D C8D 1_555 1_555
C9D N6D 1_555 1_555
H9D C9D 1_555 1_555
C10D Fe1D 1_555 1_555
C11D N7D 1_555 1_555
C11B Fe1 1_555 1_555
C11F Fe1D 1_555 1_555
C12D Fe1D 1_555 1_555
C13D O1D 1_555 1_555
H10D C13D 1_555 1_555
H11D C13D 1_555 1_555
H12D C13D 1_555 1_555
H16D B1D 1_555 1_555
H17D O1D 1_555 1_555
N3 N4 1_555 1_555
N5 N6 1_555 1_555
N9 C10 1_555 1_555
C5 C6 1_555 1_555
C8 C9 1_555 1_555
N3D N4D 1_555 1_555
N5D N6D 1_555 1_555
N9D C10D 1_555 1_555
C5D C6D 1_555 1_555
C8D C9D 1_555 1_555

#END
