
#######################################################################
#
#                 Cambridge Crystallographic Data Centre
#                                CCDC 
#
#######################################################################
#
# If this CIF has been generated from an entry in the Cambridge 
# Structural Database, then it will include bibliographic, chemical, 
# crystal, experimental, refinement or atomic coordinate data resulting 
# from the CCDC's data processing and validation procedures.
#
#######################################################################

data_QETMIM
_symmetry_cell_setting           monoclinic
_symmetry_space_group_name_H-M   'P 21/c'
_symmetry_Int_Tables_number      14
_space_group_name_Hall           '-P 2ybc'
loop_
_symmetry_equiv_pos_site_id
_symmetry_equiv_pos_as_xyz
1 x,y,z
2 -x,1/2+y,1/2-z
3 -x,-y,-z
4 x,1/2-y,1/2+z
_cell_length_a                   15.249(3)
_cell_length_b                   20.201(4)
_cell_length_c                   13.488(2)
_cell_angle_alpha                90
_cell_angle_beta                 99.509(3)
_cell_angle_gamma                90
_cell_volume                     4097.82
loop_
_atom_site_label
_atom_site_type_symbol
_atom_site_fract_x
_atom_site_fract_y
_atom_site_fract_z
Cu1 Cu 0.25105(3) 0.72270(2) 0.89547(3)
Fe1 Fe 0.01511(3) 0.79267(3) 0.61145(4)
Fe2 Fe 0.46341(3) 0.66170(3) 1.20715(4)
B1 B -0.1819(3) 0.7529(3) 0.5507(4)
H1 H -0.2561 0.7483 0.5273
B2 B 0.5327(4) 0.5212(3) 1.2670(4)
H2 H 0.5533 0.4674 1.2913
C1 C -0.0868(3) 0.8423(2) 0.7746(3)
H3 H -0.0383 0.8597 0.8175
C2 C -0.1726(3) 0.8462(3) 0.7906(3)
H4 H -0.1934 0.8666 0.8441
C3 C -0.2209(3) 0.8142(2) 0.7116(4)
H5 H -0.2822 0.8082 0.7017
C4 C 0.0074(3) 0.6434(2) 0.5912(4)
H6 H 0.0684 0.6361 0.6051
C5 C -0.0572(4) 0.5939(3) 0.5688(4)
H7 H -0.0486 0.5484 0.5658
C6 C -0.1359(4) 0.6281(2) 0.5523(4)
H8 H -0.1918 0.6090 0.5348
C7 C -0.0524(3) 0.8521(2) 0.4045(3)
H9 H 0.0004 0.8725 0.3956
C8 C -0.1304(3) 0.8512(3) 0.3349(3)
H10 H -0.1396 0.8697 0.2709
C9 C -0.1904(3) 0.8177(2) 0.3797(3)
H11 H -0.2495 0.8102 0.3516
C10 C 0.1004(2) 0.7663(2) 0.7263(3)
C11 C 0.0591(2) 0.8801(2) 0.6361(3)
C12 C 0.1100(2) 0.7207(2) 1.0373(3)
C13 C 0.3019(3) 0.5696(2) 1.2031(3)
H12 H 0.2575 0.6008 1.1837
C14 C 0.2878(4) 0.5044(3) 1.2217(4)
H13 H 0.2332 0.4831 1.2177
C15 C 0.3686(4) 0.4773(3) 1.2468(3)
H14 H 0.3793 0.4331 1.2640
C16 C 0.5602(3) 0.6676(2) 1.4227(3)
H15 H 0.5517 0.7124 1.4337
C17 C 0.6011(4) 0.6226(3) 1.4938(4)
H16 H 0.6233 0.6314 1.5609
C18 C 0.6024(4) 0.5644(3) 1.4468(4)
H17 H 0.6275 0.5254 1.4753
C19 C 0.5717(3) 0.6147(2) 1.0508(3)
H18 H 0.5642 0.6521 1.0102
C20 C 0.6162(3) 0.5580(3) 1.0305(3)
H19 H 0.6439 0.5500 0.9752
C21 C 0.6108(3) 0.5163(2) 1.1088(3)
H20 H 0.6342 0.4737 1.1161
C22 C 0.3911(2) 0.6858(2) 1.0826(3)
C23 C 0.5350(3) 0.7412(3) 1.2030(3)
C24 C 0.3864(2) 0.7863(2) 0.7756(3)
C25 C 0.1041(3) 0.5187(2) 0.7852(3)
H21 H 0.1003 0.5607 0.7515
H22 H 0.0453 0.5028 0.7885
H23 H 0.1342 0.4876 0.7489
C26 C 0.1392(3) 0.4750(2) 0.9569(3)
H24 H 0.1530 0.4921 1.0241
H25 H 0.1771 0.4380 0.9496
H26 H 0.0782 0.4610 0.9438
C27 C 0.2038(3) 0.5771(2) 0.9106(3)
H27 H 0.2279 0.5820 0.9782
N1 N -0.0814(2) 0.81003(17) 0.6893(2)
N2 N -0.16661(19) 0.79250(17) 0.6502(2)
N3 N -0.0311(2) 0.70234(16) 0.5897(2)
N4 N -0.1205(2) 0.69242(17) 0.5652(2)
N5 N -0.06571(19) 0.81863(17) 0.4866(2)
N6 N -0.1507(2) 0.79707(18) 0.4717(2)
N7 N 0.1557(2) 0.75227(18) 0.7909(2)
N8 N 0.0861(2) 0.93311(18) 0.6516(2)
N9 N 0.1662(2) 0.72653(16) 0.9927(2)
N10 N 0.3899(2) 0.58177(18) 1.2171(2)
N11 N 0.4314(3) 0.52278(18) 1.2436(3)
N12 N 0.5351(2) 0.63537(17) 1.3359(2)
N13 N 0.5610(2) 0.57184(19) 1.3506(2)
N14 N 0.5412(2) 0.6077(2) 1.1368(2)
N15 N 0.5662(2) 0.5467(2) 1.1731(3)
N16 N 0.3457(2) 0.69921(19) 1.0086(2)
N17 N 0.5792(2) 0.7858(2) 1.2063(3)
N18 N 0.3399(2) 0.75776(17) 0.8172(2)
N19 N 0.1531(3) 0.52632(18) 0.8861(3)
O1 O 0.2232(2) 0.61984(14) 0.8521(2)
Fe1C Fe 0.01511(3) 0.70733(3) 1.11145(4)
Fe2C Fe 0.46341(3) 0.83830(3) 0.70715(4)
C12C C 0.1100(2) 0.7793(2) 0.5373(3)
C24C C 0.3864(2) 0.7137(2) 1.2756(3)
C28 C 0.6839(3) 0.3574(2) 0.3763(3)
H28 H 0.7251 0.3217 0.3742
H29 H 0.6717 0.3783 0.3115
H30 H 0.6295 0.3404 0.3935
C29 C 0.7370(3) 0.4037(2) 0.5430(3)
H31 H 0.6926 0.4289 0.5692
H32 H 0.7946 0.4224 0.5664
H33 H 0.7358 0.3587 0.5656
C30 C 0.7687(2) 0.4537(2) 0.3986(3)
H34 H 0.7579 0.4601 0.3294
N20 N 0.7218(2) 0.4052(2) 0.4507(3)
O2 O 0.8194(2) 0.48234(15) 0.4517(2)
loop_
_geom_bond_atom_site_label_1
_geom_bond_atom_site_label_2
_geom_bond_site_symmetry_1
_geom_bond_site_symmetry_2
Cu1 N7 1_555 1_555
Fe1 C10 1_555 1_555
Fe2 C22 1_555 1_555
B1 H1 1_555 1_555
B2 H2 1_555 1_555
C1 H3 1_555 1_555
C2 C1 1_555 1_555
H4 C2 1_555 1_555
C3 C2 1_555 1_555
H5 C3 1_555 1_555
C4 H6 1_555 1_555
C5 C4 1_555 1_555
H7 C5 1_555 1_555
C6 C5 1_555 1_555
H8 C6 1_555 1_555
C7 H9 1_555 1_555
C8 C7 1_555 1_555
H10 C8 1_555 1_555
C9 C8 1_555 1_555
H11 C9 1_555 1_555
C10 N7 1_555 1_555
C11 Fe1 1_555 1_555
C12 N9 1_555 1_555
C13 H12 1_555 1_555
C14 C13 1_555 1_555
H13 C14 1_555 1_555
C15 C14 1_555 1_555
H14 C15 1_555 1_555
C16 H15 1_555 1_555
C17 C16 1_555 1_555
H16 C17 1_555 1_555
C18 C17 1_555 1_555
H17 C18 1_555 1_555
C19 H18 1_555 1_555
C20 C19 1_555 1_555
H19 C20 1_555 1_555
C21 C20 1_555 1_555
H20 C21 1_555 1_555
C22 N16 1_555 1_555
C23 Fe2 1_555 1_555
C24 N18 1_555 1_555
C25 H21 1_555 1_555
H22 C25 1_555 1_555
H23 C25 1_555 1_555
C26 H24 1_555 1_555
H25 C26 1_555 1_555
H26 C26 1_555 1_555
C27 H27 1_555 1_555
C28 H28 1_555 1_555
H29 C28 1_555 1_555
H30 C28 1_555 1_555
C29 H31 1_555 1_555
H32 C29 1_555 1_555
H33 C29 1_555 1_555
C30 H34 1_555 1_555
N1 Fe1 1_555 1_555
N2 B1 1_555 1_555
N3 Fe1 1_555 1_555
N4 B1 1_555 1_555
N5 Fe1 1_555 1_555
N6 B1 1_555 1_555
N8 C11 1_555 1_555
N9 Cu1 1_555 1_555
N10 Fe2 1_555 1_555
N11 B2 1_555 1_555
N12 Fe2 1_555 1_555
N13 B2 1_555 1_555
N14 Fe2 1_555 1_555
N15 B2 1_555 1_555
N16 Cu1 1_555 1_555
N17 C23 1_555 1_555
N18 Cu1 1_555 1_555
N19 C25 1_555 1_555
N20 C28 1_555 1_555
O1 Cu1 1_555 1_555
O2 C30 1_555 1_555
Fe1C C12 1_555 1_555
Fe2C C24 1_555 1_555
C12C Fe1 1_555 1_555
C24C Fe2 1_555 1_555
C1 N1 1_555 1_555
C3 N2 1_555 1_555
C4 N3 1_555 1_555
C6 N4 1_555 1_555
C7 N5 1_555 1_555
C9 N6 1_555 1_555
C13 N10 1_555 1_555
C15 N11 1_555 1_555
C16 N12 1_555 1_555
C18 N13 1_555 1_555
C19 N14 1_555 1_555
C21 N15 1_555 1_555
C26 N19 1_555 1_555
C27 N19 1_555 1_555
C27 O1 1_555 1_555
C29 N20 1_555 1_555
C30 N20 1_555 1_555
N1 N2 1_555 1_555
N3 N4 1_555 1_555
N5 N6 1_555 1_555
N10 N11 1_555 1_555
N12 N13 1_555 1_555
N14 N15 1_555 1_555

#END
