
#######################################################################
#
#                 Cambridge Crystallographic Data Centre
#                                CCDC 
#
#######################################################################
#
# If this CIF has been generated from an entry in the Cambridge 
# Structural Database, then it will include bibliographic, chemical, 
# crystal, experimental, refinement or atomic coordinate data resulting 
# from the CCDC's data processing and validation procedures.
#
#######################################################################

data_QETMEI
_symmetry_cell_setting           monoclinic
_symmetry_space_group_name_H-M   'C 2/c'
_symmetry_Int_Tables_number      15
_space_group_name_Hall           '-C 2yn'
loop_
_symmetry_equiv_pos_site_id
_symmetry_equiv_pos_as_xyz
1 x,y,z
2 1/2+x,1/2+y,z
3 -x,y,1/2-z
4 1/2-x,1/2+y,1/2-z
5 -x,-y,-z
6 1/2-x,1/2-y,-z
7 x,-y,1/2+z
8 1/2+x,1/2-y,1/2+z
_cell_length_a                   27.427(3)
_cell_length_b                   11.3692(11)
_cell_length_c                   13.0941(14)
_cell_angle_alpha                90
_cell_angle_beta                 102.767(4)
_cell_angle_gamma                90
_cell_volume                     3982.1
loop_
_atom_site_label
_atom_site_type_symbol
_atom_site_fract_x
_atom_site_fract_y
_atom_site_fract_z
Ni1 Ni 1.0000 0.0000 0.0000
Fe1 Fe 0.874470(16) -0.16519(4) -0.30222(3)
B1 B 0.82207(13) -0.4069(3) -0.3037(3)
H1 H 0.8060 -0.4819 -0.3039
C1 C 0.82906(12) -0.2326(3) -0.5300(2)
H2 H 0.8401 -0.1669 -0.5606
C2 C 0.80050(12) -0.3210(3) -0.5847(3)
H3 H 0.7888 -0.3271 -0.6568
C3 C 0.79314(11) -0.3979(3) -0.5095(2)
H4 H 0.7747 -0.4671 -0.5220
C4 C 0.95316(12) -0.3391(3) -0.1877(3)
H5 H 0.9793 -0.2859 -0.1685
C5 C 0.95584(13) -0.4561(3) -0.1630(3)
H6 H 0.9835 -0.4972 -0.1263
C6 C 0.90877(13) -0.5001(3) -0.2041(3)
H7 H 0.8990 -0.5778 -0.1989
C7 C 0.79552(12) -0.1452(3) -0.1683(2)
H8 H 0.8010 -0.0668 -0.1488
C8 C 0.76192(12) -0.2186(3) -0.1365(2)
H9 H 0.7409 -0.1999 -0.0921
C9 C 0.76562(12) -0.3238(3) -0.1831(2)
H10 H 0.7471 -0.3908 -0.1766
C10 C 0.84260(12) -0.0199(3) -0.3581(2)
C11 C 0.91154(11) -0.0841(3) -0.1821(2)
C12 C 0.92754(12) 0.1195(3) 0.1290(3)
C13 C 0.97332(12) 0.2214(3) -0.1349(3)
H11 H 0.9440 0.2235 -0.1061
H12 H 0.9651 0.1869 -0.2034
H13 H 0.9854 0.3000 -0.1396
N1 N 0.83886(10) -0.2534(2) -0.4271(2)
N2 N 0.81666(10) -0.3580(2) -0.4143(2)
N3 N 0.90756(10) -0.3121(2) -0.2434(2)
N4 N 0.87923(10) -0.4137(2) -0.2528(2)
N5 N 0.81919(10) -0.2042(2) -0.23191(19)
N6 N 0.80011(10) -0.3148(2) -0.2393(2)
N7 N 0.82572(10) 0.0668(2) -0.3943(2)
N8 N 0.95695(10) 0.0848(2) 0.0867(2)
N9 N 0.93763(10) -0.0396(2) -0.1107(2)
O1 O 1.00869(8) 0.15716(18) -0.07282(17)
H17 H 1.0301 0.1436 -0.1093
Fe1D Fe 1.125530(16) 0.16519(4) 0.30222(3)
Fe1F Fe 0.874470(16) 0.16519(4) 0.19778(3)
Fe1B Fe 1.125530(16) -0.16519(4) -0.19778(3)
B1D B 1.17793(13) 0.4069(3) 0.3037(3)
H1D H 1.1940 0.4819 0.3039
C1D C 1.17094(12) 0.2326(3) 0.5300(2)
H2D H 1.1599 0.1669 0.5606
C2D C 1.19950(12) 0.3210(3) 0.5847(3)
H3D H 1.2112 0.3271 0.6568
C3D C 1.20686(11) 0.3979(3) 0.5095(2)
H4D H 1.2253 0.4671 0.5220
C4D C 1.04684(12) 0.3391(3) 0.1877(3)
H5D H 1.0207 0.2859 0.1685
C5D C 1.04416(13) 0.4561(3) 0.1630(3)
H6D H 1.0165 0.4972 0.1263
C6D C 1.09123(13) 0.5001(3) 0.2041(3)
H7D H 1.1010 0.5778 0.1989
C7D C 1.20448(12) 0.1452(3) 0.1683(2)
H8D H 1.1990 0.0668 0.1488
C8D C 1.23808(12) 0.2186(3) 0.1365(2)
H9D H 1.2591 0.1999 0.0921
C9D C 1.23438(12) 0.3238(3) 0.1831(2)
H10D H 1.2529 0.3908 0.1766
C10D C 1.15740(12) 0.0199(3) 0.3581(2)
C11D C 1.08846(11) 0.0841(3) 0.1821(2)
C12D C 1.07246(12) -0.1195(3) -0.1290(3)
C12F C 0.92754(12) -0.1195(3) -0.3710(3)
C12B C 1.07246(12) 0.1195(3) 0.3710(3)
C13D C 1.02668(12) -0.2214(3) 0.1349(3)
H11D H 1.0560 -0.2235 0.1061
H12D H 1.0349 -0.1869 0.2034
H13D H 1.0146 -0.3000 0.1396
N1D N 1.16114(10) 0.2534(2) 0.4271(2)
N2D N 1.18334(10) 0.3580(2) 0.4143(2)
N3D N 1.09244(10) 0.3121(2) 0.2434(2)
N4D N 1.12077(10) 0.4137(2) 0.2528(2)
N5D N 1.18081(10) 0.2042(2) 0.23191(19)
N6D N 1.19989(10) 0.3148(2) 0.2393(2)
N7D N 1.17428(10) -0.0668(2) 0.3943(2)
N8D N 1.04305(10) -0.0848(2) -0.0867(2)
N9D N 1.06237(10) 0.0396(2) 0.1107(2)
O1D O 0.99131(8) -0.15716(18) 0.07282(17)
H17D H 0.9699 -0.1436 0.1093
C14 C 0.88295(15) 0.3359(3) 0.5361(3)
H14 H 0.8791 0.4036 0.5775
H15 H 0.8510 0.3134 0.4945
H16 H 0.9051 0.3546 0.4911
O2 O 0.90311(9) 0.2419(2) 0.6029(2)
H18 H 0.8829 0.1842 0.5932
loop_
_geom_bond_atom_site_label_1
_geom_bond_atom_site_label_2
_geom_bond_site_symmetry_1
_geom_bond_site_symmetry_2
Ni1 N8 1_555 1_555
Fe1 C10 1_555 1_555
B1 H1 1_555 1_555
C1 H2 1_555 1_555
C2 C1 1_555 1_555
H3 C2 1_555 1_555
C3 C2 1_555 1_555
H4 C3 1_555 1_555
C4 H5 1_555 1_555
C5 C4 1_555 1_555
H6 C5 1_555 1_555
C6 C5 1_555 1_555
H7 C6 1_555 1_555
C7 H8 1_555 1_555
C8 C7 1_555 1_555
H9 C8 1_555 1_555
C9 C8 1_555 1_555
H10 C9 1_555 1_555
C10 N7 1_555 1_555
C11 Fe1 1_555 1_555
C12 N8 1_555 1_555
C13 H11 1_555 1_555
H12 C13 1_555 1_555
H13 C13 1_555 1_555
C14 H14 1_555 1_555
H15 C14 1_555 1_555
H16 C14 1_555 1_555
N1 Fe1 1_555 1_555
N2 B1 1_555 1_555
N3 Fe1 1_555 1_555
N4 B1 1_555 1_555
N5 Fe1 1_555 1_555
N6 B1 1_555 1_555
N9 Ni1 1_555 1_555
O1 Ni1 1_555 1_555
H17 O1 1_555 1_555
O2 C14 1_555 1_555
H18 O2 1_555 1_555
Fe1D C10D 1_555 1_555
Fe1F C12 1_555 1_555
Fe1B C12D 1_555 1_555
B1D H1D 1_555 1_555
C1D H2D 1_555 1_555
C2D C1D 1_555 1_555
H3D C2D 1_555 1_555
C3D C2D 1_555 1_555
H4D C3D 1_555 1_555
C4D H5D 1_555 1_555
C5D C4D 1_555 1_555
H6D C5D 1_555 1_555
C6D C5D 1_555 1_555
H7D C6D 1_555 1_555
C7D H8D 1_555 1_555
C8D C7D 1_555 1_555
H9D C8D 1_555 1_555
C9D C8D 1_555 1_555
H10D C9D 1_555 1_555
C10D N7D 1_555 1_555
C11D Fe1D 1_555 1_555
C12D N8D 1_555 1_555
C12F Fe1 1_555 1_555
C12B Fe1D 1_555 1_555
C13D H11D 1_555 1_555
H12D C13D 1_555 1_555
H13D C13D 1_555 1_555
N1D Fe1D 1_555 1_555
N2D B1D 1_555 1_555
N3D Fe1D 1_555 1_555
N4D B1D 1_555 1_555
N5D Fe1D 1_555 1_555
N6D B1D 1_555 1_555
N8D Ni1 1_555 1_555
N9D Ni1 1_555 1_555
O1D Ni1 1_555 1_555
H17D O1D 1_555 1_555
C1 N1 1_555 1_555
C3 N2 1_555 1_555
C4 N3 1_555 1_555
C6 N4 1_555 1_555
C7 N5 1_555 1_555
C9 N6 1_555 1_555
C11 N9 1_555 1_555
C13 O1 1_555 1_555
N1 N2 1_555 1_555
N3 N4 1_555 1_555
N5 N6 1_555 1_555
C1D N1D 1_555 1_555
C3D N2D 1_555 1_555
C4D N3D 1_555 1_555
C6D N4D 1_555 1_555
C7D N5D 1_555 1_555
C9D N6D 1_555 1_555
C11D N9D 1_555 1_555
C13D O1D 1_555 1_555
N1D N2D 1_555 1_555
N3D N4D 1_555 1_555
N5D N6D 1_555 1_555

#END
