
#######################################################################
#
#                 Cambridge Crystallographic Data Centre
#                                CCDC 
#
#######################################################################
#
# If this CIF has been generated from an entry in the Cambridge 
# Structural Database, then it will include bibliographic, chemical, 
# crystal, experimental, refinement or atomic coordinate data resulting 
# from the CCDC's data processing and validation procedures.
#
#######################################################################

data_QETSOY
_symmetry_cell_setting           monoclinic
_symmetry_space_group_name_H-M   'P 21/n'
_symmetry_Int_Tables_number      14
_space_group_name_Hall           '-P 2yn'
loop_
_symmetry_equiv_pos_site_id
_symmetry_equiv_pos_as_xyz
1 x,y,z
2 1/2-x,1/2+y,1/2-z
3 -x,-y,-z
4 1/2+x,1/2-y,1/2+z
_cell_length_a                   10.6933(15)
_cell_length_b                   7.1243(10)
_cell_length_c                   17.092(2)
_cell_angle_alpha                90
_cell_angle_beta                 97.109(2)
_cell_angle_gamma                90
_cell_volume                     1292.1
loop_
_atom_site_label
_atom_site_type_symbol
_atom_site_fract_x
_atom_site_fract_y
_atom_site_fract_z
Er1 Er 0.32259(2) 0.97986(3) 0.253428(12)
O1 O 0.4934(3) 0.7572(5) 0.31444(19)
O2 O 0.2962(3) 0.6922(5) 0.32841(18)
O3 O 0.4129(4) 0.0758(5) 0.3855(2)
O4 O 0.3537(3) 0.3096(5) 0.30689(18)
O5 O 0.1552(4) 1.0280(5) 0.3231(2)
O6 O 0.1142(3) 1.3222(4) 0.35518(19)
O7 O -0.1522(4) 1.3221(6) 0.3496(2)
O8 O -0.1488(5) 1.4561(6) 0.4670(3)
H1 H -0.1805 1.5439 0.4405
O9 O 0.5054(4) 1.1151(6) 0.2184(2)
H2 H 0.5057 1.2333 0.2117
H3 H 0.5151 1.0569 0.1762
C1 C 0.4142(5) 0.6739(7) 0.3500(3)
C2 C 0.4580(5) 0.5756(7) 0.4264(3)
C3 C 0.5069(4) 0.6907(7) 0.4883(3)
H4 H 0.5115 0.8194 0.4800
C4 C 0.4512(5) 0.3814(7) 0.4380(3)
C5 C 0.4033(5) 0.2459(7) 0.3740(3)
C6 C 0.1097(5) 1.1472(7) 0.3647(3)
C7 C 0.0472(5) 1.0725(8) 0.4330(3)
C8 C 0.0987(5) 0.9097(8) 0.4705(3)
H5 H 0.1645 0.8483 0.4503
C9 C -0.0532(5) 1.1608(7) 0.4630(3)
C10 C -0.1216(5) 1.3227(7) 0.4208(3)
Er1B Er 0.67741(2) 0.02014(3) 0.746572(12)
Er1A Er 0.17741(2) 0.47986(3) 0.246572(12)
Er1_2 Er 0.32259(2) -0.02014(3) 0.253428(12)
Er1A_2 Er 0.17741(2) 1.47986(3) 0.246572(12)
Er1C Er 0.82259(2) 0.52014(3) 0.753428(12)
Er1B_2 Er 0.67741(2) 1.02014(3) 0.746572(12)
Er1B_3 Er -0.32259(2) 1.02014(3) 0.746572(12)
Er1C_2 Er -0.17741(2) 0.52014(3) 0.753428(12)
O1B O 0.5066(3) 0.2428(5) 0.68556(19)
O2B O 0.7038(3) 0.3078(5) 0.67159(18)
O2A O 0.2038(3) 1.1922(5) 0.17159(18)
O2C O 0.7962(3) -0.1922(5) 0.82841(18)
O3B O 0.5871(4) 0.9242(5) 0.6145(2)
O3_2 O 0.4129(4) 1.0758(5) 0.3855(2)
O3B_2 O 0.5871(4) -0.0758(5) 0.6145(2)
O4B O 0.6463(3) 0.6904(5) 0.69311(18)
O4_2 O 0.3537(3) 1.3096(5) 0.30689(18)
O4A O 0.1463(3) 0.8096(5) 0.19311(18)
O4C O 0.8537(3) 0.1904(5) 0.80689(18)
O4B_2 O 0.6463(3) -0.3096(5) 0.69311(18)
O5B O -0.1552(4) 0.9720(5) 0.6769(2)
O5B_2 O 0.8448(4) -0.0280(5) 0.6769(2)
O6B O -0.1142(3) 0.6778(4) 0.64482(19)
O6A O 0.3858(3) 0.8222(4) 0.14482(19)
O6C O 0.6142(3) 0.1778(4) 0.85518(19)
O7B O 0.1522(4) 0.6779(6) 0.6504(2)
O8B O 0.1488(5) 0.5439(6) 0.5330(3)
H1B H 0.1805 0.4561 0.5595
O9B O 0.4946(4) -0.1151(6) 0.7816(2)
H2B H 0.4943 -0.2333 0.7883
H3B H 0.4849 -0.0569 0.8238
C1B C 0.5858(5) 0.3261(7) 0.6500(3)
C2B C 0.5420(5) 0.4244(7) 0.5736(3)
C3B C 0.4931(4) 0.3093(7) 0.5117(3)
H4B H 0.4885 0.1806 0.5200
C4B C 0.5488(5) 0.6186(7) 0.5620(3)
C5B C 0.5967(5) 0.7541(7) 0.6260(3)
C6B C -0.1097(5) 0.8528(7) 0.6353(3)
C7B C -0.0472(5) 0.9275(8) 0.5670(3)
C8B C -0.0987(5) 1.0903(8) 0.5295(3)
H5B H -0.1645 1.1517 0.5497
C9B C 0.0532(5) 0.8392(7) 0.5370(3)
C10B C 0.1216(5) 0.6773(7) 0.5792(3)
O10 O 0.6461(4) 0.4388(7) 0.2347(3)
H6 H 0.7141 0.4130 0.2640
H7 H 0.6652 0.5202 0.2018
O11 O 0.7522(4) 0.2460(7) 0.1127(3)
H8 H 0.7171 0.3257 0.1399
H9 H 0.8303 0.2521 0.1295
loop_
_geom_bond_atom_site_label_1
_geom_bond_atom_site_label_2
_geom_bond_site_symmetry_1
_geom_bond_site_symmetry_2
Er1 O1 1_555 1_555
O1 C1 1_555 1_555
O2 Er1 1_555 1_555
O3 C5 1_555 1_555
O4 C5 1_555 1_555
O5 Er1 1_555 1_555
O6 C6 1_555 1_555
O7 C10 1_555 1_555
O8 H1 1_555 1_555
O9 Er1 1_555 1_555
H2 O9 1_555 1_555
H3 O9 1_555 1_555
C1 O2 1_555 1_555
C2 C1 1_555 1_555
C3 C2 1_555 1_555
H4 C3 1_555 1_555
C4 C2 1_555 1_555
C5 C4 1_555 1_555
C6 O5 1_555 1_555
C7 C6 1_555 1_555
C8 C7 1_555 1_555
H5 C8 1_555 1_555
C9 C7 1_555 1_555
C10 O8 1_555 1_555
O10 H6 1_555 1_555
H7 O10 1_555 1_555
O11 H8 1_555 1_555
H9 O11 1_555 1_555
Er1B O1B 1_555 1_555
Er1A O2 1_555 1_555
Er1_2 O3 1_555 1_555
Er1A_2 O6 1_555 1_555
Er1C O2B 1_555 1_555
Er1B_2 O3B 1_555 1_555
Er1B_3 O5B 1_555 1_555
Er1C_2 O6B 1_555 1_555
O1B C1B 1_555 1_555
O2B Er1B 1_555 1_555
O2A Er1 1_555 1_555
O2C Er1B 1_555 1_555
O3B C5B 1_555 1_555
O3_2 Er1 1_555 1_555
O3B_2 Er1B 1_555 1_555
O4B Er1C 1_555 1_555
O4_2 Er1 1_555 1_555
O4A Er1 1_555 1_555
O4C Er1B 1_555 1_555
O4B_2 Er1B 1_555 1_555
O5B C6B 1_555 1_555
O5B_2 Er1B 1_555 1_555
O6B C6B 1_555 1_555
O6A Er1 1_555 1_555
O6C Er1B 1_555 1_555
O7B C10B 1_555 1_555
O8B H1B 1_555 1_555
O9B Er1B 1_555 1_555
H2B O9B 1_555 1_555
H3B O9B 1_555 1_555
C1B O2B 1_555 1_555
C2B C1B 1_555 1_555
C3B C4 1_555 1_555
H4B C3B 1_555 1_555
C4B C3 1_555 1_555
C5B O4B 1_555 1_555
C6B C7B 1_555 1_555
C7B C8B 1_555 1_555
C8B C9 1_555 1_555
H5B C8B 1_555 1_555
C9B C8 1_555 1_555
C10B O8B 1_555 1_555
O4 Er1A 1_555 1_555
O4 Er1_2 1_555 1_555
C9 C10 1_555 1_555
Er1A O4A 1_555 1_555
Er1A_2 O2A 1_555 1_555
Er1A_2 O4_2 1_555 1_555
Er1C O4C 1_555 1_555
Er1B_2 O4B 1_555 1_555
C2B C3B 1_555 1_555
C2B C4B 1_555 1_555
C4B C5B 1_555 1_555
C7B C9B 1_555 1_555
C9B C10B 1_555 1_555

#END
