
#######################################################################
#
#                 Cambridge Crystallographic Data Centre
#                                CCDC 
#
#######################################################################
#
# If this CIF has been generated from an entry in the Cambridge 
# Structural Database, then it will include bibliographic, chemical, 
# crystal, experimental, refinement or atomic coordinate data resulting 
# from the CCDC's data processing and validation procedures.
#
#######################################################################

data_QETSOY01
_symmetry_cell_setting           monoclinic
_symmetry_space_group_name_H-M   'P 21/c'
_symmetry_Int_Tables_number      14
_space_group_name_Hall           '-P 2ybc'
loop_
_symmetry_equiv_pos_site_id
_symmetry_equiv_pos_as_xyz
1 x,y,z
2 -x,1/2+y,1/2-z
3 -x,-y,-z
4 x,1/2-y,1/2+z
_cell_length_a                   10.702(3)
_cell_length_b                   7.135(2)
_cell_length_c                   19.019(4)
_cell_angle_alpha                90
_cell_angle_beta                 116.788(12)
_cell_angle_gamma                90
_cell_volume                     1296.41
loop_
_atom_site_label
_atom_site_type_symbol
_atom_site_fract_x
_atom_site_fract_y
_atom_site_fract_z
O1 O 0.4724(8) -0.4247(9) 0.8854(4)
O2 O 0.4523(6) -0.1904(9) 0.8068(3)
Er1 Er 0.43082(4) 0.47958(5) 0.75337(2)
O3 O 1.1166(10) 0.9579(11) 0.9674(5)
H1 H 1.1276 1.0415 0.9411
C1 C 0.8843(9) 0.5719(13) 0.9332(5)
C2 C 0.4664(10) 0.0743(13) 0.9261(5)
C3 C 0.4860(10) -0.1166(13) 0.9377(5)
C4 C 0.4362(10) 0.1746(12) 0.8503(5)
O4 O 1.0016(8) 0.8226(11) 0.8496(4)
O5 O 0.2123(8) 0.6175(11) 0.7183(5)
H2 H 0.2884 0.6753 0.7456
H3 H 0.2296 0.5251 0.6959
C5 C 1.1259(9) 0.5892(14) 1.0302(5)
H4 H 1.2105 0.6536 1.0517
C6 C 0.4811(10) 0.1906(13) 0.9879(5)
H5 H 0.4688 0.3192 0.9797
C7 C 1.0164(10) 0.6609(13) 0.9627(5)
C8 C 0.4708(10) -0.2539(13) 0.8746(5)
C9 C 1.0425(10) 0.8231(13) 0.9209(5)
C10 C 0.7540(9) 0.6486(13) 0.8650(5)
O6 O 0.6680(8) 0.5280(9) 0.8228(4)
O7 O 0.7404(6) 0.8212(9) 0.8553(3)
O8 O 0.3225(7) 0.2555(9) 0.8146(4)
O9 O 0.5332(7) 0.1915(8) 0.8284(3)
O1B O 0.5276(8) 0.4247(9) 1.1146(4)
O2B O 0.5477(6) 0.1904(9) 1.1932(3)
C2B C 0.5336(10) -0.0743(13) 1.0739(5)
C3B C 0.5140(10) 0.1166(13) 1.0623(5)
C4B C 0.5638(10) -0.1746(12) 1.1497(5)
C6B C 0.5189(10) -0.1906(13) 1.0121(5)
H5B H 0.5312 -0.3192 1.0203
C8B C 0.5292(10) 0.2539(13) 1.1254(5)
O8B O 0.6775(7) -0.2555(9) 1.1854(4)
O9B O 0.4668(7) -0.1915(8) 1.1716(3)
O3B O 0.8834(10) 0.0421(11) 1.0326(5)
H1B H 0.8724 -0.0415 1.0589
C1B C 1.1157(9) 0.4281(13) 1.0668(5)
O4B O 0.9984(8) 0.1774(11) 1.1504(4)
C5B C 0.8741(9) 0.4108(14) 0.9698(5)
H4B H 0.7895 0.3464 0.9483
C7B C 0.9836(10) 0.3391(13) 1.0373(5)
C9B C 0.9575(10) 0.1769(13) 1.0791(5)
C10B C 1.2460(9) 0.3514(13) 1.1350(5)
O6B O 1.3320(8) 0.4720(9) 1.1772(4)
O7B O 1.2596(6) 0.1788(9) 1.1447(3)
Er1B Er 0.56918(4) -0.47958(5) 1.24663(2)
O5B O 0.7877(8) -0.6175(11) 1.2817(5)
H2B H 0.7116 -0.6753 1.2544
H3B H 0.7704 -0.5251 1.3041
O1_2 O 0.4724(8) 0.5753(9) 0.8854(4)
O1B_2 O 0.5276(8) -0.5753(9) 1.1146(4)
O2_2 O 0.4523(6) 0.8096(9) 0.8068(3)
O2A O 0.5477(6) 0.3096(9) 0.6932(3)
O2B_2 O 0.5477(6) -0.8096(9) 1.1932(3)
O2C O 0.4523(6) -0.3096(9) 1.3068(3)
Er1_2 Er 0.43082(4) -0.52042(5) 0.75337(2)
Er1A Er 0.56918(4) -0.02042(5) 0.74663(2)
Er1A_2 Er 0.56918(4) 0.97958(5) 0.74663(2)
Er1B_2 Er 0.56918(4) 0.52042(5) 1.24663(2)
Er1B_3 Er 1.56918(4) 0.52042(5) 1.24663(2)
Er1C Er 0.43082(4) 0.02042(5) 1.25337(2)
Er1C_2 Er 1.43082(4) 0.02042(5) 1.25337(2)
O6B_2 O 0.3320(8) -0.5280(9) 1.1772(4)
O7A O 0.2596(6) 0.3212(9) 0.6447(3)
O7C O 0.7404(6) -0.3212(9) 1.3553(3)
O9A O 0.4668(7) 0.6915(8) 0.6716(3)
O9C O 0.5332(7) -0.6915(8) 1.3284(3)
O10 O 0.0855(11) 0.9404(13) 0.7336(6)
H6 H 0.1260 0.8449 0.7266
H7 H 0.0581 0.9129 0.7679
O11 O 0.1397(9) 0.2448(13) 0.8873(6)
H8 H 0.2002 0.2421 0.8699
H9 H 0.0676 0.3018 0.8538
loop_
_geom_bond_atom_site_label_1
_geom_bond_atom_site_label_2
_geom_bond_site_symmetry_1
_geom_bond_site_symmetry_2
O1 C8 1_555 1_555
O2 C8 1_555 1_555
Er1 O5 1_555 1_555
O3 H1 1_555 1_555
C1 C7 1_555 1_555
C2 C3 1_555 1_555
C3 C8 1_555 1_555
C4 C2 1_555 1_555
O4 C9 1_555 1_555
O5 H2 1_555 1_555
H3 O5 1_555 1_555
C5 H4 1_555 1_555
C6 C2 1_555 1_555
H5 C6 1_555 1_555
C7 C5 1_555 1_555
C9 O3 1_555 1_555
C10 C1 1_555 1_555
O6 Er1 1_555 1_555
O7 C10 1_555 1_555
O8 Er1 1_555 1_555
O9 Er1 1_555 1_555
O10 H6 1_555 1_555
H7 O10 1_555 1_555
O11 H8 1_555 1_555
H9 O11 1_555 1_555
O1B C8B 1_555 1_555
O2B C8B 1_555 1_555
C2B C3B 1_555 1_555
C3B C6 1_555 1_555
C4B C2B 1_555 1_555
C6B C3 1_555 1_555
H5B C6B 1_555 1_555
C8B C3B 1_555 1_555
O8B C4B 1_555 1_555
O9B C4B 1_555 1_555
O3B H1B 1_555 1_555
C1B C5 1_555 1_555
O4B C9B 1_555 1_555
C5B C1 1_555 1_555
H4B C5B 1_555 1_555
C7B C1B 1_555 1_555
C9B O3B 1_555 1_555
C10B C1B 1_555 1_555
O6B C10B 1_555 1_555
O7B C10B 1_555 1_555
Er1B O8B 1_555 1_555
O5B Er1B 1_555 1_555
H2B O5B 1_555 1_555
H3B O5B 1_555 1_555
O1_2 Er1 1_555 1_555
O1B_2 Er1B 1_555 1_555
O2_2 Er1 1_555 1_555
O2A Er1 1_555 1_555
O2B_2 Er1B 1_555 1_555
O2C Er1B 1_555 1_555
Er1_2 O1 1_555 1_555
Er1A O2 1_555 1_555
Er1A_2 O7 1_555 1_555
Er1B_2 O1B 1_555 1_555
Er1B_3 O6B 1_555 1_555
Er1C O2B 1_555 1_555
Er1C_2 O7B 1_555 1_555
O6B_2 Er1B 1_555 1_555
O7A Er1 1_555 1_555
O7C Er1B 1_555 1_555
O9A Er1 1_555 1_555
O9C Er1B 1_555 1_555
O2 Er1_2 1_555 1_555
C4 O8 1_555 1_555
C4 O9 1_555 1_555
C7 C9 1_555 1_555
C10 O6 1_555 1_555
O9 Er1A 1_555 1_555
O2B Er1B_2 1_555 1_555
C2B C6B 1_555 1_555
O9B Er1B 1_555 1_555
O9B Er1C 1_555 1_555
C5B C7B 1_555 1_555
C7B C9B 1_555 1_555
O2_2 Er1A_2 1_555 1_555
O2A Er1A 1_555 1_555
O2C Er1C 1_555 1_555
Er1A_2 O9A 1_555 1_555

#END
