
#######################################################################
#
#                 Cambridge Crystallographic Data Centre
#                                CCDC 
#
#######################################################################
#
# If this CIF has been generated from an entry in the Cambridge 
# Structural Database, then it will include bibliographic, chemical, 
# crystal, experimental, refinement or atomic coordinate data resulting 
# from the CCDC's data processing and validation procedures.
#
#######################################################################

data_QETSAK
_symmetry_cell_setting           monoclinic
_symmetry_space_group_name_H-M   'C 2/c'
_symmetry_Int_Tables_number      15
_space_group_name_Hall           '-C 2yn'
loop_
_symmetry_equiv_pos_site_id
_symmetry_equiv_pos_as_xyz
1 x,y,z
2 1/2+x,1/2+y,z
3 -x,y,1/2-z
4 1/2-x,1/2+y,1/2-z
5 -x,-y,-z
6 1/2-x,1/2-y,-z
7 x,-y,1/2+z
8 1/2+x,1/2-y,1/2+z
_cell_length_a                   19.974(6)
_cell_length_b                   16.962(5)
_cell_length_c                   14.505(4)
_cell_angle_alpha                90
_cell_angle_beta                 112.08(2)
_cell_angle_gamma                90
_cell_volume                     4553.87
loop_
_atom_site_label
_atom_site_type_symbol
_atom_site_fract_x
_atom_site_fract_y
_atom_site_fract_z
Cd1 Cd -0.171390(15) -0.339060(17) -0.21027(2)
O1 O -0.06012(17) -0.24119(18) -0.1491(3)
O2 O -0.17358(15) -0.20511(16) -0.2118(2)
O3 O -0.24373(16) 0.06678(18) -0.2400(3)
O4 O -0.16555(17) 0.16497(18) -0.2102(3)
O5 O 0.09377(19) 0.0899(3) -0.0823(4)
O6 O 0.12512(18) -0.0292(3) -0.0639(3)
N1 N -0.17870(18) -0.3382(2) -0.0520(3)
N2 N -0.17130(18) -0.3321(2) -0.3729(3)
N3 N -0.08465(18) -0.4388(2) -0.1650(3)
C1 C -0.0854(2) -0.1041(2) -0.1656(3)
C2 C -0.1380(2) -0.0466(2) -0.1919(3)
H1 H -0.1863 -0.0618 -0.2153
C3 C -0.1215(2) 0.0330(2) -0.1846(3)
C4 C -0.0490(2) 0.0549(2) -0.1498(3)
H2 H -0.0361 0.1079 -0.1443
C5 C 0.0035(2) -0.0027(2) -0.1238(3)
C6 C -0.0140(2) -0.0822(2) -0.1316(3)
H3 H 0.0222 -0.1202 -0.1139
C7 C -0.1076(2) -0.1899(2) -0.1759(3)
C8 C -0.1799(3) 0.0941(2) -0.2132(4)
C9 C 0.0793(2) 0.0203(3) -0.0872(3)
C10 C -0.2135(2) -0.3957(3) -0.0250(4)
H4 H -0.2317 -0.4380 -0.0681
C11 C -0.2235(3) -0.3951(4) 0.0640(4)
H5 H -0.2478 -0.4362 0.0804
C12 C -0.1971(3) -0.3327(4) 0.1281(4)
H6 H -0.2042 -0.3301 0.1878
C13 C -0.1600(3) -0.2744(3) 0.1013(4)
H7 H -0.1402 -0.2321 0.1437
C14 C -0.1528(3) -0.2795(3) 0.0117(4)
H8 H -0.1281 -0.2394 -0.0057
C15 C -0.2233(2) -0.3667(3) -0.4489(4)
H9 H -0.2557 -0.3999 -0.4358
C16 C -0.2307(3) -0.3549(3) -0.5471(4)
H10 H -0.2676 -0.3800 -0.5983
C17 C -0.1841(3) -0.3070(3) -0.5681(4)
H11 H -0.1894 -0.2971 -0.6335
C18 C -0.1287(3) -0.2734(3) -0.4898(4)
H12 H -0.0947 -0.2419 -0.5015
C19 C -0.1241(2) -0.2866(3) -0.3947(4)
H13 H -0.0867 -0.2630 -0.3427
C20 C -0.1027(2) -0.5145(3) -0.1761(4)
H14 H -0.1516 -0.5271 -0.2009
C21 C -0.0545(3) -0.5748(3) -0.1535(5)
H15 H -0.0699 -0.6270 -0.1624
C22 C 0.0178(3) -0.5563(3) -0.1171(4)
H16 H 0.0525 -0.5959 -0.1004
C23 C 0.0375(3) -0.4803(3) -0.1059(4)
H17 H 0.0861 -0.4665 -0.0816
C24 C -0.0151(3) -0.4230(3) -0.1307(4)
H18 H -0.0008 -0.3705 -0.1229
Cd1C Cd -0.328610(15) 0.160940(17) -0.28973(2)
O3C O -0.25627(16) -0.43322(18) -0.2600(3)
loop_
_geom_bond_atom_site_label_1
_geom_bond_atom_site_label_2
_geom_bond_site_symmetry_1
_geom_bond_site_symmetry_2
Cd1 O1 1_555 1_555
O1 C7 1_555 1_555
O2 Cd1 1_555 1_555
O3 C8 1_555 1_555
O4 C8 1_555 1_555
O5 C9 1_555 1_555
O6 C9 1_555 1_555
N1 Cd1 1_555 1_555
N2 Cd1 1_555 1_555
N3 Cd1 1_555 1_555
C1 C2 1_555 1_555
C2 H1 1_555 1_555
C3 C2 1_555 1_555
C4 C3 1_555 1_555
H2 C4 1_555 1_555
C5 C4 1_555 1_555
C6 C1 1_555 1_555
H3 C6 1_555 1_555
C7 O2 1_555 1_555
C8 C3 1_555 1_555
C9 C5 1_555 1_555
C10 N1 1_555 1_555
H4 C10 1_555 1_555
C11 C10 1_555 1_555
H5 C11 1_555 1_555
C12 C11 1_555 1_555
H6 C12 1_555 1_555
C13 C12 1_555 1_555
H7 C13 1_555 1_555
C14 N1 1_555 1_555
H8 C14 1_555 1_555
C15 N2 1_555 1_555
H9 C15 1_555 1_555
C16 C15 1_555 1_555
H10 C16 1_555 1_555
C17 C16 1_555 1_555
H11 C17 1_555 1_555
C18 C17 1_555 1_555
H12 C18 1_555 1_555
C19 N2 1_555 1_555
H13 C19 1_555 1_555
C20 N3 1_555 1_555
H14 C20 1_555 1_555
C21 C20 1_555 1_555
H15 C21 1_555 1_555
C22 C21 1_555 1_555
H16 C22 1_555 1_555
C23 C22 1_555 1_555
H17 C23 1_555 1_555
C24 N3 1_555 1_555
H18 C24 1_555 1_555
Cd1C O3 1_555 1_555
O3C Cd1 1_555 1_555
C1 C7 1_555 1_555
C5 C6 1_555 1_555
C13 C14 1_555 1_555
C18 C19 1_555 1_555
C23 C24 1_555 1_555

#END
