
#######################################################################
#
#                 Cambridge Crystallographic Data Centre
#                                CCDC 
#
#######################################################################
#
# If this CIF has been generated from an entry in the Cambridge 
# Structural Database, then it will include bibliographic, chemical, 
# crystal, experimental, refinement or atomic coordinate data resulting 
# from the CCDC's data processing and validation procedures.
#
#######################################################################

data_QETWUI
_symmetry_cell_setting           monoclinic
_symmetry_space_group_name_H-M   'C 2/c'
_symmetry_Int_Tables_number      15
_space_group_name_Hall           '-C 2yn'
loop_
_symmetry_equiv_pos_site_id
_symmetry_equiv_pos_as_xyz
1 x,y,z
2 1/2+x,1/2+y,z
3 -x,y,1/2-z
4 1/2-x,1/2+y,1/2-z
5 -x,-y,-z
6 1/2-x,1/2-y,-z
7 x,-y,1/2+z
8 1/2+x,1/2-y,1/2+z
_cell_length_a                   30.815(4)
_cell_length_b                   10.3982(13)
_cell_length_c                   17.918(2)
_cell_angle_alpha                90
_cell_angle_beta                 103.038(3)
_cell_angle_gamma                90
_cell_volume                     5593.29
loop_
_atom_site_label
_atom_site_type_symbol
_atom_site_fract_x
_atom_site_fract_y
_atom_site_fract_z
C1 C 0.21169(15) 0.3607(5) 0.2593(3)
H1 H 0.2313 0.4290 0.2739
C2 C 0.22864(14) 0.2492(4) 0.2370(2)
C3 C 0.27739(15) 0.2376(4) 0.2357(3)
C4 C 0.19853(13) 0.1505(4) 0.2138(2)
H2 H 0.2079 0.0737 0.1961
C5 C 0.15445(13) 0.1662(4) 0.2170(2)
H3 H 0.1341 0.0996 0.2024
C6 C 0.14095(14) 0.2818(4) 0.2421(2)
C7 C 0.09394(14) 0.3072(4) 0.2503(3)
C8 C 0.20553(14) 0.5476(4) 0.4520(3)
H4 H 0.2290 0.5359 0.4278
C9 C 0.14283(15) 0.5835(4) 0.4734(2)
H5 H 0.1125 0.6005 0.4662
C10 C 0.17041(15) 0.5707(4) 0.5411(2)
H6 H 0.1634 0.5785 0.5887
C11 C 0.25048(14) 0.5294(4) 0.5863(2)
H7 H 0.2439 0.4787 0.6279
H8 H 0.2603 0.6135 0.6067
C12 C 0.28750(15) 0.4667(4) 0.5592(2)
C13 C 0.31584(15) 0.5458(4) 0.5295(2)
H9 H 0.3093 0.6327 0.5216
C14 C 0.35395(14) 0.4949(4) 0.5116(2)
H10 H 0.3729 0.5477 0.4917
C15 C 0.36372(14) 0.3649(4) 0.5234(2)
C16 C 0.33538(15) 0.2859(4) 0.5531(2)
H11 H 0.3419 0.1989 0.5611
C17 C 0.29727(14) 0.3368(4) 0.5711(2)
H12 H 0.2783 0.2839 0.5910
C18 C 0.40735(14) 0.3140(4) 0.5169(2)
H13 H 0.4220 0.2784 0.5662
H14 H 0.4254 0.3854 0.5065
C19 C 0.43586(15) 0.1163(4) 0.4614(3)
H15 H 0.4587 0.0933 0.5027
C20 C 0.42455(16) 0.0589(4) 0.3922(3)
H16 H 0.4388 -0.0134 0.3786
C21 C 0.38027(15) 0.2117(4) 0.3873(3)
H17 H 0.3572 0.2698 0.3701
C22 C 0.05258(14) 0.7221(4) 0.3279(2)
H18 H 0.0387 0.6440 0.3324
C23 C 0.06511(16) 0.9266(4) 0.3281(3)
H19 H 0.0624 1.0153 0.3321
C24 C 0.09904(14) 0.8621(4) 0.3097(2)
H20 H 0.1242 0.9004 0.2988
C25 C -0.00742(14) 0.8586(4) 0.3589(2)
H21 H -0.0213 0.7763 0.3639
H22 H -0.0266 0.9051 0.3173
C26 C -0.00367(13) 0.9331(4) 0.4317(2)
C27 C -0.02274(14) 1.0518(4) 0.4306(2)
H23 H -0.0381 1.0877 0.3847
C28 C 0.01901(15) 0.8824(4) 0.5015(3)
H24 H 0.0320 0.8016 0.5023
Cd1 Cd 0.138645(10) 0.57935(3) 0.283640(17)
N1 N 0.16899(12) 0.3790(3) 0.2616(2)
N2 N 0.16438(13) 0.5689(3) 0.4157(2)
N3 N 0.20997(13) 0.5445(4) 0.5278(2)
N4 N 0.40680(12) 0.2143(3) 0.45771(19)
N5 N 0.39042(12) 0.1184(3) 0.3453(2)
N6 N 0.09157(12) 0.7334(3) 0.3091(2)
N7 N 0.03584(11) 0.8362(3) 0.33949(19)
O1 O 0.08556(9) 0.4133(3) 0.27601(16)
O2 O 0.06632(10) 0.2197(3) 0.22973(16)
O3 O 0.30120(9) 0.3319(3) 0.25908(15)
O4 O 0.29050(10) 0.1374(3) 0.21143(16)
C1C C 0.28831(15) 0.8607(5) 0.2407(3)
H1C H 0.2687 0.9290 0.2261
C2C C 0.27136(14) 0.7492(4) 0.2630(2)
C3C C 0.22261(15) 0.7376(4) 0.2643(3)
C4C C 0.30147(13) 0.6505(4) 0.2862(2)
H2C H 0.2921 0.5737 0.3039
C5C C 0.34555(13) 0.6662(4) 0.2830(2)
H3C H 0.3659 0.5996 0.2976
C6C C 0.35905(14) 0.7818(4) 0.2579(2)
C7C C 0.40606(14) 0.8072(4) 0.2497(3)
C8C C 0.29447(14) 1.0476(4) 0.0480(3)
H4C H 0.2710 1.0359 0.0722
C9C C 0.35717(15) 1.0835(4) 0.0266(2)
H5C H 0.3875 1.1005 0.0338
C10C C 0.32959(15) 1.0707(4) -0.0411(2)
H6C H 0.3366 1.0785 -0.0887
C11C C 0.24952(14) 1.0294(4) -0.0863(2)
H7C H 0.2561 0.9787 -0.1279
H8C H 0.2397 1.1135 -0.1067
C12C C 0.21250(15) 0.9667(4) -0.0592(2)
C13C C 0.18416(15) 1.0458(4) -0.0295(2)
H9C H 0.1907 1.1327 -0.0216
C14C C 0.14605(14) 0.9949(4) -0.0116(2)
H10C H 0.1271 1.0477 0.0083
C15C C 0.13628(14) 0.8649(4) -0.0234(2)
C16C C 0.16462(15) 0.7859(4) -0.0531(2)
H11C H 0.1581 0.6989 -0.0611
C17C C 0.20273(14) 0.8368(4) -0.0711(2)
H12C H 0.2217 0.7839 -0.0910
C18C C 0.09265(14) 0.8140(4) -0.0169(2)
H13C H 0.0780 0.7784 -0.0662
H14C H 0.0746 0.8854 -0.0065
C19C C 0.06414(15) 0.6163(4) 0.0386(3)
H15C H 0.0413 0.5933 -0.0027
C20C C 0.07545(16) 0.5589(4) 0.1078(3)
H16C H 0.0612 0.4866 0.1214
C21C C 0.11973(15) 0.7117(4) 0.1127(3)
H17C H 0.1428 0.7698 0.1299
C22D C -0.05258(14) 1.2779(4) 0.6721(2)
H18D H -0.0387 1.3560 0.6676
C23D C -0.06511(16) 1.0734(4) 0.6719(3)
H19D H -0.0624 0.9847 0.6679
C24D C -0.09904(14) 1.1379(4) 0.6903(2)
H20D H -0.1242 1.0996 0.7012
C25D C 0.00742(14) 1.1414(4) 0.6411(2)
H21D H 0.0213 1.2237 0.6361
H22D H 0.0266 1.0949 0.6827
C26D C 0.00367(13) 1.0669(4) 0.5683(2)
C27D C 0.02274(14) 0.9482(4) 0.5694(2)
H23D H 0.0381 0.9123 0.6153
C28D C -0.01901(15) 1.1176(4) 0.4985(3)
H24D H -0.0320 1.1984 0.4977
Cd1C Cd 0.361355(10) 1.07935(3) 0.216360(17)
Cd1C_2 Cd 0.361355(10) 0.07935(3) 0.216360(17)
Cd1D Cd -0.138645(10) 1.42065(3) 0.716360(17)
N1C N 0.33101(12) 0.8790(3) 0.2384(2)
N2C N 0.33562(13) 1.0689(3) 0.0843(2)
N3C N 0.29003(13) 1.0445(4) -0.0278(2)
N4C N 0.09320(12) 0.7143(3) 0.04229(19)
N5C N 0.10958(12) 0.6184(3) 0.1547(2)
N5_2 N 0.39042(12) 1.1184(3) 0.3453(2)
N6D N -0.09157(12) 1.2666(3) 0.6909(2)
N6C N 0.40843(12) 1.2334(3) 0.1909(2)
N7D N -0.03584(11) 1.1638(3) 0.66051(19)
O1C O 0.41444(9) 0.9133(3) 0.22399(16)
O2C O 0.43368(10) 0.7197(3) 0.27027(16)
O3C O 0.19880(9) 0.8319(3) 0.24092(15)
O4C O 0.20950(10) 0.6374(3) 0.28857(16)
O4_2 O 0.29050(10) 1.1374(3) 0.21143(16)
O5 O 0.01492(10) 0.3792(3) 0.35137(16)
H25 H 0.0346 0.4372 0.3539
H26 H -0.0067 0.3943 0.3137
loop_
_geom_bond_atom_site_label_1
_geom_bond_atom_site_label_2
_geom_bond_site_symmetry_1
_geom_bond_site_symmetry_2
C1 H1 1_555 1_555
C2 C1 1_555 1_555
C3 C2 1_555 1_555
C4 C2 1_555 1_555
H2 C4 1_555 1_555
C5 C4 1_555 1_555
H3 C5 1_555 1_555
C6 C5 1_555 1_555
C7 C6 1_555 1_555
C8 H4 1_555 1_555
C9 H5 1_555 1_555
C10 C9 1_555 1_555
H6 C10 1_555 1_555
C11 H7 1_555 1_555
H8 C11 1_555 1_555
C12 C11 1_555 1_555
C13 C12 1_555 1_555
H9 C13 1_555 1_555
C14 C13 1_555 1_555
H10 C14 1_555 1_555
C15 C14 1_555 1_555
C16 C15 1_555 1_555
H11 C16 1_555 1_555
C17 C12 1_555 1_555
H12 C17 1_555 1_555
C18 C15 1_555 1_555
H13 C18 1_555 1_555
H14 C18 1_555 1_555
C19 H15 1_555 1_555
C20 C19 1_555 1_555
H16 C20 1_555 1_555
C21 H17 1_555 1_555
C22 H18 1_555 1_555
C23 H19 1_555 1_555
C24 C23 1_555 1_555
H20 C24 1_555 1_555
C25 H21 1_555 1_555
H22 C25 1_555 1_555
C26 C25 1_555 1_555
C27 C26 1_555 1_555
H23 C27 1_555 1_555
C28 C26 1_555 1_555
H24 C28 1_555 1_555
Cd1 N1 1_555 1_555
N1 C1 1_555 1_555
N2 C8 1_555 1_555
N3 C8 1_555 1_555
N4 C18 1_555 1_555
N5 C20 1_555 1_555
N6 C22 1_555 1_555
N7 C22 1_555 1_555
O1 C7 1_555 1_555
O2 C7 1_555 1_555
O3 C3 1_555 1_555
O4 C3 1_555 1_555
O5 H25 1_555 1_555
H26 O5 1_555 1_555
C1C H1C 1_555 1_555
C2C C1C 1_555 1_555
C3C C2C 1_555 1_555
C4C C2C 1_555 1_555
H2C C4C 1_555 1_555
C5C C4C 1_555 1_555
H3C C5C 1_555 1_555
C6C C5C 1_555 1_555
C7C C6C 1_555 1_555
C8C H4C 1_555 1_555
C9C H5C 1_555 1_555
C10C C9C 1_555 1_555
H6C C10C 1_555 1_555
C11C H7C 1_555 1_555
H8C C11C 1_555 1_555
C12C C11C 1_555 1_555
C13C C12C 1_555 1_555
H9C C13C 1_555 1_555
C14C C13C 1_555 1_555
H10C C14C 1_555 1_555
C15C C14C 1_555 1_555
C16C C15C 1_555 1_555
H11C C16C 1_555 1_555
C17C C12C 1_555 1_555
H12C C17C 1_555 1_555
C18C C15C 1_555 1_555
H13C C18C 1_555 1_555
H14C C18C 1_555 1_555
C19C H15C 1_555 1_555
C20C C19C 1_555 1_555
H16C C20C 1_555 1_555
C21C H17C 1_555 1_555
C22D H18D 1_555 1_555
C23D H19D 1_555 1_555
C24D C23D 1_555 1_555
H20D C24D 1_555 1_555
C25D H21D 1_555 1_555
H22D C25D 1_555 1_555
C26D C25D 1_555 1_555
C27D C28 1_555 1_555
H23D C27D 1_555 1_555
C28D C27 1_555 1_555
H24D C28D 1_555 1_555
Cd1C N1C 1_555 1_555
Cd1C_2 N5 1_555 1_555
Cd1D N6D 1_555 1_555
N1C C1C 1_555 1_555
N2C C8C 1_555 1_555
N3C C8C 1_555 1_555
N4C C18C 1_555 1_555
N5C Cd1 1_555 1_555
N5_2 Cd1C 1_555 1_555
N6D C22D 1_555 1_555
N6C Cd1C 1_555 1_555
N7D C22D 1_555 1_555
O1C C7C 1_555 1_555
O2C C7C 1_555 1_555
O3C C3C 1_555 1_555
O4C Cd1 1_555 1_555
O4_2 Cd1C 1_555 1_555
C6 N1 1_555 1_555
C9 N2 1_555 1_555
C10 N3 1_555 1_555
C11 N3 1_555 1_555
C16 C17 1_555 1_555
C19 N4 1_555 1_555
C21 N4 1_555 1_555
C21 N5 1_555 1_555
C23 N7 1_555 1_555
C24 N6 1_555 1_555
C25 N7 1_555 1_555
Cd1 N2 1_555 1_555
Cd1 N6 1_555 1_555
Cd1 O1 1_555 1_555
O4 Cd1C_2 1_555 1_555
C3C O4C 1_555 1_555
C6C N1C 1_555 1_555
C9C N2C 1_555 1_555
C10C N3C 1_555 1_555
C11C N3C 1_555 1_555
C16C C17C 1_555 1_555
C19C N4C 1_555 1_555
C20C N5C 1_555 1_555
C21C N4C 1_555 1_555
C21C N5C 1_555 1_555
C23D N7D 1_555 1_555
C24D N6D 1_555 1_555
C25D N7D 1_555 1_555
C26D C27D 1_555 1_555
C26D C28D 1_555 1_555
Cd1C N2C 1_555 1_555
Cd1C O1C 1_555 1_555

#END
