
#######################################################################
#
#                 Cambridge Crystallographic Data Centre
#                                CCDC 
#
#######################################################################
#
# If this CIF has been generated from an entry in the Cambridge 
# Structural Database, then it will include bibliographic, chemical, 
# crystal, experimental, refinement or atomic coordinate data resulting 
# from the CCDC's data processing and validation procedures.
#
#######################################################################

data_QEVBOJ
_symmetry_cell_setting           triclinic
_symmetry_space_group_name_H-M   'P -1'
_symmetry_Int_Tables_number      2
_space_group_name_Hall           '-P 1'
loop_
_symmetry_equiv_pos_site_id
_symmetry_equiv_pos_as_xyz
1 x,y,z
2 -x,-y,-z
_cell_length_a                   9.5428(2)
_cell_length_b                   14.5428(3)
_cell_length_c                   15.2025(3)
_cell_angle_alpha                66.7970(10)
_cell_angle_beta                 72.5230(10)
_cell_angle_gamma                78.8590(10)
_cell_volume                     1842.86
loop_
_atom_site_label
_atom_site_type_symbol
_atom_site_fract_x
_atom_site_fract_y
_atom_site_fract_z
Cu1 Cu 0.40083(3) 0.57242(2) 0.04174(2)
Cu2 Cu 0.11962(4) 0.41768(2) 0.47902(2)
Cl1 Cl 0.34204(7) 0.41696(5) 0.04140(5)
P1 P 0.13508(7) 0.25231(5) 0.54177(5)
P2 P 0.25767(7) 0.69764(5) -0.03521(5)
Cl2 Cl -0.10966(7) 0.48587(5) 0.42441(5)
N1 N 0.2883(2) 0.48418(15) 0.35796(14)
N2 N 0.4127(2) 0.53095(15) 0.18640(13)
N3 N 0.1893(2) 0.46325(18) 0.24750(15)
H1 H 0.1150 0.4390 0.2953
H2 H 0.1930 0.4682 0.1886
C1 C 0.2981(3) 0.49312(18) 0.26465(17)
C2 C 0.4016(3) 0.51206(19) 0.37314(18)
H3 H 0.3963 0.5089 0.4363
C3 C 0.5256(3) 0.5451(2) 0.29963(19)
H4 H 0.6055 0.5610 0.3123
C4 C 0.5257(3) 0.55362(19) 0.20653(18)
H5 H 0.6081 0.5762 0.1552
C5 C 0.2530(3) 0.6948(2) -0.15347(19)
C6 C 0.1785(3) 0.6211(2) -0.1533(2)
H6 H 0.1285 0.5766 -0.0938
C7 C 0.3299(4) 0.7575(3) -0.2431(2)
H7 H 0.3809 0.8068 -0.2448
C8 C 0.2542(4) 0.6773(3) -0.3289(3)
H8 H 0.2529 0.6728 -0.3881
C9 C 0.1786(4) 0.6140(3) -0.2417(3)
H9 H 0.1269 0.5657 -0.2413
C10 C 0.3319(4) 0.7476(3) -0.3301(2)
H10 H 0.3864 0.7890 -0.3898
C11 C 0.0629(3) 0.70985(18) 0.02814(19)
C12 C 0.0296(3) 0.6917(2) 0.1280(2)
H11 H 0.1052 0.6699 0.1604
C13 C -0.1132(4) 0.7051(2) 0.1811(2)
H12 H -0.1326 0.6933 0.2481
C14 C -0.2242(4) 0.7351(2) 0.1359(3)
H13 H -0.3202 0.7444 0.1718
C15 C -0.1960(3) 0.7521(2) 0.0366(3)
H14 H -0.2734 0.7718 0.0058
C16 C -0.0528(3) 0.7400(2) -0.0177(2)
H15 H -0.0341 0.7522 -0.0848
C17 C 0.3126(3) 0.82318(19) -0.06702(18)
C18 C 0.4546(3) 0.8335(2) -0.0726(2)
H16 H 0.5211 0.7768 -0.0601
C19 C 0.4047(4) 1.0101(2) -0.1147(2)
H17 H 0.4362 1.0729 -0.1315
C20 C 0.2622(4) 1.0018(2) -0.1081(3)
H18 H 0.1960 1.0587 -0.1195
C21 C 0.5013(3) 0.9270(2) -0.0967(2)
H19 H 0.5985 0.9327 -0.1006
C22 C 0.2159(3) 0.9088(2) -0.0843(2)
H20 H 0.1182 0.9036 -0.0799
C23 C -0.0067(3) 0.19732(19) 0.65462(17)
C24 C 0.3089(3) 0.1922(2) 0.57331(18)
C25 C 0.1233(3) 0.19721(19) 0.45549(19)
C26 C -0.1327(3) 0.2580(2) 0.6755(2)
H21 H -0.1442 0.3232 0.6312
C27 C 0.3924(3) 0.2479(2) 0.5911(2)
H22 H 0.3589 0.3137 0.5866
C28 C 0.3633(3) 0.0946(2) 0.5788(2)
H23 H 0.3101 0.0566 0.5652
C29 C 0.0061(3) 0.1003(2) 0.7220(2)
H24 H 0.0895 0.0578 0.7094
C30 C 0.5258(4) 0.2065(3) 0.6157(2)
H25 H 0.5813 0.2447 0.6273
C31 C 0.4957(4) 0.0532(3) 0.6042(2)
H26 H 0.5305 -0.0124 0.6086
C32 C -0.2272(3) 0.1282(2) 0.8275(2)
H27 H -0.3002 0.1054 0.8857
C33 C -0.2420(3) 0.2233(2) 0.7615(2)
H28 H -0.3263 0.2652 0.7742
C34 C -0.1032(3) 0.0664(2) 0.8073(2)
H29 H -0.0931 0.0011 0.8516
C35 C 0.0074(4) 0.1465(3) 0.4684(2)
H30 H -0.0668 0.1335 0.5267
C36 C 0.2323(4) 0.2143(2) 0.3686(2)
H31 H 0.3127 0.2476 0.3588
C37 C 0.5753(4) 0.1100(3) 0.6228(2)
H32 H 0.6636 0.0822 0.6404
C38 C 0.1083(6) 0.1315(3) 0.3107(3)
H33 H 0.1039 0.1083 0.2627
C39 C 0.2235(5) 0.1825(3) 0.2961(3)
H34 H 0.2965 0.1960 0.2372
C40 C -0.0007(5) 0.1143(3) 0.3957(3)
H35 H -0.0808 0.0809 0.4050
Cu1A Cu 0.59917(3) 0.42758(2) -0.04174(2)
Cu2A Cu -0.11962(4) 0.58232(2) 0.52098(2)
Cl1A Cl 0.65796(7) 0.58304(5) -0.04140(5)
Cl2A Cl 0.10966(7) 0.51413(5) 0.57559(5)
loop_
_geom_bond_atom_site_label_1
_geom_bond_atom_site_label_2
_geom_bond_site_symmetry_1
_geom_bond_site_symmetry_2
Cu1 Cl1 1_555 1_555
Cu2 P1 1_555 1_555
Cl1 Cu1A 1_555 1_555
P1 C23 1_555 1_555
P2 Cu1 1_555 1_555
Cl2 Cu2 1_555 1_555
N1 Cu2 1_555 1_555
N2 Cu1 1_555 1_555
N3 H1 1_555 1_555
H2 N3 1_555 1_555
C1 N1 1_555 1_555
C2 N1 1_555 1_555
H3 C2 1_555 1_555
C3 C2 1_555 1_555
H4 C3 1_555 1_555
C4 N2 1_555 1_555
H5 C4 1_555 1_555
C5 P2 1_555 1_555
C6 C5 1_555 1_555
H6 C6 1_555 1_555
C7 C5 1_555 1_555
H7 C7 1_555 1_555
C8 H8 1_555 1_555
C9 C6 1_555 1_555
H9 C9 1_555 1_555
C10 C7 1_555 1_555
H10 C10 1_555 1_555
C11 P2 1_555 1_555
C12 C11 1_555 1_555
H11 C12 1_555 1_555
C13 C12 1_555 1_555
H12 C13 1_555 1_555
C14 C13 1_555 1_555
H13 C14 1_555 1_555
C15 C14 1_555 1_555
H14 C15 1_555 1_555
C16 C11 1_555 1_555
H15 C16 1_555 1_555
C17 P2 1_555 1_555
C18 C17 1_555 1_555
H16 C18 1_555 1_555
C19 H17 1_555 1_555
C20 C19 1_555 1_555
H18 C20 1_555 1_555
C21 C18 1_555 1_555
H19 C21 1_555 1_555
C22 C17 1_555 1_555
H20 C22 1_555 1_555
C23 C26 1_555 1_555
C24 P1 1_555 1_555
C25 P1 1_555 1_555
C26 H21 1_555 1_555
C27 C24 1_555 1_555
H22 C27 1_555 1_555
C28 C24 1_555 1_555
H23 C28 1_555 1_555
C29 C23 1_555 1_555
H24 C29 1_555 1_555
C30 C27 1_555 1_555
H25 C30 1_555 1_555
C31 C28 1_555 1_555
H26 C31 1_555 1_555
C32 H27 1_555 1_555
C33 C26 1_555 1_555
H28 C33 1_555 1_555
C34 C29 1_555 1_555
H29 C34 1_555 1_555
C35 C25 1_555 1_555
H30 C35 1_555 1_555
C36 C25 1_555 1_555
H31 C36 1_555 1_555
C37 C30 1_555 1_555
H32 C37 1_555 1_555
C38 H33 1_555 1_555
C39 C36 1_555 1_555
H34 C39 1_555 1_555
C40 C35 1_555 1_555
H35 C40 1_555 1_555
Cu1A Cl1A 1_555 1_555
Cu2A Cl2 1_555 1_555
Cl1A Cu1 1_555 1_555
Cl2A Cu2 1_555 1_555
N2 C1 1_555 1_555
N3 C1 1_555 1_555
C3 C4 1_555 1_555
C8 C9 1_555 1_555
C8 C10 1_555 1_555
C15 C16 1_555 1_555
C19 C21 1_555 1_555
C20 C22 1_555 1_555
C31 C37 1_555 1_555
C32 C33 1_555 1_555
C32 C34 1_555 1_555
C38 C39 1_555 1_555
C38 C40 1_555 1_555
Cu2A Cl2A 1_555 1_555

#END
