
#######################################################################
#
#                 Cambridge Crystallographic Data Centre
#                                CCDC 
#
#######################################################################
#
# If this CIF has been generated from an entry in the Cambridge 
# Structural Database, then it will include bibliographic, chemical, 
# crystal, experimental, refinement or atomic coordinate data resulting 
# from the CCDC's data processing and validation procedures.
#
#######################################################################

data_QEVDIF
_symmetry_cell_setting           monoclinic
_symmetry_space_group_name_H-M   'C 2/c'
_symmetry_Int_Tables_number      15
_space_group_name_Hall           '-C 2yn'
loop_
_symmetry_equiv_pos_site_id
_symmetry_equiv_pos_as_xyz
1 x,y,z
2 1/2+x,1/2+y,z
3 -x,y,1/2-z
4 1/2-x,1/2+y,1/2-z
5 -x,-y,-z
6 1/2-x,1/2-y,-z
7 x,-y,1/2+z
8 1/2+x,1/2-y,1/2+z
_cell_length_a                   18.491(7)
_cell_length_b                   16.066(6)
_cell_length_c                   13.519(5)
_cell_angle_alpha                90
_cell_angle_beta                 132.418(4)
_cell_angle_gamma                90
_cell_volume                     2964.92
loop_
_atom_site_label
_atom_site_type_symbol
_atom_site_fract_x
_atom_site_fract_y
_atom_site_fract_z
Cu1 Cu 0.0000 0.45093(5) 0.2500
Cu2 Cu 0.0000 0.5000 0.5000
S1 S 0.1756(2) 0.67734(17) 0.3849(3)
N1 N 0.1258(3) 0.4553(2) 0.4426(4)
N2 N 0.1269(3) 0.4761(3) 0.5422(4)
N3 N 0.2762(3) 0.4687(3) 0.6281(4)
N4 N 0.3797(4) 0.4733(4) 0.7217(6)
H1 H 0.4049 0.4316 0.7730
H2 H 0.3867 0.4750 0.6655
N5 N -0.0570(3) 0.3653(3) 0.3052(4)
N6 N -0.0533(3) 0.3889(2) 0.4072(4)
N7 N -0.1154(3) 0.2652(3) 0.3421(5)
N8 N -0.1583(4) 0.1882(3) 0.3268(6)
H3 H -0.2275 0.2002 0.2865
H4 H -0.1292 0.1737 0.3948
N9 N 0.0588(4) 0.5531(3) 0.2020(5)
C1 C 0.2167(4) 0.4514(3) 0.4970(5)
H5 H 0.2370 0.4387 0.4519
C2 C 0.2182(4) 0.4833(3) 0.6525(5)
H6 H 0.2400 0.4967 0.7358
C3 C -0.0946(4) 0.2902(3) 0.2691(5)
H7 H -0.1053 0.2588 0.2025
C4 C -0.0888(4) 0.3276(3) 0.4271(5)
H8 H -0.0947 0.3273 0.4902
C5 C 0.1061(4) 0.6054(4) 0.2751(6)
Cu2F Cu 0.0000 0.5000 0.0000
S1B S -0.1756(2) 0.67734(17) 0.1151(3)
N1B N -0.1258(3) 0.4553(2) 0.0574(4)
N2D N -0.1269(3) 0.5239(3) 0.4578(4)
N2B N -0.1269(3) 0.4761(3) -0.0422(4)
N3B N -0.2762(3) 0.4687(3) -0.1281(4)
N4B N -0.3797(4) 0.4733(4) -0.2217(6)
H1B H -0.4049 0.4316 -0.2730
H2B H -0.3867 0.4750 -0.1655
N5B N 0.0570(3) 0.3653(3) 0.1948(4)
N6D N 0.0533(3) 0.6111(2) 0.5928(4)
N6B N 0.0533(3) 0.3889(2) 0.0928(4)
N7B N 0.1154(3) 0.2652(3) 0.1579(5)
N8B N 0.1583(4) 0.1882(3) 0.1732(6)
H3B H 0.2275 0.2002 0.2135
H4B H 0.1292 0.1737 0.1052
N9B N -0.0588(4) 0.5531(3) 0.2980(5)
N9F N 0.0588(4) 0.4469(3) 0.7020(5)
C1B C -0.2167(4) 0.4514(3) 0.0030(5)
H5B H -0.2370 0.4387 0.0481
C2B C -0.2182(4) 0.4833(3) -0.1525(5)
H6B H -0.2400 0.4967 -0.2358
C3B C 0.0946(4) 0.2902(3) 0.2309(5)
H7B H 0.1053 0.2588 0.2975
C4B C 0.0888(4) 0.3276(3) 0.0729(5)
H8B H 0.0947 0.3273 0.0098
C5B C -0.1061(4) 0.6054(4) 0.2249(6)
Cl1 Cl 0.12524(14) 0.82830(15) 0.04581(18)
O1 O 0.1360(10) 0.7399(5) 0.0699(14)
O2 O 0.0762(9) 0.8435(7) -0.0881(7)
O3 O 0.0537(8) 0.8531(10) 0.0582(14)
O4 O 0.2076(3) 0.8762(3) 0.1436(5)
O5 O 0.9006(16) 0.0495(13) 0.517(2)
O6? O 0.1734(12) 0.7824(11) 0.0048(17)
O7? O 0.0461(9) 0.8680(11) -0.0690(15)
O8? O 0.1091(13) 0.7625(10) 0.0979(18)
loop_
_geom_bond_atom_site_label_1
_geom_bond_atom_site_label_2
_geom_bond_site_symmetry_1
_geom_bond_site_symmetry_2
Cu1 N1 1_555 1_555
Cu2 N2 1_555 1_555
S1 C5 1_555 1_555
N1 N2 1_555 1_555
N2 C2 1_555 1_555
N3 N4 1_555 1_555
N4 H1 1_555 1_555
H2 N4 1_555 1_555
N5 Cu1 1_555 1_555
N6 Cu2 1_555 1_555
N7 N8 1_555 1_555
N8 H3 1_555 1_555
H4 N8 1_555 1_555
N9 Cu1 1_555 1_555
C1 N1 1_555 1_555
H5 C1 1_555 1_555
C2 N3 1_555 1_555
H6 C2 1_555 1_555
C3 N5 1_555 1_555
H7 C3 1_555 1_555
C4 N6 1_555 1_555
H8 C4 1_555 1_555
C5 N9 1_555 1_555
Cl1 O1 1_555 1_555
O2 Cl1 1_555 1_555
O3 Cl1 1_555 1_555
O4 Cl1 1_555 1_555
Cu2F N9 1_555 1_555
S1B C5B 1_555 1_555
N1B Cu1 1_555 1_555
N2D Cu2 1_555 1_555
N2B Cu2F 1_555 1_555
N3B N4B 1_555 1_555
N4B H1B 1_555 1_555
H2B N4B 1_555 1_555
N5B Cu1 1_555 1_555
N6D Cu2 1_555 1_555
N6B Cu2F 1_555 1_555
N7B N8B 1_555 1_555
N8B H3B 1_555 1_555
H4B N8B 1_555 1_555
N9B Cu1 1_555 1_555
N9F Cu2 1_555 1_555
C1B N1B 1_555 1_555
H5B C1B 1_555 1_555
C2B N2B 1_555 1_555
H6B C2B 1_555 1_555
C3B N5B 1_555 1_555
H7B C3B 1_555 1_555
C4B N6B 1_555 1_555
H8B C4B 1_555 1_555
C5B N9B 1_555 1_555
Cu2 N9B 1_555 1_555
N3 C1 1_555 1_555
N5 N6 1_555 1_555
N7 C3 1_555 1_555
N7 C4 1_555 1_555
N1B N2B 1_555 1_555
N3B C1B 1_555 1_555
N3B C2B 1_555 1_555
N5B N6B 1_555 1_555
N7B C3B 1_555 1_555
N7B C4B 1_555 1_555

#END
