
#######################################################################
#
#                 Cambridge Crystallographic Data Centre
#                                CCDC 
#
#######################################################################
#
# If this CIF has been generated from an entry in the Cambridge 
# Structural Database, then it will include bibliographic, chemical, 
# crystal, experimental, refinement or atomic coordinate data resulting 
# from the CCDC's data processing and validation procedures.
#
#######################################################################

data_QEVJEH
_symmetry_cell_setting           triclinic
_symmetry_space_group_name_H-M   'P -1'
_symmetry_Int_Tables_number      2
_space_group_name_Hall           '-P 1'
loop_
_symmetry_equiv_pos_site_id
_symmetry_equiv_pos_as_xyz
1 x,y,z
2 -x,-y,-z
_cell_length_a                   14.805(5)
_cell_length_b                   14.895(5)
_cell_length_c                   18.492(6)
_cell_angle_alpha                74.914(5)
_cell_angle_beta                 73.190(6)
_cell_angle_gamma                71.560(5)
_cell_volume                     3638.65
loop_
_atom_site_label
_atom_site_type_symbol
_atom_site_fract_x
_atom_site_fract_y
_atom_site_fract_z
Ce1 Ce 0.06635(4) 0.28423(3) 0.26356(3)
S1 S 0.18381(17) 0.41250(16) 0.15897(14)
Na1 Na 0.2228(3) 0.2565(3) 0.0547(2)
O1 O 0.3812(6) 0.2427(6) -0.0154(5)
N1 N 0.4234(7) 0.4621(7) 0.1337(6)
C1 C 0.3039(6) 0.3563(6) 0.1667(5)
S2 S 0.27213(17) 0.17480(16) 0.20676(14)
Na2 Na -0.1843(3) 0.2775(3) 0.2227(2)
O2 O 0.2475(6) 0.0943(6) 0.0355(5)
N2 N 0.5242(7) 0.1844(7) 0.1810(6)
C2 C 0.3399(6) 0.2579(6) 0.1851(5)
S3 S -0.01427(18) 0.44707(15) 0.34871(13)
Na3 Na -0.0666(3) 0.2942(2) 0.48918(19)
O3 O -0.2358(5) 0.2989(5) 0.1088(4)
N3 N 0.0677(6) 0.5946(6) 0.4345(5)
C3 C 0.3710(7) 0.4144(7) 0.1486(6)
S4 S 0.1439(2) 0.24357(16) 0.40093(15)
Na4 Na 0.0249(3) 0.5854(2) 0.20262(19)
O4 O -0.3388(5) 0.3756(5) 0.2689(5)
N4 N 0.2707(8) 0.3553(7) 0.4839(7)
C4 C 0.4424(8) 0.2188(7) 0.1833(6)
S5 S 0.10725(18) 0.07463(15) 0.30309(13)
Na5 Na 0.2719(3) 0.0553(3) 0.3704(2)
O5 O -0.1884(6) 0.1180(5) 0.2459(4)
N5 N 0.0407(7) -0.1389(5) 0.4309(5)
C5 C 0.0764(6) 0.4385(6) 0.3947(5)
S6 S -0.10937(17) 0.22880(14) 0.36470(12)
O6 O -0.2364(6) 0.3385(6) 0.5313(5)
N6 N -0.2053(6) 0.0371(6) 0.5072(5)
C6 C 0.1424(7) 0.3554(6) 0.4144(5)
S7 S -0.08629(17) 0.44535(15) 0.20347(12)
O7 O 0.1236(6) 0.6617(5) 0.2286(5)
N7 N -0.1740(6) 0.5967(5) 0.0355(4)
C7 C 0.0729(7) 0.5250(6) 0.4164(5)
S8 S 0.02308(17) 0.24819(14) 0.12641(12)
O8 O -0.1188(5) 0.7030(5) 0.2453(4)
N8 N -0.0321(6) 0.3630(6) -0.0638(4)
C8 C 0.2138(8) 0.3566(7) 0.4534(6)
O9 O 0.3850(5) 0.0819(5) 0.4266(4)
C9 C 0.0086(7) 0.0437(6) 0.3736(5)
O10 O 0.3765(8) -0.0771(7) 0.3160(5)
C10 C -0.0762(7) 0.1048(6) 0.3974(5)
C11 C 0.0257(7) -0.0570(6) 0.4060(5)
C12 C -0.1485(7) 0.0665(6) 0.4574(5)
C13 C -0.0810(6) 0.4381(6) 0.1093(5)
C14 C -0.0353(6) 0.3575(6) 0.0776(5)
C15 C -0.1324(6) 0.5244(6) 0.0671(5)
C16 C -0.0359(6) 0.3610(5) -0.0003(5)
C17 C 0.4186(12) 0.3217(11) -0.0554(11)
H1 H 0.3959 0.3484 -0.1039
H2 H 0.3946 0.3727 -0.0240
C18 C 0.5158(14) 0.2940(14) -0.0708(16)
H3 H 0.5412 0.3388 -0.0557
H4 H 0.5418 0.2951 -0.1267
C19 C 0.5477(10) 0.1956(13) -0.0278(9)
H5 H 0.5994 0.1541 -0.0614
H6 H 0.5726 0.1963 0.0163
C20 C 0.4580(8) 0.1626(10) -0.0015(7)
H7 H 0.4625 0.1129 -0.0300
H8 H 0.4478 0.1344 0.0541
C21 C 0.2533(17) 0.0789(15) -0.0351(9)
H9 H 0.3109 0.0251 -0.0486
H10 H 0.2606 0.1373 -0.0743
C22 C 0.1644(17) 0.0554(18) -0.0333(10)
H11 H 0.1785 0.0078 -0.0665
H12 H 0.1156 0.1139 -0.0512
C23 C 0.1285(13) 0.0153(11) 0.0468(9)
H13 H 0.1293 -0.0530 0.0529
H14 H 0.0611 0.0522 0.0668
C24 C 0.2005(11) 0.0244(9) 0.0886(7)
H15 H 0.1655 0.0470 0.1376
H16 H 0.2487 -0.0380 0.0994
C25 C -0.2133(9) 0.2240(8) 0.0671(7)
H17 H -0.2516 0.1767 0.0951
H18 H -0.1429 0.1902 0.0596
C26 C -0.2396(10) 0.2714(10) -0.0095(7)
H19 H -0.1813 0.2810 -0.0503
H20 H -0.2724 0.2333 -0.0252
C27 C -0.3067(17) 0.3636(15) 0.0077(11)
H21 H -0.2876 0.4168 -0.0328
H22 H -0.3739 0.3647 0.0075
C28 C -0.3058(11) 0.3777(10) 0.0784(8)
H23 H -0.3711 0.3817 0.1134
H24 H -0.2883 0.4385 0.0724
C29 C -0.3634(10) 0.4784(8) 0.2584(8)
H25 H -0.3309 0.5060 0.2063
H26 H -0.3425 0.4983 0.2967
C30 C -0.4719(11) 0.5120(11) 0.2689(10)
H27 H -0.4906 0.5305 0.2188
H28 H -0.4990 0.5679 0.2954
C31 C -0.5074(10) 0.4271(11) 0.3173(9)
H29 H -0.5170 0.4258 0.3727
H30 H -0.5694 0.4268 0.3070
C32 C -0.4259(9) 0.3452(10) 0.2914(9)
H31 H -0.4212 0.2886 0.3337
H32 H -0.4372 0.3271 0.2475
C33 C -0.2757(8) 0.0894(8) 0.2826(7)
H33 H -0.3299 0.1312 0.2583
H34 H -0.2940 0.0935 0.3378
C34 C -0.2549(9) -0.0117(9) 0.2732(8)
H35 H -0.2939 -0.0483 0.3167
H36 H -0.2680 -0.0146 0.2245
C35 C -0.1493(9) -0.0481(8) 0.2724(8)
H37 H -0.1191 -0.1050 0.2473
H38 H -0.1383 -0.0657 0.3252
C36 C -0.1089(8) 0.0364(8) 0.2265(7)
H39 H -0.0499 0.0356 0.2419
H40 H -0.0925 0.0363 0.1706
C37 C -0.2831(14) 0.4290(11) 0.4974(15)
H41 H -0.2370 0.4525 0.4510
H42 H -0.3010 0.4737 0.5336
C38 C -0.362(2) 0.431(2) 0.4777(18)
H43 H -0.4170 0.4842 0.4960
H44 H -0.3505 0.4406 0.4211
C39 C -0.3838(18) 0.338(2) 0.5138(18)
H45 H -0.3871 0.3051 0.4748
H46 H -0.4466 0.3462 0.5524
C40 C -0.3048(10) 0.2850(11) 0.5491(10)
H47 H -0.2736 0.2232 0.5307
H48 H -0.3292 0.2705 0.6055
C41 C 0.2224(9) 0.6175(9) 0.2334(7)
H49 H 0.2279 0.5558 0.2707
H50 H 0.2638 0.6047 0.1826
C42 C 0.2530(11) 0.6880(13) 0.2598(12)
H51 H 0.3200 0.6912 0.2314
H52 H 0.2520 0.6681 0.3154
C43 C 0.1871(11) 0.7771(10) 0.2457(10)
H53 H 0.1759 0.8145 0.2860
H54 H 0.2118 0.8146 0.1951
C44 C 0.0933(9) 0.7548(8) 0.2465(8)
H55 H 0.0598 0.8023 0.2078
H56 H 0.0483 0.7558 0.2978
C45 C -0.1742(9) 0.6938(8) 0.3227(6)
H57 H -0.1331 0.6501 0.3581
H58 H -0.2013 0.7573 0.3386
C46 C -0.2555(9) 0.6524(9) 0.3233(8)
H59 H -0.2364 0.5811 0.3363
H60 H -0.3161 0.6774 0.3604
C47 C -0.2686(10) 0.6874(9) 0.2404(8)
H61 H -0.3334 0.7333 0.2390
H62 H -0.2627 0.6325 0.2171
C48 C -0.1882(9) 0.7361(8) 0.1982(7)
H63 H -0.2139 0.8070 0.1913
H64 H -0.1580 0.7180 0.1470
C49 C 0.3416(9) 0.0932(8) 0.5057(6)
H65 H 0.2787 0.1433 0.5097
H66 H 0.3302 0.0318 0.5384
C50 C 0.4161(9) 0.1231(9) 0.5298(7)
H67 H 0.4600 0.0663 0.5553
H68 H 0.3832 0.1690 0.5656
C51 C 0.4721(10) 0.1699(9) 0.4562(8)
H69 H 0.4610 0.2390 0.4559
H70 H 0.5430 0.1385 0.4496
C52 C 0.4343(9) 0.1574(9) 0.3923(7)
H71 H 0.4890 0.1388 0.3487
H72 H 0.3885 0.2179 0.3735
C53 C 0.3813(12) -0.0962(11) 0.2417(10)
H73 H 0.3831 -0.1642 0.2452
H74 H 0.3254 -0.0534 0.2199
C54 C 0.477(2) -0.0740(14) 0.1948(9)
H75 H 0.5215 -0.1273 0.1688
H76 H 0.4671 -0.0132 0.1568
C55 C 0.512(2) -0.065(2) 0.262(2)
H77 H 0.5017 0.0038 0.2628
H78 H 0.5825 -0.0971 0.2566
C56 C 0.465(2) -0.103(2) 0.3225(18)
H79 H 0.4901 -0.1741 0.3300
H80 H 0.4705 -0.0812 0.3670
Na1A Na -0.2228(3) 0.7435(3) -0.0547(2)
Na3A Na 0.0666(3) 0.7058(2) 0.51082(19)
Na3A_2 Na 0.0666(3) -0.2942(2) 0.51082(19)
N3A N -0.0677(6) 0.4054(6) 0.5655(5)
Na4A Na -0.0249(3) 0.4146(2) -0.20262(19)
Na5A Na -0.2719(3) -0.0553(3) 0.6296(2)
N5A N -0.0407(7) 0.1389(5) 0.5691(5)
N6A N 0.2053(6) -0.0371(6) 0.4928(5)
N7A N 0.1740(6) 0.4033(5) -0.0355(4)
N8A N 0.0321(6) 0.6370(6) 0.0638(4)
loop_
_geom_bond_atom_site_label_1
_geom_bond_atom_site_label_2
_geom_bond_site_symmetry_1
_geom_bond_site_symmetry_2
Ce1 S1 1_555 1_555
S1 C1 1_555 1_555
Na1 O1 1_555 1_555
O1 C17 1_555 1_555
N1 C3 1_555 1_555
C1 C2 1_555 1_555
S2 Ce1 1_555 1_555
Na2 O3 1_555 1_555
O2 Na1 1_555 1_555
N2 C4 1_555 1_555
C2 S2 1_555 1_555
S3 Ce1 1_555 1_555
Na3 S3 1_555 1_555
O3 C25 1_555 1_555
N3 C7 1_555 1_555
C3 C1 1_555 1_555
S4 Ce1 1_555 1_555
Na4 S1 1_555 1_555
O4 Na2 1_555 1_555
N4 C8 1_555 1_555
C4 C2 1_555 1_555
S5 Ce1 1_555 1_555
Na5 S4 1_555 1_555
O5 Na2 1_555 1_555
N5 C11 1_555 1_555
C5 S3 1_555 1_555
S6 Ce1 1_555 1_555
O6 Na3 1_555 1_555
N6 C12 1_555 1_555
C6 S4 1_555 1_555
S7 Ce1 1_555 1_555
O7 Na4 1_555 1_555
N7 C15 1_555 1_555
C7 C5 1_555 1_555
S8 Ce1 1_555 1_555
O8 Na4 1_555 1_555
N8 C16 1_555 1_555
C8 C6 1_555 1_555
O9 Na5 1_555 1_555
C9 S5 1_555 1_555
O10 Na5 1_555 1_555
C10 S6 1_555 1_555
C11 C9 1_555 1_555
C12 C10 1_555 1_555
C13 S7 1_555 1_555
C14 S8 1_555 1_555
C15 C13 1_555 1_555
C16 C14 1_555 1_555
C17 H1 1_555 1_555
H2 C17 1_555 1_555
C18 C17 1_555 1_555
H3 C18 1_555 1_555
H4 C18 1_555 1_555
C19 C18 1_555 1_555
H5 C19 1_555 1_555
H6 C19 1_555 1_555
C20 O1 1_555 1_555
H7 C20 1_555 1_555
H8 C20 1_555 1_555
C21 O2 1_555 1_555
H9 C21 1_555 1_555
H10 C21 1_555 1_555
C22 C21 1_555 1_555
H11 C22 1_555 1_555
H12 C22 1_555 1_555
C23 C22 1_555 1_555
H13 C23 1_555 1_555
H14 C23 1_555 1_555
C24 O2 1_555 1_555
H15 C24 1_555 1_555
H16 C24 1_555 1_555
C25 H17 1_555 1_555
H18 C25 1_555 1_555
C26 C25 1_555 1_555
H19 C26 1_555 1_555
H20 C26 1_555 1_555
C27 C26 1_555 1_555
H21 C27 1_555 1_555
H22 C27 1_555 1_555
C28 O3 1_555 1_555
H23 C28 1_555 1_555
H24 C28 1_555 1_555
C29 O4 1_555 1_555
H25 C29 1_555 1_555
H26 C29 1_555 1_555
C30 C29 1_555 1_555
H27 C30 1_555 1_555
H28 C30 1_555 1_555
C31 C30 1_555 1_555
H29 C31 1_555 1_555
H30 C31 1_555 1_555
C32 O4 1_555 1_555
H31 C32 1_555 1_555
H32 C32 1_555 1_555
C33 O5 1_555 1_555
H33 C33 1_555 1_555
H34 C33 1_555 1_555
C34 C33 1_555 1_555
H35 C34 1_555 1_555
H36 C34 1_555 1_555
C35 C34 1_555 1_555
H37 C35 1_555 1_555
H38 C35 1_555 1_555
C36 O5 1_555 1_555
H39 C36 1_555 1_555
H40 C36 1_555 1_555
C37 O6 1_555 1_555
H41 C37 1_555 1_555
H42 C37 1_555 1_555
C38 C37 1_555 1_555
H43 C38 1_555 1_555
H44 C38 1_555 1_555
C39 C38 1_555 1_555
H45 C39 1_555 1_555
H46 C39 1_555 1_555
C40 O6 1_555 1_555
H47 C40 1_555 1_555
H48 C40 1_555 1_555
C41 O7 1_555 1_555
H49 C41 1_555 1_555
H50 C41 1_555 1_555
C42 C41 1_555 1_555
H51 C42 1_555 1_555
H52 C42 1_555 1_555
C43 C42 1_555 1_555
H53 C43 1_555 1_555
H54 C43 1_555 1_555
C44 O7 1_555 1_555
H55 C44 1_555 1_555
H56 C44 1_555 1_555
C45 O8 1_555 1_555
H57 C45 1_555 1_555
H58 C45 1_555 1_555
C46 C45 1_555 1_555
H59 C46 1_555 1_555
H60 C46 1_555 1_555
C47 C46 1_555 1_555
H61 C47 1_555 1_555
H62 C47 1_555 1_555
C48 O8 1_555 1_555
H63 C48 1_555 1_555
H64 C48 1_555 1_555
C49 O9 1_555 1_555
H65 C49 1_555 1_555
H66 C49 1_555 1_555
C50 C49 1_555 1_555
H67 C50 1_555 1_555
H68 C50 1_555 1_555
C51 C50 1_555 1_555
H69 C51 1_555 1_555
H70 C51 1_555 1_555
C52 O9 1_555 1_555
H71 C52 1_555 1_555
H72 C52 1_555 1_555
C53 O10 1_555 1_555
H73 C53 1_555 1_555
H74 C53 1_555 1_555
C54 C53 1_555 1_555
H75 C54 1_555 1_555
H76 C54 1_555 1_555
C55 C54 1_555 1_555
H77 C55 1_555 1_555
H78 C55 1_555 1_555
C56 O10 1_555 1_555
H79 C56 1_555 1_555
H80 C56 1_555 1_555
Na1A N7 1_555 1_555
Na3A N3 1_555 1_555
Na3A_2 N5 1_555 1_555
N3A Na3 1_555 1_555
Na4A N8 1_555 1_555
Na5A N6 1_555 1_555
N5A Na3 1_555 1_555
N6A Na5 1_555 1_555
N7A Na1 1_555 1_555
N8A Na4 1_555 1_555
Na1 S2 1_555 1_555
Na1 S8 1_555 1_555
Na2 S6 1_555 1_555
Na2 S8 1_555 1_555
S3 Na4 1_555 1_555
Na3 S4 1_555 1_555
Na3 S6 1_555 1_555
Na4 S7 1_555 1_555
S5 Na5 1_555 1_555
C5 C6 1_555 1_555
C9 C10 1_555 1_555
C13 C14 1_555 1_555
C19 C20 1_555 1_555
C23 C24 1_555 1_555
C27 C28 1_555 1_555
C31 C32 1_555 1_555
C35 C36 1_555 1_555
C39 C40 1_555 1_555
C43 C44 1_555 1_555
C47 C48 1_555 1_555
C51 C52 1_555 1_555
C55 C56 1_555 1_555

#END
