
#######################################################################
#
#                 Cambridge Crystallographic Data Centre
#                                CCDC 
#
#######################################################################
#
# If this CIF has been generated from an entry in the Cambridge 
# Structural Database, then it will include bibliographic, chemical, 
# crystal, experimental, refinement or atomic coordinate data resulting 
# from the CCDC's data processing and validation procedures.
#
#######################################################################

data_QEVKUY
_symmetry_cell_setting           monoclinic
_symmetry_space_group_name_H-M   'P 21/n'
_symmetry_Int_Tables_number      14
_space_group_name_Hall           '-P 2yn'
loop_
_symmetry_equiv_pos_site_id
_symmetry_equiv_pos_as_xyz
1 x,y,z
2 1/2-x,1/2+y,1/2-z
3 -x,-y,-z
4 1/2+x,1/2-y,1/2+z
_cell_length_a                   5.5001(5)
_cell_length_b                   22.689(2)
_cell_length_c                   17.2520(15)
_cell_angle_alpha                90
_cell_angle_beta                 93.429(5)
_cell_angle_gamma                90
_cell_volume                     2149.05
loop_
_atom_site_label
_atom_site_type_symbol
_atom_site_fract_x
_atom_site_fract_y
_atom_site_fract_z
W1 W 0.75171(5) 0.320730(14) -0.64174(2)
Cu1 Cu 0.7996(2) 0.34491(5) -0.48702(7)
Cu2 Cu 0.7326(2) 0.29322(5) -0.79569(7)
Cu3 Cu 0.25006(17) 0.32059(5) -0.64280(7)
S1 S 0.9732(4) 0.25129(10) -0.69489(14)
S2 S 0.4995(4) 0.36149(10) -0.73317(13)
S3 S 0.5308(4) 0.28011(10) -0.55201(13)
S4 S 0.9975(4) 0.38891(9) -0.58615(14)
N1 N -0.0523(14) 0.3491(3) 0.1417(4)
N2 N 0.2235(15) 0.3706(4) 0.0585(5)
N3 N 0.9931(16) 0.2970(4) -0.4085(5)
N4 N 0.6283(14) 0.4096(3) -0.4318(4)
N5 N 0.3859(15) 0.4549(4) -0.3550(5)
C1 C 0.1101(16) 0.3283(4) 0.0955(6)
H1 H 0.1418 0.2883 0.0895
C2 C -0.037(2) 0.4084(5) 0.1339(7)
H2 H -0.1292 0.4354 0.1602
C3 C 0.128(2) 0.4229(5) 0.0836(8)
H3 H 0.1703 0.4607 0.0686
C4 C 0.416(2) 0.3620(6) 0.0040(7)
H4 H 0.5665 0.3787 0.0262
H5 H 0.4412 0.3201 -0.0032
C5 C 0.3538(17) 0.3901(4) -0.0739(6)
C6 C 0.507(2) 0.4302(5) -0.1048(6)
H6 H 0.6462 0.4420 -0.0757
C7 C 0.460(2) 0.4536(6) -0.1779(7)
H7 H 0.5706 0.4798 -0.1977
C8 C 0.2545(19) 0.4388(5) -0.2214(6)
C9 C 0.099(2) 0.3985(5) -0.1914(7)
H8 H -0.0394 0.3869 -0.2211
C10 C 0.143(2) 0.3750(5) -0.1178(8)
H9 H 0.0315 0.3491 -0.0978
C11 C 0.4500(19) 0.4035(5) -0.3863(6)
H10 H 0.3755 0.3677 -0.3765
C12 C 0.681(2) 0.4676(5) -0.4292(6)
H11 H 0.8019 0.4854 -0.4565
C13 C 0.537(2) 0.4963(5) -0.3826(7)
H12 H 0.5388 0.5363 -0.3713
C14 C 0.193(2) 0.4640(7) -0.3004(7)
H13 H 0.1642 0.5060 -0.2954
H14 H 0.0439 0.4461 -0.3218
C15 C 1.0857(17) 0.2639(4) -0.3648(6)
Cu2_2 Cu -0.2674(2) 0.29322(5) 0.20431(7)
Cu2C Cu 1.2326(2) 0.20678(5) -0.29569(7)
Cu3_2 Cu 1.25006(17) 0.32059(5) -0.64280(7)
S1_2 S -0.0268(4) 0.25129(10) -0.69489(14)
S4_2 S -0.0025(4) 0.38891(9) -0.58615(14)
N1_2 N 0.9477(14) 0.3491(3) -0.8583(4)
C15C C 0.5857(17) 0.2361(4) -0.8648(6)
loop_
_geom_bond_atom_site_label_1
_geom_bond_atom_site_label_2
_geom_bond_site_symmetry_1
_geom_bond_site_symmetry_2
W1 S1 1_555 1_555
Cu1 S3 1_555 1_555
Cu2 S1 1_555 1_555
Cu3 S2 1_555 1_555
S1 Cu3_2 1_555 1_555
S2 W1 1_555 1_555
S3 W1 1_555 1_555
S4 W1 1_555 1_555
N1 C1 1_555 1_555
N2 C1 1_555 1_555
N3 Cu1 1_555 1_555
N4 Cu1 1_555 1_555
N5 C11 1_555 1_555
C1 H1 1_555 1_555
C2 N1 1_555 1_555
H2 C2 1_555 1_555
C3 N2 1_555 1_555
H3 C3 1_555 1_555
C4 N2 1_555 1_555
H4 C4 1_555 1_555
H5 C4 1_555 1_555
C5 C4 1_555 1_555
C6 C5 1_555 1_555
H6 C6 1_555 1_555
C7 C6 1_555 1_555
H7 C7 1_555 1_555
C8 C7 1_555 1_555
C9 C8 1_555 1_555
H8 C9 1_555 1_555
C10 C5 1_555 1_555
H9 C10 1_555 1_555
C11 N4 1_555 1_555
H10 C11 1_555 1_555
C12 N4 1_555 1_555
H11 C12 1_555 1_555
C13 N5 1_555 1_555
H12 C13 1_555 1_555
C14 N5 1_555 1_555
H13 C14 1_555 1_555
H14 C14 1_555 1_555
C15 N3 1_555 1_555
Cu2_2 N1 1_555 1_555
Cu2C C15 1_555 1_555
Cu3_2 S4 1_555 1_555
S1_2 Cu3 1_555 1_555
S4_2 Cu3 1_555 1_555
N1_2 Cu2 1_555 1_555
C15C Cu2 1_555 1_555
Cu1 S4 1_555 1_555
Cu2 S2 1_555 1_555
Cu3 S3 1_555 1_555
C2 C3 1_555 1_555
C8 C14 1_555 1_555
C9 C10 1_555 1_555
C12 C13 1_555 1_555

#END
