
#######################################################################
#
#                 Cambridge Crystallographic Data Centre
#                                CCDC 
#
#######################################################################
#
# If this CIF has been generated from an entry in the Cambridge 
# Structural Database, then it will include bibliographic, chemical, 
# crystal, experimental, refinement or atomic coordinate data resulting 
# from the CCDC's data processing and validation procedures.
#
#######################################################################

data_QEVLAF
_symmetry_cell_setting           triclinic
_symmetry_space_group_name_H-M   'P -1'
_symmetry_Int_Tables_number      2
_space_group_name_Hall           '-P 1'
loop_
_symmetry_equiv_pos_site_id
_symmetry_equiv_pos_as_xyz
1 x,y,z
2 -x,-y,-z
_cell_length_a                   10.566(3)
_cell_length_b                   12.616(4)
_cell_length_c                   17.495(6)
_cell_angle_alpha                71.369(6)
_cell_angle_beta                 87.414(10)
_cell_angle_gamma                77.259(9)
_cell_volume                     2154.66
loop_
_atom_site_label
_atom_site_type_symbol
_atom_site_fract_x
_atom_site_fract_y
_atom_site_fract_z
W1 W -0.96313(3) 0.90582(2) 0.159640(17)
Cu1 Cu -0.70486(8) 0.81973(8) 0.16959(6)
Cu2 Cu -1.00371(10) 0.73132(11) 0.28635(7)
Cu3 Cu -1.01860(9) 0.76000(11) 0.09174(8)
I1 I -0.90915(5) 0.52173(5) 0.24259(3)
S1 S -0.84889(17) 0.84639(19) 0.06339(12)
S2 S -0.84291(17) 0.83126(18) 0.27551(11)
S3 S -1.14468(16) 0.83347(16) 0.17883(12)
O1 O -1.0061(5) 1.0538(4) 0.1337(3)
N1 N -0.6207(6) 0.9642(5) 0.1198(4)
N2 N -0.4880(6) 1.0818(5) 0.0909(4)
N3 N -0.5536(6) 1.6876(5) 0.2081(4)
N4 N -0.4504(6) 1.5136(5) 0.2776(4)
N5 N -1.0769(6) 0.6655(6) 0.3907(4)
N6 N -1.1637(5) 0.5498(6) 0.4898(4)
N7 N -1.0852(5) 0.6802(6) 0.0295(4)
N8 N -1.1639(5) 0.5526(5) -0.0007(4)
C1 C -0.5148(7) 0.9861(7) 0.1420(5)
H1 H -0.4645 0.9404 0.1878
C2 C -0.6645(8) 1.0506(7) 0.0499(5)
H2 H -0.7381 1.0577 0.0199
C3 C -0.5829(9) 1.1243(7) 0.0316(5)
H3 H -0.5902 1.1906 -0.0125
C4 C -0.3776(7) 1.1326(7) 0.0971(5)
H4 H -0.3642 1.1848 0.0446
H5 H -0.2999 1.0722 0.1123
C5 C -0.3970(7) 1.1963(6) 0.1575(5)
C6 C -0.2868(9) 1.2132(8) 0.1885(6)
H6 H -0.2050 1.1818 0.1738
C7 C -0.2980(9) 1.2762(9) 0.2409(7)
H7 H -0.2236 1.2889 0.2597
C8 C -0.4179(10) 1.3206(7) 0.2657(5)
C9 C -0.5259(9) 1.3026(8) 0.2348(6)
H8 H -0.6078 1.3326 0.2502
C10 C -0.5155(8) 1.2408(8) 0.1809(6)
H9 H -0.5899 1.2298 0.1609
C11 C -0.5653(7) 1.5842(7) 0.2510(5)
H10 H -0.6444 1.5623 0.2616
C12 C -0.4225(8) 1.6843(8) 0.2062(5)
H11 H -0.3839 1.7451 0.1795
C13 C -0.3594(7) 1.5781(8) 0.2496(6)
H12 H -0.2701 1.5532 0.2588
C14 C -0.4304(11) 1.3919(8) 0.3219(6)
H13 H -0.5030 1.3781 0.3569
H14 H -0.3523 1.3683 0.3556
C15 C -1.1117(7) 0.5665(7) 0.4175(5)
H15 H -1.1010 0.5142 0.3891
C16 C -1.1074(9) 0.7126(8) 0.4500(6)
H16 H -1.0936 0.7833 0.4490
C17 C -1.1615(8) 0.6409(9) 0.5116(6)
H17 H -1.1911 0.6534 0.5595
C18 C -1.2229(7) 0.4547(8) 0.5313(5)
H18 H -1.2074 0.4347 0.5889
H19 H -1.1818 0.3888 0.5151
C19 C -1.3672(7) 0.4806(7) 0.5144(4)
C20 C -1.4368(7) 0.4020(7) 0.5570(5)
H20 H -1.3950 0.3354 0.5961
C21 C -1.4311(7) 0.5790(7) 0.4579(5)
H21 H -1.3852 0.6336 0.4292
C22 C -1.1256(7) 0.5845(7) 0.0584(5)
H22 H -1.1273 0.5441 0.1131
C23 C -1.0984(7) 0.7104(6) -0.0526(5)
H23 H -1.0764 0.7748 -0.0895
C24 C -1.1481(7) 0.6323(7) -0.0717(5)
H24 H -1.1677 0.6329 -0.1232
C25 C -1.2186(7) 0.4503(7) 0.0108(6)
H25 H -1.1914 0.3957 0.0636
H26 H -1.1840 0.4142 -0.0293
C26 C -1.3647(6) 0.4791(6) 0.0040(5)
C27 C -1.4402(7) 0.5375(7) 0.0508(5)
H27 H -1.3998 0.5628 0.0857
C28 C -1.4267(7) 0.4410(7) -0.0469(5)
H28 H -1.3781 0.4007 -0.0785
W1_2 W -0.96313(3) -0.09418(2) 0.159640(17)
Cu1_2 Cu -0.70486(8) -0.18027(8) 0.16959(6)
Cu1_3 Cu -0.70486(8) 1.81973(8) 0.16959(6)
Cu2A Cu -1.99629(10) 0.26868(11) 0.71365(7)
Cu2_2 Cu -1.00371(10) -0.26868(11) 0.28635(7)
Cu3A Cu -1.98140(9) 0.24000(11) -0.09174(8)
Cu3_2 Cu -1.01860(9) -0.24000(11) 0.09174(8)
I1_2 I -0.90915(5) -0.47827(5) 0.24259(3)
S1_2 S -0.84889(17) -0.15361(19) 0.06339(12)
S2_2 S -0.84291(17) -0.16874(18) 0.27551(11)
S3_2 S -1.14468(16) -0.16653(16) 0.17883(12)
O1_2 O -1.0061(5) 0.0538(4) 0.1337(3)
N1_2 N -0.6207(6) -0.0358(5) 0.1198(4)
N2_2 N -0.4880(6) 0.0818(5) 0.0909(4)
N3_2 N -0.5536(6) 0.6876(5) 0.2081(4)
N3_3 N -0.5536(6) -0.3124(5) 0.2081(4)
N4_2 N -0.4504(6) 0.5136(5) 0.2776(4)
N5A N -1.9231(6) 0.3345(6) 0.6093(4)
N5_2 N -1.0769(6) -0.3345(6) 0.3907(4)
N6A N -1.8363(5) 0.4502(6) 0.5102(4)
N7A N -1.9148(5) 0.3198(6) -0.0295(4)
N7_2 N -1.0852(5) -0.3198(6) 0.0295(4)
N8A N -1.8361(5) 0.4474(5) 0.0007(4)
C1_2 C -0.5148(7) -0.0139(7) 0.1420(5)
H1_2 H -0.4645 -0.0596 0.1878
C2_2 C -0.6645(8) 0.0506(7) 0.0499(5)
H2_2 H -0.7381 0.0577 0.0199
C3_2 C -0.5829(9) 0.1243(7) 0.0316(5)
H3_2 H -0.5902 0.1906 -0.0125
C4_2 C -0.3776(7) 0.1326(7) 0.0971(5)
H4_2 H -0.3642 0.1848 0.0446
H5_2 H -0.2999 0.0722 0.1123
C5_2 C -0.3970(7) 0.1963(6) 0.1575(5)
C6_2 C -0.2868(9) 0.2132(8) 0.1885(6)
H6_2 H -0.2050 0.1818 0.1738
C7_2 C -0.2980(9) 0.2762(9) 0.2409(7)
H7_2 H -0.2236 0.2889 0.2597
C8_2 C -0.4179(10) 0.3206(7) 0.2657(5)
C9_2 C -0.5259(9) 0.3026(8) 0.2348(6)
H8_2 H -0.6078 0.3326 0.2502
C10_2 C -0.5155(8) 0.2408(8) 0.1809(6)
H9_2 H -0.5899 0.2298 0.1609
C11_2 C -0.5653(7) 0.5842(7) 0.2510(5)
H10_2 H -0.6444 0.5623 0.2616
C12_2 C -0.4225(8) 0.6843(8) 0.2062(5)
H11_2 H -0.3839 0.7451 0.1795
C13_2 C -0.3594(7) 0.5781(8) 0.2496(6)
H12_2 H -0.2701 0.5532 0.2588
C14_2 C -0.4304(11) 0.3919(8) 0.3219(6)
H13_2 H -0.5030 0.3781 0.3569
H14_2 H -0.3523 0.3683 0.3556
C15A C -1.8883(7) 0.4335(7) 0.5825(5)
H15A H -1.8990 0.4858 0.6109
C16A C -1.8926(9) 0.2874(8) 0.5500(6)
H16A H -1.9064 0.2167 0.5510
C17A C -1.8385(8) 0.3591(9) 0.4884(6)
H17A H -1.8089 0.3466 0.4405
C18A C -1.7771(7) 0.5453(8) 0.4687(5)
H18A H -1.7926 0.5653 0.4111
H19A H -1.8182 0.6112 0.4849
C19A C -1.6328(7) 0.5194(7) 0.4856(4)
C20A C -1.5632(7) 0.5980(7) 0.4430(5)
H20A H -1.6050 0.6646 0.4039
C21A C -1.5689(7) 0.4210(7) 0.5421(5)
H21A H -1.6148 0.3664 0.5708
C22A C -1.8744(7) 0.4155(7) -0.0584(5)
H22A H -1.8727 0.4559 -0.1131
C23A C -1.9016(7) 0.2896(6) 0.0526(5)
H23A H -1.9236 0.2252 0.0895
C24A C -1.8519(7) 0.3677(7) 0.0717(5)
H24A H -1.8323 0.3671 0.1232
C25A C -1.7814(7) 0.5497(7) -0.0108(6)
H25A H -1.8086 0.6043 -0.0636
H26A H -1.8160 0.5858 0.0293
C26A C -1.6353(6) 0.5209(6) -0.0040(5)
C27A C -1.5598(7) 0.4625(7) -0.0508(5)
H27A H -1.6002 0.4372 -0.0857
C28A C -1.5733(7) 0.5590(7) 0.0469(5)
H28A H -1.6219 0.5993 0.0785
O2 O -1.1297(16) 0.249(2) 0.4300(13)
N9 N -0.9932(15) 0.1457(12) 0.3566(10)
C29 C -1.048(2) 0.0421(16) 0.3837(14)
H29 H -1.1122 0.0495 0.4235
H30 H -0.9804 -0.0241 0.4066
H31 H -1.0884 0.0336 0.3384
C30 C -0.886(2) 0.1473(17) 0.2980(14)
H32 H -0.8557 0.2170 0.2874
H33 H -0.9171 0.1432 0.2486
H34 H -0.8156 0.0829 0.3204
C31 C -1.039(3) 0.2345(19) 0.3850(15)
H35 H -0.9959 0.2942 0.3678
O3 O -1.513(3) 0.931(3) 0.404(2)
O4 O -1.378(3) 0.854(3) 0.5563(18)
loop_
_geom_bond_atom_site_label_1
_geom_bond_atom_site_label_2
_geom_bond_site_symmetry_1
_geom_bond_site_symmetry_2
W1 S1 1_555 1_555
Cu1 S1 1_555 1_555
Cu2 I1 1_555 1_555
Cu3 S1 1_555 1_555
S2 W1 1_555 1_555
S3 W1 1_555 1_555
O1 W1 1_555 1_555
O2 C31 1_555 1_555
N1 Cu1 1_555 1_555
N2 C1 1_555 1_555
N3 C11 1_555 1_555
N4 C11 1_555 1_555
N5 Cu2 1_555 1_555
N6 C15 1_555 1_555
N7 Cu3 1_555 1_555
N8 C22 1_555 1_555
N9 C29 1_555 1_555
C1 N1 1_555 1_555
H1 C1 1_555 1_555
C2 N1 1_555 1_555
H2 C2 1_555 1_555
C3 N2 1_555 1_555
H3 C3 1_555 1_555
C4 N2 1_555 1_555
H4 C4 1_555 1_555
H5 C4 1_555 1_555
C5 C4 1_555 1_555
C6 C5 1_555 1_555
H6 C6 1_555 1_555
C7 C6 1_555 1_555
H7 C7 1_555 1_555
C8 C7 1_555 1_555
C9 C8 1_555 1_555
H8 C9 1_555 1_555
C10 C5 1_555 1_555
H9 C10 1_555 1_555
C11 H10 1_555 1_555
C12 N3 1_555 1_555
H11 C12 1_555 1_555
C13 N4 1_555 1_555
H12 C13 1_555 1_555
C14 N4 1_555 1_555
H13 C14 1_555 1_555
H14 C14 1_555 1_555
C15 N5 1_555 1_555
H15 C15 1_555 1_555
C16 N5 1_555 1_555
H16 C16 1_555 1_555
C17 N6 1_555 1_555
H17 C17 1_555 1_555
C18 N6 1_555 1_555
H18 C18 1_555 1_555
H19 C18 1_555 1_555
C19 C18 1_555 1_555
C20 C19 1_555 1_555
H20 C20 1_555 1_555
C21 C19 1_555 1_555
H21 C21 1_555 1_555
C22 N7 1_555 1_555
H22 C22 1_555 1_555
C23 N7 1_555 1_555
H23 C23 1_555 1_555
C24 N8 1_555 1_555
H24 C24 1_555 1_555
C25 N8 1_555 1_555
H25 C25 1_555 1_555
H26 C25 1_555 1_555
C26 C25 1_555 1_555
C27 C26 1_555 1_555
H27 C27 1_555 1_555
C28 C26 1_555 1_555
H28 C28 1_555 1_555
C29 H29 1_555 1_555
H30 C29 1_555 1_555
H31 C29 1_555 1_555
C30 N9 1_555 1_555
H32 C30 1_555 1_555
H33 C30 1_555 1_555
H34 C30 1_555 1_555
C31 N9 1_555 1_555
H35 C31 1_555 1_555
W1_2 S1_2 1_555 1_555
Cu1_2 S1_2 1_555 1_555
Cu1_3 N3 1_555 1_555
Cu2A N5A 1_555 1_555
Cu2_2 I1_2 1_555 1_555
Cu3A N7A 1_555 1_555
Cu3_2 S1_2 1_555 1_555
S2_2 W1_2 1_555 1_555
S3_2 W1_2 1_555 1_555
O1_2 W1_2 1_555 1_555
N1_2 Cu1_2 1_555 1_555
N2_2 C1_2 1_555 1_555
N3_2 Cu1 1_555 1_555
N3_3 Cu1_2 1_555 1_555
N4_2 C11_2 1_555 1_555
N5A C15A 1_555 1_555
N5_2 Cu2_2 1_555 1_555
N6A C15A 1_555 1_555
N7A C22A 1_555 1_555
N7_2 Cu3_2 1_555 1_555
N8A C22A 1_555 1_555
C1_2 N1_2 1_555 1_555
H1_2 C1_2 1_555 1_555
C2_2 N1_2 1_555 1_555
H2_2 C2_2 1_555 1_555
C3_2 N2_2 1_555 1_555
H3_2 C3_2 1_555 1_555
C4_2 N2_2 1_555 1_555
H4_2 C4_2 1_555 1_555
H5_2 C4_2 1_555 1_555
C5_2 C4_2 1_555 1_555
C6_2 C5_2 1_555 1_555
H6_2 C6_2 1_555 1_555
C7_2 C6_2 1_555 1_555
H7_2 C7_2 1_555 1_555
C8_2 C7_2 1_555 1_555
C9_2 C8_2 1_555 1_555
H8_2 C9_2 1_555 1_555
C10_2 C5_2 1_555 1_555
H9_2 C10_2 1_555 1_555
C11_2 N3_2 1_555 1_555
H10_2 C11_2 1_555 1_555
C12_2 N3_2 1_555 1_555
H11_2 C12_2 1_555 1_555
C13_2 N4_2 1_555 1_555
H12_2 C13_2 1_555 1_555
C14_2 N4_2 1_555 1_555
H13_2 C14_2 1_555 1_555
H14_2 C14_2 1_555 1_555
C15A H15A 1_555 1_555
C16A N5A 1_555 1_555
H16A C16A 1_555 1_555
C17A N6A 1_555 1_555
H17A C17A 1_555 1_555
C18A N6A 1_555 1_555
H18A C18A 1_555 1_555
H19A C18A 1_555 1_555
C19A C18A 1_555 1_555
C20A C21 1_555 1_555
H20A C20A 1_555 1_555
C21A C20 1_555 1_555
H21A C21A 1_555 1_555
C22A H22A 1_555 1_555
C23A N7A 1_555 1_555
H23A C23A 1_555 1_555
C24A N8A 1_555 1_555
H24A C24A 1_555 1_555
C25A N8A 1_555 1_555
H25A C25A 1_555 1_555
H26A C25A 1_555 1_555
C26A C25A 1_555 1_555
C27A C28 1_555 1_555
H27A C27A 1_555 1_555
C28A C27 1_555 1_555
H28A C28A 1_555 1_555
Cu1 S2 1_555 1_555
Cu2 S2 1_555 1_555
Cu2 S3 1_555 1_555
Cu3 S3 1_555 1_555
C2 C3 1_555 1_555
C8 C14 1_555 1_555
C9 C10 1_555 1_555
C12 C13 1_555 1_555
C16 C17 1_555 1_555
C23 C24 1_555 1_555
Cu1_2 S2_2 1_555 1_555
Cu2_2 S2_2 1_555 1_555
Cu2_2 S3_2 1_555 1_555
Cu3_2 S3_2 1_555 1_555
C2_2 C3_2 1_555 1_555
C8_2 C14_2 1_555 1_555
C9_2 C10_2 1_555 1_555
C12_2 C13_2 1_555 1_555
C16A C17A 1_555 1_555
C19A C20A 1_555 1_555
C19A C21A 1_555 1_555
C23A C24A 1_555 1_555
C26A C27A 1_555 1_555
C26A C28A 1_555 1_555

#END
