
#######################################################################
#
#                 Cambridge Crystallographic Data Centre
#                                CCDC 
#
#######################################################################
#
# If this CIF has been generated from an entry in the Cambridge 
# Structural Database, then it will include bibliographic, chemical, 
# crystal, experimental, refinement or atomic coordinate data resulting 
# from the CCDC's data processing and validation procedures.
#
#######################################################################

data_QEVSIT
_symmetry_cell_setting           monoclinic
_symmetry_space_group_name_H-M   'P 21/c'
_symmetry_Int_Tables_number      14
_space_group_name_Hall           '-P 2ybc'
loop_
_symmetry_equiv_pos_site_id
_symmetry_equiv_pos_as_xyz
1 x,y,z
2 -x,1/2+y,1/2-z
3 -x,-y,-z
4 x,1/2-y,1/2+z
_cell_length_a                   9.265(1)
_cell_length_b                   7.329(1)
_cell_length_c                   9.911(1)
_cell_angle_alpha                90
_cell_angle_beta                 100.89(1)
_cell_angle_gamma                90
_cell_volume                     660.869
loop_
_atom_site_label
_atom_site_type_symbol
_atom_site_fract_x
_atom_site_fract_y
_atom_site_fract_z
Ti1 Ti 0.9951(5) 0.1384(9) 0.7374(5)
P1 P 0.7900(6) 0.1320(10) 0.4080(6)
O1 O 0.9520(12) -0.1255(22) 0.7730(13)
O2 O 0.8310(11) 0.1240(19) 0.5770(11)
O3 O 0.8475(13) -0.0640(17) 0.3520(13)
O4 O 0.6160(11) 0.1365(17) 0.3810(12)
O5 O 0.8570(13) 0.2970(16) 0.3540(13)
N1 N 1.1480(12) 0.0980(22) 0.9435(15)
N2 N 1.5130(13) 0.1855(17) 1.0485(15)
C1 C 1.2900(15) 0.1400(26) 0.950(16)
C2 C 1.3690(17) 0.1857(28) 1.1200(17)
O1A O 1.0480(12) 0.3745(22) 0.7270(13)
O3B O 1.1525(13) 0.0640(17) 0.6480(13)
O5C O 0.8570(13) 0.2030(16) 0.8540(13)
Ti1A Ti 1.0049(5) -0.3616(9) 0.7626(5)
Ti1B Ti 1.0049(5) -0.1384(9) 0.2626(5)
Ti1C Ti 0.9951(5) 0.3616(9) 0.2374(5)
loop_
_geom_bond_atom_site_label_1
_geom_bond_atom_site_label_2
_geom_bond_site_symmetry_1
_geom_bond_site_symmetry_2
Ti1 O1 1_555 1_555
P1 O2 1_555 1_555
O1 Ti1A 1_555 1_555
O2 Ti1 1_555 1_555
O3 P1 1_555 1_555
O4 P1 1_555 1_555
O5 P1 1_555 1_555
N1 Ti1 1_555 1_555
N2 C2 1_555 1_555
C1 N1 1_555 1_555
C2 C1 1_555 1_555
O1A Ti1 1_555 1_555
O3B Ti1 1_555 1_555
O5C Ti1 1_555 1_555
Ti1B O3 1_555 1_555
Ti1C O5 1_555 1_555

#END
