
#######################################################################
#
#                 Cambridge Crystallographic Data Centre
#                                CCDC 
#
#######################################################################
#
# If this CIF has been generated from an entry in the Cambridge 
# Structural Database, then it will include bibliographic, chemical, 
# crystal, experimental, refinement or atomic coordinate data resulting 
# from the CCDC's data processing and validation procedures.
#
#######################################################################

data_QEVSEP
_symmetry_cell_setting           monoclinic
_symmetry_space_group_name_H-M   'P 21/c'
_symmetry_Int_Tables_number      14
_space_group_name_Hall           '-P 2ybc'
loop_
_symmetry_equiv_pos_site_id
_symmetry_equiv_pos_as_xyz
1 x,y,z
2 -x,1/2+y,1/2-z
3 -x,-y,-z
4 x,1/2-y,1/2+z
_cell_length_a                   9.2272(3)
_cell_length_b                   7.3532(2)
_cell_length_c                   9.8496(2)
_cell_angle_alpha                90
_cell_angle_beta                 101.315(1)
_cell_angle_gamma                90
_cell_volume                     655.301
loop_
_atom_site_label
_atom_site_type_symbol
_atom_site_fract_x
_atom_site_fract_y
_atom_site_fract_z
V1 V 0.9891(1) 0.1234(1) 0.7355(1)
P1 P 0.7946(1) 0.1310(1) 0.4142(1)
F1 F 0.9411(2) -0.1294(2) 0.7750(2)
O1 O 0.8323(2) 0.1484(3) 0.5725(2)
O2 O 0.8619(2) -0.0433(2) 0.3677(2)
O3 O 0.6258(2) 0.1249(2) 0.3720(2)
O4 O 0.8508(2) 0.3014(2) 0.3515(2)
N1 N 1.1490(3) 0.1002(4) 0.9263(3)
N2 N 1.5077(3) 0.2901(3) 1.1209(3)
C1 C 1.2955(3) 0.1843(4) 0.9413(3)
C2 C 1.3851(3) 0.1560(4) 1.0863(3)
H1 H 1.575(3) 0.250(5) 1.204(4)
H2 H 1.563(3) 0.294(5) 1.057(4)
H3 H 1.106(4) 0.140(4) 0.998(4)
H4 H 1.469(4) 0.396(5) 1.123(4)
H5 H 1.166(4) -0.024(7) 0.947(4)
H6 H 1.430(3) 0.033(4) 1.096(3)
H7 H 1.321(3) 0.167(4) 1.153(3)
H8 H 1.344(3) 0.133(3) 0.864(3)
H9 H 1.279(3) 0.321(4) 0.926(3)
F1A F 1.0589(2) 0.3706(2) 0.7250(2)
O2B O 1.1381(2) 0.0433(2) 0.6323(2)
O4C O 0.8508(2) 0.1986(2) 0.8515(2)
V1A V 1.0109(1) -0.3766(1) 0.7645(1)
V1B V 1.0109(1) -0.1234(1) 0.2645(1)
V1C V 0.9891(1) 0.3766(1) 0.2355(1)
loop_
_geom_bond_atom_site_label_1
_geom_bond_atom_site_label_2
_geom_bond_site_symmetry_1
_geom_bond_site_symmetry_2
V1 F1 1_555 1_555
P1 O1 1_555 1_555
F1 V1A 1_555 1_555
O1 V1 1_555 1_555
O2 P1 1_555 1_555
O3 P1 1_555 1_555
O4 P1 1_555 1_555
N1 V1 1_555 1_555
N2 C2 1_555 1_555
C1 N1 1_555 1_555
C2 C1 1_555 1_555
H1 N2 1_555 1_555
H2 N2 1_555 1_555
H3 N1 1_555 1_555
H4 N2 1_555 1_555
H5 N1 1_555 1_555
H6 C2 1_555 1_555
H7 C2 1_555 1_555
H8 C1 1_555 1_555
H9 C1 1_555 1_555
F1A V1 1_555 1_555
O2B V1 1_555 1_555
O4C V1 1_555 1_555
V1B O2 1_555 1_555
V1C O4 1_555 1_555

#END
