
#######################################################################
#
#                 Cambridge Crystallographic Data Centre
#                                CCDC 
#
#######################################################################
#
# If this CIF has been generated from an entry in the Cambridge 
# Structural Database, then it will include bibliographic, chemical, 
# crystal, experimental, refinement or atomic coordinate data resulting 
# from the CCDC's data processing and validation procedures.
#
#######################################################################

data_QEVVUJ
_symmetry_cell_setting           monoclinic
_symmetry_space_group_name_H-M   'P 21'
_symmetry_Int_Tables_number      4
_space_group_name_Hall           'P 2yb'
loop_
_symmetry_equiv_pos_site_id
_symmetry_equiv_pos_as_xyz
1 x,y,z
2 -x,1/2+y,-z
_cell_length_a                   7.890(5)
_cell_length_b                   15.945(5)
_cell_length_c                   13.063(5)
_cell_angle_alpha                90.000(5)
_cell_angle_beta                 94.588(5)
_cell_angle_gamma                90.000(5)
_cell_volume                     1638.14
loop_
_atom_site_label
_atom_site_type_symbol
_atom_site_fract_x
_atom_site_fract_y
_atom_site_fract_z
Cu1 Cu 0.75761(8) 0.31304(4) 0.61299(5)
S1 S 0.44733(19) 0.16014(9) 0.63239(12)
S2 S 1.07176(18) 0.46228(9) 0.66212(12)
O1 O 0.3883(6) 0.0805(3) 0.5856(4)
O2 O 0.3342(6) 0.2297(3) 0.6046(4)
N1 N 0.7679(7) 0.3083(4) 0.4592(3)
O3 O 0.6259(6) 0.1783(3) 0.6127(3)
O4 O 1.1862(6) 0.3912(3) 0.6617(4)
N2 N 0.7429(7) 0.3219(4) -0.2336(4)
O5 O 1.1373(6) 0.5387(3) 0.6165(4)
O6 O 0.8989(6) 0.4435(3) 0.6188(3)
N3 N 0.7266(9) 0.3504(4) 0.0867(4)
C1 C 0.6769(8) 0.3912(4) -0.1917(5)
H1 H 0.6332 0.4337 -0.2348
C2 C 0.9686(8) 0.5596(4) 0.8212(5)
H2 H 0.9219 0.5954 0.7703
C3 C 0.4467(8) 0.1466(4) 0.7673(5)
C4 C 0.8006(8) 0.2592(4) -0.1711(5)
H3 H 0.8416 0.2109 -0.2004
C5 C 1.0544(9) 0.4874(4) 0.7950(5)
C6 C 0.6725(9) 0.4007(4) -0.0855(5)
H4 H 0.6283 0.4491 -0.0581
C7 C 0.7472(8) 0.3788(4) 0.4029(5)
H5 H 0.7323 0.4297 0.4358
N4 N 0.7850(8) 0.2896(4) 0.1378(4)
C8 C 0.3731(9) 0.2092(5) 0.8265(6)
H6 H 0.3152 0.2543 0.7950
C9 C 0.7361(9) 0.3360(4) -0.0215(5)
C10 C 1.1222(9) 0.4325(4) 0.8715(5)
H7 H 1.1816 0.3849 0.8541
C11 C 0.7951(8) 0.2350(4) 0.4130(5)
H8 H 0.8109 0.1869 0.4529
C12 C 0.8020(9) 0.2633(4) -0.0651(5)
H9 H 0.8451 0.2194 -0.0240
C13 C 0.5361(10) 0.0685(5) 0.9193(6)
H10 H 0.5870 0.0212 0.9501
C14 C 0.9536(9) 0.5777(5) 0.9242(6)
H11 H 0.9021 0.6276 0.9418
C15 C 1.0142(10) 0.5226(5) 1.0020(6)
C16 C 0.7760(9) 0.3005(4) 0.2483(5)
C17 C 0.4726(10) 0.1323(5) 0.9812(5)
C18 C 0.5230(9) 0.0759(5) 0.8143(6)
H12 H 0.5652 0.0337 0.7743
C19 C 0.7476(9) 0.3772(4) 0.2962(5)
H13 H 0.7295 0.4259 0.2577
C20 C 0.4971(12) 0.1273(7) 1.0978(7)
H14 H 0.5565 0.0765 1.1175
H15 H 0.3881 0.1274 1.1257
H16 H 0.5621 0.1747 1.1238
C21 C 0.8004(9) 0.2288(4) 0.3081(5)
H17 H 0.8199 0.1773 0.2778
C23 C 0.3896(11) 0.2014(5) 0.9343(6)
H21 H 0.3448 0.2427 0.9746
C24 C 1.0993(10) 0.4503(5) 0.9752(5)
H22 H 1.1414 0.4134 1.0262
C26 C 0.9881(12) 0.5423(6) 1.1122(6)
H23 H 0.9274 0.5943 1.1157
H24 H 1.0965 0.5471 1.1506
H25 H 0.9237 0.4982 1.1406
O8 O 0.5340(6) 0.3698(3) 0.5838(4)
O9 O 0.9733(6) 0.2476(3) 0.6369(4)
H29 H 0.502(7) 0.317(2) 0.613(4)
H30 H 1.027(7) 0.314(4) 0.612(4)
H32 H 0.52(2) 0.415(3) 0.630(8)
H33 H 1.080(8) 0.221(5) 0.627(11)
Cu1_2 Cu 0.75761(8) 0.31304(4) -0.38701(5)
N2_2 N 0.7429(7) 0.3219(4) 0.7664(4)
C22 C 0.6906(15) 0.7520(8) 0.6586(8)
H18 H 0.6757 0.7125 0.7126
H19 H 0.7766 0.7318 0.6167
H20 H 0.5853 0.7584 0.6171
O7 O 0.7569(19) 0.8446(10) 0.7974(6)
C25 C 0.7446(14) 0.8359(10) 0.7047(7)
C27 C 0.7722(15) 0.9057(8) 0.6348(8)
H26 H 0.8045 0.9549 0.6741
H27 H 0.6692 0.9167 0.5927
H28 H 0.8610 0.8913 0.5919
O10 O 0.4960(7) 0.5350(3) 0.6108(4)
H35 H 0.378(4) 0.548(5) 0.609(7)
H36 H 0.53(3) 0.477(4) 0.611(15)
O11 O 1.0277(7) 0.0890(3) 0.5798(5)
H31 H 1.144(3) 0.078(4) 0.575(5)
H34 H 0.960(6) 0.067(4) 0.523(3)
loop_
_geom_bond_atom_site_label_1
_geom_bond_atom_site_label_2
_geom_bond_site_symmetry_1
_geom_bond_site_symmetry_2
Cu1 N1 1_555 1_555
S1 O1 1_555 1_555
S2 O4 1_555 1_555
O2 S1 1_555 1_555
N1 C7 1_555 1_555
O3 Cu1 1_555 1_555
N2 C1 1_555 1_555
O5 S2 1_555 1_555
O6 Cu1 1_555 1_555
N3 N4 1_555 1_555
C1 H1 1_555 1_555
C2 H2 1_555 1_555
C3 S1 1_555 1_555
C4 N2 1_555 1_555
H3 C4 1_555 1_555
C5 S2 1_555 1_555
C6 C1 1_555 1_555
H4 C6 1_555 1_555
C7 H5 1_555 1_555
N4 C16 1_555 1_555
C8 C3 1_555 1_555
H6 C8 1_555 1_555
C9 N3 1_555 1_555
C10 C5 1_555 1_555
H7 C10 1_555 1_555
C11 N1 1_555 1_555
H8 C11 1_555 1_555
C12 C4 1_555 1_555
H9 C12 1_555 1_555
C13 H10 1_555 1_555
C14 C2 1_555 1_555
H11 C14 1_555 1_555
C15 C14 1_555 1_555
C16 C19 1_555 1_555
C17 C13 1_555 1_555
C18 C3 1_555 1_555
H12 C18 1_555 1_555
C19 C7 1_555 1_555
H13 C19 1_555 1_555
C20 C17 1_555 1_555
H14 C20 1_555 1_555
H15 C20 1_555 1_555
H16 C20 1_555 1_555
C21 C11 1_555 1_555
H17 C21 1_555 1_555
C22 H18 1_555 1_555
H19 C22 1_555 1_555
H20 C22 1_555 1_555
O7 C25 1_555 1_555
C23 C8 1_555 1_555
H21 C23 1_555 1_555
C24 C10 1_555 1_555
H22 C24 1_555 1_555
C25 C22 1_555 1_555
C26 C15 1_555 1_555
H23 C26 1_555 1_555
H24 C26 1_555 1_555
H25 C26 1_555 1_555
C27 C25 1_555 1_555
H26 C27 1_555 1_555
H27 C27 1_555 1_555
H28 C27 1_555 1_555
O8 Cu1 1_555 1_555
O9 Cu1 1_555 1_555
O10 H35 1_555 1_555
O11 H31 1_555 1_555
H29 O8 1_555 1_555
H30 O9 1_555 1_555
H32 O8 1_555 1_555
H33 O9 1_555 1_555
H34 O11 1_555 1_555
H36 O10 1_555 1_555
Cu1_2 N2 1_555 1_555
N2_2 Cu1 1_555 1_555
S1 O3 1_555 1_555
S2 O6 1_555 1_555
C2 C5 1_555 1_555
C6 C9 1_555 1_555
C9 C12 1_555 1_555
C13 C18 1_555 1_555
C15 C24 1_555 1_555
C16 C21 1_555 1_555
C17 C23 1_555 1_555

#END
