
#######################################################################
#
#                 Cambridge Crystallographic Data Centre
#                                CCDC 
#
#######################################################################
#
# If this CIF has been generated from an entry in the Cambridge 
# Structural Database, then it will include bibliographic, chemical, 
# crystal, experimental, refinement or atomic coordinate data resulting 
# from the CCDC's data processing and validation procedures.
#
#######################################################################

data_QEVWAQ
_symmetry_cell_setting           monoclinic
_symmetry_space_group_name_H-M   'P 21/c'
_symmetry_Int_Tables_number      14
_space_group_name_Hall           '-P 2ybc'
loop_
_symmetry_equiv_pos_site_id
_symmetry_equiv_pos_as_xyz
1 x,y,z
2 -x,1/2+y,1/2-z
3 -x,-y,-z
4 x,1/2-y,1/2+z
_cell_length_a                   24.3572(8)
_cell_length_b                   7.9688(2)
_cell_length_c                   17.4501(6)
_cell_angle_alpha                90
_cell_angle_beta                 105.1720(10)
_cell_angle_gamma                90
_cell_volume                     3268.97
loop_
_atom_site_label
_atom_site_type_symbol
_atom_site_fract_x
_atom_site_fract_y
_atom_site_fract_z
Cu1 Cu 0.5000 0.0000 0.5000
S1 S 0.55246(3) 0.31162(8) 0.40486(4)
Cu2 Cu 0.0000 0.0000 0.0000
N1 N 0.42449(10) 0.0112(3) 0.41843(14)
C1 C 0.37614(13) 0.0361(4) 0.44011(18)
H1 H 0.3784 0.0557 0.4934
C2 C 0.42052(13) -0.0175(4) 0.34156(17)
H2 H 0.4538 -0.0316 0.3257
C3 C 0.36950(14) -0.0269(5) 0.28516(19)
H3 H 0.3682 -0.0514 0.2326
C4 C 0.32347(13) 0.0340(4) 0.38694(19)
H4 H 0.2908 0.0543 0.4036
C5 C 0.32015(14) 0.0008(4) 0.30806(19)
N2 N 0.22883(12) 0.0696(4) 0.25874(17)
N3 N 0.07507(11) 0.0250(3) 0.08240(16)
N4 N 0.26844(13) -0.0129(4) 0.24729(17)
C6 C 0.12940(14) 0.1269(4) 0.2084(2)
H5 H 0.1306 0.1858 0.2548
C7 C 0.17764(13) 0.0520(4) 0.19655(19)
C8 C 0.12238(14) -0.0473(4) 0.0723(2)
H6 H 0.1200 -0.1080 0.0260
C9 C 0.07918(14) 0.1116(4) 0.1492(2)
H7 H 0.0468 0.1642 0.1562
C10 C 0.17391(15) -0.0359(4) 0.1267(2)
H8 H 0.2059 -0.0860 0.1171
O1 O 0.51132(9) 0.4090(3) 0.43281(13)
O2 O 0.54417(9) 0.1306(2) 0.40971(12)
O3 O 0.55540(10) 0.3618(3) 0.32585(12)
O4 O 0.52081(9) -0.2148(2) 0.45597(14)
C11 C 0.62000(13) 0.3553(3) 0.46951(17)
C12 C 0.66835(15) 0.2900(4) 0.4530(2)
H9 H 0.6653 0.2291 0.4067
C13 C 0.72092(16) 0.3148(5) 0.5050(2)
H10 H 0.7529 0.2691 0.4934
C14 C 0.62509(16) 0.4476(5) 0.5380(2)
H11 H 0.5929 0.4920 0.5497
C15 C 0.72718(17) 0.4065(5) 0.5742(3)
C16 C 0.6781(2) 0.4734(6) 0.5888(3)
H12 H 0.6812 0.5375 0.6343
C17 C 0.7849(2) 0.4316(8) 0.6312(3)
H13 H 0.7947 0.3346 0.6646
H14 H 0.7840 0.5287 0.6635
H15 H 0.8128 0.4477 0.6019
O5 O -0.03796(12) -0.0468(4) 0.08807(18)
O6 O -0.01119(14) 0.2801(3) 0.01252(19)
H29 H 0.5177(15) -0.240(4) 0.412(2)
H30 H 0.5182(18) -0.294(6) 0.484(2)
H31 H -0.064(2) -0.122(6) 0.083(3)
H32 H -0.047(2) 0.005(6) 0.105(3)
H33 H -0.0348(18) 0.338(5) 0.002(2)
H34 H 0.017(2) 0.327(6) 0.009(3)
S1B S 0.44754(3) -0.31162(8) 0.59514(4)
Cu2_2 Cu 1.0000 0.0000 1.0000
N1B N 0.57551(10) -0.0112(3) 0.58157(14)
C1B C 0.62386(13) -0.0361(4) 0.55989(18)
H1B H 0.6216 -0.0557 0.5066
C2B C 0.57948(13) 0.0175(4) 0.65844(17)
H2B H 0.5462 0.0316 0.6743
C3B C 0.63050(14) 0.0269(5) 0.71484(19)
H3B H 0.6318 0.0514 0.7674
C4B C 0.67653(13) -0.0340(4) 0.61306(19)
H4B H 0.7092 -0.0543 0.5964
C5B C 0.67985(14) -0.0008(4) 0.69194(19)
N2B N 0.77117(12) -0.0696(4) 0.74126(17)
N3B N 0.92493(11) -0.0250(3) 0.91760(16)
N3B_2 N -0.07507(11) -0.0250(3) -0.08240(16)
N4B N 0.73156(13) 0.0129(4) 0.75271(17)
C6B C 0.87060(14) -0.1269(4) 0.7916(2)
H5B H 0.8694 -0.1858 0.7452
C7B C 0.82236(13) -0.0520(4) 0.80345(19)
C8B C 0.87762(14) 0.0473(4) 0.9277(2)
H6B H 0.8800 0.1080 0.9740
C9B C 0.92082(14) -0.1116(4) 0.8508(2)
H7B H 0.9532 -0.1642 0.8438
C10B C 0.82609(15) 0.0359(4) 0.8733(2)
H8B H 0.7941 0.0860 0.8829
O1B O 0.48868(9) -0.4090(3) 0.56719(13)
O2B O 0.45583(9) -0.1306(2) 0.59029(12)
O3B O 0.44460(10) -0.3618(3) 0.67415(12)
O4B O 0.47919(9) 0.2148(2) 0.54403(14)
C11B C 0.38000(13) -0.3553(3) 0.53049(17)
C12B C 0.33165(15) -0.2900(4) 0.5470(2)
H9B H 0.3347 -0.2291 0.5933
C13B C 0.27908(16) -0.3148(5) 0.4950(2)
H10B H 0.2471 -0.2691 0.5066
C14B C 0.37491(16) -0.4476(5) 0.4620(2)
H11B H 0.4071 -0.4920 0.4503
C15B C 0.27282(17) -0.4065(5) 0.4258(3)
C16B C 0.3219(2) -0.4734(6) 0.4112(3)
H12B H 0.3188 -0.5375 0.3657
C17B C 0.2151(2) -0.4316(8) 0.3688(3)
H13B H 0.2053 -0.3346 0.3354
H14B H 0.2160 -0.5287 0.3365
H15B H 0.1872 -0.4477 0.3981
O5B O 0.03796(12) 0.0468(4) -0.08807(18)
O6B O 0.01119(14) -0.2801(3) -0.01252(19)
H29B H 0.4823(15) 0.240(4) 0.588(2)
H30B H 0.4818(18) 0.294(6) 0.516(2)
H31B H 0.064(2) 0.122(6) -0.083(3)
H32B H 0.047(2) -0.005(6) -0.105(3)
H33B H 0.0348(18) -0.338(5) -0.002(2)
H34B H -0.017(2) -0.327(6) -0.009(3)
S2 S 0.13131(4) 0.07055(12) 0.47254(8)
C18 C 0.19719(16) 0.0912(4) 0.5432(3)
C19 C 0.23888(19) 0.1959(5) 0.5295(3)
H16 H 0.2315 0.2638 0.4847
C20 C 0.2924(2) 0.1980(7) 0.5843(4)
H17 H 0.3202 0.2702 0.5756
C21 C 0.3054(2) 0.0968(7) 0.6506(4)
C22 C 0.2094(2) -0.0058(5) 0.6115(3)
H18 H 0.1811 -0.0726 0.6226
C23 C 0.2628(3) -0.0046(7) 0.6629(4)
H19 H 0.2704 -0.0741 0.7072
C24 C 0.3644(2) 0.0917(10) 0.7053(4)
H20 H 0.3917 0.0863 0.6745
H21 H 0.3683 -0.0055 0.7388
H22 H 0.3709 0.1910 0.7376
O7 O 0.08913(13) 0.0460(4) 0.5174(3)
O8 O 0.12242(14) 0.2234(4) 0.4257(2)
O9 O 0.13667(14) -0.0765(5) 0.4272(3)
O10 O 0.5073(4) 0.6882(10) 0.3052(5)
H35 H 0.4683(11) 0.655(3) 0.3118(16)
O11 O 0.0420(5) 0.5590(11) 0.2090(4)
H23 H 0.0457 0.5608 0.1636
C25 C 0.06209(15) 0.7095(4) 0.32698(17)
H24 H 0.0234 0.7317 0.3274
H25 H 0.0864 0.7956 0.3561
H26 H 0.0735 0.6025 0.3512
C26 C 0.0663(3) 0.7075(8) 0.2501(3)
H27 H 0.1061 0.7143 0.2501
H28 H 0.0470 0.8051 0.2223
H36? H 0.5209(19) 0.714(6) 0.309(4)
loop_
_geom_bond_atom_site_label_1
_geom_bond_atom_site_label_2
_geom_bond_site_symmetry_1
_geom_bond_site_symmetry_2
Cu1 N1 1_555 1_555
S1 O1 1_555 1_555
Cu2 N3 1_555 1_555
S2 C18 1_555 1_555
N1 C1 1_555 1_555
C1 H1 1_555 1_555
C2 N1 1_555 1_555
H2 C2 1_555 1_555
C3 C2 1_555 1_555
H3 C3 1_555 1_555
C4 C1 1_555 1_555
H4 C4 1_555 1_555
C5 C3 1_555 1_555
N2 N4 1_555 1_555
N3 C8 1_555 1_555
N4 C5 1_555 1_555
C6 H5 1_555 1_555
C7 N2 1_555 1_555
C8 H6 1_555 1_555
C9 N3 1_555 1_555
H7 C9 1_555 1_555
C10 C7 1_555 1_555
H8 C10 1_555 1_555
O2 Cu1 1_555 1_555
O3 S1 1_555 1_555
O4 Cu1 1_555 1_555
C11 S1 1_555 1_555
C12 C11 1_555 1_555
H9 C12 1_555 1_555
C13 C12 1_555 1_555
H10 C13 1_555 1_555
C14 C11 1_555 1_555
H11 C14 1_555 1_555
C15 C13 1_555 1_555
C16 C14 1_555 1_555
H12 C16 1_555 1_555
C17 C15 1_555 1_555
H13 C17 1_555 1_555
H14 C17 1_555 1_555
H15 C17 1_555 1_555
C18 C19 1_555 1_555
C19 H16 1_555 1_555
C20 C19 1_555 1_555
H17 C20 1_555 1_555
C21 C20 1_555 1_555
C22 C18 1_555 1_555
H18 C22 1_555 1_555
C23 C21 1_555 1_555
H19 C23 1_555 1_555
C24 C21 1_555 1_555
H20 C24 1_555 1_555
H21 C24 1_555 1_555
H22 C24 1_555 1_555
O5 Cu2 1_555 1_555
O6 Cu2 1_555 1_555
O7 S2 1_555 1_555
O8 S2 1_555 1_555
O9 S2 1_555 1_555
O10 H35 1_555 1_555
O11 H23 1_555 1_555
C25 H24 1_555 1_555
H25 C25 1_555 1_555
H26 C25 1_555 1_555
C26 O11 1_555 1_555
H27 C26 1_555 1_555
H28 C26 1_555 1_555
H29 O4 1_555 1_555
H30 O4 1_555 1_555
H31 O5 1_555 1_555
H32 O5 1_555 1_555
H33 O6 1_555 1_555
H34 O6 1_555 1_555
S1B O1B 1_555 1_555
Cu2_2 N3B 1_555 1_555
N1B Cu1 1_555 1_555
C1B N1B 1_555 1_555
H1B C1B 1_555 1_555
C2B N1B 1_555 1_555
H2B C2B 1_555 1_555
C3B C2B 1_555 1_555
H3B C3B 1_555 1_555
C4B C1B 1_555 1_555
H4B C4B 1_555 1_555
C5B C3B 1_555 1_555
N2B N4B 1_555 1_555
N3B C8B 1_555 1_555
N3B_2 Cu2 1_555 1_555
N4B C5B 1_555 1_555
C6B H5B 1_555 1_555
C7B N2B 1_555 1_555
C8B H6B 1_555 1_555
C9B N3B 1_555 1_555
H7B C9B 1_555 1_555
C10B C7B 1_555 1_555
H8B C10B 1_555 1_555
O2B Cu1 1_555 1_555
O3B S1B 1_555 1_555
O4B Cu1 1_555 1_555
C11B S1B 1_555 1_555
C12B C11B 1_555 1_555
H9B C12B 1_555 1_555
C13B C12B 1_555 1_555
H10B C13B 1_555 1_555
C14B C11B 1_555 1_555
H11B C14B 1_555 1_555
C15B C13B 1_555 1_555
C16B C14B 1_555 1_555
H12B C16B 1_555 1_555
C17B C15B 1_555 1_555
H13B C17B 1_555 1_555
H14B C17B 1_555 1_555
H15B C17B 1_555 1_555
O5B Cu2 1_555 1_555
O6B Cu2 1_555 1_555
H29B O4B 1_555 1_555
H30B O4B 1_555 1_555
H31B O5B 1_555 1_555
H32B O5B 1_555 1_555
H33B O6B 1_555 1_555
H34B O6B 1_555 1_555
S1 O2 1_555 1_555
C4 C5 1_555 1_555
C6 C7 1_555 1_555
C6 C9 1_555 1_555
C8 C10 1_555 1_555
C15 C16 1_555 1_555
C22 C23 1_555 1_555
C25 C26 1_555 1_555
S1B O2B 1_555 1_555
C4B C5B 1_555 1_555
C6B C7B 1_555 1_555
C6B C9B 1_555 1_555
C8B C10B 1_555 1_555
C15B C16B 1_555 1_555

#END
