
#######################################################################
#
#                 Cambridge Crystallographic Data Centre
#                                CCDC 
#
#######################################################################
#
# If this CIF has been generated from an entry in the Cambridge 
# Structural Database, then it will include bibliographic, chemical, 
# crystal, experimental, refinement or atomic coordinate data resulting 
# from the CCDC's data processing and validation procedures.
#
#######################################################################

data_QEVWEU
_symmetry_cell_setting           orthorhombic
_symmetry_space_group_name_H-M   'P b c a'
_symmetry_Int_Tables_number      61
_space_group_name_Hall           '-P 2ac 2ab'
loop_
_symmetry_equiv_pos_site_id
_symmetry_equiv_pos_as_xyz
1 x,y,z
2 1/2-x,-y,1/2+z
3 -x,1/2+y,1/2-z
4 1/2+x,1/2-y,-z
5 -x,-y,-z
6 1/2+x,y,1/2-z
7 x,1/2-y,1/2+z
8 1/2-x,1/2+y,z
_cell_length_a                   18.068(4)
_cell_length_b                   19.887(4)
_cell_length_c                   28.316(6)
_cell_angle_alpha                90
_cell_angle_beta                 90
_cell_angle_gamma                90
_cell_volume                     10174.5
loop_
_atom_site_label
_atom_site_type_symbol
_atom_site_fract_x
_atom_site_fract_y
_atom_site_fract_z
Pt1 Pt 0.47857(2) 0.34550(2) -0.191739(14)
Cl1 Cl 0.52336(14) 0.34018(14) -0.11547(9)
Cl2 Cl 0.59926(13) 0.33975(14) -0.21815(9)
N1 N 0.3709(4) 0.3510(4) -0.1730(3)
N2 N 0.4323(4) 0.3450(4) -0.2565(3)
C1 C 0.2431(6) 0.3646(6) -0.0693(4)
C2 C 0.2703(5) 0.3586(6) -0.1202(4)
C3 C 0.2199(5) 0.3536(6) -0.1566(4)
H1 H 0.1682 0.3546 -0.1505
C4 C 0.3452(6) 0.3566(5) -0.1285(4)
H2 H 0.3790 0.3591 -0.1029
C5 C 0.2464(5) 0.3471(6) -0.2017(3)
H3 H 0.2131 0.3426 -0.2275
C6 C 0.3227(5) 0.3470(5) -0.2094(4)
C7 C 0.3560(5) 0.3433(5) -0.2572(4)
C8 C 0.3159(6) 0.3424(6) -0.2988(4)
H4 H 0.2634 0.3412 -0.2983
C9 C 0.3543(6) 0.3433(6) -0.3414(4)
H5 H 0.3281 0.3444 -0.3705
C10 C 0.4683(6) 0.3432(5) -0.2979(4)
H6 H 0.5209 0.3424 -0.2976
C11 C 0.4318(6) 0.3424(5) -0.3411(4)
C12 C 0.4757(6) 0.3462(5) -0.3854(4)
O1 O 0.1775(4) 0.3772(4) -0.0620(3)
O2 O 0.2932(4) 0.3554(5) -0.0379(3)
O3 O 0.4435(4) 0.3476(4) -0.4255(3)
O4 O 0.5460(4) 0.3485(4) -0.3830(3)
Pt2 Pt -0.01781(2) 0.50900(2) -0.303338(15)
Cl3 Cl -0.13676(14) 0.51791(16) -0.27519(10)
Cl4 Cl -0.06438(15) 0.51640(16) -0.37918(10)
N3 N 0.0317(5) 0.5064(4) -0.2387(3)
N4 N 0.0893(4) 0.5046(4) -0.3232(3)
C13 C 0.2135(6) 0.4932(7) -0.4295(4)
C14 C 0.1886(6) 0.4977(6) -0.3788(4)
C15 C 0.1134(6) 0.5021(6) -0.3680(4)
H7 H 0.0784 0.5032 -0.3930
C16 C 0.2398(6) 0.4987(6) -0.3421(4)
H8 H 0.2914 0.4960 -0.3482
C17 C 0.2132(6) 0.5036(6) -0.2964(4)
H9 H 0.2472 0.5063 -0.2709
C18 C 0.1376(6) 0.5048(6) -0.2870(4)
C19 C 0.1062(6) 0.5055(6) -0.2399(4)
C20 C 0.1486(6) 0.5026(6) -0.1984(4)
H10 H 0.2012 0.5025 -0.1998
C21 C 0.1120(6) 0.5000(6) -0.1552(4)
H11 H 0.1392 0.4974 -0.1266
C22 C -0.0021(5) 0.5041(5) -0.1964(3)
H12 H -0.0547 0.5044 -0.1958
C23 C 0.0341(6) 0.5014(5) -0.1544(4)
C24 C -0.0068(6) 0.4975(5) -0.1079(4)
O5 O 0.2012(6) 0.5414(5) -0.4560(3)
O6 O 0.2462(5) 0.4406(5) -0.4407(3)
O7 O 0.0323(4) 0.4790(4) -0.0715(3)
O8 O -0.0732(4) 0.5125(4) -0.1067(3)
Pt3 Pt -0.08001(2) 0.32169(2) 0.187772(14)
Cl5 Cl -0.20109(14) 0.32578(16) 0.21410(10)
Cl6 Cl -0.12460(15) 0.31435(16) 0.11158(10)
N5 N 0.0284(5) 0.3238(4) 0.1695(3)
N6 N -0.0334(5) 0.3247(4) 0.2528(3)
C25 C -0.0774(6) 0.3303(5) 0.3822(4)
C26 C -0.0337(6) 0.3234(6) 0.3375(4)
C27 C 0.0422(6) 0.3157(6) 0.3376(4)
H13 H 0.0684 0.3106 0.3665
C28 C -0.0708(5) 0.3273(5) 0.2939(3)
H14 H -0.1231 0.3319 0.2934
C29 C 0.0805(7) 0.3156(6) 0.2942(4)
H15 H 0.1329 0.3116 0.2937
C30 C 0.0423(6) 0.3211(6) 0.2532(4)
C31 C 0.0777(5) 0.3246(5) 0.2056(3)
C32 C 0.1529(6) 0.3304(6) 0.1997(4)
H16 H 0.1857 0.3327 0.2259
C33 C 0.1790(6) 0.3329(6) 0.1526(4)
H17 H 0.2306 0.3364 0.1464
C34 C 0.0539(5) 0.3269(5) 0.1250(4)
H18 H 0.0199 0.3268 0.0994
C35 C 0.1295(6) 0.3302(5) 0.1160(3)
C36 C 0.1549(6) 0.3326(6) 0.0650(4)
O9 O -0.1440(4) 0.3503(4) 0.3797(3)
O10 O -0.0471(4) 0.3171(4) 0.4208(3)
O11 O 0.1066(4) 0.3282(4) 0.0334(2)
O12 O 0.2228(4) 0.3384(5) 0.0587(3)
Y1 Y 0.06116(5) 0.37847(5) -0.03398(3)
O13 O -0.0343(4) 0.4034(4) 0.0191(3)
O14 O 0.1139(4) 0.4653(4) 0.0135(3)
O15 O 0.0513(4) 0.2596(4) -0.0358(3)
Y2 Y 0.34121(5) 0.34969(6) 0.03431(4)
O16 O 0.4233(4) 0.2854(5) -0.0169(3)
O17 O 0.3174(5) 0.2348(4) 0.0478(3)
O18 O 0.4322(5) 0.4291(5) 0.0135(4)
O3E O -0.0565(4) 0.3476(4) -0.0745(3)
O4E O 0.0460(4) 0.3485(4) -0.1170(3)
O5A O 0.2988(6) 0.4586(5) 0.0440(3)
O9E O 0.3560(4) 0.3503(4) 0.1203(3)
O10E O 0.4529(4) 0.3171(4) 0.0792(3)
Y1E Y 0.56116(5) 0.37847(5) -0.46602(3)
Y2A Y 0.15879(5) 0.65031(6) -0.46569(4)
Y2E Y -0.15879(5) 0.34969(6) 0.46569(4)
O19 O -0.5714(6) 0.5765(6) 0.0211(4)
O20 O 0.2968(5) 0.6787(5) 0.0964(4)
O21 O -0.1675(7) 0.8268(6) 0.0220(5)
O22 O 0.6845(6) 0.5879(10) -0.4791(5)
O23 O -0.2165(7) 0.8942(9) 0.1094(6)
loop_
_geom_bond_atom_site_label_1
_geom_bond_atom_site_label_2
_geom_bond_site_symmetry_1
_geom_bond_site_symmetry_2
Pt1 Cl1 1_555 1_555
Cl2 Pt1 1_555 1_555
N1 Pt1 1_555 1_555
N2 Pt1 1_555 1_555
C1 C2 1_555 1_555
C2 C3 1_555 1_555
C3 H1 1_555 1_555
C4 N1 1_555 1_555
H2 C4 1_555 1_555
C5 C3 1_555 1_555
H3 C5 1_555 1_555
C6 N1 1_555 1_555
C7 N2 1_555 1_555
C8 C7 1_555 1_555
H4 C8 1_555 1_555
C9 C8 1_555 1_555
H5 C9 1_555 1_555
C10 N2 1_555 1_555
H6 C10 1_555 1_555
C11 C9 1_555 1_555
C12 C11 1_555 1_555
O1 C1 1_555 1_555
O2 C1 1_555 1_555
O3 C12 1_555 1_555
O4 C12 1_555 1_555
Pt2 Cl3 1_555 1_555
Cl4 Pt2 1_555 1_555
N3 Pt2 1_555 1_555
N4 Pt2 1_555 1_555
C13 C14 1_555 1_555
C14 C15 1_555 1_555
C15 N4 1_555 1_555
H7 C15 1_555 1_555
C16 C14 1_555 1_555
H8 C16 1_555 1_555
C17 C16 1_555 1_555
H9 C17 1_555 1_555
C18 N4 1_555 1_555
C19 N3 1_555 1_555
C20 C19 1_555 1_555
H10 C20 1_555 1_555
C21 C20 1_555 1_555
H11 C21 1_555 1_555
C22 N3 1_555 1_555
H12 C22 1_555 1_555
C23 C21 1_555 1_555
C24 C23 1_555 1_555
O5 C13 1_555 1_555
O6 C13 1_555 1_555
O7 C24 1_555 1_555
O8 C24 1_555 1_555
Pt3 Cl5 1_555 1_555
Cl6 Pt3 1_555 1_555
N5 Pt3 1_555 1_555
N6 Pt3 1_555 1_555
C25 C26 1_555 1_555
C26 C27 1_555 1_555
C27 H13 1_555 1_555
C28 N6 1_555 1_555
H14 C28 1_555 1_555
C29 C27 1_555 1_555
H15 C29 1_555 1_555
C30 N6 1_555 1_555
C31 N5 1_555 1_555
C32 C31 1_555 1_555
H16 C32 1_555 1_555
C33 C32 1_555 1_555
H17 C33 1_555 1_555
C34 N5 1_555 1_555
H18 C34 1_555 1_555
C35 C33 1_555 1_555
C36 C35 1_555 1_555
O9 C25 1_555 1_555
O10 C25 1_555 1_555
O11 C36 1_555 1_555
O12 C36 1_555 1_555
Y1 O1 1_555 1_555
O13 Y1 1_555 1_555
O14 Y1 1_555 1_555
O15 Y1 1_555 1_555
Y2 O2 1_555 1_555
O16 Y2 1_555 1_555
O17 Y2 1_555 1_555
O18 Y2 1_555 1_555
O3E Y1 1_555 1_555
O4E Y1 1_555 1_555
O5A Y2 1_555 1_555
O9E Y2 1_555 1_555
O10E Y2 1_555 1_555
Y1E O3 1_555 1_555
Y2A O5 1_555 1_555
Y2E O9 1_555 1_555
C2 C4 1_555 1_555
C5 C6 1_555 1_555
C6 C7 1_555 1_555
C10 C11 1_555 1_555
O4 Y1E 1_555 1_555
C17 C18 1_555 1_555
C18 C19 1_555 1_555
C22 C23 1_555 1_555
O7 Y1 1_555 1_555
C26 C28 1_555 1_555
C29 C30 1_555 1_555
C30 C31 1_555 1_555
C34 C35 1_555 1_555
O10 Y2E 1_555 1_555
O11 Y1 1_555 1_555
O12 Y2 1_555 1_555

#END
