
#######################################################################
#
#                 Cambridge Crystallographic Data Centre
#                                CCDC 
#
#######################################################################
#
# If this CIF has been generated from an entry in the Cambridge 
# Structural Database, then it will include bibliographic, chemical, 
# crystal, experimental, refinement or atomic coordinate data resulting 
# from the CCDC's data processing and validation procedures.
#
#######################################################################

data_QEWDIH
_symmetry_cell_setting           monoclinic
_symmetry_space_group_name_H-M   'P 21/c'
_symmetry_Int_Tables_number      14
_space_group_name_Hall           '-P 2ybc'
loop_
_symmetry_equiv_pos_site_id
_symmetry_equiv_pos_as_xyz
1 x,y,z
2 -x,1/2+y,1/2-z
3 -x,-y,-z
4 x,1/2-y,1/2+z
_cell_length_a                   10.0309(5)
_cell_length_b                   21.4943(10)
_cell_length_c                   10.5442(6)
_cell_angle_alpha                90
_cell_angle_beta                 93.6290(10)
_cell_angle_gamma                90
_cell_volume                     2268.85
loop_
_atom_site_label
_atom_site_type_symbol
_atom_site_fract_x
_atom_site_fract_y
_atom_site_fract_z
C1 C 0.7280(8) 0.3917(4) 0.9620(8)
H1 H 0.7515 0.3494 0.9774
C2 C 0.6225(8) 0.4070(4) 0.8762(8)
H2 H 0.5715 0.3742 0.8372
C3 C 0.9166(7) 0.4264(3) 1.1141(7)
C4 C 0.9478(8) 0.4647(4) 1.2182(8)
H3 H 0.8933 0.4996 1.2345
C5 C 1.0577(8) 0.4516(4) 1.2966(8)
H4 H 1.0787 0.4788 1.3659
C6 C 1.1092(8) 0.3661(4) 1.1821(7)
H5 H 1.1650 0.3314 1.1684
C7 C 0.9996(8) 0.3770(4) 1.0965(7)
H6 H 0.9826 0.3501 1.0259
C8 C 0.5066(7) 0.3288(3) 0.5716(7)
C9 C 0.5921(7) 0.2818(3) 0.6411(7)
C10 C 0.7249(6) 0.2973(3) 0.6781(7)
H7 H 0.7582 0.3372 0.6576
C11 C 0.8089(7) 0.2550(3) 0.7444(7)
C12 C 0.7577(7) 0.1970(3) 0.7732(7)
H8 H 0.8134 0.1677 0.8182
C13 C 0.6266(7) 0.1812(3) 0.7373(7)
C14 C 0.5442(8) 0.2238(3) 0.6707(7)
H9 H 0.4546 0.2128 0.6456
C15 C 0.5727(8) 0.1177(3) 0.7709(7)
C16 C 0.9489(7) 0.2729(3) 0.7868(7)
C17 C 1.0186(7) 0.2442(3) 0.8886(7)
H10 H 0.9764 0.2118 0.9326
C18 C 1.1473(7) 0.2612(3) 0.9277(7)
H11 H 1.1919 0.2412 0.9986
C19 C 1.2111(7) 0.3074(3) 0.8633(7)
H12 H 1.3001 0.3190 0.8890
C20 C 1.1435(7) 0.3367(3) 0.7604(7)
C21 C 1.0156(7) 0.3187(3) 0.7221(7)
H13 H 0.9718 0.3380 0.6498
C22 C 1.2106(7) 0.3871(3) 0.6847(7)
N1 N 1.1382(6) 0.4024(3) 1.2815(6)
O1 O 0.5426(5) 0.3846(2) 0.5730(5)
O2 O 0.3990(5) 0.3105(3) 0.5135(6)
O3 O 0.4476(5) 0.1122(3) 0.7644(5)
O4 O 0.6534(5) 0.0747(2) 0.7990(5)
O5 O 1.1613(5) 0.3978(3) 0.5750(5)
O6 O 1.3110(5) 0.4135(2) 0.7383(5)
O7 O 0.3664(4) 0.4863(2) 0.4542(5)
H14 H 0.301(8) 0.517(4) 0.444(12)
C23 C 0.6534(8) 0.5105(4) 0.9117(8)
H15 H 0.6263 0.5523 0.8963
C24 C 0.7568(8) 0.4997(3) 1.0007(7)
H16 H 0.7990 0.5335 1.0452
C25 C 0.7989(7) 0.4396(3) 1.0252(7)
N2 N 0.5890(6) 0.4655(3) 0.8456(6)
Cd1 Cd 0.45808(5) 0.48423(2) 0.65712(5)
Cd2 Cd 0.31026(6) 0.39177(3) 0.42287(6)
N1_2 N 0.1382(6) 0.4024(3) 0.2815(6)
O3C O 0.4476(5) 0.3878(3) 0.2644(5)
O4A O 0.3466(5) 0.5747(2) 0.7010(5)
O5_2 O 0.1613(5) 0.3978(3) 0.5750(5)
O6_2 O 0.3110(5) 0.4135(2) 0.7383(5)
O7B O 0.6336(4) 0.5137(2) 0.5458(5)
Cd1_2 Cd 1.45808(5) 0.48423(2) 0.65712(5)
Cd1A Cd 0.54192(5) -0.01577(2) 0.84288(5)
Cd1B Cd 0.54192(5) 0.51577(2) 0.34288(5)
Cd2_2 Cd 1.31026(6) 0.39177(3) 0.42287(6)
Cd2_3 Cd 1.31026(6) 0.39177(3) 1.42287(6)
Cd2C Cd 0.31026(6) 0.10823(3) 0.92287(6)
O8 O 0.1413(7) 0.5762(3) 0.4830(7)
loop_
_geom_bond_atom_site_label_1
_geom_bond_atom_site_label_2
_geom_bond_site_symmetry_1
_geom_bond_site_symmetry_2
C1 H1 1_555 1_555
C2 C1 1_555 1_555
H2 C2 1_555 1_555
C3 C4 1_555 1_555
C4 H3 1_555 1_555
C5 C4 1_555 1_555
H4 C5 1_555 1_555
C6 H5 1_555 1_555
C7 C3 1_555 1_555
H6 C7 1_555 1_555
C8 C9 1_555 1_555
C9 C10 1_555 1_555
C10 H7 1_555 1_555
C11 C10 1_555 1_555
C12 C11 1_555 1_555
H8 C12 1_555 1_555
C13 C12 1_555 1_555
C14 C9 1_555 1_555
H9 C14 1_555 1_555
C15 C13 1_555 1_555
C16 C11 1_555 1_555
C17 C16 1_555 1_555
H10 C17 1_555 1_555
C18 C17 1_555 1_555
H11 C18 1_555 1_555
C19 C18 1_555 1_555
H12 C19 1_555 1_555
C20 C19 1_555 1_555
C21 C16 1_555 1_555
H13 C21 1_555 1_555
C22 C20 1_555 1_555
N1 C5 1_555 1_555
O1 C8 1_555 1_555
O2 C8 1_555 1_555
O3 C15 1_555 1_555
O4 C15 1_555 1_555
O5 C22 1_555 1_555
O6 C22 1_555 1_555
O7 H14 1_555 1_555
C23 H15 1_555 1_555
C24 C23 1_555 1_555
H16 C24 1_555 1_555
C25 C1 1_555 1_555
N2 C2 1_555 1_555
Cd1 O1 1_555 1_555
Cd2 O1 1_555 1_555
N1_2 Cd2 1_555 1_555
O3C Cd2 1_555 1_555
O4A Cd1 1_555 1_555
O5_2 Cd2 1_555 1_555
O6_2 Cd1 1_555 1_555
O7B Cd1 1_555 1_555
Cd1_2 O6 1_555 1_555
Cd1A O4 1_555 1_555
Cd1B O7 1_555 1_555
Cd2_2 O5 1_555 1_555
Cd2_3 N1 1_555 1_555
Cd2C O3 1_555 1_555
C3 C25 1_555 1_555
C6 C7 1_555 1_555
C6 N1 1_555 1_555
C13 C14 1_555 1_555
C20 C21 1_555 1_555
O2 Cd2 1_555 1_555
O7 Cd1 1_555 1_555
O7 Cd2 1_555 1_555
C23 N2 1_555 1_555
C24 C25 1_555 1_555
N2 Cd1 1_555 1_555
O7B Cd1B 1_555 1_555

#END
