
#######################################################################
#
#                 Cambridge Crystallographic Data Centre
#                                CCDC 
#
#######################################################################
#
# If this CIF has been generated from an entry in the Cambridge 
# Structural Database, then it will include bibliographic, chemical, 
# crystal, experimental, refinement or atomic coordinate data resulting 
# from the CCDC's data processing and validation procedures.
#
#######################################################################

data_QEWDON
_symmetry_cell_setting           tetragonal
_symmetry_space_group_name_H-M   'P 4/n c c'
_symmetry_Int_Tables_number      130
_space_group_name_Hall           '-P 4a 2ac'
loop_
_symmetry_equiv_pos_site_id
_symmetry_equiv_pos_as_xyz
1 x,y,z
2 1/2-x,1/2-y,z
3 1/2-y,x,z
4 y,1/2-x,z
5 -x,1/2+y,1/2-z
6 1/2+x,-y,1/2-z
7 1/2+y,1/2+x,1/2-z
8 -y,-x,1/2-z
9 -x,-y,-z
10 1/2+x,1/2+y,-z
11 1/2+y,-x,-z
12 -y,1/2+x,-z
13 x,1/2-y,1/2+z
14 1/2-x,y,1/2+z
15 1/2-y,1/2-x,1/2+z
16 y,x,1/2+z
_cell_length_a                   16.2782(3)
_cell_length_b                   16.2782(3)
_cell_length_c                   30.4992(12)
_cell_angle_alpha                90
_cell_angle_beta                 90
_cell_angle_gamma                90
_cell_volume                     8081.67
loop_
_atom_site_label
_atom_site_type_symbol
_atom_site_fract_x
_atom_site_fract_y
_atom_site_fract_z
C1 C 0.5919(3) 0.0062(3) 0.15390(16)
C2 C 0.6377(3) 0.0058(3) 0.11526(16)
H1 H 0.6124 0.0215 0.0885
C3 C 0.7200(3) -0.0172(3) 0.11537(17)
C4 C 0.7544(3) -0.0425(3) 0.15474(15)
H2 H 0.8103 -0.0594 0.1553
C5 C 0.7086(3) -0.0436(3) 0.19395(15)
C6 C 0.6278(3) -0.0184(3) 0.19312(16)
H3 H 0.5965 -0.0179 0.2194
C7 C 0.7489(3) -0.0668(3) 0.23584(16)
C8 C 0.7690(3) -0.0124(3) 0.07415(17)
C9 C 0.7353(3) -0.0336(3) 0.03414(17)
H4 H 0.6801 -0.0522 0.0329
C10 C 0.7807(3) -0.0281(3) -0.00433(17)
C11 C 0.8617(3) 0.0005(4) -0.00265(18)
H5 H 0.8933 0.0047 -0.0288
C12 C 0.8955(3) 0.0224(4) 0.03725(18)
H6 H 0.9504 0.0420 0.0385
C13 C 0.8504(3) 0.0160(4) 0.07521(18)
H7 H 0.8745 0.0311 0.1024
C14 C 0.7435(3) -0.0540(3) -0.04660(17)
C15 C 0.3709(3) -0.1085(4) 0.1938(2)
H8 H 0.4255 -0.0982 0.2033
C16 C 0.3452(3) -0.1878(4) 0.1924(2)
H9 H 0.3815 -0.2305 0.2010
C17 C 0.2663(3) -0.2068(3) 0.1784(2)
C18 C 0.2189(4) -0.1408(4) 0.1666(3)
H10 H 0.1640 -0.1495 0.1570
C19 C 0.2497(4) -0.0619(4) 0.1684(2)
H11 H 0.2155 -0.0181 0.1588
N1 N 0.3245(3) -0.0440(3) 0.18266(15)
O1 O 0.7084(2) -0.0902(2) 0.26816(12)
O2 O 0.8268(2) -0.0585(2) 0.23707(11)
O3 O 0.6663(2) -0.0611(2) -0.04762(11)
O4 O 0.7859(2) -0.0670(3) -0.07984(12)
O5 O 0.32258(19) 0.14940(19) 0.15299(10)
H12 H 0.2714(13) 0.151(4) 0.1566(17)
C20 C 0.5060(3) 0.0394(3) 0.15408(16)
O6 O 0.47562(19) 0.0563(2) 0.19043(11)
O7 O 0.4714(2) 0.0477(2) 0.11728(11)
Zn1 Zn 0.36117(3) 0.09004(4) 0.20387(2)
Zn2 Zn 0.37532(3) 0.11400(4) 0.100303(19)
C15A C 0.1291(3) -0.3915(4) 0.1938(2)
H8A H 0.0745 -0.4018 0.2033
C16A C 0.1548(3) -0.3122(4) 0.1924(2)
H9A H 0.1185 -0.2695 0.2010
C17A C 0.2337(3) -0.2932(3) 0.1784(2)
C18A C 0.2811(4) -0.3592(4) 0.1666(3)
H10A H 0.3360 -0.3505 0.1570
C19A C 0.2503(4) -0.4381(4) 0.1684(2)
H11A H 0.2845 -0.4819 0.1588
N1A N 0.1755(3) -0.4560(3) 0.18266(15)
C1A C -0.0919(3) -0.5062(3) 0.15390(16)
C2A C -0.1377(3) -0.5058(3) 0.11526(16)
H1A H -0.1124 -0.5215 0.0885
C3A C -0.2200(3) -0.4828(3) 0.11537(17)
C4A C -0.2544(3) -0.4575(3) 0.15474(15)
H2A H -0.3103 -0.4406 0.1553
C5A C -0.2086(3) -0.4564(3) 0.19395(15)
C6A C -0.1278(3) -0.4816(3) 0.19312(16)
H3A H -0.0965 -0.4821 0.2194
C7A C -0.2489(3) -0.4332(3) 0.23584(16)
C8A C -0.2690(3) -0.4876(3) 0.07415(17)
C9A C -0.2353(3) -0.4664(3) 0.03414(17)
H4A H -0.1801 -0.4478 0.0329
C10A C -0.2807(3) -0.4719(3) -0.00433(17)
C11A C -0.3617(3) -0.5005(4) -0.00265(18)
H5A H -0.3933 -0.5047 -0.0288
C12A C -0.3955(3) -0.5224(4) 0.03725(18)
H6A H -0.4504 -0.5420 0.0385
C13A C -0.3504(3) -0.5160(4) 0.07521(18)
H7A H -0.3745 -0.5311 0.1024
C14A C -0.2435(3) -0.4460(3) -0.04660(17)
O1A O -0.2084(2) -0.4098(2) 0.26816(12)
O2A O -0.3268(2) -0.4415(2) 0.23707(11)
O3A O -0.1663(2) -0.4389(2) -0.04762(11)
O4A O -0.2859(2) -0.4330(3) -0.07984(12)
O5A O 0.17742(19) -0.64940(19) 0.15299(10)
H12A H 0.2286(13) -0.651(4) 0.1566(17)
C20A C -0.0060(3) -0.5394(3) 0.15408(16)
O6A O 0.02438(19) -0.5563(2) 0.19043(11)
O7A O 0.0286(2) -0.5477(2) 0.11728(11)
Zn1A Zn 0.13883(3) -0.59004(4) 0.20387(2)
Zn2A Zn 0.12468(3) -0.61400(4) 0.100303(19)
O1F O 0.4098(2) 0.2084(2) 0.23184(12)
O1G O 0.0902(2) -0.7084(2) 0.23184(12)
O2D O 0.1732(2) -0.5585(2) 0.26293(11)
O2E O 0.3268(2) 0.0585(2) 0.26293(11)
O3H O 0.3337(2) 0.0611(2) 0.04762(11)
O3I O 0.1663(2) -0.5611(2) 0.04762(11)
O4J O 0.4330(3) 0.2141(2) 0.07984(12)
O4K O 0.0670(3) -0.7141(2) 0.07984(12)
Zn1D Zn -0.36117(3) -0.40996(4) 0.29613(2)
Zn1E Zn 0.86117(3) -0.09004(4) 0.29613(2)
Zn1F Zn 0.59004(4) -0.13883(3) 0.29613(2)
Zn1G Zn -0.09004(4) -0.36117(3) 0.29613(2)
Zn2H Zn 0.62468(3) -0.11400(4) -0.100303(19)
Zn2I Zn -0.12468(3) -0.38600(4) -0.100303(19)
Zn2J Zn -0.38600(4) -0.37532(3) -0.100303(19)
Zn2K Zn 0.88600(4) -0.12468(3) -0.100303(19)
loop_
_geom_bond_atom_site_label_1
_geom_bond_atom_site_label_2
_geom_bond_site_symmetry_1
_geom_bond_site_symmetry_2
C1 C2 1_555 1_555
C2 H1 1_555 1_555
C3 C2 1_555 1_555
C4 C3 1_555 1_555
H2 C4 1_555 1_555
C5 C4 1_555 1_555
C6 C1 1_555 1_555
H3 C6 1_555 1_555
C7 C5 1_555 1_555
C8 C3 1_555 1_555
C9 C8 1_555 1_555
H4 C9 1_555 1_555
C10 C9 1_555 1_555
C11 C10 1_555 1_555
H5 C11 1_555 1_555
C12 C11 1_555 1_555
H6 C12 1_555 1_555
C13 C8 1_555 1_555
H7 C13 1_555 1_555
C14 C10 1_555 1_555
C15 H8 1_555 1_555
C16 C15 1_555 1_555
H9 C16 1_555 1_555
C17 C16 1_555 1_555
C18 C17 1_555 1_555
H10 C18 1_555 1_555
C19 C18 1_555 1_555
H11 C19 1_555 1_555
N1 C15 1_555 1_555
O1 C7 1_555 1_555
O2 C7 1_555 1_555
O3 C14 1_555 1_555
O4 C14 1_555 1_555
O5 H12 1_555 1_555
C20 C1 1_555 1_555
O6 C20 1_555 1_555
O7 C20 1_555 1_555
Zn1 N1 1_555 1_555
Zn2 O5 1_555 1_555
C15A H8A 1_555 1_555
C16A C15A 1_555 1_555
H9A C16A 1_555 1_555
C17A C17 1_555 1_555
C18A C17A 1_555 1_555
H10A C18A 1_555 1_555
C19A C18A 1_555 1_555
H11A C19A 1_555 1_555
N1A C15A 1_555 1_555
C1A C2A 1_555 1_555
C2A H1A 1_555 1_555
C3A C2A 1_555 1_555
C4A C3A 1_555 1_555
H2A C4A 1_555 1_555
C5A C4A 1_555 1_555
C6A C1A 1_555 1_555
H3A C6A 1_555 1_555
C7A C5A 1_555 1_555
C8A C3A 1_555 1_555
C9A C8A 1_555 1_555
H4A C9A 1_555 1_555
C10A C9A 1_555 1_555
C11A C10A 1_555 1_555
H5A C11A 1_555 1_555
C12A C11A 1_555 1_555
H6A C12A 1_555 1_555
C13A C8A 1_555 1_555
H7A C13A 1_555 1_555
C14A C10A 1_555 1_555
O1A C7A 1_555 1_555
O2A C7A 1_555 1_555
O3A C14A 1_555 1_555
O4A C14A 1_555 1_555
O5A H12A 1_555 1_555
C20A C1A 1_555 1_555
O6A C20A 1_555 1_555
O7A C20A 1_555 1_555
Zn1A N1A 1_555 1_555
Zn2A O5A 1_555 1_555
O1F Zn1 1_555 1_555
O1G Zn1A 1_555 1_555
O2D Zn1A 1_555 1_555
O2E Zn1 1_555 1_555
O3H Zn2 1_555 1_555
O3I Zn2A 1_555 1_555
O4J Zn2 1_555 1_555
O4K Zn2A 1_555 1_555
Zn1D O2A 1_555 1_555
Zn1E O2 1_555 1_555
Zn1F O1 1_555 1_555
Zn1G O1A 1_555 1_555
Zn2H O3 1_555 1_555
Zn2I O3A 1_555 1_555
Zn2J O4A 1_555 1_555
Zn2K O4 1_555 1_555
C5 C6 1_555 1_555
C12 C13 1_555 1_555
C19 N1 1_555 1_555
O5 Zn1 1_555 1_555
O6 Zn1 1_555 1_555
O7 Zn2 1_555 1_555
C16A C17A 1_555 1_555
C19A N1A 1_555 1_555
C5A C6A 1_555 1_555
C12A C13A 1_555 1_555
O5A Zn1A 1_555 1_555
O6A Zn1A 1_555 1_555
O7A Zn2A 1_555 1_555

#END
