
#######################################################################
#
#                 Cambridge Crystallographic Data Centre
#                                CCDC 
#
#######################################################################
#
# If this CIF has been generated from an entry in the Cambridge 
# Structural Database, then it will include bibliographic, chemical, 
# crystal, experimental, refinement or atomic coordinate data resulting 
# from the CCDC's data processing and validation procedures.
#
#######################################################################

data_QEWFOO
_symmetry_cell_setting           monoclinic
_symmetry_space_group_name_H-M   'C 2/m'
_symmetry_Int_Tables_number      12
_space_group_name_Hall           '-C 2y'
loop_
_symmetry_equiv_pos_site_id
_symmetry_equiv_pos_as_xyz
1 x,y,z
2 1/2+x,1/2+y,z
3 -x,y,-z
4 1/2-x,1/2+y,-z
5 -x,-y,-z
6 1/2-x,1/2-y,-z
7 x,-y,z
8 1/2+x,1/2-y,z
_cell_length_a                   9.5057(11)
_cell_length_b                   14.9669(17)
_cell_length_c                   10.3484(12)
_cell_angle_alpha                90
_cell_angle_beta                 110.275(2)
_cell_angle_gamma                90
_cell_volume                     1381.05
loop_
_atom_site_label
_atom_site_type_symbol
_atom_site_fract_x
_atom_site_fract_y
_atom_site_fract_z
Au1 Au 1.0000 0.38538(6) 0.5000
Au2 Au 0.7500 0.2500 0.5000
Ni1 Ni 0.6000(2) 0.5000 0.7733(2)
N1 N 0.5417(13) 0.4111(7) 0.9046(11)
N2 N 0.6518(14) 0.3996(8) 0.6644(12)
C1 C 0.5000 0.4490(11) 1.0000
N3 N 0.3781(19) 0.5000 0.6376(17)
N4 N 0.819(2) 0.5000 0.907(2)
C2 C 0.6916(15) 0.3409(8) 0.6073(12)
N5 N 0.875(2) 0.3842(13) 0.1727(17)
C3 C 0.540(2) 0.3209(9) 0.9002(16)
H1 H 0.5638 0.2906 0.8322
C4 C 0.5000 0.2733(18) 1.0000
H2 H 0.5000 0.2112 1.0000
C5 C 0.9181(18) 0.3859(12) 0.2934(18)
Au1G Au 1.5000 0.11462(6) 0.5000
Au1G_2 Au 0.5000 0.11462(6) 0.5000
Au2G Au 1.2500 0.2500 0.5000
Au2_2 Au 1.7500 0.2500 0.5000
Ni1E Ni 0.9000(2) 0.0000 0.2267(2)
Ni1D Ni 0.4000(2) 0.5000 1.2267(2)
Ni1A Ni 1.1000(2) 0.0000 0.7733(2)
Ni1D_2 Ni 1.4000(2) 0.5000 0.2267(2)
N1B N 0.4583(13) 0.4111(7) 1.0954(11)
N1F N 0.5417(13) 0.5889(7) 0.9046(11)
N1D N 0.4583(13) 0.5889(7) 1.0954(11)
N1E N 0.9583(13) 0.0889(7) 0.0954(11)
N1C N 0.9583(13) -0.0889(7) 0.0954(11)
N2E N 0.8482(14) 0.1004(8) 0.3356(12)
N2G N 1.1518(14) 0.1004(8) 0.6644(12)
N2B N 1.3482(14) 0.3996(8) 0.3356(12)
N2F N 0.6518(14) 0.6004(8) 0.6644(12)
N2C N 0.8482(14) -0.1004(8) 0.3356(12)
C1F C 0.5000 0.5510(11) 1.0000
N3E N 1.1219(19) 0.0000 0.3624(17)
N4E N 0.681(2) 0.0000 0.093(2)
C2E C 0.8084(15) 0.1591(8) 0.3927(12)
C2G C 1.1916(15) 0.1591(8) 0.6073(12)
C2B C 1.3084(15) 0.3409(8) 0.3927(12)
N5B N 1.125(2) 0.3842(13) 0.8273(17)
N5G N 1.375(2) 0.1158(13) 0.1727(17)
N5E N 1.625(2) 0.1158(13) 0.8273(17)
C3B C 0.460(2) 0.3209(9) 1.0998(16)
C3F C 0.540(2) 0.6791(9) 0.9002(16)
C3D C 0.460(2) 0.6791(9) 1.0998(16)
H1B H 0.4362 0.2906 1.1678
H1F H 0.5638 0.7094 0.8322
H1D H 0.4362 0.7094 1.1678
C4F C 0.5000 0.7267(18) 1.0000
H2F H 0.5000 0.7888 1.0000
C5B C 1.0819(18) 0.3859(12) 0.7066(18)
C5G C 1.4181(18) 0.1141(12) 0.2934(18)
C5E C 1.5819(18) 0.1141(12) 0.7066(18)
loop_
_geom_bond_atom_site_label_1
_geom_bond_atom_site_label_2
_geom_bond_site_symmetry_1
_geom_bond_site_symmetry_2
Au1 Au2 1_555 1_555
Au2 C2 1_555 1_555
Ni1 N1 1_555 1_555
N1 C1 1_555 1_555
N2 Ni1 1_555 1_555
C1 N1B 1_555 1_555
N3 Ni1 1_555 1_555
N4 Ni1 1_555 1_555
C2 N2 1_555 1_555
N5 C5 1_555 1_555
C3 N1 1_555 1_555
H1 C3 1_555 1_555
C4 C3 1_555 1_555
H2 C4 1_555 1_555
C5 Au1 1_555 1_555
Au1G Au2G 1_555 1_555
Au1G_2 Au2 1_555 1_555
Au2G Au1 1_555 1_555
Au2_2 Au1G 1_555 1_555
Ni1E N1E 1_555 1_555
Ni1D N1B 1_555 1_555
Ni1A N2G 1_555 1_555
Ni1D_2 N2B 1_555 1_555
N1B C3B 1_555 1_555
N1F Ni1 1_555 1_555
N1D Ni1D 1_555 1_555
N1C Ni1E 1_555 1_555
N2E Ni1E 1_555 1_555
N2G C2G 1_555 1_555
N2B C2B 1_555 1_555
N2F Ni1 1_555 1_555
N2C Ni1E 1_555 1_555
C1F C1 1_555 1_555
N3E Ni1E 1_555 1_555
N4E Ni1E 1_555 1_555
C2E Au2 1_555 1_555
C2G Au2G 1_555 1_555
C2B Au2G 1_555 1_555
N5B C5B 1_555 1_555
N5G C5G 1_555 1_555
N5E C5E 1_555 1_555
C3B C4 1_555 1_555
C3F N1F 1_555 1_555
C3D N1D 1_555 1_555
H1B C3B 1_555 1_555
H1F C3F 1_555 1_555
H1D C3D 1_555 1_555
C4F C3F 1_555 1_555
H2F C4F 1_555 1_555
C5B Au1 1_555 1_555
C5G Au1G 1_555 1_555
C5E Au1G 1_555 1_555
N1F C1F 1_555 1_555
N1D C1F 1_555 1_555
N2E C2E 1_555 1_555
C3D C4F 1_555 1_555

#END
