
#######################################################################
#
#                 Cambridge Crystallographic Data Centre
#                                CCDC 
#
#######################################################################
#
# If this CIF has been generated from an entry in the Cambridge 
# Structural Database, then it will include bibliographic, chemical, 
# crystal, experimental, refinement or atomic coordinate data resulting 
# from the CCDC's data processing and validation procedures.
#
#######################################################################

data_QEWHOQ
_symmetry_cell_setting           monoclinic
_symmetry_space_group_name_H-M   'P 21'
_symmetry_Int_Tables_number      4
_space_group_name_Hall           'P 2yb'
loop_
_symmetry_equiv_pos_site_id
_symmetry_equiv_pos_as_xyz
1 x,y,z
2 -x,1/2+y,-z
_cell_length_a                   9.9415(8)
_cell_length_b                   11.9758(7)
_cell_length_c                   10.0268(8)
_cell_angle_alpha                90
_cell_angle_beta                 94.766(7)
_cell_angle_gamma                90
_cell_volume                     1189.64
loop_
_atom_site_label
_atom_site_type_symbol
_atom_site_fract_x
_atom_site_fract_y
_atom_site_fract_z
Cu1 Cu -0.20642(6) 0.77127(12) 0.30000(6)
O1 O -0.2208(4) 0.8250(4) 0.5399(4)
O2 O -0.3646(6) 1.6291(5) 0.6302(6)
O3 O -0.3585(4) 0.6725(3) 0.3113(4)
O4 O -0.5642(4) 0.6382(4) 0.2203(4)
N1 N 0.0712(4) 1.1497(4) 0.6615(4)
N2 N -0.3710(5) 0.9374(5) 0.6306(6)
N3 N -0.4455(4) 1.4556(4) 0.6555(6)
N4 N 0.0401(4) 1.3656(4) 0.6931(4)
N5 N -0.3427(5) 0.8709(4) 0.2033(5)
C1 C 0.0972(6) 1.0413(5) 0.6535(6)
C2 C -0.0040(5) 0.9622(5) 0.6339(5)
C3 C -0.2495(6) 0.9141(5) 0.5956(5)
C4 C -0.1380(6) 0.9973(4) 0.6252(5)
C5 C -0.1642(6) 1.1112(5) 0.6386(5)
C6 C -0.0583(5) 1.1837(5) 0.6570(5)
C7 C -0.0758(5) 1.3067(5) 0.6708(5)
C8 C -0.2000(5) 1.3567(5) 0.6567(5)
C9 C -0.3493(6) 1.5197(5) 0.6502(6)
C10 C -0.2106(6) 1.4736(4) 0.6639(5)
C11 C -0.0914(6) 1.5325(5) 0.6850(6)
C12 C 0.0309(6) 1.4758(5) 0.7007(6)
C13 C -0.4452(5) 0.7944(5) 0.1386(6)
C14 C -0.4592(5) 0.6937(5) 0.2304(5)
C15 C -0.4091(6) 0.7561(8) -0.0009(6)
C16 C -0.2788(7) 0.6939(7) 0.0007(6)
C17 C -0.1566(8) 0.7471(7) -0.0128(7)
C18 C -0.0374(8) 0.6847(13) -0.0071(8)
C19 C -0.0393(11) 0.5738(11) 0.0127(8)
C20 C -0.1585(13) 0.5202(9) 0.0251(8)
C21 C -0.2776(10) 0.5790(8) 0.0188(7)
H1 H 0.1884 1.0169 0.6631
H2 H 0.0164 0.8853 0.6232
H3 H -0.4445 0.8875 0.6119
H4 H -0.3846 1.0061 0.6748
H5 H -0.2547 1.1372 0.6368
H6 H -0.2795 1.3127 0.6439
H7 H -0.4296 1.3779 0.6678
H8 H -0.5352 1.4835 0.6479
H9 H -0.0940 1.6116 0.6899
H10 H 0.1126 1.5165 0.7173
H11 H -0.3020 0.9136 0.1376
H12 H -0.3819 0.9197 0.2639
H13 H -0.5292 0.8326 0.1290
H14 H -0.4019 0.8203 -0.0556
H15 H -0.4796 0.7095 -0.0388
H16 H -0.1578 0.8256 -0.0263
H17 H 0.0454 0.7212 -0.0196
H18 H 0.0419 0.5317 0.0222
H19 H -0.1580 0.4415 0.0377
H20 H -0.3593 0.5395 0.0274
Cu1A Cu 0.20642(6) 1.27127(12) 0.70000(6)
N1A N -0.0712(4) 0.6497(4) 0.3385(4)
N4A N -0.0401(4) 0.8656(4) 0.3069(4)
Cl1 Cl 0.28509(18) 0.73967(17) 0.70523(19)
O5 O 0.3670(7) 0.7852(12) 0.6160(10)
O6 O 0.2853(9) 0.7964(12) 0.8241(10)
O7 O 0.3376(8) 0.6361(6) 0.7337(12)
O8 O 0.1503(5) 0.7295(5) 0.6460(6)
O9 O 0.2927(7) 0.5465(5) 0.9978(6)
loop_
_geom_bond_atom_site_label_1
_geom_bond_atom_site_label_2
_geom_bond_site_symmetry_1
_geom_bond_site_symmetry_2
Cu1 O1 1_555 1_555
Cl1 O5 1_555 1_555
O1 C3 1_555 1_555
O2 C9 1_555 1_555
O3 Cu1 1_555 1_555
O4 C14 1_555 1_555
O6 Cl1 1_555 1_555
O7 Cl1 1_555 1_555
O8 Cl1 1_555 1_555
N1 C1 1_555 1_555
N2 C3 1_555 1_555
N3 C9 1_555 1_555
N4 C7 1_555 1_555
N5 Cu1 1_555 1_555
C1 C2 1_555 1_555
C2 C4 1_555 1_555
C3 C4 1_555 1_555
C4 C5 1_555 1_555
C5 C6 1_555 1_555
C6 N1 1_555 1_555
C7 C6 1_555 1_555
C8 C7 1_555 1_555
C9 C10 1_555 1_555
C10 C8 1_555 1_555
C11 C10 1_555 1_555
C12 N4 1_555 1_555
C13 N5 1_555 1_555
C14 O3 1_555 1_555
C15 C13 1_555 1_555
C16 C15 1_555 1_555
C17 C16 1_555 1_555
C18 C17 1_555 1_555
C19 C18 1_555 1_555
C20 C19 1_555 1_555
C21 C16 1_555 1_555
H1 C1 1_555 1_555
H2 C2 1_555 1_555
H3 N2 1_555 1_555
H4 N2 1_555 1_555
H5 C5 1_555 1_555
H6 C8 1_555 1_555
H7 N3 1_555 1_555
H8 N3 1_555 1_555
H9 C11 1_555 1_555
H10 C12 1_555 1_555
H11 N5 1_555 1_555
H12 N5 1_555 1_555
H13 C13 1_555 1_555
H14 C15 1_555 1_555
H15 C15 1_555 1_555
H16 C17 1_555 1_555
H17 C18 1_555 1_555
H18 C19 1_555 1_555
H19 C20 1_555 1_555
H20 C21 1_555 1_555
Cu1A N1 1_555 1_555
N1A Cu1 1_555 1_555
N4A Cu1 1_555 1_555
N4 Cu1A 1_555 1_555
C11 C12 1_555 1_555
C13 C14 1_555 1_555
C20 C21 1_555 1_555

#END
