
#######################################################################
#
#                 Cambridge Crystallographic Data Centre
#                                CCDC 
#
#######################################################################
#
# If this CIF has been generated from an entry in the Cambridge 
# Structural Database, then it will include bibliographic, chemical, 
# crystal, experimental, refinement or atomic coordinate data resulting 
# from the CCDC's data processing and validation procedures.
#
#######################################################################

data_QEWMAI
_symmetry_cell_setting           monoclinic
_symmetry_space_group_name_H-M   'P 21/m'
_symmetry_Int_Tables_number      11
_space_group_name_Hall           '-P 2yb'
loop_
_symmetry_equiv_pos_site_id
_symmetry_equiv_pos_as_xyz
1 x,y,z
2 -x,1/2+y,-z
3 -x,-y,-z
4 x,1/2-y,z
_cell_length_a                   9.8248(4)
_cell_length_b                   18.2635(5)
_cell_length_c                   15.6135(6)
_cell_angle_alpha                90
_cell_angle_beta                 101.820(4)
_cell_angle_gamma                90
_cell_volume                     2742.21
loop_
_atom_site_label
_atom_site_type_symbol
_atom_site_fract_x
_atom_site_fract_y
_atom_site_fract_z
C1 C 0.3621(7) 0.0977(3) 0.3902(5)
H1 H 0.3340 0.1249 0.4339
C2 C 0.4888(7) 0.1145(3) 0.3692(5)
H2 H 0.5427 0.1525 0.3977
C3 C 0.5339(7) 0.0751(3) 0.3067(5)
H3 H 0.6195 0.0853 0.2927
C4 C 0.4497(6) 0.0193(3) 0.2637(5)
C5 C 0.4821(6) -0.0248(3) 0.1950(4)
C6 C 0.3942(7) -0.0783(3) 0.1534(5)
C7 C 0.2636(6) -0.0915(3) 0.1757(5)
C8 C 0.1660(7) -0.1430(3) 0.1321(5)
H4 H 0.1880 -0.1728 0.0886
C9 C 0.0409(7) -0.1484(3) 0.1542(5)
H5 H -0.0244 -0.1820 0.1261
C10 C 0.0103(7) -0.1032(3) 0.2194(4)
H6 H -0.0771 -0.1070 0.2332
C11 C 0.2247(7) -0.0491(3) 0.2413(5)
C12 C 0.3215(7) 0.0057(3) 0.2875(5)
C13 C 0.5673(7) -0.0743(4) 0.0892(5)
C14 C 0.6579(8) -0.0865(4) 0.0275(5)
C15 C 0.7664(8) -0.0443(4) 0.0198(5)
H7 H 0.7894 -0.0046 0.0573
C16 C 0.8449(8) -0.0584(4) -0.0422(5)
H8 H 0.9197 -0.0279 -0.0451
C17 C 0.8184(8) -0.1122(4) -0.0963(5)
H9 H 0.8814 -0.1258 -0.1304
C18 C 0.7003(8) -0.1474(4) -0.1023(6)
H10 H 0.6684 -0.1791 -0.1486
C19 C 0.6218(8) -0.1359(4) -0.0358(5)
H11 H 0.5425 -0.1640 -0.0368
C20 C -0.0913(6) 0.1161(3) 0.2250(4)
C21 C -0.1495(6) 0.1839(3) 0.1777(4)
C22 C -0.2482(6) 0.1847(3) 0.1009(4)
H12 H -0.2838 0.1406 0.0760
C23 C -0.2950(9) 0.2500 0.0602(6)
H13 H -0.3569 0.2500 0.0065
C24 C -0.0991(9) 0.2500 0.2155(6)
H14 H -0.0309 0.2500 0.2665
C25 C -0.1644(6) -0.1129(3) 0.4238(4)
C26 C -0.2224(6) -0.1836(3) 0.3824(4)
C27 C -0.3039(6) -0.1847(3) 0.3003(4)
H15 H -0.3294 -0.1406 0.2717
C28 C -0.3495(8) -0.2500 0.2586(6)
H16 H -0.4092 -0.2500 0.2040
C29 C -0.1848(8) -0.2500 0.4250(6)
H17 H -0.1341 -0.2500 0.4823
C30 C -0.1649(6) 0.1143(3) 0.4779(4)
C31 C -0.2112(6) 0.1839(3) 0.5146(4)
C32 C -0.2725(6) 0.1845(3) 0.5867(4)
H18 H -0.2907 0.1406 0.6123
C33 C -0.3071(9) 0.2500 0.6211(6)
H19 H -0.3535 0.2500 0.6673
C34 C -0.1816(8) 0.2500 0.4781(6)
H20 H -0.1418 0.2500 0.4289
N1 N 0.2788(5) 0.0450(2) 0.3515(3)
N2 N 0.0989(5) -0.0552(2) 0.2626(3)
N3 N 0.5925(5) -0.0222(2) 0.1539(3)
H21 H 0.6635 0.0063 0.1662
N4 N 0.4500(6) -0.1094(3) 0.0874(4)
O1 O 0.0288(4) 0.1213(2) 0.2730(3)
O2 O -0.1578(4) 0.05748(19) 0.2205(3)
O3 O -0.1345(4) -0.10898(18) 0.5062(3)
O4 O -0.1471(4) -0.06178(18) 0.3724(3)
O5 O -0.1511(4) 0.11510(18) 0.4010(3)
O6 O -0.1403(4) 0.05891(19) 0.5268(3)
Sm1 Sm 0.02515(3) 0.029333(13) 0.377474(19)
C20C C -0.0913(6) 0.3839(3) 0.2250(4)
C21C C -0.1495(6) 0.3161(3) 0.1777(4)
C22C C -0.2482(6) 0.3153(3) 0.1009(4)
H12C H -0.2838 0.3594 0.0760
O1C O 0.0288(4) 0.3787(2) 0.2730(3)
O2C O -0.1578(4) 0.44252(19) 0.2205(3)
C25C C -0.1644(6) -0.3871(3) 0.4238(4)
C26C C -0.2224(6) -0.3164(3) 0.3824(4)
C27C C -0.3039(6) -0.3153(3) 0.3003(4)
H15C H -0.3294 -0.3594 0.2717
O4C O -0.1471(4) -0.43822(18) 0.3724(3)
O3C O -0.1345(4) -0.39102(18) 0.5062(3)
C30C C -0.1649(6) 0.3857(3) 0.4779(4)
C31C C -0.2112(6) 0.3161(3) 0.5146(4)
C32C C -0.2725(6) 0.3155(3) 0.5867(4)
H18C H -0.2907 0.3594 0.6123
O5C O -0.1511(4) 0.38490(18) 0.4010(3)
O6C O -0.1403(4) 0.44109(19) 0.5268(3)
C1B C -0.3621(7) -0.0977(3) 0.6098(5)
H1B H -0.3340 -0.1249 0.5661
C2B C -0.4888(7) -0.1145(3) 0.6308(5)
H2B H -0.5427 -0.1525 0.6023
C3B C -0.5339(7) -0.0751(3) 0.6933(5)
H3B H -0.6195 -0.0853 0.7073
C4B C -0.4497(6) -0.0193(3) 0.7363(5)
C5B C -0.4821(6) 0.0248(3) 0.8050(4)
C6B C -0.3942(7) 0.0783(3) 0.8466(5)
C7B C -0.2636(6) 0.0915(3) 0.8243(5)
C8B C -0.1660(7) 0.1430(3) 0.8679(5)
H4B H -0.1880 0.1728 0.9114
C9B C -0.0409(7) 0.1484(3) 0.8458(5)
H5B H 0.0244 0.1820 0.8739
C10B C -0.0103(7) 0.1032(3) 0.7806(4)
H6B H 0.0771 0.1070 0.7668
C11B C -0.2247(7) 0.0491(3) 0.7587(5)
C12B C -0.3215(7) -0.0057(3) 0.7125(5)
C13B C -0.5673(7) 0.0743(4) 0.9108(5)
C14B C -0.6579(8) 0.0865(4) 0.9725(5)
C15B C -0.7664(8) 0.0443(4) 0.9802(5)
H7B H -0.7894 0.0046 0.9427
C16B C -0.8449(8) 0.0584(4) 1.0422(5)
H8B H -0.9197 0.0279 1.0451
C17B C -0.8184(8) 0.1122(4) 1.0963(5)
H9B H -0.8814 0.1258 1.1304
C18B C -0.7003(8) 0.1474(4) 1.1023(6)
H10B H -0.6684 0.1791 1.1486
C19B C -0.6218(8) 0.1359(4) 1.0358(5)
H11B H -0.5425 0.1640 1.0368
N1B N -0.2788(5) -0.0450(2) 0.6485(3)
N2B N -0.0989(5) 0.0552(2) 0.7374(3)
N3B N -0.5925(5) 0.0222(2) 0.8461(3)
H21B H -0.6635 -0.0063 0.8338
N4B N -0.4500(6) 0.1094(3) 0.9126(4)
Sm1B Sm -0.02515(3) -0.029333(13) 0.622526(19)
O1B O -0.0288(4) -0.1213(2) 0.7270(3)
O2B O 0.1578(4) -0.05748(19) 0.7795(3)
O3B O 0.1345(4) 0.10898(18) 0.4938(3)
O4B O 0.1471(4) 0.06178(18) 0.6276(3)
O5B O 0.1511(4) -0.11510(18) 0.5990(3)
O6B O 0.1403(4) -0.05891(19) 0.4732(3)
Sm1A Sm -0.02515(3) -0.470667(13) 0.622526(19)
Sm1A_2 Sm -0.02515(3) 0.529333(13) 0.622526(19)
Sm1C Sm 0.02515(3) -0.529333(13) 0.377474(19)
Sm1C_2 Sm 0.02515(3) 0.470667(13) 0.377474(19)
O7 O 0.244(3) 0.2500 0.292(3)
loop_
_geom_bond_atom_site_label_1
_geom_bond_atom_site_label_2
_geom_bond_site_symmetry_1
_geom_bond_site_symmetry_2
C1 H1 1_555 1_555
C2 C1 1_555 1_555
H2 C2 1_555 1_555
C3 C2 1_555 1_555
H3 C3 1_555 1_555
C4 C3 1_555 1_555
C5 C4 1_555 1_555
C6 C5 1_555 1_555
C7 C6 1_555 1_555
C8 C7 1_555 1_555
H4 C8 1_555 1_555
C9 C8 1_555 1_555
H5 C9 1_555 1_555
C10 C9 1_555 1_555
H6 C10 1_555 1_555
C11 C7 1_555 1_555
C12 C4 1_555 1_555
C13 C14 1_555 1_555
C14 C15 1_555 1_555
C15 H7 1_555 1_555
C16 C15 1_555 1_555
H8 C16 1_555 1_555
C17 C16 1_555 1_555
H9 C17 1_555 1_555
C18 C17 1_555 1_555
H10 C18 1_555 1_555
C19 C14 1_555 1_555
H11 C19 1_555 1_555
C20 C21 1_555 1_555
C21 C22 1_555 1_555
C22 H12 1_555 1_555
C23 C22 1_555 1_555
H13 C23 1_555 1_555
C24 C21 1_555 1_555
H14 C24 1_555 1_555
C25 C26 1_555 1_555
C26 C27 1_555 1_555
C27 H15 1_555 1_555
C28 C27 1_555 1_555
H16 C28 1_555 1_555
C29 C26 1_555 1_555
H17 C29 1_555 1_555
C30 C31 1_555 1_555
C31 C32 1_555 1_555
C32 H18 1_555 1_555
C33 C32 1_555 1_555
H19 C33 1_555 1_555
C34 C31 1_555 1_555
H20 C34 1_555 1_555
N1 C1 1_555 1_555
N2 C10 1_555 1_555
N3 C5 1_555 1_555
H21 N3 1_555 1_555
N4 C6 1_555 1_555
O1 C20 1_555 1_555
O2 C20 1_555 1_555
O3 C25 1_555 1_555
O4 C25 1_555 1_555
O5 C30 1_555 1_555
O6 C30 1_555 1_555
Sm1 N1 1_555 1_555
C20C C21C 1_555 1_555
C21C C24 1_555 1_555
C22C C23 1_555 1_555
H12C C22C 1_555 1_555
O1C C20C 1_555 1_555
O2C C20C 1_555 1_555
C25C C26C 1_555 1_555
C26C C29 1_555 1_555
C27C C28 1_555 1_555
H15C C27C 1_555 1_555
O4C C25C 1_555 1_555
O3C C25C 1_555 1_555
C30C C31C 1_555 1_555
C31C C34 1_555 1_555
C32C C33 1_555 1_555
H18C C32C 1_555 1_555
O5C C30C 1_555 1_555
O6C C30C 1_555 1_555
C1B H1B 1_555 1_555
C2B C1B 1_555 1_555
H2B C2B 1_555 1_555
C3B C2B 1_555 1_555
H3B C3B 1_555 1_555
C4B C3B 1_555 1_555
C5B C4B 1_555 1_555
C6B C5B 1_555 1_555
C7B C6B 1_555 1_555
C8B C7B 1_555 1_555
H4B C8B 1_555 1_555
C9B C8B 1_555 1_555
H5B C9B 1_555 1_555
C10B C9B 1_555 1_555
H6B C10B 1_555 1_555
C11B C7B 1_555 1_555
C12B C4B 1_555 1_555
C13B C14B 1_555 1_555
C14B C15B 1_555 1_555
C15B H7B 1_555 1_555
C16B C15B 1_555 1_555
H8B C16B 1_555 1_555
C17B C16B 1_555 1_555
H9B C17B 1_555 1_555
C18B C17B 1_555 1_555
H10B C18B 1_555 1_555
C19B C14B 1_555 1_555
H11B C19B 1_555 1_555
N1B C1B 1_555 1_555
N2B C10B 1_555 1_555
N3B C5B 1_555 1_555
H21B N3B 1_555 1_555
N4B C6B 1_555 1_555
Sm1B O3 1_555 1_555
O1B Sm1B 1_555 1_555
O2B Sm1B 1_555 1_555
O3B Sm1 1_555 1_555
O4B Sm1B 1_555 1_555
O5B Sm1B 1_555 1_555
O6B Sm1 1_555 1_555
Sm1A O3C 1_555 1_555
Sm1A_2 O6C 1_555 1_555
Sm1C O4C 1_555 1_555
Sm1C_2 O1C 1_555 1_555
C11 C12 1_555 1_555
C11 N2 1_555 1_555
C12 N1 1_555 1_555
C13 N3 1_555 1_555
C13 N4 1_555 1_555
C18 C19 1_555 1_555
N2 Sm1 1_555 1_555
O1 Sm1 1_555 1_555
O2 Sm1 1_555 1_555
O4 Sm1 1_555 1_555
O5 Sm1 1_555 1_555
O6 Sm1B 1_555 1_555
C21C C22C 1_555 1_555
O2C Sm1C_2 1_555 1_555
C26C C27C 1_555 1_555
C31C C32C 1_555 1_555
O5C Sm1C_2 1_555 1_555
C11B C12B 1_555 1_555
C11B N2B 1_555 1_555
C12B N1B 1_555 1_555
C13B N3B 1_555 1_555
C13B N4B 1_555 1_555
C18B C19B 1_555 1_555
N1B Sm1B 1_555 1_555
N2B Sm1B 1_555 1_555

#END
