
#######################################################################
#
#                 Cambridge Crystallographic Data Centre
#                                CCDC 
#
#######################################################################
#
# If this CIF has been generated from an entry in the Cambridge 
# Structural Database, then it will include bibliographic, chemical, 
# crystal, experimental, refinement or atomic coordinate data resulting 
# from the CCDC's data processing and validation procedures.
#
#######################################################################

data_QEWMOV
_symmetry_cell_setting           triclinic
_symmetry_space_group_name_H-M   'P -1'
_symmetry_Int_Tables_number      2
_space_group_name_Hall           '-P 1'
loop_
_symmetry_equiv_pos_site_id
_symmetry_equiv_pos_as_xyz
1 x,y,z
2 -x,-y,-z
_cell_length_a                   8.2758(17)
_cell_length_b                   8.3948(17)
_cell_length_c                   12.286(3)
_cell_angle_alpha                100.99(3)
_cell_angle_beta                 98.83(3)
_cell_angle_gamma                100.81(3)
_cell_volume                     807.022
loop_
_atom_site_label
_atom_site_type_symbol
_atom_site_fract_x
_atom_site_fract_y
_atom_site_fract_z
Cd1 Cd -0.131493(14) -0.131243(13) -0.215299(9)
O1 O -0.28522(19) -0.39200(18) -0.21647(13)
O2 O -0.2765(2) -1.0100(2) -0.06504(15)
O3 O -0.06874(19) -0.29658(17) -0.07473(13)
O4 O 0.0905(2) 0.0854(2) -0.11486(12)
N1 N -0.1685(2) -0.1576(2) -0.41415(14)
C1 C -0.4589(2) -0.8274(3) -0.09890(19)
H1 H -0.4487 -0.8058 -0.0174
H2 H -0.5736 -0.8855 -0.1329
C2 C -0.1999(2) -0.4056(2) -0.12584(16)
N2 N 0.0900(2) -0.2354(2) -0.28571(15)
C3 C -0.3422(2) -0.9379(2) -0.13321(17)
O5 O -0.3150(3) -0.9562(2) -0.23199(15)
C4 C -0.2522(3) -0.5545(3) -0.0780(2)
C5 C -0.2924(3) -0.1145(3) -0.47581(19)
H3 H -0.3719 -0.0734 -0.4398
C6 C -0.4223(3) -0.6620(3) -0.1344(2)
C7 C 0.0639(4) -0.3035(4) -0.6339(2)
H4 H 0.0584 -0.3172 -0.7115
C8 C -0.0616(3) -0.2376(3) -0.58339(17)
C9 C -0.0536(2) -0.2187(2) -0.46649(16)
C10 C 0.0835(2) -0.2607(2) -0.39884(17)
C11 C 0.3431(3) -0.3335(3) -0.2665(3)
H5 H 0.4309 -0.3561 -0.2192
C12 C -0.1941(4) -0.1902(3) -0.64561(18)
H6 H -0.2034 -0.2011 -0.7232
C13 C 0.2158(3) -0.2718(3) -0.2219(2)
H7 H 0.2196 -0.2557 -0.1444
C14 C 0.2041(3) -0.3247(3) -0.4510(2)
C15 C -0.3092(3) -0.1281(3) -0.59237(19)
H8 H -0.3970 -0.0954 -0.6327
C16 C 0.1903(4) -0.3459(3) -0.5701(2)
H9 H 0.2697 -0.3898 -0.6046
C17 C 0.3368(3) -0.3600(3) -0.3797(3)
H10 H 0.4205 -0.4017 -0.4104
H11 H 0.060(3) 0.157(2) -0.0757(19)
H12 H 0.119(5) 0.030(4) -0.073(3)
H13 H -0.430(3) -0.678(3) -0.214(2)
H14 H -0.259(5) -0.539(5) 0.004(3)
H15 H -0.515(4) -0.603(4) -0.111(3)
H16 H -0.180(4) -0.641(4) -0.099(3)
Cd1_2 Cd -0.131493(14) -1.131243(13) -0.215299(9)
O2_2 O -0.2765(2) -0.0100(2) -0.06504(15)
O5_2 O -0.3150(3) 0.0438(2) -0.23199(15)
loop_
_geom_bond_atom_site_label_1
_geom_bond_atom_site_label_2
_geom_bond_site_symmetry_1
_geom_bond_site_symmetry_2
Cd1 O1 1_555 1_555
O1 C2 1_555 1_555
O2 C3 1_555 1_555
O3 Cd1 1_555 1_555
O4 Cd1 1_555 1_555
N1 Cd1 1_555 1_555
C1 H1 1_555 1_555
H2 C1 1_555 1_555
C2 O3 1_555 1_555
N2 Cd1 1_555 1_555
C3 C1 1_555 1_555
O5 C3 1_555 1_555
C4 C2 1_555 1_555
C5 N1 1_555 1_555
H3 C5 1_555 1_555
C6 C1 1_555 1_555
C7 H4 1_555 1_555
C8 C7 1_555 1_555
C9 N1 1_555 1_555
C10 N2 1_555 1_555
C11 H5 1_555 1_555
C12 C8 1_555 1_555
H6 C12 1_555 1_555
C13 N2 1_555 1_555
H7 C13 1_555 1_555
C14 C10 1_555 1_555
C15 C5 1_555 1_555
H8 C15 1_555 1_555
C16 C7 1_555 1_555
H9 C16 1_555 1_555
C17 C11 1_555 1_555
H10 C17 1_555 1_555
H11 O4 1_555 1_555
H12 O4 1_555 1_555
H13 C6 1_555 1_555
H14 C4 1_555 1_555
H15 C6 1_555 1_555
H16 C4 1_555 1_555
Cd1_2 O2 1_555 1_555
O2_2 Cd1 1_555 1_555
O5_2 Cd1 1_555 1_555
O5 Cd1_2 1_555 1_555
C4 C6 1_555 1_555
C8 C9 1_555 1_555
C9 C10 1_555 1_555
C11 C13 1_555 1_555
C12 C15 1_555 1_555
C14 C16 1_555 1_555
C14 C17 1_555 1_555

#END
