
#######################################################################
#
#                 Cambridge Crystallographic Data Centre
#                                CCDC 
#
#######################################################################
#
# If this CIF has been generated from an entry in the Cambridge 
# Structural Database, then it will include bibliographic, chemical, 
# crystal, experimental, refinement or atomic coordinate data resulting 
# from the CCDC's data processing and validation procedures.
#
#######################################################################

data_QEWMIP
_symmetry_cell_setting           monoclinic
_symmetry_space_group_name_H-M   'P 21/n'
_symmetry_Int_Tables_number      14
_space_group_name_Hall           '-P 2yn'
loop_
_symmetry_equiv_pos_site_id
_symmetry_equiv_pos_as_xyz
1 x,y,z
2 1/2-x,1/2+y,1/2-z
3 -x,-y,-z
4 1/2+x,1/2-y,1/2+z
_cell_length_a                   10.376(2)
_cell_length_b                   12.711(3)
_cell_length_c                   13.016(3)
_cell_angle_alpha                90
_cell_angle_beta                 107.08(3)
_cell_angle_gamma                90
_cell_volume                     1640.96
loop_
_atom_site_label
_atom_site_type_symbol
_atom_site_fract_x
_atom_site_fract_y
_atom_site_fract_z
Zn1 Zn 0.89920(4) 0.16043(3) 0.24543(3)
Zn2 Zn 0.65770(4) 0.31492(3) 0.06343(3)
O1 O 0.6037(2) 0.4359(2) 0.15332(17)
O2 O 0.7751(2) 0.2786(2) 0.20963(17)
O3 O 0.7073(3) 0.5319(2) 0.2958(2)
N1 N 0.7467(3) 0.4260(3) -0.0168(2)
C1 C 0.8884(4) 0.2191(4) -0.1490(3)
O4 O 0.9963(3) 0.2888(3) 0.54240(19)
O5 O 0.9563(3) 0.1866(2) 0.4037(2)
N2 N 0.7511(3) 0.2156(3) -0.0261(2)
C2 C 0.6917(3) 0.4496(3) 0.2402(2)
C3 C 0.8193(3) 0.2690(3) -0.0832(3)
C4 C 0.8829(4) 0.4419(4) -0.1384(3)
C5 C 0.8173(3) 0.3816(3) -0.0779(3)
C6 C 0.7955(5) 0.3610(3) 0.2829(3)
H1 H 0.8838 0.3909 0.2865
C7 C 0.8865(5) 0.1084(4) -0.1506(3)
H2 H 0.9320 0.0716 -0.1911
C8 C 0.9287(4) 0.2668(3) 0.4495(3)
C9 C 0.8758(5) 0.5515(4) -0.1317(3)
H3 H 0.9194 0.5939 -0.1694
C10 C 0.9534(5) 0.2827(5) -0.2105(3)
H4 H 0.9985 0.2502 -0.2540
C11 C 0.7401(4) 0.5299(3) -0.0138(3)
H5 H 0.6903 0.5603 0.0273
C12 C 0.8041(5) 0.5964(4) -0.0694(4)
H6 H 0.7984 0.6691 -0.0643
C13 C 0.8172(5) 0.0550(4) -0.0920(3)
H7 H 0.8150 -0.0182 -0.0926
C14 C 0.9503(5) 0.3871(5) -0.2064(4)
H8 H 0.9922 0.4261 -0.2480
C15 C 0.7496(5) 0.1121(3) -0.0312(3)
H9 H 0.7016 0.0752 0.0072
C16 C 0.8027(5) 0.3304(4) 0.3939(4)
H10 H 0.7235 0.2892 0.3925
H11 H 0.8012 0.3935 0.4355
Cl1 Cl 1.07090(11) 0.17654(9) 0.17876(9)
Zn1A Zn 0.60080(4) 0.66043(3) 0.25457(3)
Zn2C Zn 1.15770(4) 0.18508(3) 0.56343(3)
O3A O 0.7927(3) 0.0319(2) 0.2042(2)
O4C O 0.4963(3) 0.2112(3) 0.04240(19)
O5C O 0.4563(3) 0.3134(2) -0.0963(2)
loop_
_geom_bond_atom_site_label_1
_geom_bond_atom_site_label_2
_geom_bond_site_symmetry_1
_geom_bond_site_symmetry_2
Zn1 O2 1_555 1_555
Zn2 O1 1_555 1_555
O1 C2 1_555 1_555
O2 Zn2 1_555 1_555
O3 C2 1_555 1_555
N1 Zn2 1_555 1_555
C1 C3 1_555 1_555
O4 C8 1_555 1_555
O5 Zn1 1_555 1_555
N2 Zn2 1_555 1_555
C2 C6 1_555 1_555
C3 N2 1_555 1_555
C4 C5 1_555 1_555
C5 N1 1_555 1_555
C6 O2 1_555 1_555
H1 C6 1_555 1_555
C7 C1 1_555 1_555
H2 C7 1_555 1_555
C8 O5 1_555 1_555
C9 C4 1_555 1_555
H3 C9 1_555 1_555
C10 C1 1_555 1_555
H4 C10 1_555 1_555
C11 N1 1_555 1_555
H5 C11 1_555 1_555
C12 C9 1_555 1_555
H6 C12 1_555 1_555
C13 C7 1_555 1_555
H7 C13 1_555 1_555
C14 C4 1_555 1_555
H8 C14 1_555 1_555
C15 N2 1_555 1_555
H9 C15 1_555 1_555
C16 C6 1_555 1_555
H10 C16 1_555 1_555
H11 C16 1_555 1_555
Cl1 Zn1 1_555 1_555
Zn1A O3 1_555 1_555
Zn2C O4 1_555 1_555
O3A Zn1 1_555 1_555
O4C Zn2 1_555 1_555
O5C Zn2 1_555 1_555
O5 Zn2C 1_555 1_555
C3 C5 1_555 1_555
C8 C16 1_555 1_555
C10 C14 1_555 1_555
C11 C12 1_555 1_555
C13 C15 1_555 1_555

#END
