
#######################################################################
#
#                 Cambridge Crystallographic Data Centre
#                                CCDC 
#
#######################################################################
#
# If this CIF has been generated from an entry in the Cambridge 
# Structural Database, then it will include bibliographic, chemical, 
# crystal, experimental, refinement or atomic coordinate data resulting 
# from the CCDC's data processing and validation procedures.
#
#######################################################################

data_QEWMOW
_symmetry_cell_setting           monoclinic
_symmetry_space_group_name_H-M   'P 21/n'
_symmetry_Int_Tables_number      14
_space_group_name_Hall           '-P 2yn'
loop_
_symmetry_equiv_pos_site_id
_symmetry_equiv_pos_as_xyz
1 x,y,z
2 1/2-x,1/2+y,1/2-z
3 -x,-y,-z
4 1/2+x,1/2-y,1/2+z
_cell_length_a                   12.999(2)
_cell_length_b                   14.519(2)
_cell_length_c                   16.661(3)
_cell_angle_alpha                90
_cell_angle_beta                 99.539(2)
_cell_angle_gamma                90
_cell_volume                     3100.99
loop_
_atom_site_label
_atom_site_type_symbol
_atom_site_fract_x
_atom_site_fract_y
_atom_site_fract_z
N2 N 0.3420(19) 1.3613(18) 0.0809(14)
C7 C 0.3061(16) 1.3499(17) 0.0005(15)
H5 H 0.2335 1.3543 -0.0195
C8 C 0.3736(19) 1.3323(18) -0.0512(13)
H6 H 0.3484 1.3243 -0.1077
C9 C 0.4770(19) 1.3260(18) -0.0227(15)
H7 H 0.5244 1.3136 -0.0590
C10 C 0.5130(18) 1.337(2) 0.0577(16)
H8 H 0.5856 1.3329 0.0778
C11 C 0.445(2) 1.355(2) 0.1095(14)
H9 H 0.4707 1.3629 0.1659
N3 N 0.8259(15) 0.4295(13) 0.2353(12)
C12 C 0.8421(18) 0.4844(16) 0.3029(14)
H10 H 0.7920 0.5298 0.3105
C13 C 0.930(2) 0.474(2) 0.3594(16)
H11 H 0.9415 0.5122 0.4063
C14 C 1.002(2) 0.4087(19) 0.3484(17)
H12 H 1.0637 0.4015 0.3877
C15 C 0.986(2) 0.3538(19) 0.2809(17)
H13 H 1.0363 0.3084 0.2733
C16 C 0.8980(18) 0.3642(17) 0.2244(14)
H14 H 0.8868 0.3260 0.1774
O25 O 0.664(3) 0.458(3) 0.148(2)
W1 W 0.91771(7) 0.84464(6) 0.14033(6)
O1 O 1.007(2) 0.9748(16) 0.0967(14)
O2 O 0.9101(17) 0.9584(16) 0.1914(15)
O3 O 0.9447(16) 0.7626(16) 0.0560(12)
O4 O 1.0643(14) 0.8436(12) 0.1742(16)
O5 O 0.7896(15) 0.8716(19) 0.0743(11)
O6 O 0.8813(16) 0.7724(13) 0.2075(12)
O7 O 0.9330(17) 0.9098(15) 0.0101(13)
W2 W 0.97625(8) 1.07601(7) 0.19675(5)
Si1 Si 1.0000 1.0000 0.0000
O8 O 0.9704(18) 1.0846(18) 0.0521(15)
W3 W 1.17978(9) 0.92322(7) 0.16947(6)
W4 W 0.94975(7) 0.76720(5) -0.05484(5)
W5 W 0.74050(7) 0.91651(6) -0.03247(6)
O9 O 0.8470(16) 1.1164(17) 0.1355(13)
O10 O 0.9644(17) 1.1128(16) 0.2909(10)
O11 O 1.1040(17) 1.0159(15) 0.2189(15)
O12 O 0.874(2) 1.0269(17) -0.0326(16)
W6 W 0.79284(8) 1.14777(6) 0.02797(6)
O13 O 0.8099(15) 0.8131(16) -0.0711(10)
O14 O 0.9266(16) 0.6565(10) -0.0792(12)
O15 O 1.0958(14) 0.7644(14) -0.0327(12)
O16 O 0.7408(19) 0.9787(14) -0.1310(13)
O17 O 0.724(2) 1.0342(18) 0.0158(15)
O18 O 0.6180(12) 0.8791(13) -0.0484(11)
O19 O 0.7813(19) 1.1526(15) -0.0851(13)
O20 O 0.6925(13) 1.2162(13) 0.0399(14)
Cu1 Cu 1.0000 0.5000 0.0000
O21 O 0.7376(12) 1.1107(13) -0.2513(9)
O22 O 0.8702(16) 0.4829(13) 0.0453(14)
N1 N 0.9235(13) 0.4333(10) -0.0938(10)
C1 C 0.801(2) 0.440(2) -0.006(2)
C2 C 0.8237(13) 0.4109(12) -0.0855(11)
C3 C 0.9601(15) 0.4113(12) -0.1637(10)
O23 O 0.710(3) 0.424(2) 0.009(2)
C4 C 0.7604(15) 0.3665(13) -0.1472(14)
C5 C 0.8968(19) 0.3670(13) -0.2254(11)
H1 H 1.0295 0.4269 -0.1694
O24 O 1.0384(12) 0.1808(16) 0.1584(11)
H2 H 0.6910 0.3510 -0.1415
C6 C 0.7969(19) 0.3445(13) -0.2172(13)
H3 H 0.9222 0.3517 -0.2740
H4 H 0.7529 0.3137 -0.2600
O8B O 1.0296(18) 0.9154(18) -0.0521(15)
O7B O 1.0670(17) 1.0902(15) -0.0101(13)
O1B O 0.993(2) 1.0252(16) -0.0967(14)
W4B W 1.05025(7) 1.23280(5) 0.05484(5)
W2B W 1.02375(8) 0.92399(7) -0.19675(5)
W6B W 1.20716(8) 0.85223(6) -0.02797(6)
W1B W 1.08229(7) 1.15536(6) -0.14033(6)
W5B W 1.25950(7) 1.08349(6) 0.03247(6)
W3B W 0.82022(9) 1.07678(7) -0.16947(6)
O15B O 0.9042(14) 1.2356(14) 0.0327(12)
O11B O 0.8960(17) 0.9841(15) -0.2189(15)
O14B O 1.0734(16) 0.3435(10) 0.0792(12)
O22B O 1.1298(16) 0.5171(13) -0.0453(14)
N1B N 1.0765(13) 0.5667(10) 0.0938(10)
W4B_2 W 1.05025(7) 0.23280(5) 0.05484(5)
C1B C 1.199(2) 0.560(2) 0.006(2)
C2B C 1.1763(13) 0.5891(12) 0.0855(11)
C3B C 1.0399(15) 0.5887(12) 0.1637(10)
O3B O 1.0553(16) 0.2374(16) -0.0560(12)
O13B O 1.1901(15) 0.1869(16) 0.0711(10)
O7B_2 O 1.0670(17) 0.0902(15) -0.0101(13)
O8_2 O 0.9704(18) 0.0846(18) 0.0521(15)
O15B_2 O 0.9042(14) 0.2356(14) 0.0327(12)
O23B O 1.290(3) 0.576(2) -0.009(2)
C4B C 1.2396(15) 0.6335(13) 0.1472(14)
C5B C 1.1032(19) 0.6330(13) 0.2254(11)
H1B H 0.9705 0.5731 0.1694
W1B_2 W 1.08229(7) 0.15536(6) -0.14033(6)
W2_2 W 0.97625(8) 0.07601(7) 0.19675(5)
W5B_2 W 1.25950(7) 0.08349(6) 0.03247(6)
O1_2 O 1.007(2) -0.0252(16) 0.0967(14)
H2B H 1.3090 0.6490 0.1415
C6B C 1.2031(19) 0.6555(13) 0.2172(13)
H3B H 1.0778 0.6483 0.2740
O2B O 1.0899(17) 0.0416(16) -0.1914(15)
O4B O 0.9357(14) 0.1564(12) -0.1742(16)
O5B O 1.2104(15) 0.1284(19) -0.0743(11)
O6B O 1.1187(16) 0.2276(13) -0.2075(12)
O1B_2 O 0.993(2) 0.0252(16) -0.0967(14)
O11_2 O 1.1040(17) 0.0159(15) 0.2189(15)
O16B O 1.2592(19) 0.0213(14) 0.1310(13)
O17B O 1.276(2) -0.0342(18) -0.0158(15)
O18B O 1.3820(12) 0.1209(13) 0.0484(11)
O12B O 1.126(2) -0.0269(17) 0.0326(16)
W3_2 W 1.17978(9) -0.07678(7) 0.16947(6)
H4B H 1.2471 0.6863 0.2600
W2B_2 W 1.02375(8) -0.07601(7) -0.19675(5)
W3B_2 W 0.82022(9) 0.07678(7) -0.16947(6)
O8B_2 O 1.0296(18) -0.0846(18) -0.0521(15)
W6B_2 W 1.20716(8) -0.14777(6) -0.02797(6)
O19B O 1.2187(19) -0.1526(15) 0.0851(13)
O21B O 1.2624(12) -0.1107(13) 0.2513(9)
O4_2 O 1.0643(14) -0.1564(12) 0.1742(16)
O9B O 1.1530(16) -0.1164(17) -0.1355(13)
O10B O 1.0356(17) -0.1128(16) -0.2909(10)
O11B_2 O 0.8960(17) -0.0159(15) -0.2189(15)
O24B O 0.9616(12) -0.1808(16) -0.1584(11)
W4_2 W 0.94975(7) -0.23280(5) -0.05484(5)
O15_2 O 1.0958(14) -0.2356(14) -0.0327(12)
O20B O 1.3075(13) -0.2162(13) -0.0399(14)
loop_
_geom_bond_atom_site_label_1
_geom_bond_atom_site_label_2
_geom_bond_site_symmetry_1
_geom_bond_site_symmetry_2
W1 O1 1_555 1_555
O1 W2 1_555 1_555
O2 W1 1_555 1_555
O3 W1 1_555 1_555
O4 W1 1_555 1_555
O5 W1 1_555 1_555
O6 W1 1_555 1_555
O7 W1 1_555 1_555
W2 O2 1_555 1_555
Si1 O1 1_555 1_555
O8 O1 1_555 1_555
W3 O1 1_555 1_555
W4 O3 1_555 1_555
W5 O5 1_555 1_555
O9 W2 1_555 1_555
O10 W2 1_555 1_555
O11 W2 1_555 1_555
O12 Si1 1_555 1_555
W6 O8 1_555 1_555
O13 W4 1_555 1_555
O14 W4 1_555 1_555
O15 W4 1_555 1_555
O16 W5 1_555 1_555
O17 W5 1_555 1_555
O18 W5 1_555 1_555
O19 W6 1_555 1_555
O20 W6 1_555 1_555
Cu1 O14 1_555 1_555
O21 W3B 1_555 1_555
O22 Cu1 1_555 1_555
N1 Cu1 1_555 1_555
C1 O22 1_555 1_555
C2 N1 1_555 1_555
C3 N1 1_555 1_555
O23 C1 1_555 1_555
C4 C2 1_555 1_555
C5 C3 1_555 1_555
H1 C3 1_555 1_555
O24 W4B_2 1_555 1_555
H2 C4 1_555 1_555
C6 C4 1_555 1_555
H3 C5 1_555 1_555
H4 C6 1_555 1_555
N2 C7 1_555 1_555
C7 H5 1_555 1_555
C8 C7 1_555 1_555
H6 C8 1_555 1_555
C9 C8 1_555 1_555
H7 C9 1_555 1_555
C10 C9 1_555 1_555
H8 C10 1_555 1_555
C11 N2 1_555 1_555
H9 C11 1_555 1_555
N3 C12 1_555 1_555
C12 H10 1_555 1_555
C13 C12 1_555 1_555
H11 C13 1_555 1_555
C14 C13 1_555 1_555
H12 C14 1_555 1_555
C15 C14 1_555 1_555
H13 C15 1_555 1_555
C16 N3 1_555 1_555
H14 C16 1_555 1_555
O8B O7 1_555 1_555
O7B Si1 1_555 1_555
O1B Si1 1_555 1_555
W4B O8 1_555 1_555
W2B O8B 1_555 1_555
W6B O15 1_555 1_555
W1B O7B 1_555 1_555
W5B O7B 1_555 1_555
W3B O12 1_555 1_555
O15B W6 1_555 1_555
O11B W2B 1_555 1_555
O14B Cu1 1_555 1_555
O22B Cu1 1_555 1_555
N1B Cu1 1_555 1_555
W4B_2 O14B 1_555 1_555
C1B O22B 1_555 1_555
C2B N1B 1_555 1_555
C3B N1B 1_555 1_555
O3B W4B_2 1_555 1_555
O13B W4B_2 1_555 1_555
O7B_2 W4B_2 1_555 1_555
O8_2 W4B_2 1_555 1_555
O15B_2 W4B_2 1_555 1_555
O23B C1B 1_555 1_555
C4B C2B 1_555 1_555
C5B C3B 1_555 1_555
H1B C3B 1_555 1_555
W1B_2 O3B 1_555 1_555
W2_2 O24 1_555 1_555
W5B_2 O13B 1_555 1_555
O1_2 O8_2 1_555 1_555
H2B C4B 1_555 1_555
C6B C4B 1_555 1_555
H3B C5B 1_555 1_555
O2B W1B_2 1_555 1_555
O4B W1B_2 1_555 1_555
O5B W1B_2 1_555 1_555
O6B W1B_2 1_555 1_555
O1B_2 W1B_2 1_555 1_555
O11_2 W2_2 1_555 1_555
O16B W5B_2 1_555 1_555
O17B W5B_2 1_555 1_555
O18B W5B_2 1_555 1_555
O12B W5B_2 1_555 1_555
W3_2 O1_2 1_555 1_555
H4B C6B 1_555 1_555
W2B_2 O2B 1_555 1_555
W3B_2 O4B 1_555 1_555
O8B_2 O1B_2 1_555 1_555
W6B_2 O17B 1_555 1_555
O19B W3_2 1_555 1_555
O21B W3_2 1_555 1_555
O4_2 W3_2 1_555 1_555
O9B W2B_2 1_555 1_555
O10B W2B_2 1_555 1_555
O11B_2 W2B_2 1_555 1_555
O24B W2B_2 1_555 1_555
W4_2 O8B_2 1_555 1_555
O15_2 W6B_2 1_555 1_555
O20B W6B_2 1_555 1_555
O4 W3 1_555 1_555
O7 Si1 1_555 1_555
O7 W4 1_555 1_555
O7 W5 1_555 1_555
W2 O8 1_555 1_555
Si1 O8 1_555 1_555
Si1 O8B 1_555 1_555
O8 O7B 1_555 1_555
W3 O11 1_555 1_555
W4 O8B 1_555 1_555
W5 O12 1_555 1_555
W5 O13 1_555 1_555
O9 W6 1_555 1_555
O12 W6 1_555 1_555
W6 O17 1_555 1_555
O16 W3B 1_555 1_555
O19 W3B 1_555 1_555
C1 C2 1_555 1_555
C5 C6 1_555 1_555
C10 C11 1_555 1_555
C15 C16 1_555 1_555
O8B O1B 1_555 1_555
O8B W6B 1_555 1_555
O7B W4B 1_555 1_555
O1B W2B 1_555 1_555
O1B W1B 1_555 1_555
O1B W3B 1_555 1_555
W4B O15B 1_555 1_555
W3B O11B 1_555 1_555
C1B C2B 1_555 1_555
O7B_2 O8_2 1_555 1_555
O7B_2 W1B_2 1_555 1_555
O7B_2 W5B_2 1_555 1_555
O8_2 W2_2 1_555 1_555
C5B C6B 1_555 1_555
W2_2 O1_2 1_555 1_555
W5B_2 O5B 1_555 1_555
O1B_2 W2B_2 1_555 1_555
O1B_2 W3B_2 1_555 1_555
O11_2 W3_2 1_555 1_555
O16B W3_2 1_555 1_555
O12B W3_2 1_555 1_555
O12B W6B_2 1_555 1_555
W2B_2 O8B_2 1_555 1_555
W3B_2 O11B_2 1_555 1_555
O8B_2 W6B_2 1_555 1_555
W6B_2 O19B 1_555 1_555
W6B_2 O9B 1_555 1_555
O24B W4_2 1_555 1_555
W4_2 O15_2 1_555 1_555

#END
