
#######################################################################
#
#                 Cambridge Crystallographic Data Centre
#                                CCDC 
#
#######################################################################
#
# If this CIF has been generated from an entry in the Cambridge 
# Structural Database, then it will include bibliographic, chemical, 
# crystal, experimental, refinement or atomic coordinate data resulting 
# from the CCDC's data processing and validation procedures.
#
#######################################################################

data_QEWMUC
_symmetry_cell_setting           monoclinic
_symmetry_space_group_name_H-M   'P 21/m'
_symmetry_Int_Tables_number      11
_space_group_name_Hall           '-P 2yb'
loop_
_symmetry_equiv_pos_site_id
_symmetry_equiv_pos_as_xyz
1 x,y,z
2 -x,1/2+y,-z
3 -x,-y,-z
4 x,1/2-y,z
_cell_length_a                   9.855(3)
_cell_length_b                   18.435(5)
_cell_length_c                   15.636(4)
_cell_angle_alpha                90
_cell_angle_beta                 102.333(3)
_cell_angle_gamma                90
_cell_volume                     2775.14
loop_
_atom_site_label
_atom_site_type_symbol
_atom_site_fract_x
_atom_site_fract_y
_atom_site_fract_z
C1 C 0.3394(7) 0.4139(4) 0.4723(5)
C2 C 0.3789(8) 0.3641(4) 0.5370(5)
H1 H 0.4590 0.3370 0.5385
C3 C 0.3023(8) 0.3524(4) 0.6016(5)
H2 H 0.3332 0.3197 0.6468
C4 C 0.1828(8) 0.3895(4) 0.5972(5)
H3 H 0.1208 0.3763 0.6317
C5 C 0.1563(8) 0.4442(5) 0.5433(5)
H4 H 0.0832 0.4750 0.5472
C6 C 0.2333(7) 0.4582(4) 0.4805(5)
H5 H 0.2119 0.4981 0.4437
C7 C 0.5097(6) 0.6154(4) 0.1325(4)
H6 H 0.4565 0.6536 0.1044
C8 C 1.1659(5) 0.6160(3) 0.0240(3)
C9 C 1.2070(5) 0.6847(3) -0.0148(3)
C10 C 1.2670(5) 0.6847(3) -0.0881(3)
H7 H 1.2845 0.6411 -0.1138
C11 C 1.3002(8) 0.7500 -0.1222(5)
H8 H 1.3454 0.7500 -0.1686
C12 C 1.1805(8) 0.7500 0.0219(5)
H9 H 1.1443 0.7500 0.0722
C13 C 0.8317(5) 0.6138(3) -0.0781(3)
C14 C 0.7752(5) 0.6842(3) -0.1197(3)
C15 C 0.6943(5) 0.6849(3) -0.2034(3)
H10 H 0.6693 0.6413 -0.2324
C16 C 0.6497(8) 0.7500 -0.2449(5)
H11 H 0.5906 0.7500 -0.2999
C17 C 0.8120(7) 0.7500 -0.0763(5)
H12 H 0.8611 0.7500 -0.0185
O1 O 1.1532(4) 0.6176(2) 0.1018(2)
O2 O 1.1395(4) 0.5599(2) -0.0234(3)
O3 O 0.8620(4) 0.60967(19) 0.0041(2)
O4 O 0.8485(4) 0.56302(19) -0.1292(2)
C18 C 0.9868(6) 0.3962(3) 0.2817(4)
H13 H 1.0729 0.3915 0.2668
C19 C 0.9582(6) 0.3517(3) 0.3479(4)
H14 H 1.0242 0.3191 0.3769
C20 C 0.8307(6) 0.3572(3) 0.3694(4)
H15 H 0.8081 0.3272 0.4122
C21 C 0.7344(6) 0.4086(3) 0.3261(4)
C22 C 0.6027(6) 0.4222(3) 0.3477(4)
C23 C 0.4309(6) 0.4266(4) 0.4108(4)
C24 C 0.5166(6) 0.4759(3) 0.3056(4)
C25 C 0.5485(6) 0.5196(3) 0.2374(4)
C26 C 0.4652(6) 0.5756(3) 0.1956(4)
H16 H 0.3806 0.5860 0.2102
C27 C 0.6362(6) 0.5976(3) 0.1113(4)
H17 H 0.6642 0.6241 0.0674
C28 C 0.6775(6) 0.5058(3) 0.2141(4)
C29 C 0.7721(6) 0.4510(3) 0.2597(4)
C30 C 1.0916(5) 0.6168(3) 0.2767(3)
C31 C 1.1501(5) 0.6842(3) 0.3225(3)
C32 C 1.2507(5) 0.6845(3) 0.4006(3)
H18 H 1.2860 0.6410 0.4260
C33 C 1.2979(8) 0.7500 0.4402(5)
H19 H 1.3615 0.7500 0.4935
C34 C 1.1005(8) 0.7500 0.2859(5)
H20 H 1.0316 0.7500 0.2349
N1 N 0.8985(4) 0.4446(2) 0.2389(3)
N2 N 0.7192(4) 0.5448(3) 0.1503(3)
N3 N 0.5483(5) 0.3913(3) 0.4129(3)
N4 N 0.4063(4) 0.4785(2) 0.3466(3)
H21 H 0.3358 0.5071 0.3343
O5 O 1.1588(4) 0.5584(2) 0.2814(2)
O6 O 0.9707(4) 0.6222(2) 0.2289(2)
Pr1 Pr 0.97627(3) 0.529469(13) 0.122941(16)
C8C C 1.1659(5) 0.8840(3) 0.0240(3)
C9C C 1.2070(5) 0.8153(3) -0.0148(3)
C10C C 1.2670(5) 0.8153(3) -0.0881(3)
H7C H 1.2845 0.8589 -0.1138
O1C O 1.1532(4) 0.8824(2) 0.1018(2)
O2C O 1.1395(4) 0.9401(2) -0.0234(3)
C13C C 0.8317(5) 0.8862(3) -0.0781(3)
C14C C 0.7752(5) 0.8158(3) -0.1197(3)
C15C C 0.6943(5) 0.8151(3) -0.2034(3)
H10C H 0.6693 0.8587 -0.2324
O3C O 0.8620(4) 0.89033(19) 0.0041(2)
O4C O 0.8485(4) 0.93698(19) -0.1292(2)
C30C C 1.0916(5) 0.8832(3) 0.2767(3)
C31C C 1.1501(5) 0.8158(3) 0.3225(3)
C32C C 1.2507(5) 0.8155(3) 0.4006(3)
H18C H 1.2860 0.8590 0.4260
O5C O 1.1588(4) 0.9416(2) 0.2814(2)
O6C O 0.9707(4) 0.8778(2) 0.2289(2)
C1B C 1.6606(7) 0.5861(4) -0.4723(5)
C2B C 1.6211(8) 0.6359(4) -0.5370(5)
H1B H 1.5410 0.6630 -0.5385
C3B C 1.6977(8) 0.6476(4) -0.6016(5)
H2B H 1.6668 0.6803 -0.6468
C4B C 1.8172(8) 0.6105(4) -0.5972(5)
H3B H 1.8792 0.6237 -0.6317
C5B C 1.8437(8) 0.5558(5) -0.5433(5)
H4B H 1.9168 0.5250 -0.5472
C6B C 1.7667(7) 0.5418(4) -0.4805(5)
H5B H 1.7881 0.5019 -0.4437
C7B C 1.4903(6) 0.3846(4) -0.1325(4)
H6B H 1.5435 0.3464 -0.1044
C18B C 1.0132(6) 0.6038(3) -0.2817(4)
H13B H 0.9271 0.6085 -0.2668
C19B C 1.0418(6) 0.6483(3) -0.3479(4)
H14B H 0.9758 0.6809 -0.3769
C20B C 1.1693(6) 0.6428(3) -0.3694(4)
H15B H 1.1919 0.6728 -0.4122
C21B C 1.2656(6) 0.5914(3) -0.3261(4)
C22B C 1.3973(6) 0.5778(3) -0.3477(4)
C23B C 1.5691(6) 0.5734(4) -0.4108(4)
C24B C 1.4834(6) 0.5241(3) -0.3056(4)
C25B C 1.4515(6) 0.4804(3) -0.2374(4)
C26B C 1.5348(6) 0.4244(3) -0.1956(4)
H16B H 1.6194 0.4140 -0.2102
C27B C 1.3638(6) 0.4024(3) -0.1113(4)
H17B H 1.3358 0.3759 -0.0674
C28B C 1.3225(6) 0.4942(3) -0.2141(4)
C29B C 1.2279(6) 0.5490(3) -0.2597(4)
N1B N 1.1015(4) 0.5554(2) -0.2389(3)
N2B N 1.2808(4) 0.4552(3) -0.1503(3)
N3B N 1.4517(5) 0.6087(3) -0.4129(3)
N4B N 1.5937(4) 0.5215(2) -0.3466(3)
H21B H 1.6642 0.4929 -0.3343
Pr1B Pr 1.02373(3) 0.470531(13) -0.122941(16)
O1B O 0.8468(4) 0.3824(2) -0.1018(2)
O2B O 0.8605(4) 0.4401(2) 0.0234(3)
O3B O 1.1380(4) 0.39033(19) -0.0041(2)
O4B O 1.1515(4) 0.43698(19) 0.1292(2)
O5B O 0.8412(4) 0.4416(2) -0.2814(2)
O6B O 1.0293(4) 0.3778(2) -0.2289(2)
Pr1A Pr 1.02373(3) 1.029469(13) -0.122941(16)
Pr1C Pr 0.97627(3) 0.970531(13) 0.122941(16)
O7 O 0.774(4) 0.7500 0.216(3)
loop_
_geom_bond_atom_site_label_1
_geom_bond_atom_site_label_2
_geom_bond_site_symmetry_1
_geom_bond_site_symmetry_2
C1 C2 1_555 1_555
C2 H1 1_555 1_555
C3 C2 1_555 1_555
H2 C3 1_555 1_555
C4 C3 1_555 1_555
H3 C4 1_555 1_555
C5 C4 1_555 1_555
H4 C5 1_555 1_555
C6 C1 1_555 1_555
H5 C6 1_555 1_555
C7 H6 1_555 1_555
C8 C9 1_555 1_555
C9 C10 1_555 1_555
C10 H7 1_555 1_555
C11 C10 1_555 1_555
H8 C11 1_555 1_555
C12 C9 1_555 1_555
H9 C12 1_555 1_555
C13 C14 1_555 1_555
C14 C15 1_555 1_555
C15 H10 1_555 1_555
C16 C15 1_555 1_555
H11 C16 1_555 1_555
C17 C14 1_555 1_555
H12 C17 1_555 1_555
O1 C8 1_555 1_555
O2 C8 1_555 1_555
O3 C13 1_555 1_555
O4 C13 1_555 1_555
C18 H13 1_555 1_555
C19 C18 1_555 1_555
H14 C19 1_555 1_555
C20 C19 1_555 1_555
H15 C20 1_555 1_555
C21 C20 1_555 1_555
C22 C21 1_555 1_555
C23 C1 1_555 1_555
C24 C22 1_555 1_555
C25 C24 1_555 1_555
C26 C7 1_555 1_555
H16 C26 1_555 1_555
C27 C7 1_555 1_555
H17 C27 1_555 1_555
C28 C25 1_555 1_555
C29 C21 1_555 1_555
C30 C31 1_555 1_555
C31 C32 1_555 1_555
C32 H18 1_555 1_555
C33 C32 1_555 1_555
H19 C33 1_555 1_555
C34 C31 1_555 1_555
H20 C34 1_555 1_555
N1 C18 1_555 1_555
N2 C27 1_555 1_555
N3 C22 1_555 1_555
N4 C23 1_555 1_555
H21 N4 1_555 1_555
O5 C30 1_555 1_555
O6 C30 1_555 1_555
Pr1 O1 1_555 1_555
C8C C9C 1_555 1_555
C9C C12 1_555 1_555
C10C C11 1_555 1_555
H7C C10C 1_555 1_555
O1C C8C 1_555 1_555
O2C C8C 1_555 1_555
C13C C14C 1_555 1_555
C14C C17 1_555 1_555
C15C C16 1_555 1_555
H10C C15C 1_555 1_555
O3C C13C 1_555 1_555
O4C C13C 1_555 1_555
C30C C31C 1_555 1_555
C31C C34 1_555 1_555
C32C C33 1_555 1_555
H18C C32C 1_555 1_555
O5C C30C 1_555 1_555
O6C C30C 1_555 1_555
C1B C2B 1_555 1_555
C2B H1B 1_555 1_555
C3B C2B 1_555 1_555
H2B C3B 1_555 1_555
C4B C3B 1_555 1_555
H3B C4B 1_555 1_555
C5B C4B 1_555 1_555
H4B C5B 1_555 1_555
C6B C1B 1_555 1_555
H5B C6B 1_555 1_555
C7B H6B 1_555 1_555
C18B H13B 1_555 1_555
C19B C18B 1_555 1_555
H14B C19B 1_555 1_555
C20B C19B 1_555 1_555
H15B C20B 1_555 1_555
C21B C20B 1_555 1_555
C22B C21B 1_555 1_555
C23B C1B 1_555 1_555
C24B C22B 1_555 1_555
C25B C24B 1_555 1_555
C26B C7B 1_555 1_555
H16B C26B 1_555 1_555
C27B C7B 1_555 1_555
H17B C27B 1_555 1_555
C28B C25B 1_555 1_555
C29B C21B 1_555 1_555
N1B C18B 1_555 1_555
N2B C27B 1_555 1_555
N3B C22B 1_555 1_555
N4B C23B 1_555 1_555
H21B N4B 1_555 1_555
Pr1B O2 1_555 1_555
O1B Pr1B 1_555 1_555
O2B Pr1 1_555 1_555
O3B Pr1B 1_555 1_555
O4B Pr1 1_555 1_555
O5B Pr1B 1_555 1_555
O6B Pr1B 1_555 1_555
Pr1A O2C 1_555 1_555
Pr1C O1C 1_555 1_555
C5 C6 1_555 1_555
O3 Pr1 1_555 1_555
O4 Pr1B 1_555 1_555
C23 N3 1_555 1_555
C24 N4 1_555 1_555
C25 C26 1_555 1_555
C28 C29 1_555 1_555
C28 N2 1_555 1_555
C29 N1 1_555 1_555
N1 Pr1 1_555 1_555
N2 Pr1 1_555 1_555
O5 Pr1 1_555 1_555
O6 Pr1 1_555 1_555
C9C C10C 1_555 1_555
C14C C15C 1_555 1_555
O3C Pr1C 1_555 1_555
O4C Pr1A 1_555 1_555
C31C C32C 1_555 1_555
O5C Pr1C 1_555 1_555
O6C Pr1C 1_555 1_555
C5B C6B 1_555 1_555
C23B N3B 1_555 1_555
C24B N4B 1_555 1_555
C25B C26B 1_555 1_555
C28B C29B 1_555 1_555
C28B N2B 1_555 1_555
C29B N1B 1_555 1_555
N1B Pr1B 1_555 1_555
N2B Pr1B 1_555 1_555

#END
