
#######################################################################
#
#                 Cambridge Crystallographic Data Centre
#                                CCDC 
#
#######################################################################
#
# If this CIF has been generated from an entry in the Cambridge 
# Structural Database, then it will include bibliographic, chemical, 
# crystal, experimental, refinement or atomic coordinate data resulting 
# from the CCDC's data processing and validation procedures.
#
#######################################################################

data_QEWNAJ
_symmetry_cell_setting           monoclinic
_symmetry_space_group_name_H-M   'P 21/m'
_symmetry_Int_Tables_number      11
_space_group_name_Hall           '-P 2yb'
loop_
_symmetry_equiv_pos_site_id
_symmetry_equiv_pos_as_xyz
1 x,y,z
2 -x,1/2+y,-z
3 -x,-y,-z
4 x,1/2-y,z
_cell_length_a                   9.8355(4)
_cell_length_b                   18.0856(5)
_cell_length_c                   15.6259(6)
_cell_angle_alpha                90
_cell_angle_beta                 101.052(4)
_cell_angle_gamma                90
_cell_volume                     2728
loop_
_atom_site_label
_atom_site_type_symbol
_atom_site_fract_x
_atom_site_fract_y
_atom_site_fract_z
C1 C 0.8616(8) 0.0964(4) 0.8895(5)
H1 H 0.8335 0.1244 0.9330
C2 C 0.9881(7) 0.1119(4) 0.8688(5)
H2 H 1.0418 0.1502 0.8971
C3 C 1.0348(8) 0.0717(4) 0.8074(5)
H3 H 1.1218 0.0804 0.7945
C4 C 0.9490(7) 0.0168(4) 0.7640(4)
C5 C 0.9788(7) -0.0265(4) 0.6935(4)
C6 C 0.8914(8) -0.0783(4) 0.6530(5)
C7 C 0.7611(8) -0.0928(4) 0.6756(5)
C8 C 0.6630(7) -0.1422(4) 0.6331(5)
H4 H 0.6844 -0.1722 0.5892
C9 C 0.5368(7) -0.1474(4) 0.6546(4)
H5 H 0.4713 -0.1801 0.6250
C10 C 0.5051(8) -0.1040(4) 0.7206(5)
H6 H 0.4188 -0.1088 0.7360
C11 C 0.7252(8) -0.0490(4) 0.7433(5)
C12 C 0.8216(8) 0.0049(3) 0.7875(5)
C13 C 1.0624(9) -0.0768(4) 0.5878(5)
C14 C 1.1547(8) -0.0876(4) 0.5261(5)
C15 C 1.2628(8) -0.0481(4) 0.5204(5)
H7 H 1.2870 -0.0095 0.5598
C16 C 1.3449(8) -0.0607(4) 0.4578(5)
H8 H 1.4206 -0.0302 0.4563
C17 C 1.3170(8) -0.1137(4) 0.4026(5)
H9 H 1.3790 -0.1267 0.3670
C18 C 1.2014(8) -0.1486(4) 0.3973(5)
H10 H 1.1742 -0.1819 0.3519
C19 C 1.1145(8) -0.1374(4) 0.4593(5)
H11 H 1.0318 -0.1633 0.4548
C20 C 0.4128(8) 0.1142(4) 0.7287(5)
C21 C 0.3534(8) 0.1834(3) 0.6806(4)
C22 C 0.4052(10) 0.2500 0.7189(6)
H12 H 0.4732 0.2500 0.7693
C23 C 0.2620(7) 0.1833(3) 0.6049(4)
H13 H 0.2320 0.1382 0.5795
C24 C 0.2088(10) 0.2500 0.5617(6)
H14 H 0.1446 0.2500 0.5096
C25 C 0.3388(6) -0.1124(3) 0.9270(4)
C26 C 0.2816(7) -0.1825(3) 0.8860(4)
C27 C 0.1984(6) -0.1842(3) 0.8038(4)
H15 H 0.1714 -0.1399 0.7754
C28 C 0.1548(9) -0.2500 0.7630(5)
H16 H 0.0966 -0.2500 0.7086
C29 C 0.3167(9) -0.2500 0.9285(6)
H17 H 0.3642 -0.2500 0.9860
C30 C 0.3332(7) 0.1135(3) 0.9791(4)
C31 C 0.2858(7) 0.1830(3) 1.0153(4)
C32 C 0.2183(7) 0.1847(3) 1.0844(4)
H18 H 0.1965 0.1406 1.1091
C33 C 0.1828(9) 0.2500 1.1174(6)
H19 H 0.1339 0.2500 1.1628
C34 C 0.3165(9) 0.2500 0.9782(5)
H20 H 0.3571 0.2500 0.9291
N1 N 0.7773(5) 0.0442(3) 0.8513(3)
N2 N 0.5973(6) -0.0547(2) 0.7634(3)
N3 N 1.0896(5) -0.0255(3) 0.6525(3)
H21 H 1.1620 0.0020 0.6651
N4 N 0.9437(6) -0.1122(3) 0.5855(3)
O1 O 0.5309(5) 0.1207(2) 0.7769(3)
O2 O 0.3471(5) 0.0562(2) 0.7237(3)
O3 O 0.3570(4) -0.06025(19) 0.8756(3)
O4 O 0.3675(5) -0.1077(2) 1.0086(3)
O5 O 0.3538(5) 0.1121(2) 0.9034(3)
O6 O 0.3573(5) 0.0578(2) 1.0296(3)
Tb1 Tb 0.52786(3) 0.029177(15) 0.87805(2)
C20C C 0.4128(8) 0.3858(4) 0.7287(5)
C21C C 0.3534(8) 0.3166(3) 0.6806(4)
C23C C 0.2620(7) 0.3167(3) 0.6049(4)
H13C H 0.2320 0.3618 0.5795
O1C O 0.5309(5) 0.3793(2) 0.7769(3)
O2C O 0.3471(5) 0.4438(2) 0.7237(3)
C25C C 0.3388(6) -0.3876(3) 0.9270(4)
C26C C 0.2816(7) -0.3175(3) 0.8860(4)
C27C C 0.1984(6) -0.3158(3) 0.8038(4)
H15C H 0.1714 -0.3601 0.7754
O3C O 0.3570(4) -0.43975(19) 0.8756(3)
O4C O 0.3675(5) -0.3923(2) 1.0086(3)
C30C C 0.3332(7) 0.3865(3) 0.9791(4)
C31C C 0.2858(7) 0.3170(3) 1.0153(4)
C32C C 0.2183(7) 0.3153(3) 1.0844(4)
H18C H 0.1965 0.3594 1.1091
O5C O 0.3538(5) 0.3879(2) 0.9034(3)
O6C O 0.3573(5) 0.4422(2) 1.0296(3)
C1B C 0.1384(8) -0.0964(4) 1.1105(5)
H1B H 0.1665 -0.1244 1.0670
C2B C 0.0119(7) -0.1119(4) 1.1312(5)
H2B H -0.0418 -0.1502 1.1029
C3B C -0.0348(8) -0.0717(4) 1.1926(5)
H3B H -0.1218 -0.0804 1.2055
C4B C 0.0510(7) -0.0168(4) 1.2360(4)
C5B C 0.0212(7) 0.0265(4) 1.3065(4)
C6B C 0.1086(8) 0.0783(4) 1.3470(5)
C7B C 0.2389(8) 0.0928(4) 1.3244(5)
C8B C 0.3370(7) 0.1422(4) 1.3669(5)
H4B H 0.3156 0.1722 1.4108
C9B C 0.4632(7) 0.1474(4) 1.3454(4)
H5B H 0.5287 0.1801 1.3750
C10B C 0.4949(8) 0.1040(4) 1.2794(5)
H6B H 0.5812 0.1088 1.2640
C11B C 0.2748(8) 0.0490(4) 1.2567(5)
C12B C 0.1784(8) -0.0049(3) 1.2125(5)
C13B C -0.0624(9) 0.0768(4) 1.4122(5)
C14B C -0.1547(8) 0.0876(4) 1.4739(5)
C15B C -0.2628(8) 0.0481(4) 1.4796(5)
H7B H -0.2870 0.0095 1.4402
C16B C -0.3449(8) 0.0607(4) 1.5422(5)
H8B H -0.4206 0.0302 1.5437
C17B C -0.3170(8) 0.1137(4) 1.5974(5)
H9B H -0.3790 0.1267 1.6330
C18B C -0.2014(8) 0.1486(4) 1.6027(5)
H10B H -0.1742 0.1819 1.6481
C19B C -0.1145(8) 0.1374(4) 1.5407(5)
H11B H -0.0318 0.1633 1.5452
N1B N 0.2227(5) -0.0442(3) 1.1487(3)
N2B N 0.4027(6) 0.0547(2) 1.2366(3)
N3B N -0.0896(5) 0.0255(3) 1.3475(3)
H21B H -0.1620 -0.0020 1.3349
N4B N 0.0563(6) 0.1122(3) 1.4145(3)
Tb1B Tb 0.47214(3) -0.029177(15) 1.12195(2)
O1B O 0.4691(5) -0.1207(2) 1.2231(3)
O2B O 0.6529(5) -0.0562(2) 1.2763(3)
O3B O 0.6430(4) 0.06025(19) 1.1244(3)
O4B O 0.6325(5) 0.1077(2) 0.9914(3)
O5B O 0.6462(5) -0.1121(2) 1.0966(3)
O6B O 0.6427(5) -0.0578(2) 0.9704(3)
Tb1A Tb 0.47214(3) -0.470823(15) 1.12195(2)
Tb1A_2 Tb 0.47214(3) 0.529177(15) 1.12195(2)
Tb1C Tb 0.52786(3) -0.529177(15) 0.87805(2)
Tb1C_2 Tb 0.52786(3) 0.470823(15) 0.87805(2)
O7 O 0.738(2) 0.2500 0.7908(17)
loop_
_geom_bond_atom_site_label_1
_geom_bond_atom_site_label_2
_geom_bond_site_symmetry_1
_geom_bond_site_symmetry_2
C1 H1 1_555 1_555
C2 C1 1_555 1_555
H2 C2 1_555 1_555
C3 C2 1_555 1_555
H3 C3 1_555 1_555
C4 C3 1_555 1_555
C5 C4 1_555 1_555
C6 C5 1_555 1_555
C7 C6 1_555 1_555
C8 C7 1_555 1_555
H4 C8 1_555 1_555
C9 C8 1_555 1_555
H5 C9 1_555 1_555
C10 C9 1_555 1_555
H6 C10 1_555 1_555
C11 C7 1_555 1_555
C12 C4 1_555 1_555
C13 C14 1_555 1_555
C14 C15 1_555 1_555
C15 H7 1_555 1_555
C16 C15 1_555 1_555
H8 C16 1_555 1_555
C17 C16 1_555 1_555
H9 C17 1_555 1_555
C18 C17 1_555 1_555
H10 C18 1_555 1_555
C19 C14 1_555 1_555
H11 C19 1_555 1_555
C20 C21 1_555 1_555
C21 C22 1_555 1_555
C22 H12 1_555 1_555
C23 C21 1_555 1_555
H13 C23 1_555 1_555
C24 C23 1_555 1_555
H14 C24 1_555 1_555
C25 C26 1_555 1_555
C26 C27 1_555 1_555
C27 H15 1_555 1_555
C28 C27 1_555 1_555
H16 C28 1_555 1_555
C29 C26 1_555 1_555
H17 C29 1_555 1_555
C30 C31 1_555 1_555
C31 C32 1_555 1_555
C32 H18 1_555 1_555
C33 C32 1_555 1_555
H19 C33 1_555 1_555
C34 C31 1_555 1_555
H20 C34 1_555 1_555
N1 C1 1_555 1_555
N2 C10 1_555 1_555
N3 C5 1_555 1_555
H21 N3 1_555 1_555
N4 C6 1_555 1_555
O1 C20 1_555 1_555
O2 C20 1_555 1_555
O3 C25 1_555 1_555
O4 C25 1_555 1_555
O5 C30 1_555 1_555
O6 C30 1_555 1_555
Tb1 N1 1_555 1_555
C20C C21C 1_555 1_555
C21C C22 1_555 1_555
C23C C24 1_555 1_555
H13C C23C 1_555 1_555
O1C C20C 1_555 1_555
O2C C20C 1_555 1_555
C25C C26C 1_555 1_555
C26C C29 1_555 1_555
C27C C28 1_555 1_555
H15C C27C 1_555 1_555
O3C C25C 1_555 1_555
O4C C25C 1_555 1_555
C30C C31C 1_555 1_555
C31C C34 1_555 1_555
C32C C33 1_555 1_555
H18C C32C 1_555 1_555
O5C C30C 1_555 1_555
O6C C30C 1_555 1_555
C1B H1B 1_555 1_555
C2B C1B 1_555 1_555
H2B C2B 1_555 1_555
C3B C2B 1_555 1_555
H3B C3B 1_555 1_555
C4B C3B 1_555 1_555
C5B C4B 1_555 1_555
C6B C5B 1_555 1_555
C7B C6B 1_555 1_555
C8B C7B 1_555 1_555
H4B C8B 1_555 1_555
C9B C8B 1_555 1_555
H5B C9B 1_555 1_555
C10B C9B 1_555 1_555
H6B C10B 1_555 1_555
C11B C7B 1_555 1_555
C12B C4B 1_555 1_555
C13B C14B 1_555 1_555
C14B C15B 1_555 1_555
C15B H7B 1_555 1_555
C16B C15B 1_555 1_555
H8B C16B 1_555 1_555
C17B C16B 1_555 1_555
H9B C17B 1_555 1_555
C18B C17B 1_555 1_555
H10B C18B 1_555 1_555
C19B C14B 1_555 1_555
H11B C19B 1_555 1_555
N1B C1B 1_555 1_555
N2B C10B 1_555 1_555
N3B C5B 1_555 1_555
H21B N3B 1_555 1_555
N4B C6B 1_555 1_555
Tb1B O4 1_555 1_555
O1B Tb1B 1_555 1_555
O2B Tb1B 1_555 1_555
O3B Tb1B 1_555 1_555
O4B Tb1 1_555 1_555
O5B Tb1B 1_555 1_555
O6B Tb1 1_555 1_555
Tb1A O4C 1_555 1_555
Tb1A_2 O6C 1_555 1_555
Tb1C O3C 1_555 1_555
Tb1C_2 O1C 1_555 1_555
C11 C12 1_555 1_555
C11 N2 1_555 1_555
C12 N1 1_555 1_555
C13 N3 1_555 1_555
C13 N4 1_555 1_555
C18 C19 1_555 1_555
N2 Tb1 1_555 1_555
O1 Tb1 1_555 1_555
O2 Tb1 1_555 1_555
O3 Tb1 1_555 1_555
O5 Tb1 1_555 1_555
O6 Tb1B 1_555 1_555
C21C C23C 1_555 1_555
O2C Tb1C_2 1_555 1_555
C26C C27C 1_555 1_555
C31C C32C 1_555 1_555
O5C Tb1C_2 1_555 1_555
C11B C12B 1_555 1_555
C11B N2B 1_555 1_555
C12B N1B 1_555 1_555
C13B N3B 1_555 1_555
C13B N4B 1_555 1_555
C18B C19B 1_555 1_555
N1B Tb1B 1_555 1_555
N2B Tb1B 1_555 1_555

#END
