
#######################################################################
#
#                 Cambridge Crystallographic Data Centre
#                                CCDC 
#
#######################################################################
#
# If this CIF has been generated from an entry in the Cambridge 
# Structural Database, then it will include bibliographic, chemical, 
# crystal, experimental, refinement or atomic coordinate data resulting 
# from the CCDC's data processing and validation procedures.
#
#######################################################################

data_QEWNEN
_symmetry_cell_setting           monoclinic
_symmetry_space_group_name_H-M   'P 21/m'
_symmetry_Int_Tables_number      11
_space_group_name_Hall           '-P 2yb'
loop_
_symmetry_equiv_pos_site_id
_symmetry_equiv_pos_as_xyz
1 x,y,z
2 -x,1/2+y,-z
3 -x,-y,-z
4 x,1/2-y,z
_cell_length_a                   9.830(4)
_cell_length_b                   18.206(8)
_cell_length_c                   15.592(7)
_cell_angle_alpha                90
_cell_angle_beta                 101.722(5)
_cell_angle_gamma                90
_cell_volume                     2732.23
loop_
_atom_site_label
_atom_site_type_symbol
_atom_site_fract_x
_atom_site_fract_y
_atom_site_fract_z
Eu1 Eu -0.47436(3) 0.029478(16) -0.122487(19)
O1 O -0.4721(5) 0.1214(3) -0.2256(3)
O2 O -0.6588(5) 0.0567(3) -0.2797(3)
O3 O -0.3540(5) 0.0612(2) 0.1269(3)
O4 O -0.3672(5) 0.1086(2) -0.0066(3)
O5 O -0.6493(5) 0.1144(3) -0.0990(3)
O6 O -0.6421(5) 0.0585(3) 0.0276(3)
N1 N -0.4014(6) -0.0546(3) -0.2368(3)
N2 N -0.2221(6) 0.0456(3) -0.1483(4)
N3 N -0.0496(6) -0.1092(4) -0.4124(4)
N4 N 0.0923(6) -0.0222(3) -0.3457(4)
H1 H 0.1633 0.0063 -0.3332
C1 C -0.4892(8) -0.1029(4) -0.2792(5)
H2 H -0.5751 -0.1078 -0.2635
C2 C -0.4608(8) -0.1475(4) -0.3467(5)
H3 H -0.5276 -0.1797 -0.3764
C3 C -0.3341(8) -0.1428(4) -0.3679(5)
H4 H -0.3112 -0.1735 -0.4105
C4 C -0.2373(8) -0.0911(4) -0.3249(5)
C5 C -0.1059(8) -0.0784(4) -0.3469(5)
C6 C -0.0179(8) -0.0244(4) -0.3047(5)
C7 C -0.0503(8) 0.0196(4) -0.2352(5)
C8 C 0.0346(8) 0.0755(4) -0.1935(5)
H5 H 0.1202 0.0852 -0.2077
C9 C -0.0116(8) 0.1161(5) -0.1305(5)
H6 H 0.0417 0.1547 -0.1025
C10 C -0.1383(8) 0.0991(4) -0.1092(5)
H7 H -0.1666 0.1263 -0.0655
C11 C -0.1799(8) 0.0065(5) -0.2123(5)
C12 C -0.2755(8) -0.0487(4) -0.2587(5)
C13 C 0.0680(9) -0.0739(5) -0.4104(6)
C14 C 0.1595(9) -0.0866(5) -0.4726(6)
C15 C 0.1201(10) -0.1352(5) -0.5373(6)
H8 H 0.0393 -0.1621 -0.5387
C16 C 0.1965(10) -0.1471(5) -0.6036(6)
H9 H 0.1640 -0.1786 -0.6502
C17 C 0.3168(10) -0.1117(5) -0.5970(6)
H10 H 0.3794 -0.1257 -0.6313
C18 C 0.3459(10) -0.0577(6) -0.5425(6)
H11 H 0.4211 -0.0275 -0.5456
C19 C 0.2675(9) -0.0434(5) -0.4790(6)
H12 H 0.2903 -0.0039 -0.4410
C20 C -0.5921(7) 0.1155(4) -0.2748(4)
C21 C -0.6490(7) 0.1833(4) -0.3211(4)
C22 C -0.7482(7) 0.1837(4) -0.3996(4)
H13 H -0.7822 0.1396 -0.4256
C23 C -0.7956(11) 0.2500 -0.4386(6)
H14 H -0.8599 0.2500 -0.4914
C24 C -0.6026(10) 0.2500 -0.2846(6)
H15 H -0.5364 0.2500 -0.2327
C25 C -0.3359(7) 0.1126(4) 0.0752(4)
C26 C -0.2782(7) 0.1830(4) 0.1166(4)
C27 C -0.1962(7) 0.1837(4) 0.1994(4)
H16 H -0.1701 0.1396 0.2280
C28 C -0.1515(10) 0.2500 0.2411(6)
H17 H -0.0927 0.2500 0.2959
C29 C -0.3165(10) 0.2500 0.0733(6)
H18 H -0.3671 0.2500 0.0160
C30 C -0.6665(7) 0.1137(4) -0.0214(4)
C31 C -0.7099(7) 0.1836(4) 0.0148(4)
C32 C -0.7739(7) 0.1840(4) 0.0874(4)
H19 H -0.7925 0.1399 0.1129
C33 C -0.8093(10) 0.2500 0.1213(6)
H20 H -0.8572 0.2500 0.1669
C34 C -0.6816(10) 0.2500 -0.0208(6)
H21 H -0.6422 0.2500 -0.0703
O1C O -0.4721(5) 0.3786(3) -0.2256(3)
O2C O -0.6588(5) 0.4433(3) -0.2797(3)
C20C C -0.5921(7) 0.3845(4) -0.2748(4)
C21C C -0.6490(7) 0.3167(4) -0.3211(4)
C22C C -0.7482(7) 0.3163(4) -0.3996(4)
H13C H -0.7822 0.3604 -0.4256
O3C O -0.3540(5) 0.4388(2) 0.1269(3)
O4C O -0.3672(5) 0.3914(2) -0.0066(3)
C25C C -0.3359(7) 0.3874(4) 0.0752(4)
C26C C -0.2782(7) 0.3170(4) 0.1166(4)
C27C C -0.1962(7) 0.3163(4) 0.1994(4)
H16C H -0.1701 0.3604 0.2280
O5C O -0.6493(5) 0.3856(3) -0.0990(3)
O6C O -0.6421(5) 0.4415(3) 0.0276(3)
C30C C -0.6665(7) 0.3863(4) -0.0214(4)
C31C C -0.7099(7) 0.3164(4) 0.0148(4)
C32C C -0.7739(7) 0.3160(4) 0.0874(4)
H19C H -0.7925 0.3601 0.1129
Eu1B Eu -0.52564(3) -0.029478(16) 0.122487(19)
N1B N -0.5986(6) 0.0546(3) 0.2368(3)
N2B N -0.7779(6) -0.0456(3) 0.1483(4)
N3B N -0.9504(6) 0.1092(4) 0.4124(4)
N4B N -1.0923(6) 0.0222(3) 0.3457(4)
H1B H -1.1633 -0.0063 0.3332
C1B C -0.5108(8) 0.1029(4) 0.2792(5)
H2B H -0.4249 0.1078 0.2635
C2B C -0.5392(8) 0.1475(4) 0.3467(5)
H3B H -0.4724 0.1797 0.3764
C3B C -0.6659(8) 0.1428(4) 0.3679(5)
H4B H -0.6888 0.1735 0.4105
C4B C -0.7627(8) 0.0911(4) 0.3249(5)
C5B C -0.8941(8) 0.0784(4) 0.3469(5)
C6B C -0.9821(8) 0.0244(4) 0.3047(5)
C7B C -0.9497(8) -0.0196(4) 0.2352(5)
C8B C -1.0346(8) -0.0755(4) 0.1935(5)
H5B H -1.1202 -0.0852 0.2077
C9B C -0.9884(8) -0.1161(5) 0.1305(5)
H6B H -1.0417 -0.1547 0.1025
C10B C -0.8617(8) -0.0991(4) 0.1092(5)
H7B H -0.8334 -0.1263 0.0655
C11B C -0.8201(8) -0.0065(5) 0.2123(5)
C12B C -0.7245(8) 0.0487(4) 0.2587(5)
C13B C -1.0680(9) 0.0739(5) 0.4104(6)
C14B C -1.1595(9) 0.0866(5) 0.4726(6)
C15B C -1.1201(10) 0.1352(5) 0.5373(6)
H8B H -1.0393 0.1621 0.5387
C16B C -1.1965(10) 0.1471(5) 0.6036(6)
H9B H -1.1640 0.1786 0.6502
C17B C -1.3168(10) 0.1117(5) 0.5970(6)
H10B H -1.3794 0.1257 0.6313
C18B C -1.3459(10) 0.0577(6) 0.5425(6)
H11B H -1.4211 0.0275 0.5456
C19B C -1.2675(9) 0.0434(5) 0.4790(6)
H12B H -1.2903 0.0039 0.4410
Eu1A Eu -0.52564(3) 0.529478(16) 0.122487(19)
Eu1C Eu -0.47436(3) 0.470522(16) -0.122487(19)
O1B O -0.5279(5) -0.1214(3) 0.2256(3)
O2B O -0.3412(5) -0.0567(3) 0.2797(3)
O3B O -0.6460(5) -0.0612(2) -0.1269(3)
O4B O -0.6328(5) -0.1086(2) 0.0066(3)
O5B O -0.3507(5) -0.1144(3) 0.0990(3)
O6B O -0.3579(5) -0.0585(3) -0.0276(3)
O7 O -0.269(4) 0.2500 -0.210(3)
loop_
_geom_bond_atom_site_label_1
_geom_bond_atom_site_label_2
_geom_bond_site_symmetry_1
_geom_bond_site_symmetry_2
Eu1 O1 1_555 1_555
O1 C20 1_555 1_555
O2 Eu1 1_555 1_555
O3 C25 1_555 1_555
O4 Eu1 1_555 1_555
O5 Eu1 1_555 1_555
O6 C30 1_555 1_555
N1 Eu1 1_555 1_555
N2 Eu1 1_555 1_555
N3 C5 1_555 1_555
N4 H1 1_555 1_555
C1 N1 1_555 1_555
H2 C1 1_555 1_555
C2 C1 1_555 1_555
H3 C2 1_555 1_555
C3 C2 1_555 1_555
H4 C3 1_555 1_555
C4 C3 1_555 1_555
C5 C4 1_555 1_555
C6 N4 1_555 1_555
C7 C6 1_555 1_555
C8 C7 1_555 1_555
H5 C8 1_555 1_555
C9 C8 1_555 1_555
H6 C9 1_555 1_555
C10 N2 1_555 1_555
H7 C10 1_555 1_555
C11 N2 1_555 1_555
C12 N1 1_555 1_555
C13 N3 1_555 1_555
C14 C13 1_555 1_555
C15 C14 1_555 1_555
H8 C15 1_555 1_555
C16 C15 1_555 1_555
H9 C16 1_555 1_555
C17 C16 1_555 1_555
H10 C17 1_555 1_555
C18 C17 1_555 1_555
H11 C18 1_555 1_555
C19 C14 1_555 1_555
H12 C19 1_555 1_555
C20 O2 1_555 1_555
C21 C20 1_555 1_555
C22 C21 1_555 1_555
H13 C22 1_555 1_555
C23 C22 1_555 1_555
H14 C23 1_555 1_555
C24 C21 1_555 1_555
H15 C24 1_555 1_555
C25 O4 1_555 1_555
C26 C25 1_555 1_555
C27 C26 1_555 1_555
H16 C27 1_555 1_555
C28 C27 1_555 1_555
H17 C28 1_555 1_555
C29 C26 1_555 1_555
H18 C29 1_555 1_555
C30 O5 1_555 1_555
C31 C30 1_555 1_555
C32 C31 1_555 1_555
H19 C32 1_555 1_555
C33 C32 1_555 1_555
H20 C33 1_555 1_555
C34 C31 1_555 1_555
H21 C34 1_555 1_555
O1C C20C 1_555 1_555
O2C C20C 1_555 1_555
C20C C21C 1_555 1_555
C21C C24 1_555 1_555
C22C C23 1_555 1_555
H13C C22C 1_555 1_555
O3C C25C 1_555 1_555
O4C C25C 1_555 1_555
C25C C26C 1_555 1_555
C26C C29 1_555 1_555
C27C C28 1_555 1_555
H16C C27C 1_555 1_555
O5C C30C 1_555 1_555
O6C C30C 1_555 1_555
C30C C31C 1_555 1_555
C31C C34 1_555 1_555
C32C C33 1_555 1_555
H19C C32C 1_555 1_555
Eu1B O3 1_555 1_555
N1B Eu1B 1_555 1_555
N2B Eu1B 1_555 1_555
N3B C5B 1_555 1_555
N4B H1B 1_555 1_555
C1B N1B 1_555 1_555
H2B C1B 1_555 1_555
C2B C1B 1_555 1_555
H3B C2B 1_555 1_555
C3B C2B 1_555 1_555
H4B C3B 1_555 1_555
C4B C3B 1_555 1_555
C5B C4B 1_555 1_555
C6B N4B 1_555 1_555
C7B C6B 1_555 1_555
C8B C7B 1_555 1_555
H5B C8B 1_555 1_555
C9B C8B 1_555 1_555
H6B C9B 1_555 1_555
C10B N2B 1_555 1_555
H7B C10B 1_555 1_555
C11B N2B 1_555 1_555
C12B N1B 1_555 1_555
C13B N3B 1_555 1_555
C14B C13B 1_555 1_555
C15B C14B 1_555 1_555
H8B C15B 1_555 1_555
C16B C15B 1_555 1_555
H9B C16B 1_555 1_555
C17B C16B 1_555 1_555
H10B C17B 1_555 1_555
C18B C17B 1_555 1_555
H11B C18B 1_555 1_555
C19B C14B 1_555 1_555
H12B C19B 1_555 1_555
Eu1A O3C 1_555 1_555
Eu1C O1C 1_555 1_555
O1B Eu1B 1_555 1_555
O2B Eu1B 1_555 1_555
O3B Eu1 1_555 1_555
O4B Eu1B 1_555 1_555
O5B Eu1B 1_555 1_555
O6B Eu1 1_555 1_555
O6 Eu1B 1_555 1_555
N4 C13 1_555 1_555
C4 C12 1_555 1_555
C5 C6 1_555 1_555
C7 C11 1_555 1_555
C9 C10 1_555 1_555
C11 C12 1_555 1_555
C18 C19 1_555 1_555
O2C Eu1C 1_555 1_555
C21C C22C 1_555 1_555
O4C Eu1C 1_555 1_555
C26C C27C 1_555 1_555
O5C Eu1C 1_555 1_555
O6C Eu1A 1_555 1_555
C31C C32C 1_555 1_555
N4B C13B 1_555 1_555
C4B C12B 1_555 1_555
C5B C6B 1_555 1_555
C7B C11B 1_555 1_555
C9B C10B 1_555 1_555
C11B C12B 1_555 1_555
C18B C19B 1_555 1_555

#END
