
#######################################################################
#
#                 Cambridge Crystallographic Data Centre
#                                CCDC 
#
#######################################################################
#
# If this CIF has been generated from an entry in the Cambridge 
# Structural Database, then it will include bibliographic, chemical, 
# crystal, experimental, refinement or atomic coordinate data resulting 
# from the CCDC's data processing and validation procedures.
#
#######################################################################

data_QEXBEC
_symmetry_cell_setting           triclinic
_symmetry_space_group_name_H-M   'P -1'
_symmetry_Int_Tables_number      2
_space_group_name_Hall           '-P 1'
loop_
_symmetry_equiv_pos_site_id
_symmetry_equiv_pos_as_xyz
1 x,y,z
2 -x,-y,-z
_cell_length_a                   7.4259(10)
_cell_length_b                   8.0297(11)
_cell_length_c                   12.5620(17)
_cell_angle_alpha                90.092(2)
_cell_angle_beta                 90.675(2)
_cell_angle_gamma                111.632(2)
_cell_volume                     696.227
loop_
_atom_site_label
_atom_site_type_symbol
_atom_site_fract_x
_atom_site_fract_y
_atom_site_fract_z
Cd1 Cd 0.36488(4) 0.21233(4) 0.24493(3)
Cd2 Cd 0.5000 0.5000 0.5000
Cl1 Cl 0.58966(19) 0.23970(18) 0.40636(10)
Cl2 Cl 0.30523(18) 0.49949(17) 0.33238(10)
N1 N 0.1048(6) -0.0133(5) 0.3326(3)
N2 N -0.2202(6) -0.2686(5) 0.4216(3)
N3 N 0.0777(5) 0.1797(5) 0.1546(3)
N4 N -0.2323(5) 0.0041(5) 0.1261(3)
N5 N -0.1705(6) 0.1162(5) 0.0406(3)
N6 N 0.3796(6) 0.6303(5) -0.1370(3)
O1 O 0.3741(5) -0.0411(5) 0.1547(3)
C1 C 0.1199(7) -0.1098(7) 0.4164(4)
H1 H 0.2414 -0.0892 0.4464
C2 C -0.0414(8) -0.2395(7) 0.4593(4)
H2 H -0.0256 -0.3083 0.5156
C3 C -0.2347(7) -0.1729(6) 0.3367(4)
H3 H -0.3564 -0.1913 0.3078
C4 C -0.0720(7) -0.0472(6) 0.2909(4)
C5 C -0.0782(6) 0.0468(6) 0.1912(4)
C6 C 0.0100(6) 0.2198(6) 0.0618(4)
C7 C 0.1285(6) 0.3678(6) -0.0065(4)
C8 C 0.0930(7) 0.3690(6) -0.1154(4)
H4 H -0.0161 0.2825 -0.1461
C9 C 0.2211(7) 0.4996(6) -0.1771(4)
H5 H 0.1970 0.4976 -0.2500
C10 C 0.4017(6) 0.6387(6) -0.0313(4)
H6 H 0.5041 0.7341 -0.0018
C11 C 0.2804(6) 0.5133(6) 0.0363(4)
H7 H 0.2997 0.5257 0.1096
H8 H 0.317(10) -0.082(9) 0.098(3)
H9 H 0.487(4) -0.029(7) 0.145(5)
Cd1A Cd -0.36488(4) -0.21233(4) 0.75507(3)
Cl1A Cl -0.58966(19) -0.23970(18) 0.59364(10)
Cl2A Cl -0.30523(18) -0.49949(17) 0.66762(10)
N1A N -0.1048(6) 0.0133(5) 0.6674(3)
N2A N 0.2202(6) 0.2686(5) 0.5784(3)
N3A N -0.0777(5) -0.1797(5) 0.8454(3)
N4A N 0.2323(5) -0.0041(5) 0.8739(3)
N5A N 0.1705(6) -0.1162(5) 0.9594(3)
N6A N -0.3796(6) -0.6303(5) 1.1370(3)
O1A O -0.3741(5) 0.0411(5) 0.8453(3)
C1A C -0.1199(7) 0.1098(7) 0.5836(4)
H1A H -0.2414 0.0892 0.5536
C2A C 0.0414(8) 0.2395(7) 0.5407(4)
H2A H 0.0256 0.3083 0.4844
C3A C 0.2347(7) 0.1729(6) 0.6633(4)
H3A H 0.3564 0.1913 0.6922
C4A C 0.0720(7) 0.0472(6) 0.7091(4)
C5A C 0.0782(6) -0.0468(6) 0.8088(4)
C6A C -0.0100(6) -0.2198(6) 0.9382(4)
C7A C -0.1285(6) -0.3678(6) 1.0065(4)
C8A C -0.0930(7) -0.3690(6) 1.1154(4)
H4A H 0.0161 -0.2825 1.1461
C9A C -0.2211(7) -0.4996(6) 1.1771(4)
H5A H -0.1970 -0.4976 1.2500
C10A C -0.4017(6) -0.6387(6) 1.0313(4)
H6A H -0.5041 -0.7341 1.0018
C11A C -0.2804(6) -0.5133(6) 0.9637(4)
H7A H -0.2997 -0.5257 0.8904
H8A H -0.317(10) 0.082(9) 0.902(3)
H9A H -0.487(4) 0.029(7) 0.855(5)
Cd1_2 Cd -0.63512(4) -0.78767(4) 1.24493(3)
Cd1A_2 Cd 0.63512(4) 0.78767(4) -0.24493(3)
Cd2_2 Cd -0.5000 -0.5000 0.5000
Cl1A_2 Cl 0.41034(19) 0.76030(18) 0.59364(10)
Cl2A_2 Cl 0.69477(18) 0.50051(17) 0.66762(10)
N2_2 N 0.7798(6) 0.7314(5) 0.4216(3)
N6_2 N -0.6204(6) -0.3697(5) 0.8630(3)
N6A_2 N 0.6204(6) 0.3697(5) 0.1370(3)
loop_
_geom_bond_atom_site_label_1
_geom_bond_atom_site_label_2
_geom_bond_site_symmetry_1
_geom_bond_site_symmetry_2
Cd1 Cl1 1_555 1_555
Cd2 Cl1 1_555 1_555
Cl2 Cd1 1_555 1_555
N1 Cd1 1_555 1_555
N2 C2 1_555 1_555
N3 Cd1 1_555 1_555
N4 N5 1_555 1_555
N5 C6 1_555 1_555
N6 C9 1_555 1_555
O1 Cd1 1_555 1_555
C1 N1 1_555 1_555
H1 C1 1_555 1_555
C2 C1 1_555 1_555
H2 C2 1_555 1_555
C3 N2 1_555 1_555
H3 C3 1_555 1_555
C4 N1 1_555 1_555
C5 N3 1_555 1_555
C6 N3 1_555 1_555
C7 C6 1_555 1_555
C8 C7 1_555 1_555
H4 C8 1_555 1_555
C9 C8 1_555 1_555
H5 C9 1_555 1_555
C10 N6 1_555 1_555
H6 C10 1_555 1_555
C11 C7 1_555 1_555
H7 C11 1_555 1_555
H8 O1 1_555 1_555
H9 O1 1_555 1_555
Cd1A Cl1A 1_555 1_555
Cl1A Cd2_2 1_555 1_555
Cl2A Cd1A 1_555 1_555
N1A Cd1A 1_555 1_555
N2A Cd2 1_555 1_555
N3A Cd1A 1_555 1_555
N4A N5A 1_555 1_555
N5A C6A 1_555 1_555
N6A C9A 1_555 1_555
O1A Cd1A 1_555 1_555
C1A N1A 1_555 1_555
H1A C1A 1_555 1_555
C2A N2A 1_555 1_555
H2A C2A 1_555 1_555
C3A N2A 1_555 1_555
H3A C3A 1_555 1_555
C4A N1A 1_555 1_555
C5A N3A 1_555 1_555
C6A N3A 1_555 1_555
C7A C6A 1_555 1_555
C8A C7A 1_555 1_555
H4A C8A 1_555 1_555
C9A C8A 1_555 1_555
H5A C9A 1_555 1_555
C10A N6A 1_555 1_555
H6A C10A 1_555 1_555
C11A C7A 1_555 1_555
H7A C11A 1_555 1_555
H8A O1A 1_555 1_555
H9A O1A 1_555 1_555
Cd1_2 N6A 1_555 1_555
Cd1A_2 N6 1_555 1_555
Cd2_2 N2 1_555 1_555
Cl1A_2 Cd2 1_555 1_555
Cl2A_2 Cd2 1_555 1_555
N2_2 Cd2 1_555 1_555
N6_2 Cd1A 1_555 1_555
N6A_2 Cd1 1_555 1_555
Cd2 Cl2 1_555 1_555
N4 C5 1_555 1_555
C3 C4 1_555 1_555
C4 C5 1_555 1_555
C10 C11 1_555 1_555
Cl2A Cd2_2 1_555 1_555
N4A C5A 1_555 1_555
C1A C2A 1_555 1_555
C3A C4A 1_555 1_555
C4A C5A 1_555 1_555
C10A C11A 1_555 1_555

#END
