
#######################################################################
#
#                 Cambridge Crystallographic Data Centre
#                                CCDC 
#
#######################################################################
#
# If this CIF has been generated from an entry in the Cambridge 
# Structural Database, then it will include bibliographic, chemical, 
# crystal, experimental, refinement or atomic coordinate data resulting 
# from the CCDC's data processing and validation procedures.
#
#######################################################################

data_QEXHAD
_symmetry_cell_setting           triclinic
_symmetry_space_group_name_H-M   'P -1'
_symmetry_Int_Tables_number      2
_space_group_name_Hall           '-P 1'
loop_
_symmetry_equiv_pos_site_id
_symmetry_equiv_pos_as_xyz
1 x,y,z
2 -x,-y,-z
_cell_length_a                   7.437(3)
_cell_length_b                   12.377(4)
_cell_length_c                   14.384(3)
_cell_angle_alpha                107.08(2)
_cell_angle_beta                 103.67(2)
_cell_angle_gamma                96.95(3)
_cell_volume                     1203.65
loop_
_atom_site_label
_atom_site_type_symbol
_atom_site_fract_x
_atom_site_fract_y
_atom_site_fract_z
Rb1 Rb 0.84167(5) 0.35753(3) 0.51393(3)
O1 O 0.5600(3) 0.1550(2) 0.42593(18)
O2 O 0.5524(4) -0.0257(2) 0.42301(18)
H1 H 0.5000 0.0000 0.5000
C1 C 0.5843(4) 0.0574(3) 0.3895(3)
C2 C 0.6575(5) 0.0243(3) 0.2960(2)
H2 H 0.7317 -0.0347 0.3024
C3 C 0.4958(5) -0.0302(3) 0.1989(3)
C4 C 0.3199(6) -0.0059(4) 0.1900(3)
H3 H 0.2949 0.0448 0.2452
C5 C 0.1776(7) -0.0565(5) 0.0988(4)
H4 H 0.0572 -0.0410 0.0942
C6 C 0.2125(9) -0.1281(6) 0.0168(4)
H5 H 0.1186 -0.1590 -0.0449
C7 C 0.3850(10) -0.1539(5) 0.0258(4)
H6 H 0.4083 -0.2055 -0.0296
C8 C 0.5278(7) -0.1053(4) 0.1156(4)
H7 H 0.6466 -0.1233 0.1199
C9 C 0.7902(5) 0.1260(3) 0.2936(2)
C10 C 0.7257(5) 0.2081(3) 0.2553(3)
H8 H 0.5966 0.1994 0.2267
C11 C 0.8474(7) 0.3025(4) 0.2581(3)
H9 H 0.8002 0.3567 0.2314
C12 C 1.0385(7) 0.3172(4) 0.3003(3)
H10 H 1.1211 0.3816 0.3031
C13 C 1.1059(6) 0.2364(4) 0.3381(3)
H11 H 1.2352 0.2457 0.3665
C14 C 0.98392(17) 0.14087(11) 0.33454(9)
H12 H 1.0320 0.0859 0.3598
O3 O 0.76261(17) 0.53455(11) 0.42861(9)
O4 O 0.47230(17) 0.54990(11) 0.43747(9)
H13 H 0.5000 0.5000 0.5000
C15 C 0.61486(17) 0.56597(11) 0.40317(9)
C16 C 0.58248(17) 0.62597(11) 0.32322(9)
H14 H 0.5139 0.6869 0.3455
C17 C 0.7710(4) 0.6843(3) 0.3181(3)
C18 C 0.8558(6) 0.7938(4) 0.3838(3)
H15 H 0.7954 0.8333 0.4288
C19 C 1.0324(7) 0.8461(4) 0.3831(4)
H16 H 1.0906 0.9197 0.4283
C20 C 1.1202(7) 0.7883(6) 0.3155(5)
H17 H 1.2373 0.8233 0.3144
C21 C 1.0359(6) 0.6798(5) 0.2499(3)
H18 H 1.0961 0.6410 0.2043
C22 C 0.8615(5) 0.6270(4) 0.2506(3)
H19 H 0.8049 0.5530 0.2056
C23 C 0.4599(5) 0.5436(4) 0.2212(3)
C24 C 0.4079(4) 0.4265(3) 0.2007(3)
H20 H 0.4493 0.3956 0.2517
C25 C 0.2953(4) 0.3530(3) 0.1060(3)
H21 H 0.2604 0.2744 0.0944
C26 C 0.2365(8) 0.3973(8) 0.0302(4)
H22 H 0.1628 0.3487 -0.0337
C27 C 0.2856(8) 0.5115(7) 0.0482(4)
H23 H 0.2432 0.5413 -0.0034
C28 C 0.3988(6) 0.5859(5) 0.1430(3)
H24 H 0.4332 0.6643 0.1535
Rb1A Rb 0.15833(5) -0.35753(3) 0.48607(3)
Rb1A_2 Rb 1.15833(5) 0.64247(3) 0.48607(3)
Rb1A_3 Rb 0.15833(5) 0.64247(3) 0.48607(3)
Rb1_2 Rb -0.15833(5) 0.35753(3) 0.51393(3)
O1A O 0.4400(3) -0.1550(2) 0.57407(18)
O2A O 0.4476(4) 0.0257(2) 0.57699(18)
C1A C 0.4157(4) -0.0574(3) 0.6105(3)
C2A C 0.3425(5) -0.0243(3) 0.7040(2)
H2A H 0.2683 0.0347 0.6976
C3A C 0.5042(5) 0.0302(3) 0.8011(3)
C4A C 0.6801(6) 0.0059(4) 0.8100(3)
H3A H 0.7051 -0.0448 0.7548
C5A C 0.8224(7) 0.0565(5) 0.9012(4)
H4A H 0.9428 0.0410 0.9058
C6A C 0.7875(9) 0.1281(6) 0.9832(4)
H5A H 0.8814 0.1590 1.0449
C7A C 0.6150(10) 0.1539(5) 0.9742(4)
H6A H 0.5917 0.2055 1.0296
C8A C 0.4722(7) 0.1053(4) 0.8844(4)
H7A H 0.3534 0.1233 0.8801
C9A C 0.2098(5) -0.1260(3) 0.7064(2)
C10A C 0.2743(5) -0.2081(3) 0.7447(3)
H8A H 0.4034 -0.1994 0.7733
C11A C 0.1526(7) -0.3025(4) 0.7419(3)
H9A H 0.1998 -0.3567 0.7686
C12A C -0.0385(7) -0.3172(4) 0.6997(3)
H10A H -0.1211 -0.3816 0.6969
C13A C -0.1059(6) -0.2364(4) 0.6619(3)
H11A H -0.2352 -0.2457 0.6335
C14A C 0.01608(17) -0.14087(11) 0.66546(9)
H12A H -0.0320 -0.0859 0.6402
O3A O 0.23739(17) 0.46545(11) 0.57139(9)
O3A_2 O 1.23739(17) 0.46545(11) 0.57139(9)
O3_2 O -0.23739(17) -0.46545(11) 0.42861(9)
O3A_3 O 0.23739(17) -0.53455(11) 0.57139(9)
O4A O 0.52770(17) 0.45010(11) 0.56253(9)
O4_2 O 0.47230(17) -0.45010(11) 0.43747(9)
C15A C 0.38514(17) 0.43403(11) 0.59683(9)
C16A C 0.41752(17) 0.37403(11) 0.67678(9)
H14A H 0.4861 0.3131 0.6545
C17A C 0.2290(4) 0.3157(3) 0.6819(3)
C18A C 0.1442(6) 0.2062(4) 0.6162(3)
H15A H 0.2046 0.1667 0.5712
C19A C -0.0324(7) 0.1539(4) 0.6169(4)
H16A H -0.0906 0.0803 0.5717
C20A C -0.1202(7) 0.2117(6) 0.6845(5)
H17A H -0.2373 0.1767 0.6856
C21A C -0.0359(6) 0.3202(5) 0.7501(3)
H18A H -0.0961 0.3590 0.7957
C22A C 0.1385(5) 0.3730(4) 0.7494(3)
H19A H 0.1951 0.4470 0.7944
C23A C 0.5401(5) 0.4564(4) 0.7788(3)
C24A C 0.5921(4) 0.5735(3) 0.7993(3)
H20A H 0.5507 0.6044 0.7483
C25A C 0.7047(4) 0.6470(3) 0.8940(3)
H21A H 0.7396 0.7256 0.9056
C26A C 0.7635(8) 0.6027(8) 0.9698(4)
H22A H 0.8372 0.6513 1.0337
C27A C 0.7144(8) 0.4885(7) 0.9518(4)
H23A H 0.7568 0.4587 1.0034
C28A C 0.6012(6) 0.4141(5) 0.8570(3)
H24A H 0.5668 0.3357 0.8465
loop_
_geom_bond_atom_site_label_1
_geom_bond_atom_site_label_2
_geom_bond_site_symmetry_1
_geom_bond_site_symmetry_2
Rb1 O1 1_555 1_555
O1 C1 1_555 1_555
O2 H1 1_555 1_555
H1 O2A 1_555 1_555
C1 O2 1_555 1_555
C2 C1 1_555 1_555
H2 C2 1_555 1_555
C3 C2 1_555 1_555
C4 C3 1_555 1_555
H3 C4 1_555 1_555
C5 C4 1_555 1_555
H4 C5 1_555 1_555
C6 C5 1_555 1_555
H5 C6 1_555 1_555
C7 C6 1_555 1_555
H6 C7 1_555 1_555
C8 C3 1_555 1_555
H7 C8 1_555 1_555
C9 C2 1_555 1_555
C10 C9 1_555 1_555
H8 C10 1_555 1_555
C11 C10 1_555 1_555
H9 C11 1_555 1_555
C12 C11 1_555 1_555
H10 C12 1_555 1_555
C13 C12 1_555 1_555
H11 C13 1_555 1_555
C14 C9 1_555 1_555
H12 C14 1_555 1_555
O3 Rb1 1_555 1_555
O4 H13 1_555 1_555
H13 O4A 1_555 1_555
C15 O3 1_555 1_555
C16 C15 1_555 1_555
H14 C16 1_555 1_555
C17 C16 1_555 1_555
C18 C17 1_555 1_555
H15 C18 1_555 1_555
C19 C18 1_555 1_555
H16 C19 1_555 1_555
C20 C19 1_555 1_555
H17 C20 1_555 1_555
C21 C20 1_555 1_555
H18 C21 1_555 1_555
C22 C17 1_555 1_555
H19 C22 1_555 1_555
C23 C16 1_555 1_555
C24 C23 1_555 1_555
H20 C24 1_555 1_555
C25 C24 1_555 1_555
H21 C25 1_555 1_555
C26 C25 1_555 1_555
H22 C26 1_555 1_555
C27 C26 1_555 1_555
H23 C27 1_555 1_555
C28 C23 1_555 1_555
H24 C28 1_555 1_555
Rb1A O1A 1_555 1_555
Rb1A_2 O3 1_555 1_555
Rb1A_3 O4 1_555 1_555
Rb1_2 O3A 1_555 1_555
O1A C1A 1_555 1_555
O2A C1A 1_555 1_555
C1A C2A 1_555 1_555
C2A H2A 1_555 1_555
C3A C2A 1_555 1_555
C4A C3A 1_555 1_555
H3A C4A 1_555 1_555
C5A C4A 1_555 1_555
H4A C5A 1_555 1_555
C6A C5A 1_555 1_555
H5A C6A 1_555 1_555
C7A C6A 1_555 1_555
H6A C7A 1_555 1_555
C8A C3A 1_555 1_555
H7A C8A 1_555 1_555
C9A C2A 1_555 1_555
C10A C9A 1_555 1_555
H8A C10A 1_555 1_555
C11A C10A 1_555 1_555
H9A C11A 1_555 1_555
C12A C11A 1_555 1_555
H10A C12A 1_555 1_555
C13A C12A 1_555 1_555
H11A C13A 1_555 1_555
C14A C9A 1_555 1_555
H12A C14A 1_555 1_555
O3A Rb1A_3 1_555 1_555
O3A_2 Rb1 1_555 1_555
O3_2 Rb1A 1_555 1_555
O3A_3 Rb1A 1_555 1_555
O4A Rb1 1_555 1_555
O4_2 Rb1A 1_555 1_555
C15A O3A 1_555 1_555
C16A C15A 1_555 1_555
H14A C16A 1_555 1_555
C17A C16A 1_555 1_555
C18A C17A 1_555 1_555
H15A C18A 1_555 1_555
C19A C18A 1_555 1_555
H16A C19A 1_555 1_555
C20A C19A 1_555 1_555
H17A C20A 1_555 1_555
C21A C20A 1_555 1_555
H18A C21A 1_555 1_555
C22A C17A 1_555 1_555
H19A C22A 1_555 1_555
C23A C16A 1_555 1_555
C24A C23A 1_555 1_555
H20A C24A 1_555 1_555
C25A C24A 1_555 1_555
H21A C25A 1_555 1_555
C26A C25A 1_555 1_555
H22A C26A 1_555 1_555
C27A C26A 1_555 1_555
H23A C27A 1_555 1_555
C28A C23A 1_555 1_555
H24A C28A 1_555 1_555
C7 C8 1_555 1_555
C13 C14 1_555 1_555
O4 C15 1_555 1_555
C21 C22 1_555 1_555
C27 C28 1_555 1_555
Rb1A_2 O3A_2 1_555 1_555
C7A C8A 1_555 1_555
C13A C14A 1_555 1_555
O4A C15A 1_555 1_555
C21A C22A 1_555 1_555
C27A C28A 1_555 1_555

#END
