
#######################################################################
#
#                 Cambridge Crystallographic Data Centre
#                                CCDC 
#
#######################################################################
#
# If this CIF has been generated from an entry in the Cambridge 
# Structural Database, then it will include bibliographic, chemical, 
# crystal, experimental, refinement or atomic coordinate data resulting 
# from the CCDC's data processing and validation procedures.
#
#######################################################################

data_QEXZAW
_symmetry_cell_setting           monoclinic
_symmetry_space_group_name_H-M   'P 21/n'
_symmetry_Int_Tables_number      14
_space_group_name_Hall           '-P 2yn'
loop_
_symmetry_equiv_pos_site_id
_symmetry_equiv_pos_as_xyz
1 x,y,z
2 1/2-x,1/2+y,1/2-z
3 -x,-y,-z
4 1/2+x,1/2-y,1/2+z
_cell_length_a                   15.8039(7)
_cell_length_b                   9.8971(4)
_cell_length_c                   20.4911(9)
_cell_angle_alpha                90
_cell_angle_beta                 107.0060(10)
_cell_angle_gamma                90
_cell_volume                     3064.93
loop_
_atom_site_label
_atom_site_type_symbol
_atom_site_fract_x
_atom_site_fract_y
_atom_site_fract_z
Dy1 Dy 0.754419(7) 0.638860(10) 0.494513(5)
O1 O 0.75513(11) 0.53206(16) 0.38776(8)
N1 N 0.74334(12) 0.38995(19) 0.49201(9)
C1 C 0.74107(14) 0.3203(2) 0.43561(11)
Sr1 Sr 0.895920(14) 0.37334(2) 0.282566(11)
O2 O 0.75715(12) 0.34884(18) 0.32505(8)
N2 N 0.87805(12) 0.74786(19) 0.46121(9)
C2 C 0.73327(17) 0.1815(3) 0.43251(13)
H1 H 0.7297 0.1356 0.3922
C3 C 0.7309(2) 0.1118(3) 0.49056(14)
H2 H 0.7259 0.0181 0.4899
O3 O 0.74274(11) 0.53753(17) 0.59754(8)
N3 N 0.64821(12) 0.77084(19) 0.53767(9)
O4 O 0.74857(12) 0.35780(17) 0.66427(8)
C4 C 0.73607(17) 0.1838(3) 0.54969(13)
H3 H 0.7364 0.1392 0.5897
C5 C 0.74078(15) 0.3226(2) 0.54793(11)
O5 O 0.90102(11) 0.55527(17) 0.55198(8)
C6 C 0.75168(15) 0.4060(2) 0.37772(11)
O6 O 1.04734(11) 0.5878(2) 0.58784(8)
C7 C 0.74409(14) 0.4126(2) 0.60853(11)
O7 O 0.71273(10) 0.81228(17) 0.40856(8)
C8 C 0.96191(15) 0.7165(2) 0.49437(12)
O8 O 0.74118(11) 0.92882(18) 0.32374(8)
O9 O 0.81888(11) 0.80710(18) 0.57960(8)
C9 C 1.03190(18) 0.7797(3) 0.47978(15)
H4 H 1.0898 0.7561 0.5030
O10 O 0.81135(13) 0.9253(2) 0.67034(9)
C10 C 1.0147(2) 0.8785(4) 0.43023(18)
H5 H 1.0611 0.9229 0.4200
O11 O 0.60107(11) 0.59362(18) 0.43932(9)
C11 C 0.92797(18) 0.9112(3) 0.39583(15)
H6 H 0.9150 0.9776 0.3623
O12 O 0.45764(12) 0.6243(2) 0.42787(11)
C12 C 0.86132(16) 0.8427(2) 0.41257(11)
O13 O 0.86862(17) 0.6342(2) 0.28529(16)
H7 H 0.8389 0.6511 0.3129
H8 H 0.8490 0.6701 0.2461
C13 C 0.97189(16) 0.6107(2) 0.54912(11)
O14 O 1.05266(13) 0.4893(2) 0.30670(10)
H9 H 1.0755 0.4814 0.3496
H10 H 1.0935 0.4519 0.2939
C14 C 0.76406(15) 0.8646(2) 0.37812(11)
C15 C 0.67763(16) 0.8528(2) 0.59111(11)
O15 O 0.95380(14) 0.3414(3) 0.18103(10)
H11 H 0.9172 0.3136 0.1443
H12 H 1.0033 0.3038 0.1844
O16 O 1.00813(13) 0.1795(2) 0.33213(10)
H13 H 1.0463 0.1421 0.3162
H14 H 1.0344 0.1982 0.3736
C16 C 0.62120(18) 0.9166(3) 0.62193(14)
H15 H 0.6432 0.9735 0.6591
O17 O 0.83007(15) 0.1300(2) 0.24457(10)
H16 H 0.8377 0.0656 0.2195
H17 H 0.7820 0.1147 0.2540
C17 C 0.5318(2) 0.8933(3) 0.59603(17)
H18 H 0.4922 0.9364 0.6149
C18 C 0.50116(18) 0.8054(3) 0.54170(15)
H19 H 0.4411 0.7868 0.5243
C19 C 0.56195(16) 0.7455(3) 0.51358(12)
C20 C 0.77708(16) 0.8645(2) 0.61651(12)
C21 C 0.53709(16) 0.6460(3) 0.45538(13)
Sr1A Sr 0.604080(14) 0.87334(2) 0.217434(11)
Sr1B Sr 1.104080(14) 0.62666(2) 0.717434(11)
O6B O 0.95266(11) 0.4122(2) 0.41216(8)
O8A O 0.75882(11) 0.42882(18) 0.17626(8)
N4 N 1.43313(16) 1.4452(2) 0.32610(11)
H20 H 1.4376 1.5049 0.3574
N5 N 1.37857(16) 1.2992(2) 0.24873(11)
H21 H 1.3412 1.2473 0.2209
C22 C 1.35961(19) 1.3853(3) 0.29159(13)
H22 H 1.3038 1.4008 0.2965
C23 C 1.4667(2) 1.3055(4) 0.25554(17)
H23 H 1.4973 1.2557 0.2312
C24 C 1.5011(2) 1.3979(4) 0.30436(18)
H24 H 1.5601 1.4243 0.3202
O18 O 1.36684(14) 0.7765(2) 0.27603(10)
H25 H 1.3444 0.7467 0.3062
H26 H 1.3335 0.7680 0.2354
loop_
_geom_bond_atom_site_label_1
_geom_bond_atom_site_label_2
_geom_bond_site_symmetry_1
_geom_bond_site_symmetry_2
Dy1 O1 1_555 1_555
O1 C6 1_555 1_555
N1 Dy1 1_555 1_555
C1 N1 1_555 1_555
Sr1 O2 1_555 1_555
O2 C6 1_555 1_555
N2 Dy1 1_555 1_555
C2 C1 1_555 1_555
H1 C2 1_555 1_555
C3 C2 1_555 1_555
H2 C3 1_555 1_555
O3 Dy1 1_555 1_555
N3 Dy1 1_555 1_555
O4 C7 1_555 1_555
C4 C3 1_555 1_555
H3 C4 1_555 1_555
C5 N1 1_555 1_555
O5 Dy1 1_555 1_555
C6 C1 1_555 1_555
O6 C13 1_555 1_555
C7 O3 1_555 1_555
O7 Dy1 1_555 1_555
C8 N2 1_555 1_555
O8 C14 1_555 1_555
O9 Dy1 1_555 1_555
C9 C8 1_555 1_555
H4 C9 1_555 1_555
O10 C20 1_555 1_555
C10 C9 1_555 1_555
H5 C10 1_555 1_555
O11 Dy1 1_555 1_555
C11 C10 1_555 1_555
H6 C11 1_555 1_555
O12 C21 1_555 1_555
C12 N2 1_555 1_555
O13 Sr1 1_555 1_555
H7 O13 1_555 1_555
H8 O13 1_555 1_555
C13 O5 1_555 1_555
O14 Sr1 1_555 1_555
H9 O14 1_555 1_555
H10 O14 1_555 1_555
C14 O7 1_555 1_555
C15 N3 1_555 1_555
O15 Sr1 1_555 1_555
H11 O15 1_555 1_555
H12 O15 1_555 1_555
O16 Sr1 1_555 1_555
H13 O16 1_555 1_555
H14 O16 1_555 1_555
C16 C15 1_555 1_555
H15 C16 1_555 1_555
O17 Sr1 1_555 1_555
H16 O17 1_555 1_555
H17 O17 1_555 1_555
C17 C16 1_555 1_555
H18 C17 1_555 1_555
C18 C17 1_555 1_555
H19 C18 1_555 1_555
C19 N3 1_555 1_555
C20 O9 1_555 1_555
C21 O11 1_555 1_555
N4 H20 1_555 1_555
N5 H21 1_555 1_555
C22 N4 1_555 1_555
H22 C22 1_555 1_555
C23 N5 1_555 1_555
H23 C23 1_555 1_555
C24 N4 1_555 1_555
H24 C24 1_555 1_555
O18 H25 1_555 1_555
H26 O18 1_555 1_555
Sr1A O8 1_555 1_555
Sr1B O6 1_555 1_555
O6B Sr1 1_555 1_555
O8A Sr1 1_555 1_555
C4 C5 1_555 1_555
C5 C7 1_555 1_555
C8 C13 1_555 1_555
C11 C12 1_555 1_555
C12 C14 1_555 1_555
C15 C20 1_555 1_555
C18 C19 1_555 1_555
C19 C21 1_555 1_555
N5 C22 1_555 1_555
C23 C24 1_555 1_555

#END
