
#######################################################################
#
#                 Cambridge Crystallographic Data Centre
#                                CCDC 
#
#######################################################################
#
# If this CIF has been generated from an entry in the Cambridge 
# Structural Database, then it will include bibliographic, chemical, 
# crystal, experimental, refinement or atomic coordinate data resulting 
# from the CCDC's data processing and validation procedures.
#
#######################################################################

data_QEYFUX
_symmetry_cell_setting           triclinic
_symmetry_space_group_name_H-M   'P -1'
_symmetry_Int_Tables_number      2
_space_group_name_Hall           '-P 1'
loop_
_symmetry_equiv_pos_site_id
_symmetry_equiv_pos_as_xyz
1 x,y,z
2 -x,-y,-z
_cell_length_a                   15.389(3)
_cell_length_b                   15.434(3)
_cell_length_c                   18.241(3)
_cell_angle_alpha                103.278(3)
_cell_angle_beta                 110.883(3)
_cell_angle_gamma                94.123(3)
_cell_volume                     3882.94
loop_
_atom_site_label
_atom_site_type_symbol
_atom_site_fract_x
_atom_site_fract_y
_atom_site_fract_z
Dy1 Dy 0.36524(8) 0.19755(6) 0.40911(5)
Dy2 Dy 0.74737(7) 0.29970(6) 0.33195(5)
Dy3 Dy 0.37366(8) 0.25262(6) -0.00395(5)
Sr1 Sr 0.50538(16) 0.50916(12) 0.24279(10)
Sr2 Sr 0.20892(17) 0.14230(13) -0.31808(12)
Sr3 Sr 0.44057(17) -0.00703(12) -0.28758(11)
O1 O 0.3761(10) 0.1065(9) 0.5015(8)
O2 O 0.4594(12) 0.0505(10) 0.6015(8)
O3 O 0.4922(12) 0.2734(9) 0.3814(8)
O4 O 0.6429(11) 0.2932(9) 0.3936(7)
O5 O 0.2782(12) 0.2162(9) 0.2726(8)
O6 O 0.1796(15) 0.2896(15) 0.1967(10)
O7 O 0.4318(10) 0.3126(9) 0.5375(7)
O8 O 0.4632(12) 0.4586(9) 0.6066(8)
O9 O 0.2209(12) 0.1982(9) 0.4314(9)
O10 O 0.0810(12) 0.1320(11) 0.4169(10)
O11 O 0.4091(11) 0.0809(9) 0.3240(7)
O12 O 0.3774(11) -0.0500(9) 0.2293(7)
O13 O 0.6721(10) 0.4289(9) 0.3061(8)
O14 O 0.6823(10) 0.5792(9) 0.3324(8)
O15 O 0.8629(11) 0.2840(8) 0.4513(7)
O16 O 0.9746(11) 0.3431(10) 0.5762(9)
O17 O 0.8541(10) 0.3727(8) 0.2935(8)
O18 O 0.9521(13) 0.3798(10) 0.2288(9)
O19 O 0.7140(10) 0.1382(8) 0.3177(7)
O20 O 0.7309(12) -0.0027(9) 0.2760(9)
O21 O 0.4988(13) 0.2306(9) 0.1127(7)
O22 O 0.6474(10) 0.2552(8) 0.1969(8)
O23 O 0.3877(11) 0.3434(9) -0.0915(8)
O24 O 0.4641(11) 0.4314(10) -0.1371(8)
O25 O 0.3878(11) 0.3877(8) 0.0983(7)
O26 O 0.3200(11) 0.4876(9) 0.1592(8)
O27 O 0.2431(12) 0.1828(9) -0.1324(8)
O28 O 0.1029(12) 0.1725(10) -0.2284(8)
O29 O 0.3012(11) 0.2124(9) 0.0898(8)
O30 O 0.250(2) 0.1063(11) 0.1393(14)
H1 H 0.2366 0.1487 0.1669
O31 O 0.4442(10) 0.1608(9) -0.0813(7)
O32 O 0.4620(13) 0.0246(10) -0.1424(8)
O33 O 0.4487(12) 0.3584(9) 0.2552(7)
H2 H 0.4023 0.3269 0.2132
H3 H 0.4551 0.3332 0.2933
O34 O 0.4835(15) 0.6779(11) 0.2880(11)
H4 H 0.4667 0.6980 0.3267
H5 H 0.4782 0.6510 0.2409
O35 O 0.2402(10) 0.3106(9) -0.2452(8)
H6 H 0.2827 0.3232 -0.1974
H7 H 0.2284 0.3602 -0.2562
O36 O 0.0858(13) 0.2008(11) -0.4255(9)
H8 H 0.0627 0.2493 -0.4238
H9 H 0.0987 0.1884 -0.4679
O37 O 0.2986(12) 0.2318(10) -0.3810(9)
H10 H 0.3056 0.2195 -0.4262
H11 H 0.3060 0.2889 -0.3636
O38 O 0.0625(13) 0.0071(11) -0.4011(10)
H12 H 0.0299 -0.0146 -0.3784
H13 H 0.0349 0.0471 -0.4208
O39 O 0.2508(13) 0.0366(10) -0.4320(10)
H14 H 0.2578 0.0583 -0.4670
H15 H 0.3039 0.0234 -0.4185
O40 O 0.4075(7) 0.1627(8) -0.2446(7)
H16 H 0.4264 0.1922 -0.1967
H17 H 0.4323 0.2046 -0.2551
O41 O 0.5042(13) -0.1362(9) -0.2295(9)
H18 H 0.5511 -0.1417 -0.2435
H19 H 0.5113 -0.1616 -0.1915
N1 N 0.5294(12) 0.1763(10) 0.4879(8)
N2 N 0.3310(16) 0.3510(11) 0.4007(10)
N3 N 0.2457(10) 0.0560(8) 0.3302(7)
N4 N 0.8187(12) 0.4431(10) 0.4418(9)
N5 N 0.8370(12) 0.2029(10) 0.2689(8)
N6 N 0.5318(14) 0.3397(10) 0.0308(8)
N7 N 0.2354(13) 0.3260(11) -0.0247(10)
N8 N 0.3493(12) 0.0901(10) -0.0093(8)
C1 C 0.5392(13) 0.1359(12) 0.5463(11)
C2 C 0.6308(12) 0.1290(18) 0.5943(14)
H20 H 0.6395 0.0972 0.6333
C3 C 0.7091(15) 0.168(2) 0.5855(14)
H21 H 0.7701 0.1671 0.6202
C4 C 0.692(2) 0.2090(17) 0.5225(14)
H22 H 0.7422 0.2330 0.5119
C5 C 0.6041(19) 0.2136(14) 0.4775(11)
C6 C 0.4526(17) 0.0938(13) 0.5518(12)
C7 C 0.5760(19) 0.2639(11) 0.4115(10)
C8 C 0.2738(16) 0.3681(14) 0.3319(12)
C9 C 0.258(3) 0.453(2) 0.3248(19)
H23 H 0.2215 0.4635 0.2756
C10 C 0.303(3) 0.5256(19) 0.399(2)
H24 H 0.2996 0.5852 0.3982
C11 C 0.3455(17) 0.5084(16) 0.4653(15)
H25 H 0.3617 0.5541 0.5134
C12 C 0.371(2) 0.4204(13) 0.4704(14)
C13 C 0.2435(17) 0.2848(18) 0.2614(12)
C14 C 0.4302(14) 0.3976(12) 0.5462(11)
C15 C 0.1630(13) 0.0575(11) 0.3367(10)
C16 C 0.089(2) -0.0164(14) 0.2903(13)
H26 H 0.0327 -0.0196 0.2986
C17 C 0.1014(17) -0.0829(16) 0.2330(14)
H27 H 0.0528 -0.1312 0.2010
C18 C 0.1841(15) -0.0789(13) 0.2225(12)
H28 H 0.1953 -0.1230 0.1842
C19 C 0.2532(13) -0.0012(11) 0.2755(10)
C20 C 0.1535(15) 0.1349(13) 0.3977(11)
C21 C 0.3494(14) 0.0077(13) 0.2738(10)
C22 C 0.7929(14) 0.5195(13) 0.4297(12)
C23 C 0.8325(15) 0.6018(14) 0.4868(12)
H29 H 0.8109 0.6550 0.4788
C24 C 0.908(2) 0.5999(15) 0.5579(15)
H30 H 0.9397 0.6539 0.5970
C25 C 0.9347(18) 0.5209(14) 0.5708(12)
H31 H 0.9821 0.5210 0.6198
C26 C 0.8922(16) 0.4413(14) 0.5118(12)
C27 C 0.7114(16) 0.5093(14) 0.3481(12)
C28 C 0.9118(18) 0.3518(14) 0.5143(12)
C29 C 0.8902(15) 0.2380(13) 0.2398(11)
C30 C 0.944(2) 0.1865(15) 0.1991(14)
H32 H 0.9891 0.2135 0.1845
C31 C 0.9223(18) 0.0932(16) 0.1840(14)
H33 H 0.9499 0.0552 0.1546
C32 C 0.861(2) 0.0565(16) 0.2120(14)
H34 H 0.8459 -0.0058 0.2017
C33 C 0.8217(15) 0.1124(13) 0.2546(11)
C34 C 0.9042(15) 0.3392(13) 0.2548(12)
C35 C 0.7498(17) 0.0796(15) 0.2854(13)
C36 C 0.6030(15) 0.3340(14) 0.0959(11)
C37 C 0.6936(17) 0.3899(16) 0.1239(15)
H35 H 0.7411 0.3910 0.1731
C38 C 0.709(2) 0.443(2) 0.0749(15)
H36 H 0.7677 0.4751 0.0875
C39 C 0.6298(16) 0.4447(14) 0.0058(13)
H37 H 0.6349 0.4839 -0.0248
C40 C 0.5467(16) 0.3894(14) -0.0162(12)
C41 C 0.5809(17) 0.2719(12) 0.1395(10)
C42 C 0.4538(16) 0.3889(14) -0.0881(11)
C43 C 0.2345(15) 0.3887(13) 0.0178(11)
C44 C 0.1500(19) 0.4300(16) 0.0197(13)
H38 H 0.1504 0.4730 0.0649
C45 C 0.065(2) 0.3957(19) -0.0581(15)
H39 H 0.0098 0.4203 -0.0667
C46 C 0.073(2) 0.3257(16) -0.1158(16)
H40 H 0.0244 0.3061 -0.1672
C47 C 0.1486(17) 0.2852(15) -0.0999(13)
C48 C 0.3148(16) 0.4246(13) 0.1022(12)
C49 C 0.1631(17) 0.2081(14) -0.1582(14)
C50 C 0.3079(15) 0.0580(13) 0.0330(11)
C51 C 0.2897(19) -0.0317(14) 0.0292(13)
H41 H 0.2578 -0.0514 0.0587
C52 C 0.3206(18) -0.0892(16) -0.0196(13)
H42 H 0.3101 -0.1506 -0.0238
C53 C 0.3667(17) -0.0604(13) -0.0629(11)
H43 H 0.3884 -0.1003 -0.0964
C54 C 0.3803(16) 0.0355(13) -0.0542(11)
C55 C 0.281(2) 0.1350(18) 0.0873(13)
C56 C 0.4341(14) 0.0758(14) -0.0982(11)
Sr1A Sr 0.49462(16) 0.49084(12) -0.24279(10)
Sr1A_2 Sr 0.49462(16) 0.49084(12) 0.75721(10)
Sr2A Sr 0.79108(17) -0.14230(13) 0.31808(12)
Sr3_2 Sr 0.44057(17) -0.00703(12) 0.71242(11)
Sr3A Sr 0.55943(17) 0.00703(12) 0.28758(11)
O2_2 O 0.4594(12) 0.0505(10) -0.3985(8)
O8A O 0.5368(12) 0.5414(9) 0.3934(8)
O11A O 0.5909(11) -0.0809(9) -0.3240(7)
O12A O 0.6226(11) 0.0500(9) -0.2293(7)
O19A O 0.2860(10) -0.1382(8) -0.3177(7)
O20A O 0.2691(12) 0.0027(9) -0.2760(9)
O24A O 0.5359(11) 0.5686(10) 0.1371(8)
loop_
_geom_bond_atom_site_label_1
_geom_bond_atom_site_label_2
_geom_bond_site_symmetry_1
_geom_bond_site_symmetry_2
Dy1 O1 1_555 1_555
Dy2 O4 1_555 1_555
Dy3 O21 1_555 1_555
Sr1 O13 1_555 1_555
Sr2 O28 1_555 1_555
Sr3 O32 1_555 1_555
O1 C6 1_555 1_555
O2 C6 1_555 1_555
O3 Dy1 1_555 1_555
O4 C7 1_555 1_555
O5 Dy1 1_555 1_555
O6 C13 1_555 1_555
O7 Dy1 1_555 1_555
O8 C14 1_555 1_555
O9 Dy1 1_555 1_555
O10 C20 1_555 1_555
O11 Dy1 1_555 1_555
O12 C21 1_555 1_555
O13 Dy2 1_555 1_555
O14 Sr1 1_555 1_555
O15 Dy2 1_555 1_555
O16 C28 1_555 1_555
O17 Dy2 1_555 1_555
O18 C34 1_555 1_555
O19 Dy2 1_555 1_555
O20 C35 1_555 1_555
O21 C41 1_555 1_555
O22 Dy2 1_555 1_555
O23 Dy3 1_555 1_555
O24 C42 1_555 1_555
O25 Dy3 1_555 1_555
O26 Sr1 1_555 1_555
O27 Dy3 1_555 1_555
O28 C49 1_555 1_555
O29 Dy3 1_555 1_555
O30 H1 1_555 1_555
O31 Dy3 1_555 1_555
O32 C56 1_555 1_555
O33 Sr1 1_555 1_555
H2 O33 1_555 1_555
H3 O33 1_555 1_555
O34 Sr1 1_555 1_555
H4 O34 1_555 1_555
H5 O34 1_555 1_555
O35 Sr2 1_555 1_555
H6 O35 1_555 1_555
H7 O35 1_555 1_555
O36 Sr2 1_555 1_555
H8 O36 1_555 1_555
H9 O36 1_555 1_555
O37 Sr2 1_555 1_555
H10 O37 1_555 1_555
H11 O37 1_555 1_555
O38 Sr2 1_555 1_555
H12 O38 1_555 1_555
H13 O38 1_555 1_555
O39 Sr2 1_555 1_555
H14 O39 1_555 1_555
H15 O39 1_555 1_555
O40 Sr2 1_555 1_555
H16 O40 1_555 1_555
H17 O40 1_555 1_555
O41 Sr3 1_555 1_555
H18 O41 1_555 1_555
H19 O41 1_555 1_555
N1 Dy1 1_555 1_555
N2 Dy1 1_555 1_555
N3 Dy1 1_555 1_555
N4 Dy2 1_555 1_555
N5 Dy2 1_555 1_555
N6 Dy3 1_555 1_555
N7 Dy3 1_555 1_555
N8 Dy3 1_555 1_555
C1 N1 1_555 1_555
C2 C1 1_555 1_555
H20 C2 1_555 1_555
C3 C2 1_555 1_555
H21 C3 1_555 1_555
C4 C3 1_555 1_555
H22 C4 1_555 1_555
C5 N1 1_555 1_555
C6 C1 1_555 1_555
C7 O3 1_555 1_555
C8 N2 1_555 1_555
C9 C8 1_555 1_555
H23 C9 1_555 1_555
C10 C9 1_555 1_555
H24 C10 1_555 1_555
C11 C10 1_555 1_555
H25 C11 1_555 1_555
C12 N2 1_555 1_555
C13 O5 1_555 1_555
C14 O7 1_555 1_555
C15 N3 1_555 1_555
C16 C15 1_555 1_555
H26 C16 1_555 1_555
C17 C16 1_555 1_555
H27 C17 1_555 1_555
C18 C17 1_555 1_555
H28 C18 1_555 1_555
C19 N3 1_555 1_555
C20 O9 1_555 1_555
C21 O11 1_555 1_555
C22 N4 1_555 1_555
C23 C22 1_555 1_555
H29 C23 1_555 1_555
C24 C23 1_555 1_555
H30 C24 1_555 1_555
C25 C24 1_555 1_555
H31 C25 1_555 1_555
C26 N4 1_555 1_555
C27 O13 1_555 1_555
C28 O15 1_555 1_555
C29 N5 1_555 1_555
C30 C29 1_555 1_555
H32 C30 1_555 1_555
C31 C30 1_555 1_555
H33 C31 1_555 1_555
C32 C31 1_555 1_555
H34 C32 1_555 1_555
C33 N5 1_555 1_555
C34 O17 1_555 1_555
C35 O19 1_555 1_555
C36 N6 1_555 1_555
C37 C36 1_555 1_555
H35 C37 1_555 1_555
C38 C37 1_555 1_555
H36 C38 1_555 1_555
C39 C38 1_555 1_555
H37 C39 1_555 1_555
C40 N6 1_555 1_555
C41 O22 1_555 1_555
C42 O23 1_555 1_555
C43 N7 1_555 1_555
C44 C43 1_555 1_555
H38 C44 1_555 1_555
C45 C44 1_555 1_555
H39 C45 1_555 1_555
C46 C45 1_555 1_555
H40 C46 1_555 1_555
C47 N7 1_555 1_555
C48 O25 1_555 1_555
C49 O27 1_555 1_555
C50 N8 1_555 1_555
C51 C50 1_555 1_555
H41 C51 1_555 1_555
C52 C51 1_555 1_555
H42 C52 1_555 1_555
C53 C52 1_555 1_555
H43 C53 1_555 1_555
C54 N8 1_555 1_555
C55 O29 1_555 1_555
C56 O31 1_555 1_555
Sr1A O24 1_555 1_555
Sr1A_2 O8 1_555 1_555
Sr2A O20 1_555 1_555
Sr3_2 O2 1_555 1_555
Sr3A O11 1_555 1_555
O2_2 Sr3 1_555 1_555
O8A Sr1 1_555 1_555
O11A Sr3 1_555 1_555
O12A Sr3 1_555 1_555
O19A Sr3 1_555 1_555
O20A Sr2 1_555 1_555
O24A Sr1 1_555 1_555
Sr1 O25 1_555 1_555
Sr3 O40 1_555 1_555
Sr3 O20A 1_555 1_555
O12 Sr3A 1_555 1_555
O14 C27 1_555 1_555
O19 Sr3A 1_555 1_555
O20 Sr3A 1_555 1_555
O26 C48 1_555 1_555
O30 C55 1_555 1_555
C4 C5 1_555 1_555
C5 C7 1_555 1_555
C8 C13 1_555 1_555
C11 C12 1_555 1_555
C12 C14 1_555 1_555
C15 C20 1_555 1_555
C18 C19 1_555 1_555
C19 C21 1_555 1_555
C22 C27 1_555 1_555
C25 C26 1_555 1_555
C26 C28 1_555 1_555
C29 C34 1_555 1_555
C32 C33 1_555 1_555
C33 C35 1_555 1_555
C36 C41 1_555 1_555
C39 C40 1_555 1_555
C40 C42 1_555 1_555
C43 C48 1_555 1_555
C46 C47 1_555 1_555
C47 C49 1_555 1_555
C50 C55 1_555 1_555
C53 C54 1_555 1_555
C54 C56 1_555 1_555

#END
