
#######################################################################
#
#                 Cambridge Crystallographic Data Centre
#                                CCDC 
#
#######################################################################
#
# If this CIF has been generated from an entry in the Cambridge 
# Structural Database, then it will include bibliographic, chemical, 
# crystal, experimental, refinement or atomic coordinate data resulting 
# from the CCDC's data processing and validation procedures.
#
#######################################################################

data_QEYFOR
_symmetry_cell_setting           monoclinic
_symmetry_space_group_name_H-M   'P 21/n'
_symmetry_Int_Tables_number      14
_space_group_name_Hall           '-P 2yn'
loop_
_symmetry_equiv_pos_site_id
_symmetry_equiv_pos_as_xyz
1 x,y,z
2 1/2-x,1/2+y,1/2-z
3 -x,-y,-z
4 1/2+x,1/2-y,1/2+z
_cell_length_a                   15.919(5)
_cell_length_b                   9.932(3)
_cell_length_c                   20.674(6)
_cell_angle_alpha                90
_cell_angle_beta                 107.300(6)
_cell_angle_gamma                90
_cell_volume                     3120.84
loop_
_atom_site_label
_atom_site_type_symbol
_atom_site_fract_x
_atom_site_fract_y
_atom_site_fract_z
Sm1 Sm 0.24518(2) 0.86306(4) 0.00614(2)
O1 O 0.2848(3) 0.6884(5) 0.0946(3)
N1 N 0.1189(4) 0.7522(6) 0.0397(3)
C1 C 0.1356(5) 0.6585(8) 0.0887(4)
Sr1 Sr 0.39393(5) 0.62744(7) 0.28279(4)
O2 O 0.2544(4) 0.5727(6) 0.1785(3)
N2 N 0.2570(4) 1.1179(6) 0.0083(3)
C2 C 0.0706(6) 0.5880(10) 0.1046(5)
H1 H 0.0845 0.5220 0.1380
O3 O 0.0950(4) 0.9432(5) -0.0520(3)
C3 C -0.0180(7) 0.6175(12) 0.0692(6)
H2 H -0.0638 0.5719 0.0789
N3 N 0.3527(4) 0.7289(6) -0.0387(3)
C4 C -0.0344(6) 0.7160(11) 0.0199(5)
H3 H -0.0921 0.7385 -0.0040
O4 O -0.0505(4) 0.9066(6) -0.0880(3)
O5 O 0.2472(4) 0.9759(5) 0.1138(3)
C5 C 0.0354(5) 0.7814(8) 0.0059(4)
C6 C 0.2329(5) 0.6370(7) 0.1240(4)
O6 O 0.2448(4) 1.1606(6) 0.1750(3)
O7 O 0.2557(4) 0.9702(5) -0.0978(3)
C7 C 0.0247(5) 0.8870(8) -0.0492(4)
O8 O 0.2511(4) 1.1505(6) -0.1631(3)
C8 C 0.2609(5) 1.1866(7) 0.0653(4)
O9 O 0.4024(4) 0.9021(6) 0.0616(3)
C9 C 0.2682(5) 1.3254(8) 0.0671(5)
H4 H 0.2713 1.3715 0.1069
C10 C 0.2709(6) 1.3951(9) 0.0107(5)
H5 H 0.2771 1.4882 0.0120
O10 O 0.5442(4) 0.8708(7) 0.0711(4)
O11 O 0.1819(3) 0.6920(6) -0.0815(3)
C11 C 0.2642(6) 1.3228(8) -0.0493(5)
H6 H 0.2631 1.3675 -0.0890
C12 C 0.2592(5) 1.1835(8) -0.0476(4)
O12 O 0.1897(4) 0.5800(7) -0.1725(3)
O13 O 0.3313(4) 0.8723(6) 0.2445(3)
H7 H 0.3097 0.8743 0.2016
H8 H 0.3102 0.9306 0.2654
C13 C 0.2502(5) 1.1024(8) 0.1234(4)
O14 O 0.4522(4) 0.6557(8) 0.1823(4)
H9 H 0.4094 0.6679 0.1467
H10 H 0.5017 0.6856 0.1812
C14 C 0.2553(5) 1.0941(8) -0.1080(4)
C15 C 0.4389(5) 0.7532(8) -0.0146(4)
O15 O 0.5086(4) 0.8194(7) 0.3314(4)
H11 H 0.5557 0.7848 0.3569
H12 H 0.5295 0.8699 0.3068
O16 O 0.5497(4) 0.5062(7) 0.3091(4)
H13 H 0.5607 0.5317 0.2732
H14 H 0.5985 0.4888 0.3385
C16 C 0.4985(6) 0.6934(11) -0.0435(5)
H15 H 0.5583 0.7120 -0.0265
C17 C 0.4684(7) 0.6066(11) -0.0975(6)
H16 H 0.5077 0.5624 -0.1156
O17 O 0.3675(5) 0.3660(7) 0.2819(5)
H17 H 0.3545 0.3323 0.2424
H18 H 0.3351 0.3249 0.3015
C18 C 0.3786(6) 0.5863(9) -0.1243(5)
H19 H 0.3562 0.5321 -0.1622
C19 C 0.3222(6) 0.6495(8) -0.0929(4)
C20 C 0.4645(6) 0.8497(8) 0.0444(5)
C21 C 0.2234(5) 0.6395(7) -0.1181(4)
Sr1A Sr 0.10607(5) 1.12744(7) 0.21721(4)
Sr1C Sr -0.10607(5) 0.87256(7) -0.21721(4)
O4C O 0.4495(4) 0.5934(6) 0.4120(3)
O6A O 0.2552(4) 0.6606(6) 0.3250(3)
N4 N 0.6226(5) 0.1936(8) 0.2507(4)
H20 H 0.6599 0.2431 0.2796
N5 N 0.5686(5) 0.0493(8) 0.1735(4)
H21 H 0.5643 -0.0108 0.1427
C22 C 0.6417(6) 0.1094(9) 0.2074(5)
H22 H 0.6971 0.0954 0.2021
C23 C 0.5000(7) 0.0970(12) 0.1944(6)
H23 H 0.4414 0.0706 0.1787
C24 C 0.5349(8) 0.1894(12) 0.2423(6)
H24 H 0.5044 0.2412 0.2654
O18 O 0.6315(5) 0.7188(8) 0.2228(4)
H25 H 0.6431 0.7598 0.2605
H26 H 0.6759 0.7305 0.2086
loop_
_geom_bond_atom_site_label_1
_geom_bond_atom_site_label_2
_geom_bond_site_symmetry_1
_geom_bond_site_symmetry_2
Sm1 O1 1_555 1_555
O1 C6 1_555 1_555
N1 Sm1 1_555 1_555
C1 N1 1_555 1_555
Sr1 O2 1_555 1_555
O2 C6 1_555 1_555
N2 Sm1 1_555 1_555
C2 C1 1_555 1_555
H1 C2 1_555 1_555
O3 Sm1 1_555 1_555
C3 C2 1_555 1_555
H2 C3 1_555 1_555
N3 Sm1 1_555 1_555
C4 C3 1_555 1_555
H3 C4 1_555 1_555
O4 C7 1_555 1_555
O5 Sm1 1_555 1_555
C5 N1 1_555 1_555
C6 C1 1_555 1_555
O6 C13 1_555 1_555
O7 Sm1 1_555 1_555
C7 O3 1_555 1_555
O8 C14 1_555 1_555
C8 N2 1_555 1_555
O9 Sm1 1_555 1_555
C9 C8 1_555 1_555
H4 C9 1_555 1_555
C10 C9 1_555 1_555
H5 C10 1_555 1_555
O10 C20 1_555 1_555
O11 Sm1 1_555 1_555
C11 C10 1_555 1_555
H6 C11 1_555 1_555
C12 N2 1_555 1_555
O12 C21 1_555 1_555
O13 Sr1 1_555 1_555
H7 O13 1_555 1_555
H8 O13 1_555 1_555
C13 O5 1_555 1_555
O14 Sr1 1_555 1_555
H9 O14 1_555 1_555
H10 O14 1_555 1_555
C14 O7 1_555 1_555
C15 N3 1_555 1_555
O15 Sr1 1_555 1_555
H11 O15 1_555 1_555
H12 O15 1_555 1_555
O16 Sr1 1_555 1_555
H13 O16 1_555 1_555
H14 O16 1_555 1_555
C16 C15 1_555 1_555
H15 C16 1_555 1_555
C17 C16 1_555 1_555
H16 C17 1_555 1_555
O17 Sr1 1_555 1_555
H17 O17 1_555 1_555
H18 O17 1_555 1_555
C18 C17 1_555 1_555
H19 C18 1_555 1_555
C19 N3 1_555 1_555
C20 O9 1_555 1_555
C21 O11 1_555 1_555
N4 H20 1_555 1_555
N5 H21 1_555 1_555
C22 N4 1_555 1_555
H22 C22 1_555 1_555
C23 N5 1_555 1_555
H23 C23 1_555 1_555
C24 N4 1_555 1_555
H24 C24 1_555 1_555
O18 H25 1_555 1_555
H26 O18 1_555 1_555
Sr1A O6 1_555 1_555
Sr1C O4 1_555 1_555
O4C Sr1 1_555 1_555
O6A Sr1 1_555 1_555
C4 C5 1_555 1_555
C5 C7 1_555 1_555
C8 C13 1_555 1_555
C11 C12 1_555 1_555
C12 C14 1_555 1_555
C15 C20 1_555 1_555
C18 C19 1_555 1_555
C19 C21 1_555 1_555
N5 C22 1_555 1_555
C23 C24 1_555 1_555

#END
