
#######################################################################
#
#                 Cambridge Crystallographic Data Centre
#                                CCDC 
#
#######################################################################
#
# If this CIF has been generated from an entry in the Cambridge 
# Structural Database, then it will include bibliographic, chemical, 
# crystal, experimental, refinement or atomic coordinate data resulting 
# from the CCDC's data processing and validation procedures.
#
#######################################################################

data_QEYGAE
_symmetry_cell_setting           triclinic
_symmetry_space_group_name_H-M   'P -1'
_symmetry_Int_Tables_number      2
_space_group_name_Hall           '-P 1'
loop_
_symmetry_equiv_pos_site_id
_symmetry_equiv_pos_as_xyz
1 x,y,z
2 -x,-y,-z
_cell_length_a                   10.394(2)
_cell_length_b                   11.066(2)
_cell_length_c                   30.409(6)
_cell_angle_alpha                88.42(3)
_cell_angle_beta                 87.81(3)
_cell_angle_gamma                79.04(3)
_cell_volume                     3430.6
loop_
_atom_site_label
_atom_site_type_symbol
_atom_site_fract_x
_atom_site_fract_y
_atom_site_fract_z
Dy1 Dy 0.44482(2) 0.34524(2) 0.373244(7)
O1 O 0.5324(3) 0.4903(3) 0.32480(11)
N1 N 0.6778(4) 0.3628(3) 0.38388(12)
C1 C 0.7347(5) 0.4442(4) 0.36003(16)
C2 C 1.1309(6) 0.8983(5) 0.02393(19)
H1 H 1.1425 0.8253 0.0086
Dy2 Dy 0.87684(2) 1.04570(2) 0.149637(8)
O2 O 0.6974(4) 0.5827(3) 0.29993(11)
N2 N 0.2985(4) 0.3416(4) 0.44056(13)
C3 C 0.8613(5) 0.4583(5) 0.36511(18)
H2 H 0.8971 0.5162 0.3484
Sr1 Sr 0.73041(5) 0.57040(4) 0.214945(16)
O3 O 0.5586(3) 0.2047(3) 0.42702(11)
N3 N 0.3688(4) 0.3282(3) 0.29757(13)
C4 C 0.9336(5) 0.3841(5) 0.39567(19)
H3 H 1.0197 0.3916 0.4002
O4 O 0.7373(4) 0.1232(4) 0.46189(13)
N4 N 0.6428(4) 1.0276(3) 0.14750(12)
C5 C 0.8783(5) 0.2988(5) 0.41956(17)
H4 H 0.9272 0.2471 0.4400
O5 O 0.4401(4) 0.5111(3) 0.42224(11)
C6 C 0.7495(5) 0.2902(4) 0.41313(16)
N5 N 1.0293(4) 1.0195(3) 0.08305(13)
O6 O 0.3689(5) 0.6108(3) 0.48400(13)
C7 C 0.6475(5) 0.5126(4) 0.32541(16)
N6 N 0.9665(4) 1.0894(4) 0.22001(14)
O7 O 0.3185(4) 0.1790(3) 0.37881(11)
C8 C 0.6775(5) 0.1996(4) 0.43657(16)
O8 O 0.1812(4) 0.0756(3) 0.41517(13)
C9 C 0.2946(5) 0.4274(5) 0.47061(17)
O9 O 0.5761(3) 0.1920(3) 0.32935(11)
C10 C 0.2222(6) 0.4257(5) 0.50965(19)
H5 H 0.2194 0.4874 0.5300
O10 O 0.6236(4) 0.0907(3) 0.26676(11)
C11 C 0.1538(6) 0.3308(6) 0.5181(2)
H6 H 0.1050 0.3280 0.5443
O11 O 0.2440(3) 0.4796(3) 0.35489(12)
C12 C 0.1592(6) 0.2407(5) 0.48720(18)
H7 H 0.1152 0.1756 0.4920
O12 O 0.0972(4) 0.5663(4) 0.30656(13)
C13 C 0.2329(5) 0.2509(5) 0.44847(17)
O13 O 0.8038(3) 0.9054(3) 0.20249(11)
C14 C 0.3747(6) 0.5244(5) 0.45828(18)
O14 O 0.6525(3) 0.8028(3) 0.23142(11)
C15 C 0.2440(5) 0.1587(5) 0.41161(18)
O15 O 0.7584(4) 1.1607(3) 0.09184(11)
C16 C 0.4413(5) 0.2505(4) 0.26934(17)
O16 O 0.5712(4) 1.2426(4) 0.06147(13)
C17 C 0.4094(6) 0.2441(5) 0.22617(19)
H8 H 0.4624 0.1899 0.2072
O17 O 0.8743(4) 0.8639(3) 0.10624(12)
C18 C 0.2983(7) 0.3188(6) 0.2116(2)
H9 H 0.2747 0.3159 0.1825
O18 O 0.9875(4) 0.7207(3) 0.06268(14)
C19 C 0.2221(6) 0.3980(5) 0.24023(19)
H10 H 0.1454 0.4484 0.2311
O19 O 1.0021(4) 1.2097(3) 0.13409(12)
C20 C 0.2618(5) 0.4014(5) 0.28314(17)
O20 O 1.1330(4) 1.3028(4) 0.08945(13)
C21 C 0.5577(5) 0.1715(4) 0.28960(16)
O21 O 1.0700(4) 0.9090(3) 0.16904(13)
C22 C 0.1937(5) 0.4909(5) 0.31691(19)
O22 O 1.2097(4) 0.8281(4) 0.22006(15)
C23 C 0.5908(5) 0.9529(4) 0.17596(16)
O23 O 0.7580(3) 1.2213(3) 0.18800(11)
C24 C 0.4610(6) 0.9429(5) 0.17600(18)
H11 H 0.4286 0.8887 0.1955
O24 O 0.7374(4) 1.3531(3) 0.24325(12)
C25 C 0.3802(6) 1.0140(6) 0.14688(19)
H12 H 0.2915 1.0106 0.1466
O25 O 0.7407(4) 0.6817(3) 0.13991(12)
H13 H 0.7944 0.7308 0.1401
H14 H 0.6708 0.6842 0.1260
C26 C 0.4332(6) 1.0907(5) 0.11800(18)
H15 H 0.3801 1.1395 0.0979
O26 O 0.9312(4) 0.4367(3) 0.17522(14)
H16 H 0.9919 0.4872 0.1751
H17 H 0.9621 0.3654 0.1596
C27 C 0.5654(5) 1.0957(5) 0.11872(16)
O27 O 0.6249(4) 0.4448(4) 0.15694(13)
H18 H 0.5840 0.4925 0.1376
H19 H 0.6573 0.3782 0.1440
C28 C 0.6898(5) 0.8808(4) 0.20604(16)
O28 O 0.4842(4) 0.5913(4) 0.23873(13)
H20 H 0.4300 0.6049 0.2181
H21 H 0.4571 0.5256 0.2460
C29 C 0.6362(5) 1.1736(5) 0.08823(16)
O29 O 0.9457(4) 0.6566(4) 0.22720(16)
H22 H 1.0010 0.6463 0.2475
H23 H 0.9521 0.7185 0.2107
C30 C 1.0447(5) 0.9162(5) 0.06062(17)
C31 C 1.1984(6) 0.9889(5) 0.01062(18)
H24 H 1.2546 0.9784 -0.0141
C32 C 1.1822(5) 1.0950(5) 0.03417(18)
H25 H 1.2266 1.1578 0.0257
C33 C 1.0983(5) 1.1063(4) 0.07076(16)
C34 C 0.9622(6) 0.8258(5) 0.07787(19)
C35 C 1.0750(5) 1.2163(5) 0.10044(17)
C36 C 1.0726(5) 1.0153(5) 0.23471(18)
C37 C 1.1317(7) 1.0410(7) 0.2724(2)
H26 H 1.2060 0.9880 0.2822
C38 C 1.0807(7) 1.1440(7) 0.2950(2)
H27 H 1.1209 1.1636 0.3199
C39 C 0.9679(7) 1.2193(6) 0.2804(2)
H28 H 0.9300 1.2899 0.2955
C40 C 0.9137(6) 1.1871(5) 0.24311(17)
C41 C 1.1217(5) 0.9072(5) 0.2059(2)
C42 C 0.7928(6) 1.2604(5) 0.22389(17)
Sr1_2 Sr 0.73041(5) 1.57040(4) 0.214945(16)
O24_2 O 0.7374(4) 0.3531(3) 0.24325(12)
N7 N 0.8391(5) 0.5527(4) 0.04259(18)
H29 H 0.8840 0.6015 0.0537
N8 N 0.7250(6) 0.4132(5) 0.03658(18)
H30 H 0.6819 0.3558 0.0432
C43 C 0.7861(8) 0.4696(6) 0.0643(2)
H31 H 0.7910 0.4533 0.0945
C44 C 0.8112(8) 0.5484(6) 0.0000(2)
H32 H 0.8361 0.5981 -0.0227
C45 C 0.7418(9) 0.4608(6) -0.0040(2)
H33 H 0.7105 0.4366 -0.0299
N9 N 0.3761(5) 0.9466(4) 0.34085(15)
H34 H 0.3682 1.0200 0.3506
N10 N 0.4396(5) 0.7893(5) 0.30281(18)
H35 H 0.4805 0.7406 0.2831
C46 C 0.4536(6) 0.9014(5) 0.3079(2)
H36 H 0.5089 0.9428 0.2912
C47 C 0.3504(7) 0.7596(6) 0.3333(2)
H37 H 0.3231 0.6844 0.3366
C48 C 0.3099(6) 0.8593(6) 0.3573(2)
H38 H 0.2487 0.8677 0.3807
N11 N 0.9459(6) 0.8158(6) 0.3442(2)
H39 H 0.9932 0.7450 0.3500
N12 N 0.8139(5) 0.9548(5) 0.31325(16)
H40 H 0.7585 0.9933 0.2950
C49 C 0.8718(7) 0.8403(6) 0.3111(2)
H41 H 0.8614 0.7857 0.2894
C50 C 0.8555(7) 1.0025(7) 0.3491(2)
H42 H 0.8292 1.0829 0.3586
C51 C 0.9390(8) 0.9164(9) 0.3683(3)
H43 H 0.9846 0.9234 0.3935
N13 N 0.5433(8) 0.9545(6) 0.4344(2)
H44 H 0.5468 1.0315 0.4350
N14 N 0.4902(6) 0.7800(5) 0.45063(17)
H45 H 0.4566 0.7232 0.4640
C52 C 0.4645(9) 0.8968(7) 0.4599(2)
H46 H 0.4023 0.9337 0.4807
C53 C 0.5783(7) 0.7632(7) 0.4164(2)
H47 H 0.6067 0.6897 0.4018
C54 C 0.6177(8) 0.8686(8) 0.4071(2)
H48 H 0.6822 0.8818 0.3865
C55 C 0.5453(9) 0.8269(9) 0.0408(3)
H49 H 0.5722 0.8831 0.0604
H50 H 0.4978 0.8723 0.0172
H51 H 0.6212 0.7729 0.0289
C56 C 0.4590(11) 0.7526(11) 0.0654(4)
H52 H 0.3768 0.8068 0.0730
H53 H 0.4394 0.6915 0.0457
O30 O 0.5049(6) 0.6957(8) 0.1014(3)
H54 H 0.4438 0.6820 0.1174
O31 O 0.3166(5) 0.6400(5) 0.16864(19)
H55 H 0.2854 0.6044 0.1483
H56 H 0.2459 0.6788 0.1804
O32 O 0.1284(5) 0.5334(5) 0.12142(18)
H57 H 0.1145 0.5836 0.0997
H58 H 0.1229 0.4609 0.1143
O33 O 0.0945(4) 0.6608(4) 0.40608(15)
H59 H 0.1561 0.6059 0.3959
H60 H 0.1273 0.6993 0.4253
O34 O 0.1179(5) 0.8636(5) 0.46211(16)
H61 H 0.1315 0.9322 0.4516
H62 H 0.1477 0.8645 0.4877
O35 O 0.4088(8) 0.4384(7) 0.1005(2)
H63 H 0.3259 0.4471 0.1031
H64 H 0.4463 0.3737 0.0873
loop_
_geom_bond_atom_site_label_1
_geom_bond_atom_site_label_2
_geom_bond_site_symmetry_1
_geom_bond_site_symmetry_2
Dy1 O1 1_555 1_555
O1 C7 1_555 1_555
N1 Dy1 1_555 1_555
C1 N1 1_555 1_555
C2 H1 1_555 1_555
Dy2 N4 1_555 1_555
O2 Sr1 1_555 1_555
N2 Dy1 1_555 1_555
C3 C1 1_555 1_555
H2 C3 1_555 1_555
Sr1 O14 1_555 1_555
O3 Dy1 1_555 1_555
N3 Dy1 1_555 1_555
C4 C3 1_555 1_555
H3 C4 1_555 1_555
O4 C8 1_555 1_555
N4 C23 1_555 1_555
C5 C4 1_555 1_555
H4 C5 1_555 1_555
O5 Dy1 1_555 1_555
C6 N1 1_555 1_555
N5 Dy2 1_555 1_555
O6 C14 1_555 1_555
C7 C1 1_555 1_555
N6 Dy2 1_555 1_555
O7 Dy1 1_555 1_555
C8 O3 1_555 1_555
O8 C15 1_555 1_555
C9 N2 1_555 1_555
O9 Dy1 1_555 1_555
C10 C9 1_555 1_555
H5 C10 1_555 1_555
O10 C21 1_555 1_555
C11 C10 1_555 1_555
H6 C11 1_555 1_555
O11 Dy1 1_555 1_555
C12 C11 1_555 1_555
H7 C12 1_555 1_555
O12 C22 1_555 1_555
C13 N2 1_555 1_555
O13 Dy2 1_555 1_555
C14 O5 1_555 1_555
O14 C28 1_555 1_555
C15 O7 1_555 1_555
O15 Dy2 1_555 1_555
C16 N3 1_555 1_555
O16 C29 1_555 1_555
C17 C16 1_555 1_555
H8 C17 1_555 1_555
O17 Dy2 1_555 1_555
C18 C17 1_555 1_555
H9 C18 1_555 1_555
O18 C34 1_555 1_555
C19 C18 1_555 1_555
H10 C19 1_555 1_555
O19 Dy2 1_555 1_555
C20 N3 1_555 1_555
O20 C35 1_555 1_555
C21 O9 1_555 1_555
O21 Dy2 1_555 1_555
C22 O11 1_555 1_555
O22 C41 1_555 1_555
C23 C24 1_555 1_555
O23 Dy2 1_555 1_555
C24 H11 1_555 1_555
O24 C42 1_555 1_555
C25 C24 1_555 1_555
H12 C25 1_555 1_555
O25 Sr1 1_555 1_555
H13 O25 1_555 1_555
H14 O25 1_555 1_555
C26 C25 1_555 1_555
H15 C26 1_555 1_555
O26 Sr1 1_555 1_555
H16 O26 1_555 1_555
H17 O26 1_555 1_555
C27 N4 1_555 1_555
O27 Sr1 1_555 1_555
H18 O27 1_555 1_555
H19 O27 1_555 1_555
C28 O13 1_555 1_555
O28 Sr1 1_555 1_555
H20 O28 1_555 1_555
H21 O28 1_555 1_555
C29 O15 1_555 1_555
O29 Sr1 1_555 1_555
H22 O29 1_555 1_555
H23 O29 1_555 1_555
C30 C2 1_555 1_555
C31 C2 1_555 1_555
H24 C31 1_555 1_555
C32 C31 1_555 1_555
H25 C32 1_555 1_555
C33 N5 1_555 1_555
C34 O17 1_555 1_555
C35 O19 1_555 1_555
C36 N6 1_555 1_555
C37 C36 1_555 1_555
H26 C37 1_555 1_555
C38 C37 1_555 1_555
H27 C38 1_555 1_555
C39 C38 1_555 1_555
H28 C39 1_555 1_555
C40 N6 1_555 1_555
C41 O21 1_555 1_555
C42 O23 1_555 1_555
N7 H29 1_555 1_555
N8 H30 1_555 1_555
C43 N7 1_555 1_555
H31 C43 1_555 1_555
C44 N7 1_555 1_555
H32 C44 1_555 1_555
C45 N8 1_555 1_555
H33 C45 1_555 1_555
N9 H34 1_555 1_555
N10 H35 1_555 1_555
C46 N9 1_555 1_555
H36 C46 1_555 1_555
C47 N10 1_555 1_555
H37 C47 1_555 1_555
C48 N9 1_555 1_555
H38 C48 1_555 1_555
N11 H39 1_555 1_555
N12 H40 1_555 1_555
C49 N11 1_555 1_555
H41 C49 1_555 1_555
C50 N12 1_555 1_555
H42 C50 1_555 1_555
C51 N11 1_555 1_555
H43 C51 1_555 1_555
N13 H44 1_555 1_555
N14 H45 1_555 1_555
C52 N13 1_555 1_555
H46 C52 1_555 1_555
C53 N14 1_555 1_555
H47 C53 1_555 1_555
C54 N13 1_555 1_555
H48 C54 1_555 1_555
C55 H49 1_555 1_555
H50 C55 1_555 1_555
H51 C55 1_555 1_555
C56 C55 1_555 1_555
H52 C56 1_555 1_555
H53 C56 1_555 1_555
O30 C56 1_555 1_555
H54 O30 1_555 1_555
O31 H55 1_555 1_555
H56 O31 1_555 1_555
O32 H57 1_555 1_555
H58 O32 1_555 1_555
O33 H59 1_555 1_555
H60 O33 1_555 1_555
O34 H61 1_555 1_555
H62 O34 1_555 1_555
O35 H63 1_555 1_555
H64 O35 1_555 1_555
Sr1_2 O24 1_555 1_555
O24_2 Sr1 1_555 1_555
O2 C7 1_555 1_555
C5 C6 1_555 1_555
C6 C8 1_555 1_555
N5 C30 1_555 1_555
C9 C14 1_555 1_555
C12 C13 1_555 1_555
C13 C15 1_555 1_555
C16 C21 1_555 1_555
C19 C20 1_555 1_555
C20 C22 1_555 1_555
C23 C28 1_555 1_555
C26 C27 1_555 1_555
C27 C29 1_555 1_555
C30 C34 1_555 1_555
C32 C33 1_555 1_555
C33 C35 1_555 1_555
C36 C41 1_555 1_555
C39 C40 1_555 1_555
C40 C42 1_555 1_555
N8 C43 1_555 1_555
C44 C45 1_555 1_555
N10 C46 1_555 1_555
C47 C48 1_555 1_555
N12 C49 1_555 1_555
C50 C51 1_555 1_555
N14 C52 1_555 1_555
C53 C54 1_555 1_555

#END
