
#######################################################################
#
#                 Cambridge Crystallographic Data Centre
#                                CCDC 
#
#######################################################################
#
# If this CIF has been generated from an entry in the Cambridge 
# Structural Database, then it will include bibliographic, chemical, 
# crystal, experimental, refinement or atomic coordinate data resulting 
# from the CCDC's data processing and validation procedures.
#
#######################################################################

data_QEYGOR
_symmetry_cell_setting           monoclinic
_symmetry_space_group_name_H-M   'C 2/c'
_symmetry_Int_Tables_number      15
_space_group_name_Hall           '-C 2yn'
loop_
_symmetry_equiv_pos_site_id
_symmetry_equiv_pos_as_xyz
1 x,y,z
2 1/2+x,1/2+y,z
3 -x,y,1/2-z
4 1/2-x,1/2+y,1/2-z
5 -x,-y,-z
6 1/2-x,1/2-y,-z
7 x,-y,1/2+z
8 1/2+x,1/2-y,1/2+z
_cell_length_a                   10.9448(10)
_cell_length_b                   20.4989(19)
_cell_length_c                   7.4643(7)
_cell_angle_alpha                90
_cell_angle_beta                 107.6530(10)
_cell_angle_gamma                90
_cell_volume                     1595.8
loop_
_atom_site_label
_atom_site_type_symbol
_atom_site_fract_x
_atom_site_fract_y
_atom_site_fract_z
Pb1 Pb 0.5000 0.555487(9) -0.2500
O1 O 0.7047(5) 0.5932(2) -0.3326(8)
O2 O 0.6599(4) 0.4933(2) -0.4373(6)
N1 N 0.5639(4) 0.6603(2) -0.0596(7)
C1 C 0.6254(6) 0.6588(4) 0.1238(10)
H1 H 0.6441 0.6185 0.1827
C2 C 0.6633(8) 0.7152(5) 0.2320(14)
H2 H 0.7058 0.7132 0.3603
C3 C 0.6346(8) 0.7734(5) 0.1394(16)
H3 H 0.6602 0.8117 0.2071
C4 C 0.5681(7) 0.7780(3) -0.0537(15)
C5 C 0.5338(5) 0.7179(2) -0.1508(10)
C6 C 0.5311(9) 0.8374(3) -0.1632(15)
H4 H 0.5543 0.8772 -0.1031
C7 C 0.7288(5) 0.5437(2) -0.4111(7)
C8 C 0.8480(6) 0.5421(4) -0.4694(10)
H5 H 0.9092 0.5725 -0.3948
H6 H 0.8838 0.4989 -0.4511
H7 H 0.8276 0.5537 -0.5997
Pb1D Pb 0.5000 0.444513(9) -0.7500
Pb1D_2 Pb 0.5000 0.444513(9) 0.2500
O1B O 0.2953(5) 0.5932(2) -0.1674(8)
O2B O 0.3401(4) 0.4933(2) -0.0627(6)
O2F O 0.6599(4) 0.5067(2) 0.0627(6)
O2D O 0.3401(4) 0.5067(2) -0.5627(6)
N1B N 0.4361(4) 0.6603(2) -0.4404(7)
C1B C 0.3746(6) 0.6588(4) -0.6238(10)
H1B H 0.3559 0.6185 -0.6827
C2B C 0.3367(8) 0.7152(5) -0.7320(14)
H2B H 0.2942 0.7132 -0.8603
C3B C 0.3654(8) 0.7734(5) -0.6394(16)
H3B H 0.3398 0.8117 -0.7071
C4B C 0.4319(7) 0.7780(3) -0.4463(15)
C5B C 0.4662(5) 0.7179(2) -0.3492(10)
C6B C 0.4689(9) 0.8374(3) -0.3368(15)
H4B H 0.4457 0.8772 -0.3969
C7B C 0.2712(5) 0.5437(2) -0.0889(7)
C8B C 0.1520(6) 0.5421(4) -0.0306(10)
H5B H 0.0908 0.5725 -0.1052
H6B H 0.1162 0.4989 -0.0489
H7B H 0.1724 0.5537 0.0997
loop_
_geom_bond_atom_site_label_1
_geom_bond_atom_site_label_2
_geom_bond_site_symmetry_1
_geom_bond_site_symmetry_2
Pb1 O1 1_555 1_555
O1 C7 1_555 1_555
O2 C7 1_555 1_555
N1 Pb1 1_555 1_555
C1 N1 1_555 1_555
H1 C1 1_555 1_555
C2 C1 1_555 1_555
H2 C2 1_555 1_555
C3 C2 1_555 1_555
H3 C3 1_555 1_555
C4 C3 1_555 1_555
C5 N1 1_555 1_555
C6 C4 1_555 1_555
H4 C6 1_555 1_555
C7 C8 1_555 1_555
C8 H5 1_555 1_555
H6 C8 1_555 1_555
H7 C8 1_555 1_555
Pb1D O2 1_555 1_555
Pb1D_2 O2B 1_555 1_555
O1B Pb1 1_555 1_555
O2B C7B 1_555 1_555
O2F Pb1 1_555 1_555
O2D Pb1 1_555 1_555
N1B Pb1 1_555 1_555
C1B N1B 1_555 1_555
H1B C1B 1_555 1_555
C2B C1B 1_555 1_555
H2B C2B 1_555 1_555
C3B C2B 1_555 1_555
H3B C3B 1_555 1_555
C4B C3B 1_555 1_555
C5B C5 1_555 1_555
C6B C6 1_555 1_555
H4B C6B 1_555 1_555
C7B O1B 1_555 1_555
C8B C7B 1_555 1_555
H5B C8B 1_555 1_555
H6B C8B 1_555 1_555
H7B C8B 1_555 1_555
C4 C5 1_555 1_555
N1B C5B 1_555 1_555
C4B C5B 1_555 1_555
C4B C6B 1_555 1_555

#END
