
#######################################################################
#
#                 Cambridge Crystallographic Data Centre
#                                CCDC 
#
#######################################################################
#
# If this CIF has been generated from an entry in the Cambridge 
# Structural Database, then it will include bibliographic, chemical, 
# crystal, experimental, refinement or atomic coordinate data resulting 
# from the CCDC's data processing and validation procedures.
#
#######################################################################

data_QEYHUY
_symmetry_cell_setting           monoclinic
_symmetry_space_group_name_H-M   'P 21/c'
_symmetry_Int_Tables_number      14
_space_group_name_Hall           '-P 2ybc'
loop_
_symmetry_equiv_pos_site_id
_symmetry_equiv_pos_as_xyz
1 x,y,z
2 -x,1/2+y,1/2-z
3 -x,-y,-z
4 x,1/2-y,1/2+z
_cell_length_a                   21.843(4)
_cell_length_b                   16.566(3)
_cell_length_c                   21.025(4)
_cell_angle_alpha                90
_cell_angle_beta                 100.26(3)
_cell_angle_gamma                90
_cell_volume                     7486.27
loop_
_atom_site_label
_atom_site_type_symbol
_atom_site_fract_x
_atom_site_fract_y
_atom_site_fract_z
Co2 Co 0.63377(5) 0.17297(7) 0.80811(6)
P2 P 0.5000 0.5000 1.0000
Mo7 Mo 0.64240(3) 0.38648(5) 1.01624(3)
Mo8 Mo 0.34966(3) 0.39904(5) 0.97650(4)
Mo9 Mo 0.44612(4) 0.62706(5) 0.86007(3)
Mo10 Mo 0.48835(4) 0.28222(4) 0.99162(4)
Mo11 Mo 0.58714(3) 0.51575(4) 0.87160(4)
Mo12 Mo 0.43246(4) 0.41348(4) 0.84769(3)
V2 V 0.56138(7) 0.33279(8) 0.88575(7)
N1 N 0.6915(4) 0.2528(6) 0.7702(4)
N2 N 0.6939(4) 0.0933(6) 0.7717(4)
N3 N 0.6801(4) 0.1553(5) 0.9026(4)
N4 N 0.5775(4) 0.0823(5) 0.8397(4)
C1 C 0.5301(5) 0.0428(7) 0.8065(5)
H1 H 0.5172 0.0556 0.7631
C2 C 0.4980(6) -0.0176(8) 0.8337(7)
H2 H 0.4645 -0.0439 0.8087
C3 C 0.5161(7) -0.0373(9) 0.8966(7)
H3 H 0.4966 -0.0789 0.9150
C4 C 0.5643(6) 0.0055(8) 0.9331(6)
C5 C 0.5852(8) -0.0061(10) 1.0011(8)
H4 H 0.5631 -0.0407 1.0235
C6 C 0.6370(8) 0.0326(10) 1.0343(9)
H5 H 0.6490 0.0232 1.0783
C7 C 0.6728(6) 0.0868(7) 1.0026(6)
C8 C 0.7269(6) 0.1243(8) 1.0322(6)
H6 H 0.7422 0.1150 1.0757
C9 C 0.7574(6) 0.1738(7) 0.9986(6)
H7 H 0.7946 0.1974 1.0182
C10 C 0.7324(5) 0.1902(7) 0.9323(6)
H8 H 0.7531 0.2260 0.9094
C11 C 0.6516(5) 0.1046(7) 0.9368(5)
C12 C 0.5962(5) 0.0617(6) 0.9024(5)
C13 C 0.6942(6) 0.0119(9) 0.7755(7)
H9 H 0.6677 -0.0143 0.7988
C14 C 0.7358(8) -0.0346(10) 0.7430(8)
H10 H 0.7388 -0.0905 0.7453
C15 C 0.7700(9) 0.0117(14) 0.7090(10)
H11 H 0.7949 -0.0178 0.6859
C16 C 0.7744(8) 0.0903(12) 0.7024(8)
C17 C 0.8124(8) 0.1487(13) 0.6699(8)
H12 H 0.8390 0.1274 0.6443
C18 C 0.8104(11) 0.2177(15) 0.6749(11)
H13 H 0.8386 0.2467 0.6555
C19 C 0.7716(7) 0.2632(12) 0.7059(7)
C20 C 0.7667(9) 0.3473(12) 0.7114(9)
H14 H 0.7939 0.3790 0.6927
C21 C 0.7276(10) 0.3841(13) 0.7401(10)
H15 H 0.7244 0.4401 0.7401
C22 C 0.6901(7) 0.3352(8) 0.7714(7)
H16 H 0.6627 0.3601 0.7944
C23 C 0.7312(5) 0.2165(9) 0.7373(5)
C24 C 0.7322(5) 0.1351(9) 0.7380(6)
O4 O 0.4852(4) 0.7052(6) 0.9210(4)
O6 O 0.3685(4) 0.4008(5) 0.8902(4)
O7 O 0.4189(3) 0.5215(4) 0.8318(5)
O8 O 0.4774(3) 0.3183(4) 0.8976(3)
O9 O 0.5763(3) 0.1804(3) 0.7077(3)
O10 O 0.6221(3) 0.4139(3) 0.9197(3)
O13 O 0.7074(3) 0.3338(4) 1.0184(4)
O17 O 0.5239(3) 0.4283(4) 0.8420(4)
O18 O 0.6718(4) 0.4882(4) 1.0344(4)
O19 O 0.5839(3) 0.2652(4) 0.8385(3)
O22 O 0.6358(4) 0.5779(4) 0.9319(3)
O23 O 0.5761(3) 0.3059(5) 0.9761(3)
O24 O 0.5270(3) 0.5929(4) 0.8475(5)
O26 O 0.2823(3) 0.3521(5) 0.9654(4)
O29 O 0.4053(3) 0.3732(4) 0.7766(3)
O32 O 0.4083(4) 0.3104(5) 0.9935(4)
O33 O 0.6257(4) 0.5152(4) 0.8107(4)
O41 O 0.6225(4) 0.3686(6) 1.0955(4)
O42 O 0.4843(3) 0.1824(4) 0.9830(3)
O43 O 0.4665(5) 0.5828(6) 0.9758(5)
O48 O 0.4969(5) 0.5060(6) 0.9271(5)
Co2B Co 0.36623(5) 0.82703(7) 1.19189(6)
Co2A Co 0.36623(5) 0.67297(7) 0.69189(6)
Co2C Co 0.63377(5) 0.32703(7) 1.30811(6)
Mo7B Mo 0.35760(3) 0.61352(5) 0.98376(3)
Mo8B Mo 0.65034(3) 0.60096(5) 1.02350(4)
Mo9B Mo 0.55388(4) 0.37294(5) 1.13993(3)
Mo9A Mo 0.55388(4) 0.12706(5) 0.63993(3)
Mo10B Mo 0.51165(4) 0.71778(4) 1.00838(4)
Mo11B Mo 0.41286(3) 0.48425(4) 1.12840(4)
Mo12B Mo 0.56754(4) 0.58652(4) 1.15231(3)
V2B V 0.43862(7) 0.66721(8) 1.11425(7)
N1B N 0.3085(4) 0.7472(6) 1.2298(4)
N2B N 0.3061(4) 0.9067(6) 1.2283(4)
N3B N 0.3199(4) 0.8447(5) 1.0974(4)
N4B N 0.4225(4) 0.9177(5) 1.1603(4)
C1B C 0.4699(5) 0.9572(7) 1.1935(5)
H1B H 0.4828 0.9444 1.2369
C2B C 0.5020(6) 1.0176(8) 1.1663(7)
H2B H 0.5355 1.0439 1.1913
C3B C 0.4839(7) 1.0373(9) 1.1034(7)
H3B H 0.5034 1.0789 1.0850
C4B C 0.4357(6) 0.9945(8) 1.0669(6)
C5B C 0.4148(8) 1.0061(10) 0.9989(8)
H4B H 0.4369 1.0407 0.9765
C6B C 0.3630(8) 0.9674(10) 0.9657(9)
H5B H 0.3510 0.9768 0.9217
C7B C 0.3272(6) 0.9132(7) 0.9974(6)
C8B C 0.2731(6) 0.8757(8) 0.9678(6)
H6B H 0.2578 0.8850 0.9243
C9B C 0.2426(6) 0.8262(7) 1.0014(6)
H7B H 0.2054 0.8026 0.9818
C10B C 0.2676(5) 0.8098(7) 1.0677(6)
H8B H 0.2469 0.7740 1.0906
C11B C 0.3484(5) 0.8954(7) 1.0632(5)
C12B C 0.4038(5) 0.9383(6) 1.0976(5)
C13B C 0.3058(6) 0.9881(9) 1.2245(7)
H9B H 0.3323 1.0143 1.2012
C14B C 0.2642(8) 1.0346(10) 1.2570(8)
H10B H 0.2612 1.0905 1.2547
C15B C 0.2300(9) 0.9883(14) 1.2910(10)
H11B H 0.2051 1.0178 1.3141
C16B C 0.2256(8) 0.9097(12) 1.2976(8)
C17B C 0.1876(8) 0.8513(13) 1.3301(8)
H12B H 0.1610 0.8726 1.3557
C18B C 0.1896(11) 0.7823(15) 1.3251(11)
H13B H 0.1614 0.7533 1.3445
C19B C 0.2284(7) 0.7368(12) 1.2941(7)
C20B C 0.2333(9) 0.6527(12) 1.2886(9)
H14B H 0.2061 0.6210 1.3073
C21B C 0.2724(10) 0.6159(13) 1.2599(10)
H15B H 0.2756 0.5599 1.2599
C22B C 0.3099(7) 0.6648(8) 1.2286(7)
H16B H 0.3373 0.6399 1.2056
C23B C 0.2688(5) 0.7835(9) 1.2627(5)
C24B C 0.2678(5) 0.8649(9) 1.2620(6)
O4B O 0.5148(4) 0.2948(6) 1.0790(4)
O6B O 0.6315(4) 0.5992(5) 1.1098(4)
O7B O 0.5811(3) 0.4785(4) 1.1682(5)
O8B O 0.5226(3) 0.6817(4) 1.1024(3)
O9A O 0.4237(3) 0.6804(3) 0.7923(3)
O9B O 0.4237(3) 0.8196(3) 1.2923(3)
O9C O 0.5763(3) 0.3196(3) 1.2077(3)
O10B O 0.3779(3) 0.5861(3) 1.0803(3)
O13B O 0.2926(3) 0.6662(4) 0.9816(4)
O17B O 0.4761(3) 0.5717(4) 1.1580(4)
O18B O 0.3282(4) 0.5118(4) 0.9656(4)
O19B O 0.4161(3) 0.7348(4) 1.1615(3)
O22B O 0.3642(4) 0.4221(4) 1.0681(3)
O23B O 0.4239(3) 0.6941(5) 1.0239(3)
O24B O 0.4730(3) 0.4071(4) 1.1525(5)
O26B O 0.7177(3) 0.6479(5) 1.0346(4)
O29B O 0.5947(3) 0.6268(4) 1.2234(3)
O32B O 0.5917(4) 0.6896(5) 1.0065(4)
O33B O 0.3743(4) 0.4848(4) 1.1893(4)
O41B O 0.3775(4) 0.6314(6) 0.9045(4)
O42B O 0.5157(3) 0.8176(4) 1.0170(3)
O43B O 0.5335(5) 0.4172(6) 1.0242(5)
O48B O 0.5031(5) 0.4940(6) 1.0729(5)
O1 O 0.8107(5) -0.1836(8) 0.6461(6)
Co1 Co 0.81321(6) -0.32667(8) 0.81815(7)
P1 P 1.0000 0.0000 1.0000
Mo1 Mo 0.93872(4) -0.06278(5) 0.83876(4)
Mo2 Mo 0.83564(4) -0.04359(5) 0.96144(4)
Mo3 Mo 0.94582(4) -0.17535(5) 1.07507(4)
Mo4 Mo 0.89364(4) 0.12818(5) 0.89044(4)
Mo5 Mo 1.09889(4) -0.01896(5) 0.87999(4)
Mo6 Mo 1.04756(4) -0.19551(5) 0.95018(4)
V1 V 0.90404(7) -0.19771(9) 0.92877(7)
N5 N 0.8997(4) -0.3649(5) 0.7966(4)
N6 N 0.8196(4) -0.4456(5) 0.8558(5)
N7 N 0.7271(4) -0.2935(5) 0.8421(4)
N8 N 0.7518(4) -0.3527(5) 0.7316(5)
C25 C 0.7794(6) -0.4835(7) 0.8860(7)
H17 H 0.7436 -0.4565 0.8923
C26 C 0.7892(8) -0.5640(10) 0.9091(9)
H18 H 0.7606 -0.5904 0.9296
C27 C 0.8434(8) -0.6011(10) 0.8995(9)
H19 H 0.8506 -0.6542 0.9131
C28 C 0.8863(7) -0.5635(9) 0.8711(8)
C29 C 0.9442(8) -0.6003(11) 0.8624(9)
H20 H 0.9525 -0.6541 0.8735
C30 C 0.9849(7) -0.5565(9) 0.8385(8)
H21 H 1.0233 -0.5797 0.8366
C31 C 0.9742(6) -0.4756(8) 0.8153(6)
C32 C 1.0148(5) -0.4240(8) 0.7895(6)
H22 H 1.0542 -0.4432 0.7867
C33 C 1.0001(6) -0.3503(9) 0.7693(6)
H23 H 1.0284 -0.3179 0.7529
C34 C 0.9418(5) -0.3226(7) 0.7731(6)
H24 H 0.9311 -0.2707 0.7582
C35 C 0.9164(5) -0.4387(7) 0.8192(5)
C36 C 0.8730(5) -0.4842(7) 0.8499(6)
C37 C 0.7173(5) -0.2579(6) 0.8948(5)
H25 H 0.7509 -0.2503 0.9284
C38 C 0.6582(6) -0.2307(7) 0.9031(6)
H26 H 0.6523 -0.2056 0.9411
C39 C 0.6102(6) -0.2425(7) 0.8535(6)
H27 H 0.5708 -0.2243 0.8576
C40 C 0.6178(5) -0.2804(6) 0.7976(6)
C41 C 0.5702(6) -0.2945(8) 0.7415(7)
H28 H 0.5290 -0.2832 0.7440
C42 C 0.5830(6) -0.3223(7) 0.6876(7)
H29 H 0.5505 -0.3312 0.6532
C43 C 0.6447(6) -0.3399(7) 0.6792(7)
C44 C 0.6618(7) -0.3630(9) 0.6220(7)
H30 H 0.6315 -0.3682 0.5851
C45 C 0.7234(7) -0.3788(9) 0.6182(7)
H31 H 0.7354 -0.3917 0.5792
C46 C 0.7665(6) -0.3743(8) 0.6756(6)
H32 H 0.8077 -0.3872 0.6745
C47 C 0.6926(5) -0.3339(6) 0.7345(6)
C48 C 0.6792(5) -0.3030(6) 0.7930(6)
O2 O 0.8374(5) 0.0540(5) 0.9220(5)
O3 O 0.9194(4) -0.2589(5) 1.1051(4)
O5 O 1.0168(4) -0.0353(5) 0.8312(4)
O11 O 0.9740(3) -0.2203(4) 0.9948(3)
O12 O 0.8749(3) -0.1481(4) 0.9998(3)
O14 O 0.9702(3) -0.1672(4) 0.8846(3)
O15 O 1.0978(3) -0.1857(5) 1.0300(4)
O16 O 0.8633(3) -0.2766(4) 0.9011(3)
O20 O 1.0258(3) -0.1712(6) 1.1165(4)
O21 O 0.8720(4) -0.0988(4) 0.8884(4)
O25 O 1.0649(4) -0.2864(5) 0.9267(4)
O27 O 0.9100(3) -0.0975(4) 0.7654(3)
O28 O 0.9110(5) 0.0407(5) 0.8360(5)
O31 O 0.8417(4) -0.0020(5) 1.0430(4)
O34 O 0.7616(3) -0.0698(5) 0.9430(4)
O35 O 0.8459(3) 0.1874(5) 0.8417(4)
O36 O 0.8124(4) -0.2099(5) 0.7728(4)
O37 O 1.0525(5) 0.0374(6) 0.9718(6)
O38 O 1.0944(4) -0.1289(5) 0.9084(4)
O40 O 0.9184(4) -0.0960(5) 1.1223(4)
O44 O 1.1417(4) -0.0268(5) 0.8234(4)
O46 O 0.9387(5) 0.0005(6) 0.9444(5)
Co1B Co 1.18679(6) 0.32667(8) 1.18185(7)
Mo1B Mo 1.06128(4) 0.06278(5) 1.16124(4)
Mo2B Mo 1.16436(4) 0.04359(5) 1.03856(4)
Mo3B Mo 1.05418(4) 0.17535(5) 0.92493(4)
Mo4B Mo 1.10636(4) -0.12818(5) 1.10956(4)
Mo5B Mo 0.90111(4) 0.01896(5) 1.12001(4)
Mo6B Mo 0.95244(4) 0.19551(5) 1.04982(4)
V1B V 1.09596(7) 0.19771(9) 1.07123(7)
N5B N 1.1003(4) 0.3649(5) 1.2034(4)
N6B N 1.1804(4) 0.4456(5) 1.1442(5)
N7B N 1.2729(4) 0.2935(5) 1.1579(4)
N8B N 1.2482(4) 0.3527(5) 1.2684(5)
C25B C 1.2206(6) 0.4835(7) 1.1140(7)
H17B H 1.2564 0.4565 1.1077
C26B C 1.2108(8) 0.5640(10) 1.0909(9)
H18B H 1.2394 0.5904 1.0704
C27B C 1.1566(8) 0.6011(10) 1.1005(9)
H19B H 1.1494 0.6542 1.0869
C28B C 1.1137(7) 0.5635(9) 1.1289(8)
C29B C 1.0558(8) 0.6003(11) 1.1376(9)
H20B H 1.0475 0.6541 1.1265
C30B C 1.0151(7) 0.5565(9) 1.1615(8)
H21B H 0.9767 0.5797 1.1634
C31B C 1.0258(6) 0.4756(8) 1.1847(6)
C32B C 0.9852(5) 0.4240(8) 1.2105(6)
H22B H 0.9458 0.4432 1.2133
C33B C 0.9999(6) 0.3503(9) 1.2307(6)
H23B H 0.9716 0.3179 1.2471
C34B C 1.0582(5) 0.3226(7) 1.2269(6)
H24B H 1.0689 0.2707 1.2418
C35B C 1.0836(5) 0.4387(7) 1.1808(5)
C36B C 1.1270(5) 0.4842(7) 1.1501(6)
C37B C 1.2827(5) 0.2579(6) 1.1052(5)
H25B H 1.2491 0.2503 1.0716
C38B C 1.3418(6) 0.2307(7) 1.0969(6)
H26B H 1.3477 0.2056 1.0589
C39B C 1.3898(6) 0.2425(7) 1.1465(6)
H27B H 1.4292 0.2243 1.1424
C40B C 1.3822(5) 0.2804(6) 1.2024(6)
C41B C 1.4298(6) 0.2945(8) 1.2585(7)
H28B H 1.4710 0.2832 1.2560
C42B C 1.4170(6) 0.3223(7) 1.3124(7)
H29B H 1.4495 0.3312 1.3468
C43B C 1.3553(6) 0.3399(7) 1.3208(7)
C44B C 1.3382(7) 0.3630(9) 1.3780(7)
H30B H 1.3685 0.3682 1.4149
C45B C 1.2766(7) 0.3788(9) 1.3818(7)
H31B H 1.2646 0.3917 1.4208
C46B C 1.2335(6) 0.3743(8) 1.3244(6)
H32B H 1.1923 0.3872 1.3255
C47B C 1.3074(5) 0.3339(6) 1.2655(6)
C48B C 1.3208(5) 0.3030(6) 1.2070(6)
O2B O 1.1626(5) -0.0540(5) 1.0780(5)
O3B O 1.0806(4) 0.2589(5) 0.8949(4)
O5B O 0.9832(4) 0.0353(5) 1.1688(4)
O11B O 1.0260(3) 0.2203(4) 1.0052(3)
O12B O 1.1251(3) 0.1481(4) 1.0002(3)
O14B O 1.0298(3) 0.1672(4) 1.1154(3)
O15B O 0.9022(3) 0.1857(5) 0.9700(4)
O16B O 1.1367(3) 0.2766(4) 1.0989(3)
O20B O 0.9742(3) 0.1712(6) 0.8835(4)
O21B O 1.1280(4) 0.0988(4) 1.1116(4)
O25B O 0.9351(4) 0.2864(5) 1.0733(4)
O27B O 1.0900(3) 0.0975(4) 1.2346(3)
O28B O 1.0890(5) -0.0407(5) 1.1640(5)
O31B O 1.1583(4) 0.0020(5) 0.9570(4)
O34B O 1.2384(3) 0.0698(5) 1.0570(4)
O35B O 1.1541(3) -0.1874(5) 1.1583(4)
O36B O 1.1876(4) 0.2099(5) 1.2272(4)
O37B O 0.9475(5) -0.0374(6) 1.0282(6)
O38B O 0.9056(4) 0.1289(5) 1.0916(4)
O40B O 1.0816(4) 0.0960(5) 0.8777(4)
O44B O 0.8583(4) 0.0268(5) 1.1766(4)
O46B O 1.0613(5) -0.0005(6) 1.0556(5)
O30? O 0.5632(5) -0.0010(6) 0.4823(5)
O39? O 1.0164(5) -0.0487(6) 0.9441(5)
O45? O 0.4597(5) 0.0673(6) 0.4667(5)
O47? O 1.0133(5) -0.0861(6) 1.0194(5)
loop_
_geom_bond_atom_site_label_1
_geom_bond_atom_site_label_2
_geom_bond_site_symmetry_1
_geom_bond_site_symmetry_2
Co1 N5 1_555 1_555
Co2 N1 1_555 1_555
P1 O37 1_555 1_555
P2 O43 1_555 1_555
Mo1 O5 1_555 1_555
Mo2 O2 1_555 1_555
Mo3 O3 1_555 1_555
Mo4 O2 1_555 1_555
Mo5 O5 1_555 1_555
Mo6 O11 1_555 1_555
Mo7 O10 1_555 1_555
Mo8 O6 1_555 1_555
Mo9 O4 1_555 1_555
Mo10 O8 1_555 1_555
Mo11 O10 1_555 1_555
Mo12 O6 1_555 1_555
V1 O11 1_555 1_555
V2 O8 1_555 1_555
N1 C22 1_555 1_555
N2 Co2 1_555 1_555
N3 Co2 1_555 1_555
N4 Co2 1_555 1_555
N5 C34 1_555 1_555
N6 Co1 1_555 1_555
N7 Co1 1_555 1_555
N8 Co1 1_555 1_555
C1 N4 1_555 1_555
H1 C1 1_555 1_555
C2 C1 1_555 1_555
H2 C2 1_555 1_555
C3 C2 1_555 1_555
H3 C3 1_555 1_555
C4 C3 1_555 1_555
C5 C4 1_555 1_555
H4 C5 1_555 1_555
C6 C5 1_555 1_555
H5 C6 1_555 1_555
C7 C6 1_555 1_555
C8 C7 1_555 1_555
H6 C8 1_555 1_555
C9 C8 1_555 1_555
H7 C9 1_555 1_555
C10 N3 1_555 1_555
H8 C10 1_555 1_555
C11 N3 1_555 1_555
C12 N4 1_555 1_555
C13 N2 1_555 1_555
H9 C13 1_555 1_555
C14 C13 1_555 1_555
H10 C14 1_555 1_555
C15 C14 1_555 1_555
H11 C15 1_555 1_555
C16 C15 1_555 1_555
C17 C16 1_555 1_555
H12 C17 1_555 1_555
C18 C17 1_555 1_555
H13 C18 1_555 1_555
C19 C18 1_555 1_555
C20 C19 1_555 1_555
H14 C20 1_555 1_555
C21 C20 1_555 1_555
H15 C21 1_555 1_555
C22 C21 1_555 1_555
H16 C22 1_555 1_555
C23 N1 1_555 1_555
C24 N2 1_555 1_555
C25 N6 1_555 1_555
H17 C25 1_555 1_555
C26 C25 1_555 1_555
H18 C26 1_555 1_555
C27 C26 1_555 1_555
H19 C27 1_555 1_555
C28 C27 1_555 1_555
C29 C28 1_555 1_555
H20 C29 1_555 1_555
C30 C29 1_555 1_555
H21 C30 1_555 1_555
C31 C30 1_555 1_555
C32 C31 1_555 1_555
H22 C32 1_555 1_555
C33 C32 1_555 1_555
H23 C33 1_555 1_555
C34 C33 1_555 1_555
H24 C34 1_555 1_555
C35 N5 1_555 1_555
C36 N6 1_555 1_555
C37 N7 1_555 1_555
H25 C37 1_555 1_555
C38 C37 1_555 1_555
H26 C38 1_555 1_555
C39 C38 1_555 1_555
H27 C39 1_555 1_555
C40 C39 1_555 1_555
C41 C40 1_555 1_555
H28 C41 1_555 1_555
C42 C41 1_555 1_555
H29 C42 1_555 1_555
C43 C42 1_555 1_555
C44 C43 1_555 1_555
H30 C44 1_555 1_555
C45 C44 1_555 1_555
H31 C45 1_555 1_555
C46 N8 1_555 1_555
H32 C46 1_555 1_555
C47 N8 1_555 1_555
C48 N7 1_555 1_555
O4 Mo10B 1_555 1_555
O7 Mo9 1_555 1_555
O8 Mo12 1_555 1_555
O9 Co2 1_555 1_555
O10 V2 1_555 1_555
O11 Mo3 1_555 1_555
O12 Mo2 1_555 1_555
O13 Mo7 1_555 1_555
O14 Mo1 1_555 1_555
O15 Mo6 1_555 1_555
O16 Co1 1_555 1_555
O17 Mo11 1_555 1_555
O18 Mo7 1_555 1_555
O19 Co2 1_555 1_555
O20 Mo3 1_555 1_555
O21 Mo1 1_555 1_555
O22 Mo11 1_555 1_555
O23 Mo7 1_555 1_555
O24 Mo9 1_555 1_555
O25 Mo6 1_555 1_555
O26 Mo8 1_555 1_555
O27 Mo1 1_555 1_555
O28 Mo1 1_555 1_555
O29 Mo12 1_555 1_555
O31 Mo2 1_555 1_555
O32 Mo8 1_555 1_555
O33 Mo11 1_555 1_555
O34 Mo2 1_555 1_555
O35 Mo4 1_555 1_555
O36 Co1 1_555 1_555
O37 Mo5 1_555 1_555
O38 Mo5 1_555 1_555
O40 Mo3 1_555 1_555
O41 Mo7 1_555 1_555
O42 Mo10 1_555 1_555
O43 Mo9 1_555 1_555
O44 Mo5 1_555 1_555
O46 P1 1_555 1_555
O48 P2 1_555 1_555
Co1B N5B 1_555 1_555
Co2B N1B 1_555 1_555
Co2A O9A 1_555 1_555
Co2C O9C 1_555 1_555
Mo1B O5B 1_555 1_555
Mo2B O2B 1_555 1_555
Mo3B O37 1_555 1_555
Mo4B O15 1_555 1_555
Mo5B O31 1_555 1_555
Mo6B O11B 1_555 1_555
Mo7B O43 1_555 1_555
Mo8B O18 1_555 1_555
Mo9B O41 1_555 1_555
Mo9A O9 1_555 1_555
Mo10B O43 1_555 1_555
Mo11B O10B 1_555 1_555
Mo12B O6B 1_555 1_555
V1B O11B 1_555 1_555
V2B O8B 1_555 1_555
N1B C22B 1_555 1_555
N2B Co2B 1_555 1_555
N3B Co2B 1_555 1_555
N4B Co2B 1_555 1_555
N5B C34B 1_555 1_555
N6B Co1B 1_555 1_555
N7B Co1B 1_555 1_555
N8B Co1B 1_555 1_555
C1B N4B 1_555 1_555
H1B C1B 1_555 1_555
C2B C1B 1_555 1_555
H2B C2B 1_555 1_555
C3B C2B 1_555 1_555
H3B C3B 1_555 1_555
C4B C3B 1_555 1_555
C5B C4B 1_555 1_555
H4B C5B 1_555 1_555
C6B C5B 1_555 1_555
H5B C6B 1_555 1_555
C7B C6B 1_555 1_555
C8B C7B 1_555 1_555
H6B C8B 1_555 1_555
C9B C8B 1_555 1_555
H7B C9B 1_555 1_555
C10B N3B 1_555 1_555
H8B C10B 1_555 1_555
C11B N3B 1_555 1_555
C12B N4B 1_555 1_555
C13B N2B 1_555 1_555
H9B C13B 1_555 1_555
C14B C13B 1_555 1_555
H10B C14B 1_555 1_555
C15B C14B 1_555 1_555
H11B C15B 1_555 1_555
C16B C15B 1_555 1_555
C17B C16B 1_555 1_555
H12B C17B 1_555 1_555
C18B C17B 1_555 1_555
H13B C18B 1_555 1_555
C19B C18B 1_555 1_555
C20B C19B 1_555 1_555
H14B C20B 1_555 1_555
C21B C20B 1_555 1_555
H15B C21B 1_555 1_555
C22B C21B 1_555 1_555
H16B C22B 1_555 1_555
C23B N1B 1_555 1_555
C24B N2B 1_555 1_555
C25B N6B 1_555 1_555
H17B C25B 1_555 1_555
C26B C25B 1_555 1_555
H18B C26B 1_555 1_555
C27B C26B 1_555 1_555
H19B C27B 1_555 1_555
C28B C27B 1_555 1_555
C29B C28B 1_555 1_555
H20B C29B 1_555 1_555
C30B C29B 1_555 1_555
H21B C30B 1_555 1_555
C31B C30B 1_555 1_555
C32B C31B 1_555 1_555
H22B C32B 1_555 1_555
C33B C32B 1_555 1_555
H23B C33B 1_555 1_555
C34B C33B 1_555 1_555
H24B C34B 1_555 1_555
C35B N5B 1_555 1_555
C36B N6B 1_555 1_555
C37B N7B 1_555 1_555
H25B C37B 1_555 1_555
C38B C37B 1_555 1_555
H26B C38B 1_555 1_555
C39B C38B 1_555 1_555
H27B C39B 1_555 1_555
C40B C39B 1_555 1_555
C41B C40B 1_555 1_555
H28B C41B 1_555 1_555
C42B C41B 1_555 1_555
H29B C42B 1_555 1_555
C43B C42B 1_555 1_555
C44B C43B 1_555 1_555
H30B C44B 1_555 1_555
C45B C44B 1_555 1_555
H31B C45B 1_555 1_555
C46B N8B 1_555 1_555
H32B C46B 1_555 1_555
C47B N8B 1_555 1_555
C48B N7B 1_555 1_555
O2B Mo4B 1_555 1_555
O3B Mo3B 1_555 1_555
O4B Mo10 1_555 1_555
O5B Mo5B 1_555 1_555
O6B Mo8B 1_555 1_555
O7B Mo9B 1_555 1_555
O8B Mo10B 1_555 1_555
O9A Mo9 1_555 1_555
O9B Co2B 1_555 1_555
O9C Mo9B 1_555 1_555
O10B Mo7B 1_555 1_555
O11B Mo3B 1_555 1_555
O12B Mo2B 1_555 1_555
O13B Mo7B 1_555 1_555
O14B Mo1B 1_555 1_555
O15B Mo4 1_555 1_555
O16B Co1B 1_555 1_555
O17B Mo11B 1_555 1_555
O18B Mo8 1_555 1_555
O19B Co2B 1_555 1_555
O20B Mo4 1_555 1_555
O21B Mo1B 1_555 1_555
O22B Mo8 1_555 1_555
O23B Mo7B 1_555 1_555
O24B Mo9B 1_555 1_555
O25B Mo6B 1_555 1_555
O26B Mo8B 1_555 1_555
O27B Mo1B 1_555 1_555
O28B Mo1B 1_555 1_555
O29B Mo12B 1_555 1_555
O31B Mo5 1_555 1_555
O32B Mo8B 1_555 1_555
O33B Mo11B 1_555 1_555
O34B Mo2B 1_555 1_555
O35B Mo4B 1_555 1_555
O36B Co1B 1_555 1_555
O37B P1 1_555 1_555
O38B Mo5B 1_555 1_555
O40B Mo5 1_555 1_555
O41B Mo9 1_555 1_555
O42B Mo10B 1_555 1_555
O43B P2 1_555 1_555
O44B Mo5B 1_555 1_555
O46B P1 1_555 1_555
O48B P2 1_555 1_555
Mo1 O46 1_555 1_555
Mo2 O21 1_555 1_555
Mo2 O46 1_555 1_555
Mo3 O12 1_555 1_555
Mo3 O37B 1_555 1_555
Mo4 O28 1_555 1_555
Mo4 O46 1_555 1_555
Mo6 O14 1_555 1_555
Mo6 O38 1_555 1_555
Mo7 O43B 1_555 1_555
Mo10 O23 1_555 1_555
Mo10 O32 1_555 1_555
Mo10 O43B 1_555 1_555
Mo11 O24 1_555 1_555
Mo11 O48 1_555 1_555
Mo12 O7 1_555 1_555
Mo12 O17 1_555 1_555
Mo12 O48 1_555 1_555
V1 O12 1_555 1_555
V1 O14 1_555 1_555
V1 O16 1_555 1_555
V1 O21 1_555 1_555
V2 O17 1_555 1_555
V2 O19 1_555 1_555
V2 O23 1_555 1_555
C4 C12 1_555 1_555
C7 C11 1_555 1_555
C9 C10 1_555 1_555
C11 C12 1_555 1_555
C16 C24 1_555 1_555
C19 C23 1_555 1_555
C23 C24 1_555 1_555
C28 C36 1_555 1_555
C31 C35 1_555 1_555
C35 C36 1_555 1_555
C40 C48 1_555 1_555
C43 C47 1_555 1_555
C45 C46 1_555 1_555
C47 C48 1_555 1_555
O20 Mo4B 1_555 1_555
O22 Mo8B 1_555 1_555
O40 Mo5B 1_555 1_555
Mo1B O46B 1_555 1_555
Mo2B O21B 1_555 1_555
Mo2B O31B 1_555 1_555
Mo2B O46B 1_555 1_555
Mo3B O12B 1_555 1_555
Mo3B O20B 1_555 1_555
Mo3B O40B 1_555 1_555
Mo4B O28B 1_555 1_555
Mo4B O46B 1_555 1_555
Mo5B O37B 1_555 1_555
Mo6B O14B 1_555 1_555
Mo6B O15B 1_555 1_555
Mo6B O38B 1_555 1_555
Mo7B O18B 1_555 1_555
Mo7B O41B 1_555 1_555
Mo9B O4B 1_555 1_555
Mo9B O43B 1_555 1_555
Mo10B O23B 1_555 1_555
Mo10B O32B 1_555 1_555
Mo11B O22B 1_555 1_555
Mo11B O24B 1_555 1_555
Mo11B O48B 1_555 1_555
Mo12B O7B 1_555 1_555
Mo12B O8B 1_555 1_555
Mo12B O17B 1_555 1_555
Mo12B O48B 1_555 1_555
V1B O12B 1_555 1_555
V1B O14B 1_555 1_555
V1B O16B 1_555 1_555
V1B O21B 1_555 1_555
V2B O10B 1_555 1_555
V2B O17B 1_555 1_555
V2B O19B 1_555 1_555
V2B O23B 1_555 1_555
C4B C12B 1_555 1_555
C7B C11B 1_555 1_555
C9B C10B 1_555 1_555
C11B C12B 1_555 1_555
C16B C24B 1_555 1_555
C19B C23B 1_555 1_555
C23B C24B 1_555 1_555
C28B C36B 1_555 1_555
C31B C35B 1_555 1_555
C35B C36B 1_555 1_555
C40B C48B 1_555 1_555
C43B C47B 1_555 1_555
C45B C46B 1_555 1_555
C47B C48B 1_555 1_555

#END
