
#######################################################################
#
#                 Cambridge Crystallographic Data Centre
#                                CCDC 
#
#######################################################################
#
# If this CIF has been generated from an entry in the Cambridge 
# Structural Database, then it will include bibliographic, chemical, 
# crystal, experimental, refinement or atomic coordinate data resulting 
# from the CCDC's data processing and validation procedures.
#
#######################################################################

data_QEYMOY
_symmetry_cell_setting           monoclinic
_symmetry_space_group_name_H-M   'P 21/n'
_symmetry_Int_Tables_number      14
_space_group_name_Hall           '-P 2yn'
loop_
_symmetry_equiv_pos_site_id
_symmetry_equiv_pos_as_xyz
1 x,y,z
2 1/2-x,1/2+y,1/2-z
3 -x,-y,-z
4 1/2+x,1/2-y,1/2+z
_cell_length_a                   9.8596(10)
_cell_length_b                   20.234(2)
_cell_length_c                   18.6010(19)
_cell_angle_alpha                90
_cell_angle_beta                 103.127(2)
_cell_angle_gamma                90
_cell_volume                     3613.91
loop_
_atom_site_label
_atom_site_type_symbol
_atom_site_fract_x
_atom_site_fract_y
_atom_site_fract_z
Ni1 Ni 1.06419(4) 0.11465(2) 0.69088(2)
Ni2 Ni 0.67699(4) 0.18243(2) 1.01855(2)
Cl1 Cl 0.44248(10) 0.10012(6) 0.40160(6)
Cl2 Cl 0.24626(11) -0.00627(6) 1.20777(7)
O1 O 0.9971(2) 0.14903(10) 0.58772(11)
O2 O 0.6058(2) 0.19085(10) 1.11204(11)
O3 O 1.1640(2) 0.20855(11) 0.70700(12)
O4 O 0.6410(2) 0.28446(11) 1.00886(12)
N1 N 0.9640(3) 0.02868(12) 0.65778(14)
N2 N 1.2564(3) 0.06579(14) 0.67509(16)
N3 N 0.7044(3) 0.08469(14) 1.03939(15)
N4 N 0.8988(3) 0.19479(14) 1.07185(16)
N5 N 0.8875(3) 0.15634(14) 0.71898(16)
N6 N 0.7170(4) 0.1971(2) 0.78510(19)
N7 N 0.7237(3) 0.18218(16) 0.91609(17)
N8 N 0.1278(3) 0.09109(14) 0.80140(16)
N9 N 0.4664(3) 0.16494(14) 0.96420(15)
N10 N 0.2263(3) 0.12420(16) 0.92905(16)
C1 C 0.7961(3) 0.07933(16) 0.55753(17)
C2 C 0.8694(3) 0.13801(15) 0.55053(17)
C3 C 0.8021(3) 0.18493(17) 0.49880(18)
H1 H 0.8465 0.2248 0.4947
C4 C 0.6730(4) 0.17365(19) 0.4543(2)
H2 H 0.6317 0.2053 0.4200
C5 C 0.6046(3) 0.11542(19) 0.46066(19)
C6 C 0.6625(3) 0.06967(17) 0.51160(19)
H3 H 0.6134 0.0313 0.5164
C7 C 0.8548(3) 0.02579(16) 0.60633(19)
H4 H 0.8082 -0.0145 0.5993
C8 C 1.0180(4) -0.03303(16) 0.6950(2)
H5 H 0.9512 -0.0683 0.6795
H6 H 1.0317 -0.0277 0.7480
C9 C 1.1553(4) -0.05088(17) 0.6761(2)
H7 H 1.1411 -0.0533 0.6228
H8 H 1.1832 -0.0944 0.6957
C10 C 1.2730(4) -0.00260(18) 0.7054(2)
H9 H 1.2851 0.0002 0.7586
H10 H 1.3581 -0.0209 0.6959
C11 C 1.2560(4) 0.06385(19) 0.5959(2)
H11 H 1.3361 0.0399 0.5889
H12 H 1.2587 0.1081 0.5777
H13 H 1.1729 0.0422 0.5694
C12 C 1.3832(4) 0.10282(19) 0.7131(2)
H14 H 1.4646 0.0811 0.7046
H15 H 1.3875 0.1042 0.7652
H16 H 1.3791 0.1471 0.6941
C13 C 0.5297(3) 0.07765(16) 1.11271(18)
C14 C 0.5225(3) 0.14564(17) 1.12965(17)
C15 C 0.4232(3) 0.16380(18) 1.16965(19)
H17 H 0.4137 0.2081 1.1808
C16 C 0.3399(4) 0.1178(2) 1.1926(2)
H18 H 0.2762 0.1312 1.2197
C17 C 0.3499(4) 0.05175(19) 1.1759(2)
C18 C 0.4436(4) 0.03235(17) 1.13701(19)
H19 H 0.4507 -0.0122 1.1263
C19 C 0.6309(4) 0.05152(17) 1.07450(19)
H20 H 0.6433 0.0059 1.0758
C20 C 0.8146(4) 0.05009(18) 1.0125(2)
H21 H 0.8049 0.0589 0.9604
H22 H 0.8064 0.0028 1.0190
C21 C 0.9557(4) 0.0738(2) 1.0555(2)
H23 H 0.9612 0.0667 1.1077
H24 H 1.0271 0.0468 1.0417
C22 C 0.9875(4) 0.1458(2) 1.0440(2)
H25 H 1.0840 0.1541 1.0681
H26 H 0.9778 0.1532 0.9916
C23 C 0.9213(4) 0.1891(2) 1.1525(2)
H27 H 1.0192 0.1912 1.1744
H28 H 0.8849 0.1476 1.1648
H29 H 0.8744 0.2246 1.1710
C24 C 0.9477(4) 0.2608(2) 1.0547(2)
H30 H 0.8958 0.2943 1.0732
H31 H 0.9342 0.2655 1.0022
H32 H 1.0449 0.2654 1.0775
C25 C 0.8122(4) 0.17449(17) 0.75270(19)
C26 C 0.7264(4) 0.18703(19) 0.8551(2)
C27 C 0.6065(4) 0.31962(18) 0.94095(19)
H33 H 0.6871 0.3224 0.9202
H34 H 0.5760 0.3634 0.9496
H35 H 0.5333 0.2969 0.9072
C28 C 1.2011(4) 0.24392(18) 0.77465(19)
H36 H 1.1294 0.2387 0.8015
H37 H 1.2117 0.2899 0.7646
H38 H 1.2874 0.2270 0.8035
C29 C 0.3558(4) 0.14579(16) 0.94574(17)
C30 C 0.1769(3) 0.10722(16) 0.8606(2)
H39 H 0.588(3) 0.2999(18) 1.0347(18)
H40 H 1.136(4) 0.2368(14) 0.6733(16)
Ni1_2 Ni 0.06419(4) 0.11465(2) 0.69088(2)
N8_2 N 1.1278(3) 0.09109(14) 0.80140(16)
loop_
_geom_bond_atom_site_label_1
_geom_bond_atom_site_label_2
_geom_bond_site_symmetry_1
_geom_bond_site_symmetry_2
Ni1 O1 1_555 1_555
Ni2 O2 1_555 1_555
Cl1 C5 1_555 1_555
Cl2 C17 1_555 1_555
O1 C2 1_555 1_555
O2 C14 1_555 1_555
O3 Ni1 1_555 1_555
O4 Ni2 1_555 1_555
N1 Ni1 1_555 1_555
N2 Ni1 1_555 1_555
N3 Ni2 1_555 1_555
N4 Ni2 1_555 1_555
N5 Ni1 1_555 1_555
N6 C25 1_555 1_555
N7 Ni2 1_555 1_555
N8 C30 1_555 1_555
N9 Ni2 1_555 1_555
N10 C29 1_555 1_555
C1 C2 1_555 1_555
C2 C3 1_555 1_555
C3 H1 1_555 1_555
C4 C3 1_555 1_555
H2 C4 1_555 1_555
C5 C4 1_555 1_555
C6 C1 1_555 1_555
H3 C6 1_555 1_555
C7 N1 1_555 1_555
H4 C7 1_555 1_555
C8 N1 1_555 1_555
H5 C8 1_555 1_555
H6 C8 1_555 1_555
C9 C8 1_555 1_555
H7 C9 1_555 1_555
H8 C9 1_555 1_555
C10 N2 1_555 1_555
H9 C10 1_555 1_555
H10 C10 1_555 1_555
C11 N2 1_555 1_555
H11 C11 1_555 1_555
H12 C11 1_555 1_555
H13 C11 1_555 1_555
C12 N2 1_555 1_555
H14 C12 1_555 1_555
H15 C12 1_555 1_555
H16 C12 1_555 1_555
C13 C14 1_555 1_555
C14 C15 1_555 1_555
C15 H17 1_555 1_555
C16 C15 1_555 1_555
H18 C16 1_555 1_555
C17 C16 1_555 1_555
C18 C13 1_555 1_555
H19 C18 1_555 1_555
C19 N3 1_555 1_555
H20 C19 1_555 1_555
C20 N3 1_555 1_555
H21 C20 1_555 1_555
H22 C20 1_555 1_555
C21 C20 1_555 1_555
H23 C21 1_555 1_555
H24 C21 1_555 1_555
C22 N4 1_555 1_555
H25 C22 1_555 1_555
H26 C22 1_555 1_555
C23 N4 1_555 1_555
H27 C23 1_555 1_555
H28 C23 1_555 1_555
H29 C23 1_555 1_555
C24 N4 1_555 1_555
H30 C24 1_555 1_555
H31 C24 1_555 1_555
H32 C24 1_555 1_555
C25 N5 1_555 1_555
C26 N6 1_555 1_555
C27 O4 1_555 1_555
H33 C27 1_555 1_555
H34 C27 1_555 1_555
H35 C27 1_555 1_555
C28 O3 1_555 1_555
H36 C28 1_555 1_555
H37 C28 1_555 1_555
H38 C28 1_555 1_555
C29 N9 1_555 1_555
C30 N10 1_555 1_555
H39 O4 1_555 1_555
H40 O3 1_555 1_555
Ni1_2 N8 1_555 1_555
N8_2 Ni1 1_555 1_555
N7 C26 1_555 1_555
C1 C7 1_555 1_555
C5 C6 1_555 1_555
C9 C10 1_555 1_555
C13 C19 1_555 1_555
C17 C18 1_555 1_555
C21 C22 1_555 1_555

#END
