
#######################################################################
#
#                 Cambridge Crystallographic Data Centre
#                                CCDC 
#
#######################################################################
#
# If this CIF has been generated from an entry in the Cambridge 
# Structural Database, then it will include bibliographic, chemical, 
# crystal, experimental, refinement or atomic coordinate data resulting 
# from the CCDC's data processing and validation procedures.
#
#######################################################################

data_QEYNUE
_symmetry_cell_setting           trigonal
_symmetry_space_group_name_H-M   'P 3 1 c'
_symmetry_Int_Tables_number      159
_space_group_name_Hall           "P 3 -2'c"
loop_
_symmetry_equiv_pos_site_id
_symmetry_equiv_pos_as_xyz
1 x,y,z
2 -y,x-y,z
3 -x+y,-x,z
4 y,x,1/2+z
5 x-y,-y,1/2+z
6 -x,-x+y,1/2+z
_cell_length_a                   7.9504(2)
_cell_length_b                   7.9504(2)
_cell_length_c                   17.6837(10)
_cell_angle_alpha                90
_cell_angle_beta                 90
_cell_angle_gamma                120
_cell_volume                     968.014
loop_
_atom_site_label
_atom_site_type_symbol
_atom_site_fract_x
_atom_site_fract_y
_atom_site_fract_z
Mn1 Mn 0.3333 0.6667 0.90225(6)
N1 N 0.3333 0.6667 0.7520(4)
C1 C 0.3717(9) 0.5127(8) 0.7266(3)
H1 H 0.4271 0.5428 0.6761
H2 H 0.2506 0.3901 0.7243
C2 C 0.5089(8) 0.4945(8) 0.7793(3)
H3 H 0.5347 0.3942 0.7616
H4 H 0.6310 0.6163 0.7814
N2 N 0.4195(6) 0.4441(6) 0.8552(3)
H5 H 0.5033 0.4374 0.8875
H6 H 0.3124 0.3257 0.8532
N3 N 0.2535(6) 0.8659(6) 0.9819(3)
H7 H 0.3655 0.9767 0.9909
H8 H 0.1794 0.8981 0.9538
C3 C 0.1561(8) 0.7985(7) 1.0547(3)
H9 H 0.2231 0.7461 1.0837
H10 H 0.0247 0.6934 1.0458
C4 C 0.1463(6) 0.9534(7) 1.1021(3)
H11 H 0.1147 0.9082 1.1539
H12 H 0.2728 1.0704 1.1021
N4 N 0.0000 1.0000 1.0732(4)
Mn1_2 Mn -0.6667 0.6667 0.90225(6)
Mn1_3 Mn 0.3333 1.6667 0.90225(6)
C1A C 0.4873(8) 0.8590(12) 0.7266(3)
C1B C 0.1410(12) 0.6283(9) 0.7266(3)
H1A H 0.4572 0.8843 0.6761
H1B H 0.1157 0.5729 0.6761
H2A H 0.6099 0.8605 0.7243
H2B H 0.1395 0.7494 0.7243
C2A C 0.5055(8) 1.0144(11) 0.7793(3)
C2B C -0.0144(11) 0.4911(8) 0.7793(3)
H3A H 0.6058 1.1405 0.7616
H3B H -0.1405 0.4653 0.7616
H4A H 0.3837 1.0147 0.7814
H4B H -0.0147 0.3690 0.7814
N2A N 0.5559(6) 0.9754(8) 0.8552(3)
N2B N 0.0246(8) 0.5805(6) 0.8552(3)
H5A H 0.5626 1.0659 0.8875
H5B H -0.0659 0.4967 0.8875
H6A H 0.6743 0.9867 0.8532
H6B H 0.0133 0.6876 0.8532
N3B N -0.3876(8) 0.7465(6) 0.9819(3)
N3A N 0.1341(6) 1.3876(8) 0.9819(3)
N3A_2 N 0.1341(6) 0.3876(8) 0.9819(3)
N3B_2 N 0.6124(8) 0.7465(6) 0.9819(3)
H7B H -0.3888 0.6345 0.9909
H7A H 0.0233 1.3888 0.9909
H7A_2 H 0.0233 0.3888 0.9909
H7B_2 H 0.6112 0.6345 0.9909
H8B H -0.2813 0.8206 0.9538
H8A H 0.1019 1.2813 0.9538
H8A_2 H 0.1019 0.2813 0.9538
H8B_2 H 0.7187 0.8206 0.9538
C3B C -0.3576(11) 0.8439(8) 1.0547(3)
C3A C 0.2015(7) 1.3576(11) 1.0547(3)
H9B H -0.4770 0.7769 1.0837
H9A H 0.2539 1.4770 1.0837
H10B H -0.3313 0.9753 1.0458
H10A H 0.3066 1.3313 1.0458
C4B C -0.1929(9) 0.8537(6) 1.1021(3)
C4A C 0.0466(7) 1.1929(9) 1.1021(3)
H11B H -0.2065 0.8853 1.1539
H11A H 0.0918 1.2065 1.1539
H12B H -0.2024 0.7272 1.1021
H12A H -0.0704 1.2024 1.1021
Cl1 Cl 1.0000 1.0000 0.83906(18)
Cl2 Cl 0.6667 0.3333 0.99266(15)
loop_
_geom_bond_atom_site_label_1
_geom_bond_atom_site_label_2
_geom_bond_site_symmetry_1
_geom_bond_site_symmetry_2
Mn1 N1 1_555 1_555
N1 C1 1_555 1_555
C1 H1 1_555 1_555
H2 C1 1_555 1_555
C2 C1 1_555 1_555
H3 C2 1_555 1_555
H4 C2 1_555 1_555
N2 Mn1 1_555 1_555
H5 N2 1_555 1_555
H6 N2 1_555 1_555
N3 Mn1 1_555 1_555
H7 N3 1_555 1_555
H8 N3 1_555 1_555
C3 N3 1_555 1_555
H9 C3 1_555 1_555
H10 C3 1_555 1_555
C4 C3 1_555 1_555
H11 C4 1_555 1_555
H12 C4 1_555 1_555
N4 C4 1_555 1_555
Mn1_2 N3B 1_555 1_555
Mn1_3 N3A 1_555 1_555
C1A N1 1_555 1_555
C1B N1 1_555 1_555
H1A C1A 1_555 1_555
H1B C1B 1_555 1_555
H2A C1A 1_555 1_555
H2B C1B 1_555 1_555
C2A C1A 1_555 1_555
C2B C1B 1_555 1_555
H3A C2A 1_555 1_555
H3B C2B 1_555 1_555
H4A C2A 1_555 1_555
H4B C2B 1_555 1_555
N2A Mn1 1_555 1_555
N2B Mn1 1_555 1_555
H5A N2A 1_555 1_555
H5B N2B 1_555 1_555
H6A N2A 1_555 1_555
H6B N2B 1_555 1_555
N3B H7B 1_555 1_555
N3A H7A 1_555 1_555
N3A_2 Mn1 1_555 1_555
N3B_2 Mn1 1_555 1_555
H7A_2 N3A_2 1_555 1_555
H7B_2 N3B_2 1_555 1_555
H8B N3B 1_555 1_555
H8A N3A 1_555 1_555
H8A_2 N3A_2 1_555 1_555
H8B_2 N3B_2 1_555 1_555
C3B N3B 1_555 1_555
C3A N3A 1_555 1_555
H9B C3B 1_555 1_555
H9A C3A 1_555 1_555
H10B C3B 1_555 1_555
H10A C3A 1_555 1_555
C4B N4 1_555 1_555
C4A N4 1_555 1_555
H11B C4B 1_555 1_555
H11A C4A 1_555 1_555
H12B C4B 1_555 1_555
H12A C4A 1_555 1_555
C2 N2 1_555 1_555
C2A N2A 1_555 1_555
C2B N2B 1_555 1_555
C3B C4B 1_555 1_555
C3A C4A 1_555 1_555

#END
