
#######################################################################
#
#                 Cambridge Crystallographic Data Centre
#                                CCDC 
#
#######################################################################
#
# If this CIF has been generated from an entry in the Cambridge 
# Structural Database, then it will include bibliographic, chemical, 
# crystal, experimental, refinement or atomic coordinate data resulting 
# from the CCDC's data processing and validation procedures.
#
#######################################################################

data_QEYPAN
_symmetry_cell_setting           triclinic
_symmetry_space_group_name_H-M   'P -1'
_symmetry_Int_Tables_number      2
_space_group_name_Hall           '-P 1'
loop_
_symmetry_equiv_pos_site_id
_symmetry_equiv_pos_as_xyz
1 x,y,z
2 -x,-y,-z
_cell_length_a                   10.394(2)
_cell_length_b                   11.066(2)
_cell_length_c                   30.409(6)
_cell_angle_alpha                88.42(3)
_cell_angle_beta                 87.81(3)
_cell_angle_gamma                79.04(3)
_cell_volume                     3430.6
loop_
_atom_site_label
_atom_site_type_symbol
_atom_site_fract_x
_atom_site_fract_y
_atom_site_fract_z
Sm1 Sm 0.441781(19) 0.344897(17) 0.372814(6)
O1 O 0.5332(3) 0.4913(2) 0.32412(8)
N1 N 0.6792(3) 0.3605(3) 0.38301(9)
C1 C 0.7351(4) 0.4411(3) 0.35861(12)
C2 C 1.1286(4) 0.8872(4) 0.02190(13)
H1 H 1.1401 0.8137 0.0069
Sm2 Sm 0.86938(2) 1.041788(17) 0.147246(6)
O2 O 0.6965(3) 0.5826(2) 0.29881(8)
N2 N 0.2950(3) 0.3411(3) 0.44177(10)
C3 C 0.8623(4) 0.4544(4) 0.36399(13)
H2 H 0.8980 0.5125 0.3474
Sr1 Sr 0.72691(4) 0.56876(3) 0.213718(12)
O3 O 0.5636(3) 0.2003(2) 0.42674(8)
N3 N 0.3626(3) 0.3302(3) 0.29538(10)
C4 C 0.9357(4) 0.3798(4) 0.39446(14)
H3 H 1.0221 0.3868 0.3987
O4 O 0.7429(3) 0.1218(3) 0.46226(9)
N4 N 0.6291(3) 1.0294(3) 0.14628(10)
C5 C 0.8797(4) 0.2947(4) 0.41858(13)
H4 H 0.9285 0.2424 0.4389
O5 O 0.4330(3) 0.5136(2) 0.42340(9)
C6 C 0.7521(4) 0.2879(3) 0.41242(12)
N5 N 1.0256(3) 1.0121(3) 0.08009(10)
O6 O 0.3616(4) 0.6117(3) 0.48506(10)
C7 C 0.6484(4) 0.5114(3) 0.32419(12)
N6 N 0.9657(3) 1.0812(3) 0.21865(10)
O7 O 0.3144(3) 0.1768(2) 0.38019(8)
C8 C 0.6812(4) 0.1961(3) 0.43632(12)
O8 O 0.1783(3) 0.0743(3) 0.41662(10)
C9 C 0.2903(4) 0.4274(3) 0.47165(12)
O9 O 0.5701(3) 0.1875(2) 0.32701(8)
C10 C 0.2183(5) 0.4254(4) 0.51058(14)
H5 H 0.2155 0.4871 0.5309
O10 O 0.6171(3) 0.0897(2) 0.26366(9)
C11 C 0.1508(5) 0.3314(4) 0.51910(14)
H6 H 0.1014 0.3292 0.5452
O11 O 0.2366(3) 0.4825(2) 0.35282(9)
C12 C 0.1572(4) 0.2401(4) 0.48852(13)
H7 H 0.1140 0.1746 0.4938
O12 O 0.0904(3) 0.5704(3) 0.30459(10)
C13 C 0.2300(4) 0.2489(3) 0.44957(12)
O13 O 0.7920(3) 0.8991(2) 0.20039(8)
C14 C 0.3678(4) 0.5261(4) 0.45921(13)
O14 O 0.6398(3) 0.8011(2) 0.22964(9)
C15 C 0.2403(4) 0.1582(4) 0.41324(13)
O15 O 0.7417(3) 1.1655(2) 0.09073(9)
C16 C 0.4348(4) 0.2523(3) 0.26731(12)
O16 O 0.5534(3) 1.2536(3) 0.06263(11)
C17 C 0.4047(5) 0.2478(4) 0.22387(14)
H8 H 0.4586 0.1950 0.2047
O17 O 0.8684(3) 0.8573(2) 0.10223(9)
C18 C 0.2932(5) 0.3230(5) 0.20946(15)
H9 H 0.2691 0.3201 0.1804
O18 O 0.9843(3) 0.7113(3) 0.05972(11)
C19 C 0.2172(5) 0.4028(4) 0.23824(15)
H10 H 0.1409 0.4540 0.2291
O19 O 0.9974(3) 1.2057(2) 0.13038(9)
C20 C 0.2567(4) 0.4053(3) 0.28116(13)
O20 O 1.1298(3) 1.2952(3) 0.08632(10)
C21 C 0.5509(4) 0.1709(3) 0.28725(13)
O21 O 1.0642(3) 0.8962(3) 0.16782(10)
C22 C 0.1868(4) 0.4938(4) 0.31508(14)
O22 O 1.2084(3) 0.8133(3) 0.21741(11)
C23 C 0.5783(4) 0.9544(3) 0.17432(12)
O23 O 0.7569(3) 1.2218(2) 0.18808(9)
C24 C 0.4489(4) 0.9460(4) 0.17528(14)
H11 H 0.4165 0.8913 0.1945
O24 O 0.7423(3) 1.3515(3) 0.24400(9)
C25 C 0.3670(4) 1.0220(4) 0.14650(15)
H12 H 0.2781 1.0192 0.1464
O25 O 0.7321(3) 0.6796(3) 0.13840(9)
H13 H 0.7858 0.7287 0.1385
H14 H 0.6622 0.6821 0.1245
C26 C 0.4183(4) 1.1010(4) 0.11819(13)
H15 H 0.3644 1.1533 0.0992
O26 O 0.9262(3) 0.4343(3) 0.17270(10)
H16 H 0.9781 0.4744 0.1592
H17 H 0.9451 0.3650 0.1602
C27 C 0.5500(4) 1.1014(3) 0.11844(12)
O27 O 0.6154(3) 0.4433(3) 0.15714(10)
H18 H 0.5746 0.4911 0.1378
H19 H 0.6479 0.3768 0.1442
C28 C 0.6770(4) 0.8786(3) 0.20426(12)
O28 O 0.4797(3) 0.5881(3) 0.23783(10)
H20 H 0.4256 0.6016 0.2172
H21 H 0.4527 0.5223 0.2451
C29 C 0.6201(4) 1.1806(4) 0.08816(13)
O29 O 0.9389(3) 0.6561(3) 0.22497(11)
H22 H 0.9942 0.6458 0.2453
H23 H 0.9452 0.7180 0.2084
C30 C 1.0416(4) 0.9078(3) 0.05768(12)
C31 C 1.1979(4) 0.9769(4) 0.00878(14)
H24 H 1.2554 0.9654 -0.0156
C32 C 1.1812(4) 1.0839(4) 0.03214(13)
H25 H 1.2272 1.1455 0.0238
C33 C 1.0952(4) 1.0982(3) 0.06809(12)
C34 C 0.9583(4) 0.8174(4) 0.07447(14)
C35 C 1.0723(4) 1.2102(4) 0.09680(13)
C36 C 1.0718(4) 1.0045(4) 0.23254(13)
C37 C 1.1338(5) 1.0272(5) 0.27008(17)
H26 H 1.2074 0.9725 0.2795
C38 C 1.0849(6) 1.1314(6) 0.29298(18)
H27 H 1.1265 1.1493 0.3179
C39 C 0.9739(5) 1.2099(5) 0.27923(15)
H28 H 0.9392 1.2808 0.2947
C40 C 0.9157(4) 1.1808(4) 0.24204(13)
C41 C 1.1197(4) 0.8949(4) 0.20401(15)
C42 C 0.7949(4) 1.2580(4) 0.22368(13)
Sr1_2 Sr 0.72691(4) 1.56876(3) 0.213718(12)
O24_2 O 0.7423(3) 0.3515(3) 0.24400(9)
N7 N 0.8273(4) 0.5501(4) 0.03906(14)
H29 H 0.8783 0.5941 0.0495
N8 N 0.7016(4) 0.4197(3) 0.03449(13)
H30 H 0.6567 0.3638 0.0414
C43 C 0.7750(6) 0.4660(5) 0.06110(17)
H31 H 0.7880 0.4434 0.0905
C44 C 0.7876(7) 0.5549(5) -0.00190(18)
H32 H 0.8109 0.6058 -0.0245
C45 C 0.7083(7) 0.4740(5) -0.00526(17)
H33 H 0.6659 0.4585 -0.0303
N9 N 0.3728(4) 0.9456(3) 0.34110(12)
H34 H 0.3644 1.0188 0.3510
N10 N 0.4381(4) 0.7897(4) 0.30277(14)
H35 H 0.4793 0.7421 0.2829
C46 C 0.4510(5) 0.9017(5) 0.30844(16)
H36 H 0.5064 0.9439 0.2921
C47 C 0.3503(5) 0.7582(4) 0.33270(18)
H37 H 0.3246 0.6823 0.3359
C48 C 0.3073(5) 0.8593(5) 0.35701(15)
H38 H 0.2451 0.8675 0.3801
N11 N 0.9416(4) 0.8153(4) 0.34275(19)
H39 H 0.9905 0.7453 0.3487
N12 N 0.8075(4) 0.9535(3) 0.31158(12)
H40 H 0.7518 0.9911 0.2932
C49 C 0.8652(5) 0.8397(5) 0.30947(18)
H41 H 0.8541 0.7849 0.2879
C50 C 0.8474(5) 1.0036(5) 0.34649(18)
H42 H 0.8209 1.0846 0.3553
C51 C 0.9311(6) 0.9175(7) 0.36619(19)
H43 H 0.9750 0.9259 0.3917
N13 N 0.5380(4) 0.9542(4) 0.43416(14)
H44 H 0.5416 1.0313 0.4339
N14 N 0.4829(4) 0.7815(4) 0.45089(13)
H45 H 0.4464 0.7266 0.4642
C52 C 0.4596(5) 0.9001(5) 0.45964(16)
H46 H 0.3983 0.9387 0.4803
C53 C 0.5726(5) 0.7610(5) 0.41776(17)
H47 H 0.6016 0.6863 0.4039
C54 C 0.6131(6) 0.8660(5) 0.40808(18)
H48 H 0.6791 0.8775 0.3878
C55 C 0.5439(7) 0.8308(6) 0.0431(2)
H49 H 0.5897 0.8673 0.0645
H50 H 0.4981 0.8942 0.0242
H51 H 0.6057 0.7740 0.0259
C56 C 0.4491(7) 0.7647(7) 0.0659(2)
H52 H 0.3804 0.8246 0.0798
H53 H 0.4088 0.7228 0.0441
O30 O 0.5010(4) 0.6819(5) 0.09655(19)
H54 H 0.4425 0.6667 0.1135
O31 O 0.3168(4) 0.6290(4) 0.16260(14)
H55 H 0.2855 0.5933 0.1422
H56 H 0.2460 0.6678 0.1744
O32 O 0.1245(4) 0.5257(3) 0.11984(12)
H57 H 0.0907 0.5825 0.1021
H58 H 0.1351 0.4585 0.1061
O33 O 0.0903(3) 0.6623(3) 0.40551(11)
H59 H 0.1520 0.6074 0.3953
H60 H 0.1231 0.7008 0.4247
O34 O 0.1146(4) 0.8607(4) 0.46166(12)
H61 H 0.1282 0.9293 0.4511
H62 H 0.1444 0.8616 0.4873
loop_
_geom_bond_atom_site_label_1
_geom_bond_atom_site_label_2
_geom_bond_site_symmetry_1
_geom_bond_site_symmetry_2
Sm1 O1 1_555 1_555
O1 C7 1_555 1_555
N1 Sm1 1_555 1_555
C1 N1 1_555 1_555
C2 H1 1_555 1_555
Sm2 N4 1_555 1_555
O2 Sr1 1_555 1_555
N2 Sm1 1_555 1_555
C3 C1 1_555 1_555
H2 C3 1_555 1_555
Sr1 O14 1_555 1_555
O3 Sm1 1_555 1_555
N3 Sm1 1_555 1_555
C4 C3 1_555 1_555
H3 C4 1_555 1_555
O4 C8 1_555 1_555
N4 C23 1_555 1_555
C5 C4 1_555 1_555
H4 C5 1_555 1_555
O5 Sm1 1_555 1_555
C6 N1 1_555 1_555
N5 Sm2 1_555 1_555
O6 C14 1_555 1_555
C7 C1 1_555 1_555
N6 Sm2 1_555 1_555
O7 Sm1 1_555 1_555
C8 O3 1_555 1_555
O8 C15 1_555 1_555
C9 N2 1_555 1_555
O9 Sm1 1_555 1_555
C10 C9 1_555 1_555
H5 C10 1_555 1_555
O10 C21 1_555 1_555
C11 C10 1_555 1_555
H6 C11 1_555 1_555
O11 Sm1 1_555 1_555
C12 C11 1_555 1_555
H7 C12 1_555 1_555
O12 C22 1_555 1_555
C13 N2 1_555 1_555
O13 Sm2 1_555 1_555
C14 O5 1_555 1_555
O14 C28 1_555 1_555
C15 O7 1_555 1_555
O15 Sm2 1_555 1_555
C16 N3 1_555 1_555
O16 C29 1_555 1_555
C17 C16 1_555 1_555
H8 C17 1_555 1_555
O17 Sm2 1_555 1_555
C18 C17 1_555 1_555
H9 C18 1_555 1_555
O18 C34 1_555 1_555
C19 C18 1_555 1_555
H10 C19 1_555 1_555
O19 Sm2 1_555 1_555
C20 N3 1_555 1_555
O20 C35 1_555 1_555
C21 O9 1_555 1_555
O21 Sm2 1_555 1_555
C22 O11 1_555 1_555
O22 C41 1_555 1_555
C23 C24 1_555 1_555
O23 Sm2 1_555 1_555
C24 H11 1_555 1_555
O24 C42 1_555 1_555
C25 C24 1_555 1_555
H12 C25 1_555 1_555
O25 Sr1 1_555 1_555
H13 O25 1_555 1_555
H14 O25 1_555 1_555
C26 C25 1_555 1_555
H15 C26 1_555 1_555
O26 Sr1 1_555 1_555
H16 O26 1_555 1_555
H17 O26 1_555 1_555
C27 N4 1_555 1_555
O27 Sr1 1_555 1_555
H18 O27 1_555 1_555
H19 O27 1_555 1_555
C28 O13 1_555 1_555
O28 Sr1 1_555 1_555
H20 O28 1_555 1_555
H21 O28 1_555 1_555
C29 O15 1_555 1_555
O29 Sr1 1_555 1_555
H22 O29 1_555 1_555
H23 O29 1_555 1_555
C30 C2 1_555 1_555
C31 C2 1_555 1_555
H24 C31 1_555 1_555
C32 C31 1_555 1_555
H25 C32 1_555 1_555
C33 N5 1_555 1_555
C34 O17 1_555 1_555
C35 O19 1_555 1_555
C36 N6 1_555 1_555
C37 C36 1_555 1_555
H26 C37 1_555 1_555
C38 C37 1_555 1_555
H27 C38 1_555 1_555
C39 C38 1_555 1_555
H28 C39 1_555 1_555
C40 N6 1_555 1_555
C41 O21 1_555 1_555
C42 O23 1_555 1_555
N7 H29 1_555 1_555
N8 H30 1_555 1_555
C43 N7 1_555 1_555
H31 C43 1_555 1_555
C44 N7 1_555 1_555
H32 C44 1_555 1_555
C45 N8 1_555 1_555
H33 C45 1_555 1_555
N9 H34 1_555 1_555
N10 H35 1_555 1_555
C46 N9 1_555 1_555
H36 C46 1_555 1_555
C47 N10 1_555 1_555
H37 C47 1_555 1_555
C48 N9 1_555 1_555
H38 C48 1_555 1_555
N11 H39 1_555 1_555
N12 H40 1_555 1_555
C49 N11 1_555 1_555
H41 C49 1_555 1_555
C50 N12 1_555 1_555
H42 C50 1_555 1_555
C51 N11 1_555 1_555
H43 C51 1_555 1_555
N13 H44 1_555 1_555
N14 H45 1_555 1_555
C52 N13 1_555 1_555
H46 C52 1_555 1_555
C53 N14 1_555 1_555
H47 C53 1_555 1_555
C54 N13 1_555 1_555
H48 C54 1_555 1_555
C55 H49 1_555 1_555
H50 C55 1_555 1_555
H51 C55 1_555 1_555
C56 C55 1_555 1_555
H52 C56 1_555 1_555
H53 C56 1_555 1_555
O30 C56 1_555 1_555
H54 O30 1_555 1_555
O31 H55 1_555 1_555
H56 O31 1_555 1_555
O32 H57 1_555 1_555
H58 O32 1_555 1_555
O33 H59 1_555 1_555
H60 O33 1_555 1_555
O34 H61 1_555 1_555
H62 O34 1_555 1_555
Sr1_2 O24 1_555 1_555
O24_2 Sr1 1_555 1_555
O2 C7 1_555 1_555
C5 C6 1_555 1_555
C6 C8 1_555 1_555
N5 C30 1_555 1_555
C9 C14 1_555 1_555
C12 C13 1_555 1_555
C13 C15 1_555 1_555
C16 C21 1_555 1_555
C19 C20 1_555 1_555
C20 C22 1_555 1_555
C23 C28 1_555 1_555
C26 C27 1_555 1_555
C27 C29 1_555 1_555
C30 C34 1_555 1_555
C32 C33 1_555 1_555
C33 C35 1_555 1_555
C36 C41 1_555 1_555
C39 C40 1_555 1_555
C40 C42 1_555 1_555
N8 C43 1_555 1_555
C44 C45 1_555 1_555
N10 C46 1_555 1_555
C47 C48 1_555 1_555
N12 C49 1_555 1_555
C50 C51 1_555 1_555
N14 C52 1_555 1_555
C53 C54 1_555 1_555

#END
