
#######################################################################
#
#                 Cambridge Crystallographic Data Centre
#                                CCDC 
#
#######################################################################
#
# If this CIF has been generated from an entry in the Cambridge 
# Structural Database, then it will include bibliographic, chemical, 
# crystal, experimental, refinement or atomic coordinate data resulting 
# from the CCDC's data processing and validation procedures.
#
#######################################################################

data_QEYSAP
_symmetry_cell_setting           monoclinic
_symmetry_space_group_name_H-M   'C 2/c'
_symmetry_Int_Tables_number      15
_space_group_name_Hall           '-C 2yn'
loop_
_symmetry_equiv_pos_site_id
_symmetry_equiv_pos_as_xyz
1 x,y,z
2 1/2+x,1/2+y,z
3 -x,y,1/2-z
4 1/2-x,1/2+y,1/2-z
5 -x,-y,-z
6 1/2-x,1/2-y,-z
7 x,-y,1/2+z
8 1/2+x,1/2-y,1/2+z
_cell_length_a                   20.7824(15)
_cell_length_b                   11.6822(8)
_cell_length_c                   15.8378(11)
_cell_angle_alpha                90
_cell_angle_beta                 100.5900(10)
_cell_angle_gamma                90
_cell_volume                     3779.67
loop_
_atom_site_label
_atom_site_type_symbol
_atom_site_fract_x
_atom_site_fract_y
_atom_site_fract_z
Cd1 Cd 1.0000 0.29180(2) 0.7500
S1 S 0.92030(5) 0.28253(8) 0.93746(5)
O1 O 0.92240(16) 0.3917(2) 0.97924(18)
O2 O 0.93656(13) 0.2909(2) 0.85179(16)
O3 O 0.96103(18) 0.1970(3) 0.98781(19)
N1 N 1.09869(13) 0.2815(2) 0.85539(18)
N2 N 1.0000 0.4875(3) 0.7500
N3 N 1.0000 1.0935(3) 0.7500
N4 N 0.8628(3) 0.0582(5) 1.0008(4)
H1 H 0.9041 0.0725 1.0103
H2 H 0.8484 -0.0031 1.0210
C1 C 1.2094(2) 0.2205(5) 0.8869(3)
H3 H 1.2439 0.1860 0.8665
C2 C 1.1502(2) 0.2341(5) 0.8328(3)
H4 H 1.1464 0.2079 0.7767
C3 C 1.1074(2) 0.3187(6) 0.9348(3)
H5 H 1.0724 0.3543 0.9531
C4 C 1.1652(2) 0.3081(6) 0.9927(3)
H6 H 1.1680 0.3364 1.0482
C5 C 1.21838(16) 0.2569(3) 0.9700(2)
C6 C 1.0060(2) 0.5476(3) 0.6804(2)
H7 H 1.0105 0.5078 0.6310
C7 C 1.0059(2) 0.6646(3) 0.6778(2)
H8 H 1.0097 0.7022 0.6272
C8 C 1.0000 0.7270(4) 0.7500
C9 C 1.0000 0.8538(4) 0.7500
C10 C 0.9937(2) 0.9168(3) 0.8225(2)
H9 H 0.9893 0.8794 0.8730
C11 C 0.9940(2) 1.0340(3) 0.8196(2)
H10 H 0.9899 1.0741 0.8691
C12 C 0.8381(2) 0.2337(4) 0.9184(3)
C13 C 0.7904(2) 0.3033(5) 0.8662(3)
C14 C 0.8047(3) 0.4061(5) 0.8286(3)
H11 H 0.8475 0.4335 0.8391
C15 C 0.7565(4) 0.4681(7) 0.7759(5)
H12 H 0.7665 0.5366 0.7512
C16 C 0.6921(4) 0.4255(8) 0.7604(6)
H13 H 0.6596 0.4647 0.7234
C17 C 0.6772(4) 0.3302(9) 0.7980(6)
H14 H 0.6338 0.3062 0.7875
C18 C 0.7231(3) 0.2636(7) 0.8525(5)
C19 C 0.7109(4) 0.1634(8) 0.8944(5)
H15 H 0.6675 0.1403 0.8882
C20 C 0.7540(4) 0.0998(7) 0.9409(5)
H16 H 0.7413 0.0331 0.9654
C21 C 0.8207(3) 0.1318(5) 0.9544(4)
Cd1_2 Cd 1.0000 1.29180(2) 0.7500
Cd1G Cd 1.5000 0.20820(2) 1.2500
S1B S 1.07970(5) 0.28253(8) 0.56254(5)
O1B O 1.07760(16) 0.3917(2) 0.52076(18)
O2B O 1.06344(13) 0.2909(2) 0.64821(16)
O3B O 1.03897(18) 0.1970(3) 0.51219(19)
N1E N 1.40131(13) 0.2185(2) 1.14461(18)
N1B N 0.90131(13) 0.2815(2) 0.64461(18)
N3_2 N 1.0000 0.0935(3) 0.7500
N4B N 1.1372(3) 0.0582(5) 0.4992(4)
H1B H 1.0959 0.0725 0.4897
H2B H 1.1516 -0.0031 0.4790
C1E C 1.2906(2) 0.2795(5) 1.1131(3)
H3E H 1.2561 0.3140 1.1335
C2E C 1.3498(2) 0.2659(5) 1.1672(3)
H4E H 1.3536 0.2921 1.2233
C3E C 1.3926(2) 0.1813(6) 1.0652(3)
H5E H 1.4276 0.1457 1.0469
C4E C 1.3348(2) 0.1919(6) 1.0073(3)
H6E H 1.3320 0.1636 0.9518
C5E C 1.28162(16) 0.2431(3) 1.0300(2)
C6B C 0.9940(2) 0.5476(3) 0.8196(2)
H7B H 0.9895 0.5078 0.8690
C7B C 0.9941(2) 0.6646(3) 0.8222(2)
H8B H 0.9903 0.7022 0.8728
C10B C 1.0063(2) 0.9168(3) 0.6775(2)
H9B H 1.0107 0.8794 0.6270
C11B C 1.0060(2) 1.0340(3) 0.6804(2)
H10B H 1.0101 1.0741 0.6309
C12B C 1.1619(2) 0.2337(4) 0.5816(3)
C13B C 1.2096(2) 0.3033(5) 0.6338(3)
C14B C 1.1953(3) 0.4061(5) 0.6714(3)
H11B H 1.1525 0.4335 0.6609
C15B C 1.2435(4) 0.4681(7) 0.7241(5)
H12B H 1.2335 0.5366 0.7488
C16B C 1.3079(4) 0.4255(8) 0.7396(6)
H13B H 1.3404 0.4647 0.7766
C17B C 1.3228(4) 0.3302(9) 0.7020(6)
H14B H 1.3662 0.3062 0.7125
C18B C 1.2769(3) 0.2636(7) 0.6475(5)
C19B C 1.2891(4) 0.1634(8) 0.6056(5)
H15B H 1.3325 0.1403 0.6118
C20B C 1.2460(4) 0.0998(7) 0.5591(5)
H16B H 1.2587 0.0331 0.5346
C21B C 1.1793(3) 0.1318(5) 0.5456(4)
loop_
_geom_bond_atom_site_label_1
_geom_bond_atom_site_label_2
_geom_bond_site_symmetry_1
_geom_bond_site_symmetry_2
Cd1 O2 1_555 1_555
S1 O1 1_555 1_555
O2 S1 1_555 1_555
O3 S1 1_555 1_555
N1 Cd1 1_555 1_555
N2 Cd1 1_555 1_555
N3 C11 1_555 1_555
N4 H1 1_555 1_555
H2 N4 1_555 1_555
C1 H3 1_555 1_555
C2 N1 1_555 1_555
H4 C2 1_555 1_555
C3 N1 1_555 1_555
H5 C3 1_555 1_555
C4 C3 1_555 1_555
H6 C4 1_555 1_555
C5 C1 1_555 1_555
C6 N2 1_555 1_555
H7 C6 1_555 1_555
C7 C6 1_555 1_555
H8 C7 1_555 1_555
C8 C7 1_555 1_555
C9 C8 1_555 1_555
C10 C9 1_555 1_555
H9 C10 1_555 1_555
C11 C10 1_555 1_555
H10 C11 1_555 1_555
C12 S1 1_555 1_555
C13 C12 1_555 1_555
C14 C13 1_555 1_555
H11 C14 1_555 1_555
C15 C14 1_555 1_555
H12 C15 1_555 1_555
C16 C15 1_555 1_555
H13 C16 1_555 1_555
C17 C16 1_555 1_555
H14 C17 1_555 1_555
C18 C13 1_555 1_555
C19 C18 1_555 1_555
H15 C19 1_555 1_555
C20 C19 1_555 1_555
H16 C20 1_555 1_555
C21 N4 1_555 1_555
Cd1_2 N3 1_555 1_555
Cd1G N1E 1_555 1_555
S1B O1B 1_555 1_555
O2B Cd1 1_555 1_555
O3B S1B 1_555 1_555
N1E C2E 1_555 1_555
N1B Cd1 1_555 1_555
N3_2 Cd1 1_555 1_555
N4B H1B 1_555 1_555
H2B N4B 1_555 1_555
C1E H3E 1_555 1_555
C2E C1E 1_555 1_555
H4E C2E 1_555 1_555
C3E N1E 1_555 1_555
H5E C3E 1_555 1_555
C4E C3E 1_555 1_555
H6E C4E 1_555 1_555
C5E C5 1_555 1_555
C6B N2 1_555 1_555
H7B C6B 1_555 1_555
C7B C8 1_555 1_555
H8B C7B 1_555 1_555
C10B C9 1_555 1_555
H9B C10B 1_555 1_555
C11B N3 1_555 1_555
H10B C11B 1_555 1_555
C12B S1B 1_555 1_555
C13B C12B 1_555 1_555
C14B C13B 1_555 1_555
H11B C14B 1_555 1_555
C15B C14B 1_555 1_555
H12B C15B 1_555 1_555
C16B C15B 1_555 1_555
H13B C16B 1_555 1_555
C17B C16B 1_555 1_555
H14B C17B 1_555 1_555
C18B C13B 1_555 1_555
C19B C18B 1_555 1_555
H15B C19B 1_555 1_555
C20B C19B 1_555 1_555
H16B C20B 1_555 1_555
C21B N4B 1_555 1_555
C1 C2 1_555 1_555
C4 C5 1_555 1_555
C12 C21 1_555 1_555
C17 C18 1_555 1_555
C20 C21 1_555 1_555
S1B O2B 1_555 1_555
C1E C5E 1_555 1_555
C4E C5E 1_555 1_555
C6B C7B 1_555 1_555
C10B C11B 1_555 1_555
C12B C21B 1_555 1_555
C17B C18B 1_555 1_555
C20B C21B 1_555 1_555

#END
