
#######################################################################
#
#                 Cambridge Crystallographic Data Centre
#                                CCDC 
#
#######################################################################
#
# If this CIF has been generated from an entry in the Cambridge 
# Structural Database, then it will include bibliographic, chemical, 
# crystal, experimental, refinement or atomic coordinate data resulting 
# from the CCDC's data processing and validation procedures.
#
#######################################################################

data_QEYWEX
_symmetry_cell_setting           monoclinic
_symmetry_space_group_name_H-M   'P 21/n'
_symmetry_Int_Tables_number      14
_space_group_name_Hall           '-P 2yn'
loop_
_symmetry_equiv_pos_site_id
_symmetry_equiv_pos_as_xyz
1 x,y,z
2 1/2-x,1/2+y,1/2-z
3 -x,-y,-z
4 1/2+x,1/2-y,1/2+z
_cell_length_a                   7.7344(6)
_cell_length_b                   8.9675(7)
_cell_length_c                   15.1457(12)
_cell_angle_alpha                90
_cell_angle_beta                 93.1740(10)
_cell_angle_gamma                90
_cell_volume                     1048.87
loop_
_atom_site_label
_atom_site_type_symbol
_atom_site_fract_x
_atom_site_fract_y
_atom_site_fract_z
Mn1 Mn 0.0000 0.0000 0.5000
O1 O 0.4496(5) 0.7156(2) 0.33039(17)
O2 O 0.3559(3) 0.6624(2) 0.46210(11)
N1 N 0.0945(3) 0.2238(2) 0.45123(13)
N2 N 0.2683(2) 0.3826(2) 0.39501(12)
N3 N 0.1073(3) 0.4273(3) 0.36558(15)
N4 N 0.4688(3) 0.4237(2) 0.28264(12)
C1 C 0.4168(4) 0.4794(3) 0.20538(17)
H1 H 0.3328 0.5530 0.1973
C2 C 0.6089(5) 0.3249(4) 0.1863(2)
H2 H 0.6874 0.2652 0.1582
C3 C 0.0086(4) 0.3287(3) 0.40154(19)
H3 H -0.1115 0.3304 0.3937
C4 C 0.2578(3) 0.2619(3) 0.44503(15)
H4 H 0.3519 0.2116 0.4718
C5 C 0.4232(3) 0.4613(3) 0.37151(15)
H5 H 0.5180 0.4257 0.4117
N5 N 0.5980(4) 0.3243(3) 0.27213(18)
N6 N 0.4985(3) 0.4180(2) 0.14126(13)
C6 C 0.4053(3) 0.6320(3) 0.38826(16)
O4 O 0.2645(2) -0.0701(2) 0.52215(12)
H8 H 0.2910 -0.1457 0.4918
H9 H 0.3320 -0.0506 0.5669
Mn1C Mn 0.5000 0.5000 0.0000
Mn1C_2 Mn -0.5000 -0.5000 1.0000
O1B O -0.4496(5) -0.7156(2) 0.66961(17)
O2B O -0.3559(3) -0.6624(2) 0.53790(11)
N1B N -0.0945(3) -0.2238(2) 0.54877(13)
N2B N -0.2683(2) -0.3826(2) 0.60499(12)
N3B N -0.1073(3) -0.4273(3) 0.63442(15)
N4B N -0.4688(3) -0.4237(2) 0.71736(12)
C1B C -0.4168(4) -0.4794(3) 0.79462(17)
H1B H -0.3328 -0.5530 0.8027
C2B C -0.6089(5) -0.3249(4) 0.8137(2)
H2B H -0.6874 -0.2652 0.8418
C3B C -0.0086(4) -0.3287(3) 0.59846(19)
H3B H 0.1115 -0.3304 0.6063
C4B C -0.2578(3) -0.2619(3) 0.55497(15)
H4B H -0.3519 -0.2116 0.5282
C5B C -0.4232(3) -0.4613(3) 0.62849(15)
H5B H -0.5180 -0.4257 0.5883
N5B N -0.5980(4) -0.3243(3) 0.72787(18)
N6B N -0.4985(3) -0.4180(2) 0.85874(13)
N6C N -0.0015(3) 0.0820(2) 0.64126(13)
N6A N 0.0015(3) -0.0820(2) 0.35874(13)
C6B C -0.4053(3) -0.6320(3) 0.61174(16)
O4B O -0.2645(2) 0.0701(2) 0.47785(12)
H8B H -0.2910 0.1457 0.5082
H9B H -0.3320 0.0506 0.4331
O3 O 0.0030(3) 0.4881(2) 0.84323(17)
H6 H -0.0019 0.5807 0.8357
H7 H 0.0305 0.4355 0.7995
loop_
_geom_bond_atom_site_label_1
_geom_bond_atom_site_label_2
_geom_bond_site_symmetry_1
_geom_bond_site_symmetry_2
Mn1 N1 1_555 1_555
O1 C6 1_555 1_555
O2 C6 1_555 1_555
N1 C3 1_555 1_555
N2 N3 1_555 1_555
N3 C3 1_555 1_555
N4 C1 1_555 1_555
C1 H1 1_555 1_555
C2 H2 1_555 1_555
C3 H3 1_555 1_555
C4 N1 1_555 1_555
H4 C4 1_555 1_555
C5 N2 1_555 1_555
H5 C5 1_555 1_555
N5 N4 1_555 1_555
N6 C1 1_555 1_555
C6 C5 1_555 1_555
O3 H6 1_555 1_555
H7 O3 1_555 1_555
O4 Mn1 1_555 1_555
H8 O4 1_555 1_555
H9 O4 1_555 1_555
Mn1C N6 1_555 1_555
Mn1C_2 N6B 1_555 1_555
O1B C6B 1_555 1_555
O2B C6B 1_555 1_555
N1B Mn1 1_555 1_555
N2B N3B 1_555 1_555
N3B C3B 1_555 1_555
N4B C1B 1_555 1_555
C1B H1B 1_555 1_555
C2B H2B 1_555 1_555
C3B N1B 1_555 1_555
H3B C3B 1_555 1_555
C4B N1B 1_555 1_555
H4B C4B 1_555 1_555
C5B N2B 1_555 1_555
H5B C5B 1_555 1_555
N5B N4B 1_555 1_555
N6B C1B 1_555 1_555
N6C Mn1 1_555 1_555
N6A Mn1 1_555 1_555
C6B C5B 1_555 1_555
O4B Mn1 1_555 1_555
H8B O4B 1_555 1_555
H9B O4B 1_555 1_555
N2 C4 1_555 1_555
N4 C5 1_555 1_555
C2 N5 1_555 1_555
C2 N6 1_555 1_555
N2B C4B 1_555 1_555
N4B C5B 1_555 1_555
C2B N5B 1_555 1_555
C2B N6B 1_555 1_555

#END
