
#######################################################################
#
#                 Cambridge Crystallographic Data Centre
#                                CCDC 
#
#######################################################################
#
# If this CIF has been generated from an entry in the Cambridge 
# Structural Database, then it will include bibliographic, chemical, 
# crystal, experimental, refinement or atomic coordinate data resulting 
# from the CCDC's data processing and validation procedures.
#
#######################################################################

data_QEYWOH
_symmetry_cell_setting           monoclinic
_symmetry_space_group_name_H-M   'C 2/c'
_symmetry_Int_Tables_number      15
_space_group_name_Hall           '-C 2yn'
loop_
_symmetry_equiv_pos_site_id
_symmetry_equiv_pos_as_xyz
1 x,y,z
2 1/2+x,1/2+y,z
3 -x,y,1/2-z
4 1/2-x,1/2+y,1/2-z
5 -x,-y,-z
6 1/2-x,1/2-y,-z
7 x,-y,1/2+z
8 1/2+x,1/2-y,1/2+z
_cell_length_a                   10.1274(13)
_cell_length_b                   13.0369(16)
_cell_length_c                   13.304(2)
_cell_angle_alpha                90
_cell_angle_beta                 105.085(2)
_cell_angle_gamma                90
_cell_volume                     1696
loop_
_atom_site_label
_atom_site_type_symbol
_atom_site_fract_x
_atom_site_fract_y
_atom_site_fract_z
Cu1 Cu 0.0000 0.0000 0.5000
O1 O -0.20242(19) -0.04011(15) 0.55818(14)
O2 O -0.3766(2) -0.12583(16) 0.45512(13)
N1 N -0.44036(18) -0.21036(14) 0.62093(14)
N2 N -0.49458(19) -0.36753(14) 0.57965(14)
N3 N -0.5730(2) -0.21780(16) 0.62389(17)
N4 N -0.25858(18) -0.11591(14) 0.73154(14)
N5 N -0.1738(2) -0.19788(16) 0.75452(16)
N6 N -0.11045(19) -0.07441(14) 0.87381(14)
C1 C -0.3963(2) -0.29929(17) 0.59442(17)
H1 H -0.3087 -0.3116 0.5873
C2 C -0.6008(3) -0.31399(19) 0.5991(2)
H2 H -0.6858 -0.3433 0.5951
C3 C -0.3675(2) -0.11348(16) 0.63512(16)
H3 H -0.4318 -0.0588 0.6403
C4 C -0.3086(2) -0.09060(17) 0.53901(18)
C5 C -0.2205(2) -0.04406(18) 0.80288(17)
H4 H -0.2646 0.0185 0.8032
C6 C -0.0877(3) -0.16926(19) 0.8417(2)
H5 H -0.0168 -0.2109 0.8783
Cu1A Cu -0.5000 -0.5000 0.5000
Cu1F Cu 0.0000 0.0000 1.0000
Cu1A_2 Cu 0.5000 0.5000 0.5000
Cu1F_2 Cu 0.0000 0.0000 0.0000
O1D O 0.20242(19) 0.04011(15) 0.44182(14)
O2D O 0.3766(2) 0.12583(16) 0.54488(13)
N1D N 0.44036(18) 0.21036(14) 0.37907(14)
N2D N 0.49458(19) 0.36753(14) 0.42035(14)
N2A N 0.00542(19) 0.13247(14) 0.57965(14)
N2E N -0.00542(19) -0.13247(14) 0.42035(14)
N3D N 0.5730(2) 0.21780(16) 0.37611(17)
N4D N 0.25858(18) 0.11591(14) 0.26846(14)
N5D N 0.1738(2) 0.19788(16) 0.24548(16)
N6D N 0.11045(19) 0.07441(14) 0.12619(14)
N6F N -0.11045(19) 0.07441(14) 0.37381(14)
N6B N 0.11045(19) -0.07441(14) 0.62619(14)
C1D C 0.3963(2) 0.29929(17) 0.40558(17)
H1D H 0.3087 0.3116 0.4127
C2D C 0.6008(3) 0.31399(19) 0.4009(2)
H2D H 0.6858 0.3433 0.4049
C3D C 0.3675(2) 0.11348(16) 0.36488(16)
H3D H 0.4318 0.0588 0.3597
C4D C 0.3086(2) 0.09060(17) 0.46099(18)
C5D C 0.2205(2) 0.04406(18) 0.19712(17)
H4D H 0.2646 -0.0185 0.1968
C6D C 0.0877(3) 0.16926(19) 0.1583(2)
H5D H 0.0168 0.2109 0.1217
O3 O 0.0000 0.4281(2) 0.2500
loop_
_geom_bond_atom_site_label_1
_geom_bond_atom_site_label_2
_geom_bond_site_symmetry_1
_geom_bond_site_symmetry_2
Cu1 O1 1_555 1_555
O1 C4 1_555 1_555
O2 C4 1_555 1_555
N1 N3 1_555 1_555
N2 C1 1_555 1_555
N3 C2 1_555 1_555
N4 N5 1_555 1_555
N5 C6 1_555 1_555
N6 C5 1_555 1_555
C1 N1 1_555 1_555
H1 C1 1_555 1_555
C2 N2 1_555 1_555
H2 C2 1_555 1_555
C3 N1 1_555 1_555
H3 C3 1_555 1_555
C4 C3 1_555 1_555
C5 N4 1_555 1_555
H4 C5 1_555 1_555
C6 N6 1_555 1_555
H5 C6 1_555 1_555
Cu1A N2 1_555 1_555
Cu1F N6 1_555 1_555
Cu1A_2 N2D 1_555 1_555
Cu1F_2 N6D 1_555 1_555
O1D Cu1 1_555 1_555
O2D C4D 1_555 1_555
N1D N3D 1_555 1_555
N2D C1D 1_555 1_555
N2A Cu1 1_555 1_555
N2E Cu1 1_555 1_555
N3D C2D 1_555 1_555
N4D N5D 1_555 1_555
N5D C6D 1_555 1_555
N6D C5D 1_555 1_555
N6F Cu1 1_555 1_555
N6B Cu1 1_555 1_555
C1D N1D 1_555 1_555
H1D C1D 1_555 1_555
C2D N2D 1_555 1_555
H2D C2D 1_555 1_555
C3D N1D 1_555 1_555
H3D C3D 1_555 1_555
C4D O1D 1_555 1_555
C5D N4D 1_555 1_555
H4D C5D 1_555 1_555
C6D N6D 1_555 1_555
H5D C6D 1_555 1_555
N4 C3 1_555 1_555
N4D C3D 1_555 1_555
C3D C4D 1_555 1_555

#END
