
#######################################################################
#
#                 Cambridge Crystallographic Data Centre
#                                CCDC 
#
#######################################################################
#
# If this CIF has been generated from an entry in the Cambridge 
# Structural Database, then it will include bibliographic, chemical, 
# crystal, experimental, refinement or atomic coordinate data resulting 
# from the CCDC's data processing and validation procedures.
#
#######################################################################

data_QEYXAU
_symmetry_cell_setting           monoclinic
_symmetry_space_group_name_H-M   'P 21/c'
_symmetry_Int_Tables_number      14
_space_group_name_Hall           '-P 2ybc'
loop_
_symmetry_equiv_pos_site_id
_symmetry_equiv_pos_as_xyz
1 x,y,z
2 -x,1/2+y,1/2-z
3 -x,-y,-z
4 x,1/2-y,1/2+z
_cell_length_a                   6.6119(13)
_cell_length_b                   10.960(2)
_cell_length_c                   16.952(3)
_cell_angle_alpha                90
_cell_angle_beta                 100.340(2)
_cell_angle_gamma                90
_cell_volume                     1208.5
loop_
_atom_site_label
_atom_site_type_symbol
_atom_site_fract_x
_atom_site_fract_y
_atom_site_fract_z
Ag1 Ag 0.10429(4) 0.99342(3) 0.37876(2)
O1 O -0.1689(5) 0.6769(3) 0.50571(17)
O2 O 0.0310(5) 0.7887(3) 0.44319(18)
N1 N 0.0534(5) 0.6221(3) 0.76229(19)
N2 N -0.0381(5) 0.7796(3) 0.6788(2)
N3 N 0.0938(4) 0.7039(2) 0.64969(19)
N4 N 0.2905(4) 0.8381(3) 0.58302(18)
N5 N 0.2129(4) 0.9521(3) 0.5874(2)
N6 N 0.5517(5) 0.9591(3) 0.5950(2)
C1 C 0.1465(6) 0.6118(3) 0.7000(2)
H1 H 0.2360 0.5491 0.6925
C2 C -0.0555(6) 0.7269(3) 0.7465(2)
H2 H -0.1363 0.7588 0.7811
C3 C 0.1647(5) 0.7288(3) 0.5753(2)
H3 H 0.2544 0.6608 0.5665
C4 C -0.0094(6) 0.7344(4) 0.5011(2)
C5 C 0.4937(6) 0.8461(4) 0.5872(2)
H4 H 0.5809 0.7801 0.5848
C6 C 0.3768(6) 1.0213(3) 0.5944(3)
H5 H 0.3722 1.1058 0.5985
Ag1C Ag 0.10429(4) 0.50658(3) 0.87876(2)
Ag1B Ag -0.10429(4) 1.00658(3) 0.62124(2)
Ag1B_2 Ag 0.89571(4) 1.00658(3) 0.62124(2)
N1C N 0.0534(5) 0.8779(3) 0.26229(19)
N5B N -0.2129(4) 1.0479(3) 0.4126(2)
N6B N 0.4483(5) 1.0409(3) 0.4050(2)
C7 C 0.4274(7) 0.8622(5) 0.8421(4)
H6 H 0.3712 0.8617 0.7852
H7 H 0.3943 0.7838 0.8631
C8 C 0.3253(10) 0.9455(6) 0.8751(7)
H8 H 0.1960 0.9569 0.8386
H9 H 0.2917 0.9085 0.9231
O3 O 0.3939(7) 1.0550(4) 0.8960(3)
H10 H 0.3161 1.0883 0.9219
O4 O 0.6424(5) 0.8672(3) 0.8497(2)
H11 H 0.6959 0.8426 0.8943
loop_
_geom_bond_atom_site_label_1
_geom_bond_atom_site_label_2
_geom_bond_site_symmetry_1
_geom_bond_site_symmetry_2
Ag1 O2 1_555 1_555
O1 C4 1_555 1_555
O2 C4 1_555 1_555
N1 C1 1_555 1_555
N2 N3 1_555 1_555
N3 C1 1_555 1_555
N4 N5 1_555 1_555
N5 C6 1_555 1_555
N6 C5 1_555 1_555
C1 H1 1_555 1_555
C2 N1 1_555 1_555
H2 C2 1_555 1_555
C3 N3 1_555 1_555
H3 C3 1_555 1_555
C4 C3 1_555 1_555
C5 N4 1_555 1_555
H4 C5 1_555 1_555
C6 N6 1_555 1_555
H5 C6 1_555 1_555
C7 H6 1_555 1_555
H7 C7 1_555 1_555
C8 C7 1_555 1_555
H8 C8 1_555 1_555
H9 C8 1_555 1_555
O3 C8 1_555 1_555
H10 O3 1_555 1_555
O4 C7 1_555 1_555
H11 O4 1_555 1_555
Ag1C N1 1_555 1_555
Ag1B N5 1_555 1_555
Ag1B_2 N6 1_555 1_555
N1C Ag1 1_555 1_555
N5B Ag1 1_555 1_555
N6B Ag1 1_555 1_555
N2 C2 1_555 1_555
N4 C3 1_555 1_555

#END
