
#######################################################################
#
#                 Cambridge Crystallographic Data Centre
#                                CCDC 
#
#######################################################################
#
# If this CIF has been generated from an entry in the Cambridge 
# Structural Database, then it will include bibliographic, chemical, 
# crystal, experimental, refinement or atomic coordinate data resulting 
# from the CCDC's data processing and validation procedures.
#
#######################################################################

data_QEYXEY
_symmetry_cell_setting           monoclinic
_symmetry_space_group_name_H-M   'P 21/c'
_symmetry_Int_Tables_number      14
_space_group_name_Hall           '-P 2ybc'
loop_
_symmetry_equiv_pos_site_id
_symmetry_equiv_pos_as_xyz
1 x,y,z
2 -x,1/2+y,1/2-z
3 -x,-y,-z
4 x,1/2-y,1/2+z
_cell_length_a                   6.6194(4)
_cell_length_b                   9.9578(6)
_cell_length_c                   16.5323(10)
_cell_angle_alpha                90
_cell_angle_beta                 99.1370(10)
_cell_angle_gamma                90
_cell_volume                     1075.89
loop_
_atom_site_label
_atom_site_type_symbol
_atom_site_fract_x
_atom_site_fract_y
_atom_site_fract_z
Ag1 Ag 0.62533(4) 0.98358(3) 0.890084(16)
O1 O 0.5227(4) 0.7784(3) 1.06540(14)
O2 O 0.7005(3) 0.6246(2) 1.00775(14)
N1 N 0.2986(4) 0.9218(3) 0.91549(17)
N2 N 0.2312(4) 0.7962(3) 0.93000(15)
N3 N -0.0402(4) 0.9228(3) 0.91340(17)
N4 N 0.4360(4) 0.6536(3) 0.86157(15)
N5 N 0.5796(4) 0.7321(3) 0.83407(16)
N6 N 0.4530(5) 0.5815(3) 0.73898(17)
C1 C 0.1301(5) 0.9938(3) 0.9058(2)
H1 H 0.1281 1.0854 0.8946
C2 C 0.0292(5) 0.7997(3) 0.92838(19)
H2 H -0.0512 0.7259 0.9366
C3 C 0.3684(4) 0.6813(3) 0.93931(17)
H3 H 0.2889 0.6035 0.9524
C4 C 0.5503(5) 0.6990(3) 1.01132(18)
C5 C 0.5837(5) 0.6847(3) 0.7606(2)
H4 H 0.6691 0.7190 0.7261
C6 C 0.3625(5) 0.5656(3) 0.8036(2)
H5 H 0.2619 0.5021 0.8082
Ag1_2 Ag -0.37467(4) 0.98358(3) 0.890084(16)
Ag1A Ag 0.37467(4) 0.48358(3) 0.609916(16)
N3_2 N 0.9598(4) 0.9228(3) 0.91340(17)
N6A N 0.5470(5) 1.0815(3) 0.76102(17)
O3 O 1.0565(5) 0.3275(4) 0.8419(2)
H6 H 1.1232 0.3337 0.8880
C7 C 0.8615(9) 0.3781(6) 0.8423(4)
H7 H 0.7813 0.3133 0.8662
H8 H 0.7980 0.3966 0.7871
H9 H 0.8702 0.4595 0.8738
loop_
_geom_bond_atom_site_label_1
_geom_bond_atom_site_label_2
_geom_bond_site_symmetry_1
_geom_bond_site_symmetry_2
Ag1 N1 1_555 1_555
O1 C4 1_555 1_555
O2 C4 1_555 1_555
N1 N2 1_555 1_555
N2 C2 1_555 1_555
N3 C1 1_555 1_555
N4 N5 1_555 1_555
N5 C5 1_555 1_555
N6 C5 1_555 1_555
C1 N1 1_555 1_555
H1 C1 1_555 1_555
C2 N3 1_555 1_555
H2 C2 1_555 1_555
C3 N2 1_555 1_555
H3 C3 1_555 1_555
C4 C3 1_555 1_555
C5 H4 1_555 1_555
C6 N4 1_555 1_555
H5 C6 1_555 1_555
O3 H6 1_555 1_555
C7 O3 1_555 1_555
H7 C7 1_555 1_555
H8 C7 1_555 1_555
H9 C7 1_555 1_555
Ag1_2 N3 1_555 1_555
Ag1A N6 1_555 1_555
N3_2 Ag1 1_555 1_555
N6A Ag1 1_555 1_555
N4 C3 1_555 1_555
N6 C6 1_555 1_555

#END
