
#######################################################################
#
#                 Cambridge Crystallographic Data Centre
#                                CCDC 
#
#######################################################################
#
# If this CIF has been generated from an entry in the Cambridge 
# Structural Database, then it will include bibliographic, chemical, 
# crystal, experimental, refinement or atomic coordinate data resulting 
# from the CCDC's data processing and validation procedures.
#
#######################################################################

data_QEYYIE
_symmetry_cell_setting           monoclinic
_symmetry_space_group_name_H-M   'C 2/c'
_symmetry_Int_Tables_number      15
_space_group_name_Hall           '-C 2yn'
loop_
_symmetry_equiv_pos_site_id
_symmetry_equiv_pos_as_xyz
1 x,y,z
2 -x,y,1/2-z
3 1/2+x,1/2+y,z
4 1/2-x,1/2+y,1/2-z
5 -x,-y,-z
6 x,-y,1/2+z
7 1/2-x,1/2-y,-z
8 1/2+x,1/2-y,1/2+z
_cell_length_a                   21.667(6)
_cell_length_b                   6.7668(18)
_cell_length_c                   16.745(4)
_cell_angle_alpha                90
_cell_angle_beta                 127.264(3)
_cell_angle_gamma                90
_cell_volume                     1953.89
loop_
_atom_site_label
_atom_site_type_symbol
_atom_site_fract_x
_atom_site_fract_y
_atom_site_fract_z
C1 C 0.06105(17) 0.2152(4) 0.1893(2)
H1 H 0.0451 0.1020 0.2036
N1 N 0.05399(12) 0.2206(3) 0.10429(15)
C2 C 0.07953(15) 0.3844(4) 0.08812(19)
H2 H 0.0764 0.3908 0.0302
Cu1 Cu 0.0000 1.0000 0.5000
O1 O 0.04012(10) 0.8918(2) 0.43386(13)
C3 C 0.14633(14) 0.7061(4) 0.30802(18)
C4 C 0.11545(15) 0.5388(4) 0.23831(19)
C5 C 0.14216(15) 0.9132(4) 0.42135(18)
C6 C 0.10386(17) 0.9782(4) 0.4669(2)
O2 O 0.13227(14) 1.1078(4) 0.53025(17)
C7 C 0.11206(14) 0.7604(3) 0.35292(17)
H3 H 0.0684 0.6931 0.3367
C8 C 0.10988(16) 0.5422(4) 0.1514(2)
H4 H 0.1269 0.6521 0.1363
C9 C 0.09062(17) 0.3681(4) 0.2560(2)
H5 H 0.0941 0.3571 0.3139
C10 C 0.21040(16) 0.8110(4) 0.3317(2)
H6 H 0.2326 0.7799 0.3001
C11 C 0.24140(19) 0.9604(5) 0.4014(3)
H7 H 0.2849 1.0287 0.4176
C12 C 0.20800(18) 1.0088(4) 0.4472(2)
H8 H 0.2301 1.1070 0.4960
C1D C -0.06105(17) 1.7848(4) 0.8107(2)
H1D H -0.0451 1.8980 0.7964
N1D N -0.05399(12) 1.7794(3) 0.89571(15)
C2D C -0.07953(15) 1.6156(4) 0.91188(19)
H2D H -0.0764 1.6092 0.9698
O1D O -0.04012(10) 1.1082(2) 0.56614(13)
C3D C -0.14633(14) 1.2939(4) 0.69198(18)
C4D C -0.11545(15) 1.4612(4) 0.76169(19)
C5D C -0.14216(15) 1.0868(4) 0.57865(18)
C6D C -0.10386(17) 1.0218(4) 0.5331(2)
O2D O -0.13227(14) 0.8922(4) 0.46975(17)
C7D C -0.11206(14) 1.2396(3) 0.64708(17)
H3D H -0.0684 1.3069 0.6633
C8D C -0.10988(16) 1.4578(4) 0.8486(2)
H4D H -0.1269 1.3479 0.8637
C9D C -0.09062(17) 1.6319(4) 0.7440(2)
H5D H -0.0941 1.6429 0.6861
C10D C -0.21040(16) 1.1890(4) 0.6683(2)
H6D H -0.2326 1.2201 0.6999
C11D C -0.24140(19) 1.0396(5) 0.5986(3)
H7D H -0.2849 0.9713 0.5824
C12D C -0.20800(18) 0.9912(4) 0.5528(2)
H8D H -0.2301 0.8930 0.5040
N1A N -0.05399(12) 1.2206(3) 0.39571(15)
N1E N 0.05399(12) 0.7794(3) 0.60429(15)
Cu1A Cu 0.0000 0.0000 0.0000
Cu1A_2 Cu 0.0000 2.0000 1.0000
loop_
_geom_bond_atom_site_label_1
_geom_bond_atom_site_label_2
_geom_bond_site_symmetry_1
_geom_bond_site_symmetry_2
C1 H1 1_555 1_555
N1 C1 1_555 1_555
C2 N1 1_555 1_555
H2 C2 1_555 1_555
Cu1 O1 1_555 1_555
O1 C6 1_555 1_555
C3 C4 1_555 1_555
C4 C8 1_555 1_555
C5 C6 1_555 1_555
C6 O2 1_555 1_555
O2 Cu1 1_555 1_555
C7 C3 1_555 1_555
H3 C7 1_555 1_555
C8 C2 1_555 1_555
H4 C8 1_555 1_555
C9 C1 1_555 1_555
H5 C9 1_555 1_555
C10 C3 1_555 1_555
H6 C10 1_555 1_555
C11 C10 1_555 1_555
H7 C11 1_555 1_555
C12 C5 1_555 1_555
H8 C12 1_555 1_555
C1D H1D 1_555 1_555
N1D C1D 1_555 1_555
C2D N1D 1_555 1_555
H2D C2D 1_555 1_555
O1D Cu1 1_555 1_555
C3D C4D 1_555 1_555
C4D C8D 1_555 1_555
C5D C6D 1_555 1_555
C6D O1D 1_555 1_555
O2D Cu1 1_555 1_555
C7D C3D 1_555 1_555
H3D C7D 1_555 1_555
C8D C2D 1_555 1_555
H4D C8D 1_555 1_555
C9D C1D 1_555 1_555
H5D C9D 1_555 1_555
C10D C3D 1_555 1_555
H6D C10D 1_555 1_555
C11D C10D 1_555 1_555
H7D C11D 1_555 1_555
C12D C5D 1_555 1_555
H8D C12D 1_555 1_555
N1A Cu1 1_555 1_555
N1E Cu1 1_555 1_555
Cu1A N1 1_555 1_555
Cu1A_2 N1D 1_555 1_555
C4 C9 1_555 1_555
C5 C7 1_555 1_555
C11 C12 1_555 1_555
C4D C9D 1_555 1_555
C5D C7D 1_555 1_555
C6D O2D 1_555 1_555
C11D C12D 1_555 1_555

#END
