
#######################################################################
#
#                 Cambridge Crystallographic Data Centre
#                                CCDC 
#
#######################################################################
#
# If this CIF has been generated from an entry in the Cambridge 
# Structural Database, then it will include bibliographic, chemical, 
# crystal, experimental, refinement or atomic coordinate data resulting 
# from the CCDC's data processing and validation procedures.
#
#######################################################################

data_QEYYEA
_symmetry_cell_setting           triclinic
_symmetry_space_group_name_H-M   'P -1'
_symmetry_Int_Tables_number      2
_space_group_name_Hall           '-P 1'
loop_
_symmetry_equiv_pos_site_id
_symmetry_equiv_pos_as_xyz
1 x,y,z
2 -x,-y,-z
_cell_length_a                   7.666(2)
_cell_length_b                   8.319(2)
_cell_length_c                   13.395(3)
_cell_angle_alpha                90.023(2)
_cell_angle_beta                 99.742(2)
_cell_angle_gamma                99.856(2)
_cell_volume                     829.122
loop_
_atom_site_label
_atom_site_type_symbol
_atom_site_fract_x
_atom_site_fract_y
_atom_site_fract_z
Cu1 Cu 0.0000 0.5000 0.0000
N1 N 0.0880(4) 0.6893(3) 0.1006(2)
N2 N 0.3050(3) 0.4848(4) 0.2283(2)
H1 H 0.3371 0.5050 0.1673
H2 H 0.2036 0.4098 0.2182
O1 O 0.0030(3) 0.6453(3) -0.10987(17)
O2 O 0.0193(3) 0.7681(3) -0.28754(18)
C1 C 0.1770(5) 0.8867(4) -0.0235(3)
C2 C 0.0953(4) 0.7936(4) -0.1106(2)
C3 C 0.1086(4) 0.8659(4) -0.2055(2)
C4 C 0.2077(5) 1.0180(5) -0.2111(3)
H3 H 0.2185 1.0620 -0.2740
C5 C 0.2922(6) 1.1072(5) -0.1233(3)
H4 H 0.3609 1.2097 -0.1275
C6 C 0.2746(6) 1.0448(5) -0.0319(3)
H5 H 0.3276 1.1069 0.0266
C7 C 0.1574(5) 0.8313(5) 0.0757(3)
H6 H 0.2004 0.9079 0.1286
C8 C 0.0854(5) 0.6713(5) 0.2103(3)
H7 H -0.0100 0.5827 0.2197
H8 H 0.0594 0.7707 0.2379
C9 C 0.2620(5) 0.6370(5) 0.2677(3)
H9 H 0.3571 0.7275 0.2609
H10 H 0.2548 0.6268 0.3391
C10 C 0.4487(5) 0.4104(5) 0.2915(3)
H11 H 0.4160 0.3890 0.3585
C11 C 0.6253(7) 0.5260(9) 0.3044(6)
H12 H 0.6569 0.5507 0.2391
H13 H 0.7168 0.4762 0.3443
H14 H 0.6147 0.6249 0.3381
C12 C 0.4553(8) 0.2497(7) 0.2409(4)
H15 H 0.3382 0.1827 0.2314
H16 H 0.5397 0.1948 0.2829
H17 H 0.4920 0.2694 0.1763
C13 C 0.0243(6) 0.8349(5) -0.3856(3)
H18 H 0.1480 0.8705 -0.3943
H19 H -0.0362 0.9286 -0.3925
C14 C -0.0658(8) 0.7085(7) -0.4630(3)
H20 H -0.0098 0.6136 -0.4531
H21 H -0.0561 0.7495 -0.5291
H22 H -0.1903 0.6798 -0.4571
N3 N 0.3717(5) 0.5189(6) 0.0280(3)
N4 N 0.5000 0.5000 0.0000
N3A N 0.6283(5) 0.4811(6) -0.0280(3)
N1A N -0.0880(4) 0.3107(3) -0.1006(2)
N2A N -0.3050(3) 0.5152(4) -0.2283(2)
H1A H -0.3371 0.4950 -0.1673
H2A H -0.2036 0.5902 -0.2182
O1A O -0.0030(3) 0.3547(3) 0.10987(17)
O2A O -0.0193(3) 0.2319(3) 0.28754(18)
C1A C -0.1770(5) 0.1133(4) 0.0235(3)
C2A C -0.0953(4) 0.2064(4) 0.1106(2)
C3A C -0.1086(4) 0.1341(4) 0.2055(2)
C4A C -0.2077(5) -0.0180(5) 0.2111(3)
H3A H -0.2185 -0.0620 0.2740
C5A C -0.2922(6) -0.1072(5) 0.1233(3)
H4A H -0.3609 -0.2097 0.1275
C6A C -0.2746(6) -0.0448(5) 0.0319(3)
H5A H -0.3276 -0.1069 -0.0266
C7A C -0.1574(5) 0.1687(5) -0.0757(3)
H6A H -0.2004 0.0921 -0.1286
C8A C -0.0854(5) 0.3287(5) -0.2103(3)
H7A H 0.0100 0.4173 -0.2197
H8A H -0.0594 0.2293 -0.2379
C9A C -0.2620(5) 0.3630(5) -0.2677(3)
H9A H -0.3571 0.2725 -0.2609
H10A H -0.2548 0.3732 -0.3391
C10A C -0.4487(5) 0.5896(5) -0.2915(3)
H11A H -0.4160 0.6110 -0.3585
C11A C -0.6253(7) 0.4740(9) -0.3044(6)
H12A H -0.6569 0.4493 -0.2391
H13A H -0.7168 0.5238 -0.3443
H14A H -0.6147 0.3751 -0.3381
C12A C -0.4553(8) 0.7503(7) -0.2409(4)
H15A H -0.3382 0.8173 -0.2314
H16A H -0.5397 0.8052 -0.2829
H17A H -0.4920 0.7306 -0.1763
C13A C -0.0243(6) 0.1651(5) 0.3856(3)
H18A H -0.1480 0.1295 0.3943
H19A H 0.0362 0.0714 0.3925
C14A C 0.0658(8) 0.2915(7) 0.4630(3)
H20A H 0.0098 0.3864 0.4531
H21A H 0.0561 0.2505 0.5291
H22A H 0.1903 0.3202 0.4571
Cu1_2 Cu 1.0000 0.5000 0.0000
N3A_2 N -0.3717(5) 0.4811(6) -0.0280(3)
O3 O 0.5674(19) 0.1738(19) 0.4832(9)
O4 O 0.4209(14) 0.0584(11) 0.5727(9)
Cl1 Cl 0.5000 0.0000 0.5000
O3A O 0.4326(19) -0.1738(19) 0.5168(9)
O4A O 0.5791(14) -0.0584(11) 0.4273(9)
O5? O 0.6587(18) 0.0127(16) 0.5783(12)
loop_
_geom_bond_atom_site_label_1
_geom_bond_atom_site_label_2
_geom_bond_site_symmetry_1
_geom_bond_site_symmetry_2
Cu1 N1 1_555 1_555
N1 C7 1_555 1_555
N2 H1 1_555 1_555
H2 N2 1_555 1_555
O1 Cu1 1_555 1_555
O2 C3 1_555 1_555
C1 C2 1_555 1_555
C2 O1 1_555 1_555
C3 C2 1_555 1_555
C4 C3 1_555 1_555
H3 C4 1_555 1_555
C5 C4 1_555 1_555
H4 C5 1_555 1_555
C6 C1 1_555 1_555
H5 C6 1_555 1_555
C7 C1 1_555 1_555
H6 C7 1_555 1_555
C8 N1 1_555 1_555
H7 C8 1_555 1_555
H8 C8 1_555 1_555
C9 N2 1_555 1_555
H9 C9 1_555 1_555
H10 C9 1_555 1_555
C10 N2 1_555 1_555
H11 C10 1_555 1_555
C11 C10 1_555 1_555
H12 C11 1_555 1_555
H13 C11 1_555 1_555
H14 C11 1_555 1_555
C12 C10 1_555 1_555
H15 C12 1_555 1_555
H16 C12 1_555 1_555
H17 C12 1_555 1_555
C13 O2 1_555 1_555
H18 C13 1_555 1_555
H19 C13 1_555 1_555
C14 C13 1_555 1_555
H20 C14 1_555 1_555
H21 C14 1_555 1_555
H22 C14 1_555 1_555
N3 Cu1 1_555 1_555
N4 N3 1_555 1_555
O3 Cl1 1_555 1_555
O4 Cl1 1_555 1_555
Cl1 O3A 1_555 1_555
N3A N4 1_555 1_555
N1A Cu1 1_555 1_555
N2A H1A 1_555 1_555
H2A N2A 1_555 1_555
O1A Cu1 1_555 1_555
O2A C3A 1_555 1_555
C1A C2A 1_555 1_555
C2A O1A 1_555 1_555
C3A C2A 1_555 1_555
C4A C3A 1_555 1_555
H3A C4A 1_555 1_555
C5A C4A 1_555 1_555
H4A C5A 1_555 1_555
C6A C1A 1_555 1_555
H5A C6A 1_555 1_555
C7A N1A 1_555 1_555
H6A C7A 1_555 1_555
C8A N1A 1_555 1_555
H7A C8A 1_555 1_555
H8A C8A 1_555 1_555
C9A N2A 1_555 1_555
H9A C9A 1_555 1_555
H10A C9A 1_555 1_555
C10A N2A 1_555 1_555
H11A C10A 1_555 1_555
C11A C10A 1_555 1_555
H12A C11A 1_555 1_555
H13A C11A 1_555 1_555
H14A C11A 1_555 1_555
C12A C10A 1_555 1_555
H15A C12A 1_555 1_555
H16A C12A 1_555 1_555
H17A C12A 1_555 1_555
C13A O2A 1_555 1_555
H18A C13A 1_555 1_555
H19A C13A 1_555 1_555
C14A C13A 1_555 1_555
H20A C14A 1_555 1_555
H21A C14A 1_555 1_555
H22A C14A 1_555 1_555
Cu1_2 N3A 1_555 1_555
N3A_2 Cu1 1_555 1_555
O4A Cl1 1_555 1_555
C5 C6 1_555 1_555
C8 C9 1_555 1_555
C1A C7A 1_555 1_555
C5A C6A 1_555 1_555
C8A C9A 1_555 1_555

#END
