
#######################################################################
#
#                 Cambridge Crystallographic Data Centre
#                                CCDC 
#
#######################################################################
#
# If this CIF has been generated from an entry in the Cambridge 
# Structural Database, then it will include bibliographic, chemical, 
# crystal, experimental, refinement or atomic coordinate data resulting 
# from the CCDC's data processing and validation procedures.
#
#######################################################################

data_QEYZOK
_symmetry_cell_setting           monoclinic
_symmetry_space_group_name_H-M   'C c'
_symmetry_Int_Tables_number      9
_space_group_name_Hall           'C -2yc'
loop_
_symmetry_equiv_pos_site_id
_symmetry_equiv_pos_as_xyz
1 x,y,z
2 x,-y,1/2+z
3 1/2+x,1/2+y,z
4 1/2+x,1/2-y,1/2+z
_cell_length_a                   9.885(2)
_cell_length_b                   45.200(9)
_cell_length_c                   7.484(2)
_cell_angle_alpha                90
_cell_angle_beta                 111.043(10)
_cell_angle_gamma                90
_cell_volume                     3120.87
loop_
_atom_site_label
_atom_site_type_symbol
_atom_site_fract_x
_atom_site_fract_y
_atom_site_fract_z
Co1 Co 0.13713(7) 0.500393(11) 0.41257(7)
O1 O -0.0814(4) 0.51216(8) 0.2848(4)
H1 H -0.116(6) 0.5184(12) 0.167(4)
H2 H -0.142(5) 0.5031(11) 0.328(9)
O2 O 0.3563(4) 0.49005(8) 0.5482(4)
H3 H 0.406(6) 0.5037(9) 0.522(8)
H4 H 0.402(6) 0.4842(12) 0.665(4)
C1 C -0.0072(5) 0.56420(9) 0.5840(7)
H5 H -0.0883 0.5520 0.5393
C2 C -0.0229(5) 0.59456(9) 0.5741(7)
H6 H -0.1153 0.6027 0.5225
C3 C 0.0966(5) 0.61312(8) 0.6396(6)
C4 C 0.2324(5) 0.59983(9) 0.7168(7)
H7 H 0.3150 0.6116 0.7639
C5 C 0.2458(6) 0.56916(9) 0.7241(7)
H8 H 0.3368 0.5604 0.7736
C6 C -0.0654(6) 0.68855(9) 0.4780(6)
H9 H -0.1459 0.6966 0.3829
C7 C -0.0425(5) 0.65838(9) 0.4868(6)
H10 H -0.1084 0.6462 0.3967
C8 C 0.0775(6) 0.64567(8) 0.6281(7)
C9 C 0.1735(5) 0.66502(9) 0.7550(6)
H11 H 0.2563 0.6576 0.8496
C10 C 0.1479(6) 0.69511(9) 0.7429(7)
H12 H 0.2136 0.7077 0.8293
C11 C 0.1212(5) 0.44896(7) 0.6543(6)
C12 C 0.1049(4) 0.41590(7) 0.6501(5)
C13 C -0.0229(5) 0.40244(9) 0.5399(6)
H13 H -0.1025 0.4138 0.4686
C14 C -0.0317(5) 0.37169(9) 0.5364(6)
H14 H -0.1181 0.3625 0.4634
C15 C 0.0862(5) 0.35467(7) 0.6399(6)
C16 C 0.2143(5) 0.36858(9) 0.7499(7)
H15 H 0.2949 0.3573 0.8184
C17 C 0.2226(5) 0.39940(9) 0.7580(7)
H16 H 0.3071 0.4087 0.8359
C18 C 0.0809(6) 0.32140(8) 0.6339(7)
N1 N 0.1253(5) 0.55240(6) 0.6584(5)
N2 N 0.0295(4) 0.70637(7) 0.6080(5)
O3 O 0.1399(4) 0.52258(5) 0.6647(4)
O4 O 0.0020(4) 0.73550(6) 0.6005(5)
O5 O 0.0638(4) 0.46236(6) 0.4996(4)
O6 O 0.1934(3) 0.46072(6) 0.8123(4)
O7 O -0.0308(4) 0.30923(6) 0.5178(5)
O8 O 0.1865(4) 0.30698(7) 0.7458(5)
Co1A Co 0.13713(7) 0.499607(11) 0.91257(7)
O3A O 0.1399(4) 0.47742(5) 0.1647(4)
O6A O 0.1934(3) 0.53928(6) 0.3123(4)
C19 C 0.5669(5) 0.55243(9) 0.5123(6)
C20 C 0.5840(4) 0.57795(9) 0.3897(6)
C21 C 0.5925(5) 0.60688(9) 0.4572(6)
H17 H 0.5975 0.6103 0.5820
C22 C 0.5937(5) 0.63045(9) 0.3411(6)
H18 H 0.5968 0.6497 0.3868
C23 C 0.5902(5) 0.62565(8) 0.1552(6)
C24 C 0.5889(5) 0.59661(9) 0.0898(6)
H19 H 0.5904 0.5931 -0.0319
C25 C 0.5856(5) 0.57305(9) 0.2068(6)
H20 H 0.5844 0.5538 0.1627
C26 C 0.5841(5) 0.65142(9) 0.0258(6)
O9 O 0.5868(5) 0.55816(8) 0.6832(5)
O10 O 0.5321(4) 0.52732(6) 0.4338(4)
O11 O 0.6059(5) 0.67690(7) 0.0976(5)
O12 O 0.5575(4) 0.64615(7) -0.1501(4)
Co2 Co 0.57609(6) 0.720471(11) 0.61968(7)
O13 O 0.4144(4) 0.68904(8) 0.5802(5)
H21 H 0.339(5) 0.6858(14) 0.479(6)
H22 H 0.446(7) 0.6753(11) 0.668(7)
O14 O 0.7318(4) 0.75296(7) 0.6320(6)
H23 H 0.817(3) 0.7478(13) 0.634(8)
H24 H 0.727(7) 0.7699(8) 0.683(8)
O15 O 0.6149(4) 0.72620(7) 0.9089(5)
H25 H 0.580(7) 0.7162(12) 0.981(8)
H26 H 0.562(6) 0.7405(10) 0.921(8)
O16 O 0.4255(4) 0.75395(7) 0.5627(5)
H27 H 0.334(2) 0.7548(12) 0.523(9)
H28 H 0.457(5) 0.7714(6) 0.574(9)
O17 O 0.5571(5) 0.71641(8) 0.3378(5)
H29 H 0.557(7) 0.7307(10) 0.264(8)
H30 H 0.562(7) 0.7005(9) 0.279(8)
O18 O 0.7209(4) 0.68402(7) 0.7099(4)
H31 H 0.797(4) 0.6884(12) 0.813(5)
H32 H 0.660(5) 0.6727(10) 0.737(8)
O19 O 0.7278(4) 0.48577(8) 0.4193(5)
H33 H 0.665(6) 0.4997(11) 0.403(11)
H34 H 0.680(6) 0.4726(11) 0.339(7)
loop_
_geom_bond_atom_site_label_1
_geom_bond_atom_site_label_2
_geom_bond_site_symmetry_1
_geom_bond_site_symmetry_2
Co1 O1 1_555 1_555
O1 H1 1_555 1_555
H2 O1 1_555 1_555
O2 Co1 1_555 1_555
H3 O2 1_555 1_555
H4 O2 1_555 1_555
C1 H5 1_555 1_555
C2 C1 1_555 1_555
H6 C2 1_555 1_555
C3 C2 1_555 1_555
C4 C3 1_555 1_555
H7 C4 1_555 1_555
C5 C4 1_555 1_555
H8 C5 1_555 1_555
C6 H9 1_555 1_555
C7 C6 1_555 1_555
H10 C7 1_555 1_555
C8 C3 1_555 1_555
C9 C8 1_555 1_555
H11 C9 1_555 1_555
C10 C9 1_555 1_555
H12 C10 1_555 1_555
C11 C12 1_555 1_555
C12 C13 1_555 1_555
C13 H13 1_555 1_555
C14 C13 1_555 1_555
H14 C14 1_555 1_555
C15 C14 1_555 1_555
C16 C15 1_555 1_555
H15 C16 1_555 1_555
C17 C12 1_555 1_555
H16 C17 1_555 1_555
C18 C15 1_555 1_555
C19 C20 1_555 1_555
C20 C21 1_555 1_555
C21 H17 1_555 1_555
C22 C21 1_555 1_555
H18 C22 1_555 1_555
C23 C22 1_555 1_555
C24 C23 1_555 1_555
H19 C24 1_555 1_555
C25 C20 1_555 1_555
H20 C25 1_555 1_555
C26 C23 1_555 1_555
N1 C1 1_555 1_555
N2 C6 1_555 1_555
O3 Co1 1_555 1_555
O4 N2 1_555 1_555
O5 Co1 1_555 1_555
O6 C11 1_555 1_555
O7 C18 1_555 1_555
O8 C18 1_555 1_555
O9 C19 1_555 1_555
O10 C19 1_555 1_555
O11 C26 1_555 1_555
O12 C26 1_555 1_555
Co2 O13 1_555 1_555
O13 H21 1_555 1_555
H22 O13 1_555 1_555
O14 Co2 1_555 1_555
H23 O14 1_555 1_555
H24 O14 1_555 1_555
O15 Co2 1_555 1_555
H25 O15 1_555 1_555
H26 O15 1_555 1_555
O16 Co2 1_555 1_555
H27 O16 1_555 1_555
H28 O16 1_555 1_555
O17 Co2 1_555 1_555
H29 O17 1_555 1_555
H30 O17 1_555 1_555
O18 Co2 1_555 1_555
H31 O18 1_555 1_555
H32 O18 1_555 1_555
O19 H33 1_555 1_555
H34 O19 1_555 1_555
Co1A O3 1_555 1_555
O3A Co1 1_555 1_555
O6A Co1 1_555 1_555
C5 N1 1_555 1_555
C7 C8 1_555 1_555
C10 N2 1_555 1_555
C11 O5 1_555 1_555
C16 C17 1_555 1_555
C24 C25 1_555 1_555
N1 O3 1_555 1_555
O6 Co1A 1_555 1_555

#END
