
#######################################################################
#
#                 Cambridge Crystallographic Data Centre
#                                CCDC 
#
#######################################################################
#
# If this CIF has been generated from an entry in the Cambridge 
# Structural Database, then it will include bibliographic, chemical, 
# crystal, experimental, refinement or atomic coordinate data resulting 
# from the CCDC's data processing and validation procedures.
#
#######################################################################

data_QEZBAZ
_symmetry_cell_setting           triclinic
_symmetry_space_group_name_H-M   'P -1'
_symmetry_Int_Tables_number      2
_space_group_name_Hall           '-P 1'
loop_
_symmetry_equiv_pos_site_id
_symmetry_equiv_pos_as_xyz
1 x,y,z
2 -x,-y,-z
_cell_length_a                   5.308(2)
_cell_length_b                   7.285(3)
_cell_length_c                   9.814(3)
_cell_angle_alpha                86.53(2)
_cell_angle_beta                 82.54(2)
_cell_angle_gamma                74.31(2)
_cell_volume                     362.134
loop_
_atom_site_label
_atom_site_type_symbol
_atom_site_fract_x
_atom_site_fract_y
_atom_site_fract_z
Co1 Co 0.5000 0.0000 0.5000
O1 O 0.8635(4) -0.1961(4) 0.4484(2)
H1 H 0.873(8) -0.194(7) 0.358(2)
H2 H 1.010(6) -0.210(7) 0.485(4)
O2 O 0.5967(4) 0.0048(3) 0.70074(19)
O3 O 0.2037(5) 0.1439(4) 0.8148(2)
C1 C 0.4434(6) 0.0616(5) 0.8095(3)
C2 C 0.5677(6) 0.0169(5) 0.9404(3)
H3 H 0.7448 0.0126 0.9388
O4 O 0.6659(4) 0.2330(3) 0.4541(2)
N1 N 0.6275(5) 0.3185(4) 0.3310(2)
C3 C 0.3937(6) 0.4396(5) 0.3128(3)
H4 H 0.2659 0.4734 0.3878
C4 C 0.3408(6) 0.5141(5) 0.1847(3)
H5 H 0.1776 0.5980 0.1738
C5 C 0.5295(6) 0.4653(4) 0.0703(3)
C6 C 0.7756(6) 0.3498(5) 0.0955(3)
H6 H 0.9107 0.3209 0.0233
C7 C 0.8221(6) 0.2777(5) 0.2258(3)
H7 H 0.9876 0.2010 0.2410
Co1_2 Co 0.5000 0.0000 1.5000
Co1_3 Co 0.5000 1.0000 -0.5000
O1A O 0.1365(4) 0.1961(4) 0.5516(2)
H1A H 0.127(8) 0.194(7) 0.642(2)
H2A H -0.010(6) 0.210(7) 0.515(4)
O2A O 0.4033(4) -0.0048(3) 1.29926(19)
O2A_2 O 0.4033(4) -0.0048(3) 0.29926(19)
O3A O 0.7963(5) -0.1439(4) 1.1852(2)
C1A C 0.5566(6) -0.0616(5) 1.1905(3)
C2A C 0.4323(6) -0.0169(5) 1.0596(3)
H3A H 0.2552 -0.0126 1.0612
O4A O 0.3341(4) 0.7670(3) -0.4541(2)
O4A_2 O 0.3341(4) -0.2330(3) 0.5459(2)
N1A N 0.3725(5) 0.6815(4) -0.3310(2)
C3A C 0.6063(6) 0.5604(5) -0.3128(3)
H4A H 0.7341 0.5266 -0.3878
C4A C 0.6592(6) 0.4859(5) -0.1847(3)
H5A H 0.8224 0.4020 -0.1738
C5A C 0.4705(6) 0.5347(4) -0.0703(3)
C6A C 0.2244(6) 0.6502(5) -0.0955(3)
H6A H 0.0893 0.6791 -0.0233
C7A C 0.1779(6) 0.7223(5) -0.2258(3)
H7A H 0.0124 0.7990 -0.2410
loop_
_geom_bond_atom_site_label_1
_geom_bond_atom_site_label_2
_geom_bond_site_symmetry_1
_geom_bond_site_symmetry_2
Co1 O1 1_555 1_555
O1 H1 1_555 1_555
H2 O1 1_555 1_555
O2 Co1 1_555 1_555
O3 C1 1_555 1_555
C1 O2 1_555 1_555
C2 C1 1_555 1_555
H3 C2 1_555 1_555
O4 Co1 1_555 1_555
N1 O4 1_555 1_555
C3 N1 1_555 1_555
H4 C3 1_555 1_555
C4 C3 1_555 1_555
H5 C4 1_555 1_555
C5 C4 1_555 1_555
C6 C5 1_555 1_555
H6 C6 1_555 1_555
C7 N1 1_555 1_555
H7 C7 1_555 1_555
Co1_2 O2A 1_555 1_555
Co1_3 O4A 1_555 1_555
O1A Co1 1_555 1_555
H1A O1A 1_555 1_555
H2A O1A 1_555 1_555
O2A C1A 1_555 1_555
O2A_2 Co1 1_555 1_555
O3A C1A 1_555 1_555
C1A C2A 1_555 1_555
C2A C2 1_555 1_555
H3A C2A 1_555 1_555
O4A N1A 1_555 1_555
O4A_2 Co1 1_555 1_555
N1A C3A 1_555 1_555
C3A H4A 1_555 1_555
C4A C3A 1_555 1_555
H5A C4A 1_555 1_555
C5A C5 1_555 1_555
C6A C5A 1_555 1_555
H6A C6A 1_555 1_555
C7A N1A 1_555 1_555
H7A C7A 1_555 1_555
C6 C7 1_555 1_555
C4A C5A 1_555 1_555
C6A C7A 1_555 1_555

#END
