
#######################################################################
#
#                 Cambridge Crystallographic Data Centre
#                                CCDC 
#
#######################################################################
#
# If this CIF has been generated from an entry in the Cambridge 
# Structural Database, then it will include bibliographic, chemical, 
# crystal, experimental, refinement or atomic coordinate data resulting 
# from the CCDC's data processing and validation procedures.
#
#######################################################################

data_QEZKUC
_symmetry_cell_setting           tetragonal
_symmetry_space_group_name_H-M   'P -4'
_symmetry_Int_Tables_number      81
_space_group_name_Hall           'P -4'
loop_
_symmetry_equiv_pos_site_id
_symmetry_equiv_pos_as_xyz
1 x,y,z
2 y,-x,-z
3 -x,-y,z
4 -y,x,-z
_cell_length_a                   12.0047(17)
_cell_length_b                   12.0047(17)
_cell_length_c                   7.5260(15)
_cell_angle_alpha                90
_cell_angle_beta                 90
_cell_angle_gamma                90
_cell_volume                     1084.59
loop_
_atom_site_label
_atom_site_type_symbol
_atom_site_fract_x
_atom_site_fract_y
_atom_site_fract_z
Ag1 Ag 0.5000 0.5000 0.0000
O1 O 0.0986(11) 0.3394(10) 0.545(2)
N1 N 0.3532(8) 0.4575(9) 0.1877(14)
C1 C 0.1909(10) 0.3843(10) 0.4279(16)
C2 C 0.2144(12) 0.3253(11) 0.274(2)
H1 H 0.1757 0.2604 0.2468
C3 C 0.2964(12) 0.3650(11) 0.1624(18)
H2 H 0.3128 0.3233 0.0616
C4 C 0.2444(9) 0.4821(10) 0.4526(16)
H3 H 0.2266 0.5276 0.5485
C5 C 0.3263(11) 0.5134(10) 0.3326(17)
H4 H 0.3652 0.5788 0.3560
C6 C 0.0801(7) 0.4071(7) 0.6913(11)
H5 H 0.1518 0.4263 0.7419
H6 H 0.0463 0.4758 0.6497
C7 C 0.0173(10) 0.3670(9) 0.8190(16)
C8 C -0.0146(10) 0.2576(11) 0.8324(17)
H7 H 0.0027 0.2091 0.7400
C9 C -0.0739(9) 0.2149(9) 0.984(3)
H8 H -0.0917 0.1397 0.9923
C10 C -0.1033(11) 0.2870(13) 1.1151(18)
H9 H -0.1418 0.2619 1.2145
C11 C -0.0747(9) 0.4000(10) 1.0984(17)
H10 H -0.0961 0.4498 1.1868
C12 C -0.0146(8) 0.4395(9) 0.9509(14)
Ag1_2 Ag -0.5000 0.5000 0.0000
Ag1_3 Ag 0.5000 1.5000 0.0000
O1B O -0.0986(11) 0.6606(10) 0.545(2)
O1A O 0.3394(10) 0.9014(11) -0.545(2)
O1C O 0.6606(10) 1.0986(11) -0.545(2)
N1B N -0.3532(8) 0.5425(9) 0.1877(14)
N1A N 0.4575(9) 0.6468(8) -0.1877(14)
N1C N 0.5425(9) 1.3532(8) -0.1877(14)
N1B_2 N 0.6468(8) 0.5425(9) 0.1877(14)
N1C_2 N 0.5425(9) 0.3532(8) -0.1877(14)
C1B C -0.1909(10) 0.6157(10) 0.4279(16)
C1A C 0.3843(10) 0.8091(10) -0.4279(16)
C1C C 0.6157(10) 1.1909(10) -0.4279(16)
C2B C -0.2144(12) 0.6747(11) 0.274(2)
C2A C 0.3253(11) 0.7856(12) -0.274(2)
C2C C 0.6747(11) 1.2144(12) -0.274(2)
H1B H -0.1757 0.7396 0.2468
H1A H 0.2604 0.8243 -0.2468
H1C H 0.7396 1.1757 -0.2468
C3B C -0.2964(12) 0.6350(11) 0.1624(18)
C3A C 0.3650(11) 0.7036(12) -0.1624(18)
C3C C 0.6350(11) 1.2964(12) -0.1624(18)
H2B H -0.3128 0.6767 0.0616
H2A H 0.3233 0.6872 -0.0616
H2C H 0.6767 1.3128 -0.0616
C4B C -0.2444(9) 0.5179(10) 0.4526(16)
C4A C 0.4821(10) 0.7556(9) -0.4526(16)
C4C C 0.5179(10) 1.2444(9) -0.4526(16)
H3B H -0.2266 0.4724 0.5485
H3A H 0.5276 0.7734 -0.5485
H3C H 0.4724 1.2266 -0.5485
C5B C -0.3263(11) 0.4866(10) 0.3326(17)
C5A C 0.5134(10) 0.6737(11) -0.3326(17)
C5C C 0.4866(10) 1.3263(11) -0.3326(17)
H4B H -0.3652 0.4212 0.3560
H4A H 0.5788 0.6348 -0.3560
H4C H 0.4212 1.3652 -0.3560
C6B C -0.0801(7) 0.5929(7) 0.6913(11)
C6A C 0.4071(7) 0.9199(7) -0.6913(11)
C6C C 0.5929(7) 1.0801(7) -0.6913(11)
H5B H -0.1518 0.5737 0.7419
H5A H 0.4263 0.8482 -0.7419
H5C H 0.5737 1.1518 -0.7419
H6B H -0.0463 0.5242 0.6497
H6A H 0.4758 0.9537 -0.6497
H6C H 0.5242 1.0463 -0.6497
C7B C -0.0173(10) 0.6330(9) 0.8190(16)
C7A C 0.3670(9) 0.9827(10) -0.8190(16)
C7C C 0.6330(9) 1.0173(10) -0.8190(16)
C8B C 0.0146(10) 0.7424(11) 0.8324(17)
C8A C 0.2576(11) 1.0146(10) -0.8324(17)
C8C C 0.7424(11) 0.9854(10) -0.8324(17)
H7B H -0.0027 0.7909 0.7400
H7A H 0.2091 0.9973 -0.7400
H7C H 0.7909 1.0027 -0.7400
C9B C 0.0739(9) 0.7851(9) 0.984(3)
C9A C 0.2149(9) 1.0739(9) -0.984(3)
C9C C 0.7851(9) 0.9261(9) -0.984(3)
H8B H 0.0917 0.8603 0.9923
H8A H 0.1397 1.0917 -0.9923
H8C H 0.8603 0.9083 -0.9923
C10B C 0.1033(11) 0.7130(13) 1.1151(18)
C10A C 0.2870(13) 1.1033(11) -1.1151(18)
C10C C 0.7130(13) 0.8967(11) -1.1151(18)
H9B H 0.1418 0.7381 1.2145
H9A H 0.2619 1.1418 -1.2145
H9C H 0.7381 0.8582 -1.2145
C11B C 0.0747(9) 0.6000(10) 1.0984(17)
C11A C 0.4000(10) 1.0747(9) -1.0984(17)
C11C C 0.6000(10) 0.9253(9) -1.0984(17)
H10B H 0.0961 0.5502 1.1868
H10A H 0.4498 1.0961 -1.1868
H10C H 0.5502 0.9039 -1.1868
C12B C 0.0146(8) 0.5605(9) 0.9509(14)
C12A C 0.4395(9) 1.0146(8) -0.9509(14)
C12C C 0.5605(9) 0.9854(8) -0.9509(14)
Cl1 Cl 0.0000 0.0000 0.5000
O2 O -0.0152(11) 0.0942(7) 0.3949(14)
O2A O 0.0942(7) 0.0152(11) 0.6051(14)
O2B O 0.0152(11) -0.0942(7) 0.3949(14)
O2C O -0.0942(7) -0.0152(11) 0.6051(14)
loop_
_geom_bond_atom_site_label_1
_geom_bond_atom_site_label_2
_geom_bond_site_symmetry_1
_geom_bond_site_symmetry_2
Ag1 N1 1_555 1_555
Cl1 O2 1_555 1_555
O1 C1 1_555 1_555
N1 C3 1_555 1_555
C1 C2 1_555 1_555
C2 H1 1_555 1_555
C3 C2 1_555 1_555
H2 C3 1_555 1_555
C4 C1 1_555 1_555
H3 C4 1_555 1_555
C5 N1 1_555 1_555
H4 C5 1_555 1_555
C6 O1 1_555 1_555
H5 C6 1_555 1_555
H6 C6 1_555 1_555
C7 C6 1_555 1_555
C8 C7 1_555 1_555
H7 C8 1_555 1_555
C9 C8 1_555 1_555
H8 C9 1_555 1_555
C10 C9 1_555 1_555
H9 C10 1_555 1_555
C11 C10 1_555 1_555
H10 C11 1_555 1_555
C12 C7 1_555 1_555
Ag1_2 N1B 1_555 1_555
Ag1_3 N1C 1_555 1_555
O1B C1B 1_555 1_555
O1A C1A 1_555 1_555
O1C C1C 1_555 1_555
O2A Cl1 1_555 1_555
O2B Cl1 1_555 1_555
O2C Cl1 1_555 1_555
N1B C3B 1_555 1_555
N1A Ag1 1_555 1_555
N1C C3C 1_555 1_555
N1B_2 Ag1 1_555 1_555
N1C_2 Ag1 1_555 1_555
C1B C2B 1_555 1_555
C1A C2A 1_555 1_555
C1C C2C 1_555 1_555
C2B H1B 1_555 1_555
C2A H1A 1_555 1_555
C2C H1C 1_555 1_555
C3B C2B 1_555 1_555
C3A N1A 1_555 1_555
C3C C2C 1_555 1_555
H2B C3B 1_555 1_555
H2A C3A 1_555 1_555
H2C C3C 1_555 1_555
C4B C1B 1_555 1_555
C4A C1A 1_555 1_555
C4C C1C 1_555 1_555
H3B C4B 1_555 1_555
H3A C4A 1_555 1_555
H3C C4C 1_555 1_555
C5B N1B 1_555 1_555
C5A N1A 1_555 1_555
C5C N1C 1_555 1_555
H4B C5B 1_555 1_555
H4A C5A 1_555 1_555
H4C C5C 1_555 1_555
C6B O1B 1_555 1_555
C6A O1A 1_555 1_555
C6C O1C 1_555 1_555
H5B C6B 1_555 1_555
H5A C6A 1_555 1_555
H5C C6C 1_555 1_555
H6B C6B 1_555 1_555
H6A C6A 1_555 1_555
H6C C6C 1_555 1_555
C7B C6B 1_555 1_555
C7A C6A 1_555 1_555
C7C C6C 1_555 1_555
C8B C7B 1_555 1_555
C8A C7A 1_555 1_555
C8C C7C 1_555 1_555
H7B C8B 1_555 1_555
H7A C8A 1_555 1_555
H7C C8C 1_555 1_555
C9B C8B 1_555 1_555
C9A C8A 1_555 1_555
C9C C8C 1_555 1_555
H8B C9B 1_555 1_555
H8A C9A 1_555 1_555
H8C C9C 1_555 1_555
C10B C9B 1_555 1_555
C10A C9A 1_555 1_555
C10C C9C 1_555 1_555
H9B C10B 1_555 1_555
H9A C10A 1_555 1_555
H9C C10C 1_555 1_555
C11B C10B 1_555 1_555
C11A C10A 1_555 1_555
C11C C10C 1_555 1_555
H10B C11B 1_555 1_555
H10A C11A 1_555 1_555
H10C C11C 1_555 1_555
C12B C12 1_555 1_555
C12A C7A 1_555 1_555
C12C C7C 1_555 1_555
C4 C5 1_555 1_555
C11 C12 1_555 1_555
C2A C3A 1_555 1_555
C4B C5B 1_555 1_555
C4A C5A 1_555 1_555
C4C C5C 1_555 1_555
C7B C12B 1_555 1_555
C11B C12B 1_555 1_555
C11A C12A 1_555 1_555
C11C C12C 1_555 1_555
C12A C12C 1_555 1_555

#END
