
#######################################################################
#
#                 Cambridge Crystallographic Data Centre
#                                CCDC 
#
#######################################################################
#
# If this CIF has been generated from an entry in the Cambridge 
# Structural Database, then it will include bibliographic, chemical, 
# crystal, experimental, refinement or atomic coordinate data resulting 
# from the CCDC's data processing and validation procedures.
#
#######################################################################

data_QEZKOW
_symmetry_cell_setting           monoclinic
_symmetry_space_group_name_H-M   'C 2/c'
_symmetry_Int_Tables_number      15
_space_group_name_Hall           '-C 2yn'
loop_
_symmetry_equiv_pos_site_id
_symmetry_equiv_pos_as_xyz
1 x,y,z
2 1/2+x,1/2+y,z
3 -x,y,1/2-z
4 1/2-x,1/2+y,1/2-z
5 -x,-y,-z
6 1/2-x,1/2-y,-z
7 x,-y,1/2+z
8 1/2+x,1/2-y,1/2+z
_cell_length_a                   34.373(3)
_cell_length_b                   9.068
_cell_length_c                   25.536(2)
_cell_angle_alpha                90
_cell_angle_beta                 106.423(3)
_cell_angle_gamma                90
_cell_volume                     7634.69
loop_
_atom_site_label
_atom_site_type_symbol
_atom_site_fract_x
_atom_site_fract_y
_atom_site_fract_z
Ag1 Ag 0.003625(18) 0.12612(6) 0.03935(2)
O1 O 0.20180(17) 0.5748(6) -0.0343(2)
N1 N -0.02357(16) 0.2974(5) -0.01997(19)
C1 C 0.0650(2) -0.0367(7) 0.1335(3)
H1 H 0.0833 0.0116 0.1173
Ag2 Ag 0.17445(2) 0.81638(8) 0.02886(3)
O2 O 0.15307(17) 0.6016(5) 0.0042(2)
N2 N -0.1920(2) 0.9780(7) -0.0676(2)
C2 C 0.0814(2) -0.1280(8) 0.1790(3)
H2 H 0.1099 -0.1413 0.1927
O3 O 0.07427(17) 0.1636(6) 0.0285(2)
N3 N 0.02625(18) -0.0149(5) 0.1123(2)
C3 C 0.05536(19) -0.1976(6) 0.2034(2)
O4 O 0.0708(2) -0.0230(7) -0.0250(2)
C4 C 0.01470(19) -0.1736(7) 0.1804(2)
H3 H -0.0045 -0.2213 0.1951
O5 O -0.11192(14) 0.5457(5) -0.18205(16)
C5 C 0.0014(2) -0.0814(7) 0.1362(2)
H4 H -0.0270 -0.0645 0.1221
O6 O -0.19724(16) 0.5325(5) -0.17817(19)
C6 C 0.07050(19) -0.2948(7) 0.2508(2)
H5 H 0.0965 -0.3402 0.2501
H6 H 0.0750 -0.2380 0.2851
O7 O 0.04076(13) -0.4053(4) 0.24766(15)
C7 C 0.04554(18) -0.5105(6) 0.2877(2)
C8 C 0.07664(19) -0.5106(7) 0.3366(2)
H7 H 0.0962 -0.4339 0.3442
C9 C 0.0788(2) -0.6214(7) 0.3735(3)
H8 H 0.0996 -0.6198 0.4071
C10 C 0.0511(2) -0.7359(7) 0.3624(2)
H9 H 0.0532 -0.8136 0.3880
C11 C 0.02018(19) -0.7363(7) 0.3134(2)
H10 H 0.0012 -0.8152 0.3056
C12 C 0.01673(17) -0.6239(6) 0.2761(2)
C13 C 0.1725(2) 0.5289(8) -0.0225(3)
C14 C 0.15576(18) 0.3768(7) -0.0392(2)
C15 C 0.1707(2) 0.3012(8) -0.0766(3)
H11 H 0.1898 0.3470 -0.0919
C16 C 0.1576(2) 0.1585(9) -0.0917(3)
H12 H 0.1684 0.1059 -0.1166
C17 C 0.1290(2) 0.0924(8) -0.0707(3)
H13 H 0.1198 -0.0047 -0.0815
C18 C 0.12753(19) 0.3120(7) -0.0184(2)
H14 H 0.1172 0.3654 0.0067
C19 C 0.11354(19) 0.1699(7) -0.0331(2)
C20 C 0.0837(2) 0.0965(8) -0.0077(3)
C21 C -0.0012(2) 0.3697(7) -0.0472(2)
H15 H 0.0272 0.3519 -0.0375
C22 C -0.0176(2) 0.4684(7) -0.0886(2)
H16 H -0.0006 0.5164 -0.1069
C23 C -0.1732(3) 0.9261(9) -0.1039(3)
H17 H -0.1544 0.9885 -0.1140
C24 C -0.0622(2) 0.3291(8) -0.0337(3)
H18 H -0.0787 0.2825 -0.0145
C25 C -0.0573(2) 0.4963(7) -0.1028(2)
C26 C -0.0756(2) 0.6065(8) -0.1472(3)
H19 H -0.0816 0.6997 -0.1309
H20 H -0.0562 0.6280 -0.1685
C27 C -0.1302(2) 0.6205(8) -0.2299(3)
C28 C -0.1161(3) 0.7511(9) -0.2439(3)
H21 H -0.0933 0.7974 -0.2194
C29 C -0.1348(3) 0.8165(11) -0.2940(4)
H22 H -0.1246 0.9063 -0.3040
C30 C -0.1675(3) 0.7525(13) -0.3281(4)
H23 H -0.1806 0.7983 -0.3619
C31 C -0.1822(3) 0.6194(12) -0.3142(3)
H24 H -0.2049 0.5747 -0.3394
C32 C -0.1646(2) 0.5494(9) -0.2640(3)
C33 C -0.1813(2) 0.4101(9) -0.2493(3)
C34 C -0.1818(2) 0.2779(12) -0.2773(3)
H25 H -0.1707 0.2765 -0.3074
C35 C -0.1978(3) 0.1478(11) -0.2631(4)
H26 H -0.1978 0.0601 -0.2835
C36 C -0.2134(3) 0.1477(11) -0.2197(4)
H27 H -0.2240 0.0587 -0.2097
C37 C -0.2142(2) 0.2719(9) -0.1904(3)
H28 H -0.2260 0.2708 -0.1610
C38 C -0.1977(2) 0.3990(9) -0.2038(3)
C39 C -0.2118(2) 0.5401(8) -0.1321(3)
H29 H -0.1968 0.4699 -0.1039
H30 H -0.2410 0.5148 -0.1422
C40 C -0.2053(2) 0.6950(7) -0.1110(2)
C41 C -0.1798(2) 0.7913(9) -0.1261(3)
H31 H -0.1667 0.7624 -0.1526
C42 C -0.0801(2) 0.4272(8) -0.0749(3)
H32 H -0.1084 0.4461 -0.0836
C43 C -0.2177(2) 0.8867(9) -0.0545(3)
H33 H -0.2320 0.9205 -0.0300
C44 C -0.2249(2) 0.7442(9) -0.0746(3)
H34 H -0.2432 0.6818 -0.0633
Ag1B Ag -0.003625(18) 0.12612(6) 0.46065(2)
Ag1D Ag -0.003625(18) 1.87388(6) -0.03935(2)
O1B O -0.20180(17) 0.5748(6) 0.5343(2)
N1D N 0.02357(16) 1.7026(5) 0.01997(19)
N1B N 0.02357(16) 0.2974(5) 0.51997(19)
C1B C -0.0650(2) -0.0367(7) 0.3665(3)
H1B H -0.0833 0.0116 0.3827
Ag2D Ag -0.17445(2) 1.18362(8) -0.02886(3)
Ag2B Ag -0.17445(2) 0.81638(8) 0.47114(3)
O2B O -0.15307(17) 0.6016(5) 0.4958(2)
O2D O -0.15307(17) 1.3984(5) -0.0042(2)
N2D N 0.1920(2) 1.0220(7) 0.0676(2)
C2B C -0.0814(2) -0.1280(8) 0.3210(3)
H2B H -0.1099 -0.1413 0.3073
O3B O -0.07427(17) 0.1636(6) 0.4715(2)
N3B N -0.02625(18) -0.0149(5) 0.3877(2)
C3B C -0.05536(19) -0.1976(6) 0.2966(2)
O4B O -0.0708(2) -0.0230(7) 0.5250(2)
C4B C -0.01470(19) -0.1736(7) 0.3196(2)
H3B H 0.0045 -0.2213 0.3049
O5D O 0.11192(14) 1.4543(5) 0.18205(16)
C5B C -0.0014(2) -0.0814(7) 0.3638(2)
H4B H 0.0270 -0.0645 0.3779
O6D O 0.19724(16) 1.4675(5) 0.17817(19)
C6B C -0.07050(19) -0.2948(7) 0.2492(2)
H5B H -0.0965 -0.3402 0.2499
H6B H -0.0750 -0.2380 0.2149
O7B O -0.04076(13) -0.4053(4) 0.25234(15)
C7B C -0.04554(18) -0.5105(6) 0.2123(2)
C8B C -0.07664(19) -0.5106(7) 0.1634(2)
H7B H -0.0962 -0.4339 0.1558
C9B C -0.0788(2) -0.6214(7) 0.1265(3)
H8B H -0.0996 -0.6198 0.0929
C10B C -0.0511(2) -0.7359(7) 0.1376(2)
H9B H -0.0532 -0.8136 0.1120
C11B C -0.02018(19) -0.7363(7) 0.1866(2)
H10B H -0.0012 -0.8152 0.1944
C12B C -0.01673(17) -0.6239(6) 0.2239(2)
C13B C -0.1725(2) 0.5289(8) 0.5225(3)
C14B C -0.15576(18) 0.3768(7) 0.5392(2)
C15B C -0.1707(2) 0.3012(8) 0.5766(3)
H11B H -0.1898 0.3470 0.5919
C16B C -0.1576(2) 0.1585(9) 0.5917(3)
H12B H -0.1684 0.1059 0.6166
C17B C -0.1290(2) 0.0924(8) 0.5707(3)
H13B H -0.1198 -0.0047 0.5815
C18B C -0.12753(19) 0.3120(7) 0.5184(2)
H14B H -0.1172 0.3654 0.4933
C19B C -0.11354(19) 0.1699(7) 0.5331(2)
C20B C -0.0837(2) 0.0965(8) 0.5077(3)
C21D C 0.0012(2) 1.6303(7) 0.0472(2)
H15D H -0.0272 1.6481 0.0375
C22D C 0.0176(2) 1.5316(7) 0.0886(2)
H16D H 0.0006 1.4836 0.1069
C23D C 0.1732(3) 1.0739(9) 0.1039(3)
H17D H 0.1544 1.0115 0.1140
C24D C 0.0622(2) 1.6709(8) 0.0337(3)
H18D H 0.0787 1.7175 0.0145
C25D C 0.0573(2) 1.5037(7) 0.1028(2)
C26D C 0.0756(2) 1.3935(8) 0.1472(3)
H19D H 0.0816 1.3003 0.1309
H20D H 0.0562 1.3720 0.1685
C27D C 0.1302(2) 1.3795(8) 0.2299(3)
C28D C 0.1161(3) 1.2489(9) 0.2439(3)
H21D H 0.0933 1.2026 0.2194
C29D C 0.1348(3) 1.1835(11) 0.2940(4)
H22D H 0.1246 1.0937 0.3040
C30D C 0.1675(3) 1.2475(13) 0.3281(4)
H23D H 0.1806 1.2017 0.3619
C31D C 0.1822(3) 1.3806(12) 0.3142(3)
H24D H 0.2049 1.4253 0.3394
C32D C 0.1646(2) 1.4506(9) 0.2640(3)
C33D C 0.1813(2) 1.5899(9) 0.2493(3)
C34D C 0.1818(2) 1.7221(12) 0.2773(3)
H25D H 0.1707 1.7235 0.3074
C35D C 0.1978(3) 1.8522(11) 0.2631(4)
H26D H 0.1978 1.9399 0.2835
C36D C 0.2134(3) 1.8523(11) 0.2197(4)
H27D H 0.2240 1.9413 0.2097
C37D C 0.2142(2) 1.7281(9) 0.1904(3)
H28D H 0.2260 1.7292 0.1610
C38D C 0.1977(2) 1.6010(9) 0.2038(3)
C39D C 0.2118(2) 1.4599(8) 0.1321(3)
H29D H 0.1968 1.5301 0.1039
H30D H 0.2410 1.4852 0.1422
C40D C 0.2053(2) 1.3050(7) 0.1110(2)
C41D C 0.1798(2) 1.2087(9) 0.1261(3)
H31D H 0.1667 1.2376 0.1526
C42D C 0.0801(2) 1.5728(8) 0.0749(3)
H32D H 0.1084 1.5539 0.0836
C43D C 0.2177(2) 1.1133(9) 0.0545(3)
H33D H 0.2320 1.0795 0.0300
C44D C 0.2249(2) 1.2558(9) 0.0746(3)
H34D H 0.2432 1.3182 0.0633
O8 O 0.2674(3) 0.6482(9) 0.0542(4)
loop_
_geom_bond_atom_site_label_1
_geom_bond_atom_site_label_2
_geom_bond_site_symmetry_1
_geom_bond_site_symmetry_2
Ag1 N1 1_555 1_555
O1 C13 1_555 1_555
N1 C21 1_555 1_555
C1 H1 1_555 1_555
Ag2 O2 1_555 1_555
O2 C13 1_555 1_555
N2 C23 1_555 1_555
C2 C1 1_555 1_555
H2 C2 1_555 1_555
O3 Ag1 1_555 1_555
N3 Ag1 1_555 1_555
C3 C2 1_555 1_555
O4 C20 1_555 1_555
C4 C3 1_555 1_555
H3 C4 1_555 1_555
O5 C26 1_555 1_555
C5 N3 1_555 1_555
H4 C5 1_555 1_555
O6 C38 1_555 1_555
C6 C3 1_555 1_555
H5 C6 1_555 1_555
H6 C6 1_555 1_555
O7 C6 1_555 1_555
C7 O7 1_555 1_555
C8 C7 1_555 1_555
H7 C8 1_555 1_555
C9 C8 1_555 1_555
H8 C9 1_555 1_555
C10 C9 1_555 1_555
H9 C10 1_555 1_555
C11 C10 1_555 1_555
H10 C11 1_555 1_555
C12 C7 1_555 1_555
C13 C14 1_555 1_555
C14 C15 1_555 1_555
C15 H11 1_555 1_555
C16 C15 1_555 1_555
H12 C16 1_555 1_555
C17 C16 1_555 1_555
H13 C17 1_555 1_555
C18 C14 1_555 1_555
H14 C18 1_555 1_555
C19 C17 1_555 1_555
C20 O3 1_555 1_555
C21 H15 1_555 1_555
C22 C21 1_555 1_555
H16 C22 1_555 1_555
C23 H17 1_555 1_555
C24 N1 1_555 1_555
H18 C24 1_555 1_555
C25 C22 1_555 1_555
C26 C25 1_555 1_555
H19 C26 1_555 1_555
H20 C26 1_555 1_555
C27 O5 1_555 1_555
C28 C27 1_555 1_555
H21 C28 1_555 1_555
C29 C28 1_555 1_555
H22 C29 1_555 1_555
C30 C29 1_555 1_555
H23 C30 1_555 1_555
C31 C30 1_555 1_555
H24 C31 1_555 1_555
C32 C27 1_555 1_555
C33 C32 1_555 1_555
C34 C33 1_555 1_555
H25 C34 1_555 1_555
C35 C34 1_555 1_555
H26 C35 1_555 1_555
C36 C35 1_555 1_555
H27 C36 1_555 1_555
C37 C36 1_555 1_555
H28 C37 1_555 1_555
C38 C33 1_555 1_555
C39 O6 1_555 1_555
H29 C39 1_555 1_555
H30 C39 1_555 1_555
C40 C39 1_555 1_555
C41 C23 1_555 1_555
H31 C41 1_555 1_555
C42 C24 1_555 1_555
H32 C42 1_555 1_555
C43 N2 1_555 1_555
H33 C43 1_555 1_555
C44 C40 1_555 1_555
H34 C44 1_555 1_555
Ag1B N1B 1_555 1_555
Ag1D N1D 1_555 1_555
O1B C13B 1_555 1_555
N1D C21D 1_555 1_555
C1B H1B 1_555 1_555
Ag2D N2 1_555 1_555
Ag2B O2B 1_555 1_555
O2B C13B 1_555 1_555
O2D Ag2D 1_555 1_555
N2D Ag2 1_555 1_555
C2B C1B 1_555 1_555
H2B C2B 1_555 1_555
O3B Ag1B 1_555 1_555
N3B Ag1B 1_555 1_555
C3B C2B 1_555 1_555
O4B C20B 1_555 1_555
C4B C3B 1_555 1_555
H3B C4B 1_555 1_555
O5D C26D 1_555 1_555
C5B N3B 1_555 1_555
H4B C5B 1_555 1_555
O6D C38D 1_555 1_555
C6B C3B 1_555 1_555
H5B C6B 1_555 1_555
H6B C6B 1_555 1_555
O7B C6B 1_555 1_555
C7B O7B 1_555 1_555
C8B C7B 1_555 1_555
H7B C8B 1_555 1_555
C9B C8B 1_555 1_555
H8B C9B 1_555 1_555
C10B C9B 1_555 1_555
H9B C10B 1_555 1_555
C11B C10B 1_555 1_555
H10B C11B 1_555 1_555
C12B C12 1_555 1_555
C13B C14B 1_555 1_555
C14B C15B 1_555 1_555
C15B H11B 1_555 1_555
C16B C15B 1_555 1_555
H12B C16B 1_555 1_555
C17B C16B 1_555 1_555
H13B C17B 1_555 1_555
C18B C14B 1_555 1_555
H14B C18B 1_555 1_555
C19B C17B 1_555 1_555
C20B O3B 1_555 1_555
C21D H15D 1_555 1_555
C22D C21D 1_555 1_555
H16D C22D 1_555 1_555
C23D N2D 1_555 1_555
H17D C23D 1_555 1_555
C24D N1D 1_555 1_555
H18D C24D 1_555 1_555
C25D C22D 1_555 1_555
C26D C25D 1_555 1_555
H19D C26D 1_555 1_555
H20D C26D 1_555 1_555
C27D O5D 1_555 1_555
C28D C27D 1_555 1_555
H21D C28D 1_555 1_555
C29D C28D 1_555 1_555
H22D C29D 1_555 1_555
C30D C29D 1_555 1_555
H23D C30D 1_555 1_555
C31D C30D 1_555 1_555
H24D C31D 1_555 1_555
C32D C27D 1_555 1_555
C33D C32D 1_555 1_555
C34D C33D 1_555 1_555
H25D C34D 1_555 1_555
C35D C34D 1_555 1_555
H26D C35D 1_555 1_555
C36D C35D 1_555 1_555
H27D C36D 1_555 1_555
C37D C36D 1_555 1_555
H28D C37D 1_555 1_555
C38D C33D 1_555 1_555
C39D O6D 1_555 1_555
H29D C39D 1_555 1_555
H30D C39D 1_555 1_555
C40D C39D 1_555 1_555
C41D C23D 1_555 1_555
H31D C41D 1_555 1_555
C42D C24D 1_555 1_555
H32D C42D 1_555 1_555
C43D N2D 1_555 1_555
H33D C43D 1_555 1_555
C44D C40D 1_555 1_555
H34D C44D 1_555 1_555
C1 N3 1_555 1_555
C4 C5 1_555 1_555
C11 C12 1_555 1_555
C18 C19 1_555 1_555
C19 C20 1_555 1_555
C25 C42 1_555 1_555
C31 C32 1_555 1_555
C37 C38 1_555 1_555
C40 C41 1_555 1_555
C43 C44 1_555 1_555
C1B N3B 1_555 1_555
C4B C5B 1_555 1_555
C7B C12B 1_555 1_555
C11B C12B 1_555 1_555
C18B C19B 1_555 1_555
C19B C20B 1_555 1_555
C25D C42D 1_555 1_555
C31D C32D 1_555 1_555
C37D C38D 1_555 1_555
C40D C41D 1_555 1_555
C43D C44D 1_555 1_555

#END
