
#######################################################################
#
#                 Cambridge Crystallographic Data Centre
#                                CCDC 
#
#######################################################################
#
# If this CIF has been generated from an entry in the Cambridge 
# Structural Database, then it will include bibliographic, chemical, 
# crystal, experimental, refinement or atomic coordinate data resulting 
# from the CCDC's data processing and validation procedures.
#
#######################################################################

data_QEZLAJ
_symmetry_cell_setting           triclinic
_symmetry_space_group_name_H-M   'P -1'
_symmetry_Int_Tables_number      2
_space_group_name_Hall           '-P 1'
loop_
_symmetry_equiv_pos_site_id
_symmetry_equiv_pos_as_xyz
1 x,y,z
2 -x,-y,-z
_cell_length_a                   8.9872(14)
_cell_length_b                   9.1559(14)
_cell_length_c                   9.2538(14)
_cell_angle_alpha                112.213(2)
_cell_angle_beta                 108.439(2)
_cell_angle_gamma                97.480(2)
_cell_volume                     641.143
loop_
_atom_site_label
_atom_site_type_symbol
_atom_site_fract_x
_atom_site_fract_y
_atom_site_fract_z
Cd1 Cd 0.218162(13) 0.847128(13) 0.677274(13)
S1 S 0.31885(5) 1.02385(6) 0.54061(6)
S2 S 0.49287(6) 0.74611(6) 0.71581(6)
N1 N 0.03201(19) 1.0858(2) 0.3792(2)
N2 N 0.69550(19) 0.9873(2) 1.04257(19)
O1 O 0.11165(15) 0.60120(14) 0.42429(14)
O2 O -0.06470(15) 0.35312(13) 0.28947(13)
C1 C 0.15009(19) 1.06140(18) 0.44749(19)
C2 C 0.61128(19) 0.88895(19) 0.90806(19)
C3 C 0.01320(17) 0.48634(18) 0.41744(17)
Cd1A Cd -0.218162(13) 1.152872(13) 0.322726(13)
Cd1A_2 Cd 0.781838(13) 1.152872(13) 1.322726(13)
Cd1A_3 Cd -0.218162(13) 0.152872(13) 0.322726(13)
S1A S -0.31885(5) 0.97615(6) 0.45939(6)
S2A S 0.50713(6) 1.25389(6) 1.28419(6)
S2A_2 S -0.49287(6) 1.25389(6) 0.28419(6)
N1A N -0.03201(19) 0.9142(2) 0.6208(2)
N2A N 0.30450(19) 1.0127(2) 0.95743(19)
N2_2 N -0.30450(19) 0.9873(2) 0.04257(19)
O1A O -0.11165(15) 0.39880(14) 0.57571(14)
O1A_2 O -0.11165(15) 1.39880(14) 0.57571(14)
O2A O 0.06470(15) 0.64688(13) 0.71053(13)
O2_2 O -0.06470(15) 1.35312(13) 0.28947(13)
C1A C -0.15009(19) 0.93860(18) 0.55251(19)
C2A C 0.38872(19) 1.11105(19) 1.09194(19)
C3A C -0.01320(17) 0.51366(18) 0.58256(17)
N3 N 0.8079(2) 0.4923(2) 0.85669(19)
N4 N 0.9660(3) 0.7611(3) 0.9968(3)
C4 C 0.8635(2) 0.6407(2) 0.9913(2)
C5 C 0.8091(3) 0.6577(3) 1.1224(2)
C6 C 0.7066(3) 0.5273(3) 1.1088(3)
C7 C 0.6508(3) 0.3761(3) 0.9659(3)
C8 C 0.7034(3) 0.3622(3) 0.8417(3)
H1 H 1.005(3) 0.851(3) 1.073(3)
H2 H 0.999(3) 0.747(3) 0.926(3)
H3 H 0.832(3) 0.481(3) 0.780(3)
H4 H 0.846(3) 0.757(3) 1.212(3)
H5 H 0.668(3) 0.537(3) 1.198(3)
H6 H 0.591(3) 0.283(3) 0.952(3)
H7 H 0.671(3) 0.270(3) 0.739(3)
loop_
_geom_bond_atom_site_label_1
_geom_bond_atom_site_label_2
_geom_bond_site_symmetry_1
_geom_bond_site_symmetry_2
Cd1 S1 1_555 1_555
S1 C1 1_555 1_555
S2 Cd1 1_555 1_555
N1 C1 1_555 1_555
N2 C2 1_555 1_555
O1 Cd1 1_555 1_555
O2 C3 1_555 1_555
C2 S2 1_555 1_555
C3 O1 1_555 1_555
N3 C4 1_555 1_555
N4 C4 1_555 1_555
C4 C5 1_555 1_555
C5 C6 1_555 1_555
C6 C7 1_555 1_555
C7 C8 1_555 1_555
C8 N3 1_555 1_555
H1 N4 1_555 1_555
H2 N4 1_555 1_555
H3 N3 1_555 1_555
H4 C5 1_555 1_555
H5 C6 1_555 1_555
H6 C7 1_555 1_555
H7 C8 1_555 1_555
Cd1A N1 1_555 1_555
Cd1A_2 N2 1_555 1_555
Cd1A_3 O2 1_555 1_555
S1A Cd1A 1_555 1_555
S2A Cd1A_2 1_555 1_555
S2A_2 Cd1A 1_555 1_555
N1A Cd1 1_555 1_555
N2A Cd1 1_555 1_555
N2_2 Cd1A 1_555 1_555
O1A Cd1A_3 1_555 1_555
O1A_2 Cd1A 1_555 1_555
O2A Cd1 1_555 1_555
O2_2 Cd1A 1_555 1_555
C1A S1A 1_555 1_555
C2A S2A 1_555 1_555
C3A C3 1_555 1_555
N1A C1A 1_555 1_555
N2A C2A 1_555 1_555
O1A C3A 1_555 1_555
O2A C3A 1_555 1_555

#END
