
#######################################################################
#
#                 Cambridge Crystallographic Data Centre
#                                CCDC 
#
#######################################################################
#
# If this CIF has been generated from an entry in the Cambridge 
# Structural Database, then it will include bibliographic, chemical, 
# crystal, experimental, refinement or atomic coordinate data resulting 
# from the CCDC's data processing and validation procedures.
#
#######################################################################

data_QEZLIR
_symmetry_cell_setting           orthorhombic
_symmetry_space_group_name_H-M   'P b c a'
_symmetry_Int_Tables_number      61
_space_group_name_Hall           '-P 2ac 2ab'
loop_
_symmetry_equiv_pos_site_id
_symmetry_equiv_pos_as_xyz
1 x,y,z
2 1/2-x,-y,1/2+z
3 -x,1/2+y,1/2-z
4 1/2+x,1/2-y,-z
5 -x,-y,-z
6 1/2+x,y,1/2-z
7 x,1/2-y,1/2+z
8 1/2-x,1/2+y,z
_cell_length_a                   9.0572(7)
_cell_length_b                   11.195(3)
_cell_length_c                   31.898(2)
_cell_angle_alpha                90
_cell_angle_beta                 90
_cell_angle_gamma                90
_cell_volume                     3234.31
loop_
_atom_site_label
_atom_site_type_symbol
_atom_site_fract_x
_atom_site_fract_y
_atom_site_fract_z
Cd1 Cd 0.07705(6) 0.96073(5) 0.359140(18)
S1 S 0.1568(3) 0.8079(2) 0.29531(7)
S2 S 0.4816(3) 1.0699(2) 0.43874(9)
N1 N 0.3414(8) 0.6351(6) 0.3309(2)
N2 N 0.2912(8) 0.9244(6) 0.3966(3)
N3 N -0.0133(7) 1.0644(6) 0.4189(2)
N4 N -0.0908(8) 0.8333(6) 0.3943(2)
H1 H -0.0537 0.7589 0.4000
N5 N -0.1518(7) 0.9679(6) 0.32178(19)
C1 C 0.2642(9) 0.7074(7) 0.3172(2)
C2 C 0.3681(10) 0.9897(8) 0.4125(3)
C3 C 0.0389(10) 1.1699(7) 0.4320(3)
H2 H 0.1093 1.2083 0.4156
C4 C -0.0060(10) 1.2247(9) 0.4685(3)
H3 H 0.0325 1.2982 0.4766
C5 C -0.1100(10) 1.1668(9) 0.4928(3)
H4 H -0.1444 1.2017 0.5174
C6 C -0.1617(9) 1.0583(9) 0.4804(3)
H5 H -0.2297 1.0173 0.4968
C7 C -0.1126(9) 1.0099(8) 0.4434(2)
C8 C -0.1731(10) 0.8926(8) 0.4282(3)
H6 H -0.1778 0.8383 0.4519
H7 H -0.2735 0.9057 0.4187
C9 C -0.1982(9) 1.0537(8) 0.2963(2)
H8 H -0.1310 1.1112 0.2874
C10 C -0.3417(10) 1.0610(9) 0.2826(3)
H9 H -0.3701 1.1211 0.2642
C11 C -0.4413(10) 0.9799(10) 0.2963(3)
H10 H -0.5399 0.9863 0.2884
C12 C -0.3959(9) 0.8879(9) 0.3219(3)
H11 H -0.4618 0.8290 0.3304
C13 C -0.2499(9) 0.8851(7) 0.3346(2)
C14 C -0.1904(10) 0.7865(7) 0.3613(3)
H12 H -0.2717 0.7441 0.3744
H13 H -0.1367 0.7303 0.3439
Cd1G Cd 0.42295(6) 0.46073(5) 0.359140(18)
N1G N 0.1586(8) 1.1351(6) 0.3309(2)
loop_
_geom_bond_atom_site_label_1
_geom_bond_atom_site_label_2
_geom_bond_site_symmetry_1
_geom_bond_site_symmetry_2
Cd1 S1 1_555 1_555
S1 C1 1_555 1_555
S2 C2 1_555 1_555
N1 C1 1_555 1_555
N2 Cd1 1_555 1_555
N3 Cd1 1_555 1_555
N4 Cd1 1_555 1_555
H1 N4 1_555 1_555
N5 Cd1 1_555 1_555
C2 N2 1_555 1_555
C3 N3 1_555 1_555
H2 C3 1_555 1_555
C4 C3 1_555 1_555
H3 C4 1_555 1_555
C5 C4 1_555 1_555
H4 C5 1_555 1_555
C6 C5 1_555 1_555
H5 C6 1_555 1_555
C7 N3 1_555 1_555
C8 N4 1_555 1_555
H6 C8 1_555 1_555
H7 C8 1_555 1_555
C9 N5 1_555 1_555
H8 C9 1_555 1_555
C10 C9 1_555 1_555
H9 C10 1_555 1_555
C11 C10 1_555 1_555
H10 C11 1_555 1_555
C12 C11 1_555 1_555
H11 C12 1_555 1_555
C13 N5 1_555 1_555
C14 N4 1_555 1_555
H12 C14 1_555 1_555
H13 C14 1_555 1_555
Cd1G N1 1_555 1_555
N1G Cd1 1_555 1_555
C6 C7 1_555 1_555
C7 C8 1_555 1_555
C12 C13 1_555 1_555
C13 C14 1_555 1_555

#END
