
#######################################################################
#
#                 Cambridge Crystallographic Data Centre
#                                CCDC 
#
#######################################################################
#
# If this CIF has been generated from an entry in the Cambridge 
# Structural Database, then it will include bibliographic, chemical, 
# crystal, experimental, refinement or atomic coordinate data resulting 
# from the CCDC's data processing and validation procedures.
#
#######################################################################

data_QEZLEN
_symmetry_cell_setting           monoclinic
_symmetry_space_group_name_H-M   'P 21/c'
_symmetry_Int_Tables_number      14
_space_group_name_Hall           '-P 2ybc'
loop_
_symmetry_equiv_pos_site_id
_symmetry_equiv_pos_as_xyz
1 x,y,z
2 -x,1/2+y,1/2-z
3 -x,-y,-z
4 x,1/2-y,1/2+z
_cell_length_a                   7.3566(7)
_cell_length_b                   18.006(2)
_cell_length_c                   10.9432(8)
_cell_angle_alpha                90
_cell_angle_beta                 100.629(5)
_cell_angle_gamma                90
_cell_volume                     1424.7
loop_
_atom_site_label
_atom_site_type_symbol
_atom_site_fract_x
_atom_site_fract_y
_atom_site_fract_z
Cd1 Cd 0.19023(2) 0.318762(8) 0.758315(14)
S1 S -0.05413(10) 0.20179(3) 0.66130(6)
S2 S 0.44445(11) 0.22130(4) 0.86040(6)
N1 N 0.0436(3) 0.17822(12) 0.4287(2)
N2 N 0.3299(3) 0.19536(12) 1.0857(2)
N3 N 0.1361(3) 0.51068(11) 0.78208(18)
N4 N -0.0075(2) 0.41069(9) 0.65919(16)
N5 N 0.3817(3) 0.42400(10) 0.80536(17)
C1 C 0.0040(3) 0.18818(11) 0.5241(2)
C2 C 0.3775(3) 0.20751(12) 0.9940(2)
C3 C -0.1426(3) 0.38844(12) 0.5653(2)
C4 C -0.2703(3) 0.43495(13) 0.4985(2)
C5 C -0.2620(3) 0.50987(13) 0.5286(2)
C6 C -0.1273(3) 0.53432(12) 0.6236(2)
C7 C 0.0002(3) 0.48303(11) 0.68642(18)
C8 C 0.3243(3) 0.49385(12) 0.81105(18)
C9 C 0.4469(3) 0.55256(13) 0.8479(2)
C10 C 0.6324(4) 0.53759(16) 0.8795(2)
C11 C 0.6942(3) 0.46565(16) 0.8725(2)
C12 C 0.5665(3) 0.41123(15) 0.8344(2)
H1 H 0.117(4) 0.5516(17) 0.794(3)
H2 H -0.143(4) 0.3395(16) 0.545(2)
H3 H -0.351(4) 0.4164(16) 0.435(3)
H4 H -0.344(4) 0.5423(15) 0.486(3)
H5 H -0.113(4) 0.5836(16) 0.649(2)
H6 H 0.398(4) 0.5980(16) 0.852(3)
H7 H 0.711(4) 0.5759(18) 0.902(3)
H8 H 0.815(4) 0.4563(17) 0.891(3)
H9 H 0.603(4) 0.3600(18) 0.828(3)
Cd1C Cd 0.19023(2) 0.181238(8) 0.258315(14)
Cd1C_2 Cd 0.19023(2) 0.181238(8) 1.258315(14)
N1C N 0.0436(3) 0.32178(12) 0.9287(2)
N2C N 0.3299(3) 0.30464(12) 0.5857(2)
loop_
_geom_bond_atom_site_label_1
_geom_bond_atom_site_label_2
_geom_bond_site_symmetry_1
_geom_bond_site_symmetry_2
Cd1 S1 1_555 1_555
S1 C1 1_555 1_555
S2 Cd1 1_555 1_555
N1 C1 1_555 1_555
N2 C2 1_555 1_555
N3 C7 1_555 1_555
N4 Cd1 1_555 1_555
N5 Cd1 1_555 1_555
C2 S2 1_555 1_555
C3 N4 1_555 1_555
C4 C3 1_555 1_555
C5 C4 1_555 1_555
C6 C5 1_555 1_555
C7 N4 1_555 1_555
C8 N3 1_555 1_555
C9 C8 1_555 1_555
C10 C9 1_555 1_555
C11 C10 1_555 1_555
C12 N5 1_555 1_555
H1 N3 1_555 1_555
H2 C3 1_555 1_555
H3 C4 1_555 1_555
H4 C5 1_555 1_555
H5 C6 1_555 1_555
H6 C9 1_555 1_555
H7 C10 1_555 1_555
H8 C11 1_555 1_555
H9 C12 1_555 1_555
Cd1C N1 1_555 1_555
Cd1C_2 N2 1_555 1_555
N1C Cd1 1_555 1_555
N2C Cd1 1_555 1_555
N5 C8 1_555 1_555
C6 C7 1_555 1_555
C11 C12 1_555 1_555

#END
