
#######################################################################
#
#                 Cambridge Crystallographic Data Centre
#                                CCDC 
#
#######################################################################
#
# If this CIF has been generated from an entry in the Cambridge 
# Structural Database, then it will include bibliographic, chemical, 
# crystal, experimental, refinement or atomic coordinate data resulting 
# from the CCDC's data processing and validation procedures.
#
#######################################################################

data_QEZLAK
_symmetry_cell_setting           monoclinic
_symmetry_space_group_name_H-M   'P 21/c'
_symmetry_Int_Tables_number      14
_space_group_name_Hall           '-P 2ybc'
loop_
_symmetry_equiv_pos_site_id
_symmetry_equiv_pos_as_xyz
1 x,y,z
2 -x,1/2+y,1/2-z
3 -x,-y,-z
4 x,1/2-y,1/2+z
_cell_length_a                   25.242(9)
_cell_length_b                   19.401(7)
_cell_length_c                   8.718(3)
_cell_angle_alpha                90
_cell_angle_beta                 91.011(6)
_cell_angle_gamma                90
_cell_volume                     4268.71
loop_
_atom_site_label
_atom_site_type_symbol
_atom_site_fract_x
_atom_site_fract_y
_atom_site_fract_z
Cu1 Cu 0.44866(5) 0.49971(7) -0.46649(18)
I1 I 0.48372(3) 0.42845(4) -0.70038(10)
O1 O 0.3063(3) 0.3130(3) 0.0781(8)
O2 O 0.2495(4) -0.3065(4) 0.1620(13)
O3 O -0.0412(3) -0.0933(5) 0.3227(14)
N1 N 0.1837(3) 0.0207(4) 0.1361(12)
N2 N 0.2939(3) 0.2417(4) -0.1246(10)
N3 N 0.4078(4) 0.4337(4) -0.3264(10)
N4 N 0.2938(4) -0.2208(5) 0.2830(13)
N5 N 0.3920(4) -0.4345(5) 0.4461(12)
N6 N -0.0346(3) 0.0176(5) 0.2499(13)
N7 N -0.2274(4) -0.0168(6) 0.3922(14)
C1 C 0.2107(4) 0.0776(5) 0.0741(13)
C2 C 0.2521(4) 0.0666(5) -0.0264(13)
H1 H 0.2615 0.0208 -0.0530
C3 C 0.2794(4) 0.1210(6) -0.0877(13)
H2 H 0.3078 0.1127 -0.1555
C4 C 0.2658(4) 0.1868(5) -0.0512(12)
C5 C 0.2253(4) 0.1991(5) 0.0503(13)
H3 H 0.2159 0.2451 0.0757
C6 C 0.1989(4) 0.1449(5) 0.1138(13)
H4 H 0.1721 0.1535 0.1863
C7 C 0.3126(4) 0.2990(5) -0.0552(11)
C8 C 0.3448(4) 0.3449(5) -0.1574(11)
C9 C 0.3678(4) 0.3240(6) -0.2898(12)
H5 H 0.3626 0.2782 -0.3256
C10 C 0.3986(4) 0.3690(6) -0.3724(12)
H6 H 0.4138 0.3535 -0.4652
C11 C 0.3860(5) 0.4543(5) -0.1953(15)
H7 H 0.3923 0.5000 -0.1606
C12 C 0.3543(5) 0.4114(5) -0.1079(14)
H8 H 0.3395 0.4277 -0.0154
C13 C 0.2117(4) -0.0415(5) 0.1666(12)
C14 C 0.1949(4) -0.1033(6) 0.1041(15)
H9 H 0.1651 -0.1045 0.0359
C15 C 0.2214(4) -0.1635(5) 0.1410(14)
H10 H 0.2097 -0.2061 0.0987
C16 C 0.2649(4) -0.1621(5) 0.2388(12)
C17 C 0.2822(4) -0.0993(6) 0.2987(15)
H11 H 0.3124 -0.0978 0.3653
C18 C 0.2555(4) -0.0396(6) 0.2616(14)
H12 H 0.2676 0.0033 0.3020
C19 C 0.2845(4) -0.2873(6) 0.2486(13)
C20 C 0.3225(4) -0.3382(5) 0.3229(14)
C21 C 0.3292(4) -0.4013(6) 0.2530(16)
H13 H 0.3098 -0.4128 0.1621
C22 C 0.3644(4) -0.4470(6) 0.3173(14)
H14 H 0.3693 -0.4901 0.2676
C23 C 0.3837(5) -0.3748(6) 0.5152(15)
H15 H 0.4019 -0.3656 0.6093
C24 C 0.3498(5) -0.3254(6) 0.4559(14)
H16 H 0.3455 -0.2827 0.5076
C25 C 0.1285(4) 0.0230(5) 0.1678(13)
C26 C 0.0939(4) 0.0600(5) 0.0758(14)
H17 H 0.1067 0.0868 -0.0069
C27 C 0.0395(4) 0.0579(6) 0.1056(15)
H18 H 0.0153 0.0839 0.0441
C28 C 0.0210(4) 0.0180(6) 0.2238(14)
C29 C 0.0561(4) -0.0167(6) 0.3182(14)
H19 H 0.0436 -0.0422 0.4032
C30 C 0.1097(5) -0.0143(6) 0.2885(15)
H20 H 0.1338 -0.0390 0.3529
C31 C -0.0617(4) -0.0371(6) 0.3001(16)
C32 C -0.1199(4) -0.0283(6) 0.3238(14)
C33 C -0.1472(5) 0.0332(7) 0.3031(17)
H21 H -0.1297 0.0729 0.2649
C34 C -0.1998(5) 0.0355(6) 0.3390(17)
H22 H -0.2178 0.0781 0.3246
C35 C -0.2014(6) -0.0752(6) 0.4070(18)
H23 H -0.2203 -0.1143 0.4420
C36 C -0.1476(5) -0.0835(7) 0.3746(19)
H24 H -0.1308 -0.1269 0.3880
H25 H 0.297(3) 0.235(4) -0.218(12)
H26 H 0.321(4) -0.210(5) 0.333(10)
H27 H -0.057(7) 0.038(9) 0.18(2)
Cu1_2 Cu 0.44866(5) -0.50029(7) 0.53351(18)
Cu1B Cu 0.55134(5) 0.50029(7) -0.53351(18)
I1B I 0.51628(3) 0.57155(4) -0.29962(10)
N5_2 N 0.3920(4) 0.5655(5) -0.5539(12)
O4 O 0.0791(5) 0.6420(6) 0.3915(18)
N8 N 0.0800(6) 0.7547(7) 0.451(2)
C37 C 0.0602(7) 0.6907(8) 0.453(2)
H28 H 0.0286 0.6835 0.5087
C38 C 0.1252(9) 0.7731(13) 0.373(3)
H29 H 0.1464 0.7319 0.3524
H30 H 0.1462 0.8056 0.4348
H31 H 0.1150 0.7950 0.2752
C39 C 0.0504(11) 0.8118(10) 0.522(3)
H32 H 0.0236 0.7929 0.5901
H33 H 0.0331 0.8394 0.4416
H34 H 0.0750 0.8409 0.5815
O5 O 0.6086(4) 0.3318(6) 1.0678(16)
N9 N 0.5261(5) 0.3158(7) 0.9773(18)
C40 C 0.5672(9) 0.310(3) 1.055(5)
H35 H 0.5625 0.2745 1.1292
C41 C 0.5250(9) 0.3758(12) 0.878(2)
H36 H 0.5612 0.3927 0.8641
H37 H 0.5035 0.4121 0.9242
H38 H 0.5096 0.3631 0.7777
C42 C 0.4752(8) 0.2830(12) 0.989(3)
H39 H 0.4753 0.2396 0.9319
H40 H 0.4477 0.3135 0.9466
H41 H 0.4679 0.2737 1.0973
O6 O 0.9522(12) 0.7177(14) 0.675(6)
H42 H 0.9469 0.6780 0.7094
C43 C 0.9140(14) 0.7586(12) 0.716(6)
H43 H 0.9210 0.7747 0.8212
H44 H 0.8803 0.7335 0.7121
H45 H 0.9121 0.7982 0.6467
loop_
_geom_bond_atom_site_label_1
_geom_bond_atom_site_label_2
_geom_bond_site_symmetry_1
_geom_bond_site_symmetry_2
Cu1 I1 1_555 1_555
I1 Cu1B 1_555 1_555
O1 C7 1_555 1_555
O2 C19 1_555 1_555
O3 C31 1_555 1_555
N1 C1 1_555 1_555
N2 C4 1_555 1_555
N3 Cu1 1_555 1_555
N4 C16 1_555 1_555
N5 C22 1_555 1_555
N6 C28 1_555 1_555
N7 C34 1_555 1_555
C1 C2 1_555 1_555
C2 H1 1_555 1_555
C3 C2 1_555 1_555
H2 C3 1_555 1_555
C4 C3 1_555 1_555
C5 C4 1_555 1_555
H3 C5 1_555 1_555
C6 C1 1_555 1_555
H4 C6 1_555 1_555
C7 N2 1_555 1_555
C8 C7 1_555 1_555
C9 C8 1_555 1_555
H5 C9 1_555 1_555
C10 N3 1_555 1_555
H6 C10 1_555 1_555
C11 N3 1_555 1_555
H7 C11 1_555 1_555
C12 C8 1_555 1_555
H8 C12 1_555 1_555
C13 N1 1_555 1_555
C14 C13 1_555 1_555
H9 C14 1_555 1_555
C15 C14 1_555 1_555
H10 C15 1_555 1_555
C16 C15 1_555 1_555
C17 C16 1_555 1_555
H11 C17 1_555 1_555
C18 C13 1_555 1_555
H12 C18 1_555 1_555
C19 N4 1_555 1_555
C20 C19 1_555 1_555
C21 C20 1_555 1_555
H13 C21 1_555 1_555
C22 C21 1_555 1_555
H14 C22 1_555 1_555
C23 N5 1_555 1_555
H15 C23 1_555 1_555
C24 C20 1_555 1_555
H16 C24 1_555 1_555
C25 N1 1_555 1_555
C26 C25 1_555 1_555
H17 C26 1_555 1_555
C27 C26 1_555 1_555
H18 C27 1_555 1_555
C28 C27 1_555 1_555
C29 C28 1_555 1_555
H19 C29 1_555 1_555
C30 C25 1_555 1_555
H20 C30 1_555 1_555
C31 N6 1_555 1_555
C32 C31 1_555 1_555
C33 C32 1_555 1_555
H21 C33 1_555 1_555
C34 C33 1_555 1_555
H22 C34 1_555 1_555
C35 N7 1_555 1_555
H23 C35 1_555 1_555
C36 C32 1_555 1_555
H24 C36 1_555 1_555
H25 N2 1_555 1_555
H26 N4 1_555 1_555
H27 N6 1_555 1_555
O4 C37 1_555 1_555
N8 C37 1_555 1_555
C37 H28 1_555 1_555
C38 N8 1_555 1_555
H29 C38 1_555 1_555
H30 C38 1_555 1_555
H31 C38 1_555 1_555
C39 N8 1_555 1_555
H32 C39 1_555 1_555
H33 C39 1_555 1_555
H34 C39 1_555 1_555
O5 C40 1_555 1_555
N9 C40 1_555 1_555
C40 H35 1_555 1_555
C41 N9 1_555 1_555
H36 C41 1_555 1_555
H37 C41 1_555 1_555
H38 C41 1_555 1_555
C42 N9 1_555 1_555
H39 C42 1_555 1_555
H40 C42 1_555 1_555
H41 C42 1_555 1_555
O6 H42 1_555 1_555
C43 O6 1_555 1_555
H43 C43 1_555 1_555
H44 C43 1_555 1_555
H45 C43 1_555 1_555
Cu1_2 N5 1_555 1_555
Cu1B I1B 1_555 1_555
I1B Cu1 1_555 1_555
N5_2 Cu1 1_555 1_555
C5 C6 1_555 1_555
C9 C10 1_555 1_555
C11 C12 1_555 1_555
C17 C18 1_555 1_555
C23 C24 1_555 1_555
C29 C30 1_555 1_555
C35 C36 1_555 1_555

#END
