
#######################################################################
#
#                 Cambridge Crystallographic Data Centre
#                                CCDC 
#
#######################################################################
#
# If this CIF has been generated from an entry in the Cambridge 
# Structural Database, then it will include bibliographic, chemical, 
# crystal, experimental, refinement or atomic coordinate data resulting 
# from the CCDC's data processing and validation procedures.
#
#######################################################################

data_QEZLOX
_symmetry_cell_setting           monoclinic
_symmetry_space_group_name_H-M   'P 21/n'
_symmetry_Int_Tables_number      14
_space_group_name_Hall           '-P 2yn'
loop_
_symmetry_equiv_pos_site_id
_symmetry_equiv_pos_as_xyz
1 x,y,z
2 1/2-x,1/2+y,1/2-z
3 -x,-y,-z
4 1/2+x,1/2-y,1/2+z
_cell_length_a                   11.5313(7)
_cell_length_b                   16.3368(9)
_cell_length_c                   13.0762(8)
_cell_angle_alpha                90
_cell_angle_beta                 96.9580(10)
_cell_angle_gamma                90
_cell_volume                     2445.21
loop_
_atom_site_label
_atom_site_type_symbol
_atom_site_fract_x
_atom_site_fract_y
_atom_site_fract_z
Ag1 Ag 0.25579(4) 0.27463(3) 1.98673(4)
Ag2 Ag 0.75506(4) 0.36971(3) 1.98661(4)
O1 O 0.0390(4) 0.2955(3) 1.8479(4)
O2 O 0.5700(4) 0.4059(3) 2.0985(4)
O3 O -0.0550(4) 0.4073(3) 1.8716(4)
O4 O 0.3847(4) 0.3964(3) 2.0423(4)
O5 O 0.1300(4) 0.3978(3) 1.9273(4)
O6 O 0.4736(4) 0.2966(3) 2.1290(4)
N1 N 0.1468(5) 0.2191(3) 2.0990(4)
N2 N 0.3671(5) 0.2259(3) 1.8717(4)
N3 N 0.0394(5) 0.3670(4) 1.8817(4)
N4 N 0.7436(5) 0.2176(4) 2.0055(5)
H1 H 0.7202 0.1952 1.9444
H2 H 0.8137 0.1981 2.0295
H3 H 0.6927 0.2054 2.0492
N5 N 0.4754(4) 0.3663(4) 2.0906(4)
N6 N -0.0433(4) 0.1582(3) 2.1107(4)
N7 N 0.5584(5) 0.1684(4) 1.8597(4)
N8 N 0.3023(5) 0.2071(4) 2.2290(4)
H4 H 0.3459 0.2337 2.1917
H5 H 0.3305 0.1901 2.2892
N9 N 0.2150(5) 0.2173(4) 1.7403(4)
H6 H 0.1720 0.2449 1.7773
H7 H 0.1869 0.2011 1.6798
N10 N 0.1309(4) 0.1115(3) 2.3492(4)
N11 N 0.3853(5) 0.1195(3) 1.6219(4)
N12 N -0.0503(5) 0.0878(3) 2.2730(4)
N13 N 0.5683(5) 0.0982(3) 1.6981(4)
C1 C 0.0344(5) 0.2011(4) 2.0646(5)
H8 H 0.0073 0.2215 1.9997
C2 C 0.4797(5) 0.2084(4) 1.9068(5)
H9 H 0.5054 0.2269 1.9730
C3 C 0.0037(5) 0.1322(4) 2.2057(5)
C4 C 0.5133(6) 0.1420(4) 1.7655(5)
C5 C 0.1148(5) 0.1474(3) 2.2505(5)
C6 C 0.4014(5) 0.1560(4) 1.7196(5)
C7 C 0.1909(5) 0.1922(4) 2.1937(5)
C8 C 0.3237(5) 0.2000(4) 1.7763(5)
C9 C 0.0293(5) 0.0772(4) 2.3587(4)
H10 H 0.0134 0.0490 2.4172
C10 C 0.4881(6) 0.0864(4) 1.6128(5)
H11 H 0.5045 0.0580 1.5546
C11 C -0.1933(7) -0.0078(6) 2.1846(6)
H12 H -0.1460 -0.0539 2.1947
C12 C 0.7356(6) 0.0313(4) 1.8008(5)
H13 H 0.6914 -0.0116 1.8223
C13 C -0.2748(7) -0.0069(6) 2.1033(7)
H14 H -0.3235 0.0384 2.0911
H15 H -0.2830 -0.0514 2.0588
C14 C 0.8335(8) 0.0509(7) 1.8568(7)
H16 H 0.8788 0.0937 1.8365
H17 H 0.8578 0.0221 1.9170
C15 C 0.6926(5) 0.0751(4) 1.7043(5)
H18 H 0.7390 0.1242 1.6994
H19 H 0.7036 0.0404 1.6460
C16 C -0.1732(7) 0.0601(6) 2.2602(7)
H20 H -0.2235 0.1058 2.2372
H21 H -0.1940 0.0421 2.3262
Ag2_2 Ag -0.24494(4) 0.36971(3) 1.98661(4)
Ag2C Ag 0.25506(4) 0.13029(3) 2.48661(4)
Ag2C_2 Ag 0.25506(4) 0.13029(3) 1.48661(4)
O3_2 O 0.9450(4) 0.4073(3) 1.8716(4)
N10C N 0.6309(4) 0.3885(3) 1.8492(4)
N11C N 0.8853(5) 0.3805(3) 2.1219(4)
loop_
_geom_bond_atom_site_label_1
_geom_bond_atom_site_label_2
_geom_bond_site_symmetry_1
_geom_bond_site_symmetry_2
Ag1 O4 1_555 1_555
Ag2 O2 1_555 1_555
O1 N3 1_555 1_555
O2 N5 1_555 1_555
O3 N3 1_555 1_555
O4 N5 1_555 1_555
O5 Ag1 1_555 1_555
O6 N5 1_555 1_555
N1 Ag1 1_555 1_555
N2 Ag1 1_555 1_555
N3 O5 1_555 1_555
N4 Ag2 1_555 1_555
H1 N4 1_555 1_555
H2 N4 1_555 1_555
H3 N4 1_555 1_555
N6 C1 1_555 1_555
N7 C2 1_555 1_555
N8 H4 1_555 1_555
H5 N8 1_555 1_555
N9 H6 1_555 1_555
H7 N9 1_555 1_555
N10 C5 1_555 1_555
N11 C6 1_555 1_555
N12 C3 1_555 1_555
N13 C4 1_555 1_555
C1 N1 1_555 1_555
H8 C1 1_555 1_555
C2 N2 1_555 1_555
H9 C2 1_555 1_555
C3 N6 1_555 1_555
C4 N7 1_555 1_555
C5 C3 1_555 1_555
C6 C4 1_555 1_555
C7 N1 1_555 1_555
C8 N2 1_555 1_555
C9 N10 1_555 1_555
H10 C9 1_555 1_555
C10 N11 1_555 1_555
H11 C10 1_555 1_555
C11 H12 1_555 1_555
C12 H13 1_555 1_555
C13 C11 1_555 1_555
H14 C13 1_555 1_555
H15 C13 1_555 1_555
C14 C12 1_555 1_555
H16 C14 1_555 1_555
H17 C14 1_555 1_555
C15 N13 1_555 1_555
H18 C15 1_555 1_555
H19 C15 1_555 1_555
C16 N12 1_555 1_555
H20 C16 1_555 1_555
H21 C16 1_555 1_555
Ag2_2 O3 1_555 1_555
Ag2C N10 1_555 1_555
Ag2C_2 N11 1_555 1_555
O3_2 Ag2 1_555 1_555
N10C Ag2 1_555 1_555
N11C Ag2 1_555 1_555
N8 C7 1_555 1_555
N9 C8 1_555 1_555
N12 C9 1_555 1_555
N13 C10 1_555 1_555
C5 C7 1_555 1_555
C6 C8 1_555 1_555
C11 C16 1_555 1_555
C12 C15 1_555 1_555

#END
