
#######################################################################
#
#                 Cambridge Crystallographic Data Centre
#                                CCDC 
#
#######################################################################
#
# If this CIF has been generated from an entry in the Cambridge 
# Structural Database, then it will include bibliographic, chemical, 
# crystal, experimental, refinement or atomic coordinate data resulting 
# from the CCDC's data processing and validation procedures.
#
#######################################################################

data_QEZMEO
_symmetry_cell_setting           orthorhombic
_symmetry_space_group_name_H-M   'P n n a'
_symmetry_Int_Tables_number      52
_space_group_name_Hall           '-P 2a 2bc'
loop_
_symmetry_equiv_pos_site_id
_symmetry_equiv_pos_as_xyz
1 x,y,z
2 1/2-x,-y,z
3 x,1/2-y,1/2-z
4 1/2-x,1/2+y,1/2-z
5 -x,-y,-z
6 1/2+x,y,-z
7 -x,1/2+y,1/2+z
8 1/2+x,1/2-y,1/2+z
_cell_length_a                   14.6890(6)
_cell_length_b                   16.4720(6)
_cell_length_c                   8.3540(12)
_cell_angle_alpha                90
_cell_angle_beta                 90
_cell_angle_gamma                90
_cell_volume                     2021.31
loop_
_atom_site_label
_atom_site_type_symbol
_atom_site_fract_x
_atom_site_fract_y
_atom_site_fract_z
C1 C 0.09230(14) 0.18812(14) 0.0656(3)
C2 C 0.15774(15) 0.15397(16) -0.0610(3)
H1 H 0.1983 0.1141 -0.0111
H2 H 0.1940 0.1983 -0.1064
H3 H 0.1227 0.1277 -0.1463
C3 C 0.02362(14) 0.24339(16) -0.0183(3)
H4 H -0.0066 0.2132 -0.1043
H5 H 0.0554 0.2904 -0.0637
H6 H -0.0219 0.2620 0.0592
C4 C 0.04056(17) 0.11654(16) 0.1369(3)
H7 H 0.0095 0.0868 0.0513
H8 H -0.0045 0.1365 0.2140
H9 H 0.0834 0.0802 0.1914
C5 C 0.32599(14) 0.35583(14) 0.2417(3)
H10 H 0.3295 0.3364 0.3485
C6 C 0.39257(14) 0.40819(14) 0.1889(3)
H11 H 0.4400 0.4246 0.2591
C7 C 0.39025(14) 0.43713(14) 0.0322(3)
C8 C 0.31754(14) 0.41199(14) -0.0619(3)
H12 H 0.3123 0.4307 -0.1690
C9 C 0.25284(15) 0.35986(14) -0.0002(3)
H13 H 0.2036 0.3438 -0.0668
C10 C 0.46026(14) 0.49061(15) -0.0338(3)
N1 N 0.25644(12) 0.33086(11) 0.1503(2)
Zn1 Zn 0.15099(2) 0.2500 0.2500
H14 H 0.4479(13) 0.5126(13) -0.132(3)
C1B C 0.09230(14) 0.31188(14) 0.4344(3)
C2B C 0.15774(15) 0.34603(16) 0.5610(3)
H1B H 0.1983 0.3859 0.5111
H2B H 0.1940 0.3017 0.6064
H3B H 0.1227 0.3723 0.6463
C3B C 0.02362(14) 0.25661(16) 0.5183(3)
H4B H -0.0066 0.2868 0.6043
H5B H 0.0554 0.2096 0.5637
H6B H -0.0219 0.2380 0.4408
C4B C 0.04056(17) 0.38346(16) 0.3631(3)
H7B H 0.0095 0.4132 0.4487
H8B H -0.0045 0.3635 0.2860
H9B H 0.0834 0.4198 0.3086
C5D C 0.67401(14) 0.64417(14) -0.2417(3)
H10D H 0.6705 0.6636 -0.3485
C6D C 0.60743(14) 0.59181(14) -0.1889(3)
H11D H 0.5600 0.5754 -0.2591
C7D C 0.60975(14) 0.56287(14) -0.0322(3)
C8D C 0.68246(14) 0.58801(14) 0.0619(3)
H12D H 0.6877 0.5693 0.1690
C9D C 0.74716(15) 0.64014(14) 0.0002(3)
H13D H 0.7964 0.6562 0.0668
C10D C 0.53974(14) 0.50939(15) 0.0338(3)
N1D N 0.74356(12) 0.66914(11) -0.1503(2)
N1B N 0.25644(12) 0.16914(11) 0.3497(2)
Zn1F Zn 0.84901(2) 0.7500 -0.2500
H14D H 0.5521(13) 0.4874(13) 0.132(3)
loop_
_geom_bond_atom_site_label_1
_geom_bond_atom_site_label_2
_geom_bond_site_symmetry_1
_geom_bond_site_symmetry_2
C1 C2 1_555 1_555
C2 H1 1_555 1_555
H2 C2 1_555 1_555
H3 C2 1_555 1_555
C3 C1 1_555 1_555
H4 C3 1_555 1_555
H5 C3 1_555 1_555
H6 C3 1_555 1_555
C4 C1 1_555 1_555
H7 C4 1_555 1_555
H8 C4 1_555 1_555
H9 C4 1_555 1_555
C5 H10 1_555 1_555
C6 C5 1_555 1_555
H11 C6 1_555 1_555
C7 C6 1_555 1_555
C8 C7 1_555 1_555
H12 C8 1_555 1_555
C9 C8 1_555 1_555
H13 C9 1_555 1_555
C10 C7 1_555 1_555
N1 C5 1_555 1_555
Zn1 C1 1_555 1_555
H14 C10 1_555 1_555
C1B Zn1 1_555 1_555
C2B C1B 1_555 1_555
H1B C2B 1_555 1_555
H2B C2B 1_555 1_555
H3B C2B 1_555 1_555
C3B C1B 1_555 1_555
H4B C3B 1_555 1_555
H5B C3B 1_555 1_555
H6B C3B 1_555 1_555
C4B C1B 1_555 1_555
H7B C4B 1_555 1_555
H8B C4B 1_555 1_555
H9B C4B 1_555 1_555
C5D H10D 1_555 1_555
C6D C5D 1_555 1_555
H11D C6D 1_555 1_555
C7D C6D 1_555 1_555
C8D C7D 1_555 1_555
H12D C8D 1_555 1_555
C9D C8D 1_555 1_555
H13D C9D 1_555 1_555
C10D C10 1_555 1_555
N1D C5D 1_555 1_555
N1B Zn1 1_555 1_555
Zn1F N1D 1_555 1_555
H14D C10D 1_555 1_555
C9 N1 1_555 1_555
N1 Zn1 1_555 1_555
C7D C10D 1_555 1_555
C9D N1D 1_555 1_555

#END
