
#######################################################################
#
#                 Cambridge Crystallographic Data Centre
#                                CCDC 
#
#######################################################################
#
# If this CIF has been generated from an entry in the Cambridge 
# Structural Database, then it will include bibliographic, chemical, 
# crystal, experimental, refinement or atomic coordinate data resulting 
# from the CCDC's data processing and validation procedures.
#
#######################################################################

data_QEZNOA
_symmetry_cell_setting           triclinic
_symmetry_space_group_name_H-M   'P -1'
_symmetry_Int_Tables_number      2
_space_group_name_Hall           '-P 1'
loop_
_symmetry_equiv_pos_site_id
_symmetry_equiv_pos_as_xyz
1 x,y,z
2 -x,-y,-z
_cell_length_a                   3.9330(8)
_cell_length_b                   12.012(2)
_cell_length_c                   15.803(3)
_cell_angle_alpha                109.56(3)
_cell_angle_beta                 96.68(3)
_cell_angle_gamma                98.47(3)
_cell_volume                     684.75
loop_
_atom_site_label
_atom_site_type_symbol
_atom_site_fract_x
_atom_site_fract_y
_atom_site_fract_z
C1 C 0.997(2) 0.4051(6) 0.3292(5)
H1 H 1.0841 0.3470 0.3472
C2 C 1.0738(19) 0.5244(6) 0.3882(4)
H2 H 1.2066 0.5445 0.4458
C3 C 0.7696(19) 0.5794(6) 0.2821(4)
H3 H 0.6922 0.6384 0.2634
C4 C 0.681(2) 0.4596(6) 0.2230(4)
C5 C 0.4499(17) 0.4249(5) 0.1320(4)
C6 C 0.2270(16) 0.2415(5) -0.0085(4)
C7 C 0.2264(17) 0.1168(5) -0.0428(4)
H4 H 0.3384 0.0809 -0.0068
C8 C 0.0574(18) 0.0495(6) -0.1302(4)
C9 C -0.1158(19) 0.0984(7) -0.1858(4)
H5 H -0.2304 0.0512 -0.2447
C10 C -0.112(2) 0.2218(8) -0.1496(5)
H6 H -0.2265 0.2565 -0.1860
C11 C 0.0545(19) 0.2947(6) -0.0628(5)
H7 H 0.0522 0.3766 -0.0408
N1 N 0.7991(16) 0.3726(5) 0.2464(4)
N2 N 0.9613(16) 0.6114(5) 0.3642(4)
N3 N 0.4141(17) 0.3063(5) 0.0800(3)
H8 H 0.5223 0.2650 0.1051
O1 O 0.3131(19) 0.4976(5) 0.1122(4)
Cl1 Cl 0.7145(5) 0.89361(16) 0.38847(11)
Cl2 Cl 1.5123(5) 0.7908(2) 0.57896(12)
Cl3 Cl 0.0711(7) -0.10346(18) -0.17185(13)
Hg1 Hg 1.10568(5) 0.830308(19) 0.478001(14)
Cl1_2 Cl 1.7145(5) 0.89361(16) 0.38847(11)
Cl2_2 Cl 0.5123(5) 0.7908(2) 0.57896(12)
Hg1_2 Hg 0.10568(5) 0.830308(19) 0.478001(14)
Hg1_3 Hg 2.10568(5) 0.830308(19) 0.478001(14)
loop_
_geom_bond_atom_site_label_1
_geom_bond_atom_site_label_2
_geom_bond_site_symmetry_1
_geom_bond_site_symmetry_2
C1 H1 1_555 1_555
C2 C1 1_555 1_555
H2 C2 1_555 1_555
C3 H3 1_555 1_555
C4 C3 1_555 1_555
C5 C4 1_555 1_555
C6 C7 1_555 1_555
C7 H4 1_555 1_555
C8 C7 1_555 1_555
C9 C8 1_555 1_555
H5 C9 1_555 1_555
C10 C9 1_555 1_555
H6 C10 1_555 1_555
C11 C6 1_555 1_555
H7 C11 1_555 1_555
N1 C1 1_555 1_555
N2 C2 1_555 1_555
N3 C5 1_555 1_555
H8 N3 1_555 1_555
O1 C5 1_555 1_555
Cl1 Hg1 1_555 1_555
Cl2 Hg1 1_555 1_555
Cl3 C8 1_555 1_555
Hg1 N2 1_555 1_555
Cl1_2 Hg1 1_555 1_555
Cl2_2 Hg1 1_555 1_555
Hg1_2 Cl1 1_555 1_555
Hg1_3 Cl2 1_555 1_555
C3 N2 1_555 1_555
C4 N1 1_555 1_555
C6 N3 1_555 1_555
C10 C11 1_555 1_555
Cl1_2 Hg1_3 1_555 1_555
Cl2_2 Hg1_2 1_555 1_555

#END
