
#######################################################################
#
#                 Cambridge Crystallographic Data Centre
#                                CCDC 
#
#######################################################################
#
# If this CIF has been generated from an entry in the Cambridge 
# Structural Database, then it will include bibliographic, chemical, 
# crystal, experimental, refinement or atomic coordinate data resulting 
# from the CCDC's data processing and validation procedures.
#
#######################################################################

data_QEZQOD
_symmetry_cell_setting           monoclinic
_symmetry_space_group_name_H-M   'C 2/m'
_symmetry_Int_Tables_number      12
_space_group_name_Hall           '-C 2y'
loop_
_symmetry_equiv_pos_site_id
_symmetry_equiv_pos_as_xyz
1 x,y,z
2 -x,y,-z
3 1/2+x,1/2+y,z
4 1/2-x,1/2+y,-z
5 -x,-y,-z
6 x,-y,z
7 1/2-x,1/2-y,-z
8 1/2+x,1/2-y,z
_cell_length_a                   13.9063(13)
_cell_length_b                   6.9034(7)
_cell_length_c                   17.5611(17)
_cell_angle_alpha                90
_cell_angle_beta                 103.402(7)
_cell_angle_gamma                90
_cell_volume                     1639.97
loop_
_atom_site_label
_atom_site_type_symbol
_atom_site_fract_x
_atom_site_fract_y
_atom_site_fract_z
C1 C 0.3985(7) 0.0000 0.3018(7)
H1 H 0.4672 0.0000 0.3166
C2 C 0.3453(8) 0.0000 0.3593(6)
H2 H 0.3787 0.0000 0.4117
C3 C 0.2014(7) 0.0000 0.2656(6)
H3 H 0.1326 0.0000 0.2519
C4 C 0.2538(6) 0.0000 0.2071(5)
C5 C 0.2023(7) 0.0000 0.1228(6)
C6 C 0.2421(6) 0.0000 -0.0086(5)
C7 C 0.3249(6) 0.0000 -0.0417(6)
H4 H 0.3885 0.0000 -0.0100
C8 C 0.3099(6) 0.0000 -0.1226(5)
C9 C 0.2164(7) 0.0000 -0.1706(7)
H5 H 0.2075 0.0000 -0.2248
C10 C 0.1350(7) 0.0000 -0.1363(7)
H6 H 0.0712 0.0000 -0.1678
C11 C 0.1493(7) 0.0000 -0.0562(6)
H7 H 0.0947 0.0000 -0.0340
N1 N 0.3543(6) 0.0000 0.2258(5)
N2 N 0.2481(6) 0.0000 0.3410(5)
N3 N 0.2646(6) 0.0000 0.0747(5)
H8 H 0.3265 0.0000 0.0973
O1 O 0.1117(5) 0.0000 0.1028(5)
Hg1 Hg 0.15996(3) 0.0000 0.44890(3)
I1 I 0.30725(5) 0.0000 0.57450(4)
I2 I -0.02357(5) 0.0000 0.37216(5)
I3 I 0.43494(5) 0.0000 -0.16984(4)
Hg1C Hg 0.34004(3) -0.5000 0.55110(3)
Hg1C_2 Hg 0.34004(3) 0.5000 0.55110(3)
I1C I 0.19275(5) -0.5000 0.42550(4)
I1C_2 I 0.19275(5) 0.5000 0.42550(4)
loop_
_geom_bond_atom_site_label_1
_geom_bond_atom_site_label_2
_geom_bond_site_symmetry_1
_geom_bond_site_symmetry_2
C1 H1 1_555 1_555
C2 C1 1_555 1_555
H2 C2 1_555 1_555
C3 H3 1_555 1_555
C4 C3 1_555 1_555
C5 C4 1_555 1_555
C6 C7 1_555 1_555
C7 H4 1_555 1_555
C8 C7 1_555 1_555
C9 C8 1_555 1_555
H5 C9 1_555 1_555
C10 C9 1_555 1_555
H6 C10 1_555 1_555
C11 C6 1_555 1_555
H7 C11 1_555 1_555
N1 C1 1_555 1_555
N2 C2 1_555 1_555
N3 C5 1_555 1_555
H8 N3 1_555 1_555
O1 C5 1_555 1_555
Hg1 N2 1_555 1_555
I1 Hg1 1_555 1_555
I2 Hg1 1_555 1_555
I3 C8 1_555 1_555
Hg1C I1 1_555 1_555
Hg1C_2 I1 1_555 1_555
I1C Hg1 1_555 1_555
I1C_2 Hg1 1_555 1_555
C3 N2 1_555 1_555
C4 N1 1_555 1_555
C6 N3 1_555 1_555
C10 C11 1_555 1_555
Hg1C I1C 1_555 1_555
Hg1C_2 I1C_2 1_555 1_555

#END
