
#######################################################################
#
#                 Cambridge Crystallographic Data Centre
#                                CCDC 
#
#######################################################################
#
# If this CIF has been generated from an entry in the Cambridge 
# Structural Database, then it will include bibliographic, chemical, 
# crystal, experimental, refinement or atomic coordinate data resulting 
# from the CCDC's data processing and validation procedures.
#
#######################################################################

data_QEZQIX
_symmetry_cell_setting           monoclinic
_symmetry_space_group_name_H-M   'C 2/m'
_symmetry_Int_Tables_number      12
_space_group_name_Hall           '-C 2y'
loop_
_symmetry_equiv_pos_site_id
_symmetry_equiv_pos_as_xyz
1 x,y,z
2 -x,y,-z
3 1/2+x,1/2+y,z
4 1/2-x,1/2+y,-z
5 -x,-y,-z
6 x,-y,z
7 1/2-x,1/2-y,-z
8 1/2+x,1/2-y,z
_cell_length_a                   13.609(2)
_cell_length_b                   6.9070(10)
_cell_length_c                   17.596(3)
_cell_angle_alpha                90
_cell_angle_beta                 102.494(12)
_cell_angle_gamma                90
_cell_volume                     1614.81
loop_
_atom_site_label
_atom_site_type_symbol
_atom_site_fract_x
_atom_site_fract_y
_atom_site_fract_z
C1 C 0.5959(10) 0.0000 0.2052(7)
H1 H 0.5259 0.0000 0.1920
C2 C 0.6527(10) 0.0000 0.1457(8)
H2 H 0.6182 0.0000 0.0939
C3 C 0.7974(9) 0.0000 0.2374(7)
H3 H 0.8673 0.0000 0.2516
C4 C 0.7417(10) 0.0000 0.2935(7)
C5 C 0.7964(9) 0.0000 0.3778(7)
C6 C 0.7556(9) 0.0000 0.5091(7)
C7 C 0.6700(9) 0.0000 0.5429(7)
H4 H 0.6051 0.0000 0.5122
C8 C 0.6869(10) 0.0000 0.6239(8)
C9 C 0.7819(14) 0.0000 0.6708(8)
H5 H 0.7908 0.0000 0.7247
C10 C 0.8649(11) 0.0000 0.6358(8)
H6 H 0.9297 0.0000 0.6667
C11 C 0.8517(10) 0.0000 0.5557(7)
H7 H 0.9074 0.0000 0.5330
N1 N 0.6434(8) 0.0000 0.2788(7)
N2 N 0.7508(8) 0.0000 0.1609(6)
N3 N 0.7349(8) 0.0000 0.4275(6)
H8 H 0.6719 0.0000 0.4057
O1 O 0.8899(8) 0.0000 0.3968(7)
Hg1 Hg 0.83911(4) 0.0000 0.05193(3)
Br1 Br 0.57077(14) 0.0000 0.66774(10)
I1 I 0.68786(7) 0.0000 -0.07049(5)
I2 I 1.02559(7) 0.0000 0.12699(6)
Hg1C Hg 0.66089(4) -0.5000 -0.05193(3)
Hg1C_2 Hg 0.66089(4) 0.5000 -0.05193(3)
I1C I 0.81214(7) -0.5000 0.07049(5)
I1C_2 I 0.81214(7) 0.5000 0.07049(5)
loop_
_geom_bond_atom_site_label_1
_geom_bond_atom_site_label_2
_geom_bond_site_symmetry_1
_geom_bond_site_symmetry_2
C1 H1 1_555 1_555
C2 C1 1_555 1_555
H2 C2 1_555 1_555
C3 H3 1_555 1_555
C4 C3 1_555 1_555
C5 C4 1_555 1_555
C6 C7 1_555 1_555
C7 H4 1_555 1_555
C8 C7 1_555 1_555
C9 C8 1_555 1_555
H5 C9 1_555 1_555
C10 C9 1_555 1_555
H6 C10 1_555 1_555
C11 C6 1_555 1_555
H7 C11 1_555 1_555
N1 C1 1_555 1_555
N2 C2 1_555 1_555
N3 C5 1_555 1_555
H8 N3 1_555 1_555
O1 C5 1_555 1_555
Hg1 N2 1_555 1_555
Br1 C8 1_555 1_555
I1 Hg1 1_555 1_555
I2 Hg1 1_555 1_555
Hg1C I1 1_555 1_555
Hg1C_2 I1 1_555 1_555
I1C Hg1 1_555 1_555
I1C_2 Hg1 1_555 1_555
C3 N2 1_555 1_555
C4 N1 1_555 1_555
C6 N3 1_555 1_555
C10 C11 1_555 1_555
Hg1C I1C 1_555 1_555
Hg1C_2 I1C_2 1_555 1_555

#END
