
#######################################################################
#
#                 Cambridge Crystallographic Data Centre
#                                CCDC 
#
#######################################################################
#
# If this CIF has been generated from an entry in the Cambridge 
# Structural Database, then it will include bibliographic, chemical, 
# crystal, experimental, refinement or atomic coordinate data resulting 
# from the CCDC's data processing and validation procedures.
#
#######################################################################

data_QIBGAJ
_symmetry_cell_setting           monoclinic
_symmetry_space_group_name_H-M   'P 21/n'
_symmetry_Int_Tables_number      14
_space_group_name_Hall           '-P 2yn'
loop_
_symmetry_equiv_pos_site_id
_symmetry_equiv_pos_as_xyz
1 x,y,z
2 1/2+x,1/2-y,1/2+z
3 -x,-y,-z
4 1/2-x,1/2+y,1/2-z
_cell_length_a                   7.8975(4)
_cell_length_b                   17.6323(8)
_cell_length_c                   15.1057(7)
_cell_angle_alpha                90
_cell_angle_beta                 96.3600(10)
_cell_angle_gamma                90
_cell_volume                     2090.54
loop_
_atom_site_label
_atom_site_type_symbol
_atom_site_fract_x
_atom_site_fract_y
_atom_site_fract_z
Co1 Co 0.21362(4) 0.387810(19) 0.16625(2)
N1 N 0.1977(2) 0.50583(12) 0.15353(13)
C1 C 0.1777(4) 0.55433(17) 0.22072(19)
H1 H 0.1596 0.5346 0.2760
C2 C 0.1829(4) 0.63155(19) 0.2107(2)
H2 H 0.1713 0.6637 0.2585
C3 C 0.2059(4) 0.66034(19) 0.1280(3)
H3 H 0.2059 0.7124 0.1185
C4 C 0.2285(4) 0.61147(17) 0.0602(2)
H4 H 0.2459 0.6302 0.0044
C5 C 0.2256(3) 0.53433(14) 0.07465(16)
C6 C 0.2472(3) 0.47636(16) 0.00406(16)
C7 C 0.2806(4) 0.4952(2) -0.08116(18)
H5 H 0.2901 0.5457 -0.0976
C8 C 0.2995(5) 0.4384(2) -0.1410(2)
H6 H 0.3218 0.4501 -0.1986
C9 C 0.2856(5) 0.3646(2) -0.1159(2)
H7 H 0.2983 0.3256 -0.1560
C10 C 0.2523(4) 0.34860(19) -0.03021(18)
H8 H 0.2396 0.2983 -0.0137
N2 N 0.2377(3) 0.40342(12) 0.03017(13)
O1 O -0.0437(2) 0.35833(10) 0.15881(11)
O2 O 0.1458(2) 0.26779(10) 0.15684(13)
C11 C -0.0073(3) 0.28845(13) 0.15381(14)
C12 C -0.1482(3) 0.23159(13) 0.13932(14)
C13 C -0.3168(3) 0.25477(13) 0.12057(16)
H9 H -0.3440 0.3059 0.1240
C14 C -0.4438(3) 0.20249(14) 0.09699(17)
H10 H -0.5564 0.2182 0.0846
C15 C -0.4024(3) 0.12688(13) 0.09204(14)
C16 C -0.2391(3) 0.10213(13) 0.11628(16)
H11 H -0.2139 0.0506 0.1171
C17 C -0.1130(3) 0.15479(14) 0.13931(16)
H12 H -0.0019 0.1383 0.1552
O3 O -0.5255(2) 0.07207(10) 0.06850(12)
C18 C -0.6506(3) 0.08867(14) -0.00099(15)
C19 C -0.6116(3) 0.10831(14) -0.08483(17)
H13 H -0.4989 0.1159 -0.0952
C20 C -0.7422(3) 0.11665(14) -0.15335(16)
H14 H -0.7169 0.1286 -0.2104
C21 C -0.9106(3) 0.10726(13) -0.13730(14)
C22 C -0.9461(3) 0.08871(18) -0.05274(16)
H15 H -1.0588 0.0832 -0.0413
C23 C -0.8167(3) 0.07829(19) 0.01502(17)
H16 H -0.8417 0.0643 0.0715
C24 C -1.0535(3) 0.11233(13) -0.21091(15)
O4 O -1.0215(2) 0.11396(10) -0.29081(11)
O5 O -1.2061(2) 0.11234(11) -0.19293(12)
Co1A Co -1.28638(4) 0.112190(19) -0.33375(2)
O4A O 0.4785(2) 0.38604(10) 0.20919(11)
O5A O 0.2939(2) 0.38766(11) 0.30707(12)
loop_
_geom_bond_atom_site_label_1
_geom_bond_atom_site_label_2
_geom_bond_site_symmetry_1
_geom_bond_site_symmetry_2
Co1 N1 1_555 1_555
N1 C1 1_555 1_555
C1 H1 1_555 1_555
C2 C1 1_555 1_555
H2 C2 1_555 1_555
C3 C2 1_555 1_555
H3 C3 1_555 1_555
C4 C3 1_555 1_555
H4 C4 1_555 1_555
C5 N1 1_555 1_555
C6 C5 1_555 1_555
C7 C6 1_555 1_555
H5 C7 1_555 1_555
C8 C7 1_555 1_555
H6 C8 1_555 1_555
C9 C8 1_555 1_555
H7 C9 1_555 1_555
C10 C9 1_555 1_555
H8 C10 1_555 1_555
N2 Co1 1_555 1_555
O1 Co1 1_555 1_555
O2 Co1 1_555 1_555
C11 O1 1_555 1_555
C12 C11 1_555 1_555
C13 C12 1_555 1_555
H9 C13 1_555 1_555
C14 C13 1_555 1_555
H10 C14 1_555 1_555
C15 C14 1_555 1_555
C16 C15 1_555 1_555
H11 C16 1_555 1_555
C17 C12 1_555 1_555
H12 C17 1_555 1_555
O3 C15 1_555 1_555
C18 O3 1_555 1_555
C19 C18 1_555 1_555
H13 C19 1_555 1_555
C20 C19 1_555 1_555
H14 C20 1_555 1_555
C21 C20 1_555 1_555
C22 C21 1_555 1_555
H15 C22 1_555 1_555
C23 C18 1_555 1_555
H16 C23 1_555 1_555
C24 C21 1_555 1_555
O4 C24 1_555 1_555
O5 C24 1_555 1_555
Co1A O4 1_555 1_555
O4A Co1 1_555 1_555
O5A Co1 1_555 1_555
C4 C5 1_555 1_555
C6 N2 1_555 1_555
C10 N2 1_555 1_555
O2 C11 1_555 1_555
C16 C17 1_555 1_555
C22 C23 1_555 1_555
O5 Co1A 1_555 1_555

#END
