
#######################################################################
#
#                 Cambridge Crystallographic Data Centre
#                                CCDC 
#
#######################################################################
#
# If this CIF has been generated from an entry in the Cambridge 
# Structural Database, then it will include bibliographic, chemical, 
# crystal, experimental, refinement or atomic coordinate data resulting 
# from the CCDC's data processing and validation procedures.
#
#######################################################################

data_QIBGAJ02
_symmetry_cell_setting           monoclinic
_symmetry_space_group_name_H-M   'P 21/c'
_symmetry_Int_Tables_number      14
_space_group_name_Hall           '-P 2ybc'
loop_
_symmetry_equiv_pos_site_id
_symmetry_equiv_pos_as_xyz
1 x,y,z
2 -x,1/2+y,1/2-z
3 -x,-y,-z
4 x,1/2-y,1/2+z
_cell_length_a                   12.026(2)
_cell_length_b                   15.120(3)
_cell_length_c                   11.361(2)
_cell_angle_alpha                90
_cell_angle_beta                 91.46(3)
_cell_angle_gamma                90
_cell_volume                     2065.14
loop_
_atom_site_label
_atom_site_type_symbol
_atom_site_fract_x
_atom_site_fract_y
_atom_site_fract_z
C1 C -0.05902(19) -0.08381(14) 0.29825(19)
H1 H -0.0724 -0.0648 0.3744
C2 C -0.12804(19) -0.14696(15) 0.2475(2)
H2 H -0.1859 -0.1712 0.2897
C3 C -0.11007(19) -0.17364(13) 0.1337(2)
H3 H -0.1568 -0.2151 0.0976
C4 C -0.02215(17) -0.13829(11) 0.07371(17)
H4 H -0.0089 -0.1554 -0.0033
C5 C 0.04602(15) -0.07683(11) 0.13030(14)
C6 C 0.14555(15) -0.03756(11) 0.07629(15)
C7 C 0.18305(19) -0.06313(14) -0.03332(18)
H5 H 0.1448 -0.1057 -0.0775
C8 C 0.2778(2) -0.02443(18) -0.0755(2)
H6 H 0.3047 -0.0412 -0.1482
C9 C 0.3325(2) 0.03930(17) -0.0093(2)
H7 H 0.3960 0.0667 -0.0368
C10 C 0.29098(18) 0.06131(13) 0.0982(2)
H8 H 0.3279 0.1040 0.1433
C11 C 0.95713(15) 0.34922(11) 0.81289(15)
C12 C 0.85050(14) 0.29882(10) 0.81558(14)
C13 C 0.77773(16) 0.31043(12) 0.90713(15)
H9 H 0.7950 0.3505 0.9669
C14 C 0.67967(17) 0.26278(14) 0.91014(16)
H10 H 0.6304 0.2712 0.9709
C15 C 0.65593(15) 0.20258(13) 0.82162(14)
C16 C 0.72729(15) 0.18954(11) 0.72941(14)
H11 H 0.7103 0.1486 0.6705
C17 C 0.82433(15) 0.23860(11) 0.72663(14)
H12 H 0.8725 0.2312 0.6647
C18 C 0.28028(15) 0.08181(12) 0.43739(15)
C19 C 0.36128(14) 0.09934(12) 0.53637(15)
C20 C 0.39398(17) 0.18547(13) 0.56100(18)
H13 H 0.3699 0.2313 0.5121
C21 C 0.46216(19) 0.20369(14) 0.65779(18)
H14 H 0.4834 0.2616 0.6744
C22 C 0.49840(16) 0.13559(14) 0.72943(15)
C23 C 0.46941(17) 0.04925(13) 0.70425(17)
H15 H 0.4963 0.0033 0.7514
C24 C 0.39999(17) 0.03160(13) 0.60832(17)
H16 H 0.3791 -0.0264 0.5919
N1 N 0.02653(13) -0.04923(9) 0.24102(13)
N2 N 0.19974(13) 0.02389(10) 0.14062(13)
O1 O 0.23663(12) 0.00623(9) 0.42688(12)
O2 O 0.25331(13) 0.14287(9) 0.36711(13)
O3 O 0.56030(13) 0.15147(11) 0.83196(11)
O4 O 1.01060(11) 0.35098(9) 0.71869(11)
O5 O 0.99235(12) 0.38972(9) 0.90300(11)
Co1 Co 0.12356(2) 0.057009(15) 0.297620(19)
O4C O 0.01060(11) 0.14902(9) 0.21869(11)
O5C O -0.00765(12) 0.11028(9) 0.40300(11)
Co1C Co 1.12356(2) 0.442991(15) 0.797620(19)
loop_
_geom_bond_atom_site_label_1
_geom_bond_atom_site_label_2
_geom_bond_site_symmetry_1
_geom_bond_site_symmetry_2
C1 H1 1_555 1_555
C2 C1 1_555 1_555
H2 C2 1_555 1_555
C3 C2 1_555 1_555
H3 C3 1_555 1_555
C4 C3 1_555 1_555
H4 C4 1_555 1_555
C5 C4 1_555 1_555
C6 C5 1_555 1_555
C7 C6 1_555 1_555
H5 C7 1_555 1_555
C8 C7 1_555 1_555
H6 C8 1_555 1_555
C9 C8 1_555 1_555
H7 C9 1_555 1_555
C10 C9 1_555 1_555
H8 C10 1_555 1_555
C11 C12 1_555 1_555
C12 C13 1_555 1_555
C13 H9 1_555 1_555
C14 C13 1_555 1_555
H10 C14 1_555 1_555
C15 C14 1_555 1_555
C16 C15 1_555 1_555
H11 C16 1_555 1_555
C17 C12 1_555 1_555
H12 C17 1_555 1_555
C18 C19 1_555 1_555
C19 C20 1_555 1_555
C20 H13 1_555 1_555
C21 C20 1_555 1_555
H14 C21 1_555 1_555
C22 C21 1_555 1_555
C23 C22 1_555 1_555
H15 C23 1_555 1_555
C24 C19 1_555 1_555
H16 C24 1_555 1_555
N1 C1 1_555 1_555
N2 C6 1_555 1_555
O1 C18 1_555 1_555
O2 C18 1_555 1_555
O3 C15 1_555 1_555
O4 C11 1_555 1_555
O5 C11 1_555 1_555
Co1 N1 1_555 1_555
O4C Co1 1_555 1_555
O5C Co1 1_555 1_555
Co1C O4 1_555 1_555
C5 N1 1_555 1_555
C10 N2 1_555 1_555
C16 C17 1_555 1_555
C22 O3 1_555 1_555
C23 C24 1_555 1_555
N2 Co1 1_555 1_555
O1 Co1 1_555 1_555
O2 Co1 1_555 1_555
O5 Co1C 1_555 1_555

#END
