
#######################################################################
#
#                 Cambridge Crystallographic Data Centre
#                                CCDC 
#
#######################################################################
#
# If this CIF has been generated from an entry in the Cambridge 
# Structural Database, then it will include bibliographic, chemical, 
# crystal, experimental, refinement or atomic coordinate data resulting 
# from the CCDC's data processing and validation procedures.
#
#######################################################################

data_QIBLOD
_symmetry_cell_setting           monoclinic
_symmetry_space_group_name_H-M   'P 21/n'
_symmetry_Int_Tables_number      14
_space_group_name_Hall           '-P 2yn'
loop_
_symmetry_equiv_pos_site_id
_symmetry_equiv_pos_as_xyz
1 x,y,z
2 1/2-x,1/2+y,1/2-z
3 -x,-y,-z
4 1/2+x,1/2-y,1/2+z
_cell_length_a                   9.1394(2)
_cell_length_b                   18.5785(5)
_cell_length_c                   22.8438(7)
_cell_angle_alpha                90
_cell_angle_beta                 91.218(2)
_cell_angle_gamma                90
_cell_volume                     3877.92
loop_
_atom_site_label
_atom_site_type_symbol
_atom_site_fract_x
_atom_site_fract_y
_atom_site_fract_z
Tl1 Tl 0.15301(2) 0.581022(11) 0.446276(10)
Tl2 Tl 0.38779(2) 0.386130(12) 0.565250(10)
S1 S 0.13167(14) 0.40611(7) 0.47153(6)
S2 S 0.28315(13) 0.38098(7) 0.35664(6)
S3 S -0.10468(15) 0.61544(7) 0.35241(7)
S4 S -0.27950(15) 0.56620(8) 0.24682(7)
S5 S -0.43287(14) 0.43889(7) 0.45519(6)
S6 S -0.41062(13) 0.28198(7) 0.42353(6)
N1 N 0.0217(4) 0.4225(2) 0.36144(19)
N2 N 0.0468(4) 0.4151(2) 0.3025(2)
N3 N -0.2120(4) 0.4812(2) 0.32889(19)
N4 N -0.2931(5) 0.4393(2) 0.2894(2)
N5 N -0.2196(4) 0.3723(2) 0.39445(19)
N6 N -0.1718(4) 0.3080(2) 0.37146(19)
B1 B -0.1341(6) 0.4436(3) 0.3813(3)
C1 C 0.1339(5) 0.4054(2) 0.3972(2)
C2 C 0.1784(6) 0.3935(3) 0.2939(3)
C3 C -0.1932(5) 0.5504(3) 0.3138(2)
C4 C -0.3338(6) 0.4778(3) 0.2454(3)
C5 C -0.3450(5) 0.3697(3) 0.4234(2)
C6 C -0.2614(6) 0.2571(3) 0.3833(2)
H1 H -0.123(5) 0.479(3) 0.421(2)
H2 H 0.207(6) 0.382(3) 0.256(3)
H3 H -0.395(5) 0.460(2) 0.213(2)
H4 H -0.245(5) 0.211(3) 0.371(2)
S7 S 0.36153(15) 0.56947(7) 0.33148(7)
S8 S 0.16258(15) 0.62078(8) 0.23399(7)
S9 S 0.06001(15) 0.75085(7) 0.45975(7)
S10 S 0.05638(14) 0.90098(7) 0.41198(6)
S11 S 0.60364(15) 0.78165(8) 0.45302(6)
S12 S 0.74394(14) 0.80484(7) 0.33590(6)
N7 N 0.2454(4) 0.7033(2) 0.31512(19)
N8 N 0.1565(5) 0.7462(2) 0.2794(2)
N9 N 0.2475(4) 0.8106(2) 0.38258(19)
N10 N 0.2821(5) 0.8735(2) 0.3524(2)
N11 N 0.4850(4) 0.7609(2) 0.34451(19)
N12 N 0.5057(5) 0.7655(2) 0.2852(2)
B2 B 0.3301(6) 0.7402(3) 0.3672(3)
C7 C 0.2617(6) 0.6350(3) 0.2983(2)
C8 C 0.1079(6) 0.7089(3) 0.2359(3)
C9 C 0.1315(5) 0.8147(3) 0.4171(2)
C10 C 0.1910(6) 0.9236(3) 0.3643(3)
C11 C 0.5984(6) 0.7811(3) 0.3791(2)
C12 C 0.6358(6) 0.7884(3) 0.2748(3)
H5 H 0.342(5) 0.703(3) 0.410(2)
H6 H 0.053(5) 0.733(3) 0.209(2)
H7 H 0.203(6) 0.972(3) 0.351(2)
H8 H 0.663(6) 0.794(3) 0.239(3)
Tl1B Tl -0.15301(2) 0.418978(11) 0.553724(10)
Tl2B Tl -0.38779(2) 0.613870(12) 0.434750(10)
Tl2_2 Tl -0.61221(2) 0.386130(12) 0.565250(10)
Tl2B_2 Tl 0.61221(2) 0.613870(12) 0.434750(10)
S1B S -0.13167(14) 0.59389(7) 0.52847(6)
S3B S 0.10468(15) 0.38456(7) 0.64759(7)
S5B S 0.43287(14) 0.56111(7) 0.54481(6)
S5_2 S 0.56713(14) 0.43889(7) 0.45519(6)
S7B S 0.63847(15) 0.43053(7) 0.66852(7)
S11B S 0.39636(15) 0.21835(8) 0.54698(6)
O1 O 0.4875(4) 0.86308(19) 0.62444(18)
N13 N 0.3920(5) 0.9597(2) 0.5763(2)
C13 C 0.4642(6) 0.9271(3) 0.6201(3)
H9 H 0.5009 0.9569 0.6509
C14 C 0.3233(7) 0.9169(4) 0.5305(3)
H10 H 0.3262 0.9432 0.4933
H11 H 0.2213 0.9073 0.5404
H12 H 0.3759 0.8712 0.5267
C15 C 0.3599(8) 1.0353(4) 0.5779(4)
H13 H 0.3962 1.0584 0.5425
H14 H 0.4078 1.0569 0.6125
H15 H 0.2539 1.0423 0.5799
O2 O 1.0359(4) 0.9477(2) 0.63867(17)
N14 N 0.8965(4) 0.8572(2) 0.6006(2)
C16 C 0.9841(6) 0.8867(3) 0.6401(3)
H16 H 1.0102 0.8579 0.6731
C17 C 0.8473(6) 0.8980(3) 0.5489(3)
H17 H 0.7468 0.9147 0.5544
H18 H 0.8503 0.8670 0.5143
H19 H 0.9117 0.9395 0.5435
C18 C 0.8382(6) 0.7851(3) 0.6051(3)
H20 H 0.8777 0.7621 0.6407
H21 H 0.8661 0.7570 0.5708
H22 H 0.7312 0.7873 0.6070
loop_
_geom_bond_atom_site_label_1
_geom_bond_atom_site_label_2
_geom_bond_site_symmetry_1
_geom_bond_site_symmetry_2
Tl1 S1 1_555 1_555
Tl2 S1 1_555 1_555
S1 C1 1_555 1_555
S2 C1 1_555 1_555
S3 Tl1 1_555 1_555
S4 C3 1_555 1_555
S5 C5 1_555 1_555
S6 C5 1_555 1_555
N1 N2 1_555 1_555
N2 C2 1_555 1_555
N3 N4 1_555 1_555
N4 C4 1_555 1_555
N5 N6 1_555 1_555
N6 C6 1_555 1_555
B1 N1 1_555 1_555
C1 N1 1_555 1_555
C2 S2 1_555 1_555
C3 S3 1_555 1_555
C4 S4 1_555 1_555
C5 N5 1_555 1_555
C6 S6 1_555 1_555
H1 B1 1_555 1_555
H2 C2 1_555 1_555
H3 C4 1_555 1_555
H4 C6 1_555 1_555
S7 Tl1 1_555 1_555
S8 C7 1_555 1_555
S9 Tl1 1_555 1_555
S10 C9 1_555 1_555
S11 C11 1_555 1_555
S12 C11 1_555 1_555
N7 N8 1_555 1_555
N8 C8 1_555 1_555
N9 N10 1_555 1_555
N10 C10 1_555 1_555
N11 N12 1_555 1_555
N12 C12 1_555 1_555
B2 N7 1_555 1_555
C7 S7 1_555 1_555
C8 S8 1_555 1_555
C9 S9 1_555 1_555
C10 S10 1_555 1_555
C11 N11 1_555 1_555
C12 S12 1_555 1_555
H5 B2 1_555 1_555
H6 C8 1_555 1_555
H7 C10 1_555 1_555
H8 C12 1_555 1_555
O1 C13 1_555 1_555
N13 C13 1_555 1_555
C13 H9 1_555 1_555
C14 N13 1_555 1_555
H10 C14 1_555 1_555
H11 C14 1_555 1_555
H12 C14 1_555 1_555
C15 N13 1_555 1_555
H13 C15 1_555 1_555
H14 C15 1_555 1_555
H15 C15 1_555 1_555
O2 C16 1_555 1_555
N14 C16 1_555 1_555
C16 H16 1_555 1_555
C17 N14 1_555 1_555
H17 C17 1_555 1_555
H18 C17 1_555 1_555
H19 C17 1_555 1_555
C18 N14 1_555 1_555
H20 C18 1_555 1_555
H21 C18 1_555 1_555
H22 C18 1_555 1_555
Tl1B S1 1_555 1_555
Tl2B S3 1_555 1_555
Tl2_2 S5 1_555 1_555
Tl2B_2 S7 1_555 1_555
S1B Tl1 1_555 1_555
S3B Tl2 1_555 1_555
S5B Tl1 1_555 1_555
S5_2 Tl2 1_555 1_555
S7B Tl2 1_555 1_555
S11B Tl2 1_555 1_555
Tl2 S5B 1_555 1_555
S5 Tl1B 1_555 1_555
S5 Tl2B 1_555 1_555
N3 B1 1_555 1_555
N3 C3 1_555 1_555
N5 B1 1_555 1_555
S11 Tl2B_2 1_555 1_555
N7 C7 1_555 1_555
N9 B2 1_555 1_555
N9 C9 1_555 1_555
N11 B2 1_555 1_555
Tl1B S1B 1_555 1_555
Tl1B S3B 1_555 1_555
Tl2B S1B 1_555 1_555
Tl2B_2 S5B 1_555 1_555
Tl2B_2 S5_2 1_555 1_555

#END
