
#######################################################################
#
#                 Cambridge Crystallographic Data Centre
#                                CCDC 
#
#######################################################################
#
# If this CIF has been generated from an entry in the Cambridge 
# Structural Database, then it will include bibliographic, chemical, 
# crystal, experimental, refinement or atomic coordinate data resulting 
# from the CCDC's data processing and validation procedures.
#
#######################################################################

data_QIBVED
_symmetry_cell_setting           orthorhombic
_symmetry_space_group_name_H-M   'C m c a'
_symmetry_Int_Tables_number      64
_space_group_name_Hall           '-C 2ac 2'
loop_
_symmetry_equiv_pos_site_id
_symmetry_equiv_pos_as_xyz
1 x,y,z
2 1/2+x,1/2+y,z
3 -x,1/2-y,1/2+z
4 -x,1/2+y,1/2-z
5 x,-y,-z
6 1/2-x,-y,1/2+z
7 1/2-x,y,1/2-z
8 1/2+x,1/2-y,-z
9 -x,-y,-z
10 1/2-x,1/2-y,-z
11 x,1/2+y,1/2-z
12 x,1/2-y,1/2+z
13 -x,y,z
14 1/2+x,y,1/2-z
15 1/2+x,-y,1/2+z
16 1/2-x,1/2+y,z
_cell_length_a                   7.1915(9)
_cell_length_b                   13.6601(17)
_cell_length_c                   16.145(2)
_cell_angle_alpha                90
_cell_angle_beta                 90
_cell_angle_gamma                90
_cell_volume                     1586.03
loop_
_atom_site_label
_atom_site_type_symbol
_atom_site_fract_x
_atom_site_fract_y
_atom_site_fract_z
Zn1 Zn 0.5000 0.0000 0.5000
S1 S 0.5000 -0.00657(7) 0.34335(6)
S2 S 0.5000 0.17107(7) 0.45001(7)
N1 N 0.1927(4) 0.0000 0.5000
O1 O 0.5000 0.17804(18) 0.29209(16)
C1 C 0.5000 0.1162(3) 0.3557(2)
C2 C 0.5000 0.1395(3) 0.2084(2)
H1 H 0.3882 0.0988 0.1988
H2 H 0.6118 0.0988 0.1988
C3 C 0.5000 0.2269(3) 0.1516(3)
H3 H 0.5000 0.2046 0.0939
H4 H 0.6113 0.2664 0.1620
H5 H 0.3887 0.2664 0.1620
C4 C 0.0963(3) 0.06573(17) 0.54313(17)
H6 H 0.1609 0.1137 0.5746
Zn1_2 Zn -0.5000 0.0000 0.5000
S1H S 0.5000 0.00657(7) 0.65665(6)
S2H S 0.5000 -0.17107(7) 0.54999(7)
N1L N -0.1927(4) 0.0000 0.5000
N1L_2 N 0.8073(4) 0.0000 0.5000
O1H O 0.5000 -0.17804(18) 0.70791(16)
C1H C 0.5000 -0.1162(3) 0.6443(2)
C2H C 0.5000 -0.1395(3) 0.7916(2)
H1H H 0.6118 -0.0988 0.8012
H1D H 0.3882 -0.0988 0.8012
C3H C 0.5000 -0.2269(3) 0.8484(3)
H3H H 0.5000 -0.2046 0.9061
H4H H 0.3887 -0.2664 0.8380
H4D H 0.6113 -0.2664 0.8380
C4L C -0.0963(3) 0.06573(17) 0.54313(17)
C4H C -0.0963(3) -0.06573(17) 0.45687(17)
C4D C 0.0963(3) -0.06573(17) 0.45687(17)
H6D H 0.1609 -0.1137 0.4254
H6H H -0.1609 -0.1137 0.4254
H6L H -0.1609 0.1137 0.5746
loop_
_geom_bond_atom_site_label_1
_geom_bond_atom_site_label_2
_geom_bond_site_symmetry_1
_geom_bond_site_symmetry_2
Zn1 S1 1_555 1_555
S1 C1 1_555 1_555
S2 Zn1 1_555 1_555
N1 Zn1 1_555 1_555
O1 C1 1_555 1_555
C1 S2 1_555 1_555
C2 O1 1_555 1_555
H1 C2 1_555 1_555
H2 C2 1_555 1_555
C3 C2 1_555 1_555
H3 C3 1_555 1_555
H4 C3 1_555 1_555
H5 C3 1_555 1_555
C4 N1 1_555 1_555
H6 C4 1_555 1_555
Zn1_2 N1L 1_555 1_555
S1H Zn1 1_555 1_555
S2H Zn1 1_555 1_555
N1L C4L 1_555 1_555
N1L_2 Zn1 1_555 1_555
O1H C1H 1_555 1_555
C1H S1H 1_555 1_555
C2H O1H 1_555 1_555
H1H C2H 1_555 1_555
H1D C2H 1_555 1_555
C3H C2H 1_555 1_555
H3H C3H 1_555 1_555
H4H C3H 1_555 1_555
H4D C3H 1_555 1_555
C4L C4 1_555 1_555
C4H N1L 1_555 1_555
C4D N1 1_555 1_555
H6D C4D 1_555 1_555
H6H C4H 1_555 1_555
H6L C4L 1_555 1_555
S2H C1H 1_555 1_555
C4H C4D 1_555 1_555

#END
