
#######################################################################
#
#                 Cambridge Crystallographic Data Centre
#                                CCDC 
#
#######################################################################
#
# If this CIF has been generated from an entry in the Cambridge 
# Structural Database, then it will include bibliographic, chemical, 
# crystal, experimental, refinement or atomic coordinate data resulting 
# from the CCDC's data processing and validation procedures.
#
#######################################################################

data_QIBZAD01
_symmetry_cell_setting           orthorhombic
_symmetry_space_group_name_H-M   'C 2 2 21'
_symmetry_Int_Tables_number      20
_space_group_name_Hall           'C 2n 2'
loop_
_symmetry_equiv_pos_site_id
_symmetry_equiv_pos_as_xyz
1 x,y,z
2 -x,-y,1/2+z
3 -x,y,1/2-z
4 x,-y,-z
5 1/2+x,1/2+y,z
6 1/2-x,1/2-y,1/2+z
7 1/2-x,1/2+y,1/2-z
8 1/2+x,1/2-y,-z
_cell_length_a                   8.7094(7)
_cell_length_b                   13.8869(13)
_cell_length_c                   19.5034(17)
_cell_angle_alpha                90
_cell_angle_beta                 90
_cell_angle_gamma                90
_cell_volume                     2358.87
loop_
_atom_site_label
_atom_site_type_symbol
_atom_site_fract_x
_atom_site_fract_y
_atom_site_fract_z
Mn1 Mn 0.0000 0.35622(3) 0.7500
S1 S 0.12344(8) 0.48764(5) 0.67692(3)
S2 S 0.16017(7) 0.42552(5) 0.58329(3)
S3 S -0.03072(7) 0.43271(4) 0.52398(3)
N1 N -0.2048(2) 0.32389(13) 0.68219(10)
N2 N 0.0645(2) 0.23125(14) 0.67814(11)
C1 C -0.3353(3) 0.37276(19) 0.68594(14)
H1 H -0.3435 0.4219 0.7181
C2 C -0.4599(3) 0.3537(2) 0.64400(15)
H2 H -0.5500 0.3892 0.6479
C3 C -0.4473(3) 0.2810(2) 0.59638(16)
H3 H -0.5296 0.2661 0.5679
C4 C -0.3119(3) 0.2305(2) 0.59135(15)
H4 H -0.3014 0.1819 0.5589
C5 C -0.1903(3) 0.25287(18) 0.63527(11)
C6 C -0.0421(3) 0.20139(17) 0.63308(12)
C7 C -0.0136(4) 0.12630(18) 0.58795(15)
H5 H -0.0886 0.1064 0.5571
C8 C 0.1276(4) 0.0817(2) 0.58963(17)
H6 H 0.1479 0.0307 0.5601
C9 C 0.2373(4) 0.11204(18) 0.63421(15)
H7 H 0.3340 0.0836 0.6350
C10 C 0.2006(3) 0.1864(2) 0.67825(15)
H8 H 0.2744 0.2064 0.7097
Mn1A Mn 0.0000 0.64378(3) 0.2500
S1C S 0.12344(8) 0.51236(5) 0.32308(3)
S1B S -0.12344(8) 0.48764(5) 0.82308(3)
S2C S 0.16017(7) 0.57448(5) 0.41671(3)
S3C S -0.03072(7) 0.56729(4) 0.47602(3)
N1B N 0.2048(2) 0.32389(13) 0.81781(10)
N2B N -0.0645(2) 0.23125(14) 0.82186(11)
C1B C 0.3353(3) 0.37276(19) 0.81406(14)
H1B H 0.3435 0.4219 0.7819
C2B C 0.4599(3) 0.3537(2) 0.85600(15)
H2B H 0.5500 0.3892 0.8521
C3B C 0.4473(3) 0.2810(2) 0.90362(16)
H3B H 0.5296 0.2661 0.9321
C4B C 0.3119(3) 0.2305(2) 0.90865(15)
H4B H 0.3014 0.1819 0.9411
C5B C 0.1903(3) 0.25287(18) 0.86473(11)
C6B C 0.0421(3) 0.20139(17) 0.86692(12)
C7B C 0.0136(4) 0.12630(18) 0.91205(15)
H5B H 0.0886 0.1064 0.9429
C8B C -0.1276(4) 0.0817(2) 0.91037(17)
H6B H -0.1479 0.0307 0.9399
C9B C -0.2373(4) 0.11204(18) 0.86579(15)
H7B H -0.3340 0.0836 0.8650
C10B C -0.2006(3) 0.1864(2) 0.82175(15)
H8B H -0.2744 0.2064 0.7903
loop_
_geom_bond_atom_site_label_1
_geom_bond_atom_site_label_2
_geom_bond_site_symmetry_1
_geom_bond_site_symmetry_2
Mn1 S1 1_555 1_555
S1 S2 1_555 1_555
S2 S3 1_555 1_555
S3 S3C 1_555 1_555
N1 Mn1 1_555 1_555
N2 Mn1 1_555 1_555
C1 N1 1_555 1_555
H1 C1 1_555 1_555
C2 C1 1_555 1_555
H2 C2 1_555 1_555
C3 C2 1_555 1_555
H3 C3 1_555 1_555
C4 C3 1_555 1_555
H4 C4 1_555 1_555
C5 N1 1_555 1_555
C6 N2 1_555 1_555
C7 C6 1_555 1_555
H5 C7 1_555 1_555
C8 C7 1_555 1_555
H6 C8 1_555 1_555
C9 C8 1_555 1_555
H7 C9 1_555 1_555
C10 N2 1_555 1_555
H8 C10 1_555 1_555
Mn1A S1C 1_555 1_555
S1C S2C 1_555 1_555
S1B Mn1 1_555 1_555
S2C S3C 1_555 1_555
N1B Mn1 1_555 1_555
N2B Mn1 1_555 1_555
C1B N1B 1_555 1_555
H1B C1B 1_555 1_555
C2B C1B 1_555 1_555
H2B C2B 1_555 1_555
C3B C2B 1_555 1_555
H3B C3B 1_555 1_555
C4B C3B 1_555 1_555
H4B C4B 1_555 1_555
C5B N1B 1_555 1_555
C6B N2B 1_555 1_555
C7B C6B 1_555 1_555
H5B C7B 1_555 1_555
C8B C7B 1_555 1_555
H6B C8B 1_555 1_555
C9B C8B 1_555 1_555
H7B C9B 1_555 1_555
C10B N2B 1_555 1_555
H8B C10B 1_555 1_555
C4 C5 1_555 1_555
C5 C6 1_555 1_555
C9 C10 1_555 1_555
C4B C5B 1_555 1_555
C5B C6B 1_555 1_555
C9B C10B 1_555 1_555

#END
