
#######################################################################
#
#                 Cambridge Crystallographic Data Centre
#                                CCDC 
#
#######################################################################
#
# If this CIF has been generated from an entry in the Cambridge 
# Structural Database, then it will include bibliographic, chemical, 
# crystal, experimental, refinement or atomic coordinate data resulting 
# from the CCDC's data processing and validation procedures.
#
#######################################################################

data_QIBZAD
_symmetry_cell_setting           orthorhombic
_symmetry_space_group_name_H-M   'C 2 2 21'
_symmetry_Int_Tables_number      20
_space_group_name_Hall           'C 2n 2'
loop_
_symmetry_equiv_pos_site_id
_symmetry_equiv_pos_as_xyz
1 x,y,z
2 -x,-y,1/2+z
3 -x,y,1/2-z
4 x,-y,-z
5 1/2+x,1/2+y,z
6 1/2-x,1/2-y,1/2+z
7 1/2-x,1/2+y,1/2-z
8 1/2+x,1/2-y,-z
_cell_length_a                   8.7185(17)
_cell_length_b                   13.898(3)
_cell_length_c                   19.465(4)
_cell_angle_alpha                90
_cell_angle_beta                 90
_cell_angle_gamma                90
_cell_volume                     2358.57
loop_
_atom_site_label
_atom_site_type_symbol
_atom_site_fract_x
_atom_site_fract_y
_atom_site_fract_z
Mn1 Mn 0.0000 -0.14383(4) -0.2500
S1 S -0.12323(11) 0.01274(6) 0.17697(4)
S2 S -0.15957(10) 0.07461(7) 0.08311(4)
S3 S 0.03113(10) 0.06712(6) 0.02378(3)
N1 N 0.2039(3) -0.17575(16) -0.18230(11)
N2 N -0.0636(3) -0.26901(18) -0.17814(12)
C1 C 0.3354(4) -0.1275(2) -0.18561(15)
H1 H 0.3438 -0.0783 -0.2177
C2 C 0.4596(4) -0.1464(3) -0.14416(16)
H2 H 0.5502 -0.1114 -0.1482
C3 C 0.4450(4) -0.2188(3) -0.09657(18)
H3 H 0.5265 -0.2337 -0.0677
C4 C 0.3117(4) -0.2686(3) -0.09177(17)
H4 H 0.3014 -0.3174 -0.0594
C5 C 0.1912(4) -0.2467(2) -0.13500(14)
C6 C 0.1999(4) -0.3135(2) -0.32205(17)
H5 H 0.2738 -0.2927 -0.2910
C7 C 0.2367(5) -0.3876(2) -0.36527(18)
H6 H 0.3329 -0.4165 -0.3638
C8 C 0.1272(5) -0.4176(3) -0.4107(2)
H7 H 0.1484 -0.4677 -0.4410
C9 C -0.0132(5) -0.3741(2) -0.41173(15)
H8 H -0.0886 -0.3952 -0.4420
C10 C 0.0429(4) -0.2980(2) -0.13299(14)
Mn1A Mn 0.0000 0.14383(4) 0.2500
S1C S -0.12323(11) -0.01274(6) -0.17697(4)
S1A S 0.12323(11) -0.01274(6) -0.32303(4)
S2C S -0.15957(10) -0.07461(7) -0.08311(4)
S3C S 0.03113(10) -0.06712(6) -0.02378(3)
N1B N -0.2039(3) -0.17575(16) -0.31770(11)
N2B N 0.0636(3) -0.26901(18) -0.32186(12)
C1B C -0.3354(4) -0.1275(2) -0.31439(15)
H1B H -0.3438 -0.0783 -0.2823
C2B C -0.4596(4) -0.1464(3) -0.35584(16)
H2B H -0.5502 -0.1114 -0.3518
C3B C -0.4450(4) -0.2188(3) -0.40343(18)
H3B H -0.5265 -0.2337 -0.4323
C4B C -0.3117(4) -0.2686(3) -0.40823(17)
H4B H -0.3014 -0.3174 -0.4406
C5B C -0.1912(4) -0.2467(2) -0.36500(14)
C6B C -0.1999(4) -0.3135(2) -0.17795(17)
H5B H -0.2738 -0.2927 -0.2090
C7B C -0.2367(5) -0.3876(2) -0.13473(18)
H6B H -0.3329 -0.4165 -0.1362
C8B C -0.1272(5) -0.4176(3) -0.0893(2)
H7B H -0.1484 -0.4677 -0.0590
C9B C 0.0132(5) -0.3741(2) -0.08827(15)
H8B H 0.0886 -0.3952 -0.0580
C10B C -0.0429(4) -0.2980(2) -0.36701(14)
loop_
_geom_bond_atom_site_label_1
_geom_bond_atom_site_label_2
_geom_bond_site_symmetry_1
_geom_bond_site_symmetry_2
Mn1 N1 1_555 1_555
S1 S2 1_555 1_555
S2 S3 1_555 1_555
S3 S3C 1_555 1_555
N1 C1 1_555 1_555
N2 Mn1 1_555 1_555
C1 H1 1_555 1_555
C2 C1 1_555 1_555
H2 C2 1_555 1_555
C3 C2 1_555 1_555
H3 C3 1_555 1_555
C4 C3 1_555 1_555
H4 C4 1_555 1_555
C5 N1 1_555 1_555
C6 H5 1_555 1_555
C7 C6 1_555 1_555
H6 C7 1_555 1_555
C8 C7 1_555 1_555
H7 C8 1_555 1_555
C9 C8 1_555 1_555
H8 C9 1_555 1_555
C10 N2 1_555 1_555
Mn1A S1 1_555 1_555
S1C Mn1 1_555 1_555
S1A Mn1 1_555 1_555
S2C S1C 1_555 1_555
S3C S2C 1_555 1_555
N1B Mn1 1_555 1_555
N2B Mn1 1_555 1_555
C1B N1B 1_555 1_555
H1B C1B 1_555 1_555
C2B C1B 1_555 1_555
H2B C2B 1_555 1_555
C3B C2B 1_555 1_555
H3B C3B 1_555 1_555
C4B C3B 1_555 1_555
H4B C4B 1_555 1_555
C5B N1B 1_555 1_555
C6B N2 1_555 1_555
H5B C6B 1_555 1_555
C7B C6B 1_555 1_555
H6B C7B 1_555 1_555
C8B C7B 1_555 1_555
H7B C8B 1_555 1_555
C9B C10 1_555 1_555
H8B C9B 1_555 1_555
C10B C9 1_555 1_555
C4 C5 1_555 1_555
C5 C10 1_555 1_555
C6 N2B 1_555 1_555
N2B C10B 1_555 1_555
C4B C5B 1_555 1_555
C5B C10B 1_555 1_555
C8B C9B 1_555 1_555

#END
