
#######################################################################
#
#                 Cambridge Crystallographic Data Centre
#                                CCDC 
#
#######################################################################
#
# If this CIF has been generated from an entry in the Cambridge 
# Structural Database, then it will include bibliographic, chemical, 
# crystal, experimental, refinement or atomic coordinate data resulting 
# from the CCDC's data processing and validation procedures.
#
#######################################################################

data_QICBUA
_symmetry_cell_setting           orthorhombic
_symmetry_space_group_name_H-M   'P b c a'
_symmetry_Int_Tables_number      61
_space_group_name_Hall           '-P 2ac 2ab'
loop_
_symmetry_equiv_pos_site_id
_symmetry_equiv_pos_as_xyz
1 x,y,z
2 1/2-x,-y,1/2+z
3 -x,1/2+y,1/2-z
4 1/2+x,1/2-y,-z
5 -x,-y,-z
6 1/2+x,y,1/2-z
7 x,1/2-y,1/2+z
8 1/2-x,1/2+y,z
_cell_length_a                   8.2260(8)
_cell_length_b                   12.4900(11)
_cell_length_c                   31.207(3)
_cell_angle_alpha                90
_cell_angle_beta                 90
_cell_angle_gamma                90
_cell_volume                     3206.29
loop_
_atom_site_label
_atom_site_type_symbol
_atom_site_fract_x
_atom_site_fract_y
_atom_site_fract_z
Cu1 Cu 0.23891(5) 0.65425(3) 0.022447(14)
Cl1 Cl -0.02921(13) 0.75859(9) 0.00346(4)
Cl2 Cl 0.17245(14) 0.50356(7) 0.06095(3)
N1 N 0.2362(4) 0.7423(2) 0.07531(9)
H1 H 0.2378 0.8115 0.0673
H2 H 0.1406 0.7308 0.0885
N2 N 0.2099(4) 0.5839(3) -0.03403(11)
H3 H 0.1086 0.5568 -0.0350
H4 H 0.2160 0.6349 -0.0544
C1 C 0.3668(5) 0.7268(4) 0.10744(13)
H5 H 0.4655 0.7605 0.0971
H6 H 0.3882 0.6508 0.1104
C2 C 0.3256(5) 0.7722(4) 0.15069(13)
C3 C 0.3938(7) 0.8667(4) 0.16536(16)
H7 H 0.4674 0.9036 0.1483
C4 C 0.3528(10) 0.9067(5) 0.2055(2)
H8 H 0.4016 0.9692 0.2154
C5 C 0.2407(11) 0.8548(8) 0.23064(19)
H9 H 0.2126 0.8825 0.2573
C6 C 0.1705(10) 0.7621(7) 0.2163(2)
H10 H 0.0935 0.7269 0.2330
C7 C 0.2154(7) 0.7212(5) 0.17666(17)
H11 H 0.1694 0.6572 0.1674
C8 C 0.3224(7) 0.4987(4) -0.04569(15)
H12 H 0.2990 0.4359 -0.0285
H13 H 0.4325 0.5214 -0.0392
C9 C 0.3119(5) 0.4688(3) -0.09300(13)
C10 C 0.2226(6) 0.3811(4) -0.10499(17)
H14 H 0.1655 0.3421 -0.0845
C11 C 0.2176(8) 0.3505(6) -0.1479(2)
H15 H 0.1587 0.2905 -0.1563
C12 C 0.3021(12) 0.4110(8) -0.1781(2)
H16 H 0.2973 0.3925 -0.2069
C13 C 0.3905(10) 0.4961(7) -0.1657(2)
H17 H 0.4484 0.5353 -0.1859
C14 C 0.3957(7) 0.5254(4) -0.1235(2)
H18 H 0.4570 0.5846 -0.1154
Cu1C Cu -0.26109(5) 0.84575(3) -0.022447(14)
Cl1C Cl 0.47079(13) 0.74141(9) -0.00346(4)
loop_
_geom_bond_atom_site_label_1
_geom_bond_atom_site_label_2
_geom_bond_site_symmetry_1
_geom_bond_site_symmetry_2
Cu1 Cl1 1_555 1_555
Cl1 Cu1C 1_555 1_555
Cl2 Cu1 1_555 1_555
N1 Cu1 1_555 1_555
H1 N1 1_555 1_555
H2 N1 1_555 1_555
N2 Cu1 1_555 1_555
H3 N2 1_555 1_555
H4 N2 1_555 1_555
C1 N1 1_555 1_555
H5 C1 1_555 1_555
H6 C1 1_555 1_555
C2 C1 1_555 1_555
C3 C2 1_555 1_555
H7 C3 1_555 1_555
C4 C3 1_555 1_555
H8 C4 1_555 1_555
C5 C4 1_555 1_555
H9 C5 1_555 1_555
C6 C5 1_555 1_555
H10 C6 1_555 1_555
C7 C2 1_555 1_555
H11 C7 1_555 1_555
C8 N2 1_555 1_555
H12 C8 1_555 1_555
H13 C8 1_555 1_555
C9 C8 1_555 1_555
C10 C9 1_555 1_555
H14 C10 1_555 1_555
C11 C10 1_555 1_555
H15 C11 1_555 1_555
C12 C11 1_555 1_555
H16 C12 1_555 1_555
C13 C12 1_555 1_555
H17 C13 1_555 1_555
C14 C9 1_555 1_555
H18 C14 1_555 1_555
Cl1C Cu1 1_555 1_555
C6 C7 1_555 1_555
C13 C14 1_555 1_555

#END
