
#######################################################################
#
#                 Cambridge Crystallographic Data Centre
#                                CCDC 
#
#######################################################################
#
# If this CIF has been generated from an entry in the Cambridge 
# Structural Database, then it will include bibliographic, chemical, 
# crystal, experimental, refinement or atomic coordinate data resulting 
# from the CCDC's data processing and validation procedures.
#
#######################################################################

data_QICTEC
_symmetry_cell_setting           tetragonal
_symmetry_space_group_name_H-M   'P 42 n m'
_symmetry_Int_Tables_number      102
_space_group_name_Hall           'P 4n -2n'
loop_
_symmetry_equiv_pos_site_id
_symmetry_equiv_pos_as_xyz
1 x,y,z
2 -x,-y,z
3 1/2-y,1/2+x,1/2+z
4 1/2+y,1/2-x,1/2+z
5 1/2-x,1/2+y,1/2+z
6 1/2+x,1/2-y,1/2+z
7 y,x,z
8 -y,-x,z
_cell_length_a                   11.0793(3)
_cell_length_b                   11.0793(3)
_cell_length_c                   8.8246(3)
_cell_angle_alpha                90
_cell_angle_beta                 90
_cell_angle_gamma                90
_cell_volume                     1083.23
loop_
_atom_site_label
_atom_site_type_symbol
_atom_site_fract_x
_atom_site_fract_y
_atom_site_fract_z
C1 C 0.9529(7) 0.0471(7) 0.9061(17)
H1 H 0.8824 0.0174 0.9597
H2 H 0.9826 0.1176 0.9597
C2 C 0.8737(7) -0.0279(6) 0.6747(16)
H3 H 0.8519 -0.0083 0.5711
H4 H 0.8022 -0.0579 0.7258
N1 N 0.9178(3) 0.0822(3) 0.7526(19)
O1 O 0.4396(7) 0.1410(7) 0.6018(14)
O2 O 0.4419(7) 0.1443(7) 0.8784(14)
O3 O 0.6258(2) 0.1271(3) 0.7426(18)
O4 O 0.7585(6) 0.2415(6) 0.5146(8)
O5 O 0.7438(5) 0.2562(5) 0.96926(16)
S1 S 0.50653(9) 0.19443(9) 0.7407(11)
Zn1 Zn 0.78415(4) 0.21585(4) 0.7415(10)
Zn2 Zn 0.5000 0.0000 0.4892(11)
H5 H 0.740(5) 0.168(3) 0.464(7)
H6 H 0.702(7) 0.229(8) 1.057(6)
C1A C 1.0471(7) -0.0471(7) 0.9061(17)
H1A H 1.1176 -0.0174 0.9597
H1F H 1.0174 -0.1176 0.9597
C2A C 1.1263(7) 0.0279(6) 0.6747(16)
C2G C 1.0279(6) 0.1263(7) 0.6747(16)
C2F C 0.9721(6) -0.1263(7) 0.6747(16)
H3G H 1.0083 0.1481 0.5711
H3F H 0.9917 -0.1481 0.5711
H3A H 1.1481 0.0083 0.5711
H4G H 1.0579 0.1978 0.7258
H4F H 0.9421 -0.1978 0.7258
H4A H 1.1978 0.0579 0.7258
N1A N 1.0822(3) -0.0822(3) 0.7526(19)
O1G O 0.8590(7) 0.5604(7) 0.6018(14)
O1A O 0.5604(7) -0.1410(7) 0.6018(14)
O1B O 0.3590(7) -0.0604(7) 0.1018(14)
O1F O 1.1410(7) 0.4396(7) 0.6018(14)
O2G O 0.8557(7) 0.5581(7) 0.8784(14)
O2A O 0.5581(7) -0.1443(7) 0.8784(14)
O2B O 0.3557(7) -0.0581(7) 0.3784(14)
O2C O 0.6443(7) 0.0581(7) 0.3784(14)
O2D O 1.0581(7) 0.6443(7) 0.3784(14)
O2E O 0.9419(7) 0.3557(7) 0.3784(14)
O3G O 0.8729(3) 0.3742(2) 0.7426(18)
O3A O 0.3742(2) -0.1271(3) 0.7426(18)
O3B O 0.3729(3) 0.1258(2) 0.2426(18)
O3A_2 O 1.3742(2) -0.1271(3) 0.7426(18)
O3F O 1.1271(3) -0.3742(2) 0.7426(18)
O4A O 1.2415(6) -0.2415(6) 0.5146(8)
O5A O 1.2562(5) -0.2562(5) 0.96926(16)
S1G S 0.80557(9) 0.49347(9) 0.7407(11)
S1A S 0.49347(9) -0.19443(9) 0.7407(11)
S1B S 0.30557(9) 0.00653(9) 0.2407(11)
Zn1A Zn 1.21585(4) -0.21585(4) 0.7415(10)
Zn1A_2 Zn 0.21585(4) -0.21585(4) 0.7415(10)
Zn1B Zn 0.28415(4) 0.28415(4) 0.2415(10)
Zn2F Zn 1.0000 0.5000 0.4892(11)
Zn2B Zn 0.5000 0.0000 0.9892(11)
Zn2D Zn 1.0000 0.5000 0.9892(11)
Zn2B_2 Zn 0.5000 0.0000 -0.0108(11)
H5G H 0.832(3) 0.260(5) 0.464(7)
H5A H 1.260(5) -0.168(3) 0.464(7)
H5F H 1.168(3) -0.260(5) 0.464(7)
H6G H 0.771(8) 0.298(7) 1.057(6)
H6A H 1.298(7) -0.229(8) 1.057(6)
H6F H 1.229(8) -0.298(7) 1.057(6)
loop_
_geom_bond_atom_site_label_1
_geom_bond_atom_site_label_2
_geom_bond_site_symmetry_1
_geom_bond_site_symmetry_2
C1 H1 1_555 1_555
H2 C1 1_555 1_555
C2 H3 1_555 1_555
H4 C2 1_555 1_555
N1 C1 1_555 1_555
O1 S1 1_555 1_555
O2 S1 1_555 1_555
O3 S1 1_555 1_555
O4 Zn1 1_555 1_555
O5 Zn1 1_555 1_555
Zn1 N1 1_555 1_555
Zn2 O1 1_555 1_555
H5 O4 1_555 1_555
H6 O5 1_555 1_555
C1A C1 1_555 1_555
H1A C1A 1_555 1_555
H1F C1A 1_555 1_555
C2A C2G 1_555 1_555
C2G N1 1_555 1_555
C2F C2 1_555 1_555
H3G C2G 1_555 1_555
H3F C2F 1_555 1_555
H3A C2A 1_555 1_555
H4G C2G 1_555 1_555
H4F C2F 1_555 1_555
H4A C2A 1_555 1_555
N1A C1A 1_555 1_555
O1G S1G 1_555 1_555
O1A Zn2 1_555 1_555
O1B S1B 1_555 1_555
O1F Zn2F 1_555 1_555
O2G S1G 1_555 1_555
O2A S1A 1_555 1_555
O2B Zn2 1_555 1_555
O2C Zn2 1_555 1_555
O2D Zn2F 1_555 1_555
O2E Zn2F 1_555 1_555
O3G Zn1 1_555 1_555
O3A S1A 1_555 1_555
O3B S1B 1_555 1_555
O3A_2 Zn1A 1_555 1_555
O3F Zn1A 1_555 1_555
O4A Zn1A 1_555 1_555
O5A Zn1A 1_555 1_555
S1G O3G 1_555 1_555
S1A O1A 1_555 1_555
S1B O2B 1_555 1_555
Zn1A N1A 1_555 1_555
Zn1A_2 O3A 1_555 1_555
Zn1B O3B 1_555 1_555
Zn2F O1G 1_555 1_555
Zn2B O2 1_555 1_555
Zn2D O2G 1_555 1_555
Zn2B_2 O1B 1_555 1_555
H5G O4 1_555 1_555
H5A O4A 1_555 1_555
H5F O4A 1_555 1_555
H6G O5 1_555 1_555
H6A O5A 1_555 1_555
H6F O5A 1_555 1_555
C2 N1 1_555 1_555
O3 Zn1 1_555 1_555
C2A N1A 1_555 1_555
C2F N1A 1_555 1_555
O2A Zn2B 1_555 1_555

#END
