
#######################################################################
#
#                 Cambridge Crystallographic Data Centre
#                                CCDC 
#
#######################################################################
#
# If this CIF has been generated from an entry in the Cambridge 
# Structural Database, then it will include bibliographic, chemical, 
# crystal, experimental, refinement or atomic coordinate data resulting 
# from the CCDC's data processing and validation procedures.
#
#######################################################################

data_QIDCOV
_symmetry_cell_setting           triclinic
_symmetry_space_group_name_H-M   'P -1'
_symmetry_Int_Tables_number      2
_space_group_name_Hall           '-P 1'
loop_
_symmetry_equiv_pos_site_id
_symmetry_equiv_pos_as_xyz
1 x,y,z
2 -x,-y,-z
_cell_length_a                   13.033(1)
_cell_length_b                   16.865(3)
_cell_length_c                   21.579(4)
_cell_angle_alpha                90.04(1)
_cell_angle_beta                 94.19(1)
_cell_angle_gamma                90.137(9)
_cell_volume                     4730.41
loop_
_atom_site_label
_atom_site_type_symbol
_atom_site_fract_x
_atom_site_fract_y
_atom_site_fract_z
Cd1 Cd -0.2505(2) 0.2543(1) -0.7502(1)
Cd2 Cd 0.2506(3) 0.2460(1) -0.2498(1)
F1 F 0.007(2) -0.069(1) -0.590(1)
F2 F 0.327(2) 0.008(1) -0.6658(9)
F3 F 0.094(2) -0.084(1) -0.4772(9)
F4 F 0.416(2) -0.02(1) -0.550(1)
F5 F 0.010(2) 0.581(1) -0.5583(10)
F6 F 0.282(2) 0.513(1) -0.6838(10)
F7 F 0.137(2) 0.566(1) -0.4572(9)
F8 F 0.411(2) 0.504(1) -0.582(1)
F9 F -0.832(2) 0.007(1) -0.8365(9)
F10 F -0.508(2) -0.066(1) -0.910(1)
F11 F -0.916(2) -0.004(1) -0.951(1)
F12 F -0.592(2) -0.082(1) -1.0242(10)
F13 F -0.783(2) 0.513(1) -0.8163(9)
F14 F -0.510(2) 0.583(1) -0.9409(10)
F15 F -0.908(2) 0.505(1) -0.917(1)
F16 F -0.639(2) 0.567(1) -1.0442(10)
O1 O -0.249(2) 0.219(1) -0.641(1)
O2 O -0.347(3) 0.322(1) -0.644(2)
O3 O -0.298(3) 0.263(1) -0.556(1)
O4 O -0.253(2) 0.217(1) -0.860(1)
O5 O -0.155(3) 0.321(1) -0.856(2)
O6 O -0.207(3) 0.264(1) -0.944(1)
O7 O 0.083(2) 0.282(2) -0.304(1)
O8 O 0.047(3) 0.178(1) -0.257(2)
O9 O -0.073(4) 0.238(2) -0.322(2)
O10 O 0.415(2) 0.285(1) -0.194(1)
O11 O 0.455(3) 0.178(2) -0.242(2)
O12 O 0.572(3) 0.239(2) -0.180(2)
N1 N -0.102(3) 0.169(2) -0.739(1)
N2 N -0.135(3) 0.356(1) -0.718(1)
N3 N -0.402(3) 0.167(2) -0.762(2)
N4 N -0.368(2) 0.356(1) -0.780(1)
N5 N -0.298(3) 0.272(2) -0.612(2)
N6 N -0.203(3) 0.270(2) -0.888(2)
N7 N 0.261(2) 0.141(1) -0.325(1)
N8 N 0.296(3) 0.333(1) -0.328(1)
N9 N -0.799(3) 0.337(2) -1.173(2)
N10 N 0.013(4) 0.231(2) -0.296(2)
N11 N 0.478(4) 0.233(2) -0.207(2)
N12 N -0.763(2) 0.144(1) -1.175(1)
C1 C -0.103(3) 0.106(2) -0.777(2)
C2 C -0.0041(4) 0.170(2) -0.686(2)
C3 C -0.022(4) 0.042(2) -0.764(2)
C4 C 0.031(3) 0.111(2) -0.670(2)
C5 C 0.054(4) 0.042(20) -0.708(2)
C6 C 0.113(4) -0.021(3) -0.702(2)
C7 C 0.170(4) -0.026(2) -0.632(2)
C8 C 0.110(4) -0.055(2) -0.581(2)
C9 C 0.266(4) -0.009(3) -0.619(2)
C10 C 0.148(3) -0.069(2) -0.524(2)
C11 C 0.320(4) -0.023(2) -0.558(2)
C12 C 0.261(3) -0.050(2) -0.510(2)
C13 C 0.319(4) -0.067(2) -0.436(2)
C14 C 0.294(3) 0.008(2) -0.403(2)
C15 C 0.209(3) 0.004(2) -0.363(2)
C16 C 0.360(3) 0.074(2) -0.405(2)
C17 C 0.200(3) 0.074(2) -0.327(2)
C18 C 0.342(3) 0.138(2) -0.363(2)
C19 C -0.166(3) 0.418(2) -0.684(2)
C20 C -0.038(2) 0.358(2) -0.741(2)
C21 C -0.097(3) 0.490(2) -0.674(2)
C22 C 0.043(3) 0.418(2) -0.728(2)
C23 C 0.005(3) 0.488(2) -0.695(1)
C24 C 0.067(3) 0.564(2) -0.688(2)
C25 C 0.161(4) 0.550(2) -0.623(2)
C26 C 0.108(3) 0.560(2) -0.563(2)
C27 C 0.253(4) 0.528(3) -0.626(2)
C28 C 0.176(4) 0.550(2) -0.513(1)
C29 C 0.310(3) 0.513(3) -0.574(2)
C30 C 0.283(3) 0.532(2) -0.519(2)
C31 C 0.359(4) 0.524(2) -0.457(2)
C32 C 0.332(3) 0.458(2) -0.417(2)
C33 C 0.263(3) 0.394(2) -0.433(2)
C34 C 0.380(3) 0.457(2) -0.353(2)
C35 C 0.251(4) 0.332(2) -0.386(1)
C36 C 0.361(3) 0.393(2) -0.310(2)
C37 C -0.399(3) 0.108(2) -0.726(2)
C38 C -0.450(4) 0.169(2) -0.815(2)
C39 C -0.475(3) 0.044(2) -0.736(2)
C40 C -0.525(3) 0.107(2) -0.831(2)
C41 C -0.545(3) 0.045(2) -0.791(2)
C42 C -0.614(4) -0.021(2) -0.799(2)
C43 C -0.662(4) -0.028(2) -0.866(2)
C44 C -0.769(4) -0.010(3) -0.884(2)
C45 C -0.610(3) -0.053(2) -0.918(2)
C46 C -0.811(3) -0.024(2) -0.941(2)
C47 C -0.657(3) -0.060(2) -0.977(2)
C48 C -0.767(3) -0.048(2) -0.990(2)
C49 C -0.819(4) -0.063(2) -1.057(2)
C50 C -0.798(4) 0.008(2) -1.096(2)
C51 C -0.855(3) 0.077(2) -1.094(2)
C52 C -0.707(4) 0.005(2) -1.134(2)
C53 C -0.840(3) 0.140(2) -1.136(2)
C54 C -0.699(3) 0.076(2) -1.174(2)
C55 C -0.470(3) 0.357(2) -0.761(2)
C56 C -0.339(3) 0.423(2) -0.814(2)
C57 C -0.539(4) 0.417(2) -0.770(2)
C58 C -0.397(3) 0.490(2) -0.825(2)
C59 C -0.505(3) 0.483(2) -0.803(2)
C60 C -0.574(4) 0.564(2) -0.817(2)
C61 C -0.654(4) 0.550(2) -0.875(2)
C62 C -0.753(3) 0.528(2) -0.875(2)
C63 C -0.610(3) 0.565(2) -0.934(2)
C64 C -0.811(3) 0.513(3) -0.924(2)
C65 C -0.679(3) 0.553(2) -0.988(2)
C66 C -0.788(4) 0.529(2) -0.984(2)
C67 C -0.858(4) 0.516(3) -1.041(2)
C68 C -0.751(4) 0.331(2) -1.113(2)
C69 C -0.859(4) 0.395(2) -1.187(2)
C70 C -0.762(4) 0.392(2) -1.066(2)
C71 C -0.879(3) 0.457(2) -1.147(2)
C72 C -0.829(3) 0.454(2) -1.083(2)
N9_2 N 0.201(3) 0.337(2) -0.173(2)
N12_2 N 0.237(2) 0.144(1) -0.175(1)
Cd2_2 Cd -0.7494(3) 0.2460(1) -1.2498(1)
C73 C 0.247(4) 0.252(2) -0.582(2)
C74 C 0.220(4) 0.193(2) -0.535(2)
C75 C 0.167(5) 0.308(3) -0.595(2)
C76 C 0.134(4) 0.190(3) -0.502(2)
C77 C 0.070(5) 0.306(3) -0.564(3)
C78 C 0.045(5) 0.253(3) -0.518(3)
C79 C 0.339(4) 0.252(3) -0.615(4)
C80 C 0.393(5) 0.192(4) -0.614(5)
C81 C 0.298(8) 0.228(5) -0.694(5)
C82 C 0.372(5) 0.331(3) -0.635(4)
C83 C 0.258(4) 0.254(2) -0.921(3)
C84 C 0.334(4) 0.314(2) -0.907(2)
C85 C 0.275(4) 0.200(3) -0.967(2)
C86 C 0.430(5) 0.319(3) -0.934(2)
C87 C 0.385(5) 0.213(4) -0.997(2)
C88 C 0.464(7) 0.270(4) -0.977(4)
C89 C 0.163(5) 0.250(3) -0.886(4)
C90 C 0.131(6) 0.331(3) -0.871(5)
C91 C 0.200(8) 0.224(5) -0.816(4)
C92 C 0.080(6) 0.191(4) -0.904(7)
loop_
_geom_bond_atom_site_label_1
_geom_bond_atom_site_label_2
_geom_bond_site_symmetry_1
_geom_bond_site_symmetry_2
Cd1 O1 1_555 1_555
Cd2 O7 1_555 1_555
F1 C8 1_555 1_555
F2 C9 1_555 1_555
F3 C10 1_555 1_555
F4 C11 1_555 1_555
F5 C26 1_555 1_555
F6 C27 1_555 1_555
F7 C28 1_555 1_555
F8 C29 1_555 1_555
F9 C44 1_555 1_555
F10 C45 1_555 1_555
F11 C46 1_555 1_555
F12 C47 1_555 1_555
F13 C62 1_555 1_555
F14 C63 1_555 1_555
F15 C64 1_555 1_555
F16 C65 1_555 1_555
O1 N5 1_555 1_555
O2 N5 1_555 1_555
O3 N5 1_555 1_555
O4 Cd1 1_555 1_555
O5 N6 1_555 1_555
O6 N6 1_555 1_555
O7 N10 1_555 1_555
O8 N10 1_555 1_555
O9 N10 1_555 1_555
O10 Cd2 1_555 1_555
O11 N11 1_555 1_555
O12 N11 1_555 1_555
N1 Cd1 1_555 1_555
N2 Cd1 1_555 1_555
N3 Cd1 1_555 1_555
N4 Cd1 1_555 1_555
N6 O4 1_555 1_555
N7 Cd2 1_555 1_555
N8 Cd2 1_555 1_555
N9 C68 1_555 1_555
N11 O10 1_555 1_555
N12 C53 1_555 1_555
C1 N1 1_555 1_555
C2 N1 1_555 1_555
C3 C1 1_555 1_555
C4 C2 1_555 1_555
C5 C3 1_555 1_555
C6 C5 1_555 1_555
C7 C6 1_555 1_555
C8 C7 1_555 1_555
C9 C7 1_555 1_555
C10 C8 1_555 1_555
C11 C9 1_555 1_555
C12 C10 1_555 1_555
C13 C12 1_555 1_555
C14 C13 1_555 1_555
C15 C14 1_555 1_555
C16 C14 1_555 1_555
C17 N7 1_555 1_555
C18 N7 1_555 1_555
C19 N2 1_555 1_555
C20 N2 1_555 1_555
C21 C19 1_555 1_555
C22 C20 1_555 1_555
C23 C21 1_555 1_555
C24 C23 1_555 1_555
C25 C24 1_555 1_555
C26 C25 1_555 1_555
C27 C25 1_555 1_555
C28 C26 1_555 1_555
C29 C27 1_555 1_555
C30 C28 1_555 1_555
C31 C30 1_555 1_555
C32 C31 1_555 1_555
C33 C32 1_555 1_555
C34 C32 1_555 1_555
C35 N8 1_555 1_555
C36 N8 1_555 1_555
C37 N3 1_555 1_555
C38 N3 1_555 1_555
C39 C37 1_555 1_555
C40 C38 1_555 1_555
C41 C39 1_555 1_555
C42 C41 1_555 1_555
C43 C42 1_555 1_555
C44 C43 1_555 1_555
C45 C43 1_555 1_555
C46 C44 1_555 1_555
C47 C45 1_555 1_555
C48 C46 1_555 1_555
C49 C48 1_555 1_555
C50 C49 1_555 1_555
C51 C50 1_555 1_555
C52 C50 1_555 1_555
C53 C51 1_555 1_555
C54 N12 1_555 1_555
C55 N4 1_555 1_555
C56 N4 1_555 1_555
C57 C55 1_555 1_555
C58 C56 1_555 1_555
C59 C57 1_555 1_555
C60 C59 1_555 1_555
C61 C60 1_555 1_555
C62 C61 1_555 1_555
C63 C61 1_555 1_555
C64 C62 1_555 1_555
C65 C63 1_555 1_555
C66 C64 1_555 1_555
C67 C66 1_555 1_555
C68 C70 1_555 1_555
C69 N9 1_555 1_555
C70 C72 1_555 1_555
C71 C69 1_555 1_555
C72 C67 1_555 1_555
C73 C74 1_555 1_555
C74 C76 1_555 1_555
C75 C73 1_555 1_555
C76 C78 1_555 1_555
C77 C75 1_555 1_555
C78 C77 1_555 1_555
C79 C73 1_555 1_555
C80 C79 1_555 1_555
C81 C79 1_555 1_555
C82 C79 1_555 1_555
C83 C84 1_555 1_555
C84 C86 1_555 1_555
C85 C83 1_555 1_555
C86 C88 1_555 1_555
C87 C85 1_555 1_555
C88 C87 1_555 1_555
C89 C83 1_555 1_555
C90 C89 1_555 1_555
C91 C89 1_555 1_555
C92 C89 1_555 1_555
N9_2 Cd2 1_555 1_555
N12_2 Cd2 1_555 1_555
Cd2_2 N9 1_555 1_555
N12 Cd2_2 1_555 1_555
C4 C5 1_555 1_555
C11 C12 1_555 1_555
C15 C17 1_555 1_555
C16 C18 1_555 1_555
C22 C23 1_555 1_555
C29 C30 1_555 1_555
C33 C35 1_555 1_555
C34 C36 1_555 1_555
C40 C41 1_555 1_555
C47 C48 1_555 1_555
C52 C54 1_555 1_555
C58 C59 1_555 1_555
C65 C66 1_555 1_555
C71 C72 1_555 1_555

#END
