
#######################################################################
#
#                 Cambridge Crystallographic Data Centre
#                                CCDC 
#
#######################################################################
#
# If this CIF has been generated from an entry in the Cambridge 
# Structural Database, then it will include bibliographic, chemical, 
# crystal, experimental, refinement or atomic coordinate data resulting 
# from the CCDC's data processing and validation procedures.
#
#######################################################################

data_QIDCUB
_symmetry_cell_setting           triclinic
_symmetry_space_group_name_H-M   'P 1'
_symmetry_Int_Tables_number      1
_space_group_name_Hall           'P 1'
loop_
_symmetry_equiv_pos_site_id
_symmetry_equiv_pos_as_xyz
1 x,y,z
_cell_length_a                   10.389(5)
_cell_length_b                   10.641(3)
_cell_length_c                   10.269(2)
_cell_angle_alpha                108.30(2)
_cell_angle_beta                 98.37(3)
_cell_angle_gamma                76.81(3)
_cell_volume                     1046.02
loop_
_atom_site_label
_atom_site_type_symbol
_atom_site_fract_x
_atom_site_fract_y
_atom_site_fract_z
Cd1 Cd -0.065(2) -0.381(2) 0.721(2)
F1 F -0.318(2) 0.109(2) 0.257(2)
F2 F 0.114(2) 0.171(2) 0.441(2)
F3 F -0.249(2) 0.060(2) -0.004(2)
F4 F 0.188(2) 0.134(2) 0.193(2)
F5 F 0.169(2) -0.276(2) 0.223(2)
F6 F 0.528(2) -0.652(2) 0.168(2)
F7 F 0.351(2) -0.110(2) 0.283(2)
F8 F 0.698(2) -0.492(2) 0.216(2)
O1 O -0.241(2) -0.506(2) 0.617(3)
O2 O -0.317(3) -0.334(3) 0.555(3)
O3 O -0.425(3) -0.492(3) 0.507(3)
O4 O 0.105(2) -0.264(2) 0.827(2)
O5 O 0.230(2) -0.438(2) 0.882(2)
O6 O 0.295(2) -0.231(2) 0.969(2)
N1 N -0.106(2) -0.190(2) 0.637(3)
N2 N 0.058(2) -0.500(2) 0.528(3)
N3 N 0.826(2) -0.267(2) -0.086(2)
N4 N -0.337(3) -0.452(3) 0.540(3)
N5 N 0.208(2) -0.317(2) 0.880(2)
N6 N -0.034(2) 0.430(2) -0.182(2)
C1 C -0.219(3) -0.098(2) 0.662(3)
C2 C -0.006(2) -0.172(3) 0.568(3)
C3 C -0.231(3) 0.027(3) 0.615(3)
C4 C -0.001(3) -0.057(3) 0.517(3)
C5 C -0.126(3) 0.039(2) 0.543(3)
C6 C -0.141(3) 0.163(2) 0.503(3)
C7 C -0.092(3) 0.144(3) 0.353(3)
C8 C -0.192(2) 0.112(3) 0.243(2)
C9 C 0.011(3) 0.142(3) 0.335(3)
C10 C -0.168(3) 0.094(3) 0.105(3)
C11 C 0.061(3) 0.124(3) 0.214(3)
C12 C -0.016(3) 0.097(3) 0.081(3)
C13 C 0.020(3) 0.057(3) -0.051(3)
C14 C 0.005(3) 0.194(3) -0.099(3)
C15 C -0.109(2) 0.302(3) -0.078(3)
C16 C 0.100(3) 0.220(3) -0.168(3)
C17 C -0.130(3) 0.415(3) -0.119(3)
C18 C 0.081(2) 0.325(3) -0.207(3)
C19 C -0.031(3) -0.518(3) 0.402(3)
C20 C 0.182(3) -0.518(3) 0.522(3)
C21 C 0.033(3) -0.534(3) 0.276(3)
C22 C 0.258(3) -0.529(3) 0.412(3)
C23 C 0.171(3) -0.535(3) 0.296(3)
C24 C 0.247(3) -0.551(3) 0.161(3)
C25 C 0.342(2) -0.473(3) 0.181(3)
C26 C 0.306(3) -0.324(3) 0.223(3)
C27 C 0.482(2) -0.519(2) 0.186(3)
C28 C 0.402(3) -0.252(3) 0.251(3)
C29 C 0.569(3) -0.427(3) 0.224(3)
C30 C 0.531(3) -0.301(3) 0.240(3)
C31 C 0.684(2) -0.261(3) -0.097(3)
C32 C 0.894(2) -0.252(3) 0.040(3)
C33 C 0.627(2) -0.239(3) 0.022(3)
C34 C 0.832(3) -0.233(3) 0.155(3)
C35 C 0.695(3) -0.219(3) 0.163(3)
C36 C 0.640(3) -0.202(3) 0.286(3)
N6_2 N -0.034(2) -0.570(2) 0.818(2)
Cd1_2 Cd -0.065(2) 0.619(2) -0.279(2)
N3_2 N -0.174(2) -0.267(2) 0.914(2)
Cd1_3 Cd 0.935(2) -0.381(2) -0.279(2)
N7 N 0.421(2) -1.001(2) 0.808(3)
C37 C 0.441(3) -0.896(3) 0.748(3)
C38 C 0.483(3) -0.784(3) 0.845(3)
C39 C 0.409(3) -0.919(3) 0.606(3)
C40 C 0.512(3) -0.670(3) 0.771(3)
C41 C 0.448(3) -0.809(3) 0.535(3)
C42 C 0.487(3) -0.697(3) 0.638(3)
C43 C 0.428(3) -0.969(3) 0.952(3)
C44 C 0.367(3) -1.105(3) 0.700(3)
loop_
_geom_bond_atom_site_label_1
_geom_bond_atom_site_label_2
_geom_bond_site_symmetry_1
_geom_bond_site_symmetry_2
Cd1 O1 1_555 1_555
F1 C8 1_555 1_555
F2 C9 1_555 1_555
F3 C10 1_555 1_555
F4 C11 1_555 1_555
F5 C26 1_555 1_555
F6 C27 1_555 1_555
F7 C28 1_555 1_555
F8 C29 1_555 1_555
O1 N4 1_555 1_555
O2 N4 1_555 1_555
O3 N4 1_555 1_555
O4 Cd1 1_555 1_555
O5 N5 1_555 1_555
O6 N5 1_555 1_555
N1 Cd1 1_555 1_555
N2 Cd1 1_555 1_555
N3 C31 1_555 1_555
N5 O4 1_555 1_555
N6 C17 1_555 1_555
N7 C37 1_555 1_555
C1 N1 1_555 1_555
C2 N1 1_555 1_555
C3 C1 1_555 1_555
C4 C2 1_555 1_555
C5 C3 1_555 1_555
C6 C5 1_555 1_555
C7 C6 1_555 1_555
C8 C7 1_555 1_555
C9 C7 1_555 1_555
C10 C8 1_555 1_555
C11 C9 1_555 1_555
C12 C10 1_555 1_555
C13 C12 1_555 1_555
C14 C13 1_555 1_555
C15 C14 1_555 1_555
C16 C14 1_555 1_555
C17 C15 1_555 1_555
C18 N6 1_555 1_555
C19 N2 1_555 1_555
C20 N2 1_555 1_555
C21 C19 1_555 1_555
C22 C20 1_555 1_555
C23 C21 1_555 1_555
C24 C23 1_555 1_555
C25 C24 1_555 1_555
C26 C25 1_555 1_555
C27 C25 1_555 1_555
C28 C26 1_555 1_555
C29 C27 1_555 1_555
C30 C28 1_555 1_555
C31 C33 1_555 1_555
C32 N3 1_555 1_555
C33 C35 1_555 1_555
C34 C32 1_555 1_555
C35 C34 1_555 1_555
C36 C30 1_555 1_555
C37 C38 1_555 1_555
C38 C40 1_555 1_555
C39 C37 1_555 1_555
C40 C42 1_555 1_555
C41 C39 1_555 1_555
C42 C41 1_555 1_555
C43 N7 1_555 1_555
C44 N7 1_555 1_555
N6_2 Cd1 1_555 1_555
Cd1_2 N6 1_555 1_555
N3_2 Cd1 1_555 1_555
Cd1_3 N3 1_555 1_555
C4 C5 1_555 1_555
C11 C12 1_555 1_555
C16 C18 1_555 1_555
C22 C23 1_555 1_555
C29 C30 1_555 1_555
C35 C36 1_555 1_555

#END
