
#######################################################################
#
#                 Cambridge Crystallographic Data Centre
#                                CCDC 
#
#######################################################################
#
# If this CIF has been generated from an entry in the Cambridge 
# Structural Database, then it will include bibliographic, chemical, 
# crystal, experimental, refinement or atomic coordinate data resulting 
# from the CCDC's data processing and validation procedures.
#
#######################################################################

data_QIDCUB02
_symmetry_cell_setting           triclinic
_symmetry_space_group_name_H-M   'P -1'
_symmetry_Int_Tables_number      2
_space_group_name_Hall           '-P 1'
loop_
_symmetry_equiv_pos_site_id
_symmetry_equiv_pos_as_xyz
1 x,y,z
2 -x,-y,-z
_cell_length_a                   10.269(2)
_cell_length_b                   10.389(5)
_cell_length_c                   10.641(3)
_cell_angle_alpha                76.81(3)
_cell_angle_beta                 71.70(2)
_cell_angle_gamma                81.63(3)
_cell_volume                     1046.02
loop_
_atom_site_label
_atom_site_type_symbol
_atom_site_fract_x
_atom_site_fract_y
_atom_site_fract_z
N4 N 0.413 -0.01400 -0.12000
C19 C 0.473 0.006 -0.01500
C20 C 0.376 0.048 0.097
C21 C 0.385 0.02600 0.03800
C22 C 0.55 -0.077 -0.211
C23 C 0.314 -0.013 -0.072
C24 C 0.417 -0.052 -0.184
C25 C 0.269 -0.00700 -0.08800
C26 C 0.521 -0.06800 -0.22400
N4A N 0.587 0.01400 0.12000
C19A C 0.527 -0.006 0.01500
C20A C 0.624 -0.048 -0.097
C21A C 0.615 -0.02600 -0.03800
C22A C 0.45 0.077 0.211
C23A C 0.686 0.013 0.072
C24A C 0.583 0.052 0.184
C25A C 0.731 0.00700 0.08800
C26A C 0.479 0.06800 0.22400
Cd1 Cd 0.50000 0.50000 0.50000
F1 F 0.032 0.753 0.0125
F2 F -0.22250 0.6815 0.0555
F3 F 0.0035 0.2645 0.392
F4 F 0.05750 0.08850 0.229
O1 O 0.395 0.673 0.621
O2 O 0.3365 0.77350 0.448
O3 O 0.269 0.86 0.6305
N1 N 0.4095 0.536 0.31
N2 N 0.307 0.384 0.6165
N3 N 0.33 0.7725 0.5675
C1 C 0.4345 0.65 0.2115
C2 C 0.3435 0.438 0.2935
C3 C 0.3915 0.6655 0.0965
C4 C 0.29750 0.446 0.1795
C5 C 0.321 0.5655 0.0775
C6 C 0.277 0.5805 -0.05300
C7 C 0.136 0.538 -0.02350
C8 C 0.0145 0.6265 0.006
C9 C -0.11500 0.5895 0.024
C10 C 0.181 0.4625 0.633
C11 C 0.3095 0.25100 0.6285
C12 C 0.0605 0.39950 0.6505
C13 C 0.195 0.1845 0.645
C14 C 0.0665 0.262 0.658
C15 C -0.06250 0.1965 0.6745
C16 C -0.02950 0.0945 0.586
C17 C -0.00050 0.1315 0.4485
C18 C 0.03250 0.04000 0.3665
Cd1_2 Cd -0.50000 0.50000 -0.50000
Cd1_3 Cd -0.50000 -0.50000 0.50000
F1A F -0.032 0.247 -0.0125
F2A F 0.22250 0.3185 -0.0555
F3A F -0.0035 -0.2645 0.608
F4A F -0.05750 -0.08850 0.771
O1A O 0.605 0.327 0.379
O2A O 0.6635 0.22650 0.552
O3A O 0.731 0.14 0.3695
N1A N -0.4095 0.464 -0.31
N1A_2 N 0.5905 0.464 0.69
N2A N -0.307 -0.384 0.3835
N2A_2 N 0.693 0.616 0.3835
N3A N 0.67 0.2275 0.4325
C1A C -0.4345 0.35 -0.2115
C2A C -0.3435 0.562 -0.2935
C3A C -0.3915 0.3345 -0.0965
C4A C -0.29750 0.554 -0.1795
C5A C -0.321 0.4345 -0.0775
C6A C -0.277 0.4195 0.05300
C7A C -0.136 0.462 0.02350
C8A C -0.0145 0.3735 -0.006
C9A C 0.11500 0.4105 -0.024
C10A C -0.181 -0.4625 0.367
C11A C -0.3095 -0.25100 0.3715
C12A C -0.0605 -0.39950 0.3495
C13A C -0.195 -0.1845 0.355
C14A C -0.0665 -0.262 0.342
C15A C 0.06250 -0.1965 0.3255
C16A C 0.02950 -0.0945 0.414
C17A C 0.00050 -0.1315 0.5515
C18A C -0.03250 -0.04000 0.6335
loop_
_geom_bond_atom_site_label_1
_geom_bond_atom_site_label_2
_geom_bond_site_symmetry_1
_geom_bond_site_symmetry_2
Cd1 O1 1_555 1_555
F1 C8 1_555 1_555
F2 C9 1_555 1_555
F3 C17 1_555 1_555
F4 C18 1_555 1_555
O1 N3 1_555 1_555
O2 N3 1_555 1_555
O3 N3 1_555 1_555
N1 Cd1 1_555 1_555
N2 Cd1 1_555 1_555
C1 N1 1_555 1_555
C2 N1 1_555 1_555
C3 C1 1_555 1_555
C4 C2 1_555 1_555
C5 C3 1_555 1_555
C6 C5 1_555 1_555
C7 C6 1_555 1_555
C8 C7 1_555 1_555
C9 C8 1_555 1_555
C10 N2 1_555 1_555
C11 N2 1_555 1_555
C12 C10 1_555 1_555
C13 C11 1_555 1_555
C14 C12 1_555 1_555
C15 C14 1_555 1_555
C16 C15 1_555 1_555
C17 C16 1_555 1_555
C18 C17 1_555 1_555
N4 C19 1_555 1_555
C19 C20 1_555 1_555
C20 C21 1_555 1_555
C21 N4 1_555 1_555
C22 N4 1_555 1_555
C23 N4 1_555 1_555
C24 N4 1_555 1_555
C25 N4 1_555 1_555
C26 N4 1_555 1_555
Cd1_2 N1A 1_555 1_555
Cd1_3 N2A 1_555 1_555
F1A C8A 1_555 1_555
F2A C9A 1_555 1_555
F3A C17A 1_555 1_555
F4A C18A 1_555 1_555
O1A Cd1 1_555 1_555
O2A N3A 1_555 1_555
O3A N3A 1_555 1_555
N1A C1A 1_555 1_555
N1A_2 Cd1 1_555 1_555
N2A C10A 1_555 1_555
N2A_2 Cd1 1_555 1_555
N3A O1A 1_555 1_555
C1A C3A 1_555 1_555
C2A N1A 1_555 1_555
C3A C5A 1_555 1_555
C4A C2A 1_555 1_555
C5A C4A 1_555 1_555
C6A C5A 1_555 1_555
C7A C9 1_555 1_555
C8A C7A 1_555 1_555
C9A C7 1_555 1_555
C10A C12A 1_555 1_555
C11A N2A 1_555 1_555
C12A C14A 1_555 1_555
C13A C11A 1_555 1_555
C14A C13A 1_555 1_555
C15A C14A 1_555 1_555
C16A C18 1_555 1_555
C17A C16A 1_555 1_555
C18A C16 1_555 1_555
N4A C19A 1_555 1_555
C19A C19 1_555 1_555
C20A C19 1_555 1_555
C21A C19 1_555 1_555
C22A C20 1_555 1_555
C23A N4A 1_555 1_555
C24A N4A 1_555 1_555
C25A N4A 1_555 1_555
C26A N4A 1_555 1_555
C4 C5 1_555 1_555
C13 C14 1_555 1_555
C19 C21 1_555 1_555
C20 C19A 1_555 1_555
C21 C23 1_555 1_555
C21 C19A 1_555 1_555
C22 C24 1_555 1_555
C22 C26 1_555 1_555
C22 C20A 1_555 1_555
C23 C24 1_555 1_555
C23 C25 1_555 1_555
C24 C25 1_555 1_555
C24 C26 1_555 1_555
C6A C7A 1_555 1_555
C8A C9A 1_555 1_555
C15A C16A 1_555 1_555
C17A C18A 1_555 1_555
N4A C21A 1_555 1_555
N4A C22A 1_555 1_555
C19A C20A 1_555 1_555
C19A C21A 1_555 1_555
C20A C21A 1_555 1_555
C21A C23A 1_555 1_555
C22A C24A 1_555 1_555
C22A C26A 1_555 1_555
C23A C24A 1_555 1_555
C23A C25A 1_555 1_555
C24A C25A 1_555 1_555
C24A C26A 1_555 1_555

#END
