
#######################################################################
#
#                 Cambridge Crystallographic Data Centre
#                                CCDC 
#
#######################################################################
#
# If this CIF has been generated from an entry in the Cambridge 
# Structural Database, then it will include bibliographic, chemical, 
# crystal, experimental, refinement or atomic coordinate data resulting 
# from the CCDC's data processing and validation procedures.
#
#######################################################################

data_QIDDEM02
_symmetry_cell_setting           orthorhombic
_symmetry_space_group_name_H-M   'P n n n'
_symmetry_Int_Tables_number      48
_space_group_name_Hall           '-P 2ab 2bc'
loop_
_symmetry_equiv_pos_site_id
_symmetry_equiv_pos_as_xyz
1 x,y,z
2 1/2-x,1/2-y,z
3 1/2-x,y,1/2-z
4 x,1/2-y,1/2-z
5 -x,-y,-z
6 1/2+x,1/2+y,-z
7 1/2+x,-y,1/2+z
8 -x,1/2+y,1/2+z
_cell_length_a                   13.380(3)
_cell_length_b                   15.567(4)
_cell_length_c                   27.205(6)
_cell_angle_alpha                90
_cell_angle_beta                 90
_cell_angle_gamma                90
_cell_volume                     5666.43
loop_
_atom_site_label
_atom_site_type_symbol
_atom_site_fract_x
_atom_site_fract_y
_atom_site_fract_z
Cd1 Cd 0.7500 0.2500 0.7500
Cd2 Cd 1.2500 0.2500 0.2500
F1 F 0.98807(18) -0.08999(16) 0.39796(9)
F2 F 0.7266(2) 0.0282(2) 0.30628(10)
F3 F 0.97309(17) -0.09407(15) 0.49125(9)
F4 F 0.61499(17) 0.05198(19) 0.38639(9)
F5 F 0.8581(2) -0.08265(17) 0.57124(9)
F6 F 0.59518(18) 0.03075(18) 0.47873(9)
O1 O 0.9258(2) 0.20626(18) 0.71929(10)
O2 O 1.0656(3) 0.2500 0.7500
O3 O 1.3154(2) 0.2097(2) 0.34033(12)
O4 O 1.2500 0.2500 0.40887(16)
N1 N 0.7217(2) 0.1460(2) 0.68818(11)
N2 N 1.1306(2) 0.1442(2) 0.26441(11)
N3 N 0.9739(4) 0.2500 0.7500
N4 N 1.2500 0.2500 0.36418(16)
C1 C 0.6494(3) 0.0876(3) 0.69195(13)
H1 H 0.6120 0.0851 0.7216
C2 C 0.7734(3) 0.1485(2) 0.64594(13)
H2 H 0.8259 0.1893 0.6428
C3 C 0.6261(3) 0.0304(3) 0.65458(13)
H3 H 0.5740 -0.0104 0.6590
C4 C 0.7537(3) 0.0941(2) 0.60665(12)
H4 H 0.7912 0.0989 0.5771
C5 C 0.6793(3) 0.0327(2) 0.61072(12)
C6 C 0.6540(3) -0.0310(3) 0.57082(14)
H5 H 0.5840 -0.0213 0.5605
H6 H 0.6578 -0.0896 0.5849
C7 C 0.7202(3) -0.0277(3) 0.52548(14)
C8 C 0.8204(3) -0.0596(2) 0.52881(14)
C9 C 0.6875(3) -0.0007(3) 0.48149(15)
C10 C 0.8795(3) -0.0637(3) 0.48732(15)
C11 C 0.7452(3) -0.0057(2) 0.43670(15)
C12 C 0.8422(3) -0.0406(2) 0.44127(14)
C13 C 0.7083(3) 0.0173(3) 0.39080(16)
C14 C 0.8969(3) -0.0536(2) 0.39576(14)
C15 C 0.7638(3) 0.0061(3) 0.34954(17)
C16 C 0.8607(3) -0.0318(2) 0.35126(13)
C17 C 0.9145(3) -0.0496(3) 0.30345(14)
H7 H 0.9501 -0.1052 0.3062
H8 H 0.8646 -0.0550 0.2768
C18 C 0.9886(3) 0.0195(2) 0.28997(13)
C19 C 1.0783(3) 0.0271(3) 0.31495(15)
H9 H 1.0927 -0.0107 0.3414
C20 C 0.9724(3) 0.0770(3) 0.25189(14)
H10 H 0.9118 0.0749 0.2338
C21 C 1.1465(3) 0.0887(3) 0.30175(15)
H11 H 1.2073 0.0925 0.3196
C22 C 1.0441(3) 0.1373(3) 0.24029(13)
H12 H 1.0313 0.1757 0.2139
Cd2_2 Cd 0.2500 0.2500 0.2500
Cd2_3 Cd 0.2500 0.2500 1.2500
Cd2_4 Cd 1.2500 0.2500 1.2500
F1A F 0.51193(18) 0.58999(16) 0.39796(9)
F1B F 0.51193(18) -0.08999(16) 1.10204(9)
F1C F 0.98807(18) 0.58999(16) 1.10204(9)
F2A F 0.7734(2) 0.4718(2) 0.30628(10)
F2B F 0.7734(2) 0.0282(2) 1.19372(10)
F2C F 0.7266(2) 0.4718(2) 1.19372(10)
F3A F 0.52691(17) 0.59407(15) 0.49125(9)
F3B F 0.52691(17) -0.09407(15) 1.00875(9)
F3C F 0.97309(17) 0.59407(15) 1.00875(9)
F4A F 0.88501(17) 0.44802(19) 0.38639(9)
F4B F 0.88501(17) 0.05198(19) 1.11361(9)
F4C F 0.61499(17) 0.44802(19) 1.11361(9)
F5A F 0.6419(2) 0.58265(17) 0.57124(9)
F5B F 0.6419(2) -0.08265(17) 0.92876(9)
F5C F 0.8581(2) 0.58265(17) 0.92876(9)
F6A F 0.90482(18) 0.46925(18) 0.47873(9)
F6B F 0.90482(18) 0.03075(18) 1.02127(9)
F6C F 0.59518(18) 0.46925(18) 1.02127(9)
O1C O 0.9258(2) 0.29374(18) 0.78071(10)
O1A O 0.5742(2) 0.29374(18) 0.71929(10)
O1B O 0.5742(2) 0.20626(18) 0.78071(10)
O2A O 0.4344(3) 0.2500 0.7500
O3A O 1.1846(2) 0.2903(2) 0.34033(12)
O3B O 1.1846(2) 0.2097(2) 0.15967(12)
O3C O 1.3154(2) 0.2903(2) 0.15967(12)
O4B O 1.2500 0.2500 0.09113(16)
N1A N 0.7783(2) 0.3540(2) 0.68818(11)
N1B N 0.7783(2) 0.1460(2) 0.81182(11)
N1C N 0.7217(2) 0.3540(2) 0.81182(11)
N2A N 0.3694(2) 0.3558(2) 0.26441(11)
N2B N 0.3694(2) 0.1442(2) 1.23559(11)
N2C N 1.1306(2) 0.3558(2) 1.23559(11)
N2A_2 N 1.3694(2) 0.3558(2) 0.26441(11)
N2B_2 N 1.3694(2) 0.1442(2) 0.23559(11)
N2C_2 N 1.1306(2) 0.3558(2) 0.23559(11)
N3A N 0.5261(4) 0.2500 0.7500
N4B N 1.2500 0.2500 0.13582(16)
C1A C 0.8506(3) 0.4124(3) 0.69195(13)
C1B C 0.8506(3) 0.0876(3) 0.80805(13)
C1C C 0.6494(3) 0.4124(3) 0.80805(13)
H1A H 0.8880 0.4149 0.7216
H1B H 0.8880 0.0851 0.7784
H1C H 0.6120 0.4149 0.7784
C2A C 0.7266(3) 0.3515(2) 0.64594(13)
C2B C 0.7266(3) 0.1485(2) 0.85406(13)
C2C C 0.7734(3) 0.3515(2) 0.85406(13)
H2A H 0.6741 0.3107 0.6428
H2B H 0.6741 0.1893 0.8572
H2C H 0.8259 0.3107 0.8572
C3A C 0.8739(3) 0.4696(3) 0.65458(13)
C3B C 0.8739(3) 0.0304(3) 0.84542(13)
C3C C 0.6261(3) 0.4696(3) 0.84542(13)
H3A H 0.9260 0.5104 0.6590
H3B H 0.9260 -0.0104 0.8410
H3C H 0.5740 0.5104 0.8410
C4A C 0.7463(3) 0.4059(2) 0.60665(12)
C4B C 0.7463(3) 0.0941(2) 0.89335(12)
C4C C 0.7537(3) 0.4059(2) 0.89335(12)
H4A H 0.7088 0.4011 0.5771
H4B H 0.7088 0.0989 0.9229
H4C H 0.7912 0.4011 0.9229
C5A C 0.8207(3) 0.4673(2) 0.61072(12)
C5B C 0.8207(3) 0.0327(2) 0.88928(12)
C5C C 0.6793(3) 0.4673(2) 0.88928(12)
C6A C 0.8460(3) 0.5310(3) 0.57082(14)
C6B C 0.8460(3) -0.0310(3) 0.92918(14)
C6C C 0.6540(3) 0.5310(3) 0.92918(14)
H5A H 0.9160 0.5213 0.5605
H5B H 0.9160 -0.0213 0.9395
H5C H 0.5840 0.5213 0.9395
H6A H 0.8422 0.5896 0.5849
H6B H 0.8422 -0.0896 0.9151
H6C H 0.6578 0.5896 0.9151
C7A C 0.7798(3) 0.5277(3) 0.52548(14)
C7B C 0.7798(3) -0.0277(3) 0.97452(14)
C7C C 0.7202(3) 0.5277(3) 0.97452(14)
C8A C 0.6796(3) 0.5596(2) 0.52881(14)
C8B C 0.6796(3) -0.0596(2) 0.97119(14)
C8C C 0.8204(3) 0.5596(2) 0.97119(14)
C9A C 0.8125(3) 0.5007(3) 0.48149(15)
C9B C 0.8125(3) -0.0007(3) 1.01851(15)
C9C C 0.6875(3) 0.5007(3) 1.01851(15)
C10A C 0.6205(3) 0.5637(3) 0.48732(15)
C10B C 0.6205(3) -0.0637(3) 1.01268(15)
C10C C 0.8795(3) 0.5637(3) 1.01268(15)
C11A C 0.7548(3) 0.5057(2) 0.43670(15)
C11B C 0.7548(3) -0.0057(2) 1.06330(15)
C11C C 0.7452(3) 0.5057(2) 1.06330(15)
C12A C 0.6578(3) 0.5406(2) 0.44127(14)
C12B C 0.6578(3) -0.0406(2) 1.05873(14)
C12C C 0.8422(3) 0.5406(2) 1.05873(14)
C13A C 0.7917(3) 0.4827(3) 0.39080(16)
C13B C 0.7917(3) 0.0173(3) 1.10920(16)
C13C C 0.7083(3) 0.4827(3) 1.10920(16)
C14A C 0.6031(3) 0.5536(2) 0.39576(14)
C14B C 0.6031(3) -0.0536(2) 1.10424(14)
C14C C 0.8969(3) 0.5536(2) 1.10424(14)
C15A C 0.7362(3) 0.4939(3) 0.34954(17)
C15B C 0.7362(3) 0.0061(3) 1.15046(17)
C15C C 0.7638(3) 0.4939(3) 1.15046(17)
C16A C 0.6393(3) 0.5318(2) 0.35126(13)
C16B C 0.6393(3) -0.0318(2) 1.14874(13)
C16C C 0.8607(3) 0.5318(2) 1.14874(13)
C17A C 0.5855(3) 0.5496(3) 0.30345(14)
C17B C 0.5855(3) -0.0496(3) 1.19655(14)
C17C C 0.9145(3) 0.5496(3) 1.19655(14)
H7A H 0.5499 0.6052 0.3062
H7B H 0.5499 -0.1052 1.1938
H7C H 0.9501 0.6052 1.1938
H8A H 0.6354 0.5550 0.2768
H8B H 0.6354 -0.0550 1.2232
H8C H 0.8646 0.5550 1.2232
C18A C 0.5114(3) 0.4805(2) 0.28997(13)
C18B C 0.5114(3) 0.0195(2) 1.21003(13)
C18C C 0.9886(3) 0.4805(2) 1.21003(13)
C19A C 0.4217(3) 0.4729(3) 0.31495(15)
C19B C 0.4217(3) 0.0271(3) 1.18505(15)
C19C C 1.0783(3) 0.4729(3) 1.18505(15)
H9A H 0.4073 0.5107 0.3414
H9B H 0.4073 -0.0107 1.1586
H9C H 1.0927 0.5107 1.1586
C20A C 0.5276(3) 0.4230(3) 0.25189(14)
C20B C 0.5276(3) 0.0770(3) 1.24811(14)
C20C C 0.9724(3) 0.4230(3) 1.24811(14)
H10A H 0.5882 0.4251 0.2338
H10B H 0.5882 0.0749 1.2662
H10C H 0.9118 0.4251 1.2662
C21A C 0.3535(3) 0.4113(3) 0.30175(15)
C21B C 0.3535(3) 0.0887(3) 1.19825(15)
C21C C 1.1465(3) 0.4113(3) 1.19825(15)
H11A H 0.2927 0.4075 0.3196
H11B H 0.2927 0.0925 1.1804
H11C H 1.2073 0.4075 1.1804
C22A C 0.4559(3) 0.3627(3) 0.24029(13)
C22B C 0.4559(3) 0.1373(3) 1.25971(13)
C22C C 1.0441(3) 0.3627(3) 1.25971(13)
H12A H 0.4687 0.3243 0.2139
H12B H 0.4687 0.1757 1.2861
H12C H 1.0313 0.3243 1.2861
C23 C 0.2500 0.2500 0.6084(4)
C24 C 0.2500 0.2500 0.5568(3)
C25 C 0.3348(5) 0.2250(3) 0.5312(3)
H13 H 0.3338 0.2262 0.4963
C26 C 0.4184(8) 0.1993(5) 0.5543(5)
H14 H 0.4758 0.1818 0.5364
C27 C 0.4179(14) 0.1991(9) 0.6053(6)
H15 H 0.4767 0.1805 0.6217
C28 C 0.3424(17) 0.2228(9) 0.6322(4)
H16 H 0.3473 0.2223 0.6670
C25A C 0.1652(5) 0.2750(3) 0.5312(3)
H13A H 0.1662 0.2738 0.4963
C26A C 0.0816(8) 0.3007(5) 0.5543(5)
H14A H 0.0242 0.3182 0.5364
C27A C 0.0821(14) 0.3009(9) 0.6053(6)
H15A H 0.0233 0.3195 0.6217
C28A C 0.1576(17) 0.2772(9) 0.6322(4)
H16A H 0.1527 0.2777 0.6670
C29 C 0.6556(8) 0.2691(6) 0.4482(4)
C30 C 0.7500 0.2500 0.4203(8)
C31 C 0.7500 0.2500 0.3683(7)
C32 C 0.664(2) 0.2684(16) 0.3409(11)
C33 C 0.5762(9) 0.2824(6) 0.3665(4)
C34 C 0.5749(9) 0.2825(7) 0.4199(6)
C29A C 0.8444(8) 0.2309(6) 0.4482(4)
C32A C 0.836(2) 0.2316(16) 0.3409(11)
C33A C 0.9238(9) 0.2176(6) 0.3665(4)
C34A C 0.9251(9) 0.2175(7) 0.4199(6)
C35? C 0.703(3) 0.2603(19) 0.4020(10)
C36? C 0.699(3) 0.2605(19) 0.4905(8)
C37? C 0.652(4) 0.269(3) 0.3467(12)
C38? C 0.703(6) 0.260(5) 0.3108(15)
loop_
_geom_bond_atom_site_label_1
_geom_bond_atom_site_label_2
_geom_bond_site_symmetry_1
_geom_bond_site_symmetry_2
Cd1 O1 1_555 1_555
Cd2 O3 1_555 1_555
F1 C14 1_555 1_555
F2 C15 1_555 1_555
F3 C10 1_555 1_555
F4 C13 1_555 1_555
F5 C8 1_555 1_555
F6 C9 1_555 1_555
O1 N3 1_555 1_555
O2 N3 1_555 1_555
O3 N4 1_555 1_555
O4 N4 1_555 1_555
N1 Cd1 1_555 1_555
N2 Cd2 1_555 1_555
N3 O1C 1_555 1_555
N4 O3A 1_555 1_555
C1 N1 1_555 1_555
H1 C1 1_555 1_555
C2 N1 1_555 1_555
H2 C2 1_555 1_555
C3 C1 1_555 1_555
H3 C3 1_555 1_555
C4 C2 1_555 1_555
H4 C4 1_555 1_555
C5 C3 1_555 1_555
C6 C5 1_555 1_555
H5 C6 1_555 1_555
H6 C6 1_555 1_555
C7 C6 1_555 1_555
C8 C7 1_555 1_555
C9 C7 1_555 1_555
C10 C8 1_555 1_555
C11 C9 1_555 1_555
C12 C10 1_555 1_555
C13 C11 1_555 1_555
C14 C12 1_555 1_555
C15 C13 1_555 1_555
C16 C14 1_555 1_555
C17 C16 1_555 1_555
H7 C17 1_555 1_555
H8 C17 1_555 1_555
C18 C17 1_555 1_555
C19 C18 1_555 1_555
H9 C19 1_555 1_555
C20 C18 1_555 1_555
H10 C20 1_555 1_555
C21 N2 1_555 1_555
H11 C21 1_555 1_555
C22 N2 1_555 1_555
H12 C22 1_555 1_555
C23 C24 1_555 1_555
C24 C25 1_555 1_555
C25 H13 1_555 1_555
C26 C25 1_555 1_555
H14 C26 1_555 1_555
C27 C26 1_555 1_555
H15 C27 1_555 1_555
C28 C23 1_555 1_555
H16 C28 1_555 1_555
C29 C30 1_555 1_555
C30 C31 1_555 1_555
C31 C32 1_555 1_555
C32 C33 1_555 1_555
C33 C34 1_555 1_555
C34 C29 1_555 1_555
Cd2_2 N2A 1_555 1_555
Cd2_3 N2B 1_555 1_555
Cd2_4 N2C 1_555 1_555
F1A C14A 1_555 1_555
F1B C14B 1_555 1_555
F1C C14C 1_555 1_555
F2A C15A 1_555 1_555
F2B C15B 1_555 1_555
F2C C15C 1_555 1_555
F3A C10A 1_555 1_555
F3B C10B 1_555 1_555
F3C C10C 1_555 1_555
F4A C13A 1_555 1_555
F4B C13B 1_555 1_555
F4C C13C 1_555 1_555
F5A C8A 1_555 1_555
F5B C8B 1_555 1_555
F5C C8C 1_555 1_555
F6A C9A 1_555 1_555
F6B C9B 1_555 1_555
F6C C9C 1_555 1_555
O1C Cd1 1_555 1_555
O1A Cd1 1_555 1_555
O1B Cd1 1_555 1_555
O2A N3A 1_555 1_555
O3A Cd2 1_555 1_555
O3B Cd2 1_555 1_555
O3C Cd2 1_555 1_555
O4B N4B 1_555 1_555
N1A Cd1 1_555 1_555
N1B Cd1 1_555 1_555
N1C Cd1 1_555 1_555
N2A C21A 1_555 1_555
N2B C21B 1_555 1_555
N2C C21C 1_555 1_555
N2A_2 Cd2 1_555 1_555
N2B_2 Cd2 1_555 1_555
N2C_2 Cd2 1_555 1_555
N3A O1A 1_555 1_555
N4B O3B 1_555 1_555
C1A N1A 1_555 1_555
C1B N1B 1_555 1_555
C1C N1C 1_555 1_555
H1A C1A 1_555 1_555
H1B C1B 1_555 1_555
H1C C1C 1_555 1_555
C2A N1A 1_555 1_555
C2B N1B 1_555 1_555
C2C N1C 1_555 1_555
H2A C2A 1_555 1_555
H2B C2B 1_555 1_555
H2C C2C 1_555 1_555
C3A C1A 1_555 1_555
C3B C1B 1_555 1_555
C3C C1C 1_555 1_555
H3A C3A 1_555 1_555
H3B C3B 1_555 1_555
H3C C3C 1_555 1_555
C4A C2A 1_555 1_555
C4B C2B 1_555 1_555
C4C C2C 1_555 1_555
H4A C4A 1_555 1_555
H4B C4B 1_555 1_555
H4C C4C 1_555 1_555
C5A C3A 1_555 1_555
C5B C3B 1_555 1_555
C5C C3C 1_555 1_555
C6A C5A 1_555 1_555
C6B C5B 1_555 1_555
C6C C5C 1_555 1_555
H5A C6A 1_555 1_555
H5B C6B 1_555 1_555
H5C C6C 1_555 1_555
H6A C6A 1_555 1_555
H6B C6B 1_555 1_555
H6C C6C 1_555 1_555
C7A C6A 1_555 1_555
C7B C6B 1_555 1_555
C7C C6C 1_555 1_555
C8A C7A 1_555 1_555
C8B C7B 1_555 1_555
C8C C7C 1_555 1_555
C9A C7A 1_555 1_555
C9B C7B 1_555 1_555
C9C C7C 1_555 1_555
C10A C8A 1_555 1_555
C10B C8B 1_555 1_555
C10C C8C 1_555 1_555
C11A C9A 1_555 1_555
C11B C9B 1_555 1_555
C11C C9C 1_555 1_555
C12A C10A 1_555 1_555
C12B C10B 1_555 1_555
C12C C10C 1_555 1_555
C13A C11A 1_555 1_555
C13B C11B 1_555 1_555
C13C C11C 1_555 1_555
C14A C12A 1_555 1_555
C14B C12B 1_555 1_555
C14C C12C 1_555 1_555
C15A C13A 1_555 1_555
C15B C13B 1_555 1_555
C15C C13C 1_555 1_555
C16A C14A 1_555 1_555
C16B C14B 1_555 1_555
C16C C14C 1_555 1_555
C17A C16A 1_555 1_555
C17B C16B 1_555 1_555
C17C C16C 1_555 1_555
H7A C17A 1_555 1_555
H7B C17B 1_555 1_555
H7C C17C 1_555 1_555
H8A C17A 1_555 1_555
H8B C17B 1_555 1_555
H8C C17C 1_555 1_555
C18A C17A 1_555 1_555
C18B C17B 1_555 1_555
C18C C17C 1_555 1_555
C19A C18A 1_555 1_555
C19B C18B 1_555 1_555
C19C C18C 1_555 1_555
H9A C19A 1_555 1_555
H9B C19B 1_555 1_555
H9C C19C 1_555 1_555
C20A C18A 1_555 1_555
C20B C18B 1_555 1_555
C20C C18C 1_555 1_555
H10A C20A 1_555 1_555
H10B C20B 1_555 1_555
H10C C20C 1_555 1_555
C21A C19A 1_555 1_555
C21B C19B 1_555 1_555
C21C C19C 1_555 1_555
H11A C21A 1_555 1_555
H11B C21B 1_555 1_555
H11C C21C 1_555 1_555
C22A N2A 1_555 1_555
C22B N2B 1_555 1_555
C22C N2C 1_555 1_555
H12A C22A 1_555 1_555
H12B C22B 1_555 1_555
H12C C22C 1_555 1_555
C25A C24 1_555 1_555
H13A C25A 1_555 1_555
C26A C25A 1_555 1_555
H14A C26A 1_555 1_555
C27A C26A 1_555 1_555
H15A C27A 1_555 1_555
C28A C23 1_555 1_555
H16A C28A 1_555 1_555
C29A C30 1_555 1_555
C32A C31 1_555 1_555
C33A C32A 1_555 1_555
C34A C29A 1_555 1_555
C4 C5 1_555 1_555
C11 C12 1_555 1_555
C15 C16 1_555 1_555
C19 C21 1_555 1_555
C20 C22 1_555 1_555
C27 C28 1_555 1_555
O1B N3A 1_555 1_555
O3C N4B 1_555 1_555
C4A C5A 1_555 1_555
C4B C5B 1_555 1_555
C4C C5C 1_555 1_555
C11A C12A 1_555 1_555
C11B C12B 1_555 1_555
C11C C12C 1_555 1_555
C15A C16A 1_555 1_555
C15B C16B 1_555 1_555
C15C C16C 1_555 1_555
C20A C22A 1_555 1_555
C20B C22B 1_555 1_555
C20C C22C 1_555 1_555
C27A C28A 1_555 1_555
C33A C34A 1_555 1_555

#END
