
#######################################################################
#
#                 Cambridge Crystallographic Data Centre
#                                CCDC 
#
#######################################################################
#
# If this CIF has been generated from an entry in the Cambridge 
# Structural Database, then it will include bibliographic, chemical, 
# crystal, experimental, refinement or atomic coordinate data resulting 
# from the CCDC's data processing and validation procedures.
#
#######################################################################

data_QIDDIQ02
_symmetry_cell_setting           orthorhombic
_symmetry_space_group_name_H-M   'P c c n'
_symmetry_Int_Tables_number      56
_space_group_name_Hall           '-P 2ab 2ac'
loop_
_symmetry_equiv_pos_site_id
_symmetry_equiv_pos_as_xyz
1 x,y,z
2 1/2-x,1/2-y,z
3 1/2+x,-y,1/2-z
4 -x,1/2+y,1/2-z
5 -x,-y,-z
6 1/2+x,1/2+y,-z
7 1/2-x,y,1/2+z
8 x,1/2-y,1/2+z
_cell_length_a                   20.8560(10)
_cell_length_b                   17.074(2)
_cell_length_c                   16.3418(7)
_cell_angle_alpha                90
_cell_angle_beta                 90
_cell_angle_gamma                90
_cell_volume                     5819.24
loop_
_atom_site_label
_atom_site_type_symbol
_atom_site_fract_x
_atom_site_fract_y
_atom_site_fract_z
Cd1 Cd 0.25000 0.75000 -0.10880
F1 F 0.1813 0.4764 0.2122
F2 F -0.02855 0.4567 0.10565
F3 F 0.1974 0.32210 0.19285
F4 F -0.01435 0.30180 0.09025
F5 F 0.1903 0.2381 0.0485
F6 F 0.01115 0.19315 0.21915
F7 F 0.209 0.0835 0.0356
F8 F 0.02525 0.03755 0.1971
O1 O 0.1875 0.86985 -0.06250
O2 O 0.13860 0.81925 -0.16550
O3 O 0.091 0.90835 -0.09300
N1 N 0.18315 0.68895 -0.01070
N2 N 0.20355 -0.16895 0.2897
N3 N 0.13870 0.8669 -0.10630
C1 C 0.1744 0.61115 -0.01975
C2 C 0.15575 0.72625 0.0543
C3 C 0.1375 0.56615 0.03565
C4 C 0.11915 0.68505 0.11255
C5 C 0.10995 0.60485 0.10335
C6 C 0.06925 0.56065 0.16705
C7 C 0.07545 0.4733 0.15945
C8 C 0.13160 0.4337 0.18085
C9 C 0.0276 0.42415 0.12980
C10 C 0.14035 0.35425 0.17185
C11 C 0.035 0.3448 0.1211
C12 C 0.09125 0.3064 0.14265
C13 C 0.10010 0.22025 0.134
C14 C 0.150 0.1884 0.0883
C15 C 0.05915 0.1662 0.1705
C16 C 0.1586 0.10945 0.08075
C17 C 0.06735 0.08755 0.16005
C18 C 0.11605 0.05545 0.1137
C19 C 0.1191 -0.03130 0.09415
C20 C 0.14875 -0.07860 0.1646
C21 C 0.2155 -0.09030 0.1678
C22 C 0.11045 -0.11375 0.22435
C23 C 0.24145 -0.13610 0.2319
C24 C 0.1393 -0.15785 0.28665
Cd1F Cd 0.25000 -0.25000 0.39120
Cd1F_2 Cd 0.25000 1.75000 0.39120
F1A F 0.3187 1.0236 0.2122
F2A F 0.52855 1.0433 0.10565
F3A F 0.3026 1.17790 0.19285
F4A F 0.51435 1.19820 0.09025
F5A F 0.3097 1.2619 0.0485
F6A F 0.48885 1.30685 0.21915
F7A F 0.291 1.4165 0.0356
F8A F 0.47475 1.46245 0.1971
O1A O 0.3125 0.63015 -0.06250
O2A O 0.36140 0.68075 -0.16550
O3A O 0.409 0.59165 -0.09300
N1A N 0.31685 0.81105 -0.01070
N2A N 0.29645 1.66895 0.2897
N2F N 0.29645 0.83105 -0.2103
N2G N 0.20355 0.66895 -0.2103
N3A N 0.36130 0.6331 -0.10630
C1A C 0.3256 0.88885 -0.01975
C2A C 0.34425 0.77375 0.0543
C3A C 0.3625 0.93385 0.03565
C4A C 0.38085 0.81495 0.11255
C5A C 0.39005 0.89515 0.10335
C6A C 0.43075 0.93935 0.16705
C7A C 0.42455 1.0267 0.15945
C8A C 0.36840 1.0663 0.18085
C9A C 0.4724 1.07585 0.12980
C10A C 0.35965 1.14575 0.17185
C11A C 0.465 1.1552 0.1211
C12A C 0.40875 1.1936 0.14265
C13A C 0.39990 1.27975 0.134
C14A C 0.350 1.3116 0.0883
C15A C 0.44085 1.3338 0.1705
C16A C 0.3414 1.39055 0.08075
C17A C 0.43265 1.41245 0.16005
C18A C 0.38395 1.44455 0.1137
C19A C 0.3809 1.53130 0.09415
C20A C 0.35125 1.57860 0.1646
C21A C 0.2845 1.59030 0.1678
C22A C 0.38955 1.61375 0.22435
C23A C 0.25855 1.63610 0.2319
C24A C 0.3607 1.65785 0.28665
O4 O 0.13995 0.1944 0.34655
O5 O 0.12065 0.1167 0.45525
C25 C 0.1087 0.2601 0.3791
C26 C 0.14175 0.33005 0.3694
C27 C 0.047 0.25455 0.41355
C28 C 0.112 0.4003 0.3919
C29 C 0.01775 0.327 0.44
C30 C 0.0502 0.39895 0.4285
C31 C 0.145 0.1259 0.38975
C32 C 0.18440 0.06555 0.34335
loop_
_geom_bond_atom_site_label_1
_geom_bond_atom_site_label_2
_geom_bond_site_symmetry_1
_geom_bond_site_symmetry_2
Cd1 O1 1_555 1_555
F1 C8 1_555 1_555
F2 C9 1_555 1_555
F3 C10 1_555 1_555
F4 C11 1_555 1_555
F5 C14 1_555 1_555
F6 C15 1_555 1_555
F7 C16 1_555 1_555
F8 C17 1_555 1_555
O1 N3 1_555 1_555
O2 Cd1 1_555 1_555
O3 N3 1_555 1_555
N1 Cd1 1_555 1_555
N2 C23 1_555 1_555
N3 O2 1_555 1_555
C1 N1 1_555 1_555
C2 N1 1_555 1_555
C3 C1 1_555 1_555
C4 C2 1_555 1_555
C5 C3 1_555 1_555
C6 C5 1_555 1_555
C7 C6 1_555 1_555
C8 C7 1_555 1_555
C9 C7 1_555 1_555
C10 C8 1_555 1_555
C11 C9 1_555 1_555
C12 C10 1_555 1_555
C13 C12 1_555 1_555
C14 C13 1_555 1_555
C15 C13 1_555 1_555
C16 C14 1_555 1_555
C17 C15 1_555 1_555
C18 C16 1_555 1_555
C19 C18 1_555 1_555
C20 C19 1_555 1_555
C21 C20 1_555 1_555
C22 C20 1_555 1_555
C23 C21 1_555 1_555
C24 N2 1_555 1_555
O4 C25 1_555 1_555
O5 C31 1_555 1_555
C25 C26 1_555 1_555
C26 C28 1_555 1_555
C27 C25 1_555 1_555
C28 C30 1_555 1_555
C29 C27 1_555 1_555
C30 C29 1_555 1_555
C31 O4 1_555 1_555
C32 C31 1_555 1_555
Cd1F N2 1_555 1_555
Cd1F_2 N2A 1_555 1_555
F1A C8A 1_555 1_555
F2A C9A 1_555 1_555
F3A C10A 1_555 1_555
F4A C11A 1_555 1_555
F5A C14A 1_555 1_555
F6A C15A 1_555 1_555
F7A C16A 1_555 1_555
F8A C17A 1_555 1_555
O1A Cd1 1_555 1_555
O2A Cd1 1_555 1_555
O3A N3A 1_555 1_555
N1A Cd1 1_555 1_555
N2A C23A 1_555 1_555
N2F Cd1 1_555 1_555
N2G Cd1 1_555 1_555
N3A O1A 1_555 1_555
C1A N1A 1_555 1_555
C2A N1A 1_555 1_555
C3A C1A 1_555 1_555
C4A C2A 1_555 1_555
C5A C3A 1_555 1_555
C6A C5A 1_555 1_555
C7A C6A 1_555 1_555
C8A C7A 1_555 1_555
C9A C7A 1_555 1_555
C10A C8A 1_555 1_555
C11A C9A 1_555 1_555
C12A C10A 1_555 1_555
C13A C12A 1_555 1_555
C14A C13A 1_555 1_555
C15A C13A 1_555 1_555
C16A C14A 1_555 1_555
C17A C15A 1_555 1_555
C18A C16A 1_555 1_555
C19A C18A 1_555 1_555
C20A C19A 1_555 1_555
C21A C20A 1_555 1_555
C22A C20A 1_555 1_555
C23A C21A 1_555 1_555
C24A N2A 1_555 1_555
C4 C5 1_555 1_555
C11 C12 1_555 1_555
C17 C18 1_555 1_555
C22 C24 1_555 1_555
O2A N3A 1_555 1_555
C4A C5A 1_555 1_555
C11A C12A 1_555 1_555
C17A C18A 1_555 1_555
C22A C24A 1_555 1_555

#END
