
#######################################################################
#
#                 Cambridge Crystallographic Data Centre
#                                CCDC 
#
#######################################################################
#
# If this CIF has been generated from an entry in the Cambridge 
# Structural Database, then it will include bibliographic, chemical, 
# crystal, experimental, refinement or atomic coordinate data resulting 
# from the CCDC's data processing and validation procedures.
#
#######################################################################

data_QIDDEM01
_symmetry_cell_setting           orthorhombic
_symmetry_space_group_name_H-M   'P n n n'
_symmetry_Int_Tables_number      48
_space_group_name_Hall           '-P 2ab 2bc'
loop_
_symmetry_equiv_pos_site_id
_symmetry_equiv_pos_as_xyz
1 x,y,z
2 1/2-x,1/2-y,z
3 x,1/2-y,1/2-z
4 1/2-x,y,1/2-z
5 -x,-y,-z
6 1/2+x,1/2+y,-z
7 -x,1/2+y,1/2+z
8 1/2+x,-y,1/2+z
_cell_length_a                   15.5830
_cell_length_b                   27.2800
_cell_length_c                   13.4010
_cell_angle_alpha                90
_cell_angle_beta                 90
_cell_angle_gamma                90
_cell_volume                     5696.82
loop_
_atom_site_label
_atom_site_type_symbol
_atom_site_fract_x
_atom_site_fract_y
_atom_site_fract_z
Cd1 Cd 0.25000 -0.25000 0.25000
Cd2 Cd 0.25000 0.25000 0.75000
F1 F 0.03310 0.02015 0.09355
F2 F -0.08420 -0.07130 0.35695
F3 F -0.09500 0.00865 0.47295
F4 F 0.05455 0.11260 0.11370
F5 F 0.03050 0.19305 0.22660
F6 F -0.09205 0.10210 0.48955
O1 O 0.20655 -0.28080 0.07525
O2 O 0.25000 -0.25000 -0.06740
O3 O 0.25000 0.09120 0.75000
O4 O 0.20970 0.15980 0.81625
N1 N 0.14530 -0.18815 0.22165
N2 N 0.25000 -0.25000 0.02690
N3 N 0.14435 0.23540 0.63000
N4 N 0.25000 0.13625 0.75000
C1 C 0.14985 -0.14585 0.27450
C2 C 0.08550 -0.19305 0.14650
C3 C 0.09425 -0.10625 0.25260
C4 C 0.02745 -0.15530 0.12155
C5 C 0.03275 -0.11065 0.17800
C6 C -0.03390 -0.07075 0.14955
C7 C -0.02705 -0.02535 0.21750
C8 C -0.06070 -0.02850 0.31750
C9 C -0.00005 0.01725 0.18680
C10 C -0.06365 0.01205 0.37750
C11 C -0.00465 0.06320 0.24450
C12 C -0.04115 0.05875 0.34240
C13 C 0.01785 0.10865 0.20900
C14 C -0.05410 0.10445 0.39550
C15 C 0.00755 0.14955 0.26450
C16 C -0.03360 0.14885 0.35955
C17 C -0.05295 0.19685 0.41330
C18 C 0.01830 0.20935 0.48770
C19 C 0.02605 0.18375 0.57750
C20 C 0.07655 0.24870 0.46950
C21 C 0.08915 0.19805 0.64715
C22 C 0.13920 0.26010 0.54400
O1A O 0.29345 -0.21920 0.07525
O4C O 0.29030 0.15980 0.68375
O1B O 0.20655 -0.21920 0.42475
O2B O 0.25000 -0.25000 0.56740
N2B N 0.25000 -0.25000 0.47310
O1C O 0.29345 -0.28080 0.42475
F1A F 0.46690 -0.52015 0.09355
F2A F 0.58420 -0.42870 0.35695
F3A F 0.59500 -0.50865 0.47295
F4A F 0.44545 -0.61260 0.11370
F5A F 0.46950 -0.69305 0.22660
F6A F 0.59205 -0.60210 0.48955
N1A N 0.35470 -0.31185 0.22165
N3A N 0.35565 -0.73540 0.63000
C1A C 0.35015 -0.35415 0.27450
C2A C 0.41450 -0.30695 0.14650
C3A C 0.40575 -0.39375 0.25260
C4A C 0.47255 -0.34470 0.12155
C5A C 0.46725 -0.38935 0.17800
C6A C 0.53390 -0.42925 0.14955
C7A C 0.52705 -0.47465 0.21750
C8A C 0.56070 -0.47150 0.31750
C9A C 0.50005 -0.51725 0.18680
C10A C 0.56365 -0.51205 0.37750
C11A C 0.50465 -0.56320 0.24450
C12A C 0.54115 -0.55875 0.34240
C13A C 0.48215 -0.60865 0.20900
C14A C 0.55410 -0.60445 0.39550
C15A C 0.49245 -0.64955 0.26450
C16A C 0.53360 -0.64885 0.35955
C17A C 0.55295 -0.69685 0.41330
C18A C 0.48170 -0.70935 0.48770
C19A C 0.47395 -0.68375 0.57750
C20A C 0.42345 -0.74870 0.46950
C21A C 0.41085 -0.69805 0.64715
C22A C 0.36080 -0.76010 0.54400
F1B F 0.03310 -0.52015 0.40645
F2B F -0.08420 -0.42870 0.14305
F3B F -0.09500 -0.50865 0.02705
F4B F 0.05455 -0.61260 0.38630
F5B F 0.03050 -0.69305 0.27340
F6B F -0.09205 -0.60210 0.01045
N1B N 0.14530 -0.31185 0.27835
N3B N 0.14435 -0.73540 -0.13000
C1B C 0.14985 -0.35415 0.22550
C2B C 0.08550 -0.30695 0.35350
C3B C 0.09425 -0.39375 0.24740
C4B C 0.02745 -0.34470 0.37845
C5B C 0.03275 -0.38935 0.32200
C6B C -0.03390 -0.42925 0.35045
C7B C -0.02705 -0.47465 0.28250
C8B C -0.06070 -0.47150 0.18250
C9B C -0.00005 -0.51725 0.31320
C10B C -0.06365 -0.51205 0.12250
C11B C -0.00465 -0.56320 0.25550
C12B C -0.04115 -0.55875 0.15760
C13B C 0.01785 -0.60865 0.29100
C14B C -0.05410 -0.60445 0.10450
C15B C 0.00755 -0.64955 0.23550
C16B C -0.03360 -0.64885 0.14045
C17B C -0.05295 -0.69685 0.08670
C18B C 0.01830 -0.70935 0.01230
C19B C 0.02605 -0.68375 -0.07750
C20B C 0.07655 -0.74870 0.03050
C21B C 0.08915 -0.69805 -0.14715
C22B C 0.13920 -0.76010 -0.04400
F1C F 0.46690 0.02015 0.40645
F2C F 0.58420 -0.07130 0.14305
F3C F 0.59500 0.00865 0.02705
F4C F 0.44545 0.11260 0.38630
F5C F 0.46950 0.19305 0.27340
F6C F 0.59205 0.10210 0.01045
N1C N 0.35470 -0.18815 0.27835
N3C N 0.35565 0.23540 -0.13000
C1C C 0.35015 -0.14585 0.22550
C2C C 0.41450 -0.19305 0.35350
C3C C 0.40575 -0.10625 0.24740
C4C C 0.47255 -0.15530 0.37845
C5C C 0.46725 -0.11065 0.32200
C6C C 0.53390 -0.07075 0.35045
C7C C 0.52705 -0.02535 0.28250
C8C C 0.56070 -0.02850 0.18250
C9C C 0.50005 0.01725 0.31320
C10C C 0.56365 0.01205 0.12250
C11C C 0.50465 0.06320 0.25550
C12C C 0.54115 0.05875 0.15760
C13C C 0.48215 0.10865 0.29100
C14C C 0.55410 0.10445 0.10450
C15C C 0.49245 0.14955 0.23550
C16C C 0.53360 0.14885 0.14045
C17C C 0.55295 0.19685 0.08670
C18C C 0.48170 0.20935 0.01230
C19C C 0.47395 0.18375 -0.07750
C20C C 0.42345 0.24870 0.03050
C21C C 0.41085 0.19805 -0.14715
C22C C 0.36080 0.26010 -0.04400
O3A O 0.25000 0.40880 0.75000
O4A O 0.29030 0.34020 0.81625
N4A N 0.25000 0.36375 0.75000
O4B O 0.20970 0.34020 0.68375
N3A_2 N 0.35565 0.26460 0.63000
N3B_2 N 0.14435 0.26460 0.87000
N3C_2 N 0.35565 0.23540 0.87000
Cd2_2 Cd 0.25000 -0.75000 0.75000
Cd2_3 Cd 0.25000 -0.75000 -0.25000
Cd2_4 Cd 0.25000 0.25000 -0.25000
C23 C -0.20000 1.10850 1.08200
C24 C -0.19800 1.05650 1.07650
C25 C -0.22000 1.13450 1.15450
C26 C -0.22295 1.02985 1.16200
C27 C -0.25000 1.10950 1.25000
C28 C -0.25000 1.05615 1.25000
C26C C -0.27705 1.02985 1.33800
C24C C -0.30200 1.05650 1.42350
C23C C -0.30000 1.10850 1.41800
C25C C -0.28000 1.13450 1.34550
C29 C -0.27850 0.92650 0.91450
C30 C -0.28200 0.86560 0.91900
C31 C -0.26800 0.95875 0.83300
C32 C -0.26550 0.83725 0.83200
C33 C -0.25000 0.91650 0.75000
C34 C -0.25000 0.86600 0.75000
C32C C -0.23450 0.83725 0.66800
C30C C -0.21800 0.86560 0.58100
C29C C -0.22150 0.92650 0.58550
C31C C -0.23200 0.95875 0.66700
loop_
_geom_bond_atom_site_label_1
_geom_bond_atom_site_label_2
_geom_bond_site_symmetry_1
_geom_bond_site_symmetry_2
Cd1 O1 1_555 1_555
Cd2 O4 1_555 1_555
F1 C9 1_555 1_555
F2 C8 1_555 1_555
F3 C10 1_555 1_555
F4 C13 1_555 1_555
F5 C15 1_555 1_555
F6 C14 1_555 1_555
O1 N2 1_555 1_555
O2 N2 1_555 1_555
O3 N4 1_555 1_555
O4 N4 1_555 1_555
N1 Cd1 1_555 1_555
N2 O1A 1_555 1_555
N3 Cd2 1_555 1_555
N4 O4C 1_555 1_555
C1 N1 1_555 1_555
C2 N1 1_555 1_555
C3 C1 1_555 1_555
C4 C2 1_555 1_555
C5 C3 1_555 1_555
C6 C5 1_555 1_555
C7 C6 1_555 1_555
C8 C7 1_555 1_555
C9 C7 1_555 1_555
C10 C8 1_555 1_555
C11 C9 1_555 1_555
C12 C10 1_555 1_555
C13 C11 1_555 1_555
C14 C12 1_555 1_555
C15 C13 1_555 1_555
C16 C14 1_555 1_555
C17 C16 1_555 1_555
C18 C17 1_555 1_555
C19 C18 1_555 1_555
C20 C18 1_555 1_555
C21 N3 1_555 1_555
C22 N3 1_555 1_555
C23 C24 1_555 1_555
C24 C26 1_555 1_555
C25 C23 1_555 1_555
C26 C28 1_555 1_555
C27 C25 1_555 1_555
C28 C27 1_555 1_555
C29 C30 1_555 1_555
C30 C32 1_555 1_555
C31 C29 1_555 1_555
C32 C34 1_555 1_555
C33 C31 1_555 1_555
C34 C33 1_555 1_555
O1A Cd1 1_555 1_555
O4C Cd2 1_555 1_555
C26C C28 1_555 1_555
C24C C26C 1_555 1_555
C23C C24C 1_555 1_555
C25C C27 1_555 1_555
C32C C34 1_555 1_555
C30C C32C 1_555 1_555
C29C C30C 1_555 1_555
C31C C33 1_555 1_555
O1B Cd1 1_555 1_555
O2B N2B 1_555 1_555
N2B O1B 1_555 1_555
O1C Cd1 1_555 1_555
F1A C9A 1_555 1_555
F2A C8A 1_555 1_555
F3A C10A 1_555 1_555
F4A C13A 1_555 1_555
F5A C15A 1_555 1_555
F6A C14A 1_555 1_555
N1A Cd1 1_555 1_555
N3A C21A 1_555 1_555
C1A N1A 1_555 1_555
C2A N1A 1_555 1_555
C3A C1A 1_555 1_555
C4A C2A 1_555 1_555
C5A C3A 1_555 1_555
C6A C5A 1_555 1_555
C7A C6A 1_555 1_555
C8A C7A 1_555 1_555
C9A C7A 1_555 1_555
C10A C8A 1_555 1_555
C11A C9A 1_555 1_555
C12A C10A 1_555 1_555
C13A C11A 1_555 1_555
C14A C12A 1_555 1_555
C15A C13A 1_555 1_555
C16A C14A 1_555 1_555
C17A C16A 1_555 1_555
C18A C17A 1_555 1_555
C19A C18A 1_555 1_555
C20A C18A 1_555 1_555
C21A C19A 1_555 1_555
C22A N3A 1_555 1_555
F1B C9B 1_555 1_555
F2B C8B 1_555 1_555
F3B C10B 1_555 1_555
F4B C13B 1_555 1_555
F5B C15B 1_555 1_555
F6B C14B 1_555 1_555
N1B Cd1 1_555 1_555
N3B C21B 1_555 1_555
C1B N1B 1_555 1_555
C2B N1B 1_555 1_555
C3B C1B 1_555 1_555
C4B C2B 1_555 1_555
C5B C3B 1_555 1_555
C6B C5B 1_555 1_555
C7B C6B 1_555 1_555
C8B C7B 1_555 1_555
C9B C7B 1_555 1_555
C10B C8B 1_555 1_555
C11B C9B 1_555 1_555
C12B C10B 1_555 1_555
C13B C11B 1_555 1_555
C14B C12B 1_555 1_555
C15B C13B 1_555 1_555
C16B C14B 1_555 1_555
C17B C16B 1_555 1_555
C18B C17B 1_555 1_555
C19B C18B 1_555 1_555
C20B C18B 1_555 1_555
C21B C19B 1_555 1_555
C22B N3B 1_555 1_555
F1C C9C 1_555 1_555
F2C C8C 1_555 1_555
F3C C10C 1_555 1_555
F4C C13C 1_555 1_555
F5C C15C 1_555 1_555
F6C C14C 1_555 1_555
N1C Cd1 1_555 1_555
N3C C21C 1_555 1_555
C1C N1C 1_555 1_555
C2C N1C 1_555 1_555
C3C C1C 1_555 1_555
C4C C2C 1_555 1_555
C5C C3C 1_555 1_555
C6C C5C 1_555 1_555
C7C C6C 1_555 1_555
C8C C7C 1_555 1_555
C9C C7C 1_555 1_555
C10C C8C 1_555 1_555
C11C C9C 1_555 1_555
C12C C10C 1_555 1_555
C13C C11C 1_555 1_555
C14C C12C 1_555 1_555
C15C C13C 1_555 1_555
C16C C14C 1_555 1_555
C17C C16C 1_555 1_555
C18C C17C 1_555 1_555
C19C C18C 1_555 1_555
C20C C18C 1_555 1_555
C21C C19C 1_555 1_555
C22C N3C 1_555 1_555
O3A N4A 1_555 1_555
O4A Cd2 1_555 1_555
N4A O4A 1_555 1_555
O4B Cd2 1_555 1_555
N3A_2 Cd2 1_555 1_555
N3B_2 Cd2 1_555 1_555
N3C_2 Cd2 1_555 1_555
Cd2_2 N3A 1_555 1_555
Cd2_3 N3B 1_555 1_555
Cd2_4 N3C 1_555 1_555
C4 C5 1_555 1_555
C11 C12 1_555 1_555
C15 C16 1_555 1_555
C19 C21 1_555 1_555
C20 C22 1_555 1_555
C23C C25C 1_555 1_555
C29C C31C 1_555 1_555
N2B O1C 1_555 1_555
C4A C5A 1_555 1_555
C11A C12A 1_555 1_555
C15A C16A 1_555 1_555
C20A C22A 1_555 1_555
C4B C5B 1_555 1_555
C11B C12B 1_555 1_555
C15B C16B 1_555 1_555
C20B C22B 1_555 1_555
C4C C5C 1_555 1_555
C11C C12C 1_555 1_555
C15C C16C 1_555 1_555
C20C C22C 1_555 1_555
N4A O4B 1_555 1_555

#END
