
#######################################################################
#
#                 Cambridge Crystallographic Data Centre
#                                CCDC 
#
#######################################################################
#
# If this CIF has been generated from an entry in the Cambridge 
# Structural Database, then it will include bibliographic, chemical, 
# crystal, experimental, refinement or atomic coordinate data resulting 
# from the CCDC's data processing and validation procedures.
#
#######################################################################

data_QIDDIQ01
_symmetry_cell_setting           orthorhombic
_symmetry_space_group_name_H-M   'P c c n'
_symmetry_Int_Tables_number      56
_space_group_name_Hall           '-P 2ab 2ac'
loop_
_symmetry_equiv_pos_site_id
_symmetry_equiv_pos_as_xyz
1 x,y,z
2 1/2-x,1/2-y,z
3 -x,1/2+y,1/2-z
4 1/2+x,-y,1/2-z
5 -x,-y,-z
6 1/2+x,1/2+y,-z
7 x,1/2-y,1/2+z
8 1/2-x,y,1/2+z
_cell_length_a                   17.048(3)
_cell_length_b                   20.897(3)
_cell_length_c                   16.446(3)
_cell_angle_alpha                90
_cell_angle_beta                 90
_cell_angle_gamma                90
_cell_volume                     5858.92
loop_
_atom_site_label
_atom_site_type_symbol
_atom_site_fract_x
_atom_site_fract_y
_atom_site_fract_z
Cd1 Cd 0.2500 0.2500 -0.105610(13)
F1 F 0.52734(9) 0.31757(7) 0.21176(10)
F2 F 0.54610(9) 0.52595(6) 0.10414(10)
F3 F 0.68134(9) 0.30226(6) 0.19409(9)
F4 F 0.70064(8) 0.51244(6) 0.09078(9)
F5 F 0.80837(8) 0.48828(6) 0.21961(9)
F6 F 0.76705(9) 0.30926(6) 0.05094(9)
F7 F 0.96379(8) 0.47532(6) 0.19926(9)
F8 F 0.92168(9) 0.29181(7) 0.03907(9)
O1 O 0.32352(14) 0.13671(12) -0.16575(16)
O2 O 0.36748(14) 0.18505(10) -0.06194(14)
O3 O 0.40756(14) 0.09036(11) -0.09099(15)
N1 N 0.31280(11) 0.31509(9) -0.00824(11)
N2 N 1.16994(11) 0.29676(8) 0.29346(11)
N3 N 0.36771(12) 0.13698(11) -0.10606(13)
C1 C 0.39046(13) 0.32376(11) -0.01608(14)
H1 H 0.4163 0.3038 -0.0605
C2 C 0.27823(14) 0.34305(11) 0.05549(15)
H2 H 0.2232 0.3379 0.0622
C3 C 0.43475(13) 0.36009(11) 0.03674(14)
H3 H 0.4893 0.3657 0.0276
C4 C 0.31856(13) 0.37894(11) 0.11190(14)
H4 H 0.2915 0.3973 0.1567
C5 C 0.39886(13) 0.38834(10) 0.10321(14)
C6 C 0.44318(14) 0.42821(12) 0.16507(15)
H5 H 0.4285 0.4737 0.1580
H6 H 0.4268 0.4150 0.2203
C7 C 0.53112(14) 0.42220(11) 0.15857(14)
C8 C 0.56945(14) 0.36657(11) 0.18069(15)
C9 C 0.57852(14) 0.47034(11) 0.12867(14)
C10 C 0.64902(15) 0.35847(11) 0.17227(15)
C11 C 0.65890(14) 0.46351(10) 0.12162(14)
C12 C 0.69682(13) 0.40741(10) 0.14315(14)
C13 C 0.78268(14) 0.39931(10) 0.13511(14)
C14 C 0.81491(15) 0.34948(10) 0.09031(14)
C15 C 0.83549(14) 0.44070(10) 0.17242(14)
C16 C 0.89464(15) 0.34146(10) 0.08316(14)
C17 C 0.91506(14) 0.43332(10) 0.16270(13)
C18 C 0.94724(14) 0.38434(11) 0.11695(13)
C19 C 1.03414(14) 0.38115(12) 0.09966(14)
H7 H 1.0537 0.4250 0.0890
H8 H 1.0426 0.3556 0.0498
C20 C 1.08157(13) 0.35205(11) 0.16829(13)
C21 C 1.09218(14) 0.28655(11) 0.17339(14)
H9 H 1.0694 0.2592 0.1337
C22 C 1.11682(14) 0.38909(10) 0.22750(15)
H10 H 1.1113 0.4343 0.2262
C23 C 1.13585(14) 0.26095(10) 0.23609(14)
H11 H 1.1420 0.2158 0.2386
C24 C 1.16006(13) 0.36049(11) 0.28856(15)
H12 H 1.1837 0.3869 0.3287
Cd1F Cd 1.2500 0.2500 0.394390(13)
Cd1F_2 Cd -0.7500 0.2500 0.394390(13)
F1A F -0.02734(9) 0.18243(7) 0.21176(10)
F2A F -0.04610(9) -0.02595(6) 0.10414(10)
F3A F -0.18134(9) 0.19774(6) 0.19409(9)
F4A F -0.20064(8) -0.01244(6) 0.09078(9)
F5A F -0.30837(8) 0.01172(6) 0.21961(9)
F6A F -0.26705(9) 0.19074(6) 0.05094(9)
F7A F -0.46379(8) 0.02468(6) 0.19926(9)
F8A F -0.42168(9) 0.20819(7) 0.03907(9)
O1A O 0.17648(14) 0.36329(12) -0.16575(16)
O2A O 0.13252(14) 0.31495(10) -0.06194(14)
O3A O 0.09244(14) 0.40964(11) -0.09099(15)
N1A N 0.18720(11) 0.18491(9) -0.00824(11)
N2A N -0.66994(11) 0.20324(8) 0.29346(11)
N2F N 0.16994(11) 0.20324(8) -0.20654(11)
N2G N 0.33006(11) 0.29676(8) -0.20654(11)
N3A N 0.13229(12) 0.36302(11) -0.10606(13)
C1A C 0.10954(13) 0.17624(11) -0.01608(14)
H1A H 0.0837 0.1962 -0.0605
C2A C 0.22177(14) 0.15695(11) 0.05549(15)
H2A H 0.2768 0.1621 0.0622
C3A C 0.06525(13) 0.13991(11) 0.03674(14)
H3A H 0.0107 0.1343 0.0276
C4A C 0.18144(13) 0.12106(11) 0.11190(14)
H4A H 0.2085 0.1027 0.1567
C5A C 0.10114(13) 0.11166(10) 0.10321(14)
C6A C 0.05682(14) 0.07179(12) 0.16507(15)
H5A H 0.0715 0.0263 0.1580
H6A H 0.0732 0.0850 0.2203
C7A C -0.03112(14) 0.07780(11) 0.15857(14)
C8A C -0.06945(14) 0.13343(11) 0.18069(15)
C9A C -0.07852(14) 0.02966(11) 0.12867(14)
C10A C -0.14902(15) 0.14153(11) 0.17227(15)
C11A C -0.15890(14) 0.03649(10) 0.12162(14)
C12A C -0.19682(13) 0.09259(10) 0.14315(14)
C13A C -0.28268(14) 0.10069(10) 0.13511(14)
C14A C -0.31491(15) 0.15052(10) 0.09031(14)
C15A C -0.33549(14) 0.05930(10) 0.17242(14)
C16A C -0.39464(15) 0.15854(10) 0.08316(14)
C17A C -0.41506(14) 0.06668(10) 0.16270(13)
C18A C -0.44724(14) 0.11566(11) 0.11695(13)
C19A C -0.53414(14) 0.11885(12) 0.09966(14)
H7A H -0.5537 0.0750 0.0890
H8A H -0.5426 0.1444 0.0498
C20A C -0.58157(13) 0.14795(11) 0.16829(13)
C21A C -0.59218(14) 0.21345(11) 0.17339(14)
H9A H -0.5694 0.2408 0.1337
C22A C -0.61682(14) 0.11091(10) 0.22750(15)
H10A H -0.6113 0.0657 0.2262
C23A C -0.63585(14) 0.23905(10) 0.23609(14)
H11A H -0.6420 0.2842 0.2386
C24A C -0.66006(13) 0.13951(11) 0.28856(15)
H12A H -0.6837 0.1131 0.3287
O4 O 0.80610(12) 0.36077(11) 0.34699(12)
O5 O 0.88204(13) 0.37631(14) 0.45619(15)
C25 C 0.74071(16) 0.39190(16) 0.37972(16)
C26 C 0.67066(18) 0.36008(15) 0.37120(17)
H13 H 0.6697 0.3182 0.3487
C27 C 0.60176(19) 0.38891(17) 0.39529(19)
H14 H 0.5531 0.3676 0.3876
C28 C 0.60364(18) 0.44835(16) 0.4303(2)
H15 H 0.5563 0.4680 0.4478
C29 C 0.67433(19) 0.47989(15) 0.4404(2)
H16 H 0.6753 0.5209 0.4654
C30 C 0.74425(18) 0.45202(15) 0.41424(19)
H17 H 0.7929 0.4738 0.4200
C31 C 0.87338(17) 0.35474(15) 0.39002(18)
C32 C 0.93209(19) 0.31655(18) 0.3438(2)
H18 H 0.9801 0.3124 0.3761
H19 H 0.9441 0.3382 0.2925
H20 H 0.9107 0.2739 0.3325
loop_
_geom_bond_atom_site_label_1
_geom_bond_atom_site_label_2
_geom_bond_site_symmetry_1
_geom_bond_site_symmetry_2
Cd1 O2 1_555 1_555
F1 C8 1_555 1_555
F2 C9 1_555 1_555
F3 C10 1_555 1_555
F4 C11 1_555 1_555
F5 C15 1_555 1_555
F6 C14 1_555 1_555
F7 C17 1_555 1_555
F8 C16 1_555 1_555
O1 N3 1_555 1_555
O2 N3 1_555 1_555
O3 N3 1_555 1_555
O4 C25 1_555 1_555
O5 C31 1_555 1_555
N1 Cd1 1_555 1_555
N2 C23 1_555 1_555
C1 N1 1_555 1_555
H1 C1 1_555 1_555
C2 N1 1_555 1_555
H2 C2 1_555 1_555
C3 C1 1_555 1_555
H3 C3 1_555 1_555
C4 C2 1_555 1_555
H4 C4 1_555 1_555
C5 C3 1_555 1_555
C6 C5 1_555 1_555
H5 C6 1_555 1_555
H6 C6 1_555 1_555
C7 C6 1_555 1_555
C8 C7 1_555 1_555
C9 C7 1_555 1_555
C10 C8 1_555 1_555
C11 C9 1_555 1_555
C12 C10 1_555 1_555
C13 C12 1_555 1_555
C14 C13 1_555 1_555
C15 C13 1_555 1_555
C16 C14 1_555 1_555
C17 C15 1_555 1_555
C18 C16 1_555 1_555
C19 C18 1_555 1_555
H7 C19 1_555 1_555
H8 C19 1_555 1_555
C20 C19 1_555 1_555
C21 C20 1_555 1_555
H9 C21 1_555 1_555
C22 C20 1_555 1_555
H10 C22 1_555 1_555
C23 C21 1_555 1_555
H11 C23 1_555 1_555
C24 N2 1_555 1_555
H12 C24 1_555 1_555
C25 C26 1_555 1_555
C26 H13 1_555 1_555
C27 C26 1_555 1_555
H14 C27 1_555 1_555
C28 C27 1_555 1_555
H15 C28 1_555 1_555
C29 C28 1_555 1_555
H16 C29 1_555 1_555
C30 C25 1_555 1_555
H17 C30 1_555 1_555
C31 O4 1_555 1_555
C32 C31 1_555 1_555
H18 C32 1_555 1_555
H19 C32 1_555 1_555
H20 C32 1_555 1_555
Cd1F N2 1_555 1_555
Cd1F_2 N2A 1_555 1_555
F1A C8A 1_555 1_555
F2A C9A 1_555 1_555
F3A C10A 1_555 1_555
F4A C11A 1_555 1_555
F5A C15A 1_555 1_555
F6A C14A 1_555 1_555
F7A C17A 1_555 1_555
F8A C16A 1_555 1_555
O1A N3A 1_555 1_555
O2A Cd1 1_555 1_555
O3A N3A 1_555 1_555
N1A Cd1 1_555 1_555
N2A C23A 1_555 1_555
N2F Cd1 1_555 1_555
N2G Cd1 1_555 1_555
N3A O2A 1_555 1_555
C1A N1A 1_555 1_555
H1A C1A 1_555 1_555
C2A N1A 1_555 1_555
H2A C2A 1_555 1_555
C3A C1A 1_555 1_555
H3A C3A 1_555 1_555
C4A C2A 1_555 1_555
H4A C4A 1_555 1_555
C5A C3A 1_555 1_555
C6A C5A 1_555 1_555
H5A C6A 1_555 1_555
H6A C6A 1_555 1_555
C7A C6A 1_555 1_555
C8A C7A 1_555 1_555
C9A C7A 1_555 1_555
C10A C8A 1_555 1_555
C11A C9A 1_555 1_555
C12A C10A 1_555 1_555
C13A C12A 1_555 1_555
C14A C13A 1_555 1_555
C15A C13A 1_555 1_555
C16A C14A 1_555 1_555
C17A C15A 1_555 1_555
C18A C16A 1_555 1_555
C19A C18A 1_555 1_555
H7A C19A 1_555 1_555
H8A C19A 1_555 1_555
C20A C19A 1_555 1_555
C21A C20A 1_555 1_555
H9A C21A 1_555 1_555
C22A C20A 1_555 1_555
H10A C22A 1_555 1_555
C23A C21A 1_555 1_555
H11A C23A 1_555 1_555
C24A N2A 1_555 1_555
H12A C24A 1_555 1_555
C4 C5 1_555 1_555
C11 C12 1_555 1_555
C17 C18 1_555 1_555
C22 C24 1_555 1_555
C29 C30 1_555 1_555
C4A C5A 1_555 1_555
C11A C12A 1_555 1_555
C17A C18A 1_555 1_555
C22A C24A 1_555 1_555

#END
