
#######################################################################
#
#                 Cambridge Crystallographic Data Centre
#                                CCDC 
#
#######################################################################
#
# If this CIF has been generated from an entry in the Cambridge 
# Structural Database, then it will include bibliographic, chemical, 
# crystal, experimental, refinement or atomic coordinate data resulting 
# from the CCDC's data processing and validation procedures.
#
#######################################################################

data_QIDDIQ
_symmetry_cell_setting           monoclinic
_symmetry_space_group_name_H-M   'P 21/c'
_symmetry_Int_Tables_number      14
_space_group_name_Hall           '-P 2ybc'
loop_
_symmetry_equiv_pos_site_id
_symmetry_equiv_pos_as_xyz
1 x,y,z
2 -x,1/2+y,1/2-z
3 -x,-y,-z
4 x,1/2-y,1/2+z
_cell_length_a                   17.074(2)
_cell_length_b                   20.856(1)
_cell_length_c                   16.3418(7)
_cell_angle_alpha                90
_cell_angle_beta                 89.922(9)
_cell_angle_gamma                90
_cell_volume                     5819.23
loop_
_atom_site_label
_atom_site_type_symbol
_atom_site_fract_x
_atom_site_fract_y
_atom_site_fract_z
Cd1 Cd -0.24996(4) 0.24996(3) -0.60880(3)
F1 F 0.0234(3) 0.1814(2) -0.2881(3)
F2 F 0.0434(3) -0.0284(3) -0.3945(3)
F3 F 0.1782(3) 0.1976(2) -0.3073(3)
F4 F 0.1981(3) -0.0145(2) -0.4094(2)
F5 F 0.2620(3) 0.1903(2) -0.4517(3)
F6 F 0.3069(3) 0.0114(2) -0.2810(2)
F7 F 0.4167(3) 0.2089(2) -0.4642(3)
F8 F 0.4625(3) 0.0254(2) -0.3029(2)
F9 F -0.5432(3) 0.5287(2) -0.3942(3)
F10 F -0.5238(3) 0.3188(2) -0.2875(3)
F11 F -0.6983(3) 0.5142(2) -0.4101(2)
F12 F -0.6776(3) 0.3028(2) -0.3070(3)
F13 F -0.8068(3) 0.4891(2) -0.2807(2)
F14 F -0.7618(3) 0.3097(2) -0.4513(3)
F15 F -0.9624(3) 0.4749(2) -0.3029(2)
F16 F -0.9163(3) 0.2909(2) -0.4646(3)
O1 O -0.3692(4) 0.1870(3) -0.5628(3)
O2 O -0.3190(4) 0.1385(3) -0.6660(4)
O3 O -0.4074(4) 0.0910(3) -0.5930(4)
O4 O -0.1295(4) 0.3120(3) -0.5622(3)
O5 O -0.1805(4) 0.3613(3) -0.6650(4)
O6 O -0.0907(4) 0.4090(3) -0.5930(4)
N1 N -0.1885(4) 0.1829(3) -0.5112(3)
N2 N -0.3106(4) 0.3166(3) -0.5102(3)
N3 N -1.1693(4) 0.2965(3) -0.2100(3)
N4 N -0.3663(4) 0.1385(3) -0.6067(4)
N5 N -0.1325(4) 0.3611(4) -0.6059(4)
N6 N 0.6686(4) 0.2036(3) -0.2106(4)
C1 C -0.1107(5) 0.1743(4) -0.5199(5)
C2 C -0.2264(5) 0.1556(3) -0.4461(4)
C3 C -0.0658(5) 0.1376(4) -0.4643(4)
C4 C -0.1845(5) 0.1194(4) -0.3875(5)
C5 C -0.1041(5) 0.1101(4) -0.3971(4)
C6 C -0.0602(5) 0.0696(4) -0.3335(5)
C7 C 0.0265(5) 0.0757(4) -0.3410(4)
C8 C 0.0665(5) 0.1315(4) -0.3197(5)
C9 C 0.0761(5) 0.0274(4) -0.3706(4)
C10 C 0.1462(5) 0.1404(4) -0.3281(5)
C11 C 0.1549(5) 0.0350(4) -0.3790(4)
C12 C 0.1934(5) 0.0912(4) -0.3573(4)
C13 C 0.2801(5) 0.0998(4) -0.3653(4)
C14 C 0.3114(5) 0.1500(4) -0.4111(5)
C15 C 0.3336(5) 0.0594(4) -0.3291(4)
C16 C 0.3913(5) 0.1587(4) -0.4187(4)
C17 C 0.4119(5) 0.0676(3) -0.3397(4)
C18 C 0.4446(5) 0.1163(4) -0.3862(4)
C19 C 0.5310(5) 0.1194(4) -0.4062(4)
C20 C 0.5791(5) 0.1487(4) -0.3356(4)
C21 C 0.5904(5) 0.2157(4) -0.3322(4)
C22 C 0.6147(5) 0.1105(4) -0.2757(4)
C23 C 0.6357(5) 0.2415(4) -0.2677(4)
C24 C 0.6576(5) 0.1396(3) -0.2144(4)
C25 C -0.2739(5) 0.3441(4) -0.4453(4)
C26 C -0.3884(5) 0.3255(4) -0.5196(5)
C27 C -0.3144(5) 0.3811(4) -0.3874(4)
C28 C -0.4335(5) 0.3626(4) -0.4644(4)
C29 C -0.3944(5) 0.3902(4) -0.3962(4)
C30 C -0.4389(5) 0.4311(4) -0.3324(5)
C31 C -0.5269(5) 0.4248(4) -0.3401(4)
C32 C -0.5756(5) 0.4722(4) -0.3698(4)
C33 C -0.5661(5) 0.3683(4) -0.3186(5)
C34 C -0.6555(5) 0.4650(4) -0.3788(4)
C35 C -0.6453(5) 0.3597(4) -0.3282(5)
C36 C -0.6938(5) 0.4087(4) -0.3574(4)
C37 C -0.7794(5) 0.3996(3) -0.3667(4)
C38 C -0.8340(5) 0.4411(4) -0.3299(4)
C39 C -0.8118(5) 0.3500(4) -0.4123(4)
C40 C -0.9130(5) 0.4329(4) -0.3402(4)
C41 C -0.8898(5) 0.3415(4) -0.4198(4)
C42 C -0.9445(5) 0.3842(4) -0.3864(4)
C43 C -1.0316(5) 0.3812(4) -0.4055(4)
C44 C -1.1581(5) 0.3610(3) -0.2123(5)
C45 C -1.1365(5) 0.2586(4) -0.2685(4)
C46 C -1.1128(5) 0.3896(4) -0.2756(4)
C47 C -1.0902(5) 0.2847(4) -0.3322(5)
C48 C -1.0781(5) 0.3512(4) -0.3352(4)
N6C N -0.3314(4) 0.2964(3) -0.7106(4)
Cd1C Cd 0.75004(4) 0.25004(3) -0.10880(3)
N3C N -0.1693(4) 0.2035(3) -0.7100(3)
Cd1C_2 Cd -1.24996(4) 0.25004(3) -0.10880(3)
O7 O -0.3058(4) 0.6400(3) -0.3466(3)
O8 O -0.3830(4) 0.6205(3) -0.4552(4)
C49 C -0.2398(6) 0.6088(4) -0.3793(5)
C50 C -0.1703(6) 0.6417(4) -0.3689(5)
C51 C -0.2458(6) 0.5470(4) -0.4140(5)
C52 C -0.0988(6) 0.6120(5) -0.3920(5)
C53 C -0.1724(6) 0.5177(4) -0.4405(5)
C54 C -0.1003(6) 0.5500(4) -0.4289(5)
C55 C -0.3747(6) 0.6450(5) -0.3891(5)
C56 C -0.4340(6) 0.6845(5) -0.3438(5)
O9 O -0.1946(4) 0.8601(3) -0.3465(3)
O10 O -0.1164(4) 0.8792(3) -0.4553(4)
C57 C -0.2600(6) 0.8914(4) -0.3789(5)
C58 C -0.2549(6) 0.9530(4) -0.4131(5)
C59 C -0.3304(5) 0.8582(4) -0.3699(5)
C60 C -0.3264(6) 0.9822(4) -0.4395(5)
C61 C -0.3994(6) 0.8880(5) -0.3918(5)
C62 C -0.3982(6) 0.9496(4) -0.4281(5)
C63 C -0.1265(6) 0.8550(4) -0.3904(5)
C64 C -0.0651(6) 0.8157(5) -0.3429(5)
loop_
_geom_bond_atom_site_label_1
_geom_bond_atom_site_label_2
_geom_bond_site_symmetry_1
_geom_bond_site_symmetry_2
Cd1 O1 1_555 1_555
F1 C8 1_555 1_555
F2 C9 1_555 1_555
F3 C10 1_555 1_555
F4 C11 1_555 1_555
F5 C14 1_555 1_555
F6 C15 1_555 1_555
F7 C16 1_555 1_555
F8 C17 1_555 1_555
F9 C32 1_555 1_555
F10 C33 1_555 1_555
F11 C34 1_555 1_555
F12 C35 1_555 1_555
F13 C38 1_555 1_555
F14 C39 1_555 1_555
F15 C40 1_555 1_555
F16 C41 1_555 1_555
O1 N4 1_555 1_555
O2 Cd1 1_555 1_555
O3 N4 1_555 1_555
O4 Cd1 1_555 1_555
O5 Cd1 1_555 1_555
O6 N5 1_555 1_555
O7 C49 1_555 1_555
O8 C55 1_555 1_555
O9 C57 1_555 1_555
O10 C63 1_555 1_555
N1 Cd1 1_555 1_555
N2 Cd1 1_555 1_555
N3 C44 1_555 1_555
N4 O2 1_555 1_555
N5 O4 1_555 1_555
N6 C23 1_555 1_555
C1 N1 1_555 1_555
C2 N1 1_555 1_555
C3 C1 1_555 1_555
C4 C2 1_555 1_555
C5 C3 1_555 1_555
C6 C5 1_555 1_555
C7 C6 1_555 1_555
C8 C7 1_555 1_555
C9 C7 1_555 1_555
C10 C8 1_555 1_555
C11 C9 1_555 1_555
C12 C10 1_555 1_555
C13 C12 1_555 1_555
C14 C13 1_555 1_555
C15 C13 1_555 1_555
C16 C14 1_555 1_555
C17 C15 1_555 1_555
C18 C16 1_555 1_555
C19 C18 1_555 1_555
C20 C19 1_555 1_555
C21 C20 1_555 1_555
C22 C20 1_555 1_555
C23 C21 1_555 1_555
C24 N6 1_555 1_555
C25 N2 1_555 1_555
C26 N2 1_555 1_555
C27 C25 1_555 1_555
C28 C26 1_555 1_555
C29 C27 1_555 1_555
C30 C29 1_555 1_555
C31 C30 1_555 1_555
C32 C31 1_555 1_555
C33 C31 1_555 1_555
C34 C32 1_555 1_555
C35 C33 1_555 1_555
C36 C34 1_555 1_555
C37 C36 1_555 1_555
C38 C37 1_555 1_555
C39 C37 1_555 1_555
C40 C38 1_555 1_555
C41 C39 1_555 1_555
C42 C40 1_555 1_555
C43 C42 1_555 1_555
C44 C46 1_555 1_555
C45 N3 1_555 1_555
C46 C48 1_555 1_555
C47 C45 1_555 1_555
C48 C43 1_555 1_555
C49 C50 1_555 1_555
C50 C52 1_555 1_555
C51 C49 1_555 1_555
C52 C54 1_555 1_555
C53 C51 1_555 1_555
C54 C53 1_555 1_555
C55 O7 1_555 1_555
C56 C55 1_555 1_555
C57 C58 1_555 1_555
C58 C60 1_555 1_555
C59 C57 1_555 1_555
C60 C62 1_555 1_555
C61 C59 1_555 1_555
C62 C61 1_555 1_555
C63 O9 1_555 1_555
C64 C63 1_555 1_555
N6C Cd1 1_555 1_555
Cd1C N6 1_555 1_555
N3C Cd1 1_555 1_555
Cd1C_2 N3 1_555 1_555
O5 N5 1_555 1_555
C4 C5 1_555 1_555
C11 C12 1_555 1_555
C17 C18 1_555 1_555
C22 C24 1_555 1_555
C28 C29 1_555 1_555
C35 C36 1_555 1_555
C41 C42 1_555 1_555
C47 C48 1_555 1_555

#END
