
#######################################################################
#
#                 Cambridge Crystallographic Data Centre
#                                CCDC 
#
#######################################################################
#
# If this CIF has been generated from an entry in the Cambridge 
# Structural Database, then it will include bibliographic, chemical, 
# crystal, experimental, refinement or atomic coordinate data resulting 
# from the CCDC's data processing and validation procedures.
#
#######################################################################

data_QIDDAI01
_symmetry_cell_setting           monoclinic
_symmetry_space_group_name_H-M   'C 2/c'
_symmetry_Int_Tables_number      15
_space_group_name_Hall           '-C 2yn'
loop_
_symmetry_equiv_pos_site_id
_symmetry_equiv_pos_as_xyz
1 x,y,z
2 -x,y,1/2-z
3 1/2+x,1/2+y,z
4 1/2-x,1/2+y,1/2-z
5 -x,-y,-z
6 x,-y,1/2+z
7 1/2-x,1/2-y,-z
8 1/2+x,1/2-y,1/2+z
_cell_length_a                   17.8430
_cell_length_b                   19.0360
_cell_length_c                   16.6850
_cell_angle_alpha                90.0
_cell_angle_beta                 119.17
_cell_angle_gamma                90.0
_cell_volume                     4948.49
loop_
_atom_site_label
_atom_site_type_symbol
_atom_site_fract_x
_atom_site_fract_y
_atom_site_fract_z
Cd1 Cd 0.00000 0.12249 0.25000
F1 F -0.11985 0.41510 0.50640
F2 F -0.16315 0.54630 0.44010
F3 F -0.34505 -0.15910 -0.13845
F4 F -0.42345 -0.25680 -0.08990
O1 O 0.13015 0.10190 0.23200
O2 O 0.17800 0.17760 0.34325
O3 O 0.24960 0.15875 0.27165
N1 N 0.01710 0.20850 0.36050
N2 N -0.06000 0.03175 0.13700
N3 N 0.18815 0.14655 0.28335
C1 C -0.04500 0.25905 0.33650
C2 C 0.08550 0.20340 0.44600
C3 C -0.03450 0.30830 0.40800
C4 C 0.09800 0.25210 0.51700
C5 C 0.03450 0.30535 0.49600
C6 C 0.04800 0.35550 0.57300
C7 C 0.02300 0.43015 0.53500
C8 C -0.05820 0.45645 0.50400
C9 C -0.08150 0.52440 0.46850
C10 C -0.14300 0.01470 0.09900
C11 C -0.00550 -0.00525 0.11750
C12 C -0.17950 -0.04265 0.03750
C13 C -0.03900 -0.06415 0.05400
C14 C -0.12400 -0.08295 0.01500
C15 C -0.16050 -0.14345 -0.05600
C16 C -0.20650 -0.19700 -0.02600
C17 C -0.29650 -0.20295 -0.06800
C18 C -0.33600 -0.25320 -0.04400
C9D C 0.08150 0.47560 0.53150
F2D F 0.16315 0.45370 0.55990
C8D C 0.05820 0.54355 0.49600
F1D F 0.11985 0.58490 0.49360
C7D C -0.02300 0.56985 0.46500
C6D C -0.04800 0.64450 0.42700
C5D C -0.03450 0.69465 0.50400
C3D C 0.03450 0.69170 0.59200
C1D C 0.04500 0.74095 0.66350
N1D N -0.01710 0.79150 0.63950
C2D C -0.08550 0.79660 0.55400
C4D C -0.09800 0.74790 0.48300
C18F C -0.16400 -0.24680 0.04400
F4F F -0.07655 -0.24320 0.08990
C17F C -0.20350 -0.29705 0.06800
F3F F -0.15495 -0.34090 0.13845
C16F C -0.29350 -0.30300 0.02600
C15F C -0.33950 -0.35655 0.05600
C14F C -0.37600 -0.41705 -0.01500
C12F C -0.32050 -0.45735 -0.03750
C10F C -0.35700 -0.51470 -0.09900
N2F N -0.44000 -0.53175 -0.13700
C11F C -0.49450 -0.49475 -0.11750
C13F C -0.46100 -0.43585 -0.05400
O1A O -0.13015 0.10190 0.26800
O2A O -0.17800 0.17760 0.15675
O3A O -0.24960 0.15875 0.22835
N3A N -0.18815 0.14655 0.21665
N1A N -0.01710 0.20850 0.13950
N2A N 0.06000 0.03175 0.36300
Cd1D Cd 0.00000 0.87751 0.75000
Cd1F Cd -0.50000 -0.62249 -0.25000
O4 O -0.32020 0.37770 0.17875
O5 O -0.39600 0.31650 0.23850
C19 C -0.24650 0.40925 0.18200
C20 C -0.22550 0.47780 0.21500
C21 C -0.20100 0.36850 0.14750
C22 C -0.15300 0.50750 0.21350
C23 C -0.12950 0.40150 0.14650
C24 C -0.10700 0.47200 0.17750
C25 C -0.30355 0.34715 0.26420
C26 C -0.24185 0.34125 0.32455
loop_
_geom_bond_atom_site_label_1
_geom_bond_atom_site_label_2
_geom_bond_site_symmetry_1
_geom_bond_site_symmetry_2
Cd1 O1 1_555 1_555
F1 C8 1_555 1_555
F2 C9 1_555 1_555
F3 C17 1_555 1_555
F4 C18 1_555 1_555
O1 N3 1_555 1_555
O2 N3 1_555 1_555
O3 N3 1_555 1_555
O4 C19 1_555 1_555
O5 C25 1_555 1_555
N1 Cd1 1_555 1_555
N2 Cd1 1_555 1_555
C1 N1 1_555 1_555
C2 N1 1_555 1_555
C3 C1 1_555 1_555
C4 C2 1_555 1_555
C5 C3 1_555 1_555
C6 C5 1_555 1_555
C7 C6 1_555 1_555
C8 C7 1_555 1_555
C9 C8 1_555 1_555
C10 N2 1_555 1_555
C11 N2 1_555 1_555
C12 C10 1_555 1_555
C13 C11 1_555 1_555
C14 C12 1_555 1_555
C15 C14 1_555 1_555
C16 C15 1_555 1_555
C17 C16 1_555 1_555
C18 C17 1_555 1_555
C19 C20 1_555 1_555
C20 C22 1_555 1_555
C21 C19 1_555 1_555
C22 C24 1_555 1_555
C23 C21 1_555 1_555
C24 C23 1_555 1_555
C25 O4 1_555 1_555
C26 C25 1_555 1_555
C9D C7 1_555 1_555
F2D C9D 1_555 1_555
C8D C9D 1_555 1_555
F1D C8D 1_555 1_555
C7D C9 1_555 1_555
C6D C7D 1_555 1_555
C5D C6D 1_555 1_555
C3D C5D 1_555 1_555
C1D C3D 1_555 1_555
N1D C1D 1_555 1_555
C2D N1D 1_555 1_555
C4D C5D 1_555 1_555
C18F C16 1_555 1_555
F4F C18F 1_555 1_555
C17F C18F 1_555 1_555
F3F C17F 1_555 1_555
C16F C18 1_555 1_555
C15F C16F 1_555 1_555
C14F C15F 1_555 1_555
C12F C14F 1_555 1_555
C10F C12F 1_555 1_555
N2F C10F 1_555 1_555
C11F N2F 1_555 1_555
C13F C14F 1_555 1_555
O1A Cd1 1_555 1_555
O2A N3A 1_555 1_555
O3A N3A 1_555 1_555
N3A O1A 1_555 1_555
N1A Cd1 1_555 1_555
N2A Cd1 1_555 1_555
Cd1D N1D 1_555 1_555
Cd1F N2F 1_555 1_555
C4 C5 1_555 1_555
C13 C14 1_555 1_555
C8D C7D 1_555 1_555
C2D C4D 1_555 1_555
C17F C16F 1_555 1_555
C11F C13F 1_555 1_555

#END
