
#######################################################################
#
#                 Cambridge Crystallographic Data Centre
#                                CCDC 
#
#######################################################################
#
# If this CIF has been generated from an entry in the Cambridge 
# Structural Database, then it will include bibliographic, chemical, 
# crystal, experimental, refinement or atomic coordinate data resulting 
# from the CCDC's data processing and validation procedures.
#
#######################################################################

data_QIDDAI
_symmetry_cell_setting           monoclinic
_symmetry_space_group_name_H-M   'C c'
_symmetry_Int_Tables_number      9
_space_group_name_Hall           'C -2yc'
loop_
_symmetry_equiv_pos_site_id
_symmetry_equiv_pos_as_xyz
1 x,y,z
2 x,-y,1/2+z
3 1/2+x,1/2+y,z
4 1/2+x,1/2-y,1/2+z
_cell_length_a                   17.843(4)
_cell_length_b                   19.036(2)
_cell_length_c                   16.685(2)
_cell_angle_alpha                90
_cell_angle_beta                 119.171(8)
_cell_angle_gamma                90
_cell_volume                     4948.44
loop_
_atom_site_label
_atom_site_type_symbol
_atom_site_fract_x
_atom_site_fract_y
_atom_site_fract_z
Cd1 Cd 0.2745(2) 0.12249(2) -0.0598(2)
F1 F 0.1547(8) 0.4153(5) 0.1928(9)
F2 F 0.4372(8) 0.4521(6) 0.2463(9)
F3 F 0.1109(7) 0.5447(5) 0.1265(7)
F4 F 0.3944(7) 0.5851(6) 0.1800(9)
F5 F -0.0752(7) -0.1606(5) -0.4531(8)
F6 F 0.1985(7) -0.2428(6) -0.2195(8)
F7 F -0.1484(8) -0.2564(5) -0.3993(8)
F8 F 0.1149(8) -0.3424(6) -0.1762(9)
O1 O 0.408(1) 0.1006(7) -0.074(1)
O2 O 0.462(1) 0.1790(7) 0.0385(10)
O3 O 0.5246(9) 0.1604(8) -0.038(1)
O4 O 0.1477(8) 0.1032(7) -0.038(1)
O5 O 0.106(1) 0.1762(7) -0.148(1)
O6 O 0.0254(8) 0.1571(5) -0.0813(10)
N1 N 0.2851(10) 0.2098(8) 0.049(1)
N2 N 0.217(1) 0.0334(8) -0.174(1)
N3 N 0.459(1) 0.1420(7) -0.0303(10)
N4 N 0.0827(9) 0.1511(7) -0.097(1)
N5 N 0.2509(10) 0.7928(6) 0.328(1)
N6 N -0.163(1) -0.5301(8) -0.448(1)
C1 C 0.226(1) 0.2596(8) 0.019(1)
C2 C 0.367(1) 0.2005(10) 0.143(1)
C3 C 0.2370(9) 0.3079(9) 0.092(1)
C4 C 0.373(1) 0.2532(9) 0.206(1)
C5 C 0.306(1) 0.3041(9) 0.186(1)
C6 C 0.332(1) 0.3573(8) 0.268(1)
C7 C 0.292(1) 0.4308(9) 0.215(1)
C8 C 0.2096(9) 0.4572(8) 0.192(1)
C9 C 0.355(1) 0.4763(10) 0.218(1)
C10 C 0.192(1) 0.5251(10) 0.155(2)
C11 C 0.326(1) 0.5443(8) 0.184(1)
C12 C 0.246(1) 0.5705(10) 0.145(1)
C13 C 0.236(1) 0.6463(8) 0.122(1)
C14 C 0.237(1) 0.6934(8) 0.194(1)
C15 C 0.177(1) 0.749(1) 0.172(1)
C16 C 0.306(1) 0.6913(8) 0.276(1)
C17 C 0.196(1) 0.7937(9) 0.251(1)
C18 C 0.3160(8) 0.7415(8) 0.3460(9)
C19 C 0.136(1) 0.0105(9) -0.208(1)
C20 C 0.273(1) 0.000(1) -0.194(2)
C21 C 0.101(1) -0.043(1) -0.263(2)
C22 C 0.238(1) -0.0594(10) -0.258(1)
C23 C 0.155(1) -0.0810(7) -0.292(1)
C24 C 0.124(1) -0.1477(7) -0.3580(10)
C25 C 0.070(1) -0.1987(9) -0.331(1)
C26 C -0.017(1) -0.2035(8) -0.375(1)
C27 C 0.111(1) -0.248(1) -0.263(1)
C28 C -0.061(1) -0.2544(9) -0.351(1)
C29 C 0.076(1) -0.2976(9) -0.239(1)
C30 C -0.017(1) -0.3047(7) -0.279(1)
C31 C -0.055(1) -0.3608(8) -0.246(1)
C32 C -0.097(1) -0.4151(8) -0.322(1)
C33 C -0.184(1) -0.4311(9) -0.366(1)
C34 C -0.040(2) -0.4577(10) -0.338(2)
C35 C -0.216(1) -0.4895(9) -0.429(1)
C36 C -0.078(1) -0.5189(9) -0.406(1)
Cd1A Cd 0.2745(2) 0.87751(2) 0.4402(2)
Cd1C Cd -0.2255(2) -0.62249(2) -0.5598(2)
N5A N 0.2509(10) 0.2072(6) -0.172(1)
N6C N 0.337(1) 0.0301(8) 0.052(1)
O7 O 0.0954(9) -0.1237(6) 0.0185(9)
O8 O 0.0147(9) -0.1545(8) -0.1421(9)
C37 C 0.019(1) -0.0881(9) 0.005(1)
C38 C -0.001(1) -0.0245(8) -0.023(1)
C39 C -0.015(1) -0.1373(10) 0.052(1)
C40 C -0.066(1) 0.0080(9) -0.019(1)
C41 C -0.092(2) -0.109(1) 0.047(2)
C42 C -0.115(1) -0.037(1) 0.015(1)
C43 C 0.0911(10) -0.1547(9) -0.0624(9)
C44 C 0.171(1) -0.182(1) -0.050(1)
O9? O -0.045(1) 0.3791(7) -0.124(1)
O10? O -0.121(1) 0.315(1) -0.073(2)
C45? C 0.026(1) 0.4066(8) -0.131(1)
C46? C 0.048(1) 0.4801(8) -0.093(1)
C47? C 0.083(2) 0.3743(8) -0.153(1)
C48? C 0.128(2) 0.507(1) -0.092(2)
C49? C 0.149(1) 0.412(1) -0.160(1)
C50? C 0.171(2) 0.481(1) -0.130(2)
C51? C -0.016(2) 0.3490(10) -0.034(2)
C52? C 0.031(1) 0.337(1) 0.007(2)
loop_
_geom_bond_atom_site_label_1
_geom_bond_atom_site_label_2
_geom_bond_site_symmetry_1
_geom_bond_site_symmetry_2
Cd1 O1 1_555 1_555
F1 C8 1_555 1_555
F2 C9 1_555 1_555
F3 C10 1_555 1_555
F4 C11 1_555 1_555
F5 C26 1_555 1_555
F6 C27 1_555 1_555
F7 C28 1_555 1_555
F8 C29 1_555 1_555
O1 N3 1_555 1_555
O2 N3 1_555 1_555
O3 N3 1_555 1_555
O4 Cd1 1_555 1_555
O5 N4 1_555 1_555
O6 N4 1_555 1_555
N1 Cd1 1_555 1_555
N2 Cd1 1_555 1_555
N4 O4 1_555 1_555
N5 C17 1_555 1_555
N6 C35 1_555 1_555
C1 N1 1_555 1_555
C2 N1 1_555 1_555
C3 C1 1_555 1_555
C4 C2 1_555 1_555
C5 C3 1_555 1_555
C6 C5 1_555 1_555
C7 C6 1_555 1_555
C8 C7 1_555 1_555
C9 C7 1_555 1_555
C10 C8 1_555 1_555
C11 C9 1_555 1_555
C12 C10 1_555 1_555
C13 C12 1_555 1_555
C14 C13 1_555 1_555
C15 C14 1_555 1_555
C16 C14 1_555 1_555
C17 C15 1_555 1_555
C18 N5 1_555 1_555
C19 N2 1_555 1_555
C20 N2 1_555 1_555
C21 C19 1_555 1_555
C22 C20 1_555 1_555
C23 C21 1_555 1_555
C24 C23 1_555 1_555
C25 C24 1_555 1_555
C26 C25 1_555 1_555
C27 C25 1_555 1_555
C28 C26 1_555 1_555
C29 C27 1_555 1_555
C30 C28 1_555 1_555
C31 C30 1_555 1_555
C32 C31 1_555 1_555
C33 C32 1_555 1_555
C34 C32 1_555 1_555
C35 C33 1_555 1_555
C36 N6 1_555 1_555
O7 C37 1_555 1_555
O8 C43 1_555 1_555
C37 C38 1_555 1_555
C38 C40 1_555 1_555
C39 C37 1_555 1_555
C40 C42 1_555 1_555
C41 C39 1_555 1_555
C42 C41 1_555 1_555
C43 O7 1_555 1_555
C44 C43 1_555 1_555
Cd1A N5 1_555 1_555
Cd1C N6 1_555 1_555
N5A Cd1 1_555 1_555
N6C Cd1 1_555 1_555
C4 C5 1_555 1_555
C11 C12 1_555 1_555
C16 C18 1_555 1_555
C22 C23 1_555 1_555
C29 C30 1_555 1_555
C34 C36 1_555 1_555

#END
