
#######################################################################
#
#                 Cambridge Crystallographic Data Centre
#                                CCDC 
#
#######################################################################
#
# If this CIF has been generated from an entry in the Cambridge 
# Structural Database, then it will include bibliographic, chemical, 
# crystal, experimental, refinement or atomic coordinate data resulting 
# from the CCDC's data processing and validation procedures.
#
#######################################################################

data_QIFDOY
_symmetry_cell_setting           monoclinic
_symmetry_space_group_name_H-M   'C 2/c'
_symmetry_Int_Tables_number      15
_space_group_name_Hall           '-C 2yn'
loop_
_symmetry_equiv_pos_site_id
_symmetry_equiv_pos_as_xyz
1 x,y,z
2 1/2+x,1/2+y,z
3 x,-y,1/2+z
4 1/2+x,1/2-y,1/2+z
5 -x,-y,-z
6 1/2-x,1/2-y,-z
7 -x,y,1/2-z
8 1/2-x,1/2+y,1/2-z
_cell_length_a                   6.9500(10)
_cell_length_b                   31.585(6)
_cell_length_c                   6.2260(10)
_cell_angle_alpha                90
_cell_angle_beta                 95.84(3)
_cell_angle_gamma                90
_cell_volume                     1359.61
loop_
_atom_site_label
_atom_site_type_symbol
_atom_site_fract_x
_atom_site_fract_y
_atom_site_fract_z
Co1 Co 0.5000 0.5000 0.0000
O1 O 0.4864(4) 0.43845(7) 0.0708(4)
O2 O 0.6007(5) 0.08300(8) 0.1229(5)
O3 O 0.2919(4) 0.51234(7) 0.2234(4)
H1 H 0.1898 0.4957 0.2015
H2 H 0.2330 0.5363 0.1889
C1 C 0.5000 0.42041(15) 0.2500
C2 C 0.5000 0.37282(15) 0.2500
C3 C 0.4530(6) 0.35106(11) 0.0597(7)
H4 H 0.4053 0.3671 -0.0619
C4 C 0.4509(6) 0.30714(11) 0.0613(7)
H5 H 0.4173 0.2912 -0.0757
C5 C 0.5000 0.28471(15) 0.2500
C6 C 0.5000 0.23754(15) 0.2500
C7 C 0.5583(6) 0.21476(12) 0.0777(7)
H6 H 0.5987 0.2288 -0.0498
C8 C 0.5617(6) 0.17117(11) 0.0791(7)
H7 H 0.6054 0.1568 -0.0334
C9 C 0.5000 0.14896(15) 0.2500
C10 C 0.5000 0.10143(16) 0.2500
O1D O 0.5136(4) 0.56155(7) -0.0708(4)
O3B O 0.2919(4) 0.48766(7) -0.2766(4)
O3D O 0.7081(4) 0.48766(7) -0.2234(4)
O3F O 0.7081(4) 0.51234(7) 0.2766(4)
Co1B Co 0.5000 0.5000 0.5000
O1F O 0.5136(4) 0.43845(7) 0.4292(4)
C3F C 0.5470(6) 0.35106(11) 0.4403(7)
C4F C 0.5491(6) 0.30714(11) 0.4387(7)
C7F C 0.4417(6) 0.21476(12) 0.4223(7)
C8F C 0.4383(6) 0.17117(11) 0.4209(7)
O2F O 0.3993(5) 0.08300(8) 0.3771(5)
Co1B_2 Co 0.5000 0.5000 -0.5000
H1D H 0.8102 0.5043 -0.2015
H2D H 0.7670 0.4637 -0.1889
H1B H 0.1898 0.5043 -0.2985
H2B H 0.2330 0.4637 -0.3111
H4F H 0.5947 0.3671 0.5619
H5F H 0.5827 0.2912 0.5757
H6F H 0.4013 0.2288 0.5498
H7F H 0.3946 0.1568 0.5334
H1F H 0.8102 0.4957 0.2985
H2F H 0.7670 0.5363 0.3111
O4 O 0.0000 0.45706(12) 0.2500
H3 H -0.0417 0.4413 0.1437
H3F H 0.0417 0.4413 0.3563
loop_
_geom_bond_atom_site_label_1
_geom_bond_atom_site_label_2
_geom_bond_site_symmetry_1
_geom_bond_site_symmetry_2
Co1 O1 1_555 1_555
O1 C1 1_555 1_555
O2 C10 1_555 1_555
O3 Co1 1_555 1_555
H1 O3 1_555 1_555
H2 O3 1_555 1_555
O4 H3 1_555 1_555
C1 C2 1_555 1_555
C2 C3 1_555 1_555
C3 H4 1_555 1_555
C4 C3 1_555 1_555
H5 C4 1_555 1_555
C5 C4 1_555 1_555
C6 C5 1_555 1_555
C7 C6 1_555 1_555
H6 C7 1_555 1_555
C8 C7 1_555 1_555
H7 C8 1_555 1_555
C9 C8 1_555 1_555
C10 C9 1_555 1_555
O1D Co1 1_555 1_555
O3B Co1 1_555 1_555
O3D Co1 1_555 1_555
O3F Co1 1_555 1_555
Co1B O3 1_555 1_555
H3F O4 1_555 1_555
O1F C1 1_555 1_555
C3F C2 1_555 1_555
C4F C5 1_555 1_555
C7F C6 1_555 1_555
C8F C9 1_555 1_555
O2F C10 1_555 1_555
Co1B_2 O3B 1_555 1_555
H1D O3D 1_555 1_555
H2D O3D 1_555 1_555
H1B O3B 1_555 1_555
H2B O3B 1_555 1_555
H4F C3F 1_555 1_555
H5F C4F 1_555 1_555
H6F C7F 1_555 1_555
H7F C8F 1_555 1_555
H1F O3F 1_555 1_555
H2F O3F 1_555 1_555
O3D Co1B_2 1_555 1_555
O3F Co1B 1_555 1_555
Co1B O1F 1_555 1_555
C3F C4F 1_555 1_555
C7F C8F 1_555 1_555

#END
