
#######################################################################
#
#                 Cambridge Crystallographic Data Centre
#                                CCDC 
#
#######################################################################
#
# If this CIF has been generated from an entry in the Cambridge 
# Structural Database, then it will include bibliographic, chemical, 
# crystal, experimental, refinement or atomic coordinate data resulting 
# from the CCDC's data processing and validation procedures.
#
#######################################################################

data_QIFFEQ
_symmetry_cell_setting           orthorhombic
_symmetry_space_group_name_H-M   'P b c n'
_symmetry_Int_Tables_number      60
_space_group_name_Hall           '-P 2n 2ab'
loop_
_symmetry_equiv_pos_site_id
_symmetry_equiv_pos_as_xyz
1 x,y,z
2 1/2+x,1/2+y,1/2-z
3 x,-y,1/2+z
4 1/2-x,1/2+y,z
5 -x,-y,-z
6 1/2-x,1/2-y,1/2+z
7 -x,y,1/2-z
8 1/2+x,1/2-y,-z
_cell_length_a                   13.468(3)
_cell_length_b                   16.652(3)
_cell_length_c                   14.977(3)
_cell_angle_alpha                90
_cell_angle_beta                 90
_cell_angle_gamma                90
_cell_volume                     3358.88
loop_
_atom_site_label
_atom_site_type_symbol
_atom_site_fract_x
_atom_site_fract_y
_atom_site_fract_z
Co1 Co 0.0000 0.0000 0.0000
O1 O -0.13659(17) 0.02659(14) -0.05339(17)
O2 O -0.23870(19) -0.02341(18) 0.04977(17)
O3 O -0.06283(17) -0.00811(16) 0.12825(15)
H1 H -0.1271 -0.0076 0.1149
H2 H -0.0434 -0.0433 0.1655
N1 N 0.0251(2) 0.12696(18) 0.0268(2)
C1 C -0.2204(2) 0.0033(2) -0.0260(2)
C2 C -0.3041(2) 0.0077(2) -0.0925(2)
C3 C -0.3967(3) -0.0217(2) -0.0712(2)
H4 H -0.4061 -0.0475 -0.0187
C4 C -0.4738(2) -0.0187(2) -0.1324(2)
H5 H -0.5409 -0.0377 -0.1205
C5 C -0.4591(2) 0.0134(2) -0.2167(2)
C6 C -0.3658(2) 0.0432(2) -0.2380(3)
H6 H -0.3698 0.0692 -0.2985
C7 C -0.2895(3) 0.0414(2) -0.1763(3)
H7 H -0.2217 0.0597 -0.1858
C8 C -0.0046(4) 0.1831(2) -0.0293(3)
H8 H -0.0322 0.1672 -0.0825
C9 C 0.0109(5) 0.2639(2) -0.0144(4)
H9 H -0.0028 0.2994 -0.0538
C10 C 0.0563(4) 0.2874(3) 0.0615(5)
H10 H 0.0680 0.3433 0.0730
C11 C 0.0856(4) 0.2307(3) 0.1203(5)
H11 H 0.1181 0.2464 0.1747
C12 C 0.0689(4) 0.1509(3) 0.1012(4)
H12 H 0.0894 0.1076 0.1365
O1D O 0.13659(17) -0.02659(14) 0.05339(17)
O3D O 0.06283(17) 0.00811(16) -0.12825(15)
N1D N -0.0251(2) -0.12696(18) -0.0268(2)
C5F C -0.5409(2) 0.0134(2) -0.2833(2)
H1D H 0.1271 0.0076 -0.1149
H2D H 0.0434 0.0433 -0.1655
C8D C 0.0046(4) -0.1831(2) 0.0293(3)
C12D C -0.0689(4) -0.1509(3) -0.1012(4)
H8D H 0.0322 -0.1672 0.0825
C9D C -0.0109(5) -0.2639(2) 0.0144(4)
C11D C -0.0856(4) -0.2307(3) -0.1203(5)
H12D H -0.0894 -0.1076 -0.1365
H9D H 0.0028 -0.2994 0.0538
C10D C -0.0563(4) -0.2874(3) -0.0615(5)
H11D H -0.1181 -0.2464 -0.1747
H10D H -0.0680 -0.3433 -0.0730
C4F C -0.5262(2) -0.0187(2) -0.3676(2)
C6F C -0.6342(2) 0.0432(2) -0.2620(3)
H6F H -0.6302 0.0692 -0.2015
C7F C -0.7105(3) 0.0414(2) -0.3237(3)
C3F C -0.6033(3) -0.0217(2) -0.4288(2)
H5F H -0.4591 -0.0377 -0.3795
C2F C -0.6959(2) 0.0077(2) -0.4075(2)
H7F H -0.7783 0.0597 -0.3142
H4F H -0.5939 -0.0475 -0.4813
C1F C -0.7796(2) 0.0033(2) -0.4740(2)
O1F O -0.86341(17) 0.02659(14) -0.44661(17)
O2F O -0.76130(19) -0.02341(18) -0.54977(17)
Co1B Co -1.0000 0.0000 -0.5000
O4 O 0.0000 -0.1234(2) 0.2500
H3 H -0.0631 -0.1525 0.2531
H3F H 0.0631 -0.1525 0.2469
N2 N -0.1607(3) -0.2272(3) 0.2222(3)
C13 C -0.1733(5) -0.3055(5) 0.2412(5)
H13 H -0.1349 -0.3306 0.2875
C14 C -0.2363(6) -0.3521(4) 0.1925(6)
H14 H -0.2499 -0.4069 0.2081
C15 C -0.2859(5) -0.3218(5) 0.1290(6)
H15 H -0.3285 -0.3538 0.0919
C16 C -0.2738(4) -0.2443(5) 0.1081(5)
H16 H -0.3097 -0.2194 0.0602
C17 C -0.2116(4) -0.2002(3) 0.1568(4)
H17 H -0.2033 -0.1462 0.1428
loop_
_geom_bond_atom_site_label_1
_geom_bond_atom_site_label_2
_geom_bond_site_symmetry_1
_geom_bond_site_symmetry_2
Co1 O1 1_555 1_555
O1 C1 1_555 1_555
O2 C1 1_555 1_555
O3 Co1 1_555 1_555
H1 O3 1_555 1_555
H2 O3 1_555 1_555
O4 H3 1_555 1_555
N1 Co1 1_555 1_555
N2 C13 1_555 1_555
C1 C2 1_555 1_555
C2 C3 1_555 1_555
C3 H4 1_555 1_555
C4 C3 1_555 1_555
H5 C4 1_555 1_555
C5 C4 1_555 1_555
C6 C5 1_555 1_555
H6 C6 1_555 1_555
C7 C2 1_555 1_555
H7 C7 1_555 1_555
C8 N1 1_555 1_555
H8 C8 1_555 1_555
C9 C8 1_555 1_555
H9 C9 1_555 1_555
C10 C9 1_555 1_555
H10 C10 1_555 1_555
C11 C10 1_555 1_555
H11 C11 1_555 1_555
C12 N1 1_555 1_555
H12 C12 1_555 1_555
C13 H13 1_555 1_555
C14 C13 1_555 1_555
H14 C14 1_555 1_555
C15 C14 1_555 1_555
H15 C15 1_555 1_555
C16 C15 1_555 1_555
H16 C16 1_555 1_555
C17 N2 1_555 1_555
H17 C17 1_555 1_555
O1D Co1 1_555 1_555
O3D Co1 1_555 1_555
N1D Co1 1_555 1_555
H3F O4 1_555 1_555
C5F C5 1_555 1_555
H1D O3D 1_555 1_555
H2D O3D 1_555 1_555
C8D N1D 1_555 1_555
C12D N1D 1_555 1_555
H8D C8D 1_555 1_555
C9D C8D 1_555 1_555
C11D C12D 1_555 1_555
H12D C12D 1_555 1_555
H9D C9D 1_555 1_555
C10D C9D 1_555 1_555
H11D C11D 1_555 1_555
H10D C10D 1_555 1_555
C4F C5F 1_555 1_555
C6F C5F 1_555 1_555
H6F C6F 1_555 1_555
C7F C6F 1_555 1_555
C3F C4F 1_555 1_555
H5F C4F 1_555 1_555
C2F C7F 1_555 1_555
H7F C7F 1_555 1_555
H4F C3F 1_555 1_555
C1F C2F 1_555 1_555
O1F C1F 1_555 1_555
O2F C1F 1_555 1_555
Co1B O1F 1_555 1_555
C6 C7 1_555 1_555
C11 C12 1_555 1_555
C16 C17 1_555 1_555
C11D C10D 1_555 1_555
C3F C2F 1_555 1_555

#END
