
#######################################################################
#
#                 Cambridge Crystallographic Data Centre
#                                CCDC 
#
#######################################################################
#
# If this CIF has been generated from an entry in the Cambridge 
# Structural Database, then it will include bibliographic, chemical, 
# crystal, experimental, refinement or atomic coordinate data resulting 
# from the CCDC's data processing and validation procedures.
#
#######################################################################

data_QIFHIX
_symmetry_cell_setting           monoclinic
_symmetry_space_group_name_H-M   'P 21/n'
_symmetry_Int_Tables_number      14
_space_group_name_Hall           '-P 2yn'
loop_
_symmetry_equiv_pos_site_id
_symmetry_equiv_pos_as_xyz
1 x,y,z
2 1/2-x,1/2+y,1/2-z
3 -x,-y,-z
4 1/2+x,1/2-y,1/2+z
_cell_length_a                   13.0160(6)
_cell_length_b                   12.8648(4)
_cell_length_c                   15.1056(6)
_cell_angle_alpha                90
_cell_angle_beta                 96.7670(19)
_cell_angle_gamma                90
_cell_volume                     2511.79
loop_
_atom_site_label
_atom_site_type_symbol
_atom_site_fract_x
_atom_site_fract_y
_atom_site_fract_z
Mo1 Mo 0.17385(2) 0.174320(10) 0.466030(10)
Mn1 Mn 0.30204(3) 0.37146(3) 0.77718(3)
Mn2 Mn 0.36871(3) 0.29698(3) 0.18649(3)
O1 O 0.23734(16) 0.25104(15) 0.85617(14)
O2 O 0.2582(2) 0.2176(2) 0.09342(16)
N1 N 0.27441(18) 0.27820(17) 0.65655(15)
N2 N 0.27277(19) 0.26710(18) 0.29085(15)
N3 N 0.1240(2) 0.4269(2) 0.46245(19)
N4 N 0.4255(2) 0.1251(2) 0.49041(18)
N5 N -0.03740(19) 0.18203(17) 0.32036(16)
N6 N 0.18869(18) -0.02021(17) 0.60963(15)
N7 N -0.02385(18) 0.18879(17) 0.58453(15)
N8 N 0.18389(19) -0.04191(17) 0.34781(16)
N9 N 0.13005(18) 0.42813(17) 0.75056(15)
N10 N -0.04046(18) 0.35708(18) 0.72620(16)
N11 N 0.50908(18) 0.62400(16) 0.70993(15)
N12 N 0.37562(18) 0.49625(17) 0.69610(14)
C1 C 0.2405(2) 0.24248(19) 0.58958(17)
C2 C 0.2371(2) 0.23582(19) 0.35156(17)
C3 C 0.1403(2) 0.3391(2) 0.46172(18)
C4 C 0.3376(2) 0.1408(2) 0.48202(18)
C5 C 0.0368(2) 0.17845(18) 0.36993(17)
C6 C 0.1816(2) 0.04517(19) 0.55709(17)
C7 C 0.0427(2) 0.18251(19) 0.54080(18)
C8 C 0.1788(2) 0.0346(2) 0.38684(17)
C9 C 0.0619(2) 0.3520(2) 0.72806(18)
C10 C 0.0895(2) 0.5200(2) 0.7721(2)
C11 C -0.0160(2) 0.5333(2) 0.7709(2)
C12 C -0.0791(2) 0.4486(2) 0.7488(2)
C13 C 0.4475(2) 0.55483(19) 0.74276(17)
C14 C 0.4976(2) 0.6363(2) 0.62105(18)
C15 C 0.4256(2) 0.5789(2) 0.56625(18)
C16 C 0.3655(2) 0.5088(2) 0.60643(18)
H1 H 0.0895 0.2874 0.7117
H2 H 0.1345 0.5768 0.7883
H3 H -0.0442 0.5985 0.7850
H4 H -0.1517 0.4553 0.7495
H5 H 0.4557 0.5462 0.8057
H6 H 0.5398 0.6851 0.5951
H7 H 0.4178 0.5877 0.5034
H8 H 0.3159 0.4683 0.5703
H9 H 0.2034 0.2859 0.9000
H10 H 0.2885 0.2084 0.8882
H11 H 0.2731 0.1734 0.0462
H12 H 0.1987 0.2549 0.0685
Mn1C Mn -0.19796(3) 0.12854(3) 0.27718(3)
Mn1A Mn 0.19796(3) -0.12854(3) 0.72282(3)
Mn2C Mn -0.13129(3) 0.20302(3) 0.68649(3)
Mn2A Mn 0.13129(3) -0.20302(3) 0.31351(3)
Mn2B Mn 0.63129(3) 0.70302(3) 0.81351(3)
N5C N 0.46260(19) 0.31797(17) 0.82036(16)
N6A N 0.31131(18) 0.47979(17) 0.89037(15)
N7C N 0.47615(18) 0.31121(17) 0.08453(15)
N8A N 0.31611(19) 0.45809(17) 0.15219(16)
N10C N 0.45954(18) 0.14292(18) 0.22620(16)
N11B N 0.49092(18) 0.37600(16) 0.29007(15)
O3 O 0.13513(17) 0.35762(17) 0.98064(16)
O4 O 0.1277(2) 0.6160(2) 0.5527(2)
O5 O 0.5331(4) 0.2936(4) 0.6228(3)
O6? O 0.6919(6) 0.4777(5) 0.6367(4)
loop_
_geom_bond_atom_site_label_1
_geom_bond_atom_site_label_2
_geom_bond_site_symmetry_1
_geom_bond_site_symmetry_2
Mo1 C1 1_555 1_555
Mn1 O1 1_555 1_555
Mn2 O2 1_555 1_555
O1 H9 1_555 1_555
O2 H11 1_555 1_555
N1 Mn1 1_555 1_555
N2 Mn2 1_555 1_555
N3 C3 1_555 1_555
N4 C4 1_555 1_555
N5 C5 1_555 1_555
N6 C6 1_555 1_555
N7 C7 1_555 1_555
N8 C8 1_555 1_555
N9 Mn1 1_555 1_555
N10 C9 1_555 1_555
N11 C13 1_555 1_555
N12 Mn1 1_555 1_555
C1 N1 1_555 1_555
C2 Mo1 1_555 1_555
C3 Mo1 1_555 1_555
C4 Mo1 1_555 1_555
C5 Mo1 1_555 1_555
C6 Mo1 1_555 1_555
C7 Mo1 1_555 1_555
C8 Mo1 1_555 1_555
C9 N9 1_555 1_555
C10 N9 1_555 1_555
C11 C10 1_555 1_555
C12 N10 1_555 1_555
C13 N12 1_555 1_555
C14 N11 1_555 1_555
C15 C14 1_555 1_555
C16 N12 1_555 1_555
H1 C9 1_555 1_555
H2 C10 1_555 1_555
H3 C11 1_555 1_555
H4 C12 1_555 1_555
H5 C13 1_555 1_555
H6 C14 1_555 1_555
H7 C15 1_555 1_555
H8 C16 1_555 1_555
H10 O1 1_555 1_555
H12 O2 1_555 1_555
Mn1C N5 1_555 1_555
Mn1A N6 1_555 1_555
Mn2C N7 1_555 1_555
Mn2A N8 1_555 1_555
Mn2B N11 1_555 1_555
N5C Mn1 1_555 1_555
N6A Mn1 1_555 1_555
N7C Mn2 1_555 1_555
N8A Mn2 1_555 1_555
N10C Mn2 1_555 1_555
N11B Mn2 1_555 1_555
N2 C2 1_555 1_555
N10 Mn2C 1_555 1_555
C11 C12 1_555 1_555
C15 C16 1_555 1_555

#END
