
#######################################################################
#
#                 Cambridge Crystallographic Data Centre
#                                CCDC 
#
#######################################################################
#
# If this CIF has been generated from an entry in the Cambridge 
# Structural Database, then it will include bibliographic, chemical, 
# crystal, experimental, refinement or atomic coordinate data resulting 
# from the CCDC's data processing and validation procedures.
#
#######################################################################

data_QIFKEW
_symmetry_cell_setting           monoclinic
_symmetry_space_group_name_H-M   'P 21'
_symmetry_Int_Tables_number      4
_space_group_name_Hall           'P 2yb'
loop_
_symmetry_equiv_pos_site_id
_symmetry_equiv_pos_as_xyz
1 x,y,z
2 -x,1/2+y,-z
_cell_length_a                   7.0794(8)
_cell_length_b                   16.237(3)
_cell_length_c                   7.7806(12)
_cell_angle_alpha                90
_cell_angle_beta                 111.342(6)
_cell_angle_gamma                90
_cell_volume                     833.035
loop_
_atom_site_label
_atom_site_type_symbol
_atom_site_fract_x
_atom_site_fract_y
_atom_site_fract_z
Se1 Se 0.84503(19) 0.65276(8) 0.81489(18)
Se2 Se 0.81237(18) 0.57547(10) 0.55564(17)
Se3 Se 1.0948(2) 0.48821(9) 0.64250(18)
Se4 Se 1.32580(19) 0.54051(9) 0.5198(2)
Se5 Se 1.2067(2) 0.49486(10) 0.21359(19)
Se6 Se 1.25033(17) 0.35179(9) 0.23679(16)
Mn1 Mn 1.1086(2) 0.77852(12) 0.8118(2)
N1 N 1.3736(15) 0.6928(8) 0.8890(13)
H1 H 1.3298 0.6422 0.8459
H2 H 1.4595 0.7099 0.8349
C1 C 1.480(3) 0.6884(11) 1.0837(16)
H3 H 1.6230 0.6815 1.1062
H4 H 1.4352 0.6392 1.1287
C2 C 1.458(2) 0.7597(9) 1.196(2)
H5 H 1.4847 0.7408 1.3211
H6 H 1.5601 0.8004 1.2015
N2 N 1.2671(13) 0.7984(6) 1.1309(12)
C3 C 1.301(3) 0.8933(11) 1.149(2)
H7 H 1.1736 0.9200 1.1339
H8 H 1.3959 0.9058 1.2721
C4 C 1.378(2) 0.9267(12) 1.0158(17)
H9 H 1.3714 0.9864 1.0190
H10 H 1.5201 0.9116 1.0516
N3 N 1.2730(15) 0.8998(7) 0.8327(12)
H11 H 1.3621 0.8947 0.7752
H12 H 1.1822 0.9386 0.7727
C5 C 1.129(2) 0.7748(9) 1.2268(16)
H13 H 1.0945 0.7172 1.2008
H14 H 1.0051 0.8063 1.1732
C6 C 1.2054(17) 0.7865(9) 1.4325(14)
H15 H 1.3217 0.7510 1.4896
H16 H 1.2496 0.8430 1.4617
N4 N 1.0512(16) 0.7679(8) 1.5089(13)
H17 H 1.0109 0.7157 1.4761
H18 H 0.9442 0.8003 1.4498
Se6A Se 0.74967(17) 0.85179(9) 0.76321(16)
Mn1A Mn 0.8914(2) 0.27852(12) 0.1882(2)
Mn1_2 Mn 1.1086(2) 0.77852(12) 1.8118(2)
N4_2 N 1.0512(16) 0.7679(8) 0.5089(13)
H17_2 H 1.0109 0.7157 0.4761
H18_2 H 0.9442 0.8003 0.4498
loop_
_geom_bond_atom_site_label_1
_geom_bond_atom_site_label_2
_geom_bond_site_symmetry_1
_geom_bond_site_symmetry_2
Se1 Se2 1_555 1_555
Se2 Se3 1_555 1_555
Se3 Se4 1_555 1_555
Se4 Se5 1_555 1_555
Se5 Se6 1_555 1_555
Se6 Mn1A 1_555 1_555
Mn1 Se1 1_555 1_555
N1 Mn1 1_555 1_555
H1 N1 1_555 1_555
H2 N1 1_555 1_555
C1 N1 1_555 1_555
H3 C1 1_555 1_555
H4 C1 1_555 1_555
C2 C1 1_555 1_555
H5 C2 1_555 1_555
H6 C2 1_555 1_555
N2 Mn1 1_555 1_555
C3 N2 1_555 1_555
H7 C3 1_555 1_555
H8 C3 1_555 1_555
C4 C3 1_555 1_555
H9 C4 1_555 1_555
H10 C4 1_555 1_555
N3 Mn1 1_555 1_555
H11 N3 1_555 1_555
H12 N3 1_555 1_555
C5 N2 1_555 1_555
H13 C5 1_555 1_555
H14 C5 1_555 1_555
C6 C5 1_555 1_555
H15 C6 1_555 1_555
H16 C6 1_555 1_555
N4 C6 1_555 1_555
H17 N4 1_555 1_555
H18 N4 1_555 1_555
Se6A Mn1 1_555 1_555
Mn1_2 N4 1_555 1_555
N4_2 Mn1 1_555 1_555
H17_2 N4_2 1_555 1_555
H18_2 N4_2 1_555 1_555
C2 N2 1_555 1_555
C4 N3 1_555 1_555

#END
