
#######################################################################
#
#                 Cambridge Crystallographic Data Centre
#                                CCDC 
#
#######################################################################
#
# If this CIF has been generated from an entry in the Cambridge 
# Structural Database, then it will include bibliographic, chemical, 
# crystal, experimental, refinement or atomic coordinate data resulting 
# from the CCDC's data processing and validation procedures.
#
#######################################################################

data_QIFKIB
_symmetry_cell_setting           monoclinic
_symmetry_space_group_name_H-M   'C c'
_symmetry_Int_Tables_number      9
_space_group_name_Hall           'C -2yc'
loop_
_symmetry_equiv_pos_site_id
_symmetry_equiv_pos_as_xyz
1 x,y,z
2 x,-y,1/2+z
3 1/2+x,1/2+y,z
4 1/2+x,1/2-y,1/2+z
_cell_length_a                   23.6644(17)
_cell_length_b                   14.9473(13)
_cell_length_c                   32.9534(16)
_cell_angle_alpha                90
_cell_angle_beta                 93.185(3)
_cell_angle_gamma                90
_cell_volume                     11638.2
loop_
_atom_site_label
_atom_site_type_symbol
_atom_site_fract_x
_atom_site_fract_y
_atom_site_fract_z
C1 C 0.7904(2) 0.5235(4) 0.76673(15)
H1 H 0.7904 0.5808 0.7777
C2 C 0.8393(2) 0.4726(3) 0.77304(16)
H2 H 0.8709 0.4956 0.7875
C3 C 0.8395(2) 0.3855(3) 0.75693(16)
C4 C 0.7912(2) 0.3554(4) 0.73427(16)
H3 H 0.7910 0.2990 0.7223
C5 C 0.7435(2) 0.4104(3) 0.72966(17)
H4 H 0.7112 0.3893 0.7154
C6 C 0.8875(2) 0.3221(3) 0.76481(17)
C7 C 0.91542(19) 0.3257(3) 0.80119(16)
H5 H 0.9047 0.3665 0.8206
C8 C 0.9603(2) 0.2669(3) 0.81275(15)
C9 C 0.9772(2) 0.2052(3) 0.78374(16)
H6 H 1.0072 0.1662 0.7896
C10 C 0.9477(2) 0.2038(3) 0.74551(15)
C11 C 0.9033(2) 0.2617(3) 0.73634(16)
H7 H 0.8841 0.2596 0.7109
C12 C 0.9907(2) 0.2657(3) 0.85410(16)
C13 C 0.9702(2) 0.3165(3) 0.88671(16)
H8 H 0.9365 0.3475 0.8818
C14 C 0.9979(2) 0.3210(4) 0.92273(16)
H9 H 0.9836 0.3555 0.9433
C15 C 1.0701(2) 0.2241(3) 0.89899(16)
H10 H 1.1042 0.1939 0.9036
C16 C 1.0420(2) 0.2190(3) 0.86227(17)
H11 H 1.0567 0.1841 0.8420
C17 C 0.9583(2) 0.0565(3) 0.72126(15)
C18 C 0.9918(2) 0.0020(4) 0.69830(16)
H12 H 1.0177 0.0273 0.6815
C19 C 0.9866(2) -0.0905(4) 0.70050(16)
C20 C 0.9479(2) -0.1284(3) 0.72566(16)
H13 H 0.9444 -0.1903 0.7271
C21 C 0.9144(2) -0.0739(3) 0.74863(17)
C22 C 0.9196(2) 0.0186(3) 0.74643(16)
H14 H 0.8972 0.0551 0.7618
C23 C 1.0234(2) -0.1503(4) 0.67810(16)
C24 C 1.0754(2) -0.1204(4) 0.66416(16)
H15 H 1.0870 -0.0621 0.6699
C25 C 1.1090(2) -0.1742(4) 0.64258(16)
H16 H 1.1427 -0.1521 0.6333
C26 C 1.0422(2) -0.2920(4) 0.64688(18)
H17 H 1.0302 -0.3492 0.6394
C27 C 1.0078(2) -0.2385(4) 0.67067(17)
H18 H 0.9752 -0.2618 0.6812
C28 C 0.8726(2) -0.1147(4) 0.77691(15)
C29 C 0.8654(2) -0.2084(4) 0.78285(17)
H19 H 0.8880 -0.2451 0.7678
C30 C 0.8313(2) -0.2417(4) 0.80663(17)
H20 H 0.8288 -0.3035 0.8090
C31 C 0.8018(2) -0.0982(3) 0.82569(18)
H21 H 0.7809 -0.0613 0.8419
C32 C 0.8382(2) -0.0606(4) 0.79826(18)
H22 H 0.8390 0.0010 0.7946
C33 C 1.0491(2) 0.1435(4) 1.04033(17)
H23 H 1.0805 0.1113 1.0329
C34 C 1.0096(2) 0.1039(4) 1.06533(16)
H24 H 1.0158 0.0464 1.0754
C35 C 0.9614(2) 0.1509(3) 1.07491(15)
C36 C 0.9527(2) 0.2365(3) 1.06115(16)
H25 H 0.9209 0.2684 1.0681
C37 C 0.9930(2) 0.2759(3) 1.03609(16)
H26 H 0.9869 0.3332 1.0259
C38 C 0.9177(2) 0.1089(4) 1.09975(16)
C39 C 0.9130(2) 0.0171(4) 1.10547(18)
H27 H 0.9360 -0.0219 1.0918
C40 C 0.8741(2) -0.0165(3) 1.13160(16)
C41 C 0.8397(2) 0.0418(4) 1.15202(17)
H28 H 0.8136 0.0193 1.1695
C42 C 0.8443(2) 0.1336(3) 1.14631(15)
C43 C 0.8833(2) 0.1671(4) 1.12018(16)
H29 H 0.8864 0.2285 1.1163
C44 C 0.80602(19) 0.1937(3) 1.16983(15)
C45 C 0.8170(2) 0.2887(4) 1.17231(18)
H30 H 0.8487 0.3092 1.1597
C46 C 0.7826(2) 0.3441(4) 1.18827(16)
H31 H 0.7896 0.4052 1.1870
C47 C 0.7236(2) 0.2246(3) 1.20784(16)
H32 H 0.6921 0.2043 1.2208
C48 C 0.7591(2) 0.1629(4) 1.18880(17)
H33 H 0.7510 0.1021 1.1891
C49 C 0.8846(2) -0.1645(4) 1.10853(16)
C50 C 0.9265(2) -0.2259(3) 1.11844(16)
H34 H 0.9446 -0.2253 1.1442
C51 C 0.9417(2) -0.2889(3) 1.08999(17)
C52 C 0.9156(2) -0.2889(3) 1.05253(16)
H35 H 0.9257 -0.3304 1.0332
C53 C 0.8722(2) -0.2258(3) 1.04112(16)
C54 C 0.8578(2) -0.1643(3) 1.07017(15)
H36 H 0.8298 -0.1222 1.0638
C55 C 0.8426(2) -0.2263(3) 1.00008(17)
C56 C 0.8616(2) -0.2798(3) 0.96795(16)
H37 H 0.8940 -0.3140 0.9733
C57 C 0.8337(2) -0.2830(3) 0.93121(17)
H38 H 0.8469 -0.3193 0.9109
C58 C 0.76677(19) -0.1783(3) 0.95317(15)
H39 H 0.7350 -0.1430 0.9474
C59 C 0.7939(2) -0.1750(4) 0.99145(17)
H40 H 0.7798 -0.1387 1.0114
C60 C 0.9920(2) -0.3497(4) 1.09912(16)
C61 C 1.0351(2) -0.3218(4) 1.12647(16)
H41 H 1.0318 -0.2683 1.1406
C62 C 1.0831(2) -0.3746(3) 1.13266(16)
H42 H 1.1117 -0.3571 1.1515
C63 C 1.0459(2) -0.4799(3) 1.08336(15)
H43 H 1.0492 -0.5330 1.0690
C64 C 0.9984(2) -0.4272(3) 1.07747(15)
H44 H 0.9700 -0.4445 1.0584
C65 C 0.5904(2) 0.4788(3) 0.78193(16)
C66 C 0.5644(2) 0.3953(3) 0.79629(17)
C67 C 0.5720(2) 0.3170(4) 0.77724(16)
H45 H 0.5942 0.3155 0.7548
C68 C 0.5474(2) 0.2380(4) 0.79036(17)
H46 H 0.5525 0.1848 0.7764
C69 C 0.5148(2) 0.2392(3) 0.82489(17)
C70 C 0.5076(2) 0.3201(4) 0.84437(17)
H47 H 0.4857 0.3226 0.8669
C71 C 0.5329(2) 0.3985(4) 0.83051(17)
H48 H 0.5287 0.4523 0.8442
C72 C 0.5265(2) 0.0595(3) 0.83897(17)
C73 C 0.5638(2) 0.0473(4) 0.87308(17)
H49 H 0.5617 0.0852 0.8953
C74 C 0.6036(2) -0.0207(3) 0.87404(16)
H50 H 0.6274 -0.0299 0.8971
C75 C 0.6076(2) -0.0756(3) 0.83980(17)
C76 C 0.5715(2) -0.0639(4) 0.80631(17)
H51 H 0.5741 -0.1004 0.7836
C77 C 0.5303(2) 0.0040(3) 0.80666(18)
H52 H 0.5051 0.0110 0.7842
C78 C 0.6536(2) -0.1457(3) 0.83805(16)
C79 C 0.7270(2) -0.4157(3) 0.86499(16)
C80 C 0.7300(2) -0.5165(3) 0.86322(15)
C81 C 0.7819(2) -0.5571(4) 0.86278(16)
H53 H 0.8142 -0.5217 0.8620
C82 C 0.7878(2) -0.6498(3) 0.86354(16)
H54 H 0.8233 -0.6762 0.8627
C83 C 0.7394(2) -0.7019(3) 0.86554(16)
C84 C 0.6854(2) -0.6617(3) 0.86643(16)
H55 H 0.6532 -0.6967 0.8679
C85 C 0.6814(2) -0.5694(3) 0.86501(16)
H56 H 0.6460 -0.5423 0.8653
C86 C 0.7306(2) -0.8498(3) 0.81283(16)
C87 C 0.7729(2) -0.8389(4) 0.78582(16)
H57 H 0.8078 -0.8151 0.7944
C88 C 0.7617(2) -0.8647(3) 0.74483(17)
H58 H 0.7897 -0.8583 0.7263
C89 C 0.7099(2) -0.8992(3) 0.73205(16)
C90 C 0.6683(2) -0.9101(4) 0.75977(17)
H59 H 0.6334 -0.9341 0.7512
C91 C 0.6783(2) -0.8856(4) 0.80007(17)
H60 H 0.6502 -0.8930 0.8185
C92 C 0.6954(2) -0.9211(4) 0.68779(17)
C93 C 1.1900(2) 0.1891(3) 1.01247(17)
C94 C 1.2297(2) 0.1175(3) 1.00689(17)
C95 C 1.2723(2) 0.1024(4) 1.03706(16)
H61 H 1.2748 0.1379 1.0603
C96 C 1.3110(2) 0.0339(3) 1.03215(17)
H62 H 1.3400 0.0251 1.0520
C97 C 1.3075(2) -0.0213(3) 0.99864(15)
C98 C 1.2646(2) -0.0078(4) 0.96835(17)
H63 H 1.2619 -0.0441 0.9454
C99 C 1.2258(2) 0.0609(3) 0.97327(16)
H64 H 1.1966 0.0692 0.9536
C100 C 1.3183(2) -0.2058(3) 1.01476(18)
C101 C 1.2903(2) -0.1988(3) 1.05058(16)
H65 H 1.2879 -0.1438 1.0636
C102 C 1.2658(2) -0.2746(3) 1.06693(16)
H66 H 1.2484 -0.2706 1.0915
C103 C 1.2673(2) -0.3554(3) 1.04700(16)
C104 C 1.2960(2) -0.3624(3) 1.01149(16)
H67 H 1.2995 -0.4178 0.9990
C105 C 1.3194(2) -0.2874(4) 0.99475(17)
H68 H 1.3361 -0.2915 0.9699
C106 C 1.2422(2) -0.4351(4) 1.06528(17)
C107 C 1.1031(2) 0.4581(4) 0.98502(16)
C108 C 1.0987(2) 0.5543(4) 0.98100(16)
C109 C 1.1469(2) 0.6083(4) 0.97715(16)
H69 H 1.1826 0.5823 0.9772
C110 C 1.1411(2) 0.7009(3) 0.97323(17)
H70 H 1.1727 0.7367 0.9702
C111 C 1.0879(2) 0.7385(4) 0.97393(17)
C112 C 1.0406(2) 0.6851(4) 0.97863(16)
H71 H 1.0050 0.7113 0.9789
C113 C 1.0459(2) 0.5950(4) 0.98291(16)
H72 H 1.0142 0.5602 0.9871
C114 C 1.0944(2) 0.8863(3) 1.02529(16)
C115 C 1.1490(2) 0.9206(4) 1.03615(17)
H73 H 1.1744 0.9326 1.0163
C116 C 1.1641(2) 0.9362(4) 1.07737(17)
H74 H 1.1996 0.9593 1.0851
C117 C 1.1262(2) 0.9170(4) 1.10619(17)
C118 C 1.0732(2) 0.8847(3) 1.09579(17)
H75 H 1.0480 0.8733 1.1159
C119 C 1.0570(2) 0.8689(4) 1.05511(18)
H76 H 1.0211 0.8467 1.0480
C120 C 1.1425(3) 0.9248(4) 1.15098(17)
N1 N 0.74352(18) 0.4940(3) 0.74565(14)
N2 N 1.04792(18) 0.2746(3) 0.92997(14)
N3 N 1.09350(18) -0.2611(3) 0.63448(14)
N4 N 0.79701(18) -0.1876(3) 0.82865(13)
N5 N 1.04096(17) 0.2297(3) 1.02692(13)
N6 N 0.73580(18) 0.3138(3) 1.20706(14)
N7 N 0.78605(17) -0.2328(3) 0.92397(13)
N8 N 1.08880(18) -0.4525(3) 1.11107(14)
O1 O 0.96570(14) 0.1476(2) 0.71540(11)
O2 O 0.86870(14) -0.1083(2) 1.13869(11)
O3 O 0.62304(15) 0.4750(2) 0.75209(11)
O4 O 0.57796(15) 0.5520(2) 0.79864(11)
O5 O 0.45989(15) 0.1639(2) 0.88316(11)
O6 O 0.43514(15) 0.1240(2) 0.80767(13)
O7 O 0.68136(15) -0.1586(2) 0.87102(11)
O8 O 0.65777(14) -0.1847(2) 0.80555(11)
O9 O 0.76850(15) -0.3742(2) 0.85346(12)
O10 O 0.68388(14) -0.3755(2) 0.87481(11)
O11 O 0.80564(15) -0.8373(2) 0.87340(11)
O12 O 0.69651(16) -0.8564(2) 0.88579(11)
O13 O 0.71848(17) -0.8787(3) 0.66010(12)
O14 O 0.66090(16) -0.9797(3) 0.68020(12)
O15 O 1.15475(14) 0.1990(2) 0.98285(11)
O16 O 1.19054(14) 0.2331(2) 1.04535(11)
O17 O 1.40293(14) -0.0931(2) 1.02493(11)
O18 O 1.36176(15) -0.1274(2) 0.95179(11)
O19 O 1.21375(15) -0.4216(2) 1.09577(11)
O20 O 1.24715(14) -0.5103(2) 1.05054(11)
O21 O 1.05983(15) 0.4194(2) 0.99616(11)
O22 O 1.14573(15) 0.4160(2) 0.97414(12)
O23 O 1.01816(15) 0.8741(2) 0.96754(11)
O24 O 1.13152(16) 0.8892(2) 0.95131(11)
O25 O 1.11790(16) 0.8867(3) 1.17867(12)
O26 O 1.18213(16) 0.9762(2) 1.16283(12)
O27 O 0.66056(15) 0.6477(2) 0.77740(11)
H77 H 0.6225 0.6368 0.7848
H78 H 0.6652 0.7102 0.7718
O28 O 1.14611(15) -0.6258(2) 1.08634(11)
H79 H 1.1232 -0.6624 1.1029
H80 H 1.1797 -0.6580 1.0802
S1 S 1.07857(7) 0.85645(10) 0.97444(5)
S2 S 1.35429(6) -0.11179(9) 0.99453(5)
S3 S 0.47732(6) 0.14677(9) 0.84017(5)
S4 S 0.74432(7) -0.81931(9) 0.86451(5)
Zn1 Zn 0.67601(3) 0.57830(4) 0.72850(3)
Zn2 Zn 1.09271(3) 0.28880(4) 0.98595(3)
Zn3 Zn 1.16757(3) -0.51781(4) 1.11548(3)
Zn4 Zn 0.74122(4) -0.24863(4) 0.86752(3)
N6A N 0.73580(18) 0.6862(3) 0.70706(14)
O13C O 1.21848(17) -0.6213(3) 1.16010(12)
O14C O 1.16090(16) -0.5203(3) 1.18020(12)
O25C O 0.61790(16) 0.6133(3) 0.67867(12)
O26C O 0.68213(16) 0.5238(2) 0.66283(12)
Zn1A Zn 0.67601(3) 0.42170(4) 1.22850(3)
Zn1C Zn 1.17601(3) 0.92170(4) 1.22850(3)
Zn3C Zn 0.66757(3) -0.98219(4) 0.61548(3)
loop_
_geom_bond_atom_site_label_1
_geom_bond_atom_site_label_2
_geom_bond_site_symmetry_1
_geom_bond_site_symmetry_2
C1 H1 1_555 1_555
C2 C1 1_555 1_555
H2 C2 1_555 1_555
C3 C2 1_555 1_555
C4 C3 1_555 1_555
H3 C4 1_555 1_555
C5 C4 1_555 1_555
H4 C5 1_555 1_555
C6 C3 1_555 1_555
C7 C6 1_555 1_555
H5 C7 1_555 1_555
C8 C7 1_555 1_555
C9 C8 1_555 1_555
H6 C9 1_555 1_555
C10 C9 1_555 1_555
C11 C6 1_555 1_555
H7 C11 1_555 1_555
C12 C8 1_555 1_555
C13 C12 1_555 1_555
H8 C13 1_555 1_555
C14 C13 1_555 1_555
H9 C14 1_555 1_555
C15 H10 1_555 1_555
C16 C12 1_555 1_555
H11 C16 1_555 1_555
C17 C18 1_555 1_555
C18 H12 1_555 1_555
C19 C18 1_555 1_555
C20 C19 1_555 1_555
H13 C20 1_555 1_555
C21 C20 1_555 1_555
C22 C17 1_555 1_555
H14 C22 1_555 1_555
C23 C19 1_555 1_555
C24 C23 1_555 1_555
H15 C24 1_555 1_555
C25 C24 1_555 1_555
H16 C25 1_555 1_555
C26 H17 1_555 1_555
C27 C23 1_555 1_555
H18 C27 1_555 1_555
C28 C21 1_555 1_555
C29 C28 1_555 1_555
H19 C29 1_555 1_555
C30 C29 1_555 1_555
H20 C30 1_555 1_555
C31 H21 1_555 1_555
C32 C28 1_555 1_555
H22 C32 1_555 1_555
C33 H23 1_555 1_555
C34 C33 1_555 1_555
H24 C34 1_555 1_555
C35 C34 1_555 1_555
C36 C35 1_555 1_555
H25 C36 1_555 1_555
C37 C36 1_555 1_555
H26 C37 1_555 1_555
C38 C35 1_555 1_555
C39 C38 1_555 1_555
H27 C39 1_555 1_555
C40 C39 1_555 1_555
C41 C40 1_555 1_555
H28 C41 1_555 1_555
C42 C41 1_555 1_555
C43 C38 1_555 1_555
H29 C43 1_555 1_555
C44 C42 1_555 1_555
C45 C44 1_555 1_555
H30 C45 1_555 1_555
C46 C45 1_555 1_555
H31 C46 1_555 1_555
C47 H32 1_555 1_555
C48 C44 1_555 1_555
H33 C48 1_555 1_555
C49 C50 1_555 1_555
C50 H34 1_555 1_555
C51 C50 1_555 1_555
C52 C51 1_555 1_555
H35 C52 1_555 1_555
C53 C52 1_555 1_555
C54 C49 1_555 1_555
H36 C54 1_555 1_555
C55 C53 1_555 1_555
C56 C55 1_555 1_555
H37 C56 1_555 1_555
C57 C56 1_555 1_555
H38 C57 1_555 1_555
C58 H39 1_555 1_555
C59 C55 1_555 1_555
H40 C59 1_555 1_555
C60 C51 1_555 1_555
C61 C60 1_555 1_555
H41 C61 1_555 1_555
C62 C61 1_555 1_555
H42 C62 1_555 1_555
C63 H43 1_555 1_555
C64 C60 1_555 1_555
H44 C64 1_555 1_555
C65 C66 1_555 1_555
C66 C67 1_555 1_555
C67 H45 1_555 1_555
C68 C67 1_555 1_555
H46 C68 1_555 1_555
C69 C68 1_555 1_555
C70 C69 1_555 1_555
H47 C70 1_555 1_555
C71 C66 1_555 1_555
H48 C71 1_555 1_555
C72 C73 1_555 1_555
C73 H49 1_555 1_555
C74 C73 1_555 1_555
H50 C74 1_555 1_555
C75 C74 1_555 1_555
C76 C75 1_555 1_555
H51 C76 1_555 1_555
C77 C72 1_555 1_555
H52 C77 1_555 1_555
C78 C75 1_555 1_555
C79 C80 1_555 1_555
C80 C81 1_555 1_555
C81 H53 1_555 1_555
C82 C81 1_555 1_555
H54 C82 1_555 1_555
C83 C82 1_555 1_555
C84 C83 1_555 1_555
H55 C84 1_555 1_555
C85 C80 1_555 1_555
H56 C85 1_555 1_555
C86 C87 1_555 1_555
C87 H57 1_555 1_555
C88 C87 1_555 1_555
H58 C88 1_555 1_555
C89 C88 1_555 1_555
C90 C89 1_555 1_555
H59 C90 1_555 1_555
C91 C86 1_555 1_555
H60 C91 1_555 1_555
C92 C89 1_555 1_555
C93 C94 1_555 1_555
C94 C95 1_555 1_555
C95 H61 1_555 1_555
C96 C95 1_555 1_555
H62 C96 1_555 1_555
C97 C96 1_555 1_555
C98 C97 1_555 1_555
H63 C98 1_555 1_555
C99 C94 1_555 1_555
H64 C99 1_555 1_555
C100 C101 1_555 1_555
C101 H65 1_555 1_555
C102 C101 1_555 1_555
H66 C102 1_555 1_555
C103 C102 1_555 1_555
C104 C103 1_555 1_555
H67 C104 1_555 1_555
C105 C100 1_555 1_555
H68 C105 1_555 1_555
C106 C103 1_555 1_555
C107 C108 1_555 1_555
C108 C109 1_555 1_555
C109 H69 1_555 1_555
C110 C109 1_555 1_555
H70 C110 1_555 1_555
C111 C110 1_555 1_555
C112 C111 1_555 1_555
H71 C112 1_555 1_555
C113 C108 1_555 1_555
H72 C113 1_555 1_555
C114 C115 1_555 1_555
C115 H73 1_555 1_555
C116 C115 1_555 1_555
H74 C116 1_555 1_555
C117 C116 1_555 1_555
C118 C117 1_555 1_555
H75 C118 1_555 1_555
C119 C114 1_555 1_555
H76 C119 1_555 1_555
C120 C117 1_555 1_555
N1 C1 1_555 1_555
N2 C14 1_555 1_555
N3 C25 1_555 1_555
N4 C30 1_555 1_555
N5 C33 1_555 1_555
N6 C46 1_555 1_555
N7 C57 1_555 1_555
N8 C62 1_555 1_555
O1 C10 1_555 1_555
O2 C40 1_555 1_555
O3 C65 1_555 1_555
O4 C65 1_555 1_555
O5 S3 1_555 1_555
O6 S3 1_555 1_555
O7 C78 1_555 1_555
O8 C78 1_555 1_555
O9 C79 1_555 1_555
O10 C79 1_555 1_555
O11 S4 1_555 1_555
O12 S4 1_555 1_555
O13 C92 1_555 1_555
O14 C92 1_555 1_555
O15 C93 1_555 1_555
O16 C93 1_555 1_555
O17 S2 1_555 1_555
O18 S2 1_555 1_555
O19 C106 1_555 1_555
O20 C106 1_555 1_555
O21 C107 1_555 1_555
O22 C107 1_555 1_555
O23 S1 1_555 1_555
O24 S1 1_555 1_555
O25 C120 1_555 1_555
O26 C120 1_555 1_555
O27 H77 1_555 1_555
H78 O27 1_555 1_555
O28 H79 1_555 1_555
H80 O28 1_555 1_555
S1 C111 1_555 1_555
S2 C97 1_555 1_555
S3 C69 1_555 1_555
S4 C83 1_555 1_555
Zn1 N1 1_555 1_555
Zn2 N2 1_555 1_555
Zn3 N8 1_555 1_555
Zn4 N4 1_555 1_555
N6A Zn1 1_555 1_555
O13C Zn3 1_555 1_555
O14C Zn3 1_555 1_555
O25C Zn1 1_555 1_555
O26C Zn1 1_555 1_555
Zn1A N6 1_555 1_555
Zn1C O25 1_555 1_555
Zn3C O13 1_555 1_555
C5 N1 1_555 1_555
C10 C11 1_555 1_555
C15 C16 1_555 1_555
C15 N2 1_555 1_555
C17 O1 1_555 1_555
C21 C22 1_555 1_555
C26 C27 1_555 1_555
C26 N3 1_555 1_555
C31 C32 1_555 1_555
C31 N4 1_555 1_555
C37 N5 1_555 1_555
C42 C43 1_555 1_555
C47 C48 1_555 1_555
C47 N6 1_555 1_555
C49 O2 1_555 1_555
C53 C54 1_555 1_555
C58 C59 1_555 1_555
C58 N7 1_555 1_555
C63 C64 1_555 1_555
C63 N8 1_555 1_555
C70 C71 1_555 1_555
C72 S3 1_555 1_555
C76 C77 1_555 1_555
C84 C85 1_555 1_555
C86 S4 1_555 1_555
C90 C91 1_555 1_555
C98 C99 1_555 1_555
C100 S2 1_555 1_555
C104 C105 1_555 1_555
C112 C113 1_555 1_555
C114 S1 1_555 1_555
C118 C119 1_555 1_555
N5 Zn2 1_555 1_555
N7 Zn4 1_555 1_555
O3 Zn1 1_555 1_555
O7 Zn4 1_555 1_555
O9 Zn4 1_555 1_555
O10 Zn4 1_555 1_555
O14 Zn3C 1_555 1_555
O15 Zn2 1_555 1_555
O19 Zn3 1_555 1_555
O21 Zn2 1_555 1_555
O22 Zn2 1_555 1_555
O26 Zn1C 1_555 1_555
O27 Zn1 1_555 1_555
O28 Zn3 1_555 1_555

#END
