
#######################################################################
#
#                 Cambridge Crystallographic Data Centre
#                                CCDC 
#
#######################################################################
#
# If this CIF has been generated from an entry in the Cambridge 
# Structural Database, then it will include bibliographic, chemical, 
# crystal, experimental, refinement or atomic coordinate data resulting 
# from the CCDC's data processing and validation procedures.
#
#######################################################################

data_QIFLUM
_symmetry_cell_setting           triclinic
_symmetry_space_group_name_H-M   'P -1'
_symmetry_Int_Tables_number      2
_space_group_name_Hall           '-P 1'
loop_
_symmetry_equiv_pos_site_id
_symmetry_equiv_pos_as_xyz
1 x,y,z
2 -x,-y,-z
_cell_length_a                   7.305(5)
_cell_length_b                   11.625(5)
_cell_length_c                   14.837(5)
_cell_angle_alpha                109.05(5)
_cell_angle_beta                 102.49(5)
_cell_angle_gamma                94.14(5)
_cell_volume                     1148.78
loop_
_atom_site_label
_atom_site_type_symbol
_atom_site_fract_x
_atom_site_fract_y
_atom_site_fract_z
Cd1 Cd 0.5000 0.5000 -0.5000
Cd2 Cd 0.5000 1.0000 -0.5000
S1 S 0.73983(15) 0.35825(8) -0.58338(8)
S2 S 0.19419(11) 0.11654(7) -0.47023(6)
O1 O 0.4444(3) 0.4807(3) -0.12719(17)
O2 O 0.7216(3) 0.5374(2) -0.01346(16)
O3 O 0.5951(3) 0.8300(2) -0.88425(16)
O4 O 0.3294(3) 0.7332(2) -1.00110(16)
N1 N 0.6209(4) 0.1350(3) -0.5653(2)
N2 N 0.3142(4) 0.3399(3) -0.4889(2)
N3 N 0.6892(4) 0.5247(3) -0.34062(19)
N4 N 0.3333(4) 0.8721(3) -0.66098(18)
C1 C 0.6689(4) 0.2276(3) -0.5720(2)
C2 C 0.2671(4) 0.2486(3) -0.4798(2)
C3 C 0.8785(5) 0.5489(3) -0.3200(2)
H2 H 0.9340 0.5567 -0.3689
C4 C 0.9957(5) 0.5628(3) -0.2290(3)
H3 H 1.1268 0.5798 -0.2174
C5 C 0.9150(5) 0.5515(3) -0.1558(2)
H4 H 0.9906 0.5596 -0.0943
C6 C 0.7180(4) 0.5275(3) -0.1758(2)
C7 C 0.6114(4) 0.5145(3) -0.2689(2)
H5 H 0.4800 0.4980 -0.2823
C8 C 0.6239(5) 0.5159(3) -0.0988(2)
C9 C 0.1501(5) 0.8258(3) -0.6826(2)
H6 H 0.0930 0.8336 -0.6310
C10 C 0.0420(5) 0.7666(3) -0.7774(3)
H7 H -0.0857 0.7363 -0.7894
C11 C 0.1262(5) 0.7524(3) -0.8549(2)
H8 H 0.0559 0.7136 -0.9199
C12 C 0.3185(4) 0.7981(3) -0.8332(2)
C13 C 0.4152(4) 0.8576(3) -0.7356(2)
H9 H 0.5431 0.8888 -0.7211
C14 C 0.4148(4) 0.7834(3) -0.9154(2)
H13 H 0.4044 0.4734 -0.0805
H14 H 0.6499 0.8166 -0.9352
S1A S 0.26017(15) 0.64175(8) -0.41662(8)
C1A C 0.3311(4) 0.7724(3) -0.4280(2)
N1A N 0.3791(4) 0.8650(3) -0.4347(2)
Cd2_2 Cd 0.5000 0.0000 -0.5000
S2A S 0.80581(11) 0.88346(7) -0.52977(6)
C2A C 0.7329(4) 0.7514(3) -0.5202(2)
N2A N 0.6858(4) 0.6601(3) -0.5111(2)
N3A N 0.3108(4) 0.4753(3) -0.65938(19)
C3A C 0.1215(5) 0.4511(3) -0.6800(2)
H2A H 0.0660 0.4433 -0.6311
C4A C 0.0043(5) 0.4372(3) -0.7710(3)
H3A H -0.1268 0.4202 -0.7826
C5A C 0.0850(5) 0.4485(3) -0.8442(2)
H4A H 0.0094 0.4404 -0.9057
C6A C 0.2820(4) 0.4725(3) -0.8242(2)
C7A C 0.3886(4) 0.4855(3) -0.7311(2)
H5A H 0.5200 0.5020 -0.7177
C8A C 0.3761(5) 0.4841(3) -0.9012(2)
O1A O 0.5556(3) 0.5193(3) -0.87281(17)
H13A H 0.5956 0.5266 -0.9195
O2A O 0.2784(3) 0.4626(2) -0.98654(16)
S2_2 S 0.19419(11) 1.11654(7) -0.47023(6)
N1_2 N 0.6209(4) 1.1350(3) -0.5653(2)
N4A N 0.6667(4) 1.1279(3) -0.33902(18)
C9A C 0.8499(5) 1.1742(3) -0.3174(2)
H6A H 0.9070 1.1664 -0.3690
C10A C 0.9580(5) 1.2334(3) -0.2226(3)
H7A H 1.0857 1.2637 -0.2106
C11A C 0.8738(5) 1.2476(3) -0.1451(2)
H8A H 0.9441 1.2864 -0.0801
C12A C 0.6815(4) 1.2019(3) -0.1668(2)
C13A C 0.5848(4) 1.1424(3) -0.2644(2)
H9A H 0.4569 1.1112 -0.2789
C14A C 0.5852(4) 1.2166(3) -0.0846(2)
O3A O 0.4049(3) 1.1700(2) -0.11575(16)
H14A H 0.3501 1.1834 -0.0648
O4A O 0.6706(3) 1.2668(2) 0.00110(16)
O5 O 0.4264(4) 0.1058(3) 0.1130(2)
H1 H 0.5019 0.1159 0.0790
O6 O 0.2261(4) 0.1720(3) 0.01116(19)
N5 N -0.2024(4) 0.1183(3) 0.1363(2)
C15 C -0.1673(5) 0.1010(3) 0.2228(2)
H10 H -0.2666 0.0914 0.2510
C16 C 0.0141(5) 0.0972(4) 0.2700(2)
C17 C 0.1597(5) 0.1089(3) 0.2260(2)
H11 H 0.2832 0.1055 0.2570
C18 C 0.1220(4) 0.1252(3) 0.1356(2)
C19 C -0.0617(4) 0.1306(3) 0.0931(2)
H12 H -0.0898 0.1430 0.0331
C20 C 0.2742(4) 0.1374(3) 0.0827(2)
H15 H 0.0541 0.0938 0.3381
loop_
_geom_bond_atom_site_label_1
_geom_bond_atom_site_label_2
_geom_bond_site_symmetry_1
_geom_bond_site_symmetry_2
Cd1 S1 1_555 1_555
Cd2 N4 1_555 1_555
S1 C1 1_555 1_555
S2 C2 1_555 1_555
O1 C8 1_555 1_555
O2 C8 1_555 1_555
O3 C14 1_555 1_555
O4 C14 1_555 1_555
O5 H1 1_555 1_555
O6 C20 1_555 1_555
N1 C1 1_555 1_555
N2 Cd1 1_555 1_555
N3 Cd1 1_555 1_555
N4 C9 1_555 1_555
N5 C15 1_555 1_555
C2 N2 1_555 1_555
C3 N3 1_555 1_555
H2 C3 1_555 1_555
C4 C3 1_555 1_555
H3 C4 1_555 1_555
C5 C4 1_555 1_555
H4 C5 1_555 1_555
C6 C5 1_555 1_555
C7 N3 1_555 1_555
H5 C7 1_555 1_555
C8 C6 1_555 1_555
C9 H6 1_555 1_555
C10 C9 1_555 1_555
H7 C10 1_555 1_555
C11 C10 1_555 1_555
H8 C11 1_555 1_555
C12 C11 1_555 1_555
C13 N4 1_555 1_555
H9 C13 1_555 1_555
C14 C12 1_555 1_555
C15 H10 1_555 1_555
C16 C15 1_555 1_555
C17 C16 1_555 1_555
H11 C17 1_555 1_555
C18 C17 1_555 1_555
C19 N5 1_555 1_555
H12 C19 1_555 1_555
C20 O5 1_555 1_555
H13 O1 1_555 1_555
H14 O3 1_555 1_555
H15 C16 1_555 1_555
S1A Cd1 1_555 1_555
C1A S1A 1_555 1_555
N1A Cd2 1_555 1_555
Cd2_2 S2 1_555 1_555
S2A Cd2 1_555 1_555
C2A S2A 1_555 1_555
N2A Cd1 1_555 1_555
N3A Cd1 1_555 1_555
C3A N3A 1_555 1_555
H2A C3A 1_555 1_555
C4A C3A 1_555 1_555
H3A C4A 1_555 1_555
C5A C4A 1_555 1_555
H4A C5A 1_555 1_555
C6A C5A 1_555 1_555
C7A N3A 1_555 1_555
H5A C7A 1_555 1_555
C8A C6A 1_555 1_555
O1A C8A 1_555 1_555
H13A O1A 1_555 1_555
O2A C8A 1_555 1_555
S2_2 Cd2 1_555 1_555
N1_2 Cd2 1_555 1_555
N4A Cd2 1_555 1_555
C9A N4A 1_555 1_555
H6A C9A 1_555 1_555
C10A C9A 1_555 1_555
H7A C10A 1_555 1_555
C11A C10A 1_555 1_555
H8A C11A 1_555 1_555
C12A C11A 1_555 1_555
C13A N4A 1_555 1_555
H9A C13A 1_555 1_555
C14A C12A 1_555 1_555
O3A C14A 1_555 1_555
H14A O3A 1_555 1_555
O4A C14A 1_555 1_555
N1 Cd2_2 1_555 1_555
C6 C7 1_555 1_555
C12 C13 1_555 1_555
C18 C20 1_555 1_555
C18 C19 1_555 1_555
C1A N1A 1_555 1_555
C2A N2A 1_555 1_555
C6A C7A 1_555 1_555
C12A C13A 1_555 1_555

#END
