
#######################################################################
#
#                 Cambridge Crystallographic Data Centre
#                                CCDC 
#
#######################################################################
#
# If this CIF has been generated from an entry in the Cambridge 
# Structural Database, then it will include bibliographic, chemical, 
# crystal, experimental, refinement or atomic coordinate data resulting 
# from the CCDC's data processing and validation procedures.
#
#######################################################################

data_QIFLOI
_symmetry_cell_setting           tetragonal
_symmetry_space_group_name_H-M   'I 4/m'
_symmetry_Int_Tables_number      87
_space_group_name_Hall           '-I 4'
loop_
_symmetry_equiv_pos_site_id
_symmetry_equiv_pos_as_xyz
1 x,y,z
2 -x,-y,z
3 -y,x,z
4 y,-x,z
5 1/2+x,1/2+y,1/2+z
6 1/2-x,1/2-y,1/2+z
7 1/2-y,1/2+x,1/2+z
8 1/2+y,1/2-x,1/2+z
9 -x,-y,-z
10 x,y,-z
11 y,-x,-z
12 -y,x,-z
13 1/2-x,1/2-y,1/2-z
14 1/2+x,1/2+y,1/2-z
15 1/2+y,1/2-x,1/2-z
16 1/2-y,1/2+x,1/2-z
_cell_length_a                   13.2828(5)
_cell_length_b                   13.2828(5)
_cell_length_c                   26.6491(10)
_cell_angle_alpha                90
_cell_angle_beta                 90
_cell_angle_gamma                90
_cell_volume                     4701.77
loop_
_atom_site_label
_atom_site_type_symbol
_atom_site_fract_x
_atom_site_fract_y
_atom_site_fract_z
Zn1 Zn 0.32896(4) 0.77722(4) 0.304855(16)
C1 C 0.3122(4) 0.8107(4) 0.40695(18)
C2 C 0.2814(4) 0.8625(4) 0.45472(18)
C3 C 0.2360(7) 0.9558(5) 0.4548(2)
H1 H 0.2259 0.9898 0.4248
C4 C 0.2049(9) 0.9993(9) 0.5000
H2 H 0.1643 1.0563 0.5000
C5 C 0.3056(6) 0.8173(6) 0.5000
H3 H 0.3386 0.7556 0.5000
C6 C 0.5237(3) 0.7867(4) 0.24312(16)
C7 C 0.5562(3) 0.7336(4) 0.31723(19)
N1 N 0.6217(3) 0.7716(3) 0.24477(14)
N2 N 0.6430(3) 0.7369(3) 0.29369(14)
N3 N 0.4781(3) 0.7662(3) 0.28804(14)
N4 N 0.4742(4) 0.8183(7) 0.20238(17)
H4 H 0.5064 0.8300 0.1750
H5 H 0.4100 0.8268 0.2035
N5 N 0.5433(4) 0.7057(6) 0.3650(2)
H6 H 0.5944 0.6881 0.3828
H7 H 0.4840 0.7054 0.3779
O1 O 0.2960(3) 0.8563(3) 0.36546(13)
O2 O 0.3498(3) 0.7262(3) 0.40918(13)
C1I C 0.3122(4) 0.8107(4) 0.59305(18)
C2I C 0.2814(4) 0.8625(4) 0.54528(18)
C3I C 0.2360(7) 0.9558(5) 0.5452(2)
H1I H 0.2259 0.9898 0.5752
O1I O 0.2960(3) 0.8563(3) 0.63454(13)
O2I O 0.3498(3) 0.7262(3) 0.59082(13)
Zn1B Zn 0.22278(4) 0.32896(4) 0.304855(16)
C6B C 0.2133(4) 0.5237(3) 0.24312(16)
C7B C 0.2664(4) 0.5562(3) 0.31723(19)
N1B N 0.2284(3) 0.6217(3) 0.24477(14)
N2B N 0.2631(3) 0.6430(3) 0.29369(14)
N3B N 0.2338(3) 0.4781(3) 0.28804(14)
N4B N 0.1817(7) 0.4742(4) 0.20238(17)
H4B H 0.1700 0.5064 0.1750
H5B H 0.1732 0.4100 0.2035
N5B N 0.2943(6) 0.5433(4) 0.3650(2)
H6B H 0.3119 0.5944 0.3828
H7B H 0.2946 0.4840 0.3779
Zn1C Zn 0.77722(4) 0.67104(4) 0.304855(16)
Zn1I Zn 0.32896(4) 0.77722(4) 0.695145(16)
Zn1L Zn 0.17104(4) 0.72278(4) 0.195145(16)
Zn1O Zn 0.72278(4) 0.82896(4) 0.195145(16)
N1M N 0.1217(3) 0.2716(3) 0.25523(14)
N1N N 0.2716(3) 0.8783(3) 0.25523(14)
N2A N 0.3570(3) 0.2631(3) 0.29369(14)
O1B O 0.1437(3) 0.2960(3) 0.36546(13)
loop_
_geom_bond_atom_site_label_1
_geom_bond_atom_site_label_2
_geom_bond_site_symmetry_1
_geom_bond_site_symmetry_2
Zn1 N3 1_555 1_555
C1 C2 1_555 1_555
C2 C3 1_555 1_555
C3 H1 1_555 1_555
C4 C3 1_555 1_555
H2 C4 1_555 1_555
C5 C2 1_555 1_555
H3 C5 1_555 1_555
C6 N1 1_555 1_555
C7 N2 1_555 1_555
N1 N2 1_555 1_555
N2 Zn1C 1_555 1_555
N3 C6 1_555 1_555
N4 C6 1_555 1_555
H4 N4 1_555 1_555
H5 N4 1_555 1_555
N5 C7 1_555 1_555
H6 N5 1_555 1_555
H7 N5 1_555 1_555
O1 Zn1 1_555 1_555
O2 C1 1_555 1_555
C1I C2I 1_555 1_555
C2I C5 1_555 1_555
C3I C4 1_555 1_555
H1I C3I 1_555 1_555
O1I C1I 1_555 1_555
O2I C1I 1_555 1_555
Zn1B N3B 1_555 1_555
C6B N1B 1_555 1_555
C7B N2B 1_555 1_555
N1B N2B 1_555 1_555
N2B Zn1 1_555 1_555
N3B C6B 1_555 1_555
N4B C6B 1_555 1_555
H4B N4B 1_555 1_555
H5B N4B 1_555 1_555
N5B C7B 1_555 1_555
H6B N5B 1_555 1_555
H7B N5B 1_555 1_555
Zn1I O1I 1_555 1_555
Zn1L N1B 1_555 1_555
Zn1O N1 1_555 1_555
N1M Zn1B 1_555 1_555
N1N Zn1 1_555 1_555
N2A Zn1B 1_555 1_555
O1B Zn1B 1_555 1_555
C1 O1 1_555 1_555
C7 N3 1_555 1_555
C2I C3I 1_555 1_555
C7B N3B 1_555 1_555

#END
