
#######################################################################
#
#                 Cambridge Crystallographic Data Centre
#                                CCDC 
#
#######################################################################
#
# If this CIF has been generated from an entry in the Cambridge 
# Structural Database, then it will include bibliographic, chemical, 
# crystal, experimental, refinement or atomic coordinate data resulting 
# from the CCDC's data processing and validation procedures.
#
#######################################################################

data_QIFMAT
_symmetry_cell_setting           monoclinic
_symmetry_space_group_name_H-M   'C 2/c'
_symmetry_Int_Tables_number      15
_space_group_name_Hall           '-C 2yn'
loop_
_symmetry_equiv_pos_site_id
_symmetry_equiv_pos_as_xyz
1 x,y,z
2 1/2+x,1/2+y,z
3 x,-y,1/2+z
4 1/2+x,1/2-y,1/2+z
5 -x,-y,-z
6 1/2-x,1/2-y,-z
7 -x,y,1/2-z
8 1/2-x,1/2+y,1/2-z
_cell_length_a                   24.290(12)
_cell_length_b                   9.863(4)
_cell_length_c                   7.617(3)
_cell_angle_alpha                90
_cell_angle_beta                 92.67
_cell_angle_gamma                90
_cell_volume                     1822.84
loop_
_atom_site_label
_atom_site_type_symbol
_atom_site_fract_x
_atom_site_fract_y
_atom_site_fract_z
Cd1 Cd 0.2500 0.2500 0.0000
S1 S 0.31536(5) 0.20530(12) 0.30118(15)
C1 C 0.28275(15) 0.0727(4) 0.3769(5)
N1 N 0.26086(16) 0.0221(3) -0.0701(5)
N2 N 0.16960(13) 0.1970(4) 0.1454(4)
C2 C 0.15309(17) 0.0681(4) 0.1521(5)
H1 H 0.1749 -0.0001 0.0984
C3 C 0.10605(18) 0.0291(4) 0.2337(6)
H2 H 0.0957 -0.0648 0.2377
C4 C 0.07458(17) 0.1264(4) 0.3109(5)
H3 H 0.0417 0.1015 0.3680
C5 C 0.09102(15) 0.2615(4) 0.3056(5)
C6 C 0.13881(16) 0.2912(4) 0.2223(5)
H4 H 0.1504 0.3841 0.2177
C7 C 0.05604(17) 0.3657(5) 0.3906(5)
O1 O 0.01579(13) 0.3292(3) 0.4717(5)
N3 N 0.06868(15) 0.4954(4) 0.3763(5)
H5 H 0.1006 0.5275 0.3309
H6 H 0.0470 0.5632 0.4198
S1E S 0.18464(5) 0.29470(12) -0.30118(15)
N1E N 0.23914(16) 0.4779(3) 0.0701(5)
N2E N 0.33040(13) 0.3030(4) -0.1454(4)
N1B N 0.26086(16) -0.0221(3) 0.4299(5)
C1B C 0.28275(15) -0.0727(4) -0.1231(5)
Cd1B Cd 0.2500 -0.2500 0.5000
S1B S 0.31536(5) -0.20530(12) -0.19882(15)
C2E C 0.34691(17) 0.4319(4) -0.1521(5)
C6E C 0.36119(16) 0.2088(4) -0.2223(5)
Cd1B_2 Cd 0.2500 -0.2500 -0.5000
C5E C 0.40898(15) 0.2385(4) -0.3056(5)
H4E H 0.3496 0.1159 -0.2177
H1E H 0.3251 0.5001 -0.0984
C3E C 0.39395(18) 0.4709(4) -0.2337(6)
C4E C 0.42542(17) 0.3736(4) -0.3109(5)
C7E C 0.44396(17) 0.1343(5) -0.3906(5)
H2E H 0.4043 0.5648 -0.2377
H3E H 0.4583 0.3985 -0.3680
O1E O 0.48421(13) 0.1708(3) -0.4717(5)
N3E N 0.43132(15) 0.0046(4) -0.3763(5)
H5E H 0.3994 -0.0275 -0.3309
H6E H 0.4530 -0.0632 -0.4198
O2 O 0.0000 0.1555(8) 0.7500
H7 H -0.0059 0.2064 0.8534
H7F H 0.0059 0.2064 0.6466
loop_
_geom_bond_atom_site_label_1
_geom_bond_atom_site_label_2
_geom_bond_site_symmetry_1
_geom_bond_site_symmetry_2
Cd1 S1 1_555 1_555
S1 C1 1_555 1_555
C1 N1B 1_555 1_555
N1 Cd1 1_555 1_555
N2 Cd1 1_555 1_555
C2 N2 1_555 1_555
H1 C2 1_555 1_555
C3 C2 1_555 1_555
H2 C3 1_555 1_555
C4 C3 1_555 1_555
H3 C4 1_555 1_555
C5 C4 1_555 1_555
C6 N2 1_555 1_555
H4 C6 1_555 1_555
C7 C5 1_555 1_555
O1 C7 1_555 1_555
N3 C7 1_555 1_555
H5 N3 1_555 1_555
H6 N3 1_555 1_555
O2 H7 1_555 1_555
S1E Cd1 1_555 1_555
N1E Cd1 1_555 1_555
N2E Cd1 1_555 1_555
N1B Cd1B 1_555 1_555
C1B N1 1_555 1_555
H7F O2 1_555 1_555
S1B C1B 1_555 1_555
C2E N2E 1_555 1_555
C6E N2E 1_555 1_555
Cd1B_2 S1B 1_555 1_555
C5E C6E 1_555 1_555
H4E C6E 1_555 1_555
H1E C2E 1_555 1_555
C3E C2E 1_555 1_555
C4E C5E 1_555 1_555
C7E C5E 1_555 1_555
H2E C3E 1_555 1_555
H3E C4E 1_555 1_555
O1E C7E 1_555 1_555
N3E C7E 1_555 1_555
H5E N3E 1_555 1_555
H6E N3E 1_555 1_555
C5 C6 1_555 1_555
C3E C4E 1_555 1_555

#END
