
#######################################################################
#
#                 Cambridge Crystallographic Data Centre
#                                CCDC 
#
#######################################################################
#
# If this CIF has been generated from an entry in the Cambridge 
# Structural Database, then it will include bibliographic, chemical, 
# crystal, experimental, refinement or atomic coordinate data resulting 
# from the CCDC's data processing and validation procedures.
#
#######################################################################

data_QIFMUN01
_symmetry_cell_setting           orthorhombic
_symmetry_space_group_name_H-M   'P n m a'
_symmetry_Int_Tables_number      62
_space_group_name_Hall           '-P 2ac 2n'
loop_
_symmetry_equiv_pos_site_id
_symmetry_equiv_pos_as_xyz
1 x,y,z
2 1/2-x,-y,1/2+z
3 1/2+x,1/2-y,1/2-z
4 -x,1/2+y,-z
5 -x,-y,-z
6 1/2+x,y,1/2-z
7 1/2-x,1/2+y,1/2+z
8 x,1/2-y,z
_cell_length_a                   19.8107(11)
_cell_length_b                   6.4877(3)
_cell_length_c                   11.3257(6)
_cell_angle_alpha                90
_cell_angle_beta                 90
_cell_angle_gamma                90
_cell_volume                     1455.65
loop_
_atom_site_label
_atom_site_type_symbol
_atom_site_fract_x
_atom_site_fract_y
_atom_site_fract_z
Ag1 Ag 0.425226(10) 0.2500 0.638361(18)
O1 O 0.54862(12) 0.2500 0.6362(2)
H1 H 0.5643(11) 0.352(4) 0.606(2)
O2 O 0.38093(7) 0.4203(2) 0.45173(12)
N1 N 0.42059(7) 0.5604(3) 0.75114(14)
N2 N 0.23019(13) 0.2500 -0.0371(2)
H2 H 0.2075(11) 0.358(3) -0.0497(19)
N3 N 0.47738(11) 0.7500 0.9101(2)
N4 N 0.35383(11) 0.7500 0.8979(2)
C1 C 0.26785(13) 0.2500 0.0657(2)
C2 C 0.28812(9) 0.4347(3) 0.11800(16)
H3 H 0.2781 0.5594 0.0814
C3 C 0.32294(9) 0.4339(3) 0.22365(16)
H4 H 0.3357 0.5585 0.2576
C4 C 0.33924(13) 0.2500 0.2803(2)
C5 C 0.36952(13) 0.2500 0.4018(2)
C6 C 0.35759(9) 0.5670(3) 0.82288(17)
H5 H 0.3189 0.5649 0.7704
H6 H 0.3554 0.4448 0.8721
C7 C 0.47854(9) 0.5664(3) 0.83436(16)
H7 H 0.4776 0.4440 0.8836
H8 H 0.5203 0.5647 0.7897
C8 C 0.41317(12) 0.7500 0.9761(2)
H9 H 0.4115 0.6292 1.0264
C9 C 0.42303(13) 0.7500 0.6783(2)
H10 H 0.4642 0.7500 0.6321
H11 H 0.3852 0.7500 0.6240
Ag1_2 Ag 0.425226(10) 1.2500 0.638361(18)
H1G H 0.5643(11) 0.148(4) 0.606(2)
O2G O 0.38093(7) 0.0797(2) 0.45173(12)
N1G N 0.42059(7) 0.9396(3) 0.75114(14)
N1G_2 N 0.42059(7) -0.0604(3) 0.75114(14)
H2G H 0.2075(11) 0.142(3) -0.0497(19)
C2G C 0.28812(9) 0.0653(3) 0.11800(16)
H3G H 0.2781 -0.0594 0.0814
C3G C 0.32294(9) 0.0661(3) 0.22365(16)
H4G H 0.3357 -0.0585 0.2576
C6G C 0.35759(9) 0.9330(3) 0.82288(17)
H5G H 0.3189 0.9351 0.7704
H6G H 0.3554 1.0552 0.8721
C7G C 0.47854(9) 0.9336(3) 0.83436(16)
H7G H 0.4776 1.0560 0.8836
H8G H 0.5203 0.9353 0.7897
H9G H 0.4115 0.8708 1.0264
loop_
_geom_bond_atom_site_label_1
_geom_bond_atom_site_label_2
_geom_bond_site_symmetry_1
_geom_bond_site_symmetry_2
Ag1 O1 1_555 1_555
O1 H1 1_555 1_555
O2 Ag1 1_555 1_555
N1 Ag1 1_555 1_555
N2 H2 1_555 1_555
N3 C7 1_555 1_555
N4 C6 1_555 1_555
C1 N2 1_555 1_555
C2 C1 1_555 1_555
H3 C2 1_555 1_555
C3 C2 1_555 1_555
H4 C3 1_555 1_555
C4 C3 1_555 1_555
C5 O2 1_555 1_555
C6 N1 1_555 1_555
H5 C6 1_555 1_555
H6 C6 1_555 1_555
C7 N1 1_555 1_555
H7 C7 1_555 1_555
H8 C7 1_555 1_555
C8 N3 1_555 1_555
H9 C8 1_555 1_555
C9 N1 1_555 1_555
H10 C9 1_555 1_555
H11 C9 1_555 1_555
Ag1_2 N1G 1_555 1_555
H1G O1 1_555 1_555
O2G Ag1 1_555 1_555
N1G C9 1_555 1_555
N1G_2 Ag1 1_555 1_555
H2G N2 1_555 1_555
C2G C1 1_555 1_555
H3G C2G 1_555 1_555
C3G C4 1_555 1_555
H4G C3G 1_555 1_555
C6G N4 1_555 1_555
H5G C6G 1_555 1_555
H6G C6G 1_555 1_555
C7G N3 1_555 1_555
H7G C7G 1_555 1_555
H8G C7G 1_555 1_555
H9G C8 1_555 1_555
N4 C8 1_555 1_555
C4 C5 1_555 1_555
C5 O2G 1_555 1_555
N1G C6G 1_555 1_555
N1G C7G 1_555 1_555
C2G C3G 1_555 1_555

#END
