
#######################################################################
#
#                 Cambridge Crystallographic Data Centre
#                                CCDC 
#
#######################################################################
#
# If this CIF has been generated from an entry in the Cambridge 
# Structural Database, then it will include bibliographic, chemical, 
# crystal, experimental, refinement or atomic coordinate data resulting 
# from the CCDC's data processing and validation procedures.
#
#######################################################################

data_QIFMOJ
_symmetry_cell_setting           orthorhombic
_symmetry_space_group_name_H-M   'P b c a'
_symmetry_Int_Tables_number      61
_space_group_name_Hall           '-P 2ac 2ab'
loop_
_symmetry_equiv_pos_site_id
_symmetry_equiv_pos_as_xyz
1 x,y,z
2 1/2-x,-y,1/2+z
3 -x,1/2+y,1/2-z
4 1/2+x,1/2-y,-z
5 -x,-y,-z
6 1/2+x,y,1/2-z
7 x,1/2-y,1/2+z
8 1/2-x,1/2+y,z
_cell_length_a                   13.815(3)
_cell_length_b                   20.767(4)
_cell_length_c                   41.214(8)
_cell_angle_alpha                90
_cell_angle_beta                 90
_cell_angle_gamma                90
_cell_volume                     11824.1
loop_
_atom_site_label
_atom_site_type_symbol
_atom_site_fract_x
_atom_site_fract_y
_atom_site_fract_z
Ag1 Ag 0.64224(3) 0.419068(18) 0.735326(10)
P1 P 0.72453(9) 0.43254(6) 0.78747(3)
P2 P 1.06600(9) 0.32476(6) 0.78863(3)
S1 S 0.61149(13) 0.52707(7) 0.70857(5)
N1 N 0.8564(4) 0.4367(3) 0.71582(15)
N2 N 0.8988(3) 0.3853(2) 0.76589(11)
N3 N 0.4958(4) 0.5006(3) 0.65408(14)
C1 C 0.8989(4) 0.3842(3) 0.73253(15)
C2 C 0.9387(4) 0.3346(3) 0.71776(18)
H1 H 0.9674 0.3011 0.7297
C3 C 0.9372(6) 0.3333(6) 0.6851(3)
H2 H 0.9658 0.2982 0.6744
C4 C 0.8961(7) 0.3805(8) 0.6668(2)
H3 H 0.8949 0.3774 0.6441
C5 C 0.8572(5) 0.4315(5) 0.68193(19)
H4 H 0.8297 0.4647 0.6694
C6 C 0.8587(3) 0.4396(2) 0.78351(13)
H5 H 0.8747 0.4795 0.7721
H6 H 0.8879 0.4416 0.8052
C7 C 0.9316(3) 0.3297(3) 0.78377(15)
H7 H 0.9090 0.2908 0.7726
H8 H 0.9018 0.3303 0.8053
C8 C 0.7207(3) 0.3663(2) 0.81653(12)
C9 C 0.6943(4) 0.3059(3) 0.80540(15)
H9 H 0.6673 0.3010 0.7846
C10 C 0.7080(5) 0.2523(3) 0.82527(18)
H10 H 0.6902 0.2113 0.8178
C11 C 0.7470(4) 0.2590(3) 0.85565(16)
H11 H 0.7579 0.2224 0.8686
C12 C 0.7702(4) 0.3188(3) 0.86722(14)
H12 H 0.7945 0.3233 0.8884
C13 C 0.7582(4) 0.3729(3) 0.84781(14)
H13 H 0.7751 0.4138 0.8557
C14 C 0.6886(3) 0.5033(2) 0.81046(13)
C15 C 0.7488(4) 0.5340(2) 0.83261(14)
H14 H 0.8132 0.5204 0.8352
C16 C 0.7131(5) 0.5849(3) 0.85088(15)
H15 H 0.7533 0.6048 0.8663
C17 C 0.6201(5) 0.6065(3) 0.84674(17)
H16 H 0.5968 0.6411 0.8592
C18 C 0.5608(4) 0.5772(3) 0.82407(17)
H17 H 0.4969 0.5918 0.8212
C19 C 0.5957(4) 0.5262(3) 0.80560(15)
H18 H 0.5561 0.5071 0.7898
C20 C 1.1056(4) 0.2463(2) 0.77353(13)
C21 C 1.2033(4) 0.2316(3) 0.77929(18)
H19 H 1.2423 0.2607 0.7908
C22 C 1.2425(5) 0.1745(3) 0.7681(2)
H20 H 1.3080 0.1651 0.7721
C23 C 1.1858(6) 0.1309(3) 0.7509(2)
H21 H 1.2124 0.0919 0.7435
C24 C 1.0904(6) 0.1454(4) 0.7450(2)
H22 H 1.0515 0.1164 0.7333
C25 C 1.0516(5) 0.2029(3) 0.7563(2)
H23 H 0.9863 0.2122 0.7521
C26 C 1.0787(3) 0.3131(2) 0.83241(13)
C27 C 1.1267(4) 0.3584(3) 0.85056(16)
H24 H 1.1536 0.3949 0.8405
C28 C 1.1354(5) 0.3498(3) 0.88407(17)
H25 H 1.1694 0.3804 0.8964
C29 C 1.0956(4) 0.2977(3) 0.89909(16)
H26 H 1.1009 0.2927 0.9217
C30 C 1.0472(5) 0.2525(3) 0.88072(17)
H27 H 1.0198 0.2162 0.8908
C31 C 1.0390(5) 0.2602(3) 0.84763(15)
H28 H 1.0061 0.2291 0.8353
C32 C 0.5445(4) 0.5107(3) 0.67635(17)
Ag1E Ag 1.14224(3) 0.419068(18) 0.764674(10)
P2E P 0.56600(9) 0.32476(6) 0.71137(3)
Ag2 Ag 0.40634(3) 0.243445(18) 0.491052(10)
P3 P 0.80568(9) 0.16017(6) 0.50582(3)
P4 P 0.50486(9) 0.21454(6) 0.44388(3)
S2 S 0.45577(10) 0.17436(8) 0.53906(4)
N4 N 0.6679(3) 0.24360(18) 0.48131(10)
N5 N 0.2928(4) 0.1645(3) 0.57948(13)
N6 N 0.7259(3) 0.3103(2) 0.52128(11)
C33 C 0.6737(3) 0.3046(2) 0.49386(12)
C34 C 0.6278(4) 0.3574(2) 0.48016(15)
H29 H 0.5929 0.3527 0.4607
C35 C 0.6332(4) 0.4161(3) 0.49486(18)
H30 H 0.6009 0.4518 0.4860
C36 C 0.6873(4) 0.4226(3) 0.52319(17)
H31 H 0.6927 0.4626 0.5337
C37 C 0.7320(4) 0.3691(3) 0.53518(15)
H32 H 0.7692 0.3733 0.5542
C38 C 0.6794(3) 0.1886(2) 0.50268(13)
H33 H 0.6388 0.1533 0.4947
H34 H 0.6562 0.2003 0.5244
C39 C 0.6375(3) 0.2326(2) 0.44831(12)
H35 H 0.6746 0.1965 0.4394
H36 H 0.6529 0.2709 0.4354
C40 C 0.8011(3) 0.1084(2) 0.54159(12)
C41 C 0.7173(4) 0.0912(3) 0.55792(17)
H37 H 0.6569 0.1038 0.5496
C42 C 0.7210(5) 0.0556(3) 0.58630(18)
H38 H 0.6634 0.0446 0.5971
C43 C 0.8087(5) 0.0364(3) 0.59880(17)
H39 H 0.8114 0.0123 0.6181
C44 C 0.8915(4) 0.0525(3) 0.58290(17)
H40 H 0.9516 0.0396 0.5913
C45 C 0.8881(4) 0.0876(3) 0.55458(15)
H41 H 0.9462 0.0977 0.5438
C46 C 0.8204(3) 0.1059(2) 0.47161(13)
C47 C 0.7583(4) 0.0542(3) 0.46554(16)
H42 H 0.7054 0.0468 0.4794
C48 C 0.7736(5) 0.0139(3) 0.43952(18)
H43 H 0.7321 -0.0214 0.4362
C49 C 0.8497(5) 0.0247(3) 0.41800(16)
H44 H 0.8597 -0.0024 0.4001
C50 C 0.9097(5) 0.0760(4) 0.42372(17)
H45 H 0.9611 0.0841 0.4093
C51 C 0.8966(4) 0.1161(3) 0.45010(16)
H46 H 0.9394 0.1506 0.4535
C52 C 0.4654(4) 0.2565(2) 0.40727(12)
C53 C 0.3677(4) 0.2540(3) 0.39993(16)
H47 H 0.3263 0.2288 0.4128
C54 C 0.3298(5) 0.2879(4) 0.37395(19)
H48 H 0.2631 0.2862 0.3696
C55 C 0.3903(5) 0.3243(3) 0.35446(17)
H49 H 0.3655 0.3466 0.3364
C56 C 0.4856(5) 0.3273(3) 0.36176(17)
H50 H 0.5266 0.3530 0.3490
C57 C 0.5243(4) 0.2935(3) 0.38759(15)
H51 H 0.5911 0.2957 0.3918
C58 C 0.5083(3) 0.1296(2) 0.43281(13)
C59 C 0.5445(4) 0.1091(3) 0.40283(14)
H52 H 0.5627 0.1397 0.3872
C60 C 0.5537(4) 0.0441(3) 0.39605(16)
H53 H 0.5772 0.0307 0.3757
C61 C 0.5287(4) -0.0010(3) 0.41894(19)
H54 H 0.5359 -0.0451 0.4144
C62 C 0.4924(4) 0.0188(3) 0.44891(17)
H55 H 0.4748 -0.0120 0.4646
C63 C 0.4823(4) 0.0831(3) 0.45556(15)
H56 H 0.4576 0.0960 0.4758
C64 C 0.3591(4) 0.1696(2) 0.56280(13)
Ag2C Ag 0.90634(3) 0.256555(18) 0.508948(10)
P3C P 0.30568(9) 0.33983(6) 0.49418(3)
loop_
_geom_bond_atom_site_label_1
_geom_bond_atom_site_label_2
_geom_bond_site_symmetry_1
_geom_bond_site_symmetry_2
Ag1 P1 1_555 1_555
P1 C6 1_555 1_555
P2 C7 1_555 1_555
S1 Ag1 1_555 1_555
N1 C1 1_555 1_555
N2 C1 1_555 1_555
N3 C32 1_555 1_555
C1 C2 1_555 1_555
C2 H1 1_555 1_555
C3 C2 1_555 1_555
H2 C3 1_555 1_555
C4 C3 1_555 1_555
H3 C4 1_555 1_555
C5 N1 1_555 1_555
H4 C5 1_555 1_555
C6 N2 1_555 1_555
H5 C6 1_555 1_555
H6 C6 1_555 1_555
C7 N2 1_555 1_555
H7 C7 1_555 1_555
H8 C7 1_555 1_555
C8 P1 1_555 1_555
C9 C8 1_555 1_555
H9 C9 1_555 1_555
C10 C9 1_555 1_555
H10 C10 1_555 1_555
C11 C10 1_555 1_555
H11 C11 1_555 1_555
C12 C11 1_555 1_555
H12 C12 1_555 1_555
C13 C8 1_555 1_555
H13 C13 1_555 1_555
C14 P1 1_555 1_555
C15 C14 1_555 1_555
H14 C15 1_555 1_555
C16 C15 1_555 1_555
H15 C16 1_555 1_555
C17 C16 1_555 1_555
H16 C17 1_555 1_555
C18 C17 1_555 1_555
H17 C18 1_555 1_555
C19 C14 1_555 1_555
H18 C19 1_555 1_555
C20 P2 1_555 1_555
C21 C20 1_555 1_555
H19 C21 1_555 1_555
C22 C21 1_555 1_555
H20 C22 1_555 1_555
C23 C22 1_555 1_555
H21 C23 1_555 1_555
C24 C23 1_555 1_555
H22 C24 1_555 1_555
C25 C20 1_555 1_555
H23 C25 1_555 1_555
C26 P2 1_555 1_555
C27 C26 1_555 1_555
H24 C27 1_555 1_555
C28 C27 1_555 1_555
H25 C28 1_555 1_555
C29 C28 1_555 1_555
H26 C29 1_555 1_555
C30 C29 1_555 1_555
H27 C30 1_555 1_555
C31 C26 1_555 1_555
H28 C31 1_555 1_555
C32 S1 1_555 1_555
Ag2 P4 1_555 1_555
P3 C38 1_555 1_555
P4 C39 1_555 1_555
S2 Ag2 1_555 1_555
N4 C33 1_555 1_555
N5 C64 1_555 1_555
N6 C33 1_555 1_555
C33 C34 1_555 1_555
C34 H29 1_555 1_555
C35 C34 1_555 1_555
H30 C35 1_555 1_555
C36 C35 1_555 1_555
H31 C36 1_555 1_555
C37 N6 1_555 1_555
H32 C37 1_555 1_555
C38 N4 1_555 1_555
H33 C38 1_555 1_555
H34 C38 1_555 1_555
C39 N4 1_555 1_555
H35 C39 1_555 1_555
H36 C39 1_555 1_555
C40 P3 1_555 1_555
C41 C40 1_555 1_555
H37 C41 1_555 1_555
C42 C41 1_555 1_555
H38 C42 1_555 1_555
C43 C42 1_555 1_555
H39 C43 1_555 1_555
C44 C43 1_555 1_555
H40 C44 1_555 1_555
C45 C40 1_555 1_555
H41 C45 1_555 1_555
C46 P3 1_555 1_555
C47 C46 1_555 1_555
H42 C47 1_555 1_555
C48 C47 1_555 1_555
H43 C48 1_555 1_555
C49 C48 1_555 1_555
H44 C49 1_555 1_555
C50 C49 1_555 1_555
H45 C50 1_555 1_555
C51 C46 1_555 1_555
H46 C51 1_555 1_555
C52 P4 1_555 1_555
C53 C52 1_555 1_555
H47 C53 1_555 1_555
C54 C53 1_555 1_555
H48 C54 1_555 1_555
C55 C54 1_555 1_555
H49 C55 1_555 1_555
C56 C55 1_555 1_555
H50 C56 1_555 1_555
C57 C52 1_555 1_555
H51 C57 1_555 1_555
C58 P4 1_555 1_555
C59 C58 1_555 1_555
H52 C59 1_555 1_555
C60 C59 1_555 1_555
H53 C60 1_555 1_555
C61 C60 1_555 1_555
H54 C61 1_555 1_555
C62 C61 1_555 1_555
H55 C62 1_555 1_555
C63 C58 1_555 1_555
H56 C63 1_555 1_555
C64 S2 1_555 1_555
Ag1E P2 1_555 1_555
P2E Ag1 1_555 1_555
Ag2C P3 1_555 1_555
P3C Ag2 1_555 1_555
C4 C5 1_555 1_555
C12 C13 1_555 1_555
C18 C19 1_555 1_555
C24 C25 1_555 1_555
C30 C31 1_555 1_555
C36 C37 1_555 1_555
C44 C45 1_555 1_555
C50 C51 1_555 1_555
C56 C57 1_555 1_555
C62 C63 1_555 1_555

#END
