
#######################################################################
#
#                 Cambridge Crystallographic Data Centre
#                                CCDC 
#
#######################################################################
#
# If this CIF has been generated from an entry in the Cambridge 
# Structural Database, then it will include bibliographic, chemical, 
# crystal, experimental, refinement or atomic coordinate data resulting 
# from the CCDC's data processing and validation procedures.
#
#######################################################################

data_QIFMIB
_symmetry_cell_setting           monoclinic
_symmetry_space_group_name_H-M   'P 21/n'
_symmetry_Int_Tables_number      14
_space_group_name_Hall           '-P 2yn'
loop_
_symmetry_equiv_pos_site_id
_symmetry_equiv_pos_as_xyz
1 x,y,z
2 1/2+x,1/2-y,1/2+z
3 -x,-y,-z
4 1/2-x,1/2+y,1/2-z
_cell_length_a                   6.052(2)
_cell_length_b                   14.763(8)
_cell_length_c                   11.423(5)
_cell_angle_alpha                90
_cell_angle_beta                 94.26
_cell_angle_gamma                90
_cell_volume                     1017.78
loop_
_atom_site_label
_atom_site_type_symbol
_atom_site_fract_x
_atom_site_fract_y
_atom_site_fract_z
Cd1 Cd 0.16848(4) 0.013642(19) 0.28654(2)
S1 S 0.40523(19) -0.08932(10) 0.16185(12)
C1 C 0.6503(7) -0.0644(3) 0.2277(4)
N1 N 0.8226(6) -0.0499(3) 0.2716(4)
N2 N 0.0370(6) 0.1200(2) 0.1455(3)
C2 C 0.1526(7) 0.1471(3) 0.0565(4)
H1 H 0.2874 0.1156 0.0434
C3 C 0.0869(7) 0.2181(3) -0.0174(4)
H2 H 0.1761 0.2368 -0.0791
C4 C -0.1144(6) 0.2624(3) 0.0002(3)
C5 C -0.2371(7) 0.2327(3) 0.0912(4)
H3 H -0.3762 0.2605 0.1049
C6 C -0.1535(7) 0.1621(3) 0.1620(4)
H4 H -0.2367 0.1422 0.2256
C7 C -0.1946(7) 0.3404(3) -0.0764(3)
O1 O -0.0562(5) 0.3851(2) -0.1308(3)
O2 O -0.3989(5) 0.3588(2) -0.0839(3)
O3 O 0.2156(6) -0.0683(3) 0.4566(3)
H5 H 0.2391 -0.0226 0.5146
H6 H 0.3375 -0.0745 0.4971
N1_2 N -0.1774(6) -0.0499(3) 0.2716(4)
O1A O 0.4438(5) 0.1149(2) 0.3692(3)
O2A O 0.1011(5) 0.1412(2) 0.4161(3)
Cd1A Cd -0.33152(4) 0.486358(19) -0.21346(2)
Cd1_2 Cd 1.16848(4) 0.013642(19) 0.28654(2)
loop_
_geom_bond_atom_site_label_1
_geom_bond_atom_site_label_2
_geom_bond_site_symmetry_1
_geom_bond_site_symmetry_2
Cd1 S1 1_555 1_555
S1 C1 1_555 1_555
C1 N1 1_555 1_555
N1 Cd1_2 1_555 1_555
N2 Cd1 1_555 1_555
C2 N2 1_555 1_555
H1 C2 1_555 1_555
C3 C2 1_555 1_555
H2 C3 1_555 1_555
C4 C3 1_555 1_555
C5 C4 1_555 1_555
H3 C5 1_555 1_555
C6 N2 1_555 1_555
H4 C6 1_555 1_555
C7 C4 1_555 1_555
O1 C7 1_555 1_555
O2 C7 1_555 1_555
O3 Cd1 1_555 1_555
H5 O3 1_555 1_555
H6 O3 1_555 1_555
N1_2 Cd1 1_555 1_555
O1A Cd1 1_555 1_555
O2A Cd1 1_555 1_555
Cd1A O1 1_555 1_555
C5 C6 1_555 1_555
O2 Cd1A 1_555 1_555

#END
