
#######################################################################
#
#                 Cambridge Crystallographic Data Centre
#                                CCDC 
#
#######################################################################
#
# If this CIF has been generated from an entry in the Cambridge 
# Structural Database, then it will include bibliographic, chemical, 
# crystal, experimental, refinement or atomic coordinate data resulting 
# from the CCDC's data processing and validation procedures.
#
#######################################################################

data_QIFMEX
_symmetry_cell_setting           monoclinic
_symmetry_space_group_name_H-M   'P 21/c'
_symmetry_Int_Tables_number      14
_space_group_name_Hall           '-P 2ybc'
loop_
_symmetry_equiv_pos_site_id
_symmetry_equiv_pos_as_xyz
1 x,y,z
2 x,1/2-y,1/2+z
3 -x,-y,-z
4 -x,1/2+y,1/2-z
_cell_length_a                   11.786(10)
_cell_length_b                   9.667(4)
_cell_length_c                   8.112(4)
_cell_angle_alpha                90
_cell_angle_beta                 107.62
_cell_angle_gamma                90
_cell_volume                     880.882
loop_
_atom_site_label
_atom_site_type_symbol
_atom_site_fract_x
_atom_site_fract_y
_atom_site_fract_z
Cd1 Cd 0.0000 0.0000 0.0000
S1 S -0.14309(10) -0.04246(12) -0.3331(2)
O1 O -0.5356(3) 0.2810(3) 0.1474(6)
N1 N -0.0257(3) -0.2346(3) 0.0688(7)
N2 N -0.1680(2) 0.0607(3) 0.0794(6)
N3 N -0.54886(17) 0.0702(2) 0.2575(4)
H1 H -0.5364 0.0004 0.2590
H2 H -0.6051 0.1177 0.2916
C1 C -0.07291(17) -0.1732(2) -0.3889(4)
C2 C -0.22022(17) 0.1857(2) 0.0376(4)
H3 H -0.1844 0.2517 -0.0199
C3 C -0.3255(3) 0.2193(4) 0.0734(7)
H4 H -0.3613 0.3083 0.0403
C4 C -0.3790(3) 0.1246(3) 0.1533(7)
C5 C -0.3225(4) -0.0010(3) 0.2016(10)
H5 H -0.3539 -0.0663 0.2656
C6 C -0.2178(4) -0.0280(4) 0.1627(9)
H6 H -0.1789 -0.1153 0.1969
C7 C -0.4947(3) 0.1646(4) 0.1869(7)
S1B S 0.14309(10) 0.04246(12) 0.3331(2)
N1B N 0.0257(3) 0.2346(3) -0.0688(7)
N2B N 0.1680(2) -0.0607(3) -0.0794(6)
C1A C -0.07291(17) -0.3268(2) 0.1111(4)
N1A N -0.0257(3) -0.2654(3) -0.4312(7)
Cd1A Cd 0.0000 -0.5000 -0.5000
C2B C 0.22022(17) -0.1857(2) -0.0376(4)
C6B C 0.2178(4) 0.0280(4) -0.1627(9)
S1A S -0.14309(10) -0.45754(12) 0.1669(2)
Cd1A_2 Cd 0.0000 -0.5000 0.5000
H3B H 0.1844 -0.2517 0.0199
C3B C 0.3255(3) -0.2193(4) -0.0734(7)
C5B C 0.3225(4) 0.0010(3) -0.2016(10)
H6B H 0.1789 0.1153 -0.1969
H4B H 0.3613 -0.3083 -0.0403
C4B C 0.3790(3) -0.1246(3) -0.1533(7)
H5B H 0.3539 0.0663 -0.2656
C7B C 0.4947(3) -0.1646(4) -0.1869(7)
O1B O 0.5356(3) -0.2810(3) -0.1474(6)
N3B N 0.54886(17) -0.0702(2) -0.2575(4)
H1B H 0.5364 -0.0004 -0.2590
H2B H 0.6051 -0.1177 -0.2916
loop_
_geom_bond_atom_site_label_1
_geom_bond_atom_site_label_2
_geom_bond_site_symmetry_1
_geom_bond_site_symmetry_2
Cd1 S1 1_555 1_555
S1 C1 1_555 1_555
O1 C7 1_555 1_555
N1 Cd1 1_555 1_555
N2 Cd1 1_555 1_555
N3 H1 1_555 1_555
H2 N3 1_555 1_555
C1 N1A 1_555 1_555
C2 N2 1_555 1_555
H3 C2 1_555 1_555
C3 C2 1_555 1_555
H4 C3 1_555 1_555
C4 C3 1_555 1_555
C5 C4 1_555 1_555
H5 C5 1_555 1_555
C6 N2 1_555 1_555
H6 C6 1_555 1_555
C7 N3 1_555 1_555
S1B Cd1 1_555 1_555
N1B Cd1 1_555 1_555
N2B Cd1 1_555 1_555
C1A N1 1_555 1_555
N1A Cd1A 1_555 1_555
C2B N2B 1_555 1_555
C6B N2B 1_555 1_555
S1A C1A 1_555 1_555
Cd1A_2 S1A 1_555 1_555
H3B C2B 1_555 1_555
C3B C2B 1_555 1_555
C5B C6B 1_555 1_555
H6B C6B 1_555 1_555
H4B C3B 1_555 1_555
C4B C3B 1_555 1_555
H5B C5B 1_555 1_555
C7B C4B 1_555 1_555
O1B C7B 1_555 1_555
N3B C7B 1_555 1_555
H1B N3B 1_555 1_555
H2B N3B 1_555 1_555
C4 C7 1_555 1_555
C5 C6 1_555 1_555
C5B C4B 1_555 1_555

#END
