
#######################################################################
#
#                 Cambridge Crystallographic Data Centre
#                                CCDC 
#
#######################################################################
#
# If this CIF has been generated from an entry in the Cambridge 
# Structural Database, then it will include bibliographic, chemical, 
# crystal, experimental, refinement or atomic coordinate data resulting 
# from the CCDC's data processing and validation procedures.
#
#######################################################################

data_QIFMOH
_symmetry_cell_setting           monoclinic
_symmetry_space_group_name_H-M   'P 21/n'
_symmetry_Int_Tables_number      14
_space_group_name_Hall           '-P 2yn'
loop_
_symmetry_equiv_pos_site_id
_symmetry_equiv_pos_as_xyz
1 x,y,z
2 1/2-x,1/2+y,1/2-z
3 -x,-y,-z
4 1/2+x,1/2-y,1/2+z
_cell_length_a                   6.491(3)
_cell_length_b                   20.146(15)
_cell_length_c                   11.073(9)
_cell_angle_alpha                90
_cell_angle_beta                 92.34(2)
_cell_angle_gamma                90
_cell_volume                     1446.78
loop_
_atom_site_label
_atom_site_type_symbol
_atom_site_fract_x
_atom_site_fract_y
_atom_site_fract_z
Ag1 Ag -0.77705(7) -0.42883(3) -0.36880(4)
N1 N -0.4591(9) -0.4227(2) -0.2518(4)
N2 N -0.2555(9) -0.3560(2) -0.1050(5)
N3 N -0.0813(8) -0.4231(2) -0.2549(5)
N4 N -0.2554(8) -0.4780(2) -0.0906(4)
C1 C -0.7437(10) -0.3676(3) -0.6050(5)
C2 C -0.7304(9) -0.3342(3) -0.7234(5)
C3 C -0.5391(9) -0.3164(3) -0.7693(5)
H1 H -0.4152 -0.3274 -0.7234
C4 C -0.5241(9) -0.2829(3) -0.8757(6)
H2 H -0.3913 -0.2716 -0.9047
C5 C -0.7030(10) -0.2660(3) -0.9438(5)
C6 C -0.8931(10) -0.2850(3) -0.9023(5)
H3 H -1.0159 -0.2753 -0.9503
C7 C -0.9067(10) -0.3175(3) -0.7936(5)
H4 H -1.0399 -0.3285 -0.7647
C8 C -0.4442(11) -0.3599(3) -0.1815(6)
H5 H -0.5613 -0.3567 -0.1316
H6 H -0.4489 -0.3229 -0.2362
C9 C -0.4457(10) -0.4789(3) -0.1672(5)
H7 H -0.4494 -0.5194 -0.2127
H8 H -0.5630 -0.4785 -0.1172
C10 C -0.2776(10) -0.4260(3) -0.3281(5)
H9 H -0.2820 -0.3901 -0.3852
H10 H -0.2820 -0.4667 -0.3729
C11 C -0.0805(10) -0.3607(3) -0.1844(5)
H11 H 0.0452 -0.3585 -0.1357
H12 H -0.0830 -0.3235 -0.2385
C12 C -0.2481(11) -0.4138(3) -0.0243(6)
H13 H -0.3622 -0.4116 0.0281
H14 H -0.1236 -0.4120 0.0255
C13 C -0.0803(10) -0.4790(3) -0.1692(6)
H15 H 0.0447 -0.4772 -0.1199
H16 H -0.0809 -0.5201 -0.2132
O1 O -0.5974(8) -0.4024(3) -0.5643(5)
O2 O -0.9081(8) -0.3612(2) -0.5478(4)
O3 O -0.6960(8) -0.2312(3) -1.0487(4)
H17 H -0.5408 -0.2057 -1.0867
O4 O -0.7756(8) -0.5508(3) -0.3651(5)
H18 H -0.8762 -0.5793 -0.4022
H19 H -0.6361 -0.5606 -0.3811
N3_2 N -1.0813(8) -0.4231(2) -0.2549(5)
Ag1_2 Ag 0.22295(7) -0.42883(3) -0.36880(4)
loop_
_geom_bond_atom_site_label_1
_geom_bond_atom_site_label_2
_geom_bond_site_symmetry_1
_geom_bond_site_symmetry_2
Ag1 N1 1_555 1_555
N1 C8 1_555 1_555
N2 C8 1_555 1_555
N3 C10 1_555 1_555
N4 C9 1_555 1_555
C1 C2 1_555 1_555
C2 C3 1_555 1_555
C3 H1 1_555 1_555
C4 C3 1_555 1_555
H2 C4 1_555 1_555
C5 C4 1_555 1_555
C6 C5 1_555 1_555
H3 C6 1_555 1_555
C7 C2 1_555 1_555
H4 C7 1_555 1_555
C8 H5 1_555 1_555
H6 C8 1_555 1_555
C9 N1 1_555 1_555
H7 C9 1_555 1_555
H8 C9 1_555 1_555
C10 N1 1_555 1_555
H9 C10 1_555 1_555
H10 C10 1_555 1_555
C11 N2 1_555 1_555
H11 C11 1_555 1_555
H12 C11 1_555 1_555
C12 N2 1_555 1_555
H13 C12 1_555 1_555
H14 C12 1_555 1_555
C13 N3 1_555 1_555
H15 C13 1_555 1_555
H16 C13 1_555 1_555
O1 Ag1 1_555 1_555
O2 Ag1 1_555 1_555
O3 C5 1_555 1_555
H17 O3 1_555 1_555
O4 Ag1 1_555 1_555
H18 O4 1_555 1_555
H19 O4 1_555 1_555
N3_2 Ag1 1_555 1_555
Ag1_2 N3 1_555 1_555
N3 C11 1_555 1_555
N4 C12 1_555 1_555
N4 C13 1_555 1_555
C1 O1 1_555 1_555
C1 O2 1_555 1_555
C6 C7 1_555 1_555

#END
