
#######################################################################
#
#                 Cambridge Crystallographic Data Centre
#                                CCDC 
#
#######################################################################
#
# If this CIF has been generated from an entry in the Cambridge 
# Structural Database, then it will include bibliographic, chemical, 
# crystal, experimental, refinement or atomic coordinate data resulting 
# from the CCDC's data processing and validation procedures.
#
#######################################################################

data_QIFNOI
_symmetry_cell_setting           triclinic
_symmetry_space_group_name_H-M   'P -1'
_symmetry_Int_Tables_number      2
_space_group_name_Hall           '-P 1'
loop_
_symmetry_equiv_pos_site_id
_symmetry_equiv_pos_as_xyz
1 x,y,z
2 -x,-y,-z
_cell_length_a                   6.563(2)
_cell_length_b                   9.187(6)
_cell_length_c                   10.553(5)
_cell_angle_alpha                76.75(2)
_cell_angle_beta                 79.47(2)
_cell_angle_gamma                87.49(2)
_cell_volume                     608.916
loop_
_atom_site_label
_atom_site_type_symbol
_atom_site_fract_x
_atom_site_fract_y
_atom_site_fract_z
Ag1 Ag 0.13590(5) 0.05672(3) 0.37213(3)
O1 O 0.1995(5) -0.2027(3) 0.4163(4)
O2 O -0.1367(5) -0.2384(3) 0.4968(4)
N1 N 0.4784(5) 0.1329(4) 0.2540(3)
N2 N 0.7278(6) 0.1032(5) 0.0586(4)
N3 N -0.1473(5) 0.1289(4) 0.2573(3)
N4 N 0.6968(6) 0.3426(4) 0.1215(4)
C1 C 0.5231(7) 0.0611(5) 0.1377(4)
H1 H 0.4193 0.0909 0.0834
H2 H 0.5167 -0.0456 0.1687
C2 C 0.6411(6) 0.0879(4) 0.3345(4)
H3 H 0.6159 0.1357 0.4079
H4 H 0.6346 -0.0182 0.3694
C3 C 0.4912(7) 0.2977(5) 0.2030(5)
H5 H 0.4666 0.3459 0.2761
H6 H 0.3856 0.3299 0.1505
C4 C -0.1147(7) 0.0568(6) 0.1411(5)
H7 H -0.1203 -0.0499 0.1728
H8 H 0.0203 0.0822 0.0892
C5 C -0.1456(7) 0.2932(5) 0.2059(5)
H9 H -0.0107 0.3246 0.1568
H10 H -0.1736 0.3404 0.2796
C6 C 0.7353(8) 0.2666(6) 0.0110(4)
H11 H 0.8690 0.2953 -0.0414
H12 H 0.6330 0.2977 -0.0441
C7 C 0.0404(7) -0.2833(4) 0.4540(4)
C8 C 0.0667(8) -0.4466(5) 0.4450(5)
H13 H 0.0361 -0.4565 0.3618
H14 H 0.2090 -0.4747 0.4468
C4_2 C 0.8853(7) 0.0568(6) 0.1411(5)
C2_2 C -0.3589(6) 0.0879(4) 0.3345(4)
C5_2 C 0.8544(7) 0.2932(5) 0.2059(5)
N3_2 N 0.8527(5) 0.1289(4) 0.2573(3)
N2_2 N -0.2722(6) 0.1032(5) 0.0586(4)
N4_2 N -0.3032(6) 0.3426(4) 0.1215(4)
O2A O 0.1367(5) 0.2384(3) 0.5032(4)
C8A C -0.0667(8) -0.5534(5) 0.5550(5)
Ag1_2 Ag 1.13590(5) 0.05672(3) 0.37213(3)
C7A C -0.0404(7) -0.7167(4) 0.5460(4)
H13A H -0.0361 -0.5435 0.6382
H14A H -0.2090 -0.5253 0.5532
O1A O -0.1995(5) -0.7973(3) 0.5837(4)
O2A_2 O 0.1367(5) -0.7616(3) 0.5032(4)
Ag1A Ag -0.13590(5) -0.05672(3) 0.62787(3)
Ag1A_2 Ag -0.13590(5) -1.05672(3) 0.62787(3)
Ag1_3 Ag 0.13590(5) -0.94328(3) 0.37213(3)
O1A_2 O -0.1995(5) 0.2027(3) 0.5837(4)
N1A N -0.4784(5) -0.1329(4) 0.7460(3)
N3A N 0.1473(5) -0.1289(4) 0.7427(3)
N1_2 N -0.5216(5) 0.1329(4) 0.2540(3)
H3_2 H -0.3841 0.1357 0.4079
H4_2 H -0.3654 -0.0182 0.3694
C3_2 C -0.5088(7) 0.2977(5) 0.2030(5)
C6_2 C -0.2647(8) 0.2666(6) 0.0110(4)
C1_2 C -0.4769(7) 0.0611(5) 0.1377(4)
H5_2 H -0.5334 0.3459 0.2761
H6_2 H -0.6144 0.3299 0.1505
Ag1_4 Ag -0.86410(5) 0.05672(3) 0.37213(3)
H1_2 H -0.5807 0.0909 0.0834
H2_2 H -0.4833 -0.0456 0.1687
H11_2 H -0.1310 0.2953 -0.0414
H12_2 H -0.3670 0.2977 -0.0441
H7_2 H 0.8797 -0.0499 0.1728
H8_2 H 1.0203 0.0822 0.0892
H9_2 H 0.9893 0.3246 0.1568
H10_2 H 0.8264 0.3404 0.2796
O3 O 0.2512(6) 0.3358(4) 0.9113(4)
H15 H 0.2953 0.3432 0.8194
H16 H 0.2881 0.4380 0.9097
O4 O 0.4146(6) 0.3232(5) 0.6491(4)
H17 H 0.3173 0.3335 0.5858
H18 H 0.5539 0.3081 0.5997
loop_
_geom_bond_atom_site_label_1
_geom_bond_atom_site_label_2
_geom_bond_site_symmetry_1
_geom_bond_site_symmetry_2
Ag1 O1 1_555 1_555
O1 C7 1_555 1_555
O2 C7 1_555 1_555
N1 Ag1 1_555 1_555
N2 C1 1_555 1_555
N3 Ag1 1_555 1_555
N4 C3 1_555 1_555
C1 N1 1_555 1_555
H1 C1 1_555 1_555
H2 C1 1_555 1_555
C2 N1 1_555 1_555
H3 C2 1_555 1_555
H4 C2 1_555 1_555
C3 N1 1_555 1_555
H5 C3 1_555 1_555
H6 C3 1_555 1_555
C4 N3 1_555 1_555
H7 C4 1_555 1_555
H8 C4 1_555 1_555
C5 N3 1_555 1_555
H9 C5 1_555 1_555
H10 C5 1_555 1_555
C6 N2 1_555 1_555
H11 C6 1_555 1_555
H12 C6 1_555 1_555
C7 C8 1_555 1_555
C8 H13 1_555 1_555
H14 C8 1_555 1_555
O3 H15 1_555 1_555
H16 O3 1_555 1_555
O4 H17 1_555 1_555
H18 O4 1_555 1_555
C4_2 N2 1_555 1_555
C2_2 N3 1_555 1_555
C5_2 N4 1_555 1_555
N3_2 C2 1_555 1_555
N2_2 C4 1_555 1_555
N4_2 C5 1_555 1_555
O2A Ag1 1_555 1_555
C8A C8 1_555 1_555
Ag1_2 N3_2 1_555 1_555
C7A C8A 1_555 1_555
H13A C8A 1_555 1_555
H14A C8A 1_555 1_555
O1A C7A 1_555 1_555
O2A_2 C7A 1_555 1_555
Ag1A O2 1_555 1_555
Ag1A_2 O1A 1_555 1_555
Ag1_3 O2A_2 1_555 1_555
O1A_2 Ag1A 1_555 1_555
N1A Ag1A 1_555 1_555
N3A Ag1A 1_555 1_555
N1_2 C2_2 1_555 1_555
H3_2 C2_2 1_555 1_555
H4_2 C2_2 1_555 1_555
C3_2 N4_2 1_555 1_555
C6_2 N2_2 1_555 1_555
C1_2 N2_2 1_555 1_555
H5_2 C3_2 1_555 1_555
H6_2 C3_2 1_555 1_555
Ag1_4 N1_2 1_555 1_555
H1_2 C1_2 1_555 1_555
H2_2 C1_2 1_555 1_555
H11_2 C6_2 1_555 1_555
H12_2 C6_2 1_555 1_555
H7_2 C4_2 1_555 1_555
H8_2 C4_2 1_555 1_555
H9_2 C5_2 1_555 1_555
H10_2 C5_2 1_555 1_555
N4 C6 1_555 1_555
C4_2 N3_2 1_555 1_555
C5_2 N3_2 1_555 1_555
N4_2 C6_2 1_555 1_555
N1_2 C3_2 1_555 1_555
N1_2 C1_2 1_555 1_555

#END
