
#######################################################################
#
#                 Cambridge Crystallographic Data Centre
#                                CCDC 
#
#######################################################################
#
# If this CIF has been generated from an entry in the Cambridge 
# Structural Database, then it will include bibliographic, chemical, 
# crystal, experimental, refinement or atomic coordinate data resulting 
# from the CCDC's data processing and validation procedures.
#
#######################################################################

data_QIFNAW
_symmetry_cell_setting           monoclinic
_symmetry_space_group_name_H-M   'C 2/c'
_symmetry_Int_Tables_number      15
_space_group_name_Hall           '-C 2yn'
loop_
_symmetry_equiv_pos_site_id
_symmetry_equiv_pos_as_xyz
1 x,y,z
2 -x,y,1/2-z
3 1/2+x,1/2+y,z
4 1/2-x,1/2+y,1/2-z
5 -x,-y,-z
6 x,-y,1/2+z
7 1/2-x,1/2-y,-z
8 1/2+x,1/2-y,1/2+z
_cell_length_a                   24.932(4)
_cell_length_b                   11.2178(7)
_cell_length_c                   18.016(3)
_cell_angle_alpha                90
_cell_angle_beta                 129.11(3)
_cell_angle_gamma                90
_cell_volume                     3909.75
loop_
_atom_site_label
_atom_site_type_symbol
_atom_site_fract_x
_atom_site_fract_y
_atom_site_fract_z
C19 C 0.4990(14) 0.812(3) 0.547(2)
N5 N 0.492(2) 0.840(4) 0.601(3)
C20 C 0.511(4) 0.753(6) 0.488(7)
H15 H 0.5171 0.8129 0.4542
H16 H 0.4722 0.7027 0.4415
H17 H 0.5528 0.7051 0.5273
Ag1 Ag 0.33641(3) 0.26471(6) 0.53804(4)
Ag2 Ag 0.31877(4) -0.01126(6) 0.27497(5)
P1 P 0.38520(10) 0.46018(18) 0.56909(14)
N1 N 0.4837(6) 0.2108(9) 0.6743(9)
N2 N 0.5000 0.3904(11) 0.7500
N3 N 0.3123(4) 0.1606(7) 0.6178(5)
N4 N 0.3289(4) 0.1414(6) 0.4334(5)
C1 C 0.5000 0.2670(13) 0.7500
C2 C 0.4840(6) 0.0862(11) 0.6719(12)
H1 H 0.4735 0.0451 0.6187
C3 C 0.5000 0.0259(14) 0.7500
H2 H 0.5000 -0.0579 0.7500
C4 C 0.4811(4) 0.4564(8) 0.6673(8)
H3 H 0.5031 0.4196 0.6433
H4 H 0.4984 0.5382 0.6867
C5 C 0.3841(7) 0.5339(12) 0.4831(9)
C6 C 0.3584(7) 0.4669(10) 0.4019(11)
H5 H 0.3443 0.3877 0.3975
C7 C 0.3534(8) 0.5170(14) 0.3272(9)
H6 H 0.3360 0.4717 0.2723
C8 C 0.3742(8) 0.6341(14) 0.3337(10)
H7 H 0.3708 0.6680 0.2832
C9 C 0.3999(8) 0.7011(10) 0.4149(12)
H8 H 0.4140 0.7803 0.4193
C10 C 0.4049(7) 0.6510(12) 0.4896(10)
H9 H 0.4223 0.6963 0.5445
C11 C 0.3535(4) 0.5759(7) 0.6019(6)
C12 C 0.2882(5) 0.5588(8) 0.5762(6)
H10 H 0.2645 0.4866 0.5480
C13 C 0.2580(6) 0.6495(9) 0.5925(8)
H11 H 0.2135 0.6387 0.5734
C14 C 0.2922(7) 0.7518(9) 0.6353(9)
H12 H 0.2716 0.8120 0.6461
C15 C 0.3575(7) 0.7688(10) 0.6634(11)
H13 H 0.3819 0.8390 0.6960
C16 C 0.3875(5) 0.6842(9) 0.6444(9)
H14 H 0.4306 0.6991 0.6600
C17 C 0.3265(4) 0.0887(8) 0.3795(7)
C18 C 0.3142(5) 0.1069(8) 0.6739(6)
P1A P 0.61480(10) 0.46018(18) 0.93091(14)
N1A N 0.5163(6) 0.2108(9) 0.8257(9)
C2A C 0.5160(6) 0.0862(11) 0.8281(12)
H1A H 0.5265 0.0451 0.8813
C4A C 0.5189(4) 0.4564(8) 0.8327(8)
H3A H 0.4969 0.4196 0.8567
H4A H 0.5016 0.5382 0.8133
C5A C 0.6159(7) 0.5339(12) 1.0169(9)
C6A C 0.6416(7) 0.4669(10) 1.0981(11)
H5A H 0.6557 0.3877 1.1025
C7A C 0.6466(8) 0.5170(14) 1.1728(9)
H6A H 0.6640 0.4717 1.2277
C8A C 0.6258(8) 0.6341(14) 1.1663(10)
H7A H 0.6292 0.6680 1.2168
C9A C 0.6001(8) 0.7011(10) 1.0851(12)
H8A H 0.5860 0.7803 1.0807
C10A C 0.5951(7) 0.6510(12) 1.0104(10)
H9A H 0.5777 0.6963 0.9555
C11A C 0.6465(4) 0.5759(7) 0.8981(6)
C12A C 0.7118(5) 0.5588(8) 0.9238(6)
H10A H 0.7355 0.4866 0.9520
C13A C 0.7420(6) 0.6495(9) 0.9075(8)
H11A H 0.7865 0.6387 0.9266
C14A C 0.7078(7) 0.7518(9) 0.8647(9)
H12A H 0.7284 0.8120 0.8539
C15A C 0.6425(7) 0.7688(10) 0.8366(11)
H13A H 0.6181 0.8390 0.8040
C16A C 0.6125(5) 0.6842(9) 0.8556(9)
H14A H 0.5694 0.6991 0.8400
Ag1A Ag 0.66359(3) 0.26471(6) 0.96196(4)
Ag2A Ag 0.68123(4) -0.01126(6) 1.22503(5)
N3A N 0.6877(4) 0.1606(7) 0.8822(5)
N4A N 0.6711(4) 0.1414(6) 1.0666(5)
C17A C 0.6735(4) 0.0887(8) 1.1205(7)
C18A C 0.6858(5) 0.1069(8) 0.8261(6)
Ag2D Ag 0.68123(4) 0.01126(6) 0.72503(5)
Ag2E Ag 0.31877(4) 0.01126(6) 0.77497(5)
C18D C 0.6858(5) -0.1069(8) 1.3261(6)
C18E C 0.3142(5) -0.1069(8) 0.1739(6)
C21? C 0.4837(6) 0.2108(9) 0.6743(9)
H18? H 0.4717 0.2547 0.6213
C22? C 0.3752(5) 0.5121(9) 0.4592(6)
C23? C 0.3873(5) 0.4326(7) 0.4121(7)
H19? H 0.4012 0.3541 0.4347
C24? C 0.3788(5) 0.4692(8) 0.3315(7)
H20? H 0.3870 0.4154 0.2996
C25? C 0.3581(6) 0.5853(9) 0.2981(6)
H21? H 0.3524 0.6100 0.2436
C26? C 0.3460(6) 0.6647(7) 0.3452(7)
H22? H 0.3321 0.7432 0.3226
C27? C 0.3545(5) 0.6281(8) 0.4258(7)
H23? H 0.3463 0.6819 0.4577
loop_
_geom_bond_atom_site_label_1
_geom_bond_atom_site_label_2
_geom_bond_site_symmetry_1
_geom_bond_site_symmetry_2
Ag1 P1 1_555 1_555
Ag2 C17 1_555 1_555
P1 C4 1_555 1_555
N1 C1 1_555 1_555
N2 C1 1_555 1_555
N3 Ag1 1_555 1_555
N4 Ag1 1_555 1_555
C1 N1A 1_555 1_555
C2 N1 1_555 1_555
H1 C2 1_555 1_555
C3 C2 1_555 1_555
H2 C3 1_555 1_555
C4 N2 1_555 1_555
H3 C4 1_555 1_555
H4 C4 1_555 1_555
C5 P1 1_555 1_555
C6 C5 1_555 1_555
H5 C6 1_555 1_555
C7 C6 1_555 1_555
H6 C7 1_555 1_555
C8 C7 1_555 1_555
H7 C8 1_555 1_555
C9 C8 1_555 1_555
H8 C9 1_555 1_555
C10 C5 1_555 1_555
H9 C10 1_555 1_555
C11 P1 1_555 1_555
C12 C11 1_555 1_555
H10 C12 1_555 1_555
C13 C12 1_555 1_555
H11 C13 1_555 1_555
C14 C13 1_555 1_555
H12 C14 1_555 1_555
C15 C14 1_555 1_555
H13 C15 1_555 1_555
C16 C11 1_555 1_555
H14 C16 1_555 1_555
C17 N4 1_555 1_555
C18 N3 1_555 1_555
C19 N5 1_555 1_555
C20 C19 1_555 1_555
H15 C20 1_555 1_555
H16 C20 1_555 1_555
H17 C20 1_555 1_555
P1A C4A 1_555 1_555
N1A C2A 1_555 1_555
C2A C3 1_555 1_555
H1A C2A 1_555 1_555
C4A N2 1_555 1_555
H3A C4A 1_555 1_555
H4A C4A 1_555 1_555
C5A P1A 1_555 1_555
C6A C5A 1_555 1_555
H5A C6A 1_555 1_555
C7A C6A 1_555 1_555
H6A C7A 1_555 1_555
C8A C7A 1_555 1_555
H7A C8A 1_555 1_555
C9A C8A 1_555 1_555
H8A C9A 1_555 1_555
C10A C5A 1_555 1_555
H9A C10A 1_555 1_555
C11A P1A 1_555 1_555
C12A C11A 1_555 1_555
H10A C12A 1_555 1_555
C13A C12A 1_555 1_555
H11A C13A 1_555 1_555
C14A C13A 1_555 1_555
H12A C14A 1_555 1_555
C15A C14A 1_555 1_555
H13A C15A 1_555 1_555
C16A C11A 1_555 1_555
H14A C16A 1_555 1_555
Ag1A P1A 1_555 1_555
Ag2A C17A 1_555 1_555
N3A Ag1A 1_555 1_555
N4A Ag1A 1_555 1_555
C17A N4A 1_555 1_555
C18A N3A 1_555 1_555
Ag2D C18A 1_555 1_555
Ag2E C18 1_555 1_555
C18D Ag2A 1_555 1_555
C18E Ag2 1_555 1_555
C9 C10 1_555 1_555
C15 C16 1_555 1_555
C9A C10A 1_555 1_555
C15A C16A 1_555 1_555

#END
