
#######################################################################
#
#                 Cambridge Crystallographic Data Centre
#                                CCDC 
#
#######################################################################
#
# If this CIF has been generated from an entry in the Cambridge 
# Structural Database, then it will include bibliographic, chemical, 
# crystal, experimental, refinement or atomic coordinate data resulting 
# from the CCDC's data processing and validation procedures.
#
#######################################################################

data_QIFNIC
_symmetry_cell_setting           monoclinic
_symmetry_space_group_name_H-M   'P 21/n'
_symmetry_Int_Tables_number      14
_space_group_name_Hall           '-P 2yn'
loop_
_symmetry_equiv_pos_site_id
_symmetry_equiv_pos_as_xyz
1 x,y,z
2 1/2-x,1/2+y,1/2-z
3 -x,-y,-z
4 1/2+x,1/2-y,1/2+z
_cell_length_a                   6.442(3)
_cell_length_b                   19.385(13)
_cell_length_c                   11.262(8)
_cell_angle_alpha                90
_cell_angle_beta                 100.94(2)
_cell_angle_gamma                90
_cell_volume                     1380.82
loop_
_atom_site_label
_atom_site_type_symbol
_atom_site_fract_x
_atom_site_fract_y
_atom_site_fract_z
Ag1 Ag 0.62106(4) -0.459070(15) -0.39106(2)
S1 S 0.45728(18) -0.36942(5) -0.63318(8)
O1 O 0.6650(5) -0.39901(16) -0.5666(3)
O2 O 0.2806(6) -0.41901(16) -0.6275(4)
N1 N 0.3509(4) -0.44273(14) -0.2781(2)
N2 N 0.2220(5) -0.35917(13) -0.1436(3)
N3 N -0.0283(4) -0.43756(15) -0.2694(2)
N4 N 0.2264(4) -0.48285(14) -0.0961(2)
C1 C 0.3741(5) -0.37250(17) -0.2236(3)
H1 H 0.3537 -0.3388 -0.2873
H2 H 0.5152 -0.3673 -0.1782
C2 C 0.1295(5) -0.44973(17) -0.3476(3)
H3 H 0.1102 -0.4952 -0.3815
H4 H 0.1067 -0.4172 -0.4131
C3 C 0.3779(5) -0.49344(17) -0.1768(3)
H5 H 0.5189 -0.4897 -0.1306
H6 H 0.3609 -0.5392 -0.2097
C4 C 0.0082(5) -0.36716(18) -0.2151(3)
H7 H -0.0132 -0.3335 -0.2787
H8 H -0.0935 -0.3586 -0.1645
C5 C 0.2545(6) -0.41208(18) -0.0477(3)
H9 H 0.1563 -0.4043 0.0052
H10 H 0.3948 -0.4075 -0.0010
C6 C 0.0102(5) -0.48807(18) -0.1690(3)
H11 H -0.0110 -0.5338 -0.2016
H12 H -0.0909 -0.4805 -0.1177
C7 C 0.4062(5) -0.30178(17) -0.5311(3)
C8 C 0.5734(6) -0.2695(2) -0.4558(4)
H13 H 0.7158 -0.2838 -0.4565
C9 C 0.5351(8) -0.2169(2) -0.3788(4)
H14 H 0.6512 -0.1945 -0.3270
C10 C 0.3307(9) -0.1965(2) -0.3772(4)
H15 H 0.3058 -0.1605 -0.3229
C11 C 0.1627(7) -0.2274(2) -0.4532(4)
H16 H 0.0211 -0.2125 -0.4519
C12 C 0.1981(6) -0.28056(19) -0.5313(4)
H17 H 0.0823 -0.3022 -0.5845
O2B O 0.7194(6) -0.58099(16) -0.3725(4)
N3_2 N 0.9717(4) -0.43756(15) -0.2694(2)
Ag1B Ag 0.37894(4) -0.540930(15) -0.60894(2)
Ag1_2 Ag -0.37894(4) -0.459070(15) -0.39106(2)
loop_
_geom_bond_atom_site_label_1
_geom_bond_atom_site_label_2
_geom_bond_site_symmetry_1
_geom_bond_site_symmetry_2
Ag1 O1 1_555 1_555
S1 O1 1_555 1_555
O2 S1 1_555 1_555
N1 Ag1 1_555 1_555
N2 C1 1_555 1_555
N3 C2 1_555 1_555
N4 C3 1_555 1_555
C1 N1 1_555 1_555
H1 C1 1_555 1_555
H2 C1 1_555 1_555
C2 N1 1_555 1_555
H3 C2 1_555 1_555
H4 C2 1_555 1_555
C3 N1 1_555 1_555
H5 C3 1_555 1_555
H6 C3 1_555 1_555
C4 N2 1_555 1_555
H7 C4 1_555 1_555
H8 C4 1_555 1_555
C5 N2 1_555 1_555
H9 C5 1_555 1_555
H10 C5 1_555 1_555
C6 N3 1_555 1_555
H11 C6 1_555 1_555
H12 C6 1_555 1_555
C7 S1 1_555 1_555
C8 C7 1_555 1_555
H13 C8 1_555 1_555
C9 C8 1_555 1_555
H14 C9 1_555 1_555
C10 C9 1_555 1_555
H15 C10 1_555 1_555
C11 C10 1_555 1_555
H16 C11 1_555 1_555
C12 C7 1_555 1_555
H17 C12 1_555 1_555
O2B Ag1 1_555 1_555
N3_2 Ag1 1_555 1_555
Ag1B O2 1_555 1_555
Ag1_2 N3 1_555 1_555
N3 C4 1_555 1_555
N4 C5 1_555 1_555
N4 C6 1_555 1_555
C11 C12 1_555 1_555

#END
