
#######################################################################
#
#                 Cambridge Crystallographic Data Centre
#                                CCDC 
#
#######################################################################
#
# If this CIF has been generated from an entry in the Cambridge 
# Structural Database, then it will include bibliographic, chemical, 
# crystal, experimental, refinement or atomic coordinate data resulting 
# from the CCDC's data processing and validation procedures.
#
#######################################################################

data_QIFNEY
_symmetry_cell_setting           orthorhombic
_symmetry_space_group_name_H-M   'A b a 2'
_symmetry_Int_Tables_number      41
_space_group_name_Hall           'A 2 -2ab'
loop_
_symmetry_equiv_pos_site_id
_symmetry_equiv_pos_as_xyz
1 x,y,z
2 -x,-y,z
3 1/2+x,1/2-y,z
4 1/2-x,1/2+y,z
5 x,1/2+y,1/2+z
6 -x,1/2-y,1/2+z
7 1/2+x,-y,1/2+z
8 1/2-x,y,1/2+z
_cell_length_a                   16.139(9)
_cell_length_b                   14.005(6)
_cell_length_c                   12.626(4)
_cell_angle_alpha                90
_cell_angle_beta                 90
_cell_angle_gamma                90
_cell_volume                     2853.81
loop_
_atom_site_label
_atom_site_type_symbol
_atom_site_fract_x
_atom_site_fract_y
_atom_site_fract_z
Ag1 Ag -0.224330(17) -0.06770(2) -0.00055(3)
O1 O -0.3869(3) -0.0969(4) 0.0887(5)
O2 O -0.3285(3) -0.1851(3) -0.0367(5)
C1 C -0.3869(3) -0.1629(4) 0.0219(4)
C2 C -0.4646(2) -0.2257(3) 0.0149(5)
C3 C -0.5221(3) -0.2281(4) 0.0963(5)
H1 H -0.5154 -0.1886 0.1578
C4 C -0.5883(3) -0.2895(4) 0.0873(5)
H2 H -0.6274 -0.2912 0.1446
C5 C -0.5472(3) -0.3402(5) -0.0756(5)
H3 H -0.5567 -0.3787 -0.1373
C6 C -0.4783(3) -0.2817(4) -0.0731(5)
H4 H -0.4403 -0.2800 -0.1316
N1 N -0.6027(2) -0.3455(3) 0.0038(6)
N2 N -0.2128(3) 0.0241(3) 0.1597(3)
N3 N -0.1282(3) 0.1261(4) 0.2741(4)
N4 N -0.2740(3) 0.1648(3) 0.2454(5)
N5 N -0.2368(3) 0.0263(3) 0.3523(3)
C7 C -0.1305(4) 0.0655(4) 0.1789(4)
H5 H -0.0889 0.0167 0.1829
H6 H -0.1179 0.1053 0.1191
C8 C -0.1525(4) 0.0684(4) 0.3643(4)
H7 H -0.1519 0.1074 0.4268
H8 H -0.1126 0.0183 0.3737
C9 C -0.2365(4) -0.0331(3) 0.2532(5)
H9 H -0.2911 -0.0589 0.2430
H10 H -0.1987 -0.0855 0.2611
C10 C -0.2727(4) 0.1044(4) 0.1511(5)
H11 H -0.2585 0.1419 0.0901
H12 H -0.3273 0.0790 0.1404
C11 C -0.1901(6) 0.2020(4) 0.2621(5)
H13 H -0.1895 0.2410 0.3247
H14 H -0.1748 0.2413 0.2030
C12 C -0.2960(4) 0.1059(4) 0.3366(4)
H15 H -0.3510 0.0811 0.3277
H16 H -0.2957 0.1451 0.3990
N1B N -0.1027(2) -0.1545(3) 0.0038(6)
N5G N -0.2632(3) 0.0263(3) -0.1477(3)
Ag1B Ag -0.724330(17) -0.43230(2) -0.00055(3)
Ag1G Ag -0.275670(17) -0.06770(2) 0.49945(3)
O3 O -0.5000 0.0000 0.2170(6)
H17 H -0.467(8) -0.027(8) 0.164(11)
H17A H -0.533(8) 0.027(8) 0.164(11)
loop_
_geom_bond_atom_site_label_1
_geom_bond_atom_site_label_2
_geom_bond_site_symmetry_1
_geom_bond_site_symmetry_2
Ag1 O2 1_555 1_555
O1 C1 1_555 1_555
O2 C1 1_555 1_555
C1 C2 1_555 1_555
C2 C3 1_555 1_555
C3 H1 1_555 1_555
C4 C3 1_555 1_555
H2 C4 1_555 1_555
C5 H3 1_555 1_555
C6 C2 1_555 1_555
H4 C6 1_555 1_555
N1 C4 1_555 1_555
N2 Ag1 1_555 1_555
N3 C7 1_555 1_555
N4 C10 1_555 1_555
N5 C8 1_555 1_555
C7 N2 1_555 1_555
H5 C7 1_555 1_555
H6 C7 1_555 1_555
C8 N3 1_555 1_555
H7 C8 1_555 1_555
H8 C8 1_555 1_555
C9 N2 1_555 1_555
H9 C9 1_555 1_555
H10 C9 1_555 1_555
C10 N2 1_555 1_555
H11 C10 1_555 1_555
H12 C10 1_555 1_555
C11 N3 1_555 1_555
H13 C11 1_555 1_555
H14 C11 1_555 1_555
C12 N4 1_555 1_555
H15 C12 1_555 1_555
H16 C12 1_555 1_555
O3 H17 1_555 1_555
N1B Ag1 1_555 1_555
N5G Ag1 1_555 1_555
Ag1B N1 1_555 1_555
Ag1G N5 1_555 1_555
H17A O3 1_555 1_555
C5 C6 1_555 1_555
C5 N1 1_555 1_555
N4 C11 1_555 1_555
N5 C9 1_555 1_555
N5 C12 1_555 1_555

#END
