
#######################################################################
#
#                 Cambridge Crystallographic Data Centre
#                                CCDC 
#
#######################################################################
#
# If this CIF has been generated from an entry in the Cambridge 
# Structural Database, then it will include bibliographic, chemical, 
# crystal, experimental, refinement or atomic coordinate data resulting 
# from the CCDC's data processing and validation procedures.
#
#######################################################################

data_QIGDIT
_symmetry_cell_setting           monoclinic
_symmetry_space_group_name_H-M   'C 2/c'
_symmetry_Int_Tables_number      15
_space_group_name_Hall           '-C 2yn'
loop_
_symmetry_equiv_pos_site_id
_symmetry_equiv_pos_as_xyz
1 x,y,z
2 1/2+x,1/2+y,z
3 x,-y,1/2+z
4 1/2+x,1/2-y,1/2+z
5 -x,-y,-z
6 1/2-x,1/2-y,-z
7 -x,y,1/2-z
8 1/2-x,1/2+y,1/2-z
_cell_length_a                   16.7253(6)
_cell_length_b                   9.2540(3)
_cell_length_c                   31.2982(9)
_cell_angle_alpha                90
_cell_angle_beta                 98.59
_cell_angle_gamma                90
_cell_volume                     4789.87
loop_
_atom_site_label
_atom_site_type_symbol
_atom_site_fract_x
_atom_site_fract_y
_atom_site_fract_z
Zn1 Zn -0.52305(5) 0.13449(9) 0.36116(3)
Zn2 Zn -0.84866(5) 0.13594(9) 0.35957(3)
O1 O -0.6089(3) 0.0692(5) 0.3988(2)
O2 O -0.6291(3) 0.1950(6) 0.3210(2)
O3 O -0.4264(3) 0.0245(6) 0.3978(2)
O4 O -0.4997(3) 0.3267(5) 0.3967(2)
O5 O -0.4481(3) 0.2440(5) 0.3234(2)
O6 O -0.5207(3) -0.0575(5) 0.3243(2)
O7 O -0.3533(3) -0.1768(5) 0.3955(2)
O8 O -0.7430(3) 0.0663(6) 0.3977(2)
O9 O -0.3748(3) 0.4455(5) 0.3239(2)
O10 O -0.7629(3) 0.2031(6) 0.3211(2)
O11 O -0.4420(3) -0.2504(5) 0.3199(2)
O12 O -0.4276(3) 0.5300(5) 0.3968(2)
C1 C -0.6802(4) 0.0972(7) 0.3821(2)
C2 C -0.6922(5) 0.1737(7) 0.3379(2)
C3 C -0.4087(4) -0.0921(8) 0.3809(2)
C4 C -0.4528(4) 0.4104(8) 0.3816(2)
C5 C -0.4221(4) 0.3628(8) 0.3395(2)
C6 C -0.4616(4) -0.1364(8) 0.3378(2)
Zn2A Zn -0.34866(5) -0.36406(9) 0.35957(3)
Zn2A_2 Zn -0.34866(5) 0.63594(9) 0.35957(3)
O7A O -0.8533(3) 0.3232(5) 0.3955(2)
O9A O -0.8748(3) -0.0545(5) 0.3239(2)
O11A O -0.9420(3) 0.2496(5) 0.3199(2)
O12A O -0.9276(3) 0.0300(5) 0.3968(2)
O13 O -0.6298(4) 0.0693(7) 0.2321(2)
O14 O -0.3337(4) -0.5685(9) 0.0905(2)
O15 O -0.4875(9) 0.1270(19) 0.4940(8)
O16 O -0.5126(8) -0.3950(14) 0.4677(4)
C7 C -0.3797(5) -0.4450(9) 0.1891(3)
H1 H -0.3861(5) -0.5489(9) 0.1909(3)
H2 H -0.4257(5) -0.4076(9) 0.1698(3)
C8 C -0.3796(5) -0.3811(9) 0.2331(3)
H3 H -0.4315(5) -0.3984(9) 0.2425(3)
H4 H -0.3383(5) -0.4276(9) 0.2536(3)
C9 C -0.2891(5) -0.1903(9) 0.2140(3)
H5 H -0.2424(5) -0.2276(9) 0.2329(3)
H6 H -0.2829(5) -0.0865(9) 0.2117(3)
C10 C -0.2940(6) -0.2580(10) 0.1701(3)
H7 H -0.3383(6) -0.2145(10) 0.1509(3)
H8 H -0.2444(6) -0.2379(10) 0.1586(3)
N1 N -0.3638(4) -0.2232(7) 0.2326(2)
H17 H -0.3588(4) -0.1887(7) 0.2598(2)
H18 H -0.4062(4) -0.1786(7) 0.2169(2)
N2 N -0.3062(4) -0.4138(8) 0.1711(2)
H19 H -0.3104(4) -0.4498(8) 0.1441(2)
H20 H -0.2636(4) -0.4559(8) 0.1873(2)
C11 C -0.3121(7) -0.3585(10) 0.4950(3)
H9 H -0.3539(7) -0.4114(10) 0.5067(3)
H10 H -0.3122(7) -0.3902(10) 0.4654(3)
C12 C -0.2368(5) -0.3890(8) 0.5194(2)
H11 H -0.2389(5) -0.3661(8) 0.5495(2)
H12 H -0.2259(5) -0.4916(8) 0.5175(2)
N3 N -0.3310(7) -0.1940(12) 0.4954(3)
H21 H -0.3775(7) -0.1756(12) 0.4777(3)
H22 H -0.3370(7) -0.1662(12) 0.5222(3)
N3E N -0.1690(7) -0.3060(12) 0.5046(3)
C11E C -0.1879(7) -0.1415(10) 0.5050(3)
H9E H -0.1461(7) -0.0886(10) 0.4933(3)
H10E H -0.1878(7) -0.1098(10) 0.5346(3)
C12E C -0.2632(5) -0.1110(8) 0.4806(2)
H11E H -0.2611(5) -0.1339(8) 0.4505(2)
H12E H -0.2741(5) -0.0084(8) 0.4825(2)
H21E H -0.1225(7) -0.3244(12) 0.5223(3)
H22E H -0.1630(7) -0.3338(12) 0.4778(3)
C13 C -0.3016(9) 0.2203(14) 0.5313(4)
H13 H -0.3206(9) 0.1536(14) 0.5514(4)
H14 H -0.3295(9) 0.3116(14) 0.5328(4)
C14 C -0.2124(9) 0.2422(13) 0.5428(4)
H15 H -0.1851(9) 0.1496(13) 0.5434(4)
H16 H -0.2007(9) 0.2847(13) 0.5714(4)
N4 N -0.3180(6) 0.1633(10) 0.4884(3)
H23 H -0.3718(6) 0.1522(10) 0.4810(3)
H24 H -0.2948(6) 0.0758(10) 0.4878(3)
N4E N -0.1820(6) 0.3367(10) 0.5116(3)
C13E C -0.1984(9) 0.2797(14) 0.4687(4)
H13E H -0.1794(9) 0.3464(14) 0.4486(4)
H14E H -0.1705(9) 0.1884(14) 0.4672(4)
C14E C -0.2876(9) 0.2578(13) 0.4572(4)
H15E H -0.3149(9) 0.3504(13) 0.4566(4)
H16E H -0.2993(9) 0.2153(13) 0.4286(4)
H23E H -0.1282(6) 0.3478(10) 0.5190(3)
H24E H -0.2052(6) 0.4242(10) 0.5122(3)
loop_
_geom_bond_atom_site_label_1
_geom_bond_atom_site_label_2
_geom_bond_site_symmetry_1
_geom_bond_site_symmetry_2
Zn1 O1 1_555 1_555
Zn2 O8 1_555 1_555
O1 C1 1_555 1_555
O2 Zn1 1_555 1_555
O3 Zn1 1_555 1_555
O4 Zn1 1_555 1_555
O5 Zn1 1_555 1_555
O6 Zn1 1_555 1_555
O7 C3 1_555 1_555
O8 C1 1_555 1_555
O9 C5 1_555 1_555
O10 Zn2 1_555 1_555
O11 C6 1_555 1_555
O12 C4 1_555 1_555
C1 C2 1_555 1_555
C2 O2 1_555 1_555
C3 O3 1_555 1_555
C4 O4 1_555 1_555
C5 O5 1_555 1_555
C6 O6 1_555 1_555
C7 H1 1_555 1_555
H2 C7 1_555 1_555
C8 C7 1_555 1_555
H3 C8 1_555 1_555
H4 C8 1_555 1_555
C9 H5 1_555 1_555
H6 C9 1_555 1_555
C10 C9 1_555 1_555
H7 C10 1_555 1_555
H8 C10 1_555 1_555
C11 H9 1_555 1_555
H10 C11 1_555 1_555
C12 C11 1_555 1_555
H11 C12 1_555 1_555
H12 C12 1_555 1_555
C13 H13 1_555 1_555
H14 C13 1_555 1_555
C14 C13 1_555 1_555
H15 C14 1_555 1_555
H16 C14 1_555 1_555
N1 C8 1_555 1_555
H17 N1 1_555 1_555
H18 N1 1_555 1_555
N2 C7 1_555 1_555
H19 N2 1_555 1_555
H20 N2 1_555 1_555
N3 C11 1_555 1_555
H21 N3 1_555 1_555
H22 N3 1_555 1_555
N4 C13 1_555 1_555
H23 N4 1_555 1_555
H24 N4 1_555 1_555
N3E C12 1_555 1_555
C11E N3E 1_555 1_555
H9E C11E 1_555 1_555
H10E C11E 1_555 1_555
C12E N3 1_555 1_555
H11E C12E 1_555 1_555
H12E C12E 1_555 1_555
H21E N3E 1_555 1_555
H22E N3E 1_555 1_555
N4E C14 1_555 1_555
C13E N4E 1_555 1_555
H13E C13E 1_555 1_555
H14E C13E 1_555 1_555
C14E N4 1_555 1_555
H15E C14E 1_555 1_555
H16E C14E 1_555 1_555
H23E N4E 1_555 1_555
H24E N4E 1_555 1_555
Zn2A O7 1_555 1_555
Zn2A_2 O9 1_555 1_555
O7A Zn2 1_555 1_555
O9A Zn2 1_555 1_555
O11A Zn2 1_555 1_555
O12A Zn2 1_555 1_555
O10 C2 1_555 1_555
O11 Zn2A 1_555 1_555
O12 Zn2A_2 1_555 1_555
C3 C6 1_555 1_555
C4 C5 1_555 1_555
C9 N1 1_555 1_555
C10 N2 1_555 1_555
C11E C12E 1_555 1_555
C13E C14E 1_555 1_555

#END
