
#######################################################################
#
#                 Cambridge Crystallographic Data Centre
#                                CCDC 
#
#######################################################################
#
# If this CIF has been generated from an entry in the Cambridge 
# Structural Database, then it will include bibliographic, chemical, 
# crystal, experimental, refinement or atomic coordinate data resulting 
# from the CCDC's data processing and validation procedures.
#
#######################################################################

data_QIGFER
_symmetry_cell_setting           monoclinic
_symmetry_space_group_name_H-M   'P 21/n'
_symmetry_Int_Tables_number      14
_space_group_name_Hall           '-P 2yn'
loop_
_symmetry_equiv_pos_site_id
_symmetry_equiv_pos_as_xyz
1 x,y,z
2 1/2-x,1/2+y,1/2-z
3 -x,-y,-z
4 1/2+x,1/2-y,1/2+z
_cell_length_a                   6.6222(8)
_cell_length_b                   10.5537(3)
_cell_length_c                   13.2204(17)
_cell_angle_alpha                90
_cell_angle_beta                 102.718(7)
_cell_angle_gamma                90
_cell_volume                     901.288
loop_
_atom_site_label
_atom_site_type_symbol
_atom_site_fract_x
_atom_site_fract_y
_atom_site_fract_z
Cu1 Cu 0.5000 0.5000 0.5000
O1 O 0.3346(2) 0.6312(1) 0.4234(1)
C1 C 0.1810(3) 0.6847(2) 0.4448(1)
C2 C 0.0941(3) 0.6623(2) 0.5324(1)
C3 C 0.1893(3) 0.5729(2) 0.6079(1)
O2 O 0.3500(2) 0.5099(1) 0.6090(1)
O3 O 0.0827(2) 0.7714(1) 0.3773(1)
C4 C 0.1708(4) 0.7933(2) 0.2870(2)
O4 O 0.0996(2) 0.5599(1) 0.6892(1)
C5 C 0.2004(4) 0.4746(2) 0.7702(2)
C6 C -0.0937(3) 0.7288(2) 0.5469(1)
O5 O -0.2437(2) 0.6804(1) 0.5703(1)
O6 O -0.0809(2) 0.8549(1) 0.5338(1)
C7 C -0.2630(4) 0.9261(2) 0.5401(2)
O1B O 0.6654(2) 0.3688(1) 0.5766(1)
C1B C 0.8190(3) 0.3153(2) 0.5552(1)
C2B C 0.9059(3) 0.3377(2) 0.4676(1)
C3B C 0.8107(3) 0.4271(2) 0.3921(1)
O2B O 0.6500(2) 0.4901(1) 0.3910(1)
O3B O 0.9173(2) 0.2286(1) 0.6227(1)
C4B C 0.8292(4) 0.2067(2) 0.7130(2)
O4B O 0.9004(2) 0.4401(1) 0.3108(1)
C5B C 0.7996(4) 0.5254(2) 0.2298(2)
C6B C 1.0937(3) 0.2712(2) 0.4531(1)
O5B O 1.2437(2) 0.3196(1) 0.4297(1)
O6B O 1.0809(2) 0.1451(1) 0.4662(1)
C7B C 1.2630(4) 0.0739(2) 0.4599(2)
O5_2 O 0.7563(2) 0.6804(1) 0.5703(1)
O5B_2 O 0.2437(2) 0.3196(1) 0.4297(1)
Cu1_2 Cu -0.5000 0.5000 0.5000
Cu1_3 Cu 1.5000 0.5000 0.5000
loop_
_geom_bond_atom_site_label_1
_geom_bond_atom_site_label_2
_geom_bond_site_symmetry_1
_geom_bond_site_symmetry_2
Cu1 O1 1_555 1_555
O1 C1 1_555 1_555
C1 C2 1_555 1_555
C2 C3 1_555 1_555
C3 O2 1_555 1_555
O2 Cu1 1_555 1_555
O3 C1 1_555 1_555
C4 O3 1_555 1_555
O4 C3 1_555 1_555
C5 O4 1_555 1_555
C6 C2 1_555 1_555
O5 C6 1_555 1_555
O6 C6 1_555 1_555
C7 O6 1_555 1_555
O1B Cu1 1_555 1_555
C1B O1B 1_555 1_555
C2B C1B 1_555 1_555
C3B C2B 1_555 1_555
O2B Cu1 1_555 1_555
O3B C1B 1_555 1_555
C4B O3B 1_555 1_555
O4B C3B 1_555 1_555
C5B O4B 1_555 1_555
C6B C2B 1_555 1_555
O5B C6B 1_555 1_555
O6B C6B 1_555 1_555
C7B O6B 1_555 1_555
O5_2 Cu1 1_555 1_555
O5B_2 Cu1 1_555 1_555
Cu1_2 O5 1_555 1_555
Cu1_3 O5B 1_555 1_555
C3B O2B 1_555 1_555

#END
