
#######################################################################
#
#                 Cambridge Crystallographic Data Centre
#                                CCDC 
#
#######################################################################
#
# If this CIF has been generated from an entry in the Cambridge 
# Structural Database, then it will include bibliographic, chemical, 
# crystal, experimental, refinement or atomic coordinate data resulting 
# from the CCDC's data processing and validation procedures.
#
#######################################################################

data_QIHQUV
_symmetry_cell_setting           monoclinic
_symmetry_space_group_name_H-M   'P 21/c'
_symmetry_Int_Tables_number      14
_space_group_name_Hall           '-P 2ybc'
loop_
_symmetry_equiv_pos_site_id
_symmetry_equiv_pos_as_xyz
1 x,y,z
2 -x,1/2+y,1/2-z
3 -x,-y,-z
4 x,1/2-y,1/2+z
_cell_length_a                   11.580(3)
_cell_length_b                   20.021(5)
_cell_length_c                   13.875(3)
_cell_angle_alpha                90
_cell_angle_beta                 103.236(4)
_cell_angle_gamma                90
_cell_volume                     3131.37
loop_
_atom_site_label
_atom_site_type_symbol
_atom_site_fract_x
_atom_site_fract_y
_atom_site_fract_z
Cu1 Cu 1.07412(5) 0.22059(3) 0.33560(4)
Cu2 Cu 0.98263(7) 0.22417(3) 0.09615(5)
N1 N 0.9643(4) 0.3000(2) 0.3135(3)
N2 N 0.9070(4) 0.1708(2) 0.3039(3)
N3 N 0.9433(5) 0.3208(2) 0.0807(4)
N4 N 0.8046(5) 0.2148(2) 0.0489(3)
O1 O 1.1005(6) 0.2449(2) -0.0102(3)
O2 O 1.2536(6) 0.2252(3) -0.0682(3)
O3 O 1.1275(3) 0.22957(14) 0.2023(2)
O4 O 1.1526(3) 0.13673(16) 0.3702(3)
O5 O 1.3154(3) 0.07608(17) 0.3995(3)
O6 O 1.0151(3) 0.12946(16) 0.0990(3)
O7 O 1.1722(3) 0.06282(16) 0.1308(3)
C1 C 0.9956(7) 0.3639(3) 0.3232(5)
H1 H 1.0759 0.3745 0.3366
C2 C 0.9145(8) 0.4153(3) 0.3143(5)
H2 H 0.9404 0.4594 0.3202
C3 C 0.7985(7) 0.4015(3) 0.2970(4)
H3 H 0.7439 0.4361 0.2919
C4 C 0.7585(6) 0.3347(4) 0.2863(4)
C5 C 0.6394(7) 0.3142(5) 0.2687(5)
H4 H 0.5805 0.3466 0.2618
C6 C 0.6080(6) 0.2503(5) 0.2615(5)
H5 H 0.5280 0.2393 0.2485
C7 C 0.6955(5) 0.1972(4) 0.2736(4)
C8 C 0.6739(7) 0.1289(5) 0.2687(5)
H6 H 0.5960 0.1139 0.2573
C9 C 0.7636(7) 0.0831(4) 0.2802(5)
H7 H 0.7473 0.0376 0.2769
C10 C 0.8824(6) 0.1066(3) 0.2971(4)
H8 H 0.9440 0.0759 0.3035
C11 C 0.8152(5) 0.2156(3) 0.2910(3)
C12 C 0.8468(5) 0.2849(3) 0.2969(4)
C13 C 1.0183(8) 0.3716(3) 0.0916(5)
H9 H 1.0994 0.3630 0.1077
C14 C 0.9790(9) 0.4374(3) 0.0797(5)
H10 H 1.0337 0.4722 0.0877
C15 C 0.8628(9) 0.4508(3) 0.0569(5)
H11 H 0.8371 0.4949 0.0510
C16 C 0.7789(7) 0.3986(4) 0.0416(4)
C17 C 0.6541(9) 0.4047(5) 0.0166(6)
H12 H 0.6212 0.4473 0.0090
C18 C 0.5805(8) 0.3518(5) 0.0034(5)
H13 H 0.4988 0.3584 -0.0122
C19 C 0.6279(7) 0.2846(4) 0.0134(4)
C20 C 0.5594(7) 0.2270(5) -0.0009(5)
H14 H 0.4771 0.2304 -0.0176
C21 C 0.6120(7) 0.1647(4) 0.0096(5)
H15 H 0.5662 0.1260 0.0005
C22 C 0.7372(6) 0.1611(4) 0.0345(4)
H16 H 0.7733 0.1193 0.0410
C23 C 0.7511(6) 0.2764(3) 0.0382(4)
C24 C 0.8262(7) 0.3329(3) 0.0550(4)
C25 C 1.2049(9) 0.2243(3) 0.0017(5)
C26 C 1.2712(5) 0.2028(3) 0.1030(4)
H17 H 1.3205 0.2400 0.1324
H18 H 1.3244 0.1670 0.0943
C27 C 1.2022(4) 0.1787(2) 0.1798(3)
C28 C 1.2957(4) 0.1569(2) 0.2721(3)
H19 H 1.3528 0.1285 0.2506
H20 H 1.3378 0.1965 0.3015
C29 C 1.2516(4) 0.1203(2) 0.3519(3)
C30 C 1.1265(5) 0.1178(2) 0.1337(3)
Cu1C Cu 1.07412(5) 0.27941(3) -0.16440(4)
O1C O 1.1005(6) 0.2551(2) 0.4898(3)
O2C O 1.2536(6) 0.2748(3) 0.4318(3)
O8 O 0.4613(8) 0.0282(4) 0.1168(5)
H21 H 0.4618 0.0183 0.1765
H22 H 0.5172 0.0369 0.0920
O9 O 0.3283(5) 0.0705(3) 0.6080(3)
H23 H 0.2934 0.0718 0.5485
H24 H 0.3606 0.1072 0.6253
O10 O 0.3068(7) 0.1497(3) 0.7634(5)
H25 H 0.2583 0.1818 0.7472
H26 H 0.3612 0.1315 0.8053
O11 O 0.6646(6) 0.9519(4) 0.0879(5)
H27 H 0.6114 0.9790 0.0912
H28 H 0.7272 0.9716 0.0845
O12 O 0.4635(4) -0.0016(2) 0.3054(4)
H29 H 0.4217 0.0174 0.3382
H30 H 0.5261 -0.0156 0.3405
O13 O 0.1292(4) 0.9918(2) 0.9513(4)
H31 H 0.1237 1.0132 1.0013
H32 H 0.0793 0.9612 0.9399
loop_
_geom_bond_atom_site_label_1
_geom_bond_atom_site_label_2
_geom_bond_site_symmetry_1
_geom_bond_site_symmetry_2
Cu1 N1 1_555 1_555
Cu2 N3 1_555 1_555
N1 C1 1_555 1_555
N2 Cu1 1_555 1_555
N3 C13 1_555 1_555
N4 Cu2 1_555 1_555
O1 Cu2 1_555 1_555
O2 C25 1_555 1_555
O3 Cu1 1_555 1_555
O4 Cu1 1_555 1_555
O5 C29 1_555 1_555
O6 Cu2 1_555 1_555
O7 C30 1_555 1_555
C1 H1 1_555 1_555
C2 C1 1_555 1_555
H2 C2 1_555 1_555
C3 C2 1_555 1_555
H3 C3 1_555 1_555
C4 C3 1_555 1_555
C5 C4 1_555 1_555
H4 C5 1_555 1_555
C6 C5 1_555 1_555
H5 C6 1_555 1_555
C7 C6 1_555 1_555
C8 C7 1_555 1_555
H6 C8 1_555 1_555
C9 C8 1_555 1_555
H7 C9 1_555 1_555
C10 N2 1_555 1_555
H8 C10 1_555 1_555
C11 N2 1_555 1_555
C12 N1 1_555 1_555
C13 H9 1_555 1_555
C14 C13 1_555 1_555
H10 C14 1_555 1_555
C15 C14 1_555 1_555
H11 C15 1_555 1_555
C16 C15 1_555 1_555
C17 C16 1_555 1_555
H12 C17 1_555 1_555
C18 C17 1_555 1_555
H13 C18 1_555 1_555
C19 C18 1_555 1_555
C20 C19 1_555 1_555
H14 C20 1_555 1_555
C21 C20 1_555 1_555
H15 C21 1_555 1_555
C22 N4 1_555 1_555
H16 C22 1_555 1_555
C23 N4 1_555 1_555
C24 N3 1_555 1_555
C25 O1 1_555 1_555
C26 C25 1_555 1_555
H17 C26 1_555 1_555
H18 C26 1_555 1_555
C27 O3 1_555 1_555
C28 C27 1_555 1_555
H19 C28 1_555 1_555
H20 C28 1_555 1_555
C29 O4 1_555 1_555
C30 O6 1_555 1_555
O8 H21 1_555 1_555
H22 O8 1_555 1_555
O9 H23 1_555 1_555
H24 O9 1_555 1_555
O10 H25 1_555 1_555
H26 O10 1_555 1_555
O11 H27 1_555 1_555
H28 O11 1_555 1_555
O12 H29 1_555 1_555
H30 O12 1_555 1_555
O13 H31 1_555 1_555
H32 O13 1_555 1_555
Cu1C O1 1_555 1_555
O1C Cu1 1_555 1_555
O2C Cu1 1_555 1_555
Cu2 O3 1_555 1_555
O2 Cu1C 1_555 1_555
C4 C12 1_555 1_555
C7 C11 1_555 1_555
C9 C10 1_555 1_555
C11 C12 1_555 1_555
C16 C24 1_555 1_555
C19 C23 1_555 1_555
C21 C22 1_555 1_555
C23 C24 1_555 1_555
C26 C27 1_555 1_555
C27 C30 1_555 1_555
C28 C29 1_555 1_555

#END
