
#######################################################################
#
#                 Cambridge Crystallographic Data Centre
#                                CCDC 
#
#######################################################################
#
# If this CIF has been generated from an entry in the Cambridge 
# Structural Database, then it will include bibliographic, chemical, 
# crystal, experimental, refinement or atomic coordinate data resulting 
# from the CCDC's data processing and validation procedures.
#
#######################################################################

data_QIHQIJ
_symmetry_cell_setting           orthorhombic
_symmetry_space_group_name_H-M   'P n m a'
_symmetry_Int_Tables_number      62
_space_group_name_Hall           '-P 2ac 2n'
loop_
_symmetry_equiv_pos_site_id
_symmetry_equiv_pos_as_xyz
1 x,y,z
2 1/2-x,-y,1/2+z
3 -x,1/2+y,-z
4 1/2+x,1/2-y,1/2-z
5 -x,-y,-z
6 1/2+x,y,1/2-z
7 x,1/2-y,z
8 1/2-x,1/2+y,1/2+z
_cell_length_a                   18.199(4)
_cell_length_b                   23.390(5)
_cell_length_c                   5.7415(11)
_cell_angle_alpha                90
_cell_angle_beta                 90
_cell_angle_gamma                90
_cell_volume                     2444.01
loop_
_atom_site_label
_atom_site_type_symbol
_atom_site_fract_x
_atom_site_fract_y
_atom_site_fract_z
Cu1 Cu 0.06660(4) 0.7500 0.16934(13)
S1 S 0.17102(9) 0.7500 0.4127(3)
N1 N -0.06662(19) 0.69917(16) 0.3999(6)
N2 N -0.01314(19) 0.68730(16) 0.2395(6)
C1 C -0.1079(3) 0.6251(2) 0.2046(8)
C2 C -0.1247(2) 0.6626(2) 0.3804(8)
C3 C -0.0384(2) 0.6420(2) 0.1216(7)
C4 C -0.0576(4) 0.7500 0.5390(10)
H1 H -0.0085 0.7500 0.6093
H2 H -0.0938 0.7500 0.6652
C5 C -0.1426(3) 0.5207(2) 0.2759(8)
C6 C 0.0058(3) 0.6176(2) -0.0739(8)
H3 H -0.0139 0.6309 -0.2212
H4 H 0.0034 0.5761 -0.0684
H5 H 0.0565 0.6298 -0.0590
C7 C -0.1776(3) 0.4705(2) 0.2124(9)
H6 H -0.2074 0.4699 0.0787
C8 C -0.1693(3) 0.4215(2) 0.3429(10)
H7 H -0.1932 0.3878 0.2955
C9 C -0.1275(3) 0.4207(2) 0.5380(9)
H8 H -0.1221 0.3872 0.6268
C10 C -0.1526(3) 0.5744(2) 0.1309(9)
H9 H -0.1403 0.5653 -0.0311
H10 H -0.2046 0.5851 0.1352
C11 C -0.0999(4) 0.5194(3) 0.4720(9)
H11 H -0.0749 0.5527 0.5186
C12 C -0.0931(4) 0.4707(3) 0.6015(11)
H12 H -0.0642 0.4713 0.7371
C13 C -0.1909(3) 0.6660(3) 0.5333(10)
H13 H -0.1756 0.6718 0.6934
H14 H -0.2186 0.6306 0.5217
H15 H -0.2216 0.6977 0.4841
C14 C 0.1359(3) 0.7500 0.6771(10)
N3 N 0.1101(3) 0.7500 0.8616(9)
N1F N -0.06662(19) 0.80083(16) 0.3999(6)
N2F N -0.01314(19) 0.81270(16) 0.2395(6)
C1F C -0.1079(3) 0.8749(2) 0.2046(8)
C2F C -0.1247(2) 0.8374(2) 0.3804(8)
C3F C -0.0384(2) 0.8580(2) 0.1216(7)
C5F C -0.1426(3) 0.9793(2) 0.2759(8)
C6F C 0.0058(3) 0.8824(2) -0.0739(8)
H3F H -0.0139 0.8691 -0.2212
H4F H 0.0034 0.9239 -0.0684
H5F H 0.0565 0.8702 -0.0590
C7F C -0.1776(3) 1.0295(2) 0.2124(9)
H6F H -0.2074 1.0301 0.0787
C8F C -0.1693(3) 1.0785(2) 0.3429(10)
H7F H -0.1932 1.1122 0.2955
C9F C -0.1275(3) 1.0793(2) 0.5380(9)
H8F H -0.1221 1.1128 0.6268
C10F C -0.1526(3) 0.9256(2) 0.1309(9)
H9F H -0.1403 0.9347 -0.0311
H10F H -0.2046 0.9149 0.1352
C11F C -0.0999(4) 0.9806(3) 0.4720(9)
H11F H -0.0749 0.9473 0.5186
C12F C -0.0931(4) 1.0293(3) 0.6015(11)
H12F H -0.0642 1.0287 0.7371
C13F C -0.1909(3) 0.8340(3) 0.5333(10)
H13F H -0.1756 0.8282 0.6934
H14F H -0.2186 0.8694 0.5217
H15F H -0.2216 0.8023 0.4841
Cu1_2 Cu 0.06660(4) 0.7500 1.16934(13)
N3_2 N 0.1101(3) 0.7500 -0.1384(9)
loop_
_geom_bond_atom_site_label_1
_geom_bond_atom_site_label_2
_geom_bond_site_symmetry_1
_geom_bond_site_symmetry_2
Cu1 S1 1_555 1_555
S1 C14 1_555 1_555
N1 N2 1_555 1_555
N2 Cu1 1_555 1_555
C1 C2 1_555 1_555
C2 N1 1_555 1_555
C3 N2 1_555 1_555
C4 N1 1_555 1_555
H1 C4 1_555 1_555
H2 C4 1_555 1_555
C5 C7 1_555 1_555
C6 C3 1_555 1_555
H3 C6 1_555 1_555
H4 C6 1_555 1_555
H5 C6 1_555 1_555
C7 H6 1_555 1_555
C8 C7 1_555 1_555
H7 C8 1_555 1_555
C9 C8 1_555 1_555
H8 C9 1_555 1_555
C10 C1 1_555 1_555
H9 C10 1_555 1_555
H10 C10 1_555 1_555
C11 C5 1_555 1_555
H11 C11 1_555 1_555
C12 C9 1_555 1_555
H12 C12 1_555 1_555
C13 C2 1_555 1_555
H13 C13 1_555 1_555
H14 C13 1_555 1_555
H15 C13 1_555 1_555
C14 N3 1_555 1_555
N3 Cu1_2 1_555 1_555
N1F C4 1_555 1_555
N2F Cu1 1_555 1_555
C1F C2F 1_555 1_555
C2F N1F 1_555 1_555
C3F N2F 1_555 1_555
C5F C7F 1_555 1_555
C6F C3F 1_555 1_555
H3F C6F 1_555 1_555
H4F C6F 1_555 1_555
H5F C6F 1_555 1_555
C7F H6F 1_555 1_555
C8F C7F 1_555 1_555
H7F C8F 1_555 1_555
C9F C8F 1_555 1_555
H8F C9F 1_555 1_555
C10F C1F 1_555 1_555
H9F C10F 1_555 1_555
H10F C10F 1_555 1_555
C11F C5F 1_555 1_555
H11F C11F 1_555 1_555
C12F C9F 1_555 1_555
H12F C12F 1_555 1_555
C13F C2F 1_555 1_555
H13F C13F 1_555 1_555
H14F C13F 1_555 1_555
H15F C13F 1_555 1_555
N3_2 Cu1 1_555 1_555
C1 C3 1_555 1_555
C5 C10 1_555 1_555
C11 C12 1_555 1_555
N1F N2F 1_555 1_555
C1F C3F 1_555 1_555
C5F C10F 1_555 1_555
C11F C12F 1_555 1_555

#END
