
#######################################################################
#
#                 Cambridge Crystallographic Data Centre
#                                CCDC 
#
#######################################################################
#
# If this CIF has been generated from an entry in the Cambridge 
# Structural Database, then it will include bibliographic, chemical, 
# crystal, experimental, refinement or atomic coordinate data resulting 
# from the CCDC's data processing and validation procedures.
#
#######################################################################

data_QIHVEI
_symmetry_cell_setting           monoclinic
_symmetry_space_group_name_H-M   'P 21/c'
_symmetry_Int_Tables_number      14
_space_group_name_Hall           '-P 2ybc'
loop_
_symmetry_equiv_pos_site_id
_symmetry_equiv_pos_as_xyz
1 x,y,z
2 x,1/2-y,1/2+z
3 -x,-y,-z
4 -x,1/2+y,1/2-z
_cell_length_a                   15.529(3)
_cell_length_b                   14.770(3)
_cell_length_c                   10.477(2)
_cell_angle_alpha                90
_cell_angle_beta                 92.02(3)
_cell_angle_gamma                90
_cell_volume                     2401.55
loop_
_atom_site_label
_atom_site_type_symbol
_atom_site_fract_x
_atom_site_fract_y
_atom_site_fract_z
Ni1 Ni 0.23327(3) 0.47906(3) 0.20088(5)
V1 V 0.31294(4) 0.69860(4) 0.31442(6)
V2 V 0.25034(4) 0.64316(4) 0.60422(6)
V3 V 0.08534(4) 0.55778(4) 0.42474(6)
O1 O 0.2776(2) 0.6022(2) 0.2578(3)
O2 O 0.3049(2) 0.7001(3) 0.4861(3)
O3 O 0.4132(2) 0.7112(2) 0.2835(3)
O4 O 0.2499(2) 0.7895(2) 0.2419(3)
O5 O 0.2988(3) 0.5513(3) 0.6370(4)
O6 O 0.1460(2) 0.6210(3) 0.5473(3)
O7 O 0.1473(2) 0.4858(2) 0.3493(3)
O8 O 0.00000 0.5000 0.5000
O9 O 0.0463(2) 0.6304(2) 0.3235(3)
N1 N 0.3259(2) 0.4165(2) 0.3157(3)
N2 N 0.3345(2) 0.4618(2) 0.0717(3)
N3 N 0.1778(2) 0.3613(2) 0.1252(3)
N4 N 0.1510(2) 0.5317(2) 0.0616(3)
C1 C 0.3211(3) 0.4035(3) 0.4415(4)
H1 H 0.2699 0.4165 0.4811
C2 C 0.3907(4) 0.3710(4) 0.5147(5)
H2 H 0.3855 0.3611 0.6018
C3 C 0.4663(4) 0.3538(4) 0.4583(5)
H3 H 0.5136 0.3331 0.5069
C4 C 0.4731(3) 0.3670(4) 0.3285(5)
H4 H 0.5245 0.3560 0.2884
C5 C 0.4643(3) 0.3788(4) 0.0436(5)
H5 H 0.5082 0.3428 0.0789
C6 C 0.4618(4) 0.3988(4) -0.0860(5)
H6 H 0.5036 0.3765 -0.1391
C7 C 0.3965(3) 0.4523(4) -0.1335(5)
H7 H 0.3940 0.4681 -0.2195
C8 C 0.3340(3) 0.4827(3) -0.0528(4)
H8 H 0.2900 0.5192 -0.0863
C9 C 0.4008(3) 0.3971(3) 0.2599(4)
C10 C 0.4008(3) 0.4129(3) 0.1197(4)
C11 C 0.1891(3) 0.2775(3) 0.1681(5)
H9 H 0.2221 0.2684 0.2428
C12 C 0.1532(4) 0.2021(3) 0.1049(5)
H10 H 0.1616 0.1441 0.1373
C13 C 0.1054(4) 0.2160(3) -0.0056(5)
H11 H 0.0814 0.1670 -0.0498
C14 C 0.0928(3) 0.3027(3) -0.0512(5)
H12 H 0.0606 0.3127 -0.1263
C15 C 0.0738(3) 0.4967(3) -0.1330(4)
H13 H 0.0512 0.4537 -0.1897
C16 C 0.0650(3) 0.5886(4) -0.1596(4)
H14 H 0.0366 0.6076 -0.2345
C17 C 0.0982(3) 0.6505(3) -0.0750(4)
H15 H 0.0922 0.7121 -0.0912
C18 C 0.1413(3) 0.6207(3) 0.0357(4)
H16 H 0.1640 0.6631 0.0933
C19 C 0.1290(3) 0.3750(3) 0.0164(4)
C20 C 0.1164(3) 0.4704(3) -0.0217(4)
V2A V 0.25034(4) 0.85684(4) 0.10422(6)
V3B V -0.08534(4) 0.44222(4) 0.57526(6)
O4A O 0.2499(2) 0.7105(2) 0.7419(3)
O6B O -0.1460(2) 0.3790(3) 0.4527(3)
O7B O -0.1473(2) 0.5142(2) 0.6507(3)
O9B O -0.0463(2) 0.3696(2) 0.6765(3)
Ni1B Ni -0.23327(3) 0.52094(3) 0.79912(5)
V1A V 0.31294(4) 0.80140(4) 0.81442(6)
O1B O -0.2776(2) 0.3978(2) 0.7422(3)
N1B N -0.3259(2) 0.5835(2) 0.6843(3)
N2B N -0.3345(2) 0.5382(2) 0.9283(3)
C1B C -0.3211(3) 0.5965(3) 0.5585(4)
H1B H -0.2699 0.5835 0.5189
C2B C -0.3907(4) 0.6290(4) 0.4853(5)
H2B H -0.3855 0.6389 0.3982
C3B C -0.4663(4) 0.6462(4) 0.5417(5)
H3B H -0.5136 0.6669 0.4931
C4B C -0.4731(3) 0.6330(4) 0.6715(5)
H4B H -0.5245 0.6440 0.7116
C5B C -0.4643(3) 0.6212(4) 0.9564(5)
H5B H -0.5082 0.6572 0.9211
C6B C -0.4618(4) 0.6012(4) 1.0860(5)
H6B H -0.5036 0.6235 1.1391
C7B C -0.3965(3) 0.5477(4) 1.1335(5)
H7B H -0.3940 0.5319 1.2195
C8B C -0.3340(3) 0.5173(3) 1.0528(4)
H8B H -0.2900 0.4808 1.0863
C9B C -0.4008(3) 0.6029(3) 0.7401(4)
C10B C -0.4008(3) 0.5871(3) 0.8803(4)
N3B N -0.1778(2) 0.6387(2) 0.8748(3)
N4B N -0.1510(2) 0.4683(2) 0.9384(3)
C11B C -0.1891(3) 0.7225(3) 0.8319(5)
H9B H -0.2221 0.7316 0.7572
C12B C -0.1532(4) 0.7979(3) 0.8951(5)
H10B H -0.1616 0.8559 0.8627
C13B C -0.1054(4) 0.7840(3) 1.0056(5)
H11B H -0.0814 0.8330 1.0498
C14B C -0.0928(3) 0.6973(3) 1.0512(5)
H12B H -0.0606 0.6873 1.1263
C15B C -0.0738(3) 0.5033(3) 1.1330(4)
H13B H -0.0512 0.5463 1.1897
C16B C -0.0650(3) 0.4114(4) 1.1596(4)
H14B H -0.0366 0.3924 1.2345
C17B C -0.0982(3) 0.3495(3) 1.0750(4)
H15B H -0.0922 0.2879 1.0912
C18B C -0.1413(3) 0.3793(3) 0.9643(4)
H16B H -0.1640 0.3369 0.9067
C19B C -0.1290(3) 0.6250(3) 0.9836(4)
C20B C -0.1164(3) 0.5296(3) 1.0217(4)
O2A O 0.3049(2) 0.7999(3) -0.0139(3)
O5A O 0.2988(3) 0.9487(3) 0.1370(4)
O6A O 0.1460(2) 0.8790(3) 0.0473(3)
V2B V -0.25034(4) 0.35684(4) 0.39578(6)
O1A O 0.2776(2) 0.8978(2) 0.7578(3)
O2A_2 O 0.3049(2) 0.7999(3) 0.9861(3)
O3A O 0.4132(2) 0.7888(2) 0.7835(3)
V2A_2 V 0.25034(4) 0.85684(4) 1.10422(6)
V1A_2 V 0.31294(4) 0.80140(4) -0.18558(6)
loop_
_geom_bond_atom_site_label_1
_geom_bond_atom_site_label_2
_geom_bond_site_symmetry_1
_geom_bond_site_symmetry_2
Ni1 O1 1_555 1_555
V1 O1 1_555 1_555
V2 O2 1_555 1_555
V3 O6 1_555 1_555
O2 V1 1_555 1_555
O3 V1 1_555 1_555
O4 V1 1_555 1_555
O5 V2 1_555 1_555
O6 V2 1_555 1_555
O7 Ni1 1_555 1_555
O8 V3 1_555 1_555
O9 V3 1_555 1_555
N1 Ni1 1_555 1_555
N2 Ni1 1_555 1_555
N3 Ni1 1_555 1_555
N4 Ni1 1_555 1_555
C1 N1 1_555 1_555
H1 C1 1_555 1_555
C2 C1 1_555 1_555
H2 C2 1_555 1_555
C3 C2 1_555 1_555
H3 C3 1_555 1_555
C4 C3 1_555 1_555
H4 C4 1_555 1_555
C5 H5 1_555 1_555
C6 C5 1_555 1_555
H6 C6 1_555 1_555
C7 C6 1_555 1_555
H7 C7 1_555 1_555
C8 N2 1_555 1_555
H8 C8 1_555 1_555
C9 N1 1_555 1_555
C10 N2 1_555 1_555
C11 N3 1_555 1_555
H9 C11 1_555 1_555
C12 C11 1_555 1_555
H10 C12 1_555 1_555
C13 C12 1_555 1_555
H11 C13 1_555 1_555
C14 C13 1_555 1_555
H12 C14 1_555 1_555
C15 H13 1_555 1_555
C16 C15 1_555 1_555
H14 C16 1_555 1_555
C17 C16 1_555 1_555
H15 C17 1_555 1_555
C18 N4 1_555 1_555
H16 C18 1_555 1_555
C19 N3 1_555 1_555
C20 N4 1_555 1_555
V2A O4 1_555 1_555
V3B O8 1_555 1_555
O4A V2 1_555 1_555
O6B V3B 1_555 1_555
O7B V3B 1_555 1_555
O9B V3B 1_555 1_555
Ni1B O7B 1_555 1_555
V1A O4A 1_555 1_555
O1B Ni1B 1_555 1_555
N1B Ni1B 1_555 1_555
N2B Ni1B 1_555 1_555
C1B N1B 1_555 1_555
H1B C1B 1_555 1_555
C2B C1B 1_555 1_555
H2B C2B 1_555 1_555
C3B C2B 1_555 1_555
H3B C3B 1_555 1_555
C4B C3B 1_555 1_555
H4B C4B 1_555 1_555
C5B H5B 1_555 1_555
C6B C5B 1_555 1_555
H6B C6B 1_555 1_555
C7B C6B 1_555 1_555
H7B C7B 1_555 1_555
C8B N2B 1_555 1_555
H8B C8B 1_555 1_555
C9B N1B 1_555 1_555
C10B N2B 1_555 1_555
N3B Ni1B 1_555 1_555
N4B Ni1B 1_555 1_555
C11B N3B 1_555 1_555
H9B C11B 1_555 1_555
C12B C11B 1_555 1_555
H10B C12B 1_555 1_555
C13B C12B 1_555 1_555
H11B C13B 1_555 1_555
C14B C13B 1_555 1_555
H12B C14B 1_555 1_555
C15B H13B 1_555 1_555
C16B C15B 1_555 1_555
H14B C16B 1_555 1_555
C17B C16B 1_555 1_555
H15B C17B 1_555 1_555
C18B N4B 1_555 1_555
H16B C18B 1_555 1_555
C19B N3B 1_555 1_555
C20B N4B 1_555 1_555
O2A V2A 1_555 1_555
O5A V2A 1_555 1_555
O6A V2A 1_555 1_555
V2B O6B 1_555 1_555
O1A V1A 1_555 1_555
O2A_2 V1A 1_555 1_555
O3A V1A 1_555 1_555
V2A_2 O2A_2 1_555 1_555
V1A_2 O2A 1_555 1_555
V3 O7 1_555 1_555
C4 C9 1_555 1_555
C5 C10 1_555 1_555
C7 C8 1_555 1_555
C9 C10 1_555 1_555
C14 C19 1_555 1_555
C15 C20 1_555 1_555
C17 C18 1_555 1_555
C19 C20 1_555 1_555
C4B C9B 1_555 1_555
C5B C10B 1_555 1_555
C7B C8B 1_555 1_555
C9B C10B 1_555 1_555
C14B C19B 1_555 1_555
C15B C20B 1_555 1_555
C17B C18B 1_555 1_555
C19B C20B 1_555 1_555

#END
