
#######################################################################
#
#                 Cambridge Crystallographic Data Centre
#                                CCDC 
#
#######################################################################
#
# If this CIF has been generated from an entry in the Cambridge 
# Structural Database, then it will include bibliographic, chemical, 
# crystal, experimental, refinement or atomic coordinate data resulting 
# from the CCDC's data processing and validation procedures.
#
#######################################################################

data_QIHVEI04
_symmetry_cell_setting           monoclinic
_symmetry_space_group_name_H-M   'P 21/c'
_symmetry_Int_Tables_number      14
_space_group_name_Hall           '-P 2ybc'
loop_
_symmetry_equiv_pos_site_id
_symmetry_equiv_pos_as_xyz
1 x,y,z
2 -x,1/2+y,1/2-z
3 -x,-y,-z
4 x,1/2-y,1/2+z
_cell_length_a                   15.467(3)
_cell_length_b                   14.740(3)
_cell_length_c                   10.457(2)
_cell_angle_alpha                90
_cell_angle_beta                 91.99(3)
_cell_angle_gamma                90
_cell_volume                     2382.59
loop_
_atom_site_label
_atom_site_type_symbol
_atom_site_fract_x
_atom_site_fract_y
_atom_site_fract_z
Ni1 Ni -0.23320(4) -0.47903(4) 1.29904(6)
V1 V -0.31295(5) -0.69850(5) 1.18562(8)
V2 V -0.25039(5) -0.85671(6) 1.39594(8)
V3 V -0.08529(5) -0.94214(6) 1.57516(8)
N1 N -0.1512(3) -0.5314(3) 1.4383(4)
N2 N -0.1780(3) -0.3620(3) 1.3746(4)
N3 N -0.3346(3) -0.4622(3) 1.4281(4)
N4 N -0.3265(3) -0.4166(3) 1.1844(4)
O1 O -0.2772(2) -0.6022(2) 1.2428(4)
O2 O -0.4127(2) -0.7112(3) 1.2155(4)
O3 O -0.3046(3) -0.6996(3) 1.0138(4)
O4 O -0.2500(3) -0.7893(3) 1.2587(4)
O5 O -0.2986(4) -0.9486(3) 1.3636(5)
O6 O -0.1462(3) -0.8792(3) 1.4533(4)
O7 O -0.0472(3) -0.8692(3) 1.6771(4)
O8 O 0.0000 -1.0000 1.5000
O9 O -0.1471(2) -1.0145(2) 1.6514(4)
C1 C -0.1413(3) -0.6199(4) 1.4654(5)
H1 H -0.1645 -0.6622 1.4077
C2 C -0.0983(3) -0.6515(4) 1.5746(6)
H2 H -0.0916 -0.7133 1.5898
C3 C -0.0660(4) -0.5889(4) 1.6592(6)
H3 H -0.0385 -0.6079 1.7351
C4 C -0.0738(3) -0.4967(4) 1.6326(6)
H4 H -0.0504 -0.4537 1.6889
C5 C -0.1169(3) -0.4703(3) 1.5219(5)
C6 C -0.1282(3) -0.3746(3) 1.4834(5)
C7 C -0.0927(4) -0.3025(4) 1.5504(6)
H5 H -0.0604 -0.3122 1.6258
C8 C -0.1054(4) -0.2162(4) 1.5047(7)
H6 H -0.0811 -0.1670 1.5484
C9 C -0.1534(5) -0.2027(4) 1.3960(7)
H7 H -0.1629 -0.1444 1.3645
C10 C -0.1887(4) -0.2782(4) 1.3319(6)
H8 H -0.2209 -0.2690 1.2562
C11 C -0.3337(4) -0.4828(4) 1.5517(6)
H9 H -0.2895 -0.5195 1.5850
C12 C -0.3957(4) -0.4519(5) 1.6329(6)
H10 H -0.3929 -0.4675 1.7191
C13 C -0.4615(4) -0.3980(5) 1.5852(7)
H11 H -0.5034 -0.3754 1.6384
C14 C -0.4641(4) -0.3783(4) 1.4565(6)
H12 H -0.5082 -0.3422 1.4215
C15 C -0.4009(3) -0.4122(4) 1.3795(5)
C16 C -0.4005(3) -0.3964(4) 1.2413(5)
C17 C -0.4725(4) -0.3669(4) 1.1710(6)
H13 H -0.5244 -0.3559 1.2106
C18 C -0.4658(4) -0.3540(5) 1.0414(7)
H14 H -0.5134 -0.3336 0.9927
C19 C -0.3897(4) -0.3708(4) 0.9842(6)
H15 H -0.3839 -0.3608 0.8971
C20 C -0.3216(4) -0.4031(4) 1.0589(6)
H16 H -0.2698 -0.4160 1.0201
Ni1C Ni -0.23320(4) -1.02097(4) 1.79904(6)
Ni1A Ni 0.23320(4) -0.97903(4) 1.20096(6)
Ni1B Ni 0.23320(4) -1.52097(4) 1.70096(6)
V1B V 0.31295(5) -1.30150(5) 1.81438(8)
V2C V -0.25039(5) -0.64329(6) 0.89594(8)
V2B V 0.25039(5) -1.14329(6) 1.60406(8)
V2A V 0.25039(5) -1.35671(6) 2.10406(8)
V3B V 0.08529(5) -1.05786(6) 1.42484(8)
N1B N 0.1512(3) -1.4686(3) 1.5617(4)
N2B N 0.1780(3) -1.6380(3) 1.6254(4)
N3B N 0.3346(3) -1.5378(3) 1.5719(4)
N4B N 0.3265(3) -1.5834(3) 1.8156(4)
O1B O 0.2772(2) -1.3978(2) 1.7572(4)
O2B O 0.4127(2) -1.2888(3) 1.7845(4)
O3C O -0.3046(3) -0.8004(3) 1.5138(4)
O3A O 0.3046(3) -1.1996(3) 1.4862(4)
O3B O 0.3046(3) -1.3004(3) 1.9862(4)
O4B O 0.2500(3) -1.2107(3) 1.7413(4)
O5B O 0.2986(4) -1.0514(3) 1.6364(5)
O6B O 0.1462(3) -1.1208(3) 1.5467(4)
O7B O 0.0472(3) -1.1308(3) 1.3229(4)
O9C O -0.1471(2) -0.4855(2) 1.1514(4)
O9B O 0.1471(2) -0.9855(2) 1.3486(4)
O9A O 0.1471(2) -1.5145(2) 1.8486(4)
C1B C 0.1413(3) -1.3801(4) 1.5346(5)
H1B H 0.1645 -1.3378 1.5923
C2B C 0.0983(3) -1.3485(4) 1.4254(6)
H2B H 0.0916 -1.2867 1.4102
C3B C 0.0660(4) -1.4111(4) 1.3408(6)
H3B H 0.0385 -1.3921 1.2649
C4B C 0.0738(3) -1.5033(4) 1.3674(6)
H4B H 0.0504 -1.5463 1.3111
C5B C 0.1169(3) -1.5297(3) 1.4781(5)
C6B C 0.1282(3) -1.6254(3) 1.5166(5)
C7B C 0.0927(4) -1.6975(4) 1.4496(6)
H5B H 0.0604 -1.6878 1.3742
C8B C 0.1054(4) -1.7838(4) 1.4953(7)
H6B H 0.0811 -1.8330 1.4516
C9B C 0.1534(5) -1.7973(4) 1.6040(7)
H7B H 0.1629 -1.8556 1.6355
C10B C 0.1887(4) -1.7218(4) 1.6681(6)
H8B H 0.2209 -1.7310 1.7438
C11B C 0.3337(4) -1.5172(4) 1.4483(6)
H9B H 0.2895 -1.4805 1.4150
C12B C 0.3957(4) -1.5481(5) 1.3671(6)
H10B H 0.3929 -1.5325 1.2809
C13B C 0.4615(4) -1.6020(5) 1.4148(7)
H11B H 0.5034 -1.6246 1.3616
C14B C 0.4641(4) -1.6217(4) 1.5435(6)
H12B H 0.5082 -1.6578 1.5785
C15B C 0.4009(3) -1.5878(4) 1.6205(5)
C16B C 0.4005(3) -1.6036(4) 1.7587(5)
C17B C 0.4725(4) -1.6331(4) 1.8290(6)
H13B H 0.5244 -1.6441 1.7894
C18B C 0.4658(4) -1.6460(5) 1.9586(7)
H14B H 0.5134 -1.6664 2.0073
C19B C 0.3897(4) -1.6292(4) 2.0158(6)
H15B H 0.3839 -1.6392 2.1029
C20B C 0.3216(4) -1.5969(4) 1.9411(6)
H16B H 0.2698 -1.5840 1.9799
loop_
_geom_bond_atom_site_label_1
_geom_bond_atom_site_label_2
_geom_bond_site_symmetry_1
_geom_bond_site_symmetry_2
Ni1 N1 1_555 1_555
V1 O1 1_555 1_555
V2 O4 1_555 1_555
V3 O6 1_555 1_555
N1 C1 1_555 1_555
N2 Ni1 1_555 1_555
N3 Ni1 1_555 1_555
N4 Ni1 1_555 1_555
O1 Ni1 1_555 1_555
O2 V1 1_555 1_555
O3 V1 1_555 1_555
O4 V1 1_555 1_555
O5 V2 1_555 1_555
O6 V2 1_555 1_555
O7 V3 1_555 1_555
O8 V3 1_555 1_555
O9 V3 1_555 1_555
C1 H1 1_555 1_555
C2 C1 1_555 1_555
H2 C2 1_555 1_555
C3 C2 1_555 1_555
H3 C3 1_555 1_555
C4 C3 1_555 1_555
H4 C4 1_555 1_555
C5 N1 1_555 1_555
C6 N2 1_555 1_555
C7 C6 1_555 1_555
H5 C7 1_555 1_555
C8 C7 1_555 1_555
H6 C8 1_555 1_555
C9 C8 1_555 1_555
H7 C9 1_555 1_555
C10 N2 1_555 1_555
H8 C10 1_555 1_555
C11 N3 1_555 1_555
H9 C11 1_555 1_555
C12 C11 1_555 1_555
H10 C12 1_555 1_555
C13 C12 1_555 1_555
H11 C13 1_555 1_555
C14 C13 1_555 1_555
H12 C14 1_555 1_555
C15 N3 1_555 1_555
C16 N4 1_555 1_555
C17 C16 1_555 1_555
H13 C17 1_555 1_555
C18 C17 1_555 1_555
H14 C18 1_555 1_555
C19 C18 1_555 1_555
H15 C19 1_555 1_555
C20 N4 1_555 1_555
H16 C20 1_555 1_555
Ni1C O9 1_555 1_555
Ni1A O9B 1_555 1_555
Ni1B N1B 1_555 1_555
V1B O1B 1_555 1_555
V2C O3 1_555 1_555
V2B O3A 1_555 1_555
V2A O3B 1_555 1_555
V3B O8 1_555 1_555
N1B C1B 1_555 1_555
N2B Ni1B 1_555 1_555
N3B Ni1B 1_555 1_555
N4B Ni1B 1_555 1_555
O1B Ni1B 1_555 1_555
O2B V1B 1_555 1_555
O3C V2 1_555 1_555
O3B V1B 1_555 1_555
O4B V1B 1_555 1_555
O5B V2B 1_555 1_555
O6B V2B 1_555 1_555
O7B V3B 1_555 1_555
O9C Ni1 1_555 1_555
O9B V3B 1_555 1_555
O9A Ni1B 1_555 1_555
C1B H1B 1_555 1_555
C2B C1B 1_555 1_555
H2B C2B 1_555 1_555
C3B C2B 1_555 1_555
H3B C3B 1_555 1_555
C4B C3B 1_555 1_555
H4B C4B 1_555 1_555
C5B N1B 1_555 1_555
C6B N2B 1_555 1_555
C7B C6B 1_555 1_555
H5B C7B 1_555 1_555
C8B C7B 1_555 1_555
H6B C8B 1_555 1_555
C9B C8B 1_555 1_555
H7B C9B 1_555 1_555
C10B N2B 1_555 1_555
H8B C10B 1_555 1_555
C11B N3B 1_555 1_555
H9B C11B 1_555 1_555
C12B C11B 1_555 1_555
H10B C12B 1_555 1_555
C13B C12B 1_555 1_555
H11B C13B 1_555 1_555
C14B C13B 1_555 1_555
H12B C14B 1_555 1_555
C15B N3B 1_555 1_555
C16B N4B 1_555 1_555
C17B C16B 1_555 1_555
H13B C17B 1_555 1_555
C18B C17B 1_555 1_555
H14B C18B 1_555 1_555
C19B C18B 1_555 1_555
H15B C19B 1_555 1_555
C20B N4B 1_555 1_555
H16B C20B 1_555 1_555
C4 C5 1_555 1_555
C5 C6 1_555 1_555
C9 C10 1_555 1_555
C14 C15 1_555 1_555
C15 C16 1_555 1_555
C19 C20 1_555 1_555
V2B O4B 1_555 1_555
V3B O6B 1_555 1_555
C4B C5B 1_555 1_555
C5B C6B 1_555 1_555
C9B C10B 1_555 1_555
C14B C15B 1_555 1_555
C15B C16B 1_555 1_555
C19B C20B 1_555 1_555

#END
