
#######################################################################
#
#                 Cambridge Crystallographic Data Centre
#                                CCDC 
#
#######################################################################
#
# If this CIF has been generated from an entry in the Cambridge 
# Structural Database, then it will include bibliographic, chemical, 
# crystal, experimental, refinement or atomic coordinate data resulting 
# from the CCDC's data processing and validation procedures.
#
#######################################################################

data_QIHVUY
_symmetry_cell_setting           orthorhombic
_symmetry_space_group_name_H-M   'P b c n'
_symmetry_Int_Tables_number      60
_space_group_name_Hall           '-P 2n 2ab'
loop_
_symmetry_equiv_pos_site_id
_symmetry_equiv_pos_as_xyz
1 x,y,z
2 1/2+x,1/2+y,1/2-z
3 x,-y,1/2+z
4 1/2-x,1/2+y,z
5 -x,-y,-z
6 1/2-x,1/2-y,1/2+z
7 -x,y,1/2-z
8 1/2+x,1/2-y,-z
_cell_length_a                   21.484(3)
_cell_length_b                   9.4624(8)
_cell_length_c                   7.3293(7)
_cell_angle_alpha                90
_cell_angle_beta                 90
_cell_angle_gamma                90
_cell_volume                     1489.97
loop_
_atom_site_label
_atom_site_type_symbol
_atom_site_fract_x
_atom_site_fract_y
_atom_site_fract_z
Na1 Na 0.5000 0.02051(11) 0.7500
O1 O 0.41147(6) 0.20753(15) 0.71555(19)
O2 O 0.47164(6) 0.14081(14) 1.02304(18)
O3 O 0.46179(8) 0.36168(14) 1.1294(2)
C1 C 0.37299(9) 0.2366(2) 0.5683(3)
C2 C 0.36417(9) 0.1277(2) 0.4444(3)
H1 H 0.3852 0.0403 0.4603
C3 C 0.32447(10) 0.1471(2) 0.2973(3)
H2 H 0.3184 0.0725 0.2125
C4 C 0.29347(10) 0.2749(2) 0.2728(3)
H3 H 0.2660 0.2877 0.1727
C5 C 0.30341(9) 0.3829(2) 0.3967(3)
H4 H 0.2822 0.4702 0.3814
C6 C 0.34372(9) 0.3661(2) 0.5428(3)
H5 H 0.3512 0.4422 0.6244
C7 C 0.41523(10) 0.3152(2) 0.8520(3)
H6 H 0.3728 0.3405 0.8936
H7 H 0.4347 0.4008 0.7996
C8 C 0.45322(10) 0.2641(2) 1.0125(3)
H8 H 0.5000 0.346(4) 1.2500
O3F O 0.53821(8) 0.36168(14) 1.3706(2)
C8F C 0.54678(10) 0.2641(2) 1.4875(3)
O2F O 0.52836(6) 0.14081(14) 1.47696(18)
C7F C 0.58477(10) 0.3152(2) 1.6480(3)
O1F O 0.58853(6) 0.20753(15) 1.78445(19)
C1F C 0.62701(9) 0.2366(2) 1.9317(3)
C2F C 0.63583(9) 0.1277(2) 2.0556(3)
H1F H 0.6148 0.0403 2.0397
C3F C 0.67553(10) 0.1471(2) 2.2027(3)
H2F H 0.6816 0.0725 2.2875
C4F C 0.70653(10) 0.2749(2) 2.2272(3)
H3F H 0.7340 0.2877 2.3273
C5F C 0.69659(9) 0.3829(2) 2.1033(3)
H4F H 0.7178 0.4702 2.1186
C6F C 0.65628(9) 0.3661(2) 1.9572(3)
H5F H 0.6488 0.4422 1.8756
H6F H 0.6272 0.3405 1.6064
H7F H 0.5653 0.4008 1.7004
O1F_2 O 0.58853(6) 0.20753(15) 0.78445(19)
O2B O 0.47164(6) -0.14081(14) 0.52304(18)
O2D O 0.52836(6) -0.14081(14) 0.97696(18)
O2F_2 O 0.52836(6) 0.14081(14) 0.47696(18)
Na1B Na 0.5000 -0.02051(11) 1.2500
Na1_2 Na 0.5000 0.02051(11) 1.7500
loop_
_geom_bond_atom_site_label_1
_geom_bond_atom_site_label_2
_geom_bond_site_symmetry_1
_geom_bond_site_symmetry_2
Na1 O1 1_555 1_555
O1 C1 1_555 1_555
O2 Na1 1_555 1_555
O3 C8 1_555 1_555
C1 C2 1_555 1_555
C2 H1 1_555 1_555
C3 C2 1_555 1_555
H2 C3 1_555 1_555
C4 C3 1_555 1_555
H3 C4 1_555 1_555
C5 C4 1_555 1_555
H4 C5 1_555 1_555
C6 C1 1_555 1_555
H5 C6 1_555 1_555
C7 O1 1_555 1_555
H6 C7 1_555 1_555
H7 C7 1_555 1_555
C8 O2 1_555 1_555
H8 O3 1_555 1_555
O3F H8 1_555 1_555
C8F O3F 1_555 1_555
O2F C8F 1_555 1_555
C7F C8F 1_555 1_555
O1F C7F 1_555 1_555
C1F O1F 1_555 1_555
C2F C1F 1_555 1_555
H1F C2F 1_555 1_555
C3F C2F 1_555 1_555
H2F C3F 1_555 1_555
C4F C3F 1_555 1_555
H3F C4F 1_555 1_555
C5F C4F 1_555 1_555
H4F C5F 1_555 1_555
C6F C1F 1_555 1_555
H5F C6F 1_555 1_555
H6F C7F 1_555 1_555
H7F C7F 1_555 1_555
O1F_2 Na1 1_555 1_555
O2B Na1 1_555 1_555
O2D Na1 1_555 1_555
O2F_2 Na1 1_555 1_555
Na1B O2 1_555 1_555
Na1_2 O2F 1_555 1_555
C5 C6 1_555 1_555
C7 C8 1_555 1_555
O2F Na1B 1_555 1_555
O1F Na1_2 1_555 1_555
C5F C6F 1_555 1_555
O2D Na1B 1_555 1_555

#END
