
#######################################################################
#
#                 Cambridge Crystallographic Data Centre
#                                CCDC 
#
#######################################################################
#
# If this CIF has been generated from an entry in the Cambridge 
# Structural Database, then it will include bibliographic, chemical, 
# crystal, experimental, refinement or atomic coordinate data resulting 
# from the CCDC's data processing and validation procedures.
#
#######################################################################

data_QIHWUZ
_symmetry_cell_setting           orthorhombic
_symmetry_space_group_name_H-M   'P n m a'
_symmetry_Int_Tables_number      62
_space_group_name_Hall           '-P 2ac 2n'
loop_
_symmetry_equiv_pos_site_id
_symmetry_equiv_pos_as_xyz
1 x,y,z
2 1/2+x,y,1/2-z
3 x,1/2-y,z
4 1/2-x,1/2+y,1/2+z
5 -x,-y,-z
6 1/2-x,-y,1/2+z
7 -x,1/2+y,-z
8 1/2+x,1/2-y,1/2-z
_cell_length_a                   7.3003(4)
_cell_length_b                   6.8114(4)
_cell_length_c                   15.6135(11)
_cell_angle_alpha                90
_cell_angle_beta                 90
_cell_angle_gamma                90
_cell_volume                     776.385
loop_
_atom_site_label
_atom_site_type_symbol
_atom_site_fract_x
_atom_site_fract_y
_atom_site_fract_z
Cu1 Cu 0.06517(5) 0.7500 0.67554(2)
C1 C -0.3632(5) 0.7500 0.5845(2)
C2 C -0.4871(5) 0.7500 0.5073(2)
C3 C -0.6440(4) 0.7500 0.56712(19)
C4 C -0.5257(4) 0.7500 0.6393(2)
O1 O -0.1956(4) 0.7500 0.59402(19)
O2 O -0.4652(4) 0.7500 0.42983(18)
O3 O -0.8176(3) 0.7500 0.56144(14)
O4 O -0.5720(3) 0.7500 0.71845(15)
N1 N 0.0832(3) 0.4538(3) 0.67893(12)
C5 C 0.0377(4) 0.3515(4) 0.60956(15)
H1 H 0.0050 0.4181 0.5599
C6 C 0.1291(4) 0.3522(3) 0.74890(15)
H2 H 0.1616 0.4192 0.7985
C5B C 0.0377(4) 0.1485(4) 0.60956(15)
N1B N 0.0832(3) 0.0462(3) 0.67893(12)
C6B C 0.1291(4) 0.1478(3) 0.74890(15)
H2B H 0.1616 0.0808 0.7985
H1B H 0.0050 0.0819 0.5599
O3_2 O 0.1824(3) 0.7500 0.56144(14)
O4A O -0.0720(3) 0.7500 0.78155(15)
N1B_2 N 0.0832(3) 1.0462(3) 0.67893(12)
Cu1_2 Cu -0.93483(5) 0.7500 0.67554(2)
Cu1A Cu -0.43483(5) 0.7500 0.82446(2)
Cu1_3 Cu 0.06517(5) -0.2500 0.67554(2)
loop_
_geom_bond_atom_site_label_1
_geom_bond_atom_site_label_2
_geom_bond_site_symmetry_1
_geom_bond_site_symmetry_2
Cu1 O1 1_555 1_555
C1 C2 1_555 1_555
C2 C3 1_555 1_555
C3 C4 1_555 1_555
C4 C1 1_555 1_555
O1 C1 1_555 1_555
O2 C2 1_555 1_555
O3 C3 1_555 1_555
O4 C4 1_555 1_555
N1 Cu1 1_555 1_555
C5 N1 1_555 1_555
H1 C5 1_555 1_555
C6 N1 1_555 1_555
H2 C6 1_555 1_555
C5B C5 1_555 1_555
N1B C5B 1_555 1_555
C6B C6 1_555 1_555
H2B C6B 1_555 1_555
H1B C5B 1_555 1_555
O3_2 Cu1 1_555 1_555
O4A Cu1 1_555 1_555
N1B_2 Cu1 1_555 1_555
Cu1_2 O3 1_555 1_555
Cu1A O4 1_555 1_555
Cu1_3 N1B 1_555 1_555
N1B C6B 1_555 1_555

#END
