
#######################################################################
#
#                 Cambridge Crystallographic Data Centre
#                                CCDC 
#
#######################################################################
#
# If this CIF has been generated from an entry in the Cambridge 
# Structural Database, then it will include bibliographic, chemical, 
# crystal, experimental, refinement or atomic coordinate data resulting 
# from the CCDC's data processing and validation procedures.
#
#######################################################################

data_QIJFEW
_symmetry_cell_setting           triclinic
_symmetry_space_group_name_H-M   'P -1'
_symmetry_Int_Tables_number      2
_space_group_name_Hall           '-P 1'
loop_
_symmetry_equiv_pos_site_id
_symmetry_equiv_pos_as_xyz
1 x,y,z
2 -x,-y,-z
_cell_length_a                   11.975(2)
_cell_length_b                   12.449(3)
_cell_length_c                   13.154(3)
_cell_angle_alpha                101.971(5)
_cell_angle_beta                 111.961(4)
_cell_angle_gamma                91.211(3)
_cell_volume                     1768.56
loop_
_atom_site_label
_atom_site_type_symbol
_atom_site_fract_x
_atom_site_fract_y
_atom_site_fract_z
Ni1 Ni 0.77821(3) 0.42812(3) 0.14592(3)
O1 O 1.24195(19) 0.72384(17) 0.81804(19)
O2 O 0.7152(2) 0.6252(2) 0.3274(2)
O3 O 0.60552(19) 0.46315(18) 0.13746(18)
H1 H 0.5691 0.4079 0.1460
H2 H 0.6117 0.5196 0.1898
N1 N 0.7139(2) 0.3456(2) -0.0291(2)
O4 O 1.4283(2) 0.7253(2) 0.8172(3)
O5 O 0.8486(2) 0.50602(18) 0.31350(18)
N2 N 0.9610(2) 0.4030(2) 0.1756(2)
C1 C 0.9227(3) 0.6734(3) 0.4491(2)
C2 C 0.7039(3) 0.7243(3) 0.0103(3)
H3 H 0.6368 0.7434 -0.0442
N3 N 0.7951(2) 0.5880(2) 0.1104(2)
N4 N 1.4112(3) 0.4502(3) 0.3917(3)
N5 N 0.9278(3) 0.9507(2) 0.0478(3)
C3 C 1.3218(3) 0.8781(3) 0.7771(3)
C4 C 0.7012(3) 0.6219(3) 0.0336(3)
H4 H 0.6307 0.5736 -0.0057
C5 C 1.2217(3) 0.9061(3) 0.6922(3)
C6 C 1.1179(3) 0.8233(3) 0.6108(3)
C7 C 0.8065(3) 0.7989(3) 0.0680(3)
C8 C 0.8934(3) 0.6620(3) 0.1684(3)
H5 H 0.9586 0.6420 0.2242
C9 C 1.3310(3) 0.7658(3) 0.8051(3)
C10 C 0.8196(3) 0.5955(3) 0.3574(3)
C11 C 1.0280(3) 0.4480(3) 0.1306(3)
H6 H 0.9890 0.4841 0.0738
C12 C 0.9036(3) 0.7775(3) 0.5007(3)
H7 H 0.8253 0.7976 0.4813
C13 C 1.1372(3) 0.7193(3) 0.5602(3)
H8 H 1.2155 0.6993 0.5797
C14 C 1.0000(3) 0.8509(3) 0.5805(3)
H9 H 0.9855 0.9197 0.6141
C15 C 1.0407(3) 0.6454(3) 0.4809(3)
H10 H 1.0551 0.5761 0.4486
C16 C 1.2100(3) 0.3897(3) 0.2448(3)
C17 C 0.9025(3) 0.7660(3) 0.1494(3)
H11 H 0.9729 0.8139 0.1911
C18 C 1.0192(3) 0.3503(3) 0.2557(3)
H12 H 0.9754 0.3188 0.2895
C19 C 0.6038(3) 0.3524(3) -0.1042(3)
H13 H 0.5495 0.3896 -0.0785
C20 C 1.1507(3) 0.4444(3) 0.1626(3)
H14 H 1.1929 0.4785 0.1291
C21 C 1.1409(3) 0.3407(4) 0.2900(3)
H15 H 1.1772 0.3009 0.3442
C22 C 0.8113(4) 0.9134(3) 0.0476(4)
H16 H 0.7480 0.9142 -0.0245
H17 H 0.7951 0.9647 0.1055
C23 C 1.3172(4) 1.0943(3) 0.7483(4)
H18 H 1.3150 1.1664 0.7389
C24 C 0.5668(4) 0.3066(3) -0.2185(3)
H19 H 0.4892 0.3136 -0.2674
C25 C 1.4177(3) 0.9586(3) 0.8432(3)
H20 H 1.4856 0.9396 0.8970
C26 C 0.9449(4) 0.8920(3) -0.0525(4)
H21 H 0.8805 0.9042 -0.1192
H22 H 0.9407 0.8134 -0.0559
C27 C 1.4150(4) 1.0662(3) 0.8312(4)
H23 H 1.4789 1.1195 0.8787
C28 C 1.2225(4) 1.0144(3) 0.6794(3)
H24 H 1.1573 1.0333 0.6228
C29 C 1.3454(3) 0.3838(4) 0.2831(3)
H25 H 1.3616 0.3078 0.2827
H26 H 1.3734 0.4072 0.2299
C30 C 1.0665(4) 0.9314(3) -0.0510(4)
H27 H 1.1313 0.9177 0.0146
H28 H 1.0768 0.8909 -0.1179
C31 C 0.7860(4) 0.2869(3) -0.0705(3)
H29 H 0.8621 0.2779 -0.0202
C32 C 0.6441(5) 0.2508(4) -0.2599(4)
C33 C 1.4580(3) 0.5582(5) 0.5790(4)
H30 H 1.4347 0.5392 0.6368
H31 H 1.4413 0.6335 0.5757
C34 C 0.7545(5) 0.2391(4) -0.1826(4)
H32 H 0.8085 0.1986 -0.2061
N6 N 0.5618(7) 0.1063(5) -0.4315(4)
C35 C 0.6132(7) 0.2102(6) -0.3867(5)
H33 H 0.6292 0.2549 -0.4292
C36 C 0.4701(9) -0.0774(6) -0.4456(5)
H34 H 0.3976 -0.0850 -0.4301
H35 H 0.5251 -0.1273 -0.4105
C37 C 1.3876(5) 0.4838(13) 0.4704(7)
H36 H 1.3104 0.4587 0.4622
C38 C 0.5269(19) 0.0349(12) -0.3992(7)
H37 H 0.5398 0.0577 -0.3233
N1A N 0.2861(2) -0.3456(2) -0.9709(2)
C19A C 0.3962(3) -0.3524(3) -0.8958(3)
H13A H 0.4505 -0.3896 -0.9215
C24A C 0.4332(4) -0.3066(3) -0.7815(3)
H19A H 0.5108 -0.3136 -0.7326
C31A C 0.2140(4) -0.2869(3) -0.9295(3)
H29A H 0.1379 -0.2779 -0.9798
C32A C 0.3559(5) -0.2508(4) -0.7401(4)
C34A C 0.2455(5) -0.2391(4) -0.8174(4)
H32A H 0.1915 -0.1986 -0.7939
N6A N 0.4382(7) -0.1063(5) -0.5685(4)
C35A C 0.3868(7) -0.2102(6) -0.6133(5)
H33A H 0.3708 -0.2549 -0.5708
C36A C 0.5299(9) 0.0774(6) -0.5544(5)
H34A H 0.6024 0.0850 -0.5699
H35A H 0.4749 0.1273 -0.5895
C38A C 0.4731(19) -0.0349(12) -0.6008(7)
H37A H 0.4602 -0.0577 -0.6767
N2A N 2.0390(2) 0.5970(2) 0.8244(2)
N4A N 1.5888(3) 0.5498(3) 0.6083(3)
C11A C 1.9720(3) 0.5520(3) 0.8694(3)
H6A H 2.0110 0.5159 0.9262
C16A C 1.7900(3) 0.6103(3) 0.7552(3)
C18A C 1.9808(3) 0.6497(3) 0.7443(3)
H12A H 2.0246 0.6812 0.7105
C20A C 1.8493(3) 0.5556(3) 0.8374(3)
H14A H 1.8071 0.5215 0.8709
C21A C 1.8591(3) 0.6593(4) 0.7100(3)
H15A H 1.8228 0.6991 0.6558
C29A C 1.6546(3) 0.6162(4) 0.7169(3)
H25A H 1.6384 0.6922 0.7173
H26A H 1.6266 0.5928 0.7701
C33A C 1.5420(3) 0.4418(5) 0.4210(4)
H30A H 1.5653 0.4608 0.3632
H31A H 1.5587 0.3665 0.4243
C37A C 1.6124(5) 0.5162(13) 0.5296(7)
H36A H 1.6896 0.5413 0.5378
C2A C 1.2961(3) 1.2757(3) -0.0103(3)
H3A H 1.3632 1.2566 0.0442
N3A N 1.2049(2) 1.4120(2) -0.1104(2)
N5A N 1.0722(3) 1.0493(2) -0.0478(3)
C4A C 1.2988(3) 1.3781(3) -0.0336(3)
H4A H 1.3693 1.4264 0.0057
C7A C 1.1935(3) 1.2011(3) -0.0680(3)
C8A C 1.1066(3) 1.3380(3) -0.1684(3)
H5A H 1.0414 1.3580 -0.2242
C17A C 1.0975(3) 1.2340(3) -0.1494(3)
H11A H 1.0271 1.1861 -0.1911
C22A C 1.1887(4) 1.0866(3) -0.0476(4)
H16A H 1.2520 1.0858 0.0245
H17A H 1.2049 1.0353 -0.1055
C26A C 1.0551(4) 1.1080(3) 0.0525(4)
H21A H 1.1195 1.0958 0.1192
H22A H 1.0593 1.1866 0.0559
C30A C 0.9335(4) 1.0686(3) 0.0510(4)
H27A H 0.8687 1.0823 -0.0146
H28A H 0.9232 1.1091 0.1179
Ni1A Ni 0.22179(3) -0.42812(3) -1.14592(3)
O1A O -0.24195(19) -0.72384(17) -1.81804(19)
O2A O 0.2848(2) -0.6252(2) -1.3274(2)
O3A O 0.39448(19) -0.46315(18) -1.13746(18)
H1A H 0.4309 -0.4079 -1.1460
H2A H 0.3883 -0.5196 -1.1898
O4A O -0.4283(2) -0.7253(2) -1.8172(3)
O5A O 0.1514(2) -0.50602(18) -1.31350(18)
C1A C 0.0773(3) -0.6734(3) -1.4491(2)
C3A C -0.3218(3) -0.8781(3) -1.7771(3)
C5A C -0.2217(3) -0.9061(3) -1.6922(3)
C6A C -0.1179(3) -0.8233(3) -1.6108(3)
C9A C -0.3310(3) -0.7658(3) -1.8051(3)
C10A C 0.1804(3) -0.5955(3) -1.3574(3)
C12A C 0.0964(3) -0.7775(3) -1.5007(3)
H7A H 0.1747 -0.7976 -1.4813
C13A C -0.1372(3) -0.7193(3) -1.5602(3)
H8A H -0.2155 -0.6993 -1.5797
C14A C 0.0000(3) -0.8509(3) -1.5805(3)
H9A H 0.0145 -0.9197 -1.6141
C15A C -0.0407(3) -0.6454(3) -1.4809(3)
H10A H -0.0551 -0.5761 -1.4486
C23A C -0.3172(4) -1.0943(3) -1.7483(4)
H18A H -0.3150 -1.1664 -1.7389
C25A C -0.4177(3) -0.9586(3) -1.8432(3)
H20A H -0.4856 -0.9396 -1.8970
C27A C -0.4150(4) -1.0662(3) -1.8312(4)
H23A H -0.4789 -1.1195 -1.8787
C28A C -0.2225(4) -1.0144(3) -1.6794(3)
H24A H -0.1573 -1.0333 -1.6228
Ni1_2 Ni -0.22179(3) -0.57188(3) -1.85408(3)
Ni1A_2 Ni 1.22179(3) 0.57188(3) 0.85408(3)
Ni1A_3 Ni 1.22179(3) 1.57188(3) -0.14592(3)
Ni1A_4 Ni 2.22179(3) 0.57188(3) 0.85408(3)
O1_2 O 0.24195(19) -0.27616(17) -1.18196(19)
O1A_2 O 0.75805(19) 0.27616(17) 0.18196(19)
N2A_2 N 0.0390(2) -0.4030(2) -1.1756(2)
N3A_2 N 0.2049(2) -0.5880(2) -1.1104(2)
loop_
_geom_bond_atom_site_label_1
_geom_bond_atom_site_label_2
_geom_bond_site_symmetry_1
_geom_bond_site_symmetry_2
Ni1 O3 1_555 1_555
O1 C9 1_555 1_555
O2 C10 1_555 1_555
O3 H1 1_555 1_555
H2 O3 1_555 1_555
N1 Ni1 1_555 1_555
O4 C9 1_555 1_555
O5 Ni1 1_555 1_555
N2 Ni1 1_555 1_555
C1 C10 1_555 1_555
C2 H3 1_555 1_555
N3 Ni1 1_555 1_555
N4 C29 1_555 1_555
N5 C22 1_555 1_555
C3 C5 1_555 1_555
C4 C2 1_555 1_555
H4 C4 1_555 1_555
C5 C6 1_555 1_555
C6 C13 1_555 1_555
C7 C2 1_555 1_555
C8 N3 1_555 1_555
H5 C8 1_555 1_555
C9 C3 1_555 1_555
C10 O5 1_555 1_555
C11 N2 1_555 1_555
H6 C11 1_555 1_555
C12 C1 1_555 1_555
H7 C12 1_555 1_555
C13 H8 1_555 1_555
C14 C6 1_555 1_555
H9 C14 1_555 1_555
C15 C1 1_555 1_555
H10 C15 1_555 1_555
C16 C20 1_555 1_555
C17 C7 1_555 1_555
H11 C17 1_555 1_555
C18 N2 1_555 1_555
H12 C18 1_555 1_555
C19 N1 1_555 1_555
H13 C19 1_555 1_555
C20 C11 1_555 1_555
H14 C20 1_555 1_555
C21 C16 1_555 1_555
H15 C21 1_555 1_555
C22 C7 1_555 1_555
H16 C22 1_555 1_555
H17 C22 1_555 1_555
C23 H18 1_555 1_555
C24 C19 1_555 1_555
H19 C24 1_555 1_555
C25 C3 1_555 1_555
H20 C25 1_555 1_555
C26 N5 1_555 1_555
H21 C26 1_555 1_555
H22 C26 1_555 1_555
C27 C23 1_555 1_555
H23 C27 1_555 1_555
C28 C5 1_555 1_555
H24 C28 1_555 1_555
C29 C16 1_555 1_555
H25 C29 1_555 1_555
H26 C29 1_555 1_555
C30 C26 1_555 1_555
H27 C30 1_555 1_555
H28 C30 1_555 1_555
C31 N1 1_555 1_555
H29 C31 1_555 1_555
C32 C24 1_555 1_555
C33 H30 1_555 1_555
H31 C33 1_555 1_555
C34 C31 1_555 1_555
H32 C34 1_555 1_555
N6 C35 1_555 1_555
C35 C32 1_555 1_555
H33 C35 1_555 1_555
C36 H34 1_555 1_555
H35 C36 1_555 1_555
C37 N4 1_555 1_555
H36 C37 1_555 1_555
C38 N6 1_555 1_555
H37 C38 1_555 1_555
N1A C19A 1_555 1_555
C19A H13A 1_555 1_555
C24A C19A 1_555 1_555
H19A C24A 1_555 1_555
C31A N1A 1_555 1_555
H29A C31A 1_555 1_555
C32A C24A 1_555 1_555
C34A C31A 1_555 1_555
H32A C34A 1_555 1_555
N6A C36 1_555 1_555
C35A C32A 1_555 1_555
H33A C35A 1_555 1_555
C36A N6 1_555 1_555
H34A C36A 1_555 1_555
H35A C36A 1_555 1_555
C38A N6A 1_555 1_555
H37A C38A 1_555 1_555
N2A C11A 1_555 1_555
N4A C33 1_555 1_555
C11A H6A 1_555 1_555
C16A C20A 1_555 1_555
C18A N2A 1_555 1_555
H12A C18A 1_555 1_555
C20A C11A 1_555 1_555
H14A C20A 1_555 1_555
C21A C16A 1_555 1_555
H15A C21A 1_555 1_555
C29A N4A 1_555 1_555
H25A C29A 1_555 1_555
H26A C29A 1_555 1_555
C33A N4 1_555 1_555
H30A C33A 1_555 1_555
H31A C33A 1_555 1_555
C37A N4A 1_555 1_555
H36A C37A 1_555 1_555
C2A H3A 1_555 1_555
N3A C4A 1_555 1_555
N5A C30 1_555 1_555
C4A C2A 1_555 1_555
H4A C4A 1_555 1_555
C7A C2A 1_555 1_555
C8A N3A 1_555 1_555
H5A C8A 1_555 1_555
C17A C7A 1_555 1_555
H11A C17A 1_555 1_555
C22A N5A 1_555 1_555
H16A C22A 1_555 1_555
H17A C22A 1_555 1_555
C26A N5A 1_555 1_555
H21A C26A 1_555 1_555
H22A C26A 1_555 1_555
C30A N5 1_555 1_555
H27A C30A 1_555 1_555
H28A C30A 1_555 1_555
Ni1A N1A 1_555 1_555
O1A C9A 1_555 1_555
O2A C10A 1_555 1_555
O3A Ni1A 1_555 1_555
H1A O3A 1_555 1_555
H2A O3A 1_555 1_555
O4A C9A 1_555 1_555
O5A Ni1A 1_555 1_555
C1A C10A 1_555 1_555
C3A C5A 1_555 1_555
C5A C6A 1_555 1_555
C6A C13A 1_555 1_555
C9A C3A 1_555 1_555
C10A O5A 1_555 1_555
C12A C1A 1_555 1_555
H7A C12A 1_555 1_555
C13A H8A 1_555 1_555
C14A C6A 1_555 1_555
H9A C14A 1_555 1_555
C15A C1A 1_555 1_555
H10A C15A 1_555 1_555
C23A H18A 1_555 1_555
C25A C3A 1_555 1_555
H20A C25A 1_555 1_555
C27A C23A 1_555 1_555
H23A C27A 1_555 1_555
C28A C5A 1_555 1_555
H24A C28A 1_555 1_555
Ni1_2 O1A 1_555 1_555
Ni1A_2 O1 1_555 1_555
Ni1A_3 N3A 1_555 1_555
Ni1A_4 N2A 1_555 1_555
O1_2 Ni1A 1_555 1_555
O1A_2 Ni1 1_555 1_555
N2A_2 Ni1A 1_555 1_555
N3A_2 Ni1A 1_555 1_555
N3 C4 1_555 1_555
C8 C17 1_555 1_555
C12 C14 1_555 1_555
C13 C15 1_555 1_555
C18 C21 1_555 1_555
C23 C28 1_555 1_555
C25 C27 1_555 1_555
C32 C34 1_555 1_555
C33 C37 1_555 1_555
C36 C38 1_555 1_555
C32A C34A 1_555 1_555
N6A C35A 1_555 1_555
C36A C38A 1_555 1_555
C16A C29A 1_555 1_555
C18A C21A 1_555 1_555
C33A C37A 1_555 1_555
C7A C22A 1_555 1_555
C8A C17A 1_555 1_555
C26A C30A 1_555 1_555
C12A C14A 1_555 1_555
C13A C15A 1_555 1_555
C23A C28A 1_555 1_555
C25A C27A 1_555 1_555

#END
