
#######################################################################
#
#                 Cambridge Crystallographic Data Centre
#                                CCDC 
#
#######################################################################
#
# If this CIF has been generated from an entry in the Cambridge 
# Structural Database, then it will include bibliographic, chemical, 
# crystal, experimental, refinement or atomic coordinate data resulting 
# from the CCDC's data processing and validation procedures.
#
#######################################################################

data_QIJNUU
_symmetry_cell_setting           triclinic
_symmetry_space_group_name_H-M   'P 1'
_symmetry_Int_Tables_number      1
_space_group_name_Hall           'P 1'
loop_
_symmetry_equiv_pos_site_id
_symmetry_equiv_pos_as_xyz
1 x,y,z
_cell_length_a                   8.0980(13)
_cell_length_b                   8.3820(14)
_cell_length_c                   15.291(2)
_cell_angle_alpha                75.492(1)
_cell_angle_beta                 87.242(2)
_cell_angle_gamma                86.712(3)
_cell_volume                     1002.55
loop_
_atom_site_label
_atom_site_type_symbol
_atom_site_fract_x
_atom_site_fract_y
_atom_site_fract_z
Na1 Na 0.3124(3) 0.1109(3) 0.96519(19)
Na2 Na 0.6663(3) -0.2077(3) 0.96850(18)
Na3 Na 0.9677(3) -0.3232(3) 1.13537(18)
Na4 Na 1.2695(3) -0.6072(3) 1.09278(19)
O1 O 0.2175(6) 0.2711(5) 0.8099(3)
O2 O 0.3141(6) 0.3929(5) 0.9420(3)
O3 O 0.2079(7) 0.6464(6) 0.8785(4)
O4 O -0.1245(6) 0.0070(6) 0.4953(3)
O5 O 0.0186(6) -0.2457(5) 0.5864(3)
O6 O 0.5892(5) 0.0598(5) 0.2830(3)
O7 O 0.8025(6) 0.1305(6) 0.1448(3)
O8 O 0.9654(6) -0.0915(5) 0.1982(3)
O9 O 0.6929(6) -0.2288(5) 0.8120(3)
O10 O 0.7323(6) -0.4799(5) 0.9525(3)
O11 O 0.7770(6) -0.6570(5) 0.8662(3)
O12 O 0.4925(6) 0.5172(5) 0.6054(3)
O13 O 0.3660(6) 0.3741(6) 0.5021(3)
O14 O 1.0669(5) 0.5360(5) 0.2906(3)
O15 O 1.2618(5) 0.6361(5) 0.1480(3)
O16 O 1.4169(6) 0.7742(6) 0.2187(3)
O17 O 0.3706(5) -0.1841(5) 0.9761(3)
H1 H 0.3327 -0.2313 1.0285
H2 H 0.3236 -0.2261 0.9392
O18 O 0.6104(6) 0.0817(5) 0.9858(3)
H3 H 0.6635 0.1653 0.9583
H4 H 0.6511 0.0625 1.0378
O19 O 0.0110(5) 0.1221(5) 0.9766(3)
H5 H -0.0425 0.1129 1.0267
H6 H -0.0625 0.1825 0.9444
O20 O 0.2587(6) 0.0908(6) 1.1286(3)
H7 H 0.1678 0.0489 1.1501
H8 H 0.3319 0.0408 1.1649
O21 O 0.6824(5) -0.3164(4) 1.1323(3)
H9 H 0.6446 -0.4099 1.1344
H10 H 0.6203 -0.2793 1.1698
O22 O 0.9581(5) -0.1991(5) 0.9757(3)
H11 H 1.0106 -0.2433 0.9376
H12 H 0.9890 -0.1005 0.9629
O23 O 0.9750(5) -0.5758(5) 1.0875(3)
H13 H 0.9279 -0.6660 1.1092
H14 H 0.9341 -0.5351 1.0361
O24 O 1.5515(5) -0.6360(4) 1.1089(3)
H15 H 1.5974 -0.5914 1.0582
H16 H 1.6117 -0.7224 1.1296
C1 C 0.2422(8) 0.4965(8) 0.8798(4)
C2 C 0.1947(8) 0.4451(7) 0.7967(4)
H17 H 0.0797 0.4783 0.7842
H18 H 0.2622 0.5002 0.7450
C3 C 0.1621(8) 0.2005(7) 0.7460(4)
C4 C 0.0896(9) 0.2883(8) 0.6663(5)
H19 H 0.0729 0.4023 0.6541
C5 C 0.0429(8) 0.2030(8) 0.6053(4)
H20 H -0.0034 0.2602 0.5512
C6 C 0.0647(8) 0.0328(8) 0.6247(4)
C7 C 0.1333(9) -0.0555(8) 0.7054(4)
H21 H 0.1482 -0.1697 0.7186
C8 C 0.1782(9) 0.0316(8) 0.7650(5)
H22 H 0.2210 -0.0260 0.8200
C9 C 0.1909(8) -0.0393(8) 0.4643(4)
C10 C 0.3225(8) -0.1522(8) 0.4747(4)
H23 H 0.3207 -0.2467 0.5221
C11 C 0.4593(8) -0.1261(8) 0.4144(4)
H24 H 0.5469 -0.2043 0.4199
C12 C 0.4623(8) 0.0186(8) 0.3462(4)
C13 C 0.3284(8) 0.1348(8) 0.3383(5)
H25 H 0.3307 0.2329 0.2935
C14 C 0.1951(8) 0.1033(8) 0.3967(5)
H26 H 0.1057 0.1795 0.3906
C15 C 0.7276(8) -0.0541(8) 0.2867(5)
H27 H 0.6892 -0.1630 0.2898
H28 H 0.7882 -0.0601 0.3407
C16 C 0.8407(8) -0.0014(8) 0.2042(5)
C17 C 0.7400(8) -0.5172(8) 0.8790(5)
C18 C 0.6937(9) -0.3844(7) 0.7948(5)
H29 H 0.7726 -0.3899 0.7458
H30 H 0.5849 -0.4032 0.7765
C19 C 0.6501(8) -0.0899(7) 0.7448(4)
C20 C 0.6825(9) 0.0561(8) 0.7642(5)
H31 H 0.7345 0.0545 0.8174
C21 C 0.6387(10) 0.2058(8) 0.7057(5)
H32 H 0.6610 0.3050 0.7186
C22 C 0.5608(7) 0.2034(7) 0.6277(4)
C23 C 0.5330(8) 0.0569(8) 0.6062(5)
H33 H 0.4853 0.0581 0.5519
C24 C 0.5762(8) -0.0922(8) 0.6659(5)
H34 H 0.5558 -0.1916 0.6528
C25 C 0.6739(8) 0.4422(7) 0.4755(4)
C26 C 0.7981(8) 0.5358(7) 0.4921(4)
H35 H 0.7916 0.5761 0.5436
C27 C 0.9332(8) 0.5700(8) 0.4315(4)
H36 H 1.0169 0.6335 0.4421
C28 C 0.9412(8) 0.5088(7) 0.3559(4)
C29 C 0.8180(9) 0.4127(8) 0.3405(5)
H37 H 0.8252 0.3710 0.2895
C30 C 0.6850(8) 0.3784(8) 0.4003(5)
H38 H 0.6028 0.3126 0.3902
C31 C 1.2021(8) 0.6310(8) 0.3044(4)
H39 H 1.2724 0.5649 0.3508
H40 H 1.1595 0.7275 0.3239
C32 C 1.3020(8) 0.6840(7) 0.2151(5)
S1 S 0.0202(2) -0.0725(2) 0.54321(13)
S2 S 0.5052(2) 0.39511(19) 0.55314(12)
Na3_2 Na 0.9677(3) -0.3232(3) 0.13537(18)
Na3_3 Na 0.9677(3) 0.6768(3) 0.13537(18)
Na4_2 Na 0.2695(3) 0.3928(3) 1.09278(19)
Na4_3 Na 1.2695(3) 0.3928(3) 0.09278(19)
O2_2 O 1.3141(6) -0.6071(5) 0.9420(3)
O8_2 O 0.9654(6) -0.0915(5) 1.1982(3)
O14_2 O 1.0669(5) -0.4640(5) 1.2906(3)
O15_2 O 1.2618(5) -0.3639(5) 1.1480(3)
O20_2 O 1.2587(6) -0.9092(6) 1.1286(3)
loop_
_geom_bond_atom_site_label_1
_geom_bond_atom_site_label_2
_geom_bond_site_symmetry_1
_geom_bond_site_symmetry_2
Na1 O1 1_555 1_555
Na2 O9 1_555 1_555
Na3 O21 1_555 1_555
Na4 O23 1_555 1_555
O1 C2 1_555 1_555
O2 Na1 1_555 1_555
O3 C1 1_555 1_555
O4 S1 1_555 1_555
O5 S1 1_555 1_555
O6 C12 1_555 1_555
O7 C16 1_555 1_555
O8 C16 1_555 1_555
O9 C18 1_555 1_555
O10 Na2 1_555 1_555
O11 C17 1_555 1_555
O12 S2 1_555 1_555
O13 S2 1_555 1_555
O14 C28 1_555 1_555
O15 C32 1_555 1_555
O16 C32 1_555 1_555
O17 Na1 1_555 1_555
H1 O17 1_555 1_555
H2 O17 1_555 1_555
O18 Na1 1_555 1_555
H3 O18 1_555 1_555
H4 O18 1_555 1_555
O19 Na1 1_555 1_555
H5 O19 1_555 1_555
H6 O19 1_555 1_555
O20 Na1 1_555 1_555
H7 O20 1_555 1_555
H8 O20 1_555 1_555
O21 Na2 1_555 1_555
H9 O21 1_555 1_555
H10 O21 1_555 1_555
O22 Na2 1_555 1_555
H11 O22 1_555 1_555
H12 O22 1_555 1_555
O23 Na3 1_555 1_555
H13 O23 1_555 1_555
H14 O23 1_555 1_555
O24 Na4 1_555 1_555
H15 O24 1_555 1_555
H16 O24 1_555 1_555
C1 O2 1_555 1_555
C2 C1 1_555 1_555
H17 C2 1_555 1_555
H18 C2 1_555 1_555
C3 O1 1_555 1_555
C4 C3 1_555 1_555
H19 C4 1_555 1_555
C5 C4 1_555 1_555
H20 C5 1_555 1_555
C6 C5 1_555 1_555
C7 C6 1_555 1_555
H21 C7 1_555 1_555
C8 C3 1_555 1_555
H22 C8 1_555 1_555
C9 C10 1_555 1_555
C10 H23 1_555 1_555
C11 C10 1_555 1_555
H24 C11 1_555 1_555
C12 C11 1_555 1_555
C13 C12 1_555 1_555
H25 C13 1_555 1_555
C14 C9 1_555 1_555
H26 C14 1_555 1_555
C15 O6 1_555 1_555
H27 C15 1_555 1_555
H28 C15 1_555 1_555
C16 C15 1_555 1_555
C17 O10 1_555 1_555
C18 C17 1_555 1_555
H29 C18 1_555 1_555
H30 C18 1_555 1_555
C19 O9 1_555 1_555
C20 C19 1_555 1_555
H31 C20 1_555 1_555
C21 C20 1_555 1_555
H32 C21 1_555 1_555
C22 C21 1_555 1_555
C23 C22 1_555 1_555
H33 C23 1_555 1_555
C24 C19 1_555 1_555
H34 C24 1_555 1_555
C25 C26 1_555 1_555
C26 H35 1_555 1_555
C27 C26 1_555 1_555
H36 C27 1_555 1_555
C28 C27 1_555 1_555
C29 C28 1_555 1_555
H37 C29 1_555 1_555
C30 C25 1_555 1_555
H38 C30 1_555 1_555
C31 O14 1_555 1_555
H39 C31 1_555 1_555
H40 C31 1_555 1_555
C32 C31 1_555 1_555
S1 C6 1_555 1_555
S2 C22 1_555 1_555
Na3_2 O8 1_555 1_555
Na3_3 O14 1_555 1_555
Na4_2 O2 1_555 1_555
Na4_3 O15 1_555 1_555
O2_2 Na4 1_555 1_555
O8_2 Na3 1_555 1_555
O14_2 Na3 1_555 1_555
O15_2 Na3 1_555 1_555
O20_2 Na4 1_555 1_555
Na2 O17 1_555 1_555
Na2 O18 1_555 1_555
Na3 O22 1_555 1_555
Na4 O15_2 1_555 1_555
O15 Na3_3 1_555 1_555
O20 Na4_2 1_555 1_555
C7 C8 1_555 1_555
C9 S1 1_555 1_555
C13 C14 1_555 1_555
C23 C24 1_555 1_555
C25 S2 1_555 1_555
C29 C30 1_555 1_555

#END
