
#######################################################################
#
#                 Cambridge Crystallographic Data Centre
#                                CCDC 
#
#######################################################################
#
# If this CIF has been generated from an entry in the Cambridge 
# Structural Database, then it will include bibliographic, chemical, 
# crystal, experimental, refinement or atomic coordinate data resulting 
# from the CCDC's data processing and validation procedures.
#
#######################################################################

data_QIJNOO
_symmetry_cell_setting           monoclinic
_symmetry_space_group_name_H-M   'P 21/n'
_symmetry_Int_Tables_number      14
_space_group_name_Hall           '-P 2yn'
loop_
_symmetry_equiv_pos_site_id
_symmetry_equiv_pos_as_xyz
1 x,y,z
2 1/2-x,1/2+y,1/2-z
3 -x,-y,-z
4 1/2+x,1/2-y,1/2+z
_cell_length_a                   15.3832(4)
_cell_length_b                   6.34810(10)
_cell_length_c                   21.1606(5)
_cell_angle_alpha                90
_cell_angle_beta                 90.5820(10)
_cell_angle_gamma                90
_cell_volume                     2066.31
loop_
_atom_site_label
_atom_site_type_symbol
_atom_site_fract_x
_atom_site_fract_y
_atom_site_fract_z
K1 K 0.094861(16) 0.35025(4) 0.081718(11)
O1 O 0.10832(5) -0.25622(12) 0.12862(4)
H1 H 0.0616(10) -0.146(2) 0.1106(7)
O2 O 0.19157(5) 0.02958(12) 0.14601(4)
O3 O 0.23039(5) -0.51295(12) 0.16089(4)
H2 H 0.2761(10) -0.580(3) 0.1754(7)
O4 O 0.37824(5) -0.58187(12) 0.21043(4)
O5 O 0.71085(5) -0.13407(13) 0.32273(5)
C1 C 0.17878(7) -0.15990(15) 0.14749(5)
C2 C 0.24789(7) -0.31033(16) 0.17157(5)
C3 C 0.32152(7) -0.23950(16) 0.20031(5)
H3 H 0.3295(9) -0.094(2) 0.2060(7)
C4 C 0.38838(7) -0.38792(16) 0.21960(5)
C5 C 0.47061(7) -0.31106(16) 0.24838(5)
C6 C 0.54056(7) -0.45201(17) 0.25357(6)
H4 H 0.5335 -0.5935 0.2399
C7 C 0.61938(7) -0.38761(18) 0.27830(6)
H5 H 0.6666 -0.4839 0.2806
C8 C 0.63018(7) -0.18150(17) 0.29998(5)
C9 C 0.56060(7) -0.04037(17) 0.29702(5)
H6 H 0.5669 0.0987 0.3130
C10 C 0.48194(7) -0.10559(17) 0.27046(5)
H7 H 0.4351 -0.0085 0.2673
C11 C 0.72737(8) 0.07866(19) 0.34241(6)
H8 H 0.7198 0.1736 0.3063
H9 H 0.7870 0.0899 0.3587
H10 H 0.6865 0.1177 0.3757
O6 O 0.00426(5) -0.00255(12) 0.08664(4)
O7 O -0.08478(5) -0.24898(12) 0.04660(4)
O8 O -0.09110(5) 0.30340(12) 0.04625(4)
H11 H -0.1306(10) 0.386(2) 0.0348(7)
O9 O -0.23541(5) 0.43226(12) -0.00102(4)
O10 O -0.59212(5) 0.11734(14) -0.11483(5)
C12 C -0.06453(6) -0.06570(15) 0.05847(5)
C13 C -0.12488(7) 0.11186(15) 0.03830(5)
C14 C -0.20529(7) 0.07281(16) 0.01429(5)
H12 H -0.2255(9) -0.066(2) 0.0116(7)
C15 C -0.26057(7) 0.24507(16) -0.00662(5)
C16 C -0.34704(6) 0.20051(16) -0.03497(5)
C17 C -0.40475(7) 0.36872(16) -0.04486(5)
H13 H -0.3879 0.5072 -0.0330
C18 C -0.48552(7) 0.33529(18) -0.07160(6)
H14 H -0.5242 0.4503 -0.0776
C19 C -0.51075(7) 0.13258(17) -0.09002(5)
C20 C -0.45353(7) -0.03595(17) -0.08203(6)
H15 H -0.4697 -0.1734 -0.0954
C21 C -0.37267(7) -0.00053(17) -0.05422(5)
H16 H -0.3340 -0.1156 -0.0482
C22 C -0.62155(8) -0.0852(2) -0.13503(6)
H17 H -0.5838 -0.1373 -0.1686
H18 H -0.6813 -0.0741 -0.1511
H19 H -0.6197 -0.1831 -0.0992
K1_2 K 0.094861(16) -0.64975(4) 0.081718(11)
K1B K -0.094861(16) -0.35025(4) -0.081718(11)
K1B_2 K -0.094861(16) 0.64975(4) -0.081718(11)
O1_2 O 0.10832(5) 0.74378(12) 0.12862(4)
O3_2 O 0.23039(5) 0.48705(12) 0.16089(4)
O7B O 0.08478(5) 0.24898(12) -0.04660(4)
O9B O 0.23541(5) 0.56774(12) 0.00102(4)
loop_
_geom_bond_atom_site_label_1
_geom_bond_atom_site_label_2
_geom_bond_site_symmetry_1
_geom_bond_site_symmetry_2
K1 O2 1_555 1_555
O1 H1 1_555 1_555
O2 C1 1_555 1_555
O3 H2 1_555 1_555
O4 C4 1_555 1_555
O5 C8 1_555 1_555
C1 O1 1_555 1_555
C2 O3 1_555 1_555
C3 C2 1_555 1_555
H3 C3 1_555 1_555
C4 C3 1_555 1_555
C5 C4 1_555 1_555
C6 C5 1_555 1_555
H4 C6 1_555 1_555
C7 C6 1_555 1_555
H5 C7 1_555 1_555
C8 C7 1_555 1_555
C9 C8 1_555 1_555
H6 C9 1_555 1_555
C10 C5 1_555 1_555
H7 C10 1_555 1_555
C11 O5 1_555 1_555
H8 C11 1_555 1_555
H9 C11 1_555 1_555
H10 C11 1_555 1_555
O6 K1 1_555 1_555
O7 C12 1_555 1_555
O8 K1 1_555 1_555
H11 O8 1_555 1_555
O9 C15 1_555 1_555
O10 C19 1_555 1_555
C12 O6 1_555 1_555
C13 O8 1_555 1_555
C14 C13 1_555 1_555
H12 C14 1_555 1_555
C15 C14 1_555 1_555
C16 C15 1_555 1_555
C17 C16 1_555 1_555
H13 C17 1_555 1_555
C18 C17 1_555 1_555
H14 C18 1_555 1_555
C19 C18 1_555 1_555
C20 C19 1_555 1_555
H15 C20 1_555 1_555
C21 C16 1_555 1_555
H16 C21 1_555 1_555
C22 O10 1_555 1_555
H17 C22 1_555 1_555
H18 C22 1_555 1_555
H19 C22 1_555 1_555
K1_2 O1 1_555 1_555
K1B O7 1_555 1_555
K1B_2 O9 1_555 1_555
O1_2 K1 1_555 1_555
O3_2 K1 1_555 1_555
O7B K1 1_555 1_555
O9B K1 1_555 1_555
O3 K1_2 1_555 1_555
C1 C2 1_555 1_555
C9 C10 1_555 1_555
C12 C13 1_555 1_555
C20 C21 1_555 1_555

#END
