
#######################################################################
#
#                 Cambridge Crystallographic Data Centre
#                                CCDC 
#
#######################################################################
#
# If this CIF has been generated from an entry in the Cambridge 
# Structural Database, then it will include bibliographic, chemical, 
# crystal, experimental, refinement or atomic coordinate data resulting 
# from the CCDC's data processing and validation procedures.
#
#######################################################################

data_QIJSIN
_symmetry_cell_setting           hexagonal
_symmetry_space_group_name_H-M   'P 65 2 2'
_symmetry_Int_Tables_number      179
_space_group_name_Hall           "P 65 2' (0,0,1)"
loop_
_symmetry_equiv_pos_site_id
_symmetry_equiv_pos_as_xyz
1 x,y,z
2 x-y,x,5/6+z
3 -y,x-y,2/3+z
4 -x,-y,1/2+z
5 -x+y,-x,1/3+z
6 y,-x+y,1/6+z
7 -y,-x,1/6-z
8 x-y,-y,-z
9 x,x-y,5/6-z
10 y,x,2/3-z
11 -x+y,y,1/2-z
12 -x,-x+y,1/3-z
_cell_length_a                   16.6696(12)
_cell_length_b                   16.6696(12)
_cell_length_c                   36.999(5)
_cell_angle_alpha                90
_cell_angle_beta                 90
_cell_angle_gamma                120
_cell_volume                     8903.71
loop_
_atom_site_label
_atom_site_type_symbol
_atom_site_fract_x
_atom_site_fract_y
_atom_site_fract_z
Co1 Co 0.42958(6) 0.57042(6) 0.5833
Co2 Co 1.07546(6) 0.92454(6) 0.5833
Br1 Br 0.55383(8) 0.16258(8) 0.62750(4)
Br2 Br 0.66913(10) 1.05094(10) 0.61027(6)
S1 S 0.1394(2) 0.6411(3) 0.69350(10)
O1 O 0.5648(5) 0.4876(5) 0.6301(2)
H1 H 0.5808 0.5428 0.6292
O2 O 0.4226(4) 0.4652(4) 0.61529(19)
O3 O 0.1610(4) 0.1449(4) 0.62436(16)
O4 O 0.1882(4) 0.0294(4) 0.61059(17)
O5 O 0.6473(4) 0.6580(4) 0.62750(19)
O6 O 0.5343(5) 0.6833(4) 0.61003(19)
O7 O 0.9918(4) 1.0637(4) 0.62373(15)
H2 H 1.0467 1.0788 0.6241
O8 O 0.9719(4) 0.9212(4) 0.61739(15)
N1 N 0.3353(5) 0.5830(6) 0.6190(2)
N2 N 0.0891(5) 0.8331(6) 0.6193(2)
C1 C 0.4773(8) 0.4389(7) 0.6249(3)
C2 C 0.4452(7) 0.3378(7) 0.6249(3)
C3 C 0.3482(6) 0.2727(7) 0.6228(3)
H3 H 0.3064 0.2943 0.6228
C4 C 0.3152(7) 0.1787(7) 0.6207(2)
C5 C 0.3775(7) 0.1458(7) 0.6222(3)
H4 H 0.3565 0.0826 0.6210
C6 C 0.4716(7) 0.2095(7) 0.6256(3)
C7 C 0.5050(7) 0.3022(7) 0.6257(3)
H5 H 0.5686 0.3426 0.6264
C8 C 0.2150(7) 0.1132(8) 0.6182(3)
C9 C 0.6151(7) 0.7105(7) 0.6198(3)
C10 C 0.6824(7) 0.8115(7) 0.6196(3)
C11 C 0.7764(7) 0.8460(7) 0.6212(2)
H6 H 0.7976 0.8040 0.6228
C12 C 0.8414(7) 0.9394(7) 0.6208(2)
C13 C 0.8068(7) 0.9988(7) 0.6178(3)
H7 H 0.8474 1.0624 0.6179
C14 C 0.7143(8) 0.9658(8) 0.6147(3)
C15 C 0.6510(7) 0.8718(7) 0.6157(3)
H8 H 0.5879 0.8505 0.6137
C16 C 0.9419(7) 0.9747(7) 0.6211(3)
C17 C 0.3467(7) 0.6662(8) 0.6264(3)
H9 H 0.3968 0.7167 0.6155
C18 C 0.2918(8) 0.6845(9) 0.6483(3)
H10 H 0.3064 0.7449 0.6534
C19 C 0.2182(8) 0.6137(10) 0.6618(3)
C20 C 0.1998(8) 0.5259(9) 0.6566(3)
H11 H 0.1477 0.4768 0.6671
C21 C 0.2619(8) 0.5085(9) 0.6344(3)
H12 H 0.2517 0.4488 0.6309
C22 C 0.0852(6) 0.7537(7) 0.6068(3)
H13 H 0.0723 0.7391 0.5824
C23 C 0.0997(6) 0.6927(7) 0.6290(4)
H14 H 0.0946 0.6382 0.6200
C24 C 0.1220(8) 0.7194(10) 0.6648(4)
C25 C 0.1248(8) 0.7986(10) 0.6771(3)
H15 H 0.1382 0.8156 0.7012
C26 C 0.1082(7) 0.8517(8) 0.6542(3)
H16 H 0.1102 0.9045 0.6635
Br1F Br 0.83742(8) 0.44617(8) 0.53917(4)
Br2F Br -0.05094(10) 0.33087(10) 0.55640(6)
S1F S 0.3589(3) 0.8606(2) 0.47317(10)
O1F O 0.5124(5) 0.4352(5) 0.5366(2)
H1F H 0.4572 0.4192 0.5375
O2F O 0.5348(4) 0.5774(4) 0.55138(19)
O3F O 0.8551(4) 0.8390(4) 0.54231(16)
O4F O 0.9706(4) 0.8118(4) 0.55608(17)
O5F O 0.3420(4) 0.3527(4) 0.53917(19)
O6F O 0.3167(4) 0.4657(5) 0.55664(19)
O7F O -0.0637(4) 0.0082(4) 0.54294(15)
H2F H -0.0788 -0.0467 0.5426
O8F O 0.0788(4) 0.0281(4) 0.54928(15)
N1F N 0.4170(6) 0.6647(5) 0.5477(2)
N2F N 0.1669(6) 0.9109(5) 0.5474(2)
C1F C 0.5611(7) 0.5227(8) 0.5418(3)
C2F C 0.6622(7) 0.5548(7) 0.5418(3)
C3F C 0.7273(7) 0.6518(6) 0.5439(3)
H3F H 0.7057 0.6936 0.5439
C4F C 0.8213(7) 0.6848(7) 0.5460(2)
C5F C 0.8542(7) 0.6225(7) 0.5445(3)
H4F H 0.9174 0.6435 0.5457
C6F C 0.7905(7) 0.5284(7) 0.5411(3)
C7F C 0.6978(7) 0.4950(7) 0.5410(3)
H5F H 0.6574 0.4314 0.5403
C8F C 0.8868(8) 0.7850(7) 0.5485(3)
C9F C 0.2895(7) 0.3849(7) 0.5469(3)
C10F C 0.1885(7) 0.3176(7) 0.5471(3)
C11F C 0.1540(7) 0.2236(7) 0.5455(2)
H6F H 0.1960 0.2024 0.5439
C12F C 0.0606(7) 0.1586(7) 0.5459(2)
C13F C 0.0012(7) 0.1932(7) 0.5489(3)
H7F H -0.0624 0.1526 0.5488
C14F C 0.0342(8) 0.2857(8) 0.5520(3)
C15F C 0.1282(7) 0.3490(7) 0.5510(3)
H8F H 0.1495 0.4121 0.5530
C16F C 0.0253(7) 0.0581(7) 0.5456(3)
C17F C 0.3338(8) 0.6533(7) 0.5403(3)
H9F H 0.2833 0.6032 0.5512
C18F C 0.3155(9) 0.7082(8) 0.5184(3)
H10F H 0.2551 0.6936 0.5133
C19F C 0.3863(10) 0.7818(8) 0.5049(3)
C20F C 0.4741(9) 0.8002(8) 0.5101(3)
H11F H 0.5232 0.8523 0.4996
C21F C 0.4915(9) 0.7381(8) 0.5323(3)
H12F H 0.5512 0.7483 0.5358
C22F C 0.2463(7) 0.9148(6) 0.5599(3)
H13F H 0.2609 0.9277 0.5843
C23F C 0.3073(7) 0.9003(6) 0.5377(4)
H14F H 0.3618 0.9054 0.5467
C24F C 0.2806(10) 0.8780(8) 0.5019(4)
C25F C 0.2014(10) 0.8752(8) 0.4896(3)
H15F H 0.1844 0.8618 0.4655
C26F C 0.1483(8) 0.8918(7) 0.5125(3)
H16F H 0.0955 0.8898 0.5032
Co2_2 Co 0.07546(6) -0.07546(6) 0.5833
Co2_3 Co 0.07546(6) 0.92454(6) 0.5833
O4_2 O 1.1882(4) 1.0294(4) 0.61059(17)
O8F_2 O 1.0788(4) 1.0281(4) 0.54928(15)
N2_2 N 1.0891(5) 0.8331(6) 0.6193(2)
N2F_2 N 1.1669(6) 0.9109(5) 0.5474(2)
loop_
_geom_bond_atom_site_label_1
_geom_bond_atom_site_label_2
_geom_bond_site_symmetry_1
_geom_bond_site_symmetry_2
Co1 O2 1_555 1_555
Co2 O8 1_555 1_555
Br1 C6 1_555 1_555
Br2 C14 1_555 1_555
S1 C19 1_555 1_555
O1 H1 1_555 1_555
O2 C1 1_555 1_555
O3 C8 1_555 1_555
O4 C8 1_555 1_555
O5 C9 1_555 1_555
O6 Co1 1_555 1_555
O7 H2 1_555 1_555
O8 C16 1_555 1_555
N1 Co1 1_555 1_555
N2 C22 1_555 1_555
C1 O1 1_555 1_555
C2 C1 1_555 1_555
C3 C2 1_555 1_555
H3 C3 1_555 1_555
C4 C3 1_555 1_555
C5 C4 1_555 1_555
H4 C5 1_555 1_555
C6 C5 1_555 1_555
C7 C2 1_555 1_555
H5 C7 1_555 1_555
C8 C4 1_555 1_555
C9 O6 1_555 1_555
C10 C9 1_555 1_555
C11 C10 1_555 1_555
H6 C11 1_555 1_555
C12 C11 1_555 1_555
C13 C12 1_555 1_555
H7 C13 1_555 1_555
C14 C13 1_555 1_555
C15 C10 1_555 1_555
H8 C15 1_555 1_555
C16 O7 1_555 1_555
C17 N1 1_555 1_555
H9 C17 1_555 1_555
C18 C17 1_555 1_555
H10 C18 1_555 1_555
C19 C18 1_555 1_555
C20 C19 1_555 1_555
H11 C20 1_555 1_555
C21 N1 1_555 1_555
H12 C21 1_555 1_555
C22 H13 1_555 1_555
C23 C22 1_555 1_555
H14 C23 1_555 1_555
C24 S1 1_555 1_555
C25 C24 1_555 1_555
H15 C25 1_555 1_555
C26 N2 1_555 1_555
H16 C26 1_555 1_555
Br1F C6F 1_555 1_555
Br2F C14F 1_555 1_555
S1F C19F 1_555 1_555
O1F H1F 1_555 1_555
O2F Co1 1_555 1_555
O3F C8F 1_555 1_555
O4F Co2 1_555 1_555
O5F C9F 1_555 1_555
O6F Co1 1_555 1_555
O7F H2F 1_555 1_555
O8F C16F 1_555 1_555
N1F Co1 1_555 1_555
N2F C22F 1_555 1_555
C1F O1F 1_555 1_555
C2F C1F 1_555 1_555
C3F C2F 1_555 1_555
H3F C3F 1_555 1_555
C4F C3F 1_555 1_555
C5F C4F 1_555 1_555
H4F C5F 1_555 1_555
C6F C5F 1_555 1_555
C7F C2F 1_555 1_555
H5F C7F 1_555 1_555
C8F O4F 1_555 1_555
C9F O6F 1_555 1_555
C10F C9F 1_555 1_555
C11F C10F 1_555 1_555
H6F C11F 1_555 1_555
C12F C11F 1_555 1_555
C13F C12F 1_555 1_555
H7F C13F 1_555 1_555
C14F C13F 1_555 1_555
C15F C10F 1_555 1_555
H8F C15F 1_555 1_555
C16F O7F 1_555 1_555
C17F N1F 1_555 1_555
H9F C17F 1_555 1_555
C18F C17F 1_555 1_555
H10F C18F 1_555 1_555
C19F C18F 1_555 1_555
C20F C19F 1_555 1_555
H11F C20F 1_555 1_555
C21F N1F 1_555 1_555
H12F C21F 1_555 1_555
C22F H13F 1_555 1_555
C23F C22F 1_555 1_555
H14F C23F 1_555 1_555
C24F S1F 1_555 1_555
C25F C24F 1_555 1_555
H15F C25F 1_555 1_555
C26F N2F 1_555 1_555
H16F C26F 1_555 1_555
Co2_2 O4 1_555 1_555
Co2_3 N2 1_555 1_555
O4_2 Co2 1_555 1_555
O8F_2 Co2 1_555 1_555
N2_2 Co2 1_555 1_555
N2F_2 Co2 1_555 1_555
C6 C7 1_555 1_555
C12 C16 1_555 1_555
C14 C15 1_555 1_555
C20 C21 1_555 1_555
C23 C24 1_555 1_555
C25 C26 1_555 1_555
O2F C1F 1_555 1_555
O8F Co2_2 1_555 1_555
N2F Co2_3 1_555 1_555
C4F C8F 1_555 1_555
C6F C7F 1_555 1_555
C12F C16F 1_555 1_555
C14F C15F 1_555 1_555
C20F C21F 1_555 1_555
C23F C24F 1_555 1_555
C25F C26F 1_555 1_555

#END
