
#######################################################################
#
#                 Cambridge Crystallographic Data Centre
#                                CCDC 
#
#######################################################################
#
# If this CIF has been generated from an entry in the Cambridge 
# Structural Database, then it will include bibliographic, chemical, 
# crystal, experimental, refinement or atomic coordinate data resulting 
# from the CCDC's data processing and validation procedures.
#
#######################################################################

data_QIJSOT
_symmetry_cell_setting           triclinic
_symmetry_space_group_name_H-M   'P -1'
_symmetry_Int_Tables_number      2
_space_group_name_Hall           '-P 1'
loop_
_symmetry_equiv_pos_site_id
_symmetry_equiv_pos_as_xyz
1 x,y,z
2 -x,-y,-z
_cell_length_a                   8.925(4)
_cell_length_b                   10.236(5)
_cell_length_c                   12.184(6)
_cell_angle_alpha                69.539(6)
_cell_angle_beta                 84.699(7)
_cell_angle_gamma                77.991(7)
_cell_volume                     1019.8
loop_
_atom_site_label
_atom_site_type_symbol
_atom_site_fract_x
_atom_site_fract_y
_atom_site_fract_z
Mn1 Mn 0.6429(2) 0.64619(18) 0.94766(17)
Br1 Br -0.22702(16) 0.86068(15) 1.24093(14)
S1 S 0.3778(6) 0.8817(5) 0.3872(4)
S2 S 0.2999(6) 0.7079(5) 0.3891(4)
S3 S 0.1066(5) 0.6946(6) 0.4922(4)
O1 O 0.4128(10) 0.6535(8) 1.0068(8)
O2 O 0.1585(9) 1.2352(8) 1.1100(7)
O3 O 0.3766(9) 1.1333(8) 1.0529(8)
O4 O 0.2320(9) 0.5312(8) 1.0930(7)
N1 N 0.2752(12) 0.4603(10) 0.8670(9)
N2 N 0.5641(13) 0.7220(11) 0.7582(10)
C1 C 0.2849(14) 0.6411(13) 1.0627(10)
C2 C 0.2025(13) 0.7670(11) 1.0959(11)
C3 C 0.0559(12) 0.7609(12) 1.1443(10)
H1 H 0.0136 0.6811 1.1563
C4 C -0.0252(12) 0.8716(12) 1.1737(11)
C5 C 0.0313(13) 0.9939(12) 1.1552(10)
H2 H -0.0266 1.0696 1.1748
C6 C 0.1795(13) 0.9992(11) 1.1055(10)
C7 C 0.2633(13) 0.8896(11) 1.0752(10)
H3 H 0.3603 0.8958 1.0409
C8 C 0.2401(14) 1.1335(12) 1.0877(10)
C9 C 0.4295(18) 0.8112(14) 0.7291(13)
H4 H 0.3720 0.8398 0.7872
C10 C 0.3720(18) 0.8628(15) 0.6182(14)
H5 H 0.2774 0.9237 0.6029
C11 C 0.4549(19) 0.8238(15) 0.5295(12)
C12 C 0.5972(18) 0.7305(16) 0.5596(15)
H6 H 0.6586 0.7009 0.5036
C13 C 0.6425(16) 0.6847(15) 0.6739(14)
H7 H 0.7359 0.6226 0.6928
C14 C 0.3532(17) 0.4396(14) 0.7766(14)
H8 H 0.4454 0.3750 0.7906
C15 C 0.3083(18) 0.5074(15) 0.6606(14)
H9 H 0.3693 0.4871 0.6003
C16 C 0.1719(19) 0.6057(15) 0.6355(13)
C17 C 0.0892(16) 0.6270(16) 0.7292(17)
H10 H -0.0044 0.6897 0.7179
C18 C 0.1442(17) 0.5552(15) 0.8423(15)
H11 H 0.0863 0.5745 0.9042
Mn1A Mn 0.3571(2) 0.35381(18) 1.05234(17)
Mn1A_2 Mn 0.3571(2) 1.35381(18) 1.05234(17)
O2A O 0.8415(9) 0.7648(8) 0.8900(7)
O3A O 0.6234(9) 0.8667(8) 0.9471(8)
O4A O 0.7680(9) 0.4688(8) 0.9070(7)
N1A N 0.7248(12) 0.5397(10) 1.1330(9)
loop_
_geom_bond_atom_site_label_1
_geom_bond_atom_site_label_2
_geom_bond_site_symmetry_1
_geom_bond_site_symmetry_2
Mn1 O1 1_555 1_555
Br1 C4 1_555 1_555
S1 S2 1_555 1_555
S2 S3 1_555 1_555
S3 C16 1_555 1_555
O1 C1 1_555 1_555
O2 C8 1_555 1_555
O3 C8 1_555 1_555
O4 C1 1_555 1_555
N1 C14 1_555 1_555
N2 Mn1 1_555 1_555
C1 C2 1_555 1_555
C2 C3 1_555 1_555
C3 H1 1_555 1_555
C4 C3 1_555 1_555
C5 C4 1_555 1_555
H2 C5 1_555 1_555
C6 C5 1_555 1_555
C7 C2 1_555 1_555
H3 C7 1_555 1_555
C8 C6 1_555 1_555
C9 N2 1_555 1_555
H4 C9 1_555 1_555
C10 C9 1_555 1_555
H5 C10 1_555 1_555
C11 S1 1_555 1_555
C12 C11 1_555 1_555
H6 C12 1_555 1_555
C13 N2 1_555 1_555
H7 C13 1_555 1_555
C14 H8 1_555 1_555
C15 C14 1_555 1_555
H9 C15 1_555 1_555
C16 C15 1_555 1_555
C17 C16 1_555 1_555
H10 C17 1_555 1_555
C18 N1 1_555 1_555
H11 C18 1_555 1_555
Mn1A O4 1_555 1_555
Mn1A_2 O2 1_555 1_555
O2A Mn1 1_555 1_555
O3A Mn1 1_555 1_555
O4A Mn1 1_555 1_555
N1A Mn1 1_555 1_555
O3 Mn1A_2 1_555 1_555
N1 Mn1A 1_555 1_555
C6 C7 1_555 1_555
C10 C11 1_555 1_555
C12 C13 1_555 1_555
C17 C18 1_555 1_555

#END
