
#######################################################################
#
#                 Cambridge Crystallographic Data Centre
#                                CCDC 
#
#######################################################################
#
# If this CIF has been generated from an entry in the Cambridge 
# Structural Database, then it will include bibliographic, chemical, 
# crystal, experimental, refinement or atomic coordinate data resulting 
# from the CCDC's data processing and validation procedures.
#
#######################################################################

data_QIJTEI
_symmetry_cell_setting           orthorhombic
_symmetry_space_group_name_H-M   'P b c a'
_symmetry_Int_Tables_number      61
_space_group_name_Hall           '-P 2ac 2ab'
loop_
_symmetry_equiv_pos_site_id
_symmetry_equiv_pos_as_xyz
1 x,y,z
2 1/2+x,y,1/2-z
3 x,1/2-y,1/2+z
4 1/2-x,1/2+y,z
5 -x,-y,-z
6 1/2-x,-y,1/2+z
7 -x,1/2+y,1/2-z
8 1/2+x,1/2-y,-z
_cell_length_a                   11.459(2)
_cell_length_b                   9.7078(11)
_cell_length_c                   13.468(4)
_cell_angle_alpha                90
_cell_angle_beta                 90
_cell_angle_gamma                90
_cell_volume                     1498.2
loop_
_atom_site_label
_atom_site_type_symbol
_atom_site_fract_x
_atom_site_fract_y
_atom_site_fract_z
Cu1 Cu 0.46639(3) 0.57377(4) 0.60884(3)
Br1 Br 0.50724(3) 0.68412(3) 0.44811(2)
N1 N 0.6050(2) 0.5955(2) 0.70725(17)
C1 C 0.6095(2) 0.5307(3) 0.7951(2)
C2 C 0.7088(2) 0.5406(3) 0.8561(2)
N2 N 0.8046(2) 0.6080(3) 0.82603(18)
C3 C 0.7977(2) 0.6744(3) 0.7382(2)
H1 H 0.8618 0.7242 0.7158
C4 C 0.6988(2) 0.6702(3) 0.6812(2)
H2 H 0.6965 0.7208 0.6225
C5 C 0.5068(3) 0.4461(3) 0.8250(2)
H3 H 0.4592 0.4977 0.8704
H4 H 0.5333 0.3632 0.8568
H5 H 0.4619 0.4229 0.7672
C6 C 0.7101(3) 0.4799(4) 0.9578(2)
H6 H 0.7739 0.5181 0.9949
H7 H 0.7193 0.3818 0.9531
H8 H 0.6380 0.5007 0.9907
Br1D Br 0.49276(3) 0.31588(3) 0.55189(2)
N2A N 0.3046(2) 0.6080(3) 0.67397(18)
Cu1D Cu 0.53361(3) 0.42623(4) 0.39116(3)
Cu1A Cu 0.96639(3) 0.57377(4) 0.89116(3)
loop_
_geom_bond_atom_site_label_1
_geom_bond_atom_site_label_2
_geom_bond_site_symmetry_1
_geom_bond_site_symmetry_2
Cu1 Br1 1_555 1_555
Br1 Cu1D 1_555 1_555
N1 Cu1 1_555 1_555
C1 N1 1_555 1_555
C2 C1 1_555 1_555
N2 C2 1_555 1_555
C3 N2 1_555 1_555
H1 C3 1_555 1_555
C4 N1 1_555 1_555
H2 C4 1_555 1_555
C5 C1 1_555 1_555
H3 C5 1_555 1_555
H4 C5 1_555 1_555
H5 C5 1_555 1_555
C6 C2 1_555 1_555
H6 C6 1_555 1_555
H7 C6 1_555 1_555
H8 C6 1_555 1_555
Br1D Cu1 1_555 1_555
N2A Cu1 1_555 1_555
Cu1D Br1D 1_555 1_555
Cu1A N2 1_555 1_555
C3 C4 1_555 1_555

#END
