
#######################################################################
#
#                 Cambridge Crystallographic Data Centre
#                                CCDC 
#
#######################################################################
#
# If this CIF has been generated from an entry in the Cambridge 
# Structural Database, then it will include bibliographic, chemical, 
# crystal, experimental, refinement or atomic coordinate data resulting 
# from the CCDC's data processing and validation procedures.
#
#######################################################################

data_QIJVOW
_symmetry_cell_setting           monoclinic
_symmetry_space_group_name_H-M   'P 21/n'
_symmetry_Int_Tables_number      14
_space_group_name_Hall           '-P 2yn'
loop_
_symmetry_equiv_pos_site_id
_symmetry_equiv_pos_as_xyz
1 x,y,z
2 1/2-x,1/2+y,1/2-z
3 -x,-y,-z
4 1/2+x,1/2-y,1/2+z
_cell_length_a                   7.201(5)
_cell_length_b                   26.009(17)
_cell_length_c                   17.011(11)
_cell_angle_alpha                90
_cell_angle_beta                 98.653(9)
_cell_angle_gamma                90
_cell_volume                     3149.74
loop_
_atom_site_label
_atom_site_type_symbol
_atom_site_fract_x
_atom_site_fract_y
_atom_site_fract_z
Cu1 Cu 0.97538(8) 0.238281(19) 0.91314(3)
N1 N 0.9761(5) 0.22968(13) 1.0328(2)
N2 N 0.8999(5) 0.33364(13) 0.9758(2)
N3 N 0.7566(5) 0.35253(13) 1.0761(2)
N4 N 0.9617(5) 0.24689(13) 0.7949(2)
N5 N 0.9046(5) 0.14058(13) 0.8390(2)
N6 N 0.7577(5) 0.12184(14) 0.7212(2)
O1 O 1.0100(4) 0.31098(11) 0.93241(17)
O2 O 0.7003(5) 0.35116(12) 1.14367(17)
O3 O 0.9942(4) 0.16478(11) 0.90143(17)
O4 O 0.6790(5) 0.12552(13) 0.64899(18)
C1 C 1.0252(7) 0.18362(17) 1.0656(3)
H1 H 1.0620 0.1572 1.0325
C2 C 1.0247(7) 0.17278(17) 1.1458(3)
H2 H 1.0576 0.1395 1.1663
C3 C 0.9757(7) 0.21105(17) 1.1948(3)
H3 H 0.9767 0.2048 1.2498
C4 C 0.9246(6) 0.25919(16) 1.1619(3)
H4 H 0.8910 0.2863 1.1945
C5 C 0.9235(6) 0.26688(16) 1.0812(3)
C6 C 0.8632(6) 0.31674(16) 1.0460(2)
C7 C 0.6869(6) 0.39343(16) 1.0157(3)
C8 C 0.4824(6) 0.3787(2) 0.9849(3)
H5 H 0.4790 0.3446 0.9603
H6 H 0.4274 0.4040 0.9455
H7 H 0.4103 0.3780 1.0294
C9 C 0.6960(8) 0.44532(18) 1.0560(3)
H8 H 0.6061 0.4463 1.0939
H9 H 0.6647 0.4723 1.0159
H10 H 0.8232 0.4511 1.0843
C10 C 0.8231(6) 0.38632(16) 0.9540(2)
C11 C 0.9927(7) 0.42287(17) 0.9645(3)
H11 H 1.0563 0.4213 1.0195
H12 H 0.9497 0.4581 0.9520
H13 H 1.0803 0.4126 0.9285
C12 C 0.7302(7) 0.38620(18) 0.8674(3)
H14 H 0.8266 0.3826 0.8327
H15 H 0.6621 0.4186 0.8553
H16 H 0.6421 0.3573 0.8583
C13 C 1.0218(6) 0.29153(17) 0.7692(3)
H17 H 1.0729 0.3163 0.8076
C14 C 1.0135(6) 0.30357(18) 0.6896(3)
H18 H 1.0565 0.3360 0.6741
C15 C 0.9419(6) 0.26792(17) 0.6330(3)
H19 H 0.9330 0.2755 0.5779
C16 C 0.8836(6) 0.22109(17) 0.6584(3)
H20 H 0.8360 0.1956 0.6206
C17 C 0.8945(6) 0.21126(16) 0.7391(2)
C18 C 0.8475(6) 0.15997(16) 0.7667(2)
C19 C 0.7392(7) 0.07331(16) 0.7686(3)
C20 C 0.5398(7) 0.07316(18) 0.7888(3)
H21 H 0.5218 0.1034 0.8212
H22 H 0.5201 0.0419 0.8185
H23 H 0.4495 0.0741 0.7396
C21 C 0.7731(7) 0.02608(17) 0.7194(3)
H24 H 0.6707 0.0227 0.6747
H25 H 0.7776 -0.0047 0.7528
H26 H 0.8927 0.0299 0.6991
C22 C 0.8945(7) 0.08299(16) 0.8414(3)
C23 C 1.0911(7) 0.06497(18) 0.8286(3)
H27 H 1.1184 0.0778 0.7774
H28 H 1.0953 0.0273 0.8288
H29 H 1.1849 0.0783 0.8715
C24 C 0.8483(8) 0.06485(18) 0.9210(3)
H30 H 0.9555 0.0716 0.9626
H31 H 0.8218 0.0279 0.9185
H32 H 0.7379 0.0834 0.9334
Cl1 Cl 0.48174(16) 0.21712(4) 0.90453(6)
O5 O 0.6323(5) 0.25269(13) 0.8927(2)
O6 O 0.5562(5) 0.17807(12) 0.95995(19)
O7 O 0.3369(4) 0.24600(12) 0.93581(18)
O8 O 0.4046(5) 0.19466(13) 0.82959(18)
Cu1_2 Cu -0.02462(8) 0.238281(19) 0.91314(3)
O7_2 O 1.3369(4) 0.24600(12) 0.93581(18)
Cl2 Cl 0.73419(17) 0.06722(4) 0.26028(7)
O9 O 0.7835(5) 0.11672(12) 0.2954(2)
O10 O 0.8030(6) 0.02728(14) 0.3156(2)
O11 O 0.8116(6) 0.06196(14) 0.1884(2)
O12 O 0.5313(5) 0.06460(16) 0.2433(3)
C25 C 0.4098(10) 0.0675(3) 0.0398(4)
H33 H 0.4115 0.1005 0.0120
H34 H 0.3668 0.0404 0.0012
H35 H 0.5367 0.0594 0.0664
O13 O 0.2880(6) 0.0707(2) 0.0961(3)
H36 H 0.3507 0.0739 0.1416
loop_
_geom_bond_atom_site_label_1
_geom_bond_atom_site_label_2
_geom_bond_site_symmetry_1
_geom_bond_site_symmetry_2
Cu1 N1 1_555 1_555
N1 C1 1_555 1_555
N2 O1 1_555 1_555
N3 O2 1_555 1_555
N4 Cu1 1_555 1_555
N5 O3 1_555 1_555
N6 O4 1_555 1_555
O1 Cu1 1_555 1_555
O3 Cu1 1_555 1_555
C1 H1 1_555 1_555
C2 C1 1_555 1_555
H2 C2 1_555 1_555
C3 C2 1_555 1_555
H3 C3 1_555 1_555
C4 C3 1_555 1_555
H4 C4 1_555 1_555
C5 N1 1_555 1_555
C6 N2 1_555 1_555
C7 N3 1_555 1_555
C8 C7 1_555 1_555
H5 C8 1_555 1_555
H6 C8 1_555 1_555
H7 C8 1_555 1_555
C9 C7 1_555 1_555
H8 C9 1_555 1_555
H9 C9 1_555 1_555
H10 C9 1_555 1_555
C10 N2 1_555 1_555
C11 C10 1_555 1_555
H11 C11 1_555 1_555
H12 C11 1_555 1_555
H13 C11 1_555 1_555
C12 C10 1_555 1_555
H14 C12 1_555 1_555
H15 C12 1_555 1_555
H16 C12 1_555 1_555
C13 N4 1_555 1_555
H17 C13 1_555 1_555
C14 C13 1_555 1_555
H18 C14 1_555 1_555
C15 C14 1_555 1_555
H19 C15 1_555 1_555
C16 C15 1_555 1_555
H20 C16 1_555 1_555
C17 N4 1_555 1_555
C18 N5 1_555 1_555
C19 N6 1_555 1_555
C20 C19 1_555 1_555
H21 C20 1_555 1_555
H22 C20 1_555 1_555
H23 C20 1_555 1_555
C21 C19 1_555 1_555
H24 C21 1_555 1_555
H25 C21 1_555 1_555
H26 C21 1_555 1_555
C22 N5 1_555 1_555
C23 C22 1_555 1_555
H27 C23 1_555 1_555
H28 C23 1_555 1_555
H29 C23 1_555 1_555
C24 C22 1_555 1_555
H30 C24 1_555 1_555
H31 C24 1_555 1_555
H32 C24 1_555 1_555
Cl1 O5 1_555 1_555
O5 Cu1 1_555 1_555
O6 Cl1 1_555 1_555
O7 Cl1 1_555 1_555
O8 Cl1 1_555 1_555
Cl2 O9 1_555 1_555
O10 Cl2 1_555 1_555
O11 Cl2 1_555 1_555
O12 Cl2 1_555 1_555
C25 H33 1_555 1_555
H34 C25 1_555 1_555
H35 C25 1_555 1_555
O13 C25 1_555 1_555
H36 O13 1_555 1_555
Cu1_2 O7 1_555 1_555
O7_2 Cu1 1_555 1_555
N3 C6 1_555 1_555
N6 C18 1_555 1_555
C4 C5 1_555 1_555
C5 C6 1_555 1_555
C7 C10 1_555 1_555
C16 C17 1_555 1_555
C17 C18 1_555 1_555
C19 C22 1_555 1_555

#END
