
#######################################################################
#
#                 Cambridge Crystallographic Data Centre
#                                CCDC 
#
#######################################################################
#
# If this CIF has been generated from an entry in the Cambridge 
# Structural Database, then it will include bibliographic, chemical, 
# crystal, experimental, refinement or atomic coordinate data resulting 
# from the CCDC's data processing and validation procedures.
#
#######################################################################

data_QIJYEP
_symmetry_cell_setting           monoclinic
_symmetry_space_group_name_H-M   'P 21/c'
_symmetry_Int_Tables_number      14
_space_group_name_Hall           '-P 2ybc'
loop_
_symmetry_equiv_pos_site_id
_symmetry_equiv_pos_as_xyz
1 x,y,z
2 -x,1/2+y,1/2-z
3 -x,-y,-z
4 x,1/2-y,1/2+z
_cell_length_a                   6.3014(13)
_cell_length_b                   16.998(3)
_cell_length_c                   9.5412(19)
_cell_angle_alpha                90
_cell_angle_beta                 108.20(3)
_cell_angle_gamma                90
_cell_volume                     970.842
loop_
_atom_site_label
_atom_site_type_symbol
_atom_site_fract_x
_atom_site_fract_y
_atom_site_fract_z
Cd1 Cd 0.19240(4) 0.634734(14) 0.44586(2)
O1 O -0.1858(4) 0.61191(15) 0.3168(2)
O2 O -0.2329(4) 0.69244(14) 0.1241(3)
O3 O -0.3042(4) 0.35959(13) -0.2240(3)
O4 O -0.2566(5) 0.47848(15) -0.3016(3)
O5 O 0.0946(6) 0.76318(19) 0.4438(4)
H1 H -0.0181 0.7663 0.3666
H2 H 0.1742 0.8035 0.4429
O6 O 0.5773(5) 0.63482(18) 0.5544(3)
H3 H 0.6064 0.5945 0.6098
H4 H 0.6217 0.6744 0.6103
O7 O 0.1534(5) 0.5724(2) 0.6488(3)
H5 H 0.0468 0.5592 0.6807
H6 H 0.2608 0.5868 0.7233
C1 C -0.2635(5) 0.62971(18) 0.1817(4)
C2 C -0.3957(5) 0.56500(17) 0.0833(3)
C3 C -0.3141(5) 0.53308(19) -0.0237(3)
H7 H -0.1893 0.5555 -0.0401
C4 C -0.4156(5) 0.46805(18) -0.1069(3)
C5 C -0.3185(5) 0.43313(19) -0.2191(3)
O1B O -0.8142(4) 0.38809(15) -0.3168(2)
O2B O -0.7671(4) 0.30756(14) -0.1241(3)
O3B O -0.6958(4) 0.64041(13) 0.2240(3)
O4B O -0.7434(5) 0.52152(15) 0.3016(3)
C1B C -0.7365(5) 0.37029(18) -0.1817(4)
C2B C -0.6043(5) 0.43500(17) -0.0833(3)
C3B C -0.6859(5) 0.46692(19) 0.0237(3)
H7B H -0.8107 0.4445 0.0401
C4B C -0.5844(5) 0.53195(18) 0.1069(3)
C5B C -0.6815(5) 0.56687(19) 0.2191(3)
Cd1B Cd -1.19240(4) 0.365266(14) -0.44586(2)
O5B O -1.0946(6) 0.23682(19) -0.4438(4)
H1B H -0.9819 0.2337 -0.3666
H2B H -1.1742 0.1965 -0.4429
O6B O -1.5773(5) 0.36518(18) -0.5544(3)
H3B H -1.6064 0.4055 -0.6098
H4B H -1.6217 0.3256 -0.6103
O7B O -1.1534(5) 0.4276(2) -0.6488(3)
H5B H -1.0468 0.4408 -0.6807
H6B H -1.2608 0.4132 -0.7233
Cd1_2 Cd -0.80760(4) 0.634734(14) 0.44586(2)
Cd1B_2 Cd -0.19240(4) 0.365266(14) -0.44586(2)
O3_2 O -1.3042(4) 0.35959(13) -0.2240(3)
O3B_2 O 0.3042(4) 0.64041(13) 0.2240(3)
O4_2 O -1.2566(5) 0.47848(15) -0.3016(3)
O4B_2 O 0.2566(5) 0.52152(15) 0.3016(3)
O8 O 0.4960(5) 0.70340(17) 0.8261(3)
H8 H 0.5716 0.6958 0.9159
H9 H 0.5195 0.7502 0.8031
loop_
_geom_bond_atom_site_label_1
_geom_bond_atom_site_label_2
_geom_bond_site_symmetry_1
_geom_bond_site_symmetry_2
Cd1 O1 1_555 1_555
O1 C1 1_555 1_555
O2 C1 1_555 1_555
O3 C5 1_555 1_555
O4 C5 1_555 1_555
O5 Cd1 1_555 1_555
H1 O5 1_555 1_555
H2 O5 1_555 1_555
O6 Cd1 1_555 1_555
H3 O6 1_555 1_555
H4 O6 1_555 1_555
O7 Cd1 1_555 1_555
H5 O7 1_555 1_555
H6 O7 1_555 1_555
C1 C2 1_555 1_555
C2 C3 1_555 1_555
C3 H7 1_555 1_555
C4 C3 1_555 1_555
C5 C4 1_555 1_555
O8 H8 1_555 1_555
H9 O8 1_555 1_555
O1B C1B 1_555 1_555
O2B C1B 1_555 1_555
O3B C5B 1_555 1_555
O4B C5B 1_555 1_555
C1B C2B 1_555 1_555
C2B C4 1_555 1_555
C3B C2B 1_555 1_555
H7B C3B 1_555 1_555
C4B C2 1_555 1_555
C5B C4B 1_555 1_555
Cd1B O1B 1_555 1_555
O5B Cd1B 1_555 1_555
H1B O5B 1_555 1_555
H2B O5B 1_555 1_555
O6B Cd1B 1_555 1_555
H3B O6B 1_555 1_555
H4B O6B 1_555 1_555
O7B Cd1B 1_555 1_555
H5B O7B 1_555 1_555
H6B O7B 1_555 1_555
Cd1_2 O3B 1_555 1_555
Cd1B_2 O3 1_555 1_555
O3_2 Cd1B 1_555 1_555
O3B_2 Cd1 1_555 1_555
O4_2 Cd1B 1_555 1_555
O4B_2 Cd1 1_555 1_555
O4 Cd1B_2 1_555 1_555
O4B Cd1_2 1_555 1_555
C3B C4B 1_555 1_555

#END
