
#######################################################################
#
#                 Cambridge Crystallographic Data Centre
#                                CCDC 
#
#######################################################################
#
# If this CIF has been generated from an entry in the Cambridge 
# Structural Database, then it will include bibliographic, chemical, 
# crystal, experimental, refinement or atomic coordinate data resulting 
# from the CCDC's data processing and validation procedures.
#
#######################################################################

data_QIKFOH
_symmetry_cell_setting           monoclinic
_symmetry_space_group_name_H-M   'P 21/c'
_symmetry_Int_Tables_number      14
_space_group_name_Hall           '-P 2ybc'
loop_
_symmetry_equiv_pos_site_id
_symmetry_equiv_pos_as_xyz
1 x,y,z
2 -x,1/2+y,1/2-z
3 -x,-y,-z
4 x,1/2-y,1/2+z
_cell_length_a                   10.5623(5)
_cell_length_b                   18.0907(5)
_cell_length_c                   23.0081(10)
_cell_angle_alpha                90
_cell_angle_beta                 102.177(3)
_cell_angle_gamma                90
_cell_volume                     4297.46
loop_
_atom_site_label
_atom_site_type_symbol
_atom_site_fract_x
_atom_site_fract_y
_atom_site_fract_z
C1 C 0.3531(7) 0.2423(4) 0.4633(3)
H1 H 0.3614 0.2897 0.4825
H2 H 0.4090 0.2074 0.4877
H3 H 0.2650 0.2257 0.4576
C2 C 0.3819(5) 0.1841(3) 0.3731(2)
C3 C 0.3303(7) 0.1188(3) 0.3881(3)
H4 H 0.2985 0.1157 0.4228
C4 C 0.3258(7) 0.0576(3) 0.3516(3)
H5 H 0.2895 0.0136 0.3613
C5 C 0.3751(6) 0.0620(3) 0.3008(3)
H6 H 0.3715 0.0209 0.2763
C6 C 0.4308(5) 0.1278(3) 0.2858(2)
C7 C 0.4331(4) 0.1906(2) 0.32202(18)
C8 C 0.4909(5) 0.1239(3) 0.23445(19)
H7 H 0.4700 0.0831 0.2097
C9 C 0.6256(6) 0.1529(3) 0.1684(2)
H8 H 0.5863 0.1842 0.1353
H9 H 0.6062 0.1019 0.1568
C10 C 0.7695(7) 0.1639(3) 0.1815(2)
H10 H 0.8048 0.1373 0.1519
H11 H 0.8056 0.1421 0.2199
C11 C 0.8135(7) 0.2430(4) 0.1822(3)
H12 H 0.9068 0.2435 0.1867
H13 H 0.7764 0.2650 0.1440
C12 C 0.8539(5) 0.3462(3) 0.2453(2)
H14 H 0.9278 0.3486 0.2295
C13 C 0.8369(5) 0.4061(3) 0.2850(2)
C14 C 0.9291(6) 0.4631(4) 0.2906(3)
H15 H 0.9963 0.4600 0.2703
C15 C 0.9205(7) 0.5235(4) 0.3259(3)
H16 H 0.9821 0.5609 0.3293
C16 C 0.8214(6) 0.5292(3) 0.3563(3)
H17 H 0.8153 0.5706 0.3795
C17 C 0.7328(5) 0.4739(3) 0.3522(2)
C18 C 0.7363(4) 0.4109(2) 0.31588(18)
C19 C 0.6345(6) 0.5298(3) 0.4266(2)
H18 H 0.5604 0.5246 0.4443
H19 H 0.6333 0.5777 0.4086
H20 H 0.7121 0.5244 0.4567
C20 C 0.5326(5) 0.3709(3) 0.1565(2)
H21 H 0.6190 0.3853 0.1654
C21 C 0.4541(5) 0.4025(3) 0.1080(2)
H22 H 0.4877 0.4366 0.0850
C22 C 0.3231(5) 0.3833(2) 0.09320(17)
C23 C 0.2826(5) 0.3318(3) 0.12989(19)
H23 H 0.1960 0.3176 0.1226
C24 C 0.3694(5) 0.3013(3) 0.17726(19)
H24 H 0.3395 0.2656 0.2001
C25 C 0.2306(5) 0.4116(2) 0.04061(17)
C26 C 0.2258(4) 0.4813(2) 0.01237(17)
C27 C 0.3041(5) 0.5426(3) 0.0328(2)
H25 H 0.3690 0.5340 0.0663
C28 C 0.2995(6) 0.6138(3) 0.0109(2)
H26 H 0.3579 0.6470 0.0328
C29 C 0.2188(6) 0.6422(3) -0.0398(2)
H27 H 0.2288 0.6923 -0.0466
C30 C 0.1264(6) 0.6065(3) -0.0812(2)
H28 H 0.0874 0.6355 -0.1134
C31 C 0.0820(5) 0.5344(3) -0.0826(2)
H29 H 0.0198 0.5216 -0.1161
C32 C 0.1177(4) 0.4781(2) -0.04073(16)
C33 C 0.0623(4) 0.4069(2) -0.04167(17)
C34 C 0.1298(4) 0.3694(3) 0.00858(17)
H30 H 0.1096 0.3219 0.0192
C35 C -0.1471(5) 0.2611(3) -0.12908(19)
H31 H -0.1487 0.2097 -0.1295
C36 C -0.0485(5) 0.2954(3) -0.0898(2)
H32 H 0.0146 0.2669 -0.0655
C37 C -0.0417(4) 0.3714(3) -0.08573(17)
C38 C -0.1398(5) 0.4097(3) -0.12432(18)
H33 H -0.1415 0.4611 -0.1239
C39 C -0.2344(5) 0.3707(3) -0.16314(18)
H34 H -0.2980 0.3978 -0.1885
Gd1 Gd 0.46891(2) 0.366399(13) 0.362595(9)
N1 N 0.5690(4) 0.1704(2) 0.21993(14)
N2 N 0.7796(4) 0.2901(2) 0.22925(16)
N3 N 0.6198(5) 0.3395(3) 0.48277(18)
N4 N 0.2647(5) 0.4518(3) 0.4084(2)
N5 N 0.2918(6) 0.4270(3) 0.25845(18)
N6 N 0.4950(4) 0.3209(2) 0.19195(15)
N7 N -0.2408(4) 0.2970(2) -0.16676(15)
Ni1 Ni 0.62419(6) 0.26564(3) 0.26467(2)
O1 O 0.3893(4) 0.24836(19) 0.40614(15)
O2 O 0.4798(3) 0.25561(16) 0.31046(12)
O3 O 0.6451(3) 0.36019(16) 0.31406(13)
O4 O 0.6308(4) 0.47334(19) 0.38164(14)
O5 O 0.6547(4) 0.3112(2) 0.43803(15)
O6 O 0.5257(4) 0.3837(2) 0.47166(16)
O7 O 0.6752(5) 0.3238(3) 0.53300(17)
O8 O 0.2615(5) 0.3828(3) 0.4108(2)
O9 O 0.3521(4) 0.4776(2) 0.38474(17)
O10 O 0.1905(5) 0.4910(4) 0.4276(2)
O11 O 0.2611(4) 0.3717(2) 0.28619(18)
O12 O 0.4103(5) 0.4475(2) 0.27326(18)
O13 O 0.2127(6) 0.4573(3) 0.2198(2)
N7C N 0.7592(4) 0.2030(2) 0.33324(15)
Ni1C Ni -0.37581(6) 0.23436(3) -0.23533(2)
C40 C 0.9960(11) 0.6584(6) 0.4664(6)
C41 C 1.0500(10) 0.6055(5) 0.5108(4)
H35 H 1.0884 0.5659 0.4927
H36 H 0.9829 0.5861 0.5288
H37 H 1.1150 0.6288 0.5406
N8 N 0.9490(15) 0.6980(6) 0.4329(6)
loop_
_geom_bond_atom_site_label_1
_geom_bond_atom_site_label_2
_geom_bond_site_symmetry_1
_geom_bond_site_symmetry_2
C1 H1 1_555 1_555
H2 C1 1_555 1_555
H3 C1 1_555 1_555
C2 C3 1_555 1_555
C3 H4 1_555 1_555
C4 C3 1_555 1_555
H5 C4 1_555 1_555
C5 C4 1_555 1_555
H6 C5 1_555 1_555
C6 C5 1_555 1_555
C7 C2 1_555 1_555
C8 C6 1_555 1_555
H7 C8 1_555 1_555
C9 H8 1_555 1_555
H9 C9 1_555 1_555
C10 C9 1_555 1_555
H10 C10 1_555 1_555
H11 C10 1_555 1_555
C11 C10 1_555 1_555
H12 C11 1_555 1_555
H13 C11 1_555 1_555
C12 H14 1_555 1_555
C13 C12 1_555 1_555
C14 C13 1_555 1_555
H15 C14 1_555 1_555
C15 C14 1_555 1_555
H16 C15 1_555 1_555
C16 C15 1_555 1_555
H17 C16 1_555 1_555
C17 C16 1_555 1_555
C18 C13 1_555 1_555
C19 H18 1_555 1_555
H19 C19 1_555 1_555
H20 C19 1_555 1_555
C20 H21 1_555 1_555
C21 C20 1_555 1_555
H22 C21 1_555 1_555
C22 C21 1_555 1_555
C23 C22 1_555 1_555
H23 C23 1_555 1_555
C24 C23 1_555 1_555
H24 C24 1_555 1_555
C25 C22 1_555 1_555
C26 C25 1_555 1_555
C27 C26 1_555 1_555
H25 C27 1_555 1_555
C28 C27 1_555 1_555
H26 C28 1_555 1_555
C29 C28 1_555 1_555
H27 C29 1_555 1_555
C30 C29 1_555 1_555
H28 C30 1_555 1_555
C31 C30 1_555 1_555
H29 C31 1_555 1_555
C32 C26 1_555 1_555
C33 C32 1_555 1_555
C34 C25 1_555 1_555
H30 C34 1_555 1_555
C35 H31 1_555 1_555
C36 C35 1_555 1_555
H32 C36 1_555 1_555
C37 C33 1_555 1_555
C38 C37 1_555 1_555
H33 C38 1_555 1_555
C39 C38 1_555 1_555
H34 C39 1_555 1_555
Gd1 O1 1_555 1_555
N1 C8 1_555 1_555
N2 C11 1_555 1_555
N3 O5 1_555 1_555
N4 O8 1_555 1_555
N5 O11 1_555 1_555
N6 C20 1_555 1_555
N7 C35 1_555 1_555
Ni1 N1 1_555 1_555
O1 C1 1_555 1_555
O2 C7 1_555 1_555
O3 C18 1_555 1_555
O4 C17 1_555 1_555
O5 Gd1 1_555 1_555
O6 Gd1 1_555 1_555
O7 N3 1_555 1_555
O8 Gd1 1_555 1_555
O9 Gd1 1_555 1_555
O10 N4 1_555 1_555
O11 Gd1 1_555 1_555
O12 Gd1 1_555 1_555
O13 N5 1_555 1_555
C40 C41 1_555 1_555
C41 H35 1_555 1_555
H36 C41 1_555 1_555
H37 C41 1_555 1_555
N8 C40 1_555 1_555
N7C Ni1 1_555 1_555
Ni1C N7 1_555 1_555
C2 O1 1_555 1_555
C6 C7 1_555 1_555
C9 N1 1_555 1_555
C12 N2 1_555 1_555
C17 C18 1_555 1_555
C19 O4 1_555 1_555
C24 N6 1_555 1_555
C31 C32 1_555 1_555
C33 C34 1_555 1_555
C36 C37 1_555 1_555
C39 N7 1_555 1_555
Gd1 O2 1_555 1_555
Gd1 O3 1_555 1_555
Gd1 O4 1_555 1_555
N2 Ni1 1_555 1_555
N3 O6 1_555 1_555
N4 O9 1_555 1_555
N5 O12 1_555 1_555
N6 Ni1 1_555 1_555
Ni1 O2 1_555 1_555
Ni1 O3 1_555 1_555

#END
