
#######################################################################
#
#                 Cambridge Crystallographic Data Centre
#                                CCDC 
#
#######################################################################
#
# If this CIF has been generated from an entry in the Cambridge 
# Structural Database, then it will include bibliographic, chemical, 
# crystal, experimental, refinement or atomic coordinate data resulting 
# from the CCDC's data processing and validation procedures.
#
#######################################################################

data_QIKHOJ
_symmetry_cell_setting           monoclinic
_symmetry_space_group_name_H-M   'P 21/c'
_symmetry_Int_Tables_number      14
_space_group_name_Hall           '-P 2ybc'
loop_
_symmetry_equiv_pos_site_id
_symmetry_equiv_pos_as_xyz
1 x,y,z
2 -x,1/2+y,1/2-z
3 -x,-y,-z
4 x,1/2-y,1/2+z
_cell_length_a                   8.1994(16)
_cell_length_b                   16.883(3)
_cell_length_c                   12.655(4)
_cell_angle_alpha                90
_cell_angle_beta                 129.974(19)
_cell_angle_gamma                90
_cell_volume                     1342.5
loop_
_atom_site_label
_atom_site_type_symbol
_atom_site_fract_x
_atom_site_fract_y
_atom_site_fract_z
Co1 Co 0.5196(2) 0.74690(11) 0.37554(18)
C1 C 0.5690(18) 0.7364(7) 0.6425(13)
C2 C 0.696(2) 0.6654(8) 0.6814(13)
C3 C 0.866(2) 0.6362(8) 0.8105(15)
H1 H 0.9162 0.6562 0.8952
C4 C 0.689(2) 0.6125(8) 0.5897(15)
C5 C 0.0378(19) 0.7670(8) 0.1099(14)
C6 C 0.092(2) 0.8396(8) 0.0770(14)
C7 C -0.005(2) 0.8742(8) -0.0527(13)
H2 H -0.1275 0.8568 -0.1376
C8 C 0.277(2) 0.8853(8) 0.1655(14)
N1 N 0.4832(16) 0.7702(6) 0.5230(11)
N2 N 0.3851(16) 0.8374(6) 0.5224(11)
N3 N 0.4160(17) 0.8420(7) 0.6366(11)
N4 N 0.5343(16) 0.7778(6) 0.7143(11)
N5 N 0.942(2) 0.5742(8) 0.7898(12)
H3 H 1.0515 0.5478 0.8562
N6 N 0.8344(19) 0.5563(7) 0.6559(11)
N7 N 0.5529(19) 0.6207(7) 0.4461(11)
H4 H 0.4132 0.6007 0.4068
H5 H 0.6067 0.5885 0.4110
N8 N 0.1886(16) 0.7269(6) 0.2270(11)
N9 N 0.0890(16) 0.6623(6) 0.2253(11)
N10 N -0.1104(16) 0.6646(6) 0.1137(11)
N11 N -0.1452(16) 0.7298(6) 0.0400(12)
N12 N 0.1134(18) 0.9364(7) -0.0302(12)
H6 H 0.0820 0.9681 -0.0940
N13 N 0.2888(17) 0.9444(7) 0.1045(12)
N14 N 0.4387(17) 0.8737(6) 0.3121(11)
H7 H 0.3906 0.8973 0.3578
H8 H 0.5667 0.9014 0.3437
Co1C Co -0.4804(2) 0.75310(11) -0.12446(18)
Co1C_2 Co 0.5196(2) 0.75310(11) 0.87554(18)
N4C N 0.5343(16) 0.7222(6) 0.2143(11)
N11C N 0.8548(16) 0.7702(6) 0.5400(12)
O1 O 0.709(2) 0.5237(8) 0.1195(14)
O2 O 0.990(4) 0.7464(13) 0.376(3)
O3 O 0.224(3) 0.9921(12) 0.584(2)
loop_
_geom_bond_atom_site_label_1
_geom_bond_atom_site_label_2
_geom_bond_site_symmetry_1
_geom_bond_site_symmetry_2
Co1 N1 1_555 1_555
C1 C2 1_555 1_555
C2 C3 1_555 1_555
C3 H1 1_555 1_555
C4 C2 1_555 1_555
C5 C6 1_555 1_555
C6 C7 1_555 1_555
C7 H2 1_555 1_555
C8 C6 1_555 1_555
N1 C1 1_555 1_555
N2 N1 1_555 1_555
N3 N2 1_555 1_555
N4 C1 1_555 1_555
N5 C3 1_555 1_555
H3 N5 1_555 1_555
N6 C4 1_555 1_555
N7 Co1 1_555 1_555
H4 N7 1_555 1_555
H5 N7 1_555 1_555
N8 Co1 1_555 1_555
N9 N8 1_555 1_555
N10 N9 1_555 1_555
N11 C5 1_555 1_555
N12 C7 1_555 1_555
H6 N12 1_555 1_555
N13 C8 1_555 1_555
N14 Co1 1_555 1_555
H7 N14 1_555 1_555
H8 N14 1_555 1_555
Co1C N11 1_555 1_555
Co1C_2 N4 1_555 1_555
N4C Co1 1_555 1_555
N11C Co1 1_555 1_555
C4 N7 1_555 1_555
C5 N8 1_555 1_555
C8 N14 1_555 1_555
N3 N4 1_555 1_555
N5 N6 1_555 1_555
N10 N11 1_555 1_555
N12 N13 1_555 1_555

#END
