
#######################################################################
#
#                 Cambridge Crystallographic Data Centre
#                                CCDC 
#
#######################################################################
#
# If this CIF has been generated from an entry in the Cambridge 
# Structural Database, then it will include bibliographic, chemical, 
# crystal, experimental, refinement or atomic coordinate data resulting 
# from the CCDC's data processing and validation procedures.
#
#######################################################################

data_QIKHUP
_symmetry_cell_setting           monoclinic
_symmetry_space_group_name_H-M   'P 21/c'
_symmetry_Int_Tables_number      14
_space_group_name_Hall           '-P 2ybc'
loop_
_symmetry_equiv_pos_site_id
_symmetry_equiv_pos_as_xyz
1 x,y,z
2 -x,1/2+y,1/2-z
3 -x,-y,-z
4 x,1/2-y,1/2+z
_cell_length_a                   8.2502(7)
_cell_length_b                   16.8656(10)
_cell_length_c                   12.7981(10)
_cell_angle_alpha                90
_cell_angle_beta                 129.908(5)
_cell_angle_gamma                90
_cell_volume                     1366
loop_
_atom_site_label
_atom_site_type_symbol
_atom_site_fract_x
_atom_site_fract_y
_atom_site_fract_z
Zn1 Zn 0.7787(2) 0.75154(9) 0.12559(15)
C1 C 0.290(2) 0.7625(7) -0.1430(13)
C2 C 0.343(2) 0.8328(8) -0.1807(13)
C3 C 0.514(2) 0.8855(8) -0.0900(14)
C4 C 0.258(2) 0.8608(8) -0.3083(14)
H1 H 0.1402 0.8409 -0.3916
C5 C 0.8240(19) 0.7334(7) 0.3904(13)
C6 C 0.948(2) 0.6605(8) 0.4243(13)
C7 C 0.950(2) 0.6130(8) 0.3349(14)
C8 C 1.102(2) 0.6260(8) 0.5520(14)
H2 H 1.1450 0.6433 0.6354
N1 N 0.4402(16) 0.7271(6) -0.0232(10)
N2 N 0.3448(16) 0.6625(6) -0.0207(10)
N3 N 0.1489(17) 0.6586(7) -0.1350(11)
N4 N 0.1098(17) 0.7228(6) -0.2144(11)
N5 N 0.3758(18) 0.9211(7) -0.2897(11)
H3 H 0.3562 0.9462 -0.3555
N6 N 0.5328(19) 0.9397(6) -0.1551(12)
N7 N 0.6646(18) 0.8801(7) 0.0537(11)
H4 H 0.6066 0.8982 0.0894
H5 H 0.7762 0.9111 0.0846
N8 N 0.7406(17) 0.7734(6) 0.2731(11)
N9 N 0.6418(17) 0.8378(6) 0.2745(10)
N10 N 0.6706(17) 0.8362(6) 0.3863(11)
N11 N 0.7846(17) 0.7708(6) 0.4617(11)
N12 N 1.1747(18) 0.5632(7) 0.5299(11)
H6 H 1.2694 0.5316 0.5932
N13 N 1.0835(19) 0.5546(7) 0.3972(12)
N14 N 0.8205(16) 0.6259(6) 0.1894(10)
H7 H 0.6921 0.6047 0.1479
H8 H 0.8791 0.5995 0.1598
Zn1C Zn -0.2213(2) 0.74846(9) -0.37441(15)
Zn1C_2 Zn 0.7787(2) 0.74846(9) 0.62559(15)
N4C N 1.1098(17) 0.7772(6) 0.2856(11)
N11C N 0.7846(17) 0.7292(6) -0.0383(11)
O1 O 0.4568(19) 0.9748(8) 0.3723(12)
O2 O 0.046(2) 0.9905(8) 0.4064(14)
O3 O 0.252(9) 0.752(3) 0.120(5)
O4? O 0.125(8) 0.748(3) 0.128(5)
loop_
_geom_bond_atom_site_label_1
_geom_bond_atom_site_label_2
_geom_bond_site_symmetry_1
_geom_bond_site_symmetry_2
Zn1 N1 1_555 1_555
C1 C2 1_555 1_555
C2 C3 1_555 1_555
C3 N6 1_555 1_555
C4 C2 1_555 1_555
H1 C4 1_555 1_555
C5 C6 1_555 1_555
C6 C7 1_555 1_555
C7 N13 1_555 1_555
C8 C6 1_555 1_555
H2 C8 1_555 1_555
N1 C1 1_555 1_555
N2 N1 1_555 1_555
N3 N2 1_555 1_555
N4 C1 1_555 1_555
N5 C4 1_555 1_555
H3 N5 1_555 1_555
N6 N5 1_555 1_555
N7 Zn1 1_555 1_555
H4 N7 1_555 1_555
H5 N7 1_555 1_555
N8 Zn1 1_555 1_555
N9 N8 1_555 1_555
N10 N9 1_555 1_555
N11 C5 1_555 1_555
N12 C8 1_555 1_555
H6 N12 1_555 1_555
N13 N12 1_555 1_555
N14 Zn1 1_555 1_555
H7 N14 1_555 1_555
H8 N14 1_555 1_555
Zn1C N4 1_555 1_555
Zn1C_2 N11 1_555 1_555
N4C Zn1 1_555 1_555
N11C Zn1 1_555 1_555
C3 N7 1_555 1_555
C5 N8 1_555 1_555
C7 N14 1_555 1_555
N3 N4 1_555 1_555
N10 N11 1_555 1_555

#END
