
#######################################################################
#
#                 Cambridge Crystallographic Data Centre
#                                CCDC 
#
#######################################################################
#
# If this CIF has been generated from an entry in the Cambridge 
# Structural Database, then it will include bibliographic, chemical, 
# crystal, experimental, refinement or atomic coordinate data resulting 
# from the CCDC's data processing and validation procedures.
#
#######################################################################

data_QIKJAX
_symmetry_cell_setting           monoclinic
_symmetry_space_group_name_H-M   'P 21/c'
_symmetry_Int_Tables_number      14
_space_group_name_Hall           '-P 2ybc'
loop_
_symmetry_equiv_pos_site_id
_symmetry_equiv_pos_as_xyz
1 x,y,z
2 -x,1/2+y,1/2-z
3 -x,-y,-z
4 x,1/2-y,1/2+z
_cell_length_a                   8.3955(17)
_cell_length_b                   16.678(3)
_cell_length_c                   13.398(4)
_cell_angle_alpha                90
_cell_angle_beta                 128.62(2)
_cell_angle_gamma                90
_cell_volume                     1465.72
loop_
_atom_site_label
_atom_site_type_symbol
_atom_site_fract_x
_atom_site_fract_y
_atom_site_fract_z
Cd1 Cd 0.53687(9) 0.75298(4) 0.36970(5)
C1 C 0.5777(11) 0.7579(5) 0.6325(7)
C2 C 0.8814(14) 0.8478(6) 0.7915(9)
H1 H 0.9335 0.8215 0.8674
C3 C 0.7064(12) 0.8276(5) 0.6702(8)
C4 C 0.6968(12) 0.8857(5) 0.5906(8)
C5 C 0.0560(11) 0.7341(5) 0.1103(8)
C6 C 0.0118(14) 0.6294(6) -0.0449(9)
H2 H -0.1078 0.6481 -0.1208
C7 C 0.1073(12) 0.6625(5) 0.0746(7)
C8 C 0.2783(12) 0.6113(5) 0.1554(8)
N1 N 0.4771(10) 0.7252(4) 0.5176(7)
N2 N 0.3794(11) 0.6605(4) 0.5164(7)
N3 N 0.4208(11) 0.6548(4) 0.6280(7)
N4 N 0.5437(11) 0.7159(4) 0.7031(6)
N5 N 0.9603(11) 0.9122(5) 0.7779(7)
H3 H 1.0704 0.9354 0.8405
N6 N 0.8481(11) 0.9375(4) 0.6543(7)
N7 N 0.5552(12) 0.8880(5) 0.4549(7)
H4 H 0.5952 0.9244 0.4251
H5 H 0.4314 0.9024 0.4293
N8 N 0.1873(10) 0.7733(4) 0.2194(6)
N9 N 0.0884(11) 0.8375(5) 0.2175(7)
N10 N -0.0957(11) 0.8375(4) 0.1094(7)
N11 N -0.1231(10) 0.7721(4) 0.0383(7)
N12 N 0.1186(12) 0.5667(5) -0.0338(7)
H6 H 0.0876 0.5383 -0.0973
N13 N 0.2833(12) 0.5523(5) 0.0900(7)
N14 N 0.4303(11) 0.6180(4) 0.2907(7)
H7 H 0.5404 0.5896 0.3147
H8 H 0.3820 0.5955 0.3281
Cd1C Cd -0.46313(9) 0.74702(4) -0.13030(5)
Cd1C_2 Cd 0.53687(9) 0.74702(4) 0.86970(5)
N4C N 0.5437(11) 0.7841(4) 0.2031(6)
N11C N 0.8769(10) 0.7279(4) 0.5383(7)
O1 O 0.2280(15) 0.9915(6) 0.1095(9)
O2 O 0.7128(15) 0.9787(6) 0.1073(10)
O3? O 0.868(5) 0.750(2) 0.866(3)
O4? O 0.698(5) 0.750(2) 0.861(3)
loop_
_geom_bond_atom_site_label_1
_geom_bond_atom_site_label_2
_geom_bond_site_symmetry_1
_geom_bond_site_symmetry_2
Cd1 N1 1_555 1_555
C1 C3 1_555 1_555
C2 H1 1_555 1_555
C3 C2 1_555 1_555
C4 C3 1_555 1_555
C5 C7 1_555 1_555
C6 H2 1_555 1_555
C7 C6 1_555 1_555
C8 C7 1_555 1_555
N1 C1 1_555 1_555
N2 N1 1_555 1_555
N3 N2 1_555 1_555
N4 C1 1_555 1_555
N5 C2 1_555 1_555
H3 N5 1_555 1_555
N6 C4 1_555 1_555
N7 Cd1 1_555 1_555
H4 N7 1_555 1_555
H5 N7 1_555 1_555
N8 Cd1 1_555 1_555
N9 N8 1_555 1_555
N10 N9 1_555 1_555
N11 C5 1_555 1_555
N12 C6 1_555 1_555
H6 N12 1_555 1_555
N13 C8 1_555 1_555
N14 Cd1 1_555 1_555
H7 N14 1_555 1_555
H8 N14 1_555 1_555
Cd1C N11 1_555 1_555
Cd1C_2 N4 1_555 1_555
N4C Cd1 1_555 1_555
N11C Cd1 1_555 1_555
C4 N7 1_555 1_555
C5 N8 1_555 1_555
C8 N14 1_555 1_555
N3 N4 1_555 1_555
N5 N6 1_555 1_555
N10 N11 1_555 1_555
N12 N13 1_555 1_555

#END
