
#######################################################################
#
#                 Cambridge Crystallographic Data Centre
#                                CCDC 
#
#######################################################################
#
# If this CIF has been generated from an entry in the Cambridge 
# Structural Database, then it will include bibliographic, chemical, 
# crystal, experimental, refinement or atomic coordinate data resulting 
# from the CCDC's data processing and validation procedures.
#
#######################################################################

data_QIKMAA
_symmetry_cell_setting           monoclinic
_symmetry_space_group_name_H-M   'P 21/n'
_symmetry_Int_Tables_number      14
_space_group_name_Hall           '-P 2yn'
loop_
_symmetry_equiv_pos_site_id
_symmetry_equiv_pos_as_xyz
1 x,y,z
2 1/2-x,1/2+y,1/2-z
3 -x,-y,-z
4 1/2+x,1/2-y,1/2+z
_cell_length_a                   12.3734(2)
_cell_length_b                   11.2005(2)
_cell_length_c                   15.8979(3)
_cell_angle_alpha                90
_cell_angle_beta                 109.179(2)
_cell_angle_gamma                90
_cell_volume                     2080.97
loop_
_atom_site_label
_atom_site_type_symbol
_atom_site_fract_x
_atom_site_fract_y
_atom_site_fract_z
Mn1 Mn 0.20256(3) 0.41564(4) 0.10699(3)
O1 O -0.21696(17) 0.07869(19) -0.25212(13)
O2 O 0.04549(17) 0.5099(2) 0.11874(15)
O3 O 0.07313(17) 0.31305(18) -0.01239(13)
N1 N 0.6382(2) 0.6659(2) -0.09887(17)
O4 O 0.11414(18) 0.2496(2) 0.12559(14)
N2 N 0.17502(19) 0.5938(2) -0.04985(16)
H1 H 0.1134 0.5569 -0.0798
N3 N 0.22808(19) 0.5798(2) 0.03910(16)
C1 C 0.2299(2) 0.6718(3) -0.08541(19)
C2 C -0.0659(2) 0.0881(2) 0.08023(18)
H2 H -0.0232 0.0962 0.1402
C3 C 0.3246(2) 0.7117(2) -0.01680(19)
C4 C 0.0554(2) 0.2441(2) 0.04490(18)
C5 C 0.4912(2) 0.7582(3) -0.0713(2)
C6 C -0.0396(2) 0.1543(2) 0.01628(18)
C7 C 0.5858(2) 0.6817(2) -0.03839(19)
C8 C 0.3190(2) 0.6522(3) 0.05969(19)
C9 C -0.2214(2) -0.0073(3) -0.03475(18)
H3 H -0.2828 -0.0600 -0.0507
N4 N -0.1874(2) -0.0566(3) 0.12232(18)
C10 C -0.2577(2) 0.0353(3) -0.19612(18)
C11 C 0.4124(2) 0.8010(2) -0.0232(2)
H4 H 0.3728 0.8716 -0.0534
H5 H 0.4582 0.8245 0.0366
C12 C -0.1922(2) 0.0564(3) -0.09912(17)
N5 N 0.5766(2) 0.7314(3) -0.17014(18)
H6 H 0.5920 0.7358 -0.2190
C13 C -0.1026(2) 0.1377(2) -0.07332(17)
H7 H -0.0844 0.1817 -0.1164
C14 C 0.4890(2) 0.7885(3) -0.1560(2)
C15 C -0.1567(2) 0.0097(2) 0.05355(18)
O5 O -0.3475(2) -0.0234(3) -0.21378(16)
C16 C 0.6288(3) 0.6231(3) 0.0505(2)
H8 H 0.6947 0.5754 0.0541
H9 H 0.5700 0.5731 0.0586
H10 H 0.6496 0.6830 0.0962
C17 C 0.1864(3) 0.6994(3) -0.1825(2)
H11 H 0.1168 0.6561 -0.2102
H12 H 0.2425 0.6765 -0.2091
H13 H 0.1717 0.7835 -0.1908
O6 O -0.1244(3) -0.0514(4) 0.19800(19)
O7 O -0.2774(3) -0.1091(3) 0.10162(19)
C18 C 0.3960(3) 0.6620(3) 0.1540(2)
H14 H 0.3690 0.6101 0.1909
H15 H 0.3962 0.7429 0.1741
H16 H 0.4723 0.6394 0.1579
C19 C 0.4116(3) 0.8679(5) -0.2256(3)
H17 H 0.4346 0.8670 -0.2777
H18 H 0.4162 0.9479 -0.2030
H19 H 0.3343 0.8397 -0.2407
H20 H 0.028(3) 0.571(3) 0.099(2)
H21 H 0.076(4) 0.524(5) 0.175(4)
Mn1B Mn 0.79744(3) 0.58436(4) -0.10699(3)
Mn1C Mn -0.29744(3) 0.08436(4) -0.39301(3)
O1C O 0.28304(17) 0.42131(19) 0.24788(13)
N1B N 0.3618(2) 0.3341(2) 0.09887(17)
loop_
_geom_bond_atom_site_label_1
_geom_bond_atom_site_label_2
_geom_bond_site_symmetry_1
_geom_bond_site_symmetry_2
Mn1 O2 1_555 1_555
O1 C10 1_555 1_555
O2 H20 1_555 1_555
O3 Mn1 1_555 1_555
N1 C7 1_555 1_555
O4 Mn1 1_555 1_555
N2 H1 1_555 1_555
N3 Mn1 1_555 1_555
C1 N2 1_555 1_555
C2 H2 1_555 1_555
C3 C1 1_555 1_555
C4 O3 1_555 1_555
C5 C7 1_555 1_555
C6 C2 1_555 1_555
C7 C16 1_555 1_555
C8 N3 1_555 1_555
C9 H3 1_555 1_555
N4 C15 1_555 1_555
C10 C12 1_555 1_555
C11 C3 1_555 1_555
H4 C11 1_555 1_555
H5 C11 1_555 1_555
C12 C9 1_555 1_555
N5 N1 1_555 1_555
H6 N5 1_555 1_555
C13 C6 1_555 1_555
H7 C13 1_555 1_555
C14 C5 1_555 1_555
C15 C2 1_555 1_555
O5 C10 1_555 1_555
C16 H8 1_555 1_555
H9 C16 1_555 1_555
H10 C16 1_555 1_555
C17 C1 1_555 1_555
H11 C17 1_555 1_555
H12 C17 1_555 1_555
H13 C17 1_555 1_555
O6 N4 1_555 1_555
O7 N4 1_555 1_555
C18 C8 1_555 1_555
H14 C18 1_555 1_555
H15 C18 1_555 1_555
H16 C18 1_555 1_555
C19 C14 1_555 1_555
H17 C19 1_555 1_555
H18 C19 1_555 1_555
H19 C19 1_555 1_555
H21 O2 1_555 1_555
Mn1B N1 1_555 1_555
Mn1C O1 1_555 1_555
O1C Mn1 1_555 1_555
N1B Mn1 1_555 1_555
O4 C4 1_555 1_555
N2 N3 1_555 1_555
C3 C8 1_555 1_555
C4 C6 1_555 1_555
C5 C11 1_555 1_555
C9 C15 1_555 1_555
C12 C13 1_555 1_555
N5 C14 1_555 1_555

#END
