
#######################################################################
#
#                 Cambridge Crystallographic Data Centre
#                                CCDC 
#
#######################################################################
#
# If this CIF has been generated from an entry in the Cambridge 
# Structural Database, then it will include bibliographic, chemical, 
# crystal, experimental, refinement or atomic coordinate data resulting 
# from the CCDC's data processing and validation procedures.
#
#######################################################################

data_QIKRUZ
_symmetry_cell_setting           triclinic
_symmetry_space_group_name_H-M   'P -1'
_symmetry_Int_Tables_number      2
_space_group_name_Hall           '-P 1'
loop_
_symmetry_equiv_pos_site_id
_symmetry_equiv_pos_as_xyz
1 x,y,z
2 -x,-y,-z
_cell_length_a                   5.5742(1)
_cell_length_b                   6.13885(12)
_cell_length_c                   11.4552(3)
_cell_angle_alpha                78.4226(8)
_cell_angle_beta                 80.0358(8)
_cell_angle_gamma                78.2382(15)
_cell_volume                     372.365
loop_
_atom_site_label
_atom_site_type_symbol
_atom_site_fract_x
_atom_site_fract_y
_atom_site_fract_z
Fe1 Fe 0.00000 1.00000 0.00000
S1 S 0.3457(7) 0.7966(4) -0.1415(3)
N1 N -0.0233(10) 0.1202(10) 0.3703(6)
N2 N 0.1116(14) 0.7366(17) 0.1527(8)
N3 N 0.7554(18) 0.818(2) -0.0395(5)
C1 C 0.4721(9) 0.6711(8) 0.4004(5)
C2 C 0.3442(13) 0.4777(6) 0.4175(8)
C3 C 0.3855(7) 0.3111(10) 0.5229(7)
C4 C 0.1919(14) 0.4526(4) 0.3383(6)
C5 C 0.0742(10) 0.2708(7) 0.3558(3)
C6 C 0.1480(10) 0.6079(14) 0.2368(5)
C7 C 0.6027(19) 0.803(3) -0.0806(8)
H1 H 0.4531(15) 0.7877(6) 0.3325(7)
H2 H 0.3086(14) 0.1816(10) 0.5395(10)
N1A N 1.0233(10) 0.8798(10) 0.6297(6)
N2A N 0.8884(14) 0.2634(17) 0.8473(8)
C1A C 0.5279(9) 0.3289(8) 0.5996(5)
C2A C 0.6558(13) 0.5223(6) 0.5825(8)
C3A C 0.6145(7) 0.6889(10) 0.4771(7)
C4A C 0.8081(14) 0.5474(4) 0.6617(6)
C5A C 0.9258(10) 0.7292(7) 0.6442(3)
C6A C 0.8520(10) 0.3921(14) 0.7632(5)
H1A H 0.5469(15) 0.2123(6) 0.6675(7)
H2A H 0.6914(14) 0.8184(10) 0.4605(10)
S1A S -0.3457(7) 1.2034(4) 0.1415(3)
N3A N -0.7554(18) 1.182(2) 0.0395(5)
C7A C -0.6027(19) 1.197(3) 0.0806(8)
Fe1_2 Fe -1.00000 1.00000 0.00000
Fe1_3 Fe 1.00000 0.00000 1.00000
Fe1_4 Fe 1.00000 1.00000 0.00000
N2A_2 N -0.1116(14) 1.2634(17) -0.1527(8)
N3_2 N -0.2446(18) 0.818(2) -0.0395(5)
N3A_2 N 0.2446(18) 1.182(2) 0.0395(5)
loop_
_geom_bond_atom_site_label_1
_geom_bond_atom_site_label_2
_geom_bond_site_symmetry_1
_geom_bond_site_symmetry_2
Fe1 S1 1_555 1_555
S1 C7 1_555 1_555
N1 C5 1_555 1_555
N2 Fe1 1_555 1_555
N3 C7 1_555 1_555
C1 C2 1_555 1_555
C2 C3 1_555 1_555
C3 H2 1_555 1_555
C4 C2 1_555 1_555
C5 C4 1_555 1_555
C6 N2 1_555 1_555
H1 C1 1_555 1_555
N1A C5A 1_555 1_555
N2A C6A 1_555 1_555
C1A C3 1_555 1_555
C2A C1A 1_555 1_555
C3A C1 1_555 1_555
C4A C2A 1_555 1_555
C5A C4A 1_555 1_555
C6A C4A 1_555 1_555
H1A C1A 1_555 1_555
H2A C3A 1_555 1_555
S1A Fe1 1_555 1_555
N3A C7A 1_555 1_555
C7A S1A 1_555 1_555
Fe1_2 N3A 1_555 1_555
Fe1_3 N2A 1_555 1_555
Fe1_4 N3 1_555 1_555
N2A_2 Fe1 1_555 1_555
N3_2 Fe1 1_555 1_555
N3A_2 Fe1 1_555 1_555
C4 C6 1_555 1_555
C2A C3A 1_555 1_555

#END
