
#######################################################################
#
#                 Cambridge Crystallographic Data Centre
#                                CCDC 
#
#######################################################################
#
# If this CIF has been generated from an entry in the Cambridge 
# Structural Database, then it will include bibliographic, chemical, 
# crystal, experimental, refinement or atomic coordinate data resulting 
# from the CCDC's data processing and validation procedures.
#
#######################################################################

data_QIKWOW
_symmetry_cell_setting           orthorhombic
_symmetry_space_group_name_H-M   'P b c n'
_symmetry_Int_Tables_number      60
_space_group_name_Hall           '-P 2n 2ab'
loop_
_symmetry_equiv_pos_site_id
_symmetry_equiv_pos_as_xyz
1 x,y,z
2 -x,y,1/2-z
3 1/2-x,1/2-y,1/2+z
4 1/2+x,1/2-y,-z
5 -x,-y,-z
6 x,-y,1/2+z
7 1/2+x,1/2+y,1/2-z
8 1/2-x,1/2+y,z
_cell_length_a                   14.8310(10)
_cell_length_b                   6.9010(10)
_cell_length_c                   11.3790(10)
_cell_angle_alpha                90
_cell_angle_beta                 90
_cell_angle_gamma                90
_cell_volume                     1164.63
loop_
_atom_site_label
_atom_site_type_symbol
_atom_site_fract_x
_atom_site_fract_y
_atom_site_fract_z
Zn1 Zn 0.0000 0.20173(5) 0.2500
S1 S 0.08200(3) 0.01602(8) 0.11662(4)
O1 O 0.08967(9) 0.3683(2) 0.32397(13)
O2 O 0.19106(8) 0.4106(3) 0.46252(13)
N1 N 0.24934(11) -0.0562(3) 0.1806(2)
H1 H 0.2889(16) -0.0984(46) 0.2252(21)
H2 H 0.2668(19) -0.0081(42) 0.1149(22)
C1 C 0.11197(13) 0.4099(3) 0.4295(2)
C2 C 0.16513(14) -0.0611(3) 0.2147(2)
N2 N 0.14532(13) -0.1255(3) 0.3210(2)
H3 H 0.1895(16) -0.1448(44) 0.3665(23)
H4 H 0.0895(14) -0.1245(44) 0.3435(26)
C3 C 0.04104(13) 0.4689(3) 0.5150(2)
H5 H 0.05483(13) 0.4618(3) 0.5946(2)
C3D C -0.04104(13) 0.5311(3) 0.4850(2)
C1D C -0.11197(13) 0.5901(3) 0.5705(2)
O1D O -0.08967(9) 0.6317(2) 0.67603(13)
O2D O -0.19106(8) 0.5894(3) 0.53748(13)
H5D H -0.05483(13) 0.5382(3) 0.4054(2)
S1A S -0.08200(3) 0.01602(8) 0.38338(4)
N1A N -0.24934(11) -0.0562(3) 0.3194(2)
H1A H -0.2889(16) -0.0984(46) 0.2748(21)
H2A H -0.2668(19) -0.0081(42) 0.3851(22)
C2A C -0.16513(14) -0.0611(3) 0.2853(2)
N2A N -0.14532(13) -0.1255(3) 0.1790(2)
H3A H -0.1895(16) -0.1448(44) 0.1335(23)
H4A H -0.0895(14) -0.1245(44) 0.1565(26)
O1A O -0.08967(9) 0.3683(2) 0.17603(13)
Zn1E Zn 0.0000 0.79827(5) 0.7500
loop_
_geom_bond_atom_site_label_1
_geom_bond_atom_site_label_2
_geom_bond_site_symmetry_1
_geom_bond_site_symmetry_2
Zn1 S1 1_555 1_555
S1 C2 1_555 1_555
O1 Zn1 1_555 1_555
O2 C1 1_555 1_555
N1 H1 1_555 1_555
H2 N1 1_555 1_555
C1 O1 1_555 1_555
C2 N1 1_555 1_555
N2 C2 1_555 1_555
H3 N2 1_555 1_555
H4 N2 1_555 1_555
C3 C1 1_555 1_555
H5 C3 1_555 1_555
C3D C3 1_555 1_555
C1D C3D 1_555 1_555
O1D C1D 1_555 1_555
O2D C1D 1_555 1_555
H5D C3D 1_555 1_555
S1A Zn1 1_555 1_555
N1A H1A 1_555 1_555
H2A N1A 1_555 1_555
C2A S1A 1_555 1_555
N2A C2A 1_555 1_555
H3A N2A 1_555 1_555
H4A N2A 1_555 1_555
O1A Zn1 1_555 1_555
Zn1E O1D 1_555 1_555
N1A C2A 1_555 1_555

#END
