
#######################################################################
#
#                 Cambridge Crystallographic Data Centre
#                                CCDC 
#
#######################################################################
#
# If this CIF has been generated from an entry in the Cambridge 
# Structural Database, then it will include bibliographic, chemical, 
# crystal, experimental, refinement or atomic coordinate data resulting 
# from the CCDC's data processing and validation procedures.
#
#######################################################################

data_QIKXIR
_symmetry_cell_setting           orthorhombic
_symmetry_space_group_name_H-M   'P 21 21 21'
_symmetry_Int_Tables_number      19
_space_group_name_Hall           'P 2ac 2ab'
loop_
_symmetry_equiv_pos_site_id
_symmetry_equiv_pos_as_xyz
1 x,y,z
2 1/2-x,-y,1/2+z
3 -x,1/2+y,1/2-z
4 1/2+x,1/2-y,-z
_cell_length_a                   8.307(2)
_cell_length_b                   10.919(2)
_cell_length_c                   15.890(2)
_cell_angle_alpha                90
_cell_angle_beta                 90
_cell_angle_gamma                90
_cell_volume                     1441.29
loop_
_atom_site_label
_atom_site_type_symbol
_atom_site_fract_x
_atom_site_fract_y
_atom_site_fract_z
Zn1 Zn -0.19302(4) -0.09882(3) -0.33602(2)
S1 S -0.08559(15) -0.21799(9) -0.44425(5)
S2 S -0.03408(10) 0.01629(7) -0.24764(6)
O1 O -0.2756(3) -0.2364(2) -0.26562(14)
O2 O -0.4139(3) -0.10998(19) -0.18282(14)
O3 O -0.5929(3) -0.3593(2) -0.20664(14)
O4 O -0.6306(3) -0.5092(2) -0.11308(14)
N1 N -0.2194(5) -0.0543(3) -0.54620(19)
H1 H -0.292(4) -0.025(3) -0.5099(19)
H2 H -0.196(6) -0.014(3) -0.5933(17)
N2 N -0.0485(5) -0.1886(4) -0.60627(19)
H3 H -0.014(6) -0.2644(17) -0.596(2)
H4 H -0.082(6) -0.164(4) -0.6567(12)
N3 N 0.1423(4) -0.1876(3) -0.2358(2)
H5 H 0.050(2) -0.229(3) -0.240(3)
H6 H 0.234(2) -0.228(3) -0.226(3)
N4 N 0.2753(3) -0.0063(3) -0.2213(2)
H7 H 0.276(4) 0.0745(5) -0.229(2)
H8 H 0.3691(18) -0.044(2) -0.213(2)
C1 C -0.1233(4) -0.1476(3) -0.5389(2)
C2 C 0.1410(4) -0.0669(3) -0.23482(19)
C3 C -0.3407(4) -0.2057(3) -0.19487(19)
C4 C -0.3027(4) -0.2906(3) -0.12320(17)
C5 C -0.1609(4) -0.2661(3) -0.0800(2)
H9 H -0.0983 -0.1990 -0.0953
C6 C -0.1123(4) -0.3405(4) -0.0146(2)
H10 H -0.0168 -0.3241 0.0139
C7 C -0.2061(5) -0.4392(4) 0.0084(2)
H11 H -0.1734 -0.4897 0.0523
C8 C -0.3474(5) -0.4632(3) -0.0332(2)
H12 H -0.4102 -0.5296 -0.0168
C9 C -0.3977(4) -0.3898(3) -0.09929(19)
C10 C -0.5512(4) -0.4184(3) -0.14426(18)
O4B O -0.3694(3) -0.0092(2) -0.38692(14)
Zn1B Zn -0.80698(4) -0.59882(3) -0.16398(2)
loop_
_geom_bond_atom_site_label_1
_geom_bond_atom_site_label_2
_geom_bond_site_symmetry_1
_geom_bond_site_symmetry_2
Zn1 S1 1_555 1_555
S1 C1 1_555 1_555
S2 Zn1 1_555 1_555
O1 Zn1 1_555 1_555
O2 C3 1_555 1_555
O3 C10 1_555 1_555
O4 C10 1_555 1_555
N1 H1 1_555 1_555
H2 N1 1_555 1_555
N2 H3 1_555 1_555
H4 N2 1_555 1_555
N3 H5 1_555 1_555
H6 N3 1_555 1_555
N4 H7 1_555 1_555
H8 N4 1_555 1_555
C1 N1 1_555 1_555
C2 S2 1_555 1_555
C3 O1 1_555 1_555
C4 C3 1_555 1_555
C5 C4 1_555 1_555
H9 C5 1_555 1_555
C6 C5 1_555 1_555
H10 C6 1_555 1_555
C7 C6 1_555 1_555
H11 C7 1_555 1_555
C8 C7 1_555 1_555
H12 C8 1_555 1_555
C9 C4 1_555 1_555
C10 C9 1_555 1_555
O4B Zn1 1_555 1_555
Zn1B O4 1_555 1_555
N2 C1 1_555 1_555
N3 C2 1_555 1_555
N4 C2 1_555 1_555
C8 C9 1_555 1_555

#END
