
#######################################################################
#
#                 Cambridge Crystallographic Data Centre
#                                CCDC 
#
#######################################################################
#
# If this CIF has been generated from an entry in the Cambridge 
# Structural Database, then it will include bibliographic, chemical, 
# crystal, experimental, refinement or atomic coordinate data resulting 
# from the CCDC's data processing and validation procedures.
#
#######################################################################

data_QIKXOX
_symmetry_cell_setting           monoclinic
_symmetry_space_group_name_H-M   'C 2/c'
_symmetry_Int_Tables_number      15
_space_group_name_Hall           '-C 2yn'
loop_
_symmetry_equiv_pos_site_id
_symmetry_equiv_pos_as_xyz
1 x,y,z
2 1/2+x,1/2+y,z
3 -x,y,1/2-z
4 1/2-x,1/2+y,1/2-z
5 -x,-y,-z
6 1/2-x,1/2-y,-z
7 x,-y,1/2+z
8 1/2+x,1/2-y,1/2+z
_cell_length_a                   12.758(3)
_cell_length_b                   8.8030(10)
_cell_length_c                   23.355(4)
_cell_angle_alpha                90
_cell_angle_beta                 98.07(15)
_cell_angle_gamma                90
_cell_volume                     2596.99
loop_
_atom_site_label
_atom_site_type_symbol
_atom_site_fract_x
_atom_site_fract_y
_atom_site_fract_z
Zn1 Zn 0.703557(19) 0.01752(3) 0.350611(11)
S1 S 0.66960(5) 0.17582(7) 0.27017(3)
S2 S 0.63728(5) 0.09084(7) 0.43269(3)
O1 O 0.85190(12) -0.04568(18) 0.35648(8)
O2 O 0.92438(13) 0.18264(18) 0.37475(7)
O3 O 1.13411(13) 0.32232(18) 0.32937(7)
O4 O 1.19248(14) 0.1969(2) 0.40995(7)
N1 N 0.60098(17) -0.0777(2) 0.21384(10)
H1 H 0.608(2) -0.121(3) 0.2482(7)
H2 H 0.581(2) -0.127(3) 0.1826(8)
N2 N 0.60651(17) 0.1368(3) 0.16026(9)
H3 H 0.620(2) 0.234(2) 0.1588(12)
H4 H 0.570(2) 0.088(3) 0.1316(10)
N3 N 0.5999(2) 0.3688(3) 0.46428(11)
H5 H 0.5398(17) 0.329(3) 0.4708(12)
H6 H 0.620(2) 0.460(2) 0.4743(14)
N4 N 0.75017(18) 0.3425(3) 0.42275(10)
H7 H 0.797(2) 0.280(3) 0.4118(13)
H8 H 0.764(3) 0.441(2) 0.4251(15)
C1 C 0.62179(16) 0.0672(3) 0.21093(10)
C2 C 0.66516(19) 0.2823(3) 0.43984(10)
C3 C 1.14669(16) 0.2031(3) 0.36000(10)
C4 C 1.10954(18) 0.0610(3) 0.32948(10)
H9 H 1.1574 0.0132 0.3089
C5 C 0.92670(17) 0.0523(3) 0.35572(10)
C6 C 1.01647(18) -0.0056(2) 0.32818(10)
H10 H 1.0064 -0.0969 0.3082
O3A O 0.63411(13) -0.17768(18) 0.32937(7)
Zn1A Zn 1.203557(19) 0.51752(3) 0.350611(11)
O5 O 0.61314(19) 0.6944(3) 0.51644(11)
H11 H 0.618(2) 0.789(2) 0.5332(11)
H12 H 0.634(4) 0.698(5) 0.4810(12)
loop_
_geom_bond_atom_site_label_1
_geom_bond_atom_site_label_2
_geom_bond_site_symmetry_1
_geom_bond_site_symmetry_2
Zn1 S1 1_555 1_555
S1 C1 1_555 1_555
S2 Zn1 1_555 1_555
O1 Zn1 1_555 1_555
O2 C5 1_555 1_555
O3 C3 1_555 1_555
O4 C3 1_555 1_555
N1 H1 1_555 1_555
H2 N1 1_555 1_555
N2 H3 1_555 1_555
H4 N2 1_555 1_555
N3 H5 1_555 1_555
H6 N3 1_555 1_555
N4 H7 1_555 1_555
H8 N4 1_555 1_555
C1 N1 1_555 1_555
C2 S2 1_555 1_555
C3 C4 1_555 1_555
C4 H9 1_555 1_555
C5 O1 1_555 1_555
C6 C4 1_555 1_555
H10 C6 1_555 1_555
O5 H11 1_555 1_555
H12 O5 1_555 1_555
O3A Zn1 1_555 1_555
Zn1A O3 1_555 1_555
N2 C1 1_555 1_555
N3 C2 1_555 1_555
N4 C2 1_555 1_555
C5 C6 1_555 1_555

#END
