
#######################################################################
#
#                 Cambridge Crystallographic Data Centre
#                                CCDC 
#
#######################################################################
#
# If this CIF has been generated from an entry in the Cambridge 
# Structural Database, then it will include bibliographic, chemical, 
# crystal, experimental, refinement or atomic coordinate data resulting 
# from the CCDC's data processing and validation procedures.
#
#######################################################################

data_QIKXAJ
_symmetry_cell_setting           monoclinic
_symmetry_space_group_name_H-M   'C 2/c'
_symmetry_Int_Tables_number      15
_space_group_name_Hall           '-C 2yn'
loop_
_symmetry_equiv_pos_site_id
_symmetry_equiv_pos_as_xyz
1 x,y,z
2 1/2+x,1/2+y,z
3 -x,y,1/2-z
4 1/2-x,1/2+y,1/2-z
5 -x,-y,-z
6 1/2-x,1/2-y,-z
7 x,-y,1/2+z
8 1/2+x,1/2-y,1/2+z
_cell_length_a                   20.257(3)
_cell_length_b                   9.7950(10)
_cell_length_c                   16.303(3)
_cell_angle_alpha                90
_cell_angle_beta                 94.50(2)
_cell_angle_gamma                90
_cell_volume                     3224.83
loop_
_atom_site_label
_atom_site_type_symbol
_atom_site_fract_x
_atom_site_fract_y
_atom_site_fract_z
Zn1 Zn 0.38261(2) 0.22004(3) 0.83849(2)
S1 S 0.27681(4) 0.14298(8) 0.86523(5)
S2 S 0.47273(4) 0.09714(9) 0.89074(6)
N1 N 0.4280(2) -0.1076(3) 0.7942(2)
H1 H 0.4278(21) -0.1863(47) 0.7806(27)
H2 H 0.4132(19) -0.0495(45) 0.7664(25)
N2 N 0.5004(2) -0.1631(4) 0.9015(2)
H3 H 0.5219(21) -0.1360(50) 0.9417(29)
H4 H 0.4984(22) -0.2562(49) 0.8837(29)
N3 N 0.2464(2) 0.3794(3) 0.7890(2)
H5 H 0.2264(21) 0.4341(46) 0.7825(27)
H6 H 0.2826(22) 0.3665(43) 0.7597(27)
N4 N 0.1757(2) 0.3064(4) 0.8809(2)
H7 H 0.1573(21) 0.3858(49) 0.8743(27)
H8 H 0.1645(22) 0.2548(47) 0.9151(30)
O1 O 0.37687(12) 0.2855(2) 0.72194(12)
O2 O 0.36062(11) 0.0713(2) 0.68111(12)
O3 O 0.38985(12) 0.5907(2) 0.38022(12)
O4 O 0.39862(13) 0.6504(2) 0.51193(14)
C1 C 0.4651(2) -0.0705(3) 0.8593(2)
C2 C 0.2301(2) 0.2880(3) 0.8433(2)
C3 C 0.36593(14) 0.1959(3) 0.6661(2)
C4 C 0.35708(15) 0.2451(3) 0.5791(2)
C5 C 0.3307(2) 0.1582(3) 0.5173(2)
H9 H 0.3198(2) 0.0688(3) 0.5300(2)
C6 C 0.3206(2) 0.2042(3) 0.4374(2)
H10 H 0.3016(2) 0.1468(3) 0.3967(2)
C7 C 0.3386(2) 0.3353(3) 0.4178(2)
H11 H 0.3319(2) 0.3656(3) 0.3637(2)
C8 C 0.36667(15) 0.4228(3) 0.4783(2)
C9 C 0.37465(15) 0.3766(3) 0.5590(2)
H12 H 0.39209(15) 0.4351(3) 0.6001(2)
C10 C 0.3867(2) 0.5658(3) 0.4572(2)
O3F O 0.38985(12) 0.4093(2) 0.88022(12)
Zn1F Zn 0.38261(2) 0.77996(3) 0.33849(2)
O5 O 0.4520(5) -0.3928(10) 0.7859(8)
O6? O 0.4187(6) -0.4116(12) 0.7573(9)
O7? O 0.4999(11) -0.4285(16) 0.8537(13)
loop_
_geom_bond_atom_site_label_1
_geom_bond_atom_site_label_2
_geom_bond_site_symmetry_1
_geom_bond_site_symmetry_2
Zn1 S1 1_555 1_555
S1 C2 1_555 1_555
S2 Zn1 1_555 1_555
N1 H1 1_555 1_555
H2 N1 1_555 1_555
N2 H3 1_555 1_555
H4 N2 1_555 1_555
N3 H5 1_555 1_555
H6 N3 1_555 1_555
N4 H7 1_555 1_555
H8 N4 1_555 1_555
O1 Zn1 1_555 1_555
O2 C3 1_555 1_555
O3 C10 1_555 1_555
O4 C10 1_555 1_555
C1 S2 1_555 1_555
C2 N3 1_555 1_555
C3 O1 1_555 1_555
C4 C3 1_555 1_555
C5 C4 1_555 1_555
H9 C5 1_555 1_555
C6 C5 1_555 1_555
H10 C6 1_555 1_555
C7 C6 1_555 1_555
H11 C7 1_555 1_555
C8 C7 1_555 1_555
C9 C4 1_555 1_555
H12 C9 1_555 1_555
C10 C8 1_555 1_555
O3F Zn1 1_555 1_555
Zn1F O3 1_555 1_555
N1 C1 1_555 1_555
N2 C1 1_555 1_555
N4 C2 1_555 1_555
C8 C9 1_555 1_555

#END
