
#######################################################################
#
#                 Cambridge Crystallographic Data Centre
#                                CCDC 
#
#######################################################################
#
# If this CIF has been generated from an entry in the Cambridge 
# Structural Database, then it will include bibliographic, chemical, 
# crystal, experimental, refinement or atomic coordinate data resulting 
# from the CCDC's data processing and validation procedures.
#
#######################################################################

data_QILFUO
_symmetry_cell_setting           trigonal
_symmetry_space_group_name_H-M   'P -3'
_symmetry_Int_Tables_number      147
_space_group_name_Hall           '-P 3'
loop_
_symmetry_equiv_pos_site_id
_symmetry_equiv_pos_as_xyz
1 x,y,z
2 -y,x-y,z
3 -x+y,-x,z
4 -x,-y,-z
5 y,-x+y,-z
6 x-y,x,-z
_cell_length_a                   13.8594(17)
_cell_length_b                   13.8594(17)
_cell_length_c                   8.0100(14)
_cell_angle_alpha                90
_cell_angle_beta                 90
_cell_angle_gamma                120
_cell_volume                     1332.45
loop_
_atom_site_label
_atom_site_type_symbol
_atom_site_fract_x
_atom_site_fract_y
_atom_site_fract_z
Zn1 Zn 0.01272(3) 0.23313(3) 0.39911(5)
O1 O -0.25265(17) 0.12229(17) 0.4805(3)
O2 O -0.10070(17) 0.28429(17) 0.4230(3)
O3 O -0.05005(17) 0.13366(17) 0.6162(3)
O4 O 0.10436(18) 0.19215(19) 0.7680(3)
C1 C -0.2019(3) 0.2249(2) 0.4582(4)
C2 C -0.2697(3) 0.2816(2) 0.4691(4)
C3 C -0.3856(3) 0.2180(3) 0.4700(3)
H1 H -0.4213 0.1390 0.4712
C4 C 0.0026(3) 0.1477(3) 0.7513(4)
H2 H -0.0408 0.1214 0.8502
O5 O 0.07684(19) 0.32946(18) 0.1759(3)
N1 N 0.0391(2) 0.3985(2) -0.0540(3)
C5 C 0.0119(3) 0.3253(3) 0.0664(4)
H3 H -0.0626 0.2651 0.0699
C6 C 0.1529(3) 0.4921(3) -0.0652(5)
H4 H 0.1890 0.5051 0.0442
H5 H 0.1514 0.5590 -0.1003
H6 H 0.1948 0.4749 -0.1470
C7 C -0.0372(3) 0.3837(3) -0.1897(4)
H7 H -0.1092 0.3163 -0.1697
H8 H -0.0061 0.3762 -0.2956
H9 H -0.0477 0.4485 -0.1951
O1A O -0.12229(17) 0.62506(24) 0.4805(3)
O2A O -0.28429(17) 0.61501(24) 0.4230(3)
C1A C -0.2249(2) 0.5732(4) 0.4582(4)
C2A C -0.2816(2) 0.4487(4) 0.4691(4)
C3A C -0.2180(3) 0.3964(4) 0.4700(3)
H1A H -0.1390 0.4397 0.4712
O1B O -0.62506(24) 0.25265(17) 0.4805(3)
O2B O -0.61501(24) 0.10070(17) 0.4230(3)
C1B C -0.5732(4) 0.2019(3) 0.4582(4)
C2B C -0.4487(4) 0.2697(3) 0.4691(4)
C3B C -0.3964(4) 0.3856(3) 0.4700(3)
H1B H -0.4397 0.4213 0.4712
Zn1A Zn -0.23313(3) 0.77959(4) 0.39911(5)
O3A O -0.13366(17) 0.81629(24) 0.6162(3)
O4A O -0.19215(19) 0.91221(26) 0.7680(3)
C4A C -0.1477(3) 0.8549(4) 0.7513(4)
H2A H -0.1214 0.8378 0.8502
O5A O -0.32946(18) 0.74738(26) 0.1759(3)
N1A N -0.3985(2) 0.6406(3) -0.0540(3)
C5A C -0.3253(3) 0.6866(4) 0.0664(4)
H3A H -0.2651 0.6723 0.0699
C6A C -0.4921(3) 0.6608(4) -0.0652(5)
H4A H -0.5051 0.6839 0.0442
H5A H -0.5590 0.5924 -0.1003
H6A H -0.4749 0.7199 -0.1470
C7A C -0.3837(3) 0.5791(4) -0.1897(4)
H7A H -0.3163 0.5745 -0.1697
H8A H -0.3762 0.6177 -0.2956
H9A H -0.4485 0.5038 -0.1951
Zn1B Zn -0.77959(4) -0.01272(3) 0.39911(5)
O3B O -0.81629(24) 0.05005(17) 0.6162(3)
O4B O -0.91221(26) -0.10436(18) 0.7680(3)
C4B C -0.8549(4) -0.0026(3) 0.7513(4)
H2B H -0.8378 0.0408 0.8502
O5B O -0.74738(26) -0.07684(19) 0.1759(3)
N1B N -0.6406(3) -0.0391(2) -0.0540(3)
C5B C -0.6866(4) -0.0119(3) 0.0664(4)
H3B H -0.6723 0.0626 0.0699
C6B C -0.6608(4) -0.1529(3) -0.0652(5)
H4B H -0.6839 -0.1890 0.0442
H5B H -0.5924 -0.1514 -0.1003
H6B H -0.7199 -0.1948 -0.1470
C7B C -0.5791(4) 0.0372(3) -0.1897(4)
H7B H -0.5745 0.1092 -0.1697
H8B H -0.6177 0.0061 -0.2956
H9B H -0.5038 0.0477 -0.1951
Zn1C Zn -1.01272(3) -0.23313(3) 0.60089(5)
Zn1C_2 Zn -0.01272(3) 0.76687(3) 0.60089(5)
Zn1D Zn -0.76687(3) 0.22041(4) 0.60089(5)
Zn1D_2 Zn 0.23313(3) 0.22041(4) 0.60089(5)
Zn1E Zn -0.22041(4) 0.01272(3) 0.60089(5)
Zn1E_2 Zn -0.22041(4) 1.01272(3) 0.60089(5)
O1C O -0.74735(17) -0.12229(17) 0.5195(3)
O1D O 0.12229(17) 0.37494(24) 0.5195(3)
O1E O -0.37494(24) 0.74735(17) 0.5195(3)
O3C O -0.94995(17) -0.13366(17) 0.3838(3)
O3D O 0.13366(17) 0.18371(24) 0.3838(3)
O3E O -0.18371(24) 0.94995(17) 0.3838(3)
O4C O -0.10436(18) 0.80785(19) 0.2320(3)
O4D O -0.80785(19) 0.08779(26) 0.2320(3)
O4E O -0.08779(26) 0.10436(18) 0.2320(3)
loop_
_geom_bond_atom_site_label_1
_geom_bond_atom_site_label_2
_geom_bond_site_symmetry_1
_geom_bond_site_symmetry_2
Zn1 O2 1_555 1_555
O1 C1 1_555 1_555
O2 C1 1_555 1_555
O3 Zn1 1_555 1_555
O4 C4 1_555 1_555
C1 C2 1_555 1_555
C2 C3 1_555 1_555
C3 H1 1_555 1_555
C4 O3 1_555 1_555
H2 C4 1_555 1_555
O5 Zn1 1_555 1_555
N1 C5 1_555 1_555
C5 O5 1_555 1_555
H3 C5 1_555 1_555
C6 N1 1_555 1_555
H4 C6 1_555 1_555
H5 C6 1_555 1_555
H6 C6 1_555 1_555
C7 N1 1_555 1_555
H7 C7 1_555 1_555
H8 C7 1_555 1_555
H9 C7 1_555 1_555
O1A C1A 1_555 1_555
O2A C1A 1_555 1_555
C1A C2A 1_555 1_555
C2A C3A 1_555 1_555
C3A C2 1_555 1_555
H1A C3A 1_555 1_555
O1B C1B 1_555 1_555
O2B C1B 1_555 1_555
C1B C2B 1_555 1_555
C2B C3 1_555 1_555
C3B C2A 1_555 1_555
H1B C3B 1_555 1_555
Zn1A O2A 1_555 1_555
O3A Zn1A 1_555 1_555
O4A C4A 1_555 1_555
C4A O3A 1_555 1_555
H2A C4A 1_555 1_555
O5A Zn1A 1_555 1_555
N1A C5A 1_555 1_555
C5A O5A 1_555 1_555
H3A C5A 1_555 1_555
C6A N1A 1_555 1_555
H4A C6A 1_555 1_555
H5A C6A 1_555 1_555
H6A C6A 1_555 1_555
C7A N1A 1_555 1_555
H7A C7A 1_555 1_555
H8A C7A 1_555 1_555
H9A C7A 1_555 1_555
Zn1B O2B 1_555 1_555
O3B Zn1B 1_555 1_555
O4B C4B 1_555 1_555
C4B O3B 1_555 1_555
H2B C4B 1_555 1_555
O5B Zn1B 1_555 1_555
N1B C5B 1_555 1_555
C5B O5B 1_555 1_555
H3B C5B 1_555 1_555
C6B N1B 1_555 1_555
H4B C6B 1_555 1_555
H5B C6B 1_555 1_555
H6B C6B 1_555 1_555
C7B N1B 1_555 1_555
H7B C7B 1_555 1_555
H8B C7B 1_555 1_555
H9B C7B 1_555 1_555
Zn1C O4B 1_555 1_555
Zn1C_2 O1A 1_555 1_555
Zn1D O1B 1_555 1_555
Zn1D_2 O4 1_555 1_555
Zn1E O1 1_555 1_555
Zn1E_2 O4A 1_555 1_555
O1C Zn1B 1_555 1_555
O1D Zn1 1_555 1_555
O1E Zn1A 1_555 1_555
O3C Zn1B 1_555 1_555
O3D Zn1 1_555 1_555
O3E Zn1A 1_555 1_555
O4C Zn1A 1_555 1_555
O4D Zn1B 1_555 1_555
O4E Zn1 1_555 1_555
O3 Zn1E 1_555 1_555
C2B C3B 1_555 1_555
O3A Zn1C_2 1_555 1_555
O3B Zn1D 1_555 1_555
Zn1C O3C 1_555 1_555
Zn1D_2 O3D 1_555 1_555
Zn1E_2 O3E 1_555 1_555

#END
