
#######################################################################
#
#                 Cambridge Crystallographic Data Centre
#                                CCDC 
#
#######################################################################
#
# If this CIF has been generated from an entry in the Cambridge 
# Structural Database, then it will include bibliographic, chemical, 
# crystal, experimental, refinement or atomic coordinate data resulting 
# from the CCDC's data processing and validation procedures.
#
#######################################################################

data_QILVUC
_symmetry_cell_setting           monoclinic
_symmetry_space_group_name_H-M   'P c'
_symmetry_Int_Tables_number      7
_space_group_name_Hall           'P -2yc'
loop_
_symmetry_equiv_pos_site_id
_symmetry_equiv_pos_as_xyz
1 x,y,z
2 x,-y,1/2+z
_cell_length_a                   11.63350(10)
_cell_length_b                   5.63090(10)
_cell_length_c                   14.8578(2)
_cell_angle_alpha                90
_cell_angle_beta                 121.0910(10)
_cell_angle_gamma                90
_cell_volume                     833.476
loop_
_atom_site_label
_atom_site_type_symbol
_atom_site_fract_x
_atom_site_fract_y
_atom_site_fract_z
Pb1 Pb 1.00026(7) 0.59744(4) 0.25149(6)
S1 S 0.7742(4) 1.3377(9) 0.2804(4)
S2 S 1.2239(4) 1.3226(10) 0.2282(4)
N1 N 0.8497(9) 0.9230(16) 0.2216(9)
N2 N 1.0960(12) 0.8898(16) 0.1902(10)
N3 N 0.8194(7) 0.5060(16) 0.0599(5)
N4 N 0.1747(9) -0.1568(17) -0.5732(6)
C1 C 0.8185(11) 1.0955(16) 0.2469(9)
C2 C 1.1533(12) 1.070(2) 0.2083(10)
C3 C 0.8415(11) 0.317(2) 0.0169(7)
H1 H 0.9288 0.2603 0.0462
C4 C 0.7387(14) 0.200(3) -0.0699(10)
H2 H 0.7566 0.0631 -0.0955
C5 C 0.6077(9) 0.292(2) -0.1190(7)
C6 C 0.5907(10) 0.487(2) -0.0753(8)
H3 H 0.5054 0.5527 -0.1051
C7 C 0.6965(11) 0.5943(19) 0.0126(9)
H4 H 0.6805 0.7321 0.0389
C8 C 0.4961(14) 0.170(3) -0.2150(10)
H5 H 0.4116 0.2036 -0.2194
H6 H 0.5105 0.0000 -0.2071
C9 C 0.4861(13) 0.246(2) -0.3148(8)
H7 H 0.4678 0.4151 -0.3245
H8 H 0.5716 0.2183 -0.3097
C10 C 0.3775(10) 0.115(2) -0.4089(7)
C11 C 0.2417(16) 0.174(3) -0.4558(12)
H9 H 0.2158 0.3087 -0.4343
C12 C 0.1449(11) 0.028(3) -0.5359(9)
H10 H 0.0548 0.0651 -0.5638
C13 C 0.3028(12) -0.215(2) -0.5290(9)
H11 H 0.3254 -0.3482 -0.5536
C14 C 0.4048(12) -0.085(2) -0.4478(9)
H12 H 0.4934 -0.1341 -0.4189
N4_2 N 1.1747(9) 0.8432(17) 0.4268(6)
Pb1_2 Pb 0.00026(7) -0.40256(4) -0.74851(6)
loop_
_geom_bond_atom_site_label_1
_geom_bond_atom_site_label_2
_geom_bond_site_symmetry_1
_geom_bond_site_symmetry_2
Pb1 N1 1_555 1_555
S1 C1 1_555 1_555
S2 C2 1_555 1_555
N1 C1 1_555 1_555
N2 Pb1 1_555 1_555
N3 Pb1 1_555 1_555
N4 C12 1_555 1_555
C2 N2 1_555 1_555
C3 N3 1_555 1_555
H1 C3 1_555 1_555
C4 C3 1_555 1_555
H2 C4 1_555 1_555
C5 C4 1_555 1_555
C6 C5 1_555 1_555
H3 C6 1_555 1_555
C7 N3 1_555 1_555
H4 C7 1_555 1_555
C8 C5 1_555 1_555
H5 C8 1_555 1_555
H6 C8 1_555 1_555
C9 C8 1_555 1_555
H7 C9 1_555 1_555
H8 C9 1_555 1_555
C10 C9 1_555 1_555
C11 C10 1_555 1_555
H9 C11 1_555 1_555
C12 C11 1_555 1_555
H10 C12 1_555 1_555
C13 N4 1_555 1_555
H11 C13 1_555 1_555
C14 C10 1_555 1_555
H12 C14 1_555 1_555
N4_2 Pb1 1_555 1_555
Pb1_2 N4 1_555 1_555
C6 C7 1_555 1_555
C13 C14 1_555 1_555

#END
