
#######################################################################
#
#                 Cambridge Crystallographic Data Centre
#                                CCDC 
#
#######################################################################
#
# If this CIF has been generated from an entry in the Cambridge 
# Structural Database, then it will include bibliographic, chemical, 
# crystal, experimental, refinement or atomic coordinate data resulting 
# from the CCDC's data processing and validation procedures.
#
#######################################################################

data_QILWEN
_symmetry_cell_setting           triclinic
_symmetry_space_group_name_H-M   'P -1'
_symmetry_Int_Tables_number      2
_space_group_name_Hall           '-P 1'
loop_
_symmetry_equiv_pos_site_id
_symmetry_equiv_pos_as_xyz
1 x,y,z
2 -x,-y,-z
_cell_length_a                   4.8574(10)
_cell_length_b                   7.3046(10)
_cell_length_c                   23.1846(10)
_cell_angle_alpha                91.610(10)
_cell_angle_beta                 95.660(10)
_cell_angle_gamma                90.990(10)
_cell_volume                     818.121
loop_
_atom_site_label
_atom_site_type_symbol
_atom_site_fract_x
_atom_site_fract_y
_atom_site_fract_z
Pb1 Pb 0.20267(8) 0.25423(5) 0.032812(17)
O1 O 0.1778(18) -0.0961(10) 0.0381(4)
O2 O 0.1725(18) -0.3910(10) 0.0500(4)
O3 O -0.2092(17) 0.2836(14) 0.0853(4)
O4 O 0.1744(17) 0.2309(13) 0.1356(4)
C1 C 0.259(2) -0.2354(14) 0.0661(4)
C2 C 0.461(2) -0.2100(17) 0.1202(4)
H1 H 0.5402 -0.0869 0.1222
H2 H 0.6104 -0.2960 0.1189
C3 C 0.307(2) -0.2425(17) 0.1738(4)
H3 H 0.1424 -0.1688 0.1718
H4 H 0.2494 -0.3702 0.1740
C4 C 0.489(2) -0.1935(17) 0.2297(4)
H5 H 0.5346 -0.0637 0.2306
H6 H 0.6599 -0.2599 0.2300
C5 C 0.350(2) -0.2380(19) 0.2844(4)
H7 H 0.1752 -0.1756 0.2834
H8 H 0.3112 -0.3687 0.2844
C6 C 0.529(3) -0.181(2) 0.3404(5)
H9 H 0.7041 -0.2433 0.3411
H10 H 0.5676 -0.0506 0.3402
C7 C 0.394(4) -0.225(3) 0.3954(6)
H11 H 0.2031 -0.1922 0.3907
H12 H 0.4877 -0.1566 0.4278
H13 H 0.4078 -0.3536 0.4024
C8 C -0.069(2) 0.2705(14) 0.1323(4)
C9 C -0.204(2) 0.3105(17) 0.1880(4)
H14 H -0.2451 0.4398 0.1902
H15 H -0.3778 0.2423 0.1863
C10 C -0.025(2) 0.2613(17) 0.2428(4)
H16 H 0.1532 0.3240 0.2437
H17 H 0.0070 0.1305 0.2420
C11 C -0.160(2) 0.3137(19) 0.2976(4)
H18 H -0.3382 0.2514 0.2965
H19 H -0.1908 0.4445 0.2984
C12 C 0.019(3) 0.2635(19) 0.3527(4)
H20 H 0.1960 0.3278 0.3540
H21 H 0.0534 0.1331 0.3513
C13 C -0.117(3) 0.312(2) 0.4079(5)
H22 H -0.2937 0.2469 0.4067
H23 H -0.1521 0.4419 0.4092
C14 C 0.064(4) 0.261(3) 0.4630(6)
H24 H 0.0921 0.1315 0.4627
H25 H -0.0255 0.2969 0.4965
H26 H 0.2402 0.3242 0.4642
O1A O -0.1778(18) 0.0961(10) -0.0381(4)
O2_2 O 0.1725(18) 0.6090(10) 0.0500(4)
O2A O -0.1725(18) 0.3910(10) -0.0500(4)
Pb1A Pb -0.20267(8) -0.25423(5) -0.032812(17)
Pb1_2 Pb 0.20267(8) -0.74577(5) 0.032812(17)
loop_
_geom_bond_atom_site_label_1
_geom_bond_atom_site_label_2
_geom_bond_site_symmetry_1
_geom_bond_site_symmetry_2
Pb1 O1 1_555 1_555
O1 C1 1_555 1_555
O2 C1 1_555 1_555
O3 Pb1 1_555 1_555
O4 Pb1 1_555 1_555
C1 C2 1_555 1_555
C2 H1 1_555 1_555
H2 C2 1_555 1_555
C3 C2 1_555 1_555
H3 C3 1_555 1_555
H4 C3 1_555 1_555
C4 C3 1_555 1_555
H5 C4 1_555 1_555
H6 C4 1_555 1_555
C5 C4 1_555 1_555
H7 C5 1_555 1_555
H8 C5 1_555 1_555
C6 C5 1_555 1_555
H9 C6 1_555 1_555
H10 C6 1_555 1_555
C7 C6 1_555 1_555
H11 C7 1_555 1_555
H12 C7 1_555 1_555
H13 C7 1_555 1_555
C8 O3 1_555 1_555
C9 C8 1_555 1_555
H14 C9 1_555 1_555
H15 C9 1_555 1_555
C10 C9 1_555 1_555
H16 C10 1_555 1_555
H17 C10 1_555 1_555
C11 C10 1_555 1_555
H18 C11 1_555 1_555
H19 C11 1_555 1_555
C12 C11 1_555 1_555
H20 C12 1_555 1_555
H21 C12 1_555 1_555
C13 C12 1_555 1_555
H22 C13 1_555 1_555
H23 C13 1_555 1_555
C14 C13 1_555 1_555
H24 C14 1_555 1_555
H25 C14 1_555 1_555
H26 C14 1_555 1_555
O1A Pb1 1_555 1_555
O2_2 Pb1 1_555 1_555
O2A Pb1 1_555 1_555
Pb1A O1 1_555 1_555
Pb1_2 O2 1_555 1_555
O2 Pb1A 1_555 1_555
O4 C8 1_555 1_555
O1A Pb1A 1_555 1_555

#END
