
#######################################################################
#
#                 Cambridge Crystallographic Data Centre
#                                CCDC 
#
#######################################################################
#
# If this CIF has been generated from an entry in the Cambridge 
# Structural Database, then it will include bibliographic, chemical, 
# crystal, experimental, refinement or atomic coordinate data resulting 
# from the CCDC's data processing and validation procedures.
#
#######################################################################

data_QILYIT
_symmetry_cell_setting           triclinic
_symmetry_space_group_name_H-M   'P -1'
_symmetry_Int_Tables_number      2
_space_group_name_Hall           '-P 1'
loop_
_symmetry_equiv_pos_site_id
_symmetry_equiv_pos_as_xyz
1 x,y,z
2 -x,-y,-z
_cell_length_a                   10.015(5)
_cell_length_b                   9.988(4)
_cell_length_c                   4.2432(15)
_cell_angle_alpha                101.50(3)
_cell_angle_beta                 104.41(3)
_cell_angle_gamma                97.29(3)
_cell_volume                     395.813
loop_
_atom_site_label
_atom_site_type_symbol
_atom_site_fract_x
_atom_site_fract_y
_atom_site_fract_z
Rb1 Rb 0.84409(3) 0.17393(3) 0.54479(8)
O1 O 0.56578(18) -0.0880(2) 0.0896(5)
O2 O 0.35723(18) -0.1956(2) 0.0785(5)
O3 O 0.93701(18) -0.29397(19) 0.7795(5)
O4 O 0.89836(17) -0.52079(17) 0.7603(5)
O5 O 0.8379(2) -0.0377(3) -0.0478(6)
C1 C 0.5471(3) -0.3028(3) 0.2459(7)
C2 C 0.6767(3) -0.3207(3) 0.2799(7)
C3 C 0.7324(3) -0.4426(3) 0.3786(7)
C4 C 0.4848(3) -0.1880(3) 0.1329(7)
C5 C 0.8666(3) -0.4113(3) 0.6601(7)
H1 H 0.487 -0.371 0.305
H2 H 0.742 -0.250 0.242
H3 H 0.661 -0.497 0.440
H4 H 0.748 -0.500 0.183
H5 H 0.858(3) -0.102(3) -0.099(7)
H6 H 0.728(4) -0.072(4) -0.073(9)
Rb1A Rb 1.15591(3) -0.17393(3) 0.45521(8)
O2A O 0.64277(18) 0.1956(2) -0.0785(5)
O2A_2 O 0.64277(18) 0.1956(2) 0.9215(5)
O3A O 1.06299(18) 0.29397(19) 0.2205(5)
O3A_2 O 1.06299(18) 0.29397(19) 1.2205(5)
O4_2 O 0.89836(17) 0.47921(17) 0.7603(5)
O5_2 O 0.8379(2) -0.0377(3) 0.9522(6)
Rb1A_2 Rb 0.15591(3) -0.17393(3) -0.54479(8)
Rb1A_3 Rb 0.15591(3) -0.17393(3) 0.45521(8)
Rb1A_4 Rb 1.15591(3) -0.17393(3) 1.45521(8)
Rb1_2 Rb 0.84409(3) -0.82607(3) 0.54479(8)
Rb1_3 Rb 0.84409(3) 0.17393(3) -0.45521(8)
H5_2 H 0.858(3) -0.102(3) 0.901(7)
H6_2 H 0.728(4) -0.072(4) 0.927(9)
loop_
_geom_bond_atom_site_label_1
_geom_bond_atom_site_label_2
_geom_bond_site_symmetry_1
_geom_bond_site_symmetry_2
Rb1 O1 1_555 1_555
O1 C4 1_555 1_555
O2 C4 1_555 1_555
O3 C5 1_555 1_555
O4 C5 1_555 1_555
O5 Rb1 1_555 1_555
C1 C2 1_555 1_555
C2 C3 1_555 1_555
C3 C5 1_555 1_555
C4 C1 1_555 1_555
H1 C1 1_555 1_555
H2 C2 1_555 1_555
H3 C3 1_555 1_555
H4 C3 1_555 1_555
H5 O5 1_555 1_555
H6 O5 1_555 1_555
Rb1A O3 1_555 1_555
O2A Rb1 1_555 1_555
O2A_2 Rb1 1_555 1_555
O3A Rb1 1_555 1_555
O3A_2 Rb1 1_555 1_555
O4_2 Rb1 1_555 1_555
O5_2 Rb1 1_555 1_555
Rb1A_2 O2 1_555 1_555
Rb1A_3 O2 1_555 1_555
Rb1A_4 O3 1_555 1_555
Rb1_2 O4 1_555 1_555
Rb1_3 O5 1_555 1_555
H5_2 O5_2 1_555 1_555
H6_2 O5_2 1_555 1_555
O2A Rb1_3 1_555 1_555
O3A Rb1_3 1_555 1_555

#END
