
#######################################################################
#
#                 Cambridge Crystallographic Data Centre
#                                CCDC 
#
#######################################################################
#
# If this CIF has been generated from an entry in the Cambridge 
# Structural Database, then it will include bibliographic, chemical, 
# crystal, experimental, refinement or atomic coordinate data resulting 
# from the CCDC's data processing and validation procedures.
#
#######################################################################

data_QILZUI
_symmetry_cell_setting           monoclinic
_symmetry_space_group_name_H-M   'C 2/c'
_symmetry_Int_Tables_number      15
_space_group_name_Hall           '-C 2yn'
loop_
_symmetry_equiv_pos_site_id
_symmetry_equiv_pos_as_xyz
1 x,y,z
2 -x,y,1/2-z
3 1/2+x,1/2+y,z
4 1/2-x,1/2+y,1/2-z
5 -x,-y,-z
6 x,-y,1/2+z
7 1/2-x,1/2-y,-z
8 1/2+x,1/2-y,1/2+z
_cell_length_a                   21.489(3)
_cell_length_b                   7.1038(8)
_cell_length_c                   23.022(4)
_cell_angle_alpha                90
_cell_angle_beta                 92.150(13)
_cell_angle_gamma                90
_cell_volume                     3511.92
loop_
_atom_site_label
_atom_site_type_symbol
_atom_site_fract_x
_atom_site_fract_y
_atom_site_fract_z
Co1 Co 0.112920(16) 0.76842(5) 0.114654(16)
N1 N -0.00709(10) 0.9689(3) 0.08627(11)
H1 H 0.0136 1.0558 0.0696
C1 C -0.01628(16) 0.5271(5) 0.16038(16)
H2 H 0.0274 0.4988 0.1597
H3 H -0.0395 0.4302 0.1402
H4 H -0.0288 0.5336 0.1999
C2 C -0.02855(13) 0.7121(4) 0.13119(13)
N2 N 0.01882(11) 0.8106(4) 0.10959(11)
N3 N -0.16588(11) 0.5456(3) 0.28541(11)
H5 H -0.1776 0.4602 0.3092
C3 C -0.06934(13) 0.9734(4) 0.09234(12)
N4 N -0.13447(11) 0.7044(4) 0.30166(11)
C4 C -0.10828(15) 1.1319(5) 0.06766(16)
H6 H -0.0817 1.2241 0.0508
H7 H -0.1310 1.1892 0.0981
H8 H -0.1370 1.0838 0.0383
C5 C -0.08498(13) 0.8102(5) 0.12157(13)
C6 C -0.14903(14) 0.7538(5) 0.14090(14)
H9 H -0.1775 0.8579 0.1338
H10 H -0.1638 0.6483 0.1175
C7 C -0.15023(13) 0.6995(5) 0.20442(13)
C8 C -0.17640(12) 0.5389(4) 0.22729(13)
C9 C -0.21116(16) 0.3788(5) 0.19895(16)
H11 H -0.2228 0.2902 0.2281
H12 H -0.1851 0.3178 0.1717
H13 H -0.2479 0.4259 0.1789
C10 C -0.12498(13) 0.7990(4) 0.25238(13)
C11 C -0.09241(16) 0.9851(5) 0.25434(15)
H14 H -0.0807 1.0156 0.2939
H15 H -0.1198 1.0806 0.2386
H16 H -0.0558 0.9787 0.2318
O1 O 0.13227(9) 0.0107(3) 0.08296(10)
O2 O 0.12963(9) 0.5407(3) 0.06666(10)
O3 O 0.18020(13) 0.2201(3) 0.14264(10)
O4 O 0.22094(10) 0.6679(3) 0.08965(10)
C12 C 0.22071(12) 0.3902(4) 0.03175(12)
C13 C 0.21066(12) 0.1992(4) 0.04459(12)
C14 C 0.17172(12) 0.1427(4) 0.09496(13)
C15 C 0.18998(12) 0.5429(4) 0.06515(12)
C16 C 0.23968(12) 0.0614(4) 0.01259(12)
H17 H 0.2327 -0.0649 0.0208
O1F O 0.36773(9) 0.4893(3) -0.08296(10)
O2F O 0.37037(9) -0.0407(3) -0.06666(10)
O3F O 0.31980(13) 0.2799(3) -0.14264(10)
O4F O 0.27906(10) -0.1679(3) -0.08965(10)
C12F C 0.27929(12) 0.1098(4) -0.03175(12)
C13F C 0.28934(12) 0.3008(4) -0.04459(12)
C14F C 0.32828(12) 0.3573(4) -0.09496(13)
C15F C 0.31002(12) -0.0429(4) -0.06515(12)
C16F C 0.26032(12) 0.4386(4) -0.01259(12)
H17F H 0.2673 0.5649 -0.0208
Co1A Co -0.112920(16) 0.76842(5) 0.385346(16)
N1A N 0.00709(10) 0.9689(3) 0.41373(11)
H1A H -0.0136 1.0558 0.4304
C1A C 0.01628(16) 0.5271(5) 0.33962(16)
H2A H -0.0274 0.4988 0.3403
H3A H 0.0395 0.4302 0.3598
H4A H 0.0288 0.5336 0.3001
C2A C 0.02855(13) 0.7121(4) 0.36881(13)
N2A N -0.01882(11) 0.8106(4) 0.39041(11)
N3A N 0.16588(11) 0.5456(3) 0.21459(11)
H5A H 0.1776 0.4602 0.1908
C3A C 0.06934(13) 0.9734(4) 0.40766(12)
N4A N 0.13447(11) 0.7044(4) 0.19834(11)
C4A C 0.10828(15) 1.1319(5) 0.43234(16)
H6A H 0.0817 1.2241 0.4492
H7A H 0.1310 1.1892 0.4019
H8A H 0.1370 1.0838 0.4617
C5A C 0.08498(13) 0.8102(5) 0.37843(13)
C6A C 0.14903(14) 0.7538(5) 0.35910(14)
H9A H 0.1775 0.8579 0.3662
H10A H 0.1638 0.6483 0.3825
C7A C 0.15023(13) 0.6995(5) 0.29558(13)
C8A C 0.17640(12) 0.5389(4) 0.27271(13)
C9A C 0.21116(16) 0.3788(5) 0.30105(16)
H11A H 0.2228 0.2902 0.2719
H12A H 0.1851 0.3178 0.3283
H13A H 0.2479 0.4259 0.3211
C10A C 0.12498(13) 0.7990(4) 0.24762(13)
C11A C 0.09241(16) 0.9851(5) 0.24566(15)
H14A H 0.0807 1.0156 0.2061
H15A H 0.1198 1.0806 0.2614
H16A H 0.0558 0.9787 0.2682
Co1_2 Co 0.112920(16) -0.23158(5) 0.114654(16)
Co1F Co 0.387080(16) -0.26842(5) -0.114654(16)
Co1F_2 Co 0.387080(16) 0.73158(5) -0.114654(16)
O1_2 O 0.13227(9) 1.0107(3) 0.08296(10)
O1A O -0.13227(9) 1.0107(3) 0.41704(10)
O2A O -0.12963(9) 0.5407(3) 0.43334(10)
O5 O 0.03147(12) 0.3119(4) 0.02701(13)
H18 H 0.0335 0.2476 -0.0040
H19 H 0.0653 0.3726 0.0323
loop_
_geom_bond_atom_site_label_1
_geom_bond_atom_site_label_2
_geom_bond_site_symmetry_1
_geom_bond_site_symmetry_2
Co1 N2 1_555 1_555
N1 H1 1_555 1_555
C1 H2 1_555 1_555
H3 C1 1_555 1_555
H4 C1 1_555 1_555
C2 C1 1_555 1_555
N2 N1 1_555 1_555
N3 H5 1_555 1_555
C3 N1 1_555 1_555
N4 N3 1_555 1_555
C4 C3 1_555 1_555
H6 C4 1_555 1_555
H7 C4 1_555 1_555
H8 C4 1_555 1_555
C5 C2 1_555 1_555
C6 C5 1_555 1_555
H9 C6 1_555 1_555
H10 C6 1_555 1_555
C7 C6 1_555 1_555
C8 N3 1_555 1_555
C9 C8 1_555 1_555
H11 C9 1_555 1_555
H12 C9 1_555 1_555
H13 C9 1_555 1_555
C10 N4 1_555 1_555
C11 C10 1_555 1_555
H14 C11 1_555 1_555
H15 C11 1_555 1_555
H16 C11 1_555 1_555
O1 C14 1_555 1_555
O2 Co1 1_555 1_555
O3 C14 1_555 1_555
O4 C15 1_555 1_555
C12 C13 1_555 1_555
C13 C14 1_555 1_555
C15 O2 1_555 1_555
C16 C13 1_555 1_555
H17 C16 1_555 1_555
O5 H18 1_555 1_555
H19 O5 1_555 1_555
O1F C14F 1_555 1_555
O2F C15F 1_555 1_555
O3F C14F 1_555 1_555
O4F C15F 1_555 1_555
C12F C16 1_555 1_555
C13F C12F 1_555 1_555
C14F C13F 1_555 1_555
C15F C12F 1_555 1_555
C16F C12 1_555 1_555
H17F C16F 1_555 1_555
Co1A N4 1_555 1_555
N1A H1A 1_555 1_555
C1A H2A 1_555 1_555
H3A C1A 1_555 1_555
H4A C1A 1_555 1_555
C2A C1A 1_555 1_555
N2A Co1A 1_555 1_555
N3A H5A 1_555 1_555
C3A N1A 1_555 1_555
N4A Co1 1_555 1_555
C4A C3A 1_555 1_555
H6A C4A 1_555 1_555
H7A C4A 1_555 1_555
H8A C4A 1_555 1_555
C5A C2A 1_555 1_555
C6A C5A 1_555 1_555
H9A C6A 1_555 1_555
H10A C6A 1_555 1_555
C7A C6A 1_555 1_555
C8A N3A 1_555 1_555
C9A C8A 1_555 1_555
H11A C9A 1_555 1_555
H12A C9A 1_555 1_555
H13A C9A 1_555 1_555
C10A N4A 1_555 1_555
C11A C10A 1_555 1_555
H14A C11A 1_555 1_555
H15A C11A 1_555 1_555
H16A C11A 1_555 1_555
Co1_2 O1 1_555 1_555
Co1F O2F 1_555 1_555
Co1F_2 O1F 1_555 1_555
O1_2 Co1 1_555 1_555
O1A Co1A 1_555 1_555
O2A Co1A 1_555 1_555
C2 N2 1_555 1_555
C3 C5 1_555 1_555
C7 C8 1_555 1_555
C7 C10 1_555 1_555
C12 C15 1_555 1_555
C13F C16F 1_555 1_555
N1A N2A 1_555 1_555
C2A N2A 1_555 1_555
N3A N4A 1_555 1_555
C3A C5A 1_555 1_555
C7A C8A 1_555 1_555
C7A C10A 1_555 1_555

#END
