
#######################################################################
#
#                 Cambridge Crystallographic Data Centre
#                                CCDC 
#
#######################################################################
#
# If this CIF has been generated from an entry in the Cambridge 
# Structural Database, then it will include bibliographic, chemical, 
# crystal, experimental, refinement or atomic coordinate data resulting 
# from the CCDC's data processing and validation procedures.
#
#######################################################################

data_QIMBIZ
_symmetry_cell_setting           triclinic
_symmetry_space_group_name_H-M   'P -1'
_symmetry_Int_Tables_number      2
_space_group_name_Hall           '-P 1'
loop_
_symmetry_equiv_pos_site_id
_symmetry_equiv_pos_as_xyz
1 x,y,z
2 -x,-y,-z
_cell_length_a                   9.911(3)
_cell_length_b                   10.115(3)
_cell_length_c                   12.281(4)
_cell_angle_alpha                83.369(14)
_cell_angle_beta                 67.120(12)
_cell_angle_gamma                69.755(12)
_cell_volume                     1063.97
loop_
_atom_site_label
_atom_site_type_symbol
_atom_site_fract_x
_atom_site_fract_y
_atom_site_fract_z
Cd1 Cd -0.45061(6) 0.02506(5) 0.81292(5)
N1 N -0.2106(7) 0.0038(7) 0.8070(5)
C1 C 0.1888(10) 0.0160(9) 0.7037(7)
H1 H 0.1674 0.1171 0.7029
H2 H 0.2509 -0.0235 0.7516
N2 N 0.4074(8) -0.0545(7) 0.3839(6)
N3 N 0.4255(8) -0.1844(7) 0.4266(6)
H3 H 0.4723 -0.2604 0.3837
C2 C 0.0385(9) -0.0108(9) 0.7637(6)
N4 N -0.1549(8) -0.0813(7) 0.8845(6)
H4 H -0.2071 -0.1237 0.9410
O1 O -0.4760(10) -0.1421(7) 0.9658(6)
C3 C 0.3153(9) 0.0356(9) 0.4772(7)
C4 C -0.0961(8) 0.0445(8) 0.7319(6)
C5 C 0.0791(12) -0.1752(10) 0.9362(8)
H5 H 0.0158 -0.2196 0.9983
H6 H 0.1086 -0.1139 0.9699
H7 H 0.1704 -0.2461 0.8872
C6 C 0.3599(8) -0.1806(9) 0.5473(7)
C7 C 0.3646(14) -0.3102(11) 0.6151(9)
H8 H 0.3158 -0.2868 0.6981
H9 H 0.4705 -0.3689 0.5971
H10 H 0.3105 -0.3597 0.5947
C8 C -0.0116(10) -0.0903(9) 0.8621(6)
O2 O -0.5128(10) -0.1823(7) 0.8122(6)
C9 C 0.2671(11) 0.1918(9) 0.4630(8)
H11 H 0.3013 0.2130 0.3805
H12 H 0.3128 0.2316 0.5012
H13 H 0.1562 0.2313 0.4984
C10 C -0.1139(11) 0.1414(10) 0.6339(7)
H14 H -0.2152 0.1608 0.6327
H15 H -0.0366 0.0981 0.5600
H16 H -0.1014 0.2279 0.6458
C11 C -0.4958(14) -0.2231(11) 0.9027(9)
C12 C 0.2841(8) -0.0393(9) 0.5816(7)
Cl1 Cl -1.0738(3) 0.5409(3) 1.26652(19)
O3 O -0.6093(7) 0.3444(7) 0.7787(6)
O4 O -0.6858(7) 0.1750(7) 0.8858(6)
C13 C -0.8548(8) 0.4095(8) 0.9293(6)
C14 C -1.0358(10) 0.5186(8) 1.1183(7)
C15 C -0.8923(9) 0.4281(8) 1.0486(7)
H17 H -0.8204 0.3794 1.0825
C16 C -0.7010(8) 0.3039(9) 0.8583(7)
C17 C -0.5001(10) -0.3673(9) 0.9500(7)
C18 C -0.5789(9) -0.3794(8) 1.0695(7)
H18 H -0.6311 -0.2993 1.1184
C19 C -0.4197(10) -0.4890(8) 0.8830(7)
Cl2 Cl -0.3126(3) -0.4868(2) 0.7316(2)
O1A O -0.5240(10) -0.8579(7) 1.0342(6)
O2A O -0.4872(10) -0.8177(7) 1.1878(6)
C11A C -0.5042(14) -0.7769(11) 1.0973(9)
C17A C -0.4999(10) -0.6327(9) 1.0500(7)
C18A C -0.4211(9) -0.6206(8) 0.9305(7)
H18A H -0.3689 -0.7007 0.8816
C19A C -0.5803(10) -0.5110(8) 1.1170(7)
Cl2A Cl -0.6874(3) -0.5132(2) 1.2684(2)
Cl1A Cl -0.9262(3) 0.4591(3) 0.73348(19)
O3A O -1.3907(7) 0.6556(7) 1.2213(6)
O4A O -1.3142(7) 0.8250(7) 1.1142(6)
C13A C -1.1452(8) 0.5905(8) 1.0707(6)
C14A C -0.9642(10) 0.4814(8) 0.8817(7)
C15A C -1.1077(9) 0.5719(8) 0.9514(7)
H17A H -1.1796 0.6206 0.9175
C16A C -1.2990(8) 0.6961(9) 1.1417(7)
Cd1A Cd -1.54939(6) 0.97494(5) 1.18708(5)
N1A N -1.7894(7) 0.9962(7) 1.1930(5)
C1A C -2.1888(10) 0.9840(9) 1.2963(7)
H1A H -2.1674 0.8829 1.2971
H2A H -2.2509 1.0235 1.2484
N2A N -2.4074(8) 1.0545(7) 1.6161(6)
N3A N -2.4255(8) 1.1844(7) 1.5734(6)
H3A H -2.4723 1.2604 1.6163
C2A C -2.0385(9) 1.0108(9) 1.2363(6)
N4A N -1.8451(8) 1.0813(7) 1.1155(6)
H4A H -1.7929 1.1237 1.0590
C3A C -2.3153(9) 0.9644(9) 1.5228(7)
C4A C -1.9039(8) 0.9555(8) 1.2681(6)
C5A C -2.0791(12) 1.1752(10) 1.0638(8)
H5A H -2.0158 1.2196 1.0017
H6A H -2.1086 1.1139 1.0301
H7A H -2.1704 1.2461 1.1128
C6A C -2.3599(8) 1.1806(9) 1.4527(7)
C7A C -2.3646(14) 1.3102(11) 1.3849(9)
H8A H -2.3158 1.2868 1.3019
H9A H -2.4705 1.3689 1.4029
H10A H -2.3105 1.3597 1.4053
C8A C -1.9884(10) 1.0903(9) 1.1379(6)
C9A C -2.2671(11) 0.8082(9) 1.5370(8)
H11A H -2.3013 0.7870 1.6195
H12A H -2.3128 0.7684 1.4988
H13A H -2.1562 0.7687 1.5016
C10A C -1.8861(11) 0.8586(10) 1.3661(7)
H14A H -1.7848 0.8392 1.3673
H15A H -1.9634 0.9019 1.4400
H16A H -1.8986 0.7721 1.3542
C12A C -2.2841(8) 1.0393(9) 1.4184(7)
Cd1_2 Cd -2.45061(6) 1.02506(5) 1.81292(5)
Cd1_3 Cd -0.45061(6) -0.97494(5) 0.81292(5)
Cd1A_2 Cd -0.54939(6) -1.02506(5) 1.18708(5)
Cd1A_3 Cd -0.54939(6) -0.02506(5) 1.18708(5)
Cd1A_4 Cd 0.45061(6) -0.02506(5) 0.18708(5)
N2_2 N -1.5926(8) 0.9455(7) 1.3839(6)
N2A_2 N -0.4074(8) 0.0545(7) 0.6161(6)
O1_2 O -1.4760(10) 0.8579(7) 0.9658(6)
O1A_2 O -1.5240(10) 1.1421(7) 1.0342(6)
O1A_3 O -0.5240(10) 0.1421(7) 1.0342(6)
O2A_2 O -1.4872(10) 1.1823(7) 1.1878(6)
loop_
_geom_bond_atom_site_label_1
_geom_bond_atom_site_label_2
_geom_bond_site_symmetry_1
_geom_bond_site_symmetry_2
Cd1 N1 1_555 1_555
N1 N4 1_555 1_555
C1 H1 1_555 1_555
H2 C1 1_555 1_555
N2 N3 1_555 1_555
N3 H3 1_555 1_555
C2 C1 1_555 1_555
N4 H4 1_555 1_555
O1 Cd1 1_555 1_555
C3 N2 1_555 1_555
C4 N1 1_555 1_555
C5 H5 1_555 1_555
H6 C5 1_555 1_555
H7 C5 1_555 1_555
C6 N3 1_555 1_555
C7 C6 1_555 1_555
H8 C7 1_555 1_555
H9 C7 1_555 1_555
H10 C7 1_555 1_555
C8 C2 1_555 1_555
O2 Cd1 1_555 1_555
C9 C3 1_555 1_555
H11 C9 1_555 1_555
H12 C9 1_555 1_555
H13 C9 1_555 1_555
C10 C4 1_555 1_555
H14 C10 1_555 1_555
H15 C10 1_555 1_555
H16 C10 1_555 1_555
C11 O1 1_555 1_555
C12 C1 1_555 1_555
Cl1 C14 1_555 1_555
O3 C16 1_555 1_555
O4 Cd1 1_555 1_555
C13 C15 1_555 1_555
C14 C15 1_555 1_555
C15 H17 1_555 1_555
C16 O4 1_555 1_555
C17 C11 1_555 1_555
C18 C17 1_555 1_555
H18 C18 1_555 1_555
C19 C17 1_555 1_555
Cl2 C19 1_555 1_555
O1A C11A 1_555 1_555
O2A C11A 1_555 1_555
C11A C17A 1_555 1_555
C17A C18A 1_555 1_555
C18A C19 1_555 1_555
H18A C18A 1_555 1_555
C19A C18 1_555 1_555
Cl2A C19A 1_555 1_555
Cl1A C14A 1_555 1_555
O3A C16A 1_555 1_555
O4A C16A 1_555 1_555
C13A C14 1_555 1_555
C14A C13 1_555 1_555
C15A C13A 1_555 1_555
H17A C15A 1_555 1_555
C16A C13A 1_555 1_555
Cd1A O4A 1_555 1_555
N1A Cd1A 1_555 1_555
C1A H1A 1_555 1_555
H2A C1A 1_555 1_555
N2A N3A 1_555 1_555
N3A H3A 1_555 1_555
C2A C1A 1_555 1_555
N4A N1A 1_555 1_555
H4A N4A 1_555 1_555
C3A N2A 1_555 1_555
C4A N1A 1_555 1_555
C5A H5A 1_555 1_555
H6A C5A 1_555 1_555
H7A C5A 1_555 1_555
C6A N3A 1_555 1_555
C7A C6A 1_555 1_555
H8A C7A 1_555 1_555
H9A C7A 1_555 1_555
H10A C7A 1_555 1_555
C8A C2A 1_555 1_555
C9A C3A 1_555 1_555
H11A C9A 1_555 1_555
H12A C9A 1_555 1_555
H13A C9A 1_555 1_555
C10A C4A 1_555 1_555
H14A C10A 1_555 1_555
H15A C10A 1_555 1_555
H16A C10A 1_555 1_555
C12A C1A 1_555 1_555
Cd1_2 N2A 1_555 1_555
Cd1_3 O1A 1_555 1_555
Cd1A_2 O1A 1_555 1_555
Cd1A_3 O1 1_555 1_555
Cd1A_4 N2 1_555 1_555
N2_2 Cd1A 1_555 1_555
N2A_2 Cd1 1_555 1_555
O1_2 Cd1A 1_555 1_555
O1A_2 Cd1A 1_555 1_555
O1A_3 Cd1 1_555 1_555
O2A_2 Cd1A 1_555 1_555
C2 C4 1_555 1_555
N4 C8 1_555 1_555
C3 C12 1_555 1_555
C5 C8 1_555 1_555
C6 C12 1_555 1_555
O2 C11 1_555 1_555
C13 C16 1_555 1_555
O2A Cd1A_2 1_555 1_555
C17A C19A 1_555 1_555
C14A C15A 1_555 1_555
C2A C4A 1_555 1_555
N4A C8A 1_555 1_555
C3A C12A 1_555 1_555
C5A C8A 1_555 1_555
C6A C12A 1_555 1_555
Cd1A_3 O1A_3 1_555 1_555

#END
