
#######################################################################
#
#                 Cambridge Crystallographic Data Centre
#                                CCDC 
#
#######################################################################
#
# If this CIF has been generated from an entry in the Cambridge 
# Structural Database, then it will include bibliographic, chemical, 
# crystal, experimental, refinement or atomic coordinate data resulting 
# from the CCDC's data processing and validation procedures.
#
#######################################################################

data_QIMBEV
_symmetry_cell_setting           monoclinic
_symmetry_space_group_name_H-M   'P 2/c'
_symmetry_Int_Tables_number      13
_space_group_name_Hall           '-P 2yc'
loop_
_symmetry_equiv_pos_site_id
_symmetry_equiv_pos_as_xyz
1 x,y,z
2 -x,y,1/2-z
3 -x,-y,-z
4 x,-y,1/2+z
_cell_length_a                   20.3721(8)
_cell_length_b                   9.4647(2)
_cell_length_c                   17.2551(7)
_cell_angle_alpha                90
_cell_angle_beta                 97.434(3)
_cell_angle_gamma                90
_cell_volume                     3299.09
loop_
_atom_site_label
_atom_site_type_symbol
_atom_site_fract_x
_atom_site_fract_y
_atom_site_fract_z
Cd1 Cd 0.5000 0.54739(4) 0.2500
Cd2 Cd 1.0000 0.71392(4) 0.2500
O1 O 0.88623(13) 0.7188(3) 0.19166(16)
N1 N 1.05396(17) 1.5195(3) 0.39285(19)
H1 H 1.0861 1.5790 0.3958
O2 O 0.57989(14) 0.5725(3) 0.16705(17)
O3 O 0.76637(15) 0.6404(3) -0.07194(16)
H2 H 0.7535 0.5694 -0.0966
N2 N 0.53605(16) 1.3298(3) 0.39379(19)
H3 H 0.5063 1.3742 0.4153
N3 N 0.91017(15) 0.8906(3) 0.35080(18)
H4 H 0.8813 0.8266 0.3359
N4 N 0.58316(18) 0.7017(3) 0.4079(2)
H5 H 0.5727 0.6301 0.4344
O4 O 0.81013(15) 0.7298(3) 0.27320(16)
O5 O 0.56487(14) 0.4720(3) 0.04948(17)
C1 C 0.77512(18) 0.6777(4) 0.1388(2)
C2 C 0.61059(18) 1.1727(4) 0.3739(2)
C3 C 0.56714(19) 1.2139(4) 0.4239(2)
C4 C 0.71210(18) 0.6342(4) 0.1515(2)
H6 H 0.7003 0.6355 0.2018
C5 C 0.65717(19) 1.0492(4) 0.3837(2)
H7 H 0.6847 1.0578 0.4337
H8 H 0.6860 1.0536 0.3432
C6 C 0.89807(19) 1.0038(4) 0.3948(2)
N5 N 0.97246(16) 0.8902(3) 0.33329(18)
C7 C 0.59841(18) 0.5397(4) 0.1029(2)
C8 C 0.62397(19) 0.9070(4) 0.3800(2)
C9 C 0.79154(18) 0.6805(4) 0.0633(2)
H9 H 0.8329 0.7135 0.0544
C10 C 0.5906(2) 0.8422(4) 0.3122(2)
C11 C 0.82700(18) 0.7113(4) 0.2068(2)
N6 N 0.99877(17) 1.5297(3) 0.3403(2)
C12 C 0.68442(17) 0.5861(4) 0.0140(2)
H10 H 0.6548 0.5523 -0.0274
C13 C 0.95595(19) 1.0802(4) 0.4071(2)
C14 C 0.9938(2) 1.3395(4) 0.4182(2)
N7 N 0.56541(17) 0.7177(3) 0.3295(2)
C15 C 1.0533(2) 1.4066(4) 0.4400(2)
C16 C 0.74686(19) 0.6345(4) 0.0010(2)
C17 C 0.6033(2) 1.2728(4) 0.3132(2)
C18 C 1.00081(19) 1.0059(4) 0.3669(2)
C19 C 0.66666(18) 0.5889(4) 0.0893(2)
C20 C 0.9679(2) 1.2108(4) 0.4567(2)
H11 H 0.9991 1.1872 0.5021
H12 H 0.9266 1.2364 0.4754
C21 C 0.5554(2) 1.1560(5) 0.5019(3)
H13 H 0.5196 1.2065 0.5204
H14 H 0.5948 1.1668 0.5384
H15 H 0.5442 1.0576 0.4966
C22 C 0.9615(2) 1.4184(4) 0.3552(2)
C23 C 0.5846(3) 0.8984(5) 0.2301(3)
H16 H 0.5594 0.8335 0.1954
H17 H 0.6280 0.9094 0.2148
H18 H 0.5627 0.9884 0.2279
C24 C 0.6479(3) 0.8157(5) 0.5242(3)
H19 H 0.6353 0.7311 0.5493
H20 H 0.6311 0.8965 0.5489
H21 H 0.6953 0.8211 0.5286
C25 C 0.6194(2) 0.8129(4) 0.4390(2)
C26 C 0.8968(2) 1.3899(5) 0.3072(3)
H22 H 0.8879 1.4623 0.2683
H23 H 0.8623 1.3893 0.3403
H24 H 0.8983 1.2996 0.2821
C27 C 1.0711(2) 1.0422(5) 0.3594(3)
H25 H 1.0893 0.9719 0.3283
H26 H 1.0963 1.0452 0.4104
H27 H 1.0728 1.1329 0.3348
N8 N 0.55664(17) 1.3690(3) 0.3258(2)
C28 C 0.6391(3) 1.2806(5) 0.2432(3)
H28 H 0.6233 1.3604 0.2118
H29 H 0.6313 1.1956 0.2130
H30 H 0.6857 1.2908 0.2597
C29 C 0.8320(2) 1.0258(5) 0.4199(4)
H31 H 0.8029 0.9509 0.3998
H32 H 0.8143 1.1147 0.4002
H33 H 0.8360 1.0260 0.4760
C30 C 1.1100(2) 1.3745(5) 0.5006(3)
H34 H 1.1436 1.4454 0.4995
H35 H 1.1280 1.2836 0.4904
H36 H 1.0951 1.3737 0.5512
O1A O 0.11377(13) 0.7188(3) 0.30834(16)
O2A O 0.42011(14) 0.5725(3) 0.33295(17)
O3A O 0.23363(15) 0.6404(3) 0.57194(16)
H2A H 0.2465 0.5694 0.5966
N2A N 0.46395(16) 1.3298(3) 0.10621(19)
H3A H 0.4937 1.3742 0.0847
N4A N 0.41684(18) 0.7017(3) 0.0921(2)
H5A H 0.4273 0.6301 0.0656
O4A O 0.18987(15) 0.7298(3) 0.22680(16)
O5A O 0.43513(14) 0.4720(3) 0.45052(17)
C1A C 0.22488(18) 0.6777(4) 0.3612(2)
C2A C 0.38941(18) 1.1727(4) 0.1261(2)
C3A C 0.43286(19) 1.2139(4) 0.0761(2)
C4A C 0.28790(18) 0.6342(4) 0.3485(2)
H6A H 0.2997 0.6355 0.2982
C5A C 0.34283(19) 1.0492(4) 0.1163(2)
H7A H 0.3153 1.0578 0.0663
H8A H 0.3140 1.0536 0.1568
C7A C 0.40159(18) 0.5397(4) 0.3971(2)
C8A C 0.37603(19) 0.9070(4) 0.1200(2)
C9A C 0.20846(18) 0.6805(4) 0.4367(2)
H9A H 0.1671 0.7135 0.4456
C10A C 0.4094(2) 0.8422(4) 0.1878(2)
C11A C 0.17300(18) 0.7113(4) 0.2932(2)
C12A C 0.31558(17) 0.5861(4) 0.4860(2)
H10A H 0.3452 0.5523 0.5274
N7A N 0.43459(17) 0.7177(3) 0.1705(2)
C16A C 0.25314(19) 0.6345(4) 0.4990(2)
C17A C 0.3967(2) 1.2728(4) 0.1868(2)
C19A C 0.33334(18) 0.5889(4) 0.4107(2)
C21A C 0.4446(2) 1.1560(5) -0.0019(3)
H13A H 0.4804 1.2065 -0.0204
H14A H 0.4052 1.1668 -0.0384
H15A H 0.4558 1.0576 0.0034
C23A C 0.4154(3) 0.8984(5) 0.2699(3)
H16A H 0.4406 0.8335 0.3046
H17A H 0.3720 0.9094 0.2852
H18A H 0.4373 0.9884 0.2721
C24A C 0.3521(3) 0.8157(5) -0.0242(3)
H19A H 0.3647 0.7311 -0.0493
H20A H 0.3689 0.8965 -0.0489
H21A H 0.3047 0.8211 -0.0286
C25A C 0.3806(2) 0.8129(4) 0.0610(2)
N8A N 0.44336(17) 1.3690(3) 0.1742(2)
C28A C 0.3609(3) 1.2806(5) 0.2568(3)
H28A H 0.3767 1.3604 0.2882
H29A H 0.3687 1.1956 0.2870
H30A H 0.3143 1.2908 0.2403
N1A N 0.94604(17) 1.5195(3) 0.10715(19)
H1A H 0.9139 1.5790 0.1042
N3A N 1.08983(15) 0.8906(3) 0.14920(18)
H4A H 1.1187 0.8266 0.1641
C6A C 1.10193(19) 1.0038(4) 0.1052(2)
N5A N 1.02754(16) 0.8902(3) 0.16671(18)
N6A N 1.00123(17) 1.5297(3) 0.1597(2)
C13A C 1.04405(19) 1.0802(4) 0.0929(2)
C14A C 1.0062(2) 1.3395(4) 0.0818(2)
C15A C 0.9467(2) 1.4066(4) 0.0600(2)
C18A C 0.99919(19) 1.0059(4) 0.1331(2)
C20A C 1.0321(2) 1.2108(4) 0.0433(2)
H11A H 1.0009 1.1872 -0.0021
H12A H 1.0734 1.2364 0.0246
C22A C 1.0385(2) 1.4184(4) 0.1448(2)
C26A C 1.1032(2) 1.3899(5) 0.1928(3)
H22A H 1.1121 1.4623 0.2317
H23A H 1.1377 1.3893 0.1597
H24A H 1.1017 1.2996 0.2179
C27A C 0.9289(2) 1.0422(5) 0.1406(3)
H25A H 0.9107 0.9719 0.1717
H26A H 0.9037 1.0452 0.0896
H27A H 0.9272 1.1329 0.1652
C29A C 1.1680(2) 1.0258(5) 0.0801(4)
H31A H 1.1971 0.9509 0.1002
H32A H 1.1857 1.1147 0.0998
H33A H 1.1640 1.0260 0.0240
C30A C 0.8900(2) 1.3745(5) -0.0006(3)
H34A H 0.8564 1.4454 0.0005
H35A H 0.8720 1.2836 0.0096
H36A H 0.9049 1.3737 -0.0512
Cd1_2 Cd 0.5000 1.54739(4) 0.2500
Cd2_2 Cd 0.0000 0.71392(4) 0.2500
Cd2_3 Cd 1.0000 1.71392(4) 0.2500
O1A_2 O 1.11377(13) 0.7188(3) 0.30834(16)
N6_2 N 0.99877(17) 0.5297(3) 0.3403(2)
N6A_2 N 1.00123(17) 0.5297(3) 0.1597(2)
N8_2 N 0.55664(17) 0.3690(3) 0.3258(2)
N8A_2 N 0.44336(17) 0.3690(3) 0.1742(2)
O6 O 0.7210(2) 0.4062(5) -0.1443(3)
H37 H 0.754(3) 0.369(6) -0.173(3)
H38 H 0.683(4) 0.376(7) -0.169(4)
loop_
_geom_bond_atom_site_label_1
_geom_bond_atom_site_label_2
_geom_bond_site_symmetry_1
_geom_bond_site_symmetry_2
Cd1 O2 1_555 1_555
Cd2 O1 1_555 1_555
O1 C11 1_555 1_555
N1 H1 1_555 1_555
O2 C7 1_555 1_555
O3 H2 1_555 1_555
N2 H3 1_555 1_555
N3 H4 1_555 1_555
N4 H5 1_555 1_555
O4 C11 1_555 1_555
O5 C7 1_555 1_555
C1 C4 1_555 1_555
C2 C3 1_555 1_555
C3 N2 1_555 1_555
C4 H6 1_555 1_555
C5 C2 1_555 1_555
H7 C5 1_555 1_555
H8 C5 1_555 1_555
C6 N3 1_555 1_555
N5 Cd2 1_555 1_555
C7 C19 1_555 1_555
C8 C5 1_555 1_555
C9 C1 1_555 1_555
H9 C9 1_555 1_555
C10 C8 1_555 1_555
C11 C1 1_555 1_555
N6 N1 1_555 1_555
C12 H10 1_555 1_555
C13 C6 1_555 1_555
C14 C15 1_555 1_555
N7 Cd1 1_555 1_555
C15 N1 1_555 1_555
C16 O3 1_555 1_555
C17 C2 1_555 1_555
C18 N5 1_555 1_555
C19 C4 1_555 1_555
C20 C13 1_555 1_555
H11 C20 1_555 1_555
H12 C20 1_555 1_555
C21 C3 1_555 1_555
H13 C21 1_555 1_555
H14 C21 1_555 1_555
H15 C21 1_555 1_555
C22 N6 1_555 1_555
C23 C10 1_555 1_555
H16 C23 1_555 1_555
H17 C23 1_555 1_555
H18 C23 1_555 1_555
C24 H19 1_555 1_555
H20 C24 1_555 1_555
H21 C24 1_555 1_555
C25 N4 1_555 1_555
C26 C22 1_555 1_555
H22 C26 1_555 1_555
H23 C26 1_555 1_555
H24 C26 1_555 1_555
C27 C18 1_555 1_555
H25 C27 1_555 1_555
H26 C27 1_555 1_555
H27 C27 1_555 1_555
N8 N2 1_555 1_555
C28 C17 1_555 1_555
H28 C28 1_555 1_555
H29 C28 1_555 1_555
H30 C28 1_555 1_555
C29 C6 1_555 1_555
H31 C29 1_555 1_555
H32 C29 1_555 1_555
H33 C29 1_555 1_555
C30 C15 1_555 1_555
H34 C30 1_555 1_555
H35 C30 1_555 1_555
H36 C30 1_555 1_555
O6 H37 1_555 1_555
H38 O6 1_555 1_555
O1A C11A 1_555 1_555
O2A Cd1 1_555 1_555
O3A H2A 1_555 1_555
N2A H3A 1_555 1_555
N4A H5A 1_555 1_555
O4A C11A 1_555 1_555
O5A C7A 1_555 1_555
C1A C4A 1_555 1_555
C2A C3A 1_555 1_555
C3A N2A 1_555 1_555
C4A H6A 1_555 1_555
C5A C2A 1_555 1_555
H7A C5A 1_555 1_555
H8A C5A 1_555 1_555
C7A O2A 1_555 1_555
C8A C5A 1_555 1_555
C9A C1A 1_555 1_555
H9A C9A 1_555 1_555
C10A C8A 1_555 1_555
C11A C1A 1_555 1_555
C12A H10A 1_555 1_555
N7A Cd1 1_555 1_555
C16A O3A 1_555 1_555
C17A C2A 1_555 1_555
C19A C4A 1_555 1_555
C21A C3A 1_555 1_555
H13A C21A 1_555 1_555
H14A C21A 1_555 1_555
H15A C21A 1_555 1_555
C23A C10A 1_555 1_555
H16A C23A 1_555 1_555
H17A C23A 1_555 1_555
H18A C23A 1_555 1_555
C24A H19A 1_555 1_555
H20A C24A 1_555 1_555
H21A C24A 1_555 1_555
C25A N4A 1_555 1_555
N8A N2A 1_555 1_555
C28A C17A 1_555 1_555
H28A C28A 1_555 1_555
H29A C28A 1_555 1_555
H30A C28A 1_555 1_555
N1A H1A 1_555 1_555
N3A H4A 1_555 1_555
C6A N3A 1_555 1_555
N5A Cd2 1_555 1_555
N6A N1A 1_555 1_555
C13A C6A 1_555 1_555
C14A C15A 1_555 1_555
C15A N1A 1_555 1_555
C18A N5A 1_555 1_555
C20A C13A 1_555 1_555
H11A C20A 1_555 1_555
H12A C20A 1_555 1_555
C22A N6A 1_555 1_555
C26A C22A 1_555 1_555
H22A C26A 1_555 1_555
H23A C26A 1_555 1_555
H24A C26A 1_555 1_555
C27A C18A 1_555 1_555
H25A C27A 1_555 1_555
H26A C27A 1_555 1_555
H27A C27A 1_555 1_555
C29A C6A 1_555 1_555
H31A C29A 1_555 1_555
H32A C29A 1_555 1_555
H33A C29A 1_555 1_555
C30A C15A 1_555 1_555
H34A C30A 1_555 1_555
H35A C30A 1_555 1_555
H36A C30A 1_555 1_555
Cd1_2 N8 1_555 1_555
Cd2_2 O1A 1_555 1_555
Cd2_3 N6 1_555 1_555
O1A_2 Cd2 1_555 1_555
N6_2 Cd2 1_555 1_555
N6A_2 Cd2 1_555 1_555
N8_2 Cd1 1_555 1_555
N8A_2 Cd1 1_555 1_555
N3 N5 1_555 1_555
N4 N7 1_555 1_555
C8 C25 1_555 1_555
C9 C16 1_555 1_555
C10 N7 1_555 1_555
C12 C16 1_555 1_555
C12 C19 1_555 1_555
C13 C18 1_555 1_555
C14 C20 1_555 1_555
C14 C22 1_555 1_555
C17 N8 1_555 1_555
C24 C25 1_555 1_555
N4A N7A 1_555 1_555
C7A C19A 1_555 1_555
C8A C25A 1_555 1_555
C9A C16A 1_555 1_555
C10A N7A 1_555 1_555
C12A C16A 1_555 1_555
C12A C19A 1_555 1_555
C17A N8A 1_555 1_555
C24A C25A 1_555 1_555
N8A Cd1_2 1_555 1_555
N3A N5A 1_555 1_555
N6A Cd2_3 1_555 1_555
C13A C18A 1_555 1_555
C14A C20A 1_555 1_555
C14A C22A 1_555 1_555

#END
