
#######################################################################
#
#                 Cambridge Crystallographic Data Centre
#                                CCDC 
#
#######################################################################
#
# If this CIF has been generated from an entry in the Cambridge 
# Structural Database, then it will include bibliographic, chemical, 
# crystal, experimental, refinement or atomic coordinate data resulting 
# from the CCDC's data processing and validation procedures.
#
#######################################################################

data_QIMBAR
_symmetry_cell_setting           orthorhombic
_symmetry_space_group_name_H-M   'F d d d'
_symmetry_Int_Tables_number      70
_space_group_name_Hall           '-F 2uv 2vw'
loop_
_symmetry_equiv_pos_site_id
_symmetry_equiv_pos_as_xyz
1 x,y,z
2 3/4-x,3/4-y,z
3 3/4-x,y,3/4-z
4 x,3/4-y,3/4-z
5 x,1/2+y,1/2+z
6 3/4-x,1/4-y,1/2+z
7 3/4-x,1/2+y,1/4-z
8 x,1/4-y,1/4-z
9 1/2+x,y,1/2+z
10 1/4-x,3/4-y,1/2+z
11 1/4-x,y,1/4-z
12 1/2+x,3/4-y,1/4-z
13 1/2+x,1/2+y,z
14 1/4-x,1/4-y,z
15 1/4-x,1/2+y,3/4-z
16 1/2+x,1/4-y,3/4-z
17 -x,-y,-z
18 1/4+x,1/4+y,-z
19 1/4+x,-y,1/4+z
20 -x,1/4+y,1/4+z
21 -x,1/2-y,1/2-z
22 1/4+x,3/4+y,1/2-z
23 1/4+x,1/2-y,3/4+z
24 -x,3/4+y,3/4+z
25 1/2-x,-y,1/2-z
26 3/4+x,1/4+y,1/2-z
27 3/4+x,-y,3/4+z
28 1/2-x,1/4+y,3/4+z
29 1/2-x,1/2-y,-z
30 3/4+x,3/4+y,-z
31 3/4+x,1/2-y,1/4+z
32 1/2-x,3/4+y,1/4+z
_cell_length_a                   12.412(5)
_cell_length_b                   16.372(7)
_cell_length_c                   31.497(13)
_cell_angle_alpha                90
_cell_angle_beta                 90
_cell_angle_gamma                90
_cell_volume                     6400.48
loop_
_atom_site_label
_atom_site_type_symbol
_atom_site_fract_x
_atom_site_fract_y
_atom_site_fract_z
Cu1 Cu 0.3750 0.3750 0.679761(12)
N1 N 0.59838(17) 0.44835(13) 0.67987(7)
H1 H 0.6199 0.4152 0.6605
N2 N 0.50161(16) 0.44241(12) 0.70001(7)
C1 C 0.5945(2) 0.55112(14) 0.72485(7)
C2 C 0.49855(19) 0.50533(15) 0.72747(8)
C3 C 0.6560(2) 0.51200(15) 0.69391(8)
C4 C 0.4044(2) 0.51843(19) 0.75564(10)
H2 H 0.3512 0.4772 0.7502
H3 H 0.3740 0.5713 0.7502
H4 H 0.4269 0.5153 0.7847
C5 C 0.7648(2) 0.53161(19) 0.67625(10)
H5 H 0.7839 0.4916 0.6553
H6 H 0.8170 0.5310 0.6987
H7 H 0.7632 0.5848 0.6634
O1 O 0.45232(15) 0.27585(11) 0.66817(6)
O2 O 0.51303(15) 0.33532(10) 0.60955(6)
C6 C 0.56854(19) 0.19859(15) 0.62673(7)
C7 C 0.50769(18) 0.27704(14) 0.63415(8)
C8 C 0.5140(3) 0.1250 0.6250
H8 H 0.4391 0.1250 0.6250
C9 C 0.6250 0.6250 0.75043(12)
H9 H 0.681(3) 0.611(2) 0.7692(12)
N1M N 0.65162(17) 0.80165(13) 0.67987(7)
H1M H 0.6301 0.8348 0.6605
N2M N 0.74839(16) 0.80759(12) 0.70001(7)
C1M C 0.6555(2) 0.69888(14) 0.72485(7)
C2M C 0.75145(19) 0.74467(15) 0.72747(8)
C3M C 0.5940(2) 0.73800(15) 0.69391(8)
C4M C 0.8456(2) 0.73157(19) 0.75564(10)
H2M H 0.8988 0.7728 0.7502
H3M H 0.8760 0.6787 0.7502
H4M H 0.8231 0.7347 0.7847
C5M C 0.4852(2) 0.71839(19) 0.67625(10)
H5M H 0.4661 0.7584 0.6553
H6M H 0.4330 0.7190 0.6987
H7M H 0.4868 0.6652 0.6634
H9M H 0.569(3) 0.639(2) 0.7692(12)
O1G O 0.45232(15) -0.02585(11) 0.58183(6)
O2G O 0.51303(15) -0.08532(10) 0.64045(6)
C6G C 0.56854(19) 0.05141(15) 0.62327(7)
C7G C 0.50769(18) -0.02704(14) 0.61585(8)
O1J O 0.79768(15) 0.27585(11) 0.58183(6)
O2J O 0.73697(15) 0.33532(10) 0.64045(6)
C6J C 0.68146(19) 0.19859(15) 0.62327(7)
C7J C 0.74231(18) 0.27704(14) 0.61585(8)
C8J C 0.7360(3) 0.1250 0.6250
H8J H 0.8109 0.1250 0.6250
O1M O 0.79768(15) -0.02585(11) 0.66817(6)
O2M O 0.73697(15) -0.08532(10) 0.60955(6)
C6M C 0.68146(19) 0.05141(15) 0.62673(7)
C7M C 0.74231(18) -0.02704(14) 0.63415(8)
Cu1F Cu 0.3750 -0.1250 0.570239(12)
N1A N 0.15162(17) 0.30165(13) 0.67987(7)
H1A H 0.1301 0.3348 0.6605
N2A N 0.24839(16) 0.30759(12) 0.70001(7)
C1A C 0.1555(2) 0.19888(14) 0.72485(7)
C2A C 0.25145(19) 0.24467(15) 0.72747(8)
C3A C 0.0940(2) 0.23800(15) 0.69391(8)
C4A C 0.3456(2) 0.23157(19) 0.75564(10)
H2A H 0.3988 0.2728 0.7502
H3A H 0.3760 0.1787 0.7502
H4A H 0.3231 0.2347 0.7847
C5A C -0.0148(2) 0.21839(19) 0.67625(10)
H5A H -0.0339 0.2584 0.6553
H6A H -0.0670 0.2190 0.6987
H7A H -0.0132 0.1652 0.6634
C9A C 0.1250 0.1250 0.75043(12)
H9A H 0.069(3) 0.139(2) 0.7692(12)
N1L N 0.09838(17) -0.05165(13) 0.67987(7)
H1L H 0.1199 -0.0848 0.6605
N2L N 0.00161(16) -0.05759(12) 0.70001(7)
C1L C 0.0945(2) 0.05112(14) 0.72485(7)
C2L C -0.00145(19) 0.00533(15) 0.72747(8)
C3L C 0.1560(2) 0.01200(15) 0.69391(8)
C4L C -0.0956(2) 0.01843(19) 0.75564(10)
H2L H -0.1488 -0.0228 0.7502
H3L H -0.1260 0.0713 0.7502
H4L H -0.0731 0.0153 0.7847
C5L C 0.2648(2) 0.03161(19) 0.67625(10)
H5L H 0.2839 -0.0084 0.6553
H6L H 0.3170 0.0310 0.6987
H7L H 0.2632 0.0848 0.6634
H9L H 0.181(3) 0.111(2) 0.7692(12)
Cu1J Cu 0.8750 0.3750 0.570239(12)
Cu1L Cu -0.1250 -0.1250 0.679761(12)
Cu1L_2 Cu 0.8750 -0.1250 0.679761(12)
Cu1L_3 Cu 0.8750 0.8750 0.679761(12)
N2F N 0.24839(16) -0.05759(12) 0.54999(7)
N2G N 0.50161(16) -0.19241(12) 0.54999(7)
O1A O 0.29768(15) 0.47415(11) 0.66817(6)
O1F O 0.29768(15) -0.22415(11) 0.58183(6)
loop_
_geom_bond_atom_site_label_1
_geom_bond_atom_site_label_2
_geom_bond_site_symmetry_1
_geom_bond_site_symmetry_2
Cu1 N2 1_555 1_555
N1 H1 1_555 1_555
N2 N1 1_555 1_555
C1 C2 1_555 1_555
C2 N2 1_555 1_555
C3 N1 1_555 1_555
C4 C2 1_555 1_555
H2 C4 1_555 1_555
H3 C4 1_555 1_555
H4 C4 1_555 1_555
C5 C3 1_555 1_555
H5 C5 1_555 1_555
H6 C5 1_555 1_555
H7 C5 1_555 1_555
O1 Cu1 1_555 1_555
O2 C7 1_555 1_555
C6 C7 1_555 1_555
C7 O1 1_555 1_555
C8 C6 1_555 1_555
H8 C8 1_555 1_555
C9 C1 1_555 1_555
H9 C9 1_555 1_555
N1M H1M 1_555 1_555
N2M N1M 1_555 1_555
C1M C9 1_555 1_555
C2M N2M 1_555 1_555
C3M N1M 1_555 1_555
C4M C2M 1_555 1_555
H2M C4M 1_555 1_555
H3M C4M 1_555 1_555
H4M C4M 1_555 1_555
C5M C3M 1_555 1_555
H5M C5M 1_555 1_555
H6M C5M 1_555 1_555
H7M C5M 1_555 1_555
H9M C9 1_555 1_555
O1G C7G 1_555 1_555
O2G C7G 1_555 1_555
C6G C8 1_555 1_555
C7G C6G 1_555 1_555
O1J C7J 1_555 1_555
O2J C7J 1_555 1_555
C6J C6 1_555 1_555
C7J C6J 1_555 1_555
C8J C6J 1_555 1_555
H8J C8J 1_555 1_555
O1M C7M 1_555 1_555
O2M C7M 1_555 1_555
C6M C6G 1_555 1_555
C7M C6M 1_555 1_555
Cu1F O1G 1_555 1_555
N1A H1A 1_555 1_555
N2A Cu1 1_555 1_555
C1A C2A 1_555 1_555
C2A N2A 1_555 1_555
C3A N1A 1_555 1_555
C4A C2A 1_555 1_555
H2A C4A 1_555 1_555
H3A C4A 1_555 1_555
H4A C4A 1_555 1_555
C5A C3A 1_555 1_555
H5A C5A 1_555 1_555
H6A C5A 1_555 1_555
H7A C5A 1_555 1_555
C9A C1A 1_555 1_555
H9A C9A 1_555 1_555
N1L H1L 1_555 1_555
N2L N1L 1_555 1_555
C1L C9A 1_555 1_555
C2L N2L 1_555 1_555
C3L N1L 1_555 1_555
C4L C2L 1_555 1_555
H2L C4L 1_555 1_555
H3L C4L 1_555 1_555
H4L C4L 1_555 1_555
C5L C3L 1_555 1_555
H5L C5L 1_555 1_555
H6L C5L 1_555 1_555
H7L C5L 1_555 1_555
H9L C9A 1_555 1_555
Cu1J O1J 1_555 1_555
Cu1L N2L 1_555 1_555
Cu1L_2 O1M 1_555 1_555
Cu1L_3 N2M 1_555 1_555
N2F Cu1F 1_555 1_555
N2G Cu1F 1_555 1_555
O1A Cu1 1_555 1_555
O1F Cu1F 1_555 1_555
C1 C3 1_555 1_555
C1M C2M 1_555 1_555
C1M C3M 1_555 1_555
C8J C6M 1_555 1_555
N1A N2A 1_555 1_555
C1A C3A 1_555 1_555
C1L C2L 1_555 1_555
C1L C3L 1_555 1_555

#END
