
#######################################################################
#
#                 Cambridge Crystallographic Data Centre
#                                CCDC 
#
#######################################################################
#
# If this CIF has been generated from an entry in the Cambridge 
# Structural Database, then it will include bibliographic, chemical, 
# crystal, experimental, refinement or atomic coordinate data resulting 
# from the CCDC's data processing and validation procedures.
#
#######################################################################

data_QIMFID
_symmetry_cell_setting           monoclinic
_symmetry_space_group_name_H-M   'P 21/n'
_symmetry_Int_Tables_number      14
_space_group_name_Hall           '-P 2yn'
loop_
_symmetry_equiv_pos_site_id
_symmetry_equiv_pos_as_xyz
1 x,y,z
2 1/2-x,1/2+y,1/2-z
3 -x,-y,-z
4 1/2+x,1/2-y,1/2+z
_cell_length_a                   10.90702(33)
_cell_length_b                   13.90035(16)
_cell_length_c                   11.54299(35)
_cell_angle_alpha                90
_cell_angle_beta                 106.89117(24)
_cell_angle_gamma                90
_cell_volume                     1674.55
loop_
_atom_site_label
_atom_site_type_symbol
_atom_site_fract_x
_atom_site_fract_y
_atom_site_fract_z
N1 N 0.01711(79) -0.84137(55) 0.74883(64)
C1 C 0.13048(52) -0.79200(35) 0.76303(34)
C2 C 0.13987(46) -0.68995(45) 0.75217(47)
C3 C 0.02650(58) -0.63768(27) 0.72373(44)
C4 C -0.09230(40) -0.78967(47) 0.72081(44)
C5 C -0.09096(43) -0.68944(41) 0.70857(42)
C6 C 0.01450(46) -0.52729(23) 0.70778(35)
N2 N -0.00940(77) -0.17610(68) 0.74375(88)
C7 C -0.03055(69) -0.20640(58) 0.84770(35)
C8 C -0.03570(53) -0.30473(35) 0.88418(60)
C9 C -0.01805(44) -0.37678(27) 0.80475(53)
C10 C 0.00659(66) -0.24034(39) 0.67073(42)
C11 C 0.00341(43) -0.33690(44) 0.69773(38)
C12 C -0.02002(35) -0.48846(41) 0.81656(36)
H1 H 0.2104(20) -0.8303(13) 0.7834(27)
H2 H 0.2272(21) -0.6599(13) 0.7646(31)
H3 H -0.1754(19) -0.8227(13) 0.7107(24)
H4 H -0.1724(18) -0.6512(13) 0.6875(21)
H5 H -0.0404(23) -0.1529(11) 0.9020(19)
H6 H -0.0536(24) -0.3238(11) 0.9676(25)
H7 H 0.0199(24) -0.2197(12) 0.5936(18)
H8 H 0.0146(24) -0.3853(11) 0.6411(18)
Mn1 Mn 0.00651(71) -0.99487(63) 0.76269(66)
S1 S 0.22678(77) -0.9890(12) 0.94180(76)
C13 C 0.15943(95) -1.0022(11) 1.04591(82)
N3 N 0.1076(12) -1.0110(16) 1.1108(11)
N4 N -0.1313(14) -0.9930(16) 0.3666(10)
C14 C -0.1609(10) -0.9944(11) 0.44941(77)
S2 S -0.19908(82) -0.9973(13) 0.57138(71)
H9 H -0.0582(18) -0.5124(29) 0.6308(18)
H10 H 0.1023(15) -0.4954(46) 0.7024(21)
H11 H 0.0494(18) -0.5139(27) 0.8964(18)
H12 H -0.1106(15) -0.5123(33) 0.8157(20)
Mn1B Mn -0.00651(71) -1.00513(63) 0.23731(66)
Mn1B_2 Mn -0.00651(71) -1.00513(63) 1.23731(66)
N3B N -0.1076(12) -0.9890(16) 0.8892(11)
N4B N 0.1313(14) -1.0070(16) 0.6334(10)
loop_
_geom_bond_atom_site_label_1
_geom_bond_atom_site_label_2
_geom_bond_site_symmetry_1
_geom_bond_site_symmetry_2
N1 C1 1_555 1_555
C1 C2 1_555 1_555
C2 C3 1_555 1_555
C3 C5 1_555 1_555
C4 N1 1_555 1_555
C5 C4 1_555 1_555
C6 C3 1_555 1_555
N2 C7 1_555 1_555
C7 C8 1_555 1_555
C8 C9 1_555 1_555
C9 C11 1_555 1_555
C10 N2 1_555 1_555
C11 C10 1_555 1_555
C12 C6 1_555 1_555
H1 C1 1_555 1_555
H2 C2 1_555 1_555
H3 C4 1_555 1_555
H4 C5 1_555 1_555
H5 C7 1_555 1_555
H6 C8 1_555 1_555
H7 C10 1_555 1_555
H8 C11 1_555 1_555
Mn1 N1 1_555 1_555
S1 Mn1 1_555 1_555
C13 S1 1_555 1_555
N3 C13 1_555 1_555
N4 C14 1_555 1_555
C14 S2 1_555 1_555
S2 Mn1 1_555 1_555
H9 C6 1_555 1_555
H10 C6 1_555 1_555
H11 C12 1_555 1_555
H12 C12 1_555 1_555
Mn1B N4 1_555 1_555
Mn1B_2 N3 1_555 1_555
N3B Mn1 1_555 1_555
N4B Mn1 1_555 1_555
C9 C12 1_555 1_555

#END
