
#######################################################################
#
#                 Cambridge Crystallographic Data Centre
#                                CCDC 
#
#######################################################################
#
# If this CIF has been generated from an entry in the Cambridge 
# Structural Database, then it will include bibliographic, chemical, 
# crystal, experimental, refinement or atomic coordinate data resulting 
# from the CCDC's data processing and validation procedures.
#
#######################################################################

data_QIMFOJ
_symmetry_cell_setting           monoclinic
_symmetry_space_group_name_H-M   'P 21/n'
_symmetry_Int_Tables_number      14
_space_group_name_Hall           '-P 2yn'
loop_
_symmetry_equiv_pos_site_id
_symmetry_equiv_pos_as_xyz
1 x,y,z
2 1/2-x,1/2+y,1/2-z
3 -x,-y,-z
4 1/2+x,1/2-y,1/2+z
_cell_length_a                   10.82274(34)
_cell_length_b                   13.60467(33)
_cell_length_c                   11.18996(34)
_cell_angle_alpha                90
_cell_angle_beta                 107.3279(19)
_cell_angle_gamma                90
_cell_volume                     1572.83
loop_
_atom_site_label
_atom_site_type_symbol
_atom_site_fract_x
_atom_site_fract_y
_atom_site_fract_z
N1 N 0.01557(44) -0.86032(31) 0.75093(39)
C1 C 0.12791(43) -0.80985(32) 0.74901(26)
C2 C 0.13808(39) -0.70952(34) 0.73601(28)
C3 C 0.02908(33) -0.65519(15) 0.72339(26)
C4 C -0.09235(38) -0.80380(34) 0.73814(28)
C5 C -0.08588(38) -0.70271(33) 0.72500(25)
C6 C 0.02431(24) -0.54248(14) 0.70362(21)
N2 N -0.01217(41) -0.17133(40) 0.75903(49)
C7 C 0.00091(35) -0.21287(34) 0.87652(38)
C8 C 0.00503(25) -0.31675(32) 0.89460(40)
C9 C -0.00456(31) -0.38616(15) 0.79599(34)
C10 C -0.02191(36) -0.23455(34) 0.66292(37)
C11 C -0.01809(26) -0.33662(35) 0.67972(36)
C12 C -0.00449(24) -0.50034(25) 0.80885(21)
H1 H 0.2133(16) -0.8410(12) 0.7579(19)
H2 H 0.2271(15) -0.6848(12) 0.7389(18)
H3 H -0.1757(15) -0.8324(12) 0.7406(17)
H4 H -0.1659(14) -0.6654(11) 0.7176(17)
H5 H 0.0080(19) -0.17115(98) 0.9529(16)
H6 H 0.0181(21) -0.33525(97) 0.9872(18)
H7 H -0.0301(17) -0.2054(11) 0.5804(15)
H8 H -0.0262(17) -0.37700(99) 0.6070(14)
Ni1 Ni 0.00464(42) -1.01205(25) 0.76388(39)
S1 S 0.21577(49) -1.01301(68) 0.93828(44)
C13 C 0.15527(55) -1.00778(58) 1.05047(45)
N3 N 0.11666(71) -1.00258(91) 1.12841(57)
N4 N 0.12523(72) -1.01309(86) 0.63397(57)
C14 C 0.15220(57) -0.99883(57) 0.54965(44)
S2 S 0.19617(50) -0.98039(64) 0.42751(44)
H9 H -0.0483(13) -0.5257(14) 0.6246(13)
H10 H 0.1121(11) -0.5155(18) 0.6975(14)
H11 H 0.0656(13) -0.5234(15) 0.8893(13)
H12 H -0.0953(12) -0.5253(16) 0.8093(14)
N2_2 N -0.01217(41) -1.17133(40) 0.75903(49)
Ni1B Ni -0.00464(42) -0.98795(25) 0.23612(39)
Ni1B_2 Ni -0.00464(42) -0.98795(25) 1.23612(39)
Ni1_2 Ni 0.00464(42) -0.01205(25) 0.76388(39)
N3B N -0.11666(71) -0.99742(91) 0.87159(57)
S2B S -0.19617(50) -1.01961(64) 0.57249(44)
loop_
_geom_bond_atom_site_label_1
_geom_bond_atom_site_label_2
_geom_bond_site_symmetry_1
_geom_bond_site_symmetry_2
N1 C1 1_555 1_555
C1 C2 1_555 1_555
C2 C3 1_555 1_555
C3 C5 1_555 1_555
C4 N1 1_555 1_555
C5 C4 1_555 1_555
C6 C3 1_555 1_555
N2 C7 1_555 1_555
C7 C8 1_555 1_555
C8 C9 1_555 1_555
C9 C11 1_555 1_555
C10 N2 1_555 1_555
C11 C10 1_555 1_555
C12 C6 1_555 1_555
H1 C1 1_555 1_555
H2 C2 1_555 1_555
H3 C4 1_555 1_555
H4 C5 1_555 1_555
H5 C7 1_555 1_555
H6 C8 1_555 1_555
H7 C10 1_555 1_555
H8 C11 1_555 1_555
Ni1 N1 1_555 1_555
S1 Ni1 1_555 1_555
C13 S1 1_555 1_555
N3 C13 1_555 1_555
N4 Ni1 1_555 1_555
C14 N4 1_555 1_555
S2 C14 1_555 1_555
H9 C6 1_555 1_555
H10 C6 1_555 1_555
H11 C12 1_555 1_555
H12 C12 1_555 1_555
N2_2 Ni1 1_555 1_555
Ni1B S2 1_555 1_555
Ni1B_2 N3 1_555 1_555
Ni1_2 N2 1_555 1_555
N3B Ni1 1_555 1_555
S2B Ni1 1_555 1_555
C9 C12 1_555 1_555

#END
