
#######################################################################
#
#                 Cambridge Crystallographic Data Centre
#                                CCDC 
#
#######################################################################
#
# If this CIF has been generated from an entry in the Cambridge 
# Structural Database, then it will include bibliographic, chemical, 
# crystal, experimental, refinement or atomic coordinate data resulting 
# from the CCDC's data processing and validation procedures.
#
#######################################################################

data_QIMFUP
_symmetry_cell_setting           monoclinic
_symmetry_space_group_name_H-M   'P 21/n'
_symmetry_Int_Tables_number      14
_space_group_name_Hall           '-P 2yn'
loop_
_symmetry_equiv_pos_site_id
_symmetry_equiv_pos_as_xyz
1 x,y,z
2 1/2-x,1/2+y,1/2-z
3 -x,-y,-z
4 1/2+x,1/2-y,1/2+z
_cell_length_a                   12.0008(10)
_cell_length_b                   6.5564(3)
_cell_length_c                   12.0353(10)
_cell_angle_alpha                90
_cell_angle_beta                 110.693(6)
_cell_angle_gamma                90
_cell_volume                     885.871
loop_
_atom_site_label
_atom_site_type_symbol
_atom_site_fract_x
_atom_site_fract_y
_atom_site_fract_z
Mn1 Mn 0.5000 0.0000 0.5000
N1 N 0.5024(2) 0.2159(4) 0.6383(2)
C1 C 0.5339(2) 0.3370(5) 0.7121(2)
S1 S 0.58117(7) 0.50764(16) 0.81701(7)
N2 N 0.64228(17) 0.1879(4) 0.45713(19)
C2 C 0.7096(2) 0.1089(5) 0.4006(3)
H1 H 0.6895 -0.0192 0.3661
C3 C 0.8073(2) 0.2059(5) 0.3901(3)
H2 H 0.8511 0.1434 0.3495
C4 C 0.8399(2) 0.3963(5) 0.4401(2)
C5 C 0.7678(2) 0.4803(5) 0.4949(3)
H3 H 0.7843 0.6102 0.5277
C6 C 0.6719(2) 0.3747(5) 0.5016(3)
H4 H 0.6250 0.4365 0.5392
C7 C 0.9507(2) 0.5057(6) 0.4397(3)
H5 H 0.9317 0.6475 0.4184
H6 H 0.9780 0.4446 0.3805
O1 O 0.35548(18) 0.1711(4) 0.3658(2)
H7 H 0.2877 0.1244 0.3409
H8 H 0.3649 0.2310 0.3100
N2B N 1.35772(17) 0.8121(4) 0.54287(19)
C2B C 1.2904(2) 0.8911(5) 0.5994(3)
H1B H 1.3105 1.0192 0.6339
C3B C 1.1927(2) 0.7941(5) 0.6099(3)
H2B H 1.1489 0.8566 0.6505
C4B C 1.1601(2) 0.6037(5) 0.5599(2)
C5B C 1.2322(2) 0.5197(5) 0.5051(3)
H3B H 1.2157 0.3898 0.4723
C6B C 1.3281(2) 0.6253(5) 0.4984(3)
H4B H 1.3750 0.5635 0.4608
C7B C 1.0493(2) 0.4943(6) 0.5603(3)
H5B H 1.0683 0.3525 0.5816
H6B H 1.0220 0.5554 0.6195
N1B N 0.4976(2) -0.2159(4) 0.3617(2)
C1B C 0.4661(2) -0.3370(5) 0.2879(2)
S1B S 0.41883(7) -0.50764(16) 0.18299(7)
O1B O 0.64452(18) -0.1711(4) 0.6342(2)
H7B H 0.7123 -0.1244 0.6591
H8B H 0.6351 -0.2310 0.6900
Mn1_2 Mn 1.5000 1.0000 0.5000
N2B_2 N 0.35772(17) -0.1879(4) 0.54287(19)
loop_
_geom_bond_atom_site_label_1
_geom_bond_atom_site_label_2
_geom_bond_site_symmetry_1
_geom_bond_site_symmetry_2
Mn1 N1 1_555 1_555
N1 C1 1_555 1_555
C1 S1 1_555 1_555
N2 Mn1 1_555 1_555
C2 N2 1_555 1_555
H1 C2 1_555 1_555
C3 C2 1_555 1_555
H2 C3 1_555 1_555
C4 C3 1_555 1_555
C5 C4 1_555 1_555
H3 C5 1_555 1_555
C6 N2 1_555 1_555
H4 C6 1_555 1_555
C7 C4 1_555 1_555
H5 C7 1_555 1_555
H6 C7 1_555 1_555
O1 Mn1 1_555 1_555
H7 O1 1_555 1_555
H8 O1 1_555 1_555
N2B C2B 1_555 1_555
C2B H1B 1_555 1_555
C3B C2B 1_555 1_555
H2B C3B 1_555 1_555
C4B C3B 1_555 1_555
C5B C4B 1_555 1_555
H3B C5B 1_555 1_555
C6B N2B 1_555 1_555
H4B C6B 1_555 1_555
C7B C7 1_555 1_555
H5B C7B 1_555 1_555
H6B C7B 1_555 1_555
N1B Mn1 1_555 1_555
C1B N1B 1_555 1_555
S1B C1B 1_555 1_555
O1B Mn1 1_555 1_555
H7B O1B 1_555 1_555
H8B O1B 1_555 1_555
Mn1_2 N2B 1_555 1_555
N2B_2 Mn1 1_555 1_555
C5 C6 1_555 1_555
C4B C7B 1_555 1_555
C5B C6B 1_555 1_555

#END
