
#######################################################################
#
#                 Cambridge Crystallographic Data Centre
#                                CCDC 
#
#######################################################################
#
# If this CIF has been generated from an entry in the Cambridge 
# Structural Database, then it will include bibliographic, chemical, 
# crystal, experimental, refinement or atomic coordinate data resulting 
# from the CCDC's data processing and validation procedures.
#
#######################################################################

data_QIMGAW
_symmetry_cell_setting           monoclinic
_symmetry_space_group_name_H-M   'P 21/n'
_symmetry_Int_Tables_number      14
_space_group_name_Hall           '-P 2yn'
loop_
_symmetry_equiv_pos_site_id
_symmetry_equiv_pos_as_xyz
1 x,y,z
2 1/2-x,1/2+y,1/2-z
3 -x,-y,-z
4 1/2+x,1/2-y,1/2+z
_cell_length_a                   10.5477(8)
_cell_length_b                   16.9176(9)
_cell_length_c                   12.7246(9)
_cell_angle_alpha                90
_cell_angle_beta                 91.415(9)
_cell_angle_gamma                90
_cell_volume                     2269.91
loop_
_atom_site_label
_atom_site_type_symbol
_atom_site_fract_x
_atom_site_fract_y
_atom_site_fract_z
Mn1 Mn 0.32584(2) 0.201810(15) 0.44594(2)
N1 N 0.14123(13) 0.24368(9) 0.38809(13)
C1 C 0.04590(15) 0.27036(10) 0.35714(14)
S1 S -0.08854(4) 0.30917(3) 0.31669(4)
N2 N 0.50794(15) 0.16419(10) 0.50755(14)
C2 C 0.60610(17) 0.15294(10) 0.54708(16)
S2 S 0.74267(6) 0.13612(4) 0.60309(7)
N3 N 0.23326(14) 0.09834(9) 0.53226(12)
C3 C 0.10746(16) 0.09564(11) 0.54578(15)
H1 H 0.0557 0.1336 0.5103
C4 C 0.04942(16) 0.04047(10) 0.60855(15)
H2 H -0.0399 0.0418 0.6163
C5 C 0.12114(16) -0.01679(10) 0.66016(14)
C6 C 0.25138(17) -0.01461(11) 0.64554(17)
H3 H 0.3049 -0.0528 0.6786
C7 C 0.30263(17) 0.04331(12) 0.58288(17)
H4 H 0.3920 0.0441 0.5753
C8 C 0.06225(17) -0.07587(10) 0.73260(15)
H5 H 0.1019 -0.1283 0.7224
H6 H -0.0294 -0.0807 0.7150
N4 N -0.08233(13) 0.18120(9) 0.89408(12)
C9 C 0.04361(16) 0.16953(11) 0.89755(16)
H7 H 0.0972 0.2139 0.9098
C10 C 0.09947(16) 0.09626(11) 0.88427(16)
H8 H 0.1892 0.0914 0.8869
C11 C 0.02466(16) 0.03014(10) 0.86723(14)
C12 C -0.10538(16) 0.04195(11) 0.86281(16)
H9 H -0.1610 -0.0015 0.8510
C13 C -0.15405(16) 0.11712(11) 0.87560(16)
H10 H -0.2435 0.1237 0.8710
C14 C 0.07971(17) -0.05063(10) 0.84847(15)
H11 H 0.1712 -0.0502 0.8677
H12 H 0.0377 -0.0896 0.8940
N5 N 0.35665(14) 0.13324(9) 0.29595(12)
C15 C 0.33739(18) 0.16584(11) 0.20083(15)
H13 H 0.3058 0.2184 0.1971
C16 C 0.36126(18) 0.12682(12) 0.10791(16)
H14 H 0.3471 0.1527 0.0424
C17 C 0.40614(15) 0.04938(12) 0.11078(15)
C18 C 0.42592(17) 0.01552(11) 0.20920(16)
H15 H 0.4572 -0.0370 0.2152
C19 C 0.39984(17) 0.05871(11) 0.29876(15)
H16 H 0.4132 0.0343 0.3653
C20 C 0.43068(16) 0.00357(14) 0.01137(17)
H17 H 0.3941 -0.0501 0.0178
H18 H 0.3869 0.0302 -0.0486
O1 O 0.29603(12) 0.26699(8) 0.60190(10)
H19 H 0.3401 0.2486 0.6521
C21 C 0.17631(19) 0.28530(13) 0.64604(18)
H20 H 0.1191 0.3064 0.5911
H21 H 0.1882 0.3248 0.7017
H22 H 0.1395 0.2372 0.6756
N5B N 0.64335(14) -0.13324(9) -0.29595(12)
C15B C 0.66261(18) -0.16584(11) -0.20083(15)
H13B H 0.6942 -0.2184 -0.1971
C16B C 0.63874(18) -0.12682(12) -0.10791(16)
H14B H 0.6529 -0.1527 -0.0424
C17B C 0.59386(15) -0.04938(12) -0.11078(15)
C18B C 0.57408(17) -0.01552(11) -0.20920(16)
H15B H 0.5428 0.0370 -0.2152
C19B C 0.60016(17) -0.05871(11) -0.29876(15)
H16B H 0.5868 -0.0343 -0.3653
C20B C 0.56932(16) -0.00357(14) -0.01137(17)
H17B H 0.6059 0.0501 -0.0178
H18B H 0.6131 -0.0302 0.0486
Mn1B Mn 0.67416(2) -0.201810(15) -0.44594(2)
N1B N 0.85877(13) -0.24368(9) -0.38809(13)
C1B C 0.95410(15) -0.27036(10) -0.35714(14)
S1B S 1.08854(4) -0.30917(3) -0.31669(4)
N2B N 0.49206(15) -0.16419(10) -0.50755(14)
C2B C 0.39390(17) -0.15294(10) -0.54708(16)
S2B S 0.25733(6) -0.13612(4) -0.60309(7)
N3B N 0.76674(14) -0.09834(9) -0.53226(12)
C3B C 0.89254(16) -0.09564(11) -0.54578(15)
H1B H 0.9443 -0.1336 -0.5103
C4B C 0.95058(16) -0.04047(10) -0.60855(15)
H2B H 1.0399 -0.0418 -0.6163
C5B C 0.87886(16) 0.01679(10) -0.66016(14)
C6B C 0.74862(17) 0.01461(11) -0.64554(17)
H3B H 0.6951 0.0528 -0.6786
C7B C 0.69737(17) -0.04331(12) -0.58288(17)
H4B H 0.6080 -0.0441 -0.5753
C8B C 0.93775(17) 0.07587(10) -0.73260(15)
H5B H 0.8981 0.1283 -0.7224
H6B H 1.0294 0.0807 -0.7150
N4B N 1.08233(13) -0.18120(9) -0.89408(12)
C9B C 0.95639(16) -0.16953(11) -0.89755(16)
H7B H 0.9028 -0.2139 -0.9098
C10B C 0.90053(16) -0.09626(11) -0.88427(16)
H8B H 0.8108 -0.0914 -0.8869
C11B C 0.97534(16) -0.03014(10) -0.86723(14)
C12B C 1.10538(16) -0.04195(11) -0.86281(16)
H9B H 1.1610 0.0015 -0.8510
C13B C 1.15405(16) -0.11712(11) -0.87560(16)
H10B H 1.2435 -0.1237 -0.8710
C14B C 0.92029(17) 0.05063(10) -0.84847(15)
H11B H 0.8288 0.0502 -0.8677
H12B H 0.9623 0.0896 -0.8940
O1B O 0.70397(12) -0.26699(8) -0.60190(10)
H19B H 0.6599 -0.2486 -0.6521
C21B C 0.82369(19) -0.28530(13) -0.64604(18)
H20B H 0.8809 -0.3064 -0.5911
H21B H 0.8118 -0.3248 -0.7017
H22B H 0.8605 -0.2372 -0.6756
Mn1A Mn 1.17416(2) -0.298190(15) -0.94594(2)
Mn1C Mn -0.17416(2) 0.298190(15) 0.94594(2)
N4A N 0.58233(13) -0.31880(9) -0.39408(12)
N4C N 0.41767(13) 0.31880(9) 0.39408(12)
loop_
_geom_bond_atom_site_label_1
_geom_bond_atom_site_label_2
_geom_bond_site_symmetry_1
_geom_bond_site_symmetry_2
Mn1 N1 1_555 1_555
N1 C1 1_555 1_555
C1 S1 1_555 1_555
N2 Mn1 1_555 1_555
C2 N2 1_555 1_555
S2 C2 1_555 1_555
N3 Mn1 1_555 1_555
C3 N3 1_555 1_555
H1 C3 1_555 1_555
C4 C3 1_555 1_555
H2 C4 1_555 1_555
C5 C4 1_555 1_555
C6 C5 1_555 1_555
H3 C6 1_555 1_555
C7 N3 1_555 1_555
H4 C7 1_555 1_555
C8 C5 1_555 1_555
H5 C8 1_555 1_555
H6 C8 1_555 1_555
N4 C9 1_555 1_555
C9 H7 1_555 1_555
C10 C9 1_555 1_555
H8 C10 1_555 1_555
C11 C10 1_555 1_555
C12 C11 1_555 1_555
H9 C12 1_555 1_555
C13 N4 1_555 1_555
H10 C13 1_555 1_555
C14 C8 1_555 1_555
H11 C14 1_555 1_555
H12 C14 1_555 1_555
N5 Mn1 1_555 1_555
C15 N5 1_555 1_555
H13 C15 1_555 1_555
C16 C15 1_555 1_555
H14 C16 1_555 1_555
C17 C16 1_555 1_555
C18 C17 1_555 1_555
H15 C18 1_555 1_555
C19 N5 1_555 1_555
H16 C19 1_555 1_555
C20 C17 1_555 1_555
H17 C20 1_555 1_555
H18 C20 1_555 1_555
O1 Mn1 1_555 1_555
H19 O1 1_555 1_555
C21 O1 1_555 1_555
H20 C21 1_555 1_555
H21 C21 1_555 1_555
H22 C21 1_555 1_555
N5B C15B 1_555 1_555
C15B H13B 1_555 1_555
C16B C15B 1_555 1_555
H14B C16B 1_555 1_555
C17B C16B 1_555 1_555
C18B C17B 1_555 1_555
H15B C18B 1_555 1_555
C19B N5B 1_555 1_555
H16B C19B 1_555 1_555
C20B C20 1_555 1_555
H17B C20B 1_555 1_555
H18B C20B 1_555 1_555
Mn1B N5B 1_555 1_555
N1B Mn1B 1_555 1_555
C1B N1B 1_555 1_555
S1B C1B 1_555 1_555
N2B Mn1B 1_555 1_555
C2B N2B 1_555 1_555
S2B C2B 1_555 1_555
N3B Mn1B 1_555 1_555
C3B N3B 1_555 1_555
H1B C3B 1_555 1_555
C4B C3B 1_555 1_555
H2B C4B 1_555 1_555
C5B C4B 1_555 1_555
C6B C5B 1_555 1_555
H3B C6B 1_555 1_555
C7B N3B 1_555 1_555
H4B C7B 1_555 1_555
C8B C5B 1_555 1_555
H5B C8B 1_555 1_555
H6B C8B 1_555 1_555
N4B C9B 1_555 1_555
C9B H7B 1_555 1_555
C10B C9B 1_555 1_555
H8B C10B 1_555 1_555
C11B C10B 1_555 1_555
C12B C11B 1_555 1_555
H9B C12B 1_555 1_555
C13B N4B 1_555 1_555
H10B C13B 1_555 1_555
C14B C8B 1_555 1_555
H11B C14B 1_555 1_555
H12B C14B 1_555 1_555
O1B Mn1B 1_555 1_555
H19B O1B 1_555 1_555
C21B O1B 1_555 1_555
H20B C21B 1_555 1_555
H21B C21B 1_555 1_555
H22B C21B 1_555 1_555
Mn1A N4B 1_555 1_555
Mn1C N4 1_555 1_555
N4A Mn1B 1_555 1_555
N4C Mn1 1_555 1_555
C6 C7 1_555 1_555
C11 C14 1_555 1_555
C12 C13 1_555 1_555
C18 C19 1_555 1_555
C17B C20B 1_555 1_555
C18B C19B 1_555 1_555
C6B C7B 1_555 1_555
C11B C14B 1_555 1_555
C12B C13B 1_555 1_555

#END
