
#######################################################################
#
#                 Cambridge Crystallographic Data Centre
#                                CCDC 
#
#######################################################################
#
# If this CIF has been generated from an entry in the Cambridge 
# Structural Database, then it will include bibliographic, chemical, 
# crystal, experimental, refinement or atomic coordinate data resulting 
# from the CCDC's data processing and validation procedures.
#
#######################################################################

data_QIMJUT
_symmetry_cell_setting           trigonal
_symmetry_space_group_name_H-M   'P -3'
_symmetry_Int_Tables_number      147
_space_group_name_Hall           '-P 3'
loop_
_symmetry_equiv_pos_site_id
_symmetry_equiv_pos_as_xyz
1 x,y,z
2 -y,x-y,z
3 -x+y,-x,z
4 -x,-y,-z
5 y,-x+y,-z
6 x-y,x,-z
_cell_length_a                   13.9309(4)
_cell_length_b                   13.9309(4)
_cell_length_c                   27.6863(12)
_cell_angle_alpha                90
_cell_angle_beta                 90
_cell_angle_gamma                120
_cell_volume                     4653.22
loop_
_atom_site_label
_atom_site_type_symbol
_atom_site_fract_x
_atom_site_fract_y
_atom_site_fract_z
Zn1 Zn 0.33145(13) 0.99364(13) 1.05273(4)
Zn2 Zn 0.26181(11) 0.86204(11) 0.93673(5)
Zn3 Zn 0.40610(11) 1.12697(11) 0.93680(5)
Zn4 Zn 0.32981(13) 1.00376(13) 0.71920(4)
Zn5 Zn 0.52884(11) 0.93382(11) 0.72996(5)
Zn6 Zn 0.79375(11) 1.05441(12) 0.73009(5)
Zn7 Zn 0.66137(13) 0.99708(15) 0.61428(4)
Zn8 Zn 0.38749(11) 0.92718(11) 0.60320(5)
Zn9 Zn 0.26710(11) 1.07133(11) 0.60333(6)
O1 O 0.3897(6) 0.8752(6) 1.0591(3)
O2 O 0.5197(6) 1.1218(6) 1.0584(3)
O3 O 0.2722(6) 0.8167(7) 0.7246(3)
O4 O 0.7902(6) 0.8482(7) 0.7247(4)
O5 O 0.5425(6) 0.8181(7) 0.6085(4)
O6 O 0.0621(7) 0.8504(7) 0.6106(4)
O7 O 0.3646(6) 0.9936(7) 0.9795(3)
H1 H 0.4328 0.9895 0.9797
O8 O 0.6611(6) 0.9615(6) 0.6891(2)
H2 H 0.6571 0.8892 0.6889
O9 O 0.2953(6) 0.9690(6) 0.6434(2)
H3 H 0.2229 0.9009 0.6435
O10 O 0.1149(7) 0.8241(8) 0.9523(3)
H4 H 0.0946 0.8678 0.9319
O11 O 0.2964(6) 1.1681(6) 0.9486(3)
H5 H 0.2658 1.1397 0.9804
O12 O 0.4927(7) 1.0457(8) 0.7109(3)
H6 H 0.5377 1.1116 0.7300
O13 O 0.8350(7) 1.2048(7) 0.7151(4)
H7 H 0.8103 1.2052 0.6824
O14 O 0.5397(7) 1.0376(7) 0.6192(3)
H8 H 0.5401 1.0622 0.6520
O15 O 0.3761(6) 1.2198(6) 0.6228(3)
H9 H 0.4438 1.2418 0.6048
N1 N 0.3321(8) 0.9988(9) 1.1287(3)
N2 N 0.3939(8) 1.0285(9) 1.2041(3)
N3 N 0.2820(7) 0.9870(8) 1.2043(3)
N4 N 0.3390(9) 0.9930(9) 0.7953(3)
N5 N 0.3017(8) 0.9373(9) 0.8719(4)
N6 N 0.3705(8) 1.0498(9) 0.8713(4)
N7 N 0.6691(9) 0.9944(10) 0.5385(3)
N8 N 0.6968(8) 0.9675(8) 0.4633(4)
N9 N 0.6544(9) 1.0394(8) 0.4617(4)
N10 N 0.4455(7) 0.7498(8) 1.0597(4)
N11 N 0.7002(7) 1.2554(8) 1.0595(4)
N12 N 0.4127(7) 0.7788(8) 0.7253(4)
N13 N 0.9211(7) 1.0312(8) 0.7253(4)
N14 N 0.3611(8) 0.7743(8) 0.6081(4)
N15 N 0.1108(9) 1.0329(9) 0.6090(4)
C1 C 0.4244(11) 1.0381(11) 1.1599(4)
H10 H 0.4973 1.0671 1.1497
C2 C 0.2531(10) 0.9773(9) 1.1593(4)
H11 H 0.1814 0.9566 1.1496
C3 C 0.2805(10) 0.9091(10) 0.8257(5)
H12 H 0.2298 0.8378 0.8155
C4 C 0.3877(10) 1.0806(11) 0.8265(5)
H13 H 0.4287 1.1542 0.8167
C5 C 0.7023(10) 0.9451(11) 0.5096(5)
H14 H 0.7278 0.8983 0.5199
C6 C 0.6413(10) 1.0557(10) 0.5090(4)
H15 H 0.6165 1.1026 0.5200
C7 C 0.3637(9) 0.7764(9) 1.0591(4)
C8 C 0.5898(8) 1.2263(8) 1.0588(4)
C9 C 0.3004(10) 0.7433(10) 0.7238(4)
C10 C 0.8912(10) 0.9196(10) 0.7260(4)
C11 C 0.4406(9) 0.7456(10) 0.6088(4)
C12 C 0.0341(10) 0.9224(11) 0.6086(5)
O1A O 0.1248(6) 0.5145(8) 1.0591(3)
N10A N 0.2502(8) 0.6957(11) 1.0597(4)
C7A C 0.2236(9) 0.5873(13) 1.0591(4)
O1B O 0.4855(8) 0.6103(6) 1.0591(3)
N10B N 0.3043(11) 0.5545(7) 1.0597(4)
C7B C 0.4127(13) 0.6363(9) 1.0591(4)
O2A O 0.8782(6) 1.3979(8) 1.0584(3)
N11A N 0.7446(8) 1.4448(11) 1.0595(4)
C8A C 0.7737(8) 1.3635(11) 1.0588(4)
O2B O 0.6021(8) 1.4803(6) 1.0584(3)
N11B N 0.5552(11) 1.2998(7) 1.0595(4)
C8B C 0.6365(11) 1.4102(8) 1.0588(4)
O3A O 0.1833(7) 0.4555(9) 0.7246(3)
N12A N 0.2212(8) 0.6339(11) 0.7253(4)
C9A C 0.2567(10) 0.5571(14) 0.7238(4)
O3B O 0.5445(9) 0.7278(6) 0.7246(3)
N12B N 0.3661(11) 0.5873(7) 0.7253(4)
C9B C 0.4429(14) 0.6996(10) 0.7238(4)
O4A O 1.1518(7) 0.9420(9) 0.7247(4)
N13A N 0.9688(8) 0.8899(11) 0.7253(4)
C10A C 1.0804(10) 0.9716(14) 0.7260(4)
O4B O 1.0580(9) 1.2098(6) 0.7247(4)
N13B N 1.1101(11) 1.0789(7) 0.7253(4)
C10B C 1.0284(14) 1.1088(10) 0.7260(4)
O5A O 0.1819(7) 0.7244(9) 0.6085(4)
N14A N 0.2257(8) 0.5868(11) 0.6081(4)
C11A C 0.2544(10) 0.6950(13) 0.6088(4)
O5B O 0.2756(9) 0.4575(6) 0.6085(4)
N14B N 0.4132(11) 0.6389(8) 0.6081(4)
C11B C 0.3050(13) 0.5594(9) 0.6088(4)
O6A O 0.1496(7) 1.2117(10) 0.6106(4)
N15A N -0.0329(9) 1.0779(13) 0.6090(4)
C12A C 0.0776(11) 1.1117(15) 0.6086(5)
O6B O -0.2117(10) 0.9379(7) 0.6106(4)
N15B N -0.0779(13) 0.8892(9) 0.6090(4)
C12B C -0.1117(15) 0.9659(10) 0.6086(5)
Zn1A Zn 0.00636(13) 0.33781(18) 1.05273(4)
Zn2A Zn 0.13796(11) 0.39977(16) 0.93673(5)
Zn3A Zn -0.12697(11) 0.27913(16) 0.93680(5)
Zn4A Zn -0.00376(13) 0.32605(18) 0.71920(4)
Zn5A Zn 0.06618(11) 0.59502(16) 0.72996(5)
Zn6A Zn -0.05441(12) 0.73934(16) 0.73009(5)
Zn7A Zn 0.00292(15) 0.66429(20) 0.61428(4)
Zn8A Zn 0.07282(11) 0.46031(16) 0.60320(5)
Zn9A Zn -0.07133(11) 0.19577(16) 0.60333(6)
O7A O 0.0064(7) 0.3710(9) 0.9795(3)
H1A H 0.0105 0.4433 0.9797
O8A O 0.0385(6) 0.6996(8) 0.6891(2)
H2A H 0.1108 0.7679 0.6889
O9A O 0.0310(6) 0.3263(8) 0.6434(2)
H3A H 0.0991 0.3220 0.6435
O10A O 0.1759(8) 0.2908(11) 0.9523(3)
H4A H 0.1322 0.2268 0.9319
O11A O -0.1681(6) 0.1283(8) 0.9486(3)
H5A H -0.1397 0.1261 0.9804
O12A O -0.0457(8) 0.4470(11) 0.7109(3)
H6A H -0.1116 0.4261 0.7300
O13A O -0.2048(7) 0.6302(10) 0.7151(4)
H7A H -0.2052 0.6051 0.6824
O14A O -0.0376(7) 0.5021(10) 0.6192(3)
H8A H -0.0622 0.4779 0.6520
O15A O -0.2198(6) 0.1563(8) 0.6228(3)
H9A H -0.2418 0.2020 0.6048
N1A N 0.0012(9) 0.3333(12) 1.1287(3)
N2A N -0.0285(9) 0.3654(12) 1.2041(3)
N3A N 0.0130(8) 0.2950(11) 1.2043(3)
N4A N 0.0070(9) 0.3460(13) 0.7953(3)
N5A N 0.0627(9) 0.3644(12) 0.8719(4)
N6A N -0.0498(9) 0.3207(12) 0.8713(4)
N7A N 0.0056(10) 0.6747(13) 0.5385(3)
N8A N 0.0325(8) 0.7293(11) 0.4633(4)
N9A N -0.0394(8) 0.6150(12) 0.4617(4)
C1A C -0.0381(11) 0.3863(16) 1.1599(4)
H10A H -0.0671 0.4302 1.1497
C2A C 0.0227(9) 0.2758(13) 1.1593(4)
H11A H 0.0434 0.2248 1.1496
C3A C 0.0909(10) 0.3714(14) 0.8257(5)
H12A H 0.1622 0.3920 0.8155
C4A C -0.0806(11) 0.3071(15) 0.8265(5)
H13A H -0.1542 0.2745 0.8167
C5A C 0.0549(11) 0.7572(15) 0.5096(5)
H14A H 0.1017 0.8295 0.5199
C6A C -0.0557(10) 0.5856(14) 0.5090(4)
H15A H -0.1026 0.5139 0.5200
Zn1B Zn -0.33781(18) 0.66855(13) 1.05273(4)
Zn2B Zn -0.39977(16) 0.73819(11) 0.93673(5)
Zn3B Zn -0.27913(16) 0.59390(11) 0.93680(5)
Zn4B Zn -0.32605(18) 0.67019(13) 0.71920(4)
Zn5B Zn -0.59502(16) 0.47116(11) 0.72996(5)
Zn6B Zn -0.73934(16) 0.20625(11) 0.73009(5)
Zn7B Zn -0.66429(20) 0.33863(13) 0.61428(4)
Zn8B Zn -0.46031(16) 0.61251(11) 0.60320(5)
Zn9B Zn -0.19577(16) 0.73290(11) 0.60333(6)
O7B O -0.3710(9) 0.6354(6) 0.9795(3)
H1B H -0.4433 0.5672 0.9797
O8B O -0.6996(8) 0.3389(6) 0.6891(2)
H2B H -0.7679 0.3429 0.6889
O9B O -0.3263(8) 0.7047(6) 0.6434(2)
H3B H -0.3220 0.7771 0.6435
O10B O -0.2908(11) 0.8851(7) 0.9523(3)
H4B H -0.2268 0.9054 0.9319
O11B O -0.1283(8) 0.7036(6) 0.9486(3)
H5B H -0.1261 0.7342 0.9804
O12B O -0.4470(11) 0.5073(7) 0.7109(3)
H6B H -0.4261 0.4623 0.7300
O13B O -0.6302(10) 0.1650(7) 0.7151(4)
H7B H -0.6051 0.1897 0.6824
O14B O -0.5021(10) 0.4603(7) 0.6192(3)
H8B H -0.4779 0.4599 0.6520
O15B O -0.1563(8) 0.6239(6) 0.6228(3)
H9B H -0.2020 0.5562 0.6048
N1B N -0.3333(12) 0.6679(8) 1.1287(3)
N2B N -0.3654(12) 0.6061(8) 1.2041(3)
N3B N -0.2950(11) 0.7180(7) 1.2043(3)
N4B N -0.3460(13) 0.6610(9) 0.7953(3)
N5B N -0.3644(12) 0.6983(8) 0.8719(4)
N6B N -0.3207(12) 0.6295(8) 0.8713(4)
N7B N -0.6747(13) 0.3309(9) 0.5385(3)
N8B N -0.7293(11) 0.3032(8) 0.4633(4)
N9B N -0.6150(12) 0.3456(9) 0.4617(4)
C1B C -0.3863(16) 0.5756(11) 1.1599(4)
H10B H -0.4302 0.5027 1.1497
C2B C -0.2758(13) 0.7469(10) 1.1593(4)
H11B H -0.2248 0.8186 1.1496
C3B C -0.3714(14) 0.7195(10) 0.8257(5)
H12B H -0.3920 0.7702 0.8155
C4B C -0.3071(15) 0.6123(10) 0.8265(5)
H13B H -0.2745 0.5713 0.8167
C5B C -0.7572(15) 0.2977(10) 0.5096(5)
H14B H -0.8295 0.2722 0.5199
C6B C -0.5856(14) 0.3587(10) 0.5090(4)
H15B H -0.5139 0.3835 0.5200
Zn1A_2 Zn 1.00636(13) 1.33781(18) 1.05273(4)
Zn1B_2 Zn 0.66219(18) 0.66855(13) 1.05273(4)
Zn1B_3 Zn 0.66219(18) 1.66855(13) 1.05273(4)
Zn1C Zn -0.33145(13) 0.00636(13) 0.94727(4)
Zn1C_2 Zn -0.33145(13) 1.00636(13) 0.94727(4)
Zn1D Zn -0.00636(13) 0.66219(18) 0.94727(4)
Zn1E Zn 0.33781(18) 0.33145(13) 0.94727(4)
Zn1E_2 Zn 0.33781(18) 1.33145(13) 0.94727(4)
Zn2C Zn 0.73819(11) 1.13796(11) 1.06327(5)
Zn2D Zn 0.86204(11) 1.60023(16) 1.06327(5)
Zn2E Zn 0.39977(16) 1.26181(11) 1.06327(5)
Zn3C Zn 0.59390(11) 0.87303(11) 1.06320(5)
Zn3D Zn 0.12697(11) 0.72087(16) 1.06320(5)
Zn3E Zn 0.27913(16) 0.40610(11) 1.06320(5)
Zn4_2 Zn -0.67019(13) 0.00376(13) 0.71920(4)
Zn4_3 Zn 1.32981(13) 1.00376(13) 0.71920(4)
Zn4A_2 Zn 0.99624(13) 1.32605(18) 0.71920(4)
Zn4B_2 Zn 0.67395(18) 0.67019(13) 0.71920(4)
Zn5B_2 Zn 0.40498(16) 0.47116(11) 0.72996(5)
Zn5C Zn 0.47116(11) 1.06618(11) 1.27004(5)
Zn5D Zn -0.06618(11) 0.40498(16) 1.27004(5)
Zn5E Zn -0.40498(16) 0.52884(11) 1.27004(5)
Zn6A_2 Zn 0.94559(12) 0.73934(16) 0.73009(5)
Zn6B_2 Zn 1.26066(16) 1.20625(11) 0.73009(5)
Zn6C Zn 0.20625(11) 0.94559(12) 1.26991(5)
Zn6D Zn 0.05441(12) 0.26066(16) 1.26991(5)
Zn6E Zn -0.26066(16) 0.79375(11) 1.26991(5)
Zn7_2 Zn -0.33863(13) -0.00292(15) 0.61428(4)
Zn7_3 Zn -0.33863(13) 0.99708(15) 0.61428(4)
Zn7B_2 Zn 0.33571(20) 0.33863(13) 0.61428(4)
Zn7B_3 Zn 0.33571(20) 1.33863(13) 0.61428(4)
Zn8B_2 Zn 0.53969(16) 0.61251(11) 0.60320(5)
Zn8C Zn 0.61251(11) 1.07282(11) 0.39680(5)
Zn8D Zn -0.07282(11) 0.53969(16) 0.39680(5)
Zn8E Zn -0.53969(16) 0.38749(11) 0.39680(5)
Zn9A_2 Zn -0.07133(11) 1.19577(16) 0.60333(6)
Zn9C Zn 0.73290(11) 0.92867(11) 0.39667(6)
Zn9D Zn 0.07133(11) 0.80423(16) 0.39667(6)
Zn9E Zn -0.80423(16) 0.26710(11) 0.39667(6)
O1B_2 O -0.5145(8) 0.6103(6) 1.0591(3)
O2A_2 O -0.1218(6) 0.3979(8) 1.0584(3)
O2B_2 O -0.3979(8) 0.4803(6) 1.0584(3)
O3B_2 O -0.4555(9) 0.7278(6) 0.7246(3)
O4_2 O -0.2098(6) 0.8482(7) 0.7247(4)
O4A_2 O 0.1518(7) 0.9420(9) 0.7247(4)
O4B_2 O 0.0580(9) 0.2098(6) 0.7247(4)
O5B_2 O -0.7244(9) 0.4575(6) 0.6085(4)
O6A_2 O -0.8504(7) 0.2117(10) 0.6106(4)
O6B_2 O 0.7883(10) 0.9379(7) 0.6106(4)
O10C O -0.1149(7) 0.1759(8) 1.0477(3)
O10D O -0.1759(8) 0.7092(11) 1.0477(3)
O10E O 0.2908(11) 1.1149(7) 1.0477(3)
O11C O -0.2964(6) 0.8319(6) 1.0514(3)
O11D O 0.1681(6) 0.8717(8) 1.0514(3)
O11E O 0.1283(8) 0.2964(6) 1.0514(3)
O13_2 O -0.1650(7) 0.2048(7) 0.7151(4)
O13B_2 O 0.3698(10) 1.1650(7) 0.7151(4)
O15_2 O -0.6239(6) 0.2198(6) 0.6228(3)
O15A_2 O 0.7802(6) 1.1563(8) 0.6228(3)
N2C N 0.6061(8) 0.9715(9) 0.7959(3)
N2D N 0.0285(9) 0.6346(12) 0.7959(3)
N2E N -0.6346(12) 0.3939(8) 0.7959(3)
N3C N 0.7180(7) 1.0130(8) 0.7957(3)
N3D N -0.0130(8) 0.7050(11) 0.7957(3)
N3E N -0.7050(11) 0.2820(7) 0.7957(3)
N8C N 0.3032(8) 1.0325(8) 0.5367(4)
N8D N -0.0325(8) 0.2707(11) 0.5367(4)
N8E N -0.2707(11) 0.6968(8) 0.5367(4)
N9C N 0.3456(9) 0.9606(8) 0.5383(4)
N9D N 0.0394(8) 0.3850(12) 0.5383(4)
N9E N -0.3850(12) 0.6544(9) 0.5383(4)
N10C N 0.5545(7) 1.2502(8) 0.9403(4)
N10D N -0.2502(8) 0.3043(11) 0.9403(4)
N10E N -0.3043(11) 0.4455(7) 0.9403(4)
N11C N 0.2998(7) 0.7446(8) 0.9405(4)
N11D N 0.2554(8) 0.5552(11) 0.9405(4)
N11E N -0.5552(11) 0.7002(7) 0.9405(4)
N12B_2 N -0.6339(11) 0.5873(7) 0.7253(4)
N13A_2 N -0.0312(8) 0.8899(11) 0.7253(4)
N13B_2 N -0.8899(11) 0.0789(7) 0.7253(4)
N14B_2 N -0.5868(11) 0.6389(8) 0.6081(4)
N15A_2 N -0.0329(9) 0.0779(13) 0.6090(4)
loop_
_geom_bond_atom_site_label_1
_geom_bond_atom_site_label_2
_geom_bond_site_symmetry_1
_geom_bond_site_symmetry_2
Zn1 O1 1_555 1_555
Zn2 O7 1_555 1_555
Zn3 O7 1_555 1_555
Zn4 O3 1_555 1_555
Zn5 O8 1_555 1_555
Zn6 O8 1_555 1_555
Zn7 O5 1_555 1_555
Zn8 O9 1_555 1_555
Zn9 O9 1_555 1_555
O1 C7 1_555 1_555
O2 Zn1 1_555 1_555
O3 C9 1_555 1_555
O4 C10 1_555 1_555
O5 C11 1_555 1_555
O6 C12 1_555 1_555
O7 Zn1 1_555 1_555
H1 O7 1_555 1_555
O8 Zn7 1_555 1_555
H2 O8 1_555 1_555
O9 Zn4 1_555 1_555
H3 O9 1_555 1_555
O10 Zn2 1_555 1_555
H4 O10 1_555 1_555
O11 Zn3 1_555 1_555
H5 O11 1_555 1_555
O12 Zn4 1_555 1_555
H6 O12 1_555 1_555
O13 Zn6 1_555 1_555
H7 O13 1_555 1_555
O14 Zn7 1_555 1_555
H8 O14 1_555 1_555
O15 Zn9 1_555 1_555
H9 O15 1_555 1_555
N1 Zn1 1_555 1_555
N2 N3 1_555 1_555
N3 C2 1_555 1_555
N4 Zn4 1_555 1_555
N5 Zn2 1_555 1_555
N6 Zn3 1_555 1_555
N7 Zn7 1_555 1_555
N8 N9 1_555 1_555
N9 C6 1_555 1_555
N10 C7 1_555 1_555
N11 C8 1_555 1_555
N12 Zn5 1_555 1_555
N13 Zn6 1_555 1_555
N14 Zn8 1_555 1_555
N15 Zn9 1_555 1_555
C1 N1 1_555 1_555
H10 C1 1_555 1_555
C2 N1 1_555 1_555
H11 C2 1_555 1_555
C3 N4 1_555 1_555
H12 C3 1_555 1_555
C4 N4 1_555 1_555
H13 C4 1_555 1_555
C5 N7 1_555 1_555
H14 C5 1_555 1_555
C6 N7 1_555 1_555
H15 C6 1_555 1_555
C7 N10A 1_555 1_555
C8 O2 1_555 1_555
C9 N12 1_555 1_555
C10 N13 1_555 1_555
C11 N14 1_555 1_555
C12 N15 1_555 1_555
O1A C7A 1_555 1_555
N10A C7A 1_555 1_555
C7A N10B 1_555 1_555
O1B C7B 1_555 1_555
N10B C7B 1_555 1_555
C7B N10 1_555 1_555
O2A C8A 1_555 1_555
N11A C8A 1_555 1_555
C8A N11 1_555 1_555
O2B C8B 1_555 1_555
N11B C8 1_555 1_555
C8B N11A 1_555 1_555
O3A C9A 1_555 1_555
N12A C9 1_555 1_555
C9A N12A 1_555 1_555
O3B C9B 1_555 1_555
N12B C9A 1_555 1_555
C9B N12 1_555 1_555
O4A C10A 1_555 1_555
N13A C10 1_555 1_555
C10A N13A 1_555 1_555
O4B C10B 1_555 1_555
N13B C10A 1_555 1_555
C10B N13 1_555 1_555
O5A C11A 1_555 1_555
N14A C11A 1_555 1_555
C11A N14 1_555 1_555
O5B C11B 1_555 1_555
N14B C11 1_555 1_555
C11B N14A 1_555 1_555
O6A C12A 1_555 1_555
N15A C12A 1_555 1_555
C12A N15 1_555 1_555
O6B C12B 1_555 1_555
N15B C12 1_555 1_555
C12B N15A 1_555 1_555
Zn1A O1A 1_555 1_555
Zn2A O7A 1_555 1_555
Zn3A O7A 1_555 1_555
Zn4A O3A 1_555 1_555
Zn5A N12A 1_555 1_555
Zn6A O8A 1_555 1_555
Zn7A O6 1_555 1_555
Zn8A N14A 1_555 1_555
Zn9A O9A 1_555 1_555
O7A Zn1A 1_555 1_555
H1A O7A 1_555 1_555
O8A Zn5A 1_555 1_555
H2A O8A 1_555 1_555
O9A Zn4A 1_555 1_555
H3A O9A 1_555 1_555
O10A Zn2A 1_555 1_555
H4A O10A 1_555 1_555
O11A Zn3A 1_555 1_555
H5A O11A 1_555 1_555
O12A Zn4A 1_555 1_555
H6A O12A 1_555 1_555
O13A Zn6A 1_555 1_555
H7A O13A 1_555 1_555
O14A Zn7A 1_555 1_555
H8A O14A 1_555 1_555
O15A Zn9A 1_555 1_555
H9A O15A 1_555 1_555
N1A Zn1A 1_555 1_555
N2A N3A 1_555 1_555
N3A C2A 1_555 1_555
N4A Zn4A 1_555 1_555
N5A Zn2A 1_555 1_555
N6A Zn3A 1_555 1_555
N7A Zn7A 1_555 1_555
N8A N9A 1_555 1_555
N9A C6A 1_555 1_555
C1A N1A 1_555 1_555
H10A C1A 1_555 1_555
C2A N1A 1_555 1_555
H11A C2A 1_555 1_555
C3A N4A 1_555 1_555
H12A C3A 1_555 1_555
C4A N4A 1_555 1_555
H13A C4A 1_555 1_555
C5A N7A 1_555 1_555
H14A C5A 1_555 1_555
C6A N7A 1_555 1_555
H15A C6A 1_555 1_555
Zn1B O7B 1_555 1_555
Zn2B O7B 1_555 1_555
Zn3B O7B 1_555 1_555
Zn4B O13A 1_555 1_555
Zn5B O8B 1_555 1_555
Zn6B O8B 1_555 1_555
Zn7B O8B 1_555 1_555
Zn8B O9B 1_555 1_555
Zn9B N15B 1_555 1_555
O7B H1B 1_555 1_555
O8B H2B 1_555 1_555
O9B Zn4B 1_555 1_555
H3B O9B 1_555 1_555
O10B Zn2B 1_555 1_555
H4B O10B 1_555 1_555
O11B Zn3B 1_555 1_555
H5B O11B 1_555 1_555
O12B Zn4B 1_555 1_555
H6B O12B 1_555 1_555
O13B Zn6B 1_555 1_555
H7B O13B 1_555 1_555
O14B Zn7B 1_555 1_555
H8B O14B 1_555 1_555
O15B Zn7A 1_555 1_555
H9B O15B 1_555 1_555
N1B Zn1B 1_555 1_555
N2B N3B 1_555 1_555
N3B C2B 1_555 1_555
N4B Zn4B 1_555 1_555
N5B Zn2B 1_555 1_555
N6B Zn3B 1_555 1_555
N7B Zn7B 1_555 1_555
N8B N9B 1_555 1_555
N9B C6B 1_555 1_555
C1B N1B 1_555 1_555
H10B C1B 1_555 1_555
C2B N1B 1_555 1_555
H11B C2B 1_555 1_555
C3B N4B 1_555 1_555
H12B C3B 1_555 1_555
C4B N4B 1_555 1_555
H13B C4B 1_555 1_555
C5B N7B 1_555 1_555
H14B C5B 1_555 1_555
C6B N7B 1_555 1_555
H15B C6B 1_555 1_555
Zn1A_2 O2A 1_555 1_555
Zn1B_2 O1B 1_555 1_555
Zn1B_3 O2B 1_555 1_555
Zn1C O11A 1_555 1_555
Zn1C_2 O10B 1_555 1_555
Zn1D O10 1_555 1_555
Zn1E O10A 1_555 1_555
Zn1E_2 O11 1_555 1_555
Zn2C N11 1_555 1_555
Zn2D N11A 1_555 1_555
Zn2E N11B 1_555 1_555
Zn3C N10 1_555 1_555
Zn3D N10A 1_555 1_555
Zn3E N10B 1_555 1_555
Zn4_2 O13B 1_555 1_555
Zn4_3 O4A 1_555 1_555
Zn4A_2 O13 1_555 1_555
Zn4B_2 O4 1_555 1_555
Zn5B_2 N12B 1_555 1_555
Zn5C N2 1_555 1_555
Zn5D N2A 1_555 1_555
Zn5E N2B 1_555 1_555
Zn6A_2 N13A 1_555 1_555
Zn6B_2 N13B 1_555 1_555
Zn6C N3 1_555 1_555
Zn6D N3A 1_555 1_555
Zn6E N3B 1_555 1_555
Zn7_2 O15A 1_555 1_555
Zn7_3 O6B 1_555 1_555
Zn7B_2 O5B 1_555 1_555
Zn7B_3 O15 1_555 1_555
Zn8B_2 N14B 1_555 1_555
Zn8C N9 1_555 1_555
Zn8D N9A 1_555 1_555
Zn8E N9B 1_555 1_555
Zn9A_2 N15A 1_555 1_555
Zn9C N8 1_555 1_555
Zn9D N8A 1_555 1_555
Zn9E N8B 1_555 1_555
O1B_2 Zn1B 1_555 1_555
O2A_2 Zn1A 1_555 1_555
O2B_2 Zn1B 1_555 1_555
O3B_2 Zn4B 1_555 1_555
O4_2 Zn4B 1_555 1_555
O4A_2 Zn4 1_555 1_555
O4B_2 Zn4A 1_555 1_555
O5B_2 Zn7B 1_555 1_555
O6A_2 Zn7B 1_555 1_555
O6B_2 Zn7 1_555 1_555
O10C Zn1A 1_555 1_555
O10D Zn1B 1_555 1_555
O10E Zn1 1_555 1_555
O11C Zn1B 1_555 1_555
O11D Zn1 1_555 1_555
O11E Zn1A 1_555 1_555
O13_2 Zn4A 1_555 1_555
O13B_2 Zn4 1_555 1_555
O15_2 Zn7B 1_555 1_555
O15A_2 Zn7 1_555 1_555
N2C Zn5 1_555 1_555
N2D Zn5A 1_555 1_555
N2E Zn5B 1_555 1_555
N3C Zn6 1_555 1_555
N3D Zn6A 1_555 1_555
N3E Zn6B 1_555 1_555
N8C Zn9 1_555 1_555
N8D Zn9A 1_555 1_555
N8E Zn9B 1_555 1_555
N9C Zn8 1_555 1_555
N9D Zn8A 1_555 1_555
N9E Zn8B 1_555 1_555
N10C Zn3 1_555 1_555
N10D Zn3A 1_555 1_555
N10E Zn3B 1_555 1_555
N11C Zn2 1_555 1_555
N11D Zn2A 1_555 1_555
N11E Zn2B 1_555 1_555
N12B_2 Zn5B 1_555 1_555
N13A_2 Zn6A 1_555 1_555
N13B_2 Zn6B 1_555 1_555
N14B_2 Zn8B 1_555 1_555
N15A_2 Zn9A 1_555 1_555
Zn5 O12 1_555 1_555
Zn8 O14 1_555 1_555
N2 C1 1_555 1_555
N5 N6 1_555 1_555
N5 C3 1_555 1_555
N6 C4 1_555 1_555
N8 C5 1_555 1_555
N11B C8B 1_555 1_555
O3B Zn4B_2 1_555 1_555
N12B C9B 1_555 1_555
O4B Zn4A_2 1_555 1_555
N13B C10B 1_555 1_555
O5A Zn7A 1_555 1_555
N14B C11B 1_555 1_555
O6A Zn7B_3 1_555 1_555
N15B C12B 1_555 1_555
Zn5A O12A 1_555 1_555
Zn7A O8A 1_555 1_555
Zn8A O9A 1_555 1_555
Zn8A O14A 1_555 1_555
N2A C1A 1_555 1_555
N5A N6A 1_555 1_555
N5A C3A 1_555 1_555
N6A C4A 1_555 1_555
N8A C5A 1_555 1_555
Zn5B O12B 1_555 1_555
Zn8B O14B 1_555 1_555
Zn9B O9B 1_555 1_555
Zn9B O15B 1_555 1_555
O11B Zn1D 1_555 1_555
N2B C1B 1_555 1_555
N5B N6B 1_555 1_555
N5B C3B 1_555 1_555
N6B C4B 1_555 1_555
N8B C5B 1_555 1_555
Zn2E O10E 1_555 1_555
Zn3D O11D 1_555 1_555
Zn3E O11E 1_555 1_555
N2C N3C 1_555 1_555
N2D N3D 1_555 1_555
N2E N3E 1_555 1_555
N8C N9C 1_555 1_555
N8D N9D 1_555 1_555
N8E N9E 1_555 1_555

#END
