
#######################################################################
#
#                 Cambridge Crystallographic Data Centre
#                                CCDC 
#
#######################################################################
#
# If this CIF has been generated from an entry in the Cambridge 
# Structural Database, then it will include bibliographic, chemical, 
# crystal, experimental, refinement or atomic coordinate data resulting 
# from the CCDC's data processing and validation procedures.
#
#######################################################################

data_QIMNIL
_symmetry_cell_setting           cubic
_symmetry_space_group_name_H-M   'P 43 3 2'
_symmetry_Int_Tables_number      212
_space_group_name_Hall           'P 4acd 2ab 3'
loop_
_symmetry_equiv_pos_site_id
_symmetry_equiv_pos_as_xyz
1 x,y,z
2 1/2-x,-y,1/2+z
3 -x,1/2+y,1/2-z
4 1/2+x,1/2-y,-z
5 z,x,y
6 1/2+z,1/2-x,-y
7 1/2-z,-x,1/2+y
8 -z,1/2+x,1/2-y
9 y,z,x
10 -y,1/2+z,1/2-x
11 1/2+y,1/2-z,-x
12 1/2-y,-z,1/2+x
13 1/4+y,3/4+x,3/4-z
14 1/4-y,1/4-x,1/4-z
15 3/4+y,3/4-x,1/4+z
16 3/4-y,1/4+x,3/4+z
17 1/4+x,3/4+z,3/4-y
18 3/4-x,1/4+z,3/4+y
19 1/4-x,1/4-z,1/4-y
20 3/4+x,3/4-z,1/4+y
21 1/4+z,3/4+y,3/4-x
22 3/4+z,3/4-y,1/4+x
23 3/4-z,1/4+y,3/4+x
24 1/4-z,1/4-y,1/4-x
_cell_length_a                   13.1478(6)
_cell_length_b                   13.1478(6)
_cell_length_c                   13.1478(6)
_cell_angle_alpha                90
_cell_angle_beta                 90
_cell_angle_gamma                90
_cell_volume                     2272.79
loop_
_atom_site_label
_atom_site_type_symbol
_atom_site_fract_x
_atom_site_fract_y
_atom_site_fract_z
Na1 Na 0.1250 0.1250 0.1250
N1 N 0.31084(7) 0.16329(7) 0.12890(7)
N2 N 0.34738(7) 0.23103(7) 0.19669(7)
N3 N 0.38518(7) 0.13882(8) 0.06602(7)
C1 C 0.46972(9) 0.19159(9) 0.09366(9)
H1 H 0.5328 0.1885 0.0618
C2 C 0.44609(9) 0.25008(9) 0.17642(9)
H2 H 0.4892 0.2939 0.2114
Na2 Na 0.3750 0.1250 -0.1250
B1 B 0.28050(9) 0.28050(9) 0.28050(9)
H3 H 0.3285(11) 0.3285(11) 0.3285(11)
N1D N 0.12890(7) 0.31084(7) 0.16329(7)
N2D N 0.19669(7) 0.34738(7) 0.23103(7)
N3D N 0.06602(7) 0.38518(7) 0.13882(8)
C1D C 0.09366(9) 0.46972(9) 0.19159(9)
H1D H 0.0618 0.5328 0.1885
C2D C 0.17642(9) 0.44609(9) 0.25008(9)
H2D H 0.2114 0.4892 0.2939
N1H N 0.16329(7) 0.12890(7) 0.31084(7)
N2H N 0.23103(7) 0.19669(7) 0.34738(7)
N3H N 0.13882(8) 0.06602(7) 0.38518(7)
C1H C 0.19159(9) 0.09366(9) 0.46972(9)
H1H H 0.1885 0.0618 0.5328
C2H C 0.25008(9) 0.17642(9) 0.44609(9)
H2H H 0.2939 0.2114 0.4892
N1M N 0.08671(7) -0.06084(7) 0.12110(7)
N2M N 0.01897(7) -0.09738(7) 0.05331(7)
N3M N 0.11118(8) -0.13518(7) 0.18398(7)
C1M C 0.05841(9) -0.21972(9) 0.15634(9)
H1M H 0.0615 -0.2828 0.1882
C2M C -0.00008(9) -0.19609(9) 0.07358(9)
H2M H -0.0439 -0.2392 0.0386
B1M B -0.03050(9) -0.03050(9) -0.03050(9)
H3M H -0.0785(11) -0.0785(11) -0.0785(11)
N1R N -0.06084(7) 0.12110(7) 0.08671(7)
N2R N -0.09738(7) 0.05331(7) 0.01897(7)
N3R N -0.13518(7) 0.18398(7) 0.11118(8)
C1R C -0.21972(9) 0.15634(9) 0.05841(9)
H1R H -0.2828 0.1882 0.0615
C2R C -0.19609(9) 0.07358(9) -0.00008(9)
H2R H -0.2392 0.0386 -0.0439
N1W N 0.12110(7) 0.08671(7) -0.06084(7)
N2W N 0.05331(7) 0.01897(7) -0.09738(7)
N3W N 0.18398(7) 0.11118(8) -0.13518(7)
C1W C 0.15634(9) 0.05841(9) -0.21972(9)
H1W H 0.1882 0.0615 -0.2828
C2W C 0.07358(9) -0.00008(9) -0.19609(9)
H2W H 0.0386 -0.0439 -0.2392
N3E N 0.56602(7) 0.11482(7) -0.13882(8)
N3K N 0.36118(8) -0.06602(7) -0.11482(7)
N3L N 0.38882(8) 0.13518(7) -0.31602(7)
N3Q N 0.36482(7) 0.31602(7) -0.11118(8)
Na2A Na 0.1250 -0.1250 0.3750
Na2C Na -0.1250 0.3750 0.1250
loop_
_geom_bond_atom_site_label_1
_geom_bond_atom_site_label_2
_geom_bond_site_symmetry_1
_geom_bond_site_symmetry_2
Na1 N1 1_555 1_555
N1 N2 1_555 1_555
N2 C2 1_555 1_555
N3 N1 1_555 1_555
C1 N3 1_555 1_555
H1 C1 1_555 1_555
C2 C1 1_555 1_555
H2 C2 1_555 1_555
Na2 N3 1_555 1_555
B1 N2 1_555 1_555
H3 B1 1_555 1_555
N1D Na1 1_555 1_555
N2D B1 1_555 1_555
N3D N1D 1_555 1_555
C1D N3D 1_555 1_555
H1D C1D 1_555 1_555
C2D N2D 1_555 1_555
H2D C2D 1_555 1_555
N1H Na1 1_555 1_555
N2H B1 1_555 1_555
N3H N1H 1_555 1_555
C1H N3H 1_555 1_555
H1H C1H 1_555 1_555
C2H N2H 1_555 1_555
H2H C2H 1_555 1_555
N1M Na1 1_555 1_555
N2M N1M 1_555 1_555
N3M N1M 1_555 1_555
C1M N3M 1_555 1_555
H1M C1M 1_555 1_555
C2M N2M 1_555 1_555
H2M C2M 1_555 1_555
B1M N2M 1_555 1_555
H3M B1M 1_555 1_555
N1R Na1 1_555 1_555
N2R B1M 1_555 1_555
N3R N1R 1_555 1_555
C1R N3R 1_555 1_555
H1R C1R 1_555 1_555
C2R N2R 1_555 1_555
H2R C2R 1_555 1_555
N1W Na1 1_555 1_555
N2W B1M 1_555 1_555
N3W Na2 1_555 1_555
C1W N3W 1_555 1_555
H1W C1W 1_555 1_555
C2W N2W 1_555 1_555
H2W C2W 1_555 1_555
N3E Na2 1_555 1_555
N3K Na2 1_555 1_555
N3L Na2 1_555 1_555
N3Q Na2 1_555 1_555
Na2A N3H 1_555 1_555
Na2C N3D 1_555 1_555
N1D N2D 1_555 1_555
C1D C2D 1_555 1_555
N1H N2H 1_555 1_555
C1H C2H 1_555 1_555
N3M Na2A 1_555 1_555
C1M C2M 1_555 1_555
N1R N2R 1_555 1_555
N3R Na2C 1_555 1_555
C1R C2R 1_555 1_555
N1W N2W 1_555 1_555
N1W N3W 1_555 1_555
C1W C2W 1_555 1_555

#END
