
#######################################################################
#
#                 Cambridge Crystallographic Data Centre
#                                CCDC 
#
#######################################################################
#
# If this CIF has been generated from an entry in the Cambridge 
# Structural Database, then it will include bibliographic, chemical, 
# crystal, experimental, refinement or atomic coordinate data resulting 
# from the CCDC's data processing and validation procedures.
#
#######################################################################

data_QIMSEM
_symmetry_cell_setting           triclinic
_symmetry_space_group_name_H-M   'P -1'
_symmetry_Int_Tables_number      2
_space_group_name_Hall           '-P 1'
loop_
_symmetry_equiv_pos_site_id
_symmetry_equiv_pos_as_xyz
1 x,y,z
2 -x,-y,-z
_cell_length_a                   4.9169(3)
_cell_length_b                   5.2950(3)
_cell_length_c                   12.4280(7)
_cell_angle_alpha                79.2480(10)
_cell_angle_beta                 81.3300(10)
_cell_angle_gamma                80.2850(10)
_cell_volume                     310.938
loop_
_atom_site_label
_atom_site_type_symbol
_atom_site_fract_x
_atom_site_fract_y
_atom_site_fract_z
Co1 Co 0.0000 1.0000 1.0000
Co2 Co 0.12806(6) 0.54944(5) 0.87071(2)
P1 P 0.43933(11) 1.01920(10) 1.17907(4)
O1 O 0.1773(3) 0.6300(3) 1.02537(13)
O2 O 0.1493(3) 1.0823(3) 1.14241(13)
O3 O 0.6444(3) 0.8528(3) 1.10630(14)
O4 O 0.5419(3) 1.2583(3) 1.19939(14)
N1 N 0.0169(4) 0.4819(4) 0.72056(16)
H1 H 0.0583 0.3105 0.7187
H2 H -0.1687 0.5235 0.7223
C1 C 0.0005(6) 0.6316(5) 0.5155(2)
H3 H -0.1902 0.7141 0.5294
H4 H 0.0917 0.7394 0.4533
C2 C 0.1464(6) 0.6209(5) 0.6170(2)
H5 H 0.3369 0.5380 0.6028
H6 H 0.1523 0.7973 0.6267
H7 H 0.4197 0.8787 1.2863
H8 H 0.3331 0.6165 1.0455
N1A N -0.0169(4) 0.5181(4) 0.27944(16)
H1A H -0.0583 0.6895 0.2813
H2A H 0.1687 0.4765 0.2777
C1A C -0.0005(6) 0.3684(5) 0.4845(2)
H3A H 0.1902 0.2859 0.4706
H4A H -0.0917 0.2606 0.5467
C2A C -0.1464(6) 0.3791(5) 0.3830(2)
H5A H -0.3369 0.4620 0.3972
H6A H -0.1523 0.2027 0.3733
Co2A Co -0.12806(6) 0.45056(5) 0.12929(2)
O1A O -0.1773(3) 0.3700(3) -0.02537(13)
H8A H -0.3331 0.3835 -0.0455
P1A P -0.43933(11) 0.98080(10) 0.82093(4)
O2A O -0.1493(3) 0.9177(3) 0.85759(13)
O3A O -0.6444(3) 1.1472(3) 0.89370(14)
O4A O -0.5419(3) 0.7417(3) 0.80061(14)
H7A H -0.4197 1.1213 0.7137
Co1_2 Co -1.0000 1.0000 1.0000
Co1_3 Co 0.0000 0.0000 0.0000
Co1_4 Co 1.0000 1.0000 1.0000
Co2_2 Co -0.87194(6) 0.54944(5) 0.87071(2)
Co2_3 Co -0.87194(6) 1.54944(5) 0.87071(2)
Co2_4 Co 0.12806(6) 0.54944(5) -0.12929(2)
Co2A_2 Co -0.12806(6) 0.45056(5) 1.12929(2)
Co2A_3 Co -0.12806(6) 1.45056(5) 1.12929(2)
Co2A_4 Co 0.87194(6) 0.45056(5) 1.12929(2)
Co2A_5 Co 0.87194(6) 1.45056(5) 1.12929(2)
O1_2 O 0.1773(3) 0.6300(3) 0.02537(13)
O1A_2 O -0.1773(3) 0.3700(3) 0.97463(13)
O1A_3 O -0.1773(3) 1.3700(3) 0.97463(13)
O2_2 O 0.1493(3) 0.0823(3) 0.14241(13)
O3_2 O -0.3556(3) 0.8528(3) 0.10630(14)
O3_3 O -0.3556(3) 0.8528(3) 1.10630(14)
O3A_2 O 0.3556(3) 0.1472(3) 0.89370(14)
O3A_3 O 0.3556(3) 1.1472(3) 0.89370(14)
O4_2 O -0.4581(3) 0.2583(3) 0.19939(14)
O4A_2 O 0.4581(3) 0.7417(3) 0.80061(14)
loop_
_geom_bond_atom_site_label_1
_geom_bond_atom_site_label_2
_geom_bond_site_symmetry_1
_geom_bond_site_symmetry_2
Co1 O1 1_555 1_555
Co2 O1 1_555 1_555
P1 O2 1_555 1_555
O1 H8 1_555 1_555
O2 Co1 1_555 1_555
O3 P1 1_555 1_555
O4 P1 1_555 1_555
N1 Co2 1_555 1_555
H1 N1 1_555 1_555
H2 N1 1_555 1_555
C1 H3 1_555 1_555
H4 C1 1_555 1_555
C2 N1 1_555 1_555
H5 C2 1_555 1_555
H6 C2 1_555 1_555
H7 P1 1_555 1_555
N1A H1A 1_555 1_555
H2A N1A 1_555 1_555
C1A C1 1_555 1_555
H3A C1A 1_555 1_555
H4A C1A 1_555 1_555
C2A N1A 1_555 1_555
H5A C2A 1_555 1_555
H6A C2A 1_555 1_555
Co2A N1A 1_555 1_555
O1A Co2A 1_555 1_555
H8A O1A 1_555 1_555
P1A O2A 1_555 1_555
O2A Co1 1_555 1_555
O3A P1A 1_555 1_555
O4A P1A 1_555 1_555
H7A P1A 1_555 1_555
Co1_2 O3A 1_555 1_555
Co1_3 O1A 1_555 1_555
Co1_4 O3 1_555 1_555
Co2_2 O4A 1_555 1_555
Co2_3 O3A 1_555 1_555
Co2_4 O1A 1_555 1_555
Co2A_2 O1 1_555 1_555
Co2A_3 O2 1_555 1_555
Co2A_4 O3 1_555 1_555
Co2A_5 O4 1_555 1_555
O1_2 Co2A 1_555 1_555
O1A_2 Co2 1_555 1_555
O1A_3 Co1 1_555 1_555
O2_2 Co2A 1_555 1_555
O3_2 Co2A 1_555 1_555
O3_3 Co1 1_555 1_555
O3A_2 Co2 1_555 1_555
O3A_3 Co1 1_555 1_555
O4_2 Co2A 1_555 1_555
O4A_2 Co2 1_555 1_555
Co2 O2A 1_555 1_555
C1 C2 1_555 1_555
C1A C2A 1_555 1_555
Co1_3 O2_2 1_555 1_555
Co2_4 O1_2 1_555 1_555
Co2A_2 O1A_2 1_555 1_555
Co2A_2 O3_3 1_555 1_555
Co2A_3 O1A_3 1_555 1_555

#END
