
#######################################################################
#
#                 Cambridge Crystallographic Data Centre
#                                CCDC 
#
#######################################################################
#
# If this CIF has been generated from an entry in the Cambridge 
# Structural Database, then it will include bibliographic, chemical, 
# crystal, experimental, refinement or atomic coordinate data resulting 
# from the CCDC's data processing and validation procedures.
#
#######################################################################

data_QINLOO
_symmetry_cell_setting           orthorhombic
_symmetry_space_group_name_H-M   'P c a 21'
_symmetry_Int_Tables_number      29
_space_group_name_Hall           'P 2c -2ac'
loop_
_symmetry_equiv_pos_site_id
_symmetry_equiv_pos_as_xyz
1 x,y,z
2 -x,-y,1/2+z
3 1/2-x,y,1/2+z
4 1/2+x,-y,z
_cell_length_a                   11.616(2)
_cell_length_b                   10.755(2)
_cell_length_c                   12.300(3)
_cell_angle_alpha                90
_cell_angle_beta                 90
_cell_angle_gamma                90
_cell_volume                     1536.64
loop_
_atom_site_label
_atom_site_type_symbol
_atom_site_fract_x
_atom_site_fract_y
_atom_site_fract_z
Cu1 Cu 0.9580(1) 0.7433(1) 0.3718(1)
V1 V 1.2729(1) 0.8880(1) 0.1676(1)
P1 P 1.0109(1) 0.9798(1) 0.2332(1)
P2 P 1.1710(1) 0.9197(1) 0.4099(1)
O1 O 0.9395(2) 0.8637(3) 0.2541(2)
O2 O 1.1097(2) 0.7941(3) 0.4187(2)
O3 O 0.8794(3) 0.8379(3) 0.5136(2)
O4 O 1.2692(2) 0.9166(3) 0.3270(2)
O5 O 1.1154(2) 0.9540(3) 0.1613(2)
O6 O 1.2615(3) 0.7420(2) 0.1484(2)
O7 O 1.2177(2) 0.9643(3) 0.5191(2)
O8 O 0.9422(2) 1.0835(3) 0.1781(2)
C1 C 1.0679(4) 0.5461(4) 0.5132(3)
C2 C 1.0834(4) 0.4249(4) 0.5494(4)
C3 C 1.0048(4) 0.3342(4) 0.5187(4)
C4 C 0.9136(4) 0.3652(4) 0.4514(4)
C5 C 0.9038(4) 0.4879(4) 0.4160(3)
C6 C 0.8102(3) 0.5330(4) 0.3446(3)
C7 C 0.7213(4) 0.4588(4) 0.3069(3)
C8 C 0.6362(4) 0.5130(4) 0.2426(4)
C9 C 0.6418(3) 0.6384(4) 0.2188(4)
C10 C 0.7360(3) 0.7069(4) 0.2562(3)
C11 C 1.0661(3) 1.0318(3) 0.3629(3)
N1 N 0.9801(3) 0.5766(3) 0.4468(3)
N2 N 0.8178(3) 0.6557(3) 0.3176(3)
H1 H 1.1193 0.6075 0.5351
H2 H 1.1456 0.4048 0.5937
H3 H 1.0133 0.2529 0.5432
H4 H 0.8601 0.3055 0.4304
H5 H 0.7185 0.3746 0.3240
H6 H 0.5758 0.4651 0.2160
H7 H 0.5840 0.6765 0.1785
H8 H 0.7418 0.7906 0.2377
H9 H 1.0060(20) 1.0385(4) 0.4132(18)
H10 H 1.1005(12) 1.1100(30) 0.3554(4)
V1B V 1.2271(1) 0.8880(1) 0.6676(1)
O7B O 1.2823(2) 0.9643(3) 0.0191(2)
O8C O 1.4422(2) 0.9165(3) 0.1781(2)
V1C V 0.7729(1) 1.1120(1) 0.1676(1)
loop_
_geom_bond_atom_site_label_1
_geom_bond_atom_site_label_2
_geom_bond_site_symmetry_1
_geom_bond_site_symmetry_2
Cu1 O1 1_555 1_555
V1 O4 1_555 1_555
P1 O1 1_555 1_555
P2 O2 1_555 1_555
O2 Cu1 1_555 1_555
O3 Cu1 1_555 1_555
O4 P2 1_555 1_555
O5 V1 1_555 1_555
O6 V1 1_555 1_555
O7 P2 1_555 1_555
O8 P1 1_555 1_555
C1 C2 1_555 1_555
C2 C3 1_555 1_555
C3 C4 1_555 1_555
C4 C5 1_555 1_555
C5 C6 1_555 1_555
C6 C7 1_555 1_555
C7 C8 1_555 1_555
C8 C9 1_555 1_555
C9 C10 1_555 1_555
C10 N2 1_555 1_555
C11 P1 1_555 1_555
N1 Cu1 1_555 1_555
N2 Cu1 1_555 1_555
H1 C1 1_555 1_555
H2 C2 1_555 1_555
H3 C3 1_555 1_555
H4 C4 1_555 1_555
H5 C7 1_555 1_555
H6 C8 1_555 1_555
H7 C9 1_555 1_555
H8 C10 1_555 1_555
H9 C11 1_555 1_555
H10 C11 1_555 1_555
V1B O7 1_555 1_555
O7B V1 1_555 1_555
O8C V1 1_555 1_555
V1C O8 1_555 1_555
P1 O5 1_555 1_555
P2 C11 1_555 1_555
C1 N1 1_555 1_555
C5 N1 1_555 1_555
C6 N2 1_555 1_555

#END
