
#######################################################################
#
#                 Cambridge Crystallographic Data Centre
#                                CCDC 
#
#######################################################################
#
# If this CIF has been generated from an entry in the Cambridge 
# Structural Database, then it will include bibliographic, chemical, 
# crystal, experimental, refinement or atomic coordinate data resulting 
# from the CCDC's data processing and validation procedures.
#
#######################################################################

data_QINMAB
_symmetry_cell_setting           monoclinic
_symmetry_space_group_name_H-M   'P 21/c'
_symmetry_Int_Tables_number      14
_space_group_name_Hall           '-P 2ybc'
loop_
_symmetry_equiv_pos_site_id
_symmetry_equiv_pos_as_xyz
1 x,y,z
2 -x,1/2+y,1/2-z
3 -x,-y,-z
4 x,1/2-y,1/2+z
_cell_length_a                   9.9137(9)
_cell_length_b                   17.678(1)
_cell_length_c                   20.876(1)
_cell_angle_alpha                90
_cell_angle_beta                 103.167(2)
_cell_angle_gamma                90
_cell_volume                     3562.43
loop_
_atom_site_label
_atom_site_type_symbol
_atom_site_fract_x
_atom_site_fract_y
_atom_site_fract_z
Cu1 Cu 0.0368(1) -0.3378(1) 0.3723(1)
Cu2 Cu -0.4068(1) 0.0127(1) 0.3964(1)
V1 V -0.8160(1) -0.4236(1) 0.1957(1)
V2 V -0.2752(1) -0.4067(1) 0.2836(1)
P1 P -0.0117(1) 0.0070(1) 0.2098(1)
P2 P -0.0592(1) -0.3064(1) 0.2210(1)
P3 P -0.5464(1) -0.3330(1) 0.1853(1)
P4 P -0.4628(1) -0.0205(1) 0.2432(1)
O1 O -0.0838(3) 0.0713(1) 0.1665(1)
O2 O 0.0123(3) -0.2821(1) 0.2906(1)
O3 O -0.1928(3) -0.3514(1) 0.2196(1)
O4 O -0.2084(3) -0.3696(2) 0.3538(1)
O5 O -0.4446(3) -0.3469(1) 0.2513(1)
O6 O -0.5958(2) 0.0126(1) 0.1999(1)
O7 O 0.1468(3) 0.0089(1) 0.2208(1)
O8 O -0.6959(3) -0.3330(1) 0.1946(1)
O9 O -0.5264(3) -0.3872(1) 0.1313(1)
O10 O -0.1870(2) 0.0409(1) 0.3753(1)
O11 O -0.4775(3) -0.0363(2) 0.3131(1)
O12 O 0.0369(3) -0.3479(1) 0.1854(1)
O13 O -0.0571(3) 0.0044(1) 0.2751(1)
O14 O -0.3371(3) 0.0299(1) 0.2419(1)
N1 N 0.0149(3) -0.2434(2) 0.4212(2)
N2 N 0.1107(4) -0.3750(2) 0.4638(2)
N3 N -0.3626(3) -0.0894(2) 0.4392(2)
N4 N -0.3486(3) 0.0446(2) 0.4912(2)
C1 C -0.0356(4) -0.1782(2) 0.3939(2)
C2 C -0.0413(4) -0.1133(2) 0.4307(2)
C3 C 0.0054(4) -0.1174(2) 0.4985(2)
C4 C 0.0583(4) -0.1856(2) 0.5278(2)
C5 C 0.0606(4) -0.2473(2) 0.4875(2)
C6 C 0.1144(4) -0.3236(2) 0.5115(2)
C7 C 0.1639(4) -0.3405(2) 0.5773(2)
C8 C 0.2085(4) -0.4140(2) 0.5945(2)
C9 C 0.2058(5) -0.4667(2) 0.5456(2)
C10 C 0.1574(5) -0.4452(2) 0.4805(2)
C11 C -0.3768(4) -0.1556(2) 0.4077(2)
C12 C -0.3550(4) -0.2244(2) 0.4405(2)
C13 C -0.3188(4) -0.2240(2) 0.5088(2)
C14 C -0.3020(4) -0.1552(2) 0.5419(2)
C15 C -0.3234(4) -0.0887(2) 0.5056(2)
C16 C -0.3087(4) -0.0121(2) 0.5351(2)
C17 C -0.2617(4) 0.0021(2) 0.6023(2)
C18 C -0.2591(4) 0.0762(2) 0.6246(2)
C19 C -0.3018(4) 0.1341(2) 0.5797(2)
C20 C -0.3451(4) 0.1165(2) 0.5134(2)
C21 C -0.0723(4) -0.0785(2) 0.1665(2)
C22 C -0.0217(4) -0.1509(2) 0.2051(2)
C23 C -0.1064(4) -0.2204(2) 0.1756(2)
C24 C -0.4328(4) -0.1079(2) 0.2043(2)
C25 C -0.5223(4) -0.1773(2) 0.2117(2)
C26 C -0.5111(4) -0.2388(2) 0.1608(2)
O6A O -0.4042(2) -0.4874(1) 0.3001(1)
V2A V -0.7248(1) 0.0933(1) 0.2164(1)
V1A V -0.1840(1) 0.0764(1) 0.3043(1)
O10A O -0.8130(2) -0.4591(1) 0.1247(1)
Cu2A Cu -0.5932(1) -0.4873(1) 0.1036(1)
O9A O -0.4736(3) 0.1128(1) 0.3687(1)
O14A O -0.6629(3) -0.4701(1) 0.2581(1)
O12_2 O -0.9631(3) -0.3479(1) 0.1854(1)
O13A O -0.9429(3) -0.4956(1) 0.2249(1)
V1_2 V 0.1840(1) -0.4236(1) 0.1957(1)
O1A O 0.0838(3) -0.4287(1) 0.3335(1)
O7A O -0.1468(3) -0.4911(1) 0.2792(1)
Cu1A Cu -0.0368(1) 0.1622(1) 0.1277(1)
V2A_2 V 0.2752(1) 0.0933(1) 0.2164(1)
O15 O -0.6797(5) -0.2937(2) 0.3353(2)
O16 O -0.5416(5) -0.4305(3) 0.4059(2)
O17 O -0.6060(5) -0.5828(3) 0.4611(2)
loop_
_geom_bond_atom_site_label_1
_geom_bond_atom_site_label_2
_geom_bond_site_symmetry_1
_geom_bond_site_symmetry_2
Cu1 O2 1_555 1_555
Cu2 O10 1_555 1_555
V1 O8 1_555 1_555
V2 O3 1_555 1_555
P1 O1 1_555 1_555
P2 O2 1_555 1_555
P3 O5 1_555 1_555
P4 O6 1_555 1_555
O1 Cu1A 1_555 1_555
O3 P2 1_555 1_555
O4 Cu1 1_555 1_555
O5 V2 1_555 1_555
O6 V2A 1_555 1_555
O7 P1 1_555 1_555
O8 P3 1_555 1_555
O9 P3 1_555 1_555
O10 V1A 1_555 1_555
O11 Cu2 1_555 1_555
O12 P2 1_555 1_555
O13 P1 1_555 1_555
O14 P4 1_555 1_555
N1 Cu1 1_555 1_555
N2 Cu1 1_555 1_555
N3 Cu2 1_555 1_555
N4 Cu2 1_555 1_555
C1 N1 1_555 1_555
C2 C1 1_555 1_555
C3 C2 1_555 1_555
C4 C3 1_555 1_555
C5 N1 1_555 1_555
C6 N2 1_555 1_555
C7 C6 1_555 1_555
C8 C7 1_555 1_555
C9 C8 1_555 1_555
C10 N2 1_555 1_555
C11 N3 1_555 1_555
C12 C11 1_555 1_555
C13 C12 1_555 1_555
C14 C13 1_555 1_555
C15 N3 1_555 1_555
C16 N4 1_555 1_555
C17 C16 1_555 1_555
C18 C17 1_555 1_555
C19 C18 1_555 1_555
C20 N4 1_555 1_555
C21 P1 1_555 1_555
C22 C21 1_555 1_555
C23 P2 1_555 1_555
C24 P4 1_555 1_555
C25 C24 1_555 1_555
C26 P3 1_555 1_555
O6A V2 1_555 1_555
V1A O13 1_555 1_555
O10A V1 1_555 1_555
Cu2A O9 1_555 1_555
O9A Cu2 1_555 1_555
O14A V1 1_555 1_555
O12_2 V1 1_555 1_555
O13A V1 1_555 1_555
V1_2 O12 1_555 1_555
O1A Cu1 1_555 1_555
O7A V2 1_555 1_555
V2A_2 O7 1_555 1_555
V2 O4 1_555 1_555
P4 O11 1_555 1_555
O14 V1A 1_555 1_555
C4 C5 1_555 1_555
C5 C6 1_555 1_555
C9 C10 1_555 1_555
C14 C15 1_555 1_555
C15 C16 1_555 1_555
C19 C20 1_555 1_555
C22 C23 1_555 1_555
C25 C26 1_555 1_555
O10A Cu2A 1_555 1_555

#END
