
#######################################################################
#
#                 Cambridge Crystallographic Data Centre
#                                CCDC 
#
#######################################################################
#
# If this CIF has been generated from an entry in the Cambridge 
# Structural Database, then it will include bibliographic, chemical, 
# crystal, experimental, refinement or atomic coordinate data resulting 
# from the CCDC's data processing and validation procedures.
#
#######################################################################

data_QIPGAX
_symmetry_cell_setting           monoclinic
_symmetry_space_group_name_H-M   'P 21/c'
_symmetry_Int_Tables_number      14
_space_group_name_Hall           '-P 2ybc'
loop_
_symmetry_equiv_pos_site_id
_symmetry_equiv_pos_as_xyz
1 x,y,z
2 -x,1/2+y,1/2-z
3 -x,-y,-z
4 x,1/2-y,1/2+z
_cell_length_a                   36.0828(4)
_cell_length_b                   10.5122(1)
_cell_length_c                   17.9674(3)
_cell_angle_alpha                90
_cell_angle_beta                 92.691(1)
_cell_angle_gamma                90
_cell_volume                     6807.69
loop_
_atom_site_label
_atom_site_type_symbol
_atom_site_fract_x
_atom_site_fract_y
_atom_site_fract_z
Au1 Au -0.3493(1) -1.1626(1) 0.6955(1)
Au2 Au -0.4291(1) -0.2144(1) 0.6275(1)
P1 P -0.3424(2) -1.3467(9) 0.7613(5)
P2 P -0.4636(2) -0.0521(8) 0.6704(5)
C1 C -0.3511(7) -1.0003(34) 0.6395(18)
C2 C -0.3488(8) -0.9009(33) 0.6026(18)
C3 C -0.4032(8) -0.3689(30) 0.5913(16)
C4 C -0.3884(9) -0.4601(29) 0.5655(17)
C5 C -0.3059(15) -0.6597(44) 0.3886(28)
C6 C -0.3845(11) -1.4323(40) 0.7794(22)
C7 C -0.4444(9) 0.1040(32) 0.6633(21)
C8 C -0.3487(6) -0.7880(14) 0.5572(11)
C9 C -0.3279(6) -0.7770(16) 0.4945(13)
C10 C -0.3273(7) -0.6627(20) 0.4557(11)
C11 C -0.3476(7) -0.5593(15) 0.4797(11)
C12 C -0.3685(5) -0.5703(14) 0.5424(11)
C13 C -0.3690(5) -0.6846(17) 0.5812(9)
C14 C -0.2827(7) -1.2666(32) 0.8541(12)
C15 C -0.2654(7) -1.2367(34) 0.9226(15)
C16 C -0.2839(9) -1.2552(32) 0.9878(11)
C17 C -0.3198(9) -1.3036(31) 0.9846(11)
C18 C -0.3371(7) -1.3335(29) 0.9162(14)
C19 C -0.3186(8) -1.3150(27) 0.8509(10)
C20 C -0.2878(9) -1.4203(22) 0.6664(18)
C21 C -0.2642(8) -1.5066(31) 0.6343(15)
C22 C -0.2647(8) -1.6339(27) 0.6551(15)
C23 C -0.2890(8) -1.6750(19) 0.7080(17)
C24 C -0.3126(7) -1.5887(25) 0.7401(15)
C25 C -0.3121(7) -1.4614(23) 0.7193(16)
C26 C -0.4409(4) -0.0927(22) 0.8169(11)
C27 C -0.4444(6) -0.1028(23) 0.8934(10)
C28 C -0.4788(7) -0.0840(23) 0.9235(8)
C29 C -0.5096(5) -0.0551(22) 0.8773(11)
C30 C -0.5060(5) -0.0450(20) 0.8008(10)
C31 C -0.4717(6) -0.0637(20) 0.7706(8)
C32 C -0.5291(7) -0.1669(20) 0.6179(14)
C33 C -0.5623(7) -0.1718(22) 0.5753(16)
C34 C -0.5765(5) -0.0621(30) 0.5414(13)
C35 C -0.5575(7) 0.0524(24) 0.5502(13)
C36 C -0.5244(6) 0.0573(20) 0.5928(13)
C37 C -0.5102(5) -0.0524(25) 0.6266(12)
H1 H -0.2934(15) -0.7397(44) 0.3831(28)
H2 H -0.2879(15) -0.5926(44) 0.3927(28)
H3 H -0.3223(15) -0.6449(44) 0.3458(28)
H4 H -0.4018(11) -1.3755(40) 0.8012(22)
H5 H -0.3789(11) -1.5011(40) 0.8132(22)
H6 H -0.3952(11) -1.4655(40) 0.7335(22)
H7 H -0.4196(9) 0.1046(32) 0.6854(21)
H8 H -0.4594(9) 0.1634(32) 0.6890(21)
H9 H -0.4438(9) 0.1277(32) 0.6118(21)
H10 H -0.3143(8) -0.8462(21) 0.4784(18)
H11 H -0.3472(9) -0.4828(19) 0.4537(15)
H12 H -0.3830(8) -0.6919(24) 0.6233(12)
H13 H -0.2703(7) -1.2542(32) 0.8105(12)
H14 H -0.2414(8) -1.2043(49) 0.9248(22)
H15 H -0.2723(12) -1.2352(46) 1.0336(13)
H16 H -0.3322(12) -1.3160(46) 1.0283(13)
H17 H -0.3612(8) -1.3659(43) 0.9140(21)
H18 H -0.2875(9) -1.3351(22) 0.6525(18)
H19 H -0.2479(11) -1.4792(42) 0.5989(21)
H20 H -0.2489(11) -1.6917(36) 0.6336(22)
H21 H -0.2893(12) -1.7602(20) 0.7219(24)
H22 H -0.3288(10) -1.6162(36) 0.7755(21)
H23 H -0.4179(4) -0.1052(22) 0.7967(11)
H24 H -0.4238(7) -0.1222(34) 0.9243(14)
H25 H -0.4812(9) -0.0908(33) 0.9747(8)
H26 H -0.5326(6) -0.0425(32) 0.8975(15)
H27 H -0.5266(6) -0.0256(30) 0.7698(14)
H28 H -0.5196(7) -0.2403(20) 0.6406(14)
H29 H -0.5749(10) -0.2484(26) 0.5694(22)
H30 H -0.5986(7) -0.0654(41) 0.5129(18)
H31 H -0.5670(10) 0.1258(29) 0.5275(18)
H32 H -0.5117(9) 0.1340(23) 0.5986(19)
Au2_2 Au -0.4291(1) -1.2144(1) 0.6275(1)
Au1_2 Au -0.3493(1) -0.1626(1) 0.6955(1)
Au3 Au -0.1531(1) -1.6410(1) 0.6808(1)
Au4 Au -0.0755(1) -0.7162(1) 0.6209(1)
P3 P -0.1604(2) -1.8032(8) 0.7642(5)
P4 P -0.0402(2) -0.5528(7) 0.6697(4)
C38 C -0.1515(8) -1.4922(30) 0.6083(19)
C39 C -0.1520(8) -1.4019(27) 0.5692(17)
C40 C -0.1005(8) -0.8736(29) 0.5686(17)
C41 C -0.1129(8) -0.9636(29) 0.5426(15)
C42 C -0.1662(12) -1.1916(31) 0.3175(20)
C43 C -0.1182(10) -1.9047(34) 0.7819(27)
C44 C -0.0594(8) -0.3954(29) 0.6611(18)
C45 C -0.1487(5) -1.2937(13) 0.5215(10)
C46 C -0.1605(5) -1.2957(14) 0.4467(11)
C47 C -0.1558(5) -1.1889(18) 0.4025(8)
C48 C -0.1393(5) -1.0801(15) 0.4331(10)
C49 C -0.1275(5) -1.0782(13) 0.5078(10)
C50 C -0.1322(5) -1.1850(17) 0.5520(8)
C51 C -0.1872(5) -1.9785(24) 0.6647(13)
C52 C -0.2131(7) -2.0629(26) 0.6330(13)
C53 C -0.2463(6) -2.0844(26) 0.6670(15)
C54 C -0.2537(5) -2.0216(27) 0.7327(15)
C55 C -0.2279(6) -1.9373(23) 0.7645(13)
C56 C -0.1946(5) -1.9157(19) 0.7305(13)
C57 C -0.1693(7) -1.7977(23) 0.9190(15)
C58 C -0.1869(8) -1.7590(29) 0.9824(11)
C59 C -0.2137(8) -1.6643(29) 0.9775(12)
C60 C -0.2231(6) -1.6082(23) 0.9091(16)
C61 C -0.2056(7) -1.6468(24) 0.8456(11)
C62 C -0.1787(7) -1.7416(24) 0.8506(11)
C63 C 0.0225(6) -0.6656(16) 0.6143(12)
C64 C 0.0555(5) -0.6650(19) 0.5774(13)
C65 C 0.0693(4) -0.5515(23) 0.5502(11)
C66 C 0.0501(6) -0.4386(19) 0.5601(11)
C67 C 0.0171(5) -0.4391(16) 0.5970(11)
C68 C 0.0033(4) -0.5526(20) 0.6242(11)
C69 C -0.0591(4) -0.5945(21) 0.8122(11)
C70 C -0.0531(6) -0.6056(21) 0.8889(10)
C71 C -0.0175(7) -0.5910(22) 0.9210(7)
C72 C 0.0120(5) -0.5653(22) 0.8764(11)
C73 C 0.0060(5) -0.5541(20) 0.7997(10)
C74 C -0.0296(5) -0.5688(19) 0.7676(7)
H33 H -0.1611(12) -1.1102(31) 0.2961(20)
H34 H -0.1922(12) -1.2104(31) 0.3098(20)
H35 H -0.1519(12) -1.2559(31) 0.2940(20)
H36 H -0.0980(10) -1.8527(34) 0.8007(27)
H37 H -0.1116(10) -1.9444(34) 0.7363(27)
H38 H -0.1234(10) -1.9691(34) 0.8179(27)
H39 H -0.0661(8) -0.3784(29) 0.6097(18)
H40 H -0.0413(8) -0.3343(29) 0.6790(18)
H41 H -0.0811(8) -0.3896(29) 0.6900(18)
H42 H -0.1715(7) -1.3685(18) 0.4262(14)
H43 H -0.1362(8) -1.0087(19) 0.4035(13)
H44 H -0.1243(8) -1.1836(24) 0.6020(9)
H45 H -0.1650(5) -1.9641(24) 0.6420(13)
H46 H -0.2082(10) -2.1049(37) 0.5890(16)
H47 H -0.2636(8) -2.1409(35) 0.6457(21)
H48 H -0.2760(7) -2.0361(39) 0.7555(21)
H49 H -0.2328(9) -1.8953(34) 0.8085(16)
H50 H -0.1514(7) -1.8611(23) 0.9223(15)
H51 H -0.1806(11) -1.7966(40) 1.0281(13)
H52 H -0.2255(10) -1.6384(39) 1.0199(16)
H53 H -0.2411(8) -1.5448(30) 0.9058(23)
H54 H -0.2118(10) -1.6093(34) 0.7999(14)
H55 H 0.0133(6) -0.7415(16) 0.6325(12)
H56 H 0.0683(8) -0.7406(22) 0.5708(19)
H57 H 0.0914(5) -0.5512(31) 0.5255(15)
H58 H 0.0593(8) -0.3626(22) 0.5419(16)
H59 H 0.0043(7) -0.3635(19) 0.6036(17)
H60 H -0.0829(4) -0.6043(21) 0.7907(11)
H61 H -0.0728(7) -0.6229(31) 0.9187(14)
H62 H -0.0135(9) -0.5984(32) 0.9723(8)
H63 H 0.0358(6) -0.5555(33) 0.8978(15)
H64 H 0.0258(6) -0.5369(29) 0.7698(14)
Au4_2 Au -0.0755(1) -1.7162(1) 0.6209(1)
Au3_2 Au -0.1531(1) -0.6410(1) 0.6808(1)
loop_
_geom_bond_atom_site_label_1
_geom_bond_atom_site_label_2
_geom_bond_site_symmetry_1
_geom_bond_site_symmetry_2
Au1 P1 1_555 1_555
Au2 P2 1_555 1_555
Au3 P3 1_555 1_555
Au4 P4 1_555 1_555
P1 C6 1_555 1_555
P2 C7 1_555 1_555
P3 C43 1_555 1_555
P4 C44 1_555 1_555
C1 Au1 1_555 1_555
C2 C1 1_555 1_555
C3 Au2 1_555 1_555
C4 C3 1_555 1_555
C5 C10 1_555 1_555
C6 H4 1_555 1_555
C7 H7 1_555 1_555
C8 C2 1_555 1_555
C9 C8 1_555 1_555
C10 C9 1_555 1_555
C11 C10 1_555 1_555
C12 C4 1_555 1_555
C13 C8 1_555 1_555
C14 C15 1_555 1_555
C15 C16 1_555 1_555
C16 C17 1_555 1_555
C17 C18 1_555 1_555
C18 C19 1_555 1_555
C19 P1 1_555 1_555
C20 C21 1_555 1_555
C21 C22 1_555 1_555
C22 C23 1_555 1_555
C23 C24 1_555 1_555
C24 C25 1_555 1_555
C25 P1 1_555 1_555
C26 C27 1_555 1_555
C27 C28 1_555 1_555
C28 C29 1_555 1_555
C29 C30 1_555 1_555
C30 C31 1_555 1_555
C31 P2 1_555 1_555
C32 C33 1_555 1_555
C33 C34 1_555 1_555
C34 C35 1_555 1_555
C35 C36 1_555 1_555
C36 C37 1_555 1_555
C37 P2 1_555 1_555
C38 Au3 1_555 1_555
C39 C38 1_555 1_555
C40 Au4 1_555 1_555
C41 C40 1_555 1_555
C42 C47 1_555 1_555
C43 H36 1_555 1_555
C44 H39 1_555 1_555
C45 C39 1_555 1_555
C46 C45 1_555 1_555
C47 C46 1_555 1_555
C48 C47 1_555 1_555
C49 C41 1_555 1_555
C50 C45 1_555 1_555
C51 C52 1_555 1_555
C52 C53 1_555 1_555
C53 C54 1_555 1_555
C54 C55 1_555 1_555
C55 C56 1_555 1_555
C56 P3 1_555 1_555
C57 C58 1_555 1_555
C58 C59 1_555 1_555
C59 C60 1_555 1_555
C60 C61 1_555 1_555
C61 C62 1_555 1_555
C62 P3 1_555 1_555
C63 C64 1_555 1_555
C64 C65 1_555 1_555
C65 C66 1_555 1_555
C66 C67 1_555 1_555
C67 C68 1_555 1_555
C68 P4 1_555 1_555
C69 C70 1_555 1_555
C70 C71 1_555 1_555
C71 C72 1_555 1_555
C72 C73 1_555 1_555
C73 C74 1_555 1_555
C74 P4 1_555 1_555
H1 C5 1_555 1_555
H2 C5 1_555 1_555
H3 C5 1_555 1_555
H5 C6 1_555 1_555
H6 C6 1_555 1_555
H8 C7 1_555 1_555
H9 C7 1_555 1_555
H10 C9 1_555 1_555
H11 C11 1_555 1_555
H12 C13 1_555 1_555
H13 C14 1_555 1_555
H14 C15 1_555 1_555
H15 C16 1_555 1_555
H16 C17 1_555 1_555
H17 C18 1_555 1_555
H18 C20 1_555 1_555
H19 C21 1_555 1_555
H20 C22 1_555 1_555
H21 C23 1_555 1_555
H22 C24 1_555 1_555
H23 C26 1_555 1_555
H24 C27 1_555 1_555
H25 C28 1_555 1_555
H26 C29 1_555 1_555
H27 C30 1_555 1_555
H28 C32 1_555 1_555
H29 C33 1_555 1_555
H30 C34 1_555 1_555
H31 C35 1_555 1_555
H32 C36 1_555 1_555
H33 C42 1_555 1_555
H34 C42 1_555 1_555
H35 C42 1_555 1_555
H37 C43 1_555 1_555
H38 C43 1_555 1_555
H40 C44 1_555 1_555
H41 C44 1_555 1_555
H42 C46 1_555 1_555
H43 C48 1_555 1_555
H44 C50 1_555 1_555
H45 C51 1_555 1_555
H46 C52 1_555 1_555
H47 C53 1_555 1_555
H48 C54 1_555 1_555
H49 C55 1_555 1_555
H50 C57 1_555 1_555
H51 C58 1_555 1_555
H52 C59 1_555 1_555
H53 C60 1_555 1_555
H54 C61 1_555 1_555
H55 C63 1_555 1_555
H56 C64 1_555 1_555
H57 C65 1_555 1_555
H58 C66 1_555 1_555
H59 C67 1_555 1_555
H60 C69 1_555 1_555
H61 C70 1_555 1_555
H62 C71 1_555 1_555
H63 C72 1_555 1_555
H64 C73 1_555 1_555
Au2_2 Au1 1_555 1_555
Au1_2 Au2 1_555 1_555
Au4_2 Au3 1_555 1_555
Au3_2 Au4 1_555 1_555
C11 C12 1_555 1_555
C12 C13 1_555 1_555
C14 C19 1_555 1_555
C20 C25 1_555 1_555
C26 C31 1_555 1_555
C32 C37 1_555 1_555
C48 C49 1_555 1_555
C49 C50 1_555 1_555
C51 C56 1_555 1_555
C57 C62 1_555 1_555
C63 C68 1_555 1_555
C69 C74 1_555 1_555

#END
