
#######################################################################
#
#                 Cambridge Crystallographic Data Centre
#                                CCDC 
#
#######################################################################
#
# If this CIF has been generated from an entry in the Cambridge 
# Structural Database, then it will include bibliographic, chemical, 
# crystal, experimental, refinement or atomic coordinate data resulting 
# from the CCDC's data processing and validation procedures.
#
#######################################################################

data_QIPPIO
_symmetry_cell_setting           triclinic
_symmetry_space_group_name_H-M   'P -1'
_symmetry_Int_Tables_number      2
_space_group_name_Hall           '-P 1'
loop_
_symmetry_equiv_pos_site_id
_symmetry_equiv_pos_as_xyz
1 x,y,z
2 -x,-y,-z
_cell_length_a                   10.657(3)
_cell_length_b                   10.832(2)
_cell_length_c                   14.696(4)
_cell_angle_alpha                100.69(2)
_cell_angle_beta                 78.65(2)
_cell_angle_gamma                118.33(2)
_cell_volume                     1455.71
loop_
_atom_site_label
_atom_site_type_symbol
_atom_site_fract_x
_atom_site_fract_y
_atom_site_fract_z
Mn1 Mn 1.0000 0.0000 1.0000
Br1 Br 0.68712(17) -0.96549(11) 0.74568(8)
Br2 Br 1.34557(15) 0.30086(12) 0.38594(8)
N1 N 1.2159(9) 0.0040(8) 1.0105(5)
N2 N 1.769(4) 0.263(3) 1.119(2)
N3 N 1.4298(15) 0.3304(13) 1.1571(9)
N4 N 0.9962(7) -0.1028(7) 0.8715(5)
N5 N 1.1107(8) 0.1829(7) 0.9452(5)
C1 C 1.3302(14) 0.0452(17) 1.0250(9)
C2 C 1.4746(18) 0.0484(14) 1.0202(9)
C3 C 1.547(3) 0.158(2) 1.0628(14)
C4 C 1.6882(19) 0.2168(18) 1.0786(11)
C5 C 1.4688(15) 0.2573(14) 1.1212(10)
C6 C 0.9383(10) -0.2472(9) 0.8480(6)
C7 C 0.9623(10) -0.2766(10) 0.7491(6)
H1 H 0.9332 -0.3676 0.7152
C8 C 1.0325(12) -0.1547(10) 0.7129(7)
H2 H 1.0614 -0.1426 0.6484
C9 C 1.0571(11) -0.0437(9) 0.7885(6)
C10 C 1.1306(11) 0.1005(9) 0.7778(6)
C11 C 1.1572(11) 0.2036(10) 0.8531(7)
C12 C 1.2325(11) 0.3516(10) 0.8437(7)
H3 H 1.2763 0.3938 0.7872
C13 C 1.2296(11) 0.4195(10) 0.9299(7)
H4 H 1.2706 0.5189 0.9451
C14 C 0.8447(9) -0.3181(9) 1.0061(6)
C15 C 0.8685(10) -0.3476(9) 0.9114(6)
C16 C 0.8201(10) -0.5000(9) 0.8720(6)
C17 C 0.6873(14) -0.5819(12) 0.8446(10)
H5 H 0.6208 -0.5448 0.8510
C18 C 0.6498(14) -0.7218(12) 0.8069(10)
H6 H 0.5588 -0.7780 0.7852
C19 C 0.7394(13) -0.7778(10) 0.8009(7)
C20 C 0.8678(14) -0.7010(11) 0.8311(10)
H7 H 0.9302 -0.7417 0.8290
C21 C 0.9084(12) -0.5607(11) 0.8655(9)
H8 H 1.0009 -0.5052 0.8852
C22 C 1.1852(12) 0.1434(10) 0.6821(7)
C23 C 1.0890(12) 0.1273(11) 0.6238(7)
H9 H 0.9891 0.0859 0.6455
C24 C 1.1349(12) 0.1698(11) 0.5353(7)
H10 H 1.0672 0.1534 0.4954
C25 C 1.2800(13) 0.2364(11) 0.5052(7)
C26 C 1.3790(13) 0.2578(12) 0.5621(8)
H11 H 1.4792 0.3029 0.5414
C27 C 1.3285(13) 0.2119(12) 0.6497(8)
H12 H 1.3965 0.2286 0.6895
C14A C 1.1553(9) 0.3181(9) 0.9939(6)
C15A C 1.1315(10) 0.3476(9) 1.0886(6)
C6A C 1.0617(10) 0.2472(9) 1.1520(6)
N4A N 1.0038(7) 0.1028(7) 1.1285(5)
C9A C 0.9429(11) 0.0437(9) 1.2115(6)
C8A C 0.9675(12) 0.1547(10) 1.2871(7)
C7A C 1.0377(10) 0.2766(10) 1.2509(6)
H1A H 1.0668 0.3676 1.2848
H2A H 0.9386 0.1426 1.3516
C10A C 0.8694(11) -0.1005(9) 1.2222(6)
C11A C 0.8428(11) -0.2036(10) 1.1469(7)
N5A N 0.8893(8) -0.1829(7) 1.0548(5)
C13A C 0.7704(11) -0.4195(10) 1.0701(7)
C12A C 0.7675(11) -0.3516(10) 1.1563(7)
H3A H 0.7237 -0.3938 1.2128
H4A H 0.7294 -0.5189 1.0549
C22A C 0.8148(12) -0.1434(10) 1.3179(7)
C23A C 0.9110(12) -0.1273(11) 1.3762(7)
H9A H 1.0109 -0.0859 1.3545
C24A C 0.8651(12) -0.1698(11) 1.4647(7)
H10A H 0.9328 -0.1534 1.5046
C25A C 0.7200(13) -0.2364(11) 1.4948(7)
Br2A Br 0.65443(15) -0.30086(12) 1.61406(8)
C26A C 0.6210(13) -0.2578(12) 1.4379(8)
H11A H 0.5208 -0.3029 1.4586
C27A C 0.6715(13) -0.2119(12) 1.3503(8)
H12A H 0.6035 -0.2286 1.3105
C16A C 1.1799(10) 0.5000(9) 1.1280(6)
C17A C 1.3127(14) 0.5819(12) 1.1554(10)
H5A H 1.3792 0.5448 1.1490
C18A C 1.3502(14) 0.7218(12) 1.1931(10)
H6A H 1.4412 0.7780 1.2148
C19A C 1.2606(13) 0.7778(10) 1.1991(7)
Br1A Br 1.31288(17) 0.96549(11) 1.25432(8)
C20A C 1.1322(14) 0.7010(11) 1.1689(10)
H7A H 1.0698 0.7417 1.1710
C21A C 1.0916(12) 0.5607(11) 1.1345(9)
H8A H 0.9991 0.5052 1.1148
C2A C 1.5254(18) -0.0484(14) 0.9798(9)
C1A C 1.6698(14) -0.0452(17) 0.9750(9)
N1A N 1.7841(9) -0.0040(8) 0.9895(5)
C3A C 1.453(3) -0.158(2) 0.9372(14)
C4A C 1.3118(19) -0.2168(18) 0.9214(11)
N2A N 1.231(4) -0.263(3) 0.881(2)
C5A C 1.5312(15) -0.2573(14) 0.8788(10)
N3A N 1.5702(15) -0.3304(13) 0.8429(9)
N1A_2 N 0.7841(9) -0.0040(8) 0.9895(5)
Mn1_2 Mn 2.0000 0.0000 1.0000
C28 C 0.220(2) 0.5360(19) 0.6565(14)
H13 H 0.1583 0.4417 0.6280
H14 H 0.1709 0.5549 0.7174
H15 H 0.3107 0.5407 0.6649
C29 C 0.2466(16) 0.638(2) 0.5976(11)
C30 C 0.191(2) 0.604(3) 0.5138(17)
H16 H 0.1302 0.5074 0.4969
C31 C 0.214(3) 0.696(4) 0.454(2)
H17 H 0.1824 0.6662 0.3938
C32 C 0.285(3) 0.831(4) 0.487(2)
H18 H 0.2931 0.9013 0.4517
C33 C 0.346(2) 0.875(2) 0.5681(18)
H19 H 0.4004 0.9724 0.5871
C34 C 0.3265(19) 0.778(2) 0.6194(13)
H20 H 0.3714 0.8083 0.6747
loop_
_geom_bond_atom_site_label_1
_geom_bond_atom_site_label_2
_geom_bond_site_symmetry_1
_geom_bond_site_symmetry_2
Mn1 N1 1_555 1_555
Br1 C19 1_555 1_555
Br2 C25 1_555 1_555
N1 C1 1_555 1_555
N2 C4 1_555 1_555
N3 C5 1_555 1_555
N4 Mn1 1_555 1_555
N5 Mn1 1_555 1_555
C1 C2 1_555 1_555
C2 C3 1_555 1_555
C3 C4 1_555 1_555
C5 C3 1_555 1_555
C6 N4 1_555 1_555
C7 C6 1_555 1_555
H1 C7 1_555 1_555
C8 C7 1_555 1_555
H2 C8 1_555 1_555
C9 N4 1_555 1_555
C10 C9 1_555 1_555
C11 N5 1_555 1_555
C12 C11 1_555 1_555
H3 C12 1_555 1_555
C13 C12 1_555 1_555
H4 C13 1_555 1_555
C14 C15 1_555 1_555
C15 C6 1_555 1_555
C16 C15 1_555 1_555
C17 C16 1_555 1_555
H5 C17 1_555 1_555
C18 C17 1_555 1_555
H6 C18 1_555 1_555
C19 C18 1_555 1_555
C20 C19 1_555 1_555
H7 C20 1_555 1_555
C21 C16 1_555 1_555
H8 C21 1_555 1_555
C22 C10 1_555 1_555
C23 C22 1_555 1_555
H9 C23 1_555 1_555
C24 C23 1_555 1_555
H10 C24 1_555 1_555
C25 C24 1_555 1_555
C26 C25 1_555 1_555
H11 C26 1_555 1_555
C27 C22 1_555 1_555
H12 C27 1_555 1_555
C28 H13 1_555 1_555
H14 C28 1_555 1_555
H15 C28 1_555 1_555
C29 C28 1_555 1_555
C30 C29 1_555 1_555
H16 C30 1_555 1_555
C31 C30 1_555 1_555
H17 C31 1_555 1_555
C32 C31 1_555 1_555
H18 C32 1_555 1_555
C33 C32 1_555 1_555
H19 C33 1_555 1_555
C34 C29 1_555 1_555
H20 C34 1_555 1_555
C14A N5 1_555 1_555
C15A C14A 1_555 1_555
C6A C15A 1_555 1_555
N4A Mn1 1_555 1_555
C9A N4A 1_555 1_555
C8A C9A 1_555 1_555
C7A C6A 1_555 1_555
H1A C7A 1_555 1_555
H2A C8A 1_555 1_555
C10A C9A 1_555 1_555
C11A C10A 1_555 1_555
N5A Mn1 1_555 1_555
C13A C14 1_555 1_555
C12A C11A 1_555 1_555
H3A C12A 1_555 1_555
H4A C13A 1_555 1_555
C22A C10A 1_555 1_555
C23A C22A 1_555 1_555
H9A C23A 1_555 1_555
C24A C23A 1_555 1_555
H10A C24A 1_555 1_555
C25A C24A 1_555 1_555
Br2A C25A 1_555 1_555
C26A C25A 1_555 1_555
H11A C26A 1_555 1_555
C27A C22A 1_555 1_555
H12A C27A 1_555 1_555
C16A C15A 1_555 1_555
C17A C16A 1_555 1_555
H5A C17A 1_555 1_555
C18A C17A 1_555 1_555
H6A C18A 1_555 1_555
C19A C18A 1_555 1_555
Br1A C19A 1_555 1_555
C20A C19A 1_555 1_555
H7A C20A 1_555 1_555
C21A C16A 1_555 1_555
H8A C21A 1_555 1_555
C2A C2 1_555 1_555
C1A C2A 1_555 1_555
N1A C1A 1_555 1_555
C3A C2A 1_555 1_555
C4A C3A 1_555 1_555
N2A C4A 1_555 1_555
C5A C3A 1_555 1_555
N3A C5A 1_555 1_555
N1A_2 Mn1 1_555 1_555
Mn1_2 N1A 1_555 1_555
C8 C9 1_555 1_555
C10 C11 1_555 1_555
C13 C14A 1_555 1_555
C14 N5A 1_555 1_555
C20 C21 1_555 1_555
C26 C27 1_555 1_555
C33 C34 1_555 1_555
C6A N4A 1_555 1_555
C8A C7A 1_555 1_555
C11A N5A 1_555 1_555
C13A C12A 1_555 1_555
C26A C27A 1_555 1_555
C20A C21A 1_555 1_555

#END
