
#######################################################################
#
#                 Cambridge Crystallographic Data Centre
#                                CCDC 
#
#######################################################################
#
# If this CIF has been generated from an entry in the Cambridge 
# Structural Database, then it will include bibliographic, chemical, 
# crystal, experimental, refinement or atomic coordinate data resulting 
# from the CCDC's data processing and validation procedures.
#
#######################################################################

data_QIPPOU
_symmetry_cell_setting           triclinic
_symmetry_space_group_name_H-M   'P -1'
_symmetry_Int_Tables_number      2
_space_group_name_Hall           '-P 1'
loop_
_symmetry_equiv_pos_site_id
_symmetry_equiv_pos_as_xyz
1 x,y,z
2 -x,-y,-z
_cell_length_a                   11.1255(2)
_cell_length_b                   13.8304(2)
_cell_length_c                   17.2040(2)
_cell_angle_alpha                81.8900(4)
_cell_angle_beta                 85.3232(4)
_cell_angle_gamma                78.9845(5)
_cell_volume                     2568.36
loop_
_atom_site_label
_atom_site_type_symbol
_atom_site_fract_x
_atom_site_fract_y
_atom_site_fract_z
Mn1 Mn -1.0000 0.5000 1.0000
Mn2 Mn -1.0000 0.5000 0.5000
Cl1 Cl -0.2859(2) 0.72326(19) 0.76550(18)
Cl2 Cl -0.6242(2) -0.17885(16) 1.02499(15)
Cl3 Cl -0.5869(3) -0.06633(19) 0.81182(18)
Cl4 Cl -1.6053(7) 0.1251(6) 0.4373(3)
O1 O -1.1105(6) 0.5581(5) 0.6066(3)
N1 N -0.8324(5) 0.4256(4) 0.9663(3)
N2 N -0.9513(5) 0.6293(4) 0.9525(3)
N3 N -1.0322(7) 0.3656(5) 0.5427(4)
N4 N -0.8477(7) 0.4757(5) 0.5619(3)
C1 C -0.7964(6) 0.3241(6) 0.9728(4)
C2 C -0.6791(7) 0.3016(6) 0.9329(5)
H1 H -0.6338 0.2370 0.9277
C3 C -0.6433(7) 0.3894(6) 0.9034(4)
H2 H -0.5685 0.3970 0.8744
C4 C -0.7379(7) 0.4668(5) 0.9240(4)
C5 C -0.7383(7) 0.5684(6) 0.9022(4)
C6 C -0.8396(7) 0.6425(6) 0.9142(4)
C7 C -0.8465(7) 0.7463(6) 0.8850(5)
H3 H -0.7834 0.7757 0.8559
C8 C -0.9570(7) 0.7931(6) 0.9065(5)
H4 H -0.9864 0.8624 0.8951
C9 C -1.0245(7) 0.7236(5) 0.9489(4)
C10 C -0.8593(7) 0.2531(5) 1.0142(4)
C11 C -1.1287(10) 0.3229(7) 0.5277(5)
C12 C -1.1248(14) 0.2255(8) 0.5735(7)
H5 H -1.1828 0.1829 0.5751
C13 C -1.0214(14) 0.2085(7) 0.6131(7)
H6 H -0.9931 0.1500 0.6476
C14 C -0.9605(11) 0.2932(7) 0.5949(5)
C15 C -0.8528(9) 0.3036(7) 0.6259(4)
C16 C -0.8027(8) 0.3905(7) 0.6121(4)
C17 C -0.6954(9) 0.4040(9) 0.6453(7)
H7 H -0.6478 0.3566 0.6814
C18 C -0.6721(8) 0.4944(9) 0.6174(6)
H8 H -0.6055 0.5223 0.6300
C19 C -0.7671(8) 0.5415(7) 0.5648(5)
C20 C -1.2235(9) 0.3653(7) 0.4768(5)
C21 C -0.5295(5) 0.6038(5) 0.9136(2)
H9 H -0.5375 0.5821 0.9684
C22 C -0.4250(4) 0.6393(5) 0.8818(3)
H10 H -0.3616 0.6419 0.9148
C23 C -0.4133(4) 0.6710(4) 0.8017(3)
C24 C -0.5060(6) 0.6672(5) 0.7534(2)
H11 H -0.4980 0.6889 0.6986
C25 C -0.6105(5) 0.6316(5) 0.7852(2)
H12 H -0.6739 0.6290 0.7522
C26 C -0.6223(4) 0.5999(4) 0.8653(3)
C27 C -0.8579(4) 0.0801(3) 0.9868(3)
H13 H -0.9336 0.1042 0.9627
C28 C -0.8042(4) -0.0196(3) 0.9891(3)
H14 H -0.8431 -0.0636 0.9666
C29 C -0.6934(4) -0.0549(3) 1.0243(3)
C30 C -0.6364(4) 0.0095(3) 1.0572(3)
H15 H -0.5607 -0.0146 1.0813
C31 C -0.6901(4) 0.1092(3) 1.0549(3)
H16 H -0.6511 0.1531 1.0774
C32 C -0.8008(4) 0.1444(3) 1.0197(3)
C33 C -0.7131(11) 0.1411(6) 0.6350(3)
H17 H -0.7072 0.1490 0.5791
C34 C -0.6503(11) 0.0558(6) 0.6772(4)
H18 H -0.6015 0.0054 0.6501
C35 C -0.6590(8) 0.0442(4) 0.7589(4)
C36 C -0.7304(10) 0.1179(5) 0.7985(3)
H19 H -0.7364 0.1100 0.8543
C37 C -0.7932(9) 0.2032(5) 0.7563(3)
H20 H -0.8421 0.2536 0.7833
C38 C -0.7846(7) 0.2148(4) 0.6746(3)
C39 C -1.4391(8) 0.3319(6) 0.4964(5)
H21 H -1.4630 0.3889 0.5230
C40 C -1.5244(8) 0.2734(9) 0.4875(5)
H22 H -1.6066 0.2904 0.5079
C41 C -1.4895(11) 0.1899(8) 0.4487(5)
C42 C -1.3693(12) 0.1651(7) 0.4188(7)
H23 H -1.3455 0.1081 0.3923
C43 C -1.2841(8) 0.2236(7) 0.4277(6)
H24 H -1.2019 0.2066 0.4073
C44 C -1.3190(7) 0.3071(6) 0.4666(4)
N5 N -1.0657(6) 0.4818(5) 0.8796(3)
N6 N -1.4349(9) 0.2678(9) 0.7564(6)
N7 N -1.3706(8) 0.4895(9) 0.6150(5)
N8 N -0.9311(9) 0.6553(7) 0.7133(5)
N9 N -1.0969(8) 0.2444(6) 0.8787(5)
C45 C -1.0922(7) 0.4803(6) 0.8153(4)
C46 C -1.3516(10) 0.3007(8) 0.7634(6)
C47 C -0.9970(10) 0.6067(8) 0.6987(5)
C48 C -1.3008(8) 0.4635(8) 0.6621(5)
C49 C -1.0842(7) 0.5470(7) 0.6772(4)
C50 C -1.1640(8) 0.2886(7) 0.8328(6)
C51 C -1.2441(7) 0.3423(7) 0.7732(5)
C52 C -1.2190(8) 0.4267(7) 0.7264(5)
C53 C -1.1283(7) 0.4821(6) 0.7384(4)
C9A C -0.9755(7) 0.2764(5) 1.0511(4)
N2A N -1.0487(5) 0.3707(4) 1.0475(3)
C6A C -1.1604(7) 0.3575(6) 1.0858(4)
C5A C -1.2617(7) 0.4316(6) 1.0978(4)
C4A C -1.2621(7) 0.5332(5) 1.0760(4)
N1A N -1.1676(5) 0.5744(4) 1.0337(3)
C1A C -1.2036(6) 0.6759(6) 1.0272(4)
C2A C -1.3209(7) 0.6984(6) 1.0671(5)
H1A H -1.3662 0.7630 1.0723
C3A C -1.3567(7) 0.6106(6) 1.0966(4)
H2A H -1.4315 0.6030 1.1256
C10A C -1.1407(7) 0.7469(5) 0.9858(4)
C32A C -1.1992(4) 0.8556(3) 0.9803(3)
C27A C -1.1421(4) 0.9199(3) 1.0132(3)
H13A H -1.0664 0.8958 1.0373
C28A C -1.1958(4) 1.0196(3) 1.0109(3)
H14A H -1.1569 1.0636 1.0334
C29A C -1.3066(4) 1.0549(3) 0.9757(3)
Cl2A Cl -1.3758(2) 1.17885(16) 0.97501(15)
C30A C -1.3636(4) 0.9905(3) 0.9428(3)
H15A H -1.4393 1.0146 0.9187
C31A C -1.3099(4) 0.8908(3) 0.9451(3)
H16A H -1.3489 0.8469 0.9226
C26A C -1.3777(4) 0.4001(4) 1.1347(3)
C21A C -1.4705(5) 0.3962(5) 1.0864(2)
H9A H -1.4625 0.4179 1.0316
C22A C -1.5750(4) 0.3607(5) 1.1182(3)
H10A H -1.6384 0.3581 1.0852
C23A C -1.5867(4) 0.3290(4) 1.1983(3)
Cl1A Cl -1.7141(2) 0.27674(19) 1.23450(18)
C24A C -1.4940(6) 0.3328(5) 1.2466(2)
H11A H -1.5020 0.3111 1.3014
C25A C -1.3895(5) 0.3684(5) 1.2148(2)
H12A H -1.3261 0.3710 1.2478
C7A C -1.1535(7) 0.2537(6) 1.1150(5)
H3A H -1.2166 0.2243 1.1441
C8A C -1.0430(7) 0.2069(6) 1.0935(5)
H4A H -1.0136 0.1376 1.1049
C19A C -1.2329(8) 0.4585(7) 0.4352(5)
N4A N -1.1523(7) 0.5243(5) 0.4381(3)
C16A C -1.1973(8) 0.6095(7) 0.3879(4)
C15A C -1.1472(9) 0.6964(7) 0.3741(4)
C14A C -1.0395(11) 0.7068(7) 0.4051(5)
N3A N -0.9678(7) 0.6344(5) 0.4573(4)
C11A C -0.8713(10) 0.6771(7) 0.4723(5)
C12A C -0.8752(14) 0.7745(8) 0.4265(7)
H5A H -0.8172 0.8171 0.4249
C13A C -0.9786(14) 0.7915(7) 0.3869(7)
H6A H -1.0069 0.8500 0.3524
C20A C -0.7765(9) 0.6347(7) 0.5232(5)
C44A C -0.6810(7) 0.6929(6) 0.5334(4)
C39A C -0.5609(8) 0.6681(6) 0.5036(5)
H21A H -0.5370 0.6111 0.4770
C40A C -0.4756(8) 0.7266(9) 0.5125(5)
H22A H -0.3934 0.7096 0.4921
C41A C -0.5105(11) 0.8101(8) 0.5513(5)
Cl4A Cl -0.3947(7) 0.8749(6) 0.5627(3)
C42A C -0.6307(12) 0.8349(7) 0.5812(7)
H23A H -0.6545 0.8919 0.6077
C43A C -0.7159(8) 0.7764(7) 0.5723(6)
H24A H -0.7981 0.7934 0.5927
C38A C -1.2154(7) 0.7852(4) 0.3254(3)
C33A C -1.2869(11) 0.8589(6) 0.3650(3)
H17A H -1.2928 0.8510 0.4209
C34A C -1.3497(11) 0.9442(6) 0.3228(4)
H18A H -1.3985 0.9946 0.3499
C35A C -1.3410(8) 0.9558(4) 0.2411(4)
Cl3A Cl -1.4131(3) 1.06633(19) 0.18818(18)
C36A C -1.2696(10) 0.8821(5) 0.2015(3)
H19A H -1.2636 0.8900 0.1457
C37A C -1.2068(9) 0.7968(5) 0.2437(3)
H20A H -1.1579 0.7464 0.2167
C17A C -1.3046(9) 0.5960(9) 0.3547(7)
H7A H -1.3522 0.6434 0.3186
C18A C -1.3279(8) 0.5056(9) 0.3826(6)
H8A H -1.3945 0.4777 0.3700
O1A O -0.8895(6) 0.4419(5) 1.3934(3)
N5A N -0.9343(6) 0.5182(5) 1.1204(3)
N6A N -0.5651(9) 0.7322(9) 1.2436(6)
N7A N -0.6294(8) 0.5105(9) 1.3850(5)
N8A N -1.0689(9) 0.3447(7) 1.2867(5)
N9A N -0.9031(8) 0.7556(6) 1.1213(5)
C45A C -0.9078(7) 0.5197(6) 1.1847(4)
C46A C -0.6484(10) 0.6993(8) 1.2366(6)
C47A C -1.0030(10) 0.3933(8) 1.3013(5)
C48A C -0.6992(8) 0.5365(8) 1.3379(5)
C49A C -0.9158(7) 0.4530(7) 1.3228(4)
C50A C -0.8360(8) 0.7114(7) 1.1672(6)
C51A C -0.7559(7) 0.6577(7) 1.2268(5)
C52A C -0.7810(8) 0.5733(7) 1.2736(5)
C53A C -0.8717(7) 0.5179(6) 1.2616(4)
O1A_2 O -0.8895(6) 0.4419(5) 0.3934(3)
Mn2_2 Mn -1.0000 0.5000 1.5000
C54 C -1.0960(15) -0.0610(9) 0.6541(7)
C55 C -0.9834(11) -0.0693(8) 0.6865(8)
H25 H -0.9115 -0.1051 0.6630
C56 C -0.9763(16) -0.0252(10) 0.7534(8)
H26 H -0.8994 -0.0309 0.7755
C57 C -1.082(2) 0.0272(9) 0.7878(6)
H27 H -1.0767 0.0573 0.8335
C58 C -1.1941(16) 0.0355(9) 0.7553(10)
H28 H -1.2661 0.0713 0.7789
C59 C -1.2013(10) -0.0086(10) 0.6885(11)
H29 H -1.2782 -0.0029 0.6663
C60 C -1.089(3) -0.094(3) 0.5684(17)
H30 H -1.0060 -0.1283 0.5556
H31 H -1.1108 -0.0353 0.5298
H32 H -1.1473 -0.1391 0.5674
loop_
_geom_bond_atom_site_label_1
_geom_bond_atom_site_label_2
_geom_bond_site_symmetry_1
_geom_bond_site_symmetry_2
Mn1 N1 1_555 1_555
Mn2 O1 1_555 1_555
Cl1 C23 1_555 1_555
Cl2 C29 1_555 1_555
Cl3 C35 1_555 1_555
Cl4 C41 1_555 1_555
O1 C49 1_555 1_555
N1 C1 1_555 1_555
N2 Mn1 1_555 1_555
N3 Mn2 1_555 1_555
N4 Mn2 1_555 1_555
C1 C2 1_555 1_555
C2 H1 1_555 1_555
C3 C2 1_555 1_555
H2 C3 1_555 1_555
C4 N1 1_555 1_555
C5 C4 1_555 1_555
C6 N2 1_555 1_555
C7 C6 1_555 1_555
H3 C7 1_555 1_555
C8 C7 1_555 1_555
H4 C8 1_555 1_555
C9 N2 1_555 1_555
C10 C1 1_555 1_555
C11 N3 1_555 1_555
C12 C11 1_555 1_555
H5 C12 1_555 1_555
C13 C12 1_555 1_555
H6 C13 1_555 1_555
C14 N3 1_555 1_555
C15 C14 1_555 1_555
C16 N4 1_555 1_555
C17 C16 1_555 1_555
H7 C17 1_555 1_555
C18 C17 1_555 1_555
H8 C18 1_555 1_555
C19 N4 1_555 1_555
C20 C11 1_555 1_555
C21 H9 1_555 1_555
C22 C21 1_555 1_555
H10 C22 1_555 1_555
C23 C22 1_555 1_555
C24 C23 1_555 1_555
H11 C24 1_555 1_555
C25 C24 1_555 1_555
H12 C25 1_555 1_555
C26 C5 1_555 1_555
C27 H13 1_555 1_555
C28 C27 1_555 1_555
H14 C28 1_555 1_555
C29 C28 1_555 1_555
C30 C29 1_555 1_555
H15 C30 1_555 1_555
C31 C30 1_555 1_555
H16 C31 1_555 1_555
C32 C10 1_555 1_555
C33 H17 1_555 1_555
C34 C33 1_555 1_555
H18 C34 1_555 1_555
C35 C34 1_555 1_555
C36 C35 1_555 1_555
H19 C36 1_555 1_555
C37 C36 1_555 1_555
H20 C37 1_555 1_555
C38 C15 1_555 1_555
C39 H21 1_555 1_555
C40 C39 1_555 1_555
H22 C40 1_555 1_555
C41 C40 1_555 1_555
C42 C41 1_555 1_555
H23 C42 1_555 1_555
C43 C42 1_555 1_555
H24 C43 1_555 1_555
C44 C20 1_555 1_555
N5 Mn1 1_555 1_555
N6 C46 1_555 1_555
N7 C48 1_555 1_555
N8 C47 1_555 1_555
N9 C50 1_555 1_555
C45 N5 1_555 1_555
C46 C51 1_555 1_555
C47 C49 1_555 1_555
C48 C52 1_555 1_555
C49 C53 1_555 1_555
C50 C51 1_555 1_555
C51 C52 1_555 1_555
C52 C53 1_555 1_555
C53 C45 1_555 1_555
C54 C55 1_555 1_555
C55 H25 1_555 1_555
C56 C55 1_555 1_555
H26 C56 1_555 1_555
C57 C56 1_555 1_555
H27 C57 1_555 1_555
C58 C57 1_555 1_555
H28 C58 1_555 1_555
C59 C54 1_555 1_555
H29 C59 1_555 1_555
C60 C54 1_555 1_555
H30 C60 1_555 1_555
H31 C60 1_555 1_555
H32 C60 1_555 1_555
C9A C10 1_555 1_555
N2A Mn1 1_555 1_555
C6A N2A 1_555 1_555
C5A C6A 1_555 1_555
C4A C5A 1_555 1_555
N1A Mn1 1_555 1_555
C1A N1A 1_555 1_555
C2A C1A 1_555 1_555
H1A C2A 1_555 1_555
C3A C4A 1_555 1_555
H2A C3A 1_555 1_555
C10A C9 1_555 1_555
C32A C10A 1_555 1_555
C27A C32A 1_555 1_555
H13A C27A 1_555 1_555
C28A C27A 1_555 1_555
H14A C28A 1_555 1_555
C29A C28A 1_555 1_555
Cl2A C29A 1_555 1_555
C30A C29A 1_555 1_555
H15A C30A 1_555 1_555
C31A C32A 1_555 1_555
H16A C31A 1_555 1_555
C26A C5A 1_555 1_555
C21A C26A 1_555 1_555
H9A C21A 1_555 1_555
C22A C21A 1_555 1_555
H10A C22A 1_555 1_555
C23A C22A 1_555 1_555
Cl1A C23A 1_555 1_555
C24A C23A 1_555 1_555
H11A C24A 1_555 1_555
C25A C26A 1_555 1_555
H12A C25A 1_555 1_555
C7A C6A 1_555 1_555
H3A C7A 1_555 1_555
C8A C9A 1_555 1_555
H4A C8A 1_555 1_555
C19A C20 1_555 1_555
N4A Mn2 1_555 1_555
C16A N4A 1_555 1_555
C15A C16A 1_555 1_555
C14A C15A 1_555 1_555
N3A Mn2 1_555 1_555
C11A N3A 1_555 1_555
C12A C11A 1_555 1_555
H5A C12A 1_555 1_555
C13A C14A 1_555 1_555
H6A C13A 1_555 1_555
C20A C19 1_555 1_555
C44A C20A 1_555 1_555
C39A C44A 1_555 1_555
H21A C39A 1_555 1_555
C40A C39A 1_555 1_555
H22A C40A 1_555 1_555
C41A C40A 1_555 1_555
Cl4A C41A 1_555 1_555
C42A C41A 1_555 1_555
H23A C42A 1_555 1_555
C43A C44A 1_555 1_555
H24A C43A 1_555 1_555
C38A C15A 1_555 1_555
C33A C38A 1_555 1_555
H17A C33A 1_555 1_555
C34A C33A 1_555 1_555
H18A C34A 1_555 1_555
C35A C34A 1_555 1_555
Cl3A C35A 1_555 1_555
C36A C35A 1_555 1_555
H19A C36A 1_555 1_555
C37A C38A 1_555 1_555
H20A C37A 1_555 1_555
C17A C16A 1_555 1_555
H7A C17A 1_555 1_555
C18A C19A 1_555 1_555
H8A C18A 1_555 1_555
O1A C49A 1_555 1_555
N5A Mn1 1_555 1_555
N6A C46A 1_555 1_555
N7A C48A 1_555 1_555
N8A C47A 1_555 1_555
N9A C50A 1_555 1_555
C45A N5A 1_555 1_555
C46A C51A 1_555 1_555
C47A C49A 1_555 1_555
C48A C52A 1_555 1_555
C49A C53A 1_555 1_555
C50A C51A 1_555 1_555
C51A C52A 1_555 1_555
C52A C53A 1_555 1_555
C53A C45A 1_555 1_555
O1A_2 Mn2 1_555 1_555
Mn2_2 O1A 1_555 1_555
C3 C4 1_555 1_555
C5 C6 1_555 1_555
C8 C9 1_555 1_555
C13 C14 1_555 1_555
C15 C16 1_555 1_555
C18 C19 1_555 1_555
C21 C26 1_555 1_555
C25 C26 1_555 1_555
C27 C32 1_555 1_555
C31 C32 1_555 1_555
C33 C38 1_555 1_555
C37 C38 1_555 1_555
C39 C44 1_555 1_555
C43 C44 1_555 1_555
C58 C59 1_555 1_555
C9A N2A 1_555 1_555
C4A N1A 1_555 1_555
C1A C10A 1_555 1_555
C2A C3A 1_555 1_555
C30A C31A 1_555 1_555
C24A C25A 1_555 1_555
C7A C8A 1_555 1_555
C19A N4A 1_555 1_555
C14A N3A 1_555 1_555
C11A C20A 1_555 1_555
C12A C13A 1_555 1_555
C42A C43A 1_555 1_555
C36A C37A 1_555 1_555
C17A C18A 1_555 1_555

#END
