
#######################################################################
#
#                 Cambridge Crystallographic Data Centre
#                                CCDC 
#
#######################################################################
#
# If this CIF has been generated from an entry in the Cambridge 
# Structural Database, then it will include bibliographic, chemical, 
# crystal, experimental, refinement or atomic coordinate data resulting 
# from the CCDC's data processing and validation procedures.
#
#######################################################################

data_QIPRIS
_symmetry_cell_setting           triclinic
_symmetry_space_group_name_H-M   'P -1'
_symmetry_Int_Tables_number      2
_space_group_name_Hall           '-P 1'
loop_
_symmetry_equiv_pos_site_id
_symmetry_equiv_pos_as_xyz
1 x,y,z
2 -x,-y,-z
_cell_length_a                   11.5577(9)
_cell_length_b                   15.1458(12)
_cell_length_c                   15.1471(12)
_cell_angle_alpha                85.080(2)
_cell_angle_beta                 86.468(2)
_cell_angle_gamma                74.596(2)
_cell_volume                     2544.76
loop_
_atom_site_label
_atom_site_type_symbol
_atom_site_fract_x
_atom_site_fract_y
_atom_site_fract_z
Cu1 Cu 0.32104(6) 1.09343(4) 0.54482(4)
Cu2 Cu -0.09460(5) 0.48603(5) 0.87926(4)
N1 N 0.0767(3) 0.4270(3) 0.8387(3)
N2 N 0.7321(4) 0.5415(3) 0.9140(3)
N3 N 0.2409(4) 0.9971(3) 0.5184(3)
N4 N 0.5805(4) 0.8201(3) 0.4314(3)
O1 O 0.3232(3) 0.4978(2) 0.7178(2)
O2 O 0.4444(3) 0.6233(3) 0.8087(2)
O3 O 0.2354(3) 0.7626(2) 0.5957(2)
O4 O 0.5174(3) 0.6139(2) 0.5324(2)
O5 O -0.1093(3) 0.5673(2) 0.7684(2)
O6 O -0.1473(3) 0.4449(3) 0.7187(2)
O7 O -0.1016(3) 0.3845(3) 0.9669(3)
O8 O 0.0355(4) 0.4026(3) 1.0530(3)
O9 O 0.0837(3) 1.1471(3) 0.6458(2)
O10 O 0.2774(3) 1.0826(2) 0.6701(2)
O11 O 0.3180(3) 1.1366(3) 0.4198(2)
O12 O 0.5024(4) 1.0446(3) 0.4043(3)
C1 C 0.3762(4) 0.6322(4) 0.6614(3)
C2 C 0.2740(4) 0.5946(3) 0.7046(3)
H1 H 0.2470 0.6211 0.7607
H2 H 0.2065 0.6086 0.6661
C3 C 0.4842(4) 0.6031(4) 0.7193(3)
H3 H 0.5212 0.5379 0.7167
H4 H 0.5432 0.6361 0.6986
C4 C 0.3350(4) 0.7369(3) 0.6525(3)
H5 H 0.3111 0.7605 0.7103
H6 H 0.3998 0.7619 0.6273
C5 C 0.4103(4) 0.5919(4) 0.5721(3)
H7 H 0.4239 0.5258 0.5797
H8 H 0.3444 0.6159 0.5326
C6 C 0.2563(4) 0.4466(3) 0.7636(3)
C7 C 0.3093(5) 0.3538(4) 0.7764(4)
H9 H 0.3875 0.3290 0.7553
C8 C 0.2452(5) 0.2993(4) 0.8206(4)
H10 H 0.2795 0.2365 0.8304
C9 C 0.1285(5) 0.3377(4) 0.8508(4)
H11 H 0.0851 0.2997 0.8805
C10 C 0.1395(4) 0.4807(3) 0.7952(3)
H12 H 0.1034 0.5432 0.7859
C11 C 0.5296(4) 0.6003(4) 0.8712(3)
C12 C 0.4921(5) 0.6203(4) 0.9570(4)
H13 H 0.4116 0.6459 0.9718
C13 C 0.5770(5) 0.6012(5) 1.0195(4)
H14 H 0.5548 0.6149 1.0778
C14 C 0.6960(5) 0.5617(4) 0.9965(4)
H15 H 0.7525 0.5489 1.0401
C15 C 0.6496(4) 0.5595(4) 0.8524(3)
H16 H 0.6736 0.5440 0.7948
C16 C 0.2114(4) 0.8476(4) 0.5505(3)
C17 C 0.1350(5) 0.8617(4) 0.4804(4)
H17 H 0.0995 0.8162 0.4675
C18 C 0.1132(5) 0.9432(4) 0.4311(4)
H18 H 0.0620 0.9542 0.3841
C19 C 0.1675(5) 1.0096(4) 0.4512(4)
H19 H 0.1523 1.0650 0.4167
C20 C 0.2616(4) 0.9177(4) 0.5672(3)
H20 H 0.3120 0.9088 0.6146
C21 C 0.5042(4) 0.6903(4) 0.4751(3)
C22 C 0.4219(5) 0.7144(4) 0.4093(3)
H21 H 0.3688 0.6793 0.4017
C23 C 0.4212(5) 0.7931(4) 0.3546(4)
H22 H 0.3665 0.8117 0.3098
C24 C 0.5007(5) 0.8429(4) 0.3666(4)
H23 H 0.4998 0.8947 0.3287
C25 C 0.5822(4) 0.7449(4) 0.4835(3)
H24 H 0.6380 0.7279 0.5277
C26 C -0.1278(4) 0.5670(4) 0.6132(3)
C27 C -0.0922(4) 0.6466(4) 0.5948(4)
H25 H -0.0697 0.6750 0.6405
C28 C -0.0899(5) 0.6849(4) 0.5081(4)
H26 H -0.0652 0.7385 0.4961
C29 C -0.1238(5) 0.6441(4) 0.4403(4)
H27 H -0.1223 0.6701 0.3825
C30 C -0.1600(5) 0.5648(4) 0.4576(4)
H28 H -0.1827 0.5370 0.4115
C31 C -0.1627(5) 0.5266(4) 0.5428(4)
H29 H -0.1881 0.4732 0.5542
C32 C -0.0656(5) 0.2864(4) 1.0966(3)
C33 C -0.1469(5) 0.2392(4) 1.0792(4)
H30 H -0.1927 0.2563 1.0291
C34 C -0.1607(6) 0.1651(4) 1.1371(4)
H31 H -0.2153 0.1328 1.1250
C35 C -0.0954(6) 0.1402(4) 1.2106(4)
H32 H -0.1039 0.0903 1.2481
C36 C -0.0179(6) 0.1882(4) 1.2292(4)
H33 H 0.0252 0.1722 1.2806
C37 C -0.0021(5) 0.2611(4) 1.1722(4)
H34 H 0.0522 0.2932 1.1854
C38 C -0.0429(5) 0.3655(4) 1.0342(4)
C39 C -0.1278(4) 0.5226(4) 0.7050(4)
C40 C 0.1420(5) 1.0995(4) 0.7946(4)
C41 C 0.0252(5) 1.1121(4) 0.8279(4)
H35 H -0.0377 1.1257 0.7893
C42 C 0.0017(6) 1.1044(4) 0.9185(4)
H36 H -0.0769 1.1115 0.9405
C43 C 0.0934(6) 1.0866(4) 0.9761(4)
H37 H 0.0769 1.0832 1.0370
C44 C 0.2085(6) 1.0738(4) 0.9439(4)
H38 H 0.2708 1.0616 0.9829
C45 C 0.2339(5) 1.0789(4) 0.8527(4)
H39 H 0.3131 1.0684 0.8311
C46 C 0.1671(5) 1.1109(3) 0.6963(4)
C47 C 0.4137(5) 1.1336(4) 0.2769(4)
C48 C 0.5137(5) 1.0955(4) 0.2231(4)
H40 H 0.5801 1.0535 0.2474
C49 C 0.5129(6) 1.1212(4) 0.1328(4)
H41 H 0.5797 1.0962 0.0967
C50 C 0.4152(6) 1.1826(4) 0.0959(4)
H42 H 0.4155 1.1985 0.0352
C51 C 0.3173(6) 1.2203(4) 0.1490(4)
H43 H 0.2513 1.2625 0.1244
C52 C 0.3163(5) 1.1958(4) 0.2395(4)
H44 H 0.2495 1.2216 0.2751
C53 C 0.4139(5) 1.1008(4) 0.3747(4)
Cu1A Cu 0.67896(6) 0.90657(4) 0.45518(4)
Cu2_2 Cu 0.90540(5) 0.48603(5) 0.87926(4)
Cu2A Cu 0.09460(5) 0.51397(5) 1.12074(4)
N2_2 N -0.2679(4) 0.5415(3) 0.9140(3)
N4A N 0.4195(4) 1.1799(3) 0.5686(3)
O8A O -0.0355(4) 0.5974(3) 0.9470(3)
O12A O 0.4976(4) 0.9554(3) 0.5957(3)
O13 O 0.8548(4) 0.2771(3) 0.6761(3)
O14 O 0.7370(6) 0.2982(4) 0.8494(4)
loop_
_geom_bond_atom_site_label_1
_geom_bond_atom_site_label_2
_geom_bond_site_symmetry_1
_geom_bond_site_symmetry_2
Cu1 N3 1_555 1_555
Cu2 N1 1_555 1_555
N1 C9 1_555 1_555
N2 C14 1_555 1_555
N3 C19 1_555 1_555
N4 C24 1_555 1_555
O1 C2 1_555 1_555
O2 C3 1_555 1_555
O3 C4 1_555 1_555
O4 C5 1_555 1_555
O5 Cu2 1_555 1_555
O6 Cu2 1_555 1_555
O7 Cu2 1_555 1_555
O8 C38 1_555 1_555
O9 C46 1_555 1_555
O10 Cu1 1_555 1_555
O11 Cu1 1_555 1_555
O12 C53 1_555 1_555
C1 C2 1_555 1_555
C2 H1 1_555 1_555
H2 C2 1_555 1_555
C3 C1 1_555 1_555
H3 C3 1_555 1_555
H4 C3 1_555 1_555
C4 C1 1_555 1_555
H5 C4 1_555 1_555
H6 C4 1_555 1_555
C5 C1 1_555 1_555
H7 C5 1_555 1_555
H8 C5 1_555 1_555
C6 O1 1_555 1_555
C7 C6 1_555 1_555
H9 C7 1_555 1_555
C8 C7 1_555 1_555
H10 C8 1_555 1_555
C9 C8 1_555 1_555
H11 C9 1_555 1_555
C10 N1 1_555 1_555
H12 C10 1_555 1_555
C11 O2 1_555 1_555
C12 C11 1_555 1_555
H13 C12 1_555 1_555
C13 C12 1_555 1_555
H14 C13 1_555 1_555
C14 C13 1_555 1_555
H15 C14 1_555 1_555
C15 N2 1_555 1_555
H16 C15 1_555 1_555
C16 O3 1_555 1_555
C17 C16 1_555 1_555
H17 C17 1_555 1_555
C18 C17 1_555 1_555
H18 C18 1_555 1_555
C19 C18 1_555 1_555
H19 C19 1_555 1_555
C20 N3 1_555 1_555
H20 C20 1_555 1_555
C21 O4 1_555 1_555
C22 C21 1_555 1_555
H21 C22 1_555 1_555
C23 C22 1_555 1_555
H22 C23 1_555 1_555
C24 C23 1_555 1_555
H23 C24 1_555 1_555
C25 N4 1_555 1_555
H24 C25 1_555 1_555
C26 C27 1_555 1_555
C27 H25 1_555 1_555
C28 C27 1_555 1_555
H26 C28 1_555 1_555
C29 C28 1_555 1_555
H27 C29 1_555 1_555
C30 C29 1_555 1_555
H28 C30 1_555 1_555
C31 C26 1_555 1_555
H29 C31 1_555 1_555
C32 C33 1_555 1_555
C33 H30 1_555 1_555
C34 C33 1_555 1_555
H31 C34 1_555 1_555
C35 C34 1_555 1_555
H32 C35 1_555 1_555
C36 C35 1_555 1_555
H33 C36 1_555 1_555
C37 C32 1_555 1_555
H34 C37 1_555 1_555
C38 O7 1_555 1_555
C39 O5 1_555 1_555
C40 C41 1_555 1_555
C41 H35 1_555 1_555
C42 C41 1_555 1_555
H36 C42 1_555 1_555
C43 C42 1_555 1_555
H37 C43 1_555 1_555
C44 C43 1_555 1_555
H38 C44 1_555 1_555
C45 C40 1_555 1_555
H39 C45 1_555 1_555
C46 O10 1_555 1_555
C47 C48 1_555 1_555
C48 H40 1_555 1_555
C49 C48 1_555 1_555
H41 C49 1_555 1_555
C50 C49 1_555 1_555
H42 C50 1_555 1_555
C51 C50 1_555 1_555
H43 C51 1_555 1_555
C52 C47 1_555 1_555
H44 C52 1_555 1_555
C53 O11 1_555 1_555
Cu1A N4 1_555 1_555
Cu2_2 N2 1_555 1_555
Cu2A O8 1_555 1_555
N2_2 Cu2 1_555 1_555
N4A Cu1 1_555 1_555
O8A Cu2 1_555 1_555
O12A Cu1 1_555 1_555
O6 C39 1_555 1_555
O12 Cu1A 1_555 1_555
C6 C10 1_555 1_555
C11 C15 1_555 1_555
C16 C20 1_555 1_555
C21 C25 1_555 1_555
C26 C39 1_555 1_555
C30 C31 1_555 1_555
C32 C38 1_555 1_555
C36 C37 1_555 1_555
C40 C46 1_555 1_555
C44 C45 1_555 1_555
C47 C53 1_555 1_555
C51 C52 1_555 1_555

#END
