
#######################################################################
#
#                 Cambridge Crystallographic Data Centre
#                                CCDC 
#
#######################################################################
#
# If this CIF has been generated from an entry in the Cambridge 
# Structural Database, then it will include bibliographic, chemical, 
# crystal, experimental, refinement or atomic coordinate data resulting 
# from the CCDC's data processing and validation procedures.
#
#######################################################################

data_QIPTEO
_symmetry_cell_setting           monoclinic
_symmetry_space_group_name_H-M   'P 21/c'
_symmetry_Int_Tables_number      14
_space_group_name_Hall           '-P 2ybc'
loop_
_symmetry_equiv_pos_site_id
_symmetry_equiv_pos_as_xyz
1 x,y,z
2 x,1/2-y,1/2+z
3 -x,-y,-z
4 -x,1/2+y,1/2-z
_cell_length_a                   17.382(4)
_cell_length_b                   7.511(2)
_cell_length_c                   19.642(4)
_cell_angle_alpha                90
_cell_angle_beta                 100.80(4)
_cell_angle_gamma                90
_cell_volume                     2518.96
loop_
_atom_site_label
_atom_site_type_symbol
_atom_site_fract_x
_atom_site_fract_y
_atom_site_fract_z
In1 In 0.46911(2) 0.38796(5) 0.201874(18)
O1 O 0.5097(2) 0.5787(5) 0.31026(18)
O2 O 0.5617(2) 0.3196(5) 0.29541(18)
N1 N 0.7041(3) 0.2615(7) 0.3789(3)
H1 H 0.667(4) 0.216(9) 0.343(4)
H2 H 0.739(4) 0.195(9) 0.405(3)
C1 C 0.5316(6) 0.5005(11) 0.1284(5)
H3 H 0.513(4) 0.513(11) 0.065(4)
H4 H 0.531(6) 0.599(12) 0.136(5)
C2 C 0.6026(6) 0.4146(13) 0.1217(7)
H5 H 0.6450 0.4635 0.1548
H6 H 0.6124 0.4330 0.0757
H7 H 0.5984 0.2893 0.1300
C3 C 0.3544(4) 0.3344(11) 0.2184(4)
H8 H 0.324(4) 0.348(10) 0.177(4)
H9 H 0.336(4) 0.220(10) 0.250(4)
C4 C 0.3243(5) 0.4265(12) 0.2723(4)
H10 H 0.3506 0.3844 0.3168
H11 H 0.2692 0.4044 0.2673
H12 H 0.3332 0.5521 0.2688
C5 C 0.5564(3) 0.4523(7) 0.3333(3)
C6 C 0.6043(2) 0.4623(6) 0.4042(2)
C7 C 0.6724(3) 0.3617(6) 0.4248(2)
C8 C 0.7116(3) 0.3775(8) 0.4937(3)
H13 H 0.747(3) 0.294(7) 0.510(3)
C9 C 0.6864(4) 0.4884(8) 0.5394(3)
H14 H 0.718(3) 0.493(8) 0.587(3)
C10 C 0.6206(4) 0.5886(9) 0.5192(3)
H15 H 0.603(4) 0.677(9) 0.551(3)
C11 C 0.5799(3) 0.5766(8) 0.4522(3)
H16 H 0.535(3) 0.642(8) 0.439(3)
O1C O 0.4903(2) 0.0787(5) 0.18974(18)
In1C In 0.53089(2) 0.88796(5) 0.298126(18)
In2 In 1.022839(17) 0.78808(4) 0.213317(14)
O3 O 0.98831(17) 0.9705(4) 0.30499(15)
O4 O 0.94626(18) 0.6972(4) 0.29086(15)
N2 N 0.8267(3) 0.5995(6) 0.3536(3)
H17 H 0.850(4) 0.580(8) 0.324(3)
H18 H 0.794(4) 0.530(8) 0.358(3)
C12 C 1.1443(3) 0.7587(7) 0.2603(3)
H19 H 1.150(3) 0.634(8) 0.268(3)
H20 H 1.179(3) 0.783(7) 0.226(3)
C13 C 1.1719(4) 0.8652(12) 0.3236(4)
H21 H 1.1703 0.9894 0.3119
H22 H 1.2247 0.8319 0.3433
H23 H 1.1387 0.8433 0.3566
C14 C 0.9301(3) 0.8561(7) 0.1295(3)
H24 H 0.905(3) 0.748(8) 0.115(3)
H25 H 0.891(3) 0.904(7) 0.149(3)
C15 C 0.9490(4) 0.9589(9) 0.0696(3)
H26 H 0.9762 1.0662 0.0862
H27 H 0.9014 0.9886 0.0383
H28 H 0.9816 0.8880 0.0458
C16 C 0.9475(2) 0.8439(5) 0.3229(2)
C17 C 0.9033(2) 0.8689(5) 0.3795(2)
C18 C 0.8445(2) 0.7499(5) 0.3912(2)
C19 C 0.8038(3) 0.7904(7) 0.4446(2)
H29 H 0.769(3) 0.723(7) 0.453(3)
C20 C 0.8222(3) 0.9333(7) 0.4859(2)
H30 H 0.791(3) 0.953(7) 0.526(3)
C21 C 0.8817(3) 1.0501(7) 0.4763(2)
H31 H 0.894(3) 1.147(7) 0.503(3)
C22 C 0.9206(3) 1.0163(6) 0.4233(2)
H32 H 0.962(3) 1.085(6) 0.418(2)
O3C O 1.01169(17) 0.4705(4) 0.19501(15)
In2C In 0.977161(17) 1.28808(4) 0.286683(14)
loop_
_geom_bond_atom_site_label_1
_geom_bond_atom_site_label_2
_geom_bond_site_symmetry_1
_geom_bond_site_symmetry_2
In1 O1 1_555 1_555
O1 C5 1_555 1_555
O2 In1 1_555 1_555
N1 H1 1_555 1_555
H2 N1 1_555 1_555
C1 In1 1_555 1_555
H3 C1 1_555 1_555
H4 C1 1_555 1_555
C2 C1 1_555 1_555
H5 C2 1_555 1_555
H6 C2 1_555 1_555
H7 C2 1_555 1_555
C3 In1 1_555 1_555
H8 C3 1_555 1_555
H9 C3 1_555 1_555
C4 C3 1_555 1_555
H10 C4 1_555 1_555
H11 C4 1_555 1_555
H12 C4 1_555 1_555
C5 O2 1_555 1_555
C6 C5 1_555 1_555
C7 N1 1_555 1_555
C8 C7 1_555 1_555
H13 C8 1_555 1_555
C9 C8 1_555 1_555
H14 C9 1_555 1_555
C10 C9 1_555 1_555
H15 C10 1_555 1_555
C11 C6 1_555 1_555
H16 C11 1_555 1_555
In2 O3 1_555 1_555
O3 C16 1_555 1_555
O4 In2 1_555 1_555
N2 H17 1_555 1_555
H18 N2 1_555 1_555
C12 In2 1_555 1_555
H19 C12 1_555 1_555
H20 C12 1_555 1_555
C13 C12 1_555 1_555
H21 C13 1_555 1_555
H22 C13 1_555 1_555
H23 C13 1_555 1_555
C14 In2 1_555 1_555
H24 C14 1_555 1_555
H25 C14 1_555 1_555
C15 C14 1_555 1_555
H26 C15 1_555 1_555
H27 C15 1_555 1_555
H28 C15 1_555 1_555
C16 O4 1_555 1_555
C17 C16 1_555 1_555
C18 N2 1_555 1_555
C19 C18 1_555 1_555
H29 C19 1_555 1_555
C20 C19 1_555 1_555
H30 C20 1_555 1_555
C21 C20 1_555 1_555
H31 C21 1_555 1_555
C22 C17 1_555 1_555
H32 C22 1_555 1_555
O1C In1 1_555 1_555
In1C O1 1_555 1_555
O3C In2 1_555 1_555
In2C O3 1_555 1_555
C6 C7 1_555 1_555
C10 C11 1_555 1_555
C17 C18 1_555 1_555
C21 C22 1_555 1_555

#END
