
#######################################################################
#
#                 Cambridge Crystallographic Data Centre
#                                CCDC 
#
#######################################################################
#
# If this CIF has been generated from an entry in the Cambridge 
# Structural Database, then it will include bibliographic, chemical, 
# crystal, experimental, refinement or atomic coordinate data resulting 
# from the CCDC's data processing and validation procedures.
#
#######################################################################

data_QIPVAO
_symmetry_cell_setting           orthorhombic
_symmetry_space_group_name_H-M   'P 21 21 21'
_symmetry_Int_Tables_number      19
_space_group_name_Hall           'P 2ac 2ab'
loop_
_symmetry_equiv_pos_site_id
_symmetry_equiv_pos_as_xyz
1 x,y,z
2 1/2-x,-y,1/2+z
3 -x,1/2+y,1/2-z
4 1/2+x,1/2-y,-z
_cell_length_a                   10.0459(2)
_cell_length_b                   11.4179(3)
_cell_length_c                   15.4175(3)
_cell_angle_alpha                90
_cell_angle_beta                 90
_cell_angle_gamma                90
_cell_volume                     1768.43
loop_
_atom_site_label
_atom_site_type_symbol
_atom_site_fract_x
_atom_site_fract_y
_atom_site_fract_z
Bi1 Bi 0.859499(15) 0.398620(16) 0.246888(12)
S1 S 1.02161(12) 0.57967(12) 0.24046(15)
S2 S 0.73278(14) 0.49683(17) 0.11608(8)
O1 O 1.2801(5) 0.7207(5) 0.3043(3)
O2 O 1.3592(6) 0.6981(6) 0.1744(3)
O3 O 0.6698(5) 0.5422(5) -0.0687(2)
O4 O 0.7883(4) 0.4770(4) -0.1790(2)
N1 N 1.1340(4) 0.3722(4) 0.2583(3)
N2 N 0.9351(4) 0.3587(4) 0.0999(3)
C1 C 1.3128(5) 0.6605(5) 0.2409(5)
C2 C 1.2897(4) 0.5305(5) 0.2493(6)
C3 C 1.3947(5) 0.4509(6) 0.2545(6)
H1 H 1.4824 0.4764 0.2505
C4 C 1.3661(6) 0.3319(6) 0.2657(5)
H2 H 1.4341 0.2774 0.2723
C5 C 1.2364(6) 0.2978(6) 0.2668(5)
H3 H 1.2177 0.2186 0.2738
C6 C 1.1608(4) 0.4863(4) 0.2509(4)
C7 C 0.7636(5) 0.4855(7) -0.0983(3)
C8 C 0.8538(5) 0.4176(5) -0.0397(3)
C9 C 0.9533(6) 0.3506(6) -0.0760(3)
H4 H 0.9619 0.3486 -0.1360
C10 C 1.0407(7) 0.2864(8) -0.0260(4)
H5 H 1.1064 0.2409 -0.0518
C11 C 1.0288(6) 0.2911(7) 0.0628(4)
H6 H 1.0859 0.2472 0.0973
C12 C 0.8467(6) 0.4209(5) 0.0522(3)
Bi1A Bi 0.640501(15) 0.601380(16) -0.253112(12)
Bi1B Bi 1.140501(15) 0.898620(16) 0.253112(12)
O1B O 0.7199(5) 0.2207(5) 0.1957(3)
O3A O 0.8302(5) 0.4578(5) 0.4313(2)
O4A O 0.7117(4) 0.5230(4) 0.3210(2)
N3 N 1.4361(8) 0.6093(8) 0.0239(4)
H7 H 1.5185 0.5793 0.0183
H8 H 1.4229 0.6228 0.0808
C13 C 1.3431(11) 0.5216(15) -0.0030(7)
H9 H 1.3648 0.4960 -0.0606
H10 H 1.2548 0.5538 -0.0026
H11 H 1.3473 0.4563 0.0360
C14 C 1.4337(14) 0.7213(13) -0.0204(8)
H12 H 1.4652 0.7114 -0.0788
H13 H 1.4901 0.7757 0.0096
H14 H 1.3442 0.7508 -0.0215
loop_
_geom_bond_atom_site_label_1
_geom_bond_atom_site_label_2
_geom_bond_site_symmetry_1
_geom_bond_site_symmetry_2
Bi1 S1 1_555 1_555
S1 C6 1_555 1_555
S2 Bi1 1_555 1_555
O1 C1 1_555 1_555
O2 C1 1_555 1_555
O3 C7 1_555 1_555
O4 C7 1_555 1_555
N1 Bi1 1_555 1_555
N2 Bi1 1_555 1_555
C1 C2 1_555 1_555
C2 C3 1_555 1_555
C3 H1 1_555 1_555
C4 C3 1_555 1_555
H2 C4 1_555 1_555
C5 N1 1_555 1_555
H3 C5 1_555 1_555
C6 N1 1_555 1_555
C7 C8 1_555 1_555
C8 C9 1_555 1_555
C9 H4 1_555 1_555
C10 C9 1_555 1_555
H5 C10 1_555 1_555
C11 N2 1_555 1_555
H6 C11 1_555 1_555
C12 S2 1_555 1_555
N3 H7 1_555 1_555
H8 N3 1_555 1_555
C13 N3 1_555 1_555
H9 C13 1_555 1_555
H10 C13 1_555 1_555
H11 C13 1_555 1_555
C14 N3 1_555 1_555
H12 C14 1_555 1_555
H13 C14 1_555 1_555
H14 C14 1_555 1_555
Bi1A O3 1_555 1_555
Bi1B O1 1_555 1_555
O1B Bi1 1_555 1_555
O3A Bi1 1_555 1_555
O4A Bi1 1_555 1_555
O4 Bi1A 1_555 1_555
N2 C12 1_555 1_555
C2 C6 1_555 1_555
C4 C5 1_555 1_555
C8 C12 1_555 1_555
C10 C11 1_555 1_555

#END
