
#######################################################################
#
#                 Cambridge Crystallographic Data Centre
#                                CCDC 
#
#######################################################################
#
# If this CIF has been generated from an entry in the Cambridge 
# Structural Database, then it will include bibliographic, chemical, 
# crystal, experimental, refinement or atomic coordinate data resulting 
# from the CCDC's data processing and validation procedures.
#
#######################################################################

data_QIPWOB
_symmetry_cell_setting           orthorhombic
_symmetry_space_group_name_H-M   'P c a 21'
_symmetry_Int_Tables_number      29
_space_group_name_Hall           'P 2c -2ac'
loop_
_symmetry_equiv_pos_site_id
_symmetry_equiv_pos_as_xyz
1 x,y,z
2 -x,-y,1/2+z
3 1/2+x,-y,z
4 1/2-x,y,1/2+z
_cell_length_a                   7.999(8)
_cell_length_b                   8.260(7)
_cell_length_c                   29.761(6)
_cell_angle_alpha                90
_cell_angle_beta                 90
_cell_angle_gamma                90
_cell_volume                     1966.36
loop_
_atom_site_label
_atom_site_type_symbol
_atom_site_fract_x
_atom_site_fract_y
_atom_site_fract_z
U1 U 0.66122(5) 0.27816(4) 0.40038(3)
S1 S 0.5217(4) 0.8102(4) 0.26907(11)
O1 O 0.6961(12) 0.4621(12) 0.4302(3)
O2 O 0.6299(11) 0.0971(11) 0.3689(3)
O3 O 0.9539(9) 0.2091(9) 0.4056(4)
H1 H 0.9812 0.2025 0.4321
H2 H 0.9704 0.1223 0.3930
O4 O 0.3785(13) 0.2391(12) 0.4303(4)
H3 H 0.3827 0.2324 0.4578
H4 H 0.3171 0.3186 0.4228
N1 N 0.3464(15) 0.8994(16) 0.2785(4)
H5 H 0.3150 0.9941 0.2662
H6 H 0.2850 0.8407 0.2979
C1 C 0.4916(16) 0.6111(15) 0.2485(4)
C2 C 0.4543(15) 0.4814(15) 0.2790(4)
C3 C 0.4559(16) 0.3212(16) 0.2622(4)
H7 H 0.4365 0.2347 0.2815
C4 C 0.489(2) 0.2936(18) 0.2165(5)
H8 H 0.4868 0.1884 0.2055
C5 C 0.5191(19) 0.4186(17) 0.1876(5)
H9 H 0.5385 0.3983 0.1573
C6 C 0.5250(18) 0.5792(17) 0.2043(5)
H10 H 0.5504 0.6642 0.1850
C7 C 0.4010(18) 0.5057(17) 0.3275(5)
O5 O 0.6005(13) 0.8980(12) 0.2329(3)
O6 O 0.6055(13) 0.7962(12) 0.3109(3)
O7 O 0.4536(11) 0.4109(11) 0.3567(3)
O8 O 0.2979(11) 0.6205(10) 0.3344(3)
S2 S 0.7245(5) -0.2953(4) 0.55481(12)
O9 O 0.8414(14) -0.2924(12) 0.5178(4)
O10 O 0.7694(15) -0.3912(14) 0.5931(4)
O11 O 0.6901(11) 0.1488(12) 0.4706(3)
O12 O 0.5691(13) -0.0928(13) 0.4808(3)
N2 N 0.5554(16) -0.3673(16) 0.5371(4)
H11 H 0.5014 -0.4517 0.5496
H12 H 0.5206 -0.3117 0.5128
C8 C 0.7011(16) -0.0912(16) 0.5731(4)
C9 C 0.7140(16) -0.0678(16) 0.6189(5)
H13 H 0.7254 -0.1567 0.6378
C10 C 0.7093(17) 0.0884(17) 0.6374(5)
H14 H 0.7174 0.1037 0.6682
C11 C 0.6900(17) 0.2189(17) 0.6087(5)
H15 H 0.6877 0.3232 0.6204
C12 C 0.6771(16) 0.1978(15) 0.5632(4)
H16 H 0.6665 0.2878 0.5447
C13 C 0.6770(16) 0.0413(16) 0.5439(4)
C14 C 0.6447(18) 0.0268(17) 0.4950(5)
O8B O 0.7979(11) 0.3795(10) 0.3344(3)
U1B U 0.16122(5) 0.72184(4) 0.40038(3)
loop_
_geom_bond_atom_site_label_1
_geom_bond_atom_site_label_2
_geom_bond_site_symmetry_1
_geom_bond_site_symmetry_2
U1 O1 1_555 1_555
S1 N1 1_555 1_555
O2 U1 1_555 1_555
O3 U1 1_555 1_555
H1 O3 1_555 1_555
H2 O3 1_555 1_555
O4 U1 1_555 1_555
H3 O4 1_555 1_555
H4 O4 1_555 1_555
N1 H5 1_555 1_555
H6 N1 1_555 1_555
C1 S1 1_555 1_555
C2 C1 1_555 1_555
C3 C2 1_555 1_555
H7 C3 1_555 1_555
C4 C3 1_555 1_555
H8 C4 1_555 1_555
C5 C4 1_555 1_555
H9 C5 1_555 1_555
C6 C1 1_555 1_555
H10 C6 1_555 1_555
C7 C2 1_555 1_555
O5 S1 1_555 1_555
O6 S1 1_555 1_555
O7 U1 1_555 1_555
O8 C7 1_555 1_555
S2 O9 1_555 1_555
O10 S2 1_555 1_555
O11 U1 1_555 1_555
O12 C14 1_555 1_555
N2 S2 1_555 1_555
H11 N2 1_555 1_555
H12 N2 1_555 1_555
C8 S2 1_555 1_555
C9 C8 1_555 1_555
H13 C9 1_555 1_555
C10 C9 1_555 1_555
H14 C10 1_555 1_555
C11 C10 1_555 1_555
H15 C11 1_555 1_555
C12 C11 1_555 1_555
H16 C12 1_555 1_555
C13 C8 1_555 1_555
C14 O11 1_555 1_555
O8B U1 1_555 1_555
U1B O8 1_555 1_555
C5 C6 1_555 1_555
C7 O7 1_555 1_555
C12 C13 1_555 1_555
C13 C14 1_555 1_555

#END
