
#######################################################################
#
#                 Cambridge Crystallographic Data Centre
#                                CCDC 
#
#######################################################################
#
# If this CIF has been generated from an entry in the Cambridge 
# Structural Database, then it will include bibliographic, chemical, 
# crystal, experimental, refinement or atomic coordinate data resulting 
# from the CCDC's data processing and validation procedures.
#
#######################################################################

data_QIPYAP
_symmetry_cell_setting           monoclinic
_symmetry_space_group_name_H-M   'P 21/c'
_symmetry_Int_Tables_number      14
_space_group_name_Hall           '-P 2ybc'
loop_
_symmetry_equiv_pos_site_id
_symmetry_equiv_pos_as_xyz
1 x,y,z
2 x,1/2-y,1/2+z
3 -x,-y,-z
4 -x,1/2+y,1/2-z
_cell_length_a                   6.1710(10)
_cell_length_b                   11.093(2)
_cell_length_c                   14.599(3)
_cell_angle_alpha                90
_cell_angle_beta                 98.89(2)
_cell_angle_gamma                90
_cell_volume                     987.368
loop_
_atom_site_label
_atom_site_type_symbol
_atom_site_fract_x
_atom_site_fract_y
_atom_site_fract_z
Cd1 Cd 0.0000 0.0000 0.0000
Se1 Se -0.30899(7) -0.06228(5) -0.16249(3)
N1 N -0.0189(5) -0.1938(3) 0.0588(2)
N2 N -0.0564(7) -0.5504(3) 0.1500(3)
N3 N -0.7135(6) -0.0579(4) -0.0781(3)
C1 C -0.2069(7) -0.2567(5) 0.0471(3)
H1 H -0.3361(7) -0.2176(5) 0.0157(3)
C2 C -0.2269(7) -0.3726(5) 0.0755(3)
H2 H -0.3674(7) -0.4115(5) 0.0637(3)
C3 C -0.0431(7) -0.4349(4) 0.1217(3)
C4 C 0.1510(7) -0.3676(4) 0.1361(3)
H3 H 0.2839(7) -0.4033(4) 0.1673(3)
C5 C 0.1548(6) -0.2522(4) 0.1041(3)
H4 H 0.2919(6) -0.2097(4) 0.1155(3)
C6 C -0.2543(9) -0.6210(5) 0.1274(4)
H5 H -0.3698(9) -0.5721(5) 0.0951(4)
H6 H -0.2267(9) -0.6876(5) 0.0889(4)
H7 H -0.2972(9) -0.6509(5) 0.1837(4)
C7 C 0.1329(9) -0.6123(5) 0.1989(4)
H8 H 0.2555(9) -0.5583(5) 0.2106(4)
H9 H 0.0986(9) -0.6420(5) 0.2568(4)
H10 H 0.1691(9) -0.6788(5) 0.1620(4)
C8 C -0.5539(7) -0.0596(4) -0.1103(3)
Se1B Se 0.30899(7) 0.06228(5) 0.16249(3)
N3B N 0.7135(6) 0.0579(4) 0.0781(3)
C8B C 0.5539(7) 0.0596(4) 0.1103(3)
N1B N 0.0189(5) 0.1938(3) -0.0588(2)
N2B N 0.0564(7) 0.5504(3) -0.1500(3)
C1B C 0.2069(7) 0.2567(5) -0.0471(3)
H1B H 0.3361(7) 0.2176(5) -0.0157(3)
C2B C 0.2269(7) 0.3726(5) -0.0755(3)
H2B H 0.3674(7) 0.4115(5) -0.0637(3)
C3B C 0.0431(7) 0.4349(4) -0.1217(3)
C4B C -0.1510(7) 0.3676(4) -0.1361(3)
H3B H -0.2839(7) 0.4033(4) -0.1673(3)
C5B C -0.1548(6) 0.2522(4) -0.1041(3)
H4B H -0.2919(6) 0.2097(4) -0.1155(3)
C6B C 0.2543(9) 0.6210(5) -0.1274(4)
H5B H 0.3698(9) 0.5721(5) -0.0951(4)
H6B H 0.2267(9) 0.6876(5) -0.0889(4)
H7B H 0.2972(9) 0.6509(5) -0.1837(4)
C7B C -0.1329(9) 0.6123(5) -0.1989(4)
H8B H -0.2555(9) 0.5583(5) -0.2106(4)
H9B H -0.0986(9) 0.6420(5) -0.2568(4)
H10B H -0.1691(9) 0.6788(5) -0.1620(4)
N3_2 N 0.2865(6) -0.0579(4) -0.0781(3)
N3B_2 N -0.2865(6) 0.0579(4) 0.0781(3)
Cd1_2 Cd -1.0000 0.0000 0.0000
Cd1_3 Cd 1.0000 0.0000 0.0000
loop_
_geom_bond_atom_site_label_1
_geom_bond_atom_site_label_2
_geom_bond_site_symmetry_1
_geom_bond_site_symmetry_2
Cd1 Se1 1_555 1_555
Se1 C8 1_555 1_555
N1 Cd1 1_555 1_555
N2 C3 1_555 1_555
N3 C8 1_555 1_555
C1 N1 1_555 1_555
H1 C1 1_555 1_555
C2 C1 1_555 1_555
H2 C2 1_555 1_555
C3 C2 1_555 1_555
C4 C3 1_555 1_555
H3 C4 1_555 1_555
C5 N1 1_555 1_555
H4 C5 1_555 1_555
C6 N2 1_555 1_555
H5 C6 1_555 1_555
H6 C6 1_555 1_555
H7 C6 1_555 1_555
C7 N2 1_555 1_555
H8 C7 1_555 1_555
H9 C7 1_555 1_555
H10 C7 1_555 1_555
Se1B Cd1 1_555 1_555
N3B C8B 1_555 1_555
C8B Se1B 1_555 1_555
N1B Cd1 1_555 1_555
N2B C3B 1_555 1_555
C1B N1B 1_555 1_555
H1B C1B 1_555 1_555
C2B C1B 1_555 1_555
H2B C2B 1_555 1_555
C3B C2B 1_555 1_555
C4B C3B 1_555 1_555
H3B C4B 1_555 1_555
C5B N1B 1_555 1_555
H4B C5B 1_555 1_555
C6B N2B 1_555 1_555
H5B C6B 1_555 1_555
H6B C6B 1_555 1_555
H7B C6B 1_555 1_555
C7B N2B 1_555 1_555
H8B C7B 1_555 1_555
H9B C7B 1_555 1_555
H10B C7B 1_555 1_555
N3_2 Cd1 1_555 1_555
N3B_2 Cd1 1_555 1_555
Cd1_2 N3 1_555 1_555
Cd1_3 N3B 1_555 1_555
C4 C5 1_555 1_555
C4B C5B 1_555 1_555

#END
