
#######################################################################
#
#                 Cambridge Crystallographic Data Centre
#                                CCDC 
#
#######################################################################
#
# If this CIF has been generated from an entry in the Cambridge 
# Structural Database, then it will include bibliographic, chemical, 
# crystal, experimental, refinement or atomic coordinate data resulting 
# from the CCDC's data processing and validation procedures.
#
#######################################################################

data_QIQFIH
_symmetry_cell_setting           monoclinic
_symmetry_space_group_name_H-M   'P 21/n'
_symmetry_Int_Tables_number      14
_space_group_name_Hall           '-P 2yn'
loop_
_symmetry_equiv_pos_site_id
_symmetry_equiv_pos_as_xyz
1 x,y,z
2 1/2-x,1/2+y,1/2-z
3 -x,-y,-z
4 1/2+x,1/2-y,1/2+z
_cell_length_a                   6.5322(8)
_cell_length_b                   30.456(4)
_cell_length_c                   7.2856(7)
_cell_angle_alpha                90
_cell_angle_beta                 91.223(3)
_cell_angle_gamma                90
_cell_volume                     1449.1
loop_
_atom_site_label
_atom_site_type_symbol
_atom_site_fract_x
_atom_site_fract_y
_atom_site_fract_z
C1 C 0.2475(5) 0.31709(11) 0.0023(5)
C2 C 0.2468(5) 0.32667(11) -0.1824(5)
H1 H 0.2470 0.3038 -0.2670
C3 C 0.2457(5) 0.36948(12) -0.2446(5)
H2 H 0.2505 0.3754 -0.3696
C4 C 0.2374(5) 0.40356(11) -0.1187(5)
C5 C 0.2277(5) 0.39441(11) 0.0691(5)
C6 C 0.2328(5) 0.35105(11) 0.1305(5)
H3 H 0.2266 0.3448 0.2552
C7 C 0.2091(5) 0.43132(11) 0.2082(5)
C8 C 0.2308(5) 0.44982(12) -0.1934(5)
C9 C 0.1771(6) 0.25165(12) 0.1943(5)
C10 C 0.2168(6) 0.20326(12) 0.2045(5)
C11 C 0.2155(6) 0.17614(11) 0.0514(5)
H4 H 0.2056 0.1881 -0.0659
C12 C 0.2290(6) 0.13126(12) 0.0746(5)
H5 H 0.2270 0.1136 -0.0297
C13 C 0.2510(5) 0.13832(12) 0.3860(5)
H6 H 0.2668 0.1254 0.5011
C14 C 0.2356(5) 0.18339(11) 0.3773(5)
H7 H 0.2376 0.2002 0.4838
N1 N 0.2670(5) 0.27217(10) 0.0523(4)
H8 H 0.3444 0.2563 -0.0150
N2 N 0.2447(4) 0.11184(11) 0.2380(4)
Ni1 Ni 0.73063(7) 0.464271(15) -0.22975(6)
O1 O 0.3899(4) 0.46400(7) -0.2696(3)
O2 O 0.0651(4) 0.47109(8) -0.1844(3)
O3 O 0.3119(4) 0.46584(7) 0.1751(3)
O4 O 0.0984(4) 0.42484(8) 0.3396(3)
O5 O 0.0729(4) 0.27009(8) 0.3044(3)
O6 O 0.7703(4) 0.46881(8) -0.5137(4)
H9 H 0.8642 0.4561 -0.5727
H10 H 0.6663 0.4874 -0.5667
O7 O 0.7044(4) 0.45178(8) 0.0600(3)
H11 H 0.6112 0.4725 0.1118
H12 H 0.8365 0.4548 0.1191
N2C N 0.7447(4) 0.38816(11) -0.2620(4)
Ni1_2 Ni -0.26937(7) 0.464271(15) -0.22975(6)
Ni1B Ni 0.26937(7) 0.535729(15) 0.22975(6)
Ni1C Ni 0.23063(7) 0.035729(15) 0.27025(6)
O2_2 O 1.0651(4) 0.47109(8) -0.1844(3)
O3B O 0.6881(4) 0.53416(7) -0.1751(3)
loop_
_geom_bond_atom_site_label_1
_geom_bond_atom_site_label_2
_geom_bond_site_symmetry_1
_geom_bond_site_symmetry_2
C1 C2 1_555 1_555
C2 H1 1_555 1_555
C3 C2 1_555 1_555
H2 C3 1_555 1_555
C4 C3 1_555 1_555
C5 C4 1_555 1_555
C6 C1 1_555 1_555
H3 C6 1_555 1_555
C7 C5 1_555 1_555
C8 C4 1_555 1_555
C9 C10 1_555 1_555
C10 C11 1_555 1_555
C11 H4 1_555 1_555
C12 C11 1_555 1_555
H5 C12 1_555 1_555
C13 H6 1_555 1_555
C14 C10 1_555 1_555
H7 C14 1_555 1_555
N1 C1 1_555 1_555
H8 N1 1_555 1_555
N2 C12 1_555 1_555
Ni1 O1 1_555 1_555
O1 C8 1_555 1_555
O2 C8 1_555 1_555
O3 C7 1_555 1_555
O4 C7 1_555 1_555
O5 C9 1_555 1_555
O6 Ni1 1_555 1_555
H9 O6 1_555 1_555
H10 O6 1_555 1_555
O7 Ni1 1_555 1_555
H11 O7 1_555 1_555
H12 O7 1_555 1_555
N2C Ni1 1_555 1_555
Ni1_2 O2 1_555 1_555
Ni1B O3 1_555 1_555
Ni1C N2 1_555 1_555
O2_2 Ni1 1_555 1_555
O3B Ni1 1_555 1_555
C5 C6 1_555 1_555
C9 N1 1_555 1_555
C13 C14 1_555 1_555
C13 N2 1_555 1_555

#END
