
#######################################################################
#
#                 Cambridge Crystallographic Data Centre
#                                CCDC 
#
#######################################################################
#
# If this CIF has been generated from an entry in the Cambridge 
# Structural Database, then it will include bibliographic, chemical, 
# crystal, experimental, refinement or atomic coordinate data resulting 
# from the CCDC's data processing and validation procedures.
#
#######################################################################

data_QIQFUT
_symmetry_cell_setting           monoclinic
_symmetry_space_group_name_H-M   'P 21/n'
_symmetry_Int_Tables_number      14
_space_group_name_Hall           '-P 2yn'
loop_
_symmetry_equiv_pos_site_id
_symmetry_equiv_pos_as_xyz
1 x,y,z
2 1/2-x,1/2+y,1/2-z
3 -x,-y,-z
4 1/2+x,1/2-y,1/2+z
_cell_length_a                   11.4108(6)
_cell_length_b                   7.1795(4)
_cell_length_c                   16.9372(9)
_cell_angle_alpha                90
_cell_angle_beta                 95.7740(10)
_cell_angle_gamma                90
_cell_volume                     1380.52
loop_
_atom_site_label
_atom_site_type_symbol
_atom_site_fract_x
_atom_site_fract_y
_atom_site_fract_z
K1 K 0.63078(4) 0.34215(8) 0.16439(3)
K2 K 0.41486(4) -0.15869(5) 0.08872(3)
S1 S 0.36844(3) 0.36730(5) 0.04779(2)
O1 O -0.03680(11) 0.2982(2) -0.10471(7)
O2 O -0.17489(11) 0.1925(2) -0.03608(8)
O3 O -0.20614(11) 0.1063(2) 0.09568(8)
H1 H -0.191(3) 0.139(4) 0.0471(12)
O4 O -0.10690(13) 0.0685(3) 0.21101(8)
O5 O 0.28766(12) 0.2558(2) 0.28376(7)
H2 H 0.3474(18) 0.239(4) 0.3156(14)
O6 O 0.40340(11) 0.1135(2) 0.20402(8)
O7 O 0.41622(11) 0.47421(18) 0.11643(8)
O8 O 0.34166(12) 0.4809(2) -0.02206(8)
O9 O 0.43865(11) 0.20320(18) 0.03397(8)
O10 O 0.84463(15) 0.5745(3) 0.19595(11)
H3 H 0.871(3) 0.513(4) 0.2340(16)
H4 H 0.904(2) 0.610(5) 0.174(2)
O11 O 0.63800(17) -0.1472(3) 0.16637(12)
H5 H 0.670(3) -0.237(4) 0.185(2)
H6 H 0.684(3) -0.105(5) 0.1364(18)
C1 C 0.02142(13) 0.2350(2) 0.03132(9)
C2 C 0.00396(13) 0.1757(2) 0.10903(9)
C3 C 0.10096(14) 0.1725(2) 0.16637(9)
H7 H 0.0894 0.1364 0.2178
C4 C 0.21371(13) 0.2209(2) 0.15000(9)
C5 C 0.23002(13) 0.2838(2) 0.07363(9)
C6 C 0.13433(13) 0.2908(2) 0.01662(9)
H8 H 0.1458 0.3346 -0.0337
C7 C -0.06914(14) 0.2442(2) -0.04115(9)
C8 C -0.10917(14) 0.1118(3) 0.14150(10)
C9 C 0.31274(14) 0.1926(2) 0.21464(9)
K1_2 K -0.36922(4) 0.34215(8) 0.16439(3)
K1A K -0.13078(4) -0.15785(8) 0.33561(3)
K1A_2 K 0.86922(4) 0.84215(8) 0.33561(3)
K1B K 0.36922(4) 0.65785(8) -0.16439(3)
K2_2 K 0.41486(4) 0.84131(5) 0.08872(3)
K2A K 0.08514(4) 0.34131(5) 0.41128(3)
K2B K -0.41486(4) 0.15869(5) -0.08872(3)
K2B_2 K 0.58514(4) 0.15869(5) -0.08872(3)
O2B O 0.17489(11) -0.1925(2) 0.03608(8)
O3_2 O 0.79386(11) 0.1063(2) 0.09568(8)
O4A O 0.60690(13) 0.5685(3) 0.28899(8)
O5A O 0.21234(12) -0.2442(2) 0.21624(7)
O7_2 O 0.41622(11) -0.52579(18) 0.11643(8)
O8_2 O 0.34166(12) -0.5191(2) -0.02206(8)
O8B O 0.65834(12) 0.5191(2) 0.02206(8)
O9B O 0.56135(11) -0.20320(18) -0.03397(8)
O10A O 0.65537(15) 0.0745(3) 0.30405(11)
loop_
_geom_bond_atom_site_label_1
_geom_bond_atom_site_label_2
_geom_bond_site_symmetry_1
_geom_bond_site_symmetry_2
K1 O6 1_555 1_555
K2 O6 1_555 1_555
S1 O7 1_555 1_555
O1 C7 1_555 1_555
O2 C7 1_555 1_555
O3 H1 1_555 1_555
O4 C8 1_555 1_555
O5 H2 1_555 1_555
O6 C9 1_555 1_555
O7 K1 1_555 1_555
O8 S1 1_555 1_555
O9 K1 1_555 1_555
O10 K1 1_555 1_555
H3 O10 1_555 1_555
H4 O10 1_555 1_555
O11 K2 1_555 1_555
H5 O11 1_555 1_555
H6 O11 1_555 1_555
C1 C2 1_555 1_555
C2 C3 1_555 1_555
C3 H7 1_555 1_555
C4 C3 1_555 1_555
C5 S1 1_555 1_555
C6 C1 1_555 1_555
H8 C6 1_555 1_555
C7 C1 1_555 1_555
C8 O3 1_555 1_555
C9 O5 1_555 1_555
K1_2 O3 1_555 1_555
K1A O4 1_555 1_555
K1A_2 O10 1_555 1_555
K1B O8 1_555 1_555
K2_2 O7 1_555 1_555
K2A O5 1_555 1_555
K2B O2 1_555 1_555
K2B_2 O9 1_555 1_555
O2B K2 1_555 1_555
O3_2 K1 1_555 1_555
O4A K1 1_555 1_555
O5A K2 1_555 1_555
O7_2 K2 1_555 1_555
O8_2 K2 1_555 1_555
O8B K1 1_555 1_555
O9B K2 1_555 1_555
O10A K1 1_555 1_555
K2 O9 1_555 1_555
S1 O9 1_555 1_555
O8 K2_2 1_555 1_555
C2 C8 1_555 1_555
C4 C5 1_555 1_555
C4 C9 1_555 1_555
C5 C6 1_555 1_555
K2B_2 O8B 1_555 1_555
K2B_2 O9B 1_555 1_555

#END
