
#######################################################################
#
#                 Cambridge Crystallographic Data Centre
#                                CCDC 
#
#######################################################################
#
# If this CIF has been generated from an entry in the Cambridge 
# Structural Database, then it will include bibliographic, chemical, 
# crystal, experimental, refinement or atomic coordinate data resulting 
# from the CCDC's data processing and validation procedures.
#
#######################################################################

data_QIQGAY
_symmetry_cell_setting           triclinic
_symmetry_space_group_name_H-M   'P -1'
_symmetry_Int_Tables_number      2
_space_group_name_Hall           '-P 1'
loop_
_symmetry_equiv_pos_site_id
_symmetry_equiv_pos_as_xyz
1 x,y,z
2 -x,-y,-z
_cell_length_a                   9.4728(18)
_cell_length_b                   16.403(2)
_cell_length_c                   16.8309(15)
_cell_angle_alpha                68.256(9)
_cell_angle_beta                 85.159(12)
_cell_angle_gamma                79.524(17)
_cell_volume                     2388.24
loop_
_atom_site_label
_atom_site_type_symbol
_atom_site_fract_x
_atom_site_fract_y
_atom_site_fract_z
Ni1 Ni 0.0000 0.5000 0.5000
Ni2 Ni 1.0000 0.0000 0.5000
O1 O 0.1871(4) 0.4150(3) 0.4702(3)
O2 O 0.3296(5) 0.3630(3) 0.5827(3)
O3 O 0.8090(4) 0.1000(3) 0.4731(3)
O4 O 0.7271(4) 0.1142(3) 0.5961(3)
O5 O 0.4563(6) 0.4163(4) 0.1891(3)
O6 O 0.5829(5) 0.2886(3) 0.2020(3)
N1 N 0.1178(6) 0.6049(3) 0.4523(3)
H1 H 0.2098 0.5835 0.4410
N2 N -0.0655(5) 0.5475(3) 0.3750(3)
H2 H -0.1514 0.5823 0.3767
N3 N 1.0008(5) 0.0082(4) 0.3768(3)
H3 H 1.0777 -0.0311 0.3701
N4 N 1.1000(6) 0.1117(3) 0.4424(3)
H4 H 1.0259 0.1575 0.4354
C1 C 0.0510(7) 0.6666(4) 0.3729(4)
H7 H -0.0407 0.6980 0.3863
C2 C 0.1447(8) 0.7334(4) 0.3221(4)
H8 H 0.2382 0.7018 0.3135
H9 H 0.1583 0.7687 0.3553
C3 C 0.0848(9) 0.7971(5) 0.2337(5)
H10 H 0.0007 0.8372 0.2415
H11 H 0.1566 0.8325 0.2016
C4 C 0.0455(9) 0.7450(5) 0.1849(5)
H12 H 0.1328 0.7152 0.1665
H13 H -0.0053 0.7858 0.1340
C5 C -0.0483(8) 0.6755(4) 0.2360(4)
H14 H -0.0630 0.6410 0.2022
H15 H -0.1414 0.7053 0.2476
C6 C 0.0229(7) 0.6114(4) 0.3225(4)
H16 H 0.1147 0.5794 0.3101
C7 C -0.1053(7) 0.4821(4) 0.3364(5)
H17 H -0.1689 0.5184 0.2887
C8 C 0.0204(7) 0.4369(5) 0.2986(5)
H18 H 0.0721 0.4809 0.2590
H19 H -0.0138 0.4043 0.2692
H20 H 0.0830 0.3968 0.3435
C9 C -0.1926(7) 0.4190(4) 0.3995(4)
H21 H -0.2251 0.3839 0.3714
H22 H -0.2772 0.4535 0.4150
C10 C 0.1179(7) 0.6450(4) 0.5181(4)
H23 H 0.0194 0.6650 0.5318
H24 H 0.1655 0.6967 0.4944
C11 C 1.0233(7) 0.0942(4) 0.3192(4)
H25 H 0.9354 0.1352 0.3219
C12 C 1.0466(9) 0.1049(5) 0.2276(5)
H26 H 0.9596 0.0977 0.2062
H27 H 1.1223 0.0581 0.2233
C13 C 1.0878(10) 0.1964(5) 0.1702(5)
H28 H 1.1218 0.1939 0.1150
H29 H 1.0026 0.2414 0.1607
C14 C 1.1997(10) 0.2229(6) 0.2073(5)
H30 H 1.2052 0.2848 0.1740
H31 H 1.2913 0.1883 0.2004
C15 C 1.1799(9) 0.2120(5) 0.3079(5)
H32 H 1.2684 0.2173 0.3293
H33 H 1.1045 0.2577 0.3147
C16 C 1.1404(8) 0.1200(4) 0.3566(4)
H34 H 1.2272 0.0763 0.3590
C17 C 1.2041(8) 0.1288(5) 0.4982(5)
H35 H 1.2181 0.1910 0.4714
C18 C 1.3480(8) 0.0699(5) 0.4934(5)
H36 H 1.3778 0.0831 0.4346
H37 H 1.3369 0.0084 0.5190
H38 H 1.4191 0.0813 0.5236
C19 C 1.1490(8) 0.1143(5) 0.5868(5)
H39 H 1.0545 0.1500 0.5833
H40 H 1.2109 0.1371 0.6138
C20 C 0.8628(8) -0.0213(5) 0.3557(5)
H41 H 0.7777 0.0186 0.3627
H42 H 0.8683 -0.0175 0.2966
C31 C 0.7264(6) 0.1353(4) 0.5158(4)
C32 C 0.6156(6) 0.2118(4) 0.4693(4)
C33 C 0.5170(6) 0.2563(4) 0.5092(4)
H61 H 0.5196 0.2395 0.5683
C34 C 0.4120(6) 0.3266(4) 0.4635(4)
C35 C 0.2977(7) 0.3720(4) 0.5101(4)
C36 C 0.4114(6) 0.3528(4) 0.3751(4)
H62 H 0.3426 0.4000 0.3446
C37 C 0.5089(6) 0.3116(4) 0.3312(4)
C38 C 0.5165(7) 0.3469(5) 0.2344(4)
C39 C 0.6140(6) 0.2411(4) 0.3794(4)
H63 H 0.6836 0.2136 0.3510
C10A C -0.1179(7) 0.3550(4) 0.4819(4)
N1A N -0.1178(6) 0.3951(3) 0.5477(3)
H1A H -0.2098 0.4165 0.5590
C1A C -0.0510(7) 0.3334(4) 0.6271(4)
H7A H 0.0407 0.3020 0.6137
C2A C -0.1447(8) 0.2666(4) 0.6779(4)
H8A H -0.2382 0.2982 0.6865
H9A H -0.1583 0.2313 0.6447
C3A C -0.0848(9) 0.2029(5) 0.7663(5)
H10A H -0.0007 0.1628 0.7585
H11A H -0.1566 0.1675 0.7984
C4A C -0.0455(9) 0.2550(5) 0.8151(5)
H12A H -0.1328 0.2848 0.8335
H13A H 0.0053 0.2142 0.8660
C5A C 0.0483(8) 0.3245(4) 0.7640(4)
H14A H 0.0630 0.3590 0.7978
H15A H 0.1414 0.2947 0.7524
C6A C -0.0229(7) 0.3886(4) 0.6775(4)
N2A N 0.0655(5) 0.4525(3) 0.6250(3)
H2A H 0.1514 0.4177 0.6233
C7A C 0.1053(7) 0.5179(4) 0.6636(5)
H17A H 0.1689 0.4816 0.7113
C8A C -0.0204(7) 0.5631(5) 0.7014(5)
H18A H -0.0721 0.5191 0.7410
H19A H 0.0138 0.5957 0.7308
H20A H -0.0830 0.6032 0.6565
C9A C 0.1926(7) 0.5810(4) 0.6005(4)
H21A H 0.2251 0.6161 0.6286
H22A H 0.2772 0.5465 0.5850
H16A H -0.1147 0.4206 0.6899
H23A H -0.0194 0.3350 0.4682
H24A H -0.1655 0.3033 0.5056
C20A C 1.1372(8) 0.0213(5) 0.6443(5)
N3A N 0.9992(5) -0.0082(4) 0.6232(3)
H3A H 0.9223 0.0311 0.6299
C11A C 0.9767(7) -0.0942(4) 0.6808(4)
H25A H 1.0646 -0.1352 0.6781
C12A C 0.9534(9) -0.1049(5) 0.7724(5)
H26A H 1.0404 -0.0977 0.7938
H27A H 0.8777 -0.0581 0.7767
C13A C 0.9122(10) -0.1964(5) 0.8298(5)
H28A H 0.8782 -0.1939 0.8850
H29A H 0.9974 -0.2414 0.8393
C14A C 0.8003(10) -0.2229(6) 0.7927(5)
H30A H 0.7948 -0.2848 0.8260
H31A H 0.7087 -0.1883 0.7996
C15A C 0.8201(9) -0.2120(5) 0.6921(5)
H32A H 0.7316 -0.2173 0.6707
H33A H 0.8955 -0.2577 0.6853
C16A C 0.8596(8) -0.1200(4) 0.6434(4)
N4A N 0.9000(6) -0.1117(3) 0.5576(3)
H4A H 0.9741 -0.1575 0.5646
C17A C 0.7959(8) -0.1288(5) 0.5018(5)
H35A H 0.7819 -0.1910 0.5286
C18A C 0.6520(8) -0.0699(5) 0.5066(5)
H36A H 0.6222 -0.0831 0.5654
H37A H 0.6631 -0.0084 0.4810
H38A H 0.5809 -0.0813 0.4764
C19A C 0.8510(8) -0.1143(5) 0.4132(5)
H39A H 0.9455 -0.1500 0.4167
H40A H 0.7891 -0.1371 0.3862
H34A H 0.7728 -0.0763 0.6410
H41A H 1.2223 -0.0186 0.6373
H42A H 1.1317 0.0175 0.7034
O1A O -0.1871(4) 0.5850(3) 0.5298(3)
O2A O -0.3296(5) 0.6370(3) 0.4173(3)
O3A O -0.8090(4) 0.9000(3) 0.5269(3)
O4A O -0.7271(4) 0.8858(3) 0.4039(3)
O5A O -0.4563(6) 0.5837(4) 0.8109(3)
O6A O -0.5829(5) 0.7114(3) 0.7980(3)
C31A C -0.7264(6) 0.8647(4) 0.4842(4)
C32A C -0.6156(6) 0.7882(4) 0.5307(4)
C33A C -0.5170(6) 0.7437(4) 0.4908(4)
H61A H -0.5196 0.7605 0.4317
C34A C -0.4120(6) 0.6734(4) 0.5365(4)
C35A C -0.2977(7) 0.6280(4) 0.4899(4)
C36A C -0.4114(6) 0.6472(4) 0.6249(4)
H62A H -0.3426 0.6000 0.6554
C37A C -0.5089(6) 0.6884(4) 0.6688(4)
C38A C -0.5165(7) 0.6531(5) 0.7656(4)
C39A C -0.6140(6) 0.7589(4) 0.6206(4)
H63A H -0.6836 0.7864 0.6490
O3A_2 O 1.1910(4) -0.1000(3) 0.5269(3)
Ni2_2 Ni -1.0000 1.0000 0.5000
Ni3 Ni 0.5000 0.5000 0.0000
N5 N 0.6261(6) 0.5499(4) 0.0492(4)
H5 H 0.5935 0.5351 0.1043
N6 N 0.3708(6) 0.6194(4) -0.0284(3)
H6 H 0.3879 0.6482 -0.0851
C21 C 0.4231(8) 0.6701(5) 0.0122(4)
H43 H 0.3882 0.6501 0.0717
C22 C 0.3715(8) 0.7722(5) -0.0278(5)
H44 H 0.2674 0.7845 -0.0263
H45 H 0.4033 0.7942 -0.0872
C23 C 0.4286(9) 0.8187(5) 0.0191(5)
H46 H 0.4102 0.8822 -0.0133
H47 H 0.3778 0.8080 0.0735
C24 C 0.5844(9) 0.7906(5) 0.0348(5)
H48 H 0.6349 0.8204 -0.0177
H49 H 0.6079 0.8124 0.0775
C25 C 0.6380(8) 0.7015(5) 0.0612(5)
H50 H 0.6149 0.6743 0.1216
H51 H 0.7418 0.6944 0.0552
C26 C 0.5832(7) 0.6514(5) 0.0137(4)
H52 H 0.6189 0.6736 -0.0456
C27 C 0.7829(8) 0.5196(5) 0.0596(5)
H53 H 0.8143 0.5351 0.1048
H54 H 0.8318 0.5508 0.0070
C28 C 0.8268(8) 0.4172(5) 0.0818(5)
H55 H 0.9306 0.4026 0.0855
H56 H 0.7871 0.3867 0.1378
C29 C 0.2179(7) 0.6160(5) -0.0227(5)
H57 H 0.1689 0.6777 -0.0386
C30 C 0.1742(8) 0.5673(6) 0.0719(5)
H58 H 0.2051 0.5949 0.1073
H59 H 0.0717 0.5709 0.0767
H60 H 0.2187 0.5060 0.0903
C28A C 0.1732(8) 0.5828(5) -0.0818(5)
C27A C 0.2171(8) 0.4804(5) -0.0596(5)
N5A N 0.3739(6) 0.4501(4) -0.0492(4)
H5A H 0.4065 0.4649 -0.1043
C26A C 0.4168(7) 0.3486(5) -0.0137(4)
C21A C 0.5769(8) 0.3299(5) -0.0122(4)
N6A N 0.6292(6) 0.3806(4) 0.0284(3)
H6A H 0.6121 0.3518 0.0851
C29A C 0.7821(7) 0.3840(5) 0.0227(5)
H57A H 0.8311 0.3223 0.0386
C30A C 0.8258(8) 0.4327(6) -0.0719(5)
H58A H 0.7949 0.4051 -0.1073
H59A H 0.9283 0.4291 -0.0767
H60A H 0.7813 0.4940 -0.0903
H43A H 0.6118 0.3499 -0.0717
C22A C 0.6285(8) 0.2278(5) 0.0278(5)
H44A H 0.7326 0.2155 0.0263
H45A H 0.5967 0.2058 0.0872
C23A C 0.5714(9) 0.1813(5) -0.0191(5)
H46A H 0.5898 0.1178 0.0133
H47A H 0.6222 0.1920 -0.0735
C24A C 0.4156(9) 0.2094(5) -0.0348(5)
H48A H 0.3651 0.1796 0.0177
H49A H 0.3921 0.1876 -0.0775
C25A C 0.3620(8) 0.2985(5) -0.0612(5)
H50A H 0.3851 0.3257 -0.1216
H51A H 0.2582 0.3056 -0.0552
H52A H 0.3811 0.3264 0.0456
H53A H 0.1857 0.4649 -0.1048
H54A H 0.1682 0.4492 -0.0070
H55A H 0.0694 0.5974 -0.0855
H56A H 0.2129 0.6133 -0.1378
O7 O 0.3777(3) 0.9678(2) 0.1457(2)
O8 O 0.6015(5) 0.8445(3) 0.2524(3)
O9 O 0.5376(5) 1.0258(3) 0.2460(3)
O10 O 0.5594(6) 0.4367(4) 0.5928(4)
O11 O 0.4134(7) 0.5641(4) 0.2324(4)
O12 O 0.0086(7) 1.0651(4) 0.0435(4)
O13 O 0.1469(8) 1.0089(5) -0.0820(4)
O14 O -0.5000 1.0000 0.0000
loop_
_geom_bond_atom_site_label_1
_geom_bond_atom_site_label_2
_geom_bond_site_symmetry_1
_geom_bond_site_symmetry_2
Ni1 O1 1_555 1_555
Ni2 O3 1_555 1_555
Ni3 N5 1_555 1_555
O1 C35 1_555 1_555
O2 C35 1_555 1_555
O3 C31 1_555 1_555
O4 C31 1_555 1_555
O5 C38 1_555 1_555
O6 C38 1_555 1_555
N1 Ni1 1_555 1_555
H1 N1 1_555 1_555
N2 Ni1 1_555 1_555
H2 N2 1_555 1_555
N3 Ni2 1_555 1_555
H3 N3 1_555 1_555
N4 Ni2 1_555 1_555
H4 N4 1_555 1_555
N5 H5 1_555 1_555
N6 Ni3 1_555 1_555
H6 N6 1_555 1_555
C1 N1 1_555 1_555
H7 C1 1_555 1_555
C2 C1 1_555 1_555
H8 C2 1_555 1_555
H9 C2 1_555 1_555
C3 C2 1_555 1_555
H10 C3 1_555 1_555
H11 C3 1_555 1_555
C4 C3 1_555 1_555
H12 C4 1_555 1_555
H13 C4 1_555 1_555
C5 C4 1_555 1_555
H14 C5 1_555 1_555
H15 C5 1_555 1_555
C6 N2 1_555 1_555
H16 C6 1_555 1_555
C7 N2 1_555 1_555
H17 C7 1_555 1_555
C8 C7 1_555 1_555
H18 C8 1_555 1_555
H19 C8 1_555 1_555
H20 C8 1_555 1_555
C9 C7 1_555 1_555
H21 C9 1_555 1_555
H22 C9 1_555 1_555
C10 N1 1_555 1_555
H23 C10 1_555 1_555
H24 C10 1_555 1_555
C11 N3 1_555 1_555
H25 C11 1_555 1_555
C12 C11 1_555 1_555
H26 C12 1_555 1_555
H27 C12 1_555 1_555
C13 C12 1_555 1_555
H28 C13 1_555 1_555
H29 C13 1_555 1_555
C14 C13 1_555 1_555
H30 C14 1_555 1_555
H31 C14 1_555 1_555
C15 C14 1_555 1_555
H32 C15 1_555 1_555
H33 C15 1_555 1_555
C16 N4 1_555 1_555
H34 C16 1_555 1_555
C17 N4 1_555 1_555
H35 C17 1_555 1_555
C18 C17 1_555 1_555
H36 C18 1_555 1_555
H37 C18 1_555 1_555
H38 C18 1_555 1_555
C19 C17 1_555 1_555
H39 C19 1_555 1_555
H40 C19 1_555 1_555
C20 N3 1_555 1_555
H41 C20 1_555 1_555
H42 C20 1_555 1_555
C21 N6 1_555 1_555
H43 C21 1_555 1_555
C22 C21 1_555 1_555
H44 C22 1_555 1_555
H45 C22 1_555 1_555
C23 C22 1_555 1_555
H46 C23 1_555 1_555
H47 C23 1_555 1_555
C24 C23 1_555 1_555
H48 C24 1_555 1_555
H49 C24 1_555 1_555
C25 C24 1_555 1_555
H50 C25 1_555 1_555
H51 C25 1_555 1_555
C26 N5 1_555 1_555
H52 C26 1_555 1_555
C27 N5 1_555 1_555
H53 C27 1_555 1_555
H54 C27 1_555 1_555
C28 C27 1_555 1_555
H55 C28 1_555 1_555
H56 C28 1_555 1_555
C29 N6 1_555 1_555
H57 C29 1_555 1_555
C30 C29 1_555 1_555
H58 C30 1_555 1_555
H59 C30 1_555 1_555
H60 C30 1_555 1_555
C31 C32 1_555 1_555
C32 C33 1_555 1_555
C33 H61 1_555 1_555
C34 C33 1_555 1_555
C35 C34 1_555 1_555
C36 C34 1_555 1_555
H62 C36 1_555 1_555
C37 C36 1_555 1_555
C38 C37 1_555 1_555
C39 C32 1_555 1_555
H63 C39 1_555 1_555
C10A C9 1_555 1_555
N1A Ni1 1_555 1_555
H1A N1A 1_555 1_555
C1A N1A 1_555 1_555
H7A C1A 1_555 1_555
C2A C1A 1_555 1_555
H8A C2A 1_555 1_555
H9A C2A 1_555 1_555
C3A C2A 1_555 1_555
H10A C3A 1_555 1_555
H11A C3A 1_555 1_555
C4A C3A 1_555 1_555
H12A C4A 1_555 1_555
H13A C4A 1_555 1_555
C5A C4A 1_555 1_555
H14A C5A 1_555 1_555
H15A C5A 1_555 1_555
C6A C1A 1_555 1_555
N2A Ni1 1_555 1_555
H2A N2A 1_555 1_555
C7A N2A 1_555 1_555
H17A C7A 1_555 1_555
C8A C7A 1_555 1_555
H18A C8A 1_555 1_555
H19A C8A 1_555 1_555
H20A C8A 1_555 1_555
C9A C10 1_555 1_555
H21A C9A 1_555 1_555
H22A C9A 1_555 1_555
H16A C6A 1_555 1_555
H23A C10A 1_555 1_555
H24A C10A 1_555 1_555
C20A C19 1_555 1_555
N3A Ni2 1_555 1_555
H3A N3A 1_555 1_555
C11A N3A 1_555 1_555
H25A C11A 1_555 1_555
C12A C11A 1_555 1_555
H26A C12A 1_555 1_555
H27A C12A 1_555 1_555
C13A C12A 1_555 1_555
H28A C13A 1_555 1_555
H29A C13A 1_555 1_555
C14A C13A 1_555 1_555
H30A C14A 1_555 1_555
H31A C14A 1_555 1_555
C15A C14A 1_555 1_555
H32A C15A 1_555 1_555
H33A C15A 1_555 1_555
C16A C11A 1_555 1_555
N4A Ni2 1_555 1_555
H4A N4A 1_555 1_555
C17A N4A 1_555 1_555
H35A C17A 1_555 1_555
C18A C17A 1_555 1_555
H36A C18A 1_555 1_555
H37A C18A 1_555 1_555
H38A C18A 1_555 1_555
C19A C20 1_555 1_555
H39A C19A 1_555 1_555
H40A C19A 1_555 1_555
H34A C16A 1_555 1_555
H41A C20A 1_555 1_555
H42A C20A 1_555 1_555
C28A C29 1_555 1_555
C27A C28A 1_555 1_555
N5A Ni3 1_555 1_555
H5A N5A 1_555 1_555
C26A N5A 1_555 1_555
C21A C26A 1_555 1_555
N6A Ni3 1_555 1_555
H6A N6A 1_555 1_555
C29A C28 1_555 1_555
H57A C29A 1_555 1_555
C30A C29A 1_555 1_555
H58A C30A 1_555 1_555
H59A C30A 1_555 1_555
H60A C30A 1_555 1_555
H43A C21A 1_555 1_555
C22A C21A 1_555 1_555
H44A C22A 1_555 1_555
H45A C22A 1_555 1_555
C23A C22A 1_555 1_555
H46A C23A 1_555 1_555
H47A C23A 1_555 1_555
C24A C23A 1_555 1_555
H48A C24A 1_555 1_555
H49A C24A 1_555 1_555
C25A C26A 1_555 1_555
H50A C25A 1_555 1_555
H51A C25A 1_555 1_555
H52A C26A 1_555 1_555
H53A C27A 1_555 1_555
H54A C27A 1_555 1_555
H55A C28A 1_555 1_555
H56A C28A 1_555 1_555
O1A Ni1 1_555 1_555
O2A C35A 1_555 1_555
O3A C31A 1_555 1_555
O4A C31A 1_555 1_555
O5A C38A 1_555 1_555
O6A C38A 1_555 1_555
C31A C32A 1_555 1_555
C32A C33A 1_555 1_555
C33A H61A 1_555 1_555
C34A C33A 1_555 1_555
C35A O1A 1_555 1_555
C36A C34A 1_555 1_555
H62A C36A 1_555 1_555
C37A C36A 1_555 1_555
C38A C37A 1_555 1_555
C39A C32A 1_555 1_555
H63A C39A 1_555 1_555
O3A_2 Ni2 1_555 1_555
Ni2_2 O3A 1_555 1_555
C1 C6 1_555 1_555
C5 C6 1_555 1_555
C11 C16 1_555 1_555
C15 C16 1_555 1_555
C21 C26 1_555 1_555
C25 C26 1_555 1_555
C37 C39 1_555 1_555
C10A N1A 1_555 1_555
C5A C6A 1_555 1_555
C6A N2A 1_555 1_555
C7A C9A 1_555 1_555
C20A N3A 1_555 1_555
C15A C16A 1_555 1_555
C16A N4A 1_555 1_555
C17A C19A 1_555 1_555
C27A N5A 1_555 1_555
C21A N6A 1_555 1_555
N6A C29A 1_555 1_555
C24A C25A 1_555 1_555
C34A C35A 1_555 1_555
C37A C39A 1_555 1_555

#END
