
#######################################################################
#
#                 Cambridge Crystallographic Data Centre
#                                CCDC 
#
#######################################################################
#
# If this CIF has been generated from an entry in the Cambridge 
# Structural Database, then it will include bibliographic, chemical, 
# crystal, experimental, refinement or atomic coordinate data resulting 
# from the CCDC's data processing and validation procedures.
#
#######################################################################

data_QIQGIG
_symmetry_cell_setting           monoclinic
_symmetry_space_group_name_H-M   'P 21'
_symmetry_Int_Tables_number      4
_space_group_name_Hall           'P 2yb'
loop_
_symmetry_equiv_pos_site_id
_symmetry_equiv_pos_as_xyz
1 x,y,z
2 -x,1/2+y,-z
_cell_length_a                   11.442(3)
_cell_length_b                   13.754(2)
_cell_length_c                   9.9938(13)
_cell_angle_alpha                90
_cell_angle_beta                 115.748(19)
_cell_angle_gamma                90
_cell_volume                     1416.6
loop_
_atom_site_label
_atom_site_type_symbol
_atom_site_fract_x
_atom_site_fract_y
_atom_site_fract_z
Ni1 Ni 0.2498(2) 0.1334(3) 0.7493(3)
O1 O 0.4353(9) 0.1464(11) 0.9356(11)
O2 O 0.5848(8) 0.1663(11) 0.8506(11)
O3 O 1.0654(9) 0.1191(9) 1.5654(9)
O4 O 0.9182(9) 0.1034(14) 1.6504(11)
N1 N 0.3269(11) 0.1496(11) 0.6020(13)
H1 H 0.4136 0.1583 0.6575
N2 N 0.2649(11) -0.0145(11) 0.7245(14)
H2 H 0.1848 -0.0319 0.6548
N3 N 0.2299(12) 0.2836(11) 0.7866(15)
H3 H 0.3106 0.2988 0.8573
N4 N 0.1716(12) 0.1200(13) 0.9023(14)
H4 H 0.0852 0.1085 0.8494
N5 N 0.7818(12) 0.1477(13) 1.1325(14)
C1 C 0.3130(16) 0.0554(16) 0.5222(19)
H5 H 0.2222 0.0466 0.4508
C2 C 0.4005(16) 0.0505(15) 0.4390(17)
H6 H 0.3711 0.0976 0.3587
H7 H 0.4895 0.0658 0.5068
C3 C 0.393(2) -0.0509(17) 0.3775(19)
H8 H 0.4527 -0.0549 0.3327
H9 H 0.3061 -0.0604 0.2989
C4 C 0.4227(19) -0.1352(16) 0.489(2)
H10 H 0.4028 -0.1970 0.4372
H11 H 0.5138 -0.1348 0.5587
C5 C 0.3420(18) -0.1212(16) 0.5680(19)
H12 H 0.3634 -0.1721 0.6420
H13 H 0.2522 -0.1307 0.4973
C6 C 0.3512(16) -0.0250(11) 0.6448(18)
H14 H 0.4415 -0.0147 0.7168
C7 C 0.2921(15) -0.0831(14) 0.8420(18)
H15 H 0.2672 -0.1471 0.7950
C8 C 0.4321(13) -0.0914(13) 0.9560(14)
H16 H 0.4846 -0.1119 0.9079
H17 H 0.4386 -0.1383 1.0301
H18 H 0.4619 -0.0294 1.0022
C9 C 0.1986(14) -0.0605(14) 0.914(2)
H19 H 0.2028 -0.1139 0.9790
H20 H 0.1107 -0.0581 0.8354
C10 C 0.2262(15) 0.0365(12) 1.0046(17)
H21 H 0.1873 0.0335 1.0735
H22 H 0.3190 0.0450 1.0615
C11 C 0.1848(17) 0.2151(17) 0.9749(16)
H23 H 0.2768 0.2225 1.0434
C12 C 0.1095(17) 0.228(2) 1.066(2)
H24 H 0.1359 0.1771 1.1411
H25 H 0.0181 0.2181 1.0015
C13 C 0.126(2) 0.3268(19) 1.144(2)
H26 H 0.0765 0.3300 1.2012
H27 H 0.2168 0.3397 1.2085
C14 C 0.0752(17) 0.3964(19) 1.017(2)
H28 H 0.0721 0.4610 1.0539
H29 H -0.0127 0.3778 0.9493
C15 C 0.1616(19) 0.3992(16) 0.928(2)
H30 H 0.1280 0.4465 0.8477
H31 H 0.2509 0.4156 0.9931
C16 C 0.1522(14) 0.2955(14) 0.8656(17)
H32 H 0.0618 0.2858 0.7934
C17 C 0.2138(16) 0.3560(16) 0.6587(17)
H33 H 0.2391 0.4210 0.7022
C18 C 0.0687(15) 0.3592(17) 0.5477(19)
H34 H 0.0172 0.3700 0.6008
H35 H 0.0444 0.2986 0.4953
H36 H 0.0544 0.4111 0.4781
C19 C 0.2993(18) 0.3292(13) 0.5868(18)
H37 H 0.3879 0.3306 0.6635
H38 H 0.2919 0.3807 0.5172
C20 C 0.2821(15) 0.2348(14) 0.5050(14)
H39 H 0.1909 0.2264 0.4388
H40 H 0.3291 0.2381 0.4444
C21 C 0.5506(13) 0.1545(13) 0.9519(16)
C22 C 0.6528(11) 0.1424(15) 1.1169(15)
C23 C 0.8777(11) 0.1357(15) 1.2749(14)
H41 H 0.9643 0.1357 1.2919
C24 C 0.8453(11) 0.1234(13) 1.3964(13)
C25 C 0.7124(11) 0.1168(15) 1.3588(15)
H42 H 0.6872 0.1079 1.4349
C26 C 0.6211(12) 0.1224(14) 1.2212(13)
H43 H 0.5347 0.1119 1.2006
C27 C 0.9506(13) 0.1173(15) 1.5496(14)
O3_2 O 0.0654(9) 0.1191(9) 0.5654(9)
Ni1_2 Ni 1.2498(2) 0.1334(3) 1.7493(3)
O5 O 0.7108(9) 0.0390(10) 0.7137(12)
loop_
_geom_bond_atom_site_label_1
_geom_bond_atom_site_label_2
_geom_bond_site_symmetry_1
_geom_bond_site_symmetry_2
Ni1 O1 1_555 1_555
O1 C21 1_555 1_555
O2 C21 1_555 1_555
O3 C27 1_555 1_555
O4 C27 1_555 1_555
N1 Ni1 1_555 1_555
H1 N1 1_555 1_555
N2 Ni1 1_555 1_555
H2 N2 1_555 1_555
N3 Ni1 1_555 1_555
H3 N3 1_555 1_555
N4 Ni1 1_555 1_555
H4 N4 1_555 1_555
N5 C22 1_555 1_555
C1 N1 1_555 1_555
H5 C1 1_555 1_555
C2 C1 1_555 1_555
H6 C2 1_555 1_555
H7 C2 1_555 1_555
C3 C2 1_555 1_555
H8 C3 1_555 1_555
H9 C3 1_555 1_555
C4 C3 1_555 1_555
H10 C4 1_555 1_555
H11 C4 1_555 1_555
C5 C4 1_555 1_555
H12 C5 1_555 1_555
H13 C5 1_555 1_555
C6 N2 1_555 1_555
H14 C6 1_555 1_555
C7 N2 1_555 1_555
H15 C7 1_555 1_555
C8 C7 1_555 1_555
H16 C8 1_555 1_555
H17 C8 1_555 1_555
H18 C8 1_555 1_555
C9 C7 1_555 1_555
H19 C9 1_555 1_555
H20 C9 1_555 1_555
C10 N4 1_555 1_555
H21 C10 1_555 1_555
H22 C10 1_555 1_555
C11 N4 1_555 1_555
H23 C11 1_555 1_555
C12 C11 1_555 1_555
H24 C12 1_555 1_555
H25 C12 1_555 1_555
C13 C12 1_555 1_555
H26 C13 1_555 1_555
H27 C13 1_555 1_555
C14 C13 1_555 1_555
H28 C14 1_555 1_555
H29 C14 1_555 1_555
C15 C14 1_555 1_555
H30 C15 1_555 1_555
H31 C15 1_555 1_555
C16 N3 1_555 1_555
H32 C16 1_555 1_555
C17 N3 1_555 1_555
H33 C17 1_555 1_555
C18 C17 1_555 1_555
H34 C18 1_555 1_555
H35 C18 1_555 1_555
H36 C18 1_555 1_555
C19 C17 1_555 1_555
H37 C19 1_555 1_555
H38 C19 1_555 1_555
C20 N1 1_555 1_555
H39 C20 1_555 1_555
H40 C20 1_555 1_555
C21 C22 1_555 1_555
C22 C26 1_555 1_555
C23 N5 1_555 1_555
H41 C23 1_555 1_555
C24 C23 1_555 1_555
C25 C24 1_555 1_555
H42 C25 1_555 1_555
C26 C25 1_555 1_555
H43 C26 1_555 1_555
C27 C24 1_555 1_555
O3_2 Ni1 1_555 1_555
Ni1_2 O3 1_555 1_555
C1 C6 1_555 1_555
C5 C6 1_555 1_555
C9 C10 1_555 1_555
C11 C16 1_555 1_555
C15 C16 1_555 1_555
C19 C20 1_555 1_555

#END
