
#######################################################################
#
#                 Cambridge Crystallographic Data Centre
#                                CCDC 
#
#######################################################################
#
# If this CIF has been generated from an entry in the Cambridge 
# Structural Database, then it will include bibliographic, chemical, 
# crystal, experimental, refinement or atomic coordinate data resulting 
# from the CCDC's data processing and validation procedures.
#
#######################################################################

data_QIQHUT
_symmetry_cell_setting           monoclinic
_symmetry_space_group_name_H-M   'P 21/n'
_symmetry_Int_Tables_number      14
_space_group_name_Hall           '-P 2yn'
loop_
_symmetry_equiv_pos_site_id
_symmetry_equiv_pos_as_xyz
1 x,y,z
2 1/2+x,1/2-y,1/2+z
3 -x,-y,-z
4 1/2-x,1/2+y,1/2-z
_cell_length_a                   9.1068(4)
_cell_length_b                   13.5042(7)
_cell_length_c                   11.7830(5)
_cell_angle_alpha                90
_cell_angle_beta                 104.566(3)
_cell_angle_gamma                90
_cell_volume                     1402.5
loop_
_atom_site_label
_atom_site_type_symbol
_atom_site_fract_x
_atom_site_fract_y
_atom_site_fract_z
C1 C 0.2053(7) 0.7185(4) 0.9437(5)
C2 C 0.1488(8) 0.6500(5) 1.0073(6)
H1 H 0.046 0.6481 1.0049
C3 C 0.2484(9) 0.5844(5) 1.0746(6)
H2 H 0.2129 0.5366 1.118
C4 C 0.4010(8) 0.5885(5) 1.0786(6)
H3 H 0.4698 0.5444 1.124
C5 C 0.4466(8) 0.6596(5) 1.0134(6)
H4 H 0.5493 0.6638 1.016
C6 C -0.4619(9) 0.6584(5) 0.7310(6)
H5 H -0.5635 0.66 0.7324
C7 C -0.4167(8) 0.5900(5) 0.6605(6)
H6 H -0.4866 0.5465 0.615
C8 C -0.2668(9) 0.5868(5) 0.6581(6)
H7 H -0.2338 0.5412 0.6107
C9 C -0.1663(9) 0.6516(5) 0.7267(6)
H8 H -0.064 0.6506 0.7273
C10 C -0.2209(7) 0.7182(4) 0.7946(5)
N1 N 0.3512(6) 0.7244(4) 0.9454(4)
N2 N -0.3666(6) 0.7226(4) 0.7978(5)
S1 S 0.09401(19) 0.80826(13) 0.84803(16)
S2 S -0.10911(19) 0.80788(13) 0.88962(16)
Br1 Br 0.35417(9) 0.91544(6) 0.67311(6)
Br2 Br 0.64722(8) 0.89837(6) 1.07067(6)
Hg1 Hg 0.48524(3) 0.86579(2) 0.87257(2)
Hg1_2 Hg -0.51476(3) 0.86579(2) 0.87257(2)
N2_2 N 0.6334(6) 0.7226(4) 0.7978(5)
loop_
_geom_bond_atom_site_label_1
_geom_bond_atom_site_label_2
_geom_bond_site_symmetry_1
_geom_bond_site_symmetry_2
C1 C2 1_555 1_555
C2 H1 1_555 1_555
C3 C2 1_555 1_555
H2 C3 1_555 1_555
C4 C3 1_555 1_555
H3 C4 1_555 1_555
C5 C4 1_555 1_555
H4 C5 1_555 1_555
C6 H5 1_555 1_555
C7 C6 1_555 1_555
H6 C7 1_555 1_555
C8 C7 1_555 1_555
H7 C8 1_555 1_555
C9 C8 1_555 1_555
H8 C9 1_555 1_555
C10 C9 1_555 1_555
N1 C1 1_555 1_555
N2 C6 1_555 1_555
S1 C1 1_555 1_555
S2 C10 1_555 1_555
Br1 Hg1 1_555 1_555
Br2 Hg1 1_555 1_555
Hg1 N1 1_555 1_555
Hg1_2 N2 1_555 1_555
N2_2 Hg1 1_555 1_555
C5 N1 1_555 1_555
C10 N2 1_555 1_555
S1 S2 1_555 1_555

#END
