
#######################################################################
#
#                 Cambridge Crystallographic Data Centre
#                                CCDC 
#
#######################################################################
#
# If this CIF has been generated from an entry in the Cambridge 
# Structural Database, then it will include bibliographic, chemical, 
# crystal, experimental, refinement or atomic coordinate data resulting 
# from the CCDC's data processing and validation procedures.
#
#######################################################################

data_QIQROZ
_symmetry_cell_setting           monoclinic
_symmetry_space_group_name_H-M   'P 21'
_symmetry_Int_Tables_number      4
_space_group_name_Hall           'P 2yb'
loop_
_symmetry_equiv_pos_site_id
_symmetry_equiv_pos_as_xyz
1 x,y,z
2 -x,1/2+y,-z
_cell_length_a                   9.5651(10)
_cell_length_b                   16.6002(17)
_cell_length_c                   11.3351(12)
_cell_angle_alpha                90
_cell_angle_beta                 108.4000(10)
_cell_angle_gamma                90
_cell_volume                     1707.8
loop_
_atom_site_label
_atom_site_type_symbol
_atom_site_fract_x
_atom_site_fract_y
_atom_site_fract_z
Co1 Co 0.01810(3) 0.328109(18) 0.79725(3)
S1 S -0.34898(6) 0.27600(4) 0.62842(6)
S2 S 0.33351(8) 0.44265(4) 0.95149(7)
O1 O -0.3633(2) 0.26891(14) 0.75032(17)
O2 O -0.3717(2) 0.20276(11) 0.55481(19)
O3 O 0.4012(3) 0.39259(14) 0.8804(3)
O4 O 0.3908(3) 0.43447(15) 1.0844(2)
N1 N -0.7201(3) 0.53168(16) 0.3213(2)
H1 H -0.7655 0.5232 0.2438
H2 H -0.7222 0.5787 0.3526
N2 N -0.1874(2) 0.31375(12) 0.65031(17)
N3 N -0.2088(2) 0.33196(16) 0.43413(17)
N4 N 0.0003(2) 0.37123(13) 0.6067(2)
N5 N 0.4380(3) 0.77936(17) 0.8266(3)
H3 H 0.4712 0.8148 0.8840
H4 H 0.4197 0.7926 0.7499
N6 N 0.1607(3) 0.42229(14) 0.8976(2)
N7 N -0.0730(3) 0.41999(15) 0.8912(2)
N8 N 0.0863(3) 0.51141(16) 1.0354(2)
N9 N 0.0387(2) 0.25827(13) 0.96072(18)
N10 N 0.1199(2) 0.22952(13) 1.73162(18)
C1 C -0.6441(3) 0.46992(16) 0.3953(2)
C2 C -0.6392(3) 0.39357(17) 0.3467(2)
H5 H -0.6929 0.3830 0.2643
C3 C -0.5560(3) 0.33346(18) 0.4191(2)
H6 H -0.5531 0.2828 0.3849
C4 C -0.4763(2) 0.34768(14) 0.5429(2)
C5 C -0.4900(3) 0.42198(16) 0.5951(2)
H7 H -0.4425 0.4310 0.6793
C6 C -0.5736(3) 0.48209(15) 0.5226(2)
H8 H -0.5834 0.5313 0.5585
C7 C -0.1369(2) 0.33897(15) 0.5563(2)
C8 C -0.1338(3) 0.3593(2) 0.3601(3)
H9 H -0.1802 0.3577 0.2747
C9 C 0.0068(3) 0.3895(2) 0.4025(3)
H10 H 0.0560 0.4063 0.3480
C10 C 0.0713(3) 0.39377(18) 0.5288(3)
H11 H 0.1673 0.4129 0.5607
C11 C 0.4141(3) 0.70175(17) 0.8575(3)
C12 C 0.3585(3) 0.64490(18) 0.7638(3)
H12 H 0.3391 0.6598 0.6811
C13 C 0.3317(3) 0.56678(17) 0.7922(3)
H13 H 0.2945 0.5295 0.7288
C14 C 0.3603(3) 0.54357(16) 0.9159(2)
C15 C 0.4154(3) 0.59968(17) 1.0103(3)
H14 H 0.4341 0.5847 1.0929
C16 C 0.4425(3) 0.67825(16) 0.9807(3)
H15 H 0.4800 0.7155 1.0441
C17 C 0.0589(3) 0.45487(16) 0.9458(2)
C18 C -0.0318(4) 0.5326(2) 1.0673(3)
H16 H -0.0188 0.5720 1.1282
C19 C -0.1710(4) 0.5009(2) 1.0175(3)
H17 H -0.2499 0.5183 1.0423
C20 C -0.1868(4) 0.4416(2) 0.9286(3)
H18 H -0.2776 0.4165 0.8945
C21 C -0.0733(3) 0.23898(19) 1.0030(3)
H19 H -0.1686 0.2523 0.9546
C22 C -0.0543(3) 0.2011(2) 1.1125(3)
H20 H -0.1361 0.1902 1.1376
C23 C 0.1737(3) 0.23681(17) 1.0324(2)
H21 H 0.2533 0.2490 1.0051
C24 C 0.2007(3) 0.19756(19) 1.1445(3)
H22 H 0.2966 0.1840 1.1911
C25 C 0.0832(3) 0.17816(18) 1.1879(3)
C26 C 0.0996(4) 0.1347(3) 1.3087(3)
H23 H 0.0737 0.1723 1.3639
H24 H 0.0270 0.0918 1.2911
C27 C 0.2431(4) 0.09912(19) 1.3774(3)
H25 H 0.3172 0.1413 1.3982
H26 H 0.2706 0.0605 1.3244
C28 C 0.2413(3) 0.05640(17) 1.4983(2)
H27 H 0.1705 0.0126 1.4774
H28 H 0.3377 0.0334 1.5393
C29 C 0.2018(3) 0.11307(15) 1.5860(2)
C30 C 0.0668(3) 0.11078(15) 1.6070(3)
H29 H 0.0002 0.0698 1.5722
C31 C 0.0312(3) 0.16860(15) 1.6787(3)
H30 H -0.0601 0.1652 1.6912
C32 C 0.2974(3) 0.17425(17) 1.6460(3)
H31 H 0.3914 0.1769 1.6387
C33 C 0.2542(3) 0.23073(17) 1.7157(2)
H32 H 0.3198 0.2715 1.7535
Co1_2 Co 0.01810(3) 0.328109(18) 1.79725(3)
N10_2 N 0.1199(2) 0.22952(13) 0.73162(18)
loop_
_geom_bond_atom_site_label_1
_geom_bond_atom_site_label_2
_geom_bond_site_symmetry_1
_geom_bond_site_symmetry_2
Co1 N2 1_555 1_555
S1 O1 1_555 1_555
S2 O3 1_555 1_555
O2 S1 1_555 1_555
O4 S2 1_555 1_555
N1 H1 1_555 1_555
H2 N1 1_555 1_555
N2 S1 1_555 1_555
N3 C7 1_555 1_555
N4 Co1 1_555 1_555
N5 H3 1_555 1_555
H4 N5 1_555 1_555
N6 Co1 1_555 1_555
N7 Co1 1_555 1_555
N8 C17 1_555 1_555
N9 Co1 1_555 1_555
N10 C31 1_555 1_555
C1 N1 1_555 1_555
C2 C1 1_555 1_555
H5 C2 1_555 1_555
C3 C2 1_555 1_555
H6 C3 1_555 1_555
C4 S1 1_555 1_555
C5 C4 1_555 1_555
H7 C5 1_555 1_555
C6 C1 1_555 1_555
H8 C6 1_555 1_555
C7 N2 1_555 1_555
C8 N3 1_555 1_555
H9 C8 1_555 1_555
C9 C8 1_555 1_555
H10 C9 1_555 1_555
C10 N4 1_555 1_555
H11 C10 1_555 1_555
C11 N5 1_555 1_555
C12 C11 1_555 1_555
H12 C12 1_555 1_555
C13 C12 1_555 1_555
H13 C13 1_555 1_555
C14 S2 1_555 1_555
C15 C14 1_555 1_555
H14 C15 1_555 1_555
C16 C11 1_555 1_555
H15 C16 1_555 1_555
C17 N6 1_555 1_555
C18 N8 1_555 1_555
H16 C18 1_555 1_555
C19 C18 1_555 1_555
H17 C19 1_555 1_555
C20 N7 1_555 1_555
H18 C20 1_555 1_555
C21 N9 1_555 1_555
H19 C21 1_555 1_555
C22 C21 1_555 1_555
H20 C22 1_555 1_555
C23 N9 1_555 1_555
H21 C23 1_555 1_555
C24 C23 1_555 1_555
H22 C24 1_555 1_555
C25 C22 1_555 1_555
C26 C25 1_555 1_555
H23 C26 1_555 1_555
H24 C26 1_555 1_555
C27 C26 1_555 1_555
H25 C27 1_555 1_555
H26 C27 1_555 1_555
C28 C27 1_555 1_555
H27 C28 1_555 1_555
H28 C28 1_555 1_555
C29 C28 1_555 1_555
C30 C29 1_555 1_555
H29 C30 1_555 1_555
C31 C30 1_555 1_555
H30 C31 1_555 1_555
C32 C29 1_555 1_555
H31 C32 1_555 1_555
C33 N10 1_555 1_555
H32 C33 1_555 1_555
Co1_2 N10 1_555 1_555
N10_2 Co1 1_555 1_555
S2 N6 1_555 1_555
N4 C7 1_555 1_555
N7 C17 1_555 1_555
C3 C4 1_555 1_555
C5 C6 1_555 1_555
C9 C10 1_555 1_555
C13 C14 1_555 1_555
C15 C16 1_555 1_555
C19 C20 1_555 1_555
C24 C25 1_555 1_555
C32 C33 1_555 1_555

#END
