
#######################################################################
#
#                 Cambridge Crystallographic Data Centre
#                                CCDC 
#
#######################################################################
#
# If this CIF has been generated from an entry in the Cambridge 
# Structural Database, then it will include bibliographic, chemical, 
# crystal, experimental, refinement or atomic coordinate data resulting 
# from the CCDC's data processing and validation procedures.
#
#######################################################################

data_QIQREN
_symmetry_cell_setting           monoclinic
_symmetry_space_group_name_H-M   'P 21/c'
_symmetry_Int_Tables_number      14
_space_group_name_Hall           '-P 2ybc'
loop_
_symmetry_equiv_pos_site_id
_symmetry_equiv_pos_as_xyz
1 x,y,z
2 x,1/2-y,1/2+z
3 -x,-y,-z
4 -x,1/2+y,1/2-z
_cell_length_a                   8.4156(1)
_cell_length_b                   14.9765(1)
_cell_length_c                   13.4185(2)
_cell_angle_alpha                90
_cell_angle_beta                 98.3130(10)
_cell_angle_gamma                90
_cell_volume                     1673.45
loop_
_atom_site_label
_atom_site_type_symbol
_atom_site_fract_x
_atom_site_fract_y
_atom_site_fract_z
Sn1 Sn 0.61710(2) 0.206846(14) 0.988512(16)
Sn2 Sn -0.33871(2) 0.509990(15) 0.585300(16)
O1 O 0.4575(3) 0.3594(2) 0.9011(2)
O2 O 0.4054(3) 0.21533(17) 0.87604(18)
O3 O -0.0893(4) 0.21403(18) 0.6041(2)
O4 O -0.2004(3) 0.38079(17) 0.60041(19)
O5 O 0.5452(3) 0.07821(15) 0.98561(18)
C1 C 0.3705(4) 0.2991(2) 0.8600(3)
C2 C 0.2189(4) 0.3201(2) 0.7912(2)
C3 C 0.1368(4) 0.2541(2) 0.7313(3)
H1 H 0.1762 0.1960 0.7343
C4 C -0.0027(4) 0.2741(2) 0.6674(3)
C5 C -0.0663(4) 0.3613(2) 0.6634(2)
C6 C 0.0172(4) 0.4259(3) 0.7242(3)
H2 H -0.0223 0.4839 0.7228
C7 C 0.1596(4) 0.4055(3) 0.7875(3)
H3 H 0.2141 0.4499 0.8272
C8 C -0.0171(9) 0.1316(4) 0.5874(6)
H4 H -0.0891 0.0969 0.5407
H5 H 0.0807 0.1419 0.5603
H6 H 0.0062 0.0999 0.6500
C9 C 0.5299(5) 0.2660(3) 1.1116(3)
H7 H 0.5541 0.2283 1.1697
H8 H 0.4157 0.2736 1.0962
H9 H 0.5800 0.3231 1.1254
C10 C 0.7806(5) 0.2244(4) 0.8857(3)
H10 H 0.7710 0.1755 0.8389
H11 H 0.8879 0.2263 0.9214
H12 H 0.7575 0.2794 0.8497
C11 C -0.4034(6) 0.5047(3) 0.7319(3)
H13 H -0.4616 0.5578 0.7441
H14 H -0.4697 0.4533 0.7375
H15 H -0.3081 0.5006 0.7806
C12 C -0.1647(5) 0.5845(3) 0.5238(4)
H16 H -0.1827 0.5791 0.4517
H17 H -0.1723 0.6461 0.5422
H18 H -0.0597 0.5623 0.5493
O4A O 0.7996(3) 0.11921(17) 1.10041(19)
O5A O -0.4548(3) 0.42179(15) 0.48561(18)
O5C O -0.5452(3) 0.57821(15) 0.51439(18)
Sn1A Sn -0.38290(2) 0.293154(14) 0.488512(16)
Sn2A Sn 0.66129(2) -0.009990(15) 1.085300(16)
Sn2C Sn 0.33871(2) 0.009990(15) 0.914700(16)
O6 O 1.3354(14) -0.0016(7) 1.5072(8)
loop_
_geom_bond_atom_site_label_1
_geom_bond_atom_site_label_2
_geom_bond_site_symmetry_1
_geom_bond_site_symmetry_2
Sn1 O2 1_555 1_555
Sn2 O4 1_555 1_555
O1 C1 1_555 1_555
O2 C1 1_555 1_555
O3 C4 1_555 1_555
O4 C5 1_555 1_555
O5 Sn1 1_555 1_555
C1 C2 1_555 1_555
C2 C3 1_555 1_555
C3 H1 1_555 1_555
C4 C3 1_555 1_555
C5 C4 1_555 1_555
C6 C5 1_555 1_555
H2 C6 1_555 1_555
C7 C2 1_555 1_555
H3 C7 1_555 1_555
C8 O3 1_555 1_555
H4 C8 1_555 1_555
H5 C8 1_555 1_555
H6 C8 1_555 1_555
C9 Sn1 1_555 1_555
H7 C9 1_555 1_555
H8 C9 1_555 1_555
H9 C9 1_555 1_555
C10 Sn1 1_555 1_555
H10 C10 1_555 1_555
H11 C10 1_555 1_555
H12 C10 1_555 1_555
C11 Sn2 1_555 1_555
H13 C11 1_555 1_555
H14 C11 1_555 1_555
H15 C11 1_555 1_555
C12 Sn2 1_555 1_555
H16 C12 1_555 1_555
H17 C12 1_555 1_555
H18 C12 1_555 1_555
O4A Sn1 1_555 1_555
O5A Sn2 1_555 1_555
O5C Sn2 1_555 1_555
Sn1A O4 1_555 1_555
Sn2A O5 1_555 1_555
Sn2C O5 1_555 1_555
C6 C7 1_555 1_555
O4A Sn2A 1_555 1_555
O5A Sn1A 1_555 1_555

#END
