
#######################################################################
#
#                 Cambridge Crystallographic Data Centre
#                                CCDC 
#
#######################################################################
#
# If this CIF has been generated from an entry in the Cambridge 
# Structural Database, then it will include bibliographic, chemical, 
# crystal, experimental, refinement or atomic coordinate data resulting 
# from the CCDC's data processing and validation procedures.
#
#######################################################################

data_QIQSEQ
_symmetry_cell_setting           monoclinic
_symmetry_space_group_name_H-M   'P 21/n'
_symmetry_Int_Tables_number      14
_space_group_name_Hall           '-P 2yn'
loop_
_symmetry_equiv_pos_site_id
_symmetry_equiv_pos_as_xyz
1 x,y,z
2 1/2-x,1/2+y,1/2-z
3 -x,-y,-z
4 1/2+x,1/2-y,1/2+z
_cell_length_a                   17.779(3)
_cell_length_b                   7.3406(14)
_cell_length_c                   18.944(4)
_cell_angle_alpha                90
_cell_angle_beta                 102.942(2)
_cell_angle_gamma                90
_cell_volume                     2409.55
loop_
_atom_site_label
_atom_site_type_symbol
_atom_site_fract_x
_atom_site_fract_y
_atom_site_fract_z
C1 C 0.16126(18) 0.6976(5) 0.26063(18)
H1 H 0.1209 0.6833 0.2187
C2 C 0.2280(2) 0.7857(6) 0.25466(19)
H2 H 0.2347 0.8265 0.2089
C3 C 0.2849(2) 0.8137(5) 0.31622(19)
H3 H 0.3313 0.8736 0.3129
C4 C 0.27476(16) 0.7550(4) 0.38297(16)
C5 C 0.20737(16) 0.6597(4) 0.38309(16)
H4 H 0.2005 0.6118 0.4278
C6 C 0.33366(17) 0.7906(4) 0.45015(16)
C7 C 0.31546(17) 0.8769(4) 0.51069(17)
C8 C 0.23458(18) 0.9378(5) 0.51220(19)
H5 H 0.2046 0.8329 0.5223
H6 H 0.2099 0.9901 0.4651
H7 H 0.2369 1.0298 0.5501
C9 C 0.37515(18) 0.9106(5) 0.57054(17)
H8 H 0.3636 0.9689 0.6116
C10 C 0.45045(17) 0.8624(4) 0.57237(16)
H9 H 0.4899 0.8878 0.6140
C11 C 0.46819(17) 0.7764(4) 0.51290(16)
C12 C 0.41013(16) 0.7427(4) 0.45214(16)
H10 H 0.4225 0.6860 0.4111
C13 C 0.54849(17) 0.7289(4) 0.51408(16)
C14 C 0.64252(16) 0.6395(4) 0.47064(16)
C15 C 0.68035(17) 0.5769(4) 0.41447(16)
C16 C 0.76060(17) 0.5720(4) 0.42672(17)
H11 H 0.7914 0.6053 0.4726
C17 C 0.79496(18) 0.5185(4) 0.37161(18)
H12 H 0.8497 0.5136 0.3808
C18 C 0.75261(18) 0.4716(4) 0.30340(17)
C19 C 0.79327(18) 0.4310(5) 0.24346(18)
H13 H 0.7984 0.5435 0.2171
H14 H 0.7632 0.3420 0.2101
H15 H 0.8446 0.3811 0.2642
C20 C 0.67094(17) 0.4712(4) 0.29199(16)
C21 C 0.63684(17) 0.5235(4) 0.34775(16)
H16 H 0.5822 0.5227 0.3400
C22 C 0.61998(17) 0.4131(4) 0.22197(16)
C23 C 0.6204(2) 0.4928(5) 0.15529(18)
H17 H 0.6543 0.5912 0.1525
C24 C 0.57161(19) 0.4284(5) 0.09361(18)
H18 H 0.5717 0.4811 0.0478
C25 C 0.52253(18) 0.2863(5) 0.09907(17)
H19 H 0.4895 0.2408 0.0562
C26 C 0.56744(16) 0.2750(4) 0.22232(16)
H20 H 0.5649 0.2228 0.2676
Cl1 Cl 0.43174(5) -0.15244(14) 0.06523(5)
Cl2 Cl 0.49046(5) -0.14652(13) 0.27360(4)
N1 N 0.15169(13) 0.6314(4) 0.32396(14)
N2 N 0.60893(14) 0.7419(4) 0.56605(13)
N3 N 0.67166(14) 0.6846(4) 0.53745(14)
N4 N 0.51988(13) 0.2103(4) 0.16266(13)
O1 O 0.56427(11) 0.6635(3) 0.45198(10)
Zn1 Zn 0.44697(2) -0.00636(5) 0.169115(19)
N1A N 0.34831(13) 0.1314(4) 0.17604(14)
Zn1A Zn 0.05303(2) 0.49364(5) 0.330885(19)
loop_
_geom_bond_atom_site_label_1
_geom_bond_atom_site_label_2
_geom_bond_site_symmetry_1
_geom_bond_site_symmetry_2
C1 H1 1_555 1_555
C2 C1 1_555 1_555
H2 C2 1_555 1_555
C3 C2 1_555 1_555
H3 C3 1_555 1_555
C4 C3 1_555 1_555
C5 C4 1_555 1_555
H4 C5 1_555 1_555
C6 C4 1_555 1_555
C7 C6 1_555 1_555
C8 C7 1_555 1_555
H5 C8 1_555 1_555
H6 C8 1_555 1_555
H7 C8 1_555 1_555
C9 C7 1_555 1_555
H8 C9 1_555 1_555
C10 C9 1_555 1_555
H9 C10 1_555 1_555
C11 C10 1_555 1_555
C12 C6 1_555 1_555
H10 C12 1_555 1_555
C13 C11 1_555 1_555
C14 C15 1_555 1_555
C15 C16 1_555 1_555
C16 H11 1_555 1_555
C17 C16 1_555 1_555
H12 C17 1_555 1_555
C18 C17 1_555 1_555
C19 C18 1_555 1_555
H13 C19 1_555 1_555
H14 C19 1_555 1_555
H15 C19 1_555 1_555
C20 C18 1_555 1_555
C21 C15 1_555 1_555
H16 C21 1_555 1_555
C22 C20 1_555 1_555
C23 C22 1_555 1_555
H17 C23 1_555 1_555
C24 C23 1_555 1_555
H18 C24 1_555 1_555
C25 C24 1_555 1_555
H19 C25 1_555 1_555
C26 C22 1_555 1_555
H20 C26 1_555 1_555
Cl1 Zn1 1_555 1_555
Cl2 Zn1 1_555 1_555
N1 C1 1_555 1_555
N2 C13 1_555 1_555
N3 C14 1_555 1_555
N4 C25 1_555 1_555
O1 C13 1_555 1_555
Zn1 N4 1_555 1_555
N1A Zn1 1_555 1_555
Zn1A N1 1_555 1_555
C5 N1 1_555 1_555
C11 C12 1_555 1_555
C14 O1 1_555 1_555
C20 C21 1_555 1_555
C26 N4 1_555 1_555
N2 N3 1_555 1_555

#END
