
#######################################################################
#
#                 Cambridge Crystallographic Data Centre
#                                CCDC 
#
#######################################################################
#
# If this CIF has been generated from an entry in the Cambridge 
# Structural Database, then it will include bibliographic, chemical, 
# crystal, experimental, refinement or atomic coordinate data resulting 
# from the CCDC's data processing and validation procedures.
#
#######################################################################

data_QIQTOB
_symmetry_cell_setting           triclinic
_symmetry_space_group_name_H-M   'P -1'
_symmetry_Int_Tables_number      2
_space_group_name_Hall           '-P 1'
loop_
_symmetry_equiv_pos_site_id
_symmetry_equiv_pos_as_xyz
1 x,y,z
2 -x,-y,-z
_cell_length_a                   7.3341(4)
_cell_length_b                   10.9138(6)
_cell_length_c                   11.2530(9)
_cell_angle_alpha                90.484(5)
_cell_angle_beta                 104.231(6)
_cell_angle_gamma                105.006(5)
_cell_volume                     840.804
loop_
_atom_site_label
_atom_site_type_symbol
_atom_site_fract_x
_atom_site_fract_y
_atom_site_fract_z
Co1 Co 0.62041(14) 0.42525(9) 1.09796(9)
Co2 Co 1.10047(13) 0.42237(9) 1.10022(9)
O1 O 0.3912(7) 0.3834(5) 0.9338(5)
O2 O 0.1002(8) 0.2900(5) 0.9651(5)
O3 O 0.0032(9) -0.2628(6) 0.8068(6)
O4 O -0.2425(12) -0.1713(8) 0.7797(9)
O5 O 0.1334(8) -0.4500(5) 0.2472(5)
O6 O -0.1774(9) -0.5016(7) 0.2598(6)
O7 O 0.8190(7) 0.4239(4) 1.0019(5)
H1 H 0.8330 0.4315 0.9293
O8 O 0.4020(8) 0.4161(6) 1.1938(5)
H2 H 0.3516 0.3383 1.2024
H3 H 0.3435 0.4588 1.1421
O9 O 0.6010(10) 0.2298(6) 1.1274(7)
H4 H 0.7238 0.2396 1.1479
H5 H 0.5484 0.2092 1.1834
C1 C 0.2367(11) 0.2895(6) 0.9191(7)
C2 C 0.2214(12) 0.1780(7) 0.8371(8)
C3 C 0.3519(14) 0.1759(9) 0.7694(10)
H6 H 0.4594 0.2456 0.7765
C4 C 0.3268(15) 0.0720(9) 0.6908(10)
H7 H 0.4163 0.0744 0.6443
C5 C 0.1764(14) -0.0334(8) 0.6790(9)
C6 C 0.0652(16) -0.0416(9) 0.7633(10)
C7 C 0.0776(15) 0.0661(9) 0.8343(10)
H8 H -0.0120 0.0633 0.8808
C8 C -0.0672(15) -0.1671(10) 0.7863(10)
C9 C 0.1436(16) -0.1411(9) 0.5858(10)
C10 C 0.292(2) -0.1676(13) 0.5464(13)
H9 H 0.4204 -0.1215 0.5805
C11 C 0.2448(18) -0.2700(13) 0.4492(12)
H10 H 0.3436 -0.2699 0.4211
C12 C 0.0539(14) -0.3350(9) 0.4007(10)
C13 C -0.0773(17) -0.3237(12) 0.4562(12)
H11 H -0.1993 -0.3827 0.4373
C14 C -0.0348(19) -0.2240(12) 0.5434(12)
H12 H -0.1355 -0.2129 0.5752
C15 C 0.0043(13) -0.4351(9) 0.2943(9)
Co1_2 Co -0.37959(14) -0.57475(9) 0.09796(9)
Co1A Co 0.37959(14) 0.57475(9) 0.90204(9)
Co2_2 Co 0.10047(13) -0.57763(9) 0.10022(9)
Co2_3 Co 0.10047(13) 0.42237(9) 1.10022(9)
Co2A Co -0.10047(13) -0.42237(9) 0.89978(9)
Co2A_2 Co 0.89953(13) 0.57763(9) 0.89978(9)
O1A O 0.6088(7) 0.6166(5) 1.0662(5)
O2_2 O 1.1002(8) 0.2900(5) 0.9651(5)
O3A O 0.9968(9) 0.2628(6) 1.1932(6)
O5_2 O 1.1334(8) 0.5500(5) 1.2472(5)
O6_2 O 0.8226(9) 0.4984(7) 1.2598(6)
O7A O 1.1810(7) 0.5761(4) 0.9981(5)
O8_2 O 1.4020(8) 0.4161(6) 1.1938(5)
O10 O 0.456(3) 0.528(2) 0.4064(19)
H13 H 0.3320 0.5544 0.3741
H14 H 0.5376 0.5049 0.3473
O11 O 0.744(8) 0.686(3) 0.645(2)
H15 H 0.8423 0.6755 0.7066
H16 H 0.6763 0.6194 0.6288
loop_
_geom_bond_atom_site_label_1
_geom_bond_atom_site_label_2
_geom_bond_site_symmetry_1
_geom_bond_site_symmetry_2
Co1 O1 1_555 1_555
Co2 O7 1_555 1_555
O1 C1 1_555 1_555
O2 C1 1_555 1_555
O3 C8 1_555 1_555
O4 C8 1_555 1_555
O5 C15 1_555 1_555
O6 C15 1_555 1_555
O7 Co1 1_555 1_555
H1 O7 1_555 1_555
O8 Co1 1_555 1_555
H2 O8 1_555 1_555
H3 O8 1_555 1_555
O9 Co1 1_555 1_555
H4 O9 1_555 1_555
H5 O9 1_555 1_555
C1 C2 1_555 1_555
C2 C3 1_555 1_555
C3 H6 1_555 1_555
C4 C3 1_555 1_555
H7 C4 1_555 1_555
C5 C4 1_555 1_555
C6 C5 1_555 1_555
C7 C2 1_555 1_555
H8 C7 1_555 1_555
C8 C6 1_555 1_555
C9 C5 1_555 1_555
C10 C9 1_555 1_555
H9 C10 1_555 1_555
C11 C10 1_555 1_555
H10 C11 1_555 1_555
C12 C11 1_555 1_555
C13 C12 1_555 1_555
H11 C13 1_555 1_555
C14 C9 1_555 1_555
H12 C14 1_555 1_555
C15 C12 1_555 1_555
O10 H13 1_555 1_555
H14 O10 1_555 1_555
O11 H15 1_555 1_555
H16 O11 1_555 1_555
Co1_2 O6 1_555 1_555
Co1A O1 1_555 1_555
Co2_2 O5 1_555 1_555
Co2_3 O2 1_555 1_555
Co2A O3 1_555 1_555
Co2A_2 O7 1_555 1_555
O1A Co1 1_555 1_555
O2_2 Co2 1_555 1_555
O3A Co2 1_555 1_555
O5_2 Co2 1_555 1_555
O6_2 Co1 1_555 1_555
O7A Co2 1_555 1_555
O8_2 Co2 1_555 1_555
O8 Co2_3 1_555 1_555
C6 C7 1_555 1_555
C13 C14 1_555 1_555
Co1A O1A 1_555 1_555
Co2A_2 O7A 1_555 1_555

#END
