
#######################################################################
#
#                 Cambridge Crystallographic Data Centre
#                                CCDC 
#
#######################################################################
#
# If this CIF has been generated from an entry in the Cambridge 
# Structural Database, then it will include bibliographic, chemical, 
# crystal, experimental, refinement or atomic coordinate data resulting 
# from the CCDC's data processing and validation procedures.
#
#######################################################################

data_QIQTUH
_symmetry_cell_setting           triclinic
_symmetry_space_group_name_H-M   'P -1'
_symmetry_Int_Tables_number      2
_space_group_name_Hall           '-P 1'
loop_
_symmetry_equiv_pos_site_id
_symmetry_equiv_pos_as_xyz
1 x,y,z
2 -x,-y,-z
_cell_length_a                   9.8127(5)
_cell_length_b                   13.7846(12)
_cell_length_c                   16.4007(13)
_cell_angle_alpha                73.692(7)
_cell_angle_beta                 80.411(6)
_cell_angle_gamma                77.779(6)
_cell_volume                     2067.3
loop_
_atom_site_label
_atom_site_type_symbol
_atom_site_fract_x
_atom_site_fract_y
_atom_site_fract_z
Mn1 Mn 0.25256(5) 0.51490(4) 0.47759(3)
O1 O 0.4265(2) 0.40849(18) 0.43374(15)
O2 O 0.6089(2) 0.39619(18) 0.50324(15)
O3 O 0.8364(3) 0.3796(2) 0.08769(18)
H1 H 0.8261 0.4183 0.0402
O4 O 0.6430(3) 0.4834(2) 0.12122(17)
O5 O 0.8244(3) -0.0597(3) 0.77909(19)
H2 H 0.8143 -0.0905 0.8297
O6 O 0.6001(3) 0.0085(3) 0.8057(2)
O7 O 0.1123(2) 0.43503(17) 0.44746(15)
O8 O -0.0790(2) 0.36529(18) 0.49908(15)
O9 O 0.3013(3) -0.0233(2) 0.73500(18)
H3 H 0.2960 -0.0449 0.7872
O10 O 0.1193(3) 0.0926(3) 0.76628(19)
O11 O 0.3651(3) 0.4164(2) 0.04160(18)
H4 H 0.3561 0.4547 -0.0062
O12 O 0.1432(3) 0.4924(2) 0.06465(17)
N1 N 0.2614(3) 0.6082(2) 0.33656(18)
N2 N 0.2800(4) 0.8898(3) -0.0962(2)
N3 N 0.2443(3) 0.4230(2) 0.61832(18)
N4 N 0.2093(4) 0.1498(3) 1.0540(2)
C1 C 0.5537(3) 0.3829(2) 0.4442(2)
C2 C 0.6474(3) 0.3317(3) 0.3798(2)
C3 C 0.7296(3) 0.2336(3) 0.4034(2)
C4 C 0.8134(3) 0.1946(3) 0.3385(2)
H5 H 0.8678 0.1296 0.3529
C5 C 0.8187(4) 0.2489(3) 0.2538(2)
H6 H 0.8770 0.2211 0.2122
C6 C 0.7365(3) 0.3453(3) 0.2313(2)
C7 C 0.6506(3) 0.3850(3) 0.2948(2)
H7 H 0.5939 0.4491 0.2797
C8 C 0.7373(4) 0.4064(3) 0.1413(3)
C9 C 0.7262(3) 0.1709(3) 0.4931(2)
C10 C 0.8487(3) 0.1152(3) 0.5275(2)
H8 H 0.9347 0.1170 0.4938
C11 C 0.8431(4) 0.0572(3) 0.6119(2)
H9 H 0.9254 0.0199 0.6339
C12 C 0.7160(4) 0.0544(3) 0.6637(2)
C13 C 0.5949(4) 0.1087(3) 0.6293(2)
H10 H 0.5092 0.1073 0.6634
C14 C 0.5984(4) 0.1647(3) 0.5460(2)
H11 H 0.5149 0.1992 0.5239
C15 C 0.7049(5) -0.0019(3) 0.7573(3)
C16 C 0.0512(3) 0.3599(3) 0.4825(2)
C17 C 0.1381(3) 0.2546(3) 0.5062(2)
C18 C 0.2245(3) 0.2081(3) 0.4453(2)
C19 C 0.3024(3) 0.1105(3) 0.4741(2)
H12 H 0.3581 0.0777 0.4346
C20 C 0.2985(4) 0.0613(3) 0.5603(2)
H13 H 0.3529 -0.0032 0.5780
C21 C 0.2146(4) 0.1071(3) 0.6200(2)
C22 C 0.1347(3) 0.2036(3) 0.5924(2)
H14 H 0.0776 0.2348 0.6325
C23 C 0.2051(4) 0.0591(3) 0.7146(3)
C24 C 0.2315(3) 0.2596(3) 0.3524(2)
C25 C 0.1104(3) 0.3129(3) 0.3148(2)
H15 H 0.0235 0.3125 0.3476
C26 C 0.1177(4) 0.3659(3) 0.2300(2)
H16 H 0.0359 0.4016 0.2066
C27 C 0.2447(3) 0.3668(3) 0.1792(2)
C28 C 0.3654(4) 0.3109(3) 0.2154(2)
H17 H 0.4514 0.3086 0.1815
C29 C 0.3596(3) 0.2589(3) 0.3004(2)
H18 H 0.4417 0.2229 0.3235
C30 C 0.2508(4) 0.4288(3) 0.0901(2)
C31 C 0.3055(4) 0.5638(3) 0.2720(2)
H19 H 0.3330 0.4928 0.2850
C32 C 0.3124(4) 0.6168(3) 0.1876(2)
H20 H 0.3493 0.5827 0.1452
C33 C 0.2640(3) 0.7218(3) 0.1659(2)
C34 C 0.2139(4) 0.7683(3) 0.2323(2)
H21 H 0.1780 0.8382 0.2208
C35 C 0.2177(4) 0.7100(3) 0.3154(2)
H22 H 0.1884 0.7430 0.3591
C36 C 0.2677(4) 0.7811(3) 0.0754(2)
C37 C 0.3893(4) 0.7712(4) 0.0196(3)
H23 H 0.4696 0.7265 0.0385
C38 C 0.3903(5) 0.8281(4) -0.0640(3)
H24 H 0.4741 0.8226 -0.0999
C39 C 0.1625(5) 0.9000(4) -0.0436(3)
H25 H 0.0834 0.9434 -0.0655
C40 C 0.1520(4) 0.8486(3) 0.0433(3)
H26 H 0.0689 0.8597 0.0787
C41 C 0.1245(4) 0.4263(3) 0.6708(2)
H27 H 0.0436 0.4665 0.6487
C42 C 0.1145(4) 0.3737(3) 0.7552(2)
H28 H 0.0287 0.3797 0.7890
C43 C 0.2321(3) 0.3115(3) 0.7904(2)
C44 C 0.3574(4) 0.3084(3) 0.7356(2)
H29 H 0.4398 0.2685 0.7558
C45 C 0.3585(4) 0.3643(3) 0.6520(2)
H30 H 0.4433 0.3613 0.6168
C46 C 0.2265(4) 0.2545(3) 0.8813(2)
C47 C 0.1402(4) 0.2967(3) 0.9430(3)
H31 H 0.0855 0.3614 0.9273
C48 C 0.1353(5) 0.2428(4) 1.0276(3)
H32 H 0.0775 0.2730 1.0680
C49 C 0.2937(5) 0.1100(4) 0.9944(3)
H33 H 0.3487 0.0457 1.0121
C50 C 0.3043(4) 0.1578(3) 0.9088(3)
H34 H 0.3629 0.1257 0.8698
Mn1A Mn -0.25256(5) 0.48510(4) 0.52241(3)
Mn1A_2 Mn 0.74744(5) 0.48510(4) 0.52241(3)
O2A O 0.3911(2) 0.60381(18) 0.49676(15)
O8A O 0.0790(2) 0.63471(18) 0.50092(15)
loop_
_geom_bond_atom_site_label_1
_geom_bond_atom_site_label_2
_geom_bond_site_symmetry_1
_geom_bond_site_symmetry_2
Mn1 O1 1_555 1_555
O1 C1 1_555 1_555
O2 C1 1_555 1_555
O3 H1 1_555 1_555
O4 C8 1_555 1_555
O5 H2 1_555 1_555
O6 C15 1_555 1_555
O7 Mn1 1_555 1_555
O8 C16 1_555 1_555
O9 H3 1_555 1_555
O10 C23 1_555 1_555
O11 H4 1_555 1_555
O12 C30 1_555 1_555
N1 Mn1 1_555 1_555
N2 C38 1_555 1_555
N3 Mn1 1_555 1_555
N4 C48 1_555 1_555
C1 C2 1_555 1_555
C2 C3 1_555 1_555
C3 C4 1_555 1_555
C4 H5 1_555 1_555
C5 C4 1_555 1_555
H6 C5 1_555 1_555
C6 C5 1_555 1_555
C7 C2 1_555 1_555
H7 C7 1_555 1_555
C8 O3 1_555 1_555
C9 C3 1_555 1_555
C10 C9 1_555 1_555
H8 C10 1_555 1_555
C11 C10 1_555 1_555
H9 C11 1_555 1_555
C12 C11 1_555 1_555
C13 C12 1_555 1_555
H10 C13 1_555 1_555
C14 C9 1_555 1_555
H11 C14 1_555 1_555
C15 O5 1_555 1_555
C16 O7 1_555 1_555
C17 C16 1_555 1_555
C18 C17 1_555 1_555
C19 C18 1_555 1_555
H12 C19 1_555 1_555
C20 C19 1_555 1_555
H13 C20 1_555 1_555
C21 C20 1_555 1_555
C22 C17 1_555 1_555
H14 C22 1_555 1_555
C23 O9 1_555 1_555
C24 C18 1_555 1_555
C25 C24 1_555 1_555
H15 C25 1_555 1_555
C26 C25 1_555 1_555
H16 C26 1_555 1_555
C27 C26 1_555 1_555
C28 C27 1_555 1_555
H17 C28 1_555 1_555
C29 C24 1_555 1_555
H18 C29 1_555 1_555
C30 O11 1_555 1_555
C31 N1 1_555 1_555
H19 C31 1_555 1_555
C32 C31 1_555 1_555
H20 C32 1_555 1_555
C33 C32 1_555 1_555
C34 C33 1_555 1_555
H21 C34 1_555 1_555
C35 N1 1_555 1_555
H22 C35 1_555 1_555
C36 C33 1_555 1_555
C37 C36 1_555 1_555
H23 C37 1_555 1_555
C38 C37 1_555 1_555
H24 C38 1_555 1_555
C39 N2 1_555 1_555
H25 C39 1_555 1_555
C40 C36 1_555 1_555
H26 C40 1_555 1_555
C41 N3 1_555 1_555
H27 C41 1_555 1_555
C42 C41 1_555 1_555
H28 C42 1_555 1_555
C43 C42 1_555 1_555
C44 C43 1_555 1_555
H29 C44 1_555 1_555
C45 N3 1_555 1_555
H30 C45 1_555 1_555
C46 C43 1_555 1_555
C47 C46 1_555 1_555
H31 C47 1_555 1_555
C48 C47 1_555 1_555
H32 C48 1_555 1_555
C49 N4 1_555 1_555
H33 C49 1_555 1_555
C50 C46 1_555 1_555
H34 C50 1_555 1_555
Mn1A O8 1_555 1_555
Mn1A_2 O2 1_555 1_555
O2A Mn1 1_555 1_555
O8A Mn1 1_555 1_555
C6 C7 1_555 1_555
C6 C8 1_555 1_555
C12 C15 1_555 1_555
C13 C14 1_555 1_555
C21 C22 1_555 1_555
C21 C23 1_555 1_555
C27 C30 1_555 1_555
C28 C29 1_555 1_555
C34 C35 1_555 1_555
C39 C40 1_555 1_555
C44 C45 1_555 1_555
C49 C50 1_555 1_555

#END
