
#######################################################################
#
#                 Cambridge Crystallographic Data Centre
#                                CCDC 
#
#######################################################################
#
# If this CIF has been generated from an entry in the Cambridge 
# Structural Database, then it will include bibliographic, chemical, 
# crystal, experimental, refinement or atomic coordinate data resulting 
# from the CCDC's data processing and validation procedures.
#
#######################################################################

data_QIQVET
_symmetry_cell_setting           monoclinic
_symmetry_space_group_name_H-M   'P 21/n'
_symmetry_Int_Tables_number      14
_space_group_name_Hall           '-P 2yn'
loop_
_symmetry_equiv_pos_site_id
_symmetry_equiv_pos_as_xyz
1 x,y,z
2 1/2-x,1/2+y,1/2-z
3 -x,-y,-z
4 1/2+x,1/2-y,1/2+z
_cell_length_a                   10.3202(5)
_cell_length_b                   13.9105(7)
_cell_length_c                   16.3411(7)
_cell_angle_alpha                90
_cell_angle_beta                 95.892(4)
_cell_angle_gamma                90
_cell_volume                     2333.52
loop_
_atom_site_label
_atom_site_type_symbol
_atom_site_fract_x
_atom_site_fract_y
_atom_site_fract_z
Cd1 Cd 0.46039(3) 0.94451(2) 0.598970(16)
O1 O 0.2596(3) 0.9079(2) 0.5507(2)
O2 O 0.3224(3) 0.7612(3) 0.5182(2)
O3 O -0.3521(3) 0.7728(2) 0.53093(16)
O4 O -0.4401(3) 0.9105(2) 0.48349(16)
O5 O -0.7558(3) 0.7268(3) 0.24681(19)
O6 O -0.6465(3) 0.7028(3) 0.13803(17)
H1 H -0.7181 0.7118 0.1125
O7 O 0.4863(3) 0.7941(2) 0.66921(17)
H2 H 0.5637 0.7798 0.6857
H3 H 0.4582 0.7534 0.6348
N1 N 0.3912(3) 0.9977(2) 0.72349(19)
N2 N 0.6409(3) 1.0027(3) 0.68020(19)
C1 C 0.2397(4) 0.8256(3) 0.5179(2)
C2 C 0.1058(4) 0.8095(3) 0.4747(2)
C3 C 0.0776(4) 0.7331(3) 0.4214(3)
H4 H 0.1424 0.6889 0.4128
C4 C -0.0458(4) 0.7221(3) 0.3807(2)
H5 H -0.0624 0.6713 0.3441
C5 C -0.1462(4) 0.7862(3) 0.3939(2)
C6 C -0.1159(4) 0.8633(3) 0.4471(2)
H6 H -0.1800 0.9080 0.4560
C7 C 0.0062(4) 0.8738(3) 0.4863(2)
H7 H 0.0235 0.9255 0.5218
C8 C -0.2793(4) 0.7710(3) 0.3504(2)
C9 C -0.2895(4) 0.7391(3) 0.2687(2)
H8 H -0.2142 0.7288 0.2431
C10 C -0.4091(4) 0.7226(3) 0.2259(2)
H9 H -0.4136 0.7020 0.1716
C11 C -0.5230(4) 0.7363(3) 0.2624(2)
C12 C -0.5138(4) 0.7724(3) 0.3430(2)
H10 H -0.5896 0.7843 0.3675
C13 C -0.3943(4) 0.7906(3) 0.3871(2)
C14 C -0.3937(3) 0.8259(3) 0.4735(2)
C15 C -0.6528(4) 0.7212(3) 0.2166(2)
C16 C 0.2702(4) 0.9985(3) 0.7429(3)
H11 H 0.2034 0.9824 0.7027
C17 C 0.2383(5) 1.0225(4) 0.8216(3)
H12 H 0.1520 1.0218 0.8333
C18 C 0.3346(6) 1.0468(4) 0.8801(3)
H13 H 0.3145 1.0637 0.9324
C19 C 0.4650(5) 1.0467(3) 0.8625(3)
C20 C 0.4890(4) 1.0211(3) 0.7820(2)
C21 C 0.5732(7) 1.0699(4) 0.9208(3)
H14 H 0.5582 1.0864 0.9741
C22 C 0.6967(6) 1.0685(4) 0.9004(3)
H15 H 0.7652 1.0828 0.9401
C23 C 0.7231(5) 1.0453(3) 0.8189(3)
C24 C 0.6210(4) 1.0220(3) 0.7594(2)
C25 C 0.8485(5) 1.0505(4) 0.7925(4)
H16 H 0.9194 1.0652 0.8303
C26 C 0.8674(5) 1.0345(4) 0.7130(3)
H17 H 0.9499 1.0400 0.6954
C27 C 0.7599(4) 1.0093(4) 0.6577(3)
H18 H 0.7728 0.9968 0.6033
Cd1_2 Cd -0.53961(3) 0.94451(2) 0.598970(16)
Cd1B Cd -0.46039(3) 1.05549(2) 0.401030(16)
O4_2 O 0.5599(3) 0.9105(2) 0.48349(16)
O4B O 0.4401(3) 1.0895(2) 0.51651(16)
O8 O 0.5522(7) 0.4112(4) 0.4723(4)
H19 H 0.6080 0.3908 0.5103
H20 H 0.5075 0.4111 0.5136
loop_
_geom_bond_atom_site_label_1
_geom_bond_atom_site_label_2
_geom_bond_site_symmetry_1
_geom_bond_site_symmetry_2
Cd1 O1 1_555 1_555
O1 C1 1_555 1_555
O2 C1 1_555 1_555
O3 C14 1_555 1_555
O4 C14 1_555 1_555
O5 C15 1_555 1_555
O6 H1 1_555 1_555
O7 Cd1 1_555 1_555
H2 O7 1_555 1_555
H3 O7 1_555 1_555
N1 Cd1 1_555 1_555
N2 Cd1 1_555 1_555
C1 C2 1_555 1_555
C2 C3 1_555 1_555
C3 H4 1_555 1_555
C4 C3 1_555 1_555
H5 C4 1_555 1_555
C5 C4 1_555 1_555
C6 C5 1_555 1_555
H6 C6 1_555 1_555
C7 C2 1_555 1_555
H7 C7 1_555 1_555
C8 C5 1_555 1_555
C9 C8 1_555 1_555
H8 C9 1_555 1_555
C10 C9 1_555 1_555
H9 C10 1_555 1_555
C11 C10 1_555 1_555
C12 C11 1_555 1_555
H10 C12 1_555 1_555
C13 C8 1_555 1_555
C14 C13 1_555 1_555
C15 O6 1_555 1_555
C16 N1 1_555 1_555
H11 C16 1_555 1_555
C17 C16 1_555 1_555
H12 C17 1_555 1_555
C18 C17 1_555 1_555
H13 C18 1_555 1_555
C19 C18 1_555 1_555
C20 N1 1_555 1_555
C21 C19 1_555 1_555
H14 C21 1_555 1_555
C22 C21 1_555 1_555
H15 C22 1_555 1_555
C23 C22 1_555 1_555
C24 N2 1_555 1_555
C25 C23 1_555 1_555
H16 C25 1_555 1_555
C26 C25 1_555 1_555
H17 C26 1_555 1_555
C27 N2 1_555 1_555
H18 C27 1_555 1_555
O8 H19 1_555 1_555
H20 O8 1_555 1_555
Cd1_2 O4 1_555 1_555
Cd1B O4 1_555 1_555
O4_2 Cd1 1_555 1_555
O4B Cd1 1_555 1_555
C6 C7 1_555 1_555
C11 C15 1_555 1_555
C12 C13 1_555 1_555
C19 C20 1_555 1_555
C20 C24 1_555 1_555
C23 C24 1_555 1_555
C26 C27 1_555 1_555

#END
