
#######################################################################
#
#                 Cambridge Crystallographic Data Centre
#                                CCDC 
#
#######################################################################
#
# If this CIF has been generated from an entry in the Cambridge 
# Structural Database, then it will include bibliographic, chemical, 
# crystal, experimental, refinement or atomic coordinate data resulting 
# from the CCDC's data processing and validation procedures.
#
#######################################################################

data_QIQVAP
_symmetry_cell_setting           monoclinic
_symmetry_space_group_name_H-M   'P 21/c'
_symmetry_Int_Tables_number      14
_space_group_name_Hall           '-P 2ybc'
loop_
_symmetry_equiv_pos_site_id
_symmetry_equiv_pos_as_xyz
1 x,y,z
2 -x,1/2+y,1/2-z
3 -x,-y,-z
4 x,1/2-y,1/2+z
_cell_length_a                   8.5092(2)
_cell_length_b                   40.4753(13)
_cell_length_c                   15.5716(4)
_cell_angle_alpha                90
_cell_angle_beta                 118.257(2)
_cell_angle_gamma                90
_cell_volume                     4723.95
loop_
_atom_site_label
_atom_site_type_symbol
_atom_site_fract_x
_atom_site_fract_y
_atom_site_fract_z
Cd1 Cd 1.19517(4) 0.310769(8) 0.94438(2)
Cd2 Cd 0.78844(4) 0.305232(9) 0.99903(2)
Cd3 Cd -0.60822(4) 0.482414(9) 0.36261(3)
O1 O 0.9320(4) 0.34339(8) 0.9458(2)
O2 O 1.0327(4) 0.35221(9) 0.8418(2)
O3 O 0.4773(4) 0.46825(9) 0.6258(3)
O4 O 0.2966(5) 0.48242(11) 0.4724(3)
O5 O -0.4224(4) 0.43624(11) 0.4492(3)
O6 O -0.3433(4) 0.46462(10) 0.3567(3)
O7 O 1.3648(4) 0.32891(8) 1.0990(2)
O8 O 1.4361(4) 0.27905(9) 1.0723(2)
O9 O 1.9899(4) 0.22886(8) 1.4723(2)
O10 O 2.0382(4) 0.23205(9) 1.3454(2)
O11 O 2.4068(4) 0.31632(8) 1.8914(2)
O12 O 2.5970(4) 0.29889(9) 1.8430(2)
O13 O 0.6787(4) 0.25474(9) 1.0280(3)
H1 H 0.6001 0.2588 1.0447
H2 H 0.7613 0.2589 1.0136
N1 N 0.7564(5) 0.34917(10) 1.0914(3)
N2 N 1.0219(5) 0.30291(10) 1.1586(3)
N3 N -0.8651(5) 0.51142(11) 0.2544(3)
N4 N -0.7730(5) 0.44987(10) 0.2241(3)
C1 C 0.9123(6) 0.35486(11) 0.8668(3)
C2 C 0.7434(5) 0.37247(11) 0.7991(3)
C3 C 0.6215(6) 0.38086(12) 0.8306(3)
H3 H 0.6484 0.3769 0.8949
C4 C 0.4607(6) 0.39505(13) 0.7675(3)
H4 H 0.3799 0.4004 0.7898
C5 C 0.4170(5) 0.40153(11) 0.6716(3)
C6 C 0.5415(6) 0.39437(12) 0.6407(3)
H5 H 0.5176 0.3995 0.5775
C7 C 0.7011(6) 0.37953(12) 0.7039(3)
H6 H 0.7819 0.3742 0.6817
C8 C 0.2345(5) 0.41414(12) 0.6042(3)
C9 C 0.0926(6) 0.39627(12) 0.6011(4)
H7 H 0.1158 0.3773 0.6390
C10 C -0.0821(6) 0.40592(12) 0.5433(4)
H8 H -0.1745 0.3938 0.5439
C11 C -0.1201(6) 0.43346(12) 0.4845(3)
C12 C 0.0186(6) 0.45069(12) 0.4842(3)
H9 H -0.0062 0.4686 0.4422
C13 C 0.1960(5) 0.44202(11) 0.5453(3)
C14 C 0.3347(6) 0.46540(13) 0.5465(4)
C15 C -0.3092(6) 0.44515(14) 0.4254(4)
C16 C 1.4617(5) 0.30352(12) 1.1274(3)
C17 C 1.6135(5) 0.30262(12) 1.2299(3)
C18 C 1.6448(5) 0.32960(12) 1.2910(3)
H10 H 1.5740 0.3484 1.2678
C19 C 1.7798(6) 0.32869(12) 1.3855(3)
H11 H 1.7995 0.3470 1.4254
C20 C 1.8882(5) 0.30080(12) 1.4231(3)
C21 C 1.8608(5) 0.27401(12) 1.3614(3)
C22 C 1.7225(5) 0.27535(12) 1.2646(3)
H12 H 1.7044 0.2575 1.2234
C23 C 1.9684(5) 0.24289(12) 1.3951(3)
C24 C 2.0310(6) 0.30139(11) 1.5257(3)
C25 C 2.2082(6) 0.29408(13) 1.5526(3)
H13 H 2.2389 0.2876 1.5052
C26 C 2.3387(6) 0.29628(13) 1.6484(3)
H14 H 2.4564 0.2916 1.6644
C27 C 2.2981(5) 0.30525(11) 1.7211(3)
C28 C 2.1227(5) 0.31246(11) 1.6956(3)
H15 H 2.0926 0.3186 1.7435
C29 C 1.9915(6) 0.31065(11) 1.5991(3)
H16 H 1.8743 0.3158 1.5832
C30 C 2.4417(6) 0.30699(11) 1.8255(3)
C31 C 0.6259(7) 0.37142(14) 1.0610(4)
H17 H 0.5257 0.3682 1.0009
C32 C 0.6324(8) 0.39944(16) 1.1153(5)
H18 H 0.5387 0.4145 1.0913
C33 C 0.7775(9) 0.40429(16) 1.2034(5)
H19 H 0.7846 0.4230 1.2397
C34 C 0.9161(7) 0.38119(15) 1.2396(4)
C35 C 0.9001(6) 0.35371(14) 1.1807(3)
C36 C 1.0687(8) 0.38373(17) 1.3342(4)
H20 H 1.0804 0.4020 1.3732
C37 C 1.1930(8) 0.36055(17) 1.3669(4)
H21 H 1.2907 0.3630 1.4284
C38 C 1.1825(7) 0.33189(15) 1.3113(4)
C39 C 1.0371(6) 0.32902(13) 1.2162(3)
C40 C 1.3103(7) 0.30657(16) 1.3432(4)
H22 H 1.4090 0.3079 1.4048
C41 C 1.2919(7) 0.28037(15) 1.2857(4)
H23 H 1.3747 0.2632 1.3074
C42 C 1.1456(6) 0.27970(14) 1.1930(4)
H24 H 1.1342 0.2619 1.1528
C43 C -0.9038(7) 0.54190(15) 0.2683(4)
H25 H -0.8290 0.5525 0.3265
C44 C -1.0522(7) 0.55873(16) 0.1989(5)
H26 H -1.0759 0.5802 0.2107
C45 C -1.1614(7) 0.54351(17) 0.1145(5)
H27 H -1.2624 0.5544 0.0683
C46 C -1.1243(6) 0.51144(15) 0.0955(4)
C47 C -0.9711(6) 0.49608(13) 0.1692(4)
C48 C -1.2294(7) 0.49372(18) 0.0073(4)
H28 H -1.3322 0.5036 -0.0409
C49 C -1.1855(8) 0.46353(17) -0.0085(5)
H29 H -1.2583 0.4528 -0.0668
C50 C -1.0270(7) 0.44742(15) 0.0634(4)
C51 C -0.9227(6) 0.46332(13) 0.1523(4)
C52 C -0.9720(8) 0.41635(17) 0.0522(5)
H30 H -1.0394 0.4046 -0.0051
C53 C -0.8207(8) 0.40264(15) 0.1237(5)
H31 H -0.7823 0.3819 0.1155
C54 C -0.7257(7) 0.42028(14) 0.2089(5)
H32 H -0.6229 0.4108 0.2582
Cd1_2 Cd 2.19517(4) 0.310769(8) 1.94438(2)
Cd1C Cd 2.19517(4) 0.189231(8) 1.44438(2)
Cd2_2 Cd 2.78844(4) 0.305232(9) 1.99903(2)
Cd2C Cd 1.78844(4) 0.194768(9) 1.49903(2)
Cd3_2 Cd 0.39178(4) 0.482414(9) 0.36261(3)
Cd3B Cd 0.60822(4) 0.517586(9) 0.63739(3)
O3B O -0.4773(4) 0.53175(9) 0.3742(3)
O4_2 O -0.7034(5) 0.48242(11) 0.4724(3)
O9C O 0.9899(4) 0.27114(8) 0.9723(2)
O10C O 1.0382(4) 0.26795(9) 0.8454(2)
O11_2 O 1.4068(4) 0.31632(8) 0.8914(2)
O12_2 O 0.5970(4) 0.29889(9) 0.8430(2)
O14 O 0.4082(11) 0.4925(3) 0.7969(5)
H33 H 0.3866 0.5060 0.7507
H34 H 0.4262 0.4859 0.7505
loop_
_geom_bond_atom_site_label_1
_geom_bond_atom_site_label_2
_geom_bond_site_symmetry_1
_geom_bond_site_symmetry_2
Cd1 O1 1_555 1_555
Cd2 O1 1_555 1_555
Cd3 O5 1_555 1_555
O1 C1 1_555 1_555
O2 Cd1 1_555 1_555
O3 C14 1_555 1_555
O4 C14 1_555 1_555
O5 C15 1_555 1_555
O6 Cd3 1_555 1_555
O7 Cd1 1_555 1_555
O8 Cd1 1_555 1_555
O9 C23 1_555 1_555
O10 C23 1_555 1_555
O11 C30 1_555 1_555
O12 C30 1_555 1_555
O13 Cd2 1_555 1_555
H1 O13 1_555 1_555
H2 O13 1_555 1_555
N1 Cd2 1_555 1_555
N2 Cd2 1_555 1_555
N3 Cd3 1_555 1_555
N4 Cd3 1_555 1_555
C1 O2 1_555 1_555
C2 C1 1_555 1_555
C3 C2 1_555 1_555
H3 C3 1_555 1_555
C4 C3 1_555 1_555
H4 C4 1_555 1_555
C5 C4 1_555 1_555
C6 C5 1_555 1_555
H5 C6 1_555 1_555
C7 C2 1_555 1_555
H6 C7 1_555 1_555
C8 C5 1_555 1_555
C9 C8 1_555 1_555
H7 C9 1_555 1_555
C10 C9 1_555 1_555
H8 C10 1_555 1_555
C11 C10 1_555 1_555
C12 C11 1_555 1_555
H9 C12 1_555 1_555
C13 C8 1_555 1_555
C14 C13 1_555 1_555
C15 O6 1_555 1_555
C16 O7 1_555 1_555
C17 C16 1_555 1_555
C18 C17 1_555 1_555
H10 C18 1_555 1_555
C19 C18 1_555 1_555
H11 C19 1_555 1_555
C20 C19 1_555 1_555
C21 C20 1_555 1_555
C22 C17 1_555 1_555
H12 C22 1_555 1_555
C23 C21 1_555 1_555
C24 C20 1_555 1_555
C25 C24 1_555 1_555
H13 C25 1_555 1_555
C26 C25 1_555 1_555
H14 C26 1_555 1_555
C27 C26 1_555 1_555
C28 C27 1_555 1_555
H15 C28 1_555 1_555
C29 C24 1_555 1_555
H16 C29 1_555 1_555
C30 C27 1_555 1_555
C31 N1 1_555 1_555
H17 C31 1_555 1_555
C32 C31 1_555 1_555
H18 C32 1_555 1_555
C33 C32 1_555 1_555
H19 C33 1_555 1_555
C34 C33 1_555 1_555
C35 N1 1_555 1_555
C36 C34 1_555 1_555
H20 C36 1_555 1_555
C37 C36 1_555 1_555
H21 C37 1_555 1_555
C38 C37 1_555 1_555
C39 N2 1_555 1_555
C40 C38 1_555 1_555
H22 C40 1_555 1_555
C41 C40 1_555 1_555
H23 C41 1_555 1_555
C42 N2 1_555 1_555
H24 C42 1_555 1_555
C43 N3 1_555 1_555
H25 C43 1_555 1_555
C44 C43 1_555 1_555
H26 C44 1_555 1_555
C45 C44 1_555 1_555
H27 C45 1_555 1_555
C46 C45 1_555 1_555
C47 N3 1_555 1_555
C48 C46 1_555 1_555
H28 C48 1_555 1_555
C49 C48 1_555 1_555
H29 C49 1_555 1_555
C50 C49 1_555 1_555
C51 N4 1_555 1_555
C52 C50 1_555 1_555
H30 C52 1_555 1_555
C53 C52 1_555 1_555
H31 C53 1_555 1_555
C54 N4 1_555 1_555
H32 C54 1_555 1_555
O14 H33 1_555 1_555
H34 O14 1_555 1_555
Cd1_2 O11 1_555 1_555
Cd1C O9 1_555 1_555
Cd2_2 O12 1_555 1_555
Cd2C O9 1_555 1_555
Cd3_2 O4 1_555 1_555
Cd3B O3 1_555 1_555
O3B Cd3 1_555 1_555
O4_2 Cd3 1_555 1_555
O9C Cd1 1_555 1_555
O10C Cd1 1_555 1_555
O11_2 Cd1 1_555 1_555
O12_2 Cd2 1_555 1_555
Cd2 O9C 1_555 1_555
O8 C16 1_555 1_555
O10 Cd1C 1_555 1_555
C6 C7 1_555 1_555
C11 C15 1_555 1_555
C12 C13 1_555 1_555
C21 C22 1_555 1_555
C28 C29 1_555 1_555
C34 C35 1_555 1_555
C35 C39 1_555 1_555
C38 C39 1_555 1_555
C41 C42 1_555 1_555
C46 C47 1_555 1_555
C47 C51 1_555 1_555
C50 C51 1_555 1_555
C53 C54 1_555 1_555

#END
