
#######################################################################
#
#                 Cambridge Crystallographic Data Centre
#                                CCDC 
#
#######################################################################
#
# If this CIF has been generated from an entry in the Cambridge 
# Structural Database, then it will include bibliographic, chemical, 
# crystal, experimental, refinement or atomic coordinate data resulting 
# from the CCDC's data processing and validation procedures.
#
#######################################################################

data_QIQVIX
_symmetry_cell_setting           monoclinic
_symmetry_space_group_name_H-M   'I 2/a'
_symmetry_Int_Tables_number      15
_space_group_name_Hall           '-I 2ya'
loop_
_symmetry_equiv_pos_site_id
_symmetry_equiv_pos_as_xyz
1 x,y,z
2 1/2-x,y,-z
3 1/2+x,1/2+y,1/2+z
4 -x,1/2+y,1/2-z
5 -x,-y,-z
6 1/2+x,-y,z
7 1/2-x,1/2-y,1/2-z
8 x,1/2-y,1/2+z
_cell_length_a                   26.273
_cell_length_b                   10.799
_cell_length_c                   25.051
_cell_angle_alpha                90
_cell_angle_beta                 95.02
_cell_angle_gamma                90
_cell_volume                     7080.26
loop_
_atom_site_label
_atom_site_type_symbol
_atom_site_fract_x
_atom_site_fract_y
_atom_site_fract_z
Cd1 Cd 0.616118(8) 0.326859(19) 1.017567(8)
Cd2 Cd 0.5000 0.5000 1.0000
Cd3 Cd 0.771894(9) 0.892636(19) 0.788571(8)
Cd4 Cd 0.7500 0.00085(3) 1.0000
O1 O 0.63966(9) 0.4710(2) 0.95751(9)
O2 O 0.55744(9) 0.42842(19) 0.94278(8)
O3 O 0.70767(10) 0.8280(2) 0.84884(9)
O4 O 0.69798(8) 0.77147(19) 0.76498(8)
O5 O 0.57279(10) 0.9942(2) 0.56042(9)
O6 O 0.61499(12) 1.1326(3) 0.61084(11)
O7 O 0.65669(9) 0.17261(19) 0.97581(8)
O8 O 0.72199(9) 0.1247(2) 0.93056(9)
O9 O 0.65603(9) 0.49012(19) 0.73081(9)
O10 O 0.72419(8) 0.4804(2) 0.78826(9)
O11 O 0.44415(9) -0.1967(2) 0.96381(10)
O12 O 0.51699(10) -0.3057(2) 0.97762(10)
O13 O 0.70511(13) 0.3469(3) 1.04934(14)
H1 H 0.6791 0.3532 1.0671
H2 H 0.7253 0.2858 1.0548
O14 O 0.81954(11) 0.7934(3) 0.85581(11)
H3 H 0.8068 0.7243 0.8639
H4 H 0.8195 0.8419 0.8825
O15 O 0.75090(12) 1.0707(2) 0.82719(11)
H5 H 0.7665 1.1382 0.8224
H6 H 0.7422 1.0866 0.8583
O16 O 0.78991(14) -0.1635(3) 1.04448(11)
H7 H 0.7905 -0.1661 1.0784
H8 H 0.8115 -0.1949 1.0250
O17 O 0.81820(14) -0.0417(3) 0.94748(14)
H9 H 0.8250 0.0183 0.9689
H10 H 0.8469 -0.0530 0.9504
C1 C 0.59724(13) 0.4841(3) 0.93048(12)
C2 C 0.59412(11) 0.5658(3) 0.88215(11)
C3 C 0.54894(12) 0.5768(3) 0.84953(13)
H11 H 0.5202 0.5331 0.8578
C4 C 0.54640(13) 0.6519(3) 0.80498(14)
H12 H 0.5157 0.6584 0.7837
C5 C 0.58893(12) 0.7187(3) 0.79103(12)
C6 C 0.63505(11) 0.7059(3) 0.82370(11)
C7 C 0.63693(11) 0.6305(3) 0.86875(11)
H13 H 0.6674 0.6232 0.8904
C8 C 0.68290(11) 0.7719(3) 0.81175(12)
C9 C 0.58493(12) 0.8020(3) 0.74390(12)
C10 C 0.59736(14) 0.9263(3) 0.74945(13)
H14 H 0.6057 0.9589 0.7835
C11 C 0.59755(14) 1.0027(3) 0.70511(13)
H15 H 0.6063 1.0857 0.7094
C12 C 0.58467(12) 0.9554(3) 0.65417(12)
C13 C 0.56942(13) 0.8332(3) 0.64884(13)
H16 H 0.5588 0.8019 0.6151
C14 C 0.56978(13) 0.7568(3) 0.69334(13)
H17 H 0.5598 0.6745 0.6892
C15 C 0.59056(13) 1.0336(3) 0.60601(13)
C16 C 0.67789(12) 0.1698(2) 0.93333(12)
C17 C 0.65079(11) 0.2198(2) 0.88230(11)
C18 C 0.67582(11) 0.3043(3) 0.85184(12)
H18 H 0.7092 0.3269 0.8629
C19 C 0.65206(12) 0.3552(3) 0.80549(12)
C20 C 0.60190(12) 0.3216(3) 0.78957(13)
H19 H 0.5852 0.3563 0.7589
C21 C 0.57698(12) 0.2370(3) 0.81927(13)
H20 H 0.5436 0.2148 0.8080
C22 C 0.60066(11) 0.1837(3) 0.86592(12)
C23 C 0.67856(12) 0.4474(3) 0.77284(12)
C24 C 0.57325(11) 0.0856(3) 0.89328(12)
C25 C 0.52411(12) 0.1041(3) 0.90824(13)
H21 H 0.5089 0.1815 0.9034
C26 C 0.49769(12) 0.0093(3) 0.93013(14)
H22 H 0.4646 0.0230 0.9394
C27 C 0.51988(12) -0.1061(3) 0.93843(12)
C28 C 0.56922(13) -0.1244(3) 0.92437(14)
H23 H 0.5848 -0.2011 0.9302
C29 C 0.59538(13) -0.0301(3) 0.90184(13)
H24 H 0.6283 -0.0442 0.8922
C30 C 0.49126(13) -0.2109(3) 0.96193(12)
Cd1A Cd 0.883882(8) 0.326859(19) 0.982433(8)
Cd3A Cd 0.728106(9) 0.892636(19) 1.211429(8)
O1A O 0.86034(9) 0.4710(2) 1.04249(9)
O2A O 0.94256(9) 0.42842(19) 1.05722(8)
O3A O 0.79233(10) 0.8280(2) 1.15116(9)
O4A O 0.80202(8) 0.77147(19) 1.23502(8)
O5A O 0.92721(10) 0.9942(2) 1.43958(9)
O6A O 0.88501(12) 1.1326(3) 1.38916(11)
O7A O 0.84331(9) 0.17261(19) 1.02419(8)
O8A O 0.77801(9) 0.1247(2) 1.06944(9)
O9A O 0.84397(9) 0.49012(19) 1.26919(9)
O10A O 0.77581(8) 0.4804(2) 1.21174(9)
O11A O 1.05585(9) -0.1967(2) 1.03619(10)
O12A O 0.98301(10) -0.3057(2) 1.02238(10)
O13A O 0.79489(13) 0.3469(3) 0.95066(14)
H1A H 0.8209 0.3532 0.9329
H2A H 0.7747 0.2858 0.9452
O14A O 0.68046(11) 0.7934(3) 1.14419(11)
H3A H 0.6932 0.7243 1.1361
H4A H 0.6805 0.8419 1.1175
O15A O 0.74910(12) 1.0707(2) 1.17281(11)
H5A H 0.7335 1.1382 1.1776
H6A H 0.7578 1.0866 1.1417
O16A O 0.71009(14) -0.1635(3) 0.95552(11)
H7A H 0.7095 -0.1661 0.9216
H8A H 0.6885 -0.1949 0.9750
O17A O 0.68180(14) -0.0417(3) 1.05252(14)
H9A H 0.6750 0.0183 1.0311
H10A H 0.6531 -0.0530 1.0496
C1A C 0.90276(13) 0.4841(3) 1.06952(12)
C2A C 0.90588(11) 0.5658(3) 1.11785(11)
C3A C 0.95106(12) 0.5768(3) 1.15047(13)
H11A H 0.9798 0.5331 1.1422
C4A C 0.95360(13) 0.6519(3) 1.19502(14)
H12A H 0.9843 0.6584 1.2163
C5A C 0.91107(12) 0.7187(3) 1.20897(12)
C6A C 0.86495(11) 0.7059(3) 1.17630(11)
C7A C 0.86307(11) 0.6305(3) 1.13125(11)
H13A H 0.8326 0.6232 1.1096
C8A C 0.81710(11) 0.7719(3) 1.18825(12)
C9A C 0.91507(12) 0.8020(3) 1.25610(12)
C10A C 0.90264(14) 0.9263(3) 1.25055(13)
H14A H 0.8943 0.9589 1.2165
C11A C 0.90245(14) 1.0027(3) 1.29489(13)
H15A H 0.8937 1.0857 1.2906
C12A C 0.91533(12) 0.9554(3) 1.34583(12)
C13A C 0.93058(13) 0.8332(3) 1.35116(13)
H16A H 0.9412 0.8019 1.3849
C14A C 0.93022(13) 0.7568(3) 1.30666(13)
H17A H 0.9402 0.6745 1.3108
C15A C 0.90944(13) 1.0336(3) 1.39399(13)
C16A C 0.82211(12) 0.1698(2) 1.06667(12)
C17A C 0.84921(11) 0.2198(2) 1.11770(11)
C18A C 0.82418(11) 0.3043(3) 1.14816(12)
H18A H 0.7908 0.3269 1.1371
C19A C 0.84794(12) 0.3552(3) 1.19451(12)
C20A C 0.89810(12) 0.3216(3) 1.21043(13)
H19A H 0.9148 0.3563 1.2411
C21A C 0.92302(12) 0.2370(3) 1.18073(13)
H20A H 0.9564 0.2148 1.1920
C22A C 0.89934(11) 0.1837(3) 1.13408(12)
C23A C 0.82144(12) 0.4474(3) 1.22716(12)
C24A C 0.92675(11) 0.0856(3) 1.10672(12)
C25A C 0.97589(12) 0.1041(3) 1.09176(13)
H21A H 0.9911 0.1815 1.0966
C26A C 1.00231(12) 0.0093(3) 1.06987(14)
H22A H 1.0354 0.0230 1.0606
C27A C 0.98012(12) -0.1061(3) 1.06157(12)
C28A C 0.93078(13) -0.1244(3) 1.07563(14)
H23A H 0.9152 -0.2011 1.0698
C29A C 0.90462(13) -0.0301(3) 1.09816(13)
H24A H 0.8717 -0.0442 1.1078
C30A C 1.00874(13) -0.2109(3) 1.03807(12)
Cd1D Cd 0.383882(8) -0.326859(19) 0.982433(8)
Cd1E Cd 1.116118(8) -0.326859(19) 1.017567(8)
Cd1F Cd 0.883882(8) 1.173141(19) 1.482433(8)
Cd1G Cd 0.616118(8) 1.173141(19) 0.517567(8)
Cd2_2 Cd 0.5000 -0.5000 1.0000
Cd2A Cd 1.0000 -0.5000 1.0000
Cd2A_2 Cd 1.0000 0.5000 1.0000
Cd2B Cd 1.0000 1.0000 1.5000
Cd2C Cd 0.5000 1.0000 0.5000
Cd3F Cd 0.728106(9) 0.607364(19) 0.711429(8)
Cd3G Cd 0.771894(9) 0.607364(19) 1.288571(8)
O2D O 0.44256(9) 0.57158(19) 1.05722(8)
O4F O 0.80202(8) 0.72853(19) 0.73502(8)
O4G O 0.69798(8) 0.72853(19) 1.26498(8)
O5C O 0.42721(10) 0.4942(2) 0.93958(9)
O5F O 0.92721(10) 0.5058(2) 0.93958(9)
O5G O 0.57279(10) 0.5058(2) 1.06042(9)
O6F O 0.88501(12) 0.3674(3) 0.88916(11)
O6G O 0.61499(12) 0.3674(3) 1.11084(11)
O9F O 0.84397(9) 1.00988(19) 0.76919(9)
O9G O 0.65603(9) 1.00988(19) 1.23081(9)
O10F O 0.77581(8) 1.0196(2) 0.71174(9)
O10G O 0.72419(8) 1.0196(2) 1.28826(9)
O11D O 0.55585(9) 0.1967(2) 1.03619(10)
O11E O 0.94415(9) 0.1967(2) 0.96381(10)
O12_2 O 0.51699(10) 0.6943(2) 0.97762(10)
O12D O 0.48301(10) 0.3057(2) 1.02238(10)
O18 O 0.80109(11) 0.2872(2) 0.81188(13)
H25 H 0.8255 0.3102 0.8342
H26 H 0.7787 0.3431 0.8049
O19 O 0.77650(16) 0.5625(3) 0.88372(15)
H27 H 0.7606 0.5380 0.8546
H28 H 0.7821 0.4989 0.9033
O20 O 0.87555(17) 0.0785(4) 0.87893(17)
H29 H 0.8663 0.0583 0.8468
H30 H 0.8953 0.1125 0.9034
O21 O 0.8670(3) 0.7240(5) 0.9760(2)
H31 H 0.8840 0.6627 0.9659
H32 H 0.8407 0.7411 0.9551
loop_
_geom_bond_atom_site_label_1
_geom_bond_atom_site_label_2
_geom_bond_site_symmetry_1
_geom_bond_site_symmetry_2
Cd1 O1 1_555 1_555
Cd2 O2 1_555 1_555
Cd3 O3 1_555 1_555
Cd4 O8 1_555 1_555
O1 C1 1_555 1_555
O2 Cd1 1_555 1_555
O3 C8 1_555 1_555
O4 Cd3 1_555 1_555
O5 C15 1_555 1_555
O6 C15 1_555 1_555
O7 Cd1 1_555 1_555
O8 C16 1_555 1_555
O9 C23 1_555 1_555
O10 C23 1_555 1_555
O11 C30 1_555 1_555
O12 C30 1_555 1_555
O13 Cd1 1_555 1_555
H1 O13 1_555 1_555
H2 O13 1_555 1_555
O14 Cd3 1_555 1_555
H3 O14 1_555 1_555
H4 O14 1_555 1_555
O15 Cd3 1_555 1_555
H5 O15 1_555 1_555
H6 O15 1_555 1_555
O16 Cd4 1_555 1_555
H7 O16 1_555 1_555
H8 O16 1_555 1_555
O17 Cd4 1_555 1_555
H9 O17 1_555 1_555
H10 O17 1_555 1_555
C1 O2 1_555 1_555
C2 C1 1_555 1_555
C3 C2 1_555 1_555
H11 C3 1_555 1_555
C4 C3 1_555 1_555
H12 C4 1_555 1_555
C5 C4 1_555 1_555
C6 C5 1_555 1_555
C7 C2 1_555 1_555
H13 C7 1_555 1_555
C8 O4 1_555 1_555
C9 C5 1_555 1_555
C10 C9 1_555 1_555
H14 C10 1_555 1_555
C11 C10 1_555 1_555
H15 C11 1_555 1_555
C12 C11 1_555 1_555
C13 C12 1_555 1_555
H16 C13 1_555 1_555
C14 C9 1_555 1_555
H17 C14 1_555 1_555
C15 C12 1_555 1_555
C16 O7 1_555 1_555
C17 C16 1_555 1_555
C18 C17 1_555 1_555
H18 C18 1_555 1_555
C19 C18 1_555 1_555
C20 C19 1_555 1_555
H19 C20 1_555 1_555
C21 C20 1_555 1_555
H20 C21 1_555 1_555
C22 C17 1_555 1_555
C23 C19 1_555 1_555
C24 C22 1_555 1_555
C25 C24 1_555 1_555
H21 C25 1_555 1_555
C26 C25 1_555 1_555
H22 C26 1_555 1_555
C27 C26 1_555 1_555
C28 C27 1_555 1_555
H23 C28 1_555 1_555
C29 C24 1_555 1_555
H24 C29 1_555 1_555
C30 C27 1_555 1_555
O18 H25 1_555 1_555
H26 O18 1_555 1_555
O19 H27 1_555 1_555
H28 O19 1_555 1_555
O20 H29 1_555 1_555
H30 O20 1_555 1_555
O21 H31 1_555 1_555
H32 O21 1_555 1_555
Cd1A O1A 1_555 1_555
Cd3A O3A 1_555 1_555
O1A C1A 1_555 1_555
O2A Cd1A 1_555 1_555
O3A C8A 1_555 1_555
O4A Cd3A 1_555 1_555
O5A C15A 1_555 1_555
O6A C15A 1_555 1_555
O7A Cd1A 1_555 1_555
O8A Cd4 1_555 1_555
O9A C23A 1_555 1_555
O10A C23A 1_555 1_555
O11A C30A 1_555 1_555
O12A C30A 1_555 1_555
O13A Cd1A 1_555 1_555
H1A O13A 1_555 1_555
H2A O13A 1_555 1_555
O14A Cd3A 1_555 1_555
H3A O14A 1_555 1_555
H4A O14A 1_555 1_555
O15A Cd3A 1_555 1_555
H5A O15A 1_555 1_555
H6A O15A 1_555 1_555
O16A Cd4 1_555 1_555
H7A O16A 1_555 1_555
H8A O16A 1_555 1_555
O17A Cd4 1_555 1_555
H9A O17A 1_555 1_555
H10A O17A 1_555 1_555
C1A O2A 1_555 1_555
C2A C1A 1_555 1_555
C3A C2A 1_555 1_555
H11A C3A 1_555 1_555
C4A C3A 1_555 1_555
H12A C4A 1_555 1_555
C5A C4A 1_555 1_555
C6A C5A 1_555 1_555
C7A C2A 1_555 1_555
H13A C7A 1_555 1_555
C8A O4A 1_555 1_555
C9A C5A 1_555 1_555
C10A C9A 1_555 1_555
H14A C10A 1_555 1_555
C11A C10A 1_555 1_555
H15A C11A 1_555 1_555
C12A C11A 1_555 1_555
C13A C12A 1_555 1_555
H16A C13A 1_555 1_555
C14A C9A 1_555 1_555
H17A C14A 1_555 1_555
C15A C12A 1_555 1_555
C16A O7A 1_555 1_555
C17A C16A 1_555 1_555
C18A C17A 1_555 1_555
H18A C18A 1_555 1_555
C19A C18A 1_555 1_555
C20A C19A 1_555 1_555
H19A C20A 1_555 1_555
C21A C20A 1_555 1_555
H20A C21A 1_555 1_555
C22A C17A 1_555 1_555
C23A C19A 1_555 1_555
C24A C22A 1_555 1_555
C25A C24A 1_555 1_555
H21A C25A 1_555 1_555
C26A C25A 1_555 1_555
H22A C26A 1_555 1_555
C27A C26A 1_555 1_555
C28A C27A 1_555 1_555
H23A C28A 1_555 1_555
C29A C24A 1_555 1_555
H24A C29A 1_555 1_555
C30A C27A 1_555 1_555
Cd1D O11 1_555 1_555
Cd1E O11A 1_555 1_555
Cd1F O5A 1_555 1_555
Cd1G O5 1_555 1_555
Cd2_2 O12 1_555 1_555
Cd2A O12A 1_555 1_555
Cd2A_2 O2A 1_555 1_555
Cd2B O5A 1_555 1_555
Cd2C O5 1_555 1_555
Cd3F O4 1_555 1_555
Cd3G O4A 1_555 1_555
O2D Cd2 1_555 1_555
O4F Cd3 1_555 1_555
O4G Cd3A 1_555 1_555
O5C Cd2 1_555 1_555
O5F Cd1A 1_555 1_555
O5G Cd1 1_555 1_555
O6F Cd1A 1_555 1_555
O6G Cd1 1_555 1_555
O9F Cd3 1_555 1_555
O9G Cd3A 1_555 1_555
O10F Cd3 1_555 1_555
O10G Cd3A 1_555 1_555
O11D Cd1 1_555 1_555
O11E Cd1A 1_555 1_555
O12_2 Cd2 1_555 1_555
O12D Cd2 1_555 1_555
Cd2 O5G 1_555 1_555
O6 Cd1G 1_555 1_555
O9 Cd3F 1_555 1_555
O10 Cd3F 1_555 1_555
C6 C7 1_555 1_555
C6 C8 1_555 1_555
C13 C14 1_555 1_555
C21 C22 1_555 1_555
C28 C29 1_555 1_555
O6A Cd1F 1_555 1_555
O8A C16A 1_555 1_555
O9A Cd3G 1_555 1_555
O10A Cd3G 1_555 1_555
C6A C7A 1_555 1_555
C6A C8A 1_555 1_555
C13A C14A 1_555 1_555
C21A C22A 1_555 1_555
C28A C29A 1_555 1_555
Cd2A_2 O5F 1_555 1_555
Cd3F O4F 1_555 1_555
Cd3G O4G 1_555 1_555

#END
