
#######################################################################
#
#                 Cambridge Crystallographic Data Centre
#                                CCDC 
#
#######################################################################
#
# If this CIF has been generated from an entry in the Cambridge 
# Structural Database, then it will include bibliographic, chemical, 
# crystal, experimental, refinement or atomic coordinate data resulting 
# from the CCDC's data processing and validation procedures.
#
#######################################################################

data_QIRGED
_symmetry_cell_setting           triclinic
_symmetry_space_group_name_H-M   'P -1'
_symmetry_Int_Tables_number      2
_space_group_name_Hall           '-P 1'
loop_
_symmetry_equiv_pos_site_id
_symmetry_equiv_pos_as_xyz
1 x,y,z
2 -x,-y,-z
_cell_length_a                   7.7094(15)
_cell_length_b                   8.4836(17)
_cell_length_c                   11.643(2)
_cell_angle_alpha                80.66(2)
_cell_angle_beta                 79.50(2)
_cell_angle_gamma                81.35(2)
_cell_volume                     733.064
loop_
_atom_site_label
_atom_site_type_symbol
_atom_site_fract_x
_atom_site_fract_y
_atom_site_fract_z
K1 K 0.44823(12) 0.63967(11) 0.32153(8)
K2 K 1.05156(12) 0.36075(11) 0.17808(8)
C1 C 0.8797(5) 0.7204(5) 0.4616(4)
N1 N 0.9270(4) 0.6116(4) 0.3804(3)
O1 O 0.8058(4) 0.5526(4) 0.3490(3)
O2 O 1.0878(4) 0.5678(4) 0.3435(3)
N2 N 1.0175(4) 0.7950(4) 0.4861(3)
O3 O 0.9997(4) 0.8368(4) 0.5856(3)
O4 O 1.1499(4) 0.8224(4) 0.4107(3)
C2 C 0.6974(5) 0.7444(5) 0.5274(4)
O5 O 0.5923(4) 0.6469(4) 0.5325(3)
N3 N 0.6534(5) 0.8793(4) 0.5840(3)
H1 H 0.727(6) 0.951(5) 0.578(5)
C3 C 0.4857(5) 0.9322(5) 0.6468(4)
N4 N 0.3577(4) 0.8440(5) 0.6579(3)
H2 H 0.248(4) 0.871(6) 0.692(4)
H3 H 0.373(7) 0.748(3) 0.637(5)
O6 O 0.4731(4) 1.0603(4) 0.6862(3)
C4 C 0.6213(5) 0.2779(5) 0.0384(4)
N5 N 0.5733(4) 0.3900(4) 0.1176(3)
O7 O 0.6890(4) 0.4489(4) 0.1511(3)
O8 O 0.4152(4) 0.4343(4) 0.1557(3)
N6 N 0.4821(5) 0.2046(5) 0.0134(3)
O9 O 0.3507(4) 0.1793(4) 0.0881(3)
O10 O 0.5004(4) 0.1625(4) -0.0867(3)
C5 C 0.8008(5) 0.2576(5) -0.0288(4)
O11 O 0.9097(4) 0.3509(3) -0.0319(3)
N7 N 0.8489(5) 0.1215(5) -0.0817(3)
H4 H 0.764(5) 0.066(6) -0.089(5)
C6 C 1.0128(5) 0.0665(5) -0.1452(4)
N8 N 1.1459(5) 0.1559(5) -0.1579(4)
H5 H 1.243(4) 0.102(6) -0.187(5)
H6 H 1.122(7) 0.230(5) -0.109(4)
O12 O 1.0274(4) -0.0606(4) -0.1862(3)
O2_2 O 0.0878(4) 0.5678(4) 0.3435(3)
O4_2 O 0.1499(4) 0.8224(4) 0.4107(3)
O5A O 0.4077(4) 0.3531(4) 0.4675(3)
O6A O 0.5269(4) 0.9397(4) 0.3138(3)
O10A O 0.4996(4) 0.8375(4) 0.0867(3)
O3A O 1.0003(4) 0.1632(4) 0.4144(3)
O8_2 O 1.4152(4) 0.4343(4) 0.1557(3)
O9_2 O 1.3507(4) 0.1793(4) 0.0881(3)
O11A O 1.0903(4) 0.6491(3) 0.0319(3)
O12A O 0.9726(4) 0.0606(4) 0.1862(3)
K1_2 K 1.44823(12) 0.63967(11) 0.32153(8)
K2A K 0.94844(12) 0.63925(11) 0.82192(8)
K1A K 0.55177(12) 0.36033(11) 0.67847(8)
K1A_2 K 0.55177(12) 1.36033(11) 0.67847(8)
K2_2 K 0.05156(12) 0.36075(11) 0.17808(8)
K1A_3 K 0.55177(12) 0.36033(11) -0.32153(8)
K2A_2 K 0.94844(12) 0.63925(11) -0.17808(8)
K2A_3 K 0.94844(12) -0.36075(11) -0.17808(8)
loop_
_geom_bond_atom_site_label_1
_geom_bond_atom_site_label_2
_geom_bond_site_symmetry_1
_geom_bond_site_symmetry_2
K1 O1 1_555 1_555
K2 O1 1_555 1_555
C1 N1 1_555 1_555
N1 O1 1_555 1_555
O2 K2 1_555 1_555
N2 C1 1_555 1_555
O3 N2 1_555 1_555
O4 N2 1_555 1_555
C2 C1 1_555 1_555
O5 K1 1_555 1_555
N3 C2 1_555 1_555
H1 N3 1_555 1_555
C3 N3 1_555 1_555
N4 C3 1_555 1_555
H2 N4 1_555 1_555
H3 N4 1_555 1_555
O6 C3 1_555 1_555
C4 N5 1_555 1_555
N5 O7 1_555 1_555
O7 K1 1_555 1_555
O8 K1 1_555 1_555
N6 C4 1_555 1_555
O9 N6 1_555 1_555
O10 N6 1_555 1_555
C5 C4 1_555 1_555
O11 K2 1_555 1_555
N7 C5 1_555 1_555
H4 N7 1_555 1_555
C6 N7 1_555 1_555
N8 C6 1_555 1_555
H5 N8 1_555 1_555
H6 N8 1_555 1_555
O12 C6 1_555 1_555
O2_2 K1 1_555 1_555
O4_2 K1 1_555 1_555
O5A K1 1_555 1_555
O6A K1 1_555 1_555
O10A K1 1_555 1_555
O3A K2 1_555 1_555
O8_2 K2 1_555 1_555
O9_2 K2 1_555 1_555
O11A K2 1_555 1_555
O12A K2 1_555 1_555
K1_2 O2 1_555 1_555
K2A O3 1_555 1_555
K1A O5 1_555 1_555
K1A_2 O6 1_555 1_555
K2_2 O8 1_555 1_555
K1A_3 O10 1_555 1_555
K2A_2 O11 1_555 1_555
K2A_3 O12 1_555 1_555
K2 O7 1_555 1_555
N1 O2 1_555 1_555
O4 K1_2 1_555 1_555
C2 O5 1_555 1_555
N5 O8 1_555 1_555
O9 K2_2 1_555 1_555
C5 O11 1_555 1_555
O2_2 K2_2 1_555 1_555
O5A K1A 1_555 1_555
O8_2 K1_2 1_555 1_555
O11A K2A_2 1_555 1_555

#END
