
#######################################################################
#
#                 Cambridge Crystallographic Data Centre
#                                CCDC 
#
#######################################################################
#
# If this CIF has been generated from an entry in the Cambridge 
# Structural Database, then it will include bibliographic, chemical, 
# crystal, experimental, refinement or atomic coordinate data resulting 
# from the CCDC's data processing and validation procedures.
#
#######################################################################

data_QIRHUW
_symmetry_cell_setting           monoclinic
_symmetry_space_group_name_H-M   'C c'
_symmetry_Int_Tables_number      9
_space_group_name_Hall           'C -2yc'
loop_
_symmetry_equiv_pos_site_id
_symmetry_equiv_pos_as_xyz
1 x,y,z
2 x,-y,1/2+z
3 1/2+x,1/2+y,z
4 1/2+x,1/2-y,1/2+z
_cell_length_a                   20.321(6)
_cell_length_b                   12.9865(16)
_cell_length_c                   14.312(3)
_cell_angle_alpha                90
_cell_angle_beta                 99.21(2)
_cell_angle_gamma                90
_cell_volume                     3728.23
loop_
_atom_site_label
_atom_site_type_symbol
_atom_site_fract_x
_atom_site_fract_y
_atom_site_fract_z
Zn1 Zn 0.74235(12) 0.7765(2) 0.50278(19)
Zn2 Zn -0.10046(12) 0.77560(19) 0.5075(2)
N1 N 0.3507(8) 0.4086(15) 0.4582(13)
N2 N 0.2828(8) 0.4124(15) 0.4621(13)
N3 N 0.3122(9) 0.5674(14) 0.4252(14)
O1 O 0.6506(8) 0.7315(12) 0.4611(13)
O2 O 0.6821(7) 0.5728(12) 0.4218(11)
O3 O 0.7333(8) 0.8090(14) 0.6332(11)
H1 H 0.7704 0.8311 0.6622
H2 H 0.7038 0.8554 0.6327
O4 O -0.0208(8) 0.7268(13) 0.4692(13)
O5 O -0.0595(8) 0.5767(12) 0.4096(13)
O6 O -0.1801(9) 0.6930(11) 0.5069(14)
O7 O -0.0630(7) 0.8084(13) 0.6446(10)
H3 H -0.0492 0.7527 0.6722
H4 H -0.0302 0.8496 0.6480
C1 C 0.6398(10) 0.6330(18) 0.4366(17)
C2 C 0.5674(10) 0.6064(17) 0.4345(16)
C3 C 0.5503(10) 0.4998(18) 0.4184(15)
H5 H 0.5830 0.4524 0.4093
C4 C 0.4844(10) 0.4670(17) 0.4166(15)
H6 H 0.4722 0.3987 0.4042
C5 C 0.4366(10) 0.5421(17) 0.4344(16)
C6 C 0.4545(10) 0.6438(17) 0.4523(16)
H7 H 0.4237 0.6910 0.4682
C7 C 0.5205(10) 0.6751(17) 0.4459(17)
H8 H 0.5313 0.7447 0.4498
C8 C 0.3657(10) 0.5039(16) 0.4409(16)
C9 C 0.2621(10) 0.5013(19) 0.4386(16)
C10 C 0.1898(10) 0.5421(18) 0.4322(17)
C11 C 0.1367(10) 0.4694(19) 0.4124(17)
H9 H 0.1458 0.4010 0.4000
C12 C 0.0725(11) 0.5008(19) 0.4117(17)
H10 H 0.0377 0.4545 0.3944
C13 C 0.0585(11) 0.600(2) 0.4362(19)
C14 C 0.1114(11) 0.673(2) 0.4639(17)
H11 H 0.1038 0.7374 0.4891
C15 C 0.1787(11) 0.6390(19) 0.4496(17)
H12 H 0.2132 0.6866 0.4529
C16 C -0.0142(11) 0.638(2) 0.4390(18)
Zn1_2 Zn -0.25765(12) 0.7765(2) 0.50278(19)
Zn1B Zn 0.24235(12) 0.2765(2) 0.50278(19)
Zn2B Zn 0.39954(12) 0.27560(19) 0.5075(2)
N1B N -0.1493(8) 0.9086(15) 0.4582(13)
N2B N 0.7828(8) 0.9124(15) 0.4621(13)
O6_2 O 0.8199(9) 0.6930(11) 0.5069(14)
Zn3 Zn 0.77088(13) 0.4417(2) 0.6752(2)
Zn4 Zn -0.08401(13) 0.4248(2) 0.6281(2)
N4 N 0.3772(8) 0.7945(13) 0.6764(13)
N5 N 0.3079(8) 0.7967(14) 0.6816(13)
N6 N 0.3451(9) 0.6343(15) 0.7016(13)
O8 O 0.7179(7) 0.6402(12) 0.7295(11)
O9 O 0.6813(7) 0.4840(14) 0.6870(11)
O10 O 0.7351(9) 0.4083(15) 0.5261(14)
H13 H 0.7194 0.4619 0.4964
H14 H 0.7052 0.3621 0.5234
O11 O 0.7986(9) 0.4529(13) 0.8318(12)
H15 H 0.8291 0.4093 0.8501
H16 H 0.8128 0.5132 0.8465
O12 O -0.0248(7) 0.6276(13) 0.7061(12)
O13 O 0.0054(8) 0.4791(13) 0.6605(12)
O14 O -0.1552(9) 0.5273(12) 0.6446(13)
O15 O -0.0826(8) 0.3959(12) 0.4919(12)
H17 H -0.0757 0.4525 0.4652
H18 H -0.1192 0.3702 0.4652
C17 C 0.6711(10) 0.5762(18) 0.7096(17)
C18 C 0.5993(11) 0.6048(19) 0.7030(16)
C19 C 0.5513(10) 0.5381(18) 0.6773(16)
H19 H 0.5624 0.4719 0.6607
C20 C 0.4830(11) 0.5634(18) 0.6739(17)
H20 H 0.4501 0.5142 0.6565
C21 C 0.4661(10) 0.6629(17) 0.6969(16)
C22 C 0.5168(10) 0.7343(17) 0.7259(17)
H21 H 0.5066 0.8005 0.7439
C23 C 0.5857(11) 0.7033(18) 0.7274(17)
H22 H 0.6202 0.7500 0.7449
C24 C 0.3971(10) 0.6965(17) 0.6935(16)
C25 C 0.2899(10) 0.7019(17) 0.6908(17)
C26 C 0.2215(10) 0.6681(18) 0.6982(17)
C27 C 0.2019(11) 0.5668(18) 0.6727(18)
H23 H 0.2327 0.5205 0.6551
C28 C 0.1380(10) 0.5365(18) 0.6739(17)
H24 H 0.1265 0.4681 0.6610
C29 C 0.0902(11) 0.6033(19) 0.6934(18)
C30 C 0.1071(11) 0.6996(19) 0.7161(17)
H25 H 0.0745 0.7457 0.7285
C31 C 0.1743(10) 0.7340(18) 0.7220(18)
H26 H 0.1859 0.8006 0.7418
C32 C 0.0164(11) 0.5665(18) 0.6861(18)
Zn3_2 Zn -0.22912(13) 0.4417(2) 0.6752(2)
Zn3B Zn 0.27088(13) 0.9417(2) 0.6752(2)
Zn4B Zn 0.41599(13) 0.9248(2) 0.6281(2)
N4B N -0.1228(8) 0.2945(13) 0.6764(13)
N5B N 0.8079(8) 0.2967(14) 0.6816(13)
O14_2 O 0.8448(9) 0.5273(12) 0.6446(13)
O16 O 0.8439(8) 0.9179(13) 0.7285(13)
H27 H 0.8521 0.9775 0.7521
H28 H 0.8807 0.8855 0.7334
O17 O 0.8043(10) 0.2968(15) 0.3932(14)
H29 H 0.7972 0.2323 0.3913
H30 H 0.7724 0.3254 0.4151
loop_
_geom_bond_atom_site_label_1
_geom_bond_atom_site_label_2
_geom_bond_site_symmetry_1
_geom_bond_site_symmetry_2
Zn1 O1 1_555 1_555
Zn2 O4 1_555 1_555
N1 N2 1_555 1_555
N2 C9 1_555 1_555
N3 C8 1_555 1_555
O1 C1 1_555 1_555
O2 C1 1_555 1_555
O3 Zn1 1_555 1_555
H1 O3 1_555 1_555
H2 O3 1_555 1_555
O4 C16 1_555 1_555
O5 C16 1_555 1_555
O6 Zn2 1_555 1_555
O7 Zn2 1_555 1_555
H3 O7 1_555 1_555
H4 O7 1_555 1_555
C1 C2 1_555 1_555
C2 C3 1_555 1_555
C3 H5 1_555 1_555
C4 C3 1_555 1_555
H6 C4 1_555 1_555
C5 C4 1_555 1_555
C6 C5 1_555 1_555
H7 C6 1_555 1_555
C7 C2 1_555 1_555
H8 C7 1_555 1_555
C8 N1 1_555 1_555
C9 N3 1_555 1_555
C10 C9 1_555 1_555
C11 C10 1_555 1_555
H9 C11 1_555 1_555
C12 C11 1_555 1_555
H10 C12 1_555 1_555
C13 C12 1_555 1_555
C14 C13 1_555 1_555
H11 C14 1_555 1_555
C15 C10 1_555 1_555
H12 C15 1_555 1_555
C16 C13 1_555 1_555
Zn3 O9 1_555 1_555
Zn4 O13 1_555 1_555
N4 N5 1_555 1_555
N5 C25 1_555 1_555
N6 C24 1_555 1_555
O8 C17 1_555 1_555
O9 C17 1_555 1_555
O10 Zn3 1_555 1_555
H13 O10 1_555 1_555
H14 O10 1_555 1_555
O11 Zn3 1_555 1_555
H15 O11 1_555 1_555
H16 O11 1_555 1_555
O12 C32 1_555 1_555
O13 C32 1_555 1_555
O14 Zn4 1_555 1_555
O15 Zn4 1_555 1_555
H17 O15 1_555 1_555
H18 O15 1_555 1_555
C17 C18 1_555 1_555
C18 C19 1_555 1_555
C19 H19 1_555 1_555
C20 C19 1_555 1_555
H20 C20 1_555 1_555
C21 C20 1_555 1_555
C22 C21 1_555 1_555
H21 C22 1_555 1_555
C23 C18 1_555 1_555
H22 C23 1_555 1_555
C24 N4 1_555 1_555
C25 N6 1_555 1_555
C26 C25 1_555 1_555
C27 C26 1_555 1_555
H23 C27 1_555 1_555
C28 C27 1_555 1_555
H24 C28 1_555 1_555
C29 C28 1_555 1_555
C30 C29 1_555 1_555
H25 C30 1_555 1_555
C31 C26 1_555 1_555
H26 C31 1_555 1_555
C32 C29 1_555 1_555
O16 H27 1_555 1_555
H28 O16 1_555 1_555
O17 H29 1_555 1_555
H30 O17 1_555 1_555
Zn1_2 O6 1_555 1_555
Zn1B N2 1_555 1_555
Zn2B N1 1_555 1_555
N1B Zn2 1_555 1_555
N2B Zn1 1_555 1_555
O6_2 Zn1 1_555 1_555
Zn3_2 O14 1_555 1_555
Zn3B N5 1_555 1_555
Zn4B N4 1_555 1_555
N4B Zn4 1_555 1_555
N5B Zn3 1_555 1_555
O14_2 Zn3 1_555 1_555
C5 C8 1_555 1_555
C6 C7 1_555 1_555
C14 C15 1_555 1_555
C21 C24 1_555 1_555
C22 C23 1_555 1_555
C30 C31 1_555 1_555

#END
