
#######################################################################
#
#                 Cambridge Crystallographic Data Centre
#                                CCDC 
#
#######################################################################
#
# If this CIF has been generated from an entry in the Cambridge 
# Structural Database, then it will include bibliographic, chemical, 
# crystal, experimental, refinement or atomic coordinate data resulting 
# from the CCDC's data processing and validation procedures.
#
#######################################################################

data_QIRHIK
_symmetry_cell_setting           monoclinic
_symmetry_space_group_name_H-M   'P 21/c'
_symmetry_Int_Tables_number      14
_space_group_name_Hall           '-P 2ybc'
loop_
_symmetry_equiv_pos_site_id
_symmetry_equiv_pos_as_xyz
1 x,y,z
2 -x,1/2+y,1/2-z
3 -x,-y,-z
4 x,1/2-y,1/2+z
_cell_length_a                   8.4018(18)
_cell_length_b                   17.937(4)
_cell_length_c                   19.719(4)
_cell_angle_alpha                90
_cell_angle_beta                 94.260(4)
_cell_angle_gamma                90
_cell_volume                     2963.5
loop_
_atom_site_label
_atom_site_type_symbol
_atom_site_fract_x
_atom_site_fract_y
_atom_site_fract_z
Cu1 Cu 0.30268(3) 0.082863(17) 0.200572(15)
O1 O 0.27596(19) -0.02193(10) 0.30012(9)
O2 O 0.10806(18) 0.03258(10) 0.22363(9)
O3 O -0.64274(19) -0.50696(9) 0.63601(9)
O4 O -0.8367(2) -0.53024(10) 0.55435(9)
O5 O 0.1647(2) 0.16402(10) 0.11956(9)
N1 N -0.3856(2) -0.21807(11) 0.42086(10)
N2 N -0.5483(2) -0.13101(12) 0.38186(10)
H1 H -0.5822 -0.0912 0.3611
N3 N -0.6403(2) -0.17756(12) 0.41601(10)
N4 N 0.5209(2) 0.12840(12) 0.19954(10)
N5 N 0.2743(3) 0.16703(13) 0.26699(11)
C1 C 0.1383(3) -0.01095(13) 0.27438(13)
C2 C -0.0023(3) -0.04830(14) 0.30185(12)
C3 C 0.0188(3) -0.10468(15) 0.34949(14)
H2 H 0.1216 -0.1198 0.3641
C4 C -0.1100(3) -0.13874(15) 0.37564(14)
H3 H -0.0931 -0.1765 0.4077
C5 C -0.2641(3) -0.11758(13) 0.35487(12)
C6 C -0.2870(3) -0.06068(16) 0.30758(14)
H4 H -0.3898 -0.0451 0.2936
C7 C -0.1568(3) -0.02722(16) 0.28127(14)
H5 H -0.1735 0.0103 0.2490
C8 C -0.3972(3) -0.15529(13) 0.38470(12)
C9 C -0.5369(3) -0.22916(13) 0.43886(12)
C10 C -0.5843(3) -0.29434(13) 0.47803(12)
C11 C -0.4709(3) -0.34486(14) 0.50375(12)
H6 H -0.3635 -0.3362 0.4981
C12 C -0.7899(3) -0.37239(15) 0.51897(13)
H7 H -0.8974 -0.3818 0.5235
C13 C -0.6755(3) -0.42313(13) 0.54453(11)
C14 C -0.5149(3) -0.40771(14) 0.53765(12)
H8 H -0.4369 -0.4402 0.5561
C15 C -0.7449(3) -0.30827(15) 0.48689(13)
H9 H -0.8221 -0.2741 0.4710
C16 C -0.7241(3) -0.49226(14) 0.58024(13)
C17 C 0.6460(3) 0.10515(16) 0.16810(13)
H10 H 0.6381 0.0604 0.1442
C18 C 0.7885(3) 0.14475(19) 0.16935(16)
H11 H 0.8748 0.1261 0.1478
C19 C 0.7998(4) 0.2115(2) 0.20281(16)
H12 H 0.8935 0.2392 0.2029
C20 C 0.6712(4) 0.23860(17) 0.23710(15)
C21 C 0.5336(3) 0.19371(15) 0.23486(13)
C22 C 0.6677(5) 0.3073(2) 0.27237(18)
H13 H 0.7575 0.3378 0.2745
C23 C 0.5389(5) 0.32953(19) 0.30262(17)
H14 H 0.5405 0.3758 0.3240
C24 C 0.3976(4) 0.28425(17) 0.30328(15)
C25 C 0.3987(3) 0.21557(16) 0.26942(13)
C26 C 0.2611(5) 0.3020(2) 0.33482(18)
H15 H 0.2537 0.3477 0.3567
C27 C 0.1372(4) 0.2530(2) 0.33401(18)
H16 H 0.0466 0.2646 0.3563
C28 C 0.1463(4) 0.18407(19) 0.29917(15)
H17 H 0.0617 0.1506 0.2989
H18 H 0.2287 0.1970 0.0962
H19 H 0.1624 0.1344 0.0867
Cu1C Cu -0.69732(3) -0.582863(17) 0.700572(15)
O3C O 0.35726(19) 0.00696(9) 0.13601(9)
O6 O -0.1401(2) -0.03653(13) 0.09828(12)
H20 H -0.0481 -0.0287 0.1264
H21 H -0.1283 -0.0098 0.0622
loop_
_geom_bond_atom_site_label_1
_geom_bond_atom_site_label_2
_geom_bond_site_symmetry_1
_geom_bond_site_symmetry_2
Cu1 O1 1_555 1_555
O1 C1 1_555 1_555
O2 Cu1 1_555 1_555
O3 C16 1_555 1_555
O4 C16 1_555 1_555
O5 Cu1 1_555 1_555
N1 C8 1_555 1_555
N2 H1 1_555 1_555
N3 N2 1_555 1_555
N4 Cu1 1_555 1_555
N5 Cu1 1_555 1_555
C1 O2 1_555 1_555
C2 C1 1_555 1_555
C3 C2 1_555 1_555
H2 C3 1_555 1_555
C4 C3 1_555 1_555
H3 C4 1_555 1_555
C5 C4 1_555 1_555
C6 C5 1_555 1_555
H4 C6 1_555 1_555
C7 C2 1_555 1_555
H5 C7 1_555 1_555
C8 N2 1_555 1_555
C9 N1 1_555 1_555
C10 C9 1_555 1_555
C11 C10 1_555 1_555
H6 C11 1_555 1_555
C12 H7 1_555 1_555
C13 C12 1_555 1_555
C14 C11 1_555 1_555
H8 C14 1_555 1_555
C15 C10 1_555 1_555
H9 C15 1_555 1_555
C16 C13 1_555 1_555
C17 N4 1_555 1_555
H10 C17 1_555 1_555
C18 C17 1_555 1_555
H11 C18 1_555 1_555
C19 C18 1_555 1_555
H12 C19 1_555 1_555
C20 C19 1_555 1_555
C21 N4 1_555 1_555
C22 C20 1_555 1_555
H13 C22 1_555 1_555
C23 C22 1_555 1_555
H14 C23 1_555 1_555
C24 C23 1_555 1_555
C25 N5 1_555 1_555
C26 C24 1_555 1_555
H15 C26 1_555 1_555
C27 C26 1_555 1_555
H16 C27 1_555 1_555
C28 N5 1_555 1_555
H17 C28 1_555 1_555
H18 O5 1_555 1_555
H19 O5 1_555 1_555
O6 H20 1_555 1_555
H21 O6 1_555 1_555
Cu1C O3 1_555 1_555
O3C Cu1 1_555 1_555
N3 C9 1_555 1_555
C5 C8 1_555 1_555
C6 C7 1_555 1_555
C12 C15 1_555 1_555
C13 C14 1_555 1_555
C20 C21 1_555 1_555
C21 C25 1_555 1_555
C24 C25 1_555 1_555
C27 C28 1_555 1_555

#END
