
#######################################################################
#
#                 Cambridge Crystallographic Data Centre
#                                CCDC 
#
#######################################################################
#
# If this CIF has been generated from an entry in the Cambridge 
# Structural Database, then it will include bibliographic, chemical, 
# crystal, experimental, refinement or atomic coordinate data resulting 
# from the CCDC's data processing and validation procedures.
#
#######################################################################

data_QIRJAE
_symmetry_cell_setting           triclinic
_symmetry_space_group_name_H-M   'P -1'
_symmetry_Int_Tables_number      2
_space_group_name_Hall           '-P 1'
loop_
_symmetry_equiv_pos_site_id
_symmetry_equiv_pos_as_xyz
1 x,y,z
2 -x,-y,-z
_cell_length_a                   8.5531(16)
_cell_length_b                   8.5859(16)
_cell_length_c                   14.526(3)
_cell_angle_alpha                74.229(3)
_cell_angle_beta                 86.484(3)
_cell_angle_gamma                65.613(3)
_cell_volume                     933.404
loop_
_atom_site_label
_atom_site_type_symbol
_atom_site_fract_x
_atom_site_fract_y
_atom_site_fract_z
Cd1 Cd 0.06013(3) 0.76064(3) 1.068547(15)
O1 O 0.2738(3) 0.6548(3) 0.96613(17)
O2 O 1.0568(3) 1.4553(3) 0.11782(17)
O3 O 0.9675(3) 1.6407(3) 0.20684(17)
O4 O 0.1355(3) 0.9450(3) 0.93288(18)
O5 O -0.1677(4) 0.8121(4) 0.96647(19)
H1 H -0.1300 0.7491 0.9333
O6 O 0.2664(3) 0.8183(4) 1.14161(18)
H2 H 0.2800 0.7895 1.1966
H3 H 0.2672 0.7851 1.0926
N1 N 0.7640(4) 0.7686(4) 0.55656(19)
N2 N 0.6651(3) 1.0578(4) 0.54508(18)
N3 N 0.8333(4) 0.8450(4) 0.48044(19)
C1 C 0.2534(4) 0.8079(5) 0.9157(2)
C2 C 0.6644(4) 0.9003(4) 0.5934(2)
C3 C 0.7485(5) 1.3230(5) 0.3938(3)
H4 H 0.6648 1.3675 0.4351
C4 C 0.8214(4) 1.1424(4) 0.4009(2)
C5 C 0.9446(5) 1.0794(5) 0.3363(2)
H5 H 0.9935 0.9590 0.3396
C6 C 0.5649(4) 0.8738(4) 0.6789(2)
C7 C 0.4785(5) 0.6840(5) 0.8054(3)
H6 H 0.4869 0.5709 0.8372
C8 C 0.3681(4) 0.8293(4) 0.8361(2)
C9 C 0.3604(5) 0.9957(5) 0.7885(3)
H7 H 0.2888 1.0937 0.8094
C10 C 0.4573(5) 1.0186(5) 0.7107(3)
H8 H 0.4505 1.1314 0.6795
C11 C 0.5762(5) 0.7066(5) 0.7276(3)
H9 H 0.6503 0.6084 0.7078
C12 C 0.7730(4) 1.0177(4) 0.4744(2)
C13 C 0.9869(4) 1.4950(5) 0.1904(2)
C14 C 0.8005(5) 1.4380(5) 0.3248(3)
H10 H 0.7516 1.5587 0.3208
C15 C 0.9242(4) 1.3741(5) 0.2623(2)
C16 C 0.9936(4) 1.1941(5) 0.2684(2)
H11 H 1.0747 1.1505 0.2258
H12 H -0.201(7) 0.914(8) 0.934(4)
H13 H 0.931(9) 0.764(11) 0.444(5)
Cd1_2 Cd 1.06013(3) 1.76064(3) 0.068547(15)
Cd1A Cd -0.06013(3) 1.23936(3) 0.931453(15)
O2_2 O 0.0568(3) 0.4553(3) 1.11782(17)
O3_2 O -0.0325(3) 0.6407(3) 1.20684(17)
O4A O -0.1355(3) 1.0550(3) 1.06712(18)
O7 O 0.5917(4) 0.6933(4) 0.0654(2)
H14 H 0.6628 0.6209 0.1071
H15 H 0.5112 0.6752 0.0883
O8 O 0.3403(4) 0.7089(4) 0.3377(2)
H16 H 0.349(7) 0.776(8) 0.371(4)
H17 H 0.250(6) 0.695(6) 0.353(3)
O9 O 0.0693(4) 0.6072(4) 0.3880(2)
H18 H 0.0294 0.6349 0.3318
H19 H 0.127(9) 0.501(11) 0.412(5)
loop_
_geom_bond_atom_site_label_1
_geom_bond_atom_site_label_2
_geom_bond_site_symmetry_1
_geom_bond_site_symmetry_2
Cd1 O1 1_555 1_555
O1 C1 1_555 1_555
O2 C13 1_555 1_555
O3 C13 1_555 1_555
O4 Cd1 1_555 1_555
O5 Cd1 1_555 1_555
H1 O5 1_555 1_555
O6 Cd1 1_555 1_555
H2 O6 1_555 1_555
H3 O6 1_555 1_555
N1 N3 1_555 1_555
N2 C2 1_555 1_555
N3 C12 1_555 1_555
C1 O4 1_555 1_555
C2 N1 1_555 1_555
C3 H4 1_555 1_555
C4 C3 1_555 1_555
C5 C4 1_555 1_555
H5 C5 1_555 1_555
C6 C2 1_555 1_555
C7 H6 1_555 1_555
C8 C1 1_555 1_555
C9 C8 1_555 1_555
H7 C9 1_555 1_555
C10 C6 1_555 1_555
H8 C10 1_555 1_555
C11 C6 1_555 1_555
H9 C11 1_555 1_555
C12 N2 1_555 1_555
C13 C15 1_555 1_555
C14 C3 1_555 1_555
H10 C14 1_555 1_555
C15 C14 1_555 1_555
C16 C5 1_555 1_555
H11 C16 1_555 1_555
H12 O5 1_555 1_555
H13 N3 1_555 1_555
O7 H14 1_555 1_555
H15 O7 1_555 1_555
O8 H16 1_555 1_555
H17 O8 1_555 1_555
O9 H18 1_555 1_555
H19 O9 1_555 1_555
Cd1_2 O2 1_555 1_555
Cd1A O4 1_555 1_555
O2_2 Cd1 1_555 1_555
O3_2 Cd1 1_555 1_555
O4A Cd1 1_555 1_555
O3 Cd1_2 1_555 1_555
C4 C12 1_555 1_555
C7 C8 1_555 1_555
C7 C11 1_555 1_555
C9 C10 1_555 1_555
C15 C16 1_555 1_555
Cd1A O4A 1_555 1_555

#END
