
#######################################################################
#
#                 Cambridge Crystallographic Data Centre
#                                CCDC 
#
#######################################################################
#
# If this CIF has been generated from an entry in the Cambridge 
# Structural Database, then it will include bibliographic, chemical, 
# crystal, experimental, refinement or atomic coordinate data resulting 
# from the CCDC's data processing and validation procedures.
#
#######################################################################

data_QIRYEX
_symmetry_cell_setting           monoclinic
_symmetry_space_group_name_H-M   'P 21/c'
_symmetry_Int_Tables_number      14
_space_group_name_Hall           '-P 2ybc'
loop_
_symmetry_equiv_pos_site_id
_symmetry_equiv_pos_as_xyz
1 x,y,z
2 -x,1/2+y,1/2-z
3 -x,-y,-z
4 x,1/2-y,1/2+z
_cell_length_a                   10.4384(9)
_cell_length_b                   9.6095(8)
_cell_length_c                   20.1953(17)
_cell_angle_alpha                90
_cell_angle_beta                 99.881(2)
_cell_angle_gamma                90
_cell_volume                     1995.7
loop_
_atom_site_label
_atom_site_type_symbol
_atom_site_fract_x
_atom_site_fract_y
_atom_site_fract_z
Zn1 Zn 0.14908(3) 0.07199(3) 0.408769(16)
N1 N 0.2434(2) -0.1114(2) 0.42619(12)
N2 N 0.5924(2) 0.4366(3) 0.21705(13)
H1 H 0.6184 0.5032 0.1841
O1 O 0.1450(2) 0.2192(3) 0.33960(12)
O2 O 0.3479(2) 0.1672(2) 0.37439(11)
O3 O 0.02210(19) 0.4921(2) 0.13040(11)
O4 O 0.1698(2) 0.6348(2) 0.10053(11)
H2 H 0.0957 0.6635 0.0650
O5 O 0.8286(2) 0.8398(2) 0.50421(11)
O6 O 1.0234(2) 0.7426(2) 0.51064(12)
C1 C 0.4663(3) 0.4232(3) 0.22679(14)
C2 C 0.4289(3) 0.3444(3) 0.27845(14)
H3 H 0.4923 0.3027 0.3102
C3 C 0.2990(3) 0.3275(3) 0.28310(14)
C4 C 0.2028(3) 0.3907(3) 0.23714(15)
H4 H 0.1156 0.3785 0.2401
C5 C 0.2385(3) 0.4724(3) 0.18652(14)
C6 C 0.3674(3) 0.4891(3) 0.18157(14)
H5 H 0.3895 0.5450 0.1477
C7 C 0.2637(3) 0.2332(3) 0.33653(15)
C8 C 0.1346(3) 0.5364(3) 0.13564(15)
C9 C 0.7047(3) 0.3877(3) 0.26334(16)
H6 H 0.7748 0.3718 0.2383
H7 H 0.6833 0.2988 0.2814
C10 C 0.7539(3) 0.4840(3) 0.32156(14)
C11 C 0.6753(3) 0.5852(3) 0.34378(15)
H8 H 0.5893 0.5947 0.3228
C12 C 0.7246(3) 0.6714(3) 0.39676(15)
H9 H 0.6713 0.7387 0.4110
C13 C 0.8519(3) 0.6588(3) 0.42893(14)
C14 C 0.9300(3) 0.5568(3) 0.40766(16)
H10 H 1.0156 0.5465 0.4292
C15 C 0.8806(3) 0.4707(3) 0.35464(16)
H11 H 0.9337 0.4025 0.3409
C16 C 0.9055(3) 0.7532(3) 0.48520(15)
C17 C 0.2055(3) -0.2287(3) 0.39398(15)
H12 H 0.1304 -0.2271 0.3616
C18 C 0.2715(3) -0.3520(3) 0.40604(17)
H13 H 0.2434 -0.4302 0.3805
C19 C 0.3789(3) -0.3603(3) 0.45579(15)
C20 C 0.4181(3) -0.2388(3) 0.48955(18)
H14 H 0.4913 -0.2385 0.5231
C21 C 0.3488(3) -0.1178(3) 0.47360(18)
H15 H 0.3770 -0.0370 0.4970
C22 C 0.4470(3) -0.4987(3) 0.47025(17)
H16 H 0.3827 -0.5679 0.4767
H17 H 0.4832 -0.5259 0.4310
N1B N 0.7566(2) -0.8886(2) 0.57381(12)
C17B C 0.7945(3) -0.7713(3) 0.60602(15)
H12B H 0.8696 -0.7729 0.6384
C18B C 0.7285(3) -0.6480(3) 0.59396(17)
H13B H 0.7566 -0.5698 0.6195
C19B C 0.6211(3) -0.6397(3) 0.54421(15)
C20B C 0.5819(3) -0.7612(3) 0.51045(18)
H14B H 0.5087 -0.7615 0.4769
C21B C 0.6512(3) -0.8822(3) 0.52640(18)
H15B H 0.6230 -0.9630 0.5030
C22B C 0.5530(3) -0.5013(3) 0.52975(17)
H16B H 0.6173 -0.4321 0.5233
H17B H 0.5168 -0.4741 0.5690
Zn1B Zn 0.85092(3) -1.07199(3) 0.591231(16)
N2B N 0.4076(2) -1.4366(3) 0.78295(13)
H1B H 0.3816 -1.5032 0.8159
O1B O 0.8550(2) -1.2192(3) 0.66040(12)
O2B O 0.6521(2) -1.1672(2) 0.62561(11)
O3B O 0.97790(19) -1.4921(2) 0.86960(11)
O4B O 0.8302(2) -1.6348(2) 0.89947(11)
H2B H 0.9043 -1.6635 0.9350
O5B O 0.1714(2) -1.8398(2) 0.49579(11)
O6B O -0.0234(2) -1.7426(2) 0.48936(12)
C1B C 0.5337(3) -1.4232(3) 0.77321(14)
C2B C 0.5711(3) -1.3444(3) 0.72155(14)
H3B H 0.5077 -1.3027 0.6898
C3B C 0.7010(3) -1.3275(3) 0.71690(14)
C4B C 0.7972(3) -1.3907(3) 0.76286(15)
H4B H 0.8844 -1.3785 0.7599
C5B C 0.7615(3) -1.4724(3) 0.81348(14)
C6B C 0.6326(3) -1.4891(3) 0.81843(14)
H5B H 0.6105 -1.5450 0.8523
C7B C 0.7363(3) -1.2332(3) 0.66347(15)
C8B C 0.8654(3) -1.5364(3) 0.86436(15)
C9B C 0.2953(3) -1.3877(3) 0.73666(16)
H6B H 0.2252 -1.3718 0.7617
H7B H 0.3167 -1.2988 0.7186
C10B C 0.2461(3) -1.4840(3) 0.67844(14)
C11B C 0.3247(3) -1.5852(3) 0.65622(15)
H8B H 0.4107 -1.5947 0.6772
C12B C 0.2754(3) -1.6714(3) 0.60324(15)
H9B H 0.3287 -1.7387 0.5890
C13B C 0.1481(3) -1.6588(3) 0.57107(14)
C14B C 0.0700(3) -1.5568(3) 0.59234(16)
H10B H -0.0156 -1.5465 0.5708
C15B C 0.1194(3) -1.4707(3) 0.64536(16)
H11B H 0.0663 -1.4025 0.6591
C16B C 0.0945(3) -1.7532(3) 0.51480(15)
Zn1_2 Zn 0.14908(3) -1.92801(3) 0.408769(16)
Zn1A Zn -0.14908(3) 0.57199(3) 0.091231(16)
Zn1B_2 Zn 0.85092(3) 0.92801(3) 0.591231(16)
Zn1C Zn 1.14908(3) -1.57199(3) 0.908769(16)
O3A O -0.02210(19) -0.0079(2) 0.36960(11)
O3C O 1.02210(19) -0.9921(2) 0.63040(11)
O5_2 O 0.8286(2) -1.1602(2) 0.50421(11)
O5B_2 O 0.1714(2) 0.1602(2) 0.49579(11)
loop_
_geom_bond_atom_site_label_1
_geom_bond_atom_site_label_2
_geom_bond_site_symmetry_1
_geom_bond_site_symmetry_2
Zn1 N1 1_555 1_555
N1 C17 1_555 1_555
N2 H1 1_555 1_555
O1 Zn1 1_555 1_555
O2 Zn1 1_555 1_555
O3 C8 1_555 1_555
O4 H2 1_555 1_555
O5 C16 1_555 1_555
O6 C16 1_555 1_555
C1 N2 1_555 1_555
C2 C1 1_555 1_555
H3 C2 1_555 1_555
C3 C2 1_555 1_555
C4 C3 1_555 1_555
H4 C4 1_555 1_555
C5 C4 1_555 1_555
C6 C1 1_555 1_555
H5 C6 1_555 1_555
C7 O1 1_555 1_555
C8 O4 1_555 1_555
C9 N2 1_555 1_555
H6 C9 1_555 1_555
H7 C9 1_555 1_555
C10 C9 1_555 1_555
C11 C10 1_555 1_555
H8 C11 1_555 1_555
C12 C11 1_555 1_555
H9 C12 1_555 1_555
C13 C12 1_555 1_555
C14 C13 1_555 1_555
H10 C14 1_555 1_555
C15 C10 1_555 1_555
H11 C15 1_555 1_555
C16 C13 1_555 1_555
C17 H12 1_555 1_555
C18 C17 1_555 1_555
H13 C18 1_555 1_555
C19 C18 1_555 1_555
C20 C19 1_555 1_555
H14 C20 1_555 1_555
C21 N1 1_555 1_555
H15 C21 1_555 1_555
C22 C19 1_555 1_555
H16 C22 1_555 1_555
H17 C22 1_555 1_555
N1B C17B 1_555 1_555
C17B H12B 1_555 1_555
C18B C17B 1_555 1_555
H13B C18B 1_555 1_555
C19B C18B 1_555 1_555
C20B C19B 1_555 1_555
H14B C20B 1_555 1_555
C21B N1B 1_555 1_555
H15B C21B 1_555 1_555
C22B C22 1_555 1_555
H16B C22B 1_555 1_555
H17B C22B 1_555 1_555
Zn1B N1B 1_555 1_555
N2B H1B 1_555 1_555
O1B Zn1B 1_555 1_555
O2B Zn1B 1_555 1_555
O3B C8B 1_555 1_555
O4B H2B 1_555 1_555
O5B C16B 1_555 1_555
O6B C16B 1_555 1_555
C1B N2B 1_555 1_555
C2B C1B 1_555 1_555
H3B C2B 1_555 1_555
C3B C2B 1_555 1_555
C4B C3B 1_555 1_555
H4B C4B 1_555 1_555
C5B C4B 1_555 1_555
C6B C1B 1_555 1_555
H5B C6B 1_555 1_555
C7B O1B 1_555 1_555
C8B O4B 1_555 1_555
C9B N2B 1_555 1_555
H6B C9B 1_555 1_555
H7B C9B 1_555 1_555
C10B C9B 1_555 1_555
C11B C10B 1_555 1_555
H8B C11B 1_555 1_555
C12B C11B 1_555 1_555
H9B C12B 1_555 1_555
C13B C12B 1_555 1_555
C14B C13B 1_555 1_555
H10B C14B 1_555 1_555
C15B C10B 1_555 1_555
H11B C15B 1_555 1_555
C16B C13B 1_555 1_555
Zn1_2 O5B 1_555 1_555
Zn1A O3 1_555 1_555
Zn1B_2 O5 1_555 1_555
Zn1C O3B 1_555 1_555
O3A Zn1 1_555 1_555
O3C Zn1B 1_555 1_555
O5_2 Zn1B 1_555 1_555
O5B_2 Zn1 1_555 1_555
O2 C7 1_555 1_555
C3 C7 1_555 1_555
C5 C6 1_555 1_555
C5 C8 1_555 1_555
C14 C15 1_555 1_555
C20 C21 1_555 1_555
C19B C22B 1_555 1_555
C20B C21B 1_555 1_555
O2B C7B 1_555 1_555
C3B C7B 1_555 1_555
C5B C6B 1_555 1_555
C5B C8B 1_555 1_555
C14B C15B 1_555 1_555

#END
