
#######################################################################
#
#                 Cambridge Crystallographic Data Centre
#                                CCDC 
#
#######################################################################
#
# If this CIF has been generated from an entry in the Cambridge 
# Structural Database, then it will include bibliographic, chemical, 
# crystal, experimental, refinement or atomic coordinate data resulting 
# from the CCDC's data processing and validation procedures.
#
#######################################################################

data_QISFOO
_symmetry_cell_setting           triclinic
_symmetry_space_group_name_H-M   'P -1'
_symmetry_Int_Tables_number      2
_space_group_name_Hall           '-P 1'
loop_
_symmetry_equiv_pos_site_id
_symmetry_equiv_pos_as_xyz
1 x,y,z
2 -x,-y,-z
_cell_length_a                   11.323(3)
_cell_length_b                   13.128(3)
_cell_length_c                   14.870(4)
_cell_angle_alpha                73.928(6)
_cell_angle_beta                 72.712(5)
_cell_angle_gamma                86.275(7)
_cell_volume                     2027.69
loop_
_atom_site_label
_atom_site_type_symbol
_atom_site_fract_x
_atom_site_fract_y
_atom_site_fract_z
Ag1 Ag 0.00483(10) 0.27515(7) 0.29530(7)
Ag2 Ag -0.27754(9) 0.39932(7) 0.25018(7)
Ag3 Ag -0.29673(9) 0.58893(7) 0.69088(7)
O1 O 0.2531(7) 0.3719(6) 0.0018(5)
O2 O -0.1842(7) 0.7315(6) 0.1833(5)
O3 O 0.1889(7) 0.8521(6) -0.1029(5)
O4 O -0.2331(7) 0.3463(6) 0.5568(5)
O5 O -0.1729(7) 0.8392(6) 0.4198(5)
O6 O 0.1872(7) 0.7326(5) 0.1901(5)
O10 O -0.3943(9) 0.2901(8) 0.4128(6)
O11 O -0.5173(9) 0.4187(8) 0.4083(8)
O12 O -0.5528(8) 0.2799(7) 0.5321(6)
O13 O -0.3964(10) 0.7005(9) 0.8003(8)
O14 O -0.5640(8) 0.7012(8) 0.9110(7)
O15 O -0.5278(9) 0.5791(8) 0.8343(9)
N1 N 0.1319(8) 0.3022(7) 0.1519(6)
N2 N -0.2483(8) 0.5654(7) 0.2364(6)
N3 N 0.2409(8) 0.7451(7) -0.2023(7)
N4 N -0.1126(8) 0.2898(7) 0.4337(6)
N5 N -0.2455(9) 0.7276(7) 0.5685(7)
N6 N 0.2672(8) 0.5708(6) 0.2325(6)
N8 N -0.4876(11) 0.3307(9) 0.4496(9)
N9 N -0.4960(10) 0.6614(11) 0.8504(9)
C1 C 0.1618(11) 0.3834(10) 0.0798(8)
C2 C 0.2941(10) 0.2631(9) 0.0243(8)
H1 H 0.3790 0.2598 0.0267
H2 H 0.2872 0.2279 -0.0233
C3 C 0.2050(11) 0.2147(9) 0.1244(9)
H3 H 0.1524 0.1610 0.1214
H4 H 0.2498 0.1825 0.1713
C4 C -0.1677(11) 0.6307(9) 0.1850(8)
C5 C -0.3032(11) 0.7359(9) 0.2515(8)
H5 H -0.3582 0.7813 0.2195
H6 H -0.2960 0.7620 0.3046
C6 C -0.3503(10) 0.6207(9) 0.2889(9)
H7 H -0.3650 0.5944 0.3591
H8 H -0.4258 0.6133 0.2731
C7 C 0.1881(10) 0.7564(8) -0.1172(8)
C8 C 0.2559(11) 0.9203(9) -0.1984(8)
H9 H 0.3256 0.9559 -0.1940
H10 H 0.2019 0.9732 -0.2243
C9 C 0.2990(12) 0.8453(8) -0.2614(8)
H11 H 0.2739 0.8692 -0.3206
H12 H 0.3884 0.8399 -0.2792
C10 C 0.1125(10) 0.4907(8) 0.0655(8)
C11 C 0.0027(10) 0.5117(8) 0.1292(7)
H13 H -0.0391 0.4572 0.1820
C12 C -0.0462(10) 0.6127(8) 0.1158(7)
C13 C 0.0176(10) 0.6932(9) 0.0353(7)
H14 H -0.0123 0.7618 0.0260
C14 C 0.1201(11) 0.6727(8) -0.0278(8)
C15 C 0.1739(10) 0.5721(8) -0.0144(7)
H15 H 0.2484 0.5602 -0.0576
C16 C -0.1473(10) 0.3659(8) 0.4701(7)
C17 C -0.1803(11) 0.1935(8) 0.5035(8)
H16 H -0.1238 0.1418 0.5273
H17 H -0.2273 0.1614 0.4732
C18 C -0.2652(11) 0.2334(8) 0.5855(8)
H18 H -0.3513 0.2229 0.5908
H19 H -0.2503 0.1977 0.6475
C19 C -0.1845(10) 0.7409(9) 0.4788(8)
C20 C -0.2942(11) 0.8338(8) 0.5778(8)
H20 H -0.2722 0.8528 0.6294
H21 H -0.3834 0.8351 0.5913
C21 C -0.2311(12) 0.9083(9) 0.4780(9)
H22 H -0.2912 0.9519 0.4507
H23 H -0.1706 0.9540 0.4828
C22 C 0.1791(10) 0.6279(9) 0.2478(7)
C23 C 0.3122(10) 0.7413(8) 0.1248(8)
H24 H 0.3616 0.7909 0.1369
H25 H 0.3118 0.7650 0.0570
C24 C 0.3625(10) 0.6308(9) 0.1475(8)
H26 H 0.3757 0.6008 0.0927
H27 H 0.4401 0.6313 0.1625
C25 C -0.0999(10) 0.4773(8) 0.4305(8)
C26 C -0.1640(10) 0.5553(8) 0.4667(7)
H28 H -0.2393 0.5386 0.5150
C27 C -0.1207(9) 0.6582(8) 0.4339(7)
C28 C -0.0123(9) 0.6836(8) 0.3581(7)
H29 H 0.0148 0.7539 0.3319
C29 C 0.0566(9) 0.6055(8) 0.3206(8)
C30 C 0.0122(9) 0.5027(8) 0.3572(7)
H30 H 0.0575 0.4495 0.3328
Ag2A Ag 0.27754(9) 0.60068(7) -0.25018(7)
Ag3A Ag 0.29673(9) 0.41107(7) 0.30912(7)
N3A N -0.2409(8) 0.2549(7) 0.2023(7)
N6A N -0.2672(8) 0.4292(6) 0.7675(6)
O7 O -0.0361(10) 0.0789(8) 0.2841(9)
O8 O 0.0997(12) -0.0467(8) 0.2913(9)
O9 O 0.0885(13) 0.0731(10) 0.3647(9)
N7 N 0.0492(13) 0.0315(11) 0.3130(10)
O16 O 0.4801(8) 0.9450(7) -0.5649(7)
O17 O -0.3731(10) 0.0130(7) 0.7133(8)
O18 O 0.4897(11) 0.0858(10) 0.1052(10)
O19 O 0.3415(18) 0.0360(10) -0.0176(13)
O20 O 0.0785(15) -0.0103(16) 0.0668(17)
loop_
_geom_bond_atom_site_label_1
_geom_bond_atom_site_label_2
_geom_bond_site_symmetry_1
_geom_bond_site_symmetry_2
Ag1 N1 1_555 1_555
Ag2 O10 1_555 1_555
Ag3 O13 1_555 1_555
O1 C1 1_555 1_555
O2 C4 1_555 1_555
O3 C7 1_555 1_555
O4 C16 1_555 1_555
O5 C19 1_555 1_555
O6 C22 1_555 1_555
O7 N7 1_555 1_555
O8 N7 1_555 1_555
O9 N7 1_555 1_555
O10 N8 1_555 1_555
O11 N8 1_555 1_555
O12 N8 1_555 1_555
O13 N9 1_555 1_555
O14 N9 1_555 1_555
O15 N9 1_555 1_555
N1 C1 1_555 1_555
N2 Ag2 1_555 1_555
N3 C7 1_555 1_555
N4 Ag1 1_555 1_555
N5 Ag3 1_555 1_555
N6 C22 1_555 1_555
C1 C10 1_555 1_555
C2 O1 1_555 1_555
H1 C2 1_555 1_555
H2 C2 1_555 1_555
C3 N1 1_555 1_555
H3 C3 1_555 1_555
H4 C3 1_555 1_555
C4 N2 1_555 1_555
C5 O2 1_555 1_555
H5 C5 1_555 1_555
H6 C5 1_555 1_555
C6 N2 1_555 1_555
H7 C6 1_555 1_555
H8 C6 1_555 1_555
C7 C14 1_555 1_555
C8 O3 1_555 1_555
H9 C8 1_555 1_555
H10 C8 1_555 1_555
C9 N3 1_555 1_555
H11 C9 1_555 1_555
H12 C9 1_555 1_555
C10 C11 1_555 1_555
C11 H13 1_555 1_555
C12 C4 1_555 1_555
C13 C12 1_555 1_555
H14 C13 1_555 1_555
C14 C13 1_555 1_555
C15 C10 1_555 1_555
H15 C15 1_555 1_555
C16 N4 1_555 1_555
C17 N4 1_555 1_555
H16 C17 1_555 1_555
H17 C17 1_555 1_555
C18 O4 1_555 1_555
H18 C18 1_555 1_555
H19 C18 1_555 1_555
C19 N5 1_555 1_555
C20 N5 1_555 1_555
H20 C20 1_555 1_555
H21 C20 1_555 1_555
C21 O5 1_555 1_555
H22 C21 1_555 1_555
H23 C21 1_555 1_555
C22 C29 1_555 1_555
C23 O6 1_555 1_555
H24 C23 1_555 1_555
H25 C23 1_555 1_555
C24 N6 1_555 1_555
H26 C24 1_555 1_555
H27 C24 1_555 1_555
C25 C16 1_555 1_555
C26 C25 1_555 1_555
H28 C26 1_555 1_555
C27 C19 1_555 1_555
C28 C27 1_555 1_555
H29 C28 1_555 1_555
C29 C28 1_555 1_555
C30 C25 1_555 1_555
H30 C30 1_555 1_555
Ag2A N3 1_555 1_555
Ag3A N6 1_555 1_555
N3A Ag2 1_555 1_555
N6A Ag3 1_555 1_555
C2 C3 1_555 1_555
C5 C6 1_555 1_555
C8 C9 1_555 1_555
C11 C12 1_555 1_555
C14 C15 1_555 1_555
C17 C18 1_555 1_555
C20 C21 1_555 1_555
C23 C24 1_555 1_555
C26 C27 1_555 1_555
C29 C30 1_555 1_555

#END
