
#######################################################################
#
#                 Cambridge Crystallographic Data Centre
#                                CCDC 
#
#######################################################################
#
# If this CIF has been generated from an entry in the Cambridge 
# Structural Database, then it will include bibliographic, chemical, 
# crystal, experimental, refinement or atomic coordinate data resulting 
# from the CCDC's data processing and validation procedures.
#
#######################################################################

data_QISFEF
_symmetry_cell_setting           monoclinic
_symmetry_space_group_name_H-M   'C 2/c'
_symmetry_Int_Tables_number      15
_space_group_name_Hall           '-C 2yn'
loop_
_symmetry_equiv_pos_site_id
_symmetry_equiv_pos_as_xyz
1 x,y,z
2 -x,y,1/2-z
3 1/2+x,1/2+y,z
4 1/2-x,1/2+y,1/2-z
5 -x,-y,-z
6 x,-y,1/2+z
7 1/2-x,1/2-y,-z
8 1/2+x,1/2-y,1/2+z
_cell_length_a                   10.9033(8)
_cell_length_b                   18.5404(14)
_cell_length_c                   22.3810(17)
_cell_angle_alpha                90
_cell_angle_beta                 90.6060(10)
_cell_angle_gamma                90
_cell_volume                     4524.1
loop_
_atom_site_label
_atom_site_type_symbol
_atom_site_fract_x
_atom_site_fract_y
_atom_site_fract_z
Zn1 Zn 0.718819(18) 0.116647(11) 0.664151(10)
Ca1 Ca 1.0000 0.05219(2) 0.7500
O1 O 0.83405(13) 0.11852(8) 0.59743(7)
O2 O 0.98144(14) 0.06188(9) 0.64751(6)
O3 O 1.37095(17) 0.00409(13) 0.54715(9)
H1 H 1.4432 -0.0072 0.5436
O4 O 1.39409(18) 0.03064(14) 0.45207(9)
O5 O 0.67399(14) 0.02484(7) 0.69657(8)
O6 O 0.83558(14) -0.02801(7) 0.74101(7)
O7 O 0.78346(14) -0.29339(7) 0.78812(7)
O8 O 0.64077(15) -0.35468(8) 0.74071(9)
N1 N 0.56232(15) 0.14325(9) 0.61574(8)
C1 C 0.93889(17) 0.08852(10) 0.60127(9)
C2 C 1.01390(17) 0.08603(10) 0.54497(9)
C3 C 0.96602(19) 0.11001(11) 0.49044(9)
H2 H 0.8868 0.1286 0.4890
C4 C 1.0339(2) 0.10682(11) 0.43805(10)
C5 C 1.15262(19) 0.07962(11) 0.44175(10)
H3 H 1.2001 0.0778 0.4075
C6 C 1.20189(18) 0.05511(11) 0.49576(9)
C7 C 1.13223(18) 0.05779(10) 0.54729(9)
H4 H 1.1645 0.0408 0.5832
C8 C 0.9797(3) 0.13079(15) 0.37868(11)
H5 H 1.0445 0.1449 0.3525
H6 H 0.9257 0.1709 0.3849
H7 H 0.9344 0.0917 0.3610
C9 C 1.3299(2) 0.02718(12) 0.49764(10)
C10 C 0.73350(18) -0.02963(10) 0.71593(9)
C11 C 0.67083(17) -0.10131(10) 0.70515(9)
C12 C 0.71963(17) -0.16481(10) 0.72874(9)
H8 H 0.7910 -0.1637 0.7518
C13 C 0.66022(17) -0.22992(10) 0.71733(9)
C14 C 0.55640(19) -0.23171(11) 0.68030(9)
H9 H 0.5203 -0.2758 0.6712
C15 C 0.50611(19) -0.16891(11) 0.65686(9)
C16 C 0.56373(19) -0.10383(11) 0.67078(9)
H10 H 0.5297 -0.0610 0.6567
C17 C 0.3885(2) -0.17040(14) 0.62019(11)
H11 H 0.3746 -0.2183 0.6053
H12 H 0.3952 -0.1376 0.5872
H13 H 0.3210 -0.1562 0.6448
C18 C 0.69757(18) -0.29744(10) 0.74988(9)
C19 C 0.4516(2) 0.14357(14) 0.64057(10)
H14 H 0.4425 0.1230 0.6782
C20 C 0.3498(2) 0.17315(14) 0.61267(11)
H15 H 0.2743 0.1723 0.6316
C21 C 0.35945(19) 0.20403(11) 0.55673(10)
C22 C 0.4744(2) 0.20160(14) 0.53027(11)
H16 H 0.4855 0.2204 0.4922
C23 C 0.5714(2) 0.17116(13) 0.56082(10)
H17 H 0.6474 0.1699 0.5423
C24 C 0.2520(2) 0.23706(12) 0.52729(11)
H18 H 0.1804 0.2399 0.5494
N1F N -0.06232(15) 0.35675(9) 0.38426(8)
C19F C 0.0484(2) 0.35643(14) 0.35943(10)
H14F H 0.0575 0.3770 0.3218
C20F C 0.1502(2) 0.32685(14) 0.38733(11)
H15F H 0.2257 0.3277 0.3684
C21F C 0.14055(19) 0.29597(11) 0.44327(10)
C22F C 0.0256(2) 0.29840(14) 0.46973(11)
H16F H 0.0145 0.2796 0.5078
C23F C -0.0714(2) 0.32884(13) 0.43918(10)
H17F H -0.1474 0.3301 0.4577
C24F C 0.2480(2) 0.26294(12) 0.47271(11)
H18F H 0.3196 0.2601 0.4506
Zn1A Zn 1.281181(18) 0.116647(11) 0.835849(10)
O1A O 1.16595(13) 0.11852(8) 0.90257(7)
O2A O 1.01856(14) 0.06188(9) 0.85249(6)
O3A O 0.62905(17) 0.00409(13) 0.95285(9)
H1A H 0.5568 -0.0072 0.9564
O4A O 0.60591(18) 0.03064(14) 1.04793(9)
O5A O 1.32601(14) 0.02484(7) 0.80343(8)
O6A O 1.16442(14) -0.02801(7) 0.75899(7)
O7A O 1.21654(14) -0.29339(7) 0.71188(7)
O8A O 1.35923(15) -0.35468(8) 0.75929(9)
C1A C 1.06111(17) 0.08852(10) 0.89873(9)
C2A C 0.98610(17) 0.08603(10) 0.95503(9)
C3A C 1.03398(19) 0.11001(11) 1.00956(9)
H2A H 1.1132 0.1286 1.0110
C4A C 0.9661(2) 0.10682(11) 1.06195(10)
C5A C 0.84738(19) 0.07962(11) 1.05825(10)
H3A H 0.7999 0.0778 1.0925
C6A C 0.79811(18) 0.05511(11) 1.00424(9)
C7A C 0.86777(18) 0.05779(10) 0.95271(9)
H4A H 0.8355 0.0408 0.9168
C8A C 1.0203(3) 0.13079(15) 1.12132(11)
H5A H 0.9555 0.1449 1.1475
H6A H 1.0743 0.1709 1.1151
H7A H 1.0656 0.0917 1.1390
C9A C 0.6701(2) 0.02718(12) 1.00236(10)
C10A C 1.26650(18) -0.02963(10) 0.78407(9)
C11A C 1.32917(17) -0.10131(10) 0.79485(9)
C12A C 1.28037(17) -0.16481(10) 0.77126(9)
H8A H 1.2090 -0.1637 0.7482
C13A C 1.33978(17) -0.22992(10) 0.78267(9)
C14A C 1.44360(19) -0.23171(11) 0.81970(9)
H9A H 1.4797 -0.2758 0.8288
C15A C 1.49389(19) -0.16891(11) 0.84314(9)
C16A C 1.43627(19) -0.10383(11) 0.82922(9)
H10A H 1.4703 -0.0610 0.8433
C17A C 1.6115(2) -0.17040(14) 0.87981(11)
H11A H 1.6254 -0.2183 0.8947
H12A H 1.6048 -0.1376 0.9128
H13A H 1.6790 -0.1562 0.8552
C18A C 1.30243(18) -0.29744(10) 0.75012(9)
Zn1B Zn 1.218819(18) -0.383353(11) 0.664151(10)
Zn1C Zn 0.781181(18) -0.383353(11) 0.835849(10)
Zn1F Zn -0.218819(18) 0.383353(11) 0.335849(10)
Ca1B Ca 0.5000 -0.44781(2) 0.7500
Ca1B_2 Ca 1.5000 -0.44781(2) 0.7500
O7B O 1.28346(14) 0.20661(7) 0.78812(7)
O7C O 0.71654(14) 0.20661(7) 0.71188(7)
O8B O 1.14077(15) 0.14532(8) 0.74071(9)
O8C O 0.85923(15) 0.14532(8) 0.75929(9)
N1A N 1.43768(15) 0.14325(9) 0.88426(8)
loop_
_geom_bond_atom_site_label_1
_geom_bond_atom_site_label_2
_geom_bond_site_symmetry_1
_geom_bond_site_symmetry_2
Zn1 O1 1_555 1_555
Ca1 O2 1_555 1_555
O1 C1 1_555 1_555
O2 C1 1_555 1_555
O3 H1 1_555 1_555
O4 C9 1_555 1_555
O5 Zn1 1_555 1_555
O6 Ca1 1_555 1_555
O7 C18 1_555 1_555
O8 C18 1_555 1_555
N1 Zn1 1_555 1_555
C1 C2 1_555 1_555
C2 C3 1_555 1_555
C3 H2 1_555 1_555
C4 C3 1_555 1_555
C5 C4 1_555 1_555
H3 C5 1_555 1_555
C6 C5 1_555 1_555
C7 C2 1_555 1_555
H4 C7 1_555 1_555
C8 C4 1_555 1_555
H5 C8 1_555 1_555
H6 C8 1_555 1_555
H7 C8 1_555 1_555
C9 O3 1_555 1_555
C10 O5 1_555 1_555
C11 C10 1_555 1_555
C12 C11 1_555 1_555
H8 C12 1_555 1_555
C13 C12 1_555 1_555
C14 C13 1_555 1_555
H9 C14 1_555 1_555
C15 C14 1_555 1_555
C16 C11 1_555 1_555
H10 C16 1_555 1_555
C17 C15 1_555 1_555
H11 C17 1_555 1_555
H12 C17 1_555 1_555
H13 C17 1_555 1_555
C18 C13 1_555 1_555
C19 N1 1_555 1_555
H14 C19 1_555 1_555
C20 C19 1_555 1_555
H15 C20 1_555 1_555
C21 C20 1_555 1_555
C22 C21 1_555 1_555
H16 C22 1_555 1_555
C23 N1 1_555 1_555
H17 C23 1_555 1_555
C24 C21 1_555 1_555
H18 C24 1_555 1_555
N1F C19F 1_555 1_555
C19F H14F 1_555 1_555
C20F C19F 1_555 1_555
H15F C20F 1_555 1_555
C21F C20F 1_555 1_555
C22F C21F 1_555 1_555
H16F C22F 1_555 1_555
C23F N1F 1_555 1_555
H17F C23F 1_555 1_555
C24F C24 1_555 1_555
H18F C24F 1_555 1_555
Zn1A O1A 1_555 1_555
O1A C1A 1_555 1_555
O2A Ca1 1_555 1_555
O3A H1A 1_555 1_555
O4A C9A 1_555 1_555
O5A Zn1A 1_555 1_555
O6A Ca1 1_555 1_555
O7A C18A 1_555 1_555
O8A C18A 1_555 1_555
C1A O2A 1_555 1_555
C2A C1A 1_555 1_555
C3A C2A 1_555 1_555
H2A C3A 1_555 1_555
C4A C3A 1_555 1_555
C5A C4A 1_555 1_555
H3A C5A 1_555 1_555
C6A C5A 1_555 1_555
C7A C2A 1_555 1_555
H4A C7A 1_555 1_555
C8A C4A 1_555 1_555
H5A C8A 1_555 1_555
H6A C8A 1_555 1_555
H7A C8A 1_555 1_555
C9A O3A 1_555 1_555
C10A O5A 1_555 1_555
C11A C10A 1_555 1_555
C12A C11A 1_555 1_555
H8A C12A 1_555 1_555
C13A C12A 1_555 1_555
C14A C13A 1_555 1_555
H9A C14A 1_555 1_555
C15A C14A 1_555 1_555
C16A C11A 1_555 1_555
H10A C16A 1_555 1_555
C17A C15A 1_555 1_555
H11A C17A 1_555 1_555
H12A C17A 1_555 1_555
H13A C17A 1_555 1_555
C18A C13A 1_555 1_555
Zn1B O7A 1_555 1_555
Zn1C O7 1_555 1_555
Zn1F N1F 1_555 1_555
Ca1B O8 1_555 1_555
Ca1B_2 O8A 1_555 1_555
O7B Zn1A 1_555 1_555
O7C Zn1 1_555 1_555
O8B Ca1 1_555 1_555
O8C Ca1 1_555 1_555
N1A Zn1A 1_555 1_555
O6 C10 1_555 1_555
C6 C7 1_555 1_555
C6 C9 1_555 1_555
C15 C16 1_555 1_555
C22 C23 1_555 1_555
C21F C24F 1_555 1_555
C22F C23F 1_555 1_555
O6A C10A 1_555 1_555
C6A C7A 1_555 1_555
C6A C9A 1_555 1_555
C15A C16A 1_555 1_555

#END
