
#######################################################################
#
#                 Cambridge Crystallographic Data Centre
#                                CCDC 
#
#######################################################################
#
# If this CIF has been generated from an entry in the Cambridge 
# Structural Database, then it will include bibliographic, chemical, 
# crystal, experimental, refinement or atomic coordinate data resulting 
# from the CCDC's data processing and validation procedures.
#
#######################################################################

data_QISFUV
_symmetry_cell_setting           monoclinic
_symmetry_space_group_name_H-M   'P 21/c'
_symmetry_Int_Tables_number      14
_space_group_name_Hall           '-P 2ybc'
loop_
_symmetry_equiv_pos_site_id
_symmetry_equiv_pos_as_xyz
1 x,y,z
2 -x,1/2+y,1/2-z
3 -x,-y,-z
4 x,1/2-y,1/2+z
_cell_length_a                   5.86670(10)
_cell_length_b                   25.3028(6)
_cell_length_c                   27.3046(7)
_cell_angle_alpha                90
_cell_angle_beta                 92.3830(10)
_cell_angle_gamma                90
_cell_volume                     4049.7
loop_
_atom_site_label
_atom_site_type_symbol
_atom_site_fract_x
_atom_site_fract_y
_atom_site_fract_z
C1 C 0.7676(15) 0.0725(4) 0.5889(3)
C2 C 0.7182(17) 0.0449(4) 0.6354(3)
C3 C 0.8876(16) 0.0161(4) 0.6600(3)
H1 H 1.0297 0.0133 0.6463
C4 C 0.5108(15) 0.0474(4) 0.6552(3)
H2 H 0.3934 0.0656 0.6386
C5 C 0.8525(17) -0.0091(4) 0.7047(3)
H3 H 0.9677 -0.0288 0.7203
C6 C 0.4699(15) 0.0235(4) 0.6997(3)
H4 H 0.3257 0.0259 0.7125
C7 C 0.6390(14) -0.0037(4) 0.7252(3)
C8 C 0.5904(16) -0.0293(4) 0.7742(3)
H5 H 0.4434 -0.0468 0.7714
H6 H 0.7050 -0.0561 0.7814
C9 C 0.5889(15) 0.0093(4) 0.8169(3)
C10 C 0.7910(15) 0.0139(4) 0.8473(3)
H7 H 0.9196 -0.0059 0.8406
C11 C 0.4060(16) 0.0393(4) 0.8268(3)
H8 H 0.2741 0.0366 0.8069
C12 C 0.7945(18) 0.0477(4) 0.8867(4)
H9 H 0.9261 0.0505 0.9068
C13 C 0.4119(16) 0.0737(4) 0.8661(3)
H10 H 0.2851 0.0945 0.8720
C14 C 0.6065(14) 0.0776(3) 0.8969(3)
C15 C 0.6131(15) 0.1149(3) 0.9393(3)
C16 C -0.3185(17) 0.0895(4) 1.0863(3)
C17 C -0.2961(14) 0.1169(4) 1.1346(3)
C18 C -0.0988(15) 0.1156(4) 1.1630(3)
H11 H 0.0271 0.0977 1.1519
C19 C -0.4831(16) 0.1443(4) 1.1510(3)
H12 H -0.6200 0.1446 1.1326
C20 C -0.0834(17) 0.1406(4) 1.2079(3)
H13 H 0.0511 0.1381 1.2271
C21 C -0.4634(17) 0.1719(4) 1.1960(3)
H14 H -0.5856 0.1920 1.2061
C22 C -0.2665(16) 0.1696(4) 1.2252(3)
C23 C -0.242(2) 0.1968(4) 1.2733(3)
H15 H -0.3607 0.2235 1.2750
H16 H -0.0962 0.2147 1.2755
C24 C -0.2584(16) 0.1598(3) 1.3170(3)
C25 C -0.0557(15) 0.1529(4) 1.3483(3)
H17 H 0.0785 0.1709 1.3423
C26 C -0.4464(17) 0.1311(5) 1.3266(3)
H18 H -0.5757 0.1345 1.3059
C27 C -0.0685(15) 0.1183(4) 1.3882(4)
H19 H 0.0598 0.1130 1.4088
C28 C -0.4523(16) 0.0974(4) 1.3657(3)
H20 H -0.5839 0.0780 1.3707
C29 C -0.2679(15) 0.0918(4) 1.3974(3)
C30 C -0.2713(15) 0.0538(3) 1.4390(3)
C31 C 0.1516(14) 0.2430(4) 0.9192(4)
C32 C 0.1354(14) 0.2178(4) 0.8710(3)
C33 C 0.3179(15) 0.2201(4) 0.8381(4)
H21 H 0.4500 0.2387 0.8470
C34 C -0.0542(15) 0.1889(4) 0.8551(3)
H22 H -0.1780 0.1867 0.8752
C35 C 0.3005(16) 0.1954(4) 0.7942(3)
H23 H 0.4231 0.1973 0.7737
C36 C -0.0655(16) 0.1631(4) 0.8100(3)
H24 H -0.1929 0.1428 0.8013
C37 C 0.1086(18) 0.1674(4) 0.7782(3)
C38 C 0.104(2) 0.1387(4) 0.7298(3)
H25 H -0.0344 0.1178 0.7264
H26 H 0.2328 0.1148 0.7292
C39 C 0.113(2) 0.1766(4) 0.6867(3)
C40 C 0.3076(19) 0.1791(4) 0.6589(4)
H27 H 0.4325 0.1575 0.6664
C41 C -0.0692(17) 0.2092(4) 0.6737(4)
H28 H -0.1992 0.2080 0.6920
C42 C 0.3118(17) 0.2140(4) 0.6200(4)
H29 H 0.4431 0.2168 0.6022
C43 C -0.0630(17) 0.2431(4) 0.6344(3)
H30 H -0.1874 0.2647 0.6265
C44 C 0.1254(15) 0.2449(4) 0.6072(3)
C45 C 0.1385(16) 0.2828(3) 0.5652(3)
O1 O 0.9715(11) 0.0775(3) 0.5764(2)
O2 O 0.5997(10) 0.0914(3) 0.5629(2)
O3 O 1.2132(13) 0.1542(3) 0.4980(3)
H31 H 1.2489 0.1725 0.5301
H32 H 1.2558 0.1794 0.4718
O4 O 0.8047(10) 0.1254(3) 0.9611(2)
O5 O 0.4291(10) 0.1380(3) 0.9518(2)
O6 O 0.7322(17) 0.3157(3) 1.0191(4)
H33 H 0.7504 0.3206 1.0558
H34 H 0.6834 0.3512 1.0071
O7 O 0.2523(14) 0.0174(3) 0.9874(3)
H35 H 0.2843 -0.0150 1.0068
H36 H 0.2476 0.0051 0.9521
O8 O -0.1341(10) 0.0690(3) 1.0688(2)
O9 O -0.5095(11) 0.0864(3) 1.0640(2)
O10 O -0.4648(11) 0.0348(3) 1.4524(2)
O11 O -0.0877(11) 0.0394(3) 1.4604(2)
O12 O 0.3344(11) 0.2635(3) 0.9350(2)
O13 O -0.0329(12) 0.2460(3) 0.9435(3)
O14 O 0.3260(12) 0.2922(3) 0.5449(2)
O15 O -0.0434(9) 0.3064(2) 0.5501(2)
Sr1 Sr 1.25563(11) 0.05521(3) 0.51609(3)
Sr2 Sr 0.64226(12) 0.22237(3) 0.98976(3)
Sr3 Sr 0.15043(11) 0.10986(3) 1.01430(3)
O2_2 O 1.5997(10) 0.0914(3) 0.5629(2)
O4_2 O -0.1953(10) 0.1254(3) 0.9611(2)
O9_2 O 0.4905(11) 0.0864(3) 1.0640(2)
O10_2 O 1.5352(11) 0.0348(3) 0.4524(2)
O10B O 1.4648(11) -0.0348(3) 0.5476(2)
O11_2 O 0.9123(11) 0.0394(3) 0.4604(2)
O11B O 1.0877(11) -0.0394(3) 0.5396(2)
O13_2 O 0.9671(12) 0.2460(3) 0.9435(3)
O14C O 0.3260(12) 0.2078(3) 1.0449(2)
O15C O -0.0434(9) 0.1936(2) 1.0501(2)
O15C_2 O 0.9566(9) 0.1936(2) 1.0501(2)
Sr1_2 Sr -0.74437(11) 0.05521(3) 1.51609(3)
Sr1_3 Sr 0.25563(11) 0.05521(3) 0.51609(3)
Sr1_4 Sr 0.25563(11) 0.05521(3) 1.51609(3)
Sr1B Sr -0.25563(11) -0.05521(3) 1.48391(3)
Sr2_2 Sr -0.35774(12) 0.22237(3) 0.98976(3)
Sr2C Sr -0.35774(12) 0.27763(3) 0.48976(3)
Sr2C_2 Sr 0.64226(12) 0.27763(3) 0.48976(3)
Sr3_2 Sr -0.84957(11) 0.10986(3) 1.01430(3)
Sr3_3 Sr 1.15043(11) 0.10986(3) 1.01430(3)
Sr3C Sr 0.15043(11) 0.39014(3) 0.51430(3)
loop_
_geom_bond_atom_site_label_1
_geom_bond_atom_site_label_2
_geom_bond_site_symmetry_1
_geom_bond_site_symmetry_2
C1 C2 1_555 1_555
C2 C3 1_555 1_555
C3 H1 1_555 1_555
C4 C2 1_555 1_555
H2 C4 1_555 1_555
C5 C3 1_555 1_555
H3 C5 1_555 1_555
C6 C4 1_555 1_555
H4 C6 1_555 1_555
C7 C5 1_555 1_555
C8 C7 1_555 1_555
H5 C8 1_555 1_555
H6 C8 1_555 1_555
C9 C8 1_555 1_555
C10 C9 1_555 1_555
H7 C10 1_555 1_555
C11 C9 1_555 1_555
H8 C11 1_555 1_555
C12 C10 1_555 1_555
H9 C12 1_555 1_555
C13 C11 1_555 1_555
H10 C13 1_555 1_555
C14 C12 1_555 1_555
C15 C14 1_555 1_555
C16 C17 1_555 1_555
C17 C18 1_555 1_555
C18 H11 1_555 1_555
C19 C17 1_555 1_555
H12 C19 1_555 1_555
C20 C18 1_555 1_555
H13 C20 1_555 1_555
C21 C19 1_555 1_555
H14 C21 1_555 1_555
C22 C20 1_555 1_555
C23 C22 1_555 1_555
H15 C23 1_555 1_555
H16 C23 1_555 1_555
C24 C23 1_555 1_555
C25 C24 1_555 1_555
H17 C25 1_555 1_555
C26 C24 1_555 1_555
H18 C26 1_555 1_555
C27 C25 1_555 1_555
H19 C27 1_555 1_555
C28 C26 1_555 1_555
H20 C28 1_555 1_555
C29 C27 1_555 1_555
C30 C29 1_555 1_555
C31 C32 1_555 1_555
C32 C33 1_555 1_555
C33 H21 1_555 1_555
C34 C32 1_555 1_555
H22 C34 1_555 1_555
C35 C33 1_555 1_555
H23 C35 1_555 1_555
C36 C34 1_555 1_555
H24 C36 1_555 1_555
C37 C35 1_555 1_555
C38 C37 1_555 1_555
H25 C38 1_555 1_555
H26 C38 1_555 1_555
C39 C38 1_555 1_555
C40 C39 1_555 1_555
H27 C40 1_555 1_555
C41 C39 1_555 1_555
H28 C41 1_555 1_555
C42 C40 1_555 1_555
H29 C42 1_555 1_555
C43 C41 1_555 1_555
H30 C43 1_555 1_555
C44 C42 1_555 1_555
C45 C44 1_555 1_555
O1 C1 1_555 1_555
O2 C1 1_555 1_555
O3 H31 1_555 1_555
H32 O3 1_555 1_555
O4 C15 1_555 1_555
O5 C15 1_555 1_555
O6 H33 1_555 1_555
H34 O6 1_555 1_555
O7 H35 1_555 1_555
H36 O7 1_555 1_555
O8 C16 1_555 1_555
O9 C16 1_555 1_555
O10 C30 1_555 1_555
O11 C30 1_555 1_555
O12 C31 1_555 1_555
O13 C31 1_555 1_555
O14 C45 1_555 1_555
O15 C45 1_555 1_555
Sr1 O1 1_555 1_555
Sr2 O4 1_555 1_555
Sr3 O5 1_555 1_555
O2_2 Sr1 1_555 1_555
O4_2 Sr3 1_555 1_555
O9_2 Sr3 1_555 1_555
O10_2 Sr1 1_555 1_555
O10B Sr1 1_555 1_555
O11_2 Sr1 1_555 1_555
O11B Sr1 1_555 1_555
O13_2 Sr2 1_555 1_555
O14C Sr2 1_555 1_555
O15C Sr3 1_555 1_555
O15C_2 Sr2 1_555 1_555
Sr1_2 O10 1_555 1_555
Sr1_3 O2 1_555 1_555
Sr1_4 O11 1_555 1_555
Sr1B O10 1_555 1_555
Sr2_2 O13 1_555 1_555
Sr2C O15 1_555 1_555
Sr2C_2 O14 1_555 1_555
Sr3_2 O9 1_555 1_555
Sr3_3 O4 1_555 1_555
Sr3C O14 1_555 1_555
C6 C7 1_555 1_555
C13 C14 1_555 1_555
C21 C22 1_555 1_555
C28 C29 1_555 1_555
C36 C37 1_555 1_555
C43 C44 1_555 1_555
O3 Sr1 1_555 1_555
O5 Sr2 1_555 1_555
O6 Sr2 1_555 1_555
O7 Sr3 1_555 1_555
O8 Sr3 1_555 1_555
O11 Sr1B 1_555 1_555
O12 Sr2 1_555 1_555
O15 Sr3C 1_555 1_555
Sr3 O14C 1_555 1_555
O4_2 Sr2_2 1_555 1_555
O15C Sr2_2 1_555 1_555
O15C_2 Sr3_3 1_555 1_555

#END
