
#######################################################################
#
#                 Cambridge Crystallographic Data Centre
#                                CCDC 
#
#######################################################################
#
# If this CIF has been generated from an entry in the Cambridge 
# Structural Database, then it will include bibliographic, chemical, 
# crystal, experimental, refinement or atomic coordinate data resulting 
# from the CCDC's data processing and validation procedures.
#
#######################################################################

data_QISFOP
_symmetry_cell_setting           orthorhombic
_symmetry_space_group_name_H-M   'P n a 21'
_symmetry_Int_Tables_number      33
_space_group_name_Hall           'P 2c -2n'
loop_
_symmetry_equiv_pos_site_id
_symmetry_equiv_pos_as_xyz
1 x,y,z
2 -x,-y,1/2+z
3 1/2+x,1/2-y,z
4 1/2-x,1/2+y,1/2+z
_cell_length_a                   12.3582(7)
_cell_length_b                   22.9400(12)
_cell_length_c                   12.8109(7)
_cell_angle_alpha                90
_cell_angle_beta                 90
_cell_angle_gamma                90
_cell_volume                     3631.85
loop_
_atom_site_label
_atom_site_type_symbol
_atom_site_fract_x
_atom_site_fract_y
_atom_site_fract_z
C1 C 0.8646(2) 0.12985(14) -0.7569(3)
C2 C 0.8887(3) 0.09056(14) -0.6644(3)
C3 C 0.8117(3) 0.05277(15) -0.6287(3)
H1 H 0.7471 0.0486 -0.6651
C4 C 0.9844(3) 0.0957(2) -0.6089(3)
H2 H 1.0384 0.1205 -0.6328
C5 C 0.8293(3) 0.02056(17) -0.5385(3)
H3 H 0.7765 -0.0055 -0.5161
C6 C 1.0002(3) 0.0643(2) -0.5184(3)
H4 H 1.0644 0.0688 -0.4814
C7 C 0.9224(3) 0.02620(16) -0.4818(3)
C8 C 0.9389(4) -0.00544(15) -0.3774(3)
H5 H 0.8923 -0.0394 -0.3750
H6 H 1.0133 -0.0187 -0.3726
C9 C 0.9139(4) 0.03360(16) -0.2852(3)
C10 C 0.8093(4) 0.0424(2) -0.2551(4)
H7 H 0.7540 0.0226 -0.2892
C11 C 0.9928(4) 0.06166(19) -0.2310(3)
H8 H 1.0649 0.0548 -0.2478
C12 C 0.9682(3) 0.10062(18) -0.1504(3)
H9 H 1.0237 0.1197 -0.1153
C13 C 0.7845(4) 0.0798(2) -0.1754(3)
H10 H 0.7125 0.0843 -0.1561
C14 C 0.8629(3) 0.11088(16) -0.1230(3)
C15 C 0.8340(3) 0.15403(16) -0.0387(3)
C16 C 1.1709(2) 0.22145(13) 0.1252(3)
C17 C 1.1763(3) 0.15760(14) 0.1250(5)
H11 H 1.1782 0.1436 0.1956
H12 H 1.2404 0.1452 0.0891
H13 H 1.1137 0.1421 0.0903
C18 C 0.9988(3) 0.33172(16) 0.2957(3)
C19 C 0.9605(3) 0.37175(15) 0.3801(3)
C20 C 0.8559(3) 0.3916(2) 0.3854(4)
H14 H 0.8065 0.3803 0.3344
C21 C 1.0326(3) 0.39241(18) 0.4545(3)
H15 H 1.1050 0.3815 0.4511
C22 C 0.9985(4) 0.42872(19) 0.5332(3)
H16 H 1.0484 0.4421 0.5820
C23 C 0.8225(3) 0.4280(2) 0.4645(4)
H17 H 0.7510 0.4407 0.4656
C24 C 0.8911(3) 0.44588(16) 0.5413(3)
C25 C 0.8547(3) 0.48494(15) 0.6312(3)
H18 H 0.8941 0.5215 0.6286
H19 H 0.7782 0.4935 0.6240
C26 C 0.8750(3) 0.45531(15) 0.7352(3)
C27 C 0.8131(3) 0.40830(17) 0.7663(3)
H20 H 0.7545 0.3968 0.7256
C28 C 0.9594(3) 0.47258(16) 0.7987(3)
H21 H 1.0003 0.5050 0.7805
C29 C 0.8364(3) 0.37795(18) 0.8568(3)
H22 H 0.7940 0.3464 0.8767
C30 C 0.9839(3) 0.44242(15) 0.8887(3)
H23 H 1.0417 0.4545 0.9298
C31 C 0.9245(3) 0.39518(15) 0.9182(3)
C32 C 0.9579(3) 0.35787(15) 1.0105(3)
Mg1 Mg 0.91928(7) 0.24225(4) 0.12551(10)
Mg2 Mg 0.66401(7) 0.16611(4) 0.12585(9)
O1 O 0.78367(18) 0.11719(9) -0.81137(19)
O2 O 0.9253(2) 0.17342(10) -0.77042(19)
O3 O 0.90803(19) 0.18323(11) 0.00311(19)
H24 H 0.9613 0.1625 0.0118
O4 O 0.73458(18) 0.15999(12) -0.01780(19)
O5 O 1.08492(16) 0.24757(9) 0.10184(17)
O6 O 1.25277(15) 0.25316(9) 0.14920(18)
O7 O 0.9295(2) 0.29979(11) 0.25421(19)
O8 O 1.09832(19) 0.33257(12) 0.27304(19)
O9 O 0.90828(19) 0.31098(11) 1.02301(19)
O10 O 1.03501(18) 0.37625(10) 1.06675(19)
Mg1_2 Mg 0.91928(7) 0.24225(4) -0.87449(10)
Mg1_3 Mg 0.91928(7) 0.24225(4) 1.12551(10)
Mg1B Mg 1.41928(7) 0.25775(4) 0.12551(10)
Mg2_2 Mg 0.66401(7) 0.16611(4) -0.87415(9)
Mg2B Mg 1.16401(7) 0.33389(4) 0.12585(9)
Mg2B_2 Mg 1.16401(7) 0.33389(4) 1.12585(9)
O1_2 O 0.78367(18) 0.11719(9) 0.18863(19)
O2_2 O 0.9253(2) 0.17342(10) 0.22958(19)
O5B O 0.58492(16) 0.25243(9) 0.10184(17)
O6B O 0.75277(15) 0.24684(9) 0.14920(18)
O8B O 0.59832(19) 0.16743(12) 0.27304(19)
O9_2 O 0.90828(19) 0.31098(11) 0.02301(19)
O10B O 0.53501(18) 0.12375(10) 0.06675(19)
loop_
_geom_bond_atom_site_label_1
_geom_bond_atom_site_label_2
_geom_bond_site_symmetry_1
_geom_bond_site_symmetry_2
C1 C2 1_555 1_555
C2 C3 1_555 1_555
C3 H1 1_555 1_555
C4 C2 1_555 1_555
H2 C4 1_555 1_555
C5 C3 1_555 1_555
H3 C5 1_555 1_555
C6 C4 1_555 1_555
H4 C6 1_555 1_555
C7 C5 1_555 1_555
C8 C7 1_555 1_555
H5 C8 1_555 1_555
H6 C8 1_555 1_555
C9 C8 1_555 1_555
C10 C9 1_555 1_555
H7 C10 1_555 1_555
C11 C9 1_555 1_555
H8 C11 1_555 1_555
C12 C11 1_555 1_555
H9 C12 1_555 1_555
C13 C10 1_555 1_555
H10 C13 1_555 1_555
C14 C12 1_555 1_555
C15 C14 1_555 1_555
C16 C17 1_555 1_555
C17 H11 1_555 1_555
H12 C17 1_555 1_555
H13 C17 1_555 1_555
C18 C19 1_555 1_555
C19 C20 1_555 1_555
C20 H14 1_555 1_555
C21 C19 1_555 1_555
H15 C21 1_555 1_555
C22 C21 1_555 1_555
H16 C22 1_555 1_555
C23 C20 1_555 1_555
H17 C23 1_555 1_555
C24 C22 1_555 1_555
C25 C24 1_555 1_555
H18 C25 1_555 1_555
H19 C25 1_555 1_555
C26 C25 1_555 1_555
C27 C26 1_555 1_555
H20 C27 1_555 1_555
C28 C26 1_555 1_555
H21 C28 1_555 1_555
C29 C27 1_555 1_555
H22 C29 1_555 1_555
C30 C28 1_555 1_555
H23 C30 1_555 1_555
C31 C29 1_555 1_555
C32 C31 1_555 1_555
Mg1 O3 1_555 1_555
Mg2 O4 1_555 1_555
O1 C1 1_555 1_555
O2 C1 1_555 1_555
O3 C15 1_555 1_555
H24 O3 1_555 1_555
O4 C15 1_555 1_555
O5 C16 1_555 1_555
O6 C16 1_555 1_555
O7 C18 1_555 1_555
O8 C18 1_555 1_555
O9 C32 1_555 1_555
O10 C32 1_555 1_555
Mg1_2 O2 1_555 1_555
Mg1_3 O9 1_555 1_555
Mg1B O6 1_555 1_555
Mg2_2 O1 1_555 1_555
Mg2B O5 1_555 1_555
Mg2B_2 O10 1_555 1_555
O1_2 Mg2 1_555 1_555
O2_2 Mg1 1_555 1_555
O5B Mg2 1_555 1_555
O6B Mg1 1_555 1_555
O8B Mg2 1_555 1_555
O9_2 Mg1 1_555 1_555
O10B Mg2 1_555 1_555
C6 C7 1_555 1_555
C13 C14 1_555 1_555
C23 C24 1_555 1_555
C30 C31 1_555 1_555
Mg1 O5 1_555 1_555
Mg1 O7 1_555 1_555
Mg2 O6B 1_555 1_555
O6 Mg2B 1_555 1_555
O8 Mg2B 1_555 1_555

#END
