
#######################################################################
#
#                 Cambridge Crystallographic Data Centre
#                                CCDC 
#
#######################################################################
#
# If this CIF has been generated from an entry in the Cambridge 
# Structural Database, then it will include bibliographic, chemical, 
# crystal, experimental, refinement or atomic coordinate data resulting 
# from the CCDC's data processing and validation procedures.
#
#######################################################################

data_QISGAB
_symmetry_cell_setting           monoclinic
_symmetry_space_group_name_H-M   'P 21/c'
_symmetry_Int_Tables_number      14
_space_group_name_Hall           '-P 2ybc'
loop_
_symmetry_equiv_pos_site_id
_symmetry_equiv_pos_as_xyz
1 x,y,z
2 -x,1/2+y,1/2-z
3 -x,-y,-z
4 x,1/2-y,1/2+z
_cell_length_a                   14.177(3)
_cell_length_b                   17.872(4)
_cell_length_c                   14.392(4)
_cell_angle_alpha                90
_cell_angle_beta                 109.670(9)
_cell_angle_gamma                90
_cell_volume                     3433.73
loop_
_atom_site_label
_atom_site_type_symbol
_atom_site_fract_x
_atom_site_fract_y
_atom_site_fract_z
Ag1 Ag 0.313493(18) 0.531234(14) 0.125758(19)
Ag2 Ag 0.223610(17) 0.396398(14) 0.323570(18)
O1 O 0.11923(16) 0.70905(12) 0.16792(18)
O2 O -0.24025(15) 0.64973(13) 0.09492(16)
O3 O -0.06784(16) 0.33431(12) 0.08935(17)
O12 O 0.62934(15) 0.54684(14) 0.35887(16)
O13 O 0.49521(16) 0.71219(14) 0.68067(17)
O14 O 0.19067(16) 0.59124(13) 0.49548(18)
N1 N 0.23533(18) 0.62442(14) 0.16718(18)
N2 N -0.29499(18) 0.56458(15) -0.02585(19)
N3 N 0.08148(18) 0.34687(14) 0.20871(18)
N4 N 0.48375(19) 0.51919(16) 0.24073(18)
N5 N 0.64511(18) 0.66984(15) 0.68414(18)
N6 N 0.17957(18) 0.50476(15) 0.37903(19)
C1 C 0.0598(2) 0.58440(16) 0.1316(2)
C2 C -0.0385(2) 0.61209(17) 0.1019(2)
H1 H -0.0501 0.6645 0.0978
C3 C -0.1183(2) 0.56281(17) 0.0787(2)
C4 C -0.1023(2) 0.48607(17) 0.0877(2)
H2 H -0.1576 0.4526 0.0712
C5 C -0.0044(2) 0.45832(17) 0.1213(2)
C6 C 0.0761(2) 0.50752(17) 0.1411(2)
H3 H 0.1425 0.4885 0.1612
C7 C 0.1437(2) 0.63765(17) 0.1553(2)
C8 C 0.2907(2) 0.69573(18) 0.1974(2)
H4 H 0.3345 0.7058 0.1578
H5 H 0.3321 0.6948 0.2682
C9 C 0.2080(2) 0.75397(19) 0.1773(3)
H6 H 0.2217 0.7899 0.2327
H7 H 0.2002 0.7818 0.1157
C10 C -0.2218(2) 0.59103(17) 0.0449(2)
C11 C -0.3849(2) 0.60806(18) -0.0301(2)
H8 H -0.4331 0.5767 -0.0112
H9 H -0.4185 0.6283 -0.0972
C12 C -0.3446(2) 0.6708(2) 0.0438(3)
H10 H -0.3488 0.7195 0.0099
H11 H -0.3821 0.6742 0.0905
C13 C 0.0094(2) 0.37776(17) 0.1421(2)
C14 C 0.0530(2) 0.26750(18) 0.2126(2)
H12 H 0.0418 0.2564 0.2755
H13 H 0.1057 0.2337 0.2060
C15 C -0.0436(2) 0.25848(19) 0.1255(3)
H14 H -0.0333 0.2259 0.0742
H15 H -0.0974 0.2370 0.1469
C16 C 0.4821(2) 0.56639(17) 0.4001(2)
C17 C 0.5383(2) 0.60511(16) 0.4846(2)
H16 H 0.6070 0.6156 0.4961
C18 C 0.4935(2) 0.62834(16) 0.5523(2)
C19 C 0.3929(2) 0.61329(16) 0.5357(2)
H17 H 0.3620 0.6310 0.5807
C20 C 0.3377(2) 0.57243(16) 0.4533(2)
C21 C 0.3824(2) 0.54933(16) 0.3853(2)
H18 H 0.3444 0.5218 0.3286
C22 C 0.5283(2) 0.54278(17) 0.3273(2)
C23 C 0.5631(2) 0.5011(2) 0.1978(3)
H19 H 0.5536 0.5305 0.1370
H20 H 0.5623 0.4472 0.1819
C24 C 0.6603(2) 0.5222(2) 0.2773(2)
H21 H 0.7058 0.4787 0.2966
H22 H 0.6945 0.5630 0.2547
C25 C 0.5507(2) 0.66970(17) 0.6415(2)
C26 C 0.6667(2) 0.7216(2) 0.7692(2)
H23 H 0.7132 0.7617 0.7650
H24 H 0.6965 0.6945 0.8323
C27 C 0.5643(2) 0.7540(2) 0.7611(2)
H25 H 0.5498 0.7464 0.8231
H26 H 0.5611 0.8082 0.7459
C28 C 0.2331(2) 0.55308(17) 0.4387(2)
C29 C 0.0772(2) 0.5112(2) 0.3852(3)
H27 H 0.0478 0.4613 0.3873
H28 H 0.0323 0.5397 0.3285
C30 C 0.0952(2) 0.5530(2) 0.4809(3)
H29 H 0.0409 0.5894 0.4752
H30 H 0.1005 0.5181 0.5358
Ag1B Ag -0.313493(18) 0.468766(14) -0.125758(19)
Ag2B Ag 0.776390(17) 0.603602(14) 0.676430(18)
N2B N 0.29499(18) 0.43542(15) 0.02585(19)
N5B N 0.35489(18) 0.33016(15) 0.31586(18)
Cl1 Cl 0.14908(6) 0.31752(5) 0.51730(6)
O4 O 0.14365(18) 0.24100(14) 0.54352(17)
O5 O 0.0608(2) 0.33363(19) 0.4333(2)
O6 O 0.2362(2) 0.33016(19) 0.4921(3)
O7 O 0.1481(2) 0.36577(15) 0.59613(19)
Cl2 Cl 0.35796(6) 0.66705(5) -0.05043(6)
O8 O 0.4123(2) 0.62854(18) 0.0397(2)
O9 O 0.2991(3) 0.61376(19) -0.1201(3)
O10 O 0.4274(2) 0.70201(18) -0.0886(3)
O11 O 0.29281(19) 0.72154(16) -0.0324(2)
loop_
_geom_bond_atom_site_label_1
_geom_bond_atom_site_label_2
_geom_bond_site_symmetry_1
_geom_bond_site_symmetry_2
Ag1 N1 1_555 1_555
Ag2 N3 1_555 1_555
Cl1 O4 1_555 1_555
Cl2 O8 1_555 1_555
O1 C7 1_555 1_555
O2 C10 1_555 1_555
O3 C13 1_555 1_555
O5 Cl1 1_555 1_555
O6 Cl1 1_555 1_555
O7 Cl1 1_555 1_555
O9 Cl2 1_555 1_555
O10 Cl2 1_555 1_555
O11 Cl2 1_555 1_555
O12 C22 1_555 1_555
O13 C25 1_555 1_555
O14 C28 1_555 1_555
N1 C7 1_555 1_555
N2 C10 1_555 1_555
N3 C13 1_555 1_555
N4 Ag1 1_555 1_555
N5 C25 1_555 1_555
N6 Ag2 1_555 1_555
C1 C2 1_555 1_555
C2 H1 1_555 1_555
C3 C2 1_555 1_555
C4 C3 1_555 1_555
H2 C4 1_555 1_555
C5 C4 1_555 1_555
C6 C1 1_555 1_555
H3 C6 1_555 1_555
C7 C1 1_555 1_555
C8 N1 1_555 1_555
H4 C8 1_555 1_555
H5 C8 1_555 1_555
C9 O1 1_555 1_555
H6 C9 1_555 1_555
H7 C9 1_555 1_555
C10 C3 1_555 1_555
C11 N2 1_555 1_555
H8 C11 1_555 1_555
H9 C11 1_555 1_555
C12 O2 1_555 1_555
H10 C12 1_555 1_555
H11 C12 1_555 1_555
C13 C5 1_555 1_555
C14 N3 1_555 1_555
H12 C14 1_555 1_555
H13 C14 1_555 1_555
C15 O3 1_555 1_555
H14 C15 1_555 1_555
H15 C15 1_555 1_555
C16 C17 1_555 1_555
C17 H16 1_555 1_555
C18 C17 1_555 1_555
C19 C18 1_555 1_555
H17 C19 1_555 1_555
C20 C19 1_555 1_555
C21 C16 1_555 1_555
H18 C21 1_555 1_555
C22 N4 1_555 1_555
C23 N4 1_555 1_555
H19 C23 1_555 1_555
H20 C23 1_555 1_555
C24 O12 1_555 1_555
H21 C24 1_555 1_555
H22 C24 1_555 1_555
C25 C18 1_555 1_555
C26 N5 1_555 1_555
H23 C26 1_555 1_555
H24 C26 1_555 1_555
C27 O13 1_555 1_555
H25 C27 1_555 1_555
H26 C27 1_555 1_555
C28 N6 1_555 1_555
C29 N6 1_555 1_555
H27 C29 1_555 1_555
H28 C29 1_555 1_555
C30 O14 1_555 1_555
H29 C30 1_555 1_555
H30 C30 1_555 1_555
Ag1B N2 1_555 1_555
Ag2B N5 1_555 1_555
N2B Ag1 1_555 1_555
N5B Ag2 1_555 1_555
C5 C6 1_555 1_555
C8 C9 1_555 1_555
C11 C12 1_555 1_555
C14 C15 1_555 1_555
C16 C22 1_555 1_555
C20 C21 1_555 1_555
C20 C28 1_555 1_555
C23 C24 1_555 1_555
C26 C27 1_555 1_555
C29 C30 1_555 1_555

#END
