
#######################################################################
#
#                 Cambridge Crystallographic Data Centre
#                                CCDC 
#
#######################################################################
#
# If this CIF has been generated from an entry in the Cambridge 
# Structural Database, then it will include bibliographic, chemical, 
# crystal, experimental, refinement or atomic coordinate data resulting 
# from the CCDC's data processing and validation procedures.
#
#######################################################################

data_QISJIN
_symmetry_cell_setting           monoclinic
_symmetry_space_group_name_H-M   'C 2/c'
_symmetry_Int_Tables_number      15
_space_group_name_Hall           '-C 2yn'
loop_
_symmetry_equiv_pos_site_id
_symmetry_equiv_pos_as_xyz
1 x,y,z
2 -x,y,1/2-z
3 1/2+x,1/2+y,z
4 1/2-x,1/2+y,1/2-z
5 -x,-y,-z
6 x,-y,1/2+z
7 1/2-x,1/2-y,-z
8 1/2+x,1/2-y,1/2+z
_cell_length_a                   12.299(6)
_cell_length_b                   7.301(4)
_cell_length_c                   14.629(10)
_cell_angle_alpha                90
_cell_angle_beta                 111.08(2)
_cell_angle_gamma                90
_cell_volume                     1225.7
loop_
_atom_site_label
_atom_site_type_symbol
_atom_site_fract_x
_atom_site_fract_y
_atom_site_fract_z
Cd1 Cd 0.5000 0.37546(3) 0.2500
Br1 Br 0.64910(3) 0.58263(4) 0.216655(19)
N1 N 0.42807(17) 0.1858(2) 0.12386(12)
N2 N 0.35579(16) -0.0561(3) 0.03349(13)
C1 C 0.3952(2) 0.0139(3) 0.12465(15)
H1 H 0.3988 -0.0501 0.1806
C2 C 0.40736(19) 0.2274(3) 0.02727(15)
H2 H 0.4223 0.3400 0.0044
C3 C 0.3621(2) 0.0799(3) -0.02908(16)
H3 H 0.3397 0.0720 -0.0968
C4 C 0.3138(2) -0.2434(3) 0.00756(17)
H4 H 0.3579 -0.3263 0.0594
H5 H 0.3256 -0.2796 -0.0520
N1F N 0.07193(17) -0.6858(2) -0.12386(12)
N2F N 0.14421(16) -0.4439(3) -0.03349(13)
C1F C 0.1048(2) -0.5139(3) -0.12465(15)
H1F H 0.1012 -0.4499 -0.1806
C2F C 0.09264(19) -0.7274(3) -0.02727(15)
H2F H 0.0777 -0.8400 -0.0044
C3F C 0.1379(2) -0.5799(3) 0.02908(16)
H3F H 0.1603 -0.5720 0.0968
C4F C 0.1862(2) -0.2566(3) -0.00756(17)
H4F H 0.1421 -0.1737 -0.0594
H5F H 0.1744 -0.2204 0.0520
Br1A Br 0.35090(3) 0.58263(4) 0.283345(19)
Cd1F Cd 0.0000 -0.87546(3) -0.2500
N1A N 0.57193(17) 0.1858(2) 0.37614(12)
loop_
_geom_bond_atom_site_label_1
_geom_bond_atom_site_label_2
_geom_bond_site_symmetry_1
_geom_bond_site_symmetry_2
Cd1 Br1 1_555 1_555
N1 Cd1 1_555 1_555
N2 C1 1_555 1_555
C1 N1 1_555 1_555
H1 C1 1_555 1_555
C2 N1 1_555 1_555
H2 C2 1_555 1_555
C3 N2 1_555 1_555
H3 C3 1_555 1_555
C4 N2 1_555 1_555
H4 C4 1_555 1_555
H5 C4 1_555 1_555
N1F C1F 1_555 1_555
N2F C1F 1_555 1_555
C1F H1F 1_555 1_555
C2F N1F 1_555 1_555
H2F C2F 1_555 1_555
C3F N2F 1_555 1_555
H3F C3F 1_555 1_555
C4F C4 1_555 1_555
H4F C4F 1_555 1_555
H5F C4F 1_555 1_555
Br1A Cd1 1_555 1_555
Cd1F N1F 1_555 1_555
N1A Cd1 1_555 1_555
C2 C3 1_555 1_555
N2F C4F 1_555 1_555
C2F C3F 1_555 1_555

#END
