
#######################################################################
#
#                 Cambridge Crystallographic Data Centre
#                                CCDC 
#
#######################################################################
#
# If this CIF has been generated from an entry in the Cambridge 
# Structural Database, then it will include bibliographic, chemical, 
# crystal, experimental, refinement or atomic coordinate data resulting 
# from the CCDC's data processing and validation procedures.
#
#######################################################################

data_QISJOR01
_symmetry_cell_setting           monoclinic
_symmetry_space_group_name_H-M   'C 2/c'
_symmetry_Int_Tables_number      15
_space_group_name_Hall           '-C 2yn'
loop_
_symmetry_equiv_pos_site_id
_symmetry_equiv_pos_as_xyz
1 x,y,z
2 x,-y,1/2+z
3 1/2+x,1/2+y,z
4 1/2+x,1/2-y,1/2+z
5 -x,-y,-z
6 -x,y,1/2-z
7 1/2-x,1/2-y,-z
8 1/2-x,1/2+y,1/2-z
_cell_length_a                   11.9210(11)
_cell_length_b                   11.7644(11)
_cell_length_c                   10.5211(10)
_cell_angle_alpha                90
_cell_angle_beta                 109.684(2)
_cell_angle_gamma                90
_cell_volume                     1389.29
loop_
_atom_site_label
_atom_site_type_symbol
_atom_site_fract_x
_atom_site_fract_y
_atom_site_fract_z
Cd1 Cd 0.5000 0.58121(3) 0.7500
S1 S 0.29450(8) 0.57994(8) 0.53136(10)
N1 N 0.3810(3) 0.4231(2) 0.3867(3)
N2 N 0.5000 0.7789(3) 0.7500
N3 N 0.5000 1.3801(3) 0.7500
C1 C 0.3453(3) 0.4868(3) 0.4469(3)
C2 C 0.4460(3) 0.8380(3) 0.8208(3)
H1 H 0.4084 0.7982 0.8716
C3 C 0.4430(3) 0.9547(3) 0.8223(4)
H2 H 0.4027 0.9921 0.8719
C4 C 0.5000 1.0169(4) 0.7500
C5 C 0.5000 1.1423(4) 0.7500
C6 C 0.4001(3) 1.2042(3) 0.7464(4)
H3 H 0.3309 1.1667 0.7446
C7 C 0.4033(3) 1.3211(3) 0.7456(4)
H4 H 0.3348 1.3608 0.7417
C3E C 0.5570(3) 0.9547(3) 0.6777(4)
C2E C 0.5540(3) 0.8380(3) 0.6792(3)
H1E H 0.5916 0.7982 0.6284
H2E H 0.5973 0.9921 0.6281
C7E C 0.5967(3) 1.3211(3) 0.7544(4)
C6E C 0.5999(3) 1.2042(3) 0.7536(4)
H3E H 0.6691 1.1667 0.7554
H4E H 0.6652 1.3608 0.7583
S1E S 0.70550(8) 0.57994(8) 0.96864(10)
N1E N 0.6190(3) 0.4231(2) 1.1133(3)
C1E C 0.6547(3) 0.4868(3) 1.0531(3)
N1A N 0.3810(3) 0.5769(2) 0.8867(3)
N1D N 0.6190(3) 0.5769(2) 0.6133(3)
N3_2 N 0.5000 0.3801(3) 0.7500
Cd1A Cd 0.5000 0.41879(3) 0.2500
Cd1_2 Cd 0.5000 1.58121(3) 0.7500
Cd1A_2 Cd 0.5000 0.41879(3) 1.2500
loop_
_geom_bond_atom_site_label_1
_geom_bond_atom_site_label_2
_geom_bond_site_symmetry_1
_geom_bond_site_symmetry_2
Cd1 S1 1_555 1_555
S1 C1 1_555 1_555
N1 C1 1_555 1_555
N2 Cd1 1_555 1_555
N3 C7 1_555 1_555
C2 N2 1_555 1_555
H1 C2 1_555 1_555
C3 C2 1_555 1_555
H2 C3 1_555 1_555
C4 C3 1_555 1_555
C5 C4 1_555 1_555
C6 C5 1_555 1_555
H3 C6 1_555 1_555
C7 C6 1_555 1_555
H4 C7 1_555 1_555
C3E C4 1_555 1_555
C2E N2 1_555 1_555
H1E C2E 1_555 1_555
H2E C3E 1_555 1_555
C7E N3 1_555 1_555
C6E C5 1_555 1_555
H3E C6E 1_555 1_555
H4E C7E 1_555 1_555
S1E Cd1 1_555 1_555
N1E C1E 1_555 1_555
C1E S1E 1_555 1_555
N1A Cd1 1_555 1_555
N1D Cd1 1_555 1_555
N3_2 Cd1 1_555 1_555
Cd1A N1 1_555 1_555
Cd1_2 N3 1_555 1_555
Cd1A_2 N1E 1_555 1_555
C3E C2E 1_555 1_555
C7E C6E 1_555 1_555

#END
