
#######################################################################
#
#                 Cambridge Crystallographic Data Centre
#                                CCDC 
#
#######################################################################
#
# If this CIF has been generated from an entry in the Cambridge 
# Structural Database, then it will include bibliographic, chemical, 
# crystal, experimental, refinement or atomic coordinate data resulting 
# from the CCDC's data processing and validation procedures.
#
#######################################################################

data_QISJOR
_symmetry_cell_setting           monoclinic
_symmetry_space_group_name_H-M   'C 2/c'
_symmetry_Int_Tables_number      15
_space_group_name_Hall           '-C 2yn'
loop_
_symmetry_equiv_pos_site_id
_symmetry_equiv_pos_as_xyz
1 x,y,z
2 1/2+x,1/2+y,z
3 x,-y,1/2+z
4 1/2+x,1/2-y,1/2+z
5 -x,-y,-z
6 1/2-x,1/2-y,-z
7 -x,y,1/2-z
8 1/2-x,1/2+y,1/2-z
_cell_length_a                   11.902(2)
_cell_length_b                   11.745(2)
_cell_length_c                   10.500(2)
_cell_angle_alpha                90
_cell_angle_beta                 109.71(3)
_cell_angle_gamma                90
_cell_volume                     1381.79
loop_
_atom_site_label
_atom_site_type_symbol
_atom_site_fract_x
_atom_site_fract_y
_atom_site_fract_z
Cd1 Cd 0.5000 -0.41824(3) -0.2500
S1 S 0.29427(11) -0.41963(11) -0.46916(13)
N1 N 0.3810(4) -0.5781(3) -0.6131(4)
N2 N 0.5000 -0.2208(4) -0.2500
N3 N 0.5000 0.3804(4) -0.2500
C1 C 0.3455(4) -0.5132(4) -0.5526(4)
C2 C 0.4464(4) -0.1614(4) -0.1791(5)
H1 H 0.4093 -0.2013 -0.1278
C3 C 0.4428(4) -0.0439(4) -0.1773(4)
H2 H 0.4024 -0.0063 -0.1278
C4 C 0.5000 0.0170(5) -0.2500
C5 C 0.5000 0.1432(5) -0.2500
C6 C 0.6005(4) 0.2052(4) -0.2462(5)
H3 H 0.6698 0.1675 -0.2442
C7 C 0.5978(4) 0.3211(4) -0.2452(5)
H4 H 0.6665 0.3608 -0.2410
C3F C 0.5572(4) -0.0439(4) -0.3227(4)
C2F C 0.5536(4) -0.1614(4) -0.3209(5)
H1F H 0.5907 -0.2013 -0.3722
H2F H 0.5976 -0.0063 -0.3722
C7F C 0.4022(4) 0.3211(4) -0.2548(5)
C6F C 0.3995(4) 0.2052(4) -0.2538(5)
H3F H 0.3302 0.1675 -0.2558
H4F H 0.3335 0.3608 -0.2590
S1F S 0.70573(11) -0.41963(11) -0.03084(13)
N1F N 0.6190(4) -0.5781(3) 0.1131(4)
C1F C 0.6545(4) -0.5132(4) 0.0526(4)
N1B N 0.3810(4) -0.4219(3) -0.1131(4)
N1D N 0.6190(4) -0.4219(3) -0.3869(4)
N3_2 N 0.5000 -0.6196(4) -0.2500
Cd1B Cd 0.5000 -0.58176(3) -0.7500
Cd1_2 Cd 0.5000 0.58176(3) -0.2500
Cd1B_2 Cd 0.5000 -0.58176(3) 0.2500
loop_
_geom_bond_atom_site_label_1
_geom_bond_atom_site_label_2
_geom_bond_site_symmetry_1
_geom_bond_site_symmetry_2
Cd1 S1 1_555 1_555
S1 C1 1_555 1_555
N1 C1 1_555 1_555
N2 Cd1 1_555 1_555
N3 C7 1_555 1_555
C2 N2 1_555 1_555
H1 C2 1_555 1_555
C3 C2 1_555 1_555
H2 C3 1_555 1_555
C4 C3 1_555 1_555
C5 C4 1_555 1_555
C6 C5 1_555 1_555
H3 C6 1_555 1_555
C7 C6 1_555 1_555
H4 C7 1_555 1_555
C3F C4 1_555 1_555
C2F N2 1_555 1_555
H1F C2F 1_555 1_555
H2F C3F 1_555 1_555
C7F N3 1_555 1_555
C6F C5 1_555 1_555
H3F C6F 1_555 1_555
H4F C7F 1_555 1_555
S1F Cd1 1_555 1_555
N1F C1F 1_555 1_555
C1F S1F 1_555 1_555
N1B Cd1 1_555 1_555
N1D Cd1 1_555 1_555
N3_2 Cd1 1_555 1_555
Cd1B N1 1_555 1_555
Cd1_2 N3 1_555 1_555
Cd1B_2 N1F 1_555 1_555
C3F C2F 1_555 1_555
C7F C6F 1_555 1_555

#END
