
#######################################################################
#
#                 Cambridge Crystallographic Data Centre
#                                CCDC 
#
#######################################################################
#
# If this CIF has been generated from an entry in the Cambridge 
# Structural Database, then it will include bibliographic, chemical, 
# crystal, experimental, refinement or atomic coordinate data resulting 
# from the CCDC's data processing and validation procedures.
#
#######################################################################

data_QISKIO
_symmetry_cell_setting           monoclinic
_symmetry_space_group_name_H-M   'C 2/c'
_symmetry_Int_Tables_number      15
_space_group_name_Hall           '-C 2yn'
loop_
_symmetry_equiv_pos_site_id
_symmetry_equiv_pos_as_xyz
1 x,y,z
2 -x,y,1/2-z
3 1/2+x,1/2+y,z
4 1/2-x,1/2+y,1/2-z
5 -x,-y,-z
6 x,-y,1/2+z
7 1/2-x,1/2-y,-z
8 1/2+x,1/2-y,1/2+z
_cell_length_a                   15.1839(12)
_cell_length_b                   20.7585(17)
_cell_length_c                   7.2989(6)
_cell_angle_alpha                90
_cell_angle_beta                 117.3450(10)
_cell_angle_gamma                90
_cell_volume                     2043.5
loop_
_atom_site_label
_atom_site_type_symbol
_atom_site_fract_x
_atom_site_fract_y
_atom_site_fract_z
O3 O 0.5000 0.17071(11) 0.2500
H10 H 0.4508 0.2015 0.2395
H10A H 0.5492 0.2015 0.2605
Cd1 Cd 0.0000 0.123742(6) -0.2500
C1 C 0.22401(12) 0.08935(7) 0.0260(2)
H1 H 0.2249 0.1351 0.0287
C2 C 0.31340(12) 0.05752(7) 0.1062(3)
H2 H 0.3736 0.0813 0.1627
C3 C 0.31562(11) -0.00995(6) 0.1046(2)
C4 C 0.22450(11) -0.04055(7) 0.0264(3)
H3 H 0.2215 -0.0863 0.0256
C5 C 0.13783(12) -0.00489(8) -0.0505(3)
H4 H 0.0766 -0.0273 -0.1022
C6 C 0.41009(11) -0.04579(7) 0.1801(2)
C7 C 0.5000 -0.01405(9) 0.2500
H5 H 0.5000 0.0317 0.2500
C8 C -0.16669(10) 0.21700(6) 0.1458(2)
H6 H -0.1103 0.1945 0.2443
C9 C -0.18291(10) 0.22259(6) -0.0584(2)
C10 C -0.26610(10) 0.25536(6) -0.2037(2)
H7 H -0.2769 0.2588 -0.3423
C11 C -0.11260(10) 0.19189(6) -0.1243(2)
N1 N 0.13590(9) 0.05978(6) -0.0557(2)
O1 O -0.05697(7) 0.14707(5) -0.01490(16)
O2 O -0.11335(7) 0.21047(5) -0.28974(16)
C12 C 0.4103(3) -0.11203(16) 0.2360(8)
H8 H 0.3468 -0.1354 0.1993
H9 H 0.4923 -0.1902 0.1770
C13 C 0.4997(3) -0.14429(15) 0.1766(6)
C1A C 0.77599(12) 0.08935(7) 0.4740(2)
H1A H 0.7751 0.1351 0.4713
C2A C 0.68660(12) 0.05752(7) 0.3938(3)
H2A H 0.6264 0.0813 0.3373
C3A C 0.68438(11) -0.00995(6) 0.3954(2)
C4A C 0.77550(11) -0.04055(7) 0.4736(3)
H3A H 0.7785 -0.0863 0.4744
C5A C 0.86217(12) -0.00489(8) 0.5505(3)
H4A H 0.9234 -0.0273 0.6022
C6A C 0.58991(11) -0.04579(7) 0.3199(2)
N1A N 0.86410(9) 0.05978(6) 0.5557(2)
C12A C 0.5897(3) -0.11203(16) 0.2640(8)
H8A H 0.6532 -0.1354 0.3007
H9A H 0.5077 -0.1902 0.3230
C13A C 0.5003(3) -0.14429(15) 0.3234(6)
C8F C -0.33331(10) 0.28300(6) -0.1458(2)
H6F H -0.3897 0.3055 -0.2443
C9F C -0.31709(10) 0.27741(6) 0.0584(2)
C10F C -0.23390(10) 0.24464(6) 0.2037(2)
H7F H -0.2231 0.2412 0.3423
C11F C -0.38740(10) 0.30811(6) 0.1243(2)
O1F O -0.44303(7) 0.35293(5) 0.01490(16)
O2F O -0.38665(7) 0.28953(5) 0.28974(16)
Cd1_2 Cd 1.0000 0.123742(6) 0.7500
Cd1F Cd -0.5000 0.376258(6) 0.2500
N1A_2 N -0.13590(9) 0.05978(6) -0.4443(2)
O1A O 0.05697(7) 0.14707(5) -0.48510(16)
O2A O 0.11335(7) 0.21047(5) -0.21026(16)
C14? C 0.4121(3) -0.11168(16) 0.1278(7)
H11? H 0.3479 -0.1354 0.0546
loop_
_geom_bond_atom_site_label_1
_geom_bond_atom_site_label_2
_geom_bond_site_symmetry_1
_geom_bond_site_symmetry_2
Cd1 N1 1_555 1_555
C1 H1 1_555 1_555
C2 C1 1_555 1_555
H2 C2 1_555 1_555
C3 C2 1_555 1_555
C4 C3 1_555 1_555
H3 C4 1_555 1_555
C5 C4 1_555 1_555
H4 C5 1_555 1_555
C6 C3 1_555 1_555
C7 C6 1_555 1_555
H5 C7 1_555 1_555
C8 H6 1_555 1_555
C9 C8 1_555 1_555
C10 C9 1_555 1_555
H7 C10 1_555 1_555
C11 C9 1_555 1_555
N1 C1 1_555 1_555
O1 Cd1 1_555 1_555
O2 Cd1 1_555 1_555
C12 C6 1_555 1_555
H8 C12 1_555 1_555
H9 C13 1_555 1_555
C13 C12 1_555 1_555
O3 H10 1_555 1_555
C1A H1A 1_555 1_555
C2A C1A 1_555 1_555
H2A C2A 1_555 1_555
C3A C2A 1_555 1_555
C4A C3A 1_555 1_555
H3A C4A 1_555 1_555
C5A C4A 1_555 1_555
H4A C5A 1_555 1_555
C6A C7 1_555 1_555
N1A C1A 1_555 1_555
C12A C13 1_555 1_555
H8A C12A 1_555 1_555
H9A C13A 1_555 1_555
C13A C12 1_555 1_555
C8F C10 1_555 1_555
H6F C8F 1_555 1_555
C9F C8F 1_555 1_555
C10F C8 1_555 1_555
H7F C10F 1_555 1_555
C11F C9F 1_555 1_555
O1F C11F 1_555 1_555
O2F C11F 1_555 1_555
Cd1_2 N1A 1_555 1_555
Cd1F O1F 1_555 1_555
N1A_2 Cd1 1_555 1_555
O1A Cd1 1_555 1_555
O2A Cd1 1_555 1_555
H10A O3 1_555 1_555
C5 N1 1_555 1_555
C11 O1 1_555 1_555
C11 O2 1_555 1_555
C13 C13A 1_555 1_555
C3A C6A 1_555 1_555
C5A N1A 1_555 1_555
C6A C12A 1_555 1_555
C12A C13A 1_555 1_555
C9F C10F 1_555 1_555
O2F Cd1F 1_555 1_555

#END
