
#######################################################################
#
#                 Cambridge Crystallographic Data Centre
#                                CCDC 
#
#######################################################################
#
# If this CIF has been generated from an entry in the Cambridge 
# Structural Database, then it will include bibliographic, chemical, 
# crystal, experimental, refinement or atomic coordinate data resulting 
# from the CCDC's data processing and validation procedures.
#
#######################################################################

data_QISKEJ
_symmetry_cell_setting           rhombohedral
_symmetry_space_group_name_H-M   'R -3'
_symmetry_Int_Tables_number      148
_space_group_name_Hall           '-R 3'
loop_
_symmetry_equiv_pos_site_id
_symmetry_equiv_pos_as_xyz
1 x,y,z
2 -y,x-y,z
3 -x+y,-x,z
4 2/3+x,1/3+y,1/3+z
5 2/3-y,1/3+x-y,1/3+z
6 2/3-x+y,1/3-x,1/3+z
7 1/3+x,2/3+y,2/3+z
8 1/3-y,2/3+x-y,2/3+z
9 1/3-x+y,2/3-x,2/3+z
10 -x,-y,-z
11 y,-x+y,-z
12 x-y,x,-z
13 1/3-x,2/3-y,2/3-z
14 1/3+y,2/3-x+y,2/3-z
15 1/3+x-y,2/3+x,2/3-z
16 2/3-x,1/3-y,1/3-z
17 2/3+y,1/3-x+y,1/3-z
18 2/3+x-y,1/3+x,1/3-z
_cell_length_a                   30.736(2)
_cell_length_b                   30.736(2)
_cell_length_c                   8.7792(13)
_cell_angle_alpha                90
_cell_angle_beta                 90
_cell_angle_gamma                120.00
_cell_volume                     7182.58
loop_
_atom_site_label
_atom_site_type_symbol
_atom_site_fract_x
_atom_site_fract_y
_atom_site_fract_z
Cu1 Cu 0.308021(10) 0.148965(10) 0.50853(3)
O1 O 0.29078(6) 0.13994(6) 0.75452(18)
N1 N 0.23554(7) 0.10547(7) 0.4506(2)
O2 O 0.30030(7) 0.20336(7) 0.4279(2)
C1 C 0.24542(9) 0.16366(10) 0.9265(3)
H1 H 0.2747 0.1826 0.9866
C2 C 0.20609(8) 0.07579(8) 0.5869(3)
H2 H 0.1713 0.0517 0.5544
H3 H 0.2212 0.0561 0.6260
C3 C 0.15741(9) 0.13420(9) 0.8810(3)
C4 C 0.06972(10) 0.07757(10) 0.7139(3)
H4 H 0.0397 0.0582 0.6573
C5 C 0.11247(9) 0.07752(10) 0.6724(3)
H5 H 0.1117 0.0581 0.5872
C6 C 0.24785(9) 0.13693(9) 0.7968(3)
C7 C 0.20417(9) 0.10743(8) 0.7133(3)
C8 C 0.15828(9) 0.10601(9) 0.7540(3)
C9 C 0.21656(9) 0.13756(9) 0.3874(3)
H6 H 0.1890 0.1346 0.4527
H7 H 0.2026 0.1253 0.2845
C10 C 0.25670(9) 0.19188(9) 0.3769(3)
C11 C 0.06943(10) 0.10588(10) 0.8395(3)
H8 H 0.0394 0.1055 0.8678
C12 C 0.20221(10) 0.16258(9) 0.9657(3)
H9 H 0.2020 0.1812 1.0517
C13 C 0.23653(9) 0.07043(10) 0.3381(3)
H10 H 0.2456 0.0867 0.2368
H11 H 0.2028 0.0402 0.3304
C14 C 0.11227(10) 0.13358(10) 0.9195(3)
H12 H 0.1121 0.1530 1.0034
O3 O 0.30986(6) 0.08551(6) 0.47379(19)
O4 O 0.27060(8) 0.01609(8) 0.3340(2)
O5 O 0.24541(8) 0.22155(7) 0.3220(3)
C15 C 0.27447(10) 0.05526(10) 0.3855(3)
K1 K 0.35119(2) 0.28991(2) 0.58033(6)
O6 O 0.37080(9) 0.32975(9) 0.2986(3)
H13 H 0.3813(14) 0.3213(14) 0.219(4)
H14 H 0.3815(16) 0.3574(17) 0.291(5)
Cu1O Cu 0.358646(10) 0.184368(10) 0.82480(3)
O1O O 0.37589(6) 0.19339(6) 0.57881(18)
O3O O 0.35681(6) 0.24782(6) 0.85954(19)
O4K O 0.25451(11) 0.27060(8) 0.6660(2)
O5D O 0.44512(7) 0.35719(11) 0.6553(3)
K1O K 0.31548(2) 0.04342(2) 0.75300(6)
K1J K 0.28991(2) -0.06128(3) 0.41967(6)
K1H K 0.27205(3) 0.31548(2) 0.24700(6)
O6D O 0.33692(9) 0.37438(13) 0.6319(3)
H13D H 0.3454(14) 0.3933(20) 0.552(4)
H14D H 0.3093(17) 0.3574(23) 0.624(5)
loop_
_geom_bond_atom_site_label_1
_geom_bond_atom_site_label_2
_geom_bond_site_symmetry_1
_geom_bond_site_symmetry_2
Cu1 O1 1_555 1_555
O1 C6 1_555 1_555
N1 Cu1 1_555 1_555
O2 Cu1 1_555 1_555
C1 H1 1_555 1_555
C2 N1 1_555 1_555
H2 C2 1_555 1_555
H3 C2 1_555 1_555
C3 C8 1_555 1_555
C4 H4 1_555 1_555
C5 C4 1_555 1_555
H5 C5 1_555 1_555
C6 C1 1_555 1_555
C7 C2 1_555 1_555
C8 C5 1_555 1_555
C9 N1 1_555 1_555
H6 C9 1_555 1_555
H7 C9 1_555 1_555
C10 O2 1_555 1_555
C11 C4 1_555 1_555
H8 C11 1_555 1_555
C12 C1 1_555 1_555
H9 C12 1_555 1_555
C13 N1 1_555 1_555
H10 C13 1_555 1_555
H11 C13 1_555 1_555
C14 C3 1_555 1_555
H12 C14 1_555 1_555
O3 Cu1 1_555 1_555
O4 C15 1_555 1_555
O5 C10 1_555 1_555
C15 C13 1_555 1_555
K1 O2 1_555 1_555
O6 K1 1_555 1_555
H13 O6 1_555 1_555
H14 O6 1_555 1_555
Cu1O O1 1_555 1_555
O1O Cu1 1_555 1_555
O3O K1 1_555 1_555
O4K K1 1_555 1_555
O5D K1 1_555 1_555
K1O O3 1_555 1_555
K1J O4 1_555 1_555
K1H O5 1_555 1_555
O6D K1 1_555 1_555
H13D O6D 1_555 1_555
H14D O6D 1_555 1_555
C3 C12 1_555 1_555
C6 C7 1_555 1_555
C7 C8 1_555 1_555
C9 C10 1_555 1_555
C11 C14 1_555 1_555
O3 C15 1_555 1_555
O6 K1H 1_555 1_555
Cu1O O1O 1_555 1_555
Cu1O O3O 1_555 1_555

#END
