
#######################################################################
#
#                 Cambridge Crystallographic Data Centre
#                                CCDC 
#
#######################################################################
#
# If this CIF has been generated from an entry in the Cambridge 
# Structural Database, then it will include bibliographic, chemical, 
# crystal, experimental, refinement or atomic coordinate data resulting 
# from the CCDC's data processing and validation procedures.
#
#######################################################################

data_QISKUA
_symmetry_cell_setting           monoclinic
_symmetry_space_group_name_H-M   'C 2/c'
_symmetry_Int_Tables_number      15
_space_group_name_Hall           '-C 2yn'
loop_
_symmetry_equiv_pos_site_id
_symmetry_equiv_pos_as_xyz
1 x,y,z
2 -x,y,1/2-z
3 1/2+x,1/2+y,z
4 1/2-x,1/2+y,1/2-z
5 -x,-y,-z
6 x,-y,1/2+z
7 1/2-x,1/2-y,-z
8 1/2+x,1/2-y,1/2+z
_cell_length_a                   24.863(5)
_cell_length_b                   17.591(4)
_cell_length_c                   13.120(3)
_cell_angle_alpha                90
_cell_angle_beta                 116.63(3)
_cell_angle_gamma                90
_cell_volume                     5129.52
loop_
_atom_site_label
_atom_site_type_symbol
_atom_site_fract_x
_atom_site_fract_y
_atom_site_fract_z
Pd1 Pd 0.2500 0.2500 0.0000
Cl1 Cl 0.35079(11) 0.24773(15) 0.1249(2)
Cl2 Cl 0.25367(12) 0.38054(15) -0.0160(2)
Rb1 Rb 0.41866(3) 0.25449(4) 0.39941(6)
O1 O 0.5429(2) 0.2015(3) 0.4891(4)
O2 O 0.4421(2) 0.1055(3) 0.4982(4)
O3 O 0.3403(2) 0.2086(3) 0.4968(4)
O4 O 0.3712(2) 0.3802(3) 0.4881(4)
O5 O 0.5008(2) 0.3691(3) 0.5022(4)
C1 C 0.5846(3) 0.1939(4) 0.5824(6)
C2 C 0.4636(3) 0.0708(4) 0.5895(6)
C3 C 0.3395(3) 0.1975(4) 0.5880(5)
C4 C 0.3821(3) 0.4036(4) 0.5829(5)
C5 C 0.5362(3) 0.3970(4) 0.5914(5)
N1 N 0.6268(2) 0.2486(3) 0.6451(5)
N2 N 0.6002(3) 0.1283(3) 0.6480(5)
N3 N 0.5212(3) 0.0462(3) 0.6482(4)
N4 N 0.4318(2) 0.0493(3) 0.6470(5)
N5 N 0.3516(2) 0.1296(3) 0.6456(4)
N6 N 0.3251(3) 0.2506(3) 0.6478(5)
N7 N 0.3515(2) 0.3829(3) 0.6433(4)
N8 N 0.4252(2) 0.4545(3) 0.6445(4)
N9 N 0.5245(2) 0.4545(3) 0.6484(4)
N10 N 0.5964(2) 0.3787(3) 0.6485(4)
C6 C 0.6758(3) 0.2191(4) 0.7494(6)
C7 C 0.6229(3) 0.3243(4) 0.6008(5)
C8 C 0.6567(3) 0.1339(4) 0.7516(6)
C9 C 0.5651(3) 0.0602(4) 0.6045(6)
C10 C 0.5313(3) 0.0047(4) 0.7502(6)
C11 C 0.3678(3) 0.0633(4) 0.6004(6)
C12 C 0.3046(3) 0.3258(4) 0.6016(6)
C13 C 0.3711(3) 0.4258(4) 0.7491(5)
C14 C 0.4222(3) 0.4783(4) 0.7481(6)
C15 C 0.4649(3) 0.4877(4) 0.6030(5)
C16 C 0.7366(3) 0.2300(4) 0.7490(7)
H1 H 0.5989 0.3230 0.5187
H2 H 0.6629 0.3415 0.6166
C17 C 0.7023(4) 0.0741(5) 0.7543(7)
H3 H 0.5922 0.0170 0.6237
H4 H 0.5439 0.0635 0.5220
C18 C 0.5593(3) -0.0723(4) 0.7554(6)
H5 H 0.3516 0.0690 0.5184
H6 H 0.3489 0.0191 0.6149
H7 H 0.2877 0.3235 0.5192
H8 H 0.2727 0.3412 0.6206
C19 C 0.3183(3) 0.4677(4) 0.7533(6)
C20 C 0.4107(3) 0.5631(4) 0.7475(6)
H9 H 0.4690 0.5415 0.6210
H10 H 0.4461 0.4830 0.5206
H11 H 0.7358 0.2063 0.6824
H12 H 0.7676 0.2072 0.8161
H13 H 0.7445 0.2833 0.7481
H14 H 0.7403 0.0830 0.8193
H15 H 0.7071 0.0778 0.6859
H16 H 0.6880 0.0243 0.7596
H17 H 0.5341 -0.1011 0.6888
H18 H 0.5631 -0.0989 0.8223
H19 H 0.5983 -0.0659 0.7585
H20 H 0.2992 0.4993 0.6870
H21 H 0.3328 0.4987 0.8206
H22 H 0.2899 0.4314 0.7549
H23 H 0.4439 0.5905 0.7469
H24 H 0.4064 0.5764 0.8145
H25 H 0.3745 0.5759 0.6809
O1A O 0.4571(2) 0.2015(3) 1.0109(4)
O2A O 0.5579(2) 0.1055(3) 1.0018(4)
O3A O 0.6597(2) 0.2086(3) 1.0032(4)
O4A O 0.6288(2) 0.3802(3) 1.0119(4)
O5A O 0.4992(2) 0.3691(3) 0.9978(4)
C1A C 0.4154(3) 0.1939(4) 0.9176(6)
C2A C 0.5364(3) 0.0708(4) 0.9105(6)
C3A C 0.6605(3) 0.1975(4) 0.9120(5)
C4A C 0.6179(3) 0.4036(4) 0.9171(5)
C5A C 0.4638(3) 0.3970(4) 0.9086(5)
N1A N 0.3732(2) 0.2486(3) 0.8549(5)
N2A N 0.3998(3) 0.1283(3) 0.8520(5)
N3A N 0.4788(3) 0.0462(3) 0.8518(4)
N4A N 0.5682(2) 0.0493(3) 0.8530(5)
N5A N 0.6484(2) 0.1296(3) 0.8544(4)
N6A N 0.6749(3) 0.2506(3) 0.8522(5)
N7A N 0.6485(2) 0.3829(3) 0.8567(4)
N8A N 0.5748(2) 0.4545(3) 0.8555(4)
N9A N 0.4755(2) 0.4545(3) 0.8516(4)
N10A N 0.4036(2) 0.3787(3) 0.8515(4)
C6A C 0.3242(3) 0.2191(4) 0.7506(6)
C7A C 0.3771(3) 0.3243(4) 0.8992(5)
C8A C 0.3433(3) 0.1339(4) 0.7484(6)
C9A C 0.4349(3) 0.0602(4) 0.8955(6)
C10A C 0.4687(3) 0.0047(4) 0.7498(6)
C11A C 0.6322(3) 0.0633(4) 0.8996(6)
C12A C 0.6954(3) 0.3258(4) 0.8984(6)
C13A C 0.6289(3) 0.4258(4) 0.7509(5)
C14A C 0.5778(3) 0.4783(4) 0.7519(6)
C15A C 0.5351(3) 0.4877(4) 0.8970(5)
C16A C 0.2634(3) 0.2300(4) 0.7510(7)
H1A H 0.4011 0.3230 0.9813
H2A H 0.3371 0.3415 0.8834
C17A C 0.2977(4) 0.0741(5) 0.7457(7)
H3A H 0.4078 0.0170 0.8763
H4A H 0.4561 0.0635 0.9780
C18A C 0.4407(3) -0.0723(4) 0.7446(6)
H5A H 0.6484 0.0690 0.9816
H6A H 0.6511 0.0191 0.8851
H7A H 0.7123 0.3235 0.9808
H8A H 0.7273 0.3412 0.8794
C19A C 0.6817(3) 0.4677(4) 0.7467(6)
C20A C 0.5893(3) 0.5631(4) 0.7525(6)
H9A H 0.5310 0.5415 0.8790
H10A H 0.5539 0.4830 0.9794
H11A H 0.2642 0.2063 0.8176
H12A H 0.2324 0.2072 0.6839
H13A H 0.2555 0.2833 0.7519
H14A H 0.2597 0.0830 0.6807
H15A H 0.2929 0.0778 0.8141
H16A H 0.3120 0.0243 0.7404
H17A H 0.4659 -0.1011 0.8112
H18A H 0.4369 -0.0989 0.6777
H19A H 0.4017 -0.0659 0.7415
H20A H 0.7008 0.4993 0.8130
H21A H 0.6672 0.4987 0.6794
H22A H 0.7101 0.4314 0.7451
H23A H 0.5561 0.5905 0.7531
H24A H 0.5936 0.5764 0.6855
H25A H 0.6255 0.5759 0.8191
Cl1A Cl 0.64921(11) 0.24773(15) 1.3751(2)
Rb1A Rb 0.58134(3) 0.25449(4) 1.10059(6)
Cl2F Cl 0.24633(12) 0.11946(15) 0.0160(2)
Pd1A Pd 0.7500 0.2500 1.5000
Cl1F Cl 0.14921(11) 0.25227(15) -0.1249(2)
O6 O 0.3186(5) 0.1086(7) 0.2925(11)
O7 O 0.5000 0.2765(5) 0.2500
H26 H 0.5253 0.3065 0.2986
H26A H 0.4747 0.3065 0.2014
O8 O 0.5000 0.244(4) 0.7500
O9? O 0.480(3) 0.260(4) 0.706(6)
loop_
_geom_bond_atom_site_label_1
_geom_bond_atom_site_label_2
_geom_bond_site_symmetry_1
_geom_bond_site_symmetry_2
Pd1 Cl1 1_555 1_555
Cl1 Rb1 1_555 1_555
Cl2 Pd1 1_555 1_555
Rb1 O1 1_555 1_555
O1 C1 1_555 1_555
O2 Rb1 1_555 1_555
O3 Rb1 1_555 1_555
O4 Rb1 1_555 1_555
O5 Rb1 1_555 1_555
C1 N1 1_555 1_555
C2 O2 1_555 1_555
C3 O3 1_555 1_555
C4 O4 1_555 1_555
C5 O5 1_555 1_555
N1 C6 1_555 1_555
N2 C1 1_555 1_555
N3 C2 1_555 1_555
N4 C2 1_555 1_555
N5 C3 1_555 1_555
N6 C3 1_555 1_555
N7 C4 1_555 1_555
N8 C4 1_555 1_555
N9 C5 1_555 1_555
N10 C5 1_555 1_555
C6 C8 1_555 1_555
C7 N1 1_555 1_555
C8 N2 1_555 1_555
C9 N2 1_555 1_555
C10 N3 1_555 1_555
C11 N4 1_555 1_555
C12 N6 1_555 1_555
C13 N7 1_555 1_555
C14 N8 1_555 1_555
C15 N8 1_555 1_555
C16 C6 1_555 1_555
H1 C7 1_555 1_555
H2 C7 1_555 1_555
C17 C8 1_555 1_555
H3 C9 1_555 1_555
H4 C9 1_555 1_555
C18 C10 1_555 1_555
H5 C11 1_555 1_555
H6 C11 1_555 1_555
H7 C12 1_555 1_555
H8 C12 1_555 1_555
C19 C13 1_555 1_555
C20 C14 1_555 1_555
H9 C15 1_555 1_555
H10 C15 1_555 1_555
H11 C16 1_555 1_555
H12 C16 1_555 1_555
H13 C16 1_555 1_555
H14 C17 1_555 1_555
H15 C17 1_555 1_555
H16 C17 1_555 1_555
H17 C18 1_555 1_555
H18 C18 1_555 1_555
H19 C18 1_555 1_555
H20 C19 1_555 1_555
H21 C19 1_555 1_555
H22 C19 1_555 1_555
H23 C20 1_555 1_555
H24 C20 1_555 1_555
H25 C20 1_555 1_555
O7 H26 1_555 1_555
O1A C1A 1_555 1_555
O2A C2A 1_555 1_555
O3A C3A 1_555 1_555
O4A C4A 1_555 1_555
O5A C5A 1_555 1_555
C1A N1A 1_555 1_555
C2A N3A 1_555 1_555
C3A N5A 1_555 1_555
C4A N7A 1_555 1_555
C5A N9A 1_555 1_555
N1A C6A 1_555 1_555
N2A C1A 1_555 1_555
N3A C9A 1_555 1_555
N4A C10 1_555 1_555
N5A C8 1_555 1_555
N6A C6 1_555 1_555
N7A C12A 1_555 1_555
N8A C4A 1_555 1_555
N9A C14 1_555 1_555
N10A C13 1_555 1_555
C6A N6 1_555 1_555
C7A N1A 1_555 1_555
C8A N5 1_555 1_555
C9A N2A 1_555 1_555
C10A N4 1_555 1_555
C11A N4A 1_555 1_555
C12A N6A 1_555 1_555
C13A N10 1_555 1_555
C14A N9 1_555 1_555
C15A N8A 1_555 1_555
C16A C6A 1_555 1_555
H1A C7A 1_555 1_555
H2A C7A 1_555 1_555
C17A C8A 1_555 1_555
H3A C9A 1_555 1_555
H4A C9A 1_555 1_555
C18A C10A 1_555 1_555
H5A C11A 1_555 1_555
H6A C11A 1_555 1_555
H7A C12A 1_555 1_555
H8A C12A 1_555 1_555
C19A C13A 1_555 1_555
C20A C14A 1_555 1_555
H9A C15A 1_555 1_555
H10A C15A 1_555 1_555
H11A C16A 1_555 1_555
H12A C16A 1_555 1_555
H13A C16A 1_555 1_555
H14A C17A 1_555 1_555
H15A C17A 1_555 1_555
H16A C17A 1_555 1_555
H17A C18A 1_555 1_555
H18A C18A 1_555 1_555
H19A C18A 1_555 1_555
H20A C19A 1_555 1_555
H21A C19A 1_555 1_555
H22A C19A 1_555 1_555
H23A C20A 1_555 1_555
H24A C20A 1_555 1_555
H25A C20A 1_555 1_555
Cl1A Rb1A 1_555 1_555
Rb1A O1A 1_555 1_555
Cl2F Pd1 1_555 1_555
Pd1A Cl1A 1_555 1_555
Cl1F Pd1 1_555 1_555
H26A O7 1_555 1_555
N3 C9 1_555 1_555
N5 C11 1_555 1_555
N7 C12 1_555 1_555
N9 C15 1_555 1_555
N10 C7 1_555 1_555
C10 C10A 1_555 1_555
C13 C14 1_555 1_555
O2A Rb1A 1_555 1_555
O3A Rb1A 1_555 1_555
O4A Rb1A 1_555 1_555
O5A Rb1A 1_555 1_555
C2A N4A 1_555 1_555
C3A N6A 1_555 1_555
C5A N10A 1_555 1_555
N2A C8A 1_555 1_555
N3A C10A 1_555 1_555
N5A C11A 1_555 1_555
N7A C13A 1_555 1_555
N8A C14A 1_555 1_555
N9A C15A 1_555 1_555
N10A C7A 1_555 1_555
C6A C8A 1_555 1_555
C13A C14A 1_555 1_555

#END
