
#######################################################################
#
#                 Cambridge Crystallographic Data Centre
#                                CCDC 
#
#######################################################################
#
# If this CIF has been generated from an entry in the Cambridge 
# Structural Database, then it will include bibliographic, chemical, 
# crystal, experimental, refinement or atomic coordinate data resulting 
# from the CCDC's data processing and validation procedures.
#
#######################################################################

data_QISLIP
_symmetry_cell_setting           monoclinic
_symmetry_space_group_name_H-M   'C 2/c'
_symmetry_Int_Tables_number      15
_space_group_name_Hall           '-C 2yn'
loop_
_symmetry_equiv_pos_site_id
_symmetry_equiv_pos_as_xyz
1 x,y,z
2 -x,y,1/2-z
3 1/2+x,1/2+y,z
4 1/2-x,1/2+y,1/2-z
5 -x,-y,-z
6 x,-y,1/2+z
7 1/2-x,1/2-y,-z
8 1/2+x,1/2-y,1/2+z
_cell_length_a                   24.8428(7)
_cell_length_b                   17.6428(3)
_cell_length_c                   12.9661(3)
_cell_angle_alpha                90
_cell_angle_beta                 116.538(3)
_cell_angle_gamma                90
_cell_volume                     5084.23
loop_
_atom_site_label
_atom_site_type_symbol
_atom_site_fract_x
_atom_site_fract_y
_atom_site_fract_z
Pd1 Pd -0.2500 0.2500 -0.5000
K1 K -0.07621(5) 0.25518(5) -0.09021(9)
Cl1 Cl -0.24707(6) 0.38117(7) -0.51309(11)
O1 O -0.04361(12) 0.20135(14) 0.5127(2)
O2 O -0.15666(12) 0.21084(14) -0.0040(2)
Cl2 Cl -0.15060(6) 0.24842(7) -0.36262(11)
O3 O -0.00081(11) 0.36651(14) 0.4975(2)
N1 N -0.09669(13) 0.37879(16) 0.3516(2)
N2 N 0.02177(13) 0.04590(16) 0.1458(2)
N3 N -0.07428(13) 0.45385(16) 0.1440(2)
N4 N -0.06781(14) 0.05065(16) 0.1454(3)
N5 N -0.17475(14) 0.25067(14) 0.1466(3)
N6 N -0.12682(15) 0.24802(15) 0.3565(3)
O4 O -0.05599(12) 0.10870(14) -0.0025(2)
N7 N -0.14793(14) 0.13138(16) 0.1441(2)
N8 N -0.14870(13) 0.38396(16) 0.1417(2)
N9 N -0.10090(14) 0.12808(16) 0.3535(2)
O5 O -0.12861(11) 0.37916(14) -0.0156(2)
N10 N -0.02477(12) 0.45399(15) 0.3527(2)
C1 C -0.17595(16) 0.21904(19) 0.2500(3)
C2 C -0.07735(15) 0.47804(18) 0.2487(3)
C3 C -0.12892(15) 0.42568(18) 0.2496(3)
C4 C 0.03214(16) 0.00617(18) 0.2517(3)
C5 C -0.15673(15) 0.13385(19) 0.2474(3)
C6 C 0.06572(19) 0.0605(2) 0.1040(3)
C7 C -0.13170(17) 0.0649(2) 0.0989(3)
C8 C -0.19500(16) 0.32657(19) 0.1007(3)
C9 C -0.23638(19) 0.2289(3) 0.2493(4)
C10 C -0.03478(15) 0.4869(2) 0.1016(3)
C11 C -0.11764(16) 0.40290(19) 0.0807(3)
C12 C -0.03562(16) 0.07299(18) 0.0888(3)
C13 C -0.03724(16) 0.39570(18) 0.4082(3)
C14 C -0.15870(15) 0.19927(19) 0.0874(3)
C15 C 0.0591(2) -0.0715(2) 0.2579(4)
C16 C -0.1808(2) 0.4680(3) 0.2550(4)
C17 C -0.12320(19) 0.32435(19) 0.3998(3)
C18 C -0.2030(2) 0.0759(3) 0.2430(5)
C19 C -0.0892(2) 0.5626(2) 0.2471(4)
C20 C -0.08604(16) 0.19404(19) 0.4168(3)
H1 H -0.0635(17) 0.583(2) 0.250(3)
H2 H 0.0462(18) 0.069(2) 0.023(3)
H3 H -0.0334(15) 0.5405(19) 0.114(3)
H4 H 0.0904(16) 0.0251(19) 0.122(3)
H5 H -0.0516(15) 0.4814(18) 0.025(3)
H6 H -0.1513(17) 0.025(2) 0.110(3)
H7 H -0.143(2) 0.061(2) 0.024(4)
H8 H -0.2274(15) 0.3423(17) 0.112(3)
H9 H -0.213(2) 0.329(2) 0.009(4)
H10 H -0.1926(18) 0.035(2) 0.244(3)
H11 H 0.089(2) -0.069(2) 0.261(3)
H12 H -0.1579(19) 0.338(2) 0.392(3)
H13 H -0.2005(17) 0.500(2) 0.184(3)
H14 H -0.1318(18) 0.576(2) 0.173(3)
H15 H -0.2023(19) 0.445(2) 0.263(3)
H16 H 0.035(2) -0.095(3) 0.192(4)
H17 H -0.1037(17) 0.3203(19) 0.484(3)
H18 H 0.0591(19) -0.094(2) 0.322(4)
H19 H -0.1660(18) 0.502(2) 0.328(3)
H20 H -0.098(2) 0.581(2) 0.314(4)
H21 H -0.2362(18) 0.200(2) 0.307(4)
H22 H -0.2426(17) 0.2664(19) 0.252(3)
H23 H -0.244(2) 0.094(3) 0.173(4)
H24 H -0.2071(19) 0.083(2) 0.307(4)
H25 H -0.2718(14) 0.1981(15) 0.1740(16)
O1A O 0.04361(12) 0.20135(14) -0.0127(2)
O2A O 0.15666(12) 0.21084(14) 0.5040(2)
O3A O 0.00081(11) 0.36651(14) 0.0025(2)
N1A N 0.09669(13) 0.37879(16) 0.1484(2)
N2A N -0.02177(13) 0.04590(16) 0.3542(2)
N3A N 0.07428(13) 0.45385(16) 0.3560(2)
N4A N 0.06781(14) 0.05065(16) 0.3546(3)
N5A N 0.17475(14) 0.25067(14) 0.3534(3)
N6A N 0.12682(15) 0.24802(15) 0.1435(3)
O4A O 0.05599(12) 0.10870(14) 0.5025(2)
N7A N 0.14793(14) 0.13138(16) 0.3559(2)
N8A N 0.14870(13) 0.38396(16) 0.3583(2)
N9A N 0.10090(14) 0.12808(16) 0.1465(2)
O5A O 0.12861(11) 0.37916(14) 0.5156(2)
N10A N 0.02477(12) 0.45399(15) 0.1473(2)
C1A C 0.17595(16) 0.21904(19) 0.2500(3)
C2A C 0.07735(15) 0.47804(18) 0.2513(3)
C3A C 0.12892(15) 0.42568(18) 0.2504(3)
C4A C -0.03214(16) 0.00617(18) 0.2483(3)
C5A C 0.15673(15) 0.13385(19) 0.2526(3)
C6A C -0.06572(19) 0.0605(2) 0.3960(3)
C7A C 0.13170(17) 0.0649(2) 0.4011(3)
C8A C 0.19500(16) 0.32657(19) 0.3993(3)
C9A C 0.23638(19) 0.2289(3) 0.2507(4)
C10A C 0.03478(15) 0.4869(2) 0.3984(3)
C11A C 0.11764(16) 0.40290(19) 0.4193(3)
C12A C 0.03562(16) 0.07299(18) 0.4112(3)
C13A C 0.03724(16) 0.39570(18) 0.0918(3)
C14A C 0.15870(15) 0.19927(19) 0.4126(3)
C15A C -0.0591(2) -0.0715(2) 0.2421(4)
C16A C 0.1808(2) 0.4680(3) 0.2450(4)
C17A C 0.12320(19) 0.32435(19) 0.1002(3)
C18A C 0.2030(2) 0.0759(3) 0.2570(5)
C19A C 0.0892(2) 0.5626(2) 0.2529(4)
C20A C 0.08604(16) 0.19404(19) 0.0832(3)
H1A H 0.0635(17) 0.583(2) 0.250(3)
H2A H -0.0462(18) 0.069(2) 0.477(3)
H3A H 0.0334(15) 0.5405(19) 0.386(3)
H4A H -0.0904(16) 0.0251(19) 0.378(3)
H5A H 0.0516(15) 0.4814(18) 0.475(3)
H6A H 0.1513(17) 0.025(2) 0.390(3)
H7A H 0.143(2) 0.061(2) 0.476(4)
H8A H 0.2274(15) 0.3423(17) 0.388(3)
H9A H 0.213(2) 0.329(2) 0.491(4)
H10A H 0.1926(18) 0.035(2) 0.256(3)
H11A H -0.089(2) -0.069(2) 0.239(3)
H12A H 0.1579(19) 0.338(2) 0.108(3)
H13A H 0.2005(17) 0.500(2) 0.316(3)
H14A H 0.1318(18) 0.576(2) 0.327(3)
H15A H 0.2023(19) 0.445(2) 0.237(3)
H16A H -0.035(2) -0.095(3) 0.308(4)
H17A H 0.1037(17) 0.3203(19) 0.016(3)
H18A H -0.0591(19) -0.094(2) 0.178(4)
H19A H 0.1660(18) 0.502(2) 0.172(3)
H20A H 0.098(2) 0.581(2) 0.186(4)
H21A H 0.2362(18) 0.200(2) 0.193(4)
H22A H 0.2426(17) 0.2664(19) 0.248(3)
H23A H 0.244(2) 0.094(3) 0.327(4)
H24A H 0.2071(19) 0.083(2) 0.193(4)
H25A H 0.2718(14) 0.1981(15) 0.3260(16)
K1A K 0.07621(5) 0.25518(5) 0.59021(9)
Cl2A Cl 0.15060(6) 0.24842(7) 0.86262(11)
Cl1F Cl -0.25293(6) 0.11883(7) -0.48691(11)
Pd1A Pd 0.2500 0.2500 1.0000
Cl2F Cl -0.34940(6) 0.25158(7) -0.63738(11)
O6 O -0.1828(2) 0.1054(2) -0.2071(4)
H26 H -0.193(2) 0.120(3) -0.283(2)
H27 H -0.168(2) 0.139(2) -0.146(3)
O6A O 0.1828(2) 0.1054(2) 0.7071(4)
H26A H 0.193(2) 0.120(3) 0.783(2)
H27A H 0.168(2) 0.139(2) 0.646(3)
O7 O 0.0000 0.2782(3) -0.2500
H28 H 0.0308(15) 0.256(2) -0.203(4)
H28A H -0.0308(15) 0.256(2) -0.297(4)
O8 O 0.0000 0.2501(9) 0.2500
H29 H 0.0103 0.2522 0.3214
H29A H -0.0103 0.2522 0.1786
loop_
_geom_bond_atom_site_label_1
_geom_bond_atom_site_label_2
_geom_bond_site_symmetry_1
_geom_bond_site_symmetry_2
Pd1 Cl1 1_555 1_555
K1 O2 1_555 1_555
O1 C20 1_555 1_555
O2 C14 1_555 1_555
Cl2 Pd1 1_555 1_555
O3 C13 1_555 1_555
N1 C3 1_555 1_555
N2 C4 1_555 1_555
N3 C2 1_555 1_555
N4 C7 1_555 1_555
N5 C1 1_555 1_555
N6 C1 1_555 1_555
O4 K1 1_555 1_555
N7 C5 1_555 1_555
N8 C3 1_555 1_555
N9 C5 1_555 1_555
O5 K1 1_555 1_555
N10 C2 1_555 1_555
C1 C5 1_555 1_555
C2 C3 1_555 1_555
C3 C16 1_555 1_555
C4 C15 1_555 1_555
C5 C18 1_555 1_555
C6 N2 1_555 1_555
C7 N7 1_555 1_555
C8 N5 1_555 1_555
C9 C1 1_555 1_555
C10 N3 1_555 1_555
C11 N3 1_555 1_555
C12 N2 1_555 1_555
C13 N1 1_555 1_555
C14 N5 1_555 1_555
C15 H11 1_555 1_555
C16 H13 1_555 1_555
C17 N1 1_555 1_555
C18 H10 1_555 1_555
C19 C2 1_555 1_555
C20 N6 1_555 1_555
H1 C19 1_555 1_555
H2 C6 1_555 1_555
H3 C10 1_555 1_555
H4 C6 1_555 1_555
H5 C10 1_555 1_555
H6 C7 1_555 1_555
H7 C7 1_555 1_555
H8 C8 1_555 1_555
H9 C8 1_555 1_555
H12 C17 1_555 1_555
H14 C19 1_555 1_555
H15 C16 1_555 1_555
H16 C15 1_555 1_555
H17 C17 1_555 1_555
H18 C15 1_555 1_555
H19 C16 1_555 1_555
H20 C19 1_555 1_555
H21 C9 1_555 1_555
H22 C9 1_555 1_555
H23 C18 1_555 1_555
H24 C18 1_555 1_555
H25 C9 1_555 1_555
O6 H26 1_555 1_555
H27 O6 1_555 1_555
O7 H28 1_555 1_555
O8 H29 1_555 1_555
O1A K1 1_555 1_555
O2A C14A 1_555 1_555
O3A K1 1_555 1_555
N1A C3A 1_555 1_555
N2A C4A 1_555 1_555
N3A C2A 1_555 1_555
N4A C4 1_555 1_555
N5A C1A 1_555 1_555
N6A C1A 1_555 1_555
O4A C12A 1_555 1_555
N7A C5A 1_555 1_555
N8A C3A 1_555 1_555
N9A C6 1_555 1_555
O5A C11A 1_555 1_555
N10A C10 1_555 1_555
C1A C5A 1_555 1_555
C2A N10A 1_555 1_555
C3A C2A 1_555 1_555
C4A N4 1_555 1_555
C5A N9A 1_555 1_555
C6A N9 1_555 1_555
C7A N4A 1_555 1_555
C8A N5A 1_555 1_555
C9A C1A 1_555 1_555
C10A N10 1_555 1_555
C11A N3A 1_555 1_555
C12A N2A 1_555 1_555
C13A O3A 1_555 1_555
C14A N5A 1_555 1_555
C15A C4A 1_555 1_555
C16A C3A 1_555 1_555
C17A N1A 1_555 1_555
C18A C5A 1_555 1_555
C19A C2A 1_555 1_555
C20A O1A 1_555 1_555
H1A C19A 1_555 1_555
H2A C6A 1_555 1_555
H3A C10A 1_555 1_555
H4A C6A 1_555 1_555
H5A C10A 1_555 1_555
H6A C7A 1_555 1_555
H7A C7A 1_555 1_555
H8A C8A 1_555 1_555
H9A C8A 1_555 1_555
H10A C18A 1_555 1_555
H11A C15A 1_555 1_555
H12A C17A 1_555 1_555
H13A C16A 1_555 1_555
H14A C19A 1_555 1_555
H15A C16A 1_555 1_555
H16A C15A 1_555 1_555
H17A C17A 1_555 1_555
H18A C15A 1_555 1_555
H19A C16A 1_555 1_555
H20A C19A 1_555 1_555
H21A C9A 1_555 1_555
H22A C9A 1_555 1_555
H23A C18A 1_555 1_555
H24A C18A 1_555 1_555
H25A C9A 1_555 1_555
K1A O1 1_555 1_555
Cl2A K1A 1_555 1_555
Cl1F Pd1 1_555 1_555
Pd1A Cl2A 1_555 1_555
Cl2F Pd1 1_555 1_555
O6A H26A 1_555 1_555
H27A O6A 1_555 1_555
H28A O7 1_555 1_555
H29A O8 1_555 1_555
K1 Cl2 1_555 1_555
O3 K1A 1_555 1_555
N4 C12 1_555 1_555
N6 C17 1_555 1_555
O4 C12 1_555 1_555
N7 C14 1_555 1_555
N8 C8 1_555 1_555
N8 C11 1_555 1_555
N9 C20 1_555 1_555
O5 C11 1_555 1_555
N10 C13 1_555 1_555
C4 C4A 1_555 1_555
O2A K1A 1_555 1_555
N1A C13A 1_555 1_555
N2A C6A 1_555 1_555
N3A C10A 1_555 1_555
N4A C12A 1_555 1_555
N6A C17A 1_555 1_555
N6A C20A 1_555 1_555
O4A K1A 1_555 1_555
N7A C7A 1_555 1_555
N7A C14A 1_555 1_555
N8A C8A 1_555 1_555
N8A C11A 1_555 1_555
N9A C20A 1_555 1_555
O5A K1A 1_555 1_555
N10A C13A 1_555 1_555

#END
