
#######################################################################
#
#                 Cambridge Crystallographic Data Centre
#                                CCDC 
#
#######################################################################
#
# If this CIF has been generated from an entry in the Cambridge 
# Structural Database, then it will include bibliographic, chemical, 
# crystal, experimental, refinement or atomic coordinate data resulting 
# from the CCDC's data processing and validation procedures.
#
#######################################################################

data_QISNEN
_symmetry_cell_setting           orthorhombic
_symmetry_space_group_name_H-M   'P 21 21 21'
_symmetry_Int_Tables_number      19
_space_group_name_Hall           'P 2ac 2ab'
loop_
_symmetry_equiv_pos_site_id
_symmetry_equiv_pos_as_xyz
1 x,y,z
2 1/2-x,-y,1/2+z
3 -x,1/2+y,1/2-z
4 1/2+x,1/2-y,-z
_cell_length_a                   12.8174(4)
_cell_length_b                   15.0318(5)
_cell_length_c                   15.4448(6)
_cell_angle_alpha                90
_cell_angle_beta                 90
_cell_angle_gamma                90
_cell_volume                     2975.73
loop_
_atom_site_label
_atom_site_type_symbol
_atom_site_fract_x
_atom_site_fract_y
_atom_site_fract_z
Cd1 Cd 0.23775(4) 0.21634(4) 0.22631(3)
Br1 Br 0.09443(9) 0.29451(10) 0.31183(9)
N1 N 0.3946(10) 0.0698(10) -0.1886(7)
N2 N 0.5367(9) -0.1876(7) 0.0541(8)
N3 N 0.7576(9) 0.0667(8) 0.1213(8)
C1 C 0.1841(6) 0.1109(6) 0.0666(5)
C2 C 0.1269(6) 0.0957(6) -0.0175(5)
C3 C 0.1561(6) 0.0249(5) -0.0715(5)
H1 H 0.2113 -0.0118 -0.0555
C4 C 0.1042(6) 0.0091(5) -0.1473(5)
C5 C 0.0252(6) 0.0662(5) -0.1748(6)
H2 H -0.0086 0.0569 -0.2273
C6 C -0.0023(6) 0.1386(6) -0.1210(5)
C7 C 0.0482(6) 0.1530(5) -0.0446(5)
H3 H 0.0300 0.2015 -0.0104
C8 C -0.0895(6) 0.2000(6) -0.1509(6)
C9 C 0.1330(7) -0.0679(5) -0.2061(6)
C10 C 0.4059(12) 0.1128(12) -0.1237(9)
C11 C 0.3516(12) 0.2021(12) -0.1372(9)
H4 H 0.3600 0.2381 -0.0864
H5 H 0.2787 0.1924 -0.1478
H6 H 0.3820 0.2320 -0.1860
C12 C 0.3506(11) 0.0815(13) -0.2694(8)
H7 H 0.3141 0.1373 -0.2710
H8 H 0.3025 0.0339 -0.2809
H9 H 0.4045 0.0815 -0.3126
C13 C 0.4563(12) -0.0147(11) -0.1709(10)
H10 H 0.4816 -0.0138 -0.1124
H11 H 0.5143 -0.0180 -0.2101
H12 H 0.4120 -0.0655 -0.1790
C14 C 0.4718(12) -0.1264(8) 0.0677(10)
C15 C 0.3581(12) -0.1492(10) 0.0715(12)
H13 H 0.3184 -0.0964 0.0832
H14 H 0.3464 -0.1919 0.1167
H15 H 0.3366 -0.1740 0.0171
C16 C 0.6455(12) -0.1648(10) 0.0484(11)
H16 H 0.6535 -0.1016 0.0541
H17 H 0.6724 -0.1835 -0.0067
H18 H 0.6831 -0.1942 0.0939
C17 C 0.5134(13) -0.2815(8) 0.0472(10)
H19 H 0.4393 -0.2901 0.0495
H20 H 0.5457 -0.3127 0.0943
H21 H 0.5398 -0.3039 -0.0067
C18 C 0.6867(10) 0.0988(10) 0.0760(9)
C19 C 0.7066(10) 0.1083(10) -0.0209(8)
H22 H 0.7727 0.0819 -0.0351
H23 H 0.7075 0.1702 -0.0362
H24 H 0.6522 0.0787 -0.0524
C20 C 0.7299(12) 0.0543(11) 0.2152(9)
H25 H 0.6615 0.0780 0.2257
H26 H 0.7798 0.0849 0.2507
H27 H 0.7306 -0.0080 0.2290
C21 C 0.8629(11) 0.0314(11) 0.0968(11)
H28 H 0.8748 0.0415 0.0362
H29 H 0.8656 -0.0313 0.1085
H30 H 0.9156 0.0613 0.1299
O1 O 0.1486(4) 0.1701(4) 0.1143(4)
O2 O 0.2618(5) 0.0630(4) 0.0812(4)
O3 O -0.1157(4) 0.2619(4) -0.1018(4)
O4 O -0.1349(5) 0.1826(5) -0.2216(5)
O5 O 0.0739(5) -0.0860(5) -0.2671(4)
O6 O 0.2144(5) -0.1094(4) -0.1860(4)
O7 O 0.4455(8) 0.1012(8) -0.0546(5)
O8 O 0.4941(7) -0.0485(5) 0.0785(6)
O9 O 0.6043(5) 0.1303(5) 0.1084(6)
Cd2 Cd 0.43557(5) 0.09303(4) 0.08785(4)
Cd1A Cd 0.26225(4) -0.21634(4) -0.27369(3)
Cd1C Cd -0.26225(4) 0.28366(4) -0.22631(3)
O3C O 0.3843(4) 0.2381(4) 0.1018(4)
O4C O 0.3651(5) 0.3174(5) 0.2216(5)
O5A O 0.4261(5) 0.0860(5) 0.2329(4)
O6A O 0.2856(5) 0.1094(4) 0.3140(4)
Cd2A Cd 0.06443(5) -0.09303(4) -0.41215(4)
Cd2C Cd -0.06443(5) 0.40697(4) -0.08785(4)
loop_
_geom_bond_atom_site_label_1
_geom_bond_atom_site_label_2
_geom_bond_site_symmetry_1
_geom_bond_site_symmetry_2
Cd1 Br1 1_555 1_555
N1 C10 1_555 1_555
N2 C14 1_555 1_555
N3 C18 1_555 1_555
C1 C2 1_555 1_555
C2 C3 1_555 1_555
C3 H1 1_555 1_555
C4 C3 1_555 1_555
C5 C4 1_555 1_555
H2 C5 1_555 1_555
C6 C5 1_555 1_555
C7 C2 1_555 1_555
H3 C7 1_555 1_555
C8 C6 1_555 1_555
C9 C4 1_555 1_555
C10 C11 1_555 1_555
C11 H4 1_555 1_555
H5 C11 1_555 1_555
H6 C11 1_555 1_555
C12 N1 1_555 1_555
H7 C12 1_555 1_555
H8 C12 1_555 1_555
H9 C12 1_555 1_555
C13 N1 1_555 1_555
H10 C13 1_555 1_555
H11 C13 1_555 1_555
H12 C13 1_555 1_555
C14 C15 1_555 1_555
C15 H13 1_555 1_555
H14 C15 1_555 1_555
H15 C15 1_555 1_555
C16 N2 1_555 1_555
H16 C16 1_555 1_555
H17 C16 1_555 1_555
H18 C16 1_555 1_555
C17 N2 1_555 1_555
H19 C17 1_555 1_555
H20 C17 1_555 1_555
H21 C17 1_555 1_555
C18 C19 1_555 1_555
C19 H22 1_555 1_555
H23 C19 1_555 1_555
H24 C19 1_555 1_555
C20 N3 1_555 1_555
H25 C20 1_555 1_555
H26 C20 1_555 1_555
H27 C20 1_555 1_555
C21 N3 1_555 1_555
H28 C21 1_555 1_555
H29 C21 1_555 1_555
H30 C21 1_555 1_555
O1 Cd1 1_555 1_555
O2 C1 1_555 1_555
O3 C8 1_555 1_555
O4 C8 1_555 1_555
O5 C9 1_555 1_555
O6 C9 1_555 1_555
O7 C10 1_555 1_555
O8 C14 1_555 1_555
O9 C18 1_555 1_555
Cd2 O2 1_555 1_555
Cd1A O6 1_555 1_555
Cd1C O3 1_555 1_555
O3C Cd1 1_555 1_555
O4C Cd1 1_555 1_555
O5A Cd2 1_555 1_555
O6A Cd1 1_555 1_555
Cd2A O5 1_555 1_555
Cd2C O3 1_555 1_555
C1 O1 1_555 1_555
C6 C7 1_555 1_555
O4 Cd1C 1_555 1_555
O7 Cd2 1_555 1_555
O8 Cd2 1_555 1_555
O9 Cd2 1_555 1_555
Cd2 O3C 1_555 1_555

#END
