
#######################################################################
#
#                 Cambridge Crystallographic Data Centre
#                                CCDC 
#
#######################################################################
#
# If this CIF has been generated from an entry in the Cambridge 
# Structural Database, then it will include bibliographic, chemical, 
# crystal, experimental, refinement or atomic coordinate data resulting 
# from the CCDC's data processing and validation procedures.
#
#######################################################################

data_QISNAJ
_symmetry_cell_setting           orthorhombic
_symmetry_space_group_name_H-M   'P 21 21 21'
_symmetry_Int_Tables_number      19
_space_group_name_Hall           'P 2ac 2ab'
loop_
_symmetry_equiv_pos_site_id
_symmetry_equiv_pos_as_xyz
1 x,y,z
2 1/2-x,-y,1/2+z
3 1/2+x,1/2-y,-z
4 -x,1/2+y,1/2-z
_cell_length_a                   12.7792(4)
_cell_length_b                   14.8175(6)
_cell_length_c                   15.4737(5)
_cell_angle_alpha                90
_cell_angle_beta                 90
_cell_angle_gamma                90
_cell_volume                     2930.03
loop_
_atom_site_label
_atom_site_type_symbol
_atom_site_fract_x
_atom_site_fract_y
_atom_site_fract_z
Cd1 Cd 0.23507(4) -0.28017(4) -0.72752(3)
Cd2 Cd 0.43340(4) -0.40739(4) -0.59125(4)
Cl1 Cl 0.10030(19) -0.2008(2) -0.80676(19)
O1 O 0.2599(4) -0.4375(3) -0.5857(4)
O2 O 0.1455(4) -0.3292(4) -0.6177(3)
O3 O -0.1187(4) -0.2399(3) -0.3982(4)
O4 O -0.1359(5) -0.3214(4) -0.2811(4)
O5 O 0.0789(4) -0.5911(4) -0.2357(3)
O6 O 0.2186(4) -0.6130(4) -0.3173(4)
O7 O 0.4460(6) -0.4054(7) -0.4486(4)
O8 O 0.4930(6) -0.5513(5) -0.5861(6)
O9 O 0.6017(4) -0.3687(5) -0.6113(6)
N1 N 0.4006(8) -0.4331(9) -0.3127(7)
N2 N 0.5371(8) -0.6908(6) -0.5509(7)
N3 N 0.7561(7) -0.4356(7) -0.6226(7)
C1 C 0.1822(6) -0.3894(5) -0.5684(5)
C2 C -0.0911(6) -0.3028(5) -0.3495(5)
C3 C 0.1379(6) -0.5716(5) -0.2977(5)
C4 C 0.1267(5) -0.4056(5) -0.4855(5)
C5 C 0.0471(5) -0.3477(5) -0.4568(5)
H1 H 0.0282 -0.2983 -0.4905
C6 C -0.0039(5) -0.3631(5) -0.3791(5)
C7 C 0.0261(6) -0.4364(5) -0.3278(5)
H2 H -0.0080 -0.4474 -0.2758
C8 C 0.1063(5) -0.4924(5) -0.3544(5)
C9 C 0.1554(5) -0.4764(5) -0.4312(5)
H3 H 0.2099 -0.5141 -0.4480
C10 C 0.4067(9) -0.3895(10) -0.3798(8)
C11 C 0.3519(10) -0.2984(10) -0.3658(9)
H4 H 0.3556 -0.2635 -0.4180
H5 H 0.3859 -0.2663 -0.3199
H6 H 0.2799 -0.3085 -0.3510
C12 C 0.4611(10) -0.5201(10) -0.3278(10)
H7 H 0.4855 -0.5219 -0.3864
H8 H 0.4161 -0.5708 -0.3172
H9 H 0.5198 -0.5226 -0.2892
C13 C 0.3560(10) -0.4150(11) -0.2293(7)
H10 H 0.3223 -0.3571 -0.2301
H11 H 0.4104 -0.4149 -0.1865
H12 H 0.3056 -0.4608 -0.2155
C14 C 0.4677(10) -0.6293(8) -0.5698(9)
C15 C 0.3546(9) -0.6535(8) -0.5620(10)
H13 H 0.3125 -0.6021 -0.5768
H14 H 0.3398 -0.6714 -0.5037
H15 H 0.3389 -0.7024 -0.6006
C16 C 0.5104(10) -0.7839(7) -0.5357(9)
H16 H 0.4356 -0.7903 -0.5345
H17 H 0.5389 -0.8028 -0.4812
H18 H 0.5388 -0.8206 -0.5811
C17 C 0.6470(10) -0.6654(8) -0.5560(9)
H19 H 0.6525 -0.6020 -0.5681
H20 H 0.6804 -0.6991 -0.6012
H21 H 0.6807 -0.6783 -0.5019
C18 C 0.6849(8) -0.4024(9) -0.5792(8)
C19 C 0.7293(10) -0.4480(10) -0.7176(8)
H22 H 0.6628 -0.4205 -0.7295
H23 H 0.7257 -0.5113 -0.7307
H24 H 0.7823 -0.4202 -0.7525
C20 C 0.8577(8) -0.4727(9) -0.5975(10)
H25 H 0.8679 -0.4643 -0.5365
H26 H 0.9122 -0.4421 -0.6286
H27 H 0.8597 -0.5359 -0.6108
C21 C 0.7026(8) -0.3919(9) -0.4819(8)
H28 H 0.7675 -0.4200 -0.4661
H29 H 0.6462 -0.4202 -0.4511
H30 H 0.7050 -0.3289 -0.4674
Cd1A Cd 0.26493(4) -0.71983(4) -0.22752(3)
Cd1B Cd -0.26493(4) -0.21983(4) -0.27248(3)
Cd2A Cd 0.06660(4) -0.59261(4) -0.09125(4)
Cd2B Cd -0.06660(4) -0.09261(4) -0.40875(4)
O3B O 0.3813(4) -0.2601(3) -0.6018(4)
O4B O 0.3641(5) -0.1786(4) -0.7189(4)
O5A O 0.4211(4) -0.4089(4) -0.7357(3)
O6A O 0.2814(4) -0.3870(4) -0.8173(4)
loop_
_geom_bond_atom_site_label_1
_geom_bond_atom_site_label_2
_geom_bond_site_symmetry_1
_geom_bond_site_symmetry_2
Cd1 Cl1 1_555 1_555
Cd2 O1 1_555 1_555
O1 C1 1_555 1_555
O2 Cd1 1_555 1_555
O3 C2 1_555 1_555
O4 C2 1_555 1_555
O5 C3 1_555 1_555
O6 C3 1_555 1_555
O7 Cd2 1_555 1_555
O8 Cd2 1_555 1_555
O9 Cd2 1_555 1_555
N1 C10 1_555 1_555
N2 C14 1_555 1_555
N3 C18 1_555 1_555
C1 O2 1_555 1_555
C2 C6 1_555 1_555
C3 C8 1_555 1_555
C4 C1 1_555 1_555
C5 C4 1_555 1_555
H1 C5 1_555 1_555
C6 C5 1_555 1_555
C7 C6 1_555 1_555
H2 C7 1_555 1_555
C8 C7 1_555 1_555
C9 C4 1_555 1_555
H3 C9 1_555 1_555
C10 O7 1_555 1_555
C11 C10 1_555 1_555
H4 C11 1_555 1_555
H5 C11 1_555 1_555
H6 C11 1_555 1_555
C12 N1 1_555 1_555
H7 C12 1_555 1_555
H8 C12 1_555 1_555
H9 C12 1_555 1_555
C13 N1 1_555 1_555
H10 C13 1_555 1_555
H11 C13 1_555 1_555
H12 C13 1_555 1_555
C14 O8 1_555 1_555
C15 C14 1_555 1_555
H13 C15 1_555 1_555
H14 C15 1_555 1_555
H15 C15 1_555 1_555
C16 N2 1_555 1_555
H16 C16 1_555 1_555
H17 C16 1_555 1_555
H18 C16 1_555 1_555
C17 N2 1_555 1_555
H19 C17 1_555 1_555
H20 C17 1_555 1_555
H21 C17 1_555 1_555
C18 O9 1_555 1_555
C19 N3 1_555 1_555
H22 C19 1_555 1_555
H23 C19 1_555 1_555
H24 C19 1_555 1_555
C20 N3 1_555 1_555
H25 C20 1_555 1_555
H26 C20 1_555 1_555
H27 C20 1_555 1_555
C21 C18 1_555 1_555
H28 C21 1_555 1_555
H29 C21 1_555 1_555
H30 C21 1_555 1_555
Cd1A O6 1_555 1_555
Cd1B O3 1_555 1_555
Cd2A O5 1_555 1_555
Cd2B O3 1_555 1_555
O3B Cd1 1_555 1_555
O4B Cd1 1_555 1_555
O5A Cd2 1_555 1_555
O6A Cd1 1_555 1_555
Cd2 O3B 1_555 1_555
O4 Cd1B 1_555 1_555
C8 C9 1_555 1_555

#END
