
#######################################################################
#
#                 Cambridge Crystallographic Data Centre
#                                CCDC 
#
#######################################################################
#
# If this CIF has been generated from an entry in the Cambridge 
# Structural Database, then it will include bibliographic, chemical, 
# crystal, experimental, refinement or atomic coordinate data resulting 
# from the CCDC's data processing and validation procedures.
#
#######################################################################

data_QISNUD
_symmetry_cell_setting           rhombohedral
_symmetry_space_group_name_H-M   'R -3'
_symmetry_Int_Tables_number      148
_space_group_name_Hall           '-R 3'
loop_
_symmetry_equiv_pos_site_id
_symmetry_equiv_pos_as_xyz
1 x,y,z
2 -y,x-y,z
3 -x+y,-x,z
4 2/3+x,1/3+y,1/3+z
5 2/3-y,1/3+x-y,1/3+z
6 2/3-x+y,1/3-x,1/3+z
7 1/3+x,2/3+y,2/3+z
8 1/3-y,2/3+x-y,2/3+z
9 1/3-x+y,2/3-x,2/3+z
10 -x,-y,-z
11 y,-x+y,-z
12 x-y,x,-z
13 1/3-x,2/3-y,2/3-z
14 1/3+y,2/3-x+y,2/3-z
15 1/3+x-y,2/3+x,2/3-z
16 2/3-x,1/3-y,1/3-z
17 2/3+y,1/3-x+y,1/3-z
18 2/3+x-y,1/3+x,1/3-z
_cell_length_a                   22.080(8)
_cell_length_b                   22.080(8)
_cell_length_c                   31.19(2)
_cell_angle_alpha                90
_cell_angle_beta                 90
_cell_angle_gamma                120
_cell_volume                     13168.7
loop_
_atom_site_label
_atom_site_type_symbol
_atom_site_fract_x
_atom_site_fract_y
_atom_site_fract_z
C1 C 1.0763(2) 0.8280(2) 0.3097(2)
H1 H 1.1097 0.8146 0.3138
C2 C 1.0883(2) 0.8926(2) 0.3135(2)
H2 H 1.1309 0.9320 0.3201
C3 C 0.9820(2) 0.8242(2) 0.29690(16)
H3 H 0.9356 0.8083 0.2897
C4 C 1.01374(19) 0.94649(19) 0.30641(13)
C5 C 0.94563(19) 0.9321(2) 0.30662(14)
H4 H 0.9089 0.8862 0.3069
C6 C 0.9138(2) 0.5087(2) 0.28564(17)
H5 H 0.9609 0.5222 0.2880
C7 C 0.8626(2) 0.4440(2) 0.27953(18)
H6 H 0.8671 0.4045 0.2766
C8 C 0.8209(2) 0.5131(2) 0.28348(14)
H7 H 0.7895 0.5295 0.2839
C9 C 0.73292(19) 0.38843(19) 0.27547(14)
C10 C 0.6779(2) 0.4005(2) 0.27508(14)
H8 H 0.6856 0.4459 0.2745
C11 C 0.8533(2) 0.4715(2) 0.13246(15)
H9 H 0.8372 0.4979 0.1185
C12 C 0.9194(2) 0.4395(2) 0.16100(17)
H10 H 0.9593 0.4398 0.1708
C13 C 0.8543(2) 0.3866(2) 0.16548(18)
H11 H 0.8407 0.3439 0.1787
C14 C 0.73732(19) 0.36948(19) 0.14594(14)
C15 C 0.70194(19) 0.4053(2) 0.14635(14)
H12 H 0.7257 0.4540 0.1469
C16 C 1.0800(2) 0.5212(2) 0.09812(17)
H13 H 1.0390 0.4792 0.0928
C17 C 1.1438(2) 0.5307(2) 0.09360(19)
H14 H 1.1557 0.4978 0.0846
C18 C 1.1481(2) 0.6251(2) 0.11537(15)
H15 H 1.1654 0.6709 0.1245
C19 C 1.26226(19) 0.63323(19) 0.10487(14)
C20 C 1.29944(19) 0.70495(19) 0.10473(14)
H16 H 1.2766 0.7307 0.1046
C21 C 1.05076(19) 0.70549(19) 0.05809(13)
C22 C 1.01199(18) 0.64625(19) 0.21617(12)
C23 C 0.9535(2) 0.65675(19) 0.19830(13)
C24 C 0.9840(3) 0.6410(2) 0.04225(13)
Mn1 Mn 1.00010(3) 0.60343(3) 0.127235(18)
Mn2 Mn 0.94785(3) 0.66856(3) 0.295204(18)
N1 N 1.00896(16) 0.78397(16) 0.29901(11)
N2 N 1.02761(16) 0.89064(15) 0.30604(11)
N3 N 0.88766(16) 0.55276(16) 0.28791(11)
N4 N 0.80202(15) 0.44581(15) 0.27830(12)
N5 N 0.91890(16) 0.49352(16) 0.13992(11)
N6 N 0.81154(15) 0.40695(15) 0.14697(11)
N7 N 1.08224(15) 0.58007(16) 0.11144(12)
N8 N 1.18856(15) 0.59828(16) 0.10486(11)
O1 O 0.97085(21) 0.63994(15) 0.00411(9)
O2 O 1.08552(21) 0.75036(14) 0.03167(9)
O3 O 0.84819(14) 0.67240(17) 0.29332(9)
H17 H 0.8295 0.6589 0.2698
O4 O 1.02668(13) 0.66000(14) 0.25386(8)
O5 O 0.92391(15) 0.67627(15) 0.22349(9)
O6 O 0.93891(13) 0.64312(14) 0.15948(9)
O7 O 1.03987(13) 0.62417(14) 0.19055(8)
O8 O 0.94851(14) 0.59510(14) 0.06852(9)
O9 O 1.06460(13) 0.70687(13) 0.09699(8)
C1A C 1.1720(2) 1.2483(3) 0.3097(2)
H1A H 1.1854 1.2951 0.3138
C2A C 1.1074(2) 1.1957(3) 0.3135(2)
H2A H 1.0680 1.1989 0.3201
C3A C 1.1758(2) 1.1578(3) 0.29690(16)
H3A H 1.1917 1.1273 0.2897
C4A C 1.05351(19) 1.06725(27) 0.30641(13)
C5A C 1.0679(2) 1.01353(28) 0.30662(14)
H4A H 1.1138 1.0227 0.3069
N1A N 1.21603(16) 1.22499(23) 0.29901(11)
N2A N 1.10936(15) 1.13697(22) 0.30604(11)
C1B C 0.7517(3) 0.9237(2) 0.3097(2)
H1B H 0.7049 0.8903 0.3138
C2B C 0.8043(3) 0.9117(2) 0.3135(2)
H2B H 0.8011 0.8691 0.3201
C3B C 0.8422(3) 1.0180(2) 0.29690(16)
H3B H 0.8727 1.0644 0.2897
C4B C 0.93275(27) 0.98626(19) 0.30641(13)
C5B C 0.98647(28) 1.05437(19) 0.30662(14)
H4B H 0.9773 1.0911 0.3069
N1B N 0.77501(23) 0.99104(16) 0.29901(11)
N2B N 0.86303(22) 0.97239(16) 0.30604(11)
C6A C 0.4913(2) 0.4051(3) 0.28564(17)
H5A H 0.4778 0.4387 0.2880
C7A C 0.5560(2) 0.4186(3) 0.27953(18)
H6A H 0.5955 0.4626 0.2766
C8A C 0.4869(2) 0.3078(3) 0.28348(14)
H7A H 0.4705 0.2600 0.2839
C9A C 0.61157(19) 0.34449(27) 0.27547(14)
C10A C 0.5995(2) 0.2774(3) 0.27508(14)
H8A H 0.5541 0.2397 0.2745
N3A N 0.44724(16) 0.33490(23) 0.28791(11)
N4A N 0.55419(15) 0.35621(21) 0.27830(12)
C6B C 0.5949(3) 0.0862(2) 0.28564(17)
H5B H 0.5613 0.0391 0.2880
C7B C 0.5814(3) 0.1374(2) 0.27953(18)
H6B H 0.5374 0.1329 0.2766
C8B C 0.6922(3) 0.1791(2) 0.28348(14)
H7B H 0.7400 0.2105 0.2839
C9B C 0.65551(27) 0.26708(19) 0.27547(14)
C10B C 0.7226(3) 0.3221(2) 0.27508(14)
H8B H 0.7603 0.3144 0.2745
N3B N 0.66510(23) 0.11234(16) 0.28791(11)
N4B N 0.64379(21) 0.19798(15) 0.27830(12)
C11A C 0.5285(2) 0.3818(3) 0.13246(15)
H9A H 0.5021 0.3393 0.1185
C12A C 0.5605(2) 0.4799(3) 0.16100(17)
H10A H 0.5602 0.5195 0.1708
C13A C 0.6134(2) 0.4677(3) 0.16548(18)
H11A H 0.6561 0.4968 0.1787
C14A C 0.63052(19) 0.36784(27) 0.14594(14)
C15A C 0.5947(2) 0.29664(28) 0.14635(14)
H12A H 0.5460 0.2717 0.1469
N5A N 0.50648(16) 0.42538(23) 0.13992(11)
N6A N 0.59305(15) 0.40459(21) 0.14697(11)
C11B C 0.6182(3) 0.1467(2) 0.13246(15)
H9B H 0.6607 0.1628 0.1185
C12B C 0.5201(3) 0.0806(2) 0.16100(17)
H10B H 0.4805 0.0407 0.1708
C13B C 0.5323(3) 0.1457(2) 0.16548(18)
H11B H 0.5032 0.1593 0.1787
C14B C 0.63216(27) 0.26268(19) 0.14594(14)
C15B C 0.70336(28) 0.29806(19) 0.14635(14)
H12B H 0.7283 0.2743 0.1469
N5B N 0.57462(23) 0.08110(16) 0.13992(11)
N6B N 0.59541(21) 0.18846(15) 0.14697(11)
C16A C 1.4788(2) 0.5588(3) 0.09812(17)
H13A H 1.5208 0.5598 0.0928
C17A C 1.4693(2) 0.6131(3) 0.09360(19)
H14A H 1.5022 0.6579 0.0846
C18A C 1.3749(2) 0.5230(3) 0.11537(15)
H15A H 1.3291 0.4945 0.1245
C19A C 1.36677(19) 0.62903(27) 0.10487(14)
C20A C 1.29505(19) 0.59449(27) 0.10473(14)
H16A H 1.2693 0.5459 0.1046
N7A N 1.41993(16) 0.50217(22) 0.11144(12)
N8A N 1.40172(16) 0.59028(22) 0.10486(11)
C16B C 1.4412(3) 0.9200(2) 0.09812(17)
H13B H 1.4402 0.9610 0.0928
C17B C 1.3869(3) 0.8562(2) 0.09360(19)
H14B H 1.3421 0.8443 0.0846
C18B C 1.4770(3) 0.8519(2) 0.11537(15)
H15B H 1.5055 0.8346 0.1245
C19B C 1.37097(27) 0.73774(19) 0.10487(14)
C20B C 1.40551(27) 0.70056(19) 0.10473(14)
H16B H 1.4541 0.7234 0.1046
N7B N 1.49783(22) 0.91776(15) 0.11144(12)
N8B N 1.40972(22) 0.81144(15) 0.10486(11)
C21A C 0.29451(19) 0.34527(27) 0.05809(13)
C22A C 0.35375(19) 0.36574(26) 0.21617(12)
C23A C 0.34325(19) 0.29675(28) 0.19830(13)
C24A C 0.3590(2) 0.3430(4) 0.04225(13)
Mn1A Mn 0.39657(3) 0.39667(4) 0.127235(18)
Mn2A Mn 0.33144(3) 0.27929(4) 0.295204(18)
O1A O 0.36006(15) 0.33091(26) 0.00411(9)
O2A O 0.24964(14) 0.33516(25) 0.03167(9)
O3A O 0.32760(17) 0.17579(22) 0.29332(9)
H17A H 0.3411 0.1706 0.2698
O4A O 0.34000(14) 0.36668(19) 0.25386(8)
O5A O 0.32373(15) 0.24764(21) 0.22349(9)
O6A O 0.35688(14) 0.29579(19) 0.15948(9)
O7A O 0.37583(14) 0.41570(19) 0.19055(8)
O8A O 0.40490(14) 0.35341(20) 0.06852(9)
O9A O 0.29313(13) 0.35773(18) 0.09699(8)
C21B C 0.65473(27) -0.05076(19) 0.05809(13)
C22B C 0.63426(26) -0.01199(18) 0.21617(12)
C23B C 0.70325(28) 0.0465(2) 0.19830(13)
C24B C 0.6570(4) 0.0160(3) 0.04225(13)
Mn1B Mn 0.60333(4) -0.00010(3) 0.127235(18)
Mn2B Mn 0.72071(4) 0.05215(3) 0.295204(18)
O1B O 0.66909(26) 0.02915(21) 0.00411(9)
O2B O 0.66484(25) -0.08552(21) 0.03167(9)
O3B O 0.82421(22) 0.15181(14) 0.29332(9)
H17B H 0.8294 0.1705 0.2698
O4B O 0.63332(19) -0.02668(13) 0.25386(8)
O5B O 0.75236(21) 0.07609(15) 0.22349(9)
O6B O 0.70421(19) 0.06109(13) 0.15948(9)
O7B O 0.58430(19) -0.03987(13) 0.19055(8)
O8B O 0.64659(20) 0.05149(14) 0.06852(9)
O9B O 0.64227(18) -0.06460(13) 0.09699(8)
Mn1A_2 Mn 1.39657(3) 0.39667(4) 0.127235(18)
Mn1B_2 Mn 1.60333(4) 0.99990(3) 0.127235(18)
Mn2A_2 Mn 1.33144(3) 1.27929(4) 0.295204(18)
Mn2B_2 Mn 0.72071(4) 1.05215(3) 0.295204(18)
Mn2F Mn 0.28118(3) 0.33523(3) -0.038129(18)
Mn2G Mn 0.66477(3) -0.05404(4) -0.038129(18)
Mn2H Mn 1.05404(4) 0.71882(3) -0.038129(18)
N1A_2 N 0.21603(16) 0.22499(23) 0.29901(11)
N1B_2 N 0.77501(23) -0.00896(16) 0.29901(11)
N7A_2 N 0.41993(16) 0.50217(22) 0.11144(12)
N7B_2 N 0.49783(22) -0.08224(15) 0.11144(12)
O1C O 0.63752(21) -0.02673(15) 0.33744(9)
O1D O 1.02673(15) 0.66424(26) 0.33744(9)
O1E O 0.33576(26) 0.36248(21) 0.33744(9)
O2C O 0.75219(21) 0.08369(14) 0.36500(9)
O2D O 0.91631(14) 0.66849(25) 0.36500(9)
O2E O 0.33151(25) 0.24781(21) 0.36500(9)
O10 O 0.09984(16) 0.59749(17) 0.32062(10)
H18 H 0.0843(19) 0.6242(16) 0.3228(12)
H19 H 0.096(3) 0.580(2) 0.2967(6)
O11 O 0.08832(15) 0.54730(14) 0.23550(11)
H20 H 0.0729(18) 0.5673(15) 0.2208(13)
H21 H 0.0641(18) 0.50454(19) 0.2357(15)
O12 O 0.79313(18) 0.57927(17) 0.15041(12)
H22 H 0.8092(19) 0.579(2) 0.1268(6)
H23 H 0.781(2) 0.6084(18) 0.1529(13)
O13 O 0.84842(19) 0.2583(2) 0.23304(12)
H24 H 0.8239(17) 0.237(2) 0.2124(7)
H25 H 0.8850(15) 0.2940(14) 0.2269(12)
loop_
_geom_bond_atom_site_label_1
_geom_bond_atom_site_label_2
_geom_bond_site_symmetry_1
_geom_bond_site_symmetry_2
C1 H1 1_555 1_555
C2 C1 1_555 1_555
H2 C2 1_555 1_555
C3 H3 1_555 1_555
C4 C5 1_555 1_555
C5 H4 1_555 1_555
C6 H5 1_555 1_555
C7 C6 1_555 1_555
H6 C7 1_555 1_555
C8 H7 1_555 1_555
C9 C10 1_555 1_555
C10 H8 1_555 1_555
C11 H9 1_555 1_555
C12 H10 1_555 1_555
C13 C12 1_555 1_555
H11 C13 1_555 1_555
C14 C15 1_555 1_555
C15 H12 1_555 1_555
C16 H13 1_555 1_555
C17 C16 1_555 1_555
H14 C17 1_555 1_555
C18 H15 1_555 1_555
C19 C20 1_555 1_555
C20 H16 1_555 1_555
C21 C24 1_555 1_555
C22 C23 1_555 1_555
C23 O5 1_555 1_555
C24 O1 1_555 1_555
Mn1 N5 1_555 1_555
Mn2 N1 1_555 1_555
N1 C1 1_555 1_555
N2 C2 1_555 1_555
N3 C6 1_555 1_555
N4 C7 1_555 1_555
N5 C11 1_555 1_555
N6 C11 1_555 1_555
N7 C16 1_555 1_555
N8 C17 1_555 1_555
O1 Mn2H 1_555 1_555
O2 C21 1_555 1_555
O3 Mn2 1_555 1_555
H17 O3 1_555 1_555
O4 C22 1_555 1_555
O5 Mn2 1_555 1_555
O6 C23 1_555 1_555
O7 C22 1_555 1_555
O8 C24 1_555 1_555
O9 C21 1_555 1_555
O10 H18 1_555 1_555
H19 O10 1_555 1_555
O11 H20 1_555 1_555
H21 O11 1_555 1_555
O12 H22 1_555 1_555
H23 O12 1_555 1_555
O13 H24 1_555 1_555
H25 O13 1_555 1_555
C1A H1A 1_555 1_555
C2A C1A 1_555 1_555
H2A C2A 1_555 1_555
C3A H3A 1_555 1_555
C4A C5A 1_555 1_555
C5A C4 1_555 1_555
H4A C5A 1_555 1_555
N1A C1A 1_555 1_555
N2A C2A 1_555 1_555
C1B H1B 1_555 1_555
C2B C1B 1_555 1_555
H2B C2B 1_555 1_555
C3B H3B 1_555 1_555
C4B C5 1_555 1_555
C5B C4A 1_555 1_555
H4B C5B 1_555 1_555
N1B C1B 1_555 1_555
N2B C2B 1_555 1_555
C6A H5A 1_555 1_555
C7A C6A 1_555 1_555
H6A C7A 1_555 1_555
C8A H7A 1_555 1_555
C9A C10 1_555 1_555
C10A C9A 1_555 1_555
H8A C10A 1_555 1_555
N3A C6A 1_555 1_555
N4A C7A 1_555 1_555
C6B H5B 1_555 1_555
C7B C6B 1_555 1_555
H6B C7B 1_555 1_555
C8B H7B 1_555 1_555
C9B C10A 1_555 1_555
C10B C9 1_555 1_555
H8B C10B 1_555 1_555
N3B C6B 1_555 1_555
N4B C7B 1_555 1_555
C11A H9A 1_555 1_555
C12A H10A 1_555 1_555
C13A C12A 1_555 1_555
H11A C13A 1_555 1_555
C14A C15 1_555 1_555
C15A C14A 1_555 1_555
H12A C15A 1_555 1_555
N5A C11A 1_555 1_555
N6A C11A 1_555 1_555
C11B H9B 1_555 1_555
C12B H10B 1_555 1_555
C13B C12B 1_555 1_555
H11B C13B 1_555 1_555
C14B C15A 1_555 1_555
C15B C14 1_555 1_555
H12B C15B 1_555 1_555
N5B C11B 1_555 1_555
N6B C11B 1_555 1_555
C16A H13A 1_555 1_555
C17A C16A 1_555 1_555
H14A C17A 1_555 1_555
C18A H15A 1_555 1_555
C19A C20A 1_555 1_555
C20A C19 1_555 1_555
H16A C20A 1_555 1_555
N7A C16A 1_555 1_555
N8A C17A 1_555 1_555
C16B H13B 1_555 1_555
C17B C16B 1_555 1_555
H14B C17B 1_555 1_555
C18B H15B 1_555 1_555
C19B C20 1_555 1_555
C20B C19A 1_555 1_555
H16B C20B 1_555 1_555
N7B C16B 1_555 1_555
N8B C17B 1_555 1_555
C21A C24A 1_555 1_555
C22A C23A 1_555 1_555
C23A O5A 1_555 1_555
C24A O1A 1_555 1_555
Mn1A N5A 1_555 1_555
Mn2A N3A 1_555 1_555
O1A Mn2F 1_555 1_555
O2A C21A 1_555 1_555
O3A Mn2A 1_555 1_555
H17A O3A 1_555 1_555
O4A C22A 1_555 1_555
O5A Mn2A 1_555 1_555
O6A C23A 1_555 1_555
O7A C22A 1_555 1_555
O8A C24A 1_555 1_555
O9A C21A 1_555 1_555
C21B C24B 1_555 1_555
C22B C23B 1_555 1_555
C23B O5B 1_555 1_555
C24B O1B 1_555 1_555
Mn1B N5B 1_555 1_555
Mn2B N3B 1_555 1_555
O1B Mn2G 1_555 1_555
O2B C21B 1_555 1_555
O3B Mn2B 1_555 1_555
H17B O3B 1_555 1_555
O4B C22B 1_555 1_555
O5B Mn2B 1_555 1_555
O6B C23B 1_555 1_555
O7B C22B 1_555 1_555
O8B C24B 1_555 1_555
O9B C21B 1_555 1_555
Mn1A_2 N7A 1_555 1_555
Mn1B_2 N7B 1_555 1_555
Mn2A_2 N1A 1_555 1_555
Mn2B_2 N1B 1_555 1_555
Mn2F O2A 1_555 1_555
Mn2G O2B 1_555 1_555
Mn2H O2 1_555 1_555
N1A_2 Mn2A 1_555 1_555
N1B_2 Mn2B 1_555 1_555
N7A_2 Mn1A 1_555 1_555
N7B_2 Mn1B 1_555 1_555
O1C Mn2B 1_555 1_555
O1D Mn2 1_555 1_555
O1E Mn2A 1_555 1_555
O2C Mn2B 1_555 1_555
O2D Mn2 1_555 1_555
O2E Mn2A 1_555 1_555
C3 N1 1_555 1_555
C3 N2 1_555 1_555
C4 N2 1_555 1_555
C8 N3 1_555 1_555
C8 N4 1_555 1_555
C9 N4 1_555 1_555
C12 N5 1_555 1_555
C13 N6 1_555 1_555
C14 N6 1_555 1_555
C18 N7 1_555 1_555
C18 N8 1_555 1_555
C19 N8 1_555 1_555
Mn1 N7 1_555 1_555
Mn1 O6 1_555 1_555
Mn1 O7 1_555 1_555
Mn1 O8 1_555 1_555
Mn1 O9 1_555 1_555
Mn2 N3 1_555 1_555
Mn2 O4 1_555 1_555
C3A N1A 1_555 1_555
C3A N2A 1_555 1_555
C4A N2A 1_555 1_555
C3B N1B 1_555 1_555
C3B N2B 1_555 1_555
C4B C5B 1_555 1_555
C4B N2B 1_555 1_555
C8A N3A 1_555 1_555
C8A N4A 1_555 1_555
C9A N4A 1_555 1_555
C8B N3B 1_555 1_555
C8B N4B 1_555 1_555
C9B C10B 1_555 1_555
C9B N4B 1_555 1_555
C12A N5A 1_555 1_555
C13A N6A 1_555 1_555
C14A N6A 1_555 1_555
C12B N5B 1_555 1_555
C13B N6B 1_555 1_555
C14B C15B 1_555 1_555
C14B N6B 1_555 1_555
C18A N7A 1_555 1_555
C18A N8A 1_555 1_555
C19A N8A 1_555 1_555
C18B N7B 1_555 1_555
C18B N8B 1_555 1_555
C19B C20B 1_555 1_555
C19B N8B 1_555 1_555
Mn1A O6A 1_555 1_555
Mn1A O7A 1_555 1_555
Mn1A O8A 1_555 1_555
Mn1A O9A 1_555 1_555
Mn2A O4A 1_555 1_555
Mn1B O6B 1_555 1_555
Mn1B O7B 1_555 1_555
Mn1B O8B 1_555 1_555
Mn1B O9B 1_555 1_555
Mn2B O4B 1_555 1_555

#END
