
#######################################################################
#
#                 Cambridge Crystallographic Data Centre
#                                CCDC 
#
#######################################################################
#
# If this CIF has been generated from an entry in the Cambridge 
# Structural Database, then it will include bibliographic, chemical, 
# crystal, experimental, refinement or atomic coordinate data resulting 
# from the CCDC's data processing and validation procedures.
#
#######################################################################

data_QISQUF
_symmetry_cell_setting           monoclinic
_symmetry_space_group_name_H-M   'C 2/c'
_symmetry_Int_Tables_number      15
_space_group_name_Hall           '-C 2yn'
loop_
_symmetry_equiv_pos_site_id
_symmetry_equiv_pos_as_xyz
1 x,y,z
2 1/2+x,1/2+y,z
3 -x,y,1/2-z
4 1/2-x,1/2+y,1/2-z
5 -x,-y,-z
6 1/2-x,1/2-y,-z
7 x,-y,1/2+z
8 1/2+x,1/2-y,1/2+z
_cell_length_a                   10.969(1)
_cell_length_b                   6.7384(6)
_cell_length_c                   30.438(2)
_cell_angle_alpha                90
_cell_angle_beta                 98.442(7)
_cell_angle_gamma                90
_cell_volume                     2225.4
loop_
_atom_site_label
_atom_site_type_symbol
_atom_site_fract_x
_atom_site_fract_y
_atom_site_fract_z
C1 C -0.1744(4) 0.3254(6) 0.11819(12)
C2 C -0.0875(4) 0.3841(6) 0.09114(13)
C3 C -0.1321(4) 0.4541(6) 0.04885(14)
H1 H -0.0768 0.4961 0.0304
C4 C -0.2565(5) 0.4622(7) 0.03390(15)
C5 C -0.3405(4) 0.4089(7) 0.06019(16)
H2 H -0.4243 0.4180 0.0497
C6 C -0.3003(4) 0.3406(7) 0.10283(15)
H3 H -0.3573 0.3049 0.1212
C7 C 0.0521(4) 0.3728(7) 0.10570(14)
H4 H 0.0754 0.2379 0.1127
H5 H 0.0745 0.4543 0.1315
H6 H 0.0938 0.4193 0.0821
N1 N -0.0370(3) 0.0473(5) 0.17034(11)
O1 O -0.2454(3) 0.1724(5) 0.18742(10)
O2 O -0.0584(3) 0.3728(5) 0.19961(10)
O3 O -0.5000 0.2783(7) 0.2500
H7 H -0.490(5) 0.356(6) 0.2723(11)
O4 O -0.2110(3) 0.1855(5) 0.29229(11)
H8 H -0.146(3) 0.127(7) 0.3042(16)
H9 H -0.256(4) 0.218(8) 0.3116(13)
S1 S -0.13028(9) 0.22564(15) 0.17235(3)
Cl1 Cl -0.10622(10) -0.13990(16) 0.13549(4)
Cl2 Cl -0.30670(15) 0.5351(2) -0.02065(4)
Na1 Na -0.35352(15) 0.0065(3) 0.23764(6)
C1A C -0.6744(4) -0.1746(6) 0.11819(12)
C2A C -0.5875(4) -0.1159(6) 0.09114(13)
C3A C -0.6321(4) -0.0459(6) 0.04885(14)
H1A H -0.5768 -0.0039 0.0304
C4A C -0.7565(5) -0.0378(7) 0.03390(15)
C5A C -0.8405(4) -0.0911(7) 0.06019(16)
H2A H -0.9243 -0.0820 0.0497
C6A C -0.8003(4) -0.1594(7) 0.10283(15)
H3A H -0.8573 -0.1951 0.1212
C7A C -0.4479(4) -0.1272(7) 0.10570(14)
H4A H -0.4246 -0.2621 0.1127
H5A H -0.4255 -0.0457 0.1315
H6A H -0.4062 -0.0807 0.0821
N1A N -0.5370(3) -0.4527(5) 0.17034(11)
O1A O -0.7454(3) -0.3276(5) 0.18742(10)
O2A O -0.5584(3) -0.1272(5) 0.19961(10)
O2C O -0.4416(3) -0.1272(5) 0.30039(10)
O2_2 O -1.0584(3) -0.6272(5) 0.19961(10)
O2B O -0.9416(3) -0.6272(5) 0.30039(10)
O3A O -1.0000 -0.2217(7) 0.2500
H7B H -0.510(5) 0.356(6) 0.2277(11)
H7A H -0.990(5) -0.144(6) 0.2723(11)
H7C H -1.010(5) -0.144(6) 0.2277(11)
O4C O -0.2890(3) -0.3145(5) 0.20771(11)
O4A O -0.7110(3) -0.3145(5) 0.29229(11)
O4B O -0.7890(3) -0.8145(5) 0.20771(11)
H8C H -0.354(3) -0.373(7) 0.1958(16)
H8A H -0.646(3) -0.373(7) 0.3042(16)
H8B H -0.854(3) -0.873(7) 0.1958(16)
H9C H -0.244(4) -0.282(8) 0.1884(13)
H9A H -0.756(4) -0.282(8) 0.3116(13)
H9B H -0.744(4) -0.782(8) 0.1884(13)
S1A S -0.63028(9) -0.27436(15) 0.17235(3)
Cl1A Cl -0.60622(10) -0.63990(16) 0.13549(4)
Cl2A Cl -0.80670(15) 0.0351(2) -0.02065(4)
Na1A Na -0.85352(15) -0.4935(3) 0.23764(6)
Na1A_2 Na 0.14648(15) 0.5065(3) 0.23764(6)
Na1C Na -0.14648(15) 0.5065(3) 0.26236(6)
Na1B Na -0.64648(15) 0.0065(3) 0.26236(6)
Na1C_2 Na -0.14648(15) -0.4935(3) 0.26236(6)
loop_
_geom_bond_atom_site_label_1
_geom_bond_atom_site_label_2
_geom_bond_site_symmetry_1
_geom_bond_site_symmetry_2
C1 C2 1_555 1_555
C2 C3 1_555 1_555
C3 H1 1_555 1_555
C4 C3 1_555 1_555
C5 C4 1_555 1_555
H2 C5 1_555 1_555
C6 C1 1_555 1_555
H3 C6 1_555 1_555
C7 C2 1_555 1_555
H4 C7 1_555 1_555
H5 C7 1_555 1_555
H6 C7 1_555 1_555
N1 S1 1_555 1_555
O1 S1 1_555 1_555
O2 S1 1_555 1_555
O3 H7 1_555 1_555
O4 H8 1_555 1_555
H9 O4 1_555 1_555
S1 C1 1_555 1_555
Cl1 N1 1_555 1_555
Cl2 C4 1_555 1_555
Na1 O1 1_555 1_555
C1A C2A 1_555 1_555
C2A C3A 1_555 1_555
C3A H1A 1_555 1_555
C4A C3A 1_555 1_555
C5A C4A 1_555 1_555
H2A C5A 1_555 1_555
C6A C1A 1_555 1_555
H3A C6A 1_555 1_555
C7A C2A 1_555 1_555
H4A C7A 1_555 1_555
H5A C7A 1_555 1_555
H6A C7A 1_555 1_555
N1A S1A 1_555 1_555
O1A S1A 1_555 1_555
O2A Na1 1_555 1_555
O2C Na1 1_555 1_555
O2_2 Na1A 1_555 1_555
O2B Na1A 1_555 1_555
O3A H7A 1_555 1_555
H7B O3 1_555 1_555
H7C O3A 1_555 1_555
O4C Na1 1_555 1_555
O4A H8A 1_555 1_555
O4B H8B 1_555 1_555
H8C O4C 1_555 1_555
H9C O4C 1_555 1_555
H9A O4A 1_555 1_555
H9B O4B 1_555 1_555
S1A C1A 1_555 1_555
Cl1A N1A 1_555 1_555
Cl2A C4A 1_555 1_555
Na1A O1A 1_555 1_555
Na1A_2 O2 1_555 1_555
Na1C O2 1_555 1_555
Na1B O3 1_555 1_555
Na1C_2 O4C 1_555 1_555
C5 C6 1_555 1_555
O3 Na1 1_555 1_555
O4 Na1 1_555 1_555
O4 Na1C 1_555 1_555
C5A C6A 1_555 1_555
O2A S1A 1_555 1_555
O2A Na1B 1_555 1_555
O2C Na1B 1_555 1_555
O3A Na1A 1_555 1_555
O4A Na1A 1_555 1_555
O4A Na1B 1_555 1_555
O4B Na1A 1_555 1_555

#END
