
#######################################################################
#
#                 Cambridge Crystallographic Data Centre
#                                CCDC 
#
#######################################################################
#
# If this CIF has been generated from an entry in the Cambridge 
# Structural Database, then it will include bibliographic, chemical, 
# crystal, experimental, refinement or atomic coordinate data resulting 
# from the CCDC's data processing and validation procedures.
#
#######################################################################

data_QISSIW
_symmetry_cell_setting           triclinic
_symmetry_space_group_name_H-M   'P -1'
_symmetry_Int_Tables_number      2
_space_group_name_Hall           '-P 1'
loop_
_symmetry_equiv_pos_site_id
_symmetry_equiv_pos_as_xyz
1 x,y,z
2 -x,-y,-z
_cell_length_a                   7.295(2)
_cell_length_b                   12.043(4)
_cell_length_c                   12.789(4)
_cell_angle_alpha                108.546(4)
_cell_angle_beta                 95.149(6)
_cell_angle_gamma                96.554(3)
_cell_volume                     1048.73
loop_
_atom_site_label
_atom_site_type_symbol
_atom_site_fract_x
_atom_site_fract_y
_atom_site_fract_z
Ni1 Ni 0.5000 0.0000 0.5000
Ni2 Ni 1.0000 1.0000 0.0000
O1 O 0.55191(16) 0.11540(10) 0.41515(10)
O2 O 0.36833(17) 0.24416(11) 0.49612(10)
O3 O 1.07176(16) 0.29153(11) 0.27109(10)
O4 O 0.99715(19) 0.38169(12) 0.15533(11)
O5 O 0.47603(17) 0.62769(10) 0.26840(10)
O6 O 0.29230(17) 0.56946(11) 0.37063(11)
O7 O 0.74224(19) 0.42263(12) -0.04409(10)
O8 O 0.54648(17) 0.39942(11) 0.06767(11)
O9 O 0.92409(18) 0.58880(11) 0.46686(10)
O10 O 1.02217(18) 0.77511(11) 0.50147(10)
O11 O 0.95393(16) 0.86602(10) 0.06186(10)
O12 O 1.18005(17) 0.92164(11) 0.20691(10)
N1 N 0.9675(2) 0.34590(12) 0.23247(12)
N2 N 0.42937(19) 0.56276(12) 0.32148(12)
N3 N 0.6845(2) 0.45256(12) 0.04562(12)
N4 N 0.9539(2) 0.67602(13) 0.43816(12)
C1 C 0.4863(2) 0.21216(14) 0.43368(14)
C2 C 0.5624(2) 0.29543(14) 0.37547(14)
C3 C 0.7241(2) 0.28292(14) 0.32708(13)
H1 H 0.7876 0.2180 0.3260
C4 C 0.7932(2) 0.36498(14) 0.28039(13)
C5 C 0.7092(2) 0.46350(14) 0.27920(13)
C6 C 0.5415(2) 0.46906(14) 0.32434(13)
C7 C 0.4699(2) 0.38937(14) 0.37324(14)
H2 H 0.3577 0.3989 0.4052
C8 C 0.8598(2) 0.64997(15) 0.09955(14)
H3 H 0.8432 0.6437 0.0232
C9 C 0.7849(2) 0.55876(14) 0.13318(14)
C10 C 0.8015(2) 0.56107(14) 0.24381(14)
C11 C 0.9100(2) 0.66262(14) 0.31937(13)
C12 C 0.9868(2) 0.75641(15) 0.28904(14)
H4 H 1.0579 0.8244 0.3438
C13 C 0.9599(2) 0.75124(14) 0.17888(14)
C14 C 1.0390(2) 0.85481(15) 0.14658(14)
O13 O 0.77491(17) -0.02815(11) 0.49701(12)
O14 O 0.57134(18) 0.12657(11) 0.65359(11)
O15 O 0.77889(17) 0.90550(11) -0.12450(10)
O16 O 0.81884(17) 1.09247(11) 0.09342(11)
H5 H 0.809(4) -0.019(2) 0.4398(14)
H6 H 0.767(4) -0.1001(11) 0.492(2)
H7 H 0.660(2) 0.1172(18) 0.6957(16)
H8 H 0.565(3) 0.1990(10) 0.670(2)
H9 H 0.824(3) 0.8459(13) -0.1611(17)
H10 H 0.778(3) 0.9542(15) -0.1591(18)
H11 H 0.724(2) 1.096(2) 0.0511(16)
H12 H 0.781(3) 1.063(2) 0.1409(16)
O1A O 0.44809(16) -0.11540(10) 0.58485(10)
O2A O 0.63167(17) -0.24416(11) 0.50388(10)
O3A O -0.07176(16) -0.29153(11) 0.72891(10)
O4A O 0.00285(19) -0.38169(12) 0.84467(11)
O5A O 0.52397(17) -0.62769(10) 0.73160(10)
O6A O 0.70770(17) -0.56946(11) 0.62937(11)
O7A O 0.25776(19) -0.42263(12) 1.04409(10)
O8A O 0.45352(17) -0.39942(11) 0.93233(11)
O9A O 0.07591(18) -0.58880(11) 0.53314(10)
O10A O -0.02217(18) -0.77511(11) 0.49853(10)
O11A O 0.04607(16) -0.86602(10) 0.93814(10)
O12A O -0.18005(17) -0.92164(11) 0.79309(10)
N1A N 0.0325(2) -0.34590(12) 0.76753(12)
N2A N 0.57063(19) -0.56276(12) 0.67852(12)
N3A N 0.3155(2) -0.45256(12) 0.95438(12)
N4A N 0.0461(2) -0.67602(13) 0.56184(12)
C1A C 0.5137(2) -0.21216(14) 0.56632(14)
C2A C 0.4376(2) -0.29543(14) 0.62453(14)
C3A C 0.2759(2) -0.28292(14) 0.67292(13)
H1A H 0.2124 -0.2180 0.6740
C4A C 0.2068(2) -0.36498(14) 0.71961(13)
C5A C 0.2908(2) -0.46350(14) 0.72080(13)
C6A C 0.4585(2) -0.46906(14) 0.67566(13)
C7A C 0.5301(2) -0.38937(14) 0.62676(14)
H2A H 0.6423 -0.3989 0.5948
C8A C 0.1402(2) -0.64997(15) 0.90045(14)
H3A H 0.1568 -0.6437 0.9768
C9A C 0.2151(2) -0.55876(14) 0.86682(14)
C10A C 0.1985(2) -0.56107(14) 0.75619(14)
C11A C 0.0900(2) -0.66262(14) 0.68063(13)
C12A C 0.0132(2) -0.75641(15) 0.71096(14)
H4A H -0.0579 -0.8244 0.6562
C13A C 0.0401(2) -0.75124(14) 0.82112(14)
C14A C -0.0390(2) -0.85481(15) 0.85342(14)
O13A O 0.22509(17) 0.02815(11) 0.50299(12)
O14A O 0.42866(18) -0.12657(11) 0.34641(11)
H5A H 0.191(4) 0.019(2) 0.5602(14)
H6A H 0.233(4) 0.1001(11) 0.508(2)
H7A H 0.340(2) -0.1172(18) 0.3043(16)
H8A H 0.435(3) -0.1990(10) 0.330(2)
O15A O 1.22111(17) 1.09450(11) 0.12450(10)
H9A H 1.176(3) 1.1541(13) 0.1611(17)
H10A H 1.222(3) 1.0458(15) 0.1591(18)
O16A O 1.18116(17) 0.90753(11) -0.09342(11)
H11A H 1.276(2) 0.904(2) -0.0511(16)
H12A H 1.219(3) 0.937(2) -0.1409(16)
Ni2_2 Ni 0.0000 -1.0000 1.0000
O11A_2 O 1.04607(16) 1.13398(10) -0.06186(10)
O17 O 0.49713(19) -0.14265(12) 0.00918(13)
H13 H 0.499(3) -0.2152(10) 0.0019(16)
H14 H 0.580(3) -0.121(2) -0.024(2)
O18 O 0.7161(2) -0.01278(13) 0.23939(14)
H15 H 0.644(3) -0.063(2) 0.1875(17)
H16 H 0.657(3) 0.029(2) 0.2863(17)
loop_
_geom_bond_atom_site_label_1
_geom_bond_atom_site_label_2
_geom_bond_site_symmetry_1
_geom_bond_site_symmetry_2
Ni1 O1 1_555 1_555
Ni2 O11 1_555 1_555
O1 C1 1_555 1_555
O2 C1 1_555 1_555
O3 N1 1_555 1_555
O4 N1 1_555 1_555
O5 N2 1_555 1_555
O6 N2 1_555 1_555
O7 N3 1_555 1_555
O8 N3 1_555 1_555
O9 N4 1_555 1_555
O10 N4 1_555 1_555
O11 C14 1_555 1_555
O12 C14 1_555 1_555
N1 C4 1_555 1_555
N2 C6 1_555 1_555
N3 C9 1_555 1_555
N4 C11 1_555 1_555
C1 C2 1_555 1_555
C2 C3 1_555 1_555
C3 H1 1_555 1_555
C4 C3 1_555 1_555
C5 C4 1_555 1_555
C6 C5 1_555 1_555
C7 C2 1_555 1_555
H2 C7 1_555 1_555
C8 H3 1_555 1_555
C9 C8 1_555 1_555
C10 C5 1_555 1_555
C11 C10 1_555 1_555
C12 C11 1_555 1_555
H4 C12 1_555 1_555
C13 C8 1_555 1_555
C14 C13 1_555 1_555
O13 Ni1 1_555 1_555
O14 Ni1 1_555 1_555
O15 Ni2 1_555 1_555
O16 Ni2 1_555 1_555
H5 O13 1_555 1_555
H6 O13 1_555 1_555
H7 O14 1_555 1_555
H8 O14 1_555 1_555
H9 O15 1_555 1_555
H10 O15 1_555 1_555
H11 O16 1_555 1_555
H12 O16 1_555 1_555
O17 H13 1_555 1_555
H14 O17 1_555 1_555
O18 H15 1_555 1_555
H16 O18 1_555 1_555
O1A Ni1 1_555 1_555
O2A C1A 1_555 1_555
O3A N1A 1_555 1_555
O4A N1A 1_555 1_555
O5A N2A 1_555 1_555
O6A N2A 1_555 1_555
O7A N3A 1_555 1_555
O8A N3A 1_555 1_555
O9A N4A 1_555 1_555
O10A N4A 1_555 1_555
O11A C14A 1_555 1_555
O12A C14A 1_555 1_555
N1A C4A 1_555 1_555
N2A C6A 1_555 1_555
N3A C9A 1_555 1_555
N4A C11A 1_555 1_555
C1A O1A 1_555 1_555
C2A C1A 1_555 1_555
C3A C2A 1_555 1_555
H1A C3A 1_555 1_555
C4A C3A 1_555 1_555
C5A C4A 1_555 1_555
C6A C5A 1_555 1_555
C7A C2A 1_555 1_555
H2A C7A 1_555 1_555
C8A H3A 1_555 1_555
C9A C8A 1_555 1_555
C10A C5A 1_555 1_555
C11A C10A 1_555 1_555
C12A C11A 1_555 1_555
H4A C12A 1_555 1_555
C13A C8A 1_555 1_555
C14A C13A 1_555 1_555
O13A Ni1 1_555 1_555
O14A Ni1 1_555 1_555
H5A O13A 1_555 1_555
H6A O13A 1_555 1_555
H7A O14A 1_555 1_555
H8A O14A 1_555 1_555
O15A Ni2 1_555 1_555
H9A O15A 1_555 1_555
H10A O15A 1_555 1_555
O16A Ni2 1_555 1_555
H11A O16A 1_555 1_555
H12A O16A 1_555 1_555
Ni2_2 O11A 1_555 1_555
O11A_2 Ni2 1_555 1_555
C6 C7 1_555 1_555
C9 C10 1_555 1_555
C12 C13 1_555 1_555
C6A C7A 1_555 1_555
C9A C10A 1_555 1_555
C12A C13A 1_555 1_555

#END
