
#######################################################################
#
#                 Cambridge Crystallographic Data Centre
#                                CCDC 
#
#######################################################################
#
# If this CIF has been generated from an entry in the Cambridge 
# Structural Database, then it will include bibliographic, chemical, 
# crystal, experimental, refinement or atomic coordinate data resulting 
# from the CCDC's data processing and validation procedures.
#
#######################################################################

data_QISVEU
_symmetry_cell_setting           rhombohedral
_symmetry_space_group_name_H-M   'R -3 c'
_symmetry_Int_Tables_number      167
_space_group_name_Hall           '-R 3 2"c'
loop_
_symmetry_equiv_pos_site_id
_symmetry_equiv_pos_as_xyz
1 x,y,z
2 -y,x-y,z
3 -x+y,-x,z
4 y,x,1/2-z
5 2/3+x,1/3+y,1/3+z
6 2/3-y,1/3+x-y,1/3+z
7 2/3-x+y,1/3-x,1/3+z
8 2/3+y,1/3+x,5/6-z
9 1/3+x,2/3+y,2/3+z
10 1/3+y,2/3+x,1/6-z
11 x-y,-y,1/2-z
12 -x,-x+y,1/2-z
13 1/3-y,2/3+x-y,2/3+z
14 1/3-x+y,2/3-x,2/3+z
15 1/3+x-y,2/3-y,1/6-z
16 1/3-x,2/3-x+y,1/6-z
17 2/3+x-y,1/3-y,5/6-z
18 2/3-x,1/3-x+y,5/6-z
19 -x,-y,-z
20 y,-x+y,-z
21 x-y,x,-z
22 -y,-x,1/2+z
23 1/3-x,2/3-y,2/3-z
24 1/3+y,2/3-x+y,2/3-z
25 1/3+x-y,2/3+x,2/3-z
26 1/3-y,2/3-x,1/6+z
27 2/3-x,1/3-y,1/3-z
28 2/3-y,1/3-x,5/6+z
29 -x+y,y,1/2+z
30 x,x-y,1/2+z
31 2/3+y,1/3-x+y,1/3-z
32 2/3+x-y,1/3+x,1/3-z
33 2/3-x+y,1/3+y,5/6+z
34 2/3+x,1/3+x-y,5/6+z
35 1/3-x+y,2/3+y,1/6+z
36 1/3+x,2/3+x-y,1/6+z
_cell_length_a                   22.4479(5)
_cell_length_b                   22.4479(5)
_cell_length_c                   41.1720(6)
_cell_angle_alpha                90
_cell_angle_beta                 90
_cell_angle_gamma                120.00
_cell_volume                     17967.4
loop_
_atom_site_label
_atom_site_type_symbol
_atom_site_fract_x
_atom_site_fract_y
_atom_site_fract_z
O7 O 0.4362(5) 0.0000 0.2500
C17 C 0.5030(7) 0.0000 0.2500
C18 C 0.5576(12) 0.0624(13) 0.2612(6)
C18J C 0.4952(18) -0.0624(13) 0.2388(6)
Cu1 Cu 0.43312(3) 0.00822(3) 0.156307(13)
Cl1 Cl 0.36727(6) 0.11099(7) 0.24129(3)
Cl2 Cl 0.56780(6) 0.33249(6) 0.30080(3)
Cl3 Cl 0.61925(7) 0.23066(7) 0.19077(3)
N1 N 0.5164(2) 0.0708(2) 0.13004(9)
O1 O 0.46511(18) 0.07758(18) 0.19079(8)
O2 O 0.4522(3) 0.1578(2) 0.16517(10)
O3 O 0.39979(17) 0.25422(17) 0.29281(8)
O4 O 0.4103(2) 0.17102(19) 0.31697(8)
O5 O 0.3646(3) -0.0542(2) 0.18788(10)
H1 H 0.374(5) -0.040(5) 0.2075(10)
H2 H 0.336(5) -0.0970(17) 0.187(3)
C1 C 0.4689(3) 0.1351(3) 0.18849(12)
C2 C 0.4243(2) 0.2148(2) 0.29553(11)
C3 C 0.6667 0.3333 0.2529(2)
H3 H 0.6667 0.3333 0.2769
C4 C 0.4967(2) 0.1807(2) 0.21843(11)
C5 C 0.4526(2) 0.1761(2) 0.24310(11)
C6 C 0.4745(2) 0.2217(2) 0.26879(10)
C7 C 0.5435(2) 0.2741(2) 0.26924(10)
C8 C 0.5918(2) 0.2792(2) 0.24615(11)
C9 C 0.5659(2) 0.2307(2) 0.22120(11)
C10 C 0.5127(3) 0.0880(3) 0.09949(12)
H4 H 0.4692 0.0744 0.0906
C11 C 0.5704(3) 0.1251(3) 0.08030(12)
H5 H 0.5663 0.1370 0.0589
C12 C 0.6349(3) 0.1443(3) 0.09354(12)
C13 C 0.6380(3) 0.1283(3) 0.12540(12)
H6 H 0.6807 0.1422 0.1353
C14 C 0.5778(3) 0.0914(3) 0.14276(12)
H7 H 0.5805 0.0804 0.1645
O6 O 0.3701(2) 0.0453(2) 0.12934(10)
H8 H 0.393(3) 0.0853(17) 0.1384(16)
C15 C 0.2999(4) 0.0138(5) 0.1359(3)
H9 H 0.2933 0.0038 0.1592
H10 H 0.2769 -0.0304 0.1245
C16 C 0.2661(5) 0.0513(7) 0.1274(3)
H11 H 0.2178 0.0245 0.1331
H12 H 0.2704 0.0601 0.1042
H13 H 0.2871 0.0946 0.1390
Cu1O Cu 0.90021(3) 0.24177(4) 0.010360(13)
Cu1A Cu 0.99178(3) 0.42490(4) 0.156307(13)
Cu1B Cu 0.57510(4) 0.56688(3) 0.156307(13)
Cu1AA Cu 0.65845(3) -0.09979(3) -0.010360(13)
Cu1FA Cu 0.24177(4) -0.65845(3) -0.010360(13)
Cu1Y Cu 0.32511(3) 0.23355(3) 0.322974(13)
Cu1IA Cu 0.76645(3) 0.09157(4) 0.322974(13)
Cu1HA Cu 0.90843(4) 0.67489(3) 0.322974(13)
Cu1B_2 Cu 0.57510(4) -0.43312(3) 0.156307(13)
Cu1A_2 Cu -0.00822(3) -0.57510(4) 0.156307(13)
Cu1GA Cu 0.09979(3) -0.24177(4) -0.010360(13)
Cu1N Cu 0.75823(4) 0.65845(3) 0.010360(13)
Cu1I Cu 0.34155(3) 0.09979(3) 0.010360(13)
Cl1A Cl 0.88901(7) 0.25628(9) 0.24129(3)
Cl1B Cl 0.74372(9) 0.63273(6) 0.24129(3)
Cl1AA Cl 0.55568(7) -0.03394(6) 0.07462(3)
Cl1FA Cl 0.41039(9) -0.55568(7) 0.07462(3)
Cl1GA Cl 0.03394(6) -0.41039(9) 0.07462(3)
Cl2A Cl 0.66751(6) 0.23531(8) 0.30080(3)
Cl2B Cl 0.76469(8) 0.43220(6) 0.30080(3)
Cl2AA Cl 0.33418(6) -0.23447(6) 0.13413(3)
Cl2FA Cl 0.43136(8) -0.33418(6) 0.13413(3)
Cl2GA Cl 0.23447(6) -0.43136(8) 0.13413(3)
Cl3A Cl 0.76934(7) 0.38859(10) 0.19077(3)
Cl3B Cl 0.61141(10) 0.38075(7) 0.19077(3)
Cl3AA Cl 0.43601(7) -0.28592(7) 0.02410(3)
Cl3FA Cl 0.27808(10) -0.43601(7) 0.02410(3)
Cl3GA Cl 0.28592(7) -0.27808(10) 0.02410(3)
N1O N 0.8169(2) 0.2211(3) 0.03663(9)
N1A N 0.9292(2) 0.4456(3) 0.13004(9)
N1N N 0.7789(3) 0.5959(2) 0.03663(9)
N1B N 0.5544(3) 0.4836(2) 0.13004(9)
N1I N 0.4041(2) 0.1831(2) 0.03663(9)
N1AA N 0.5959(2) -0.1831(2) -0.03663(9)
N1FA N 0.2211(3) -0.5959(2) -0.03663(9)
O1A O 0.92242(18) 0.38753(25) 0.19079(8)
O1B O 0.61247(25) 0.53489(18) 0.19079(8)
O1AA O 0.58909(18) -0.13178(18) 0.02412(8)
O1FA O 0.27914(25) -0.58909(18) 0.02412(8)
O1GA O 0.13178(18) -0.27914(25) 0.02412(8)
O1O O 0.86822(18) 0.27914(25) -0.02412(8)
O2A O 0.8422(2) 0.2944(4) 0.16517(10)
O2B O 0.7056(4) 0.5478(3) 0.16517(10)
O2AA O 0.5089(2) -0.1189(3) -0.00150(10)
O2FA O 0.3723(4) -0.5089(2) -0.00150(10)
O2GA O 0.1189(3) -0.3723(4) -0.00150(10)
O3A O 0.74578(17) 0.14557(24) 0.29281(8)
O3B O 0.85443(24) 0.60021(17) 0.29281(8)
O3AA O 0.41245(17) -0.06646(17) 0.12614(8)
O3FA O 0.52110(24) -0.41245(17) 0.12614(8)
O3GA O 0.06646(17) -0.52110(24) 0.12614(8)
O3DA O 0.92089(17) 0.18776(24) 0.04052(8)
O3GA_2 O 1.06646(17) 0.47890(24) 0.12614(8)
O3FA_2 O 0.52110(24) 0.58755(17) 0.12614(8)
O3H O 0.73312(17) -0.07911(17) -0.04052(8)
O3M O 0.18776(24) -0.73312(17) -0.04052(8)
O4A O 0.82898(19) 0.23928(28) 0.31697(8)
O4B O 0.76072(28) 0.5897(2) 0.31697(8)
O4AA O 0.49565(19) -0.0770(2) 0.15030(8)
O4FA O 0.42739(28) -0.49565(19) 0.15030(8)
O4GA O 0.0770(2) -0.42739(28) 0.15030(8)
O5O O 0.9687(3) 0.2479(4) -0.02121(10)
O5A O 1.0542(2) 0.4188(4) 0.18788(10)
O5B O 0.5812(4) 0.6354(3) 0.18788(10)
O5AA O 0.7209(2) -0.0313(3) 0.02121(10)
O5FA O 0.2479(4) -0.7209(2) 0.02121(10)
H1O H 0.959(5) 0.253(7) -0.0408(10)
H1A H 1.040(5) 0.414(7) 0.2075(10)
H1B H 0.586(7) 0.626(5) 0.2075(10)
H1AA H 0.707(5) -0.041(5) 0.0408(10)
H1FA H 0.253(7) -0.707(5) 0.0408(10)
H2O H 0.997(5) 0.2337(53) -0.020(3)
H2A H 1.0970(17) 0.4330(53) 0.187(3)
H2B H 0.5670(53) 0.664(5) 0.187(3)
H2AA H 0.7637(17) -0.003(5) 0.020(3)
H2FA H 0.2337(53) -0.7637(17) 0.020(3)
C1A C 0.8649(3) 0.3338(4) 0.18849(12)
C1B C 0.6662(4) 0.5311(3) 0.18849(12)
C1AA C 0.5316(3) -0.1356(3) 0.02182(12)
C1FA C 0.3329(4) -0.5316(3) 0.02182(12)
C1GA C 0.1356(3) -0.3329(4) 0.02182(12)
C2A C 0.7852(2) 0.2095(3) 0.29553(11)
C2B C 0.7905(3) 0.5757(2) 0.29553(11)
C2AA C 0.4519(2) -0.0910(2) 0.12886(11)
C2FA C 0.4572(3) -0.4519(2) 0.12886(11)
C2GA C 0.0910(2) -0.4572(3) 0.12886(11)
C3AA C 0.3334 -0.3334 0.0862(2)
H3AA H 0.3334 -0.3334 0.1102
C4A C 0.8193(2) 0.3160(3) 0.21843(11)
C4B C 0.6840(3) 0.5033(2) 0.21843(11)
C4AA C 0.4860(2) -0.1634(2) 0.05176(11)
C4FA C 0.3507(3) -0.4860(2) 0.05176(11)
C4GA C 0.1634(2) -0.3507(3) 0.05176(11)
C5A C 0.8239(2) 0.2765(3) 0.24310(11)
C5B C 0.7235(3) 0.5474(2) 0.24310(11)
C5AA C 0.4906(2) -0.1193(2) 0.07643(11)
C5FA C 0.3902(3) -0.4906(2) 0.07643(11)
C5GA C 0.1193(2) -0.3902(3) 0.07643(11)
C6A C 0.7783(2) 0.2528(3) 0.26879(10)
C6B C 0.7472(3) 0.5255(2) 0.26879(10)
C6AA C 0.4450(2) -0.1412(2) 0.10212(10)
C6FA C 0.4139(3) -0.4450(2) 0.10212(10)
C6GA C 0.1412(2) -0.4139(3) 0.10212(10)
C7A C 0.7259(2) 0.2694(3) 0.26924(10)
C7B C 0.7306(3) 0.4565(2) 0.26924(10)
C7AA C 0.3926(2) -0.2102(2) 0.10257(10)
C7FA C 0.3973(3) -0.3926(2) 0.10257(10)
C7GA C 0.2102(2) -0.3973(3) 0.10257(10)
C8A C 0.7208(2) 0.3126(3) 0.24615(11)
C8B C 0.6874(3) 0.4082(2) 0.24615(11)
C8AA C 0.3875(2) -0.2585(2) 0.07948(11)
C8FA C 0.3541(3) -0.3875(2) 0.07948(11)
C8GA C 0.2585(2) -0.3541(3) 0.07948(11)
C9A C 0.7693(2) 0.3352(3) 0.22120(11)
C9B C 0.6648(3) 0.4341(2) 0.22120(11)
C9AA C 0.4360(2) -0.2326(2) 0.05453(11)
C9FA C 0.3315(3) -0.4360(2) 0.05453(11)
C9GA C 0.2326(2) -0.3315(3) 0.05453(11)
C10O C 0.8206(3) 0.2420(4) 0.06718(12)
C10A C 0.9120(3) 0.4247(4) 0.09949(12)
C10N C 0.7580(4) 0.5787(3) 0.06718(12)
C10B C 0.5753(4) 0.4873(3) 0.09949(12)
C10I C 0.4213(3) 0.1794(3) 0.06718(12)
H4O H 0.8641 0.2719 0.0761
H4A H 0.9256 0.3948 0.0906
H4N H 0.7281 0.5923 0.0761
H4B H 0.6052 0.5308 0.0906
H4I H 0.4077 0.1359 0.0761
C11O C 0.7629(3) 0.2214(4) 0.08637(12)
C11A C 0.8749(3) 0.4453(4) 0.08030(12)
C11N C 0.7786(4) 0.5416(3) 0.08637(12)
C11B C 0.5547(4) 0.4296(3) 0.08030(12)
C11I C 0.4584(3) 0.2371(3) 0.08637(12)
H5O H 0.7670 0.2374 0.1078
H5A H 0.8630 0.4293 0.0589
H5N H 0.7626 0.5297 0.1078
H5B H 0.5707 0.4337 0.0589
H5I H 0.4703 0.2330 0.1078
C12O C 0.6984(3) 0.1761(4) 0.07313(12)
C12A C 0.8557(3) 0.4906(4) 0.09354(12)
C12N C 0.8239(4) 0.5224(3) 0.07313(12)
C12B C 0.5094(4) 0.3651(3) 0.09354(12)
C12I C 0.4776(3) 0.3016(3) 0.07313(12)
C13O C 0.6953(3) 0.1570(4) 0.04127(12)
C13A C 0.8717(3) 0.5097(4) 0.12540(12)
C13N C 0.8430(4) 0.5384(3) 0.04127(12)
C13B C 0.4903(4) 0.3620(3) 0.12540(12)
C13I C 0.4616(3) 0.3047(3) 0.04127(12)
H6O H 0.6526 0.1282 0.0314
H6A H 0.8578 0.5385 0.1353
H6N H 0.8718 0.5245 0.0314
H6B H 0.4615 0.3193 0.1353
H6I H 0.4755 0.3474 0.0314
C14O C 0.7555(3) 0.1803(4) 0.02391(12)
C14A C 0.9086(3) 0.4864(4) 0.14276(12)
C14N C 0.8197(4) 0.5753(3) 0.02391(12)
C14B C 0.5136(4) 0.4222(3) 0.14276(12)
C14I C 0.4247(3) 0.2445(3) 0.02391(12)
H7O H 0.7528 0.1666 0.0022
H7A H 0.9196 0.5001 0.1645
H7N H 0.8334 0.5863 0.0022
H7B H 0.4999 0.4195 0.1645
H7I H 0.4137 0.2472 0.0022
O6O O 0.9632(2) 0.3419(3) 0.03733(10)
O6A O 0.9547(2) 0.3248(3) 0.12934(10)
O6B O 0.6752(3) 0.6299(2) 0.12934(10)
O6AA O 0.6214(2) -0.0368(2) -0.03733(10)
O6FA O 0.3419(3) -0.6214(2) -0.03733(10)
H8O H 0.940(3) 0.3590(34) 0.0283(16)
H8A H 0.9147(17) 0.3077(34) 0.1384(16)
H8B H 0.6923(34) 0.607(3) 0.1384(16)
H8AA H 0.5814(17) -0.060(3) -0.0283(16)
H8FA H 0.3590(34) -0.5814(17) -0.0283(16)
C15O C 1.0334(4) 0.3806(6) 0.0308(3)
C15A C 0.9862(5) 0.2861(6) 0.1359(3)
C15B C 0.7139(6) 0.7001(4) 0.1359(3)
C15AA C 0.6529(5) 0.0334(4) -0.0308(3)
C15FA C 0.3806(6) -0.6529(5) -0.0308(3)
H9O H 1.0400 0.3772 0.0075
H9A H 0.9962 0.2895 0.1592
H9B H 0.7105 0.7067 0.1592
H9AA H 0.6629 0.0400 -0.0075
H9FA H 0.3772 -0.6629 -0.0075
H10O H 1.0564 0.3594 0.0422
H10A H 1.0304 0.3073 0.1245
H10B H 0.6927 0.7231 0.1245
H10AA H 0.6971 0.0564 -0.0422
H10FA H 0.3594 -0.6971 -0.0422
C16O C 1.0672(5) 0.4519(9) 0.0393(3)
C16A C 0.9487(7) 0.2148(9) 0.1274(3)
C16B C 0.7852(9) 0.7339(5) 0.1274(3)
C16AA C 0.6154(7) 0.0672(5) -0.0393(3)
C16FA C 0.4519(9) -0.6154(7) -0.0393(3)
H11O H 1.1155 0.4734 0.0336
H11A H 0.9755 0.1933 0.1331
H11B H 0.8067 0.7822 0.1331
H11AA H 0.6422 0.1155 -0.0336
H11FA H 0.4734 -0.6422 -0.0336
H12O H 1.0629 0.4564 0.0625
H12A H 0.9399 0.2103 0.1042
H12B H 0.7897 0.7296 0.1042
H12AA H 0.6066 0.0629 -0.0625
H12FA H 0.4564 -0.6066 -0.0625
H13O H 1.0462 0.4742 0.0277
H13A H 0.9054 0.1925 0.1390
H13B H 0.8075 0.7129 0.1390
H13AA H 0.5721 0.0462 -0.0277
H13FA H 0.4742 -0.5721 -0.0277
O8? O 0.6667 0.3333 0.1018(5)
loop_
_geom_bond_atom_site_label_1
_geom_bond_atom_site_label_2
_geom_bond_site_symmetry_1
_geom_bond_site_symmetry_2
Cu1 N1 1_555 1_555
Cl1 C5 1_555 1_555
Cl2 C7 1_555 1_555
Cl3 C9 1_555 1_555
N1 C10 1_555 1_555
O1 Cu1 1_555 1_555
O2 C1 1_555 1_555
O3 C2 1_555 1_555
O4 C2 1_555 1_555
O5 Cu1 1_555 1_555
H1 O5 1_555 1_555
H2 O5 1_555 1_555
C1 O1 1_555 1_555
C2 C6 1_555 1_555
C3 H3 1_555 1_555
C4 C1 1_555 1_555
C5 C4 1_555 1_555
C6 C5 1_555 1_555
C7 C6 1_555 1_555
C8 C3 1_555 1_555
C9 C4 1_555 1_555
C10 H4 1_555 1_555
C11 C10 1_555 1_555
H5 C11 1_555 1_555
C12 C11 1_555 1_555
C13 C12 1_555 1_555
H6 C13 1_555 1_555
C14 N1 1_555 1_555
H7 C14 1_555 1_555
O6 Cu1 1_555 1_555
H8 O6 1_555 1_555
C15 O6 1_555 1_555
H9 C15 1_555 1_555
H10 C15 1_555 1_555
C16 C15 1_555 1_555
H11 C16 1_555 1_555
H12 C16 1_555 1_555
H13 C16 1_555 1_555
O7 C17 1_555 1_555
C17 C18 1_555 1_555
Cu1O N1O 1_555 1_555
Cu1A N1A 1_555 1_555
Cu1B N1B 1_555 1_555
Cu1AA N1AA 1_555 1_555
Cu1FA N1FA 1_555 1_555
Cu1Y O3 1_555 1_555
Cu1IA O3A 1_555 1_555
Cu1HA O3B 1_555 1_555
Cu1B_2 O3FA 1_555 1_555
Cu1A_2 O3GA 1_555 1_555
Cu1GA O1GA 1_555 1_555
Cu1N N1N 1_555 1_555
Cu1I N1I 1_555 1_555
Cl1A C5A 1_555 1_555
Cl1B C5B 1_555 1_555
Cl1AA C5AA 1_555 1_555
Cl1FA C5FA 1_555 1_555
Cl1GA C5GA 1_555 1_555
Cl2A C7A 1_555 1_555
Cl2B C7B 1_555 1_555
Cl2AA C7AA 1_555 1_555
Cl2FA C7FA 1_555 1_555
Cl2GA C7GA 1_555 1_555
Cl3A C9A 1_555 1_555
Cl3B C9B 1_555 1_555
Cl3AA C9AA 1_555 1_555
Cl3FA C9FA 1_555 1_555
Cl3GA C9GA 1_555 1_555
N1O C10O 1_555 1_555
N1A C10A 1_555 1_555
N1N C10N 1_555 1_555
N1B C10B 1_555 1_555
N1I C10I 1_555 1_555
O1A Cu1A 1_555 1_555
O1B Cu1B 1_555 1_555
O1AA Cu1AA 1_555 1_555
O1FA Cu1FA 1_555 1_555
O1GA C1GA 1_555 1_555
O1O Cu1O 1_555 1_555
O2A C1A 1_555 1_555
O2B C1B 1_555 1_555
O2AA C1AA 1_555 1_555
O2FA C1FA 1_555 1_555
O2GA C1GA 1_555 1_555
O3A C2A 1_555 1_555
O3B C2B 1_555 1_555
O3AA Cu1 1_555 1_555
O3FA C2FA 1_555 1_555
O3GA C2GA 1_555 1_555
O3DA Cu1O 1_555 1_555
O3GA_2 Cu1A 1_555 1_555
O3FA_2 Cu1B 1_555 1_555
O3H Cu1AA 1_555 1_555
O3M Cu1FA 1_555 1_555
O4A C2A 1_555 1_555
O4B C2B 1_555 1_555
O4AA C2AA 1_555 1_555
O4FA C2FA 1_555 1_555
O4GA C2GA 1_555 1_555
O5O Cu1O 1_555 1_555
O5A Cu1A 1_555 1_555
O5B Cu1B 1_555 1_555
O5AA Cu1AA 1_555 1_555
O5FA Cu1FA 1_555 1_555
H1O O5O 1_555 1_555
H1A O5A 1_555 1_555
H1B O5B 1_555 1_555
H1AA O5AA 1_555 1_555
H1FA O5FA 1_555 1_555
H2O O5O 1_555 1_555
H2A O5A 1_555 1_555
H2B O5B 1_555 1_555
H2AA O5AA 1_555 1_555
H2FA O5FA 1_555 1_555
C1A O1A 1_555 1_555
C1B O1B 1_555 1_555
C1AA O1AA 1_555 1_555
C1FA O1FA 1_555 1_555
C1GA C4GA 1_555 1_555
C2A C6A 1_555 1_555
C2B C6B 1_555 1_555
C2AA O3AA 1_555 1_555
C2FA C6FA 1_555 1_555
C2GA C6GA 1_555 1_555
C3AA H3AA 1_555 1_555
C4A C1A 1_555 1_555
C4B C1B 1_555 1_555
C4AA C1AA 1_555 1_555
C4FA C1FA 1_555 1_555
C4GA C5GA 1_555 1_555
C5A C4A 1_555 1_555
C5B C4B 1_555 1_555
C5AA C4AA 1_555 1_555
C5FA C4FA 1_555 1_555
C5GA C6GA 1_555 1_555
C6A C5A 1_555 1_555
C6B C5B 1_555 1_555
C6AA C2AA 1_555 1_555
C6FA C5FA 1_555 1_555
C6GA C7GA 1_555 1_555
C7A C6A 1_555 1_555
C7B C6B 1_555 1_555
C7AA C6AA 1_555 1_555
C7FA C6FA 1_555 1_555
C7GA C8GA 1_555 1_555
C8A C3 1_555 1_555
C8B C3 1_555 1_555
C8AA C3AA 1_555 1_555
C8FA C3AA 1_555 1_555
C8GA C3AA 1_555 1_555
C9A C4A 1_555 1_555
C9B C4B 1_555 1_555
C9AA C4AA 1_555 1_555
C9FA C4FA 1_555 1_555
C9GA C4GA 1_555 1_555
C10O H4O 1_555 1_555
C10A H4A 1_555 1_555
C10N H4N 1_555 1_555
C10B H4B 1_555 1_555
C10I H4I 1_555 1_555
C11O C10O 1_555 1_555
C11A C10A 1_555 1_555
C11N C10N 1_555 1_555
C11B C10B 1_555 1_555
C11I C10I 1_555 1_555
H5O C11O 1_555 1_555
H5A C11A 1_555 1_555
H5N C11N 1_555 1_555
H5B C11B 1_555 1_555
H5I C11I 1_555 1_555
C12O C12 1_555 1_555
C12A C11A 1_555 1_555
C12N C11N 1_555 1_555
C12B C11B 1_555 1_555
C12I C11I 1_555 1_555
C13O C12O 1_555 1_555
C13A C12A 1_555 1_555
C13N C12N 1_555 1_555
C13B C12B 1_555 1_555
C13I C12I 1_555 1_555
H6O C13O 1_555 1_555
H6A C13A 1_555 1_555
H6N C13N 1_555 1_555
H6B C13B 1_555 1_555
H6I C13I 1_555 1_555
C14O N1O 1_555 1_555
C14A N1A 1_555 1_555
C14N N1N 1_555 1_555
C14B N1B 1_555 1_555
C14I N1I 1_555 1_555
H7O C14O 1_555 1_555
H7A C14A 1_555 1_555
H7N C14N 1_555 1_555
H7B C14B 1_555 1_555
H7I C14I 1_555 1_555
O6O Cu1O 1_555 1_555
O6A Cu1A 1_555 1_555
O6B Cu1B 1_555 1_555
O6AA Cu1AA 1_555 1_555
O6FA Cu1FA 1_555 1_555
H8O O6O 1_555 1_555
H8A O6A 1_555 1_555
H8B O6B 1_555 1_555
H8AA O6AA 1_555 1_555
H8FA O6FA 1_555 1_555
C15O O6O 1_555 1_555
C15A O6A 1_555 1_555
C15B O6B 1_555 1_555
C15AA O6AA 1_555 1_555
C15FA O6FA 1_555 1_555
H9O C15O 1_555 1_555
H9A C15A 1_555 1_555
H9B C15B 1_555 1_555
H9AA C15AA 1_555 1_555
H9FA C15FA 1_555 1_555
H10O C15O 1_555 1_555
H10A C15A 1_555 1_555
H10B C15B 1_555 1_555
H10AA C15AA 1_555 1_555
H10FA C15FA 1_555 1_555
C16O C15O 1_555 1_555
C16A C15A 1_555 1_555
C16B C15B 1_555 1_555
C16AA C15AA 1_555 1_555
C16FA C15FA 1_555 1_555
H11O C16O 1_555 1_555
H11A C16A 1_555 1_555
H11B C16B 1_555 1_555
H11AA C16AA 1_555 1_555
H11FA C16FA 1_555 1_555
H12O C16O 1_555 1_555
H12A C16A 1_555 1_555
H12B C16B 1_555 1_555
H12AA C16AA 1_555 1_555
H12FA C16FA 1_555 1_555
H13O C16O 1_555 1_555
H13A C16A 1_555 1_555
H13B C16B 1_555 1_555
H13AA C16AA 1_555 1_555
H13FA C16FA 1_555 1_555
C18J C17 1_555 1_555
C7 C8 1_555 1_555
C8 C9 1_555 1_555
C13 C14 1_555 1_555
C5AA C6AA 1_555 1_555
C7A C8A 1_555 1_555
C7B C8B 1_555 1_555
C7AA C8AA 1_555 1_555
C7FA C8FA 1_555 1_555
C8A C9A 1_555 1_555
C8B C9B 1_555 1_555
C8AA C9AA 1_555 1_555
C8FA C9FA 1_555 1_555
C8GA C9GA 1_555 1_555
C11O C12O 1_555 1_555
C12A C12N 1_555 1_555
C12B C12I 1_555 1_555
C13O C14O 1_555 1_555
C13A C14A 1_555 1_555
C13N C14N 1_555 1_555
C13B C14B 1_555 1_555
C13I C14I 1_555 1_555

#END
