
#######################################################################
#
#                 Cambridge Crystallographic Data Centre
#                                CCDC 
#
#######################################################################
#
# If this CIF has been generated from an entry in the Cambridge 
# Structural Database, then it will include bibliographic, chemical, 
# crystal, experimental, refinement or atomic coordinate data resulting 
# from the CCDC's data processing and validation procedures.
#
#######################################################################

data_QISVEV
_symmetry_cell_setting           monoclinic
_symmetry_space_group_name_H-M   'C 2/c'
_symmetry_Int_Tables_number      15
_space_group_name_Hall           '-C 2yn'
loop_
_symmetry_equiv_pos_site_id
_symmetry_equiv_pos_as_xyz
1 x,y,z
2 -x,y,1/2-z
3 1/2+x,1/2+y,z
4 1/2-x,1/2+y,1/2-z
5 -x,-y,-z
6 x,-y,1/2+z
7 1/2-x,1/2-y,-z
8 1/2+x,1/2-y,1/2+z
_cell_length_a                   27.197
_cell_length_b                   10.690
_cell_length_c                   15.789
_cell_angle_alpha                90
_cell_angle_beta                 124.67
_cell_angle_gamma                90
_cell_volume                     3775.36
loop_
_atom_site_label
_atom_site_type_symbol
_atom_site_fract_x
_atom_site_fract_y
_atom_site_fract_z
Co1 Co 0.5000 0.58385(4) 0.7500
O1 O 0.58722(11) 0.6156(2) 0.7706(2)
O2 O 0.56041(11) 0.7330(2) 0.8472(2)
N1 N 0.75379(11) 0.9293(2) 0.92319(18)
N2 N 0.47017(10) 0.4662(2) 0.62585(17)
N3 N 0.47837(11) 0.3446(2) 0.52211(18)
C1 C 0.59613(17) 0.7076(3) 0.8249(3)
C2 C 0.65043(12) 0.7891(3) 0.8619(2)
C3 C 0.66134(13) 0.9053(3) 0.9151(2)
C4 C 0.62287(16) 0.9615(3) 0.9373(3)
H1 H 0.5869 0.9227 0.9159
C5 C 0.63778(18) 1.0723(4) 0.9899(3)
H2 H 0.6115 1.1083 1.0028
C6 C 0.69182(17) 1.1321(3) 1.0245(3)
H3 H 0.7020 1.2060 1.0620
C7 C 0.72946(16) 1.0818(3) 1.0030(3)
H4 H 0.7652 1.1222 1.0255
C8 C 0.71512(13) 0.9689(3) 0.9469(2)
C9 C 0.74097(12) 0.8251(3) 0.8701(2)
C10 C 0.69051(12) 0.7510(3) 0.8412(2)
H5 H 0.6846 0.6753 0.8077
C11 C 0.77935(12) 0.7924(3) 0.8339(2)
C12 C 0.80306(13) 0.8880(3) 0.8078(2)
H6 H 0.7981 0.9708 0.8194
C13 C 0.83390(14) 0.8608(4) 0.7646(3)
H7 H 0.8488 0.9253 0.7457
C14 C 0.84273(15) 0.7382(4) 0.7495(3)
H8 H 0.8631 0.7201 0.7195
C15 C 0.82149(16) 0.6423(4) 0.7786(3)
H9 H 0.8288 0.5597 0.7707
C16 C 0.78922(14) 0.6690(3) 0.8198(3)
H10 H 0.7742 0.6042 0.8381
C17 C 0.41420(13) 0.4434(3) 0.5388(2)
H11 H 0.3786 0.4745 0.5259
C18 C 0.41896(15) 0.3685(3) 0.4747(3)
H12 H 0.3878 0.3390 0.4108
C19 C 0.50709(13) 0.4052(2) 0.6116(2)
H13 H 0.5484 0.4046 0.6586
C20 C 0.50605(16) 0.2699(3) 0.4818(3)
H14 H 0.5480 0.2925 0.5185
H15 H 0.4871 0.2906 0.4098
C21 C 0.50129(13) 0.1300(2) 0.4913(2)
C22 C 0.48341(14) 0.0532(3) 0.4078(2)
H16 H 0.4721 0.0885 0.3453
C23 C 0.51784(15) 0.0755(3) 0.5836(2)
H17 H 0.5299 0.1258 0.6403
N2D N 0.52983(10) -0.4662(2) 0.37415(17)
N3D N 0.52163(11) -0.3446(2) 0.47789(18)
C17D C 0.58580(13) -0.4434(3) 0.4612(2)
H11D H 0.6214 -0.4745 0.4741
C18D C 0.58104(15) -0.3685(3) 0.5253(3)
H12D H 0.6122 -0.3390 0.5892
C19D C 0.49291(13) -0.4052(2) 0.3884(2)
H13D H 0.4516 -0.4046 0.3414
C20D C 0.49395(16) -0.2699(3) 0.5182(3)
H14D H 0.4520 -0.2925 0.4815
H15D H 0.5129 -0.2906 0.5902
C21D C 0.49871(13) -0.1300(2) 0.5087(2)
C22D C 0.51659(14) -0.0532(3) 0.5922(2)
H16D H 0.5279 -0.0885 0.6547
C23D C 0.48216(15) -0.0755(3) 0.4164(2)
H17D H 0.4701 -0.1258 0.3597
O1A O 0.41278(11) 0.6156(2) 0.7294(2)
O2A O 0.43959(11) 0.7330(2) 0.6528(2)
N1A N 0.24621(11) 0.9293(2) 0.57681(18)
C1A C 0.40387(17) 0.7076(3) 0.6751(3)
C2A C 0.34957(12) 0.7891(3) 0.6381(2)
C3A C 0.33866(13) 0.9053(3) 0.5849(2)
C4A C 0.37713(16) 0.9615(3) 0.5627(3)
H1A H 0.4131 0.9227 0.5841
C5A C 0.36222(18) 1.0723(4) 0.5101(3)
H2A H 0.3885 1.1083 0.4972
C6A C 0.30818(17) 1.1321(3) 0.4755(3)
H3A H 0.2980 1.2060 0.4380
C7A C 0.27054(16) 1.0818(3) 0.4970(3)
H4A H 0.2348 1.1222 0.4745
C8A C 0.28488(13) 0.9689(3) 0.5531(2)
C9A C 0.25903(12) 0.8251(3) 0.6299(2)
C10A C 0.30949(12) 0.7510(3) 0.6588(2)
H5A H 0.3154 0.6753 0.6923
C11A C 0.22065(12) 0.7924(3) 0.6661(2)
C12A C 0.19694(13) 0.8880(3) 0.6922(2)
H6A H 0.2019 0.9708 0.6806
C13A C 0.16610(14) 0.8608(4) 0.7354(3)
H7A H 0.1512 0.9253 0.7543
C14A C 0.15727(15) 0.7382(4) 0.7505(3)
H8A H 0.1369 0.7201 0.7805
C15A C 0.17851(16) 0.6423(4) 0.7214(3)
H9A H 0.1712 0.5597 0.7293
C16A C 0.21078(14) 0.6690(3) 0.6802(3)
H10A H 0.2258 0.6042 0.6619
Co1D Co 0.5000 -0.58385(4) 0.2500
N2A N 0.52983(10) 0.4662(2) 0.87415(17)
loop_
_geom_bond_atom_site_label_1
_geom_bond_atom_site_label_2
_geom_bond_site_symmetry_1
_geom_bond_site_symmetry_2
Co1 O1 1_555 1_555
O1 C1 1_555 1_555
O2 Co1 1_555 1_555
N1 C8 1_555 1_555
N2 Co1 1_555 1_555
N3 C18 1_555 1_555
C1 O2 1_555 1_555
C2 C1 1_555 1_555
C3 C2 1_555 1_555
C4 C3 1_555 1_555
H1 C4 1_555 1_555
C5 C4 1_555 1_555
H2 C5 1_555 1_555
C6 C5 1_555 1_555
H3 C6 1_555 1_555
C7 C6 1_555 1_555
H4 C7 1_555 1_555
C8 C3 1_555 1_555
C9 N1 1_555 1_555
C10 C2 1_555 1_555
H5 C10 1_555 1_555
C11 C9 1_555 1_555
C12 C11 1_555 1_555
H6 C12 1_555 1_555
C13 C12 1_555 1_555
H7 C13 1_555 1_555
C14 C13 1_555 1_555
H8 C14 1_555 1_555
C15 C14 1_555 1_555
H9 C15 1_555 1_555
C16 C11 1_555 1_555
H10 C16 1_555 1_555
C17 N2 1_555 1_555
H11 C17 1_555 1_555
C18 C17 1_555 1_555
H12 C18 1_555 1_555
C19 N2 1_555 1_555
H13 C19 1_555 1_555
C20 N3 1_555 1_555
H14 C20 1_555 1_555
H15 C20 1_555 1_555
C21 C20 1_555 1_555
C22 C21 1_555 1_555
H16 C22 1_555 1_555
C23 C21 1_555 1_555
H17 C23 1_555 1_555
N2D C17D 1_555 1_555
N3D C18D 1_555 1_555
C17D H11D 1_555 1_555
C18D C17D 1_555 1_555
H12D C18D 1_555 1_555
C19D N2D 1_555 1_555
H13D C19D 1_555 1_555
C20D N3D 1_555 1_555
H14D C20D 1_555 1_555
H15D C20D 1_555 1_555
C21D C20D 1_555 1_555
C22D C23 1_555 1_555
H16D C22D 1_555 1_555
C23D C22 1_555 1_555
H17D C23D 1_555 1_555
O1A Co1 1_555 1_555
O2A Co1 1_555 1_555
N1A C8A 1_555 1_555
C1A O1A 1_555 1_555
C2A C1A 1_555 1_555
C3A C2A 1_555 1_555
C4A C3A 1_555 1_555
H1A C4A 1_555 1_555
C5A C4A 1_555 1_555
H2A C5A 1_555 1_555
C6A C5A 1_555 1_555
H3A C6A 1_555 1_555
C7A C6A 1_555 1_555
H4A C7A 1_555 1_555
C8A C3A 1_555 1_555
C9A N1A 1_555 1_555
C10A C2A 1_555 1_555
H5A C10A 1_555 1_555
C11A C9A 1_555 1_555
C12A C11A 1_555 1_555
H6A C12A 1_555 1_555
C13A C12A 1_555 1_555
H7A C13A 1_555 1_555
C14A C13A 1_555 1_555
H8A C14A 1_555 1_555
C15A C14A 1_555 1_555
H9A C15A 1_555 1_555
C16A C11A 1_555 1_555
H10A C16A 1_555 1_555
Co1D N2D 1_555 1_555
N2A Co1 1_555 1_555
N3 C19 1_555 1_555
C7 C8 1_555 1_555
C9 C10 1_555 1_555
C15 C16 1_555 1_555
N3D C19D 1_555 1_555
C21D C22D 1_555 1_555
C21D C23D 1_555 1_555
O2A C1A 1_555 1_555
C7A C8A 1_555 1_555
C9A C10A 1_555 1_555
C15A C16A 1_555 1_555

#END
