
#######################################################################
#
#                 Cambridge Crystallographic Data Centre
#                                CCDC 
#
#######################################################################
#
# If this CIF has been generated from an entry in the Cambridge 
# Structural Database, then it will include bibliographic, chemical, 
# crystal, experimental, refinement or atomic coordinate data resulting 
# from the CCDC's data processing and validation procedures.
#
#######################################################################

data_QISVUL
_symmetry_cell_setting           triclinic
_symmetry_space_group_name_H-M   'P -1'
_symmetry_Int_Tables_number      2
_space_group_name_Hall           '-P 1'
loop_
_symmetry_equiv_pos_site_id
_symmetry_equiv_pos_as_xyz
1 x,y,z
2 -x,-y,-z
_cell_length_a                   10.5947(12)
_cell_length_b                   13.6612(16)
_cell_length_c                   14.5793(17)
_cell_angle_alpha                78.8790(10)
_cell_angle_beta                 80.1200(10)
_cell_angle_gamma                68.4370(10)
_cell_volume                     1913.86
loop_
_atom_site_label
_atom_site_type_symbol
_atom_site_fract_x
_atom_site_fract_y
_atom_site_fract_z
Nd1 Nd 0.32986(2) 0.748447(17) 0.208392(15)
C1 C 0.3385(4) 0.6048(3) -0.0744(3)
H1 H 0.3682 0.5354 -0.0875
O1 O 0.2535(3) 0.5940(2) 0.23040(18)
C2 C -0.0237(4) 1.1659(3) -0.5306(3)
H2 H -0.1023 1.2213 -0.5480
C3 C 0.1542(4) 0.9860(3) -0.1625(3)
O2 O -0.1691(3) 1.1066(2) -0.29788(18)
C4 C 0.6035(4) 0.7574(3) -0.0393(3)
O3 O 0.4784(3) 0.8374(2) 0.09490(19)
O4 O -0.2089(3) 1.2664(2) -0.37984(18)
C5 C 0.5461(4) 0.7521(3) 0.0631(3)
O5 O 0.0778(3) 0.7440(2) 0.21499(19)
C6 C -0.1372(4) 1.1680(3) -0.3671(3)
N1 N 0.2919(3) 0.7230(2) 0.0399(2)
O6 O 0.5558(3) 0.6617(2) 0.11174(19)
C7 C 0.2976(4) 0.6896(3) -0.1443(3)
H3 H 0.3010 0.6781 -0.2056
C8 C 0.3348(4) 0.6249(3) 0.0166(3)
H4 H 0.3636 0.5672 0.0634
C9 C 0.1052(4) 1.0424(3) -0.4104(3)
C10 C 0.1320(4) 0.9951(3) -0.3120(3)
C11 C 0.6659(5) 0.6660(4) -0.0813(3)
H5 H 0.6824 0.5994 -0.0452
N2 N 0.1905(3) 0.8918(2) -0.2838(2)
N3 N 0.6228(5) 0.8629(3) -0.1909(3)
C12 C -0.0142(4) 1.1250(3) -0.4357(3)
C13 C 0.1539(4) 1.0047(3) -0.0693(3)
N4 N 0.1994(3) 0.9230(2) 0.0905(2)
N5 N 0.1103(3) 1.0554(3) -0.2418(2)
H6 H 0.0758 1.1236 -0.2465
C14 C 0.2007(4) 0.9137(3) -0.0014(3)
C15 C 0.1082(4) 1.1063(3) -0.0414(3)
H7 H 0.0765 1.1673 -0.0844
C16 C 0.2482(4) 0.8078(3) -0.0280(3)
C17 C 0.2025(4) 0.8862(3) -0.1890(3)
C18 C 0.2510(4) 0.7927(3) -0.1223(3)
C19 C 0.1583(4) 1.0203(3) 0.1136(3)
H8 H 0.1607 1.0267 0.1755
C20 C 0.1981(4) 1.0452(3) -0.5746(3)
H9 H 0.2689 1.0185 -0.6206
C21 C 0.2111(4) 1.0031(3) -0.4807(3)
H10 H 0.2907 0.9484 -0.4641
C22 C 0.1117(4) 1.1131(3) 0.0508(3)
H11 H 0.0831 1.1792 0.0711
C23 C 0.0808(4) 1.1263(3) -0.6000(3)
H12 H 0.0716 1.1542 -0.6630
C24 C 0.1259(4) 0.6441(3) 0.2345(3)
C25 C 0.0333(4) 0.5797(3) 0.2578(3)
C26 C -0.0649(4) 0.6007(4) 0.1980(3)
H13 H -0.0836 0.6623 0.1545
C27 C -0.0183(4) 0.4221(3) 0.3316(3)
H14 H -0.0049 0.3626 0.3774
C28 C 0.0541(4) 0.4899(3) 0.3290(3)
C29 C -0.1100(4) 0.4420(3) 0.2670(3)
H15 H -0.1542 0.3941 0.2679
C30 C -0.1360(4) 0.5328(4) 0.2012(3)
H16 H -0.2004 0.5479 0.1596
C31 C 0.1496(4) 0.4598(3) 0.4018(3)
N6 N 0.1937(3) 0.5264(3) 0.4371(2)
H17 H 0.1740 0.5937 0.4195
N7 N 0.1967(3) 0.3598(3) 0.4445(2)
C32 C 0.2754(4) 0.3641(3) 0.5092(3)
C33 C 0.2754(4) 0.4655(3) 0.5057(3)
C34 C 0.3508(4) 0.4922(3) 0.5632(3)
N8 N 0.5045(3) 0.4239(2) 0.6852(2)
C35 C 0.4990(4) 0.5228(3) 0.6831(3)
H18 H 0.5467 0.5348 0.7252
C36 C 0.4293(4) 0.3001(3) 0.6318(3)
C37 C 0.4287(4) 0.4074(3) 0.6267(3)
C38 C 0.3543(4) 0.5947(3) 0.5605(3)
H19 H 0.3081 0.6509 0.5176
C39 C 0.4270(4) 0.6104(3) 0.6224(3)
H20 H 0.4283 0.6778 0.6238
C40 C 0.3511(4) 0.2777(3) 0.5748(3)
C41 C 0.3499(4) 0.1732(3) 0.5844(3)
H21 H 0.3005 0.1560 0.5470
N9 N 0.5041(3) 0.2226(2) 0.6956(2)
C42 C 0.4993(4) 0.1252(3) 0.7043(3)
H22 H 0.5489 0.0728 0.7485
C43 C 0.4238(4) 0.0975(3) 0.6507(3)
H23 H 0.4234 0.0283 0.6597
C44 C 0.5831(5) 0.8543(4) -0.0976(3)
H24 H 0.5397 0.9164 -0.0707
C45 C 0.6805(5) 0.7732(4) -0.2275(4)
H25 H 0.7071 0.7778 -0.2919
C46 C 0.7034(6) 0.6746(4) -0.1770(4)
H26 H 0.7437 0.6141 -0.2066
Nd1A Nd -0.32986(2) 1.251553(17) -0.208392(15)
Nd1A_2 Nd 0.67014(2) 0.251553(17) 0.791608(15)
O2A O 0.1691(3) 0.8934(2) 0.29788(18)
O4A O 0.2089(3) 0.7336(2) 0.37984(18)
N8A N 0.4955(3) 0.5761(2) 0.3148(2)
N9A N 0.4959(3) 0.7774(2) 0.3044(2)
loop_
_geom_bond_atom_site_label_1
_geom_bond_atom_site_label_2
_geom_bond_site_symmetry_1
_geom_bond_site_symmetry_2
Nd1 O1 1_555 1_555
C1 H1 1_555 1_555
O1 C24 1_555 1_555
C2 H2 1_555 1_555
C3 C13 1_555 1_555
O2 C6 1_555 1_555
C4 C5 1_555 1_555
O3 Nd1 1_555 1_555
O4 C6 1_555 1_555
C5 O3 1_555 1_555
O5 Nd1 1_555 1_555
C6 C12 1_555 1_555
N1 Nd1 1_555 1_555
O6 Nd1 1_555 1_555
C7 C1 1_555 1_555
H3 C7 1_555 1_555
C8 C1 1_555 1_555
H4 C8 1_555 1_555
C9 C10 1_555 1_555
C10 N2 1_555 1_555
C11 C4 1_555 1_555
H5 C11 1_555 1_555
N2 C17 1_555 1_555
N3 C44 1_555 1_555
C12 C2 1_555 1_555
C13 C14 1_555 1_555
N4 Nd1 1_555 1_555
N5 C3 1_555 1_555
H6 N5 1_555 1_555
C14 N4 1_555 1_555
C15 C13 1_555 1_555
H7 C15 1_555 1_555
C16 N1 1_555 1_555
C17 C3 1_555 1_555
C18 C7 1_555 1_555
C19 N4 1_555 1_555
H8 C19 1_555 1_555
C20 H9 1_555 1_555
C21 C9 1_555 1_555
H10 C21 1_555 1_555
C22 C15 1_555 1_555
H11 C22 1_555 1_555
C23 C2 1_555 1_555
H12 C23 1_555 1_555
C24 O5 1_555 1_555
C25 C24 1_555 1_555
C26 C25 1_555 1_555
H13 C26 1_555 1_555
C27 H14 1_555 1_555
C28 C25 1_555 1_555
C29 C27 1_555 1_555
H15 C29 1_555 1_555
C30 C26 1_555 1_555
H16 C30 1_555 1_555
C31 C28 1_555 1_555
N6 C31 1_555 1_555
H17 N6 1_555 1_555
N7 C31 1_555 1_555
C32 N7 1_555 1_555
C33 N6 1_555 1_555
C34 C33 1_555 1_555
N8 C35 1_555 1_555
C35 H18 1_555 1_555
C36 C37 1_555 1_555
C37 C34 1_555 1_555
C38 C34 1_555 1_555
H19 C38 1_555 1_555
C39 C35 1_555 1_555
H20 C39 1_555 1_555
C40 C32 1_555 1_555
C41 C40 1_555 1_555
H21 C41 1_555 1_555
N9 C36 1_555 1_555
C42 N9 1_555 1_555
H22 C42 1_555 1_555
C43 C41 1_555 1_555
H23 C43 1_555 1_555
C44 C4 1_555 1_555
H24 C44 1_555 1_555
C45 N3 1_555 1_555
H25 C45 1_555 1_555
C46 C11 1_555 1_555
H26 C46 1_555 1_555
Nd1A O2 1_555 1_555
Nd1A_2 N8 1_555 1_555
O2A Nd1 1_555 1_555
O4A Nd1 1_555 1_555
N8A Nd1 1_555 1_555
N9A Nd1 1_555 1_555
O4 Nd1A 1_555 1_555
C5 O6 1_555 1_555
N1 C8 1_555 1_555
C9 C12 1_555 1_555
C10 N5 1_555 1_555
C14 C16 1_555 1_555
C16 C18 1_555 1_555
C17 C18 1_555 1_555
C19 C22 1_555 1_555
C20 C21 1_555 1_555
C20 C23 1_555 1_555
C27 C28 1_555 1_555
C29 C30 1_555 1_555
C32 C33 1_555 1_555
N8 C37 1_555 1_555
C36 C40 1_555 1_555
C38 C39 1_555 1_555
N9 Nd1A_2 1_555 1_555
C42 C43 1_555 1_555
C45 C46 1_555 1_555

#END
