
#######################################################################
#
#                 Cambridge Crystallographic Data Centre
#                                CCDC 
#
#######################################################################
#
# If this CIF has been generated from an entry in the Cambridge 
# Structural Database, then it will include bibliographic, chemical, 
# crystal, experimental, refinement or atomic coordinate data resulting 
# from the CCDC's data processing and validation procedures.
#
#######################################################################

data_QISWEW
_symmetry_cell_setting           triclinic
_symmetry_space_group_name_H-M   'P -1'
_symmetry_Int_Tables_number      2
_space_group_name_Hall           '-P 1'
loop_
_symmetry_equiv_pos_site_id
_symmetry_equiv_pos_as_xyz
1 x,y,z
2 -x,-y,-z
_cell_length_a                   10.6030(9)
_cell_length_b                   13.5915(11)
_cell_length_c                   14.6910(12)
_cell_angle_alpha                79.2200(10)
_cell_angle_beta                 80.140(2)
_cell_angle_gamma                68.149(2)
_cell_volume                     1918.32
loop_
_atom_site_label
_atom_site_type_symbol
_atom_site_fract_x
_atom_site_fract_y
_atom_site_fract_z
La1 La 0.33254(5) 0.24886(4) 0.70799(3)
C1 C 0.5748(8) -0.1122(6) 0.8800(5)
H1 H 0.5723 -0.1798 0.8795
N1 N 0.4998(6) 0.0742(5) 0.8174(4)
O1 O 0.5616(5) 0.1635(4) 0.6070(3)
O2 O 0.1650(5) 0.3963(4) 0.7984(3)
C2 C 0.5776(8) 0.1983(6) 0.8694(5)
O3 O 0.4835(6) 0.3397(4) 0.5929(3)
N2 N 0.5035(6) 0.2756(5) 0.8058(4)
C3 C 0.7269(8) 0.0331(6) 0.9968(5)
C4 C 0.6653(10) 0.1698(7) 0.4173(6)
H2 H 0.6854 0.1028 0.4531
C5 C 0.6545(8) 0.2201(6) 0.9266(5)
N3 N 0.8089(6) -0.0281(5) 1.0649(4)
H3 H 0.8289 -0.0956 1.0827
C6 C 0.8519(8) 0.0395(6) 1.0986(5)
N4 N 0.8056(6) 0.1393(5) 1.0562(4)
C7 C 0.9459(8) 0.0097(6) 1.1712(5)
C8 C 1.0638(8) -0.0994(6) 1.3020(5)
H4 H 1.0818 -0.1610 1.3454
C9 C 0.5042(8) -0.0252(6) 0.8188(5)
H5 H 0.4575 -0.0373 0.7764
C10 C 0.6521(8) 0.0059(6) 0.9389(5)
C11 C 0.5758(8) 0.0904(6) 0.8749(5)
C12 C 0.7267(8) 0.1346(6) 0.9928(5)
C13 C 0.5092(8) 0.3736(6) 0.7957(5)
H6 H 0.4626 0.4256 0.7503
C14 C 0.6480(8) -0.0965(6) 0.9412(5)
H7 H 0.6944 -0.1531 0.9835
C15 C 1.0186(8) 0.0772(6) 1.1687(5)
H8 H 1.0057 0.1362 1.1228
C16 C 0.6029(9) 0.2607(7) 0.4593(5)
C17 C 0.5811(9) 0.3582(7) 0.4018(5)
H9 H 0.5376 0.4206 0.4292
C18 C 0.9657(8) -0.0777(6) 1.2418(5)
N5 N 0.6186(9) 0.3680(6) 0.3097(5)
C19 C 0.5831(8) 0.4004(6) 0.8512(5)
H10 H 0.5834 0.4698 0.8432
C20 C 0.6547(8) 0.3253(6) 0.9170(5)
H11 H 0.7027 0.3430 0.9548
C21 C 1.1096(8) 0.0586(6) 1.2328(5)
H12 H 1.1534 0.1069 1.2312
C22 C 1.1355(8) -0.0310(6) 1.2988(5)
H13 H 1.1994 -0.0455 1.3402
O4 O 0.9232(5) -0.2436(4) 1.2847(3)
O5 O 0.7465(5) -0.0916(4) 1.2693(3)
C23 C 0.8735(8) -0.1422(6) 1.2656(5)
C24 C 0.5501(9) 0.2539(7) 0.5605(5)
C25 C 0.6741(10) 0.2792(7) 0.2704(6)
H14 H 0.6976 0.2849 0.2062
C26 C 0.6986(10) 0.1783(8) 0.3206(6)
H15 H 0.7365 0.1176 0.2907
O6 O 0.2064(5) 0.2360(4) 0.8810(3)
C27 C 0.1344(8) 0.3334(6) 0.8662(5)
C28 C 0.0092(8) 0.3791(6) 0.9338(5)
C29 C 0.0176(8) 0.3378(6) 1.0277(5)
H16 H 0.0957 0.2815 1.0452
C30 C -0.1110(8) 0.4623(6) 0.9082(5)
C31 C -0.2161(8) 0.5023(6) 0.9770(5)
H17 H -0.2950 0.5582 0.9603
C32 C -0.2055(8) 0.4602(6) 1.0701(5)
H18 H -0.2773 0.4867 1.1154
C33 C -0.0871(8) 0.3785(6) 1.0949(5)
H19 H -0.0784 0.3510 1.1573
C34 C -0.1343(8) 0.5077(6) 0.8111(5)
N6 N -0.1112(6) 0.4465(5) 0.7408(4)
H20 H -0.0759 0.3779 0.7454
N7 N -0.1917(6) 0.6110(5) 0.7825(4)
C35 C -0.1545(8) 0.5143(6) 0.6634(5)
C36 C -0.2039(8) 0.6157(6) 0.6886(5)
C37 C -0.1517(7) 0.4936(6) 0.5698(5)
C38 C -0.1566(7) 0.4786(6) 0.3892(5)
H21 H -0.1581 0.4719 0.3276
C39 C -0.2006(7) 0.5857(6) 0.5039(5)
C40 C -0.1095(8) 0.3847(6) 0.4510(5)
H22 H -0.0806 0.3181 0.4307
C41 C -0.1069(8) 0.3929(6) 0.5413(5)
H23 H -0.0753 0.3317 0.5838
N8 N -0.1991(6) 0.5759(5) 0.4119(4)
N9 N -0.2921(6) 0.7770(5) 0.4619(4)
C42 C -0.2491(8) 0.6915(6) 0.5289(5)
C43 C -0.2531(8) 0.7073(6) 0.6222(5)
C44 C -0.3394(8) 0.8981(6) 0.5751(5)
H24 H -0.3688 0.9682 0.5877
C45 C -0.3346(8) 0.8748(6) 0.4852(5)
H25 H -0.3633 0.9322 0.4386
C46 C -0.2987(8) 0.8129(6) 0.6438(5)
H26 H -0.3011 0.8247 0.7045
La1A La -0.33254(5) 0.75114(4) 0.29201(3)
La1A_2 La 0.66746(5) -0.24886(4) 1.29201(3)
O4A O 0.0768(5) 0.2436(4) 0.7153(3)
O5A O 0.2535(5) 0.0916(4) 0.7307(3)
N8A N 0.1991(6) 0.4241(5) 0.5881(4)
N9A N 0.2921(6) 0.2230(5) 0.5381(4)
loop_
_geom_bond_atom_site_label_1
_geom_bond_atom_site_label_2
_geom_bond_site_symmetry_1
_geom_bond_site_symmetry_2
La1 N1 1_555 1_555
C1 H1 1_555 1_555
N1 C9 1_555 1_555
O1 La1 1_555 1_555
O2 La1 1_555 1_555
C2 N2 1_555 1_555
O3 La1 1_555 1_555
N2 La1 1_555 1_555
C3 N3 1_555 1_555
C4 H2 1_555 1_555
C5 C2 1_555 1_555
N3 H3 1_555 1_555
C6 N3 1_555 1_555
N4 C6 1_555 1_555
C7 C6 1_555 1_555
C8 H4 1_555 1_555
C9 C1 1_555 1_555
H5 C9 1_555 1_555
C10 C3 1_555 1_555
C11 N1 1_555 1_555
C12 C3 1_555 1_555
C13 N2 1_555 1_555
H6 C13 1_555 1_555
C14 C1 1_555 1_555
H7 C14 1_555 1_555
C15 C7 1_555 1_555
H8 C15 1_555 1_555
C16 C4 1_555 1_555
C17 C16 1_555 1_555
H9 C17 1_555 1_555
C18 C7 1_555 1_555
N5 C17 1_555 1_555
C19 C13 1_555 1_555
H10 C19 1_555 1_555
C20 C5 1_555 1_555
H11 C20 1_555 1_555
C21 C15 1_555 1_555
H12 C21 1_555 1_555
C22 C8 1_555 1_555
H13 C22 1_555 1_555
O4 C23 1_555 1_555
O5 C23 1_555 1_555
C23 C18 1_555 1_555
C24 O1 1_555 1_555
C25 N5 1_555 1_555
H14 C25 1_555 1_555
C26 C4 1_555 1_555
H15 C26 1_555 1_555
O6 La1 1_555 1_555
C27 O2 1_555 1_555
C28 C27 1_555 1_555
C29 C28 1_555 1_555
H16 C29 1_555 1_555
C30 C28 1_555 1_555
C31 C30 1_555 1_555
H17 C31 1_555 1_555
C32 C31 1_555 1_555
H18 C32 1_555 1_555
C33 C29 1_555 1_555
H19 C33 1_555 1_555
C34 C30 1_555 1_555
N6 C34 1_555 1_555
H20 N6 1_555 1_555
N7 C34 1_555 1_555
C35 N6 1_555 1_555
C36 N7 1_555 1_555
C37 C35 1_555 1_555
C38 H21 1_555 1_555
C39 C37 1_555 1_555
C40 C38 1_555 1_555
H22 C40 1_555 1_555
C41 C37 1_555 1_555
H23 C41 1_555 1_555
N8 C38 1_555 1_555
N9 C42 1_555 1_555
C42 C39 1_555 1_555
C43 C36 1_555 1_555
C44 H24 1_555 1_555
C45 N9 1_555 1_555
H25 C45 1_555 1_555
C46 C43 1_555 1_555
H26 C46 1_555 1_555
La1A N8 1_555 1_555
La1A_2 O4 1_555 1_555
O4A La1 1_555 1_555
O5A La1 1_555 1_555
N8A La1 1_555 1_555
N9A La1 1_555 1_555
C2 C11 1_555 1_555
O3 C24 1_555 1_555
C5 C12 1_555 1_555
N4 C12 1_555 1_555
C8 C18 1_555 1_555
C10 C11 1_555 1_555
C10 C14 1_555 1_555
C16 C24 1_555 1_555
C19 C20 1_555 1_555
C21 C22 1_555 1_555
O5 La1A_2 1_555 1_555
C25 C26 1_555 1_555
O6 C27 1_555 1_555
C32 C33 1_555 1_555
C35 C36 1_555 1_555
C39 N8 1_555 1_555
C40 C41 1_555 1_555
N9 La1A 1_555 1_555
C42 C43 1_555 1_555
C44 C45 1_555 1_555
C44 C46 1_555 1_555

#END
