
#######################################################################
#
#                 Cambridge Crystallographic Data Centre
#                                CCDC 
#
#######################################################################
#
# If this CIF has been generated from an entry in the Cambridge 
# Structural Database, then it will include bibliographic, chemical, 
# crystal, experimental, refinement or atomic coordinate data resulting 
# from the CCDC's data processing and validation procedures.
#
#######################################################################

data_QISWUM
_symmetry_cell_setting           triclinic
_symmetry_space_group_name_H-M   'P -1'
_symmetry_Int_Tables_number      2
_space_group_name_Hall           '-P 1'
loop_
_symmetry_equiv_pos_site_id
_symmetry_equiv_pos_as_xyz
1 x,y,z
2 -x,-y,-z
_cell_length_a                   10.169(10)
_cell_length_b                   11.891(9)
_cell_length_c                   12.366(11)
_cell_angle_alpha                92.341(15)
_cell_angle_beta                 112.077(19)
_cell_angle_gamma                92.860(7)
_cell_volume                     1381.06
loop_
_atom_site_label
_atom_site_type_symbol
_atom_site_fract_x
_atom_site_fract_y
_atom_site_fract_z
C1 C -0.78342(19) 0.67121(15) 0.11417(15)
H1 H -0.7046 0.6417 0.1056
C2 C -0.98851(19) 0.73614(14) 0.07722(15)
H2 H -1.0787 0.7601 0.0367
C3 C -0.92373(18) 0.73826(14) 0.19479(16)
H3 H -0.9607 0.7628 0.2492
C4 C -0.68728(19) 0.68337(15) 0.33169(16)
C5 C -0.5493(2) 0.7255(2) 0.35726(18)
H4 H -0.5258 0.7631 0.3018
C6 C -0.4464(2) 0.7112(2) 0.46584(18)
H5 H -0.3533 0.7398 0.4841
C7 C -0.48208(19) 0.65427(15) 0.54740(15)
C8 C -0.62082(19) 0.61574(15) 0.52271(16)
H6 H -0.6448 0.5798 0.5788
C9 C -0.72458(19) 0.63049(15) 0.41441(16)
H7 H -0.8186 0.6050 0.3975
C10 C -0.23340(18) 0.63742(15) 0.68041(16)
H8 H -0.1938 0.6488 0.6247
C11 C -0.25852(19) 0.60636(15) 0.84233(16)
H9 H -0.2373 0.5920 0.9202
C12 C -0.39079(19) 0.61813(15) 0.76266(16)
H10 H -0.4756 0.6139 0.7751
C13 C 0.16331(19) 0.44862(15) 0.80414(17)
C14 C 0.25770(19) 0.35280(15) 0.82150(16)
C15 C 0.22377(19) 0.26198(15) 0.73767(16)
H11 H 0.1455 0.2639 0.6680
C16 C 0.30520(19) 0.16939(15) 0.75716(16)
H12 H 0.2796 0.1082 0.7024
C17 C 0.42600(19) 0.16871(15) 0.85971(16)
C18 C 0.46252(19) 0.25912(15) 0.94325(16)
H13 H 0.5429 0.2588 1.0116
C19 C 0.37703(19) 0.34992(15) 0.92296(16)
H14 H 0.4007 0.4100 0.9789
C20 C 0.63486(19) 0.07441(16) 0.96842(16)
H15 H 0.6168 0.0634 1.0390
H16 H 0.6915 0.1450 0.9789
C21 C 0.7113(2) -0.02209(15) 0.94307(17)
H17 H 0.7928 -0.0360 1.0124
H18 H 0.6482 -0.0902 0.9190
C22 C 0.8583(2) -0.04019(16) 0.71447(17)
H19 H 0.9215 0.0272 0.7458
H20 H 0.9104 -0.0968 0.6921
C23 C 0.8071(2) -0.08338(16) 0.80542(18)
H21 H 0.7314 -0.1423 0.7706
H22 H 0.8844 -0.1146 0.8672
C24 C 0.7607(2) 0.04668(15) 0.53175(17)
C25 C 0.6399(2) 0.07025(15) 0.43660(17)
H23 H 0.5503 0.0428 0.4314
C26 C 0.65320(19) 0.13419(15) 0.35025(16)
H24 H 0.5719 0.1504 0.2879
C27 C 0.78655(19) 0.17517(14) 0.35457(16)
C28 C 0.90580(19) 0.14946(15) 0.44899(16)
H25 H 0.9955 0.1754 0.4533
C29 C 0.89422(19) 0.08593(15) 0.53704(16)
H26 H 0.9755 0.0696 0.5994
C30 C 0.7972(2) 0.24713(15) 0.26070(16)
Co1 Co 0.05696(2) 0.63687(2) 0.85676(2)
N1 N -0.90006(15) 0.69288(12) 0.02628(12)
N2 N -0.79284(15) 0.69727(12) 0.21832(13)
N3 N -0.37382(15) 0.63772(12) 0.65883(12)
N4 N -0.15942(15) 0.61879(12) 0.79094(13)
O1 O 0.07567(13) 0.46737(11) 0.70510(11)
O2 O 0.17509(13) 0.50814(10) 0.89746(11)
O3 O 0.69245(14) 0.29245(12) 0.19696(12)
O4 O 0.92067(13) 0.25731(10) 0.25304(11)
O5 O 0.73730(14) -0.01485(11) 0.61471(12)
O6 O 0.75623(14) 0.00877(10) 0.85164(12)
O7 O 0.50301(13) 0.07596(10) 0.86923(11)
Co1_2 Co -0.94304(2) 0.63687(2) -0.14324(2)
Co1A Co 0.94304(2) 0.36313(2) 0.14324(2)
N1_2 N 0.09994(15) 0.69288(12) 1.02628(12)
O4A O 0.07933(13) 0.74269(10) 0.74696(11)
O8 O 0.1015(2) 0.40941(17) 0.49825(17)
loop_
_geom_bond_atom_site_label_1
_geom_bond_atom_site_label_2
_geom_bond_site_symmetry_1
_geom_bond_site_symmetry_2
C1 H1 1_555 1_555
C2 H2 1_555 1_555
C3 C2 1_555 1_555
H3 C3 1_555 1_555
C4 C5 1_555 1_555
C5 H4 1_555 1_555
C6 C5 1_555 1_555
H5 C6 1_555 1_555
C7 C6 1_555 1_555
C8 C7 1_555 1_555
H6 C8 1_555 1_555
C9 C4 1_555 1_555
H7 C9 1_555 1_555
C10 H8 1_555 1_555
C11 H9 1_555 1_555
C12 C11 1_555 1_555
H10 C12 1_555 1_555
C13 C14 1_555 1_555
C14 C15 1_555 1_555
C15 H11 1_555 1_555
C16 C15 1_555 1_555
H12 C16 1_555 1_555
C17 C16 1_555 1_555
C18 C17 1_555 1_555
H13 C18 1_555 1_555
C19 C14 1_555 1_555
H14 C19 1_555 1_555
C20 H15 1_555 1_555
H16 C20 1_555 1_555
C21 C20 1_555 1_555
H17 C21 1_555 1_555
H18 C21 1_555 1_555
C22 H19 1_555 1_555
H20 C22 1_555 1_555
C23 C22 1_555 1_555
H21 C23 1_555 1_555
H22 C23 1_555 1_555
C24 C25 1_555 1_555
C25 H23 1_555 1_555
C26 C25 1_555 1_555
H24 C26 1_555 1_555
C27 C26 1_555 1_555
C28 C27 1_555 1_555
H25 C28 1_555 1_555
C29 C24 1_555 1_555
H26 C29 1_555 1_555
C30 C27 1_555 1_555
Co1 N4 1_555 1_555
N1 C1 1_555 1_555
N2 C1 1_555 1_555
N3 C7 1_555 1_555
N4 C10 1_555 1_555
O1 C13 1_555 1_555
O2 C13 1_555 1_555
O3 C30 1_555 1_555
O4 C30 1_555 1_555
O5 C22 1_555 1_555
O6 C21 1_555 1_555
O7 C17 1_555 1_555
Co1_2 N1 1_555 1_555
Co1A O4 1_555 1_555
N1_2 Co1 1_555 1_555
O4A Co1 1_555 1_555
C2 N1 1_555 1_555
C3 N2 1_555 1_555
C4 N2 1_555 1_555
C8 C9 1_555 1_555
C10 N3 1_555 1_555
C11 N4 1_555 1_555
C12 N3 1_555 1_555
C18 C19 1_555 1_555
C20 O7 1_555 1_555
C23 O6 1_555 1_555
C24 O5 1_555 1_555
C28 C29 1_555 1_555
Co1 O2 1_555 1_555

#END
