
#######################################################################
#
#                 Cambridge Crystallographic Data Centre
#                                CCDC 
#
#######################################################################
#
# If this CIF has been generated from an entry in the Cambridge 
# Structural Database, then it will include bibliographic, chemical, 
# crystal, experimental, refinement or atomic coordinate data resulting 
# from the CCDC's data processing and validation procedures.
#
#######################################################################

data_QISWAS
_symmetry_cell_setting           triclinic
_symmetry_space_group_name_H-M   'P -1'
_symmetry_Int_Tables_number      2
_space_group_name_Hall           '-P 1'
loop_
_symmetry_equiv_pos_site_id
_symmetry_equiv_pos_as_xyz
1 x,y,z
2 -x,-y,-z
_cell_length_a                   10.5710(8)
_cell_length_b                   13.6022(10)
_cell_length_c                   14.5726(11)
_cell_angle_alpha                79.0110(10)
_cell_angle_beta                 80.1630(10)
_cell_angle_gamma                68.4180(10)
_cell_volume                     1901.07
loop_
_atom_site_label
_atom_site_type_symbol
_atom_site_fract_x
_atom_site_fract_y
_atom_site_fract_z
Pr1 Pr 0.33112(3) 0.24865(2) -0.291869(18)
C1 C -0.2123(5) 0.4986(4) -0.0196(3)
H1 H -0.2913 0.5547 -0.0358
C2 C 0.8516(4) 0.0399(3) 0.0989(3)
C3 C -0.1074(5) 0.4588(3) -0.0906(3)
C4 C 0.1362(5) 0.3325(3) -0.1327(3)
C5 C 0.0217(5) 0.3352(4) 0.0300(3)
H2 H 0.1005 0.2794 0.0471
O1 O 0.1682(3) 0.3942(2) -0.2019(2)
O2 O 0.2087(3) 0.2340(2) -0.1201(2)
O3 O 0.5573(3) 0.1623(2) -0.3901(2)
N1 N 0.8071(4) -0.0264(3) 0.0632(3)
H3 H 0.8273 -0.0939 0.0804
C6 C -0.2007(5) 0.4564(4) 0.0734(3)
H4 H -0.2724 0.4826 0.1191
C7 C -0.0823(5) 0.3748(4) 0.0992(3)
H5 H -0.0730 0.3471 0.1621
C8 C 1.1101(5) 0.0572(4) 0.2331(3)
H6 H 1.1540 0.1054 0.2322
N2 N 0.4976(4) 0.2769(3) -0.1951(3)
N3 N 0.4970(4) 0.0755(3) -0.1845(3)
C9 C 0.0118(5) 0.3762(3) -0.0642(3)
C10 C 0.6503(4) 0.2216(4) -0.0739(3)
C11 C 0.7253(4) 0.1360(3) -0.0083(3)
C12 C 0.6467(4) -0.0947(3) -0.0598(3)
H7 H 0.6930 -0.1509 -0.0167
C13 C 0.5471(5) 0.2531(4) -0.4382(3)
C14 C 0.5724(4) 0.1998(3) -0.1313(3)
C15 C 1.1358(5) -0.0326(4) 0.2988(4)
H8 H 1.2001 -0.0473 0.3405
N4 N 0.8039(4) 0.1396(3) 0.0555(3)
C16 C 0.5013(4) -0.0234(3) -0.1838(3)
H9 H 0.4539 -0.0353 -0.2263
C17 C 0.5728(4) 0.0918(3) -0.1259(3)
C18 C 0.7248(4) 0.0345(3) -0.0047(3)
C19 C 0.9461(4) 0.0096(4) 0.1716(3)
C20 C 0.5741(4) -0.1113(3) -0.1219(3)
H10 H 0.5731 -0.1792 -0.1228
C21 C 0.6499(4) 0.0079(3) -0.0624(3)
C22 C 1.0196(5) 0.0765(4) 0.1684(3)
H11 H 1.0077 0.1354 0.1218
C23 C 0.5038(5) 0.3739(4) -0.2041(4)
H12 H 0.4551 0.4263 -0.2488
C24 C 1.0651(5) -0.1007(4) 0.3022(4)
H13 H 1.0840 -0.1626 0.3456
C25 C 0.9663(4) -0.0792(3) 0.2423(3)
C26 C 0.6519(5) 0.3259(4) -0.0846(3)
H14 H 0.7020 0.3428 -0.0473
C27 C 0.5794(5) 0.4021(4) -0.1499(4)
H15 H 0.5802 0.4714 -0.1585
N5 N -0.1103(4) 0.4445(3) -0.2584(3)
H16 H -0.0752 0.3760 -0.2539
N6 N -0.1907(4) 0.6083(3) -0.2162(3)
C28 C -0.1326(4) 0.5049(3) -0.1883(3)
C29 C -0.1548(4) 0.5143(3) -0.3372(3)
C30 C -0.2032(4) 0.6143(4) -0.3105(3)
C31 C -0.2493(4) 0.6927(3) -0.4710(3)
C32 C -0.1998(4) 0.5856(3) -0.4984(3)
C33 C -0.1536(4) 0.4953(3) -0.4302(3)
C34 C -0.2514(4) 0.7068(3) -0.3772(3)
N7 N -0.2921(4) 0.7766(3) -0.5393(3)
N8 N -0.2002(4) 0.5770(3) -0.5897(3)
C35 C -0.3390(5) 0.8959(4) -0.4253(3)
H17 H -0.3687 0.9657 -0.4123
C36 C -0.1567(5) 0.4785(3) -0.6130(3)
H18 H -0.1566 0.4718 -0.6753
C37 C -0.3354(5) 0.8746(4) -0.5156(3)
H19 H -0.3651 0.9322 -0.5622
C38 C -0.2978(4) 0.8114(3) -0.3566(3)
H20 H -0.3005 0.8234 -0.2955
C39 C -0.1118(5) 0.3863(4) -0.5506(3)
H21 H -0.0848 0.3199 -0.5705
C40 C -0.1077(4) 0.3938(3) -0.4593(3)
H22 H -0.0749 0.3326 -0.4166
O4 O 0.4793(3) 0.3385(2) -0.4057(2)
C41 C 0.6040(5) 0.2581(4) -0.5398(3)
C42 C 0.5834(5) 0.3544(4) -0.5971(4)
H23 H 0.5401 0.4165 -0.5697
C43 C 0.6662(6) 0.1665(4) -0.5813(4)
H24 H 0.6835 0.0997 -0.5451
N9 N 0.6218(5) 0.3644(4) -0.6900(3)
C44 C 0.6791(6) 0.2741(5) -0.7281(4)
H25 H 0.7043 0.2788 -0.7927
C45 C 0.7024(7) 0.1753(5) -0.6769(4)
H26 H 0.7423 0.1144 -0.7065
O5 O 0.9225(3) -0.2442(2) 0.2851(2)
O6 O 0.7465(3) -0.0935(2) 0.2690(2)
C46 C 0.8742(5) -0.1441(4) 0.2658(3)
Pr1A Pr -0.33112(3) 0.75135(2) -0.708131(18)
Pr1A_2 Pr 0.66888(3) -0.24865(2) 0.291869(18)
N7A N 0.2921(4) 0.2234(3) -0.4607(3)
N8A N 0.2002(4) 0.4230(3) -0.4103(3)
O5A O 0.0775(3) 0.2442(2) -0.2851(2)
O6A O 0.2535(3) 0.0935(2) -0.2690(2)
loop_
_geom_bond_atom_site_label_1
_geom_bond_atom_site_label_2
_geom_bond_site_symmetry_1
_geom_bond_site_symmetry_2
Pr1 O1 1_555 1_555
C1 H1 1_555 1_555
C2 N1 1_555 1_555
C3 C1 1_555 1_555
C4 O1 1_555 1_555
C5 H2 1_555 1_555
O2 Pr1 1_555 1_555
O3 Pr1 1_555 1_555
N1 H3 1_555 1_555
C6 C1 1_555 1_555
H4 C6 1_555 1_555
C7 C5 1_555 1_555
H5 C7 1_555 1_555
C8 H6 1_555 1_555
N2 Pr1 1_555 1_555
N3 Pr1 1_555 1_555
C9 C3 1_555 1_555
C10 C11 1_555 1_555
C11 N4 1_555 1_555
C12 H7 1_555 1_555
C13 O3 1_555 1_555
C14 N2 1_555 1_555
C15 C8 1_555 1_555
H8 C15 1_555 1_555
N4 C2 1_555 1_555
C16 N3 1_555 1_555
H9 C16 1_555 1_555
C17 N3 1_555 1_555
C18 N1 1_555 1_555
C19 C2 1_555 1_555
C20 C12 1_555 1_555
H10 C20 1_555 1_555
C21 C12 1_555 1_555
C22 C8 1_555 1_555
H11 C22 1_555 1_555
C23 N2 1_555 1_555
H12 C23 1_555 1_555
C24 C15 1_555 1_555
H13 C24 1_555 1_555
C25 C19 1_555 1_555
C26 C10 1_555 1_555
H14 C26 1_555 1_555
C27 C23 1_555 1_555
H15 C27 1_555 1_555
N5 H16 1_555 1_555
N6 C28 1_555 1_555
C28 C3 1_555 1_555
C29 N5 1_555 1_555
C30 N6 1_555 1_555
C31 C32 1_555 1_555
C32 C33 1_555 1_555
C33 C29 1_555 1_555
C34 C30 1_555 1_555
N7 C31 1_555 1_555
N8 C32 1_555 1_555
C35 H17 1_555 1_555
C36 N8 1_555 1_555
H18 C36 1_555 1_555
C37 N7 1_555 1_555
H19 C37 1_555 1_555
C38 C34 1_555 1_555
H20 C38 1_555 1_555
C39 C36 1_555 1_555
H21 C39 1_555 1_555
C40 C33 1_555 1_555
H22 C40 1_555 1_555
O4 Pr1 1_555 1_555
C41 C13 1_555 1_555
C42 C41 1_555 1_555
H23 C42 1_555 1_555
C43 C41 1_555 1_555
H24 C43 1_555 1_555
N9 C42 1_555 1_555
C44 N9 1_555 1_555
H25 C44 1_555 1_555
C45 C43 1_555 1_555
H26 C45 1_555 1_555
O5 C46 1_555 1_555
O6 C46 1_555 1_555
C46 C25 1_555 1_555
Pr1A N7 1_555 1_555
Pr1A_2 O5 1_555 1_555
N7A Pr1 1_555 1_555
N8A Pr1 1_555 1_555
O5A Pr1 1_555 1_555
O6A Pr1 1_555 1_555
C4 O2 1_555 1_555
C4 C9 1_555 1_555
C5 C9 1_555 1_555
C6 C7 1_555 1_555
C10 C14 1_555 1_555
C11 C18 1_555 1_555
C13 O4 1_555 1_555
C14 C17 1_555 1_555
C16 C20 1_555 1_555
C17 C21 1_555 1_555
C18 C21 1_555 1_555
C19 C22 1_555 1_555
C24 C25 1_555 1_555
C26 C27 1_555 1_555
N5 C28 1_555 1_555
C29 C30 1_555 1_555
C31 C34 1_555 1_555
N8 Pr1A 1_555 1_555
C35 C37 1_555 1_555
C35 C38 1_555 1_555
C39 C40 1_555 1_555
C44 C45 1_555 1_555
O6 Pr1A_2 1_555 1_555

#END
