
#######################################################################
#
#                 Cambridge Crystallographic Data Centre
#                                CCDC 
#
#######################################################################
#
# If this CIF has been generated from an entry in the Cambridge 
# Structural Database, then it will include bibliographic, chemical, 
# crystal, experimental, refinement or atomic coordinate data resulting 
# from the CCDC's data processing and validation procedures.
#
#######################################################################

data_QISXAT
_symmetry_cell_setting           triclinic
_symmetry_space_group_name_H-M   'P -1'
_symmetry_Int_Tables_number      2
_space_group_name_Hall           '-P 1'
loop_
_symmetry_equiv_pos_site_id
_symmetry_equiv_pos_as_xyz
1 x,y,z
2 -x,-y,-z
_cell_length_a                   8.4270(17)
_cell_length_b                   9.5626(19)
_cell_length_c                   18.648(4)
_cell_angle_alpha                80.83(3)
_cell_angle_beta                 79.79(3)
_cell_angle_gamma                73.56(3)
_cell_volume                     1408.95
loop_
_atom_site_label
_atom_site_type_symbol
_atom_site_fract_x
_atom_site_fract_y
_atom_site_fract_z
O1 O 0.886(2) 0.540(2) 0.5096(12)
H1 H 0.8230 0.5384 0.5579
H2 H 0.8928 0.6377 0.4916
Zn1 Zn 0.78387(12) 0.95582(10) 0.18131(5)
Zn2 Zn 1.20742(12) 0.75927(10) 0.13807(5)
O2 O 1.0057(7) 0.9089(6) 0.1219(3)
H3 H 0.9832 0.8938 0.0749
N1 N 1.1873(9) 0.5582(8) 0.1200(4)
N2 N 0.7555(8) 1.1497(7) 0.2254(4)
N3 N 0.6403(8) 1.3699(7) 0.2521(4)
N4 N 0.6183(9) 1.2585(7) 0.2232(4)
N5 N 0.9088(8) 0.8179(7) 0.2717(4)
C1 C 1.0978(10) 0.3687(9) 0.1043(4)
N6 N 1.3118(8) 0.4398(8) 0.1287(4)
N7 N 1.2586(8) 0.3258(7) 0.1189(4)
C2 C 1.0520(10) 0.5202(9) 0.1051(4)
N8 N 1.1344(9) 0.6799(9) 0.3129(4)
N9 N 1.0724(8) 0.7542(8) 0.2549(4)
N10 N 1.0116(10) 0.6950(9) 0.3705(4)
C3 C 0.4935(10) 1.4932(8) 0.2661(5)
H4 H 0.4654 1.4975 0.3186
H5 H 0.3995 1.4763 0.2486
C4 C 0.8660(10) 1.1905(9) 0.2594(4)
N11 N 0.6382(9) 0.9670(9) 0.3992(4)
C5 C 0.7079(12) 0.8151(10) 0.3877(5)
H6 H 0.6309 0.7848 0.3643
H7 H 0.7163 0.7568 0.4351
C6 C 0.7885(11) 0.5319(9) 0.0757(5)
H8 H 0.6828 0.5846 0.0650
N12 N 0.5178(10) 1.0582(10) 0.3609(5)
C7 C 0.7915(11) 1.3319(9) 0.2763(5)
C8 C 0.8930(11) 0.6070(10) 0.0893(5)
H9 H 0.8621 0.7086 0.0883
C9 C 1.1090(12) 1.1885(10) 0.3074(5)
H10 H 1.2163 1.1424 0.3184
C10 C 1.0303(11) 1.1170(10) 0.2727(5)
H11 H 1.0828 1.0242 0.2586
C11 C 0.8325(11) 0.3791(10) 0.0769(5)
H12 H 0.7548 0.3341 0.0678
C12 C 0.8748(12) 1.4056(10) 0.3118(5)
H13 H 0.8252 1.5003 0.3241
C13 C 0.9881(11) 0.2930(10) 0.0914(5)
H14 H 1.0177 0.1914 0.0923
C14 C 1.0296(13) 1.3313(11) 0.3268(6)
H15 H 1.0862 1.3760 0.3509
C15 C 0.8740(11) 0.7813(9) 0.3426(5)
C16 C 0.6740(11) 1.0458(11) 0.4476(5)
N13 N 0.4768(11) 1.1891(10) 0.3813(5)
C17 C 0.5719(13) 1.1838(11) 0.4351(6)
C18 C 0.7826(13) 1.0079(13) 0.5011(6)
H16 H 0.8510 0.9136 0.5098
C19 C 0.6870(15) 1.2588(14) 0.5261(7)
H17 H 0.6953 1.3304 0.5526
C20 C 0.5796(15) 1.2962(12) 0.4740(6)
H18 H 0.5148 1.3919 0.4649
C21 C 0.7809(15) 1.1180(14) 0.5391(6)
H19 H 0.8477 1.0962 0.5762
C22 C 0.5206(9) 1.6380(8) 0.2295(4)
N14 N 0.4269(8) 1.7312(7) 0.1805(4)
N15 N 0.4892(9) 1.8481(7) 0.1648(4)
N16 N 0.6143(8) 1.8267(7) 0.2005(4)
N17 N 0.6361(8) 1.6951(7) 0.2433(4)
C23 C 1.3675(10) 0.1770(9) 0.1270(5)
H20 H 1.3060 0.1080 0.1222
H21 H 1.3998 0.1554 0.1758
C24 C 1.5194(10) 0.1563(9) 0.0723(5)
N18 N 1.6712(8) 0.0708(7) 0.0845(3)
N19 N 1.5216(8) 0.2182(8) 0.0009(4)
N20 N 1.7708(8) 0.0801(7) 0.0189(4)
N21 N 1.6807(8) 0.1659(7) -0.0296(4)
Zn1_2 Zn 0.78387(12) 1.95582(10) 0.18131(5)
Zn1_3 Zn 1.78387(12) -0.04418(10) 0.18131(5)
Zn2_2 Zn 0.20742(12) 1.75927(10) 0.13807(5)
Zn2A Zn 1.79258(12) 0.24073(10) -0.13807(5)
N14_2 N 1.4269(8) 0.7312(7) 0.1805(4)
N16_2 N 0.6143(8) 0.8267(7) 0.2005(4)
N18_2 N 0.6712(8) 1.0708(7) 0.0845(3)
N21A N 1.3193(8) 0.8341(7) 0.0296(4)
loop_
_geom_bond_atom_site_label_1
_geom_bond_atom_site_label_2
_geom_bond_site_symmetry_1
_geom_bond_site_symmetry_2
O1 H1 1_555 1_555
H2 O1 1_555 1_555
Zn1 O2 1_555 1_555
Zn2 O2 1_555 1_555
O2 H3 1_555 1_555
N1 Zn2 1_555 1_555
N2 Zn1 1_555 1_555
N3 N4 1_555 1_555
N4 N2 1_555 1_555
N5 Zn1 1_555 1_555
C1 N7 1_555 1_555
N6 N1 1_555 1_555
N7 N6 1_555 1_555
C2 N1 1_555 1_555
N8 N9 1_555 1_555
N9 Zn2 1_555 1_555
N10 N8 1_555 1_555
C3 N3 1_555 1_555
H4 C3 1_555 1_555
H5 C3 1_555 1_555
C4 N2 1_555 1_555
N11 C5 1_555 1_555
C5 H6 1_555 1_555
H7 C5 1_555 1_555
C6 H8 1_555 1_555
N12 N11 1_555 1_555
C7 N3 1_555 1_555
C8 C2 1_555 1_555
H9 C8 1_555 1_555
C9 H10 1_555 1_555
C10 C4 1_555 1_555
H11 C10 1_555 1_555
C11 C6 1_555 1_555
H12 C11 1_555 1_555
C12 C7 1_555 1_555
H13 C12 1_555 1_555
C13 C1 1_555 1_555
H14 C13 1_555 1_555
C14 C9 1_555 1_555
H15 C14 1_555 1_555
C15 N5 1_555 1_555
C16 N11 1_555 1_555
N13 N12 1_555 1_555
C17 C16 1_555 1_555
C18 C16 1_555 1_555
H16 C18 1_555 1_555
C19 H17 1_555 1_555
C20 C17 1_555 1_555
H18 C20 1_555 1_555
C21 C18 1_555 1_555
H19 C21 1_555 1_555
C22 C3 1_555 1_555
N14 C22 1_555 1_555
N15 N14 1_555 1_555
N16 N15 1_555 1_555
N17 C22 1_555 1_555
C23 N7 1_555 1_555
H20 C23 1_555 1_555
H21 C23 1_555 1_555
C24 C23 1_555 1_555
N18 C24 1_555 1_555
N19 C24 1_555 1_555
N20 N18 1_555 1_555
N21 N19 1_555 1_555
Zn1_2 N16 1_555 1_555
Zn1_3 N18 1_555 1_555
Zn2_2 N14 1_555 1_555
Zn2A N21 1_555 1_555
N14_2 Zn2 1_555 1_555
N16_2 Zn1 1_555 1_555
N18_2 Zn1 1_555 1_555
N21A Zn2 1_555 1_555
N5 N9 1_555 1_555
C1 C2 1_555 1_555
N10 C15 1_555 1_555
C4 C7 1_555 1_555
C5 C15 1_555 1_555
C6 C8 1_555 1_555
C9 C10 1_555 1_555
C11 C13 1_555 1_555
C12 C14 1_555 1_555
N13 C17 1_555 1_555
C19 C20 1_555 1_555
C19 C21 1_555 1_555
N16 N17 1_555 1_555
N20 N21 1_555 1_555

#END
