
#######################################################################
#
#                 Cambridge Crystallographic Data Centre
#                                CCDC 
#
#######################################################################
#
# If this CIF has been generated from an entry in the Cambridge 
# Structural Database, then it will include bibliographic, chemical, 
# crystal, experimental, refinement or atomic coordinate data resulting 
# from the CCDC's data processing and validation procedures.
#
#######################################################################

data_QISXIB
_symmetry_cell_setting           orthorhombic
_symmetry_space_group_name_H-M   'P n n a'
_symmetry_Int_Tables_number      52
_space_group_name_Hall           '-P 2a 2bc'
loop_
_symmetry_equiv_pos_site_id
_symmetry_equiv_pos_as_xyz
1 x,y,z
2 1/2-x,-y,z
3 x,1/2-y,1/2-z
4 1/2-x,1/2+y,1/2-z
5 -x,-y,-z
6 1/2+x,y,-z
7 -x,1/2+y,1/2+z
8 1/2+x,1/2-y,1/2+z
_cell_length_a                   8.5510(17)
_cell_length_b                   22.199(4)
_cell_length_c                   14.867(3)
_cell_angle_alpha                90
_cell_angle_beta                 90
_cell_angle_gamma                90
_cell_volume                     2822.11
loop_
_atom_site_label
_atom_site_type_symbol
_atom_site_fract_x
_atom_site_fract_y
_atom_site_fract_z
C1 C -0.0756(5) 0.1771(2) 0.1516(3)
H1 H -0.0713 0.1473 0.1954
C2 C -0.1388(6) 0.2264(3) 0.0312(4)
H2 H -0.1848 0.2376 -0.0229
C3 C -0.0305(6) 0.2573(2) 0.0770(4)
H3 H 0.0113 0.2942 0.0596
C4 C -0.2689(5) 0.12641(19) 0.0553(3)
C5 C -0.3431(6) 0.0945(3) 0.1216(4)
H4 H -0.3334 0.1062 0.1814
C6 C -0.4318(6) 0.0453(3) 0.0992(3)
H5 H -0.4800 0.0236 0.1449
C7 C -0.4523(4) 0.02689(19) 0.0119(3)
C8 C -0.3799(5) 0.06129(18) -0.0538(3)
H6 H -0.3935 0.0511 -0.1140
C9 C -0.2884(5) 0.11017(19) -0.0323(3)
H7 H -0.2399 0.1322 -0.0777
C10 C 0.3032(8) 0.3512(4) 0.1954(4)
C11 C 0.4296(5) 0.3905(2) 0.1559(3)
C12 C 0.5469(7) 0.3674(2) 0.1044(4)
H8 H 0.5527 0.3260 0.0962
C13 C 0.6569(7) 0.4036(4) 0.0643(5)
H9 H 0.7340 0.3870 0.0277
C14 C 0.6513(8) 0.4630(4) 0.0785(4)
C15 C 0.5417(10) 0.4867(3) 0.1311(5)
H10 H 0.5406 0.5281 0.1412
C16 C 0.4301(7) 0.4511(3) 0.1707(4)
H11 H 0.3546 0.4683 0.2076
O1 O 0.711(2) 0.5152(9) 0.0353(5)
N1 N 0.0091(4) 0.22678(16) 0.1529(2)
N2 N -0.1687(4) 0.17518(16) 0.0793(3)
O2 O 0.3104(6) 0.2969(3) 0.1779(4)
O3 O 0.1986(7) 0.3752(4) 0.2404(4)
Zn1 Zn 0.16143(7) 0.2500 0.2500
C1D C -0.9244(5) -0.1771(2) -0.1516(3)
H1D H -0.9287 -0.1473 -0.1954
C2D C -0.8612(6) -0.2264(3) -0.0312(4)
H2D H -0.8152 -0.2376 0.0229
C3D C -0.9695(6) -0.2573(2) -0.0770(4)
H3D H -1.0113 -0.2942 -0.0596
C4D C -0.7311(5) -0.12641(19) -0.0553(3)
C5D C -0.6569(6) -0.0945(3) -0.1216(4)
H4D H -0.6666 -0.1062 -0.1814
C6D C -0.5682(6) -0.0453(3) -0.0992(3)
H5D H -0.5200 -0.0236 -0.1449
C7D C -0.5477(4) -0.02689(19) -0.0119(3)
C8D C -0.6201(5) -0.06129(18) 0.0538(3)
H6D H -0.6065 -0.0511 0.1140
C9D C -0.7116(5) -0.11017(19) 0.0323(3)
H7D H -0.7601 -0.1322 0.0777
N1D N -1.0091(4) -0.22678(16) -0.1529(2)
N2D N -0.8313(4) -0.17518(16) -0.0793(3)
C10A C 1.1968(8) 0.6488(4) 0.1954(4)
C11A C 1.0704(5) 0.6095(2) 0.1559(3)
C12A C 0.9531(7) 0.6326(2) 0.1044(4)
H8A H 0.9473 0.6740 0.0962
C13A C 0.8431(7) 0.5964(4) 0.0643(5)
H9A H 0.7660 0.6130 0.0277
C14A C 0.8487(8) 0.5370(4) 0.0785(4)
C15A C 0.9583(10) 0.5133(3) 0.1311(5)
H10A H 0.9594 0.4719 0.1412
C16A C 1.0699(7) 0.5489(3) 0.1707(4)
H11A H 1.1454 0.5317 0.2076
O1A O 0.789(2) 0.4848(9) 0.0353(5)
O2A O 1.1896(6) 0.7031(3) 0.1779(4)
O3A O 1.3014(7) 0.6248(4) 0.2404(4)
N1B N 0.0091(4) 0.27322(16) 0.3471(2)
O2B O 0.3104(6) 0.2031(3) 0.3221(4)
Zn1A Zn 1.33857(7) 0.7500 0.2500
Zn1D Zn -1.16143(7) -0.2500 -0.2500
loop_
_geom_bond_atom_site_label_1
_geom_bond_atom_site_label_2
_geom_bond_site_symmetry_1
_geom_bond_site_symmetry_2
C1 H1 1_555 1_555
C2 H2 1_555 1_555
C3 C2 1_555 1_555
H3 C3 1_555 1_555
C4 C5 1_555 1_555
C5 H4 1_555 1_555
C6 C5 1_555 1_555
H5 C6 1_555 1_555
C7 C6 1_555 1_555
C8 C7 1_555 1_555
H6 C8 1_555 1_555
C9 C4 1_555 1_555
H7 C9 1_555 1_555
C10 C11 1_555 1_555
C11 C12 1_555 1_555
C12 H8 1_555 1_555
C13 C12 1_555 1_555
H9 C13 1_555 1_555
C14 C13 1_555 1_555
C15 C14 1_555 1_555
H10 C15 1_555 1_555
C16 C11 1_555 1_555
H11 C16 1_555 1_555
O1 C14 1_555 1_555
N1 C1 1_555 1_555
N2 C1 1_555 1_555
O2 C10 1_555 1_555
O3 C10 1_555 1_555
Zn1 N1 1_555 1_555
C1D H1D 1_555 1_555
C2D H2D 1_555 1_555
C3D C2D 1_555 1_555
H3D C3D 1_555 1_555
C4D C5D 1_555 1_555
C5D H4D 1_555 1_555
C6D C5D 1_555 1_555
H5D C6D 1_555 1_555
C7D C7 1_555 1_555
C8D C7D 1_555 1_555
H6D C8D 1_555 1_555
C9D C4D 1_555 1_555
H7D C9D 1_555 1_555
N1D C1D 1_555 1_555
N2D C1D 1_555 1_555
C10A C11A 1_555 1_555
C11A C12A 1_555 1_555
C12A H8A 1_555 1_555
C13A C12A 1_555 1_555
H9A C13A 1_555 1_555
C14A O1 1_555 1_555
C15A C14A 1_555 1_555
H10A C15A 1_555 1_555
C16A C11A 1_555 1_555
H11A C16A 1_555 1_555
O1A C14 1_555 1_555
O2A C10A 1_555 1_555
O3A C10A 1_555 1_555
N1B Zn1 1_555 1_555
O2B Zn1 1_555 1_555
Zn1A O2A 1_555 1_555
Zn1D N1D 1_555 1_555
C2 N2 1_555 1_555
C3 N1 1_555 1_555
C4 N2 1_555 1_555
C8 C9 1_555 1_555
C15 C16 1_555 1_555
O2 Zn1 1_555 1_555
C2D N2D 1_555 1_555
C3D N1D 1_555 1_555
C4D N2D 1_555 1_555
C6D C7D 1_555 1_555
C8D C9D 1_555 1_555
C13A C14A 1_555 1_555
C14A O1A 1_555 1_555
C15A C16A 1_555 1_555

#END
