
#######################################################################
#
#                 Cambridge Crystallographic Data Centre
#                                CCDC 
#
#######################################################################
#
# If this CIF has been generated from an entry in the Cambridge 
# Structural Database, then it will include bibliographic, chemical, 
# crystal, experimental, refinement or atomic coordinate data resulting 
# from the CCDC's data processing and validation procedures.
#
#######################################################################

data_QISYAU
_symmetry_cell_setting           triclinic
_symmetry_space_group_name_H-M   'P -1'
_symmetry_Int_Tables_number      2
_space_group_name_Hall           '-P 1'
loop_
_symmetry_equiv_pos_site_id
_symmetry_equiv_pos_as_xyz
1 x,y,z
2 -x,-y,-z
_cell_length_a                   7.5177(8)
_cell_length_b                   12.7036(14)
_cell_length_c                   15.2861(17)
_cell_angle_alpha                86.987(1)
_cell_angle_beta                 77.817(1)
_cell_angle_gamma                78.794(1)
_cell_volume                     1399.67
loop_
_atom_site_label
_atom_site_type_symbol
_atom_site_fract_x
_atom_site_fract_y
_atom_site_fract_z
Zn1 Zn 0.54589(5) 0.38351(3) 0.29954(3)
O1 O 0.4449(3) 0.28878(18) 0.39395(14)
O2 O 0.3427(4) 0.43827(19) 0.47137(16)
O3 O 0.3778(3) 0.47291(17) 0.69126(15)
O4 O 0.1833(3) 0.60506(18) 0.64503(15)
N1 N 0.7086(4) 0.2691(2) 0.21042(17)
N2 N 0.3504(4) 0.4423(2) 0.22297(17)
C1 C 0.8386(5) 0.1952(3) 0.2379(2)
H1 H 0.8613 0.2014 0.2948
C2 C 0.9398(5) 0.1106(3) 0.1859(2)
H2 H 1.0283 0.0612 0.2083
C3 C 0.9126(4) 0.0976(3) 0.1012(2)
C4 C 0.7810(5) 0.1753(3) 0.0725(2)
H3 H 0.7582 0.1717 0.0153
C5 C 0.6832(5) 0.2582(3) 0.1279(2)
H4 H 0.5949 0.3091 0.1067
C6 C 1.0223(5) 0.0032(3) 0.0458(2)
H5 H 1.0015 -0.0620 0.0790
H6 H 1.1529 0.0055 0.0380
C7 C 0.2180(5) 0.3892(3) 0.2144(2)
H7 H 0.1973 0.3316 0.2528
C8 C 0.1113(5) 0.4167(3) 0.1509(3)
H8 H 0.0205 0.3777 0.1471
C9 C 0.1380(7) 0.5016(3) 0.0927(3)
C10 C 0.2715(7) 0.5573(3) 0.1040(3)
H9 H 0.2919 0.6166 0.0677
C11 C 0.3736(5) 0.5263(3) 0.1676(2)
H10 H 0.4637 0.5651 0.1729
C12 C 0.0369(12) 0.5323(4) 0.0171(5)
H11 H -0.0604 0.5933 0.0374
H12 H 0.1237 0.5584 -0.0315
C13 C 0.4117(5) 0.1635(3) 0.5468(2)
H13 H 0.4870 0.1354 0.4937
C14 C 0.3855(5) 0.0973(3) 0.6210(2)
H14 H 0.4437 0.0256 0.6180
C15 C 0.2723(5) 0.1381(3) 0.6997(2)
H15 H 0.2534 0.0939 0.7500
C16 C 0.1875(5) 0.2446(3) 0.7037(2)
H16 H 0.1109 0.2713 0.7570
C17 C 0.2136(4) 0.3135(3) 0.6300(2)
C18 C 0.3278(4) 0.2719(2) 0.5495(2)
C19 C 0.3712(4) 0.3405(3) 0.4677(2)
C20 C 0.1171(4) 0.4294(3) 0.6405(2)
H17 H 0.0105 0.4335 0.6896
H18 H 0.0712 0.4523 0.5865
C21 C 0.2330(4) 0.5079(3) 0.6580(2)
N1A N 1.2914(4) -0.2691(2) -0.21042(17)
C1A C 1.1614(5) -0.1952(3) -0.2379(2)
H1A H 1.1387 -0.2014 -0.2948
C2A C 1.0602(5) -0.1106(3) -0.1859(2)
H2A H 0.9717 -0.0612 -0.2083
C3A C 1.0874(4) -0.0976(3) -0.1012(2)
C4A C 1.2190(5) -0.1753(3) -0.0725(2)
H3A H 1.2418 -0.1717 -0.0153
C5A C 1.3168(5) -0.2582(3) -0.1279(2)
H4A H 1.4051 -0.3091 -0.1067
C6A C 0.9777(5) -0.0032(3) -0.0458(2)
H5A H 0.9985 0.0620 -0.0790
H6A H 0.8471 -0.0055 -0.0380
N2A N -0.3504(4) 0.5577(2) -0.22297(17)
C7A C -0.2180(5) 0.6108(3) -0.2144(2)
H7A H -0.1973 0.6684 -0.2528
C8A C -0.1113(5) 0.5833(3) -0.1509(3)
H8A H -0.0205 0.6223 -0.1471
C9A C -0.1380(7) 0.4984(3) -0.0927(3)
C10A C -0.2715(7) 0.4427(3) -0.1040(3)
H9A H -0.2919 0.3834 -0.0677
C11A C -0.3736(5) 0.4737(3) -0.1676(2)
H10A H -0.4637 0.4349 -0.1729
C12A C -0.0369(12) 0.4677(4) -0.0171(5)
H11A H 0.0604 0.4067 -0.0374
H12A H -0.1237 0.4416 0.0315
Zn1A Zn -0.54589(5) 0.61649(3) -0.29954(3)
O1A O -0.4449(3) 0.71122(18) -0.39395(14)
O2A O -0.3427(4) 0.56173(19) -0.47137(16)
O3A O -0.3778(3) 0.52709(17) -0.69126(15)
O4A O -0.1833(3) 0.39494(18) -0.64503(15)
C13A C -0.4117(5) 0.8365(3) -0.5468(2)
H13A H -0.4870 0.8646 -0.4937
C14A C -0.3855(5) 0.9027(3) -0.6210(2)
H14A H -0.4437 0.9744 -0.6180
C15A C -0.2723(5) 0.8619(3) -0.6997(2)
H15A H -0.2534 0.9061 -0.7500
C16A C -0.1875(5) 0.7554(3) -0.7037(2)
H16A H -0.1109 0.7287 -0.7570
C17A C -0.2136(4) 0.6865(3) -0.6300(2)
C18A C -0.3278(4) 0.7281(2) -0.5495(2)
C19A C -0.3712(4) 0.6595(3) -0.4677(2)
C20A C -0.1171(4) 0.5706(3) -0.6405(2)
H17A H -0.0105 0.5665 -0.6896
H18A H -0.0712 0.5477 -0.5865
C21A C -0.2330(4) 0.4921(3) -0.6580(2)
Zn1_2 Zn -0.45411(5) 0.38351(3) -0.70046(3)
Zn1A_2 Zn 0.45411(5) 0.61649(3) 0.70046(3)
Zn1A_3 Zn 1.45411(5) -0.38351(3) -0.29954(3)
O3_2 O -0.6222(3) 0.47291(17) -0.30874(15)
O3A_2 O 0.6222(3) 0.52709(17) 0.30874(15)
O4_2 O -0.8167(3) 0.60506(18) -0.35497(15)
O4A_2 O 0.8167(3) 0.39494(18) 0.35497(15)
N1A_2 N -0.7086(4) 0.7309(2) -0.21042(17)
Cl1 Cl 0.62329(17) 0.78939(9) 0.05993(8)
O5 O 0.663(3) 0.7979(16) -0.0321(9)
O6 O 0.493(3) 0.8748(17) 0.0819(15)
O7 O 0.7979(12) 0.7922(9) 0.0805(5)
O8 O 0.564(3) 0.7046(14) 0.0744(15)
O13 O 0.2520(4) 0.1382(2) 0.34034(19)
H19 H 0.313(5) 0.115(3) 0.2893(17)
H20 H 0.314(5) 0.181(3) 0.357(3)
O14 O 0.4048(6) 0.0591(4) 0.1713(2)
H21 H 0.458(8) 0.003(3) 0.143(3)
H22 H 0.386(8) 0.111(3) 0.134(3)
N3 N 0.6715(4) 0.3107(2) 0.6299(2)
H23 H 0.5865 0.3701 0.6477
C22 C 0.7751(5) 0.3115(3) 0.5474(2)
H24 H 0.7623 0.3732 0.5120
C23 C 0.9004(5) 0.2217(3) 0.5148(2)
H25 H 0.9731 0.2224 0.4575
C24 C 0.9182(4) 0.1295(3) 0.5679(2)
C25 C 0.8090(5) 0.1332(3) 0.6530(2)
H26 H 0.8190 0.0729 0.6901
C26 C 0.6861(5) 0.2247(3) 0.6834(2)
H27 H 0.6134 0.2266 0.7408
C27 C 1.0448(5) 0.0279(3) 0.5310(2)
H28 H 1.0712 -0.0203 0.5799
H29 H 1.1610 0.0446 0.4977
N3A N 1.3285(4) -0.3107(2) 0.3701(2)
H23A H 1.4135 -0.3701 0.3523
C22A C 1.2249(5) -0.3115(3) 0.4526(2)
H24A H 1.2377 -0.3732 0.4880
C23A C 1.0996(5) -0.2217(3) 0.4852(2)
H25A H 1.0269 -0.2224 0.5425
C24A C 1.0818(4) -0.1295(3) 0.4321(2)
C25A C 1.1910(5) -0.1332(3) 0.3470(2)
H26A H 1.1810 -0.0729 0.3099
C26A C 1.3139(5) -0.2247(3) 0.3166(2)
H27A H 1.3866 -0.2266 0.2592
C27A C 0.9552(5) -0.0279(3) 0.4690(2)
H28A H 0.9288 0.0203 0.4201
H29A H 0.8390 -0.0446 0.5023
O9? O 0.645(2) 0.7635(12) -0.0258(9)
O10? O 0.4279(14) 0.8085(10) 0.1028(5)
O11? O 0.6841(18) 0.8762(10) 0.0851(6)
O12? O 0.6885(16) 0.6955(8) 0.1147(6)
loop_
_geom_bond_atom_site_label_1
_geom_bond_atom_site_label_2
_geom_bond_site_symmetry_1
_geom_bond_site_symmetry_2
Zn1 O1 1_555 1_555
O1 C19 1_555 1_555
O2 C19 1_555 1_555
O3 C21 1_555 1_555
O4 C21 1_555 1_555
N1 Zn1 1_555 1_555
N2 Zn1 1_555 1_555
C1 N1 1_555 1_555
H1 C1 1_555 1_555
C2 C1 1_555 1_555
H2 C2 1_555 1_555
C3 C2 1_555 1_555
C4 C3 1_555 1_555
H3 C4 1_555 1_555
C5 N1 1_555 1_555
H4 C5 1_555 1_555
C6 C3 1_555 1_555
H5 C6 1_555 1_555
H6 C6 1_555 1_555
C7 N2 1_555 1_555
H7 C7 1_555 1_555
C8 C7 1_555 1_555
H8 C8 1_555 1_555
C9 C8 1_555 1_555
C10 C9 1_555 1_555
H9 C10 1_555 1_555
C11 N2 1_555 1_555
H10 C11 1_555 1_555
C12 C9 1_555 1_555
H11 C12 1_555 1_555
H12 C12 1_555 1_555
C13 H13 1_555 1_555
C14 C13 1_555 1_555
H14 C14 1_555 1_555
C15 C14 1_555 1_555
H15 C15 1_555 1_555
C16 C15 1_555 1_555
H16 C16 1_555 1_555
C17 C16 1_555 1_555
C18 C13 1_555 1_555
C19 C18 1_555 1_555
C20 C17 1_555 1_555
H17 C20 1_555 1_555
H18 C20 1_555 1_555
C21 C20 1_555 1_555
Cl1 O5 1_555 1_555
O6 Cl1 1_555 1_555
O7 Cl1 1_555 1_555
O8 Cl1 1_555 1_555
O13 H19 1_555 1_555
H20 O13 1_555 1_555
O14 H21 1_555 1_555
H22 O14 1_555 1_555
N3 H23 1_555 1_555
C22 N3 1_555 1_555
H24 C22 1_555 1_555
C23 C22 1_555 1_555
H25 C23 1_555 1_555
C24 C23 1_555 1_555
C25 C24 1_555 1_555
H26 C25 1_555 1_555
C26 N3 1_555 1_555
H27 C26 1_555 1_555
C27 C24 1_555 1_555
H28 C27 1_555 1_555
H29 C27 1_555 1_555
N1A C1A 1_555 1_555
C1A H1A 1_555 1_555
C2A C1A 1_555 1_555
H2A C2A 1_555 1_555
C3A C2A 1_555 1_555
C4A C3A 1_555 1_555
H3A C4A 1_555 1_555
C5A N1A 1_555 1_555
H4A C5A 1_555 1_555
C6A C6 1_555 1_555
H5A C6A 1_555 1_555
H6A C6A 1_555 1_555
N2A C7A 1_555 1_555
C7A H7A 1_555 1_555
C8A C7A 1_555 1_555
H8A C8A 1_555 1_555
C9A C8A 1_555 1_555
C10A C9A 1_555 1_555
H9A C10A 1_555 1_555
C11A N2A 1_555 1_555
H10A C11A 1_555 1_555
C12A C12 1_555 1_555
H11A C12A 1_555 1_555
H12A C12A 1_555 1_555
Zn1A N2A 1_555 1_555
O1A Zn1A 1_555 1_555
O2A C19A 1_555 1_555
O3A C21A 1_555 1_555
O4A C21A 1_555 1_555
C13A H13A 1_555 1_555
C14A C13A 1_555 1_555
H14A C14A 1_555 1_555
C15A C14A 1_555 1_555
H15A C15A 1_555 1_555
C16A C15A 1_555 1_555
H16A C16A 1_555 1_555
C17A C16A 1_555 1_555
C18A C13A 1_555 1_555
C19A O1A 1_555 1_555
C20A C17A 1_555 1_555
H17A C20A 1_555 1_555
H18A C20A 1_555 1_555
C21A C20A 1_555 1_555
Zn1_2 O3A 1_555 1_555
Zn1A_2 O3 1_555 1_555
Zn1A_3 N1A 1_555 1_555
O3_2 Zn1A 1_555 1_555
O3A_2 Zn1 1_555 1_555
O4_2 Zn1A 1_555 1_555
O4A_2 Zn1 1_555 1_555
N1A_2 Zn1A 1_555 1_555
N3A H23A 1_555 1_555
C22A N3A 1_555 1_555
H24A C22A 1_555 1_555
C23A C22A 1_555 1_555
H25A C23A 1_555 1_555
C24A C23A 1_555 1_555
C25A C24A 1_555 1_555
H26A C25A 1_555 1_555
C26A N3A 1_555 1_555
H27A C26A 1_555 1_555
C27A C27 1_555 1_555
H28A C27A 1_555 1_555
H29A C27A 1_555 1_555
O4 Zn1A_2 1_555 1_555
C4 C5 1_555 1_555
C10 C11 1_555 1_555
C17 C18 1_555 1_555
C25 C26 1_555 1_555
C3A C6A 1_555 1_555
C4A C5A 1_555 1_555
C9A C12A 1_555 1_555
C10A C11A 1_555 1_555
O4A Zn1_2 1_555 1_555
C17A C18A 1_555 1_555
C18A C19A 1_555 1_555
C24A C27A 1_555 1_555
C25A C26A 1_555 1_555

#END
