
#######################################################################
#
#                 Cambridge Crystallographic Data Centre
#                                CCDC 
#
#######################################################################
#
# If this CIF has been generated from an entry in the Cambridge 
# Structural Database, then it will include bibliographic, chemical, 
# crystal, experimental, refinement or atomic coordinate data resulting 
# from the CCDC's data processing and validation procedures.
#
#######################################################################

data_QISYIC
_symmetry_cell_setting           triclinic
_symmetry_space_group_name_H-M   'P -1'
_symmetry_Int_Tables_number      2
_space_group_name_Hall           '-P 1'
loop_
_symmetry_equiv_pos_site_id
_symmetry_equiv_pos_as_xyz
1 x,y,z
2 -x,-y,-z
_cell_length_a                   8.312(2)
_cell_length_b                   11.973(3)
_cell_length_c                   40.269(11)
_cell_angle_alpha                86.782(3)
_cell_angle_beta                 89.585(3)
_cell_angle_gamma                86.437(3)
_cell_volume                     3993.47
loop_
_atom_site_label
_atom_site_type_symbol
_atom_site_fract_x
_atom_site_fract_y
_atom_site_fract_z
Zn1 Zn 0.62076(13) 0.48626(9) 0.04856(3)
Zn2 Zn 0.37319(13) -0.00042(9) -0.45198(3)
Zn3 Zn 0.28519(14) -0.12508(10) -0.15786(3)
Zn4 Zn 0.74289(14) 0.64991(10) -0.66264(3)
O1 O 0.6918(10) 0.6548(6) -0.78627(16)
O2 O 0.5636(8) 0.7381(6) -0.68475(17)
O3 O 0.4461(9) 0.5771(6) -0.69090(18)
O4 O -0.0418(11) 0.6610(8) -0.63408(19)
O5 O -0.0883(9) 0.7865(6) -0.6745(3)
O6 O 0.2366(9) 0.5495(6) -0.52615(16)
O7 O 1.3408(8) -0.2358(6) -0.46325(16)
O8 O 1.2040(8) -0.0729(6) -0.47337(17)
O9 O 0.5927(8) -0.0325(6) -0.46540(17)
O10 O 0.6723(8) 0.0899(6) -0.43053(17)
O11 O 0.2685(11) -0.1656(6) -0.28183(17)
O12 O 0.4775(8) -0.2045(6) -0.17458(16)
O13 O 0.5563(9) -0.0315(6) -0.1871(2)
O14 O 1.1239(8) -0.2788(6) -0.18613(16)
O15 O 1.1092(8) -0.2080(6) -0.13627(16)
O16 O 0.7841(8) -0.0319(6) -0.02533(17)
O17 O 0.7897(8) 0.5685(6) 0.02736(16)
O18 O 0.6567(8) 0.7323(6) 0.03419(17)
O19 O 1.3301(8) 0.3848(6) 0.06979(17)
O20 O 1.4023(8) 0.5230(6) 0.03502(17)
N1 N 0.6442(9) 0.5134(7) -0.90130(18)
N2 N 0.7824(10) 0.4700(7) -0.78073(17)
H1 H 0.7903 0.4075 -0.7913
N3 N 0.8381(10) 0.5348(7) -0.69338(19)
N4 N 0.6222(10) 0.5910(7) -0.62112(18)
N5 N 0.2969(9) 0.1651(7) -0.45823(18)
N6 N 0.3922(10) 0.3851(7) -0.51938(19)
H2 H 0.4788 0.3485 -0.5269
N7 N 0.3374(9) -0.0390(7) -0.40149(19)
N8 N 0.1826(10) 0.0178(7) -0.28373(19)
H3 H 0.1617 0.0758 -0.2978
N9 N 0.1766(10) -0.0160(7) -0.19201(18)
N10 N 0.6138(10) 0.1203(7) -0.01782(18)
H4 H 0.5237 0.1555 -0.0251
N11 N 0.3903(10) -0.0617(7) -0.11684(19)
N12 N 0.7010(9) 0.3247(6) 0.04206(16)
C1 C 0.6031(12) 0.4606(9) -0.8439(2)
H5 H 0.5559 0.4111 -0.8279
C2 C 0.7510(13) 0.6191(9) -0.8581(2)
H6 H 0.8075 0.6815 -0.8522
C3 C 0.7269(12) 0.5986(9) -0.8912(2)
H7 H 0.7712 0.6477 -0.9077
C4 C 0.5847(11) 0.4477(8) -0.8776(2)
H8 H 0.5251 0.3873 -0.8841
C5 C 0.6903(11) 0.5457(9) -0.8341(2)
C6 C 0.7192(12) 0.5608(9) -0.7978(2)
C7 C 0.8381(11) 0.4633(9) -0.7476(2)
C8 C 0.7832(11) 0.5399(8) -0.7248(2)
H9 H 0.7046 0.5975 -0.7316
C9 C 0.9507(13) 0.4520(9) -0.6839(2)
H10 H 0.9909 0.4480 -0.6618
C10 C 1.0068(13) 0.3748(11) -0.7054(3)
H11 H 1.0855 0.3177 -0.6983
C11 C 0.6309(15) 0.4812(9) -0.6099(3)
H12 H 0.6957 0.4285 -0.6217
C12 C 0.5508(15) 0.4446(9) -0.5825(3)
H13 H 0.5645 0.3680 -0.5749
C13 C 0.5234(12) 0.6606(9) -0.6047(2)
H14 H 0.5123 0.7369 -0.6126
C14 C 0.4364(12) 0.6288(9) -0.5768(2)
H15 H 0.3694 0.6822 -0.5657
C15 C 0.4492(11) 0.5168(8) -0.5653(2)
C16 C 0.3506(12) 0.4843(8) -0.5352(2)
C17 C 0.3634(11) 0.2234(8) -0.4836(2)
H16 H 0.4475 0.1879 -0.4961
C18 C 0.1907(11) 0.3847(8) -0.4736(2)
H17 H 0.1531 0.4599 -0.4791
C19 C 0.1244(12) 0.3249(8) -0.4470(2)
H18 H 0.0417 0.3585 -0.4338
C20 C 0.1815(10) 0.2148(8) -0.4401(2)
H19 H 0.1367 0.1735 -0.4218
C21 C 0.3057(18) 1.0681(10) -0.7077(3)
H20 H 0.3388 1.1304 -0.7211
C22 C 0.2407(17) 1.0820(10) -0.6772(3)
H21 H 0.2279 1.1553 -0.6692
C23 C 0.3234(13) 0.9552(10) -0.7193(3)
H22 H 0.3674 0.9426 -0.7407
C24 C 0.1924(12) 0.9925(9) -0.6573(3)
H23 H 0.1453 1.0059 -0.6362
C25 C 0.2111(11) 0.8839(8) -0.6673(2)
C26 C 0.2757(12) 0.8670(8) -0.6990(2)
C27 C 0.1607(11) 0.7884(9) -0.6444(3)
H24 H 0.2449 0.7264 -0.6451
H25 H 0.1573 0.8137 -0.6214
C28 C 0.0017(12) 0.7430(10) -0.6517(3)
C29 C 0.3069(12) 0.7509(8) -0.7111(3)
H26 H 0.3294 0.7573 -0.7352
H27 H 0.2074 0.7102 -0.7078
C30 C 0.4464(12) 0.6807(9) -0.6940(2)
C31 C 0.9725(13) -0.3628(8) -0.4333(2)
H28 H 1.0387 -0.4214 -0.4422
C32 C 0.8824(13) -0.3853(9) -0.4047(3)
H29 H 0.8852 -0.4584 -0.3942
C33 C 0.7868(12) -0.2958(9) -0.3920(2)
H30 H 0.7273 -0.3080 -0.3720
C34 C 0.7788(13) -0.1954(9) -0.4075(2)
H31 H 0.7085 -0.1382 -0.3989
C35 C 0.8698(11) -0.1695(8) -0.4361(2)
C36 C 1.0664(12) -0.2373(9) -0.4810(2)
H32 H 1.0029 -0.1909 -0.4980
H33 H 1.0965 -0.3108 -0.4901
C37 C 1.2165(11) -0.1795(9) -0.4724(2)
C38 C 0.8645(11) -0.0479(7) -0.4500(2)
H34 H 0.9424 -0.0067 -0.4377
H35 H 0.8983 -0.0463 -0.4736
C39 C 0.7003(12) 0.0106(8) -0.4475(2)
C40 C 0.3987(12) 0.0311(8) -0.3805(2)
H36 H 0.4643 0.0882 -0.3891
C41 C 0.3677(12) 0.0212(9) -0.3462(2)
H37 H 0.4120 0.0713 -0.3318
C42 C 0.2480(14) -0.1208(9) -0.3891(2)
H38 H 0.2047 -0.1701 -0.4039
C43 C 0.2165(13) -0.1359(9) -0.3555(2)
H39 H 0.1567 -0.1965 -0.3472
C44 C 0.2448(13) -0.0769(9) -0.2970(3)
C45 C 0.2753(11) -0.0592(9) -0.3339(2)
C46 C 0.1476(11) 0.0344(9) -0.2503(2)
C47 C 0.0470(14) 0.1304(10) -0.2424(3)
H40 H 0.0059 0.1831 -0.2592
C48 C 0.0130(16) 0.1428(12) -0.2100(3)
H41 H -0.0593 0.2035 -0.2044
C49 C 0.0768(13) 0.0726(9) -0.1845(3)
H42 H 0.0512 0.0862 -0.1620
C50 C 0.9495(14) 0.3794(11) -0.7376(3)
H43 H 0.9870 0.3250 -0.7526
C51 C 0.4898(12) -0.1354(8) -0.0991(3)
H44 H 0.4992 -0.2107 -0.1055
C52 C 0.3795(13) 0.0446(9) -0.1076(2)
H45 H 0.3117 0.0984 -0.1199
C53 C 0.4633(13) 0.0786(8) -0.0809(2)
H46 H 0.4514 0.1543 -0.0749
C54 C 0.5791(12) -0.1080(8) -0.0723(2)
H47 H 0.6483 -0.1627 -0.0607
C55 C 0.5648(11) 0.0023(8) -0.0628(2)
C56 C 0.6662(11) 0.0289(8) -0.0330(2)
C57 C 0.6916(11) 0.1657(8) 0.0093(2)
C58 C 0.8123(12) 0.1116(8) 0.0281(2)
H48 H 0.8510 0.0381 0.0231
C59 C 0.6371(11) 0.2722(8) 0.0171(2)
H49 H 0.5518 0.3096 0.0045
C60 C 0.8785(11) 0.1630(8) 0.0544(2)
H50 H 0.9618 0.1256 0.0675
C61 C 0.8197(11) 0.2707(8) 0.0609(2)
H51 H 0.8633 0.3072 0.0788
C62 C 0.7812(11) 0.6752(8) 0.0271(2)
C63 C 0.9395(11) 0.7284(9) 0.0199(2)
H52 H 0.9186 0.8056 0.0101
H53 H 1.0035 0.6845 0.0037
C64 C 1.0322(11) 0.7308(8) 0.0521(2)
C65 C 1.1203(11) 0.6360(9) 0.0663(2)
C66 C 1.0267(12) 0.8308(9) 0.0689(3)
H54 H 0.9630 0.8937 0.0599
C67 C 1.1102(14) 0.8417(11) 0.0981(3)
H55 H 1.1090 0.9115 0.1082
C68 C 1.1973(14) 0.7459(11) 0.1124(3)
H56 H 1.2534 0.7497 0.1328
C69 C 1.1996(13) 0.6462(10) 0.0964(3)
H57 H 1.2576 0.5820 0.1063
C70 C 1.1298(12) 0.5235(9) 0.0502(3)
H58 H 1.0539 0.4734 0.0616
H59 H 1.0976 0.5348 0.0266
C71 C 1.2992(12) 0.4691(9) 0.0524(2)
C72 C 0.5799(12) -0.1374(9) -0.1871(2)
C73 C 0.7401(13) -0.1872(9) -0.1991(3)
H60 H 0.8258 -0.1677 -0.1839
H61 H 0.7632 -0.1527 -0.2214
C74 C 0.7469(11) -0.3133(8) -0.2012(2)
C75 C 0.7501(13) -0.5444(10) -0.2069(3)
H62 H 0.7498 -0.6233 -0.2084
C76 C 0.8313(13) -0.4999(10) -0.1811(3)
H63 H 0.8907 -0.5494 -0.1657
C77 C 0.8279(11) -0.3824(9) -0.1770(2)
C78 C 0.9154(14) -0.3354(10) -0.1485(3)
H64 H 0.8384 -0.2850 -0.1367
H65 H 0.9501 -0.3982 -0.1326
C79 C 1.0609(12) -0.2715(9) -0.1584(2)
C80 C 0.3137(11) 0.3329(8) -0.4922(2)
C81 C 0.9676(11) -0.2533(7) -0.4496(2)
C82 C 0.2085(11) -0.0325(9) -0.2241(2)
H66 H 0.2786 -0.0951 -0.2290
C83 C 0.6704(15) -0.3580(12) -0.2272(3)
H67 H 0.6166 -0.3090 -0.2435
C84 C 0.6703(13) -0.4736(10) -0.2302(3)
H68 H 0.6158 -0.5030 -0.2481
Zn1_2 Zn 0.62076(13) 0.48626(9) -0.95144(3)
Zn1_3 Zn 1.62076(13) 0.48626(9) 0.04856(3)
Zn2_2 Zn 1.37319(13) -0.00042(9) -0.45198(3)
Zn3_2 Zn 1.28519(14) -0.12508(10) -0.15786(3)
Zn4_2 Zn -0.25711(14) 0.64991(10) -0.66264(3)
O4_2 O 0.9582(11) 0.6610(8) -0.63408(19)
O5_2 O 0.9117(9) 0.7865(6) -0.6745(3)
O8_2 O 0.2040(8) -0.0729(6) -0.47337(17)
O15_2 O 0.1092(8) -0.2080(6) -0.13627(16)
O20_2 O 0.4023(8) 0.5230(6) 0.03502(17)
N1_2 N 0.6442(9) 0.5134(7) 0.09870(18)
O21 O 0.5955(13) 0.1964(8) -0.1929(4)
O22 O 0.4850(16) 0.3365(8) -0.6820(3)
loop_
_geom_bond_atom_site_label_1
_geom_bond_atom_site_label_2
_geom_bond_site_symmetry_1
_geom_bond_site_symmetry_2
Zn1 O17 1_555 1_555
Zn2 O9 1_555 1_555
Zn3 O12 1_555 1_555
Zn4 O2 1_555 1_555
O1 C6 1_555 1_555
O2 C30 1_555 1_555
O3 C30 1_555 1_555
O4 C28 1_555 1_555
O5 C28 1_555 1_555
O6 C16 1_555 1_555
O7 C37 1_555 1_555
O8 C37 1_555 1_555
O9 C39 1_555 1_555
O10 C39 1_555 1_555
O11 C44 1_555 1_555
O12 C72 1_555 1_555
O13 C72 1_555 1_555
O14 C79 1_555 1_555
O15 C79 1_555 1_555
O16 C56 1_555 1_555
O17 C62 1_555 1_555
O18 C62 1_555 1_555
O19 C71 1_555 1_555
O20 C71 1_555 1_555
N1 C3 1_555 1_555
N2 H1 1_555 1_555
N3 Zn4 1_555 1_555
N4 Zn4 1_555 1_555
N5 Zn2 1_555 1_555
N6 H2 1_555 1_555
N7 Zn2 1_555 1_555
N8 H3 1_555 1_555
N9 Zn3 1_555 1_555
N10 H4 1_555 1_555
N11 Zn3 1_555 1_555
N12 Zn1 1_555 1_555
C1 H5 1_555 1_555
C2 H6 1_555 1_555
C3 C2 1_555 1_555
H7 C3 1_555 1_555
C4 N1 1_555 1_555
H8 C4 1_555 1_555
C5 C1 1_555 1_555
C6 N2 1_555 1_555
C7 N2 1_555 1_555
C8 N3 1_555 1_555
H9 C8 1_555 1_555
C9 N3 1_555 1_555
H10 C9 1_555 1_555
C10 C9 1_555 1_555
H11 C10 1_555 1_555
C11 N4 1_555 1_555
H12 C11 1_555 1_555
C12 C11 1_555 1_555
H13 C12 1_555 1_555
C13 N4 1_555 1_555
H14 C13 1_555 1_555
C14 C13 1_555 1_555
H15 C14 1_555 1_555
C15 C12 1_555 1_555
C16 N6 1_555 1_555
C17 N5 1_555 1_555
H16 C17 1_555 1_555
C18 H17 1_555 1_555
C19 C18 1_555 1_555
H18 C19 1_555 1_555
C20 N5 1_555 1_555
H19 C20 1_555 1_555
C21 H20 1_555 1_555
C22 C21 1_555 1_555
H21 C22 1_555 1_555
C23 C21 1_555 1_555
H22 C23 1_555 1_555
C24 C22 1_555 1_555
H23 C24 1_555 1_555
C25 C24 1_555 1_555
C26 C23 1_555 1_555
C27 C25 1_555 1_555
H24 C27 1_555 1_555
H25 C27 1_555 1_555
C28 C27 1_555 1_555
C29 C26 1_555 1_555
H26 C29 1_555 1_555
H27 C29 1_555 1_555
C30 C29 1_555 1_555
C31 H28 1_555 1_555
C32 C31 1_555 1_555
H29 C32 1_555 1_555
C33 C32 1_555 1_555
H30 C33 1_555 1_555
C34 C33 1_555 1_555
H31 C34 1_555 1_555
C35 C34 1_555 1_555
C36 H32 1_555 1_555
H33 C36 1_555 1_555
C37 C36 1_555 1_555
C38 C35 1_555 1_555
H34 C38 1_555 1_555
H35 C38 1_555 1_555
C39 C38 1_555 1_555
C40 N7 1_555 1_555
H36 C40 1_555 1_555
C41 C40 1_555 1_555
H37 C41 1_555 1_555
C42 N7 1_555 1_555
H38 C42 1_555 1_555
C43 C42 1_555 1_555
H39 C43 1_555 1_555
C44 N8 1_555 1_555
C45 C41 1_555 1_555
C46 N8 1_555 1_555
C47 C46 1_555 1_555
H40 C47 1_555 1_555
C48 C47 1_555 1_555
H41 C48 1_555 1_555
C49 N9 1_555 1_555
H42 C49 1_555 1_555
C50 C7 1_555 1_555
H43 C50 1_555 1_555
C51 N11 1_555 1_555
H44 C51 1_555 1_555
C52 N11 1_555 1_555
H45 C52 1_555 1_555
C53 C52 1_555 1_555
H46 C53 1_555 1_555
C54 C51 1_555 1_555
H47 C54 1_555 1_555
C55 C53 1_555 1_555
C56 N10 1_555 1_555
C57 N10 1_555 1_555
C58 C57 1_555 1_555
H48 C58 1_555 1_555
C59 N12 1_555 1_555
H49 C59 1_555 1_555
C60 C58 1_555 1_555
H50 C60 1_555 1_555
C61 N12 1_555 1_555
H51 C61 1_555 1_555
C62 C63 1_555 1_555
C63 H52 1_555 1_555
H53 C63 1_555 1_555
C64 C63 1_555 1_555
C65 C64 1_555 1_555
C66 C64 1_555 1_555
H54 C66 1_555 1_555
C67 C66 1_555 1_555
H55 C67 1_555 1_555
C68 C67 1_555 1_555
H56 C68 1_555 1_555
C69 C65 1_555 1_555
H57 C69 1_555 1_555
C70 C65 1_555 1_555
H58 C70 1_555 1_555
H59 C70 1_555 1_555
C71 C70 1_555 1_555
C72 C73 1_555 1_555
C73 H60 1_555 1_555
H61 C73 1_555 1_555
C74 C73 1_555 1_555
C75 H62 1_555 1_555
C76 C75 1_555 1_555
H63 C76 1_555 1_555
C77 C74 1_555 1_555
C78 C77 1_555 1_555
H64 C78 1_555 1_555
H65 C78 1_555 1_555
C79 C78 1_555 1_555
C80 N6 1_555 1_555
C81 C31 1_555 1_555
C82 N9 1_555 1_555
H66 C82 1_555 1_555
C83 C74 1_555 1_555
H67 C83 1_555 1_555
C84 C75 1_555 1_555
H68 C84 1_555 1_555
Zn1_2 N1 1_555 1_555
Zn1_3 O20 1_555 1_555
Zn2_2 O8 1_555 1_555
Zn3_2 O15 1_555 1_555
Zn4_2 O4 1_555 1_555
O4_2 Zn4 1_555 1_555
O5_2 Zn4 1_555 1_555
O8_2 Zn2 1_555 1_555
O15_2 Zn3 1_555 1_555
O20_2 Zn1 1_555 1_555
N1_2 Zn1 1_555 1_555
O5 Zn4_2 1_555 1_555
C1 C4 1_555 1_555
C2 C5 1_555 1_555
C5 C6 1_555 1_555
C7 C8 1_555 1_555
C10 C50 1_555 1_555
C14 C15 1_555 1_555
C15 C16 1_555 1_555
C17 C80 1_555 1_555
C18 C80 1_555 1_555
C19 C20 1_555 1_555
C25 C26 1_555 1_555
C35 C81 1_555 1_555
C36 C81 1_555 1_555
C43 C45 1_555 1_555
C44 C45 1_555 1_555
C46 C82 1_555 1_555
C48 C49 1_555 1_555
C54 C55 1_555 1_555
C55 C56 1_555 1_555
C57 C59 1_555 1_555
C60 C61 1_555 1_555
C68 C69 1_555 1_555
C76 C77 1_555 1_555
C83 C84 1_555 1_555

#END
