
#######################################################################
#
#                 Cambridge Crystallographic Data Centre
#                                CCDC 
#
#######################################################################
#
# If this CIF has been generated from an entry in the Cambridge 
# Structural Database, then it will include bibliographic, chemical, 
# crystal, experimental, refinement or atomic coordinate data resulting 
# from the CCDC's data processing and validation procedures.
#
#######################################################################

data_QITBEC
_symmetry_cell_setting           orthorhombic
_symmetry_space_group_name_H-M   'P 21 m a'
_symmetry_Int_Tables_number      26
_space_group_name_Hall           'P -2a 2a'
loop_
_symmetry_equiv_pos_site_id
_symmetry_equiv_pos_as_xyz
1 x,y,z
2 1/2+x,-y,-z
3 1/2+x,y,-z
4 x,-y,z
_cell_length_a                   9.8004(4)
_cell_length_b                   10.7829(3)
_cell_length_c                   4.88473(19)
_cell_angle_alpha                90
_cell_angle_beta                 90
_cell_angle_gamma                90
_cell_volume                     516.202
loop_
_atom_site_label
_atom_site_type_symbol
_atom_site_fract_x
_atom_site_fract_y
_atom_site_fract_z
Zn1 Zn 0.866564 1.0000 1.1241(9)
S1 S 1.0700(8) 1.0000 0.5682(16)
O1 O 1.0346(15) 1.0000 0.854(4)
O2 O 1.2164(17) 1.0000 0.541(3)
C1 C 0.8489(15) 0.5000 0.993(3)
C2 C 0.6439(18) 0.5000 0.582(4)
C3 C 0.6963(14) 0.6149(6) 0.687(3)
N1 N 0.7823(14) 0.8317(9) 0.933(3)
O3 O 1.0160(9) 0.8933(7) 0.443(2)
C4 C 0.8001(12) 0.6121(5) 0.895(2)
C5 C 0.8595(13) 0.7315(8) 1.014(3)
O3C O 1.0160(9) 1.1067(7) 0.443(2)
C3C C 0.6963(14) 0.3851(6) 0.687(3)
N1C N 0.7823(14) 0.1683(9) 0.933(3)
C4C C 0.8001(12) 0.3879(5) 0.895(2)
C5C C 0.8595(13) 0.2685(8) 1.014(3)
Zn1_2 Zn 0.866564 0.0000 1.1241(9)
Zn1_3 Zn 0.866564 1.0000 0.1241(9)
Zn1A Zn 1.366564 1.0000 0.8759(9)
O2A O 0.7164(17) 1.0000 1.459(3)
N1C_2 N 0.7823(14) 1.1683(9) 0.933(3)
O3_2 O 1.0160(9) 0.8933(7) 1.443(2)
O3C_2 O 1.0160(9) 1.1067(7) 1.443(2)
loop_
_geom_bond_atom_site_label_1
_geom_bond_atom_site_label_2
_geom_bond_site_symmetry_1
_geom_bond_site_symmetry_2
Zn1 O1 1_555 1_555
S1 O1 1_555 1_555
O2 S1 1_555 1_555
C1 C4 1_555 1_555
C2 C3 1_555 1_555
C3 C4 1_555 1_555
N1 Zn1 1_555 1_555
O3 S1 1_555 1_555
C4 C5 1_555 1_555
C5 N1 1_555 1_555
O3C S1 1_555 1_555
C3C C2 1_555 1_555
N1C C5C 1_555 1_555
C4C C1 1_555 1_555
C5C C4C 1_555 1_555
Zn1_2 N1C 1_555 1_555
Zn1_3 O3 1_555 1_555
Zn1A O2 1_555 1_555
O2A Zn1 1_555 1_555
N1C_2 Zn1 1_555 1_555
O3_2 Zn1 1_555 1_555
O3C_2 Zn1 1_555 1_555
O3C Zn1_3 1_555 1_555
C3C C4C 1_555 1_555

#END
