
#######################################################################
#
#                 Cambridge Crystallographic Data Centre
#                                CCDC 
#
#######################################################################
#
# If this CIF has been generated from an entry in the Cambridge 
# Structural Database, then it will include bibliographic, chemical, 
# crystal, experimental, refinement or atomic coordinate data resulting 
# from the CCDC's data processing and validation procedures.
#
#######################################################################

data_QITBIG
_symmetry_cell_setting           orthorhombic
_symmetry_space_group_name_H-M   'P 21 m a'
_symmetry_Int_Tables_number      26
_space_group_name_Hall           'P -2a 2a'
loop_
_symmetry_equiv_pos_site_id
_symmetry_equiv_pos_as_xyz
1 x,y,z
2 1/2+x,-y,-z
3 1/2+x,y,-z
4 x,-y,z
_cell_length_a                   9.8824(10)
_cell_length_b                   11.0907(7)
_cell_length_c                   4.9663(5)
_cell_angle_alpha                90
_cell_angle_beta                 90
_cell_angle_gamma                90
_cell_volume                     544.32
loop_
_atom_site_label
_atom_site_type_symbol
_atom_site_fract_x
_atom_site_fract_y
_atom_site_fract_z
Cd1 Cd 0.866564 1.00000 1.1180(11)
S1 S 1.079(2) 1.00000 0.502(5)
O1 O 1.098(6) 1.00000 0.802(5)
O2 O 1.214(4) 1.00000 0.367(13)
C1 C 0.815(3) 0.50000 0.896(5)
C2 C 0.614(4) 0.50000 1.289(7)
C3 C 0.664(3) 0.60853(4) 1.191(5)
N1 N 0.753(2) 0.8249(7) 1.017(4)
O3 O 1.001(3) 0.88957(5) 0.420(7)
C4 C 0.765(2) 0.60853(4) 0.994(4)
C5 C 0.820(3) 0.7276(7) 0.887(6)
O3C O 1.001(3) 1.11043(5) 0.420(7)
C3C C 0.664(3) 0.39147(4) 1.191(5)
N1C N 0.753(2) 0.1751(7) 1.017(4)
C4C C 0.765(2) 0.39147(4) 0.994(4)
C5C C 0.820(3) 0.2724(7) 0.887(6)
Cd1_2 Cd 0.866564 0.00000 1.1180(11)
Cd1_3 Cd 0.866564 1.00000 0.1180(11)
Cd1A Cd 1.366564 1.00000 0.8820(11)
O1A O 0.598(6) 1.00000 1.198(5)
N1C_2 N 0.753(2) 1.1751(7) 1.017(4)
O3_2 O 1.001(3) 0.88957(5) 1.420(7)
O3C_2 O 1.001(3) 1.11043(5) 1.420(7)
loop_
_geom_bond_atom_site_label_1
_geom_bond_atom_site_label_2
_geom_bond_site_symmetry_1
_geom_bond_site_symmetry_2
Cd1 O1 1_555 1_555
S1 O1 1_555 1_555
O1 Cd1A 1_555 1_555
O2 S1 1_555 1_555
C1 C4 1_555 1_555
C2 C3 1_555 1_555
C3 C4 1_555 1_555
N1 Cd1 1_555 1_555
O3 S1 1_555 1_555
C4 C5 1_555 1_555
C5 N1 1_555 1_555
O3C S1 1_555 1_555
C3C C2 1_555 1_555
N1C C5C 1_555 1_555
C4C C1 1_555 1_555
C5C C4C 1_555 1_555
Cd1_2 N1C 1_555 1_555
Cd1_3 O3 1_555 1_555
O1A Cd1 1_555 1_555
N1C_2 Cd1 1_555 1_555
O3_2 Cd1 1_555 1_555
O3C_2 Cd1 1_555 1_555
O3C Cd1_3 1_555 1_555
C3C C4C 1_555 1_555

#END
