
#######################################################################
#
#                 Cambridge Crystallographic Data Centre
#                                CCDC 
#
#######################################################################
#
# If this CIF has been generated from an entry in the Cambridge 
# Structural Database, then it will include bibliographic, chemical, 
# crystal, experimental, refinement or atomic coordinate data resulting 
# from the CCDC's data processing and validation procedures.
#
#######################################################################

data_QITBUQ
_symmetry_cell_setting           monoclinic
_symmetry_space_group_name_H-M   'P 21/n'
_symmetry_Int_Tables_number      14
_space_group_name_Hall           '-P 2yn'
loop_
_symmetry_equiv_pos_site_id
_symmetry_equiv_pos_as_xyz
1 x,y,z
2 1/2-x,1/2+y,1/2-z
3 -x,-y,-z
4 1/2+x,1/2-y,1/2+z
_cell_length_a                   11.0374(3)
_cell_length_b                   24.2179(10)
_cell_length_c                   14.3970(4)
_cell_angle_alpha                90
_cell_angle_beta                 92.880(2)
_cell_angle_gamma                90
_cell_volume                     3843.5
loop_
_atom_site_label
_atom_site_type_symbol
_atom_site_fract_x
_atom_site_fract_y
_atom_site_fract_z
Zn1 Zn 0.3743(1) 0.7313(1) 0.2230(1)
F1 F 0.7697(3) 0.6029(2) 0.2623(3)
F2 F 0.7520(3) 0.6617(2) 0.1567(3)
F3 F 0.6590(3) 0.5892(2) 0.1382(3)
F4 F 0.5658(5) 0.6366(2) 0.5315(2)
F5 F 0.4788(7) 0.7134(3) 0.5298(3)
F6 F 0.3761(6) 0.6428(3) 0.5197(3)
F7 F 0.5518(19) 0.8470(8) -0.0616(11)
F8 F 0.4780(20) 0.7613(10) -0.0798(11)
F9 F 0.3670(20) 0.8390(20) -0.0540(20)
F10 F 0.7353(12) 0.8174(11) 0.3456(9)
F11 F 0.7786(9) 0.8578(4) 0.2180(9)
F12 F 0.8123(12) 0.7715(6) 0.2395(12)
O1 O 0.5064(3) 0.6711(2) 0.1883(2)
O2 O 0.3837(3) 0.6913(2) 0.3517(2)
O3 O 0.3888(3) 0.7726(1) 0.0988(2)
O4 O 0.5313(3) 0.7781(2) 0.2685(2)
O5 O -0.2772(3) 0.4841(1) 0.0456(2)
N1 N -0.7577(3) 0.2879(2) 0.2148(2)
N2 N 0.2328(3) 0.6827(2) 0.1616(2)
C1 C 0.5801(4) 0.6495(2) 0.2461(3)
C2 C 0.5738(4) 0.6469(3) 0.3427(3)
C3 C 0.4764(4) 0.6685(2) 0.3866(3)
C4 C 0.6894(5) 0.6234(3) 0.2034(4)
C5 C 0.4773(7) 0.6645(4) 0.4924(4)
C6 C 0.4828(4) 0.7938(2) 0.0701(3)
C7 C 0.5909(4) 0.8055(3) 0.1196(3)
C8 C 0.6059(4) 0.7964(2) 0.2145(3)
C9 C 0.4728(6) 0.8088(4) -0.0334(4)
C10 C 0.7322(6) 0.8092(5) 0.2596(5)
C11 C -0.6631(4) 0.3099(2) 0.2621(3)
C12 C -0.5823(4) 0.3441(2) 0.2235(3)
C13 C -0.5964(4) 0.3587(2) 0.1309(3)
C14 C -0.6978(5) 0.3381(3) 0.0824(4)
C15 C -0.7744(4) 0.3028(3) 0.1268(4)
C16 C -0.5121(4) 0.3933(2) 0.0856(4)
C17 C -0.4430(4) 0.4208(2) 0.0453(4)
C18 C -0.3631(4) 0.4543(2) -0.0050(4)
C19 C -0.3516(4) 0.4626(2) -0.0967(4)
C20 C -0.2558(4) 0.4998(2) -0.1054(3)
C21 C -0.2128(4) 0.5118(2) -0.0182(3)
C22 C -0.1198(4) 0.5472(2) 0.0178(3)
C23 C -0.0435(4) 0.5778(2) 0.0486(4)
C24 C 0.0495(4) 0.6143(2) 0.0868(3)
C25 C 0.0687(5) 0.6198(3) 0.1812(4)
C26 C 0.1603(4) 0.6535(3) 0.2157(4)
C27 C 0.2145(4) 0.6761(2) 0.0703(3)
C28 C 0.1239(5) 0.6431(2) 0.0310(3)
H1 H 0.6380 0.6300 0.3788
H2 H 0.6567 0.8202 0.0873
H3 H -0.6514 0.3012 0.3262
H4 H -0.5156 0.3582 0.2605
H5 H -0.7147 0.3481 0.0193
H6 H -0.8429 0.2884 0.0922
H7 H -0.3993 0.4462 -0.1461
H8 H -0.2267 0.5140 -0.1616
H9 H 0.0191 0.6004 0.2223
H10 H 0.1731 0.6564 0.2812
H11 H 0.2661 0.6952 0.0303
H12 H 0.1134 0.6402 -0.0348
Zn1A Zn -0.8743(1) 0.2313(1) 0.2770(1)
N1A N 0.2577(3) 0.7879(2) 0.2852(2)
C29 C -0.3726(16) 0.0666(10) 0.8428(14)
C30 C -0.4263(13) 0.0848(6) 0.7589(12)
C31 C -0.5359(13) 0.0622(6) 0.7257(10)
C32 C -0.5917(14) 0.0214(7) 0.7763(14)
C33 C -0.5380(20) 0.0032(9) 0.8602(14)
C34 C -0.4280(20) 0.0258(11) 0.8934(13)
C38 C -0.3070(30) -0.0055(11) 0.8970(20)
H13 H -0.2978 0.0820 0.8655
H14 H -0.3882 0.1127 0.7243
H15 H -0.5726 0.0747 0.6684
H16 H -0.6666 0.0060 0.7536
H17 H -0.5762 -0.0246 0.8948
F13? F -0.0810(20) 0.3145(13) 0.5651(13)
F14? F 0.0710(30) 0.2709(13) 0.5868(15)
F15? F 0.0920(30) 0.3420(20) 0.5510(30)
F16? F -0.2510(20) 0.2793(19) 0.1650(19)
F17? F -0.2230(20) 0.3586(10) 0.2020(20)
F18? F -0.3117(16) 0.3060(30) 0.2878(19)
C35? C 0.4823(14) -0.0460(9) 0.2185(13)
C36? C 0.3818(13) -0.0755(6) 0.1842(11)
C37? C 0.2941(16) -0.0498(10) 0.1266(14)
C39? C 0.4070(30) 0.0351(7) 0.1380(20)
C40? C 0.4950(20) 0.0094(9) 0.1950(20)
H18? H 0.6082 0.0134 0.9508
H19? H 0.5422 -0.0636 0.2579
H20? H 0.3731 -0.1134 0.2001
H21? H 0.2255 -0.0700 0.1031
H22? H 0.2470 0.0231 0.0639
H23? H 0.4161 0.0729 0.1217
H24? H 0.5637 0.0296 0.2187
loop_
_geom_bond_atom_site_label_1
_geom_bond_atom_site_label_2
_geom_bond_site_symmetry_1
_geom_bond_site_symmetry_2
Zn1 O1 1_555 1_555
F1 C4 1_555 1_555
F2 C4 1_555 1_555
F3 C4 1_555 1_555
F4 C5 1_555 1_555
F5 C5 1_555 1_555
F6 C5 1_555 1_555
F7 C9 1_555 1_555
F8 C9 1_555 1_555
F9 C9 1_555 1_555
F10 C10 1_555 1_555
F11 C10 1_555 1_555
F12 C10 1_555 1_555
O1 C1 1_555 1_555
O2 Zn1 1_555 1_555
O3 Zn1 1_555 1_555
O4 Zn1 1_555 1_555
O5 C18 1_555 1_555
N1 C11 1_555 1_555
N2 Zn1 1_555 1_555
C1 C2 1_555 1_555
C2 C3 1_555 1_555
C3 O2 1_555 1_555
C4 C1 1_555 1_555
C5 C3 1_555 1_555
C6 O3 1_555 1_555
C7 C6 1_555 1_555
C8 O4 1_555 1_555
C9 C6 1_555 1_555
C10 C8 1_555 1_555
C11 C12 1_555 1_555
C12 C13 1_555 1_555
C13 C14 1_555 1_555
C14 C15 1_555 1_555
C15 N1 1_555 1_555
C16 C13 1_555 1_555
C17 C16 1_555 1_555
C18 C17 1_555 1_555
C19 C18 1_555 1_555
C20 C19 1_555 1_555
C21 O5 1_555 1_555
C22 C21 1_555 1_555
C23 C22 1_555 1_555
C24 C23 1_555 1_555
C25 C24 1_555 1_555
C26 N2 1_555 1_555
C27 N2 1_555 1_555
C28 C24 1_555 1_555
C29 C30 1_555 1_555
C30 C31 1_555 1_555
C31 C32 1_555 1_555
C32 C33 1_555 1_555
C33 C34 1_555 1_555
C34 C29 1_555 1_555
C38 C34 1_555 1_555
H1 C2 1_555 1_555
H2 C7 1_555 1_555
H3 C11 1_555 1_555
H4 C12 1_555 1_555
H5 C14 1_555 1_555
H6 C15 1_555 1_555
H7 C19 1_555 1_555
H8 C20 1_555 1_555
H9 C25 1_555 1_555
H10 C26 1_555 1_555
H11 C27 1_555 1_555
H12 C28 1_555 1_555
H13 C29 1_555 1_555
H14 C30 1_555 1_555
H15 C31 1_555 1_555
H16 C32 1_555 1_555
H17 C33 1_555 1_555
Zn1A N1 1_555 1_555
N1A Zn1 1_555 1_555
C7 C8 1_555 1_555
C20 C21 1_555 1_555
C25 C26 1_555 1_555
C27 C28 1_555 1_555

#END
