
#######################################################################
#
#                 Cambridge Crystallographic Data Centre
#                                CCDC 
#
#######################################################################
#
# If this CIF has been generated from an entry in the Cambridge 
# Structural Database, then it will include bibliographic, chemical, 
# crystal, experimental, refinement or atomic coordinate data resulting 
# from the CCDC's data processing and validation procedures.
#
#######################################################################

data_QITBUS
_symmetry_cell_setting           orthorhombic
_symmetry_space_group_name_H-M   'P n m a'
_symmetry_Int_Tables_number      62
_space_group_name_Hall           '-P 2ac 2n'
loop_
_symmetry_equiv_pos_site_id
_symmetry_equiv_pos_as_xyz
1 x,y,z
2 1/2-x,-y,1/2+z
3 -x,1/2+y,-z
4 1/2+x,1/2-y,1/2-z
5 -x,-y,-z
6 1/2+x,y,1/2-z
7 x,1/2-y,z
8 1/2-x,1/2+y,1/2+z
_cell_length_a                   10.1136(4)
_cell_length_b                   21.6625(3)
_cell_length_c                   4.9562(2)
_cell_angle_alpha                90
_cell_angle_beta                 90
_cell_angle_gamma                90
_cell_volume                     1085.83
loop_
_atom_site_label
_atom_site_type_symbol
_atom_site_fract_x
_atom_site_fract_y
_atom_site_fract_z
Cd1 Cd 0.3394(4) 0.25000 0.1129(7)
S1 S 0.6329(9) 0.25000 -0.1793(16)
O1 O 0.4918(11) 0.25000 -0.267(3)
O2 O 0.7001(10) 0.19374(18) -0.286(2)
C1 C 0.4661(10) 0.0519(2) 0.3499(13)
C2 C 0.4035(13) -0.0041(4) 0.301(3)
N1 N 0.409(2) 0.1618(4) 0.357(4)
C3 C 0.428(2) 0.1104(5) 0.180(3)
O3 O 0.6395(19) 0.25000 0.1211(19)
C4 C 0.4373(12) -0.0560(3) 0.451(2)
O2F O 0.7001(10) 0.30626(18) -0.286(2)
C1D C 0.5339(10) -0.0519(2) 0.6501(13)
C2D C 0.5965(13) 0.0041(4) 0.699(3)
N1D N 0.591(2) -0.1618(4) 0.643(4)
C3D C 0.572(2) -0.1104(5) 0.820(3)
C4D C 0.5627(12) 0.0560(3) 0.549(2)
Cd1B Cd 0.6606(4) -0.25000 0.8871(7)
Cd1C Cd 0.8394(4) 0.25000 -0.6129(7)
Cd1C_2 Cd 0.8394(4) 0.25000 0.3871(7)
O2C O 0.2001(10) 0.30626(18) -0.214(2)
O2E O 0.2001(10) 0.19374(18) -0.214(2)
N1F N 0.409(2) 0.3382(4) 0.357(4)
O3C O 0.1395(19) 0.25000 0.3789(19)
loop_
_geom_bond_atom_site_label_1
_geom_bond_atom_site_label_2
_geom_bond_site_symmetry_1
_geom_bond_site_symmetry_2
Cd1 O1 1_555 1_555
S1 O1 1_555 1_555
O2 S1 1_555 1_555
C1 C2 1_555 1_555
C2 C4 1_555 1_555
N1 Cd1 1_555 1_555
C3 C1 1_555 1_555
O3 S1 1_555 1_555
C4 C1D 1_555 1_555
O2F S1 1_555 1_555
C1D C2D 1_555 1_555
C2D C4D 1_555 1_555
N1D C3D 1_555 1_555
C3D C1D 1_555 1_555
C4D C1 1_555 1_555
Cd1B N1D 1_555 1_555
Cd1C O2 1_555 1_555
Cd1C_2 O3 1_555 1_555
O2C Cd1 1_555 1_555
O2E Cd1 1_555 1_555
N1F Cd1 1_555 1_555
O3C Cd1 1_555 1_555
N1 C3 1_555 1_555
O2F Cd1C 1_555 1_555

#END
