
#######################################################################
#
#                 Cambridge Crystallographic Data Centre
#                                CCDC 
#
#######################################################################
#
# If this CIF has been generated from an entry in the Cambridge 
# Structural Database, then it will include bibliographic, chemical, 
# crystal, experimental, refinement or atomic coordinate data resulting 
# from the CCDC's data processing and validation procedures.
#
#######################################################################

data_QITBOM
_symmetry_cell_setting           orthorhombic
_symmetry_space_group_name_H-M   'P n m a'
_symmetry_Int_Tables_number      62
_space_group_name_Hall           '-P 2ac 2n'
loop_
_symmetry_equiv_pos_site_id
_symmetry_equiv_pos_as_xyz
1 x,y,z
2 1/2-x,-y,1/2+z
3 -x,1/2+y,-z
4 1/2+x,1/2-y,1/2-z
5 -x,-y,-z
6 1/2+x,y,1/2-z
7 x,1/2-y,z
8 1/2-x,1/2+y,1/2+z
_cell_length_a                   9.8496(3)
_cell_length_b                   21.2419(5)
_cell_length_c                   4.89556(17)
_cell_angle_alpha                90
_cell_angle_beta                 90
_cell_angle_gamma                90
_cell_volume                     1024.27
loop_
_atom_site_label
_atom_site_type_symbol
_atom_site_fract_x
_atom_site_fract_y
_atom_site_fract_z
Zn1 Zn 0.3689(3) 0.25000 0.1133(6)
S1 S 0.6689(2) 0.25000 -0.1736(5)
O1 O 0.5172(11) 0.25000 -0.2364(10)
O2 O 0.7315(3) 0.19346(18) -0.2918(7)
C1 C 0.4474(4) 0.05417(13) 0.3697(7)
C2 C 0.3989(3) -0.00601(14) 0.3028(7)
N1 N 0.4472(7) 0.1699(2) 0.3150(16)
C3 C 0.3850(5) 0.1145(2) 0.2180(11)
O3 O 0.6881(4) 0.25000 0.102(2)
C4 C 0.4509(4) -0.05996(13) 0.4317(7)
O2F O 0.7315(3) 0.30654(18) -0.2918(7)
C1D C 0.5526(4) -0.05417(13) 0.6303(7)
C2D C 0.6011(3) 0.00601(14) 0.6972(7)
N1D N 0.5528(7) -0.1699(2) 0.6850(16)
C3D C 0.6150(5) -0.1145(2) 0.7820(11)
C4D C 0.5491(4) 0.05996(13) 0.5683(7)
Zn1B Zn 0.6311(3) -0.25000 0.8867(6)
Zn1C Zn 0.8689(3) 0.25000 -0.6133(6)
Zn1C_2 Zn 0.8689(3) 0.25000 0.3867(6)
O2C O 0.2315(3) 0.30654(18) -0.2082(7)
O2E O 0.2315(3) 0.19346(18) -0.2082(7)
N1F N 0.4472(7) 0.3301(2) 0.3150(16)
O3C O 0.1881(4) 0.25000 0.398(2)
loop_
_geom_bond_atom_site_label_1
_geom_bond_atom_site_label_2
_geom_bond_site_symmetry_1
_geom_bond_site_symmetry_2
Zn1 O1 1_555 1_555
S1 O1 1_555 1_555
O2 S1 1_555 1_555
C1 C2 1_555 1_555
C2 C4 1_555 1_555
N1 Zn1 1_555 1_555
C3 C1 1_555 1_555
O3 S1 1_555 1_555
C4 C1D 1_555 1_555
O2F S1 1_555 1_555
C1D C2D 1_555 1_555
C2D C4D 1_555 1_555
N1D C3D 1_555 1_555
C3D C1D 1_555 1_555
C4D C1 1_555 1_555
Zn1B N1D 1_555 1_555
Zn1C O2 1_555 1_555
Zn1C_2 O3 1_555 1_555
O2C Zn1 1_555 1_555
O2E Zn1 1_555 1_555
N1F Zn1 1_555 1_555
O3C Zn1 1_555 1_555
N1 C3 1_555 1_555
O2F Zn1C 1_555 1_555

#END
