
#######################################################################
#
#                 Cambridge Crystallographic Data Centre
#                                CCDC 
#
#######################################################################
#
# If this CIF has been generated from an entry in the Cambridge 
# Structural Database, then it will include bibliographic, chemical, 
# crystal, experimental, refinement or atomic coordinate data resulting 
# from the CCDC's data processing and validation procedures.
#
#######################################################################

data_QITCAZ
_symmetry_cell_setting           triclinic
_symmetry_space_group_name_H-M   'P -1'
_symmetry_Int_Tables_number      2
_space_group_name_Hall           '-P 1'
loop_
_symmetry_equiv_pos_site_id
_symmetry_equiv_pos_as_xyz
1 x,y,z
2 -x,-y,-z
_cell_length_a                   11.385(10)
_cell_length_b                   12.511(18)
_cell_length_c                   12.879(11)
_cell_angle_alpha                101.808(13)
_cell_angle_beta                 114.529(9)
_cell_angle_gamma                108.348(14)
_cell_volume                     1459.74
loop_
_atom_site_label
_atom_site_type_symbol
_atom_site_fract_x
_atom_site_fract_y
_atom_site_fract_z
O1 O 0.972(14) 0.519(4) 0.612(10)
H1 H 0.9439 0.5157 0.6636
H2 H 1.0550 0.5220 0.6418
O2 O 0.235(4) 0.533(4) 0.560(7)
H3 H 0.1674 0.5533 0.5315
H4 H 0.2040 0.4575 0.5188
Cu1 Cu 1.0000 1.0000 0.5000
Cu2 Cu 1.0000 1.0000 0.0000
C1 C 0.7364(11) 1.0447(11) 0.4553(10)
H5 H 0.7043 0.9930 0.4904
C2 C 0.6744(12) 1.1138(11) 0.4107(11)
C3 C 0.7579(13) 1.1772(12) 0.3699(13)
H6 H 0.7444 1.2341 0.3357
C4 C 0.8665(12) 0.7806(10) 0.2639(11)
H7 H 0.9361 0.8189 0.2462
C5 C 0.7605(13) 0.6661(11) 0.1951(10)
C6 C 0.6867(14) 0.6462(12) 0.2547(11)
H8 H 0.6070 0.5744 0.2304
C7 C 1.1082(12) 0.8409(10) 0.1177(11)
H9 H 1.1345 0.8896 0.1963
C8 C 1.1297(12) 0.7393(10) 0.0910(11)
C9 C 1.0791(13) 0.6986(11) -0.0314(12)
H10 H 1.0805 0.6316 -0.0773
C10 C 0.7600(12) 0.9374(11) 0.0667(11)
H11 H 0.8150 0.9988 0.1457
C11 C 0.6178(11) 0.8594(11) 0.0131(10)
C12 C 0.5800(12) 0.7836(13) -0.0968(11)
H12 H 0.4907 0.7171 -0.1546
N1 N 0.8484(9) 1.0606(8) 0.4422(8)
N2 N 0.8599(9) 1.1423(9) 0.3884(9)
H13 H 0.9244 1.1677 0.3691
N3 N 0.8591(9) 0.8327(7) 0.3617(8)
N4 N 0.7503(10) 0.7501(8) 0.3564(9)
H14 H 0.7229 0.7597 0.4091
N5 N 1.0441(9) 0.8597(8) 0.0152(8)
N6 N 1.0263(10) 0.7718(8) -0.0755(9)
H15 H 0.9865 0.7629 -0.1519
N7 N 0.8109(10) 0.9155(8) -0.0070(8)
N8 N 0.6978(12) 0.8235(11) -0.1065(10)
H16 H 0.6988 0.7917 -0.1717
O3 O 1.0715(8) 1.0533(7) 0.3610(7)
O4 O 1.0608(8) 1.2267(7) 0.3160(7)
O5 O 1.2889(7) 1.2312(7) 0.4404(7)
O6 O 1.1452(7) 1.1088(7) 0.2211(6)
S1 S 1.1427(3) 1.1544(2) 0.3349(2)
I1 I 0.49759(9) 1.13196(10) 0.40446(10)
I2 I 0.72447(13) 0.54481(10) 0.03732(10)
I3 I 1.22723(13) 0.66966(10) 0.21352(10)
I4 I 0.48821(11) 0.85485(10) 0.08736(11)
C7A C 0.8918(12) 1.1591(10) -0.1177(11)
H9A H 0.8655 1.1104 -0.1963
C8A C 0.8703(12) 1.2607(10) -0.0910(11)
C9A C 0.9209(13) 1.3014(11) 0.0314(12)
H10A H 0.9195 1.3684 0.0773
C10A C 1.2400(12) 1.0626(11) -0.0667(11)
H11A H 1.1850 1.0012 -0.1457
C11A C 1.3822(11) 1.1406(11) -0.0131(10)
C12A C 1.4200(12) 1.2164(13) 0.0968(11)
H12A H 1.5093 1.2829 0.1546
N5A N 0.9559(9) 1.1403(8) -0.0152(8)
N6A N 0.9737(10) 1.2282(8) 0.0755(9)
H15A H 1.0135 1.2371 0.1519
N7A N 1.1891(10) 1.0845(8) 0.0070(8)
N8A N 1.3022(12) 1.1765(11) 0.1065(10)
H16A H 1.3012 1.2083 0.1717
O3A O 0.9285(8) 0.9467(7) -0.3610(7)
O4A O 0.9392(8) 0.7733(7) -0.3160(7)
O5A O 0.7111(7) 0.7688(7) -0.4404(7)
O6A O 0.8548(7) 0.8912(7) -0.2211(6)
S1A S 0.8573(3) 0.8456(2) -0.3349(2)
I3A I 0.77277(13) 1.33034(10) -0.21352(10)
I4A I 1.51179(11) 1.14515(10) -0.08736(11)
C1A C 1.2636(11) 0.9553(11) 0.5447(10)
H5A H 1.2957 1.0070 0.5096
C2A C 1.3256(12) 0.8862(11) 0.5893(11)
C3A C 1.2421(13) 0.8228(12) 0.6301(13)
H6A H 1.2556 0.7659 0.6643
N1A N 1.1516(9) 0.9394(8) 0.5578(8)
N2A N 1.1401(9) 0.8577(9) 0.6116(9)
H13A H 1.0756 0.8323 0.6309
I1A I 1.50241(9) 0.86804(10) 0.59554(10)
C4A C 1.1335(12) 1.2194(10) 0.7361(11)
H7A H 1.0639 1.1811 0.7538
C5A C 1.2395(13) 1.3339(11) 0.8049(10)
C6A C 1.3133(14) 1.3538(12) 0.7453(11)
H8A H 1.3930 1.4256 0.7696
N3A N 1.1409(9) 1.1673(7) 0.6383(8)
N4A N 1.2497(10) 1.2499(8) 0.6436(9)
H14A H 1.2771 1.2403 0.5909
I2A I 1.27553(13) 1.45519(10) 0.96268(10)
Cu1_2 Cu 1.0000 1.0000 -0.5000
O3A_2 O 0.9285(8) 0.9467(7) 0.6390(7)
O7 O 0.581(3) 0.597(2) 0.665(2)
H17 H 0.4946 0.5747 0.6376
C13 C 0.610(4) 0.486(5) 0.649(4)
H18 H 0.6406 0.4726 0.7245
H19 H 0.6851 0.5004 0.6294
H20 H 0.5238 0.4159 0.5830
loop_
_geom_bond_atom_site_label_1
_geom_bond_atom_site_label_2
_geom_bond_site_symmetry_1
_geom_bond_site_symmetry_2
O1 H1 1_555 1_555
H2 O1 1_555 1_555
O2 H3 1_555 1_555
H4 O2 1_555 1_555
Cu1 N1 1_555 1_555
Cu2 N5 1_555 1_555
C1 H5 1_555 1_555
C2 C1 1_555 1_555
C3 C2 1_555 1_555
H6 C3 1_555 1_555
C4 H7 1_555 1_555
C5 C4 1_555 1_555
C6 C5 1_555 1_555
H8 C6 1_555 1_555
C7 H9 1_555 1_555
C8 C7 1_555 1_555
C9 C8 1_555 1_555
H10 C9 1_555 1_555
C10 H11 1_555 1_555
C11 C10 1_555 1_555
C12 C11 1_555 1_555
H12 C12 1_555 1_555
N1 C1 1_555 1_555
N2 C3 1_555 1_555
H13 N2 1_555 1_555
N3 Cu1 1_555 1_555
N4 C6 1_555 1_555
H14 N4 1_555 1_555
N5 C7 1_555 1_555
N6 C9 1_555 1_555
H15 N6 1_555 1_555
N7 Cu2 1_555 1_555
N8 C12 1_555 1_555
H16 N8 1_555 1_555
O3 Cu1 1_555 1_555
O4 S1 1_555 1_555
O5 S1 1_555 1_555
O6 Cu2 1_555 1_555
S1 O3 1_555 1_555
I1 C2 1_555 1_555
I2 C5 1_555 1_555
I3 C8 1_555 1_555
I4 C11 1_555 1_555
O7 H17 1_555 1_555
C13 O7 1_555 1_555
H18 C13 1_555 1_555
H19 C13 1_555 1_555
H20 C13 1_555 1_555
C7A H9A 1_555 1_555
C8A C7A 1_555 1_555
C9A C8A 1_555 1_555
H10A C9A 1_555 1_555
C10A H11A 1_555 1_555
C11A C10A 1_555 1_555
C12A C11A 1_555 1_555
H12A C12A 1_555 1_555
N5A Cu2 1_555 1_555
N6A C9A 1_555 1_555
H15A N6A 1_555 1_555
N7A Cu2 1_555 1_555
N8A C12A 1_555 1_555
H16A N8A 1_555 1_555
O3A S1A 1_555 1_555
O4A S1A 1_555 1_555
O5A S1A 1_555 1_555
O6A Cu2 1_555 1_555
S1A O6A 1_555 1_555
I3A C8A 1_555 1_555
I4A C11A 1_555 1_555
C1A H5A 1_555 1_555
C2A C1A 1_555 1_555
C3A C2A 1_555 1_555
H6A C3A 1_555 1_555
N1A Cu1 1_555 1_555
N2A C3A 1_555 1_555
H13A N2A 1_555 1_555
I1A C2A 1_555 1_555
C4A H7A 1_555 1_555
C5A C4A 1_555 1_555
C6A C5A 1_555 1_555
H8A C6A 1_555 1_555
N3A Cu1 1_555 1_555
N4A C6A 1_555 1_555
H14A N4A 1_555 1_555
I2A C5A 1_555 1_555
Cu1_2 O3A 1_555 1_555
O3A_2 Cu1 1_555 1_555
C4 N3 1_555 1_555
C10 N7 1_555 1_555
N1 N2 1_555 1_555
N3 N4 1_555 1_555
N5 N6 1_555 1_555
N7 N8 1_555 1_555
O6 S1 1_555 1_555
C7A N5A 1_555 1_555
C10A N7A 1_555 1_555
N5A N6A 1_555 1_555
N7A N8A 1_555 1_555
C1A N1A 1_555 1_555
N1A N2A 1_555 1_555
C4A N3A 1_555 1_555
N3A N4A 1_555 1_555

#END
