
#######################################################################
#
#                 Cambridge Crystallographic Data Centre
#                                CCDC 
#
#######################################################################
#
# If this CIF has been generated from an entry in the Cambridge 
# Structural Database, then it will include bibliographic, chemical, 
# crystal, experimental, refinement or atomic coordinate data resulting 
# from the CCDC's data processing and validation procedures.
#
#######################################################################

data_QITCEB
_symmetry_cell_setting           triclinic
_symmetry_space_group_name_H-M   'P 1'
_symmetry_Int_Tables_number      1
_space_group_name_Hall           'P 1'
loop_
_symmetry_equiv_pos_site_id
_symmetry_equiv_pos_as_xyz
1 x,y,z
_cell_length_a                   7.4883(2)
_cell_length_b                   14.1563(5)
_cell_length_c                   21.2123(5)
_cell_angle_alpha                78.4440(15)
_cell_angle_beta                 81.5644(15)
_cell_angle_gamma                76.4976(13)
_cell_volume                     2130.35
loop_
_atom_site_label
_atom_site_type_symbol
_atom_site_fract_x
_atom_site_fract_y
_atom_site_fract_z
Zn1 Zn 0.9483(1) -0.1570(1) 0.6340(1)
Zn2 Zn -1.0605(1) 0.3726(1) 0.1358(1)
F1 F 1.2376(5) 0.0762(2) 0.4977(1)
F2 F 1.1823(5) 0.1834(2) 0.5593(2)
F3 F 1.3798(4) 0.0489(3) 0.5813(2)
F4 F 0.7470(6) -0.5051(2) 0.7279(2)
F5 F 0.5426(5) -0.3766(3) 0.6984(2)
F6 F 0.6778(5) -0.3875(2) 0.7808(1)
F7 F -0.8995(8) 0.6361(3) 0.1962(2)
F8 F -0.9041(8) 0.5836(3) 0.2961(2)
F9 F -0.6919(6) 0.5221(4) 0.2308(3)
F10 F -1.2144(8) 0.1016(3) 0.0822(2)
F11 F -1.4107(9) 0.2103(5) 0.0450(4)
F12 F -1.2166(11) 0.1519(4) -0.0180(2)
O1 O 1.0786(4) -0.0493(2) 0.5824(1)
O2 O 0.7632(4) -0.0502(2) 0.6815(1)
O3 O 0.8251(4) -0.2664(2) 0.6888(1)
O4 O 1.1225(4) -0.2628(2) 0.5828(1)
O5 O 0.0214(4) -0.0412(2) 0.3243(2)
O6 O -0.9733(4) 0.4777(2) 0.1704(1)
O7 O -1.2189(4) 0.3418(2) 0.2261(1)
O8 O -1.1405(4) 0.2635(2) 0.1022(1)
O9 O -0.9114(4) 0.4073(2) 0.0445(1)
O10 O -2.1552(4) 0.7588(2) -0.0496(1)
N1 N 0.7647(4) -0.1320(2) 0.5575(2)
N2 N -0.8342(5) 0.2595(2) 0.1750(2)
N3 N -2.8705(4) 0.8187(2) -0.2883(2)
N4 N -1.2903(5) 0.4838(2) 0.0981(2)
C1 C 1.0674(5) 0.0347(3) 0.5985(2)
C2 C 0.9477(5) 0.0759(3) 0.6465(2)
C3 C 0.8003(5) 0.0319(3) 0.6819(2)
C4 C 1.2153(6) 0.0864(3) 0.5594(2)
C5 C 0.6865(5) 0.1048(3) 0.7239(2)
C6 C 0.5948(6) 0.1916(3) 0.6734(2)
C7 C 0.7542(7) 0.2424(3) 0.6393(2)
C8 C 0.9220(6) 0.1736(3) 0.6698(2)
C9 C 0.8456(6) 0.1466(3) 0.7416(2)
C10 C 0.9791(7) 0.0719(4) 0.7822(2)
C11 C 0.7742(7) 0.2361(4) 0.7751(2)
C12 C 0.5549(7) 0.0633(4) 0.7771(2)
C13 C 0.8492(5) -0.3542(3) 0.6787(2)
C14 C 0.9722(6) -0.3978(3) 0.6333(2)
C15 C 1.0928(5) -0.3462(3) 0.5871(2)
C16 C 0.7070(6) -0.4076(3) 0.7219(2)
C17 C 1.1839(6) -0.4151(3) 0.5397(2)
C18 C 1.0215(7) -0.4180(4) 0.5025(3)
C19 C 0.9001(8) -0.4798(5) 0.5516(3)
C20 C 1.0012(7) -0.4986(3) 0.6129(2)
C21 C 1.2068(7) -0.5165(3) 0.5861(2)
C22 C 1.3367(7) -0.5251(4) 0.6370(3)
C23 C 1.2711(10) -0.6063(4) 0.5518(3)
C24 C 1.3503(7) -0.3878(4) 0.4967(2)
C25 C 0.7843(6) -0.0736(3) 0.5002(2)
C26 C 0.6695(7) -0.0611(3) 0.4523(2)
C27 C 0.5255(6) -0.1102(3) 0.4630(2)
C28 C 0.5002(6) -0.1704(3) 0.5237(2)
C29 C 0.6232(5) -0.1791(3) 0.5676(2)
C30 C 0.3973(6) -0.1038(3) 0.4174(2)
C31 C 0.2806(6) -0.1079(3) 0.3858(2)
C32 C 0.1387(6) -0.1231(3) 0.3537(2)
C33 C 0.0884(8) -0.2066(4) 0.3483(3)
C34 C -0.0694(8) -0.1770(4) 0.3135(3)
C35 C -0.1063(6) -0.0787(3) 0.3005(2)
C36 C -0.2520(6) -0.0069(3) 0.2709(2)
C37 C -0.3807(6) 0.0490(3) 0.2480(2)
C38 C -0.5332(6) 0.1198(3) 0.2230(2)
C39 C -0.6982(6) 0.0935(3) 0.2175(2)
C40 C -0.8419(6) 0.1644(3) 0.1928(2)
C41 C -0.6768(5) 0.2856(3) 0.1814(2)
C42 C -0.5249(6) 0.2188(3) 0.2044(2)
C43 C -2.9150(6) 0.7786(3) -0.2262(2)
C44 C -2.8067(6) 0.7709(3) -0.1777(2)
C45 C -2.6437(6) 0.8057(3) -0.1920(2)
C46 C -2.5950(6) 0.8452(3) -0.2556(2)
C47 C -2.7118(5) 0.8505(3) -0.3014(2)
C48 C -2.5257(6) 0.8059(4) -0.1436(2)
C49 C -2.4194(6) 0.8127(4) -0.1095(2)
C50 C -2.2972(6) 0.8346(4) -0.0714(2)
C51 C -2.2829(8) 0.9191(4) -0.0552(3)
C52 C -2.1261(8) 0.8974(4) -0.0215(3)
C53 C -2.0521(6) 0.8008(3) -0.0181(2)
C54 C -1.8947(6) 0.7389(4) 0.0078(2)
C55 C -1.7590(7) 0.6878(3) 0.0289(2)
C56 C -1.5977(6) 0.6194(3) 0.0533(2)
C57 C -1.4464(6) 0.6519(3) 0.0651(2)
C58 C -1.2965(6) 0.5810(3) 0.0879(2)
C59 C -1.4384(6) 0.4547(3) 0.0861(2)
C60 C -1.5930(6) 0.5192(3) 0.0644(2)
C61 C -0.9787(6) 0.4813(3) 0.2302(2)
C62 C -1.0622(6) 0.4281(3) 0.2814(2)
C63 C -1.1816(6) 0.3634(3) 0.2759(2)
C64 C -0.8731(9) 0.5574(4) 0.2398(3)
C65 C -1.2657(7) 0.3283(4) 0.3439(2)
C66 C -1.3931(8) 0.4245(6) 0.3636(3)
C67 C -1.2617(9) 0.4864(5) 0.3744(3)
C68 C -1.0740(8) 0.4252(4) 0.3547(2)
C69 C -1.0958(7) 0.3181(4) 0.3815(2)
C70 C -0.9316(8) 0.2405(5) 0.3632(2)
C71 C -1.1437(10) 0.2947(6) 0.4562(2)
C72 C -1.3538(11) 0.2423(6) 0.3510(3)
C73 C -1.1261(6) 0.2534(3) 0.0438(2)
C74 C -1.0388(6) 0.3056(3) -0.0090(2)
C75 C -0.9417(5) 0.3801(3) -0.0041(2)
C76 C -1.2228(10) 0.1748(4) 0.0355(3)
C77 C -0.8832(7) 0.4240(4) -0.0731(2)
C78 C -1.0680(7) 0.4831(4) -0.0987(2)
C79 C -1.1679(7) 0.4016(4) -0.1061(2)
C80 C -1.0318(7) 0.3067(4) -0.0815(2)
C81 C -0.8429(7) 0.3327(4) -0.1060(2)
C82 C -0.6769(8) 0.2560(6) -0.0816(3)
C83 C -0.8074(10) 0.3550(6) -0.1810(2)
C84 C -0.7381(9) 0.4859(5) -0.0802(3)
H1 H 0.5401 0.1668 0.6419
H2 H 0.4968 0.2381 0.6957
H3 H 0.7668 0.2453 0.5919
H4 H 0.7356 0.3100 0.6488
H5 H 1.0355 0.2018 0.6630
H6 H 1.0276 0.0144 0.7609
H7 H 0.9155 0.0513 0.8248
H8 H 1.0812 0.1011 0.7874
H9 H 0.6857 0.2853 0.7493
H10 H 0.8779 0.2649 0.7793
H11 H 0.7130 0.2157 0.8181
H12 H 0.4877 0.1153 0.8013
H13 H 0.6245 0.0093 0.8064
H14 H 0.4669 0.0384 0.7583
H15 H 0.9503 -0.3506 0.4885
H16 H 1.0682 -0.4496 0.4640
H17 H 0.7717 -0.4422 0.5585
H18 H 0.8991 -0.5422 0.5375
H19 H 0.9666 -0.5521 0.6478
H20 H 1.2965 -0.4684 0.6595
H21 H 1.4626 -0.5263 0.6160
H22 H 1.3343 -0.5861 0.6683
H23 H 1.1882 -0.6019 0.5191
H24 H 1.2688 -0.6668 0.5836
H25 H 1.3971 -0.6076 0.5309
H26 H 1.3991 -0.4364 0.4681
H27 H 1.4456 -0.3868 0.5235
H28 H 1.3139 -0.3223 0.4705
H29 H 0.8819 -0.0388 0.4919
H30 H 0.6896 -0.0190 0.4122
H31 H 0.4010 -0.2041 0.5339
H32 H 0.6075 -0.2213 0.6080
H33 H 0.1471 -0.2723 0.3645
H34 H -0.1360 -0.2191 0.3017
H35 H -0.7110 0.0270 0.2308
H36 H -0.9516 0.1448 0.1882
H37 H -0.6700 0.3531 0.1695
H38 H -0.4158 0.2401 0.2076
H39 H -3.0260 0.7547 -0.2156
H40 H -2.8429 0.7420 -0.1347
H41 H -2.4832 0.8681 -0.2675
H42 H -2.6776 0.8784 -0.3448
H43 H -2.3633 0.9817 -0.0646
H44 H -2.0805 0.9430 -0.0042
H45 H -1.4452 0.7202 0.0578
H46 H -1.1933 0.6027 0.0966
H47 H -1.4359 0.3860 0.0930
H48 H -1.6955 0.4954 0.0571
H49 H -1.4709 0.4603 0.3288
H50 H -1.4746 0.4088 0.4037
H51 H -1.2840 0.5525 0.3469
H52 H -1.2737 0.4942 0.4203
H53 H -0.9673 0.4434 0.3692
H54 H -0.9558 0.1749 0.3816
H55 H -0.8222 0.2488 0.3800
H56 H -0.9101 0.2473 0.3159
H57 H -1.2511 0.3438 0.4695
H58 H -1.0380 0.2968 0.4778
H59 H -1.1720 0.2289 0.4683
H60 H -1.4053 0.2259 0.3960
H61 H -1.2613 0.1856 0.3389
H62 H -1.4530 0.2588 0.3227
H63 H -1.0457 0.5259 -0.1409
H64 H -1.1414 0.5244 -0.0676
H65 H -1.2887 0.4068 -0.0794
H66 H -1.1868 0.4053 -0.1519
H67 H -1.0508 0.2451 -0.0935
H68 H -0.6932 0.2413 -0.0342
H69 H -0.5643 0.2817 -0.0960
H70 H -0.6665 0.1955 -0.0990
H71 H -0.9106 0.4054 -0.1983
H72 H -0.7967 0.2946 -0.1984
H73 H -0.6927 0.3792 -0.1935
H74 H -0.7858 0.5411 -0.0567
H75 H -0.7090 0.5115 -0.1261
H76 H -0.6260 0.4450 -0.0625
N3_2 N 1.1295(4) -0.1813(2) 0.7117(2)
Zn1_2 Zn -3.0517(1) 0.8430(1) -0.3660(1)
C85 C 0.6171(17) -0.1202(12) 0.1390(7)
C86 C 0.5730(20) -0.1950(11) 0.1880(6)
C87 C 0.3950(20) -0.2118(9) 0.1988(5)
C88 C 0.2600(16) -0.1537(10) 0.1606(7)
C89 C 0.3040(20) -0.0788(9) 0.1117(6)
C90 C 0.4830(30) -0.0621(8) 0.1008(5)
H77 H 0.7391 -0.1087 0.1316
H78 H 0.6650 -0.2347 0.2141
H79 H 0.3645 -0.2629 0.2323
H80 H 0.1380 -0.1651 0.1680
H81 H 0.2121 -0.0391 0.0856
H82 H 0.5126 -0.0109 0.0674
loop_
_geom_bond_atom_site_label_1
_geom_bond_atom_site_label_2
_geom_bond_site_symmetry_1
_geom_bond_site_symmetry_2
Zn1 O1 1_555 1_555
Zn2 O6 1_555 1_555
F1 C4 1_555 1_555
F2 C4 1_555 1_555
F3 C4 1_555 1_555
F4 C16 1_555 1_555
F5 C16 1_555 1_555
F6 C16 1_555 1_555
F7 C64 1_555 1_555
F8 C64 1_555 1_555
F9 C64 1_555 1_555
F10 C76 1_555 1_555
F11 C76 1_555 1_555
F12 C76 1_555 1_555
O1 C1 1_555 1_555
O2 Zn1 1_555 1_555
O3 Zn1 1_555 1_555
O4 Zn1 1_555 1_555
O5 C32 1_555 1_555
O6 C61 1_555 1_555
O7 Zn2 1_555 1_555
O8 Zn2 1_555 1_555
O9 Zn2 1_555 1_555
O10 C50 1_555 1_555
N1 Zn1 1_555 1_555
N2 Zn2 1_555 1_555
N3 C43 1_555 1_555
N4 Zn2 1_555 1_555
C1 C2 1_555 1_555
C2 C3 1_555 1_555
C3 O2 1_555 1_555
C4 C1 1_555 1_555
C5 C3 1_555 1_555
C6 C5 1_555 1_555
C7 C6 1_555 1_555
C8 C2 1_555 1_555
C9 C5 1_555 1_555
C10 C9 1_555 1_555
C11 C9 1_555 1_555
C12 C5 1_555 1_555
C13 O3 1_555 1_555
C14 C13 1_555 1_555
C15 O4 1_555 1_555
C16 C13 1_555 1_555
C17 C15 1_555 1_555
C18 C17 1_555 1_555
C19 C18 1_555 1_555
C20 C14 1_555 1_555
C21 C17 1_555 1_555
C22 C21 1_555 1_555
C23 C21 1_555 1_555
C24 C17 1_555 1_555
C25 N1 1_555 1_555
C26 C25 1_555 1_555
C27 C26 1_555 1_555
C28 C27 1_555 1_555
C29 N1 1_555 1_555
C30 C27 1_555 1_555
C31 C30 1_555 1_555
C32 C31 1_555 1_555
C33 C32 1_555 1_555
C34 C33 1_555 1_555
C35 O5 1_555 1_555
C36 C35 1_555 1_555
C37 C36 1_555 1_555
C38 C37 1_555 1_555
C39 C38 1_555 1_555
C40 N2 1_555 1_555
C41 N2 1_555 1_555
C42 C38 1_555 1_555
C43 C44 1_555 1_555
C44 C45 1_555 1_555
C45 C46 1_555 1_555
C46 C47 1_555 1_555
C47 N3 1_555 1_555
C48 C45 1_555 1_555
C49 C48 1_555 1_555
C50 C49 1_555 1_555
C51 C50 1_555 1_555
C52 C51 1_555 1_555
C53 O10 1_555 1_555
C54 C53 1_555 1_555
C55 C54 1_555 1_555
C56 C55 1_555 1_555
C57 C56 1_555 1_555
C58 N4 1_555 1_555
C59 N4 1_555 1_555
C60 C56 1_555 1_555
C61 C62 1_555 1_555
C62 C63 1_555 1_555
C63 O7 1_555 1_555
C64 C61 1_555 1_555
C65 C63 1_555 1_555
C66 C65 1_555 1_555
C67 C66 1_555 1_555
C68 C62 1_555 1_555
C69 C65 1_555 1_555
C70 C69 1_555 1_555
C71 C69 1_555 1_555
C72 C65 1_555 1_555
C73 O8 1_555 1_555
C74 C73 1_555 1_555
C75 O9 1_555 1_555
C76 C73 1_555 1_555
C77 C75 1_555 1_555
C78 C77 1_555 1_555
C79 C78 1_555 1_555
C80 C74 1_555 1_555
C81 C77 1_555 1_555
C82 C81 1_555 1_555
C83 C81 1_555 1_555
C84 C77 1_555 1_555
C85 C86 1_555 1_555
C86 C87 1_555 1_555
C87 C88 1_555 1_555
C88 C89 1_555 1_555
C89 C90 1_555 1_555
C90 C85 1_555 1_555
H1 C6 1_555 1_555
H2 C6 1_555 1_555
H3 C7 1_555 1_555
H4 C7 1_555 1_555
H5 C8 1_555 1_555
H6 C10 1_555 1_555
H7 C10 1_555 1_555
H8 C10 1_555 1_555
H9 C11 1_555 1_555
H10 C11 1_555 1_555
H11 C11 1_555 1_555
H12 C12 1_555 1_555
H13 C12 1_555 1_555
H14 C12 1_555 1_555
H15 C18 1_555 1_555
H16 C18 1_555 1_555
H17 C19 1_555 1_555
H18 C19 1_555 1_555
H19 C20 1_555 1_555
H20 C22 1_555 1_555
H21 C22 1_555 1_555
H22 C22 1_555 1_555
H23 C23 1_555 1_555
H24 C23 1_555 1_555
H25 C23 1_555 1_555
H26 C24 1_555 1_555
H27 C24 1_555 1_555
H28 C24 1_555 1_555
H29 C25 1_555 1_555
H30 C26 1_555 1_555
H31 C28 1_555 1_555
H32 C29 1_555 1_555
H33 C33 1_555 1_555
H34 C34 1_555 1_555
H35 C39 1_555 1_555
H36 C40 1_555 1_555
H37 C41 1_555 1_555
H38 C42 1_555 1_555
H39 C43 1_555 1_555
H40 C44 1_555 1_555
H41 C46 1_555 1_555
H42 C47 1_555 1_555
H43 C51 1_555 1_555
H44 C52 1_555 1_555
H45 C57 1_555 1_555
H46 C58 1_555 1_555
H47 C59 1_555 1_555
H48 C60 1_555 1_555
H49 C66 1_555 1_555
H50 C66 1_555 1_555
H51 C67 1_555 1_555
H52 C67 1_555 1_555
H53 C68 1_555 1_555
H54 C70 1_555 1_555
H55 C70 1_555 1_555
H56 C70 1_555 1_555
H57 C71 1_555 1_555
H58 C71 1_555 1_555
H59 C71 1_555 1_555
H60 C72 1_555 1_555
H61 C72 1_555 1_555
H62 C72 1_555 1_555
H63 C78 1_555 1_555
H64 C78 1_555 1_555
H65 C79 1_555 1_555
H66 C79 1_555 1_555
H67 C80 1_555 1_555
H68 C82 1_555 1_555
H69 C82 1_555 1_555
H70 C82 1_555 1_555
H71 C83 1_555 1_555
H72 C83 1_555 1_555
H73 C83 1_555 1_555
H74 C84 1_555 1_555
H75 C84 1_555 1_555
H76 C84 1_555 1_555
H77 C85 1_555 1_555
H78 C86 1_555 1_555
H79 C87 1_555 1_555
H80 C88 1_555 1_555
H81 C89 1_555 1_555
H82 C90 1_555 1_555
N3_2 Zn1 1_555 1_555
Zn1_2 N3 1_555 1_555
C7 C8 1_555 1_555
C8 C9 1_555 1_555
C14 C15 1_555 1_555
C19 C20 1_555 1_555
C20 C21 1_555 1_555
C28 C29 1_555 1_555
C34 C35 1_555 1_555
C39 C40 1_555 1_555
C41 C42 1_555 1_555
C52 C53 1_555 1_555
C57 C58 1_555 1_555
C59 C60 1_555 1_555
C67 C68 1_555 1_555
C68 C69 1_555 1_555
C74 C75 1_555 1_555
C79 C80 1_555 1_555
C80 C81 1_555 1_555

#END
