
#######################################################################
#
#                 Cambridge Crystallographic Data Centre
#                                CCDC 
#
#######################################################################
#
# If this CIF has been generated from an entry in the Cambridge 
# Structural Database, then it will include bibliographic, chemical, 
# crystal, experimental, refinement or atomic coordinate data resulting 
# from the CCDC's data processing and validation procedures.
#
#######################################################################

data_QITCUS
_symmetry_cell_setting           triclinic
_symmetry_space_group_name_H-M   'P -1'
_symmetry_Int_Tables_number      2
_space_group_name_Hall           '-P 1'
loop_
_symmetry_equiv_pos_site_id
_symmetry_equiv_pos_as_xyz
1 x,y,z
2 -x,-y,-z
_cell_length_a                   6.5785(6)
_cell_length_b                   10.6416(9)
_cell_length_c                   15.6335(13)
_cell_angle_alpha                105.243(5)
_cell_angle_beta                 95.882(5)
_cell_angle_gamma                99.237(5)
_cell_volume                     1030.14
loop_
_atom_site_label
_atom_site_type_symbol
_atom_site_fract_x
_atom_site_fract_y
_atom_site_fract_z
Os1 Os 0.34932(7) -0.15897(4) -0.26472(3)
Na1 Na 0.0000 0.0000 0.0000
Na2 Na 0.5000 0.0000 0.0000
C1 C 0.3183(17) 0.0761(10) 0.3773(8)
H1 H 0.2311 0.0319 0.3217
C2 C 0.2446(18) 0.0718(11) 0.4586(8)
H2 H 0.1073 0.0255 0.4565
C3 C 0.3653(19) 0.1323(11) 0.5394(8)
H3 H 0.3134 0.1286 0.5934
C4 C 0.5732(18) 0.2019(10) 0.5419(7)
C5 C 0.712(2) 0.2665(11) 0.6218(8)
H4 H 0.6679 0.2681 0.6779
C6 C 0.911(2) 0.3272(11) 0.6191(8)
H5 H 1.0052 0.3664 0.6734
C7 C 0.9784(18) 0.3323(10) 0.5351(7)
C8 C 1.1801(18) 0.3965(10) 0.5280(8)
H6 H 1.2796 0.4408 0.5801
C9 C 1.2262(18) 0.3931(11) 0.4462(8)
H7 H 1.3592 0.4380 0.4408
C10 C 1.0840(17) 0.3252(10) 0.3679(8)
H8 H 1.1228 0.3242 0.3109
C11 C 0.8446(17) 0.2664(10) 0.4557(7)
C12 C 0.6359(17) 0.2013(10) 0.4581(7)
C13 C 0.4410(17) -0.3350(11) -0.2687(7)
C14 C 0.7951(16) 0.1833(10) 0.1634(7)
C15 C 0.2575(16) 0.0182(10) -0.2552(7)
C16 C 0.5975(19) -0.0619(11) -0.1744(7)
N1 N 0.5138(15) 0.1432(8) 0.3782(6)
N2 N 0.8961(14) 0.2624(8) 0.3729(6)
N3 N 0.4851(15) -0.4349(9) -0.2688(7)
N4 N 0.1344(15) -0.1970(9) -0.1005(6)
N5 N 0.2095(16) 0.1207(9) -0.2481(7)
N6 N 0.2607(15) 0.0049(9) 0.1191(6)
O1 O 0.2930(12) 0.1357(7) -0.0416(5)
H9 H 0.7248 -0.1378 0.1022
H10 H 0.7212 -0.2020 -0.0001
Os1A Os 0.65068(7) 0.15897(4) 0.26472(3)
Na1_2 Na 1.0000 0.0000 0.0000
C1A C 0.6817(17) -0.0761(10) -0.3773(8)
H1A H 0.7689 -0.0319 -0.3217
C2A C 0.7554(18) -0.0718(11) -0.4586(8)
H2A H 0.8927 -0.0255 -0.4565
C3A C 0.6347(19) -0.1323(11) -0.5394(8)
H3A H 0.6866 -0.1286 -0.5934
C4A C 0.4268(18) -0.2019(10) -0.5419(7)
C5A C 0.288(2) -0.2665(11) -0.6218(8)
H4A H 0.3321 -0.2681 -0.6779
C6A C 0.089(2) -0.3272(11) -0.6191(8)
H5A H -0.0052 -0.3664 -0.6734
C7A C 0.0216(18) -0.3323(10) -0.5351(7)
C8A C -0.1801(18) -0.3965(10) -0.5280(8)
H6A H -0.2796 -0.4408 -0.5801
C9A C -0.2262(18) -0.3931(11) -0.4462(8)
H7A H -0.3592 -0.4380 -0.4408
C10A C -0.0840(17) -0.3252(10) -0.3679(8)
H8A H -0.1228 -0.3242 -0.3109
C11A C 0.1554(17) -0.2664(10) -0.4557(7)
C12A C 0.3641(17) -0.2013(10) -0.4581(7)
C13A C 0.5590(17) 0.3350(11) 0.2687(7)
C14A C 0.2049(16) -0.1833(10) -0.1634(7)
C15A C 0.7425(16) -0.0182(10) 0.2552(7)
C16A C 0.4025(19) 0.0619(11) 0.1744(7)
N1A N 0.4862(15) -0.1432(8) -0.3782(6)
N2A N 0.1039(14) -0.2624(8) -0.3729(6)
N3A N 0.5149(15) 0.4349(9) 0.2688(7)
N4A N -0.1344(15) 0.1970(9) 0.1005(6)
N4A_2 N 0.8656(15) 0.1970(9) 0.1005(6)
N5A N 0.7905(16) -0.1207(9) 0.2481(7)
N6A N -0.2607(15) -0.0049(9) -0.1191(6)
N6A_2 N 0.7393(15) -0.0049(9) -0.1191(6)
O1A O -0.2930(12) -0.1357(7) 0.0416(5)
O1A_2 O 0.7070(12) -0.1357(7) 0.0416(5)
H9_2 H -0.2752 -0.1378 0.1022
H9A H 0.2752 0.1378 -0.1022
H10_2 H -0.2788 -0.2020 -0.0001
H10A H 0.2788 0.2020 0.0001
Na3 Na -0.2017(7) 0.4355(4) 0.9100(3)
O2 O -0.2455(12) 0.6481(7) 0.9065(5)
H11 H -0.3807 0.6504 0.8799
H12 H -0.1386 0.7008 0.9016
O3 O 0.1772(13) 0.5410(7) 0.9357(5)
H13 H 0.2352 0.5056 0.8992
H14 H 0.2084 0.6260 0.9523
O4 O -0.5592(13) 0.3875(7) 0.8358(5)
H15 H -0.5527 0.4395 0.7962
H16 H -0.6056 0.3125 0.8038
O5 O -0.1184(13) 0.2394(8) 0.8353(6)
H17 H -0.1598 0.1716 0.8576
H18 H -0.0172 0.2241 0.8250
Na3A Na 0.2017(7) 0.5645(4) 1.0900(3)
O2A O 0.2455(12) 0.3519(7) 1.0935(5)
H11A H 0.3807 0.3496 1.1201
H12A H 0.1386 0.2992 1.0984
O3A O -0.1772(13) 0.4590(7) 1.0643(5)
H13A H -0.2352 0.4944 1.1008
H14A H -0.2084 0.3740 1.0477
O4A O 0.5592(13) 0.6125(7) 1.1642(5)
H15A H 0.5527 0.5605 1.2038
H16A H 0.6056 0.6875 1.1962
O5A O 0.1184(13) 0.7606(8) 1.1647(6)
H17A H 0.1598 0.8284 1.1424
H18A H 0.0172 0.7759 1.1750
loop_
_geom_bond_atom_site_label_1
_geom_bond_atom_site_label_2
_geom_bond_site_symmetry_1
_geom_bond_site_symmetry_2
Os1 C13 1_555 1_555
Na1 N4 1_555 1_555
Na2 C14 1_555 1_555
Na3 O2 1_555 1_555
C1 H1 1_555 1_555
C2 C1 1_555 1_555
H2 C2 1_555 1_555
C3 C2 1_555 1_555
H3 C3 1_555 1_555
C4 C3 1_555 1_555
C5 C4 1_555 1_555
H4 C5 1_555 1_555
C6 C5 1_555 1_555
H5 C6 1_555 1_555
C7 C6 1_555 1_555
C8 C7 1_555 1_555
H6 C8 1_555 1_555
C9 C8 1_555 1_555
H7 C9 1_555 1_555
C10 C9 1_555 1_555
H8 C10 1_555 1_555
C11 C7 1_555 1_555
C12 C4 1_555 1_555
C13 N3 1_555 1_555
C14 Os1A 1_555 1_555
C15 Os1 1_555 1_555
C16 Os1 1_555 1_555
N1 C1 1_555 1_555
N2 C10 1_555 1_555
N4 Na2 1_555 1_555
N5 C15 1_555 1_555
N6 Na1 1_555 1_555
O1 Na1 1_555 1_555
H9 O1A_2 1_555 1_555
H10 O1A_2 1_555 1_555
O2 H11 1_555 1_555
H12 O2 1_555 1_555
O3 Na3 1_555 1_555
H13 O3 1_555 1_555
H14 O3 1_555 1_555
O4 Na3 1_555 1_555
H15 O4 1_555 1_555
H16 O4 1_555 1_555
O5 Na3 1_555 1_555
H17 O5 1_555 1_555
H18 O5 1_555 1_555
Os1A N1 1_555 1_555
Na1_2 N4A_2 1_555 1_555
Na3A O3 1_555 1_555
C1A H1A 1_555 1_555
C2A C1A 1_555 1_555
H2A C2A 1_555 1_555
C3A C2A 1_555 1_555
H3A C3A 1_555 1_555
C4A C3A 1_555 1_555
C5A C4A 1_555 1_555
H4A C5A 1_555 1_555
C6A C5A 1_555 1_555
H5A C6A 1_555 1_555
C7A C6A 1_555 1_555
C8A C7A 1_555 1_555
H6A C8A 1_555 1_555
C9A C8A 1_555 1_555
H7A C9A 1_555 1_555
C10A C9A 1_555 1_555
H8A C10A 1_555 1_555
C11A C7A 1_555 1_555
C12A C4A 1_555 1_555
C13A Os1A 1_555 1_555
C14A Os1 1_555 1_555
C15A Os1A 1_555 1_555
C16A Na2 1_555 1_555
N1A Os1 1_555 1_555
N2A Os1 1_555 1_555
N3A C13A 1_555 1_555
N4A Na1 1_555 1_555
N4A_2 Na2 1_555 1_555
N5A C15A 1_555 1_555
N6A Na1 1_555 1_555
N6A_2 Na2 1_555 1_555
O1A Na1 1_555 1_555
O1A_2 Na2 1_555 1_555
H9_2 O1A 1_555 1_555
H9A O1 1_555 1_555
H10_2 O1A 1_555 1_555
H10A O1 1_555 1_555
O2A Na3A 1_555 1_555
H11A O2A 1_555 1_555
H12A O2A 1_555 1_555
O3A Na3 1_555 1_555
H13A O3A 1_555 1_555
H14A O3A 1_555 1_555
O4A Na3A 1_555 1_555
H15A O4A 1_555 1_555
H16A O4A 1_555 1_555
O5A Na3A 1_555 1_555
H17A O5A 1_555 1_555
H18A O5A 1_555 1_555
Na2 C16 1_555 1_555
Na2 N6 1_555 1_555
Na2 O1 1_555 1_555
Na2 C14A 1_555 1_555
C11 C12 1_555 1_555
C11 N2 1_555 1_555
C12 N1 1_555 1_555
C14 N4A_2 1_555 1_555
C16 N6A_2 1_555 1_555
N2 Os1A 1_555 1_555
N4 C14A 1_555 1_555
N6 C16A 1_555 1_555
Os1A C16A 1_555 1_555
Na1_2 N6A_2 1_555 1_555
Na1_2 O1A_2 1_555 1_555
Na3A O3A 1_555 1_555
C1A N1A 1_555 1_555
C10A N2A 1_555 1_555
C11A C12A 1_555 1_555
C11A N2A 1_555 1_555
C12A N1A 1_555 1_555

#END
