
#######################################################################
#
#                 Cambridge Crystallographic Data Centre
#                                CCDC 
#
#######################################################################
#
# If this CIF has been generated from an entry in the Cambridge 
# Structural Database, then it will include bibliographic, chemical, 
# crystal, experimental, refinement or atomic coordinate data resulting 
# from the CCDC's data processing and validation procedures.
#
#######################################################################

data_QITCIF
_symmetry_cell_setting           monoclinic
_symmetry_space_group_name_H-M   'C 2'
_symmetry_Int_Tables_number      5
_space_group_name_Hall           'C 2y'
loop_
_symmetry_equiv_pos_site_id
_symmetry_equiv_pos_as_xyz
1 x,y,z
2 -x,y,-z
3 1/2+x,1/2+y,z
4 1/2-x,1/2+y,-z
_cell_length_a                   25.0633(12)
_cell_length_b                   11.8768(7)
_cell_length_c                   17.1205(9)
_cell_angle_alpha                90
_cell_angle_beta                 117.954(3)
_cell_angle_gamma                90
_cell_volume                     4501.68
loop_
_atom_site_label
_atom_site_type_symbol
_atom_site_fract_x
_atom_site_fract_y
_atom_site_fract_z
Zn1 Zn 0.0000 0.4006(1) 0.5000
Zn2 Zn 0.0000 -0.2035(1) 1.0000
F1 F -0.0274(2) 0.7824(3) 0.5900(4)
F2 F -0.0264(1) 0.7117(3) 0.7042(2)
F3 F -0.0979(1) 0.6737(3) 0.5793(2)
F4 F 0.1893(1) -0.0767(3) 1.0500(2)
F5 F 0.1556(1) -0.1687(2) 0.9308(2)
F6 F 0.2265(1) -0.2395(3) 1.0465(2)
O1 O -0.0361(1) 0.5265(2) 0.5466(2)
O2 O 0.0778(1) 0.4017(2) 0.6202(1)
O3 O 0.0747(1) -0.1981(2) 0.9824(1)
O4 O 0.0416(1) -0.3330(2) 1.0941(2)
O5 O -0.1815(1) 0.1797(2) 0.6633(2)
N1 N -0.0437(1) 0.2809(3) 0.5462(2)
N2 N -0.0406(1) -0.0824(3) 0.8912(2)
N3 N -0.2696(1) -0.1572(3) 0.4652(2)
C1 C -0.0044(2) 0.5886(3) 0.6125(3)
C2 C 0.0562(2) 0.5764(3) 0.6728(3)
C3 C 0.0918(2) 0.4840(3) 0.6710(2)
C4 C -0.0386(2) 0.6890(4) 0.6210(3)
C5 C 0.1547(2) 0.4991(4) 0.7488(2)
C6 C 0.1444(2) 0.4723(4) 0.8301(3)
C7 C 0.1080(2) 0.5735(5) 0.8357(3)
C8 C 0.0983(2) 0.6448(4) 0.7546(3)
C9 C 0.1595(2) 0.6300(4) 0.7525(3)
C10 C 0.1588(2) 0.6814(5) 0.6696(3)
C11 C 0.2144(2) 0.6742(5) 0.8350(3)
C12 C 0.2027(2) 0.4304(4) 0.7416(3)
C13 C 0.1271(2) -0.2343(3) 1.0372(2)
C14 C 0.1412(2) -0.3051(4) 1.1066(2)
C15 C 0.0969(2) -0.3537(3) 1.1278(2)
C16 C 0.1751(2) -0.1839(4) 1.0162(2)
C17 C 0.1294(2) -0.4343(4) 1.2055(3)
C18 C 0.1634(2) -0.3493(5) 1.2840(3)
C19 C 0.2129(2) -0.2987(5) 1.2650(3)
C20 C 0.2009(2) -0.3542(4) 1.1768(3)
C21 C 0.1813(2) -0.4751(5) 1.1870(4)
C22 C 0.1593(3) -0.5444(5) 1.1038(5)
C23 C 0.2314(3) -0.5401(6) 1.2660(5)
C24 C 0.0899(2) -0.5170(5) 1.2196(4)
C25 C -0.0285(2) 0.2776(4) 0.6326(2)
C26 C -0.0604(2) 0.2167(4) 0.6654(2)
C27 C -0.1101(1) 0.1539(3) 0.6093(2)
C28 C -0.1263(2) 0.1584(3) 0.5198(2)
C29 C -0.0925(2) 0.2215(3) 0.4918(2)
C30 C -0.1483(1) 0.0961(3) 0.6457(2)
C31 C -0.1085(1) 0.0364(3) 0.7333(2)
C32 C -0.0589(2) -0.0292(3) 0.7466(2)
C33 C -0.0266(1) -0.0863(3) 0.8250(2)
C34 C -0.0874(2) -0.0164(3) 0.8796(2)
C35 C -0.1222(2) 0.0420(3) 0.8029(2)
C36 C -0.1913(1) 0.0068(3) 0.5808(2)
C37 C -0.1698(2) -0.0811(3) 0.5497(2)
C38 C -0.2102(2) -0.1585(3) 0.4922(2)
C39 C -0.2895(2) -0.0740(3) 0.4957(3)
C40 C -0.2529(2) 0.0103(3) 0.5524(2)
H1 H -0.1820(20) 0.2300(40) 0.6330(30)
H2 H 0.1214 0.4014 0.8208
H3 H 0.1834 0.4654 0.8847
H4 H 0.1311 0.6159 0.8914
H5 H 0.0690 0.5492 0.8316
H6 H 0.0857 0.7245 0.7553
H7 H 0.1621 0.7635 0.6757
H8 H 0.1209 0.6614 0.6174
H9 H 0.1930 0.6519 0.6630
H10 H 0.2148 0.7567 0.8333
H11 H 0.2514 0.6448 0.8366
H12 H 0.2121 0.6494 0.8879
H13 H 0.2418 0.4442 0.7934
H14 H 0.2049 0.4520 0.6879
H15 H 0.1926 0.3502 0.7387
H16 H 0.1356 -0.2900 1.2842
H17 H 0.1814 -0.3887 1.3416
H18 H 0.2090 -0.2158 1.2590
H19 H 0.2537 -0.3177 1.3126
H20 H 0.2352 -0.3501 1.1624
H21 H 0.1477 -0.6194 1.1140
H22 H 0.1921 -0.5515 1.0877
H23 H 0.1247 -0.5073 1.0558
H24 H 0.2451 -0.4951 1.3200
H25 H 0.2655 -0.5540 1.2542
H26 H 0.2153 -0.6120 1.2736
H27 H 0.1147 -0.5649 1.2704
H28 H 0.0690 -0.5639 1.1666
H29 H 0.0601 -0.4766 1.2309
H30 H 0.0057 0.3192 0.6729
H31 H -0.0481 0.2178 0.7270
H32 H -0.1606 0.1179 0.4781
H33 H -0.1045 0.2231 0.4304
H34 H -0.0473 -0.0346 0.7013
H35 H 0.0071 -0.1303 0.8323
H36 H -0.0968 -0.0097 0.9270
H37 H -0.1553 0.0859 0.7976
H38 H -0.1279 -0.0878 0.5678
H39 H -0.1947 -0.2166 0.4704
H40 H -0.3315 -0.0713 0.4779
H41 H -0.2700 0.0690 0.5713
O1A O 0.0361(1) 0.5265(2) 0.4534(2)
C1A C 0.0044(2) 0.5886(3) 0.3875(3)
C2A C -0.0562(2) 0.5764(3) 0.3272(3)
C3A C -0.0918(2) 0.4840(3) 0.3290(2)
O2A O -0.0778(1) 0.4017(2) 0.3798(1)
O3A O -0.0747(1) -0.1981(2) 1.0176(1)
C13A C -0.1271(2) -0.2343(3) 0.9628(2)
C14A C -0.1412(2) -0.3051(4) 0.8934(2)
C15A C -0.0969(2) -0.3537(3) 0.8722(2)
O4A O -0.0416(1) -0.3330(2) 0.9059(2)
N2A N 0.0406(1) -0.0824(3) 1.1088(2)
C17A C -0.1294(2) -0.4343(4) 0.7945(3)
C18A C -0.1634(2) -0.3493(5) 0.7160(3)
C19A C -0.2129(2) -0.2987(5) 0.7350(3)
C20A C -0.2009(2) -0.3542(4) 0.8232(3)
C21A C -0.1813(2) -0.4751(5) 0.8130(4)
C24A C -0.0899(2) -0.5170(5) 0.7804(4)
H27A H -0.1147 -0.5649 0.7296
H28A H -0.0690 -0.5639 0.8334
H29A H -0.0601 -0.4766 0.7691
C22A C -0.1593(3) -0.5444(5) 0.8962(5)
H21A H -0.1477 -0.6194 0.8860
H22A H -0.1921 -0.5515 0.9123
H23A H -0.1247 -0.5073 0.9442
C23A C -0.2314(3) -0.5401(6) 0.7340(5)
H24A H -0.2451 -0.4951 0.6800
H25A H -0.2655 -0.5540 0.7458
H26A H -0.2153 -0.6120 0.7264
H20A H -0.2352 -0.3501 0.8376
H18A H -0.2090 -0.2158 0.7410
H19A H -0.2537 -0.3177 0.6874
H16A H -0.1356 -0.2900 0.7158
H17A H -0.1814 -0.3887 0.6584
C16A C -0.1751(2) -0.1839(4) 0.9838(2)
F4A F -0.1893(1) -0.0767(3) 0.9500(2)
F5A F -0.1556(1) -0.1687(2) 1.0692(2)
F6A F -0.2265(1) -0.2395(3) 0.9535(2)
N1A N 0.0437(1) 0.2809(3) 0.4538(2)
C5A C -0.1547(2) 0.4991(4) 0.2512(2)
C6A C -0.1444(2) 0.4723(4) 0.1699(3)
C7A C -0.1080(2) 0.5735(5) 0.1643(3)
C8A C -0.0983(2) 0.6448(4) 0.2454(3)
C9A C -0.1595(2) 0.6300(4) 0.2475(3)
C12A C -0.2027(2) 0.4304(4) 0.2584(3)
H13A H -0.2418 0.4442 0.2066
H14A H -0.2049 0.4520 0.3121
H15A H -0.1926 0.3502 0.2613
C10A C -0.1588(2) 0.6814(5) 0.3304(3)
H7A H -0.1621 0.7635 0.3243
H8A H -0.1209 0.6614 0.3826
H9A H -0.1930 0.6519 0.3370
C11A C -0.2144(2) 0.6742(5) 0.1650(3)
H10A H -0.2148 0.7567 0.1667
H11A H -0.2514 0.6448 0.1634
H12A H -0.2121 0.6494 0.1121
H6A H -0.0857 0.7245 0.2447
H4A H -0.1311 0.6159 0.1086
H5A H -0.0690 0.5492 0.1684
H2A H -0.1214 0.4014 0.1792
H3A H -0.1834 0.4654 0.1153
C4A C 0.0386(2) 0.6890(4) 0.3790(3)
F1A F 0.0274(2) 0.7824(3) 0.4100(4)
F2A F 0.0264(1) 0.7117(3) 0.2958(2)
F3A F 0.0979(1) 0.6737(3) 0.4207(2)
C25A C 0.0285(2) 0.2776(4) 0.3674(2)
C29A C 0.0925(2) 0.2215(3) 0.5082(2)
C26A C 0.0604(2) 0.2167(4) 0.3346(2)
H30A H -0.0057 0.3192 0.3271
C28A C 0.1263(2) 0.1584(3) 0.4802(2)
H33A H 0.1045 0.2231 0.5696
C27A C 0.1101(1) 0.1539(3) 0.3907(2)
H31A H 0.0481 0.2178 0.2730
H32A H 0.1606 0.1179 0.5219
C30A C 0.1483(1) 0.0961(3) 0.3543(2)
O5A O 0.1815(1) 0.1797(2) 0.3367(2)
C31A C 0.1085(1) 0.0364(3) 0.2667(2)
C36A C 0.1913(1) 0.0068(3) 0.4192(2)
H1A H 0.1820(20) 0.2300(40) 0.3670(30)
C32A C 0.0589(2) -0.0292(3) 0.2534(2)
C35A C 0.1222(2) 0.0420(3) 0.1971(2)
C37A C 0.1698(2) -0.0811(3) 0.4503(2)
C40A C 0.2529(2) 0.0103(3) 0.4476(2)
C33A C 0.0266(1) -0.0863(3) 0.1750(2)
H34A H 0.0473 -0.0346 0.2987
C34A C 0.0874(2) -0.0164(3) 0.1204(2)
H37A H 0.1553 0.0859 0.2024
C38A C 0.2102(2) -0.1585(3) 0.5078(2)
H38A H 0.1279 -0.0878 0.4322
C39A C 0.2895(2) -0.0740(3) 0.5043(3)
H41A H 0.2700 0.0690 0.4287
N2A_2 N 0.0406(1) -0.0824(3) 0.1088(2)
H35A H -0.0071 -0.1303 0.1677
H36A H 0.0968 -0.0097 0.0730
N3A N 0.2696(1) -0.1572(3) 0.5348(2)
H39A H 0.1947 -0.2166 0.5296
H40A H 0.3315 -0.0713 0.5221
Zn2_2 Zn 0.0000 -0.2035(1) 0.0000
O6 O 0.0814(3) 0.1609(7) 0.8357(5)
C41 C 0.0467(6) 0.2320(14) 0.9320(7)
C42 C 0.0946(6) 0.1768(13) 0.9234(7)
C43 C 0.1217(6) 0.0980(15) 0.8170(15)
C44 C 0.1028(9) 0.0770(20) 0.7228(14)
H42 H 0.0582 0.2412 0.9948
H43 H 0.0099 0.1864 0.9034
H44 H 0.0393 0.3061 0.9037
H45 H 0.1318 0.2225 0.9535
H46 H 0.1025 0.1028 0.9533
H47 H 0.1283 0.0242 0.8471
H48 H 0.1610 0.1377 0.8431
H49 H 0.1348 0.0367 0.7171
H50 H 0.0954 0.1496 0.6917
H51 H 0.0657 0.0324 0.6971
loop_
_geom_bond_atom_site_label_1
_geom_bond_atom_site_label_2
_geom_bond_site_symmetry_1
_geom_bond_site_symmetry_2
Zn1 O1 1_555 1_555
Zn2 O3 1_555 1_555
F1 C4 1_555 1_555
F2 C4 1_555 1_555
F3 C4 1_555 1_555
F4 C16 1_555 1_555
F5 C16 1_555 1_555
F6 C16 1_555 1_555
O1 C1 1_555 1_555
O2 Zn1 1_555 1_555
O3 C13 1_555 1_555
O4 Zn2 1_555 1_555
O5 C30 1_555 1_555
N1 Zn1 1_555 1_555
N2 Zn2 1_555 1_555
N3 C38 1_555 1_555
C1 C2 1_555 1_555
C2 C3 1_555 1_555
C3 O2 1_555 1_555
C4 C1 1_555 1_555
C5 C3 1_555 1_555
C6 C5 1_555 1_555
C7 C6 1_555 1_555
C8 C2 1_555 1_555
C9 C5 1_555 1_555
C10 C9 1_555 1_555
C11 C9 1_555 1_555
C12 C5 1_555 1_555
C13 C14 1_555 1_555
C14 C15 1_555 1_555
C15 O4 1_555 1_555
C16 C13 1_555 1_555
C17 C15 1_555 1_555
C18 C17 1_555 1_555
C19 C18 1_555 1_555
C20 C14 1_555 1_555
C21 C17 1_555 1_555
C22 C21 1_555 1_555
C23 C21 1_555 1_555
C24 C17 1_555 1_555
C25 N1 1_555 1_555
C26 C25 1_555 1_555
C27 C26 1_555 1_555
C28 C27 1_555 1_555
C29 N1 1_555 1_555
C30 C27 1_555 1_555
C31 C30 1_555 1_555
C32 C31 1_555 1_555
C33 N2 1_555 1_555
C34 N2 1_555 1_555
C35 C31 1_555 1_555
C36 C30 1_555 1_555
C37 C36 1_555 1_555
C38 C37 1_555 1_555
C39 N3 1_555 1_555
C40 C36 1_555 1_555
O6 C42 1_555 1_555
C41 C42 1_555 1_555
C42 H45 1_555 1_555
C43 O6 1_555 1_555
C44 C43 1_555 1_555
H1 O5 1_555 1_555
H2 C6 1_555 1_555
H3 C6 1_555 1_555
H4 C7 1_555 1_555
H5 C7 1_555 1_555
H6 C8 1_555 1_555
H7 C10 1_555 1_555
H8 C10 1_555 1_555
H9 C10 1_555 1_555
H10 C11 1_555 1_555
H11 C11 1_555 1_555
H12 C11 1_555 1_555
H13 C12 1_555 1_555
H14 C12 1_555 1_555
H15 C12 1_555 1_555
H16 C18 1_555 1_555
H17 C18 1_555 1_555
H18 C19 1_555 1_555
H19 C19 1_555 1_555
H20 C20 1_555 1_555
H21 C22 1_555 1_555
H22 C22 1_555 1_555
H23 C22 1_555 1_555
H24 C23 1_555 1_555
H25 C23 1_555 1_555
H26 C23 1_555 1_555
H27 C24 1_555 1_555
H28 C24 1_555 1_555
H29 C24 1_555 1_555
H30 C25 1_555 1_555
H31 C26 1_555 1_555
H32 C28 1_555 1_555
H33 C29 1_555 1_555
H34 C32 1_555 1_555
H35 C33 1_555 1_555
H36 C34 1_555 1_555
H37 C35 1_555 1_555
H38 C37 1_555 1_555
H39 C38 1_555 1_555
H40 C39 1_555 1_555
H41 C40 1_555 1_555
H42 C41 1_555 1_555
H43 C41 1_555 1_555
H44 C41 1_555 1_555
H46 C42 1_555 1_555
H47 C43 1_555 1_555
H48 C43 1_555 1_555
H49 C44 1_555 1_555
H50 C44 1_555 1_555
H51 C44 1_555 1_555
O1A Zn1 1_555 1_555
C1A O1A 1_555 1_555
C2A C1A 1_555 1_555
C3A C2A 1_555 1_555
O2A Zn1 1_555 1_555
O3A Zn2 1_555 1_555
C13A O3A 1_555 1_555
C14A C13A 1_555 1_555
C15A C14A 1_555 1_555
O4A Zn2 1_555 1_555
N2A Zn2 1_555 1_555
C17A C15A 1_555 1_555
C18A C17A 1_555 1_555
C19A C18A 1_555 1_555
C20A C14A 1_555 1_555
C21A C17A 1_555 1_555
C24A C17A 1_555 1_555
H27A C24A 1_555 1_555
H28A C24A 1_555 1_555
H29A C24A 1_555 1_555
C22A C21A 1_555 1_555
H21A C22A 1_555 1_555
H22A C22A 1_555 1_555
H23A C22A 1_555 1_555
C23A C21A 1_555 1_555
H24A C23A 1_555 1_555
H25A C23A 1_555 1_555
H26A C23A 1_555 1_555
H20A C20A 1_555 1_555
H18A C19A 1_555 1_555
H19A C19A 1_555 1_555
H16A C18A 1_555 1_555
H17A C18A 1_555 1_555
C16A C13A 1_555 1_555
F4A C16A 1_555 1_555
F5A C16A 1_555 1_555
F6A C16A 1_555 1_555
N1A Zn1 1_555 1_555
C5A C3A 1_555 1_555
C6A C5A 1_555 1_555
C7A C6A 1_555 1_555
C8A C2A 1_555 1_555
C9A C5A 1_555 1_555
C12A C5A 1_555 1_555
H13A C12A 1_555 1_555
H14A C12A 1_555 1_555
H15A C12A 1_555 1_555
C10A C9A 1_555 1_555
H7A C10A 1_555 1_555
H8A C10A 1_555 1_555
H9A C10A 1_555 1_555
C11A C9A 1_555 1_555
H10A C11A 1_555 1_555
H11A C11A 1_555 1_555
H12A C11A 1_555 1_555
H6A C8A 1_555 1_555
H4A C7A 1_555 1_555
H5A C7A 1_555 1_555
H2A C6A 1_555 1_555
H3A C6A 1_555 1_555
C4A C1A 1_555 1_555
F1A C4A 1_555 1_555
F2A C4A 1_555 1_555
F3A C4A 1_555 1_555
C25A N1A 1_555 1_555
C29A N1A 1_555 1_555
C26A C25A 1_555 1_555
H30A C25A 1_555 1_555
C28A C29A 1_555 1_555
H33A C29A 1_555 1_555
C27A C26A 1_555 1_555
H31A C26A 1_555 1_555
H32A C28A 1_555 1_555
C30A C27A 1_555 1_555
O5A C30A 1_555 1_555
C31A C30A 1_555 1_555
C36A C30A 1_555 1_555
H1A O5A 1_555 1_555
C32A C31A 1_555 1_555
C35A C31A 1_555 1_555
C37A C36A 1_555 1_555
C40A C36A 1_555 1_555
C33A C32A 1_555 1_555
H34A C32A 1_555 1_555
C34A C35A 1_555 1_555
H37A C35A 1_555 1_555
C38A C37A 1_555 1_555
H38A C37A 1_555 1_555
C39A C40A 1_555 1_555
H41A C40A 1_555 1_555
N2A_2 C33A 1_555 1_555
H35A C33A 1_555 1_555
H36A C34A 1_555 1_555
N3A C38A 1_555 1_555
H39A C38A 1_555 1_555
H40A C39A 1_555 1_555
Zn2_2 N2A_2 1_555 1_555
C7 C8 1_555 1_555
C8 C9 1_555 1_555
C19 C20 1_555 1_555
C20 C21 1_555 1_555
C28 C29 1_555 1_555
C32 C33 1_555 1_555
C34 C35 1_555 1_555
C39 C40 1_555 1_555
C3A O2A 1_555 1_555
C15A O4A 1_555 1_555
C19A C20A 1_555 1_555
C20A C21A 1_555 1_555
C7A C8A 1_555 1_555
C8A C9A 1_555 1_555
C28A C27A 1_555 1_555
C34A N2A_2 1_555 1_555
C39A N3A 1_555 1_555

#END
