
#######################################################################
#
#                 Cambridge Crystallographic Data Centre
#                                CCDC 
#
#######################################################################
#
# If this CIF has been generated from an entry in the Cambridge 
# Structural Database, then it will include bibliographic, chemical, 
# crystal, experimental, refinement or atomic coordinate data resulting 
# from the CCDC's data processing and validation procedures.
#
#######################################################################

data_QITDII
_symmetry_cell_setting           monoclinic
_symmetry_space_group_name_H-M   'P 21/c'
_symmetry_Int_Tables_number      14
_space_group_name_Hall           '-P 2ybc'
loop_
_symmetry_equiv_pos_site_id
_symmetry_equiv_pos_as_xyz
1 x,y,z
2 -x,1/2+y,1/2-z
3 -x,-y,-z
4 x,1/2-y,1/2+z
_cell_length_a                   16.1369(3)
_cell_length_b                   12.8809(3)
_cell_length_c                   22.4044(4)
_cell_angle_alpha                90
_cell_angle_beta                 106.294(2)
_cell_angle_gamma                90
_cell_volume                     4469.88
loop_
_atom_site_label
_atom_site_type_symbol
_atom_site_fract_x
_atom_site_fract_y
_atom_site_fract_z
Mn1 Mn 0.80005(2) 0.85022(3) 0.359096(14)
Mn2 Mn 0.57817(2) 0.93468(3) 0.286636(15)
C1 C 0.78042(16) 0.78621(19) 0.48724(10)
C2 C 0.83244(15) 0.78363(18) 0.55470(10)
C3 C 0.79464(15) 0.77978(19) 0.60343(10)
H1 H 0.7349 0.7766 0.5954
C4 C 0.84714(15) 0.78083(19) 0.66373(10)
H2 H 0.8235 0.7792 0.6971
C5 C 0.93562(15) 0.78429(19) 0.67353(10)
N1 N 0.97391(12) 0.78765(17) 0.62794(8)
C6 C 1.25390(15) 0.37023(19) 0.70403(10)
C7 C 1.21800(14) 0.47257(18) 0.71702(9)
C8 C 1.12962(15) 0.48663(19) 0.70462(10)
H3 H 1.0924 0.4314 0.6900
C9 C 1.09686(15) 0.5814(2) 0.71384(10)
H4 H 1.0376 0.5917 0.7053
C10 C 1.15431(14) 0.66137(18) 0.73611(9)
C11 C 1.26963(15) 0.5577(2) 0.73809(10)
H5 H 1.3290 0.5497 0.7458
C12 C 0.72662(16) 1.0718(2) 0.37241(10)
C13 C 0.75334(15) 1.18157(18) 0.39140(10)
C14 C 0.83929(15) 1.2101(2) 0.40960(10)
H6 H 0.8820 1.1607 0.4117
C15 C 0.86152(16) 1.3119(2) 0.42456(11)
H7 H 0.9190 1.3328 0.4352
C16 C 0.79687(16) 1.38215(19) 0.42339(9)
N2 N 0.71299(13) 1.35725(16) 0.40647(9)
C17 C 0.72739(15) 1.55451(19) 0.72464(10)
C18 C 0.76389(14) 1.52965(18) 0.67134(10)
C19 C 0.71411(15) 1.5096(2) 0.61169(10)
H8 H 0.6545 1.5030 0.6032
C20 C 0.75350(15) 1.4995(2) 0.56455(10)
H9 H 0.7212 1.4859 0.5239
C21 C 0.84150(15) 1.51004(19) 0.57946(10)
N3 N 0.89219(12) 1.52238(16) 0.63711(8)
C22 C 0.99016(15) 0.7759(2) 0.40289(10)
H10 H 0.9622 0.7179 0.4126
C23 C 1.07841(15) 0.7734(2) 0.41596(10)
H11 H 1.1085 0.7144 0.4339
C24 C 1.12263(15) 0.8577(2) 0.40268(10)
C25 C 1.07308(15) 0.9406(2) 0.37463(11)
H12 H 1.0995 0.9987 0.3635
C26 C 0.98481(15) 0.9382(2) 0.36294(11)
H13 H 0.9532 0.9958 0.3444
C27 C 1.22005(15) 0.8595(2) 0.42005(12)
H14 H 1.2387 0.8612 0.3825
H15 H 1.2425 0.7965 0.4425
C28 C 1.25658(14) 0.9528(2) 0.45997(11)
H16 H 1.2279 0.9588 0.4925
H17 H 1.2430 1.0147 0.4345
C29 C 1.35373(14) 0.9492(2) 0.49001(10)
H18 H 1.3708 1.0099 0.5163
H19 H 1.3676 0.8882 0.5163
C30 C 1.40451(14) 0.9463(2) 0.44289(10)
C31 C 1.43552(15) 0.8549(2) 0.42618(11)
H20 H 1.4269 0.7931 0.4450
C32 C 1.47961(15) 0.8546(2) 0.38134(11)
H21 H 1.4997 0.7916 0.3707
C33 C 1.46523(15) 1.0287(2) 0.36975(11)
H22 H 1.4756 1.0898 0.3509
C34 C 1.42034(15) 1.0351(2) 0.41360(11)
H23 H 1.4008 1.0990 0.4234
N4 N 0.94244(11) 0.85718(16) 0.37702(8)
N5 N 1.49465(12) 0.94015(17) 0.35279(8)
C35 C 0.92115(15) 0.7879(2) 0.57006(10)
H24 H 0.9464 0.7913 0.5376
N6 N 1.23996(12) 0.65155(15) 0.74821(8)
C36 C 0.69293(16) 1.2581(2) 0.38980(11)
H25 H 0.6348 1.2401 0.3764
C37 C 0.85234(15) 1.53256(19) 0.68151(10)
H26 H 0.8865 1.5423 0.7221
S1 S 1.00087(4) 0.77986(6) 0.75221(3)
S2 S 1.12468(4) 0.79048(5) 0.74895(3)
S3 S 0.81891(5) 1.51657(5) 0.44070(3)
S4 S 0.90559(4) 1.51093(5) 0.52614(3)
O1 O 0.70009(10) 0.79141(15) 0.47379(7)
O2 O 0.82376(10) 0.78344(14) 0.44863(7)
O3 O 0.77978(11) 1.00190(13) 0.39438(7)
O4 O 0.65214(10) 1.05990(13) 0.33610(7)
O5 O 1.20144(10) 0.29716(13) 0.68840(7)
O6 O 1.33326(10) 0.36377(13) 0.70911(8)
O7 O 0.78116(11) 1.56900(16) 0.77523(7)
O8 O 0.64759(11) 1.56080(16) 0.71501(7)
O9 O 0.65753(9) 0.81455(12) 0.34887(6)
H27 H 0.6522 0.8111 0.3855
H28 H 0.6520 0.7545 0.3325
O10 O 0.48599(10) 1.03541(15) 0.22225(7)
H29 H 0.4394 1.0660 0.2225
H30 H 0.4891 1.0298 0.1851
O11 O 0.50834(12) 0.80031(16) 0.23687(8)
H31 H 0.5366 0.7614 0.2190
H32 H 0.4713 0.7648 0.2486
Mn1B Mn 1.19995(2) 0.14978(3) 0.640904(14)
Mn1C Mn 0.80005(2) 1.64978(3) 0.859096(14)
Mn2_2 Mn 1.57817(2) 0.93468(3) 0.286636(15)
Mn2C Mn 0.57817(2) 1.56532(3) 0.786636(15)
N5_2 N 0.49465(12) 0.94015(17) 0.35279(8)
O5B O 0.79856(10) 0.70284(13) 0.31160(7)
O7C O 0.78116(11) 0.93100(16) 0.27523(7)
O8C O 0.64759(11) 0.93920(16) 0.21501(7)
O12 O 0.61910(12) 0.20770(16) 0.22762(9)
H33 H 0.6641 0.2424 0.2283
H34 H 0.6332 0.1519 0.2482
O13 O 0.57398(16) 0.6512(2) 0.49032(11)
H35 H 0.5867 0.6301 0.4580
H36 H 0.5874 0.7147 0.4972
O14 O 0.43483(15) 0.5143(2) 0.59426(11)
H37 H 0.4534 0.5622 0.5753
H38 H 0.3866 0.5422 0.5930
O15 O 0.54261(18) 0.6878(2) 0.61112(13)
H39 H 0.5515 0.6777 0.5760
H40 H 0.5828 0.7083 0.6422
loop_
_geom_bond_atom_site_label_1
_geom_bond_atom_site_label_2
_geom_bond_site_symmetry_1
_geom_bond_site_symmetry_2
Mn1 N4 1_555 1_555
Mn2 O4 1_555 1_555
C1 C2 1_555 1_555
C2 C3 1_555 1_555
C3 H1 1_555 1_555
C4 C3 1_555 1_555
H2 C4 1_555 1_555
C5 C4 1_555 1_555
N1 C5 1_555 1_555
C6 C7 1_555 1_555
C7 C8 1_555 1_555
C8 H3 1_555 1_555
C9 C8 1_555 1_555
H4 C9 1_555 1_555
C10 C9 1_555 1_555
C11 C7 1_555 1_555
H5 C11 1_555 1_555
C12 C13 1_555 1_555
C13 C14 1_555 1_555
C14 H6 1_555 1_555
C15 C14 1_555 1_555
H7 C15 1_555 1_555
C16 C15 1_555 1_555
N2 C16 1_555 1_555
C17 C18 1_555 1_555
C18 C19 1_555 1_555
C19 H8 1_555 1_555
C20 C19 1_555 1_555
H9 C20 1_555 1_555
C21 C20 1_555 1_555
N3 C21 1_555 1_555
C22 H10 1_555 1_555
C23 C22 1_555 1_555
H11 C23 1_555 1_555
C24 C23 1_555 1_555
C25 C24 1_555 1_555
H12 C25 1_555 1_555
C26 C25 1_555 1_555
H13 C26 1_555 1_555
C27 C24 1_555 1_555
H14 C27 1_555 1_555
H15 C27 1_555 1_555
C28 C27 1_555 1_555
H16 C28 1_555 1_555
H17 C28 1_555 1_555
C29 C28 1_555 1_555
H18 C29 1_555 1_555
H19 C29 1_555 1_555
C30 C29 1_555 1_555
C31 C30 1_555 1_555
H20 C31 1_555 1_555
C32 C31 1_555 1_555
H21 C32 1_555 1_555
C33 H22 1_555 1_555
C34 C30 1_555 1_555
H23 C34 1_555 1_555
N4 C22 1_555 1_555
N5 C32 1_555 1_555
C35 C2 1_555 1_555
H24 C35 1_555 1_555
N6 C10 1_555 1_555
C36 C13 1_555 1_555
H25 C36 1_555 1_555
C37 C18 1_555 1_555
H26 C37 1_555 1_555
S1 C5 1_555 1_555
S2 C10 1_555 1_555
S3 C16 1_555 1_555
S4 C21 1_555 1_555
O1 C1 1_555 1_555
O2 Mn1 1_555 1_555
O3 Mn1 1_555 1_555
O4 C12 1_555 1_555
O5 C6 1_555 1_555
O6 C6 1_555 1_555
O7 C17 1_555 1_555
O8 C17 1_555 1_555
O9 Mn1 1_555 1_555
H27 O9 1_555 1_555
H28 O9 1_555 1_555
O10 Mn2 1_555 1_555
H29 O10 1_555 1_555
H30 O10 1_555 1_555
O11 Mn2 1_555 1_555
H31 O11 1_555 1_555
H32 O11 1_555 1_555
O12 H33 1_555 1_555
H34 O12 1_555 1_555
O13 H35 1_555 1_555
H36 O13 1_555 1_555
O14 H37 1_555 1_555
H38 O14 1_555 1_555
O15 H39 1_555 1_555
H40 O15 1_555 1_555
Mn1B O5 1_555 1_555
Mn1C O7 1_555 1_555
Mn2_2 N5 1_555 1_555
Mn2C O8 1_555 1_555
N5_2 Mn2 1_555 1_555
O5B Mn1 1_555 1_555
O7C Mn1 1_555 1_555
O8C Mn2 1_555 1_555
Mn2 O9 1_555 1_555
C1 O2 1_555 1_555
N1 C35 1_555 1_555
C11 N6 1_555 1_555
C12 O3 1_555 1_555
N2 C36 1_555 1_555
N3 C37 1_555 1_555
C26 N4 1_555 1_555
C33 C34 1_555 1_555
C33 N5 1_555 1_555
S1 S2 1_555 1_555
S3 S4 1_555 1_555

#END
