
#######################################################################
#
#                 Cambridge Crystallographic Data Centre
#                                CCDC 
#
#######################################################################
#
# If this CIF has been generated from an entry in the Cambridge 
# Structural Database, then it will include bibliographic, chemical, 
# crystal, experimental, refinement or atomic coordinate data resulting 
# from the CCDC's data processing and validation procedures.
#
#######################################################################

data_QITDAA01
_symmetry_cell_setting           triclinic
_symmetry_space_group_name_H-M   'P -1'
_symmetry_Int_Tables_number      2
_space_group_name_Hall           '-P 1'
loop_
_symmetry_equiv_pos_site_id
_symmetry_equiv_pos_as_xyz
1 x,y,z
2 -x,-y,-z
_cell_length_a                   12.3094(14)
_cell_length_b                   12.7761(18)
_cell_length_c                   15.7735(17)
_cell_angle_alpha                90.441(2)
_cell_angle_beta                 98.357(3)
_cell_angle_gamma                100.260(2)
_cell_volume                     2413.61
loop_
_atom_site_label
_atom_site_type_symbol
_atom_site_fract_x
_atom_site_fract_y
_atom_site_fract_z
C1 C 0.6733(4) 0.9343(4) 0.1915(3)
C2 C 0.7419(4) 0.9688(4) 0.2758(3)
C3 C 0.8256(4) 1.0560(4) 0.2721(3)
C4 C 0.8493(3) 1.1049(4) 0.1966(3)
C5 C 0.7827(4) 1.0683(4) 0.1179(3)
C6 C 0.6951(4) 0.9836(4) 0.1178(3)
C7 C 0.5757(4) 0.8411(4) 0.1965(3)
H1 H 0.5549 0.8043 0.1410
H2 H 0.6009 0.7910 0.2375
C8 C 0.4352(4) 0.9652(4) 0.1959(3)
H3 H 0.4660 1.0196 0.1630
C9 C 0.3396(4) 0.9575(4) 0.2287(3)
H4 H 0.2929 1.0076 0.2243
C10 C 0.4046(4) 0.8161(4) 0.2624(3)
H5 H 0.4104 0.7492 0.2833
C11 C 0.7134(4) 0.9137(4) 0.3527(3)
H6 H 0.6348 0.8858 0.3450
H7 H 0.7326 0.9628 0.4011
H8 H 0.7542 0.8564 0.3623
C12 C 0.8991(4) 1.0981(4) 0.3586(3)
H9 H 0.9173 1.1752 0.3598
H10 H 0.8592 1.0766 0.4061
C13 C 1.0964(4) 1.0900(4) 0.4221(3)
H11 H 1.1057 1.1506 0.4573
C14 C 1.1703(4) 1.0288(3) 0.4192(3)
H12 H 1.2424 1.0413 0.4495
C15 C 1.0243(4) 0.9660(4) 0.3338(3)
H13 H 0.9734 0.9232 0.2928
C16 C 0.9384(4) 1.2063(4) 0.1966(3)
H14 H 1.0049 1.1879 0.1803
H15 H 0.9553 1.2393 0.2531
H16 H 0.9105 1.2550 0.1566
C17 C 0.7981(4) 1.1226(4) 0.0342(3)
H17 H 0.8758 1.1558 0.0365
H18 H 0.7802 1.0694 -0.0123
C18 C 0.7197(4) 1.2573(4) -0.0586(3)
H19 H 0.7585 1.2537 -0.1047
C19 C 0.6397(4) 1.3193(4) -0.0498(3)
H20 H 0.6114 1.3614 -0.0923
C20 C 0.6585(4) 1.2404(4) 0.0642(3)
H21 H 0.6486 1.2164 0.1185
C21 C 0.6328(4) 0.9306(4) 0.0311(3)
H22 H 0.6349 0.9825 -0.0125
H23 H 0.5565 0.9027 0.0368
H24 H 0.6683 0.8737 0.0155
C22 C 0.0406(4) 0.7177(4) 0.2027(3)
C23 C -0.0415(4) 0.6370(4) 0.1398(3)
C24 C -0.0264(5) 0.6554(5) 0.0443(3)
H25 H -0.0087 0.7307 0.0333
H26 H 0.0315 0.6202 0.0282
C25 C -0.1430(4) 0.6042(4) -0.0033(3)
H27 H -0.1732 0.6557 -0.0402
H28 H -0.1363 0.5441 -0.0389
C26 C -0.2210(4) 0.5673(4) 0.0603(3)
H29 H -0.2177 0.4929 0.0730
C27 C -0.1621(4) 0.6422(4) 0.1437(3)
C28 C -0.3400(4) 0.5776(4) 0.0328(3)
C29 C -0.0031(4) 0.5345(4) 0.1765(3)
H30 H 0.0031 0.5375 0.2378
H31 H 0.0681 0.5297 0.1603
H32 H -0.0569 0.4732 0.1539
C30 C -0.2000(5) 0.5863(4) 0.2232(3)
H33 H -0.1892 0.6374 0.2700
H34 H -0.1569 0.5319 0.2387
H35 H -0.2777 0.5548 0.2105
C31 C -0.1953(4) 0.7475(4) 0.1420(3)
H36 H -0.1326 0.8011 0.1338
H37 H -0.2197 0.7619 0.1952
H38 H -0.2551 0.7482 0.0956
C32 C 0.3410(4) 0.7750(4) 0.4526(3)
C33 C 0.4466(4) 0.7578(4) 0.5161(3)
C34 C 0.4931(4) 0.6570(4) 0.5079(3)
H39 H 0.5483 0.6661 0.4692
H40 H 0.4341 0.5979 0.4866
C35 C 0.5476(4) 0.6373(4) 0.6005(3)
H41 H 0.5251 0.5636 0.6148
H42 H 0.6283 0.6532 0.6054
C36 C 0.5066(4) 0.7113(4) 0.6603(3)
H43 H 0.5582 0.7792 0.6602
C37 C 0.4023(4) 0.7266(4) 0.6010(3)
C38 C 0.5040(4) 0.6888(4) 0.7581(3)
C39 C 0.5420(4) 0.8562(3) 0.5268(3)
H44 H 0.6116 0.8341 0.5467
H45 H 0.5276 0.9061 0.5677
H46 H 0.5459 0.8893 0.4726
C40 C 0.3472(4) 0.8143(4) 0.6368(3)
H47 H 0.3196 0.7912 0.6887
H48 H 0.2865 0.8275 0.5953
H49 H 0.4016 0.8786 0.6487
C41 C 0.3144(4) 0.6245(3) 0.6029(3)
H50 H 0.3478 0.5634 0.5952
H51 H 0.2534 0.6250 0.5576
H52 H 0.2874 0.6217 0.6571
N1 N 0.4793(3) 0.8741(3) 0.2214(2)
N2 N 0.3229(3) 0.8642(3) 0.2694(2)
N3 N 1.0048(3) 1.0514(3) 0.3660(2)
N4 N 1.1251(3) 0.9433(3) 0.3646(3)
N5 N 0.7288(3) 1.2022(3) 0.0165(2)
N6 N 0.6084(3) 1.3100(3) 0.0292(2)
O1 O 0.0647(3) 0.6996(3) 0.2782(2)
O2 O 0.0778(2) 0.8068(3) 0.1742(2)
O3 O -0.4178(3) 0.5385(3) 0.0716(2)
O4 O -0.3601(3) 0.6367(3) -0.0281(2)
O5 O 0.2738(3) 0.7068(3) 0.4052(2)
O6 O 0.3170(3) 0.8554(3) 0.4444(2)
O7 O 0.4993(3) 0.5977(3) 0.78285(19)
O8 O 0.4994(3) 0.7603(3) 0.8088(2)
Zn1 Zn 0.19304(4) 0.81853(4) 0.33687(3)
Zn2 Zn 0.50450(4) 0.65338(4) 0.90879(3)
N4_2 N 0.1251(3) 0.9433(3) 0.3646(3)
N6A N 0.3916(3) 0.6900(3) 0.9708(2)
O3A O 0.4178(3) 0.4615(3) 0.9284(2)
O4_2 O 0.6399(3) 0.6367(3) 0.9719(2)
Zn1_2 Zn 1.19304(4) 0.81853(4) 0.33687(3)
Zn2_2 Zn -0.49550(4) 0.65338(4) -0.09121(3)
Zn2A Zn -0.50450(4) 0.34662(4) 0.09121(3)
Zn2A_2 Zn 0.49550(4) 1.34662(4) 0.09121(3)
loop_
_geom_bond_atom_site_label_1
_geom_bond_atom_site_label_2
_geom_bond_site_symmetry_1
_geom_bond_site_symmetry_2
C1 C2 1_555 1_555
C2 C3 1_555 1_555
C3 C4 1_555 1_555
C4 C5 1_555 1_555
C5 C6 1_555 1_555
C6 C1 1_555 1_555
C7 C1 1_555 1_555
H1 C7 1_555 1_555
H2 C7 1_555 1_555
C8 H3 1_555 1_555
C9 C8 1_555 1_555
H4 C9 1_555 1_555
C10 H5 1_555 1_555
C11 C2 1_555 1_555
H6 C11 1_555 1_555
H7 C11 1_555 1_555
H8 C11 1_555 1_555
C12 C3 1_555 1_555
H9 C12 1_555 1_555
H10 C12 1_555 1_555
C13 H11 1_555 1_555
C14 C13 1_555 1_555
H12 C14 1_555 1_555
C15 H13 1_555 1_555
C16 C4 1_555 1_555
H14 C16 1_555 1_555
H15 C16 1_555 1_555
H16 C16 1_555 1_555
C17 C5 1_555 1_555
H17 C17 1_555 1_555
H18 C17 1_555 1_555
C18 H19 1_555 1_555
C19 C18 1_555 1_555
H20 C19 1_555 1_555
C20 H21 1_555 1_555
C21 C6 1_555 1_555
H22 C21 1_555 1_555
H23 C21 1_555 1_555
H24 C21 1_555 1_555
C22 C23 1_555 1_555
C23 C24 1_555 1_555
C24 H25 1_555 1_555
H26 C24 1_555 1_555
C25 C24 1_555 1_555
H27 C25 1_555 1_555
H28 C25 1_555 1_555
C26 C25 1_555 1_555
H29 C26 1_555 1_555
C27 C23 1_555 1_555
C28 C26 1_555 1_555
C29 C23 1_555 1_555
H30 C29 1_555 1_555
H31 C29 1_555 1_555
H32 C29 1_555 1_555
C30 C27 1_555 1_555
H33 C30 1_555 1_555
H34 C30 1_555 1_555
H35 C30 1_555 1_555
C31 C27 1_555 1_555
H36 C31 1_555 1_555
H37 C31 1_555 1_555
H38 C31 1_555 1_555
C32 C33 1_555 1_555
C33 C34 1_555 1_555
C34 H39 1_555 1_555
H40 C34 1_555 1_555
C35 C34 1_555 1_555
H41 C35 1_555 1_555
H42 C35 1_555 1_555
C36 C35 1_555 1_555
H43 C36 1_555 1_555
C37 C33 1_555 1_555
C38 C36 1_555 1_555
C39 C33 1_555 1_555
H44 C39 1_555 1_555
H45 C39 1_555 1_555
H46 C39 1_555 1_555
C40 C37 1_555 1_555
H47 C40 1_555 1_555
H48 C40 1_555 1_555
H49 C40 1_555 1_555
C41 C37 1_555 1_555
H50 C41 1_555 1_555
H51 C41 1_555 1_555
H52 C41 1_555 1_555
N1 C7 1_555 1_555
N2 C9 1_555 1_555
N3 C12 1_555 1_555
N4 C14 1_555 1_555
N5 C17 1_555 1_555
N6 C19 1_555 1_555
O1 C22 1_555 1_555
O2 C22 1_555 1_555
O3 C28 1_555 1_555
O4 C28 1_555 1_555
O5 C32 1_555 1_555
O6 C32 1_555 1_555
O7 C38 1_555 1_555
O8 C38 1_555 1_555
Zn1 N2 1_555 1_555
Zn2 O7 1_555 1_555
N4_2 Zn1 1_555 1_555
N6A Zn2 1_555 1_555
O3A Zn2 1_555 1_555
O4_2 Zn2 1_555 1_555
Zn1_2 N4 1_555 1_555
Zn2_2 O4 1_555 1_555
Zn2A O3 1_555 1_555
Zn2A_2 N6 1_555 1_555
C8 N1 1_555 1_555
C10 N1 1_555 1_555
C10 N2 1_555 1_555
C13 N3 1_555 1_555
C15 N3 1_555 1_555
C15 N4 1_555 1_555
C18 N5 1_555 1_555
C20 N5 1_555 1_555
C20 N6 1_555 1_555
C26 C27 1_555 1_555
C36 C37 1_555 1_555
O1 Zn1 1_555 1_555
O5 Zn1 1_555 1_555
O6 Zn1 1_555 1_555
O8 Zn2 1_555 1_555

#END
