
#######################################################################
#
#                 Cambridge Crystallographic Data Centre
#                                CCDC 
#
#######################################################################
#
# If this CIF has been generated from an entry in the Cambridge 
# Structural Database, then it will include bibliographic, chemical, 
# crystal, experimental, refinement or atomic coordinate data resulting 
# from the CCDC's data processing and validation procedures.
#
#######################################################################

data_QITDED
_symmetry_cell_setting           monoclinic
_symmetry_space_group_name_H-M   'C 2/c'
_symmetry_Int_Tables_number      15
_space_group_name_Hall           '-C 2yn'
loop_
_symmetry_equiv_pos_site_id
_symmetry_equiv_pos_as_xyz
1 x,y,z
2 1/2+x,1/2+y,z
3 -x,y,1/2-z
4 1/2-x,1/2+y,1/2-z
5 -x,-y,-z
6 1/2-x,1/2-y,-z
7 x,-y,1/2+z
8 1/2+x,1/2-y,1/2+z
_cell_length_a                   6.4420(13)
_cell_length_b                   29.172(6)
_cell_length_c                   12.046(2)
_cell_angle_alpha                90
_cell_angle_beta                 92.84(3)
_cell_angle_gamma                90
_cell_volume                     2260.98
loop_
_atom_site_label
_atom_site_type_symbol
_atom_site_fract_x
_atom_site_fract_y
_atom_site_fract_z
Os1 Os 0.0000 0.348687(2) 0.2500
N1 N 0.17516(19) 0.29210(4) 0.31043(10)
N2 N 0.1888(2) 0.20998(4) 0.31194(11)
N3 N 0.2958(2) 0.42282(5) 0.36574(11)
N4 N 0.2376(2) 0.34450(5) 0.02238(12)
C1 C 0.3569(2) 0.29367(5) 0.37186(12)
H1 H 0.4157 0.3225 0.3922
C2 C 0.4579(2) 0.25379(6) 0.40535(13)
H2 H 0.5848 0.2548 0.4490
C3 C 0.3686(3) 0.21212(5) 0.37328(13)
H3 H 0.4364 0.1844 0.3953
C4 C 0.0996(2) 0.24987(5) 0.28366(11)
C5 C 0.1868(2) 0.39626(5) 0.31969(12)
C6 C 0.1560(2) 0.34733(5) 0.10608(13)
N1B N -0.17516(19) 0.29210(4) 0.18957(10)
N2B N -0.1888(2) 0.20998(4) 0.18806(11)
N3B N -0.2958(2) 0.42282(5) 0.13426(11)
N4B N -0.2376(2) 0.34450(5) 0.47762(12)
C1B C -0.3569(2) 0.29367(5) 0.12814(12)
H1B H -0.4157 0.3225 0.1078
C2B C -0.4579(2) 0.25379(6) 0.09465(13)
H2B H -0.5848 0.2548 0.0510
C3B C -0.3686(3) 0.21212(5) 0.12672(13)
H3B H -0.4364 0.1844 0.1047
C4B C -0.0996(2) 0.24987(5) 0.21634(11)
C5B C -0.1868(2) 0.39626(5) 0.18031(12)
C6B C -0.1560(2) 0.34733(5) 0.39392(13)
Na1 Na 0.0000 0.06465(3) 0.2500
Na2 Na -0.5000 0.06985(3) 0.2500
O1 O -0.24860(17) 0.02144(4) 0.34575(9)
H4 H -0.2351 0.0285 0.4144
H5 H -0.2405 -0.0072 0.3420
O2 O -0.22798(17) 0.12346(4) 0.30596(9)
H6 H -0.2346 0.1317 0.3680
H7 H -0.1976 0.1501 0.2703
O3 O -0.26393(17) 0.05372(4) 0.10340(9)
H8 H -0.2605 0.0249 0.0980
H9 H -0.2505 0.0642 0.0363
Na2_2 Na 0.5000 0.06985(3) 0.2500
O1B O 0.24860(17) 0.02144(4) 0.15425(9)
O1B_2 O -0.75140(17) 0.02144(4) 0.15425(9)
H4B H 0.2351 0.0285 0.0856
H4B_2 H -0.7649 0.0285 0.0856
H5B H 0.2405 -0.0072 0.1580
H5B_2 H -0.7595 -0.0072 0.1580
O2B O 0.22798(17) 0.12346(4) 0.19404(9)
O2B_2 O -0.77202(17) 0.12346(4) 0.19404(9)
H6B H 0.2346 0.1317 0.1320
H6B_2 H -0.7654 0.1317 0.1320
H7B H 0.1976 0.1501 0.2297
H7B_2 H -0.8024 0.1501 0.2297
O3B O 0.26393(17) 0.05372(4) 0.39660(9)
O3B_2 O -0.73607(17) 0.05372(4) 0.39660(9)
H8B H 0.2605 0.0249 0.4020
H8B_2 H -0.7395 0.0249 0.4020
H9B H 0.2505 0.0642 0.4637
H9B_2 H -0.7495 0.0642 0.4637
O4 O 0.28752(19) 0.45766(4) 0.07694(10)
H10 H 0.4158 0.4457 0.0992
H11 H 0.1912 0.4381 0.0975
loop_
_geom_bond_atom_site_label_1
_geom_bond_atom_site_label_2
_geom_bond_site_symmetry_1
_geom_bond_site_symmetry_2
Os1 N1 1_555 1_555
Na1 O1 1_555 1_555
Na2 O1 1_555 1_555
N1 C1 1_555 1_555
N2 C3 1_555 1_555
N3 C5 1_555 1_555
N4 C6 1_555 1_555
C1 H1 1_555 1_555
C2 C1 1_555 1_555
H2 C2 1_555 1_555
C3 C2 1_555 1_555
H3 C3 1_555 1_555
C4 N1 1_555 1_555
C5 Os1 1_555 1_555
C6 Os1 1_555 1_555
O1 H4 1_555 1_555
H5 O1 1_555 1_555
O2 Na1 1_555 1_555
H6 O2 1_555 1_555
H7 O2 1_555 1_555
O3 Na1 1_555 1_555
H8 O3 1_555 1_555
H9 O3 1_555 1_555
O4 H10 1_555 1_555
H11 O4 1_555 1_555
Na2_2 O1B 1_555 1_555
N1B Os1 1_555 1_555
N2B C3B 1_555 1_555
N3B C5B 1_555 1_555
N4B C6B 1_555 1_555
C1B N1B 1_555 1_555
H1B C1B 1_555 1_555
C2B C1B 1_555 1_555
H2B C2B 1_555 1_555
C3B C2B 1_555 1_555
H3B C3B 1_555 1_555
C4B C4 1_555 1_555
C5B Os1 1_555 1_555
C6B Os1 1_555 1_555
O1B Na1 1_555 1_555
O1B_2 Na2 1_555 1_555
H4B O1B 1_555 1_555
H4B_2 O1B_2 1_555 1_555
H5B O1B 1_555 1_555
H5B_2 O1B_2 1_555 1_555
O2B Na1 1_555 1_555
O2B_2 Na2 1_555 1_555
H6B O2B 1_555 1_555
H6B_2 O2B_2 1_555 1_555
H7B O2B 1_555 1_555
H7B_2 O2B_2 1_555 1_555
O3B Na1 1_555 1_555
O3B_2 Na2 1_555 1_555
H8B O3B 1_555 1_555
H8B_2 O3B_2 1_555 1_555
H9B O3B 1_555 1_555
H9B_2 O3B_2 1_555 1_555
Na2 O2 1_555 1_555
Na2 O3 1_555 1_555
N2 C4 1_555 1_555
Na2_2 O2B 1_555 1_555
Na2_2 O3B 1_555 1_555
N1B C4B 1_555 1_555
N2B C4B 1_555 1_555

#END
