
#######################################################################
#
#                 Cambridge Crystallographic Data Centre
#                                CCDC 
#
#######################################################################
#
# If this CIF has been generated from an entry in the Cambridge 
# Structural Database, then it will include bibliographic, chemical, 
# crystal, experimental, refinement or atomic coordinate data resulting 
# from the CCDC's data processing and validation procedures.
#
#######################################################################

data_QITDOO
_symmetry_cell_setting           tetragonal
_symmetry_space_group_name_H-M   'I 41 c d'
_symmetry_Int_Tables_number      110
_space_group_name_Hall           'I 4bw -2c'
loop_
_symmetry_equiv_pos_site_id
_symmetry_equiv_pos_as_xyz
1 x,y,z
2 -x,-y,z
3 -y,1/2+x,1/4+z
4 y,1/2-x,1/4+z
5 -x,y,1/2+z
6 x,-y,1/2+z
7 1/2+y,x,1/4+z
8 1/2-y,-x,1/4+z
9 1/2+x,1/2+y,1/2+z
10 1/2-x,1/2-y,1/2+z
11 1/2-y,x,3/4+z
12 1/2+y,-x,3/4+z
13 1/2-x,1/2+y,z
14 1/2+x,1/2-y,z
15 y,1/2+x,3/4+z
16 -y,1/2-x,3/4+z
_cell_length_a                   30.760(5)
_cell_length_b                   30.760(5)
_cell_length_c                   16.103(5)
_cell_angle_alpha                90
_cell_angle_beta                 90
_cell_angle_gamma                90
_cell_volume                     15236.3
loop_
_atom_site_label
_atom_site_type_symbol
_atom_site_fract_x
_atom_site_fract_y
_atom_site_fract_z
C1 C 1.1037(2) 1.6821(2) 1.8185(4)
C2 C 1.1395(2) 1.6514(2) 1.7935(4)
C3 C 1.1266(3) 1.6157(3) 1.7489(6)
H1 H 1.0973 1.6127 1.7355
C4 C 1.1557(3) 1.5837(3) 1.7230(5)
H2 H 1.1457 1.5602 1.6922
C5 C 1.1991(2) 1.5868(2) 1.7427(4)
C6 C 1.2284(2) 1.5521(2) 1.7091(4)
C7 C 1.2140(3) 1.6215(3) 1.7926(5)
C8 C 1.2582(4) 1.6245(4) 1.8125(7)
H3 H 1.2778 1.6036 1.7943
C9 C 1.2718(4) 1.6592(4) 1.8599(8)
H4 H 1.3012 1.6616 1.8726
C10 C 1.2434(4) 1.6911(4) 1.8896(8)
H5 H 1.2532 1.7130 1.9248
C11 C 1.1998(3) 1.6892(3) 1.8650(6)
H6 H 1.1808 1.7110 1.8822
C12 C 1.1840(3) 1.6552(2) 1.8151(5)
C13 C 0.9202(2) 1.6704(2) 1.5447(4)
C14 C 0.8940(2) 1.6336(2) 1.5135(4)
C15 C 0.8502(2) 1.6348(2) 1.5342(5)
H7 H 0.8394 1.6581 1.5647
C16 C 0.8220(2) 1.6015(2) 1.5099(5)
H8 H 0.7926 1.6036 1.5228
C17 C 0.8369(2) 1.5657(2) 1.4674(4)
C18 C 0.8048(2) 1.5301(2) 1.4502(4)
C19 C 0.8815(2) 1.5637(2) 1.4408(4)
C20 C 0.8992(2) 1.5298(2) 1.3897(6)
H9 H 0.8807 1.5083 1.3698
C21 C 0.9419(3) 1.5279(3) 1.3695(6)
H10 H 0.9522 1.5048 1.3377
C22 C 0.9711(3) 1.5606(3) 1.3965(7)
H11 H 1.0003 1.5593 1.3821
C23 C 0.9557(2) 1.5946(2) 1.4443(5)
H12 H 0.9750 1.6157 1.4629
C24 C 0.9108(2) 1.5978(2) 1.4660(4)
C25 C 0.9560(2) 1.6701(2) 1.8179(4)
C26 C 0.9199(2) 1.6396(2) 1.7948(4)
C27 C 0.8789(3) 1.6477(3) 1.8259(5)
H13 H 0.8742 1.6711 1.8612
C28 C 0.8441(3) 1.6199(3) 1.8035(5)
H14 H 0.8166 1.6251 1.8254
C29 C 0.8496(2) 1.5855(2) 1.7506(5)
C30 C 0.8089(2) 1.5620(2) 1.7241(5)
C31 C 0.8923(2) 1.5753(2) 1.7171(5)
C32 C 0.9016(3) 1.5406(3) 1.6642(5)
H15 H 0.8794 1.5221 1.6470
C33 C 0.9426(3) 1.5338(3) 1.6381(8)
H16 H 0.9479 1.5097 1.6045
C34 C 0.9778(3) 1.5606(3) 1.6583(7)
H17 H 1.0055 1.5552 1.6379
C35 C 0.9695(3) 1.5949(3) 1.7091(6)
H18 H 0.9923 1.6131 1.7241
C36 C 0.9272(2) 1.6038(2) 1.7400(4)
O1 O 1.06545(17) 1.67425(18) 1.7924(3)
O2 O 1.11028(16) 1.71501(16) 1.8642(3)
O3 O 1.03410(16) 1.67853(17) 1.6362(4)
O4 O 1.24959(18) 1.52734(16) 1.7572(3)
O5 O 0.9176(2) 1.7720(2) 1.7222(4)
O6 O 1.23097(16) 1.54730(16) 1.6304(4)
O7 O 0.95401(15) 1.68380(15) 1.5043(3)
O8 O 0.90926(16) 1.68908(17) 1.6095(3)
O9 O 0.76866(16) 1.53022(17) 1.4885(3)
O10 O 0.81205(15) 1.50217(18) 1.3954(3)
O11 O 0.97253(15) 1.69511(16) 1.7660(3)
O12 O 0.96812(16) 1.67008(17) 1.8926(3)
O13 O 0.80939(19) 1.5405(2) 1.6580(4)
O14 O 0.77533(16) 1.56470(16) 1.7669(4)
La1 La 1.027167(10) 1.730128(10) 1.87940(2)
La2 La 0.975720(10) 1.735899(11) 1.62923(2)
O4G O 0.97266(16) 1.75041(18) 2.0072(3)
O4K O 1.02734(16) 1.75041(18) 1.5072(3)
O6G O 0.95270(16) 1.76903(16) 1.8804(4)
O7D O 1.04599(15) 1.68380(15) 2.0043(3)
O9F O 1.03022(17) 1.76866(16) 1.7385(3)
O10F O 1.00217(18) 1.81205(15) 1.6454(3)
O13F O 1.0405(2) 1.80939(19) 1.9080(4)
O14F O 1.06470(16) 1.77533(16) 2.0169(4)
O14J O 0.93530(16) 1.77533(16) 1.5169(4)
La1D La 0.972833(10) 1.730128(10) 1.37940(2)
La1N La 0.730128(10) 1.527167(10) 1.62940(2)
La1O La 1.269872(10) 1.472833(10) 1.62940(2)
La2B La 1.264101(11) 1.475720(10) 1.87923(2)
La2C La 0.735899(11) 1.524280(10) 1.87923(2)
La2N La 0.735899(11) 1.475720(10) 1.37923(2)
O15 O 0.9296(4) 1.6282(4) 2.0223(7)
O16 O 0.8738(7) 1.5614(7) 2.0081(13)
O17 O 0.8347(6) 1.7310(6) 1.6906(12)
loop_
_geom_bond_atom_site_label_1
_geom_bond_atom_site_label_2
_geom_bond_site_symmetry_1
_geom_bond_site_symmetry_2
C1 C2 1_555 1_555
C2 C3 1_555 1_555
C3 H1 1_555 1_555
C4 C3 1_555 1_555
H2 C4 1_555 1_555
C5 C4 1_555 1_555
C6 C5 1_555 1_555
C7 C5 1_555 1_555
C8 C7 1_555 1_555
H3 C8 1_555 1_555
C9 C8 1_555 1_555
H4 C9 1_555 1_555
C10 C9 1_555 1_555
H5 C10 1_555 1_555
C11 C10 1_555 1_555
H6 C11 1_555 1_555
C12 C2 1_555 1_555
C13 C14 1_555 1_555
C14 C15 1_555 1_555
C15 H7 1_555 1_555
C16 C15 1_555 1_555
H8 C16 1_555 1_555
C17 C16 1_555 1_555
C18 C17 1_555 1_555
C19 C17 1_555 1_555
C20 C19 1_555 1_555
H9 C20 1_555 1_555
C21 C20 1_555 1_555
H10 C21 1_555 1_555
C22 C21 1_555 1_555
H11 C22 1_555 1_555
C23 C22 1_555 1_555
H12 C23 1_555 1_555
C24 C14 1_555 1_555
C25 C26 1_555 1_555
C26 C27 1_555 1_555
C27 H13 1_555 1_555
C28 C27 1_555 1_555
H14 C28 1_555 1_555
C29 C28 1_555 1_555
C30 C29 1_555 1_555
C31 C29 1_555 1_555
C32 C31 1_555 1_555
H15 C32 1_555 1_555
C33 C32 1_555 1_555
H16 C33 1_555 1_555
C34 C33 1_555 1_555
H17 C34 1_555 1_555
C35 C34 1_555 1_555
H18 C35 1_555 1_555
C36 C26 1_555 1_555
O1 C1 1_555 1_555
O2 C1 1_555 1_555
O3 La2 1_555 1_555
O4 C6 1_555 1_555
O5 La2 1_555 1_555
O6 C6 1_555 1_555
O7 C13 1_555 1_555
O8 C13 1_555 1_555
O9 C18 1_555 1_555
O10 C18 1_555 1_555
O11 C25 1_555 1_555
O12 C25 1_555 1_555
O13 C30 1_555 1_555
O14 C30 1_555 1_555
La1 O1 1_555 1_555
La2 O7 1_555 1_555
O4G La1 1_555 1_555
O4K La2 1_555 1_555
O6G La1 1_555 1_555
O7D La1 1_555 1_555
O9F La1 1_555 1_555
O10F La2 1_555 1_555
O13F La1 1_555 1_555
O14F La1 1_555 1_555
O14J La2 1_555 1_555
La1D O7 1_555 1_555
La1N O9 1_555 1_555
La1O O4 1_555 1_555
La2B O4 1_555 1_555
La2C O14 1_555 1_555
La2N O9 1_555 1_555
C7 C12 1_555 1_555
C11 C12 1_555 1_555
C19 C24 1_555 1_555
C23 C24 1_555 1_555
C31 C36 1_555 1_555
C35 C36 1_555 1_555
O2 La1 1_555 1_555
O6 La1O 1_555 1_555
O8 La2 1_555 1_555
O10 La2N 1_555 1_555
O11 La1 1_555 1_555
O11 La2 1_555 1_555
O12 La1 1_555 1_555
O13 La1N 1_555 1_555
O14 La1N 1_555 1_555
La2 O9F 1_555 1_555
O4K La1D 1_555 1_555
O14J La1D 1_555 1_555

#END
