
#######################################################################
#
#                 Cambridge Crystallographic Data Centre
#                                CCDC 
#
#######################################################################
#
# If this CIF has been generated from an entry in the Cambridge 
# Structural Database, then it will include bibliographic, chemical, 
# crystal, experimental, refinement or atomic coordinate data resulting 
# from the CCDC's data processing and validation procedures.
#
#######################################################################

data_QITGOR
_symmetry_cell_setting           triclinic
_symmetry_space_group_name_H-M   'P -1'
_symmetry_Int_Tables_number      2
_space_group_name_Hall           '-P 1'
loop_
_symmetry_equiv_pos_site_id
_symmetry_equiv_pos_as_xyz
1 x,y,z
2 -x,-y,-z
_cell_length_a                   4.9611(3)
_cell_length_b                   7.2599(4)
_cell_length_c                   12.9463(8)
_cell_angle_alpha                89.089(2)
_cell_angle_beta                 80.546(2)
_cell_angle_gamma                73.211(2)
_cell_volume                     440.103
loop_
_atom_site_label
_atom_site_type_symbol
_atom_site_fract_x
_atom_site_fract_y
_atom_site_fract_z
Ba1 Ba 1.17925(4) 0.21167(3) 0.574865(14)
C1 C 1.1453(8) 0.1294(5) 0.2186(3)
C2 C 0.8845(7) 0.2653(5) 0.2605(3)
C3 C 0.7238(8) 0.3719(5) 0.1894(3)
C4 C 0.8094(9) 0.3499(6) 0.0820(3)
H1 H 0.6973 0.4258 0.0374
C5 C 1.0610(10) 0.2153(7) 0.0418(3)
H2 H 1.1194 0.1967 -0.0302
C6 C 1.2269(9) 0.1073(7) 0.1104(3)
H3 H 1.3985 0.0171 0.0831
C7 C 1.3393(8) 0.0005(5) 0.2865(3)
C8 C 0.7896(7) 0.2930(5) 0.3788(3)
N1 N 0.4502(7) 0.5150(5) 0.2279(3)
O1 O 1.5860(6) -0.0877(4) 0.2440(2)
O2 O 1.2357(5) -0.0150(4) 0.3818(2)
O3 O 0.8848(6) 0.4050(4) 0.4241(2)
O4 O 0.6292(6) 0.1986(4) 0.4209(2)
O5 O 0.3913(6) 0.5618(4) 0.3208(2)
O6 O 0.2907(8) 0.5834(6) 0.1666(3)
Ba1_2 Ba 0.17925(4) 0.21167(3) 0.574865(14)
Ba1A Ba -0.17925(4) 0.78833(3) 0.425135(14)
Ba1A_2 Ba 0.82075(4) -0.21167(3) 0.425135(14)
Ba1A_3 Ba 0.82075(4) 0.78833(3) 0.425135(14)
Ba1A_4 Ba 1.82075(4) -0.21167(3) 0.425135(14)
O1A O 1.4140(6) 0.0877(4) 0.7560(2)
O2A O 0.7643(5) 0.0150(4) 0.6182(2)
O2A_2 O 1.7643(5) 0.0150(4) 0.6182(2)
O3A O 1.1152(6) 0.5950(4) 0.5759(2)
O4_2 O 1.6292(6) 0.1986(4) 0.4209(2)
O4A O 1.3708(6) -0.1986(4) 0.5791(2)
O5A O 0.6087(6) 0.4382(4) 0.6792(2)
loop_
_geom_bond_atom_site_label_1
_geom_bond_atom_site_label_2
_geom_bond_site_symmetry_1
_geom_bond_site_symmetry_2
Ba1 O2 1_555 1_555
C1 C2 1_555 1_555
C2 C3 1_555 1_555
C3 C4 1_555 1_555
C4 H1 1_555 1_555
C5 C4 1_555 1_555
H2 C5 1_555 1_555
C6 C1 1_555 1_555
H3 C6 1_555 1_555
C7 C1 1_555 1_555
C8 C2 1_555 1_555
N1 C3 1_555 1_555
O1 C7 1_555 1_555
O2 C7 1_555 1_555
O3 Ba1 1_555 1_555
O4 C8 1_555 1_555
O5 N1 1_555 1_555
O6 N1 1_555 1_555
Ba1_2 O4 1_555 1_555
Ba1A O5 1_555 1_555
Ba1A_2 O2 1_555 1_555
Ba1A_3 O3 1_555 1_555
Ba1A_4 O1 1_555 1_555
O1A Ba1 1_555 1_555
O2A Ba1 1_555 1_555
O2A_2 Ba1 1_555 1_555
O3A Ba1 1_555 1_555
O4_2 Ba1 1_555 1_555
O4A Ba1 1_555 1_555
O5A Ba1 1_555 1_555
C5 C6 1_555 1_555
C8 O3 1_555 1_555
O2 Ba1A_4 1_555 1_555
O4 Ba1A_2 1_555 1_555
Ba1_2 O2A 1_555 1_555
Ba1A_2 O2A 1_555 1_555
Ba1A_3 O3A 1_555 1_555
Ba1A_4 O2A_2 1_555 1_555
Ba1A_4 O4_2 1_555 1_555
Ba1A_4 O4A 1_555 1_555

#END
