
#######################################################################
#
#                 Cambridge Crystallographic Data Centre
#                                CCDC 
#
#######################################################################
#
# If this CIF has been generated from an entry in the Cambridge 
# Structural Database, then it will include bibliographic, chemical, 
# crystal, experimental, refinement or atomic coordinate data resulting 
# from the CCDC's data processing and validation procedures.
#
#######################################################################

data_QITMUC
_symmetry_cell_setting           monoclinic
_symmetry_space_group_name_H-M   'P 21/n'
_symmetry_Int_Tables_number      14
_space_group_name_Hall           '-P 2yn'
loop_
_symmetry_equiv_pos_site_id
_symmetry_equiv_pos_as_xyz
1 x,y,z
2 1/2-x,1/2+y,1/2-z
3 -x,-y,-z
4 1/2+x,1/2-y,1/2+z
_cell_length_a                   13.8983(19)
_cell_length_b                   10.3749(15)
_cell_length_c                   17.946(3)
_cell_angle_alpha                90
_cell_angle_beta                 99.717(2)
_cell_angle_gamma                90
_cell_volume                     2550.57
loop_
_atom_site_label
_atom_site_type_symbol
_atom_site_fract_x
_atom_site_fract_y
_atom_site_fract_z
Eu1 Eu 0.60199(3) 0.24901(3) 0.291486(19)
Eu2 Eu 0.65183(2) 0.27002(3) 0.655873(18)
N1 N 0.4836(4) 0.2296(5) 0.3863(3)
N2 N 0.3547(5) 0.2052(6) 0.4883(4)
N3 N 0.5461(3) 0.4235(5) 0.1927(3)
N4 N 0.4895(4) 0.5968(6) 0.0765(3)
N5 N 0.7568(3) 0.4122(5) 0.5883(3)
N6 N 0.8812(5) 0.5586(7) 0.5186(3)
O1 O 0.5490(3) 0.4535(4) 0.3495(3)
O2 O 0.4474(3) 0.5609(4) 0.4119(2)
O3 O 0.5453(4) 0.0329(4) 0.3190(3)
O4 O 0.4645(3) -0.1073(4) 0.3785(3)
O5 O 0.4290(4) 0.2477(4) 0.2295(3)
O6 O 0.3014(3) 0.3296(5) 0.1519(3)
O7 O 0.7244(3) 0.4118(5) 0.2669(2)
O8 O 0.7654(3) 0.5962(5) 0.2118(3)
O9 O 0.6525(4) 0.2223(4) 0.5215(3)
O10 O 0.7023(4) 0.2589(4) 0.4115(3)
O11 O 0.7297(4) 0.4522(5) 0.7270(2)
O12 O 0.8269(4) 0.6275(5) 0.7387(3)
O13 O 0.6072(4) 0.1705(6) 0.1653(3)
H1 H 0.5906 0.2184 0.1268
H2 H 0.6262 0.0937 0.1597
O14 O 0.5304(3) 0.3304(5) 0.7316(3)
H3 H 0.5120 0.4072 0.7456
H4 H 0.4873 0.2729 0.7316
C1 C 0.4496(5) 0.3320(6) 0.4179(4)
C2 C 0.3857(5) 0.3194(7) 0.4692(4)
H5 H 0.3640 0.3932 0.4907
C3 C 0.3882(5) 0.1005(7) 0.4556(4)
H6 H 0.3689 0.0185 0.4681
C4 C 0.4507(4) 0.1145(6) 0.4038(3)
C5 C 0.4857(5) 0.4596(6) 0.3911(3)
C6 C 0.4904(5) 0.0034(6) 0.3640(3)
C7 C 0.4543(4) 0.4250(6) 0.1549(3)
C8 C 0.4264(5) 0.5125(7) 0.0977(4)
H7 H 0.3619 0.5132 0.0732
C9 C 0.5804(5) 0.5958(7) 0.1148(4)
H8 H 0.6257 0.6541 0.1019
C10 C 0.6088(4) 0.5099(6) 0.1732(3)
C11 C 0.3901(4) 0.3261(6) 0.1812(3)
C12 C 0.7085(5) 0.5063(6) 0.2214(3)
C13 C 0.7653(5) 0.3894(6) 0.5165(3)
C14 C 0.8265(6) 0.4642(7) 0.4818(4)
H9 H 0.8300 0.4490 0.4312
C15 C 0.8704(6) 0.5798(8) 0.5903(4)
H10 H 0.9068 0.6448 0.6174
C16 C 0.8077(5) 0.5096(6) 0.6251(3)
C17 C 0.7015(5) 0.2810(6) 0.4798(4)
C18 C 0.7864(5) 0.5314(7) 0.7036(4)
Eu1A Eu 0.89801(3) 0.74901(3) 0.208514(19)
Eu2B Eu 0.34817(2) 0.72998(3) 0.344127(18)
Eu2B_2 Eu 0.34817(2) -0.27002(3) 0.344127(18)
Eu2C Eu 0.15183(2) 0.22998(3) 0.155873(18)
Eu2A Eu 0.84817(2) 0.77002(3) 0.844127(18)
O2B O 0.5526(3) 0.4391(4) 0.5881(2)
O4B O 0.5355(3) 0.1073(4) 0.6215(3)
O6C O 0.8014(3) 0.1704(5) 0.6519(3)
O8A O 0.7346(3) 0.0962(5) 0.2882(3)
O12A O 0.6731(4) 0.1275(5) 0.7613(3)
O15 O 0.5114(5) 0.7768(6) 0.9619(4)
H11 H 0.5172 0.7119 0.9999
H12 H 0.4787 0.8417 0.9846
O16 O 0.4252(4) 0.1468(5) 0.7914(3)
H13 H 0.3786 0.1746 0.7517
H14 H 0.4476 0.0719 0.7792
O17 O 0.7165(11) 0.7406(18) 0.3709(8)
H15 H 0.6905 0.7938 0.3991
H16 H 0.7031 0.6621 0.3832
loop_
_geom_bond_atom_site_label_1
_geom_bond_atom_site_label_2
_geom_bond_site_symmetry_1
_geom_bond_site_symmetry_2
Eu1 N1 1_555 1_555
Eu2 N5 1_555 1_555
N1 C1 1_555 1_555
N2 C2 1_555 1_555
N3 Eu1 1_555 1_555
N4 C8 1_555 1_555
N5 C13 1_555 1_555
N6 C14 1_555 1_555
O1 Eu1 1_555 1_555
O2 C5 1_555 1_555
O3 Eu1 1_555 1_555
O4 C6 1_555 1_555
O5 Eu1 1_555 1_555
O6 C11 1_555 1_555
O7 Eu1 1_555 1_555
O8 C12 1_555 1_555
O9 Eu2 1_555 1_555
O10 Eu1 1_555 1_555
O11 Eu2 1_555 1_555
O12 C18 1_555 1_555
O13 Eu1 1_555 1_555
H1 O13 1_555 1_555
H2 O13 1_555 1_555
O14 Eu2 1_555 1_555
H3 O14 1_555 1_555
H4 O14 1_555 1_555
C1 C2 1_555 1_555
C2 H5 1_555 1_555
C3 N2 1_555 1_555
H6 C3 1_555 1_555
C4 N1 1_555 1_555
C5 O1 1_555 1_555
C6 O3 1_555 1_555
C7 N3 1_555 1_555
C8 C7 1_555 1_555
H7 C8 1_555 1_555
C9 N4 1_555 1_555
H8 C9 1_555 1_555
C10 N3 1_555 1_555
C11 O5 1_555 1_555
C12 O7 1_555 1_555
C13 C14 1_555 1_555
C14 H9 1_555 1_555
C15 N6 1_555 1_555
H10 C15 1_555 1_555
C16 N5 1_555 1_555
C17 O9 1_555 1_555
C18 O11 1_555 1_555
O15 H11 1_555 1_555
H12 O15 1_555 1_555
O16 H13 1_555 1_555
H14 O16 1_555 1_555
O17 H15 1_555 1_555
H16 O17 1_555 1_555
Eu1A O8 1_555 1_555
Eu2B O2 1_555 1_555
Eu2B_2 O4 1_555 1_555
Eu2C O6 1_555 1_555
Eu2A O12 1_555 1_555
O2B Eu2 1_555 1_555
O4B Eu2 1_555 1_555
O6C Eu2 1_555 1_555
O8A Eu1 1_555 1_555
O12A Eu2 1_555 1_555
O10 C17 1_555 1_555
C1 C5 1_555 1_555
C3 C4 1_555 1_555
C4 C6 1_555 1_555
C7 C11 1_555 1_555
C9 C10 1_555 1_555
C10 C12 1_555 1_555
C13 C17 1_555 1_555
C15 C16 1_555 1_555
C16 C18 1_555 1_555

#END
