
#######################################################################
#
#                 Cambridge Crystallographic Data Centre
#                                CCDC 
#
#######################################################################
#
# If this CIF has been generated from an entry in the Cambridge 
# Structural Database, then it will include bibliographic, chemical, 
# crystal, experimental, refinement or atomic coordinate data resulting 
# from the CCDC's data processing and validation procedures.
#
#######################################################################

data_QITMOW
_symmetry_cell_setting           monoclinic
_symmetry_space_group_name_H-M   'P 21/n'
_symmetry_Int_Tables_number      14
_space_group_name_Hall           '-P 2yn'
loop_
_symmetry_equiv_pos_site_id
_symmetry_equiv_pos_as_xyz
1 x,y,z
2 1/2-x,1/2+y,1/2-z
3 -x,-y,-z
4 1/2+x,1/2-y,1/2+z
_cell_length_a                   14.028(2)
_cell_length_b                   10.4831(15)
_cell_length_c                   18.144(3)
_cell_angle_alpha                90
_cell_angle_beta                 100.028(2)
_cell_angle_gamma                90
_cell_volume                     2627.44
loop_
_atom_site_label
_atom_site_type_symbol
_atom_site_fract_x
_atom_site_fract_y
_atom_site_fract_z
Nd1 Nd 0.60351(3) 0.24861(3) 0.29231(2)
Nd2 Nd 0.65157(3) 0.26973(3) 0.65569(2)
N1 N 0.4833(4) 0.2289(5) 0.3869(3)
N2 N 0.3546(5) 0.2059(6) 0.4878(4)
N3 N 0.5462(4) 0.4259(5) 0.1923(3)
N4 N 0.4897(5) 0.5954(6) 0.0771(4)
N5 N 0.7584(4) 0.4134(5) 0.5884(3)
N6 N 0.8828(5) 0.5575(7) 0.5209(4)
O1 O 0.5486(4) 0.4527(4) 0.3517(3)
O2 O 0.4479(3) 0.5581(4) 0.4126(3)
O3 O 0.5447(4) 0.0326(4) 0.3207(3)
O4 O 0.4642(4) -0.1045(4) 0.3811(3)
O5 O 0.4293(4) 0.2490(4) 0.2283(3)
O6 O 0.3027(3) 0.3311(5) 0.1520(3)
O7 O 0.7258(3) 0.4147(4) 0.2663(3)
O8 O 0.7644(3) 0.5947(5) 0.2107(3)
O9 O 0.6544(4) 0.2252(4) 0.5207(3)
O10 O 0.7074(4) 0.2617(4) 0.4132(3)
O11 O 0.7316(4) 0.4529(5) 0.7265(3)
O12 O 0.8289(4) 0.6263(5) 0.7380(3)
O13 O 0.6103(5) 0.1719(6) 0.1646(3)
H1 H 0.5937 0.2198 0.1262
H2 H 0.6293 0.0951 0.1590
O14 O 0.5267(4) 0.3305(5) 0.7300(3)
H3 H 0.5082 0.4073 0.7439
H4 H 0.4835 0.2730 0.7299
C1 C 0.4491(5) 0.3319(6) 0.4185(4)
C2 C 0.3866(5) 0.3188(7) 0.4684(4)
H5 H 0.3655 0.3920 0.4897
C3 C 0.3877(5) 0.1036(7) 0.4554(4)
H6 H 0.3676 0.0229 0.4674
C4 C 0.4503(5) 0.1141(6) 0.4050(4)
C5 C 0.4864(5) 0.4587(6) 0.3922(4)
C6 C 0.4912(5) 0.0050(6) 0.3649(4)
C7 C 0.4550(5) 0.4261(6) 0.1559(4)
C8 C 0.4270(6) 0.5126(7) 0.0978(4)
H7 H 0.3632 0.5126 0.0729
C9 C 0.5788(6) 0.5943(6) 0.1154(4)
H8 H 0.6238 0.6517 0.1026
C10 C 0.6077(5) 0.5102(6) 0.1741(4)
C11 C 0.3908(5) 0.3276(6) 0.1812(4)
C12 C 0.7089(5) 0.5066(6) 0.2203(4)
C13 C 0.7673(5) 0.3909(6) 0.5180(4)
C14 C 0.8284(6) 0.4639(7) 0.4842(5)
H9 H 0.8324 0.4482 0.4343
C15 C 0.8723(6) 0.5787(7) 0.5914(5)
H10 H 0.9087 0.6431 0.6181
C16 C 0.8094(5) 0.5085(6) 0.6265(4)
C17 C 0.7042(5) 0.2833(6) 0.4808(4)
C18 C 0.7884(5) 0.5302(7) 0.7030(4)
Nd1A Nd 0.89649(3) 0.74861(3) 0.20769(2)
Nd2B Nd 0.34843(3) 0.73027(3) 0.34431(2)
Nd2B_2 Nd 0.34843(3) -0.26973(3) 0.34431(2)
Nd2C Nd 0.15157(3) 0.23027(3) 0.15569(2)
Nd2A Nd 0.84843(3) 0.76973(3) 0.84431(2)
O2B O 0.5521(3) 0.4419(4) 0.5874(3)
O4B O 0.5358(4) 0.1045(4) 0.6189(3)
O6C O 0.8027(3) 0.1689(5) 0.6520(3)
O8A O 0.7356(3) 0.0947(5) 0.2893(3)
O12A O 0.6711(4) 0.1263(5) 0.7620(3)
O15 O 0.5087(5) 0.7758(6) 0.9621(4)
H11 H 0.5145 0.7110 1.0001
H12 H 0.4760 0.8407 0.9848
O16 O 0.4232(4) 0.1478(5) 0.7877(4)
H13 H 0.3767 0.1757 0.7480
H14 H 0.4457 0.0729 0.7754
O17 O 0.7159(11) 0.7405(18) 0.3721(8)
H15 H 0.6899 0.7938 0.4002
H16 H 0.7025 0.6621 0.3843
loop_
_geom_bond_atom_site_label_1
_geom_bond_atom_site_label_2
_geom_bond_site_symmetry_1
_geom_bond_site_symmetry_2
Nd1 N1 1_555 1_555
Nd2 N5 1_555 1_555
N1 C1 1_555 1_555
N2 C2 1_555 1_555
N3 Nd1 1_555 1_555
N4 C8 1_555 1_555
N5 C13 1_555 1_555
N6 C14 1_555 1_555
O1 Nd1 1_555 1_555
O2 C5 1_555 1_555
O3 Nd1 1_555 1_555
O4 C6 1_555 1_555
O5 Nd1 1_555 1_555
O6 C11 1_555 1_555
O7 Nd1 1_555 1_555
O8 C12 1_555 1_555
O9 Nd2 1_555 1_555
O10 Nd1 1_555 1_555
O11 Nd2 1_555 1_555
O12 C18 1_555 1_555
O13 Nd1 1_555 1_555
H1 O13 1_555 1_555
H2 O13 1_555 1_555
O14 Nd2 1_555 1_555
H3 O14 1_555 1_555
H4 O14 1_555 1_555
C1 C2 1_555 1_555
C2 H5 1_555 1_555
C3 N2 1_555 1_555
H6 C3 1_555 1_555
C4 N1 1_555 1_555
C5 O1 1_555 1_555
C6 O3 1_555 1_555
C7 N3 1_555 1_555
C8 C7 1_555 1_555
H7 C8 1_555 1_555
C9 N4 1_555 1_555
H8 C9 1_555 1_555
C10 N3 1_555 1_555
C11 O5 1_555 1_555
C12 O7 1_555 1_555
C13 C14 1_555 1_555
C14 H9 1_555 1_555
C15 N6 1_555 1_555
H10 C15 1_555 1_555
C16 N5 1_555 1_555
C17 O9 1_555 1_555
C18 O11 1_555 1_555
O15 H11 1_555 1_555
H12 O15 1_555 1_555
O16 H13 1_555 1_555
H14 O16 1_555 1_555
O17 H15 1_555 1_555
H16 O17 1_555 1_555
Nd1A O8 1_555 1_555
Nd2B O2 1_555 1_555
Nd2B_2 O4 1_555 1_555
Nd2C O6 1_555 1_555
Nd2A O12 1_555 1_555
O2B Nd2 1_555 1_555
O4B Nd2 1_555 1_555
O6C Nd2 1_555 1_555
O8A Nd1 1_555 1_555
O12A Nd2 1_555 1_555
O10 C17 1_555 1_555
C1 C5 1_555 1_555
C3 C4 1_555 1_555
C4 C6 1_555 1_555
C7 C11 1_555 1_555
C9 C10 1_555 1_555
C10 C12 1_555 1_555
C13 C17 1_555 1_555
C15 C16 1_555 1_555
C16 C18 1_555 1_555

#END
