
#######################################################################
#
#                 Cambridge Crystallographic Data Centre
#                                CCDC 
#
#######################################################################
#
# If this CIF has been generated from an entry in the Cambridge 
# Structural Database, then it will include bibliographic, chemical, 
# crystal, experimental, refinement or atomic coordinate data resulting 
# from the CCDC's data processing and validation procedures.
#
#######################################################################

data_QITNIR
_symmetry_cell_setting           monoclinic
_symmetry_space_group_name_H-M   'P 21/c'
_symmetry_Int_Tables_number      14
_space_group_name_Hall           '-P 2ybc'
loop_
_symmetry_equiv_pos_site_id
_symmetry_equiv_pos_as_xyz
1 x,y,z
2 -x,1/2+y,1/2-z
3 -x,-y,-z
4 x,1/2-y,1/2+z
_cell_length_a                   13.598(3)
_cell_length_b                   16.375(4)
_cell_length_c                   10.267(2)
_cell_angle_alpha                90
_cell_angle_beta                 96.639(4)
_cell_angle_gamma                90
_cell_volume                     2270.79
loop_
_atom_site_label
_atom_site_type_symbol
_atom_site_fract_x
_atom_site_fract_y
_atom_site_fract_z
Co1 Co 0.85757(6) 0.81194(5) 0.23434(9)
O1 O 0.8534(3) 0.7640(3) 0.0280(4)
O2 O 0.8594(3) 0.8013(3) -0.1796(4)
O3 O 0.8574(3) 0.9148(3) 0.3604(4)
O4 O 0.8516(6) 1.0508(3) 0.3683(5)
N1 N 0.8607(4) 0.9121(3) 0.1120(5)
N2 N 0.8765(7) 1.0471(4) -0.0423(7)
N3 N 0.6978(4) 0.8079(4) 0.2184(6)
N4 N 0.0158(4) 0.8053(3) 0.2581(5)
C1 C 0.8585(4) 0.8159(4) -0.0611(6)
C2 C 0.8640(5) 0.9045(4) -0.0166(7)
C3 C 0.8711(7) 0.9733(5) -0.0924(8)
H1 H 0.8721 0.9672 -0.1823
C4 C 0.8725(7) 1.0535(5) 0.0863(9)
H2 H 0.8744 1.1053 0.1239
C5 C 0.8656(5) 0.9866(4) 0.1655(7)
C6 C 0.8580(6) 0.9858(5) 0.3125(7)
C7 C 0.6482(11) 0.8592(11) 0.2985(15)
H3 H 0.6841 0.8941 0.3577
C8 C 0.5484(11) 0.8582(11) 0.2900(17)
H4 H 0.5166 0.8918 0.3449
C9 C 0.5438(14) 0.7505(12) 0.147(2)
H5 H 0.5121 0.7061 0.1038
C10 C 0.6460(12) 0.7548(10) 0.1550(19)
H6 H 0.6784 0.7156 0.1103
C15 C 0.4896(6) 0.8057(7) 0.1971(9)
C16 C 0.3785(6) 0.8077(7) 0.1842(9)
H11 H 0.3568 0.8622 0.1571
H12 H 0.3535 0.7704 0.1148
C17 C 0.3345(6) 0.7870(6) 0.2995(9)
H13 H 0.3620 0.8221 0.3707
H14 H 0.3520 0.7312 0.3237
C18 C 0.2219(5) 0.7952(5) 0.2834(7)
C19 C 0.1752(5) 0.8523(5) 0.3531(7)
H15 H 0.2119 0.8886 0.4089
C20 C 0.0731(5) 0.8550(5) 0.3389(7)
H16 H 0.0423 0.8931 0.3878
C21 C 0.0621(5) 0.7508(4) 0.1911(7)
H17 H 0.0243 0.7152 0.1352
C22 C 0.1632(5) 0.7447(5) 0.2011(8)
H18 H 0.1923 0.7060 0.1514
Co1C Co 0.85757(6) 0.68806(5) 0.73434(9)
Co1C_2 Co 0.85757(6) 0.68806(5) -0.26566(9)
Co1_2 Co -0.14243(6) 0.81194(5) 0.23434(9)
Co1_3 Co 1.85757(6) 0.81194(5) 0.23434(9)
O1C O 0.8534(3) 0.7360(3) 0.5280(4)
O2C O 0.8594(3) 0.6987(3) 0.3204(4)
O2_2 O 0.8594(3) 0.8013(3) 0.8204(4)
O3C O 0.8574(3) 0.5852(3) 0.8604(4)
O4C O 0.8516(6) 0.4492(3) 0.8683(5)
N1C N 0.8607(4) 0.5879(3) 0.6120(5)
N2C N 0.8765(7) 0.4529(4) 0.4577(7)
N3_2 N 1.6978(4) 0.8079(4) 0.2184(6)
N3C N 0.6978(4) 0.6921(4) 0.7184(6)
N4_2 N 1.0158(4) 0.8053(3) 0.2581(5)
N4C N 1.0158(4) 0.6947(3) 0.7581(5)
C1C C 0.8585(4) 0.6841(4) 0.4389(6)
C2C C 0.8640(5) 0.5955(4) 0.4834(7)
C3C C 0.8711(7) 0.5267(5) 0.4076(8)
H1C H 0.8721 0.5328 0.3177
C4C C 0.8725(7) 0.4465(5) 0.5863(9)
H2C H 0.8744 0.3947 0.6239
C5C C 0.8656(5) 0.5134(4) 0.6655(7)
C6C C 0.8580(6) 0.5142(5) 0.8125(7)
C7_2 C 1.6482(11) 0.8592(11) 0.2985(15)
H3_2 H 1.6841 0.8941 0.3577
C8_2 C 1.5484(11) 0.8582(11) 0.2900(17)
H4_2 H 1.5166 0.8918 0.3449
C9_2 C 1.5438(14) 0.7505(12) 0.147(2)
H5_2 H 1.5121 0.7061 0.1038
C10_2 C 1.6460(12) 0.7548(10) 0.1550(19)
H6_2 H 1.6784 0.7156 0.1103
C15_2 C 1.4896(6) 0.8057(7) 0.1971(9)
C16_2 C 1.3785(6) 0.8077(7) 0.1842(9)
H11_2 H 1.3568 0.8622 0.1571
H12_2 H 1.3535 0.7704 0.1148
C17_2 C 1.3345(6) 0.7870(6) 0.2995(9)
H13_2 H 1.3620 0.8221 0.3707
H14_2 H 1.3520 0.7312 0.3237
C18_2 C 1.2219(5) 0.7952(5) 0.2834(7)
C19_2 C 1.1752(5) 0.8523(5) 0.3531(7)
H15_2 H 1.2119 0.8886 0.4089
C20_2 C 1.0731(5) 0.8550(5) 0.3389(7)
H16_2 H 1.0423 0.8931 0.3878
C21_2 C 1.0621(5) 0.7508(4) 0.1911(7)
H17_2 H 1.0243 0.7152 0.1352
C22_2 C 1.1632(5) 0.7447(5) 0.2011(8)
H18_2 H 1.1923 0.7060 0.1514
N5 N 0.527(3) 0.450(2) 0.9500(16)
C23 C 0.433(2) 0.4565(19) 0.882(2)
C24 C 0.4211(16) 0.4533(17) 0.746(2)
C25 C 0.503(2) 0.4432(16) 0.6776(15)
C26 C 0.5969(17) 0.436(2) 0.746(3)
C27 C 0.609(2) 0.439(2) 0.882(3)
C28 C 0.508(2) 0.4624(8) 0.5387(18)
N5B N 0.473(3) 0.550(2) 0.0500(16)
C23B C 0.567(2) 0.5435(19) 0.118(2)
C24B C 0.5789(16) 0.5467(17) 0.254(2)
C25B C 0.497(2) 0.5568(16) 0.3224(15)
C26B C 0.4031(17) 0.564(2) 0.254(3)
C27B C 0.391(2) 0.561(2) 0.118(3)
C28B C 0.492(2) 0.5376(8) 0.4613(18)
O9 O 0.7988(7) 0.9217(4) 0.6094(6)
H19 H 0.8135 0.8666 0.6361
H20 H 0.8483 0.9484 0.5825
C11? C 0.6538(17) 0.8026(15) 0.312(2)
H7? H 0.6898 0.8041 0.3942
C12? C 0.5448(18) 0.7937(16) 0.304(2)
H8? H 0.5163 0.7791 0.3784
C13? C 0.5386(15) 0.7989(15) 0.091(2)
H9? H 0.5032 0.7924 0.0081
C14? C 0.6398(16) 0.8013(15) 0.103(2)
H10? H 0.6707 0.7982 0.0265
O5? O 0.360(2) 0.4830(19) 0.876(3)
O6? O 0.637(2) 0.4133(18) 0.890(3)
O7? O 0.433(3) 0.465(3) 0.601(5)
O8? O 0.594(3) 0.458(3) 0.629(4)
loop_
_geom_bond_atom_site_label_1
_geom_bond_atom_site_label_2
_geom_bond_site_symmetry_1
_geom_bond_site_symmetry_2
Co1 O1 1_555 1_555
O1 C1 1_555 1_555
O2 C1 1_555 1_555
O3 Co1 1_555 1_555
O4 C6 1_555 1_555
N1 Co1 1_555 1_555
N2 C3 1_555 1_555
N3 Co1 1_555 1_555
N4 C20 1_555 1_555
C1 C2 1_555 1_555
C2 N1 1_555 1_555
C3 C2 1_555 1_555
H1 C3 1_555 1_555
C4 N2 1_555 1_555
H2 C4 1_555 1_555
C5 N1 1_555 1_555
C6 O3 1_555 1_555
C7 N3 1_555 1_555
H3 C7 1_555 1_555
C8 C7 1_555 1_555
H4 C8 1_555 1_555
C9 H5 1_555 1_555
C10 N3 1_555 1_555
H6 C10 1_555 1_555
C15 C8 1_555 1_555
C16 C15 1_555 1_555
H11 C16 1_555 1_555
H12 C16 1_555 1_555
C17 C16 1_555 1_555
H13 C17 1_555 1_555
H14 C17 1_555 1_555
C18 C17 1_555 1_555
C19 C18 1_555 1_555
H15 C19 1_555 1_555
C20 C19 1_555 1_555
H16 C20 1_555 1_555
C21 N4 1_555 1_555
H17 C21 1_555 1_555
C22 C18 1_555 1_555
H18 C22 1_555 1_555
N5 C23 1_555 1_555
C23 C24 1_555 1_555
C24 C25 1_555 1_555
C25 C26 1_555 1_555
C26 C27 1_555 1_555
C27 N5 1_555 1_555
C28 C25 1_555 1_555
O9 H19 1_555 1_555
H20 O9 1_555 1_555
Co1C O1C 1_555 1_555
Co1C_2 O2 1_555 1_555
Co1_2 N4 1_555 1_555
Co1_3 N3_2 1_555 1_555
O1C C1C 1_555 1_555
O2C Co1 1_555 1_555
O2_2 Co1C 1_555 1_555
O3C Co1C 1_555 1_555
O4C C6C 1_555 1_555
N1C Co1C 1_555 1_555
N2C C3C 1_555 1_555
N3_2 C7_2 1_555 1_555
N3C Co1C 1_555 1_555
N4_2 Co1 1_555 1_555
N4C Co1C 1_555 1_555
C1C O2C 1_555 1_555
C2C N1C 1_555 1_555
C3C C2C 1_555 1_555
H1C C3C 1_555 1_555
C4C N2C 1_555 1_555
H2C C4C 1_555 1_555
C5C N1C 1_555 1_555
C6C O3C 1_555 1_555
C7_2 H3_2 1_555 1_555
C8_2 C7_2 1_555 1_555
H4_2 C8_2 1_555 1_555
C9_2 H5_2 1_555 1_555
C10_2 N3_2 1_555 1_555
H6_2 C10_2 1_555 1_555
C15_2 C8_2 1_555 1_555
C16_2 C15_2 1_555 1_555
H11_2 C16_2 1_555 1_555
H12_2 C16_2 1_555 1_555
C17_2 C16_2 1_555 1_555
H13_2 C17_2 1_555 1_555
H14_2 C17_2 1_555 1_555
C18_2 C17_2 1_555 1_555
C19_2 C18_2 1_555 1_555
H15_2 C19_2 1_555 1_555
C20_2 N4_2 1_555 1_555
H16_2 C20_2 1_555 1_555
C21_2 N4_2 1_555 1_555
H17_2 C21_2 1_555 1_555
C22_2 C18_2 1_555 1_555
H18_2 C22_2 1_555 1_555
N5B C23B 1_555 1_555
C23B C24B 1_555 1_555
C24B C25B 1_555 1_555
C25B C26B 1_555 1_555
C26B C27B 1_555 1_555
C27B N5B 1_555 1_555
C28B C28 1_555 1_555
C4 C5 1_555 1_555
C5 C6 1_555 1_555
C9 C10 1_555 1_555
C9 C15 1_555 1_555
C21 C22 1_555 1_555
C1C C2C 1_555 1_555
C4C C5C 1_555 1_555
C5C C6C 1_555 1_555
C9_2 C10_2 1_555 1_555
C9_2 C15_2 1_555 1_555
C19_2 C20_2 1_555 1_555
C21_2 C22_2 1_555 1_555
C25B C28B 1_555 1_555

#END
