
#######################################################################
#
#                 Cambridge Crystallographic Data Centre
#                                CCDC 
#
#######################################################################
#
# If this CIF has been generated from an entry in the Cambridge 
# Structural Database, then it will include bibliographic, chemical, 
# crystal, experimental, refinement or atomic coordinate data resulting 
# from the CCDC's data processing and validation procedures.
#
#######################################################################

data_QITNIS
_symmetry_cell_setting           monoclinic
_symmetry_space_group_name_H-M   'C 2/c'
_symmetry_Int_Tables_number      15
_space_group_name_Hall           '-C 2yn'
loop_
_symmetry_equiv_pos_site_id
_symmetry_equiv_pos_as_xyz
1 x,y,z
2 -x,y,1/2-z
3 1/2+x,1/2+y,z
4 1/2-x,1/2+y,1/2-z
5 -x,-y,-z
6 x,-y,1/2+z
7 1/2-x,1/2-y,-z
8 1/2+x,1/2-y,1/2+z
_cell_length_a                   11.531(4)
_cell_length_b                   15.837(6)
_cell_length_c                   9.486(3)
_cell_angle_alpha                90
_cell_angle_beta                 98.501(7)
_cell_angle_gamma                90
_cell_volume                     1713.27
loop_
_atom_site_label
_atom_site_type_symbol
_atom_site_fract_x
_atom_site_fract_y
_atom_site_fract_z
Mn1 Mn 0.5000 0.09791(13) 0.7500
O1 O 0.4116(6) 0.0858(4) 0.5330(6)
O2 O 0.4028(5) 0.0045(4) 0.3409(6)
C1 C 0.4460(7) 0.0259(6) 0.4634(9)
N1 N 0.3744(8) 0.1979(5) 0.7903(9)
N2 N 0.3087(12) 0.3157(7) 0.8652(17)
C2 C 0.3004(19) 0.3848(13) 0.960(2)
H1 H 0.2864 0.3623 1.0507
H2 H 0.2325 0.4184 0.9218
C3 C 0.4086(13) 0.4439(8) 0.986(2)
C4 C 0.3827(12) 0.2481(10) 0.8937(14)
H3 H 0.4329 0.2404 0.9790
C5 C 0.2907(15) 0.2303(10) 0.6950(15)
H4 H 0.2617 0.2039 0.6094
C6 C 0.2536(18) 0.3022(11) 0.733(2)
H5 H 0.1996 0.3375 0.6796
C7 C 0.394(2) 0.5140(15) 1.013(4)
H6 H 0.3194 0.5347 1.0164
C8 C 0.490(3) 0.5664(19) 1.042(5)
H7 H 0.4776 0.6165 1.0882
O1D O 0.5884(6) -0.0858(4) 0.4670(6)
O2D O 0.5972(5) -0.0045(4) 0.6591(6)
C1D C 0.5540(7) -0.0259(6) 0.5366(9)
N1D N 0.6256(8) 0.8021(5) 1.2097(9)
N2D N 0.6913(12) 0.6843(7) 1.1348(17)
C2D C 0.6996(19) 0.6152(13) 1.040(2)
H1D H 0.7136 0.6377 0.9493
H2D H 0.7675 0.5816 1.0782
C3D C 0.5914(13) 0.5561(8) 1.014(2)
C4D C 0.6173(12) 0.7519(10) 1.1063(14)
H3D H 0.5671 0.7596 1.0210
C5D C 0.7093(15) 0.7697(10) 1.3050(15)
H4D H 0.7383 0.7961 1.3906
C6D C 0.7464(18) 0.6978(11) 1.267(2)
H5D H 0.8004 0.6625 1.3204
C7D C 0.606(2) 0.4860(15) 0.987(4)
H6D H 0.6806 0.4653 0.9836
C8D C 0.510(3) 0.4336(19) 0.958(5)
H7D H 0.5224 0.3835 0.9118
Mn1D Mn 0.5000 -0.09791(13) 0.2500
Mn1D_2 Mn 0.5000 0.90209(13) 1.2500
O1A O 0.5884(6) 0.0858(4) 0.9670(6)
O2E O 0.4028(5) -0.0045(4) 0.8409(6)
N1A N 0.6256(8) 0.1979(5) 0.7097(9)
loop_
_geom_bond_atom_site_label_1
_geom_bond_atom_site_label_2
_geom_bond_site_symmetry_1
_geom_bond_site_symmetry_2
Mn1 O1 1_555 1_555
O1 C1 1_555 1_555
O2 C1 1_555 1_555
C1 C1D 1_555 1_555
N1 Mn1 1_555 1_555
N2 C2 1_555 1_555
C2 H1 1_555 1_555
H2 C2 1_555 1_555
C3 C2 1_555 1_555
C4 N1 1_555 1_555
H3 C4 1_555 1_555
C5 N1 1_555 1_555
H4 C5 1_555 1_555
C6 N2 1_555 1_555
H5 C6 1_555 1_555
C7 C3 1_555 1_555
H6 C7 1_555 1_555
C8 C7 1_555 1_555
H7 C8 1_555 1_555
O1D C1D 1_555 1_555
O2D Mn1 1_555 1_555
C1D O2D 1_555 1_555
N1D C4D 1_555 1_555
N2D C2D 1_555 1_555
C2D H1D 1_555 1_555
H2D C2D 1_555 1_555
C3D C8 1_555 1_555
C4D N2D 1_555 1_555
H3D C4D 1_555 1_555
C5D N1D 1_555 1_555
H4D C5D 1_555 1_555
C6D N2D 1_555 1_555
H5D C6D 1_555 1_555
C7D C3D 1_555 1_555
H6D C7D 1_555 1_555
C8D C3 1_555 1_555
H7D C8D 1_555 1_555
Mn1D O2 1_555 1_555
Mn1D_2 N1D 1_555 1_555
O1A Mn1 1_555 1_555
O2E Mn1 1_555 1_555
N1A Mn1 1_555 1_555
N2 C4 1_555 1_555
C5 C6 1_555 1_555
O1D Mn1D 1_555 1_555
C2D C3D 1_555 1_555
C5D C6D 1_555 1_555
C7D C8D 1_555 1_555

#END
