
#######################################################################
#
#                 Cambridge Crystallographic Data Centre
#                                CCDC 
#
#######################################################################
#
# If this CIF has been generated from an entry in the Cambridge 
# Structural Database, then it will include bibliographic, chemical, 
# crystal, experimental, refinement or atomic coordinate data resulting 
# from the CCDC's data processing and validation procedures.
#
#######################################################################

data_QITNEN
_symmetry_cell_setting           monoclinic
_symmetry_space_group_name_H-M   'C 2/c'
_symmetry_Int_Tables_number      15
_space_group_name_Hall           '-C 2yn'
loop_
_symmetry_equiv_pos_site_id
_symmetry_equiv_pos_as_xyz
1 x,y,z
2 1/2+x,1/2+y,z
3 -x,y,1/2-z
4 1/2-x,1/2+y,1/2-z
5 -x,-y,-z
6 1/2-x,1/2-y,-z
7 x,-y,1/2+z
8 1/2+x,1/2-y,1/2+z
_cell_length_a                   19.214(9)
_cell_length_b                   8.652(4)
_cell_length_c                   13.266(6)
_cell_angle_alpha                90.00
_cell_angle_beta                 132.06(3)
_cell_angle_gamma                90.00
_cell_volume                     1637.34
loop_
_atom_site_label
_atom_site_type_symbol
_atom_site_fract_x
_atom_site_fract_y
_atom_site_fract_z
Mn1 Mn 0.04206(3) 0.00823(5) 0.40828(4)
O1 O 0.03711(15) 0.1333(2) 0.5571(2)
O2 O 0.0795(2) 0.3414(3) 0.6871(3)
O3 O 0.08912(15) 0.0797(3) 0.2815(2)
O4 O 0.16868(17) 0.2467(3) 0.2628(2)
O5 O 0.0000 -0.1773(4) 0.2500
H1 H -0.0522 -0.2412 0.2210
H2 H 0.0522 -0.2412 0.2790
O6 O 0.16527(16) -0.1225(3) 0.5689(2)
N1 N 0.10662(18) 0.2499(3) 0.4584(2)
N2 N 0.1741(2) 0.5504(3) 0.5158(3)
C1 C 0.0733(2) 0.2667(4) 0.6024(3)
C2 C 0.1104(2) 0.3382(4) 0.5442(3)
C3 C 0.1443(3) 0.4879(4) 0.5726(4)
H3 H 0.1462 0.5465 0.6332
C4 C 0.1732(2) 0.4602(4) 0.4343(3)
H4 H 0.1959 0.4989 0.3956
C5 C 0.1394(2) 0.3098(4) 0.4046(3)
C6 C 0.1330(2) 0.2047(4) 0.3079(3)
H5 H 0.164(3) -0.144(4) 0.630(3)
H6 H 0.173(3) -0.200(3) 0.538(4)
Mn1D Mn -0.04206(3) -0.00823(5) 0.59172(4)
Mn1B Mn -0.04206(3) 0.00823(5) 0.09172(4)
Mn1F Mn 0.04206(3) -0.00823(5) 0.90828(4)
O1D O -0.03711(15) -0.1333(2) 0.4429(2)
O2D O -0.0795(2) -0.3414(3) 0.3129(3)
O3D O -0.08912(15) -0.0797(3) 0.7185(2)
O3B O -0.08912(15) 0.0797(3) 0.2185(2)
O3F O 0.08912(15) -0.0797(3) 0.7815(2)
O4D O -0.16868(17) -0.2467(3) 0.7372(2)
O5F O 0.0000 0.1773(4) 0.7500
H1F H -0.0522 0.2412 0.7210
H1D H 0.0522 0.2412 0.7790
O6D O -0.16527(16) 0.1225(3) 0.4311(2)
N1D N -0.10662(18) -0.2499(3) 0.5416(2)
N2D N -0.1741(2) -0.5504(3) 0.4842(3)
C1D C -0.0733(2) -0.2667(4) 0.3976(3)
C2D C -0.1104(2) -0.3382(4) 0.4558(3)
C3D C -0.1443(3) -0.4879(4) 0.4274(4)
H3D H -0.1462 -0.5465 0.3668
C4D C -0.1732(2) -0.4602(4) 0.5657(3)
H4D H -0.1959 -0.4989 0.6044
C5D C -0.1394(2) -0.3098(4) 0.5954(3)
C6D C -0.1330(2) -0.2047(4) 0.6921(3)
H5D H -0.164(3) 0.144(4) 0.370(3)
H6D H -0.173(3) 0.200(3) 0.462(4)
loop_
_geom_bond_atom_site_label_1
_geom_bond_atom_site_label_2
_geom_bond_site_symmetry_1
_geom_bond_site_symmetry_2
Mn1 O1 1_555 1_555
O1 C1 1_555 1_555
O2 C1 1_555 1_555
O3 Mn1 1_555 1_555
O4 C6 1_555 1_555
O5 Mn1 1_555 1_555
H1 O5 1_555 1_555
H2 O5 1_555 1_555
O6 Mn1 1_555 1_555
N1 Mn1 1_555 1_555
N2 C3 1_555 1_555
C1 C2 1_555 1_555
C2 N1 1_555 1_555
C3 C2 1_555 1_555
H3 C3 1_555 1_555
C4 N2 1_555 1_555
H4 C4 1_555 1_555
C5 N1 1_555 1_555
C6 O3 1_555 1_555
H5 O6 1_555 1_555
H6 O6 1_555 1_555
Mn1D O1 1_555 1_555
Mn1B O3 1_555 1_555
Mn1F O3D 1_555 1_555
O1D Mn1 1_555 1_555
O2D C1D 1_555 1_555
O3D Mn1D 1_555 1_555
O3B Mn1 1_555 1_555
O3F Mn1D 1_555 1_555
O4D C6D 1_555 1_555
O5F Mn1D 1_555 1_555
H1F O5F 1_555 1_555
H1D O5F 1_555 1_555
O6D Mn1D 1_555 1_555
N1D Mn1D 1_555 1_555
N2D C3D 1_555 1_555
C1D O1D 1_555 1_555
C2D N1D 1_555 1_555
C3D C2D 1_555 1_555
H3D C3D 1_555 1_555
C4D N2D 1_555 1_555
H4D C4D 1_555 1_555
C5D N1D 1_555 1_555
C6D O3D 1_555 1_555
H5D O6D 1_555 1_555
H6D O6D 1_555 1_555
O5 Mn1B 1_555 1_555
C4 C5 1_555 1_555
C5 C6 1_555 1_555
Mn1D O1D 1_555 1_555
Mn1B O3B 1_555 1_555
Mn1F O3F 1_555 1_555
Mn1F O5F 1_555 1_555
C1D C2D 1_555 1_555
C4D C5D 1_555 1_555
C5D C6D 1_555 1_555

#END
