
#######################################################################
#
#                 Cambridge Crystallographic Data Centre
#                                CCDC 
#
#######################################################################
#
# If this CIF has been generated from an entry in the Cambridge 
# Structural Database, then it will include bibliographic, chemical, 
# crystal, experimental, refinement or atomic coordinate data resulting 
# from the CCDC's data processing and validation procedures.
#
#######################################################################

data_QITROA
_symmetry_cell_setting           monoclinic
_symmetry_space_group_name_H-M   'P 21/n'
_symmetry_Int_Tables_number      14
_space_group_name_Hall           '-P 2yn'
loop_
_symmetry_equiv_pos_site_id
_symmetry_equiv_pos_as_xyz
1 x,y,z
2 1/2+x,1/2-y,1/2+z
3 -x,-y,-z
4 1/2-x,1/2+y,1/2-z
_cell_length_a                   10.0172(2)
_cell_length_b                   8.85050(10)
_cell_length_c                   24.3125(6)
_cell_angle_alpha                90
_cell_angle_beta                 95.7700(10)
_cell_angle_gamma                90
_cell_volume                     2144.56
loop_
_atom_site_label
_atom_site_type_symbol
_atom_site_fract_x
_atom_site_fract_y
_atom_site_fract_z
Cu1 Cu 0.31934(3) 0.63796(3) 0.189154(12)
Cu2 Cu 0.69164(3) 0.62975(3) 0.354040(11)
O1 O 0.2427(2) 0.5802(2) 0.25641(9)
H1 H 0.2690(37) 0.6003(42) 0.2845(15)
H2 H 0.1878(31) 0.5125(35) 0.2574(12)
O2 O 0.5616(2) 0.5088(2) 0.39198(8)
H3 H 0.5615(35) 0.4235(44) 0.3914(15)
H4 H 0.4864(33) 0.5394(35) 0.3842(13)
O3 O 0.1452(2) 0.7455(2) 0.16318(7)
O4 O 0.1191(2) 0.5182(2) 0.12965(8)
O5 O -0.0400(2) 0.6853(2) 0.11294(9)
O6 O 0.7150(2) 0.4637(2) 0.30136(7)
O7 O 0.8466(2) 0.4078(2) 0.37500(8)
O8 O 0.8150(2) 0.2450(2) 0.30739(8)
O9 O 0.5232(2) 0.6903(2) 0.29031(7)
O10 O 0.5725(2) 0.9297(2) 0.29082(7)
O11 O 0.4114(2) 0.8420(2) 0.23220(7)
N1 N 0.3947(2) 0.6912(2) 0.11813(8)
N2 N 0.4589(2) 0.4700(2) 0.19043(8)
N3 N 0.6575(2) 0.2576(2) 0.17175(8)
N4 N 0.8025(2) 0.2870(2) 0.08590(8)
N5 N 0.0722(2) 0.6463(2) 0.13474(9)
N6 N 0.7950(2) 0.3683(2) 0.32834(9)
N7 N 0.5052(2) 0.8218(2) 0.27230(8)
C1 C 0.3588(2) 0.8037(3) 0.08314(10)
H5 H 0.2897(2) 0.8680(3) 0.09086(10)
C2 C 0.4224(2) 0.8276(3) 0.03510(10)
H6 H 0.3944(2) 0.9060(3) 0.01123(10)
C3 C 0.5266(2) 0.7350(3) 0.02308(10)
H7 H 0.5694(2) 0.7509(3) -0.00866(10)
C4 C 0.5673(2) 0.6163(2) 0.05956(9)
C5 C 0.4971(2) 0.5990(2) 0.10632(9)
C6 C 0.5298(2) 0.4796(2) 0.14560(9)
C7 C 0.4871(2) 0.3544(3) 0.22436(9)
H8 H 0.4409(2) 0.3444(3) 0.25549(9)
C8 C 0.5861(2) 0.2454(3) 0.21438(10)
H9 H 0.6008(2) 0.1638(3) 0.23833(10)
C9 C 0.6298(2) 0.3779(2) 0.13704(9)
C10 C 0.7054(2) 0.3933(2) 0.09005(9)
C11 C 0.6771(2) 0.5108(3) 0.05146(9)
C12 C 0.7564(2) 0.5168(3) 0.00703(10)
H10 H 0.7426(2) 0.5923(3) -0.01954(10)
C13 C 0.8550(2) 0.4095(3) 0.00322(10)
H11 H 0.9079(2) 0.4126(3) -0.02609(10)
C14 C 0.8758(2) 0.2959(3) 0.04331(10)
H12 H 0.9429(2) 0.2247(3) 0.04006(10)
N3C N 0.8425(2) 0.7576(2) 0.32825(8)
N4C N 0.6975(2) 0.7870(2) 0.41410(8)
Cu2C Cu 0.80836(3) 0.12975(3) 0.145960(11)
O12 O 0.6435(2) 0.7708(3) -0.10547(9)
O13 O 0.8164(2) 0.8808(2) -0.13436(8)
O14 O 0.8002(2) 0.8586(2) -0.04670(7)
N8 N 0.7520(2) 0.8357(2) -0.09516(9)
loop_
_geom_bond_atom_site_label_1
_geom_bond_atom_site_label_2
_geom_bond_site_symmetry_1
_geom_bond_site_symmetry_2
Cu1 O1 1_555 1_555
Cu2 O2 1_555 1_555
O1 H1 1_555 1_555
H2 O1 1_555 1_555
O2 H3 1_555 1_555
H4 O2 1_555 1_555
O3 Cu1 1_555 1_555
O4 Cu1 1_555 1_555
O5 N5 1_555 1_555
O6 Cu2 1_555 1_555
O7 Cu2 1_555 1_555
O8 N6 1_555 1_555
O9 Cu2 1_555 1_555
O10 N7 1_555 1_555
O11 Cu1 1_555 1_555
O12 N8 1_555 1_555
O13 N8 1_555 1_555
O14 N8 1_555 1_555
N1 Cu1 1_555 1_555
N2 Cu1 1_555 1_555
N3 C8 1_555 1_555
N4 C10 1_555 1_555
N5 O3 1_555 1_555
N6 O6 1_555 1_555
N7 O9 1_555 1_555
C1 N1 1_555 1_555
H5 C1 1_555 1_555
C2 C1 1_555 1_555
H6 C2 1_555 1_555
C3 C2 1_555 1_555
H7 C3 1_555 1_555
C4 C3 1_555 1_555
C5 N1 1_555 1_555
C6 N2 1_555 1_555
C7 N2 1_555 1_555
H8 C7 1_555 1_555
C8 C7 1_555 1_555
H9 C8 1_555 1_555
C9 N3 1_555 1_555
C10 C9 1_555 1_555
C11 C4 1_555 1_555
C12 C11 1_555 1_555
H10 C12 1_555 1_555
C13 C12 1_555 1_555
H11 C13 1_555 1_555
C14 N4 1_555 1_555
H12 C14 1_555 1_555
N3C Cu2 1_555 1_555
N4C Cu2 1_555 1_555
Cu2C N3 1_555 1_555
O4 N5 1_555 1_555
O7 N6 1_555 1_555
O11 N7 1_555 1_555
N4 Cu2C 1_555 1_555
C4 C5 1_555 1_555
C5 C6 1_555 1_555
C6 C9 1_555 1_555
C10 C11 1_555 1_555
C13 C14 1_555 1_555

#END
