
#######################################################################
#
#                 Cambridge Crystallographic Data Centre
#                                CCDC 
#
#######################################################################
#
# If this CIF has been generated from an entry in the Cambridge 
# Structural Database, then it will include bibliographic, chemical, 
# crystal, experimental, refinement or atomic coordinate data resulting 
# from the CCDC's data processing and validation procedures.
#
#######################################################################

data_QITRUG
_symmetry_cell_setting           monoclinic
_symmetry_space_group_name_H-M   'P 2/n'
_symmetry_Int_Tables_number      13
_space_group_name_Hall           '-P 2yac'
loop_
_symmetry_equiv_pos_site_id
_symmetry_equiv_pos_as_xyz
1 x,y,z
2 1/2+x,-y,1/2+z
3 -x,-y,-z
4 1/2-x,y,1/2-z
_cell_length_a                   13.954(2)
_cell_length_b                   12.0954(14)
_cell_length_c                   21.334(3)
_cell_angle_alpha                90
_cell_angle_beta                 98.300(2)
_cell_angle_gamma                90
_cell_volume                     3563.02
loop_
_atom_site_label
_atom_site_type_symbol
_atom_site_fract_x
_atom_site_fract_y
_atom_site_fract_z
Cu1 Cu 0.3883(2) 0.2770(2) 0.18353(10)
Cu2 Cu 0.6799(2) 0.2613(2) 0.47280(10)
Cl1 Cl 0.2792(5) 0.3220(5) 0.0982(3)
Cl2 Cl 0.2500 0.1967(7) 0.2500
Cl3 Cl 0.7358(4) 0.2922(4) 0.5767(2)
Cl4 Cl 0.5251(10) 0.1586(11) 0.5013(6)
N1 N 0.3907(10) 0.4248(11) 0.2258(6)
N2 N 0.4810(10) 0.2401(12) 0.2666(7)
N3 N 0.6006(9) 0.2351(11) 0.3839(6)
N4 N 0.6176(10) 0.4113(12) 0.4576(7)
N5 N 0.4200(11) 0.1283(11) 0.1462(7)
N6 N 0.5242(10) 0.3139(11) 0.1365(6)
N7 N 0.6891(10) 0.3084(11) 0.0768(7)
N8 N 0.7502(11) 0.1150(12) 0.0294(7)
C1 C 0.3451(13) 0.5217(14) 0.2013(9)
H1 H 0.3061(13) 0.5195(14) 0.1621(9)
C2 C 0.3564(13) 0.6185(15) 0.2333(9)
H2 H 0.3279(13) 0.6829(15) 0.2155(9)
C3 C 0.4107(13) 0.6206(16) 0.2925(9)
H3 H 0.4171(13) 0.6869(16) 0.3148(9)
C4 C 0.4550(12) 0.5293(14) 0.3193(8)
C5 C 0.4415(11) 0.4310(13) 0.2830(8)
C6 C 0.4897(11) 0.3340(13) 0.3043(8)
C7 C 0.5302(12) 0.1533(15) 0.2862(8)
H4 H 0.5264(12) 0.0912(15) 0.2603(8)
C8 C 0.5901(12) 0.1493(15) 0.3461(8)
H5 H 0.6226(12) 0.0841(15) 0.3587(8)
C9 C 0.5491(11) 0.3287(13) 0.3620(7)
C10 C 0.5622(12) 0.4252(14) 0.4018(8)
C11 C 0.5134(12) 0.5210(14) 0.3817(8)
C12 C 0.5303(13) 0.6125(15) 0.4227(9)
H6 H 0.5005(13) 0.6798(15) 0.4112(9)
C13 C 0.5908(12) 0.6033(15) 0.4799(9)
H7 H 0.6024(12) 0.6636(15) 0.5070(9)
C14 C 0.6331(12) 0.5030(14) 0.4955(9)
H8 H 0.6743(12) 0.4966(14) 0.5337(9)
C15 C 0.3629(13) 0.0388(15) 0.1524(9)
H9 H 0.3080(13) 0.0436(15) 0.1723(9)
C16 C 0.3916(14) -0.0623(17) 0.1267(10)
H10 H 0.3535(14) -0.1243(17) 0.1307(10)
C17 C 0.4697(12) -0.0752(15) 0.0971(8)
H11 H 0.4859(12) -0.1430(15) 0.0810(8)
C18 C 0.5257(13) 0.0211(14) 0.0921(9)
C19 C 0.4989(12) 0.1216(13) 0.1175(8)
C20 C 0.5541(12) 0.2196(14) 0.1118(8)
C21 C 0.5785(12) 0.4016(15) 0.1320(8)
H12 H 0.5615(12) 0.4674(15) 0.1501(8)
C22 C 0.6581(12) 0.4006(15) 0.1022(8)
H13 H 0.6922(12) 0.4661(15) 0.0993(8)
C23 C 0.6378(12) 0.2166(14) 0.0816(8)
C24 C 0.6684(14) 0.1137(15) 0.0568(9)
C25 C 0.6124(13) 0.0159(14) 0.0618(9)
C26 C 0.6492(14) -0.0796(17) 0.0382(9)
H14 H 0.6188(14) -0.1471(17) 0.0421(9)
C27 C 0.7313(15) -0.0742(19) 0.0087(10)
H15 H 0.7535(15) -0.1372(19) -0.0097(10)
C28 C 0.7800(14) 0.0243(16) 0.0065(9)
H16 H 0.8364(14) 0.0257(16) -0.0120(9)
Cu1C Cu 0.1117(2) 0.2770(2) 0.31647(10)
Cu2C Cu 0.8201(2) 0.2613(2) 0.02720(10)
N5C N 1.0800(11) 0.1283(11) 0.3538(7)
N6C N 0.9758(10) 0.3139(11) 0.3635(6)
N7C N 0.8109(10) 0.3084(11) 0.4232(7)
N8C N 0.7498(11) 0.1150(12) 0.4706(7)
C15C C 1.1371(13) 0.0388(15) 0.3476(9)
H9C H 1.1920(13) 0.0436(15) 0.3277(9)
C16C C 1.1084(14) -0.0623(17) 0.3733(10)
H10C H 1.1465(14) -0.1243(17) 0.3693(10)
C17C C 1.0303(12) -0.0752(15) 0.4029(8)
H11C H 1.0141(12) -0.1430(15) 0.4190(8)
C18C C 0.9743(13) 0.0211(14) 0.4079(9)
C19C C 1.0011(12) 0.1216(13) 0.3825(8)
C20C C 0.9459(12) 0.2196(14) 0.3882(8)
C21C C 0.9215(12) 0.4016(15) 0.3680(8)
H12C H 0.9385(12) 0.4674(15) 0.3499(8)
C22C C 0.8419(12) 0.4006(15) 0.3978(8)
H13C H 0.8078(12) 0.4661(15) 0.4007(8)
C23C C 0.8622(12) 0.2166(14) 0.4184(8)
C24C C 0.8316(14) 0.1137(15) 0.4432(9)
C25C C 0.8876(13) 0.0159(14) 0.4382(9)
C26C C 0.8508(14) -0.0796(17) 0.4618(9)
H14C H 0.8812(14) -0.1471(17) 0.4579(9)
C27C C 0.7687(15) -0.0742(19) 0.4913(10)
H15C H 0.7465(15) -0.1372(19) 0.5097(10)
C28C C 0.7200(14) 0.0243(16) 0.4935(9)
H16C H 0.6636(14) 0.0257(16) 0.5120(9)
Cl1C Cl 0.2208(5) 0.3220(5) 0.4018(3)
N1C N 0.1093(10) 0.4248(11) 0.2742(6)
N2C N 0.0190(10) 0.2401(12) 0.2334(7)
N3C N -0.1006(9) 0.2351(11) 0.1161(6)
N4C N -0.1176(10) 0.4113(12) 0.0424(7)
C1C C 0.1549(13) 0.5217(14) 0.2987(9)
H1C H 0.1939(13) 0.5195(14) 0.3379(9)
C2C C 0.1436(13) 0.6185(15) 0.2667(9)
H2C H 0.1721(13) 0.6829(15) 0.2845(9)
C3C C 0.0893(13) 0.6206(16) 0.2075(9)
H3C H 0.0829(13) 0.6869(16) 0.1852(9)
C4C C 0.0450(12) 0.5293(14) 0.1807(8)
C5C C 0.0585(11) 0.4310(13) 0.2170(8)
C6C C 0.0103(11) 0.3340(13) 0.1957(8)
C7C C -0.0302(12) 0.1533(15) 0.2138(8)
H4C H -0.0264(12) 0.0912(15) 0.2397(8)
C8C C -0.0901(12) 0.1493(15) 0.1539(8)
H5C H -0.1226(12) 0.0841(15) 0.1413(8)
C9C C -0.0491(11) 0.3287(13) 0.1380(7)
C10C C -0.0622(12) 0.4252(14) 0.0982(8)
C11C C -0.0134(12) 0.5210(14) 0.1183(8)
C12C C -0.0303(13) 0.6125(15) 0.0773(9)
H6C H -0.0005(13) 0.6798(15) 0.0888(9)
C13C C -0.0908(12) 0.6033(15) 0.0201(9)
H7C H -0.1024(12) 0.6636(15) -0.0070(9)
C14C C -0.1331(12) 0.5030(14) 0.0045(9)
H8C H -0.1743(12) 0.4966(14) -0.0337(9)
Cl3C Cl 0.7642(4) 0.2922(4) -0.0767(2)
Cl4C Cl 0.9749(10) 0.1586(11) -0.0013(6)
N5C_2 N 0.0800(11) 0.1283(11) 0.3538(7)
N6C_2 N -0.0242(10) 0.3139(11) 0.3635(6)
N3C_2 N 0.8994(9) 0.2351(11) 0.1161(6)
N4C_2 N 0.8824(10) 0.4113(12) 0.0424(7)
Cu1C_2 Cu 1.1117(2) 0.2770(2) 0.31647(10)
Cu2C_2 Cu -0.1799(2) 0.2613(2) 0.02720(10)
Cl5 Cl 0.7500 0.2763(15) 0.2500
O1 O 1.1163(11) 0.1288(15) 0.0999(8)
O2 O 0.7388(17) 0.6711(21) 0.3601(12)
O3 O 0.4643(17) -0.3467(17) 0.0720(11)
O4 O 0.5923(15) -0.3097(17) 0.1764(12)
O5 O 0.6657(18) 0.5151(25) 0.2782(11)
O6 O 0.2500 0.8609(43) 0.2500
O8 O 1.1056(28) 0.1448(33) -0.2165(19)
O9 O 0.9619(11) 0.0890(13) -0.1428(7)
O7? O 0.7292(28) 0.0304(28) 0.2277(17)
O10? O 1.0633(25) 0.1358(27) -0.1257(17)
loop_
_geom_bond_atom_site_label_1
_geom_bond_atom_site_label_2
_geom_bond_site_symmetry_1
_geom_bond_site_symmetry_2
Cu1 Cl1 1_555 1_555
Cu2 Cl3 1_555 1_555
Cl2 Cu1 1_555 1_555
Cl4 Cu2 1_555 1_555
N1 Cu1 1_555 1_555
N2 Cu1 1_555 1_555
N3 Cu2 1_555 1_555
N4 Cu2 1_555 1_555
N5 Cu1 1_555 1_555
N6 Cu1 1_555 1_555
N7 C22 1_555 1_555
N8 C24 1_555 1_555
C1 N1 1_555 1_555
H1 C1 1_555 1_555
C2 C1 1_555 1_555
H2 C2 1_555 1_555
C3 C2 1_555 1_555
H3 C3 1_555 1_555
C4 C3 1_555 1_555
C5 N1 1_555 1_555
C6 N2 1_555 1_555
C7 N2 1_555 1_555
H4 C7 1_555 1_555
C8 N3 1_555 1_555
H5 C8 1_555 1_555
C9 N3 1_555 1_555
C10 N4 1_555 1_555
C11 C4 1_555 1_555
C12 C11 1_555 1_555
H6 C12 1_555 1_555
C13 C12 1_555 1_555
H7 C13 1_555 1_555
C14 N4 1_555 1_555
H8 C14 1_555 1_555
C15 N5 1_555 1_555
H9 C15 1_555 1_555
C16 C15 1_555 1_555
H10 C16 1_555 1_555
C17 C16 1_555 1_555
H11 C17 1_555 1_555
C18 C17 1_555 1_555
C19 N5 1_555 1_555
C20 N6 1_555 1_555
C21 N6 1_555 1_555
H12 C21 1_555 1_555
C22 C21 1_555 1_555
H13 C22 1_555 1_555
C23 N7 1_555 1_555
C24 C23 1_555 1_555
C25 C18 1_555 1_555
C26 C25 1_555 1_555
H14 C26 1_555 1_555
C27 C26 1_555 1_555
H15 C27 1_555 1_555
C28 N8 1_555 1_555
H16 C28 1_555 1_555
Cu1C Cl2 1_555 1_555
Cu2C N7 1_555 1_555
N5C C15C 1_555 1_555
N6C C20C 1_555 1_555
N7C Cu2 1_555 1_555
N8C Cu2 1_555 1_555
C15C H9C 1_555 1_555
C16C C15C 1_555 1_555
H10C C16C 1_555 1_555
C17C C16C 1_555 1_555
H11C C17C 1_555 1_555
C18C C17C 1_555 1_555
C19C N5C 1_555 1_555
C20C C19C 1_555 1_555
C21C N6C 1_555 1_555
H12C C21C 1_555 1_555
C22C N7C 1_555 1_555
H13C C22C 1_555 1_555
C23C N7C 1_555 1_555
C24C N8C 1_555 1_555
C25C C18C 1_555 1_555
C26C C25C 1_555 1_555
H14C C26C 1_555 1_555
C27C C26C 1_555 1_555
H15C C27C 1_555 1_555
C28C N8C 1_555 1_555
H16C C28C 1_555 1_555
Cl1C Cu1C 1_555 1_555
N1C Cu1C 1_555 1_555
N2C Cu1C 1_555 1_555
N3C C8C 1_555 1_555
N4C C10C 1_555 1_555
C1C N1C 1_555 1_555
H1C C1C 1_555 1_555
C2C C1C 1_555 1_555
H2C C2C 1_555 1_555
C3C C2C 1_555 1_555
H3C C3C 1_555 1_555
C4C C3C 1_555 1_555
C5C N1C 1_555 1_555
C6C N2C 1_555 1_555
C7C N2C 1_555 1_555
H4C C7C 1_555 1_555
C8C C7C 1_555 1_555
H5C C8C 1_555 1_555
C9C N3C 1_555 1_555
C10C C9C 1_555 1_555
C11C C4C 1_555 1_555
C12C C11C 1_555 1_555
H6C C12C 1_555 1_555
C13C C12C 1_555 1_555
H7C C13C 1_555 1_555
C14C N4C 1_555 1_555
H8C C14C 1_555 1_555
Cl3C Cu2C 1_555 1_555
Cl4C Cu2C 1_555 1_555
N5C_2 Cu1C 1_555 1_555
N6C_2 Cu1C 1_555 1_555
N3C_2 Cu2C 1_555 1_555
N4C_2 Cu2C 1_555 1_555
Cu1C_2 N5C 1_555 1_555
Cu2C_2 N3C 1_555 1_555
N8 Cu2C 1_555 1_555
C4 C5 1_555 1_555
C5 C6 1_555 1_555
C6 C9 1_555 1_555
C7 C8 1_555 1_555
C9 C10 1_555 1_555
C10 C11 1_555 1_555
C13 C14 1_555 1_555
C18 C19 1_555 1_555
C19 C20 1_555 1_555
C20 C23 1_555 1_555
C24 C25 1_555 1_555
C27 C28 1_555 1_555
N6C Cu1C_2 1_555 1_555
C18C C19C 1_555 1_555
C20C C23C 1_555 1_555
C21C C22C 1_555 1_555
C23C C24C 1_555 1_555
C24C C25C 1_555 1_555
C27C C28C 1_555 1_555
N4C Cu2C_2 1_555 1_555
C4C C5C 1_555 1_555
C5C C6C 1_555 1_555
C6C C9C 1_555 1_555
C10C C11C 1_555 1_555
C13C C14C 1_555 1_555

#END
