
#######################################################################
#
#                 Cambridge Crystallographic Data Centre
#                                CCDC 
#
#######################################################################
#
# If this CIF has been generated from an entry in the Cambridge 
# Structural Database, then it will include bibliographic, chemical, 
# crystal, experimental, refinement or atomic coordinate data resulting 
# from the CCDC's data processing and validation procedures.
#
#######################################################################

data_QITRUI
_symmetry_cell_setting           monoclinic
_symmetry_space_group_name_H-M   'C 2/c'
_symmetry_Int_Tables_number      15
_space_group_name_Hall           '-C 2yn'
loop_
_symmetry_equiv_pos_site_id
_symmetry_equiv_pos_as_xyz
1 x,y,z
2 -x,y,1/2-z
3 1/2+x,1/2+y,z
4 1/2-x,1/2+y,1/2-z
5 -x,-y,-z
6 x,-y,1/2+z
7 1/2-x,1/2-y,-z
8 1/2+x,1/2-y,1/2+z
_cell_length_a                   24.5215(9)
_cell_length_b                   7.1211(2)
_cell_length_c                   25.2072(9)
_cell_angle_alpha                90
_cell_angle_beta                 104.0750(10)
_cell_angle_gamma                90
_cell_volume                     4269.54
loop_
_atom_site_label
_atom_site_type_symbol
_atom_site_fract_x
_atom_site_fract_y
_atom_site_fract_z
Pb1 Pb 0.092380(5) -0.036093(17) 0.244023(5)
Pb2 Pb -0.069762(5) 0.453410(17) 0.173985(5)
Cl1 Cl 0.15681(4) -0.35776(12) 0.28520(4)
Cl2 Cl 0.04860(3) 0.31908(12) 0.20339(3)
Cl3 Cl -0.02228(4) 0.81127(12) 0.16895(3)
O1 O 0.35751(9) -0.3279(3) 0.16154(9)
O2 O 0.31661(9) -0.3661(3) 0.23038(9)
O3 O -0.12592(11) 0.5513(3) 0.08434(10)
O4 O -0.05681(11) 0.3619(4) 0.07792(10)
N1 N 0.11953(12) -0.0554(4) 0.15412(12)
N2 N 0.11136(12) 0.0016(4) 0.06583(12)
H1 H 0.0966 0.0363 0.0328
N3 N -0.22480(12) 0.6540(4) -0.12198(11)
H2 H -0.2557 0.6862 -0.1142
N4 N -0.16300(12) 0.6008(4) -0.16828(12)
H3 H -0.1477 0.5939 -0.1955
C1 C 0.16505(14) -0.0678(4) 0.08561(14)
C2 C 0.17024(14) -0.1044(4) 0.14128(13)
C3 C 0.21879(13) -0.1823(4) 0.17342(13)
H4 H 0.2218 -0.2095 0.2101
C4 C 0.26294(14) -0.2185(4) 0.14931(13)
C5 C 0.25821(14) -0.1740(4) 0.09366(13)
H5 H 0.2888 -0.1955 0.0787
C6 C 0.20948(15) -0.0994(5) 0.06097(14)
H6 H 0.2064 -0.0716 0.0243
C7 C 0.08651(15) 0.0046(5) 0.10798(14)
H7 H 0.0498 0.0450 0.1048
C8 C 0.31553(14) -0.3080(4) 0.18248(13)
C9 C -0.13787(15) 0.5504(4) -0.11491(14)
C10 C -0.17743(14) 0.5854(4) -0.08514(14)
C11 C -0.16585(15) 0.5598(4) -0.02891(14)
H8 H -0.1921 0.5881 -0.0089
C12 C -0.11326(15) 0.4898(5) -0.00432(14)
C13 C -0.07422(15) 0.4468(5) -0.03511(15)
H9 H -0.0398 0.3951 -0.0173
C14 C -0.08493(15) 0.4783(5) -0.09077(15)
H10 H -0.0585 0.4530 -0.1108
C15 C -0.21464(15) 0.6614(5) -0.17045(14)
H11 H -0.2400 0.7032 -0.2020
C16 C -0.09763(15) 0.4649(5) 0.05617(14)
Pb1_2 Pb 0.092380(5) 0.963907(17) 0.244023(5)
Pb1C Pb 0.407620(5) -0.536093(17) 0.255977(5)
Pb2A Pb 0.069762(5) -0.546590(17) 0.326015(5)
Pb2A_2 Pb 0.069762(5) 0.453410(17) 0.326015(5)
Pb2B Pb 0.430238(5) -0.046590(17) 0.173985(5)
Cl1A Cl -0.15681(4) 0.64224(12) 0.21480(4)
Cl2A Cl -0.04860(3) 0.31908(12) 0.29661(3)
Cl3_2 Cl -0.02228(4) -0.18873(12) 0.16895(3)
O1B O -0.14249(9) 0.1721(3) 0.16154(9)
O1C O 0.14249(9) 0.1721(3) 0.33846(9)
O2C O 0.18339(9) 0.1339(3) 0.26962(9)
O5 O 0.55593(13) 0.4862(4) 0.45564(11)
H12 H 0.5602 0.4107 0.4308
H13 H 0.5608 0.6023 0.4504
O6 O 0.81568(11) 0.8803(4) 0.07919(10)
H14 H 0.8364 0.7849 0.0786
H15 H 0.8310 0.9755 0.0970
loop_
_geom_bond_atom_site_label_1
_geom_bond_atom_site_label_2
_geom_bond_site_symmetry_1
_geom_bond_site_symmetry_2
Pb1 Cl1 1_555 1_555
Pb2 Cl2 1_555 1_555
Cl1 Pb2A 1_555 1_555
Cl2 Pb1 1_555 1_555
Cl3 Pb2 1_555 1_555
O1 C8 1_555 1_555
O2 C8 1_555 1_555
O3 Pb2 1_555 1_555
O4 Pb2 1_555 1_555
N1 Pb1 1_555 1_555
N2 H1 1_555 1_555
N3 H2 1_555 1_555
N4 H3 1_555 1_555
C1 N2 1_555 1_555
C2 N1 1_555 1_555
C3 C2 1_555 1_555
H4 C3 1_555 1_555
C4 C3 1_555 1_555
C5 C4 1_555 1_555
H5 C5 1_555 1_555
C6 C1 1_555 1_555
H6 C6 1_555 1_555
C7 N1 1_555 1_555
H7 C7 1_555 1_555
C8 C4 1_555 1_555
C9 N4 1_555 1_555
C10 N3 1_555 1_555
C11 C10 1_555 1_555
H8 C11 1_555 1_555
C12 C11 1_555 1_555
C13 C12 1_555 1_555
H9 C13 1_555 1_555
C14 C9 1_555 1_555
H10 C14 1_555 1_555
C15 N3 1_555 1_555
H11 C15 1_555 1_555
C16 O3 1_555 1_555
O5 H12 1_555 1_555
H13 O5 1_555 1_555
O6 H14 1_555 1_555
H15 O6 1_555 1_555
Pb1_2 Cl3 1_555 1_555
Pb1C O1 1_555 1_555
Pb2A_2 Cl2 1_555 1_555
Pb2B O1 1_555 1_555
Cl1A Pb2 1_555 1_555
Cl2A Pb2 1_555 1_555
Cl3_2 Pb1 1_555 1_555
O1B Pb2 1_555 1_555
O1C Pb1 1_555 1_555
O2C Pb1 1_555 1_555
O2 Pb1C 1_555 1_555
O4 C16 1_555 1_555
N2 C7 1_555 1_555
N4 C15 1_555 1_555
C1 C2 1_555 1_555
C5 C6 1_555 1_555
C9 C10 1_555 1_555
C12 C16 1_555 1_555
C13 C14 1_555 1_555
Pb2A_2 Cl2A 1_555 1_555
Pb2A_2 O1C 1_555 1_555

#END
