
#######################################################################
#
#                 Cambridge Crystallographic Data Centre
#                                CCDC 
#
#######################################################################
#
# If this CIF has been generated from an entry in the Cambridge 
# Structural Database, then it will include bibliographic, chemical, 
# crystal, experimental, refinement or atomic coordinate data resulting 
# from the CCDC's data processing and validation procedures.
#
#######################################################################

data_QITSAN
_symmetry_cell_setting           tetragonal
_symmetry_space_group_name_H-M   'I 41/a m d'
_symmetry_Int_Tables_number      141
_space_group_name_Hall           '-I 4bd 2'
loop_
_symmetry_equiv_pos_site_id
_symmetry_equiv_pos_as_xyz
1 x,y,z
2 1/4-y,3/4+x,1/4+z
3 1/4+y,1/4-x,3/4+z
4 1/4+y,3/4+x,1/4-z
5 1/2+x,1/2+y,1/2+z
6 3/4-y,1/4+x,3/4+z
7 3/4+y,3/4-x,1/4+z
8 3/4+y,1/4+x,3/4-z
9 1/2+x,y,1/2-z
10 1/2+x,-y,1/2+z
11 -x,y,z
12 3/4+y,3/4+x,1/4+z
13 x,1/2+y,-z
14 x,1/2-y,z
15 1/2-x,1/2+y,1/2+z
16 1/4+y,1/4+x,3/4+z
17 -x,-y,-z
18 3/4+y,1/4-x,3/4-z
19 3/4-y,3/4+x,1/4-z
20 3/4-y,1/4-x,3/4+z
21 1/2-x,1/2-y,1/2-z
22 1/4+y,3/4-x,1/4-z
23 1/4-y,1/4+x,3/4-z
24 1/4-y,3/4-x,1/4+z
25 1/2-x,-y,1/2+z
26 1/2-x,y,1/2-z
27 x,-y,-z
28 1/4-y,1/4-x,3/4-z
29 -x,1/2-y,z
30 -x,1/2+y,-z
31 1/2+x,1/2-y,1/2-z
32 3/4-y,3/4-x,1/4-z
_cell_length_a                   24.5977(13)
_cell_length_b                   24.5977(13)
_cell_length_c                   25.800(2)
_cell_angle_alpha                90
_cell_angle_beta                 90
_cell_angle_gamma                90
_cell_volume                     15610.2
loop_
_atom_site_label
_atom_site_type_symbol
_atom_site_fract_x
_atom_site_fract_y
_atom_site_fract_z
C18 C 0.4705(3) 0.5107(3) 0.4734(2)
O5 O 0.4340(2) 0.5239(2) 0.4415(2)
C18J C 0.5295(3) 0.5107(3) 0.4734(2)
C18P C 0.5295(3) 0.4893(3) 0.5266(2)
C18Z C 0.4705(3) 0.4893(3) 0.5266(2)
O5Z O 0.4340(2) 0.4761(2) 0.5585(2)
O5P O 0.5660(2) 0.4761(2) 0.5585(2)
O5J O 0.5660(2) 0.5239(2) 0.4415(2)
O6 O 0.2328(5) 0.2705(5) 0.3874(5)
O6M O 0.2328(5) 0.2295(5) 0.3874(5)
O7 O 0.1904(22) 0.3114(20) 0.2932(22)
O11 O 0.1348(13) 0.3007(12) 0.2768(12)
O8 O 0.4583(12) 0.3418(14) 0.5870(12)
O9 O 0.2500 0.3610(11) 0.2500
O10 O 0.1025(15) 0.2724(17) 0.4057(13)
O10M O 0.1025(15) 0.2276(17) 0.4057(13)
Cu1 Cu 0.35262(4) 0.39100(4) 0.40964(4)
C1 C 0.3592(4) 0.4221(4) 0.2980(4)
H1 H 0.3215(4) 0.4214(4) 0.3001(4)
C2 C 0.3814(5) 0.4342(4) 0.2517(4)
H2 H 0.3595(5) 0.4411(4) 0.2230(4)
C3 C 0.4376(6) 0.4361(3) 0.2479(4)
H3 H 0.4536(6) 0.4447(3) 0.2163(4)
C4 C 0.4715(3) 0.4250(3) 0.2921(3)
C5 C 0.4424(4) 0.4125(3) 0.3388(3)
C6 C 0.4716(3) 0.4002(3) 0.3845(3)
C7 C 0.4724(3) 0.3751(3) 0.4693(3)
H4 H 0.4543(3) 0.3661(3) 0.4998(3)
C8 C 0.3641(3) 0.2790(3) 0.3499(3)
H5 H 0.3702(3) 0.2976(3) 0.3191(3)
C9 C 0.3439(3) 0.2788(3) 0.4365(3)
C10 C 0.3327(3) 0.3078(3) 0.4838(3)
C11 C 0.3220(3) 0.2793(3) 0.5296(3)
C12 C 0.3107(3) 0.3119(3) 0.5739(3)
H6 H 0.3037(3) 0.2953(3) 0.6055(3)
C13 C 0.3100(3) 0.3653(4) 0.5704(3)
H7 H 0.3024(3) 0.3859(4) 0.5998(3)
C14 C 0.3208(3) 0.3920(3) 0.5228(3)
H8 H 0.3196(3) 0.4298(3) 0.5207(3)
C15 C 0.2306(4) 0.4231(4) 0.3795(3)
C16 C 0.2308(3) 0.4808(3) 0.3750
C17 C 0.1717(4) 0.4217(4) 0.3750
N1 N 0.3866(3) 0.4112(3) 0.3405(2)
N2 N 0.4431(3) 0.3874(2) 0.4279(3)
N3 N 0.3556(2) 0.3067(2) 0.3932(2)
N4 N 0.3329(2) 0.3618(3) 0.4800(2)
O1 O 0.3425(2) 0.4697(2) 0.4326(2)
H9 H 0.3152(2) 0.4910(2) 0.4121(2)
H10 H 0.3736(2) 0.4879(2) 0.4355(2)
O2 O 0.2656(3) 0.3857(2) 0.3843(3)
O3 O 0.2667(2) 0.5167(2) 0.3750
O4 O 0.1351(3) 0.3851(3) 0.3750
C4J C 0.5285(3) 0.4250(3) 0.2921(3)
C3J C 0.5624(6) 0.4361(3) 0.2479(4)
C2J C 0.6186(5) 0.4342(4) 0.2517(4)
C1J C 0.6408(4) 0.4221(4) 0.2980(4)
H1J H 0.6785(4) 0.4214(4) 0.3001(4)
N1J N 0.6134(3) 0.4112(3) 0.3405(2)
C5J C 0.5576(4) 0.4125(3) 0.3388(3)
C6J C 0.5284(3) 0.4002(3) 0.3845(3)
C7J C 0.5276(3) 0.3751(3) 0.4693(3)
H4J H 0.5457(3) 0.3661(3) 0.4998(3)
N2J N 0.5569(3) 0.3874(2) 0.4279(3)
H2J H 0.6405(5) 0.4411(4) 0.2230(4)
H3J H 0.5464(6) 0.4447(3) 0.2163(4)
C8M C 0.3641(3) 0.2210(3) 0.3499(3)
H5M H 0.3702(3) 0.2024(3) 0.3191(3)
N3M N 0.3556(2) 0.1933(2) 0.3932(2)
C9M C 0.3439(3) 0.2212(3) 0.4365(3)
C11M C 0.3220(3) 0.2207(3) 0.5296(3)
C10M C 0.3327(3) 0.1922(3) 0.4838(3)
N4M N 0.3329(2) 0.1382(3) 0.4800(2)
C14M C 0.3208(3) 0.1080(3) 0.5228(3)
C13M C 0.3100(3) 0.1347(4) 0.5704(3)
C12M C 0.3107(3) 0.1881(3) 0.5739(3)
H6M H 0.3037(3) 0.2047(3) 0.6055(3)
H7M H 0.3024(3) 0.1141(4) 0.5998(3)
H8M H 0.3196(3) 0.0702(3) 0.5207(3)
C15G C 0.1731(4) 0.4806(4) 0.3705(3)
O2G O 0.1357(2) 0.5156(3) 0.3657(3)
Cu1J Cu 0.64738(4) 0.39100(4) 0.40964(4)
Cu1M Cu 0.35262(4) 0.10900(4) 0.40964(4)
Cu1G Cu 0.14100(4) 0.60262(4) 0.34036(4)
C8J C 0.6359(3) 0.2790(3) 0.3499(3)
H5J H 0.6298(3) 0.2976(3) 0.3191(3)
C9J C 0.6561(3) 0.2788(3) 0.4365(3)
C10J C 0.6673(3) 0.3078(3) 0.4838(3)
C11J C 0.6780(3) 0.2793(3) 0.5296(3)
C12J C 0.6893(3) 0.3119(3) 0.5739(3)
H6J H 0.6963(3) 0.2953(3) 0.6055(3)
C13J C 0.6900(3) 0.3653(4) 0.5704(3)
H7J H 0.6976(3) 0.3859(4) 0.5998(3)
C14J C 0.6792(3) 0.3920(3) 0.5228(3)
H8J H 0.6804(3) 0.4298(3) 0.5207(3)
N3J N 0.6444(2) 0.3067(2) 0.3932(2)
N4J N 0.6671(2) 0.3618(3) 0.4800(2)
C8BA C 0.6359(3) 0.2210(3) 0.3499(3)
H5BA H 0.6298(3) 0.2024(3) 0.3191(3)
N3BA N 0.6444(2) 0.1933(2) 0.3932(2)
C9BA C 0.6561(3) 0.2212(3) 0.4365(3)
C11BA C 0.6780(3) 0.2207(3) 0.5296(3)
C10BA C 0.6673(3) 0.1922(3) 0.4838(3)
N4BA N 0.6671(2) 0.1382(3) 0.4800(2)
C14BA C 0.6792(3) 0.1080(3) 0.5228(3)
C13BA C 0.6900(3) 0.1347(4) 0.5704(3)
C12BA C 0.6893(3) 0.1881(3) 0.5739(3)
H6BA H 0.6963(3) 0.2047(3) 0.6055(3)
H7BA H 0.6976(3) 0.1141(4) 0.5998(3)
H8BA H 0.6804(3) 0.0702(3) 0.5207(3)
O1J O 0.6575(2) 0.4697(2) 0.4326(2)
H9J H 0.6848(2) 0.4910(2) 0.4121(2)
H10J H 0.6264(2) 0.4879(2) 0.4355(2)
C15J C 0.7694(4) 0.4231(4) 0.3795(3)
C16J C 0.7692(3) 0.4808(3) 0.3750
C17J C 0.8283(4) 0.4217(4) 0.3750
O2J O 0.7344(3) 0.3857(2) 0.3843(3)
O3J O 0.7333(2) 0.5167(2) 0.3750
O4J O 0.8649(3) 0.3851(3) 0.3750
C15V C 0.8269(4) 0.4806(4) 0.3705(3)
O2V O 0.8643(2) 0.5156(3) 0.3657(3)
C1M C 0.3592(4) 0.0779(4) 0.2980(4)
H1M H 0.3215(4) 0.0786(4) 0.3001(4)
C2M C 0.3814(5) 0.0658(4) 0.2517(4)
H2M H 0.3595(5) 0.0589(4) 0.2230(4)
C3M C 0.4376(6) 0.0639(3) 0.2479(4)
H3M H 0.4536(6) 0.0553(3) 0.2163(4)
C4M C 0.4715(3) 0.0750(3) 0.2921(3)
C5M C 0.4424(4) 0.0875(3) 0.3388(3)
C6M C 0.4716(3) 0.0998(3) 0.3845(3)
C7M C 0.4724(3) 0.1249(3) 0.4693(3)
H4M H 0.4543(3) 0.1339(3) 0.4998(3)
N1M N 0.3866(3) 0.0888(3) 0.3405(2)
N2M N 0.4431(3) 0.1126(2) 0.4279(3)
C4BA C 0.5285(3) 0.0750(3) 0.2921(3)
C3BA C 0.5624(6) 0.0639(3) 0.2479(4)
C2BA C 0.6186(5) 0.0658(4) 0.2517(4)
C1BA C 0.6408(4) 0.0779(4) 0.2980(4)
H1BA H 0.6785(4) 0.0786(4) 0.3001(4)
N1BA N 0.6134(3) 0.0888(3) 0.3405(2)
C5BA C 0.5576(4) 0.0875(3) 0.3388(3)
C6BA C 0.5284(3) 0.0998(3) 0.3845(3)
C7BA C 0.5276(3) 0.1249(3) 0.4693(3)
H4BA H 0.5457(3) 0.1339(3) 0.4998(3)
N2BA N 0.5569(3) 0.1126(2) 0.4279(3)
H2BA H 0.6405(5) 0.0589(4) 0.2230(4)
H3BA H 0.5464(6) 0.0553(3) 0.2163(4)
O1M O 0.3425(2) 0.0303(2) 0.4326(2)
H9M H 0.3152(2) 0.0090(2) 0.4121(2)
H10M H 0.3736(2) 0.0121(2) 0.4355(2)
O1G O 0.2197(2) 0.5925(2) 0.3174(2)
H9G H 0.2410(2) 0.5652(2) 0.3379(2)
H10G H 0.2379(2) 0.6236(2) 0.3145(2)
O2M O 0.2656(3) 0.1143(2) 0.3843(3)
N1G N 0.1612(3) 0.6366(3) 0.4095(2)
N2G N 0.1374(2) 0.6931(3) 0.3221(3)
N3G N 0.0567(2) 0.6056(2) 0.3568(2)
N4G N 0.1118(3) 0.5829(2) 0.2700(2)
Cu1BA Cu 0.64738(4) 0.10900(4) 0.40964(4)
Cu1V Cu 0.85900(4) 0.60262(4) 0.34036(4)
loop_
_geom_bond_atom_site_label_1
_geom_bond_atom_site_label_2
_geom_bond_site_symmetry_1
_geom_bond_site_symmetry_2
Cu1 N1 1_555 1_555
C1 H1 1_555 1_555
C2 C1 1_555 1_555
H2 C2 1_555 1_555
C3 C2 1_555 1_555
H3 C3 1_555 1_555
C4 C3 1_555 1_555
C5 C4 1_555 1_555
C6 C5 1_555 1_555
C7 H4 1_555 1_555
C8 H5 1_555 1_555
C9 C10 1_555 1_555
C10 C11 1_555 1_555
C11 C12 1_555 1_555
C12 H6 1_555 1_555
C13 C12 1_555 1_555
H7 C13 1_555 1_555
C14 C13 1_555 1_555
H8 C14 1_555 1_555
C15 C16 1_555 1_555
C16 O3 1_555 1_555
C17 C15 1_555 1_555
C18 O5 1_555 1_555
N1 C1 1_555 1_555
N2 Cu1 1_555 1_555
N3 Cu1 1_555 1_555
N4 Cu1 1_555 1_555
O1 Cu1 1_555 1_555
H9 O1 1_555 1_555
H10 O1 1_555 1_555
O2 Cu1 1_555 1_555
O4 C17 1_555 1_555
O6 O6M 1_555 1_555
O7 O11 1_555 1_555
O10 O10M 1_555 1_555
C4J C4 1_555 1_555
C3J C4J 1_555 1_555
C2J C3J 1_555 1_555
C1J C2J 1_555 1_555
H1J C1J 1_555 1_555
N1J C1J 1_555 1_555
C5J C4J 1_555 1_555
C6J C6 1_555 1_555
C7J C7 1_555 1_555
H4J C7J 1_555 1_555
N2J C6J 1_555 1_555
H2J C2J 1_555 1_555
H3J C3J 1_555 1_555
C8M C8 1_555 1_555
H5M C8M 1_555 1_555
N3M C8M 1_555 1_555
C9M C9 1_555 1_555
C11M C11 1_555 1_555
C10M C9M 1_555 1_555
N4M C10M 1_555 1_555
C14M N4M 1_555 1_555
C13M C14M 1_555 1_555
C12M C11M 1_555 1_555
H6M C12M 1_555 1_555
H7M C13M 1_555 1_555
H8M C14M 1_555 1_555
C15G C16 1_555 1_555
O2G C15G 1_555 1_555
C18J C18 1_555 1_555
C18P C18J 1_555 1_555
C18Z C18 1_555 1_555
O5Z C18Z 1_555 1_555
O5P C18P 1_555 1_555
O5J C18J 1_555 1_555
Cu1J N1J 1_555 1_555
Cu1M N3M 1_555 1_555
Cu1G O2G 1_555 1_555
C8J H5J 1_555 1_555
C9J C10J 1_555 1_555
C10J C11J 1_555 1_555
C11J C12J 1_555 1_555
C12J H6J 1_555 1_555
C13J C12J 1_555 1_555
H7J C13J 1_555 1_555
C14J C13J 1_555 1_555
H8J C14J 1_555 1_555
N3J Cu1J 1_555 1_555
N4J Cu1J 1_555 1_555
C8BA C8J 1_555 1_555
H5BA C8BA 1_555 1_555
N3BA C8BA 1_555 1_555
C9BA C9J 1_555 1_555
C11BA C11J 1_555 1_555
C10BA C9BA 1_555 1_555
N4BA C10BA 1_555 1_555
C14BA N4BA 1_555 1_555
C13BA C14BA 1_555 1_555
C12BA C11BA 1_555 1_555
H6BA C12BA 1_555 1_555
H7BA C13BA 1_555 1_555
H8BA C14BA 1_555 1_555
O1J Cu1J 1_555 1_555
H9J O1J 1_555 1_555
H10J O1J 1_555 1_555
C15J C16J 1_555 1_555
C16J O3J 1_555 1_555
C17J C15J 1_555 1_555
O2J Cu1J 1_555 1_555
O4J C17J 1_555 1_555
C15V C16J 1_555 1_555
O2V C15V 1_555 1_555
C1M H1M 1_555 1_555
C2M C1M 1_555 1_555
H2M C2M 1_555 1_555
C3M C2M 1_555 1_555
H3M C3M 1_555 1_555
C4M C3M 1_555 1_555
C5M C4M 1_555 1_555
C6M C5M 1_555 1_555
C7M H4M 1_555 1_555
N1M Cu1M 1_555 1_555
N2M Cu1M 1_555 1_555
C4BA C4M 1_555 1_555
C3BA C4BA 1_555 1_555
C2BA C3BA 1_555 1_555
C1BA C2BA 1_555 1_555
H1BA C1BA 1_555 1_555
N1BA C1BA 1_555 1_555
C5BA C4BA 1_555 1_555
C6BA C6M 1_555 1_555
C7BA C7M 1_555 1_555
H4BA C7BA 1_555 1_555
N2BA C6BA 1_555 1_555
H2BA C2BA 1_555 1_555
H3BA C3BA 1_555 1_555
O1M Cu1M 1_555 1_555
H9M O1M 1_555 1_555
H10M O1M 1_555 1_555
O1G Cu1G 1_555 1_555
H9G O1G 1_555 1_555
H10G O1G 1_555 1_555
O2M Cu1M 1_555 1_555
N1G Cu1G 1_555 1_555
N2G Cu1G 1_555 1_555
N3G Cu1G 1_555 1_555
N4G Cu1G 1_555 1_555
Cu1BA N3BA 1_555 1_555
Cu1V O2V 1_555 1_555
C5 N1 1_555 1_555
C6 N2 1_555 1_555
C7 N2 1_555 1_555
C8 N3 1_555 1_555
C9 N3 1_555 1_555
C10 N4 1_555 1_555
C14 N4 1_555 1_555
C15 O2 1_555 1_555
C17 C15G 1_555 1_555
N1J C5J 1_555 1_555
C5J C6J 1_555 1_555
C7J N2J 1_555 1_555
N2J Cu1J 1_555 1_555
N3M C9M 1_555 1_555
C11M C10M 1_555 1_555
N4M Cu1M 1_555 1_555
C13M C12M 1_555 1_555
C18P C18Z 1_555 1_555
C8J N3J 1_555 1_555
C9J N3J 1_555 1_555
C10J N4J 1_555 1_555
C14J N4J 1_555 1_555
N3BA C9BA 1_555 1_555
C11BA C10BA 1_555 1_555
N4BA Cu1BA 1_555 1_555
C13BA C12BA 1_555 1_555
C15J O2J 1_555 1_555
C17J C15V 1_555 1_555
C1M N1M 1_555 1_555
C5M N1M 1_555 1_555
C6M N2M 1_555 1_555
C7M N2M 1_555 1_555
N1BA C5BA 1_555 1_555
N1BA Cu1BA 1_555 1_555
C5BA C6BA 1_555 1_555
C7BA N2BA 1_555 1_555
N2BA Cu1BA 1_555 1_555

#END
