
#######################################################################
#
#                 Cambridge Crystallographic Data Centre
#                                CCDC 
#
#######################################################################
#
# If this CIF has been generated from an entry in the Cambridge 
# Structural Database, then it will include bibliographic, chemical, 
# crystal, experimental, refinement or atomic coordinate data resulting 
# from the CCDC's data processing and validation procedures.
#
#######################################################################

data_QITVUL
_symmetry_cell_setting           triclinic
_symmetry_space_group_name_H-M   'P -1'
_symmetry_Int_Tables_number      2
_space_group_name_Hall           '-P 1'
loop_
_symmetry_equiv_pos_site_id
_symmetry_equiv_pos_as_xyz
1 x,y,z
2 -x,-y,-z
_cell_length_a                   9.2075(6)
_cell_length_b                   9.6199(6)
_cell_length_c                   10.2189(7)
_cell_angle_alpha                107.787(1)
_cell_angle_beta                 91.857(1)
_cell_angle_gamma                115.389(1)
_cell_volume                     764.46
loop_
_atom_site_label
_atom_site_type_symbol
_atom_site_fract_x
_atom_site_fract_y
_atom_site_fract_z
Cu1 Cu 0.17066(4) -0.17447(4) 0.18945(3)
N1 N 0.1580(3) -0.3626(3) 0.2696(2)
C1 C 0.1069(3) -0.5255(3) 0.2078(3)
C2 C 0.0992(3) -0.6259(3) 0.2838(3)
H1 H 0.0603 -0.7405 0.2366
C3 C 0.1484(3) -0.5583(3) 0.4285(3)
C4 C 0.2034(3) -0.3909(3) 0.4921(3)
H2 H 0.2393 -0.3400 0.5907
C5 C 0.2058(3) -0.2979(3) 0.4111(3)
C6 C 0.2728(3) -0.1180(3) 0.4727(3)
C7 C 0.3401(3) -0.0240(3) 0.6124(3)
H3 H 0.3369 -0.0750 0.6793
C8 C 0.4127(3) 0.1464(3) 0.6532(3)
C9 C 0.4180(3) 0.2205(3) 0.5547(3)
H4 H 0.4671 0.3368 0.5812
C10 C 0.3495(3) 0.1189(3) 0.4170(3)
N2 N 0.2782(3) -0.0455(3) 0.3799(2)
C11 C 0.3516(3) 0.1706(3) 0.2922(3)
O1 O 0.2723(2) 0.0531(2) 0.1765(2)
O2 O 0.4327(2) 0.3187(2) 0.3079(2)
C12 C 0.4922(3) 0.2459(3) 0.8049(3)
O3 O 0.5027(2) 0.3872(2) 0.85477(19)
O4 O 0.5438(3) 0.1811(2) 0.8720(2)
Sr1 Sr 0.59020(3) 0.40115(3) 0.11836(2)
C13 C 0.1391(3) -0.6651(3) 0.5147(3)
O5 O 0.2008(2) -0.5920(2) 0.64408(19)
O6 O 0.0685(2) -0.8167(2) 0.4520(2)
C14 C 0.0596(3) -0.5983(3) 0.0497(3)
O7 O -0.0766(2) -0.7319(2) 0.00440(19)
O8 O 0.1473(2) -0.5312(2) -0.02318(19)
O9 O -0.0626(2) -0.1413(2) 0.2532(2)
H5 H -0.022(4) -0.048(2) 0.314(3)
H6 H -0.102(4) -0.206(3) 0.293(3)
O10 O 0.2686(3) 0.2221(3) 0.0083(2)
H7 H 0.205(4) 0.181(4) -0.069(2)
H8 H 0.233(4) 0.151(4) 0.049(3)
O11 O 0.6562(3) 0.1672(3) 0.1396(2)
H9 H 0.599(4) 0.068(2) 0.117(4)
H10 H 0.734(3) 0.181(4) 0.099(4)
Sr1_2 Sr 0.59020(3) 0.40115(3) 1.11836(2)
Sr1A Sr 0.40980(3) 0.59885(3) 0.88164(2)
O3_2 O 0.5027(2) 0.3872(2) -0.14523(19)
O3A O 0.4973(2) 0.6128(2) 0.14523(19)
O4_2 O 0.5438(3) 0.1811(2) -0.1280(2)
O5A O 0.7992(2) 0.5920(2) 0.35592(19)
O7A O 0.0766(2) -0.2681(2) -0.00440(19)
O8A O 0.8527(2) 0.5312(2) 0.02318(19)
Sr1A_2 Sr 0.40980(3) -0.40115(3) 0.88164(2)
Cu1A Cu -0.17066(4) -0.82553(4) -0.18945(3)
Sr1A_3 Sr 0.40980(3) -0.40115(3) -0.11836(2)
loop_
_geom_bond_atom_site_label_1
_geom_bond_atom_site_label_2
_geom_bond_site_symmetry_1
_geom_bond_site_symmetry_2
Cu1 N1 1_555 1_555
N1 C1 1_555 1_555
C1 C2 1_555 1_555
C2 H1 1_555 1_555
C3 C2 1_555 1_555
C4 C3 1_555 1_555
H2 C4 1_555 1_555
C5 N1 1_555 1_555
C6 C5 1_555 1_555
C7 C6 1_555 1_555
H3 C7 1_555 1_555
C8 C7 1_555 1_555
C9 C8 1_555 1_555
H4 C9 1_555 1_555
C10 C9 1_555 1_555
N2 Cu1 1_555 1_555
C11 C10 1_555 1_555
O1 Cu1 1_555 1_555
O2 C11 1_555 1_555
C12 C8 1_555 1_555
O3 C12 1_555 1_555
O4 C12 1_555 1_555
Sr1 O2 1_555 1_555
C13 C3 1_555 1_555
O5 C13 1_555 1_555
O6 C13 1_555 1_555
C14 C1 1_555 1_555
O7 C14 1_555 1_555
O8 C14 1_555 1_555
O9 Cu1 1_555 1_555
H5 O9 1_555 1_555
H6 O9 1_555 1_555
O10 Sr1 1_555 1_555
H7 O10 1_555 1_555
H8 O10 1_555 1_555
O11 Sr1 1_555 1_555
H9 O11 1_555 1_555
H10 O11 1_555 1_555
Sr1_2 O3 1_555 1_555
Sr1A O3 1_555 1_555
O3_2 Sr1 1_555 1_555
O3A Sr1 1_555 1_555
O4_2 Sr1 1_555 1_555
O5A Sr1 1_555 1_555
O7A Cu1 1_555 1_555
O8A Sr1 1_555 1_555
Sr1A_2 O5 1_555 1_555
Cu1A O7 1_555 1_555
Sr1A_3 O8 1_555 1_555
C4 C5 1_555 1_555
C6 N2 1_555 1_555
C10 N2 1_555 1_555
C11 O1 1_555 1_555
O4 Sr1_2 1_555 1_555

#END
