
#######################################################################
#
#                 Cambridge Crystallographic Data Centre
#                                CCDC 
#
#######################################################################
#
# If this CIF has been generated from an entry in the Cambridge 
# Structural Database, then it will include bibliographic, chemical, 
# crystal, experimental, refinement or atomic coordinate data resulting 
# from the CCDC's data processing and validation procedures.
#
#######################################################################

data_QITVOF
_symmetry_cell_setting           monoclinic
_symmetry_space_group_name_H-M   'C 2/c'
_symmetry_Int_Tables_number      15
_space_group_name_Hall           '-C 2yn'
loop_
_symmetry_equiv_pos_site_id
_symmetry_equiv_pos_as_xyz
1 x,y,z
2 1/2+x,1/2+y,z
3 -x,y,1/2-z
4 1/2-x,1/2+y,1/2-z
5 -x,-y,-z
6 1/2-x,1/2-y,-z
7 x,-y,1/2+z
8 1/2+x,1/2-y,1/2+z
_cell_length_a                   27.5898(11)
_cell_length_b                   9.7108(4)
_cell_length_c                   13.2117(5)
_cell_angle_alpha                90
_cell_angle_beta                 117.0920(10)
_cell_angle_gamma                90
_cell_volume                     3151.28
loop_
_atom_site_label
_atom_site_type_symbol
_atom_site_fract_x
_atom_site_fract_y
_atom_site_fract_z
Ba1 Ba 0.332487(6) 0.366689(15) 0.082614(12)
Ba2 Ba 0.477754(6) 0.309107(15) 0.387123(12)
N1 N 0.26955(9) 0.5937(2) 0.12346(18)
C1 C 0.22116(10) 0.5611(3) 0.1185(2)
C2 C 0.18698(10) 0.6568(3) 0.1323(2)
H1 H 0.1543 0.6285 0.1335
C3 C 0.20199(10) 0.7948(3) 0.1442(2)
C4 C 0.25165(10) 0.8296(3) 0.1483(2)
H2 H 0.2627 0.9233 0.1556
C5 C 0.28524(10) 0.7263(3) 0.1417(2)
C6 C 0.33922(10) 0.7597(3) 0.1475(2)
C7 C 0.35810(10) 0.8946(3) 0.1590(2)
H3 H 0.3381 0.9675 0.1704
C8 C 0.40636(10) 0.9221(3) 0.1537(2)
C9 C 0.43535(10) 0.8123(2) 0.1410(2)
H4 H 0.4682 0.8273 0.1358
C10 C 0.41526(10) 0.6801(2) 0.1359(2)
N2 N 0.36803(9) 0.6526(2) 0.13799(18)
C11 C 0.44664(10) 0.5575(3) 0.1258(2)
O1 O 0.44105(7) 0.44305(18) 0.16547(16)
O2 O 0.47658(8) 0.57699(19) 0.07864(17)
C12 C 0.42569(10) 1.0698(3) 0.1593(2)
O3 O 0.46124(8) 1.0918(2) 0.12667(17)
O4 O 0.40473(8) 1.15839(19) 0.19680(17)
C13 C 0.16299(10) 0.9063(3) 0.1433(2)
O5 O 0.16509(8) 1.0189(2) 0.10054(17)
O6 O 0.13093(8) 0.8753(2) 0.18389(16)
C14 C 0.20219(11) 0.4131(3) 0.0872(2)
O7 O 0.15694(9) 0.3821(2) 0.0799(2)
O8 O 0.23246(9) 0.3332(2) 0.0663(2)
O9 O 0.44419(9) 0.0579(2) 0.43395(18)
H5 H 0.4555(14) 0.019(4) 0.4971(18)
H6 H 0.4260(13) 0.001(3) 0.384(2)
O10 O 0.57780(9) 0.2916(2) 0.57757(19)
H7 H 0.5988(12) 0.231(3) 0.572(3)
H8 H 0.5967(13) 0.364(2) 0.606(3)
Ba1_2 Ba 0.332487(6) 1.366689(15) 0.082614(12)
Ba1E Ba 0.167513(6) 1.133311(15) -0.082614(12)
Ba1C Ba 0.167513(6) 0.866689(15) 0.417386(12)
Ba1E_2 Ba 0.167513(6) 0.133311(15) -0.082614(12)
Ba2B Ba 0.522246(6) 0.309107(15) 0.112877(12)
Ba2F Ba 0.477754(6) 0.690893(15) -0.112877(12)
Ba2B_2 Ba 0.522246(6) 1.309107(15) 0.112877(12)
Ba2_2 Ba 0.477754(6) 1.309107(15) 0.387123(12)
Ba2C Ba 0.022246(6) 0.809107(15) 0.112877(12)
O1B O 0.55895(7) 0.44305(18) 0.33453(16)
O2F O 0.47658(8) 0.42301(19) 0.57864(17)
O2B O 0.52342(8) 0.57699(19) 0.42136(17)
O3B O 0.53876(8) 0.0918(2) 0.37333(17)
O4_2 O 0.40473(8) 0.15839(19) 0.19680(17)
O5E O 0.33491(8) 0.4811(2) -0.10054(17)
O6C O 0.36907(8) 0.3753(2) 0.31611(16)
O8E O 0.26754(9) 0.1668(2) -0.0663(2)
loop_
_geom_bond_atom_site_label_1
_geom_bond_atom_site_label_2
_geom_bond_site_symmetry_1
_geom_bond_site_symmetry_2
Ba1 N1 1_555 1_555
Ba2 O1 1_555 1_555
N1 C1 1_555 1_555
C1 C2 1_555 1_555
C2 H1 1_555 1_555
C3 C2 1_555 1_555
C4 C3 1_555 1_555
H2 C4 1_555 1_555
C5 N1 1_555 1_555
C6 C5 1_555 1_555
C7 C6 1_555 1_555
H3 C7 1_555 1_555
C8 C7 1_555 1_555
C9 C8 1_555 1_555
H4 C9 1_555 1_555
C10 C9 1_555 1_555
N2 Ba1 1_555 1_555
C11 C10 1_555 1_555
O1 Ba1 1_555 1_555
O2 C11 1_555 1_555
C12 C8 1_555 1_555
O3 C12 1_555 1_555
O4 C12 1_555 1_555
C13 C3 1_555 1_555
O5 C13 1_555 1_555
O6 C13 1_555 1_555
C14 C1 1_555 1_555
O7 C14 1_555 1_555
O8 Ba1 1_555 1_555
O9 Ba2 1_555 1_555
H5 O9 1_555 1_555
H6 O9 1_555 1_555
O10 Ba2 1_555 1_555
H7 O10 1_555 1_555
H8 O10 1_555 1_555
Ba1_2 O4 1_555 1_555
Ba1E O5 1_555 1_555
Ba1C O6 1_555 1_555
Ba1E_2 O8 1_555 1_555
Ba2B O1 1_555 1_555
Ba2F O2 1_555 1_555
Ba2B_2 O3 1_555 1_555
Ba2_2 O4 1_555 1_555
Ba2C O6 1_555 1_555
O1B Ba2 1_555 1_555
O2F Ba2 1_555 1_555
O2B Ba2 1_555 1_555
O3B Ba2 1_555 1_555
O4_2 Ba1 1_555 1_555
O5E Ba1 1_555 1_555
O6C Ba1 1_555 1_555
O8E Ba1 1_555 1_555
Ba2 O4_2 1_555 1_555
Ba2 O6C 1_555 1_555
C4 C5 1_555 1_555
C6 N2 1_555 1_555
C10 N2 1_555 1_555
C11 O1 1_555 1_555
O2 Ba2B 1_555 1_555
C14 O8 1_555 1_555
Ba1E_2 O8E 1_555 1_555
Ba2B O1B 1_555 1_555

#END
