
#######################################################################
#
#                 Cambridge Crystallographic Data Centre
#                                CCDC 
#
#######################################################################
#
# If this CIF has been generated from an entry in the Cambridge 
# Structural Database, then it will include bibliographic, chemical, 
# crystal, experimental, refinement or atomic coordinate data resulting 
# from the CCDC's data processing and validation procedures.
#
#######################################################################

data_QITWUM
_symmetry_cell_setting           triclinic
_symmetry_space_group_name_H-M   'P -1'
_symmetry_Int_Tables_number      2
_space_group_name_Hall           '-P 1'
loop_
_symmetry_equiv_pos_site_id
_symmetry_equiv_pos_as_xyz
1 x,y,z
2 -x,-y,-z
_cell_length_a                   8.4980(3)
_cell_length_b                   9.2992(4)
_cell_length_c                   13.2045(6)
_cell_angle_alpha                86.048(2)
_cell_angle_beta                 87.745(3)
_cell_angle_gamma                88.381(3)
_cell_volume                     1039.85
loop_
_atom_site_label
_atom_site_type_symbol
_atom_site_fract_x
_atom_site_fract_y
_atom_site_fract_z
U1 U 0.701452(14) 0.067762(11) 0.548765(9)
U2 U 0.0000 0.0000 1.0000
O1 O 0.4277(3) 0.0376(2) 0.58492(16)
O2 O 0.6156(3) 0.1441(2) 0.71008(18)
O3 O 0.4230(3) 0.1962(2) 0.82296(17)
O4 O 0.2566(3) -0.0843(2) 0.92275(17)
O5 O 0.0663(3) -0.0314(2) 0.81877(18)
O6 O -0.0621(3) 0.1489(2) 0.62169(18)
O7 O 0.1038(3) -0.0279(2) 0.57773(17)
O8 O 0.6695(3) 0.2454(2) 0.49229(18)
O9 O 0.7399(3) -0.1077(2) 0.60598(18)
O10 O 0.0444(3) 0.1838(2) 0.97267(18)
O11 O 0.2250(3) -0.0120(3) 1.11092(18)
H1 H 0.3176 0.0353 1.0983
H2 H 0.2301 -0.0455 1.1729
C1 C 0.3553(4) 0.0679(3) 0.6801(2)
C2 C 0.4719(4) 0.1446(3) 0.7437(3)
C3 C 0.3224(4) -0.0774(3) 0.7426(2)
H5 H 0.2798 -0.1440 0.6980
H6 H 0.4215 -0.1187 0.7663
C4 C 0.2105(5) -0.0638(3) 0.8322(3)
C5 C 0.2075(4) 0.1645(3) 0.6639(2)
H7 H 0.1716 0.1992 0.7287
H8 H 0.2357 0.2477 0.6192
C6 C 0.0728(4) 0.0902(3) 0.6189(2)
U1A U -0.701452(14) -0.067762(11) 1.451235(9)
U1A_2 U 0.298548(14) -0.067762(11) 0.451235(9)
U1_2 U -0.298548(14) 0.067762(11) 0.548765(9)
U1_3 U -0.298548(14) 0.067762(11) 1.548765(9)
U1A_3 U 0.298548(14) -0.067762(11) 1.451235(9)
O1A O -0.4277(3) -0.0376(2) 1.41508(16)
O1A_2 O 0.5723(3) -0.0376(2) 0.41508(16)
O1_2 O -0.5723(3) 0.0376(2) 1.58492(16)
O2A O -0.6156(3) -0.1441(2) 1.28992(18)
O3A O -0.4230(3) -0.1962(2) 1.17704(17)
O4A O -0.2566(3) 0.0843(2) 1.07725(17)
O5A O -0.0663(3) 0.0314(2) 1.18123(18)
O6A O 0.0621(3) -0.1489(2) 1.37831(18)
O6_2 O 0.9379(3) 0.1489(2) 0.62169(18)
O6A_2 O -0.9379(3) -0.1489(2) 1.37831(18)
O7A O -0.1038(3) 0.0279(2) 1.42227(17)
O7A_2 O 0.8962(3) 0.0279(2) 0.42227(17)
O7_2 O -0.8962(3) -0.0279(2) 1.57773(17)
O8A O -0.6695(3) -0.2454(2) 1.50771(18)
O9A O -0.7399(3) 0.1077(2) 1.39402(18)
O10A O -0.0444(3) -0.1838(2) 1.02733(18)
O11A O -0.2250(3) 0.0120(3) 0.88908(18)
H1A H -0.3176 -0.0353 0.9017
H2A H -0.2301 0.0455 0.8271
C1A C -0.3553(4) -0.0679(3) 1.3199(2)
C2A C -0.4719(4) -0.1446(3) 1.2563(3)
C3A C -0.3224(4) 0.0774(3) 1.2574(2)
H5A H -0.2798 0.1440 1.3020
H6A H -0.4215 0.1187 1.2337
C4A C -0.2105(5) 0.0638(3) 1.1678(3)
C5A C -0.2075(4) -0.1645(3) 1.3361(2)
H7A H -0.1716 -0.1992 1.2713
H8A H -0.2357 -0.2477 1.3808
C6A C -0.0728(4) -0.0902(3) 1.3811(2)
O12 O 0.4403(3) 0.1698(2) 1.03542(18)
H3 H 0.4434 0.1693 0.9622
H4 H 0.5318 0.1403 1.0494
N1 N 0.7708(4) 0.5342(3) 0.7656(2)
C7 C 0.6166(5) 0.6195(3) 0.7580(3)
H9 H 0.6306 0.6996 0.7077
H10 H 0.5918 0.6596 0.8228
C8 C 0.4774(5) 0.5338(4) 0.7298(4)
H11 H 0.4994 0.4950 0.6651
H12 H 0.3852 0.5958 0.7260
H13 H 0.4594 0.4564 0.7805
C9 C 0.8091(5) 0.4611(4) 0.6687(3)
H14 H 0.7319 0.3877 0.6622
H15 H 0.9112 0.4125 0.6746
C10 C 0.8125(7) 0.5603(4) 0.5712(3)
H16 H 0.7109 0.6063 0.5628
H17 H 0.8387 0.5046 0.5141
H18 H 0.8902 0.6324 0.5758
C11 C 0.8942(5) 0.6423(4) 0.7846(3)
H19 H 0.8663 0.6860 0.8477
H20 H 0.8929 0.7181 0.7303
C12 C 1.0595(6) 0.5783(5) 0.7909(4)
H21 H 1.0594 0.4952 0.8382
H22 H 1.1284 0.6487 0.8133
H23 H 1.0956 0.5505 0.7251
C13 C 0.7597(5) 0.4151(4) 0.8493(3)
H24 H 0.6725 0.3547 0.8362
H25 H 0.8553 0.3558 0.8465
C14 C 0.7367(7) 0.4653(4) 0.9551(3)
H26 H 0.8243 0.5221 0.9701
H27 H 0.7300 0.3831 1.0031
H28 H 0.6412 0.5226 0.9595
loop_
_geom_bond_atom_site_label_1
_geom_bond_atom_site_label_2
_geom_bond_site_symmetry_1
_geom_bond_site_symmetry_2
U1 O1 1_555 1_555
U2 O4 1_555 1_555
O1 C1 1_555 1_555
O2 U1 1_555 1_555
O3 C2 1_555 1_555
O4 C4 1_555 1_555
O5 U2 1_555 1_555
O6 C6 1_555 1_555
O7 C6 1_555 1_555
O8 U1 1_555 1_555
O9 U1 1_555 1_555
O10 U2 1_555 1_555
O11 U2 1_555 1_555
H1 O11 1_555 1_555
H2 O11 1_555 1_555
O12 H3 1_555 1_555
H4 O12 1_555 1_555
N1 C7 1_555 1_555
C1 C2 1_555 1_555
C2 O2 1_555 1_555
C3 C1 1_555 1_555
H5 C3 1_555 1_555
H6 C3 1_555 1_555
C4 O5 1_555 1_555
C5 C1 1_555 1_555
H7 C5 1_555 1_555
H8 C5 1_555 1_555
C6 C5 1_555 1_555
C7 H9 1_555 1_555
H10 C7 1_555 1_555
C8 C7 1_555 1_555
H11 C8 1_555 1_555
H12 C8 1_555 1_555
H13 C8 1_555 1_555
C9 N1 1_555 1_555
H14 C9 1_555 1_555
H15 C9 1_555 1_555
C10 C9 1_555 1_555
H16 C10 1_555 1_555
H17 C10 1_555 1_555
H18 C10 1_555 1_555
C11 N1 1_555 1_555
H19 C11 1_555 1_555
H20 C11 1_555 1_555
C12 C11 1_555 1_555
H21 C12 1_555 1_555
H22 C12 1_555 1_555
H23 C12 1_555 1_555
C13 N1 1_555 1_555
H24 C13 1_555 1_555
H25 C13 1_555 1_555
C14 C13 1_555 1_555
H26 C14 1_555 1_555
H27 C14 1_555 1_555
H28 C14 1_555 1_555
U1A O1A 1_555 1_555
U1A_2 O1 1_555 1_555
U1_2 O6 1_555 1_555
U1_3 O1A 1_555 1_555
U1A_3 O6A 1_555 1_555
O1A C1A 1_555 1_555
O1A_2 U1 1_555 1_555
O1_2 U1A 1_555 1_555
O2A U1A 1_555 1_555
O3A C2A 1_555 1_555
O4A U2 1_555 1_555
O5A U2 1_555 1_555
O6A C6A 1_555 1_555
O6_2 U1 1_555 1_555
O6A_2 U1A 1_555 1_555
O7A U1_3 1_555 1_555
O7A_2 U1 1_555 1_555
O7_2 U1A 1_555 1_555
O8A U1A 1_555 1_555
O9A U1A 1_555 1_555
O10A U2 1_555 1_555
O11A U2 1_555 1_555
H1A O11A 1_555 1_555
H2A O11A 1_555 1_555
C1A C2A 1_555 1_555
C2A O2A 1_555 1_555
C3A C1A 1_555 1_555
H5A C3A 1_555 1_555
H6A C3A 1_555 1_555
C4A O4A 1_555 1_555
C5A C1A 1_555 1_555
H7A C5A 1_555 1_555
H8A C5A 1_555 1_555
C6A O7A 1_555 1_555
O7 U1A_2 1_555 1_555
C3 C4 1_555 1_555
U1A_2 O1A_2 1_555 1_555
U1_3 O1_2 1_555 1_555
O5A C4A 1_555 1_555
C3A C4A 1_555 1_555
C5A C6A 1_555 1_555

#END
