
#######################################################################
#
#                 Cambridge Crystallographic Data Centre
#                                CCDC 
#
#######################################################################
#
# If this CIF has been generated from an entry in the Cambridge 
# Structural Database, then it will include bibliographic, chemical, 
# crystal, experimental, refinement or atomic coordinate data resulting 
# from the CCDC's data processing and validation procedures.
#
#######################################################################

data_QITWOG
_symmetry_cell_setting           monoclinic
_symmetry_space_group_name_H-M   'P 21'
_symmetry_Int_Tables_number      4
_space_group_name_Hall           'P 2yb'
loop_
_symmetry_equiv_pos_site_id
_symmetry_equiv_pos_as_xyz
1 x,y,z
2 -x,1/2+y,-z
_cell_length_a                   8.3067(9)
_cell_length_b                   9.7312(12)
_cell_length_c                   10.7272(13)
_cell_angle_alpha                90
_cell_angle_beta                 106.181(8)
_cell_angle_gamma                90
_cell_volume                     832.774
loop_
_atom_site_label
_atom_site_type_symbol
_atom_site_fract_x
_atom_site_fract_y
_atom_site_fract_z
U1 U 0.23161(6) 0.50884(5) 0.58806(6)
U2 U -0.78779(6) 0.74982(5) 0.11701(6)
O1 O 0.2655(9) 0.5211(16) 0.4337(8)
O2 O 0.1998(12) 0.4925(15) 0.7424(9)
O3 O -0.8504(11) 0.7715(13) 0.2591(8)
O4 O -0.7281(11) 0.7288(15) -0.0263(9)
O5 O -0.0641(9) 0.5850(9) 0.4913(9)
H1 H -0.0342 0.6815 0.4805
O6 O 0.0140(12) 0.3413(9) 0.5097(11)
O7 O -0.2313(9) 0.2571(13) 0.3908(8)
O8 O -0.3377(11) 0.7825(10) 0.4096(11)
O9 O -0.5214(10) 0.6961(9) 0.2381(9)
O10 O 0.9201(11) 0.6729(11) 1.0010(10)
H2 H 0.9579 0.5843 0.9883
O11 O 1.0133(14) 0.9159(10) 1.0003(11)
O12 O 0.7852(9) 1.0012(13) 0.8683(7)
O13 O 0.5130(11) 0.5657(10) 0.6721(10)
O14 O 0.6795(12) 0.4790(11) 0.8579(10)
C1 C -0.1800(16) 0.504(2) 0.3943(14)
C2 C -0.1302(15) 0.3567(12) 0.4367(13)
C3 C -0.3628(14) 0.5372(12) 0.3954(13)
H3 H -0.4389 0.4711 0.3419
H4 H -0.3720 0.5297 0.4834
C4 C -0.4126(16) 0.6831(14) 0.3438(15)
C5 C -0.1562(16) 0.5271(15) 0.2615(12)
H5 H -0.1759 0.6221 0.2380
H6 H -0.2339 0.4710 0.1992
H7 H -0.0437 0.5030 0.2628
C6 C 0.7883(16) 0.753(2) 0.9223(10)
C7 C 0.8660(16) 0.9027(14) 0.9288(12)
C8 C 0.7383(18) 0.7077(13) 0.7830(12)
H8 H 0.8374 0.6924 0.7539
H9 H 0.6710 0.7782 0.7287
C9 C 0.6371(16) 0.5744(15) 0.7716(17)
C10 C 0.6457(17) 0.7698(16) 0.9820(14)
H10 H 0.6096 0.6810 1.0023
H11 H 0.5542 0.8158 0.9218
H12 H 0.6823 0.8233 1.0600
U1A U -0.23161(6) 0.00884(5) 0.41194(6)
U1A_2 U -0.23161(6) 1.00884(5) 0.41194(6)
U2_2 U 1.21221(6) 0.74982(5) 1.11701(6)
U2A U 0.78779(6) 1.24982(5) 0.88299(6)
U2A_2 U 0.78779(6) 0.24982(5) 0.88299(6)
O7A O 0.2313(9) 0.7571(13) 0.6092(8)
O8A O 0.3377(11) 0.2825(10) 0.5904(11)
O10_2 O -1.0799(11) 0.6729(11) 0.0010(10)
H2_2 H -1.0421 0.5843 -0.0117
O11_2 O -0.9867(14) 0.9159(10) 0.0003(11)
O12A O -0.7852(9) 0.5012(13) 0.1317(7)
O14A O -0.6795(12) 0.9790(11) 0.1421(10)
loop_
_geom_bond_atom_site_label_1
_geom_bond_atom_site_label_2
_geom_bond_site_symmetry_1
_geom_bond_site_symmetry_2
U1 O1 1_555 1_555
U2 O3 1_555 1_555
O2 U1 1_555 1_555
O4 U2 1_555 1_555
O5 U1 1_555 1_555
H1 O5 1_555 1_555
O6 U1 1_555 1_555
O7 C2 1_555 1_555
O8 C4 1_555 1_555
O9 U2 1_555 1_555
O10 H2 1_555 1_555
O11 C7 1_555 1_555
O12 C7 1_555 1_555
O13 U1 1_555 1_555
O14 C9 1_555 1_555
C1 O5 1_555 1_555
C2 O6 1_555 1_555
C3 C1 1_555 1_555
H3 C3 1_555 1_555
H4 C3 1_555 1_555
C4 O9 1_555 1_555
C5 C1 1_555 1_555
H5 C5 1_555 1_555
H6 C5 1_555 1_555
H7 C5 1_555 1_555
C6 O10 1_555 1_555
C7 C6 1_555 1_555
C8 C6 1_555 1_555
H8 C8 1_555 1_555
H9 C8 1_555 1_555
C9 O13 1_555 1_555
C10 C6 1_555 1_555
H10 C10 1_555 1_555
H11 C10 1_555 1_555
H12 C10 1_555 1_555
U1A O7 1_555 1_555
U1A_2 O8 1_555 1_555
U2_2 O10 1_555 1_555
U2A O12 1_555 1_555
U2A_2 O14 1_555 1_555
O7A U1 1_555 1_555
O8A U1 1_555 1_555
O10_2 U2 1_555 1_555
H2_2 O10_2 1_555 1_555
O11_2 U2 1_555 1_555
O12A U2 1_555 1_555
O14A U2 1_555 1_555
O11 U2_2 1_555 1_555
C1 C2 1_555 1_555
C3 C4 1_555 1_555
C8 C9 1_555 1_555

#END
