
#######################################################################
#
#                 Cambridge Crystallographic Data Centre
#                                CCDC 
#
#######################################################################
#
# If this CIF has been generated from an entry in the Cambridge 
# Structural Database, then it will include bibliographic, chemical, 
# crystal, experimental, refinement or atomic coordinate data resulting 
# from the CCDC's data processing and validation procedures.
#
#######################################################################

data_QITWAT
_symmetry_cell_setting           orthorhombic
_symmetry_space_group_name_H-M   'P c c n'
_symmetry_Int_Tables_number      56
_space_group_name_Hall           '-P 2ab 2ac'
loop_
_symmetry_equiv_pos_site_id
_symmetry_equiv_pos_as_xyz
1 x,y,z
2 1/2-x,1/2-y,z
3 -x,1/2+y,1/2-z
4 1/2+x,-y,1/2-z
5 -x,-y,-z
6 1/2+x,1/2+y,-z
7 x,1/2-y,1/2+z
8 1/2-x,y,1/2+z
_cell_length_a                   9.4199(3)
_cell_length_b                   12.6344(4)
_cell_length_c                   20.5258(5)
_cell_angle_alpha                90
_cell_angle_beta                 90
_cell_angle_gamma                90
_cell_volume                     2442.87
loop_
_atom_site_label
_atom_site_type_symbol
_atom_site_fract_x
_atom_site_fract_y
_atom_site_fract_z
Pb1 Pb -0.06934(2) 0.38760(2) 0.27590(2)
O1 O 0.1491(3) 0.5135(2) 0.24243(16)
O2 O -0.0489(3) 0.5794(3) 0.2089(2)
O3 O 0.1384(3) 0.6772(2) 0.2143(2)
O4 O -0.0408(4) 0.5493(3) 0.35645(17)
O5 O -0.1676(5) 0.4265(3) 0.39923(18)
O6 O -0.1021(6) 0.5626(4) 0.45643(19)
N1 N 0.1353(3) 0.2871(2) 0.21015(13)
N2 N 0.2500 0.2500 0.11055(19)
N3 N -0.0963(4) 0.3551(3) 0.14644(17)
N4 N 0.0176(4) 0.3251(4) 0.04547(17)
N5 N 0.1484(3) 0.3057(2) 0.34302(13)
N6 N 0.0775(3) 0.5906(3) 0.22109(17)
N7 N -0.1057(4) 0.5141(3) 0.40466(18)
C1 C 0.1400(3) 0.2844(3) 0.14548(15)
C2 C 0.0126(4) 0.3241(3) 0.10971(17)
C3 C -0.0987(6) 0.3619(5) 0.0160(2)
H1 H -0.0993 0.3654 -0.0302
C4 C -0.2176(6) 0.3950(5) 0.0492(3)
H2 H -0.3000 0.4193 0.0271
C5 C -0.2106(5) 0.3911(4) 0.1159(2)
H3 H -0.2895 0.4146 0.1408
C6 C 0.2500 0.2500 0.2410(2)
C7 C 0.2500 0.2500 0.3134(2)
C8 C 0.1493(4) 0.3048(3) 0.40817(17)
H4 H 0.0782 0.3431 0.4310
C9 C 0.2500 0.2500 0.4433(3)
H5 H 0.2500 0.2500 0.4896
N1A N 0.3647(3) 0.2129(2) 0.21015(13)
N3A N 0.5963(4) 0.1449(3) 0.14644(17)
N4A N 0.4824(4) 0.1749(4) 0.04547(17)
N5A N 0.3516(3) 0.1943(2) 0.34302(13)
C1A C 0.3600(3) 0.2156(3) 0.14548(15)
C2A C 0.4874(4) 0.1759(3) 0.10971(17)
C3A C 0.5987(6) 0.1381(5) 0.0160(2)
H1A H 0.5993 0.1346 -0.0302
C4A C 0.7176(6) 0.1050(5) 0.0492(3)
H2A H 0.8000 0.0807 0.0271
C5A C 0.7106(5) 0.1089(4) 0.1159(2)
H3A H 0.7895 0.0854 0.1408
C8A C 0.3507(4) 0.1952(3) 0.40817(17)
H4A H 0.4218 0.1569 0.4310
Pb1A Pb 0.56934(2) 0.11240(2) 0.27590(2)
O1A O 0.3509(3) -0.0135(2) 0.24243(16)
O2A O 0.5489(3) -0.0794(3) 0.2089(2)
O3A O 0.3616(3) -0.1772(2) 0.2143(2)
O4A O 0.5408(4) -0.0493(3) 0.35645(17)
O5A O 0.6676(5) 0.0735(3) 0.39923(18)
O6A O 0.6021(6) -0.0626(4) 0.45643(19)
N6A N 0.4225(3) -0.0906(3) 0.22109(17)
N7A N 0.6057(4) -0.0141(3) 0.40466(18)
Pb1B Pb 0.06934(2) -0.11240(2) 0.22410(2)
Pb1B_2 Pb 0.06934(2) 0.88760(2) 0.22410(2)
Pb1C Pb 0.43066(2) -0.38760(2) 0.22410(2)
Pb1C_2 Pb 0.43066(2) 0.61240(2) 0.22410(2)
O3B O -0.1384(3) 0.1772(2) 0.2857(2)
O3B_2 O 0.8616(3) 0.1772(2) 0.2857(2)
O3C O -0.3616(3) 0.3228(2) 0.2857(2)
O3C_2 O 0.6384(3) 0.3228(2) 0.2857(2)
loop_
_geom_bond_atom_site_label_1
_geom_bond_atom_site_label_2
_geom_bond_site_symmetry_1
_geom_bond_site_symmetry_2
Pb1 O1 1_555 1_555
O1 N6 1_555 1_555
O2 Pb1 1_555 1_555
O3 N6 1_555 1_555
O4 Pb1 1_555 1_555
O5 Pb1 1_555 1_555
O6 N7 1_555 1_555
N1 Pb1 1_555 1_555
N2 C1 1_555 1_555
N3 Pb1 1_555 1_555
N4 C2 1_555 1_555
N5 Pb1 1_555 1_555
N6 O2 1_555 1_555
N7 O4 1_555 1_555
C1 N1 1_555 1_555
C2 N3 1_555 1_555
C3 N4 1_555 1_555
H1 C3 1_555 1_555
C4 C3 1_555 1_555
H2 C4 1_555 1_555
C5 N3 1_555 1_555
H3 C5 1_555 1_555
C6 N1 1_555 1_555
C7 N5 1_555 1_555
C8 N5 1_555 1_555
H4 C8 1_555 1_555
C9 C8 1_555 1_555
H5 C9 1_555 1_555
N1A C6 1_555 1_555
N3A C2A 1_555 1_555
N4A C2A 1_555 1_555
N5A C7 1_555 1_555
C1A N2 1_555 1_555
C2A C1A 1_555 1_555
C3A N4A 1_555 1_555
H1A C3A 1_555 1_555
C4A C3A 1_555 1_555
H2A C4A 1_555 1_555
C5A N3A 1_555 1_555
H3A C5A 1_555 1_555
C8A C9 1_555 1_555
H4A C8A 1_555 1_555
Pb1A N1A 1_555 1_555
O1A Pb1A 1_555 1_555
O2A Pb1A 1_555 1_555
O3A N6A 1_555 1_555
O4A Pb1A 1_555 1_555
O5A Pb1A 1_555 1_555
O6A N7A 1_555 1_555
N6A O1A 1_555 1_555
N7A O4A 1_555 1_555
Pb1B O3A 1_555 1_555
Pb1B_2 O3 1_555 1_555
Pb1C O3A 1_555 1_555
Pb1C_2 O3 1_555 1_555
O3B Pb1 1_555 1_555
O3B_2 Pb1A 1_555 1_555
O3C Pb1 1_555 1_555
O3C_2 Pb1A 1_555 1_555
O5 N7 1_555 1_555
C1 C2 1_555 1_555
C4 C5 1_555 1_555
C6 C7 1_555 1_555
N1A C1A 1_555 1_555
N3A Pb1A 1_555 1_555
N5A C8A 1_555 1_555
N5A Pb1A 1_555 1_555
C4A C5A 1_555 1_555
O2A N6A 1_555 1_555
O5A N7A 1_555 1_555

#END
