
#######################################################################
#
#                 Cambridge Crystallographic Data Centre
#                                CCDC 
#
#######################################################################
#
# If this CIF has been generated from an entry in the Cambridge 
# Structural Database, then it will include bibliographic, chemical, 
# crystal, experimental, refinement or atomic coordinate data resulting 
# from the CCDC's data processing and validation procedures.
#
#######################################################################

data_QITXAT
_symmetry_cell_setting           monoclinic
_symmetry_space_group_name_H-M   'P 21/n'
_symmetry_Int_Tables_number      14
_space_group_name_Hall           '-P 2yn'
loop_
_symmetry_equiv_pos_site_id
_symmetry_equiv_pos_as_xyz
1 x,y,z
2 1/2-x,1/2+y,1/2-z
3 -x,-y,-z
4 1/2+x,1/2-y,1/2+z
_cell_length_a                   10.0669(5)
_cell_length_b                   29.4919(13)
_cell_length_c                   11.1076(6)
_cell_angle_alpha                90
_cell_angle_beta                 107.873(3)
_cell_angle_gamma                90
_cell_volume                     3138.61
loop_
_atom_site_label
_atom_site_type_symbol
_atom_site_fract_x
_atom_site_fract_y
_atom_site_fract_z
U1 U 0.59415(3) -0.039316(11) 0.14165(3)
U2 U 0.83755(3) 0.138250(10) 0.52382(3)
U3 U 0.37278(3) 0.241840(10) 0.17684(3)
O1 O 0.4597(7) -0.0319(3) 0.2142(7)
O2 O 0.7331(6) -0.04776(19) 0.0747(5)
O3 O 0.7454(6) 0.10701(18) 0.6111(5)
O4 O 0.9326(6) 0.16501(19) 0.4327(5)
O5 O 0.2541(6) 0.24213(18) 0.2670(5)
O6 O 0.4941(6) 0.23793(19) 0.0897(5)
O7 O 0.7367(5) 0.20550(18) 0.5445(5)
H1 H 0.6829 0.2110 0.4747
O8 O 0.5650(6) 0.03638(18) 0.0688(6)
O9 O 0.4956(6) 0.1120(2) -0.0724(6)
O10 O 0.6509(8) 0.1578(3) 0.0304(7)
O11 O 0.7398(7) 0.0069(2) 0.3028(5)
O12 O 0.8283(9) 0.0674(2) 0.4137(8)
O13 O 0.6366(7) 0.1433(2) 0.3501(6)
O14 O 0.4271(6) 0.16500(19) 0.2389(5)
C1 C 0.6025(9) 0.0821(3) 0.1246(9)
C2 C 0.5925(11) 0.1187(3) 0.0243(8)
C3 C 0.7574(10) 0.0818(5) 0.1965(12)
H2 H 0.7907 0.1119 0.2260
H3 H 0.8116 0.0700 0.1449
C4 C 0.7637(14) 0.0487(4) 0.3121(10)
C5 C 0.5028(8) 0.0906(3) 0.2017(8)
H4 H 0.4077 0.0887 0.1459
H5 H 0.5154 0.0668 0.2645
C6 C 0.5229(9) 0.1360(3) 0.2683(7)
O15 O 1.0522(5) -0.17873(18) 0.2871(5)
O16 O 0.9437(6) -0.24398(17) 0.1317(5)
O17 O 0.7900(6) -0.19964(19) -0.0067(5)
O18 O 0.9467(6) -0.09993(19) 0.3815(5)
O19 O 0.7173(6) -0.08951(19) 0.3061(5)
O20 O 1.1666(7) -0.0945(2) 0.0788(7)
O21 O 1.1035(7) -0.1656(2) 0.0212(6)
H6 H 1.1953 -0.1667 0.0119
C7 C 0.9317(9) -0.1657(3) 0.1891(7)
C8 C 0.8880(8) -0.2056(3) 0.0942(7)
C9 C 0.8113(9) -0.1551(3) 0.2365(8)
H7 H 0.7275 -0.1528 0.1646
H8 H 0.7986 -0.1802 0.2883
C10 C 0.8263(9) -0.1124(3) 0.3125(8)
C11 C 0.9616(9) -0.1239(3) 0.1152(7)
H9 H 0.9682 -0.0973 0.1681
H10 H 0.8817 -0.1196 0.0406
C12 C 1.0897(9) -0.1256(3) 0.0737(7)
U1B U 0.40585(3) 0.039316(11) -0.14165(3)
U2B U 1.16245(3) -0.138250(10) 0.47618(3)
U3C U 0.87278(3) 0.258160(10) 0.67684(3)
U3A U 1.12722(3) -0.258160(10) 0.32316(3)
U3B U 0.62722(3) -0.241840(10) -0.17684(3)
O7C O 0.2367(5) 0.29450(18) 0.0445(5)
H1C H 0.1829 0.2890 -0.0253
O8B O 0.4350(6) -0.03638(18) -0.0688(6)
O9B O 0.5044(6) -0.1120(2) 0.0724(6)
O15B O 0.9478(5) 0.17873(18) 0.7129(5)
O15A O 0.4478(5) 0.32127(18) 0.2129(5)
O16A O 0.5563(6) 0.25602(17) 0.3683(5)
O17B O 0.2100(6) 0.19964(19) 0.0067(5)
O18B O 1.0533(6) 0.09993(19) 0.6185(5)
N1 N 0.5092(7) 0.2030(2) -0.1989(7)
H11 H 0.5558 0.1933 -0.1224
C13 C 0.5071(11) 0.1800(4) -0.2998(12)
H13 H 0.5583 0.1532 -0.2912
C14 C 0.4317(13) 0.1943(4) -0.4172(11)
H14 H 0.4296 0.1778 -0.4891
C15 C 0.3581(13) 0.2343(4) -0.4253(10)
H15 H 0.3074 0.2453 -0.5045
C16 C 0.3579(10) 0.2585(3) -0.3182(8)
H16 H 0.3055 0.2848 -0.3235
C17 C 0.4384(9) 0.2417(3) -0.2048(9)
H17 H 0.4441 0.2574 -0.1307
N2 N 0.8328(9) 0.0003(3) 0.6203(8)
H12 H 0.8150 0.0252 0.5629
C18 C 0.8503(11) -0.0416(3) 0.5777(9)
H18 H 0.8546 -0.0446 0.4956
C19 C 0.8616(13) -0.0784(4) 0.6481(13)
H19 H 0.8739 -0.1068 0.6167
C20 C 0.8547(12) -0.0733(5) 0.7707(12)
H20 H 0.8628 -0.0986 0.8225
C21 C 0.8360(12) -0.0315(5) 0.8149(10)
H21 H 0.8321 -0.0284 0.8971
C22 C 0.8225(10) 0.0067(4) 0.7385(9)
H22 H 0.8071 0.0353 0.7669
loop_
_geom_bond_atom_site_label_1
_geom_bond_atom_site_label_2
_geom_bond_site_symmetry_1
_geom_bond_site_symmetry_2
U1 O1 1_555 1_555
U2 O3 1_555 1_555
U3 O5 1_555 1_555
O2 U1 1_555 1_555
O4 U2 1_555 1_555
O6 U3 1_555 1_555
O7 U2 1_555 1_555
H1 O7 1_555 1_555
O8 U1 1_555 1_555
O9 C2 1_555 1_555
O10 C2 1_555 1_555
O11 U1 1_555 1_555
O12 U2 1_555 1_555
O13 U2 1_555 1_555
O14 U3 1_555 1_555
C1 O8 1_555 1_555
C2 C1 1_555 1_555
C3 C1 1_555 1_555
H2 C3 1_555 1_555
H3 C3 1_555 1_555
C4 O11 1_555 1_555
C5 C1 1_555 1_555
H4 C5 1_555 1_555
H5 C5 1_555 1_555
C6 O13 1_555 1_555
O15 C7 1_555 1_555
O16 C8 1_555 1_555
O17 C8 1_555 1_555
O18 C10 1_555 1_555
O19 U1 1_555 1_555
O20 C12 1_555 1_555
O21 H6 1_555 1_555
C7 C8 1_555 1_555
C9 C7 1_555 1_555
H7 C9 1_555 1_555
H8 C9 1_555 1_555
C10 O19 1_555 1_555
C11 C7 1_555 1_555
H9 C11 1_555 1_555
H10 C11 1_555 1_555
C12 O21 1_555 1_555
N1 H11 1_555 1_555
N2 H12 1_555 1_555
C13 N1 1_555 1_555
H13 C13 1_555 1_555
C14 C13 1_555 1_555
H14 C14 1_555 1_555
C15 C14 1_555 1_555
H15 C15 1_555 1_555
C16 C15 1_555 1_555
H16 C16 1_555 1_555
C17 N1 1_555 1_555
H17 C17 1_555 1_555
C18 N2 1_555 1_555
H18 C18 1_555 1_555
C19 C18 1_555 1_555
H19 C19 1_555 1_555
C20 C19 1_555 1_555
H20 C20 1_555 1_555
C21 C20 1_555 1_555
H21 C21 1_555 1_555
C22 N2 1_555 1_555
H22 C22 1_555 1_555
U1B O8 1_555 1_555
U2B O15 1_555 1_555
U3C O7 1_555 1_555
U3A O15 1_555 1_555
U3B O17 1_555 1_555
O7C U3 1_555 1_555
H1C O7C 1_555 1_555
O8B U1 1_555 1_555
O9B U1 1_555 1_555
O15B U2 1_555 1_555
O15A U3 1_555 1_555
O16A U3 1_555 1_555
O17B U3 1_555 1_555
O18B U2 1_555 1_555
O9 U1B 1_555 1_555
O12 C4 1_555 1_555
O14 C6 1_555 1_555
C3 C4 1_555 1_555
C5 C6 1_555 1_555
O16 U3A 1_555 1_555
O18 U2B 1_555 1_555
C9 C10 1_555 1_555
C11 C12 1_555 1_555
C16 C17 1_555 1_555
C21 C22 1_555 1_555
U1B O8B 1_555 1_555
U3C O15B 1_555 1_555

#END
