
#######################################################################
#
#                 Cambridge Crystallographic Data Centre
#                                CCDC 
#
#######################################################################
#
# If this CIF has been generated from an entry in the Cambridge 
# Structural Database, then it will include bibliographic, chemical, 
# crystal, experimental, refinement or atomic coordinate data resulting 
# from the CCDC's data processing and validation procedures.
#
#######################################################################

data_QITYUP
_symmetry_cell_setting           triclinic
_symmetry_space_group_name_H-M   'P -1'
_symmetry_Int_Tables_number      2
_space_group_name_Hall           '-P 1'
loop_
_symmetry_equiv_pos_site_id
_symmetry_equiv_pos_as_xyz
1 x,y,z
2 -x,-y,-z
_cell_length_a                   13.600(12)
_cell_length_b                   16.319(14)
_cell_length_c                   16.769(14)
_cell_angle_alpha                79.265(12)
_cell_angle_beta                 80.064(12)
_cell_angle_gamma                72.401(12)
_cell_volume                     3458.46
loop_
_atom_site_label
_atom_site_type_symbol
_atom_site_fract_x
_atom_site_fract_y
_atom_site_fract_z
Mn1 Mn 0.12442(4) 0.12986(4) 0.26809(3)
Mn2 Mn -0.88500(4) 0.63022(4) 0.75517(3)
N1 N -0.7967(2) -0.27038(19) 0.73889(19)
N2 N -0.6815(2) -0.1979(2) 0.68786(19)
N3 N -0.0967(3) -0.0251(2) 0.3223(2)
N4 N 0.0274(2) 0.0403(2) 0.2772(2)
N5 N 0.2237(2) 0.2183(2) 0.2601(2)
N6 N 0.3455(2) 0.2849(2) 0.21065(19)
N7 N 0.8902(2) 0.4797(2) -0.18744(19)
N8 N 1.0164(2) 0.5398(2) -0.2387(2)
O1 O -0.02497(19) 0.29432(16) 0.33981(14)
O2 O 0.04048(19) 0.15560(16) 0.38726(14)
O3 O -0.3192(2) 0.26451(17) 0.67664(15)
O4 O -0.74241(19) 0.52718(16) 0.80203(15)
O5 O -0.7558(2) 0.55401(16) 0.67008(15)
O6 O 0.04118(19) 0.21102(17) 0.17109(15)
O7 O -0.0341(2) 0.34797(16) 0.12427(14)
O8 O 0.3437(2) 0.26287(16) -0.15677(15)
O9 O 0.73395(19) -0.01458(16) -0.30908(15)
O10 O 0.7571(2) -0.05158(17) -0.17864(15)
C1 C -0.7062(3) 0.5142(2) 0.7289(2)
C2 C -0.6017(3) 0.4507(2) 0.7121(2)
C3 C -0.5651(3) 0.4305(3) 0.6346(2)
H1 H -0.6044 0.4574 0.5919
C4 C -0.4694(3) 0.3700(3) 0.6197(2)
H2 H -0.4447 0.3558 0.5673
C5 C -0.4125(3) 0.3317(3) 0.6829(2)
C6 C -0.4468(3) 0.3522(2) 0.7600(2)
H3 H -0.4063 0.3269 0.8022
C7 C -0.5433(3) 0.4117(2) 0.7742(2)
H4 H -0.5683 0.4251 0.8268
C8 C -0.2507(3) 0.2592(3) 0.6035(2)
C9 C -0.2340(3) 0.3325(3) 0.5528(2)
H5 H -0.2717 0.3878 0.5640
C10 C -0.1594(3) 0.3210(2) 0.4848(2)
H6 H -0.1483 0.3694 0.4495
C11 C -0.1014(3) 0.2392(2) 0.4686(2)
C12 C -0.1176(3) 0.1670(2) 0.5219(2)
H7 H -0.0778 0.1116 0.5122
C13 C -0.1938(3) 0.1774(3) 0.5903(2)
H8 H -0.2051 0.1293 0.6259
C14 C -0.0228(3) 0.2289(3) 0.3928(2)
C15 C 0.3004(3) 0.3121(3) 0.2824(3)
H9 H 0.3172 0.3517 0.3072
C16 C 0.2262(3) 0.2713(3) 0.3119(3)
H10 H 0.1829 0.2788 0.3609
C17 C 0.2975(3) 0.2267(3) 0.1988(3)
H11 H 0.3142 0.1969 0.1539
C18 C 0.4251(3) 0.3141(2) 0.1543(2)
C19 C 0.5004(3) 0.3362(2) 0.1836(2)
H12 H 0.5006 0.3311 0.2397
C20 C 0.5766(3) 0.3662(2) 0.1300(2)
H13 H 0.6260 0.3830 0.1502
C21 C 0.5786(3) 0.3709(2) 0.0453(2)
C22 C 0.5017(3) 0.3459(3) 0.0176(3)
H14 H 0.5027 0.3480 -0.0383
C23 C 0.4249(3) 0.3184(3) 0.0707(2)
H15 H 0.3740 0.3030 0.0511
C24 C 0.6610(3) 0.4000(2) -0.0133(2)
C25 C 0.7605(3) 0.3883(3) 0.0062(2)
H16 H 0.7759 0.3633 0.0588
C26 C 0.8365(3) 0.4130(2) -0.0503(2)
H17 H 0.9027 0.4037 -0.0365
C27 C 0.8126(3) 0.4517(2) -0.1281(2)
C28 C 0.7151(3) 0.4649(2) -0.1493(2)
H18 H 0.6998 0.4907 -0.2017
C29 C 0.6404(3) 0.4393(2) -0.0922(2)
H19 H 0.5744 0.4485 -0.1065
C30 C 0.9624(3) 0.5137(3) -0.1710(3)
H20 H 0.9725 0.5181 -0.1186
C31 C 0.9770(3) 0.5213(3) -0.3016(3)
H21 H 1.0005 0.5323 -0.3569
C32 C 0.8993(3) 0.4848(3) -0.2710(2)
H22 H 0.8598 0.4667 -0.3006
C33 C 0.4561(3) 0.1775(3) -0.2507(2)
H23 H 0.4142 0.2094 -0.2906
C34 C 0.4298(3) 0.1928(2) -0.1706(2)
C35 C 0.2724(3) 0.2618(3) -0.0865(2)
C36 C 0.2563(3) 0.1866(2) -0.0405(2)
H24 H 0.2962 0.1325 -0.0537
C37 C 0.1796(3) 0.1933(2) 0.0259(2)
H25 H 0.1692 0.1429 0.0581
C38 C 0.1176(3) 0.2736(2) 0.0455(2)
C39 C 0.1347(3) 0.3474(2) -0.0033(2)
H26 H 0.0927 0.4017 0.0078
C40 C 0.2125(3) 0.3420(2) -0.0680(2)
H27 H 0.2246 0.3923 -0.0991
C41 C 0.0357(3) 0.2777(3) 0.1187(2)
C42 C -0.0433(3) 0.0272(3) 0.3381(2)
H28 H -0.0556 0.0509 0.3865
C43 C 0.0175(3) -0.0053(3) 0.2182(3)
H29 H 0.0582 -0.0084 0.1677
C44 C -0.0590(4) -0.0445(3) 0.2440(3)
H30 H -0.0815 -0.0775 0.2152
C45 C -0.1814(3) -0.0510(3) 0.3754(3)
C46 C -0.1847(4) -0.0575(3) 0.4584(3)
H31 H -0.1325 -0.0465 0.4804
C47 C -0.2669(4) -0.0808(3) 0.5096(3)
H32 H -0.2696 -0.0845 0.5660
C48 C -0.3442(3) -0.0983(3) 0.4784(3)
C49 C -0.3372(3) -0.0932(3) 0.3944(3)
H33 H -0.3880 -0.1062 0.3722
C50 C -0.2570(3) -0.0695(3) 0.3427(3)
H34 H -0.2539 -0.0661 0.2864
C51 C -0.4330(3) -0.1232(3) 0.5341(2)
C52 C -0.4528(3) -0.1133(3) 0.6151(3)
H35 H -0.4105 -0.0895 0.6364
C53 C -0.5338(3) -0.1375(3) 0.6662(3)
H36 H -0.5453 -0.1304 0.7211
C54 C -0.5968(3) -0.1721(3) 0.6353(2)
C55 C -0.5776(4) -0.1845(4) 0.5549(3)
H37 H -0.6202 -0.2081 0.5339
C56 C -0.4945(4) -0.1619(4) 0.5047(3)
H38 H -0.4800 -0.1728 0.4508
C57 C -0.7371(3) -0.1613(3) 0.7551(3)
H39 H -0.7282 -0.1153 0.7757
C58 C -0.8075(3) -0.2062(3) 0.7851(2)
H40 H -0.8565 -0.1952 0.8307
C59 C -0.7197(3) -0.2642(3) 0.6802(2)
H41 H -0.6951 -0.2998 0.6395
C60 C 0.7062(3) -0.0056(2) -0.2347(3)
C61 C 0.6079(3) 0.0637(2) -0.2117(2)
C62 C 0.5780(3) 0.0794(2) -0.1320(2)
H42 H 0.6183 0.0457 -0.0918
C63 C 0.4896(3) 0.1440(3) -0.1100(2)
H43 H 0.4710 0.1544 -0.0560
C64 C 0.5460(3) 0.1139(2) -0.2704(2)
H44 H 0.5656 0.1045 -0.3246
Mn1A Mn 0.87558(4) -0.12986(4) -0.26809(3)
Mn2_2 Mn -0.88500(4) -0.36978(4) 0.75517(3)
Mn2_3 Mn 1.11500(4) 0.63022(4) -0.24483(3)
Mn2A Mn -0.11500(4) 0.36978(4) 0.24483(3)
N1_2 N -0.7967(2) 0.72962(19) 0.73889(19)
N8_2 N -0.9836(2) 0.5398(2) 0.7613(2)
O1A O -0.97503(19) 0.70568(16) 0.66019(14)
O7A O -0.9659(2) 0.65203(16) 0.87573(14)
O9A O 0.26605(19) 0.01458(16) 0.30908(15)
O10A O 0.2429(2) 0.05158(17) 0.17864(15)
loop_
_geom_bond_atom_site_label_1
_geom_bond_atom_site_label_2
_geom_bond_site_symmetry_1
_geom_bond_site_symmetry_2
Mn1 N4 1_555 1_555
Mn2 O4 1_555 1_555
N1 C58 1_555 1_555
N2 C54 1_555 1_555
N3 C42 1_555 1_555
N4 C42 1_555 1_555
N5 Mn1 1_555 1_555
N6 C15 1_555 1_555
N7 C27 1_555 1_555
N8 C30 1_555 1_555
O1 C14 1_555 1_555
O2 Mn1 1_555 1_555
O3 C5 1_555 1_555
O4 C1 1_555 1_555
O5 Mn2 1_555 1_555
O6 Mn1 1_555 1_555
O7 C41 1_555 1_555
O8 C34 1_555 1_555
O9 C60 1_555 1_555
O10 C60 1_555 1_555
C1 O5 1_555 1_555
C2 C1 1_555 1_555
C3 C2 1_555 1_555
H1 C3 1_555 1_555
C4 C3 1_555 1_555
H2 C4 1_555 1_555
C5 C4 1_555 1_555
C6 C5 1_555 1_555
H3 C6 1_555 1_555
C7 C2 1_555 1_555
H4 C7 1_555 1_555
C8 O3 1_555 1_555
C9 C8 1_555 1_555
H5 C9 1_555 1_555
C10 C9 1_555 1_555
H6 C10 1_555 1_555
C11 C10 1_555 1_555
C12 C11 1_555 1_555
H7 C12 1_555 1_555
C13 C8 1_555 1_555
H8 C13 1_555 1_555
C14 O2 1_555 1_555
C15 H9 1_555 1_555
C16 N5 1_555 1_555
H10 C16 1_555 1_555
C17 N5 1_555 1_555
H11 C17 1_555 1_555
C18 N6 1_555 1_555
C19 C18 1_555 1_555
H12 C19 1_555 1_555
C20 C19 1_555 1_555
H13 C20 1_555 1_555
C21 C20 1_555 1_555
C22 C21 1_555 1_555
H14 C22 1_555 1_555
C23 C18 1_555 1_555
H15 C23 1_555 1_555
C24 C21 1_555 1_555
C25 C24 1_555 1_555
H16 C25 1_555 1_555
C26 C25 1_555 1_555
H17 C26 1_555 1_555
C27 C26 1_555 1_555
C28 C27 1_555 1_555
H18 C28 1_555 1_555
C29 C24 1_555 1_555
H19 C29 1_555 1_555
C30 N7 1_555 1_555
H20 C30 1_555 1_555
C31 N8 1_555 1_555
H21 C31 1_555 1_555
C32 N7 1_555 1_555
H22 C32 1_555 1_555
C33 H23 1_555 1_555
C34 C33 1_555 1_555
C35 O8 1_555 1_555
C36 C35 1_555 1_555
H24 C36 1_555 1_555
C37 C36 1_555 1_555
H25 C37 1_555 1_555
C38 C37 1_555 1_555
C39 C38 1_555 1_555
H26 C39 1_555 1_555
C40 C35 1_555 1_555
H27 C40 1_555 1_555
C41 O6 1_555 1_555
C42 H28 1_555 1_555
C43 N4 1_555 1_555
H29 C43 1_555 1_555
C44 N3 1_555 1_555
H30 C44 1_555 1_555
C45 N3 1_555 1_555
C46 C45 1_555 1_555
H31 C46 1_555 1_555
C47 C46 1_555 1_555
H32 C47 1_555 1_555
C48 C47 1_555 1_555
C49 C48 1_555 1_555
H33 C49 1_555 1_555
C50 C45 1_555 1_555
H34 C50 1_555 1_555
C51 C48 1_555 1_555
C52 C51 1_555 1_555
H35 C52 1_555 1_555
C53 C52 1_555 1_555
H36 C53 1_555 1_555
C54 C53 1_555 1_555
C55 C54 1_555 1_555
H37 C55 1_555 1_555
C56 C51 1_555 1_555
H38 C56 1_555 1_555
C57 N2 1_555 1_555
H39 C57 1_555 1_555
C58 C57 1_555 1_555
H40 C58 1_555 1_555
C59 N1 1_555 1_555
H41 C59 1_555 1_555
C60 C61 1_555 1_555
C61 C62 1_555 1_555
C62 H42 1_555 1_555
C63 C34 1_555 1_555
H43 C63 1_555 1_555
C64 C33 1_555 1_555
H44 C64 1_555 1_555
Mn1A O9 1_555 1_555
Mn2_2 N1 1_555 1_555
Mn2_3 N8 1_555 1_555
Mn2A O1 1_555 1_555
N1_2 Mn2 1_555 1_555
N8_2 Mn2 1_555 1_555
O1A Mn2 1_555 1_555
O7A Mn2 1_555 1_555
O9A Mn1 1_555 1_555
O10A Mn1 1_555 1_555
N2 C59 1_555 1_555
N6 C17 1_555 1_555
O7 Mn2A 1_555 1_555
O10 Mn1A 1_555 1_555
C6 C7 1_555 1_555
C11 C14 1_555 1_555
C12 C13 1_555 1_555
C15 C16 1_555 1_555
C22 C23 1_555 1_555
C28 C29 1_555 1_555
C31 C32 1_555 1_555
C38 C41 1_555 1_555
C39 C40 1_555 1_555
C43 C44 1_555 1_555
C49 C50 1_555 1_555
C55 C56 1_555 1_555
C61 C64 1_555 1_555
C62 C63 1_555 1_555

#END
