
#######################################################################
#
#                 Cambridge Crystallographic Data Centre
#                                CCDC 
#
#######################################################################
#
# If this CIF has been generated from an entry in the Cambridge 
# Structural Database, then it will include bibliographic, chemical, 
# crystal, experimental, refinement or atomic coordinate data resulting 
# from the CCDC's data processing and validation procedures.
#
#######################################################################

data_QITYOJ
_symmetry_cell_setting           monoclinic
_symmetry_space_group_name_H-M   'C c'
_symmetry_Int_Tables_number      9
_space_group_name_Hall           'C -2yc'
loop_
_symmetry_equiv_pos_site_id
_symmetry_equiv_pos_as_xyz
1 x,y,z
2 x,-y,1/2+z
3 1/2+x,1/2+y,z
4 1/2+x,1/2-y,1/2+z
_cell_length_a                   13.226(8)
_cell_length_b                   19.610(13)
_cell_length_c                   23.292(15)
_cell_angle_alpha                90
_cell_angle_beta                 101.312(7)
_cell_angle_gamma                90
_cell_volume                     5923.7
loop_
_atom_site_label
_atom_site_type_symbol
_atom_site_fract_x
_atom_site_fract_y
_atom_site_fract_z
Mn1 Mn 1.03648(4) 0.03128(3) 0.06445(2)
Mn2 Mn 0.78059(4) 0.34423(3) -0.03640(3)
Mn3 Mn 0.90116(4) 0.18705(3) 0.02502(2)
N1 N 0.8738(3) 0.43787(18) -0.00447(17)
N2 N 0.9248(3) 0.54508(16) 0.01058(16)
N3 N 0.8941(3) 0.83179(16) 0.01599(17)
N4 N 0.9398(3) 0.93950(17) 0.03246(18)
O1 O 0.9380(2) 0.05192(16) 0.12395(14)
O2 O 0.8221(2) 0.12655(16) 0.07801(13)
O3 O 0.5622(3) -0.00708(19) 0.24970(16)
O4 O 0.7084(2) 0.34648(14) 0.05010(13)
O5 O 0.8503(2) 0.28983(12) 0.04900(11)
O6 O 0.8019(3) 0.2119(2) 0.30608(15)
O7 O 0.4816(3) 0.25702(17) 0.46954(15)
O8 O 0.3963(3) 0.17543(18) 0.41310(15)
O9 O 0.5359(2) 0.30157(15) -0.40852(14)
O10 O 0.6416(2) 0.39142(15) -0.39830(14)
O11 O 0.9542(2) 0.09189(13) -0.01356(12)
O12 O 1.0915(2) 0.03559(15) -0.02630(12)
O13 O 0.7539(3) -0.18503(18) 0.46747(15)
O14 O 0.6788(2) -0.27009(15) 0.41265(14)
O15 O 0.6649(4) 0.4128(2) -0.0823(3)
H1 H 0.6426 0.4399 -0.0592
H2 H 0.6147 0.3917 -0.1032
O16 O 0.9550(2) 0.16416(19) -0.28093(14)
O17 O 1.1592(3) -0.03549(16) 0.10461(15)
H3 H 1.1594 -0.0697 0.0844
H4 H 1.2052 -0.0295 0.1378
C1 C 1.0162(3) 0.07313(18) -0.04692(16)
C2 C 0.9956(3) 0.09458(19) -0.10869(17)
C3 C 0.9110(3) 0.13464(19) -0.13196(16)
H5 H 0.8642 0.1458 -0.1084
C4 C 0.8938(3) 0.1586(2) -0.18877(19)
H6 H 0.8365 0.1856 -0.2029
C5 C 0.9620(3) 0.1423(2) -0.22450(18)
C6 C 1.0472(3) 0.1002(2) -0.20282(18)
H7 H 1.0920 0.0877 -0.2272
C7 C 1.0644(3) 0.0776(2) -0.14650(19)
H8 H 1.1218 0.0507 -0.1325
C8 C 0.8699(3) 0.2060(3) -0.30491(19)
C9 C 0.9714(3) 0.8757(2) 0.0344(2)
H9 H 1.0397 0.8626 0.0472
C10 C 0.8788(4) 0.2751(3) -0.3008(2)
H10 H 0.9396 0.2948 -0.2809
C11 C 0.7969(3) 0.3157(2) -0.3264(2)
H11 H 0.8023 0.3629 -0.3234
C12 C 0.7075(3) 0.2865(2) -0.35646(17)
C13 C 0.6982(4) 0.2163(2) -0.3595(2)
H12 H 0.6366 0.1965 -0.3783
C14 C 0.7807(4) 0.1752(2) -0.3347(2)
H13 H 0.7761 0.1280 -0.3379
C15 C 0.6210(3) 0.3303(2) -0.39024(17)
C16 C 0.8510(3) 0.08154(19) 0.11546(17)
C17 C 0.7773(3) 0.06078(19) 0.15383(16)
C18 C 0.6787(3) 0.0875(2) 0.14607(19)
H14 H 0.6591 0.1216 0.1184
C19 C 0.6093(4) 0.0645(2) 0.1785(2)
H15 H 0.5435 0.0833 0.1727
C20 C 0.6369(3) 0.0139(2) 0.2196(2)
C21 C 0.7351(4) -0.0114(2) 0.2297(2)
H16 H 0.7554 -0.0437 0.2590
C22 C 0.8048(4) 0.0112(2) 0.1962(2)
H17 H 0.8708 -0.0073 0.2024
C23 C 0.5919(3) -0.0577(2) 0.2926(2)
C24 C 0.7188(4) 0.2581(3) 0.3783(2)
H18 H 0.7729 0.2889 0.3883
C25 C 0.7181(4) 0.2129(3) 0.3344(2)
C26 C 0.6388(4) 0.1670(3) 0.3195(2)
H19 H 0.6396 0.1360 0.2893
C27 C 0.7899(3) 0.2375(2) 0.24954(19)
C28 C 0.7004(3) 0.2673(2) 0.21931(19)
H20 H 0.6427 0.2711 0.2364
C29 C 0.6981(3) 0.2916(2) 0.1628(2)
H21 H 0.6385 0.3122 0.1423
C30 C 0.7822(3) 0.28560(19) 0.13700(17)
C31 C 0.8728(3) 0.2553(2) 0.16859(18)
H22 H 0.9304 0.2510 0.1514
C32 C 0.8765(3) 0.2322(3) 0.22465(19)
H23 H 0.9369 0.2131 0.2458
C33 C 0.7799(3) 0.30865(18) 0.07546(17)
C34 C 0.4705(3) 0.2153(2) 0.42774(19)
C35 C 0.6368(3) 0.2581(2) 0.4086(2)
H24 H 0.6369 0.2891 0.4388
C36 C 0.5568(3) 0.2129(2) 0.39423(18)
C37 C 0.5577(4) 0.1668(3) 0.3493(2)
H25 H 0.5040 0.1358 0.3391
C38 C 0.6975(3) -0.2085(2) 0.42233(18)
C39 C 0.6520(3) -0.1561(2) 0.37716(17)
C40 C 0.6070(4) -0.1746(2) 0.3208(2)
H26 H 0.5970 -0.2205 0.3113
C41 C 0.5764(4) -0.1250(3) 0.2780(2)
H27 H 0.5458 -0.1375 0.2400
C42 C 0.6329(4) -0.0380(2) 0.3486(2)
H28 H 0.6396 0.0080 0.3583
C43 C 0.6642(3) -0.0872(2) 0.39029(19)
H29 H 0.6943 -0.0740 0.4282
C44 C 0.9798(4) 0.4402(3) 0.0118(3)
H30 H 1.0228 0.4023 0.0161
C45 C 1.0123(4) 0.5050(2) 0.0206(3)
H31 H 1.0802 0.5198 0.0312
C46 C 0.8442(3) 0.5016(2) -0.0041(2)
H32 H 0.7756 0.5154 -0.0130
C47 C 0.9186(3) 0.61799(19) 0.01296(19)
C48 C 0.9981(4) 0.6579(2) 0.0005(2)
H33 H 1.0562 0.6376 -0.0090
C49 C 0.9901(3) 0.7283(2) 0.0022(2)
H34 H 1.0436 0.7554 -0.0054
C50 C 0.9032(3) 0.7579(2) 0.01520(18)
C51 C 0.8250(3) 0.7184(2) 0.0277(2)
H35 H 0.7667 0.7391 0.0366
C52 C 0.8318(3) 0.6482(2) 0.0273(2)
H36 H 0.7791 0.6215 0.0365
C53 C 0.8065(4) 0.8702(3) 0.0012(3)
H37 H 0.7401 0.8546 -0.0135
C54 C 0.8367(4) 0.9358(2) 0.0125(3)
H38 H 0.7925 0.9731 0.0073
Mn1_2 Mn 1.03648(4) 1.03128(3) 0.06445(2)
Mn1C Mn 0.53648(4) 0.46872(3) -0.43555(2)
Mn2A Mn 0.78059(4) -0.34423(3) 0.46360(3)
Mn2C Mn 0.28059(4) 0.15577(3) 0.46360(3)
Mn3A Mn 0.90116(4) -0.18705(3) 0.52502(2)
Mn3C Mn 0.40116(4) 0.31295(3) -0.47498(2)
Mn3C_2 Mn 0.40116(4) 0.31295(3) 0.52502(2)
N4_2 N 0.9398(3) -0.06050(17) 0.03246(18)
O7C O 0.9816(3) 0.24298(17) -0.03046(15)
O8C O 0.8963(3) 0.32457(18) -0.08690(15)
O9C O 1.0359(2) 0.19843(15) 0.09148(14)
O10C O 1.1416(2) 0.10858(15) 0.10170(14)
O13A O 0.7539(3) 0.18503(18) -0.03253(15)
O14A O 0.6788(2) 0.27009(15) -0.08735(14)
N5 N 0.3342(4) 0.9678(3) 0.3007(2)
O18 O 0.2841(5) 1.0016(3) 0.2053(2)
C55 C 0.3388(10) 1.0356(5) 0.3228(4)
H39 H 0.3807 1.0630 0.3025
H40 H 0.3683 1.0352 0.3638
H41 H 0.2705 1.0544 0.3168
C56 C 0.3570(6) 0.9126(4) 0.3414(4)
H42 H 0.3136 0.9156 0.3699
H43 H 0.4280 0.9151 0.3609
H44 H 0.3448 0.8700 0.3209
C57 C 0.3069(5) 0.9574(4) 0.2431(3)
H45 H 0.3050 0.9124 0.2303
O19 O 0.5714(9) 0.4190(6) 0.7508(12)
O20 O 0.5157(11) 0.4078(5) 0.8467(7)
loop_
_geom_bond_atom_site_label_1
_geom_bond_atom_site_label_2
_geom_bond_site_symmetry_1
_geom_bond_site_symmetry_2
Mn1 O1 1_555 1_555
Mn2 N1 1_555 1_555
Mn3 O2 1_555 1_555
N1 C44 1_555 1_555
N2 C45 1_555 1_555
N3 C9 1_555 1_555
N4 C9 1_555 1_555
O1 C16 1_555 1_555
O2 C16 1_555 1_555
O3 C20 1_555 1_555
O4 Mn2 1_555 1_555
O5 Mn2 1_555 1_555
O6 C25 1_555 1_555
O7 C34 1_555 1_555
O8 C34 1_555 1_555
O9 C15 1_555 1_555
O10 C15 1_555 1_555
O11 Mn1 1_555 1_555
O12 Mn1 1_555 1_555
O13 C38 1_555 1_555
O14 C38 1_555 1_555
O15 Mn2 1_555 1_555
H1 O15 1_555 1_555
H2 O15 1_555 1_555
O16 C5 1_555 1_555
O17 Mn1 1_555 1_555
H3 O17 1_555 1_555
H4 O17 1_555 1_555
C1 O11 1_555 1_555
C2 C1 1_555 1_555
C3 C2 1_555 1_555
H5 C3 1_555 1_555
C4 C3 1_555 1_555
H6 C4 1_555 1_555
C5 C4 1_555 1_555
C6 C5 1_555 1_555
H7 C6 1_555 1_555
C7 C2 1_555 1_555
H8 C7 1_555 1_555
C8 O16 1_555 1_555
C9 H9 1_555 1_555
C10 C8 1_555 1_555
H10 C10 1_555 1_555
C11 C10 1_555 1_555
H11 C11 1_555 1_555
C12 C11 1_555 1_555
C13 C12 1_555 1_555
H12 C13 1_555 1_555
C14 C8 1_555 1_555
H13 C14 1_555 1_555
C15 C12 1_555 1_555
C16 C17 1_555 1_555
C17 C18 1_555 1_555
C18 H14 1_555 1_555
C19 C18 1_555 1_555
H15 C19 1_555 1_555
C20 C19 1_555 1_555
C21 C20 1_555 1_555
H16 C21 1_555 1_555
C22 C17 1_555 1_555
H17 C22 1_555 1_555
C23 O3 1_555 1_555
C24 H18 1_555 1_555
C25 C24 1_555 1_555
C26 C25 1_555 1_555
H19 C26 1_555 1_555
C27 O6 1_555 1_555
C28 C27 1_555 1_555
H20 C28 1_555 1_555
C29 C28 1_555 1_555
H21 C29 1_555 1_555
C30 C29 1_555 1_555
C31 C30 1_555 1_555
H22 C31 1_555 1_555
C32 C27 1_555 1_555
H23 C32 1_555 1_555
C33 O4 1_555 1_555
C34 C36 1_555 1_555
C35 C24 1_555 1_555
H24 C35 1_555 1_555
C36 C35 1_555 1_555
C37 C26 1_555 1_555
H25 C37 1_555 1_555
C38 C39 1_555 1_555
C39 C40 1_555 1_555
C40 H26 1_555 1_555
C41 C23 1_555 1_555
H27 C41 1_555 1_555
C42 C23 1_555 1_555
H28 C42 1_555 1_555
C43 C39 1_555 1_555
H29 C43 1_555 1_555
C44 H30 1_555 1_555
C45 C44 1_555 1_555
H31 C45 1_555 1_555
C46 N1 1_555 1_555
H32 C46 1_555 1_555
C47 N2 1_555 1_555
C48 C47 1_555 1_555
H33 C48 1_555 1_555
C49 C48 1_555 1_555
H34 C49 1_555 1_555
C50 N3 1_555 1_555
C51 C50 1_555 1_555
H35 C51 1_555 1_555
C52 C47 1_555 1_555
H36 C52 1_555 1_555
C53 N3 1_555 1_555
H37 C53 1_555 1_555
C54 N4 1_555 1_555
H38 C54 1_555 1_555
N5 C55 1_555 1_555
O18 C57 1_555 1_555
C55 H39 1_555 1_555
H40 C55 1_555 1_555
H41 C55 1_555 1_555
C56 N5 1_555 1_555
H42 C56 1_555 1_555
H43 C56 1_555 1_555
H44 C56 1_555 1_555
C57 N5 1_555 1_555
H45 C57 1_555 1_555
Mn1_2 N4 1_555 1_555
Mn1C O10 1_555 1_555
Mn2A O14 1_555 1_555
Mn2C O8 1_555 1_555
Mn3A O13 1_555 1_555
Mn3C O9 1_555 1_555
Mn3C_2 O7 1_555 1_555
N4_2 Mn1 1_555 1_555
O7C Mn3 1_555 1_555
O8C Mn2 1_555 1_555
O9C Mn3 1_555 1_555
O10C Mn1 1_555 1_555
O13A Mn3 1_555 1_555
O14A Mn2 1_555 1_555
Mn3 O5 1_555 1_555
Mn3 O11 1_555 1_555
N2 C46 1_555 1_555
O5 C33 1_555 1_555
O12 C1 1_555 1_555
C6 C7 1_555 1_555
C13 C14 1_555 1_555
C21 C22 1_555 1_555
C30 C33 1_555 1_555
C31 C32 1_555 1_555
C36 C37 1_555 1_555
C40 C41 1_555 1_555
C42 C43 1_555 1_555
C49 C50 1_555 1_555
C51 C52 1_555 1_555
C53 C54 1_555 1_555

#END
