
#######################################################################
#
#                 Cambridge Crystallographic Data Centre
#                                CCDC 
#
#######################################################################
#
# If this CIF has been generated from an entry in the Cambridge 
# Structural Database, then it will include bibliographic, chemical, 
# crystal, experimental, refinement or atomic coordinate data resulting 
# from the CCDC's data processing and validation procedures.
#
#######################################################################

data_QITYEZ
_symmetry_cell_setting           monoclinic
_symmetry_space_group_name_H-M   'P 21/c'
_symmetry_Int_Tables_number      14
_space_group_name_Hall           '-P 2ybc'
loop_
_symmetry_equiv_pos_site_id
_symmetry_equiv_pos_as_xyz
1 x,y,z
2 -x,1/2+y,1/2-z
3 -x,-y,-z
4 x,1/2-y,1/2+z
_cell_length_a                   10.817(13)
_cell_length_b                   15.965(19)
_cell_length_c                   26.71(3)
_cell_angle_alpha                90
_cell_angle_beta                 112.31(4)
_cell_angle_gamma                90
_cell_volume                     4267.35
loop_
_atom_site_label
_atom_site_type_symbol
_atom_site_fract_x
_atom_site_fract_y
_atom_site_fract_z
Cd1 Cd 0.44243(2) 0.516048(16) 0.305367(9)
Cd2 Cd 0.06870(2) 0.478221(16) 0.206706(9)
O1 O 0.4619(2) 0.60600(15) 0.23804(9)
O2 O 0.2581(2) 0.57233(15) 0.22766(9)
O3 O 0.1190(3) 0.12600(18) 0.65328(11)
O4 O 0.0581(3) 0.00464(19) 0.61629(11)
O5 O 0.2513(2) 0.42540(16) 0.28788(9)
O6 O 0.0495(2) 0.37839(15) 0.26935(9)
O7 O 0.3941(3) 0.86515(19) -0.14542(11)
O8 O 0.4491(3) 0.98469(19) -0.10551(11)
O9 O 0.1378(2) 0.82925(19) 0.03148(10)
O10 O 0.3625(2) 0.14649(18) 0.47234(10)
N1 N -0.1678(2) 0.47269(17) 0.16394(10)
N2 N -0.0257(3) 0.58184(17) 0.24234(10)
N3 N 0.5357(3) 0.40899(17) 0.27153(10)
N4 N 0.6788(2) 0.52145(18) 0.34722(10)
C1 C -0.2332(4) 0.4218(2) 0.12289(14)
H1 H -0.1837 0.3874 0.1094
C2 C -0.3702(4) 0.4178(3) 0.09939(15)
H2 H -0.4127 0.3824 0.0702
C3 C -0.4427(4) 0.4676(3) 0.12031(16)
H3 H -0.5356 0.4653 0.1059
C4 C -0.3774(3) 0.5208(2) 0.16250(14)
H4 H -0.4255 0.5550 0.1768
C5 C -0.2383(3) 0.5230(2) 0.18373(12)
C6 C -0.1605(3) 0.5823(2) 0.22764(12)
C7 C -0.2213(3) 0.6378(2) 0.25128(13)
H5 H -0.3134 0.6366 0.2417
C8 C -0.1443(4) 0.6944(2) 0.28884(15)
H6 H -0.1844 0.7325 0.3043
C9 C -0.0080(4) 0.6949(2) 0.30358(14)
H7 H 0.0452 0.7332 0.3288
C10 C 0.0480(4) 0.6371(2) 0.27992(14)
H8 H 0.1404 0.6363 0.2904
C11 C 0.4607(4) 0.3558(2) 0.23271(15)
H9 H 0.3685 0.3568 0.2228
C12 C 0.5137(4) 0.3003(2) 0.20714(15)
H10 H 0.4590 0.2640 0.1808
C13 C 0.6499(4) 0.2998(2) 0.22146(15)
H11 H 0.6888 0.2632 0.2046
C14 C 0.7284(4) 0.3538(2) 0.26096(14)
H12 H 0.8206 0.3540 0.2708
C15 C 0.6694(3) 0.4079(2) 0.28609(13)
C16 C 0.7480(3) 0.4669(2) 0.32961(13)
C17 C 0.8870(4) 0.4663(3) 0.35215(16)
H13 H 0.9346 0.4282 0.3401
C18 C 0.9540(4) 0.5230(3) 0.39260(18)
H14 H 1.0469 0.5237 0.4077
C19 C 0.8825(4) 0.5779(3) 0.41018(16)
H15 H 0.9255 0.6162 0.4375
C20 C 0.7458(4) 0.5753(2) 0.38665(14)
H16 H 0.6972 0.6128 0.3986
C21 C 0.1074(4) 0.0763(3) 0.61727(14)
C22 C 0.1620(3) 0.0965(2) 0.57453(13)
C23 C 0.1750(4) 0.0359(3) 0.54027(14)
H17 H 0.1415 -0.0176 0.5409
C24 C 0.2089(4) 0.1754(3) 0.57171(16)
H18 H 0.1987 0.2172 0.5941
C25 C 0.1530(4) 0.6781(3) 0.13480(16)
H19 H 0.0926 0.6486 0.1452
C26 C 0.2877(3) 0.6682(2) 0.16398(13)
C27 C 0.3736(4) 0.7153(3) 0.14871(14)
H20 H 0.4651 0.7114 0.1684
C28 C 0.3387(4) 0.6114(2) 0.21221(13)
C29 C 0.1707(4) 0.3782(2) 0.29858(13)
C30 C 0.2211(3) 0.3191(2) 0.34577(12)
C31 C 0.3442(4) 0.3289(3) 0.38730(16)
H21 H 0.3980 0.3740 0.3868
C32 C 0.3887(4) 0.2720(3) 0.43001(16)
H22 H 0.4714 0.2796 0.4579
C33 C 0.3115(4) 0.2056(3) 0.43089(14)
C34 C 0.1891(4) 0.1951(2) 0.39095(14)
H23 H 0.1363 0.1496 0.3919
C35 C 0.1426(3) 0.2525(2) 0.34844(13)
H24 H 0.0579 0.2458 0.3217
C36 C 0.2378(4) 0.0540(3) 0.50475(14)
H25 H 0.2463 0.0127 0.4817
C37 C 0.2869(4) 0.1323(3) 0.50381(14)
C38 C 0.2715(4) 0.1944(3) 0.53618(17)
H26 H 0.3022 0.2484 0.5345
C39 C 0.4018(4) 0.9131(3) -0.10903(14)
C40 C 0.3427(3) 0.8886(2) -0.06791(12)
C41 C 0.2878(4) 0.8099(3) -0.06963(14)
H27 H 0.2944 0.7706 -0.0942
C42 C 0.2231(4) 0.7883(3) -0.03550(16)
H28 H 0.1865 0.7352 -0.0370
C43 C 0.2142(4) 0.8470(3) 0.00064(14)
C44 C 0.2704(4) 0.9243(3) 0.00433(14)
H29 H 0.2662 0.9626 0.0299
C45 C 0.3339(3) 0.9454(3) -0.03027(13)
H30 H 0.3711 0.9984 -0.0281
C46 C 0.3261(4) 0.7691(3) 0.10423(15)
H31 H 0.3856 0.8008 0.0945
C47 C 0.1925(4) 0.7747(3) 0.07515(14)
C48 C 0.1048(4) 0.7308(3) 0.09032(16)
H32 H 0.0133 0.7360 0.0710
Cd1C Cd 0.44243(2) 0.983952(16) -0.194633(9)
Cd2C Cd 0.06870(2) 0.021779(16) 0.706706(9)
O3C O 0.1190(3) 0.37400(18) 0.15328(11)
O4C O 0.0581(3) 0.49536(19) 0.11629(11)
O7C O 0.3941(3) 0.63485(19) 0.35458(11)
O8C O 0.4491(3) 0.51531(19) 0.39449(11)
loop_
_geom_bond_atom_site_label_1
_geom_bond_atom_site_label_2
_geom_bond_site_symmetry_1
_geom_bond_site_symmetry_2
Cd1 O1 1_555 1_555
Cd2 O2 1_555 1_555
O1 C28 1_555 1_555
O2 Cd1 1_555 1_555
O3 C21 1_555 1_555
O4 C21 1_555 1_555
O5 Cd1 1_555 1_555
O6 Cd2 1_555 1_555
O7 C39 1_555 1_555
O8 C39 1_555 1_555
O9 C43 1_555 1_555
O10 C33 1_555 1_555
N1 Cd2 1_555 1_555
N2 Cd2 1_555 1_555
N3 Cd1 1_555 1_555
N4 Cd1 1_555 1_555
C1 N1 1_555 1_555
H1 C1 1_555 1_555
C2 C1 1_555 1_555
H2 C2 1_555 1_555
C3 C2 1_555 1_555
H3 C3 1_555 1_555
C4 C3 1_555 1_555
H4 C4 1_555 1_555
C5 N1 1_555 1_555
C6 N2 1_555 1_555
C7 C6 1_555 1_555
H5 C7 1_555 1_555
C8 C7 1_555 1_555
H6 C8 1_555 1_555
C9 C8 1_555 1_555
H7 C9 1_555 1_555
C10 N2 1_555 1_555
H8 C10 1_555 1_555
C11 N3 1_555 1_555
H9 C11 1_555 1_555
C12 C11 1_555 1_555
H10 C12 1_555 1_555
C13 C12 1_555 1_555
H11 C13 1_555 1_555
C14 C13 1_555 1_555
H12 C14 1_555 1_555
C15 N3 1_555 1_555
C16 N4 1_555 1_555
C17 C16 1_555 1_555
H13 C17 1_555 1_555
C18 C17 1_555 1_555
H14 C18 1_555 1_555
C19 C18 1_555 1_555
H15 C19 1_555 1_555
C20 N4 1_555 1_555
H16 C20 1_555 1_555
C21 C22 1_555 1_555
C22 C23 1_555 1_555
C23 H17 1_555 1_555
C24 C22 1_555 1_555
H18 C24 1_555 1_555
C25 H19 1_555 1_555
C26 C25 1_555 1_555
C27 C26 1_555 1_555
H20 C27 1_555 1_555
C28 O2 1_555 1_555
C29 O5 1_555 1_555
C30 C29 1_555 1_555
C31 C30 1_555 1_555
H21 C31 1_555 1_555
C32 C31 1_555 1_555
H22 C32 1_555 1_555
C33 C32 1_555 1_555
C34 C33 1_555 1_555
H23 C34 1_555 1_555
C35 C30 1_555 1_555
H24 C35 1_555 1_555
C36 C23 1_555 1_555
H25 C36 1_555 1_555
C37 O10 1_555 1_555
C38 C24 1_555 1_555
H26 C38 1_555 1_555
C39 C40 1_555 1_555
C40 C41 1_555 1_555
C41 H27 1_555 1_555
C42 C41 1_555 1_555
H28 C42 1_555 1_555
C43 C42 1_555 1_555
C44 C43 1_555 1_555
H29 C44 1_555 1_555
C45 C40 1_555 1_555
H30 C45 1_555 1_555
C46 C27 1_555 1_555
H31 C46 1_555 1_555
C47 O9 1_555 1_555
C48 C25 1_555 1_555
H32 C48 1_555 1_555
Cd1C O7 1_555 1_555
Cd2C O3 1_555 1_555
O3C Cd2 1_555 1_555
O4C Cd2 1_555 1_555
O7C Cd1 1_555 1_555
O8C Cd1 1_555 1_555
Cd2 O5 1_555 1_555
O4 Cd2C 1_555 1_555
O6 C29 1_555 1_555
O8 Cd1C 1_555 1_555
C4 C5 1_555 1_555
C5 C6 1_555 1_555
C9 C10 1_555 1_555
C14 C15 1_555 1_555
C15 C16 1_555 1_555
C19 C20 1_555 1_555
C26 C28 1_555 1_555
C34 C35 1_555 1_555
C36 C37 1_555 1_555
C37 C38 1_555 1_555
C44 C45 1_555 1_555
C46 C47 1_555 1_555
C47 C48 1_555 1_555

#END
