
#######################################################################
#
#                 Cambridge Crystallographic Data Centre
#                                CCDC 
#
#######################################################################
#
# If this CIF has been generated from an entry in the Cambridge 
# Structural Database, then it will include bibliographic, chemical, 
# crystal, experimental, refinement or atomic coordinate data resulting 
# from the CCDC's data processing and validation procedures.
#
#######################################################################

data_QITZUP
_symmetry_cell_setting           monoclinic
_symmetry_space_group_name_H-M   'P 21/n'
_symmetry_Int_Tables_number      14
_space_group_name_Hall           '-P 2yn'
loop_
_symmetry_equiv_pos_site_id
_symmetry_equiv_pos_as_xyz
1 x,y,z
2 1/2-x,1/2+y,1/2-z
3 -x,-y,-z
4 1/2+x,1/2-y,1/2+z
_cell_length_a                   8.5634(5)
_cell_length_b                   19.2808(11)
_cell_length_c                   8.6971(5)
_cell_angle_alpha                90
_cell_angle_beta                 108.0280(10)
_cell_angle_gamma                90
_cell_volume                     1365.47
loop_
_atom_site_label
_atom_site_type_symbol
_atom_site_fract_x
_atom_site_fract_y
_atom_site_fract_z
Cu1 Cu 0.45384(3) 0.173856(13) 0.80783(3)
Cu2 Cu 0.46663(4) 0.092730(16) 0.43882(3)
N1 N 0.5784(2) 0.08413(9) 0.8090(2)
N2 N 0.2761(2) 0.17237(10) 0.9253(2)
C1 C 0.7299(3) 0.05664(11) 1.0975(2)
C2 C 0.6818(2) 0.04414(11) 0.9225(2)
C3 C 0.2989(3) 0.19049(11) 1.0796(2)
H1 H 0.4042 0.2021 1.1439
C4 C 0.1720(3) 0.19263(11) 1.1475(2)
N3 N 0.5708(2) 0.05338(9) 0.6683(2)
C5 C 0.0133(3) 0.17844(11) 1.0496(3)
H2 H -0.0749 0.1816 1.0903
C6 C -0.0109(3) 0.15959(13) 0.8909(3)
H3 H -0.1157 0.1496 0.8228
C7 C 0.1231(3) 0.15582(13) 0.8352(3)
H4 H 0.1064 0.1410 0.7296
C8 C 0.8916(3) 0.04764(13) 1.1948(3)
H5 H 0.9715 0.0318 1.1512
N4 N 0.7370(2) -0.00940(10) 0.8569(2)
N5 N 0.6639(2) -0.00263(10) 0.6974(2)
N6 N 0.6502(2) 0.08932(10) 1.3295(2)
C9 C 0.6146(3) 0.07739(12) 1.1703(3)
H6 H 0.5066 0.0834 1.1052
C10 C 0.8077(3) 0.08286(14) 1.4198(3)
H7 H 0.8356 0.0924 1.5298
C11 C 0.9307(3) 0.06274(15) 1.3574(3)
H8 H 1.0387 0.0594 1.4243
N7 N 0.3166(2) 0.17050(9) 1.4369(2)
N8 N 0.2991(2) 0.19352(10) 1.5772(2)
C12 C 0.2035(2) 0.20487(11) 1.3210(2)
N9 N 0.1182(2) 0.24763(9) 1.3864(2)
N10 N 0.1808(2) 0.23958(10) 1.5473(2)
Cu1_2 Cu 0.45384(3) 0.173856(13) 1.80783(3)
Cu1C Cu -0.04616(3) 0.326144(13) 1.30783(3)
Cu2B Cu 0.53337(4) -0.092730(16) 0.56118(3)
Cu2_2 Cu 0.46663(4) 0.092730(16) 1.43882(3)
N5B N 0.3361(2) 0.00263(10) 0.3026(2)
N6_2 N 0.6502(2) 0.08932(10) 0.3295(2)
N7_2 N 0.3166(2) 0.17050(9) 0.4369(2)
N8_2 N 0.2991(2) 0.19352(10) 0.5772(2)
N9C N 0.6182(2) 0.25237(9) 0.8864(2)
loop_
_geom_bond_atom_site_label_1
_geom_bond_atom_site_label_2
_geom_bond_site_symmetry_1
_geom_bond_site_symmetry_2
Cu1 N1 1_555 1_555
Cu2 N3 1_555 1_555
N1 C2 1_555 1_555
N2 Cu1 1_555 1_555
C1 C2 1_555 1_555
C2 N4 1_555 1_555
C3 N2 1_555 1_555
H1 C3 1_555 1_555
C4 C3 1_555 1_555
N3 N1 1_555 1_555
C5 C4 1_555 1_555
H2 C5 1_555 1_555
C6 C5 1_555 1_555
H3 C6 1_555 1_555
C7 N2 1_555 1_555
H4 C7 1_555 1_555
C8 C1 1_555 1_555
H5 C8 1_555 1_555
N4 N5 1_555 1_555
N5 N3 1_555 1_555
N6 C9 1_555 1_555
C9 C1 1_555 1_555
H6 C9 1_555 1_555
C10 N6 1_555 1_555
H7 C10 1_555 1_555
C11 C8 1_555 1_555
H8 C11 1_555 1_555
N7 N8 1_555 1_555
N8 N10 1_555 1_555
C12 C4 1_555 1_555
N9 C12 1_555 1_555
N10 N9 1_555 1_555
Cu1_2 N8 1_555 1_555
Cu1C N9 1_555 1_555
Cu2B N5 1_555 1_555
Cu2_2 N6 1_555 1_555
N5B Cu2 1_555 1_555
N6_2 Cu2 1_555 1_555
N7_2 Cu2 1_555 1_555
N8_2 Cu1 1_555 1_555
N9C Cu1 1_555 1_555
C6 C7 1_555 1_555
C10 C11 1_555 1_555
N7 C12 1_555 1_555
N7 Cu2_2 1_555 1_555
N7_2 N8_2 1_555 1_555

#END
