
#######################################################################
#
#                 Cambridge Crystallographic Data Centre
#                                CCDC 
#
#######################################################################
#
# If this CIF has been generated from an entry in the Cambridge 
# Structural Database, then it will include bibliographic, chemical, 
# crystal, experimental, refinement or atomic coordinate data resulting 
# from the CCDC's data processing and validation procedures.
#
#######################################################################

data_QITZAW
_symmetry_cell_setting           orthorhombic
_symmetry_space_group_name_H-M   'P n n a'
_symmetry_Int_Tables_number      52
_space_group_name_Hall           '-P 2a 2bc'
loop_
_symmetry_equiv_pos_site_id
_symmetry_equiv_pos_as_xyz
1 x,y,z
2 1/2-x,-y,z
3 x,1/2-y,1/2-z
4 1/2-x,1/2+y,1/2-z
5 -x,-y,-z
6 1/2+x,y,-z
7 -x,1/2+y,1/2+z
8 1/2+x,1/2-y,1/2+z
_cell_length_a                   8.5322(17)
_cell_length_b                   22.025(8)
_cell_length_c                   15.088(3)
_cell_angle_alpha                90
_cell_angle_beta                 90
_cell_angle_gamma                90
_cell_volume                     2835.36
loop_
_atom_site_label
_atom_site_type_symbol
_atom_site_fract_x
_atom_site_fract_y
_atom_site_fract_z
Co1 Co 0.16187(15) 0.2500 0.2500
N1 N 0.0067(7) 0.2304(3) 0.3466(4)
N2 N -0.1698(6) 0.1780(3) 0.4213(4)
O1 O 0.2103(10) 0.1441(6) 0.2353(5)
O2 O 0.3417(11) 0.2164(5) 0.1692(7)
O3 O 0.7500 0.0000 0.0364(6)
C1 C 0.3149(14) 0.1591(6) 0.1915(8)
C2 C 0.4349(9) 0.1154(4) 0.1557(5)
C3 C 0.4288(12) 0.0551(5) 0.1705(5)
H1 H 0.3503 0.0392 0.2065
C4 C 0.5398(18) 0.0158(4) 0.1321(7)
H2 H 0.5349 -0.0259 0.1415
C5 C 0.6524(15) 0.0401(6) 0.0816(6)
C6 C 0.6645(12) 0.0980(7) 0.0698(8)
H3 H 0.7470 0.1136 0.0367
C7 C 0.5563(12) 0.1359(5) 0.1058(7)
H4 H 0.5658 0.1774 0.0959
C8 C -0.0801(8) 0.1817(4) 0.3485(5)
H5 H -0.0799 0.1525 0.3040
C9 C -0.1355(10) 0.2284(4) 0.4698(6)
H6 H -0.1786 0.2389 0.5242
C10 C -0.0272(10) 0.2601(4) 0.4239(7)
H7 H 0.0175 0.2965 0.4420
C11 C -0.2703(7) 0.1281(4) 0.4443(4)
C12 C -0.2897(8) 0.1121(4) 0.5318(4)
H8 H -0.2421 0.1347 0.5764
C13 C -0.3800(8) 0.0626(4) 0.5525(4)
H9 H -0.3927 0.0522 0.6119
C14 C -0.4527(7) 0.0273(4) 0.4888(4)
C15 C -0.4314(9) 0.0457(5) 0.4008(4)
H10 H -0.4788 0.0234 0.3558
C16 C -0.3432(9) 0.0952(5) 0.3788(5)
H11 H -0.3327 0.1067 0.3198
N1D N -1.0067(7) -0.2304(3) 0.6534(4)
N2D N -0.8302(6) -0.1780(3) 0.5787(4)
C8D C -0.9199(8) -0.1817(4) 0.6515(5)
H5D H -0.9201 -0.1525 0.6960
C9D C -0.8645(10) -0.2284(4) 0.5302(6)
H6D H -0.8214 -0.2389 0.4758
C10D C -0.9728(10) -0.2601(4) 0.5761(7)
H7D H -1.0175 -0.2965 0.5580
C11D C -0.7297(7) -0.1281(4) 0.5557(4)
C12D C -0.7103(8) -0.1121(4) 0.4682(4)
H8D H -0.7579 -0.1347 0.4236
C13D C -0.6200(8) -0.0626(4) 0.4475(4)
H9D H -0.6073 -0.0522 0.3881
C14D C -0.5473(7) -0.0273(4) 0.5112(4)
C15D C -0.5686(9) -0.0457(5) 0.5992(4)
H10D H -0.5212 -0.0234 0.6442
C16D C -0.6568(9) -0.0952(5) 0.6212(5)
H11D H -0.6673 -0.1067 0.6802
O1A O 1.2897(10) -0.1441(6) 0.2353(5)
O2A O 1.1583(11) -0.2164(5) 0.1692(7)
C1A C 1.1851(14) -0.1591(6) 0.1915(8)
C2A C 1.0651(9) -0.1154(4) 0.1557(5)
C3A C 1.0712(12) -0.0551(5) 0.1705(5)
H1A H 1.1497 -0.0392 0.2065
C4A C 0.9602(18) -0.0158(4) 0.1321(7)
H2A H 0.9651 0.0259 0.1415
C5A C 0.8476(15) -0.0401(6) 0.0816(6)
C6A C 0.8355(12) -0.0980(7) 0.0698(8)
H3A H 0.7530 -0.1136 0.0367
C7A C 0.9437(12) -0.1359(5) 0.1058(7)
H4A H 0.9342 -0.1774 0.0959
Co1A Co 1.33813(15) -0.2500 0.2500
Co1D Co -1.16187(15) -0.2500 0.7500
N1B N 0.0067(7) 0.2696(3) 0.1534(4)
O1B O 0.2103(10) 0.3559(6) 0.2647(5)
O2B O 0.3417(11) 0.2836(5) 0.3308(7)
O4 O 0.644(5) 0.2500 0.2500
loop_
_geom_bond_atom_site_label_1
_geom_bond_atom_site_label_2
_geom_bond_site_symmetry_1
_geom_bond_site_symmetry_2
Co1 N1 1_555 1_555
N1 C8 1_555 1_555
N2 C8 1_555 1_555
O1 Co1 1_555 1_555
O2 Co1 1_555 1_555
O3 C5 1_555 1_555
C1 O1 1_555 1_555
C2 C1 1_555 1_555
C3 C2 1_555 1_555
H1 C3 1_555 1_555
C4 C3 1_555 1_555
H2 C4 1_555 1_555
C5 C4 1_555 1_555
C6 C5 1_555 1_555
H3 C6 1_555 1_555
C7 C2 1_555 1_555
H4 C7 1_555 1_555
C8 H5 1_555 1_555
C9 N2 1_555 1_555
H6 C9 1_555 1_555
C10 N1 1_555 1_555
H7 C10 1_555 1_555
C11 N2 1_555 1_555
C12 C11 1_555 1_555
H8 C12 1_555 1_555
C13 C12 1_555 1_555
H9 C13 1_555 1_555
C14 C13 1_555 1_555
C15 C14 1_555 1_555
H10 C15 1_555 1_555
C16 C11 1_555 1_555
H11 C16 1_555 1_555
N1D C8D 1_555 1_555
N2D C8D 1_555 1_555
C8D H5D 1_555 1_555
C9D N2D 1_555 1_555
H6D C9D 1_555 1_555
C10D N1D 1_555 1_555
H7D C10D 1_555 1_555
C11D N2D 1_555 1_555
C12D C11D 1_555 1_555
H8D C12D 1_555 1_555
C13D C12D 1_555 1_555
H9D C13D 1_555 1_555
C14D C14 1_555 1_555
C15D C14D 1_555 1_555
H10D C15D 1_555 1_555
C16D C11D 1_555 1_555
H11D C16D 1_555 1_555
O1A C1A 1_555 1_555
O2A C1A 1_555 1_555
C1A C2A 1_555 1_555
C2A C3A 1_555 1_555
C3A H1A 1_555 1_555
C4A C3A 1_555 1_555
H2A C4A 1_555 1_555
C5A O3 1_555 1_555
C6A C5A 1_555 1_555
H3A C6A 1_555 1_555
C7A C2A 1_555 1_555
H4A C7A 1_555 1_555
Co1A O1A 1_555 1_555
Co1D N1D 1_555 1_555
N1B Co1 1_555 1_555
O1B Co1 1_555 1_555
O2B Co1 1_555 1_555
O2 C1 1_555 1_555
C6 C7 1_555 1_555
C9 C10 1_555 1_555
C15 C16 1_555 1_555
C9D C10D 1_555 1_555
C13D C14D 1_555 1_555
C15D C16D 1_555 1_555
O2A Co1A 1_555 1_555
C4A C5A 1_555 1_555
C6A C7A 1_555 1_555

#END
