
#######################################################################
#
#                 Cambridge Crystallographic Data Centre
#                                CCDC 
#
#######################################################################
#
# If this CIF has been generated from an entry in the Cambridge 
# Structural Database, then it will include bibliographic, chemical, 
# crystal, experimental, refinement or atomic coordinate data resulting 
# from the CCDC's data processing and validation procedures.
#
#######################################################################

data_QIVBAZ
_symmetry_cell_setting           orthorhombic
_symmetry_space_group_name_H-M   'P b c m'
_symmetry_Int_Tables_number      57
_space_group_name_Hall           '-P 2c 2b'
loop_
_symmetry_equiv_pos_site_id
_symmetry_equiv_pos_as_xyz
1 x,y,z
2 -x,-y,1/2+z
3 -x,1/2+y,1/2-z
4 x,1/2-y,-z
5 -x,-y,-z
6 x,y,1/2-z
7 x,1/2-y,1/2+z
8 -x,1/2+y,z
_cell_length_a                   6.6799(5)
_cell_length_b                   17.8844(14)
_cell_length_c                   14.9376(12)
_cell_angle_alpha                90
_cell_angle_beta                 90
_cell_angle_gamma                90
_cell_volume                     1784.54
loop_
_atom_site_label
_atom_site_type_symbol
_atom_site_fract_x
_atom_site_fract_y
_atom_site_fract_z
Cd1 Cd 1.24358(3) 0.700990(10) 0.383280(13)
Cu1 Cu 0.67722(9) 0.79650(3) 0.2500
Cl1 Cl 1.02819(14) 0.75568(6) 0.2500
N1 N 0.5998(3) 0.83706(12) 0.36689(14)
N2 N 0.4528(3) 0.80571(11) 0.41526(15)
C1 C 0.6648(4) 0.89436(13) 0.41655(17)
Cl2 Cl 0.50031(14) 0.66982(5) 0.2500
C2 C 0.8188(4) 0.95028(15) 0.39188(17)
Cl3 Cl 0.98806(14) 0.7500 0.5000
N3 N 0.5657(3) 0.89897(12) 0.49351(15)
N4 N 0.4355(3) 0.84265(12) 0.49059(15)
C3 C 1.0185(4) 0.93417(17) 0.3785(2)
H1 H 1.0640 0.8850 0.3792
C4 C 1.1491(5) 0.99269(18) 0.3641(3)
H2 H 1.2847 0.9833 0.3555
C5 C 1.0785(4) 1.06484(16) 0.3625(2)
H3 H 1.1688 1.1038 0.3539
N5 N 0.8848(4) 1.08087(12) 0.37276(15)
C6 C 0.7583(4) 1.02414(17) 0.38706(19)
H4 H 0.6230 1.0349 0.3941
Cd1E Cd 1.24358(3) 0.700990(10) 0.116720(13)
Cd1_2 Cd 0.24358(3) 0.700990(10) 0.383280(13)
Cd1E_2 Cd 0.24358(3) 0.700990(10) 0.116720(13)
Cd1C Cd 1.24358(3) 0.799010(10) 0.616720(13)
Cd1C_2 Cd 0.24358(3) 0.799010(10) 0.616720(13)
Cd1G Cd 0.75642(3) 1.200990(10) 0.383280(13)
Cd1F Cd 0.24358(3) 0.799010(10) -0.116720(13)
Cd1B Cd 0.75642(3) 1.200990(10) 0.116720(13)
N1E N 0.5998(3) 0.83706(12) 0.13311(14)
N2E N 0.4528(3) 0.80571(11) 0.08474(15)
N2_2 N 1.4528(3) 0.80571(11) 0.41526(15)
N2E_2 N 1.4528(3) 0.80571(11) 0.08474(15)
C1E C 0.6648(4) 0.89436(13) 0.08345(17)
Cl2_2 Cl 1.50031(14) 0.66982(5) 0.2500
C2E C 0.8188(4) 0.95028(15) 0.10812(17)
Cl3E Cl 0.98806(14) 0.7500 0.0000
N3E N 0.5657(3) 0.89897(12) 0.00649(15)
N4E N 0.4355(3) 0.84265(12) 0.00941(15)
N4C N 1.4355(3) 0.65735(12) 0.50941(15)
N4F N 1.4355(3) 0.65735(12) -0.00941(15)
C3E C 1.0185(4) 0.93417(17) 0.1215(2)
H1E H 1.0640 0.8850 0.1208
C4E C 1.1491(5) 0.99269(18) 0.1359(3)
H2E H 1.2847 0.9833 0.1445
C5E C 1.0785(4) 1.06484(16) 0.1375(2)
H3E H 1.1688 1.1038 0.1461
N5E N 0.8848(4) 1.08087(12) 0.12724(15)
N5G N 1.1152(4) 0.58087(12) 0.37276(15)
N5B N 1.1152(4) 0.58087(12) 0.12724(15)
C6E C 0.7583(4) 1.02414(17) 0.11294(19)
H4E H 0.6230 1.0349 0.1059
loop_
_geom_bond_atom_site_label_1
_geom_bond_atom_site_label_2
_geom_bond_site_symmetry_1
_geom_bond_site_symmetry_2
Cd1 Cl1 1_555 1_555
Cu1 Cl1 1_555 1_555
Cl1 Cd1E 1_555 1_555
N1 Cu1 1_555 1_555
N2 N1 1_555 1_555
C1 N1 1_555 1_555
Cl2 Cu1 1_555 1_555
C2 C1 1_555 1_555
Cl3 Cd1 1_555 1_555
N3 C1 1_555 1_555
N4 N2 1_555 1_555
C3 C2 1_555 1_555
H1 C3 1_555 1_555
C4 C3 1_555 1_555
H2 C4 1_555 1_555
C5 C4 1_555 1_555
H3 C5 1_555 1_555
N5 C5 1_555 1_555
C6 C2 1_555 1_555
H4 C6 1_555 1_555
Cd1E N2E_2 1_555 1_555
Cd1_2 N2 1_555 1_555
Cd1E_2 Cl2 1_555 1_555
Cd1C Cl3 1_555 1_555
Cd1C_2 N4 1_555 1_555
Cd1G N5 1_555 1_555
Cd1F N4E 1_555 1_555
Cd1B N5E 1_555 1_555
N1E Cu1 1_555 1_555
N2E Cd1E_2 1_555 1_555
N2_2 Cd1 1_555 1_555
C1E N1E 1_555 1_555
Cl2_2 Cd1 1_555 1_555
C2E C1E 1_555 1_555
Cl3E Cd1E 1_555 1_555
N3E C1E 1_555 1_555
N4E N2E 1_555 1_555
N4C Cd1 1_555 1_555
N4F Cd1E 1_555 1_555
C3E C2E 1_555 1_555
H1E C3E 1_555 1_555
C4E C3E 1_555 1_555
H2E C4E 1_555 1_555
C5E C4E 1_555 1_555
H3E C5E 1_555 1_555
N5E C5E 1_555 1_555
N5G Cd1 1_555 1_555
N5B Cd1E 1_555 1_555
C6E C2E 1_555 1_555
H4E C6E 1_555 1_555
Cl2 Cd1_2 1_555 1_555
N3 N4 1_555 1_555
N5 C6 1_555 1_555
Cd1E Cl2_2 1_555 1_555
N1E N2E 1_555 1_555
N3E N4E 1_555 1_555
N5E C6E 1_555 1_555

#END
