
#######################################################################
#
#                 Cambridge Crystallographic Data Centre
#                                CCDC 
#
#######################################################################
#
# If this CIF has been generated from an entry in the Cambridge 
# Structural Database, then it will include bibliographic, chemical, 
# crystal, experimental, refinement or atomic coordinate data resulting 
# from the CCDC's data processing and validation procedures.
#
#######################################################################

data_QIVCED
_symmetry_cell_setting           triclinic
_symmetry_space_group_name_H-M   'P -1'
_symmetry_Int_Tables_number      2
_space_group_name_Hall           '-P 1'
loop_
_symmetry_equiv_pos_site_id
_symmetry_equiv_pos_as_xyz
1 x,y,z
2 -x,-y,-z
_cell_length_a                   10.937(4)
_cell_length_b                   13.320(4)
_cell_length_c                   9.628(3)
_cell_angle_alpha                97.17(3)
_cell_angle_beta                 114.87(2)
_cell_angle_gamma                99.74(3)
_cell_volume                     1223.71
loop_
_atom_site_label
_atom_site_type_symbol
_atom_site_fract_x
_atom_site_fract_y
_atom_site_fract_z
Fe1 Fe 1.0000 0.0000 1.0000
N1 N 0.9499(2) 0.1350(2) 0.9605(3)
N2 N 1.2017(2) 0.0724(2) 1.1030(3)
N3 N 0.9914(2) 0.0213(2) 1.1930(3)
N4 N 0.7910(4) 0.1201(3) 1.4860(4)
C1 C 0.8186(3) 0.1518(2) 0.8918(3)
C2 C 0.8285(3) 0.2607(3) 0.8883(4)
C3 C 0.9637(3) 0.3089(2) 0.9533(4)
C4 C 1.0406(3) 0.2307(2) 0.9985(3)
C5 C 1.1847(3) 0.2516(2) 1.0738(4)
C6 C 1.2582(3) 0.1770(2) 1.1232(3)
C7 C 1.4071(3) 0.1979(3) 1.1961(4)
C8 C 1.4411(3) 0.1065(2) 1.2199(4)
C9 C 1.3132(3) 0.0283(2) 1.1615(3)
C10 C 0.6946(3) 0.0770(2) 0.8357(3)
C11 C 1.2646(3) 0.3618(2) 1.1030(4)
C12 C 1.3309(5) 0.4254(3) 1.2509(6)
C13 C 1.4015(5) 0.5287(4) 1.2750(7)
C14 C 1.4084(4) 0.5670(3) 1.1557(8)
C15 C 1.3432(6) 0.5053(4) 1.0067(8)
C16 C 1.2713(5) 0.4022(3) 0.9796(6)
C17 C 0.5617(3) 0.1114(2) 0.7710(3)
C18 C 0.5074(3) 0.1326(3) 0.6220(4)
C19 C 0.3836(4) 0.1649(3) 0.5639(4)
C20 C 0.3150(3) 0.1766(3) 0.6543(4)
C21 C 0.3676(4) 0.1547(3) 0.8009(4)
C22 C 0.4907(3) 0.1226(3) 0.8600(4)
C23 C 0.9618(3) 0.0254(2) 1.4433(3)
C24 C 0.9777(3) 0.0245(2) 1.3054(3)
C25 C 0.8663(3) 0.0785(2) 1.4650(3)
H1 H 0.7529 0.2925 0.8475
H2 H 1.0020 0.3810 0.9670
H3 H 1.4701 0.2639 1.2228
H4 H 1.5323 0.0961 1.2665
H5 H 1.3286 0.3990 1.3372
H6 H 1.4452 0.5723 1.3773
H7 H 1.4584 0.6369 1.1740
H8 H 1.3472 0.5330 0.9219
H9 H 1.2269 0.3596 0.8766
H10 H 0.5546 0.1250 0.5594
H11 H 0.3466 0.1788 0.4617
H12 H 0.2317 0.1997 0.6152
H13 H 0.3193 0.1616 0.8624
H14 H 0.5264 0.1082 0.9620
C10A C 1.3054(3) -0.0770(2) 1.1643(3)
C1A C 1.1814(3) -0.1518(2) 1.1082(3)
N1A N 1.0501(2) -0.1350(2) 1.0395(3)
C4A C 0.9594(3) -0.2307(2) 1.0015(3)
C3A C 1.0363(3) -0.3089(2) 1.0467(4)
C2A C 1.1715(3) -0.2607(3) 1.1117(4)
H1A H 1.2471 -0.2925 1.1525
H2A H 0.9980 -0.3810 1.0330
C5A C 0.8153(3) -0.2516(2) 0.9262(4)
C6A C 0.7418(3) -0.1770(2) 0.8768(3)
N2A N 0.7983(2) -0.0724(2) 0.8970(3)
C9A C 0.6868(3) -0.0283(2) 0.8385(3)
C8A C 0.5589(3) -0.1065(2) 0.7801(4)
C7A C 0.5929(3) -0.1979(3) 0.8039(4)
H3A H 0.5299 -0.2639 0.7772
H4A H 0.4677 -0.0961 0.7335
C11A C 0.7354(3) -0.3618(2) 0.8970(4)
C12A C 0.6691(5) -0.4254(3) 0.7491(6)
C13A C 0.5985(5) -0.5287(4) 0.7250(7)
C14A C 0.5916(4) -0.5670(3) 0.8443(8)
C15A C 0.6568(6) -0.5053(4) 0.9933(8)
C16A C 0.7287(5) -0.4022(3) 1.0204(6)
H9A H 0.7731 -0.3596 1.1234
H8A H 0.6528 -0.5330 1.0781
H7A H 0.5416 -0.6369 0.8260
H6A H 0.5548 -0.5723 0.6227
H5A H 0.6714 -0.3990 0.6628
C17A C 1.4383(3) -0.1114(2) 1.2290(3)
C18A C 1.4926(3) -0.1326(3) 1.3780(4)
C19A C 1.6164(4) -0.1649(3) 1.4361(4)
C20A C 1.6850(3) -0.1766(3) 1.3457(4)
C21A C 1.6324(4) -0.1547(3) 1.1991(4)
C22A C 1.5093(3) -0.1226(3) 1.1400(4)
H14A H 1.4736 -0.1082 1.0380
H13A H 1.6807 -0.1616 1.1376
H12A H 1.7683 -0.1997 1.3848
H11A H 1.6534 -0.1788 1.5383
H10A H 1.4454 -0.1250 1.4406
C23A C 1.0382(3) -0.0254(2) 1.5567(3)
C24A C 1.0223(3) -0.0245(2) 1.6946(3)
N3A N 1.0086(2) -0.0213(2) 1.8070(3)
C25A C 1.1337(3) -0.0785(2) 1.5350(3)
N4A N 1.2090(4) -0.1201(3) 1.5140(4)
N3A_2 N 1.0086(2) -0.0213(2) 0.8070(3)
Fe1_2 Fe 1.0000 0.0000 2.0000
Cl1 Cl 0.9815(2) 0.7198(1) 0.6526(2)
C26 C 0.9037(6) 0.5886(4) 0.5855(7)
C27 C 0.7775(6) 0.5558(5) 0.4484(8)
C28 C 0.7135(7) 0.4484(5) 0.3975(8)
C29 C 0.7689(7) 0.3796(5) 0.4785(9)
C30 C 0.8964(7) 0.4129(5) 0.6082(8)
C31 C 0.9641(6) 0.5172(5) 0.6658(6)
H15 H 0.7365 0.6045 0.3916
H16 H 0.6289 0.4241 0.3033
H17 H 0.7204 0.3081 0.4467
H18 H 0.9390 0.3627 0.6596
H19 H 1.0502 0.5394 0.7584
loop_
_geom_bond_atom_site_label_1
_geom_bond_atom_site_label_2
_geom_bond_site_symmetry_1
_geom_bond_site_symmetry_2
Fe1 N1 1_555 1_555
Cl1 C26 1_555 1_555
N1 C1 1_555 1_555
N2 Fe1 1_555 1_555
N3 Fe1 1_555 1_555
N4 C25 1_555 1_555
C1 C2 1_555 1_555
C2 C3 1_555 1_555
C3 C4 1_555 1_555
C4 N1 1_555 1_555
C5 C4 1_555 1_555
C6 N2 1_555 1_555
C7 C6 1_555 1_555
C8 C7 1_555 1_555
C9 N2 1_555 1_555
C10 C1 1_555 1_555
C11 C5 1_555 1_555
C12 C11 1_555 1_555
C13 C12 1_555 1_555
C14 C13 1_555 1_555
C15 C14 1_555 1_555
C16 C11 1_555 1_555
C17 C10 1_555 1_555
C18 C17 1_555 1_555
C19 C18 1_555 1_555
C20 C19 1_555 1_555
C21 C20 1_555 1_555
C22 C17 1_555 1_555
C23 C24 1_555 1_555
C24 N3 1_555 1_555
C25 C23 1_555 1_555
C26 C27 1_555 1_555
C27 C28 1_555 1_555
C28 C29 1_555 1_555
C29 C30 1_555 1_555
C30 C31 1_555 1_555
C31 C26 1_555 1_555
H1 C2 1_555 1_555
H2 C3 1_555 1_555
H3 C7 1_555 1_555
H4 C8 1_555 1_555
H5 C12 1_555 1_555
H6 C13 1_555 1_555
H7 C14 1_555 1_555
H8 C15 1_555 1_555
H9 C16 1_555 1_555
H10 C18 1_555 1_555
H11 C19 1_555 1_555
H12 C20 1_555 1_555
H13 C21 1_555 1_555
H14 C22 1_555 1_555
H15 C27 1_555 1_555
H16 C28 1_555 1_555
H17 C29 1_555 1_555
H18 C30 1_555 1_555
H19 C31 1_555 1_555
C10A C9 1_555 1_555
C1A C10A 1_555 1_555
N1A Fe1 1_555 1_555
C4A N1A 1_555 1_555
C3A C4A 1_555 1_555
C2A C1A 1_555 1_555
H1A C2A 1_555 1_555
H2A C3A 1_555 1_555
C5A C4A 1_555 1_555
C6A C5A 1_555 1_555
N2A Fe1 1_555 1_555
C9A C10 1_555 1_555
C8A C9A 1_555 1_555
C7A C6A 1_555 1_555
H3A C7A 1_555 1_555
H4A C8A 1_555 1_555
C11A C5A 1_555 1_555
C12A C11A 1_555 1_555
C13A C12A 1_555 1_555
C14A C13A 1_555 1_555
C15A C14A 1_555 1_555
C16A C11A 1_555 1_555
H9A C16A 1_555 1_555
H8A C15A 1_555 1_555
H7A C14A 1_555 1_555
H6A C13A 1_555 1_555
H5A C12A 1_555 1_555
C17A C10A 1_555 1_555
C18A C17A 1_555 1_555
C19A C18A 1_555 1_555
C20A C19A 1_555 1_555
C21A C20A 1_555 1_555
C22A C17A 1_555 1_555
H14A C22A 1_555 1_555
H13A C21A 1_555 1_555
H12A C20A 1_555 1_555
H11A C19A 1_555 1_555
H10A C18A 1_555 1_555
C23A C23 1_555 1_555
C24A C23A 1_555 1_555
N3A C24A 1_555 1_555
C25A C23A 1_555 1_555
N4A C25A 1_555 1_555
N3A_2 Fe1 1_555 1_555
Fe1_2 N3A 1_555 1_555
C5 C6 1_555 1_555
C8 C9 1_555 1_555
C15 C16 1_555 1_555
C21 C22 1_555 1_555
C1A N1A 1_555 1_555
C3A C2A 1_555 1_555
C6A N2A 1_555 1_555
N2A C9A 1_555 1_555
C8A C7A 1_555 1_555
C15A C16A 1_555 1_555
C21A C22A 1_555 1_555

#END
