
#######################################################################
#
#                 Cambridge Crystallographic Data Centre
#                                CCDC 
#
#######################################################################
#
# If this CIF has been generated from an entry in the Cambridge 
# Structural Database, then it will include bibliographic, chemical, 
# crystal, experimental, refinement or atomic coordinate data resulting 
# from the CCDC's data processing and validation procedures.
#
#######################################################################

data_QIVFAE
_symmetry_cell_setting           monoclinic
_symmetry_space_group_name_H-M   'P 21/c'
_symmetry_Int_Tables_number      14
_space_group_name_Hall           '-P 2ybc'
loop_
_symmetry_equiv_pos_site_id
_symmetry_equiv_pos_as_xyz
1 x,y,z
2 -x,1/2+y,1/2-z
3 -x,-y,-z
4 x,1/2-y,1/2+z
_cell_length_a                   7.348(2)
_cell_length_b                   11.479(3)
_cell_length_c                   26.874(7)
_cell_angle_alpha                90
_cell_angle_beta                 98.31(1)
_cell_angle_gamma                90
_cell_volume                     2242.96
loop_
_atom_site_label
_atom_site_type_symbol
_atom_site_fract_x
_atom_site_fract_y
_atom_site_fract_z
O8 O 0.6996(9) 0.8956(6) 0.4299(2)
C16 C 0.750(2) 0.7866(12) 0.4109(4)
H14 H 0.6793 0.9576 0.4010
H15 H 0.8076 0.7369 0.4301
H16 H 0.883(9) 0.79(2) 0.406(8)
H17 H 0.6836 0.7548 0.3745
Cu1 Cu 0.28317(10) 0.14080(6) 0.34620(2)
Cl1 Cl 0.7730(2) 0.07018(13) 0.31579(6)
N1 N 0.2643(7) 0.2731(4) 0.30128(18)
O1 O 0.3119(6) 0.2436(4) 0.40309(15)
N2 N 0.2669(7) 0.0539(4) 0.27932(18)
O2 O 0.9237(7) 0.1467(5) 0.3301(2)
C1 C 0.2523(9) 0.1279(6) 0.2405(2)
N3 N 0.1961(8) -0.1023(5) 0.46366(19)
C2 C 0.3115(9) -0.1452(5) 0.5010(2)
N4 N 0.2777(8) 0.0143(5) 0.3938(2)
N5 N 0.2487(10) 0.2433(5) 0.2516(2)
N6 N 0.2424(9) 0.1031(5) 0.19133(19)
C3 C 0.2527(10) 0.3827(5) 0.3114(2)
H1 H 0.2360 0.4361 0.2841
C4 C 0.2926(8) 0.3588(6) 0.4046(2)
C5 C 0.2778(9) -0.0609(6) 0.2668(3)
O3 O 0.6448(8) 0.0824(7) 0.3512(2)
O4 O 0.6847(9) 0.0990(5) 0.26691(19)
C6 C 0.2501(9) -0.0409(6) 0.4281(2)
C7 C 0.2636(9) 0.4282(5) 0.3611(2)
O5 O 0.8409(10) -0.0470(5) 0.3158(2)
C8 C 0.3010(10) 0.4135(6) 0.4509(3)
H2 H 0.3182 0.3680 0.4807
C9 C 0.2492(9) -0.0086(6) 0.1803(2)
C10 C 0.2471(12) 0.5488(6) 0.3655(3)
H3 H 0.2302 0.5956 0.3361
C11 C 0.2376(12) -0.0413(8) 0.1254(3)
H4 H 0.2258 0.0295 0.1048
H5 H 0.1301 -0.0913 0.1157
H6 H 0.3493 -0.0833 0.1201
C12 C 0.2845(12) 0.5337(7) 0.4544(3)
H7 H 0.2941 0.5690 0.4867
C13 C 0.2550(14) 0.6019(7) 0.4126(3)
H8 H 0.2401 0.6837 0.4154
C14 C 0.2978(15) -0.1500(7) 0.3078(3)
H9 H 0.3042 -0.1110 0.3404
H10 H 0.4107 -0.1949 0.3068
H11 H 0.1916 -0.2026 0.3030
C15 C 0.2666(11) -0.0941(7) 0.2178(3)
O6 O 0.2438(7) -0.1958(5) 0.53858(17)
O7 O 0.4896(8) -0.1481(5) 0.5060(2)
H12 H 0.559(8) -0.182(6) 0.540(2)
H13 H 0.257(11) 0.299(8) 0.218(3)
Cu1_2 Cu 1.28317(10) 0.14080(6) 0.34620(2)
O2_2 O -0.0763(7) 0.1467(5) 0.3301(2)
loop_
_geom_bond_atom_site_label_1
_geom_bond_atom_site_label_2
_geom_bond_site_symmetry_1
_geom_bond_site_symmetry_2
Cu1 N1 1_555 1_555
Cl1 O2 1_555 1_555
N1 N5 1_555 1_555
O1 Cu1 1_555 1_555
N2 Cu1 1_555 1_555
O2 Cu1_2 1_555 1_555
C1 N2 1_555 1_555
N3 C2 1_555 1_555
C2 O6 1_555 1_555
N4 Cu1 1_555 1_555
N5 C1 1_555 1_555
N6 C1 1_555 1_555
C3 N1 1_555 1_555
H1 C3 1_555 1_555
C4 O1 1_555 1_555
C5 N2 1_555 1_555
O3 Cu1 1_555 1_555
O4 Cl1 1_555 1_555
C6 N3 1_555 1_555
C7 C3 1_555 1_555
O5 Cl1 1_555 1_555
C8 C4 1_555 1_555
H2 C8 1_555 1_555
C9 N6 1_555 1_555
C10 C7 1_555 1_555
H3 C10 1_555 1_555
C11 C9 1_555 1_555
H4 C11 1_555 1_555
H5 C11 1_555 1_555
H6 C11 1_555 1_555
C12 C8 1_555 1_555
H7 C12 1_555 1_555
C13 C10 1_555 1_555
H8 C13 1_555 1_555
C14 C5 1_555 1_555
H9 C14 1_555 1_555
H10 C14 1_555 1_555
H11 C14 1_555 1_555
C15 C5 1_555 1_555
O7 C2 1_555 1_555
H12 O7 1_555 1_555
H13 N5 1_555 1_555
O8 C16 1_555 1_555
C16 H15 1_555 1_555
H14 O8 1_555 1_555
H16 C16 1_555 1_555
H17 C16 1_555 1_555
O2_2 Cu1 1_555 1_555
Cl1 O3 1_555 1_555
N4 C6 1_555 1_555
C4 C7 1_555 1_555
C9 C15 1_555 1_555
C12 C13 1_555 1_555

#END
