
#######################################################################
#
#                 Cambridge Crystallographic Data Centre
#                                CCDC 
#
#######################################################################
#
# If this CIF has been generated from an entry in the Cambridge 
# Structural Database, then it will include bibliographic, chemical, 
# crystal, experimental, refinement or atomic coordinate data resulting 
# from the CCDC's data processing and validation procedures.
#
#######################################################################

data_QIVHUA
_symmetry_cell_setting           monoclinic
_symmetry_space_group_name_H-M   'C 2/m'
_symmetry_Int_Tables_number      12
_space_group_name_Hall           '-C 2y'
loop_
_symmetry_equiv_pos_site_id
_symmetry_equiv_pos_as_xyz
1 x,y,z
2 -x,y,-z
3 1/2+x,1/2+y,z
4 1/2-x,1/2+y,-z
5 -x,-y,-z
6 x,-y,z
7 1/2-x,1/2-y,-z
8 1/2+x,1/2-y,z
_cell_length_a                   18.488(3)
_cell_length_b                   13.7682(19)
_cell_length_c                   13.4613(17)
_cell_angle_alpha                90
_cell_angle_beta                 130.787(2)
_cell_angle_gamma                90
_cell_volume                     2594.37
loop_
_atom_site_label
_atom_site_type_symbol
_atom_site_fract_x
_atom_site_fract_y
_atom_site_fract_z
C1 C 0.1283(6) 1.0000 1.2581(8)
H1 H 0.0906 0.9470 1.2177
H2 H 0.1530 1.0000 1.3425
C2 C 0.6199(6) 1.0000 0.9021(9)
H3 H 0.6574 0.9440 0.9256
H4 H 0.5971 1.0000 0.9441
C3 C 0.0770(4) 1.0000 0.7419(6)
C4 C 0.1136(4) 1.0000 0.8791(6)
C5 C 0.1294(3) 1.0869(3) 0.9427(4)
H5 H 0.1210 1.1455 0.9019
C6 C 0.1576(3) 1.0868(4) 1.0664(5)
C7 C 0.1711(4) 1.0000 1.1287(7)
C8 C 0.1630(5) 1.2601(4) 1.0777(6)
H6 H 0.2060 1.2642 1.0610
H7 H 0.1766 1.3115 1.1361
H8 H 0.0984 1.2662 0.9966
C9 C 0.1684(4) 1.0000 0.5760(6)
C10 C 0.2693(4) 1.0000 0.6271(6)
C11 C 0.3150(3) 0.9123(3) 0.6501(4)
H9 H 0.2833 0.8539 0.6324
C12 C 0.4081(3) 0.9128(3) 0.6994(4)
C13 C 0.4558(5) 1.0000 0.7267(7)
C14 C 0.4090(4) 0.7416(3) 0.6768(5)
H10 H 0.3838 0.7278 0.7190
H11 H 0.4518 0.6906 0.6956
H12 H 0.3574 0.7459 0.5837
C15 C -0.0805(3) 0.7072(3) 0.4212(5)
H13 H -0.1379 0.7408 0.3643
C16 C -0.0829(3) 0.6069(3) 0.4197(5)
H14 H -0.1413 0.5750 0.3636
N1 N 0.0000 0.7580(3) 0.5000
C17 C 0.0000 0.5538(4) 0.5000
Ni1 Ni 0.0000 0.90303(5) 0.5000
O1 O 0.0596(2) 0.91882(19) 0.6874(3)
O2 O 0.12967(18) 0.91877(18) 0.5557(3)
O3 O 0.2014(3) 1.0000 1.2528(5)
O4 O 0.1746(2) 1.1692(3) 1.1361(3)
O5 O 0.5465(4) 1.0000 0.7701(6)
O6 O 0.4590(2) 0.8311(2) 0.7241(3)
H1E H 0.0906 1.0530 1.2177
C5E C 0.1294(3) 0.9131(3) 0.9427(4)
H5E H 0.1210 0.8545 0.9019
C6E C 0.1576(3) 0.9132(4) 1.0664(5)
C8E C 0.1630(5) 0.7399(4) 1.0777(6)
H6E H 0.2060 0.7358 1.0610
H7E H 0.1766 0.6885 1.1361
H8E H 0.0984 0.7338 0.9966
O1E O 0.0596(2) 1.08118(19) 0.6874(3)
O4E O 0.1746(2) 0.8308(3) 1.1361(3)
H3E H 0.6574 1.0560 0.9256
C11E C 0.3150(3) 1.0877(3) 0.6501(4)
H9E H 0.2833 1.1461 0.6324
C12E C 0.4081(3) 1.0872(3) 0.6994(4)
C14E C 0.4090(4) 1.2584(3) 0.6768(5)
H10E H 0.3838 1.2722 0.7190
H11E H 0.4518 1.3094 0.6956
H12E H 0.3574 1.2541 0.5837
O2E O 0.12967(18) 1.08123(18) 0.5557(3)
O6E O 0.4590(2) 1.1689(2) 0.7241(3)
C15A C 0.0805(3) 0.7072(3) 0.5788(5)
H13A H 0.1379 0.7408 0.6357
C16A C 0.0829(3) 0.6069(3) 0.5803(5)
H14A H 0.1413 0.5750 0.6364
C15D C 0.0805(3) 0.2928(3) 0.5788(5)
H13D H 0.1379 0.2592 0.6357
C16D C 0.0829(3) 0.3931(3) 0.5803(5)
H14D H 0.1413 0.4250 0.6364
N1D N 0.0000 0.2420(3) 0.5000
C17D C 0.0000 0.4462(4) 0.5000
C15E C -0.0805(3) 0.2928(3) 0.4212(5)
H13E H -0.1379 0.2592 0.3643
C16E C -0.0829(3) 0.3931(3) 0.4197(5)
H14E H -0.1413 0.4250 0.3636
C1A C -0.1283(6) 1.0000 -0.2581(8)
H1A H -0.0906 0.9470 -0.2177
H2A H -0.1530 1.0000 -0.3425
C2A C -0.6199(6) 1.0000 0.0979(9)
H3A H -0.6574 0.9440 0.0744
H4A H -0.5971 1.0000 0.0559
C3A C -0.0770(4) 1.0000 0.2581(6)
C4A C -0.1136(4) 1.0000 0.1209(6)
C5A C -0.1294(3) 1.0869(3) 0.0573(4)
H5A H -0.1210 1.1455 0.0981
C6A C -0.1576(3) 1.0868(4) -0.0664(5)
C7A C -0.1711(4) 1.0000 -0.1287(7)
C8A C -0.1630(5) 1.2601(4) -0.0777(6)
H6A H -0.2060 1.2642 -0.0610
H7A H -0.1766 1.3115 -0.1361
H8A H -0.0984 1.2662 0.0034
C9A C -0.1684(4) 1.0000 0.4240(6)
C10A C -0.2693(4) 1.0000 0.3729(6)
C11A C -0.3150(3) 0.9123(3) 0.3499(4)
H9A H -0.2833 0.8539 0.3676
C12A C -0.4081(3) 0.9128(3) 0.3006(4)
C13A C -0.4558(5) 1.0000 0.2733(7)
C14A C -0.4090(4) 0.7416(3) 0.3232(5)
H10A H -0.3838 0.7278 0.2810
H11A H -0.4518 0.6906 0.3044
H12A H -0.3574 0.7459 0.4163
O1A O -0.0596(2) 0.91882(19) 0.3126(3)
O2A O -0.12967(18) 0.91877(18) 0.4443(3)
O3A O -0.2014(3) 1.0000 -0.2528(5)
O4A O -0.1746(2) 1.1692(3) -0.1361(3)
O5A O -0.5465(4) 1.0000 0.2299(6)
O6A O -0.4590(2) 0.8311(2) 0.2759(3)
H1D H -0.0906 1.0530 -0.2177
C5D C -0.1294(3) 0.9131(3) 0.0573(4)
H5D H -0.1210 0.8545 0.0981
C6D C -0.1576(3) 0.9132(4) -0.0664(5)
C8D C -0.1630(5) 0.7399(4) -0.0777(6)
H6D H -0.2060 0.7358 -0.0610
H7D H -0.1766 0.6885 -0.1361
H8D H -0.0984 0.7338 0.0034
O1D O -0.0596(2) 1.08118(19) 0.3126(3)
O4D O -0.1746(2) 0.8308(3) -0.1361(3)
H3D H -0.6574 1.0560 0.0744
C11D C -0.3150(3) 1.0877(3) 0.3499(4)
H9D H -0.2833 1.1461 0.3676
C12D C -0.4081(3) 1.0872(3) 0.3006(4)
C14D C -0.4090(4) 1.2584(3) 0.3232(5)
H10D H -0.3838 1.2722 0.2810
H11D H -0.4518 1.3094 0.3044
H12D H -0.3574 1.2541 0.4163
O2D O -0.12967(18) 1.08123(18) 0.4443(3)
O6D O -0.4590(2) 1.1689(2) 0.2759(3)
Ni1D Ni 0.0000 0.09697(5) 0.5000
Ni1_2 Ni 0.0000 -0.09697(5) 0.5000
Ni1D_2 Ni 0.0000 1.09697(5) 0.5000
O1D_2 O -0.0596(2) 0.08118(19) 0.3126(3)
O1E_2 O 0.0596(2) 0.08118(19) 0.6874(3)
O2D_2 O -0.12967(18) 0.08123(18) 0.4443(3)
O2E_2 O 0.12967(18) 0.08123(18) 0.5557(3)
loop_
_geom_bond_atom_site_label_1
_geom_bond_atom_site_label_2
_geom_bond_site_symmetry_1
_geom_bond_site_symmetry_2
C1 H1 1_555 1_555
H2 C1 1_555 1_555
C2 H3 1_555 1_555
H4 C2 1_555 1_555
C3 C4 1_555 1_555
C4 C5 1_555 1_555
C5 H5 1_555 1_555
C6 C5 1_555 1_555
C7 C6 1_555 1_555
C8 H6 1_555 1_555
H7 C8 1_555 1_555
H8 C8 1_555 1_555
C9 C10 1_555 1_555
C10 C11 1_555 1_555
C11 H9 1_555 1_555
C12 C11 1_555 1_555
C13 C12 1_555 1_555
C14 H10 1_555 1_555
H11 C14 1_555 1_555
H12 C14 1_555 1_555
C15 H13 1_555 1_555
C16 C15 1_555 1_555
H14 C16 1_555 1_555
N1 C15 1_555 1_555
C17 C16 1_555 1_555
Ni1 N1 1_555 1_555
O1 C3 1_555 1_555
O2 C9 1_555 1_555
O3 C1 1_555 1_555
O4 C6 1_555 1_555
O5 C2 1_555 1_555
O6 C12 1_555 1_555
H1E C1 1_555 1_555
C5E C4 1_555 1_555
H5E C5E 1_555 1_555
C6E C7 1_555 1_555
C8E H6E 1_555 1_555
H7E C8E 1_555 1_555
H8E C8E 1_555 1_555
O1E C3 1_555 1_555
O4E C6E 1_555 1_555
H3E C2 1_555 1_555
C11E C10 1_555 1_555
H9E C11E 1_555 1_555
C12E C13 1_555 1_555
C14E H10E 1_555 1_555
H11E C14E 1_555 1_555
H12E C14E 1_555 1_555
O2E C9 1_555 1_555
O6E C12E 1_555 1_555
C15A N1 1_555 1_555
H13A C15A 1_555 1_555
C16A C17 1_555 1_555
H14A C16A 1_555 1_555
C15D H13D 1_555 1_555
C16D C15D 1_555 1_555
H14D C16D 1_555 1_555
N1D C15D 1_555 1_555
C17D C17 1_555 1_555
C15E N1D 1_555 1_555
H13E C15E 1_555 1_555
C16E C17D 1_555 1_555
H14E C16E 1_555 1_555
C1A H1A 1_555 1_555
H2A C1A 1_555 1_555
C2A H3A 1_555 1_555
H4A C2A 1_555 1_555
C3A C4A 1_555 1_555
C4A C5A 1_555 1_555
C5A H5A 1_555 1_555
C6A C5A 1_555 1_555
C7A C6A 1_555 1_555
C8A H6A 1_555 1_555
H7A C8A 1_555 1_555
H8A C8A 1_555 1_555
C9A C10A 1_555 1_555
C10A C11A 1_555 1_555
C11A H9A 1_555 1_555
C12A C11A 1_555 1_555
C13A C12A 1_555 1_555
C14A H10A 1_555 1_555
H11A C14A 1_555 1_555
H12A C14A 1_555 1_555
O1A Ni1 1_555 1_555
O2A Ni1 1_555 1_555
O3A C1A 1_555 1_555
O4A C6A 1_555 1_555
O5A C2A 1_555 1_555
O6A C12A 1_555 1_555
H1D C1A 1_555 1_555
C5D C4A 1_555 1_555
H5D C5D 1_555 1_555
C6D C7A 1_555 1_555
C8D H6D 1_555 1_555
H7D C8D 1_555 1_555
H8D C8D 1_555 1_555
O1D C3A 1_555 1_555
O4D C6D 1_555 1_555
H3D C2A 1_555 1_555
C11D C10A 1_555 1_555
H9D C11D 1_555 1_555
C12D C13A 1_555 1_555
C14D H10D 1_555 1_555
H11D C14D 1_555 1_555
H12D C14D 1_555 1_555
O2D C9A 1_555 1_555
O6D C12D 1_555 1_555
Ni1D N1D 1_555 1_555
Ni1_2 Ni1D 1_555 1_555
Ni1D_2 Ni1 1_555 1_555
O1D_2 Ni1D 1_555 1_555
O1E_2 Ni1D 1_555 1_555
O2D_2 Ni1D 1_555 1_555
O2E_2 Ni1D 1_555 1_555
C7 O3 1_555 1_555
C8 O4 1_555 1_555
C13 O5 1_555 1_555
C14 O6 1_555 1_555
Ni1 O1 1_555 1_555
Ni1 O2 1_555 1_555
C5E C6E 1_555 1_555
C8E O4E 1_555 1_555
O1E Ni1D_2 1_555 1_555
C11E C12E 1_555 1_555
C14E O6E 1_555 1_555
O2E Ni1D_2 1_555 1_555
C15A C16A 1_555 1_555
C16D C17D 1_555 1_555
C15E C16E 1_555 1_555
C3A O1A 1_555 1_555
C7A O3A 1_555 1_555
C8A O4A 1_555 1_555
C9A O2A 1_555 1_555
C13A O5A 1_555 1_555
C14A O6A 1_555 1_555
C5D C6D 1_555 1_555
C8D O4D 1_555 1_555
O1D Ni1D_2 1_555 1_555
C11D C12D 1_555 1_555
C14D O6D 1_555 1_555
O2D Ni1D_2 1_555 1_555

#END
