
#######################################################################
#
#                 Cambridge Crystallographic Data Centre
#                                CCDC 
#
#######################################################################
#
# If this CIF has been generated from an entry in the Cambridge 
# Structural Database, then it will include bibliographic, chemical, 
# crystal, experimental, refinement or atomic coordinate data resulting 
# from the CCDC's data processing and validation procedures.
#
#######################################################################

data_QIVJAI
_symmetry_cell_setting           monoclinic
_symmetry_space_group_name_H-M   'C 2/c'
_symmetry_Int_Tables_number      15
_space_group_name_Hall           '-C 2yn'
loop_
_symmetry_equiv_pos_site_id
_symmetry_equiv_pos_as_xyz
1 x,y,z
2 -x,y,1/2-z
3 1/2+x,1/2+y,z
4 1/2-x,1/2+y,1/2-z
5 -x,-y,-z
6 x,-y,1/2+z
7 1/2-x,1/2-y,-z
8 1/2+x,1/2-y,1/2+z
_cell_length_a                   21.3967(19)
_cell_length_b                   16.7816(16)
_cell_length_c                   17.3587(16)
_cell_angle_alpha                90
_cell_angle_beta                 118.201(2)
_cell_angle_gamma                90
_cell_volume                     5493.12
loop_
_atom_site_label
_atom_site_type_symbol
_atom_site_fract_x
_atom_site_fract_y
_atom_site_fract_z
Ni1 Ni 0.70325(2) 0.28218(3) 0.86486(3)
C1 C 0.6779(2) 0.1478(2) 0.9511(3)
C2 C 0.63615(19) 0.0768(2) 0.9523(2)
C3 C 0.6508(2) 0.0423(2) 1.0308(2)
H1 H 0.6887 0.0614 1.0818
C4 C 0.6101(2) -0.0212(2) 1.0364(3)
C5 C 0.6238(2) -0.0551(2) 1.1169(3)
H2 H 0.6621 -0.0367 1.1679
C6 C 0.5824(3) -0.1140(2) 1.1216(3)
H3 H 0.5922 -0.1356 1.1755
C7 C 0.5248(3) -0.1424(2) 1.0452(4)
H4 H 0.4963 -0.1826 1.0487
C8 C 0.5101(2) -0.1118(2) 0.9661(3)
H5 H 0.4715 -0.1313 0.9161
C9 C 0.5528(2) -0.0505(2) 0.9584(3)
C10 C 0.5399(2) -0.0162(2) 0.8781(3)
H6 H 0.5038 -0.0365 0.8263
C11 C 0.5794(2) 0.0461(2) 0.8753(3)
H7 H 0.5689 0.0688 0.8217
C12 C 0.6305(2) 0.4314(2) 0.8764(3)
H8 H 0.6722 0.4546 0.8833
C13 C 0.5797(2) 0.4800(2) 0.8785(3)
H9 H 0.5874 0.5346 0.886
C14 C 0.5168(2) 0.4480(2) 0.8694(3)
C15 C 0.4581(2) 0.4946(2) 0.8688(3)
H10 H 0.4162 0.4671 0.854
C16 C 0.5095(2) 0.3667(2) 0.8576(3)
H11 H 0.4684 0.3416 0.8507
C17 C 0.5631(2) 0.3228(2) 0.8558(2)
H12 H 0.5565 0.268 0.8473
C18 C 0.3519(2) 0.7392(2) 0.8980(3)
H13 H 0.3599 0.7929 0.9127
C19 C 0.4072(2) 0.6943(2) 0.9038(3)
H14 H 0.4512 0.7181 0.9219
C20 C 0.3989(2) 0.6150(3) 0.8834(3)
C21 C 0.4584(2) 0.5681(3) 0.8863(3)
H15 H 0.5007 0.5953 0.9027
C22 C 0.3325(3) 0.5847(2) 0.8572(3)
H16 H 0.3238 0.531 0.8428
C23 C 0.2783(2) 0.6333(2) 0.8519(3)
H17 H 0.2336 0.611 0.8329
C24 C 0.6933(2) 0.3283(2) 0.7245(3)
C25 C 0.6971(2) 0.3426(2) 0.6417(3)
C26 C 0.7513(2) 0.3905(2) 0.6422(3)
H18 H 0.7819 0.4179 0.6926
C27 C 0.7591(2) 0.3968(3) 0.5689(3)
H19 H 0.7955 0.4281 0.5702
C28 C 0.7131(2) 0.3566(2) 0.4911(3)
C29 C 0.7216(3) 0.3603(3) 0.4155(3)
H20 H 0.758 0.3907 0.4156
C30 C 0.6775(3) 0.3202(3) 0.3437(4)
H21 H 0.6844 0.3223 0.2947
C31 C 0.6219(3) 0.2755(3) 0.3405(3)
H22 H 0.5913 0.2489 0.2894
C32 C 0.6124(2) 0.2708(3) 0.4120(3)
H23 H 0.5751 0.2406 0.4097
C33 C 0.6579(2) 0.3109(2) 0.4901(3)
C34 C 0.6518(2) 0.3045(2) 0.5670(3)
H24 H 0.6157 0.2733 0.5667
N1 N 0.62322(16) 0.35304(17) 0.86528(18)
N2 N 0.28699(16) 0.71016(18) 0.87260(19)
O1 O 0.73219(13) 0.36894(15) 0.79186(17)
O2 O 0.65398(12) 0.27426(14) 0.72787(15)
O3 O 0.65531(12) 0.18486(14) 0.87949(17)
O4 O 0.73200(14) 0.16560(15) 1.01921(18)
Ni1B Ni 0.20325(2) 0.78218(3) 0.86486(3)
Ni1F Ni 0.79675(2) 0.21782(3) 1.13514(3)
N2B N 0.78699(16) 0.21016(18) 0.87260(19)
O4F O 0.76800(14) 0.33440(15) 0.98079(18)
loop_
_geom_bond_atom_site_label_1
_geom_bond_atom_site_label_2
_geom_bond_site_symmetry_1
_geom_bond_site_symmetry_2
Ni1 N1 1_555 1_555
C1 C2 1_555 1_555
C2 C3 1_555 1_555
C3 H1 1_555 1_555
C4 C3 1_555 1_555
C5 C4 1_555 1_555
H2 C5 1_555 1_555
C6 C5 1_555 1_555
H3 C6 1_555 1_555
C7 C6 1_555 1_555
H4 C7 1_555 1_555
C8 C7 1_555 1_555
H5 C8 1_555 1_555
C9 C4 1_555 1_555
C10 C9 1_555 1_555
H6 C10 1_555 1_555
C11 C2 1_555 1_555
H7 C11 1_555 1_555
C12 H8 1_555 1_555
C13 C12 1_555 1_555
H9 C13 1_555 1_555
C14 C13 1_555 1_555
C15 C14 1_555 1_555
H10 C15 1_555 1_555
C16 C14 1_555 1_555
H11 C16 1_555 1_555
C17 C16 1_555 1_555
H12 C17 1_555 1_555
C18 H13 1_555 1_555
C19 C18 1_555 1_555
H14 C19 1_555 1_555
C20 C19 1_555 1_555
C21 C15 1_555 1_555
H15 C21 1_555 1_555
C22 C20 1_555 1_555
H16 C22 1_555 1_555
C23 C22 1_555 1_555
H17 C23 1_555 1_555
C24 C25 1_555 1_555
C25 C26 1_555 1_555
C26 H18 1_555 1_555
C27 C26 1_555 1_555
H19 C27 1_555 1_555
C28 C27 1_555 1_555
C29 C28 1_555 1_555
H20 C29 1_555 1_555
C30 C29 1_555 1_555
H21 C30 1_555 1_555
C31 C30 1_555 1_555
H22 C31 1_555 1_555
C32 C31 1_555 1_555
H23 C32 1_555 1_555
C33 C28 1_555 1_555
C34 C25 1_555 1_555
H24 C34 1_555 1_555
N1 C12 1_555 1_555
N2 C18 1_555 1_555
O1 Ni1 1_555 1_555
O2 Ni1 1_555 1_555
O3 Ni1 1_555 1_555
O4 C1 1_555 1_555
Ni1B N2 1_555 1_555
Ni1F O4 1_555 1_555
N2B Ni1 1_555 1_555
O4F Ni1 1_555 1_555
C1 O3 1_555 1_555
C8 C9 1_555 1_555
C10 C11 1_555 1_555
C17 N1 1_555 1_555
C20 C21 1_555 1_555
C23 N2 1_555 1_555
C24 O1 1_555 1_555
C24 O2 1_555 1_555
C32 C33 1_555 1_555
C33 C34 1_555 1_555

#END
