
#######################################################################
#
#                 Cambridge Crystallographic Data Centre
#                                CCDC 
#
#######################################################################
#
# If this CIF has been generated from an entry in the Cambridge 
# Structural Database, then it will include bibliographic, chemical, 
# crystal, experimental, refinement or atomic coordinate data resulting 
# from the CCDC's data processing and validation procedures.
#
#######################################################################

data_QIVJAG
_symmetry_cell_setting           monoclinic
_symmetry_space_group_name_H-M   'C c'
_symmetry_Int_Tables_number      9
_space_group_name_Hall           'C -2yc'
loop_
_symmetry_equiv_pos_site_id
_symmetry_equiv_pos_as_xyz
1 x,y,z
2 x,-y,1/2+z
3 1/2+x,1/2+y,z
4 1/2+x,1/2-y,1/2+z
_cell_length_a                   11.343(2)
_cell_length_b                   14.311(2)
_cell_length_c                   16.928(10)
_cell_angle_alpha                90
_cell_angle_beta                 104.14(3)
_cell_angle_gamma                90
_cell_volume                     2664.66
loop_
_atom_site_label
_atom_site_type_symbol
_atom_site_fract_x
_atom_site_fract_y
_atom_site_fract_z
Cr1 Cr 0.08520(3) 0.88354(3) 0.82268(2)
Mn1 Mn 0.31673(3) 0.90710(3) 1.14258(2)
O1 O 0.15745(17) 0.79883(12) 0.91432(10)
O2 O 0.16242(15) 0.98135(11) 0.90111(10)
O3 O 0.23578(15) 0.87850(12) 0.78450(11)
O4 O 0.03844(14) 0.97886(13) 0.73632(10)
O5 O -0.06508(16) 0.88652(12) 0.85939(11)
O6 O 0.00299(14) 0.78010(12) 0.75513(10)
O7 O 0.25341(18) 0.80673(12) 1.04577(11)
O8 O 0.26707(15) 0.99482(11) 1.02986(10)
O9 O 0.33494(15) 0.96458(12) 0.71234(11)
O10 O 0.12974(15) 1.07015(13) 0.66144(10)
O11 O -0.21377(18) 0.78852(15) 0.86848(12)
O12 O -0.16548(15) 0.69352(13) 0.73779(11)
O13 O 0.5058(2) 0.9135(2) 1.14454(15)
C1 C 0.2084(2) 0.84151(16) 0.97916(16)
C2 C 0.2140(2) 0.94894(16) 0.97076(14)
C3 C 0.2439(2) 0.94495(16) 0.73687(13)
C4 C 0.1276(2) 1.00379(16) 0.70799(13)
C5 C -0.1312(2) 0.81368(18) 0.83929(14)
C6 C -0.0965(2) 0.75604(16) 0.77120(14)
H20 H 0.543(3) 0.929(3) 1.178(2)
H21 H 0.525(3) 0.871(2) 1.129(2)
O9A O 0.33494(15) 1.03542(12) 1.21234(11)
O10A O 0.12974(15) 0.92985(13) 1.16144(10)
O12C O 0.33452(15) 0.80648(13) 1.23779(11)
Mn1A Mn 0.31673(3) 1.09290(3) 0.64258(2)
Mn1C Mn -0.18327(3) 0.59290(3) 0.64258(2)
N1 N -0.03001(17) 1.22651(14) 0.74485(12)
N2 N -0.17619(19) 1.08140(15) 0.97881(13)
N3 N -0.32576(19) 1.04835(17) 0.87415(14)
O14 O -0.0745(2) 1.11060(17) 1.02112(12)
O15 O -0.3857(2) 1.0359(2) 0.80105(14)
C7 C 0.0343(3) 1.2810(2) 0.69307(19)
H1 H 0.0399 1.3452 0.7099
H2 H -0.0102 1.2768 0.6371
H3 H 0.1145 1.2560 0.6988
C8 C 0.0334(2) 1.1881(2) 0.81471(16)
H4 H 0.1178 1.1926 0.8291
C9 C -0.0254(2) 1.14226(19) 0.86490(16)
H5 H 0.0192 1.1162 0.9133
C10 C -0.1505(2) 1.13454(16) 0.84409(14)
C11 C -0.2131(2) 1.17414(19) 0.77088(16)
H6 H -0.2973 1.1693 0.7543
C12 C -0.1504(2) 1.22008(18) 0.72362(16)
H7 H -0.1930 1.2476 0.6753
C13 C -0.2153(2) 1.08851(17) 0.89774(15)
C14 C -0.2595(2) 1.02532(17) 1.01654(16)
C15 C -0.3753(2) 1.02029(19) 0.94539(17)
C16 C -0.2743(4) 1.0744(2) 1.0936(2)
H8 H -0.3293 1.0394 1.1171
H9 H -0.3062 1.1361 1.0800
H10 H -0.1967 1.0787 1.1320
C17 C -0.1963(3) 0.93178(19) 1.03882(17)
H11 H -0.1850 0.9019 0.9904
H12 H -0.2454 0.8927 1.0641
H13 H -0.1186 0.9417 1.0760
C18 C -0.4333(3) 0.9241(2) 0.92791(19)
H14 H -0.5032 0.9281 0.8827
H15 H -0.4578 0.9021 0.9751
H16 H -0.3755 0.8814 0.9150
C19 C -0.4726(3) 1.0919(2) 0.9501(3)
H17 H -0.5346 1.0915 0.9001
H18 H -0.4366 1.1529 0.9588
H19 H -0.5080 1.0764 0.9945
O16 O -0.2363(2) 0.69570(19) 1.01948(16)
H22 H -0.241(3) 0.647(3) 1.015(2)
H23 H -0.233(3) 0.719(3) 0.976(2)
O17 O 0.5840(3) 0.7538(2) 1.09298(18)
H24 H 0.527(5) 0.727(4) 1.072(3)
H25 H 0.622(3) 0.736(3) 1.068(2)
loop_
_geom_bond_atom_site_label_1
_geom_bond_atom_site_label_2
_geom_bond_site_symmetry_1
_geom_bond_site_symmetry_2
Cr1 O1 1_555 1_555
Mn1 O7 1_555 1_555
O1 C1 1_555 1_555
O2 Cr1 1_555 1_555
O3 Cr1 1_555 1_555
O4 Cr1 1_555 1_555
O5 Cr1 1_555 1_555
O6 Cr1 1_555 1_555
O7 C1 1_555 1_555
O8 Mn1 1_555 1_555
O9 C3 1_555 1_555
O10 C4 1_555 1_555
O11 C5 1_555 1_555
O12 C6 1_555 1_555
O13 Mn1 1_555 1_555
C1 C2 1_555 1_555
C2 O2 1_555 1_555
C3 O3 1_555 1_555
C4 O4 1_555 1_555
C5 O5 1_555 1_555
C6 O6 1_555 1_555
N1 C7 1_555 1_555
N2 O14 1_555 1_555
N3 O15 1_555 1_555
C7 H1 1_555 1_555
H2 C7 1_555 1_555
H3 C7 1_555 1_555
C8 N1 1_555 1_555
H4 C8 1_555 1_555
C9 C8 1_555 1_555
H5 C9 1_555 1_555
C10 C9 1_555 1_555
C11 C10 1_555 1_555
H6 C11 1_555 1_555
C12 N1 1_555 1_555
H7 C12 1_555 1_555
C13 N2 1_555 1_555
C14 N2 1_555 1_555
C15 N3 1_555 1_555
C16 C14 1_555 1_555
H8 C16 1_555 1_555
H9 C16 1_555 1_555
H10 C16 1_555 1_555
C17 C14 1_555 1_555
H11 C17 1_555 1_555
H12 C17 1_555 1_555
H13 C17 1_555 1_555
C18 C15 1_555 1_555
H14 C18 1_555 1_555
H15 C18 1_555 1_555
H16 C18 1_555 1_555
C19 C15 1_555 1_555
H17 C19 1_555 1_555
H18 C19 1_555 1_555
H19 C19 1_555 1_555
O16 H22 1_555 1_555
O17 H24 1_555 1_555
H20 O13 1_555 1_555
H21 O13 1_555 1_555
H23 O16 1_555 1_555
H25 O17 1_555 1_555
O9A Mn1 1_555 1_555
O10A Mn1 1_555 1_555
O12C Mn1 1_555 1_555
Mn1A O9 1_555 1_555
Mn1C O12 1_555 1_555
O8 C2 1_555 1_555
O10 Mn1A 1_555 1_555
C3 C4 1_555 1_555
C5 C6 1_555 1_555
N3 C13 1_555 1_555
C10 C13 1_555 1_555
C11 C12 1_555 1_555
C14 C15 1_555 1_555

#END
