
#######################################################################
#
#                 Cambridge Crystallographic Data Centre
#                                CCDC 
#
#######################################################################
#
# If this CIF has been generated from an entry in the Cambridge 
# Structural Database, then it will include bibliographic, chemical, 
# crystal, experimental, refinement or atomic coordinate data resulting 
# from the CCDC's data processing and validation procedures.
#
#######################################################################

data_QIVKEL01
_symmetry_cell_setting           orthorhombic
_symmetry_space_group_name_H-M   'P b c a'
_symmetry_Int_Tables_number      61
_space_group_name_Hall           '-P 2ac 2ab'
loop_
_symmetry_equiv_pos_site_id
_symmetry_equiv_pos_as_xyz
1 x,y,z
2 1/2-x,-y,1/2+z
3 -x,1/2+y,1/2-z
4 1/2+x,1/2-y,-z
5 -x,-y,-z
6 1/2+x,y,1/2-z
7 x,1/2-y,1/2+z
8 1/2-x,1/2+y,z
_cell_length_a                   9.6656(2)
_cell_length_b                   26.2338(5)
_cell_length_c                   37.9022(7)
_cell_angle_alpha                90
_cell_angle_beta                 90
_cell_angle_gamma                90
_cell_volume                     9610.69
loop_
_atom_site_label
_atom_site_type_symbol
_atom_site_fract_x
_atom_site_fract_y
_atom_site_fract_z
C1 C 0.0203(6) 0.3175(2) 0.45133(14)
C2 C 0.0665(5) 0.3062(2) 0.41427(14)
C3 C -0.0214(6) 0.3135(2) 0.38603(15)
H1 H -0.1106 0.3254 0.3901
C4 C 0.0207(6) 0.3033(2) 0.35165(15)
H2 H -0.0397 0.3087 0.3329
C5 C 0.1540(6) 0.2851(2) 0.34540(14)
C6 C 0.2441(6) 0.2784(2) 0.37389(14)
H3 H 0.3336 0.2668 0.3699
C7 C 0.2012(6) 0.2891(2) 0.40803(15)
H4 H 0.2621 0.2848 0.4268
C8 C 0.1978(6) 0.2705(2) 0.30865(14)
C9 C -0.0699(6) 0.4278(2) 0.45182(14)
C10 C -0.0997(6) 0.4399(2) 0.41375(14)
C11 C 0.0056(6) 0.4412(3) 0.38887(16)
H5 H 0.0965 0.4362 0.3962
C12 C -0.0209(6) 0.4497(3) 0.35361(16)
H6 H 0.0516 0.4506 0.3375
C13 C -0.1555(6) 0.4569(2) 0.34224(14)
C14 C -0.1883(6) 0.4696(2) 0.30451(15)
C15 C -0.2624(6) 0.4550(2) 0.36669(15)
H7 H -0.3534 0.4590 0.3592
C16 C -0.2343(6) 0.4473(2) 0.40214(15)
H8 H -0.3065 0.4472 0.4183
C17 C -0.0271(6) 0.3728(2) 0.06098(14)
C18 C -0.0187(6) 0.3712(2) 0.10026(14)
C19 C 0.0740(6) 0.3383(2) 0.11666(15)
H9 H 0.1346 0.3188 0.1032
C20 C 0.0758(6) 0.3348(2) 0.15277(15)
H10 H 0.1362 0.3122 0.1637
C21 C -0.0113(6) 0.3646(2) 0.17296(14)
C22 C -0.1003(7) 0.3989(2) 0.15679(16)
H11 H -0.1569 0.4198 0.1704
C23 C -0.1046(6) 0.4022(2) 0.12032(15)
H12 H -0.1645 0.4249 0.1094
C24 C -0.0156(6) 0.3577(3) 0.21195(16)
C25 C -0.0232(6) 0.1219(2) 0.05608(15)
C26 C -0.0329(6) 0.1204(2) 0.09542(14)
C27 C 0.0536(6) 0.0887(2) 0.11460(15)
H13 H 0.1168 0.0678 0.1031
C28 C 0.0450(6) 0.0883(2) 0.15107(15)
H14 H 0.1016 0.0669 0.1642
C29 C -0.0483(6) 0.1202(2) 0.16785(14)
C30 C -0.1351(6) 0.1520(2) 0.14861(15)
H15 H -0.1973 0.1733 0.1602
C31 C -0.1282(6) 0.1517(2) 0.11234(15)
H16 H -0.1870 0.1724 0.0992
C32 C -0.0571(6) 0.1209(2) 0.20726(14)
C33 C -0.4788(6) 0.4317(2) 0.54305(15)
C34 C -0.4445(6) 0.4453(2) 0.58096(14)
C35 C -0.3115(6) 0.4585(2) 0.59085(15)
H17 H -0.2428 0.4618 0.5738
C36 C -0.2805(6) 0.4668(2) 0.62595(15)
H18 H -0.1910 0.4760 0.6323
C37 C -0.3799(6) 0.4617(2) 0.65159(14)
C38 C -0.5142(6) 0.4487(3) 0.64202(16)
H19 H -0.5824 0.4451 0.6592
C39 C -0.5457(6) 0.4410(2) 0.60676(15)
H20 H -0.6359 0.4330 0.6003
C40 C -0.3450(6) 0.4705(2) 0.68990(15)
C41 C 0.2356(6) 0.2087(2) 0.19151(14)
C42 C 0.2859(6) 0.2013(2) 0.15421(15)
C43 C 0.1980(6) 0.2107(2) 0.12590(15)
H21 H 0.1074 0.2211 0.1300
C44 C 0.2450(5) 0.2045(2) 0.09173(15)
H22 H 0.1853 0.2108 0.0730
C45 C 0.3810(5) 0.1888(2) 0.08477(14)
C46 C 0.4681(6) 0.1802(2) 0.11349(14)
H23 H 0.5594 0.1706 0.1095
C47 C 0.4212(6) 0.1858(2) 0.14767(14)
H24 H 0.4804 0.1791 0.1665
C48 C 0.4293(6) 0.1794(2) 0.04761(15)
Er1 Er -0.03532(3) 0.239082(11) 0.243781(6)
Er2 Er -0.27675(3) 0.353077(10) 0.498410(6)
Er3 Er 0.22725(2) 0.393753(10) 0.497920(6)
Er4 Er -0.09027(3) 0.007370(11) 0.246560(6)
O1 O -0.1067(4) 0.32038(16) 0.45738(10)
O2 O 0.1137(4) 0.32362(15) 0.47481(10)
O3 O 0.1068(4) 0.26877(18) 0.28538(10)
O4 O 0.3225(4) 0.26011(18) 0.30315(10)
O5 O -0.1714(4) 0.42105(16) 0.47195(10)
O6 O 0.0540(4) 0.42521(17) 0.46059(10)
O7 O -0.0909(4) 0.47982(18) 0.28395(11)
O8 O -0.3129(4) 0.47103(19) 0.29539(11)
O9 O -0.1287(4) 0.39511(18) 0.04754(11)
O10 O 0.0663(4) 0.35127(18) 0.04373(10)
O11 O -0.0804(5) 0.38837(19) 0.23109(11)
O12 O 0.0502(4) 0.31995(18) 0.22482(10)
O13 O -0.1161(4) 0.14466(19) 0.03938(11)
O14 O 0.0779(4) 0.10003(18) 0.04211(11)
O15 O -0.1203(4) 0.15617(17) 0.22226(10)
O16 O 0.0020(4) 0.08453(17) 0.22407(10)
O17 O -0.6041(4) 0.42777(17) 0.53495(10)
O18 O -0.3795(4) 0.42423(16) 0.52209(10)
O19 O -0.4397(4) 0.46836(19) 0.71211(11)
O20 O -0.2209(4) 0.47857(19) 0.69803(10)
O21 O 0.1117(4) 0.21967(17) 0.19690(10)
O22 O 0.3215(4) 0.20206(18) 0.21643(10)
O23 O 0.3370(4) 0.17483(16) 0.02379(10)
O24 O 0.5571(4) 0.17645(16) 0.04176(10)
O25 O -0.2778(6) 0.26593(18) 0.49932(14)
H25 H -0.2015 0.2553 0.4934
O26 O 0.2258(5) 0.48304(17) 0.49477(13)
H26 H 0.2461 0.4949 0.5141
O27 O -0.1678(4) 0.30599(18) 0.27193(11)
H27 H -0.1421 0.3338 0.2645
O28 O 0.0935(4) 0.16731(18) 0.27028(12)
H28 H 0.1765 0.1711 0.2666
O29 O -0.1548(5) -0.07513(19) 0.22724(13)
O30 O -0.2162(4) 0.07578(19) 0.27221(12)
H29 H -0.1847 0.1030 0.2652
H30 H -0.107(5) -0.0989(19) 0.234(2)
H31 H -0.237(2) -0.082(2) 0.229(2)
H32 H 0.157(4) 0.4967(9) 0.4870(15)
H33 H -0.311(6) 0.2498(9) 0.5155(12)
H34 H -0.2498(18) 0.3014(13) 0.2700(15)
H35 H 0.067(5) 0.1390(13) 0.266(2)
H36 H -0.2983(18) 0.0736(13) 0.2717(16)
Er1E Er 0.46468(3) 0.239082(11) 0.256219(6)
Er2E Er 0.22325(3) 0.353077(10) 0.001590(6)
Er2F Er -0.27675(3) 0.146923(10) -0.001590(6)
Er2F_2 Er 0.72325(3) 0.146923(10) -0.001590(6)
Er3E Er -0.27275(2) 0.393753(10) 0.002080(6)
Er3F Er 0.22725(2) 0.106247(10) -0.002080(6)
Er3_2 Er -0.77275(2) 0.393753(10) 0.497920(6)
Er4B Er 0.09027(3) 0.507370(11) 0.253440(6)
Er4G Er -0.40973(3) 0.507370(11) 0.246560(6)
Er4C Er -0.59027(3) 0.492630(11) 0.753440(6)
Er4F Er -0.09027(3) 0.492630(11) 0.746560(6)
O4E O -0.1775(4) 0.26011(18) 0.19685(10)
O7B O 0.0909(4) -0.02018(18) 0.21605(11)
O8G O -0.1871(4) -0.02897(19) 0.29539(11)
O9E O 0.3713(4) 0.39511(18) 0.45246(11)
O10E O -0.4337(4) 0.35127(18) 0.45627(10)
O13F O -0.1161(4) 0.35534(19) 0.53938(11)
O14F O 0.0779(4) 0.39997(18) 0.54211(11)
O17_2 O 0.3959(4) 0.42777(17) 0.53495(10)
O19C O 0.0603(4) 0.03164(19) 0.28789(11)
O20F O -0.2209(4) 0.02143(19) 0.19803(10)
O22E O -0.1785(4) 0.20206(18) 0.28357(10)
O23F O 0.3370(4) 0.32517(16) 0.52379(10)
O24F O -0.4429(4) 0.32355(16) 0.54176(10)
loop_
_geom_bond_atom_site_label_1
_geom_bond_atom_site_label_2
_geom_bond_site_symmetry_1
_geom_bond_site_symmetry_2
C1 C2 1_555 1_555
C2 C3 1_555 1_555
C3 H1 1_555 1_555
C4 C3 1_555 1_555
H2 C4 1_555 1_555
C5 C4 1_555 1_555
C6 C5 1_555 1_555
H3 C6 1_555 1_555
C7 C2 1_555 1_555
H4 C7 1_555 1_555
C8 C5 1_555 1_555
C9 C10 1_555 1_555
C10 C11 1_555 1_555
C11 H5 1_555 1_555
C12 C11 1_555 1_555
H6 C12 1_555 1_555
C13 C12 1_555 1_555
C14 C13 1_555 1_555
C15 C13 1_555 1_555
H7 C15 1_555 1_555
C16 C10 1_555 1_555
H8 C16 1_555 1_555
C17 C18 1_555 1_555
C18 C19 1_555 1_555
C19 H9 1_555 1_555
C20 C19 1_555 1_555
H10 C20 1_555 1_555
C21 C20 1_555 1_555
C22 C21 1_555 1_555
H11 C22 1_555 1_555
C23 C18 1_555 1_555
H12 C23 1_555 1_555
C24 C21 1_555 1_555
C25 C26 1_555 1_555
C26 C27 1_555 1_555
C27 H13 1_555 1_555
C28 C27 1_555 1_555
H14 C28 1_555 1_555
C29 C28 1_555 1_555
C30 C29 1_555 1_555
H15 C30 1_555 1_555
C31 C26 1_555 1_555
H16 C31 1_555 1_555
C32 C29 1_555 1_555
C33 C34 1_555 1_555
C34 C35 1_555 1_555
C35 H17 1_555 1_555
C36 C35 1_555 1_555
H18 C36 1_555 1_555
C37 C36 1_555 1_555
C38 C37 1_555 1_555
H19 C38 1_555 1_555
C39 C34 1_555 1_555
H20 C39 1_555 1_555
C40 C37 1_555 1_555
C41 C42 1_555 1_555
C42 C43 1_555 1_555
C43 H21 1_555 1_555
C44 C43 1_555 1_555
H22 C44 1_555 1_555
C45 C44 1_555 1_555
C46 C45 1_555 1_555
H23 C46 1_555 1_555
C47 C42 1_555 1_555
H24 C47 1_555 1_555
C48 C45 1_555 1_555
Er1 O3 1_555 1_555
Er2 O1 1_555 1_555
Er3 O2 1_555 1_555
Er4 O16 1_555 1_555
O1 C1 1_555 1_555
O2 C1 1_555 1_555
O3 C8 1_555 1_555
O4 C8 1_555 1_555
O5 C9 1_555 1_555
O6 C9 1_555 1_555
O7 C14 1_555 1_555
O8 C14 1_555 1_555
O9 C17 1_555 1_555
O10 C17 1_555 1_555
O11 C24 1_555 1_555
O12 C24 1_555 1_555
O13 C25 1_555 1_555
O14 C25 1_555 1_555
O15 C32 1_555 1_555
O16 C32 1_555 1_555
O17 C33 1_555 1_555
O18 C33 1_555 1_555
O19 C40 1_555 1_555
O20 C40 1_555 1_555
O21 C41 1_555 1_555
O22 C41 1_555 1_555
O23 C48 1_555 1_555
O24 C48 1_555 1_555
O25 Er2 1_555 1_555
H25 O25 1_555 1_555
O26 Er3 1_555 1_555
H26 O26 1_555 1_555
O27 Er1 1_555 1_555
H27 O27 1_555 1_555
O28 Er1 1_555 1_555
H28 O28 1_555 1_555
O29 Er4 1_555 1_555
O30 Er4 1_555 1_555
H29 O30 1_555 1_555
H30 O29 1_555 1_555
H31 O29 1_555 1_555
H32 O26 1_555 1_555
H33 O25 1_555 1_555
H34 O27 1_555 1_555
H35 O28 1_555 1_555
H36 O30 1_555 1_555
Er1E O4 1_555 1_555
Er2E O10 1_555 1_555
Er2F O13 1_555 1_555
Er2F_2 O24 1_555 1_555
Er3E O9 1_555 1_555
Er3F O14 1_555 1_555
Er3_2 O17 1_555 1_555
Er4B O7 1_555 1_555
Er4G O8 1_555 1_555
Er4C O19 1_555 1_555
Er4F O20 1_555 1_555
O4E Er1 1_555 1_555
O7B Er4 1_555 1_555
O8G Er4 1_555 1_555
O9E Er3 1_555 1_555
O10E Er2 1_555 1_555
O13F Er2 1_555 1_555
O14F Er3 1_555 1_555
O17_2 Er3 1_555 1_555
O19C Er4 1_555 1_555
O20F Er4 1_555 1_555
O22E Er1 1_555 1_555
O23F Er3 1_555 1_555
O24F Er2 1_555 1_555
C6 C7 1_555 1_555
C15 C16 1_555 1_555
C22 C23 1_555 1_555
C30 C31 1_555 1_555
C38 C39 1_555 1_555
C46 C47 1_555 1_555
Er1 O12 1_555 1_555
Er1 O15 1_555 1_555
Er1 O21 1_555 1_555
Er2 O5 1_555 1_555
Er2 O18 1_555 1_555
Er3 O6 1_555 1_555
O22 Er1E 1_555 1_555
O23 Er3F 1_555 1_555

#END
