
#######################################################################
#
#                 Cambridge Crystallographic Data Centre
#                                CCDC 
#
#######################################################################
#
# If this CIF has been generated from an entry in the Cambridge 
# Structural Database, then it will include bibliographic, chemical, 
# crystal, experimental, refinement or atomic coordinate data resulting 
# from the CCDC's data processing and validation procedures.
#
#######################################################################

data_QIVKEL
_symmetry_cell_setting           orthorhombic
_symmetry_space_group_name_H-M   'P b c a'
_symmetry_Int_Tables_number      61
_space_group_name_Hall           '-P 2ac 2ab'
loop_
_symmetry_equiv_pos_site_id
_symmetry_equiv_pos_as_xyz
1 x,y,z
2 1/2+x,y,1/2-z
3 x,1/2-y,1/2+z
4 1/2-x,1/2+y,z
5 -x,-y,-z
6 1/2-x,-y,1/2+z
7 -x,1/2+y,1/2-z
8 1/2+x,1/2-y,-z
_cell_length_a                   9.661(2)
_cell_length_b                   26.224(3)
_cell_length_c                   37.863(3)
_cell_angle_alpha                90
_cell_angle_beta                 90
_cell_angle_gamma                90
_cell_volume                     9592.59
loop_
_atom_site_label
_atom_site_type_symbol
_atom_site_fract_x
_atom_site_fract_y
_atom_site_fract_z
Er1 Er 0.96414(6) 0.23900(2) 0.74371(1)
Er2 Er 0.91009(6) 0.00745(2) 0.74649(1)
Er3 Er 1.22730(5) 0.39375(2) 0.99798(1)
Er4 Er 0.72317(5) 0.35314(2) 0.99846(1)
O1 O 1.1056(9) 0.2680(4) 0.7852(2)
O2 O 1.3223(9) 0.2600(4) 0.8031(2)
O3 O 1.1136(8) 0.3239(3) 0.9748(2)
O4 O 0.8927(9) 0.3203(3) 0.9573(2)
O5 O 0.8815(8) 0.1559(3) 0.7221(2)
O6 O 1.0026(8) 0.0848(3) 0.7240(2)
O7 O 0.8837(9) 0.1444(4) 0.5397(2)
O8 O 1.078(1) 0.1004(4) 0.5419(2)
O9 O 1.0505(9) 0.3202(3) 0.7251(2)
O10 O 0.918(1) 0.3883(4) 0.7303(3)
O11 O 0.8698(9) 0.3952(3) 0.5473(2)
O12 O 1.0642(9) 0.3513(3) 0.5436(2)
O13 O 0.7791(9) 0.0212(4) 0.6980(2)
O14 O 0.5611(10) 0.0314(4) 0.7122(2)
O15 O 0.3950(9) 0.0726(3) 0.5354(3)
O16 O 0.6217(9) 0.0760(3) 0.5224(2)
O17 O 0.8360(9) 0.1748(3) 0.9759(2)
O18 O 1.0570(8) 0.1763(3) 0.9584(2)
O19 O 0.8225(8) 0.2014(4) 0.7840(2)
O20 O 0.6121(8) 0.2200(3) 0.8033(2)
O21 O 1.1733(9) -0.0788(3) 0.5279(2)
O22 O 0.9459(9) -0.0746(3) 0.5392(2)
O23 O 1.093(1) -0.0201(3) 0.7161(2)
O24 O 1.3138(9) -0.0288(4) 0.7045(3)
O25 O 0.8293(9) 0.3061(4) 0.7714(3)
O26 O 1.093(1) 0.1670(4) 0.7700(3)
O27 O 0.7848(9) 0.0764(4) 0.7718(2)
O28 O 0.8445(10) -0.0760(3) 0.7276(3)
O29 O 1.224(1) 0.4830(3) 0.9945(3)
O30 O 0.722(1) 0.2657(3) 0.9996(3)
C1 C 1.199(1) 0.2704(4) 0.8087(3)
C2 C 1.155(1) 0.2844(5) 0.8462(3)
C3 C 1.244(1) 0.2784(5) 0.8736(4)
C4 C 1.201(1) 0.2891(4) 0.9077(3)
C5 C 1.066(1) 0.3056(4) 0.9144(3)
C6 C 0.977(1) 0.3129(4) 0.8859(3)
C7 C 1.020(1) 0.3035(5) 0.8515(3)
C8 C 1.019(1) 0.3184(4) 0.9511(3)
C9 C 0.942(1) 0.1210(5) 0.7072(3)
C10 C 0.951(1) 0.1200(4) 0.6680(3)
C11 C 1.044(1) 0.0877(5) 0.6510(4)
C12 C 1.055(1) 0.0885(5) 0.6148(3)
C13 C 0.968(1) 0.1200(4) 0.5947(3)
C14 C 0.873(1) 0.1522(5) 0.6118(3)
C15 C 0.865(1) 0.1527(5) 0.6493(3)
C16 C 0.977(1) 0.1220(4) 0.5561(3)
C17 C 0.985(1) 0.3574(5) 0.7121(3)
C18 C 0.988(1) 0.3642(5) 0.6735(3)
C19 C 0.898(1) 0.3981(5) 0.6571(3)
C20 C 0.895(1) 0.4023(5) 0.6203(3)
C21 C 0.982(1) 0.3714(4) 0.6002(3)
C22 C 1.075(1) 0.3385(5) 0.6161(3)
C23 C 1.074(1) 0.3341(5) 0.6527(3)
C24 C 0.972(1) 0.3733(5) 0.5609(4)
C25 C 0.654(1) 0.0296(4) 0.6902(3)
C26 C 0.621(1) 0.0379(4) 0.6517(3)
C27 C 0.722(1) 0.0321(5) 0.6251(3)
C28 C 0.690(1) 0.0419(5) 0.5909(3)
C29 C 0.554(1) 0.0548(4) 0.5809(3)
C30 C 0.455(1) 0.0587(5) 0.6074(3)
C31 C 0.488(1) 0.0509(5) 0.6425(3)
C32 C 0.521(1) 0.0688(4) 0.5427(3)
C33 C 0.927(1) 0.1794(4) 0.9527(3)
C34 C 0.881(1) 0.1886(4) 0.9149(3)
C35 C 0.967(1) 0.1799(5) 0.8865(3)
C36 C 0.920(1) 0.1861(5) 0.8519(3)
C37 C 0.787(1) 0.2012(4) 0.8453(3)
C38 C 0.699(1) 0.2098(5) 0.8737(4)
C39 C 0.745(1) 0.2042(5) 0.9086(3)
C40 C 0.736(1) 0.2085(4) 0.8085(3)
C41 C 1.071(1) -0.0724(4) 0.5484(3)
C42 C 1.101(1) -0.0605(4) 0.5869(3)
C43 C 0.994(1) -0.0590(5) 0.6106(3)
C44 C 1.019(1) -0.0497(5) 0.6460(4)
C45 C 1.153(1) -0.0432(4) 0.6575(3)
C46 C 1.260(1) -0.0450(5) 0.6333(4)
C47 C 1.237(1) -0.0522(4) 0.5973(3)
C48 C 1.187(1) -0.0308(5) 0.6954(3)
H1 H 1.35445 0.26833 0.86808
H2 H 1.26252 0.28266 0.92728
H3 H 0.89037 0.32015 0.89474
H4 H 0.95326 0.30100 0.83589
H5 H 1.10518 0.06563 0.66532
H6 H 1.08783 0.06060 0.59883
H7 H 0.82628 0.17360 0.59586
H8 H 0.79732 0.17415 0.66105
H9 H 0.83683 0.41852 0.67078
H10 H 0.83414 0.42641 0.60922
H11 H 1.13043 0.31221 0.60332
H12 H 1.13585 0.31056 0.66409
H13 H 0.79974 0.01602 0.63346
H14 H 0.75368 0.03384 0.57604
H15 H 0.37223 0.07421 0.59640
H16 H 0.41868 0.05131 0.65764
H17 H 1.02927 0.16600 0.89692
H18 H 0.97744 0.19142 0.83478
H19 H 0.62840 0.22455 0.87212
H20 H 0.69238 0.20431 0.92807
H21 H 0.90082 -0.07176 0.60711
H22 H 0.94226 -0.04691 0.66206
H23 H 1.35358 -0.03288 0.63959
H24 H 1.31229 -0.06132 0.57702
H25 H 0.86552 0.32494 0.76822
H26 H 0.80673 0.29468 0.78597
H27 H 1.19274 0.17603 0.78096
H28 H 1.09389 0.14106 0.77040
H29 H 0.71114 0.06848 0.78759
H30 H 0.80662 0.10951 0.76547
H31 H 0.90527 -0.08813 0.72979
H32 H 0.78368 -0.11183 0.73455
H33 H 1.28770 0.50283 1.00818
H34 H 1.16159 0.49999 0.97903
H35 H 0.78091 0.24770 1.01509
H36 H 0.66129 0.24735 0.98415
O2A O 0.8223(9) 0.2600(4) 0.6969(2)
O20A O 1.1121(8) 0.2200(3) 0.6967(2)
O14A O 1.0611(10) 0.0314(4) 0.7878(2)
O24A O 0.8138(9) -0.0288(4) 0.7955(3)
O8B O 1.078(1) 0.3996(4) 1.0419(2)
O11A O 1.3698(9) 0.3952(3) 0.9527(2)
O15B O 1.3950(9) 0.4274(3) 1.0354(3)
O17G O 1.3360(9) 0.3252(3) 1.0241(2)
O22F O 1.0541(9) 0.4254(3) 0.9608(2)
O7B O 0.8837(9) 0.3556(4) 1.0397(2)
O12A O 0.5642(9) 0.3513(3) 0.9564(2)
O16B O 0.6217(9) 0.4240(3) 1.0224(2)
O18G O 0.5570(8) 0.3237(3) 1.0416(2)
O21F O 0.8267(9) 0.4212(3) 0.9721(2)
Er1A Er 1.46414(6) 0.23900(2) 0.75629(1)
Er4B Er 0.72317(5) 0.14686(2) 0.49846(1)
Er3B Er 1.22730(5) 0.10625(2) 0.49798(1)
Er3A Er 0.72730(5) 0.39375(2) 0.50202(1)
Er4A Er 1.22317(5) 0.35314(2) 0.50154(1)
Er2A Er 0.41009(6) 0.00745(2) 0.75351(1)
Er3B_2 Er 0.22730(5) 0.10625(2) 0.49798(1)
Er3G Er 0.72730(5) 0.10625(2) 1.00202(1)
Er4G Er 1.22317(5) 0.14686(2) 1.00154(1)
Er1A_2 Er 0.46414(6) 0.23900(2) 0.75629(1)
Er4F Er 1.27683(5) -0.14686(2) 0.50154(1)
Er3F Er 0.77270(5) -0.10625(2) 0.50202(1)
Er2A_2 Er 1.41009(6) 0.00745(2) 0.75351(1)
loop_
_geom_bond_atom_site_label_1
_geom_bond_atom_site_label_2
_geom_bond_site_symmetry_1
_geom_bond_site_symmetry_2
Er1 O1 1_555 1_555
Er2 O6 1_555 1_555
Er3 O3 1_555 1_555
Er4 O4 1_555 1_555
O1 C1 1_555 1_555
O2 C1 1_555 1_555
O3 C8 1_555 1_555
O4 C8 1_555 1_555
O5 Er1 1_555 1_555
O6 C9 1_555 1_555
O7 C16 1_555 1_555
O8 C16 1_555 1_555
O9 Er1 1_555 1_555
O10 C17 1_555 1_555
O11 C24 1_555 1_555
O12 C24 1_555 1_555
O13 Er2 1_555 1_555
O14 C25 1_555 1_555
O15 C32 1_555 1_555
O16 C32 1_555 1_555
O17 C33 1_555 1_555
O18 C33 1_555 1_555
O19 Er1 1_555 1_555
O20 C40 1_555 1_555
O21 C41 1_555 1_555
O22 C41 1_555 1_555
O23 Er2 1_555 1_555
O24 C48 1_555 1_555
O25 Er1 1_555 1_555
O26 Er1 1_555 1_555
O27 Er2 1_555 1_555
O28 Er2 1_555 1_555
O29 Er3 1_555 1_555
O30 Er4 1_555 1_555
C1 C2 1_555 1_555
C2 C3 1_555 1_555
C3 C4 1_555 1_555
C4 C5 1_555 1_555
C5 C6 1_555 1_555
C6 C7 1_555 1_555
C7 C2 1_555 1_555
C8 C5 1_555 1_555
C9 O5 1_555 1_555
C10 C9 1_555 1_555
C11 C10 1_555 1_555
C12 C11 1_555 1_555
C13 C12 1_555 1_555
C14 C13 1_555 1_555
C15 C10 1_555 1_555
C16 C13 1_555 1_555
C17 O9 1_555 1_555
C18 C17 1_555 1_555
C19 C18 1_555 1_555
C20 C19 1_555 1_555
C21 C20 1_555 1_555
C22 C21 1_555 1_555
C23 C18 1_555 1_555
C24 C21 1_555 1_555
C25 O13 1_555 1_555
C26 C25 1_555 1_555
C27 C26 1_555 1_555
C28 C27 1_555 1_555
C29 C28 1_555 1_555
C30 C29 1_555 1_555
C31 C26 1_555 1_555
C32 C29 1_555 1_555
C33 C34 1_555 1_555
C34 C35 1_555 1_555
C35 C36 1_555 1_555
C36 C37 1_555 1_555
C37 C38 1_555 1_555
C38 C39 1_555 1_555
C39 C34 1_555 1_555
C40 O19 1_555 1_555
C41 C42 1_555 1_555
C42 C43 1_555 1_555
C43 C44 1_555 1_555
C44 C45 1_555 1_555
C45 C46 1_555 1_555
C46 C47 1_555 1_555
C47 C42 1_555 1_555
C48 O23 1_555 1_555
H1 C3 1_555 1_555
H2 C4 1_555 1_555
H3 C6 1_555 1_555
H4 C7 1_555 1_555
H5 C11 1_555 1_555
H6 C12 1_555 1_555
H7 C14 1_555 1_555
H8 C15 1_555 1_555
H9 C19 1_555 1_555
H10 C20 1_555 1_555
H11 C22 1_555 1_555
H12 C23 1_555 1_555
H13 C27 1_555 1_555
H14 C28 1_555 1_555
H15 C30 1_555 1_555
H16 C31 1_555 1_555
H17 C35 1_555 1_555
H18 C36 1_555 1_555
H19 C38 1_555 1_555
H20 C39 1_555 1_555
H21 C43 1_555 1_555
H22 C44 1_555 1_555
H23 C46 1_555 1_555
H24 C47 1_555 1_555
H25 O25 1_555 1_555
H26 O25 1_555 1_555
H27 O26 1_555 1_555
H28 O26 1_555 1_555
H29 O27 1_555 1_555
H30 O27 1_555 1_555
H31 O28 1_555 1_555
H32 O28 1_555 1_555
H33 O29 1_555 1_555
H34 O29 1_555 1_555
H35 O30 1_555 1_555
H36 O30 1_555 1_555
O2A Er1 1_555 1_555
O20A Er1 1_555 1_555
O14A Er2 1_555 1_555
O24A Er2 1_555 1_555
O8B Er3 1_555 1_555
O11A Er3 1_555 1_555
O15B Er3 1_555 1_555
O17G Er3 1_555 1_555
O22F Er3 1_555 1_555
O7B Er4 1_555 1_555
O12A Er4 1_555 1_555
O16B Er4 1_555 1_555
O18G Er4 1_555 1_555
O21F Er4 1_555 1_555
Er1A O2 1_555 1_555
Er4B O7 1_555 1_555
Er3B O8 1_555 1_555
Er3A O11 1_555 1_555
Er4A O12 1_555 1_555
Er2A O14 1_555 1_555
Er3B_2 O15 1_555 1_555
Er3G O17 1_555 1_555
Er4G O18 1_555 1_555
Er1A_2 O20 1_555 1_555
Er4F O21 1_555 1_555
Er3F O22 1_555 1_555
Er2A_2 O24 1_555 1_555
O16 Er4B 1_555 1_555
C14 C15 1_555 1_555
C22 C23 1_555 1_555
C30 C31 1_555 1_555
C37 C40 1_555 1_555
C45 C48 1_555 1_555

#END
