
#######################################################################
#
#                 Cambridge Crystallographic Data Centre
#                                CCDC 
#
#######################################################################
#
# If this CIF has been generated from an entry in the Cambridge 
# Structural Database, then it will include bibliographic, chemical, 
# crystal, experimental, refinement or atomic coordinate data resulting 
# from the CCDC's data processing and validation procedures.
#
#######################################################################

data_QIVKOW
_symmetry_cell_setting           monoclinic
_symmetry_space_group_name_H-M   'C 2/c'
_symmetry_Int_Tables_number      15
_space_group_name_Hall           '-C 2yn'
loop_
_symmetry_equiv_pos_site_id
_symmetry_equiv_pos_as_xyz
1 x,y,z
2 1/2+x,1/2+y,z
3 -x,y,1/2-z
4 1/2-x,1/2+y,1/2-z
5 -x,-y,-z
6 1/2-x,1/2-y,-z
7 x,-y,1/2+z
8 1/2+x,1/2-y,1/2+z
_cell_length_a                   19.294(2)
_cell_length_b                   10.2228(9)
_cell_length_c                   15.4465(19)
_cell_angle_alpha                90
_cell_angle_beta                 112.7855(15)
_cell_angle_gamma                90
_cell_volume                     2808.89
loop_
_atom_site_label
_atom_site_type_symbol
_atom_site_fract_x
_atom_site_fract_y
_atom_site_fract_z
Cu1 Cu 0.89286(4) -0.14726(6) 0.35134(4)
Cu2 Cu 0.7500 0.2500 0.5000
O1 O 0.8907(2) -0.0052(3) 0.4292(2)
O2 O 0.8645(2) 0.1872(3) 0.4725(2)
O3 O 0.77114(19) -0.0956(3) 0.0795(2)
O4 O 0.8784(2) -0.2979(3) 0.2650(2)
O5 O 0.8141(2) -0.3422(3) 0.1140(2)
O6 O 1.0166(2) -0.1202(5) 0.3593(2)
N1 N 0.8441(2) -0.0458(3) 0.2354(2)
N2 N 0.9194(2) -0.2705(4) 0.4603(2)
C1 C 0.8324(2) 0.0918(4) 0.2302(3)
C2 C 0.8148(3) 0.1577(4) 0.1446(3)
C3 C 0.8035(3) 0.2922(5) 0.1384(3)
C4 C 0.8094(3) 0.3622(4) 0.2168(3)
C5 C 0.8283(2) 0.2993(4) 0.3010(3)
C6 C 0.8395(2) 0.1632(4) 0.3103(3)
C7 C 0.8647(2) 0.1107(4) 0.4094(3)
C8 C 0.8154(2) -0.1224(4) 0.1628(3)
C9 C 0.8376(2) -0.2650(4) 0.1828(3)
C10 C 0.9639(2) -0.2304(5) 0.5468(3)
C11 C 0.9860(3) -0.3139(6) 0.6225(3)
C12 C 0.9613(3) -0.4406(6) 0.6112(3)
C13 C 0.9143(3) -0.4826(5) 0.5232(3)
C14 C 0.8958(3) -0.3944(5) 0.4501(3)
H1 H 0.8106 0.1102 0.0907
H2 H 0.7917 0.3351 0.0806
H3 H 0.8004 0.4528 0.2126
H4 H 0.8341 0.3489 0.3546
H5 H 0.9804 -0.1431 0.5559
H6 H 1.0181 -0.2838 0.6822
H7 H 0.9761 -0.4982 0.6626
H8 H 0.8955 -0.5685 0.5133
H9 H 0.8649 -0.4233 0.3897
H10 H 1.0452 -0.1338 0.3975
H11 H 1.0216 -0.0946 0.3111
Cu1E Cu 0.60714(4) 0.64726(6) 0.64866(4)
Cu2F Cu 0.7500 -0.2500 0.0000
Cu2F_2 Cu 0.7500 0.7500 1.0000
O1E O 0.6093(2) 0.5052(3) 0.5708(2)
O2E O 0.6355(2) 0.3128(3) 0.5275(2)
O3E O 0.72886(19) 0.5956(3) 0.9205(2)
O3F O 0.77114(19) 0.0956(3) 0.5795(2)
O3C O 0.72886(19) 0.4044(3) 0.4205(2)
O4E O 0.6216(2) 0.7979(3) 0.7350(2)
O5E O 0.6859(2) 0.8422(3) 0.8860(2)
O5F O 0.8141(2) 0.3422(3) 0.6140(2)
O5C O 0.6859(2) 0.1578(3) 0.3860(2)
O6E O 0.4834(2) 0.6202(5) 0.6407(2)
N1E N 0.6559(2) 0.5458(3) 0.7646(2)
N2E N 0.5806(2) 0.7705(4) 0.5397(2)
C1E C 0.6676(2) 0.4082(4) 0.7698(3)
C2E C 0.6852(3) 0.3423(4) 0.8554(3)
C3E C 0.6965(3) 0.2078(5) 0.8616(3)
C4E C 0.6906(3) 0.1378(4) 0.7832(3)
C5E C 0.6717(2) 0.2007(4) 0.6990(3)
C6E C 0.6605(2) 0.3368(4) 0.6897(3)
C7E C 0.6353(2) 0.3893(4) 0.5906(3)
C8E C 0.6846(2) 0.6224(4) 0.8372(3)
C9E C 0.6624(2) 0.7650(4) 0.8172(3)
C10E C 0.5361(2) 0.7304(5) 0.4532(3)
C11E C 0.5140(3) 0.8139(6) 0.3775(3)
C12E C 0.5387(3) 0.9406(6) 0.3888(3)
C13E C 0.5857(3) 0.9826(5) 0.4768(3)
C14E C 0.6042(3) 0.8944(5) 0.5499(3)
H1E H 0.6894 0.3898 0.9093
H2E H 0.7083 0.1649 0.9194
H3E H 0.6996 0.0472 0.7874
H4E H 0.6659 0.1511 0.6454
H5E H 0.5196 0.6431 0.4441
H6E H 0.4819 0.7838 0.3178
H7E H 0.5239 0.9982 0.3374
H8E H 0.6045 1.0685 0.4867
H9E H 0.6351 0.9233 0.6103
H10E H 0.4548 0.6338 0.6025
H11E H 0.4784 0.5946 0.6889
loop_
_geom_bond_atom_site_label_1
_geom_bond_atom_site_label_2
_geom_bond_site_symmetry_1
_geom_bond_site_symmetry_2
Cu1 O1 1_555 1_555
Cu2 O2 1_555 1_555
O1 C7 1_555 1_555
O2 C7 1_555 1_555
O3 C8 1_555 1_555
O4 Cu1 1_555 1_555
O5 C9 1_555 1_555
O6 Cu1 1_555 1_555
N1 Cu1 1_555 1_555
N2 Cu1 1_555 1_555
C1 N1 1_555 1_555
C2 C1 1_555 1_555
C3 C2 1_555 1_555
C4 C3 1_555 1_555
C5 C4 1_555 1_555
C6 C1 1_555 1_555
C7 C6 1_555 1_555
C8 N1 1_555 1_555
C9 O4 1_555 1_555
C10 N2 1_555 1_555
C11 C10 1_555 1_555
C12 C11 1_555 1_555
C13 C12 1_555 1_555
C14 N2 1_555 1_555
H1 C2 1_555 1_555
H2 C3 1_555 1_555
H3 C4 1_555 1_555
H4 C5 1_555 1_555
H5 C10 1_555 1_555
H6 C11 1_555 1_555
H7 C12 1_555 1_555
H8 C13 1_555 1_555
H9 C14 1_555 1_555
H10 O6 1_555 1_555
H11 O6 1_555 1_555
Cu1E O1E 1_555 1_555
Cu2F O3 1_555 1_555
Cu2F_2 O3E 1_555 1_555
O1E C7E 1_555 1_555
O2E Cu2 1_555 1_555
O3E C8E 1_555 1_555
O3F Cu2 1_555 1_555
O3C Cu2 1_555 1_555
O4E Cu1E 1_555 1_555
O5E Cu2F_2 1_555 1_555
O5F Cu2 1_555 1_555
O5C Cu2 1_555 1_555
O6E Cu1E 1_555 1_555
N1E Cu1E 1_555 1_555
N2E Cu1E 1_555 1_555
C1E N1E 1_555 1_555
C2E C1E 1_555 1_555
C3E C2E 1_555 1_555
C4E C3E 1_555 1_555
C5E C4E 1_555 1_555
C6E C1E 1_555 1_555
C7E O2E 1_555 1_555
C8E N1E 1_555 1_555
C9E O4E 1_555 1_555
C10E N2E 1_555 1_555
C11E C10E 1_555 1_555
C12E C11E 1_555 1_555
C13E C12E 1_555 1_555
C14E N2E 1_555 1_555
H1E C2E 1_555 1_555
H2E C3E 1_555 1_555
H3E C4E 1_555 1_555
H4E C5E 1_555 1_555
H5E C10E 1_555 1_555
H6E C11E 1_555 1_555
H7E C12E 1_555 1_555
H8E C13E 1_555 1_555
H9E C14E 1_555 1_555
H10E O6E 1_555 1_555
H11E O6E 1_555 1_555
O5 Cu2F 1_555 1_555
C5 C6 1_555 1_555
C8 C9 1_555 1_555
C13 C14 1_555 1_555
O5E C9E 1_555 1_555
C5E C6E 1_555 1_555
C6E C7E 1_555 1_555
C8E C9E 1_555 1_555
C13E C14E 1_555 1_555

#END
