
#######################################################################
#
#                 Cambridge Crystallographic Data Centre
#                                CCDC 
#
#######################################################################
#
# If this CIF has been generated from an entry in the Cambridge 
# Structural Database, then it will include bibliographic, chemical, 
# crystal, experimental, refinement or atomic coordinate data resulting 
# from the CCDC's data processing and validation procedures.
#
#######################################################################

data_QIVLUE
_symmetry_cell_setting           orthorhombic
_symmetry_space_group_name_H-M   'F d d d'
_symmetry_Int_Tables_number      70
_space_group_name_Hall           '-F 2uv 2vw'
loop_
_symmetry_equiv_pos_site_id
_symmetry_equiv_pos_as_xyz
1 x,y,z
2 3/4-x,3/4-y,z
3 3/4-x,y,3/4-z
4 x,3/4-y,3/4-z
5 x,1/2+y,1/2+z
6 3/4-x,1/4-y,1/2+z
7 3/4-x,1/2+y,1/4-z
8 x,1/4-y,1/4-z
9 1/2+x,y,1/2+z
10 1/4-x,3/4-y,1/2+z
11 1/4-x,y,1/4-z
12 1/2+x,3/4-y,1/4-z
13 1/2+x,1/2+y,z
14 1/4-x,1/4-y,z
15 1/4-x,1/2+y,3/4-z
16 1/2+x,1/4-y,3/4-z
17 -x,-y,-z
18 1/4+x,1/4+y,-z
19 1/4+x,-y,1/4+z
20 -x,1/4+y,1/4+z
21 -x,1/2-y,1/2-z
22 1/4+x,3/4+y,1/2-z
23 1/4+x,1/2-y,3/4+z
24 -x,3/4+y,3/4+z
25 1/2-x,-y,1/2-z
26 3/4+x,1/4+y,1/2-z
27 3/4+x,-y,3/4+z
28 1/2-x,1/4+y,3/4+z
29 1/2-x,1/2-y,-z
30 3/4+x,3/4+y,-z
31 3/4+x,1/2-y,1/4+z
32 1/2-x,3/4+y,1/4+z
_cell_length_a                   19.9292(5)
_cell_length_b                   25.9815(8)
_cell_length_c                   29.2054(10)
_cell_angle_alpha                90
_cell_angle_beta                 90
_cell_angle_gamma                90
_cell_volume                     15122.3
loop_
_atom_site_label
_atom_site_type_symbol
_atom_site_fract_x
_atom_site_fract_y
_atom_site_fract_z
Zn1 Zn -0.000076(12) 0.303058(11) 0.067424(9)
O1 O 0.17210(7) 0.26923(7) 0.21158(6)
O2 O -0.07809(7) 0.27226(7) 0.03645(6)
O3 O 0.00208(7) 0.27989(7) 0.13012(6)
O4 O -0.05669(8) 0.34377(6) 0.16305(5)
O5 O -0.14406(8) 0.31375(7) 0.08597(6)
O6 O 0.10915(8) 0.32991(7) 0.17827(5)
O7 O -0.24552(7) 0.37759(7) 0.04448(6)
O8 O -0.30625(8) 0.33320(6) 0.09608(5)
C1 C -0.13516(11) 0.28676(9) 0.05157(8)
C2 C 0.05581(11) 0.26874(9) 0.22607(7)
C3 C 0.11634(10) 0.29140(9) 0.20298(7)
C4 C -0.19519(11) 0.26849(9) 0.02486(8)
C5 C -0.00883(11) 0.27810(9) 0.20959(8)
C6 C -0.27073(11) 0.33687(10) 0.06109(8)
C7 C -0.02203(11) 0.30398(9) 0.16426(8)
C8 C -0.25842(11) 0.29024(10) 0.03160(8)
C9 C -0.18778(11) 0.22844(10) -0.00657(8)
H1 H -0.1456 0.2139 -0.0108
C10 C 0.06335(11) 0.24081(10) 0.26624(8)
H2 H 0.1064 0.2346 0.2773
Li1 Li 0.1250 0.3718(2) 0.1250
Li2 Li -0.1250 0.3750 0.12125(18)
O1T O -0.17210(7) 0.23077(7) 0.28842(6)
O3T O -0.00208(7) 0.22011(7) 0.36988(6)
O4T O 0.05669(8) 0.15623(6) 0.33695(5)
O6T O -0.10915(8) 0.17009(7) 0.32173(5)
C2T C -0.05581(11) 0.23126(9) 0.27393(7)
C3T C -0.11634(10) 0.20860(9) 0.29702(7)
C5T C 0.00883(11) 0.22190(9) 0.29041(8)
C7T C 0.02203(11) 0.19602(9) 0.33574(8)
C10T C -0.06335(11) 0.25919(10) 0.23376(8)
H2T H -0.1064 0.2654 0.2227
O2BA O -0.42191(7) 0.22774(7) -0.03645(6)
O5BA O -0.35594(8) 0.18625(7) -0.08597(6)
O7BA O -0.25448(7) 0.12241(7) -0.04448(6)
O8BA O -0.19375(8) 0.16680(6) -0.09608(5)
C1BA C -0.36484(11) 0.21324(9) -0.05157(8)
C4BA C -0.30481(11) 0.23151(9) -0.02486(8)
C6BA C -0.22927(11) 0.16313(10) -0.06109(8)
C8BA C -0.24158(11) 0.20976(10) -0.03160(8)
C9BA C -0.31222(11) 0.27156(10) 0.00657(8)
H1BA H -0.3544 0.2861 0.0108
Zn1A Zn -0.249924(12) 0.446942(11) 0.067424(9)
Zn1J Zn 0.250076(12) 0.303058(11) 0.182576(9)
Zn1T Zn 0.000076(12) 0.196942(11) 0.432576(9)
Zn1BA Zn -0.499924(12) 0.196942(11) -0.067424(9)
Zn1CA Zn -0.250076(12) 0.053058(11) -0.067424(9)
Zn1DA Zn -0.250076(12) 0.196942(11) 0.317424(9)
O1J O 0.07790(7) 0.26923(7) 0.03842(6)
O1K O -0.32790(7) 0.48077(7) 0.03842(6)
O2A O -0.17191(7) 0.47774(7) 0.03645(6)
O3A O -0.25208(7) 0.47011(7) 0.13012(6)
O4A O -0.19331(8) 0.40623(6) 0.16305(5)
O5A O -0.10594(8) 0.43625(7) 0.08597(6)
O6J O 0.14085(8) 0.32991(7) 0.07173(5)
O7A O -0.00448(7) 0.37241(7) 0.04448(6)
O8A O 0.05625(8) 0.41680(6) 0.09608(5)
O8K O 0.19375(8) 0.41680(6) 0.15392(5)
Li1A Li -0.3750 0.3782(2) 0.1250
Li1T Li -0.1250 0.1282(2) 0.3750
Li1W Li -0.1250 0.1218(2) -0.1250
Li2T Li 0.1250 0.1250 0.37875(18)
Li2BA Li -0.3750 0.1250 -0.12125(18)
loop_
_geom_bond_atom_site_label_1
_geom_bond_atom_site_label_2
_geom_bond_site_symmetry_1
_geom_bond_site_symmetry_2
Zn1 O2 1_555 1_555
O1 C3 1_555 1_555
O2 C1 1_555 1_555
O3 Zn1 1_555 1_555
O4 C7 1_555 1_555
O5 C1 1_555 1_555
O6 C3 1_555 1_555
O7 C6 1_555 1_555
O8 C6 1_555 1_555
C1 C4 1_555 1_555
C2 C3 1_555 1_555
C4 C8 1_555 1_555
C5 C2 1_555 1_555
C6 C8 1_555 1_555
C7 O3 1_555 1_555
C8 C9BA 1_555 1_555
C9 C4 1_555 1_555
H1 C9 1_555 1_555
C10 C2 1_555 1_555
H2 C10 1_555 1_555
Li1 O6 1_555 1_555
Li2 O4 1_555 1_555
O1T C3T 1_555 1_555
O3T C7T 1_555 1_555
O4T C7T 1_555 1_555
O6T C3T 1_555 1_555
C2T C3T 1_555 1_555
C5T C10 1_555 1_555
C7T C5T 1_555 1_555
C10T C5 1_555 1_555
H2T C10T 1_555 1_555
O2BA C1BA 1_555 1_555
O5BA C1BA 1_555 1_555
O7BA C6BA 1_555 1_555
O8BA C6BA 1_555 1_555
C1BA C4BA 1_555 1_555
C4BA C8BA 1_555 1_555
C6BA C8BA 1_555 1_555
C8BA C9 1_555 1_555
C9BA C4BA 1_555 1_555
H1BA C9BA 1_555 1_555
Zn1A O7 1_555 1_555
Zn1J O1 1_555 1_555
Zn1T O3T 1_555 1_555
Zn1BA O2BA 1_555 1_555
Zn1CA O7BA 1_555 1_555
Zn1DA O1T 1_555 1_555
O1J Zn1 1_555 1_555
O1K Zn1A 1_555 1_555
O2A Zn1A 1_555 1_555
O3A Zn1A 1_555 1_555
O4A Li2 1_555 1_555
O5A Li2 1_555 1_555
O6J Li1 1_555 1_555
O7A Zn1 1_555 1_555
O8A Li1 1_555 1_555
O8K Li1 1_555 1_555
Li1A O8 1_555 1_555
Li1T O6T 1_555 1_555
Li1W O8BA 1_555 1_555
Li2T O4T 1_555 1_555
Li2BA O5BA 1_555 1_555
O5 Li2 1_555 1_555
C5 C7 1_555 1_555
C2T C5T 1_555 1_555
C2T C10T 1_555 1_555

#END
