
#######################################################################
#
#                 Cambridge Crystallographic Data Centre
#                                CCDC 
#
#######################################################################
#
# If this CIF has been generated from an entry in the Cambridge 
# Structural Database, then it will include bibliographic, chemical, 
# crystal, experimental, refinement or atomic coordinate data resulting 
# from the CCDC's data processing and validation procedures.
#
#######################################################################

data_QIVMUD
_symmetry_cell_setting           monoclinic
_symmetry_space_group_name_H-M   'C 2/m'
_symmetry_Int_Tables_number      12
_space_group_name_Hall           '-C 2y'
loop_
_symmetry_equiv_pos_site_id
_symmetry_equiv_pos_as_xyz
1 x,y,z
2 x,-y,z
3 1/2+x,1/2+y,z
4 1/2+x,1/2-y,z
5 -x,-y,-z
6 -x,y,-z
7 1/2-x,1/2-y,-z
8 1/2-x,1/2+y,-z
_cell_length_a                   13.955(5)
_cell_length_b                   7.330(3)
_cell_length_c                   8.927(2)
_cell_angle_alpha                90
_cell_angle_beta                 102.39(3)
_cell_angle_gamma                90
_cell_volume                     891.877
loop_
_atom_site_label
_atom_site_type_symbol
_atom_site_fract_x
_atom_site_fract_y
_atom_site_fract_z
Cu1 Cu 0.39538(7) 0.00000 0.58067(9)
O1 O 0.3891(4) 0.00000 0.7994(6)
O2 O 0.2279(5) 0.00000 0.7180(6)
O3 O 0.4245(4) 0.00000 1.3715(5)
O4 O 0.2621(4) 0.00000 1.2885(6)
N1 N 0.3812(3) 0.2681(7) 0.5741(5)
C1 C 0.3029(6) 0.00000 0.8232(8)
C2 C 0.2920(6) 0.00000 0.9855(8)
C3 C 0.3638(6) 0.00000 1.1059(8)
C4 C 0.3483(6) 0.00000 1.2658(8)
H1 H 0.4376(9) 0.3193(7) 0.621(4)
H2 H 0.2285(6) 0.00000 1.0024(8)
H3 H 0.3341(18) 0.3008(8) 0.622(4)
H4 H 0.4279(6) 0.00000 1.0913(8)
H5 H 0.366(3) 0.3049(9) 0.4769(5)
N1A N 0.3812(3) -0.2681(7) 0.5741(5)
H1A H 0.4376(9) -0.3193(7) 0.621(4)
H3A H 0.3341(18) -0.3008(8) 0.622(4)
H5A H 0.366(3) -0.3049(9) 0.4769(5)
O3_2 O 0.4245(4) 0.00000 0.3715(5)
O3D O 0.5755(4) 0.00000 0.6285(5)
Cu1_2 Cu 0.39538(7) 0.00000 1.58067(9)
Cu1D Cu 0.60462(7) 0.00000 1.41933(9)
O5 O 0.0424(6) 0.00000 0.7504(10)
H6 H 0.06000 0.07310 0.80010
H6A H 0.06000 -0.07310 0.80010
O6? O 0.017(2) 0.00000 0.906(4)
loop_
_geom_bond_atom_site_label_1
_geom_bond_atom_site_label_2
_geom_bond_site_symmetry_1
_geom_bond_site_symmetry_2
Cu1 O1 1_555 1_555
O1 C1 1_555 1_555
O2 C1 1_555 1_555
O3 C4 1_555 1_555
O4 C4 1_555 1_555
N1 Cu1 1_555 1_555
C1 C2 1_555 1_555
C2 C3 1_555 1_555
C3 C4 1_555 1_555
O5 H6 1_555 1_555
H1 N1 1_555 1_555
H2 C2 1_555 1_555
H3 N1 1_555 1_555
H4 C3 1_555 1_555
H5 N1 1_555 1_555
H6A O5 1_555 1_555
N1A Cu1 1_555 1_555
H1A N1A 1_555 1_555
H3A N1A 1_555 1_555
H5A N1A 1_555 1_555
O3_2 Cu1 1_555 1_555
O3D Cu1 1_555 1_555
Cu1_2 O3 1_555 1_555
Cu1D O3 1_555 1_555

#END
