
#######################################################################
#
#                 Cambridge Crystallographic Data Centre
#                                CCDC 
#
#######################################################################
#
# If this CIF has been generated from an entry in the Cambridge 
# Structural Database, then it will include bibliographic, chemical, 
# crystal, experimental, refinement or atomic coordinate data resulting 
# from the CCDC's data processing and validation procedures.
#
#######################################################################

data_QIVMOX01
_symmetry_cell_setting           monoclinic
_symmetry_space_group_name_H-M   'P 21/c'
_symmetry_Int_Tables_number      14
_space_group_name_Hall           '-P 2ybc'
loop_
_symmetry_equiv_pos_site_id
_symmetry_equiv_pos_as_xyz
1 x,y,z
2 x,1/2-y,1/2+z
3 -x,-y,-z
4 -x,1/2+y,1/2-z
_cell_length_a                   9.7718(5)
_cell_length_b                   8.2503(4)
_cell_length_c                   9.2491(5)
_cell_angle_alpha                90
_cell_angle_beta                 104.146(1)
_cell_angle_gamma                90
_cell_volume                     723.054
loop_
_atom_site_label
_atom_site_type_symbol
_atom_site_fract_x
_atom_site_fract_y
_atom_site_fract_z
Zn1 Zn 0.324853(17) 0.10419(2) 0.040809(17)
P1 P 0.48091(4) 0.16770(4) -0.20810(4)
O1 O 0.36827(12) 0.07882(15) -0.15002(12)
O2 O 0.62068(12) 0.07812(15) -0.17323(13)
O3 O 0.42903(12) 0.20008(14) -0.37448(11)
N1 N 0.12630(16) 0.1475(2) 0.0332(2)
N2 N -0.08053(15) 0.2616(2) 0.10006(17)
N3 N -0.15055(16) 0.4061(2) -0.12594(16)
N4 N -0.25873(16) 0.4467(2) 0.06363(17)
C1 C 0.02752(16) 0.2043(2) 0.05978(19)
C2 C -0.16286(15) 0.37024(18) 0.01049(17)
H1 H 0.502(2) 0.299(3) -0.144(2)
H2 H -0.213(3) 0.470(3) -0.186(3)
H3 H -0.104(3) 0.346(4) -0.170(3)
H4 H -0.321(3) 0.515(3) 0.004(3)
H5 H -0.272(3) 0.419(3) 0.150(3)
O2B O 0.37932(12) -0.07812(15) 0.17323(13)
O3A O 0.42903(12) 0.29992(14) 0.12552(11)
Zn1B Zn 0.675147(17) -0.10419(2) -0.040809(17)
Zn1A Zn 0.324853(17) 0.39581(2) -0.459191(17)
loop_
_geom_bond_atom_site_label_1
_geom_bond_atom_site_label_2
_geom_bond_site_symmetry_1
_geom_bond_site_symmetry_2
Zn1 O1 1_555 1_555
P1 O1 1_555 1_555
O2 P1 1_555 1_555
O3 P1 1_555 1_555
N1 Zn1 1_555 1_555
N2 C1 1_555 1_555
N3 C2 1_555 1_555
N4 C2 1_555 1_555
C1 N1 1_555 1_555
C2 N2 1_555 1_555
H1 P1 1_555 1_555
H2 N3 1_555 1_555
H3 N3 1_555 1_555
H4 N4 1_555 1_555
H5 N4 1_555 1_555
O2B Zn1 1_555 1_555
O3A Zn1 1_555 1_555
Zn1B O2 1_555 1_555
Zn1A O3 1_555 1_555

#END
