
#######################################################################
#
#                 Cambridge Crystallographic Data Centre
#                                CCDC 
#
#######################################################################
#
# If this CIF has been generated from an entry in the Cambridge 
# Structural Database, then it will include bibliographic, chemical, 
# crystal, experimental, refinement or atomic coordinate data resulting 
# from the CCDC's data processing and validation procedures.
#
#######################################################################

data_QIVMOX
_symmetry_cell_setting           monoclinic
_symmetry_space_group_name_H-M   'C 2/c'
_symmetry_Int_Tables_number      15
_space_group_name_Hall           '-C 2yn'
loop_
_symmetry_equiv_pos_site_id
_symmetry_equiv_pos_as_xyz
1 x,y,z
2 1/2+x,1/2+y,z
3 x,-y,1/2+z
4 1/2+x,1/2-y,1/2+z
5 -x,-y,-z
6 1/2-x,1/2-y,-z
7 -x,y,1/2-z
8 1/2-x,1/2+y,1/2-z
_cell_length_a                   14.5092(9)
_cell_length_b                   10.5464(6)
_cell_length_c                   10.3342(6)
_cell_angle_alpha                90
_cell_angle_beta                 114.290(1)
_cell_angle_gamma                90
_cell_volume                     1441.35
loop_
_atom_site_label
_atom_site_type_symbol
_atom_site_fract_x
_atom_site_fract_y
_atom_site_fract_z
Zn1 Zn 0.41873(2) 0.86283(2) 0.04420(3)
P1 P 0.64006(5) 0.96946(5) 0.22141(6)
O1 O 0.56706(15) 0.87209(16) 0.1225(2)
O2 O 0.63137(18) 1.09908(17) 0.15449(18)
O3 O 0.63326(16) 0.98221(17) 0.36306(18)
C1 C 0.37929(19) 0.5836(2) 0.1014(3)
C2 C 0.38086(19) 0.3719(2) 0.0675(3)
N1 N 0.3835(2) 0.6872(2) 0.0709(3)
N2 N 0.37363(19) 0.4705(2) 0.1459(2)
N3 N 0.3792(2) 0.2566(2) 0.1168(3)
N4 N 0.3894(2) 0.3834(2) -0.0543(3)
H1 H 0.726(2) 0.931(3) 0.246(3)
H2 H 0.370(3) 0.249(3) 0.192(4)
H3 H 0.385(4) 0.195(5) 0.066(5)
H4 H 0.395(3) 0.320(4) -0.097(4)
H5 H 0.386(3) 0.456(5) -0.087(5)
O2D O 0.36863(18) 0.90092(17) -0.15449(18)
O3F O 0.36674(16) 0.98221(17) 0.13694(18)
Zn1D Zn 0.58127(2) 1.13717(2) -0.04420(3)
Zn1F Zn 0.58127(2) 0.86283(2) 0.45580(3)
loop_
_geom_bond_atom_site_label_1
_geom_bond_atom_site_label_2
_geom_bond_site_symmetry_1
_geom_bond_site_symmetry_2
Zn1 O1 1_555 1_555
P1 O1 1_555 1_555
O2 P1 1_555 1_555
O3 P1 1_555 1_555
C1 N1 1_555 1_555
C2 N2 1_555 1_555
N1 Zn1 1_555 1_555
N2 C1 1_555 1_555
N3 C2 1_555 1_555
N4 C2 1_555 1_555
H1 P1 1_555 1_555
H2 N3 1_555 1_555
H3 N3 1_555 1_555
H4 N4 1_555 1_555
H5 N4 1_555 1_555
O2D Zn1 1_555 1_555
O3F Zn1 1_555 1_555
Zn1D O2 1_555 1_555
Zn1F O3 1_555 1_555

#END
