
#######################################################################
#
#                 Cambridge Crystallographic Data Centre
#                                CCDC 
#
#######################################################################
#
# If this CIF has been generated from an entry in the Cambridge 
# Structural Database, then it will include bibliographic, chemical, 
# crystal, experimental, refinement or atomic coordinate data resulting 
# from the CCDC's data processing and validation procedures.
#
#######################################################################

data_QIVPUI
_symmetry_cell_setting           cubic
_symmetry_space_group_name_H-M   'I -4 3 d'
_symmetry_Int_Tables_number      220
_space_group_name_Hall           'I -4bd 2c 3'
loop_
_symmetry_equiv_pos_site_id
_symmetry_equiv_pos_as_xyz
1 x,y,z
2 1/2-x,-y,1/2+z
3 -x,1/2+y,1/2-z
4 1/2+x,1/2-y,-z
5 z,x,y
6 1/2+z,1/2-x,-y
7 1/2-z,-x,1/2+y
8 -z,1/2+x,1/2-y
9 y,z,x
10 -y,1/2+z,1/2-x
11 1/2+y,1/2-z,-x
12 1/2-y,-z,1/2+x
13 1/4+y,1/4+x,1/4+z
14 1/4-y,3/4-x,3/4+z
15 3/4+y,1/4-x,3/4-z
16 3/4-y,3/4+x,1/4-z
17 1/4+x,1/4+z,1/4+y
18 3/4-x,3/4+z,1/4-y
19 1/4-x,3/4-z,3/4+y
20 3/4+x,1/4-z,3/4-y
21 1/4+z,1/4+y,1/4+x
22 3/4+z,1/4-y,3/4-x
23 3/4-z,3/4+y,1/4-x
24 1/4-z,3/4-y,3/4+x
25 1/2+x,1/2+y,1/2+z
26 -x,1/2-y,z
27 1/2-x,y,-z
28 x,-y,1/2-z
29 1/2+z,1/2+x,1/2+y
30 z,-x,1/2-y
31 -z,1/2-x,y
32 1/2-z,x,-y
33 1/2+y,1/2+z,1/2+x
34 1/2-y,z,-x
35 y,-z,1/2-x
36 -y,1/2-z,x
37 3/4+y,3/4+x,3/4+z
38 3/4-y,1/4-x,1/4+z
39 1/4+y,3/4-x,1/4-z
40 1/4-y,1/4+x,3/4-z
41 3/4+x,3/4+z,3/4+y
42 1/4-x,1/4+z,3/4-y
43 3/4-x,1/4-z,1/4+y
44 1/4+x,3/4-z,1/4-y
45 3/4+z,3/4+y,3/4+x
46 1/4+z,3/4-y,1/4-x
47 1/4-z,1/4+y,3/4-x
48 3/4-z,1/4-y,1/4+x
_cell_length_a                   27.236(3)
_cell_length_b                   27.236(3)
_cell_length_c                   27.236(3)
_cell_angle_alpha                90
_cell_angle_beta                 90
_cell_angle_gamma                90
_cell_volume                     20203.7
loop_
_atom_site_label
_atom_site_type_symbol
_atom_site_fract_x
_atom_site_fract_y
_atom_site_fract_z
Na1 Na 0.2500 0.0310(3) 0.5000
O5 O 0.2258(11) -0.2258(11) 0.2742(11)
Co1 Co 0.09832(6) -0.09832(6) 0.40168(6)
O1 O 0.1127(4) -0.0283(3) 0.4204(3)
C1 C 0.1442(4) -0.0009(4) 0.4327(4)
O2 O 0.1854(4) -0.0199(3) 0.4540(4)
C2 C 0.1359(5) 0.0502(4) 0.4384(6)
O3 O 0.1756(2) 0.07997(19) 0.4564(2)
H1 H 0.1077 0.0544 0.4610
H2 H 0.1258 0.0635 0.4061
C3 C 0.1657(2) 0.1291(3) 0.4504(3)
C4 C 0.1372(3) 0.1545(3) 0.4858(3)
C5 C 0.1823(3) 0.1542(3) 0.4096(3)
S1 S 0.11080(7) 0.12648(9) 0.53729(9)
C6 C 0.1260(3) 0.2041(3) 0.4770(3)
C7 C 0.1699(3) 0.2032(3) 0.4023(3)
C8 C 0.1404(3) 0.2294(3) 0.4361(3)
H3 H 0.1072 0.2211 0.5009
H4 H 0.1816 0.2196 0.3738
C9 C 0.1271(4) 0.2827(3) 0.4266(4)
C10 C 0.0940(7) 0.3026(7) 0.4646(7)
C11 C 0.1733(6) 0.3132(4) 0.4314(6)
C12 C 0.1082(6) 0.2904(5) 0.3761(6)
H5 H 0.1069 0.2946 0.4972
H6 H 0.0612 0.2881 0.4608
H7 H 0.0917 0.3384 0.4610
H8 H 0.1861 0.3104 0.4649
H9 H 0.1656 0.3476 0.4243
H10 H 0.1980 0.3013 0.4081
H11 H 0.1333 0.2805 0.3522
H12 H 0.1004 0.3252 0.3714
H13 H 0.0785 0.2707 0.3712
O4 O 0.1681(4) -0.1271(5) 0.4121(6)
O1U O 0.1704(3) 0.2783(3) 0.6373(4)
C1U C 0.1827(4) 0.2509(4) 0.6058(4)
O2U O 0.2040(4) 0.2699(3) 0.5646(4)
C2U C 0.1884(6) 0.1998(4) 0.6141(5)
O3U O 0.2064(2) 0.17003(19) 0.5744(2)
H1U H 0.2110 0.1956 0.6423
H2U H 0.1561 0.1865 0.6242
C3U C 0.2004(3) 0.1209(3) 0.5843(2)
C4U C 0.2358(3) 0.0955(3) 0.6128(3)
C5U C 0.1596(3) 0.0958(3) 0.5677(3)
S1U S 0.28729(9) 0.12352(9) 0.63920(7)
C6U C 0.2270(3) 0.0459(3) 0.6240(3)
C7U C 0.1523(3) 0.0468(3) 0.5801(3)
C8U C 0.1861(3) 0.0206(3) 0.6096(3)
H3U H 0.2509 0.0289 0.6428
H4U H 0.1238 0.0304 0.5684
C9U C 0.1766(4) -0.0327(3) 0.6229(4)
C10U C 0.2146(7) -0.0526(7) 0.6560(7)
C11U C 0.1814(6) -0.0632(4) 0.5767(6)
C12U C 0.1261(6) -0.0404(5) 0.6418(6)
H5U H 0.2472 -0.0446 0.6431
H6U H 0.2108 -0.0381 0.6888
H7U H 0.2110 -0.0884 0.6583
H8U H 0.2149 -0.0604 0.5639
H9U H 0.1743 -0.0976 0.5844
H10U H 0.1581 -0.0513 0.5520
H11U H 0.1022 -0.0305 0.6167
H12U H 0.1214 -0.0752 0.6496
H13U H 0.1212 -0.0207 0.6715
O1UA O 0.3296(3) 0.2783(3) 0.3627(4)
C1UA C 0.3173(4) 0.2509(4) 0.3942(4)
O2UA O 0.2960(4) 0.2699(3) 0.4354(4)
C2UA C 0.3116(6) 0.1998(4) 0.3859(5)
O3UA O 0.2936(2) 0.17003(19) 0.4256(2)
H1UA H 0.2890 0.1956 0.3577
H2UA H 0.3439 0.1865 0.3758
C3UA C 0.2996(3) 0.1209(3) 0.4157(2)
C4UA C 0.2642(3) 0.0955(3) 0.3872(3)
C5UA C 0.3404(3) 0.0958(3) 0.4323(3)
S1UA S 0.21271(9) 0.12352(9) 0.36080(7)
C6UA C 0.2730(3) 0.0459(3) 0.3760(3)
C7UA C 0.3477(3) 0.0468(3) 0.4199(3)
C8UA C 0.3139(3) 0.0206(3) 0.3904(3)
H3UA H 0.2491 0.0289 0.3572
H4UA H 0.3762 0.0304 0.4316
C9UA C 0.3234(4) -0.0327(3) 0.3771(4)
C10UA C 0.2854(7) -0.0526(7) 0.3440(7)
C11UA C 0.3186(6) -0.0632(4) 0.4233(6)
C12UA C 0.3739(6) -0.0404(5) 0.3582(6)
H5UA H 0.2528 -0.0446 0.3569
H6UA H 0.2892 -0.0381 0.3112
H7UA H 0.2890 -0.0884 0.3417
H8UA H 0.2851 -0.0604 0.4361
H9UA H 0.3257 -0.0976 0.4156
H10UA H 0.3419 -0.0513 0.4480
H11UA H 0.3978 -0.0305 0.3833
H12UA H 0.3786 -0.0752 0.3504
H13UA H 0.3788 -0.0207 0.3285
O1Z O 0.3873(4) -0.0283(3) 0.5796(3)
C1Z C 0.3558(4) -0.0009(4) 0.5673(4)
O2Z O 0.3146(4) -0.0199(3) 0.5460(4)
C2Z C 0.3641(5) 0.0502(4) 0.5616(6)
O3Z O 0.3244(2) 0.07997(19) 0.5436(2)
H1Z H 0.3923 0.0544 0.5390
H2Z H 0.3742 0.0635 0.5939
C3Z C 0.3343(2) 0.1291(3) 0.5496(3)
C4Z C 0.3628(3) 0.1545(3) 0.5142(3)
C5Z C 0.3177(3) 0.1542(3) 0.5904(3)
S1Z S 0.38920(7) 0.12648(9) 0.46271(9)
C6Z C 0.3740(3) 0.2041(3) 0.5230(3)
C7Z C 0.3301(3) 0.2032(3) 0.5977(3)
C8Z C 0.3596(3) 0.2294(3) 0.5639(3)
H3Z H 0.3928 0.2211 0.4991
H4Z H 0.3184 0.2196 0.6262
C9Z C 0.3729(4) 0.2827(3) 0.5734(4)
C10Z C 0.4060(7) 0.3026(7) 0.5354(7)
C11Z C 0.3267(6) 0.3132(4) 0.5686(6)
C12Z C 0.3918(6) 0.2904(5) 0.6239(6)
H5Z H 0.3931 0.2946 0.5028
H6Z H 0.4388 0.2881 0.5392
H7Z H 0.4083 0.3384 0.5390
H8Z H 0.3139 0.3104 0.5351
H9Z H 0.3344 0.3476 0.5757
H10Z H 0.3020 0.3013 0.5919
H11Z H 0.3667 0.2805 0.6478
H12Z H 0.3996 0.3252 0.6286
H13Z H 0.4215 0.2707 0.6288
O1F O 0.0796(3) -0.1127(4) 0.4717(3)
C1F C 0.0673(4) -0.1442(4) 0.4991(4)
O2F O 0.0460(4) -0.1854(4) 0.4801(3)
C2F C 0.0616(6) -0.1359(5) 0.5502(4)
O3F O 0.0436(2) -0.1756(2) 0.57997(19)
H1F H 0.0390 -0.1077 0.5544
H2F H 0.0939 -0.1258 0.5635
C3F C 0.0496(3) -0.1657(2) 0.6291(3)
C4F C 0.0142(3) -0.1372(3) 0.6545(3)
C5F C 0.0904(3) -0.1823(3) 0.6542(3)
S1F S -0.03729(9) -0.11080(7) 0.62648(9)
C6F C 0.0230(3) -0.1260(3) 0.7041(3)
C7F C 0.0977(3) -0.1699(3) 0.7032(3)
C8F C 0.0639(3) -0.1404(3) 0.7294(3)
H3F H -0.0009 -0.1072 0.7211
H4F H 0.1262 -0.1816 0.7196
C9F C 0.0734(4) -0.1271(4) 0.7827(3)
C10F C 0.0354(7) -0.0940(7) 0.8026(7)
C11F C 0.0686(6) -0.1733(6) 0.8132(4)
C12F C 0.1239(6) -0.1082(6) 0.7904(5)
H5F H 0.0028 -0.1069 0.7946
H6F H 0.0392 -0.0612 0.7881
H7F H 0.0390 -0.0917 0.8384
H8F H 0.0351 -0.1861 0.8104
H9F H 0.0757 -0.1656 0.8476
H10F H 0.0919 -0.1980 0.8013
H11F H 0.1478 -0.1333 0.7805
H12F H 0.1286 -0.1004 0.8252
H13F H 0.1288 -0.0785 0.7707
O4F O 0.0879(6) -0.1681(4) 0.3729(5)
O1S O -0.1373(4) -0.1704(3) 0.7783(3)
C1S C -0.1058(4) -0.1827(4) 0.7509(4)
O2S O -0.0646(4) -0.2040(4) 0.7699(3)
C2S C -0.1141(5) -0.1884(6) 0.6998(4)
O3S O -0.0744(2) -0.2064(2) 0.67003(19)
H1S H -0.1423 -0.2110 0.6956
H2S H -0.1242 -0.1561 0.6865
C3S C -0.0843(2) -0.2004(3) 0.6209(3)
C4S C -0.1128(3) -0.2358(3) 0.5955(3)
C5S C -0.0677(3) -0.1596(3) 0.5958(3)
S1S S -0.13920(7) -0.28729(9) 0.62352(9)
C6S C -0.1240(3) -0.2270(3) 0.5459(3)
C7S C -0.0801(3) -0.1523(3) 0.5468(3)
C8S C -0.1096(3) -0.1861(3) 0.5206(3)
H3S H -0.1428 -0.2509 0.5289
H4S H -0.0684 -0.1238 0.5304
C9S C -0.1229(4) -0.1766(4) 0.4673(3)
C10S C -0.1560(7) -0.2146(7) 0.4474(7)
C11S C -0.0767(6) -0.1814(6) 0.4368(4)
C12S C -0.1418(6) -0.1261(6) 0.4596(5)
H5S H -0.1431 -0.2472 0.4554
H6S H -0.1888 -0.2108 0.4619
H7S H -0.1583 -0.2110 0.4116
H8S H -0.0639 -0.2149 0.4396
H9S H -0.0844 -0.1743 0.4024
H10S H -0.0520 -0.1581 0.4487
H11S H -0.1167 -0.1022 0.4695
H12S H -0.1496 -0.1214 0.4248
H13S H -0.1715 -0.1212 0.4793
O1OA O 0.1373(4) -0.3296(3) 0.7783(3)
C1OA C 0.1058(4) -0.3173(4) 0.7509(4)
O2OA O 0.0646(4) -0.2960(4) 0.7699(3)
C2OA C 0.1141(5) -0.3116(6) 0.6998(4)
O3OA O 0.0744(2) -0.2936(2) 0.67003(19)
H1OA H 0.1423 -0.2890 0.6956
H2OA H 0.1242 -0.3439 0.6865
C3OA C 0.0843(2) -0.2996(3) 0.6209(3)
C4OA C 0.1128(3) -0.2642(3) 0.5955(3)
C5OA C 0.0677(3) -0.3404(3) 0.5958(3)
S1OA S 0.13920(7) -0.21271(9) 0.62352(9)
C6OA C 0.1240(3) -0.2730(3) 0.5459(3)
C7OA C 0.0801(3) -0.3477(3) 0.5468(3)
C8OA C 0.1096(3) -0.3139(3) 0.5206(3)
H3OA H 0.1428 -0.2491 0.5289
H4OA H 0.0684 -0.3762 0.5304
C9OA C 0.1229(4) -0.3234(4) 0.4673(3)
C10OA C 0.1560(7) -0.2854(7) 0.4474(7)
C11OA C 0.0767(6) -0.3186(6) 0.4368(4)
C12OA C 0.1418(6) -0.3739(6) 0.4596(5)
H5OA H 0.1431 -0.2528 0.4554
H6OA H 0.1888 -0.2892 0.4619
H7OA H 0.1583 -0.2890 0.4116
H8OA H 0.0639 -0.2851 0.4396
H9OA H 0.0844 -0.3257 0.4024
H10OA H 0.0520 -0.3419 0.4487
H11OA H 0.1167 -0.3978 0.4695
H12OA H 0.1496 -0.3786 0.4248
H13OA H 0.1715 -0.3788 0.4793
O1BA O -0.0796(3) -0.3873(4) 0.4717(3)
C1BA C -0.0673(4) -0.3558(4) 0.4991(4)
O2BA O -0.0460(4) -0.3146(4) 0.4801(3)
C2BA C -0.0616(6) -0.3641(5) 0.5502(4)
O3BA O -0.0436(2) -0.3244(2) 0.57997(19)
H1BA H -0.0390 -0.3923 0.5544
H2BA H -0.0939 -0.3742 0.5635
C3BA C -0.0496(3) -0.3343(2) 0.6291(3)
C4BA C -0.0142(3) -0.3628(3) 0.6545(3)
C5BA C -0.0904(3) -0.3177(3) 0.6542(3)
S1BA S 0.03729(9) -0.38920(7) 0.62648(9)
C6BA C -0.0230(3) -0.3740(3) 0.7041(3)
C7BA C -0.0977(3) -0.3301(3) 0.7032(3)
C8BA C -0.0639(3) -0.3596(3) 0.7294(3)
H3BA H 0.0009 -0.3928 0.7211
H4BA H -0.1262 -0.3184 0.7196
C9BA C -0.0734(4) -0.3729(4) 0.7827(3)
C10BA C -0.0354(7) -0.4060(7) 0.8026(7)
C11BA C -0.0686(6) -0.3267(6) 0.8132(4)
C12BA C -0.1239(6) -0.3918(6) 0.7904(5)
H5BA H -0.0028 -0.3931 0.7946
H6BA H -0.0392 -0.4388 0.7881
H7BA H -0.0390 -0.4083 0.8384
H8BA H -0.0351 -0.3139 0.8104
H9BA H -0.0757 -0.3344 0.8476
H10BA H -0.0919 -0.3020 0.8013
H11BA H -0.1478 -0.3667 0.7805
H12BA H -0.1286 -0.3996 0.8252
H13BA H -0.1288 -0.4215 0.7707
O1I O 0.0283(3) -0.0796(3) 0.3873(4)
C1I C 0.0009(4) -0.0673(4) 0.3558(4)
O2I O 0.0199(3) -0.0460(4) 0.3146(4)
C2I C -0.0502(4) -0.0616(6) 0.3641(5)
O3I O -0.07997(19) -0.0436(2) 0.3244(2)
H1I H -0.0544 -0.0390 0.3923
H2I H -0.0635 -0.0939 0.3742
C3I C -0.1291(3) -0.0496(3) 0.3343(2)
C4I C -0.1545(3) -0.0142(3) 0.3628(3)
C5I C -0.1542(3) -0.0904(3) 0.3177(3)
S1I S -0.12648(9) 0.03729(9) 0.38920(7)
C6I C -0.2041(3) -0.0230(3) 0.3740(3)
C7I C -0.2032(3) -0.0977(3) 0.3301(3)
C8I C -0.2294(3) -0.0639(3) 0.3596(3)
H3I H -0.2211 0.0009 0.3928
H4I H -0.2196 -0.1262 0.3184
C9I C -0.2827(3) -0.0734(4) 0.3729(4)
C10I C -0.3026(7) -0.0354(7) 0.4060(7)
C11I C -0.3132(4) -0.0686(6) 0.3267(6)
C12I C -0.2904(5) -0.1239(6) 0.3918(6)
H5I H -0.2946 -0.0028 0.3931
H6I H -0.2881 -0.0392 0.4388
H7I H -0.3384 -0.0390 0.4083
H8I H -0.3104 -0.0351 0.3139
H9I H -0.3476 -0.0757 0.3344
H10I H -0.3013 -0.0919 0.3020
H11I H -0.2805 -0.1478 0.3667
H12I H -0.3252 -0.1286 0.3996
H13I H -0.2707 -0.1288 0.4215
O4I O 0.1271(5) -0.0879(6) 0.3319(4)
O1N O -0.2783(3) 0.1373(4) 0.3296(3)
C1N C -0.2509(4) 0.1058(4) 0.3173(4)
O2N O -0.2699(3) 0.0646(4) 0.2960(4)
C2N C -0.1998(4) 0.1141(5) 0.3116(6)
O3N O -0.17003(19) 0.0744(2) 0.2936(2)
H1N H -0.1956 0.1423 0.2890
H2N H -0.1865 0.1242 0.3439
C3N C -0.1209(3) 0.0843(2) 0.2996(3)
C4N C -0.0955(3) 0.1128(3) 0.2642(3)
C5N C -0.0958(3) 0.0677(3) 0.3404(3)
S1N S -0.12352(9) 0.13920(7) 0.21271(9)
C6N C -0.0459(3) 0.1240(3) 0.2730(3)
C7N C -0.0468(3) 0.0801(3) 0.3477(3)
C8N C -0.0206(3) 0.1096(3) 0.3139(3)
H3N H -0.0289 0.1428 0.2491
H4N H -0.0304 0.0684 0.3762
C9N C 0.0327(3) 0.1229(4) 0.3234(4)
C10N C 0.0526(7) 0.1560(7) 0.2854(7)
C11N C 0.0632(4) 0.0767(6) 0.3186(6)
C12N C 0.0404(5) 0.1418(6) 0.3739(6)
H5N H 0.0446 0.1431 0.2528
H6N H 0.0381 0.1888 0.2892
H7N H 0.0884 0.1583 0.2890
H8N H 0.0604 0.0639 0.2851
H9N H 0.0976 0.0844 0.3257
H10N H 0.0513 0.0520 0.3419
H11N H 0.0305 0.1167 0.3978
H12N H 0.0752 0.1496 0.3786
H13N H 0.0207 0.1715 0.3788
O1JA O -0.2783(3) -0.1373(4) 0.1704(3)
C1JA C -0.2509(4) -0.1058(4) 0.1827(4)
O2JA O -0.2699(3) -0.0646(4) 0.2040(4)
C2JA C -0.1998(4) -0.1141(5) 0.1884(6)
O3JA O -0.17003(19) -0.0744(2) 0.2064(2)
H1JA H -0.1956 -0.1423 0.2110
H2JA H -0.1865 -0.1242 0.1561
C3JA C -0.1209(3) -0.0843(2) 0.2004(3)
C4JA C -0.0955(3) -0.1128(3) 0.2358(3)
C5JA C -0.0958(3) -0.0677(3) 0.1596(3)
S1JA S -0.12352(9) -0.13920(7) 0.28729(9)
C6JA C -0.0459(3) -0.1240(3) 0.2270(3)
C7JA C -0.0468(3) -0.0801(3) 0.1523(3)
C8JA C -0.0206(3) -0.1096(3) 0.1861(3)
H3JA H -0.0289 -0.1428 0.2509
H4JA H -0.0304 -0.0684 0.1238
C9JA C 0.0327(3) -0.1229(4) 0.1766(4)
C10JA C 0.0526(7) -0.1560(7) 0.2146(7)
C11JA C 0.0632(4) -0.0767(6) 0.1814(6)
C12JA C 0.0404(5) -0.1418(6) 0.1261(6)
H5JA H 0.0446 -0.1431 0.2472
H6JA H 0.0381 -0.1888 0.2108
H7JA H 0.0884 -0.1583 0.2110
H8JA H 0.0604 -0.0639 0.2149
H9JA H 0.0976 -0.0844 0.1743
H10JA H 0.0513 -0.0520 0.1581
H11JA H 0.0305 -0.1167 0.1022
H12JA H 0.0752 -0.1496 0.1214
H13JA H 0.0207 -0.1715 0.1212
O1IA O 0.0283(3) 0.0796(3) 0.1127(4)
C1IA C 0.0009(4) 0.0673(4) 0.1442(4)
O2IA O 0.0199(3) 0.0460(4) 0.1854(4)
C2IA C -0.0502(4) 0.0616(6) 0.1359(5)
O3IA O -0.07997(19) 0.0436(2) 0.1756(2)
H1IA H -0.0544 0.0390 0.1077
H2IA H -0.0635 0.0939 0.1258
C3IA C -0.1291(3) 0.0496(3) 0.1657(2)
C4IA C -0.1545(3) 0.0142(3) 0.1372(3)
C5IA C -0.1542(3) 0.0904(3) 0.1823(3)
S1IA S -0.12648(9) -0.03729(9) 0.11080(7)
C6IA C -0.2041(3) 0.0230(3) 0.1260(3)
C7IA C -0.2032(3) 0.0977(3) 0.1699(3)
C8IA C -0.2294(3) 0.0639(3) 0.1404(3)
H3IA H -0.2211 -0.0009 0.1072
H4IA H -0.2196 0.1262 0.1816
C9IA C -0.2827(3) 0.0734(4) 0.1271(4)
C10IA C -0.3026(7) 0.0354(7) 0.0940(7)
C11IA C -0.3132(4) 0.0686(6) 0.1733(6)
C12IA C -0.2904(5) 0.1239(6) 0.1082(6)
H5IA H -0.2946 0.0028 0.1069
H6IA H -0.2881 0.0392 0.0612
H7IA H -0.3384 0.0390 0.0917
H8IA H -0.3104 0.0351 0.1861
H9IA H -0.3476 0.0757 0.1656
H10IA H -0.3013 0.0919 0.1980
H11IA H -0.2805 0.1478 0.1333
H12IA H -0.3252 0.1286 0.1004
H13IA H -0.2707 0.1288 0.0785
Co1N Co -0.34832(6) 0.15168(6) 0.34832(6)
O4N O -0.3771(5) 0.0819(4) 0.3379(6)
Co1L Co 0.15168(6) 0.34832(6) 0.65168(6)
O4R O 0.0819(4) 0.3379(6) 0.6229(5)
O4U O 0.1621(6) 0.3771(5) 0.5819(4)
Co1Z Co 0.40168(6) -0.09832(6) 0.59832(6)
O4Z O 0.3319(4) -0.1271(5) 0.5879(6)
O4T O -0.3379(6) 0.1229(5) 0.4181(4)
O4Q O -0.4181(4) 0.1621(6) 0.3771(5)
O4L O 0.1229(5) 0.4181(4) 0.6621(6)
O4CA O 0.4121(6) -0.1681(4) 0.6271(5)
O4FA O 0.3729(5) -0.0879(6) 0.6681(4)
Co1O Co -0.15168(6) -0.15168(6) 0.84832(6)
Co1Y Co -0.09832(6) -0.40168(6) 0.40168(6)
Co1AA Co 0.09832(6) 0.09832(6) 0.09832(6)
Co1JA Co -0.34832(6) -0.15168(6) 0.15168(6)
Co1LA Co 0.15168(6) -0.34832(6) 0.84832(6)
Co1MA Co 0.34832(6) 0.34832(6) 0.34832(6)
O1L O 0.2217(3) 0.3627(4) 0.6704(3)
O1Q O -0.3627(4) 0.1704(3) 0.2783(3)
O1R O 0.1373(4) 0.3296(3) 0.7217(3)
O1T O -0.3296(3) 0.2217(3) 0.3627(4)
O1CA O 0.4204(3) -0.1127(4) 0.5283(3)
O1FA O 0.4717(3) -0.0796(3) 0.6127(4)
O6? O 0.1681(4) -0.1271(5) 0.4121(6)
C13? C 0.1827(7) -0.1358(10) 0.4506(7)
N1? N 0.2231(5) -0.1679(7) 0.4563(4)
H14? H 0.1676 -0.1216 0.4786
C14? C 0.2396(12) -0.1973(13) 0.4167(6)
C15? C 0.2500 -0.1670(10) 0.5000
H15? H 0.2161 -0.1952 0.3895
H16? H 0.2423 -0.2315 0.4275
H17? H 0.2718 -0.1856 0.4057
H18? H 0.2749 -0.1929 0.4993
H19? H 0.2278 -0.1724 0.5278
H20? H 0.2661 -0.1350 0.5035
loop_
_geom_bond_atom_site_label_1
_geom_bond_atom_site_label_2
_geom_bond_site_symmetry_1
_geom_bond_site_symmetry_2
Co1 O1 1_555 1_555
O1 C1 1_555 1_555
C1 O2 1_555 1_555
C2 C1 1_555 1_555
O3 C2 1_555 1_555
H1 C2 1_555 1_555
H2 C2 1_555 1_555
C3 O3 1_555 1_555
C4 C3 1_555 1_555
C5 C3 1_555 1_555
S1 C4 1_555 1_555
C6 C4 1_555 1_555
C7 C5 1_555 1_555
C8 C6 1_555 1_555
H3 C6 1_555 1_555
H4 C7 1_555 1_555
C9 C8 1_555 1_555
C10 C9 1_555 1_555
C11 C9 1_555 1_555
C12 C9 1_555 1_555
H5 C10 1_555 1_555
H6 C10 1_555 1_555
H7 C10 1_555 1_555
H8 C11 1_555 1_555
H9 C11 1_555 1_555
H10 C11 1_555 1_555
H11 C12 1_555 1_555
H12 C12 1_555 1_555
H13 C12 1_555 1_555
O4 Co1 1_555 1_555
O1U C1U 1_555 1_555
C1U O2U 1_555 1_555
C2U C1U 1_555 1_555
O3U C2U 1_555 1_555
H1U C2U 1_555 1_555
H2U C2U 1_555 1_555
C3U O3U 1_555 1_555
C4U C3U 1_555 1_555
C5U S1 1_555 1_555
S1U C4U 1_555 1_555
C6U C4U 1_555 1_555
C7U C5U 1_555 1_555
C8U C6U 1_555 1_555
H3U C6U 1_555 1_555
H4U C7U 1_555 1_555
C9U C8U 1_555 1_555
C10U C9U 1_555 1_555
C11U C9U 1_555 1_555
C12U C9U 1_555 1_555
H5U C10U 1_555 1_555
H6U C10U 1_555 1_555
H7U C10U 1_555 1_555
H8U C11U 1_555 1_555
H9U C11U 1_555 1_555
H10U C11U 1_555 1_555
H11U C12U 1_555 1_555
H12U C12U 1_555 1_555
H13U C12U 1_555 1_555
O1UA C1UA 1_555 1_555
C1UA O2UA 1_555 1_555
C2UA C1UA 1_555 1_555
O3UA C2UA 1_555 1_555
H1UA C2UA 1_555 1_555
H2UA C2UA 1_555 1_555
C3UA O3UA 1_555 1_555
C4UA C3UA 1_555 1_555
C5UA C3UA 1_555 1_555
S1UA C5 1_555 1_555
C6UA C4UA 1_555 1_555
C7UA C5UA 1_555 1_555
C8UA C6UA 1_555 1_555
H3UA C6UA 1_555 1_555
H4UA C7UA 1_555 1_555
C9UA C8UA 1_555 1_555
C10UA C9UA 1_555 1_555
C11UA C9UA 1_555 1_555
C12UA C9UA 1_555 1_555
H5UA C10UA 1_555 1_555
H6UA C10UA 1_555 1_555
H7UA C10UA 1_555 1_555
H8UA C11UA 1_555 1_555
H9UA C11UA 1_555 1_555
H10UA C11UA 1_555 1_555
H11UA C12UA 1_555 1_555
H12UA C12UA 1_555 1_555
H13UA C12UA 1_555 1_555
O1Z C1Z 1_555 1_555
C1Z O2Z 1_555 1_555
C2Z C1Z 1_555 1_555
O3Z C2Z 1_555 1_555
H1Z C2Z 1_555 1_555
H2Z C2Z 1_555 1_555
C3Z O3Z 1_555 1_555
C4Z C3Z 1_555 1_555
C5Z S1U 1_555 1_555
S1Z C5UA 1_555 1_555
C6Z C4Z 1_555 1_555
C7Z C5Z 1_555 1_555
C8Z C6Z 1_555 1_555
H3Z C6Z 1_555 1_555
H4Z C7Z 1_555 1_555
C9Z C8Z 1_555 1_555
C10Z C9Z 1_555 1_555
C11Z C9Z 1_555 1_555
C12Z C9Z 1_555 1_555
H5Z C10Z 1_555 1_555
H6Z C10Z 1_555 1_555
H7Z C10Z 1_555 1_555
H8Z C11Z 1_555 1_555
H9Z C11Z 1_555 1_555
H10Z C11Z 1_555 1_555
H11Z C12Z 1_555 1_555
H12Z C12Z 1_555 1_555
H13Z C12Z 1_555 1_555
O1F Co1 1_555 1_555
C1F O1F 1_555 1_555
O2F C1F 1_555 1_555
C2F C1F 1_555 1_555
O3F C2F 1_555 1_555
H1F C2F 1_555 1_555
H2F C2F 1_555 1_555
C3F O3F 1_555 1_555
C4F C3F 1_555 1_555
C5F C3F 1_555 1_555
S1F C4F 1_555 1_555
C6F C4F 1_555 1_555
C7F C5F 1_555 1_555
C8F C6F 1_555 1_555
H3F C6F 1_555 1_555
H4F C7F 1_555 1_555
C9F C8F 1_555 1_555
C10F C9F 1_555 1_555
C11F C9F 1_555 1_555
C12F C9F 1_555 1_555
H5F C10F 1_555 1_555
H6F C10F 1_555 1_555
H7F C10F 1_555 1_555
H8F C11F 1_555 1_555
H9F C11F 1_555 1_555
H10F C11F 1_555 1_555
H11F C12F 1_555 1_555
H12F C12F 1_555 1_555
H13F C12F 1_555 1_555
O4F Co1 1_555 1_555
O1S C1S 1_555 1_555
C1S O2S 1_555 1_555
C2S C1S 1_555 1_555
O3S C2S 1_555 1_555
H1S C2S 1_555 1_555
H2S C2S 1_555 1_555
C3S O3S 1_555 1_555
C4S C3S 1_555 1_555
C5S S1F 1_555 1_555
S1S C4S 1_555 1_555
C6S C4S 1_555 1_555
C7S C5S 1_555 1_555
C8S C6S 1_555 1_555
H3S C6S 1_555 1_555
H4S C7S 1_555 1_555
C9S C8S 1_555 1_555
C10S C9S 1_555 1_555
C11S C9S 1_555 1_555
C12S C9S 1_555 1_555
H5S C10S 1_555 1_555
H6S C10S 1_555 1_555
H7S C10S 1_555 1_555
H8S C11S 1_555 1_555
H9S C11S 1_555 1_555
H10S C11S 1_555 1_555
H11S C12S 1_555 1_555
H12S C12S 1_555 1_555
H13S C12S 1_555 1_555
O1OA C1OA 1_555 1_555
C1OA O2OA 1_555 1_555
C2OA C1OA 1_555 1_555
O3OA C2OA 1_555 1_555
H1OA C2OA 1_555 1_555
H2OA C2OA 1_555 1_555
C3OA O3OA 1_555 1_555
C4OA C3OA 1_555 1_555
C5OA C3OA 1_555 1_555
S1OA C5F 1_555 1_555
C6OA C4OA 1_555 1_555
C7OA C5OA 1_555 1_555
C8OA C6OA 1_555 1_555
H3OA C6OA 1_555 1_555
H4OA C7OA 1_555 1_555
C9OA C8OA 1_555 1_555
C10OA C9OA 1_555 1_555
C11OA C9OA 1_555 1_555
C12OA C9OA 1_555 1_555
H5OA C10OA 1_555 1_555
H6OA C10OA 1_555 1_555
H7OA C10OA 1_555 1_555
H8OA C11OA 1_555 1_555
H9OA C11OA 1_555 1_555
H10OA C11OA 1_555 1_555
H11OA C12OA 1_555 1_555
H12OA C12OA 1_555 1_555
H13OA C12OA 1_555 1_555
O1BA C1BA 1_555 1_555
C1BA O2BA 1_555 1_555
C2BA C1BA 1_555 1_555
O3BA C2BA 1_555 1_555
H1BA C2BA 1_555 1_555
H2BA C2BA 1_555 1_555
C3BA O3BA 1_555 1_555
C4BA C3BA 1_555 1_555
C5BA S1S 1_555 1_555
S1BA C5OA 1_555 1_555
C6BA C4BA 1_555 1_555
C7BA C5BA 1_555 1_555
C8BA C6BA 1_555 1_555
H3BA C6BA 1_555 1_555
H4BA C7BA 1_555 1_555
C9BA C8BA 1_555 1_555
C10BA C9BA 1_555 1_555
C11BA C9BA 1_555 1_555
C12BA C9BA 1_555 1_555
H5BA C10BA 1_555 1_555
H6BA C10BA 1_555 1_555
H7BA C10BA 1_555 1_555
H8BA C11BA 1_555 1_555
H9BA C11BA 1_555 1_555
H10BA C11BA 1_555 1_555
H11BA C12BA 1_555 1_555
H12BA C12BA 1_555 1_555
H13BA C12BA 1_555 1_555
O1I Co1 1_555 1_555
C1I O1I 1_555 1_555
O2I C1I 1_555 1_555
C2I C1I 1_555 1_555
O3I C2I 1_555 1_555
H1I C2I 1_555 1_555
H2I C2I 1_555 1_555
C3I O3I 1_555 1_555
C4I C3I 1_555 1_555
C5I C3I 1_555 1_555
S1I C4I 1_555 1_555
C6I C4I 1_555 1_555
C7I C5I 1_555 1_555
C8I C6I 1_555 1_555
H3I C6I 1_555 1_555
H4I C7I 1_555 1_555
C9I C8I 1_555 1_555
C10I C9I 1_555 1_555
C11I C9I 1_555 1_555
C12I C9I 1_555 1_555
H5I C10I 1_555 1_555
H6I C10I 1_555 1_555
H7I C10I 1_555 1_555
H8I C11I 1_555 1_555
H9I C11I 1_555 1_555
H10I C11I 1_555 1_555
H11I C12I 1_555 1_555
H12I C12I 1_555 1_555
H13I C12I 1_555 1_555
O4I Co1 1_555 1_555
O1N C1N 1_555 1_555
C1N O2N 1_555 1_555
C2N C1N 1_555 1_555
O3N C2N 1_555 1_555
H1N C2N 1_555 1_555
H2N C2N 1_555 1_555
C3N O3N 1_555 1_555
C4N C3N 1_555 1_555
C5N S1I 1_555 1_555
S1N C4N 1_555 1_555
C6N C4N 1_555 1_555
C7N C5N 1_555 1_555
C8N C6N 1_555 1_555
H3N C6N 1_555 1_555
H4N C7N 1_555 1_555
C9N C8N 1_555 1_555
C10N C9N 1_555 1_555
C11N C9N 1_555 1_555
C12N C9N 1_555 1_555
H5N C10N 1_555 1_555
H6N C10N 1_555 1_555
H7N C10N 1_555 1_555
H8N C11N 1_555 1_555
H9N C11N 1_555 1_555
H10N C11N 1_555 1_555
H11N C12N 1_555 1_555
H12N C12N 1_555 1_555
H13N C12N 1_555 1_555
O1JA C1JA 1_555 1_555
C1JA O2JA 1_555 1_555
C2JA C1JA 1_555 1_555
O3JA C2JA 1_555 1_555
H1JA C2JA 1_555 1_555
H2JA C2JA 1_555 1_555
C3JA O3JA 1_555 1_555
C4JA C3JA 1_555 1_555
C5JA C3JA 1_555 1_555
S1JA C5I 1_555 1_555
C6JA C4JA 1_555 1_555
C7JA C5JA 1_555 1_555
C8JA C6JA 1_555 1_555
H3JA C6JA 1_555 1_555
H4JA C7JA 1_555 1_555
C9JA C8JA 1_555 1_555
C10JA C9JA 1_555 1_555
C11JA C9JA 1_555 1_555
C12JA C9JA 1_555 1_555
H5JA C10JA 1_555 1_555
H6JA C10JA 1_555 1_555
H7JA C10JA 1_555 1_555
H8JA C11JA 1_555 1_555
H9JA C11JA 1_555 1_555
H10JA C11JA 1_555 1_555
H11JA C12JA 1_555 1_555
H12JA C12JA 1_555 1_555
H13JA C12JA 1_555 1_555
O1IA C1IA 1_555 1_555
C1IA O2IA 1_555 1_555
C2IA C1IA 1_555 1_555
O3IA C2IA 1_555 1_555
H1IA C2IA 1_555 1_555
H2IA C2IA 1_555 1_555
C3IA O3IA 1_555 1_555
C4IA C3IA 1_555 1_555
C5IA S1N 1_555 1_555
S1IA C5JA 1_555 1_555
C6IA C4IA 1_555 1_555
C7IA C5IA 1_555 1_555
C8IA C6IA 1_555 1_555
H3IA C6IA 1_555 1_555
H4IA C7IA 1_555 1_555
C9IA C8IA 1_555 1_555
C10IA C9IA 1_555 1_555
C11IA C9IA 1_555 1_555
C12IA C9IA 1_555 1_555
H5IA C10IA 1_555 1_555
H6IA C10IA 1_555 1_555
H7IA C10IA 1_555 1_555
H8IA C11IA 1_555 1_555
H9IA C11IA 1_555 1_555
H10IA C11IA 1_555 1_555
H11IA C12IA 1_555 1_555
H12IA C12IA 1_555 1_555
H13IA C12IA 1_555 1_555
Co1N O1N 1_555 1_555
O4N Co1N 1_555 1_555
Co1L O1U 1_555 1_555
O4R Co1L 1_555 1_555
O4U Co1L 1_555 1_555
Co1Z O1Z 1_555 1_555
O4Z Co1Z 1_555 1_555
O4T Co1N 1_555 1_555
O4Q Co1N 1_555 1_555
O4L Co1L 1_555 1_555
O4CA Co1Z 1_555 1_555
O4FA Co1Z 1_555 1_555
Co1O O1S 1_555 1_555
Co1Y O1BA 1_555 1_555
Co1AA O1IA 1_555 1_555
Co1JA O1JA 1_555 1_555
Co1LA O1OA 1_555 1_555
Co1MA O1UA 1_555 1_555
O1L Co1L 1_555 1_555
O1Q Co1N 1_555 1_555
O1R Co1L 1_555 1_555
O1T Co1N 1_555 1_555
O1CA Co1Z 1_555 1_555
O1FA Co1Z 1_555 1_555
C7 C8 1_555 1_555
C3U C5U 1_555 1_555
C7U C8U 1_555 1_555
C4UA S1UA 1_555 1_555
C7UA C8UA 1_555 1_555
C3Z C5Z 1_555 1_555
C4Z S1Z 1_555 1_555
C7Z C8Z 1_555 1_555
C7F C8F 1_555 1_555
C3S C5S 1_555 1_555
C7S C8S 1_555 1_555
C4OA S1OA 1_555 1_555
C7OA C8OA 1_555 1_555
C3BA C5BA 1_555 1_555
C4BA S1BA 1_555 1_555
C7BA C8BA 1_555 1_555
C7I C8I 1_555 1_555
C3N C5N 1_555 1_555
C7N C8N 1_555 1_555
C4JA S1JA 1_555 1_555
C7JA C8JA 1_555 1_555
C3IA C5IA 1_555 1_555
C4IA S1IA 1_555 1_555
C7IA C8IA 1_555 1_555

#END
