
#######################################################################
#
#                 Cambridge Crystallographic Data Centre
#                                CCDC 
#
#######################################################################
#
# If this CIF has been generated from an entry in the Cambridge 
# Structural Database, then it will include bibliographic, chemical, 
# crystal, experimental, refinement or atomic coordinate data resulting 
# from the CCDC's data processing and validation procedures.
#
#######################################################################

data_QIVSOE
_symmetry_cell_setting           triclinic
_symmetry_space_group_name_H-M   'P -1'
_symmetry_Int_Tables_number      2
_space_group_name_Hall           '-P 1'
loop_
_symmetry_equiv_pos_site_id
_symmetry_equiv_pos_as_xyz
1 x,y,z
2 -x,-y,-z
_cell_length_a                   7.8950(6)
_cell_length_b                   8.2810(6)
_cell_length_c                   11.5780(9)
_cell_angle_alpha                106.6210(10)
_cell_angle_beta                 102.2690(10)
_cell_angle_gamma                103.6300(10)
_cell_volume                     672.302
loop_
_atom_site_label
_atom_site_type_symbol
_atom_site_fract_x
_atom_site_fract_y
_atom_site_fract_z
Pb1 Pb 1.38569(3) 1.22151(3) 0.43804(2)
S1 S 1.7388(2) 1.2269(2) 0.67704(15)
O1 O 1.6421(7) 1.3540(7) 0.7024(5)
O2 O 1.7148(6) 1.1428(7) 0.5433(4)
O3 O 1.6973(6) 1.0940(7) 0.7363(4)
O4 O 2.3257(6) 1.5099(7) 0.5464(4)
O5 O 2.5213(6) 1.7090(7) 0.7268(5)
N1 N 1.0741(8) 1.1640(8) 0.2937(5)
C1 C 0.9314(10) 1.0911(11) 0.3264(7)
H1 H 0.9532 1.0802 0.4055
C2 C 0.7556(9) 1.0315(11) 0.2511(6)
H2 H 0.6611 0.9815 0.2790
C3 C 0.7174(10) 1.0460(10) 0.1317(6)
C4 C 0.8676(9) 1.1204(11) 0.0977(7)
H3 H 0.8504 1.1322 0.0189
C5 C 1.0396(10) 1.1761(12) 0.1788(7)
H4 H 1.1374 1.2248 0.1533
C6 C 0.5284(9) 0.9900(10) 0.0551(6)
H5 H 0.4397 0.9355 0.0855
C7 C 2.3776(8) 1.5783(9) 0.6657(6)
C8 C 2.2629(8) 1.5062(8) 0.7383(6)
C9 C 2.0812(9) 1.4114(9) 0.6797(6)
H6 H 2.0287 1.3925 0.5951
C10 C 1.9760(9) 1.3438(9) 0.7482(6)
C11 C 2.0541(10) 1.3752(10) 0.8752(6)
H7 H 1.9843 1.3299 0.9210
C12 C 2.2364(10) 1.4744(11) 0.9331(7)
H8 H 2.2892 1.4974 1.0183
C13 C 2.3395(10) 1.5390(10) 0.8644(7)
H9 H 2.4621 1.6055 0.9036
Pb1A Pb 1.61431(3) 0.77849(3) 0.56196(2)
Pb1_2 Pb 2.38569(3) 1.22151(3) 0.43804(2)
Pb1A_2 Pb 2.61431(3) 1.77849(3) 0.56196(2)
Pb1A_3 Pb -0.38569(3) 0.77849(3) -0.43804(2)
Pb1_3 Pb 0.38569(3) 0.22151(3) 0.43804(2)
Pb1A_4 Pb 0.61431(3) 0.77849(3) 0.56196(2)
S1A S 1.2612(2) 0.7731(2) 0.32296(15)
O1A O 1.3579(7) 0.6460(7) 0.2976(5)
O2A O 1.2852(6) 0.8572(7) 0.4567(4)
O3A O 1.3027(6) 0.9060(7) 0.2637(4)
O4A O 0.6743(6) 0.4901(7) 0.4536(4)
O4_2 O 1.3257(6) 1.5099(7) 0.5464(4)
O4A_2 O 1.6743(6) 1.4901(7) 0.4536(4)
O4_3 O 1.3257(6) 0.5099(7) 0.5464(4)
O4A_3 O 1.6743(6) 0.4901(7) 0.4536(4)
O5A O 0.4787(6) 0.2910(7) 0.2732(5)
O5A_2 O 1.4787(6) 1.2910(7) 0.2732(5)
O5_2 O 1.5213(6) 0.7090(7) 0.7268(5)
N1A N -0.0741(8) 0.8360(8) -0.2937(5)
N1A_2 N 1.9259(8) 0.8360(8) 0.7063(5)
C1A C 0.0686(10) 0.9089(11) -0.3264(7)
H1A H 0.0468 0.9198 -0.4055
C2A C 0.2444(9) 0.9685(11) -0.2511(6)
H2A H 0.3389 1.0185 -0.2790
C3A C 0.2826(10) 0.9540(10) -0.1317(6)
C4A C 0.1324(9) 0.8796(11) -0.0977(7)
H3A H 0.1496 0.8678 -0.0189
C5A C -0.0396(10) 0.8239(12) -0.1788(7)
H4A H -0.1374 0.7752 -0.1533
C6A C 0.4716(9) 1.0100(10) -0.0551(6)
H5A H 0.5603 1.0645 -0.0855
C7A C 0.6224(8) 0.4217(9) 0.3343(6)
C8A C 0.7371(8) 0.4938(8) 0.2617(6)
C9A C 0.9188(9) 0.5886(9) 0.3203(6)
H6A H 0.9713 0.6075 0.4049
C10A C 1.0240(9) 0.6562(9) 0.2518(6)
C11A C 0.9459(10) 0.6248(10) 0.1248(6)
H7A H 1.0157 0.6701 0.0790
C12A C 0.7636(10) 0.5256(11) 0.0669(7)
H8A H 0.7108 0.5026 -0.0183
C13A C 0.6605(10) 0.4610(10) 0.1356(7)
H9A H 0.5379 0.3945 0.0964
loop_
_geom_bond_atom_site_label_1
_geom_bond_atom_site_label_2
_geom_bond_site_symmetry_1
_geom_bond_site_symmetry_2
Pb1 O1 1_555 1_555
S1 O1 1_555 1_555
O2 Pb1 1_555 1_555
O3 S1 1_555 1_555
O4 C7 1_555 1_555
O5 C7 1_555 1_555
N1 Pb1 1_555 1_555
C1 N1 1_555 1_555
H1 C1 1_555 1_555
C2 C1 1_555 1_555
H2 C2 1_555 1_555
C3 C2 1_555 1_555
C4 C3 1_555 1_555
H3 C4 1_555 1_555
C5 N1 1_555 1_555
H4 C5 1_555 1_555
C6 C3 1_555 1_555
H5 C6 1_555 1_555
C7 C8 1_555 1_555
C8 C9 1_555 1_555
C9 H6 1_555 1_555
C10 S1 1_555 1_555
C11 C10 1_555 1_555
H7 C11 1_555 1_555
C12 C11 1_555 1_555
H8 C12 1_555 1_555
C13 C8 1_555 1_555
H9 C13 1_555 1_555
Pb1A O2 1_555 1_555
Pb1_2 O4 1_555 1_555
Pb1A_2 O4 1_555 1_555
Pb1A_3 N1A 1_555 1_555
Pb1_3 O4A 1_555 1_555
Pb1A_4 O4A 1_555 1_555
S1A O1A 1_555 1_555
O1A Pb1A 1_555 1_555
O2A Pb1 1_555 1_555
O3A Pb1 1_555 1_555
O4A C7A 1_555 1_555
O4_2 Pb1 1_555 1_555
O4A_2 Pb1 1_555 1_555
O4_3 Pb1A 1_555 1_555
O4A_3 Pb1A 1_555 1_555
O5A Pb1_3 1_555 1_555
O5A_2 Pb1 1_555 1_555
O5_2 Pb1A 1_555 1_555
N1A C1A 1_555 1_555
N1A_2 Pb1A 1_555 1_555
C1A H1A 1_555 1_555
C2A C1A 1_555 1_555
H2A C2A 1_555 1_555
C3A C2A 1_555 1_555
C4A C3A 1_555 1_555
H3A C4A 1_555 1_555
C5A N1A 1_555 1_555
H4A C5A 1_555 1_555
C6A C6 1_555 1_555
H5A C6A 1_555 1_555
C7A O5A 1_555 1_555
C8A C7A 1_555 1_555
C9A C8A 1_555 1_555
H6A C9A 1_555 1_555
C10A S1A 1_555 1_555
C11A C10A 1_555 1_555
H7A C11A 1_555 1_555
C12A C11A 1_555 1_555
H8A C12A 1_555 1_555
C13A C8A 1_555 1_555
H9A C13A 1_555 1_555
S1 O2 1_555 1_555
O3 Pb1A 1_555 1_555
O5 Pb1A_2 1_555 1_555
C4 C5 1_555 1_555
C9 C10 1_555 1_555
C12 C13 1_555 1_555
Pb1A O2A 1_555 1_555
S1A O2A 1_555 1_555
S1A O3A 1_555 1_555
C3A C6A 1_555 1_555
C4A C5A 1_555 1_555
C9A C10A 1_555 1_555
C12A C13A 1_555 1_555

#END
