
#######################################################################
#
#                 Cambridge Crystallographic Data Centre
#                                CCDC 
#
#######################################################################
#
# If this CIF has been generated from an entry in the Cambridge 
# Structural Database, then it will include bibliographic, chemical, 
# crystal, experimental, refinement or atomic coordinate data resulting 
# from the CCDC's data processing and validation procedures.
#
#######################################################################

data_QIVSAQ
_symmetry_cell_setting           triclinic
_symmetry_space_group_name_H-M   'P -1'
_symmetry_Int_Tables_number      2
_space_group_name_Hall           '-P 1'
loop_
_symmetry_equiv_pos_site_id
_symmetry_equiv_pos_as_xyz
1 x,y,z
2 -x,-y,-z
_cell_length_a                   8.981(2)
_cell_length_b                   9.002(2)
_cell_length_c                   16.208(3)
_cell_angle_alpha                105.73(3)
_cell_angle_beta                 90.62(3)
_cell_angle_gamma                119.38(3)
_cell_volume                     1082.79
loop_
_atom_site_label
_atom_site_type_symbol
_atom_site_fract_x
_atom_site_fract_y
_atom_site_fract_z
Cu1 Cu 0.0000 0.0000 0.0000
N1 N 0.3583(3) 0.5136(3) 0.14623(14)
C1 C 0.3979(4) 0.6607(4) 0.1230(2)
H1 H 0.4789 0.7761 0.1621
C2 C 0.3247(5) 0.6485(4) 0.0446(2)
H2 H 0.3510 0.7526 0.0295
C3 C 0.2105(4) 0.4765(4) -0.0113(2)
H3 H 0.1631 0.4632 -0.0673
N2 N 0.1651(3) 0.3300(3) 0.01080(15)
C4 C 0.2373(3) 0.3529(4) 0.09010(17)
N3 N 0.1712(3) 0.1911(3) 0.10704(14)
C5 C 0.1924(3) 0.1741(4) 0.18507(18)
O1 O 0.2846(2) 0.3011(2) 0.25407(12)
C6 C 0.0971(4) -0.0137(4) 0.1907(2)
H4 H 0.1161 -0.0093 0.2512
H5 H 0.1404 -0.0852 0.1541
H6 H -0.0272 -0.0689 0.1705
Cu2 Cu 0.48340(4) 0.53054(4) 0.25501(2)
N4 N 0.6027(3) 0.5521(3) 0.36776(14)
C7 C 0.5741(3) 0.4021(4) 0.38481(18)
H7 H 0.5018 0.2884 0.3421
C8 C 0.6465(4) 0.4090(4) 0.46206(19)
H8 H 0.6265 0.3032 0.4736
C9 C 0.7506(4) 0.5793(4) 0.52246(19)
H9 H 0.7988 0.5881 0.5773
N5 N 0.7858(3) 0.7304(3) 0.50693(15)
C10 C 0.7106(3) 0.7092(4) 0.42912(18)
N6 N 0.7517(3) 0.8723(3) 0.41584(15)
H10 H 0.7936 0.9666 0.4630
C11 C 0.7350(3) 0.9026(4) 0.33999(18)
O2 O 0.6677(2) 0.7799(2) 0.26827(12)
C12 C 0.8034(4) 1.0932(4) 0.3439(2)
H11 H 0.7099 1.1042 0.3200
H12 H 0.8972 1.1292 0.3097
H13 H 0.8481 1.1711 0.4045
N7 N 0.1867(3) -0.0315(3) -0.05132(17)
C13 C 0.2820(4) -0.0676(4) -0.0851(2)
N8 N 0.4025(4) -0.0863(4) -0.1210(2)
C14 C 0.3926(4) -0.2411(4) -0.15003(19)
N9 N 0.3980(3) -0.3709(3) -0.17665(17)
S1 S 0.26946(9) 0.78986(10) 0.36379(5)
O3 O 0.3472(3) 0.6800(3) 0.35535(13)
O4 O 0.3481(3) 0.9320(3) 0.32605(17)
O5 O 0.2256(3) 0.8352(3) 0.44910(14)
C15 C 0.0546(4) 0.6328(4) 0.2963(2)
F1 F 0.0639(3) 0.5775(3) 0.21268(13)
F2 F -0.0316(3) 0.4888(3) 0.32230(16)
F3 F -0.0416(2) 0.7094(3) 0.30119(14)
N1A N -0.3583(3) -0.5136(3) -0.14623(14)
C1A C -0.3979(4) -0.6607(4) -0.1230(2)
H1A H -0.4789 -0.7761 -0.1621
C2A C -0.3247(5) -0.6485(4) -0.0446(2)
H2A H -0.3510 -0.7526 -0.0295
C3A C -0.2105(4) -0.4765(4) 0.0113(2)
H3A H -0.1631 -0.4632 0.0673
N2A N -0.1651(3) -0.3300(3) -0.01080(15)
C4A C -0.2373(3) -0.3529(4) -0.09010(17)
N3A N -0.1712(3) -0.1911(3) -0.10704(14)
C5A C -0.1924(3) -0.1741(4) -0.18507(18)
O1A O -0.2846(2) -0.3011(2) -0.25407(12)
C6A C -0.0971(4) 0.0137(4) -0.1907(2)
H4A H -0.1161 0.0093 -0.2512
H5A H -0.1404 0.0852 -0.1541
H6A H 0.0272 0.0689 -0.1705
Cu2A Cu -0.48340(4) -0.53054(4) -0.25501(2)
Cu2A_2 Cu 0.51660(4) -0.53054(4) -0.25501(2)
Cu2_2 Cu -0.51660(4) 0.53054(4) 0.25501(2)
N4A N -0.6027(3) -0.5521(3) -0.36776(14)
C7A C -0.5741(3) -0.4021(4) -0.38481(18)
H7A H -0.5018 -0.2884 -0.3421
C8A C -0.6465(4) -0.4090(4) -0.46206(19)
H8A H -0.6265 -0.3032 -0.4736
C9A C -0.7506(4) -0.5793(4) -0.52246(19)
H9A H -0.7988 -0.5881 -0.5773
N5A N -0.7858(3) -0.7304(3) -0.50693(15)
C10A C -0.7106(3) -0.7092(4) -0.42912(18)
N6A N -0.7517(3) -0.8723(3) -0.41584(15)
H10A H -0.7936 -0.9666 -0.4630
C11A C -0.7350(3) -0.9026(4) -0.33999(18)
O2A O -0.6677(2) -0.7799(2) -0.26827(12)
C12A C -0.8034(4) -1.0932(4) -0.3439(2)
H11A H -0.7099 -1.1042 -0.3200
H12A H -0.8972 -1.1292 -0.3097
H13A H -0.8481 -1.1711 -0.4045
N7A N -0.1867(3) 0.0315(3) 0.05132(17)
C13A C -0.2820(4) 0.0676(4) 0.0851(2)
N8A N -0.4025(4) 0.0863(4) 0.1210(2)
C14A C -0.3926(4) 0.2411(4) 0.15003(19)
N9A N -0.3980(3) 0.3709(3) 0.17665(17)
N9A_2 N 0.6020(3) 0.3709(3) 0.17665(17)
N9_2 N -0.6020(3) -0.3709(3) -0.17665(17)
S1A S -0.26946(9) -0.78986(10) -0.36379(5)
O3A O -0.3472(3) -0.6800(3) -0.35535(13)
O4A O -0.3481(3) -0.9320(3) -0.32605(17)
O5A O -0.2256(3) -0.8352(3) -0.44910(14)
C15A C -0.0546(4) -0.6328(4) -0.2963(2)
F1A F -0.0639(3) -0.5775(3) -0.21268(13)
F2A F 0.0316(3) -0.4888(3) -0.32230(16)
F3A F 0.0416(2) -0.7094(3) -0.30119(14)
loop_
_geom_bond_atom_site_label_1
_geom_bond_atom_site_label_2
_geom_bond_site_symmetry_1
_geom_bond_site_symmetry_2
Cu1 N2 1_555 1_555
N1 C1 1_555 1_555
C1 H1 1_555 1_555
C2 C1 1_555 1_555
H2 C2 1_555 1_555
C3 C2 1_555 1_555
H3 C3 1_555 1_555
N2 C3 1_555 1_555
C4 N1 1_555 1_555
N3 Cu1 1_555 1_555
C5 N3 1_555 1_555
O1 C5 1_555 1_555
C6 C5 1_555 1_555
H4 C6 1_555 1_555
H5 C6 1_555 1_555
H6 C6 1_555 1_555
Cu2 N1 1_555 1_555
N4 Cu2 1_555 1_555
C7 N4 1_555 1_555
H7 C7 1_555 1_555
C8 C7 1_555 1_555
H8 C8 1_555 1_555
C9 C8 1_555 1_555
H9 C9 1_555 1_555
N5 C9 1_555 1_555
C10 N4 1_555 1_555
N6 C10 1_555 1_555
H10 N6 1_555 1_555
C11 N6 1_555 1_555
O2 Cu2 1_555 1_555
C12 C11 1_555 1_555
H11 C12 1_555 1_555
H12 C12 1_555 1_555
H13 C12 1_555 1_555
N7 Cu1 1_555 1_555
C13 N7 1_555 1_555
N8 C13 1_555 1_555
C14 N8 1_555 1_555
N9 C14 1_555 1_555
S1 O3 1_555 1_555
O3 Cu2 1_555 1_555
O4 S1 1_555 1_555
O5 S1 1_555 1_555
C15 S1 1_555 1_555
F1 C15 1_555 1_555
F2 C15 1_555 1_555
F3 C15 1_555 1_555
N1A C1A 1_555 1_555
C1A H1A 1_555 1_555
C2A C1A 1_555 1_555
H2A C2A 1_555 1_555
C3A C2A 1_555 1_555
H3A C3A 1_555 1_555
N2A Cu1 1_555 1_555
C4A N1A 1_555 1_555
N3A Cu1 1_555 1_555
C5A N3A 1_555 1_555
O1A C5A 1_555 1_555
C6A C5A 1_555 1_555
H4A C6A 1_555 1_555
H5A C6A 1_555 1_555
H6A C6A 1_555 1_555
Cu2A N1A 1_555 1_555
Cu2A_2 N9 1_555 1_555
Cu2_2 N9A 1_555 1_555
N4A Cu2A 1_555 1_555
C7A N4A 1_555 1_555
H7A C7A 1_555 1_555
C8A C7A 1_555 1_555
H8A C8A 1_555 1_555
C9A C8A 1_555 1_555
H9A C9A 1_555 1_555
N5A C9A 1_555 1_555
C10A N4A 1_555 1_555
N6A C10A 1_555 1_555
H10A N6A 1_555 1_555
C11A N6A 1_555 1_555
O2A Cu2A 1_555 1_555
C12A C11A 1_555 1_555
H11A C12A 1_555 1_555
H12A C12A 1_555 1_555
H13A C12A 1_555 1_555
N7A Cu1 1_555 1_555
C13A N7A 1_555 1_555
N8A C13A 1_555 1_555
C14A N8A 1_555 1_555
N9A C14A 1_555 1_555
N9A_2 Cu2 1_555 1_555
N9_2 Cu2A 1_555 1_555
S1A O3A 1_555 1_555
O3A Cu2A 1_555 1_555
O4A S1A 1_555 1_555
O5A S1A 1_555 1_555
C15A S1A 1_555 1_555
F1A C15A 1_555 1_555
F2A C15A 1_555 1_555
F3A C15A 1_555 1_555
N2 C4 1_555 1_555
C4 N3 1_555 1_555
O1 Cu2 1_555 1_555
N5 C10 1_555 1_555
C11 O2 1_555 1_555
C3A N2A 1_555 1_555
N2A C4A 1_555 1_555
C4A N3A 1_555 1_555
O1A Cu2A 1_555 1_555
N5A C10A 1_555 1_555
C11A O2A 1_555 1_555

#END
