
#######################################################################
#
#                 Cambridge Crystallographic Data Centre
#                                CCDC 
#
#######################################################################
#
# If this CIF has been generated from an entry in the Cambridge 
# Structural Database, then it will include bibliographic, chemical, 
# crystal, experimental, refinement or atomic coordinate data resulting 
# from the CCDC's data processing and validation procedures.
#
#######################################################################

data_QIVSUK
_symmetry_cell_setting           monoclinic
_symmetry_space_group_name_H-M   'P 21/n'
_symmetry_Int_Tables_number      14
_space_group_name_Hall           '-P 2yn'
loop_
_symmetry_equiv_pos_site_id
_symmetry_equiv_pos_as_xyz
1 x,y,z
2 1/2-x,1/2+y,1/2-z
3 -x,-y,-z
4 1/2+x,1/2-y,1/2+z
_cell_length_a                   6.9980(7)
_cell_length_b                   19.6143(18)
_cell_length_c                   14.3357(17)
_cell_angle_alpha                90
_cell_angle_beta                 95.174(13)
_cell_angle_gamma                90
_cell_volume                     1959.71
loop_
_atom_site_label
_atom_site_type_symbol
_atom_site_fract_x
_atom_site_fract_y
_atom_site_fract_z
Sn1 Sn 0.75978(6) 0.21833(2) 0.21851(2)
As1 As 1.24815(8) 0.18859(3) 0.16391(4)
O1 O 1.0687(5) 0.2231(2) 0.2175(2)
O2 O 1.4501(5) 0.2167(2) 0.2207(2)
C1 C 0.7511(6) 0.32799(12) 0.2189(3)
C2 C 0.8966(5) 0.36566(18) 0.1836(3)
H1 H 1.0013 0.3435 0.1617
C3 C 0.8856(6) 0.43640(17) 0.1809(3)
H2 H 0.9829 0.4616 0.1573
C4 C 0.7290(7) 0.46947(12) 0.2135(3)
H3 H 0.7217 0.5168 0.2117
C5 C 0.5835(6) 0.4318(2) 0.2488(3)
H4 H 0.4788 0.4539 0.2707
C6 C 0.5946(6) 0.36106(19) 0.2515(3)
H5 H 0.4972 0.3359 0.2752
C7 C 0.7835(5) 0.15893(17) 0.34639(19)
C8 C 0.6189(5) 0.1352(2) 0.3832(2)
H6 H 0.4987 0.1453 0.3533
C9 C 0.6339(6) 0.0965(2) 0.4648(3)
H7 H 0.5237 0.0806 0.4894
C10 C 0.8135(7) 0.08150(19) 0.5095(2)
H8 H 0.8235 0.0556 0.5640
C11 C 0.9781(5) 0.1052(2) 0.4726(2)
H9 H 1.0983 0.0952 0.5026
C12 C 0.9631(5) 0.14392(19) 0.3911(2)
H10 H 1.0733 0.1598 0.3665
C13 C 0.7339(6) 0.16661(16) 0.08559(17)
C14 C 0.7167(6) 0.20509(14) 0.0038(2)
H11 H 0.7220 0.2524 0.0071
C15 C 0.6917(7) 0.1728(2) -0.08274(18)
H12 H 0.6801 0.1986 -0.1374
C16 C 0.6838(7) 0.1021(2) -0.0876(2)
H13 H 0.6670 0.0805 -0.1455
C17 C 0.7010(8) 0.06362(14) -0.0058(3)
H14 H 0.6958 0.0163 -0.0090
C18 C 0.7261(7) 0.09587(16) 0.0808(2)
H15 H 0.7376 0.0701 0.1355
C19 C 1.2292(9) 0.2128(4) 0.0365(3)
H16 H 1.2488 0.2610 0.0308
H17 H 1.1041 0.2009 0.0081
H18 H 1.3250 0.1887 0.0056
C20 C 1.2388(11) 0.0911(3) 0.1747(5)
H19 H 1.3514 0.0716 0.1516
H20 H 1.1266 0.0741 0.1385
H21 H 1.2338 0.0787 0.2392
Sn1_2 Sn 1.75978(6) 0.21833(2) 0.21851(2)
O2_2 O 0.4501(5) 0.2167(2) 0.2207(2)
loop_
_geom_bond_atom_site_label_1
_geom_bond_atom_site_label_2
_geom_bond_site_symmetry_1
_geom_bond_site_symmetry_2
Sn1 O1 1_555 1_555
As1 O1 1_555 1_555
O2 As1 1_555 1_555
C1 Sn1 1_555 1_555
C2 C1 1_555 1_555
H1 C2 1_555 1_555
C3 C2 1_555 1_555
H2 C3 1_555 1_555
C4 C3 1_555 1_555
H3 C4 1_555 1_555
C5 C4 1_555 1_555
H4 C5 1_555 1_555
C6 C1 1_555 1_555
H5 C6 1_555 1_555
C7 Sn1 1_555 1_555
C8 C7 1_555 1_555
H6 C8 1_555 1_555
C9 C8 1_555 1_555
H7 C9 1_555 1_555
C10 C9 1_555 1_555
H8 C10 1_555 1_555
C11 C10 1_555 1_555
H9 C11 1_555 1_555
C12 C7 1_555 1_555
H10 C12 1_555 1_555
C13 Sn1 1_555 1_555
C14 C13 1_555 1_555
H11 C14 1_555 1_555
C15 C14 1_555 1_555
H12 C15 1_555 1_555
C16 C15 1_555 1_555
H13 C16 1_555 1_555
C17 C16 1_555 1_555
H14 C17 1_555 1_555
C18 C13 1_555 1_555
H15 C18 1_555 1_555
C19 As1 1_555 1_555
H16 C19 1_555 1_555
H17 C19 1_555 1_555
H18 C19 1_555 1_555
C20 As1 1_555 1_555
H19 C20 1_555 1_555
H20 C20 1_555 1_555
H21 C20 1_555 1_555
Sn1_2 O2 1_555 1_555
O2_2 Sn1 1_555 1_555
C5 C6 1_555 1_555
C11 C12 1_555 1_555
C17 C18 1_555 1_555

#END
