
#######################################################################
#
#                 Cambridge Crystallographic Data Centre
#                                CCDC 
#
#######################################################################
#
# If this CIF has been generated from an entry in the Cambridge 
# Structural Database, then it will include bibliographic, chemical, 
# crystal, experimental, refinement or atomic coordinate data resulting 
# from the CCDC's data processing and validation procedures.
#
#######################################################################

data_QIVSEV
_symmetry_cell_setting           monoclinic
_symmetry_space_group_name_H-M   'P 21/n'
_symmetry_Int_Tables_number      14
_space_group_name_Hall           '-P 2yn'
loop_
_symmetry_equiv_pos_site_id
_symmetry_equiv_pos_as_xyz
1 x,y,z
2 1/2-x,1/2+y,1/2-z
3 -x,-y,-z
4 1/2+x,1/2-y,1/2+z
_cell_length_a                   17.167(3)
_cell_length_b                   8.5626(11)
_cell_length_c                   19.717(3)
_cell_angle_alpha                90
_cell_angle_beta                 93.173(4)
_cell_angle_gamma                90
_cell_volume                     2893.84
loop_
_atom_site_label
_atom_site_type_symbol
_atom_site_fract_x
_atom_site_fract_y
_atom_site_fract_z
Mn1 Mn 0.0000 1.0000 0.5000
Cl1 Cl 0.06778(7) 1.23552(13) 0.54751(6)
S1 S 0.55294(6) 0.24373(13) 0.49991(5)
S2 S 0.39079(6) 0.16924(13) 0.52951(6)
S3 S 0.61393(6) 0.04494(14) 0.63514(5)
S4 S 0.45110(7) -0.02381(15) 0.66337(6)
S5 S 0.67779(7) -0.02651(14) 0.77438(6)
S6 S 0.48884(7) -0.11396(15) 0.80888(6)
O1 O 0.32497(18) 0.4341(5) 0.37808(16)
O2 O 0.58513(17) 0.4635(4) 0.40474(16)
N1 N 0.2747(2) 0.4009(5) 0.47998(19)
H1 H 0.2816 0.3589 0.5201
N2 N 0.1115(2) 0.8504(5) 0.52687(19)
N3 N 0.4722(2) 0.4744(5) 0.34124(17)
H2 H 0.4230 0.4497 0.3367
N4 N 0.4455(2) 0.5448(4) 0.10246(18)
C1 C 0.4045(2) 0.3088(5) 0.4658(2)
C2 C 0.4788(2) 0.3376(5) 0.4503(2)
C3 C 0.4899(2) 0.1521(5) 0.5544(2)
C4 C 0.5149(3) 0.0708(5) 0.6095(2)
C5 C 0.5954(3) -0.0148(5) 0.7180(2)
C6 C 0.5211(3) -0.0433(5) 0.7317(2)
C7 C 0.6832(3) -0.2326(6) 0.7937(3)
H3 H 0.6382 -0.2629 0.8183
H4 H 0.7305 -0.2538 0.8214
H5 H 0.6840 -0.2918 0.7518
C8 C 0.4521(5) 0.0622(7) 0.8443(4)
H6 H 0.4939 0.1381 0.8498
H7 H 0.4317 0.0398 0.8882
H8 H 0.4107 0.1040 0.8141
C9 C 0.3316(2) 0.3877(5) 0.4369(2)
C10 C 0.2014(3) 0.4822(6) 0.4631(2)
H9 H 0.1577 0.4131 0.4725
H10 H 0.1979 0.5062 0.4145
C11 C 0.1939(3) 0.6319(5) 0.5028(2)
C12 C 0.1252(3) 0.7184(6) 0.4941(2)
H11 H 0.0861 0.6810 0.4630
C13 C 0.1674(3) 0.9020(6) 0.5715(3)
H12 H 0.1590 0.9949 0.5955
C14 C 0.2365(3) 0.8236(7) 0.5833(3)
H13 H 0.2745 0.8629 0.6150
C15 C 0.2501(3) 0.6878(6) 0.5490(3)
H14 H 0.2973 0.6336 0.5569
C16 C 0.5149(2) 0.4340(5) 0.3971(2)
C17 C 0.5091(3) 0.5606(6) 0.2880(2)
H15 H 0.5579 0.5086 0.2777
H16 H 0.5219 0.6662 0.3043
C18 C 0.4569(3) 0.5711(5) 0.2245(2)
C19 C 0.4854(3) 0.5299(5) 0.1623(2)
H17 H 0.5362 0.4888 0.1623
C20 C 0.3723(3) 0.5991(6) 0.1038(2)
H18 H 0.3429 0.6101 0.0624
C21 C 0.3382(3) 0.6393(6) 0.1629(2)
H19 H 0.2862 0.6746 0.1616
C22 C 0.3812(3) 0.6272(5) 0.2240(2)
H20 H 0.3593 0.6566 0.2648
Cl1B Cl -0.06778(7) 0.76448(13) 0.45249(6)
S1B S -0.55294(6) 1.75627(13) 0.50009(5)
S2B S -0.39079(6) 1.83076(13) 0.47049(6)
S3B S -0.61393(6) 1.95506(14) 0.36486(5)
S4B S -0.45110(7) 2.02381(15) 0.33663(6)
S5B S -0.67779(7) 2.02651(14) 0.22562(6)
S6B S -0.48884(7) 2.11396(15) 0.19112(6)
O1B O -0.32497(18) 1.5659(5) 0.62192(16)
O2B O -0.58513(17) 1.5365(4) 0.59526(16)
N1B N -0.2747(2) 1.5991(5) 0.52002(19)
H1B H -0.2816 1.6411 0.4799
N2B N -0.1115(2) 1.1496(5) 0.47313(19)
N3B N -0.4722(2) 1.5256(5) 0.65876(17)
H2B H -0.4230 1.5503 0.6633
N4B N -0.4455(2) 1.4552(4) 0.89754(18)
C1B C -0.4045(2) 1.6912(5) 0.5342(2)
C2B C -0.4788(2) 1.6624(5) 0.5497(2)
C3B C -0.4899(2) 1.8479(5) 0.4456(2)
C4B C -0.5149(3) 1.9292(5) 0.3905(2)
C5B C -0.5954(3) 2.0148(5) 0.2820(2)
C6B C -0.5211(3) 2.0433(5) 0.2683(2)
C7B C -0.6832(3) 2.2326(6) 0.2063(3)
H3B H -0.6382 2.2629 0.1817
H4B H -0.7305 2.2538 0.1786
H5B H -0.6840 2.2918 0.2482
C8B C -0.4521(5) 1.9378(7) 0.1557(4)
H6B H -0.4939 1.8619 0.1502
H7B H -0.4317 1.9602 0.1118
H8B H -0.4107 1.8960 0.1859
C9B C -0.3316(2) 1.6123(5) 0.5631(2)
C10B C -0.2014(3) 1.5178(6) 0.5369(2)
H9B H -0.1577 1.5869 0.5275
H10B H -0.1979 1.4938 0.5855
C11B C -0.1939(3) 1.3681(5) 0.4972(2)
C12B C -0.1252(3) 1.2816(6) 0.5059(2)
H11B H -0.0861 1.3190 0.5370
C13B C -0.1674(3) 1.0980(6) 0.4285(3)
H12B H -0.1590 1.0051 0.4045
C14B C -0.2365(3) 1.1764(7) 0.4167(3)
H13B H -0.2745 1.1371 0.3850
C15B C -0.2501(3) 1.3122(6) 0.4510(3)
H14B H -0.2973 1.3664 0.4431
C16B C -0.5149(2) 1.5660(5) 0.6029(2)
C17B C -0.5091(3) 1.4394(6) 0.7120(2)
H15B H -0.5579 1.4914 0.7223
H16B H -0.5219 1.3338 0.6957
C18B C -0.4569(3) 1.4289(5) 0.7755(2)
C19B C -0.4854(3) 1.4701(5) 0.8377(2)
H17B H -0.5362 1.5112 0.8377
C20B C -0.3723(3) 1.4009(6) 0.8962(2)
H18B H -0.3429 1.3899 0.9376
C21B C -0.3382(3) 1.3607(6) 0.8371(2)
H19B H -0.2862 1.3254 0.8384
C22B C -0.3812(3) 1.3728(5) 0.7760(2)
H20B H -0.3593 1.3434 0.7352
Mn1A Mn -0.5000 1.5000 1.0000
Mn1A_2 Mn 0.5000 0.5000 0.0000
N4A N 0.0545(2) 1.0448(4) 0.39754(18)
N4C N -0.0545(2) 0.9552(4) 0.60246(18)
O3 O 0.2307(5) 0.3066(10) 0.6158(4)
C23 C 0.2264(9) 0.1440(18) 0.7323(8)
C24 C 0.2548(12) 0.261(3) 0.6841(8)
C25? C 0.2559(8) 0.4896(15) 0.7301(7)
C26? C 0.2679(9) 0.3626(18) 0.6776(7)
loop_
_geom_bond_atom_site_label_1
_geom_bond_atom_site_label_2
_geom_bond_site_symmetry_1
_geom_bond_site_symmetry_2
Mn1 Cl1 1_555 1_555
S1 C2 1_555 1_555
S2 C1 1_555 1_555
S3 C4 1_555 1_555
S4 C4 1_555 1_555
S5 C5 1_555 1_555
S6 C6 1_555 1_555
O1 C9 1_555 1_555
O2 C16 1_555 1_555
N1 H1 1_555 1_555
N2 Mn1 1_555 1_555
N3 H2 1_555 1_555
N4 C19 1_555 1_555
C1 C2 1_555 1_555
C2 C16 1_555 1_555
C3 S1 1_555 1_555
C4 C3 1_555 1_555
C5 S3 1_555 1_555
C6 S4 1_555 1_555
C7 S5 1_555 1_555
H3 C7 1_555 1_555
H4 C7 1_555 1_555
H5 C7 1_555 1_555
C8 S6 1_555 1_555
H6 C8 1_555 1_555
H7 C8 1_555 1_555
H8 C8 1_555 1_555
C9 N1 1_555 1_555
C10 N1 1_555 1_555
H9 C10 1_555 1_555
H10 C10 1_555 1_555
C11 C10 1_555 1_555
C12 N2 1_555 1_555
H11 C12 1_555 1_555
C13 N2 1_555 1_555
H12 C13 1_555 1_555
C14 C13 1_555 1_555
H13 C14 1_555 1_555
C15 C11 1_555 1_555
H14 C15 1_555 1_555
C16 N3 1_555 1_555
C17 N3 1_555 1_555
H15 C17 1_555 1_555
H16 C17 1_555 1_555
C18 C17 1_555 1_555
C19 C18 1_555 1_555
H17 C19 1_555 1_555
C20 N4 1_555 1_555
H18 C20 1_555 1_555
C21 C20 1_555 1_555
H19 C21 1_555 1_555
C22 C18 1_555 1_555
H20 C22 1_555 1_555
O3 C24 1_555 1_555
C23 C24 1_555 1_555
Cl1B Mn1 1_555 1_555
S1B C2B 1_555 1_555
S2B C1B 1_555 1_555
S3B C4B 1_555 1_555
S4B C4B 1_555 1_555
S5B C5B 1_555 1_555
S6B C6B 1_555 1_555
O1B C9B 1_555 1_555
O2B C16B 1_555 1_555
N1B H1B 1_555 1_555
N2B Mn1 1_555 1_555
N3B H2B 1_555 1_555
N4B C19B 1_555 1_555
C1B C2B 1_555 1_555
C2B C16B 1_555 1_555
C3B S1B 1_555 1_555
C4B C3B 1_555 1_555
C5B S3B 1_555 1_555
C6B S4B 1_555 1_555
C7B S5B 1_555 1_555
H3B C7B 1_555 1_555
H4B C7B 1_555 1_555
H5B C7B 1_555 1_555
C8B S6B 1_555 1_555
H6B C8B 1_555 1_555
H7B C8B 1_555 1_555
H8B C8B 1_555 1_555
C9B N1B 1_555 1_555
C10B N1B 1_555 1_555
H9B C10B 1_555 1_555
H10B C10B 1_555 1_555
C11B C10B 1_555 1_555
C12B N2B 1_555 1_555
H11B C12B 1_555 1_555
C13B N2B 1_555 1_555
H12B C13B 1_555 1_555
C14B C13B 1_555 1_555
H13B C14B 1_555 1_555
C15B C11B 1_555 1_555
H14B C15B 1_555 1_555
C16B N3B 1_555 1_555
C17B N3B 1_555 1_555
H15B C17B 1_555 1_555
H16B C17B 1_555 1_555
C18B C17B 1_555 1_555
C19B C18B 1_555 1_555
H17B C19B 1_555 1_555
C20B N4B 1_555 1_555
H18B C20B 1_555 1_555
C21B C20B 1_555 1_555
H19B C21B 1_555 1_555
C22B C18B 1_555 1_555
H20B C22B 1_555 1_555
Mn1A N4B 1_555 1_555
Mn1A_2 N4 1_555 1_555
N4A Mn1 1_555 1_555
N4C Mn1 1_555 1_555
S2 C3 1_555 1_555
C1 C9 1_555 1_555
C5 C6 1_555 1_555
C11 C12 1_555 1_555
C14 C15 1_555 1_555
C21 C22 1_555 1_555
S2B C3B 1_555 1_555
C1B C9B 1_555 1_555
C5B C6B 1_555 1_555
C11B C12B 1_555 1_555
C14B C15B 1_555 1_555
C21B C22B 1_555 1_555

#END
