
#######################################################################
#
#                 Cambridge Crystallographic Data Centre
#                                CCDC 
#
#######################################################################
#
# If this CIF has been generated from an entry in the Cambridge 
# Structural Database, then it will include bibliographic, chemical, 
# crystal, experimental, refinement or atomic coordinate data resulting 
# from the CCDC's data processing and validation procedures.
#
#######################################################################

data_QIVSIX
_symmetry_cell_setting           monoclinic
_symmetry_space_group_name_H-M   'P 21/m'
_symmetry_Int_Tables_number      11
_space_group_name_Hall           '-P 2yb'
loop_
_symmetry_equiv_pos_site_id
_symmetry_equiv_pos_as_xyz
1 x,y,z
2 x,1/2-y,z
3 -x,-y,-z
4 -x,1/2+y,-z
_cell_length_a                   10.0400(10)
_cell_length_b                   14.5000(10)
_cell_length_c                   13.9780(10)
_cell_angle_alpha                90
_cell_angle_beta                 91.580(10)
_cell_angle_gamma                90
_cell_volume                     2034.14
loop_
_atom_site_label
_atom_site_type_symbol
_atom_site_fract_x
_atom_site_fract_y
_atom_site_fract_z
Sn1 Sn 0.366702(17) 0.009960(14) 0.072682(13)
S1 S 0.27109(9) 0.2500 0.14587(7)
S2 S 0.36566(10) -0.2500 0.14912(7)
O1 O 0.50129(16) 0.08230(14) -0.00758(12)
H1 H 0.5032 0.1406 -0.0134
O2 O 0.2995(2) 0.16777(14) 0.08963(15)
O3 O 0.3349(3) 0.2500 0.2382(2)
O4 O 0.4946(3) -0.2500 0.10303(19)
O5 O 0.29067(19) -0.16653(13) 0.12721(13)
C1 C 0.0940(4) 0.2500 0.1566(3)
C2 C 0.0169(4) 0.2500 0.0709(3)
C3 C -0.1198(4) 0.2500 0.0766(3)
H2 H -0.1708 0.2500 0.0200
C4 C -0.1844(4) 0.2500 0.1621(3)
C5 C -0.1054(4) 0.2500 0.2450(3)
H3 H -0.1474 0.2500 0.3034
C6 C 0.0330(4) 0.2500 0.2456(3)
C7 C 0.0723(5) 0.2500 -0.0288(3)
H4 H 0.1679 0.2500 -0.0250
H5 H 0.0417 0.3041 -0.0624
C8 C -0.3342(4) 0.2500 0.1640(4)
H6 H -0.3695 0.2500 0.0995
H7 H -0.3643 0.3041 0.1967
C9 C 0.1035(5) 0.2500 0.3422(3)
H8 H 0.0402 0.2500 0.3924
H9 H 0.1584 0.3041 0.3476
C10 C 0.4305(3) 0.0116(2) 0.2183(2)
H10 H 0.4887 -0.0408 0.2302
H11 H 0.4824 0.0670 0.2302
C11 C 0.3175(4) 0.0083(2) 0.2888(2)
H12 H 0.2600 0.0612 0.2781
H13 H 0.2648 -0.0468 0.2768
C12 C 0.3668(5) 0.0081(3) 0.3916(3)
H14 H 0.4208 0.0628 0.4028
H15 H 0.4236 -0.0452 0.4020
C13 C 0.2568(6) 0.0062(3) 0.4637(3)
H16 H 0.2954 0.0063 0.5273
H17 H 0.2043 -0.0486 0.4544
H18 H 0.2012 0.0595 0.4551
C14 C 0.1904(3) -0.00537(19) -0.0121(2)
H19 H 0.1558 -0.0672 -0.0035
H20 H 0.1241 0.0377 0.0101
C15 C 0.2112(3) 0.0111(2) -0.1185(2)
H21 H 0.2479 0.0724 -0.1269
H22 H 0.2759 -0.0330 -0.1411
C16 C 0.0840(4) 0.0025(2) -0.1793(2)
H23 H 0.0440 -0.0572 -0.1677
H24 H 0.0215 0.0494 -0.1599
C17 C 0.1074(5) 0.0124(3) -0.2850(3)
H25 H 0.0242 0.0064 -0.3199
H26 H 0.1677 -0.0347 -0.3050
H27 H 0.1450 0.0720 -0.2972
C18 C 0.3933(4) -0.2500 0.2761(3)
C19 C 0.5203(4) -0.2500 0.3202(3)
C20 C 0.5261(5) -0.2500 0.4204(3)
H28 H 0.6096 -0.2500 0.4510
C21 C 0.4158(6) -0.2500 0.4761(3)
C22 C 0.2941(5) -0.2500 0.4305(3)
H29 H 0.2185 -0.2500 0.4675
C23 C 0.2774(4) -0.2500 0.3317(3)
C24 C 0.6506(5) -0.2500 0.2690(4)
H30 H 0.7223 -0.2500 0.3159
H31 H 0.6565 -0.3041 0.2297
C25 C 0.4286(7) -0.2500 0.5842(4)
H32 H 0.5217 -0.2500 0.6021
H33 H 0.3871 -0.1959 0.6096
C26 C 0.1372(4) -0.2500 0.2910(3)
H34 H 0.0748 -0.2500 0.3418
H35 H 0.1238 -0.1959 0.2522
O2A O 0.2995(2) 0.33223(14) 0.08963(15)
H9A H 0.1584 0.1959 0.3476
H7A H -0.3643 0.1959 0.1967
H5A H 0.0417 0.1959 -0.0624
O5A O 0.29067(19) -0.33347(13) 0.12721(13)
H35A H 0.1238 -0.3041 0.2522
H33A H 0.3871 -0.3041 0.6096
H31A H 0.6565 -0.1959 0.2297
O1B O 0.49871(16) -0.08230(14) 0.00758(12)
H1B H 0.4968 -0.1406 0.0134
Sn1B Sn 0.633298(17) -0.009960(14) -0.072682(13)
C10B C 0.5695(3) -0.0116(2) -0.2183(2)
H10B H 0.5113 0.0408 -0.2302
H11B H 0.5176 -0.0670 -0.2302
C11B C 0.6825(4) -0.0083(2) -0.2888(2)
H12B H 0.7400 -0.0612 -0.2781
H13B H 0.7352 0.0468 -0.2768
C12B C 0.6332(5) -0.0081(3) -0.3916(3)
H14B H 0.5792 -0.0628 -0.4028
H15B H 0.5764 0.0452 -0.4020
C13B C 0.7432(6) -0.0062(3) -0.4637(3)
H16B H 0.7046 -0.0063 -0.5273
H17B H 0.7957 0.0486 -0.4544
H18B H 0.7988 -0.0595 -0.4551
C14B C 0.8096(3) 0.00537(19) 0.0121(2)
H19B H 0.8442 0.0672 0.0035
H20B H 0.8759 -0.0377 -0.0101
C15B C 0.7888(3) -0.0111(2) 0.1185(2)
H21B H 0.7521 -0.0724 0.1269
H22B H 0.7241 0.0330 0.1411
C16B C 0.9160(4) -0.0025(2) 0.1793(2)
H23B H 0.9560 0.0572 0.1677
H24B H 0.9785 -0.0494 0.1599
C17B C 0.8926(5) -0.0124(3) 0.2850(3)
H25B H 0.9758 -0.0064 0.3199
H26B H 0.8323 0.0347 0.3050
H27B H 0.8550 -0.0720 0.2972
Sn1A Sn 0.366702(17) 0.490040(14) 0.072682(13)
Sn1A_2 Sn 0.366702(17) -0.509960(14) 0.072682(13)
O2B O 0.7005(2) -0.16777(14) -0.08963(15)
O5B O 0.70933(19) 0.16653(13) -0.12721(13)
loop_
_geom_bond_atom_site_label_1
_geom_bond_atom_site_label_2
_geom_bond_site_symmetry_1
_geom_bond_site_symmetry_2
Sn1 O1 1_555 1_555
S1 O2 1_555 1_555
S2 O4 1_555 1_555
O1 H1 1_555 1_555
O2 Sn1 1_555 1_555
O3 S1 1_555 1_555
O5 Sn1 1_555 1_555
C1 S1 1_555 1_555
C2 C1 1_555 1_555
C3 C2 1_555 1_555
H2 C3 1_555 1_555
C4 C3 1_555 1_555
C5 C4 1_555 1_555
H3 C5 1_555 1_555
C6 C1 1_555 1_555
C7 C2 1_555 1_555
H4 C7 1_555 1_555
H5 C7 1_555 1_555
C8 C4 1_555 1_555
H6 C8 1_555 1_555
H7 C8 1_555 1_555
C9 C6 1_555 1_555
H8 C9 1_555 1_555
H9 C9 1_555 1_555
C10 Sn1 1_555 1_555
H10 C10 1_555 1_555
H11 C10 1_555 1_555
C11 C10 1_555 1_555
H12 C11 1_555 1_555
H13 C11 1_555 1_555
C12 C11 1_555 1_555
H14 C12 1_555 1_555
H15 C12 1_555 1_555
C13 C12 1_555 1_555
H16 C13 1_555 1_555
H17 C13 1_555 1_555
H18 C13 1_555 1_555
C14 Sn1 1_555 1_555
H19 C14 1_555 1_555
H20 C14 1_555 1_555
C15 C14 1_555 1_555
H21 C15 1_555 1_555
H22 C15 1_555 1_555
C16 C15 1_555 1_555
H23 C16 1_555 1_555
H24 C16 1_555 1_555
C17 C16 1_555 1_555
H25 C17 1_555 1_555
H26 C17 1_555 1_555
H27 C17 1_555 1_555
C18 S2 1_555 1_555
C19 C18 1_555 1_555
C20 C19 1_555 1_555
H28 C20 1_555 1_555
C21 C20 1_555 1_555
C22 C21 1_555 1_555
H29 C22 1_555 1_555
C23 C18 1_555 1_555
C24 C19 1_555 1_555
H30 C24 1_555 1_555
H31 C24 1_555 1_555
C25 C21 1_555 1_555
H32 C25 1_555 1_555
H33 C25 1_555 1_555
C26 C23 1_555 1_555
H34 C26 1_555 1_555
H35 C26 1_555 1_555
O2A S1 1_555 1_555
H9A C9 1_555 1_555
H7A C8 1_555 1_555
H5A C7 1_555 1_555
O5A S2 1_555 1_555
H35A C26 1_555 1_555
H33A C25 1_555 1_555
H31A C24 1_555 1_555
O1B Sn1 1_555 1_555
H1B O1B 1_555 1_555
Sn1B O1 1_555 1_555
C10B Sn1B 1_555 1_555
H10B C10B 1_555 1_555
H11B C10B 1_555 1_555
C11B C10B 1_555 1_555
H12B C11B 1_555 1_555
H13B C11B 1_555 1_555
C12B C11B 1_555 1_555
H14B C12B 1_555 1_555
H15B C12B 1_555 1_555
C13B C12B 1_555 1_555
H16B C13B 1_555 1_555
H17B C13B 1_555 1_555
H18B C13B 1_555 1_555
C14B Sn1B 1_555 1_555
H19B C14B 1_555 1_555
H20B C14B 1_555 1_555
C15B C14B 1_555 1_555
H21B C15B 1_555 1_555
H22B C15B 1_555 1_555
C16B C15B 1_555 1_555
H23B C16B 1_555 1_555
H24B C16B 1_555 1_555
C17B C16B 1_555 1_555
H25B C17B 1_555 1_555
H26B C17B 1_555 1_555
H27B C17B 1_555 1_555
Sn1A O2A 1_555 1_555
Sn1A_2 O5A 1_555 1_555
O2B Sn1B 1_555 1_555
O5B Sn1B 1_555 1_555
S2 O5 1_555 1_555
C5 C6 1_555 1_555
C22 C23 1_555 1_555
O1B Sn1B 1_555 1_555

#END
