
#######################################################################
#
#                 Cambridge Crystallographic Data Centre
#                                CCDC 
#
#######################################################################
#
# If this CIF has been generated from an entry in the Cambridge 
# Structural Database, then it will include bibliographic, chemical, 
# crystal, experimental, refinement or atomic coordinate data resulting 
# from the CCDC's data processing and validation procedures.
#
#######################################################################

data_QIVTOF
_symmetry_cell_setting           triclinic
_symmetry_space_group_name_H-M   'P -1'
_symmetry_Int_Tables_number      2
_space_group_name_Hall           '-P 1'
loop_
_symmetry_equiv_pos_site_id
_symmetry_equiv_pos_as_xyz
1 x,y,z
2 -x,-y,-z
_cell_length_a                   8.7060(17)
_cell_length_b                   9.6354(19)
_cell_length_c                   10.139(2)
_cell_angle_alpha                61.99(3)
_cell_angle_beta                 84.02(3)
_cell_angle_gamma                77.46(3)
_cell_volume                     732.978
loop_
_atom_site_label
_atom_site_type_symbol
_atom_site_fract_x
_atom_site_fract_y
_atom_site_fract_z
Zn1 Zn 0.65811(3) 0.55331(3) 0.85417(2)
O1 O 0.78338(18) 0.47260(19) 0.72728(15)
O2 O 0.6316(2) 0.6642(2) 0.53937(18)
O3 O 0.54240(18) 0.51496(19) 0.14459(17)
O4 O 0.7611(2) 0.42280(19) 0.05268(16)
O5 O 1.1665(2) 0.0522(2) 0.4460(2)
O6 O 1.1537(3) 0.0624(3) 0.6539(2)
N1 N 1.1084(2) 0.1111(2) 0.5274(2)
N2 N 0.6174(2) 0.7818(2) 0.80737(19)
N3 N 0.5023(2) 1.0373(2) 0.7072(2)
H1 H 0.4412 1.1251 0.6508
C1 C 0.7899(2) 0.4483(2) 0.5069(2)
C2 C 0.7146(2) 0.4868(2) 0.3762(2)
H2 H 0.6252 0.5672 0.3446
C3 C 0.7720(2) 0.4061(2) 0.2923(2)
C4 C 0.9054(2) 0.2876(3) 0.3371(2)
H3 H 0.9478 0.2368 0.2794
C5 C 0.9739(2) 0.2470(2) 0.4707(2)
C6 C 0.9185(2) 0.3231(3) 0.5570(2)
H4 H 0.9665 0.2911 0.6472
C7 C 0.7288(3) 0.5386(3) 0.5942(2)
C8 C 0.6845(3) 0.4495(2) 0.1538(2)
C9 C 0.5125(3) 0.8953(3) 0.7107(2)
H5 H 0.4519 0.8783 0.6512
C10 C 0.6073(3) 1.0181(3) 0.8101(2)
C11 C 0.6421(3) 1.1230(3) 0.8556(3)
H6 H 0.5914 1.2297 0.8146
C12 C 0.7544(4) 1.0622(4) 0.9634(3)
H7 H 0.7792 1.1286 0.9979
C13 C 0.8329(4) 0.9027(3) 1.0229(3)
H8 H 0.9099 0.8663 1.0949
C14 C 0.7995(3) 0.7973(3) 0.9780(3)
H9 H 0.8536 0.6919 1.0168
C15 C 0.6814(2) 0.8561(2) 0.8723(2)
Zn1A Zn 0.34189(3) 0.44669(3) 0.14583(2)
Zn1_2 Zn 0.65811(3) 0.55331(3) -0.14583(2)
O3A O 0.45760(18) 0.48504(19) 0.85541(17)
O4_2 O 0.7611(2) 0.42280(19) 1.05268(16)
loop_
_geom_bond_atom_site_label_1
_geom_bond_atom_site_label_2
_geom_bond_site_symmetry_1
_geom_bond_site_symmetry_2
Zn1 O1 1_555 1_555
O1 C7 1_555 1_555
O2 C7 1_555 1_555
O3 C8 1_555 1_555
O4 C8 1_555 1_555
O5 N1 1_555 1_555
O6 N1 1_555 1_555
N1 C5 1_555 1_555
N2 Zn1 1_555 1_555
N3 H1 1_555 1_555
C1 C2 1_555 1_555
C2 H2 1_555 1_555
C3 C2 1_555 1_555
C4 C3 1_555 1_555
H3 C4 1_555 1_555
C5 C4 1_555 1_555
C6 C1 1_555 1_555
H4 C6 1_555 1_555
C7 C1 1_555 1_555
C8 C3 1_555 1_555
C9 N2 1_555 1_555
H5 C9 1_555 1_555
C10 N3 1_555 1_555
C11 C10 1_555 1_555
H6 C11 1_555 1_555
C12 C11 1_555 1_555
H7 C12 1_555 1_555
C13 C12 1_555 1_555
H8 C13 1_555 1_555
C14 C13 1_555 1_555
H9 C14 1_555 1_555
C15 N2 1_555 1_555
Zn1A O3 1_555 1_555
Zn1_2 O4 1_555 1_555
O3A Zn1 1_555 1_555
O4_2 Zn1 1_555 1_555
N3 C9 1_555 1_555
C5 C6 1_555 1_555
C10 C15 1_555 1_555
C14 C15 1_555 1_555

#END
