
#######################################################################
#
#                 Cambridge Crystallographic Data Centre
#                                CCDC 
#
#######################################################################
#
# If this CIF has been generated from an entry in the Cambridge 
# Structural Database, then it will include bibliographic, chemical, 
# crystal, experimental, refinement or atomic coordinate data resulting 
# from the CCDC's data processing and validation procedures.
#
#######################################################################

data_QIVTUL
_symmetry_cell_setting           triclinic
_symmetry_space_group_name_H-M   'P -1'
_symmetry_Int_Tables_number      2
_space_group_name_Hall           '-P 1'
loop_
_symmetry_equiv_pos_site_id
_symmetry_equiv_pos_as_xyz
1 x,y,z
2 -x,-y,-z
_cell_length_a                   8.1422(16)
_cell_length_b                   10.085(2)
_cell_length_c                   11.723(2)
_cell_angle_alpha                69.99(3)
_cell_angle_beta                 76.93(3)
_cell_angle_gamma                67.68(3)
_cell_volume                     831.605
loop_
_atom_site_label
_atom_site_type_symbol
_atom_site_fract_x
_atom_site_fract_y
_atom_site_fract_z
Cd1 Cd 0.66279(2) 0.568584(18) 0.565084(14)
O1 O 0.7934(3) 0.7362(2) 0.3883(2)
O2 O 0.6740(3) 0.7992(2) 0.55689(19)
O3 O 0.5926(2) 1.3225(2) 0.54439(17)
O4 O 0.8301(2) 1.3933(2) 0.46926(19)
O5 O 1.1817(4) 1.2163(3) 0.1169(2)
O6 O 1.2055(6) 1.0014(5) 0.1119(4)
O7 O 0.9136(3) 0.4807(3) 0.6731(2)
N1 N 1.1421(4) 1.1023(3) 0.1573(2)
N2 N 0.4862(3) 0.5159(3) 0.74014(18)
N3 N 0.3178(4) 0.4042(3) 0.8879(2)
H1 H 0.2645 0.3404 0.9288
C1 C 0.8238(3) 0.9545(2) 0.4039(2)
C2 C 0.7575(3) 1.0658(2) 0.4625(2)
H2 H 0.6712 1.0593 0.5295
C3 C 0.8195(3) 1.1874(2) 0.4215(2)
C4 C 0.9492(3) 1.1982(3) 0.3226(2)
H3 H 0.9931 1.2777 0.2960
C5 C 1.0106(3) 1.0879(3) 0.2650(2)
C6 C 0.9502(3) 0.9655(3) 0.3039(2)
H4 H 0.9946 0.8925 0.2629
C7 C 0.7590(3) 0.8208(3) 0.4531(2)
C8 C 0.7417(3) 1.3092(3) 0.4832(2)
C9 C 0.4245(4) 0.4027(3) 0.7830(2)
H5 H 0.4525 0.3291 0.7442
C10 C 0.3092(4) 0.5274(3) 0.9180(2)
C11 C 0.2188(4) 0.5834(4) 1.0159(3)
H6 H 0.1487 0.5363 1.0782
C12 C 0.2391(5) 0.7117(4) 1.0149(3)
H7 H 0.1798 0.7537 1.0785
C13 C 0.3458(5) 0.7834(4) 0.9222(3)
H8 H 0.3553 0.8707 0.9260
C14 C 0.4369(4) 0.7267(3) 0.8252(3)
H9 H 0.5085 0.7731 0.7637
C15 C 0.4159(3) 0.5976(3) 0.8246(2)
H10 H 0.992(5) 0.394(5) 0.663(4)
H11 H 0.974(5) 0.528(5) 0.633(4)
Cd1A Cd 0.33721(2) 1.431416(18) 0.434916(14)
Cd1_2 Cd 0.66279(2) 1.568584(18) 0.565084(14)
O3A O 0.4074(2) 0.6775(2) 0.45561(17)
O4_2 O 0.8301(2) 0.3933(2) 0.46926(19)
loop_
_geom_bond_atom_site_label_1
_geom_bond_atom_site_label_2
_geom_bond_site_symmetry_1
_geom_bond_site_symmetry_2
Cd1 O1 1_555 1_555
O1 C7 1_555 1_555
O2 Cd1 1_555 1_555
O3 C8 1_555 1_555
O4 C8 1_555 1_555
O5 N1 1_555 1_555
O6 N1 1_555 1_555
O7 Cd1 1_555 1_555
N1 C5 1_555 1_555
N2 Cd1 1_555 1_555
N3 H1 1_555 1_555
C1 C2 1_555 1_555
C2 H2 1_555 1_555
C3 C2 1_555 1_555
C4 C3 1_555 1_555
H3 C4 1_555 1_555
C5 C4 1_555 1_555
C6 C1 1_555 1_555
H4 C6 1_555 1_555
C7 O2 1_555 1_555
C8 C3 1_555 1_555
C9 N2 1_555 1_555
H5 C9 1_555 1_555
C10 N3 1_555 1_555
C11 C10 1_555 1_555
H6 C11 1_555 1_555
C12 C11 1_555 1_555
H7 C12 1_555 1_555
C13 C12 1_555 1_555
H8 C13 1_555 1_555
C14 C13 1_555 1_555
H9 C14 1_555 1_555
C15 N2 1_555 1_555
H10 O7 1_555 1_555
H11 O7 1_555 1_555
Cd1A O3 1_555 1_555
Cd1_2 O4 1_555 1_555
O3A Cd1 1_555 1_555
O4_2 Cd1 1_555 1_555
N3 C9 1_555 1_555
C1 C7 1_555 1_555
C5 C6 1_555 1_555
C10 C15 1_555 1_555
C14 C15 1_555 1_555

#END
