
#######################################################################
#
#                 Cambridge Crystallographic Data Centre
#                                CCDC 
#
#######################################################################
#
# If this CIF has been generated from an entry in the Cambridge 
# Structural Database, then it will include bibliographic, chemical, 
# crystal, experimental, refinement or atomic coordinate data resulting 
# from the CCDC's data processing and validation procedures.
#
#######################################################################

data_QIVWAU
_symmetry_cell_setting           monoclinic
_symmetry_space_group_name_H-M   'C 2/c'
_symmetry_Int_Tables_number      15
_space_group_name_Hall           '-C 2yn'
loop_
_symmetry_equiv_pos_site_id
_symmetry_equiv_pos_as_xyz
1 x,y,z
2 1/2+x,1/2+y,z
3 -x,y,1/2-z
4 1/2-x,1/2+y,1/2-z
5 -x,-y,-z
6 1/2-x,1/2-y,-z
7 x,-y,1/2+z
8 1/2+x,1/2-y,1/2+z
_cell_length_a                   7.9294(10)
_cell_length_b                   24.115(5)
_cell_length_c                   12.6145(17)
_cell_angle_alpha                90
_cell_angle_beta                 102.110(16)
_cell_angle_gamma                90
_cell_volume                     2358.44
loop_
_atom_site_label
_atom_site_type_symbol
_atom_site_fract_x
_atom_site_fract_y
_atom_site_fract_z
Hg1 Hg 0.0000 0.171557(15) 0.2500
Br1 Br -0.17936(9) 0.14556(5) 0.07052(6)
N1 N -0.3308(5) 0.1467(2) 0.3100(4)
C1 C -0.4160(6) 0.1939(2) 0.2819(4)
C2 C -0.3248(6) 0.2451(2) 0.3282(4)
N2 N -0.1561(5) 0.2492(2) 0.3235(4)
C3 C -0.0683(7) 0.2929(3) 0.3729(5)
H1 H 0.0478 0.2961 0.3706
C4 C -0.1395(8) 0.3332(3) 0.4265(5)
H2 H -0.0732 0.3626 0.4598
C5 C -0.3128(8) 0.3289(3) 0.4300(5)
H3 H -0.3657 0.3558 0.4649
C6 C -0.4040(7) 0.2842(2) 0.3807(5)
H4 H -0.5200 0.2803 0.3828
C7 C -0.4120(7) 0.0981(2) 0.2790(5)
C8 C -0.3283(9) 0.0473(3) 0.3055(6)
H5 H -0.2135 0.0469 0.3422
C9 C -0.4141(10) -0.0026(3) 0.2780(7)
C10 C -0.3162(15) -0.0574(4) 0.3082(10)
H6 H -0.3919 -0.0880 0.2841
H7 H -0.2766 -0.0593 0.3854
H8 H -0.2192 -0.0590 0.2738
Hg1_2 Hg -1.0000 0.171557(15) 0.2500
Br1B Br 0.17936(9) 0.14556(5) 0.42948(6)
N1B N -0.6692(5) 0.1467(2) 0.1900(4)
N1B_2 N 0.3308(5) 0.1467(2) 0.1900(4)
C1B C -0.5840(6) 0.1939(2) 0.2181(4)
C2B C -0.6752(6) 0.2451(2) 0.1718(4)
N2B N -0.8439(5) 0.2492(2) 0.1765(4)
N2B_2 N 0.1561(5) 0.2492(2) 0.1765(4)
C3B C -0.9317(7) 0.2929(3) 0.1271(5)
H1B H -1.0478 0.2961 0.1294
C4B C -0.8605(8) 0.3332(3) 0.0735(5)
H2B H -0.9268 0.3626 0.0402
C5B C -0.6872(8) 0.3289(3) 0.0700(5)
H3B H -0.6343 0.3558 0.0351
C6B C -0.5960(7) 0.2842(2) 0.1193(5)
H4B H -0.4800 0.2803 0.1172
C7B C -0.5880(7) 0.0981(2) 0.2210(5)
C8B C -0.6717(9) 0.0473(3) 0.1945(6)
H5B H -0.7865 0.0469 0.1578
C9B C -0.5859(10) -0.0026(3) 0.2220(7)
C10B C -0.6838(15) -0.0574(4) 0.1918(10)
H6B H -0.6081 -0.0880 0.2159
H7B H -0.7234 -0.0593 0.1146
H8B H -0.7808 -0.0590 0.2262
loop_
_geom_bond_atom_site_label_1
_geom_bond_atom_site_label_2
_geom_bond_site_symmetry_1
_geom_bond_site_symmetry_2
Hg1 Br1 1_555 1_555
N1 Hg1 1_555 1_555
C1 N1 1_555 1_555
C2 C1 1_555 1_555
N2 Hg1 1_555 1_555
C3 N2 1_555 1_555
H1 C3 1_555 1_555
C4 C3 1_555 1_555
H2 C4 1_555 1_555
C5 C4 1_555 1_555
H3 C5 1_555 1_555
C6 C2 1_555 1_555
H4 C6 1_555 1_555
C7 N1 1_555 1_555
C8 C7 1_555 1_555
H5 C8 1_555 1_555
C9 C8 1_555 1_555
C10 C9 1_555 1_555
H6 C10 1_555 1_555
H7 C10 1_555 1_555
H8 C10 1_555 1_555
Hg1_2 N1B 1_555 1_555
Br1B Hg1 1_555 1_555
N1B C1B 1_555 1_555
N1B_2 Hg1 1_555 1_555
C1B C1 1_555 1_555
C2B C1B 1_555 1_555
N2B Hg1_2 1_555 1_555
N2B_2 Hg1 1_555 1_555
C3B N2B 1_555 1_555
H1B C3B 1_555 1_555
C4B C3B 1_555 1_555
H2B C4B 1_555 1_555
C5B C4B 1_555 1_555
H3B C5B 1_555 1_555
C6B C2B 1_555 1_555
H4B C6B 1_555 1_555
C7B C7 1_555 1_555
C8B C7B 1_555 1_555
H5B C8B 1_555 1_555
C9B C9 1_555 1_555
C10B C9B 1_555 1_555
H6B C10B 1_555 1_555
H7B C10B 1_555 1_555
H8B C10B 1_555 1_555
C2 N2 1_555 1_555
C5 C6 1_555 1_555
N1B C7B 1_555 1_555
C2B N2B 1_555 1_555
C5B C6B 1_555 1_555
C8B C9B 1_555 1_555

#END
