
#######################################################################
#
#                 Cambridge Crystallographic Data Centre
#                                CCDC 
#
#######################################################################
#
# If this CIF has been generated from an entry in the Cambridge 
# Structural Database, then it will include bibliographic, chemical, 
# crystal, experimental, refinement or atomic coordinate data resulting 
# from the CCDC's data processing and validation procedures.
#
#######################################################################

data_QIVWOI
_symmetry_cell_setting           monoclinic
_symmetry_space_group_name_H-M   'P 21/c'
_symmetry_Int_Tables_number      14
_space_group_name_Hall           '-P 2ybc'
loop_
_symmetry_equiv_pos_site_id
_symmetry_equiv_pos_as_xyz
1 x,y,z
2 -x,1/2+y,1/2-z
3 -x,-y,-z
4 x,1/2-y,1/2+z
_cell_length_a                   12.561(2)
_cell_length_b                   12.5777(17)
_cell_length_c                   14.821(3)
_cell_angle_alpha                90
_cell_angle_beta                 116.443(14)
_cell_angle_gamma                90
_cell_volume                     2096.57
loop_
_atom_site_label
_atom_site_type_symbol
_atom_site_fract_x
_atom_site_fract_y
_atom_site_fract_z
Hg1 Hg -0.27686(4) -0.22333(3) -0.49367(3)
N1 N -0.5206(8) -0.1575(7) -0.5109(8)
O1 O -0.4574(6) -0.2188(7) -0.4408(5)
O2 O -0.4874(6) -0.1351(6) -0.5781(6)
O3 O -0.6094(6) -0.1123(7) -0.5137(6)
N2 N -0.0230(8) -0.2573(9) -0.5109(7)
O4 O -0.0790(7) -0.3153(6) -0.4780(6)
O5 O 0.0475(8) -0.2924(8) -0.5365(8)
O6 O -0.0448(9) -0.1588(8) -0.5182(8)
N3 N -0.3065(7) -0.1884(6) -0.6697(6)
C1 C -0.2873(7) -0.2819(9) -0.7026(6)
C2 C -0.3377(8) -0.3761(7) -0.6724(7)
N4 N -0.3460(6) -0.3674(5) -0.5849(5)
C3 C -0.3907(8) -0.4472(7) -0.5555(7)
H1 H -0.3945 -0.4405 -0.4945
C4 C -0.4320(8) -0.5398(7) -0.6090(7)
H2 H -0.4606 -0.5954 -0.5846
C5 C -0.4287(7) -0.5464(7) -0.7011(7)
H3 H -0.4563 -0.6072 -0.7404
C6 C -0.3846(8) -0.4627(7) -0.7344(8)
H4 H -0.3866 -0.4648 -0.7978
C7 C -0.2295(7) -0.2884(8) -0.7667(6)
C8 C -0.1855(8) -0.3881(7) -0.7901(7)
N5 N -0.1919(6) -0.3983(5) -0.8842(6)
C9 C -0.1445(8) -0.4847(7) -0.9049(7)
H5 H -0.1498 -0.4920 -0.9692
C10 C -0.0881(8) -0.5635(7) -0.8347(8)
H6 H -0.0576 -0.6233 -0.8521
C11 C -0.0776(8) -0.5520(7) -0.7383(7)
H7 H -0.0385 -0.6031 -0.6892
C12 C -0.1267(8) -0.4627(7) -0.7162(7)
H8 H -0.1199 -0.4532 -0.6516
N6 N -0.2049(6) -0.1995(5) -0.8024(6)
C13 C -0.2303(9) -0.1035(7) -0.7743(7)
C14 C -0.2084(8) -0.0089(7) -0.8128(8)
H9 H -0.1807 -0.0120 -0.8614
C15 C -0.2268(8) 0.0874(7) -0.7806(7)
C16 C -0.1931(10) 0.1891(7) -0.8176(9)
H10 H -0.2123 0.2495 -0.7879
H11 H -0.2365 0.1931 -0.8896
H12 H -0.1094 0.1888 -0.7984
C17 C -0.2744(8) 0.0935(6) -0.7104(7)
C18 C -0.3032(9) 0.2014(7) -0.6789(8)
H13 H -0.2812 0.2572 -0.7115
H14 H -0.2596 0.2092 -0.6072
H15 H -0.3869 0.2056 -0.6982
C19 C -0.2992(8) 0.0025(7) -0.6727(7)
H16 H -0.3310 0.0071 -0.6269
C20 C -0.2770(8) -0.0985(7) -0.7029(8)
Hg1C Hg -0.27686(4) -0.27667(3) -0.99367(3)
N5C N -0.1919(6) -0.1017(5) -0.3842(6)
N6C N -0.2049(6) -0.3005(5) -0.3024(6)
O7 O -0.133(2) -0.5198(19) -0.5044(19)
loop_
_geom_bond_atom_site_label_1
_geom_bond_atom_site_label_2
_geom_bond_site_symmetry_1
_geom_bond_site_symmetry_2
Hg1 O1 1_555 1_555
N1 O1 1_555 1_555
O2 Hg1 1_555 1_555
O3 N1 1_555 1_555
N2 O4 1_555 1_555
O4 Hg1 1_555 1_555
O5 N2 1_555 1_555
O6 N2 1_555 1_555
N3 Hg1 1_555 1_555
C1 N3 1_555 1_555
C2 C1 1_555 1_555
N4 Hg1 1_555 1_555
C3 N4 1_555 1_555
H1 C3 1_555 1_555
C4 C3 1_555 1_555
H2 C4 1_555 1_555
C5 C4 1_555 1_555
H3 C5 1_555 1_555
C6 C2 1_555 1_555
H4 C6 1_555 1_555
C7 C1 1_555 1_555
C8 C7 1_555 1_555
N5 C8 1_555 1_555
C9 N5 1_555 1_555
H5 C9 1_555 1_555
C10 C9 1_555 1_555
H6 C10 1_555 1_555
C11 C10 1_555 1_555
H7 C11 1_555 1_555
C12 C8 1_555 1_555
H8 C12 1_555 1_555
N6 C7 1_555 1_555
C13 N6 1_555 1_555
C14 C13 1_555 1_555
H9 C14 1_555 1_555
C15 C14 1_555 1_555
C16 C15 1_555 1_555
H10 C16 1_555 1_555
H11 C16 1_555 1_555
H12 C16 1_555 1_555
C17 C15 1_555 1_555
C18 C17 1_555 1_555
H13 C18 1_555 1_555
H14 C18 1_555 1_555
H15 C18 1_555 1_555
C19 C17 1_555 1_555
H16 C19 1_555 1_555
C20 N3 1_555 1_555
Hg1C N5 1_555 1_555
N5C Hg1 1_555 1_555
N6C Hg1 1_555 1_555
N1 O2 1_555 1_555
C2 N4 1_555 1_555
C5 C6 1_555 1_555
C11 C12 1_555 1_555
N6 Hg1C 1_555 1_555
C13 C20 1_555 1_555
C19 C20 1_555 1_555

#END
