
#######################################################################
#
#                 Cambridge Crystallographic Data Centre
#                                CCDC 
#
#######################################################################
#
# If this CIF has been generated from an entry in the Cambridge 
# Structural Database, then it will include bibliographic, chemical, 
# crystal, experimental, refinement or atomic coordinate data resulting 
# from the CCDC's data processing and validation procedures.
#
#######################################################################

data_QIVWEY
_symmetry_cell_setting           monoclinic
_symmetry_space_group_name_H-M   'P 21/c'
_symmetry_Int_Tables_number      14
_space_group_name_Hall           '-P 2ybc'
loop_
_symmetry_equiv_pos_site_id
_symmetry_equiv_pos_as_xyz
1 x,y,z
2 -x,1/2+y,1/2-z
3 -x,-y,-z
4 x,1/2-y,1/2+z
_cell_length_a                   8.1574(8)
_cell_length_b                   27.802(4)
_cell_length_c                   10.3647(10)
_cell_angle_alpha                90
_cell_angle_beta                 99.776(8)
_cell_angle_gamma                90
_cell_volume                     2316.5
loop_
_atom_site_label
_atom_site_type_symbol
_atom_site_fract_x
_atom_site_fract_y
_atom_site_fract_z
Hg1 Hg 0.39073(2) 0.125018(8) 0.58049(2)
C1 C 0.2644(8) 0.1809(2) 0.4643(7)
F1 F 0.1392(6) 0.20061(17) 0.5149(5)
F2 F 0.1966(12) 0.1681(3) 0.3468(5)
F3 F 0.3570(7) 0.2195(2) 0.4524(8)
C2 C 0.5095(9) 0.0641(2) 0.6726(7)
F4 F 0.6066(8) 0.03969(17) 0.6047(6)
F5 F 0.6197(8) 0.07482(19) 0.7788(5)
F6 F 0.4122(7) 0.0321(2) 0.7079(10)
N1 N 0.0453(6) 0.09261(16) 0.5963(5)
C3 C -0.0178(6) 0.1255(2) 0.6657(5)
C4 C 0.0782(7) 0.13462(18) 0.7988(6)
N2 N 0.2432(6) 0.14105(18) 0.8063(5)
C5 C 0.3321(9) 0.1480(3) 0.9272(7)
H1 H 0.4463 0.1526 0.9346
C6 C 0.2647(10) 0.1488(3) 1.0394(8)
H2 H 0.3314 0.1540 1.1203
C7 C 0.0966(10) 0.1415(3) 1.0304(7)
H3 H 0.0477 0.1410 1.1051
C8 C 0.0016(9) 0.1351(2) 0.9080(7)
H4 H -0.1129 0.1310 0.8991
C9 C -0.1675(7) 0.14970(18) 0.6160(6)
C10 C -0.2286(7) 0.19208(19) 0.6834(6)
N3 N -0.3881(6) 0.19135(17) 0.6981(6)
C11 C -0.4470(9) 0.2301(2) 0.7534(8)
H5 H -0.5579 0.2302 0.7640
C12 C -0.3506(9) 0.2698(2) 0.7951(8)
H6 H -0.3953 0.2958 0.8339
C13 C -0.1879(9) 0.2702(2) 0.7780(8)
H7 H -0.1206 0.2966 0.8043
C14 C -0.1241(8) 0.2307(2) 0.7212(7)
H8 H -0.0139 0.2302 0.7088
N4 N -0.2596(6) 0.13798(15) 0.5019(5)
C15 C -0.1964(7) 0.10339(18) 0.4301(6)
C16 C -0.2835(8) 0.0910(2) 0.3052(6)
H9 H -0.3866 0.1049 0.2753
C17 C -0.2198(8) 0.05892(19) 0.2271(6)
C18 C -0.3132(10) 0.0468(2) 0.0924(7)
H10 H -0.2505 0.0239 0.0515
H11 H -0.3288 0.0755 0.0403
H12 H -0.4196 0.0334 0.0999
C19 C -0.0597(9) 0.0371(2) 0.2729(6)
C20 C 0.0129(12) 0.0021(3) 0.1869(7)
H13 H -0.0617 -0.0015 0.1053
H14 H 0.0286 -0.0286 0.2300
H15 H 0.1181 0.0139 0.1708
C21 C 0.0231(8) 0.0483(2) 0.3947(6)
H16 H 0.1245 0.0335 0.4254
C22 C -0.0413(7) 0.08190(18) 0.4758(6)
Hg1_2 Hg -0.60927(2) 0.125018(8) 0.58049(2)
N3_2 N 0.6119(6) 0.19135(17) 0.6981(6)
N4_2 N 0.7404(6) 0.13798(15) 0.5019(5)
loop_
_geom_bond_atom_site_label_1
_geom_bond_atom_site_label_2
_geom_bond_site_symmetry_1
_geom_bond_site_symmetry_2
Hg1 C1 1_555 1_555
C1 F1 1_555 1_555
F2 C1 1_555 1_555
F3 C1 1_555 1_555
C2 Hg1 1_555 1_555
F4 C2 1_555 1_555
F5 C2 1_555 1_555
F6 C2 1_555 1_555
N1 Hg1 1_555 1_555
C3 N1 1_555 1_555
C4 C3 1_555 1_555
N2 Hg1 1_555 1_555
C5 N2 1_555 1_555
H1 C5 1_555 1_555
C6 C5 1_555 1_555
H2 C6 1_555 1_555
C7 C6 1_555 1_555
H3 C7 1_555 1_555
C8 C4 1_555 1_555
H4 C8 1_555 1_555
C9 C3 1_555 1_555
C10 C9 1_555 1_555
N3 C10 1_555 1_555
C11 N3 1_555 1_555
H5 C11 1_555 1_555
C12 C11 1_555 1_555
H6 C12 1_555 1_555
C13 C12 1_555 1_555
H7 C13 1_555 1_555
C14 C10 1_555 1_555
H8 C14 1_555 1_555
N4 C9 1_555 1_555
C15 N4 1_555 1_555
C16 C15 1_555 1_555
H9 C16 1_555 1_555
C17 C16 1_555 1_555
C18 C17 1_555 1_555
H10 C18 1_555 1_555
H11 C18 1_555 1_555
H12 C18 1_555 1_555
C19 C17 1_555 1_555
C20 C19 1_555 1_555
H13 C20 1_555 1_555
H14 C20 1_555 1_555
H15 C20 1_555 1_555
C21 C19 1_555 1_555
H16 C21 1_555 1_555
C22 N1 1_555 1_555
Hg1_2 N3 1_555 1_555
N3_2 Hg1 1_555 1_555
N4_2 Hg1 1_555 1_555
C4 N2 1_555 1_555
C7 C8 1_555 1_555
C13 C14 1_555 1_555
N4 Hg1_2 1_555 1_555
C15 C22 1_555 1_555
C21 C22 1_555 1_555

#END
