
#######################################################################
#
#                 Cambridge Crystallographic Data Centre
#                                CCDC 
#
#######################################################################
#
# If this CIF has been generated from an entry in the Cambridge 
# Structural Database, then it will include bibliographic, chemical, 
# crystal, experimental, refinement or atomic coordinate data resulting 
# from the CCDC's data processing and validation procedures.
#
#######################################################################

data_QIVXEZ
_symmetry_cell_setting           orthorhombic
_symmetry_space_group_name_H-M   'P 21 21 21'
_symmetry_Int_Tables_number      19
_space_group_name_Hall           'P 2ac 2ab'
loop_
_symmetry_equiv_pos_site_id
_symmetry_equiv_pos_as_xyz
1 x,y,z
2 1/2-x,-y,1/2+z
3 -x,1/2+y,1/2-z
4 1/2+x,1/2-y,-z
_cell_length_a                   11.6323(12)
_cell_length_b                   12.8705(14)
_cell_length_c                   14.5809(16)
_cell_angle_alpha                90
_cell_angle_beta                 90
_cell_angle_gamma                90
_cell_volume                     2182.96
loop_
_atom_site_label
_atom_site_type_symbol
_atom_site_fract_x
_atom_site_fract_y
_atom_site_fract_z
Cd1 Cd 0.00528(4) 0.71665(3) 0.21963(3)
S1 S 0.05233(16) 0.48213(14) 0.35359(12)
O1 O -0.0039(5) 0.5775(3) 0.3236(3)
O2 O 0.1682(5) 0.4704(5) 0.3213(4)
O3 O -0.0170(5) 0.3923(4) 0.3317(4)
O4 O 0.0113(5) 0.6854(4) 0.0565(3)
O5 O 0.0261(8) 0.5485(5) -0.0270(3)
O6 O 0.0303(6) 0.5378(4) 0.1227(3)
O7 O -0.0097(5) 0.8132(3) 0.3585(3)
H1 H -0.0361 0.8765 0.3546
N1 N 0.2011(4) 0.7235(5) 0.2224(4)
N2 N 0.8106(4) 0.7132(5) 0.2170(4)
N3 N 0.0175(8) 0.5883(5) 0.0507(4)
N4 N 0.0860(8) 0.5428(6) 0.7561(5)
H2 H 0.1529 0.5453 0.7812
H3 H 0.0252 0.5480 0.7894
C1 C 0.2595(6) 0.7514(6) 0.1478(6)
H4 H 0.2183 0.7738 0.0969
C2 C 0.3772(5) 0.7488(6) 0.1419(6)
H5 H 0.4142 0.7669 0.0876
C3 C 0.4417(5) 0.7178(5) 0.2204(5)
C4 C 0.3779(7) 0.6929(7) 0.2976(5)
H6 H 0.4160 0.6720 0.3505
C5 C 0.2607(6) 0.6983(7) 0.2981(5)
H7 H 0.2212 0.6841 0.3522
C6 C 0.5696(5) 0.7145(6) 0.2174(5)
C7 C 0.6307(6) 0.7306(8) 0.1397(5)
H8 H 0.5924 0.7423 0.0846
C8 C 0.7489(5) 0.7301(8) 0.1412(5)
H9 H 0.7879 0.7421 0.0866
C9 C 0.7518(6) 0.6924(8) 0.2909(6)
H10 H 0.7926 0.6749 0.3435
C10 C 0.6325(5) 0.6944(7) 0.2965(5)
H11 H 0.5955 0.6826 0.3521
C11 C 0.0583(7) 0.4985(7) 0.4734(6)
C12 C 0.1618(7) 0.5021(7) 0.5122(6)
H12 H 0.2277 0.4917 0.4773
C13 C 0.1701(7) 0.5227(7) 0.6113(6)
H13 H 0.2427 0.5303 0.6372
C14 C 0.0767(8) 0.5312(6) 0.6665(5)
C15 C -0.0384(8) 0.5276(6) 0.6245(5)
C16 C -0.1364(8) 0.5399(6) 0.6748(7)
H14 H -0.1314 0.5510 0.7377
C17 C -0.2419(9) 0.5360(8) 0.6333(6)
H15 H -0.3076 0.5453 0.6687
C18 C -0.2529(8) 0.5191(7) 0.5433(7)
H16 H -0.3256 0.5165 0.5168
C19 C -0.1583(8) 0.5059(6) 0.4909(7)
H17 H -0.1689 0.4946 0.4284
C20 C -0.0449(6) 0.5081(6) 0.5243(6)
C21 C -0.0102(11) 0.7850(7) 0.4528(5)
H18 H -0.0521 0.7213 0.4605
H19 H -0.0463 0.8390 0.4879
H20 H 0.0674 0.7757 0.4736
Cd1B Cd -0.00528(4) 0.21665(3) 0.28037(3)
Cd1_2 Cd 1.00528(4) 0.71665(3) 0.21963(3)
O3B O 0.0170(5) 0.8923(4) 0.1683(4)
N2_2 N -0.1894(4) 0.7132(5) 0.2170(4)
loop_
_geom_bond_atom_site_label_1
_geom_bond_atom_site_label_2
_geom_bond_site_symmetry_1
_geom_bond_site_symmetry_2
Cd1 O1 1_555 1_555
S1 O1 1_555 1_555
O2 S1 1_555 1_555
O3 S1 1_555 1_555
O4 Cd1 1_555 1_555
O5 N3 1_555 1_555
O6 Cd1 1_555 1_555
O7 Cd1 1_555 1_555
H1 O7 1_555 1_555
N1 Cd1 1_555 1_555
N2 C8 1_555 1_555
N3 O4 1_555 1_555
N4 H2 1_555 1_555
H3 N4 1_555 1_555
C1 N1 1_555 1_555
H4 C1 1_555 1_555
C2 C1 1_555 1_555
H5 C2 1_555 1_555
C3 C2 1_555 1_555
C4 C3 1_555 1_555
H6 C4 1_555 1_555
C5 N1 1_555 1_555
H7 C5 1_555 1_555
C6 C3 1_555 1_555
C7 C6 1_555 1_555
H8 C7 1_555 1_555
C8 C7 1_555 1_555
H9 C8 1_555 1_555
C9 N2 1_555 1_555
H10 C9 1_555 1_555
C10 C6 1_555 1_555
H11 C10 1_555 1_555
C11 S1 1_555 1_555
C12 C11 1_555 1_555
H12 C12 1_555 1_555
C13 C12 1_555 1_555
H13 C13 1_555 1_555
C14 N4 1_555 1_555
C15 C14 1_555 1_555
C16 C15 1_555 1_555
H14 C16 1_555 1_555
C17 C16 1_555 1_555
H15 C17 1_555 1_555
C18 C17 1_555 1_555
H16 C18 1_555 1_555
C19 C18 1_555 1_555
H17 C19 1_555 1_555
C20 C11 1_555 1_555
C21 O7 1_555 1_555
H18 C21 1_555 1_555
H19 C21 1_555 1_555
H20 C21 1_555 1_555
Cd1B O3 1_555 1_555
Cd1_2 N2 1_555 1_555
O3B Cd1 1_555 1_555
N2_2 Cd1 1_555 1_555
O6 N3 1_555 1_555
C4 C5 1_555 1_555
C9 C10 1_555 1_555
C13 C14 1_555 1_555
C15 C20 1_555 1_555
C19 C20 1_555 1_555

#END
