
#######################################################################
#
#                 Cambridge Crystallographic Data Centre
#                                CCDC 
#
#######################################################################
#
# If this CIF has been generated from an entry in the Cambridge 
# Structural Database, then it will include bibliographic, chemical, 
# crystal, experimental, refinement or atomic coordinate data resulting 
# from the CCDC's data processing and validation procedures.
#
#######################################################################

data_QIWBAB
_symmetry_cell_setting           orthorhombic
_symmetry_space_group_name_H-M   'P c a 21'
_symmetry_Int_Tables_number      29
_space_group_name_Hall           'P 2c -2ac'
loop_
_symmetry_equiv_pos_site_id
_symmetry_equiv_pos_as_xyz
1 x,y,z
2 -x,-y,1/2+z
3 1/2-x,y,1/2+z
4 1/2+x,-y,z
_cell_length_a                   11.0697(6)
_cell_length_b                   22.2083(11)
_cell_length_c                   19.5333(11)
_cell_angle_alpha                90
_cell_angle_beta                 90
_cell_angle_gamma                90
_cell_volume                     4802.05
loop_
_atom_site_label
_atom_site_type_symbol
_atom_site_fract_x
_atom_site_fract_y
_atom_site_fract_z
Zn1 Zn 0.72752(6) 0.63248(3) 0.68133(3)
Zn2 Zn 0.80492(6) 0.13126(3) 0.49058(3)
O1 O 0.8272(5) 0.26409(19) 0.4631(3)
O2 O 0.8228(4) 0.20137(18) 0.5519(2)
O3 O 0.7526(5) 0.56950(17) 0.6130(3)
O4 O 0.7582(5) 0.50565(19) 0.7003(2)
O5 O 0.7905(5) 1.06920(19) 0.5614(3)
N1 N 0.6511(5) 0.1383(2) 0.4357(3)
O6 O 0.7013(4) 0.70247(19) 0.6213(3)
O7 O 0.7028(5) 0.7649(2) 0.7103(3)
O8 O 0.7692(4) 1.00650(18) 0.4727(2)
N2 N 0.8807(5) 0.6399(2) 0.7366(3)
N3 N -0.0466(5) 0.1235(2) 0.4320(3)
N4 N 1.5780(5) 0.6236(2) 0.7399(3)
C1 C 1.3914(6) 0.6624(3) 0.7798(4)
H1 H 1.3353 0.6935 0.7797
C2 C 0.1603(6) 0.1106(3) 0.3507(3)
N5 N 0.3499(5) 0.1464(2) 0.3073(3)
C3 C 0.7008(6) 0.8052(3) 0.5979(4)
H2 H 0.6889 0.7960 0.5519
N6 N 0.2578(5) 0.1025(2) 0.3096(3)
C4 C 0.4446(6) 0.1428(3) 0.3501(3)
C5 C 1.0880(5) 0.6441(3) 0.8197(3)
C6 C 1.0738(5) 0.6005(3) 0.7686(4)
H3 H 1.1331 0.5715 0.7614
N7 N 1.2716(5) 0.6037(2) 0.8616(3)
C7 C 0.7012(6) 0.7552(3) 0.6481(4)
C8 C 0.8954(6) 0.6823(3) 0.7857(4)
H4 H 0.8344 0.7107 0.7916
N8 N 1.1839(5) 0.6475(2) 0.8623(3)
C9 C 0.8035(6) 0.3610(3) 0.5580(4)
H5 H 0.8004 0.3700 0.5115
C10 C 0.6375(6) 0.1809(3) 0.3862(3)
H6 H 0.6984 0.2095 0.3810
C11 C 1.4593(6) 0.5661(3) 0.8169(4)
H7 H 1.4493 0.5308 0.8420
C12 C 0.7165(6) 0.8626(3) 0.6154(4)
H8 H 0.7190 0.8720 0.6618
C13 C 0.0369(6) 0.1670(2) 0.4264(3)
H9 H 0.0238 0.2024 0.4507
C14 C 0.7619(6) 0.5165(2) 0.6398(3)
C15 C 0.7298(6) 0.9110(3) 0.5671(4)
H10 H 0.7195 0.9025 0.5209
C16 C 0.5592(6) 0.0988(3) 0.4423(3)
H11 H 0.5662 0.0691 0.4756
C17 C 0.9932(6) 0.6860(3) 0.8265(3)
H12 H 0.9982 0.7163 0.8592
C18 C 1.3714(5) 0.6111(3) 0.8196(3)
C19 C 0.8179(6) 0.3039(3) 0.5763(4)
H13 H 0.8251 0.2947 0.6226
C20 C 0.4568(6) 0.0993(2) 0.4034(4)
H14 H 0.3956 0.0716 0.4116
C21 C -0.0253(6) 0.0723(3) 0.3954(4)
H15 H -0.0812 0.0411 0.3980
C22 C 0.0746(6) 0.0645(3) 0.3551(4)
H16 H 0.0853 0.0289 0.3307
C23 C 0.9722(6) 0.6011(3) 0.7296(4)
H17 H 0.9658 0.5722 0.6953
C24 C 0.8230(6) 0.2539(3) 0.5252(4)
C25 C 0.1386(6) 0.1633(2) 0.3883(3)
H18 H 0.1931 0.1951 0.3870
C26 C 0.5404(6) 0.1842(3) 0.3441(3)
H19 H 0.5370 0.2141 0.3108
C27 C 0.7736(7) 1.0160(3) 0.5352(4)
C28 C 0.7794(7) 0.4673(3) 0.5880(4)
H20 H 0.7814 0.4768 0.5417
C29 C 1.4930(6) 0.6666(3) 0.7412(3)
H21 H 1.5042 0.7009 0.7146
C30 C 1.5590(6) 0.5738(3) 0.7780(3)
H22 H 1.6170 0.5435 0.7774
C31 C 0.7560(7) 0.9672(3) 0.5849(4)
H23 H 0.7637 0.9761 0.6312
C32 C 0.7921(6) 0.4110(3) 0.6071(4)
H24 H 0.7940 0.4023 0.6537
Zn1_2 Zn 1.72752(6) 0.63248(3) 0.68133(3)
Zn2_2 Zn -0.19508(6) 0.13126(3) 0.49058(3)
Zn2_3 Zn 0.80492(6) 1.13126(3) 0.49058(3)
O5_2 O 0.7905(5) 0.06920(19) 0.5614(3)
N3_2 N 0.9534(5) 0.1235(2) 0.4320(3)
N4_2 N 0.5780(5) 0.6236(2) 0.7399(3)
O9 O 0.2736(6) 0.4875(2) 0.4081(3)
N9 N 0.1295(7) 0.4282(3) 0.4597(4)
C33 C 0.2324(8) 0.4384(3) 0.4250(4)
H25 H 0.2771 0.4046 0.4124
C34 C 0.1010(8) 0.3670(4) 0.4796(5)
H26 H 0.0255 0.3665 0.5039
H27 H 0.1637 0.3517 0.5087
H28 H 0.0947 0.3422 0.4395
C35 C 0.0537(8) 0.4742(6) 0.4806(5)
H29 H -0.0143 0.4574 0.5045
H30 H 0.0258 0.4961 0.4413
H31 H 0.0968 0.5008 0.5106
O10 O 0.3506(8) -0.0005(3) 0.2470(4)
N10 N 0.3784(9) -0.0984(4) 0.2160(4)
C36 C 0.3220(12) -0.0512(5) 0.2509(6)
H32 H 0.2571 -0.0606 0.2791
C37 C 0.4721(13) -0.0890(7) 0.1690(6)
H33 H 0.4981 -0.1270 0.1508
H34 H 0.5386 -0.0697 0.1917
H35 H 0.4438 -0.0639 0.1324
C38 C 0.348(2) -0.1606(5) 0.2251(10)
H36 H 0.3983 -0.1849 0.1960
H37 H 0.2649 -0.1669 0.2135
H38 H 0.3614 -0.1718 0.2720
O11 O 0.3374(9) 0.2846(4) 0.4164(4)
N11 N 0.4547(7) 0.2868(3) 0.5125(5)
C39 C 0.4671(11) 0.3513(5) 0.5092(8)
H39 H 0.5172 0.3649 0.5462
H40 H 0.3888 0.3696 0.5128
H41 H 0.5034 0.3623 0.4664
C40 C 0.4977(10) 0.2534(7) 0.5766(9)
H42 H 0.5444 0.2802 0.6046
H43 H 0.5467 0.2197 0.5633
H44 H 0.4290 0.2393 0.6020
C41 C 0.3871(10) 0.2593(5) 0.4645(6)
H45 H 0.3774 0.2178 0.4681
O12 O 0.0733(9) -0.0698(4) 0.1964(5)
O13 O 0.0880(13) -0.1966(5) 0.1883(5)
loop_
_geom_bond_atom_site_label_1
_geom_bond_atom_site_label_2
_geom_bond_site_symmetry_1
_geom_bond_site_symmetry_2
Zn1 O3 1_555 1_555
Zn2 O2 1_555 1_555
O1 C24 1_555 1_555
O2 C24 1_555 1_555
O3 C14 1_555 1_555
O4 C14 1_555 1_555
O5 C27 1_555 1_555
N1 Zn2 1_555 1_555
O6 Zn1 1_555 1_555
O7 C7 1_555 1_555
O8 C27 1_555 1_555
N2 Zn1 1_555 1_555
N3 C13 1_555 1_555
N4 C29 1_555 1_555
C1 H1 1_555 1_555
C2 N6 1_555 1_555
N5 N6 1_555 1_555
C3 H2 1_555 1_555
C4 N5 1_555 1_555
C5 C6 1_555 1_555
C6 H3 1_555 1_555
N7 N8 1_555 1_555
C7 O6 1_555 1_555
C8 N2 1_555 1_555
H4 C8 1_555 1_555
N8 C5 1_555 1_555
C9 H5 1_555 1_555
C10 N1 1_555 1_555
H6 C10 1_555 1_555
C11 H7 1_555 1_555
C12 C3 1_555 1_555
H8 C12 1_555 1_555
C13 H9 1_555 1_555
C14 C28 1_555 1_555
C15 C12 1_555 1_555
H10 C15 1_555 1_555
C16 N1 1_555 1_555
H11 C16 1_555 1_555
C17 C5 1_555 1_555
H12 C17 1_555 1_555
C18 C1 1_555 1_555
C19 C9 1_555 1_555
H13 C19 1_555 1_555
C20 C4 1_555 1_555
H14 C20 1_555 1_555
C21 N3 1_555 1_555
H15 C21 1_555 1_555
C22 C2 1_555 1_555
H16 C22 1_555 1_555
C23 N2 1_555 1_555
H17 C23 1_555 1_555
C24 C19 1_555 1_555
C25 C2 1_555 1_555
H18 C25 1_555 1_555
C26 C4 1_555 1_555
H19 C26 1_555 1_555
C27 C31 1_555 1_555
C28 H20 1_555 1_555
C29 C1 1_555 1_555
H21 C29 1_555 1_555
C30 N4 1_555 1_555
H22 C30 1_555 1_555
C31 C15 1_555 1_555
H23 C31 1_555 1_555
C32 C9 1_555 1_555
H24 C32 1_555 1_555
O9 C33 1_555 1_555
N9 C33 1_555 1_555
C33 H25 1_555 1_555
C34 N9 1_555 1_555
H26 C34 1_555 1_555
H27 C34 1_555 1_555
H28 C34 1_555 1_555
C35 N9 1_555 1_555
H29 C35 1_555 1_555
H30 C35 1_555 1_555
H31 C35 1_555 1_555
O10 C36 1_555 1_555
N10 C36 1_555 1_555
C36 H32 1_555 1_555
C37 N10 1_555 1_555
H33 C37 1_555 1_555
H34 C37 1_555 1_555
H35 C37 1_555 1_555
C38 N10 1_555 1_555
H36 C38 1_555 1_555
H37 C38 1_555 1_555
H38 C38 1_555 1_555
O11 C41 1_555 1_555
N11 C39 1_555 1_555
C39 H39 1_555 1_555
H40 C39 1_555 1_555
H41 C39 1_555 1_555
C40 N11 1_555 1_555
H42 C40 1_555 1_555
H43 C40 1_555 1_555
H44 C40 1_555 1_555
C41 N11 1_555 1_555
H45 C41 1_555 1_555
Zn1_2 N4 1_555 1_555
Zn2_2 N3 1_555 1_555
Zn2_3 O5 1_555 1_555
O5_2 Zn2 1_555 1_555
N3_2 Zn2 1_555 1_555
N4_2 Zn1 1_555 1_555
C3 C7 1_555 1_555
C6 C23 1_555 1_555
N7 C18 1_555 1_555
C8 C17 1_555 1_555
C10 C26 1_555 1_555
C11 C18 1_555 1_555
C11 C30 1_555 1_555
C13 C25 1_555 1_555
C16 C20 1_555 1_555
C21 C22 1_555 1_555
C28 C32 1_555 1_555

#END
