
#######################################################################
#
#                 Cambridge Crystallographic Data Centre
#                                CCDC 
#
#######################################################################
#
# If this CIF has been generated from an entry in the Cambridge 
# Structural Database, then it will include bibliographic, chemical, 
# crystal, experimental, refinement or atomic coordinate data resulting 
# from the CCDC's data processing and validation procedures.
#
#######################################################################

data_QIWBOO
_symmetry_cell_setting           triclinic
_symmetry_space_group_name_H-M   'P -1'
_symmetry_Int_Tables_number      2
_space_group_name_Hall           '-P 1'
loop_
_symmetry_equiv_pos_site_id
_symmetry_equiv_pos_as_xyz
1 x,y,z
2 -x,-y,-z
_cell_length_a                   6.3045(19)
_cell_length_b                   7.004(2)
_cell_length_c                   7.921(3)
_cell_angle_alpha                76.114(5)
_cell_angle_beta                 74.023(5)
_cell_angle_gamma                69.254(4)
_cell_volume                     310.477
loop_
_atom_site_label
_atom_site_type_symbol
_atom_site_fract_x
_atom_site_fract_y
_atom_site_fract_z
Mn1 Mn 0.5000 0.5000 0.5000
N1 N 0.5340(3) 0.6503(3) 0.2047(2)
N2 N 0.3436(3) 0.7706(3) 0.1453(3)
N3 N 0.3983(3) 0.8150(3) -0.0290(3)
N4 N 0.6231(3) 0.7262(3) -0.0884(3)
N5 N 0.9298(3) 0.5066(3) 0.0728(2)
C1 C 0.7022(4) 0.6259(3) 0.0583(3)
O1 O 0.6633(4) 0.6957(3) 0.5510(2)
O2 O 0.8379(3) 0.2738(3) 0.4338(3)
H1 H 0.733(6) 0.777(5) 0.478(4)
H2 H 0.663(6) 0.708(5) 0.656(2)
H3 H 0.845(6) 0.165(3) 0.399(4)
H4 H 0.936(6) 0.319(7) 0.349(4)
Mn1_2 Mn 1.5000 0.5000 -0.5000
N1A N 1.4660(3) 0.3497(3) -0.2047(2)
N1A_2 N 0.4660(3) 0.3497(3) 0.7953(2)
N2A N 1.6564(3) 0.2294(3) -0.1453(3)
N3A N 1.6017(3) 0.1850(3) 0.0290(3)
N4A N 1.3769(3) 0.2738(3) 0.0884(3)
N5A N 1.0702(3) 0.4934(3) -0.0728(2)
C1A C 1.2978(4) 0.3741(3) -0.0583(3)
O1A O 0.3367(4) 0.3043(3) 0.4490(2)
O2A O 0.1621(3) 0.7262(3) 0.5662(3)
H1A H 0.267(6) 0.223(5) 0.522(4)
H2A H 0.337(6) 0.292(5) 0.344(2)
H3A H 0.155(6) 0.835(3) 0.601(4)
H4A H 0.064(6) 0.681(7) 0.651(4)
O3 O 0.1368(3) 0.0544(3) 0.7090(2)
H5 H 0.207(5) -0.005(5) 0.794(3)
H6 H -0.005(2) 0.119(4) 0.750(4)
loop_
_geom_bond_atom_site_label_1
_geom_bond_atom_site_label_2
_geom_bond_site_symmetry_1
_geom_bond_site_symmetry_2
Mn1 N1 1_555 1_555
N1 N2 1_555 1_555
N2 N3 1_555 1_555
N3 N4 1_555 1_555
N4 C1 1_555 1_555
N5 C1 1_555 1_555
C1 N1 1_555 1_555
O1 Mn1 1_555 1_555
O2 Mn1 1_555 1_555
O3 H5 1_555 1_555
H1 O1 1_555 1_555
H2 O1 1_555 1_555
H3 O2 1_555 1_555
H4 O2 1_555 1_555
H6 O3 1_555 1_555
Mn1_2 N1A 1_555 1_555
N1A N2A 1_555 1_555
N1A_2 Mn1 1_555 1_555
N2A N3A 1_555 1_555
N3A N4A 1_555 1_555
N4A C1A 1_555 1_555
N5A N5 1_555 1_555
C1A N1A 1_555 1_555
O1A Mn1 1_555 1_555
O2A Mn1 1_555 1_555
H1A O1A 1_555 1_555
H2A O1A 1_555 1_555
H3A O2A 1_555 1_555
H4A O2A 1_555 1_555
N5A C1A 1_555 1_555

#END
