
#######################################################################
#
#                 Cambridge Crystallographic Data Centre
#                                CCDC 
#
#######################################################################
#
# If this CIF has been generated from an entry in the Cambridge 
# Structural Database, then it will include bibliographic, chemical, 
# crystal, experimental, refinement or atomic coordinate data resulting 
# from the CCDC's data processing and validation procedures.
#
#######################################################################

data_QIWDUX
_symmetry_cell_setting           monoclinic
_symmetry_space_group_name_H-M   'P 21/n'
_symmetry_Int_Tables_number      14
_space_group_name_Hall           '-P 2yn'
loop_
_symmetry_equiv_pos_site_id
_symmetry_equiv_pos_as_xyz
1 x,y,z
2 1/2-x,1/2+y,1/2-z
3 -x,-y,-z
4 1/2+x,1/2-y,1/2+z
_cell_length_a                   8.281(3)
_cell_length_b                   15.288(6)
_cell_length_c                   18.093(7)
_cell_angle_alpha                90
_cell_angle_beta                 96.566(5)
_cell_angle_gamma                90
_cell_volume                     2275.55
loop_
_atom_site_label
_atom_site_type_symbol
_atom_site_fract_x
_atom_site_fract_y
_atom_site_fract_z
Cu1 Cu 0.46190(4) 0.58560(2) 0.036811(18)
N1 N 0.5581(3) 0.64571(17) 0.13142(13)
N2 N 0.7559(3) 0.7407(2) 0.19420(14)
N3 N -0.4887(3) 0.82316(18) 0.89089(14)
N4 N -0.4496(3) 0.68821(18) 0.95490(13)
N5 N 0.1484(4) 0.6122(2) 0.06871(17)
O1 O 0.3149(2) 0.60158(14) 0.53630(11)
O2 O 0.0110(2) 0.59499(14) 0.60576(11)
O3 O 0.2503(3) 0.65343(15) 0.03262(12)
O4 O 0.0125(3) 0.6418(2) 0.0678(2)
O5 O 0.1936(3) 0.54655(18) 0.10402(16)
O6 O 0.6186(2) 0.49125(15) 0.04425(11)
C1 C 0.6829(4) 0.7008(2) 0.13369(17)
H1 H 0.7232 0.7127 0.0888
C2 C 0.6978(4) 0.7209(2) 0.25761(16)
H2 H 0.7453 0.7478 0.3008
C3 C 0.5707(3) 0.6627(2) 0.26380(15)
C4 C 0.5023(4) 0.6275(2) 0.19642(16)
H3 H 0.4142 0.5898 0.1965
C5 C 0.5086(3) 0.6418(2) 0.33611(15)
C6 C 0.5317(4) 0.7002(2) 0.39557(15)
H4 H 0.5909 0.7512 0.3906
C7 C 0.4686(4) 0.6841(2) 0.46156(15)
H5 H 0.4862 0.7239 0.5005
C8 C 0.3790(3) 0.6089(2) 0.47005(15)
C9 C 0.3594(4) 0.5475(2) 0.41274(16)
H6 H 0.3043 0.4955 0.4187
C10 C 0.4233(4) 0.5652(2) 0.34665(16)
H7 H 0.4087 0.5245 0.3082
C11 C 0.2213(4) 0.5255(2) 0.54811(16)
H8 H 0.2902 0.4740 0.5510
H9 H 0.1360 0.5179 0.5072
C12 C 0.1485(4) 0.5375(2) 0.61981(16)
H10 H 0.1144 0.4815 0.6378
H11 H 0.2283 0.5626 0.6573
C13 C -0.0742(3) 0.6163(2) 0.66404(15)
C14 C -0.2067(4) 0.6710(2) 0.64720(15)
H12 H -0.2339 0.6898 0.5985
C15 C -0.2988(4) 0.6979(2) 0.70210(15)
H13 H -0.3890 0.7334 0.6898
C16 C -0.2569(3) 0.6718(2) 0.77663(15)
C17 C -0.1269(4) 0.6155(2) 0.79215(15)
H14 H -0.1001 0.5961 0.8407
C18 C -0.0347(4) 0.5870(2) 0.73683(16)
H15 H 0.0520 0.5488 0.7484
C19 C -0.3481(3) 0.7059(2) 0.83681(15)
C20 C -0.4106(4) 0.7902(2) 0.83648(16)
H16 H -0.3973 0.8258 0.7960
C21 C -0.5021(4) 0.7697(2) 0.94759(17)
H17 H -0.5540 0.7920 0.9864
C22 C -0.3716(4) 0.6564(2) 0.89943(16)
H18 H -0.3319 0.5995 0.9030
C23 C 0.7394(5) 0.4703(3) 0.1020(2)
H19 H 0.6958 0.4748 0.1488
H20 H 0.8289 0.5101 0.1014
H21 H 0.7765 0.4116 0.0955
Cu1_2 Cu -0.53810(4) 0.58560(2) 1.036811(18)
Cu1B Cu 0.53810(4) 0.41440(2) -0.036811(18)
N4_2 N 0.5504(3) 0.68821(18) -0.04510(13)
O6B O 0.3814(2) 0.50875(15) -0.04425(11)
loop_
_geom_bond_atom_site_label_1
_geom_bond_atom_site_label_2
_geom_bond_site_symmetry_1
_geom_bond_site_symmetry_2
Cu1 N1 1_555 1_555
N1 C1 1_555 1_555
N2 C1 1_555 1_555
N3 C20 1_555 1_555
N4 C21 1_555 1_555
N5 O3 1_555 1_555
O1 C8 1_555 1_555
O2 C12 1_555 1_555
O3 Cu1 1_555 1_555
O4 N5 1_555 1_555
O5 Cu1 1_555 1_555
O6 Cu1 1_555 1_555
C1 H1 1_555 1_555
C2 N2 1_555 1_555
H2 C2 1_555 1_555
C3 C2 1_555 1_555
C4 N1 1_555 1_555
H3 C4 1_555 1_555
C5 C3 1_555 1_555
C6 C5 1_555 1_555
H4 C6 1_555 1_555
C7 C6 1_555 1_555
H5 C7 1_555 1_555
C8 C7 1_555 1_555
C9 C8 1_555 1_555
H6 C9 1_555 1_555
C10 C5 1_555 1_555
H7 C10 1_555 1_555
C11 O1 1_555 1_555
H8 C11 1_555 1_555
H9 C11 1_555 1_555
C12 C11 1_555 1_555
H10 C12 1_555 1_555
H11 C12 1_555 1_555
C13 O2 1_555 1_555
C14 C13 1_555 1_555
H12 C14 1_555 1_555
C15 C14 1_555 1_555
H13 C15 1_555 1_555
C16 C15 1_555 1_555
C17 C16 1_555 1_555
H14 C17 1_555 1_555
C18 C13 1_555 1_555
H15 C18 1_555 1_555
C19 C16 1_555 1_555
C20 C19 1_555 1_555
H16 C20 1_555 1_555
C21 N3 1_555 1_555
H17 C21 1_555 1_555
C22 N4 1_555 1_555
H18 C22 1_555 1_555
C23 O6 1_555 1_555
H19 C23 1_555 1_555
H20 C23 1_555 1_555
H21 C23 1_555 1_555
Cu1_2 N4 1_555 1_555
Cu1B O6 1_555 1_555
N4_2 Cu1 1_555 1_555
O6B Cu1 1_555 1_555
N5 O5 1_555 1_555
C3 C4 1_555 1_555
C9 C10 1_555 1_555
C17 C18 1_555 1_555
C19 C22 1_555 1_555
Cu1B O6B 1_555 1_555

#END
