
#######################################################################
#
#                 Cambridge Crystallographic Data Centre
#                                CCDC 
#
#######################################################################
#
# If this CIF has been generated from an entry in the Cambridge 
# Structural Database, then it will include bibliographic, chemical, 
# crystal, experimental, refinement or atomic coordinate data resulting 
# from the CCDC's data processing and validation procedures.
#
#######################################################################

data_QIWGOU
_symmetry_cell_setting           monoclinic
_symmetry_space_group_name_H-M   'P 21/n'
_symmetry_Int_Tables_number      14
_space_group_name_Hall           '-P 2yn'
loop_
_symmetry_equiv_pos_site_id
_symmetry_equiv_pos_as_xyz
1 x,y,z
2 1/2-x,1/2+y,1/2-z
3 -x,-y,-z
4 1/2+x,1/2-y,1/2+z
_cell_length_a                   24.750(5)
_cell_length_b                   15.008(3)
_cell_length_c                   25.792(6)
_cell_angle_alpha                90
_cell_angle_beta                 111.957(2)
_cell_angle_gamma                90
_cell_volume                     8885.47
loop_
_atom_site_label
_atom_site_type_symbol
_atom_site_fract_x
_atom_site_fract_y
_atom_site_fract_z
Ru1 Ru 0.373778(15) 0.06079(2) 0.805764(15)
Sr1 Sr 0.232712(18) -0.21521(3) 0.999858(19)
O1 O 0.0751(3) 0.0086(10) 0.7012(4)
O2 O 0.0867(3) -0.0628(5) 0.6320(2)
O3 O 0.17874(18) 0.2910(3) 0.8955(2)
O4 O 0.25278(19) 0.3872(3) 0.92456(19)
O5 O 0.28314(18) -0.2813(3) 0.94123(17)
O6 O 0.3226(3) -0.3631(3) 0.8924(2)
O7 O 0.44286(15) -0.3462(3) 0.71573(14)
O8 O 0.46745(18) -0.2611(3) 0.65709(16)
O9 O 0.37612(16) 0.4588(3) 0.65640(16)
O10 O 0.46897(16) 0.4440(3) 0.71225(15)
O11 O 0.65731(16) 0.2411(3) 0.91976(16)
O12 O 0.67500(17) 0.1075(3) 0.95823(19)
O13 O 0.21216(18) -0.0736(4) 0.9433(2)
O14 O 0.24988(16) -0.3836(3) 1.02900(15)
N1 N 0.28795(16) 0.0359(3) 0.75695(17)
N2 N 0.33217(17) 0.1457(3) 0.84123(18)
N3 N 0.40525(17) -0.0396(3) 0.77073(17)
N4 N 0.36532(19) -0.0480(3) 0.85118(17)
N5 N 0.38481(16) 0.1691(3) 0.76111(16)
N6 N 0.45857(17) 0.0961(3) 0.85216(16)
C1 C 0.2684(2) -0.0189(3) 0.7123(2)
C2 C 0.2099(3) -0.0387(4) 0.6853(3)
C3 C 0.1697(2) -0.0016(5) 0.7038(3)
C4 C 0.1893(3) 0.0560(4) 0.7496(3)
C5 C 0.2482(2) 0.0749(4) 0.7751(2)
C6 C 0.2730(2) 0.1391(3) 0.8213(2)
C7 C 0.2395(3) 0.1898(4) 0.8423(3)
C8 C 0.2664(3) 0.2521(3) 0.8842(3)
C9 C 0.3265(3) 0.2586(4) 0.9048(3)
C10 C 0.3579(3) 0.2044(4) 0.8824(3)
C11 C 0.1058(3) -0.0214(8) 0.6766(3)
C12 C 0.2295(3) 0.3146(4) 0.9040(3)
C13 C 0.4298(2) -0.0309(3) 0.7324(2)
C14 C 0.4467(2) -0.1029(3) 0.70851(19)
C15 C 0.43643(19) -0.1893(3) 0.72378(18)
C16 C 0.4126(3) -0.1990(3) 0.7638(2)
C17 C 0.3970(2) -0.1245(3) 0.7865(2)
C18 C 0.3717(2) -0.1288(3) 0.8296(2)
C19 C 0.3548(3) -0.2080(3) 0.8482(2)
C20 C 0.3322(3) -0.2052(3) 0.8898(3)
C21 C 0.3281(3) -0.1229(4) 0.9131(3)
C22 C 0.3448(3) -0.0463(4) 0.8925(3)
C23 C 0.4508(2) -0.2707(3) 0.69678(19)
C24 C 0.3109(3) -0.2897(4) 0.9085(3)
C25 C 0.34351(19) 0.2053(3) 0.7158(2)
C26 C 0.3513(2) 0.2863(3) 0.6926(2)
C27 C 0.40427(19) 0.3307(3) 0.71658(19)
C28 C 0.44725(19) 0.2923(3) 0.76309(19)
C29 C 0.43671(18) 0.2127(3) 0.78447(18)
C30 C 0.48010(18) 0.1670(3) 0.83352(19)
C31 C 0.5382(2) 0.1928(4) 0.85835(19)
C32 C 0.57638(19) 0.1429(3) 0.90259(19)
C33 C 0.5538(3) 0.0707(4) 0.9218(3)
C34 C 0.4955(3) 0.0502(4) 0.8964(3)
C35 C 0.4167(2) 0.4182(3) 0.69352(19)
C36 C 0.6409(2) 0.1662(4) 0.9284(2)
H1 H 0.2958 -0.0448 0.6990
H2 H 0.1977 -0.0779 0.6541
H3 H 0.1623 0.0821 0.7633
H4 H 0.1984 0.1825 0.8283
H5 H 0.3461 0.2996 0.9338
H6 H 0.3992 0.2091 0.8969
H7 H 0.4359 0.0273 0.7212
H8 H 0.4649 -0.0941 0.6824
H9 H 0.4068 -0.2568 0.7759
H10 H 0.3588 -0.2635 0.8322
H11 H 0.3142 -0.1191 0.9427
H12 H 0.3415 0.0096 0.9084
H13 H 0.3076 0.1747 0.6989
H14 H 0.3210 0.3105 0.6610
H15 H 0.4839 0.3211 0.7801
H16 H 0.5518 0.2440 0.8453
H17 H 0.5784 0.0359 0.9522
H18 H 0.4805 0.0017 0.9105
Ru2 Ru -0.144365(15) -0.44399(2) 0.795133(17)
Sr2 Sr -0.484953(18) -0.44425(3) 0.792030(18)
O15 O -0.44545(15) -0.5279(3) 0.65310(17)
O16 O -0.44430(14) -0.4194(3) 0.71250(15)
O17 O -0.2955(3) -0.2383(5) 0.9444(3)
O18 O -0.2264(3) -0.1338(4) 0.9600(3)
O19 O -0.1902(2) -0.0538(3) 0.63149(16)
O20 O -0.0953(3) -0.0472(4) 0.6821(2)
O21 O 0.1077(3) -0.1898(4) 0.9151(3)
O22 O 0.14704(19) -0.3188(4) 0.9418(3)
O23 O -0.0541(3) -0.7112(4) 0.6168(3)
O24 O -0.0776(3) -0.8164(3) 0.6669(2)
O25 O -0.1306(3) -0.8824(3) 0.89382(19)
O26 O -0.1846(3) -0.8164(3) 0.9348(3)
O27 O -0.4699(3) -0.5045(6) 0.8953(3)
N7 N -0.23246(15) -0.4689(3) 0.76242(18)
N8 N -0.17247(16) -0.3647(3) 0.84637(18)
N9 N -0.14907(16) -0.3296(3) 0.74978(17)
N10 N -0.06009(16) -0.4005(3) 0.82871(18)
N11 N -0.12282(17) -0.5335(3) 0.74533(18)
N12 N -0.13459(17) -0.5604(3) 0.84005(18)
C37 C -0.2606(2) -0.5255(4) 0.7204(2)
C38 C -0.3215(2) -0.5332(4) 0.6969(2)
C39 C -0.35398(18) -0.4791(4) 0.7183(2)
C40 C -0.32560(19) -0.4239(4) 0.7635(2)
C41 C -0.26464(18) -0.4208(3) 0.7852(2)
C42 C -0.23097(19) -0.3638(3) 0.8328(2)
C43 C -0.2571(3) -0.3143(4) 0.8627(3)
C44 C -0.2228(3) -0.2607(4) 0.9066(3)
C45 C -0.1631(3) -0.2601(4) 0.9196(3)
C46 C -0.1392(3) -0.3135(4) 0.8893(3)
C47 C -0.41965(19) -0.4766(4) 0.69284(19)
C48 C -0.2515(3) -0.2077(5) 0.9397(3)
C49 C -0.1957(2) -0.3010(4) 0.7057(3)
C50 C -0.1962(2) -0.2214(4) 0.6794(2)
C51 C -0.14697(19) -0.1681(3) 0.69811(18)
C52 C -0.0988(2) -0.1949(3) 0.7443(2)
C53 C -0.10079(19) -0.2760(3) 0.7691(2)
C54 C -0.05100(19) -0.3149(3) 0.8154(2)
C55 C 0.0016(2) -0.2704(4) 0.8434(3)
C56 C 0.04729(19) -0.3167(4) 0.8830(3)
C57 C 0.0396(2) -0.4061(4) 0.8923(3)
C58 C -0.0142(2) -0.4462(4) 0.8653(3)
C59 C -0.1443(3) -0.0827(4) 0.6677(2)
C60 C 0.1044(3) -0.2713(4) 0.9165(3)
C61 C -0.1158(3) -0.5137(4) 0.6970(3)
C62 C -0.0999(3) -0.5762(4) 0.6664(3)
C63 C -0.0915(3) -0.6650(4) 0.6847(3)
C64 C -0.0996(2) -0.6857(4) 0.7340(3)
C65 C -0.11504(19) -0.6196(4) 0.7634(2)
C66 C -0.12582(19) -0.6343(4) 0.8155(2)
C67 C -0.1286(3) -0.7187(4) 0.8377(2)
C68 C -0.1416(2) -0.7256(4) 0.8857(2)
C69 C -0.1471(3) -0.6486(4) 0.9120(3)
C70 C -0.1436(3) -0.5657(4) 0.8887(3)
C71 C -0.0727(3) -0.7364(5) 0.6535(3)
C72 C -0.1524(3) -0.8158(4) 0.9070(3)
H19 H -0.2381 -0.5620 0.7060
H20 H -0.3400 -0.5739 0.6673
H21 H -0.3472 -0.3885 0.7794
H22 H -0.2980 -0.3170 0.8530
H23 H -0.1385 -0.2233 0.9489
H24 H -0.0982 -0.3138 0.8994
H25 H -0.2295 -0.3375 0.6924
H26 H -0.2298 -0.2030 0.6487
H27 H -0.0652 -0.1581 0.7586
H28 H 0.0060 -0.2096 0.8356
H29 H 0.0712 -0.4398 0.9172
H30 H -0.0191 -0.5071 0.8726
H31 H -0.1222 -0.4542 0.6837
H32 H -0.0945 -0.5594 0.6332
H33 H -0.0944 -0.7452 0.7476
H34 H -0.1218 -0.7708 0.8201
H35 H -0.1534 -0.6515 0.9461
H36 H -0.1476 -0.5127 0.9070
Sr3 Sr 0.29813(2) 0.53442(3) 0.963456(19)
O28 O 0.3893(2) 0.4585(4) 0.9610(2)
O29 O 0.1898(3) 0.5520(4) 0.8955(2)
O30 O 0.3121(3) 0.4299(3) 1.04988(19)
O31 O 0.3819(2) 0.6135(4) 1.0399(2)
Sr4 Sr 0.454720(17) -0.43480(3) 0.630510(17)
O32 O 0.3587(2) -0.3619(4) 0.5694(2)
O33 O 0.4277(3) -0.5403(4) 0.5474(2)
O34 O 0.5090(3) -0.3622(4) 0.5730(2)
Sr1B Sr -0.232712(18) -0.78479(3) 1.000142(19)
Sr1B_2 Sr 0.767288(18) 0.21521(3) 1.000142(19)
O1A O -0.5751(3) -0.4914(10) 0.7988(4)
O5_2 O 0.28314(18) 0.7187(3) 0.94123(17)
O6_2 O 0.3226(3) 0.6369(3) 0.8924(2)
O7_2 O -0.55714(15) -0.3462(3) 0.71573(14)
O9_2 O 0.37612(16) -0.5412(3) 0.65640(16)
O10_2 O -0.53103(16) -0.5560(3) 0.71225(15)
O10_3 O 0.46897(16) -0.5560(3) 0.71225(15)
O11B O 0.34269(16) -0.2411(3) 1.08024(16)
O12B O 0.32500(17) -0.1075(3) 1.04177(19)
O14_2 O 0.24988(16) 0.6164(3) 1.02900(15)
Sr2_2 Sr 0.515047(18) -0.44425(3) 0.792030(18)
Sr2_3 Sr 0.515047(18) 0.55575(3) 0.792030(18)
Sr2A Sr -0.015047(18) -0.94425(3) 0.707970(18)
Sr2A_2 Sr -0.015047(18) 0.05575(3) 0.707970(18)
O15_2 O 0.55455(15) -0.5279(3) 0.65310(17)
O16_2 O 0.55570(14) -0.4194(3) 0.71250(15)
O20A O -0.4047(3) -0.5472(4) 0.8179(2)
O24A O -0.4224(3) -0.3164(3) 0.8331(2)
O26B O 0.1846(3) -0.1836(3) 1.0652(3)
Sr3_2 Sr 0.29813(2) -0.46558(3) 0.963456(19)
Sr4_2 Sr -0.545280(17) -0.43480(3) 0.630510(17)
Sr4_3 Sr 0.454720(17) 0.56520(3) 0.630510(17)
O35 O 0.1357(4) 0.0367(4) 1.0546(3)
O36 O 0.8005(4) 0.4429(4) 0.4895(3)
O37 O 0.9123(5) 0.3798(6) 0.5124(4)
O38 O 0.1868(3) 0.4674(4) 0.0262(2)
O39 O 0.8829(3) 0.5914(4) 0.0734(3)
O40 O 0.9919(3) 0.6476(4) 0.0819(3)
O41 O 0.0340(4) 0.1306(5) 0.0444(3)
O42 O 0.4609(4) 0.3482(6) 0.0469(4)
loop_
_geom_bond_atom_site_label_1
_geom_bond_atom_site_label_2
_geom_bond_site_symmetry_1
_geom_bond_site_symmetry_2
Ru1 N1 1_555 1_555
Sr1 O5 1_555 1_555
O1 C11 1_555 1_555
O2 C11 1_555 1_555
O3 C12 1_555 1_555
O4 C12 1_555 1_555
O5 C24 1_555 1_555
O6 C24 1_555 1_555
O7 C23 1_555 1_555
O8 C23 1_555 1_555
O9 C35 1_555 1_555
O10 C35 1_555 1_555
O11 C36 1_555 1_555
O12 C36 1_555 1_555
O13 Sr1 1_555 1_555
O14 Sr1 1_555 1_555
N1 C1 1_555 1_555
N2 Ru1 1_555 1_555
N3 Ru1 1_555 1_555
N4 Ru1 1_555 1_555
N5 Ru1 1_555 1_555
N6 Ru1 1_555 1_555
C1 C2 1_555 1_555
C2 C3 1_555 1_555
C3 C4 1_555 1_555
C4 C5 1_555 1_555
C5 N1 1_555 1_555
C6 N2 1_555 1_555
C7 C6 1_555 1_555
C8 C7 1_555 1_555
C9 C8 1_555 1_555
C10 N2 1_555 1_555
C11 C3 1_555 1_555
C12 C8 1_555 1_555
C13 N3 1_555 1_555
C14 C13 1_555 1_555
C15 C14 1_555 1_555
C16 C15 1_555 1_555
C17 N3 1_555 1_555
C18 N4 1_555 1_555
C19 C18 1_555 1_555
C20 C19 1_555 1_555
C21 C20 1_555 1_555
C22 N4 1_555 1_555
C23 C15 1_555 1_555
C24 C20 1_555 1_555
C25 N5 1_555 1_555
C26 C25 1_555 1_555
C27 C26 1_555 1_555
C28 C27 1_555 1_555
C29 N5 1_555 1_555
C30 N6 1_555 1_555
C31 C30 1_555 1_555
C32 C31 1_555 1_555
C33 C32 1_555 1_555
C34 N6 1_555 1_555
C35 C27 1_555 1_555
C36 C32 1_555 1_555
H1 C1 1_555 1_555
H2 C2 1_555 1_555
H3 C4 1_555 1_555
H4 C7 1_555 1_555
H5 C9 1_555 1_555
H6 C10 1_555 1_555
H7 C13 1_555 1_555
H8 C14 1_555 1_555
H9 C16 1_555 1_555
H10 C19 1_555 1_555
H11 C21 1_555 1_555
H12 C22 1_555 1_555
H13 C25 1_555 1_555
H14 C26 1_555 1_555
H15 C28 1_555 1_555
H16 C31 1_555 1_555
H17 C33 1_555 1_555
H18 C34 1_555 1_555
Ru2 N7 1_555 1_555
Sr2 O16 1_555 1_555
O15 C47 1_555 1_555
O16 C47 1_555 1_555
O17 C48 1_555 1_555
O18 C48 1_555 1_555
O19 C59 1_555 1_555
O20 C59 1_555 1_555
O21 C60 1_555 1_555
O22 Sr1 1_555 1_555
O23 C71 1_555 1_555
O24 C71 1_555 1_555
O25 C72 1_555 1_555
O26 C72 1_555 1_555
O27 Sr2 1_555 1_555
N7 C37 1_555 1_555
N8 Ru2 1_555 1_555
N9 Ru2 1_555 1_555
N10 Ru2 1_555 1_555
N11 Ru2 1_555 1_555
N12 Ru2 1_555 1_555
C37 C38 1_555 1_555
C38 C39 1_555 1_555
C39 C40 1_555 1_555
C40 C41 1_555 1_555
C41 N7 1_555 1_555
C42 N8 1_555 1_555
C43 C42 1_555 1_555
C44 C43 1_555 1_555
C45 C44 1_555 1_555
C46 N8 1_555 1_555
C47 C39 1_555 1_555
C48 C44 1_555 1_555
C49 N9 1_555 1_555
C50 C49 1_555 1_555
C51 C50 1_555 1_555
C52 C51 1_555 1_555
C53 N9 1_555 1_555
C54 N10 1_555 1_555
C55 C54 1_555 1_555
C56 C55 1_555 1_555
C57 C56 1_555 1_555
C58 N10 1_555 1_555
C59 C51 1_555 1_555
C60 O22 1_555 1_555
C61 N11 1_555 1_555
C62 C61 1_555 1_555
C63 C62 1_555 1_555
C64 C63 1_555 1_555
C65 N11 1_555 1_555
C66 N12 1_555 1_555
C67 C66 1_555 1_555
C68 C67 1_555 1_555
C69 C68 1_555 1_555
C70 N12 1_555 1_555
C71 C63 1_555 1_555
C72 C68 1_555 1_555
H19 C37 1_555 1_555
H20 C38 1_555 1_555
H21 C40 1_555 1_555
H22 C43 1_555 1_555
H23 C45 1_555 1_555
H24 C46 1_555 1_555
H25 C49 1_555 1_555
H26 C50 1_555 1_555
H27 C52 1_555 1_555
H28 C55 1_555 1_555
H29 C57 1_555 1_555
H30 C58 1_555 1_555
H31 C61 1_555 1_555
H32 C62 1_555 1_555
H33 C64 1_555 1_555
H34 C67 1_555 1_555
H35 C69 1_555 1_555
H36 C70 1_555 1_555
Sr3 O4 1_555 1_555
O28 Sr3 1_555 1_555
O29 Sr3 1_555 1_555
O30 Sr3 1_555 1_555
O31 Sr3 1_555 1_555
Sr4 O7 1_555 1_555
O32 Sr4 1_555 1_555
O33 Sr4 1_555 1_555
O34 Sr4 1_555 1_555
Sr1B O26 1_555 1_555
Sr1B_2 O11 1_555 1_555
O1A Sr2 1_555 1_555
O5_2 Sr3 1_555 1_555
O6_2 Sr3 1_555 1_555
O7_2 Sr2 1_555 1_555
O9_2 Sr4 1_555 1_555
O10_2 Sr2 1_555 1_555
O10_3 Sr4 1_555 1_555
O11B Sr1 1_555 1_555
O12B Sr1 1_555 1_555
O14_2 Sr3 1_555 1_555
Sr2_2 O7 1_555 1_555
Sr2_3 O10 1_555 1_555
Sr2A O24 1_555 1_555
Sr2A_2 O1 1_555 1_555
O15_2 Sr4 1_555 1_555
O16_2 Sr4 1_555 1_555
O20A Sr2 1_555 1_555
O24A Sr2 1_555 1_555
O26B Sr1 1_555 1_555
Sr3_2 O5 1_555 1_555
Sr4_2 O15 1_555 1_555
Sr4_3 O9 1_555 1_555
O6 Sr3_2 1_555 1_555
O8 Sr4 1_555 1_555
O10 Sr4_3 1_555 1_555
O12 Sr1B_2 1_555 1_555
O14 Sr3_2 1_555 1_555
C5 C6 1_555 1_555
C9 C10 1_555 1_555
C16 C17 1_555 1_555
C17 C18 1_555 1_555
C21 C22 1_555 1_555
C28 C29 1_555 1_555
C29 C30 1_555 1_555
C33 C34 1_555 1_555
O16 Sr4_2 1_555 1_555
O20 Sr2A_2 1_555 1_555
C41 C42 1_555 1_555
C45 C46 1_555 1_555
C52 C53 1_555 1_555
C53 C54 1_555 1_555
C56 C60 1_555 1_555
C57 C58 1_555 1_555
C64 C65 1_555 1_555
C65 C66 1_555 1_555
C69 C70 1_555 1_555
O7_2 Sr4_2 1_555 1_555
O10_2 Sr4_2 1_555 1_555
O10_3 Sr2_2 1_555 1_555
Sr2_2 O16_2 1_555 1_555

#END
