
#######################################################################
#
#                 Cambridge Crystallographic Data Centre
#                                CCDC 
#
#######################################################################
#
# If this CIF has been generated from an entry in the Cambridge 
# Structural Database, then it will include bibliographic, chemical, 
# crystal, experimental, refinement or atomic coordinate data resulting 
# from the CCDC's data processing and validation procedures.
#
#######################################################################

data_QIWGIO
_symmetry_cell_setting           rhombohedral
_symmetry_space_group_name_H-M   'R 3 2'
_symmetry_Int_Tables_number      155
_space_group_name_Hall           'R 3 2"'
loop_
_symmetry_equiv_pos_site_id
_symmetry_equiv_pos_as_xyz
1 x,y,z
2 -y,x-y,z
3 -x+y,-x,z
4 y,x,-z
5 x-y,-y,-z
6 -x,-x+y,-z
7 2/3+x,1/3+y,1/3+z
8 2/3-y,1/3+x-y,1/3+z
9 2/3-x+y,1/3-x,1/3+z
10 2/3+y,1/3+x,1/3-z
11 2/3+x-y,1/3-y,1/3-z
12 2/3-x,1/3-x+y,1/3-z
13 1/3+x,2/3+y,2/3+z
14 1/3-y,2/3+x-y,2/3+z
15 1/3-x+y,2/3-x,2/3+z
16 1/3+y,2/3+x,2/3-z
17 1/3+x-y,2/3-y,2/3-z
18 1/3-x,2/3-x+y,2/3-z
_cell_length_a                   14.190(4)
_cell_length_b                   14.190(4)
_cell_length_c                   40.593(10)
_cell_angle_alpha                90
_cell_angle_beta                 90
_cell_angle_gamma                120
_cell_volume                     7078.59
loop_
_atom_site_label
_atom_site_type_symbol
_atom_site_fract_x
_atom_site_fract_y
_atom_site_fract_z
Ru1 Ru 0.6667 0.3333 0.022684(8)
Mg1 Mg 1.0000 1.0000 -0.06974(5)
O1 O 0.7407(3) 0.7813(3) -0.07044(7)
O2 O 0.9006(3) 0.8589(3) -0.04362(7)
O3 O 1.1020(3) 0.7900(3) 0.09837(8)
O4 O 1.1584(3) 0.6711(3) 0.10359(14)
O5 O 0.8681(3) 0.9656(3) -0.10179(7)
N1 N 0.7066(3) 0.4737(3) -0.00284(6)
N2 N 0.8013(3) 0.4458(3) 0.04833(6)
C1 C 0.6534(3) 0.4808(3) -0.02935(9)
C2 C 0.6838(3) 0.5786(3) -0.04496(9)
C3 C 0.7722(3) 0.6741(3) -0.03311(8)
C4 C 0.8274(3) 0.6679(3) -0.00559(7)
C5 C 0.7928(3) 0.5669(3) 0.00903(7)
C6 C 0.8478(3) 0.5509(3) 0.03773(7)
C7 C 0.9388(3) 0.6346(3) 0.05295(8)
C8 C 0.9878(3) 0.6099(3) 0.07849(9)
C9 C 0.9409(3) 0.5028(3) 0.08905(9)
C10 C 0.8473(3) 0.4230(4) 0.07374(7)
C11 C 0.8078(3) 0.7807(3) -0.05084(8)
C12 C 1.0904(4) 0.6972(3) 0.09514(11)
H1 H 0.5929 0.4163 -0.0377
H2 H 0.6445 0.5806 -0.0637
H3 H 0.8879 0.7317 0.0031
H4 H 0.9671 0.7077 0.0460
H5 H 0.9727 0.4842 0.1066
H6 H 0.8148 0.3502 0.0815
O1A O 0.2187(3) -0.0406(4) -0.07044(7)
O2A O 0.1411(3) 0.0417(4) -0.04362(7)
O3A O 0.2100(3) 0.3120(4) 0.09837(8)
O4A O 0.3289(3) 0.4873(4) 0.10359(14)
N1A N 0.5263(3) 0.2329(4) -0.00284(6)
N2A N 0.5542(3) 0.3555(4) 0.04833(6)
C1A C 0.5192(3) 0.1726(4) -0.02935(9)
C2A C 0.4214(3) 0.1052(4) -0.04496(9)
C3A C 0.3259(3) 0.0981(4) -0.03311(8)
C4A C 0.3321(3) 0.1595(4) -0.00559(7)
C5A C 0.4331(3) 0.2259(4) 0.00903(7)
C6A C 0.4491(3) 0.2969(4) 0.03773(7)
C7A C 0.3654(3) 0.3042(4) 0.05295(8)
C8A C 0.3901(3) 0.3779(4) 0.07849(9)
C9A C 0.4972(3) 0.4381(4) 0.08905(9)
C10A C 0.5770(4) 0.4243(5) 0.07374(7)
C11A C 0.2193(3) 0.0271(4) -0.05084(8)
C12A C 0.3028(3) 0.3932(5) 0.09514(11)
H1A H 0.5837 0.1766 -0.0377
H2A H 0.4194 0.0639 -0.0637
H3A H 0.2683 0.1562 0.0031
H4A H 0.2923 0.2594 0.0460
H5A H 0.5158 0.4885 0.1066
H6A H 0.6498 0.4646 0.0815
O1B O 1.0406(4) 0.2593(3) -0.07044(7)
O2B O 0.9583(4) 0.0994(3) -0.04362(7)
O3B O 0.6880(4) -0.1020(3) 0.09837(8)
O4B O 0.5127(4) -0.1584(3) 0.10359(14)
N1B N 0.7671(4) 0.2934(3) -0.00284(6)
N2B N 0.6445(4) 0.1987(3) 0.04833(6)
C1B C 0.8274(4) 0.3466(3) -0.02935(9)
C2B C 0.8948(4) 0.3162(3) -0.04496(9)
C3B C 0.9019(4) 0.2278(3) -0.03311(8)
C4B C 0.8405(4) 0.1726(3) -0.00559(7)
C5B C 0.7741(4) 0.2072(3) 0.00903(7)
C6B C 0.7031(4) 0.1522(3) 0.03773(7)
C7B C 0.6958(4) 0.0612(3) 0.05295(8)
C8B C 0.6221(4) 0.0122(3) 0.07849(9)
C9B C 0.5619(4) 0.0591(3) 0.08905(9)
C10B C 0.5757(5) 0.1527(3) 0.07374(7)
C11B C 0.9729(4) 0.1922(3) -0.05084(8)
C12B C 0.6068(5) -0.0904(4) 0.09514(11)
H1B H 0.8234 0.4071 -0.0377
H2B H 0.9361 0.3555 -0.0637
H3B H 0.8438 0.1121 0.0031
H4B H 0.7406 0.0329 0.0460
H5B H 0.5115 0.0273 0.1066
H6B H 0.5354 0.1852 0.0815
O5A O 1.0344(3) 0.9025(4) -0.10179(7)
O5B O 1.0975(4) 1.1319(3) -0.10179(7)
Mg1_2 Mg 0.0000 0.0000 -0.06974(5)
Mg1_3 Mg 1.0000 0.0000 -0.06974(5)
O2A_2 O 1.1411(3) 1.0417(4) -0.04362(7)
O2B_2 O 0.9583(4) 1.0994(3) -0.04362(7)
Mg2 Mg 0.3333 0.9461(3) 0.1667
O6 O 0.3385(4) 0.8480(4) 0.12941(10)
O7 O 0.1680(5) 0.8659(7) 0.16054(11)
O8 O 0.3595(6) 1.0648(6) 0.13117(12)
O6K O 0.3282(4) 0.8428(6) 0.20392(10)
O7K O 0.4987(5) 1.0312(9) 0.17279(11)
O8K O 0.3072(6) 1.0386(8) 0.20216(12)
loop_
_geom_bond_atom_site_label_1
_geom_bond_atom_site_label_2
_geom_bond_site_symmetry_1
_geom_bond_site_symmetry_2
Ru1 N1 1_555 1_555
Mg1 O2 1_555 1_555
O1 C11 1_555 1_555
O2 C11 1_555 1_555
O3 C12 1_555 1_555
O4 C12 1_555 1_555
O5 Mg1 1_555 1_555
N1 C1 1_555 1_555
N2 Ru1 1_555 1_555
C1 C2 1_555 1_555
C2 C3 1_555 1_555
C3 C4 1_555 1_555
C4 C5 1_555 1_555
C5 N1 1_555 1_555
C6 N2 1_555 1_555
C7 C6 1_555 1_555
C8 C7 1_555 1_555
C9 C8 1_555 1_555
C10 N2 1_555 1_555
C11 C3 1_555 1_555
C12 C8 1_555 1_555
H1 C1 1_555 1_555
H2 C2 1_555 1_555
H3 C4 1_555 1_555
H4 C7 1_555 1_555
H5 C9 1_555 1_555
H6 C10 1_555 1_555
Mg2 O6 1_555 1_555
O7 Mg2 1_555 1_555
O8 Mg2 1_555 1_555
O1A C11A 1_555 1_555
O2A C11A 1_555 1_555
O3A C12A 1_555 1_555
O4A C12A 1_555 1_555
N1A Ru1 1_555 1_555
N2A Ru1 1_555 1_555
C1A N1A 1_555 1_555
C2A C1A 1_555 1_555
C3A C2A 1_555 1_555
C4A C3A 1_555 1_555
C5A N1A 1_555 1_555
C6A N2A 1_555 1_555
C7A C6A 1_555 1_555
C8A C7A 1_555 1_555
C9A C8A 1_555 1_555
C10A N2A 1_555 1_555
C11A C3A 1_555 1_555
C12A C8A 1_555 1_555
H1A C1A 1_555 1_555
H2A C2A 1_555 1_555
H3A C4A 1_555 1_555
H4A C7A 1_555 1_555
H5A C9A 1_555 1_555
H6A C10A 1_555 1_555
O1B C11B 1_555 1_555
O2B C11B 1_555 1_555
O3B C12B 1_555 1_555
O4B C12B 1_555 1_555
N1B Ru1 1_555 1_555
N2B Ru1 1_555 1_555
C1B N1B 1_555 1_555
C2B C1B 1_555 1_555
C3B C2B 1_555 1_555
C4B C3B 1_555 1_555
C5B N1B 1_555 1_555
C6B N2B 1_555 1_555
C7B C6B 1_555 1_555
C8B C7B 1_555 1_555
C9B C8B 1_555 1_555
C10B N2B 1_555 1_555
C11B C3B 1_555 1_555
C12B C8B 1_555 1_555
H1B C1B 1_555 1_555
H2B C2B 1_555 1_555
H3B C4B 1_555 1_555
H4B C7B 1_555 1_555
H5B C9B 1_555 1_555
H6B C10B 1_555 1_555
O5A Mg1 1_555 1_555
O5B Mg1 1_555 1_555
Mg1_2 O2A 1_555 1_555
Mg1_3 O2B 1_555 1_555
O2A_2 Mg1 1_555 1_555
O2B_2 Mg1 1_555 1_555
O6K Mg2 1_555 1_555
O7K Mg2 1_555 1_555
O8K Mg2 1_555 1_555
C5 C6 1_555 1_555
C9 C10 1_555 1_555
C4A C5A 1_555 1_555
C5A C6A 1_555 1_555
C9A C10A 1_555 1_555
C4B C5B 1_555 1_555
C5B C6B 1_555 1_555
C9B C10B 1_555 1_555

#END
