
#######################################################################
#
#                 Cambridge Crystallographic Data Centre
#                                CCDC 
#
#######################################################################
#
# If this CIF has been generated from an entry in the Cambridge 
# Structural Database, then it will include bibliographic, chemical, 
# crystal, experimental, refinement or atomic coordinate data resulting 
# from the CCDC's data processing and validation procedures.
#
#######################################################################

data_QIWHAH
_symmetry_cell_setting           triclinic
_symmetry_space_group_name_H-M   'P -1'
_symmetry_Int_Tables_number      2
_space_group_name_Hall           '-P 1'
loop_
_symmetry_equiv_pos_site_id
_symmetry_equiv_pos_as_xyz
1 x,y,z
2 -x,-y,-z
_cell_length_a                   12.397(7)
_cell_length_b                   13.890(8)
_cell_length_c                   14.987(9)
_cell_angle_alpha                82.63(2)
_cell_angle_beta                 80.552(19)
_cell_angle_gamma                71.995(17)
_cell_volume                     2412.72
loop_
_atom_site_label
_atom_site_type_symbol
_atom_site_fract_x
_atom_site_fract_y
_atom_site_fract_z
Ru1 Ru 0.67639(5) 0.05002(4) 0.20242(4)
Sr1 Sr 0.17767(7) 0.51773(6) -0.00579(6)
Sr2 Sr 0.31506(7) 0.53305(6) 0.31330(5)
O1 O 0.8650(5) 0.3036(5) -0.0557(4)
O2 O 1.0544(5) 0.2369(5) -0.0773(4)
O3 O 0.8802(7) -0.3937(6) 0.4286(6)
O4 O 0.7104(5) -0.2831(5) 0.4677(4)
O5 O 0.4558(5) 0.4712(5) 0.1727(4)
O6 O 0.3632(5) 0.5045(5) 0.0499(4)
O7 O 0.7952(6) -0.3241(5) -0.0645(4)
O8 O 0.7224(6) -0.3399(5) 0.0801(4)
O9 O 0.8105(7) 0.3675(6) 0.4289(5)
O10 O 0.8450(6) 0.3469(6) 0.2819(4)
O11 O 0.2239(6) -0.1091(6) 0.3589(6)
O12 O 0.3595(7) -0.1598(6) 0.2420(5)
O13 O 0.2986(6) 0.5740(6) -0.1454(5)
O14 O 0.0376(5) 0.6519(5) -0.1085(5)
O15 O -0.0340(6) 0.5606(5) 0.0851(5)
O16 O 0.1650(6) 0.5332(6) 0.2030(5)
O17 O 0.2730(6) 0.6949(5) 0.2006(5)
O18 O 0.2194(6) 0.6937(5) 0.3939(5)
O19 O 0.5066(7) 0.5519(7) 0.3463(5)
O20 O 0.3550(6) 0.4678(5) 0.4944(5)
O21 O 0.3471(6) 0.3382(5) 0.3412(5)
O22 O 0.1257(6) 0.5117(5) 0.4120(5)
N1 N 0.8303(6) 0.0669(5) 0.1362(5)
N2 N 0.7902(6) -0.0705(5) 0.2639(5)
N3 N 0.5828(5) 0.1663(5) 0.1202(4)
N4 N 0.6680(5) -0.0282(5) 0.0958(5)
N5 N 0.6651(6) 0.1402(5) 0.3034(4)
N6 N 0.5348(5) 0.0332(5) 0.2865(4)
C1 C 0.8431(7) 0.1413(6) 0.0716(5)
C2 C 0.9480(6) 0.1497(6) 0.0307(5)
C3 C 1.0451(8) 0.0817(7) 0.0602(7)
C4 C 1.0337(7) 0.0052(7) 0.1288(6)
C5 C 0.9241(7) -0.0012(6) 0.1659(6)
C6 C 0.9033(7) -0.0800(6) 0.2364(6)
C7 C 0.9882(8) -0.1594(7) 0.2698(7)
C8 C 0.9598(8) -0.2341(8) 0.3330(7)
C9 C 0.8465(7) -0.2261(7) 0.3609(6)
C10 C 0.7645(7) -0.1414(6) 0.3248(5)
C11 C 0.9562(7) 0.2373(7) -0.0401(6)
C12 C 0.8076(8) -0.3064(7) 0.4254(6)
C13 C 0.5319(6) 0.2635(6) 0.1395(6)
C14 C 0.4919(7) 0.3397(6) 0.0744(6)
C15 C 0.5055(7) 0.3175(7) -0.0154(6)
C16 C 0.5544(7) 0.2175(6) -0.0349(6)
C17 C 0.5904(6) 0.1434(6) 0.0342(5)
C18 C 0.6356(6) 0.0340(6) 0.0190(5)
C19 C 0.6406(7) -0.0050(7) -0.0617(6)
C20 C 0.6777(7) -0.1098(7) -0.0669(6)
C21 C 0.7044(7) -0.1741(7) 0.0110(6)
C22 C 0.7001(6) -0.1295(6) 0.0898(6)
C23 C 0.4326(7) 0.4485(6) 0.1010(6)
C24 C 0.7434(7) -0.2874(6) 0.0090(6)
C25 C 0.7340(7) 0.1986(6) 0.3037(6)
C26 C 0.7225(7) 0.2636(7) 0.3707(6)
C27 C 0.6326(7) 0.2669(7) 0.4434(6)
C28 C 0.5631(7) 0.2062(6) 0.4428(6)
C29 C 0.5777(6) 0.1449(6) 0.3728(5)
C30 C 0.5047(7) 0.0844(6) 0.3618(6)
C31 C 0.4070(8) 0.0787(7) 0.4244(6)
C32 C 0.3451(7) 0.0173(7) 0.4079(6)
C33 C 0.3775(7) -0.0377(6) 0.3320(6)
C34 C 0.4736(7) -0.0274(6) 0.2735(6)
C35 C 0.7984(8) 0.3321(7) 0.3594(6)
C36 C 0.3142(8) -0.1077(7) 0.3090(6)
H1 H 0.7777 0.1893 0.0539
H2 H 1.1172 0.0864 0.0350
H3 H 1.0983 -0.0410 0.1496
H4 H 1.0646 -0.1635 0.2505
H5 H 1.0168 -0.2882 0.3557
H6 H 0.6876 -0.1346 0.3447
H7 H 0.5236 0.2795 0.1991
H8 H 0.4824 0.3685 -0.0610
H9 H 0.5631 0.1999 -0.0940
H10 H 0.6193 0.0383 -0.1126
H11 H 0.6846 -0.1368 -0.1220
H12 H 0.7205 -0.1718 0.1415
H13 H 0.7931 0.1955 0.2561
H14 H 0.6208 0.3086 0.4901
H15 H 0.5049 0.2063 0.4906
H16 H 0.3854 0.1155 0.4754
H17 H 0.2809 0.0127 0.4481
H18 H 0.4966 -0.0644 0.2226
Sr1A Sr -0.17767(7) 0.48227(6) 0.00579(6)
Sr1A_2 Sr 0.82233(7) -0.51773(6) 0.00579(6)
Sr1A_3 Sr 0.82233(7) 0.48227(6) 0.00579(6)
O1A O 0.1350(5) 0.6964(5) 0.0557(4)
O7A O 0.2048(6) 0.3241(5) 0.0645(4)
O8A O 0.2776(6) 0.3399(5) -0.0801(4)
O15A O 0.0340(6) 0.4394(5) -0.0851(5)
O23 O 0.9489(7) 0.4990(6) 0.2709(5)
O24 O 0.5919(8) 0.7009(8) 0.2522(6)
O25 O 0.2427(8) 0.2508(7) 0.2450(6)
loop_
_geom_bond_atom_site_label_1
_geom_bond_atom_site_label_2
_geom_bond_site_symmetry_1
_geom_bond_site_symmetry_2
Ru1 N1 1_555 1_555
Sr1 O6 1_555 1_555
Sr2 O5 1_555 1_555
O1 C11 1_555 1_555
O2 C11 1_555 1_555
O3 C12 1_555 1_555
O4 C12 1_555 1_555
O5 C23 1_555 1_555
O6 C23 1_555 1_555
O7 C24 1_555 1_555
O8 C24 1_555 1_555
O9 C35 1_555 1_555
O10 C35 1_555 1_555
O11 C36 1_555 1_555
O12 C36 1_555 1_555
O13 Sr1 1_555 1_555
O14 Sr1 1_555 1_555
O15 Sr1 1_555 1_555
O16 Sr2 1_555 1_555
O17 Sr2 1_555 1_555
O18 Sr2 1_555 1_555
O19 Sr2 1_555 1_555
O20 Sr2 1_555 1_555
O21 Sr2 1_555 1_555
O22 Sr2 1_555 1_555
N1 C1 1_555 1_555
N2 Ru1 1_555 1_555
N3 Ru1 1_555 1_555
N4 Ru1 1_555 1_555
N5 Ru1 1_555 1_555
N6 Ru1 1_555 1_555
C1 C2 1_555 1_555
C2 C3 1_555 1_555
C3 C4 1_555 1_555
C4 C5 1_555 1_555
C5 N1 1_555 1_555
C6 N2 1_555 1_555
C7 C6 1_555 1_555
C8 C7 1_555 1_555
C9 C8 1_555 1_555
C10 N2 1_555 1_555
C11 C2 1_555 1_555
C12 C9 1_555 1_555
C13 N3 1_555 1_555
C14 C13 1_555 1_555
C15 C14 1_555 1_555
C16 C15 1_555 1_555
C17 N3 1_555 1_555
C18 N4 1_555 1_555
C19 C18 1_555 1_555
C20 C19 1_555 1_555
C21 C20 1_555 1_555
C22 N4 1_555 1_555
C23 C14 1_555 1_555
C24 C21 1_555 1_555
C25 N5 1_555 1_555
C26 C25 1_555 1_555
C27 C26 1_555 1_555
C28 C27 1_555 1_555
C29 N5 1_555 1_555
C30 N6 1_555 1_555
C31 C30 1_555 1_555
C32 C31 1_555 1_555
C33 C32 1_555 1_555
C34 N6 1_555 1_555
C35 C26 1_555 1_555
C36 C33 1_555 1_555
H1 C1 1_555 1_555
H2 C3 1_555 1_555
H3 C4 1_555 1_555
H4 C7 1_555 1_555
H5 C8 1_555 1_555
H6 C10 1_555 1_555
H7 C13 1_555 1_555
H8 C15 1_555 1_555
H9 C16 1_555 1_555
H10 C19 1_555 1_555
H11 C20 1_555 1_555
H12 C22 1_555 1_555
H13 C25 1_555 1_555
H14 C27 1_555 1_555
H15 C28 1_555 1_555
H16 C31 1_555 1_555
H17 C32 1_555 1_555
H18 C34 1_555 1_555
Sr1A O15 1_555 1_555
Sr1A_2 O7 1_555 1_555
Sr1A_3 O1 1_555 1_555
O1A Sr1 1_555 1_555
O7A Sr1 1_555 1_555
O8A Sr1 1_555 1_555
O15A Sr1 1_555 1_555
O8 Sr1A_2 1_555 1_555
C5 C6 1_555 1_555
C9 C10 1_555 1_555
C16 C17 1_555 1_555
C17 C18 1_555 1_555
C21 C22 1_555 1_555
C28 C29 1_555 1_555
C29 C30 1_555 1_555
C33 C34 1_555 1_555
Sr1A O15A 1_555 1_555

#END
