
#######################################################################
#
#                 Cambridge Crystallographic Data Centre
#                                CCDC 
#
#######################################################################
#
# If this CIF has been generated from an entry in the Cambridge 
# Structural Database, then it will include bibliographic, chemical, 
# crystal, experimental, refinement or atomic coordinate data resulting 
# from the CCDC's data processing and validation procedures.
#
#######################################################################

data_QIWJOX
_symmetry_cell_setting           monoclinic
_symmetry_space_group_name_H-M   'P 21/m'
_symmetry_Int_Tables_number      11
_space_group_name_Hall           '-P 2yb'
loop_
_symmetry_equiv_pos_site_id
_symmetry_equiv_pos_as_xyz
1 x,y,z
2 -x,1/2+y,-z
3 -x,-y,-z
4 x,1/2-y,z
_cell_length_a                   3.8855(5)
_cell_length_b                   15.424(2)
_cell_length_c                   11.2995(15)
_cell_angle_alpha                90
_cell_angle_beta                 93.551(7)
_cell_angle_gamma                90
_cell_volume                     675.878
loop_
_atom_site_label
_atom_site_type_symbol
_atom_site_fract_x
_atom_site_fract_y
_atom_site_fract_z
Cu1 Cu 0.46213(18) 0.2500 0.82745(8)
Cl1 Cl 0.9808(3) 0.2500 0.93444(14)
N1 N 0.4413(9) 0.3924(3) 0.7629(4)
N2 N 0.3809(10) 0.4623(3) 0.8278(4)
N3 N 0.6780(10) 0.5496(3) 0.6965(4)
N4 N 0.7389(10) 0.4805(3) 0.6311(4)
N5 N 0.6300(11) 0.2500 0.6536(5)
C1 C 0.4489(15) 0.6151(4) 0.8692(6)
H1 H 0.6658 0.6426 0.8903
H2 H 0.3439 0.5971 0.9399
H3 H 0.2998 0.6553 0.8263
C2 C 0.5065(10) 0.5383(3) 0.7937(5)
C3 C 0.6280(10) 0.4039(3) 0.6681(4)
C4 C 0.7125(9) 0.3245(3) 0.6015(4)
C5 C 0.8706(11) 0.3273(4) 0.4953(4)
H4 H 0.929(13) 0.383(3) 0.467(4)
C6 C 0.9450(15) 0.2500 0.4412(6)
H5 H 1.0450 0.2500 0.3686
N1C N 0.4413(9) 0.1076(3) 0.7629(4)
N2C N 0.3809(10) 0.0377(3) 0.8278(4)
N3C N 0.6780(10) -0.0496(3) 0.6965(4)
N4C N 0.7389(10) 0.0195(3) 0.6311(4)
C1C C 0.4489(15) -0.1151(4) 0.8692(6)
H1C H 0.6658 -0.1426 0.8903
H2C H 0.3439 -0.0971 0.9399
H3C H 0.2998 -0.1553 0.8263
C2C C 0.5065(10) -0.0383(3) 0.7937(5)
C3C C 0.6280(10) 0.0961(3) 0.6681(4)
C4C C 0.7125(9) 0.1755(3) 0.6015(4)
C5C C 0.8706(11) 0.1727(4) 0.4953(4)
H4C H 0.929(13) 0.117(3) 0.467(4)
Cu1_2 Cu 1.46213(18) 0.2500 0.82745(8)
Cl1_2 Cl -0.0192(3) 0.2500 0.93444(14)
loop_
_geom_bond_atom_site_label_1
_geom_bond_atom_site_label_2
_geom_bond_site_symmetry_1
_geom_bond_site_symmetry_2
Cu1 Cl1 1_555 1_555
Cl1 Cu1_2 1_555 1_555
N1 Cu1 1_555 1_555
N2 N1 1_555 1_555
N3 N4 1_555 1_555
N4 C3 1_555 1_555
N5 Cu1 1_555 1_555
C1 H1 1_555 1_555
H2 C1 1_555 1_555
H3 C1 1_555 1_555
C2 N2 1_555 1_555
C3 N1 1_555 1_555
C4 N5 1_555 1_555
C5 C4 1_555 1_555
H4 C5 1_555 1_555
C6 C5 1_555 1_555
H5 C6 1_555 1_555
N1C Cu1 1_555 1_555
N2C N1C 1_555 1_555
N3C N4C 1_555 1_555
N4C C3C 1_555 1_555
C1C H1C 1_555 1_555
H2C C1C 1_555 1_555
H3C C1C 1_555 1_555
C2C N2C 1_555 1_555
C3C N1C 1_555 1_555
C4C N5 1_555 1_555
C5C C6 1_555 1_555
H4C C5C 1_555 1_555
Cl1_2 Cu1 1_555 1_555
N3 C2 1_555 1_555
C1 C2 1_555 1_555
C3 C4 1_555 1_555
N3C C2C 1_555 1_555
C1C C2C 1_555 1_555
C3C C4C 1_555 1_555
C4C C5C 1_555 1_555

#END
