
#######################################################################
#
#                 Cambridge Crystallographic Data Centre
#                                CCDC 
#
#######################################################################
#
# If this CIF has been generated from an entry in the Cambridge 
# Structural Database, then it will include bibliographic, chemical, 
# crystal, experimental, refinement or atomic coordinate data resulting 
# from the CCDC's data processing and validation procedures.
#
#######################################################################

data_QIWNER
_symmetry_cell_setting           orthorhombic
_symmetry_space_group_name_H-M   'P b c a'
_symmetry_Int_Tables_number      61
_space_group_name_Hall           '-P 2ac 2ab'
loop_
_symmetry_equiv_pos_site_id
_symmetry_equiv_pos_as_xyz
1 x,y,z
2 1/2-x,-y,1/2+z
3 -x,1/2+y,1/2-z
4 1/2+x,1/2-y,-z
5 -x,-y,-z
6 1/2+x,y,1/2-z
7 x,1/2-y,1/2+z
8 1/2-x,1/2+y,z
_cell_length_a                   19.034(4)
_cell_length_b                   6.9822(14)
_cell_length_c                   34.383(7)
_cell_angle_alpha                90
_cell_angle_beta                 90
_cell_angle_gamma                90
_cell_volume                     4569.47
loop_
_atom_site_label
_atom_site_type_symbol
_atom_site_fract_x
_atom_site_fract_y
_atom_site_fract_z
Cu1 Cu 0.54546(2) 0.80921(9) 0.059646(12)
N1 N 0.62871(16) 0.8339(5) 0.02440(8)
N2 N 0.61885(15) 0.8624(5) 0.09982(8)
C1 C 0.6287(2) 0.8151(7) -0.01410(11)
H1 H 0.5863 0.7932 -0.0269
C2 C 0.6898(2) 0.8273(7) -0.03570(12)
H2 H 0.6883 0.8151 -0.0626
C3 C 0.7527(2) 0.8574(7) -0.01722(12)
H3 H 0.7942 0.8644 -0.0315
C4 C 0.7538(2) 0.8773(7) 0.02275(12)
H4 H 0.798(2) 0.897(6) 0.0362(11)
C5 C 0.69047(19) 0.8651(6) 0.04263(10)
C6 C 0.68471(19) 0.8841(6) 0.08554(10)
C7 C 0.74113(19) 0.9209(7) 0.10965(11)
H5 H 0.7860 0.9362 0.0994
C8 C 0.7301(2) 0.9346(7) 0.14885(12)
H6 H 0.7675 0.9593 0.1655
C9 C 0.6633(2) 0.9116(7) 0.16353(12)
H7 H 0.658(2) 0.921(6) 0.1886(11)
C10 C 0.6092(2) 0.8753(6) 0.13806(10)
H8 H 0.5641 0.8592 0.1479
O1 O 0.47473(13) 0.7600(4) 0.09998(7)
O2 O 0.39803(15) 0.5771(5) 0.06729(7)
C11 C 0.41873(19) 0.6628(6) 0.09683(10)
C12 C 0.37445(18) 0.6432(6) 0.13304(10)
C13 C 0.3073(2) 0.5648(7) 0.13061(12)
H9 H 0.2977(17) 0.513(5) 0.1095(10)
C14 C 0.2657(2) 0.5453(7) 0.16276(12)
H10 H 0.222(2) 0.485(6) 0.1610(11)
C15 C 0.2904(2) 0.6044(6) 0.19874(11)
C16 C 0.3579(2) 0.6813(6) 0.20197(11)
H11 H 0.3799(19) 0.718(6) 0.2261(11)
C17 C 0.39897(19) 0.7017(6) 0.16911(10)
H12 H 0.4435 0.7553 0.1712
C18 C 0.2460(2) 0.5852(7) 0.23274(12)
N3 N 0.2094(2) 0.5701(7) 0.25851(11)
O3 O 0.52574(16) 1.1660(4) 0.05554(7)
O4 O 0.58866(16) 1.4329(5) 0.06374(7)
C19 C 0.55040(19) 1.3004(7) 0.07569(11)
C20 C 0.53075(19) 1.3017(6) 0.11850(10)
C21 C 0.4718(2) 1.2054(7) 0.13209(12)
H13 H 0.4441(19) 1.147(6) 0.1157(11)
C22 C 0.4544(2) 1.2109(7) 0.17138(12)
H14 H 0.420(2) 1.155(6) 0.1808(11)
C23 C 0.4971(2) 1.3096(6) 0.19673(10)
C24 C 0.5566(2) 1.4040(7) 0.18367(11)
H15 H 0.5855 1.4689 0.2011
C25 C 0.5723(2) 1.4006(6) 0.14479(10)
H16 H 0.6117 1.4659 0.1359
C26 C 0.4788(2) 1.3216(7) 0.23764(12)
N4 N 0.4653(2) 1.3345(7) 0.26958(11)
O5 O 0.47754(18) 0.7643(6) 0.01884(8)
H17 H 0.4930 0.8048 -0.0018
H18 H 0.450(2) 0.701(7) 0.0287(14)
Cu1_2 Cu 0.54546(2) 1.80921(9) 0.059646(12)
O4_2 O 0.58866(16) 0.4329(5) 0.06374(7)
loop_
_geom_bond_atom_site_label_1
_geom_bond_atom_site_label_2
_geom_bond_site_symmetry_1
_geom_bond_site_symmetry_2
Cu1 N1 1_555 1_555
N1 C1 1_555 1_555
N2 Cu1 1_555 1_555
C1 H1 1_555 1_555
C2 C1 1_555 1_555
H2 C2 1_555 1_555
C3 C2 1_555 1_555
H3 C3 1_555 1_555
C4 C3 1_555 1_555
H4 C4 1_555 1_555
C5 N1 1_555 1_555
C6 N2 1_555 1_555
C7 C6 1_555 1_555
H5 C7 1_555 1_555
C8 C7 1_555 1_555
H6 C8 1_555 1_555
C9 C8 1_555 1_555
H7 C9 1_555 1_555
C10 N2 1_555 1_555
H8 C10 1_555 1_555
O1 Cu1 1_555 1_555
O2 C11 1_555 1_555
C11 O1 1_555 1_555
C12 C11 1_555 1_555
C13 C12 1_555 1_555
H9 C13 1_555 1_555
C14 C13 1_555 1_555
H10 C14 1_555 1_555
C15 C14 1_555 1_555
C16 C15 1_555 1_555
H11 C16 1_555 1_555
C17 C12 1_555 1_555
H12 C17 1_555 1_555
C18 C15 1_555 1_555
N3 C18 1_555 1_555
O3 Cu1 1_555 1_555
O4 C19 1_555 1_555
C19 O3 1_555 1_555
C20 C19 1_555 1_555
C21 C20 1_555 1_555
H13 C21 1_555 1_555
C22 C21 1_555 1_555
H14 C22 1_555 1_555
C23 C22 1_555 1_555
C24 C23 1_555 1_555
H15 C24 1_555 1_555
C25 C20 1_555 1_555
H16 C25 1_555 1_555
C26 C23 1_555 1_555
N4 C26 1_555 1_555
O5 Cu1 1_555 1_555
H17 O5 1_555 1_555
H18 O5 1_555 1_555
Cu1_2 O4 1_555 1_555
O4_2 Cu1 1_555 1_555
C4 C5 1_555 1_555
C5 C6 1_555 1_555
C9 C10 1_555 1_555
C16 C17 1_555 1_555
C24 C25 1_555 1_555

#END
