
#######################################################################
#
#                 Cambridge Crystallographic Data Centre
#                                CCDC 
#
#######################################################################
#
# If this CIF has been generated from an entry in the Cambridge 
# Structural Database, then it will include bibliographic, chemical, 
# crystal, experimental, refinement or atomic coordinate data resulting 
# from the CCDC's data processing and validation procedures.
#
#######################################################################

data_QIWRUJ
_symmetry_cell_setting           monoclinic
_symmetry_space_group_name_H-M   'P 21/n'
_symmetry_Int_Tables_number      14
_space_group_name_Hall           '-P 2yn'
loop_
_symmetry_equiv_pos_site_id
_symmetry_equiv_pos_as_xyz
1 x,y,z
2 1/2-x,1/2+y,1/2-z
3 -x,-y,-z
4 1/2+x,1/2-y,1/2+z
_cell_length_a                   9.6724(10)
_cell_length_b                   20.217(2)
_cell_length_c                   14.9774(15)
_cell_angle_alpha                90
_cell_angle_beta                 93.545(2)
_cell_angle_gamma                90
_cell_volume                     2923.18
loop_
_atom_site_label
_atom_site_type_symbol
_atom_site_fract_x
_atom_site_fract_y
_atom_site_fract_z
Zn1 Zn 0.41460(4) 0.197263(18) 0.05326(2)
O1 O 0.2648(2) 0.20668(10) 0.13375(13)
O2 O 0.1464(2) 0.13684(11) 0.04270(15)
O3 O -0.1369(2) 0.25881(11) 0.44043(14)
O4 O 0.0699(2) 0.29190(11) 0.40591(14)
C1 C 0.1568(4) 0.17266(17) 0.1097(2)
C2 C 0.0386(3) 0.17752(15) 0.1703(2)
C3 C 0.0511(3) 0.21601(14) 0.2472(2)
H1 H 0.1331 0.2411 0.2595
C4 C -0.0537(3) 0.21853(15) 0.3066(2)
C5 C -0.1731(3) 0.18183(15) 0.2879(2)
H2 H -0.2454 0.1828 0.3280
C6 C -0.1872(3) 0.14368(16) 0.2110(2)
H3 H -0.2692 0.1186 0.1985
C7 C -0.0826(3) 0.14203(16) 0.1527(2)
H4 H -0.0937 0.1162 0.0998
C8 C -0.0372(3) 0.26024(15) 0.3906(2)
N1 N 0.5606(3) 0.25591(12) 0.12095(17)
C9 C 0.6822(3) 0.27269(16) 0.0882(2)
H5 H 0.7059 0.2536 0.0332
C10 C 0.7735(3) 0.31603(15) 0.1304(2)
H6 H 0.8577 0.3266 0.1043
C11 C 0.7434(3) 0.34447(15) 0.2111(2)
C12 C 0.6212(3) 0.32539(16) 0.2463(2)
H7 H 0.5973 0.3422 0.3026
C13 C 0.5335(3) 0.28188(15) 0.1997(2)
H8 H 0.4495 0.2698 0.2252
C14 C 0.8415(3) 0.39449(16) 0.2536(2)
H9 H 0.8558 0.4299 0.2094
H10 H 0.9321 0.3727 0.2670
C15 C 0.7975(3) 0.42611(16) 0.3379(2)
H11 H 0.6989 0.4390 0.3285
H12 H 0.8037 0.3925 0.3860
C16 C 0.8788(3) 0.48616(15) 0.3699(2)
C17 C 0.9927(3) 0.51075(15) 0.3293(2)
H13 H 1.0286 0.4873 0.2809
C18 C 1.0542(2) 0.56878(11) 0.35842(14)
H14 H 1.1312 0.5849 0.3285
C19 C 0.9034(2) 0.57886(11) 0.46979(14)
H15 H 0.8721 0.6022 0.5198
C20 C 0.8375(3) 0.52127(15) 0.4440(2)
H16 H 0.7634 0.5052 0.4767
N2 N 1.0100(2) 0.60361(12) 0.42732(16)
O3C O 0.3631(2) 0.24119(11) -0.05957(14)
Zn1C Zn -0.08540(4) 0.302737(18) 0.55326(2)
Zn1A Zn 1.08540(4) 0.697263(18) 0.44674(2)
N2A N 0.4900(2) 0.10361(12) 0.07268(16)
C21 C 0.2670(4) 0.4012(2) 0.2227(3)
H17 H 0.2142 0.3748 0.1808
C22 C 0.3247(4) 0.4594(2) 0.1955(3)
H18 H 0.3136 0.4719 0.1343
C23 C 0.3964(5) 0.4989(2) 0.2537(3)
H19 H 0.4332 0.5394 0.2335
C24 C 0.4170(4) 0.4813(2) 0.3427(3)
H20 H 0.4664 0.5097 0.3838
C25 C 0.3647(5) 0.4214(2) 0.3710(3)
H21 H 0.3822 0.4077 0.4313
C26 C 0.2855(4) 0.3810(2) 0.3106(3)
H22 H 0.2459 0.3409 0.3299
C27 C 1.0115(5) 0.2878(2) 0.9452(2)
H23 H 1.0376 0.2428 0.9533
C28 C 1.0940(4) 0.3364(3) 0.9815(3)
H24 H 1.1770 0.3254 1.0155
C29 C 1.0568(5) 0.4019(3) 0.9687(3)
H25 H 1.1142 0.4361 0.9937
C30 C 0.9378(5) 0.4171(2) 0.9203(3)
H26 H 0.9125 0.4621 0.9113
C31 C 0.8543(4) 0.3683(3) 0.8845(3)
H27 H 0.7708 0.3793 0.8510
C32 C 0.8912(4) 0.3032(2) 0.8971(2)
H28 H 0.8333 0.2690 0.8725
C33 C -0.0875(5) 0.0362(3) 0.4445(3)
H29 H -0.1487 0.0611 0.4055
C34 C 0.0250(6) 0.0650(2) 0.4851(4)
H30 H 0.0428 0.1106 0.4753
C35 C -0.1132(5) -0.0291(3) 0.4598(3)
H31 H -0.1930 -0.0495 0.4319
C35B C 0.1132(5) 0.0291(3) 0.5402(3)
C33B C 0.0875(5) -0.0362(3) 0.5555(3)
H29B H 0.1487 -0.0611 0.5945
C34B C -0.0250(6) -0.0650(2) 0.5149(4)
H30B H -0.0428 -0.1106 0.5247
H31B H 0.1930 0.0495 0.5681
loop_
_geom_bond_atom_site_label_1
_geom_bond_atom_site_label_2
_geom_bond_site_symmetry_1
_geom_bond_site_symmetry_2
Zn1 O1 1_555 1_555
O1 C1 1_555 1_555
O2 C1 1_555 1_555
O3 C8 1_555 1_555
O4 C8 1_555 1_555
C1 C2 1_555 1_555
C2 C3 1_555 1_555
C3 H1 1_555 1_555
C4 C3 1_555 1_555
C5 C4 1_555 1_555
H2 C5 1_555 1_555
C6 C5 1_555 1_555
H3 C6 1_555 1_555
C7 C2 1_555 1_555
H4 C7 1_555 1_555
C8 C4 1_555 1_555
N1 Zn1 1_555 1_555
C9 N1 1_555 1_555
H5 C9 1_555 1_555
C10 C9 1_555 1_555
H6 C10 1_555 1_555
C11 C10 1_555 1_555
C12 C11 1_555 1_555
H7 C12 1_555 1_555
C13 N1 1_555 1_555
H8 C13 1_555 1_555
C14 C11 1_555 1_555
H9 C14 1_555 1_555
H10 C14 1_555 1_555
C15 C14 1_555 1_555
H11 C15 1_555 1_555
H12 C15 1_555 1_555
C16 C15 1_555 1_555
C17 C16 1_555 1_555
H13 C17 1_555 1_555
C18 C17 1_555 1_555
H14 C18 1_555 1_555
C19 H15 1_555 1_555
C20 C16 1_555 1_555
H16 C20 1_555 1_555
N2 C18 1_555 1_555
C21 H17 1_555 1_555
C22 C21 1_555 1_555
H18 C22 1_555 1_555
C23 C22 1_555 1_555
H19 C23 1_555 1_555
C24 C23 1_555 1_555
H20 C24 1_555 1_555
C25 C24 1_555 1_555
H21 C25 1_555 1_555
C26 C21 1_555 1_555
H22 C26 1_555 1_555
C27 H23 1_555 1_555
C28 C27 1_555 1_555
H24 C28 1_555 1_555
C29 C28 1_555 1_555
H25 C29 1_555 1_555
C30 C29 1_555 1_555
H26 C30 1_555 1_555
C31 C30 1_555 1_555
H27 C31 1_555 1_555
C32 C27 1_555 1_555
H28 C32 1_555 1_555
C33 H29 1_555 1_555
C34 C33 1_555 1_555
H30 C34 1_555 1_555
C35 C33 1_555 1_555
H31 C35 1_555 1_555
O3C Zn1 1_555 1_555
Zn1C O3 1_555 1_555
Zn1A N2 1_555 1_555
N2A Zn1 1_555 1_555
C35B C34 1_555 1_555
C33B C35B 1_555 1_555
H29B C33B 1_555 1_555
C34B C35 1_555 1_555
H30B C34B 1_555 1_555
H31B C35B 1_555 1_555
C6 C7 1_555 1_555
C12 C13 1_555 1_555
C19 C20 1_555 1_555
C19 N2 1_555 1_555
C25 C26 1_555 1_555
C31 C32 1_555 1_555
C33B C34B 1_555 1_555

#END
