
#######################################################################
#
#                 Cambridge Crystallographic Data Centre
#                                CCDC 
#
#######################################################################
#
# If this CIF has been generated from an entry in the Cambridge 
# Structural Database, then it will include bibliographic, chemical, 
# crystal, experimental, refinement or atomic coordinate data resulting 
# from the CCDC's data processing and validation procedures.
#
#######################################################################

data_QIWSUL
_symmetry_cell_setting           monoclinic
_symmetry_space_group_name_H-M   'P 2/c'
_symmetry_Int_Tables_number      13
_space_group_name_Hall           '-P 2yc'
loop_
_symmetry_equiv_pos_site_id
_symmetry_equiv_pos_as_xyz
1 x,y,z
2 -x,y,1/2-z
3 -x,-y,-z
4 x,-y,1/2+z
_cell_length_a                   10.2140(10)
_cell_length_b                   9.1600(12)
_cell_length_c                   19.048(2)
_cell_angle_alpha                90
_cell_angle_beta                 103.400(2)
_cell_angle_gamma                90
_cell_volume                     1733.62
loop_
_atom_site_label
_atom_site_type_symbol
_atom_site_fract_x
_atom_site_fract_y
_atom_site_fract_z
Cd1 Cd 0.5000 0.39461(5) 0.7500
C1 C 0.2772(7) 0.2658(9) 0.7857(3)
C2 C 0.1619(7) 0.2007(9) 0.8131(3)
H1 H 0.0914 0.2634 0.8155
C3 C 0.1515(8) 0.0750(10) 0.8322(4)
H2 H 0.2235 0.0135 0.8312
C4 C 0.0388(6) 0.0092(7) 0.8566(3)
C5 C -0.0432(11) 0.0827(8) 0.8894(7)
H3 H -0.0302 0.1825 0.8972
C6 C -0.1433(13) 0.0165(16) 0.9113(7)
H4 H -0.1960 0.0693 0.9362
C7 C -0.1695(11) -0.1323(9) 0.8969(7)
H5 H -0.2428 -0.1774 0.9091
C8 C -0.0876(6) -0.2071(7) 0.8657(4)
H6 H -0.1004 -0.3068 0.8577
C9 C 0.0159(6) -0.1370(7) 0.8453(4)
H7 H 0.0724 -0.1904 0.8231
C10 C 0.4722(5) 0.6455(5) 0.8646(3)
C11 C 0.3560(6) 0.7125(7) 0.8127(3)
H8 H 0.3160 0.7862 0.8369
H9 H 0.2904 0.6386 0.7942
H10 H 0.3866 0.7560 0.7735
C12 C 0.4541(5) 0.7994(5) 0.9731(3)
H11 H 0.4540 0.7651 1.0213
H12 H 0.3614 0.8151 0.9476
C13 C 0.5299(6) 0.9444(5) 0.9787(3)
H13 H 0.6238 0.9286 1.0022
H14 H 0.5259 0.9820 0.9307
C14 C 0.6232(5) 0.6006(4) 0.9664(3)
C15 C 0.6453(4) 0.5113(4) 0.9113(2)
C16 C 0.7529(5) 0.4137(5) 0.9231(3)
H15 H 0.7700 0.3557 0.8862
C17 C 0.8334(6) 0.4074(6) 0.9927(3)
H16 H 0.9057 0.3430 1.0028
C18 C 0.8076(6) 0.4962(7) 1.0480(3)
H17 H 0.8627 0.4885 1.0941
C19 C 0.7028(6) 0.5944(6) 1.0356(3)
H18 H 0.6863 0.6538 1.0722
N1 N 0.5483(4) 0.5412(4) 0.84807(19)
N2 N 0.5134(4) 0.6865(4) 0.9354(2)
O1 O 0.2550(6) 0.3799(6) 0.7543(3)
O2 O 0.3921(6) 0.2128(6) 0.8019(4)
Cd1C Cd 0.5000 1.60539(5) 1.2500
C1A C 0.7228(7) 0.2658(9) 0.7143(3)
C2A C 0.8381(7) 0.2007(9) 0.6869(3)
H1A H 0.9086 0.2634 0.6845
C3A C 0.8485(8) 0.0750(10) 0.6678(4)
H2A H 0.7765 0.0135 0.6688
C4A C 0.9612(6) 0.0092(7) 0.6434(3)
C5A C 1.0432(11) 0.0827(8) 0.6106(7)
H3A H 1.0302 0.1825 0.6028
C6A C 1.1433(13) 0.0165(16) 0.5887(7)
H4A H 1.1960 0.0693 0.5638
C7A C 1.1695(11) -0.1323(9) 0.6031(7)
H5A H 1.2428 -0.1774 0.5909
C8A C 1.0876(6) -0.2071(7) 0.6343(4)
H6A H 1.1004 -0.3068 0.6423
C9A C 0.9841(6) -0.1370(7) 0.6547(4)
H7A H 0.9276 -0.1904 0.6769
C10B C 0.5278(5) 1.3545(5) 1.1354(3)
C11B C 0.6440(6) 1.2875(7) 1.1873(3)
H8B H 0.6840 1.2138 1.1631
H9B H 0.7096 1.3614 1.2058
H10B H 0.6134 1.2440 1.2265
C12B C 0.5459(5) 1.2006(5) 1.0269(3)
H11B H 0.5460 1.2349 0.9787
H12B H 0.6386 1.1849 1.0524
C13B C 0.4701(6) 1.0556(5) 1.0213(3)
H13B H 0.3762 1.0714 0.9978
H14B H 0.4741 1.0180 1.0693
C14B C 0.3768(5) 1.3994(4) 1.0336(3)
C15B C 0.3547(4) 1.4887(4) 1.0887(2)
C16B C 0.2471(5) 1.5863(5) 1.0769(3)
H15B H 0.2300 1.6443 1.1138
C17B C 0.1666(6) 1.5926(6) 1.0073(3)
H16B H 0.0943 1.6570 0.9972
C18B C 0.1924(6) 1.5038(7) 0.9520(3)
H17B H 0.1373 1.5115 0.9059
C19B C 0.2972(6) 1.4056(6) 0.9644(3)
H18B H 0.3137 1.3462 0.9278
N1B N 0.4517(4) 1.4588(4) 1.15193(19)
N1A N 0.4517(4) 0.5412(4) 0.65193(19)
N2B N 0.4866(4) 1.3135(4) 1.0646(2)
O1A O 0.7450(6) 0.3799(6) 0.7457(3)
O2A O 0.6079(6) 0.2128(6) 0.6981(4)
O3 O 0.0000 0.5369(11) 0.7500
H19 H 0.083(10) 0.483(15) 0.747(7)
H19A H -0.083(10) 0.483(15) 0.753(7)
loop_
_geom_bond_atom_site_label_1
_geom_bond_atom_site_label_2
_geom_bond_site_symmetry_1
_geom_bond_site_symmetry_2
Cd1 N1 1_555 1_555
C1 C2 1_555 1_555
C2 H1 1_555 1_555
C3 C2 1_555 1_555
H2 C3 1_555 1_555
C4 C3 1_555 1_555
C5 C4 1_555 1_555
H3 C5 1_555 1_555
C6 C5 1_555 1_555
H4 C6 1_555 1_555
C7 C6 1_555 1_555
H5 C7 1_555 1_555
C8 C7 1_555 1_555
H6 C8 1_555 1_555
C9 C4 1_555 1_555
H7 C9 1_555 1_555
C10 C11 1_555 1_555
C11 H8 1_555 1_555
H9 C11 1_555 1_555
H10 C11 1_555 1_555
C12 H11 1_555 1_555
H12 C12 1_555 1_555
C13 C12 1_555 1_555
H13 C13 1_555 1_555
H14 C13 1_555 1_555
C14 C15 1_555 1_555
C15 C16 1_555 1_555
C16 H15 1_555 1_555
C17 C16 1_555 1_555
H16 C17 1_555 1_555
C18 C17 1_555 1_555
H17 C18 1_555 1_555
C19 C14 1_555 1_555
H18 C19 1_555 1_555
N1 C10 1_555 1_555
N2 C10 1_555 1_555
O1 Cd1 1_555 1_555
O2 Cd1 1_555 1_555
O3 H19 1_555 1_555
Cd1C N1B 1_555 1_555
C1A C2A 1_555 1_555
C2A H1A 1_555 1_555
C3A C2A 1_555 1_555
H2A C3A 1_555 1_555
C4A C3A 1_555 1_555
C5A C4A 1_555 1_555
H3A C5A 1_555 1_555
C6A C5A 1_555 1_555
H4A C6A 1_555 1_555
C7A C6A 1_555 1_555
H5A C7A 1_555 1_555
C8A C7A 1_555 1_555
H6A C8A 1_555 1_555
C9A C4A 1_555 1_555
H7A C9A 1_555 1_555
C10B C11B 1_555 1_555
C11B H8B 1_555 1_555
H9B C11B 1_555 1_555
H10B C11B 1_555 1_555
C12B H11B 1_555 1_555
H12B C12B 1_555 1_555
C13B C13 1_555 1_555
H13B C13B 1_555 1_555
H14B C13B 1_555 1_555
C14B C15B 1_555 1_555
C15B C16B 1_555 1_555
C16B H15B 1_555 1_555
C17B C16B 1_555 1_555
H16B C17B 1_555 1_555
C18B C17B 1_555 1_555
H17B C18B 1_555 1_555
C19B C14B 1_555 1_555
H18B C19B 1_555 1_555
N1B C10B 1_555 1_555
N1A Cd1 1_555 1_555
N2B C10B 1_555 1_555
O1A Cd1 1_555 1_555
O2A Cd1 1_555 1_555
H19A O3 1_555 1_555
C1 O1 1_555 1_555
C1 O2 1_555 1_555
C8 C9 1_555 1_555
C12 N2 1_555 1_555
C14 N2 1_555 1_555
C15 N1 1_555 1_555
C18 C19 1_555 1_555
C1A O1A 1_555 1_555
C1A O2A 1_555 1_555
C8A C9A 1_555 1_555
C12B C13B 1_555 1_555
C12B N2B 1_555 1_555
C14B N2B 1_555 1_555
C15B N1B 1_555 1_555
C18B C19B 1_555 1_555

#END
