
#######################################################################
#
#                 Cambridge Crystallographic Data Centre
#                                CCDC 
#
#######################################################################
#
# If this CIF has been generated from an entry in the Cambridge 
# Structural Database, then it will include bibliographic, chemical, 
# crystal, experimental, refinement or atomic coordinate data resulting 
# from the CCDC's data processing and validation procedures.
#
#######################################################################

data_QIWSEU
_symmetry_cell_setting           monoclinic
_symmetry_space_group_name_H-M   'P 21/n'
_symmetry_Int_Tables_number      14
_space_group_name_Hall           '-P 2yn'
loop_
_symmetry_equiv_pos_site_id
_symmetry_equiv_pos_as_xyz
1 x,y,z
2 1/2-x,1/2+y,1/2-z
3 -x,-y,-z
4 1/2+x,1/2-y,1/2+z
_cell_length_a                   10.243(3)
_cell_length_b                   18.317(5)
_cell_length_c                   15.391(4)
_cell_angle_alpha                90
_cell_angle_beta                 91.116(5)
_cell_angle_gamma                90
_cell_volume                     2887.13
loop_
_atom_site_label
_atom_site_type_symbol
_atom_site_fract_x
_atom_site_fract_y
_atom_site_fract_z
Zn1 Zn 0.09900(10) -0.30483(7) 0.04593(7)
O1 O 0.2517(6) -0.2981(4) 0.1227(4)
O2 O 0.3570(7) -0.3817(5) 0.0450(5)
O3 O 0.6425(6) -0.2343(4) 0.4337(4)
O4 O 0.4432(6) -0.2015(4) 0.3961(4)
C1 C 0.3517(10) -0.3354(7) 0.1045(7)
C2 C 0.4715(9) -0.3229(6) 0.1647(6)
C3 C 0.4594(8) -0.2818(5) 0.2392(5)
H1 H 0.3785 -0.2587 0.2510
C4 C 0.5642(9) -0.2735(5) 0.2975(6)
C5 C 0.6849(8) -0.3045(6) 0.2768(6)
H2 H 0.7578 -0.2989 0.3153
C6 C 0.6980(9) -0.3435(6) 0.1993(6)
H3 H 0.7799 -0.3640 0.1846
C7 C 0.5907(9) -0.3521(6) 0.1443(6)
H4 H 0.5996 -0.3785 0.0916
C8 C 0.5465(10) -0.2324(6) 0.3802(6)
N1 N 0.0088(7) -0.4007(4) 0.0745(5)
C9 C -0.0949(9) -0.4274(6) 0.0309(6)
H5 H -0.1200 -0.4062 -0.0232
C10 C -0.1663(10) -0.4851(6) 0.0626(7)
H6 H -0.2389 -0.5029 0.0297
C11 C -0.1349(11) -0.5167(6) 0.1394(8)
C12 C -0.0241(9) -0.4916(6) 0.1827(7)
H7 H 0.0044 -0.5130 0.2360
C13 C 0.0437(9) -0.4347(6) 0.1463(7)
H8 H 0.1214 -0.4190 0.1753
C14 C -0.2186(12) -0.5771(7) 0.1806(8)
H9 H -0.3092 -0.5718 0.1579
H10 H -0.1859 -0.6248 0.1601
C15 C -0.223(2) -0.5795(11) 0.2660(9)
H11 H -0.2450 -0.5299 0.2866
H12 H -0.1336 -0.5905 0.2881
C16 C -0.3166(15) -0.6334(8) 0.3091(8)
C17 C -0.2942(12) -0.6570(8) 0.3897(8)
H13 H -0.2194 -0.6387 0.4200
C18 C -0.3701(11) -0.7049(7) 0.4311(7)
H14 H -0.3468 -0.7199 0.4885
C19 C -0.5028(12) -0.7128(7) 0.3112(8)
H15 H -0.5783 -0.7321 0.2828
C20 C -0.4253(15) -0.6668(8) 0.2659(9)
H16 H -0.4433 -0.6571 0.2062
N2 N -0.4788(8) -0.7320(5) 0.3926(5)
O3C O 0.1425(6) -0.2657(4) -0.0663(4)
Zn1C Zn 0.59900(10) -0.19517(7) 0.54593(7)
Zn1A Zn -0.59900(10) -0.80483(7) 0.45407(7)
N2A N -0.0212(8) -0.2320(5) 0.1074(5)
C21 C -0.5227(19) -0.1073(11) -0.0722(12)
C22 C -0.5527(16) -0.1764(9) -0.0494(10)
H17 H -0.6324 -0.1866 -0.0212
C23 C -0.4646(18) -0.2333(11) -0.0678(11)
H18 H -0.4868 -0.2817 -0.0517
C24 C -0.363(2) -0.2230(13) -0.1031(13)
H19 H -0.3083 -0.2632 -0.1163
C25 C -0.3266(16) -0.1571(10) -0.1236(10)
H20 H -0.2442 -0.1526 -0.1504
C26 C -0.3906(15) -0.0967(9) -0.1113(9)
H21 H -0.3569 -0.0500 -0.1258
C27 C -0.5977(15) -0.0577(9) -0.0542(9)
H22 H -0.6714 -0.0775 -0.0221
H23 H -0.6301 -0.0346 -0.1078
H24 H -0.5516 -0.0215 -0.0183
C28 C 0.096(3) -0.0019(15) 0.165(2)
C29 C 0.106(2) -0.0040(14) 0.2447(18)
H25 H 0.0534 0.0288 0.2769
C30 C 0.196(3) -0.0559(16) 0.2961(19)
H26 H 0.2004 -0.0502 0.3574
C31 C 0.264(2) -0.1053(12) 0.2635(14)
H27 H 0.3195 -0.1379 0.2951
C32 C 0.246(2) -0.1046(12) 0.1720(14)
H28 H 0.3014 -0.1376 0.1422
C33 C 0.162(2) -0.0637(12) 0.1166(14)
H29 H 0.1482 -0.0738 0.0566
C34 C 0.007(3) 0.0310(15) 0.1139(17)
H30 H -0.0673 0.0462 0.1487
H31 H -0.0230 -0.0030 0.0685
H32 H 0.0462 0.0740 0.0868
loop_
_geom_bond_atom_site_label_1
_geom_bond_atom_site_label_2
_geom_bond_site_symmetry_1
_geom_bond_site_symmetry_2
Zn1 O1 1_555 1_555
O1 C1 1_555 1_555
O2 C1 1_555 1_555
O3 C8 1_555 1_555
O4 C8 1_555 1_555
C1 C2 1_555 1_555
C2 C3 1_555 1_555
C3 H1 1_555 1_555
C4 C3 1_555 1_555
C5 C4 1_555 1_555
H2 C5 1_555 1_555
C6 C5 1_555 1_555
H3 C6 1_555 1_555
C7 C2 1_555 1_555
H4 C7 1_555 1_555
C8 C4 1_555 1_555
N1 Zn1 1_555 1_555
C9 N1 1_555 1_555
H5 C9 1_555 1_555
C10 C9 1_555 1_555
H6 C10 1_555 1_555
C11 C10 1_555 1_555
C12 C11 1_555 1_555
H7 C12 1_555 1_555
C13 N1 1_555 1_555
H8 C13 1_555 1_555
C14 C11 1_555 1_555
H9 C14 1_555 1_555
H10 C14 1_555 1_555
C15 C14 1_555 1_555
H11 C15 1_555 1_555
H12 C15 1_555 1_555
C16 C15 1_555 1_555
C17 C16 1_555 1_555
H13 C17 1_555 1_555
C18 C17 1_555 1_555
H14 C18 1_555 1_555
C19 H15 1_555 1_555
C20 C16 1_555 1_555
H16 C20 1_555 1_555
N2 C18 1_555 1_555
C21 C22 1_555 1_555
C22 H17 1_555 1_555
C23 C22 1_555 1_555
H18 C23 1_555 1_555
C24 C23 1_555 1_555
H19 C24 1_555 1_555
C25 C24 1_555 1_555
H20 C25 1_555 1_555
C26 C21 1_555 1_555
H21 C26 1_555 1_555
C27 C21 1_555 1_555
H22 C27 1_555 1_555
H23 C27 1_555 1_555
H24 C27 1_555 1_555
C28 C29 1_555 1_555
C29 H25 1_555 1_555
C30 C29 1_555 1_555
H26 C30 1_555 1_555
C31 C30 1_555 1_555
H27 C31 1_555 1_555
C32 C31 1_555 1_555
H28 C32 1_555 1_555
C33 C28 1_555 1_555
H29 C33 1_555 1_555
C34 C28 1_555 1_555
H30 C34 1_555 1_555
H31 C34 1_555 1_555
H32 C34 1_555 1_555
O3C Zn1 1_555 1_555
Zn1C O3 1_555 1_555
Zn1A N2 1_555 1_555
N2A Zn1 1_555 1_555
C6 C7 1_555 1_555
C12 C13 1_555 1_555
C19 C20 1_555 1_555
C19 N2 1_555 1_555
C25 C26 1_555 1_555
C32 C33 1_555 1_555

#END
