
#######################################################################
#
#                 Cambridge Crystallographic Data Centre
#                                CCDC 
#
#######################################################################
#
# If this CIF has been generated from an entry in the Cambridge 
# Structural Database, then it will include bibliographic, chemical, 
# crystal, experimental, refinement or atomic coordinate data resulting 
# from the CCDC's data processing and validation procedures.
#
#######################################################################

data_QIWSUK
_symmetry_cell_setting           orthorhombic
_symmetry_space_group_name_H-M   'P n n a'
_symmetry_Int_Tables_number      52
_space_group_name_Hall           '-P 2a 2bc'
loop_
_symmetry_equiv_pos_site_id
_symmetry_equiv_pos_as_xyz
1 x,y,z
2 1/2-x,-y,z
3 x,1/2-y,1/2-z
4 1/2-x,1/2+y,1/2-z
5 -x,-y,-z
6 1/2+x,y,-z
7 -x,1/2+y,1/2+z
8 1/2+x,1/2-y,1/2+z
_cell_length_a                   10.0200(10)
_cell_length_b                   15.1945(15)
_cell_length_c                   13.6885(13)
_cell_angle_alpha                90
_cell_angle_beta                 90
_cell_angle_gamma                90
_cell_volume                     2084.06
loop_
_atom_site_label
_atom_site_type_symbol
_atom_site_fract_x
_atom_site_fract_y
_atom_site_fract_z
Zn1 Zn 0.07481(5) 0.2500 -0.2500
O1 O -0.4945(2) -0.16843(16) -0.34924(17)
O2 O -0.4148(3) -0.1218(2) -0.2132(2)
C1 C -0.4263(3) -0.1211(2) -0.3043(2)
C2 C -0.3348(3) -0.0565(2) -0.3589(2)
C3 C -0.3356(4) -0.0555(3) -0.4603(3)
H1 H -0.3948 -0.0929 -0.4953
C4 C -0.2500 0.0000 -0.5105(4)
H2 H -0.2500 0.0000 -0.5799
C5 C -0.2500 0.0000 -0.3094(3)
H3 H -0.2500 0.0000 -0.2400
N1 N 0.2153(2) 0.18546(15) -0.16688(17)
C6 C 0.2883(3) 0.12230(19) -0.2089(2)
H4 H 0.2708 0.1081 -0.2753
C7 C 0.3870(3) 0.0771(2) -0.1613(2)
H5 H 0.4360 0.0325 -0.1941
C8 C 0.4146(3) 0.09708(19) -0.0647(2)
C9 C 0.3406(3) 0.1628(2) -0.0211(2)
H6 H 0.3571 0.1786 0.0450
C10 C 0.2427(3) 0.20537(19) -0.0737(2)
H7 H 0.1928 0.2506 -0.0427
C11 C 0.5220(3) 0.04750(18) -0.0104(3)
H8 H 0.4586 -0.0778 -0.0521
H9 H 0.3952 -0.0469 0.0498
Zn1A Zn -0.57481(5) -0.2500 -0.2500
C3A C -0.1644(4) 0.0555(3) -0.4603(3)
C2A C -0.1652(3) 0.0565(2) -0.3589(2)
C1A C -0.0737(3) 0.1211(2) -0.3043(2)
O1A O -0.0055(2) 0.16843(16) -0.34924(17)
O1C O -0.0055(2) 0.33157(16) -0.15076(17)
C11D C 0.4780(3) -0.04750(18) 0.0104(3)
C8D C 0.5854(3) -0.09708(19) 0.0647(2)
C7D C 0.6130(3) -0.0771(2) 0.1613(2)
C6D C 0.7117(3) -0.12230(19) 0.2089(2)
N1D N 0.7847(2) -0.18546(15) 0.16688(17)
Zn1F Zn 0.92519(5) -0.2500 0.2500
C10D C 0.7573(3) -0.20537(19) 0.0737(2)
C9D C 0.6594(3) -0.1628(2) 0.0211(2)
H6D H 0.6429 -0.1786 -0.0450
H7D H 0.8072 -0.2506 0.0427
H4D H 0.7292 -0.1081 0.2753
H5D H 0.5640 -0.0325 0.1941
H8D H 0.5414 0.0778 0.0521
H9D H 0.6048 0.0469 -0.0498
N1B N 0.2153(2) 0.31454(15) -0.33312(17)
O2A O -0.0852(3) 0.1218(2) -0.2132(2)
H1A H -0.1052 0.0929 -0.4953
C12 C 0.6490(7) -0.7500 -0.2500
H10 H 0.7077 -0.7029 -0.2757
H11 H 0.7077 -0.7971 -0.2243
Cl1 Cl 0.56110(12) -0.79250(9) -0.34599(9)
Cl1B Cl 0.56110(12) -0.70750(9) -0.15401(9)
loop_
_geom_bond_atom_site_label_1
_geom_bond_atom_site_label_2
_geom_bond_site_symmetry_1
_geom_bond_site_symmetry_2
Zn1 N1 1_555 1_555
O1 C1 1_555 1_555
O2 C1 1_555 1_555
C1 C2 1_555 1_555
C2 C3 1_555 1_555
C3 H1 1_555 1_555
C4 C3 1_555 1_555
H2 C4 1_555 1_555
C5 C2 1_555 1_555
H3 C5 1_555 1_555
N1 C6 1_555 1_555
C6 H4 1_555 1_555
C7 C6 1_555 1_555
H5 C7 1_555 1_555
C8 C7 1_555 1_555
C9 C8 1_555 1_555
H6 C9 1_555 1_555
C10 N1 1_555 1_555
H7 C10 1_555 1_555
C11 C8 1_555 1_555
H8 C11D 1_555 1_555
H9 C11D 1_555 1_555
C12 H10 1_555 1_555
H11 C12 1_555 1_555
Cl1 C12 1_555 1_555
Zn1A O1 1_555 1_555
C3A C4 1_555 1_555
C2A C5 1_555 1_555
C1A C2A 1_555 1_555
O1A Zn1 1_555 1_555
O1C Zn1 1_555 1_555
C11D C11 1_555 1_555
C8D C11D 1_555 1_555
C7D C8D 1_555 1_555
C6D C7D 1_555 1_555
N1D C6D 1_555 1_555
Zn1F N1D 1_555 1_555
C10D N1D 1_555 1_555
C9D C8D 1_555 1_555
H6D C9D 1_555 1_555
H7D C10D 1_555 1_555
H4D C6D 1_555 1_555
H5D C7D 1_555 1_555
H8D C11 1_555 1_555
H9D C11 1_555 1_555
N1B Zn1 1_555 1_555
O2A C1A 1_555 1_555
H1A C3A 1_555 1_555
Cl1B C12 1_555 1_555
C9 C10 1_555 1_555
C3A C2A 1_555 1_555
C1A O1A 1_555 1_555
C10D C9D 1_555 1_555

#END
