
#######################################################################
#
#                 Cambridge Crystallographic Data Centre
#                                CCDC 
#
#######################################################################
#
# If this CIF has been generated from an entry in the Cambridge 
# Structural Database, then it will include bibliographic, chemical, 
# crystal, experimental, refinement or atomic coordinate data resulting 
# from the CCDC's data processing and validation procedures.
#
#######################################################################

data_QIWTIA
_symmetry_cell_setting           monoclinic
_symmetry_space_group_name_H-M   'P 21/n'
_symmetry_Int_Tables_number      14
_space_group_name_Hall           '-P 2yn'
loop_
_symmetry_equiv_pos_site_id
_symmetry_equiv_pos_as_xyz
1 x,y,z
2 1/2-x,1/2+y,1/2-z
3 -x,-y,-z
4 1/2+x,1/2-y,1/2+z
_cell_length_a                   8.421(3)
_cell_length_b                   11.803(6)
_cell_length_c                   19.510(10)
_cell_angle_alpha                90
_cell_angle_beta                 93.832(19)
_cell_angle_gamma                90
_cell_volume                     1934.82
loop_
_atom_site_label
_atom_site_type_symbol
_atom_site_fract_x
_atom_site_fract_y
_atom_site_fract_z
Ag1 Ag 0.99917(2) -0.015427(19) -0.245937(9)
C1 C 0.8557(3) -0.1118(2) -0.04289(12)
C2 C 0.9194(3) -0.1362(2) -0.10585(12)
C3 C 0.9947(3) -0.2392(2) -0.11609(14)
H1 H 1.0361 -0.2564 -0.1579
C4 C 1.0057(3) -0.3147(3) -0.06228(15)
H2 H 1.0560 -0.3839 -0.0677
C5 C 0.9430(3) -0.2894(3) 0.00037(15)
H3 H 0.9525 -0.3424 0.0357
C6 C 0.8673(3) -0.1881(3) 0.01137(13)
H4 H 0.8259 -0.1716 0.0532
C7 C 0.8233(3) 0.0356(2) -0.11308(12)
C8 C 0.7828(3) 0.1512(2) -0.13869(13)
H5 H 0.8802 0.1897 -0.1490
H6 H 0.7357 0.1933 -0.1025
C9 C 0.6685(3) 0.1525(3) -0.20248(16)
H7 H 0.6476 0.2295 -0.2163
H8 H 0.5706 0.1164 -0.1925
H9 H 0.7153 0.1126 -0.2390
C10 C 0.7171(3) 0.0601(2) 0.00437(12)
H10 H 0.7532 0.1382 0.0041
H11 H 0.7504 0.0280 0.0488
C11 C 0.5362(3) 0.0585(2) -0.00440(12)
H12 H 0.5032 0.0868 -0.0498
H13 H 0.4944 0.1096 0.0289
C12 C 0.8604(3) 0.0689(2) -0.38958(14)
H14 H 0.8716 0.1066 -0.4332
H15 H 0.7901 0.1141 -0.3632
C13 C 0.7892(3) -0.0473(3) -0.40208(16)
H16 H 0.7733 -0.0829 -0.3583
H17 H 0.6858 -0.0395 -0.4267
C14 C 1.0403(3) -0.1281(3) -0.40512(14)
H18 H 1.1071 -0.1755 -0.4319
H19 H 1.0297 -0.1649 -0.3612
C15 C 1.1192(3) -0.0147(2) -0.39329(13)
H20 H 1.2229 -0.0251 -0.3693
H21 H 1.1345 0.0211 -0.4371
C16 C 1.0945(3) 0.1730(2) -0.34455(13)
H22 H 1.0985 0.2069 -0.3897
H23 H 1.2030 0.1641 -0.3253
C17 C 1.0050(3) 0.2518(2) -0.29873(15)
H24 H 0.9791 0.2107 -0.2579
H25 H 0.9058 0.2743 -0.3231
N1 N 0.8967(2) -0.04271(19) -0.14880(10)
N2 N 0.7945(2) -0.00289(18) -0.04928(10)
N3 N 1.0186(2) 0.05971(18) -0.35163(10)
S1 S 1.11409(9) 0.37558(6) -0.27343(3)
O1 O 0.8869(2) -0.11790(18) -0.44030(10)
O2 O 1.0302(3) 0.4269(2) -0.21934(11)
O3 O 1.1164(3) 0.4440(2) -0.33532(11)
O4 O 1.2739(2) 0.33620(18) -0.24996(10)
Ag1B Ag 0.00083(2) 0.015427(19) 0.245937(9)
Ag1A Ag 1.50083(2) 0.484573(19) -0.254063(9)
Ag1A_2 Ag 1.50083(2) -0.515427(19) -0.254063(9)
C1B C 0.1443(3) 0.1118(2) 0.04289(12)
C2B C 0.0806(3) 0.1362(2) 0.10585(12)
C3B C 0.0053(3) 0.2392(2) 0.11609(14)
H1B H -0.0361 0.2564 0.1579
C4B C -0.0057(3) 0.3147(3) 0.06228(15)
H2B H -0.0560 0.3839 0.0677
C5B C 0.0570(3) 0.2894(3) -0.00037(15)
H3B H 0.0475 0.3424 -0.0357
C6B C 0.1327(3) 0.1881(3) -0.01137(13)
H4B H 0.1741 0.1716 -0.0532
C7B C 0.1767(3) -0.0356(2) 0.11308(12)
C8B C 0.2172(3) -0.1512(2) 0.13869(13)
H5B H 0.1198 -0.1897 0.1490
H6B H 0.2643 -0.1933 0.1025
C9B C 0.3315(3) -0.1525(3) 0.20248(16)
H7B H 0.3524 -0.2295 0.2163
H8B H 0.4294 -0.1164 0.1925
H9B H 0.2847 -0.1126 0.2390
C10B C 0.2829(3) -0.0601(2) -0.00437(12)
H10B H 0.2468 -0.1382 -0.0041
H11B H 0.2496 -0.0280 -0.0488
C11B C 0.4638(3) -0.0585(2) 0.00440(12)
H12B H 0.4968 -0.0868 0.0498
H13B H 0.5056 -0.1096 -0.0289
C12A C 1.6396(3) -0.4311(2) -0.11042(14)
H14A H 1.6284 -0.3934 -0.0668
H15A H 1.7099 -0.3859 -0.1368
C13A C 1.7108(3) -0.5473(3) -0.09792(16)
H16A H 1.7267 -0.5829 -0.1417
H17A H 1.8142 -0.5395 -0.0733
C14A C 1.4597(3) -0.6281(3) -0.09488(14)
H18A H 1.3929 -0.6755 -0.0681
H19A H 1.4703 -0.6649 -0.1388
C15A C 1.3808(3) -0.5147(2) -0.10671(13)
H20A H 1.2771 -0.5251 -0.1307
H21A H 1.3655 -0.4789 -0.0629
C16A C 1.4055(3) -0.3270(2) -0.15545(13)
H22A H 1.4015 -0.2931 -0.1103
H23A H 1.2970 -0.3359 -0.1747
C17A C 1.4950(3) -0.2482(2) -0.20127(15)
H24A H 1.5209 -0.2893 -0.2421
H25A H 1.5942 -0.2257 -0.1769
N1B N 0.1033(2) 0.04271(19) 0.14880(10)
N2B N 0.2055(2) 0.00289(18) 0.04928(10)
N3A N 1.4814(2) -0.44029(18) -0.14837(10)
N3B N -0.0186(2) -0.05971(18) 0.35163(10)
S1A S 1.38591(9) -0.12442(6) -0.22657(3)
O1A O 1.6131(2) -0.61790(18) -0.05970(10)
O2A O 1.4698(3) -0.0731(2) -0.28066(11)
O3A O 1.3836(3) -0.0560(2) -0.16468(11)
O4A O 1.2261(2) -0.16380(18) -0.25004(10)
O4C O -0.2261(2) 0.16380(18) 0.25004(10)
O5 O 1.2888(3) 0.6388(3) -0.32938(12)
H26 H 1.244(5) 0.700(4) -0.311(2)
H27 H 1.212(5) 0.582(5) -0.329(2)
loop_
_geom_bond_atom_site_label_1
_geom_bond_atom_site_label_2
_geom_bond_site_symmetry_1
_geom_bond_site_symmetry_2
Ag1 N1 1_555 1_555
C1 C2 1_555 1_555
C2 C3 1_555 1_555
C3 H1 1_555 1_555
C4 C3 1_555 1_555
H2 C4 1_555 1_555
C5 C4 1_555 1_555
H3 C5 1_555 1_555
C6 C1 1_555 1_555
H4 C6 1_555 1_555
C7 C8 1_555 1_555
C8 H5 1_555 1_555
H6 C8 1_555 1_555
C9 C8 1_555 1_555
H7 C9 1_555 1_555
H8 C9 1_555 1_555
H9 C9 1_555 1_555
C10 H10 1_555 1_555
H11 C10 1_555 1_555
C11 C10 1_555 1_555
H12 C11 1_555 1_555
H13 C11 1_555 1_555
C12 H14 1_555 1_555
H15 C12 1_555 1_555
C13 C12 1_555 1_555
H16 C13 1_555 1_555
H17 C13 1_555 1_555
C14 H18 1_555 1_555
H19 C14 1_555 1_555
C15 C14 1_555 1_555
H20 C15 1_555 1_555
H21 C15 1_555 1_555
C16 H22 1_555 1_555
H23 C16 1_555 1_555
C17 C16 1_555 1_555
H24 C17 1_555 1_555
H25 C17 1_555 1_555
N1 C2 1_555 1_555
N2 C1 1_555 1_555
N3 Ag1 1_555 1_555
S1 C17 1_555 1_555
O1 C13 1_555 1_555
O2 S1 1_555 1_555
O3 S1 1_555 1_555
O4 S1 1_555 1_555
O5 H26 1_555 1_555
H27 O5 1_555 1_555
Ag1B N1B 1_555 1_555
Ag1A O4 1_555 1_555
Ag1A_2 N3A 1_555 1_555
C1B C2B 1_555 1_555
C2B C3B 1_555 1_555
C3B H1B 1_555 1_555
C4B C3B 1_555 1_555
H2B C4B 1_555 1_555
C5B C4B 1_555 1_555
H3B C5B 1_555 1_555
C6B C1B 1_555 1_555
H4B C6B 1_555 1_555
C7B C8B 1_555 1_555
C8B H5B 1_555 1_555
H6B C8B 1_555 1_555
C9B C8B 1_555 1_555
H7B C9B 1_555 1_555
H8B C9B 1_555 1_555
H9B C9B 1_555 1_555
C10B H10B 1_555 1_555
H11B C10B 1_555 1_555
C11B C11 1_555 1_555
H12B C11B 1_555 1_555
H13B C11B 1_555 1_555
C12A H14A 1_555 1_555
H15A C12A 1_555 1_555
C13A C12A 1_555 1_555
H16A C13A 1_555 1_555
H17A C13A 1_555 1_555
C14A H18A 1_555 1_555
H19A C14A 1_555 1_555
C15A C14A 1_555 1_555
H20A C15A 1_555 1_555
H21A C15A 1_555 1_555
C16A H22A 1_555 1_555
H23A C16A 1_555 1_555
C17A C16A 1_555 1_555
H24A C17A 1_555 1_555
H25A C17A 1_555 1_555
N1B C2B 1_555 1_555
N2B C1B 1_555 1_555
N3A C12A 1_555 1_555
N3B Ag1B 1_555 1_555
S1A C17A 1_555 1_555
O1A C13A 1_555 1_555
O2A S1A 1_555 1_555
O3A S1A 1_555 1_555
O4A Ag1 1_555 1_555
O4C Ag1B 1_555 1_555
C5 C6 1_555 1_555
C7 N1 1_555 1_555
C7 N2 1_555 1_555
C10 N2 1_555 1_555
C12 N3 1_555 1_555
C14 O1 1_555 1_555
C15 N3 1_555 1_555
C16 N3 1_555 1_555
C5B C6B 1_555 1_555
C7B N1B 1_555 1_555
C7B N2B 1_555 1_555
C10B C11B 1_555 1_555
C10B N2B 1_555 1_555
C14A O1A 1_555 1_555
C15A N3A 1_555 1_555
C16A N3A 1_555 1_555
S1A O4A 1_555 1_555

#END
