
#######################################################################
#
#                 Cambridge Crystallographic Data Centre
#                                CCDC 
#
#######################################################################
#
# If this CIF has been generated from an entry in the Cambridge 
# Structural Database, then it will include bibliographic, chemical, 
# crystal, experimental, refinement or atomic coordinate data resulting 
# from the CCDC's data processing and validation procedures.
#
#######################################################################

data_QIWVEY
_symmetry_cell_setting           orthorhombic
_symmetry_space_group_name_H-M   'P b c a'
_symmetry_Int_Tables_number      61
_space_group_name_Hall           '-P 2ac 2ab'
loop_
_symmetry_equiv_pos_site_id
_symmetry_equiv_pos_as_xyz
1 x,y,z
2 1/2-x,-y,1/2+z
3 1/2+x,1/2-y,-z
4 -x,1/2+y,1/2-z
5 -x,-y,-z
6 1/2+x,y,1/2-z
7 1/2-x,1/2+y,z
8 x,1/2-y,1/2+z
_cell_length_a                   18.294(3)
_cell_length_b                   15.498(3)
_cell_length_c                   19.285(4)
_cell_angle_alpha                90
_cell_angle_beta                 90
_cell_angle_gamma                90
_cell_volume                     5467.69
loop_
_atom_site_label
_atom_site_type_symbol
_atom_site_fract_x
_atom_site_fract_y
_atom_site_fract_z
Cd1 Cd -0.084939(10) 0.487158(12) 0.746269(9)
C1 C 0.02379(14) 0.60912(19) 0.64704(14)
C2 C -0.00301(18) 0.5818(2) 0.58267(16)
H1 H -0.0392 0.5398 0.5794
C3 C 0.0264(2) 0.6196(3) 0.52472(18)
H2 H 0.0097 0.6026 0.4813
C4 C 0.08075(19) 0.6832(3) 0.52884(19)
H3 H 0.0992 0.7072 0.4883
C5 C 0.10734(17) 0.7106(2) 0.59190(19)
H4 H 0.1429 0.7533 0.5950
C6 C 0.07837(15) 0.67142(19) 0.65061(16)
C7 C 0.04921(14) 0.62744(19) 0.75567(15)
C8 C 0.05237(17) 0.6158(3) 0.83187(16)
H5 H 0.0550 0.6720 0.8539
H6 H 0.0077 0.5880 0.8473
C9 C 0.11786(19) 0.5616(3) 0.8550(2)
H7 H 0.1174 0.5559 0.9045
H8 H 0.1150 0.5054 0.8341
H9 H 0.1623 0.5893 0.8407
C10 C 0.14767(14) 0.7418(2) 0.74833(18)
H10 H 0.1441 0.7966 0.7243
H11 H 0.1370 0.7520 0.7969
C11 C 0.22558(14) 0.7077(2) 0.74155(17)
H12 H 0.2379 0.7014 0.6929
H13 H 0.2289 0.6513 0.7632
C12 C 0.27919(15) 0.7687(2) 0.77576(18)
H14 H 0.2785 0.8239 0.7520
H15 H 0.2651 0.7782 0.8237
C13 C 0.35571(15) 0.7306(2) 0.77298(18)
H16 H 0.3657 0.7114 0.7261
H17 H 0.3578 0.6805 0.8031
C14 C 0.45822(14) 0.83755(19) 0.75265(15)
C15 C 0.45613(17) 0.8324(3) 0.67643(16)
H18 H 0.5023 0.8531 0.6581
H19 H 0.4509 0.7724 0.6629
C16 C 0.3941(2) 0.8844(3) 0.64415(19)
H20 H 0.3957 0.8786 0.5946
H21 H 0.3481 0.8633 0.6611
H22 H 0.3994 0.9441 0.6565
C17 C 0.42751(15) 0.8154(2) 0.86193(16)
C18 C 0.39625(18) 0.7903(2) 0.92448(18)
H23 H 0.3585 0.7501 0.9264
C19 C 0.4242(2) 0.8282(2) 0.98348(18)
H24 H 0.4043 0.8140 1.0264
C20 C 0.48162(19) 0.8873(2) 0.98025(17)
H25 H 0.4993 0.9111 1.0212
C21 C 0.51282(16) 0.9112(2) 0.91845(15)
H26 H 0.5513 0.9504 0.9169
C22 C 0.48450(14) 0.87440(18) 0.85799(14)
C23 C -0.17677(16) 0.5131(2) 0.85404(16)
C24 C -0.23010(17) 0.5302(2) 0.91316(17)
H27 H -0.2182 0.5848 0.9350
H28 H -0.2793 0.5344 0.8948
C25 C -0.2272(2) 0.4598(3) 0.96604(18)
H29 H -0.1795 0.4611 0.9880
H30 H -0.2317 0.4049 0.9423
C26 C -0.2853(2) 0.4639(3) 1.02257(18)
H31 H -0.3330 0.4617 1.0007
H32 H -0.2807 0.4130 1.0514
C27 C -0.28273(17) 0.5423(2) 1.06877(16)
H33 H -0.2979 0.5926 1.0426
H34 H -0.2329 0.5517 1.0841
C28 C -0.33198(15) 0.5320(2) 1.13165(15)
N1 N 0.09320(12) 0.68244(16) 0.72003(13)
N2 N 0.00598(12) 0.58285(15) 0.71391(12)
N3 N 0.41232(12) 0.79215(16) 0.79414(13)
N4 N 0.50282(11) 0.88729(15) 0.78870(11)
O1 O -0.12915(11) 0.56898(15) 0.84024(11)
O2 O -0.18042(13) 0.44388(17) 0.82180(13)
O3 O -0.37568(11) 0.59127(15) 1.14735(11)
O4 O -0.32817(12) 0.46418(16) 1.16581(12)
Cd1F Cd 0.584939(10) 0.987158(12) 0.746269(9)
Cd1A Cd -0.415061(10) 0.512842(12) 1.246269(9)
N4F N -0.00282(11) 0.38729(15) 0.78870(11)
O3A O -0.12432(11) 0.40873(15) 0.64735(11)
O4A O -0.17183(12) 0.53582(16) 0.66581(12)
loop_
_geom_bond_atom_site_label_1
_geom_bond_atom_site_label_2
_geom_bond_site_symmetry_1
_geom_bond_site_symmetry_2
Cd1 N2 1_555 1_555
C1 C2 1_555 1_555
C2 H1 1_555 1_555
C3 C2 1_555 1_555
H2 C3 1_555 1_555
C4 C3 1_555 1_555
H3 C4 1_555 1_555
C5 C4 1_555 1_555
H4 C5 1_555 1_555
C6 C1 1_555 1_555
C7 C8 1_555 1_555
C8 H5 1_555 1_555
H6 C8 1_555 1_555
C9 C8 1_555 1_555
H7 C9 1_555 1_555
H8 C9 1_555 1_555
H9 C9 1_555 1_555
C10 H10 1_555 1_555
H11 C10 1_555 1_555
C11 C10 1_555 1_555
H12 C11 1_555 1_555
H13 C11 1_555 1_555
C12 C11 1_555 1_555
H14 C12 1_555 1_555
H15 C12 1_555 1_555
C13 C12 1_555 1_555
H16 C13 1_555 1_555
H17 C13 1_555 1_555
C14 C15 1_555 1_555
C15 H18 1_555 1_555
H19 C15 1_555 1_555
C16 C15 1_555 1_555
H20 C16 1_555 1_555
H21 C16 1_555 1_555
H22 C16 1_555 1_555
C17 C18 1_555 1_555
C18 H23 1_555 1_555
C19 C18 1_555 1_555
H24 C19 1_555 1_555
C20 C19 1_555 1_555
H25 C20 1_555 1_555
C21 C20 1_555 1_555
H26 C21 1_555 1_555
C22 C17 1_555 1_555
C23 C24 1_555 1_555
C24 H27 1_555 1_555
H28 C24 1_555 1_555
C25 C24 1_555 1_555
H29 C25 1_555 1_555
H30 C25 1_555 1_555
C26 C25 1_555 1_555
H31 C26 1_555 1_555
H32 C26 1_555 1_555
C27 C26 1_555 1_555
H33 C27 1_555 1_555
H34 C27 1_555 1_555
C28 C27 1_555 1_555
N1 C6 1_555 1_555
N2 C1 1_555 1_555
N3 C13 1_555 1_555
N4 C14 1_555 1_555
O1 Cd1 1_555 1_555
O2 Cd1 1_555 1_555
O3 C28 1_555 1_555
O4 C28 1_555 1_555
Cd1F N4 1_555 1_555
Cd1A O3 1_555 1_555
N4F Cd1 1_555 1_555
O3A Cd1 1_555 1_555
O4A Cd1 1_555 1_555
C5 C6 1_555 1_555
C7 N1 1_555 1_555
C7 N2 1_555 1_555
C10 N1 1_555 1_555
C14 N3 1_555 1_555
C17 N3 1_555 1_555
C21 C22 1_555 1_555
C22 N4 1_555 1_555
C23 O1 1_555 1_555
C23 O2 1_555 1_555
O4 Cd1A 1_555 1_555

#END
