
#######################################################################
#
#                 Cambridge Crystallographic Data Centre
#                                CCDC 
#
#######################################################################
#
# If this CIF has been generated from an entry in the Cambridge 
# Structural Database, then it will include bibliographic, chemical, 
# crystal, experimental, refinement or atomic coordinate data resulting 
# from the CCDC's data processing and validation procedures.
#
#######################################################################

data_QIWVIC
_symmetry_cell_setting           monoclinic
_symmetry_space_group_name_H-M   'C c'
_symmetry_Int_Tables_number      9
_space_group_name_Hall           'C -2yc'
loop_
_symmetry_equiv_pos_site_id
_symmetry_equiv_pos_as_xyz
1 x,y,z
2 x,-y,1/2+z
3 1/2+x,1/2+y,z
4 1/2+x,1/2-y,1/2+z
_cell_length_a                   10.540(3)
_cell_length_b                   22.909(4)
_cell_length_c                   14.916(8)
_cell_angle_alpha                90
_cell_angle_beta                 102.087(18)
_cell_angle_gamma                90
_cell_volume                     3521.78
loop_
_atom_site_label
_atom_site_type_symbol
_atom_site_fract_x
_atom_site_fract_y
_atom_site_fract_z
Cd1 Cd 0.50338(3) 0.172568(12) 0.41381(3)
C1 C 0.4091(5) 0.1992(2) 0.6054(3)
C2 C 0.4562(6) 0.2116(2) 0.6975(3)
C3 C 0.3759(7) 0.2356(3) 0.7512(4)
H1 H 0.4072 0.2452 0.8124
C4 C 0.2494(9) 0.2443(4) 0.7096(6)
H2 H 0.1925 0.2590 0.7439
C5 C 0.2034(8) 0.2320(4) 0.6187(5)
H3 H 0.1165 0.2393 0.5932
C6 C 0.2807(6) 0.2094(3) 0.5640(4)
H4 H 0.2486 0.2013 0.5024
C7 C 0.6138(5) 0.1775(2) 0.6369(4)
C8 C 0.7429(6) 0.1586(2) 0.6253(4)
H5 H 0.8075 0.1831 0.6634
H6 H 0.7485 0.1653 0.5620
C9 C 0.7777(5) 0.0954(2) 0.6484(4)
C10 C 0.9053(6) 0.0790(3) 0.6692(4)
H7 H 0.9698 0.1068 0.6696
C11 C 0.9397(8) 0.0213(4) 0.6896(5)
H8 H 1.0267 0.0106 0.7049
C12 C 0.8451(8) -0.0198(3) 0.6870(4)
H9 H 0.8680 -0.0585 0.7008
C13 C 0.7156(8) -0.0044(3) 0.6641(4)
H10 H 0.6512 -0.0323 0.6626
C14 C 0.6831(6) 0.0536(2) 0.6434(3)
H11 H 0.5962 0.0642 0.6258
C15 C 0.6778(6) 0.2057(2) 0.8039(3)
H12 H 0.6693 0.2454 0.8247
H13 H 0.7654 0.2011 0.7942
C16 C 0.6577(6) 0.16362(19) 0.8787(4)
H14 H 0.7147 0.1749 0.9359
H15 H 0.5691 0.1674 0.8868
C17 C 0.6831(5) 0.10011(19) 0.8597(3)
H16 H 0.7649 0.0967 0.8401
H17 H 0.6148 0.0856 0.8108
C18 C 0.6878(6) 0.0639(2) 0.9456(3)
H18 H 0.7642 0.0747 0.9911
H19 H 0.6122 0.0728 0.9707
C19 C 0.8029(5) -0.0315(2) 0.9238(3)
C20 C 0.9281(6) -0.0156(3) 0.9288(4)
H20 H 0.9544 0.0232 0.9364
C21 C 1.0136(10) -0.0594(3) 0.9222(7)
H21 H 1.1005 -0.0502 0.9259
C22 C 0.9747(6) -0.1169(3) 0.9102(6)
H22 H 1.0361 -0.1453 0.9059
C23 C 0.8490(6) -0.1331(2) 0.9045(4)
H23 H 0.8231 -0.1719 0.8963
C24 C 0.7623(5) -0.0895(2) 0.9115(3)
C25 C 0.5912(7) -0.0379(3) 0.9215(4)
C26 C 0.4554(6) -0.0198(3) 0.9207(4)
H24 H 0.4549 0.0065 0.9715
H25 H 0.4048 -0.0540 0.9292
C27 C 0.3921(5) 0.0103(2) 0.8314(4)
C28 C 0.3273(7) 0.0622(3) 0.8309(6)
H26 H 0.3205 0.0796 0.8861
C29 C 0.2718(9) 0.0891(4) 0.7487(9)
H27 H 0.2322 0.1253 0.7495
C30 C 0.2744(9) 0.0637(5) 0.6677(9)
H28 H 0.2319 0.0806 0.6129
C31 C 0.3400(9) 0.0132(4) 0.6676(6)
H29 H 0.3462 -0.0039 0.6122
C32 C 0.3971(6) -0.0130(3) 0.7474(5)
H30 H 0.4412 -0.0480 0.7451
C33 C 0.5665(9) 0.2866(4) 0.4247(4)
C34 C 0.5942(8) 0.3507(3) 0.4450(5)
H31 H 0.6829 0.3590 0.4406
H32 H 0.5373 0.3739 0.3990
C35 C 0.5755(7) 0.3683(3) 0.5382(4)
H33 H 0.5771 0.4106 0.5430
H34 H 0.4914 0.3549 0.5465
C36 C 0.6769(7) 0.3437(3) 0.6098(4)
H35 H 0.7606 0.3538 0.5968
H36 H 0.6694 0.3015 0.6075
C37 C 0.6738(7) 0.3643(3) 0.7084(4)
H37 H 0.6605 0.4062 0.7074
H38 H 0.5998 0.3463 0.7268
C38 C 0.7934(6) 0.3504(2) 0.7796(4)
N1 N 0.5098(4) 0.17709(17) 0.5686(3)
N2 N 0.5858(4) 0.19698(17) 0.7162(3)
N3 N 0.6913(4) 0.00058(17) 0.9285(3)
N4 N 0.6292(4) -0.09216(17) 0.9099(3)
O1 O 0.4504(6) 0.2725(2) 0.4104(4)
O2 O 0.6539(4) 0.25055(18) 0.4256(3)
O3 O 0.7893(4) 0.35585(16) 0.8630(3)
O4 O 0.8958(4) 0.33430(17) 0.7561(3)
Cd1A Cd 0.50338(3) -0.172568(12) 0.91381(3)
Cd1C Cd 1.00338(3) 0.327432(12) 0.91381(3)
N4A N 0.6292(4) 0.09216(17) 0.4099(3)
O3C O 0.2893(4) 0.14415(16) 0.3630(3)
O4C O 0.3958(4) 0.16570(17) 0.2561(3)
O5 O 0.9090(7) 0.2783(3) 0.4852(6)
O6 O 1.0228(9) 0.3665(3) 0.6159(6)
H39 H 1.024(14) 0.4016(10) 0.615(10)
H40 H 0.962(13) 0.340(4) 0.586(10)
loop_
_geom_bond_atom_site_label_1
_geom_bond_atom_site_label_2
_geom_bond_site_symmetry_1
_geom_bond_site_symmetry_2
Cd1 N1 1_555 1_555
C1 C2 1_555 1_555
C2 C3 1_555 1_555
C3 H1 1_555 1_555
C4 C3 1_555 1_555
H2 C4 1_555 1_555
C5 C4 1_555 1_555
H3 C5 1_555 1_555
C6 C1 1_555 1_555
H4 C6 1_555 1_555
C7 C8 1_555 1_555
C8 H5 1_555 1_555
H6 C8 1_555 1_555
C9 C8 1_555 1_555
C10 C9 1_555 1_555
H7 C10 1_555 1_555
C11 C10 1_555 1_555
H8 C11 1_555 1_555
C12 C11 1_555 1_555
H9 C12 1_555 1_555
C13 C12 1_555 1_555
H10 C13 1_555 1_555
C14 C9 1_555 1_555
H11 C14 1_555 1_555
C15 H12 1_555 1_555
H13 C15 1_555 1_555
C16 C15 1_555 1_555
H14 C16 1_555 1_555
H15 C16 1_555 1_555
C17 C16 1_555 1_555
H16 C17 1_555 1_555
H17 C17 1_555 1_555
C18 C17 1_555 1_555
H18 C18 1_555 1_555
H19 C18 1_555 1_555
C19 C20 1_555 1_555
C20 H20 1_555 1_555
C21 C20 1_555 1_555
H21 C21 1_555 1_555
C22 C21 1_555 1_555
H22 C22 1_555 1_555
C23 C22 1_555 1_555
H23 C23 1_555 1_555
C24 C19 1_555 1_555
C25 C26 1_555 1_555
C26 H24 1_555 1_555
H25 C26 1_555 1_555
C27 C26 1_555 1_555
C28 C27 1_555 1_555
H26 C28 1_555 1_555
C29 C28 1_555 1_555
H27 C29 1_555 1_555
C30 C29 1_555 1_555
H28 C30 1_555 1_555
C31 C30 1_555 1_555
H29 C31 1_555 1_555
C32 C27 1_555 1_555
H30 C32 1_555 1_555
C33 C34 1_555 1_555
C34 H31 1_555 1_555
H32 C34 1_555 1_555
C35 C34 1_555 1_555
H33 C35 1_555 1_555
H34 C35 1_555 1_555
C36 C35 1_555 1_555
H35 C36 1_555 1_555
H36 C36 1_555 1_555
C37 C36 1_555 1_555
H37 C37 1_555 1_555
H38 C37 1_555 1_555
C38 C37 1_555 1_555
N1 C1 1_555 1_555
N2 C2 1_555 1_555
N3 C18 1_555 1_555
N4 C24 1_555 1_555
O1 Cd1 1_555 1_555
O2 Cd1 1_555 1_555
O3 C38 1_555 1_555
O4 C38 1_555 1_555
O6 H39 1_555 1_555
H40 O6 1_555 1_555
Cd1A N4 1_555 1_555
Cd1C O3 1_555 1_555
N4A Cd1 1_555 1_555
O3C Cd1 1_555 1_555
O4C Cd1 1_555 1_555
C5 C6 1_555 1_555
C7 N1 1_555 1_555
C7 N2 1_555 1_555
C13 C14 1_555 1_555
C15 N2 1_555 1_555
C19 N3 1_555 1_555
C23 C24 1_555 1_555
C25 N3 1_555 1_555
C25 N4 1_555 1_555
C31 C32 1_555 1_555
C33 O1 1_555 1_555
C33 O2 1_555 1_555
O4 Cd1C 1_555 1_555

#END
