
#######################################################################
#
#                 Cambridge Crystallographic Data Centre
#                                CCDC 
#
#######################################################################
#
# If this CIF has been generated from an entry in the Cambridge 
# Structural Database, then it will include bibliographic, chemical, 
# crystal, experimental, refinement or atomic coordinate data resulting 
# from the CCDC's data processing and validation procedures.
#
#######################################################################

data_QIWVOJ
_symmetry_cell_setting           monoclinic
_symmetry_space_group_name_H-M   'P 21/n'
_symmetry_Int_Tables_number      14
_space_group_name_Hall           '-P 2yn'
loop_
_symmetry_equiv_pos_site_id
_symmetry_equiv_pos_as_xyz
1 x,y,z
2 1/2-x,1/2+y,1/2-z
3 -x,-y,-z
4 1/2+x,1/2-y,1/2+z
_cell_length_a                   12.3764(4)
_cell_length_b                   9.30391(19)
_cell_length_c                   18.2048(4)
_cell_angle_alpha                90
_cell_angle_beta                 109.353(3)
_cell_angle_gamma                90
_cell_volume                     1977.81
loop_
_atom_site_label
_atom_site_type_symbol
_atom_site_fract_x
_atom_site_fract_y
_atom_site_fract_z
Ni1 Ni 0.40116(3) 0.46122(3) 0.172482(17)
O1 O 0.44777(15) 0.5445(2) 0.28565(10)
O2 O 0.62396(19) 0.6117(3) 0.29772(12)
O3 O 0.56749(17) 1.1641(2) 0.25097(14)
O4 O 0.39112(16) 1.2561(2) 0.20993(11)
O5 O 0.57750(16) 0.4264(2) 0.18525(11)
H1 H 0.5984 0.3391 0.2016
H2 H 0.6217 0.4863 0.2189
N1 N 0.27103(18) 0.9702(2) 0.33390(12)
N2 N 0.41241(19) 0.6610(2) 0.12516(12)
N3 N 0.4030(2) 0.7879(3) 0.02142(14)
H3 H 0.3918 0.8102 -0.0264
N4 N 0.35602(18) 0.4074(2) 0.05215(12)
N5 N 0.3415(2) 0.4848(3) -0.06473(13)
H4 H 0.3411 0.5421 -0.1019
C1 C 0.5433(2) 0.5922(3) 0.32391(15)
C2 C 0.5685(2) 0.6261(3) 0.40929(14)
C3 C 0.6322(2) 0.5243(3) 0.46258(16)
H5 H 0.6591 0.4429 0.4445
C4 C 0.6558(2) 0.5426(3) 0.54124(16)
H6 H 0.6975 0.4735 0.5760
C5 C 0.6172(3) 0.6639(3) 0.56830(16)
H7 H 0.6319 0.6771 0.6214
C6 C 0.5557(2) 0.7665(3) 0.51485(16)
H8 H 0.5315 0.8497 0.5331
C7 C 0.5304(2) 0.7481(3) 0.43729(15)
C8 C 0.4573(2) 0.8593(3) 0.38272(14)
C9 C 0.4985(2) 0.9555(3) 0.33981(14)
H9 H 0.5744 0.9512 0.3417
C10 C 0.4249(2) 1.0581(2) 0.29407(14)
C11 C 0.3121(2) 1.0612(3) 0.29269(14)
H10 H 0.2629 1.1295 0.2617
C12 C 0.3432(2) 0.8723(3) 0.37764(14)
H11 H 0.3152 0.8089 0.4065
C13 C 0.4653(2) 1.1678(3) 0.24776(14)
C14 C 0.4435(3) 0.8000(3) 0.14697(18)
H12 H 0.4651 0.8350 0.1976
C15 C 0.4378(3) 0.8779(3) 0.0836(2)
H13 H 0.4546 0.9751 0.0826
C16 C 0.3894(2) 0.6583(3) 0.04871(15)
C17 C 0.3607(2) 0.5209(3) 0.00997(14)
C18 C 0.3227(3) 0.3400(4) -0.07051(17)
H14 H 0.3066 0.2844 -0.1153
C19 C 0.3320(2) 0.2933(3) 0.00176(17)
H15 H 0.3235 0.1985 0.0151
Ni1_2 Ni 0.40116(3) 1.46122(3) 0.172482(17)
Ni1A Ni 0.09884(3) 0.96122(3) 0.327518(17)
O4_2 O 0.39112(16) 0.2561(2) 0.20993(11)
N1A N 0.22897(18) 0.4702(2) 0.16610(12)
O6 O 0.8475(2) 0.6270(4) 0.37306(13)
H16 H 0.7750 0.6267 0.3528
H17 H 0.8774 0.6294 0.3372
loop_
_geom_bond_atom_site_label_1
_geom_bond_atom_site_label_2
_geom_bond_site_symmetry_1
_geom_bond_site_symmetry_2
Ni1 O1 1_555 1_555
O1 C1 1_555 1_555
O2 C1 1_555 1_555
O3 C13 1_555 1_555
O4 C13 1_555 1_555
O5 Ni1 1_555 1_555
H1 O5 1_555 1_555
H2 O5 1_555 1_555
N1 C11 1_555 1_555
N2 Ni1 1_555 1_555
N3 H3 1_555 1_555
N4 Ni1 1_555 1_555
N5 H4 1_555 1_555
C1 C2 1_555 1_555
C2 C3 1_555 1_555
C3 H5 1_555 1_555
C4 C3 1_555 1_555
H6 C4 1_555 1_555
C5 C4 1_555 1_555
H7 C5 1_555 1_555
C6 C5 1_555 1_555
H8 C6 1_555 1_555
C7 C2 1_555 1_555
C8 C7 1_555 1_555
C9 C8 1_555 1_555
H9 C9 1_555 1_555
C10 C9 1_555 1_555
C11 C10 1_555 1_555
H10 C11 1_555 1_555
C12 N1 1_555 1_555
H11 C12 1_555 1_555
C13 C10 1_555 1_555
C14 N2 1_555 1_555
H12 C14 1_555 1_555
C15 N3 1_555 1_555
H13 C15 1_555 1_555
C16 N2 1_555 1_555
C17 N4 1_555 1_555
C18 N5 1_555 1_555
H14 C18 1_555 1_555
C19 N4 1_555 1_555
H15 C19 1_555 1_555
O6 H16 1_555 1_555
H17 O6 1_555 1_555
Ni1_2 O4 1_555 1_555
Ni1A N1 1_555 1_555
O4_2 Ni1 1_555 1_555
N1A Ni1 1_555 1_555
N3 C16 1_555 1_555
N5 C17 1_555 1_555
C6 C7 1_555 1_555
C8 C12 1_555 1_555
C14 C15 1_555 1_555
C16 C17 1_555 1_555
C18 C19 1_555 1_555

#END
