
#######################################################################
#
#                 Cambridge Crystallographic Data Centre
#                                CCDC 
#
#######################################################################
#
# If this CIF has been generated from an entry in the Cambridge 
# Structural Database, then it will include bibliographic, chemical, 
# crystal, experimental, refinement or atomic coordinate data resulting 
# from the CCDC's data processing and validation procedures.
#
#######################################################################

data_QIWWUQ
_symmetry_cell_setting           triclinic
_symmetry_space_group_name_H-M   'P -1'
_symmetry_Int_Tables_number      2
_space_group_name_Hall           '-P 1'
loop_
_symmetry_equiv_pos_site_id
_symmetry_equiv_pos_as_xyz
1 x,y,z
2 -x,-y,-z
_cell_length_a                   7.3343(3)
_cell_length_b                   11.1981(5)
_cell_length_c                   14.8920(6)
_cell_angle_alpha                82.442(4)
_cell_angle_beta                 87.777(3)
_cell_angle_gamma                70.971(4)
_cell_volume                     1146.19
loop_
_atom_site_label
_atom_site_type_symbol
_atom_site_fract_x
_atom_site_fract_y
_atom_site_fract_z
Ni1 Ni 0.54493(5) 0.08813(4) 0.69404(3)
O1 O 0.7921(3) 0.0084(2) 0.77585(14)
H1 H 0.7800 -0.0536 0.8123
H2 H 0.8872 -0.0165 0.7439
O2 O 0.2922(3) 0.1501(2) 0.61551(14)
H3 H 0.2417 0.0912 0.6194
H4 H 0.3151 0.1662 0.5690
O3 O 0.4906(3) -0.0818(2) 0.71122(14)
O4 O 0.7227(3) 0.0237(2) 0.57956(14)
H5 H 0.8389 -0.0128 0.5970
H6 H 0.7165 0.0847 0.5413
O5 O 0.0857(3) -0.0340(2) 0.65031(15)
O6 O 0.6593(3) -0.1816(2) 0.83652(16)
O7 O 0.2980(3) -0.1825(2) 0.57880(15)
N1 N 0.7459(5) 0.3983(3) 0.6403(3)
N2 N 0.3789(4) 0.1385(3) 0.80763(17)
N3 N 0.5929(4) 0.2596(2) 0.66978(18)
N4 N 0.1361(4) 0.1663(3) 0.90245(18)
C1 C 0.9059(6) 0.4497(4) 0.6128(3)
H7 H 0.8846 0.5289 0.6377
H8 H 1.0271 0.3896 0.6367
C2 C 0.5669(6) 0.4622(4) 0.6674(4)
H9 H 0.5153 0.5491 0.6707
C3 C 0.4791(6) 0.3751(4) 0.6885(3)
H10 H 0.3559 0.3917 0.7128
C4 C 0.3985(4) -0.2462(3) 0.7960(2)
C5 C 0.5272(4) -0.1641(3) 0.7811(2)
C6 C 0.2500(4) -0.2332(3) 0.7353(2)
C7 C 0.2118(4) -0.1427(3) 0.6482(2)
C8 C 0.9164(6) 0.4720(4) 0.5142(3)
H11 H 0.7947 0.5311 0.4901
H12 H 0.9398 0.3925 0.4893
C9 C 0.1994(5) 0.1411(3) 0.8194(2)
H13 H 0.1251 0.1272 0.7752
C10 C -0.0547(5) 0.1717(4) 0.9382(3)
H14 H -0.1345 0.1660 0.8895
H15 H -0.1149 0.2531 0.9604
C11 C 0.0203(6) -0.4737(4) 0.8523(3)
H16 H 0.0787 -0.5554 0.8318
H17 H -0.1001 -0.4307 0.8212
H18 H -0.0024 -0.4849 0.9163
C12 C 0.1298(5) -0.3074(3) 0.7548(2)
H19 H 0.0308 -0.2984 0.7147
C13 C 0.1541(5) -0.3945(3) 0.8327(3)
C14 C -0.0459(5) 0.0657(4) 1.0142(2)
H20 H -0.1757 0.0742 1.0354
H21 H 0.0272 0.0748 1.0643
C15 C 0.2856(5) 0.1793(4) 0.9475(2)
H22 H 0.2862 0.1963 1.0069
C16 C 0.4231(5) -0.3347(3) 0.8727(2)
H23 H 0.5221 -0.3448 0.9131
C17 C 0.4325(5) 0.1625(4) 0.8879(2)
H24 H 0.5535 0.1668 0.9001
C18 C 0.3038(5) -0.4081(3) 0.8905(3)
H25 H 0.3247 -0.4675 0.9421
C19 C 0.7529(6) 0.2771(4) 0.6408(3)
H26 H 0.8594 0.2132 0.6227
N1A N 1.2541(5) 0.6017(3) 0.3597(3)
N3A N 1.4071(4) 0.7404(2) 0.33022(18)
C1A C 1.0941(6) 0.5503(4) 0.3872(3)
H7A H 1.1154 0.4711 0.3623
H8A H 0.9729 0.6104 0.3633
C2A C 1.4331(6) 0.5378(4) 0.3326(4)
H9A H 1.4847 0.4509 0.3293
C3A C 1.5209(6) 0.6249(4) 0.3115(3)
H10A H 1.6441 0.6083 0.2872
C8A C 1.0836(6) 0.5280(4) 0.4858(3)
H11A H 1.2053 0.4689 0.5099
H12A H 1.0602 0.6075 0.5107
C19A C 1.2471(6) 0.7229(4) 0.3592(3)
H26A H 1.1406 0.7868 0.3773
N2A N -0.3789(4) -0.1385(3) 1.19237(17)
N4A N -0.1361(4) -0.1663(3) 1.09755(18)
C9A C -0.1994(5) -0.1411(3) 1.1806(2)
H13A H -0.1251 -0.1272 1.2248
C10A C 0.0547(5) -0.1717(4) 1.0618(3)
H14A H 0.1345 -0.1660 1.1105
H15A H 0.1149 -0.2531 1.0396
C14A C 0.0459(5) -0.0657(4) 0.9858(2)
H20A H 0.1757 -0.0742 0.9646
H21A H -0.0272 -0.0748 0.9357
C15A C -0.2856(5) -0.1793(4) 1.0525(2)
H22A H -0.2862 -0.1963 0.9931
C17A C -0.4325(5) -0.1625(4) 1.1121(2)
H24A H -0.5535 -0.1668 1.0999
Ni1A Ni -0.54493(5) -0.08813(4) 1.30596(3)
O1A O -0.7921(3) -0.0084(2) 1.22415(14)
H1A H -0.7800 0.0536 1.1877
H2A H -0.8872 0.0165 1.2561
O2A O -0.2922(3) -0.1501(2) 1.38449(14)
H3A H -0.2417 -0.0912 1.3806
H4A H -0.3151 -0.1662 1.4310
O3A O -0.4906(3) 0.0818(2) 1.28878(14)
O4A O -0.7227(3) -0.0237(2) 1.42044(14)
H5A H -0.8389 0.0128 1.4030
H6A H -0.7165 -0.0847 1.4587
O5A O -0.0857(3) 0.0340(2) 1.34969(15)
O6A O -0.6593(3) 0.1816(2) 1.16348(16)
O7A O -0.2980(3) 0.1825(2) 1.42120(15)
C4A C -0.3985(4) 0.2462(3) 1.2040(2)
C5A C -0.5272(4) 0.1641(3) 1.2189(2)
C6A C -0.2500(4) 0.2332(3) 1.2647(2)
C7A C -0.2118(4) 0.1427(3) 1.3518(2)
C11A C -0.0203(6) 0.4737(4) 1.1477(3)
H16A H -0.0787 0.5554 1.1682
H17A H 0.1001 0.4307 1.1788
H18A H 0.0024 0.4849 1.0837
C12A C -0.1298(5) 0.3074(3) 1.2452(2)
H19A H -0.0308 0.2984 1.2853
C13A C -0.1541(5) 0.3945(3) 1.1673(3)
C16A C -0.4231(5) 0.3347(3) 1.1273(2)
H23A H -0.5221 0.3448 1.0869
C18A C -0.3038(5) 0.4081(3) 1.1095(3)
H25A H -0.3247 0.4675 1.0579
Ni1A_2 Ni 1.45507(5) 0.91187(4) 0.30596(3)
N3A_2 N -0.5929(4) -0.2596(2) 1.33022(18)
O8 O 0.3072(4) 0.2285(2) 0.43609(16)
H27 H 0.2971 0.1473 0.4307
H28 H 0.4283 0.2149 0.4314
loop_
_geom_bond_atom_site_label_1
_geom_bond_atom_site_label_2
_geom_bond_site_symmetry_1
_geom_bond_site_symmetry_2
Ni1 O1 1_555 1_555
O1 H1 1_555 1_555
H2 O1 1_555 1_555
O2 Ni1 1_555 1_555
H3 O2 1_555 1_555
H4 O2 1_555 1_555
O3 Ni1 1_555 1_555
O4 Ni1 1_555 1_555
H5 O4 1_555 1_555
H6 O4 1_555 1_555
O5 C7 1_555 1_555
O6 C5 1_555 1_555
O7 C7 1_555 1_555
N1 C1 1_555 1_555
N2 Ni1 1_555 1_555
N3 Ni1 1_555 1_555
N4 C9 1_555 1_555
C1 H7 1_555 1_555
H8 C1 1_555 1_555
C2 N1 1_555 1_555
H9 C2 1_555 1_555
C3 N3 1_555 1_555
H10 C3 1_555 1_555
C4 C5 1_555 1_555
C5 O3 1_555 1_555
C6 C4 1_555 1_555
C7 C6 1_555 1_555
C8 C1 1_555 1_555
H11 C8 1_555 1_555
H12 C8 1_555 1_555
C9 N2 1_555 1_555
H13 C9 1_555 1_555
C10 N4 1_555 1_555
H14 C10 1_555 1_555
H15 C10 1_555 1_555
C11 H16 1_555 1_555
H17 C11 1_555 1_555
H18 C11 1_555 1_555
C12 C6 1_555 1_555
H19 C12 1_555 1_555
C13 C11 1_555 1_555
C14 C10 1_555 1_555
H20 C14 1_555 1_555
H21 C14 1_555 1_555
C15 N4 1_555 1_555
H22 C15 1_555 1_555
C16 C4 1_555 1_555
H23 C16 1_555 1_555
C17 N2 1_555 1_555
H24 C17 1_555 1_555
C18 C13 1_555 1_555
H25 C18 1_555 1_555
C19 N1 1_555 1_555
H26 C19 1_555 1_555
O8 H27 1_555 1_555
H28 O8 1_555 1_555
N1A C1A 1_555 1_555
N3A C3A 1_555 1_555
C1A H7A 1_555 1_555
H8A C1A 1_555 1_555
C2A N1A 1_555 1_555
H9A C2A 1_555 1_555
C3A C2A 1_555 1_555
H10A C3A 1_555 1_555
C8A C8 1_555 1_555
H11A C8A 1_555 1_555
H12A C8A 1_555 1_555
C19A N1A 1_555 1_555
H26A C19A 1_555 1_555
N2A C9A 1_555 1_555
N4A C9A 1_555 1_555
C9A H13A 1_555 1_555
C10A N4A 1_555 1_555
H14A C10A 1_555 1_555
H15A C10A 1_555 1_555
C14A C14 1_555 1_555
H20A C14A 1_555 1_555
H21A C14A 1_555 1_555
C15A N4A 1_555 1_555
H22A C15A 1_555 1_555
C17A N2A 1_555 1_555
H24A C17A 1_555 1_555
Ni1A N2A 1_555 1_555
O1A Ni1A 1_555 1_555
H1A O1A 1_555 1_555
H2A O1A 1_555 1_555
O2A Ni1A 1_555 1_555
H3A O2A 1_555 1_555
H4A O2A 1_555 1_555
O3A Ni1A 1_555 1_555
O4A Ni1A 1_555 1_555
H5A O4A 1_555 1_555
H6A O4A 1_555 1_555
O5A C7A 1_555 1_555
O6A C5A 1_555 1_555
O7A C7A 1_555 1_555
C4A C5A 1_555 1_555
C5A O3A 1_555 1_555
C6A C4A 1_555 1_555
C7A C6A 1_555 1_555
C11A H16A 1_555 1_555
H17A C11A 1_555 1_555
H18A C11A 1_555 1_555
C12A C6A 1_555 1_555
H19A C12A 1_555 1_555
C13A C11A 1_555 1_555
C16A C4A 1_555 1_555
H23A C16A 1_555 1_555
C18A C13A 1_555 1_555
H25A C18A 1_555 1_555
Ni1A_2 N3A 1_555 1_555
N3A_2 Ni1A 1_555 1_555
N3 C19 1_555 1_555
C2 C3 1_555 1_555
C12 C13 1_555 1_555
C15 C17 1_555 1_555
C16 C18 1_555 1_555
N3A C19A 1_555 1_555
C1A C8A 1_555 1_555
C10A C14A 1_555 1_555
C15A C17A 1_555 1_555
C12A C13A 1_555 1_555
C16A C18A 1_555 1_555

#END
