
#######################################################################
#
#                 Cambridge Crystallographic Data Centre
#                                CCDC 
#
#######################################################################
#
# If this CIF has been generated from an entry in the Cambridge 
# Structural Database, then it will include bibliographic, chemical, 
# crystal, experimental, refinement or atomic coordinate data resulting 
# from the CCDC's data processing and validation procedures.
#
#######################################################################

data_QIWZEB
_symmetry_cell_setting           orthorhombic
_symmetry_space_group_name_H-M   'P 21 21 21'
_symmetry_Int_Tables_number      19
_space_group_name_Hall           'P 2ac 2ab'
loop_
_symmetry_equiv_pos_site_id
_symmetry_equiv_pos_as_xyz
1 x,y,z
2 1/2-x,-y,1/2+z
3 1/2+x,1/2-y,-z
4 -x,1/2+y,1/2-z
_cell_length_a                   13.419(2)
_cell_length_b                   7.8294(7)
_cell_length_c                   12.989(3)
_cell_angle_alpha                90
_cell_angle_beta                 90
_cell_angle_gamma                90
_cell_volume                     1364.66
loop_
_atom_site_label
_atom_site_type_symbol
_atom_site_fract_x
_atom_site_fract_y
_atom_site_fract_z
Cd1 Cd -0.32510(1) 0.26027(3) 0.08290(2)
S1 S -0.22230(5) 0.52506(10) 0.05834(6)
S2 S -0.43564(4) 0.2426(1) 0.23790(6)
O1 O -0.2152(1) 0.0422(2) 0.0823(2)
O2 O -0.1810(1) 0.1884(2) 0.2237(2)
O3 O -0.0697(1) -0.1592(3) 0.4633(2)
O4 O -0.1956(1) -0.1670(2) 0.3510(2)
N1 N -0.2936(2) 0.5330(3) -0.1355(2)
N2 N -0.2453(1) 0.7902(3) -0.0651(2)
N3 N -0.5852(1) 0.2913(4) 0.1034(2)
N4 N -0.6251(1) 0.2945(3) 0.2735(2)
C1 C -0.2580(2) 0.6210(4) -0.0555(3)
C2 C -0.5574(2) 0.2780(4) 0.2016(2)
C3 C -0.1646(2) 0.0660(4) 0.1639(2)
C4 C -0.0786(2) -0.0560(4) 0.1832(2)
C5 C -0.0385(2) -0.0531(4) 0.2945(2)
C6 C -0.1063(2) -0.1327(4) 0.3728(2)
H1 H -0.3208 0.4131 -0.1309
H2 H -0.3108 0.5906 -0.1982
H3 H -0.2181 0.8555 -0.0079
H4 H -0.2614 0.8490 -0.1264
H5 H -0.6540 0.3125 0.0831
H6 H -0.5376 0.2798 0.0485
H7 H -0.6081 0.2874 0.3461
H8 H -0.6947 0.3167 0.2582
H9 H -0.0987 -0.1710 0.1698
H10 H -0.0241 -0.0295 0.1376
H11 H 0.0257 -0.1065 0.2972
H12 H -0.0282 0.0667 0.3134
O3A O -0.4303(1) 0.1592(3) -0.0367(2)
Cd1A Cd -0.17490(1) -0.26027(3) 0.58290(2)
O5 O -0.5230(2) 0.3010(3) 0.4740(2)
loop_
_geom_bond_atom_site_label_1
_geom_bond_atom_site_label_2
_geom_bond_site_symmetry_1
_geom_bond_site_symmetry_2
Cd1 S1 1_555 1_555
S1 C1 1_555 1_555
S2 Cd1 1_555 1_555
O1 Cd1 1_555 1_555
O2 C3 1_555 1_555
O3 C6 1_555 1_555
O4 C6 1_555 1_555
N1 C1 1_555 1_555
N2 C1 1_555 1_555
N3 C2 1_555 1_555
N4 C2 1_555 1_555
C2 S2 1_555 1_555
C3 O1 1_555 1_555
C4 C3 1_555 1_555
C5 C4 1_555 1_555
C6 C5 1_555 1_555
H1 N1 1_555 1_555
H2 N1 1_555 1_555
H3 N2 1_555 1_555
H4 N2 1_555 1_555
H5 N3 1_555 1_555
H6 N3 1_555 1_555
H7 N4 1_555 1_555
H8 N4 1_555 1_555
H9 C4 1_555 1_555
H10 C4 1_555 1_555
H11 C5 1_555 1_555
H12 C5 1_555 1_555
O3A Cd1 1_555 1_555
Cd1A O3 1_555 1_555

#END
