
#######################################################################
#
#                 Cambridge Crystallographic Data Centre
#                                CCDC 
#
#######################################################################
#
# If this CIF has been generated from an entry in the Cambridge 
# Structural Database, then it will include bibliographic, chemical, 
# crystal, experimental, refinement or atomic coordinate data resulting 
# from the CCDC's data processing and validation procedures.
#
#######################################################################

data_QIXGEK
_symmetry_cell_setting           monoclinic
_symmetry_space_group_name_H-M   'P 21/c'
_symmetry_Int_Tables_number      14
_space_group_name_Hall           '-P 2ybc'
loop_
_symmetry_equiv_pos_site_id
_symmetry_equiv_pos_as_xyz
1 x,y,z
2 -x,1/2+y,1/2-z
3 -x,-y,-z
4 x,1/2-y,1/2+z
_cell_length_a                   11.9649(6)
_cell_length_b                   4.1866(2)
_cell_length_c                   26.1210(10)
_cell_angle_alpha                90
_cell_angle_beta                 109.332(3)
_cell_angle_gamma                90
_cell_volume                     1234.68
loop_
_atom_site_label
_atom_site_type_symbol
_atom_site_fract_x
_atom_site_fract_y
_atom_site_fract_z
Ba1 Ba 0.698106(16) 0.59849(4) 0.002749(8)
O1 O 0.7177(2) 0.1028(5) 0.06998(10)
O2 O 0.5320(2) -0.3574(6) 0.05297(11)
O3 O 0.4012(2) -0.0694(6) 0.07602(11)
O4 O 0.5934(3) 0.0066(8) 0.28282(12)
O5 O 0.7491(3) 0.3054(8) 0.31157(12)
O6 O 0.9954(3) 0.3764(8) 0.19294(14)
O7 O 0.8915(2) 0.5460(7) 0.11347(12)
N1 N 0.6755(3) 0.1544(8) 0.27501(14)
N2 N 0.9007(3) 0.4015(7) 0.15565(14)
C1 C 0.5067(3) -0.1530(8) 0.08248(14)
C2 C 0.6052(3) -0.0051(9) 0.12815(14)
C3 C 0.5950(3) 0.0128(9) 0.17862(15)
H1 H 0.5270 -0.0629 0.1844
C4 C 0.6874(3) 0.1461(9) 0.22201(15)
C5 C 0.7878(3) 0.2691(9) 0.21433(15)
H2 H 0.8488 0.3552 0.2431
C6 C 0.7951(3) 0.2603(9) 0.16271(14)
C7 C 0.7074(3) 0.1200(8) 0.11687(15)
O8 O 0.8608(2) 0.1295(6) 0.00092(12)
H3 H 0.922(2) 0.101(10) 0.0272(9)
H4 H 0.881(3) 0.137(10) -0.0265(9)
O9 O 0.7483(2) 0.6467(6) -0.09980(12)
H5 H 0.688(2) 0.758(8) -0.1068(17)
H6 H 0.732(3) 0.484(6) -0.1189(16)
Ba1_2 Ba 0.698106(16) -0.40151(4) 0.002749(8)
Ba1B Ba 0.301894(16) -0.59849(4) -0.002749(8)
Ba1B_2 Ba 0.301894(16) 0.40151(4) -0.002749(8)
O1_2 O 0.7177(2) 1.1028(5) 0.06998(10)
O2_2 O 0.5320(2) 0.6426(6) 0.05297(11)
O2B O 0.4680(2) 0.3574(6) -0.05297(11)
O3B O 0.5988(2) 0.0694(6) -0.07602(11)
O3B_2 O 0.5988(2) 1.0694(6) -0.07602(11)
O8_2 O 0.8608(2) 1.1295(6) 0.00092(12)
H3_2 H 0.922(2) 1.101(10) 0.0272(9)
H4_2 H 0.881(3) 1.137(10) -0.0265(9)
O10 O 0.0565(2) 0.9715(8) 0.08622(12)
H7 H 0.110(3) 1.093(8) 0.1033(15)
H8 H 0.047(4) 0.837(8) 0.1074(13)
loop_
_geom_bond_atom_site_label_1
_geom_bond_atom_site_label_2
_geom_bond_site_symmetry_1
_geom_bond_site_symmetry_2
Ba1 O1 1_555 1_555
O1 C7 1_555 1_555
O2 C1 1_555 1_555
O3 C1 1_555 1_555
O4 N1 1_555 1_555
O5 N1 1_555 1_555
O6 N2 1_555 1_555
O7 Ba1 1_555 1_555
N1 C4 1_555 1_555
N2 O7 1_555 1_555
C1 C2 1_555 1_555
C2 C3 1_555 1_555
C3 H1 1_555 1_555
C4 C3 1_555 1_555
C5 C4 1_555 1_555
H2 C5 1_555 1_555
C6 N2 1_555 1_555
C7 C2 1_555 1_555
O8 Ba1 1_555 1_555
H3 O8 1_555 1_555
H4 O8 1_555 1_555
O9 Ba1 1_555 1_555
H5 O9 1_555 1_555
H6 O9 1_555 1_555
O10 H7 1_555 1_555
H8 O10 1_555 1_555
Ba1_2 O1 1_555 1_555
Ba1B O2 1_555 1_555
Ba1B_2 O3 1_555 1_555
O1_2 Ba1 1_555 1_555
O2_2 Ba1 1_555 1_555
O2B Ba1 1_555 1_555
O3B Ba1 1_555 1_555
O3B_2 Ba1 1_555 1_555
O8_2 Ba1 1_555 1_555
H3_2 O8_2 1_555 1_555
H4_2 O8_2 1_555 1_555
O2 Ba1_2 1_555 1_555
O3 Ba1B 1_555 1_555
C5 C6 1_555 1_555
C6 C7 1_555 1_555
O8 Ba1_2 1_555 1_555
Ba1_2 O3B 1_555 1_555
Ba1B_2 O2_2 1_555 1_555
Ba1B_2 O2B 1_555 1_555

#END
