
#######################################################################
#
#                 Cambridge Crystallographic Data Centre
#                                CCDC 
#
#######################################################################
#
# If this CIF has been generated from an entry in the Cambridge 
# Structural Database, then it will include bibliographic, chemical, 
# crystal, experimental, refinement or atomic coordinate data resulting 
# from the CCDC's data processing and validation procedures.
#
#######################################################################

data_QIXJUE
_symmetry_cell_setting           monoclinic
_symmetry_space_group_name_H-M   'C 2/c'
_symmetry_Int_Tables_number      15
_space_group_name_Hall           '-C 2yn'
loop_
_symmetry_equiv_pos_site_id
_symmetry_equiv_pos_as_xyz
1 x,y,z
2 -x,y,1/2-z
3 1/2+x,1/2+y,z
4 1/2-x,1/2+y,1/2-z
5 -x,-y,-z
6 x,-y,1/2+z
7 1/2-x,1/2-y,-z
8 1/2+x,1/2-y,1/2+z
_cell_length_a                   38.506(10)
_cell_length_b                   8.683(2)
_cell_length_c                   11.721(3)
_cell_angle_alpha                90
_cell_angle_beta                 94.375(3)
_cell_angle_gamma                90
_cell_volume                     3907.47
loop_
_atom_site_label
_atom_site_type_symbol
_atom_site_fract_x
_atom_site_fract_y
_atom_site_fract_z
Co1 Co 0.2500 0.2500 0.0000
Co2 Co 0.5000 0.36224(6) 0.2500
N1 N 0.19926(4) 0.3173(2) 0.05225(14)
N2 N 0.01489(5) 0.2939(3) -0.11519(18)
O1 O 0.26731(4) 0.47597(16) 0.00689(12)
O2 O 0.26778(4) 0.52901(17) -0.17941(12)
O3 O 0.44792(4) 0.3928(2) 0.28716(15)
O4 O 0.46919(4) 0.5321(2) 0.15349(17)
O5 O 0.27058(4) 0.22754(16) 0.17136(12)
H1 H 0.2604 0.1540 0.2032
H2 H 0.2694 0.3005 0.2193
C1 C 0.27465(5) 0.5606(2) -0.07502(17)
C2 C 0.29187(6) 0.7146(2) -0.04838(18)
H3 H 0.2749 0.7949 -0.0680
H4 H 0.3107 0.7270 -0.0981
C3 C 0.30658(6) 0.7410(3) 0.07445(19)
H5 H 0.3086 0.8511 0.0875
H6 H 0.2900 0.7015 0.1256
C4 C 0.34162(6) 0.6675(3) 0.10573(19)
C5 C 0.34724(6) 0.5772(3) 0.2029(2)
H7 H 0.3288 0.5561 0.2472
C6 C 0.38009(6) 0.5178(3) 0.2350(2)
H8 H 0.3834 0.4576 0.3006
C7 C 0.40792(6) 0.5474(3) 0.1702(2)
C8 C 0.40244(6) 0.6335(3) 0.0711(2)
H9 H 0.4207 0.6515 0.0254
C9 C 0.36969(6) 0.6929(3) 0.0398(2)
H10 H 0.3664 0.7511 -0.0267
C10 C 0.44352(6) 0.4883(3) 0.2057(2)
C11 C 0.19537(6) 0.4147(2) 0.13887(18)
H11 H 0.2153 0.4530 0.1790
C12 C 0.16336(6) 0.4612(3) 0.17167(18)
H12 H 0.1619 0.5301 0.2319
C13 C 0.13344(6) 0.4043(3) 0.11415(19)
C14 C 0.13706(6) 0.3012(3) 0.0255(2)
H13 H 0.1175 0.2589 -0.0144
C15 C 0.17004(6) 0.2624(3) -0.0025(2)
H14 H 0.1721 0.1942 -0.0628
C16 C 0.06209(6) 0.4032(3) 0.0563(2)
C17 C 0.03685(7) 0.2992(3) 0.0809(2)
H15 H 0.0354 0.2639 0.1553
C18 C 0.01357(7) 0.2477(3) -0.0073(2)
H16 H -0.0037 0.1781 0.0097
C19 C 0.03798(7) 0.4024(3) -0.1358(2)
H17 H 0.0380 0.4413 -0.2097
C20 C 0.06176(7) 0.4599(3) -0.0537(2)
H18 H 0.0774 0.5360 -0.0719
S1 S 0.093789(18) 0.46499(12) 0.16458(6)
O1A O 0.73269(4) 0.47597(16) 0.49311(12)
O2A O 0.73222(4) 0.52901(17) 0.67941(12)
O3A O 0.55208(4) 0.3928(2) 0.21284(15)
O4A O 0.53081(4) 0.5321(2) 0.34651(17)
C1A C 0.72535(5) 0.5606(2) 0.57502(17)
C2A C 0.70813(6) 0.7146(2) 0.54838(18)
H3A H 0.7251 0.7949 0.5680
H4A H 0.6893 0.7270 0.5981
C3A C 0.69342(6) 0.7410(3) 0.42555(19)
H5A H 0.6914 0.8511 0.4125
H6A H 0.7100 0.7015 0.3744
C4A C 0.65838(6) 0.6675(3) 0.39427(19)
C5A C 0.65276(6) 0.5772(3) 0.2971(2)
H7A H 0.6712 0.5561 0.2528
C6A C 0.61991(6) 0.5178(3) 0.2650(2)
H8A H 0.6166 0.4576 0.1994
C7A C 0.59208(6) 0.5474(3) 0.3298(2)
C8A C 0.59756(6) 0.6335(3) 0.4289(2)
H9A H 0.5793 0.6515 0.4746
C9A C 0.63031(6) 0.6929(3) 0.4602(2)
H10A H 0.6336 0.7511 0.5267
C10A C 0.55648(6) 0.4883(3) 0.2943(2)
N1F N 0.30074(4) 0.1827(2) -0.05225(14)
N2F N 0.48511(5) 0.2061(3) 0.11519(18)
C11F C 0.30463(6) 0.0853(2) -0.13887(18)
H11F H 0.2847 0.0470 -0.1790
C12F C 0.33664(6) 0.0388(3) -0.17167(18)
H12F H 0.3381 -0.0301 -0.2319
C13F C 0.36656(6) 0.0957(3) -0.11415(19)
C14F C 0.36294(6) 0.1988(3) -0.0255(2)
H13F H 0.3825 0.2411 0.0144
C15F C 0.32996(6) 0.2376(3) 0.0025(2)
H14F H 0.3279 0.3058 0.0628
C16F C 0.43791(6) 0.0968(3) -0.0563(2)
C17F C 0.46315(7) 0.2008(3) -0.0809(2)
H15F H 0.4646 0.2361 -0.1553
C18F C 0.48643(7) 0.2523(3) 0.0073(2)
H16F H 0.5037 0.3219 -0.0097
C19F C 0.46202(7) 0.0976(3) 0.1358(2)
H17F H 0.4620 0.0587 0.2097
C20F C 0.43824(7) 0.0401(3) 0.0537(2)
H18F H 0.4226 -0.0360 0.0719
S1F S 0.406211(18) 0.03501(12) -0.16458(6)
O5F O 0.22942(4) 0.27246(16) -0.17136(12)
H1F H 0.2396 0.3460 -0.2032
H2F H 0.2306 0.1995 -0.2193
Co1A Co 0.7500 0.2500 0.5000
Co2F Co 0.0000 0.13776(6) -0.2500
N2G N 0.51489(5) 0.2061(3) 0.38481(18)
O1F O 0.23269(4) 0.02403(16) -0.00689(12)
loop_
_geom_bond_atom_site_label_1
_geom_bond_atom_site_label_2
_geom_bond_site_symmetry_1
_geom_bond_site_symmetry_2
Co1 N1 1_555 1_555
Co2 O3 1_555 1_555
N1 C11 1_555 1_555
N2 C18 1_555 1_555
O1 Co1 1_555 1_555
O2 C1 1_555 1_555
O3 C10 1_555 1_555
O4 Co2 1_555 1_555
O5 Co1 1_555 1_555
H1 O5 1_555 1_555
H2 O5 1_555 1_555
C1 O1 1_555 1_555
C2 C1 1_555 1_555
H3 C2 1_555 1_555
H4 C2 1_555 1_555
C3 C2 1_555 1_555
H5 C3 1_555 1_555
H6 C3 1_555 1_555
C4 C3 1_555 1_555
C5 C4 1_555 1_555
H7 C5 1_555 1_555
C6 C5 1_555 1_555
H8 C6 1_555 1_555
C7 C6 1_555 1_555
C8 C7 1_555 1_555
H9 C8 1_555 1_555
C9 C4 1_555 1_555
H10 C9 1_555 1_555
C10 O4 1_555 1_555
C11 H11 1_555 1_555
C12 C11 1_555 1_555
H12 C12 1_555 1_555
C13 C12 1_555 1_555
C14 C13 1_555 1_555
H13 C14 1_555 1_555
C15 N1 1_555 1_555
H14 C15 1_555 1_555
C16 C17 1_555 1_555
C17 H15 1_555 1_555
C18 C17 1_555 1_555
H16 C18 1_555 1_555
C19 N2 1_555 1_555
H17 C19 1_555 1_555
C20 C16 1_555 1_555
H18 C20 1_555 1_555
S1 C13 1_555 1_555
O1A C1A 1_555 1_555
O2A C1A 1_555 1_555
O3A Co2 1_555 1_555
O4A Co2 1_555 1_555
C1A C2A 1_555 1_555
C2A H3A 1_555 1_555
H4A C2A 1_555 1_555
C3A C2A 1_555 1_555
H5A C3A 1_555 1_555
H6A C3A 1_555 1_555
C4A C3A 1_555 1_555
C5A C4A 1_555 1_555
H7A C5A 1_555 1_555
C6A C5A 1_555 1_555
H8A C6A 1_555 1_555
C7A C6A 1_555 1_555
C8A C7A 1_555 1_555
H9A C8A 1_555 1_555
C9A C4A 1_555 1_555
H10A C9A 1_555 1_555
C10A O3A 1_555 1_555
N1F Co1 1_555 1_555
N2F Co2 1_555 1_555
C11F N1F 1_555 1_555
H11F C11F 1_555 1_555
C12F C11F 1_555 1_555
H12F C12F 1_555 1_555
C13F C12F 1_555 1_555
C14F C13F 1_555 1_555
H13F C14F 1_555 1_555
C15F N1F 1_555 1_555
H14F C15F 1_555 1_555
C16F C17F 1_555 1_555
C17F H15F 1_555 1_555
C18F N2F 1_555 1_555
H16F C18F 1_555 1_555
C19F N2F 1_555 1_555
H17F C19F 1_555 1_555
C20F C16F 1_555 1_555
H18F C20F 1_555 1_555
S1F C13F 1_555 1_555
O5F Co1 1_555 1_555
H1F O5F 1_555 1_555
H2F O5F 1_555 1_555
Co1A O1A 1_555 1_555
Co2F N2 1_555 1_555
N2G Co2 1_555 1_555
O1F Co1 1_555 1_555
C7 C10 1_555 1_555
C8 C9 1_555 1_555
C14 C15 1_555 1_555
C16 S1 1_555 1_555
C19 C20 1_555 1_555
O4A C10A 1_555 1_555
C7A C10A 1_555 1_555
C8A C9A 1_555 1_555
C14F C15F 1_555 1_555
C16F S1F 1_555 1_555
C17F C18F 1_555 1_555
C19F C20F 1_555 1_555

#END
