
#######################################################################
#
#                 Cambridge Crystallographic Data Centre
#                                CCDC 
#
#######################################################################
#
# If this CIF has been generated from an entry in the Cambridge 
# Structural Database, then it will include bibliographic, chemical, 
# crystal, experimental, refinement or atomic coordinate data resulting 
# from the CCDC's data processing and validation procedures.
#
#######################################################################

data_QIXJEO
_symmetry_cell_setting           triclinic
_symmetry_space_group_name_H-M   'P -1'
_symmetry_Int_Tables_number      2
_space_group_name_Hall           '-P 1'
loop_
_symmetry_equiv_pos_site_id
_symmetry_equiv_pos_as_xyz
1 x,y,z
2 -x,-y,-z
_cell_length_a                   10.062(4)
_cell_length_b                   10.249(4)
_cell_length_c                   12.744(5)
_cell_angle_alpha                93.548(4)
_cell_angle_beta                 102.601(4)
_cell_angle_gamma                94.022(3)
_cell_volume                     1275.39
loop_
_atom_site_label
_atom_site_type_symbol
_atom_site_fract_x
_atom_site_fract_y
_atom_site_fract_z
Sm1 Sm 0.04096(2) 0.75602(2) -0.034276(17)
Sm2 Sm 0.96172(2) 0.23890(2) 0.535527(17)
Ni1 Ni 0.50195(5) 0.49646(5) 0.26065(5)
S1 S 0.21544(11) 0.53010(11) 0.05697(9)
S2 S 0.78965(11) 0.46759(11) 0.45128(9)
O1 O 0.1208(3) 0.0960(3) 0.0935(3)
O2 O 0.2170(3) -0.0911(3) 0.0719(3)
O3 O 0.7343(4) -0.0635(3) 0.1284(3)
O4 O 0.8443(3) 0.1364(3) 0.1579(3)
O5 O 0.8727(3) 0.9074(3) 0.4119(3)
O6 O 0.7757(3) 1.0946(3) 0.4306(3)
O7 O 0.2588(4) 1.0654(3) 0.3623(3)
O8 O 0.1476(3) 0.8658(3) 0.3391(3)
O9 O 0.1294(4) 0.6093(4) 0.1122(3)
O10 O 0.2187(4) 0.5976(4) -0.0428(3)
O11 O 0.3547(4) 0.5305(4) 0.1206(3)
O12 O 0.1541(4) 0.3952(3) 0.0289(3)
O13 O 0.6438(4) 0.4663(4) 0.4040(3)
O14 O 0.8613(4) 0.3825(3) 0.3876(3)
O15 O 0.8070(4) 0.4104(4) 0.5579(3)
O16 O 0.8514(4) 0.6032(3) 0.4662(3)
O17 O 0.3552(4) 0.4408(4) 0.3457(3)
H1 H 0.3271 0.5091 0.3720
H2 H 0.4242 0.4346 0.3967
O18 O 0.6564(4) 0.5459(4) 0.1805(3)
H3 H 0.6521 0.4895 0.1278
H4 H 0.6141 0.5956 0.1360
O19 O -0.0345(3) 0.8271(3) 0.1290(3)
H5 H 0.0201 0.8743 0.1797
H6 H -0.1065 0.8670 0.1254
O20 O -0.0366(4) 0.6329(4) -0.2142(3)
H7 H -0.1208 0.6422 -0.2185
H8 H -0.0586 0.5507 -0.2232
O21 O 1.0543(4) 0.3523(4) 0.7195(3)
H9 H 1.1297 0.3991 0.7409
H10 H 1.0219 0.3095 0.7646
O22 O 1.0313(3) 0.1769(3) 0.3679(3)
H11 H 0.9679 0.1425 0.3162
H12 H 1.0975 0.1309 0.3646
N1 N 0.4978(4) 0.3018(4) 0.2084(3)
N2 N 0.5011(4) 0.6936(4) 0.3094(3)
C1 C 0.3765(5) 0.2320(5) 0.1765(4)
H13 H 0.2980 0.2719 0.1826
C2 C 0.3635(5) 0.1019(5) 0.1346(4)
C3 C 0.4803(5) 0.0419(4) 0.1267(4)
H14 H 0.4745 -0.0458 0.1012
C4 C 0.6078(5) 0.1154(4) 0.1578(4)
C5 C 0.6115(5) 0.2447(5) 0.1995(4)
H15 H 0.6956 0.2933 0.2219
C6 C 0.2236(5) 0.0306(4) 0.0976(4)
C7 C 0.7380(5) 0.0572(5) 0.1473(4)
C8 C 0.6199(5) 0.7665(5) 0.3397(4)
H16 H 0.6996 0.7263 0.3385
C9 C 0.6313(5) 0.8998(5) 0.3732(4)
C10 C 0.5120(5) 0.9599(5) 0.3747(4)
H17 H 0.5153 1.0489 0.3952
C11 C 0.3869(5) 0.8838(5) 0.3448(4)
C12 C 0.3850(5) 0.7516(5) 0.3123(4)
H18 H 0.3015 0.7015 0.2919
C13 C 0.7699(5) 0.9720(5) 0.4073(4)
C14 C 0.2543(5) 0.9447(5) 0.3492(4)
Sm1_2 Sm 0.04096(2) -0.24398(2) -0.034276(17)
Sm1A Sm -0.04096(2) 0.24398(2) 0.034276(17)
Sm1A_2 Sm 0.95904(2) 0.24398(2) 0.034276(17)
Sm2_2 Sm 0.96172(2) 1.23890(2) 0.535527(17)
Sm2A Sm 0.03828(2) 0.76110(2) 0.464473(17)
Sm2A_2 Sm 1.03828(2) 0.76110(2) 0.464473(17)
O1A O -0.1208(3) 0.9040(3) -0.0935(3)
O2_2 O 0.2170(3) 0.9089(3) 0.0719(3)
O4A O 0.1557(3) 0.8636(3) -0.1579(3)
O5A O 1.1273(3) 0.0926(3) 0.5881(3)
O6_2 O 0.7757(3) 0.0946(3) 0.4306(3)
O8A O 0.8524(3) 0.1342(3) 0.6609(3)
O12A O -0.1541(4) 0.6048(3) -0.0289(3)
O16A O 1.1486(4) 0.3968(3) 0.5338(3)
O23 O 0.5554(6) 0.7154(5) 0.0560(5)
H19 H 0.4687 0.7021 0.0399
H20 H 0.6059 0.7739 0.0354
loop_
_geom_bond_atom_site_label_1
_geom_bond_atom_site_label_2
_geom_bond_site_symmetry_1
_geom_bond_site_symmetry_2
Sm1 O9 1_555 1_555
Sm2 O14 1_555 1_555
Ni1 O11 1_555 1_555
S1 O9 1_555 1_555
S2 O13 1_555 1_555
O1 C6 1_555 1_555
O2 C6 1_555 1_555
O3 C7 1_555 1_555
O4 C7 1_555 1_555
O5 C13 1_555 1_555
O6 C13 1_555 1_555
O7 C14 1_555 1_555
O8 C14 1_555 1_555
O10 Sm1 1_555 1_555
O11 S1 1_555 1_555
O12 S1 1_555 1_555
O13 Ni1 1_555 1_555
O14 S2 1_555 1_555
O15 Sm2 1_555 1_555
O16 S2 1_555 1_555
O17 Ni1 1_555 1_555
H1 O17 1_555 1_555
H2 O17 1_555 1_555
O18 Ni1 1_555 1_555
H3 O18 1_555 1_555
H4 O18 1_555 1_555
O19 Sm1 1_555 1_555
H5 O19 1_555 1_555
H6 O19 1_555 1_555
O20 Sm1 1_555 1_555
H7 O20 1_555 1_555
H8 O20 1_555 1_555
O21 Sm2 1_555 1_555
H9 O21 1_555 1_555
H10 O21 1_555 1_555
O22 Sm2 1_555 1_555
H11 O22 1_555 1_555
H12 O22 1_555 1_555
N1 Ni1 1_555 1_555
N2 Ni1 1_555 1_555
C1 N1 1_555 1_555
H13 C1 1_555 1_555
C2 C1 1_555 1_555
C3 C2 1_555 1_555
H14 C3 1_555 1_555
C4 C3 1_555 1_555
C5 N1 1_555 1_555
H15 C5 1_555 1_555
C6 C2 1_555 1_555
C7 C4 1_555 1_555
C8 N2 1_555 1_555
H16 C8 1_555 1_555
C9 C8 1_555 1_555
C10 C9 1_555 1_555
H17 C10 1_555 1_555
C11 C10 1_555 1_555
C12 N2 1_555 1_555
H18 C12 1_555 1_555
C13 C9 1_555 1_555
C14 C11 1_555 1_555
O23 H19 1_555 1_555
H20 O23 1_555 1_555
Sm1_2 O2 1_555 1_555
Sm1A O1 1_555 1_555
Sm1A_2 O4 1_555 1_555
Sm2_2 O6 1_555 1_555
Sm2A O8 1_555 1_555
Sm2A_2 O5 1_555 1_555
O1A Sm1 1_555 1_555
O2_2 Sm1 1_555 1_555
O4A Sm1 1_555 1_555
O5A Sm2 1_555 1_555
O6_2 Sm2 1_555 1_555
O8A Sm2 1_555 1_555
O12A Sm1 1_555 1_555
O16A Sm2 1_555 1_555
S1 O10 1_555 1_555
S2 O15 1_555 1_555
O12 Sm1A 1_555 1_555
O16 Sm2A_2 1_555 1_555
C4 C5 1_555 1_555
C11 C12 1_555 1_555

#END
