
#######################################################################
#
#                 Cambridge Crystallographic Data Centre
#                                CCDC 
#
#######################################################################
#
# If this CIF has been generated from an entry in the Cambridge 
# Structural Database, then it will include bibliographic, chemical, 
# crystal, experimental, refinement or atomic coordinate data resulting 
# from the CCDC's data processing and validation procedures.
#
#######################################################################

data_QIXKUF
_symmetry_cell_setting           monoclinic
_symmetry_space_group_name_H-M   'P 21/n'
_symmetry_Int_Tables_number      14
_space_group_name_Hall           '-P 2yn'
loop_
_symmetry_equiv_pos_site_id
_symmetry_equiv_pos_as_xyz
1 x,y,z
2 1/2-x,1/2+y,1/2-z
3 -x,-y,-z
4 1/2+x,1/2-y,1/2+z
_cell_length_a                   8.9042(15)
_cell_length_b                   12.041(2)
_cell_length_c                   15.550(3)
_cell_angle_alpha                90
_cell_angle_beta                 92.354(2)
_cell_angle_gamma                90
_cell_volume                     1665.79
loop_
_atom_site_label
_atom_site_type_symbol
_atom_site_fract_x
_atom_site_fract_y
_atom_site_fract_z
Cd1 Cd 0.18299(5) 0.85454(4) 0.20256(4)
N1 N -0.0426(7) 0.7578(6) 0.1706(5)
N2 N 0.1938(7) 0.7678(5) 0.0686(4)
N3 N 0.4136(7) 0.8932(5) 0.1411(4)
N4 N 0.2191(9) 1.2106(6) 0.2159(5)
N5 N 0.1632(9) 0.9683(6) 0.3607(5)
O1 O 0.2826(8) 0.9672(5) 0.3295(5)
O2 O 0.0556(8) 0.9203(7) 0.3258(5)
O3 O 0.1433(10) 1.0158(7) 0.4306(5)
S1 S 0.0644(2) 1.04637(15) 0.12251(14)
C1 C -0.1560(10) 0.7521(9) 0.2231(8)
H1 H -0.1492 0.7912 0.2747
C2 C -0.2856(13) 0.6895(13) 0.2039(10)
H2 H -0.3649 0.6875 0.2409
C3 C -0.2904(15) 0.6318(11) 0.1287(14)
H3 H -0.3744 0.5887 0.1143
C4 C -0.1768(13) 0.6355(8) 0.0748(10)
H4 H -0.1821 0.5955 0.0236
C5 C -0.0506(10) 0.6999(6) 0.0961(7)
C6 C 0.0787(11) 0.7089(7) 0.0393(6)
C7 C 0.078(2) 0.6601(14) -0.0505(12)
H5 H 0.1778 0.6646 -0.0721
H6 H 0.0098 0.7009 -0.0877
H7 H 0.0477 0.5837 -0.0486
C8 C 0.3206(11) 0.7797(7) 0.0228(6)
H8 H 0.3312 0.7472 -0.0309
C9 C 0.4413(9) 0.8492(6) 0.0660(6)
C10 C 0.5797(11) 0.8678(7) 0.0259(6)
H9 H 0.5975 0.8374 -0.0277
C11 C 0.6834(10) 0.9300(8) 0.0672(8)
H10 H 0.7751 0.9420 0.0422
C12 C 0.6584(10) 0.9761(8) 0.1446(8)
H11 H 0.7310 1.0198 0.1728
C13 C 0.5215(8) 0.9561(7) 0.1803(6)
H12 H 0.5029 0.9873 0.2336
C14 C 0.1575(8) 1.1408(6) 0.1781(5)
Cd1A Cd 0.31701(5) 1.35454(4) 0.29744(4)
N4A N 0.2809(9) 0.7106(6) 0.2841(5)
loop_
_geom_bond_atom_site_label_1
_geom_bond_atom_site_label_2
_geom_bond_site_symmetry_1
_geom_bond_site_symmetry_2
Cd1 N1 1_555 1_555
N1 C1 1_555 1_555
N2 Cd1 1_555 1_555
N3 Cd1 1_555 1_555
N4 C14 1_555 1_555
N5 O1 1_555 1_555
O1 Cd1 1_555 1_555
O2 Cd1 1_555 1_555
O3 N5 1_555 1_555
S1 Cd1 1_555 1_555
C1 H1 1_555 1_555
C2 C1 1_555 1_555
H2 C2 1_555 1_555
C3 C2 1_555 1_555
H3 C3 1_555 1_555
C4 C3 1_555 1_555
H4 C4 1_555 1_555
C5 N1 1_555 1_555
C6 N2 1_555 1_555
C7 C6 1_555 1_555
H5 C7 1_555 1_555
H6 C7 1_555 1_555
H7 C7 1_555 1_555
C8 N2 1_555 1_555
H8 C8 1_555 1_555
C9 N3 1_555 1_555
C10 C9 1_555 1_555
H9 C10 1_555 1_555
C11 C10 1_555 1_555
H10 C11 1_555 1_555
C12 C11 1_555 1_555
H11 C12 1_555 1_555
C13 N3 1_555 1_555
H12 C13 1_555 1_555
C14 S1 1_555 1_555
Cd1A N4 1_555 1_555
N4A Cd1 1_555 1_555
N5 O2 1_555 1_555
C4 C5 1_555 1_555
C5 C6 1_555 1_555
C8 C9 1_555 1_555
C12 C13 1_555 1_555

#END
