
#######################################################################
#
#                 Cambridge Crystallographic Data Centre
#                                CCDC 
#
#######################################################################
#
# If this CIF has been generated from an entry in the Cambridge 
# Structural Database, then it will include bibliographic, chemical, 
# crystal, experimental, refinement or atomic coordinate data resulting 
# from the CCDC's data processing and validation procedures.
#
#######################################################################

data_QIXKAL
_symmetry_cell_setting           monoclinic
_symmetry_space_group_name_H-M   'P 21/c'
_symmetry_Int_Tables_number      14
_space_group_name_Hall           '-P 2ybc'
loop_
_symmetry_equiv_pos_site_id
_symmetry_equiv_pos_as_xyz
1 x,y,z
2 -x,1/2+y,1/2-z
3 -x,-y,-z
4 x,1/2-y,1/2+z
_cell_length_a                   12.2246(10)
_cell_length_b                   13.3503(11)
_cell_length_c                   14.2663(12)
_cell_angle_alpha                90
_cell_angle_beta                 113.7980(10)
_cell_angle_gamma                90
_cell_volume                     2130.32
loop_
_atom_site_label
_atom_site_type_symbol
_atom_site_fract_x
_atom_site_fract_y
_atom_site_fract_z
Co1 Co 0.85209(2) 0.27302(2) 1.154326(19)
N1 N 0.66555(15) 0.27508(14) 1.04962(13)
N2 N 0.04130(15) 0.23797(13) 0.74969(13)
O1 O 0.80257(12) 0.30365(11) 1.27625(11)
H1 H 0.8574 0.3328 1.3219
H2 H 0.7870 0.2493 1.2966
O2 O 0.83058(13) 0.12033(11) 1.17821(11)
H3 H 0.8209 0.1135 1.2315
H4 H 0.8832 0.0817 1.1760
O3 O 0.89496(15) 0.25407(14) 1.02806(12)
H5 H 0.8659 0.3001 0.9875
H6 H 0.9433 0.2204 1.0153
O4 O 0.86573(14) 0.42850(12) 1.14535(12)
H7 H 0.9111 0.4504 1.2013
H8 H 0.8610 0.4642 1.0973
C1 C 0.6162(2) 0.1948(2) 0.99154(19)
H9 H 0.6659 0.1417 0.9927
C2 C 0.4964(2) 0.18647(19) 0.93040(19)
H10 H 0.4670 0.1290 0.8915
C3 C 0.41935(18) 0.26409(16) 0.92697(16)
C4 C 0.47043(18) 0.34814(16) 0.98611(17)
H11 H 0.4230 0.4027 0.9857
C5 C 0.59164(18) 0.35025(17) 1.04532(17)
H12 H 0.6237 0.4071 1.0844
C6 C 0.28880(18) 0.25615(16) 0.86525(16)
C7 C 0.24237(18) 0.19484(17) 0.77889(16)
H13 H 0.2936 0.1584 0.7582
C8 C 0.12073(19) 0.18831(18) 0.72438(16)
H14 H 0.0920 0.1472 0.6669
C9 C 0.08572(19) 0.29653(17) 0.83305(16)
H15 H 0.0322 0.3315 0.8522
C10 C 0.20642(18) 0.30779(17) 0.89207(16)
H16 H 0.2326 0.3494 0.9492
Co1C Co -0.14791(2) 0.22698(2) 0.654326(19)
N2C N 1.04130(15) 0.26203(13) 1.24969(13)
O5 O -0.02132(14) 0.38282(12) 0.43521(12)
O6 O 0.01721(13) 0.49151(12) 0.33556(11)
O7 O 0.78726(14) 0.37767(13) 0.85995(13)
O8 O 0.74063(19) 0.5143(2) 0.9215(3)
C11 C 0.3391(2) 0.40511(18) 0.66365(16)
C12 C 0.4218(2) 0.33042(19) 0.67295(19)
H17 H 0.3961 0.2710 0.6366
C13 C 0.5417(2) 0.34260(19) 0.73529(19)
H18 H 0.5952 0.2914 0.7400
C14 C 0.58324(19) 0.42990(17) 0.79086(17)
C15 C 0.5010(2) 0.50477(18) 0.78145(19)
H19 H 0.5268 0.5642 0.8178
C16 C 0.3807(2) 0.49263(19) 0.71877(19)
H20 H 0.3273 0.5440 0.7137
C17 C 0.2085(2) 0.39228(19) 0.59386(17)
H21 H 0.1596 0.4136 0.6295
H22 H 0.1921 0.3220 0.5766
C18 C 0.17526(19) 0.45301(17) 0.49591(16)
H23 H 0.1888 0.5233 0.5143
H24 H 0.2290 0.4345 0.4641
C19 C 0.04792(19) 0.44109(16) 0.41724(16)
C20 C 0.7126(2) 0.44267(19) 0.8628(2)
loop_
_geom_bond_atom_site_label_1
_geom_bond_atom_site_label_2
_geom_bond_site_symmetry_1
_geom_bond_site_symmetry_2
Co1 N1 1_555 1_555
N1 C1 1_555 1_555
N2 C8 1_555 1_555
O1 Co1 1_555 1_555
H1 O1 1_555 1_555
H2 O1 1_555 1_555
O2 Co1 1_555 1_555
H3 O2 1_555 1_555
H4 O2 1_555 1_555
O3 Co1 1_555 1_555
H5 O3 1_555 1_555
H6 O3 1_555 1_555
O4 Co1 1_555 1_555
H7 O4 1_555 1_555
H8 O4 1_555 1_555
C1 H9 1_555 1_555
C2 C1 1_555 1_555
H10 C2 1_555 1_555
C3 C2 1_555 1_555
C4 C3 1_555 1_555
H11 C4 1_555 1_555
C5 N1 1_555 1_555
H12 C5 1_555 1_555
C6 C3 1_555 1_555
C7 C6 1_555 1_555
H13 C7 1_555 1_555
C8 C7 1_555 1_555
H14 C8 1_555 1_555
C9 N2 1_555 1_555
H15 C9 1_555 1_555
C10 C6 1_555 1_555
H16 C10 1_555 1_555
O5 C19 1_555 1_555
O6 C19 1_555 1_555
O7 C20 1_555 1_555
O8 C20 1_555 1_555
C11 C12 1_555 1_555
C12 H17 1_555 1_555
C13 C12 1_555 1_555
H18 C13 1_555 1_555
C14 C13 1_555 1_555
C15 C14 1_555 1_555
H19 C15 1_555 1_555
C16 C11 1_555 1_555
H20 C16 1_555 1_555
C17 C11 1_555 1_555
H21 C17 1_555 1_555
H22 C17 1_555 1_555
C18 C17 1_555 1_555
H23 C18 1_555 1_555
H24 C18 1_555 1_555
C19 C18 1_555 1_555
C20 C14 1_555 1_555
Co1C N2 1_555 1_555
N2C Co1 1_555 1_555
C4 C5 1_555 1_555
C9 C10 1_555 1_555
C15 C16 1_555 1_555

#END
