
#######################################################################
#
#                 Cambridge Crystallographic Data Centre
#                                CCDC 
#
#######################################################################
#
# If this CIF has been generated from an entry in the Cambridge 
# Structural Database, then it will include bibliographic, chemical, 
# crystal, experimental, refinement or atomic coordinate data resulting 
# from the CCDC's data processing and validation procedures.
#
#######################################################################

data_QIXLAL
_symmetry_cell_setting           orthorhombic
_symmetry_space_group_name_H-M   'P 21 21 21'
_symmetry_Int_Tables_number      19
_space_group_name_Hall           'P 2ac 2ab'
loop_
_symmetry_equiv_pos_site_id
_symmetry_equiv_pos_as_xyz
1 x,y,z
2 1/2+x,1/2-y,-z
3 -x,1/2+y,1/2-z
4 1/2-x,-y,1/2+z
_cell_length_a                   8.4471(6)
_cell_length_b                   15.5153(10)
_cell_length_c                   44.488(3)
_cell_angle_alpha                90
_cell_angle_beta                 90
_cell_angle_gamma                90
_cell_volume                     5830.57
loop_
_atom_site_label
_atom_site_type_symbol
_atom_site_fract_x
_atom_site_fract_y
_atom_site_fract_z
S1 S -0.22723(12) 0.51838(6) 0.500329(18)
S2 S 0.24529(12) 0.33481(6) 0.444409(17)
S3 S 0.26522(12) 0.34165(6) 0.530740(17)
Na1 Na 0.14117(17) 0.50896(9) 0.48393(3)
Na2 Na -0.05298(15) 0.30286(8) 0.49922(3)
Na3 Na -0.43900(16) 0.38420(8) 0.47200(3)
O1 O -0.1035(2) 0.57736(15) 0.49049(5)
O2 O -0.1910(2) 0.42862(14) 0.49340(5)
O3 O -0.3846(2) 0.54162(14) 0.48945(5)
O4 O 0.3013(2) 0.42185(14) 0.45153(5)
O5 O 0.0808(2) 0.32228(16) 0.45286(5)
O6 O 0.3528(3) 0.26919(14) 0.45582(4)
O7 O 0.2099(2) 0.25282(13) 0.52630(4)
O8 O 0.4256(2) 0.35342(14) 0.51947(4)
O9 O 0.1502(2) 0.40337(14) 0.51883(4)
O10 O 0.2588(3) 0.61217(16) 0.51733(5)
O11 O 0.3014(3) 0.7091(2) 0.57093(7)
O12 O 0.1835(3) 0.60985(16) 0.44754(6)
O13 O 0.2640(3) 0.69209(16) 0.39299(5)
O14 O -0.3502(2) 0.42761(16) 0.42221(5)
O15 O -0.1989(3) 0.46312(16) 0.36661(5)
N1 N -0.2081(3) 0.54629(18) 0.63447(6)
N2 N -0.2712(3) 0.48628(18) 0.64929(6)
N3 N -0.2357(4) 0.4979(2) 0.77516(6)
N4 N 0.2901(4) 0.2991(2) 0.30969(7)
N5 N 0.2201(4) 0.3531(2) 0.29585(8)
N6 N 0.2814(4) 0.3307(2) 0.16975(6)
N7 N 0.2279(4) 0.37631(19) 0.66369(6)
N8 N 0.3029(3) 0.31980(19) 0.67790(6)
N9 N 0.2528(4) 0.3211(2) 0.80360(6)
C1 C -0.2283(4) 0.5248(2) 0.54014(7)
C2 C -0.1781(4) 0.5994(2) 0.55415(8)
C3 C -0.1741(4) 0.6044(2) 0.58525(7)
C4 C -0.2232(4) 0.5361(2) 0.60262(7)
C5 C -0.2779(4) 0.4619(2) 0.58864(7)
C6 C -0.2802(4) 0.4555(2) 0.55754(7)
C7 C -0.2540(5) 0.4925(2) 0.68062(7)
C8 C -0.1563(4) 0.5506(2) 0.69568(8)
C9 C -0.1486(4) 0.5526(2) 0.72657(8)
C10 C -0.2412(5) 0.4964(2) 0.74404(7)
C11 C -0.3357(4) 0.4355(2) 0.72890(8)
C12 C -0.3399(4) 0.4343(2) 0.69779(8)
C13 C -0.1415(4) 0.5631(2) 0.79053(7)
C14 C -0.3432(4) 0.4472(2) 0.79285(8)
C15 C 0.2514(4) 0.3268(2) 0.40466(7)
C16 C 0.3362(4) 0.2605(2) 0.39107(8)
C17 C 0.3430(4) 0.2538(2) 0.36013(8)
C18 C 0.2644(5) 0.3132(2) 0.34274(8)
C19 C 0.1751(4) 0.3783(2) 0.35570(8)
C20 C 0.1685(4) 0.3847(2) 0.38701(8)
C21 C 0.2468(6) 0.3415(2) 0.26331(8)
C22 C 0.3391(4) 0.2776(2) 0.24986(8)
C23 C 0.3525(5) 0.2738(2) 0.21889(8)
C24 C 0.2711(5) 0.3328(2) 0.20068(8)
C25 C 0.1777(4) 0.3962(2) 0.21499(8)
C26 C 0.1683(5) 0.3989(2) 0.24557(9)
C27 C 0.3730(5) 0.2643(2) 0.15458(8)
C28 C 0.2072(6) 0.3977(2) 0.15193(8)
C29 C 0.2683(4) 0.35987(19) 0.57005(7)
C30 C 0.1412(4) 0.4010(2) 0.58350(7)
C31 C 0.1357(4) 0.4073(2) 0.61436(7)
C32 C 0.2530(4) 0.3700(2) 0.63189(7)
C33 C 0.3843(4) 0.3323(2) 0.61825(7)
C34 C 0.3930(4) 0.3271(2) 0.58727(7)
C35 C 0.2796(4) 0.3239(2) 0.70970(7)
C36 C 0.1840(4) 0.3824(2) 0.72468(8)
C37 C 0.1747(4) 0.3819(2) 0.75567(8)
C38 C 0.2632(5) 0.3222(2) 0.77291(8)
C39 C 0.3587(4) 0.2638(2) 0.75730(8)
C40 C 0.3667(4) 0.2648(2) 0.72651(8)
C41 C 0.1851(5) 0.3954(2) 0.81908(7)
C42 C 0.3536(4) 0.2636(2) 0.82095(7)
C43 C 0.2370(6) 0.7041(2) 0.51826(10)
C44 C 0.1934(5) 0.7348(2) 0.54849(13)
C45 C 0.3257(5) 0.6181(2) 0.57015(9)
C46 C 0.3743(4) 0.5895(2) 0.53932(8)
C47 C 0.3421(5) 0.6270(3) 0.44005(10)
C48 C 0.3665(4) 0.6332(3) 0.40808(9)
C49 C 0.1042(5) 0.6743(3) 0.40154(9)
C50 C 0.0770(5) 0.6692(2) 0.43346(9)
C51 C -0.2752(4) 0.3605(2) 0.40514(7)
C52 C -0.2773(4) 0.3831(2) 0.37202(7)
C53 C -0.2719(4) 0.5283(2) 0.38392(7)
C54 C -0.2693(4) 0.5064(2) 0.41707(7)
H1 H -0.1460 0.6475 0.5424
H2 H -0.1371 0.6555 0.5947
H3 H -0.3142 0.4149 0.6005
H4 H -0.3168 0.4043 0.5481
H5 H -0.0936 0.5898 0.6844
H6 H -0.0798 0.5924 0.7362
H7 H -0.3967 0.3952 0.7400
H8 H -0.4035 0.3925 0.6879
H9 H -0.1810 0.6205 0.7853
H10 H -0.0306 0.5578 0.7843
H11 H -0.1496 0.5546 0.8123
H12 H -0.3174 0.3860 0.7906
H13 H -0.4519 0.4574 0.7860
H14 H -0.3338 0.4636 0.8141
H15 H 0.3900 0.2195 0.4032
H16 H 0.4015 0.2086 0.3510
H17 H 0.1191 0.4181 0.3434
H18 H 0.1071 0.4287 0.3962
H19 H 0.3928 0.2366 0.2620
H20 H 0.4173 0.2309 0.2099
H21 H 0.1213 0.4370 0.2033
H22 H 0.1049 0.4421 0.2548
H23 H 0.4857 0.2726 0.1588
H24 H 0.3551 0.2680 0.1329
H25 H 0.3397 0.2074 0.1618
H26 H 0.2426 0.3930 0.1310
H27 H 0.2370 0.4543 0.1599
H28 H 0.0920 0.3912 0.1528
H29 H 0.0587 0.4247 0.5716
H30 H 0.0510 0.4374 0.6237
H31 H 0.4680 0.3101 0.6302
H32 H 0.4823 0.3016 0.5778
H33 H 0.1243 0.4232 0.7135
H34 H 0.1080 0.4223 0.7656
H35 H 0.4190 0.2227 0.7682
H36 H 0.4328 0.2246 0.7165
H37 H 0.2424 0.4476 0.8132
H38 H 0.1941 0.3872 0.8408
H39 H 0.0732 0.4012 0.8136
H40 H 0.3191 0.2635 0.8420
H41 H 0.4635 0.2834 0.8198
H42 H 0.3460 0.2051 0.8128
H43 H 0.1528 0.7205 0.5039
H44 H 0.3361 0.7328 0.5119
H45 H 0.1873 0.7985 0.5482
H46 H 0.0871 0.7124 0.5536
H47 H 0.2267 0.5883 0.5760
H48 H 0.4089 0.6021 0.5848
H49 H 0.4767 0.6166 0.5341
H50 H 0.3893 0.5262 0.5393
H51 H 0.4100 0.5806 0.4482
H52 H 0.3749 0.6818 0.4496
H53 H 0.4774 0.6508 0.4044
H54 H 0.3519 0.5753 0.3992
H55 H 0.0718 0.6190 0.3923
H56 H 0.0352 0.7199 0.3931
H57 H 0.0909 0.7270 0.4425
H58 H -0.0334 0.6506 0.4372
H59 H -0.3316 0.3053 0.4084
H60 H -0.1644 0.3532 0.4120
H61 H -0.2243 0.3369 0.3605
H62 H -0.3883 0.3871 0.3650
H63 H -0.3829 0.5356 0.3772
H64 H -0.2160 0.5836 0.3806
H65 H -0.1583 0.5013 0.4240
H66 H -0.3207 0.5532 0.4286
Na2A Na 0.44702(15) 0.19714(8) 0.50078(3)
Na3_2 Na 0.56100(16) 0.38420(8) 0.47200(3)
Na3A Na 0.06100(16) 0.11580(8) 0.52800(3)
O4_2 O -0.6987(2) 0.42185(14) 0.45153(5)
O6A O -0.1472(3) 0.23081(14) 0.54418(4)
O6_2 O -0.6472(3) 0.26919(14) 0.45582(4)
O7A O -0.2901(2) 0.24718(13) 0.47370(4)
O8A O -0.0744(2) 0.14658(14) 0.48053(4)
O8_2 O -0.5744(2) 0.35342(14) 0.51947(4)
loop_
_geom_bond_atom_site_label_1
_geom_bond_atom_site_label_2
_geom_bond_site_symmetry_1
_geom_bond_site_symmetry_2
S1 O1 1_555 1_555
S2 O4 1_555 1_555
S3 O7 1_555 1_555
Na1 O1 1_555 1_555
Na2 O2 1_555 1_555
Na3 O2 1_555 1_555
O2 S1 1_555 1_555
O3 S1 1_555 1_555
O4 Na1 1_555 1_555
O5 S2 1_555 1_555
O6 S2 1_555 1_555
O7 Na2 1_555 1_555
O8 S3 1_555 1_555
O9 S3 1_555 1_555
O10 Na1 1_555 1_555
O11 C44 1_555 1_555
O12 Na1 1_555 1_555
O13 C48 1_555 1_555
O14 Na3 1_555 1_555
O15 C52 1_555 1_555
N1 N2 1_555 1_555
N2 C7 1_555 1_555
N3 C10 1_555 1_555
N4 N5 1_555 1_555
N5 C21 1_555 1_555
N6 C24 1_555 1_555
N7 N8 1_555 1_555
N8 C35 1_555 1_555
N9 C38 1_555 1_555
C1 S1 1_555 1_555
C2 C1 1_555 1_555
C3 C2 1_555 1_555
C4 N1 1_555 1_555
C5 C4 1_555 1_555
C6 C1 1_555 1_555
C7 C8 1_555 1_555
C8 C9 1_555 1_555
C9 C10 1_555 1_555
C10 C11 1_555 1_555
C11 C12 1_555 1_555
C12 C7 1_555 1_555
C13 N3 1_555 1_555
C14 N3 1_555 1_555
C15 S2 1_555 1_555
C16 C15 1_555 1_555
C17 C16 1_555 1_555
C18 N4 1_555 1_555
C19 C18 1_555 1_555
C20 C15 1_555 1_555
C21 C22 1_555 1_555
C22 C23 1_555 1_555
C23 C24 1_555 1_555
C24 C25 1_555 1_555
C25 C26 1_555 1_555
C26 C21 1_555 1_555
C27 N6 1_555 1_555
C28 N6 1_555 1_555
C29 S3 1_555 1_555
C30 C29 1_555 1_555
C31 C30 1_555 1_555
C32 N7 1_555 1_555
C33 C32 1_555 1_555
C34 C29 1_555 1_555
C35 C36 1_555 1_555
C36 C37 1_555 1_555
C37 C38 1_555 1_555
C38 C39 1_555 1_555
C39 C40 1_555 1_555
C40 C35 1_555 1_555
C41 N9 1_555 1_555
C42 N9 1_555 1_555
C43 O10 1_555 1_555
C44 C43 1_555 1_555
C45 O11 1_555 1_555
C46 O10 1_555 1_555
C47 O12 1_555 1_555
C48 C47 1_555 1_555
C49 O13 1_555 1_555
C50 O12 1_555 1_555
C51 O14 1_555 1_555
C52 C51 1_555 1_555
C53 O15 1_555 1_555
C54 O14 1_555 1_555
H1 C2 1_555 1_555
H2 C3 1_555 1_555
H3 C5 1_555 1_555
H4 C6 1_555 1_555
H5 C8 1_555 1_555
H6 C9 1_555 1_555
H7 C11 1_555 1_555
H8 C12 1_555 1_555
H9 C13 1_555 1_555
H10 C13 1_555 1_555
H11 C13 1_555 1_555
H12 C14 1_555 1_555
H13 C14 1_555 1_555
H14 C14 1_555 1_555
H15 C16 1_555 1_555
H16 C17 1_555 1_555
H17 C19 1_555 1_555
H18 C20 1_555 1_555
H19 C22 1_555 1_555
H20 C23 1_555 1_555
H21 C25 1_555 1_555
H22 C26 1_555 1_555
H23 C27 1_555 1_555
H24 C27 1_555 1_555
H25 C27 1_555 1_555
H26 C28 1_555 1_555
H27 C28 1_555 1_555
H28 C28 1_555 1_555
H29 C30 1_555 1_555
H30 C31 1_555 1_555
H31 C33 1_555 1_555
H32 C34 1_555 1_555
H33 C36 1_555 1_555
H34 C37 1_555 1_555
H35 C39 1_555 1_555
H36 C40 1_555 1_555
H37 C41 1_555 1_555
H38 C41 1_555 1_555
H39 C41 1_555 1_555
H40 C42 1_555 1_555
H41 C42 1_555 1_555
H42 C42 1_555 1_555
H43 C43 1_555 1_555
H44 C43 1_555 1_555
H45 C44 1_555 1_555
H46 C44 1_555 1_555
H47 C45 1_555 1_555
H48 C45 1_555 1_555
H49 C46 1_555 1_555
H50 C46 1_555 1_555
H51 C47 1_555 1_555
H52 C47 1_555 1_555
H53 C48 1_555 1_555
H54 C48 1_555 1_555
H55 C49 1_555 1_555
H56 C49 1_555 1_555
H57 C50 1_555 1_555
H58 C50 1_555 1_555
H59 C51 1_555 1_555
H60 C51 1_555 1_555
H61 C52 1_555 1_555
H62 C52 1_555 1_555
H63 C53 1_555 1_555
H64 C53 1_555 1_555
H65 C54 1_555 1_555
H66 C54 1_555 1_555
Na2A O6 1_555 1_555
Na3_2 O4 1_555 1_555
Na3A O7 1_555 1_555
O4_2 Na3 1_555 1_555
O6A Na2 1_555 1_555
O6_2 Na3 1_555 1_555
O7A Na2 1_555 1_555
O8A Na2 1_555 1_555
O8_2 Na3 1_555 1_555
Na1 O9 1_555 1_555
Na2 O5 1_555 1_555
Na2 O9 1_555 1_555
Na3 O3 1_555 1_555
Na3 O7A 1_555 1_555
O6 Na3_2 1_555 1_555
O7 Na2A 1_555 1_555
O8 Na2A 1_555 1_555
O8 Na3_2 1_555 1_555
C3 C4 1_555 1_555
C5 C6 1_555 1_555
C17 C18 1_555 1_555
C19 C20 1_555 1_555
C31 C32 1_555 1_555
C33 C34 1_555 1_555
C45 C46 1_555 1_555
C49 C50 1_555 1_555
C53 C54 1_555 1_555
Na3A O6A 1_555 1_555
Na3A O8A 1_555 1_555

#END
