
#######################################################################
#
#                 Cambridge Crystallographic Data Centre
#                                CCDC 
#
#######################################################################
#
# If this CIF has been generated from an entry in the Cambridge 
# Structural Database, then it will include bibliographic, chemical, 
# crystal, experimental, refinement or atomic coordinate data resulting 
# from the CCDC's data processing and validation procedures.
#
#######################################################################

data_QIXNUI
_symmetry_cell_setting           rhombohedral
_symmetry_space_group_name_H-M   'R -3 c'
_symmetry_Int_Tables_number      167
_space_group_name_Hall           '-R 3 2"c'
loop_
_symmetry_equiv_pos_site_id
_symmetry_equiv_pos_as_xyz
1 x,y,z
2 -y,x-y,z
3 -x+y,-x,z
4 y,x,1/2-z
5 x-y,-y,1/2-z
6 -x,-x+y,1/2-z
7 2/3+x,1/3+y,1/3+z
8 2/3-y,1/3+x-y,1/3+z
9 2/3-x+y,1/3-x,1/3+z
10 2/3+y,1/3+x,5/6-z
11 2/3+x-y,1/3-y,5/6-z
12 2/3-x,1/3-x+y,5/6-z
13 1/3+x,2/3+y,2/3+z
14 1/3-y,2/3+x-y,2/3+z
15 1/3-x+y,2/3-x,2/3+z
16 1/3+y,2/3+x,1/6-z
17 1/3+x-y,2/3-y,1/6-z
18 1/3-x,2/3-x+y,1/6-z
19 -x,-y,-z
20 y,-x+y,-z
21 x-y,x,-z
22 -y,-x,1/2+z
23 -x+y,y,1/2+z
24 x,x-y,1/2+z
25 1/3-x,2/3-y,2/3-z
26 1/3+y,2/3-x+y,2/3-z
27 1/3+x-y,2/3+x,2/3-z
28 1/3-y,2/3-x,1/6+z
29 1/3-x+y,2/3+y,1/6+z
30 1/3+x,2/3+x-y,1/6+z
31 2/3-x,1/3-y,1/3-z
32 2/3+y,1/3-x+y,1/3-z
33 2/3+x-y,1/3+x,1/3-z
34 2/3-y,1/3-x,5/6+z
35 2/3-x+y,1/3+y,5/6+z
36 2/3+x,1/3+x-y,5/6+z
_cell_length_a                   14.9724(3)
_cell_length_b                   14.9724(3)
_cell_length_c                   80.713(3)
_cell_angle_alpha                90
_cell_angle_beta                 90
_cell_angle_gamma                120
_cell_volume                     15669.6
loop_
_atom_site_label
_atom_site_type_symbol
_atom_site_fract_x
_atom_site_fract_y
_atom_site_fract_z
Mo1 Mo 0.47578(2) 0.70845(2) 0.150107(3)
O1 O 0.3333 0.6667 0.1667
O2 O 0.41727(17) 0.78058(17) 0.13997(3)
O3 O 0.53193(16) 0.80915(16) 0.16692(3)
O4 O 0.57743(18) 0.73164(18) 0.13800(3)
Mo2 Mo 0.73954(3) 0.47935(2) 0.099790(4)
O5 O 0.6667 0.5099(2) 0.0833
O6 O 0.7884(3) 0.5852(2) 0.11179(4)
O7 O 0.8438(2) 0.5105(2) 0.0833
O8 O 0.7846(2) 0.3932(2) 0.11000(3)
O9 O 0.6667 0.3333 0.0833
Cu1 Cu 0.65805(3) 0.64313(3) 0.123292(5)
O10 O 0.72340(17) 0.75852(17) 0.10782(3)
O11 O 0.78190(16) 0.72161(16) 0.13681(3)
O12 O 0.93154(17) 0.86875(17) 0.13517(3)
O13 O 0.86788(18) 0.91122(17) 0.10638(3)
C1 C 0.6313(3) 0.5115(3) 0.15282(4)
H1 H 0.6993 0.5578 0.1557
C2 C 0.5729(3) 0.4280(3) 0.16320(5)
H2 H 0.6019 0.4179 0.1727
C3 C 0.4718(3) 0.3606(3) 0.15920(4)
H3 H 0.4313 0.3059 0.1662
C4 C 0.4296(3) 0.3739(2) 0.14465(4)
C5 C 0.4945(2) 0.4592(2) 0.13472(4)
C6 C 0.4583(2) 0.4792(2) 0.11972(4)
C7 C 0.3568(2) 0.4134(3) 0.11452(4)
C8 C 0.3272(3) 0.4390(3) 0.09970(5)
H4 H 0.2604 0.3980 0.0957
C9 C 0.3960(3) 0.5243(4) 0.09097(5)
H5 H 0.3761 0.5418 0.0811
C10 C 0.4965(3) 0.5850(3) 0.09693(5)
H6 H 0.5433 0.6421 0.0908
C11 C 0.3262(3) 0.3078(3) 0.13894(5)
H7 H 0.2819 0.2505 0.1452
C12 C 0.2921(3) 0.3264(3) 0.12481(5)
H8 H 0.2245 0.2818 0.1215
C13 C 0.8098(2) 0.8271(2) 0.11318(4)
C14 C 0.8447(2) 0.8040(2) 0.12977(4)
N1 N 0.5940(2) 0.5275(2) 0.13901(3)
N2 N 0.5268(2) 0.5636(2) 0.11101(3)
Cu2 Cu 1.0000 1.0000 0.120369(8)
Mo1A Mo 0.29155(2) -0.23267(3) 0.150107(3)
O2A O 0.21942(17) -0.36331(24) 0.13997(3)
O3A O 0.19085(16) -0.27722(23) 0.16692(3)
O4A O 0.26836(18) -0.15421(25) 0.13800(3)
Mo2A Mo 0.52065(2) 0.26019(4) 0.099790(4)
O5A O 0.4901(2) 0.1568(2) 0.0833
O6A O 0.4148(2) 0.2032(4) 0.11179(4)
O7A O 0.4895(2) 0.3333(3) 0.0833
O8A O 0.6068(2) 0.3914(3) 0.11000(3)
Cu1A Cu 0.35687(3) 0.01492(4) 0.123292(5)
O10A O 0.24148(17) -0.03512(24) 0.10782(3)
O11A O 0.27839(16) 0.06029(23) 0.13681(3)
O12A O 0.13125(17) 0.06279(24) 0.13517(3)
O13A O 0.08878(17) -0.04334(25) 0.10638(3)
C1A C 0.4885(3) 0.1198(4) 0.15282(4)
H1A H 0.4422 0.1415 0.1557
C2A C 0.5720(3) 0.1449(4) 0.16320(5)
H2A H 0.5821 0.1840 0.1727
C3A C 0.6394(3) 0.1112(4) 0.15920(4)
H3A H 0.6941 0.1254 0.1662
C4A C 0.6261(2) 0.0557(4) 0.14465(4)
C5A C 0.5408(2) 0.0353(3) 0.13472(4)
C6A C 0.5208(2) -0.0209(3) 0.11972(4)
C7A C 0.5866(3) -0.0566(4) 0.11452(4)
C8A C 0.5610(3) -0.1118(4) 0.09970(5)
H4A H 0.6020 -0.1376 0.0957
C9A C 0.4757(4) -0.1283(5) 0.09097(5)
H5A H 0.4582 -0.1657 0.0811
C10A C 0.4150(3) -0.0885(4) 0.09693(5)
H6A H 0.3579 -0.0988 0.0908
C11A C 0.6922(3) 0.0184(4) 0.13894(5)
H7A H 0.7495 0.0314 0.1452
C12A C 0.6736(3) -0.0343(4) 0.12481(5)
H8A H 0.7182 -0.0573 0.1215
C13A C 0.1729(2) -0.0173(3) 0.11318(4)
C14A C 0.1960(2) 0.0407(3) 0.12977(4)
N1A N 0.4725(2) 0.0665(3) 0.13901(3)
N2A N 0.4364(2) -0.0368(3) 0.11101(3)
Mo1B Mo 0.23267(3) 0.52422(2) 0.150107(3)
O2B O 0.36331(24) 0.58273(17) 0.13997(3)
O3B O 0.27722(23) 0.46807(16) 0.16692(3)
O4B O 0.15421(25) 0.42257(18) 0.13800(3)
Mo2B Mo -0.26019(4) 0.26046(3) 0.099790(4)
O5B O -0.1568(2) 0.3333 0.0833
O6B O -0.2032(4) 0.2116(3) 0.11179(4)
O7B O -0.3333(3) 0.1562(2) 0.0833
O8B O -0.3914(3) 0.2154(2) 0.11000(3)
Cu1B Cu -0.01492(4) 0.34195(3) 0.123292(5)
O10B O 0.03512(24) 0.27660(17) 0.10782(3)
O11B O -0.06029(23) 0.21810(16) 0.13681(3)
O12B O -0.06279(24) 0.06846(17) 0.13517(3)
O13B O 0.04334(25) 0.13212(18) 0.10638(3)
C1B C -0.1198(4) 0.3687(3) 0.15282(4)
H1B H -0.1415 0.3007 0.1557
C2B C -0.1449(4) 0.4271(3) 0.16320(5)
H2B H -0.1840 0.3981 0.1727
C3B C -0.1112(4) 0.5282(3) 0.15920(4)
H3B H -0.1254 0.5687 0.1662
C4B C -0.0557(4) 0.5704(3) 0.14465(4)
C5B C -0.0353(3) 0.5055(2) 0.13472(4)
C6B C 0.0209(3) 0.5417(2) 0.11972(4)
C7B C 0.0566(4) 0.6432(2) 0.11452(4)
C8B C 0.1118(4) 0.6728(3) 0.09970(5)
H4B H 0.1376 0.7396 0.0957
C9B C 0.1283(5) 0.6040(3) 0.09097(5)
H5B H 0.1657 0.6239 0.0811
C10B C 0.0885(4) 0.5035(3) 0.09693(5)
H6B H 0.0988 0.4567 0.0908
C11B C -0.0184(4) 0.6738(3) 0.13894(5)
H7B H -0.0314 0.7181 0.1452
C12B C 0.0343(4) 0.7079(3) 0.12481(5)
H8B H 0.0573 0.7755 0.1215
C13B C 0.0173(3) 0.1902(2) 0.11318(4)
C14B C -0.0407(3) 0.1553(2) 0.12977(4)
N1B N -0.0665(3) 0.4060(2) 0.13901(3)
N2B N 0.0368(3) 0.4732(2) 0.11101(3)
Mo1DA Mo 0.19089(2) -0.37512(2) 0.183226(3)
O2DA O 0.24940(17) -0.44725(17) 0.19336(3)
O3DA O 0.13474(16) -0.47582(16) 0.16641(3)
O4DA O 0.08924(18) -0.39831(18) 0.19533(3)
Mo2DA Mo -0.07287(3) -0.14602(2) 0.233543(4)
O6DA O -0.1217(3) -0.2519(2) 0.22154(4)
O8DA O -0.1179(2) -0.0599(2) 0.22333(3)
Cu1DA Cu 0.00862(3) -0.30980(3) 0.210041(5)
O10DA O -0.05673(17) -0.42519(17) 0.22551(3)
O11DA O -0.11523(16) -0.38828(16) 0.19652(3)
O12DA O -0.26487(17) -0.53542(17) 0.19816(3)
O13DA O -0.20121(18) -0.57789(17) 0.22695(3)
C1DA C 0.0354(3) -0.1782(3) 0.18051(4)
H1DA H -0.0326 -0.2245 0.1776
C2DA C 0.0938(3) -0.0947(3) 0.17013(5)
H2DA H 0.0648 -0.0846 0.1606
C3DA C 0.1949(3) -0.0273(3) 0.17413(4)
H3DA H 0.2354 0.0274 0.1671
C4DA C 0.2371(3) -0.0406(2) 0.18868(4)
C5DA C 0.1722(2) -0.1259(2) 0.19861(4)
C6DA C 0.2084(2) -0.1459(2) 0.21361(4)
C7DA C 0.3099(2) -0.0801(3) 0.21881(4)
C8DA C 0.3395(3) -0.1057(3) 0.23363(5)
H4DA H 0.4063 -0.0647 0.2376
C9DA C 0.2707(3) -0.1910(4) 0.24236(5)
H5DA H 0.2906 -0.2085 0.2522
C10DA C 0.1702(3) -0.2517(3) 0.23640(5)
H6DA H 0.1234 -0.3088 0.2425
C11DA C 0.3405(3) 0.0255(3) 0.19439(5)
H7DA H 0.3848 0.0828 0.1881
C12DA C 0.3746(3) 0.0069(3) 0.20852(5)
H8DA H 0.4422 0.0515 0.2118
C13DA C -0.1431(2) -0.4938(2) 0.22015(4)
C14DA C -0.1780(2) -0.4707(2) 0.20356(4)
N1DA N 0.0727(2) -0.1942(2) 0.19432(3)
N2DA N 0.1399(2) -0.2303(2) 0.22232(3)
Cu2DA Cu -0.3333 -0.6667 0.212964(8)
Mo1EA Mo 0.37512(2) 0.56600(3) 0.183226(3)
O2EA O 0.44725(17) 0.69664(24) 0.19336(3)
O3EA O 0.47582(16) 0.61055(23) 0.16641(3)
O4EA O 0.39831(18) 0.48754(25) 0.19533(3)
Mo2EA Mo 0.14602(2) 0.07314(4) 0.233543(4)
O6EA O 0.2519(2) 0.1301(4) 0.22154(4)
O8EA O 0.0599(2) -0.0581(3) 0.22333(3)
Cu1EA Cu 0.30980(3) 0.31841(4) 0.210041(5)
O10EA O 0.42519(17) 0.36845(24) 0.22551(3)
O11EA O 0.38828(16) 0.27304(23) 0.19652(3)
O12EA O 0.53542(17) 0.27054(24) 0.19816(3)
O13EA O 0.57789(17) 0.37667(25) 0.22695(3)
C1EA C 0.1782(3) 0.2135(4) 0.18051(4)
H1EA H 0.2245 0.1918 0.1776
C2EA C 0.0947(3) 0.1884(4) 0.17013(5)
H2EA H 0.0846 0.1493 0.1606
C3EA C 0.0273(3) 0.2221(4) 0.17413(4)
H3EA H -0.0274 0.2079 0.1671
C4EA C 0.0406(2) 0.2776(4) 0.18868(4)
C5EA C 0.1259(2) 0.2980(3) 0.19861(4)
C6EA C 0.1459(2) 0.3542(3) 0.21361(4)
C7EA C 0.0801(3) 0.3899(4) 0.21881(4)
C8EA C 0.1057(3) 0.4451(4) 0.23363(5)
H4EA H 0.0647 0.4709 0.2376
C9EA C 0.1910(4) 0.4616(5) 0.24236(5)
H5EA H 0.2085 0.4990 0.2522
C10EA C 0.2517(3) 0.4218(4) 0.23640(5)
H6EA H 0.3088 0.4321 0.2425
C11EA C -0.0255(3) 0.3149(4) 0.19439(5)
H7EA H -0.0828 0.3019 0.1881
C12EA C -0.0069(3) 0.3676(4) 0.20852(5)
H8EA H -0.0515 0.3906 0.2118
C13EA C 0.4938(2) 0.3506(3) 0.22015(4)
C14EA C 0.4707(2) 0.2926(3) 0.20356(4)
N1EA N 0.1942(2) 0.2668(3) 0.19432(3)
N2EA N 0.2303(2) 0.3701(3) 0.22232(3)
Mo1FA Mo 0.43400(3) -0.19089(2) 0.183226(3)
O2FA O 0.30336(24) -0.24940(17) 0.19336(3)
O3FA O 0.38945(23) -0.13474(16) 0.16641(3)
O4FA O 0.51246(25) -0.08924(18) 0.19533(3)
Mo2FA Mo 0.92686(4) 0.07287(3) 0.233543(4)
O6FA O 0.8699(4) 0.1217(3) 0.22154(4)
O8FA O 1.0581(3) 0.1179(2) 0.22333(3)
Cu1FA Cu 0.68159(4) -0.00862(3) 0.210041(5)
O10FA O 0.63155(24) 0.05673(17) 0.22551(3)
O11FA O 0.72696(23) 0.11523(16) 0.19652(3)
O12FA O 0.72946(24) 0.26487(17) 0.19816(3)
O13FA O 0.62333(25) 0.20121(18) 0.22695(3)
C1FA C 0.7865(4) -0.0354(3) 0.18051(4)
H1FA H 0.8082 0.0326 0.1776
C2FA C 0.8116(4) -0.0938(3) 0.17013(5)
H2FA H 0.8507 -0.0648 0.1606
C3FA C 0.7779(4) -0.1949(3) 0.17413(4)
H3FA H 0.7921 -0.2354 0.1671
C4FA C 0.7224(4) -0.2371(3) 0.18868(4)
C5FA C 0.7020(3) -0.1722(2) 0.19861(4)
C6FA C 0.6458(3) -0.2084(2) 0.21361(4)
C7FA C 0.6101(4) -0.3099(2) 0.21881(4)
C8FA C 0.5549(4) -0.3395(3) 0.23363(5)
H4FA H 0.5291 -0.4063 0.2376
C9FA C 0.5384(5) -0.2707(3) 0.24236(5)
H5FA H 0.5010 -0.2906 0.2522
C10FA C 0.5782(4) -0.1702(3) 0.23640(5)
H6FA H 0.5679 -0.1234 0.2425
C11FA C 0.6851(4) -0.3405(3) 0.19439(5)
H7FA H 0.6981 -0.3848 0.1881
C12FA C 0.6324(4) -0.3746(3) 0.20852(5)
H8FA H 0.6094 -0.4422 0.2118
C13FA C 0.6494(3) 0.1431(2) 0.22015(4)
C14FA C 0.7074(3) 0.1780(2) 0.20356(4)
N1FA N 0.7332(3) -0.0727(2) 0.19432(3)
N2FA N 0.6299(3) -0.1399(2) 0.22232(3)
Mo1A_2 Mo 0.29155(2) 0.76733(3) 0.150107(3)
Mo1B_2 Mo 0.23267(3) -0.47578(2) 0.150107(3)
Mo1DA_2 Mo 0.19089(2) 0.62488(2) 0.183226(3)
Mo1EA_2 Mo 0.37512(2) -0.43400(3) 0.183226(3)
Mo1FA_2 Mo 0.43400(3) 0.80911(2) 0.183226(3)
O1_2 O 0.3333 -0.3333 0.1667
O2_2 O 0.41727(17) -0.21942(17) 0.13997(3)
O2A_2 O 0.21942(17) 0.63669(24) 0.13997(3)
O2DA_2 O 0.24940(17) 0.55275(17) 0.19336(3)
O2EA_2 O 0.44725(17) -0.30336(24) 0.19336(3)
O3_2 O 0.53193(16) -0.19085(16) 0.16692(3)
O3DA_2 O 0.13474(16) 0.52418(16) 0.16641(3)
Mo2A_2 Mo -0.47935(2) 0.26019(4) 0.099790(4)
Mo2B_2 Mo 0.73981(4) 0.26046(3) 0.099790(4)
Mo2O Mo -0.18732(2) 0.40621(3) 0.066877(4)
Mo2O_2 Mo 0.81268(2) 0.40621(3) 0.066877(4)
Mo2P Mo -0.40648(4) 0.18732(2) 0.066877(4)
Mo2P_2 Mo 0.59352(4) 0.18732(2) 0.066877(4)
Mo2Q Mo 0.59379(3) 0.40648(4) 0.066877(4)
Mo2EA_2 Mo 1.14602(2) 0.07314(4) 0.233543(4)
Mo2FA_2 Mo -0.07314(4) 0.07287(3) 0.233543(4)
O5DA O -0.0000 -0.1766(2) 0.2500
O5EA O 0.1766(2) 0.1765(2) 0.2500
O5FA O 0.8235(2) 0.0000 0.2500
O7DA O -0.1771(2) -0.1772(2) 0.2500
O7EA O 0.1772(2) 0.0000(3) 0.2500
O7FA O 1.0000(3) 0.1771(2) 0.2500
O8_2 O -0.2154(2) 0.3932(2) 0.11000(3)
O8B_2 O 0.6086(3) 0.2154(2) 0.11000(3)
O8DA_2 O 0.8821(2) -0.0599(2) 0.22333(3)
O8FA_2 O 0.0581(3) 0.1179(2) 0.22333(3)
O9_2 O -0.3333 0.3333 0.0833
O9DA O -0.0000 0.0000 0.2500
O9DA_2 O 1.0000 0.0000 0.2500
O12A_2 O 1.13125(17) 1.06279(24) 0.13517(3)
O12B_2 O 0.93721(24) 1.06846(17) 0.13517(3)
O12EA_2 O -0.46458(17) -0.72946(24) 0.19816(3)
O12FA_2 O -0.27054(24) -0.73513(17) 0.19816(3)
O13A_2 O 1.08878(17) 0.95666(25) 0.10638(3)
O13B_2 O 1.04334(25) 1.13212(18) 0.10638(3)
O13EA_2 O -0.42211(17) -0.62333(25) 0.22695(3)
O13FA_2 O -0.37667(25) -0.79879(18) 0.22695(3)
Cu2_2 Cu 0.0000 0.0000 0.120369(8)
Cu2DA_2 Cu 0.6667 0.3333 0.212964(8)
loop_
_geom_bond_atom_site_label_1
_geom_bond_atom_site_label_2
_geom_bond_site_symmetry_1
_geom_bond_site_symmetry_2
Mo1 O1 1_555 1_555
O1 Mo1B 1_555 1_555
O2 Mo1 1_555 1_555
O3 Mo1 1_555 1_555
O4 Mo1 1_555 1_555
Mo2 O5 1_555 1_555
O5 Mo2Q 1_555 1_555
O6 Mo2 1_555 1_555
O7 Mo2 1_555 1_555
O8 Mo2 1_555 1_555
O9 Mo2 1_555 1_555
Cu1 O4 1_555 1_555
O10 Cu1 1_555 1_555
O11 Cu1 1_555 1_555
O12 C14 1_555 1_555
O13 C13 1_555 1_555
C1 H1 1_555 1_555
C2 C1 1_555 1_555
H2 C2 1_555 1_555
C3 C2 1_555 1_555
H3 C3 1_555 1_555
C4 C3 1_555 1_555
C5 C4 1_555 1_555
C6 C5 1_555 1_555
C7 C6 1_555 1_555
C8 C7 1_555 1_555
H4 C8 1_555 1_555
C9 C8 1_555 1_555
H5 C9 1_555 1_555
C10 C9 1_555 1_555
H6 C10 1_555 1_555
C11 C4 1_555 1_555
H7 C11 1_555 1_555
C12 C7 1_555 1_555
H8 C12 1_555 1_555
C13 O10 1_555 1_555
C14 O11 1_555 1_555
N1 Cu1 1_555 1_555
N2 Cu1 1_555 1_555
Cu2 O12 1_555 1_555
Mo1A O2A 1_555 1_555
O2A Mo1B_2 1_555 1_555
O3A Mo1A 1_555 1_555
O4A Mo1A 1_555 1_555
Mo2A O9 1_555 1_555
O5A Mo2A 1_555 1_555
O6A Mo2A 1_555 1_555
O7A Mo2A 1_555 1_555
O8A Mo2 1_555 1_555
Cu1A O4A 1_555 1_555
O10A Cu1A 1_555 1_555
O11A Cu1A 1_555 1_555
O12A C14A 1_555 1_555
O13A C13A 1_555 1_555
C1A H1A 1_555 1_555
C2A C1A 1_555 1_555
H2A C2A 1_555 1_555
C3A C2A 1_555 1_555
H3A C3A 1_555 1_555
C4A C3A 1_555 1_555
C5A C4A 1_555 1_555
C6A C5A 1_555 1_555
C7A C6A 1_555 1_555
C8A C7A 1_555 1_555
H4A C8A 1_555 1_555
C9A C8A 1_555 1_555
H5A C9A 1_555 1_555
C10A C9A 1_555 1_555
H6A C10A 1_555 1_555
C11A C4A 1_555 1_555
H7A C11A 1_555 1_555
C12A C7A 1_555 1_555
H8A C12A 1_555 1_555
C13A O10A 1_555 1_555
C14A O11A 1_555 1_555
N1A Cu1A 1_555 1_555
N2A Cu1A 1_555 1_555
Mo1B O2B 1_555 1_555
O2B Mo1 1_555 1_555
O3B Mo1B 1_555 1_555
O4B Mo1B 1_555 1_555
Mo2B O5B 1_555 1_555
O5B Mo2O 1_555 1_555
O6B Mo2B 1_555 1_555
O7B Mo2B 1_555 1_555
O8B Mo2B 1_555 1_555
Cu1B O4B 1_555 1_555
O10B Cu1B 1_555 1_555
O11B Cu1B 1_555 1_555
O12B C14B 1_555 1_555
O13B C13B 1_555 1_555
C1B H1B 1_555 1_555
C2B C1B 1_555 1_555
H2B C2B 1_555 1_555
C3B C2B 1_555 1_555
H3B C3B 1_555 1_555
C4B C3B 1_555 1_555
C5B C4B 1_555 1_555
C6B C5B 1_555 1_555
C7B C6B 1_555 1_555
C8B C7B 1_555 1_555
H4B C8B 1_555 1_555
C9B C8B 1_555 1_555
H5B C9B 1_555 1_555
C10B C9B 1_555 1_555
H6B C10B 1_555 1_555
C11B C4B 1_555 1_555
H7B C11B 1_555 1_555
C12B C7B 1_555 1_555
H8B C12B 1_555 1_555
C13B O10B 1_555 1_555
C14B O11B 1_555 1_555
N1B Cu1B 1_555 1_555
N2B Cu1B 1_555 1_555
Mo1DA O3A 1_555 1_555
O2DA Mo1DA 1_555 1_555
O3DA Mo1DA 1_555 1_555
O4DA Mo1DA 1_555 1_555
Mo2DA O6DA 1_555 1_555
O6DA Cu1DA 1_555 1_555
O8DA Mo2DA 1_555 1_555
Cu1DA O4DA 1_555 1_555
O10DA Cu1DA 1_555 1_555
O11DA Cu1DA 1_555 1_555
O12DA C14DA 1_555 1_555
O13DA C13DA 1_555 1_555
C1DA H1DA 1_555 1_555
C2DA C1DA 1_555 1_555
H2DA C2DA 1_555 1_555
C3DA C2DA 1_555 1_555
H3DA C3DA 1_555 1_555
C4DA C3DA 1_555 1_555
C5DA C4DA 1_555 1_555
C6DA C5DA 1_555 1_555
C7DA C6DA 1_555 1_555
C8DA C7DA 1_555 1_555
H4DA C8DA 1_555 1_555
C9DA C8DA 1_555 1_555
H5DA C9DA 1_555 1_555
C10DA C9DA 1_555 1_555
H6DA C10DA 1_555 1_555
C11DA C4DA 1_555 1_555
H7DA C11DA 1_555 1_555
C12DA C7DA 1_555 1_555
H8DA C12DA 1_555 1_555
C13DA O10DA 1_555 1_555
C14DA O11DA 1_555 1_555
N1DA Cu1DA 1_555 1_555
N2DA Cu1DA 1_555 1_555
Cu2DA O12DA 1_555 1_555
Mo1EA O1 1_555 1_555
O2EA Mo1EA 1_555 1_555
O3EA Mo1 1_555 1_555
O4EA Mo1EA 1_555 1_555
Mo2EA O6EA 1_555 1_555
O6EA Cu1EA 1_555 1_555
O8EA Mo2DA 1_555 1_555
Cu1EA O4EA 1_555 1_555
O10EA Cu1EA 1_555 1_555
O11EA Cu1EA 1_555 1_555
O12EA C14EA 1_555 1_555
O13EA C13EA 1_555 1_555
C1EA H1EA 1_555 1_555
C2EA C1EA 1_555 1_555
H2EA C2EA 1_555 1_555
C3EA C2EA 1_555 1_555
H3EA C3EA 1_555 1_555
C4EA C3EA 1_555 1_555
C5EA C4EA 1_555 1_555
C6EA C5EA 1_555 1_555
C7EA C6EA 1_555 1_555
C8EA C7EA 1_555 1_555
H4EA C8EA 1_555 1_555
C9EA C8EA 1_555 1_555
H5EA C9EA 1_555 1_555
C10EA C9EA 1_555 1_555
H6EA C10EA 1_555 1_555
C11EA C4EA 1_555 1_555
H7EA C11EA 1_555 1_555
C12EA C7EA 1_555 1_555
H8EA C12EA 1_555 1_555
C13EA O10EA 1_555 1_555
C14EA O11EA 1_555 1_555
N1EA Cu1EA 1_555 1_555
N2EA Cu1EA 1_555 1_555
Mo1FA O2FA 1_555 1_555
O2FA Mo1DA 1_555 1_555
O3FA Mo1A 1_555 1_555
O4FA Mo1FA 1_555 1_555
Mo2FA O6FA 1_555 1_555
O6FA Cu1FA 1_555 1_555
O8FA Mo2FA 1_555 1_555
Cu1FA O4FA 1_555 1_555
O10FA Cu1FA 1_555 1_555
O11FA Cu1FA 1_555 1_555
O12FA C14FA 1_555 1_555
O13FA C13FA 1_555 1_555
C1FA H1FA 1_555 1_555
C2FA C1FA 1_555 1_555
H2FA C2FA 1_555 1_555
C3FA C2FA 1_555 1_555
H3FA C3FA 1_555 1_555
C4FA C3FA 1_555 1_555
C5FA C4FA 1_555 1_555
C6FA C5FA 1_555 1_555
C7FA C6FA 1_555 1_555
C8FA C7FA 1_555 1_555
H4FA C8FA 1_555 1_555
C9FA C8FA 1_555 1_555
H5FA C9FA 1_555 1_555
C10FA C9FA 1_555 1_555
H6FA C10FA 1_555 1_555
C11FA C4FA 1_555 1_555
H7FA C11FA 1_555 1_555
C12FA C7FA 1_555 1_555
H8FA C12FA 1_555 1_555
C13FA O10FA 1_555 1_555
C14FA O11FA 1_555 1_555
N1FA Cu1FA 1_555 1_555
N2FA Cu1FA 1_555 1_555
Mo1A_2 O1 1_555 1_555
Mo1B_2 O3DA 1_555 1_555
Mo1DA_2 O1 1_555 1_555
Mo1EA_2 O2DA 1_555 1_555
Mo1FA_2 O1 1_555 1_555
O1_2 Mo1A 1_555 1_555
O2_2 Mo1A 1_555 1_555
O2A_2 Mo1B 1_555 1_555
O2DA_2 Mo1EA 1_555 1_555
O2EA_2 Mo1FA 1_555 1_555
O3_2 Mo1FA 1_555 1_555
O3DA_2 Mo1B 1_555 1_555
Mo2A_2 O8B 1_555 1_555
Mo2B_2 O8 1_555 1_555
Mo2O O9_2 1_555 1_555
Mo2O_2 O7 1_555 1_555
Mo2P O7B 1_555 1_555
Mo2P_2 O9 1_555 1_555
Mo2Q O9 1_555 1_555
Mo2EA_2 O8FA 1_555 1_555
Mo2FA_2 O8DA 1_555 1_555
O5DA Mo2DA 1_555 1_555
O5EA Mo2EA 1_555 1_555
O5FA Mo2FA 1_555 1_555
O7DA Mo2DA 1_555 1_555
O7EA Mo2EA 1_555 1_555
O7FA Mo2FA 1_555 1_555
O8_2 Mo2B 1_555 1_555
O8B_2 Mo2A 1_555 1_555
O8DA_2 Mo2FA 1_555 1_555
O8FA_2 Mo2EA 1_555 1_555
O9_2 Mo2B 1_555 1_555
O9DA Mo2DA 1_555 1_555
O9DA_2 Mo2FA 1_555 1_555
O12A_2 Cu2 1_555 1_555
O12B_2 Cu2 1_555 1_555
O12EA_2 Cu2DA 1_555 1_555
O12FA_2 Cu2DA 1_555 1_555
O13A_2 Cu2 1_555 1_555
O13B_2 Cu2 1_555 1_555
O13EA_2 Cu2DA 1_555 1_555
O13FA_2 Cu2DA 1_555 1_555
Cu2_2 O12A 1_555 1_555
Cu2DA_2 O12EA 1_555 1_555
O2 Mo1A_2 1_555 1_555
O3 Mo1FA_2 1_555 1_555
O6 Cu1 1_555 1_555
O9 Mo2B_2 1_555 1_555
O9 Mo2O_2 1_555 1_555
O13 Cu2 1_555 1_555
C1 N1 1_555 1_555
C5 N1 1_555 1_555
C6 N2 1_555 1_555
C10 N2 1_555 1_555
C11 C12 1_555 1_555
C13 C14 1_555 1_555
Mo2A O8A 1_555 1_555
O5A Mo2P_2 1_555 1_555
O6A Cu1A 1_555 1_555
O7A Mo2Q 1_555 1_555
O13A Cu2_2 1_555 1_555
C1A N1A 1_555 1_555
C5A N1A 1_555 1_555
C6A N2A 1_555 1_555
C10A N2A 1_555 1_555
C11A C12A 1_555 1_555
C13A C14A 1_555 1_555
O3B Mo1EA 1_555 1_555
O6B Cu1B 1_555 1_555
O12B Cu2_2 1_555 1_555
O13B Cu2_2 1_555 1_555
C1B N1B 1_555 1_555
C5B N1B 1_555 1_555
C6B N2B 1_555 1_555
C10B N2B 1_555 1_555
C11B C12B 1_555 1_555
C13B C14B 1_555 1_555
Mo1DA O1_2 1_555 1_555
O13DA Cu2DA 1_555 1_555
C1DA N1DA 1_555 1_555
C5DA N1DA 1_555 1_555
C6DA N2DA 1_555 1_555
C10DA N2DA 1_555 1_555
C11DA C12DA 1_555 1_555
C13DA C14DA 1_555 1_555
Mo1EA O3EA 1_555 1_555
O2EA Mo1FA_2 1_555 1_555
Mo2EA O8EA 1_555 1_555
Mo2EA O9DA 1_555 1_555
O13EA Cu2DA_2 1_555 1_555
C1EA N1EA 1_555 1_555
C5EA N1EA 1_555 1_555
C6EA N2EA 1_555 1_555
C10EA N2EA 1_555 1_555
C11EA C12EA 1_555 1_555
C13EA C14EA 1_555 1_555
Mo1FA O3FA 1_555 1_555
Mo1FA O1_2 1_555 1_555
O12FA Cu2DA_2 1_555 1_555
O13FA Cu2DA_2 1_555 1_555
C1FA N1FA 1_555 1_555
C5FA N1FA 1_555 1_555
C6FA N2FA 1_555 1_555
C10FA N2FA 1_555 1_555
C11FA C12FA 1_555 1_555
C13FA C14FA 1_555 1_555
Mo1A_2 O2A_2 1_555 1_555
Mo1B_2 O1_2 1_555 1_555
Mo1DA_2 O2DA_2 1_555 1_555
Mo1DA_2 O3DA_2 1_555 1_555
Mo1EA_2 O1_2 1_555 1_555
Mo1EA_2 O2EA_2 1_555 1_555
Mo2A_2 O9_2 1_555 1_555
Mo2B_2 O8B_2 1_555 1_555
Mo2P O9_2 1_555 1_555
Mo2EA_2 O9DA_2 1_555 1_555
Mo2FA_2 O8FA_2 1_555 1_555
Mo2FA_2 O9DA 1_555 1_555

#END
