
#######################################################################
#
#                 Cambridge Crystallographic Data Centre
#                                CCDC 
#
#######################################################################
#
# If this CIF has been generated from an entry in the Cambridge 
# Structural Database, then it will include bibliographic, chemical, 
# crystal, experimental, refinement or atomic coordinate data resulting 
# from the CCDC's data processing and validation procedures.
#
#######################################################################

data_QIXNOB
_symmetry_cell_setting           triclinic
_symmetry_space_group_name_H-M   'P -1'
_symmetry_Int_Tables_number      2
_space_group_name_Hall           '-P 1'
loop_
_symmetry_equiv_pos_site_id
_symmetry_equiv_pos_as_xyz
1 x,y,z
2 -x,-y,-z
_cell_length_a                   5.3979(17)
_cell_length_b                   8.806(3)
_cell_length_c                   14.018(4)
_cell_angle_alpha                87.988(5)
_cell_angle_beta                 84.165(5)
_cell_angle_gamma                84.475(5)
_cell_volume                     659.583
loop_
_atom_site_label
_atom_site_type_symbol
_atom_site_fract_x
_atom_site_fract_y
_atom_site_fract_z
Co1 Co 0.88487(8) 0.54658(4) 0.74750(3)
Cl1 Cl 1.00798(18) 0.70640(10) 0.62711(6)
Cl2 Cl 1.14897(18) 0.42183(11) 0.84306(6)
N1 N 0.7275(5) 0.3806(3) 0.68363(19)
N2 N 0.6308(5) 0.6763(3) 0.8353(2)
C1 C 0.5435(7) 0.4131(4) 0.6281(3)
H1 H 0.4851 0.5151 0.6200
C2 C 0.4336(7) 0.3066(4) 0.5819(3)
H2 H 0.3053 0.3362 0.5438
C3 C 0.5184(7) 0.1528(4) 0.5933(2)
C4 C 0.7079(8) 0.1187(4) 0.6500(3)
H3 H 0.7711 0.0176 0.6585
C5 C 0.8076(7) 0.2329(4) 0.6950(3)
H4 H 0.9343 0.2062 0.7344
C6 C 0.4098(7) 0.0307(4) 0.5416(3)
H5 H 0.2547 0.0730 0.5176
H6 H 0.3720 -0.0523 0.5864
C7 C 0.4596(8) 0.7756(4) 0.7979(3)
H7 H 0.4611 0.7858 0.7316
C8 C 0.2815(8) 0.8629(5) 0.8552(3)
H8 H 0.1652 0.9304 0.8270
C9 C 0.2745(7) 0.8507(4) 0.9545(3)
C10 C 0.4501(8) 0.7480(5) 0.9904(3)
H9 H 0.4527 0.7354 1.0565
C11 C 0.6216(7) 0.6636(4) 0.9308(3)
H10 H 0.7372 0.5942 0.9578
C12 C 0.0852(8) 0.9406(4) 1.0232(3)
H11 H -0.0164 0.8697 1.0598
H12 H 0.1746 0.9903 1.0680
Co1A Co 0.11513(8) -0.54658(4) 0.25250(3)
Co1A_2 Co -0.88487(8) 1.45342(4) 1.25250(3)
Cl1A Cl -0.00798(18) -0.70640(10) 0.37289(6)
Cl2A Cl -0.14897(18) -0.42183(11) 0.15694(6)
N1A N 0.2725(5) -0.3806(3) 0.31637(19)
N2A N -0.6308(5) 1.3237(3) 1.1647(2)
N2A_2 N 0.3692(5) -0.6763(3) 0.1647(2)
C1A C 0.4565(7) -0.4131(4) 0.3719(3)
H1A H 0.5149 -0.5151 0.3800
C2A C 0.5664(7) -0.3066(4) 0.4181(3)
H2A H 0.6947 -0.3362 0.4562
C3A C 0.4816(7) -0.1528(4) 0.4067(2)
C4A C 0.2921(8) -0.1187(4) 0.3500(3)
H3A H 0.2289 -0.0176 0.3415
C5A C 0.1924(7) -0.2329(4) 0.3050(3)
H4A H 0.0657 -0.2062 0.2656
C6A C 0.5902(7) -0.0307(4) 0.4584(3)
H5A H 0.7453 -0.0730 0.4824
H6A H 0.6280 0.0523 0.4136
C7A C -0.4596(8) 1.2244(4) 1.2021(3)
H7A H -0.4611 1.2142 1.2684
C8A C -0.2815(8) 1.1371(5) 1.1448(3)
H8A H -0.1652 1.0696 1.1730
C9A C -0.2745(7) 1.1493(4) 1.0455(3)
C10A C -0.4501(8) 1.2520(5) 1.0096(3)
H9A H -0.4527 1.2646 0.9435
C11A C -0.6216(7) 1.3364(4) 1.0692(3)
H10A H -0.7372 1.4058 1.0422
C12A C -0.0852(8) 1.0594(4) 0.9768(3)
H11A H 0.0164 1.1303 0.9402
H12A H -0.1746 1.0097 0.9320
loop_
_geom_bond_atom_site_label_1
_geom_bond_atom_site_label_2
_geom_bond_site_symmetry_1
_geom_bond_site_symmetry_2
Co1 Cl1 1_555 1_555
Cl2 Co1 1_555 1_555
N1 Co1 1_555 1_555
N2 Co1 1_555 1_555
C1 N1 1_555 1_555
H1 C1 1_555 1_555
C2 C1 1_555 1_555
H2 C2 1_555 1_555
C3 C2 1_555 1_555
C4 C3 1_555 1_555
H3 C4 1_555 1_555
C5 N1 1_555 1_555
H4 C5 1_555 1_555
C6 C3 1_555 1_555
H5 C6 1_555 1_555
H6 C6 1_555 1_555
C7 N2 1_555 1_555
H7 C7 1_555 1_555
C8 C7 1_555 1_555
H8 C8 1_555 1_555
C9 C8 1_555 1_555
C10 C9 1_555 1_555
H9 C10 1_555 1_555
C11 N2 1_555 1_555
H10 C11 1_555 1_555
C12 C9 1_555 1_555
H11 C12 1_555 1_555
H12 C12 1_555 1_555
Co1A Cl1A 1_555 1_555
Co1A_2 N2A 1_555 1_555
Cl2A Co1A 1_555 1_555
N1A Co1A 1_555 1_555
N2A C7A 1_555 1_555
N2A_2 Co1A 1_555 1_555
C1A N1A 1_555 1_555
H1A C1A 1_555 1_555
C2A C1A 1_555 1_555
H2A C2A 1_555 1_555
C3A C2A 1_555 1_555
C4A C3A 1_555 1_555
H3A C4A 1_555 1_555
C5A N1A 1_555 1_555
H4A C5A 1_555 1_555
C6A C6 1_555 1_555
H5A C6A 1_555 1_555
H6A C6A 1_555 1_555
C7A H7A 1_555 1_555
C8A C7A 1_555 1_555
H8A C8A 1_555 1_555
C9A C8A 1_555 1_555
C10A C9A 1_555 1_555
H9A C10A 1_555 1_555
C11A N2A 1_555 1_555
H10A C11A 1_555 1_555
C12A C12 1_555 1_555
H11A C12A 1_555 1_555
H12A C12A 1_555 1_555
C4 C5 1_555 1_555
C10 C11 1_555 1_555
C3A C6A 1_555 1_555
C4A C5A 1_555 1_555
C9A C12A 1_555 1_555
C10A C11A 1_555 1_555

#END
