
#######################################################################
#
#                 Cambridge Crystallographic Data Centre
#                                CCDC 
#
#######################################################################
#
# If this CIF has been generated from an entry in the Cambridge 
# Structural Database, then it will include bibliographic, chemical, 
# crystal, experimental, refinement or atomic coordinate data resulting 
# from the CCDC's data processing and validation procedures.
#
#######################################################################

data_QIXPUJ
_symmetry_cell_setting           monoclinic
_symmetry_space_group_name_H-M   'P 21/c'
_symmetry_Int_Tables_number      14
_space_group_name_Hall           '-P 2ybc'
loop_
_symmetry_equiv_pos_site_id
_symmetry_equiv_pos_as_xyz
1 x,y,z
2 -x,1/2+y,1/2-z
3 -x,-y,-z
4 x,1/2-y,1/2+z
_cell_length_a                   7.7480(11)
_cell_length_b                   13.264(2)
_cell_length_c                   7.3291(11)
_cell_angle_alpha                90
_cell_angle_beta                 97.081(2)
_cell_angle_gamma                90
_cell_volume                     747.463
loop_
_atom_site_label
_atom_site_type_symbol
_atom_site_fract_x
_atom_site_fract_y
_atom_site_fract_z
Cd1 Cd 0.0000 0.5000 0.5000
S1 S 0.71583(7) 0.62259(4) 0.77922(8)
N1 N 0.2044(2) 0.62074(14) 0.6090(3)
O1 O 0.7687(2) 0.57880(16) 0.6122(3)
O2 O 0.7069(2) 0.54880(14) 0.9231(3)
O3 O 0.8146(2) 0.71095(13) 0.8402(3)
C1 C 0.3697(3) 0.59388(16) 0.6647(3)
H1 H 0.3979 0.5257 0.6722
C2 C 0.4994(3) 0.66450(17) 0.7113(3)
C3 C 0.4585(3) 0.76576(17) 0.7005(4)
H2 H 0.5439 0.8143 0.7300
C4 C 0.2885(3) 0.79362(18) 0.6450(4)
H3 H 0.2572 0.8613 0.6380
C5 C 0.1657(3) 0.71933(18) 0.6000(3)
H4 H 0.0514 0.7385 0.5619
O4 O 0.0841(3) 0.40325(16) 0.7537(3)
H5 H 0.140(4) 0.426(2) 0.845(5)
H6 H 0.113(4) 0.348(3) 0.733(5)
Cd1_2 Cd 1.0000 0.5000 0.5000
Cd1_3 Cd -1.0000 0.5000 0.5000
S1B S -0.71583(7) 0.37741(4) 0.22078(8)
N1B N -0.2044(2) 0.37926(14) 0.3910(3)
O1B O -0.7687(2) 0.42120(16) 0.3878(3)
O1_2 O -0.2313(2) 0.57880(16) 0.6122(3)
O1B_2 O 0.2313(2) 0.42120(16) 0.3878(3)
O2B O -0.7069(2) 0.45120(14) 0.0769(3)
O3B O -0.8146(2) 0.28905(13) 0.1598(3)
C1B C -0.3697(3) 0.40612(16) 0.3353(3)
H1B H -0.3979 0.4743 0.3278
C2B C -0.4994(3) 0.33550(17) 0.2887(3)
C3B C -0.4585(3) 0.23424(17) 0.2995(4)
H2B H -0.5439 0.1857 0.2700
C4B C -0.2885(3) 0.20638(18) 0.3550(4)
H3B H -0.2572 0.1387 0.3620
C5B C -0.1657(3) 0.28067(18) 0.4000(3)
H4B H -0.0514 0.2615 0.4381
O4B O -0.0841(3) 0.59675(16) 0.2463(3)
H5B H -0.140(4) 0.574(2) 0.155(5)
H6B H -0.113(4) 0.652(3) 0.267(5)
loop_
_geom_bond_atom_site_label_1
_geom_bond_atom_site_label_2
_geom_bond_site_symmetry_1
_geom_bond_site_symmetry_2
Cd1 N1 1_555 1_555
S1 O1 1_555 1_555
N1 C1 1_555 1_555
O1 Cd1_2 1_555 1_555
O2 S1 1_555 1_555
O3 S1 1_555 1_555
C1 H1 1_555 1_555
C2 S1 1_555 1_555
C3 C2 1_555 1_555
H2 C3 1_555 1_555
C4 C3 1_555 1_555
H3 C4 1_555 1_555
C5 N1 1_555 1_555
H4 C5 1_555 1_555
O4 Cd1 1_555 1_555
H5 O4 1_555 1_555
H6 O4 1_555 1_555
Cd1_3 O1B 1_555 1_555
S1B O1B 1_555 1_555
N1B Cd1 1_555 1_555
O1_2 Cd1 1_555 1_555
O1B_2 Cd1 1_555 1_555
O2B S1B 1_555 1_555
O3B S1B 1_555 1_555
C1B N1B 1_555 1_555
H1B C1B 1_555 1_555
C2B S1B 1_555 1_555
C3B C2B 1_555 1_555
H2B C3B 1_555 1_555
C4B C3B 1_555 1_555
H3B C4B 1_555 1_555
C5B N1B 1_555 1_555
H4B C5B 1_555 1_555
O4B Cd1 1_555 1_555
H5B O4B 1_555 1_555
H6B O4B 1_555 1_555
C1 C2 1_555 1_555
C4 C5 1_555 1_555
C1B C2B 1_555 1_555
C4B C5B 1_555 1_555

#END
