
#######################################################################
#
#                 Cambridge Crystallographic Data Centre
#                                CCDC 
#
#######################################################################
#
# If this CIF has been generated from an entry in the Cambridge 
# Structural Database, then it will include bibliographic, chemical, 
# crystal, experimental, refinement or atomic coordinate data resulting 
# from the CCDC's data processing and validation procedures.
#
#######################################################################

data_QIXPAP
_symmetry_cell_setting           orthorhombic
_symmetry_space_group_name_H-M   'P b c a'
_symmetry_Int_Tables_number      61
_space_group_name_Hall           '-P 2ac 2ab'
loop_
_symmetry_equiv_pos_site_id
_symmetry_equiv_pos_as_xyz
1 x,y,z
2 1/2-x,-y,1/2+z
3 -x,1/2+y,1/2-z
4 1/2+x,1/2-y,-z
5 -x,-y,-z
6 1/2+x,y,1/2-z
7 x,1/2-y,1/2+z
8 1/2-x,1/2+y,z
_cell_length_a                   11.8142(8)
_cell_length_b                   8.9111(7)
_cell_length_c                   14.9705(10)
_cell_angle_alpha                90
_cell_angle_beta                 90
_cell_angle_gamma                90
_cell_volume                     1576.06
loop_
_atom_site_label
_atom_site_type_symbol
_atom_site_fract_x
_atom_site_fract_y
_atom_site_fract_z
Zn1 Zn 0.5000 0.0000 0.5000
O1 O 0.6625(3) 0.0017(4) 0.4416(2)
H1 H 0.6910 0.0850 0.4477
O2 O 0.5136(3) 0.2237(4) 0.5340(2)
O3 O 0.6873(3) 0.2905(4) 0.4901(2)
C1 C 0.3411(5) 0.1656(6) 0.2097(4)
C2 C 0.4391(5) 0.2285(6) 0.2438(4)
C3 C 0.3356(4) 0.0065(7) 0.3386(3)
C4 C 0.5888(4) 0.3201(5) 0.5168(3)
N1 N 0.4308(3) 0.0673(4) 0.3719(3)
C5 C 0.4810(4) 0.1762(6) 0.3235(3)
C6 C 0.5529(4) 0.4835(6) 0.5275(4)
C7 C 0.2892(5) 0.0528(7) 0.2586(4)
H2 H 0.224(5) 0.010(6) 0.243(3)
H3 H 0.549(4) 0.205(6) 0.345(3)
H4 H 0.308(5) 0.199(7) 0.154(4)
H5 H 0.304(4) -0.066(6) 0.376(4)
H6 H 0.476(5) 0.295(6) 0.209(4)
H7 H 0.540(4) 0.492(6) 0.591(4)
H8 H 0.616(4) 0.549(5) 0.514(3)
H9 H 0.694(5) -0.064(7) 0.459(4)
Zn1_2 Zn 0.5000 1.0000 0.5000
O1D O 0.3375(3) -0.0017(4) 0.5584(2)
H1D H 0.3090 -0.0850 0.5523
O2D O 0.4864(3) 0.7763(4) 0.4660(2)
O2D_2 O 0.4864(3) -0.2237(4) 0.4660(2)
O3D O 0.3127(3) 0.7095(4) 0.5099(2)
C1D C 0.6589(5) -0.1656(6) 0.7903(4)
C2D C 0.5609(5) -0.2285(6) 0.7562(4)
C3D C 0.6644(4) -0.0065(7) 0.6614(3)
C4D C 0.4112(4) 0.6799(5) 0.4832(3)
N1D N 0.5692(3) -0.0673(4) 0.6281(3)
C5D C 0.5190(4) -0.1762(6) 0.6765(3)
C6D C 0.4471(4) 0.5165(6) 0.4725(4)
C7D C 0.7108(5) -0.0528(7) 0.7414(4)
H2D H 0.776(5) -0.010(6) 0.757(3)
H3D H 0.451(4) -0.205(6) 0.655(3)
H4D H 0.692(5) -0.199(7) 0.846(4)
H5D H 0.696(4) 0.066(6) 0.624(4)
H6D H 0.524(5) -0.295(6) 0.791(4)
H7D H 0.460(4) 0.508(6) 0.409(4)
H8D H 0.384(4) 0.451(5) 0.486(3)
H9D H 0.306(5) 0.064(7) 0.541(4)
loop_
_geom_bond_atom_site_label_1
_geom_bond_atom_site_label_2
_geom_bond_site_symmetry_1
_geom_bond_site_symmetry_2
Zn1 O1 1_555 1_555
O1 H1 1_555 1_555
O2 Zn1 1_555 1_555
O3 C4 1_555 1_555
C1 C2 1_555 1_555
C2 C5 1_555 1_555
C3 N1 1_555 1_555
C4 O2 1_555 1_555
N1 Zn1 1_555 1_555
C5 N1 1_555 1_555
C6 C4 1_555 1_555
C7 C1 1_555 1_555
H2 C7 1_555 1_555
H3 C5 1_555 1_555
H4 C1 1_555 1_555
H5 C3 1_555 1_555
H6 C2 1_555 1_555
H7 C6 1_555 1_555
H8 C6 1_555 1_555
H9 O1 1_555 1_555
Zn1_2 O2D 1_555 1_555
O1D Zn1 1_555 1_555
H1D O1D 1_555 1_555
O2D C4D 1_555 1_555
O2D_2 Zn1 1_555 1_555
O3D C4D 1_555 1_555
C1D C2D 1_555 1_555
C2D C5D 1_555 1_555
C3D N1D 1_555 1_555
C4D C6D 1_555 1_555
N1D Zn1 1_555 1_555
C5D N1D 1_555 1_555
C6D C6 1_555 1_555
C7D C1D 1_555 1_555
H2D C7D 1_555 1_555
H3D C5D 1_555 1_555
H4D C1D 1_555 1_555
H5D C3D 1_555 1_555
H6D C2D 1_555 1_555
H7D C6D 1_555 1_555
H8D C6D 1_555 1_555
H9D O1D 1_555 1_555
C3 C7 1_555 1_555
C3D C7D 1_555 1_555

#END
