
#######################################################################
#
#                 Cambridge Crystallographic Data Centre
#                                CCDC 
#
#######################################################################
#
# If this CIF has been generated from an entry in the Cambridge 
# Structural Database, then it will include bibliographic, chemical, 
# crystal, experimental, refinement or atomic coordinate data resulting 
# from the CCDC's data processing and validation procedures.
#
#######################################################################

data_QIXPET
_symmetry_cell_setting           triclinic
_symmetry_space_group_name_H-M   'P -1'
_symmetry_Int_Tables_number      2
_space_group_name_Hall           '-P 1'
loop_
_symmetry_equiv_pos_site_id
_symmetry_equiv_pos_as_xyz
1 x,y,z
2 -x,-y,-z
_cell_length_a                   8.759(3)
_cell_length_b                   8.879(3)
_cell_length_c                   9.735(3)
_cell_angle_alpha                79.269(6)
_cell_angle_beta                 63.584(5)
_cell_angle_gamma                86.922(5)
_cell_volume                     665.828
loop_
_atom_site_label
_atom_site_type_symbol
_atom_site_fract_x
_atom_site_fract_y
_atom_site_fract_z
Cu1 Cu 0.36691(10) 0.08450(10) 0.90150(9)
Cl1 Cl 0.1132(2) 0.0034(2) 1.1136(2)
Cl2 Cl 0.4814(2) -0.1536(2) 0.9274(2)
N1 N 0.2612(7) 0.2850(7) 0.8646(6)
N2 N 0.1038(6) 0.2876(6) 0.8740(6)
H1 H 0.0371 0.2078 0.9069
N3 N 0.4439(7) 0.8606(7) 0.3129(6)
N4 N 0.2793(7) 0.8536(7) 0.3353(6)
H2 H 0.2475 0.8816 0.2629
C1 C 0.5995(9) 0.8028(9) 0.4720(8)
H3 H 0.6832 0.8729 0.3877
H4 H 0.5754 0.8327 0.5692
H5 H 0.6426 0.7011 0.4716
C2 C 0.4403(8) 0.8054(7) 0.4522(8)
C3 C 0.2705(8) 0.7600(7) 0.5644(7)
C4 C 0.1737(9) 0.7982(8) 0.4834(8)
C5 C -0.0159(9) 0.7856(10) 0.5348(9)
H6 H -0.0463 0.6834 0.5345
H7 H -0.0764 0.8079 0.6382
H8 H -0.0455 0.8575 0.4644
C6 C 0.2091(9) 0.6976(8) 0.7344(8)
H9 H 0.2834 0.7395 0.7689
H10 H 0.0961 0.7356 0.7898
C7 C 0.2000(8) 0.5261(7) 0.7829(7)
C8 C 0.3228(8) 0.4306(7) 0.8085(7)
C9 C 0.4977(9) 0.4747(8) 0.7826(9)
H11 H 0.5777 0.4717 0.6766
H12 H 0.4973 0.5766 0.8028
H13 H 0.5301 0.4041 0.8518
C10 C 0.0615(8) 0.4285(8) 0.8265(7)
C11 C -0.1096(9) 0.4539(9) 0.8290(9)
H14 H -0.1906 0.3790 0.9096
H15 H -0.1453 0.5549 0.8492
H16 H -0.1028 0.4440 0.7299
Cu1A Cu 0.63309(10) -0.08450(10) 1.09850(9)
Cu1A_2 Cu 0.63309(10) 0.91550(10) 0.09850(9)
Cl2A Cl 0.5186(2) 0.1536(2) 1.0726(2)
N3A N 0.5561(7) 0.1394(7) 0.6871(6)
loop_
_geom_bond_atom_site_label_1
_geom_bond_atom_site_label_2
_geom_bond_site_symmetry_1
_geom_bond_site_symmetry_2
Cu1 Cl1 1_555 1_555
Cl2 Cu1 1_555 1_555
N1 Cu1 1_555 1_555
N2 N1 1_555 1_555
H1 N2 1_555 1_555
N3 N4 1_555 1_555
N4 H2 1_555 1_555
C1 H3 1_555 1_555
H4 C1 1_555 1_555
H5 C1 1_555 1_555
C2 N3 1_555 1_555
C3 C2 1_555 1_555
C4 N4 1_555 1_555
C5 C4 1_555 1_555
H6 C5 1_555 1_555
H7 C5 1_555 1_555
H8 C5 1_555 1_555
C6 C3 1_555 1_555
H9 C6 1_555 1_555
H10 C6 1_555 1_555
C7 C6 1_555 1_555
C8 N1 1_555 1_555
C9 C8 1_555 1_555
H11 C9 1_555 1_555
H12 C9 1_555 1_555
H13 C9 1_555 1_555
C10 N2 1_555 1_555
C11 C10 1_555 1_555
H14 C11 1_555 1_555
H15 C11 1_555 1_555
H16 C11 1_555 1_555
Cu1A Cl2 1_555 1_555
Cu1A_2 N3 1_555 1_555
Cl2A Cu1 1_555 1_555
N3A Cu1 1_555 1_555
C1 C2 1_555 1_555
C3 C4 1_555 1_555
C7 C8 1_555 1_555
C7 C10 1_555 1_555
Cu1A Cl2A 1_555 1_555

#END
