
#######################################################################
#
#                 Cambridge Crystallographic Data Centre
#                                CCDC 
#
#######################################################################
#
# If this CIF has been generated from an entry in the Cambridge 
# Structural Database, then it will include bibliographic, chemical, 
# crystal, experimental, refinement or atomic coordinate data resulting 
# from the CCDC's data processing and validation procedures.
#
#######################################################################

data_QIXPOD
_symmetry_cell_setting           monoclinic
_symmetry_space_group_name_H-M   'P 21/c'
_symmetry_Int_Tables_number      14
_space_group_name_Hall           '-P 2ybc'
loop_
_symmetry_equiv_pos_site_id
_symmetry_equiv_pos_as_xyz
1 x,y,z
2 -x,1/2+y,1/2-z
3 -x,-y,-z
4 x,1/2-y,1/2+z
_cell_length_a                   11.399(3)
_cell_length_b                   11.533(2)
_cell_length_c                   6.9807(15)
_cell_angle_alpha                90
_cell_angle_beta                 101.993(3)
_cell_angle_gamma                90
_cell_volume                     897.684
loop_
_atom_site_label
_atom_site_type_symbol
_atom_site_fract_x
_atom_site_fract_y
_atom_site_fract_z
Ni1 Ni 0.48633(3) 0.53369(2) 0.24668(4)
O1 O 0.2600(2) 0.03105(12) 0.0185(3)
O2 O 0.04285(16) 0.36076(15) -0.1653(3)
N1 N 0.44301(17) 0.37995(14) 0.1875(3)
N2 N 0.46418(17) 0.18588(15) 0.1998(3)
N3 N 0.15129(17) 0.19704(15) -0.0707(3)
N4 N 0.23455(17) 0.38436(14) 0.0017(2)
C1 C 0.51491(19) 0.28771(17) 0.2480(3)
H2 H 0.5935 0.2955 0.3177
C2 C 0.35017(19) 0.21287(15) 0.0998(3)
C3 C 0.2555(2) 0.13741(16) 0.0164(3)
C4 C 0.1381(2) 0.31716(19) -0.0830(3)
C5 C 0.33876(18) 0.33133(15) 0.0931(3)
C6 C 0.0440(2) 0.1291(2) -0.1542(4)
H3 H -0.0174 0.1442 -0.0819
H4 H 0.0635 0.0481 -0.1466
H5 H 0.0157 0.1507 -0.2887
C7 C 0.2229(3) 0.5112(2) -0.0110(4)
H6 H 0.2696 0.5456 0.1054
H7 H 0.1402 0.5323 -0.0236
H8 H 0.2513 0.5384 -0.1232
Ni1A Ni 0.51367(3) 0.03369(2) 0.25332(4)
N2A N 0.53582(17) 0.68588(15) 0.3002(3)
O3 O 0.2120(4) 0.7950(3) 0.9081(7)
H1 H 0.227(5) 0.8648(16) 0.931(7)
loop_
_geom_bond_atom_site_label_1
_geom_bond_atom_site_label_2
_geom_bond_site_symmetry_1
_geom_bond_site_symmetry_2
Ni1 N1 1_555 1_555
O1 C3 1_555 1_555
O2 C4 1_555 1_555
O3 H1 1_555 1_555
N1 C1 1_555 1_555
N2 C1 1_555 1_555
N3 C3 1_555 1_555
N4 C4 1_555 1_555
C1 H2 1_555 1_555
C2 N2 1_555 1_555
C3 C2 1_555 1_555
C4 N3 1_555 1_555
C5 N1 1_555 1_555
C6 N3 1_555 1_555
H3 C6 1_555 1_555
H4 C6 1_555 1_555
H5 C6 1_555 1_555
C7 N4 1_555 1_555
H6 C7 1_555 1_555
H7 C7 1_555 1_555
H8 C7 1_555 1_555
Ni1A N2 1_555 1_555
N2A Ni1 1_555 1_555
N4 C5 1_555 1_555
C2 C5 1_555 1_555

#END
