
#######################################################################
#
#                 Cambridge Crystallographic Data Centre
#                                CCDC 
#
#######################################################################
#
# If this CIF has been generated from an entry in the Cambridge 
# Structural Database, then it will include bibliographic, chemical, 
# crystal, experimental, refinement or atomic coordinate data resulting 
# from the CCDC's data processing and validation procedures.
#
#######################################################################

data_QIXPAQ
_symmetry_cell_setting           triclinic
_symmetry_space_group_name_H-M   'P -1'
_symmetry_Int_Tables_number      2
_space_group_name_Hall           '-P 1'
loop_
_symmetry_equiv_pos_site_id
_symmetry_equiv_pos_as_xyz
1 x,y,z
2 -x,-y,-z
_cell_length_a                   11.650(2)
_cell_length_b                   12.240(2)
_cell_length_c                   19.760(4)
_cell_angle_alpha                72.01(3)
_cell_angle_beta                 77.11(3)
_cell_angle_gamma                83.48(3)
_cell_volume                     2609.38
loop_
_atom_site_label
_atom_site_type_symbol
_atom_site_fract_x
_atom_site_fract_y
_atom_site_fract_z
C1 C 0.2677(4) 0.3890(4) 0.3473(3)
H1 H 0.2295 0.3429 0.3918
C2 C 0.2049(4) 0.4815(5) 0.3084(3)
H2 H 0.1257 0.4953 0.3267
C3 C 0.2588(4) 0.5521(4) 0.2437(3)
H3 H 0.2176 0.6151 0.2180
C4 C 0.3785(4) 0.5276(4) 0.2164(2)
C5 C 0.4368(4) 0.4308(4) 0.2590(2)
C6 C 0.5600(4) 0.3996(4) 0.2333(2)
C7 C 0.6242(4) 0.4680(4) 0.1677(2)
C8 C 0.7410(4) 0.4325(4) 0.1446(3)
H4 H 0.7852 0.4744 0.1008
C9 C 0.7898(4) 0.3348(4) 0.1874(3)
H5 H 0.8677 0.3107 0.1734
C10 C 0.7201(4) 0.2731(4) 0.2520(3)
H6 H 0.7533 0.2073 0.2806
C11 C 0.4456(4) 0.5962(4) 0.1503(2)
C12 C 0.5632(4) 0.5676(4) 0.1291(2)
C13 C 0.5093(4) 0.7229(4) 0.0503(2)
C14 C 0.5211(4) 0.8217(4) -0.0165(2)
C15 C 0.4633(5) 0.8273(5) -0.0725(3)
C16 C 0.4832(6) 0.9162(6) -0.1377(3)
H7 H 0.4439 0.9193 -0.1744
C17 C 0.5597(7) 0.9977(6) -0.1475(4)
H8 H 0.5740 1.0556 -0.1914
C18 C 0.6165(7) 0.9957(5) -0.0930(4)
H9 H 0.6671 1.0531 -0.0994
C19 C 0.8453(4) -0.0312(4) 0.2599(3)
H10 H 0.8076 -0.0763 0.3048
C20 C 0.7986(4) -0.0208(5) 0.1994(3)
H11 H 0.7316 -0.0594 0.2041
C21 C 0.8514(4) 0.0464(5) 0.1329(3)
H12 H 0.8204 0.0547 0.0920
C22 C 0.9531(4) 0.1026(4) 0.1274(2)
C23 C 0.9965(4) 0.0877(4) 0.1911(2)
C24 C 1.0998(4) 0.1464(4) 0.1896(2)
C25 C 1.1581(4) 0.2206(4) 0.1244(2)
C26 C 1.2553(4) 0.2783(4) 0.1264(3)
H13 H 1.2936 0.3304 0.0845
C27 C 1.2924(4) 0.2568(4) 0.1904(3)
H14 H 1.3576 0.2921 0.1925
C28 C 1.2303(4) 0.1807(4) 0.2527(3)
H15 H 1.2557 0.1664 0.2962
C29 C 1.0153(4) 0.1794(4) 0.0621(2)
C30 C 1.1122(4) 0.2354(4) 0.0606(2)
C31 C 1.0810(4) 0.2879(4) -0.0480(2)
C32 C 1.0886(5) 0.3493(5) -0.1258(3)
C33 C 1.0082(6) 0.4400(5) -0.1485(3)
C34 C 1.0222(8) 0.5077(6) -0.2196(4)
H16 H 0.9678 0.5679 -0.2332
C35 C 1.1137(9) 0.4871(8) -0.2689(4)
H17 H 1.1224 0.5334 -0.3168
C36 C 1.1967(8) 0.3970(9) -0.2499(4)
H18 H 1.2594 0.3820 -0.2848
C37 C 1.1835(6) 0.3308(6) -0.1783(3)
C38 C 0.6718(4) 0.2908(4) 0.4323(2)
C39 C 0.7719(4) 0.3257(4) 0.4569(2)
C40 C 0.7510(4) 0.4149(4) 0.4883(3)
H19 H 0.6808 0.4592 0.4871
C41 C 0.8342(5) 0.4380(4) 0.5213(3)
H20 H 0.8235 0.5019 0.5384
C42 C 0.9342(5) 0.3652(4) 0.5289(3)
H21 H 0.9851 0.3746 0.5567
C43 C 0.9586(4) 0.2787(4) 0.4954(3)
C44 C 0.8796(4) 0.2622(3) 0.4559(2)
C45 C 0.9156(4) 0.1851(4) 0.4072(2)
C46 C 0.4552(4) 0.0050(4) 0.3714(2)
C47 C 0.4578(4) -0.1221(4) 0.3809(2)
C48 C 0.5512(4) -0.1932(4) 0.4062(2)
C49 C 0.5648(4) -0.3063(4) 0.4029(3)
H22 H 0.6255 -0.3545 0.4211
C50 C 0.4882(5) -0.3477(4) 0.3725(3)
H23 H 0.5023 -0.4202 0.3656
C51 C 0.3909(4) -0.2799(4) 0.3528(3)
H24 H 0.3375 -0.3088 0.3349
C52 C 0.3718(4) -0.1690(4) 0.3593(2)
C53 C 0.2531(4) -0.1096(4) 0.3549(2)
C54 C 1.0622(4) 0.1942(4) 0.5088(3)
C55 C 0.6295(4) -0.1521(4) 0.4438(2)
C56 C 0.5974(5) 0.9077(5) -0.0290(3)
N1 N 0.6083(3) 0.3036(3) 0.2747(2)
N2 N 0.3797(3) 0.3643(3) 0.3232(2)
N3 N 0.4115(3) 0.6938(3) 0.0996(2)
N4 N 0.6021(3) 0.6504(3) 0.0658(2)
H25 H 0.6727 0.6552 0.0405
N5 N 0.9418(3) 0.0207(3) 0.2563(2)
N6 N 1.1372(3) 0.1280(3) 0.2528(2)
N7 N 0.9959(4) 0.2136(4) -0.0076(2)
H26 H 0.9408 0.1923 -0.0227
N8 N 1.1537(3) 0.3033(4) -0.0089(2)
O1 O 0.6690(3) 0.1856(3) 0.43457(17)
O2 O 0.5936(3) 0.3635(3) 0.4120(2)
O3 O 0.9181(3) 0.0760(3) 0.43734(18)
O4 O 0.9425(3) 0.2308(3) 0.34216(19)
O5 O 0.4256(3) 0.0415(3) 0.42733(18)
O6 O 0.4851(4) 0.0701(3) 0.3097(2)
O7 O 0.2145(3) -0.0409(3) 0.39381(17)
O8 O 0.1913(3) -0.1314(3) 0.3175(2)
O9 O 1.1262(3) 0.1640(3) 0.45712(18)
O10 O 1.0752(3) 0.1554(3) 0.57418(18)
O11 O 0.6695(3) -0.0535(3) 0.41532(18)
O12 O 0.6468(3) -0.2195(3) 0.50395(17)
Cd1 Cd 0.49283(3) 0.21986(3) 0.389829(17)
Cd2 Cd 0.75005(3) -0.01110(3) 0.497670(17)
Cd3 Cd 1.03250(3) 0.00140(3) 0.353834(17)
F1 F 1.2661(4) 0.2440(4) -0.1570(2)
F2 F 0.6572(3) 0.9064(3) 0.02416(19)
Cl1 Cl 0.8939(2) 0.4718(2) -0.08553(14)
Cl2 Cl 0.3745(2) 0.72228(19) -0.06467(11)
O5A O 0.5744(3) -0.0415(3) 0.57267(18)
O7_2 O 1.2145(3) -0.0409(3) 0.39381(17)
O7A O 0.7855(3) 0.0409(3) 0.60619(17)
O8_2 O 1.1913(3) -0.1314(3) 0.3175(2)
O9A O 0.8738(3) -0.1640(3) 0.54288(18)
O10A O 0.9248(3) -0.1554(3) 0.42582(18)
O12A O 0.3532(3) 0.2195(3) 0.49605(17)
Cd1A Cd 0.50717(3) -0.21986(3) 0.610171(17)
Cd2A Cd 0.24995(3) 0.01110(3) 0.502330(17)
Cd2A_2 Cd 1.24995(3) 0.01110(3) 0.502330(17)
Cd3_2 Cd 0.03250(3) 0.00140(3) 0.353834(17)
Cd3A Cd 0.96750(3) -0.00140(3) 0.646166(17)
O13 O 0.8227(4) 0.1857(4) -0.0767(3)
O14 O 0.0907(6) -0.2071(6) 0.2248(4)
O15 O 1.0863(17) 0.2916(14) 0.6607(9)
loop_
_geom_bond_atom_site_label_1
_geom_bond_atom_site_label_2
_geom_bond_site_symmetry_1
_geom_bond_site_symmetry_2
C1 H1 1_555 1_555
C2 C1 1_555 1_555
H2 C2 1_555 1_555
C3 C2 1_555 1_555
H3 C3 1_555 1_555
C4 C3 1_555 1_555
C5 C4 1_555 1_555
C6 C5 1_555 1_555
C7 C6 1_555 1_555
C8 C7 1_555 1_555
H4 C8 1_555 1_555
C9 C8 1_555 1_555
H5 C9 1_555 1_555
C10 C9 1_555 1_555
H6 C10 1_555 1_555
C11 C4 1_555 1_555
C12 C7 1_555 1_555
C13 C14 1_555 1_555
C14 C15 1_555 1_555
C15 C16 1_555 1_555
C16 H7 1_555 1_555
C17 C16 1_555 1_555
H8 C17 1_555 1_555
C18 C17 1_555 1_555
H9 C18 1_555 1_555
C19 H10 1_555 1_555
C20 C19 1_555 1_555
H11 C20 1_555 1_555
C21 C20 1_555 1_555
H12 C21 1_555 1_555
C22 C21 1_555 1_555
C23 C22 1_555 1_555
C24 C23 1_555 1_555
C25 C24 1_555 1_555
C26 C25 1_555 1_555
H13 C26 1_555 1_555
C27 C26 1_555 1_555
H14 C27 1_555 1_555
C28 C27 1_555 1_555
H15 C28 1_555 1_555
C29 C22 1_555 1_555
C30 C25 1_555 1_555
C31 C32 1_555 1_555
C32 C33 1_555 1_555
C33 C34 1_555 1_555
C34 H16 1_555 1_555
C35 C34 1_555 1_555
H17 C35 1_555 1_555
C36 C35 1_555 1_555
H18 C36 1_555 1_555
C37 C32 1_555 1_555
C38 C39 1_555 1_555
C39 C40 1_555 1_555
C40 H19 1_555 1_555
C41 C40 1_555 1_555
H20 C41 1_555 1_555
C42 C41 1_555 1_555
H21 C42 1_555 1_555
C43 C42 1_555 1_555
C44 C39 1_555 1_555
C45 C44 1_555 1_555
C46 C47 1_555 1_555
C47 C48 1_555 1_555
C48 C49 1_555 1_555
C49 H22 1_555 1_555
C50 C49 1_555 1_555
H23 C50 1_555 1_555
C51 C50 1_555 1_555
H24 C51 1_555 1_555
C52 C47 1_555 1_555
C53 C52 1_555 1_555
C54 C43 1_555 1_555
C55 C48 1_555 1_555
C56 C14 1_555 1_555
N1 C6 1_555 1_555
N2 C1 1_555 1_555
N3 C11 1_555 1_555
N4 C12 1_555 1_555
H25 N4 1_555 1_555
N5 C19 1_555 1_555
N6 C24 1_555 1_555
N7 C29 1_555 1_555
H26 N7 1_555 1_555
N8 C30 1_555 1_555
O1 C38 1_555 1_555
O2 C38 1_555 1_555
O3 C45 1_555 1_555
O4 C45 1_555 1_555
O5 C46 1_555 1_555
O6 C46 1_555 1_555
O7 C53 1_555 1_555
O8 C53 1_555 1_555
O9 C54 1_555 1_555
O10 C54 1_555 1_555
O11 C55 1_555 1_555
O12 C55 1_555 1_555
Cd1 N1 1_555 1_555
Cd2 O1 1_555 1_555
Cd3 N5 1_555 1_555
F1 C37 1_555 1_555
F2 C56 1_555 1_555
Cl1 C33 1_555 1_555
Cl2 C15 1_555 1_555
O5A Cd2 1_555 1_555
O7_2 Cd3 1_555 1_555
O7A Cd2 1_555 1_555
O8_2 Cd3 1_555 1_555
O9A Cd2 1_555 1_555
O10A Cd3 1_555 1_555
O12A Cd1 1_555 1_555
Cd1A O12 1_555 1_555
Cd2A O5 1_555 1_555
Cd2A_2 O9 1_555 1_555
Cd3_2 O7 1_555 1_555
Cd3A O10 1_555 1_555
C5 N2 1_555 1_555
C10 N1 1_555 1_555
C11 C12 1_555 1_555
C13 N3 1_555 1_555
C13 N4 1_555 1_555
C18 C56 1_555 1_555
C23 N5 1_555 1_555
C28 N6 1_555 1_555
C29 C30 1_555 1_555
C31 N7 1_555 1_555
C31 N8 1_555 1_555
C36 C37 1_555 1_555
C43 C44 1_555 1_555
C51 C52 1_555 1_555
N2 Cd1 1_555 1_555
N6 Cd3 1_555 1_555
O1 Cd1 1_555 1_555
O2 Cd1 1_555 1_555
O3 Cd2 1_555 1_555
O3 Cd3 1_555 1_555
O5 Cd1 1_555 1_555
O6 Cd1 1_555 1_555
O7 Cd2A 1_555 1_555
O8 Cd3_2 1_555 1_555
O11 Cd2 1_555 1_555
O5A Cd1A 1_555 1_555
O7_2 Cd2A_2 1_555 1_555
O7A Cd3A 1_555 1_555

#END
