
#######################################################################
#
#                 Cambridge Crystallographic Data Centre
#                                CCDC 
#
#######################################################################
#
# If this CIF has been generated from an entry in the Cambridge 
# Structural Database, then it will include bibliographic, chemical, 
# crystal, experimental, refinement or atomic coordinate data resulting 
# from the CCDC's data processing and validation procedures.
#
#######################################################################

data_QIXSUN
_symmetry_cell_setting           monoclinic
_symmetry_space_group_name_H-M   'P 21/c'
_symmetry_Int_Tables_number      14
_space_group_name_Hall           '-P 2ybc'
loop_
_symmetry_equiv_pos_site_id
_symmetry_equiv_pos_as_xyz
1 x,y,z
2 -x,1/2+y,1/2-z
3 -x,-y,-z
4 x,1/2-y,1/2+z
_cell_length_a                   20.831(4)
_cell_length_b                   21.372(4)
_cell_length_c                   45.279(12)
_cell_angle_alpha                90
_cell_angle_beta                 117.11(2)
_cell_angle_gamma                90
_cell_volume                     17943.5
loop_
_atom_site_label
_atom_site_type_symbol
_atom_site_fract_x
_atom_site_fract_y
_atom_site_fract_z
C1 C 0.9068(5) 0.8180(5) 0.0882(2)
C2 C 0.8601(5) 0.7111(5) 0.0433(3)
C3 C 0.7418(6) 0.7579(5) 0.0389(3)
C4 C 0.7768(5) 0.8048(5) 0.0951(3)
C5 C 0.7823(5) 0.6574(5) 0.0859(2)
C6 C 0.8778(6) 0.7370(5) 0.1372(3)
C7 C 0.9368(7) 0.6840(5) 0.1041(3)
C8 C 0.3567(5) 0.5231(4) 0.0896(2)
C9 C 0.4551(5) 0.4355(5) 0.1519(2)
C10 C 0.4956(5) 0.4526(4) 0.1077(2)
C11 C 0.5053(5) 0.5701(4) 0.1022(2)
C12 C 0.5676(4) 0.5264(4) 0.1735(2)
C13 C 0.4641(5) 0.6231(5) 0.1407(2)
C14 C 0.4067(5) 0.5368(5) 0.1604(2)
C15 C 0.2770(5) 0.9923(5) 0.1701(2)
C16 C 0.3228(5) 0.8956(5) 0.1385(3)
C17 C 0.2017(5) 0.9385(4) 0.1007(2)
C18 C 0.2120(6) 1.0596(6) 0.1034(3)
C19 C 0.3159(4) 0.9908(4) 0.0850(2)
C20 C 0.3410(5) 1.0849(5) 0.1453(2)
C21 C 0.4139(5) 0.9846(4) 0.1562(2)
C22 C 0.5254(6) 0.6721(6) -0.0180(3)
H1 H 0.4784 0.6846 -0.0212
H2 H 0.5208 0.6461 -0.0361
H3 H 0.5532 0.7086 -0.0170
C23 C 0.5631(5) 0.6359(5) 0.0142(2)
C24 C 0.5736(7) 0.7279(5) 0.0459(3)
H4 H 0.5614 0.7580 0.0294
C25 C 0.5880(7) 0.7401(5) 0.0820(3)
H5 H 0.5592 0.7656 0.0877
C26 C 0.6630(8) 0.7117(5) 0.1392(3)
H6 H 0.6419 0.7406 0.1474
C27 C 0.7167(8) 0.6613(6) 0.1597(3)
H7 H 0.7612 0.6683 0.1779
C28 C 0.7361(6) 0.5488(5) 0.1594(2)
H8 H 0.7825 0.5512 0.1768
C29 C 0.7005(7) 0.4900(5) 0.1403(3)
H9 H 0.6981 0.4520 0.1498
C30 C 0.6590(5) 0.4597(6) 0.0834(3)
C31 C 0.6721(6) 0.3915(5) 0.0895(3)
H10 H 0.7063 0.3780 0.0820
H11 H 0.6276 0.3692 0.0775
H12 H 0.6909 0.3832 0.1128
C32 C 0.6259(5) 0.4811(4) 0.0484(2)
C33 C 0.6106(6) 0.4449(6) 0.0203(3)
H13 H 0.6236 0.4029 0.0228
C34 C 0.5774(6) 0.4697(6) -0.0102(2)
H14 H 0.5655 0.4447 -0.0288
C35 C 0.5610(5) 0.5324(6) -0.0139(3)
H15 H 0.5388 0.5508 -0.0348
C36 C 0.5786(5) 0.5675(5) 0.0147(2)
C37 C 0.0522(8) 0.5676(7) -0.0359(4)
H16 H 0.0627 0.5533 -0.0533
H17 H 0.0605 0.6118 -0.0329
H18 H 0.0027 0.5588 -0.0416
C38 C 0.0995(6) 0.5349(6) -0.0047(3)
C39 C 0.1699(7) 0.4778(8) -0.0264(3)
H19 H 0.1410 0.4830 -0.0490
C40 C 0.2429(7) 0.4508(6) -0.0108(3)
H20 H 0.2801 0.4629 -0.0156
C41 C 0.3219(6) 0.3754(5) 0.0329(4)
H21 H 0.3615 0.3804 0.0288
C42 C 0.3204(6) 0.3401(5) 0.0597(4)
H22 H 0.3281 0.2971 0.0623
C43 C 0.2815(7) 0.3450(6) 0.1039(3)
H23 H 0.2793 0.3019 0.1058
C44 C 0.2610(7) 0.3931(7) 0.1225(3)
H24 H 0.2783 0.3952 0.1454
C45 C 0.1695(8) 0.4723(7) 0.1048(4)
C46 C 0.1732(10) 0.4769(11) 0.1394(4)
H25 H 0.1386 0.4489 0.1407
H26 H 0.1626 0.5190 0.1432
H27 H 0.2207 0.4657 0.1559
C47 C 0.1205(6) 0.5140(6) 0.0779(4)
C48 C 0.0719(7) 0.5524(7) 0.0817(4)
H28 H 0.0683 0.5543 0.1015
C49 C 0.0282(8) 0.5883(8) 0.0539(5)
H29 H -0.0061 0.6148 0.0549
C50 C 0.0350(6) 0.5851(6) 0.0256(5)
H30 H 0.0053 0.6092 0.0073
C51 C 0.0871(5) 0.5453(6) 0.0240(4)
C52 C 0.2345(8) 0.6222(7) 0.1224(5)
H31 H 0.1939 0.6295 0.1265
H32 H 0.2568 0.5832 0.1322
H33 H 0.2185 0.6205 0.0989
C53 C 0.2858(7) 0.6722(6) 0.1365(4)
C54 C 0.2912(8) 0.7102(7) 0.0880(4)
H34 H 0.2645 0.6782 0.0739
C55 C 0.3181(9) 0.7667(8) 0.0765(4)
H35 H 0.2895 0.7905 0.0579
C56 C 0.4298(9) 0.8355(7) 0.0959(4)
H36 H 0.4102 0.8643 0.0786
C57 C 0.5033(8) 0.8422(6) 0.1248(3)
H37 H 0.5455 0.8492 0.1230
C58 C 0.5641(10) 0.8268(8) 0.1855(4)
H38 H 0.6086 0.8247 0.1854
C59 C 0.5556(8) 0.8209(7) 0.2150(4)
H39 H 0.5852 0.8383 0.2356
C60 C 0.4843(9) 0.7610(7) 0.2322(4)
C61 C 0.5238(10) 0.7726(8) 0.2661(4)
H40 H 0.5691 0.7915 0.2705
H41 H 0.5323 0.7340 0.2781
H42 H 0.4971 0.8005 0.2731
C62 C 0.4145(9) 0.7283(8) 0.2184(5)
C63 C 0.3855(10) 0.7014(8) 0.2395(5)
H43 H 0.4116 0.7051 0.2624
C64 C 0.3223(10) 0.6718(9) 0.2264(5)
H44 H 0.3016 0.6578 0.2396
C65 C 0.2859(10) 0.6619(8) 0.1897(4)
H45 H 0.2413 0.6420 0.1797
C66 C 0.3167(9) 0.6813(8) 0.1710(4)
C67 C 0.8620(10) 0.6162(6) 0.2536(4)
H46 H 0.8731 0.6586 0.2552
C68 C 0.9074(7) 0.5729(8) 0.2498(4)
H47 H 0.9490 0.5863 0.2489
C69 C 0.8908(6) 0.5095(7) 0.2473(3)
H48 H 0.9212 0.4805 0.2448
C70 C 0.8287(7) 0.4894(6) 0.2487(3)
N1 N 0.7833(5) 0.5328(8) 0.2525(2)
C71 C 0.7999(9) 0.5961(7) 0.2549(3)
C72 C 0.7402(14) 0.7089(10) 0.2519(6)
H49 H 0.7383 0.7229 0.2314
H50 H 0.7817 0.7265 0.2702
H51 H 0.6974 0.7220 0.2531
C73 C 0.7453(11) 0.6380(10) 0.2536(6)
C74 C 0.8583(14) 0.4045(13) 0.2415(6)
C75 C 0.7913(10) 0.4278(7) 0.2413(5)
C76 C 0.7100(12) 0.3674(13) 0.2428(6)
H52 H 0.7266 0.3311 0.2372
C77 C 0.6524(12) 0.3712(12) 0.2541(6)
H53 H 0.6519 0.3431 0.2697
C78 C 0.6280(10) 0.6287(11) 0.2607(5)
H54 H 0.6367 0.6582 0.2773
C79 C 0.5542(10) 0.6014(10) 0.2448(5)
H55 H 0.5077 0.6133 0.2297
C80 C 0.5350(11) 0.5019(8) 0.2502(5)
H56 H 0.4872 0.5137 0.2373
C81 C 0.5582(10) 0.4346(8) 0.2573(5)
H57 H 0.5448 0.4086 0.2700
C82 C 1.0019(7) 1.0990(7) 0.0875(4)
H58 H 0.9556 1.1108 0.0855
H59 H 1.0105 1.1207 0.0711
H60 H 1.0387 1.1097 0.1092
C83 C 1.0033(6) 1.0288(7) 0.0822(4)
C84 C 1.0700(7) 1.0071(7) 0.1388(3)
H61 H 1.0831 1.0475 0.1469
C85 C 1.0842(7) 0.9509(6) 0.1597(3)
H62 H 1.0737 0.9456 0.1774
C86 C 1.1331(8) 0.8474(9) 0.1659(3)
H63 H 1.1324 0.8409 0.1860
C87 C 1.1510(7) 0.7993(7) 0.1465(3)
H64 H 1.1941 0.7773 0.1544
C88 C 1.1031(7) 0.7575(5) 0.0881(4)
H65 H 1.1454 0.7358 0.0930
C89 C 1.0414(7) 0.7611(6) 0.0544(4)
H66 H 1.0207 0.7273 0.0403
C90 C 0.9766(6) 0.8492(8) 0.0175(3)
C91 C 0.9510(8) 0.8106(8) -0.0138(3)
H67 H 0.9603 0.7671 -0.0081
H68 H 0.9762 0.8233 -0.0260
H69 H 0.9001 0.8168 -0.0272
C92 C 0.9593(6) 0.9174(7) 0.0172(3)
C93 C 0.9166(7) 0.9516(6) -0.0154(3)
H70 H 0.9009 0.9348 -0.0365
C94 C 0.9050(7) 1.0118(6) -0.0082(3)
H71 H 0.8759 1.0357 -0.0266
C95 C 0.9278(6) 1.0410(7) 0.0200(3)
H72 H 0.9170 1.0829 0.0211
C96 C 0.9698(5) 1.0060(6) 0.0487(4)
C97 C 0.5873(7) 1.0304(7) 0.1332(3)
H73 H 0.5796 1.0590 0.1476
H74 H 0.6321 1.0401 0.1330
H75 H 0.5891 0.9884 0.1411
C98 C 0.5275(5) 1.0359(5) 0.0991(3)
C99 C 0.4730(7) 1.1222(5) 0.1142(3)
H76 H 0.5029 1.1241 0.1369
C100 C 0.4115(6) 1.1663(4) 0.0942(3)
H77 H 0.4149 1.2097 0.0952
C101 C 0.2878(6) 1.1715(4) 0.0517(3)
H78 H 0.2839 1.2142 0.0545
C102 C 0.2318(6) 1.1317(5) 0.0232(3)
H79 H 0.1839 1.1258 0.0187
C103 C 0.2240(6) 1.0550(5) -0.0185(3)
H80 H 0.1772 1.0436 -0.0233
C104 C 0.2681(7) 1.0257(5) -0.0333(3)
H81 H 0.2524 1.0187 -0.0558
C105 C 0.3793(7) 0.9677(5) -0.0107(3)
C106 C 0.3634(9) 0.9297(5) -0.0399(3)
H82 H 0.3431 0.8905 -0.0381
H83 H 0.4071 0.9222 -0.0416
H84 H 0.3296 0.9513 -0.0594
C107 C 0.4495(6) 0.9583(4) 0.0188(3)
C108 C 0.5033(8) 0.9161(5) 0.0212(4)
H85 H 0.4958 0.8903 0.0034
C109 C 0.5646(8) 0.9130(6) 0.0489(4)
H86 H 0.6002 0.8854 0.0501
C110 C 0.5771(6) 0.9489(5) 0.0757(3)
H87 H 0.6200 0.9458 0.0952
C111 C 0.5219(6) 0.9920(4) 0.0728(3)
Mn1 Mn 0.64131(8) 0.60335(6) 0.08914(3)
Mn2 Mn 0.21310(7) 0.44535(7) 0.04961(4)
Mn3 Mn 0.40949(12) 0.76366(8) 0.14877(8)
Mn4 Mn 0.67915(7) 0.51097(8) 0.25153(3)
Mn5 Mn 1.04714(7) 0.88859(7) 0.09139(3)
Mn6 Mn 0.37548(7) 1.06427(6) 0.04126(3)
Mo1 Mo 0.83918(4) 0.73908(4) 0.083915(19)
Mo2 Mo 0.46352(4) 0.52438(3) 0.131653(17)
Mo3 Mo 0.29754(4) 0.99223(3) 0.128095(17)
N2 N 0.9461(4) 0.8585(4) 0.0928(2)
N3 N 0.8687(5) 0.6977(5) 0.0207(2)
N4 N 0.6892(5) 0.7684(5) 0.0154(2)
N5 N 0.7472(5) 0.8436(5) 0.1010(3)
N6 N 0.7500(4) 0.6157(4) 0.08868(19)
N7 N 0.8966(7) 0.7339(5) 0.1648(3)
N8 N 0.9928(6) 0.6597(6) 0.1157(3)
N9 N 0.3009(4) 0.5199(4) 0.0681(2)
N10 N 0.4529(6) 0.3896(6) 0.1633(3)
N11 N 0.5126(5) 0.4143(4) 0.0943(2)
N12 N 0.5322(4) 0.5948(4) 0.08811(18)
N13 N 0.6216(4) 0.5296(5) 0.19671(19)
N14 N 0.4695(5) 0.6762(4) 0.1474(3)
N15 N 0.3757(5) 0.5412(5) 0.1763(2)
N16 N 0.2677(5) 0.9940(6) 0.1929(2)
N17 N 0.3392(5) 0.8449(4) 0.1455(3)
N18 N 0.1497(4) 0.9101(4) 0.08728(18)
N19 N 0.1685(6) 1.0961(5) 0.0917(3)
N20 N 0.3257(4) 0.9918(3) 0.06156(19)
N21 N 0.3623(5) 1.1343(4) 0.1554(2)
N22 N 0.4757(4) 0.9806(4) 0.1704(2)
N23 N 0.6097(4) 0.5424(4) 0.04426(18)
N24 N 0.6705(4) 0.5018(4) 0.1046(2)
N25 N 0.6868(5) 0.6006(4) 0.1462(2)
N26 N 0.6501(5) 0.7080(4) 0.1055(2)
N27 N 0.5822(4) 0.6624(3) 0.04219(19)
N28 N 0.1282(5) 0.5100(5) 0.0506(3)
N29 N 0.1504(5) 0.4951(4) -0.0008(2)
N30 N 0.2493(5) 0.4025(4) 0.0130(2)
N31 N 0.3058(5) 0.3785(4) 0.0820(3)
N32 N 0.2084(5) 0.4363(5) 0.0977(2)
N33 N 0.3753(9) 0.7137(6) 0.1851(5)
N34 N 0.3105(7) 0.7109(6) 0.1224(3)
N35 N 0.3918(7) 0.7784(6) 0.0975(4)
N36 N 0.4996(6) 0.8361(4) 0.1570(3)
N37 N 0.4940(7) 0.7837(5) 0.2071(3)
N38 N 0.7307(11) 0.4201(8) 0.2422(4)
N39 N 0.5919(7) 0.5460(6) 0.2649(3)
N40 N 0.6047(10) 0.4133(9) 0.2421(4)
N41 N 0.6838(11) 0.6161(9) 0.2544(5)
N42 N 0.9840(4) 0.9428(6) 0.0449(2)
N43 N 1.0330(5) 0.9909(5) 0.1044(3)
N44 N 1.1173(5) 0.9055(5) 0.1475(2)
N45 N 1.0903(5) 0.7923(4) 0.1135(3)
N46 N 1.0188(5) 0.8250(5) 0.0471(3)
N47 N 0.4614(5) 0.9951(4) 0.0446(2)
N48 N 0.4769(4) 1.0741(4) 0.0903(2)
N49 N 0.3474(4) 1.1323(3) 0.0737(2)
N50 N 0.2664(4) 1.1050(4) 0.0048(2)
N51 N 0.3388(5) 1.0097(4) -0.0072(2)
O1 O 0.1300(4) 0.3668(4) 0.03235(19)
O2 O 0.4211(3) 1.1450(3) 0.02312(16)
Mn4A Mn 0.32085(7) 1.01097(8) 0.24847(3)
Mn5_2 Mn 0.04714(7) 0.88859(7) 0.09139(3)
N16A N 0.7323(5) 0.4940(6) 0.3071(2)
N18_2 N 1.1497(4) 0.9101(4) 0.08728(18)
O3 O 0.5517(4) 0.1990(4) 0.0641(2)
O4 O 0.8710(5) 0.9366(4) 0.1194(2)
O5 O 0.8430(6) 0.1614(5) 0.9714(3)
O6 O 0.2645(6) 0.8851(4) 0.0143(2)
loop_
_geom_bond_atom_site_label_1
_geom_bond_atom_site_label_2
_geom_bond_site_symmetry_1
_geom_bond_site_symmetry_2
C1 Mo1 1_555 1_555
C2 Mo1 1_555 1_555
C3 Mo1 1_555 1_555
C4 Mo1 1_555 1_555
C5 Mo1 1_555 1_555
C6 Mo1 1_555 1_555
C7 Mo1 1_555 1_555
C8 Mo2 1_555 1_555
C9 Mo2 1_555 1_555
C10 Mo2 1_555 1_555
C11 Mo2 1_555 1_555
C12 Mo2 1_555 1_555
C13 Mo2 1_555 1_555
C14 Mo2 1_555 1_555
C15 Mo3 1_555 1_555
C16 Mo3 1_555 1_555
C17 Mo3 1_555 1_555
C18 Mo3 1_555 1_555
C19 Mo3 1_555 1_555
C20 Mo3 1_555 1_555
C21 Mo3 1_555 1_555
C22 H1 1_555 1_555
H2 C22 1_555 1_555
H3 C22 1_555 1_555
C23 C22 1_555 1_555
C24 H4 1_555 1_555
C25 C24 1_555 1_555
H5 C25 1_555 1_555
C26 H6 1_555 1_555
C27 C26 1_555 1_555
H7 C27 1_555 1_555
C28 H8 1_555 1_555
C29 C28 1_555 1_555
H9 C29 1_555 1_555
C30 C31 1_555 1_555
C31 H10 1_555 1_555
H11 C31 1_555 1_555
H12 C31 1_555 1_555
C32 C30 1_555 1_555
C33 C32 1_555 1_555
H13 C33 1_555 1_555
C34 C33 1_555 1_555
H14 C34 1_555 1_555
C35 C34 1_555 1_555
H15 C35 1_555 1_555
C36 C23 1_555 1_555
C37 H16 1_555 1_555
H17 C37 1_555 1_555
H18 C37 1_555 1_555
C38 C37 1_555 1_555
C39 H19 1_555 1_555
C40 C39 1_555 1_555
H20 C40 1_555 1_555
C41 H21 1_555 1_555
C42 C41 1_555 1_555
H22 C42 1_555 1_555
C43 H23 1_555 1_555
C44 C43 1_555 1_555
H24 C44 1_555 1_555
C45 C46 1_555 1_555
C46 H25 1_555 1_555
H26 C46 1_555 1_555
H27 C46 1_555 1_555
C47 C45 1_555 1_555
C48 C47 1_555 1_555
H28 C48 1_555 1_555
C49 C48 1_555 1_555
H29 C49 1_555 1_555
C50 C49 1_555 1_555
H30 C50 1_555 1_555
C51 C38 1_555 1_555
C52 H31 1_555 1_555
H32 C52 1_555 1_555
H33 C52 1_555 1_555
C53 C52 1_555 1_555
C54 H34 1_555 1_555
C55 C54 1_555 1_555
H35 C55 1_555 1_555
C56 H36 1_555 1_555
C57 C56 1_555 1_555
H37 C57 1_555 1_555
C58 H38 1_555 1_555
C59 C58 1_555 1_555
H39 C59 1_555 1_555
C60 C61 1_555 1_555
C61 H40 1_555 1_555
H41 C61 1_555 1_555
H42 C61 1_555 1_555
C62 C60 1_555 1_555
C63 C62 1_555 1_555
H43 C63 1_555 1_555
C64 C63 1_555 1_555
H44 C64 1_555 1_555
C65 C64 1_555 1_555
H45 C65 1_555 1_555
C66 C53 1_555 1_555
C67 H46 1_555 1_555
C68 C67 1_555 1_555
H47 C68 1_555 1_555
C69 C68 1_555 1_555
H48 C69 1_555 1_555
C70 C69 1_555 1_555
N1 C70 1_555 1_555
C71 C67 1_555 1_555
C72 H49 1_555 1_555
H50 C72 1_555 1_555
H51 C72 1_555 1_555
C73 C71 1_555 1_555
C74 C75 1_555 1_555
C75 C70 1_555 1_555
C76 H52 1_555 1_555
C77 C76 1_555 1_555
H53 C77 1_555 1_555
C78 H54 1_555 1_555
C79 C78 1_555 1_555
H55 C79 1_555 1_555
C80 H56 1_555 1_555
C81 C80 1_555 1_555
H57 C81 1_555 1_555
C82 H58 1_555 1_555
H59 C82 1_555 1_555
H60 C82 1_555 1_555
C83 C82 1_555 1_555
C84 H61 1_555 1_555
C85 C84 1_555 1_555
H62 C85 1_555 1_555
C86 H63 1_555 1_555
C87 C86 1_555 1_555
H64 C87 1_555 1_555
C88 H65 1_555 1_555
C89 C88 1_555 1_555
H66 C89 1_555 1_555
C90 C91 1_555 1_555
C91 H67 1_555 1_555
H68 C91 1_555 1_555
H69 C91 1_555 1_555
C92 C90 1_555 1_555
C93 C92 1_555 1_555
H70 C93 1_555 1_555
C94 C93 1_555 1_555
H71 C94 1_555 1_555
C95 C94 1_555 1_555
H72 C95 1_555 1_555
C96 C83 1_555 1_555
C97 H73 1_555 1_555
H74 C97 1_555 1_555
H75 C97 1_555 1_555
C98 C97 1_555 1_555
C99 H76 1_555 1_555
C100 C99 1_555 1_555
H77 C100 1_555 1_555
C101 H78 1_555 1_555
C102 C101 1_555 1_555
H79 C102 1_555 1_555
C103 H80 1_555 1_555
C104 C103 1_555 1_555
H81 C104 1_555 1_555
C105 C106 1_555 1_555
C106 H82 1_555 1_555
H83 C106 1_555 1_555
H84 C106 1_555 1_555
C107 C105 1_555 1_555
C108 C107 1_555 1_555
H85 C108 1_555 1_555
C109 C108 1_555 1_555
H86 C109 1_555 1_555
C110 C109 1_555 1_555
H87 C110 1_555 1_555
C111 C98 1_555 1_555
Mn1 N6 1_555 1_555
Mn2 N9 1_555 1_555
Mn3 N14 1_555 1_555
Mn4 N1 1_555 1_555
Mn5 N2 1_555 1_555
Mn6 N20 1_555 1_555
N2 C1 1_555 1_555
N3 C2 1_555 1_555
N4 C3 1_555 1_555
N5 C4 1_555 1_555
N6 C5 1_555 1_555
N7 C6 1_555 1_555
N8 C7 1_555 1_555
N9 C8 1_555 1_555
N10 C9 1_555 1_555
N11 C10 1_555 1_555
N12 C11 1_555 1_555
N13 C12 1_555 1_555
N14 C13 1_555 1_555
N15 C14 1_555 1_555
N16 C15 1_555 1_555
N17 C16 1_555 1_555
N18 C17 1_555 1_555
N19 C18 1_555 1_555
N20 C19 1_555 1_555
N21 C20 1_555 1_555
N22 C21 1_555 1_555
N23 C32 1_555 1_555
N24 C29 1_555 1_555
N25 C27 1_555 1_555
N26 C25 1_555 1_555
N27 C23 1_555 1_555
N28 C47 1_555 1_555
N29 C38 1_555 1_555
N30 C40 1_555 1_555
N31 C42 1_555 1_555
N32 C44 1_555 1_555
N33 C62 1_555 1_555
N34 C53 1_555 1_555
N35 C55 1_555 1_555
N36 C57 1_555 1_555
N37 C59 1_555 1_555
N38 C75 1_555 1_555
N39 C79 1_555 1_555
N40 C77 1_555 1_555
N41 C73 1_555 1_555
N42 C92 1_555 1_555
N43 C83 1_555 1_555
N44 C85 1_555 1_555
N45 C87 1_555 1_555
N46 C89 1_555 1_555
N47 C107 1_555 1_555
N48 C98 1_555 1_555
N49 C100 1_555 1_555
N50 C102 1_555 1_555
N51 C104 1_555 1_555
O1 Mn2 1_555 1_555
O2 Mn6 1_555 1_555
Mn4A N16 1_555 1_555
Mn5_2 N18 1_555 1_555
N16A Mn4 1_555 1_555
N18_2 Mn5 1_555 1_555
C24 N27 1_555 1_555
C26 N26 1_555 1_555
C28 N25 1_555 1_555
C30 N24 1_555 1_555
C35 C36 1_555 1_555
C36 N23 1_555 1_555
C39 N29 1_555 1_555
C41 N30 1_555 1_555
C43 N31 1_555 1_555
C45 N32 1_555 1_555
C50 C51 1_555 1_555
C51 N28 1_555 1_555
C54 N34 1_555 1_555
C56 N35 1_555 1_555
C58 N36 1_555 1_555
C60 N37 1_555 1_555
C65 C66 1_555 1_555
C66 N33 1_555 1_555
N1 C71 1_555 1_555
C72 C73 1_555 1_555
C76 N38 1_555 1_555
C78 N41 1_555 1_555
C80 N39 1_555 1_555
C81 N40 1_555 1_555
C84 N43 1_555 1_555
C86 N44 1_555 1_555
C88 N45 1_555 1_555
C90 N46 1_555 1_555
C95 C96 1_555 1_555
C96 N42 1_555 1_555
C99 N48 1_555 1_555
C101 N49 1_555 1_555
C103 N50 1_555 1_555
C105 N51 1_555 1_555
C110 C111 1_555 1_555
C111 N47 1_555 1_555
Mn1 N12 1_555 1_555
Mn1 N23 1_555 1_555
Mn1 N24 1_555 1_555
Mn1 N25 1_555 1_555
Mn1 N26 1_555 1_555
Mn1 N27 1_555 1_555
Mn2 N28 1_555 1_555
Mn2 N29 1_555 1_555
Mn2 N30 1_555 1_555
Mn2 N31 1_555 1_555
Mn2 N32 1_555 1_555
Mn3 N17 1_555 1_555
Mn3 N33 1_555 1_555
Mn3 N34 1_555 1_555
Mn3 N35 1_555 1_555
Mn3 N36 1_555 1_555
Mn3 N37 1_555 1_555
Mn4 N13 1_555 1_555
Mn4 N38 1_555 1_555
Mn4 N39 1_555 1_555
Mn4 N41 1_555 1_555
Mn5 N42 1_555 1_555
Mn5 N43 1_555 1_555
Mn5 N44 1_555 1_555
Mn5 N45 1_555 1_555
Mn5 N46 1_555 1_555
Mn6 N47 1_555 1_555
Mn6 N48 1_555 1_555
Mn6 N49 1_555 1_555
Mn6 N50 1_555 1_555
Mn6 N51 1_555 1_555

#END
