
#######################################################################
#
#                 Cambridge Crystallographic Data Centre
#                                CCDC 
#
#######################################################################
#
# If this CIF has been generated from an entry in the Cambridge 
# Structural Database, then it will include bibliographic, chemical, 
# crystal, experimental, refinement or atomic coordinate data resulting 
# from the CCDC's data processing and validation procedures.
#
#######################################################################

data_QIXTEY
_symmetry_cell_setting           monoclinic
_symmetry_space_group_name_H-M   'C 2/c'
_symmetry_Int_Tables_number      15
_space_group_name_Hall           '-C 2yn'
loop_
_symmetry_equiv_pos_site_id
_symmetry_equiv_pos_as_xyz
1 x,y,z
2 -x,y,1/2-z
3 1/2+x,1/2+y,z
4 1/2-x,1/2+y,1/2-z
5 -x,-y,-z
6 x,-y,1/2+z
7 1/2-x,1/2-y,-z
8 1/2+x,1/2-y,1/2+z
_cell_length_a                   40.845(8)
_cell_length_b                   17.007(3)
_cell_length_c                   24.632(5)
_cell_angle_alpha                90
_cell_angle_beta                 120.68(3)
_cell_angle_gamma                90
_cell_volume                     14715.7
loop_
_atom_site_label
_atom_site_type_symbol
_atom_site_fract_x
_atom_site_fract_y
_atom_site_fract_z
Mo1 Mo 0.172577(10) 0.41710(2) 0.739290(17)
Mo2 Mo 0.0000 0.85151(3) 0.7500
Mn1 Mn 0.104484(19) 0.62143(4) 0.82154(3)
Mn2 Mn 0.261523(19) 0.15554(4) 0.82130(3)
Mn3 Mn 0.06677(2) 0.21704(4) 0.56559(3)
C1 C 0.0000 0.9734(6) 0.7500
C2 C 0.07024(15) 0.1028(4) 0.6703(2)
N1 N 0.15243(11) 0.5581(3) 0.81304(19)
N2 N 0.09300(11) 0.1217(3) 0.53179(18)
C3 C 0.16118(12) 0.5097(3) 0.7893(2)
N3 N 0.06846(11) 0.5983(3) 0.71285(19)
N4 N 0.07073(12) 0.5054(2) 0.8069(2)
C4 C 0.20128(12) 0.3077(3) 0.7861(2)
N5 N 0.12358(11) 0.2782(2) 0.63022(19)
N6 N 0.21633(11) 0.2484(2) 0.80819(19)
C5 C 0.18429(13) 0.5235(3) 0.7019(2)
N7 N 0.04260(13) 0.3444(3) 0.5532(2)
N8 N 0.30835(11) 0.2397(2) 0.8933(2)
C6 C 0.03532(13) 0.7469(3) 0.7935(2)
N9 N 0.22304(12) 0.0559(2) 0.8213(2)
N10 N 0.15177(12) 0.6956(3) 0.9026(2)
N11 N 0.08883(13) 0.4920(3) 0.6283(2)
C7 C 0.22841(13) 0.4502(3) 0.8198(2)
N12 N 0.27317(12) 0.2448(3) 0.7622(2)
N13 N 0.27473(11) 0.1298(2) 0.92203(18)
N14 N 0.07866(11) 0.1048(2) 0.62315(19)
N15 N 0.05489(11) 0.6924(2) 0.81614(19)
N16 N 0.12408(12) 0.5617(3) 0.91579(19)
C8 C 0.10693(18) 0.4931(4) 0.9170(3)
C9 C 0.09059(14) 0.0404(3) 0.6076(3)
C10 C 0.00653(14) 0.8485(4) 0.6682(3)
C11 C 0.11775(14) 0.4653(3) 0.6667(2)
N17 N 0.09084(14) 0.9118(3) 0.8282(2)
N18 N 0.11165(14) 0.7364(3) 0.7762(2)
C12 C 0.16307(18) 0.7693(4) 0.8844(4)
H1 H 0.1904 0.7768 0.9103
H2 H 0.1506 0.8139 0.8906
C13 C 0.31316(16) 0.2727(4) 0.8001(3)
H3 H 0.3175 0.3149 0.7781
H4 H 0.3305 0.2300 0.8064
C14 C 0.18931(16) 0.0789(4) 0.7076(3)
H5 H 0.1754 0.0534 0.6667
H6 H 0.1740 0.1222 0.7080
N19 N 0.22583(12) 0.1089(3) 0.7178(2)
N20 N 0.04682(13) 0.2296(3) 0.6377(2)
N21 N 0.25808(13) 0.4687(3) 0.8608(2)
C15 C 0.14197(13) 0.3261(3) 0.6676(2)
C16 C 0.29929(16) 0.1766(3) 0.9698(2)
C17 C 0.04502(16) 0.4834(4) 0.7397(3)
H7 H 0.0224 0.4581 0.7349
H8 H 0.0578 0.4463 0.7268
N22 N 0.00905(16) 0.8499(5) 0.6228(2)
N23 N 0.06213(13) 0.2622(3) 0.4720(2)
C18 C 0.09915(19) 0.7192(4) 0.7095(3)
H9 H 0.1187 0.6893 0.7075
H10 H 0.0954 0.7681 0.6868
C19 C 0.15156(18) 0.5974(5) 0.9696(3)
C20 C 0.05933(15) 0.8906(3) 0.8017(2)
C21 C 0.09830(15) 0.0513(3) 0.5551(3)
C22 C 0.22379(18) 0.1705(4) 0.6743(3)
H11 H 0.2054 0.2102 0.6694
H12 H 0.2156 0.1479 0.6331
C23 C 0.09636(16) 0.2311(4) 0.4725(3)
H13 H 0.1191 0.2543 0.5074
H14 H 0.0953 0.2457 0.4336
C24 C 0.16683(16) 0.6721(5) 0.9599(3)
C25 C 0.06270(19) 0.6733(4) 0.6792(3)
H15 H 0.0430 0.7035 0.6805
H16 H 0.0545 0.6631 0.6353
C26 C 0.09840(17) 0.1421(4) 0.4792(3)
H17 H 0.0787 0.1179 0.4406
H18 H 0.1229 0.1234 0.4875
C27 C 0.25728(16) 0.0707(3) 0.9328(3)
N24 N 0.22849(14) 0.3814(3) 0.6779(2)
C28 C 0.32027(17) 0.3021(3) 0.8642(3)
H19 H 0.3471 0.3139 0.8917
H20 H 0.3058 0.3497 0.8584
C29 C 0.07833(16) 0.4611(3) 0.8530(3)
C30 C 0.0311(2) 0.3075(4) 0.6384(4)
H21 H 0.0510 0.3407 0.6700
H22 H 0.0114 0.3018 0.6490
C31 C 0.03383(15) 0.5554(4) 0.6984(3)
H23 H 0.0200 0.5402 0.6543
H24 H 0.0174 0.5887 0.7063
C32 C 0.31601(16) 0.2426(3) 0.9500(3)
C33 C 0.20834(15) 0.3924(3) 0.6981(2)
C34 C 0.19649(17) 0.0207(4) 0.7591(3)
H25 H 0.1727 0.0076 0.7566
H26 H 0.2073 -0.0272 0.7536
C35 C 0.05476(17) 0.1776(4) 0.6795(3)
C36 C 0.3385(3) 0.3067(6) 0.9969(4)
H27 H 0.3615 0.2850 1.0310
H28 H 0.3235 0.3286 1.0132
H29 H 0.3446 0.3472 0.9764
C37 C 0.26263(18) 0.2077(4) 0.7004(3)
H30 H 0.2812 0.1681 0.7063
H31 H 0.2619 0.2471 0.6713
C38 C 0.22915(17) 0.0258(3) 0.8728(3)
N25 N 0.0000 1.0440(7) 0.7500
C39 C 0.0582(2) 0.3465(4) 0.4691(3)
H32 H 0.0499 0.3644 0.4266
H33 H 0.0826 0.3705 0.4976
C40 C 0.09457(17) -0.0329(4) 0.6396(3)
H34 H 0.1023 -0.0788 0.6287
C41 C 0.0143(2) 0.3456(4) 0.5733(4)
H35 H -0.0083 0.3173 0.5430
H36 H 0.0071 0.3995 0.5751
C42 C 0.2107(2) -0.0492(4) 0.8787(4)
H37 H 0.2242 -0.0941 0.8763
H38 H 0.1847 -0.0514 0.8449
H39 H 0.2117 -0.0494 0.9184
C43 C 0.2648(2) 0.0540(5) 0.9943(3)
H40 H 0.2530 0.0119 1.0016
C44 C 0.1118(2) -0.0188(4) 0.5329(4)
H41 H 0.1087 -0.0073 0.4924
H42 H 0.0969 -0.0642 0.5296
H43 H 0.1381 -0.0288 0.5628
C45 C 0.3080(2) 0.1638(5) 1.0326(3)
H44 H 0.3252 0.1960 1.0653
C46 C 0.1985(2) 0.7167(7) 1.0174(4)
H45 H 0.1896 0.7681 1.0195
H46 H 0.2205 0.7214 1.0131
H47 H 0.2052 0.6882 1.0553
C47 C 0.0297(2) 0.3710(4) 0.4871(3)
H48 H 0.0051 0.3479 0.4581
H49 H 0.0270 0.4277 0.4845
C48 C 0.13904(13) 0.3636(3) 0.7762(2)
N26 N 0.12208(14) 0.3322(3) 0.7959(2)
C49 C 0.0614(2) 0.3785(4) 0.8480(4)
H50 H 0.0454 0.3647 0.8044
H51 H 0.0466 0.3786 0.8683
H52 H 0.0816 0.3409 0.8683
C50 C 0.15147(18) 0.7632(4) 0.8153(4)
H53 H 0.1543 0.8142 0.8005
H54 H 0.1682 0.7265 0.8110
C51 C 0.0861(2) -0.0312(5) 0.6887(4)
H55 H 0.0886 -0.0773 0.7109
C52 C 0.0746(2) 0.0345(5) 0.7044(3)
H56 H 0.0698 0.0344 0.7374
C53 C 0.0492(3) 0.1869(6) 0.7362(4)
H57 H 0.0406 0.2393 0.7368
H58 H 0.0729 0.1774 0.7745
H59 H 0.0305 0.1497 0.7328
C54 C 0.1162(3) 0.4580(5) 0.9744(4)
H60 H 0.1040 0.4121 0.9751
C55 C 0.2903(3) 0.1021(6) 1.0441(3)
H61 H 0.2954 0.0926 1.0848
C56 C 0.1431(3) 0.4915(7) 1.0289(5)
H62 H 0.1490 0.4683 1.0670
C57 C 0.1622(3) 0.5600(7) 1.0297(3)
H63 H 0.1812 0.5812 1.0676
N27 N 0.19204(12) 0.5795(3) 0.6818(2)
O1 O 0.00480(10) 0.1643(3) 0.50006(17)
H64 H 0.0010 0.1578 0.4643
Mo1A Mo -0.172577(10) 0.41710(2) 0.760710(17)
Mn1A Mn -0.104484(19) 0.62143(4) 0.67846(3)
Mn2A Mn -0.261523(19) 0.15554(4) 0.67870(3)
Mn3A Mn -0.06677(2) 0.21704(4) 0.93441(3)
C2A C -0.07024(15) 0.1028(4) 0.8297(2)
N1A N -0.15243(11) 0.5581(3) 0.68696(19)
N2A N -0.09300(11) 0.1217(3) 0.96821(18)
C3A C -0.16118(12) 0.5097(3) 0.7107(2)
N3A N -0.06846(11) 0.5983(3) 0.78715(19)
N4A N -0.07073(12) 0.5054(2) 0.6931(2)
C4A C -0.20128(12) 0.3077(3) 0.7139(2)
N5A N -0.12358(11) 0.2782(2) 0.86978(19)
N6A N -0.21633(11) 0.2484(2) 0.69181(19)
C5A C -0.18429(13) 0.5235(3) 0.7981(2)
N7A N -0.04260(13) 0.3444(3) 0.9468(2)
N8A N -0.30835(11) 0.2397(2) 0.6067(2)
C6A C -0.03532(13) 0.7469(3) 0.7065(2)
N9A N -0.22304(12) 0.0559(2) 0.6787(2)
N10A N -0.15177(12) 0.6956(3) 0.5974(2)
N11A N -0.08883(13) 0.4920(3) 0.8717(2)
C7A C -0.22841(13) 0.4502(3) 0.6802(2)
N12A N -0.27317(12) 0.2448(3) 0.7378(2)
N13A N -0.27473(11) 0.1298(2) 0.57797(18)
N14A N -0.07866(11) 0.1048(2) 0.87685(19)
N15A N -0.05489(11) 0.6924(2) 0.68386(19)
N16A N -0.12408(12) 0.5617(3) 0.58421(19)
C8A C -0.10693(18) 0.4931(4) 0.5830(3)
C9A C -0.09059(14) 0.0404(3) 0.8924(3)
C10A C -0.00653(14) 0.8485(4) 0.8318(3)
C11A C -0.11775(14) 0.4653(3) 0.8333(2)
N17A N -0.09084(14) 0.9118(3) 0.6718(2)
N18A N -0.11165(14) 0.7364(3) 0.7238(2)
C12A C -0.16307(18) 0.7693(4) 0.6156(4)
H1A H -0.1904 0.7768 0.5897
H2A H -0.1506 0.8139 0.6094
C13A C -0.31316(16) 0.2727(4) 0.6999(3)
H3A H -0.3175 0.3149 0.7219
H4A H -0.3305 0.2300 0.6936
C14A C -0.18931(16) 0.0789(4) 0.7924(3)
H5A H -0.1754 0.0534 0.8333
H6A H -0.1740 0.1222 0.7920
N19A N -0.22583(12) 0.1089(3) 0.7822(2)
N20A N -0.04682(13) 0.2296(3) 0.8623(2)
N21A N -0.25808(13) 0.4687(3) 0.6392(2)
C15A C -0.14197(13) 0.3261(3) 0.8324(2)
C16A C -0.29929(16) 0.1766(3) 0.5302(2)
C17A C -0.04502(16) 0.4834(4) 0.7603(3)
H7A H -0.0224 0.4581 0.7651
H8A H -0.0578 0.4463 0.7732
N22A N -0.00905(16) 0.8499(5) 0.8772(2)
N23A N -0.06213(13) 0.2622(3) 1.0280(2)
C18A C -0.09915(19) 0.7192(4) 0.7905(3)
H9A H -0.1187 0.6893 0.7925
H10A H -0.0954 0.7681 0.8132
C19A C -0.15156(18) 0.5974(5) 0.5304(3)
C20A C -0.05933(15) 0.8906(3) 0.6983(2)
C21A C -0.09830(15) 0.0513(3) 0.9449(3)
C22A C -0.22379(18) 0.1705(4) 0.8257(3)
H11A H -0.2054 0.2102 0.8306
H12A H -0.2156 0.1479 0.8669
C23A C -0.09636(16) 0.2311(4) 1.0275(3)
H13A H -0.1191 0.2543 0.9926
H14A H -0.0953 0.2457 1.0664
C24A C -0.16683(16) 0.6721(5) 0.5401(3)
C25A C -0.06270(19) 0.6733(4) 0.8208(3)
H15A H -0.0430 0.7035 0.8195
H16A H -0.0545 0.6631 0.8647
C26A C -0.09840(17) 0.1421(4) 1.0208(3)
H17A H -0.0787 0.1179 1.0594
H18A H -0.1229 0.1234 1.0125
C27A C -0.25728(16) 0.0707(3) 0.5672(3)
N24A N -0.22849(14) 0.3814(3) 0.8221(2)
C28A C -0.32027(17) 0.3021(3) 0.6358(3)
H19A H -0.3471 0.3139 0.6083
H20A H -0.3058 0.3497 0.6416
C29A C -0.07833(16) 0.4611(3) 0.6470(3)
C30A C -0.0311(2) 0.3075(4) 0.8616(4)
H21A H -0.0510 0.3407 0.8300
H22A H -0.0114 0.3018 0.8510
C31A C -0.03383(15) 0.5554(4) 0.8016(3)
H23A H -0.0200 0.5402 0.8457
H24A H -0.0174 0.5887 0.7937
C32A C -0.31601(16) 0.2426(3) 0.5500(3)
C33A C -0.20834(15) 0.3924(3) 0.8019(2)
C34A C -0.19649(17) 0.0207(4) 0.7409(3)
H25A H -0.1727 0.0076 0.7434
H26A H -0.2073 -0.0272 0.7464
C35A C -0.05476(17) 0.1776(4) 0.8205(3)
C36A C -0.3385(3) 0.3067(6) 0.5031(4)
H27A H -0.3615 0.2850 0.4690
H28A H -0.3235 0.3286 0.4868
H29A H -0.3446 0.3472 0.5236
C37A C -0.26263(18) 0.2077(4) 0.7996(3)
H30A H -0.2812 0.1681 0.7937
H31A H -0.2619 0.2471 0.8287
C38A C -0.22915(17) 0.0258(3) 0.6272(3)
C39A C -0.0582(2) 0.3465(4) 1.0309(3)
H32A H -0.0499 0.3644 1.0734
H33A H -0.0826 0.3705 1.0024
C40A C -0.09457(17) -0.0329(4) 0.8604(3)
H34A H -0.1023 -0.0788 0.8713
C41A C -0.0143(2) 0.3456(4) 0.9267(4)
H35A H 0.0083 0.3173 0.9570
H36A H -0.0071 0.3995 0.9249
C42A C -0.2107(2) -0.0492(4) 0.6213(4)
H37A H -0.2242 -0.0941 0.6237
H38A H -0.1847 -0.0514 0.6551
H39A H -0.2117 -0.0494 0.5816
C43A C -0.2648(2) 0.0540(5) 0.5057(3)
H40A H -0.2530 0.0119 0.4984
C44A C -0.1118(2) -0.0188(4) 0.9671(4)
H41A H -0.1087 -0.0073 1.0076
H42A H -0.0969 -0.0642 0.9704
H43A H -0.1381 -0.0288 0.9372
C45A C -0.3080(2) 0.1638(5) 0.4674(3)
H44A H -0.3252 0.1960 0.4347
C46A C -0.1985(2) 0.7167(7) 0.4826(4)
H45A H -0.1896 0.7681 0.4805
H46A H -0.2205 0.7214 0.4869
H47A H -0.2052 0.6882 0.4447
C47A C -0.0297(2) 0.3710(4) 1.0129(3)
H48A H -0.0051 0.3479 1.0419
H49A H -0.0270 0.4277 1.0155
C48A C -0.13904(13) 0.3636(3) 0.7238(2)
N26A N -0.12208(14) 0.3322(3) 0.7041(2)
C49A C -0.0614(2) 0.3785(4) 0.6520(4)
H50A H -0.0454 0.3647 0.6956
H51A H -0.0466 0.3786 0.6317
H52A H -0.0816 0.3409 0.6317
C50A C -0.15147(18) 0.7632(4) 0.6847(4)
H53A H -0.1543 0.8142 0.6995
H54A H -0.1682 0.7265 0.6890
C51A C -0.0861(2) -0.0312(5) 0.8113(4)
H55A H -0.0886 -0.0773 0.7891
C52A C -0.0746(2) 0.0345(5) 0.7956(3)
H56A H -0.0698 0.0344 0.7626
C53A C -0.0492(3) 0.1869(6) 0.7638(4)
H57A H -0.0406 0.2393 0.7632
H58A H -0.0729 0.1774 0.7255
H59A H -0.0305 0.1497 0.7672
C54A C -0.1162(3) 0.4580(5) 0.5256(4)
H60A H -0.1040 0.4121 0.5249
C55A C -0.2903(3) 0.1021(6) 0.4559(3)
H61A H -0.2954 0.0926 0.4152
C56A C -0.1431(3) 0.4915(7) 0.4711(5)
H62A H -0.1490 0.4683 0.4330
C57A C -0.1622(3) 0.5600(7) 0.4703(3)
H63A H -0.1812 0.5812 0.4324
N27A N -0.19204(12) 0.5795(3) 0.8182(2)
O1A O -0.00480(10) 0.1643(3) 0.99994(17)
H64A H -0.0010 0.1578 1.0357
Mn2B Mn -0.238477(19) 0.65554(4) 0.82130(3)
Mn2C Mn 0.238477(19) 0.65554(4) 0.67870(3)
N27B N -0.30796(12) 0.0795(3) 0.6818(2)
N27C N 0.30796(12) 0.0795(3) 0.8182(2)
O2 O 0.15603(16) 0.8317(3) 0.3398(3)
O3 O 0.30675(16) 0.4534(4) 0.4833(3)
O4 O 0.13476(19) 0.9531(3) 0.4007(2)
O5 O 0.9857(2) 0.9680(5) 0.0550(4)
O6 O 0.2355(3) 0.3743(6) 0.4336(5)
O7 O 0.0597(3) 0.1259(9) 0.8848(5)
O8 O 0.1043(4) 0.6455(7) 0.5735(6)
O9 O 0.0675(4) 0.2110(8) 0.0034(10)
loop_
_geom_bond_atom_site_label_1
_geom_bond_atom_site_label_2
_geom_bond_site_symmetry_1
_geom_bond_site_symmetry_2
Mo1 C3 1_555 1_555
Mo2 C1 1_555 1_555
Mn1 N1 1_555 1_555
Mn2 N6 1_555 1_555
Mn3 N2 1_555 1_555
C1 N25 1_555 1_555
C2 N14 1_555 1_555
N1 C3 1_555 1_555
N2 C21 1_555 1_555
N3 Mn1 1_555 1_555
N4 Mn1 1_555 1_555
C4 Mo1 1_555 1_555
N5 Mn3 1_555 1_555
N6 C4 1_555 1_555
C5 Mo1 1_555 1_555
N7 Mn3 1_555 1_555
N8 Mn2 1_555 1_555
C6 Mo2 1_555 1_555
N9 Mn2 1_555 1_555
N10 Mn1 1_555 1_555
N11 C11 1_555 1_555
C7 Mo1 1_555 1_555
N12 Mn2 1_555 1_555
N13 Mn2 1_555 1_555
N14 Mn3 1_555 1_555
N15 Mn1 1_555 1_555
N16 Mn1 1_555 1_555
C8 N16 1_555 1_555
C9 N14 1_555 1_555
C10 Mo2 1_555 1_555
C11 Mo1 1_555 1_555
N17 C20 1_555 1_555
N18 Mn1 1_555 1_555
C12 N10 1_555 1_555
H1 C12 1_555 1_555
H2 C12 1_555 1_555
C13 N12 1_555 1_555
H3 C13 1_555 1_555
H4 C13 1_555 1_555
C14 H5 1_555 1_555
H6 C14 1_555 1_555
N19 Mn2 1_555 1_555
N20 Mn3 1_555 1_555
N21 C7 1_555 1_555
C15 Mo1 1_555 1_555
C16 N13 1_555 1_555
C17 N4 1_555 1_555
H7 C17 1_555 1_555
H8 C17 1_555 1_555
N22 C10 1_555 1_555
N23 Mn3 1_555 1_555
C18 N18 1_555 1_555
H9 C18 1_555 1_555
H10 C18 1_555 1_555
C19 N16 1_555 1_555
C20 Mo2 1_555 1_555
C21 C9 1_555 1_555
C22 N19 1_555 1_555
H11 C22 1_555 1_555
H12 C22 1_555 1_555
C23 N23 1_555 1_555
H13 C23 1_555 1_555
H14 C23 1_555 1_555
C24 N10 1_555 1_555
C25 N3 1_555 1_555
H15 C25 1_555 1_555
H16 C25 1_555 1_555
C26 N2 1_555 1_555
H17 C26 1_555 1_555
H18 C26 1_555 1_555
C27 N13 1_555 1_555
N24 C33 1_555 1_555
C28 N8 1_555 1_555
H19 C28 1_555 1_555
H20 C28 1_555 1_555
C29 N4 1_555 1_555
C30 N20 1_555 1_555
H21 C30 1_555 1_555
H22 C30 1_555 1_555
C31 N3 1_555 1_555
H23 C31 1_555 1_555
H24 C31 1_555 1_555
C32 N8 1_555 1_555
C33 Mo1 1_555 1_555
C34 N9 1_555 1_555
H25 C34 1_555 1_555
H26 C34 1_555 1_555
C35 C2 1_555 1_555
C36 C32 1_555 1_555
H27 C36 1_555 1_555
H28 C36 1_555 1_555
H29 C36 1_555 1_555
C37 N12 1_555 1_555
H30 C37 1_555 1_555
H31 C37 1_555 1_555
C38 N9 1_555 1_555
C39 N23 1_555 1_555
H32 C39 1_555 1_555
H33 C39 1_555 1_555
C40 C9 1_555 1_555
H34 C40 1_555 1_555
C41 N7 1_555 1_555
H35 C41 1_555 1_555
H36 C41 1_555 1_555
C42 C38 1_555 1_555
H37 C42 1_555 1_555
H38 C42 1_555 1_555
H39 C42 1_555 1_555
C43 C27 1_555 1_555
H40 C43 1_555 1_555
C44 C21 1_555 1_555
H41 C44 1_555 1_555
H42 C44 1_555 1_555
H43 C44 1_555 1_555
C45 C16 1_555 1_555
H44 C45 1_555 1_555
C46 C24 1_555 1_555
H45 C46 1_555 1_555
H46 C46 1_555 1_555
H47 C46 1_555 1_555
C47 N7 1_555 1_555
H48 C47 1_555 1_555
H49 C47 1_555 1_555
C48 Mo1 1_555 1_555
N26 C48 1_555 1_555
C49 C29 1_555 1_555
H50 C49 1_555 1_555
H51 C49 1_555 1_555
H52 C49 1_555 1_555
C50 N18 1_555 1_555
H53 C50 1_555 1_555
H54 C50 1_555 1_555
C51 C40 1_555 1_555
H55 C51 1_555 1_555
C52 C2 1_555 1_555
H56 C52 1_555 1_555
C53 C35 1_555 1_555
H57 C53 1_555 1_555
H58 C53 1_555 1_555
H59 C53 1_555 1_555
C54 C8 1_555 1_555
H60 C54 1_555 1_555
C55 C43 1_555 1_555
H61 C55 1_555 1_555
C56 C54 1_555 1_555
H62 C56 1_555 1_555
C57 C19 1_555 1_555
H63 C57 1_555 1_555
N27 C5 1_555 1_555
O1 Mn3 1_555 1_555
H64 O1 1_555 1_555
Mo1A C3A 1_555 1_555
Mn1A N1A 1_555 1_555
Mn2A N6A 1_555 1_555
Mn3A N2A 1_555 1_555
C2A N14A 1_555 1_555
N1A C3A 1_555 1_555
N2A C21A 1_555 1_555
N3A Mn1A 1_555 1_555
N4A Mn1A 1_555 1_555
C4A Mo1A 1_555 1_555
N5A Mn3A 1_555 1_555
N6A C4A 1_555 1_555
C5A Mo1A 1_555 1_555
N7A Mn3A 1_555 1_555
N8A Mn2A 1_555 1_555
C6A Mo2 1_555 1_555
N9A Mn2A 1_555 1_555
N10A Mn1A 1_555 1_555
N11A C11A 1_555 1_555
C7A Mo1A 1_555 1_555
N12A Mn2A 1_555 1_555
N13A Mn2A 1_555 1_555
N14A Mn3A 1_555 1_555
N15A Mn1A 1_555 1_555
N16A Mn1A 1_555 1_555
C8A N16A 1_555 1_555
C9A N14A 1_555 1_555
C10A Mo2 1_555 1_555
C11A Mo1A 1_555 1_555
N17A C20A 1_555 1_555
N18A Mn1A 1_555 1_555
C12A N10A 1_555 1_555
H1A C12A 1_555 1_555
H2A C12A 1_555 1_555
C13A N12A 1_555 1_555
H3A C13A 1_555 1_555
H4A C13A 1_555 1_555
C14A H5A 1_555 1_555
H6A C14A 1_555 1_555
N19A Mn2A 1_555 1_555
N20A Mn3A 1_555 1_555
N21A C7A 1_555 1_555
C15A Mo1A 1_555 1_555
C16A N13A 1_555 1_555
C17A N4A 1_555 1_555
H7A C17A 1_555 1_555
H8A C17A 1_555 1_555
N22A C10A 1_555 1_555
N23A Mn3A 1_555 1_555
C18A N18A 1_555 1_555
H9A C18A 1_555 1_555
H10A C18A 1_555 1_555
C19A N16A 1_555 1_555
C20A Mo2 1_555 1_555
C21A C9A 1_555 1_555
C22A N19A 1_555 1_555
H11A C22A 1_555 1_555
H12A C22A 1_555 1_555
C23A N23A 1_555 1_555
H13A C23A 1_555 1_555
H14A C23A 1_555 1_555
C24A N10A 1_555 1_555
C25A N3A 1_555 1_555
H15A C25A 1_555 1_555
H16A C25A 1_555 1_555
C26A N2A 1_555 1_555
H17A C26A 1_555 1_555
H18A C26A 1_555 1_555
C27A N13A 1_555 1_555
N24A C33A 1_555 1_555
C28A N8A 1_555 1_555
H19A C28A 1_555 1_555
H20A C28A 1_555 1_555
C29A N4A 1_555 1_555
C30A N20A 1_555 1_555
H21A C30A 1_555 1_555
H22A C30A 1_555 1_555
C31A N3A 1_555 1_555
H23A C31A 1_555 1_555
H24A C31A 1_555 1_555
C32A N8A 1_555 1_555
C33A Mo1A 1_555 1_555
C34A N9A 1_555 1_555
H25A C34A 1_555 1_555
H26A C34A 1_555 1_555
C35A C2A 1_555 1_555
C36A C32A 1_555 1_555
H27A C36A 1_555 1_555
H28A C36A 1_555 1_555
H29A C36A 1_555 1_555
C37A N12A 1_555 1_555
H30A C37A 1_555 1_555
H31A C37A 1_555 1_555
C38A N9A 1_555 1_555
C39A N23A 1_555 1_555
H32A C39A 1_555 1_555
H33A C39A 1_555 1_555
C40A C9A 1_555 1_555
H34A C40A 1_555 1_555
C41A N7A 1_555 1_555
H35A C41A 1_555 1_555
H36A C41A 1_555 1_555
C42A C38A 1_555 1_555
H37A C42A 1_555 1_555
H38A C42A 1_555 1_555
H39A C42A 1_555 1_555
C43A C27A 1_555 1_555
H40A C43A 1_555 1_555
C44A C21A 1_555 1_555
H41A C44A 1_555 1_555
H42A C44A 1_555 1_555
H43A C44A 1_555 1_555
C45A C16A 1_555 1_555
H44A C45A 1_555 1_555
C46A C24A 1_555 1_555
H45A C46A 1_555 1_555
H46A C46A 1_555 1_555
H47A C46A 1_555 1_555
C47A N7A 1_555 1_555
H48A C47A 1_555 1_555
H49A C47A 1_555 1_555
C48A Mo1A 1_555 1_555
N26A C48A 1_555 1_555
C49A C29A 1_555 1_555
H50A C49A 1_555 1_555
H51A C49A 1_555 1_555
H52A C49A 1_555 1_555
C50A N18A 1_555 1_555
H53A C50A 1_555 1_555
H54A C50A 1_555 1_555
C51A C40A 1_555 1_555
H55A C51A 1_555 1_555
C52A C2A 1_555 1_555
H56A C52A 1_555 1_555
C53A C35A 1_555 1_555
H57A C53A 1_555 1_555
H58A C53A 1_555 1_555
H59A C53A 1_555 1_555
C54A C8A 1_555 1_555
H60A C54A 1_555 1_555
C55A C43A 1_555 1_555
H61A C55A 1_555 1_555
C56A C54A 1_555 1_555
H62A C56A 1_555 1_555
C57A C19A 1_555 1_555
H63A C57A 1_555 1_555
N27A C5A 1_555 1_555
O1A Mn3A 1_555 1_555
H64A O1A 1_555 1_555
Mn2B N27A 1_555 1_555
Mn2C N27 1_555 1_555
N27B Mn2A 1_555 1_555
N27C Mn2 1_555 1_555
N5 C15 1_555 1_555
C6 N15 1_555 1_555
C8 C29 1_555 1_555
C12 C50 1_555 1_555
C13 C28 1_555 1_555
C14 N19 1_555 1_555
C14 C34 1_555 1_555
N20 C35 1_555 1_555
C16 C32 1_555 1_555
C17 C31 1_555 1_555
C18 C25 1_555 1_555
C19 C24 1_555 1_555
C22 C37 1_555 1_555
C23 C26 1_555 1_555
C27 C38 1_555 1_555
C30 C41 1_555 1_555
C39 C47 1_555 1_555
C45 C55 1_555 1_555
C51 C52 1_555 1_555
C56 C57 1_555 1_555
N5A C15A 1_555 1_555
C6A N15A 1_555 1_555
C8A C29A 1_555 1_555
C12A C50A 1_555 1_555
C13A C28A 1_555 1_555
C14A N19A 1_555 1_555
C14A C34A 1_555 1_555
N20A C35A 1_555 1_555
C16A C32A 1_555 1_555
C17A C31A 1_555 1_555
C18A C25A 1_555 1_555
C19A C24A 1_555 1_555
C22A C37A 1_555 1_555
C23A C26A 1_555 1_555
C27A C38A 1_555 1_555
C30A C41A 1_555 1_555
C39A C47A 1_555 1_555
C45A C55A 1_555 1_555
C51A C52A 1_555 1_555
C56A C57A 1_555 1_555

#END
