
#######################################################################
#
#                 Cambridge Crystallographic Data Centre
#                                CCDC 
#
#######################################################################
#
# If this CIF has been generated from an entry in the Cambridge 
# Structural Database, then it will include bibliographic, chemical, 
# crystal, experimental, refinement or atomic coordinate data resulting 
# from the CCDC's data processing and validation procedures.
#
#######################################################################

data_QIXTAU
_symmetry_cell_setting           triclinic
_symmetry_space_group_name_H-M   'P -1'
_symmetry_Int_Tables_number      2
_space_group_name_Hall           '-P 1'
loop_
_symmetry_equiv_pos_site_id
_symmetry_equiv_pos_as_xyz
1 x,y,z
2 -x,-y,-z
_cell_length_a                   15.518(3)
_cell_length_b                   17.430(4)
_cell_length_c                   21.899(4)
_cell_angle_alpha                93.07(3)
_cell_angle_beta                 109.74(3)
_cell_angle_gamma                109.00(3)
_cell_volume                     5181.65
loop_
_atom_site_label
_atom_site_type_symbol
_atom_site_fract_x
_atom_site_fract_y
_atom_site_fract_z
C1 C 0.9194(14) 0.5428(5) 0.2651(8)
H1 H 0.9587 0.5990 0.2653
H2 H 0.9005 0.5434 0.3030
C2 C 1.0841(13) 0.5154(7) 0.3245(5)
H3 H 1.1226 0.5721 0.3252
H4 H 1.0798 0.5121 0.3675
N1 N 0.9063(4) 0.4350(3) 0.0635(3)
N2 N 1.0139(3) 0.1553(2) 0.23928(19)
C3 C 0.9567(3) 0.1749(2) 0.2515(2)
Mo1 Mo 0.84645(3) 0.20381(2) 0.275785(16)
Mo2 Mo 0.83444(2) 0.20373(2) 0.745659(16)
Mn1 Mn 0.58324(4) 0.07225(4) 0.85757(3)
Mn2 Mn 0.74754(5) 0.14444(4) 0.48365(3)
Mn3 Mn 0.99090(6) 0.46699(4) 0.17332(3)
Mn4 Mn 0.89011(5) -0.07948(4) 0.75272(3)
N3 N 0.7809(3) -0.1592(3) 0.65144(18)
N4 N 0.4563(2) 0.1176(2) 0.83213(16)
N5 N 0.6357(3) 0.0151(2) 0.44356(15)
N6 N 0.7244(3) 0.0898(2) 0.94405(17)
O1 O 0.5063(2) -0.0242(2) 0.91002(15)
H5 H 0.5465 -0.0409 0.9346
N7 N 0.6090(2) 0.1696(2) 0.94048(16)
N8 N 0.8238(2) 0.0538(2) 0.47708(15)
N9 N 0.9178(3) -0.0825(3) 0.86225(18)
N10 N 0.9522(3) -0.0284(2) 0.67730(18)
N11 N 0.4611(3) -0.0153(2) 0.76338(16)
N12 N 0.6537(3) -0.0126(2) 0.82594(17)
N13 N 0.8051(3) 0.0067(2) 0.74319(16)
N14 N 1.0221(3) 0.0386(2) 0.81245(19)
C4 C 0.4096(3) 0.0354(3) 0.72625(19)
H6 H 0.3536 0.0006 0.6878
H7 H 0.4537 0.0761 0.7112
N15 N 0.9183(3) 0.3355(2) 0.18443(17)
N16 N 0.6578(3) 0.1598(2) 0.80351(18)
N17 N 0.7715(3) 0.1325(2) 0.58911(17)
C5 C 0.8124(3) 0.0746(2) 0.74188(17)
C6 C 0.5398(3) 0.1991(3) 0.9374(2)
N18 N 0.7779(3) -0.1925(2) 0.7638(2)
N19 N 0.7353(3) 0.1652(2) 0.38117(17)
C7 C 0.7727(3) -0.0225(3) 0.45062(18)
N20 N 0.9130(3) 0.2208(3) 0.5113(2)
C8 C 0.4526(3) 0.1693(3) 0.8735(2)
C9 C 0.3756(3) 0.0781(3) 0.7693(2)
H8 H 0.3531 0.1191 0.7479
H9 H 0.3211 0.0383 0.7765
C10 C 0.8928(3) 0.2885(2) 0.21540(18)
C11 C 0.8988(4) 0.3294(3) 0.7971(2)
C12 C 0.7921(3) 0.1554(3) 0.6442(2)
N21 N 0.5889(4) 0.1419(3) 0.4573(2)
C13 C 0.8656(4) -0.1432(3) 0.8792(2)
C14 C 0.7173(3) 0.1757(2) 0.7815(2)
C15 C 0.7705(3) 0.1770(3) 0.3423(2)
C16 C 0.7812(4) -0.2038(3) 0.8250(3)
C17 C 0.7577(3) 0.1482(3) 0.9931(2)
C18 C 0.9290(3) 0.0897(3) 0.4943(2)
H10 H 0.9432 0.0974 0.4547
H11 H 0.9598 0.0531 0.5160
C19 C 0.5403(3) -0.0009(3) 0.4282(2)
C20 C 0.7121(4) -0.0363(3) 0.8853(2)
H12 H 0.7492 -0.0659 0.8738
H13 H 0.6689 -0.0719 0.9039
C21 C 0.4722(4) -0.0800(4) 0.4063(2)
H14 H 0.4058 -0.0898 0.3955
C22 C 0.5478(3) 0.2514(3) 0.9912(2)
H15 H 0.4996 0.2732 0.9886
C23 C 1.0815(3) 0.0673(3) 0.7731(3)
H16 H 1.1229 0.0353 0.7753
H17 H 1.1238 0.1247 0.7905
N22 N 0.9354(4) 0.3978(2) 0.8228(2)
C24 C 0.6885(3) 0.1888(3) 0.99583(19)
C25 C 0.8583(3) 0.1758(3) 1.0469(2)
H18 H 0.8553 0.1458 1.0821
H19 H 0.8805 0.2338 1.0634
H20 H 0.9034 0.1654 1.0294
C26 C 0.7170(4) -0.2282(3) 0.6479(3)
C27 C 0.8101(4) -0.0848(3) 0.4327(2)
H21 H 0.8775 -0.0581 0.4376
H22 H 0.7713 -0.1121 0.3878
H23 H 0.8060 -0.1247 0.4612
C28 C 0.7009(3) 0.2395(3) 1.0512(2)
H24 H 0.7566 0.2528 1.0896
C29 C 0.7560(4) 0.2709(3) 0.6871(3)
C30 C 0.7071(4) -0.2455(3) 0.7117(3)
C31 C 1.0004(4) -0.0146(4) 0.9078(2)
H25 H 1.0317 -0.0335 0.9471
H26 H 0.9781 0.0273 0.9206
C32 C 0.7810(4) 0.0415(3) 0.9346(2)
H27 H 0.8143 0.0277 0.9763
H28 H 0.8304 0.0731 0.9186
C33 C 0.6016(4) -0.1276(3) 0.4153(2)
H29 H 0.6241 -0.1701 0.4110
C34 C 0.6661(3) -0.0473(3) 0.43642(18)
N23 N 0.7129(4) 0.3075(3) 0.6545(3)
C35 C 0.5066(4) -0.0528(3) 0.7282(2)
H30 H 0.5410 -0.0124 0.7075
H31 H 0.4563 -0.0985 0.6940
C36 C 0.5033(4) -0.1443(4) 0.4005(2)
H32 H 0.4584 -0.1984 0.3867
N24 N 0.7594(4) 0.2757(3) 0.5137(2)
C37 C 1.0155(4) 0.0582(3) 0.7025(3)
H33 H 0.9757 0.0917 0.6999
H34 H 1.0548 0.0768 0.6761
C38 C 0.9759(4) 0.2484(4) 0.3645(3)
C39 C 0.8489(3) 0.0909(3) 0.30958(19)
C40 C 0.9713(4) 0.2382(3) 0.7334(3)
N25 N 1.0716(4) 0.4226(3) 0.1186(3)
C41 C 1.0736(4) 0.0221(3) 0.8765(2)
H35 H 1.1239 0.0729 0.9046
H36 H 1.1052 -0.0161 0.8710
C42 C 0.7668(5) 0.1144(3) 0.1867(2)
C43 C 0.6289(4) 0.2695(3) 1.0480(2)
H37 H 0.6350 0.3029 1.0849
C44 C 0.5774(4) -0.0832(3) 0.7758(2)
H38 H 0.5432 -0.1237 0.7966
H39 H 0.6071 -0.1091 0.7527
C45 C 0.9684(4) 0.1704(3) 0.5391(3)
H40 H 0.9646 0.1616 0.5816
H41 H 1.0370 0.1987 0.5459
N26 N 0.8531(3) 0.0322(2) 0.32923(19)
C46 C 0.5143(4) 0.0727(4) 0.4350(2)
C47 C 0.8711(4) -0.0448(4) 0.6140(2)
H42 H 0.8972 -0.0292 0.5801
H43 H 0.8323 -0.0119 0.6168
N27 N 0.9721(4) 0.1882(3) 0.8953(2)
C48 C 0.8074(4) -0.1340(4) 0.5958(2)
H44 H 0.7485 -0.1430 0.5574
H45 H 0.8423 -0.1665 0.5850
C49 C 0.4110(4) 0.0653(5) 0.4156(3)
H46 H 0.4081 0.1143 0.4356
H47 H 0.3758 0.0183 0.4300
H48 H 0.3815 0.0584 0.3684
C50 C 0.7098(6) -0.2677(4) 0.8343(4)
H49 H 0.7123 -0.2755 0.8764
C51 C 0.5821(6) 0.2229(5) 0.4668(3)
H50 H 0.5713 0.2317 0.5073
H51 H 0.5267 0.2255 0.4304
C52 C 0.3695(4) 0.1974(4) 0.8638(3)
H52 H 0.3309 0.1880 0.8175
H53 H 0.3945 0.2553 0.8816
H54 H 0.3292 0.1673 0.8860
C53 C 0.9233(4) 0.1935(3) 0.8441(2)
N28 N 1.0422(4) 0.2712(4) 0.4129(3)
C54 C 0.9355(5) 0.3002(4) 0.5488(3)
H55 H 0.9978 0.3385 0.5501
H56 H 0.9414 0.2949 0.5938
C55 C 0.8809(5) -0.1560(4) 0.9487(3)
H57 H 0.9396 -0.1129 0.9787
H58 H 0.8874 -0.2085 0.9535
H59 H 0.8255 -0.1549 0.9585
C56 C 0.6562(5) -0.2919(4) 0.5875(3)
H60 H 0.6664 -0.2700 0.5501
H61 H 0.5881 -0.3076 0.5811
H62 H 0.6749 -0.3393 0.5920
C57 C 0.8565(6) 0.3326(3) 0.5182(3)
H63 H 0.8721 0.3856 0.5441
H64 H 0.8538 0.3411 0.4742
C58 C 0.9447(9) 0.4027(4) 0.0254(3)
C59 C 0.6764(6) 0.2897(4) 0.4704(4)
H65 H 0.6787 0.2895 0.4266
H66 H 0.6777 0.3433 0.4861
C60 C 0.8526(6) 0.3205(4) 0.3190(4)
C61 C 0.6341(5) -0.3096(5) 0.7192(4)
H67 H 0.5838 -0.3465 0.6824
C62 C 1.0385(8) 0.4010(4) 0.0583(4)
N29 N 1.0484(4) 0.2573(3) 0.7299(4)
N30 N 0.7235(6) 0.0662(3) 0.1390(3)
C63 C 0.7940(7) 0.4645(5) 0.0687(6)
N31 N 0.8571(8) 0.3793(4) 0.3447(4)
C64 C 0.7089(6) 0.2140(7) 0.2240(4)
C65 C 0.6358(6) -0.3188(5) 0.7799(4)
H68 H 0.5850 -0.3612 0.7847
N32 N 0.6321(6) 0.2152(9) 0.1944(5)
C66 C 1.0892(11) 0.3719(5) 0.0184(6)
H69 H 1.1411 0.4184 0.0157
H70 H 1.0423 0.3452 -0.0252
H71 H 1.1163 0.3335 0.0396
N33 N 0.8320(7) 0.4836(4) 0.1377(5)
C67 C 0.7675(6) 0.4074(6) -0.0416(4)
H72 H 0.7061 0.4076 -0.0673
C68 C 0.8214(11) 0.4352(6) 0.0296(7)
C69 C 1.1668(7) 0.4240(7) 0.1595(7)
H73 H 1.1848 0.3856 0.1373
H74 H 1.2157 0.4788 0.1675
C70 C 0.8246(9) 0.3831(8) -0.0591(7)
H75 H 0.7976 0.3712 -0.1050
C71 C 0.8996(11) 0.3680(6) -0.0430(5)
H76 H 0.9217 0.3409 -0.0687
C72 C 0.6908(10) 0.4836(10) 0.0537(13)
H77 H 0.6894 0.5243 0.0259
H78 H 0.6888 0.5039 0.0947
H79 H 0.6349 0.4337 0.0320
N34 N 0.9792(8) 0.4914(4) 0.2713(4)
C73 C 1.1363(9) 0.4592(10) 0.3114(4)
H80 H 1.2019 0.4759 0.3450
H81 H 1.0998 0.4024 0.3117
N35 N 1.1411(6) 0.4672(7) 0.2484(3)
C74 C 1.1643(9) 0.4023(10) 0.2185(9)
H82 H 1.2274 0.4013 0.2465
H83 H 1.1140 0.3484 0.2113
C75 C 0.8152(12) 0.5083(7) 0.1944(9)
H84 H 0.7660 0.4619 0.2009
H85 H 0.7890 0.5519 0.1864
N2A N 0.9861(3) -0.1553(2) 0.76072(19)
Mn3A Mn 1.00910(6) 0.53301(4) 0.82668(3)
Mn4A Mn 1.10989(5) 0.07948(4) 0.24728(3)
N22A N 1.0646(4) 0.6022(2) 0.1772(2)
loop_
_geom_bond_atom_site_label_1
_geom_bond_atom_site_label_2
_geom_bond_site_symmetry_1
_geom_bond_site_symmetry_2
C1 H1 1_555 1_555
H2 C1 1_555 1_555
C2 H3 1_555 1_555
H4 C2 1_555 1_555
N1 Mn3 1_555 1_555
N2 C3 1_555 1_555
C3 Mo1 1_555 1_555
Mo1 C10 1_555 1_555
Mo2 C5 1_555 1_555
Mn1 N4 1_555 1_555
Mn2 N5 1_555 1_555
Mn3 N15 1_555 1_555
Mn4 N3 1_555 1_555
N3 C26 1_555 1_555
N4 C8 1_555 1_555
N5 C19 1_555 1_555
N6 Mn1 1_555 1_555
O1 Mn1 1_555 1_555
H5 O1 1_555 1_555
N7 Mn1 1_555 1_555
N8 Mn2 1_555 1_555
N9 Mn4 1_555 1_555
N10 Mn4 1_555 1_555
N11 Mn1 1_555 1_555
N12 Mn1 1_555 1_555
N13 Mn4 1_555 1_555
N14 Mn4 1_555 1_555
C4 N11 1_555 1_555
H6 C4 1_555 1_555
H7 C4 1_555 1_555
N15 C10 1_555 1_555
N16 Mn1 1_555 1_555
N17 Mn2 1_555 1_555
C5 N13 1_555 1_555
C6 N7 1_555 1_555
N18 Mn4 1_555 1_555
N19 Mn2 1_555 1_555
C7 N8 1_555 1_555
N20 Mn2 1_555 1_555
C8 C6 1_555 1_555
C9 N4 1_555 1_555
H8 C9 1_555 1_555
H9 C9 1_555 1_555
C11 Mo2 1_555 1_555
C12 Mo2 1_555 1_555
N21 Mn2 1_555 1_555
C13 N9 1_555 1_555
C14 Mo2 1_555 1_555
C15 Mo1 1_555 1_555
C16 N18 1_555 1_555
C17 N6 1_555 1_555
C18 N8 1_555 1_555
H10 C18 1_555 1_555
H11 C18 1_555 1_555
C19 C21 1_555 1_555
C20 N12 1_555 1_555
H12 C20 1_555 1_555
H13 C20 1_555 1_555
C21 H14 1_555 1_555
C22 C6 1_555 1_555
H15 C22 1_555 1_555
C23 N14 1_555 1_555
H16 C23 1_555 1_555
H17 C23 1_555 1_555
N22 C11 1_555 1_555
C24 N7 1_555 1_555
C25 C17 1_555 1_555
H18 C25 1_555 1_555
H19 C25 1_555 1_555
H20 C25 1_555 1_555
C26 C30 1_555 1_555
C27 C7 1_555 1_555
H21 C27 1_555 1_555
H22 C27 1_555 1_555
H23 C27 1_555 1_555
C28 C24 1_555 1_555
H24 C28 1_555 1_555
C29 Mo2 1_555 1_555
C30 N18 1_555 1_555
C31 N9 1_555 1_555
H25 C31 1_555 1_555
H26 C31 1_555 1_555
C32 N6 1_555 1_555
H27 C32 1_555 1_555
H28 C32 1_555 1_555
C33 H29 1_555 1_555
C34 N5 1_555 1_555
N23 C29 1_555 1_555
C35 N11 1_555 1_555
H30 C35 1_555 1_555
H31 C35 1_555 1_555
C36 C21 1_555 1_555
H32 C36 1_555 1_555
N24 Mn2 1_555 1_555
C37 N10 1_555 1_555
H33 C37 1_555 1_555
H34 C37 1_555 1_555
C38 Mo1 1_555 1_555
C39 Mo1 1_555 1_555
C40 Mo2 1_555 1_555
N25 Mn3 1_555 1_555
C41 N14 1_555 1_555
H35 C41 1_555 1_555
H36 C41 1_555 1_555
C42 Mo1 1_555 1_555
C43 C22 1_555 1_555
H37 C43 1_555 1_555
C44 N12 1_555 1_555
H38 C44 1_555 1_555
H39 C44 1_555 1_555
C45 N20 1_555 1_555
H40 C45 1_555 1_555
H41 C45 1_555 1_555
N26 C39 1_555 1_555
C46 N21 1_555 1_555
C47 N10 1_555 1_555
H42 C47 1_555 1_555
H43 C47 1_555 1_555
N27 C53 1_555 1_555
C48 N3 1_555 1_555
H44 C48 1_555 1_555
H45 C48 1_555 1_555
C49 C46 1_555 1_555
H46 C49 1_555 1_555
H47 C49 1_555 1_555
H48 C49 1_555 1_555
C50 C16 1_555 1_555
H49 C50 1_555 1_555
C51 N21 1_555 1_555
H50 C51 1_555 1_555
H51 C51 1_555 1_555
C52 C8 1_555 1_555
H52 C52 1_555 1_555
H53 C52 1_555 1_555
H54 C52 1_555 1_555
C53 Mo2 1_555 1_555
N28 C38 1_555 1_555
C54 N20 1_555 1_555
H55 C54 1_555 1_555
H56 C54 1_555 1_555
C55 C13 1_555 1_555
H57 C55 1_555 1_555
H58 C55 1_555 1_555
H59 C55 1_555 1_555
C56 C26 1_555 1_555
H60 C56 1_555 1_555
H61 C56 1_555 1_555
H62 C56 1_555 1_555
C57 N24 1_555 1_555
H63 C57 1_555 1_555
H64 C57 1_555 1_555
C58 N1 1_555 1_555
C59 N24 1_555 1_555
H65 C59 1_555 1_555
H66 C59 1_555 1_555
C60 Mo1 1_555 1_555
C61 C30 1_555 1_555
H67 C61 1_555 1_555
C62 N25 1_555 1_555
N29 C40 1_555 1_555
N30 C42 1_555 1_555
C63 N33 1_555 1_555
N31 C60 1_555 1_555
C64 Mo1 1_555 1_555
C65 C50 1_555 1_555
H68 C65 1_555 1_555
N32 C64 1_555 1_555
C66 C62 1_555 1_555
H69 C66 1_555 1_555
H70 C66 1_555 1_555
H71 C66 1_555 1_555
N33 Mn3 1_555 1_555
C67 H72 1_555 1_555
C68 N1 1_555 1_555
C69 N25 1_555 1_555
H73 C69 1_555 1_555
H74 C69 1_555 1_555
C70 C67 1_555 1_555
H75 C70 1_555 1_555
C71 C58 1_555 1_555
H76 C71 1_555 1_555
C72 C63 1_555 1_555
H77 C72 1_555 1_555
H78 C72 1_555 1_555
H79 C72 1_555 1_555
N34 C1 1_555 1_555
C73 C2 1_555 1_555
H80 C73 1_555 1_555
H81 C73 1_555 1_555
N35 Mn3 1_555 1_555
C74 C69 1_555 1_555
H82 C74 1_555 1_555
H83 C74 1_555 1_555
C75 C1 1_555 1_555
H84 C75 1_555 1_555
H85 C75 1_555 1_555
N2A Mn4 1_555 1_555
Mn3A N22 1_555 1_555
Mn4A N2 1_555 1_555
N22A Mn3 1_555 1_555
C2 N34 1_555 1_555
Mn3 N34 1_555 1_555
C4 C9 1_555 1_555
N16 C14 1_555 1_555
N17 C12 1_555 1_555
N19 C15 1_555 1_555
C7 C34 1_555 1_555
C13 C16 1_555 1_555
C17 C24 1_555 1_555
C18 C45 1_555 1_555
C19 C46 1_555 1_555
C20 C32 1_555 1_555
C23 C37 1_555 1_555
C28 C43 1_555 1_555
C31 C41 1_555 1_555
C33 C34 1_555 1_555
C33 C36 1_555 1_555
C35 C44 1_555 1_555
C47 C48 1_555 1_555
C51 C59 1_555 1_555
C54 C57 1_555 1_555
C58 C62 1_555 1_555
C61 C65 1_555 1_555
C63 C68 1_555 1_555
N33 C75 1_555 1_555
C67 C68 1_555 1_555
C70 C71 1_555 1_555
C73 N35 1_555 1_555
N35 C74 1_555 1_555

#END
