
#######################################################################
#
#                 Cambridge Crystallographic Data Centre
#                                CCDC 
#
#######################################################################
#
# If this CIF has been generated from an entry in the Cambridge 
# Structural Database, then it will include bibliographic, chemical, 
# crystal, experimental, refinement or atomic coordinate data resulting 
# from the CCDC's data processing and validation procedures.
#
#######################################################################

data_QIXVAW
_symmetry_cell_setting           monoclinic
_symmetry_space_group_name_H-M   'P 21/n'
_symmetry_Int_Tables_number      14
_space_group_name_Hall           '-P 2yn'
loop_
_symmetry_equiv_pos_site_id
_symmetry_equiv_pos_as_xyz
1 x,y,z
2 1/2-x,1/2+y,1/2-z
3 -x,-y,-z
4 1/2+x,1/2-y,1/2+z
_cell_length_a                   12.116(3)
_cell_length_b                   16.351(3)
_cell_length_c                   12.715(3)
_cell_angle_alpha                90
_cell_angle_beta                 117.832(3)
_cell_angle_gamma                90
_cell_volume                     2227.56
loop_
_atom_site_label
_atom_site_type_symbol
_atom_site_fract_x
_atom_site_fract_y
_atom_site_fract_z
Co1 Co 0.84370(2) 0.235808(15) 0.79043(2)
O1 O 0.69834(13) 0.05801(8) 0.23603(13)
O2 O 0.32448(12) 0.37040(8) 0.38124(12)
O3 O 0.67666(13) -0.08300(8) 0.31995(12)
O4 O 0.39998(13) 0.42496(9) 0.56301(13)
N1 N 0.66181(14) 0.22670(9) 0.64131(14)
N2 N 0.50351(14) 0.25106(9) 0.45742(14)
N3 N 0.87041(14) 0.33512(9) 0.69323(14)
C1 C 0.60318(15) 0.20323(11) 0.52611(16)
C2 C 0.65834(16) 0.13258(11) 0.38165(17)
H1 H 0.6607 0.1829 0.3488
N4 N 0.93362(14) 0.17622(10) 0.70320(15)
C3 C 0.63917(18) 0.05390(12) 0.53296(17)
H2 H 0.6307 0.0517 0.6019
C4 C 0.63702(16) 0.12911(11) 0.48056(17)
C5 C 0.73977(19) 0.13265(12) 0.20701(19)
H3 H 0.6768 0.1739 0.1874
H4 H 0.7548 0.1237 0.1402
H5 H 0.8155 0.1504 0.2740
C6 C 0.90874(16) 0.30877(12) 0.61410(16)
C7 C 0.94528(17) 0.22389(11) 0.62120(17)
C8 C 0.40167(16) 0.37118(11) 0.48926(17)
C9 C 0.66804(16) -0.01564(11) 0.38042(16)
C10 C 0.91549(18) 0.36043(12) 0.52821(18)
C11 C 0.67605(16) 0.06099(11) 0.33212(17)
C12 C 0.96949(18) 0.09824(12) 0.7128(2)
H6 H 0.9604 0.0649 0.7675
C13 C 0.84192(17) 0.41411(12) 0.69111(19)
H7 H 0.8185 0.4330 0.7468
C14 C 0.6551(2) -0.16065(12) 0.3600(2)
H8 H 0.7167 -0.1694 0.4411
H9 H 0.6607 -0.2034 0.3110
H10 H 0.5734 -0.1610 0.3548
C15 C 1.0206(2) 0.06446(13) 0.6433(2)
H11 H 1.0467 0.0102 0.6539
C16 C 0.49921(16) 0.30798(11) 0.53421(16)
C17 C 0.65409(18) -0.01847(12) 0.48192(17)
H12 H 0.6546 -0.0686 0.5167
C18 C 0.9991(2) 0.24935(14) 0.46014(19)
H13 H 1.0307 0.2304 0.4106
C19 C 0.84545(18) 0.47008(13) 0.6091(2)
H14 H 0.8248 0.5247 0.6108
C20 C 0.87990(19) 0.44305(13) 0.5261(2)
H15 H 0.8798 0.4788 0.4691
C21 C 0.99240(17) 0.19469(12) 0.54548(18)
C22 C 0.96018(19) 0.32794(14) 0.45057(19)
H16 H 0.9625 0.3614 0.3925
C23 C 1.03173(19) 0.11183(13) 0.5600(2)
H17 H 1.0648 0.0899 0.5133
C24 C 0.59536(16) 0.29287(11) 0.64676(16)
O5 O 0.73634(12) 0.31184(8) 0.84736(12)
O6 O 0.56701(12) 0.39327(9) 0.76713(12)
C25 C 0.63572(17) 0.33563(11) 0.76148(17)
H18 H 0.475(3) 0.411(2) 0.649(4)
Co1C Co 0.34370(2) 0.264192(15) 0.29043(2)
O2C O 0.82448(12) 0.12960(8) 0.88124(12)
N2C N 1.00351(14) 0.24894(9) 0.95742(14)
loop_
_geom_bond_atom_site_label_1
_geom_bond_atom_site_label_2
_geom_bond_site_symmetry_1
_geom_bond_site_symmetry_2
Co1 N1 1_555 1_555
O1 C5 1_555 1_555
O2 C8 1_555 1_555
O3 C9 1_555 1_555
O4 C8 1_555 1_555
N1 C1 1_555 1_555
N2 C1 1_555 1_555
N3 Co1 1_555 1_555
C1 C4 1_555 1_555
C2 H1 1_555 1_555
N4 Co1 1_555 1_555
C3 H2 1_555 1_555
C4 C2 1_555 1_555
C5 H3 1_555 1_555
H4 C5 1_555 1_555
H5 C5 1_555 1_555
C6 N3 1_555 1_555
C7 N4 1_555 1_555
C8 C16 1_555 1_555
C9 C11 1_555 1_555
C10 C6 1_555 1_555
C11 O1 1_555 1_555
C12 N4 1_555 1_555
H6 C12 1_555 1_555
C13 N3 1_555 1_555
H7 C13 1_555 1_555
C14 O3 1_555 1_555
H8 C14 1_555 1_555
H9 C14 1_555 1_555
H10 C14 1_555 1_555
C15 C12 1_555 1_555
H11 C15 1_555 1_555
C16 N2 1_555 1_555
C17 C3 1_555 1_555
H12 C17 1_555 1_555
C18 H13 1_555 1_555
C19 C13 1_555 1_555
H14 C19 1_555 1_555
C20 C10 1_555 1_555
H15 C20 1_555 1_555
C21 C7 1_555 1_555
C22 C10 1_555 1_555
H16 C22 1_555 1_555
C23 C15 1_555 1_555
H17 C23 1_555 1_555
C24 N1 1_555 1_555
O5 Co1 1_555 1_555
O6 C25 1_555 1_555
C25 C24 1_555 1_555
H18 O4 1_555 1_555
Co1C O2 1_555 1_555
O2C Co1 1_555 1_555
N2C Co1 1_555 1_555
N2 Co1C 1_555 1_555
C2 C11 1_555 1_555
C3 C4 1_555 1_555
C6 C7 1_555 1_555
C9 C17 1_555 1_555
C16 C24 1_555 1_555
C18 C21 1_555 1_555
C18 C22 1_555 1_555
C19 C20 1_555 1_555
C21 C23 1_555 1_555
O5 C25 1_555 1_555

#END
