
#######################################################################
#
#                 Cambridge Crystallographic Data Centre
#                                CCDC 
#
#######################################################################
#
# If this CIF has been generated from an entry in the Cambridge 
# Structural Database, then it will include bibliographic, chemical, 
# crystal, experimental, refinement or atomic coordinate data resulting 
# from the CCDC's data processing and validation procedures.
#
#######################################################################

data_QIXWAX
_symmetry_cell_setting           monoclinic
_symmetry_space_group_name_H-M   'P 21'
_symmetry_Int_Tables_number      4
_space_group_name_Hall           'P 2yb'
loop_
_symmetry_equiv_pos_site_id
_symmetry_equiv_pos_as_xyz
1 x,y,z
2 -x,1/2+y,-z
_cell_length_a                   5.24260(10)
_cell_length_b                   12.6544(2)
_cell_length_c                   6.17510(10)
_cell_angle_alpha                90
_cell_angle_beta                 104.9460(10)
_cell_angle_gamma                90
_cell_volume                     395.809
loop_
_atom_site_label
_atom_site_type_symbol
_atom_site_fract_x
_atom_site_fract_y
_atom_site_fract_z
Zn1 Zn 0.07798(3) 0.711817(18) 0.51476(3)
O1 O 0.0372(3) 1.08839(14) -0.0656(3)
N1 N -0.2905(3) 0.94922(13) 0.0879(3)
C1 C -0.1221(4) 0.86921(17) 0.1305(3)
H1 H -0.0264 0.8434 0.0343
O2 O -0.1858(3) 0.61642(14) 0.5920(3)
Cl1 Cl 0.33644(10) 0.76145(5) 0.84065(8)
O3 O -0.2943(3) 1.13411(11) -0.3564(2)
N2 N -0.1128(3) 0.83251(15) 0.3300(3)
C2 C -0.3912(4) 1.00940(17) -0.1158(3)
H2 H -0.5409 1.0508 -0.0999
H3 H -0.4544 0.9605 -0.2389
C3 C -0.1927(4) 1.08272(15) -0.1753(3)
N3 N -0.2827(4) 0.89243(18) 0.4115(3)
N4 N -0.3900(5) 0.96220(17) 0.2660(3)
H4 H -0.339(4) 0.625(2) 0.517(3)
H5 H -0.182(4) 0.607(2) 0.723(3)
Zn1A Zn -0.07798(3) 1.211817(18) -0.51476(3)
O3A O 0.2943(3) 0.63411(11) 0.3564(2)
loop_
_geom_bond_atom_site_label_1
_geom_bond_atom_site_label_2
_geom_bond_site_symmetry_1
_geom_bond_site_symmetry_2
Zn1 O2 1_555 1_555
O1 C3 1_555 1_555
N1 C1 1_555 1_555
C1 H1 1_555 1_555
O2 H4 1_555 1_555
Cl1 Zn1 1_555 1_555
O3 C3 1_555 1_555
N2 Zn1 1_555 1_555
C2 N1 1_555 1_555
H2 C2 1_555 1_555
H3 C2 1_555 1_555
C3 C2 1_555 1_555
N3 N2 1_555 1_555
N4 N1 1_555 1_555
H5 O2 1_555 1_555
Zn1A O3 1_555 1_555
O3A Zn1 1_555 1_555
C1 N2 1_555 1_555
N3 N4 1_555 1_555

#END
