
#######################################################################
#
#                 Cambridge Crystallographic Data Centre
#                                CCDC 
#
#######################################################################
#
# If this CIF has been generated from an entry in the Cambridge 
# Structural Database, then it will include bibliographic, chemical, 
# crystal, experimental, refinement or atomic coordinate data resulting 
# from the CCDC's data processing and validation procedures.
#
#######################################################################

data_QIXWOL
_symmetry_cell_setting           triclinic
_symmetry_space_group_name_H-M   'P -1'
_symmetry_Int_Tables_number      2
_space_group_name_Hall           '-P 1'
loop_
_symmetry_equiv_pos_site_id
_symmetry_equiv_pos_as_xyz
1 x,y,z
2 -x,-y,-z
_cell_length_a                   9.8822(5)
_cell_length_b                   10.1374(6)
_cell_length_c                   15.1677(9)
_cell_angle_alpha                97.825(4)
_cell_angle_beta                 95.141(4)
_cell_angle_gamma                110.684(4)
_cell_volume                     1392.69
loop_
_atom_site_label
_atom_site_type_symbol
_atom_site_fract_x
_atom_site_fract_y
_atom_site_fract_z
Co1 Co 0.0000 0.5000 0.0000
O1 O 0.1421(3) 0.7001(3) 0.07573(19)
H1 H 0.1461 0.7635 0.0466
O2 O -0.1759(3) 0.5699(3) 0.00967(17)
O3 O -0.3277(3) 0.4094(3) 0.07858(18)
N1 N -0.0391(3) 0.3981(3) 0.11889(19)
H2 H -0.1436 0.3646 0.1203
H3 H -0.0141 0.3135 0.1084
C1 C 0.0318(4) 0.4746(4) 0.2078(2)
N2 N 0.4556(5) 0.9230(4) 0.7356(2)
H4 H 0.4074 0.9142 0.7804
H5 H 0.5471 0.9759 0.7441
C2 C 0.1701(4) 0.6246(4) 0.3820(2)
C3 C -0.3020(4) 0.5027(4) 0.0307(2)
C4 C 0.1774(4) 0.4986(4) 0.2350(3)
H6 H 0.2299 0.4655 0.1955
C5 C 0.0246(5) 0.5990(5) 0.3525(3)
H7 H -0.0285 0.6326 0.3912
C6 C 0.2454(4) 0.5720(4) 0.3209(3)
H8 H 0.3431 0.5866 0.3383
C7 C -0.4247(4) 0.5450(4) -0.0089(3)
H9 H -0.4041 0.6447 0.0159
H10 H -0.4256 0.5371 -0.0734
C8 C 0.2435(5) 0.7011(4) 0.4734(3)
C9 C -0.0438(4) 0.5254(4) 0.2675(3)
H11 H -0.1417 0.5098 0.2502
C10 C 0.3840(5) 0.8503(5) 0.6476(3)
C11 C 0.1698(5) 0.6945(5) 0.5476(3)
H12 H 0.0702 0.6399 0.5393
C12 C 0.2381(5) 0.7653(5) 0.6320(3)
H13 H 0.1848 0.7557 0.6798
C13 C 0.3924(5) 0.7855(5) 0.4903(3)
H14 H 0.4472 0.7923 0.4432
C14 C 0.4601(5) 0.8590(6) 0.5754(3)
H15 H 0.5592 0.9157 0.5842
H16 H 0.211(6) 0.706(6) 0.095(3)
O2A O -0.8241(3) 0.4301(3) -0.00967(17)
O3A O -0.6723(3) 0.5906(3) -0.07858(18)
C3A C -0.6980(4) 0.4973(4) -0.0307(2)
C7A C -0.5753(4) 0.4550(4) 0.0089(3)
H9A H -0.5959 0.3553 -0.0159
H10A H -0.5744 0.4629 0.0734
N1A N 0.0391(3) 0.6019(3) -0.11889(19)
H2A H 0.1436 0.6354 -0.1203
H3A H 0.0141 0.6865 -0.1084
C1A C -0.0318(4) 0.5254(4) -0.2078(2)
N2A N -0.4556(5) 0.0770(4) -0.7356(2)
H4A H -0.4074 0.0858 -0.7804
H5A H -0.5471 0.0241 -0.7441
C2A C -0.1701(4) 0.3754(4) -0.3820(2)
C4A C -0.1774(4) 0.5014(4) -0.2350(3)
H6A H -0.2299 0.5345 -0.1955
C5A C -0.0246(5) 0.4010(5) -0.3525(3)
H7A H 0.0285 0.3674 -0.3912
C6A C -0.2454(4) 0.4280(4) -0.3209(3)
H8A H -0.3431 0.4134 -0.3383
C8A C -0.2435(5) 0.2989(4) -0.4734(3)
C9A C 0.0438(4) 0.4746(4) -0.2675(3)
H11A H 0.1417 0.4902 -0.2502
C10A C -0.3840(5) 0.1497(5) -0.6476(3)
C11A C -0.1698(5) 0.3055(5) -0.5476(3)
H12A H -0.0702 0.3601 -0.5393
C12A C -0.2381(5) 0.2347(5) -0.6320(3)
H13A H -0.1848 0.2443 -0.6798
C13A C -0.3924(5) 0.2145(5) -0.4903(3)
H14A H -0.4472 0.2077 -0.4432
C14A C -0.4601(5) 0.1410(6) -0.5754(3)
H15A H -0.5592 0.0843 -0.5842
O1A O -0.1421(3) 0.2999(3) -0.07573(19)
H1A H -0.1461 0.2365 -0.0466
H16A H -0.211(6) 0.294(6) -0.095(3)
Co1_2 Co -1.0000 0.5000 0.0000
O2A_2 O 0.1759(3) 0.4301(3) -0.00967(17)
Co2 Co 0.0000 0.0000 0.0000
O4 O -0.1471(3) -0.1998(3) -0.06996(19)
H17 H -0.1551 -0.2605 -0.0380
O5 O -0.1751(3) 0.0722(3) 0.01068(17)
O6 O -0.3234(3) -0.0755(3) 0.08825(19)
N3 N -0.0417(3) -0.0966(3) 0.12127(19)
H18 H -0.1463 -0.1273 0.1218
H19 H -0.0202 -0.1832 0.1111
C15 C 0.0263(4) -0.0252(4) 0.2112(2)
C16 C 0.0937(4) -0.0867(4) 0.2679(3)
H20 H 0.0989 -0.1750 0.2466
C17 C -0.4245(4) 0.0435(4) -0.0099(3)
H21 H -0.4255 0.0276 -0.0746
H22 H -0.4052 0.1444 0.0097
C18 C 0.2158(5) 0.1893(5) 0.4837(3)
N4 N 0.4015(5) 0.3987(5) 0.7514(2)
H23 H 0.4491 0.4899 0.7631
H24 H 0.3932 0.3495 0.7939
C19 C 0.1514(4) 0.1155(4) 0.3890(3)
C20 C -0.3008(4) 0.0092(4) 0.0341(2)
C21 C 0.0220(5) 0.1076(4) 0.2440(3)
H25 H -0.0241 0.1501 0.2071
C22 C 0.0853(5) 0.1780(5) 0.3310(3)
H26 H 0.0838 0.2682 0.3509
C23 C 0.1538(5) -0.0197(5) 0.3560(3)
H27 H 0.1959 -0.0646 0.3934
C24 C 0.2881(5) 0.3377(5) 0.5047(3)
H28 H 0.2958 0.3915 0.4590
C25 C 0.3368(5) 0.3295(6) 0.6617(3)
C26 C 0.2045(5) 0.1126(5) 0.5544(3)
H29 H 0.1558 0.0136 0.5423
C27 C 0.3483(5) 0.4061(5) 0.5915(3)
H30 H 0.3974 0.5050 0.6035
C28 C 0.2647(5) 0.1812(6) 0.6422(3)
H31 H 0.2568 0.1280 0.6881
H32 H -0.213(6) -0.192(6) -0.096(3)
O5A O -0.8249(3) -0.0722(3) -0.01068(17)
O6A O -0.6766(3) 0.0755(3) -0.08825(19)
C17A C -0.5755(4) -0.0435(4) 0.0099(3)
H21A H -0.5745 -0.0276 0.0746
H22A H -0.5948 -0.1444 -0.0097
C20A C -0.6992(4) -0.0092(4) -0.0341(2)
N3A N 0.0417(3) 0.0966(3) -0.12127(19)
H18A H 0.1463 0.1273 -0.1218
H19A H 0.0202 0.1832 -0.1111
C15A C -0.0263(4) 0.0252(4) -0.2112(2)
C16A C -0.0937(4) 0.0867(4) -0.2679(3)
H20A H -0.0989 0.1750 -0.2466
C18A C -0.2158(5) -0.1893(5) -0.4837(3)
N4A N -0.4015(5) -0.3987(5) -0.7514(2)
H23A H -0.4491 -0.4899 -0.7631
H24A H -0.3932 -0.3495 -0.7939
C19A C -0.1514(4) -0.1155(4) -0.3890(3)
C21A C -0.0220(5) -0.1076(4) -0.2440(3)
H25A H 0.0241 -0.1501 -0.2071
C22A C -0.0853(5) -0.1780(5) -0.3310(3)
H26A H -0.0838 -0.2682 -0.3509
C23A C -0.1538(5) 0.0197(5) -0.3560(3)
H27A H -0.1959 0.0646 -0.3934
C24A C -0.2881(5) -0.3377(5) -0.5047(3)
H28A H -0.2958 -0.3915 -0.4590
C25A C -0.3368(5) -0.3295(6) -0.6617(3)
C26A C -0.2045(5) -0.1126(5) -0.5544(3)
H29A H -0.1558 -0.0136 -0.5423
C27A C -0.3483(5) -0.4061(5) -0.5915(3)
H30A H -0.3974 -0.5050 -0.6035
C28A C -0.2647(5) -0.1812(6) -0.6422(3)
H31A H -0.2568 -0.1280 -0.6881
O4A O 0.1471(3) 0.1998(3) 0.06996(19)
H17A H 0.1551 0.2605 0.0380
H32A H 0.213(6) 0.192(6) 0.096(3)
Co2_2 Co -1.0000 0.0000 0.0000
O5A_2 O 0.1751(3) -0.0722(3) -0.01068(17)
O7 O 0.4267(3) 0.7524(3) 0.1586(2)
O8 O 0.5724(4) 0.7434(4) 0.8349(2)
loop_
_geom_bond_atom_site_label_1
_geom_bond_atom_site_label_2
_geom_bond_site_symmetry_1
_geom_bond_site_symmetry_2
Co1 O1 1_555 1_555
O1 H1 1_555 1_555
O2 Co1 1_555 1_555
O3 C3 1_555 1_555
N1 Co1 1_555 1_555
H2 N1 1_555 1_555
H3 N1 1_555 1_555
C1 N1 1_555 1_555
N2 H4 1_555 1_555
H5 N2 1_555 1_555
C2 C5 1_555 1_555
C3 O2 1_555 1_555
C4 C1 1_555 1_555
H6 C4 1_555 1_555
C5 H7 1_555 1_555
C6 C2 1_555 1_555
H8 C6 1_555 1_555
C7 C3 1_555 1_555
H9 C7 1_555 1_555
H10 C7 1_555 1_555
C8 C2 1_555 1_555
C9 C1 1_555 1_555
H11 C9 1_555 1_555
C10 N2 1_555 1_555
C11 C8 1_555 1_555
H12 C11 1_555 1_555
C12 C10 1_555 1_555
H13 C12 1_555 1_555
C13 C8 1_555 1_555
H14 C13 1_555 1_555
C14 C10 1_555 1_555
H15 C14 1_555 1_555
H16 O1 1_555 1_555
Co2 O4 1_555 1_555
O4 H17 1_555 1_555
O5 Co2 1_555 1_555
O6 C20 1_555 1_555
N3 Co2 1_555 1_555
H18 N3 1_555 1_555
H19 N3 1_555 1_555
C15 N3 1_555 1_555
C16 C15 1_555 1_555
H20 C16 1_555 1_555
C17 H21 1_555 1_555
H22 C17 1_555 1_555
C18 C19 1_555 1_555
N4 H23 1_555 1_555
H24 N4 1_555 1_555
C19 C22 1_555 1_555
C20 O5 1_555 1_555
C21 C15 1_555 1_555
H25 C21 1_555 1_555
C22 C21 1_555 1_555
H26 C22 1_555 1_555
C23 C16 1_555 1_555
H27 C23 1_555 1_555
C24 C18 1_555 1_555
H28 C24 1_555 1_555
C25 N4 1_555 1_555
C26 C18 1_555 1_555
H29 C26 1_555 1_555
C27 C24 1_555 1_555
H30 C27 1_555 1_555
C28 C25 1_555 1_555
H31 C28 1_555 1_555
H32 O4 1_555 1_555
O2A C3A 1_555 1_555
O3A C3A 1_555 1_555
C3A C7A 1_555 1_555
C7A C7 1_555 1_555
H9A C7A 1_555 1_555
H10A C7A 1_555 1_555
N1A Co1 1_555 1_555
H2A N1A 1_555 1_555
H3A N1A 1_555 1_555
C1A N1A 1_555 1_555
N2A H4A 1_555 1_555
H5A N2A 1_555 1_555
C2A C5A 1_555 1_555
C4A C1A 1_555 1_555
H6A C4A 1_555 1_555
C5A H7A 1_555 1_555
C6A C2A 1_555 1_555
H8A C6A 1_555 1_555
C8A C2A 1_555 1_555
C9A C1A 1_555 1_555
H11A C9A 1_555 1_555
C10A N2A 1_555 1_555
C11A C8A 1_555 1_555
H12A C11A 1_555 1_555
C12A C10A 1_555 1_555
H13A C12A 1_555 1_555
C13A C8A 1_555 1_555
H14A C13A 1_555 1_555
C14A C10A 1_555 1_555
H15A C14A 1_555 1_555
O1A Co1 1_555 1_555
H1A O1A 1_555 1_555
H16A O1A 1_555 1_555
Co1_2 O2A 1_555 1_555
O2A_2 Co1 1_555 1_555
O5A C20A 1_555 1_555
O6A C20A 1_555 1_555
C17A C17 1_555 1_555
H21A C17A 1_555 1_555
H22A C17A 1_555 1_555
C20A C17A 1_555 1_555
N3A Co2 1_555 1_555
H18A N3A 1_555 1_555
H19A N3A 1_555 1_555
C15A N3A 1_555 1_555
C16A C15A 1_555 1_555
H20A C16A 1_555 1_555
C18A C19A 1_555 1_555
N4A H23A 1_555 1_555
H24A N4A 1_555 1_555
C19A C22A 1_555 1_555
C21A C15A 1_555 1_555
H25A C21A 1_555 1_555
C22A C21A 1_555 1_555
H26A C22A 1_555 1_555
C23A C16A 1_555 1_555
H27A C23A 1_555 1_555
C24A C18A 1_555 1_555
H28A C24A 1_555 1_555
C25A N4A 1_555 1_555
C26A C18A 1_555 1_555
H29A C26A 1_555 1_555
C27A C24A 1_555 1_555
H30A C27A 1_555 1_555
C28A C25A 1_555 1_555
H31A C28A 1_555 1_555
O4A Co2 1_555 1_555
H17A O4A 1_555 1_555
H32A O4A 1_555 1_555
Co2_2 O5A 1_555 1_555
O5A_2 Co2 1_555 1_555
C4 C6 1_555 1_555
C5 C9 1_555 1_555
C11 C12 1_555 1_555
C13 C14 1_555 1_555
C17 C20 1_555 1_555
C19 C23 1_555 1_555
C25 C27 1_555 1_555
C26 C28 1_555 1_555
C4A C6A 1_555 1_555
C5A C9A 1_555 1_555
C11A C12A 1_555 1_555
C13A C14A 1_555 1_555
C19A C23A 1_555 1_555
C25A C27A 1_555 1_555
C26A C28A 1_555 1_555

#END
