
#######################################################################
#
#                 Cambridge Crystallographic Data Centre
#                                CCDC 
#
#######################################################################
#
# If this CIF has been generated from an entry in the Cambridge 
# Structural Database, then it will include bibliographic, chemical, 
# crystal, experimental, refinement or atomic coordinate data resulting 
# from the CCDC's data processing and validation procedures.
#
#######################################################################

data_QIXYIG
_symmetry_cell_setting           triclinic
_symmetry_space_group_name_H-M   'P -1'
_symmetry_Int_Tables_number      2
_space_group_name_Hall           '-P 1'
loop_
_symmetry_equiv_pos_site_id
_symmetry_equiv_pos_as_xyz
1 x,y,z
2 -x,-y,-z
_cell_length_a                   6.8312(14)
_cell_length_b                   8.8918(18)
_cell_length_c                   13.958(3)
_cell_angle_alpha                100.73(3)
_cell_angle_beta                 102.25(3)
_cell_angle_gamma                94.80(3)
_cell_volume                     807.314
loop_
_atom_site_label
_atom_site_type_symbol
_atom_site_fract_x
_atom_site_fract_y
_atom_site_fract_z
N1 N 0.0453(3) 0.2654(2) 0.33819(13)
C1 C -0.0591(4) 0.3374(3) 0.40185(17)
H1 H -0.0629 0.3109 0.4629
N2 N -0.1544(3) 0.4473(2) 0.37018(14)
C2 C 0.0113(3) 0.3377(2) 0.26225(16)
H2 H 0.0618 0.3152 0.2051
N3 N -0.1051(3) 0.44659(19) 0.28005(13)
C3 C -0.1838(3) 0.5504(2) 0.21587(16)
H3 H -0.1915 0.6495 0.2569
H4 H -0.0934 0.5667 0.1727
Zn1 Zn 0.24526(4) 0.11299(3) 0.362886(17)
Cl1 Cl 0.08549(8) -0.10895(6) 0.37506(4)
Cl2 Cl 0.43327(8) 0.11485(6) 0.25018(4)
N4 N -0.6222(3) 0.6057(2) 0.37818(14)
N5 N -0.5190(3) 0.70617(19) 0.33760(13)
N6 N -0.4133(3) 0.78642(19) 0.49858(13)
N7 N -0.7515(3) 0.4785(2) 0.11217(13)
N8 N -0.3955(3) 0.35513(19) 0.08504(13)
C4 C -0.5709(3) 0.5477(2) 0.16455(15)
C5 C -0.7585(3) 0.3430(2) 0.04482(15)
C6 C -0.5538(3) 0.6584(2) 0.47489(16)
H5 H -0.5969 0.6129 0.5229
C7 C -0.3922(3) 0.4818(2) 0.15236(15)
C8 C -0.3973(3) 0.8137(2) 0.40997(16)
H6 H -0.3144 0.8949 0.4000
C9 C -0.5783(3) 0.2840(2) 0.02904(14)
C10 C -0.7783(3) 0.0728(2) -0.09939(16)
H7 H -0.7868 -0.0159 -0.1483
C11 C -0.5925(3) 0.1486(2) -0.04488(16)
H8 H -0.4754 0.1103 -0.0568
C12 C -0.9503(3) 0.2639(2) -0.01042(15)
H9 H -1.0690 0.3008 0.0004
C13 C -0.5715(3) 0.7031(2) 0.23020(15)
H10 H -0.7048 0.7347 0.2131
H11 H -0.4766 0.7781 0.2155
C14 C -0.9557(4) 0.1309(3) -0.08034(17)
H12 H -1.0805 0.0776 -0.1162
Zn1A Zn -0.24526(4) 0.88701(3) 0.637114(17)
N6A N 0.4133(3) 0.21358(19) 0.50142(13)
loop_
_geom_bond_atom_site_label_1
_geom_bond_atom_site_label_2
_geom_bond_site_symmetry_1
_geom_bond_site_symmetry_2
N1 C1 1_555 1_555
C1 H1 1_555 1_555
N2 C1 1_555 1_555
C2 N1 1_555 1_555
H2 C2 1_555 1_555
N3 N2 1_555 1_555
C3 N3 1_555 1_555
H3 C3 1_555 1_555
H4 C3 1_555 1_555
Zn1 N1 1_555 1_555
Cl1 Zn1 1_555 1_555
Cl2 Zn1 1_555 1_555
N4 N5 1_555 1_555
N5 C8 1_555 1_555
N6 C6 1_555 1_555
N7 C4 1_555 1_555
N8 C7 1_555 1_555
C4 C7 1_555 1_555
C5 N7 1_555 1_555
C6 N4 1_555 1_555
H5 C6 1_555 1_555
C7 C3 1_555 1_555
C8 N6 1_555 1_555
H6 C8 1_555 1_555
C9 N8 1_555 1_555
C10 H7 1_555 1_555
C11 C9 1_555 1_555
H8 C11 1_555 1_555
C12 C5 1_555 1_555
H9 C12 1_555 1_555
C13 N5 1_555 1_555
H10 C13 1_555 1_555
H11 C13 1_555 1_555
C14 C10 1_555 1_555
H12 C14 1_555 1_555
Zn1A N6 1_555 1_555
N6A Zn1 1_555 1_555
C2 N3 1_555 1_555
C4 C13 1_555 1_555
C5 C9 1_555 1_555
C10 C11 1_555 1_555
C12 C14 1_555 1_555

#END
