
#######################################################################
#
#                 Cambridge Crystallographic Data Centre
#                                CCDC 
#
#######################################################################
#
# If this CIF has been generated from an entry in the Cambridge 
# Structural Database, then it will include bibliographic, chemical, 
# crystal, experimental, refinement or atomic coordinate data resulting 
# from the CCDC's data processing and validation procedures.
#
#######################################################################

data_QIXYON
_symmetry_cell_setting           triclinic
_symmetry_space_group_name_H-M   'P -1'
_symmetry_Int_Tables_number      2
_space_group_name_Hall           '-P 1'
loop_
_symmetry_equiv_pos_site_id
_symmetry_equiv_pos_as_xyz
1 x,y,z
2 -x,-y,-z
_cell_length_a                   10.8123(3)
_cell_length_b                   11.1869(4)
_cell_length_c                   14.1734(5)
_cell_angle_alpha                66.837(2)
_cell_angle_beta                 88.609(3)
_cell_angle_gamma                77.171(3)
_cell_volume                     1533.01
loop_
_atom_site_label
_atom_site_type_symbol
_atom_site_fract_x
_atom_site_fract_y
_atom_site_fract_z
Zn1 Zn 0.296833(16) 0.690205(18) 0.633791(13)
N1 N 0.33687(12) 0.72701(13) 0.47172(9)
N2 N 0.33317(12) 0.86314(13) 0.08782(9)
N3 N 0.03707(14) 1.06899(16) -0.23216(11)
N4 N 1.25565(13) 0.64508(14) -0.19079(10)
N5 N 1.32480(15) 0.5866(2) -0.01732(12)
C1 C 0.25281(15) 0.80398(17) 0.39139(12)
H1 H 0.1720 0.8418 0.4044
C2 C 0.27955(15) 0.83013(17) 0.29056(12)
H2 H 0.2179 0.8851 0.2376
C3 C 0.39852(14) 0.77431(15) 0.26808(11)
C4 C 0.48540(15) 0.69228(16) 0.35145(12)
H3 H 0.5660 0.6509 0.3409
C5 C 0.45123(15) 0.67299(16) 0.44939(12)
H4 H 0.5114 0.6189 0.5037
C6 C 0.43053(14) 0.80133(15) 0.16000(11)
C7 C 0.55522(15) 0.76562(16) 0.13603(12)
H5 H 0.6201 0.7233 0.1882
C8 C 0.58299(14) 0.79317(15) 0.03428(11)
C9 C 0.48151(15) 0.85629(16) -0.03946(11)
H6 H 0.4954 0.8767 -0.1085
C10 C 0.35908(14) 0.88905(15) -0.01025(11)
C11 C 0.14454(17) 0.99722(19) -0.24894(13)
H7 H 0.1481 0.9847 -0.3101
C12 C 0.25063(16) 0.94049(17) -0.18096(12)
H8 H 0.3235 0.8925 -0.1974
C13 C 0.24890(14) 0.95472(15) -0.08817(11)
C14 C 0.13783(15) 1.03045(17) -0.07020(13)
H9 H 0.1315 1.0444 -0.0096
C15 C 0.03701(16) 1.08470(19) -0.14361(14)
H10 H -0.0362 1.1359 -0.1304
C16 C 0.71548(14) 0.75878(15) 0.00590(11)
C17 C 0.75134(15) 0.82340(17) -0.09314(12)
H11 H 0.6904 0.8871 -0.1435
C18 C 0.87580(16) 0.79450(18) -0.11794(12)
H12 H 0.8975 0.8393 -0.1845
C19 C 0.96918(15) 0.69902(16) -0.04441(12)
C20 C 0.93316(15) 0.63407(16) 0.05397(12)
H13 H 0.9939 0.5697 0.1041
C21 C 0.80884(15) 0.66303(16) 0.07896(12)
H14 H 0.7873 0.6179 0.1455
C22 C 1.10263(15) 0.66676(16) -0.07017(12)
C23 C 1.13588(15) 0.67731(16) -0.16742(12)
H15 H 1.0714 0.7085 -0.2194
C24 C 1.34408(16) 0.5980(2) -0.11301(14)
H16 H 1.4275 0.5705 -0.1272
C25 C 1.20427(17) 0.6233(2) 0.00212(14)
H17 H 1.1875 0.6195 0.0678
O1 O 0.11276(11) 0.79547(12) 0.59548(9)
O2 O 0.23962(11) 0.51821(11) 0.65484(9)
C26 C 0.01887(16) 0.7512(2) 0.58445(12)
C27 C 0.02276(18) 0.6193(2) 0.60190(16)
H18 H -0.0538 0.6001 0.5910
C28 C 0.12912(19) 0.51221(19) 0.63405(13)
C29 C -0.1067(2) 0.8529(3) 0.5522(2)
H19 H -0.1399 0.8690 0.6106
H20 H -0.1657 0.8194 0.5254
H21 H -0.0943 0.9348 0.5000
C30 C 0.1134(3) 0.3759(3) 0.6480(2)
H22 H 0.1622 0.3475 0.6000
H23 H 0.0253 0.3799 0.6361
H24 H 0.1427 0.3134 0.7169
O3 O 0.47730(10) 0.58383(12) 0.68611(9)
O4 O 0.34899(12) 0.86077(12) 0.62240(10)
C31 C 0.57047(17) 0.6296(2) 0.69526(13)
C32 C 0.5658(2) 0.7625(3) 0.67737(16)
H25 H 0.6411 0.7821 0.6906
C33 C 0.4589(2) 0.8690(2) 0.64145(14)
C34 C 0.6962(2) 0.5284(3) 0.7260(2)
H26 H 0.6861 0.4488 0.7823
H27 H 0.7579 0.5649 0.7467
H28 H 0.7247 0.5071 0.6686
C35 C 0.4740(3) 1.0077(3) 0.62320(19)
H29 H 0.4288 1.0710 0.5594
H30 H 0.5626 1.0089 0.6201
H31 H 0.4403 1.0311 0.6785
Zn1_2 Zn 1.296833(16) 0.690205(18) -0.366209(13)
N4_2 N 0.25565(13) 0.64508(14) 0.80921(10)
loop_
_geom_bond_atom_site_label_1
_geom_bond_atom_site_label_2
_geom_bond_site_symmetry_1
_geom_bond_site_symmetry_2
Zn1 N1 1_555 1_555
N1 C1 1_555 1_555
N2 C6 1_555 1_555
N3 C11 1_555 1_555
N4 C23 1_555 1_555
N5 C24 1_555 1_555
C1 H1 1_555 1_555
C2 C1 1_555 1_555
H2 C2 1_555 1_555
C3 C2 1_555 1_555
C4 C3 1_555 1_555
H3 C4 1_555 1_555
C5 N1 1_555 1_555
H4 C5 1_555 1_555
C6 C3 1_555 1_555
C7 C6 1_555 1_555
H5 C7 1_555 1_555
C8 C7 1_555 1_555
C9 C8 1_555 1_555
H6 C9 1_555 1_555
C10 N2 1_555 1_555
C11 H7 1_555 1_555
C12 C11 1_555 1_555
H8 C12 1_555 1_555
C13 C10 1_555 1_555
C14 C13 1_555 1_555
H9 C14 1_555 1_555
C15 N3 1_555 1_555
H10 C15 1_555 1_555
C16 C8 1_555 1_555
C17 C16 1_555 1_555
H11 C17 1_555 1_555
C18 C17 1_555 1_555
H12 C18 1_555 1_555
C19 C18 1_555 1_555
C20 C19 1_555 1_555
H13 C20 1_555 1_555
C21 C16 1_555 1_555
H14 C21 1_555 1_555
C22 C19 1_555 1_555
C23 C22 1_555 1_555
H15 C23 1_555 1_555
C24 N4 1_555 1_555
H16 C24 1_555 1_555
C25 N5 1_555 1_555
H17 C25 1_555 1_555
O1 Zn1 1_555 1_555
O2 Zn1 1_555 1_555
C26 O1 1_555 1_555
C27 C26 1_555 1_555
H18 C27 1_555 1_555
C28 O2 1_555 1_555
C29 C26 1_555 1_555
H19 C29 1_555 1_555
H20 C29 1_555 1_555
H21 C29 1_555 1_555
C30 C28 1_555 1_555
H22 C30 1_555 1_555
H23 C30 1_555 1_555
H24 C30 1_555 1_555
O3 Zn1 1_555 1_555
O4 Zn1 1_555 1_555
C31 O3 1_555 1_555
C32 C31 1_555 1_555
H25 C32 1_555 1_555
C33 O4 1_555 1_555
C34 C31 1_555 1_555
H26 C34 1_555 1_555
H27 C34 1_555 1_555
H28 C34 1_555 1_555
C35 C33 1_555 1_555
H29 C35 1_555 1_555
H30 C35 1_555 1_555
H31 C35 1_555 1_555
Zn1_2 N4 1_555 1_555
N4_2 Zn1 1_555 1_555
C4 C5 1_555 1_555
C9 C10 1_555 1_555
C12 C13 1_555 1_555
C14 C15 1_555 1_555
C20 C21 1_555 1_555
C22 C25 1_555 1_555
C27 C28 1_555 1_555
C32 C33 1_555 1_555

#END
