
#######################################################################
#
#                 Cambridge Crystallographic Data Centre
#                                CCDC 
#
#######################################################################
#
# If this CIF has been generated from an entry in the Cambridge 
# Structural Database, then it will include bibliographic, chemical, 
# crystal, experimental, refinement or atomic coordinate data resulting 
# from the CCDC's data processing and validation procedures.
#
#######################################################################

data_QIXYUS
_symmetry_cell_setting           monoclinic
_symmetry_space_group_name_H-M   'P 2/n'
_symmetry_Int_Tables_number      13
_space_group_name_Hall           '-P 2yac'
loop_
_symmetry_equiv_pos_site_id
_symmetry_equiv_pos_as_xyz
1 x,y,z
2 1/2-x,y,1/2-z
3 -x,-y,-z
4 1/2+x,-y,1/2+z
_cell_length_a                   14.215(3)
_cell_length_b                   7.3867(15)
_cell_length_c                   16.862(3)
_cell_angle_alpha                90
_cell_angle_beta                 113.93(3)
_cell_angle_gamma                90
_cell_volume                     1618.35
loop_
_atom_site_label
_atom_site_type_symbol
_atom_site_fract_x
_atom_site_fract_y
_atom_site_fract_z
Mn1 Mn 0.5000 0.0000 0.5000
N1 N -0.1149(3) 0.3307(5) 0.3761(2)
N2 N 0.0911(3) 0.2184(5) 0.4479(2)
N3 N -0.1130(3) 0.2364(5) 0.1738(2)
C1 C -0.0678(3) 0.2872(6) 0.4612(3)
N4 N 0.2159(3) 0.2580(5) 0.3619(2)
N5 N 0.3730(3) 0.1749(5) 0.4330(2)
C2 C 0.0365(4) 0.2271(6) 0.4978(3)
N6 N -0.1572(3) 0.0704(6) 0.1699(3)
C3 C -0.0619(3) 0.3184(5) 0.3286(3)
C4 C 0.2796(3) 0.1204(6) 0.3818(3)
H1 H 0.2616 0.0021 0.3627
C5 C -0.1149(3) 0.3737(6) 0.2352(3)
H2 H -0.1860 0.4028 0.2229
H3 H -0.0824 0.4827 0.2263
C6 C -0.1209(4) 0.3028(7) 0.5156(3)
H4 H -0.1885 0.3444 0.4929
N7 N 0.2655(3) 0.4092(6) 0.4003(3)
C7 C 0.0448(3) 0.2641(6) 0.3661(3)
C8 C 0.1058(3) 0.2596(7) 0.3110(3)
H5 H 0.0867 0.1525 0.2746
H6 H 0.0881 0.3646 0.2733
C9 C -0.0699(3) 0.2427(6) 0.1178(3)
H7 H -0.0359 0.3430 0.1089
C10 C 0.0279(5) 0.1948(7) 0.6360(3)
H8 H 0.0587 0.1630 0.6943
C11 C 0.0824(4) 0.1798(7) 0.5860(3)
H9 H 0.1499 0.1382 0.6102
C12 C 0.3599(3) 0.3533(6) 0.4416(3)
H10 H 0.4136 0.4300 0.4742
C13 C -0.0747(5) 0.2578(7) 0.6008(3)
H11 H -0.1106 0.2684 0.6360
O1 O 0.5725(3) 0.2267(4) 0.5847(2)
N8 N -0.0815(3) 0.0873(5) 0.0760(2)
C14 C -0.1370(4) -0.0112(6) 0.1089(3)
H12 H -0.1595 -0.1280 0.0901
N9 N 0.5770(3) 0.2464(5) 0.6607(2)
O2 O 0.6168(4) 0.1296(6) 0.7151(3)
O3 O 0.5372(4) 0.3804(6) 0.6757(3)
Mn1C Mn 0.0000 0.0000 0.0000
Mn1C_2 Mn 1.0000 0.0000 1.0000
N1B N 1.1149(3) -0.3307(5) 0.6239(2)
N2B N 0.9089(3) -0.2184(5) 0.5521(2)
N3B N 1.1130(3) -0.2364(5) 0.8262(2)
C1B C 1.0678(3) -0.2872(6) 0.5388(3)
N4B N 0.7841(3) -0.2580(5) 0.6381(2)
N5B N 0.6270(3) -0.1749(5) 0.5670(2)
C2B C 0.9635(4) -0.2271(6) 0.5022(3)
N6B N 1.1572(3) -0.0704(6) 0.8301(3)
C3B C 1.0619(3) -0.3184(5) 0.6714(3)
C4B C 0.7204(3) -0.1204(6) 0.6182(3)
H1B H 0.7384 -0.0021 0.6373
C5B C 1.1149(3) -0.3737(6) 0.7648(3)
H2B H 1.1860 -0.4028 0.7771
H3B H 1.0824 -0.4827 0.7737
C6B C 1.1209(4) -0.3028(7) 0.4844(3)
H4B H 1.1885 -0.3444 0.5071
N7B N 0.7345(3) -0.4092(6) 0.5997(3)
C7B C 0.9552(3) -0.2641(6) 0.6339(3)
C8B C 0.8942(3) -0.2596(7) 0.6890(3)
H5B H 0.9133 -0.1525 0.7254
H6B H 0.9119 -0.3646 0.7267
C9B C 1.0699(3) -0.2427(6) 0.8822(3)
H7B H 1.0359 -0.3430 0.8911
C10B C 0.9721(5) -0.1948(7) 0.3640(3)
H8B H 0.9413 -0.1630 0.3057
C11B C 0.9176(4) -0.1798(7) 0.4140(3)
H9B H 0.8501 -0.1382 0.3898
C12B C 0.6401(3) -0.3533(6) 0.5584(3)
H10B H 0.5864 -0.4300 0.5258
C13B C 1.0747(5) -0.2578(7) 0.3992(3)
H11B H 1.1106 -0.2684 0.3640
O1B O 0.4275(3) -0.2267(4) 0.4153(2)
N8B N 1.0815(3) -0.0873(5) 0.9240(2)
N8C N 0.4185(3) -0.0873(5) 0.5760(2)
N8A N 0.5815(3) 0.0873(5) 0.4240(2)
C14B C 1.1370(4) 0.0112(6) 0.8911(3)
H12B H 1.1595 0.1280 0.9099
N9B N 0.4230(3) -0.2464(5) 0.3393(2)
O2B O 0.3832(4) -0.1296(6) 0.2849(3)
O3B O 0.4628(4) -0.3804(6) 0.3243(3)
loop_
_geom_bond_atom_site_label_1
_geom_bond_atom_site_label_2
_geom_bond_site_symmetry_1
_geom_bond_site_symmetry_2
Mn1 N5 1_555 1_555
N1 C1 1_555 1_555
N2 C2 1_555 1_555
N3 N6 1_555 1_555
C1 C2 1_555 1_555
N4 C4 1_555 1_555
N5 C4 1_555 1_555
C2 C11 1_555 1_555
N6 C14 1_555 1_555
C3 N1 1_555 1_555
C4 H1 1_555 1_555
C5 N3 1_555 1_555
H2 C5 1_555 1_555
H3 C5 1_555 1_555
C6 C1 1_555 1_555
H4 C6 1_555 1_555
N7 N4 1_555 1_555
C7 N2 1_555 1_555
C8 N4 1_555 1_555
H5 C8 1_555 1_555
H6 C8 1_555 1_555
C9 N3 1_555 1_555
H7 C9 1_555 1_555
C10 H8 1_555 1_555
C11 C10 1_555 1_555
H9 C11 1_555 1_555
C12 N5 1_555 1_555
H10 C12 1_555 1_555
C13 C6 1_555 1_555
H11 C13 1_555 1_555
O1 Mn1 1_555 1_555
N8 C9 1_555 1_555
C14 N8 1_555 1_555
H12 C14 1_555 1_555
N9 O1 1_555 1_555
O2 N9 1_555 1_555
O3 N9 1_555 1_555
Mn1C N8 1_555 1_555
Mn1C_2 N8B 1_555 1_555
N1B C1B 1_555 1_555
N2B C2B 1_555 1_555
N3B N6B 1_555 1_555
C1B C2B 1_555 1_555
N4B C4B 1_555 1_555
N5B Mn1 1_555 1_555
C2B C11B 1_555 1_555
N6B C14B 1_555 1_555
C3B N1B 1_555 1_555
C4B N5B 1_555 1_555
H1B C4B 1_555 1_555
C5B N3B 1_555 1_555
H2B C5B 1_555 1_555
H3B C5B 1_555 1_555
C6B C1B 1_555 1_555
H4B C6B 1_555 1_555
N7B N4B 1_555 1_555
C7B N2B 1_555 1_555
C8B N4B 1_555 1_555
H5B C8B 1_555 1_555
H6B C8B 1_555 1_555
C9B N3B 1_555 1_555
H7B C9B 1_555 1_555
C10B H8B 1_555 1_555
C11B C10B 1_555 1_555
H9B C11B 1_555 1_555
C12B N5B 1_555 1_555
H10B C12B 1_555 1_555
C13B C6B 1_555 1_555
H11B C13B 1_555 1_555
O1B Mn1 1_555 1_555
N8B C9B 1_555 1_555
N8C Mn1 1_555 1_555
N8A Mn1 1_555 1_555
C14B N8B 1_555 1_555
H12B C14B 1_555 1_555
N9B O1B 1_555 1_555
O2B N9B 1_555 1_555
O3B N9B 1_555 1_555
C3 C5 1_555 1_555
C3 C7 1_555 1_555
N7 C12 1_555 1_555
C7 C8 1_555 1_555
C10 C13 1_555 1_555
C3B C5B 1_555 1_555
C3B C7B 1_555 1_555
N7B C12B 1_555 1_555
C7B C8B 1_555 1_555
C10B C13B 1_555 1_555

#END
