
#######################################################################
#
#                 Cambridge Crystallographic Data Centre
#                                CCDC 
#
#######################################################################
#
# If this CIF has been generated from an entry in the Cambridge 
# Structural Database, then it will include bibliographic, chemical, 
# crystal, experimental, refinement or atomic coordinate data resulting 
# from the CCDC's data processing and validation procedures.
#
#######################################################################

data_QIXYOM
_symmetry_cell_setting           monoclinic
_symmetry_space_group_name_H-M   'P 2/n'
_symmetry_Int_Tables_number      13
_space_group_name_Hall           '-P 2yac'
loop_
_symmetry_equiv_pos_site_id
_symmetry_equiv_pos_as_xyz
1 x,y,z
2 1/2-x,y,1/2-z
3 -x,-y,-z
4 1/2+x,-y,1/2+z
_cell_length_a                   14.224(3)
_cell_length_b                   7.3856(14)
_cell_length_c                   16.853(3)
_cell_angle_alpha                90
_cell_angle_beta                 113.880(3)
_cell_angle_gamma                90
_cell_volume                     1618.9
loop_
_atom_site_label
_atom_site_type_symbol
_atom_site_fract_x
_atom_site_fract_y
_atom_site_fract_z
O1 O -0.1168(2) 0.3671(3) 0.28525(14)
O2 O -0.0368(2) 0.1160(3) 0.32455(16)
N1 N -0.12658(15) 0.6734(3) 0.43265(14)
C1 C -0.1410(2) 0.8508(4) 0.44191(19)
H1 H -0.0877 0.9270 0.4754
Zn1 Zn 0.0000 0.5000 0.5000
N2 N -0.61574(16) 0.8307(3) 0.37580(14)
N3 N -0.61359(15) 0.7337(3) 0.17369(13)
N4 N -0.40884(16) 0.7168(3) 0.44814(14)
C2 C -0.5673(2) 0.7879(3) 0.46210(17)
N5 N -0.58098(15) 0.5854(3) 0.07609(13)
C3 C -0.56140(19) 0.8169(3) 0.32888(17)
C4 C -0.4646(2) 0.7277(4) 0.49774(17)
N6 N -0.65790(18) 0.5690(3) 0.16924(15)
C5 C -0.56931(19) 0.7402(4) 0.11783(16)
H2 H -0.5348 0.8403 0.1094
C6 C -0.61624(19) 0.8722(4) 0.23449(16)
H3 H -0.5847 0.9819 0.2249
H4 H -0.6874 0.8998 0.2226
C7 C -0.6214(2) 0.8048(4) 0.51554(19)
H5 H -0.6890 0.8459 0.4924
C8 C -0.45619(19) 0.7615(3) 0.36616(17)
C9 C -0.4730(3) 0.6959(4) 0.63618(19)
H6 H -0.4427 0.6635 0.6944
C10 C -0.4182(2) 0.6797(4) 0.58669(19)
H7 H -0.3508 0.6375 0.6110
C11 C -0.5745(3) 0.7606(4) 0.6012(2)
H8 H -0.6099 0.7734 0.6367
C12 C -0.6367(2) 0.4860(4) 0.10990(18)
H9 H -0.6580 0.3681 0.0922
C13 C -0.39496(18) 0.7562(4) 0.31037(18)
H10 H -0.4125 0.8611 0.2725
H11 H -0.4139 0.6488 0.2742
N7 N -0.28510(16) 0.7547(3) 0.36176(14)
N8 N -0.23541(17) 0.9088(3) 0.40057(17)
C14 C -0.21961(19) 0.6176(4) 0.38185(17)
H12 H -0.2368 0.4991 0.3629
O3 O -0.07164(15) 0.2720(3) 0.41660(12)
N9 N -0.07602(17) 0.2518(3) 0.34039(15)
O1B O 0.1168(2) 0.6329(3) 0.71475(14)
O2B O 0.0368(2) 0.8840(3) 0.67545(16)
N1B N 0.12658(15) 0.3266(3) 0.56735(14)
C1B C 0.1410(2) 0.1492(4) 0.55809(19)
H1B H 0.0877 0.0730 0.5246
Zn1C Zn -0.5000 0.5000 0.0000
Zn1C_2 Zn 0.5000 0.5000 1.0000
N2B N 0.61574(16) 0.1693(3) 0.62420(14)
N3B N 0.61359(15) 0.2663(3) 0.82631(13)
N4B N 0.40884(16) 0.2832(3) 0.55186(14)
C2B C 0.5673(2) 0.2121(3) 0.53790(17)
N5B N 0.58098(15) 0.4146(3) 0.92391(13)
N5C N -0.08098(15) 0.4146(3) 0.57609(13)
N5A N 0.08098(15) 0.5854(3) 0.42391(13)
C3B C 0.56140(19) 0.1831(3) 0.67112(17)
C4B C 0.4646(2) 0.2723(4) 0.50226(17)
N6B N 0.65790(18) 0.4310(3) 0.83076(15)
C5B C 0.56931(19) 0.2598(4) 0.88217(16)
H2B H 0.5348 0.1597 0.8906
C6B C 0.61624(19) 0.1278(4) 0.76551(16)
H3B H 0.5847 0.0181 0.7751
H4B H 0.6874 0.1002 0.7774
C7B C 0.6214(2) 0.1952(4) 0.48446(19)
H5B H 0.6890 0.1541 0.5076
C8B C 0.45619(19) 0.2385(3) 0.63384(17)
C9B C 0.4730(3) 0.3041(4) 0.36382(19)
H6B H 0.4427 0.3365 0.3056
C10B C 0.4182(2) 0.3203(4) 0.41331(19)
H7B H 0.3508 0.3625 0.3890
C11B C 0.5745(3) 0.2394(4) 0.3988(2)
H8B H 0.6099 0.2266 0.3633
C12B C 0.6367(2) 0.5140(4) 0.89010(18)
H9B H 0.6580 0.6319 0.9078
C13B C 0.39496(18) 0.2438(4) 0.68963(18)
H10B H 0.4125 0.1389 0.7275
H11B H 0.4139 0.3512 0.7258
N7B N 0.28510(16) 0.2453(3) 0.63824(14)
N8B N 0.23541(17) 0.0912(3) 0.59943(17)
C14B C 0.21961(19) 0.3824(4) 0.61815(17)
H12B H 0.2368 0.5009 0.6371
O3B O 0.07164(15) 0.7280(3) 0.58340(12)
N9B N 0.07602(17) 0.7482(3) 0.65961(15)
loop_
_geom_bond_atom_site_label_1
_geom_bond_atom_site_label_2
_geom_bond_site_symmetry_1
_geom_bond_site_symmetry_2
O1 N9 1_555 1_555
O2 N9 1_555 1_555
N1 C1 1_555 1_555
C1 H1 1_555 1_555
Zn1 N1 1_555 1_555
N2 C2 1_555 1_555
N3 N6 1_555 1_555
N4 C4 1_555 1_555
C2 C4 1_555 1_555
N5 C5 1_555 1_555
C3 N2 1_555 1_555
C4 C10 1_555 1_555
N6 C12 1_555 1_555
C5 N3 1_555 1_555
H2 C5 1_555 1_555
C6 N3 1_555 1_555
H3 C6 1_555 1_555
H4 C6 1_555 1_555
C7 C2 1_555 1_555
H5 C7 1_555 1_555
C8 N4 1_555 1_555
C9 H6 1_555 1_555
C10 C9 1_555 1_555
H7 C10 1_555 1_555
C11 C7 1_555 1_555
H8 C11 1_555 1_555
C12 N5 1_555 1_555
H9 C12 1_555 1_555
C13 C8 1_555 1_555
H10 C13 1_555 1_555
H11 C13 1_555 1_555
N7 C13 1_555 1_555
N8 C1 1_555 1_555
C14 N1 1_555 1_555
H12 C14 1_555 1_555
O3 Zn1 1_555 1_555
N9 O3 1_555 1_555
O1B N9B 1_555 1_555
O2B N9B 1_555 1_555
N1B Zn1 1_555 1_555
C1B N1B 1_555 1_555
H1B C1B 1_555 1_555
Zn1C N5 1_555 1_555
Zn1C_2 N5B 1_555 1_555
N2B C2B 1_555 1_555
N3B N6B 1_555 1_555
N4B C4B 1_555 1_555
C2B C4B 1_555 1_555
N5B C5B 1_555 1_555
N5C Zn1 1_555 1_555
N5A Zn1 1_555 1_555
C3B N2B 1_555 1_555
C4B C10B 1_555 1_555
N6B C12B 1_555 1_555
C5B N3B 1_555 1_555
H2B C5B 1_555 1_555
C6B N3B 1_555 1_555
H3B C6B 1_555 1_555
H4B C6B 1_555 1_555
C7B C2B 1_555 1_555
H5B C7B 1_555 1_555
C8B N4B 1_555 1_555
C9B H6B 1_555 1_555
C10B C9B 1_555 1_555
H7B C10B 1_555 1_555
C11B C7B 1_555 1_555
H8B C11B 1_555 1_555
C12B N5B 1_555 1_555
H9B C12B 1_555 1_555
C13B C8B 1_555 1_555
H10B C13B 1_555 1_555
H11B C13B 1_555 1_555
N7B C13B 1_555 1_555
N8B C1B 1_555 1_555
C14B N1B 1_555 1_555
H12B C14B 1_555 1_555
O3B Zn1 1_555 1_555
N9B O3B 1_555 1_555
C3 C6 1_555 1_555
C3 C8 1_555 1_555
C9 C11 1_555 1_555
N7 N8 1_555 1_555
N7 C14 1_555 1_555
C3B C6B 1_555 1_555
C3B C8B 1_555 1_555
C9B C11B 1_555 1_555
N7B N8B 1_555 1_555
N7B C14B 1_555 1_555

#END
