
#######################################################################
#
#                 Cambridge Crystallographic Data Centre
#                                CCDC 
#
#######################################################################
#
# If this CIF has been generated from an entry in the Cambridge 
# Structural Database, then it will include bibliographic, chemical, 
# crystal, experimental, refinement or atomic coordinate data resulting 
# from the CCDC's data processing and validation procedures.
#
#######################################################################

data_QIXZON
_symmetry_cell_setting           monoclinic
_symmetry_space_group_name_H-M   'C 2/c'
_symmetry_Int_Tables_number      15
_space_group_name_Hall           '-C 2yn'
loop_
_symmetry_equiv_pos_site_id
_symmetry_equiv_pos_as_xyz
1 x,y,z
2 1/2+x,1/2+y,z
3 -x,y,1/2-z
4 1/2-x,1/2+y,1/2-z
5 -x,-y,-z
6 1/2-x,1/2-y,-z
7 x,-y,1/2+z
8 1/2+x,1/2-y,1/2+z
_cell_length_a                   21.231(15)
_cell_length_b                   13.901(9)
_cell_length_c                   14.122(10)
_cell_angle_alpha                90
_cell_angle_beta                 105.511(13)
_cell_angle_gamma                90
_cell_volume                     4016.06
loop_
_atom_site_label
_atom_site_type_symbol
_atom_site_fract_x
_atom_site_fract_y
_atom_site_fract_z
N1 N 0.1397(7) 1.1434(8) 0.2104(10)
C1 C 0.1232(9) 1.1721(11) 0.2890(13)
H1 H 0.1091 1.1298 0.3301
C2 C 0.1585(7) 1.2232(9) 0.1726(11)
H2 H 0.1747 1.2275 0.1177
N2 N 0.1281(8) 1.2660(8) 0.3051(10)
N3 N 0.1493(6) 1.2958(7) 0.2299(8)
Ag1 Ag 0.14587(7) 0.99767(8) 0.16384(10)
N4 N 0.0645(7) 1.6220(7) 0.1530(8)
N5 N 0.0480(7) 1.4196(7) 0.1522(8)
C3 C 0.0034(8) 1.5822(9) 0.1237(10)
C4 C 0.1146(7) 1.5625(9) 0.1814(9)
C5 C -0.0056(8) 1.4798(7) 0.1193(10)
C6 C -0.1118(9) 1.6036(12) 0.0662(11)
H3 H -0.1481 1.6439 0.0501
N6 N 0.1682(6) 1.8501(8) 0.1455(9)
C7 C 0.1639(7) 1.3963(8) 0.2200(12)
H4 H 0.1921 1.4014 0.1763
H5 H 0.1882 1.4203 0.2838
N7 N 0.2007(6) 1.7147(8) 0.0886(9)
C8 C 0.1846(7) 1.6031(9) 0.2119(11)
H6 H 0.2007 1.6039 0.2830
H7 H 0.2133 1.5630 0.1859
N8 N 0.1836(6) 1.6990(7) 0.1741(8)
C9 C 0.1899(8) 1.8055(9) 0.0742(12)
H8 H 0.1963 1.8378 0.0198
C10 C 0.1047(7) 1.4606(9) 0.1809(9)
C11 C 0.1630(7) 1.7808(10) 0.2054(12)
H9 H 0.1475 1.7873 0.2608
C12 C -0.0509(8) 1.6410(10) 0.0967(10)
H10 H -0.0454 1.7074 0.0994
C13 C -0.1201(10) 1.4983(13) 0.0587(12)
H11 H -0.1615 1.4715 0.0368
C14 C -0.0685(9) 1.4432(12) 0.0832(11)
H12 H -0.0739 1.3770 0.0762
N1_2 N 0.1397(7) 0.1434(8) 0.2104(10)
C1_2 C 0.1232(9) 0.1721(11) 0.2890(13)
H1_2 H 0.1091 0.1298 0.3301
C2_2 C 0.1585(7) 0.2232(9) 0.1726(11)
H2_2 H 0.1747 0.2275 0.1177
N2_2 N 0.1281(8) 0.2660(8) 0.3051(10)
N3_2 N 0.1493(6) 0.2958(7) 0.2299(8)
Ag1_2 Ag 0.14587(7) -0.00233(8) 0.16384(10)
Ag1_3 Ag 0.14587(7) 1.99767(8) 0.16384(10)
N4_2 N 0.0645(7) 0.6220(7) 0.1530(8)
N5_2 N 0.0480(7) 0.4196(7) 0.1522(8)
C3_2 C 0.0034(8) 0.5822(9) 0.1237(10)
C4_2 C 0.1146(7) 0.5625(9) 0.1814(9)
C5_2 C -0.0056(8) 0.4798(7) 0.1193(10)
C6_2 C -0.1118(9) 0.6036(12) 0.0662(11)
H3_2 H -0.1481 0.6439 0.0501
N6_2 N 0.1682(6) 0.8501(8) 0.1455(9)
N6_3 N 0.1682(6) -0.1499(8) 0.1455(9)
C7_2 C 0.1639(7) 0.3963(8) 0.2200(12)
H4_2 H 0.1921 0.4014 0.1763
H5_2 H 0.1882 0.4203 0.2838
N7_2 N 0.2007(6) 0.7147(8) 0.0886(9)
C8_2 C 0.1846(7) 0.6031(9) 0.2119(11)
H6_2 H 0.2007 0.6039 0.2830
H7_2 H 0.2133 0.5630 0.1859
N8_2 N 0.1836(6) 0.6990(7) 0.1741(8)
C9_2 C 0.1899(8) 0.8055(9) 0.0742(12)
H8_2 H 0.1963 0.8378 0.0198
C10_2 C 0.1047(7) 0.4606(9) 0.1809(9)
C11_2 C 0.1630(7) 0.7808(10) 0.2054(12)
H9_2 H 0.1475 0.7873 0.2608
C12_2 C -0.0509(8) 0.6410(10) 0.0967(10)
H10_2 H -0.0454 0.7074 0.0994
C13_2 C -0.1201(10) 0.4983(13) 0.0587(12)
H11_2 H -0.1615 0.4715 0.0368
C14_2 C -0.0685(9) 0.4432(12) 0.0832(11)
H12_2 H -0.0739 0.3770 0.0762
Cl1 Cl 0.1911(3) 0.0851(3) 0.9524(3)
O1 O 0.2274(6) 0.0706(9) 1.0520(8)
O2 O 0.194(3) 0.1691(15) 0.9365(16)
O3 O 0.2148(10) 0.0446(16) 0.8836(12)
O4 O 0.1346(10) 0.085(5) 0.9358(19)
O5 O 0.0000 0.104(4) 0.7500
O6 O 0.0000 0.012(3) 0.7500
O7 O 0.0119(19) 0.130(7) 0.450(3)
loop_
_geom_bond_atom_site_label_1
_geom_bond_atom_site_label_2
_geom_bond_site_symmetry_1
_geom_bond_site_symmetry_2
N1 C1 1_555 1_555
C1 H1 1_555 1_555
C2 N1 1_555 1_555
H2 C2 1_555 1_555
N2 C1 1_555 1_555
N3 C2 1_555 1_555
Ag1 N1 1_555 1_555
Cl1 O1 1_555 1_555
N4 C3 1_555 1_555
N5 C5 1_555 1_555
C3 C5 1_555 1_555
C4 N4 1_555 1_555
C5 C14 1_555 1_555
C6 H3 1_555 1_555
N6 C9 1_555 1_555
C7 N3 1_555 1_555
H4 C7 1_555 1_555
H5 C7 1_555 1_555
N7 N8 1_555 1_555
C8 C4 1_555 1_555
H6 C8 1_555 1_555
H7 C8 1_555 1_555
N8 C8 1_555 1_555
C9 N7 1_555 1_555
H8 C9 1_555 1_555
C10 N5 1_555 1_555
C11 N6 1_555 1_555
H9 C11 1_555 1_555
C12 C3 1_555 1_555
H10 C12 1_555 1_555
C13 C6 1_555 1_555
H11 C13 1_555 1_555
C14 C13 1_555 1_555
H12 C14 1_555 1_555
O2 Cl1 1_555 1_555
O3 Cl1 1_555 1_555
O4 Cl1 1_555 1_555
N1_2 C1_2 1_555 1_555
C1_2 H1_2 1_555 1_555
C2_2 N1_2 1_555 1_555
H2_2 C2_2 1_555 1_555
N2_2 C1_2 1_555 1_555
N3_2 C2_2 1_555 1_555
Ag1_2 N1_2 1_555 1_555
Ag1_3 N6 1_555 1_555
N4_2 C3_2 1_555 1_555
N5_2 C5_2 1_555 1_555
C3_2 C5_2 1_555 1_555
C4_2 N4_2 1_555 1_555
C5_2 C14_2 1_555 1_555
C6_2 H3_2 1_555 1_555
N6_2 Ag1 1_555 1_555
N6_3 Ag1_2 1_555 1_555
C7_2 N3_2 1_555 1_555
H4_2 C7_2 1_555 1_555
H5_2 C7_2 1_555 1_555
N7_2 N8_2 1_555 1_555
C8_2 C4_2 1_555 1_555
H6_2 C8_2 1_555 1_555
H7_2 C8_2 1_555 1_555
N8_2 C8_2 1_555 1_555
C9_2 N6_2 1_555 1_555
H8_2 C9_2 1_555 1_555
C10_2 N5_2 1_555 1_555
C11_2 N6_2 1_555 1_555
H9_2 C11_2 1_555 1_555
C12_2 C3_2 1_555 1_555
H10_2 C12_2 1_555 1_555
C13_2 C6_2 1_555 1_555
H11_2 C13_2 1_555 1_555
C14_2 C13_2 1_555 1_555
H12_2 C14_2 1_555 1_555
N2 N3 1_555 1_555
C4 C10 1_555 1_555
C6 C12 1_555 1_555
C7 C10 1_555 1_555
N8 C11 1_555 1_555
N2_2 N3_2 1_555 1_555
C4_2 C10_2 1_555 1_555
C6_2 C12_2 1_555 1_555
C7_2 C10_2 1_555 1_555
N7_2 C9_2 1_555 1_555
N8_2 C11_2 1_555 1_555

#END
