
#######################################################################
#
#                 Cambridge Crystallographic Data Centre
#                                CCDC 
#
#######################################################################
#
# If this CIF has been generated from an entry in the Cambridge 
# Structural Database, then it will include bibliographic, chemical, 
# crystal, experimental, refinement or atomic coordinate data resulting 
# from the CCDC's data processing and validation procedures.
#
#######################################################################

data_QIYBUX
_symmetry_cell_setting           orthorhombic
_symmetry_space_group_name_H-M   'P 21 21 21'
_symmetry_Int_Tables_number      19
_space_group_name_Hall           'P 2ac 2ab'
loop_
_symmetry_equiv_pos_site_id
_symmetry_equiv_pos_as_xyz
1 x,y,z
2 1/2-x,-y,1/2+z
3 -x,1/2+y,1/2-z
4 1/2+x,1/2-y,-z
_cell_length_a                   17.6352(2)
_cell_length_b                   18.5555(2)
_cell_length_c                   20.3311(3)
_cell_angle_alpha                90
_cell_angle_beta                 90
_cell_angle_gamma                90
_cell_volume                     6652.94
loop_
_atom_site_label
_atom_site_type_symbol
_atom_site_fract_x
_atom_site_fract_y
_atom_site_fract_z
Ag1 Ag 0.32277(2) -0.12595(2) -1.14778(2)
Si1 Si 0.46335(11) -0.32016(9) -1.41824(9)
Si2 Si -0.07150(9) -0.17416(9) -1.13395(8)
N1 N 0.3623(3) -0.1980(3) -1.2357(2)
N2 N 0.6072(3) -0.5236(2) -1.3574(2)
N3 N 0.1931(2) -0.1366(2) -1.1394(2)
N4 N -0.1368(3) -0.3037(3) -0.9438(2)
C1 C 0.5355(4) -0.5279(3) -1.3754(3)
H1 H 0.5127 -0.5743 -1.3767
C2 C 0.4912(4) -0.4692(4) -1.3926(3)
H2 H 0.4399 -0.4759 -1.4053
C3 C 0.5218(4) -0.4012(3) -1.3910(3)
C4 C 0.5949(4) -0.3961(3) -1.3721(4)
H3 H 0.6186 -0.3501 -1.3705
C5 C 0.6361(3) -0.4572(3) -1.3549(3)
H4 H 0.6871 -0.4514 -1.3408
C6 C 0.3875(5) -0.3490(4) -1.4763(4)
H5 H 0.3581 -0.3892 -1.4569
H6 H 0.3523 -0.3084 -1.4845
C7 C 0.4244(6) -0.3739(5) -1.5427(4)
H7 H 0.3845 -0.3893 -1.5732
H8 H 0.4590 -0.4142 -1.5343
H9 H 0.4527 -0.3337 -1.5621
C8 C 0.5289(5) -0.2533(4) -1.4560(4)
H10 H 0.4999 -0.2111 -1.4705
H11 H 0.5544 -0.2752 -1.4939
H12 H 0.5668 -0.2385 -1.4235
C9 C 0.4213(3) -0.2763(3) -1.3437(3)
C10 C 0.3550(3) -0.2368(3) -1.3472(3)
H13 H 0.3277 -0.2354 -1.3874
C11 C 0.3278(4) -0.1996(3) -1.2934(3)
H14 H 0.2817 -0.1736 -1.2981
C12 C 0.4268(4) -0.2361(4) -1.2317(3)
H15 H 0.4529 -0.2370 -1.1909
C13 C 0.4569(4) -0.2738(4) -1.2831(3)
H16 H 0.5034 -0.2988 -1.2771
C14 C 0.1624(3) -0.2022(3) -1.1420(3)
H17 H 0.1955 -0.2424 -1.1450
C15 C 0.0854(3) -0.2152(3) -1.1406(3)
H18 H 0.0671 -0.2633 -1.1430
C16 C 0.0341(3) -0.1576(3) -1.1356(2)
C17 C 0.0670(3) -0.0898(3) -1.1310(3)
H19 H 0.0356 -0.0486 -1.1259
C18 C 0.1439(3) -0.0815(3) -1.1336(3)
H20 H 0.1638 -0.0340 -1.1311
C19 C -0.0986(5) -0.2293(5) -1.2059(3)
H21 H -0.0605 -0.2679 -1.2121
H22 H -0.1480 -0.2526 -1.1971
C20 C -0.1046(7) -0.1855(8) -1.2695(5)
H23 H -0.1189 -0.2174 -1.3059
H24 H -0.0555 -0.1630 -1.2791
H25 H -0.1432 -0.1479 -1.2642
C21 C -0.1234(4) -0.0866(4) -1.1328(4)
H26 H -0.1118 -0.0595 -1.1730
H27 H -0.1076 -0.0585 -1.0943
H28 H -0.1781 -0.0957 -1.1305
C22 C -0.0944(3) -0.2257(3) -1.0568(3)
C23 C -0.0430(3) -0.2539(3) -1.0148(3)
H29 H 0.0095 -0.2484 -1.0240
C24 C -0.0647(4) -0.2904(3) -0.9587(3)
H30 H -0.0264 -0.3069 -0.9294
C25 C -0.1866(4) -0.2775(4) -0.9851(4)
H31 H -0.2385 -0.2852 -0.9751
C26 C -0.1705(4) -0.2398(3) -1.0415(3)
H32 H -0.2101 -0.2237 -1.0695
Ag1B Ag 0.67723(2) -0.62595(2) -1.35222(2)
Ag1C Ag -0.17723(2) -0.37405(2) -0.85222(2)
N2B N 0.3928(3) -0.0236(2) -1.1426(2)
N4C N 0.3632(3) -0.1963(3) -1.0562(2)
Ag2 Ag -0.16212(3) -0.88011(2) -0.15445(2)
Si3 Si -0.13904(11) -0.50231(9) -0.14040(11)
Si4 Si -0.46438(10) -0.97594(10) -0.35886(9)
N5 N -0.1387(3) -0.7559(2) -0.1405(2)
N6 N 0.0608(3) -0.4112(3) -0.2710(2)
N7 N -0.2623(3) -0.9148(3) -0.2173(2)
N8 N -0.3663(3) -1.0822(3) -0.5501(2)
C27 C -0.1682(3) -0.7179(3) -0.0908(3)
H33 H -0.1907 -0.7433 -0.0552
C28 C -0.1676(3) -0.6434(3) -0.0887(3)
H34 H -0.1903 -0.6191 -0.0526
C29 C -0.1340(3) -0.6039(3) -0.1389(3)
C30 C -0.1020(4) -0.6439(3) -0.1892(3)
H35 H -0.0776 -0.6197 -0.2245
C31 C -0.1051(4) -0.7189(4) -0.1891(3)
H36 H -0.0826 -0.7446 -0.2244
C32 C -0.2353(5) -0.4827(4) -0.1824(7)
H37 H -0.2326 -0.4979 -0.2291
H38 H -0.2753 -0.5116 -0.1607
C33 C -0.2572(7) -0.4017(8) -0.1793(8)
H39 H -0.3060 -0.3944 -0.2012
H40 H -0.2182 -0.3729 -0.2013
H41 H -0.2612 -0.3866 -0.1332
C34 C -0.1260(6) -0.4676(4) -0.0529(4)
H42 H -0.0753 -0.4807 -0.0370
H43 H -0.1644 -0.4893 -0.0242
H44 H -0.1314 -0.4151 -0.0524
C35 C -0.0596(3) -0.4668(3) -0.1936(3)
C36 C 0.0150(4) -0.4744(4) -0.1758(3)
H45 H 0.0272 -0.4986 -0.1360
C37 C 0.0725(4) -0.4476(4) -0.2147(3)
H46 H 0.1234 -0.4552 -0.2009
C38 C -0.0115(4) -0.4030(4) -0.2877(3)
H47 H -0.0230 -0.3766 -0.3265
C39 C -0.0708(4) -0.4306(3) -0.2516(3)
H48 H -0.1211 -0.4244 -0.2673
C40 C -0.2768(3) -0.8796(4) -0.2725(3)
H49 H -0.2448 -0.8402 -0.2835
C41 C -0.3355(4) -0.8963(3) -0.3155(3)
H50 H -0.3426 -0.8684 -0.3542
C42 C -0.3835(4) -0.9529(4) -0.3022(3)
C43 C -0.3668(4) -0.9901(4) -0.2446(3)
H51 H -0.3973 -1.0305 -0.2333
C44 C -0.3083(4) -0.9713(4) -0.2033(3)
H52 H -0.3001 -0.9983 -0.1642
C45 C -0.5140(4) -0.8918(4) -0.3827(4)
H53 H -0.5363 -0.8704 -0.3425
H54 H -0.4756 -0.8575 -0.3995
C46 C -0.5774(5) -0.8986(6) -0.4348(5)
H55 H -0.5994 -0.8509 -0.4433
H56 H -0.6170 -0.9311 -0.4185
H57 H -0.5561 -0.9180 -0.4756
C47 C -0.5292(4) -1.0411(5) -0.3192(4)
H58 H -0.5011 -1.0850 -0.3080
H59 H -0.5705 -1.0531 -0.3495
H60 H -0.5502 -1.0198 -0.2791
C48 C -0.4229(3) -1.0189(3) -0.4343(3)
C49 C -0.4681(4) -1.0581(4) -0.4764(3)
H61 H -0.5202 -1.0650 -0.4662
C50 C -0.4391(4) -1.0870(4) -0.5326(3)
H62 H -0.4727 -1.1121 -0.5611
C51 C -0.3223(4) -1.0461(4) -0.5103(3)
H63 H -0.2703 -1.0412 -0.5217
C52 C -0.3471(4) -1.0143(4) -0.4521(3)
H64 H -0.3123 -0.9895 -0.4246
Ag2A Ag -0.33788(3) -1.11989(2) -0.65445(2)
Ag2B Ag 0.16212(3) -0.38011(2) -0.34555(2)
N6B N -0.0608(3) -0.9112(3) -0.2290(2)
N8A N -0.1337(3) -0.9178(3) -0.0501(2)
P1 P -0.17275(10) -0.36332(10) -0.43774(8)
F1 F -0.1107(3) -0.3054(2) -0.4173(3)
F2 F -0.1128(2) -0.4253(2) -0.4233(2)
F3 F -0.1459(2) -0.3592(3) -0.51234(19)
F4 F -0.2003(2) -0.3678(3) -0.36340(18)
F5 F -0.2331(2) -0.4233(3) -0.4575(2)
F6 F -0.2316(3) -0.3017(3) -0.4529(3)
P2 P -0.15282(11) -0.89187(10) -0.48198(11)
F7 F -0.1601(3) -0.9704(2) -0.4530(4)
F8 F -0.1460(2) -0.8105(2) -0.5083(2)
F9 F -0.2331(5) -0.8789(4) -0.4591(6)
F10 F -0.1232(8) -0.8663(3) -0.4167(4)
F11 F -0.0745(4) -0.9054(4) -0.5027(7)
F12 F -0.1918(6) -0.9174(5) -0.5425(4)
O1 O -0.2957(7) -0.2294(7) -0.3320(6)
H65 H -0.2513 -0.2408 -0.3213
C53 C -0.2948(13) -0.1609(8) -0.3651(12)
H66 H -0.3430 -0.1538 -0.3882
H67 H -0.2531 -0.1600 -0.3970
H68 H -0.2877 -0.1223 -0.3328
O2 O -0.1230(15) -0.8214(13) -0.6653(9)
H69 H -0.0805 -0.8410 -0.6710
C54 C -0.1315(16) -0.764(2) -0.7100(16)
H70 H -0.1786 -0.7384 -0.7004
H71 H -0.1334 -0.7834 -0.7549
H72 H -0.0884 -0.7313 -0.7058
loop_
_geom_bond_atom_site_label_1
_geom_bond_atom_site_label_2
_geom_bond_site_symmetry_1
_geom_bond_site_symmetry_2
Ag1 N1 1_555 1_555
Si1 C3 1_555 1_555
Si2 C16 1_555 1_555
N1 C11 1_555 1_555
N2 C1 1_555 1_555
N3 Ag1 1_555 1_555
N4 C24 1_555 1_555
C1 H1 1_555 1_555
C2 C1 1_555 1_555
H2 C2 1_555 1_555
C3 C2 1_555 1_555
C4 C3 1_555 1_555
H3 C4 1_555 1_555
C5 N2 1_555 1_555
H4 C5 1_555 1_555
C6 Si1 1_555 1_555
H5 C6 1_555 1_555
H6 C6 1_555 1_555
C7 C6 1_555 1_555
H7 C7 1_555 1_555
H8 C7 1_555 1_555
H9 C7 1_555 1_555
C8 Si1 1_555 1_555
H10 C8 1_555 1_555
H11 C8 1_555 1_555
H12 C8 1_555 1_555
C9 Si1 1_555 1_555
C10 C9 1_555 1_555
H13 C10 1_555 1_555
C11 C10 1_555 1_555
H14 C11 1_555 1_555
C12 N1 1_555 1_555
H15 C12 1_555 1_555
C13 C9 1_555 1_555
H16 C13 1_555 1_555
C14 N3 1_555 1_555
H17 C14 1_555 1_555
C15 C14 1_555 1_555
H18 C15 1_555 1_555
C16 C15 1_555 1_555
C17 C16 1_555 1_555
H19 C17 1_555 1_555
C18 N3 1_555 1_555
H20 C18 1_555 1_555
C19 Si2 1_555 1_555
H21 C19 1_555 1_555
H22 C19 1_555 1_555
C20 C19 1_555 1_555
H23 C20 1_555 1_555
H24 C20 1_555 1_555
H25 C20 1_555 1_555
C21 Si2 1_555 1_555
H26 C21 1_555 1_555
H27 C21 1_555 1_555
H28 C21 1_555 1_555
C22 Si2 1_555 1_555
C23 C22 1_555 1_555
H29 C23 1_555 1_555
C24 C23 1_555 1_555
H30 C24 1_555 1_555
C25 N4 1_555 1_555
H31 C25 1_555 1_555
C26 C22 1_555 1_555
H32 C26 1_555 1_555
Ag2 N5 1_555 1_555
Si3 C29 1_555 1_555
Si4 C42 1_555 1_555
N5 C27 1_555 1_555
N6 C37 1_555 1_555
N7 Ag2 1_555 1_555
N8 C50 1_555 1_555
C27 H33 1_555 1_555
C28 C27 1_555 1_555
H34 C28 1_555 1_555
C29 C28 1_555 1_555
C30 C29 1_555 1_555
H35 C30 1_555 1_555
C31 N5 1_555 1_555
H36 C31 1_555 1_555
C32 Si3 1_555 1_555
H37 C32 1_555 1_555
H38 C32 1_555 1_555
C33 C32 1_555 1_555
H39 C33 1_555 1_555
H40 C33 1_555 1_555
H41 C33 1_555 1_555
C34 Si3 1_555 1_555
H42 C34 1_555 1_555
H43 C34 1_555 1_555
H44 C34 1_555 1_555
C35 Si3 1_555 1_555
C36 C35 1_555 1_555
H45 C36 1_555 1_555
C37 C36 1_555 1_555
H46 C37 1_555 1_555
C38 N6 1_555 1_555
H47 C38 1_555 1_555
C39 C35 1_555 1_555
H48 C39 1_555 1_555
C40 N7 1_555 1_555
H49 C40 1_555 1_555
C41 C40 1_555 1_555
H50 C41 1_555 1_555
C42 C41 1_555 1_555
C43 C42 1_555 1_555
H51 C43 1_555 1_555
C44 N7 1_555 1_555
H52 C44 1_555 1_555
C45 Si4 1_555 1_555
H53 C45 1_555 1_555
H54 C45 1_555 1_555
C46 C45 1_555 1_555
H55 C46 1_555 1_555
H56 C46 1_555 1_555
H57 C46 1_555 1_555
C47 Si4 1_555 1_555
H58 C47 1_555 1_555
H59 C47 1_555 1_555
H60 C47 1_555 1_555
C48 Si4 1_555 1_555
C49 C48 1_555 1_555
H61 C49 1_555 1_555
C50 C49 1_555 1_555
H62 C50 1_555 1_555
C51 N8 1_555 1_555
H63 C51 1_555 1_555
C52 C48 1_555 1_555
H64 C52 1_555 1_555
P1 F1 1_555 1_555
F2 P1 1_555 1_555
F3 P1 1_555 1_555
F4 P1 1_555 1_555
F5 P1 1_555 1_555
F6 P1 1_555 1_555
P2 F7 1_555 1_555
F8 P2 1_555 1_555
F9 P2 1_555 1_555
F10 P2 1_555 1_555
F11 P2 1_555 1_555
F12 P2 1_555 1_555
O1 H65 1_555 1_555
C53 O1 1_555 1_555
H66 C53 1_555 1_555
H67 C53 1_555 1_555
H68 C53 1_555 1_555
O2 H69 1_555 1_555
C54 O2 1_555 1_555
H70 C54 1_555 1_555
H71 C54 1_555 1_555
H72 C54 1_555 1_555
Ag1B N2 1_555 1_555
Ag1C N4 1_555 1_555
N2B Ag1 1_555 1_555
N4C Ag1 1_555 1_555
Ag2A N8 1_555 1_555
Ag2B N6 1_555 1_555
N6B Ag2 1_555 1_555
N8A Ag2 1_555 1_555
C4 C5 1_555 1_555
C12 C13 1_555 1_555
C17 C18 1_555 1_555
C25 C26 1_555 1_555
C30 C31 1_555 1_555
C38 C39 1_555 1_555
C43 C44 1_555 1_555
C51 C52 1_555 1_555

#END
