
#######################################################################
#
#                 Cambridge Crystallographic Data Centre
#                                CCDC 
#
#######################################################################
#
# If this CIF has been generated from an entry in the Cambridge 
# Structural Database, then it will include bibliographic, chemical, 
# crystal, experimental, refinement or atomic coordinate data resulting 
# from the CCDC's data processing and validation procedures.
#
#######################################################################

data_QIYCIM
_symmetry_cell_setting           orthorhombic
_symmetry_space_group_name_H-M   'P 21 21 21'
_symmetry_Int_Tables_number      19
_space_group_name_Hall           'P 2ac 2ab'
loop_
_symmetry_equiv_pos_site_id
_symmetry_equiv_pos_as_xyz
1 x,y,z
2 1/2-x,-y,1/2+z
3 -x,1/2+y,1/2-z
4 1/2+x,1/2-y,-z
_cell_length_a                   18.1935(5)
_cell_length_b                   18.5759(5)
_cell_length_c                   20.2044(5)
_cell_angle_alpha                90
_cell_angle_beta                 90
_cell_angle_gamma                90
_cell_volume                     6828.29
loop_
_atom_site_label
_atom_site_type_symbol
_atom_site_fract_x
_atom_site_fract_y
_atom_site_fract_z
Ag1 Ag 0.33750(5) 1.35848(5) 0.65273(4)
Si1 Si -0.04598(17) 1.32993(17) 0.63028(17)
Si2 Si 0.4745(2) 1.1728(2) 0.92781(19)
N1 N 0.2108(5) 1.3537(5) 0.6401(5)
N2 N -0.1165(6) 1.2197(6) 0.4306(5)
N3 N 0.3740(5) 1.2919(5) 0.7444(5)
N4 N 0.6023(5) 0.9645(5) 0.8602(5)
C1 C -0.1638(7) 1.2558(8) 0.4687(7)
H1 H -0.2135 1.2597 0.4546
C2 C -0.1436(7) 1.2880(7) 0.5283(7)
H2 H -0.1799 1.3099 0.5554
C3 C -0.0722(6) 1.2882(6) 0.5475(6)
C4 C -0.0241(8) 1.2541(9) 0.5091(7)
H3 H 0.0261 1.2520 0.5221
C5 C -0.0460(7) 1.2212(10) 0.4497(9)
H4 H -0.0098 1.1995 0.4224
C6 C -0.0798(7) 1.2707(8) 0.6991(8)
H5 H -0.1142 1.2332 0.6830
H6 H -0.0390 1.2479 0.7237
C7 C -0.1216(17) 1.3322(15) 0.7430(13)
H7 H -0.1692 1.3122 0.7581
H8 H -0.0916 1.3417 0.7830
C8 C -0.1351(17) 1.3973(15) 0.7121(13)
H9 H -0.1234 1.4361 0.7440
H10 H -0.1885 1.4001 0.7029
C9 C -0.0952(7) 1.4131(7) 0.6493(8)
H11 H -0.0605 1.4536 0.6553
H12 H -0.1302 1.4254 0.6134
C10 C 0.0565(6) 1.3389(6) 0.6334(5)
C11 C 0.1032(7) 1.2815(7) 0.6384(6)
H13 H 0.0834 1.2341 0.6383
C12 C 0.1782(6) 1.2904(5) 0.6438(7)
H14 H 0.2079 1.2490 0.6505
C13 C 0.1660(7) 1.4111(7) 0.6318(6)
H15 H 0.1880 1.4573 0.6290
C14 C 0.0935(7) 1.4070(6) 0.6273(6)
H16 H 0.0656 1.4495 0.6200
C15 C 0.4298(12) 1.2468(12) 0.7386(8)
H17 H 0.4531 1.2403 0.6970
C16 C 0.4547(10) 1.2082(10) 0.7950(7)
H18 H 0.4909 1.1721 0.7883
C17 C 0.4329(6) 1.2181(6) 0.8515(6)
C18 C 0.3771(7) 1.2666(6) 0.8586(6)
H19 H 0.3573 1.2775 0.9009
C19 C 0.3504(8) 1.2988(7) 0.8026(6)
H20 H 0.3095 1.3300 0.8083
C20 C 0.4047(13) 1.1474(12) 0.9922(10)
H21 H 0.3661 1.1848 0.9949
H22 H 0.3810 1.1012 0.9801
C21 C 0.4414(18) 1.1404(19) 1.0554(8)
H23 H 0.4053 1.1278 1.0895
H24 H 0.4649 1.1862 1.0669
H25 H 0.4788 1.1026 1.0526
C22 C 0.5402(10) 1.2376(9) 0.9654(10)
H26 H 0.5104 1.2701 0.9935
H27 H 0.5712 1.2091 0.9960
C23 C 0.5908(12) 1.2842(11) 0.9281(11)
H28 H 0.6182 1.3147 0.9590
H29 H 0.5626 1.3146 0.8976
H30 H 0.6252 1.2543 0.9028
C24 C 0.5237(7) 1.0900(7) 0.8999(6)
C25 C 0.5981(7) 1.0876(8) 0.8843(9)
H31 H 0.6257 1.1309 0.8868
C26 C 0.6324(8) 1.0278(8) 0.8660(8)
H32 H 0.6834 1.0315 0.8563
C27 C 0.5318(6) 0.9633(7) 0.8735(7)
H33 H 0.5066 0.9186 0.8703
C28 C 0.4907(7) 1.0260(7) 0.8927(7)
H34 H 0.4393 1.0219 0.9003
Ag1B Ag 0.66250(5) 0.85848(5) 0.84727(4)
Ag1C Ag -0.16250(5) 1.14152(5) 0.34727(4)
N2C N 0.3835(6) 1.2803(6) 0.5694(5)
N4B N 0.3977(5) 1.4645(5) 0.6398(5)
Ag2 Ag 0.84052(6) 1.63000(5) 0.65805(5)
Si3 Si 0.5503(4) 1.5073(7) 0.8545(4)
Si4 Si 1.1338(2) 1.5071(2) 0.86095(19)
N5 N 0.7402(5) 1.5886(6) 0.7157(5)
N6 N 0.6316(7) 1.4184(7) 1.0555(5)
N7 N 0.9387(6) 1.5987(6) 0.7316(5)
N8 N 1.1478(6) 1.2521(5) 0.8516(5)
C29 C 0.7032(8) 1.5298(8) 0.6965(8)
H35 H 0.7139 1.5087 0.6547
C30 C 0.6494(9) 1.4991(9) 0.7365(12)
H36 H 0.6251 1.4561 0.7235
C31 C 0.6313(10) 1.5339(13) 0.7984(10)
C32 C 0.6745(8) 1.5850(14) 0.8152(7)
H37 H 0.6706 1.6036 0.8589
C33 C 0.7252(7) 1.6139(10) 0.7748(9)
H38 H 0.7515 1.6549 0.7898
C34 C 0.4842(8) 1.4537(18) 0.8196(8)
H39 H 0.4968 1.4472 0.7723
H40 H 0.4872 1.4057 0.8408
C35 C 0.4161(17) 1.4751(18) 0.823(2)
H41 H 0.3931 1.4604 0.8651
H42 H 0.3869 1.4555 0.7856
C36 C 0.4234(13) 1.5653(17) 0.818(2)
H43 H 0.4390 1.5796 0.7726
H44 H 0.3755 1.5882 0.8273
C37 C 0.4799(8) 1.5883(13) 0.8677(11)
H45 H 0.4598 1.5895 0.9132
H46 H 0.5020 1.6355 0.8566
C38 C 0.5881(9) 1.4673(16) 0.9313(10)
C39 C 0.6576(10) 1.4732(13) 0.9533(7)
H47 H 0.6917 1.5006 0.9281
C40 C 0.6817(8) 1.4406(11) 1.0119(7)
H48 H 0.7327 1.4344 1.0203
C41 C 0.5633(8) 1.4207(8) 1.0365(7)
H49 H 0.5274 1.4054 1.0675
C42 C 0.5382(8) 1.4434(10) 0.9755(7)
H50 H 0.4874 1.4421 0.9650
C43 C 1.0073(8) 1.6030(7) 0.7113(6)
H51 H 1.0176 1.6267 0.6707
C44 C 1.0654(8) 1.5738(8) 0.7477(7)
H52 H 1.1133 1.5759 0.7292
C45 C 1.0570(6) 1.5420(6) 0.8092(5)
C46 C 0.9838(9) 1.5396(10) 0.8295(7)
H53 H 0.9709 1.5173 0.8702
C47 C 0.9303(8) 1.5698(10) 0.7899(8)
H54 H 0.8817 1.5695 0.8072
C48 C 1.1233(10) 1.5402(10) 0.9500(8)
H55 H 1.0806 1.5728 0.9549
H56 H 1.1186 1.4997 0.9815
C49 C 1.196(2) 1.5806(14) 0.9592(13)
H57 H 1.1995 1.5991 1.0045
H58 H 1.1988 1.6209 0.9279
H59 H 1.2374 1.5476 0.9509
C50 C 1.2251(9) 1.5444(11) 0.8326(15)
H60 H 1.2609 1.5423 0.8695
H61 H 1.2444 1.5147 0.7958
C51 C 1.216(4) 1.629(2) 0.808(2)
H62 H 1.2645 1.6505 0.8020
H63 H 1.1879 1.6560 0.8406
H64 H 1.1896 1.6297 0.7652
C52 C 1.1368(7) 1.4042(7) 0.8576(5)
C53 C 1.1783(6) 1.3656(8) 0.9027(6)
H65 H 1.2039 1.3902 0.9369
C54 C 1.1825(8) 1.2954(8) 0.8985(7)
H66 H 1.2121 1.2717 0.9306
C55 C 1.1073(8) 1.2899(7) 0.8110(7)
H67 H 1.0825 1.2649 0.7766
C56 C 1.0982(8) 1.3618(9) 0.8142(6)
H68 H 1.0638 1.3839 0.7854
Ag2A Ag 0.65948(6) 1.37000(5) 1.15805(5)
Ag2B Ag 1.15948(6) 1.13000(5) 0.84195(5)
N6A N 0.8684(7) 1.5816(7) 0.5555(5)
N8B N 0.8522(6) 1.7521(5) 0.6484(5)
F1 F 0.7237(8) 0.8028(7) -0.5472(8)
F2 F 0.7285(5) 0.9263(6) -0.5410(4)
F3 F 0.6147(5) 0.9261(5) -0.5835(5)
F4 F 0.6390(7) 0.8594(9) -0.4962(5)
F5 F 0.7037(6) 0.8832(9) -0.6372(5)
F6 F 0.6159(8) 0.8092(6) -0.5973(7)
P1 P 0.6719(2) 0.8661(2) -0.5673(2)
F7 F 0.6579(5) 1.4760(4) 0.4620(10)
F8 F 0.6658(6) 1.3138(6) 0.5144(5)
F9 F 0.6440(11) 1.4302(11) 0.5540(8)
F10 F 0.6748(11) 1.3701(11) 0.4176(8)
F11 F 0.7400(6) 1.4027(7) 0.4989(11)
F12 F 0.5813(5) 1.3896(7) 0.4752(9)
P2 P 0.6609(3) 1.3964(3) 0.4905(3)
O1 O 0.613(2) 1.313(3) 0.6621(14)
H69 H 0.5703 1.3084 0.6771
H70 H 0.6116 1.3356 0.6261
O2 O 0.627(2) 1.327(3) 0.7962(14)
H71 H 0.5854 1.3447 0.7895
H72 H 0.6232 1.2838 0.8073
loop_
_geom_bond_atom_site_label_1
_geom_bond_atom_site_label_2
_geom_bond_site_symmetry_1
_geom_bond_site_symmetry_2
Ag1 N1 1_555 1_555
Si1 C3 1_555 1_555
Si2 C17 1_555 1_555
N1 C12 1_555 1_555
N2 C1 1_555 1_555
N3 Ag1 1_555 1_555
N4 C26 1_555 1_555
C1 H1 1_555 1_555
C2 C1 1_555 1_555
H2 C2 1_555 1_555
C3 C2 1_555 1_555
C4 C3 1_555 1_555
H3 C4 1_555 1_555
C5 N2 1_555 1_555
H4 C5 1_555 1_555
C6 Si1 1_555 1_555
H5 C6 1_555 1_555
H6 C6 1_555 1_555
C7 C6 1_555 1_555
H7 C7 1_555 1_555
H8 C7 1_555 1_555
C8 C7 1_555 1_555
H9 C8 1_555 1_555
H10 C8 1_555 1_555
C9 Si1 1_555 1_555
H11 C9 1_555 1_555
H12 C9 1_555 1_555
C10 Si1 1_555 1_555
C11 C10 1_555 1_555
H13 C11 1_555 1_555
C12 C11 1_555 1_555
H14 C12 1_555 1_555
C13 N1 1_555 1_555
H15 C13 1_555 1_555
C14 C10 1_555 1_555
H16 C14 1_555 1_555
C15 N3 1_555 1_555
H17 C15 1_555 1_555
C16 C15 1_555 1_555
H18 C16 1_555 1_555
C17 C16 1_555 1_555
C18 C17 1_555 1_555
H19 C18 1_555 1_555
C19 N3 1_555 1_555
H20 C19 1_555 1_555
C20 Si2 1_555 1_555
H21 C20 1_555 1_555
H22 C20 1_555 1_555
C21 C20 1_555 1_555
H23 C21 1_555 1_555
H24 C21 1_555 1_555
H25 C21 1_555 1_555
C22 Si2 1_555 1_555
H26 C22 1_555 1_555
H27 C22 1_555 1_555
C23 C22 1_555 1_555
H28 C23 1_555 1_555
H29 C23 1_555 1_555
H30 C23 1_555 1_555
C24 Si2 1_555 1_555
C25 C24 1_555 1_555
H31 C25 1_555 1_555
C26 C25 1_555 1_555
H32 C26 1_555 1_555
C27 N4 1_555 1_555
H33 C27 1_555 1_555
C28 C24 1_555 1_555
H34 C28 1_555 1_555
Ag2 N5 1_555 1_555
Si3 C31 1_555 1_555
Si4 C45 1_555 1_555
N5 C29 1_555 1_555
N6 C40 1_555 1_555
N7 Ag2 1_555 1_555
N8 C54 1_555 1_555
C29 H35 1_555 1_555
C30 C29 1_555 1_555
H36 C30 1_555 1_555
C31 C30 1_555 1_555
C32 C31 1_555 1_555
H37 C32 1_555 1_555
C33 N5 1_555 1_555
H38 C33 1_555 1_555
C34 Si3 1_555 1_555
H39 C34 1_555 1_555
H40 C34 1_555 1_555
C35 C34 1_555 1_555
H41 C35 1_555 1_555
H42 C35 1_555 1_555
C36 C35 1_555 1_555
H43 C36 1_555 1_555
H44 C36 1_555 1_555
C37 Si3 1_555 1_555
H45 C37 1_555 1_555
H46 C37 1_555 1_555
C38 Si3 1_555 1_555
C39 C38 1_555 1_555
H47 C39 1_555 1_555
C40 C39 1_555 1_555
H48 C40 1_555 1_555
C41 N6 1_555 1_555
H49 C41 1_555 1_555
C42 C38 1_555 1_555
H50 C42 1_555 1_555
C43 N7 1_555 1_555
H51 C43 1_555 1_555
C44 C43 1_555 1_555
H52 C44 1_555 1_555
C45 C44 1_555 1_555
C46 C45 1_555 1_555
H53 C46 1_555 1_555
C47 N7 1_555 1_555
H54 C47 1_555 1_555
C48 Si4 1_555 1_555
H55 C48 1_555 1_555
H56 C48 1_555 1_555
C49 C48 1_555 1_555
H57 C49 1_555 1_555
H58 C49 1_555 1_555
H59 C49 1_555 1_555
C50 Si4 1_555 1_555
H60 C50 1_555 1_555
H61 C50 1_555 1_555
C51 C50 1_555 1_555
H62 C51 1_555 1_555
H63 C51 1_555 1_555
H64 C51 1_555 1_555
C52 Si4 1_555 1_555
C53 C52 1_555 1_555
H65 C53 1_555 1_555
C54 C53 1_555 1_555
H66 C54 1_555 1_555
C55 N8 1_555 1_555
H67 C55 1_555 1_555
C56 C52 1_555 1_555
H68 C56 1_555 1_555
F1 P1 1_555 1_555
F2 P1 1_555 1_555
F3 P1 1_555 1_555
F4 P1 1_555 1_555
F5 P1 1_555 1_555
F6 P1 1_555 1_555
F7 P2 1_555 1_555
F8 P2 1_555 1_555
F9 P2 1_555 1_555
F10 P2 1_555 1_555
F11 P2 1_555 1_555
F12 P2 1_555 1_555
O1 H69 1_555 1_555
H70 O1 1_555 1_555
O2 H71 1_555 1_555
H72 O2 1_555 1_555
Ag1B N4 1_555 1_555
Ag1C N2 1_555 1_555
N2C Ag1 1_555 1_555
N4B Ag1 1_555 1_555
Ag2A N6 1_555 1_555
Ag2B N8 1_555 1_555
N6A Ag2 1_555 1_555
N8B Ag2 1_555 1_555
C4 C5 1_555 1_555
C8 C9 1_555 1_555
C13 C14 1_555 1_555
C18 C19 1_555 1_555
C27 C28 1_555 1_555
C32 C33 1_555 1_555
C36 C37 1_555 1_555
C41 C42 1_555 1_555
C46 C47 1_555 1_555
C55 C56 1_555 1_555

#END
