
#######################################################################
#
#                 Cambridge Crystallographic Data Centre
#                                CCDC 
#
#######################################################################
#
# If this CIF has been generated from an entry in the Cambridge 
# Structural Database, then it will include bibliographic, chemical, 
# crystal, experimental, refinement or atomic coordinate data resulting 
# from the CCDC's data processing and validation procedures.
#
#######################################################################

data_QIYCOS
_symmetry_cell_setting           orthorhombic
_symmetry_space_group_name_H-M   'P 21 21 21'
_symmetry_Int_Tables_number      19
_space_group_name_Hall           'P 2ac 2ab'
loop_
_symmetry_equiv_pos_site_id
_symmetry_equiv_pos_as_xyz
1 x,y,z
2 1/2-x,-y,1/2+z
3 -x,1/2+y,1/2-z
4 1/2+x,1/2-y,-z
_cell_length_a                   18.094(2)
_cell_length_b                   18.445(3)
_cell_length_c                   20.183(3)
_cell_angle_alpha                90
_cell_angle_beta                 90
_cell_angle_gamma                90
_cell_volume                     6735.95
loop_
_atom_site_label
_atom_site_type_symbol
_atom_site_fract_x
_atom_site_fract_y
_atom_site_fract_z
Ag1 Ag 0.83987(4) 0.37616(4) 0.84512(4)
Si1 Si 0.95793(18) 0.5164(2) 1.14705(19)
Si2 Si 1.12919(19) 0.49597(17) 0.63461(16)
N1 N 0.8699(5) 0.4204(5) 0.9463(4)
N2 N 0.7612(4) 0.5874(5) 1.2861(4)
N3 N 0.9386(5) 0.4066(5) 0.7685(4)
N4 N 1.1427(4) 0.7507(4) 0.6418(4)
C1 C 0.9363(7) 0.4142(7) 0.9644(5)
H1 H 0.9695 0.3889 0.9363
C2 C 0.9637(6) 0.4430(7) 1.0245(5)
H2 H 1.0145 0.4379 1.0355
C3 C 0.9171(6) 0.4780(7) 1.0665(5)
C4 C 0.8488(8) 0.4802(8) 1.0465(6)
H3 H 0.8139 0.5038 1.0743
C5 C 0.8241(6) 0.4518(7) 0.9897(5)
H4 H 0.7728 0.4539 0.9800
C6 C 0.8747(6) 0.5411(7) 1.2021(5)
C7 C 0.8333(6) 0.6029(6) 1.1878(5)
H5 H 0.8422 0.6303 1.1487
C8 C 0.7791(5) 0.6231(7) 1.2320(5)
H6 H 0.7525 0.6662 1.2227
C9 C 0.8006(6) 0.5287(6) 1.3002(5)
H7 H 0.7909 0.5034 1.3403
C10 C 0.8546(6) 0.5038(6) 1.2589(5)
H8 H 0.8791 0.4598 1.2694
C11 C 1.0180(6) 0.4482(5) 1.1850(5)
H9 H 0.9954 0.4310 1.2268
H10 H 1.0226 0.4062 1.1548
C12 C 1.0898(8) 0.4769(9) 1.1986(11)
H11 H 1.1205 0.4392 1.2189
H12 H 1.0855 0.5180 1.2290
H13 H 1.1127 0.4930 1.1572
C13 C 1.0173(6) 0.5937(5) 1.1257(6)
H14 H 0.9905 0.6265 1.0960
H15 H 1.0621 0.5761 1.1036
H16 H 1.0310 0.6198 1.1662
C14 C 1.0070(6) 0.4012(6) 0.7878(5)
H17 H 1.0176 0.3784 0.8290
C15 C 1.0664(6) 0.4283(6) 0.7489(5)
H18 H 1.1158 0.4235 0.7644
C16 C 1.0533(6) 0.4610(5) 0.6895(5)
C17 C 0.9796(8) 0.4642(6) 0.6719(6)
H19 H 0.9663 0.4872 0.6316
C18 C 0.9261(6) 0.4359(6) 0.7097(5)
H20 H 0.8768 0.4368 0.6936
C19 C 1.1285(5) 0.5981(5) 0.6374(5)
C20 C 1.1010(6) 0.6376(6) 0.6874(5)
H21 H 1.0768 0.6134 0.7229
C21 C 1.1067(6) 0.7127(7) 0.6891(5)
H22 H 1.0845 0.7382 0.7248
C22 C 1.1721(6) 0.7131(6) 0.5923(5)
H23 H 1.1970 0.7385 0.5580
C23 C 1.1679(6) 0.6385(6) 0.5889(4)
H24 H 1.1917 0.6137 0.5536
C24 C 1.2186(4) 0.4621(8) 0.6658(7)
H25 H 1.2532 0.5026 0.6743
H26 H 1.2120 0.4340 0.7072
C25 C 1.1254(8) 0.4634(7) 0.5484(3)
H27 H 1.0843 0.4288 0.5411
H28 H 1.1221 0.5037 0.5162
C26 C 1.1962(13) 0.4284(18) 0.5470(8)
H29 H 1.2273 0.4561 0.5156
H30 H 1.1886 0.3799 0.5272
C27 C 1.2448(18) 0.4168(18) 0.6132(11)
H31 H 1.2419 0.3654 0.6271
H32 H 1.2971 0.4283 0.6038
Ag1A Ag 0.66013(4) 0.62384(4) 1.34512(4)
Ag1B Ag 1.16013(4) 0.87616(4) 0.65488(4)
N2A N 0.7388(4) 0.4126(5) 0.7861(4)
N4B N 0.8573(4) 0.2507(4) 0.8582(4)
Ag2 Ag 0.83315(4) 0.86723(4) 0.14911(4)
Si3 Si 0.44860(16) 0.82810(16) 0.13283(14)
Si4 Si 0.9621(2) 0.6764(2) 0.42688(17)
N5 N 0.7072(4) 0.8588(5) 0.1372(4)
N6 N 0.3823(6) 0.7097(5) -0.0646(4)
N7 N 0.8688(5) 0.7987(5) 0.2388(4)
N8 N 1.1020(4) 0.4715(4) 0.3603(4)
C28 C 0.6753(5) 0.7944(5) 0.1406(5)
H33 H 0.7062 0.7530 0.1447
C29 C 0.5981(6) 0.7834(5) 0.1386(5)
H34 H 0.5787 0.7356 0.1400
C30 C 0.5506(5) 0.8418(5) 0.1347(5)
C31 C 0.5848(6) 0.9082(5) 0.1286(5)
H35 H 0.5554 0.9504 0.1228
C32 C 0.6612(7) 0.9150(6) 0.1309(5)
H36 H 0.6819 0.9623 0.1278
C33 C 0.4272(6) 0.7826(6) 0.0519(5)
C34 C 0.3543(9) 0.7763(7) 0.0356(6)
H37 H 0.3175 0.7959 0.0640
C35 C 0.3332(8) 0.7400(7) -0.0246(7)
H38 H 0.2823 0.7376 -0.0360
C36 C 0.4520(7) 0.7156(6) -0.0453(6)
H39 H 0.4892 0.6946 -0.0725
C37 C 0.4733(7) 0.7494(7) 0.0104(6)
H40 H 0.5245 0.7497 0.0209
C38 C 0.3971(5) 0.9092(4) 0.1575(5)
H41 H 0.4303 0.9499 0.1694
H42 H 0.3619 0.9251 0.1229
C39 C 0.4203(6) 0.7700(5) 0.2020(4)
H43 H 0.3904 0.7290 0.1854
H44 H 0.4644 0.7502 0.2246
C40 C 0.3777(12) 0.8124(10) 0.2476(8)
H45 H 0.4065 0.8220 0.2884
H46 H 0.3318 0.7864 0.2599
C41 C 0.3601(11) 0.8793(9) 0.2146(8)
H47 H 0.3628 0.9173 0.2492
H48 H 0.3074 0.8755 0.2020
C42 C 0.9311(7) 0.7626(7) 0.2378(6)
H49 H 0.9598 0.7636 0.1984
C43 C 0.9573(6) 0.7231(7) 0.2911(7)
H50 H 1.0018 0.6963 0.2864
C44 C 0.9206(6) 0.7216(5) 0.3506(6)
C45 C 0.8601(5) 0.7635(5) 0.3510(6)
H51 H 0.8340 0.7693 0.3915
C46 C 0.8353(6) 0.7968(5) 0.2981(5)
H52 H 0.7896 0.8218 0.3021
C47 C 1.0201(7) 0.5963(6) 0.3983(5)
C48 C 0.9883(6) 0.5285(6) 0.3929(5)
H53 H 0.9371 0.5221 0.4015
C49 C 1.0326(6) 0.4690(6) 0.3746(5)
H54 H 1.0093 0.4229 0.3725
C50 C 1.1338(6) 0.5391(7) 0.3660(5)
H55 H 1.1853 0.5438 0.3579
C51 C 1.0944(7) 0.5998(7) 0.3828(5)
H56 H 1.1187 0.6454 0.3839
C52 C 1.0245(6) 0.7390(6) 0.4698(7)
H57 H 1.0637 0.7545 0.4394
H58 H 1.0466 0.7145 0.5081
H59 H 0.9967 0.7815 0.4849
C53 C 0.8936(5) 0.6480(8) 0.4883(5)
H60 H 0.8549 0.6858 0.4908
H61 H 0.8696 0.6031 0.4720
C54 C 0.9204(8) 0.6347(10) 0.5540(5)
H62 H 0.8791 0.6207 0.5827
H63 H 0.9436 0.6788 0.5714
H64 H 0.9569 0.5954 0.5529
Ag2B Ag 1.16685(4) 0.36723(4) 0.35089(4)
Ag2C Ag 0.33315(4) 0.63277(4) -0.14911(4)
N6C N 0.8823(6) 0.7903(5) 0.0646(4)
N8B N 0.8980(4) 0.9715(4) 0.1397(4)
P1 P 1.17132(19) 0.3653(2) 0.93364(16)
F1 F 1.1383(4) 0.3547(4) 1.0060(3)
F2 F 1.1177(4) 0.3042(4) 0.9047(4)
F3 F 1.2023(3) 0.3741(4) 0.8605(3)
F4 F 1.2271(4) 0.4253(4) 0.9585(3)
F5 F 1.1131(4) 0.4268(4) 0.9194(3)
F6 F 1.2305(4) 0.3076(5) 0.9478(4)
P2 P 0.1597(3) 0.8908(2) -0.0079(2)
F7 F 0.1599(4) 0.8085(4) 0.0145(4)
F8 F 0.1593(5) 0.9737(4) -0.0292(6)
F9 F 0.2166(6) 0.8775(6) -0.0577(5)
F10 F 0.0939(6) 0.8797(6) -0.0492(5)
F11 F 0.1015(6) 0.8927(7) 0.0608(5)
F12 F 0.2103(7) 0.9098(7) 0.0422(7)
O1 O 0.1294(7) 0.7870(8) 0.1804(7)
H65 H 0.1027 0.8227 0.1770
H66 H 0.1267 0.7708 0.2181
O2 O 1.1907(8) 0.7967(10) 0.3372(9)
H67 H 1.1931 0.7524 0.3342
H68 H 1.2323 0.8140 0.3343
loop_
_geom_bond_atom_site_label_1
_geom_bond_atom_site_label_2
_geom_bond_site_symmetry_1
_geom_bond_site_symmetry_2
Ag1 N1 1_555 1_555
Si1 C3 1_555 1_555
Si2 C16 1_555 1_555
N1 C1 1_555 1_555
N2 C8 1_555 1_555
N3 Ag1 1_555 1_555
N4 C21 1_555 1_555
C1 H1 1_555 1_555
C2 C1 1_555 1_555
H2 C2 1_555 1_555
C3 C2 1_555 1_555
C4 C3 1_555 1_555
H3 C4 1_555 1_555
C5 N1 1_555 1_555
H4 C5 1_555 1_555
C6 Si1 1_555 1_555
C7 C6 1_555 1_555
H5 C7 1_555 1_555
C8 C7 1_555 1_555
H6 C8 1_555 1_555
C9 N2 1_555 1_555
H7 C9 1_555 1_555
C10 C6 1_555 1_555
H8 C10 1_555 1_555
C11 Si1 1_555 1_555
H9 C11 1_555 1_555
H10 C11 1_555 1_555
C12 C11 1_555 1_555
H11 C12 1_555 1_555
H12 C12 1_555 1_555
H13 C12 1_555 1_555
C13 Si1 1_555 1_555
H14 C13 1_555 1_555
H15 C13 1_555 1_555
H16 C13 1_555 1_555
C14 N3 1_555 1_555
H17 C14 1_555 1_555
C15 C14 1_555 1_555
H18 C15 1_555 1_555
C16 C15 1_555 1_555
C17 C16 1_555 1_555
H19 C17 1_555 1_555
C18 N3 1_555 1_555
H20 C18 1_555 1_555
C19 Si2 1_555 1_555
C20 C19 1_555 1_555
H21 C20 1_555 1_555
C21 C20 1_555 1_555
H22 C21 1_555 1_555
C22 N4 1_555 1_555
H23 C22 1_555 1_555
C23 C19 1_555 1_555
H24 C23 1_555 1_555
C24 Si2 1_555 1_555
H25 C24 1_555 1_555
H26 C24 1_555 1_555
C25 Si2 1_555 1_555
H27 C25 1_555 1_555
H28 C25 1_555 1_555
C26 C25 1_555 1_555
H29 C26 1_555 1_555
H30 C26 1_555 1_555
C27 C24 1_555 1_555
H31 C27 1_555 1_555
H32 C27 1_555 1_555
Ag2 N5 1_555 1_555
Si3 C30 1_555 1_555
Si4 C44 1_555 1_555
N5 C28 1_555 1_555
N6 C35 1_555 1_555
N7 Ag2 1_555 1_555
N8 C49 1_555 1_555
C28 H33 1_555 1_555
C29 C28 1_555 1_555
H34 C29 1_555 1_555
C30 C29 1_555 1_555
C31 C30 1_555 1_555
H35 C31 1_555 1_555
C32 N5 1_555 1_555
H36 C32 1_555 1_555
C33 Si3 1_555 1_555
C34 C33 1_555 1_555
H37 C34 1_555 1_555
C35 C34 1_555 1_555
H38 C35 1_555 1_555
C36 N6 1_555 1_555
H39 C36 1_555 1_555
C37 C33 1_555 1_555
H40 C37 1_555 1_555
C38 Si3 1_555 1_555
H41 C38 1_555 1_555
H42 C38 1_555 1_555
C39 Si3 1_555 1_555
H43 C39 1_555 1_555
H44 C39 1_555 1_555
C40 C39 1_555 1_555
H45 C40 1_555 1_555
H46 C40 1_555 1_555
C41 C38 1_555 1_555
H47 C41 1_555 1_555
H48 C41 1_555 1_555
C42 N7 1_555 1_555
H49 C42 1_555 1_555
C43 C42 1_555 1_555
H50 C43 1_555 1_555
C44 C43 1_555 1_555
C45 C44 1_555 1_555
H51 C45 1_555 1_555
C46 N7 1_555 1_555
H52 C46 1_555 1_555
C47 Si4 1_555 1_555
C48 C47 1_555 1_555
H53 C48 1_555 1_555
C49 C48 1_555 1_555
H54 C49 1_555 1_555
C50 N8 1_555 1_555
H55 C50 1_555 1_555
C51 C47 1_555 1_555
H56 C51 1_555 1_555
C52 Si4 1_555 1_555
H57 C52 1_555 1_555
H58 C52 1_555 1_555
H59 C52 1_555 1_555
C53 Si4 1_555 1_555
H60 C53 1_555 1_555
H61 C53 1_555 1_555
C54 C53 1_555 1_555
H62 C54 1_555 1_555
H63 C54 1_555 1_555
H64 C54 1_555 1_555
P1 F1 1_555 1_555
F2 P1 1_555 1_555
F3 P1 1_555 1_555
F4 P1 1_555 1_555
F5 P1 1_555 1_555
F6 P1 1_555 1_555
P2 F7 1_555 1_555
F8 P2 1_555 1_555
F9 P2 1_555 1_555
F10 P2 1_555 1_555
F11 P2 1_555 1_555
F12 P2 1_555 1_555
O1 H65 1_555 1_555
H66 O1 1_555 1_555
O2 H67 1_555 1_555
H68 O2 1_555 1_555
Ag1A N2 1_555 1_555
Ag1B N4 1_555 1_555
N2A Ag1 1_555 1_555
N4B Ag1 1_555 1_555
Ag2B N8 1_555 1_555
Ag2C N6 1_555 1_555
N6C Ag2 1_555 1_555
N8B Ag2 1_555 1_555
C4 C5 1_555 1_555
C9 C10 1_555 1_555
C17 C18 1_555 1_555
C22 C23 1_555 1_555
C26 C27 1_555 1_555
C31 C32 1_555 1_555
C36 C37 1_555 1_555
C40 C41 1_555 1_555
C45 C46 1_555 1_555
C50 C51 1_555 1_555

#END
