
#######################################################################
#
#                 Cambridge Crystallographic Data Centre
#                                CCDC 
#
#######################################################################
#
# If this CIF has been generated from an entry in the Cambridge 
# Structural Database, then it will include bibliographic, chemical, 
# crystal, experimental, refinement or atomic coordinate data resulting 
# from the CCDC's data processing and validation procedures.
#
#######################################################################

data_QIYCEI
_symmetry_cell_setting           orthorhombic
_symmetry_space_group_name_H-M   'P 21 21 21'
_symmetry_Int_Tables_number      19
_space_group_name_Hall           'P 2ac 2ab'
loop_
_symmetry_equiv_pos_site_id
_symmetry_equiv_pos_as_xyz
1 x,y,z
2 1/2-x,-y,1/2+z
3 -x,1/2+y,1/2-z
4 1/2+x,1/2-y,-z
_cell_length_a                   17.9304(5)
_cell_length_b                   18.8321(5)
_cell_length_c                   20.2922(6)
_cell_angle_alpha                90
_cell_angle_beta                 90
_cell_angle_gamma                90
_cell_volume                     6852.01
loop_
_atom_site_label
_atom_site_type_symbol
_atom_site_fract_x
_atom_site_fract_y
_atom_site_fract_z
Ag1 Ag 0.16479(4) -1.36702(3) -0.84807(3)
Si1 Si 0.55284(14) -1.32544(13) -0.87014(12)
Si2 Si 0.02887(18) -1.17630(14) -0.57683(14)
N1 N 0.2931(4) -1.3595(3) -0.8605(4)
N2 N 0.6216(5) -1.2059(5) -1.0648(5)
N3 N 0.1321(5) -1.2957(4) -0.7584(4)
N4 N -0.1031(4) -0.9719(4) -0.6429(4)
C1 C 0.3248(5) -1.2955(4) -0.8574(5)
H1 H 0.2928 -1.2557 -0.8527
C2 C 0.4004(5) -1.2828(4) -0.8605(5)
H2 H 0.4188 -1.2356 -0.8573
C3 C 0.4497(5) -1.3393(4) -0.8685(4)
C4 C 0.4167(5) -1.4053(4) -0.8762(4)
H3 H 0.4465 -1.4459 -0.8849
C5 C 0.3382(5) -1.4118(4) -0.8710(4)
H4 H 0.3172 -1.4579 -0.8756
C6 C 0.6016(7) -1.4154(7) -0.8674(8)
H5 H 0.5857 -1.4440 -0.9052
H6 H 0.5883 -1.4399 -0.8264
H7 H 0.6557 -1.4084 -0.8690
C7 C 0.5805(6) -1.2638(7) -0.8008(5)
H8 H 0.6246 -1.2362 -0.8152
H9 H 0.5393 -1.2296 -0.7937
C8 C 0.5965(16) -1.2938(14) -0.7434(11)
H10 H 0.5838 -1.2611 -0.7075
H11 H 0.6499 -1.3048 -0.7416
H12 H 0.5677 -1.3377 -0.7385
C9 C 0.5768(5) -1.2791(5) -0.9503(5)
C10 C 0.6527(6) -1.2752(7) -0.9707(6)
H13 H 0.6914 -1.2963 -0.9454
C11 C 0.6674(7) -1.2406(8) -1.0267(6)
H14 H 0.7179 -1.2414 -1.0406
C12 C 0.5501(7) -1.2077(7) -1.0448(6)
H15 H 0.5138 -1.1830 -1.0701
C13 C 0.5269(6) -1.2445(7) -0.9883(6)
H16 H 0.4755 -1.2451 -0.9767
C14 C 0.0745(8) -1.2481(7) -0.7667(5)
H17 H 0.0543 -1.2408 -0.8095
C15 C 0.0460(8) -1.2114(7) -0.7146(5)
H18 H 0.0067 -1.1787 -0.7227
C16 C 0.0712(5) -1.2194(4) -0.6511(4)
C17 C 0.1337(6) -1.2648(6) -0.6463(6)
H19 H 0.1568 -1.2721 -0.6048
C18 C 0.1618(6) -1.2989(6) -0.7019(5)
H20 H 0.2060 -1.3262 -0.6971
C19 C 0.1012(8) -1.1499(7) -0.5182(7)
H21 H 0.1330 -1.1913 -0.5075
H22 H 0.1331 -1.1127 -0.5380
C20 C 0.0631(16) -1.1204(15) -0.4529(13)
H23 H 0.1018 -1.1057 -0.4216
H24 H 0.0323 -1.1577 -0.4330
H25 H 0.0316 -1.0795 -0.4638
C21 C -0.0368(9) -1.2405(7) -0.5361(7)
H26 H -0.0064 -1.2790 -0.5166
H27 H -0.0613 -1.2153 -0.4991
C22 C -0.1010(12) -1.2767(12) -0.5794(11)
H28 H -0.1298 -1.3095 -0.5518
H29 H -0.0783 -1.3030 -0.6159
H30 H -0.1341 -1.2399 -0.5969
C23 C -0.0224(6) -1.0938(5) -0.6032(5)
C24 C -0.0997(5) -1.0953(5) -0.6209(7)
H31 H -0.1266 -1.1387 -0.6199
C25 C -0.1334(5) -1.0356(4) -0.6388(6)
H32 H -0.1848 -1.0391 -0.6498
C26 C -0.0296(5) -0.9698(5) -0.6289(6)
H33 H -0.0038 -0.9260 -0.6332
C27 C 0.0104(5) -1.0303(5) -0.6082(6)
H34 H 0.0618 -1.0258 -0.5975
Ag1B Ag -0.16479(4) -0.86702(3) -0.65193(3)
Ag1C Ag 0.66479(4) -1.13298(3) -1.15193(3)
N2C N 0.1216(5) -1.2941(5) -0.9352(5)
N4B N 0.1031(4) -1.4719(4) -0.8571(4)
Ag2 Ag -0.34221(5) -1.62606(4) -0.84065(4)
Si3 Si -0.04233(19) -1.5236(2) -0.63790(17)
Si4 Si -0.64392(18) -1.49869(16) -0.64638(17)
N5 N -0.4426(5) -1.5942(5) -0.7678(4)
N6 N -0.6418(4) -1.2492(4) -0.6463(4)
N7 N -0.2431(5) -1.5868(4) -0.7792(4)
N8 N -0.1322(5) -1.4143(5) -0.4458(4)
C28 C -0.1967(8) -1.5345(7) -0.7939(6)
H35 H -0.2019 -1.5124 -0.8357
C29 C -0.1411(8) -1.5097(8) -0.7524(8)
H36 H -0.1138 -1.4683 -0.7642
C30 C -0.1243(7) -1.5452(7) -0.6927(6)
C31 C -0.1713(7) -1.5992(8) -0.6788(5)
H37 H -0.1645 -1.6259 -0.6395
C32 C -0.2294(6) -1.6163(7) -0.7211(5)
H38 H -0.2625 -1.6526 -0.7071
C33 C 0.0201(7) -1.4579(13) -0.6830(5)
H39 H 0.0631 -1.4462 -0.6553
H40 H -0.0082 -1.4146 -0.6927
H41 H 0.0374 -1.4792 -0.7244
C34 C 0.0050(8) -1.6042(10) -0.6161(7)
H42 H -0.0324 -1.6384 -0.5992
H43 H 0.0269 -1.6249 -0.6566
C35 C 0.0713(17) -1.5958(16) -0.5609(17)
H44 H 0.0957 -1.6419 -0.5541
H45 H 0.0497 -1.5795 -0.5192
H46 H 0.1081 -1.5612 -0.5763
C36 C -0.0805(6) -1.4798(7) -0.5624(5)
C37 C -0.1572(6) -1.4802(8) -0.5439(5)
H47 H -0.1939 -1.5029 -0.5703
C38 C -0.1766(7) -1.4445(8) -0.4831(6)
H48 H -0.2277 -1.4443 -0.4708
C39 C -0.0609(6) -1.4126(5) -0.4627(5)
H49 H -0.0259 -1.3928 -0.4327
C40 C -0.0356(6) -1.4384(6) -0.5222(5)
H50 H 0.0137 -1.4275 -0.5360
C41 C -0.4338(7) -1.5604(8) -0.7083(6)
H51 H -0.3853 -1.5563 -0.6900
C42 C -0.4922(8) -1.5329(7) -0.6752(5)
H52 H -0.4823 -1.5100 -0.6344
C43 C -0.5642(6) -1.5355(5) -0.6960(5)
C44 C -0.5724(6) -1.5677(6) -0.7535(5)
H53 H -0.6208 -1.5690 -0.7724
C45 C -0.5150(6) -1.5991(6) -0.7873(5)
H54 H -0.5263 -1.6254 -0.8259
C46 C -0.6380(10) -1.5364(10) -0.5607(8)
H55 H -0.6892 -1.5377 -0.5425
H56 H -0.6209 -1.5863 -0.5645
C47 C -0.5862(13) -1.4981(12) -0.5080(6)
H57 H -0.5371 -1.5211 -0.5074
H58 H -0.6090 -1.5017 -0.4643
H59 H -0.5804 -1.4480 -0.5199
C48 C -0.7370(8) -1.5157(8) -0.6937(10)
H60 H -0.7609 -1.4782 -0.7168
C49 C -0.770(2) -1.5882(19) -0.6931(19)
H61 H -0.8171 -1.5879 -0.7178
H62 H -0.7797 -1.6028 -0.6475
H63 H -0.7353 -1.6217 -0.7137
C50 C -0.6391(5) -1.3984(5) -0.6451(4)
C51 C -0.6770(5) -1.3600(6) -0.5958(4)
H64 H -0.7032 -1.3839 -0.5616
C52 C -0.6750(5) -1.2872(6) -0.5986(5)
H65 H -0.6990 -1.2617 -0.5641
C53 C -0.6049(7) -1.2856(5) -0.6894(5)
H66 H -0.5777 -1.2605 -0.7221
C54 C -0.6028(7) -1.3607(6) -0.6907(5)
H67 H -0.5753 -1.3844 -0.7241
Ag2A Ag -0.15779(5) -1.37394(4) -0.34065(4)
Ag2B Ag -0.65779(5) -1.12606(4) -0.65935(4)
N6B N -0.3582(4) -1.7492(4) -0.8537(4)
N8A N -0.3678(5) -1.5857(5) -0.9458(4)
P1 P -0.17033(14) -0.86512(17) -0.06133(15)
F1 F -0.1417(4) -0.8649(5) 0.0124(4)
F2 F -0.1075(4) -0.8107(4) -0.0858(5)
F3 F -0.1148(4) -0.9298(4) -0.0773(4)
F4 F -0.2023(4) -0.8670(6) -0.1335(4)
F5 F -0.2248(5) -0.8050(5) -0.0417(4)
F6 F -0.2345(4) -0.9180(5) -0.0396(4)
P2 P -0.15653(18) -0.39759(18) -0.0138(2)
F7 F -0.1600(5) -0.4719(4) -0.0515(7)
F8 F -0.1552(5) -0.3204(6) 0.0162(5)
F9 F -0.1425(14) -0.3657(7) -0.0789(6)
F10 F -0.0781(5) -0.4095(8) -0.0069(10)
F11 F -0.1862(11) -0.4304(12) 0.0440(6)
F12 F -0.2366(7) -0.3879(7) -0.0352(10)
O1 O -0.1230(16) -1.311(3) -0.8242(10)
H68 H -0.0819 -1.3067 -0.8436
C55 C -0.111(4) -1.312(4) -0.7575(14)
H69 H -0.1575 -1.3264 -0.7352
H70 H -0.0970 -1.2645 -0.7427
H71 H -0.0717 -1.3459 -0.7470
loop_
_geom_bond_atom_site_label_1
_geom_bond_atom_site_label_2
_geom_bond_site_symmetry_1
_geom_bond_site_symmetry_2
Ag1 N1 1_555 1_555
Si1 C3 1_555 1_555
Si2 C16 1_555 1_555
N1 C1 1_555 1_555
N2 C11 1_555 1_555
N3 Ag1 1_555 1_555
N4 C25 1_555 1_555
C1 H1 1_555 1_555
C2 C1 1_555 1_555
H2 C2 1_555 1_555
C3 C2 1_555 1_555
C4 C3 1_555 1_555
H3 C4 1_555 1_555
C5 N1 1_555 1_555
H4 C5 1_555 1_555
C6 Si1 1_555 1_555
H5 C6 1_555 1_555
H6 C6 1_555 1_555
H7 C6 1_555 1_555
C7 Si1 1_555 1_555
H8 C7 1_555 1_555
H9 C7 1_555 1_555
C8 C7 1_555 1_555
H10 C8 1_555 1_555
H11 C8 1_555 1_555
H12 C8 1_555 1_555
C9 Si1 1_555 1_555
C10 C9 1_555 1_555
H13 C10 1_555 1_555
C11 C10 1_555 1_555
H14 C11 1_555 1_555
C12 N2 1_555 1_555
H15 C12 1_555 1_555
C13 C9 1_555 1_555
H16 C13 1_555 1_555
C14 N3 1_555 1_555
H17 C14 1_555 1_555
C15 C14 1_555 1_555
H18 C15 1_555 1_555
C16 C15 1_555 1_555
C17 C16 1_555 1_555
H19 C17 1_555 1_555
C18 N3 1_555 1_555
H20 C18 1_555 1_555
C19 Si2 1_555 1_555
H21 C19 1_555 1_555
H22 C19 1_555 1_555
C20 C19 1_555 1_555
H23 C20 1_555 1_555
H24 C20 1_555 1_555
H25 C20 1_555 1_555
C21 Si2 1_555 1_555
H26 C21 1_555 1_555
H27 C21 1_555 1_555
C22 C21 1_555 1_555
H28 C22 1_555 1_555
H29 C22 1_555 1_555
H30 C22 1_555 1_555
C23 Si2 1_555 1_555
C24 C23 1_555 1_555
H31 C24 1_555 1_555
C25 C24 1_555 1_555
H32 C25 1_555 1_555
C26 N4 1_555 1_555
H33 C26 1_555 1_555
C27 C23 1_555 1_555
H34 C27 1_555 1_555
Ag2 N5 1_555 1_555
Si3 C30 1_555 1_555
Si4 C43 1_555 1_555
N5 C41 1_555 1_555
N6 C52 1_555 1_555
N7 Ag2 1_555 1_555
N8 C38 1_555 1_555
C28 N7 1_555 1_555
H35 C28 1_555 1_555
C29 C28 1_555 1_555
H36 C29 1_555 1_555
C30 C29 1_555 1_555
C31 C30 1_555 1_555
H37 C31 1_555 1_555
C32 N7 1_555 1_555
H38 C32 1_555 1_555
C33 Si3 1_555 1_555
H39 C33 1_555 1_555
H40 C33 1_555 1_555
H41 C33 1_555 1_555
C34 Si3 1_555 1_555
H42 C34 1_555 1_555
H43 C34 1_555 1_555
C35 C34 1_555 1_555
H44 C35 1_555 1_555
H45 C35 1_555 1_555
H46 C35 1_555 1_555
C36 Si3 1_555 1_555
C37 C36 1_555 1_555
H47 C37 1_555 1_555
C38 C37 1_555 1_555
H48 C38 1_555 1_555
C39 N8 1_555 1_555
H49 C39 1_555 1_555
C40 C36 1_555 1_555
H50 C40 1_555 1_555
C41 H51 1_555 1_555
C42 C41 1_555 1_555
H52 C42 1_555 1_555
C43 C42 1_555 1_555
C44 C43 1_555 1_555
H53 C44 1_555 1_555
C45 N5 1_555 1_555
H54 C45 1_555 1_555
C46 Si4 1_555 1_555
H55 C46 1_555 1_555
H56 C46 1_555 1_555
C47 C46 1_555 1_555
H57 C47 1_555 1_555
H58 C47 1_555 1_555
H59 C47 1_555 1_555
C48 Si4 1_555 1_555
H60 C48 1_555 1_555
C49 C48 1_555 1_555
H61 C49 1_555 1_555
H62 C49 1_555 1_555
H63 C49 1_555 1_555
C50 Si4 1_555 1_555
C51 C50 1_555 1_555
H64 C51 1_555 1_555
C52 C51 1_555 1_555
H65 C52 1_555 1_555
C53 N6 1_555 1_555
H66 C53 1_555 1_555
C54 C50 1_555 1_555
H67 C54 1_555 1_555
P1 F1 1_555 1_555
F2 P1 1_555 1_555
F3 P1 1_555 1_555
F4 P1 1_555 1_555
F5 P1 1_555 1_555
F6 P1 1_555 1_555
P2 F7 1_555 1_555
F8 P2 1_555 1_555
F9 P2 1_555 1_555
F10 P2 1_555 1_555
F11 P2 1_555 1_555
F12 P2 1_555 1_555
O1 H68 1_555 1_555
C55 O1 1_555 1_555
H69 C55 1_555 1_555
H70 C55 1_555 1_555
H71 C55 1_555 1_555
Ag1B N4 1_555 1_555
Ag1C N2 1_555 1_555
N2C Ag1 1_555 1_555
N4B Ag1 1_555 1_555
Ag2A N8 1_555 1_555
Ag2B N6 1_555 1_555
N6B Ag2 1_555 1_555
N8A Ag2 1_555 1_555
C4 C5 1_555 1_555
C12 C13 1_555 1_555
C17 C18 1_555 1_555
C26 C27 1_555 1_555
C31 C32 1_555 1_555
C39 C40 1_555 1_555
C44 C45 1_555 1_555
C53 C54 1_555 1_555

#END
