
#######################################################################
#
#                 Cambridge Crystallographic Data Centre
#                                CCDC 
#
#######################################################################
#
# If this CIF has been generated from an entry in the Cambridge 
# Structural Database, then it will include bibliographic, chemical, 
# crystal, experimental, refinement or atomic coordinate data resulting 
# from the CCDC's data processing and validation procedures.
#
#######################################################################

data_QIYCAE
_symmetry_cell_setting           orthorhombic
_symmetry_space_group_name_H-M   'P 21 21 21'
_symmetry_Int_Tables_number      19
_space_group_name_Hall           'P 2ac 2ab'
loop_
_symmetry_equiv_pos_site_id
_symmetry_equiv_pos_as_xyz
1 x,y,z
2 1/2-x,-y,1/2+z
3 -x,1/2+y,1/2-z
4 1/2+x,1/2-y,-z
_cell_length_a                   18.3100(3)
_cell_length_b                   18.3527(3)
_cell_length_c                   20.2954(3)
_cell_angle_alpha                90
_cell_angle_beta                 90
_cell_angle_gamma                90
_cell_volume                     6820.02
loop_
_atom_site_label
_atom_site_type_symbol
_atom_site_fract_x
_atom_site_fract_y
_atom_site_fract_z
Ag1 Ag 0.15932(3) 0.85647(3) 0.65114(3)
Si1 Si 0.53967(12) 0.83228(11) 0.62889(10)
Si2 Si 0.0356(2) 0.66895(16) 0.92963(13)
N1 N 0.2837(3) 0.8529(3) 0.6379(3)
N2 N 0.6109(4) 0.7280(4) 0.4284(3)
N3 N 0.1226(4) 0.7959(3) 0.7453(3)
N4 N -0.0956(4) 0.4621(3) 0.8628(3)
C1 C 0.3262(4) 0.9131(4) 0.6307(4)
H1 H 0.3036 0.9596 0.6283
C2 C 0.4010(4) 0.9087(4) 0.6270(4)
H2 H 0.4284 0.9523 0.6214
C3 C 0.4375(4) 0.8437(4) 0.6311(3)
C4 C 0.3925(4) 0.7822(4) 0.6368(4)
H3 H 0.4138 0.7351 0.6385
C5 C 0.3178(4) 0.7893(4) 0.6400(4)
H4 H 0.2892 0.7464 0.6440
C6 C 0.5417(5) 0.7292(5) 0.4466(4)
H5 H 0.5070 0.7060 0.4189
C7 C 0.5162(5) 0.7627(5) 0.5047(4)
H6 H 0.4655 0.7624 0.5149
C8 C 0.5650(4) 0.7958(4) 0.5464(4)
C9 C 0.6373(5) 0.7958(5) 0.5248(4)
H7 H 0.6735 0.8195 0.5505
C10 C 0.6569(5) 0.7626(5) 0.4678(4)
H8 H 0.7069 0.7642 0.4554
C11 C 0.5730(5) 0.7734(5) 0.6975(4)
H9 H 0.5318 0.7493 0.7203
H10 H 0.6070 0.7357 0.6810
C12 C 0.6113(9) 0.8253(10) 0.7424(6)
H11 H 0.5767 0.8410 0.7771
H12 H 0.6520 0.7993 0.7643
C13 C 0.6398(7) 0.8883(7) 0.7108(7)
H13 H 0.6890 0.8770 0.6935
H14 H 0.6451 0.9276 0.7438
C14 C 0.5919(5) 0.9156(5) 0.6543(5)
H15 H 0.6221 0.9343 0.6175
H16 H 0.5585 0.9546 0.6693
C15 C 0.0604(5) 0.7578(5) 0.7432(4)
H17 H 0.0337 0.7569 0.7031
C16 C 0.0332(5) 0.7199(5) 0.7962(4)
H18 H -0.0112 0.6935 0.7918
C17 C 0.0697(4) 0.7198(4) 0.8560(4)
C18 C 0.1329(4) 0.7612(4) 0.8585(4)
H19 H 0.1602 0.7644 0.8982
C19 C 0.1560(5) 0.7977(4) 0.8026(4)
H20 H 0.1991 0.8263 0.8059
C20 C -0.1275(5) 0.5268(4) 0.8696(4)
H21 H -0.1785 0.5304 0.8616
C21 C -0.0906(5) 0.5884(4) 0.8877(4)
H22 H -0.1164 0.6331 0.8915
C22 C -0.0158(6) 0.5868(5) 0.9005(4)
C23 C 0.0153(5) 0.5208(5) 0.8928(4)
H23 H 0.0663 0.5157 0.9001
C24 C -0.0247(5) 0.4602(4) 0.8747(4)
H24 H 0.0000 0.4149 0.8706
C25 C -0.0342(10) 0.7289(10) 0.9813(8)
H25 H -0.0400 0.7783 0.9623
H26 H -0.0826 0.7052 0.9848
C26 C 0.0025(10) 0.7310(10) 1.0432(9)
H27 H -0.0343 0.7370 1.0785
H28 H 0.0349 0.7742 1.0442
C27 C 0.0468(7) 0.6650(6) 1.0574(5)
H29 H 0.0142 0.6228 1.0648
H30 H 0.0760 0.6728 1.0978
C28 C 0.1006(9) 0.6486(9) 0.9958(7)
H31 H 0.1172 0.5973 0.9948
H32 H 0.1434 0.6816 0.9950
Ag1B Ag -0.15932(3) 0.35647(3) 0.84886(3)
Ag1C Ag 0.65932(3) 0.64353(3) 0.34886(3)
N2C N 0.1109(4) 0.7720(4) 0.5716(3)
N4B N 0.0956(4) 0.9621(3) 0.6372(3)
Ag2 Ag 0.33853(3) 0.62509(3) 0.84612(3)
Si3 Si 0.37575(13) 1.00795(13) 0.86529(10)
Si4 Si 0.04669(12) 0.50959(12) 0.64992(12)
N5 N 0.3476(4) 0.7523(3) 0.8533(3)
N6 N 0.5653(4) 1.0966(4) 0.7305(3)
N7 N 0.2393(3) 0.5843(4) 0.7877(3)
N8 N 0.1306(4) 0.4183(4) 0.4474(3)
C29 C 0.3205(4) 0.7927(4) 0.9035(4)
H33 H 0.2953 0.7680 0.9378
C30 C 0.3270(4) 0.8663(4) 0.9083(4)
H34 H 0.3052 0.8911 0.9443
C31 C 0.3660(4) 0.9063(4) 0.8601(3)
C32 C 0.3950(4) 0.8633(5) 0.8086(3)
H35 H 0.4222 0.8859 0.7744
C33 C 0.3844(5) 0.7890(5) 0.8076(4)
H36 H 0.4046 0.7623 0.7719
C34 C 0.4945(5) 1.1007(5) 0.7127(4)
H37 H 0.4831 1.1234 0.6720
C35 C 0.4378(4) 1.0740(5) 0.7500(4)
H38 H 0.3890 1.0791 0.7348
C36 C 0.4511(4) 1.0399(4) 0.8093(4)
C37 C 0.5245(4) 1.0358(5) 0.8283(4)
H39 H 0.5377 1.0130 0.8686
C38 C 0.5770(5) 1.0649(5) 0.7882(4)
H40 H 0.6261 1.0622 0.8030
C39 C 0.2861(5) 1.0548(5) 0.8502(5)
H41 H 0.2902 1.0910 0.8142
H42 H 0.2474 1.0193 0.8391
C40 C 0.2713(9) 1.0912(11) 0.9155(7)
H43 H 0.2686 1.1444 0.9073
H44 H 0.2221 1.0756 0.9301
C41 C 0.3172(7) 1.0808(7) 0.9659(6)
H45 H 0.2900 1.0553 1.0013
H46 H 0.3311 1.1292 0.9834
C42 C 0.3865(6) 1.0386(5) 0.9530(4)
H47 H 0.3908 0.9963 0.9831
H48 H 0.4301 1.0700 0.9582
C43 C 0.2033(4) 0.5219(4) 0.7993(4)
H49 H 0.2168 0.4935 0.8365
C44 C 0.1475(5) 0.4974(4) 0.7593(4)
H50 H 0.1241 0.4526 0.7695
C45 C 0.1247(4) 0.5366(4) 0.7043(4)
C46 C 0.1626(5) 0.6026(4) 0.6940(4)
H51 H 0.1497 0.6333 0.6581
C47 C 0.2186(5) 0.6228(5) 0.7361(4)
H52 H 0.2436 0.6671 0.7273
C48 C 0.0603(6) 0.4195(7) 0.4638(5)
H53 H 0.0258 0.4003 0.4336
C49 C 0.0351(5) 0.4474(7) 0.5232(5)
H54 H -0.0158 0.4469 0.5323
C50 C 0.0824(4) 0.4758(5) 0.5690(4)
C51 C 0.1542(5) 0.4766(6) 0.5494(4)
H55 H 0.1902 0.4967 0.5777
C52 C 0.1746(5) 0.4486(6) 0.4893(4)
H56 H 0.2247 0.4518 0.4776
C53 C -0.0220(5) 0.5848(4) 0.6400(5)
H57 H -0.0011 0.6328 0.6519
H58 H -0.0416 0.5868 0.5946
C54 C -0.0809(5) 0.5599(5) 0.6902(5)
H59 H -0.0653 0.5727 0.7355
H60 H -0.1276 0.5852 0.6810
C55 C -0.0914(5) 0.4801(5) 0.6849(5)
H61 H -0.1149 0.4680 0.6424
H62 H -0.1235 0.4628 0.7209
C56 C -0.0174(4) 0.4431(5) 0.6895(4)
H63 H -0.0175 0.3961 0.6656
H64 H -0.0037 0.4342 0.7360
Ag2A Ag 0.16147(3) 0.37491(3) 0.34612(3)
Ag2B Ag 0.66147(3) 1.12509(3) 0.65388(3)
N6B N 0.4347(4) 0.5966(4) 0.7695(3)
N8A N 0.3694(4) 0.5817(4) 0.9474(3)
P1 P 0.18379(14) 0.86724(14) 0.07431(13)
F1 F 0.2256(4) 0.9325(3) 0.0418(3)
F2 F 0.1145(4) 0.9164(4) 0.0850(3)
F3 F 0.2133(3) 0.8929(4) 0.1443(3)
F4 F 0.1435(5) 0.8013(4) 0.1102(3)
F5 F 0.1548(5) 0.8418(4) 0.0056(3)
F6 F 0.2535(4) 0.8198(4) 0.0638(4)
P2 P 0.15976(18) 0.39287(15) 0.01279(17)
F7 F 0.1505(4) 0.4745(3) 0.0330(5)
F8 F 0.1113(8) 0.3970(7) -0.0495(7)
F9 F 0.0893(5) 0.3778(6) 0.0463(8)
F10 F 0.2061(7) 0.3824(4) 0.0728(5)
F11 F 0.2249(6) 0.4106(5) -0.0318(7)
F12 F 0.1700(4) 0.3094(3) -0.0054(3)
O1 O 0.1495(11) 0.2593(10) 0.8286(14)
H65 H 0.1935 0.2720 0.8307
C57 C 0.1101(11) 0.3147(11) 0.8237(12)
H66 H 0.0771 0.3173 0.8617
H67 H 0.0814 0.3119 0.7831
H68 H 0.1409 0.3583 0.8226
O2 O 0.3208(13) 0.7416(12) 0.1843(12)
H69 H 0.3144 0.7339 0.2247
C58 C 0.323(3) 0.6822(18) 0.154(2)
H70 H 0.3605 0.6840 0.1202
H71 H 0.2750 0.6733 0.1335
H72 H 0.3335 0.6429 0.1853
loop_
_geom_bond_atom_site_label_1
_geom_bond_atom_site_label_2
_geom_bond_site_symmetry_1
_geom_bond_site_symmetry_2
Ag1 N1 1_555 1_555
Si1 C3 1_555 1_555
Si2 C17 1_555 1_555
N1 C1 1_555 1_555
N2 C6 1_555 1_555
N3 Ag1 1_555 1_555
N4 C20 1_555 1_555
C1 H1 1_555 1_555
C2 C1 1_555 1_555
H2 C2 1_555 1_555
C3 C2 1_555 1_555
C4 C3 1_555 1_555
H3 C4 1_555 1_555
C5 N1 1_555 1_555
H4 C5 1_555 1_555
C6 H5 1_555 1_555
C7 C6 1_555 1_555
H6 C7 1_555 1_555
C8 Si1 1_555 1_555
C9 C8 1_555 1_555
H7 C9 1_555 1_555
C10 N2 1_555 1_555
H8 C10 1_555 1_555
C11 Si1 1_555 1_555
H9 C11 1_555 1_555
H10 C11 1_555 1_555
C12 C11 1_555 1_555
H11 C12 1_555 1_555
H12 C12 1_555 1_555
C13 C12 1_555 1_555
H13 C13 1_555 1_555
H14 C13 1_555 1_555
C14 Si1 1_555 1_555
H15 C14 1_555 1_555
H16 C14 1_555 1_555
C15 N3 1_555 1_555
H17 C15 1_555 1_555
C16 C15 1_555 1_555
H18 C16 1_555 1_555
C17 C16 1_555 1_555
C18 C17 1_555 1_555
H19 C18 1_555 1_555
C19 N3 1_555 1_555
H20 C19 1_555 1_555
C20 H21 1_555 1_555
C21 C20 1_555 1_555
H22 C21 1_555 1_555
C22 Si2 1_555 1_555
C23 C22 1_555 1_555
H23 C23 1_555 1_555
C24 N4 1_555 1_555
H24 C24 1_555 1_555
C25 Si2 1_555 1_555
H25 C25 1_555 1_555
H26 C25 1_555 1_555
C26 C25 1_555 1_555
H27 C26 1_555 1_555
H28 C26 1_555 1_555
C27 C26 1_555 1_555
H29 C27 1_555 1_555
H30 C27 1_555 1_555
C28 Si2 1_555 1_555
H31 C28 1_555 1_555
H32 C28 1_555 1_555
Ag2 N5 1_555 1_555
Si3 C31 1_555 1_555
Si4 C45 1_555 1_555
N5 C29 1_555 1_555
N6 C34 1_555 1_555
N7 Ag2 1_555 1_555
N8 C48 1_555 1_555
C29 H33 1_555 1_555
C30 C29 1_555 1_555
H34 C30 1_555 1_555
C31 C30 1_555 1_555
C32 C31 1_555 1_555
H35 C32 1_555 1_555
C33 N5 1_555 1_555
H36 C33 1_555 1_555
C34 H37 1_555 1_555
C35 C34 1_555 1_555
H38 C35 1_555 1_555
C36 Si3 1_555 1_555
C37 C36 1_555 1_555
H39 C37 1_555 1_555
C38 N6 1_555 1_555
H40 C38 1_555 1_555
C39 Si3 1_555 1_555
H41 C39 1_555 1_555
H42 C39 1_555 1_555
C40 C39 1_555 1_555
H43 C40 1_555 1_555
H44 C40 1_555 1_555
C41 C40 1_555 1_555
H45 C41 1_555 1_555
H46 C41 1_555 1_555
C42 Si3 1_555 1_555
H47 C42 1_555 1_555
H48 C42 1_555 1_555
C43 N7 1_555 1_555
H49 C43 1_555 1_555
C44 C43 1_555 1_555
H50 C44 1_555 1_555
C45 C44 1_555 1_555
C46 C45 1_555 1_555
H51 C46 1_555 1_555
C47 N7 1_555 1_555
H52 C47 1_555 1_555
C48 H53 1_555 1_555
C49 C48 1_555 1_555
H54 C49 1_555 1_555
C50 Si4 1_555 1_555
C51 C50 1_555 1_555
H55 C51 1_555 1_555
C52 N8 1_555 1_555
H56 C52 1_555 1_555
C53 Si4 1_555 1_555
H57 C53 1_555 1_555
H58 C53 1_555 1_555
C54 C53 1_555 1_555
H59 C54 1_555 1_555
H60 C54 1_555 1_555
C55 C54 1_555 1_555
H61 C55 1_555 1_555
H62 C55 1_555 1_555
C56 Si4 1_555 1_555
H63 C56 1_555 1_555
H64 C56 1_555 1_555
P1 F1 1_555 1_555
F2 P1 1_555 1_555
F3 P1 1_555 1_555
F4 P1 1_555 1_555
F5 P1 1_555 1_555
F6 P1 1_555 1_555
P2 F7 1_555 1_555
F8 P2 1_555 1_555
F9 P2 1_555 1_555
F10 P2 1_555 1_555
F11 P2 1_555 1_555
F12 P2 1_555 1_555
O1 H65 1_555 1_555
C57 O1 1_555 1_555
H66 C57 1_555 1_555
H67 C57 1_555 1_555
H68 C57 1_555 1_555
O2 H69 1_555 1_555
C58 O2 1_555 1_555
H70 C58 1_555 1_555
H71 C58 1_555 1_555
H72 C58 1_555 1_555
Ag1B N4 1_555 1_555
Ag1C N2 1_555 1_555
N2C Ag1 1_555 1_555
N4B Ag1 1_555 1_555
Ag2A N8 1_555 1_555
Ag2B N6 1_555 1_555
N6B Ag2 1_555 1_555
N8A Ag2 1_555 1_555
C4 C5 1_555 1_555
C7 C8 1_555 1_555
C9 C10 1_555 1_555
C13 C14 1_555 1_555
C18 C19 1_555 1_555
C21 C22 1_555 1_555
C23 C24 1_555 1_555
C27 C28 1_555 1_555
C32 C33 1_555 1_555
C35 C36 1_555 1_555
C37 C38 1_555 1_555
C41 C42 1_555 1_555
C46 C47 1_555 1_555
C49 C50 1_555 1_555
C51 C52 1_555 1_555
C55 C56 1_555 1_555

#END
