
#######################################################################
#
#                 Cambridge Crystallographic Data Centre
#                                CCDC 
#
#######################################################################
#
# If this CIF has been generated from an entry in the Cambridge 
# Structural Database, then it will include bibliographic, chemical, 
# crystal, experimental, refinement or atomic coordinate data resulting 
# from the CCDC's data processing and validation procedures.
#
#######################################################################

data_QIYDUY
_symmetry_cell_setting           triclinic
_symmetry_space_group_name_H-M   'P 1'
_symmetry_Int_Tables_number      1
_space_group_name_Hall           'P 1'
loop_
_symmetry_equiv_pos_site_id
_symmetry_equiv_pos_as_xyz
1 x,y,z
_cell_length_a                   9.8382(4)
_cell_length_b                   11.9417(4)
_cell_length_c                   12.3552(5)
_cell_angle_alpha                116.5110(10)
_cell_angle_beta                 99.7760(10)
_cell_angle_gamma                93.5460(10)
_cell_volume                     1264.37
loop_
_atom_site_label
_atom_site_type_symbol
_atom_site_fract_x
_atom_site_fract_y
_atom_site_fract_z
Na1 Na 0.2193(4) -0.1174(3) 0.3779(4)
Cu1 Cu 0.58315(10) -0.08379(10) 0.45338(9)
Cu2 Cu 0.84714(10) -0.18305(9) 0.30558(9)
Cu3 Cu 0.22016(9) -0.33257(9) 0.06683(9)
Cu4 Cu 0.22869(11) 0.14242(10) 0.33462(10)
Cu5 Cu 0.20730(10) 0.03049(10) 0.69600(8)
C1 C 0.4891(9) -0.2396(8) 0.1963(8)
C2 C 0.5119(9) -0.3116(8) 0.0667(8)
H1 H 0.5856 -0.3634 0.0658
C3 C 0.5518(11) -0.2173(11) 0.0202(10)
H2 H 0.5664 -0.2627 -0.0623
H3 H 0.6360 -0.1616 0.0741
H4 H 0.4778 -0.1686 0.0198
C4 C -0.0480(9) -0.3117(8) 0.0924(8)
C5 C -0.0705(9) -0.3855(8) -0.0474(8)
H5 H -0.0892 -0.3258 -0.0805
C6 C -0.1899(11) -0.4904(10) -0.1079(11)
H6 H -0.1968 -0.5319 -0.1958
H7 H -0.2745 -0.4571 -0.0906
H8 H -0.1759 -0.5501 -0.0763
C7 C 0.4940(9) 0.1075(9) 0.4001(9)
C8 C 0.5195(10) 0.2150(10) 0.3696(10)
H9 H 0.5514 0.1791 0.2917
C9 C 0.6329(15) 0.3198(11) 0.4628(15)
H10 H 0.6435 0.3846 0.4376
H11 H 0.7191 0.2870 0.4681
H12 H 0.6089 0.3551 0.5424
C10 C -0.0407(9) 0.0375(9) 0.2957(9)
C11 C -0.0623(10) 0.1516(10) 0.2806(10)
H13 H -0.0921 0.2115 0.3542
C12 C -0.1746(14) 0.1265(14) 0.1684(16)
H14 H -0.2606 0.0876 0.1725
H15 H -0.1467 0.0710 0.0942
H16 H -0.1877 0.2051 0.1674
C13 C 0.4746(10) 0.0332(9) 0.6684(9)
C14 C 0.4950(10) 0.1121(10) 0.8065(9)
H17 H 0.5437 0.1962 0.8293
C15 C 0.585(2) 0.056(3) 0.8768(15)
H18 H 0.5956 0.1087 0.9643
H19 H 0.6748 0.0520 0.8563
H20 H 0.5405 -0.0276 0.8541
C16 C -0.0602(9) -0.0307(8) 0.5602(7)
C17 C -0.0773(9) 0.0553(9) 0.6900(9)
H21 H -0.1572 0.0168 0.7061
C18 C -0.1060(15) 0.1851(10) 0.6989(13)
H22 H -0.1169 0.2400 0.7810
H23 H -0.1898 0.1729 0.6397
H24 H -0.0290 0.2227 0.6815
N1 N 0.3766(8) -0.3941(7) -0.0116(7)
H25 H 0.3809 -0.4738 -0.0236
H26 H 0.3619 -0.3956 -0.0862
N2 N 0.0630(7) -0.4295(7) -0.0767(7)
H27 H 0.0785 -0.4199 -0.1420
H28 H 0.0569 -0.5124 -0.0975
N3 N 0.3874(9) 0.2576(8) 0.3439(10)
H29 H 0.3777 0.2607 0.2716
H30 H 0.3879 0.3362 0.4042
N4 N 0.0749(9) 0.2127(8) 0.2791(10)
H31 H 0.0864 0.2967 0.3290
H32 H 0.0748 0.2001 0.2017
N5 N 0.3614(8) 0.1280(7) 0.8435(7)
H33 H 0.3526 0.2106 0.8783
H34 H 0.3578 0.1004 0.9000
N6 N 0.0480(8) 0.0693(8) 0.7798(7)
H35 H 0.0344 0.0161 0.8118
H36 H 0.0669 0.1491 0.8422
O1 O 0.3694(6) -0.2339(5) 0.2171(6)
O2 O 0.5986(6) -0.1850(6) 0.2840(6)
O3 O 0.0738(6) -0.2743(5) 0.1583(5)
O4 O -0.1550(7) -0.2902(7) 0.1360(6)
O5 O 0.3719(6) 0.0618(6) 0.3898(6)
O6 O 0.5978(7) 0.0670(7) 0.4328(7)
O7 O 0.0834(6) 0.0204(5) 0.3290(6)
O8 O -0.1489(7) -0.0356(7) 0.2791(7)
O9 O 0.3538(6) -0.0087(6) 0.6024(6)
O10 O 0.5819(7) 0.0138(7) 0.6262(6)
O11 O 0.0596(6) -0.0485(6) 0.5428(5)
O12 O -0.1708(7) -0.0816(6) 0.4751(6)
O13 O 0.5403(11) -0.2410(8) 0.4636(9)
O14 O 0.8633(9) -0.3288(7) 0.3399(7)
O15 O 0.1990(13) -0.2990(8) 0.4051(9)
Cu1_2 Cu -0.41685(10) -0.08379(10) 0.45338(9)
Cu2_2 Cu -0.15286(10) -0.18305(9) 0.30558(9)
O4_2 O 0.8450(7) -0.2902(7) 0.1360(6)
O8_2 O 0.8511(7) -0.0356(7) 0.2791(7)
O12_2 O 0.8292(7) -0.0816(6) 0.4751(6)
Cl1 Cl 0.5787(3) 0.4151(2) 0.1543(3)
O19 O 0.5230(13) 0.4004(8) 0.0324(10)
O20 O 0.7273(12) 0.4342(10) 0.1744(13)
O21 O 0.5286(13) 0.3043(10) 0.1565(12)
O22 O 0.5371(13) 0.5228(10) 0.2419(12)
Cl2 Cl 0.2749(4) 0.3485(3) 0.6703(3)
O23 O 0.4179(19) 0.353(3) 0.686(3)
O24 O 0.1969(17) 0.2771(18) 0.5567(13)
O25 O 0.241(2) 0.4681(14) 0.7106(14)
O26 O 0.249(2) 0.3230(16) 0.7614(16)
Cl3 Cl 0.1293(3) 0.3809(2) 0.0943(3)
O27 O 0.220(2) 0.4928(13) 0.130(2)
O28 O 0.183(4) 0.291(2) 0.109(3)
O29 O 0.105(5) 0.3497(16) -0.0228(19)
O30 O 0.052(3) 0.436(2) 0.167(4)
Cl4 Cl 0.1985(3) -0.0617(2) 0.0132(2)
O31 O 0.2044(15) -0.1891(9) -0.0504(18)
O32 O 0.259(3) -0.023(3) 0.1247(16)
O33 O 0.251(5) -0.003(3) -0.029(4)
O34 O 0.0604(19) -0.037(2) 0.020(2)
Cl5 Cl -0.1498(4) -0.3112(3) -0.3387(3)
O35 O -0.255(3) -0.322(3) -0.279(3)
O36 O -0.103(3) -0.1999(16) -0.317(3)
O37 O -0.212(2) -0.3684(15) -0.4644(13)
O38 O -0.055(2) -0.3858(18) -0.3150(18)
O16 O 0.050(4) -0.5294(19) -0.540(3)
O17 O -0.515(2) -0.282(2) -0.354(2)
O18 O 0.2208(12) -0.1840(9) -0.3239(10)
loop_
_geom_bond_atom_site_label_1
_geom_bond_atom_site_label_2
_geom_bond_site_symmetry_1
_geom_bond_site_symmetry_2
Na1 O1 1_555 1_555
Cu1 O2 1_555 1_555
Cu2 O2 1_555 1_555
Cu3 N1 1_555 1_555
Cu4 N3 1_555 1_555
Cu5 N5 1_555 1_555
Cl1 O19 1_555 1_555
Cl2 O23 1_555 1_555
Cl3 O27 1_555 1_555
Cl4 O31 1_555 1_555
Cl5 O35 1_555 1_555
C1 C2 1_555 1_555
C2 H1 1_555 1_555
C3 C2 1_555 1_555
H2 C3 1_555 1_555
H3 C3 1_555 1_555
H4 C3 1_555 1_555
C4 C5 1_555 1_555
C5 H5 1_555 1_555
C6 C5 1_555 1_555
H6 C6 1_555 1_555
H7 C6 1_555 1_555
H8 C6 1_555 1_555
C7 C8 1_555 1_555
C8 H9 1_555 1_555
C9 C8 1_555 1_555
H10 C9 1_555 1_555
H11 C9 1_555 1_555
H12 C9 1_555 1_555
C10 C11 1_555 1_555
C11 H13 1_555 1_555
C12 C11 1_555 1_555
H14 C12 1_555 1_555
H15 C12 1_555 1_555
H16 C12 1_555 1_555
C13 C14 1_555 1_555
C14 H17 1_555 1_555
C15 C14 1_555 1_555
H18 C15 1_555 1_555
H19 C15 1_555 1_555
H20 C15 1_555 1_555
C16 C17 1_555 1_555
C17 H21 1_555 1_555
C18 C17 1_555 1_555
H22 C18 1_555 1_555
H23 C18 1_555 1_555
H24 C18 1_555 1_555
N1 C2 1_555 1_555
H25 N1 1_555 1_555
H26 N1 1_555 1_555
N2 Cu3 1_555 1_555
H27 N2 1_555 1_555
H28 N2 1_555 1_555
N3 C8 1_555 1_555
H29 N3 1_555 1_555
H30 N3 1_555 1_555
N4 Cu4 1_555 1_555
H31 N4 1_555 1_555
H32 N4 1_555 1_555
N5 C14 1_555 1_555
H33 N5 1_555 1_555
H34 N5 1_555 1_555
N6 Cu5 1_555 1_555
H35 N6 1_555 1_555
H36 N6 1_555 1_555
O1 Cu3 1_555 1_555
O2 C1 1_555 1_555
O3 Na1 1_555 1_555
O4 C4 1_555 1_555
O5 Na1 1_555 1_555
O6 Cu1 1_555 1_555
O7 Na1 1_555 1_555
O8 C10 1_555 1_555
O9 Na1 1_555 1_555
O10 Cu1 1_555 1_555
O11 Na1 1_555 1_555
O12 C16 1_555 1_555
O13 Cu1 1_555 1_555
O14 Cu2 1_555 1_555
O15 Na1 1_555 1_555
O20 Cl1 1_555 1_555
O21 Cl1 1_555 1_555
O22 Cl1 1_555 1_555
O24 Cl2 1_555 1_555
O25 Cl2 1_555 1_555
O26 Cl2 1_555 1_555
O28 Cl3 1_555 1_555
O29 Cl3 1_555 1_555
O30 Cl3 1_555 1_555
O32 Cl4 1_555 1_555
O33 Cl4 1_555 1_555
O34 Cl4 1_555 1_555
O36 Cl5 1_555 1_555
O37 Cl5 1_555 1_555
O38 Cl5 1_555 1_555
Cu1_2 O12 1_555 1_555
Cu2_2 O4 1_555 1_555
O4_2 Cu2 1_555 1_555
O8_2 Cu2 1_555 1_555
O12_2 Cu1 1_555 1_555
Cu2 O12_2 1_555 1_555
Cu3 O3 1_555 1_555
Cu4 O5 1_555 1_555
Cu4 O7 1_555 1_555
Cu5 O9 1_555 1_555
Cu5 O11 1_555 1_555
C1 O1 1_555 1_555
C4 O3 1_555 1_555
C5 N2 1_555 1_555
C7 O5 1_555 1_555
C7 O6 1_555 1_555
C10 O7 1_555 1_555
C11 N4 1_555 1_555
C13 O9 1_555 1_555
C13 O10 1_555 1_555
C16 O11 1_555 1_555
C17 N6 1_555 1_555
O8 Cu2_2 1_555 1_555
O12 Cu2_2 1_555 1_555

#END
