
#######################################################################
#
#                 Cambridge Crystallographic Data Centre
#                                CCDC 
#
#######################################################################
#
# If this CIF has been generated from an entry in the Cambridge 
# Structural Database, then it will include bibliographic, chemical, 
# crystal, experimental, refinement or atomic coordinate data resulting 
# from the CCDC's data processing and validation procedures.
#
#######################################################################

data_QIYFEK
_symmetry_cell_setting           monoclinic
_symmetry_space_group_name_H-M   'P 21/c'
_symmetry_Int_Tables_number      14
_space_group_name_Hall           '-P 2ybc'
loop_
_symmetry_equiv_pos_site_id
_symmetry_equiv_pos_as_xyz
1 x,y,z
2 -x,1/2+y,1/2-z
3 -x,-y,-z
4 x,1/2-y,1/2+z
_cell_length_a                   12.9750(12)
_cell_length_b                   12.8120(12)
_cell_length_c                   10.4432(10)
_cell_angle_alpha                90
_cell_angle_beta                 108.046(2)
_cell_angle_gamma                90
_cell_volume                     1650.63
loop_
_atom_site_label
_atom_site_type_symbol
_atom_site_fract_x
_atom_site_fract_y
_atom_site_fract_z
Mn1 Mn 0.49864(4) 0.17050(3) 0.91885(5)
Mn2 Mn 0.46711(4) -0.09056(3) 1.37613(5)
O1 O 0.40407(17) 0.06701(15) 0.9949(2)
O2 O 0.43283(16) -0.03743(14) 1.1712(2)
O3 O 0.41118(17) 0.29162(15) 1.0076(2)
O4 O 0.40437(18) 0.32409(15) 1.2098(2)
O5 O 0.62703(19) 0.16215(16) 1.0922(2)
O6 O 0.67168(17) 0.31701(14) 1.1891(2)
O7 O 0.58229(17) 0.03486(15) 1.4573(2)
O8 O 0.57988(17) 0.19128(15) 1.3654(2)
C1 C 0.3046(2) 0.1011(2) 1.1499(3)
H1 H 0.3366 0.1141 1.2466
C2 C 0.2037(3) 0.0321(2) 1.1283(4)
H2 H 0.2254 -0.0356 1.1694
H3 H 0.1557 0.0640 1.1722
C3 C 0.1437(3) 0.0179(2) 0.9805(4)
H4 H 0.0815 -0.0271 0.9701
H5 H 0.1910 -0.0155 0.9368
C4 C 0.1057(3) 0.1230(3) 0.9131(4)
H6 H 0.0684 0.1122 0.8181
H7 H 0.0549 0.1544 0.9531
C5 C 0.2011(3) 0.1968(2) 0.9294(3)
H8 H 0.1742 0.2649 0.8940
H9 H 0.2461 0.1705 0.8777
C6 C 0.2696(2) 0.2076(2) 1.0773(3)
H10 H 0.2233 0.2417 1.1233
C7 C 0.3868(2) 0.0419(2) 1.1000(3)
C8 C 0.3673(2) 0.2768(2) 1.0983(3)
C9 C 0.7670(2) 0.1638(2) 1.2958(3)
H11 H 0.8191 0.1347 1.2546
C10 C 0.8315(2) 0.2319(2) 1.4115(3)
H12 H 0.7831 0.2625 1.4558
H13 H 0.8652 0.2883 1.3770
C11 C 0.9189(3) 0.1684(3) 1.5134(4)
H14 H 0.9710 0.1432 1.4711
H15 H 0.9571 0.2129 1.5883
C12 C 0.8700(3) 0.0762(3) 1.5658(4)
H16 H 0.8252 0.1018 1.6181
H17 H 0.9277 0.0345 1.6248
C13 C 0.8015(2) 0.0079(2) 1.4517(3)
H18 H 0.7662 -0.0456 1.4889
H19 H 0.8486 -0.0266 1.4086
C14 C 0.7153(2) 0.0700(2) 1.3458(3)
H20 H 0.6861 0.0236 1.2684
C15 C 0.6194(2) 0.1034(2) 1.3929(3)
C16 C 0.6814(2) 0.2194(2) 1.1845(3)
Mn1B Mn 0.50136(4) -0.17050(3) 1.08115(5)
Mn1C Mn 0.49864(4) 0.32950(3) 1.41885(5)
Mn2A Mn 0.53289(4) 0.40944(3) 1.12387(5)
Mn2B Mn 0.53289(4) 0.09056(3) 1.62387(5)
O2B O 0.56717(16) 0.03743(14) 0.8288(2)
O3A O 0.58882(17) -0.20838(15) 1.4924(2)
O4C O 0.40437(18) 0.17591(15) 0.7098(2)
O4A O 0.59563(18) -0.17591(15) 1.2902(2)
O6A O 0.32832(17) -0.18299(14) 1.3109(2)
O7B O 0.41771(17) -0.03486(15) 1.5427(2)
O8C O 0.57988(17) 0.30872(15) 0.8654(2)
loop_
_geom_bond_atom_site_label_1
_geom_bond_atom_site_label_2
_geom_bond_site_symmetry_1
_geom_bond_site_symmetry_2
Mn1 O1 1_555 1_555
Mn2 O2 1_555 1_555
O1 C7 1_555 1_555
O2 C7 1_555 1_555
O3 Mn1 1_555 1_555
O4 C8 1_555 1_555
O5 Mn1 1_555 1_555
O6 C16 1_555 1_555
O7 Mn2 1_555 1_555
O8 C15 1_555 1_555
C1 H1 1_555 1_555
C2 C1 1_555 1_555
H2 C2 1_555 1_555
H3 C2 1_555 1_555
C3 C2 1_555 1_555
H4 C3 1_555 1_555
H5 C3 1_555 1_555
C4 C3 1_555 1_555
H6 C4 1_555 1_555
H7 C4 1_555 1_555
C5 C4 1_555 1_555
H8 C5 1_555 1_555
H9 C5 1_555 1_555
C6 C1 1_555 1_555
H10 C6 1_555 1_555
C7 C1 1_555 1_555
C8 O3 1_555 1_555
C9 H11 1_555 1_555
C10 C9 1_555 1_555
H12 C10 1_555 1_555
H13 C10 1_555 1_555
C11 C10 1_555 1_555
H14 C11 1_555 1_555
H15 C11 1_555 1_555
C12 C11 1_555 1_555
H16 C12 1_555 1_555
H17 C12 1_555 1_555
C13 C12 1_555 1_555
H18 C13 1_555 1_555
H19 C13 1_555 1_555
C14 C9 1_555 1_555
H20 C14 1_555 1_555
C15 O7 1_555 1_555
C16 O5 1_555 1_555
Mn1B O2 1_555 1_555
Mn1C O4 1_555 1_555
Mn2A O3 1_555 1_555
Mn2B O7 1_555 1_555
O2B Mn1 1_555 1_555
O3A Mn2 1_555 1_555
O4C Mn1 1_555 1_555
O4A Mn2 1_555 1_555
O6A Mn2 1_555 1_555
O7B Mn2 1_555 1_555
O8C Mn1 1_555 1_555
O4 Mn2A 1_555 1_555
O6 Mn2A 1_555 1_555
O8 Mn1C 1_555 1_555
C5 C6 1_555 1_555
C6 C8 1_555 1_555
C9 C16 1_555 1_555
C13 C14 1_555 1_555
C14 C15 1_555 1_555
Mn1B O4A 1_555 1_555
Mn2B O7B 1_555 1_555

#END
