
#######################################################################
#
#                 Cambridge Crystallographic Data Centre
#                                CCDC 
#
#######################################################################
#
# If this CIF has been generated from an entry in the Cambridge 
# Structural Database, then it will include bibliographic, chemical, 
# crystal, experimental, refinement or atomic coordinate data resulting 
# from the CCDC's data processing and validation procedures.
#
#######################################################################

data_QIYFAG
_symmetry_cell_setting           triclinic
_symmetry_space_group_name_H-M   'P -1'
_symmetry_Int_Tables_number      2
_space_group_name_Hall           '-P 1'
loop_
_symmetry_equiv_pos_site_id
_symmetry_equiv_pos_as_xyz
1 x,y,z
2 -x,-y,-z
_cell_length_a                   11.6776(7)
_cell_length_b                   12.2274(7)
_cell_length_c                   14.3085(8)
_cell_angle_alpha                73.8460(10)
_cell_angle_beta                 75.1120(10)
_cell_angle_gamma                81.2840(10)
_cell_volume                     1889.45
loop_
_atom_site_label
_atom_site_type_symbol
_atom_site_fract_x
_atom_site_fract_y
_atom_site_fract_z
Mn1 Mn 0.64752(4) -0.01124(4) 0.49723(4)
Mn2 Mn 0.89937(4) 0.09766(4) 0.54241(4)
Mn3 Mn 1.14017(4) -0.41203(4) 0.49973(4)
Mn4 Mn 0.64222(4) -0.39533(4) 0.49554(4)
O1 O 0.7645(2) -0.13645(19) 0.56326(19)
O2 O 0.93424(19) -0.08434(18) 0.57332(18)
O3 O 0.9667(2) -0.4098(2) 0.5856(2)
O4 O 0.7951(2) -0.4462(2) 0.5697(2)
O5 O 0.50710(19) 0.11385(18) 0.43826(17)
O6 O 0.4587(2) 0.3005(2) 0.4087(2)
O7 O 0.77567(19) 0.11726(17) 0.43230(17)
O8 O 0.8375(2) 0.26759(18) 0.44900(18)
O9 O 0.5768(2) 0.0616(2) 0.62499(19)
O10 O 0.7430(2) 0.0948(2) 0.65531(18)
O11 O 0.4718(3) 0.3563(3) 0.6006(3)
O12 O 0.6480(2) 0.4223(2) 0.5512(2)
O13 O 0.9938(2) 0.1420(2) 0.6271(2)
O14 O 0.9119(2) 0.3171(2) 0.6312(2)
O15 O 1.2368(2) 0.2831(2) 0.6212(2)
O16 O 1.1933(2) 0.46122(19) 0.62758(18)
O17 O 0.6688(2) -0.06514(19) 0.36082(18)
H1 H 0.6049 -0.0473 0.3400
H2 H 0.6839 -0.1372 0.3722
C1 C 0.8536(3) -0.2474(3) 0.6943(2)
H3 H 0.9367 -0.2719 0.6974
C2 C 0.7912(4) -0.2007(3) 0.7857(3)
H4 H 0.8341 -0.1396 0.7874
H5 H 0.7113 -0.1691 0.7796
C3 C 0.7847(5) -0.2927(4) 0.8821(3)
H6 H 0.8645 -0.3176 0.8924
H7 H 0.7399 -0.2615 0.9374
C4 C 0.7264(4) -0.3940(4) 0.8808(3)
H8 H 0.7281 -0.4532 0.9419
H9 H 0.6438 -0.3711 0.8781
C5 C 0.7885(4) -0.4412(3) 0.7925(3)
H10 H 0.7469 -0.5040 0.7922
H11 H 0.8688 -0.4709 0.7986
C6 C 0.7932(3) -0.3499(3) 0.6938(2)
H12 H 0.7116 -0.3239 0.6866
C7 C 0.8503(3) -0.1506(2) 0.6024(2)
C8 C 0.8570(3) -0.4033(2) 0.6089(2)
C9 C 0.6308(3) 0.2371(3) 0.3030(2)
H13 H 0.6690 0.1628 0.2930
C10 C 0.5898(4) 0.3031(4) 0.2090(3)
H14 H 0.5441 0.3734 0.2201
H15 H 0.5382 0.2581 0.1943
C11 C 0.6944(5) 0.3316(5) 0.1201(3)
H16 H 0.6654 0.3742 0.0614
H17 H 0.7381 0.2615 0.1066
C12 C 0.7765(4) 0.4022(4) 0.1420(3)
H18 H 0.8423 0.4212 0.0848
H19 H 0.7333 0.4730 0.1544
C13 C 0.8235(3) 0.3350(3) 0.2326(3)
H20 H 0.8742 0.3812 0.2471
H21 H 0.8715 0.2672 0.2180
C14 C 0.7219(3) 0.2991(3) 0.3254(2)
H22 H 0.6814 0.3677 0.3461
C15 C 0.5244(3) 0.2161(3) 0.3905(2)
C16 C 0.7792(3) 0.2244(3) 0.4074(2)
C17 C 0.5614(3) 0.1703(3) 0.7435(3)
H23 H 0.4768 0.1729 0.7443
C18 C 0.5965(3) 0.2933(3) 0.7131(3)
H24 H 0.6818 0.2909 0.7092
C19 C 0.5283(4) 0.3568(4) 0.7921(3)
H25 H 0.5539 0.4333 0.7737
H26 H 0.4439 0.3637 0.7938
C20 C 0.5484(5) 0.2953(5) 0.8949(4)
H27 H 0.6318 0.2936 0.8949
H28 H 0.5022 0.3363 0.9433
C21 C 0.5128(5) 0.1750(5) 0.9245(3)
H29 H 0.4279 0.1769 0.9307
H30 H 0.5299 0.1359 0.9890
C22 C 0.5793(4) 0.1096(4) 0.8475(3)
H31 H 0.6635 0.1008 0.8466
H32 H 0.5517 0.0338 0.8667
C23 C 0.6326(3) 0.1041(3) 0.6684(2)
C24 C 0.5715(3) 0.3601(3) 0.6135(3)
C25 C 1.0206(3) 0.2161(3) 0.7539(3)
H33 H 1.0847 0.1542 0.7557
C26 C 1.0725(3) 0.3238(3) 0.7505(3)
H34 H 1.0090 0.3862 0.7472
C27 C 1.1151(4) 0.3098(5) 0.8469(3)
H35 H 1.1812 0.2513 0.8501
H36 H 1.1429 0.3810 0.8459
C28 C 1.0154(6) 0.2767(5) 0.9385(4)
H37 H 1.0452 0.2655 0.9981
H38 H 0.9525 0.3383 0.9382
C29 C 0.9664(5) 0.1703(5) 0.9413(4)
H39 H 0.9008 0.1535 0.9991
H40 H 1.0274 0.1071 0.9481
C30 C 0.9230(4) 0.1813(4) 0.8471(3)
H41 H 0.8970 0.1088 0.8492
H42 H 0.8554 0.2381 0.8445
C31 C 0.9725(3) 0.2265(3) 0.6625(3)
C32 C 1.1725(3) 0.3572(3) 0.6610(2)
Mn1A Mn 0.35248(4) 0.01124(4) 0.50277(4)
Mn2A Mn 1.10063(4) -0.09766(4) 0.45759(4)
Mn3A Mn 0.85983(4) -0.58797(4) 0.50027(4)
Mn3A_2 Mn 0.85983(4) 0.41203(4) 0.50027(4)
Mn3_2 Mn 1.14017(4) 0.58797(4) 0.49973(4)
Mn4A Mn 0.35778(4) 0.39533(4) 0.50446(4)
Mn4_2 Mn 0.64222(4) 0.60467(4) 0.49554(4)
Mn4A_2 Mn 1.35778(4) 0.39533(4) 0.50446(4)
O2A O 1.06576(19) 0.08434(18) 0.42668(18)
O4A O 1.2049(2) -0.5538(2) 0.4303(2)
O5A O 0.49290(19) -0.11385(18) 0.56174(17)
O6A O 0.5413(2) -0.3005(2) 0.5913(2)
O8A O 1.1625(2) -0.26759(18) 0.55100(18)
O11A O 0.5282(3) -0.3563(3) 0.3994(3)
O12A O 1.3520(2) -0.4223(2) 0.4488(2)
O12_2 O 0.6480(2) -0.5777(2) 0.5512(2)
O14A O 1.0881(2) -0.3171(2) 0.3688(2)
O15A O 0.7632(2) -0.2831(2) 0.3788(2)
O16_2 O 1.1933(2) -0.53878(19) 0.62758(18)
O16A O 0.8067(2) -0.46122(19) 0.37242(18)
O18 O 0.9208(17) 0.0679(15) 0.2194(13)
H43 H 0.9873 0.0544 0.1812
H44 H 0.8936 0.0128 0.2675
loop_
_geom_bond_atom_site_label_1
_geom_bond_atom_site_label_2
_geom_bond_site_symmetry_1
_geom_bond_site_symmetry_2
Mn1 O1 1_555 1_555
Mn2 O2 1_555 1_555
Mn3 O3 1_555 1_555
Mn4 O4 1_555 1_555
O1 C7 1_555 1_555
O2 C7 1_555 1_555
O3 C8 1_555 1_555
O4 C8 1_555 1_555
O5 Mn1 1_555 1_555
O6 C15 1_555 1_555
O7 Mn1 1_555 1_555
O8 Mn2 1_555 1_555
O9 Mn1 1_555 1_555
O10 Mn2 1_555 1_555
O11 C24 1_555 1_555
O12 C24 1_555 1_555
O13 Mn2 1_555 1_555
O14 C31 1_555 1_555
O15 C32 1_555 1_555
O16 C32 1_555 1_555
O17 Mn1 1_555 1_555
H1 O17 1_555 1_555
H2 O17 1_555 1_555
C1 H3 1_555 1_555
C2 C1 1_555 1_555
H4 C2 1_555 1_555
H5 C2 1_555 1_555
C3 C2 1_555 1_555
H6 C3 1_555 1_555
H7 C3 1_555 1_555
C4 C3 1_555 1_555
H8 C4 1_555 1_555
H9 C4 1_555 1_555
C5 C4 1_555 1_555
H10 C5 1_555 1_555
H11 C5 1_555 1_555
C6 C1 1_555 1_555
H12 C6 1_555 1_555
C7 C1 1_555 1_555
C8 C6 1_555 1_555
C9 H13 1_555 1_555
C10 C9 1_555 1_555
H14 C10 1_555 1_555
H15 C10 1_555 1_555
C11 C10 1_555 1_555
H16 C11 1_555 1_555
H17 C11 1_555 1_555
C12 C11 1_555 1_555
H18 C12 1_555 1_555
H19 C12 1_555 1_555
C13 C12 1_555 1_555
H20 C13 1_555 1_555
H21 C13 1_555 1_555
C14 C9 1_555 1_555
H22 C14 1_555 1_555
C15 O5 1_555 1_555
C16 O7 1_555 1_555
C17 H23 1_555 1_555
C18 C17 1_555 1_555
H24 C18 1_555 1_555
C19 C18 1_555 1_555
H25 C19 1_555 1_555
H26 C19 1_555 1_555
C20 C19 1_555 1_555
H27 C20 1_555 1_555
H28 C20 1_555 1_555
C21 C20 1_555 1_555
H29 C21 1_555 1_555
H30 C21 1_555 1_555
C22 C17 1_555 1_555
H31 C22 1_555 1_555
H32 C22 1_555 1_555
C23 O9 1_555 1_555
C24 C18 1_555 1_555
C25 H33 1_555 1_555
C26 C25 1_555 1_555
H34 C26 1_555 1_555
C27 C26 1_555 1_555
H35 C27 1_555 1_555
H36 C27 1_555 1_555
C28 C27 1_555 1_555
H37 C28 1_555 1_555
H38 C28 1_555 1_555
C29 C28 1_555 1_555
H39 C29 1_555 1_555
H40 C29 1_555 1_555
C30 C25 1_555 1_555
H41 C30 1_555 1_555
H42 C30 1_555 1_555
C31 O13 1_555 1_555
C32 C26 1_555 1_555
O18 H43 1_555 1_555
H44 O18 1_555 1_555
Mn1A O5 1_555 1_555
Mn2A O2 1_555 1_555
Mn3A O4 1_555 1_555
Mn3A_2 O8 1_555 1_555
Mn3_2 O16 1_555 1_555
Mn4A O6 1_555 1_555
Mn4_2 O12 1_555 1_555
Mn4A_2 O15 1_555 1_555
O2A Mn2 1_555 1_555
O4A Mn3 1_555 1_555
O5A Mn1 1_555 1_555
O6A Mn4 1_555 1_555
O8A Mn3 1_555 1_555
O11A Mn4 1_555 1_555
O12A Mn3 1_555 1_555
O12_2 Mn4 1_555 1_555
O14A Mn3 1_555 1_555
O15A Mn4 1_555 1_555
O16_2 Mn3 1_555 1_555
O16A Mn4 1_555 1_555
Mn2 O7 1_555 1_555
O8 C16 1_555 1_555
O10 C23 1_555 1_555
O11 Mn4A 1_555 1_555
O12 Mn3A_2 1_555 1_555
O14 Mn3A_2 1_555 1_555
O16 Mn4A_2 1_555 1_555
C5 C6 1_555 1_555
C9 C15 1_555 1_555
C13 C14 1_555 1_555
C14 C16 1_555 1_555
C17 C23 1_555 1_555
C21 C22 1_555 1_555
C25 C31 1_555 1_555
C29 C30 1_555 1_555
Mn1A O5A 1_555 1_555
Mn2A O2A 1_555 1_555
Mn2A O8A 1_555 1_555
Mn3A O12_2 1_555 1_555
Mn3A O16A 1_555 1_555

#END
