
#######################################################################
#
#                 Cambridge Crystallographic Data Centre
#                                CCDC 
#
#######################################################################
#
# If this CIF has been generated from an entry in the Cambridge 
# Structural Database, then it will include bibliographic, chemical, 
# crystal, experimental, refinement or atomic coordinate data resulting 
# from the CCDC's data processing and validation procedures.
#
#######################################################################

data_QIYGIQ
_symmetry_cell_setting           monoclinic
_symmetry_space_group_name_H-M   'C 2/c'
_symmetry_Int_Tables_number      15
_space_group_name_Hall           '-C 2yn'
loop_
_symmetry_equiv_pos_site_id
_symmetry_equiv_pos_as_xyz
1 x,y,z
2 -x,y,1/2-z
3 1/2+x,1/2+y,z
4 1/2-x,1/2+y,1/2-z
5 -x,-y,-z
6 x,-y,1/2+z
7 1/2-x,1/2-y,-z
8 1/2+x,1/2-y,1/2+z
_cell_length_a                   17.048(2)
_cell_length_b                   16.436(4)
_cell_length_c                   13.790(3)
_cell_angle_alpha                90
_cell_angle_beta                 105.318(4)
_cell_angle_gamma                90
_cell_volume                     3726.7
loop_
_atom_site_label
_atom_site_type_symbol
_atom_site_fract_x
_atom_site_fract_y
_atom_site_fract_z
Ag1 Ag -0.09944(3) 0.66279(3) -0.22376(3)
Ag2 Ag -0.01614(3) 0.80468(3) -0.14579(3)
Ag3 Ag 0.20220(3) 0.22152(3) 0.08589(4)
O1 O 0.0534(3) 0.7166(2) -0.0408(3)
O2 O 0.1551(3) 0.3445(2) 0.0455(3)
O3 O 0.4015(2) 0.6257(2) 0.2276(3)
O4 O 0.3198(3) 0.7338(2) 0.1989(3)
O5 O 0.2887(3) 0.3576(2) 0.1019(3)
O6 O 0.0143(2) 0.6024(3) -0.1281(3)
N1 N 0.0012(3) 0.9252(3) -0.0448(4)
N2 N 0.3260(3) -0.0425(3) 0.2159(3)
N3 N 0.2567(3) 0.1057(3) 0.1457(3)
C1 C 0.0603(3) 0.6424(3) -0.0591(4)
C2 C 0.2494(3) -0.0386(3) 0.1603(4)
C3 C 0.2005(4) -0.1159(3) 0.1388(5)
H1 H 0.2350 -0.1598 0.1299
H2 H 0.1571 -0.1093 0.0787
H3 H 0.1781 -0.1279 0.1942
C4 C 0.3341(4) 0.1017(3) 0.2028(4)
C5 C 0.1972(3) 0.6467(3) 0.0627(4)
H4 H 0.1926 0.7031 0.0613
C6 C 0.1394(3) 0.5151(3) 0.0115(4)
H5 H 0.0958 0.4837 -0.0236
C7 C 0.2690(3) 0.6107(3) 0.1205(4)
C8 C 0.2188(3) 0.3865(3) 0.0721(4)
C9 C 0.2100(3) 0.4776(3) 0.0669(4)
C10 C 0.3354(3) 0.6612(3) 0.1862(4)
C11 C 0.1336(3) 0.6004(3) 0.0082(4)
C12 C 0.0103(4) 0.9940(4) -0.0914(5)
H6 H 0.0183 0.9910 -0.1554
C13 C -0.0085(4) 0.9297(4) 0.0483(4)
C14 C 0.3808(4) 0.1794(4) 0.2273(6)
H7 H 0.3969 0.1979 0.1694
H8 H 0.4283 0.1704 0.2819
H9 H 0.3471 0.2199 0.2464
C15 C 0.2153(4) 0.0361(3) 0.1250(4)
H10 H 0.1619 0.0377 0.0855
C16 C -0.0199(4) 0.8531(4) 0.1012(5)
H11 H -0.0762 0.8472 0.0999
H12 H 0.0124 0.8553 0.1697
H13 H -0.0032 0.8074 0.0680
C17 C 0.3674(4) 0.0267(3) 0.2363(4)
H14 H 0.4211 0.0247 0.2748
C18 C 0.2760(3) 0.5256(3) 0.1198(4)
H15 H 0.3244 0.5008 0.1542
N1D N -0.0012(3) 1.0748(3) 0.0448(4)
C12D C -0.0103(4) 1.0060(4) 0.0914(5)
H6D H -0.0183 1.0090 0.1554
C13D C 0.0085(4) 1.0703(4) -0.0483(4)
C16D C 0.0199(4) 1.1469(4) -0.1012(5)
H11D H 0.0762 1.1528 -0.0999
H12D H -0.0124 1.1447 -0.1697
H13D H 0.0032 1.1926 -0.0680
Ag1D Ag 0.09944(3) 1.33721(3) 0.22376(3)
Ag2D Ag 0.01614(3) 1.19532(3) 0.14579(3)
Ag3D Ag -0.20220(3) 1.77848(3) -0.08589(4)
O1D O -0.0534(3) 1.2834(2) 0.0408(3)
O2D O -0.1551(3) 1.6555(2) -0.0455(3)
O3D O -0.4015(2) 1.3743(2) -0.2276(3)
O4D O -0.3198(3) 1.2662(2) -0.1989(3)
O5D O -0.2887(3) 1.6424(2) -0.1019(3)
O6D O -0.0143(2) 1.3976(3) 0.1281(3)
N2D N -0.3260(3) 2.0425(3) -0.2159(3)
N3D N -0.2567(3) 1.8943(3) -0.1457(3)
C1D C -0.0603(3) 1.3576(3) 0.0591(4)
C2D C -0.2494(3) 2.0386(3) -0.1603(4)
C3D C -0.2005(4) 2.1159(3) -0.1388(5)
H1D H -0.2350 2.1598 -0.1299
H2D H -0.1571 2.1093 -0.0787
H3D H -0.1781 2.1279 -0.1942
C4D C -0.3341(4) 1.8983(3) -0.2028(4)
C5D C -0.1972(3) 1.3533(3) -0.0627(4)
H4D H -0.1926 1.2969 -0.0613
C6D C -0.1394(3) 1.4849(3) -0.0115(4)
H5D H -0.0958 1.5163 0.0236
C7D C -0.2690(3) 1.3893(3) -0.1205(4)
C8D C -0.2188(3) 1.6135(3) -0.0721(4)
C9D C -0.2100(3) 1.5224(3) -0.0669(4)
C10D C -0.3354(3) 1.3388(3) -0.1862(4)
C11D C -0.1336(3) 1.3996(3) -0.0082(4)
C14D C -0.3808(4) 1.8206(4) -0.2273(6)
H7D H -0.3969 1.8021 -0.1694
H8D H -0.4283 1.8296 -0.2819
H9D H -0.3471 1.7801 -0.2464
C15D C -0.2153(4) 1.9639(3) -0.1250(4)
H10D H -0.1619 1.9623 -0.0855
C17D C -0.3674(4) 1.9733(3) -0.2363(4)
H14D H -0.4211 1.9753 -0.2748
C18D C -0.2760(3) 1.4744(3) -0.1198(4)
H15D H -0.3244 1.4992 -0.1542
Ag1C Ag -0.40056(3) 1.16279(3) -0.27624(3)
Ag1C_2 Ag -0.40056(3) 2.16279(3) -0.27624(3)
Ag1G Ag 0.40056(3) -0.16279(3) 0.27624(3)
Ag1G_2 Ag 0.40056(3) 0.83721(3) 0.27624(3)
Ag2C Ag -0.48386(3) 1.30468(3) -0.35421(3)
Ag2G Ag 0.48386(3) 0.69532(3) 0.35421(3)
O3C O 0.0985(2) 1.1257(2) 0.2724(3)
O3G O -0.0985(2) 0.8743(2) -0.2724(3)
O4C O 0.1802(3) 1.2338(2) 0.3011(3)
O4G O -0.1802(3) 0.7662(2) -0.3011(3)
N2C N 0.1740(3) 1.4575(3) 0.2841(3)
N2G N -0.1740(3) 0.5425(3) -0.2841(3)
loop_
_geom_bond_atom_site_label_1
_geom_bond_atom_site_label_2
_geom_bond_site_symmetry_1
_geom_bond_site_symmetry_2
Ag1 Ag2 1_555 1_555
Ag2 O1 1_555 1_555
Ag3 O2 1_555 1_555
O1 C1 1_555 1_555
O2 C8 1_555 1_555
O3 C10 1_555 1_555
O4 C10 1_555 1_555
O5 Ag3 1_555 1_555
O6 Ag1 1_555 1_555
N1 Ag2 1_555 1_555
N2 C2 1_555 1_555
N3 Ag3 1_555 1_555
C1 O6 1_555 1_555
C2 C3 1_555 1_555
C3 H1 1_555 1_555
H2 C3 1_555 1_555
H3 C3 1_555 1_555
C4 N3 1_555 1_555
C5 H4 1_555 1_555
C6 H5 1_555 1_555
C7 C5 1_555 1_555
C8 O5 1_555 1_555
C9 C6 1_555 1_555
C10 C7 1_555 1_555
C11 C1 1_555 1_555
C12 N1 1_555 1_555
H6 C12 1_555 1_555
C13 N1 1_555 1_555
C14 C4 1_555 1_555
H7 C14 1_555 1_555
H8 C14 1_555 1_555
H9 C14 1_555 1_555
C15 N3 1_555 1_555
H10 C15 1_555 1_555
C16 C13 1_555 1_555
H11 C16 1_555 1_555
H12 C16 1_555 1_555
H13 C16 1_555 1_555
C17 N2 1_555 1_555
H14 C17 1_555 1_555
C18 C7 1_555 1_555
H15 C18 1_555 1_555
N1D C12D 1_555 1_555
C12D C13 1_555 1_555
H6D C12D 1_555 1_555
C13D C12 1_555 1_555
C16D C13D 1_555 1_555
H11D C16D 1_555 1_555
H12D C16D 1_555 1_555
H13D C16D 1_555 1_555
Ag1D Ag2D 1_555 1_555
Ag2D N1D 1_555 1_555
Ag3D O2D 1_555 1_555
O1D Ag2D 1_555 1_555
O2D C8D 1_555 1_555
O3D C10D 1_555 1_555
O4D C10D 1_555 1_555
O5D Ag3D 1_555 1_555
O6D Ag1D 1_555 1_555
N2D C2D 1_555 1_555
N3D Ag3D 1_555 1_555
C1D O1D 1_555 1_555
C2D C3D 1_555 1_555
C3D H1D 1_555 1_555
H2D C3D 1_555 1_555
H3D C3D 1_555 1_555
C4D N3D 1_555 1_555
C5D H4D 1_555 1_555
C6D H5D 1_555 1_555
C7D C5D 1_555 1_555
C8D O5D 1_555 1_555
C9D C6D 1_555 1_555
C10D C7D 1_555 1_555
C11D C1D 1_555 1_555
C14D C4D 1_555 1_555
H7D C14D 1_555 1_555
H8D C14D 1_555 1_555
H9D C14D 1_555 1_555
C15D N3D 1_555 1_555
H10D C15D 1_555 1_555
C17D N2D 1_555 1_555
H14D C17D 1_555 1_555
C18D C7D 1_555 1_555
H15D C18D 1_555 1_555
Ag1C O4D 1_555 1_555
Ag1C_2 N2D 1_555 1_555
Ag1G N2 1_555 1_555
Ag1G_2 O4 1_555 1_555
Ag2C O3D 1_555 1_555
Ag2G O3 1_555 1_555
O3C Ag2D 1_555 1_555
O3G Ag2 1_555 1_555
O4C Ag1D 1_555 1_555
O4G Ag1 1_555 1_555
N2C Ag1D 1_555 1_555
N2G Ag1 1_555 1_555
C2 C15 1_555 1_555
C4 C17 1_555 1_555
C5 C11 1_555 1_555
C6 C11 1_555 1_555
C8 C9 1_555 1_555
C9 C18 1_555 1_555
N1D C13D 1_555 1_555
O6D C1D 1_555 1_555
C2D C15D 1_555 1_555
C4D C17D 1_555 1_555
C5D C11D 1_555 1_555
C6D C11D 1_555 1_555
C8D C9D 1_555 1_555
C9D C18D 1_555 1_555
Ag1C Ag2C 1_555 1_555
Ag1G_2 Ag2G 1_555 1_555

#END
