
#######################################################################
#
#                 Cambridge Crystallographic Data Centre
#                                CCDC 
#
#######################################################################
#
# If this CIF has been generated from an entry in the Cambridge 
# Structural Database, then it will include bibliographic, chemical, 
# crystal, experimental, refinement or atomic coordinate data resulting 
# from the CCDC's data processing and validation procedures.
#
#######################################################################

data_QIYHIQ
_symmetry_cell_setting           monoclinic
_symmetry_space_group_name_H-M   'C 2/c'
_symmetry_Int_Tables_number      15
_space_group_name_Hall           '-C 2yn'
loop_
_symmetry_equiv_pos_site_id
_symmetry_equiv_pos_as_xyz
1 x,y,z
2 1/2+x,1/2+y,z
3 -x,y,1/2-z
4 1/2-x,1/2+y,1/2-z
5 -x,-y,-z
6 1/2-x,1/2-y,-z
7 x,-y,1/2+z
8 1/2+x,1/2-y,1/2+z
_cell_length_a                   10.1267(12)
_cell_length_b                   12.2262(14)
_cell_length_c                   7.0541(8)
_cell_angle_alpha                90
_cell_angle_beta                 101.079(6)
_cell_angle_gamma                90
_cell_volume                     857.099
loop_
_atom_site_label
_atom_site_type_symbol
_atom_site_fract_x
_atom_site_fract_y
_atom_site_fract_z
Tl1 Tl 0.95887(4) 0.34747(3) 0.49333(5)
N1 N 1.0000 0.1582(10) 0.7500
O1 O 1.2393(8) -0.1725(6) 0.6892(13)
O2 O 1.3459(7) -0.0137(6) 0.7090(11)
C1 C 1.1159(9) -0.0130(7) 0.7304(13)
C2 C 1.0000 -0.0699(11) 0.7500
H1 H 1.0000 -0.1476 0.7500
C3 C 1.2431(10) -0.0712(8) 0.7086(14)
C4 C 1.1097(10) 0.1016(8) 0.7302(14)
H2 H 1.1877 0.1413 0.7152
Tl1B Tl 1.04113(4) 0.34747(3) 1.00667(5)
Tl1D Tl 1.04113(4) 0.65253(3) 0.50667(5)
Tl1B_2 Tl 1.04113(4) 0.34747(3) 0.00667(5)
Tl1A Tl 1.45887(4) -0.15253(3) 0.49333(5)
Tl1D_2 Tl 1.04113(4) -0.34747(3) 0.50667(5)
Tl1G Tl 1.45887(4) 0.15253(3) 0.99333(5)
Tl1F Tl 0.95887(4) -0.34747(3) 0.99333(5)
Tl1C Tl 0.54113(4) -0.15253(3) 1.00667(5)
Tl1E Tl 0.54113(4) 0.15253(3) 0.50667(5)
Tl1_2 Tl 0.95887(4) 0.34747(3) 1.49333(5)
Tl1F_2 Tl 0.95887(4) 0.65253(3) 0.99333(5)
O1B O 0.7607(8) -0.1725(6) 0.8108(13)
O1A O 0.7393(8) 0.3275(6) 0.6892(13)
O1D O 0.7607(8) 0.1725(6) 0.3108(13)
O1F O 1.2393(8) 0.1725(6) 1.1892(13)
O1C O 1.2607(8) 0.3275(6) 0.8108(13)
O2B O 0.6541(7) -0.0137(6) 0.7910(11)
O2A O 0.8459(7) 0.4863(6) 0.7090(11)
O2G O 0.8459(7) 0.5137(6) 0.2090(11)
O2E O 1.1541(7) 0.5137(6) 1.2910(11)
O2C O 1.1541(7) 0.4863(6) 0.7910(11)
C1B C 0.8841(9) -0.0130(7) 0.7696(13)
C3B C 0.7569(10) -0.0712(8) 0.7914(14)
C4B C 0.8903(10) 0.1016(8) 0.7698(14)
H2B H 0.8123 0.1413 0.7848
loop_
_geom_bond_atom_site_label_1
_geom_bond_atom_site_label_2
_geom_bond_site_symmetry_1
_geom_bond_site_symmetry_2
Tl1 N1 1_555 1_555
N1 C4 1_555 1_555
O1 C3 1_555 1_555
O2 C3 1_555 1_555
C1 C2 1_555 1_555
C2 H1 1_555 1_555
C3 C1 1_555 1_555
C4 C1 1_555 1_555
H2 C4 1_555 1_555
Tl1B Tl1 1_555 1_555
Tl1D Tl1 1_555 1_555
Tl1B_2 Tl1 1_555 1_555
Tl1A O1 1_555 1_555
Tl1D_2 O1 1_555 1_555
Tl1G O2 1_555 1_555
Tl1F Tl1D_2 1_555 1_555
Tl1C O1B 1_555 1_555
Tl1E O1A 1_555 1_555
Tl1_2 Tl1B 1_555 1_555
Tl1F_2 Tl1B 1_555 1_555
O1B Tl1F 1_555 1_555
O1A Tl1 1_555 1_555
O1D Tl1 1_555 1_555
O1F Tl1B 1_555 1_555
O1C Tl1B 1_555 1_555
O2B Tl1C 1_555 1_555
O2A Tl1 1_555 1_555
O2G Tl1 1_555 1_555
O2E Tl1B 1_555 1_555
O2C Tl1B 1_555 1_555
C1B C2 1_555 1_555
C3B O1B 1_555 1_555
C4B N1 1_555 1_555
H2B C4B 1_555 1_555
N1 Tl1B 1_555 1_555
O2 Tl1A 1_555 1_555
Tl1D Tl1F_2 1_555 1_555
Tl1D O2C 1_555 1_555
Tl1G O1F 1_555 1_555
Tl1G O1C 1_555 1_555
Tl1E O1D 1_555 1_555
Tl1E O2B 1_555 1_555
Tl1F_2 O2A 1_555 1_555
O2B C3B 1_555 1_555
C1B C3B 1_555 1_555
C1B C4B 1_555 1_555

#END
