
#######################################################################
#
#                 Cambridge Crystallographic Data Centre
#                                CCDC 
#
#######################################################################
#
# If this CIF has been generated from an entry in the Cambridge 
# Structural Database, then it will include bibliographic, chemical, 
# crystal, experimental, refinement or atomic coordinate data resulting 
# from the CCDC's data processing and validation procedures.
#
#######################################################################

data_QIYHAJ
_symmetry_cell_setting           triclinic
_symmetry_space_group_name_H-M   'P -1'
_symmetry_Int_Tables_number      2
_space_group_name_Hall           '-P 1'
loop_
_symmetry_equiv_pos_site_id
_symmetry_equiv_pos_as_xyz
1 x,y,z
2 -x,-y,-z
_cell_length_a                   10.4390(16)
_cell_length_b                   11.9726(19)
_cell_length_c                   13.542(2)
_cell_angle_alpha                73.094(2)
_cell_angle_beta                 89.126(2)
_cell_angle_gamma                70.174(2)
_cell_volume                     1516.83
loop_
_atom_site_label
_atom_site_type_symbol
_atom_site_fract_x
_atom_site_fract_y
_atom_site_fract_z
Zn1 Zn 0.5000 0.0000 0.5000
Zn2 Zn 0.0000 1.0000 0.0000
O1 O 0.4514(3) -0.4819(3) 0.3745(3)
O2 O 0.6508(3) 0.8212(3) 0.1888(2)
O3 O -0.0318(3) 0.7957(2) 0.21903(19)
O4 O 0.5007(3) 0.1912(2) 0.26419(18)
O5 O -0.1007(3) 1.0417(2) 0.13228(19)
H1 H -0.182(2) 1.093(3) 0.123(3)
H2 H -0.098(3) 0.9688(19) 0.165(3)
O6 O 0.6674(3) -0.0179(2) 0.40441(18)
H3 H 0.705(3) -0.087(2) 0.393(3)
H4 H 0.629(3) 0.038(2) 0.350(2)
O7 O 0.3808(2) 0.1705(2) 0.40201(17)
O8 O 0.0796(2) 0.8123(2) 0.07672(17)
N1 N 0.6408(4) -0.4350(3) 0.3837(3)
H5 H 0.684(4) -0.382(3) 0.383(3)
N2 N 0.9663(3) -0.6982(3) 0.4717(3)
N3 N 0.7225(3) 0.4101(3) 0.1099(2)
N4 N 0.1790(3) 1.0216(3) 0.0566(2)
N5 N 0.4113(3) -0.0935(3) 0.4220(2)
N6 N 0.5560(3) 0.7361(3) 0.0952(2)
H6 H 0.488(3) 0.747(4) 0.050(2)
C1 C 0.9427(5) -0.7901(4) 0.4471(3)
H7 H 1.0132 -0.8694 0.4619
C2 C 0.2963(5) -0.2223(4) 0.3348(3)
H8 H 0.2553 -0.2679 0.3072
C3 C 0.8144(6) -0.7713(5) 0.3994(3)
H9 H 0.7980 -0.8371 0.3823
C4 C 0.8026(5) 0.5949(4) 0.1435(3)
H10 H 0.8303 0.6579 0.1558
C5 C 0.8965(4) 0.4767(4) 0.1550(3)
H11 H 0.9902 0.4576 0.1748
C6 C 0.7136(5) -0.6555(4) 0.3784(3)
H12 H 0.6265 -0.6409 0.3466
C7 C 0.8647(4) -0.5888(4) 0.4490(3)
H13 H 0.8813 -0.5233 0.4664
C8 C 0.4152(4) 1.0404(4) 0.1288(3)
H14 H 0.4955 1.0469 0.1549
C9 C 0.8525(4) 0.3869(4) 0.1374(3)
H15 H 0.9174 0.3062 0.1453
C10 C 0.2221(5) -0.1042(4) 0.3341(3)
H16 H 0.1303 -0.0650 0.3037
C11 C 0.5535(4) 0.8256(4) 0.1354(3)
C12 C 0.5070(5) -0.4065(4) 0.3782(3)
C13 C 0.2823(4) -0.0436(4) 0.3781(3)
H17 H 0.2300 0.0388 0.3776
C14 C 0.6337(4) 0.5231(3) 0.0991(3)
H18 H 0.5405 0.5394 0.0800
C15 C 0.7388(4) -0.5632(4) 0.4029(3)
C16 C 0.2940(4) 1.1386(4) 0.1092(3)
H19 H 0.2893 1.2142 0.1210
C17 C 0.1798(4) 1.1263(3) 0.0723(3)
H20 H 0.0968 1.1959 0.0572
C18 C 0.4313(5) -0.2760(3) 0.3757(3)
C19 C 0.4193(4) 0.9320(3) 0.1102(3)
C20 C 0.0546(4) 0.7514(3) 0.1644(3)
C21 C 0.6685(4) 0.6182(3) 0.1139(3)
C22 C 0.4851(4) -0.2080(3) 0.4204(3)
H21 H 0.5770 -0.2445 0.4506
C23 C 0.3089(3) 0.3648(3) 0.2737(2)
C24 C 0.4050(4) 0.2324(3) 0.3153(3)
C25 C 0.2099(4) 0.4161(3) 0.3323(3)
H22 H 0.1983 0.3653 0.3976
C26 C 0.2388(4) 0.5634(3) 0.1419(3)
H23 H 0.2487 0.6137 0.0757
C27 C 0.1413(3) 0.6156(3) 0.2011(2)
C28 C 0.1277(4) 0.5398(3) 0.2977(3)
H24 H 0.0613 0.5737 0.3399
C29 C 0.3218(4) 0.4402(3) 0.1768(3)
H25 H 0.3882 0.4064 0.1347
C30 C 0.2974(4) 0.9265(3) 0.0758(3)
H26 H 0.2986 0.8510 0.0653
O2A O -0.6508(3) 1.1788(3) -0.1888(2)
O3A O 0.0318(3) 1.2043(2) -0.21903(19)
O4A O -0.5007(3) 1.8088(2) -0.26419(18)
O5A O 0.1007(3) 0.9583(2) -0.13228(19)
H1A H 0.182(2) 0.907(3) -0.123(3)
H2A H 0.098(3) 1.0312(19) -0.165(3)
O7A O -0.3808(2) 1.8295(2) -0.40201(17)
O8A O -0.0796(2) 1.1877(2) -0.07672(17)
N3A N -0.7225(3) 1.5899(3) -0.1099(2)
N4A N -0.1790(3) 0.9784(3) -0.0566(2)
N6A N -0.5560(3) 1.2639(3) -0.0952(2)
H6A H -0.488(3) 1.253(4) -0.050(2)
C4A C -0.8026(5) 1.4051(4) -0.1435(3)
H10A H -0.8303 1.3421 -0.1558
C5A C -0.8965(4) 1.5233(4) -0.1550(3)
H11A H -0.9902 1.5424 -0.1748
C8A C -0.4152(4) 0.9596(4) -0.1288(3)
H14A H -0.4955 0.9531 -0.1549
C9A C -0.8525(4) 1.6131(4) -0.1374(3)
H15A H -0.9174 1.6938 -0.1453
C11A C -0.5535(4) 1.1744(4) -0.1354(3)
C14A C -0.6337(4) 1.4769(3) -0.0991(3)
H18A H -0.5405 1.4606 -0.0800
C16A C -0.2940(4) 0.8614(4) -0.1092(3)
H19A H -0.2893 0.7858 -0.1210
C17A C -0.1798(4) 0.8737(3) -0.0723(3)
H20A H -0.0968 0.8041 -0.0572
C19A C -0.4193(4) 1.0680(3) -0.1102(3)
C20A C -0.0546(4) 1.2486(3) -0.1644(3)
C21A C -0.6685(4) 1.3818(3) -0.1139(3)
C23A C -0.3089(3) 1.6352(3) -0.2737(2)
C24A C -0.4050(4) 1.7676(3) -0.3153(3)
C25A C -0.2099(4) 1.5839(3) -0.3323(3)
H22A H -0.1983 1.6347 -0.3976
C26A C -0.2388(4) 1.4366(3) -0.1419(3)
H23A H -0.2487 1.3863 -0.0757
C27A C -0.1413(3) 1.3844(3) -0.2011(2)
C28A C -0.1277(4) 1.4602(3) -0.2977(3)
H24A H -0.0613 1.4263 -0.3399
C29A C -0.3218(4) 1.5598(3) -0.1768(3)
H25A H -0.3882 1.5936 -0.1347
C30A C -0.2974(4) 1.0735(3) -0.0758(3)
H26A H -0.2986 1.1490 -0.0653
O1A O 0.5486(3) 0.4819(3) 0.6255(3)
N1A N 0.3592(4) 0.4350(3) 0.6163(3)
H5A H 0.316(4) 0.382(3) 0.617(3)
N2A N 0.0337(3) 0.6982(3) 0.5283(3)
N5A N 0.5887(3) 0.0935(3) 0.5780(2)
C1A C 0.0573(5) 0.7901(4) 0.5529(3)
H7A H -0.0132 0.8694 0.5381
C2A C 0.7037(5) 0.2223(4) 0.6652(3)
H8A H 0.7447 0.2679 0.6928
C3A C 0.1856(6) 0.7713(5) 0.6006(3)
H9A H 0.2020 0.8371 0.6177
C6A C 0.2864(5) 0.6555(4) 0.6216(3)
H12A H 0.3735 0.6409 0.6534
C7A C 0.1353(4) 0.5888(4) 0.5510(3)
H13A H 0.1187 0.5233 0.5336
C10A C 0.7779(5) 0.1042(4) 0.6659(3)
H16A H 0.8697 0.0650 0.6963
C12A C 0.4930(5) 0.4065(4) 0.6218(3)
C13A C 0.7177(4) 0.0436(4) 0.6219(3)
H17A H 0.7700 -0.0388 0.6224
C15A C 0.2612(4) 0.5632(4) 0.5971(3)
C18A C 0.5687(5) 0.2760(3) 0.6243(3)
C22A C 0.5149(4) 0.2080(3) 0.5796(3)
H21A H 0.4230 0.2445 0.5494
O6A O 0.3326(3) 0.0179(2) 0.59559(18)
H3A H 0.295(3) 0.087(2) 0.607(3)
H4A H 0.371(3) -0.038(2) 0.650(2)
Zn1_2 Zn -0.5000 2.0000 -0.5000
O7A_2 O 0.6192(2) -0.1705(2) 0.59799(17)
O9 O 0.6275(3) 0.2291(2) 0.08645(19)
H27 H 0.578(3) 0.221(3) 0.139(2)
H28 H 0.664(3) 0.279(3) 0.093(3)
O10 O 0.1901(3) 0.2609(3) 0.6096(2)
H29 H 0.125(3) 0.268(4) 0.568(2)
H30 H 0.156(4) 0.253(4) 0.6672(18)
loop_
_geom_bond_atom_site_label_1
_geom_bond_atom_site_label_2
_geom_bond_site_symmetry_1
_geom_bond_site_symmetry_2
Zn1 O6 1_555 1_555
Zn2 O5 1_555 1_555
O1 C12 1_555 1_555
O2 C11 1_555 1_555
O3 C20 1_555 1_555
O4 C24 1_555 1_555
O5 H1 1_555 1_555
H2 O5 1_555 1_555
O6 H3 1_555 1_555
H4 O6 1_555 1_555
O7 Zn1 1_555 1_555
O8 Zn2 1_555 1_555
N1 H5 1_555 1_555
N2 C1 1_555 1_555
N3 C9 1_555 1_555
N4 Zn2 1_555 1_555
N5 Zn1 1_555 1_555
N6 H6 1_555 1_555
C1 H7 1_555 1_555
C2 H8 1_555 1_555
C3 C1 1_555 1_555
H9 C3 1_555 1_555
C4 H10 1_555 1_555
C5 C4 1_555 1_555
H11 C5 1_555 1_555
C6 C3 1_555 1_555
H12 C6 1_555 1_555
C7 N2 1_555 1_555
H13 C7 1_555 1_555
C8 H14 1_555 1_555
C9 C5 1_555 1_555
H15 C9 1_555 1_555
C10 C2 1_555 1_555
H16 C10 1_555 1_555
C11 N6 1_555 1_555
C12 N1 1_555 1_555
C13 N5 1_555 1_555
H17 C13 1_555 1_555
C14 N3 1_555 1_555
H18 C14 1_555 1_555
C15 N1 1_555 1_555
C16 C8 1_555 1_555
H19 C16 1_555 1_555
C17 N4 1_555 1_555
H20 C17 1_555 1_555
C18 C2 1_555 1_555
C19 C8 1_555 1_555
C20 O8 1_555 1_555
C21 N6 1_555 1_555
C22 N5 1_555 1_555
H21 C22 1_555 1_555
C23 C24 1_555 1_555
C24 O7 1_555 1_555
C25 C23 1_555 1_555
H22 C25 1_555 1_555
C26 H23 1_555 1_555
C27 C20 1_555 1_555
C28 C25 1_555 1_555
H24 C28 1_555 1_555
C29 C23 1_555 1_555
H25 C29 1_555 1_555
C30 N4 1_555 1_555
H26 C30 1_555 1_555
O9 H27 1_555 1_555
H28 O9 1_555 1_555
O10 H29 1_555 1_555
H30 O10 1_555 1_555
O2A C11A 1_555 1_555
O3A C20A 1_555 1_555
O4A C24A 1_555 1_555
O5A Zn2 1_555 1_555
H1A O5A 1_555 1_555
H2A O5A 1_555 1_555
O7A C24A 1_555 1_555
O8A Zn2 1_555 1_555
N3A C9A 1_555 1_555
N4A Zn2 1_555 1_555
N6A H6A 1_555 1_555
C4A H10A 1_555 1_555
C5A C4A 1_555 1_555
H11A C5A 1_555 1_555
C8A H14A 1_555 1_555
C9A C5A 1_555 1_555
H15A C9A 1_555 1_555
C11A N6A 1_555 1_555
C14A N3A 1_555 1_555
H18A C14A 1_555 1_555
C16A C8A 1_555 1_555
H19A C16A 1_555 1_555
C17A N4A 1_555 1_555
H20A C17A 1_555 1_555
C19A C8A 1_555 1_555
C20A O8A 1_555 1_555
C21A N6A 1_555 1_555
C23A C24A 1_555 1_555
C25A C23A 1_555 1_555
H22A C25A 1_555 1_555
C26A H23A 1_555 1_555
C27A C20A 1_555 1_555
C28A C25A 1_555 1_555
H24A C28A 1_555 1_555
C29A C23A 1_555 1_555
H25A C29A 1_555 1_555
C30A N4A 1_555 1_555
H26A C30A 1_555 1_555
O1A C12A 1_555 1_555
N1A H5A 1_555 1_555
N2A C1A 1_555 1_555
N5A Zn1 1_555 1_555
C1A H7A 1_555 1_555
C2A H8A 1_555 1_555
C3A C1A 1_555 1_555
H9A C3A 1_555 1_555
C6A C3A 1_555 1_555
H12A C6A 1_555 1_555
C7A N2A 1_555 1_555
H13A C7A 1_555 1_555
C10A C2A 1_555 1_555
H16A C10A 1_555 1_555
C12A N1A 1_555 1_555
C13A N5A 1_555 1_555
H17A C13A 1_555 1_555
C15A N1A 1_555 1_555
C18A C2A 1_555 1_555
C22A N5A 1_555 1_555
H21A C22A 1_555 1_555
O6A Zn1 1_555 1_555
H3A O6A 1_555 1_555
H4A O6A 1_555 1_555
Zn1_2 O7A 1_555 1_555
O7A_2 Zn1 1_555 1_555
C4 C21 1_555 1_555
C6 C15 1_555 1_555
C7 C15 1_555 1_555
C10 C13 1_555 1_555
C11 C19 1_555 1_555
C12 C18 1_555 1_555
C14 C21 1_555 1_555
C16 C17 1_555 1_555
C18 C22 1_555 1_555
C19 C30 1_555 1_555
C26 C27 1_555 1_555
C26 C29 1_555 1_555
C27 C28 1_555 1_555
C4A C21A 1_555 1_555
C11A C19A 1_555 1_555
C14A C21A 1_555 1_555
C16A C17A 1_555 1_555
C19A C30A 1_555 1_555
C26A C27A 1_555 1_555
C26A C29A 1_555 1_555
C27A C28A 1_555 1_555
C6A C15A 1_555 1_555
C7A C15A 1_555 1_555
C10A C13A 1_555 1_555
C12A C18A 1_555 1_555
C18A C22A 1_555 1_555

#END
