
#######################################################################
#
#                 Cambridge Crystallographic Data Centre
#                                CCDC 
#
#######################################################################
#
# If this CIF has been generated from an entry in the Cambridge 
# Structural Database, then it will include bibliographic, chemical, 
# crystal, experimental, refinement or atomic coordinate data resulting 
# from the CCDC's data processing and validation procedures.
#
#######################################################################

data_QIYHAI
_symmetry_cell_setting           monoclinic
_symmetry_space_group_name_H-M   'C 2/c'
_symmetry_Int_Tables_number      15
_space_group_name_Hall           '-C 2yn'
loop_
_symmetry_equiv_pos_site_id
_symmetry_equiv_pos_as_xyz
1 x,y,z
2 1/2+x,1/2+y,z
3 -x,y,1/2-z
4 1/2-x,1/2+y,1/2-z
5 -x,-y,-z
6 1/2-x,1/2-y,-z
7 x,-y,1/2+z
8 1/2+x,1/2-y,1/2+z
_cell_length_a                   18.5510(3)
_cell_length_b                   10.8450(3)
_cell_length_c                   13.4250(2)
_cell_angle_alpha                90
_cell_angle_beta                 123.630(2)
_cell_angle_gamma                90
_cell_volume                     2248.87
loop_
_atom_site_label
_atom_site_type_symbol
_atom_site_fract_x
_atom_site_fract_y
_atom_site_fract_z
Cl1 Cl 0.5000 0.85058(12) 0.7500
O1 O 0.4837(4) 0.8499(6) 0.8517(7)
O2 O 0.5900(5) 0.8679(7) 0.8164(7)
O3 O 0.5366(8) 0.7440(8) 0.8130(12)
O4 O 0.5410(6) 0.9616(10) 0.8082(9)
O1B O 0.5163(4) 0.8499(6) 0.6483(7)
O2B O 0.4100(5) 0.8679(7) 0.6836(7)
O3B O 0.4634(8) 0.7440(8) 0.6870(12)
O4B O 0.4590(6) 0.9616(10) 0.6918(9)
Ag1 Ag 0.2500 0.2500 0.0000
Si1 Si 0.40354(8) 0.37080(15) 0.50572(10)
N1 N 0.2411(2) 0.3267(4) 0.1389(3)
C1 C 0.3079(2) 0.3279(4) 0.2535(3)
H1 H 0.3591 0.2911 0.2719
C2 C 0.3067(2) 0.3795(4) 0.3466(3)
C3 C 0.2292(3) 0.4349(5) 0.3152(4)
H2 H 0.2239 0.4717 0.3734
C4 C 0.1603(3) 0.4350(7) 0.1973(5)
H3 H 0.1082 0.4720 0.1755
C5 C 0.1687(3) 0.3807(6) 0.1129(4)
H4 H 0.1216 0.3816 0.0337
C6 C 0.5034(3) 0.4352(6) 0.5139(5)
H5 H 0.5542 0.4217 0.5938
H6 H 0.5114 0.3899 0.4584
C7 C 0.3762(5) 0.4500(10) 0.6026(5)
H7 H 0.3248 0.4141 0.5911
H8 H 0.3664 0.5360 0.5822
H9 H 0.4232 0.4411 0.6848
C8 C 0.4267(7) 0.2065(9) 0.5485(8)
H10 H 0.4399 0.1654 0.4971
H11 H 0.3770 0.1687 0.5405
H12 H 0.4753 0.2002 0.6299
Ag1A Ag 0.7500 0.7500 1.0000
Si1D Si 0.59646(8) 0.62920(15) 0.49428(10)
N1D N 0.7589(2) 0.6733(4) 0.8611(3)
N1E N 0.2589(2) 0.1733(4) -0.1389(3)
C1D C 0.6921(2) 0.6721(4) 0.7465(3)
H1D H 0.6409 0.7089 0.7281
C2D C 0.6933(2) 0.6205(4) 0.6534(3)
C3D C 0.7708(3) 0.5651(5) 0.6848(4)
H2D H 0.7761 0.5283 0.6266
C4D C 0.8397(3) 0.5650(7) 0.8027(5)
H3D H 0.8918 0.5280 0.8245
C5D C 0.8313(3) 0.6193(6) 0.8871(4)
H4D H 0.8784 0.6184 0.9663
C6D C 0.4966(3) 0.5648(6) 0.4861(5)
H5D H 0.4458 0.5783 0.4062
H6D H 0.4886 0.6101 0.5416
C7D C 0.6238(5) 0.5500(10) 0.3974(5)
H7D H 0.6752 0.5859 0.4089
H8D H 0.6336 0.4640 0.4178
H9D H 0.5768 0.5589 0.3152
C8D C 0.5733(7) 0.7935(9) 0.4515(8)
H10D H 0.5601 0.8346 0.5029
H11D H 0.6230 0.8313 0.4595
H12D H 0.5247 0.7998 0.3701
loop_
_geom_bond_atom_site_label_1
_geom_bond_atom_site_label_2
_geom_bond_site_symmetry_1
_geom_bond_site_symmetry_2
Ag1 N1 1_555 1_555
Si1 C2 1_555 1_555
Cl1 O1 1_555 1_555
N1 C1 1_555 1_555
C1 H1 1_555 1_555
C2 C1 1_555 1_555
C3 C2 1_555 1_555
H2 C3 1_555 1_555
C4 C3 1_555 1_555
H3 C4 1_555 1_555
C5 N1 1_555 1_555
H4 C5 1_555 1_555
C6 Si1 1_555 1_555
H5 C6 1_555 1_555
H6 C6 1_555 1_555
C7 Si1 1_555 1_555
H7 C7 1_555 1_555
H8 C7 1_555 1_555
H9 C7 1_555 1_555
C8 Si1 1_555 1_555
H10 C8 1_555 1_555
H11 C8 1_555 1_555
H12 C8 1_555 1_555
O2 Cl1 1_555 1_555
O3 Cl1 1_555 1_555
O4 Cl1 1_555 1_555
Ag1A N1D 1_555 1_555
Si1D C2D 1_555 1_555
N1D C1D 1_555 1_555
N1E Ag1 1_555 1_555
C1D H1D 1_555 1_555
C2D C1D 1_555 1_555
C3D C2D 1_555 1_555
H2D C3D 1_555 1_555
C4D C3D 1_555 1_555
H3D C4D 1_555 1_555
C5D N1D 1_555 1_555
H4D C5D 1_555 1_555
C6D C6 1_555 1_555
H5D C6D 1_555 1_555
H6D C6D 1_555 1_555
C7D Si1D 1_555 1_555
H7D C7D 1_555 1_555
H8D C7D 1_555 1_555
H9D C7D 1_555 1_555
C8D Si1D 1_555 1_555
H10D C8D 1_555 1_555
H11D C8D 1_555 1_555
H12D C8D 1_555 1_555
O1B Cl1 1_555 1_555
O2B Cl1 1_555 1_555
O3B Cl1 1_555 1_555
O4B Cl1 1_555 1_555
C4 C5 1_555 1_555
O2 O3 1_555 1_555
O2 O4 1_555 1_555
O3 O3B 1_555 1_555
O4 O4B 1_555 1_555
Si1D C6D 1_555 1_555
C4D C5D 1_555 1_555
O2B O3B 1_555 1_555
O2B O4B 1_555 1_555

#END
