
#######################################################################
#
#                 Cambridge Crystallographic Data Centre
#                                CCDC 
#
#######################################################################
#
# If this CIF has been generated from an entry in the Cambridge 
# Structural Database, then it will include bibliographic, chemical, 
# crystal, experimental, refinement or atomic coordinate data resulting 
# from the CCDC's data processing and validation procedures.
#
#######################################################################

data_QIYHEN
_symmetry_cell_setting           orthorhombic
_symmetry_space_group_name_H-M   'P b c a'
_symmetry_Int_Tables_number      61
_space_group_name_Hall           '-P 2ac 2ab'
loop_
_symmetry_equiv_pos_site_id
_symmetry_equiv_pos_as_xyz
1 x,y,z
2 1/2+x,1/2-y,-z
3 -x,1/2+y,1/2-z
4 1/2-x,-y,1/2+z
5 -x,-y,-z
6 1/2-x,1/2+y,z
7 x,1/2-y,1/2+z
8 1/2+x,y,1/2-z
_cell_length_a                   11.4586(9)
_cell_length_b                   15.9415(12)
_cell_length_c                   19.2594(15)
_cell_angle_alpha                90
_cell_angle_beta                 90
_cell_angle_gamma                90
_cell_volume                     3518.06
loop_
_atom_site_label
_atom_site_type_symbol
_atom_site_fract_x
_atom_site_fract_y
_atom_site_fract_z
Zn1 Zn -0.11333(3) 0.09394(2) 0.378034(17)
O1 O -0.10089(19) 0.16106(14) 0.46266(11)
O2 O -0.2928(2) 0.15008(15) 0.46645(11)
O3 O -0.0945(2) 0.35237(14) 0.78793(11)
O4 O -0.2869(2) 0.34285(14) 0.79396(11)
O5 O 0.42827(19) -0.09888(14) 0.28637(12)
N1 N 0.0534(2) 0.04397(16) 0.38386(13)
N2 N 0.7833(2) -0.01117(15) 0.37388(12)
N3 N 0.4080(2) -0.01785(16) 0.38314(13)
H1 H 0.4475 0.0038 0.4180
C1 C -0.1996(3) 0.17241(18) 0.49240(16)
C2 C -0.1969(3) 0.21452(18) 0.56216(15)
C3 C -0.3005(3) 0.2345(2) 0.59605(16)
H2 H -0.3731 0.2224 0.5744
C4 C -0.2990(3) 0.27154(19) 0.66079(16)
H3 H -0.3703 0.2840 0.6838
C5 C -0.1934(3) 0.29066(18) 0.69239(15)
C6 C -0.0895(3) 0.2717(2) 0.65911(16)
H4 H -0.0171 0.2851 0.6804
C7 C -0.0916(3) 0.2331(2) 0.59465(17)
H5 H -0.0202 0.2192 0.5724
C8 C -0.1944(3) 0.33178(19) 0.76308(16)
C9 C 0.1044(3) 0.0117(2) 0.32685(17)
H6 H 0.0577 0.0049 0.2865
C10 C 0.2189(3) -0.0118(2) 0.32334(16)
H7 H 0.2501 -0.0354 0.2820
C11 C 0.2884(3) -0.00043(19) 0.38130(15)
C12 C 0.2372(3) 0.0319(2) 0.44079(15)
H8 H 0.2822 0.0393 0.4818
C13 C 0.1216(3) 0.0530(2) 0.44002(16)
H9 H 0.0880 0.0751 0.4812
C14 C 0.4695(3) -0.06443(19) 0.33715(16)
C15 C 0.5979(3) -0.07350(18) 0.35305(15)
C16 C 0.6481(3) -0.1521(2) 0.34968(18)
H10 H 0.6020 -0.2002 0.3400
C17 C 0.7667(3) -0.1595(2) 0.36071(18)
H11 H 0.8032 -0.2130 0.3608
C18 C 0.8308(3) -0.08757(19) 0.37159(16)
H12 H 0.9128 -0.0926 0.3777
C19 C 0.6665(3) -0.00432(19) 0.36590(15)
H13 H 0.6310 0.0494 0.3692
Zn1_2 Zn 0.88667(3) 0.09394(2) 0.378034(17)
Zn1F Zn -0.11333(3) 0.40606(2) 0.878034(17)
O3F O -0.0945(2) 0.14763(14) 0.28793(11)
N2_2 N -0.2167(2) -0.01117(15) 0.37388(12)
O6 O 0.4873(2) 0.09977(15) 0.48948(13)
H14 H 0.4465 0.1414 0.4732
H15 H 0.5610 0.1129 0.4888
loop_
_geom_bond_atom_site_label_1
_geom_bond_atom_site_label_2
_geom_bond_site_symmetry_1
_geom_bond_site_symmetry_2
Zn1 O1 1_555 1_555
O1 C1 1_555 1_555
O2 C1 1_555 1_555
O3 C8 1_555 1_555
O4 C8 1_555 1_555
O5 C14 1_555 1_555
N1 Zn1 1_555 1_555
N2 C18 1_555 1_555
N3 H1 1_555 1_555
C1 C2 1_555 1_555
C2 C3 1_555 1_555
C3 H2 1_555 1_555
C4 C3 1_555 1_555
H3 C4 1_555 1_555
C5 C4 1_555 1_555
C6 C5 1_555 1_555
H4 C6 1_555 1_555
C7 C2 1_555 1_555
H5 C7 1_555 1_555
C8 C5 1_555 1_555
C9 N1 1_555 1_555
H6 C9 1_555 1_555
C10 C9 1_555 1_555
H7 C10 1_555 1_555
C11 N3 1_555 1_555
C12 C11 1_555 1_555
H8 C12 1_555 1_555
C13 N1 1_555 1_555
H9 C13 1_555 1_555
C14 N3 1_555 1_555
C15 C14 1_555 1_555
C16 C15 1_555 1_555
H10 C16 1_555 1_555
C17 C16 1_555 1_555
H11 C17 1_555 1_555
C18 C17 1_555 1_555
H12 C18 1_555 1_555
C19 N2 1_555 1_555
H13 C19 1_555 1_555
O6 H14 1_555 1_555
H15 O6 1_555 1_555
Zn1_2 N2 1_555 1_555
Zn1F O3 1_555 1_555
O3F Zn1 1_555 1_555
N2_2 Zn1 1_555 1_555
C6 C7 1_555 1_555
C10 C11 1_555 1_555
C12 C13 1_555 1_555
C15 C19 1_555 1_555

#END
