
#######################################################################
#
#                 Cambridge Crystallographic Data Centre
#                                CCDC 
#
#######################################################################
#
# If this CIF has been generated from an entry in the Cambridge 
# Structural Database, then it will include bibliographic, chemical, 
# crystal, experimental, refinement or atomic coordinate data resulting 
# from the CCDC's data processing and validation procedures.
#
#######################################################################

data_QIYJUF
_symmetry_cell_setting           monoclinic
_symmetry_space_group_name_H-M   'P 21/n'
_symmetry_Int_Tables_number      14
_space_group_name_Hall           '-P 2yn'
loop_
_symmetry_equiv_pos_site_id
_symmetry_equiv_pos_as_xyz
1 x,y,z
2 1/2-x,1/2+y,1/2-z
3 -x,-y,-z
4 1/2+x,1/2-y,1/2+z
_cell_length_a                   9.6275(19)
_cell_length_b                   9.0702(18)
_cell_length_c                   14.782(3)
_cell_angle_alpha                90
_cell_angle_beta                 94.20(3)
_cell_angle_gamma                90
_cell_volume                     1287.35
loop_
_atom_site_label
_atom_site_type_symbol
_atom_site_fract_x
_atom_site_fract_y
_atom_site_fract_z
Cu1 Cu -0.14181(4) -0.02178(4) 0.20343(2)
Cu2 Cu 0.35485(4) 0.31659(4) 0.53285(2)
N1 N -0.0483(2) 0.3926(3) 0.60642(16)
N2 N 0.1766(2) 0.3478(3) 0.58401(15)
N3 N -0.0936(2) 0.0572(3) 0.32896(16)
N4 N 0.1726(2) 0.4437(3) 0.65621(15)
N5 N 0.0182(2) 0.7315(3) 0.86065(16)
C1 C -0.1178(3) 0.7673(3) 0.8510(2)
H1 H -0.1525 0.8333 0.8919
C2 C 0.0428(3) 0.3204(3) 0.55745(19)
C3 C -0.1574(3) 0.6102(3) 0.72331(19)
H2 H -0.2169 0.5691 0.6777
C4 C -0.1813(3) 0.1464(3) 0.3708(2)
H3 H -0.2738 0.1513 0.3480
C5 C 0.0394(3) 0.0511(3) 0.3645(2)
H4 H 0.1012 -0.0111 0.3377
C6 C -0.0023(3) 0.2260(3) 0.48036(19)
C7 C -0.2079(3) 0.7100(3) 0.7829(2)
H5 H -0.3010 0.7383 0.7775
C8 C -0.0173(3) 0.5707(3) 0.73141(18)
C9 C 0.0373(3) 0.4681(3) 0.66610(19)
C10 C 0.0659(3) 0.6359(3) 0.80072(19)
H6 H 0.1601 0.6121 0.8061
C11 C -0.1402(3) 0.2302(3) 0.44545(19)
H7 H -0.2043 0.2894 0.4724
C12 C 0.0876(3) 0.1325(3) 0.43836(19)
H8 H 0.1803 0.1251 0.4604
N6 N 0.4532(2) 0.3423(3) 0.42812(16)
C13 C 0.5235(3) 0.3777(3) 0.3715(2)
Cu1A Cu 0.64181(4) 0.47822(4) 0.29657(2)
Cu1C Cu 0.35819(4) 0.52178(4) 0.70343(2)
Cu2A Cu 0.14515(4) 0.81659(4) 0.96715(2)
N4C N -0.3274(2) 0.0563(3) 0.15621(15)
N5A N 0.4818(2) 0.2315(3) 0.63935(16)
C13A C -0.0235(3) -0.1223(3) 0.1285(2)
loop_
_geom_bond_atom_site_label_1
_geom_bond_atom_site_label_2
_geom_bond_site_symmetry_1
_geom_bond_site_symmetry_2
Cu1 N3 1_555 1_555
Cu2 N2 1_555 1_555
N1 C2 1_555 1_555
N2 N4 1_555 1_555
N3 C4 1_555 1_555
N4 C9 1_555 1_555
N5 C1 1_555 1_555
C1 H1 1_555 1_555
C2 N2 1_555 1_555
C3 H2 1_555 1_555
C4 H3 1_555 1_555
C5 N3 1_555 1_555
H4 C5 1_555 1_555
C6 C2 1_555 1_555
C7 C1 1_555 1_555
H5 C7 1_555 1_555
C8 C3 1_555 1_555
C9 N1 1_555 1_555
C10 N5 1_555 1_555
H6 C10 1_555 1_555
C11 C4 1_555 1_555
H7 C11 1_555 1_555
C12 C5 1_555 1_555
H8 C12 1_555 1_555
N6 Cu2 1_555 1_555
C13 N6 1_555 1_555
Cu1A C13 1_555 1_555
Cu1C N4 1_555 1_555
Cu2A N5 1_555 1_555
N4C Cu1 1_555 1_555
N5A Cu2 1_555 1_555
C13A Cu1 1_555 1_555
C3 C7 1_555 1_555
C6 C11 1_555 1_555
C6 C12 1_555 1_555
C8 C9 1_555 1_555
C8 C10 1_555 1_555

#END
