
#######################################################################
#
#                 Cambridge Crystallographic Data Centre
#                                CCDC 
#
#######################################################################
#
# If this CIF has been generated from an entry in the Cambridge 
# Structural Database, then it will include bibliographic, chemical, 
# crystal, experimental, refinement or atomic coordinate data resulting 
# from the CCDC's data processing and validation procedures.
#
#######################################################################

data_QIYKIU
_symmetry_cell_setting           monoclinic
_symmetry_space_group_name_H-M   'C 2'
_symmetry_Int_Tables_number      5
_space_group_name_Hall           'C 2y'
loop_
_symmetry_equiv_pos_site_id
_symmetry_equiv_pos_as_xyz
1 x,y,z
2 -x,y,-z
3 1/2+x,1/2+y,z
4 1/2-x,1/2+y,-z
_cell_length_a                   16.8875(9)
_cell_length_b                   11.2461(4)
_cell_length_c                   12.3456(6)
_cell_angle_alpha                90
_cell_angle_beta                 117.616(7)
_cell_angle_gamma                90
_cell_volume                     2077.54
loop_
_atom_site_label
_atom_site_type_symbol
_atom_site_fract_x
_atom_site_fract_y
_atom_site_fract_z
Cu1 Cu 0.5000 0.27250(6) 0.5000
N1 N 0.46201(18) 0.2692(3) 0.3189(3)
N2 N 0.5000 0.4559(4) 0.5000
N3 N 0.5000 1.0902(5) 0.5000
N4 N 0.28714(19) 0.2841(3) 0.4798(3)
O1 O 0.34365(16) 0.2657(3) 0.4406(3)
O2 O 0.2853(2) 0.2205(4) 0.5589(3)
O3 O 0.2352(2) 0.3679(4) 0.4364(4)
C1 C 0.3953(3) 0.1963(4) 0.2433(4)
H1 H 0.3640 0.1526 0.2749
C2 C 0.3724(3) 0.1848(4) 0.1215(4)
H2 H 0.3266 0.1335 0.0722
C3 C 0.4177(3) 0.2496(4) 0.0728(3)
H3 H 0.4030 0.2429 -0.0095
C4 C 0.4851(3) 0.3243(4) 0.1487(4)
H4 H 0.5170 0.3688 0.1185
C5 C 0.5050(3) 0.3328(4) 0.2705(3)
H5 H 0.5500 0.3846 0.3208
C6 C 0.4239(3) 0.5189(4) 0.4672(4)
H6 H 0.3706 0.4776 0.4419
C7 C 0.4218(3) 0.6419(4) 0.4694(4)
H7 H 0.3685 0.6811 0.4507
C8 C 0.5000 0.7074(5) 0.5000
C9 C 0.5000 0.8397(6) 0.5000
C10 C 0.5585(3) 0.9049(4) 0.4701(4)
H8 H 0.5983 0.8656 0.4499
C11 C 0.5561(3) 1.0269(4) 0.4712(4)
H9 H 0.5951 1.0685 0.4511
C6A C 0.5761(3) 0.5189(4) 0.5328(4)
H6A H 0.6294 0.4776 0.5581
C7A C 0.5782(3) 0.6419(4) 0.5306(4)
H7A H 0.6315 0.6811 0.5493
C10A C 0.4415(3) 0.9049(4) 0.5299(4)
H8A H 0.4017 0.8656 0.5501
C11A C 0.4439(3) 1.0269(4) 0.5288(4)
H9A H 0.4049 1.0685 0.5489
N1A N 0.53799(18) 0.2692(3) 0.6811(3)
N4A N 0.71286(19) 0.2841(3) 0.5202(3)
O1A O 0.65635(16) 0.2657(3) 0.5594(3)
O2A O 0.7147(2) 0.2205(4) 0.4411(3)
O3A O 0.7648(2) 0.3679(4) 0.5636(4)
C1A C 0.6047(3) 0.1963(4) 0.7567(4)
H1A H 0.6360 0.1526 0.7251
C2A C 0.6276(3) 0.1848(4) 0.8785(4)
H2A H 0.6734 0.1335 0.9278
C3A C 0.5823(3) 0.2496(4) 0.9272(3)
H3A H 0.5970 0.2429 1.0095
C4A C 0.5149(3) 0.3243(4) 0.8513(4)
H4A H 0.4830 0.3688 0.8815
C5A C 0.4950(3) 0.3328(4) 0.7295(3)
H5A H 0.4500 0.3846 0.6792
Cu1_2 Cu 0.5000 1.27250(6) 0.5000
N3_2 N 0.5000 0.0902(5) 0.5000
Cu2 Cu 0.5000 0.74940(6) 0.0000
N5 N 0.5905(2) 0.6252(3) 0.1047(3)
N6 N 0.5885(2) 0.8763(3) 0.0970(3)
N7 N 0.3973(6) 0.7206(14) 0.1788(8)
O4 O 0.4474(2) 0.7515(4) 0.1536(3)
O5 O 0.3196(3) 0.7380(5) 0.1516(5)
O6 O 0.4190(6) 0.6056(7) 0.2165(8)
C12 C 0.6208(3) 0.6212(4) 0.2271(4)
H10 H 0.5962 0.6734 0.2618
C13 C 0.6858(3) 0.5441(5) 0.3024(4)
H11 H 0.7047 0.5436 0.3861
C14 C 0.7230(3) 0.4668(4) 0.2507(5)
H12 H 0.7666 0.4123 0.2989
C15 C 0.6939(3) 0.4725(4) 0.1264(5)
H13 H 0.7192 0.4236 0.0900
C16 C 0.6271(3) 0.5515(4) 0.0565(4)
H14 H 0.6070 0.5532 -0.0275
C17 C 0.6702(3) 0.8821(4) 0.1028(4)
H15 H 0.6876 0.8213 0.0673
C18 C 0.7288(3) 0.9735(5) 0.1588(4)
H16 H 0.7841 0.9751 0.1596
C19 C 0.7047(3) 1.0627(4) 0.2134(4)
H17 H 0.7432 1.1259 0.2514
C20 C 0.6213(3) 1.0569(4) 0.2112(4)
H18 H 0.6037 1.1153 0.2489
C21 C 0.5658(3) 0.9632(4) 0.1520(4)
H19 H 0.5101 0.9597 0.1501
N5A N 0.4095(2) 0.6252(3) -0.1047(3)
N6A N 0.4115(2) 0.8763(3) -0.0970(3)
N7A N 0.6027(6) 0.7206(14) -0.1788(8)
O4A O 0.5526(2) 0.7515(4) -0.1536(3)
O5A O 0.6804(3) 0.7380(5) -0.1516(5)
O6A O 0.5810(6) 0.6056(7) -0.2165(8)
C12A C 0.3792(3) 0.6212(4) -0.2271(4)
H10A H 0.4038 0.6734 -0.2618
C13A C 0.3142(3) 0.5441(5) -0.3024(4)
H11A H 0.2953 0.5436 -0.3861
C14A C 0.2770(3) 0.4668(4) -0.2507(5)
H12A H 0.2334 0.4123 -0.2989
C15A C 0.3061(3) 0.4725(4) -0.1264(5)
H13A H 0.2808 0.4236 -0.0900
C16A C 0.3729(3) 0.5515(4) -0.0565(4)
H14A H 0.3930 0.5532 0.0275
C17A C 0.3298(3) 0.8821(4) -0.1028(4)
H15A H 0.3124 0.8213 -0.0673
C18A C 0.2712(3) 0.9735(5) -0.1588(4)
H16A H 0.2159 0.9751 -0.1596
C19A C 0.2953(3) 1.0627(4) -0.2134(4)
H17A H 0.2568 1.1259 -0.2514
C20A C 0.3787(3) 1.0569(4) -0.2112(4)
H18A H 0.3963 1.1153 -0.2489
C21A C 0.4342(3) 0.9632(4) -0.1520(4)
H19A H 0.4899 0.9597 -0.1501
N8? N 0.3832(5) 0.7947(6) 0.1699(7)
O7? O 0.3896(4) 0.8916(6) 0.2017(6)
loop_
_geom_bond_atom_site_label_1
_geom_bond_atom_site_label_2
_geom_bond_site_symmetry_1
_geom_bond_site_symmetry_2
Cu1 N1 1_555 1_555
N1 C1 1_555 1_555
N2 Cu1 1_555 1_555
N3 C11 1_555 1_555
N4 O1 1_555 1_555
O1 Cu1 1_555 1_555
O2 N4 1_555 1_555
O3 N4 1_555 1_555
C1 H1 1_555 1_555
C2 C1 1_555 1_555
H2 C2 1_555 1_555
C3 C2 1_555 1_555
H3 C3 1_555 1_555
C4 C3 1_555 1_555
H4 C4 1_555 1_555
C5 N1 1_555 1_555
H5 C5 1_555 1_555
C6 N2 1_555 1_555
H6 C6 1_555 1_555
C7 C6 1_555 1_555
H7 C7 1_555 1_555
C8 C7 1_555 1_555
C9 C8 1_555 1_555
C10 C9 1_555 1_555
H8 C10 1_555 1_555
C11 C10 1_555 1_555
H9 C11 1_555 1_555
Cu2 N5 1_555 1_555
N5 C12 1_555 1_555
N6 Cu2 1_555 1_555
N7 O4 1_555 1_555
O4 Cu2 1_555 1_555
O5 N7 1_555 1_555
O6 N7 1_555 1_555
C12 H10 1_555 1_555
C13 C12 1_555 1_555
H11 C13 1_555 1_555
C14 C13 1_555 1_555
H12 C14 1_555 1_555
C15 C14 1_555 1_555
H13 C15 1_555 1_555
C16 N5 1_555 1_555
H14 C16 1_555 1_555
C17 N6 1_555 1_555
H15 C17 1_555 1_555
C18 C17 1_555 1_555
H16 C18 1_555 1_555
C19 C18 1_555 1_555
H17 C19 1_555 1_555
C20 C19 1_555 1_555
H18 C20 1_555 1_555
C21 N6 1_555 1_555
H19 C21 1_555 1_555
C6A N2 1_555 1_555
H6A C6A 1_555 1_555
C7A C8 1_555 1_555
H7A C7A 1_555 1_555
C10A C9 1_555 1_555
H8A C10A 1_555 1_555
C11A N3 1_555 1_555
H9A C11A 1_555 1_555
N1A Cu1 1_555 1_555
N4A O1A 1_555 1_555
O1A Cu1 1_555 1_555
O2A N4A 1_555 1_555
O3A N4A 1_555 1_555
C1A N1A 1_555 1_555
H1A C1A 1_555 1_555
C2A C1A 1_555 1_555
H2A C2A 1_555 1_555
C3A C2A 1_555 1_555
H3A C3A 1_555 1_555
C4A C3A 1_555 1_555
H4A C4A 1_555 1_555
C5A N1A 1_555 1_555
H5A C5A 1_555 1_555
Cu1_2 N3 1_555 1_555
N3_2 Cu1 1_555 1_555
N5A Cu2 1_555 1_555
N6A Cu2 1_555 1_555
N7A O4A 1_555 1_555
O4A Cu2 1_555 1_555
O5A N7A 1_555 1_555
O6A N7A 1_555 1_555
C12A N5A 1_555 1_555
H10A C12A 1_555 1_555
C13A C12A 1_555 1_555
H11A C13A 1_555 1_555
C14A C13A 1_555 1_555
H12A C14A 1_555 1_555
C15A C14A 1_555 1_555
H13A C15A 1_555 1_555
C16A N5A 1_555 1_555
H14A C16A 1_555 1_555
C17A N6A 1_555 1_555
H15A C17A 1_555 1_555
C18A C17A 1_555 1_555
H16A C18A 1_555 1_555
C19A C18A 1_555 1_555
H17A C19A 1_555 1_555
C20A C19A 1_555 1_555
H18A C20A 1_555 1_555
C21A N6A 1_555 1_555
H19A C21A 1_555 1_555
C4 C5 1_555 1_555
C15 C16 1_555 1_555
C20 C21 1_555 1_555
C6A C7A 1_555 1_555
C10A C11A 1_555 1_555
C4A C5A 1_555 1_555
C15A C16A 1_555 1_555
C20A C21A 1_555 1_555

#END
