
#######################################################################
#
#                 Cambridge Crystallographic Data Centre
#                                CCDC 
#
#######################################################################
#
# If this CIF has been generated from an entry in the Cambridge 
# Structural Database, then it will include bibliographic, chemical, 
# crystal, experimental, refinement or atomic coordinate data resulting 
# from the CCDC's data processing and validation procedures.
#
#######################################################################

data_QIYNOB
_symmetry_cell_setting           monoclinic
_symmetry_space_group_name_H-M   'P 21/n'
_symmetry_Int_Tables_number      14
_space_group_name_Hall           '-P 2yn'
loop_
_symmetry_equiv_pos_site_id
_symmetry_equiv_pos_as_xyz
1 x,y,z
2 1/2-x,1/2+y,1/2-z
3 -x,-y,-z
4 1/2+x,1/2-y,1/2+z
_cell_length_a                   9.9120(3)
_cell_length_b                   5.1327(1)
_cell_length_c                   13.4588(5)
_cell_angle_alpha                90
_cell_angle_beta                 101.654(1)
_cell_angle_gamma                90
_cell_volume                     670.605
loop_
_atom_site_label
_atom_site_type_symbol
_atom_site_fract_x
_atom_site_fract_y
_atom_site_fract_z
Cu1 Cu 0.5000 0.5000 0.5000
O1 O 0.11351(14) 1.1899(3) 0.45163(12)
O2 O -0.06596(14) 1.1539(3) 0.32027(12)
N1 N 0.34059(17) 0.6804(3) 0.41931(13)
N2 N 0.49886(19) 0.8060(4) 0.65229(14)
C1 C 0.0587(2) 1.0874(4) 0.37209(17)
C2 C 0.11807(19) 0.8793(4) 0.32351(16)
C3 C 0.24150(19) 0.7683(4) 0.37494(15)
C4 C 0.55279(19) 0.7262(4) 0.72971(16)
C5 C -0.1381(2) 1.3552(5) 0.3647(2)
H1 H -0.2242 1.3928 0.3199
H2 H -0.0828 1.5101 0.3750
H3 H -0.1551 1.2957 0.4287
O3 O 0.37593(17) 0.2654(3) 0.55247(14)
H4 H 0.407(2) 0.144(5) 0.5793(19)
H5 H 0.312(3) 0.242(6) 0.520(2)
N1B N 0.65941(17) 0.3196(3) 0.58069(13)
N2B N 0.50114(19) 0.1940(4) 0.34771(14)
O3B O 0.62407(17) 0.7346(3) 0.44753(14)
C4C C 0.05279(19) 0.7738(4) 0.22971(16)
C2C C 0.61807(19) 0.6207(4) 0.82351(16)
N2C N -0.00114(19) 0.6940(4) 0.15229(14)
Cu1C Cu 0.0000 1.0000 0.0000
C1C C 0.5587(2) 0.4126(4) 0.87209(17)
C3C C 0.74150(19) 0.7317(4) 0.87494(15)
N1C N 0.84059(17) 0.8196(3) 0.91931(13)
O1C O 0.61351(14) 0.3101(3) 0.95163(12)
O2C O 0.43404(14) 0.3461(3) 0.82027(12)
C5C C 0.3619(2) 0.1448(5) 0.8647(2)
Cu1C_2 Cu 1.0000 1.0000 1.0000
H1C H 0.2758 0.1072 0.8199
H2C H 0.4172 -0.0101 0.8750
H3C H 0.3449 0.2043 0.9287
H4B H 0.593(2) 0.856(5) 0.4207(19)
H5B H 0.688(3) 0.758(6) 0.480(2)
loop_
_geom_bond_atom_site_label_1
_geom_bond_atom_site_label_2
_geom_bond_site_symmetry_1
_geom_bond_site_symmetry_2
Cu1 N1 1_555 1_555
O1 C1 1_555 1_555
O2 C1 1_555 1_555
N1 C3 1_555 1_555
N2 Cu1 1_555 1_555
C1 C2 1_555 1_555
C2 C3 1_555 1_555
C4 N2 1_555 1_555
C5 O2 1_555 1_555
H1 C5 1_555 1_555
H2 C5 1_555 1_555
H3 C5 1_555 1_555
O3 Cu1 1_555 1_555
H4 O3 1_555 1_555
H5 O3 1_555 1_555
N1B Cu1 1_555 1_555
N2B Cu1 1_555 1_555
O3B Cu1 1_555 1_555
C4C C2 1_555 1_555
C2C C4 1_555 1_555
N2C C4C 1_555 1_555
Cu1C N2C 1_555 1_555
C1C C2C 1_555 1_555
C3C C2C 1_555 1_555
N1C C3C 1_555 1_555
O1C C1C 1_555 1_555
O2C C1C 1_555 1_555
C5C O2C 1_555 1_555
Cu1C_2 N1C 1_555 1_555
H1C C5C 1_555 1_555
H2C C5C 1_555 1_555
H3C C5C 1_555 1_555
H4B O3B 1_555 1_555
H5B O3B 1_555 1_555

#END
