
#######################################################################
#
#                 Cambridge Crystallographic Data Centre
#                                CCDC 
#
#######################################################################
#
# If this CIF has been generated from an entry in the Cambridge 
# Structural Database, then it will include bibliographic, chemical, 
# crystal, experimental, refinement or atomic coordinate data resulting 
# from the CCDC's data processing and validation procedures.
#
#######################################################################

data_QIYPOD
_symmetry_cell_setting           monoclinic
_symmetry_space_group_name_H-M   'P 21/n'
_symmetry_Int_Tables_number      14
_space_group_name_Hall           '-P 2yn'
loop_
_symmetry_equiv_pos_site_id
_symmetry_equiv_pos_as_xyz
1 x,y,z
2 1/2+x,1/2-y,1/2+z
3 -x,-y,-z
4 1/2-x,1/2+y,1/2-z
_cell_length_a                   13.611(5)
_cell_length_b                   10.957(3)
_cell_length_c                   14.8464(17)
_cell_angle_alpha                90
_cell_angle_beta                 102.34(2)
_cell_angle_gamma                90
_cell_volume                     2162.97
loop_
_atom_site_label
_atom_site_type_symbol
_atom_site_fract_x
_atom_site_fract_y
_atom_site_fract_z
Cu1 Cu 0.10176(4) 0.98673(5) 0.09855(3)
N1 N 0.1116(3) 0.8956(3) 0.2217(2)
N2 N 0.1256(3) 0.8227(4) 0.0491(2)
H1 H 0.0809 0.8093 -0.0041
H2 H 0.1878 0.8198 0.0373
C1 C 0.0138(3) 0.8896(5) 0.2492(3)
H3 H -0.0274 0.8251 0.2157
H4 H -0.0218 0.9664 0.2359
C2 C 0.1544(5) 0.7770(5) 0.2087(4)
H5 H 0.1390 0.7202 0.2538
H6 H 0.2270 0.7842 0.2190
C3 C 0.0357(4) 0.8639(5) 0.3519(3)
H7 H -0.0108 0.9076 0.3814
H8 H 0.0307 0.7773 0.3636
C4 C 0.1755(4) 0.9583(6) 0.3026(3)
H9 H 0.1658 1.0459 0.2980
H10 H 0.2460 0.9404 0.3063
C5 C 0.1155(5) 0.7285(5) 0.1158(4)
H11 H 0.1531 0.6564 0.1057
H12 H 0.0453 0.7060 0.1088
C6 C 0.1416(5) 0.9086(7) 0.3864(3)
H13 H 0.1849 0.8423 0.4140
H14 H 0.1434 0.9722 0.4322
N3 N 0.1566(2) 1.1073(4) -0.0518(2)
N4 N 0.0900(3) 1.0598(4) -0.0273(2)
N5 N 0.2187(3) 1.1568(4) -0.0789(3)
N6 N 0.0837(3) 1.2369(4) 0.1221(3)
N7 N 0.0763(4) 1.1420(4) 0.1549(3)
N8 N 0.0865(5) 1.3318(5) 0.0932(4)
Cu2 Cu 0.39542(4) 1.04265(5) -0.08842(3)
N9 N 0.4243(2) 1.0281(3) 0.0499(2)
N10 N 0.3596(2) 1.0211(3) 0.0921(2)
N11 N 0.3795(3) 1.0687(4) -0.2282(2)
N12 N 0.4326(3) 1.2193(3) -0.0791(2)
H15 H 0.3898 1.2606 -0.0519
H16 H 0.4951 1.2282 -0.0446
N13 N 0.3348(3) 0.8088(4) -0.0514(3)
N14 N 0.3330(3) 0.8808(4) -0.1104(3)
N15 N 0.3002(3) 1.0142(5) 0.1362(3)
N16 N 0.3362(4) 0.7375(4) 0.0053(4)
C7 C 0.2744(4) 1.0550(6) -0.2795(3)
H17 H 0.2406 1.1335 -0.2859
H18 H 0.2381 1.0000 -0.2471
C8 C 0.4328(4) 0.9771(6) -0.2731(3)
H19 H 0.4314 0.8981 -0.2439
H20 H 0.5023 1.0010 -0.2681
C9 C 0.4220(8) 1.1871(7) -0.2390(4)
H21 H 0.4893 1.1747 -0.2494
H22 H 0.3825 1.2240 -0.2944
C10 C 0.3792(5) 0.9709(7) -0.3725(4)
H23 H 0.4086 1.0273 -0.4097
H24 H 0.3818 0.8891 -0.3968
C11 C 0.4283(8) 1.2672(6) -0.1708(4)
H25 H 0.3706 1.3211 -0.1860
H26 H 0.4878 1.3166 -0.1688
C12 C 0.2781(5) 1.0050(7) -0.3713(4)
H27 H 0.2345 0.9342 -0.3842
H28 H 0.2547 1.0658 -0.4184
N4B N -0.0900(3) 0.9402(4) 0.0273(2)
Cu1B Cu -0.10176(4) 1.01327(5) -0.09855(3)
Cu2B Cu 0.60458(4) 0.95735(5) 0.08842(3)
N9B N 0.5757(2) 0.9719(3) -0.0499(2)
loop_
_geom_bond_atom_site_label_1
_geom_bond_atom_site_label_2
_geom_bond_site_symmetry_1
_geom_bond_site_symmetry_2
Cu1 N1 1_555 1_555
N1 C1 1_555 1_555
N2 Cu1 1_555 1_555
H1 N2 1_555 1_555
H2 N2 1_555 1_555
C1 H3 1_555 1_555
H4 C1 1_555 1_555
C2 N1 1_555 1_555
H5 C2 1_555 1_555
H6 C2 1_555 1_555
C3 C1 1_555 1_555
H7 C3 1_555 1_555
H8 C3 1_555 1_555
C4 N1 1_555 1_555
H9 C4 1_555 1_555
H10 C4 1_555 1_555
C5 N2 1_555 1_555
H11 C5 1_555 1_555
H12 C5 1_555 1_555
C6 C3 1_555 1_555
H13 C6 1_555 1_555
H14 C6 1_555 1_555
N3 N4 1_555 1_555
N4 Cu1 1_555 1_555
N5 N3 1_555 1_555
N6 N7 1_555 1_555
N7 Cu1 1_555 1_555
N8 N6 1_555 1_555
Cu2 N5 1_555 1_555
N9 Cu2 1_555 1_555
N10 N9 1_555 1_555
N11 Cu2 1_555 1_555
N12 Cu2 1_555 1_555
H15 N12 1_555 1_555
H16 N12 1_555 1_555
N13 N14 1_555 1_555
N14 Cu2 1_555 1_555
N15 Cu1 1_555 1_555
N16 N13 1_555 1_555
C7 N11 1_555 1_555
H17 C7 1_555 1_555
H18 C7 1_555 1_555
C8 N11 1_555 1_555
H19 C8 1_555 1_555
H20 C8 1_555 1_555
C9 N11 1_555 1_555
H21 C9 1_555 1_555
H22 C9 1_555 1_555
C10 C8 1_555 1_555
H23 C10 1_555 1_555
H24 C10 1_555 1_555
C11 N12 1_555 1_555
H25 C11 1_555 1_555
H26 C11 1_555 1_555
C12 C7 1_555 1_555
H27 C12 1_555 1_555
H28 C12 1_555 1_555
N4B Cu1 1_555 1_555
Cu1B N4 1_555 1_555
Cu2B N9 1_555 1_555
N9B Cu2 1_555 1_555
C2 C5 1_555 1_555
C4 C6 1_555 1_555
N10 N15 1_555 1_555
C9 C11 1_555 1_555
C10 C12 1_555 1_555
N4B Cu1B 1_555 1_555
Cu2B N9B 1_555 1_555

#END
