
#######################################################################
#
#                 Cambridge Crystallographic Data Centre
#                                CCDC 
#
#######################################################################
#
# If this CIF has been generated from an entry in the Cambridge 
# Structural Database, then it will include bibliographic, chemical, 
# crystal, experimental, refinement or atomic coordinate data resulting 
# from the CCDC's data processing and validation procedures.
#
#######################################################################

data_QIYQEW
_symmetry_cell_setting           triclinic
_symmetry_space_group_name_H-M   'P -1'
_symmetry_Int_Tables_number      2
_space_group_name_Hall           '-P 1'
loop_
_symmetry_equiv_pos_site_id
_symmetry_equiv_pos_as_xyz
1 x,y,z
2 -x,-y,-z
_cell_length_a                   11.9167(13)
_cell_length_b                   12.0974(13)
_cell_length_c                   13.1927(14)
_cell_angle_alpha                91.095(2)
_cell_angle_beta                 98.022(2)
_cell_angle_gamma                96.396(2)
_cell_volume                     1870.38
loop_
_atom_site_label
_atom_site_type_symbol
_atom_site_fract_x
_atom_site_fract_y
_atom_site_fract_z
Mn1 Mn 0.0000 -0.5000 -0.5000
O23 O 0.1726(9) -0.4159(8) -0.4846(9)
O24 O -0.0684(12) -0.3695(9) -0.5920(8)
H1 H -0.0328 -0.3556 -0.6427
H2 H -0.0683 -0.3100 -0.5566
O25 O -0.0300(11) -0.4174(10) -0.3613(9)
H3 H -0.0244 -0.3631 -0.3184
H4 H -0.0867 -0.4628 -0.3512
O26 O -0.5108(10) -1.3499(8) -0.5907(8)
N1 N -0.4571(11) -1.2476(10) -0.5758(9)
N2 N -0.2126(10) -0.6917(9) -0.5218(9)
C1 C -0.3912(17) -1.0777(12) -0.6437(12)
H5 H -0.3823 -1.0357 -0.7009
C2 C -0.4387(17) -1.1865(12) -0.6584(12)
H6 H -0.4581 -1.2180 -0.7243
C3 C -0.4247(15) -1.2006(13) -0.4827(12)
H7 H -0.4346 -1.2432 -0.4259
C4 C -0.3780(14) -1.0932(13) -0.4672(11)
H8 H -0.3605 -1.0633 -0.4007
C5 C -0.3559(13) -1.0276(10) -0.5473(11)
C6 C -0.3036(13) -0.9093(11) -0.5380(11)
C7 C -0.2638(17) -0.8581(12) -0.4437(13)
H9 H -0.2644 -0.8998 -0.3852
C8 C -0.2229(17) -0.7458(13) -0.4337(13)
H10 H -0.2036 -0.7095 -0.3699
C9 C -0.2419(14) -0.7371(13) -0.6107(14)
H11 H -0.2313 -0.6960 -0.6681
C10 C -0.2898(14) -0.8479(10) -0.6232(12)
H12 H -0.3123 -0.8801 -0.6885
Mn2 Mn -0.5000 -1.5000 -0.5000
C11 C -0.1731(13) -1.4844(10) -1.1082(11)
N3 N -0.2429(10) -1.5239(10) -1.1943(8)
C12 C -0.5241(15) -1.3471(14) -0.2055(12)
N4 N -0.5662(11) -1.4201(10) -0.2825(9)
O27 O -0.5318(11) -1.4027(9) -0.3731(8)
C13 C -0.3851(14) -1.5869(12) -1.0970(12)
H13 H -0.4579 -1.6230 -1.0950
C14 C -0.6824(13) -1.4562(11) 0.0038(11)
C15 C -0.6432(13) -1.5040(11) -0.2683(11)
C16 C -0.6814(12) -1.5198(12) -0.1760(10)
C17 C -0.7902(12) -1.5078(11) 0.0173(10)
H14 H -0.9005 -1.5481 0.1124
C18 C -0.5576(13) -1.3561(12) -0.1128(12)
O28 O -0.7913(9) -1.4872(9) 0.2848(7)
C19 C -0.6400(11) -1.4426(11) -0.0922(10)
H15 H -0.6722 -1.5537 -0.3228
C20 C -0.6536(14) -1.4234(12) 0.1871(11)
H16 H -0.6077 -1.3933 0.2461
O29 O -0.3206(8) -1.4444(8) -0.4582(7)
H17 H -0.2828 -1.4844 -0.4913
H18 H -0.7340 -1.5806 -0.1677
H19 H -0.4700 -1.2886 -0.2165
H20 H -0.3023 -1.4548 -0.3948
H21 H -0.1613 -1.4617 -0.9598
H22 H -0.5257 -1.3042 -0.0610
O23A O -0.1726(9) -0.5841(8) -0.5154(9)
O24A O 0.0684(12) -0.6305(9) -0.4080(8)
H1A H 0.0328 -0.6444 -0.3573
H2A H 0.0683 -0.6900 -0.4434
O25A O 0.0300(11) -0.5826(10) -0.6387(9)
H3A H 0.0244 -0.6369 -0.6816
H4A H 0.0867 -0.5372 -0.6488
C1A C -0.6088(17) -1.9223(12) -0.3563(12)
C2A C -0.5613(17) -1.8135(12) -0.3416(12)
H5A H -0.6177 -1.9643 -0.2991
C5A C -0.6441(13) -1.9724(10) -0.4527(11)
C6A C -0.6964(13) -2.0907(11) -0.4620(11)
C7A C -0.7362(17) -2.1419(12) -0.5563(13)
C13A C -0.6149(14) -1.4131(12) 0.0970(12)
C11A C -0.8269(13) -1.5156(10) 0.1082(11)
H9A H -0.7356 -2.1002 -0.6148
C10A C -0.7102(14) -2.1521(10) -0.3768(12)
H12A H -0.6877 -2.1199 -0.3115
N3A N -0.7571(10) -1.4761(10) 0.1943(8)
C17A C -0.2098(12) -1.4922(11) -1.0173(10)
C8A C -0.7771(17) -2.2542(13) -0.5663(13)
H10A H -0.7964 -2.2905 -0.6301
C3A C -0.5753(15) -1.7994(13) -0.5173(12)
C4A C -0.6220(14) -1.9068(13) -0.5328(11)
H13A H -0.5421 -1.3770 0.0950
O27A O -0.4682(11) -1.5973(9) -0.6269(8)
N4A N -0.4338(11) -1.5799(10) -0.7175(9)
H6A H -0.5419 -1.7820 -0.2757
C9A C -0.7581(14) -2.2629(13) -0.3893(14)
O28A O -0.2087(9) -1.5128(9) -1.2848(7)
C20A C -0.3464(14) -1.5766(12) -1.1871(11)
C14A C -0.3176(13) -1.5438(11) -1.0038(11)
H7A H -0.5654 -1.7568 -0.5741
H16A H -0.3923 -1.6067 -1.2461
H14A H -0.0995 -1.4519 -1.1124
H8A H -0.6395 -1.9367 -0.5993
O29A O -0.6794(8) -1.5556(8) -0.5418(7)
H17A H -0.7172 -1.5156 -0.5087
H21A H -0.8387 -1.5383 -0.0402
H20A H -0.6977 -1.5452 -0.6052
H11A H -0.7687 -2.3040 -0.3319
N2A N -0.7874(10) -2.3083(9) -0.4782(9)
Mn1_2 Mn -1.0000 -2.5000 -0.5000
C15A C -0.3568(13) -1.4960(11) -0.7317(11)
C19A C -0.3600(11) -1.5574(11) -0.9078(10)
N1A N -0.5429(11) -1.7524(10) -0.4242(9)
C12A C -0.4759(15) -1.6529(14) -0.7945(12)
C18A C -0.4424(13) -1.6439(12) -0.8872(12)
H22A H -0.4743 -1.6958 -0.9390
H19A H -0.5300 -1.7114 -0.7835
C16A C -0.3186(12) -1.4802(12) -0.8240(10)
H15A H -0.3278 -1.4463 -0.6772
O23_2 O -0.8274(9) -2.4159(8) -0.4846(9)
O26A O -0.4892(10) -1.6501(8) -0.4093(8)
H18A H -0.2660 -1.4194 -0.8323
O30 O 0.4326(12) -0.0935(11) -1.1488(10)
H23 H 0.5017 -0.0837 -1.1205
H24 H 0.3929 -0.0618 -1.1108
O31 O -0.150(3) -0.204(3) -0.496(2)
O32 O -0.284(2) -0.2184(17) -1.0882(18)
O33 O -0.1345(19) -0.237(2) -0.9240(17)
O34 O 0.234(2) 0.0153(18) -0.8200(18)
O35 O 0.2101(18) -0.1544(18) -1.0289(16)
O36 O 0.0450(18) -0.3261(18) -0.9848(16)
O37 O -0.068(2) -0.2376(18) -1.1406(16)
O38 O -0.015(2) -0.1562(18) -0.7333(17)
O39 O -0.218(2) -0.081(2) -0.7965(19)
O40 O -0.280(2) -0.0060(18) -0.9905(18)
O41 O -0.1156(19) 0.1192(17) -0.8107(16)
O42 O 0.093(2) 0.090(2) -0.7004(19)
O43 O 0.1816(19) -0.2133(17) -0.8318(17)
O44 O -0.091(3) -0.187(3) -0.491(3)
Mo1 Mo -0.04769(11) -0.00513(11) -0.74025(9)
O1 O -0.0820(11) -0.0045(10) -0.6244(8)
O2 O 0.0082(19) -0.1253(18) -0.7747(16)
O3 O -0.189(2) -0.0542(19) -0.836(2)
O4 O -0.1135(18) 0.1492(16) -0.7653(16)
O5 O 0.089(2) 0.0554(19) -0.7496(17)
O6 O -0.0614(15) -0.0769(13) -0.9070(12)
O7 O 0.0073(16) 0.0758(16) -0.8895(14)
Mo2 Mo 0.00412(12) -0.25036(10) -0.86880(10)
Mo3 Mo -0.25762(12) -0.13727(10) -0.93606(11)
Mo4 Mo -0.09793(12) 0.23112(10) -0.88797(10)
Mo5 Mo 0.18596(12) 0.16956(10) -0.81306(10)
Ge1 Ge 0.0000 0.0000 -1.0000
O8 O 0.0091(10) -0.3617(8) -0.7972(8)
O9 O -0.161(2) -0.263(2) -0.8836(17)
O10 O 0.0186(18) -0.2700(16) -0.9937(15)
O11 O 0.1522(18) -0.1588(17) -0.8448(16)
O12 O 0.0720(16) -0.1175(14) -0.9766(13)
O13 O -0.3713(10) -0.2135(8) -0.9105(9)
O14 O -0.2185(18) -0.1916(15) -1.0634(16)
O15 O -0.341(2) -0.031(2) -1.013(2)
O16 O -0.1422(15) -0.0464(14) -1.0473(12)
O17 O -0.1307(9) 0.3482(8) -0.8374(9)
O18 O -0.2422(18) 0.2098(17) -0.9834(14)
O19 O 0.0733(18) 0.2679(18) -0.8115(15)
O20 O 0.291(2) 0.0421(17) -0.7952(18)
O21 O 0.2699(11) 0.2391(9) -0.7186(9)
Mo6 Mo 0.26384(12) -0.08868(12) -0.89413(10)
O22 O 0.3894(9) -0.1290(9) -0.8568(8)
O10A O -0.0186(18) 0.2700(16) -1.0063(15)
O12A O -0.0720(16) 0.1175(14) -1.0234(13)
O14A O 0.2185(18) 0.1916(15) -0.9366(16)
O16A O 0.1422(15) 0.0464(14) -0.9527(12)
O7A O -0.0073(16) -0.0758(16) -1.1105(14)
O6A O 0.0614(15) 0.0769(13) -1.0930(12)
Mo4A Mo 0.09793(12) -0.23112(10) -1.11203(10)
Mo5A Mo -0.18596(12) -0.16956(10) -1.18694(10)
Mo6A Mo -0.26384(12) 0.08868(12) -1.10587(10)
Mo2A Mo -0.00412(12) 0.25036(10) -1.13120(10)
Mo3A Mo 0.25762(12) 0.13727(10) -1.06394(11)
Mo1A Mo 0.04769(11) 0.00513(11) -1.25975(9)
O17A O 0.1307(9) -0.3482(8) -1.1626(9)
O18A O 0.2422(18) -0.2098(17) -1.0166(14)
O19A O -0.0733(18) -0.2679(18) -1.1885(15)
O4A O 0.1135(18) -0.1492(16) -1.2347(16)
O15A O 0.341(2) 0.031(2) -0.987(2)
O21A O -0.2699(11) -0.2391(9) -1.2814(9)
O20A O -0.291(2) -0.0421(17) -1.2048(18)
O5A O -0.089(2) -0.0554(19) -1.2504(17)
O22A O -0.3894(9) 0.1290(9) -1.1432(8)
O11A O -0.1522(18) 0.1588(17) -1.1552(16)
O8A O -0.0091(10) 0.3617(8) -1.2028(8)
O9A O 0.161(2) 0.263(2) -1.1164(17)
O2A O -0.0082(19) 0.1253(18) -1.2253(16)
O13A O 0.3713(10) 0.2135(8) -1.0895(9)
O3A O 0.189(2) 0.0542(19) -1.164(2)
O1A O 0.0820(11) 0.0045(10) -1.3756(8)
loop_
_geom_bond_atom_site_label_1
_geom_bond_atom_site_label_2
_geom_bond_site_symmetry_1
_geom_bond_site_symmetry_2
Mo1 O1 1_555 1_555
O2 Mo1 1_555 1_555
O3 Mo1 1_555 1_555
O4 Mo1 1_555 1_555
O5 Mo1 1_555 1_555
O6 Mo1 1_555 1_555
O7 Mo1 1_555 1_555
Mo2 O2 1_555 1_555
Mo3 O3 1_555 1_555
Mo4 O4 1_555 1_555
Mo5 O5 1_555 1_555
Ge1 O6 1_555 1_555
O8 Mo2 1_555 1_555
O9 Mo2 1_555 1_555
O10 Mo2 1_555 1_555
O11 Mo2 1_555 1_555
O12 Mo2 1_555 1_555
O13 Mo3 1_555 1_555
O14 Mo3 1_555 1_555
O15 Mo3 1_555 1_555
O16 Mo3 1_555 1_555
O17 Mo4 1_555 1_555
O18 Mo4 1_555 1_555
O19 Mo4 1_555 1_555
O20 Mo5 1_555 1_555
O21 Mo5 1_555 1_555
Mo6 O11 1_555 1_555
O22 Mo6 1_555 1_555
Mn1 O23 1_555 1_555
O24 Mn1 1_555 1_555
H1 O24 1_555 1_555
H2 O24 1_555 1_555
O25 Mn1 1_555 1_555
H3 O25 1_555 1_555
H4 O25 1_555 1_555
O26 N1 1_555 1_555
N1 C2 1_555 1_555
N2 C8 1_555 1_555
C1 H5 1_555 1_555
C2 C1 1_555 1_555
H6 C2 1_555 1_555
C3 N1 1_555 1_555
H7 C3 1_555 1_555
C4 C3 1_555 1_555
H8 C4 1_555 1_555
C5 C1 1_555 1_555
C6 C5 1_555 1_555
C7 C6 1_555 1_555
H9 C7 1_555 1_555
C8 C7 1_555 1_555
H10 C8 1_555 1_555
C9 N2 1_555 1_555
H11 C9 1_555 1_555
C10 C6 1_555 1_555
H12 C10 1_555 1_555
Mn2 O26 1_555 1_555
C11 N3 1_555 1_555
N3 O28A 1_555 1_555
C12 N4 1_555 1_555
N4 O27 1_555 1_555
O27 Mn2 1_555 1_555
C13 H13 1_555 1_555
C14 C17 1_555 1_555
C15 N4 1_555 1_555
C16 C15 1_555 1_555
C17 C11A 1_555 1_555
H14 C11A 1_555 1_555
C18 C12 1_555 1_555
O28 N3A 1_555 1_555
C19 C14 1_555 1_555
H15 C15 1_555 1_555
C20 H16 1_555 1_555
O29 Mn2 1_555 1_555
H17 O29 1_555 1_555
H18 C16 1_555 1_555
H19 C12 1_555 1_555
H20 O29 1_555 1_555
H21 C17A 1_555 1_555
H22 C18 1_555 1_555
O30 H23 1_555 1_555
H24 O30 1_555 1_555
O10A Mo4 1_555 1_555
O12A Mo4 1_555 1_555
O14A Mo5 1_555 1_555
O16A Mo5 1_555 1_555
O7A Ge1 1_555 1_555
O6A Ge1 1_555 1_555
Mo4A O10 1_555 1_555
Mo5A O14 1_555 1_555
Mo6A O15 1_555 1_555
Mo2A O10A 1_555 1_555
Mo3A O14A 1_555 1_555
Mo1A O7A 1_555 1_555
O17A Mo4A 1_555 1_555
O18A Mo6 1_555 1_555
O19A Mo4A 1_555 1_555
O4A Mo4A 1_555 1_555
O15A Mo6 1_555 1_555
O21A Mo5A 1_555 1_555
O20A Mo5A 1_555 1_555
O5A Mo5A 1_555 1_555
O22A Mo6A 1_555 1_555
O11A Mo6A 1_555 1_555
O8A Mo2A 1_555 1_555
O9A Mo2A 1_555 1_555
O2A Mo2A 1_555 1_555
O13A Mo3A 1_555 1_555
O3A Mo3A 1_555 1_555
O1A Mo1A 1_555 1_555
O23A Mn1 1_555 1_555
O24A Mn1 1_555 1_555
H1A O24A 1_555 1_555
H2A O24A 1_555 1_555
O25A Mn1 1_555 1_555
H3A O25A 1_555 1_555
H4A O25A 1_555 1_555
C1A C2A 1_555 1_555
C2A H6A 1_555 1_555
H5A C1A 1_555 1_555
C5A C1A 1_555 1_555
C6A C5A 1_555 1_555
C7A C6A 1_555 1_555
C13A C14 1_555 1_555
C11A N3A 1_555 1_555
H9A C7A 1_555 1_555
C10A C6A 1_555 1_555
H12A C10A 1_555 1_555
N3A C20 1_555 1_555
C17A C11 1_555 1_555
C8A C7A 1_555 1_555
H10A C8A 1_555 1_555
C3A C4A 1_555 1_555
C4A C5A 1_555 1_555
H13A C13A 1_555 1_555
O27A Mn2 1_555 1_555
N4A O27A 1_555 1_555
C9A C10A 1_555 1_555
C20A N3 1_555 1_555
C14A C13 1_555 1_555
H7A C3A 1_555 1_555
H16A C20A 1_555 1_555
H14A C11 1_555 1_555
H8A C4A 1_555 1_555
O29A Mn2 1_555 1_555
H17A O29A 1_555 1_555
H21A C17 1_555 1_555
H20A O29A 1_555 1_555
H11A C9A 1_555 1_555
N2A C8A 1_555 1_555
Mn1_2 O23_2 1_555 1_555
C15A N4A 1_555 1_555
C19A C14A 1_555 1_555
N1A C2A 1_555 1_555
C12A N4A 1_555 1_555
C18A C19A 1_555 1_555
H22A C18A 1_555 1_555
H19A C12A 1_555 1_555
C16A C15A 1_555 1_555
H15A C15A 1_555 1_555
O23_2 N2A 1_555 1_555
O26A Mn2 1_555 1_555
H18A C16A 1_555 1_555
O6 Mo2 1_555 1_555
O6 Mo3 1_555 1_555
O7 Mo4 1_555 1_555
O7 Mo5 1_555 1_555
O7 Ge1 1_555 1_555
Mo3 O9 1_555 1_555
Mo5 O19 1_555 1_555
Ge1 O12 1_555 1_555
Ge1 O16 1_555 1_555
Ge1 O12A 1_555 1_555
Ge1 O16A 1_555 1_555
O12 Mo6 1_555 1_555
O12 Mo4A 1_555 1_555
O16 Mo5A 1_555 1_555
O16 Mo6A 1_555 1_555
O18 Mo6A 1_555 1_555
O20 Mo6 1_555 1_555
Mo6 O16A 1_555 1_555
N2 O23A 1_555 1_555
C4 C5 1_555 1_555
C9 C10 1_555 1_555
C13 C20A 1_555 1_555
C16 C19 1_555 1_555
C18 C19 1_555 1_555
C20 C13A 1_555 1_555
O12A Mo6A 1_555 1_555
O12A Mo2A 1_555 1_555
O16A Mo3A 1_555 1_555
O7A Mo4A 1_555 1_555
O7A Mo5A 1_555 1_555
O6A Mo2A 1_555 1_555
O6A Mo3A 1_555 1_555
O6A Mo1A 1_555 1_555
Mo4A O18A 1_555 1_555
Mo5A O19A 1_555 1_555
Mo6A O20A 1_555 1_555
Mo2A O11A 1_555 1_555
Mo3A O15A 1_555 1_555
Mo3A O9A 1_555 1_555
Mo1A O4A 1_555 1_555
Mo1A O5A 1_555 1_555
Mo1A O2A 1_555 1_555
Mo1A O3A 1_555 1_555
C17A C14A 1_555 1_555
C3A N1A 1_555 1_555
C9A N2A 1_555 1_555
C19A C16A 1_555 1_555
N1A O26A 1_555 1_555
C12A C18A 1_555 1_555

#END
