
#######################################################################
#
#                 Cambridge Crystallographic Data Centre
#                                CCDC 
#
#######################################################################
#
# If this CIF has been generated from an entry in the Cambridge 
# Structural Database, then it will include bibliographic, chemical, 
# crystal, experimental, refinement or atomic coordinate data resulting 
# from the CCDC's data processing and validation procedures.
#
#######################################################################

data_QIYQAS
_symmetry_cell_setting           triclinic
_symmetry_space_group_name_H-M   'P 1'
_symmetry_Int_Tables_number      1
_space_group_name_Hall           'P 1'
loop_
_symmetry_equiv_pos_site_id
_symmetry_equiv_pos_as_xyz
1 x,y,z
_cell_length_a                   11.9770(5)
_cell_length_b                   12.1151(5)
_cell_length_c                   13.2275(6)
_cell_angle_alpha                91.4280(10)
_cell_angle_beta                 97.3990(10)
_cell_angle_gamma                96.9130(10)
_cell_volume                     1887.93
loop_
_atom_site_label
_atom_site_type_symbol
_atom_site_fract_x
_atom_site_fract_y
_atom_site_fract_z
Ge1 Ge 0.0906(2) 0.0785(2) -0.94059(17)
W1 W 0.35241(7) -0.01663(7) -0.84649(6)
W2 W 0.10723(7) -0.16779(7) -0.80539(6)
W3 W 0.18380(7) -0.15997(7) -1.04289(6)
W4 W 0.08916(7) 0.32089(7) -1.08244(6)
W5 W 0.34255(7) 0.22936(7) -1.00633(7)
W6 W 0.15643(7) 0.08903(7) -1.19452(6)
W7 W 0.00708(7) 0.31475(7) -0.82362(6)
W8 W 0.03215(7) 0.08582(7) -0.68497(6)
W9 W 0.26852(7) 0.24220(7) -0.74422(6)
W10 W -0.16769(7) -0.06933(7) -0.89035(7)
W11 W -0.17767(7) 0.15678(8) -1.03731(6)
W12 W -0.09953(7) -0.08073(7) -1.13056(6)
O1 O 0.4882(12) -0.0347(13) -0.8002(11)
O2 O 0.0909(15) -0.2797(13) -0.7280(13)
O3 O 0.2109(14) -0.2734(13) -1.1122(12)
O4 O 0.0723(15) 0.4386(14) -1.1440(11)
O5 O 0.4750(13) 0.2985(13) -1.0131(12)
O6 O 0.1762(14) 0.0646(13) -1.3206(11)
O7 O -0.0381(14) 0.4332(14) -0.7858(14)
O8 O -0.0103(12) 0.0612(13) -0.5698(10)
O9 O 0.3719(14) 0.3103(14) -0.6610(11)
O10 O -0.2744(11) -0.1493(13) -0.8424(11)
O11 O -0.2938(13) 0.2229(15) -1.0752(13)
O12 O -0.1666(14) -0.1633(13) -1.2357(12)
O13 O 0.0213(11) -0.1577(11) -1.0840(10)
O14 O -0.1932(12) 0.0428(11) -1.1427(9)
O15 O -0.1156(10) 0.2376(11) -0.9114(10)
O16 O 0.3176(12) 0.0947(12) -0.7611(9)
O17 O -0.0589(11) 0.2407(13) -1.0958(10)
O18 O -0.2473(11) 0.0434(12) -0.9514(9)
O19 O -0.0441(11) -0.1560(11) -0.8629(11)
O20 O -0.1893(11) -0.1409(11) -1.0293(10)
O21 O 0.1781(11) 0.1692(12) -0.6446(10)
O22 O 0.0087(11) 0.0200(12) -1.1915(10)
O23 O -0.1008(11) 0.0229(11) -0.7809(10)
O24 O 0.3698(11) 0.0951(12) -0.9486(11)
O25 O 0.2498(11) 0.3435(11) -1.0556(11)
O26 O -0.0269(11) 0.2270(12) -0.7108(10)
O27 O 0.3088(11) 0.1640(11) -1.1394(10)
O28 O 0.1617(12) 0.3465(11) -0.7541(9)
O29 O 0.2034(11) -0.0411(13) -1.1260(10)
O30 O 0.1340(11) -0.2417(12) -0.9269(10)
O31 O 0.3116(11) 0.2739(11) -0.8747(9)
O32 O 0.1081(12) 0.2340(11) -1.2041(10)
O33 O 0.2738(10) -0.1241(13) -0.7771(9)
O34 O 0.0726(12) 0.3536(12) -0.9469(10)
O35 O 0.3266(11) -0.1273(11) -0.9651(10)
O36 O 0.0939(10) -0.0434(10) -0.7160(10)
O37 O 0.1623(10) -0.0351(10) -0.9182(9)
O38 O 0.1508(10) 0.1534(11) -1.0313(9)
O39 O 0.0971(10) 0.1567(10) -0.8306(8)
O40 O -0.0481(9) 0.0326(10) -0.9882(9)
Mn1 Mn 0.5920(3) 0.5811(3) -0.4396(3)
Mn2 Mn 0.0939(3) -0.4212(3) -0.4362(3)
O41 O 0.4109(12) 0.5291(14) -0.4832(11)
H1 H 0.3933 0.5410 -0.5460
H2 H 0.3739 0.5685 -0.4489
O42 O 0.7683(11) 0.6375(12) -0.3981(11)
H3 H 0.8067 0.5980 -0.4309
H4 H 0.7857 0.6276 -0.3349
O43 O 0.032(2) -0.2900(15) -0.5299(13)
H5 H 0.0476 -0.2784 -0.5899
H6 H 0.0086 -0.2321 -0.5068
O44 O 0.0593(15) -0.3429(17) -0.2965(12)
H7 H 0.1182 -0.3336 -0.2524
H8 H 0.0058 -0.3808 -0.2715
O45 O 0.1618(19) -0.5492(17) -0.3457(17)
H9 H 0.1585 -0.6096 -0.3807
H10 H 0.1267 -0.5613 -0.2943
O46 O 0.1235(17) -0.5076(18) -0.5740(14)
H11 H 0.1053 -0.5775 -0.5738
H12 H 0.1909 -0.4924 -0.5879
O47 O 0.5976(13) 0.4331(12) -0.3478(11)
O48 O 0.2683(13) -0.3407(12) -0.4177(13)
N1 N 0.5498(16) 0.3252(13) -0.3602(13)
N2 N 0.3116(14) -0.2340(15) -0.4106(14)
C1 C 0.496(2) 0.154(2) -0.2906(17)
H13 H 0.4891 0.1124 -0.2332
C2 C 0.5502(19) 0.2621(18) -0.2772(16)
H14 H 0.5855 0.2902 -0.2135
C3 C 0.508(2) 0.2818(19) -0.4561(17)
H15 H 0.5113 0.3260 -0.5124
C4 C 0.461(2) 0.1731(18) -0.4681(18)
H16 H 0.4349 0.1443 -0.5339
C5 C 0.4508(16) 0.1043(18) -0.3885(15)
C6 C 0.4010(16) -0.0105(19) -0.3970(17)
C7 C 0.3872(18) -0.0736(17) -0.3114(16)
H17 H 0.4111 -0.0401 -0.2470
C8 C 0.3406(19) -0.1814(19) -0.3183(16)
H18 H 0.3286 -0.2191 -0.2595
C9 C 0.319(2) -0.170(2) -0.4963(16)
H19 H 0.2902 -0.2027 -0.5598
C10 C 0.365(3) -0.067(2) -0.4927(16)
H20 H 0.3735 -0.0303 -0.5527
O49 O 0.6257(14) 0.4847(12) -0.5641(11)
O50 O 0.8767(13) 0.5716(14) -1.2232(11)
N3 N 0.6570(14) 0.5019(13) -0.6585(12)
N4 N 0.8479(14) 0.5613(14) -1.1331(12)
C11 C 0.656(2) 0.439(2) -0.8271(18)
H21 H 0.6315 0.3847 -0.8787
C12 C 0.6136(18) 0.4294(17) -0.7324(14)
H22 H 0.5563 0.3732 -0.7229
C13 C 0.738(2) 0.5851(19) -0.6707(18)
H23 H 0.7697 0.6334 -0.6160
C14 C 0.7729(18) 0.5980(17) -0.7623(14)
H24 H 0.8266 0.6579 -0.7712
C15 C 0.7318(17) 0.5255(15) -0.8433(13)
C16 C 0.7712(18) 0.5355(16) -0.9449(14)
C17 C 0.702(2) 0.491(2) -1.0293(18)
H25 H 0.6323 0.4495 -1.0239
C18 C 0.7393(18) 0.509(2) -1.126(2)
H26 H 0.6904 0.4864 -1.1852
C19 C 0.9198(18) 0.5926(18) -1.0481(15)
H27 H 0.9952 0.6185 -1.0525
C20 C 0.8817(17) 0.5864(17) -0.9539(16)
H28 H 0.9292 0.6159 -0.8959
O51 O 0.5793(14) 0.7302(12) -0.5329(10)
O52 O 0.9189(13) 1.5001(13) -0.4508(12)
N5 N 0.6295(13) 0.8314(13) -0.5152(11)
N6 N 0.8832(14) 1.3890(14) -0.4553(13)
C21 C 0.7077(18) 0.9884(19) -0.4091(15)
H29 H 0.7246 1.0194 -0.3431
C22 C 0.6607(16) 0.880(2) -0.4252(17)
H30 H 0.6501 0.8386 -0.3684
C23 C 0.659(2) 0.892(2) -0.5955(17)
H31 H 0.6496 0.8564 -0.6597
C24 C 0.702(3) 1.0025(18) -0.5866(17)
H32 H 0.7130 1.0434 -0.6439
C25 C 0.7298(19) 1.0505(18) -0.4896(17)
C26 C 0.7850(18) 1.1708(15) -0.4780(16)
C27 C 0.822(2) 1.2271(18) -0.3806(18)
H33 H 0.8148 1.1875 -0.3220
C28 C 0.869(2) 1.3406(18) -0.3700(19)
H34 H 0.8883 1.3780 -0.3067
C29 C 0.849(2) 1.3402(17) -0.5491(17)
H35 H 0.8599 1.3813 -0.6064
C30 C 0.8018(19) 1.2352(17) -0.5617(16)
H36 H 0.7794 1.2042 -0.6273
O53 O 0.5603(15) 0.6800(14) -0.3129(12)
O54 O 0.2949(13) 0.5978(14) 0.3462(10)
N7 N 0.5265(15) 0.6636(17) -0.2240(12)
N8 N 0.3357(16) 0.6100(16) 0.2525(14)
C31 C 0.410(2) 0.563(2) -0.1134(18)
H37 H 0.3561 0.5039 -0.1035
C32 C 0.4473(18) 0.5733(17) -0.2102(14)
H38 H 0.4195 0.5212 -0.2631
C33 C 0.5676(18) 0.737(2) -0.1436(16)
H39 H 0.6199 0.7980 -0.1537
C34 C 0.5348(18) 0.725(2) -0.0516(16)
H40 H 0.5671 0.7748 0.0017
C35 C 0.4511(19) 0.637(2) -0.0340(18)
C36 C 0.4112(18) 0.6258(16) 0.0678(14)
C37 C 0.2997(17) 0.5802(16) 0.0760(14)
H41 H 0.2493 0.5594 0.0172
C38 C 0.2646(17) 0.5659(17) 0.1688(16)
H42 H 0.1940 0.5273 0.1751
C39 C 0.4383(19) 0.6548(19) 0.2463(16)
H43 H 0.4862 0.6793 0.3056
C40 C 0.4762(16) 0.6663(18) 0.1570(14)
H44 H 0.5486 0.7028 0.1547
Mn2_2 Mn 1.0939(3) 1.5788(3) -0.4362(3)
O52_2 O -0.0811(13) -0.4999(13) -0.4508(12)
O55 O -0.3430(17) 0.1697(16) -0.7902(14)
H45 H -0.4089 0.1902 -0.7960
H46 H -0.3128 0.1662 -0.8447
O56 O 0.1940(19) -0.7359(19) -0.4464(16)
H47 H 0.1887 -0.7908 -0.4078
H48 H 0.1890 -0.7610 -0.5076
O57 O -0.477(2) -0.014(3) -1.085(2)
H49 H -0.5089 -0.0036 -1.0323
H50 H -0.4154 -0.0430 -1.0755
O58 O -0.044(3) -0.125(3) -0.438(3)
H51 H -0.0804 -0.1208 -0.3870
H52 H -0.0430 -0.0639 -0.4680
loop_
_geom_bond_atom_site_label_1
_geom_bond_atom_site_label_2
_geom_bond_site_symmetry_1
_geom_bond_site_symmetry_2
Ge1 O37 1_555 1_555
W1 O1 1_555 1_555
W2 O2 1_555 1_555
W3 O3 1_555 1_555
W4 O4 1_555 1_555
W5 O5 1_555 1_555
W6 O6 1_555 1_555
W7 O7 1_555 1_555
W8 O8 1_555 1_555
W9 O9 1_555 1_555
W10 O10 1_555 1_555
W11 O11 1_555 1_555
W12 O12 1_555 1_555
O13 W3 1_555 1_555
O14 W11 1_555 1_555
O15 W7 1_555 1_555
O16 W1 1_555 1_555
O17 W4 1_555 1_555
O18 W10 1_555 1_555
O19 W2 1_555 1_555
O20 W10 1_555 1_555
O21 W8 1_555 1_555
O22 W6 1_555 1_555
O23 W8 1_555 1_555
O24 W1 1_555 1_555
O25 W4 1_555 1_555
O26 W7 1_555 1_555
O27 W5 1_555 1_555
O28 W7 1_555 1_555
O29 W3 1_555 1_555
O30 W2 1_555 1_555
O31 W5 1_555 1_555
O32 W4 1_555 1_555
O33 W1 1_555 1_555
O34 W4 1_555 1_555
O35 W1 1_555 1_555
O36 W2 1_555 1_555
O37 W1 1_555 1_555
O38 Ge1 1_555 1_555
O39 Ge1 1_555 1_555
O40 Ge1 1_555 1_555
Mn1 O41 1_555 1_555
Mn2 O43 1_555 1_555
O41 H1 1_555 1_555
H2 O41 1_555 1_555
O42 Mn1 1_555 1_555
H3 O42 1_555 1_555
H4 O42 1_555 1_555
O43 H5 1_555 1_555
H6 O43 1_555 1_555
O44 Mn2 1_555 1_555
H7 O44 1_555 1_555
H8 O44 1_555 1_555
O45 Mn2 1_555 1_555
H9 O45 1_555 1_555
H10 O45 1_555 1_555
O46 Mn2 1_555 1_555
H11 O46 1_555 1_555
H12 O46 1_555 1_555
O47 Mn1 1_555 1_555
O48 Mn2 1_555 1_555
N1 O47 1_555 1_555
N2 O48 1_555 1_555
C1 H13 1_555 1_555
C2 N1 1_555 1_555
H14 C2 1_555 1_555
C3 N1 1_555 1_555
H15 C3 1_555 1_555
C4 C3 1_555 1_555
H16 C4 1_555 1_555
C5 C1 1_555 1_555
C6 C5 1_555 1_555
C7 C6 1_555 1_555
H17 C7 1_555 1_555
C8 N2 1_555 1_555
H18 C8 1_555 1_555
C9 N2 1_555 1_555
H19 C9 1_555 1_555
C10 C6 1_555 1_555
H20 C10 1_555 1_555
O49 Mn1 1_555 1_555
O50 N4 1_555 1_555
N3 O49 1_555 1_555
N4 C18 1_555 1_555
C11 H21 1_555 1_555
C12 N3 1_555 1_555
H22 C12 1_555 1_555
C13 N3 1_555 1_555
H23 C13 1_555 1_555
C14 C13 1_555 1_555
H24 C14 1_555 1_555
C15 C11 1_555 1_555
C16 C15 1_555 1_555
C17 C16 1_555 1_555
H25 C17 1_555 1_555
C18 C17 1_555 1_555
H26 C18 1_555 1_555
C19 N4 1_555 1_555
H27 C19 1_555 1_555
C20 C16 1_555 1_555
H28 C20 1_555 1_555
O51 Mn1 1_555 1_555
O52 N6 1_555 1_555
N5 O51 1_555 1_555
N6 C28 1_555 1_555
C21 H29 1_555 1_555
C22 N5 1_555 1_555
H30 C22 1_555 1_555
C23 N5 1_555 1_555
H31 C23 1_555 1_555
C24 C23 1_555 1_555
H32 C24 1_555 1_555
C25 C21 1_555 1_555
C26 C25 1_555 1_555
C27 C26 1_555 1_555
H33 C27 1_555 1_555
C28 C27 1_555 1_555
H34 C28 1_555 1_555
C29 N6 1_555 1_555
H35 C29 1_555 1_555
C30 C26 1_555 1_555
H36 C30 1_555 1_555
O53 Mn1 1_555 1_555
O54 N8 1_555 1_555
N7 O53 1_555 1_555
N8 C38 1_555 1_555
C31 H37 1_555 1_555
C32 N7 1_555 1_555
H38 C32 1_555 1_555
C33 N7 1_555 1_555
H39 C33 1_555 1_555
C34 C33 1_555 1_555
H40 C34 1_555 1_555
C35 C31 1_555 1_555
C36 C35 1_555 1_555
C37 C36 1_555 1_555
H41 C37 1_555 1_555
C38 C37 1_555 1_555
H42 C38 1_555 1_555
C39 N8 1_555 1_555
H43 C39 1_555 1_555
C40 C36 1_555 1_555
H44 C40 1_555 1_555
O55 H45 1_555 1_555
H46 O55 1_555 1_555
O56 H47 1_555 1_555
H48 O56 1_555 1_555
O57 H49 1_555 1_555
H50 O57 1_555 1_555
O58 H51 1_555 1_555
H52 O58 1_555 1_555
Mn2_2 O52 1_555 1_555
O52_2 Mn2 1_555 1_555
W2 O33 1_555 1_555
W2 O37 1_555 1_555
W3 O30 1_555 1_555
W3 O35 1_555 1_555
W3 O37 1_555 1_555
W4 O38 1_555 1_555
W5 O24 1_555 1_555
W5 O25 1_555 1_555
W5 O38 1_555 1_555
W6 O27 1_555 1_555
W6 O29 1_555 1_555
W6 O32 1_555 1_555
W6 O38 1_555 1_555
W7 O34 1_555 1_555
W7 O39 1_555 1_555
W8 O26 1_555 1_555
W8 O36 1_555 1_555
W8 O39 1_555 1_555
W9 O16 1_555 1_555
W9 O21 1_555 1_555
W9 O28 1_555 1_555
W9 O31 1_555 1_555
W9 O39 1_555 1_555
W10 O19 1_555 1_555
W10 O23 1_555 1_555
W10 O40 1_555 1_555
W11 O15 1_555 1_555
W11 O17 1_555 1_555
W11 O18 1_555 1_555
W11 O40 1_555 1_555
W12 O13 1_555 1_555
W12 O14 1_555 1_555
W12 O20 1_555 1_555
W12 O22 1_555 1_555
W12 O40 1_555 1_555
C1 C2 1_555 1_555
C4 C5 1_555 1_555
C7 C8 1_555 1_555
C9 C10 1_555 1_555
C11 C12 1_555 1_555
C14 C15 1_555 1_555
C19 C20 1_555 1_555
C21 C22 1_555 1_555
C24 C25 1_555 1_555
C29 C30 1_555 1_555
C31 C32 1_555 1_555
C34 C35 1_555 1_555
C39 C40 1_555 1_555

#END
