
#######################################################################
#
#                 Cambridge Crystallographic Data Centre
#                                CCDC 
#
#######################################################################
#
# If this CIF has been generated from an entry in the Cambridge 
# Structural Database, then it will include bibliographic, chemical, 
# crystal, experimental, refinement or atomic coordinate data resulting 
# from the CCDC's data processing and validation procedures.
#
#######################################################################

data_QIYRUM
_symmetry_cell_setting           triclinic
_symmetry_space_group_name_H-M   'P -1'
_symmetry_Int_Tables_number      2
_space_group_name_Hall           '-P 1'
loop_
_symmetry_equiv_pos_site_id
_symmetry_equiv_pos_as_xyz
1 x,y,z
2 -x,-y,-z
_cell_length_a                   7.8691(19)
_cell_length_b                   8.604(2)
_cell_length_c                   9.641(2)
_cell_angle_alpha                77.951(4)
_cell_angle_beta                 72.345(4)
_cell_angle_gamma                66.951(4)
_cell_volume                     569.328
loop_
_atom_site_label
_atom_site_type_symbol
_atom_site_fract_x
_atom_site_fract_y
_atom_site_fract_z
Fe1 Fe 0.5000 0.5000 0.5000
C1 C 0.3323(4) 0.4771(3) 0.2457(3)
C2 C 0.3629(4) 0.1786(3) 0.6355(3)
H1 H 0.3957 0.1433 0.5431
C3 C 0.3278(3) 0.3174(3) 0.8015(2)
H2 H 0.3287 0.3962 0.8541
C4 C -0.0441(4) 0.2901(3) 1.4599(3)
H3 H -0.0354 0.3584 1.5186
C5 C -0.1593(3) 0.1914(3) 1.3451(2)
H4 H -0.2412 0.1713 1.3047
C6 C 0.1510(3) 0.1634(3) 1.0079(2)
H5 H 0.0397 0.1427 1.0048
H6 H 0.1068 0.2641 1.0579
C7 C 0.1423(3) -0.0379(3) 1.2366(3)
H7 H 0.0594 -0.0829 1.2141
H8 H 0.2229 -0.1277 1.2927
C8 C 0.2666(3) 0.0147(3) 1.0947(3)
H9 H 0.3615 0.0446 1.1169
H10 H 0.3328 -0.0806 1.0362
N1 N 0.4163(3) 0.4417(3) 0.3342(2)
N2 N 0.3984(3) 0.3107(2) 0.65812(19)
N3 N 0.2785(3) 0.1032(3) 0.7531(2)
N4 N 0.2560(3) 0.1958(2) 0.8588(2)
N5 N -0.2105(3) 0.3120(2) 1.43032(19)
N6 N 0.1043(3) 0.1644(3) 1.3988(2)
N7 N 0.0265(3) 0.1028(2) 1.3250(2)
S1 S 0.20706(14) 0.53379(12) 0.12598(10)
Fe1_2 Fe -0.5000 0.5000 1.5000
Fe1_3 Fe 1.5000 0.5000 -0.5000
C1A C 0.6677(4) 0.5229(3) 0.7543(3)
C2A C 0.6371(4) 0.8214(3) 0.3645(3)
H1A H 0.6043 0.8567 0.4569
C3A C 0.6722(3) 0.6826(3) 0.1985(2)
H2A H 0.6713 0.6038 0.1459
C4A C 1.0441(4) 0.7099(3) -0.4599(3)
H3A H 1.0354 0.6416 -0.5186
C5A C 1.1593(3) 0.8086(3) -0.3451(2)
H4A H 1.2412 0.8287 -0.3047
C6A C 0.8490(3) 0.8366(3) -0.0079(2)
H5A H 0.9603 0.8573 -0.0048
H6A H 0.8932 0.7359 -0.0579
C7A C 0.8577(3) 1.0379(3) -0.2366(3)
H7A H 0.9406 1.0829 -0.2141
H8A H 0.7771 1.1277 -0.2927
C8A C 0.7334(3) 0.9853(3) -0.0947(3)
H9A H 0.6385 0.9554 -0.1169
H10A H 0.6672 1.0806 -0.0362
N1A N 0.5837(3) 0.5583(3) 0.6658(2)
N2A N 0.6016(3) 0.6893(2) 0.34188(19)
N3A N 0.7215(3) 0.8968(3) 0.2469(2)
N4A N 0.7440(3) 0.8042(2) 0.1412(2)
N5A N 1.2105(3) 0.6880(2) -0.43032(19)
N5_2 N 0.7895(3) 0.3120(2) 0.43032(19)
N5A_2 N 0.2105(3) 0.6880(2) 0.56968(19)
N6A N 0.8957(3) 0.8356(3) -0.3988(2)
N7A N 0.9735(3) 0.8972(2) -0.3250(2)
S1A S 0.79294(14) 0.46621(12) 0.87402(10)
loop_
_geom_bond_atom_site_label_1
_geom_bond_atom_site_label_2
_geom_bond_site_symmetry_1
_geom_bond_site_symmetry_2
Fe1 N1 1_555 1_555
C1 N1 1_555 1_555
C2 H1 1_555 1_555
C3 H2 1_555 1_555
C4 H3 1_555 1_555
C5 H4 1_555 1_555
C6 H5 1_555 1_555
H6 C6 1_555 1_555
C7 H7 1_555 1_555
H8 C7 1_555 1_555
C8 C6 1_555 1_555
H9 C8 1_555 1_555
H10 C8 1_555 1_555
N2 Fe1 1_555 1_555
N3 C2 1_555 1_555
N4 C3 1_555 1_555
N5 C4 1_555 1_555
N6 C4 1_555 1_555
N7 C5 1_555 1_555
S1 C1 1_555 1_555
Fe1_2 N5 1_555 1_555
Fe1_3 N5A 1_555 1_555
C1A N1A 1_555 1_555
C2A H1A 1_555 1_555
C3A H2A 1_555 1_555
C4A H3A 1_555 1_555
C5A H4A 1_555 1_555
C6A H5A 1_555 1_555
H6A C6A 1_555 1_555
C7A H7A 1_555 1_555
H8A C7A 1_555 1_555
C8A C6A 1_555 1_555
H9A C8A 1_555 1_555
H10A C8A 1_555 1_555
N1A Fe1 1_555 1_555
N2A Fe1 1_555 1_555
N3A C2A 1_555 1_555
N4A C3A 1_555 1_555
N5A C4A 1_555 1_555
N5_2 Fe1 1_555 1_555
N5A_2 Fe1 1_555 1_555
N6A C4A 1_555 1_555
N7A C5A 1_555 1_555
S1A C1A 1_555 1_555
C2 N2 1_555 1_555
C3 N2 1_555 1_555
C5 N5 1_555 1_555
C6 N4 1_555 1_555
C7 C8 1_555 1_555
C7 N7 1_555 1_555
N3 N4 1_555 1_555
N6 N7 1_555 1_555
C2A N2A 1_555 1_555
C3A N2A 1_555 1_555
C5A N5A 1_555 1_555
C6A N4A 1_555 1_555
C7A C8A 1_555 1_555
C7A N7A 1_555 1_555
N3A N4A 1_555 1_555
N6A N7A 1_555 1_555

#END
