
#######################################################################
#
#                 Cambridge Crystallographic Data Centre
#                                CCDC 
#
#######################################################################
#
# If this CIF has been generated from an entry in the Cambridge 
# Structural Database, then it will include bibliographic, chemical, 
# crystal, experimental, refinement or atomic coordinate data resulting 
# from the CCDC's data processing and validation procedures.
#
#######################################################################

data_QIYRUM01
_symmetry_cell_setting           triclinic
_symmetry_space_group_name_H-M   'P -1'
_symmetry_Int_Tables_number      2
_space_group_name_Hall           '-P 1'
loop_
_symmetry_equiv_pos_site_id
_symmetry_equiv_pos_as_xyz
1 x,y,z
2 -x,-y,-z
_cell_length_a                   7.8910(16)
_cell_length_b                   8.6270(17)
_cell_length_c                   9.6720(19)
_cell_angle_alpha                77.77(3)
_cell_angle_beta                 72.31(3)
_cell_angle_gamma                66.85(3)
_cell_volume                     573.567
loop_
_atom_site_label
_atom_site_type_symbol
_atom_site_fract_x
_atom_site_fract_y
_atom_site_fract_z
Fe1 Fe 0.5000 0.5000 0.5000
S1 S 0.2080(3) 0.5337(2) 0.12562(19)
N1 N 1.2564(5) 0.1958(4) -0.1411(4)
N2 N 1.2805(6) 0.1014(5) -0.2472(4)
N3 N 1.3984(5) 0.3107(4) -0.3412(4)
N4 N 1.0264(5) 0.1024(4) 0.3254(4)
N5 N 1.1044(5) 0.1646(5) 0.3984(4)
N6 N 0.7905(5) 0.3104(4) 0.4295(4)
N7 N 0.4156(6) 0.4424(5) 0.3347(4)
C1 C 0.8402(6) 0.1904(5) 0.3452(5)
H1 H 0.7582 0.1701 0.3055
C2 C 0.9567(6) 0.2898(6) 0.4589(5)
H2 H 0.9651 0.3585 0.5168
C3 C 1.1425(6) -0.0376(5) 0.2366(5)
H3 H 1.0600 -0.0823 0.2140
H4 H 1.2232 -0.1275 0.2923
C4 C 1.3278(6) 0.3165(6) -0.1999(5)
H5 H 1.3281 0.3955 -0.1479
C5 C 0.3312(7) 0.4778(6) 0.2466(5)
C6 C 1.1496(6) 0.1629(6) 0.0077(5)
H6 H 1.1028 0.2638 0.0572
H7 H 1.0402 0.1404 0.0033
C7 C 1.2653(6) 0.0151(6) 0.0961(5)
H8 H 1.3330 -0.0803 0.0384
H9 H 1.3588 0.0464 0.1183
C8 C 1.3647(7) 0.1777(6) -0.3647(5)
H10 H 1.3985 0.1427 -0.4570
S1A S 0.7920(3) 0.4663(2) 0.87438(19)
N1A N -0.2564(5) 0.8042(4) 1.1411(4)
N2A N -0.2805(6) 0.8986(5) 1.2472(4)
N3A N -0.3984(5) 0.6893(4) 1.3412(4)
N4A N -0.0264(5) 0.8976(4) 0.6746(4)
N5A N -0.1044(5) 0.8354(5) 0.6016(4)
N6A N 0.2095(5) 0.6896(4) 0.5705(4)
N7A N 0.5844(6) 0.5576(5) 0.6653(4)
C1A C 0.1598(6) 0.8096(5) 0.6548(5)
H1A H 0.2418 0.8299 0.6945
C2A C 0.0433(6) 0.7102(6) 0.5411(5)
H2A H 0.0349 0.6415 0.4832
C3A C -0.1425(6) 1.0376(5) 0.7634(5)
H3A H -0.0600 1.0823 0.7860
H4A H -0.2232 1.1275 0.7077
C4A C -0.3278(6) 0.6835(6) 1.1999(5)
H5A H -0.3281 0.6045 1.1479
C5A C 0.6688(7) 0.5222(6) 0.7534(5)
C6A C -0.1496(6) 0.8371(6) 0.9923(5)
H6A H -0.1028 0.7362 0.9428
H7A H -0.0402 0.8596 0.9967
C7A C -0.2653(6) 0.9849(6) 0.9039(5)
H8A H -0.3330 1.0803 0.9616
H9A H -0.3588 0.9536 0.8817
C8A C -0.3647(7) 0.8223(6) 1.3647(5)
H10A H -0.3985 0.8573 1.4570
Fe1_2 Fe -0.5000 0.5000 1.5000
Fe1_3 Fe 1.5000 0.5000 -0.5000
N3_2 N 0.3984(5) 0.3107(4) 0.6588(4)
N3A_2 N 0.6016(5) 0.6893(4) 0.3412(4)
loop_
_geom_bond_atom_site_label_1
_geom_bond_atom_site_label_2
_geom_bond_site_symmetry_1
_geom_bond_site_symmetry_2
Fe1 N6 1_555 1_555
S1 C5 1_555 1_555
N1 N2 1_555 1_555
N2 C8 1_555 1_555
N3 C4 1_555 1_555
N4 N5 1_555 1_555
N5 C2 1_555 1_555
N6 C1 1_555 1_555
N7 Fe1 1_555 1_555
C1 N4 1_555 1_555
H1 C1 1_555 1_555
C2 N6 1_555 1_555
H2 C2 1_555 1_555
C3 N4 1_555 1_555
H3 C3 1_555 1_555
H4 C3 1_555 1_555
C4 N1 1_555 1_555
H5 C4 1_555 1_555
C5 N7 1_555 1_555
C6 N1 1_555 1_555
H6 C6 1_555 1_555
H7 C6 1_555 1_555
C7 C3 1_555 1_555
H8 C7 1_555 1_555
H9 C7 1_555 1_555
C8 N3 1_555 1_555
H10 C8 1_555 1_555
S1A C5A 1_555 1_555
N1A N2A 1_555 1_555
N2A C8A 1_555 1_555
N3A C4A 1_555 1_555
N4A N5A 1_555 1_555
N5A C2A 1_555 1_555
N6A Fe1 1_555 1_555
N7A Fe1 1_555 1_555
C1A N4A 1_555 1_555
H1A C1A 1_555 1_555
C2A N6A 1_555 1_555
H2A C2A 1_555 1_555
C3A N4A 1_555 1_555
H3A C3A 1_555 1_555
H4A C3A 1_555 1_555
C4A N1A 1_555 1_555
H5A C4A 1_555 1_555
C5A N7A 1_555 1_555
C6A N1A 1_555 1_555
H6A C6A 1_555 1_555
H7A C6A 1_555 1_555
C7A C3A 1_555 1_555
H8A C7A 1_555 1_555
H9A C7A 1_555 1_555
C8A N3A 1_555 1_555
H10A C8A 1_555 1_555
Fe1_2 N3A 1_555 1_555
Fe1_3 N3 1_555 1_555
N3_2 Fe1 1_555 1_555
N3A_2 Fe1 1_555 1_555
C6 C7 1_555 1_555
N6A C1A 1_555 1_555
C6A C7A 1_555 1_555

#END
