
#######################################################################
#
#                 Cambridge Crystallographic Data Centre
#                                CCDC 
#
#######################################################################
#
# If this CIF has been generated from an entry in the Cambridge 
# Structural Database, then it will include bibliographic, chemical, 
# crystal, experimental, refinement or atomic coordinate data resulting 
# from the CCDC's data processing and validation procedures.
#
#######################################################################

data_QIYRAS
_symmetry_cell_setting           triclinic
_symmetry_space_group_name_H-M   'P -1'
_symmetry_Int_Tables_number      2
_space_group_name_Hall           '-P 1'
loop_
_symmetry_equiv_pos_site_id
_symmetry_equiv_pos_as_xyz
1 x,y,z
2 -x,-y,-z
_cell_length_a                   10.438(4)
_cell_length_b                   10.723(5)
_cell_length_c                   14.965(7)
_cell_angle_alpha                107.29(2)
_cell_angle_beta                 100.680(18)
_cell_angle_gamma                91.136(17)
_cell_volume                     1566.57
loop_
_atom_site_label
_atom_site_type_symbol
_atom_site_fract_x
_atom_site_fract_y
_atom_site_fract_z
Cu1 Cu 0.77053(3) 0.46830(3) 0.21128(2)
C11 C 0.5545(3) 0.4426(3) 0.3196(2)
H7 H 0.4896 0.4694 0.2793
C12 C 0.5362(3) 0.4018(3) 0.3934(2)
H8 H 0.4578 0.3954 0.4133
C13 C 0.7409(3) 0.3956(2) 0.3832(2)
H9 H 0.8297 0.3835 0.3961
C14 C 0.6845(3) 0.3222(3) 0.5153(2)
H10 H 0.6498 0.3783 0.5678
H11 H 0.7785 0.3249 0.5360
C15 C 0.6257(3) 0.1824(3) 0.4912(2)
H12 H 0.6404 0.1560 0.5487
H13 H 0.5319 0.1796 0.4691
C16 C 0.8752(3) 0.2011(3) 0.1662(2)
H14 H 0.9592 0.2353 0.1992
C17 C 0.6715(3) 0.1832(3) 0.1065(2)
H15 H 0.5860 0.2039 0.0902
C18 C 0.7129(3) 0.0619(3) 0.0815(2)
H16 H 0.6626 -0.0151 0.0451
C19 C 0.9335(3) -0.0295(3) 0.1052(2)
H17 H 0.9892 -0.0244 0.1659
H18 H 0.8838 -0.1142 0.0813
C20 C 1.0147(6) -0.0192(6) 0.0380(4)
H19 H 1.0912 0.0372 0.0770
H20 H 1.0451 -0.1057 0.0155
C21 C 0.6985(3) -0.2714(3) 0.3232(2)
H21 H 0.6911 -0.3025 0.3740
C22 C 0.7310(3) -0.2599(3) 0.1887(2)
H22 H 0.7508 -0.2825 0.1281
C23 C 0.6959(3) -0.1415(3) 0.2357(2)
H23 H 0.6873 -0.0686 0.2140
C24 C 0.6226(3) -0.0517(3) 0.3936(2)
H24 H 0.6365 -0.0754 0.4522
H25 H 0.5290 -0.0529 0.3716
C25 C 0.6833(3) 0.0858(3) 0.4151(2)
H26 H 0.6681 0.1112 0.3572
H27 H 0.7770 0.0879 0.4370
N1 N 0.6835(2) 0.4385(2) 0.31291(16)
N2 N 0.6554(2) 0.3719(2) 0.43323(16)
N3 N 0.7746(2) 0.2718(2) 0.15968(17)
N4 N 0.8427(2) 0.0744(2) 0.11999(17)
N5 N 0.7332(2) -0.3420(2) 0.24413(16)
N6 N 0.6752(2) -0.1502(2) 0.32162(17)
O3 O 0.5557(2) 0.4372(2) 0.09271(18)
O5 O 0.9799(2) 0.5417(3) 0.33685(18)
O11 O 0.8909(3) 0.4885(3) 0.12380(19)
H28 H 0.527(4) 0.507(4) 0.100(3)
H29 H 0.580(4) 0.417(4) 0.044(3)
H30 H 0.965(4) 0.582(4) 0.385(3)
H31 H 1.020(4) 0.487(4) 0.347(3)
H36 H 0.935(5) 0.581(5) 0.138(4)
H37 H 0.958(9) 0.410(9) 0.107(7)
Cu1_2 Cu 0.77053(3) 1.46830(3) 0.21128(2)
Cu1_3 Cu 0.77053(3) -0.53170(3) 0.21128(2)
Cu1A Cu 1.22947(3) -0.46830(3) -0.21128(2)
C11_2 C 0.5545(3) 1.4426(3) 0.3196(2)
H7_2 H 0.4896 1.4694 0.2793
C12_2 C 0.5362(3) 1.4018(3) 0.3934(2)
H8_2 H 0.4578 1.3954 0.4133
C13_2 C 0.7409(3) 1.3956(2) 0.3832(2)
H9_2 H 0.8297 1.3835 0.3961
C14_2 C 0.6845(3) 1.3222(3) 0.5153(2)
H10_2 H 0.6498 1.3783 0.5678
H11_2 H 0.7785 1.3249 0.5360
C15_2 C 0.6257(3) 1.1824(3) 0.4912(2)
H12_2 H 0.6404 1.1560 0.5487
H13_2 H 0.5319 1.1796 0.4691
C16A C 1.1248(3) -0.2011(3) -0.1662(2)
H14A H 1.0408 -0.2353 -0.1992
C17A C 1.3285(3) -0.1832(3) -0.1065(2)
H15A H 1.4140 -0.2039 -0.0902
C18A C 1.2871(3) -0.0619(3) -0.0815(2)
H16A H 1.3374 0.0151 -0.0451
C19A C 1.0665(3) 0.0295(3) -0.1052(2)
H17A H 1.0108 0.0244 -0.1659
H18A H 1.1162 0.1142 -0.0813
C20A C 0.9853(6) 0.0192(6) -0.0380(4)
H19A H 0.9088 -0.0372 -0.0770
H20A H 0.9549 0.1057 -0.0155
C21_2 C 0.6985(3) 0.7286(3) 0.3232(2)
H21_2 H 0.6911 0.6975 0.3740
C22_2 C 0.7310(3) 0.7401(3) 0.1887(2)
H22_2 H 0.7508 0.7175 0.1281
C23_2 C 0.6959(3) 0.8585(3) 0.2357(2)
H23_2 H 0.6873 0.9314 0.2140
C24_2 C 0.6226(3) 0.9483(3) 0.3936(2)
H24_2 H 0.6365 0.9246 0.4522
H25_2 H 0.5290 0.9471 0.3716
C25_2 C 0.6833(3) 1.0858(3) 0.4151(2)
H26_2 H 0.6681 1.1112 0.3572
H27_2 H 0.7770 1.0879 0.4370
N1_2 N 0.6835(2) 1.4385(2) 0.31291(16)
N2_2 N 0.6554(2) 1.3719(2) 0.43323(16)
N3A N 1.2254(2) -0.2718(2) -0.15968(17)
N3_2 N 0.7746(2) 1.2718(2) 0.15968(17)
N4A N 1.1573(2) -0.0744(2) -0.11999(17)
N5_2 N 0.7332(2) 0.6580(2) 0.24413(16)
N5_3 N 0.7332(2) 1.6580(2) 0.24413(16)
N6_2 N 0.6752(2) 0.8498(2) 0.32162(17)
O3_2 O 0.5557(2) 1.4372(2) 0.09271(18)
O5_2 O 0.9799(2) 1.5417(3) 0.33685(18)
O11_2 O 0.8909(3) 1.4885(3) 0.12380(19)
H28_2 H 0.527(4) 1.507(4) 0.100(3)
H29_2 H 0.580(4) 1.417(4) 0.044(3)
H30_2 H 0.965(4) 1.582(4) 0.385(3)
H31_2 H 1.020(4) 1.487(4) 0.347(3)
H36_2 H 0.935(5) 1.581(5) 0.138(4)
H37_2 H 0.958(9) 1.410(9) 0.107(7)
C1 C 1.0596(3) 0.0183(3) 0.3932(2)
H1 H 1.0071 0.0578 0.4358
C2 C 1.1444(2) 0.0941(2) 0.36818(19)
C3 C 1.2258(2) 0.0357(2) 0.30230(18)
C4 C 1.3128(3) 0.1105(3) 0.2718(2)
H2 H 1.3201 0.2014 0.2967
C5 C 1.3849(3) 0.0520(3) 0.2072(2)
H3 H 1.4404 0.1030 0.1877
C6 C 1.3770(3) -0.0846(3) 0.1692(2)
H4 H 1.4269 -0.1235 0.1245
C7 C 1.2964(3) -0.1615(3) 0.19739(18)
C8 C 1.2162(2) -0.1030(2) 0.26457(17)
C9 C 1.1280(3) -0.1785(3) 0.2935(2)
H5 H 1.1227 -0.2695 0.2702
C10 C 1.0511(3) -0.1184(3) 0.3553(2)
H6 H 0.9921 -0.1688 0.3724
O1 O 1.0597(2) 0.2906(2) 0.48408(17)
O2 O 1.2881(2) 0.3034(2) 0.47259(14)
O4 O 1.1212(3) 0.3235(2) 0.34437(16)
O6 O 1.3223(3) -0.3858(2) 0.22643(18)
O8 O 1.3898(3) -0.3565(2) 0.08869(18)
O10 O 1.1597(3) -0.3753(2) 0.09281(18)
S1 S 1.15484(7) 0.26722(6) 0.42253(5)
S2 S 1.29082(8) -0.33388(7) 0.14744(5)
O7 O 1.1677(3) 0.3704(3) 0.1790(3)
H32 H 1.198(5) 0.440(5) 0.190(4)
H33 H 1.182(5) 0.361(5) 0.229(4)
O9 O 1.3257(4) 0.2532(3) 0.0434(2)
H34 H 1.277(5) 0.284(5) 0.082(4)
H35 H 1.386(5) 0.311(5) 0.065(4)
loop_
_geom_bond_atom_site_label_1
_geom_bond_atom_site_label_2
_geom_bond_site_symmetry_1
_geom_bond_site_symmetry_2
Cu1 N1 1_555 1_555
C1 H1 1_555 1_555
C2 C1 1_555 1_555
C3 C2 1_555 1_555
C4 C3 1_555 1_555
H2 C4 1_555 1_555
C5 C4 1_555 1_555
H3 C5 1_555 1_555
C6 C5 1_555 1_555
H4 C6 1_555 1_555
C7 C6 1_555 1_555
C8 C3 1_555 1_555
C9 C8 1_555 1_555
H5 C9 1_555 1_555
C10 C1 1_555 1_555
H6 C10 1_555 1_555
C11 H7 1_555 1_555
C12 C11 1_555 1_555
H8 C12 1_555 1_555
C13 H9 1_555 1_555
C14 H10 1_555 1_555
H11 C14 1_555 1_555
C15 C14 1_555 1_555
H12 C15 1_555 1_555
H13 C15 1_555 1_555
C16 H14 1_555 1_555
C17 H15 1_555 1_555
C18 C17 1_555 1_555
H16 C18 1_555 1_555
C19 H17 1_555 1_555
H18 C19 1_555 1_555
C20 C19 1_555 1_555
H19 C20 1_555 1_555
H20 C20 1_555 1_555
C21 H21 1_555 1_555
C22 H22 1_555 1_555
C23 C22 1_555 1_555
H23 C23 1_555 1_555
C24 H24 1_555 1_555
H25 C24 1_555 1_555
C25 C15 1_555 1_555
H26 C25 1_555 1_555
H27 C25 1_555 1_555
N1 C11 1_555 1_555
N2 C12 1_555 1_555
N3 Cu1 1_555 1_555
N4 C16 1_555 1_555
N5 C21 1_555 1_555
N6 C21 1_555 1_555
O1 S1 1_555 1_555
O2 S1 1_555 1_555
O3 Cu1 1_555 1_555
O4 S1 1_555 1_555
O5 Cu1 1_555 1_555
O6 S2 1_555 1_555
O7 H32 1_555 1_555
O8 S2 1_555 1_555
O9 H34 1_555 1_555
O10 S2 1_555 1_555
O11 Cu1 1_555 1_555
S1 C2 1_555 1_555
S2 C7 1_555 1_555
H28 O3 1_555 1_555
H29 O3 1_555 1_555
H30 O5 1_555 1_555
H31 O5 1_555 1_555
H33 O7 1_555 1_555
H35 O9 1_555 1_555
H36 O11 1_555 1_555
H37 O11 1_555 1_555
Cu1_2 N1_2 1_555 1_555
Cu1_3 N5 1_555 1_555
Cu1A N3A 1_555 1_555
C11_2 H7_2 1_555 1_555
C12_2 C11_2 1_555 1_555
H8_2 C12_2 1_555 1_555
C13_2 H9_2 1_555 1_555
C14_2 H10_2 1_555 1_555
H11_2 C14_2 1_555 1_555
C15_2 C14_2 1_555 1_555
H12_2 C15_2 1_555 1_555
H13_2 C15_2 1_555 1_555
C16A H14A 1_555 1_555
C17A H15A 1_555 1_555
C18A C17A 1_555 1_555
H16A C18A 1_555 1_555
C19A H17A 1_555 1_555
H18A C19A 1_555 1_555
C20A C20 1_555 1_555
H19A C20A 1_555 1_555
H20A C20A 1_555 1_555
C21_2 H21_2 1_555 1_555
C22_2 H22_2 1_555 1_555
C23_2 C22_2 1_555 1_555
H23_2 C23_2 1_555 1_555
C24_2 H24_2 1_555 1_555
H25_2 C24_2 1_555 1_555
C25_2 C15_2 1_555 1_555
H26_2 C25_2 1_555 1_555
H27_2 C25_2 1_555 1_555
N1_2 C11_2 1_555 1_555
N2_2 C12_2 1_555 1_555
N3A C16A 1_555 1_555
N3_2 Cu1_2 1_555 1_555
N4A C16A 1_555 1_555
N5_2 Cu1 1_555 1_555
N5_3 Cu1_2 1_555 1_555
N6_2 C21_2 1_555 1_555
O3_2 Cu1_2 1_555 1_555
O5_2 Cu1_2 1_555 1_555
O11_2 Cu1_2 1_555 1_555
H28_2 O3_2 1_555 1_555
H29_2 O3_2 1_555 1_555
H30_2 O5_2 1_555 1_555
H31_2 O5_2 1_555 1_555
H36_2 O11_2 1_555 1_555
H37_2 O11_2 1_555 1_555
C7 C8 1_555 1_555
C9 C10 1_555 1_555
C13 N1 1_555 1_555
C13 N2 1_555 1_555
C14 N2 1_555 1_555
C16 N3 1_555 1_555
C17 N3 1_555 1_555
C18 N4 1_555 1_555
C19 N4 1_555 1_555
C22 N5 1_555 1_555
C23 N6 1_555 1_555
C24 C25 1_555 1_555
C24 N6 1_555 1_555
C13_2 N1_2 1_555 1_555
C13_2 N2_2 1_555 1_555
C14_2 N2_2 1_555 1_555
C17A N3A 1_555 1_555
C18A N4A 1_555 1_555
C19A C20A 1_555 1_555
C19A N4A 1_555 1_555
C21_2 N5_2 1_555 1_555
C22_2 N5_2 1_555 1_555
C23_2 N6_2 1_555 1_555
C24_2 C25_2 1_555 1_555
C24_2 N6_2 1_555 1_555

#END
