
#######################################################################
#
#                 Cambridge Crystallographic Data Centre
#                                CCDC 
#
#######################################################################
#
# If this CIF has been generated from an entry in the Cambridge 
# Structural Database, then it will include bibliographic, chemical, 
# crystal, experimental, refinement or atomic coordinate data resulting 
# from the CCDC's data processing and validation procedures.
#
#######################################################################

data_QIYSOH
_symmetry_cell_setting           triclinic
_symmetry_space_group_name_H-M   'P -1'
_symmetry_Int_Tables_number      2
_space_group_name_Hall           '-P 1'
loop_
_symmetry_equiv_pos_site_id
_symmetry_equiv_pos_as_xyz
1 x,y,z
2 -x,-y,-z
_cell_length_a                   7.6998(17)
_cell_length_b                   9.434(2)
_cell_length_c                   10.527(2)
_cell_angle_alpha                114.725(3)
_cell_angle_beta                 90.979(3)
_cell_angle_gamma                96.368(4)
_cell_volume                     688.585
loop_
_atom_site_label
_atom_site_type_symbol
_atom_site_fract_x
_atom_site_fract_y
_atom_site_fract_z
Fe1 Fe 0.5000 0.0000 0.5000
C1 C 0.3417(4) 0.2986(3) 0.4950(3)
C2 C 0.8122(4) 0.2692(3) 0.6604(3)
H1 H 0.7523 0.3440 0.6489
C3 C 0.8873(4) 0.0604(4) 0.6504(4)
H2 H 0.8867 -0.0463 0.6270
C4 C 0.3362(4) -0.0707(4) 0.7462(3)
H3 H 0.3109 -0.1778 0.6889
C5 C 0.4159(4) 0.1705(4) 0.8219(3)
H4 H 0.4594 0.2679 0.8247
C6 C 1.0690(4) 0.4533(4) 0.8118(3)
H5 H 1.0148 0.5344 0.7981
H6 H 1.1846 0.4515 0.7765
C7 C 1.0863(4) 0.4931(3) 0.9670(3)
H7 H 1.1414 0.4121 0.9802
H8 H 1.1623 0.5919 1.0147
C8 C 0.2290(4) -0.0758(4) 0.9679(4)
H9 H 0.2798 -0.0176 1.0633
H10 H 0.2571 -0.1826 0.9345
C9 C 0.0298(4) -0.0791(4) 0.9676(4)
H11 H -0.0197 -0.1329 0.8715
H12 H -0.0158 -0.1397 1.0176
N1 N 0.4279(3) 0.2209(3) 0.5201(3)
N2 N 0.7569(3) 0.1167(3) 0.6065(3)
N3 N 0.9636(3) 0.3005(3) 0.7322(3)
N4 N 1.0147(3) 0.1666(3) 0.7282(3)
N5 N 0.4065(3) 0.0356(3) 0.7045(3)
N6 N 0.3067(3) -0.0040(3) 0.8806(3)
N7 N 0.3585(3) 0.1533(3) 0.9324(3)
Se1 Se 0.19512(5) 0.41183(4) 0.45579(4)
Fe1_2 Fe 1.5000 1.0000 1.5000
Fe1_3 Fe -0.5000 0.0000 1.5000
C1A C 0.6583(4) -0.2986(3) 0.5050(3)
C2A C 1.1878(4) 0.7308(3) 1.3396(3)
H1A H 1.2477 0.6560 1.3511
C3A C 1.1127(4) 0.9396(4) 1.3496(4)
H2A H 1.1133 1.0463 1.3730
C4A C -0.3362(4) 0.0707(4) 1.2538(3)
H3A H -0.3109 0.1778 1.3111
C5A C -0.4159(4) -0.1705(4) 1.1781(3)
H4A H -0.4594 -0.2679 1.1753
C6A C 0.9310(4) 0.5467(4) 1.1882(3)
H5A H 0.9852 0.4656 1.2019
H6A H 0.8154 0.5485 1.2235
C7A C 0.9137(4) 0.5069(3) 1.0330(3)
H7A H 0.8586 0.5879 1.0198
H8A H 0.8377 0.4081 0.9853
C8A C -0.2290(4) 0.0758(4) 1.0321(4)
H9A H -0.2798 0.0176 0.9367
H10A H -0.2571 0.1826 1.0655
C9A C -0.0298(4) 0.0791(4) 1.0324(4)
H11A H 0.0197 0.1329 1.1285
H12A H 0.0158 0.1397 0.9824
N1A N 0.5721(3) -0.2209(3) 0.4799(3)
N2A N 1.2431(3) 0.8833(3) 1.3935(3)
N2A_2 N 0.2431(3) -0.1167(3) 0.3935(3)
N3A N 1.0364(3) 0.6995(3) 1.2678(3)
N4A N 0.9853(3) 0.8334(3) 1.2718(3)
N5A N -0.4065(3) -0.0356(3) 1.2955(3)
N5A_2 N 0.5935(3) -0.0356(3) 0.2955(3)
N6A N -0.3067(3) 0.0040(3) 1.1194(3)
N7A N -0.3585(3) -0.1533(3) 1.0676(3)
Se1A Se 0.80488(5) -0.41183(4) 0.54421(4)
O1 O 0.4927(5) 0.4226(5) 0.1917(4)
H13 H 0.5309 0.5324 0.2142
H14 H 0.4534 0.3541 0.0950
loop_
_geom_bond_atom_site_label_1
_geom_bond_atom_site_label_2
_geom_bond_site_symmetry_1
_geom_bond_site_symmetry_2
Fe1 N1 1_555 1_555
C1 N1 1_555 1_555
C2 H1 1_555 1_555
C3 H2 1_555 1_555
C4 H3 1_555 1_555
C5 H4 1_555 1_555
C6 H5 1_555 1_555
H6 C6 1_555 1_555
C7 C6 1_555 1_555
H7 C7 1_555 1_555
H8 C7 1_555 1_555
C8 H9 1_555 1_555
H10 C8 1_555 1_555
C9 C8 1_555 1_555
H11 C9 1_555 1_555
H12 C9 1_555 1_555
N2 Fe1 1_555 1_555
N3 C2 1_555 1_555
N4 C3 1_555 1_555
N5 Fe1 1_555 1_555
N6 C4 1_555 1_555
N7 C5 1_555 1_555
O1 H13 1_555 1_555
H14 O1 1_555 1_555
Se1 C1 1_555 1_555
Fe1_2 N2A 1_555 1_555
Fe1_3 N5A 1_555 1_555
C1A N1A 1_555 1_555
C2A H1A 1_555 1_555
C3A H2A 1_555 1_555
C4A H3A 1_555 1_555
C5A H4A 1_555 1_555
C6A H5A 1_555 1_555
H6A C6A 1_555 1_555
C7A C7 1_555 1_555
H7A C7A 1_555 1_555
H8A C7A 1_555 1_555
C8A H9A 1_555 1_555
H10A C8A 1_555 1_555
C9A C9 1_555 1_555
H11A C9A 1_555 1_555
H12A C9A 1_555 1_555
N1A Fe1 1_555 1_555
N2A C2A 1_555 1_555
N2A_2 Fe1 1_555 1_555
N3A C2A 1_555 1_555
N4A C3A 1_555 1_555
N5A C4A 1_555 1_555
N5A_2 Fe1 1_555 1_555
N6A C4A 1_555 1_555
N7A C5A 1_555 1_555
Se1A C1A 1_555 1_555
C2 N2 1_555 1_555
C3 N2 1_555 1_555
C4 N5 1_555 1_555
C5 N5 1_555 1_555
C6 N3 1_555 1_555
C8 N6 1_555 1_555
N3 N4 1_555 1_555
N6 N7 1_555 1_555
C3A N2A 1_555 1_555
C5A N5A 1_555 1_555
C6A C7A 1_555 1_555
C6A N3A 1_555 1_555
C8A C9A 1_555 1_555
C8A N6A 1_555 1_555
N3A N4A 1_555 1_555
N6A N7A 1_555 1_555

#END
