
#######################################################################
#
#                 Cambridge Crystallographic Data Centre
#                                CCDC 
#
#######################################################################
#
# If this CIF has been generated from an entry in the Cambridge 
# Structural Database, then it will include bibliographic, chemical, 
# crystal, experimental, refinement or atomic coordinate data resulting 
# from the CCDC's data processing and validation procedures.
#
#######################################################################

data_QIYSAT
_symmetry_cell_setting           rhombohedral
_symmetry_space_group_name_H-M   'R -3'
_symmetry_Int_Tables_number      148
_space_group_name_Hall           '-R 3'
loop_
_symmetry_equiv_pos_site_id
_symmetry_equiv_pos_as_xyz
1 x,y,z
2 -y,x-y,z
3 -x+y,-x,z
4 2/3+x,1/3+y,1/3+z
5 2/3-y,1/3+x-y,1/3+z
6 2/3-x+y,1/3-x,1/3+z
7 1/3+x,2/3+y,2/3+z
8 1/3-y,2/3+x-y,2/3+z
9 1/3-x+y,2/3-x,2/3+z
10 -x,-y,-z
11 y,-x+y,-z
12 x-y,x,-z
13 1/3-x,2/3-y,2/3-z
14 1/3+y,2/3-x+y,2/3-z
15 1/3+x-y,2/3+x,2/3-z
16 2/3-x,1/3-y,1/3-z
17 2/3+y,1/3-x+y,1/3-z
18 2/3+x-y,1/3+x,1/3-z
_cell_length_a                   19.0617(12)
_cell_length_b                   19.0617(12)
_cell_length_c                   25.3297(13)
_cell_angle_alpha                90
_cell_angle_beta                 90
_cell_angle_gamma                120.00
_cell_volume                     7970.47
loop_
_atom_site_label
_atom_site_type_symbol
_atom_site_fract_x
_atom_site_fract_y
_atom_site_fract_z
Fe1 Fe 0.0000 0.0000 0.83735(4)
C1 C -0.0999(3) 0.0807(3) 0.88664(19)
H1 H -0.1399 0.0584 0.8609
C2 C 0.0024(3) 0.1138(3) 0.9320(2)
H2 H 0.0505 0.1185 0.9442
C3 C -0.3465(3) 0.2049(3) 1.0838(2)
H3 H -0.3948 0.2000 1.0716
C4 C -0.2409(3) 0.2451(3) 1.12517(18)
H4 H -0.1974 0.2728 1.1480
C7 C -0.1560(3) 0.1562(3) 0.9346(2)
H7 H -0.1954 0.1372 0.9061
H8 H -0.1261 0.2149 0.9332
C8 C -0.2005(3) 0.1300(3) 0.98642(19)
H9 H -0.2194 0.0728 0.9915
H10 H -0.2477 0.1365 0.9846
C9 C -0.1950(3) 0.1539(3) 1.0855(2)
H11 H -0.2274 0.0953 1.0878
H12 H -0.1560 0.1723 1.1141
C10 C -0.1501(3) 0.1763(3) 1.03386(19)
H13 H -0.1045 0.1673 1.0367
H14 H -0.1286 0.2337 1.0277
N1 N -0.0357(2) 0.0706(2) 0.88872(14)
N2 N -0.0994(2) 0.1261(2) 0.92567(16)
N3 N -0.0330(3) 0.1489(3) 0.95566(17)
N4 N -0.3020(2) 0.2585(2) 1.12161(15)
N5 N -0.2483(2) 0.1882(2) 1.09272(15)
N6 N -0.3178(3) 0.1604(3) 1.06540(18)
Fe1F Fe 0.3333 -0.3333 0.50402(4)
Fe1C Fe -0.3333 0.3333 1.17068(4)
Fe1C_2 Fe -0.3333 -0.6667 1.17068(4)
Fe1C_3 Fe 0.6667 0.3333 1.17068(4)
Fe1F_2 Fe 0.3333 0.6667 0.50402(4)
Fe1F_3 Fe -0.6667 -0.3333 0.50402(4)
C1A C -0.0807(3) -0.1806(4) 0.88664(19)
C1B C 0.1806(4) 0.0999(3) 0.88664(19)
C1F C 0.2334(3) -0.2526(3) 0.55331(19)
C1G C 0.2526(3) 0.4861(4) 0.55331(19)
C1H C -0.4861(4) -0.2334(3) 0.55331(19)
H1A H -0.0584 -0.1983 0.8609
H1B H 0.1983 0.1399 0.8609
H1F H 0.1934 -0.2749 0.5276
H1G H 0.2749 0.4684 0.5276
H1H H -0.4684 -0.1934 0.5276
C2A C -0.1138(3) -0.1114(4) 0.9320(2)
C2B C 0.1114(4) -0.0024(3) 0.9320(2)
C2F C 0.3357(3) -0.2195(3) 0.5987(2)
C2G C 0.2195(3) 0.5553(4) 0.5987(2)
C2H C -0.5553(4) -0.3357(3) 0.5987(2)
H2A H -0.1185 -0.0680 0.9442
H2B H 0.0680 -0.0505 0.9442
H2F H 0.3838 -0.2148 0.6109
H2G H 0.2148 0.5987 0.6109
H2H H -0.5987 -0.3838 0.6109
C3A C -0.2049(3) -0.5514(4) 1.0838(2)
C3B C 0.5514(4) 0.3465(3) 1.0838(2)
C3F C -0.0132(3) -0.1284(3) 0.7505(2)
C3G C 0.1284(3) 0.1153(4) 0.7505(2)
C3H C -0.1153(4) 0.0132(3) 0.7505(2)
H3A H -0.2000 -0.5948 1.0716
H3B H 0.5948 0.3948 1.0716
H3F H -0.0615 -0.1333 0.7383
H3G H 0.1333 0.0719 0.7383
H3H H -0.0719 0.0615 0.7383
C4A C -0.2451(3) -0.4860(4) 1.12517(18)
C4B C 0.4860(4) 0.2409(3) 1.12517(18)
C4F C 0.0924(3) -0.0882(3) 0.79184(18)
C4G C 0.0882(3) 0.1807(4) 0.79184(18)
C4H C -0.1807(4) -0.0924(3) 0.79184(18)
H4A H -0.2728 -0.4702 1.1480
H4B H 0.4702 0.1974 1.1480
H4F H 0.1359 -0.0605 0.8147
H4G H 0.0605 0.1965 0.8147
H4H H -0.1965 -0.1359 0.8147
C7A C -0.1562(3) -0.3122(4) 0.9346(2)
C7B C 0.3122(4) 0.1560(3) 0.9346(2)
C7F C 0.1773(3) -0.1771(3) 0.6013(2)
C7G C 0.1771(3) 0.3545(4) 0.6013(2)
C7H C -0.3545(4) -0.1773(3) 0.6013(2)
H7A H -0.1372 -0.3326 0.9061
H7B H 0.3326 0.1954 0.9061
H7F H 0.1379 -0.1961 0.5728
H7G H 0.1961 0.3341 0.5728
H7H H -0.3341 -0.1379 0.5728
H8A H -0.2149 -0.3410 0.9332
H8B H 0.3410 0.1261 0.9332
H8F H 0.2072 -0.1184 0.5999
H8G H 0.1184 0.3257 0.5999
H8H H -0.3257 -0.2072 0.5999
C8A C -0.1300(3) -0.3305(4) 0.98642(19)
C8B C 0.3305(4) 0.2005(3) 0.98642(19)
C8F C 0.1328(3) -0.2033(3) 0.65309(19)
C8G C 0.2033(3) 0.3362(4) 0.65309(19)
C8H C -0.3362(4) -0.1328(3) 0.65309(19)
H9A H -0.0728 -0.2922 0.9915
H9B H 0.2922 0.2194 0.9915
H9F H 0.1139 -0.2605 0.6582
H9G H 0.2605 0.3745 0.6582
H9H H -0.3745 -0.1139 0.6582
H10A H -0.1365 -0.3842 0.9846
H10B H 0.3842 0.2477 0.9846
H10F H 0.0856 -0.1968 0.6513
H10G H 0.1968 0.2825 0.6513
H10H H -0.2825 -0.0856 0.6513
C9A C -0.1539(3) -0.3489(4) 1.0855(2)
C9B C 0.3489(4) 0.1950(3) 1.0855(2)
C9F C 0.1383(3) -0.1794(3) 0.7522(2)
C9G C 0.1794(3) 0.3178(4) 0.7522(2)
C9H C -0.3178(4) -0.1383(3) 0.7522(2)
H11A H -0.0953 -0.3227 1.0878
H11B H 0.3227 0.2274 1.0878
H11F H 0.1059 -0.2380 0.7545
H11G H 0.2380 0.3440 0.7545
H11H H -0.3440 -0.1059 0.7545
H12A H -0.1723 -0.3283 1.1141
H12B H 0.3283 0.1560 1.1141
H12F H 0.1773 -0.1610 0.7808
H12G H 0.1610 0.3384 0.7808
H12H H -0.3384 -0.1773 0.7808
C10A C -0.1763(3) -0.3264(4) 1.03386(19)
C10B C 0.3264(4) 0.1501(3) 1.03386(19)
C10F C 0.1832(3) -0.1570(3) 0.70053(19)
C10G C 0.1570(3) 0.3403(4) 0.70053(19)
C10H C -0.3403(4) -0.1832(3) 0.70053(19)
H13A H -0.1673 -0.2718 1.0367
H13B H 0.2718 0.1045 1.0367
H13F H 0.2288 -0.1660 0.7034
H13G H 0.1660 0.3949 0.7034
H13H H -0.3949 -0.2288 0.7034
H14A H -0.2337 -0.3623 1.0277
H14B H 0.3623 0.1286 1.0277
H14F H 0.2047 -0.0996 0.6944
H14G H 0.0996 0.3044 0.6944
H14H H -0.3044 -0.2047 0.6944
N1A N -0.0706(2) -0.1063(3) 0.88872(14)
N1B N 0.1063(3) 0.0357(2) 0.88872(14)
N1F N 0.2976(2) -0.2627(2) 0.55539(14)
N1G N 0.2627(2) 0.5604(3) 0.55539(14)
N1H N -0.5604(3) -0.2976(2) 0.55539(14)
N1C N 0.6310(2) 0.4039(2) 1.22205(14)
N1D N 0.5961(2) 0.2270(3) 1.22205(14)
N1E N 0.7730(3) 0.3690(2) 1.22205(14)
N2A N -0.1261(2) -0.2255(3) 0.92567(16)
N2B N 0.2255(3) 0.0994(2) 0.92567(16)
N2F N 0.2339(2) -0.2072(2) 0.59234(16)
N2G N 0.2072(2) 0.4412(3) 0.59234(16)
N2H N -0.4412(3) -0.2339(2) 0.59234(16)
N3A N -0.1489(3) -0.1819(4) 0.95566(17)
N3B N 0.1819(4) 0.0330(3) 0.95566(17)
N3F N 0.3003(3) -0.1844(3) 0.62233(17)
N3G N 0.1844(3) 0.4848(4) 0.62233(17)
N3H N -0.4848(4) -0.3003(3) 0.62233(17)
N4A N -0.2585(2) -0.5605(3) 1.12161(15)
N4B N 0.5605(3) 0.3020(2) 1.12161(15)
N4F N 0.0313(2) -0.0748(2) 0.78828(15)
N4G N 0.0748(2) 0.1062(3) 0.78828(15)
N4H N -0.1062(3) -0.0313(2) 0.78828(15)
N4_2 N 0.6980(2) 0.2585(2) 1.12161(15)
N4A_2 N 0.7415(2) 0.4395(3) 1.12161(15)
N5A N -0.1882(2) -0.4365(3) 1.09272(15)
N5B N 0.4365(3) 0.2483(2) 1.09272(15)
N5F N 0.0850(2) -0.1451(2) 0.75939(15)
N5G N 0.1451(2) 0.2302(3) 0.75939(15)
N5H N -0.2302(3) -0.0850(2) 0.75939(15)
N6A N -0.1604(3) -0.4782(4) 1.06540(18)
N6B N 0.4782(4) 0.3178(3) 1.06540(18)
N6F N 0.0155(3) -0.1729(3) 0.73207(18)
N6G N 0.1729(3) 0.1885(4) 0.73207(18)
N6H N -0.1885(4) -0.0155(3) 0.73207(18)
Fe2 Fe 0.0000 0.0000 0.5000
C5 C 0.1678(3) 0.0473(3) 0.5517(2)
H5 H 0.1954 0.0846 0.5250
C6 C 0.0804(3) -0.0452(3) 0.5966(2)
H6 H 0.0307 -0.0880 0.6074
C11 C 0.2855(3) 0.0879(3) 0.6117(2)
H15 H 0.3188 0.1221 0.5831
H16 H 0.3057 0.0522 0.6218
C12 C 0.2904(3) 0.1398(3) 0.6582(2)
H17 H 0.2667 0.1727 0.6486
H18 H 0.2595 0.1052 0.6874
N7 N 0.0888(2) -0.0056(2) 0.55104(17)
N8 N 0.2018(2) 0.0402(3) 0.59433(18)
N9 N 0.1458(3) -0.0201(3) 0.6251(2)
Fe2C Fe 0.6667 0.3333 0.8333
Fe2C_2 Fe -0.3333 0.3333 0.8333
Fe2C_3 Fe -0.3333 -0.6667 0.8333
Fe2F Fe -0.6667 -0.3333 0.1667
Fe2F_2 Fe 0.3333 -0.3333 0.1667
Fe2F_3 Fe 0.3333 0.6667 0.1667
C5O C 0.4989(3) 0.2860(3) 0.7816(2)
C5A C -0.0473(3) 0.1205(4) 0.5517(2)
C5P C -0.2860(3) 0.2128(4) 0.7816(2)
C5B C -0.1205(4) -0.1678(3) 0.5517(2)
C5Q C -0.2128(4) -0.4989(3) 0.7816(2)
C5I C -0.1678(3) -0.0473(3) 0.4483(2)
C5J C 0.0473(3) -0.1205(4) 0.4483(2)
C5K C 0.1205(4) 0.1678(3) 0.4483(2)
C5F C -0.4989(3) -0.2860(3) 0.2184(2)
C5G C 0.2860(3) -0.2128(4) 0.2184(2)
C5H C 0.2128(4) 0.4989(3) 0.2184(2)
H5O H 0.4713 0.2487 0.8083
H5A H -0.0846 0.1108 0.5250
H5P H -0.2487 0.2225 0.8083
H5B H -0.1108 -0.1954 0.5250
H5Q H -0.2225 -0.4713 0.8083
H5I H -0.1954 -0.0846 0.4750
H5J H 0.0846 -0.1108 0.4750
H5K H 0.1108 0.1954 0.4750
H5F H -0.4713 -0.2487 0.1917
H5G H 0.2487 -0.2225 0.1917
H5H H 0.2225 0.4713 0.1917
C6O C 0.5863(3) 0.3785(3) 0.7367(2)
C6A C 0.0452(3) 0.1256(4) 0.5966(2)
C6P C -0.3785(3) 0.2077(4) 0.7367(2)
C6B C -0.1256(4) -0.0804(3) 0.5966(2)
C6Q C -0.2077(4) -0.5863(3) 0.7367(2)
C6I C -0.0804(3) 0.0452(3) 0.4034(2)
C6J C -0.0452(3) -0.1256(4) 0.4034(2)
C6K C 0.1256(4) 0.0804(3) 0.4034(2)
C6F C -0.5863(3) -0.3785(3) 0.2633(2)
C6G C 0.3785(3) -0.2077(4) 0.2633(2)
C6H C 0.2077(4) 0.5863(3) 0.2633(2)
H6O H 0.6360 0.4213 0.7259
H6A H 0.0880 0.1187 0.6074
H6P H -0.4213 0.2146 0.7259
H6B H -0.1187 -0.0307 0.6074
H6Q H -0.2146 -0.6360 0.7259
H6I H -0.0307 0.0880 0.3926
H6J H -0.0880 -0.1187 0.3926
H6K H 0.1187 0.0307 0.3926
H6F H -0.6360 -0.4213 0.2741
H6G H 0.4213 -0.2146 0.2741
H6H H 0.2146 0.6360 0.2741
C11O C 0.3812(3) 0.2454(3) 0.7216(2)
C11A C -0.0879(3) 0.1976(4) 0.6117(2)
C11P C -0.2454(3) 0.1357(4) 0.7216(2)
C11B C -0.1976(4) -0.2855(3) 0.6117(2)
C11Q C -0.1357(4) -0.3812(3) 0.7216(2)
C11I C -0.2855(3) -0.0879(3) 0.3883(2)
C11J C 0.0879(3) -0.1976(4) 0.3883(2)
C11K C 0.1976(4) 0.2855(3) 0.3883(2)
C11F C -0.3812(3) -0.2454(3) 0.2784(2)
C11G C 0.2454(3) -0.1357(4) 0.2784(2)
C11H C 0.1357(4) 0.3812(3) 0.2784(2)
H15O H 0.3479 0.2112 0.7502
H15A H -0.1221 0.1967 0.5831
H15P H -0.2112 0.1366 0.7502
H15B H -0.1967 -0.3188 0.5831
H15Q H -0.1366 -0.3479 0.7502
H15I H -0.3188 -0.1221 0.4169
H15J H 0.1221 -0.1967 0.4169
H15K H 0.1967 0.3188 0.4169
H15F H -0.3479 -0.2112 0.2498
H15G H 0.2112 -0.1366 0.2498
H15H H 0.1366 0.3479 0.2498
H16O H 0.3610 0.2811 0.7115
H16A H -0.0522 0.2535 0.6218
H16P H -0.2811 0.0798 0.7115
H16B H -0.2535 -0.3057 0.6218
H16Q H -0.0798 -0.3610 0.7115
H16I H -0.3057 -0.0522 0.3782
H16J H 0.0522 -0.2535 0.3782
H16K H 0.2535 0.3057 0.3782
H16F H -0.3610 -0.2811 0.2885
H16G H 0.2811 -0.0798 0.2885
H16H H 0.0798 0.3610 0.2885
C12O C 0.3763(3) 0.1935(3) 0.6751(2)
C12A C -0.1398(3) 0.1506(4) 0.6582(2)
C12P C -0.1935(3) 0.1827(4) 0.6751(2)
C12B C -0.1506(4) -0.2904(3) 0.6582(2)
C12Q C -0.1827(4) -0.3763(3) 0.6751(2)
C12I C -0.2904(3) -0.1398(3) 0.3418(2)
C12J C 0.1398(3) -0.1506(4) 0.3418(2)
C12K C 0.1506(4) 0.2904(3) 0.3418(2)
C12F C -0.3763(3) -0.1935(3) 0.3249(2)
C12G C 0.1935(3) -0.1827(4) 0.3249(2)
C12H C 0.1827(4) 0.3763(3) 0.3249(2)
H17O H 0.4000 0.1606 0.6847
H17A H -0.1727 0.0940 0.6486
H17P H -0.1606 0.2393 0.6847
H17B H -0.0940 -0.2667 0.6486
H17Q H -0.2393 -0.4000 0.6847
H17I H -0.2667 -0.1727 0.3514
H17J H 0.1727 -0.0940 0.3514
H17K H 0.0940 0.2667 0.3514
H17F H -0.4000 -0.1606 0.3153
H17G H 0.1606 -0.2393 0.3153
H17H H 0.2393 0.4000 0.3153
H18O H 0.4072 0.2281 0.6459
H18A H -0.1052 0.1543 0.6874
H18P H -0.2281 0.1790 0.6459
H18B H -0.1543 -0.2595 0.6874
H18Q H -0.1790 -0.4072 0.6459
H18I H -0.2595 -0.1052 0.3126
H18J H 0.1052 -0.1543 0.3126
H18K H 0.1543 0.2595 0.3126
H18F H -0.4072 -0.2281 0.3541
H18G H 0.2281 -0.1790 0.3541
H18H H 0.1790 0.4072 0.3541
N7O N 0.5779(2) 0.3389(2) 0.78229(17)
N7A N 0.0056(2) 0.0944(3) 0.55104(17)
N7P N -0.3389(2) 0.2389(3) 0.78229(17)
N7B N -0.0944(3) -0.0888(2) 0.55104(17)
N7Q N -0.2389(3) -0.5779(2) 0.78229(17)
N7I N -0.0888(2) 0.0056(2) 0.44896(17)
N7J N -0.0056(2) -0.0944(3) 0.44896(17)
N7K N 0.0944(3) 0.0888(2) 0.44896(17)
N7C N -0.2445(2) -0.6723(2) 0.88437(17)
N7D N -0.3277(2) -0.5723(3) 0.88437(17)
N7E N -0.4277(3) -0.7555(2) 0.88437(17)
N7P_2 N -0.3389(2) -0.7611(3) 0.78229(17)
N7O_2 N -0.4221(2) -0.6611(2) 0.78229(17)
N7F N -0.5779(2) -0.3389(2) 0.21771(17)
N7G N 0.3389(2) -0.2389(3) 0.21771(17)
N7H N 0.2389(3) 0.5779(2) 0.21771(17)
N8O N 0.4649(2) 0.2931(3) 0.73900(18)
N8A N -0.0402(3) 0.1616(4) 0.59433(18)
N8P N -0.2931(3) 0.1717(4) 0.73900(18)
N8B N -0.1616(4) -0.2018(2) 0.59433(18)
N8Q N -0.1717(4) -0.4649(2) 0.73900(18)
N8I N -0.2018(2) -0.0402(3) 0.40567(18)
N8J N 0.0402(3) -0.1616(4) 0.40567(18)
N8K N 0.1616(4) 0.2018(2) 0.40567(18)
N8F N -0.4649(2) -0.2931(3) 0.26100(18)
N8G N 0.2931(3) -0.1717(4) 0.26100(18)
N8H N 0.1717(4) 0.4649(2) 0.26100(18)
N9O N 0.5209(3) 0.3534(3) 0.7082(2)
N9A N 0.0201(3) 0.1659(4) 0.6251(2)
N9P N -0.3534(3) 0.1674(4) 0.7082(2)
N9B N -0.1659(4) -0.1458(3) 0.6251(2)
N9Q N -0.1674(4) -0.5209(3) 0.7082(2)
N9I N -0.1458(3) 0.0201(3) 0.3749(2)
N9J N -0.0201(3) -0.1659(4) 0.3749(2)
N9K N 0.1659(4) 0.1458(3) 0.3749(2)
N9F N -0.5209(3) -0.3534(3) 0.2918(2)
N9G N 0.3534(3) -0.1674(4) 0.2918(2)
N9H N 0.1674(4) 0.5209(3) 0.2918(2)
Cl1 Cl 0.69736(11) 0.02897(11) 0.52753(7)
O1 O 0.7600(3) 0.0160(4) 0.5331(3)
O2 O 0.6849(8) 0.0375(9) 0.5784(5)
O3 O 0.6403(11) -0.0404(11) 0.5038(7)
O4 O 0.7002(6) 0.0734(6) 0.4888(4)
O5? O 0.7116(10) 0.0999(10) 0.5534(9)
O6? O 0.6164(7) -0.0374(8) 0.5343(6)
loop_
_geom_bond_atom_site_label_1
_geom_bond_atom_site_label_2
_geom_bond_site_symmetry_1
_geom_bond_site_symmetry_2
Fe1 N1 1_555 1_555
Fe2 N7 1_555 1_555
C1 H1 1_555 1_555
C2 H2 1_555 1_555
C3 H3 1_555 1_555
C4 H4 1_555 1_555
C5 H5 1_555 1_555
C6 H6 1_555 1_555
C7 H7 1_555 1_555
H8 C7 1_555 1_555
C8 C7 1_555 1_555
H9 C8 1_555 1_555
H10 C8 1_555 1_555
C9 H11 1_555 1_555
H12 C9 1_555 1_555
C10 C8 1_555 1_555
H13 C10 1_555 1_555
H14 C10 1_555 1_555
C11 H15 1_555 1_555
H16 C11 1_555 1_555
C12 C11 1_555 1_555
H17 C12 1_555 1_555
H18 C12 1_555 1_555
N1 C1 1_555 1_555
N2 C1 1_555 1_555
N3 C2 1_555 1_555
N4 C3 1_555 1_555
N5 C4 1_555 1_555
N6 C3 1_555 1_555
N7 C5 1_555 1_555
N8 C5 1_555 1_555
N9 C6 1_555 1_555
Cl1 O1 1_555 1_555
O2 Cl1 1_555 1_555
O3 Cl1 1_555 1_555
O4 Cl1 1_555 1_555
Fe1F N1F 1_555 1_555
Fe1C N4 1_555 1_555
Fe1C_2 N4A 1_555 1_555
Fe1C_3 N1C 1_555 1_555
Fe1F_2 N1G 1_555 1_555
Fe1F_3 N1H 1_555 1_555
Fe2C N7O 1_555 1_555
Fe2C_2 N7P 1_555 1_555
Fe2C_3 N7Q 1_555 1_555
Fe2F N7F 1_555 1_555
Fe2F_2 N7G 1_555 1_555
Fe2F_3 N7H 1_555 1_555
C1A H1A 1_555 1_555
C1B H1B 1_555 1_555
C1F H1F 1_555 1_555
C1G H1G 1_555 1_555
C1H H1H 1_555 1_555
C2A H2A 1_555 1_555
C2B H2B 1_555 1_555
C2F H2F 1_555 1_555
C2G H2G 1_555 1_555
C2H H2H 1_555 1_555
C3A H3A 1_555 1_555
C3B H3B 1_555 1_555
C3F H3F 1_555 1_555
C3G H3G 1_555 1_555
C3H H3H 1_555 1_555
C4A H4A 1_555 1_555
C4B H4B 1_555 1_555
C4F H4F 1_555 1_555
C4G H4G 1_555 1_555
C4H H4H 1_555 1_555
C5O H5O 1_555 1_555
C5A H5A 1_555 1_555
C5P H5P 1_555 1_555
C5B H5B 1_555 1_555
C5Q H5Q 1_555 1_555
C5I H5I 1_555 1_555
C5J H5J 1_555 1_555
C5K H5K 1_555 1_555
C5F H5F 1_555 1_555
C5G H5G 1_555 1_555
C5H H5H 1_555 1_555
C6O H6O 1_555 1_555
C6A H6A 1_555 1_555
C6P H6P 1_555 1_555
C6B H6B 1_555 1_555
C6Q H6Q 1_555 1_555
C6I H6I 1_555 1_555
C6J H6J 1_555 1_555
C6K H6K 1_555 1_555
C6F H6F 1_555 1_555
C6G H6G 1_555 1_555
C6H H6H 1_555 1_555
C7A H7A 1_555 1_555
C7B H7B 1_555 1_555
C7F H7F 1_555 1_555
C7G H7G 1_555 1_555
C7H H7H 1_555 1_555
H8A C7A 1_555 1_555
H8B C7B 1_555 1_555
H8F C7F 1_555 1_555
H8G C7G 1_555 1_555
H8H C7H 1_555 1_555
C8A C7A 1_555 1_555
C8B C7B 1_555 1_555
C8F C7F 1_555 1_555
C8G C7G 1_555 1_555
C8H C7H 1_555 1_555
H9A C8A 1_555 1_555
H9B C8B 1_555 1_555
H9F C8F 1_555 1_555
H9G C8G 1_555 1_555
H9H C8H 1_555 1_555
H10A C8A 1_555 1_555
H10B C8B 1_555 1_555
H10F C8F 1_555 1_555
H10G C8G 1_555 1_555
H10H C8H 1_555 1_555
C9A H11A 1_555 1_555
C9B H11B 1_555 1_555
C9F H11F 1_555 1_555
C9G H11G 1_555 1_555
C9H H11H 1_555 1_555
H12A C9A 1_555 1_555
H12B C9B 1_555 1_555
H12F C9F 1_555 1_555
H12G C9G 1_555 1_555
H12H C9H 1_555 1_555
C10A C8A 1_555 1_555
C10B C8B 1_555 1_555
C10F C8F 1_555 1_555
C10G C8G 1_555 1_555
C10H C8H 1_555 1_555
H13A C10A 1_555 1_555
H13B C10B 1_555 1_555
H13F C10F 1_555 1_555
H13G C10G 1_555 1_555
H13H C10H 1_555 1_555
H14A C10A 1_555 1_555
H14B C10B 1_555 1_555
H14F C10F 1_555 1_555
H14G C10G 1_555 1_555
H14H C10H 1_555 1_555
C11O H15O 1_555 1_555
C11A H15A 1_555 1_555
C11P H15P 1_555 1_555
C11B H15B 1_555 1_555
C11Q H15Q 1_555 1_555
C11I H15I 1_555 1_555
C11J H15J 1_555 1_555
C11K H15K 1_555 1_555
C11F H15F 1_555 1_555
C11G H15G 1_555 1_555
C11H H15H 1_555 1_555
H16O C11O 1_555 1_555
H16A C11A 1_555 1_555
H16P C11P 1_555 1_555
H16B C11B 1_555 1_555
H16Q C11Q 1_555 1_555
H16I C11I 1_555 1_555
H16J C11J 1_555 1_555
H16K C11K 1_555 1_555
H16F C11F 1_555 1_555
H16G C11G 1_555 1_555
H16H C11H 1_555 1_555
C12O C12 1_555 1_555
C12A C11A 1_555 1_555
C12P C11P 1_555 1_555
C12B C11B 1_555 1_555
C12Q C11Q 1_555 1_555
C12I C11I 1_555 1_555
C12J C11J 1_555 1_555
C12K C11K 1_555 1_555
C12F C11F 1_555 1_555
C12G C11G 1_555 1_555
C12H C11H 1_555 1_555
H17O C12O 1_555 1_555
H17A C12A 1_555 1_555
H17P C12P 1_555 1_555
H17B C12B 1_555 1_555
H17Q C12Q 1_555 1_555
H17I C12I 1_555 1_555
H17J C12J 1_555 1_555
H17K C12K 1_555 1_555
H17F C12F 1_555 1_555
H17G C12G 1_555 1_555
H17H C12H 1_555 1_555
H18O C12O 1_555 1_555
H18A C12A 1_555 1_555
H18P C12P 1_555 1_555
H18B C12B 1_555 1_555
H18Q C12Q 1_555 1_555
H18I C12I 1_555 1_555
H18J C12J 1_555 1_555
H18K C12K 1_555 1_555
H18F C12F 1_555 1_555
H18G C12G 1_555 1_555
H18H C12H 1_555 1_555
N1A Fe1 1_555 1_555
N1B Fe1 1_555 1_555
N1F C1F 1_555 1_555
N1G C1G 1_555 1_555
N1H C1H 1_555 1_555
N1D Fe1C_3 1_555 1_555
N1E Fe1C_3 1_555 1_555
N2A C1A 1_555 1_555
N2B C1B 1_555 1_555
N2F C1F 1_555 1_555
N2G C1G 1_555 1_555
N2H C1H 1_555 1_555
N3A C2A 1_555 1_555
N3B C2B 1_555 1_555
N3F C2F 1_555 1_555
N3G C2G 1_555 1_555
N3H C2H 1_555 1_555
N4A C3A 1_555 1_555
N4B Fe1C_3 1_555 1_555
N4F Fe1 1_555 1_555
N4G Fe1 1_555 1_555
N4H Fe1 1_555 1_555
N4_2 Fe1C_3 1_555 1_555
N4A_2 Fe1C_3 1_555 1_555
N5A C4A 1_555 1_555
N5B C4B 1_555 1_555
N5F C4F 1_555 1_555
N5G C4G 1_555 1_555
N5H C4H 1_555 1_555
N6A C3A 1_555 1_555
N6B C3B 1_555 1_555
N6F C3F 1_555 1_555
N6G C3G 1_555 1_555
N6H C3H 1_555 1_555
N7O C5O 1_555 1_555
N7A Fe2 1_555 1_555
N7P C5P 1_555 1_555
N7B Fe2 1_555 1_555
N7Q C5Q 1_555 1_555
N7I Fe2 1_555 1_555
N7J Fe2 1_555 1_555
N7K Fe2 1_555 1_555
N7C Fe2C_3 1_555 1_555
N7D Fe2C_3 1_555 1_555
N7E Fe2C_3 1_555 1_555
N7P_2 Fe2C_3 1_555 1_555
N7O_2 Fe2C_3 1_555 1_555
N7F C5F 1_555 1_555
N7G C5G 1_555 1_555
N7H C5H 1_555 1_555
N8O C5O 1_555 1_555
N8A C5A 1_555 1_555
N8P C5P 1_555 1_555
N8B C5B 1_555 1_555
N8Q C5Q 1_555 1_555
N8I C5I 1_555 1_555
N8J C5J 1_555 1_555
N8K C5K 1_555 1_555
N8F C5F 1_555 1_555
N8G C5G 1_555 1_555
N8H C5H 1_555 1_555
N9O C6O 1_555 1_555
N9A C6A 1_555 1_555
N9P C6P 1_555 1_555
N9B C6B 1_555 1_555
N9Q C6Q 1_555 1_555
N9I C6I 1_555 1_555
N9J C6J 1_555 1_555
N9K C6K 1_555 1_555
N9F C6F 1_555 1_555
N9G C6G 1_555 1_555
N9H C6H 1_555 1_555
C2 N1 1_555 1_555
C4 N4 1_555 1_555
C6 N7 1_555 1_555
C7 N2 1_555 1_555
C9 C10 1_555 1_555
C9 N5 1_555 1_555
C11 N8 1_555 1_555
N2 N3 1_555 1_555
N5 N6 1_555 1_555
N8 N9 1_555 1_555
C1A N1A 1_555 1_555
C1B N1B 1_555 1_555
C2A N1A 1_555 1_555
C2B N1B 1_555 1_555
C2F N1F 1_555 1_555
C2G N1G 1_555 1_555
C2H N1H 1_555 1_555
C3B N4B 1_555 1_555
C3F N4F 1_555 1_555
C3G N4G 1_555 1_555
C3H N4H 1_555 1_555
C4A N4A 1_555 1_555
C4B N4B 1_555 1_555
C4F N4F 1_555 1_555
C4G N4G 1_555 1_555
C4H N4H 1_555 1_555
C5A N7A 1_555 1_555
C5B N7B 1_555 1_555
C5I N7I 1_555 1_555
C5J N7J 1_555 1_555
C5K N7K 1_555 1_555
C6O N7O 1_555 1_555
C6A N7A 1_555 1_555
C6P N7P 1_555 1_555
C6B N7B 1_555 1_555
C6Q N7Q 1_555 1_555
C6I N7I 1_555 1_555
C6J N7J 1_555 1_555
C6K N7K 1_555 1_555
C6F N7F 1_555 1_555
C6G N7G 1_555 1_555
C6H N7H 1_555 1_555
C7A N2A 1_555 1_555
C7B N2B 1_555 1_555
C7F N2F 1_555 1_555
C7G N2G 1_555 1_555
C7H N2H 1_555 1_555
C9A C10A 1_555 1_555
C9A N5A 1_555 1_555
C9B C10B 1_555 1_555
C9B N5B 1_555 1_555
C9F C10F 1_555 1_555
C9F N5F 1_555 1_555
C9G C10G 1_555 1_555
C9G N5G 1_555 1_555
C9H C10H 1_555 1_555
C9H N5H 1_555 1_555
C11O C12O 1_555 1_555
C11O N8O 1_555 1_555
C11A N8A 1_555 1_555
C11P N8P 1_555 1_555
C11B N8B 1_555 1_555
C11Q N8Q 1_555 1_555
C11I N8I 1_555 1_555
C11J N8J 1_555 1_555
C11K N8K 1_555 1_555
C11F N8F 1_555 1_555
C11G N8G 1_555 1_555
C11H N8H 1_555 1_555
C12A C12P 1_555 1_555
C12B C12Q 1_555 1_555
C12I C12F 1_555 1_555
C12J C12G 1_555 1_555
C12K C12H 1_555 1_555
N2A N3A 1_555 1_555
N2B N3B 1_555 1_555
N2F N3F 1_555 1_555
N2G N3G 1_555 1_555
N2H N3H 1_555 1_555
N5A N6A 1_555 1_555
N5B N6B 1_555 1_555
N5F N6F 1_555 1_555
N5G N6G 1_555 1_555
N5H N6H 1_555 1_555
N8O N9O 1_555 1_555
N8A N9A 1_555 1_555
N8P N9P 1_555 1_555
N8B N9B 1_555 1_555
N8Q N9Q 1_555 1_555
N8I N9I 1_555 1_555
N8J N9J 1_555 1_555
N8K N9K 1_555 1_555
N8F N9F 1_555 1_555
N8G N9G 1_555 1_555
N8H N9H 1_555 1_555

#END
