
#######################################################################
#
#                 Cambridge Crystallographic Data Centre
#                                CCDC 
#
#######################################################################
#
# If this CIF has been generated from an entry in the Cambridge 
# Structural Database, then it will include bibliographic, chemical, 
# crystal, experimental, refinement or atomic coordinate data resulting 
# from the CCDC's data processing and validation procedures.
#
#######################################################################

data_QIYXIH
_symmetry_cell_setting           triclinic
_symmetry_space_group_name_H-M   'P -1'
_symmetry_Int_Tables_number      2
_space_group_name_Hall           '-P 1'
loop_
_symmetry_equiv_pos_site_id
_symmetry_equiv_pos_as_xyz
1 x,y,z
2 -x,-y,-z
_cell_length_a                   10.6331(3)
_cell_length_b                   11.3717(3)
_cell_length_c                   18.0884(5)
_cell_angle_alpha                98.0970(10)
_cell_angle_beta                 98.2860(10)
_cell_angle_gamma                113.9710(10)
_cell_volume                     1928.99
loop_
_atom_site_label
_atom_site_type_symbol
_atom_site_fract_x
_atom_site_fract_y
_atom_site_fract_z
Ag1 Ag 0.16774(3) 0.73267(3) 0.377259(19)
Ag2 Ag 0.06903(3) 0.17741(3) 0.095842(18)
S1 S 0.39586(11) 0.23123(10) 0.21068(6)
N1 N 0.3089(3) 0.8471(3) 0.49342(17)
N2 N 0.3422(3) 0.9748(3) 0.52197(17)
N3 N -0.0530(3) 0.7055(3) 0.33706(19)
N4 N -0.1703(4) 0.6007(4) 0.3410(2)
N5 N 0.1524(4) 0.1642(3) -0.00257(18)
N6 N 0.1099(4) 0.1882(3) -0.0700(2)
N7 N 0.1780(3) 0.8170(3) -0.16758(18)
N8 N 0.0498(3) 0.8189(3) -0.17925(19)
O1 O 0.2613(4) 0.6180(3) 0.30641(18)
O2 O 0.3354(4) 0.7676(3) 0.2374(2)
O3 O 0.4701(5) 0.2696(4) 0.2901(2)
O4 O 0.2509(4) 0.1477(3) 0.1959(3)
O5 O 0.4677(4) 0.1796(3) 0.1631(3)
C1 C 0.3190(4) 0.6613(4) 0.2542(2)
C2 C 0.3729(4) 0.5756(3) 0.2093(2)
C3 C 0.3534(4) 0.4540(4) 0.2245(2)
H1 H 0.3016 0.4216 0.2604
C4 C 0.4118(4) 0.3801(4) 0.1858(2)
C5 C 0.4851(5) 0.4261(4) 0.1315(2)
H2 H 0.5227 0.3762 0.1057
C6 C 0.5034(5) 0.5462(4) 0.1150(3)
H3 H 0.5530 0.5772 0.0781
C7 C 0.4469(5) 0.6202(4) 0.1542(2)
H4 H 0.4592 0.7011 0.1431
C8 C 0.3674(4) 0.8094(4) 0.5495(2)
H5 H 0.3620 0.7251 0.5463
C9 C 0.4376(4) 0.9115(5) 0.6135(2)
H6 H 0.4868 0.9096 0.6599
C10 C 0.4188(4) 1.0148(4) 0.5939(2)
H7 H 0.4531 1.0987 0.6249
C11 C 0.2816(4) 1.0460(4) 0.4800(2)
H8 H 0.2770 1.0202 0.4259
H9 H 0.3428 1.1398 0.4967
C12 C 0.1353(3) 1.0202(3) 0.49139(18)
C13 C 0.0535(4) 0.9143(3) 0.51936(19)
H10 H 0.0891 0.8558 0.5326
C14 C 0.0801(4) 1.1062(3) 0.4720(2)
H11 H 0.1335 1.1780 0.4531
C15 C -0.0963(5) 0.7969(5) 0.3240(2)
H12 H -0.0371 0.8806 0.3190
C16 C -0.2359(6) 0.7535(7) 0.3189(3)
H13 H -0.2895 0.7994 0.3096
C17 C -0.2817(5) 0.6301(7) 0.3301(3)
H14 H -0.3743 0.5744 0.3303
C18 C -0.1641(6) 0.4790(5) 0.3512(3)
H15 H -0.1238 0.4505 0.3115
H16 H -0.2593 0.4113 0.3453
C19 C -0.0772(5) 0.4929(4) 0.4288(2)
C20 C -0.1099(5) 0.5349(4) 0.4958(3)
H17 H -0.1839 0.5590 0.4937
C21 C 0.0321(5) 0.4587(4) 0.4335(3)
H18 H 0.0553 0.4307 0.3888
C22 C 0.2553(5) 0.1283(4) -0.0113(3)
H19 H 0.3044 0.1056 0.0266
C23 C 0.2782(7) 0.1297(5) -0.0836(3)
H20 H 0.3435 0.1083 -0.1041
C24 C 0.1867(7) 0.1685(5) -0.1187(3)
H21 H 0.1779 0.1798 -0.1688
C25 C 0.0021(5) 0.2361(5) -0.0811(3)
H22 H -0.0462 0.2241 -0.0393
H23 H -0.0669 0.1838 -0.1282
C26 C 0.0626(4) 0.3805(4) -0.0851(2)
C27 C 0.1630(6) 0.4789(5) -0.0255(3)
H24 H 0.1951 0.4569 0.0187
C28 C 0.2162(5) 0.6092(5) -0.0307(2)
H25 H 0.2847 0.6735 0.0099
C29 C 0.1702(4) 0.6463(4) -0.0946(2)
C30 C 0.0682(5) 0.5477(4) -0.1537(2)
H26 H 0.0338 0.5699 -0.1972
C31 C 0.0167(5) 0.4165(4) -0.1489(2)
H27 H -0.0503 0.3518 -0.1898
C32 C 0.2351(4) 0.7899(4) -0.0976(2)
H28 H 0.2205 0.8400 -0.0543
H29 H 0.3360 0.8203 -0.0923
C33 C 0.2345(4) 0.8395(4) -0.2281(2)
H30 H 0.3213 0.8422 -0.2335
C34 C 0.1431(5) 0.8579(5) -0.2807(3)
H31 H 0.1548 0.8762 -0.3284
C35 C 0.0298(5) 0.8436(4) -0.2485(2)
H32 H -0.0500 0.8503 -0.2720
N1A N -0.3089(3) 1.1529(3) 0.50658(17)
N2A N -0.3422(3) 1.0252(3) 0.47803(17)
C8A C -0.3674(4) 1.1906(4) 0.4505(2)
H5A H -0.3620 1.2749 0.4537
C9A C -0.4376(4) 1.0885(5) 0.3865(2)
H6A H -0.4868 1.0904 0.3401
C10A C -0.4188(4) 0.9852(4) 0.4061(2)
H7A H -0.4531 0.9013 0.3751
C11A C -0.2816(4) 0.9540(4) 0.5200(2)
H8A H -0.2770 0.9798 0.5741
H9A H -0.3428 0.8602 0.5033
C12A C -0.1353(3) 0.9798(3) 0.50861(18)
C13A C -0.0535(4) 1.0857(3) 0.48064(19)
H10A H -0.0891 1.1442 0.4674
C14A C -0.0801(4) 0.8938(3) 0.5280(2)
H11A H -0.1335 0.8220 0.5469
N3A N 0.0530(3) 0.2945(3) 0.66294(19)
N4A N 0.1703(4) 0.3993(4) 0.6590(2)
C15A C 0.0963(5) 0.2031(5) 0.6760(2)
H12A H 0.0371 0.1194 0.6810
C16A C 0.2359(6) 0.2465(7) 0.6811(3)
H13A H 0.2895 0.2006 0.6904
C17A C 0.2817(5) 0.3699(7) 0.6699(3)
H14A H 0.3743 0.4256 0.6697
C18A C 0.1641(6) 0.5210(5) 0.6488(3)
H15A H 0.1238 0.5495 0.6885
H16A H 0.2593 0.5887 0.6547
C19A C 0.0772(5) 0.5071(4) 0.5712(2)
C20A C 0.1099(5) 0.4651(4) 0.5042(3)
H17A H 0.1839 0.4410 0.5063
C21A C -0.0321(5) 0.5413(4) 0.5665(3)
H18A H -0.0553 0.5693 0.6112
Ag1A Ag -0.16774(3) 0.26733(3) -0.377259(19)
Ag2A Ag -0.06903(3) 0.82259(3) -0.095842(18)
S1A S -0.39586(11) 0.76877(10) -0.21068(6)
N5A N -0.1524(4) 0.8358(3) 0.00257(18)
N6A N -0.1099(4) 0.8118(3) 0.0700(2)
N7A N -0.1780(3) 0.1830(3) 0.16758(18)
N8A N -0.0498(3) 0.1811(3) 0.17925(19)
O1A O -0.2613(4) 0.3820(3) -0.30641(18)
O2A O -0.3354(4) 0.2324(3) -0.2374(2)
O3A O -0.4701(5) 0.7304(4) -0.2901(2)
O4A O -0.2509(4) 0.8523(3) -0.1959(3)
O5A O -0.4677(4) 0.8204(3) -0.1631(3)
C1A C -0.3190(4) 0.3387(4) -0.2542(2)
C2A C -0.3729(4) 0.4244(3) -0.2093(2)
C3A C -0.3534(4) 0.5460(4) -0.2245(2)
H1A H -0.3016 0.5784 -0.2604
C4A C -0.4118(4) 0.6199(4) -0.1858(2)
C5A C -0.4851(5) 0.5739(4) -0.1315(2)
H2A H -0.5227 0.6238 -0.1057
C6A C -0.5034(5) 0.4538(4) -0.1150(3)
H3A H -0.5530 0.4228 -0.0781
C7A C -0.4469(5) 0.3798(4) -0.1542(2)
H4A H -0.4592 0.2989 -0.1431
C22A C -0.2553(5) 0.8717(4) 0.0113(3)
H19A H -0.3044 0.8944 -0.0266
C23A C -0.2782(7) 0.8703(5) 0.0836(3)
H20A H -0.3435 0.8917 0.1041
C24A C -0.1867(7) 0.8315(5) 0.1187(3)
H21A H -0.1779 0.8202 0.1688
C25A C -0.0021(5) 0.7639(5) 0.0811(3)
H22A H 0.0462 0.7759 0.0393
H23A H 0.0669 0.8162 0.1282
C26A C -0.0626(4) 0.6195(4) 0.0851(2)
C27A C -0.1630(6) 0.5211(5) 0.0255(3)
H24A H -0.1951 0.5431 -0.0187
C28A C -0.2162(5) 0.3908(5) 0.0307(2)
H25A H -0.2847 0.3265 -0.0099
C29A C -0.1702(4) 0.3537(4) 0.0946(2)
C30A C -0.0682(5) 0.4523(4) 0.1537(2)
H26A H -0.0338 0.4301 0.1972
C31A C -0.0167(5) 0.5835(4) 0.1489(2)
H27A H 0.0503 0.6482 0.1898
C32A C -0.2351(4) 0.2101(4) 0.0976(2)
H28A H -0.2205 0.1600 0.0543
H29A H -0.3360 0.1797 0.0923
C33A C -0.2345(4) 0.1605(4) 0.2281(2)
H30A H -0.3213 0.1578 0.2335
C34A C -0.1431(5) 0.1421(5) 0.2807(3)
H31A H -0.1548 0.1238 0.3284
C35A C -0.0298(5) 0.1564(4) 0.2485(2)
H32A H 0.0500 0.1497 0.2720
Ag1A_2 Ag -0.16774(3) 0.26733(3) 0.622741(19)
Ag1A_3 Ag -0.16774(3) 1.26733(3) 0.622741(19)
N1A_2 N -0.3089(3) 0.1529(3) -0.49342(17)
N3A_2 N 0.0530(3) 0.2945(3) -0.33706(19)
O6 O 0.2000(4) 0.9256(4) 0.2758(2)
H33 H 0.221(5) 0.993(3) 0.256(3)
H34 H 0.252(5) 0.889(4) 0.262(3)
O7 O 0.4489(5) 0.6057(4) 0.4319(2)
H35 H 0.401(5) 0.618(4) 0.3944(19)
H36 H 0.431(5) 0.5247(17) 0.423(3)
O8 O 0.3953(6) -0.0984(4) 0.1134(3)
H37 H 0.406(6) -0.020(2) 0.126(2)
H38 H 0.380(6) -0.132(4) 0.1519(18)
O9 O 0.3803(6) 0.3397(5) 0.4218(3)
H39 H 0.396(4) 0.327(5) 0.4671(13)
H40 H 0.465(2) 0.376(5) 0.413(3)
loop_
_geom_bond_atom_site_label_1
_geom_bond_atom_site_label_2
_geom_bond_site_symmetry_1
_geom_bond_site_symmetry_2
Ag1 N1 1_555 1_555
Ag2 N5 1_555 1_555
S1 O3 1_555 1_555
N1 N2 1_555 1_555
N2 C10 1_555 1_555
N3 Ag1 1_555 1_555
N4 N3 1_555 1_555
N5 N6 1_555 1_555
N6 C24 1_555 1_555
N7 N8 1_555 1_555
N8 C35 1_555 1_555
O1 Ag1 1_555 1_555
O2 C1 1_555 1_555
O4 Ag2 1_555 1_555
O5 S1 1_555 1_555
C1 O1 1_555 1_555
C2 C1 1_555 1_555
C3 C2 1_555 1_555
H1 C3 1_555 1_555
C4 S1 1_555 1_555
C5 C4 1_555 1_555
H2 C5 1_555 1_555
C6 C5 1_555 1_555
H3 C6 1_555 1_555
C7 C2 1_555 1_555
H4 C7 1_555 1_555
C8 N1 1_555 1_555
H5 C8 1_555 1_555
C9 C8 1_555 1_555
H6 C9 1_555 1_555
C10 C9 1_555 1_555
H7 C10 1_555 1_555
C11 N2 1_555 1_555
H8 C11 1_555 1_555
H9 C11 1_555 1_555
C12 C11 1_555 1_555
C13 C12 1_555 1_555
H10 C13 1_555 1_555
C14 C12 1_555 1_555
H11 C14 1_555 1_555
C15 N3 1_555 1_555
H12 C15 1_555 1_555
C16 C15 1_555 1_555
H13 C16 1_555 1_555
C17 N4 1_555 1_555
H14 C17 1_555 1_555
C18 N4 1_555 1_555
H15 C18 1_555 1_555
H16 C18 1_555 1_555
C19 C18 1_555 1_555
C20 C19 1_555 1_555
H17 C20 1_555 1_555
C21 C19 1_555 1_555
H18 C21 1_555 1_555
C22 N5 1_555 1_555
H19 C22 1_555 1_555
C23 C22 1_555 1_555
H20 C23 1_555 1_555
C24 C23 1_555 1_555
H21 C24 1_555 1_555
C25 N6 1_555 1_555
H22 C25 1_555 1_555
H23 C25 1_555 1_555
C26 C25 1_555 1_555
C27 C26 1_555 1_555
H24 C27 1_555 1_555
C28 C27 1_555 1_555
H25 C28 1_555 1_555
C29 C28 1_555 1_555
C30 C29 1_555 1_555
H26 C30 1_555 1_555
C31 C26 1_555 1_555
H27 C31 1_555 1_555
C32 N7 1_555 1_555
H28 C32 1_555 1_555
H29 C32 1_555 1_555
C33 N7 1_555 1_555
H30 C33 1_555 1_555
C34 C33 1_555 1_555
H31 C34 1_555 1_555
C35 C34 1_555 1_555
H32 C35 1_555 1_555
O6 H33 1_555 1_555
H34 O6 1_555 1_555
O7 H35 1_555 1_555
H36 O7 1_555 1_555
O8 H37 1_555 1_555
H38 O8 1_555 1_555
O9 H39 1_555 1_555
H40 O9 1_555 1_555
N1A N2A 1_555 1_555
N2A C10A 1_555 1_555
C8A N1A 1_555 1_555
H5A C8A 1_555 1_555
C9A C8A 1_555 1_555
H6A C9A 1_555 1_555
C10A C9A 1_555 1_555
H7A C10A 1_555 1_555
C11A N2A 1_555 1_555
H8A C11A 1_555 1_555
H9A C11A 1_555 1_555
C12A C11A 1_555 1_555
C13A C14 1_555 1_555
H10A C13A 1_555 1_555
C14A C13 1_555 1_555
H11A C14A 1_555 1_555
N3A N4A 1_555 1_555
N4A C17A 1_555 1_555
C15A N3A 1_555 1_555
H12A C15A 1_555 1_555
C16A C15A 1_555 1_555
H13A C16A 1_555 1_555
C17A C16A 1_555 1_555
H14A C17A 1_555 1_555
C18A N4A 1_555 1_555
H15A C18A 1_555 1_555
H16A C18A 1_555 1_555
C19A C18A 1_555 1_555
C20A C21 1_555 1_555
H17A C20A 1_555 1_555
C21A C20 1_555 1_555
H18A C21A 1_555 1_555
Ag1A O1A 1_555 1_555
Ag2A N8 1_555 1_555
S1A O3A 1_555 1_555
N5A Ag2A 1_555 1_555
N6A N5A 1_555 1_555
N7A N8A 1_555 1_555
N8A Ag2 1_555 1_555
O1A C1A 1_555 1_555
O2A C1A 1_555 1_555
O4A Ag2A 1_555 1_555
O5A S1A 1_555 1_555
C1A C2A 1_555 1_555
C2A C3A 1_555 1_555
C3A H1A 1_555 1_555
C4A S1A 1_555 1_555
C5A C4A 1_555 1_555
H2A C5A 1_555 1_555
C6A C5A 1_555 1_555
H3A C6A 1_555 1_555
C7A C2A 1_555 1_555
H4A C7A 1_555 1_555
C22A N5A 1_555 1_555
H19A C22A 1_555 1_555
C23A C22A 1_555 1_555
H20A C23A 1_555 1_555
C24A N6A 1_555 1_555
H21A C24A 1_555 1_555
C25A N6A 1_555 1_555
H22A C25A 1_555 1_555
H23A C25A 1_555 1_555
C26A C25A 1_555 1_555
C27A C26A 1_555 1_555
H24A C27A 1_555 1_555
C28A C27A 1_555 1_555
H25A C28A 1_555 1_555
C29A C28A 1_555 1_555
C30A C29A 1_555 1_555
H26A C30A 1_555 1_555
C31A C26A 1_555 1_555
H27A C31A 1_555 1_555
C32A N7A 1_555 1_555
H28A C32A 1_555 1_555
H29A C32A 1_555 1_555
C33A N7A 1_555 1_555
H30A C33A 1_555 1_555
C34A C33A 1_555 1_555
H31A C34A 1_555 1_555
C35A N8A 1_555 1_555
H32A C35A 1_555 1_555
Ag1A_2 N3A 1_555 1_555
Ag1A_3 N1A 1_555 1_555
N1A_2 Ag1A 1_555 1_555
N3A_2 Ag1A 1_555 1_555
S1 O4 1_555 1_555
C3 C4 1_555 1_555
C6 C7 1_555 1_555
C16 C17 1_555 1_555
C29 C32 1_555 1_555
C30 C31 1_555 1_555
C12A C13A 1_555 1_555
C12A C14A 1_555 1_555
C19A C20A 1_555 1_555
C19A C21A 1_555 1_555
S1A O4A 1_555 1_555
C3A C4A 1_555 1_555
C6A C7A 1_555 1_555
C23A C24A 1_555 1_555
C29A C32A 1_555 1_555
C30A C31A 1_555 1_555
C34A C35A 1_555 1_555

#END
