
#######################################################################
#
#                 Cambridge Crystallographic Data Centre
#                                CCDC 
#
#######################################################################
#
# If this CIF has been generated from an entry in the Cambridge 
# Structural Database, then it will include bibliographic, chemical, 
# crystal, experimental, refinement or atomic coordinate data resulting 
# from the CCDC's data processing and validation procedures.
#
#######################################################################

data_QIYXED
_symmetry_cell_setting           triclinic
_symmetry_space_group_name_H-M   'P -1'
_symmetry_Int_Tables_number      2
_space_group_name_Hall           '-P 1'
loop_
_symmetry_equiv_pos_site_id
_symmetry_equiv_pos_as_xyz
1 x,y,z
2 -x,-y,-z
_cell_length_a                   10.4087(4)
_cell_length_b                   11.5583(5)
_cell_length_c                   12.1619(6)
_cell_angle_alpha                88.778(4)
_cell_angle_beta                 72.109(4)
_cell_angle_gamma                80.521(4)
_cell_volume                     1372.73
loop_
_atom_site_label
_atom_site_type_symbol
_atom_site_fract_x
_atom_site_fract_y
_atom_site_fract_z
Ag1 Ag 0.76602(2) 0.162578(19) 0.422266(19)
N1 N 0.8536(2) -0.0336(2) 0.3845(2)
N2 N 0.8398(2) -0.1020(2) 0.3018(2)
N3 N 0.7552(2) 0.23264(19) 0.5962(2)
N4 N 0.7665(2) 0.34356(19) 0.6211(2)
N5 N 0.6654(2) 0.24054(19) 0.2903(2)
N6 N 0.5289(2) 0.25669(19) 0.3049(2)
C1 C 0.8949(3) -0.1087(3) 0.4569(3)
H1 H 0.9132 -0.0865 0.5229
C2 C 0.9068(3) -0.2243(3) 0.4208(3)
H2 H 0.9326 -0.2920 0.4568
C3 C 0.8724(3) -0.2171(3) 0.3212(3)
H3 H 0.8715 -0.2798 0.2749
C4 C 0.7911(3) -0.0502(3) 0.2090(2)
H4 H 0.7297 0.0227 0.2381
H5 H 0.7384 -0.1028 0.1877
C5 C 0.9018(3) -0.0252(2) 0.1014(2)
C6 C 1.0394(3) -0.0422(2) 0.0941(2)
H6 H 1.0667 -0.0702 0.1570
C7 C 0.8638(3) 0.0175(2) 0.0067(2)
H7 H 0.7718 0.0298 0.0109
C8 C 0.7410(3) 0.1780(3) 0.6957(3)
H8 H 0.7317 0.0994 0.7051
C9 C 0.7415(3) 0.2519(3) 0.7833(3)
H9 H 0.7329 0.2339 0.8599
C10 C 0.7578(3) 0.3579(3) 0.7323(3)
H10 H 0.7620 0.4268 0.7682
C11 C 0.7664(3) 0.4327(2) 0.5352(2)
H11 H 0.8337 0.4038 0.4624
H12 H 0.7930 0.5021 0.5596
C12 C 0.6277(3) 0.4659(2) 0.5173(2)
C13 C 0.5068(3) 0.4671(2) 0.6086(2)
H13 H 0.5109 0.4449 0.6816
C14 C 0.6191(3) 0.4986(2) 0.4093(2)
H14 H 0.6990 0.4975 0.3478
C15 C 0.7210(3) 0.2820(2) 0.1863(3)
H15 H 0.8143 0.2813 0.1525
C16 C 0.6215(3) 0.3262(3) 0.1352(3)
H16 H 0.6344 0.3602 0.0634
C17 C 0.5003(3) 0.3088(2) 0.2135(3)
H17 H 0.4138 0.3293 0.2048
C18 C 0.4316(3) 0.2317(2) 0.4144(2)
H18 H 0.3414 0.2392 0.4049
H19 H 0.4272 0.2898 0.4723
C19 C 0.4678(3) 0.1106(2) 0.4575(2)
C20 C 0.4754(3) 0.0102(2) 0.3939(2)
H20 H 0.4594 0.0164 0.3227
C21 C 0.4931(3) 0.0994(2) 0.5633(2)
H21 H 0.4889 0.1664 0.6061
N1A N 1.1464(2) 0.0336(2) -0.3845(2)
N2A N 1.1602(2) 0.1020(2) -0.3018(2)
C1A C 1.1051(3) 0.1087(3) -0.4569(3)
H1A H 1.0868 0.0865 -0.5229
C2A C 1.0932(3) 0.2243(3) -0.4208(3)
H2A H 1.0674 0.2920 -0.4568
C3A C 1.1276(3) 0.2171(3) -0.3212(3)
H3A H 1.1285 0.2798 -0.2749
C4A C 1.2089(3) 0.0502(3) -0.2090(2)
H4A H 1.2703 -0.0227 -0.2381
H5A H 1.2616 0.1028 -0.1877
C5A C 1.0982(3) 0.0252(2) -0.1014(2)
C6A C 0.9606(3) 0.0422(2) -0.0941(2)
H6A H 0.9333 0.0702 -0.1570
C7A C 1.1362(3) -0.0175(2) -0.0067(2)
H7A H 1.2282 -0.0298 -0.0109
N3A N 0.2448(2) 0.76736(19) 0.4038(2)
N4A N 0.2335(2) 0.65644(19) 0.3789(2)
C8A C 0.2590(3) 0.8220(3) 0.3043(3)
H8A H 0.2683 0.9006 0.2949
C9A C 0.2585(3) 0.7481(3) 0.2167(3)
H9A H 0.2671 0.7661 0.1401
C10A C 0.2422(3) 0.6421(3) 0.2677(3)
H10A H 0.2380 0.5732 0.2318
C11A C 0.2336(3) 0.5673(2) 0.4648(2)
H11A H 0.1663 0.5962 0.5376
H12A H 0.2070 0.4979 0.4404
C12A C 0.3723(3) 0.5341(2) 0.4827(2)
C13A C 0.4932(3) 0.5329(2) 0.3914(2)
H13A H 0.4891 0.5551 0.3184
C14A C 0.3809(3) 0.5014(2) 0.5907(2)
H14A H 0.3010 0.5025 0.6522
N5A N 0.3346(2) -0.24054(19) 0.7097(2)
N6A N 0.4711(2) -0.25669(19) 0.6951(2)
C15A C 0.2790(3) -0.2820(2) 0.8137(3)
H15A H 0.1857 -0.2813 0.8475
C16A C 0.3785(3) -0.3262(3) 0.8648(3)
H16A H 0.3656 -0.3602 0.9366
C17A C 0.4997(3) -0.3088(2) 0.7865(3)
H17A H 0.5862 -0.3293 0.7952
C18A C 0.5684(3) -0.2317(2) 0.5856(2)
H18A H 0.6586 -0.2392 0.5951
H19A H 0.5728 -0.2898 0.5277
C19A C 0.5322(3) -0.1106(2) 0.5425(2)
C20A C 0.5246(3) -0.0102(2) 0.6061(2)
H20A H 0.5406 -0.0164 0.6773
C21A C 0.5069(3) -0.0994(2) 0.4367(2)
H21A H 0.5111 -0.1664 0.3939
Ag1A Ag 0.23398(2) -0.162578(19) 0.577734(19)
Ag1A_2 Ag 0.23398(2) 0.837422(19) 0.577734(19)
Ag1A_3 Ag 1.23398(2) -0.162578(19) -0.422266(19)
N1A_2 N 0.1464(2) 0.0336(2) 0.6155(2)
N3A_2 N 0.2448(2) -0.23264(19) 0.4038(2)
S1 S 1.06232(7) 0.35705(6) 0.24531(6)
O1 O 1.2039(2) 0.09801(18) 0.24293(19)
H22 H 1.1333 0.1429 0.2452
O2 O 1.4169(3) 0.0618(2) 0.1342(2)
O3 O 0.9908(2) 0.25585(19) 0.27766(18)
O4 O 1.1502(2) 0.36817(18) 0.31504(17)
O5 O 0.9705(2) 0.4623(2) 0.2364(2)
C22 C 1.3047(3) 0.1219(3) 0.1540(3)
C23 C 1.2800(3) 0.2201(2) 0.0749(2)
C24 C 1.1784(3) 0.3201(2) 0.1024(2)
C25 C 1.1689(3) 0.4021(3) 0.0193(3)
H23 H 1.1012 0.4682 0.0383
C26 C 1.2591(3) 0.3865(3) -0.0914(3)
H24 H 1.2503 0.4409 -0.1472
C27 C 1.3618(3) 0.2910(3) -0.1192(3)
H25 H 1.4240 0.2817 -0.1932
C28 C 1.3727(3) 0.2083(3) -0.0372(3)
H26 H 1.4427 0.1438 -0.0567
loop_
_geom_bond_atom_site_label_1
_geom_bond_atom_site_label_2
_geom_bond_site_symmetry_1
_geom_bond_site_symmetry_2
Ag1 N1 1_555 1_555
N1 N2 1_555 1_555
N2 C3 1_555 1_555
N3 Ag1 1_555 1_555
N4 N3 1_555 1_555
N5 Ag1 1_555 1_555
N6 N5 1_555 1_555
C1 N1 1_555 1_555
H1 C1 1_555 1_555
C2 C1 1_555 1_555
H2 C2 1_555 1_555
C3 C2 1_555 1_555
H3 C3 1_555 1_555
C4 N2 1_555 1_555
H4 C4 1_555 1_555
H5 C4 1_555 1_555
C5 C4 1_555 1_555
C6 C5 1_555 1_555
H6 C6 1_555 1_555
C7 C5 1_555 1_555
H7 C7 1_555 1_555
C8 N3 1_555 1_555
H8 C8 1_555 1_555
C9 C8 1_555 1_555
H9 C9 1_555 1_555
C10 N4 1_555 1_555
H10 C10 1_555 1_555
C11 N4 1_555 1_555
H11 C11 1_555 1_555
H12 C11 1_555 1_555
C12 C11 1_555 1_555
C13 C12 1_555 1_555
H13 C13 1_555 1_555
C14 C12 1_555 1_555
H14 C14 1_555 1_555
C15 N5 1_555 1_555
H15 C15 1_555 1_555
C16 C15 1_555 1_555
H16 C16 1_555 1_555
C17 N6 1_555 1_555
H17 C17 1_555 1_555
C18 N6 1_555 1_555
H18 C18 1_555 1_555
H19 C18 1_555 1_555
C19 C18 1_555 1_555
C20 C19 1_555 1_555
H20 C20 1_555 1_555
C21 C19 1_555 1_555
H21 C21 1_555 1_555
S1 O3 1_555 1_555
O1 H22 1_555 1_555
O2 C22 1_555 1_555
O4 S1 1_555 1_555
O5 S1 1_555 1_555
C22 O1 1_555 1_555
C23 C22 1_555 1_555
C24 S1 1_555 1_555
C25 C24 1_555 1_555
H23 C25 1_555 1_555
C26 C25 1_555 1_555
H24 C26 1_555 1_555
C27 C26 1_555 1_555
H25 C27 1_555 1_555
C28 C23 1_555 1_555
H26 C28 1_555 1_555
N1A N2A 1_555 1_555
N2A C3A 1_555 1_555
C1A N1A 1_555 1_555
H1A C1A 1_555 1_555
C2A C1A 1_555 1_555
H2A C2A 1_555 1_555
C3A C2A 1_555 1_555
H3A C3A 1_555 1_555
C4A N2A 1_555 1_555
H4A C4A 1_555 1_555
H5A C4A 1_555 1_555
C5A C4A 1_555 1_555
C6A C7 1_555 1_555
H6A C6A 1_555 1_555
C7A C6 1_555 1_555
H7A C7A 1_555 1_555
N3A N4A 1_555 1_555
N4A C10A 1_555 1_555
C8A N3A 1_555 1_555
H8A C8A 1_555 1_555
C9A C8A 1_555 1_555
H9A C9A 1_555 1_555
C10A C9A 1_555 1_555
H10A C10A 1_555 1_555
C11A N4A 1_555 1_555
H11A C11A 1_555 1_555
H12A C11A 1_555 1_555
C12A C11A 1_555 1_555
C13A C14 1_555 1_555
H13A C13A 1_555 1_555
C14A C13 1_555 1_555
H14A C14A 1_555 1_555
N5A N6A 1_555 1_555
N6A C17A 1_555 1_555
C15A N5A 1_555 1_555
H15A C15A 1_555 1_555
C16A C15A 1_555 1_555
H16A C16A 1_555 1_555
C17A C16A 1_555 1_555
H17A C17A 1_555 1_555
C18A N6A 1_555 1_555
H18A C18A 1_555 1_555
H19A C18A 1_555 1_555
C19A C18A 1_555 1_555
C20A C21 1_555 1_555
H20A C20A 1_555 1_555
C21A C20 1_555 1_555
H21A C21A 1_555 1_555
Ag1A N5A 1_555 1_555
Ag1A_2 N3A 1_555 1_555
Ag1A_3 N1A 1_555 1_555
N1A_2 Ag1A 1_555 1_555
N3A_2 Ag1A 1_555 1_555
C9 C10 1_555 1_555
C16 C17 1_555 1_555
C23 C24 1_555 1_555
C27 C28 1_555 1_555
C5A C6A 1_555 1_555
C5A C7A 1_555 1_555
C12A C13A 1_555 1_555
C12A C14A 1_555 1_555
C19A C20A 1_555 1_555
C19A C21A 1_555 1_555

#END
