
#######################################################################
#
#                 Cambridge Crystallographic Data Centre
#                                CCDC 
#
#######################################################################
#
# If this CIF has been generated from an entry in the Cambridge 
# Structural Database, then it will include bibliographic, chemical, 
# crystal, experimental, refinement or atomic coordinate data resulting 
# from the CCDC's data processing and validation procedures.
#
#######################################################################

data_QIYYAZ
_symmetry_cell_setting           triclinic
_symmetry_space_group_name_H-M   'P -1'
_symmetry_Int_Tables_number      2
_space_group_name_Hall           '-P 1'
loop_
_symmetry_equiv_pos_site_id
_symmetry_equiv_pos_as_xyz
1 x,y,z
2 -x,-y,-z
_cell_length_a                   8.239(3)
_cell_length_b                   8.805(3)
_cell_length_c                   9.558(3)
_cell_angle_alpha                104.645(6)
_cell_angle_beta                 106.000(6)
_cell_angle_gamma                102.841(6)
_cell_volume                     612.271
loop_
_atom_site_label
_atom_site_type_symbol
_atom_site_fract_x
_atom_site_fract_y
_atom_site_fract_z
Cu1 Cu -0.40218(12) -0.25520(10) -0.25421(9)
P1 P -0.2851(3) -0.5377(2) -0.4199(2)
O1 O -0.2974(7) -0.4294(6) -0.2759(5)
O2 O -0.4534(7) -0.6680(6) -0.5321(6)
O3 O -0.2065(8) -0.4217(7) -0.5009(7)
H1 H -0.193(13) -0.446(12) -0.588(6)
O4 O -0.1539(8) -0.6344(7) -0.3720(7)
H2 H -0.064(9) -0.564(11) -0.298(9)
O5 O -0.3496(8) 0.3968(7) 0.2040(6)
O6 O -0.1183(7) 0.4549(7) 0.1295(6)
N1 N -0.2369(8) -0.1383(7) -0.0381(7)
N2 N -0.4434(7) -0.0365(7) -0.2190(6)
C1 C -0.1336(9) -0.2063(8) 0.0451(8)
H3 H -0.1369 -0.3142 -0.0004
C2 C -0.0236(10) -0.1209(10) 0.1953(9)
H4 H 0.0508 -0.1686 0.2488
C3 C -0.0241(11) 0.0349(9) 0.2659(9)
H5 H 0.0467 0.0927 0.3688
C4 C -0.1315(10) 0.1051(9) 0.1818(8)
H6 H -0.1328 0.2112 0.2275
C5 C -0.2374(8) 0.0161(8) 0.0287(8)
C6 C -0.3516(9) 0.0756(8) -0.0757(8)
C7 C -0.3686(10) 0.2348(8) -0.0415(8)
C8 C -0.4812(10) 0.2719(8) -0.1583(8)
H7 H -0.4935 0.3770 -0.1386
C9 C -0.5728(11) 0.1556(10) -0.3001(9)
H8 H -0.6487 0.1795 -0.3775
C10 C -0.5511(10) 0.0024(10) -0.3267(8)
H9 H -0.6139 -0.0775 -0.4236
C11 C -0.2715(10) 0.3725(8) 0.1098(8)
Cu1A Cu -0.59782(12) -0.74480(10) -0.74579(9)
Cu1A_2 Cu -0.59782(12) 0.25520(10) 0.25421(9)
O2A O -0.5466(7) -0.3320(6) -0.4679(6)
O5A O -0.6504(8) -0.3968(7) -0.2040(6)
loop_
_geom_bond_atom_site_label_1
_geom_bond_atom_site_label_2
_geom_bond_site_symmetry_1
_geom_bond_site_symmetry_2
Cu1 O1 1_555 1_555
P1 O1 1_555 1_555
O2 P1 1_555 1_555
O3 P1 1_555 1_555
H1 O3 1_555 1_555
O4 P1 1_555 1_555
H2 O4 1_555 1_555
O5 C11 1_555 1_555
O6 C11 1_555 1_555
N1 Cu1 1_555 1_555
N2 Cu1 1_555 1_555
C1 N1 1_555 1_555
H3 C1 1_555 1_555
C2 C1 1_555 1_555
H4 C2 1_555 1_555
C3 C2 1_555 1_555
H5 C3 1_555 1_555
C4 C3 1_555 1_555
H6 C4 1_555 1_555
C5 N1 1_555 1_555
C6 N2 1_555 1_555
C7 C6 1_555 1_555
C8 C7 1_555 1_555
H7 C8 1_555 1_555
C9 C8 1_555 1_555
H8 C9 1_555 1_555
C10 N2 1_555 1_555
H9 C10 1_555 1_555
C11 C7 1_555 1_555
Cu1A O2 1_555 1_555
Cu1A_2 O5 1_555 1_555
O2A Cu1 1_555 1_555
O5A Cu1 1_555 1_555
C4 C5 1_555 1_555
C5 C6 1_555 1_555
C9 C10 1_555 1_555

#END
