
#######################################################################
#
#                 Cambridge Crystallographic Data Centre
#                                CCDC 
#
#######################################################################
#
# If this CIF has been generated from an entry in the Cambridge 
# Structural Database, then it will include bibliographic, chemical, 
# crystal, experimental, refinement or atomic coordinate data resulting 
# from the CCDC's data processing and validation procedures.
#
#######################################################################

data_QIZHUD
_symmetry_cell_setting           orthorhombic
_symmetry_space_group_name_H-M   'P n a b'
_symmetry_Int_Tables_number      60
_space_group_name_Hall           '-P 2bc 2n'
loop_
_symmetry_equiv_pos_site_id
_symmetry_equiv_pos_as_xyz
1 x,y,z
2 -x,1/2-y,1/2+z
3 1/2+x,1/2-y,1/2-z
4 1/2-x,y,-z
5 -x,-y,-z
6 x,1/2+y,1/2-z
7 1/2-x,1/2+y,1/2+z
8 1/2+x,-y,z
_cell_length_a                   7.6730(11)
_cell_length_b                   12.5220(7)
_cell_length_c                   23.897(1)
_cell_angle_alpha                90
_cell_angle_beta                 90
_cell_angle_gamma                90
_cell_volume                     2296.05
loop_
_atom_site_label
_atom_site_type_symbol
_atom_site_fract_x
_atom_site_fract_y
_atom_site_fract_z
Ca1 Ca 0.2500 0.38277(10) 0.5000
O1 O 0.0158(4) 0.3589(2) 0.43705(12)
O2 O -0.1111(5) 0.5173(3) 0.43616(12)
O3 O -0.0262(6) 0.2302(3) 0.35683(18)
N1 N 0.3411(5) 0.2151(3) 0.45104(15)
C1 C -0.0797(6) 0.4290(4) 0.4138(2)
C2 C -0.1536(6) 0.4053(4) 0.35804(17)
C3 C -0.1224(7) 0.3073(4) 0.3321(2)
C4 C -0.1936(10) 0.2864(7) 0.2792(3)
C5 C -0.2885(9) 0.3643(9) 0.2525(3)
C6 C -0.3199(9) 0.4605(8) 0.2779(3)
C7 C -0.2540(8) 0.4805(5) 0.3301(2)
C8 C 0.4261(7) 0.2131(5) 0.4027(2)
C9 C 0.4685(7) 0.1216(5) 0.3730(2)
C10 C 0.4216(8) 0.0258(5) 0.3962(2)
C11 C 0.3358(7) 0.0211(4) 0.44782(19)
C12 C 0.2963(5) 0.1192(4) 0.47353(15)
C13 C 0.2905(7) -0.0765(4) 0.4752(2)
H1 H 0.522(6) 0.126(3) 0.3353(19)
H2 H -0.266(8) 0.553(4) 0.349(2)
H3 H 0.442(5) -0.029(3) 0.3762(15)
H4 H -0.163(7) 0.224(4) 0.263(2)
H5 H -0.381(9) 0.512(6) 0.257(2)
H6 H 0.322(6) -0.141(4) 0.4557(17)
H7 H 0.461(6) 0.282(4) 0.3900(16)
H8 H 0.016(7) 0.254(4) 0.387(2)
H9 H -0.340(9) 0.341(5) 0.218(3)
Ca1D Ca -0.2500 0.61723(10) 0.5000
Ca1D_2 Ca 0.7500 0.61723(10) 0.5000
O1C O 0.4842(4) 0.3589(2) 0.56295(12)
O2C O 0.6111(5) 0.5173(3) 0.56384(12)
O2D O 0.1111(5) 0.4827(3) 0.56384(12)
O2G O 0.3889(5) 0.4827(3) 0.43616(12)
O3C O 0.5262(6) 0.2302(3) 0.64317(18)
N1C N 0.1589(5) 0.2151(3) 0.54896(15)
C1C C 0.5797(6) 0.4290(4) 0.5862(2)
C2C C 0.6536(6) 0.4053(4) 0.64196(17)
C3C C 0.6224(7) 0.3073(4) 0.6679(2)
C4C C 0.6936(10) 0.2864(7) 0.7208(3)
C5C C 0.7885(9) 0.3643(9) 0.7475(3)
C6C C 0.8199(9) 0.4605(8) 0.7221(3)
C7C C 0.7540(8) 0.4805(5) 0.6699(2)
C8C C 0.0739(7) 0.2131(5) 0.5973(2)
C9C C 0.0315(7) 0.1216(5) 0.6270(2)
C10C C 0.0784(8) 0.0258(5) 0.6038(2)
C11C C 0.1642(7) 0.0211(4) 0.55218(19)
C12C C 0.2037(5) 0.1192(4) 0.52647(15)
C13C C 0.2095(7) -0.0765(4) 0.5248(2)
H1C H -0.022(6) 0.126(3) 0.6647(19)
H2C H 0.766(8) 0.553(4) 0.651(2)
H3C H 0.058(5) -0.029(3) 0.6238(15)
H4C H 0.663(7) 0.224(4) 0.737(2)
H5C H 0.881(9) 0.512(6) 0.743(2)
H6C H 0.178(6) -0.141(4) 0.5443(17)
H7C H 0.039(6) 0.282(4) 0.6100(16)
H8C H 0.484(7) 0.254(4) 0.613(2)
H9C H 0.840(9) 0.341(5) 0.782(3)
loop_
_geom_bond_atom_site_label_1
_geom_bond_atom_site_label_2
_geom_bond_site_symmetry_1
_geom_bond_site_symmetry_2
Ca1 O1 1_555 1_555
O1 C1 1_555 1_555
O2 C1 1_555 1_555
O3 C3 1_555 1_555
N1 Ca1 1_555 1_555
C1 C2 1_555 1_555
C2 C3 1_555 1_555
C3 C4 1_555 1_555
C4 C5 1_555 1_555
C5 C6 1_555 1_555
C6 C7 1_555 1_555
C7 C2 1_555 1_555
C8 N1 1_555 1_555
C9 C8 1_555 1_555
C10 C9 1_555 1_555
C11 C10 1_555 1_555
C12 N1 1_555 1_555
C13 C11 1_555 1_555
H1 C9 1_555 1_555
H2 C7 1_555 1_555
H3 C10 1_555 1_555
H4 C4 1_555 1_555
H5 C6 1_555 1_555
H6 C13 1_555 1_555
H7 C8 1_555 1_555
H8 O3 1_555 1_555
H9 C5 1_555 1_555
Ca1D O2 1_555 1_555
Ca1D_2 O2C 1_555 1_555
O1C Ca1 1_555 1_555
O2C C1C 1_555 1_555
O2D Ca1 1_555 1_555
O2G Ca1 1_555 1_555
O3C C3C 1_555 1_555
N1C Ca1 1_555 1_555
C1C O1C 1_555 1_555
C2C C1C 1_555 1_555
C3C C2C 1_555 1_555
C4C C3C 1_555 1_555
C5C C4C 1_555 1_555
C6C C5C 1_555 1_555
C7C C2C 1_555 1_555
C8C N1C 1_555 1_555
C9C C8C 1_555 1_555
C10C C9C 1_555 1_555
C11C C10C 1_555 1_555
C12C C12 1_555 1_555
C13C C13 1_555 1_555
H1C C9C 1_555 1_555
H2C C7C 1_555 1_555
H3C C10C 1_555 1_555
H4C C4C 1_555 1_555
H5C C6C 1_555 1_555
H6C C13C 1_555 1_555
H7C C8C 1_555 1_555
H8C O3C 1_555 1_555
H9C C5C 1_555 1_555
C11 C12 1_555 1_555
N1C C12C 1_555 1_555
C6C C7C 1_555 1_555
C11C C12C 1_555 1_555
C11C C13C 1_555 1_555

#END
