
#######################################################################
#
#                 Cambridge Crystallographic Data Centre
#                                CCDC 
#
#######################################################################
#
# If this CIF has been generated from an entry in the Cambridge 
# Structural Database, then it will include bibliographic, chemical, 
# crystal, experimental, refinement or atomic coordinate data resulting 
# from the CCDC's data processing and validation procedures.
#
#######################################################################

data_QIZKOA
_symmetry_cell_setting           orthorhombic
_symmetry_space_group_name_H-M   'C 2 2 21'
_symmetry_Int_Tables_number      20
_space_group_name_Hall           'C 2n 2'
loop_
_symmetry_equiv_pos_site_id
_symmetry_equiv_pos_as_xyz
1 x,y,z
2 -x,-y,1/2+z
3 -x,y,1/2-z
4 x,-y,-z
5 1/2+x,1/2+y,z
6 1/2-x,1/2-y,1/2+z
7 1/2-x,1/2+y,1/2-z
8 1/2+x,1/2-y,-z
_cell_length_a                   22.475(9)
_cell_length_b                   6.782(2)
_cell_length_c                   28.418(11)
_cell_angle_alpha                90
_cell_angle_beta                 90
_cell_angle_gamma                90
_cell_volume                     4331.63
loop_
_atom_site_label
_atom_site_type_symbol
_atom_site_fract_x
_atom_site_fract_y
_atom_site_fract_z
Re1 Re 0.96540(3) 0.11591(9) 0.15198(2)
N1 N 0.9054(5) -0.0342(19) 0.1040(4)
N2 N 1.0259(4) -0.1040(18) 0.1139(3)
O1 O 0.9856(4) 0.2725(12) 0.0899(3)
C1 C 1.0245(8) 0.237(2) 0.1883(6)
C2 C 0.9112(9) 0.308(3) 0.1745(6)
C3 C 0.9462(8) -0.047(2) 0.2040(6)
C4 C 0.8515(7) 0.036(3) 0.0879(6)
H1 H 0.8370 0.1547 0.0994
C5 C 0.8192(7) -0.065(3) 0.0557(6)
H2 H 0.7824 -0.0158 0.0463
C6 C 0.8393(8) -0.239(3) 0.0365(7)
H3 H 0.8170 -0.3079 0.0144
C7 C 0.8942(7) -0.308(3) 0.0516(6)
H4 H 0.9095 -0.4240 0.0392
C8 C 0.9268(6) -0.202(2) 0.0856(5)
C9 C 0.9839(6) -0.274(2) 0.1027(6)
H5 H 1.0018 -0.3581 0.0790
H6 H 0.9777 -0.3526 0.1308
C10 C 1.0468(6) -0.010(2) 0.0692(5)
H7 H 1.0364 -0.0949 0.0431
H8 H 1.0899 -0.0008 0.0702
C11 C 1.0217(6) 0.1968(19) 0.0594(5)
O2 O 1.0377(5) 0.2776(14) 0.0231(3)
C12 C 1.0770(6) -0.175(2) 0.1428(4)
H9 H 1.0618 -0.2188 0.1730
H10 H 1.1033 -0.0639 0.1487
C13 C 1.1129(6) -0.339(2) 0.1213(5)
O3 O 1.1045(4) -0.4002(16) 0.0797(3)
N3 N 1.1519(5) -0.4223(16) 0.1487(4)
C14 C 1.1693(7) -0.352(3) 0.1965(5)
H11 H 1.1378 -0.3755 0.2191
H12 H 1.1788 -0.2124 0.1961
C15 C 1.2229(11) -0.474(5) 0.2071(8)
H13 H 1.2587 -0.3961 0.2022
H14 H 1.2220 -0.5160 0.2397
C16 C 1.2232(12) -0.641(5) 0.1769(9)
H15 H 1.2061 -0.7535 0.1928
H16 H 1.2637 -0.6730 0.1678
C17 C 1.1872(7) -0.589(3) 0.1342(6)
H17 H 1.2128 -0.5550 0.1080
H18 H 1.1619 -0.6988 0.1250
O4 O 1.0603(6) 0.319(2) 0.2120(5)
O5 O 0.8755(7) 0.426(3) 0.1872(6)
O6 O 0.9328(7) -0.150(3) 0.2358(4)
Ca1 Ca 1.10969(16) 0.5000 0.0000
O7 O 1.1844(5) 0.2589(17) 0.0094(4)
Re1C Re 0.96540(3) 0.88409(9) -0.15198(2)
N1C N 0.9054(5) 1.0342(19) -0.1040(4)
N2C N 1.0259(4) 1.1040(18) -0.1139(3)
O1C O 0.9856(4) 0.7275(12) -0.0899(3)
C1C C 1.0245(8) 0.763(2) -0.1883(6)
C2C C 0.9112(9) 0.692(3) -0.1745(6)
C3C C 0.9462(8) 1.047(2) -0.2040(6)
C4C C 0.8515(7) 0.964(3) -0.0879(6)
H1C H 0.8370 0.8453 -0.0994
C5C C 0.8192(7) 1.065(3) -0.0557(6)
H2C H 0.7824 1.0158 -0.0463
C6C C 0.8393(8) 1.239(3) -0.0365(7)
H3C H 0.8170 1.3079 -0.0144
C7C C 0.8942(7) 1.308(3) -0.0516(6)
H4C H 0.9095 1.4240 -0.0392
C8C C 0.9268(6) 1.202(2) -0.0856(5)
C9C C 0.9839(6) 1.274(2) -0.1027(6)
H5C H 1.0018 1.3581 -0.0790
H6C H 0.9777 1.3526 -0.1308
C10C C 1.0468(6) 1.010(2) -0.0692(5)
H7C H 1.0364 1.0949 -0.0431
H8C H 1.0899 1.0008 -0.0702
C11C C 1.0217(6) 0.8032(19) -0.0594(5)
O2C O 1.0377(5) 0.7224(14) -0.0231(3)
C12C C 1.0770(6) 1.175(2) -0.1428(4)
H9C H 1.0618 1.2188 -0.1730
H10C H 1.1033 1.0639 -0.1487
C13C C 1.1129(6) 1.339(2) -0.1213(5)
O3C O 1.1045(4) 1.4002(16) -0.0797(3)
O3_2 O 1.1045(4) 0.5998(16) 0.0797(3)
O3C_2 O 1.1045(4) 0.4002(16) -0.0797(3)
N3C N 1.1519(5) 1.4223(16) -0.1487(4)
C14C C 1.1693(7) 1.352(3) -0.1965(5)
H11C H 1.1378 1.3755 -0.2191
H12C H 1.1788 1.2124 -0.1961
C15C C 1.2229(11) 1.474(5) -0.2071(8)
H13C H 1.2587 1.3961 -0.2022
H14C H 1.2220 1.5160 -0.2397
C16C C 1.2232(12) 1.641(5) -0.1769(9)
H15C H 1.2061 1.7535 -0.1928
H16C H 1.2637 1.6730 -0.1678
C17C C 1.1872(7) 1.589(3) -0.1342(6)
H17C H 1.2128 1.5550 -0.1080
H18C H 1.1619 1.6988 -0.1250
O4C O 1.0603(6) 0.681(2) -0.2120(5)
O5C O 0.8755(7) 0.574(3) -0.1872(6)
O6C O 0.9328(7) 1.150(3) -0.2358(4)
Ca1_2 Ca 1.10969(16) -0.5000 0.0000
Ca1_3 Ca 1.10969(16) 1.5000 0.0000
O7C O 1.1844(5) 0.7411(17) -0.0094(4)
Br1 Br 0.76901(10) 0.0626(3) 0.58567(8)
loop_
_geom_bond_atom_site_label_1
_geom_bond_atom_site_label_2
_geom_bond_site_symmetry_1
_geom_bond_site_symmetry_2
Re1 N1 1_555 1_555
N1 C4 1_555 1_555
N2 Re1 1_555 1_555
O1 Re1 1_555 1_555
C1 Re1 1_555 1_555
C2 Re1 1_555 1_555
C3 Re1 1_555 1_555
C4 H1 1_555 1_555
C5 C4 1_555 1_555
H2 C5 1_555 1_555
C6 C5 1_555 1_555
H3 C6 1_555 1_555
C7 C6 1_555 1_555
H4 C7 1_555 1_555
C8 N1 1_555 1_555
C9 N2 1_555 1_555
H5 C9 1_555 1_555
H6 C9 1_555 1_555
C10 N2 1_555 1_555
H7 C10 1_555 1_555
H8 C10 1_555 1_555
C11 O1 1_555 1_555
O2 C11 1_555 1_555
C12 N2 1_555 1_555
H9 C12 1_555 1_555
H10 C12 1_555 1_555
C13 C12 1_555 1_555
O3 C13 1_555 1_555
N3 C13 1_555 1_555
C14 N3 1_555 1_555
H11 C14 1_555 1_555
H12 C14 1_555 1_555
C15 C14 1_555 1_555
H13 C15 1_555 1_555
H14 C15 1_555 1_555
C16 C15 1_555 1_555
H15 C16 1_555 1_555
H16 C16 1_555 1_555
C17 N3 1_555 1_555
H17 C17 1_555 1_555
H18 C17 1_555 1_555
O4 C1 1_555 1_555
O5 C2 1_555 1_555
O6 C3 1_555 1_555
Ca1 O2 1_555 1_555
O7 Ca1 1_555 1_555
Re1C N1C 1_555 1_555
N1C C4C 1_555 1_555
N2C Re1C 1_555 1_555
O1C Re1C 1_555 1_555
C1C Re1C 1_555 1_555
C2C Re1C 1_555 1_555
C3C Re1C 1_555 1_555
C4C H1C 1_555 1_555
C5C C4C 1_555 1_555
H2C C5C 1_555 1_555
C6C C5C 1_555 1_555
H3C C6C 1_555 1_555
C7C C6C 1_555 1_555
H4C C7C 1_555 1_555
C8C N1C 1_555 1_555
C9C N2C 1_555 1_555
H5C C9C 1_555 1_555
H6C C9C 1_555 1_555
C10C N2C 1_555 1_555
H7C C10C 1_555 1_555
H8C C10C 1_555 1_555
C11C O1C 1_555 1_555
O2C Ca1 1_555 1_555
C12C N2C 1_555 1_555
H9C C12C 1_555 1_555
H10C C12C 1_555 1_555
C13C C12C 1_555 1_555
O3C C13C 1_555 1_555
O3_2 Ca1 1_555 1_555
O3C_2 Ca1 1_555 1_555
N3C C13C 1_555 1_555
C14C N3C 1_555 1_555
H11C C14C 1_555 1_555
H12C C14C 1_555 1_555
C15C C14C 1_555 1_555
H13C C15C 1_555 1_555
H14C C15C 1_555 1_555
C16C C15C 1_555 1_555
H15C C16C 1_555 1_555
H16C C16C 1_555 1_555
C17C N3C 1_555 1_555
H17C C17C 1_555 1_555
H18C C17C 1_555 1_555
O4C C1C 1_555 1_555
O5C C2C 1_555 1_555
O6C C3C 1_555 1_555
Ca1_2 O3 1_555 1_555
Ca1_3 O3C 1_555 1_555
O7C Ca1 1_555 1_555
C7 C8 1_555 1_555
C8 C9 1_555 1_555
C10 C11 1_555 1_555
C16 C17 1_555 1_555
C7C C8C 1_555 1_555
C8C C9C 1_555 1_555
C10C C11C 1_555 1_555
C11C O2C 1_555 1_555
C16C C17C 1_555 1_555

#END
