
#######################################################################
#
#                 Cambridge Crystallographic Data Centre
#                                CCDC 
#
#######################################################################
#
# If this CIF has been generated from an entry in the Cambridge 
# Structural Database, then it will include bibliographic, chemical, 
# crystal, experimental, refinement or atomic coordinate data resulting 
# from the CCDC's data processing and validation procedures.
#
#######################################################################

data_QIZLER
_symmetry_cell_setting           monoclinic
_symmetry_space_group_name_H-M   'C 2/c'
_symmetry_Int_Tables_number      15
_space_group_name_Hall           '-C 2yn'
loop_
_symmetry_equiv_pos_site_id
_symmetry_equiv_pos_as_xyz
1 x,y,z
2 1/2+x,1/2+y,z
3 -x,y,1/2-z
4 1/2-x,1/2+y,1/2-z
5 -x,-y,-z
6 1/2-x,1/2-y,-z
7 x,-y,1/2+z
8 1/2+x,1/2-y,1/2+z
_cell_length_a                   17.4198(18)
_cell_length_b                   11.8550(12)
_cell_length_c                   23.497(2)
_cell_angle_alpha                90
_cell_angle_beta                 103.1700(10)
_cell_angle_gamma                90
_cell_volume                     4724.78
loop_
_atom_site_label
_atom_site_type_symbol
_atom_site_fract_x
_atom_site_fract_y
_atom_site_fract_z
Cd1 Cd 0.5000 0.538993(16) 0.2500
Fe1 Fe 0.86983(2) 0.56846(3) 0.544857(17)
S1 S 0.71891(3) 0.54753(5) 0.27874(3)
O1 O 0.63460(10) 0.54553(16) 0.26989(9)
O2 O 0.74485(16) 0.5109(3) 0.22859(10)
O3 O 0.75049(15) 0.65535(19) 0.30009(12)
N1 N 0.50168(11) 0.52292(15) 0.34930(7)
N2 N 0.5000 0.3382(2) 0.2500
N3 N 0.5000 -0.2615(2) 0.2500
C1 C 0.75246(13) 0.44751(19) 0.33534(10)
C2 C 0.76927(13) 0.4828(2) 0.39306(10)
H3 H 0.7669 0.5590 0.4018
C3 C 0.78979(13) 0.4037(2) 0.43820(10)
C4 C 0.79150(15) 0.2901(2) 0.42332(11)
H4 H 0.8037 0.2363 0.4528
C5 C 0.77544(15) 0.2556(2) 0.36539(11)
H5 H 0.7777 0.1794 0.3565
C6 C 0.75604(14) 0.3339(2) 0.32092(11)
H6 H 0.7455 0.3113 0.2820
C7 C 0.80536(16) 0.4368(2) 0.50057(11)
C8 C 0.86695(18) 0.3947(2) 0.54689(12)
H7 H 0.9096 0.3439 0.5426
C9 C 0.8555(2) 0.4407(3) 0.60024(14)
H8 H 0.8892 0.4268 0.6391
C10 C 0.7886(2) 0.5106(3) 0.58805(14)
H9 H 0.7673 0.5528 0.6169
C11 C 0.75708(18) 0.5092(3) 0.52668(14)
H10 H 0.7103 0.5503 0.5058
C12 C 0.8880(2) 0.7330(3) 0.56871(18)
H11 H 0.8586 0.7757 0.5925
C13 C 0.9567(2) 0.6706(3) 0.59014(15)
H12 H 0.9840 0.6623 0.6313
C14 C 0.98024(19) 0.6228(3) 0.54158(14)
H13 H 1.0266 0.5750 0.5430
C15 C 0.9253(2) 0.6566(3) 0.49084(14)
H14 H 0.9265 0.6356 0.4507
C16 C 0.8682(2) 0.7242(3) 0.50713(17)
H15 H 0.8230 0.7597 0.4807
C17 C 0.44939(17) 0.5774(3) 0.37191(10)
H16 H 0.4126 0.6229 0.3474
C18 C 0.44668(18) 0.5700(3) 0.43021(11)
H17 H 0.4084 0.6098 0.4438
C19 C 0.50028(13) 0.50414(19) 0.46835(9)
C20 C 0.55487(15) 0.4476(2) 0.44419(10)
H18 H 0.5924 0.4013 0.4676
C21 C 0.55385(15) 0.4595(2) 0.38567(10)
H19 H 0.5916 0.4212 0.3709
C22 C 0.55442(14) 0.27924(19) 0.23044(11)
H20 H 0.5924 0.3187 0.2165
C23 C 0.55689(14) 0.16296(19) 0.22999(11)
H21 H 0.5962 0.1258 0.2164
C24 C 0.5000 0.1013(2) 0.2500
C25 C 0.5000 -0.0238(2) 0.2500
C26 C 0.56983(12) -0.08535(18) 0.25685(10)
H22 H 0.6178 -0.0481 0.2612
C27 C 0.56730(13) -0.20216(18) 0.25711(10)
H23 H 0.6146 -0.2415 0.2625
Cd1_2 Cd 0.5000 -0.461007(16) 0.2500
Cd1F Cd 0.5000 0.461007(16) 0.7500
Fe1B Fe 0.13017(2) 0.56846(3) -0.044857(17)
S1B S 0.28109(3) 0.54753(5) 0.22126(3)
O1B O 0.36540(10) 0.54553(16) 0.23011(9)
O2B O 0.25515(16) 0.5109(3) 0.27141(10)
O3B O 0.24951(15) 0.65535(19) 0.19991(12)
N1D N 0.49832(11) 0.47708(15) 0.65070(7)
N1B N 0.49832(11) 0.52292(15) 0.15070(7)
N3_2 N 0.5000 0.7385(2) 0.2500
C1B C 0.24754(13) 0.44751(19) 0.16466(10)
C2B C 0.23073(13) 0.4828(2) 0.10694(10)
H3B H 0.2331 0.5590 0.0982
C3B C 0.21021(13) 0.4037(2) 0.06180(10)
C4B C 0.20850(15) 0.2901(2) 0.07668(11)
H4B H 0.1963 0.2363 0.0472
C5B C 0.22456(15) 0.2556(2) 0.13461(11)
H5B H 0.2223 0.1794 0.1435
C6B C 0.24396(14) 0.3339(2) 0.17908(11)
H6B H 0.2545 0.3113 0.2180
C7B C 0.19464(16) 0.4368(2) -0.00057(11)
C8B C 0.13305(18) 0.3947(2) -0.04689(12)
H7B H 0.0904 0.3439 -0.0426
C9B C 0.1445(2) 0.4407(3) -0.10024(14)
H8B H 0.1108 0.4268 -0.1391
C10B C 0.2114(2) 0.5106(3) -0.08805(14)
H9B H 0.2327 0.5528 -0.1169
C11B C 0.24292(18) 0.5092(3) -0.02668(14)
H10B H 0.2897 0.5503 -0.0058
C12B C 0.1120(2) 0.7330(3) -0.06871(18)
H11B H 0.1414 0.7757 -0.0925
C13B C 0.0433(2) 0.6706(3) -0.09014(15)
H12B H 0.0160 0.6623 -0.1313
C14B C 0.01976(19) 0.6228(3) -0.04158(14)
H13B H -0.0266 0.5750 -0.0430
C15B C 0.0747(2) 0.6566(3) 0.00916(14)
H14B H 0.0735 0.6356 0.0493
C16B C 0.1318(2) 0.7242(3) -0.00713(17)
H15B H 0.1770 0.7597 0.0193
C17D C 0.55061(17) 0.4226(3) 0.62809(10)
H16D H 0.5874 0.3771 0.6526
C18D C 0.55332(18) 0.4300(3) 0.56979(11)
H17D H 0.5916 0.3902 0.5562
C19D C 0.49972(13) 0.49586(19) 0.53165(9)
C20D C 0.44513(15) 0.5524(2) 0.55581(10)
H18D H 0.4076 0.5987 0.5324
C21D C 0.44615(15) 0.5405(2) 0.61433(10)
H19D H 0.4084 0.5788 0.6291
C22B C 0.44558(14) 0.27924(19) 0.26956(11)
H20B H 0.4076 0.3187 0.2835
C23B C 0.44311(14) 0.16296(19) 0.27001(11)
H21B H 0.4038 0.1258 0.2836
C26B C 0.43017(12) -0.08535(18) 0.24315(10)
H22B H 0.3822 -0.0481 0.2388
C27B C 0.43270(13) -0.20216(18) 0.24289(10)
H23B H 0.3854 -0.2415 0.2375
O4 O 0.3296(5) 0.3299(9) 0.3597(4)
H1 H 0.3532 0.2798 0.3438
H2 H 0.2942 0.3553 0.3298
loop_
_geom_bond_atom_site_label_1
_geom_bond_atom_site_label_2
_geom_bond_site_symmetry_1
_geom_bond_site_symmetry_2
Cd1 O1 1_555 1_555
Fe1 C7 1_555 1_555
S1 O1 1_555 1_555
O2 S1 1_555 1_555
O3 S1 1_555 1_555
O4 H1 1_555 1_555
H2 O4 1_555 1_555
N1 Cd1 1_555 1_555
N2 Cd1 1_555 1_555
N3 C27 1_555 1_555
C1 S1 1_555 1_555
C2 C1 1_555 1_555
H3 C2 1_555 1_555
C3 C2 1_555 1_555
C4 C3 1_555 1_555
H4 C4 1_555 1_555
C5 C4 1_555 1_555
H5 C5 1_555 1_555
C6 C1 1_555 1_555
H6 C6 1_555 1_555
C7 C3 1_555 1_555
C8 Fe1 1_555 1_555
H7 C8 1_555 1_555
C9 Fe1 1_555 1_555
H8 C9 1_555 1_555
C10 Fe1 1_555 1_555
H9 C10 1_555 1_555
C11 Fe1 1_555 1_555
H10 C11 1_555 1_555
C12 Fe1 1_555 1_555
H11 C12 1_555 1_555
C13 Fe1 1_555 1_555
H12 C13 1_555 1_555
C14 Fe1 1_555 1_555
H13 C14 1_555 1_555
C15 Fe1 1_555 1_555
H14 C15 1_555 1_555
C16 Fe1 1_555 1_555
H15 C16 1_555 1_555
C17 N1 1_555 1_555
H16 C17 1_555 1_555
C18 C17 1_555 1_555
H17 C18 1_555 1_555
C19 C18 1_555 1_555
C20 C19 1_555 1_555
H18 C20 1_555 1_555
C21 N1 1_555 1_555
H19 C21 1_555 1_555
C22 N2 1_555 1_555
H20 C22 1_555 1_555
C23 C22 1_555 1_555
H21 C23 1_555 1_555
C24 C23 1_555 1_555
C25 C24 1_555 1_555
C26 C25 1_555 1_555
H22 C26 1_555 1_555
C27 C26 1_555 1_555
H23 C27 1_555 1_555
Cd1_2 N3 1_555 1_555
Cd1F N1D 1_555 1_555
Fe1B C7B 1_555 1_555
S1B O1B 1_555 1_555
O1B Cd1 1_555 1_555
O2B S1B 1_555 1_555
O3B S1B 1_555 1_555
N1D C17D 1_555 1_555
N1B Cd1 1_555 1_555
N3_2 Cd1 1_555 1_555
C1B S1B 1_555 1_555
C2B C1B 1_555 1_555
H3B C2B 1_555 1_555
C3B C2B 1_555 1_555
C4B C3B 1_555 1_555
H4B C4B 1_555 1_555
C5B C4B 1_555 1_555
H5B C5B 1_555 1_555
C6B C1B 1_555 1_555
H6B C6B 1_555 1_555
C7B C3B 1_555 1_555
C8B Fe1B 1_555 1_555
H7B C8B 1_555 1_555
C9B Fe1B 1_555 1_555
H8B C9B 1_555 1_555
C10B Fe1B 1_555 1_555
H9B C10B 1_555 1_555
C11B Fe1B 1_555 1_555
H10B C11B 1_555 1_555
C12B Fe1B 1_555 1_555
H11B C12B 1_555 1_555
C13B Fe1B 1_555 1_555
H12B C13B 1_555 1_555
C14B Fe1B 1_555 1_555
H13B C14B 1_555 1_555
C15B Fe1B 1_555 1_555
H14B C15B 1_555 1_555
C16B Fe1B 1_555 1_555
H15B C16B 1_555 1_555
C17D H16D 1_555 1_555
C18D C17D 1_555 1_555
H17D C18D 1_555 1_555
C19D C19 1_555 1_555
C20D C19D 1_555 1_555
H18D C20D 1_555 1_555
C21D N1D 1_555 1_555
H19D C21D 1_555 1_555
C22B N2 1_555 1_555
H20B C22B 1_555 1_555
C23B C24 1_555 1_555
H21B C23B 1_555 1_555
C26B C25 1_555 1_555
H22B C26B 1_555 1_555
C27B N3 1_555 1_555
H23B C27B 1_555 1_555
C5 C6 1_555 1_555
C7 C8 1_555 1_555
C7 C11 1_555 1_555
C8 C9 1_555 1_555
C9 C10 1_555 1_555
C10 C11 1_555 1_555
C12 C13 1_555 1_555
C12 C16 1_555 1_555
C13 C14 1_555 1_555
C14 C15 1_555 1_555
C15 C16 1_555 1_555
C20 C21 1_555 1_555
C5B C6B 1_555 1_555
C7B C8B 1_555 1_555
C7B C11B 1_555 1_555
C8B C9B 1_555 1_555
C9B C10B 1_555 1_555
C10B C11B 1_555 1_555
C12B C13B 1_555 1_555
C12B C16B 1_555 1_555
C13B C14B 1_555 1_555
C14B C15B 1_555 1_555
C15B C16B 1_555 1_555
C18D C19D 1_555 1_555
C20D C21D 1_555 1_555
C22B C23B 1_555 1_555
C26B C27B 1_555 1_555

#END
