
#######################################################################
#
#                 Cambridge Crystallographic Data Centre
#                                CCDC 
#
#######################################################################
#
# If this CIF has been generated from an entry in the Cambridge 
# Structural Database, then it will include bibliographic, chemical, 
# crystal, experimental, refinement or atomic coordinate data resulting 
# from the CCDC's data processing and validation procedures.
#
#######################################################################

data_QIZLAN
_symmetry_cell_setting           monoclinic
_symmetry_space_group_name_H-M   'C 2/c'
_symmetry_Int_Tables_number      15
_space_group_name_Hall           '-C 2yn'
loop_
_symmetry_equiv_pos_site_id
_symmetry_equiv_pos_as_xyz
1 x,y,z
2 1/2+x,1/2+y,z
3 -x,y,1/2-z
4 1/2-x,1/2+y,1/2-z
5 -x,-y,-z
6 1/2-x,1/2-y,-z
7 x,-y,1/2+z
8 1/2+x,1/2-y,1/2+z
_cell_length_a                   17.2333(16)
_cell_length_b                   11.6743(11)
_cell_length_c                   22.857(2)
_cell_angle_alpha                90
_cell_angle_beta                 101.5120(10)
_cell_angle_gamma                90
_cell_volume                     4506.02
loop_
_atom_site_label
_atom_site_type_symbol
_atom_site_fract_x
_atom_site_fract_y
_atom_site_fract_z
Zn1 Zn 0.0000 -0.46747(4) -0.2500
Fe1 Fe -0.36883(3) -0.42626(4) -0.54494(2)
S1 S -0.21153(4) -0.45978(7) -0.27634(4)
O1 O -0.12574(10) -0.46576(16) -0.27004(9)
O2 O -0.23692(15) -0.5000(2) -0.22401(11)
O3 O -0.24163(13) -0.34850(18) -0.29659(11)
N1 N 0.0000 -0.2739(2) -0.2500
N2 N 0.0000 0.3384(3) -0.2500
N3 N -0.00025(13) -0.51949(18) 0.15608(10)
C1 C -0.4548(2) -0.3197(3) -0.58752(18)
H1 H -0.4813 -0.3251 -0.6295
C2 C -0.3852(2) -0.2580(3) -0.5654(2)
H2 H -0.3550 -0.2123 -0.5891
C3 C -0.4800(2) -0.3721(3) -0.53928(18)
H3 H -0.5269 -0.4206 -0.5417
C4 C -0.3670(2) -0.2727(3) -0.5030(2)
H4 H -0.3216 -0.2395 -0.4757
C5 C -0.4255(2) -0.3427(3) -0.48673(17)
H5 H -0.4277 -0.3674 -0.4461
C6 C -0.36496(19) -0.6021(3) -0.55019(15)
H6 H -0.4077 -0.6549 -0.5459
C7 C -0.30375(18) -0.5618(2) -0.50298(14)
C8 C -0.2871(2) -0.4804(3) -0.59170(17)
H7 H -0.2657 -0.4355 -0.6210
C9 C -0.3536(2) -0.5516(3) -0.60379(16)
H8 H -0.3872 -0.5637 -0.6432
C10 C -0.2554(2) -0.4865(3) -0.52980(16)
H9 H -0.2084 -0.4455 -0.5087
C11 C -0.26542(16) -0.5205(2) -0.39302(14)
H10 H -0.2621 -0.4428 -0.4012
C12 C -0.24767(15) -0.5580(2) -0.33469(13)
C13 C -0.28830(16) -0.5977(2) -0.43996(13)
C14 C -0.25364(16) -0.6730(2) -0.32052(14)
H11 H -0.2435 -0.6974 -0.2810
C15 C -0.27511(17) -0.7502(2) -0.36689(15)
H12 H -0.2784 -0.8278 -0.3584
C16 C -0.29173(17) -0.7139(2) -0.42547(14)
H13 H -0.3055 -0.7674 -0.4559
C17 C -0.06762(17) -0.2118(2) -0.25613(13)
H14 H -0.1154 -0.2511 -0.2610
C18 C -0.06977(16) -0.0942(2) -0.25555(13)
H15 H -0.1180 -0.0565 -0.2589
C19 C 0.0000 -0.0312(3) -0.2500
C20 C 0.0000 0.0969(3) -0.2500
C21 C -0.05789(16) 0.1593(2) -0.22923(14)
H16 H -0.0979 0.1217 -0.2150
C22 C -0.05535(17) 0.2780(2) -0.22997(14)
H17 H 0.0944 0.3180 -0.2843
C23 C 0.05259(18) -0.5739(3) 0.13120(13)
H18 H 0.0903 -0.6189 0.1556
C24 C 0.05490(18) -0.5677(3) 0.07118(13)
H19 H 0.0939 -0.6073 0.0567
C25 C -0.00011(16) -0.5031(2) 0.03245(12)
C26 C 0.05467(17) -0.5543(2) -0.05900(13)
H20 H 0.0928 -0.6005 -0.0358
C27 C 0.05319(17) -0.5438(2) -0.11910(13)
H21 H 0.0912 -0.5831 -0.1349
Zn1F Zn 0.0000 -0.53253(4) 0.2500
Zn1_2 Zn 0.0000 0.53253(4) -0.2500
Fe1B Fe 0.36883(3) -0.42626(4) 0.04494(2)
S1B S 0.21153(4) -0.45978(7) -0.22366(4)
O1B O 0.12574(10) -0.46576(16) -0.22996(9)
O2B O 0.23692(15) -0.5000(2) -0.27599(11)
O3B O 0.24163(13) -0.34850(18) -0.20341(11)
N2_2 N 0.0000 -0.6616(3) -0.2500
N3D N 0.00025(13) -0.48051(18) -0.15608(10)
N3F N -0.00025(13) -0.48051(18) -0.34392(10)
C1B C 0.4548(2) -0.3197(3) 0.08752(18)
H1B H 0.4813 -0.3251 0.1295
C2B C 0.3852(2) -0.2580(3) 0.0654(2)
H2B H 0.3550 -0.2123 0.0891
C3B C 0.4800(2) -0.3721(3) 0.03928(18)
H3B H 0.5269 -0.4206 0.0417
C4B C 0.3670(2) -0.2727(3) 0.0030(2)
H4B H 0.3216 -0.2395 -0.0243
C5B C 0.4255(2) -0.3427(3) -0.01327(17)
H5B H 0.4277 -0.3674 -0.0539
C6B C 0.36496(19) -0.6021(3) 0.05019(15)
H6B H 0.4077 -0.6549 0.0459
C7B C 0.30375(18) -0.5618(2) 0.00298(14)
C8B C 0.2871(2) -0.4804(3) 0.09170(17)
H7B H 0.2657 -0.4355 0.1210
C9B C 0.3536(2) -0.5516(3) 0.10379(16)
H8B H 0.3872 -0.5637 0.1432
C10B C 0.2554(2) -0.4865(3) 0.02980(16)
H9B H 0.2084 -0.4455 0.0087
C11B C 0.26542(16) -0.5205(2) -0.10698(14)
H10B H 0.2621 -0.4428 -0.0988
C12B C 0.24767(15) -0.5580(2) -0.16531(13)
C13B C 0.28830(16) -0.5977(2) -0.06004(13)
C14B C 0.25364(16) -0.6730(2) -0.17948(14)
H11B H 0.2435 -0.6974 -0.2190
C15B C 0.27511(17) -0.7502(2) -0.13311(15)
H12B H 0.2784 -0.8278 -0.1416
C16B C 0.29173(17) -0.7139(2) -0.07453(14)
H13B H 0.3055 -0.7674 -0.0441
C17B C 0.06762(17) -0.2118(2) -0.24387(13)
H14B H 0.1154 -0.2511 -0.2390
C18B C 0.06977(16) -0.0942(2) -0.24445(13)
H15B H 0.1180 -0.0565 -0.2411
C21B C 0.05789(16) 0.1593(2) -0.27077(14)
H16B H 0.0979 0.1217 -0.2850
C22B C 0.05535(17) 0.2780(2) -0.27003(14)
H17B H -0.0944 0.3180 -0.2157
C23D C -0.05259(18) -0.4261(3) -0.13120(13)
H18D H -0.0903 -0.3811 -0.1556
C24D C -0.05490(18) -0.4323(3) -0.07118(13)
H19D H -0.0939 -0.3927 -0.0567
C25D C 0.00011(16) -0.4969(2) -0.03245(12)
C26D C -0.05467(17) -0.4457(2) 0.05900(13)
H20D H -0.0928 -0.3995 0.0358
C27D C -0.05319(17) -0.4562(2) 0.11910(13)
H21D H -0.0912 -0.4169 0.1349
loop_
_geom_bond_atom_site_label_1
_geom_bond_atom_site_label_2
_geom_bond_site_symmetry_1
_geom_bond_site_symmetry_2
Zn1 O1 1_555 1_555
Fe1 C1 1_555 1_555
S1 O1 1_555 1_555
O2 S1 1_555 1_555
O3 S1 1_555 1_555
N1 Zn1 1_555 1_555
N2 C22 1_555 1_555
N3 C23 1_555 1_555
C1 H1 1_555 1_555
C2 Fe1 1_555 1_555
H2 C2 1_555 1_555
C3 Fe1 1_555 1_555
H3 C3 1_555 1_555
C4 Fe1 1_555 1_555
H4 C4 1_555 1_555
C5 Fe1 1_555 1_555
H5 C5 1_555 1_555
C6 Fe1 1_555 1_555
H6 C6 1_555 1_555
C7 Fe1 1_555 1_555
C8 Fe1 1_555 1_555
H7 C8 1_555 1_555
C9 Fe1 1_555 1_555
H8 C9 1_555 1_555
C10 Fe1 1_555 1_555
H9 C10 1_555 1_555
C11 H10 1_555 1_555
C12 S1 1_555 1_555
C13 C7 1_555 1_555
C14 C12 1_555 1_555
H11 C14 1_555 1_555
C15 C14 1_555 1_555
H12 C15 1_555 1_555
C16 C13 1_555 1_555
H13 C16 1_555 1_555
C17 N1 1_555 1_555
H14 C17 1_555 1_555
C18 C17 1_555 1_555
H15 C18 1_555 1_555
C19 C18 1_555 1_555
C20 C19 1_555 1_555
C21 C20 1_555 1_555
H16 C21 1_555 1_555
C22 C21 1_555 1_555
H17 C22B 1_555 1_555
C23 H18 1_555 1_555
C24 C23 1_555 1_555
H19 C24 1_555 1_555
C25 C24 1_555 1_555
C26 H20 1_555 1_555
C27 C26 1_555 1_555
H21 C27 1_555 1_555
Zn1F N3 1_555 1_555
Zn1_2 N2 1_555 1_555
Fe1B C1B 1_555 1_555
S1B O1B 1_555 1_555
O1B Zn1 1_555 1_555
O2B S1B 1_555 1_555
O3B S1B 1_555 1_555
N2_2 Zn1 1_555 1_555
N3D Zn1 1_555 1_555
N3F Zn1 1_555 1_555
C1B H1B 1_555 1_555
C2B Fe1B 1_555 1_555
H2B C2B 1_555 1_555
C3B Fe1B 1_555 1_555
H3B C3B 1_555 1_555
C4B Fe1B 1_555 1_555
H4B C4B 1_555 1_555
C5B Fe1B 1_555 1_555
H5B C5B 1_555 1_555
C6B Fe1B 1_555 1_555
H6B C6B 1_555 1_555
C7B Fe1B 1_555 1_555
C8B Fe1B 1_555 1_555
H7B C8B 1_555 1_555
C9B Fe1B 1_555 1_555
H8B C9B 1_555 1_555
C10B Fe1B 1_555 1_555
H9B C10B 1_555 1_555
C11B H10B 1_555 1_555
C12B S1B 1_555 1_555
C13B C7B 1_555 1_555
C14B C12B 1_555 1_555
H11B C14B 1_555 1_555
C15B C14B 1_555 1_555
H12B C15B 1_555 1_555
C16B C13B 1_555 1_555
H13B C16B 1_555 1_555
C17B N1 1_555 1_555
H14B C17B 1_555 1_555
C18B C19 1_555 1_555
H15B C18B 1_555 1_555
C21B C20 1_555 1_555
H16B C21B 1_555 1_555
C22B N2 1_555 1_555
H17B C22 1_555 1_555
C23D N3D 1_555 1_555
H18D C23D 1_555 1_555
C24D C23D 1_555 1_555
H19D C24D 1_555 1_555
C25D C25 1_555 1_555
C26D C25 1_555 1_555
H20D C26D 1_555 1_555
C27D N3 1_555 1_555
H21D C27D 1_555 1_555
C1 C2 1_555 1_555
C1 C3 1_555 1_555
C2 C4 1_555 1_555
C3 C5 1_555 1_555
C4 C5 1_555 1_555
C6 C7 1_555 1_555
C6 C9 1_555 1_555
C7 C10 1_555 1_555
C8 C9 1_555 1_555
C8 C10 1_555 1_555
C11 C12 1_555 1_555
C11 C13 1_555 1_555
C15 C16 1_555 1_555
C26 C25D 1_555 1_555
C27 N3D 1_555 1_555
C1B C2B 1_555 1_555
C1B C3B 1_555 1_555
C2B C4B 1_555 1_555
C3B C5B 1_555 1_555
C4B C5B 1_555 1_555
C6B C7B 1_555 1_555
C6B C9B 1_555 1_555
C7B C10B 1_555 1_555
C8B C9B 1_555 1_555
C8B C10B 1_555 1_555
C11B C12B 1_555 1_555
C11B C13B 1_555 1_555
C15B C16B 1_555 1_555
C17B C18B 1_555 1_555
C21B C22B 1_555 1_555
C24D C25D 1_555 1_555
C26D C27D 1_555 1_555

#END
