
#######################################################################
#
#                 Cambridge Crystallographic Data Centre
#                                CCDC 
#
#######################################################################
#
# If this CIF has been generated from an entry in the Cambridge 
# Structural Database, then it will include bibliographic, chemical, 
# crystal, experimental, refinement or atomic coordinate data resulting 
# from the CCDC's data processing and validation procedures.
#
#######################################################################

data_QIZMUJ
_symmetry_cell_setting           triclinic
_symmetry_space_group_name_H-M   'P -1'
_symmetry_Int_Tables_number      2
_space_group_name_Hall           '-P 1'
loop_
_symmetry_equiv_pos_site_id
_symmetry_equiv_pos_as_xyz
1 x,y,z
2 -x,-y,-z
_cell_length_a                   10.4120(3)
_cell_length_b                   14.8610(6)
_cell_length_c                   15.6160(6)
_cell_angle_alpha                103.206(3)
_cell_angle_beta                 92.815(3)
_cell_angle_gamma                97.125(3)
_cell_volume                     2326.73
loop_
_atom_site_label
_atom_site_type_symbol
_atom_site_fract_x
_atom_site_fract_y
_atom_site_fract_z
Cd1 Cd 1.13483(2) 0.776462(18) 0.482010(17)
Cd2 Cd 1.05645(3) 0.822692(18) 0.285332(18)
Cd3 Cd 1.39743(2) 0.933359(17) 0.408752(16)
Cd4 Cd 1.36600(2) 0.915350(17) 0.660679(16)
C1 C 0.7535(3) 0.6931(2) 0.5287(2)
C2 C 0.6513(3) 0.7332(2) 0.5003(2)
H1 H 0.6663 0.7765 0.4661
C3 C 0.5279(3) 0.7093(2) 0.5225(2)
C4 C 0.5032(3) 0.6433(2) 0.5725(2)
H2 H 0.4199 0.6281 0.5886
C5 C 0.6056(3) 0.6006(2) 0.5979(3)
C6 C 0.7304(3) 0.6261(2) 0.5764(2)
H3 H 0.7987 0.5980 0.5943
C7 C 0.8887(3) 0.7250(2) 0.5103(2)
C8 C 0.4206(3) 0.7589(2) 0.4960(2)
C9 C 0.4707(4) 0.5091(3) 0.6739(3)
H4 H 0.4106 0.4790 0.6231
H5 H 0.4375 0.5645 0.7054
C10 C 0.4832(3) 0.4433(2) 0.7335(3)
C11 C 0.5829(4) 0.4619(3) 0.7995(3)
H6 H 0.6450 0.5142 0.8061
C12 C 0.5905(4) 0.4024(2) 0.8562(3)
H7 H 0.6579 0.4154 0.9005
C13 C 0.4997(3) 0.3244(2) 0.8476(2)
C14 C 0.3989(3) 0.3073(2) 0.7817(2)
H8 H 0.3362 0.2553 0.7749
C15 C 0.3912(3) 0.3671(2) 0.7266(2)
H9 H 0.3221 0.3555 0.6837
C16 C 0.5054(3) 0.2620(2) 0.9097(2)
C17 C 0.5233(4) 0.3018(3) 1.0001(2)
H10 H 0.5358 0.3665 1.0194
C18 C 0.5230(4) 0.2489(3) 1.0615(3)
H11 H 0.5356 0.2775 1.1214
C19 C 0.5038(5) 0.1531(3) 1.0334(3)
H12 H 0.5034 0.1165 1.0744
C20 C 0.4851(5) 0.1117(3) 0.9449(3)
H13 H 0.4710 0.0469 0.9265
C21 C 0.4869(3) 0.1650(2) 0.8821(2)
C22 C 0.4724(4) 0.1125(2) 0.7861(3)
C23 C 0.9836(3) 0.8498(2) -0.2727(2)
C24 C 0.8745(3) 0.8798(2) -0.3047(2)
H14 H 0.8807 0.9130 -0.3485
C25 C 0.7561(3) 0.8606(2) -0.2716(2)
C26 C 0.7460(3) 0.8099(2) -0.2070(2)
H15 H 0.6661 0.7962 -0.1854
C27 C 0.8559(3) 0.7801(2) -0.1750(2)
C28 C 0.9740(3) 0.8002(2) -0.2072(2)
H16 H 1.0475 0.7807 -0.1852
C29 C 1.1135(3) 0.8696(2) -0.3061(2)
C30 C 0.6373(3) 0.8939(2) -0.3059(2)
C31 C 0.9476(4) 0.6936(3) -0.0831(3)
H17 H 1.0200 0.7432 -0.0635
H18 H 0.9723 0.6492 -0.1332
C32 C 0.9192(3) 0.6455(2) -0.0094(2)
C33 C 0.7971(3) 0.6103(2) 0.0067(2)
H19 H 0.7256 0.6185 -0.0273
C34 C 0.7784(3) 0.5629(2) 0.0728(2)
H20 H 0.6947 0.5397 0.0825
C35 C 0.8834(3) 0.5497(2) 0.1247(2)
C36 C 1.0069(3) 0.5844(2) 0.1067(2)
H21 H 1.0789 0.5752 0.1396
C37 C 1.0251(4) 0.6322(2) 0.0413(2)
H22 H 1.1086 0.6555 0.0312
C38 C 0.8670(3) 0.4993(2) 0.1966(2)
C39 C 0.7943(3) 0.4112(2) 0.1787(2)
H23 H 0.7515 0.3866 0.1230
C40 C 0.7840(3) 0.3594(3) 0.2417(3)
H24 H 0.7334 0.3011 0.2288
C41 C 0.8494(4) 0.3947(3) 0.3239(3)
H25 H 0.8438 0.3596 0.3662
C42 C 0.9230(4) 0.4817(3) 0.3438(3)
H26 H 0.9677 0.5048 0.3991
C43 C 0.9301(3) 0.5349(2) 0.2810(2)
C44 C 0.9973(4) 0.6337(3) 0.3088(2)
C45 C 0.9194(5) 0.9005(4) 0.1438(4)
H27 H 0.8470 0.8820 0.1714
C46 C 0.9033(5) 0.9450(5) 0.0760(4)
H28 H 0.8206 0.9546 0.0581
C47 C 1.0065(4) 0.9744(3) 0.0358(3)
C48 C 1.1255(5) 0.9578(4) 0.0644(3)
H29 H 1.1997 0.9773 0.0391
C49 C 1.1339(5) 0.9116(4) 0.1313(3)
H30 H 1.2152 0.8997 0.1493
N1 N 1.0340(3) 0.8837(2) 0.1705(2)
O1 O 0.9086(2) 0.78976(17) 0.47094(17)
O2 O 0.9806(2) 0.68690(18) 0.53537(17)
O3 O 0.4310(2) 0.79028(17) 0.42900(17)
O4 O 0.3257(2) 0.76635(16) 0.54456(16)
O5 O 0.3712(3) 0.0566(2) 0.7608(2)
O6 O 0.5641(2) 0.12583(17) 0.73917(16)
O7 O 0.5932(2) 0.53413(19) 0.6461(2)
O8 O 1.1233(2) 0.89817(17) -0.37655(16)
O9 O 1.2119(2) 0.85822(17) -0.26202(17)
O10 O 0.6488(3) 0.93627(18) -0.36618(17)
O11 O 0.5323(2) 0.87546(19) -0.27298(18)
O12 O 0.9396(2) 0.69289(17) 0.28126(17)
O13 O 1.1012(3) 0.65293(18) 0.35695(17)
O14 O 0.8374(2) 0.73181(19) -0.10948(18)
O15 O 1.1797(2) 0.88660(16) 0.40550(16)
H31 H 1.143(3) 0.9275(19) 0.434(2)
O16 O 1.3945(2) 0.99524(16) 0.55743(16)
H32 H 1.352(3) 1.0386(18) 0.572(2)
O17 O 1.2289(3) 0.7483(2) 0.23195(19)
H33 H 1.2410 0.7105 0.2640
H34 H 1.2985 0.7864 0.2372
O18 O 0.8628(3) 0.8845(2) 0.3409(2)
H35 H 0.8622 0.8393 0.3659
H36 H 0.9017 0.9331 0.3769
C45A C 1.0806(5) 1.0995(4) -0.1438(4)
H27A H 1.1530 1.1180 -0.1714
C46A C 1.0967(5) 1.0550(5) -0.0760(4)
H28A H 1.1794 1.0454 -0.0581
C47A C 0.9935(4) 1.0256(3) -0.0358(3)
C48A C 0.8745(5) 1.0422(4) -0.0644(3)
H29A H 0.8003 1.0227 -0.0391
C49A C 0.8661(5) 1.0884(4) -0.1313(3)
H30A H 0.7848 1.1003 -0.1493
N1A N 0.9660(3) 1.1163(2) -0.1705(2)
Cd1A Cd 0.86517(2) 0.223538(18) 0.517990(17)
Cd2A Cd 0.94355(3) 0.177308(18) 0.714668(18)
Cd3A Cd 0.60257(2) 0.066641(17) 0.591248(16)
Cd4A Cd 0.63400(2) 0.084650(17) 0.339321(16)
C1A C 1.2465(3) 0.3069(2) 0.4713(2)
C2A C 1.3487(3) 0.2668(2) 0.4997(2)
H1A H 1.3337 0.2235 0.5339
C3A C 1.4721(3) 0.2907(2) 0.4775(2)
C4A C 1.4968(3) 0.3567(2) 0.4275(2)
H2A H 1.5801 0.3719 0.4114
C5A C 1.3944(3) 0.3994(2) 0.4021(3)
C6A C 1.2696(3) 0.3739(2) 0.4236(2)
H3A H 1.2013 0.4020 0.4057
C7A C 1.1113(3) 0.2750(2) 0.4897(2)
C8A C 1.5794(3) 0.2411(2) 0.5040(2)
C9A C 1.5293(4) 0.4909(3) 0.3261(3)
H4A H 1.5894 0.5210 0.3769
H5A H 1.5625 0.4355 0.2946
C10A C 1.5168(3) 0.5567(2) 0.2665(3)
C11A C 1.4171(4) 0.5381(3) 0.2005(3)
H6A H 1.3550 0.4858 0.1939
C12A C 1.4095(4) 0.5976(2) 0.1438(3)
H7A H 1.3421 0.5846 0.0995
C13A C 1.5003(3) 0.6756(2) 0.1524(2)
C14A C 1.6011(3) 0.6927(2) 0.2183(2)
H8A H 1.6638 0.7447 0.2251
C15A C 1.6088(3) 0.6329(2) 0.2734(2)
H9A H 1.6779 0.6445 0.3163
C16A C 1.4946(3) 0.7380(2) 0.0903(2)
C17A C 1.4767(4) 0.6982(3) -0.0001(2)
H10A H 1.4642 0.6335 -0.0194
C18A C 1.4770(4) 0.7511(3) -0.0615(3)
H11A H 1.4644 0.7225 -0.1214
C19A C 1.4962(5) 0.8469(3) -0.0334(3)
H12A H 1.4966 0.8835 -0.0744
C20A C 1.5149(5) 0.8883(3) 0.0551(3)
H13A H 1.5290 0.9531 0.0735
C21A C 1.5131(3) 0.8350(2) 0.1179(2)
C22A C 1.5276(4) 0.8875(2) 0.2139(3)
C23A C 1.0164(3) 0.1502(2) 1.2727(2)
C24A C 1.1255(3) 0.1202(2) 1.3047(2)
H14A H 1.1193 0.0870 1.3485
C25A C 1.2439(3) 0.1394(2) 1.2716(2)
C26A C 1.2540(3) 0.1901(2) 1.2070(2)
H15A H 1.3339 0.2038 1.1854
C27A C 1.1441(3) 0.2199(2) 1.1750(2)
C28A C 1.0260(3) 0.1998(2) 1.2072(2)
H16A H 0.9525 0.2193 1.1852
C29A C 0.8865(3) 0.1304(2) 1.3061(2)
C30A C 1.3627(3) 0.1061(2) 1.3059(2)
C31A C 1.0524(4) 0.3064(3) 1.0831(3)
H17A H 0.9800 0.2568 1.0635
H18A H 1.0277 0.3508 1.1332
C32A C 1.0808(3) 0.3545(2) 1.0094(2)
C33A C 1.2029(3) 0.3897(2) 0.9933(2)
H19A H 1.2744 0.3815 1.0273
C34A C 1.2216(3) 0.4371(2) 0.9272(2)
H20A H 1.3053 0.4603 0.9175
C35A C 1.1166(3) 0.4503(2) 0.8753(2)
C36A C 0.9931(3) 0.4156(2) 0.8933(2)
H21A H 0.9211 0.4248 0.8604
C37A C 0.9749(4) 0.3678(2) 0.9587(2)
H22A H 0.8914 0.3445 0.9688
C38A C 1.1330(3) 0.5007(2) 0.8034(2)
C39A C 1.2057(3) 0.5888(2) 0.8213(2)
H23A H 1.2485 0.6134 0.8770
C40A C 1.2160(3) 0.6406(3) 0.7583(3)
H24A H 1.2666 0.6989 0.7712
C41A C 1.1506(4) 0.6053(3) 0.6761(3)
H25A H 1.1562 0.6404 0.6338
C42A C 1.0770(4) 0.5183(3) 0.6562(3)
H26A H 1.0323 0.4952 0.6009
C43A C 1.0699(3) 0.4651(2) 0.7190(2)
C44A C 1.0027(4) 0.3663(3) 0.6912(2)
O1A O 1.0914(2) 0.21024(17) 0.52906(17)
O2A O 1.0194(2) 0.31310(18) 0.46463(17)
O3A O 1.5690(2) 0.20972(17) 0.57100(17)
O4A O 1.6743(2) 0.23365(16) 0.45544(16)
O5A O 1.6288(3) 0.9434(2) 0.2392(2)
O6A O 1.4359(2) 0.87417(17) 0.26083(16)
O7A O 1.4068(2) 0.46587(19) 0.3539(2)
O8A O 0.8767(2) 0.10183(17) 1.37655(16)
O9A O 0.7881(2) 0.14178(17) 1.26202(17)
O10A O 1.3512(3) 0.06373(18) 1.36618(17)
O11A O 1.4677(2) 0.12454(19) 1.27298(18)
O12A O 1.0604(2) 0.30711(17) 0.71874(17)
O13A O 0.8988(3) 0.34707(18) 0.64305(17)
O14A O 1.1626(2) 0.26819(19) 1.10948(18)
O15A O 0.8203(2) 0.11340(16) 0.59450(16)
H31A H 0.857(3) 0.0725(19) 0.566(2)
O16A O 0.6055(2) 0.00476(16) 0.44257(16)
H32A H 0.648(3) -0.0386(18) 0.428(2)
O17A O 0.7711(3) 0.2517(2) 0.76805(19)
H33A H 0.7590 0.2895 0.7360
H34A H 0.7015 0.2136 0.7628
O18A O 1.1372(3) 0.1155(2) 0.6591(2)
H35A H 1.1378 0.1607 0.6341
H36A H 1.0983 0.0669 0.6231
Cd1_2 Cd 0.13483(2) 0.776462(18) 0.482010(17)
Cd1_3 Cd 1.13483(2) 0.776462(18) -0.517990(17)
Cd1A_2 Cd 0.86517(2) 0.223538(18) 1.517990(17)
Cd1A_3 Cd 1.86517(2) 0.223538(18) 0.517990(17)
Cd2A_2 Cd 0.94355(3) 1.177308(18) -0.285332(18)
Cd3_2 Cd 0.39743(2) -0.066641(17) 0.408752(16)
Cd3_3 Cd 0.39743(2) 0.933359(17) 0.408752(16)
Cd3_4 Cd 1.39743(2) -0.066641(17) 1.408752(16)
Cd3A_2 Cd 0.60257(2) 1.066641(17) -0.408752(16)
Cd3A_3 Cd 1.60257(2) 0.066641(17) 0.591248(16)
Cd3A_4 Cd 1.60257(2) 1.066641(17) 0.591248(16)
Cd4_2 Cd 0.36600(2) -0.084650(17) 0.660679(16)
Cd4_3 Cd 0.36600(2) 0.915350(17) -0.339321(16)
Cd4_4 Cd 0.36600(2) 0.915350(17) 0.660679(16)
Cd4_5 Cd 1.36600(2) 0.915350(17) -0.339321(16)
Cd4A_2 Cd 0.63400(2) 0.084650(17) 1.339321(16)
Cd4A_3 Cd 1.63400(2) 0.084650(17) 0.339321(16)
Cd4A_4 Cd 1.63400(2) 0.084650(17) 1.339321(16)
Cd4A_5 Cd 1.63400(2) 1.084650(17) 0.339321(16)
N1A_2 N 0.9660(3) 0.1163(2) 0.8295(2)
O3_2 O 1.4310(2) 0.79028(17) 0.42900(17)
O3A_2 O 0.5690(2) 0.20972(17) 0.57100(17)
O4_2 O 1.3257(2) 0.76635(16) 0.54456(16)
O4A_2 O 0.6743(2) 0.23365(16) 0.45544(16)
O5_2 O 1.3712(3) 1.0566(2) 0.7608(2)
O5A_2 O 0.6288(3) -0.0566(2) 0.2392(2)
O8_2 O 1.1233(2) 0.89817(17) 0.62345(16)
O8A_2 O 0.8767(2) 0.10183(17) 0.37655(16)
O9_2 O 1.2119(2) 0.85822(17) 0.73798(17)
O9A_2 O 0.7881(2) 0.14178(17) 0.26202(17)
O10_2 O 0.6488(3) -0.06373(18) 0.63382(17)
O10A_2 O 1.3512(3) 1.06373(18) 0.36618(17)
O11_2 O 1.5323(2) 0.87546(19) 0.72702(18)
O11A_2 O 0.4677(2) 0.12454(19) 0.27298(18)
O16_2 O 0.3945(2) -0.00476(16) 0.55743(16)
O16A_2 O 1.6055(2) 1.00476(16) 0.44257(16)
O19 O 0.0000 0.0000 0.5000
loop_
_geom_bond_atom_site_label_1
_geom_bond_atom_site_label_2
_geom_bond_site_symmetry_1
_geom_bond_site_symmetry_2
Cd1 O1 1_555 1_555
Cd2 N1 1_555 1_555
Cd3 O15 1_555 1_555
Cd4 O16 1_555 1_555
C1 C2 1_555 1_555
C2 H1 1_555 1_555
C3 C2 1_555 1_555
C4 C3 1_555 1_555
H2 C4 1_555 1_555
C5 C4 1_555 1_555
C6 C1 1_555 1_555
H3 C6 1_555 1_555
C7 C1 1_555 1_555
C8 C3 1_555 1_555
C9 H4 1_555 1_555
H5 C9 1_555 1_555
C10 C9 1_555 1_555
C11 C10 1_555 1_555
H6 C11 1_555 1_555
C12 C11 1_555 1_555
H7 C12 1_555 1_555
C13 C12 1_555 1_555
C14 C13 1_555 1_555
H8 C14 1_555 1_555
C15 C10 1_555 1_555
H9 C15 1_555 1_555
C16 C13 1_555 1_555
C17 C16 1_555 1_555
H10 C17 1_555 1_555
C18 C17 1_555 1_555
H11 C18 1_555 1_555
C19 C18 1_555 1_555
H12 C19 1_555 1_555
C20 C19 1_555 1_555
H13 C20 1_555 1_555
C21 C16 1_555 1_555
C22 C21 1_555 1_555
C23 C24 1_555 1_555
C24 H14 1_555 1_555
C25 C24 1_555 1_555
C26 C25 1_555 1_555
H15 C26 1_555 1_555
C27 C26 1_555 1_555
C28 C23 1_555 1_555
H16 C28 1_555 1_555
C29 C23 1_555 1_555
C30 C25 1_555 1_555
C31 H17 1_555 1_555
H18 C31 1_555 1_555
C32 C31 1_555 1_555
C33 C32 1_555 1_555
H19 C33 1_555 1_555
C34 C33 1_555 1_555
H20 C34 1_555 1_555
C35 C34 1_555 1_555
C36 C35 1_555 1_555
H21 C36 1_555 1_555
C37 C32 1_555 1_555
H22 C37 1_555 1_555
C38 C35 1_555 1_555
C39 C38 1_555 1_555
H23 C39 1_555 1_555
C40 C39 1_555 1_555
H24 C40 1_555 1_555
C41 C40 1_555 1_555
H25 C41 1_555 1_555
C42 C41 1_555 1_555
H26 C42 1_555 1_555
C43 C38 1_555 1_555
C44 C43 1_555 1_555
C45 H27 1_555 1_555
C46 C45 1_555 1_555
H28 C46 1_555 1_555
C47 C46 1_555 1_555
C48 C47 1_555 1_555
H29 C48 1_555 1_555
C49 C48 1_555 1_555
H30 C49 1_555 1_555
N1 C45 1_555 1_555
O1 C7 1_555 1_555
O2 Cd1 1_555 1_555
O3 C8 1_555 1_555
O4 C8 1_555 1_555
O5 C22 1_555 1_555
O6 C22 1_555 1_555
O7 C5 1_555 1_555
O8 C29 1_555 1_555
O9 C29 1_555 1_555
O10 C30 1_555 1_555
O11 C30 1_555 1_555
O12 Cd2 1_555 1_555
O13 Cd1 1_555 1_555
O14 C27 1_555 1_555
O15 Cd1 1_555 1_555
H31 O15 1_555 1_555
O16 Cd3 1_555 1_555
H32 O16 1_555 1_555
O17 Cd2 1_555 1_555
H33 O17 1_555 1_555
H34 O17 1_555 1_555
O18 Cd2 1_555 1_555
H35 O18 1_555 1_555
H36 O18 1_555 1_555
C45A H27A 1_555 1_555
C46A C45A 1_555 1_555
H28A C46A 1_555 1_555
C47A C47 1_555 1_555
C48A C47A 1_555 1_555
H29A C48A 1_555 1_555
C49A C48A 1_555 1_555
H30A C49A 1_555 1_555
N1A C45A 1_555 1_555
Cd1A O1A 1_555 1_555
Cd2A O12A 1_555 1_555
Cd3A O6 1_555 1_555
Cd4A O16A 1_555 1_555
C1A C2A 1_555 1_555
C2A H1A 1_555 1_555
C3A C2A 1_555 1_555
C4A C3A 1_555 1_555
H2A C4A 1_555 1_555
C5A C4A 1_555 1_555
C6A C1A 1_555 1_555
H3A C6A 1_555 1_555
C7A C1A 1_555 1_555
C8A C3A 1_555 1_555
C9A H4A 1_555 1_555
H5A C9A 1_555 1_555
C10A C9A 1_555 1_555
C11A C10A 1_555 1_555
H6A C11A 1_555 1_555
C12A C11A 1_555 1_555
H7A C12A 1_555 1_555
C13A C12A 1_555 1_555
C14A C13A 1_555 1_555
H8A C14A 1_555 1_555
C15A C10A 1_555 1_555
H9A C15A 1_555 1_555
C16A C13A 1_555 1_555
C17A C16A 1_555 1_555
H10A C17A 1_555 1_555
C18A C17A 1_555 1_555
H11A C18A 1_555 1_555
C19A C18A 1_555 1_555
H12A C19A 1_555 1_555
C20A C19A 1_555 1_555
H13A C20A 1_555 1_555
C21A C16A 1_555 1_555
C22A C21A 1_555 1_555
C23A C24A 1_555 1_555
C24A H14A 1_555 1_555
C25A C24A 1_555 1_555
C26A C25A 1_555 1_555
H15A C26A 1_555 1_555
C27A C26A 1_555 1_555
C28A C23A 1_555 1_555
H16A C28A 1_555 1_555
C29A C23A 1_555 1_555
C30A C25A 1_555 1_555
C31A H17A 1_555 1_555
H18A C31A 1_555 1_555
C32A C31A 1_555 1_555
C33A C32A 1_555 1_555
H19A C33A 1_555 1_555
C34A C33A 1_555 1_555
H20A C34A 1_555 1_555
C35A C34A 1_555 1_555
C36A C35A 1_555 1_555
H21A C36A 1_555 1_555
C37A C32A 1_555 1_555
H22A C37A 1_555 1_555
C38A C35A 1_555 1_555
C39A C38A 1_555 1_555
H23A C39A 1_555 1_555
C40A C39A 1_555 1_555
H24A C40A 1_555 1_555
C41A C40A 1_555 1_555
H25A C41A 1_555 1_555
C42A C41A 1_555 1_555
H26A C42A 1_555 1_555
C43A C38A 1_555 1_555
C44A C43A 1_555 1_555
O1A C7A 1_555 1_555
O2A Cd1A 1_555 1_555
O3A C8A 1_555 1_555
O4A C8A 1_555 1_555
O5A C22A 1_555 1_555
O6A Cd3 1_555 1_555
O7A C5A 1_555 1_555
O8A C29A 1_555 1_555
O9A C29A 1_555 1_555
O10A C30A 1_555 1_555
O11A C30A 1_555 1_555
O12A C44A 1_555 1_555
O13A Cd1A 1_555 1_555
O14A C27A 1_555 1_555
O15A Cd1A 1_555 1_555
H31A O15A 1_555 1_555
O16A Cd3A 1_555 1_555
H32A O16A 1_555 1_555
O17A Cd2A 1_555 1_555
H33A O17A 1_555 1_555
H34A O17A 1_555 1_555
O18A Cd2A 1_555 1_555
H35A O18A 1_555 1_555
H36A O18A 1_555 1_555
Cd1_2 O4 1_555 1_555
Cd1_3 O8 1_555 1_555
Cd1A_2 O8A 1_555 1_555
Cd1A_3 O4A 1_555 1_555
Cd2A_2 N1A 1_555 1_555
Cd3_2 O16A 1_555 1_555
Cd3_3 O3 1_555 1_555
Cd3_4 O10A 1_555 1_555
Cd3A_2 O10 1_555 1_555
Cd3A_3 O3A 1_555 1_555
Cd3A_4 O16 1_555 1_555
Cd4_2 O5 1_555 1_555
Cd4_3 O11 1_555 1_555
Cd4_4 O4 1_555 1_555
Cd4_5 O8 1_555 1_555
Cd4A_2 O8A 1_555 1_555
Cd4A_3 O4A 1_555 1_555
Cd4A_4 O11A 1_555 1_555
Cd4A_5 O5A 1_555 1_555
N1A_2 Cd2A 1_555 1_555
O3_2 Cd3 1_555 1_555
O3A_2 Cd3A 1_555 1_555
O4_2 Cd1 1_555 1_555
O4A_2 Cd1A 1_555 1_555
O5_2 Cd4 1_555 1_555
O5A_2 Cd4A 1_555 1_555
O8_2 Cd1 1_555 1_555
O8A_2 Cd1A 1_555 1_555
O9_2 Cd4 1_555 1_555
O9A_2 Cd4A 1_555 1_555
O10_2 Cd3A 1_555 1_555
O10A_2 Cd3 1_555 1_555
O11_2 Cd4 1_555 1_555
O11A_2 Cd4A 1_555 1_555
O16_2 Cd3A 1_555 1_555
O16A_2 Cd3 1_555 1_555
Cd2 O15 1_555 1_555
Cd4 O4_2 1_555 1_555
Cd4 O8_2 1_555 1_555
C5 C6 1_555 1_555
C7 O2 1_555 1_555
C9 O7 1_555 1_555
C14 C15 1_555 1_555
C20 C21 1_555 1_555
C27 C28 1_555 1_555
C31 O14 1_555 1_555
C36 C37 1_555 1_555
C42 C43 1_555 1_555
C44 O12 1_555 1_555
C44 O13 1_555 1_555
C49 N1 1_555 1_555
O9 Cd4_5 1_555 1_555
C46A C47A 1_555 1_555
C49A N1A 1_555 1_555
Cd2A O15A 1_555 1_555
Cd3A O15A 1_555 1_555
Cd4A O4A_2 1_555 1_555
Cd4A O8A_2 1_555 1_555
C5A C6A 1_555 1_555
C7A O2A 1_555 1_555
C9A O7A 1_555 1_555
C14A C15A 1_555 1_555
C20A C21A 1_555 1_555
C22A O6A 1_555 1_555
C27A C28A 1_555 1_555
C31A O14A 1_555 1_555
C36A C37A 1_555 1_555
C42A C43A 1_555 1_555
C44A O13A 1_555 1_555
O9A Cd4A_2 1_555 1_555
Cd3_2 O16_2 1_555 1_555
Cd3A_4 O16A_2 1_555 1_555
Cd4_2 O16_2 1_555 1_555
Cd4A_5 O16A_2 1_555 1_555

#END
