
#######################################################################
#
#                 Cambridge Crystallographic Data Centre
#                                CCDC 
#
#######################################################################
#
# If this CIF has been generated from an entry in the Cambridge 
# Structural Database, then it will include bibliographic, chemical, 
# crystal, experimental, refinement or atomic coordinate data resulting 
# from the CCDC's data processing and validation procedures.
#
#######################################################################

data_QIZNAQ
_symmetry_cell_setting           triclinic
_symmetry_space_group_name_H-M   'P -1'
_symmetry_Int_Tables_number      2
_space_group_name_Hall           '-P 1'
loop_
_symmetry_equiv_pos_site_id
_symmetry_equiv_pos_as_xyz
1 x,y,z
2 -x,-y,-z
_cell_length_a                   11.014(5)
_cell_length_b                   13.170(5)
_cell_length_c                   14.7730(8)
_cell_angle_alpha                88.002(4)
_cell_angle_beta                 83.199(4)
_cell_angle_gamma                86.478(3)
_cell_volume                     2122.97
loop_
_atom_site_label
_atom_site_type_symbol
_atom_site_fract_x
_atom_site_fract_y
_atom_site_fract_z
Cd1 Cd 0.5000 0.0000 0.0000
Cd2 Cd 0.21301(5) 0.09093(4) 0.15926(4)
Cd3 Cd 0.56407(5) -0.30943(4) 0.31689(4)
C1 C 0.4800(6) 0.3058(5) 0.0875(5)
C2 C 0.4792(6) 0.3822(5) 0.1494(5)
H1 H 0.4265 0.3806 0.2034
C3 C 0.5567(6) 0.4609(5) 0.1310(5)
C4 C 0.6353(7) 0.4634(5) 0.0512(5)
H2 H 0.6869 0.5167 0.0387
C5 C 0.6372(7) 0.3863(5) -0.0102(5)
C6 C 0.5590(6) 0.3084(5) 0.0072(5)
H3 H 0.5591 0.2576 -0.0350
C7 C 0.3992(6) 0.2201(5) 0.1064(5)
C8 C 0.5555(7) 0.5427(5) 0.1987(5)
C9 C 0.7316(8) 0.3098(6) -0.1445(6)
H4 H 0.6529 0.2985 -0.1645
H5 H 0.7580 0.2492 -0.1112
C10 C 0.8231(7) 0.3287(6) -0.2259(6)
C11 C 0.7994(7) 0.4026(6) -0.2899(6)
H6 H 0.7313 0.4476 -0.2787
C12 C 0.8747(7) 0.4111(6) -0.3705(6)
H7 H 0.8574 0.4625 -0.4127
C13 C 0.9760(6) 0.3444(5) -0.3898(5)
C14 C 1.0014(7) 0.2729(6) -0.3235(6)
H8 H 1.0707 0.2290 -0.3338
C15 C 0.9267(8) 0.2649(6) -0.2422(6)
H9 H 0.9463 0.2164 -0.1983
C16 C 1.0469(7) 0.3444(5) -0.4813(5)
C17 C 0.9862(7) 0.3639(6) -0.5572(6)
H10 H 0.9029 0.3828 -0.5489
C18 C 1.0444(8) 0.3565(6) -0.6446(6)
H11 H 1.0012 0.3715 -0.6943
C19 C 1.1669(8) 0.3269(6) -0.6580(6)
H12 H 1.2068 0.3199 -0.7167
C20 C 1.2293(8) 0.3078(6) -0.5838(6)
H13 H 1.3122 0.2879 -0.5927
C21 C 1.1716(7) 0.3175(5) -0.4957(6)
C22 C 1.2506(7) 0.3053(6) -0.4204(6)
C23 C 0.2380(6) -0.1108(5) -0.0718(5)
C24 C 0.2814(6) -0.1610(5) -0.1573(5)
C25 C 0.3727(7) -0.1254(6) -0.2189(6)
H14 H 0.4120 -0.0681 -0.2059
C26 C 0.4073(7) -0.1737(6) -0.3001(6)
H15 H 0.4705 -0.1496 -0.3411
C27 C 0.3479(6) -0.2575(6) -0.3205(5)
C28 C 0.2581(7) -0.2949(6) -0.2583(6)
H16 H 0.2193 -0.3526 -0.2711
C29 C 0.2252(7) -0.2473(6) -0.1772(6)
H17 H 0.1646 -0.2734 -0.1351
C30 C 0.4398(7) -0.2670(6) -0.4809(5)
H18 H 0.4715 -0.2030 -0.4852
C31 C 0.3898(7) -0.4135(6) -0.5138(6)
H19 H 0.3806 -0.4708 -0.5467
C32 C 0.3476(7) -0.4013(6) -0.4258(6)
H20 H 0.3053 -0.4476 -0.3869
C33 C 0.3757(6) -0.0922(5) 0.2827(5)
C34 C 0.3017(6) -0.0794(5) 0.3717(5)
C35 C 0.3013(8) 0.0087(6) 0.4177(6)
H21 H 0.3482 0.0610 0.3920
C36 C 0.2332(8) 0.0221(6) 0.5014(6)
H22 H 0.2344 0.0826 0.5317
C37 C 0.1639(6) -0.0543(5) 0.5393(5)
C38 C 0.1606(8) -0.1418(6) 0.4938(6)
H23 H 0.1117 -0.1931 0.5190
C39 C 0.2301(8) -0.1548(6) 0.4101(6)
H24 H 0.2282 -0.2152 0.3796
C40 C -0.0115(7) -0.0821(6) 0.6581(6)
H25 H -0.0532 -0.1242 0.6247
C41 C 0.0393(7) 0.0045(6) 0.7659(5)
H26 H 0.0381 0.0340 0.8223
C42 C 0.1278(7) 0.0135(6) 0.6956(5)
H27 H 0.1977 0.0499 0.6942
N1 N 0.2986(5) -0.0500(4) -0.0249(4)
N2 N 0.2165(5) -0.0241(5) 0.0473(4)
N3 N 0.1146(6) -0.0671(5) 0.0436(5)
N4 N 0.1253(6) -0.1221(5) -0.0308(5)
N5 N 0.3797(5) -0.3061(4) -0.4047(4)
N6 N 0.4483(6) -0.3296(5) -0.5482(5)
N7 N 0.3655(5) -0.0287(4) 0.2120(4)
N8 N 0.4514(5) -0.0645(4) 0.1460(4)
N9 N 0.5104(6) -0.1440(5) 0.1759(4)
N10 N 0.4651(6) -0.1637(4) 0.2629(4)
N11 N 0.0949(5) -0.0415(4) 0.6266(4)
N12 N -0.0491(5) -0.0549(5) 0.7417(5)
O1 O 0.4044(4) 0.1485(3) 0.0515(4)
O2 O 0.3242(5) 0.2213(4) 0.1774(4)
O3 O 0.4953(5) 0.5341(4) 0.2743(4)
O4 O 0.6162(6) 0.6193(4) 0.1775(4)
O5 O 1.3140(5) 0.2235(4) -0.4114(4)
O6 O 1.2585(5) 0.3795(4) -0.3721(4)
O7 O 0.7198(5) 0.3935(4) -0.0871(4)
O8 O 0.0934(5) 0.1973(4) 0.0766(5)
H28 H 0.0202 0.1707 0.0609
H29 H 0.1070 0.2524 0.0688
Cd2A Cd -0.21301(5) -0.09093(4) 0.84074(4)
Cd3A Cd -0.56407(5) 0.30943(4) 0.68311(4)
C1A C -0.4800(6) -0.3058(5) 0.9125(5)
C2A C -0.4792(6) -0.3822(5) 0.8506(5)
H1A H -0.4265 -0.3806 0.7966
C3A C -0.5567(6) -0.4609(5) 0.8690(5)
C4A C -0.6353(7) -0.4634(5) 0.9488(5)
H2A H -0.6869 -0.5167 0.9613
C5A C -0.6372(7) -0.3863(5) 1.0102(5)
C6A C -0.5590(6) -0.3084(5) 0.9928(5)
H3A H -0.5591 -0.2576 1.0350
C7A C -0.3992(6) -0.2201(5) 0.8936(5)
C8A C -0.5555(7) -0.5427(5) 0.8013(5)
C9A C -0.7316(8) -0.3098(6) 1.1445(6)
H4A H -0.6529 -0.2985 1.1645
H5A H -0.7580 -0.2492 1.1112
C10A C -0.8231(7) -0.3287(6) 1.2259(6)
C11A C -0.7994(7) -0.4026(6) 1.2899(6)
H6A H -0.7313 -0.4476 1.2787
C12A C -0.8747(7) -0.4111(6) 1.3705(6)
H7A H -0.8574 -0.4625 1.4127
C13A C -0.9760(6) -0.3444(5) 1.3898(5)
C14A C -1.0014(7) -0.2729(6) 1.3235(6)
H8A H -1.0707 -0.2290 1.3338
C15A C -0.9267(8) -0.2649(6) 1.2422(6)
H9A H -0.9463 -0.2164 1.1983
C16A C -1.0469(7) -0.3444(5) 1.4813(5)
C17A C -0.9862(7) -0.3639(6) 1.5572(6)
H10A H -0.9029 -0.3828 1.5489
C18A C -1.0444(8) -0.3565(6) 1.6446(6)
H11A H -1.0012 -0.3715 1.6943
C19A C -1.1669(8) -0.3269(6) 1.6580(6)
H12A H -1.2068 -0.3199 1.7167
C20A C -1.2293(8) -0.3078(6) 1.5838(6)
H13A H -1.3122 -0.2879 1.5927
C21A C -1.1716(7) -0.3175(5) 1.4957(6)
C22A C -1.2506(7) -0.3053(6) 1.4204(6)
C23A C -0.2380(6) 0.1108(5) 1.0718(5)
C24A C -0.2814(6) 0.1610(5) 1.1573(5)
C25A C -0.3727(7) 0.1254(6) 1.2189(6)
H14A H -0.4120 0.0681 1.2059
C26A C -0.4073(7) 0.1737(6) 1.3001(6)
H15A H -0.4705 0.1496 1.3411
C27A C -0.3479(6) 0.2575(6) 1.3205(5)
C28A C -0.2581(7) 0.2949(6) 1.2583(6)
H16A H -0.2193 0.3526 1.2711
C29A C -0.2252(7) 0.2473(6) 1.1772(6)
H17A H -0.1646 0.2734 1.1351
C30A C -0.4398(7) 0.2670(6) 1.4809(5)
H18A H -0.4715 0.2030 1.4852
C31A C -0.3898(7) 0.4135(6) 1.5138(6)
H19A H -0.3806 0.4708 1.5467
C32A C -0.3476(7) 0.4013(6) 1.4258(6)
H20A H -0.3053 0.4476 1.3869
C33A C -0.3757(6) 0.0922(5) 0.7173(5)
C34A C -0.3017(6) 0.0794(5) 0.6283(5)
C35A C -0.3013(8) -0.0087(6) 0.5823(6)
H21A H -0.3482 -0.0610 0.6080
C36A C -0.2332(8) -0.0221(6) 0.4986(6)
H22A H -0.2344 -0.0826 0.4683
C37A C -0.1639(6) 0.0543(5) 0.4607(5)
C38A C -0.1606(8) 0.1418(6) 0.5062(6)
H23A H -0.1117 0.1931 0.4810
C39A C -0.2301(8) 0.1548(6) 0.5899(6)
H24A H -0.2282 0.2152 0.6204
C40A C 0.0115(7) 0.0821(6) 0.3419(6)
H25A H 0.0532 0.1242 0.3753
C41A C -0.0393(7) -0.0045(6) 0.2341(5)
H26A H -0.0381 -0.0340 0.1777
C42A C -0.1278(7) -0.0135(6) 0.3044(5)
H27A H -0.1977 -0.0499 0.3058
N1A N -0.2986(5) 0.0500(4) 1.0249(4)
N2A N -0.2165(5) 0.0241(5) 0.9527(4)
N3A N -0.1146(6) 0.0671(5) 0.9564(5)
N4A N -0.1253(6) 0.1221(5) 1.0308(5)
N5A N -0.3797(5) 0.3061(4) 1.4047(4)
N6A N -0.4483(6) 0.3296(5) 1.5482(5)
N7A N -0.3655(5) 0.0287(4) 0.7880(4)
N8A N -0.4514(5) 0.0645(4) 0.8540(4)
N9A N -0.5104(6) 0.1440(5) 0.8241(4)
N10A N -0.4651(6) 0.1637(4) 0.7371(4)
N11A N -0.0949(5) 0.0415(4) 0.3734(4)
N12A N 0.0491(5) 0.0549(5) 0.2583(5)
O1A O -0.4044(4) -0.1485(3) 0.9485(4)
O2A O -0.3242(5) -0.2213(4) 0.8226(4)
O3A O -0.4953(5) -0.5341(4) 0.7257(4)
O4A O -0.6162(6) -0.6193(4) 0.8225(4)
O5A O -1.3140(5) -0.2235(4) 1.4114(4)
O6A O -1.2585(5) -0.3795(4) 1.3721(4)
O7A O -0.7198(5) -0.3935(4) 1.0871(4)
O8A O -0.0934(5) -0.1973(4) 0.9234(5)
H28A H -0.0202 -0.1707 0.9391
H29A H -0.1070 -0.2524 0.9312
Cd1_2 Cd -0.5000 0.0000 1.0000
Cd3_2 Cd -1.43593(5) -0.30943(4) 1.31689(4)
Cd3_3 Cd 0.56407(5) -0.30943(4) -0.68311(4)
Cd3_4 Cd 0.56407(5) 0.69057(4) 0.31689(4)
Cd3A_2 Cd -0.56407(5) -0.69057(4) 0.68311(4)
Cd3A_3 Cd -0.56407(5) 0.30943(4) 1.68311(4)
Cd3A_4 Cd 1.43593(5) 0.30943(4) -0.31689(4)
N1A_2 N 0.7014(5) 0.0500(4) 0.0249(4)
N6_2 N 0.4483(6) -0.3296(5) 0.4518(5)
N6A_2 N -0.4483(6) 0.3296(5) 0.5482(5)
N8A_2 N 0.5486(5) 0.0645(4) -0.1460(4)
O1A_2 O 0.5956(4) -0.1485(3) -0.0515(4)
O3_2 O 0.4953(5) -0.4659(4) 0.2743(4)
O3A_2 O -0.4953(5) 0.4659(4) 0.7257(4)
O4_2 O 0.6162(6) -0.3807(4) 0.1775(4)
O4A_2 O -0.6162(6) 0.3807(4) 0.8225(4)
O5_2 O -0.6860(5) 0.2235(4) 0.5886(4)
O5A_2 O 0.6860(5) -0.2235(4) 0.4114(4)
O6_2 O -0.7415(5) 0.3795(4) 0.6279(4)
O6A_2 O 0.7415(5) -0.3795(4) 0.3721(4)
O9 O 1.1236(10) 0.4742(9) -0.2100(10)
O10 O 0.191(2) 0.301(3) -0.0689(18)
O11 O 0.208(4) 0.198(3) -0.126(3)
O12 O 0.240(3) 0.190(2) -0.201(2)
O13 O 0.092(2) 0.4232(17) 0.1131(17)
O14 O 0.034(4) 0.537(4) 0.064(3)
loop_
_geom_bond_atom_site_label_1
_geom_bond_atom_site_label_2
_geom_bond_site_symmetry_1
_geom_bond_site_symmetry_2
Cd1 N1 1_555 1_555
Cd2 N2 1_555 1_555
Cd3 N10 1_555 1_555
C1 C2 1_555 1_555
C2 H1 1_555 1_555
C3 C2 1_555 1_555
C4 C3 1_555 1_555
H2 C4 1_555 1_555
C5 C4 1_555 1_555
C6 C1 1_555 1_555
H3 C6 1_555 1_555
C7 C1 1_555 1_555
C8 C3 1_555 1_555
C9 H4 1_555 1_555
H5 C9 1_555 1_555
C10 C9 1_555 1_555
C11 C10 1_555 1_555
H6 C11 1_555 1_555
C12 C11 1_555 1_555
H7 C12 1_555 1_555
C13 C12 1_555 1_555
C14 C13 1_555 1_555
H8 C14 1_555 1_555
C15 C10 1_555 1_555
H9 C15 1_555 1_555
C16 C13 1_555 1_555
C17 C16 1_555 1_555
H10 C17 1_555 1_555
C18 C17 1_555 1_555
H11 C18 1_555 1_555
C19 C18 1_555 1_555
H12 C19 1_555 1_555
C20 C19 1_555 1_555
H13 C20 1_555 1_555
C21 C16 1_555 1_555
C22 C21 1_555 1_555
C23 C24 1_555 1_555
C24 C25 1_555 1_555
C25 H14 1_555 1_555
C26 C25 1_555 1_555
H15 C26 1_555 1_555
C27 C26 1_555 1_555
C28 C27 1_555 1_555
H16 C28 1_555 1_555
C29 C24 1_555 1_555
H17 C29 1_555 1_555
C30 H18 1_555 1_555
C31 H19 1_555 1_555
C32 C31 1_555 1_555
H20 C32 1_555 1_555
C33 C34 1_555 1_555
C34 C35 1_555 1_555
C35 H21 1_555 1_555
C36 C35 1_555 1_555
H22 C36 1_555 1_555
C37 C36 1_555 1_555
C38 C37 1_555 1_555
H23 C38 1_555 1_555
C39 C34 1_555 1_555
H24 C39 1_555 1_555
C40 H25 1_555 1_555
C41 H26 1_555 1_555
C42 C41 1_555 1_555
H27 C42 1_555 1_555
N1 C23 1_555 1_555
N2 N1 1_555 1_555
N3 N2 1_555 1_555
N4 C23 1_555 1_555
N5 C27 1_555 1_555
N6 C30 1_555 1_555
N7 Cd2 1_555 1_555
N8 Cd1 1_555 1_555
N9 N8 1_555 1_555
N10 C33 1_555 1_555
N11 C37 1_555 1_555
N12 C40 1_555 1_555
O1 Cd1 1_555 1_555
O2 Cd2 1_555 1_555
O3 C8 1_555 1_555
O4 C8 1_555 1_555
O5 C22 1_555 1_555
O6 C22 1_555 1_555
O7 C5 1_555 1_555
O8 Cd2 1_555 1_555
H28 O8 1_555 1_555
H29 O8 1_555 1_555
Cd2A N12 1_555 1_555
Cd3A N10A 1_555 1_555
C1A C2A 1_555 1_555
C2A H1A 1_555 1_555
C3A C2A 1_555 1_555
C4A C3A 1_555 1_555
H2A C4A 1_555 1_555
C5A C4A 1_555 1_555
C6A C1A 1_555 1_555
H3A C6A 1_555 1_555
C7A C1A 1_555 1_555
C8A C3A 1_555 1_555
C9A H4A 1_555 1_555
H5A C9A 1_555 1_555
C10A C9A 1_555 1_555
C11A C10A 1_555 1_555
H6A C11A 1_555 1_555
C12A C11A 1_555 1_555
H7A C12A 1_555 1_555
C13A C12A 1_555 1_555
C14A C13A 1_555 1_555
H8A C14A 1_555 1_555
C15A C10A 1_555 1_555
H9A C15A 1_555 1_555
C16A C13A 1_555 1_555
C17A C16A 1_555 1_555
H10A C17A 1_555 1_555
C18A C17A 1_555 1_555
H11A C18A 1_555 1_555
C19A C18A 1_555 1_555
H12A C19A 1_555 1_555
C20A C19A 1_555 1_555
H13A C20A 1_555 1_555
C21A C16A 1_555 1_555
C22A C21A 1_555 1_555
C23A C24A 1_555 1_555
C24A C25A 1_555 1_555
C25A H14A 1_555 1_555
C26A C25A 1_555 1_555
H15A C26A 1_555 1_555
C27A C26A 1_555 1_555
C28A C27A 1_555 1_555
H16A C28A 1_555 1_555
C29A C24A 1_555 1_555
H17A C29A 1_555 1_555
C30A H18A 1_555 1_555
C31A H19A 1_555 1_555
C32A C31A 1_555 1_555
H20A C32A 1_555 1_555
C33A C34A 1_555 1_555
C34A C35A 1_555 1_555
C35A H21A 1_555 1_555
C36A C35A 1_555 1_555
H22A C36A 1_555 1_555
C37A C36A 1_555 1_555
C38A C37A 1_555 1_555
H23A C38A 1_555 1_555
C39A C34A 1_555 1_555
H24A C39A 1_555 1_555
C40A H25A 1_555 1_555
C41A H26A 1_555 1_555
C42A C41A 1_555 1_555
H27A C42A 1_555 1_555
N1A C23A 1_555 1_555
N2A Cd2A 1_555 1_555
N3A N2A 1_555 1_555
N4A C23A 1_555 1_555
N5A C27A 1_555 1_555
N6A C30A 1_555 1_555
N7A Cd2A 1_555 1_555
N8A N7A 1_555 1_555
N9A N8A 1_555 1_555
N10A C33A 1_555 1_555
N11A C37A 1_555 1_555
N12A Cd2 1_555 1_555
O1A Cd2A 1_555 1_555
O2A Cd2A 1_555 1_555
O3A C8A 1_555 1_555
O4A C8A 1_555 1_555
O5A C22A 1_555 1_555
O6A C22A 1_555 1_555
O7A C5A 1_555 1_555
O8A Cd2A 1_555 1_555
H28A O8A 1_555 1_555
H29A O8A 1_555 1_555
Cd1_2 N1A 1_555 1_555
Cd3_2 O5A 1_555 1_555
Cd3_3 N6 1_555 1_555
Cd3_4 O3 1_555 1_555
Cd3A_2 O3A 1_555 1_555
Cd3A_3 N6A 1_555 1_555
Cd3A_4 O5 1_555 1_555
N1A_2 Cd1 1_555 1_555
N6_2 Cd3 1_555 1_555
N6A_2 Cd3A 1_555 1_555
N8A_2 Cd1 1_555 1_555
O1A_2 Cd1 1_555 1_555
O3_2 Cd3 1_555 1_555
O3A_2 Cd3A 1_555 1_555
O4_2 Cd3 1_555 1_555
O4A_2 Cd3A 1_555 1_555
O5_2 Cd3A 1_555 1_555
O5A_2 Cd3 1_555 1_555
O6_2 Cd3A 1_555 1_555
O6A_2 Cd3 1_555 1_555
Cd2 O1 1_555 1_555
C5 C6 1_555 1_555
C7 O1 1_555 1_555
C7 O2 1_555 1_555
C9 O7 1_555 1_555
C14 C15 1_555 1_555
C20 C21 1_555 1_555
C28 C29 1_555 1_555
C30 N5 1_555 1_555
C31 N6 1_555 1_555
C32 N5 1_555 1_555
C33 N7 1_555 1_555
C38 C39 1_555 1_555
C40 N11 1_555 1_555
C41 N12 1_555 1_555
C42 N11 1_555 1_555
N3 N4 1_555 1_555
N7 N8 1_555 1_555
N9 N10 1_555 1_555
O4 Cd3_4 1_555 1_555
O6 Cd3A_4 1_555 1_555
C5A C6A 1_555 1_555
C7A O1A 1_555 1_555
C7A O2A 1_555 1_555
C9A O7A 1_555 1_555
C14A C15A 1_555 1_555
C20A C21A 1_555 1_555
C28A C29A 1_555 1_555
C30A N5A 1_555 1_555
C31A N6A 1_555 1_555
C32A N5A 1_555 1_555
C33A N7A 1_555 1_555
C38A C39A 1_555 1_555
C40A N11A 1_555 1_555
C40A N12A 1_555 1_555
C41A N12A 1_555 1_555
C42A N11A 1_555 1_555
N1A N2A 1_555 1_555
N3A N4A 1_555 1_555
N8A Cd1_2 1_555 1_555
N9A N10A 1_555 1_555
O1A Cd1_2 1_555 1_555
O4A Cd3A_2 1_555 1_555
O6A Cd3_2 1_555 1_555

#END
