
#######################################################################
#
#                 Cambridge Crystallographic Data Centre
#                                CCDC 
#
#######################################################################
#
# If this CIF has been generated from an entry in the Cambridge 
# Structural Database, then it will include bibliographic, chemical, 
# crystal, experimental, refinement or atomic coordinate data resulting 
# from the CCDC's data processing and validation procedures.
#
#######################################################################

data_QIZRIC
_symmetry_cell_setting           monoclinic
_symmetry_space_group_name_H-M   'P 21/c'
_symmetry_Int_Tables_number      14
_space_group_name_Hall           '-P 2ybc'
loop_
_symmetry_equiv_pos_site_id
_symmetry_equiv_pos_as_xyz
1 x,y,z
2 -x,1/2+y,1/2-z
3 -x,-y,-z
4 x,1/2-y,1/2+z
_cell_length_a                   8.0083(4)
_cell_length_b                   10.2948(6)
_cell_length_c                   11.7481(6)
_cell_angle_alpha                90
_cell_angle_beta                 99.7330(10)
_cell_angle_gamma                90
_cell_volume                     954.617
loop_
_atom_site_label
_atom_site_type_symbol
_atom_site_fract_x
_atom_site_fract_y
_atom_site_fract_z
U1 U 0.412520(13) 0.721169(10) 0.152007(9)
O1 O 0.5032(3) 0.5786(2) 0.10655(18)
O2 O 0.3232(3) 0.8648(2) 0.19911(18)
O3 O 0.2643(3) 0.6031(2) 0.28641(18)
O4 O 0.1465(3) 0.8450(2) 0.55335(18)
O5 O 0.3585(3) 0.7027(2) 0.45278(18)
O6 O 0.3585(3) 0.3435(2) 0.39103(18)
O7 O 0.6149(3) 0.7076(2) 0.3302(2)
O8 O 0.1115(3) 0.2764(2) 0.28941(19)
O9 O -0.1157(3) 0.8354(2) 0.45745(18)
C1 C 0.2569(4) 0.6268(3) 0.3903(2)
C2 C 0.1216(4) 0.5613(3) 0.4453(2)
C3 C 0.0179(4) 0.6342(3) 0.5063(2)
C4 C 0.1985(4) 0.3427(3) 0.3663(2)
C5 C 0.1018(4) 0.4272(3) 0.4383(2)
C6 C 0.0162(4) 0.7819(3) 0.5055(2)
H1 H 0.571(6) 0.706(4) 0.381(4)
H2 H 0.716(7) 0.748(5) 0.355(4)
O3B O -0.2643(3) 0.3969(2) 0.71359(18)
C1B C -0.2569(4) 0.3732(3) 0.6097(2)
C2B C -0.1216(4) 0.4387(3) 0.5547(2)
C3B C -0.0179(4) 0.3658(3) 0.4937(2)
C5B C -0.1018(4) 0.5728(3) 0.5617(2)
O4B O -0.1465(3) 0.1550(2) 0.44665(18)
O9B O 0.1157(3) 0.1646(2) 0.54255(18)
C6B C -0.0162(4) 0.2181(3) 0.4945(2)
O6B O -0.3585(3) 0.6565(2) 0.60897(18)
O8B O -0.1115(3) 0.7236(2) 0.71059(19)
C4B C -0.1985(4) 0.6573(3) 0.6337(2)
O5B O -0.3585(3) 0.2973(2) 0.54722(18)
U1B U -0.412520(13) 0.278831(10) 0.847993(9)
O1B O -0.5032(3) 0.4214(2) 0.89345(18)
O2B O -0.3232(3) 0.1352(2) 0.80089(18)
O7B O -0.6149(3) 0.2924(2) 0.6698(2)
H1B H -0.571(6) 0.294(4) 0.619(4)
H2B H -0.716(7) 0.252(5) 0.645(4)
U1A U -0.412520(13) 0.221169(10) 0.347993(9)
U1A_2 U 0.587480(13) 0.221169(10) 0.347993(9)
U1C U -0.587480(13) 0.778831(10) 0.652007(9)
U1C_2 U 0.412520(13) 0.778831(10) 0.652007(9)
O4A O -0.1465(3) 0.3450(2) 0.94665(18)
O4C O 0.1465(3) 0.6550(2) 0.05335(18)
O5A O -0.3585(3) 0.2027(2) 1.04722(18)
O5C O 0.3585(3) 0.7973(2) -0.04722(18)
O6A O 0.6415(3) 0.8435(2) 0.10897(18)
O6C O -0.6415(3) 0.1565(2) 0.89103(18)
N1 N 0.8845(4) 0.5051(3) 0.1615(3)
H3 H 0.852(5) 0.507(4) 0.089(4)
H4 H 0.980(6) 0.463(4) 0.185(4)
H5 H 0.813(6) 0.468(4) 0.190(4)
H6 H 0.905(6) 0.590(5) 0.190(4)
loop_
_geom_bond_atom_site_label_1
_geom_bond_atom_site_label_2
_geom_bond_site_symmetry_1
_geom_bond_site_symmetry_2
U1 O1 1_555 1_555
O2 U1 1_555 1_555
O3 U1 1_555 1_555
O4 C6 1_555 1_555
O5 C1 1_555 1_555
O6 C4 1_555 1_555
O7 U1 1_555 1_555
O8 C4 1_555 1_555
O9 C6 1_555 1_555
C1 O3 1_555 1_555
C2 C1 1_555 1_555
C3 C2 1_555 1_555
C4 C5 1_555 1_555
C5 C2 1_555 1_555
C6 C3 1_555 1_555
H1 O7 1_555 1_555
H2 O7 1_555 1_555
N1 H3 1_555 1_555
H4 N1 1_555 1_555
H5 N1 1_555 1_555
H6 N1 1_555 1_555
O3B C1B 1_555 1_555
C1B C2B 1_555 1_555
C2B C3B 1_555 1_555
C3B C5 1_555 1_555
C5B C3 1_555 1_555
O4B C6B 1_555 1_555
O9B C6B 1_555 1_555
C6B C3B 1_555 1_555
O6B C4B 1_555 1_555
O8B C4B 1_555 1_555
C4B C5B 1_555 1_555
O5B C1B 1_555 1_555
U1B O3B 1_555 1_555
O1B U1B 1_555 1_555
O2B U1B 1_555 1_555
O7B U1B 1_555 1_555
H1B O7B 1_555 1_555
H2B O7B 1_555 1_555
U1A O4B 1_555 1_555
U1A_2 O6 1_555 1_555
U1C O6B 1_555 1_555
U1C_2 O4 1_555 1_555
O4A U1B 1_555 1_555
O4C U1 1_555 1_555
O5A U1B 1_555 1_555
O5C U1 1_555 1_555
O6A U1 1_555 1_555
O6C U1B 1_555 1_555
O5 U1C_2 1_555 1_555
C2B C5B 1_555 1_555
O5B U1A 1_555 1_555

#END
