
#######################################################################
#
#                 Cambridge Crystallographic Data Centre
#                                CCDC 
#
#######################################################################
#
# If this CIF has been generated from an entry in the Cambridge 
# Structural Database, then it will include bibliographic, chemical, 
# crystal, experimental, refinement or atomic coordinate data resulting 
# from the CCDC's data processing and validation procedures.
#
#######################################################################

data_QOBHEU01
_symmetry_cell_setting           orthorhombic
_symmetry_space_group_name_H-M   'P b c a'
_symmetry_Int_Tables_number      61
_space_group_name_Hall           '-P 2ac 2ab'
loop_
_symmetry_equiv_pos_site_id
_symmetry_equiv_pos_as_xyz
1 x,y,z
2 1/2-x,-y,1/2+z
3 1/2+x,1/2-y,-z
4 -x,1/2+y,1/2-z
5 -x,-y,-z
6 1/2+x,y,1/2-z
7 1/2-x,1/2+y,z
8 x,1/2-y,1/2+z
_cell_length_a                   7.061(1)
_cell_length_b                   6.927(1)
_cell_length_c                   17.524(4)
_cell_angle_alpha                90
_cell_angle_beta                 90
_cell_angle_gamma                90
_cell_volume                     857.126
loop_
_atom_site_label
_atom_site_type_symbol
_atom_site_fract_x
_atom_site_fract_y
_atom_site_fract_z
Zn1 Zn 0.1045(1) 0.1532(1) 0.3004(1)
Te1 Te 0.4515(1) 0.0252(1) 0.3257(1)
N1 N -0.0376(7) 0.0213(9) 0.3926(4)
C1 C 0.0409(11) 0.0629(10) 0.4690(4)
H1 H -0.1405 0.1051 0.3935
H2 H -0.0437 -0.1053 0.3851
H3 H 0.0210 0.1993 0.4823
H4 H 0.1660 0.0444 0.4764
C1D C -0.0409(11) -0.0629(10) 0.5310(4)
N1D N 0.0376(7) -0.0213(9) 0.6074(4)
H1D H 0.1405 -0.1051 0.6065
H2D H 0.0437 0.1053 0.6149
H3D H -0.0210 -0.1993 0.5177
H4D H -0.1660 -0.0444 0.5236
Te1E Te -0.0485(1) 0.0252(1) 0.1743(1)
Zn1E Zn -0.3955(1) 0.1532(1) 0.1996(1)
Te1F Te 0.0485(1) 0.5252(1) 0.3257(1)
Zn1E_2 Zn 0.6045(1) 0.1532(1) 0.1996(1)
Zn1F Zn 0.3955(1) -0.3468(1) 0.3004(1)
Zn1D Zn -0.1045(1) -0.1532(1) 0.6996(1)
Zn1C Zn -0.1045(1) -0.3468(1) 0.1996(1)
Te1A Te 0.0485(1) -0.0252(1) 0.8257(1)
Te1B Te -0.0485(1) -0.5252(1) 0.6743(1)
Te1D Te -0.4515(1) -0.0252(1) 0.6743(1)
loop_
_geom_bond_atom_site_label_1
_geom_bond_atom_site_label_2
_geom_bond_site_symmetry_1
_geom_bond_site_symmetry_2
Zn1 Te1 1_555 1_555
Te1 Zn1E_2 1_555 1_555
N1 Zn1 1_555 1_555
C1 N1 1_555 1_555
H1 N1 1_555 1_555
H2 N1 1_555 1_555
H3 C1 1_555 1_555
H4 C1 1_555 1_555
C1D C1 1_555 1_555
N1D C1D 1_555 1_555
H1D N1D 1_555 1_555
H2D N1D 1_555 1_555
H3D C1D 1_555 1_555
H4D C1D 1_555 1_555
Te1E Zn1 1_555 1_555
Zn1E Te1E 1_555 1_555
Te1F Zn1 1_555 1_555
Zn1F Te1 1_555 1_555
Zn1D N1D 1_555 1_555
Zn1C Te1E 1_555 1_555
Te1A Zn1D 1_555 1_555
Te1B Zn1D 1_555 1_555
Te1D Zn1D 1_555 1_555

#END
