
#######################################################################
#
#                 Cambridge Crystallographic Data Centre
#                                CCDC 
#
#######################################################################
#
# If this CIF has been generated from an entry in the Cambridge 
# Structural Database, then it will include bibliographic, chemical, 
# crystal, experimental, refinement or atomic coordinate data resulting 
# from the CCDC's data processing and validation procedures.
#
#######################################################################

data_QOBHIY
_symmetry_cell_setting           orthorhombic
_symmetry_space_group_name_H-M   'C m c 21'
_symmetry_Int_Tables_number      36
_space_group_name_Hall           'C 2n -2'
loop_
_symmetry_equiv_pos_site_id
_symmetry_equiv_pos_as_xyz
1 x,y,z
2 -x,-y,1/2+z
3 -x,y,z
4 x,-y,1/2+z
5 1/2+x,1/2+y,z
6 1/2-x,1/2-y,1/2+z
7 1/2-x,1/2+y,z
8 1/2+x,1/2-y,1/2+z
_cell_length_a                   20.169(4)
_cell_length_b                   7.038(1)
_cell_length_c                   6.882(1)
_cell_angle_alpha                90
_cell_angle_beta                 90
_cell_angle_gamma                90
_cell_volume                     976.896
loop_
_atom_site_label
_atom_site_type_symbol
_atom_site_fract_x
_atom_site_fract_y
_atom_site_fract_z
Zn1 Zn 0.7051(1) 0.6563(4) 0.3777(3)
Te1 Te 0.8160(1) 0.8066(2) 0.5019(5)
N1 N 0.6249(6) 0.7970(2) 0.4940(4)
C1 C 0.5625(11) 0.7370(3) 0.4360(3)
C2 C 0.5000 0.8260(4) 0.5190(6)
H1 H 0.6272 0.7880 0.6241
H2 H 0.6287 0.9212 0.4636
H3 H 0.5601 0.6015 0.4631
H4 H 0.5603 0.7509 0.2962
H5 H 0.5000 0.8112 0.6593
H6 H 0.5000 0.9609 0.4905
Te1E Te 0.6840(1) 0.6934(2) 0.0019(5)
Te1F Te 0.6840(1) 0.3066(2) 0.5019(5)
Zn1E Zn 0.7949(1) 0.8437(4) 0.8777(3)
Zn1F Zn 0.7949(1) 1.1563(4) 0.3777(3)
C1B C 0.4375(11) 0.7370(3) 0.4360(3)
Zn1C Zn 0.7051(1) 0.3437(4) -0.1223(3)
Zn1E_2 Zn 0.7949(1) 0.8437(4) -0.1223(3)
N1B N 0.3751(6) 0.7970(2) 0.4940(4)
H3B H 0.4399 0.6015 0.4631
H4B H 0.4397 0.7509 0.2962
Zn1B Zn 0.2949(1) 0.6563(4) 0.3777(3)
H1B H 0.3728 0.7880 0.6241
H2B H 0.3713 0.9212 0.4636
Te1B Te 0.1840(1) 0.8066(2) 0.5019(5)
Te1D Te 0.3160(1) 0.3066(2) 0.5019(5)
Te1G Te 0.3160(1) 0.6934(2) 0.0019(5)
loop_
_geom_bond_atom_site_label_1
_geom_bond_atom_site_label_2
_geom_bond_site_symmetry_1
_geom_bond_site_symmetry_2
Zn1 Te1 1_555 1_555
Te1 Zn1E 1_555 1_555
N1 Zn1 1_555 1_555
C1 N1 1_555 1_555
C2 C1 1_555 1_555
H1 N1 1_555 1_555
H2 N1 1_555 1_555
H3 C1 1_555 1_555
H4 C1 1_555 1_555
H5 C2 1_555 1_555
H6 C2 1_555 1_555
Te1E Zn1 1_555 1_555
Te1F Zn1 1_555 1_555
Zn1F Te1 1_555 1_555
C1B C2 1_555 1_555
Zn1C Te1E 1_555 1_555
Zn1E_2 Te1E 1_555 1_555
N1B C1B 1_555 1_555
H3B C1B 1_555 1_555
H4B C1B 1_555 1_555
Zn1B N1B 1_555 1_555
H1B N1B 1_555 1_555
H2B N1B 1_555 1_555
Te1B Zn1B 1_555 1_555
Te1D Zn1B 1_555 1_555
Te1G Zn1B 1_555 1_555

#END
