
#######################################################################
#
#                 Cambridge Crystallographic Data Centre
#                                CCDC 
#
#######################################################################
#
# If this CIF has been generated from an entry in the Cambridge 
# Structural Database, then it will include bibliographic, chemical, 
# crystal, experimental, refinement or atomic coordinate data resulting 
# from the CCDC's data processing and validation procedures.
#
#######################################################################

data_QOBHEU
_symmetry_cell_setting           orthorhombic
_symmetry_space_group_name_H-M   'P n n m'
_symmetry_Int_Tables_number      58
_space_group_name_Hall           '-P 2 2n'
loop_
_symmetry_equiv_pos_site_id
_symmetry_equiv_pos_as_xyz
1 x,y,z
2 -x,-y,z
3 1/2+x,1/2-y,1/2-z
4 1/2-x,1/2+y,1/2-z
5 -x,-y,-z
6 x,y,-z
7 1/2-x,1/2+y,1/2+z
8 1/2+x,1/2-y,1/2+z
_cell_length_a                   5.660(1)
_cell_length_b                   17.156(3)
_cell_length_c                   4.336(1)
_cell_angle_alpha                90
_cell_angle_beta                 90
_cell_angle_gamma                90
_cell_volume                     421.038
loop_
_atom_site_label
_atom_site_type_symbol
_atom_site_fract_x
_atom_site_fract_y
_atom_site_fract_z
Zn1 Zn 0.7276(4) 0.1989(1) 0.0000
Te1 Te 0.9753(2) 0.3287(1) 0.0000
N1 N 0.9760(2) 0.1117(8) 0.0000
C1 C 0.8970(3) 0.0254(9) 0.0000
H1 H 1.0601 0.1092 0.1803
H2 H 0.8033 0.0155 -0.1800
Te1B Te 0.4753(2) 0.1713(1) -0.5000
Te1B_2 Te 0.4753(2) 0.1713(1) 0.5000
Zn1B Zn 1.2276(4) 0.3011(1) -0.5000
Zn1B_2 Zn 1.2276(4) 0.3011(1) 0.5000
H1E H 1.0601 0.1092 -0.1803
C1A C 1.1030(3) -0.0254(9) 0.0000
H2E H 0.8033 0.0155 0.1800
Zn1_2 Zn 0.7276(4) 0.1989(1) -1.0000
Zn1B_3 Zn 0.2276(4) 0.3011(1) -0.5000
N1A N 1.0240(2) -0.1117(8) 0.0000
H2A H 1.1967 -0.0155 -0.1800
H2D H 1.1967 -0.0155 0.1800
Zn1A Zn 1.2724(4) -0.1989(1) 0.0000
H1A H 0.9399 -0.1092 0.1803
H1D H 0.9399 -0.1092 -0.1803
Te1A Te 1.0247(2) -0.3287(1) 0.0000
Te1C Te 1.5247(2) -0.1713(1) -0.5000
Te1C_2 Te 1.5247(2) -0.1713(1) 0.5000
loop_
_geom_bond_atom_site_label_1
_geom_bond_atom_site_label_2
_geom_bond_site_symmetry_1
_geom_bond_site_symmetry_2
Zn1 Te1 1_555 1_555
Te1 Zn1B 1_555 1_555
N1 Zn1 1_555 1_555
C1 N1 1_555 1_555
H1 N1 1_555 1_555
H2 C1 1_555 1_555
Te1B Zn1 1_555 1_555
Te1B_2 Zn1 1_555 1_555
Zn1B_2 Te1 1_555 1_555
H1E N1 1_555 1_555
C1A C1 1_555 1_555
H2E C1 1_555 1_555
Zn1_2 Te1B 1_555 1_555
Zn1B_3 Te1B 1_555 1_555
N1A C1A 1_555 1_555
H2A C1A 1_555 1_555
H2D C1A 1_555 1_555
Zn1A N1A 1_555 1_555
H1A N1A 1_555 1_555
H1D N1A 1_555 1_555
Te1A Zn1A 1_555 1_555
Te1C Zn1A 1_555 1_555
Te1C_2 Zn1A 1_555 1_555

#END
