
#######################################################################
#
#                 Cambridge Crystallographic Data Centre
#                                CCDC 
#
#######################################################################
#
# If this CIF has been generated from an entry in the Cambridge 
# Structural Database, then it will include bibliographic, chemical, 
# crystal, experimental, refinement or atomic coordinate data resulting 
# from the CCDC's data processing and validation procedures.
#
#######################################################################

data_QOBKIB
_symmetry_cell_setting           monoclinic
_symmetry_space_group_name_H-M   'C 2/c'
_symmetry_Int_Tables_number      15
_space_group_name_Hall           '-C 2yn'
loop_
_symmetry_equiv_pos_site_id
_symmetry_equiv_pos_as_xyz
1 x,y,z
2 -x,y,1/2-z
3 1/2+x,1/2+y,z
4 1/2-x,1/2+y,1/2-z
5 -x,-y,-z
6 x,-y,1/2+z
7 1/2-x,1/2-y,-z
8 1/2+x,1/2-y,1/2+z
_cell_length_a                   26.892(5)
_cell_length_b                   10.479(4)
_cell_length_c                   14.179(2)
_cell_angle_alpha                90
_cell_angle_beta                 98.59(2)
_cell_angle_gamma                90
_cell_volume                     3950.84
loop_
_atom_site_label
_atom_site_type_symbol
_atom_site_fract_x
_atom_site_fract_y
_atom_site_fract_z
Cu1 Cu -0.14430(3) -0.51450(8) -0.36819(6)
O1 O -0.1782(2) -0.3623(5) -0.3293(3)
O2 O -0.1510(2) -0.4090(5) -0.1762(4)
O6 O -0.1787(2) -0.4670(5) -0.5203(3)
N1 N -0.1014(2) -0.6719(5) -0.3830(4)
N2 N -0.0782(2) -0.4249(5) -0.3709(4)
N3 N -0.2976(2) -0.1203(6) -0.1614(4)
C1 C -0.1140(3) -0.7923(8) -0.3908(5)
C2 C -0.0792(3) -0.8902(7) -0.3967(6)
C3 C -0.0294(3) -0.8588(8) -0.3933(6)
C4 C -0.0145(3) -0.7317(7) -0.3864(5)
C5 C 0.0366(3) -0.6875(8) -0.3831(6)
C6 C 0.0480(3) -0.5650(8) -0.3793(5)
C7 C 0.0102(2) -0.4678(7) -0.3758(5)
C8 C 0.0194(3) -0.3361(8) -0.3709(6)
C9 C -0.0189(3) -0.2533(8) -0.3764(6)
C10 C -0.0690(3) -0.3011(7) -0.3664(5)
C11 C -0.0397(2) -0.5079(7) -0.3754(4)
C12 C -0.0519(2) -0.6400(7) -0.3816(5)
C13 C -0.3027(2) -0.1817(8) -0.2448(5)
C14 C -0.2642(3) -0.2526(7) -0.2731(5)
C15 C -0.2191(2) -0.2635(7) -0.2123(5)
C16 C -0.2135(3) -0.2006(8) -0.1270(5)
C17 C -0.2535(3) -0.1269(8) -0.1030(5)
C18 C -0.1780(2) -0.3515(7) -0.2379(6)
N3C N -0.2024(2) -0.6203(6) -0.3386(4)
Cu1C Cu -0.35570(3) -0.01450(8) -0.13181(6)
O3 O -0.5833(3) -0.4920(10) -0.6078(6)
O4 O -0.6083(4) -0.3980(8) -0.7340(6)
O5 O -0.6438(3) -0.5576(8) -0.6976(6)
N4 N -0.6103(3) -0.4815(8) -0.6795(5)
O7 O -0.3395(2) -0.7048(5) -0.9748(4)
O8 O -0.2011(2) -0.9743(6) -0.8980(4)
loop_
_geom_bond_atom_site_label_1
_geom_bond_atom_site_label_2
_geom_bond_site_symmetry_1
_geom_bond_site_symmetry_2
Cu1 O1 1_555 1_555
O1 C18 1_555 1_555
O2 C18 1_555 1_555
O3 N4 1_555 1_555
O4 N4 1_555 1_555
O5 N4 1_555 1_555
O6 Cu1 1_555 1_555
N1 Cu1 1_555 1_555
N2 Cu1 1_555 1_555
N3 C13 1_555 1_555
C1 N1 1_555 1_555
C2 C1 1_555 1_555
C3 C2 1_555 1_555
C4 C3 1_555 1_555
C5 C4 1_555 1_555
C6 C5 1_555 1_555
C7 C6 1_555 1_555
C8 C7 1_555 1_555
C9 C8 1_555 1_555
C10 N2 1_555 1_555
C11 N2 1_555 1_555
C12 N1 1_555 1_555
C13 C14 1_555 1_555
C14 C15 1_555 1_555
C15 C16 1_555 1_555
C16 C17 1_555 1_555
C17 N3 1_555 1_555
C18 C15 1_555 1_555
N3C Cu1 1_555 1_555
Cu1C N3 1_555 1_555
C4 C12 1_555 1_555
C7 C11 1_555 1_555
C9 C10 1_555 1_555
C11 C12 1_555 1_555

#END
