
#######################################################################
#
#                 Cambridge Crystallographic Data Centre
#                                CCDC 
#
#######################################################################
#
# If this CIF has been generated from an entry in the Cambridge 
# Structural Database, then it will include bibliographic, chemical, 
# crystal, experimental, refinement or atomic coordinate data resulting 
# from the CCDC's data processing and validation procedures.
#
#######################################################################

data_QOBKOH
_symmetry_cell_setting           monoclinic
_symmetry_space_group_name_H-M   'C 2/c'
_symmetry_Int_Tables_number      15
_space_group_name_Hall           '-C 2yn'
loop_
_symmetry_equiv_pos_site_id
_symmetry_equiv_pos_as_xyz
1 x,y,z
2 -x,y,1/2-z
3 1/2+x,1/2+y,z
4 1/2-x,1/2+y,1/2-z
5 -x,-y,-z
6 x,-y,1/2+z
7 1/2-x,1/2-y,-z
8 1/2+x,1/2-y,1/2+z
_cell_length_a                   38.15(2)
_cell_length_b                   4.940(3)
_cell_length_c                   14.510(8)
_cell_angle_alpha                90
_cell_angle_beta                 109.58(4)
_cell_angle_gamma                90
_cell_volume                     2576.44
loop_
_atom_site_label
_atom_site_type_symbol
_atom_site_fract_x
_atom_site_fract_y
_atom_site_fract_z
P1 P 0.0738(1) 0.2123(5) 0.7608(2)
Na1 Na -0.0166(1) 0.3876(7) 0.6096(2)
O1 O 0.0510(1) 0.2403(12) 0.6533(3)
O2 O 0.0528(2) 0.0985(12) 0.8250(4)
O3 O -0.0246(2) 0.2570(12) 0.4480(3)
O4 O 0.0000 0.6904(16) 0.7500
O5 O -0.0692(2) 0.6792(13) 0.5304(4)
N1 N 0.2052(2) -0.5061(17) 0.7891(5)
C1 C 0.1142(2) 0.0063(16) 0.7719(5)
C2 C 0.1168(2) -0.1325(17) 0.6917(5)
C3 C 0.1455(2) -0.3080(19) 0.6952(6)
C4 C 0.1753(2) -0.3457(17) 0.7851(5)
C5 C 0.1727(2) -0.2027(19) 0.8661(6)
C6 C 0.1436(2) -0.0307(19) 0.8620(5)
C7 C 0.1436(3) 0.1189(23) 0.9544(6)
C8 C 0.2043(3) -0.6735(23) 0.7073(7)
C9 C 0.2313(3) -0.5841(24) 0.8837(7)
O2A O -0.0528(2) 0.0985(12) 0.6750(4)
O3D O 0.0246(2) 0.7430(12) 0.5520(3)
Na1A Na 0.0166(1) 0.3876(7) 0.8904(2)
Na1D Na 0.0166(1) 0.6124(7) 0.3904(2)
P1A P -0.0738(1) 0.2123(5) 0.7392(2)
O1A O -0.0510(1) 0.2403(12) 0.8467(3)
O1D O -0.0510(1) 0.7597(12) 0.3467(3)
O2E O 0.0528(2) 0.9015(12) 0.3250(4)
O4D O 0.0000 0.3096(16) 0.2500
O5D O 0.0692(2) 0.3208(13) 0.4696(4)
C1A C -0.1142(2) 0.0063(16) 0.7281(5)
Na1E Na -0.0166(1) 0.6124(7) 0.1096(2)
C2A C -0.1168(2) -0.1325(17) 0.8083(5)
C6A C -0.1436(2) -0.0307(19) 0.6380(5)
C3A C -0.1455(2) -0.3080(19) 0.8048(6)
C5A C -0.1727(2) -0.2027(19) 0.6339(6)
C7A C -0.1436(3) 0.1189(23) 0.5456(6)
C4A C -0.1753(2) -0.3457(17) 0.7149(5)
N1A N -0.2052(2) -0.5061(17) 0.7109(5)
C8A C -0.2043(3) -0.6735(23) 0.7927(7)
C9A C -0.2313(3) -0.5841(24) 0.6163(7)
loop_
_geom_bond_atom_site_label_1
_geom_bond_atom_site_label_2
_geom_bond_site_symmetry_1
_geom_bond_site_symmetry_2
P1 O1 1_555 1_555
Na1 O1 1_555 1_555
O2 P1 1_555 1_555
O3 Na1 1_555 1_555
O4 Na1 1_555 1_555
O5 Na1 1_555 1_555
N1 C4 1_555 1_555
C1 P1 1_555 1_555
C2 C1 1_555 1_555
C3 C2 1_555 1_555
C4 C3 1_555 1_555
C5 C4 1_555 1_555
C6 C1 1_555 1_555
C7 C6 1_555 1_555
C8 N1 1_555 1_555
C9 N1 1_555 1_555
O2A Na1 1_555 1_555
O3D Na1 1_555 1_555
Na1A O2 1_555 1_555
Na1D O3 1_555 1_555
P1A O2A 1_555 1_555
O1A Na1A 1_555 1_555
O1D Na1D 1_555 1_555
O2E Na1D 1_555 1_555
O4D Na1D 1_555 1_555
O5D Na1D 1_555 1_555
C1A P1A 1_555 1_555
Na1E O4D 1_555 1_555
C2A C1A 1_555 1_555
C6A C1A 1_555 1_555
C3A C2A 1_555 1_555
C5A C6A 1_555 1_555
C7A C6A 1_555 1_555
C4A C3A 1_555 1_555
N1A C4A 1_555 1_555
C8A N1A 1_555 1_555
C9A N1A 1_555 1_555
O4 Na1A 1_555 1_555
C5 C6 1_555 1_555
O3D Na1D 1_555 1_555
P1A O1A 1_555 1_555
C5A C4A 1_555 1_555

#END
