
#######################################################################
#
#                 Cambridge Crystallographic Data Centre
#                                CCDC 
#
#######################################################################
#
# If this CIF has been generated from an entry in the Cambridge 
# Structural Database, then it will include bibliographic, chemical, 
# crystal, experimental, refinement or atomic coordinate data resulting 
# from the CCDC's data processing and validation procedures.
#
#######################################################################

data_QOBKOJ
_symmetry_cell_setting           monoclinic
_symmetry_space_group_name_H-M   'P 21/c'
_symmetry_Int_Tables_number      14
_space_group_name_Hall           '-P 2ybc'
loop_
_symmetry_equiv_pos_site_id
_symmetry_equiv_pos_as_xyz
1 x,y,z
2 -x,1/2+y,1/2-z
3 -x,-y,-z
4 x,1/2-y,1/2+z
_cell_length_a                   6.7379(5)
_cell_length_b                   13.1402(8)
_cell_length_c                   20.9377(16)
_cell_angle_alpha                90
_cell_angle_beta                 106.413(7)
_cell_angle_gamma                90
_cell_volume                     1778.23
loop_
_atom_site_label
_atom_site_type_symbol
_atom_site_fract_x
_atom_site_fract_y
_atom_site_fract_z
Ag1 Ag 0.91258(11) -0.14731(5) 0.65153(3)
Ag2 Ag 0.73367(10) 0.27376(4) 0.49421(3)
O1 O 0.8195(11) -0.2236(4) 0.5347(3)
O2 O 0.7017(10) -0.1710(4) 0.4316(2)
O3 O 0.6070(10) -0.0102(5) 0.3685(2)
H1 H 0.6256 -0.0634 0.3899
O4 O 0.6054(13) 0.1537(5) 0.3899(3)
N1 N 0.8451(9) -0.0239(4) 0.5820(3)
N2 N 0.7581(9) 0.1216(4) 0.5256(3)
N3 N 1.0003(10) 0.2552(5) 0.7635(3)
N4 N 0.7298(10) 0.4265(5) 0.4682(3)
N5 N 0.7436(10) 0.5946(5) 0.4678(3)
H2 H 0.7567 0.6561 0.4825
C1 C 0.7657(12) -0.1538(6) 0.4930(4)
C2 C 0.7755(11) -0.0464(6) 0.5163(3)
C3 C 0.7200(12) 0.0443(6) 0.4808(3)
C4 C 0.6418(12) 0.0656(6) 0.4090(3)
C5 C 0.8304(12) 0.0774(5) 0.5857(3)
C6 C 1.1044(12) 0.1723(7) 0.7569(4)
H3 H 1.2179 0.1549 0.7923
C7 C 1.0578(13) 0.1095(7) 0.7017(4)
H4 H 1.1350 0.0514 0.6998
C8 C 0.8870(11) 0.1382(5) 0.6483(3)
C9 C 0.7805(11) 0.2237(6) 0.6541(4)
H5 H 0.6691 0.2445 0.6191
C10 C 0.8384(13) 0.2793(6) 0.7121(4)
H6 H 0.7610 0.3365 0.7157
C11 C 0.6620(13) 0.4045(7) 0.3447(4)
H7 H 0.6547 0.3339 0.3449
C12 C 0.6386(15) 0.4576(8) 0.2867(4)
H8 H 0.6138 0.4227 0.2466
C13 C 0.6517(14) 0.5636(7) 0.2872(4)
H9 H 0.6371 0.5975 0.2471
C14 C 0.6851(13) 0.6194(7) 0.3441(4)
H10 H 0.6916 0.6901 0.3435
C15 C 0.7090(11) 0.5658(6) 0.4030(4)
C16 C 0.6968(11) 0.4597(5) 0.4028(4)
C17 C 0.7544(11) 0.5109(6) 0.5051(4)
C18 C 0.7875(13) 0.5130(7) 0.5781(4)
H11 H 0.6566 0.5083 0.5876
H12 H 0.8545 0.5755 0.5959
H13 H 0.8730 0.4565 0.5981
Ag1A Ag 1.08742(11) 0.35269(5) 0.84847(3)
N3A N 0.9997(10) -0.2448(5) 0.7365(3)
loop_
_geom_bond_atom_site_label_1
_geom_bond_atom_site_label_2
_geom_bond_site_symmetry_1
_geom_bond_site_symmetry_2
Ag1 O1 1_555 1_555
Ag2 O4 1_555 1_555
O1 C1 1_555 1_555
O2 C1 1_555 1_555
O3 H1 1_555 1_555
O4 C4 1_555 1_555
N1 Ag1 1_555 1_555
N2 Ag2 1_555 1_555
N3 C6 1_555 1_555
N4 Ag2 1_555 1_555
N5 H2 1_555 1_555
C1 C2 1_555 1_555
C2 N1 1_555 1_555
C3 N2 1_555 1_555
C4 O3 1_555 1_555
C5 N1 1_555 1_555
C6 H3 1_555 1_555
C7 C6 1_555 1_555
H4 C7 1_555 1_555
C8 C5 1_555 1_555
C9 C8 1_555 1_555
H5 C9 1_555 1_555
C10 N3 1_555 1_555
H6 C10 1_555 1_555
C11 H7 1_555 1_555
C12 C11 1_555 1_555
H8 C12 1_555 1_555
C13 C12 1_555 1_555
H9 C13 1_555 1_555
C14 C13 1_555 1_555
H10 C14 1_555 1_555
C15 N5 1_555 1_555
C16 N4 1_555 1_555
C17 N4 1_555 1_555
C18 C17 1_555 1_555
H11 C18 1_555 1_555
H12 C18 1_555 1_555
H13 C18 1_555 1_555
Ag1A N3 1_555 1_555
N3A Ag1 1_555 1_555
N2 C5 1_555 1_555
N5 C17 1_555 1_555
C2 C3 1_555 1_555
C3 C4 1_555 1_555
C7 C8 1_555 1_555
C9 C10 1_555 1_555
C11 C16 1_555 1_555
C14 C15 1_555 1_555
C15 C16 1_555 1_555

#END
