
#######################################################################
#
#                 Cambridge Crystallographic Data Centre
#                                CCDC 
#
#######################################################################
#
# If this CIF has been generated from an entry in the Cambridge 
# Structural Database, then it will include bibliographic, chemical, 
# crystal, experimental, refinement or atomic coordinate data resulting 
# from the CCDC's data processing and validation procedures.
#
#######################################################################

data_QOBTOR
_symmetry_cell_setting           monoclinic
_symmetry_space_group_name_H-M   'P 21'
_symmetry_Int_Tables_number      4
_space_group_name_Hall           'P 2yb'
loop_
_symmetry_equiv_pos_site_id
_symmetry_equiv_pos_as_xyz
1 x,y,z
2 -x,1/2+y,-z
_cell_length_a                   8.201(9)
_cell_length_b                   8.030(8)
_cell_length_c                   15.361(16)
_cell_angle_alpha                90
_cell_angle_beta                 102.052(12)
_cell_angle_gamma                90
_cell_volume                     989.287
loop_
_atom_site_label
_atom_site_type_symbol
_atom_site_fract_x
_atom_site_fract_y
_atom_site_fract_z
Na1 Na 0.5056(2) 0.2070(2) -0.0497(1)
O1 O 0.6325(2) 0.2093(3) -0.4004(1)
O2 O 0.2409(2) 0.3110(3) -0.6038(1)
O3 O 0.0494(3) 0.3229(4) -0.4922(1)
O4 O 0.0198(2) 0.3005(3) -0.3168(1)
O5 O 0.2992(3) 0.2382(4) -0.1883(1)
O6 O 0.6833(2) 0.2572(3) -0.8986(1)
O7 O 0.4499(3) -0.0147(3) -0.9391(2)
O8 O 0.2972(3) 0.2362(3) -0.9543(1)
O9 O 0.2305(3) 0.0204(4) -0.8576(2)
O10 O 0.7110(4) 0.0678(4) -0.0955(2)
S1 S 0.3570(1) 0.0989(1) -0.8947(1)
C1 C 0.6500(4) 0.2162(5) -0.4861(2)
C2 C 0.5288(3) 0.2477(4) -0.5569(2)
C3 C 0.3623(4) 0.2776(4) -0.5422(2)
C4 C 0.3433(3) 0.2671(4) -0.4511(2)
C5 C 0.1864(3) 0.2932(4) -0.4280(2)
C6 C 0.1721(3) 0.2839(4) -0.3408(2)
C7 C 0.3122(4) 0.2502(4) -0.2740(2)
C8 C 0.4663(4) 0.2271(5) -0.2943(2)
C9 C 0.4775(3) 0.2352(4) -0.3824(2)
C10 C -0.0467(5) 0.4636(6) -0.3238(3)
C11 C 0.5667(3) 0.2547(4) -0.6469(2)
C12 C 0.4617(4) 0.1847(4) -0.7204(2)
C13 C 0.5012(4) 0.1869(4) -0.8039(2)
C14 C 0.6495(4) 0.2583(4) -0.8153(2)
C15 C 0.7555(4) 0.3296(4) -0.7420(2)
C16 C 0.7130(4) 0.3282(5) -0.6597(2)
C17 C 0.8460(4) 0.3074(6) -0.9076(2)
Na1_2 Na 0.5056(2) 0.2070(2) -1.0497(1)
Na1A Na 0.4944(2) -0.2930(2) -0.9503(1)
O6_2 O 0.6833(2) 0.2572(3) 0.1014(1)
O7_2 O 0.4499(3) -0.0147(3) 0.0609(2)
O7A O 0.5501(3) 0.4853(3) -0.0609(2)
O8_2 O 0.2972(3) 0.2362(3) 0.0457(1)
O11 O 0.8677(3) 0.0222(4) 0.7579(2)
O12 O 0.0513(4) 0.3113(5) 0.8880(2)
loop_
_geom_bond_atom_site_label_1
_geom_bond_atom_site_label_2
_geom_bond_site_symmetry_1
_geom_bond_site_symmetry_2
Na1 O5 1_555 1_555
O1 C1 1_555 1_555
O2 C3 1_555 1_555
O3 C5 1_555 1_555
O4 C6 1_555 1_555
O5 C7 1_555 1_555
O6 C14 1_555 1_555
O7 S1 1_555 1_555
O8 S1 1_555 1_555
O9 S1 1_555 1_555
O10 Na1 1_555 1_555
S1 C13 1_555 1_555
C1 C2 1_555 1_555
C2 C3 1_555 1_555
C3 C4 1_555 1_555
C4 C5 1_555 1_555
C5 C6 1_555 1_555
C6 C7 1_555 1_555
C7 C8 1_555 1_555
C8 C9 1_555 1_555
C9 O1 1_555 1_555
C10 O4 1_555 1_555
C11 C2 1_555 1_555
C12 C11 1_555 1_555
C13 C12 1_555 1_555
C14 C13 1_555 1_555
C15 C14 1_555 1_555
C16 C11 1_555 1_555
C17 O6 1_555 1_555
Na1_2 O6 1_555 1_555
Na1A O7 1_555 1_555
O6_2 Na1 1_555 1_555
O7_2 Na1 1_555 1_555
O7A Na1 1_555 1_555
O8_2 Na1 1_555 1_555
O7 Na1_2 1_555 1_555
O8 Na1_2 1_555 1_555
C4 C9 1_555 1_555
C15 C16 1_555 1_555

#END
