
#######################################################################
#
#                 Cambridge Crystallographic Data Centre
#                                CCDC 
#
#######################################################################
#
# If this CIF has been generated from an entry in the Cambridge 
# Structural Database, then it will include bibliographic, chemical, 
# crystal, experimental, refinement or atomic coordinate data resulting 
# from the CCDC's data processing and validation procedures.
#
#######################################################################

data_QOBVOT
_symmetry_cell_setting           triclinic
_symmetry_space_group_name_H-M   'P -1'
_symmetry_Int_Tables_number      2
_space_group_name_Hall           '-P 1'
loop_
_symmetry_equiv_pos_site_id
_symmetry_equiv_pos_as_xyz
1 x,y,z
2 -x,-y,-z
_cell_length_a                   8.0484(7)
_cell_length_b                   8.8608(8)
_cell_length_c                   13.2224(11)
_cell_angle_alpha                80.830(6)
_cell_angle_beta                 74.965(5)
_cell_angle_gamma                78.782(6)
_cell_volume                     887.358
loop_
_atom_site_label
_atom_site_type_symbol
_atom_site_fract_x
_atom_site_fract_y
_atom_site_fract_z
Al1 Al 0.2019(1) 0.9075(1) 0.1086(1)
Al2 Al 0.2538(1) 1.4831(1) -0.0386(1)
P1 P 0.0378(1) 1.2337(1) 0.0029(1)
P2 P 0.0902(1) 0.8697(1) 0.3656(1)
P3 P 0.3629(1) 0.5471(1) 0.1562(1)
O1 O 0.0876(3) 1.1102(3) 0.0881(2)
O2 O 0.0871(3) 0.9058(3) 0.2503(2)
O3 O 0.3448(3) 0.9295(3) -0.0408(2)
O4 O 0.3405(3) 0.7197(3) 0.1276(2)
O5 O -0.0333(3) 1.1732(3) -0.0746(2)
O6 O 0.6026(3) 0.9990(3) -0.1325(2)
O7 O 0.1983(3) 1.3096(3) -0.0573(2)
O8 O 0.5578(3) 0.4813(3) 0.1314(2)
O9 O -0.0955(3) 1.3605(3) 0.0612(2)
O10 O 0.2766(4) 0.4688(3) 0.0907(2)
O11 O 0.1635(5) 0.6991(4) 0.3936(2)
O12 O -0.1059(4) 0.8958(3) 0.4279(2)
O13 O 0.1877(4) 0.9718(4) 0.4011(2)
O14 O 0.2851(4) 0.4991(3) 0.2717(2)
C5 C 0.4851(5) 0.9795(4) -0.0507(3)
Al1A Al -0.2019(1) 1.0925(1) -0.1086(1)
Al1A_2 Al 0.7981(1) 1.0925(1) -0.1086(1)
Al2A Al -0.2538(1) 0.5169(1) 0.0386(1)
Al2A_2 Al 0.7462(1) 0.5169(1) 0.0386(1)
Al2A_3 Al -0.2538(1) 1.5169(1) 0.0386(1)
Al2_2 Al 0.2538(1) 0.4831(1) -0.0386(1)
Al2A_4 Al 0.7462(1) 1.5169(1) 0.0386(1)
P1A P -0.0378(1) 0.7663(1) -0.0029(1)
P2A P -0.0902(1) 1.1303(1) -0.3656(1)
P3A P 0.6371(1) 1.4529(1) -0.1562(1)
O1A O -0.0876(3) 0.8898(3) -0.0881(2)
O2A O -0.0871(3) 1.0942(3) -0.2503(2)
O3A O 0.6552(3) 1.0705(3) 0.0408(2)
O3A_2 O -0.3448(3) 1.0705(3) 0.0408(2)
O4A O 0.6595(3) 1.2803(3) -0.1276(2)
O4A_2 O -0.3405(3) 1.2803(3) -0.1276(2)
O5A O 0.0333(3) 0.8268(3) 0.0746(2)
O6A O 0.3974(3) 1.0010(3) 0.1325(2)
O6_2 O -0.3974(3) 0.9990(3) -0.1325(2)
O7A O -0.1983(3) 0.6904(3) 0.0573(2)
O8A O 0.4422(3) 1.5187(3) -0.1314(2)
O8_2 O -0.4422(3) 0.4813(3) 0.1314(2)
O9A O 0.0955(3) 0.6395(3) -0.0612(2)
O9A_2 O 0.0955(3) 1.6395(3) -0.0612(2)
O9_2 O -0.0955(3) 0.3605(3) 0.0612(2)
O10A O 0.7234(4) 1.5312(3) -0.0907(2)
O10_2 O 0.2766(4) 1.4688(3) 0.0907(2)
O10A_2 O -0.2766(4) 0.5312(3) -0.0907(2)
O11A O -0.1635(5) 1.3009(4) -0.3936(2)
O12A O 0.1059(4) 1.1042(3) -0.4279(2)
O13A O -0.1877(4) 1.0282(4) -0.4011(2)
O14A O 0.7149(4) 1.5009(3) -0.2717(2)
C5A C 0.5149(5) 1.0205(4) 0.0507(3)
O15 O 0.2746(5) 0.9319(5) -0.2456(3)
O16 O 0.5197(6) 0.7457(5) -0.3851(3)
N1 N -0.4530(5) 1.8326(5) 0.3966(3)
N2 N 0.0925(5) 1.2541(4) 0.2725(3)
C1 C -0.3768(8) 1.7054(7) 0.3292(4)
C2 C -0.2674(7) 1.5758(6) 0.3816(4)
C3 C -0.1525(6) 1.4681(5) 0.3013(3)
C4 C -0.0495(7) 1.3311(5) 0.3521(3)
loop_
_geom_bond_atom_site_label_1
_geom_bond_atom_site_label_2
_geom_bond_site_symmetry_1
_geom_bond_site_symmetry_2
Al1 O1 1_555 1_555
Al2 O7 1_555 1_555
P1 O1 1_555 1_555
P2 O2 1_555 1_555
P3 O4 1_555 1_555
O2 Al1 1_555 1_555
O3 Al1 1_555 1_555
O4 Al1 1_555 1_555
O5 P1 1_555 1_555
O6 C5 1_555 1_555
O7 P1 1_555 1_555
O8 P3 1_555 1_555
O9 P1 1_555 1_555
O10 P3 1_555 1_555
O11 P2 1_555 1_555
O12 P2 1_555 1_555
O13 P2 1_555 1_555
O14 P3 1_555 1_555
N1 C1 1_555 1_555
N2 C4 1_555 1_555
C1 C2 1_555 1_555
C2 C3 1_555 1_555
C3 C4 1_555 1_555
C5 O3 1_555 1_555
Al1A O5 1_555 1_555
Al1A_2 O6 1_555 1_555
Al2A O7A 1_555 1_555
Al2A_2 O8 1_555 1_555
Al2A_3 O9 1_555 1_555
Al2_2 O10 1_555 1_555
Al2A_4 O10A 1_555 1_555
P1A O1A 1_555 1_555
P2A O2A 1_555 1_555
P3A O4A 1_555 1_555
O1A Al1A 1_555 1_555
O2A Al1A 1_555 1_555
O3A Al1A_2 1_555 1_555
O3A_2 Al1A 1_555 1_555
O4A Al1A_2 1_555 1_555
O4A_2 Al1A 1_555 1_555
O5A Al1 1_555 1_555
O6A Al1 1_555 1_555
O6_2 Al1A 1_555 1_555
O7A P1A 1_555 1_555
O8A Al2 1_555 1_555
O8_2 Al2A 1_555 1_555
O9A Al2_2 1_555 1_555
O9A_2 Al2 1_555 1_555
O9_2 Al2A 1_555 1_555
O10A P3A 1_555 1_555
O10_2 Al2 1_555 1_555
O10A_2 Al2A 1_555 1_555
O11A P2A 1_555 1_555
O12A P2A 1_555 1_555
O13A P2A 1_555 1_555
O14A P3A 1_555 1_555
C5A C5 1_555 1_555
P1A O5A 1_555 1_555
P1A O9A 1_555 1_555
P3A O8A 1_555 1_555
O3A C5A 1_555 1_555
O6A C5A 1_555 1_555

#END
