
#######################################################################
#
#                 Cambridge Crystallographic Data Centre
#                                CCDC 
#
#######################################################################
#
# If this CIF has been generated from an entry in the Cambridge 
# Structural Database, then it will include bibliographic, chemical, 
# crystal, experimental, refinement or atomic coordinate data resulting 
# from the CCDC's data processing and validation procedures.
#
#######################################################################

data_QOBXUC
_symmetry_cell_setting           monoclinic
_symmetry_space_group_name_H-M   'C c'
_symmetry_Int_Tables_number      9
_space_group_name_Hall           'C -2yc'
loop_
_symmetry_equiv_pos_site_id
_symmetry_equiv_pos_as_xyz
1 x,y,z
2 x,-y,1/2+z
3 1/2+x,1/2+y,z
4 1/2+x,1/2-y,1/2+z
_cell_length_a                   17.4887(14)
_cell_length_b                   19.4133(16)
_cell_length_c                   16.4263(13)
_cell_angle_alpha                90
_cell_angle_beta                 95.181(1)
_cell_angle_gamma                90
_cell_volume                     5554.16
loop_
_atom_site_label
_atom_site_type_symbol
_atom_site_fract_x
_atom_site_fract_y
_atom_site_fract_z
Ce1 Ce 0.009303(13) 0.731802(10) 0.678697(13)
Br1 Br -0.07010(2) 0.85823(2) 0.74047(3)
Br2 Br -0.15539(2) 0.70992(2) 0.62905(3)
Br3 Br -0.06185(2) 0.69320(2) 0.83168(2)
Br4 Br 0.08148(2) 0.85559(2) 0.60954(3)
Br5 Br 0.00240(2) 0.70094(2) 0.49868(2)
Br6 Br 0.17218(2) 0.68118(2) 0.64104(2)
N1 N 0.1097(2) 0.75540(19) 0.8022(2)
N2 N 0.0121(2) 0.59709(17) 0.6760(2)
Ce2 Ce -0.211968(12) 0.779311(11) 0.782124(13)
Ce3 Ce 0.159350(13) 0.765239(10) 0.488953(15)
C1 C 0.1426(2) 0.7990(2) 0.8353(3)
C2 C 0.0055(2) 0.5422(2) 0.6532(2)
Br7 Br 0.24575(2) 0.84815(2) 0.37460(3)
Br8 Br 0.12617(2) 0.68891(2) 0.33109(2)
Br9 Br 0.30595(2) 0.68933(2) 0.46431(2)
N3 N 0.0654(2) 0.84876(19) 0.4066(2)
N4 N 0.2603(2) 0.8305(2) 0.5881(2)
C3 C 0.1799(3) 0.8587(2) 0.8722(3)
C4 C -0.0087(2) 0.4733(2) 0.6211(3)
C5 C 0.0259(3) 0.8659(2) 0.3509(3)
C6 C 0.2880(2) 0.8649(2) 0.6390(3)
C7 C 0.1610(3) 0.9225(2) 0.8374(3)
C8 C 0.2308(3) 0.8529(2) 0.9422(3)
C9 C 0.0223(2) 0.4157(2) 0.6630(3)
C10 C -0.0564(2) 0.4661(2) 0.5492(2)
N5 N 0.2774(2) 0.58493(18) 0.3123(2)
N6 N 0.1815(2) 0.79302(19) 0.1942(2)
N7 N 0.2294(2) 0.65049(19) 0.1551(2)
C11 C -0.0238(2) 0.8803(2) 0.2792(3)
C12 C 0.3218(2) 0.9097(2) 0.7016(3)
H1 H 0.1272 0.9255 0.7905
C13 C 0.1925(3) 0.9806(2) 0.8729(3)
C14 C 0.2628(3) 0.9129(2) 0.9775(3)
H2 H 0.2433 0.8100 0.9648
H3 H 0.0545 0.4208 0.7108
C15 C 0.0044(2) 0.3512(2) 0.6321(3)
C16 C -0.0739(2) 0.4009(2) 0.5197(3)
H4 H -0.0763 0.5048 0.5214
C17 C 0.2859(2) 0.5306(2) 0.3381(3)
C18 C 0.1412(3) 0.8227(2) 0.1494(3)
C19 C 0.2025(2) 0.6178(2) 0.1011(3)
C20 C -0.0559(2) 0.8241(2) 0.2352(3)
C21 C -0.0415(3) 0.9480(2) 0.2553(3)
C22 C 0.3649(2) 0.8823(2) 0.7691(3)
C23 C 0.3125(3) 0.9805(2) 0.6923(3)
H5 H 0.1803 1.0235 0.8501
C24 C 0.2427(3) 0.9759(2) 0.9428(3)
H6 H 0.2972 0.9104 1.0240
H7 H 0.0253 0.3125 0.6590
C25 C -0.0443(2) 0.3432(2) 0.5616(3)
H8 H -0.1057 0.3955 0.4716
C26 C 0.3022(2) 0.4632(2) 0.3727(3)
C27 C 0.0915(2) 0.8573(2) 0.0870(3)
C28 C 0.1691(2) 0.5759(2) 0.0346(3)
H9 H -0.0437 0.7793 0.2518
C29 C -0.1059(3) 0.8361(2) 0.1667(3)
C30 C -0.0915(3) 0.9586(2) 0.1864(3)
H10 H -0.0200 0.9850 0.2851
H11 H 0.3698 0.8349 0.7759
C31 C 0.4004(3) 0.9272(2) 0.8261(3)
C32 C 0.3486(3) 1.0242(2) 0.7497(3)
H12 H 0.2821 0.9982 0.6478
H13 H 0.2633 1.0159 0.9669
H14 H -0.0573 0.2994 0.5423
C33 C 0.2782(2) 0.4044(2) 0.3290(3)
C34 C 0.3434(2) 0.4577(2) 0.4486(3)
C35 C 0.0844(3) 0.9288(2) 0.0875(3)
C36 C 0.0531(2) 0.8184(2) 0.0252(3)
C37 C 0.1318(3) 0.6066(2) -0.0343(3)
C38 C 0.1725(3) 0.5047(2) 0.0419(3)
H15 H -0.1277 0.7993 0.1367
C39 C -0.1235(3) 0.9033(2) 0.1427(3)
H16 H -0.1038 1.0032 0.1694
H17 H 0.4297 0.9099 0.8716
C40 C 0.3925(3) 0.9974(2) 0.8156(3)
H18 H 0.3432 1.0716 0.7438
H19 H 0.2495 0.4083 0.2788
C41 C 0.2974(3) 0.3403(2) 0.3608(3)
C42 C 0.3619(3) 0.3933(3) 0.4796(3)
H20 H 0.3583 0.4970 0.4782
H21 H 0.1093 0.9548 0.1295
C43 C 0.0396(3) 0.9608(2) 0.0244(3)
C44 C 0.0082(2) 0.8502(2) -0.0365(3)
H22 H 0.0577 0.7707 0.0257
H23 H 0.1291 0.6543 -0.0386
C45 C 0.0989(3) 0.5656(2) -0.0960(3)
C46 C 0.1387(3) 0.4643(2) -0.0212(3)
H24 H 0.1972 0.4843 0.0883
H25 H -0.1573 0.9112 0.0966
H26 H 0.4173 1.0271 0.8538
H27 H 0.2821 0.3009 0.3315
C47 C 0.3392(3) 0.3343(3) 0.4360(3)
H28 H 0.3900 0.3892 0.5303
H29 H 0.0348 1.0085 0.0236
C48 C 0.0022(3) 0.9219(2) -0.0371(3)
H30 H -0.0179 0.8242 -0.0777
H31 H 0.0737 0.5857 -0.1424
C49 C 0.1030(3) 0.4953(2) -0.0896(3)
H32 H 0.1401 0.4166 -0.0171
H33 H 0.3521 0.2910 0.4573
H34 H -0.0274 0.9437 -0.0795
H35 H 0.0813 0.4681 -0.1323
Ce2C Ce 0.288032(12) 0.720689(11) 0.282124(13)
Br1C Br 0.42990(2) 0.64177(2) 0.24047(3)
Br2C Br 0.34461(2) 0.79008(2) 0.12905(3)
Br3C Br 0.43815(2) 0.80680(2) 0.33168(2)
loop_
_geom_bond_atom_site_label_1
_geom_bond_atom_site_label_2
_geom_bond_site_symmetry_1
_geom_bond_site_symmetry_2
Ce1 Br1 1_555 1_555
Br1 Ce2 1_555 1_555
Br2 Ce1 1_555 1_555
Br3 Ce1 1_555 1_555
Br4 Ce1 1_555 1_555
Br5 Ce1 1_555 1_555
Br6 Ce1 1_555 1_555
N1 Ce1 1_555 1_555
N2 Ce1 1_555 1_555
Ce2 Br2 1_555 1_555
Ce3 Br4 1_555 1_555
C1 N1 1_555 1_555
C2 N2 1_555 1_555
Br7 Ce3 1_555 1_555
Br8 Ce3 1_555 1_555
Br9 Ce3 1_555 1_555
N3 Ce3 1_555 1_555
N4 Ce3 1_555 1_555
C3 C1 1_555 1_555
C4 C2 1_555 1_555
C5 N3 1_555 1_555
C6 N4 1_555 1_555
C7 C3 1_555 1_555
C8 C3 1_555 1_555
C9 C4 1_555 1_555
C10 C4 1_555 1_555
N5 C17 1_555 1_555
N6 C18 1_555 1_555
N7 C19 1_555 1_555
C11 C5 1_555 1_555
C12 C6 1_555 1_555
H1 C7 1_555 1_555
C13 C7 1_555 1_555
C14 C8 1_555 1_555
H2 C8 1_555 1_555
H3 C9 1_555 1_555
C15 C9 1_555 1_555
C16 C10 1_555 1_555
H4 C10 1_555 1_555
C17 C26 1_555 1_555
C18 C27 1_555 1_555
C19 C28 1_555 1_555
C20 C11 1_555 1_555
C21 C11 1_555 1_555
C22 C12 1_555 1_555
C23 C12 1_555 1_555
H5 C13 1_555 1_555
C24 C13 1_555 1_555
H6 C14 1_555 1_555
H7 C15 1_555 1_555
C25 C15 1_555 1_555
H8 C16 1_555 1_555
C26 C33 1_555 1_555
C27 C35 1_555 1_555
C28 C37 1_555 1_555
H9 C20 1_555 1_555
C29 C20 1_555 1_555
C30 C21 1_555 1_555
H10 C21 1_555 1_555
H11 C22 1_555 1_555
C31 C22 1_555 1_555
C32 C23 1_555 1_555
H12 C23 1_555 1_555
H13 C24 1_555 1_555
H14 C25 1_555 1_555
C33 H19 1_555 1_555
C34 C26 1_555 1_555
C35 H21 1_555 1_555
C36 C27 1_555 1_555
C37 H23 1_555 1_555
C38 C28 1_555 1_555
H15 C29 1_555 1_555
C39 C29 1_555 1_555
H16 C30 1_555 1_555
H17 C31 1_555 1_555
C40 C31 1_555 1_555
H18 C32 1_555 1_555
C41 C33 1_555 1_555
C42 C34 1_555 1_555
H20 C34 1_555 1_555
C43 C35 1_555 1_555
C44 C36 1_555 1_555
H22 C36 1_555 1_555
C45 C37 1_555 1_555
C46 C38 1_555 1_555
H24 C38 1_555 1_555
H25 C39 1_555 1_555
H26 C40 1_555 1_555
H27 C41 1_555 1_555
C47 C41 1_555 1_555
H28 C42 1_555 1_555
H29 C43 1_555 1_555
C48 C43 1_555 1_555
H30 C44 1_555 1_555
H31 C45 1_555 1_555
C49 C45 1_555 1_555
H32 C46 1_555 1_555
H33 C47 1_555 1_555
H34 C48 1_555 1_555
H35 C49 1_555 1_555
Ce2C Br7 1_555 1_555
Br1C Ce2C 1_555 1_555
Br2C Ce2C 1_555 1_555
Br3C Ce2C 1_555 1_555
Br3 Ce2 1_555 1_555
Br5 Ce3 1_555 1_555
Br6 Ce3 1_555 1_555
Br8 Ce2C 1_555 1_555
Br9 Ce2C 1_555 1_555
N5 Ce2C 1_555 1_555
N6 Ce2C 1_555 1_555
N7 Ce2C 1_555 1_555
C14 C24 1_555 1_555
C16 C25 1_555 1_555
C30 C39 1_555 1_555
C32 C40 1_555 1_555
C42 C47 1_555 1_555
C44 C48 1_555 1_555
C46 C49 1_555 1_555

#END
