
#######################################################################
#
#                 Cambridge Crystallographic Data Centre
#                                CCDC 
#
#######################################################################
#
# If this CIF has been generated from an entry in the Cambridge 
# Structural Database, then it will include bibliographic, chemical, 
# crystal, experimental, refinement or atomic coordinate data resulting 
# from the CCDC's data processing and validation procedures.
#
#######################################################################

data_QOBYOW
_symmetry_cell_setting           triclinic
_symmetry_space_group_name_H-M   'P -1'
_symmetry_Int_Tables_number      2
_space_group_name_Hall           '-P 1'
loop_
_symmetry_equiv_pos_site_id
_symmetry_equiv_pos_as_xyz
1 x,y,z
2 -x,-y,-z
_cell_length_a                   9.3221(8)
_cell_length_b                   11.7978(6)
_cell_length_c                   13.7528(12)
_cell_angle_alpha                106.020(5)
_cell_angle_beta                 95.850(3)
_cell_angle_gamma                107.356(5)
_cell_volume                     1359.33
loop_
_atom_site_label
_atom_site_type_symbol
_atom_site_fract_x
_atom_site_fract_y
_atom_site_fract_z
Cu1 Cu 0.5000 0.5000 0.5000
Cu2 Cu 0.5000 0.0000 0.0000
O1 O 0.3697(4) 0.1494(3) 0.3764(2)
O2 O 0.6007(4) 0.2936(3) 0.4491(3)
O3 O 0.5736(4) 0.0966(3) 0.2204(3)
O4 O 0.5214(4) 0.2702(3) 0.2230(2)
N1 N 0.7197(4) 0.6264(3) 0.5373(3)
H1 H 0.7080 0.7031 0.5677
N2 N 0.4953(4) 0.4896(3) 0.6427(3)
H2 H 0.4695 0.5569 0.6798
N3 N 0.7275(4) 0.0845(3) 0.0050(3)
H3 H 0.7457 0.0627 -0.0617
N4 N 0.5178(4) -0.1676(3) -0.0042(3)
H4 H 0.5145 -0.2049 -0.0738
C1 C 0.8372(5) 0.6196(4) 0.6168(4)
H5 H 0.8594 0.5403 0.5883
C2 C 0.9882(6) 0.7313(5) 0.6442(4)
H6 H 1.0308 0.7317 0.5820
H7 H 1.0617 0.7236 0.6960
H8 H 0.9681 0.8098 0.6720
C3 C 0.7728(6) 0.6161(4) 0.7140(4)
H9 H 0.8571 0.6277 0.7698
H10 H 0.7357 0.6877 0.7360
C4 C 0.6435(5) 0.4969(4) 0.7021(4)
H11 H 0.6716 0.4239 0.6661
H12 H 0.6294 0.4920 0.7714
C5 C 0.3677(5) 0.3725(4) 0.6334(4)
H13 H 0.4012 0.2998 0.6026
C6 C 0.3249(6) 0.3635(5) 0.7368(4)
H14 H 0.4188 0.3784 0.7863
H15 H 0.2543 0.2776 0.7260
C7 C 0.2488(6) 0.4577(5) 0.7827(4)
H16 H 0.3235 0.5438 0.8017
H17 H 0.2165 0.4446 0.8463
C8 C 0.1099(6) 0.4436(5) 0.7062(4)
H18 H 0.0316 0.3599 0.6919
H19 H 0.0646 0.5078 0.7369
C9 C 0.1537(5) 0.4585(4) 0.6052(4)
H20 H 0.0608 0.4459 0.5559
H21 H 0.2259 0.5445 0.6185
C10 C 0.7707(5) 0.6379(4) 0.4418(4)
H22 H 0.8479 0.7237 0.4583
C11 C 0.8265(5) 0.0442(4) 0.0709(3)
H23 H 0.8037 0.0626 0.1412
H24 H 0.9356 0.0929 0.0766
C12 C 0.8012(5) -0.0942(4) 0.0270(3)
H25 H 0.8919 -0.1102 0.0564
H26 H 0.7945 -0.1161 -0.0485
C13 C 0.6585(5) -0.1808(4) 0.0474(3)
H27 H 0.6625 -0.1559 0.1235
C14 C 0.6547(5) -0.3164(4) 0.0094(4)
H28 H 0.5684 -0.3703 0.0291
H29 H 0.7509 -0.3216 0.0406
H30 H 0.6425 -0.3442 -0.0660
C15 C 0.3714(5) -0.2491(4) 0.0129(3)
H31 H 0.3603 -0.3386 -0.0217
C16 C 0.3643(5) -0.2317(4) 0.1255(3)
H32 H 0.4510 -0.2485 0.1594
H33 H 0.3727 -0.1441 0.1614
C17 C 0.2126(5) -0.3216(4) 0.1330(4)
H34 H 0.2070 -0.4093 0.1003
H35 H 0.2073 -0.3095 0.2066
C18 C 0.0763(5) -0.2986(4) 0.0791(4)
H36 H 0.0737 -0.2153 0.1182
H37 H -0.0204 -0.3628 0.0792
C19 C 0.0868(5) -0.3037(4) -0.0316(3)
H38 H 0.0672 -0.3918 -0.0737
H39 H 0.0051 -0.2769 -0.0597
C20 C 0.7581(5) 0.2215(4) 0.0429(3)
H40 H 0.7545 0.2455 0.1180
C21 C 0.5045(6) 0.2122(4) 0.3728(4)
C22 C 0.5376(5) 0.1898(4) 0.2635(4)
Cu2_2 Cu 0.5000 1.0000 1.0000
O1A O 0.6303(4) 0.8506(3) 0.6236(2)
O2A O 0.3993(4) 0.7064(3) 0.5509(3)
O3A O 0.4264(4) 0.9034(3) 0.7796(3)
O3A_2 O 0.4264(4) -0.0966(3) -0.2204(3)
O4A O 0.4786(4) 0.7298(3) 0.7770(2)
N1A N 0.2803(4) 0.3736(3) 0.4627(3)
H1A H 0.2920 0.2969 0.4323
N2A N 0.5047(4) 0.5104(3) 0.3573(3)
H2A H 0.5305 0.4431 0.3202
N3A N 0.2725(4) -0.0845(3) -0.0050(3)
H3A H 0.2543 -0.0627 0.0617
N4A N 0.4822(4) 0.1676(3) 0.0042(3)
H4A H 0.4855 0.2049 0.0738
C1A C 0.1628(5) 0.3804(4) 0.3832(4)
H5A H 0.1406 0.4597 0.4117
C2A C 0.0118(6) 0.2687(5) 0.3558(4)
H6A H -0.0308 0.2683 0.4180
H7A H -0.0617 0.2764 0.3040
H8A H 0.0319 0.1902 0.3280
C3A C 0.2272(6) 0.3839(4) 0.2860(4)
H9A H 0.1429 0.3723 0.2302
H10A H 0.2643 0.3123 0.2640
C4A C 0.3565(5) 0.5031(4) 0.2979(4)
H11A H 0.3284 0.5761 0.3339
H12A H 0.3706 0.5080 0.2286
C5A C 0.6323(5) 0.6275(4) 0.3666(4)
H13A H 0.5988 0.7002 0.3974
C6A C 0.6751(6) 0.6365(5) 0.2632(4)
H14A H 0.5812 0.6216 0.2137
H15A H 0.7457 0.7224 0.2740
C7A C 0.7512(6) 0.5423(5) 0.2173(4)
H16A H 0.6765 0.4562 0.1983
H17A H 0.7835 0.5554 0.1537
C8A C 0.8901(6) 0.5564(5) 0.2938(4)
H18A H 0.9684 0.6401 0.3081
H19A H 0.9354 0.4922 0.2631
C9A C 0.8463(5) 0.5415(4) 0.3948(4)
H20A H 0.9392 0.5541 0.4441
H21A H 0.7741 0.4555 0.3815
C10A C 0.2293(5) 0.3621(4) 0.5582(4)
H22A H 0.1521 0.2763 0.5417
C11A C 0.1735(5) -0.0442(4) -0.0709(3)
H23A H 0.1963 -0.0626 -0.1412
H24A H 0.0644 -0.0929 -0.0766
C12A C 0.1988(5) 0.0942(4) -0.0270(3)
H25A H 0.1081 0.1102 -0.0564
H26A H 0.2055 0.1161 0.0485
C13A C 0.3415(5) 0.1808(4) -0.0474(3)
H27A H 0.3375 0.1559 -0.1235
C14A C 0.3453(5) 0.3164(4) -0.0094(4)
H28A H 0.4316 0.3703 -0.0291
H29A H 0.2491 0.3216 -0.0406
H30A H 0.3575 0.3442 0.0660
C15A C 0.6286(5) 0.2491(4) -0.0129(3)
H31A H 0.6397 0.3386 0.0217
C16A C 0.6357(5) 0.2317(4) -0.1255(3)
H32A H 0.5490 0.2485 -0.1594
H33A H 0.6273 0.1441 -0.1614
C17A C 0.7874(5) 0.3216(4) -0.1330(4)
H34A H 0.7930 0.4093 -0.1003
H35A H 0.7927 0.3095 -0.2066
C18A C 0.9237(5) 0.2986(4) -0.0791(4)
H36A H 0.9263 0.2153 -0.1182
H37A H 1.0204 0.3628 -0.0792
C19A C 0.9132(5) 0.3037(4) 0.0316(3)
H38A H 0.9328 0.3918 0.0737
H39A H 0.9949 0.2769 0.0597
C20A C 0.2419(5) -0.2215(4) -0.0429(3)
H40A H 0.2455 -0.2455 -0.1180
C21A C 0.4955(6) 0.7878(4) 0.6272(4)
C22A C 0.4624(5) 0.8102(4) 0.7365(4)
O5 O 0.4030(5) -0.1766(3) 0.3911(3)
H41 H 0.3446 -0.1354 0.4075
H42 H 0.4020 -0.2107 0.4373
O6 O 0.6693(4) -0.0323(3) 0.3420(3)
H43 H 0.5943 -0.0750 0.3606
H44 H 0.6495 0.0068 0.3028
O7 O 0.8326(4) -0.0229(3) -0.1913(3)
H45 H 0.8949 0.0315 -0.2092
H46 H 0.7548 -0.0579 -0.2393
O8 O 0.8000(4) 0.0362(3) -0.4471(3)
H47 H 0.7488 -0.0199 -0.4253
H48 H 0.7613 0.0161 -0.5100
O9 O 1.0581(4) 0.0762(4) -0.2938(3)
H49 H 1.1360 0.0575 -0.3065
H50 H 1.0097 0.0588 -0.3540
loop_
_geom_bond_atom_site_label_1
_geom_bond_atom_site_label_2
_geom_bond_site_symmetry_1
_geom_bond_site_symmetry_2
Cu1 O2 1_555 1_555
Cu2 O3 1_555 1_555
O1 C21 1_555 1_555
O2 C21 1_555 1_555
O3 C22 1_555 1_555
O4 C22 1_555 1_555
N1 Cu1 1_555 1_555
H1 N1 1_555 1_555
N2 Cu1 1_555 1_555
H2 N2 1_555 1_555
N3 Cu2 1_555 1_555
H3 N3 1_555 1_555
N4 Cu2 1_555 1_555
H4 N4 1_555 1_555
C1 N1 1_555 1_555
H5 C1 1_555 1_555
C2 C1 1_555 1_555
H6 C2 1_555 1_555
H7 C2 1_555 1_555
H8 C2 1_555 1_555
C3 C1 1_555 1_555
H9 C3 1_555 1_555
H10 C3 1_555 1_555
C4 N2 1_555 1_555
H11 C4 1_555 1_555
H12 C4 1_555 1_555
C5 N2 1_555 1_555
H13 C5 1_555 1_555
C6 C5 1_555 1_555
H14 C6 1_555 1_555
H15 C6 1_555 1_555
C7 C6 1_555 1_555
H16 C7 1_555 1_555
H17 C7 1_555 1_555
C8 C7 1_555 1_555
H18 C8 1_555 1_555
H19 C8 1_555 1_555
C9 C8 1_555 1_555
H20 C9 1_555 1_555
H21 C9 1_555 1_555
C10 N1 1_555 1_555
H22 C10 1_555 1_555
C11 N3 1_555 1_555
H23 C11 1_555 1_555
H24 C11 1_555 1_555
C12 C11 1_555 1_555
H25 C12 1_555 1_555
H26 C12 1_555 1_555
C13 N4 1_555 1_555
H27 C13 1_555 1_555
C14 C13 1_555 1_555
H28 C14 1_555 1_555
H29 C14 1_555 1_555
H30 C14 1_555 1_555
C15 N4 1_555 1_555
H31 C15 1_555 1_555
C16 C15 1_555 1_555
H32 C16 1_555 1_555
H33 C16 1_555 1_555
C17 C16 1_555 1_555
H34 C17 1_555 1_555
H35 C17 1_555 1_555
C18 C17 1_555 1_555
H36 C18 1_555 1_555
H37 C18 1_555 1_555
C19 C18 1_555 1_555
H38 C19 1_555 1_555
H39 C19 1_555 1_555
C20 N3 1_555 1_555
H40 C20 1_555 1_555
C21 C22 1_555 1_555
O5 H41 1_555 1_555
H42 O5 1_555 1_555
O6 H43 1_555 1_555
H44 O6 1_555 1_555
O7 H45 1_555 1_555
H46 O7 1_555 1_555
O8 H47 1_555 1_555
H48 O8 1_555 1_555
O9 H49 1_555 1_555
H50 O9 1_555 1_555
Cu2_2 O3A 1_555 1_555
O1A C21A 1_555 1_555
O2A Cu1 1_555 1_555
O3A C22A 1_555 1_555
O3A_2 Cu2 1_555 1_555
O4A C22A 1_555 1_555
N1A Cu1 1_555 1_555
H1A N1A 1_555 1_555
N2A Cu1 1_555 1_555
H2A N2A 1_555 1_555
N3A Cu2 1_555 1_555
H3A N3A 1_555 1_555
N4A Cu2 1_555 1_555
H4A N4A 1_555 1_555
C1A N1A 1_555 1_555
H5A C1A 1_555 1_555
C2A C1A 1_555 1_555
H6A C2A 1_555 1_555
H7A C2A 1_555 1_555
H8A C2A 1_555 1_555
C3A C1A 1_555 1_555
H9A C3A 1_555 1_555
H10A C3A 1_555 1_555
C4A N2A 1_555 1_555
H11A C4A 1_555 1_555
H12A C4A 1_555 1_555
C5A C10 1_555 1_555
H13A C5A 1_555 1_555
C6A C5A 1_555 1_555
H14A C6A 1_555 1_555
H15A C6A 1_555 1_555
C7A C6A 1_555 1_555
H16A C7A 1_555 1_555
H17A C7A 1_555 1_555
C8A C7A 1_555 1_555
H18A C8A 1_555 1_555
H19A C8A 1_555 1_555
C9A C10 1_555 1_555
H20A C9A 1_555 1_555
H21A C9A 1_555 1_555
C10A C5 1_555 1_555
H22A C10A 1_555 1_555
C11A N3A 1_555 1_555
H23A C11A 1_555 1_555
H24A C11A 1_555 1_555
C12A C11A 1_555 1_555
H25A C12A 1_555 1_555
H26A C12A 1_555 1_555
C13A N4A 1_555 1_555
H27A C13A 1_555 1_555
C14A C13A 1_555 1_555
H28A C14A 1_555 1_555
H29A C14A 1_555 1_555
H30A C14A 1_555 1_555
C15A C20 1_555 1_555
H31A C15A 1_555 1_555
C16A C15A 1_555 1_555
H32A C16A 1_555 1_555
H33A C16A 1_555 1_555
C17A C16A 1_555 1_555
H34A C17A 1_555 1_555
H35A C17A 1_555 1_555
C18A C17A 1_555 1_555
H36A C18A 1_555 1_555
H37A C18A 1_555 1_555
C19A C20 1_555 1_555
H38A C19A 1_555 1_555
H39A C19A 1_555 1_555
C20A C15 1_555 1_555
H40A C20A 1_555 1_555
C21A O2A 1_555 1_555
C22A C21A 1_555 1_555
C3 C4 1_555 1_555
C9 C10A 1_555 1_555
C12 C13 1_555 1_555
C19 C20A 1_555 1_555
N1A C10A 1_555 1_555
N2A C5A 1_555 1_555
N3A C20A 1_555 1_555
N4A C15A 1_555 1_555
C3A C4A 1_555 1_555
C8A C9A 1_555 1_555
C12A C13A 1_555 1_555
C18A C19A 1_555 1_555

#END
