
#######################################################################
#
#                 Cambridge Crystallographic Data Centre
#                                CCDC 
#
#######################################################################
#
# If this CIF has been generated from an entry in the Cambridge 
# Structural Database, then it will include bibliographic, chemical, 
# crystal, experimental, refinement or atomic coordinate data resulting 
# from the CCDC's data processing and validation procedures.
#
#######################################################################

data_QOBYAJ
_symmetry_cell_setting           trigonal
_symmetry_space_group_name_H-M   'P 31 2 1'
_symmetry_Int_Tables_number      152
_space_group_name_Hall           'P 31 2"'
loop_
_symmetry_equiv_pos_site_id
_symmetry_equiv_pos_as_xyz
1 x,y,z
2 -y,x-y,1/3+z
3 -x+y,-x,2/3+z
4 y,x,-z
5 x-y,-y,2/3-z
6 -x,-x+y,1/3-z
_cell_length_a                   11.4922(4)
_cell_length_b                   11.4922(4)
_cell_length_c                   23.6456(17)
_cell_angle_alpha                90
_cell_angle_beta                 90
_cell_angle_gamma                120
_cell_volume                     2704.5
loop_
_atom_site_label
_atom_site_type_symbol
_atom_site_fract_x
_atom_site_fract_y
_atom_site_fract_z
Ce1 Ce 0.04001(2) 0.13487(2) 0.079514(9)
Br1 Br 0.26377(4) 0.09254(4) 0.034237(15)
Br2 Br -0.09997(4) -0.09997(4) 0.0000
Br3 Br -0.17333(5) -0.07252(4) 0.151774(17)
Br4 Br 0.0000 0.30666(5) 0.1667
N1 N -0.1814(4) 0.1305(4) 0.04572(14)
N2 N 0.2637(4) 0.3587(4) 0.09066(15)
C1 C -0.2617(4) 0.1040(5) 0.01247(17)
C2 C -0.3609(5) 0.0697(5) -0.03416(19)
C3 C -0.3858(7) 0.1833(7) -0.0419(3)
H1 H -0.4154 0.2016 -0.0068
H2 H -0.4537 0.1604 -0.0702
H3 H -0.3042 0.2615 -0.0537
C4 C -0.3050(8) 0.0482(10) -0.0854(2)
H4 H -0.3741 0.0075 -0.1135
H5 H -0.2696 -0.0100 -0.0774
H6 H -0.2343 0.1328 -0.0991
C5 C -0.4921(6) -0.0557(6) -0.0169(3)
H7 H -0.5262 -0.0374 0.0170
H8 H -0.4755 -0.1285 -0.0101
H9 H -0.5570 -0.0799 -0.0467
C6 C 0.3654(5) 0.4440(4) 0.10425(19)
C7 C 0.4919(5) 0.5592(6) 0.1239(3)
C8 C 0.5402(10) 0.6611(10) 0.0772(3)
H10 H 0.4746 0.6877 0.0702
H11 H 0.5535 0.6227 0.0435
H12 H 0.6236 0.7383 0.0881
C9 C 0.5949(14) 0.5296(17) 0.1222(6)
H13 H 0.5941 0.4902 0.0863
H14 H 0.5824 0.4675 0.1519
H15 H 0.6795 0.6107 0.1272
C10 C 0.4796(10) 0.6142(12) 0.1735(4)
H16 H 0.4122 0.6396 0.1692
H17 H 0.5640 0.6921 0.1827
H18 H 0.4539 0.5493 0.2034
Ce1C Ce 0.13487(2) 0.04001(2) -0.079514(9)
Br1C Br 0.09254(4) 0.26377(4) -0.034237(15)
Br3C Br -0.07252(4) -0.17333(5) -0.151774(17)
N1C N 0.1305(4) -0.1814(4) -0.04572(14)
N2C N 0.3587(4) 0.2637(4) -0.09066(15)
C1C C 0.1040(5) -0.2617(4) -0.01247(17)
C2C C 0.0697(5) -0.3609(5) 0.03416(19)
C3C C 0.1833(7) -0.3858(7) 0.0419(3)
H1C H 0.2016 -0.4154 0.0068
H2C H 0.1604 -0.4537 0.0702
H3C H 0.2615 -0.3042 0.0537
C4C C 0.0482(10) -0.3050(8) 0.0854(2)
H4C H 0.0075 -0.3741 0.1135
H5C H -0.0100 -0.2696 0.0774
H6C H 0.1328 -0.2343 0.0991
C5C C -0.0557(6) -0.4921(6) 0.0169(3)
H7C H -0.0374 -0.5262 -0.0170
H8C H -0.1285 -0.4755 0.0101
H9C H -0.0799 -0.5570 0.0467
C6C C 0.4440(4) 0.3654(5) -0.10425(19)
C7C C 0.5592(6) 0.4919(5) -0.1239(3)
C8C C 0.6611(10) 0.5402(10) -0.0772(3)
H10C H 0.6877 0.4746 -0.0702
H11C H 0.6227 0.5535 -0.0435
H12C H 0.7383 0.6236 -0.0881
C9C C 0.5296(17) 0.5949(14) -0.1222(6)
H13C H 0.4902 0.5941 -0.0863
H14C H 0.4675 0.5824 -0.1519
H15C H 0.6107 0.6795 -0.1272
C10C C 0.6142(12) 0.4796(10) -0.1735(4)
H16C H 0.6396 0.4122 -0.1692
H17C H 0.6921 0.5640 -0.1827
H18C H 0.5493 0.4539 -0.2034
Ce1B Ce 0.09486(3) -0.04001(2) -0.253819(9)
Ce1E Ce -0.04001(2) 0.09486(3) 0.253819(9)
Br3B Br 0.10081(6) 0.17333(5) -0.181559(17)
Br3E Br 0.17333(5) 0.10081(6) 0.181559(17)
Br4B Br 0.30666(5) 0.0000 -0.1666
loop_
_geom_bond_atom_site_label_1
_geom_bond_atom_site_label_2
_geom_bond_site_symmetry_1
_geom_bond_site_symmetry_2
Ce1 Br1 1_555 1_555
Br1 Ce1C 1_555 1_555
Br2 Ce1 1_555 1_555
Br3 Ce1 1_555 1_555
Br4 Ce1 1_555 1_555
N1 Ce1 1_555 1_555
N2 Ce1 1_555 1_555
C1 N1 1_555 1_555
C2 C1 1_555 1_555
C3 C2 1_555 1_555
H1 C3 1_555 1_555
H2 C3 1_555 1_555
H3 C3 1_555 1_555
C4 C2 1_555 1_555
H4 C4 1_555 1_555
H5 C4 1_555 1_555
H6 C4 1_555 1_555
C5 C2 1_555 1_555
H7 C5 1_555 1_555
H8 C5 1_555 1_555
H9 C5 1_555 1_555
C6 N2 1_555 1_555
C7 C6 1_555 1_555
C8 C7 1_555 1_555
H10 C8 1_555 1_555
H11 C8 1_555 1_555
H12 C8 1_555 1_555
C9 C7 1_555 1_555
H13 C9 1_555 1_555
H14 C9 1_555 1_555
H15 C9 1_555 1_555
C10 C7 1_555 1_555
H16 C10 1_555 1_555
H17 C10 1_555 1_555
H18 C10 1_555 1_555
Ce1C Br2 1_555 1_555
Br1C Ce1 1_555 1_555
Br3C Ce1C 1_555 1_555
N1C Ce1C 1_555 1_555
N2C Ce1C 1_555 1_555
C1C N1C 1_555 1_555
C2C C1C 1_555 1_555
C3C C2C 1_555 1_555
H1C C3C 1_555 1_555
H2C C3C 1_555 1_555
H3C C3C 1_555 1_555
C4C C2C 1_555 1_555
H4C C4C 1_555 1_555
H5C C4C 1_555 1_555
H6C C4C 1_555 1_555
C5C C2C 1_555 1_555
H7C C5C 1_555 1_555
H8C C5C 1_555 1_555
H9C C5C 1_555 1_555
C6C N2C 1_555 1_555
C7C C6C 1_555 1_555
C8C C7C 1_555 1_555
H10C C8C 1_555 1_555
H11C C8C 1_555 1_555
H12C C8C 1_555 1_555
C9C C7C 1_555 1_555
H13C C9C 1_555 1_555
H14C C9C 1_555 1_555
H15C C9C 1_555 1_555
C10C C7C 1_555 1_555
H16C C10C 1_555 1_555
H17C C10C 1_555 1_555
H18C C10C 1_555 1_555
Ce1B Br3C 1_555 1_555
Ce1E Br3 1_555 1_555
Br3B Ce1C 1_555 1_555
Br3E Ce1 1_555 1_555
Br4B Ce1C 1_555 1_555
Br4 Ce1E 1_555 1_555
Ce1C Br1C 1_555 1_555
Ce1B Br3B 1_555 1_555
Ce1B Br4B 1_555 1_555
Ce1E Br3E 1_555 1_555

#END
