
#######################################################################
#
#                 Cambridge Crystallographic Data Centre
#                                CCDC 
#
#######################################################################
#
# If this CIF has been generated from an entry in the Cambridge 
# Structural Database, then it will include bibliographic, chemical, 
# crystal, experimental, refinement or atomic coordinate data resulting 
# from the CCDC's data processing and validation procedures.
#
#######################################################################

data_QOBZOX
_symmetry_cell_setting           monoclinic
_symmetry_space_group_name_H-M   'C 2/c'
_symmetry_Int_Tables_number      15
_space_group_name_Hall           '-C 2yn'
loop_
_symmetry_equiv_pos_site_id
_symmetry_equiv_pos_as_xyz
1 x,y,z
2 1/2+x,1/2+y,z
3 -x,y,1/2-z
4 1/2-x,1/2+y,1/2-z
5 -x,-y,-z
6 1/2-x,1/2-y,-z
7 x,-y,1/2+z
8 1/2+x,1/2-y,1/2+z
_cell_length_a                   23.9069(7)
_cell_length_b                   16.1843(5)
_cell_length_c                   16.7175(9)
_cell_angle_alpha                90
_cell_angle_beta                 126.6960(10)
_cell_angle_gamma                90
_cell_volume                     5186.38
loop_
_atom_site_label
_atom_site_type_symbol
_atom_site_fract_x
_atom_site_fract_y
_atom_site_fract_z
Cd1 Cd 0.0000 0.0000 0.0000
N1 N -0.11092(15) 0.05276(17) -0.13017(18)
N2 N -0.26239(15) 0.1296(2) -0.4723(2)
N3 N -0.36703(15) 0.20291(19) -1.13830(19)
N4 N -0.45240(13) 0.36708(17) -1.42842(18)
N5 N 0.05976(18) 0.0099(3) -0.1276(3)
O1 O 0.0395(3) -0.0337(6) -0.0981(3)
O2 O 0.0895(2) -0.00175(17) -0.1596(3)
O3 O 0.0464(2) 0.0803(5) -0.1189(6)
C1 C -0.1652(2) 0.0455(3) -0.1262(3)
H1 H -0.1568 0.0257 -0.0677
C2 C -0.2321(2) 0.0656(3) -0.2035(3)
H2 H -0.2678 0.0602 -0.1969
C3 C -0.2461(2) 0.0938(3) -0.2914(3)
H3 H -0.2914 0.1068 -0.3453
C4 C -0.19130(18) 0.1024(2) -0.2980(2)
C5 C -0.12508(18) 0.0823(2) -0.2152(2)
H4 H -0.0881 0.0898 -0.2188
C6 C -0.20244(19) 0.1289(2) -0.3906(2)
H5 H -0.1644 0.1454 -0.3887
C7 C -0.27156(17) 0.1490(2) -0.5623(2)
C8 C -0.33885(18) 0.1677(2) -0.6449(2)
C9 C -0.35085(18) 0.1809(2) -0.7361(2)
H6 H -0.3959 0.1938 -0.7911
C10 C -0.29900(17) 0.1756(2) -0.7488(2)
C11 C -0.23172(18) 0.1583(2) -0.6645(2)
H7 H -0.1952 0.1559 -0.6699
C12 C -0.21857(18) 0.1447(2) -0.5735(2)
H8 H -0.1734 0.1325 -0.5184
C13 C -0.31426(17) 0.1861(2) -0.8482(2)
C14 C -0.36701(18) 0.2396(2) -0.9188(2)
H9 H -0.3913 0.2710 -0.9021
C15 C -0.38344(19) 0.2464(2) -1.0127(2)
H10 H -0.4188 0.2823 -1.0586
C16 C -0.34846(17) 0.2009(2) -1.0399(2)
C17 C -0.29630(18) 0.1462(2) -0.9720(2)
C18 C -0.27957(17) 0.1408(2) -0.8769(2)
H11 H -0.2437 0.1056 -0.8306
C19 C -0.3981(2) 0.1736(4) -0.6361(3)
H12 H -0.4404 0.1873 -0.6999
H13 H -0.3878 0.2158 -0.5887
H14 H -0.4036 0.1215 -0.6140
C20 C -0.2590(2) 0.0938(3) -1.0009(3)
H15 H -0.2247 0.0602 -0.9453
H16 H -0.2364 0.1289 -1.0200
H17 H -0.2920 0.0590 -1.0560
C21 C -0.38493(19) 0.2716(2) -1.1838(2)
H18 H -0.3829 0.3191 -1.1508
C22 C -0.40877(17) 0.2780(2) -1.2874(2)
C23 C -0.4137(2) 0.2111(2) -1.3423(3)
H19 H -0.4007 0.1587 -1.3137
C24 C -0.4382(2) 0.2225(2) -1.4399(2)
H20 H -0.4422 0.1781 -1.4784
C25 C -0.45661(18) 0.3013(2) -1.4795(2)
H21 H -0.4728 0.3088 -1.5453
C26 C -0.42797(17) 0.3549(2) -1.3331(2)
H22 H -0.4237 0.4004 -1.2959
Cd1G Cd -0.5000 0.5000 -1.5000
Cd1G_2 Cd 0.5000 -0.5000 1.5000
N1D N 0.11092(15) -0.05276(17) 0.13017(18)
N2D N 0.26239(15) -0.1296(2) 0.4723(2)
N3D N 0.36703(15) -0.20291(19) 1.13830(19)
N4D N 0.45240(13) -0.36708(17) 1.42842(18)
N4G N 0.04760(13) 0.13292(17) 0.07158(18)
N4C N -0.04760(13) -0.13292(17) -0.07158(18)
N5D N -0.05976(18) -0.0099(3) 0.1276(3)
O1D O -0.0395(3) 0.0337(6) 0.0981(3)
O2D O -0.0895(2) 0.00175(17) 0.1596(3)
O3D O -0.0464(2) -0.0803(5) 0.1189(6)
C1D C 0.1652(2) -0.0455(3) 0.1262(3)
H1D H 0.1568 -0.0257 0.0677
C2D C 0.2321(2) -0.0656(3) 0.2035(3)
H2D H 0.2678 -0.0602 0.1969
C3D C 0.2461(2) -0.0938(3) 0.2914(3)
H3D H 0.2914 -0.1068 0.3453
C4D C 0.19130(18) -0.1024(2) 0.2980(2)
C5D C 0.12508(18) -0.0823(2) 0.2152(2)
H4D H 0.0881 -0.0898 0.2188
C6D C 0.20244(19) -0.1289(2) 0.3906(2)
H5D H 0.1644 -0.1454 0.3887
C7D C 0.27156(17) -0.1490(2) 0.5623(2)
C8D C 0.33885(18) -0.1677(2) 0.6449(2)
C9D C 0.35085(18) -0.1809(2) 0.7361(2)
H6D H 0.3959 -0.1938 0.7911
C10D C 0.29900(17) -0.1756(2) 0.7488(2)
C11D C 0.23172(18) -0.1583(2) 0.6645(2)
H7D H 0.1952 -0.1559 0.6699
C12D C 0.21857(18) -0.1447(2) 0.5735(2)
H8D H 0.1734 -0.1325 0.5184
C13D C 0.31426(17) -0.1861(2) 0.8482(2)
C14D C 0.36701(18) -0.2396(2) 0.9188(2)
H9D H 0.3913 -0.2710 0.9021
C15D C 0.38344(19) -0.2464(2) 1.0127(2)
H10D H 0.4188 -0.2823 1.0586
C16D C 0.34846(17) -0.2009(2) 1.0399(2)
C17D C 0.29630(18) -0.1462(2) 0.9720(2)
C18D C 0.27957(17) -0.1408(2) 0.8769(2)
H11D H 0.2437 -0.1056 0.8306
C19D C 0.3981(2) -0.1736(4) 0.6361(3)
H12D H 0.4404 -0.1873 0.6999
H13D H 0.3878 -0.2158 0.5887
H14D H 0.4036 -0.1215 0.6140
C20D C 0.2590(2) -0.0938(3) 1.0009(3)
H15D H 0.2247 -0.0602 0.9453
H16D H 0.2364 -0.1289 1.0200
H17D H 0.2920 -0.0590 1.0560
C21D C 0.38493(19) -0.2716(2) 1.1838(2)
H18D H 0.3829 -0.3191 1.1508
C22D C 0.40877(17) -0.2780(2) 1.2874(2)
C23D C 0.4137(2) -0.2111(2) 1.3423(3)
H19D H 0.4007 -0.1587 1.3137
C24D C 0.4382(2) -0.2225(2) 1.4399(2)
H20D H 0.4422 -0.1781 1.4784
C25D C 0.45661(18) -0.3013(2) 1.4795(2)
H21D H 0.4728 -0.3088 1.5453
C26D C 0.42797(17) -0.3549(2) 1.3331(2)
H22D H 0.4237 -0.4004 1.2959
C27 C 0.0522(5) 0.5142(4) -0.0080(8)
H23 H 0.0875 0.5246 -0.0146
C28 C 0.0643(5) 0.5149(4) 0.0759(7)
H24 H 0.1101 0.5245 0.1309
C29 C -0.0175(7) 0.4968(5) -0.0936(11)
H25 H -0.0293 0.4939 -0.1575
C27D C -0.0522(5) 0.4858(4) 0.0080(8)
H23D H -0.0875 0.4754 0.0146
C28D C -0.0643(5) 0.4851(4) -0.0759(7)
H24D H -0.1101 0.4755 -0.1309
C29D C 0.0175(7) 0.5032(5) 0.0936(11)
H25D H 0.0293 0.5061 0.1575
loop_
_geom_bond_atom_site_label_1
_geom_bond_atom_site_label_2
_geom_bond_site_symmetry_1
_geom_bond_site_symmetry_2
Cd1 N1 1_555 1_555
N1 C1 1_555 1_555
N2 C6 1_555 1_555
N3 C16 1_555 1_555
N4 C25 1_555 1_555
N5 O1 1_555 1_555
O1 Cd1 1_555 1_555
O2 N5 1_555 1_555
O3 N5 1_555 1_555
C1 H1 1_555 1_555
C2 C1 1_555 1_555
H2 C2 1_555 1_555
C3 C2 1_555 1_555
H3 C3 1_555 1_555
C4 C3 1_555 1_555
C5 N1 1_555 1_555
H4 C5 1_555 1_555
C6 C4 1_555 1_555
H5 C6 1_555 1_555
C7 N2 1_555 1_555
C8 C7 1_555 1_555
C9 C8 1_555 1_555
H6 C9 1_555 1_555
C10 C9 1_555 1_555
C11 C10 1_555 1_555
H7 C11 1_555 1_555
C12 C7 1_555 1_555
H8 C12 1_555 1_555
C13 C10 1_555 1_555
C14 C13 1_555 1_555
H9 C14 1_555 1_555
C15 C14 1_555 1_555
H10 C15 1_555 1_555
C16 C15 1_555 1_555
C17 C16 1_555 1_555
C18 C13 1_555 1_555
H11 C18 1_555 1_555
C19 C8 1_555 1_555
H12 C19 1_555 1_555
H13 C19 1_555 1_555
H14 C19 1_555 1_555
C20 C17 1_555 1_555
H15 C20 1_555 1_555
H16 C20 1_555 1_555
H17 C20 1_555 1_555
C21 N3 1_555 1_555
H18 C21 1_555 1_555
C22 C21 1_555 1_555
C23 C22 1_555 1_555
H19 C23 1_555 1_555
C24 C23 1_555 1_555
H20 C24 1_555 1_555
C25 C24 1_555 1_555
H21 C25 1_555 1_555
C26 N4 1_555 1_555
H22 C26 1_555 1_555
C27 H23 1_555 1_555
C28 C27 1_555 1_555
H24 C28 1_555 1_555
C29 C27 1_555 1_555
H25 C29 1_555 1_555
Cd1G N4 1_555 1_555
Cd1G_2 N4D 1_555 1_555
N1D Cd1 1_555 1_555
N2D C6D 1_555 1_555
N3D C16D 1_555 1_555
N4D C25D 1_555 1_555
N4G Cd1 1_555 1_555
N4C Cd1 1_555 1_555
N5D O1D 1_555 1_555
O1D Cd1 1_555 1_555
O2D N5D 1_555 1_555
O3D N5D 1_555 1_555
C1D N1D 1_555 1_555
H1D C1D 1_555 1_555
C2D C1D 1_555 1_555
H2D C2D 1_555 1_555
C3D C2D 1_555 1_555
H3D C3D 1_555 1_555
C4D C3D 1_555 1_555
C5D N1D 1_555 1_555
H4D C5D 1_555 1_555
C6D C4D 1_555 1_555
H5D C6D 1_555 1_555
C7D N2D 1_555 1_555
C8D C7D 1_555 1_555
C9D C8D 1_555 1_555
H6D C9D 1_555 1_555
C10D C9D 1_555 1_555
C11D C10D 1_555 1_555
H7D C11D 1_555 1_555
C12D C7D 1_555 1_555
H8D C12D 1_555 1_555
C13D C10D 1_555 1_555
C14D C13D 1_555 1_555
H9D C14D 1_555 1_555
C15D C14D 1_555 1_555
H10D C15D 1_555 1_555
C16D C15D 1_555 1_555
C17D C16D 1_555 1_555
C18D C13D 1_555 1_555
H11D C18D 1_555 1_555
C19D C8D 1_555 1_555
H12D C19D 1_555 1_555
H13D C19D 1_555 1_555
H14D C19D 1_555 1_555
C20D C17D 1_555 1_555
H15D C20D 1_555 1_555
H16D C20D 1_555 1_555
H17D C20D 1_555 1_555
C21D N3D 1_555 1_555
H18D C21D 1_555 1_555
C22D C21D 1_555 1_555
C23D C22D 1_555 1_555
H19D C23D 1_555 1_555
C24D C23D 1_555 1_555
H20D C24D 1_555 1_555
C25D C24D 1_555 1_555
H21D C25D 1_555 1_555
C26D N4D 1_555 1_555
H22D C26D 1_555 1_555
C27D H23D 1_555 1_555
C28D C29 1_555 1_555
H24D C28D 1_555 1_555
C29D C28 1_555 1_555
H25D C29D 1_555 1_555
C4 C5 1_555 1_555
C11 C12 1_555 1_555
C17 C18 1_555 1_555
C22 C26 1_555 1_555
C4D C5D 1_555 1_555
C11D C12D 1_555 1_555
C17D C18D 1_555 1_555
C22D C26D 1_555 1_555
C27D C28D 1_555 1_555
C27D C29D 1_555 1_555

#END
