
#######################################################################
#
#                 Cambridge Crystallographic Data Centre
#                                CCDC 
#
#######################################################################
#
# If this CIF has been generated from an entry in the Cambridge 
# Structural Database, then it will include bibliographic, chemical, 
# crystal, experimental, refinement or atomic coordinate data resulting 
# from the CCDC's data processing and validation procedures.
#
#######################################################################

data_QOBZEM
_symmetry_cell_setting           triclinic
_symmetry_space_group_name_H-M   'P -1'
_symmetry_Int_Tables_number      2
_space_group_name_Hall           '-P 1'
loop_
_symmetry_equiv_pos_site_id
_symmetry_equiv_pos_as_xyz
1 x,y,z
2 -x,-y,-z
_cell_length_a                   7.9863(4)
_cell_length_b                   8.2458(5)
_cell_length_c                   8.7631(5)
_cell_angle_alpha                116.0750(10)
_cell_angle_beta                 100.8250(10)
_cell_angle_gamma                104.0330(10)
_cell_volume                     473.309
loop_
_atom_site_label
_atom_site_type_symbol
_atom_site_fract_x
_atom_site_fract_y
_atom_site_fract_z
K1 K 0.8053(8) 0.4964(7) 0.0434(7)
Ga1 Ga 0.3223(1) 0.2169(1) 0.1838(1)
Ga2 Ga 0.7725(1) 1.0382(1) 0.4964(1)
P1 P 0.4555(2) 0.6909(2) 0.4141(2)
P2 P 0.0404(2) 0.0000(3) -0.2336(2)
O1 O 0.3621(7) 0.4824(7) 0.2632(7)
O2 O 0.4869(7) 0.7173(8) 0.6013(7)
O3 O 0.6386(7) 0.7798(7) 0.3917(7)
O4 O 0.3306(7) 0.7980(8) 0.3812(7)
O5 O 0.1460(7) 0.1487(8) -0.0371(7)
O6 O -0.1266(7) -0.1659(7) -0.2718(7)
O7 O -0.0148(7) 0.1128(7) -0.3238(7)
O8 O 0.1675(7) -0.0929(7) -0.3276(7)
O9 O 0.3184(7) -0.0639(7) 0.0733(7)
O10 O 0.4712(7) -0.2405(7) -0.0732(7)
C1 C 0.4398(9) -0.0879(10) 0.0008(9)
C1A C 0.5602(9) 0.0879(10) -0.0008(9)
O9A O 0.6816(7) 0.0639(7) -0.0733(7)
O10A O 0.5288(7) 0.2405(7) 0.0732(7)
P1A P 0.5445(2) 0.3091(2) 0.5859(2)
O1A O 0.6379(7) 0.5176(7) 0.7368(7)
O2A O 0.5131(7) 0.2827(8) 0.3987(7)
O3A O 0.3614(7) 0.2202(7) 0.6083(7)
O4A O 0.6694(7) 0.2020(8) 0.6188(7)
P2A P -0.0404(2) 0.0000(3) 0.2336(2)
O5A O -0.1460(7) -0.1487(8) 0.0371(7)
O6A O 0.1266(7) 0.1659(7) 0.2718(7)
O7A O 0.0148(7) -0.1128(7) 0.3238(7)
O8A O -0.1675(7) 0.0929(7) 0.3276(7)
Ga1A Ga 0.6777(1) 0.7831(1) 0.8162(1)
Ga2A Ga 0.2275(1) -0.0382(1) 0.5036(1)
O4A_2 O 0.6694(7) 1.2020(8) 0.6188(7)
O7_2 O 0.9852(7) 1.1128(7) 0.6762(7)
O8A_2 O 0.8325(7) 1.0929(7) 0.3276(7)
Ga2A_2 Ga 0.2275(1) 0.9618(1) 0.5036(1)
Ga1A_2 Ga -0.3223(1) -0.2169(1) -0.1838(1)
Ga2_2 Ga -0.2275(1) 0.0382(1) -0.5036(1)
Ga2A_3 Ga 0.2275(1) -0.0382(1) -0.4964(1)
Ga1A_3 Ga 0.6777(1) -0.2169(1) -0.1838(1)
Ga2_3 Ga 0.7725(1) 0.0382(1) 0.4964(1)
Ga2_4 Ga -0.2275(1) 0.0382(1) 0.4964(1)
O5A_2 O 0.8540(7) 0.8513(8) 1.0371(7)
O6_2 O 0.8734(7) 0.8341(7) 0.7282(7)
O9A_2 O 0.6816(7) 1.0639(7) 0.9267(7)
O10_2 O 0.4712(7) 0.7595(7) 0.9268(7)
O4_2 O 0.3306(7) -0.2020(8) 0.3812(7)
O8_2 O 0.1675(7) -0.0929(7) 0.6724(7)
O12 O 0.8875(41) 0.5045(55) 0.3983(51)
K2? K 0.8431(13) 0.5172(16) 0.3730(14)
O11? O 0.8943(31) 0.4759(30) 0.0446(30)
loop_
_geom_bond_atom_site_label_1
_geom_bond_atom_site_label_2
_geom_bond_site_symmetry_1
_geom_bond_site_symmetry_2
Ga1 O1 1_555 1_555
Ga2 O3 1_555 1_555
P1 O1 1_555 1_555
P2 O5 1_555 1_555
O2 P1 1_555 1_555
O3 P1 1_555 1_555
O4 P1 1_555 1_555
O5 Ga1 1_555 1_555
O6 P2 1_555 1_555
O7 P2 1_555 1_555
O8 P2 1_555 1_555
O9 Ga1 1_555 1_555
O10 C1 1_555 1_555
C1 O9 1_555 1_555
C1A C1 1_555 1_555
O9A C1A 1_555 1_555
O10A Ga1 1_555 1_555
P1A O1A 1_555 1_555
O1A Ga1A 1_555 1_555
O2A Ga1 1_555 1_555
O3A P1A 1_555 1_555
O4A P1A 1_555 1_555
P2A O5A 1_555 1_555
O5A Ga1A_2 1_555 1_555
O6A Ga1 1_555 1_555
O7A P2A 1_555 1_555
O8A P2A 1_555 1_555
Ga1A O2 1_555 1_555
Ga2A O3A 1_555 1_555
O4A_2 Ga2 1_555 1_555
O7_2 Ga2 1_555 1_555
O8A_2 Ga2 1_555 1_555
Ga2A_2 O4 1_555 1_555
Ga1A_2 O6 1_555 1_555
Ga2_2 O7 1_555 1_555
Ga2A_3 O8 1_555 1_555
Ga1A_3 O10 1_555 1_555
Ga2_3 O4A 1_555 1_555
Ga2_4 O8A 1_555 1_555
O5A_2 Ga1A 1_555 1_555
O6_2 Ga1A 1_555 1_555
O9A_2 Ga1A 1_555 1_555
O10_2 Ga1A 1_555 1_555
O4_2 Ga2A 1_555 1_555
O8_2 Ga2A 1_555 1_555
C1A O10A 1_555 1_555
O9A Ga1A_3 1_555 1_555
P1A O2A 1_555 1_555
P2A O6A 1_555 1_555
O7A Ga2A 1_555 1_555

#END
