
#######################################################################
#
#                 Cambridge Crystallographic Data Centre
#                                CCDC 
#
#######################################################################
#
# If this CIF has been generated from an entry in the Cambridge 
# Structural Database, then it will include bibliographic, chemical, 
# crystal, experimental, refinement or atomic coordinate data resulting 
# from the CCDC's data processing and validation procedures.
#
#######################################################################

data_QOCBEQ
_symmetry_cell_setting           tetragonal
_symmetry_space_group_name_H-M   'P 4/n'
_symmetry_Int_Tables_number      85
_space_group_name_Hall           '-P 4a'
loop_
_symmetry_equiv_pos_site_id
_symmetry_equiv_pos_as_xyz
1 x,y,z
2 1/2-y,x,z
3 y,1/2-x,z
4 1/2-x,1/2-y,z
5 -x,-y,-z
6 1/2+y,-x,-z
7 -y,1/2+x,-z
8 1/2+x,1/2+y,-z
_cell_length_a                   16.7640(10)
_cell_length_b                   16.7640(10)
_cell_length_c                   12.2840(10)
_cell_angle_alpha                90
_cell_angle_beta                 90
_cell_angle_gamma                90
_cell_volume                     3452.19
loop_
_atom_site_label
_atom_site_type_symbol
_atom_site_fract_x
_atom_site_fract_y
_atom_site_fract_z
Ni1 Ni 0.5000 0.0000 0.0000
O1 O 0.45204(13) -0.07258(13) 0.12254(16)
N1 N 0.38380(15) 0.03002(16) -0.0423(2)
H1 H 0.3874 0.0592 -0.1046
C1 C 0.42226(18) -0.14521(19) 0.2792(2)
C2 C 0.31419(19) -0.21293(18) 0.42420(19)
C3 C 0.2500 -0.2500 0.5000
O2 O 0.55225(16) -0.1158(2) 0.2205(2)
C4 C 0.28821(19) -0.1627(2) 0.3406(2)
H2 H 0.2341 -0.1518 0.3327
C5 C 0.4476(2) -0.1960(2) 0.3598(3)
H3 H 0.5017 -0.2076 0.3662
C6 C 0.34176(19) -0.12967(19) 0.2708(2)
H4 H 0.3237 -0.0958 0.2161
N2 N 0.50589(18) -0.09421(16) -0.1067(2)
H5 H 0.5170 -0.0736 -0.1735
C7 C 0.4809(2) -0.1078(2) 0.1998(3)
C8 C 0.3293(2) -0.0351(2) -0.0659(3)
H6 H 0.2791 -0.0133 -0.0913
H7 H 0.3189 -0.0645 0.0006
C9 C 0.3941(2) -0.2299(2) 0.4317(2)
H8 H 0.4123 -0.2645 0.4854
C10 C 0.3620(2) -0.0918(2) -0.1511(3)
H9 H 0.3194 -0.1277 -0.1729
H10 H 0.3769 -0.0609 -0.2147
C11 C 0.4324(2) -0.1411(2) -0.1174(3)
H11 H 0.4409 -0.1829 -0.1709
H12 H 0.4208 -0.1666 -0.0483
C12 C 0.3564(2) 0.0853(2) 0.0422(3)
H13 H 0.3392 0.0556 0.1058
H14 H 0.3114 0.1160 0.0155
C13 C 0.5762(2) -0.1408(2) -0.0727(3)
H15 H 0.5625 -0.1740 -0.0108
H16 H 0.5930 -0.1754 -0.1318
Ni1B Ni 0.0000 0.0000 1.0000
Ni1A Ni 0.5000 -0.5000 1.0000
Ni1G Ni 0.0000 -0.5000 0.0000
O1F O 0.07258(13) -0.04796(13) 0.87746(16)
O1E O 0.42742(13) -0.45204(13) 0.87746(16)
O1C O 0.04796(13) -0.42742(13) 0.12254(16)
O1D O 0.54796(13) 0.07258(13) -0.12254(16)
O1B O -0.07258(13) 0.04796(13) 1.12254(16)
N1D N 0.61620(15) -0.03002(16) 0.0423(2)
N1F N -0.03002(16) -0.11620(15) 1.0423(2)
N1B N 0.03002(16) 0.11620(15) 0.9577(2)
H1D H 0.6126 -0.0592 0.1046
H1F H -0.0592 -0.1126 1.1046
H1B H 0.0592 0.1126 0.8954
C1F C 0.14521(19) -0.07774(18) 0.7208(2)
C1E C 0.35479(19) -0.42226(18) 0.7208(2)
C1C C 0.07774(18) -0.35479(19) 0.2792(2)
C2F C 0.21293(18) -0.18581(19) 0.57580(19)
C2E C 0.28707(18) -0.31419(19) 0.57580(19)
C2C C 0.18581(19) -0.28707(18) 0.42420(19)
O2F O 0.1158(2) 0.05225(16) 0.7795(2)
O2E O 0.3842(2) -0.55225(16) 0.7795(2)
O2C O -0.05225(16) -0.3842(2) 0.2205(2)
C4F C 0.1627(2) -0.21179(19) 0.6594(2)
C4E C 0.3373(2) -0.28821(19) 0.6594(2)
C4C C 0.21179(19) -0.3373(2) 0.3406(2)
H2F H 0.1518 -0.2659 0.6673
H2E H 0.3482 -0.2341 0.6673
H2C H 0.2659 -0.3482 0.3327
C5F C 0.1960(2) -0.0524(2) 0.6402(3)
C5E C 0.3040(2) -0.4476(2) 0.6402(3)
C5C C 0.0524(2) -0.3040(2) 0.3598(3)
H3F H 0.2076 0.0017 0.6338
H3E H 0.2924 -0.5017 0.6338
H3C H -0.0017 -0.2924 0.3662
C6F C 0.12967(19) -0.15824(19) 0.7292(2)
C6E C 0.37033(19) -0.34176(19) 0.7292(2)
C6C C 0.15824(19) -0.37033(19) 0.2708(2)
H4F H 0.0958 -0.1763 0.7839
H4E H 0.4042 -0.3237 0.7839
H4C H 0.1763 -0.4042 0.2161
N2D N 0.49411(18) 0.09421(16) 0.1067(2)
N2F N 0.09421(16) 0.00589(18) 1.1067(2)
N2B N -0.09421(16) -0.00589(18) 0.8933(2)
H5D H 0.4830 0.0736 0.1735
H5F H 0.0736 0.0170 1.1735
H5B H -0.0736 -0.0170 0.8265
C7F C 0.1078(2) -0.0191(2) 0.8002(3)
C7E C 0.3922(2) -0.4809(2) 0.8002(3)
C7C C 0.0191(2) -0.3922(2) 0.1998(3)
C8D C 0.6707(2) 0.0351(2) 0.0659(3)
C8F C 0.0351(2) -0.1707(2) 1.0659(3)
C8B C -0.0351(2) 0.1707(2) 0.9341(3)
H6D H 0.7209 0.0133 0.0913
H6F H 0.0133 -0.2209 1.0913
H6B H -0.0133 0.2209 0.9087
H7D H 0.6811 0.0645 -0.0006
H7F H 0.0645 -0.1811 0.9994
H7B H -0.0645 0.1811 1.0006
C9F C 0.2299(2) -0.1059(2) 0.5683(2)
C9E C 0.2701(2) -0.3941(2) 0.5683(2)
C9C C 0.1059(2) -0.2701(2) 0.4317(2)
H8F H 0.2645 -0.0877 0.5146
H8E H 0.2355 -0.4123 0.5146
H8C H 0.0877 -0.2355 0.4854
C10D C 0.6380(2) 0.0918(2) 0.1511(3)
C10F C 0.0918(2) -0.1380(2) 1.1511(3)
C10B C -0.0918(2) 0.1380(2) 0.8489(3)
H9D H 0.6806 0.1277 0.1729
H9F H 0.1277 -0.1806 1.1729
H9B H -0.1277 0.1806 0.8271
H10D H 0.6231 0.0609 0.2147
H10F H 0.0609 -0.1231 1.2147
H10B H -0.0609 0.1231 0.7853
C11D C 0.5676(2) 0.1411(2) 0.1174(3)
C11F C 0.1411(2) -0.0676(2) 1.1174(3)
C11B C -0.1411(2) 0.0676(2) 0.8826(3)
H11D H 0.5591 0.1829 0.1709
H11F H 0.1829 -0.0591 1.1709
H11B H -0.1829 0.0591 0.8291
H12D H 0.5792 0.1666 0.0483
H12F H 0.1666 -0.0792 1.0483
H12B H -0.1666 0.0792 0.9517
C12D C 0.6436(2) -0.0853(2) -0.0422(3)
C12F C -0.0853(2) -0.1436(2) 0.9578(3)
C12B C 0.0853(2) 0.1436(2) 1.0422(3)
H13D H 0.6608 -0.0556 -0.1058
H13F H -0.0556 -0.1608 0.8942
H13B H 0.0556 0.1608 1.1058
H14D H 0.6886 -0.1160 -0.0155
H14F H -0.1160 -0.1886 0.9845
H14B H 0.1160 0.1886 1.0155
C13D C 0.4238(2) 0.1408(2) 0.0727(3)
C13F C 0.1408(2) 0.0762(2) 1.0727(3)
C13B C -0.1408(2) -0.0762(2) 0.9273(3)
H15D H 0.4375 0.1740 0.0108
H15F H 0.1740 0.0625 1.0108
H15B H -0.1740 -0.0625 0.9892
H16D H 0.4070 0.1754 0.1318
H16F H 0.1754 0.0930 1.1318
H16B H -0.1754 -0.0930 0.8682
loop_
_geom_bond_atom_site_label_1
_geom_bond_atom_site_label_2
_geom_bond_site_symmetry_1
_geom_bond_site_symmetry_2
Ni1 O1 1_555 1_555
O1 C7 1_555 1_555
N1 Ni1 1_555 1_555
H1 N1 1_555 1_555
C1 C5 1_555 1_555
C2 C3 1_555 1_555
C3 C2F 1_555 1_555
O2 C7 1_555 1_555
C4 C2 1_555 1_555
H2 C4 1_555 1_555
C5 H3 1_555 1_555
C6 C1 1_555 1_555
H4 C6 1_555 1_555
N2 Ni1 1_555 1_555
H5 N2 1_555 1_555
C7 C1 1_555 1_555
C8 N1 1_555 1_555
H6 C8 1_555 1_555
H7 C8 1_555 1_555
C9 C2 1_555 1_555
H8 C9 1_555 1_555
C10 C8 1_555 1_555
H9 C10 1_555 1_555
H10 C10 1_555 1_555
C11 N2 1_555 1_555
H11 C11 1_555 1_555
H12 C11 1_555 1_555
C12 N1 1_555 1_555
H13 C12 1_555 1_555
H14 C12 1_555 1_555
C13 N2 1_555 1_555
H15 C13 1_555 1_555
H16 C13 1_555 1_555
Ni1B O1F 1_555 1_555
Ni1A O1E 1_555 1_555
Ni1G O1C 1_555 1_555
O1F C7F 1_555 1_555
O1E C7E 1_555 1_555
O1C C7C 1_555 1_555
O1D Ni1 1_555 1_555
O1B Ni1B 1_555 1_555
N1D Ni1 1_555 1_555
N1F Ni1B 1_555 1_555
N1B Ni1B 1_555 1_555
H1D N1D 1_555 1_555
H1F N1F 1_555 1_555
H1B N1B 1_555 1_555
C1F C5F 1_555 1_555
C1E C5E 1_555 1_555
C1C C5C 1_555 1_555
C2F C4F 1_555 1_555
C2E C3 1_555 1_555
C2C C3 1_555 1_555
O2F C7F 1_555 1_555
O2E C7E 1_555 1_555
O2C C7C 1_555 1_555
C4F H2F 1_555 1_555
C4E C2E 1_555 1_555
C4C C2C 1_555 1_555
H2E C4E 1_555 1_555
H2C C4C 1_555 1_555
C5F H3F 1_555 1_555
C5E H3E 1_555 1_555
C5C H3C 1_555 1_555
C6F C1F 1_555 1_555
C6E C1E 1_555 1_555
C6C C1C 1_555 1_555
H4F C6F 1_555 1_555
H4E C6E 1_555 1_555
H4C C6C 1_555 1_555
N2D Ni1 1_555 1_555
N2F Ni1B 1_555 1_555
N2B Ni1B 1_555 1_555
H5D N2D 1_555 1_555
H5F N2F 1_555 1_555
H5B N2B 1_555 1_555
C7F C1F 1_555 1_555
C7E C1E 1_555 1_555
C7C C1C 1_555 1_555
C8D N1D 1_555 1_555
C8F N1F 1_555 1_555
C8B N1B 1_555 1_555
H6D C8D 1_555 1_555
H6F C8F 1_555 1_555
H6B C8B 1_555 1_555
H7D C8D 1_555 1_555
H7F C8F 1_555 1_555
H7B C8B 1_555 1_555
C9F C2F 1_555 1_555
C9E C2E 1_555 1_555
C9C C2C 1_555 1_555
H8F C9F 1_555 1_555
H8E C9E 1_555 1_555
H8C C9C 1_555 1_555
C10D C8D 1_555 1_555
C10F C8F 1_555 1_555
C10B C8B 1_555 1_555
H9D C10D 1_555 1_555
H9F C10F 1_555 1_555
H9B C10B 1_555 1_555
H10D C10D 1_555 1_555
H10F C10F 1_555 1_555
H10B C10B 1_555 1_555
C11D N2D 1_555 1_555
C11F N2F 1_555 1_555
C11B N2B 1_555 1_555
H11D C11D 1_555 1_555
H11F C11F 1_555 1_555
H11B C11B 1_555 1_555
H12D C11D 1_555 1_555
H12F C11F 1_555 1_555
H12B C11B 1_555 1_555
C12D C13 1_555 1_555
C12F N1F 1_555 1_555
C12B N1B 1_555 1_555
H13D C12D 1_555 1_555
H13F C12F 1_555 1_555
H13B C12B 1_555 1_555
H14D C12D 1_555 1_555
H14F C12F 1_555 1_555
H14B C12B 1_555 1_555
C13D C12 1_555 1_555
C13F N2F 1_555 1_555
C13B N2B 1_555 1_555
H15D C13D 1_555 1_555
H15F C13F 1_555 1_555
H15B C13B 1_555 1_555
H16D C13D 1_555 1_555
H16F C13F 1_555 1_555
H16B C13B 1_555 1_555
C4 C6 1_555 1_555
C5 C9 1_555 1_555
C10 C11 1_555 1_555
N1D C12D 1_555 1_555
C4F C6F 1_555 1_555
C4E C6E 1_555 1_555
C4C C6C 1_555 1_555
C5F C9F 1_555 1_555
C5E C9E 1_555 1_555
C5C C9C 1_555 1_555
N2D C13D 1_555 1_555
C10D C11D 1_555 1_555
C10F C11F 1_555 1_555
C10B C11B 1_555 1_555
C12F C13B 1_555 1_555
C12B C13F 1_555 1_555

#END
