
#######################################################################
#
#                 Cambridge Crystallographic Data Centre
#                                CCDC 
#
#######################################################################
#
# If this CIF has been generated from an entry in the Cambridge 
# Structural Database, then it will include bibliographic, chemical, 
# crystal, experimental, refinement or atomic coordinate data resulting 
# from the CCDC's data processing and validation procedures.
#
#######################################################################

data_QOCCAM
_symmetry_cell_setting           triclinic
_symmetry_space_group_name_H-M   'P -1'
_symmetry_Int_Tables_number      2
_space_group_name_Hall           '-P 1'
loop_
_symmetry_equiv_pos_site_id
_symmetry_equiv_pos_as_xyz
1 x,y,z
2 -x,-y,-z
_cell_length_a                   11.851(5)
_cell_length_b                   13.525(2)
_cell_length_c                   9.770(3)
_cell_angle_alpha                91.83(2)
_cell_angle_beta                 110.44(2)
_cell_angle_gamma                83.50(2)
_cell_volume                     1457.9
loop_
_atom_site_label
_atom_site_type_symbol
_atom_site_fract_x
_atom_site_fract_y
_atom_site_fract_z
Eu1 Eu 0.00751(2) -0.00655(1) -0.24363(2)
O1 O 0.1626(2) -0.1150(2) -0.0757(3)
O2 O 0.0929(2) -0.0844(2) 0.1044(3)
O3 O 0.3139(3) -0.3672(2) 0.4673(3)
O4 O 0.1455(2) 0.1156(2) -0.0939(2)
O5 O 0.0218(2) 0.1672(2) -0.3116(2)
O6 O 0.4182(3) 0.3947(3) 0.0866(4)
O7 O 0.1795(2) -0.0402(2) 0.4290(3)
O8 O -0.1440(2) 0.0102(2) 0.3656(3)
O9 O 0.6412(2) -0.1368(2) 0.6226(3)
O10 O -0.0206(3) -0.1541(2) -0.4006(3)
O11 O -0.1131(2) -0.1236(2) -0.1791(2)
C1 C 0.1632(3) -0.1325(3) 0.0503(4)
C2 C 0.2502(3) -0.2168(3) 0.1351(4)
C3 C 0.2415(3) -0.2489(3) 0.2656(4)
C4 C 0.3164(4) -0.3296(3) 0.3394(4)
C5 C 0.4003(4) -0.3793(3) 0.2865(5)
C6 C 0.4103(4) -0.3475(3) 0.1594(5)
C7 C 0.3350(4) -0.2660(3) 0.0833(4)
C8 C 0.2278(5) -0.3191(4) 0.5250(5)
C9 C 0.1097(3) 0.1799(3) -0.1954(4)
C10 C 0.1717(4) 0.2722(3) -0.1784(4)
C11 C 0.1374(4) 0.3411(3) -0.2919(4)
C12 C 0.1971(5) 0.4252(3) -0.2743(5)
C13 C 0.2889(4) 0.4408(3) -0.1485(5)
C14 C 0.3251(4) 0.3725(3) -0.0349(4)
C15 C 0.2665(4) 0.2871(3) -0.0495(4)
C16 C 0.4549(6) 0.3289(5) 0.2053(6)
C17 C 0.2143(3) -0.0277(2) 0.5642(4)
C18 C 0.3477(3) -0.0310(3) 0.6463(4)
C19 C 0.3896(4) 0.0216(3) 0.7749(4)
C20 C 0.5129(4) 0.0247(4) 0.8425(4)
C21 C 0.5936(4) -0.0276(3) 0.7890(4)
C22 C 0.5526(4) -0.0836(3) 0.6638(4)
C23 C 0.4291(3) -0.0831(3) 0.5891(4)
C24 C 0.6042(4) -0.1939(3) 0.4929(5)
O1A O -0.1626(2) 0.1150(2) 0.0757(3)
O2A O -0.0929(2) 0.0844(2) -0.1044(3)
O3A O -0.3139(3) 0.3672(2) -0.4673(3)
C1A C -0.1632(3) 0.1325(3) -0.0503(4)
C2A C -0.2502(3) 0.2168(3) -0.1351(4)
C3A C -0.2415(3) 0.2489(3) -0.2656(4)
C4A C -0.3164(4) 0.3296(3) -0.3394(4)
C5A C -0.4003(4) 0.3793(3) -0.2865(5)
C6A C -0.4103(4) 0.3475(3) -0.1594(5)
C7A C -0.3350(4) 0.2660(3) -0.0833(4)
C8A C -0.2278(5) 0.3191(4) -0.5250(5)
O8A O 0.1440(2) -0.0102(2) -0.3656(3)
Eu1A Eu -0.00751(2) 0.00655(1) 0.24363(2)
O4A O -0.1455(2) -0.1156(2) 0.0939(2)
O5A O -0.0218(2) -0.1672(2) 0.3116(2)
O6A O -0.4182(3) -0.3947(3) -0.0866(4)
C9A C -0.1097(3) -0.1799(3) 0.1954(4)
C10A C -0.1717(4) -0.2722(3) 0.1784(4)
C11A C -0.1374(4) -0.3411(3) 0.2919(4)
C12A C -0.1971(5) -0.4252(3) 0.2743(5)
C13A C -0.2889(4) -0.4408(3) 0.1485(5)
C14A C -0.3251(4) -0.3725(3) 0.0349(4)
C15A C -0.2665(4) -0.2871(3) 0.0495(4)
C16A C -0.4549(6) -0.3289(5) -0.2053(6)
O10A O 0.0206(3) 0.1541(2) 0.4006(3)
O11A O 0.1131(2) 0.1236(2) 0.1791(2)
O7A O -0.1795(2) 0.0402(2) -0.4290(3)
C17A C -0.2143(3) 0.0277(2) 0.4358(4)
O8A_2 O 0.1440(2) -0.0102(2) 0.6344(3)
O7A_2 O -0.1795(2) 0.0402(2) 0.5710(3)
C18A C -0.3477(3) 0.0310(3) 0.3537(4)
Eu1_2 Eu 0.00751(2) -0.00655(1) 0.75637(2)
C19A C -0.3896(4) -0.0216(3) 0.2251(4)
C23A C -0.4291(3) 0.0831(3) 0.4109(4)
C20A C -0.5129(4) -0.0247(4) 0.1575(4)
C22A C -0.5526(4) 0.0836(3) 0.3362(4)
C21A C -0.5936(4) 0.0276(3) 0.2110(4)
O9A O -0.6412(2) 0.1368(2) 0.3774(3)
C24A C -0.6042(4) 0.1939(3) 0.5071(5)
N1 N 1.0397(4) 0.3411(3) 0.2991(4)
C25 C 1.1170(5) 0.4040(4) 0.3036(5)
C26 C 1.1064(5) 0.4670(4) 0.1901(5)
C27 C 1.0081(4) 0.4664(3) 0.0628(4)
C28 C 0.9273(4) 0.4017(3) 0.0586(4)
C29 C 0.9457(5) 0.3408(3) 0.1763(5)
C27A C 0.9919(4) 0.5336(3) -0.0628(4)
C26A C 0.8936(5) 0.5330(4) -0.1901(5)
C25A C 0.8830(5) 0.5960(4) -0.3036(5)
N1A N 0.9603(4) 0.6589(3) -0.2991(4)
C29A C 1.0543(5) 0.6592(3) -0.1763(5)
C28A C 1.0727(4) 0.5983(3) -0.0586(4)
loop_
_geom_bond_atom_site_label_1
_geom_bond_atom_site_label_2
_geom_bond_site_symmetry_1
_geom_bond_site_symmetry_2
Eu1 O1 1_555 1_555
O1 C1 1_555 1_555
O2 C1 1_555 1_555
O3 C4 1_555 1_555
O4 Eu1 1_555 1_555
O5 Eu1 1_555 1_555
O6 C14 1_555 1_555
O7 C17 1_555 1_555
O8 Eu1A 1_555 1_555
O9 C22 1_555 1_555
O10 Eu1 1_555 1_555
O11 Eu1 1_555 1_555
N1 C25 1_555 1_555
C1 C2 1_555 1_555
C2 C3 1_555 1_555
C3 C4 1_555 1_555
C4 C5 1_555 1_555
C5 C6 1_555 1_555
C6 C7 1_555 1_555
C7 C2 1_555 1_555
C8 O3 1_555 1_555
C9 O4 1_555 1_555
C10 C9 1_555 1_555
C11 C10 1_555 1_555
C12 C11 1_555 1_555
C13 C12 1_555 1_555
C14 C13 1_555 1_555
C15 C10 1_555 1_555
C16 O6 1_555 1_555
C17 C18 1_555 1_555
C18 C19 1_555 1_555
C19 C20 1_555 1_555
C20 C21 1_555 1_555
C21 C22 1_555 1_555
C22 C23 1_555 1_555
C23 C18 1_555 1_555
C24 O9 1_555 1_555
C25 C26 1_555 1_555
C26 C27 1_555 1_555
C27 C28 1_555 1_555
C28 C29 1_555 1_555
C29 N1 1_555 1_555
C27A C27 1_555 1_555
C26A C27A 1_555 1_555
C25A C26A 1_555 1_555
N1A C25A 1_555 1_555
C29A N1A 1_555 1_555
C28A C27A 1_555 1_555
O1A C1A 1_555 1_555
O2A Eu1 1_555 1_555
O3A C4A 1_555 1_555
C1A O2A 1_555 1_555
C2A C1A 1_555 1_555
C3A C2A 1_555 1_555
C4A C3A 1_555 1_555
C5A C4A 1_555 1_555
C6A C5A 1_555 1_555
C7A C2A 1_555 1_555
C8A O3A 1_555 1_555
O8A Eu1 1_555 1_555
Eu1A O2 1_555 1_555
O4A Eu1A 1_555 1_555
O5A Eu1A 1_555 1_555
O6A C14A 1_555 1_555
C9A O4A 1_555 1_555
C10A C9A 1_555 1_555
C11A C10A 1_555 1_555
C12A C11A 1_555 1_555
C13A C12A 1_555 1_555
C14A C13A 1_555 1_555
C15A C10A 1_555 1_555
C16A O6A 1_555 1_555
O10A Eu1A 1_555 1_555
O11A Eu1A 1_555 1_555
O7A Eu1 1_555 1_555
C17A O8 1_555 1_555
O8A_2 C17 1_555 1_555
O7A_2 C17A 1_555 1_555
C18A C17A 1_555 1_555
Eu1_2 O8A_2 1_555 1_555
C19A C18A 1_555 1_555
C23A C18A 1_555 1_555
C20A C19A 1_555 1_555
C22A C23A 1_555 1_555
C21A C20A 1_555 1_555
O9A C22A 1_555 1_555
C24A O9A 1_555 1_555
O5 C9 1_555 1_555
O7 Eu1A 1_555 1_555
C14 C15 1_555 1_555
C29A C28A 1_555 1_555
O1A Eu1A 1_555 1_555
C6A C7A 1_555 1_555
O5A C9A 1_555 1_555
C14A C15A 1_555 1_555
O7A_2 Eu1_2 1_555 1_555
C22A C21A 1_555 1_555

#END
