
#######################################################################
#
#                 Cambridge Crystallographic Data Centre
#                                CCDC 
#
#######################################################################
#
# If this CIF has been generated from an entry in the Cambridge 
# Structural Database, then it will include bibliographic, chemical, 
# crystal, experimental, refinement or atomic coordinate data resulting 
# from the CCDC's data processing and validation procedures.
#
#######################################################################

data_QOCHAS
_symmetry_cell_setting           monoclinic
_symmetry_space_group_name_H-M   'P 21'
_symmetry_Int_Tables_number      4
_space_group_name_Hall           'P 2yb'
loop_
_symmetry_equiv_pos_site_id
_symmetry_equiv_pos_as_xyz
1 x,y,z
2 -x,1/2+y,-z
_cell_length_a                   6.7276(3)
_cell_length_b                   7.0290(4)
_cell_length_c                   10.5686(5)
_cell_angle_alpha                90
_cell_angle_beta                 104.470(3)
_cell_angle_gamma                90
_cell_volume                     483.918
loop_
_atom_site_label
_atom_site_type_symbol
_atom_site_fract_x
_atom_site_fract_y
_atom_site_fract_z
Sr1 Sr 0.55450(11) 0.87723(16) 0.12095(7)
O1 O 0.1595(8) 0.9064(12) -0.0197(5)
O2 O 0.8944(9) 1.0517(10) 0.1203(6)
O3 O 0.6754(10) 1.0753(10) 0.3452(6)
O4 O 0.9194(10) 0.6802(10) 0.2319(7)
O6 O 0.3248(8) 0.8778(18) 0.2861(5)
C1 C 0.4681(13) 1.363(2) 0.3174(8)
H1 H 0.3432 1.4154 0.3334
H2 H 0.5808 1.4452 0.3603
C2 C 0.5043(14) 1.1621(15) 0.3793(9)
H3 H 0.5406 1.1784 0.4744
O7 O 0.1557(10) 1.0920(10) 0.3758(7)
C3 C 0.3149(15) 1.0332(14) 0.3439(8)
O8 O 0.4629(14) 1.5280(12) 0.1206(8)
O9 O 0.4170(15) 1.2176(14) 0.1024(8)
C4 C 0.4503(11) 1.366(2) 0.1704(7)
Sr1_2 Sr 0.55450(11) 1.87723(16) 0.12095(7)
Sr1A Sr 0.44550(11) 1.37723(16) -0.12095(7)
O8_2 O 0.4629(14) 0.5280(12) 0.1206(8)
O8A O 0.5371(14) 1.0280(12) -0.1206(8)
O9A O 0.5830(15) 0.7176(14) -0.1024(8)
O5 O 0.9646(9) 0.9373(9) 0.5499(6)
loop_
_geom_bond_atom_site_label_1
_geom_bond_atom_site_label_2
_geom_bond_site_symmetry_1
_geom_bond_site_symmetry_2
Sr1 O1 1_555 1_555
O2 Sr1 1_555 1_555
O3 Sr1 1_555 1_555
O4 Sr1 1_555 1_555
O6 Sr1 1_555 1_555
C1 H1 1_555 1_555
H2 C1 1_555 1_555
C2 O3 1_555 1_555
H3 C2 1_555 1_555
O7 C3 1_555 1_555
C3 O6 1_555 1_555
O8 C4 1_555 1_555
O9 Sr1 1_555 1_555
C4 C1 1_555 1_555
Sr1_2 O8 1_555 1_555
Sr1A O8 1_555 1_555
O8_2 Sr1 1_555 1_555
O8A Sr1 1_555 1_555
O9A Sr1 1_555 1_555
C1 C2 1_555 1_555
C2 C3 1_555 1_555
O9 C4 1_555 1_555
O9 Sr1A 1_555 1_555
Sr1A O8A 1_555 1_555

#END
