
#######################################################################
#
#                 Cambridge Crystallographic Data Centre
#                                CCDC 
#
#######################################################################
#
# If this CIF has been generated from an entry in the Cambridge 
# Structural Database, then it will include bibliographic, chemical, 
# crystal, experimental, refinement or atomic coordinate data resulting 
# from the CCDC's data processing and validation procedures.
#
#######################################################################

data_QOCHEW
_symmetry_cell_setting           orthorhombic
_symmetry_space_group_name_H-M   'P 21 21 21'
_symmetry_Int_Tables_number      19
_space_group_name_Hall           'P 2ac 2ab'
loop_
_symmetry_equiv_pos_site_id
_symmetry_equiv_pos_as_xyz
1 x,y,z
2 1/2-x,-y,1/2+z
3 -x,1/2+y,1/2-z
4 1/2+x,1/2-y,-z
_cell_length_a                   4.81200(10)
_cell_length_b                   7.70050(10)
_cell_length_c                   15.7381(3)
_cell_angle_alpha                90
_cell_angle_beta                 90
_cell_angle_gamma                90
_cell_volume                     583.172
loop_
_atom_site_label
_atom_site_type_symbol
_atom_site_fract_x
_atom_site_fract_y
_atom_site_fract_z
Pb1 Pb 0.12254(11) 0.94665(6) 0.56629(3)
O1 O -0.290(2) 1.0799(11) 0.6232(6)
O2 O -0.063(2) 1.3052(12) 0.5729(6)
C1 C -0.408(3) 1.3536(15) 0.6822(7)
H1 H -0.5760 1.2927 0.6982
H2 H -0.2980 1.3706 0.7332
C2 C -0.485(3) 1.5281(15) 0.6465(7)
H3 H -0.6135 1.5828 0.6866
O3 O -0.6282(18) 1.5099(13) 0.5666(5)
C3 C -0.241(3) 1.6502(16) 0.6350(8)
O4 O -0.0877(19) 1.6854(12) 0.6961(6)
O5 O -0.2152(19) 1.7205(11) 0.5611(5)
C4 C -0.244(3) 1.2414(17) 0.6209(8)
Pb1_2 Pb -0.87746(11) 0.94665(6) 0.56629(3)
Pb1C Pb -0.37746(11) 1.55335(6) 0.43371(3)
Pb1_3 Pb 0.12254(11) 1.94665(6) 0.56629(3)
O1_2 O 0.710(2) 1.0799(11) 0.6232(6)
O2C O 0.437(2) 1.1948(12) 0.4271(6)
O3C O -0.1282(18) 0.9901(13) 0.4334(5)
O4_2 O -0.0877(19) 0.6854(12) 0.6961(6)
O5_2 O -0.2152(19) 0.7205(11) 0.5611(5)
O5C O 0.2848(19) 0.7795(11) 0.4389(5)
loop_
_geom_bond_atom_site_label_1
_geom_bond_atom_site_label_2
_geom_bond_site_symmetry_1
_geom_bond_site_symmetry_2
Pb1 O1 1_555 1_555
O1 C4 1_555 1_555
O2 Pb1 1_555 1_555
C1 H1 1_555 1_555
H2 C1 1_555 1_555
C2 C1 1_555 1_555
H3 C2 1_555 1_555
O3 C2 1_555 1_555
C3 C2 1_555 1_555
O4 C3 1_555 1_555
O5 C3 1_555 1_555
C4 O2 1_555 1_555
Pb1_2 O1 1_555 1_555
Pb1C O2 1_555 1_555
Pb1_3 O4 1_555 1_555
O1_2 Pb1 1_555 1_555
O2C Pb1 1_555 1_555
O3C Pb1 1_555 1_555
O4_2 Pb1 1_555 1_555
O5_2 Pb1 1_555 1_555
O5C Pb1 1_555 1_555
C1 C4 1_555 1_555
O3 Pb1C 1_555 1_555
O5 Pb1C 1_555 1_555
O5 Pb1_3 1_555 1_555

#END
