
#######################################################################
#
#                 Cambridge Crystallographic Data Centre
#                                CCDC 
#
#######################################################################
#
# If this CIF has been generated from an entry in the Cambridge 
# Structural Database, then it will include bibliographic, chemical, 
# crystal, experimental, refinement or atomic coordinate data resulting 
# from the CCDC's data processing and validation procedures.
#
#######################################################################

data_QOCHAR
_symmetry_cell_setting           monoclinic
_symmetry_space_group_name_H-M   'C 2/c'
_symmetry_Int_Tables_number      15
_space_group_name_Hall           '-C 2yn'
loop_
_symmetry_equiv_pos_site_id
_symmetry_equiv_pos_as_xyz
1 x,y,z
2 1/2+x,1/2+y,z
3 x,-y,1/2+z
4 1/2+x,1/2-y,1/2+z
5 -x,-y,-z
6 1/2-x,1/2-y,-z
7 -x,y,1/2-z
8 1/2-x,1/2+y,1/2-z
_cell_length_a                   4.8655(5)
_cell_length_b                   14.575(1)
_cell_length_c                   14.252(2)
_cell_angle_alpha                90
_cell_angle_beta                 92.95(1)
_cell_angle_gamma                90
_cell_volume                     1009.34
loop_
_atom_site_label
_atom_site_type_symbol
_atom_site_fract_x
_atom_site_fract_y
_atom_site_fract_z
Cd1 Cd 0.0000 0.11497(2) 0.2500
Cl1 Cl -0.71447(15) 0.09970(5) -0.03841(5)
O1 O -0.3271(5) 0.11960(16) 0.12965(18)
O2 O -0.5949(4) 0.26418(16) -0.15319(15)
C1 C -0.2963(6) 0.1770(2) 0.0657(2)
C2 C -0.4372(6) 0.2522(2) -0.0817(2)
C3 C -0.4596(6) 0.1812(2) -0.0178(2)
O3 O 0.2275(7) 0.0025(2) 0.1805(3)
H1 H 0.368(7) 0.009(4) 0.152(4)
H2 H 0.202(14) -0.0507(16) 0.196(5)
C2E C -0.0628(6) 0.2478(2) 0.0817(2)
O2E O 0.0949(4) 0.23582(16) 0.15319(15)
C3E C -0.0404(6) 0.3188(2) 0.0178(2)
Cl1E Cl 0.21447(15) 0.40030(5) 0.03841(5)
C1E C -0.2037(6) 0.3230(2) -0.0657(2)
O1E O -0.1729(5) 0.38040(16) -0.12965(18)
O3F O -0.2275(7) 0.0025(2) 0.3195(3)
H1F H -0.368(7) 0.009(4) 0.348(4)
H2F H -0.202(14) -0.0507(16) 0.304(5)
O1F O 0.3271(5) 0.11960(16) 0.37035(18)
O2C O -0.0949(4) 0.23582(16) 0.34681(15)
Cd1C Cd -0.5000 0.38503(2) -0.2500
O4 O 0.5000 0.3449(3) 0.2500
H3 H 0.391(10) 0.318(4) 0.218(4)
H3F H 0.609(10) 0.318(4) 0.282(4)
loop_
_geom_bond_atom_site_label_1
_geom_bond_atom_site_label_2
_geom_bond_site_symmetry_1
_geom_bond_site_symmetry_2
Cd1 O1 1_555 1_555
Cl1 C3 1_555 1_555
O1 C1 1_555 1_555
O2 C2 1_555 1_555
C1 C3 1_555 1_555
C2 C3 1_555 1_555
O3 Cd1 1_555 1_555
H1 O3 1_555 1_555
H2 O3 1_555 1_555
O4 H3 1_555 1_555
C2E C1 1_555 1_555
O2E Cd1 1_555 1_555
C3E C2E 1_555 1_555
Cl1E C3E 1_555 1_555
C1E C2 1_555 1_555
O1E C1E 1_555 1_555
H3F O4 1_555 1_555
O3F Cd1 1_555 1_555
H1F O3F 1_555 1_555
H2F O3F 1_555 1_555
O1F Cd1 1_555 1_555
O2C Cd1 1_555 1_555
Cd1C O2 1_555 1_555
C2E O2E 1_555 1_555
C3E C1E 1_555 1_555
O1E Cd1C 1_555 1_555

#END
