
#######################################################################
#
#                 Cambridge Crystallographic Data Centre
#                                CCDC 
#
#######################################################################
#
# If this CIF has been generated from an entry in the Cambridge 
# Structural Database, then it will include bibliographic, chemical, 
# crystal, experimental, refinement or atomic coordinate data resulting 
# from the CCDC's data processing and validation procedures.
#
#######################################################################

data_QOCJUO
_symmetry_cell_setting           monoclinic
_symmetry_space_group_name_H-M   'P 21/c'
_symmetry_Int_Tables_number      14
_space_group_name_Hall           '-P 2ybc'
loop_
_symmetry_equiv_pos_site_id
_symmetry_equiv_pos_as_xyz
1 x,y,z
2 -x,1/2+y,1/2-z
3 -x,-y,-z
4 x,1/2-y,1/2+z
_cell_length_a                   7.9186(6)
_cell_length_b                   21.4568(16)
_cell_length_c                   9.5506(7)
_cell_angle_alpha                90
_cell_angle_beta                 112.5790(10)
_cell_angle_gamma                90
_cell_volume                     1498.34
loop_
_atom_site_label
_atom_site_type_symbol
_atom_site_fract_x
_atom_site_fract_y
_atom_site_fract_z
Fe1 Fe -0.53502(7) 0.31726(2) 0.25909(6)
V1 V -0.85042(8) 0.23008(3) 0.38778(6)
V2 V -0.08714(8) 0.32900(3) 0.53051(6)
N1 N -0.6109(4) 0.41489(15) 0.2915(3)
N2 N -0.3690(4) 0.37915(14) 0.1666(3)
O1 O -0.0217(4) 0.27265(16) 0.4229(4)
O2 O 0.0305(4) 0.31810(13) 0.7309(3)
O3 O -0.7423(4) 0.31300(13) 0.0362(3)
O4 O -0.7057(4) 0.27576(15) 0.3555(4)
O5 O -0.3983(4) 0.23123(13) 0.2211(3)
O6 O -0.3121(3) 0.31871(12) 0.4810(3)
O7 O -0.0469(4) 0.39801(14) 0.4874(3)
C1 C -0.7302(5) 0.4320(2) 0.3506(4)
H1 H -0.7951 0.4013 0.3774
C2 C -0.7625(6) 0.4945(2) 0.3743(5)
H2 H -0.8482 0.5051 0.4149
C3 C -0.6671(6) 0.5393(2) 0.3373(5)
H3 H -0.6873 0.5809 0.3529
C4 C -0.5377(6) 0.52373(19) 0.2754(4)
C5 C -0.5145(5) 0.45982(17) 0.2532(4)
C6 C -0.4289(7) 0.5682(2) 0.2362(5)
H4 H -0.4426 0.6103 0.2522
C7 C -0.3085(7) 0.5510(2) 0.1776(5)
H5 H -0.2394 0.5811 0.1538
C8 C -0.2841(5) 0.4862(2) 0.1506(4)
C9 C -0.3862(5) 0.44064(18) 0.1890(4)
C10 C -0.1615(6) 0.4658(2) 0.0873(5)
H6 H -0.0906 0.4946 0.0612
C11 C -0.1455(6) 0.4037(3) 0.0637(5)
H7 H -0.0650 0.3895 0.0210
C12 C -0.2530(6) 0.3623(2) 0.1052(4)
H8 H -0.2424 0.3200 0.0886
V1C V -0.85042(8) 0.26992(3) -0.11222(6)
V1_2 V 0.14958(8) 0.23008(3) 0.38778(6)
V1C_2 V 0.14958(8) 0.26992(3) 0.88778(6)
O1_2 O -1.0217(4) 0.27265(16) 0.4229(4)
O2C O -0.9695(4) 0.18190(13) 0.2309(3)
O3C O -0.7423(4) 0.18700(13) 0.5362(3)
loop_
_geom_bond_atom_site_label_1
_geom_bond_atom_site_label_2
_geom_bond_site_symmetry_1
_geom_bond_site_symmetry_2
Fe1 N1 1_555 1_555
V1 O4 1_555 1_555
V2 O1 1_555 1_555
N1 C1 1_555 1_555
N2 Fe1 1_555 1_555
O1 V1_2 1_555 1_555
O2 V2 1_555 1_555
O3 Fe1 1_555 1_555
O4 Fe1 1_555 1_555
O5 Fe1 1_555 1_555
O6 Fe1 1_555 1_555
O7 V2 1_555 1_555
C1 H1 1_555 1_555
C2 C1 1_555 1_555
H2 C2 1_555 1_555
C3 C2 1_555 1_555
H3 C3 1_555 1_555
C4 C3 1_555 1_555
C5 N1 1_555 1_555
C6 C4 1_555 1_555
H4 C6 1_555 1_555
C7 C6 1_555 1_555
H5 C7 1_555 1_555
C8 C7 1_555 1_555
C9 N2 1_555 1_555
C10 C8 1_555 1_555
H6 C10 1_555 1_555
C11 C10 1_555 1_555
H7 C11 1_555 1_555
C12 N2 1_555 1_555
H8 C12 1_555 1_555
V1C O3 1_555 1_555
V1C_2 O2 1_555 1_555
O1_2 V1 1_555 1_555
O2C V1 1_555 1_555
O3C V1 1_555 1_555
V2 O6 1_555 1_555
C4 C5 1_555 1_555
C5 C9 1_555 1_555
C8 C9 1_555 1_555
C11 C12 1_555 1_555

#END
