
#######################################################################
#
#                 Cambridge Crystallographic Data Centre
#                                CCDC 
#
#######################################################################
#
# If this CIF has been generated from an entry in the Cambridge 
# Structural Database, then it will include bibliographic, chemical, 
# crystal, experimental, refinement or atomic coordinate data resulting 
# from the CCDC's data processing and validation procedures.
#
#######################################################################

data_QOCJOI
_symmetry_cell_setting           triclinic
_symmetry_space_group_name_H-M   'P -1'
_symmetry_Int_Tables_number      2
_space_group_name_Hall           '-P 1'
loop_
_symmetry_equiv_pos_site_id
_symmetry_equiv_pos_as_xyz
1 x,y,z
2 -x,-y,-z
_cell_length_a                   12.7092(15)
_cell_length_b                   13.6302(16)
_cell_length_c                   14.3496(17)
_cell_angle_alpha                68.0720(10)
_cell_angle_beta                 68.570(2)
_cell_angle_gamma                73.613(2)
_cell_volume                     2115.74
loop_
_atom_site_label
_atom_site_type_symbol
_atom_site_fract_x
_atom_site_fract_y
_atom_site_fract_z
Mo1 Mo 0.47839(5) 0.25230(5) 0.16993(5)
Mo2 Mo 0.69623(6) 0.29140(5) -0.04670(5)
Mo3 Mo 0.28153(6) 0.46267(5) 0.21362(5)
Mo4 Mo 0.13623(5) 0.24682(5) 0.05409(5)
Mo5 Mo 0.25833(5) 0.42952(5) -0.15282(5)
Mo6 Mo -0.12225(5) 0.31632(5) 0.21027(5)
Ni1 Ni 0.25279(8) 0.07125(8) 0.28147(7)
Ni2 Ni 0.5000 0.5000 0.0000
Ni3 Ni 0.0000 0.5000 0.0000
O1 O 0.3680(4) 0.1821(4) 0.2136(4)
O2 O 0.1857(4) 0.1668(4) 0.1598(4)
O3 O 0.5676(5) 0.1742(4) 0.2427(4)
O4 O 0.5588(5) 0.2269(4) 0.0365(4)
O5 O 0.4042(5) 0.3519(4) 0.2545(4)
O6 O 0.3820(4) 0.3973(4) 0.0776(4)
H1 H 0.330(7) 0.4050(11) 0.0758(4)
O7 O 0.5967(4) 0.3707(4) 0.0792(4)
H2 H 0.6397 0.3842 0.1164
O8 O 0.5824(4) 0.4371(4) -0.1200(4)
H3 H 0.5362 0.4276 -0.1568
O9 O 0.7933(5) 0.2145(5) 0.0183(6)
O10 O 0.7307(6) 0.2465(5) -0.1531(5)
O11 O 0.7757(4) 0.4167(4) -0.1101(4)
O12 O 0.2465(5) 0.5135(5) 0.3151(5)
O13 O 0.1727(4) 0.3913(4) 0.2478(4)
O14 O 0.2597(4) 0.3314(4) -0.0148(4)
O15 O 0.0431(4) 0.3809(4) 0.1257(4)
H4 H 0.0792 0.3984 0.1659
O16 O -0.0266(4) 0.2356(4) 0.1141(4)
O17 O 0.1695(5) 0.1641(4) -0.0195(4)
O18 O 0.1539(4) 0.5531(4) -0.0665(4)
H5 H 0.1867 0.5685 -0.0224
O19 O 0.0840(4) 0.3855(4) -0.0714(4)
H6 H 0.0463 0.3722 -0.1131
O20 O 0.3824(5) 0.4754(5) -0.1818(4)
O21 O 0.2924(5) 0.3437(5) -0.2250(4)
O22 O 0.1810(4) 0.5491(4) -0.2446(4)
O23 O -0.0774(5) 0.2476(4) 0.3197(4)
O24 O -0.2485(5) 0.2742(5) 0.2385(4)
O25 O 0.1376(5) 0.1854(4) 0.3575(4)
H7 H 0.0758 0.1611 0.3953
H8 H 0.1682 0.1958 0.3960
N1 N 0.3746(6) -0.0197(5) 0.1939(5)
N2 N 0.4634(7) -0.1115(6) 0.0832(6)
H13 H 0.4749 -0.1400 0.0352
N3 N 0.3041(6) 0.0013(6) 0.4171(5)
N4 N 0.3115(8) -0.0964(7) 0.5757(6)
H14 H 0.3023 -0.1477 0.6339
N5 N 0.1338(6) -0.0293(5) 0.3320(5)
N6 N 0.0572(9) -0.1729(8) 0.3829(7)
H15 H 0.0516 -0.2386 0.3962
C1 C 0.3669(7) -0.0488(7) 0.1206(7)
H20 H 0.3025 -0.0287 0.0970
C2 C 0.5393(9) -0.1225(8) 0.1331(8)
H21 H 0.6131 -0.1620 0.1231
C3 C 0.4856(8) -0.0640(8) 0.2013(8)
H22 H 0.5176 -0.0549 0.2457
C4 C 0.2804(9) -0.0871(8) 0.4942(7)
H23 H 0.2456 -0.1372 0.4915
C5 C 0.3590(10) -0.0128(12) 0.5511(8)
H24 H 0.3907 0.0014 0.5928
C6 C 0.3530(10) 0.0493(10) 0.4530(8)
H25 H 0.3787 0.1146 0.4166
C7 C 0.0188(8) -0.0070(8) 0.3683(9)
H26 H -0.0220 0.0611 0.3698
C8 C -0.0300(8) -0.0930(8) 0.4018(9)
H27 H -0.1076 -0.0970 0.4318
C9 C 0.1553(9) -0.1310(9) 0.3392(9)
H28 H 0.2280 -0.1694 0.3172
Mo1A Mo 0.52161(5) 0.74770(5) -0.16993(5)
Mo2A Mo 0.30377(6) 0.70860(5) 0.04670(5)
Mo3A Mo 0.71847(6) 0.53733(5) -0.21362(5)
Mo4A Mo -0.13623(5) 0.75318(5) -0.05409(5)
Mo5A Mo -0.25833(5) 0.57048(5) 0.15282(5)
Mo6A Mo 0.12225(5) 0.68368(5) -0.21027(5)
Ni1A Ni 0.74721(8) 0.92875(8) -0.28147(7)
Ni1A_2 Ni -0.25279(8) 0.92875(8) -0.28147(7)
O1A O 0.6320(4) 0.8179(4) -0.2136(4)
O2A O -0.1857(4) 0.8332(4) -0.1598(4)
O2A_2 O 0.8143(4) 0.8332(4) -0.1598(4)
O3A O 0.4324(5) 0.8258(4) -0.2427(4)
O4A O 0.4412(5) 0.7731(4) -0.0365(4)
O5A O 0.5958(5) 0.6481(4) -0.2545(4)
O6A O 0.6180(4) 0.6027(4) -0.0776(4)
H1A H 0.670(7) 0.5950(11) -0.0758(4)
O7A O 0.4033(4) 0.6293(4) -0.0792(4)
H2A H 0.3603 0.6158 -0.1164
O8A O 0.4176(4) 0.5629(4) 0.1200(4)
H3A H 0.4638 0.5724 0.1568
O9A O 0.2067(5) 0.7855(5) -0.0183(6)
O10A O 0.2693(6) 0.7535(5) 0.1531(5)
O11A O 0.2243(4) 0.5833(4) 0.1101(4)
O12A O 0.7535(5) 0.4865(5) -0.3151(5)
O13A O 0.8273(4) 0.6087(4) -0.2478(4)
O14A O -0.2597(4) 0.6686(4) 0.0148(4)
O15A O -0.0431(4) 0.6191(4) -0.1257(4)
H4A H -0.0792 0.6016 -0.1659
O16A O 0.0266(4) 0.7644(4) -0.1141(4)
O17A O -0.1695(5) 0.8359(4) 0.0195(4)
O18A O -0.1539(4) 0.4469(4) 0.0665(4)
H5A H -0.1867 0.4315 0.0224
O19A O -0.0840(4) 0.6145(4) 0.0714(4)
H6A H -0.0463 0.6278 0.1131
O20A O -0.3824(5) 0.5246(5) 0.1818(4)
O21A O -0.2924(5) 0.6563(5) 0.2250(4)
O22A O -0.1810(4) 0.4509(4) 0.2446(4)
O23A O 0.0774(5) 0.7524(4) -0.3197(4)
O24A O 0.2485(5) 0.7258(5) -0.2385(4)
O25A O 0.8624(5) 0.8146(4) -0.3575(4)
H7A H 0.9242 0.8389 -0.3953
H8A H 0.8318 0.8042 -0.3960
N1A N 0.6254(6) 1.0197(5) -0.1939(5)
N2A N 0.5366(7) 1.1115(6) -0.0832(6)
H13A H 0.5251 1.1400 -0.0352
N3A N 0.6959(6) 0.9987(6) -0.4171(5)
N4A N 0.6885(8) 1.0964(7) -0.5757(6)
H14A H 0.6977 1.1477 -0.6339
N5A N 0.8662(6) 1.0293(5) -0.3320(5)
N6A N 0.9428(9) 1.1729(8) -0.3829(7)
H15A H 0.9484 1.2386 -0.3962
C1A C 0.6331(7) 1.0488(7) -0.1206(7)
H20A H 0.6975 1.0287 -0.0970
C2A C 0.4607(9) 1.1225(8) -0.1331(8)
H21A H 0.3869 1.1620 -0.1231
C3A C 0.5144(8) 1.0640(8) -0.2013(8)
H22A H 0.4824 1.0549 -0.2457
C4A C 0.7196(9) 1.0871(8) -0.4942(7)
H23A H 0.7544 1.1372 -0.4915
C5A C 0.6410(10) 1.0128(12) -0.5511(8)
H24A H 0.6093 0.9986 -0.5928
C6A C 0.6470(10) 0.9507(10) -0.4530(8)
H25A H 0.6213 0.8854 -0.4166
C7A C 0.9812(8) 1.0070(8) -0.3683(9)
H26A H 1.0220 0.9389 -0.3698
C8A C 1.0300(8) 1.0930(8) -0.4018(9)
H27A H 1.1076 1.0970 -0.4318
C9A C 0.8447(9) 1.1310(9) -0.3392(9)
H28A H 0.7720 1.1694 -0.3172
O26 O 0.9968(5) 0.3465(5) 0.8012(5)
H9 H 0.9717 0.2879 0.8375
H10 H 0.9535 0.3866 0.7634
O27 O 0.0822(11) 0.5186(9) 0.6327(8)
H11 H 0.1079 0.5762 0.5927
H12 H 0.1321 0.4649 0.6200
N7 N 0.0472(9) 0.1271(7) 0.8348(8)
H16 H 0.0144 0.1921 0.8323
N8 N 0.0725(7) -0.0401(6) 0.8608(6)
H17 H 0.0597 -0.1043 0.8789
C10 C 0.1614(11) 0.0931(9) 0.8041(9)
H29 H 0.2185 0.1349 0.7774
C11 C 0.1762(10) -0.0116(8) 0.8194(8)
H30 H 0.2460 -0.0568 0.8041
C12 C -0.0064(10) 0.0438(8) 0.8696(9)
H31 H -0.0852 0.0451 0.8954
N9 N 0.457(2) 0.3199(17) 0.5630(17)
H18 H 0.4256 0.3059 0.6296
N10 N 0.5629(13) 0.3709(11) 0.4156(12)
H19 H 0.6188 0.3953 0.3631
C13 C 0.5526(11) 0.3541(9) 0.5185(9)
H32 H 0.6013 0.3647 0.5477
C14 C 0.4083(18) 0.307(2) 0.498(2)
H33 H 0.3432 0.2777 0.5153
C15 C 0.4769(13) 0.3449(12) 0.4087(10)
H34 H 0.4660 0.3531 0.3454
loop_
_geom_bond_atom_site_label_1
_geom_bond_atom_site_label_2
_geom_bond_site_symmetry_1
_geom_bond_site_symmetry_2
Mo1 O1 1_555 1_555
Mo2 O4 1_555 1_555
Mo3 O5 1_555 1_555
Mo4 O2 1_555 1_555
Mo5 O14 1_555 1_555
Mo6 O15 1_555 1_555
Ni1 O1 1_555 1_555
Ni2 O6 1_555 1_555
Ni3 O15 1_555 1_555
O2 Ni1 1_555 1_555
O3 Mo1 1_555 1_555
O4 Mo1 1_555 1_555
O5 Mo1 1_555 1_555
O6 Mo1 1_555 1_555
H1 O6 1_555 1_555
O7 Mo1 1_555 1_555
H2 O7 1_555 1_555
O8 Mo2 1_555 1_555
H3 O8 1_555 1_555
O9 Mo2 1_555 1_555
O10 Mo2 1_555 1_555
O11 Mo2 1_555 1_555
O12 Mo3 1_555 1_555
O13 Mo3 1_555 1_555
O14 Mo4 1_555 1_555
O15 Mo4 1_555 1_555
H4 O15 1_555 1_555
O16 Mo4 1_555 1_555
O17 Mo4 1_555 1_555
O18 Mo5 1_555 1_555
H5 O18 1_555 1_555
O19 Mo4 1_555 1_555
H6 O19 1_555 1_555
O20 Mo5 1_555 1_555
O21 Mo5 1_555 1_555
O22 Mo5 1_555 1_555
O23 Mo6 1_555 1_555
O24 Mo6 1_555 1_555
O25 Ni1 1_555 1_555
H7 O25 1_555 1_555
H8 O25 1_555 1_555
O26 H9 1_555 1_555
H10 O26 1_555 1_555
O27 H11 1_555 1_555
H12 O27 1_555 1_555
N1 Ni1 1_555 1_555
N2 H13 1_555 1_555
N3 Ni1 1_555 1_555
N4 H14 1_555 1_555
N5 Ni1 1_555 1_555
N6 H15 1_555 1_555
N7 H16 1_555 1_555
N8 H17 1_555 1_555
N9 H18 1_555 1_555
N10 H19 1_555 1_555
C1 N1 1_555 1_555
H20 C1 1_555 1_555
C2 N2 1_555 1_555
H21 C2 1_555 1_555
C3 N1 1_555 1_555
H22 C3 1_555 1_555
C4 N3 1_555 1_555
H23 C4 1_555 1_555
C5 N4 1_555 1_555
H24 C5 1_555 1_555
C6 N3 1_555 1_555
H25 C6 1_555 1_555
C7 N5 1_555 1_555
H26 C7 1_555 1_555
C8 N6 1_555 1_555
H27 C8 1_555 1_555
C9 N5 1_555 1_555
H28 C9 1_555 1_555
C10 N7 1_555 1_555
H29 C10 1_555 1_555
C11 N8 1_555 1_555
H30 C11 1_555 1_555
C12 N7 1_555 1_555
H31 C12 1_555 1_555
C13 N9 1_555 1_555
H32 C13 1_555 1_555
C14 N9 1_555 1_555
H33 C14 1_555 1_555
C15 N10 1_555 1_555
H34 C15 1_555 1_555
Mo1A O1A 1_555 1_555
Mo2A O4A 1_555 1_555
Mo3A O8 1_555 1_555
Mo4A O2A 1_555 1_555
Mo5A O14A 1_555 1_555
Mo6A O18 1_555 1_555
Ni1A O1A 1_555 1_555
Ni1A_2 O2A 1_555 1_555
O2A_2 Ni1A 1_555 1_555
O3A Mo1A 1_555 1_555
O4A Mo1A 1_555 1_555
O5A Mo1A 1_555 1_555
O6A Ni2 1_555 1_555
H1A O6A 1_555 1_555
O7A Ni2 1_555 1_555
H2A O7A 1_555 1_555
O8A Mo3 1_555 1_555
H3A O8A 1_555 1_555
O9A Mo2A 1_555 1_555
O10A Mo2A 1_555 1_555
O11A Mo3 1_555 1_555
O12A Mo3A 1_555 1_555
O13A Mo3A 1_555 1_555
O14A Mo4A 1_555 1_555
O15A Ni3 1_555 1_555
H4A O15A 1_555 1_555
O16A Mo4A 1_555 1_555
O17A Mo4A 1_555 1_555
O18A Mo6 1_555 1_555
H5A O18A 1_555 1_555
O19A Ni3 1_555 1_555
H6A O19A 1_555 1_555
O20A Mo5A 1_555 1_555
O21A Mo5A 1_555 1_555
O22A Mo6 1_555 1_555
O23A Mo6A 1_555 1_555
O24A Mo6A 1_555 1_555
O25A Ni1A 1_555 1_555
H7A O25A 1_555 1_555
H8A O25A 1_555 1_555
N1A Ni1A 1_555 1_555
N2A H13A 1_555 1_555
N3A Ni1A 1_555 1_555
N4A H14A 1_555 1_555
N5A Ni1A 1_555 1_555
N6A H15A 1_555 1_555
C1A N1A 1_555 1_555
H20A C1A 1_555 1_555
C2A N2A 1_555 1_555
H21A C2A 1_555 1_555
C3A N1A 1_555 1_555
H22A C3A 1_555 1_555
C4A N3A 1_555 1_555
H23A C4A 1_555 1_555
C5A N4A 1_555 1_555
H24A C5A 1_555 1_555
C6A N3A 1_555 1_555
H25A C6A 1_555 1_555
C7A N5A 1_555 1_555
H26A C7A 1_555 1_555
C8A N6A 1_555 1_555
H27A C8A 1_555 1_555
C9A N5A 1_555 1_555
H28A C9A 1_555 1_555
Mo2 O7 1_555 1_555
Mo3 O6 1_555 1_555
Mo5 O19 1_555 1_555
Mo6 O16 1_555 1_555
Ni2 O7 1_555 1_555
Ni2 O8 1_555 1_555
Ni2 O8A 1_555 1_555
Ni3 O18 1_555 1_555
Ni3 O19 1_555 1_555
Ni3 O18A 1_555 1_555
O11 Mo3A 1_555 1_555
O22 Mo6A 1_555 1_555
N2 C1 1_555 1_555
N4 C4 1_555 1_555
N6 C9 1_555 1_555
N8 C12 1_555 1_555
N10 C13 1_555 1_555
C2 C3 1_555 1_555
C5 C6 1_555 1_555
C7 C8 1_555 1_555
C10 C11 1_555 1_555
C14 C15 1_555 1_555
Mo1A O6A 1_555 1_555
Mo1A O7A 1_555 1_555
Mo2A O7A 1_555 1_555
Mo2A O8A 1_555 1_555
Mo2A O11A 1_555 1_555
Mo3A O5A 1_555 1_555
Mo3A O6A 1_555 1_555
Mo4A O15A 1_555 1_555
Mo4A O19A 1_555 1_555
Mo5A O18A 1_555 1_555
Mo5A O19A 1_555 1_555
Mo5A O22A 1_555 1_555
Mo6A O15A 1_555 1_555
Mo6A O16A 1_555 1_555
N2A C1A 1_555 1_555
N4A C4A 1_555 1_555
N6A C9A 1_555 1_555
C2A C3A 1_555 1_555
C5A C6A 1_555 1_555
C7A C8A 1_555 1_555

#END
