
#######################################################################
#
#                 Cambridge Crystallographic Data Centre
#                                CCDC 
#
#######################################################################
#
# If this CIF has been generated from an entry in the Cambridge 
# Structural Database, then it will include bibliographic, chemical, 
# crystal, experimental, refinement or atomic coordinate data resulting 
# from the CCDC's data processing and validation procedures.
#
#######################################################################

data_QOCKOJ
_symmetry_cell_setting           triclinic
_symmetry_space_group_name_H-M   'P -1'
_symmetry_Int_Tables_number      2
_space_group_name_Hall           '-P 1'
loop_
_symmetry_equiv_pos_site_id
_symmetry_equiv_pos_as_xyz
1 x,y,z
2 -x,-y,-z
_cell_length_a                   10.9180(11)
_cell_length_b                   12.3759(13)
_cell_length_c                   13.0264(13)
_cell_angle_alpha                113.3560(10)
_cell_angle_beta                 93.8730(10)
_cell_angle_gamma                99.0300(10)
_cell_volume                     1579.45
loop_
_atom_site_label
_atom_site_type_symbol
_atom_site_fract_x
_atom_site_fract_y
_atom_site_fract_z
Cu1 Cu 0.0000 0.5000 0.5000
N1 N -0.1765(13) 0.4959(17) 0.4930(13)
C1 C -0.3398(13) 0.5957(16) 0.5635(13)
H1 H -0.3622 0.6658 0.6121
C2 C -0.2180(16) 0.5930(19) 0.5599(15)
H2 H -0.1593 0.6617 0.6060
C3 C -0.4322(13) 0.4996(14) 0.4985(13)
C4 C -0.3890(16) 0.3964(18) 0.4270(16)
H3 H -0.4463 0.3274 0.3795
C5 C -0.2632(16) 0.399(2) 0.4282(18)
H4 H -0.2369 0.3296 0.3820
Cu1_2 Cu -1.0000 0.5000 0.5000
N1A N -0.8235(13) 0.5041(17) 0.5070(13)
N1A_2 N 0.1765(13) 0.5041(17) 0.5070(13)
C1A C -0.6602(13) 0.4043(16) 0.4365(13)
H1A H -0.6378 0.3342 0.3879
C2A C -0.7820(16) 0.4070(19) 0.4401(15)
H2A H -0.8407 0.3383 0.3940
C3A C -0.5678(13) 0.5004(14) 0.5015(13)
C4A C -0.6110(16) 0.6036(18) 0.5730(16)
H3A H -0.5537 0.6726 0.6205
C5A C -0.7368(16) 0.601(2) 0.5718(18)
H4A H -0.7631 0.6704 0.6180
N4 N -0.2975(13) 0.2986(12) -0.0434(13)
C16 C -0.4248(17) 0.2547(16) -0.085(2)
H13 H -0.4548 0.1725 -0.1247
C17 C -0.5042(14) 0.3311(14) -0.0675(14)
H14 H -0.5893 0.3011 -0.0936
C18 C -0.4595(12) 0.4566(12) -0.0099(13)
C19 C -0.3293(15) 0.4935(16) 0.0233(15)
H15 H -0.2969 0.5756 0.0607
C20 C -0.2455(16) 0.4160(16) 0.0042(16)
H16 H -0.1593 0.4438 0.0232
N4A N -0.7025(13) 0.7014(12) 0.0434(13)
C16A C -0.5752(17) 0.7453(16) 0.085(2)
H13A H -0.5452 0.8275 0.1247
C17A C -0.4958(14) 0.6689(14) 0.0675(14)
H14A H -0.4107 0.6989 0.0936
C18A C -0.5405(12) 0.5434(12) 0.0099(13)
C19A C -0.6707(15) 0.5065(16) -0.0233(15)
H15A H -0.7031 0.4244 -0.0607
C20A C -0.7545(16) 0.5840(16) -0.0042(16)
H16A H -0.8407 0.5562 -0.0232
O23 O -0.407(3) -0.042(3) 0.298(4)
Mo1 Mo -0.24303(7) -0.01260(8) -0.20371(7)
Mo2 Mo -0.26923(7) -0.23592(7) -0.09754(7)
Mo3 Mo 0.02715(8) 0.22511(8) -0.10560(8)
Mo4 Mo 0.02659(8) -0.29563(7) -0.17767(7)
Mo5 Mo -0.29478(8) 0.05982(9) 0.08336(8)
Mo6 Mo 0.05166(9) -0.07044(8) -0.28439(7)
P1 P 0.0000 0.0000 0.0000
O1 O -0.2176(13) 0.0479(13) 0.2154(12)
O2 O -0.1505(12) -0.3136(15) -0.1842(11)
O3 O 0.1991(14) -0.2172(13) -0.1331(12)
O4 O -0.2937(13) -0.1634(10) -0.1979(10)
O5 O -0.3565(13) -0.0163(11) -0.2969(10)
O6 O -0.1226(12) -0.0774(11) -0.2938(13)
O7 O -0.4297(11) 0.0921(11) 0.1257(11)
O8 O -0.3910(12) -0.3495(10) -0.1427(10)
O9 O 0.0737(10) -0.1034(11) -0.4164(9)
O10 O -0.3100(12) 0.0566(9) -0.0658(9)
O11 O -0.3291(13) -0.1119(10) 0.0123(8)
O12 O 0.0359(10) -0.4366(10) -0.2615(11)
O13 O 0.0363(10) 0.3316(11) -0.1550(10)
O14 O 0.0199(12) -0.2270(13) -0.2868(13)
O15 O -0.0316(14) 0.3030(17) 0.0341(12)
O16 O -0.1882(13) -0.2604(15) 0.0262(11)
O17 O 0.0742(12) 0.0980(11) -0.2233(14)
O18 O -0.1461(13) 0.1461(11) -0.1630(15)
O19 O -0.0337(15) 0.0279(16) -0.1066(15)
O20 O -0.0531(16) -0.1363(18) -0.0324(15)
O21 O 0.0732(16) -0.0774(14) -0.0960(14)
O22 O -0.1385(16) -0.0341(16) -0.0368(15)
Cu2 Cu 0.01697(19) -0.2813(3) -0.6294(2)
N2 N -0.1592(11) -0.2835(14) -0.6287(12)
N3 N -0.8075(10) -0.2767(13) -0.6294(13)
C6 C -0.1972(15) -0.1844(17) -0.5738(15)
H5 H -0.1376 -0.1141 -0.5348
C7 C -0.3244(13) -0.1795(14) -0.5709(13)
H6 H -0.3479 -0.1086 -0.5254
C8 C -0.4142(12) -0.2798(14) -0.6357(11)
C9 C -0.3735(16) -0.3852(16) -0.6933(14)
H7 H -0.4315 -0.4564 -0.7330
C10 C -0.2450(13) -0.3850(17) -0.6921(13)
H8 H -0.2183 -0.4549 -0.7351
C11 C -0.5514(14) -0.2787(13) -0.6350(13)
C12 C -0.5935(17) -0.1823(15) -0.5656(19)
H9 H -0.5357 -0.1128 -0.5197
C13 C -0.7218(17) -0.184(2) -0.561(2)
H10 H -0.7467 -0.1177 -0.5079
C14 C -0.6425(13) -0.3745(15) -0.7049(13)
H11 H -0.6195 -0.4432 -0.7555
C15 C -0.7689(17) -0.3707(17) -0.7012(16)
H12 H -0.8284 -0.4366 -0.7510
Mo1A Mo 0.24303(7) 0.01260(8) 0.20371(7)
Mo2A Mo 0.26923(7) 0.23592(7) 0.09754(7)
Mo3A Mo -0.02715(8) -0.22511(8) 0.10560(8)
Mo4A Mo -0.02659(8) 0.29563(7) 0.17767(7)
Mo5A Mo 0.29478(8) -0.05982(9) -0.08336(8)
Mo6A Mo -0.05166(9) 0.07044(8) 0.28439(7)
O1A O 0.2176(13) -0.0479(13) -0.2154(12)
O2A O 0.1505(12) 0.3136(15) 0.1842(11)
O3A O -0.1991(14) 0.2172(13) 0.1331(12)
O4A O 0.2937(13) 0.1634(10) 0.1979(10)
O5A O 0.3565(13) 0.0163(11) 0.2969(10)
O6A O 0.1226(12) 0.0774(11) 0.2938(13)
O7A O 0.4297(11) -0.0921(11) -0.1257(11)
O8A O 0.3910(12) 0.3495(10) 0.1427(10)
O9A O -0.0737(10) 0.1034(11) 0.4164(9)
O10A O 0.3100(12) -0.0566(9) 0.0658(9)
O11A O 0.3291(13) 0.1119(10) -0.0123(8)
O12A O -0.0359(10) 0.4366(10) 0.2615(11)
O13A O -0.0363(10) -0.3316(11) 0.1550(10)
O13A_2 O -0.0363(10) -0.3316(11) -0.8450(10)
O13_2 O 0.0363(10) 0.3316(11) 0.8450(10)
O14A O -0.0199(12) 0.2270(13) 0.2868(13)
O15A O 0.0316(14) -0.3030(17) -0.0341(12)
O16A O 0.1882(13) 0.2604(15) -0.0262(11)
O17A O -0.0742(12) -0.0980(11) 0.2233(14)
O18A O 0.1461(13) -0.1461(11) 0.1630(15)
O19A O 0.0337(15) -0.0279(16) 0.1066(15)
O20A O 0.0531(16) 0.1363(18) 0.0324(15)
O21A O -0.0732(16) 0.0774(14) 0.0960(14)
O22A O 0.1385(16) 0.0341(16) 0.0368(15)
Cu2A Cu -0.01697(19) 0.2813(3) 0.6294(2)
Cu2A_2 Cu -0.01697(19) 0.2813(3) -0.3706(2)
Cu2_2 Cu -0.98303(19) -0.2813(3) -0.6294(2)
Cu2_3 Cu 0.01697(19) -0.2813(3) 0.3706(2)
Cu2_4 Cu 1.01697(19) -0.2813(3) -0.6294(2)
N2_2 N 0.8408(11) -0.2835(14) -0.6287(12)
N2A N 0.1592(11) 0.2835(14) 0.6287(12)
N3_2 N 0.1925(10) -0.2767(13) -0.6294(13)
N3A N -0.1925(10) 0.2767(13) 0.6294(13)
C6_2 C 0.8028(15) -0.1844(17) -0.5738(15)
H5_2 H 0.8624 -0.1141 -0.5348
C7_2 C 0.6756(13) -0.1795(14) -0.5709(13)
H6_2 H 0.6521 -0.1086 -0.5254
C8_2 C 0.5858(12) -0.2798(14) -0.6357(11)
C9_2 C 0.6265(16) -0.3852(16) -0.6933(14)
H7_2 H 0.5685 -0.4564 -0.7330
C10_2 C 0.7550(13) -0.3850(17) -0.6921(13)
H8_2 H 0.7817 -0.4549 -0.7351
C11_2 C 0.4486(14) -0.2787(13) -0.6350(13)
C12_2 C 0.4065(17) -0.1823(15) -0.5656(19)
H9_2 H 0.4643 -0.1128 -0.5197
C13_2 C 0.2782(17) -0.184(2) -0.561(2)
H10_2 H 0.2533 -0.1177 -0.5079
C14_2 C 0.3575(13) -0.3745(15) -0.7049(13)
H11_2 H 0.3805 -0.4432 -0.7555
C15_2 C 0.2311(17) -0.3707(17) -0.7012(16)
H12_2 H 0.1716 -0.4366 -0.7510
loop_
_geom_bond_atom_site_label_1
_geom_bond_atom_site_label_2
_geom_bond_site_symmetry_1
_geom_bond_site_symmetry_2
Mo1 O4 1_555 1_555
Mo2 O2 1_555 1_555
Mo3 O13 1_555 1_555
Mo4 O2 1_555 1_555
Mo5 O1 1_555 1_555
Mo6 O6 1_555 1_555
P1 O19 1_555 1_555
O1 Mo6A 1_555 1_555
O3 Mo4 1_555 1_555
O4 Mo2 1_555 1_555
O5 Mo1 1_555 1_555
O6 Mo1 1_555 1_555
O7 Mo5 1_555 1_555
O8 Mo2 1_555 1_555
O9 Mo6 1_555 1_555
O10 Mo1 1_555 1_555
O11 Mo2 1_555 1_555
O12 Mo4 1_555 1_555
O13 Cu2A_2 1_555 1_555
O14 Mo4 1_555 1_555
O15 Mo3 1_555 1_555
O16 Mo2 1_555 1_555
O17 Mo3 1_555 1_555
O18 Mo1 1_555 1_555
O19 Mo1 1_555 1_555
O20 Mo2 1_555 1_555
O21 Mo4 1_555 1_555
O22 Mo1 1_555 1_555
Cu1 N1 1_555 1_555
Cu2 O9 1_555 1_555
N1 C2 1_555 1_555
N2 Cu2 1_555 1_555
N3 C13 1_555 1_555
N4 C16 1_555 1_555
C1 H1 1_555 1_555
C2 C1 1_555 1_555
H2 C2 1_555 1_555
C3 C1 1_555 1_555
C4 C3 1_555 1_555
H3 C4 1_555 1_555
C5 N1 1_555 1_555
H4 C5 1_555 1_555
C6 N2 1_555 1_555
H5 C6 1_555 1_555
C7 C6 1_555 1_555
H6 C7 1_555 1_555
C8 C7 1_555 1_555
C9 C8 1_555 1_555
H7 C9 1_555 1_555
C10 N2 1_555 1_555
H8 C10 1_555 1_555
C11 C8 1_555 1_555
C12 C11 1_555 1_555
H9 C12 1_555 1_555
C13 C12 1_555 1_555
H10 C13 1_555 1_555
C14 C11 1_555 1_555
H11 C14 1_555 1_555
C15 N3 1_555 1_555
H12 C15 1_555 1_555
C16 H13 1_555 1_555
C17 C16 1_555 1_555
H14 C17 1_555 1_555
C18 C17 1_555 1_555
C19 C18 1_555 1_555
H15 C19 1_555 1_555
C20 N4 1_555 1_555
H16 C20 1_555 1_555
Mo1A O4A 1_555 1_555
Mo2A O2A 1_555 1_555
Mo3A O16 1_555 1_555
Mo4A O15 1_555 1_555
Mo5A O3 1_555 1_555
Mo6A O6A 1_555 1_555
O1A Mo6 1_555 1_555
O2A Mo4A 1_555 1_555
O3A Mo5 1_555 1_555
O4A Mo2A 1_555 1_555
O5A Mo1A 1_555 1_555
O6A Mo1A 1_555 1_555
O7A Mo5A 1_555 1_555
O8A Mo2A 1_555 1_555
O9A Mo6A 1_555 1_555
O10A Mo1A 1_555 1_555
O11A Mo2A 1_555 1_555
O12A Mo4A 1_555 1_555
O13A Mo3A 1_555 1_555
O13A_2 Cu2 1_555 1_555
O13_2 Cu2A 1_555 1_555
O14A Mo4A 1_555 1_555
O15A Mo4 1_555 1_555
O16A Mo3 1_555 1_555
O17A Mo3A 1_555 1_555
O18A Mo1A 1_555 1_555
O19A P1 1_555 1_555
O20A Mo3 1_555 1_555
O21A Mo5 1_555 1_555
O22A P1 1_555 1_555
Cu1_2 N1A 1_555 1_555
Cu2A O9A 1_555 1_555
Cu2_2 N3 1_555 1_555
Cu2_3 O13A 1_555 1_555
Cu2_4 N2_2 1_555 1_555
N1A C2A 1_555 1_555
N1A_2 Cu1 1_555 1_555
N2_2 C6_2 1_555 1_555
N2A Cu2A 1_555 1_555
N3_2 Cu2 1_555 1_555
N3A Cu2A 1_555 1_555
N4A C16A 1_555 1_555
C1A H1A 1_555 1_555
C2A C1A 1_555 1_555
H2A C2A 1_555 1_555
C3A C3 1_555 1_555
C4A C3A 1_555 1_555
H3A C4A 1_555 1_555
C5A N1A 1_555 1_555
H4A C5A 1_555 1_555
C6_2 H5_2 1_555 1_555
C7_2 C6_2 1_555 1_555
H6_2 C7_2 1_555 1_555
C8_2 C7_2 1_555 1_555
C9_2 C8_2 1_555 1_555
H7_2 C9_2 1_555 1_555
C10_2 N2_2 1_555 1_555
H8_2 C10_2 1_555 1_555
C11_2 C8_2 1_555 1_555
C12_2 C11_2 1_555 1_555
H9_2 C12_2 1_555 1_555
C13_2 N3_2 1_555 1_555
H10_2 C13_2 1_555 1_555
C14_2 C11_2 1_555 1_555
H11_2 C14_2 1_555 1_555
C15_2 N3_2 1_555 1_555
H12_2 C15_2 1_555 1_555
C16A H13A 1_555 1_555
C17A C16A 1_555 1_555
H14A C17A 1_555 1_555
C18A C18 1_555 1_555
C19A C18A 1_555 1_555
H15A C19A 1_555 1_555
C20A N4A 1_555 1_555
H16A C20A 1_555 1_555
Mo2 O22 1_555 1_555
Mo3 O18 1_555 1_555
Mo3 O19 1_555 1_555
Mo4 O20 1_555 1_555
Mo5 O10 1_555 1_555
Mo5 O11 1_555 1_555
Mo5 O22 1_555 1_555
Mo6 O14 1_555 1_555
Mo6 O17 1_555 1_555
Mo6 O19 1_555 1_555
Mo6 O21 1_555 1_555
P1 O20 1_555 1_555
P1 O21 1_555 1_555
P1 O22 1_555 1_555
P1 O20A 1_555 1_555
P1 O21A 1_555 1_555
O19 O22 1_555 1_555
O20 O22 1_555 1_555
O20 Mo3A 1_555 1_555
O21 Mo5A 1_555 1_555
O21 O22A 1_555 1_555
O22 O21A 1_555 1_555
C4 C5 1_555 1_555
C9 C10 1_555 1_555
C14 C15 1_555 1_555
C19 C20 1_555 1_555
Mo1A O19A 1_555 1_555
Mo1A O22A 1_555 1_555
Mo2A O16A 1_555 1_555
Mo2A O20A 1_555 1_555
Mo2A O22A 1_555 1_555
Mo3A O15A 1_555 1_555
Mo3A O18A 1_555 1_555
Mo3A O19A 1_555 1_555
Mo4A O3A 1_555 1_555
Mo4A O20A 1_555 1_555
Mo4A O21A 1_555 1_555
Mo5A O1A 1_555 1_555
Mo5A O10A 1_555 1_555
Mo5A O11A 1_555 1_555
Mo5A O22A 1_555 1_555
Mo6A O14A 1_555 1_555
Mo6A O17A 1_555 1_555
Mo6A O19A 1_555 1_555
Mo6A O21A 1_555 1_555
O19A O22A 1_555 1_555
O20A O22A 1_555 1_555
C1A C3A 1_555 1_555
C4A C5A 1_555 1_555
C9_2 C10_2 1_555 1_555
C12_2 C13_2 1_555 1_555
C14_2 C15_2 1_555 1_555
C17A C18A 1_555 1_555
C19A C20A 1_555 1_555

#END
