
#######################################################################
#
#                 Cambridge Crystallographic Data Centre
#                                CCDC 
#
#######################################################################
#
# If this CIF has been generated from an entry in the Cambridge 
# Structural Database, then it will include bibliographic, chemical, 
# crystal, experimental, refinement or atomic coordinate data resulting 
# from the CCDC's data processing and validation procedures.
#
#######################################################################

data_QOCLIF
_symmetry_cell_setting           orthorhombic
_symmetry_space_group_name_H-M   'P 21 21 21'
_symmetry_Int_Tables_number      19
_space_group_name_Hall           'P 2ac 2ab'
loop_
_symmetry_equiv_pos_site_id
_symmetry_equiv_pos_as_xyz
1 x,y,z
2 1/2-x,-y,1/2+z
3 -x,1/2+y,1/2-z
4 1/2+x,1/2-y,-z
_cell_length_a                   5.6649(11)
_cell_length_b                   14.196(3)
_cell_length_c                   19.148(4)
_cell_angle_alpha                90
_cell_angle_beta                 90
_cell_angle_gamma                90
_cell_volume                     1539.86
loop_
_atom_site_label
_atom_site_type_symbol
_atom_site_fract_x
_atom_site_fract_y
_atom_site_fract_z
Zn1 Zn 0.93840(11) 0.81450(4) 0.97733(3)
O1 O 1.1600(6) 1.2257(2) 0.6025(2)
O2 O 1.4335(7) 1.1202(2) 0.56522(18)
O3 O 1.6289(6) 0.8897(2) 0.9778(2)
O4 O 1.3224(6) 0.7936(2) 0.95729(19)
N1 N 1.0484(8) 0.9269(2) 0.9046(2)
H1 H 0.9506 0.9772 0.9101
C1 C 1.2162(9) 1.0872(3) 0.6676(3)
C2 C 1.0150(9) 1.1805(3) 0.9464(3)
H2 H 0.9099 1.1581 0.9799
C3 C 1.3652(10) 1.0127(3) 0.6847(3)
H3 H 1.5043 1.0035 0.6599
C4 C 1.2846(9) 1.0430(3) 0.9722(3)
H4 H 1.1683 1.0329 1.0086
H5 H 1.4372 1.0507 0.9944
C5 C 1.4238(11) 0.8738(3) 0.9563(3)
C6 C 1.2241(10) 1.1320(3) 0.9331(3)
C7 C 1.0134(9) 1.0996(3) 0.7055(3)
H6 H 0.9134 1.1495 0.6949
C8 C 1.3064(10) 0.9525(4) 0.7386(3)
H7 H 1.4084 0.9036 0.7501
C9 C 1.0321(10) 0.8937(3) 0.8318(3)
H8 H 0.8714 0.8731 0.8234
H9 H 1.1335 0.8391 0.8268
C10 C 0.9548(11) 1.0382(3) 0.7598(3)
H10 H 0.8170 1.0482 0.7851
C11 C 1.2740(10) 1.1505(4) 0.6065(3)
C12 C 1.0973(11) 0.9636(3) 0.7762(3)
C13 C 1.2920(9) 0.9553(3) 0.9244(3)
H11 H 1.3749 0.9732 0.8815
C14 C 0.9639(12) 1.2631(4) 0.9092(3)
H12 H 0.8237 1.2951 0.9178
C15 C 1.3243(12) 1.2491(4) 0.8479(4)
H13 H 1.4302 1.2718 0.8149
C16 C 1.3751(10) 1.1679(3) 0.8838(3)
H14 H 1.5156 1.1365 0.8745
C17 C 1.1186(12) 1.2968(4) 0.8605(4)
H15 H 1.0844 1.3517 0.8360
Zn1_2 Zn 1.93840(11) 0.81450(4) 0.97733(3)
Zn1A Zn 1.56160(11) 1.18550(4) 0.47733(3)
Zn1B Zn 1.06160(11) 1.31450(4) 0.52267(3)
Zn1C Zn 1.43840(11) 0.68550(4) 1.02267(3)
O1B O 0.8400(6) 0.7257(2) 0.8975(2)
O2A O 1.0665(7) 0.8798(2) 1.06522(18)
O3_2 O 0.6289(6) 0.8897(2) 0.9778(2)
O4C O 0.8224(6) 0.7064(2) 1.04271(19)
loop_
_geom_bond_atom_site_label_1
_geom_bond_atom_site_label_2
_geom_bond_site_symmetry_1
_geom_bond_site_symmetry_2
Zn1 O4 1_555 1_555
O1 C11 1_555 1_555
O2 C11 1_555 1_555
O3 C5 1_555 1_555
O4 C5 1_555 1_555
N1 Zn1 1_555 1_555
H1 N1 1_555 1_555
C1 C3 1_555 1_555
C2 H2 1_555 1_555
C3 H3 1_555 1_555
C4 H4 1_555 1_555
H5 C4 1_555 1_555
C5 C13 1_555 1_555
C6 C2 1_555 1_555
C7 C1 1_555 1_555
H6 C7 1_555 1_555
C8 C3 1_555 1_555
H7 C8 1_555 1_555
C9 N1 1_555 1_555
H8 C9 1_555 1_555
H9 C9 1_555 1_555
C10 C7 1_555 1_555
H10 C10 1_555 1_555
C11 C1 1_555 1_555
C12 C8 1_555 1_555
C13 N1 1_555 1_555
H11 C13 1_555 1_555
C14 C2 1_555 1_555
H12 C14 1_555 1_555
C15 H13 1_555 1_555
C16 C6 1_555 1_555
H14 C16 1_555 1_555
C17 C14 1_555 1_555
H15 C17 1_555 1_555
Zn1_2 O3 1_555 1_555
Zn1A O2 1_555 1_555
Zn1B O1 1_555 1_555
Zn1C O4 1_555 1_555
O1B Zn1 1_555 1_555
O2A Zn1 1_555 1_555
O3_2 Zn1 1_555 1_555
O4C Zn1 1_555 1_555
C4 C6 1_555 1_555
C4 C13 1_555 1_555
C9 C12 1_555 1_555
C10 C12 1_555 1_555
C15 C16 1_555 1_555
C15 C17 1_555 1_555

#END
