
#######################################################################
#
#                 Cambridge Crystallographic Data Centre
#                                CCDC 
#
#######################################################################
#
# If this CIF has been generated from an entry in the Cambridge 
# Structural Database, then it will include bibliographic, chemical, 
# crystal, experimental, refinement or atomic coordinate data resulting 
# from the CCDC's data processing and validation procedures.
#
#######################################################################

data_QOCLIE
_symmetry_cell_setting           monoclinic
_symmetry_space_group_name_H-M   'P 21/n'
_symmetry_Int_Tables_number      14
_space_group_name_Hall           '-P 2yn'
loop_
_symmetry_equiv_pos_site_id
_symmetry_equiv_pos_as_xyz
1 x,y,z
2 1/2-x,1/2+y,1/2-z
3 -x,-y,-z
4 1/2+x,1/2-y,1/2+z
_cell_length_a                   14.8415(15)
_cell_length_b                   16.0550(16)
_cell_length_c                   19.698(2)
_cell_angle_alpha                90
_cell_angle_beta                 97.399(2)
_cell_angle_gamma                90
_cell_volume                     4654.56
loop_
_atom_site_label
_atom_site_type_symbol
_atom_site_fract_x
_atom_site_fract_y
_atom_site_fract_z
Cd1 Cd -0.255200(8) -0.366860(7) -0.915990(5)
Ni1 Ni -0.273290(12) -0.333270(11) -0.420450(8)
S1 S -0.50949(4) -0.28233(4) -1.07236(3)
S2 S -0.04620(3) -0.30845(3) -1.08257(2)
S3 S -0.05164(4) -0.45895(5) -0.72906(3)
S4 S -0.41303(3) -0.40359(3) -0.72143(2)
N1 N -0.40788(8) -0.37757(7) -0.44019(5)
N2 N -0.29378(7) -0.37838(7) -0.32942(5)
N3 N -0.14719(8) -0.31155(7) -0.36160(6)
N4 N -0.31134(7) -0.45143(7) -0.01123(5)
N5 N -0.32281(8) -0.21037(7) -0.41904(5)
N6 N -0.25312(7) -0.29195(7) -0.51246(5)
N7 N -0.21290(8) -0.43832(7) -0.46150(6)
N8 N -0.23113(8) -0.25901(7) -0.83181(5)
N9 N -0.36222(10) -0.27519(9) -0.97268(7)
N10 N -0.14078(11) -0.31646(11) -0.97201(8)
N11 N -0.15048(10) -0.46680(9) -0.85716(6)
N12 N -0.36055(9) -0.42226(9) -0.85153(7)
C1 C -0.46368(10) -0.37381(9) -0.49937(7)
H1 H -0.4411 -0.3529 -0.5379
C2 C -0.55312(10) -0.39952(10) -0.50574(8)
H2 H -0.5900 -0.3954 -0.5475
C3 C -0.58654(10) -0.43112(10) -0.44950(8)
H3 H -0.6463 -0.4497 -0.4527
C4 C -0.53030(10) -0.43509(10) -0.38785(7)
H4 H -0.5519 -0.4561 -0.3490
C5 C -0.44182(9) -0.40759(9) -0.38457(7)
C6 C -0.37487(9) -0.40946(9) -0.32087(6)
C7 C -0.39229(10) -0.43896(9) -0.25742(7)
H5 H -0.4494 -0.4598 -0.2519
C8 C -0.32336(9) -0.43698(9) -0.20231(6)
C9 C -0.23899(9) -0.40592(9) -0.21337(7)
H6 H -0.1915 -0.4043 -0.1776
C10 C -0.22587(9) -0.37736(8) -0.27777(7)
C11 C -0.13924(9) -0.34235(9) -0.29705(7)
C12 C -0.05870(10) -0.34385(11) -0.25522(8)
H7 H -0.0547 -0.3673 -0.2118
C13 C 0.01697(11) -0.30981(12) -0.27873(9)
H8 H 0.0724 -0.3090 -0.2507
C14 C 0.01011(11) -0.27720(11) -0.34359(8)
H9 H 0.0602 -0.2535 -0.3600
C15 C -0.07236(10) -0.28042(9) -0.38341(8)
H10 H -0.0767 -0.2600 -0.4279
C16 C -0.34025(9) -0.46772(9) -0.13391(6)
C17 C -0.39822(10) -0.53308(10) -0.12528(7)
H11 H -0.4274 -0.5611 -0.1632
C18 C -0.41265(10) -0.55653(10) -0.06059(7)
H12 H -0.4522 -0.6000 -0.0544
C19 C -0.36804(10) -0.51504(9) -0.00475(7)
H13 H -0.3777 -0.5318 0.0389
C20 C -0.29841(9) -0.42929(9) -0.07432(6)
H14 H -0.2589 -0.3853 -0.0791
C21 C -0.35988(11) -0.17407(10) -0.36910(7)
H15 H -0.3610 -0.2027 -0.3282
C22 C -0.39727(12) -0.09454(10) -0.37561(8)
H16 H -0.4230 -0.0704 -0.3397
C23 C -0.39536(11) -0.05215(10) -0.43637(8)
H17 H -0.4196 0.0012 -0.4418
C24 C -0.35765(10) -0.08896(9) -0.48850(7)
H18 H -0.3559 -0.0611 -0.5297
C25 C -0.32208(9) -0.16821(8) -0.47917(7)
C26 C -0.28133(9) -0.21499(8) -0.53293(7)
C27 C -0.27291(9) -0.18794(9) -0.59832(6)
H19 H -0.2925 -0.1349 -0.6122
C28 C -0.23513(9) -0.23995(8) -0.64344(6)
C29 C -0.20437(9) -0.31843(8) -0.62039(6)
H20 H -0.1770 -0.3538 -0.6490
C30 C -0.21488(9) -0.34306(8) -0.55506(6)
C31 C -0.18691(9) -0.42442(8) -0.52448(7)
C32 C -0.13896(11) -0.48392(9) -0.55593(8)
H21 H -0.1223 -0.4743 -0.5992
C33 C -0.11623(13) -0.55772(11) -0.52206(9)
H22 H -0.0838 -0.5982 -0.5424
C34 C -0.14126(14) -0.57113(11) -0.45897(9)
H23 H -0.1258 -0.6204 -0.4355
C35 C -0.18983(12) -0.51054(10) -0.43061(8)
H24 H -0.2075 -0.5203 -0.3877
C36 C -0.22943(9) -0.21452(8) -0.71525(6)
C37 C -0.22594(10) -0.13206(9) -0.73581(7)
H25 H -0.2236 -0.0891 -0.7039
C38 C -0.22596(11) -0.11494(10) -0.80454(8)
H26 H -0.2239 -0.0601 -0.8194
C39 C -0.22905(11) -0.17855(10) -0.85038(7)
H27 H -0.2298 -0.1658 -0.8965
C40 C -0.23021(9) -0.27504(9) -0.76556(6)
H28 H -0.2301 -0.3305 -0.7520
C41 C -0.42259(11) -0.27817(10) -1.01452(8)
C42 C -0.10223(11) -0.31227(10) -1.01753(8)
C43 C -0.11576(12) -0.46158(11) -0.80417(10)
C44 C -0.38142(10) -0.41560(9) -0.79772(8)
Cd1_2 Cd -0.255200(8) -0.366860(7) 0.084010(5)
N4_2 N -0.31134(7) -0.45143(7) -1.01123(5)
C45 C -0.31569(18) -0.6510(2) -0.3044(3)
H29 H -0.3277 -0.6698 -0.2602
H30 H -0.3139 -0.6979 -0.3344
H31 H -0.3629 -0.6135 -0.3231
O1 O -0.23905(19) -0.6131(2) -0.29849(18)
H32 H -0.1992 -0.6458 -0.3064
C46 C -0.4896(2) -0.2446(3) -0.2482(2)
H33 H -0.5209 -0.2826 -0.2217
H34 H -0.4741 -0.2725 -0.2882
H35 H -0.5283 -0.1980 -0.2618
O2 O -0.41442(16) -0.2180(2) -0.21079(13)
H36 H -0.3918 -0.2561 -0.1866
loop_
_geom_bond_atom_site_label_1
_geom_bond_atom_site_label_2
_geom_bond_site_symmetry_1
_geom_bond_site_symmetry_2
Cd1 N8 1_555 1_555
Ni1 N1 1_555 1_555
S1 C41 1_555 1_555
S2 C42 1_555 1_555
S3 C43 1_555 1_555
S4 C44 1_555 1_555
N1 C1 1_555 1_555
N2 Ni1 1_555 1_555
N3 Ni1 1_555 1_555
N4 C19 1_555 1_555
N5 Ni1 1_555 1_555
N6 Ni1 1_555 1_555
N7 Ni1 1_555 1_555
N8 C39 1_555 1_555
N9 Cd1 1_555 1_555
N10 Cd1 1_555 1_555
N11 Cd1 1_555 1_555
N12 Cd1 1_555 1_555
C1 H1 1_555 1_555
C2 C1 1_555 1_555
H2 C2 1_555 1_555
C3 C2 1_555 1_555
H3 C3 1_555 1_555
C4 C3 1_555 1_555
H4 C4 1_555 1_555
C5 N1 1_555 1_555
C6 N2 1_555 1_555
C7 C6 1_555 1_555
H5 C7 1_555 1_555
C8 C7 1_555 1_555
C9 C8 1_555 1_555
H6 C9 1_555 1_555
C10 N2 1_555 1_555
C11 N3 1_555 1_555
C12 C11 1_555 1_555
H7 C12 1_555 1_555
C13 C12 1_555 1_555
H8 C13 1_555 1_555
C14 C13 1_555 1_555
H9 C14 1_555 1_555
C15 N3 1_555 1_555
H10 C15 1_555 1_555
C16 C8 1_555 1_555
C17 C16 1_555 1_555
H11 C17 1_555 1_555
C18 C17 1_555 1_555
H12 C18 1_555 1_555
C19 C18 1_555 1_555
H13 C19 1_555 1_555
C20 N4 1_555 1_555
H14 C20 1_555 1_555
C21 N5 1_555 1_555
H15 C21 1_555 1_555
C22 C21 1_555 1_555
H16 C22 1_555 1_555
C23 C22 1_555 1_555
H17 C23 1_555 1_555
C24 C23 1_555 1_555
H18 C24 1_555 1_555
C25 N5 1_555 1_555
C26 N6 1_555 1_555
C27 C26 1_555 1_555
H19 C27 1_555 1_555
C28 C27 1_555 1_555
C29 C28 1_555 1_555
H20 C29 1_555 1_555
C30 N6 1_555 1_555
C31 N7 1_555 1_555
C32 C31 1_555 1_555
H21 C32 1_555 1_555
C33 C32 1_555 1_555
H22 C33 1_555 1_555
C34 C33 1_555 1_555
H23 C34 1_555 1_555
C35 N7 1_555 1_555
H24 C35 1_555 1_555
C36 C28 1_555 1_555
C37 C36 1_555 1_555
H25 C37 1_555 1_555
C38 C37 1_555 1_555
H26 C38 1_555 1_555
C39 C38 1_555 1_555
H27 C39 1_555 1_555
C40 N8 1_555 1_555
H28 C40 1_555 1_555
C41 N9 1_555 1_555
C42 N10 1_555 1_555
C43 N11 1_555 1_555
C44 N12 1_555 1_555
C45 H29 1_555 1_555
H30 C45 1_555 1_555
H31 C45 1_555 1_555
O1 C45 1_555 1_555
H32 O1 1_555 1_555
C46 H33 1_555 1_555
H34 C46 1_555 1_555
H35 C46 1_555 1_555
O2 C46 1_555 1_555
H36 O2 1_555 1_555
Cd1_2 N4 1_555 1_555
N4_2 Cd1 1_555 1_555
C4 C5 1_555 1_555
C5 C6 1_555 1_555
C9 C10 1_555 1_555
C10 C11 1_555 1_555
C14 C15 1_555 1_555
C16 C20 1_555 1_555
C24 C25 1_555 1_555
C25 C26 1_555 1_555
C29 C30 1_555 1_555
C30 C31 1_555 1_555
C34 C35 1_555 1_555
C36 C40 1_555 1_555

#END
