
#######################################################################
#
#                 Cambridge Crystallographic Data Centre
#                                CCDC 
#
#######################################################################
#
# If this CIF has been generated from an entry in the Cambridge 
# Structural Database, then it will include bibliographic, chemical, 
# crystal, experimental, refinement or atomic coordinate data resulting 
# from the CCDC's data processing and validation procedures.
#
#######################################################################

data_QOCMAX
_symmetry_cell_setting           orthorhombic
_symmetry_space_group_name_H-M   'P b c a'
_symmetry_Int_Tables_number      61
_space_group_name_Hall           '-P 2ac 2ab'
loop_
_symmetry_equiv_pos_site_id
_symmetry_equiv_pos_as_xyz
1 x,y,z
2 1/2-x,-y,1/2+z
3 -x,1/2+y,1/2-z
4 1/2+x,1/2-y,-z
5 -x,-y,-z
6 1/2+x,y,1/2-z
7 x,1/2-y,1/2+z
8 1/2-x,1/2+y,z
_cell_length_a                   16.6220(15)
_cell_length_b                   9.3059(9)
_cell_length_c                   22.472(2)
_cell_angle_alpha                90
_cell_angle_beta                 90
_cell_angle_gamma                90
_cell_volume                     3476.03
loop_
_atom_site_label
_atom_site_type_symbol
_atom_site_fract_x
_atom_site_fract_y
_atom_site_fract_z
Zn1 Zn 1.008210(16) 0.84421(3) 0.098237(12)
S1 S 0.70904(4) 1.18394(7) 0.27699(3)
O1 O 0.93977(10) 0.9424(2) 0.16183(7)
O2 O 0.82304(12) 0.9700(3) 0.11594(9)
O3 O 0.62187(11) 0.90958(19) 0.35891(8)
O4 O 0.57222(10) 1.04070(19) 0.43089(7)
O5 O 0.91234(11) 0.83981(18) 0.03950(8)
N1 N 1.07723(12) 0.7152(2) 0.03417(8)
N2 N 1.00323(11) 0.6346(2) 0.13400(8)
C1 C 0.86831(14) 0.9862(3) 0.15910(10)
C2 C 0.83705(14) 1.0687(3) 0.21256(11)
H1 H 0.8574 1.0237 0.2485
H2 H 0.8581 1.1658 0.2111
C3 C 0.74653(14) 1.0757(3) 0.21622(11)
H3 H 0.7257 0.9789 0.2204
H4 H 0.7260 1.1144 0.1791
C4 C 0.75479(14) 1.0942(3) 0.33987(10)
H5 H 0.7630 0.9935 0.3304
H6 H 0.8069 1.1367 0.3480
C5 C 0.70209(15) 1.1069(3) 0.39441(11)
H7 H 0.6855 1.2063 0.3986
H8 H 0.7339 1.0822 0.4291
C6 C 0.62760(14) 1.0130(3) 0.39356(10)
C7 C 1.11663(17) 0.7630(3) -0.01390(11)
H9 H 1.1142 0.8605 -0.0227
C8 C 1.16060(17) 0.6748(3) -0.05100(12)
H10 H 1.1889 0.7123 -0.0831
C9 C 1.16134(16) 0.5309(3) -0.03919(12)
H11 H 1.1893 0.4681 -0.0639
C10 C 1.12026(15) 0.4795(3) 0.00961(11)
H12 H 1.1200 0.3816 0.0179
C11 C 1.07927(13) 0.5744(2) 0.04629(10)
C12 C 1.03663(13) 0.5281(2) 0.10143(10)
C13 C 1.03236(16) 0.3872(3) 0.11984(13)
H13 H 1.0542 0.3146 0.0964
C14 C 0.99568(16) 0.3539(3) 0.17299(15)
H14 H 0.9932 0.2591 0.1860
C15 C 0.96269(16) 0.4622(3) 0.20673(13)
H15 H 0.9381 0.4424 0.2430
C16 C 0.96698(15) 0.6011(3) 0.18543(11)
H16 H 0.9438 0.6745 0.2077
H17 H 0.8769(14) 0.880(3) 0.0612(9)
H18 H 0.9190(16) 0.878(3) 0.0053(7)
Zn1E Zn 0.508210(16) 0.84421(3) 0.401763(12)
O3E O 1.12187(11) 0.90958(19) 0.14109(8)
O4E O 1.07222(10) 1.04070(19) 0.06911(7)
loop_
_geom_bond_atom_site_label_1
_geom_bond_atom_site_label_2
_geom_bond_site_symmetry_1
_geom_bond_site_symmetry_2
Zn1 O1 1_555 1_555
S1 C3 1_555 1_555
O1 C1 1_555 1_555
O2 C1 1_555 1_555
O3 C6 1_555 1_555
O4 C6 1_555 1_555
O5 Zn1 1_555 1_555
N1 Zn1 1_555 1_555
N2 Zn1 1_555 1_555
C1 C2 1_555 1_555
C2 H1 1_555 1_555
H2 C2 1_555 1_555
C3 C2 1_555 1_555
H3 C3 1_555 1_555
H4 C3 1_555 1_555
C4 S1 1_555 1_555
H5 C4 1_555 1_555
H6 C4 1_555 1_555
C5 C4 1_555 1_555
H7 C5 1_555 1_555
H8 C5 1_555 1_555
C6 C5 1_555 1_555
C7 N1 1_555 1_555
H9 C7 1_555 1_555
C8 C7 1_555 1_555
H10 C8 1_555 1_555
C9 C8 1_555 1_555
H11 C9 1_555 1_555
C10 C9 1_555 1_555
H12 C10 1_555 1_555
C11 N1 1_555 1_555
C12 N2 1_555 1_555
C13 C12 1_555 1_555
H13 C13 1_555 1_555
C14 C13 1_555 1_555
H14 C14 1_555 1_555
C15 C14 1_555 1_555
H15 C15 1_555 1_555
C16 N2 1_555 1_555
H16 C16 1_555 1_555
H17 O5 1_555 1_555
H18 O5 1_555 1_555
Zn1E O3 1_555 1_555
O3E Zn1 1_555 1_555
O4E Zn1 1_555 1_555
O4 Zn1E 1_555 1_555
C10 C11 1_555 1_555
C11 C12 1_555 1_555
C15 C16 1_555 1_555

#END
