
#######################################################################
#
#                 Cambridge Crystallographic Data Centre
#                                CCDC 
#
#######################################################################
#
# If this CIF has been generated from an entry in the Cambridge 
# Structural Database, then it will include bibliographic, chemical, 
# crystal, experimental, refinement or atomic coordinate data resulting 
# from the CCDC's data processing and validation procedures.
#
#######################################################################

data_QOCPOO
_symmetry_cell_setting           monoclinic
_symmetry_space_group_name_H-M   'C 2/c'
_symmetry_Int_Tables_number      15
_space_group_name_Hall           '-C 2yn'
loop_
_symmetry_equiv_pos_site_id
_symmetry_equiv_pos_as_xyz
1 x,y,z
2 1/2+x,1/2+y,z
3 -x,y,1/2-z
4 1/2-x,1/2+y,1/2-z
5 -x,-y,-z
6 1/2-x,1/2-y,-z
7 x,-y,1/2+z
8 1/2+x,1/2-y,1/2+z
_cell_length_a                   9.2664(19)
_cell_length_b                   11.160(2)
_cell_length_c                   12.510(3)
_cell_angle_alpha                90
_cell_angle_beta                 107.25(3)
_cell_angle_gamma                90
_cell_volume                     1235.51
loop_
_atom_site_label
_atom_site_type_symbol
_atom_site_fract_x
_atom_site_fract_y
_atom_site_fract_z
Co1 Co 0.0000 0.5000 0.5000
N1 N 0.0100(4) 0.3787(3) 0.1535(3)
N2 N 0.1372(4) 0.2226(3) 0.2861(3)
N3 N -0.2255(4) 0.4583(3) 0.4861(3)
O1 O -0.0691(4) 0.6433(3) 0.3894(2)
O2 O -0.4708(4) 0.3764(3) 0.4340(3)
C1 C 0.0000 0.4529(5) 0.2500
H1 H -0.0902 0.5052 0.2256
H2 H 0.0902 0.5052 0.2744
C2 C 0.1450(5) 0.3001(4) 0.1926(3)
H3 H 0.1529 0.2494 0.1296
H4 H 0.2369 0.3504 0.2169
C3 C -0.1249(4) 0.2990(4) 0.1211(3)
H5 H -0.2170 0.3488 0.0949
H6 H -0.1193 0.2474 0.0580
C4 C 0.0000 0.1468(5) 0.2500
H7 H 0.0056 0.0947 0.1873
H8 H -0.0056 0.0947 0.3127
C5 C -0.3420(5) 0.4187(4) 0.4606(4)
H9 H -0.150(6) 0.657(4) 0.361(4)
H10 H -0.013(5) 0.728(4) 0.382(4)
Co1F Co 0.0000 0.5000 0.0000
N1B N -0.0100(4) 0.3787(3) 0.3465(3)
N1F N 0.0100(4) 0.6213(3) 0.6535(3)
N2B N -0.1372(4) 0.2226(3) 0.2139(3)
N3D N 0.2255(4) 0.5417(3) 0.5139(3)
O1D O 0.0691(4) 0.3567(3) 0.6106(2)
O2D O 0.4708(4) 0.6236(3) 0.5660(3)
C2B C -0.1450(5) 0.3001(4) 0.3074(3)
H3B H -0.1529 0.2494 0.3704
H4B H -0.2369 0.3504 0.2831
C3B C 0.1249(4) 0.2990(4) 0.3789(3)
H5B H 0.2170 0.3488 0.4051
H6B H 0.1193 0.2474 0.4420
C5D C 0.3420(5) 0.5813(4) 0.5394(4)
H9D H 0.150(6) 0.343(4) 0.639(4)
H10D H 0.013(5) 0.272(4) 0.618(4)
loop_
_geom_bond_atom_site_label_1
_geom_bond_atom_site_label_2
_geom_bond_site_symmetry_1
_geom_bond_site_symmetry_2
Co1 N3 1_555 1_555
N1 C1 1_555 1_555
N2 C2 1_555 1_555
N3 C5 1_555 1_555
O1 Co1 1_555 1_555
O2 C5 1_555 1_555
C1 H1 1_555 1_555
H2 C1 1_555 1_555
C2 N1 1_555 1_555
H3 C2 1_555 1_555
H4 C2 1_555 1_555
C3 N1 1_555 1_555
H5 C3 1_555 1_555
H6 C3 1_555 1_555
C4 N2 1_555 1_555
H7 C4 1_555 1_555
H8 C4 1_555 1_555
H9 O1 1_555 1_555
H10 O1 1_555 1_555
Co1F N1 1_555 1_555
N1B Co1 1_555 1_555
N1F Co1 1_555 1_555
N2B C3 1_555 1_555
N3D Co1 1_555 1_555
O1D Co1 1_555 1_555
O2D C5D 1_555 1_555
C2B N1B 1_555 1_555
H3B C2B 1_555 1_555
H4B C2B 1_555 1_555
C3B N2 1_555 1_555
H5B C3B 1_555 1_555
H6B C3B 1_555 1_555
C5D N3D 1_555 1_555
H9D O1D 1_555 1_555
H10D O1D 1_555 1_555
C1 N1B 1_555 1_555
C4 N2B 1_555 1_555
N1B C3B 1_555 1_555
N2B C2B 1_555 1_555

#END
