
#######################################################################
#
#                 Cambridge Crystallographic Data Centre
#                                CCDC 
#
#######################################################################
#
# If this CIF has been generated from an entry in the Cambridge 
# Structural Database, then it will include bibliographic, chemical, 
# crystal, experimental, refinement or atomic coordinate data resulting 
# from the CCDC's data processing and validation procedures.
#
#######################################################################

data_QOCPOO01
_symmetry_cell_setting           monoclinic
_symmetry_space_group_name_H-M   'C 2/c'
_symmetry_Int_Tables_number      15
_space_group_name_Hall           '-C 2yn'
loop_
_symmetry_equiv_pos_site_id
_symmetry_equiv_pos_as_xyz
1 x,y,z
2 -x,y,1/2-z
3 1/2+x,1/2+y,z
4 1/2-x,1/2+y,1/2-z
5 -x,-y,-z
6 x,-y,1/2+z
7 1/2-x,1/2-y,-z
8 1/2+x,1/2-y,1/2+z
_cell_length_a                   9.234(2)
_cell_length_b                   11.252(2)
_cell_length_c                   12.576(3)
_cell_angle_alpha                90
_cell_angle_beta                 107.75(3)
_cell_angle_gamma                90
_cell_volume                     1244.46
loop_
_atom_site_label
_atom_site_type_symbol
_atom_site_fract_x
_atom_site_fract_y
_atom_site_fract_z
Co1 Co 0.0000 1.0000 0.0000
N1 N 0.2233(2) 0.9605(2) 0.0171(2)
C1 C 0.3443(2) 0.9184(2) 0.0405(2)
O1 O 0.4709(2) 0.87575(14) 0.0647(2)
O2 O 0.0677(2) 1.14311(12) 0.11034(12)
H1 H 0.1559 1.1578 0.1458
H2 H 0.0201 1.2057 0.0967
N2 N 0.0103(2) 0.87973(13) 0.15425(12)
C2 C 0.1463(2) 0.8026(2) 0.1938(2)
H3 H 0.1547 0.7536 0.1325
H4 H 0.2367 0.8518 0.2184
C3 C 0.0000 0.9537(2) 0.2500
H5 H -0.0889 1.0044 0.2255
N3 N 0.1382(2) 0.72517(13) 0.28693(13)
C4 C 0.1257(2) 0.8016(2) 0.37900(15)
H6 H 0.2161 0.8505 0.40465
H7 H 0.1209 0.7518 0.44083
C5 C 0.0000 0.6507(2) 0.2500
H8 H -0.0055 0.6001 0.3111
Co1A Co 0.0000 1.0000 0.5000
N1D N -0.2233(2) 1.0395(2) -0.0171(2)
C1D C -0.3443(2) 1.0816(2) -0.0405(2)
O1D O -0.4709(2) 1.12425(14) -0.0647(2)
O2D O -0.0677(2) 0.85689(12) -0.11034(12)
H1D H -0.1559 0.8422 -0.1458
H2D H -0.0201 0.7943 -0.0967
N2A N -0.0103(2) 0.87973(13) 0.34575(12)
N2D N -0.0103(2) 1.12027(13) -0.15425(12)
C2A C -0.1463(2) 0.8026(2) 0.3062(2)
H3A H -0.1547 0.7536 0.3675
H4A H -0.2367 0.8518 0.2816
H5A H 0.0889 1.0044 0.2745
N3A N -0.1382(2) 0.72517(13) 0.21307(13)
C4A C -0.1257(2) 0.8016(2) 0.12100(15)
H6A H -0.2161 0.8505 0.09535
H7A H -0.1209 0.7518 0.05917
H8A H 0.0055 0.6001 0.1889
loop_
_geom_bond_atom_site_label_1
_geom_bond_atom_site_label_2
_geom_bond_site_symmetry_1
_geom_bond_site_symmetry_2
Co1 N1 1_555 1_555
N1 C1 1_555 1_555
C1 O1 1_555 1_555
O2 Co1 1_555 1_555
H1 O2 1_555 1_555
H2 O2 1_555 1_555
N2 Co1 1_555 1_555
C2 N2 1_555 1_555
H3 C2 1_555 1_555
H4 C2 1_555 1_555
C3 N2 1_555 1_555
H5 C3 1_555 1_555
N3 C2 1_555 1_555
C4 N3 1_555 1_555
H6 C4 1_555 1_555
H7 C4 1_555 1_555
C5 N3 1_555 1_555
H8 C5 1_555 1_555
Co1A N2A 1_555 1_555
N1D Co1 1_555 1_555
C1D N1D 1_555 1_555
O1D C1D 1_555 1_555
O2D Co1 1_555 1_555
H1D O2D 1_555 1_555
H2D O2D 1_555 1_555
N2A C3 1_555 1_555
N2D Co1 1_555 1_555
C2A N2A 1_555 1_555
H3A C2A 1_555 1_555
H4A C2A 1_555 1_555
H5A C3 1_555 1_555
N3A C5 1_555 1_555
C4A N2 1_555 1_555
H6A C4A 1_555 1_555
H7A C4A 1_555 1_555
H8A C5 1_555 1_555
C4 N2A 1_555 1_555
C2A N3A 1_555 1_555
N3A C4A 1_555 1_555

#END
