
#######################################################################
#
#                 Cambridge Crystallographic Data Centre
#                                CCDC 
#
#######################################################################
#
# If this CIF has been generated from an entry in the Cambridge 
# Structural Database, then it will include bibliographic, chemical, 
# crystal, experimental, refinement or atomic coordinate data resulting 
# from the CCDC's data processing and validation procedures.
#
#######################################################################

data_QOCRUW
_symmetry_cell_setting           triclinic
_symmetry_space_group_name_H-M   'P -1'
_symmetry_Int_Tables_number      2
_space_group_name_Hall           '-P 1'
loop_
_symmetry_equiv_pos_site_id
_symmetry_equiv_pos_as_xyz
1 x,y,z
2 -x,-y,-z
_cell_length_a                   9.910(3)
_cell_length_b                   10.745(3)
_cell_length_c                   11.079(3)
_cell_angle_alpha                63.177(4)
_cell_angle_beta                 65.556(4)
_cell_angle_gamma                66.664(3)
_cell_volume                     926.043
loop_
_atom_site_label
_atom_site_type_symbol
_atom_site_fract_x
_atom_site_fract_y
_atom_site_fract_z
La1 La -0.28281(4) -0.00947(4) 0.48970(4)
O1 O -0.4309(5) 0.1617(5) 0.6276(6)
O2 O -0.5970(6) 0.1231(5) 0.5731(6)
O3 O 0.0774(6) -0.8051(5) 0.4160(7)
O4 O -0.1136(6) -0.8542(5) 0.4067(6)
O5 O -0.3748(6) 0.1913(6) 0.2912(6)
O6 O -0.5919(6) 0.1752(6) 0.2890(6)
O7 O -0.0864(7) -0.0591(7) 0.2731(7)
N1 N 0.1140(14) 0.021(2) 0.1034(11)
C1 C -0.5590(8) 0.1980(7) 0.6089(7)
C2 C -0.6691(8) 0.3399(7) 0.6225(7)
C3 C -0.6229(8) 0.4283(8) 0.6484(8)
H1 H -0.5283 0.3944 0.6696
C4 C -0.7135(8) 0.5667(7) 0.6437(8)
H2 H -0.6793 0.6280 0.6590
C5 C -0.8539(8) 0.6154(7) 0.6166(8)
C6 C -0.9034(10) 0.5219(9) 0.5985(11)
H3 H -1.0013 0.5526 0.5841
C7 C -0.8112(10) 0.3843(9) 0.6012(11)
H4 H -0.8457 0.3214 0.5885
C8 C -0.0554(7) -0.7698(7) 0.4039(7)
C9 C -0.4863(8) 0.2355(8) 0.2424(7)
C10 C -0.4942(8) 0.3738(8) 0.1178(8)
C11 C -0.6214(9) 0.4369(9) 0.0653(8)
H5 H -0.7051 0.3940 0.1105
C12 C -0.3743(9) 0.4399(9) 0.0507(9)
H6 H -0.2879 0.3989 0.0859
C13 C -0.0264(17) 0.0284(15) 0.1666(14)
H7 H -0.0952 0.1143 0.1257
C14 C 0.169(5) 0.134(5) -0.0239(18)
H8 H 0.1162 0.1596 -0.0940
H9 H 0.2806 0.0984 -0.0656
C15 C 0.136(6) 0.277(5) 0.014(3)
H10 H 0.0255 0.3187 0.0431
H11 H 0.1848 0.3480 -0.0700
H12 H 0.1793 0.2482 0.0905
C16 C 0.226(5) -0.069(5) 0.176(6)
H13 H 0.1849 -0.0775 0.2766
H14 H 0.3183 -0.0316 0.1323
C17 C 0.262(5) -0.214(4) 0.159(5)
H15 H 0.2424 -0.2888 0.2528
H16 H 0.3704 -0.2409 0.1066
H17 H 0.1972 -0.2059 0.1078
La1A La -0.71719(4) 0.00947(4) 0.51030(4)
La1A_2 La 0.28281(4) -0.99053(4) 0.51030(4)
La1_2 La -0.28281(4) -1.00947(4) 0.48970(4)
La1_3 La -1.28281(4) 0.99053(4) 0.48970(4)
La1A_3 La -0.71719(4) 1.00947(4) 0.51030(4)
La1A_4 La -0.71719(4) 1.00947(4) -0.48970(4)
La1_4 La -0.28281(4) 0.99053(4) -0.51030(4)
O1A O -0.5691(5) -0.1617(5) 0.3724(6)
O2A O -0.4030(6) -0.1231(5) 0.4269(6)
O3A O -0.0774(6) -0.1949(5) 0.5840(7)
O3_2 O -0.9226(6) 0.1949(5) 0.4160(7)
O3A_2 O -1.0774(6) 0.8051(5) 0.5840(7)
O4_2 O -0.1136(6) 0.1458(5) 0.4067(6)
O4A O -0.8864(6) -0.1458(5) 0.5933(6)
O4A_2 O -0.8864(6) 0.8542(5) 0.5933(6)
O5A O -0.6252(6) -0.1913(6) 0.7088(6)
O5A_2 O -0.6252(6) 0.8087(6) -0.2912(6)
O6A O -0.4081(6) -0.1752(6) 0.7110(6)
O6A_2 O -0.4081(6) 0.8248(6) -0.2890(6)
O7A O -0.9136(7) 0.0591(7) 0.7269(7)
N1A N -1.1140(14) -0.021(2) 0.8966(11)
C1A C -0.4410(8) -0.1980(7) 0.3911(7)
C2A C -0.3309(8) -0.3399(7) 0.3775(7)
C3A C -0.3771(8) -0.4283(8) 0.3516(8)
H1A H -0.4717 -0.3944 0.3304
C4A C -0.2865(8) -0.5667(7) 0.3563(8)
H2A H -0.3207 -0.6280 0.3410
C5A C -0.1461(8) -0.6154(7) 0.3834(8)
C6A C -0.0966(10) -0.5219(9) 0.4015(11)
H3A H 0.0013 -0.5526 0.4159
C7A C -0.1888(10) -0.3843(9) 0.3988(11)
H4A H -0.1543 -0.3214 0.4115
C8A C -0.9446(7) 0.7698(7) 0.5961(7)
C9A C -0.5137(8) 0.7645(8) -0.2424(7)
C10A C -0.5058(8) 0.6262(8) -0.1178(8)
C11A C -0.3786(9) 0.5631(9) -0.0653(8)
H5A H -0.2949 0.6060 -0.1105
C12A C -0.6257(9) 0.5601(9) -0.0507(9)
H6A H -0.7121 0.6011 -0.0859
C13A C -0.9736(17) -0.0284(15) 0.8334(14)
H7A H -0.9048 -0.1143 0.8743
C14A C -1.169(5) -0.134(5) 1.0239(18)
H8A H -1.1162 -0.1596 1.0940
H9A H -1.2806 -0.0984 1.0656
C15A C -1.136(6) -0.277(5) 0.986(3)
H10A H -1.0255 -0.3187 0.9569
H11A H -1.1848 -0.3480 1.0700
H12A H -1.1793 -0.2482 0.9095
C16A C -1.226(5) 0.069(5) 0.824(6)
H13A H -1.1849 0.0775 0.7234
H14A H -1.3183 0.0316 0.8677
C17A C -1.262(5) 0.214(4) 0.841(5)
H15A H -1.2424 0.2888 0.7472
H16A H -1.3704 0.2409 0.8934
H17A H -1.1972 0.2059 0.8922
loop_
_geom_bond_atom_site_label_1
_geom_bond_atom_site_label_2
_geom_bond_site_symmetry_1
_geom_bond_site_symmetry_2
La1 O1 1_555 1_555
O1 C1 1_555 1_555
O2 La1 1_555 1_555
O3 C8 1_555 1_555
O4 C8 1_555 1_555
O5 La1 1_555 1_555
O6 C9 1_555 1_555
O7 La1 1_555 1_555
N1 C13 1_555 1_555
C1 O2 1_555 1_555
C2 C1 1_555 1_555
C3 C2 1_555 1_555
H1 C3 1_555 1_555
C4 C3 1_555 1_555
H2 C4 1_555 1_555
C5 C4 1_555 1_555
C6 C5 1_555 1_555
H3 C6 1_555 1_555
C7 C2 1_555 1_555
H4 C7 1_555 1_555
C8 C5A 1_555 1_555
C9 O5 1_555 1_555
C10 C9 1_555 1_555
C11 C10 1_555 1_555
H5 C11 1_555 1_555
C12 C10 1_555 1_555
H6 C12 1_555 1_555
C13 O7 1_555 1_555
H7 C13 1_555 1_555
C14 N1 1_555 1_555
H8 C14 1_555 1_555
H9 C14 1_555 1_555
C15 C14 1_555 1_555
H10 C15 1_555 1_555
H11 C15 1_555 1_555
H12 C15 1_555 1_555
C16 N1 1_555 1_555
H13 C16 1_555 1_555
H14 C16 1_555 1_555
C17 C16 1_555 1_555
H15 C17 1_555 1_555
H16 C17 1_555 1_555
H17 C17 1_555 1_555
La1A O2 1_555 1_555
La1A_2 O3 1_555 1_555
La1_2 O4 1_555 1_555
La1_3 O3A_2 1_555 1_555
La1A_3 O4A_2 1_555 1_555
La1A_4 O5A_2 1_555 1_555
La1_4 O6A_2 1_555 1_555
O1A La1A 1_555 1_555
O2A La1 1_555 1_555
O3A La1 1_555 1_555
O3_2 La1A 1_555 1_555
O3A_2 C8A 1_555 1_555
O4_2 La1 1_555 1_555
O4A La1A 1_555 1_555
O4A_2 C8A 1_555 1_555
O5A La1A 1_555 1_555
O5A_2 C9A 1_555 1_555
O6A La1 1_555 1_555
O6A_2 C9A 1_555 1_555
O7A La1A 1_555 1_555
N1A C13A 1_555 1_555
C1A O1A 1_555 1_555
C2A C1A 1_555 1_555
C3A C2A 1_555 1_555
H1A C3A 1_555 1_555
C4A C3A 1_555 1_555
H2A C4A 1_555 1_555
C5A C4A 1_555 1_555
C6A C5A 1_555 1_555
H3A C6A 1_555 1_555
C7A C2A 1_555 1_555
H4A C7A 1_555 1_555
C8A C5 1_555 1_555
C9A C10A 1_555 1_555
C10A C11A 1_555 1_555
C11A C12 1_555 1_555
H5A C11A 1_555 1_555
C12A C11 1_555 1_555
H6A C12A 1_555 1_555
C13A O7A 1_555 1_555
H7A C13A 1_555 1_555
C14A N1A 1_555 1_555
H8A C14A 1_555 1_555
H9A C14A 1_555 1_555
C15A C14A 1_555 1_555
H10A C15A 1_555 1_555
H11A C15A 1_555 1_555
H12A C15A 1_555 1_555
C16A N1A 1_555 1_555
H13A C16A 1_555 1_555
H14A C16A 1_555 1_555
C17A C16A 1_555 1_555
H15A C17A 1_555 1_555
H16A C17A 1_555 1_555
H17A C17A 1_555 1_555
O6 La1A 1_555 1_555
C6 C7 1_555 1_555
La1A O2A 1_555 1_555
O2A C1A 1_555 1_555
C6A C7A 1_555 1_555
C10A C12A 1_555 1_555

#END
