
#######################################################################
#
#                 Cambridge Crystallographic Data Centre
#                                CCDC 
#
#######################################################################
#
# If this CIF has been generated from an entry in the Cambridge 
# Structural Database, then it will include bibliographic, chemical, 
# crystal, experimental, refinement or atomic coordinate data resulting 
# from the CCDC's data processing and validation procedures.
#
#######################################################################

data_QOCSAD
_symmetry_cell_setting           triclinic
_symmetry_space_group_name_H-M   'P -1'
_symmetry_Int_Tables_number      2
_space_group_name_Hall           '-P 1'
loop_
_symmetry_equiv_pos_site_id
_symmetry_equiv_pos_as_xyz
1 x,y,z
2 -x,-y,-z
_cell_length_a                   9.8555(18)
_cell_length_b                   10.705(2)
_cell_length_c                   11.106(2)
_cell_angle_alpha                62.947(2)
_cell_angle_beta                 65.653(2)
_cell_angle_gamma                66.647(2)
_cell_volume                     918.663
loop_
_atom_site_label
_atom_site_type_symbol
_atom_site_fract_x
_atom_site_fract_y
_atom_site_fract_z
Ce1 Ce 0.21699(3) -0.50930(3) 0.48966(3)
O1 O 0.5782(5) -1.3060(4) 0.4143(5)
O2 O 0.4123(6) -0.5581(5) 0.2763(5)
O3 O 0.3866(4) -1.3565(4) 0.4067(5)
O4 O 0.0704(4) -0.3401(4) 0.6265(5)
O5 O -0.0967(4) -0.3771(4) 0.5709(4)
O6 O 0.1247(5) -0.3081(4) 0.2929(4)
O7 O -0.0925(5) -0.3252(4) 0.2907(4)
N1 N 0.6110(10) -0.4793(14) 0.1035(8)
C1 C 0.0141(6) -0.2646(5) 0.2436(6)
C2 C -0.1210(6) -0.0727(6) 0.6475(6)
H1 H -0.0253 -0.1063 0.6678
C3 C -0.2132(6) 0.0662(5) 0.6433(6)
H2 H -0.1793 0.1273 0.6596
C4 C -0.3539(6) 0.1160(5) 0.6154(6)
C5 C -0.1680(6) -0.1619(5) 0.6224(6)
C6 C 0.0069(6) -0.1263(6) 0.1178(6)
C7 C 0.1271(7) -0.0610(6) 0.0504(6)
H3 H 0.2149 -0.1032 0.0846
C8 C -0.1215(7) -0.0652(6) 0.0664(6)
H4 H -0.2043 -0.1099 0.1114
C9 C -0.3136(7) -0.1162(6) 0.6041(8)
H5 H -0.3506 -0.1799 0.5945
C10 C -0.4053(8) 0.0230(6) 0.5997(8)
H6 H -0.5041 0.0542 0.5859
C11 C -0.0596(6) -0.3023(5) 0.6082(5)
C12 C 0.4738(14) -0.4722(11) 0.1705(11)
H7 H 0.4045 -0.3839 0.1323
C13 C 0.4453(5) -1.2709(5) 0.4047(5)
C14 C 0.6461(5) -0.3530(5) -0.0209(5)
H8 H 0.5843 -0.3291 -0.0833
H9 H 0.7562 -0.3789 -0.0732
C15 C 0.7168(5) -0.5601(5) 0.1774(5)
H10 H 0.6765 -0.5456 0.2691
H11 H 0.8127 -0.5274 0.1243
C16 C 0.6104(5) -0.2004(5) 0.0156(5)
H12 H 0.5146 -0.1921 0.0920
H13 H 0.6003 -0.1141 -0.0689
H14 H 0.6960 -0.2086 0.0445
C17 C 0.7526(5) -0.7215(5) 0.2029(5)
H15 H 0.6934 -0.7697 0.2983
H16 H 0.8630 -0.7660 0.1930
H17 H 0.7243 -0.7322 0.1338
Ce1A Ce -0.21699(3) -0.49070(3) 0.51034(3)
Ce1A_2 Ce 0.78301(3) -1.49070(3) 0.51034(3)
Ce1_2 Ce 0.21699(3) -1.50930(3) 0.48966(3)
Ce1A_3 Ce -0.21699(3) 0.50930(3) -0.48966(3)
Ce1_3 Ce 0.21699(3) 0.49070(3) -0.51034(3)
Ce1_4 Ce -0.78301(3) 0.49070(3) 0.48966(3)
Ce1A_4 Ce -0.21699(3) 0.50930(3) 0.51034(3)
O1_2 O -0.4218(5) -0.3060(4) 0.4143(5)
O1A O 0.4218(5) -0.6940(4) 0.5857(5)
O1A_2 O -0.5782(5) 0.3060(4) 0.5857(5)
O2A O -0.4123(6) -0.4419(5) 0.7237(5)
O3A O -0.3866(4) -0.6435(4) 0.5933(5)
O3_2 O 0.3866(4) -0.3565(4) 0.4067(5)
O3A_2 O -0.3866(4) 0.3565(4) 0.5933(5)
O4A O -0.0704(4) -0.6599(4) 0.3735(5)
O5A O 0.0967(4) -0.6229(4) 0.4291(4)
O6A O -0.1247(5) -0.6919(4) 0.7071(4)
O6A_2 O -0.1247(5) 0.3081(4) -0.2929(4)
O7A O 0.0925(5) -0.6748(4) 0.7093(4)
O7A_2 O 0.0925(5) 0.3252(4) -0.2907(4)
N1A N -0.6110(10) -0.5207(14) 0.8965(8)
C1A C -0.0141(6) 0.2646(5) -0.2436(6)
C2A C 0.1210(6) -0.9273(6) 0.3525(6)
H1A H 0.0253 -0.8937 0.3322
C3A C 0.2132(6) -1.0662(5) 0.3567(6)
H2A H 0.1793 -1.1273 0.3404
C4A C 0.3539(6) -1.1160(5) 0.3846(6)
C5A C 0.1680(6) -0.8381(5) 0.3776(6)
C6A C -0.0069(6) 0.1263(6) -0.1178(6)
C7A C -0.1271(7) 0.0610(6) -0.0504(6)
H3A H -0.2149 0.1032 -0.0846
C8A C 0.1215(7) 0.0652(6) -0.0664(6)
H4A H 0.2043 0.1099 -0.1114
C9A C 0.3136(7) -0.8838(6) 0.3959(8)
H5A H 0.3506 -0.8201 0.4055
C10A C 0.4053(8) -1.0230(6) 0.4003(8)
H6A H 0.5041 -1.0542 0.4141
C11A C 0.0596(6) -0.6977(5) 0.3918(5)
C12A C -0.4738(14) -0.5278(11) 0.8295(11)
H7A H -0.4045 -0.6161 0.8677
C13A C -0.4453(5) 0.2709(5) 0.5953(5)
C14A C -0.6461(5) -0.6470(5) 1.0209(5)
H8A H -0.5843 -0.6709 1.0833
H9A H -0.7562 -0.6211 1.0732
C15A C -0.7168(5) -0.4399(5) 0.8226(5)
H10A H -0.6765 -0.4544 0.7309
H11A H -0.8127 -0.4726 0.8757
C16A C -0.6104(5) -0.7996(5) 0.9844(5)
H12A H -0.5146 -0.8079 0.9080
H13A H -0.6003 -0.8859 1.0689
H14A H -0.6960 -0.7914 0.9555
C17A C -0.7526(5) -0.2785(5) 0.7971(5)
H15A H -0.6934 -0.2303 0.7017
H16A H -0.8630 -0.2340 0.8070
H17A H -0.7243 -0.2678 0.8662
loop_
_geom_bond_atom_site_label_1
_geom_bond_atom_site_label_2
_geom_bond_site_symmetry_1
_geom_bond_site_symmetry_2
Ce1 O2 1_555 1_555
O1 C13 1_555 1_555
O2 C12 1_555 1_555
O3 C13 1_555 1_555
O4 Ce1 1_555 1_555
O5 Ce1 1_555 1_555
O6 Ce1 1_555 1_555
O7 C1 1_555 1_555
N1 C12 1_555 1_555
C1 O6 1_555 1_555
C2 H1 1_555 1_555
C3 C2 1_555 1_555
H2 C3 1_555 1_555
C4 C3 1_555 1_555
C5 C2 1_555 1_555
C6 C1 1_555 1_555
C7 C6 1_555 1_555
H3 C7 1_555 1_555
C8 C6 1_555 1_555
H4 C8 1_555 1_555
C9 C5 1_555 1_555
H5 C9 1_555 1_555
C10 C4 1_555 1_555
H6 C10 1_555 1_555
C11 O4 1_555 1_555
C12 H7 1_555 1_555
C13 C4A 1_555 1_555
C14 N1 1_555 1_555
H8 C14 1_555 1_555
H9 C14 1_555 1_555
C15 N1 1_555 1_555
H10 C15 1_555 1_555
H11 C15 1_555 1_555
C16 C14 1_555 1_555
H12 C16 1_555 1_555
H13 C16 1_555 1_555
H14 C16 1_555 1_555
C17 C15 1_555 1_555
H15 C17 1_555 1_555
H16 C17 1_555 1_555
H17 C17 1_555 1_555
Ce1A O5 1_555 1_555
Ce1A_2 O1 1_555 1_555
Ce1_2 O3 1_555 1_555
Ce1A_3 O6A_2 1_555 1_555
Ce1_3 O7A_2 1_555 1_555
Ce1_4 O1A_2 1_555 1_555
Ce1A_4 O3A_2 1_555 1_555
O1_2 Ce1A 1_555 1_555
O1A Ce1 1_555 1_555
O1A_2 C13A 1_555 1_555
O2A Ce1A 1_555 1_555
O3A Ce1A 1_555 1_555
O3_2 Ce1 1_555 1_555
O3A_2 C13A 1_555 1_555
O4A Ce1A 1_555 1_555
O5A Ce1 1_555 1_555
O6A Ce1A 1_555 1_555
O6A_2 C1A 1_555 1_555
O7A Ce1 1_555 1_555
O7A_2 C1A 1_555 1_555
N1A C12A 1_555 1_555
C1A C6A 1_555 1_555
C2A H1A 1_555 1_555
C3A C2A 1_555 1_555
H2A C3A 1_555 1_555
C4A C3A 1_555 1_555
C5A C2A 1_555 1_555
C6A C7A 1_555 1_555
C7A C8 1_555 1_555
H3A C7A 1_555 1_555
C8A C7 1_555 1_555
H4A C8A 1_555 1_555
C9A C5A 1_555 1_555
H5A C9A 1_555 1_555
C10A C4A 1_555 1_555
H6A C10A 1_555 1_555
C11A O4A 1_555 1_555
C12A O2A 1_555 1_555
H7A C12A 1_555 1_555
C13A C4 1_555 1_555
C14A N1A 1_555 1_555
H8A C14A 1_555 1_555
H9A C14A 1_555 1_555
C15A N1A 1_555 1_555
H10A C15A 1_555 1_555
H11A C15A 1_555 1_555
C16A C14A 1_555 1_555
H12A C16A 1_555 1_555
H13A C16A 1_555 1_555
H14A C16A 1_555 1_555
C17A C15A 1_555 1_555
H15A C17A 1_555 1_555
H16A C17A 1_555 1_555
H17A C17A 1_555 1_555
O5 C11 1_555 1_555
O7 Ce1A 1_555 1_555
C5 C11 1_555 1_555
C9 C10 1_555 1_555
Ce1A O5A 1_555 1_555
O5A C11A 1_555 1_555
C5A C11A 1_555 1_555
C6A C8A 1_555 1_555
C9A C10A 1_555 1_555

#END
