
#######################################################################
#
#                 Cambridge Crystallographic Data Centre
#                                CCDC 
#
#######################################################################
#
# If this CIF has been generated from an entry in the Cambridge 
# Structural Database, then it will include bibliographic, chemical, 
# crystal, experimental, refinement or atomic coordinate data resulting 
# from the CCDC's data processing and validation procedures.
#
#######################################################################

data_QOCXUD
_symmetry_cell_setting           monoclinic
_symmetry_space_group_name_H-M   'P 21/c'
_symmetry_Int_Tables_number      14
_space_group_name_Hall           '-P 2ybc'
loop_
_symmetry_equiv_pos_site_id
_symmetry_equiv_pos_as_xyz
1 x,y,z
2 -x,1/2+y,1/2-z
3 -x,-y,-z
4 x,1/2-y,1/2+z
_cell_length_a                   15.355(5)
_cell_length_b                   6.908(2)
_cell_length_c                   32.838(11)
_cell_angle_alpha                90
_cell_angle_beta                 99.157(5)
_cell_angle_gamma                90
_cell_volume                     3438.81
loop_
_atom_site_label
_atom_site_type_symbol
_atom_site_fract_x
_atom_site_fract_y
_atom_site_fract_z
Er1 Er 0.012199(16) -0.12358(3) 0.238567(7)
O1 O -0.0749(2) 0.1518(5) 0.21143(11)
O2 O -0.1227(2) -0.1240(5) 0.18550(11)
O3 O 0.0928(2) 0.1838(5) 0.23571(11)
O4 O 0.1703(2) -0.0786(5) 0.24990(13)
O5 O 0.0578(2) -0.1830(4) 0.17387(12)
O6 O 0.0127(2) -0.4403(5) 0.20500(11)
N1 N -0.4225(4) 0.4369(8) 0.0913(2)
N2 N -0.4957(6) 0.7158(12) 0.0793(4)
N3 N 0.5336(4) 0.8294(7) 0.3154(2)
N4 N 0.4724(3) 0.5602(7) 0.29510(17)
N5 N 0.1332(4) -1.0950(7) 0.01102(17)
N6 N 0.1078(3) -0.8300(6) 0.04020(14)
C1 C -0.1317(4) 0.0524(8) 0.18636(16)
C2 C -0.2055(4) 0.1522(8) 0.15986(17)
C3 C -0.2805(4) 0.0451(9) 0.14339(19)
H1 H -0.2826 -0.0876 0.1478
C4 C -0.3521(4) 0.1403(9) 0.1202(2)
H2 H -0.4024 0.0707 0.1096
C5 C -0.3486(4) 0.3345(9) 0.1132(2)
C6 C -0.2742(4) 0.4453(9) 0.1303(2)
H3 H -0.2730 0.5785 0.1262
C7 C -0.2043(4) 0.3523(8) 0.15290(18)
H4 H -0.1546 0.4233 0.1639
C8 C -0.4276(5) 0.6191(10) 0.0956(3)
H5 H -0.3805 0.6845 0.1110
C9 C -0.5312(3) 0.2218(8) 0.04683(17)
H6 H -0.5049 0.1010 0.0519
C10 C -0.4916(4) 0.3852(9) 0.0664(2)
C11 C -0.5308(5) 0.5656(8) 0.0587(2)
C12 C -0.6096(5) 0.5827(10) 0.0316(3)
H7 H -0.6359 0.7034 0.0265
C13 C -0.6492(5) 0.4193(12) 0.0120(3)
H8 H -0.7020 0.4307 -0.0062
C14 C -0.6100(4) 0.2388(10) 0.0196(2)
H9 H -0.6365 0.1295 0.0066
C15 C 0.1686(3) 0.0992(7) 0.24638(16)
C16 C 0.2504(4) 0.2149(8) 0.25458(18)
C17 C 0.2509(4) 0.4101(7) 0.24479(18)
H10 H 0.2009 0.4659 0.2296
C18 C 0.3256(3) 0.5242(8) 0.25739(18)
H11 H 0.3257 0.6555 0.2512
C19 C 0.3991(4) 0.4362(8) 0.2793(2)
C20 C 0.4016(4) 0.2443(9) 0.2893(2)
H12 H 0.4519 0.1899 0.3045
C21 C 0.3253(4) 0.1285(9) 0.2759(2)
H13 H 0.3260 -0.0036 0.2814
C22 C 0.4623(4) 0.7524(7) 0.2979(2)
H14 H 0.4106 0.8196 0.2883
C23 C 0.5942(4) 0.6917(8) 0.3276(2)
C24 C 0.6805(5) 0.7076(11) 0.3465(3)
H15 H 0.7055 0.8273 0.3543
C25 C 0.7277(6) 0.5419(13) 0.3532(3)
H16 H 0.7848 0.5467 0.3678
C26 C 0.6904(5) 0.3534(11) 0.3379(3)
H17 H 0.7263 0.2442 0.3406
C27 C 0.6054(4) 0.3361(9) 0.3199(3)
H18 H 0.5803 0.2170 0.3118
C28 C 0.5560(4) 0.5148(9) 0.3142(2)
C29 C 0.0444(3) -0.3615(8) 0.17431(15)
C30 C 0.0649(3) -0.4853(7) 0.13944(16)
C31 C 0.1034(4) -0.4112(8) 0.10922(16)
H19 H 0.1188 -0.2808 0.1104
C32 C 0.1213(4) -0.5203(8) 0.07642(17)
H20 H 0.1519 -0.4691 0.0566
C33 C 0.0912(4) -0.7117(8) 0.07426(17)
C34 C 0.0517(4) -0.7884(8) 0.10478(17)
H21 H 0.0325 -0.9162 0.1027
C35 C 0.0395(4) -0.6817(8) 0.13861(18)
H22 H 0.0155 -0.7367 0.1602
C36 C 0.1192(4) -1.0222(7) 0.04487(17)
H23 H 0.1171 -1.0909 0.0691
C37 C 0.1319(5) -0.9562(9) -0.01801(19)
C38 C 0.1433(5) -0.9694(10) -0.0585(2)
H24 H 0.1564 -1.0859 -0.0704
C39 C 0.1339(4) -0.7978(11) -0.08046(19)
H25 H 0.1394 -0.8009 -0.1083
C40 C 0.1165(4) -0.6176(10) -0.06284(19)
H26 H 0.1135 -0.5062 -0.0789
C41 C 0.1041(4) -0.6046(9) -0.02245(17)
H27 H 0.0895 -0.4889 -0.0107
C42 C 0.1153(4) -0.7830(9) 0.00044(18)
Er1A Er -0.012199(16) -0.62358(3) 0.261433(7)
Er1A_2 Er -0.012199(16) 0.37642(3) 0.261433(7)
O1A O 0.0749(2) -0.3482(5) 0.28857(11)
O3A O -0.0928(2) -0.3162(5) 0.26429(11)
O6A O -0.0127(2) 0.0597(5) 0.29500(11)
loop_
_geom_bond_atom_site_label_1
_geom_bond_atom_site_label_2
_geom_bond_site_symmetry_1
_geom_bond_site_symmetry_2
Er1 O1 1_555 1_555
O1 C1 1_555 1_555
O2 Er1 1_555 1_555
O3 Er1 1_555 1_555
O4 Er1 1_555 1_555
O5 Er1 1_555 1_555
O6 Er1 1_555 1_555
N1 C5 1_555 1_555
N2 C8 1_555 1_555
N3 C22 1_555 1_555
N4 C19 1_555 1_555
N5 C36 1_555 1_555
N6 C33 1_555 1_555
C1 O2 1_555 1_555
C2 C1 1_555 1_555
C3 C2 1_555 1_555
H1 C3 1_555 1_555
C4 C3 1_555 1_555
H2 C4 1_555 1_555
C5 C4 1_555 1_555
C6 C5 1_555 1_555
H3 C6 1_555 1_555
C7 C2 1_555 1_555
H4 C7 1_555 1_555
C8 N1 1_555 1_555
H5 C8 1_555 1_555
C9 H6 1_555 1_555
C10 N1 1_555 1_555
C11 N2 1_555 1_555
C12 C11 1_555 1_555
H7 C12 1_555 1_555
C13 C12 1_555 1_555
H8 C13 1_555 1_555
C14 C9 1_555 1_555
H9 C14 1_555 1_555
C15 O3 1_555 1_555
C16 C15 1_555 1_555
C17 C16 1_555 1_555
H10 C17 1_555 1_555
C18 C17 1_555 1_555
H11 C18 1_555 1_555
C19 C18 1_555 1_555
C20 C19 1_555 1_555
H12 C20 1_555 1_555
C21 C16 1_555 1_555
H13 C21 1_555 1_555
C22 N4 1_555 1_555
H14 C22 1_555 1_555
C23 N3 1_555 1_555
C24 C23 1_555 1_555
H15 C24 1_555 1_555
C25 C24 1_555 1_555
H16 C25 1_555 1_555
C26 C25 1_555 1_555
H17 C26 1_555 1_555
C27 C26 1_555 1_555
H18 C27 1_555 1_555
C28 N4 1_555 1_555
C29 O5 1_555 1_555
C30 C29 1_555 1_555
C31 C30 1_555 1_555
H19 C31 1_555 1_555
C32 C31 1_555 1_555
H20 C32 1_555 1_555
C33 C32 1_555 1_555
C34 C33 1_555 1_555
H21 C34 1_555 1_555
C35 C30 1_555 1_555
H22 C35 1_555 1_555
C36 N6 1_555 1_555
H23 C36 1_555 1_555
C37 N5 1_555 1_555
C38 C37 1_555 1_555
H24 C38 1_555 1_555
C39 C38 1_555 1_555
H25 C39 1_555 1_555
C40 C39 1_555 1_555
H26 C40 1_555 1_555
C41 C40 1_555 1_555
H27 C41 1_555 1_555
C42 N6 1_555 1_555
Er1A O6 1_555 1_555
Er1A_2 O1 1_555 1_555
O1A Er1 1_555 1_555
O3A Er1 1_555 1_555
O6A Er1 1_555 1_555
O3 Er1A_2 1_555 1_555
O4 C15 1_555 1_555
O6 C29 1_555 1_555
C6 C7 1_555 1_555
C9 C10 1_555 1_555
C10 C11 1_555 1_555
C13 C14 1_555 1_555
C20 C21 1_555 1_555
C23 C28 1_555 1_555
C27 C28 1_555 1_555
C34 C35 1_555 1_555
C37 C42 1_555 1_555
C41 C42 1_555 1_555
Er1A O1A 1_555 1_555
Er1A O3A 1_555 1_555
Er1A_2 O6A 1_555 1_555

#END
