
#######################################################################
#
#                 Cambridge Crystallographic Data Centre
#                                CCDC 
#
#######################################################################
#
# If this CIF has been generated from an entry in the Cambridge 
# Structural Database, then it will include bibliographic, chemical, 
# crystal, experimental, refinement or atomic coordinate data resulting 
# from the CCDC's data processing and validation procedures.
#
#######################################################################

data_QOCYUC
_symmetry_cell_setting           orthorhombic
_symmetry_space_group_name_H-M   'F d d 2'
_symmetry_Int_Tables_number      43
_space_group_name_Hall           'F 2 -2d'
loop_
_symmetry_equiv_pos_site_id
_symmetry_equiv_pos_as_xyz
1 x,y,z
2 -x,-y,z
3 1/4+x,1/4-y,1/4+z
4 1/4-x,1/4+y,1/4+z
5 x,1/2+y,1/2+z
6 -x,1/2-y,1/2+z
7 1/4+x,3/4-y,3/4+z
8 1/4-x,3/4+y,3/4+z
9 1/2+x,y,1/2+z
10 1/2-x,-y,1/2+z
11 3/4+x,1/4-y,3/4+z
12 3/4-x,1/4+y,3/4+z
13 1/2+x,1/2+y,z
14 1/2-x,1/2-y,z
15 3/4+x,3/4-y,1/4+z
16 3/4-x,3/4+y,1/4+z
_cell_length_a                   29.679(6)
_cell_length_b                   31.409(6)
_cell_length_c                   7.3660(15)
_cell_angle_alpha                90
_cell_angle_beta                 90
_cell_angle_gamma                90
_cell_volume                     6866.49
loop_
_atom_site_label
_atom_site_type_symbol
_atom_site_fract_x
_atom_site_fract_y
_atom_site_fract_z
Ru1 Ru 0.140379(10) 0.052345(10) 0.15536(5)
Ru2 Ru 0.090904(11) 0.012053(10) 0.31718(4)
O1 O 0.19167(10) 0.02875(10) 0.3035(5)
O2 O 0.09755(10) -0.03458(9) 0.1292(4)
O3 O 0.03961(10) 0.03614(10) 0.1690(5)
O4 O 0.08830(10) 0.07586(11) 0.0091(4)
O5 O 0.14676(11) 0.00489(10) -0.0289(5)
O6 O 0.14338(10) -0.01158(10) 0.4631(5)
C1 C 0.10674(13) 0.09405(13) 0.4737(7)
O7 O 0.13351(10) 0.09934(10) 0.3412(4)
O8 O 0.08415(10) 0.05994(10) 0.4995(5)
N1 N 0.20524(12) 0.21540(12) -0.2848(5)
N2 N 0.18761(13) 0.09175(12) -0.0166(6)
C2 C 0.04839(15) 0.06197(15) 0.0424(7)
C3 C 0.10128(17) 0.12911(15) 0.6097(6)
H1 H 0.1198 0.1528 0.5754
H2 H 0.1102 0.1191 0.7274
H3 H 0.0703 0.1379 0.6133
C4 C 0.18328(15) 0.00240(15) 0.4295(6)
C5 C 0.20345(14) 0.11154(13) -0.1307(6)
C6 C 0.22108(17) -0.01310(17) 0.5462(8)
H4 H 0.2488 -0.0003 0.5068
H5 H 0.2233 -0.0435 0.5364
H6 H 0.2154 -0.0054 0.6702
C7 C 0.12506(16) -0.06236(14) -0.1488(6)
H7 H 0.1455 -0.0538 -0.2431
H8 H 0.0956 -0.0665 -0.1993
H9 H 0.1354 -0.0885 -0.0955
C8 C 0.01053(16) 0.07613(18) -0.0765(8)
H10 H -0.0170 0.0633 -0.0357
H11 H 0.0164 0.0676 -0.1994
H12 H 0.0079 0.1066 -0.0708
C9 C 0.22346(15) 0.13562(14) -0.2712(6)
C10 C 0.12317(14) -0.02902(15) -0.0086(6)
C11 C 0.21384(14) 0.17944(15) -0.2811(6)
C12 C 0.25137(16) 0.11538(14) -0.3998(7)
N3 N 0.27440(17) 0.09851(16) -0.5038(8)
N1G N 0.04476(12) -0.03460(12) 0.4652(5)
Ru2C Ru 0.159096(11) 0.262053(10) -0.43282(4)
loop_
_geom_bond_atom_site_label_1
_geom_bond_atom_site_label_2
_geom_bond_site_symmetry_1
_geom_bond_site_symmetry_2
Ru1 Ru2 1_555 1_555
Ru2 O2 1_555 1_555
O1 Ru1 1_555 1_555
O2 C10 1_555 1_555
O3 Ru2 1_555 1_555
O4 Ru1 1_555 1_555
O5 Ru1 1_555 1_555
O6 Ru2 1_555 1_555
C1 O7 1_555 1_555
O7 Ru1 1_555 1_555
O8 Ru2 1_555 1_555
N1 C11 1_555 1_555
N2 Ru1 1_555 1_555
C2 O3 1_555 1_555
C3 C1 1_555 1_555
H1 C3 1_555 1_555
H2 C3 1_555 1_555
H3 C3 1_555 1_555
C4 O1 1_555 1_555
C5 N2 1_555 1_555
C6 C4 1_555 1_555
H4 C6 1_555 1_555
H5 C6 1_555 1_555
H6 C6 1_555 1_555
C7 H7 1_555 1_555
H8 C7 1_555 1_555
H9 C7 1_555 1_555
C8 C2 1_555 1_555
H10 C8 1_555 1_555
H11 C8 1_555 1_555
H12 C8 1_555 1_555
C9 C5 1_555 1_555
C10 O5 1_555 1_555
C11 C9 1_555 1_555
C12 C9 1_555 1_555
N3 C12 1_555 1_555
N1G Ru2 1_555 1_555
Ru2C N1 1_555 1_555
O4 C2 1_555 1_555
O6 C4 1_555 1_555
C1 O8 1_555 1_555
C7 C10 1_555 1_555

#END
