
#######################################################################
#
#                 Cambridge Crystallographic Data Centre
#                                CCDC 
#
#######################################################################
#
# If this CIF has been generated from an entry in the Cambridge 
# Structural Database, then it will include bibliographic, chemical, 
# crystal, experimental, refinement or atomic coordinate data resulting 
# from the CCDC's data processing and validation procedures.
#
#######################################################################

data_QODVEM
_symmetry_cell_setting           monoclinic
_symmetry_space_group_name_H-M   'C 2/c'
_symmetry_Int_Tables_number      15
_space_group_name_Hall           '-C 2yn'
loop_
_symmetry_equiv_pos_site_id
_symmetry_equiv_pos_as_xyz
1 x,y,z
2 -x,y,1/2-z
3 1/2+x,1/2+y,z
4 1/2-x,1/2+y,1/2-z
5 -x,-y,-z
6 x,-y,1/2+z
7 1/2-x,1/2-y,-z
8 1/2+x,1/2-y,1/2+z
_cell_length_a                   17.334(2)
_cell_length_b                   9.2474(10)
_cell_length_c                   20.562(2)
_cell_angle_alpha                90
_cell_angle_beta                 108.815(4)
_cell_angle_gamma                90
_cell_volume                     3119.85
loop_
_atom_site_label
_atom_site_type_symbol
_atom_site_fract_x
_atom_site_fract_y
_atom_site_fract_z
Ni1 Ni 0.2500 1.2500 0.5000
O1 O 0.22124(10) 1.38359(17) 0.41292(8)
O2 O 0.36015(10) 1.20160(19) 0.48606(9)
O3 O 0.37654(11) 0.9835(2) 0.53489(10)
N1 N 0.19493(12) 1.0780(2) 0.43412(10)
O4 O 0.02954(11) 0.35744(19) 0.18614(9)
C1 C 0.06726(14) 0.4602(2) 0.23894(13)
H1 H 0.1053 0.5200 0.2252
H2 H 0.0969 0.4105 0.2812
C2 C 0.39741(14) 1.0831(3) 0.50311(12)
C3 C 0.0000 0.5538(3) 0.2500
C4 C 0.12471(15) 0.8510(2) 0.34555(12)
C5 C 0.16171(19) 0.2568(3) 0.19616(17)
H3 H 0.1901 0.3272 0.2269
O5 O 0.09228(13) 0.74585(16) 0.29870(10)
C6 C 0.03667(15) 0.6473(2) 0.31360(12)
H4 H -0.0059 0.7000 0.3245
H5 H 0.0651 0.5872 0.3527
C7 C 0.07754(17) 0.2579(2) 0.17089(15)
C8 C 0.15996(16) 0.9654(3) 0.45384(12)
H6 H 0.1594 0.9645 0.4989
N2 N 0.16648(16) 0.0432(3) 0.13199(14)
C9 C 0.12443(16) 0.8497(3) 0.41246(13)
H7 H 0.1012 0.7736 0.4292
C10 C 0.47314(16) 1.0617(3) 0.48242(15)
H8 H 0.4564 1.0459 0.4332
H9 H 0.5050 1.1501 0.4922
C11 C 0.20242(18) 0.1491(3) 0.17466(17)
H10 H 0.2591 0.1504 0.1911
C12 C 0.16095(19) 0.9658(3) 0.32368(13)
H11 H 0.1623 0.9691 0.2788
C13 C 0.0855(2) 0.0453(4) 0.10896(18)
H12 H 0.0587 -0.0283 0.0794
C14 C 0.19482(18) 1.0742(3) 0.36886(14)
H13 H 0.2194 1.1504 0.3534
C15 C 0.03878(18) 0.1492(3) 0.12606(17)
H14 H -0.0178 0.1465 0.1079
O2D O 0.63985(10) 0.79840(19) 0.51394(9)
O3D O 0.62346(11) 1.0165(2) 0.46511(10)
C2D C 0.60259(14) 0.9169(3) 0.49689(12)
C10D C 0.52686(16) 0.9383(3) 0.51758(15)
H8D H 0.5436 0.9541 0.5668
H9D H 0.4950 0.8499 0.5078
N1A N -0.19493(12) 1.0780(2) 0.06588(10)
O4A O -0.02954(11) 0.35744(19) 0.31386(9)
C1A C -0.06726(14) 0.4602(2) 0.26106(13)
H1A H -0.1053 0.5200 0.2748
H2A H -0.0969 0.4105 0.2188
C4A C -0.12471(15) 0.8510(2) 0.15445(12)
C5A C -0.16171(19) 0.2568(3) 0.30384(17)
H3A H -0.1901 0.3272 0.2731
O5A O -0.09228(13) 0.74585(16) 0.20130(10)
C6A C -0.03667(15) 0.6473(2) 0.18640(12)
H4A H 0.0059 0.7000 0.1755
H5A H -0.0651 0.5872 0.1473
C7A C -0.07754(17) 0.2579(2) 0.32911(15)
C8A C -0.15996(16) 0.9654(3) 0.04616(12)
H6A H -0.1594 0.9645 0.0011
N2A N -0.16648(16) 0.0432(3) 0.36801(14)
C9A C -0.12443(16) 0.8497(3) 0.08754(13)
H7A H -0.1012 0.7736 0.0708
C11A C -0.20242(18) 0.1491(3) 0.32534(17)
H10A H -0.2591 0.1504 0.3089
C12A C -0.16095(19) 0.9658(3) 0.17632(13)
H11A H -0.1623 0.9691 0.2212
C13A C -0.0855(2) 0.0453(4) 0.39104(18)
H12A H -0.0587 -0.0283 0.4206
C14A C -0.19482(18) 1.0742(3) 0.13114(14)
H13A H -0.2194 1.1504 0.1466
C15A C -0.03878(18) 0.1492(3) 0.37394(17)
H14A H 0.0178 0.1465 0.3921
O1F O 0.27876(10) 1.11641(17) 0.58708(8)
Ni1A Ni -0.2500 1.2500 0.0000
Ni1B Ni 0.7500 0.7500 0.5000
O2F O 0.13985(10) 1.29840(19) 0.51394(9)
N1F N 0.30507(12) 1.4220(2) 0.56588(10)
O6 O 0.3484(18) 0.252(3) 0.3406(19)
H15 H 0.3498 0.3396 0.3541
H16 H 0.3406 0.1966 0.3708
loop_
_geom_bond_atom_site_label_1
_geom_bond_atom_site_label_2
_geom_bond_site_symmetry_1
_geom_bond_site_symmetry_2
Ni1 O1 1_555 1_555
O2 Ni1 1_555 1_555
O3 C2 1_555 1_555
N1 Ni1 1_555 1_555
O4 C1 1_555 1_555
C1 H1 1_555 1_555
H2 C1 1_555 1_555
C2 O2 1_555 1_555
C3 C1 1_555 1_555
C4 O5 1_555 1_555
C5 H3 1_555 1_555
O5 C6 1_555 1_555
C6 C3 1_555 1_555
H4 C6 1_555 1_555
H5 C6 1_555 1_555
C7 O4 1_555 1_555
C8 N1 1_555 1_555
H6 C8 1_555 1_555
N2 C11 1_555 1_555
C9 C4 1_555 1_555
H7 C9 1_555 1_555
C10 C2 1_555 1_555
H8 C10 1_555 1_555
H9 C10 1_555 1_555
C11 C5 1_555 1_555
H10 C11 1_555 1_555
C12 C4 1_555 1_555
H11 C12 1_555 1_555
C13 N2 1_555 1_555
H12 C13 1_555 1_555
C14 N1 1_555 1_555
H13 C14 1_555 1_555
C15 C7 1_555 1_555
H14 C15 1_555 1_555
O6 H15 1_555 1_555
H16 O6 1_555 1_555
O2D C2D 1_555 1_555
O3D C2D 1_555 1_555
C2D C10D 1_555 1_555
C10D C10 1_555 1_555
H8D C10D 1_555 1_555
H9D C10D 1_555 1_555
N1A C8A 1_555 1_555
O4A C1A 1_555 1_555
C1A C3 1_555 1_555
H1A C1A 1_555 1_555
H2A C1A 1_555 1_555
C4A O5A 1_555 1_555
C5A H3A 1_555 1_555
O5A C6A 1_555 1_555
C6A C3 1_555 1_555
H4A C6A 1_555 1_555
H5A C6A 1_555 1_555
C7A O4A 1_555 1_555
C8A H6A 1_555 1_555
N2A C11A 1_555 1_555
C9A C4A 1_555 1_555
H7A C9A 1_555 1_555
C11A C5A 1_555 1_555
H10A C11A 1_555 1_555
C12A C4A 1_555 1_555
H11A C12A 1_555 1_555
C13A N2A 1_555 1_555
H12A C13A 1_555 1_555
C14A N1A 1_555 1_555
H13A C14A 1_555 1_555
C15A C7A 1_555 1_555
H14A C15A 1_555 1_555
O1F Ni1 1_555 1_555
Ni1A N1A 1_555 1_555
Ni1B O2D 1_555 1_555
O2F Ni1 1_555 1_555
N1F Ni1 1_555 1_555
C5 C7 1_555 1_555
C8 C9 1_555 1_555
C12 C14 1_555 1_555
C13 C15 1_555 1_555
C5A C7A 1_555 1_555
C8A C9A 1_555 1_555
C12A C14A 1_555 1_555
C13A C15A 1_555 1_555

#END
