
#######################################################################
#
#                 Cambridge Crystallographic Data Centre
#                                CCDC 
#
#######################################################################
#
# If this CIF has been generated from an entry in the Cambridge 
# Structural Database, then it will include bibliographic, chemical, 
# crystal, experimental, refinement or atomic coordinate data resulting 
# from the CCDC's data processing and validation procedures.
#
#######################################################################

data_QODWOX
_symmetry_cell_setting           triclinic
_symmetry_space_group_name_H-M   'P -1'
_symmetry_Int_Tables_number      2
_space_group_name_Hall           '-P 1'
loop_
_symmetry_equiv_pos_site_id
_symmetry_equiv_pos_as_xyz
1 x,y,z
2 -x,-y,-z
_cell_length_a                   10.2781(6)
_cell_length_b                   10.3418(10)
_cell_length_c                   18.3125(18)
_cell_angle_alpha                75.802(8)
_cell_angle_beta                 83.825(7)
_cell_angle_gamma                70.158(7)
_cell_volume                     1774.39
loop_
_atom_site_label
_atom_site_type_symbol
_atom_site_fract_x
_atom_site_fract_y
_atom_site_fract_z
Cu1 Cu 0.32604(9) 0.53097(10) 0.01478(6)
N1 N 0.2977(6) 0.4183(7) -0.0536(4)
N2 N 0.1916(6) 0.4440(7) 0.0786(4)
O1 O 0.3294(6) 0.6391(8) 0.0861(4)
O2 O 0.5514(5) 0.3814(6) 0.0543(3)
C1 C 0.3599(8) 0.4111(9) -0.1219(5)
C2 C 0.2018(7) 0.3531(8) -0.0301(4)
C3 C 0.1402(7) 0.3709(8) 0.0455(5)
C4 C 0.1472(9) 0.4594(10) 0.1486(6)
C5 C 0.2368(11) 0.7590(12) 0.0822(7)
H1 H 0.4259 0.4557 -0.1388
C6 C 0.3271(9) 0.3389(10) -0.1666(5)
C7 C 0.1649(9) 0.2813(10) -0.0732(5)
C8 C 0.0393(8) 0.3140(9) 0.0818(5)
C9 C 0.0521(9) 0.4019(11) 0.1868(5)
H2 H 0.1825 0.5108 0.1715
C10 C 0.2550(11) 0.8465(12) 0.1327(6)
O3 O 0.1376(8) 0.8011(8) 0.0418(5)
H3 H 0.3724 0.3335 -0.2131
C11 C 0.2294(11) 0.2750(11) -0.1441(6)
H4 H 0.0984 0.2376 -0.0559
H5 H 0.0011 0.2679 0.0568
C12 C -0.0034(9) 0.3250(10) 0.1522(5)
H6 H 0.0236 0.4131 0.2354
H7 H 0.1649 0.9078 0.1454
H8 H 0.2966 0.7846 0.1791
C13 C 0.3437(9) 0.9341(9) 0.0964(5)
H9 H 0.2059 0.2280 -0.1752
H10 H -0.0675 0.2833 0.1775
H11 H 0.2973 1.0044 0.0534
H12 H 0.4304 0.8747 0.0787
S1 S 0.3774(3) 1.0202(3) 0.16378(14)
C14 C 0.4897(9) 1.1119(9) 0.1091(5)
H13 H 0.5740 1.0445 0.0945
H14 H 0.4440 1.1740 0.0637
C15 C 0.5233(9) 1.1955(10) 0.1555(5)
H15 H 0.5736 1.1320 0.1992
H16 H 0.4381 1.2573 0.1732
C16 C 0.6097(9) 1.2833(9) 0.1110(5)
O4 O 0.7287(7) 1.2584(7) 0.1295(4)
O2A O 0.4486(5) 0.6186(6) -0.0543(3)
O2_2 O 0.5514(5) 1.3814(6) 0.0543(3)
Cu1_2 Cu 0.32604(9) 1.53097(10) 0.01478(6)
Cu1A Cu 0.67396(9) 1.46903(10) -0.01478(6)
O5 O 0.5647(5) -0.0923(5) 0.4572(3)
C17 C 0.3344(8) -0.1532(10) 0.6265(5)
H17 H 0.3911 -0.1110 0.6411
C18 C 0.3026(9) -0.2623(10) 0.6780(5)
H18 H 0.3380 -0.2932 0.7262
C19 C 0.2173(10) -0.3240(10) 0.6563(5)
H19 H 0.1950 -0.3977 0.6895
C20 C 0.1655(9) -0.2742(9) 0.5839(5)
H20 H 0.1069 -0.3133 0.5684
C21 C 0.2016(7) -0.1677(8) 0.5360(5)
C22 C 0.1525(7) -0.1063(8) 0.4574(5)
C23 C 0.0574(8) -0.1468(9) 0.4275(5)
H21 H 0.0170 -0.2110 0.4567
C24 C 0.0255(9) -0.0881(10) 0.3530(6)
H22 H -0.0388 -0.1112 0.3311
C25 C 0.0881(8) 0.0036(9) 0.3113(5)
H23 H 0.0704 0.0399 0.2603
C26 C 0.1777(8) 0.0420(9) 0.3453(5)
H24 H 0.2170 0.1078 0.3168
N3 N 0.2855(6) -0.1065(7) 0.5562(4)
N4 N 0.2104(6) -0.0113(6) 0.4173(4)
Cu2 Cu 0.32737(8) 0.04585(9) 0.47602(5)
O6 O 0.3493(6) 0.1993(6) 0.3965(4)
C27 C 0.6413(8) 0.8245(8) 0.4158(5)
C28 C 0.5660(9) 0.7863(9) 0.3634(5)
C29 C 0.3627(9) 0.4910(9) 0.3906(5)
C30 C 0.2938(9) 0.4405(9) 0.3390(5)
C31 C 0.5106(8) 0.6682(9) 0.4016(5)
S2 S 0.4122(2) 0.6387(2) 0.33529(13)
H25 H 0.2991 0.5197 0.4312
O7 O 0.7685(6) 0.7813(8) 0.4186(4)
H26 H 0.5866 0.5828 0.4193
H27 H 0.6282 0.7583 0.3221
H28 H 0.4897 0.8687 0.3423
H29 H 0.3576 0.4126 0.2984
H30 H 0.4437 0.4154 0.4124
C32 C 0.2505(9) 0.3163(10) 0.3831(5)
O8 O 0.1288(7) 0.3336(7) 0.4019(5)
H31 H 0.2132 0.5166 0.3172
H32 H 0.4520 0.6928 0.4446
O5A O 0.4353(5) 0.0923(5) 0.5428(3)
Cu2A Cu 0.67263(8) 0.95415(9) 0.52398(5)
Cu2_2 Cu 0.32737(8) 1.04585(9) 0.47602(5)
O5_2 O 0.5647(5) 0.9077(5) 0.4572(3)
O9 O -0.0818(11) -0.4194(11) 0.3351(6)
H33 H -0.127(14) -0.366(13) 0.362(7)
H34 H -0.027(13) -0.483(11) 0.364(7)
O10 O 0.9066(8) 0.9828(10) 0.1426(6)
H35 H 0.8611 0.9944 0.1009
H36 H 0.8491 1.0250 0.1768
loop_
_geom_bond_atom_site_label_1
_geom_bond_atom_site_label_2
_geom_bond_site_symmetry_1
_geom_bond_site_symmetry_2
Cu1 N1 1_555 1_555
N1 C1 1_555 1_555
N2 Cu1 1_555 1_555
O1 Cu1 1_555 1_555
O2 Cu1 1_555 1_555
C1 H1 1_555 1_555
C2 N1 1_555 1_555
C3 N2 1_555 1_555
C4 N2 1_555 1_555
C5 O1 1_555 1_555
C6 C1 1_555 1_555
C7 C2 1_555 1_555
C8 C3 1_555 1_555
C9 C4 1_555 1_555
H2 C4 1_555 1_555
C10 C5 1_555 1_555
O3 C5 1_555 1_555
H3 C6 1_555 1_555
C11 C6 1_555 1_555
H4 C7 1_555 1_555
H5 C8 1_555 1_555
C12 C8 1_555 1_555
H6 C9 1_555 1_555
H7 C10 1_555 1_555
H8 C10 1_555 1_555
C13 C10 1_555 1_555
H9 C11 1_555 1_555
H10 C12 1_555 1_555
H11 C13 1_555 1_555
H12 C13 1_555 1_555
S1 C13 1_555 1_555
C14 S1 1_555 1_555
H13 C14 1_555 1_555
H14 C14 1_555 1_555
C15 C14 1_555 1_555
H15 C15 1_555 1_555
H16 C15 1_555 1_555
C16 C15 1_555 1_555
O4 C16 1_555 1_555
O5 Cu2 1_555 1_555
C17 H17 1_555 1_555
C18 C17 1_555 1_555
H18 C18 1_555 1_555
C19 C18 1_555 1_555
H19 C19 1_555 1_555
C20 C19 1_555 1_555
H20 C20 1_555 1_555
C21 C20 1_555 1_555
C22 C21 1_555 1_555
C23 C22 1_555 1_555
H21 C23 1_555 1_555
C24 C23 1_555 1_555
H22 C24 1_555 1_555
C25 C24 1_555 1_555
H23 C25 1_555 1_555
C26 C25 1_555 1_555
H24 C26 1_555 1_555
N3 C17 1_555 1_555
N4 C22 1_555 1_555
Cu2 N3 1_555 1_555
O6 Cu2 1_555 1_555
C27 C28 1_555 1_555
C28 C31 1_555 1_555
C29 C30 1_555 1_555
C30 H29 1_555 1_555
C31 S2 1_555 1_555
S2 C29 1_555 1_555
H25 C29 1_555 1_555
O7 C27 1_555 1_555
H26 C31 1_555 1_555
H27 C28 1_555 1_555
H28 C28 1_555 1_555
H30 C29 1_555 1_555
C32 O6 1_555 1_555
O8 C32 1_555 1_555
H31 C30 1_555 1_555
H32 C31 1_555 1_555
O9 H33 1_555 1_555
H34 O9 1_555 1_555
O10 H35 1_555 1_555
H36 O10 1_555 1_555
O2A Cu1 1_555 1_555
O2_2 C16 1_555 1_555
Cu1_2 O2_2 1_555 1_555
Cu1A O2_2 1_555 1_555
O5A Cu2 1_555 1_555
Cu2A O5_2 1_555 1_555
Cu2_2 O5_2 1_555 1_555
O5_2 C27 1_555 1_555
C2 C3 1_555 1_555
C7 C11 1_555 1_555
C9 C12 1_555 1_555
C21 N3 1_555 1_555
C26 N4 1_555 1_555
N4 Cu2 1_555 1_555
C30 C32 1_555 1_555

#END
