
#######################################################################
#
#                 Cambridge Crystallographic Data Centre
#                                CCDC 
#
#######################################################################
#
# If this CIF has been generated from an entry in the Cambridge 
# Structural Database, then it will include bibliographic, chemical, 
# crystal, experimental, refinement or atomic coordinate data resulting 
# from the CCDC's data processing and validation procedures.
#
#######################################################################

data_QODYAL
_symmetry_cell_setting           monoclinic
_symmetry_space_group_name_H-M   'C 2/c'
_symmetry_Int_Tables_number      15
_space_group_name_Hall           '-C 2yn'
loop_
_symmetry_equiv_pos_site_id
_symmetry_equiv_pos_as_xyz
1 x,y,z
2 -x,y,1/2-z
3 1/2+x,1/2+y,z
4 1/2-x,1/2+y,1/2-z
5 -x,-y,-z
6 x,-y,1/2+z
7 1/2-x,1/2-y,-z
8 1/2+x,1/2-y,1/2+z
_cell_length_a                   24.2243(6)
_cell_length_b                   9.8101(3)
_cell_length_c                   31.3223(4)
_cell_angle_alpha                90
_cell_angle_beta                 103.263(5)
_cell_angle_gamma                90
_cell_volume                     7244.98
loop_
_atom_site_label
_atom_site_type_symbol
_atom_site_fract_x
_atom_site_fract_y
_atom_site_fract_z
Sn1 Sn 0.149618(6) 0.016309(15) 0.108545(5)
O1 O 0.27683(6) -0.09127(16) 0.16716(5)
O2 O 0.17409(6) -0.08647(16) 0.16492(5)
O3 O 0.22890(6) 0.00359(17) 0.09761(5)
N1 N 0.25711(7) -0.45583(18) 0.27747(6)
N2 N 0.04900(8) -0.0470(2) 0.13106(7)
C1 C 0.10186(10) -0.1225(2) 0.06282(8)
N3 N 0.14247(8) 0.1101(2) 0.02710(7)
C2 C 0.14511(10) 0.2249(2) 0.12520(8)
C3 C 0.19715(10) -0.2828(2) 0.23963(8)
H1 H 0.1611 -0.2445 0.2324
C4 C 0.33375(10) -0.0414(2) 0.11180(8)
C5 C 0.24019(9) -0.2245(2) 0.22281(7)
C6 C 0.33760(10) -0.0053(3) 0.06945(8)
H2 H 0.3047 0.0104 0.0480
C7 C 0.29937(10) -0.4026(2) 0.26194(8)
H3 H 0.3349 -0.4437 0.2694
C8 C 0.20643(10) -0.3957(2) 0.26600(8)
H4 H 0.1764 -0.4310 0.2765
C9 C 0.10971(10) -0.1260(2) 0.02007(8)
B1 B 0.27463(11) -0.0449(3) 0.12613(9)
B2 B 0.23030(11) -0.0951(3) 0.18949(8)
N4 N 0.43885(9) -0.0169(2) 0.08770(8)
C10 C 0.08724(11) 0.1712(3) 0.00825(9)
H5 H 0.0834 0.1871 -0.0225
H6 H 0.0842 0.2562 0.0227
H7 H 0.0577 0.1107 0.0124
C11 C 0.05046(11) -0.0299(3) 0.17759(8)
H8 H 0.0184 -0.0754 0.1843
H9 H 0.0490 0.0654 0.1841
H10 H 0.0848 -0.0685 0.1949
C12 C 0.03449(10) -0.3055(3) 0.04557(9)
H11 H 0.0092 -0.3654 0.0539
C13 C 0.06302(9) -0.2092(2) 0.07527(8)
C14 C 0.29226(10) -0.2901(3) 0.23524(8)
H12 H 0.3230 -0.2568 0.2253
C15 C 0.38504(10) -0.0664(3) 0.14101(8)
H13 H 0.3856 -0.0914 0.1697
C16 C 0.04394(11) -0.3120(3) 0.00368(9)
H14 H 0.0255 -0.3775 -0.0159
C17 C 0.05181(10) -0.1927(2) 0.12042(8)
H15 H 0.0162 -0.2364 0.1214
H16 H 0.0818 -0.2366 0.1419
C18 C 0.08047(10) -0.2213(3) -0.00930(8)
H17 H 0.0856 -0.2243 -0.0378
C19 C 0.14835(12) 0.5033(3) 0.14451(10)
H18 H 0.1494 0.5963 0.1505
C20 C 0.38990(11) 0.0065(3) 0.05939(9)
H19 H 0.3910 0.0326 0.0310
C21 C 0.19613(11) 0.2908(3) 0.14363(9)
H20 H 0.2297 0.2411 0.1497
C22 C 0.14815(10) -0.0217(3) 0.00649(8)
H21 H 0.1872 -0.0524 0.0151
H22 H 0.1383 -0.0118 -0.0252
C23 C 0.09597(11) 0.3026(3) 0.11732(9)
H23 H 0.0613 0.2614 0.1054
C24 C 0.18759(11) 0.2044(3) 0.02242(9)
H24 H 0.1863 0.2185 -0.0081
H25 H 0.2238 0.1670 0.0366
H26 H 0.1822 0.2899 0.0359
C25 C -0.00353(10) 0.0126(3) 0.10447(9)
H27 H -0.0021 0.0124 0.0741
H28 H -0.0073 0.1046 0.1139
H29 H -0.0355 -0.0401 0.1082
C26 C 0.09767(12) 0.4400(3) 0.12675(10)
H30 H 0.0643 0.4903 0.1213
C27 C 0.43565(11) -0.0541(3) 0.12803(9)
H31 H 0.4693 -0.0723 0.1484
C28 C 0.19760(12) 0.4282(3) 0.15311(10)
H32 H 0.2320 0.4704 0.1653
N1C N 0.24289(7) 0.04417(18) 0.22253(6)
B2C B 0.26970(11) -0.5951(3) 0.31051(8)
C29 C 0.3808(2) 0.3118(5) 0.16739(18)
H33 H 0.3919 0.2241 0.1769
C30 C 0.34873(19) 0.5675(4) 0.1394(2)
H34 H 0.3379 0.6555 0.1301
C31 C 0.3445(2) 0.3303(4) 0.12844(16)
H35 H 0.3304 0.2551 0.1113
C32 C 0.32719(18) 0.4572(4) 0.11412(14)
H36 H 0.3015 0.4695 0.0874
C33 C 0.3864(2) 0.5472(6) 0.1784(2)
H37 H 0.4012 0.6216 0.1957
C34 C 0.40201(18) 0.4183(6) 0.19245(15)
H38 H 0.4273 0.4053 0.2193
loop_
_geom_bond_atom_site_label_1
_geom_bond_atom_site_label_2
_geom_bond_site_symmetry_1
_geom_bond_site_symmetry_2
Sn1 O2 1_555 1_555
O1 B1 1_555 1_555
O2 B2 1_555 1_555
O3 Sn1 1_555 1_555
N1 C7 1_555 1_555
N2 C11 1_555 1_555
C1 Sn1 1_555 1_555
N3 C10 1_555 1_555
C2 Sn1 1_555 1_555
C3 H1 1_555 1_555
C4 C6 1_555 1_555
C5 C3 1_555 1_555
C6 H2 1_555 1_555
C7 H3 1_555 1_555
C8 N1 1_555 1_555
H4 C8 1_555 1_555
C9 C1 1_555 1_555
B1 O3 1_555 1_555
B2 O1 1_555 1_555
N4 C20 1_555 1_555
C10 H5 1_555 1_555
H6 C10 1_555 1_555
H7 C10 1_555 1_555
C11 H8 1_555 1_555
H9 C11 1_555 1_555
H10 C11 1_555 1_555
C12 H11 1_555 1_555
C13 C1 1_555 1_555
C14 C5 1_555 1_555
H12 C14 1_555 1_555
C15 C4 1_555 1_555
H13 C15 1_555 1_555
C16 C12 1_555 1_555
H14 C16 1_555 1_555
C17 N2 1_555 1_555
H15 C17 1_555 1_555
H16 C17 1_555 1_555
C18 C9 1_555 1_555
H17 C18 1_555 1_555
C19 H18 1_555 1_555
C20 C6 1_555 1_555
H19 C20 1_555 1_555
C21 C2 1_555 1_555
H20 C21 1_555 1_555
C22 N3 1_555 1_555
H21 C22 1_555 1_555
H22 C22 1_555 1_555
C23 C2 1_555 1_555
H23 C23 1_555 1_555
C24 N3 1_555 1_555
H24 C24 1_555 1_555
H25 C24 1_555 1_555
H26 C24 1_555 1_555
C25 N2 1_555 1_555
H27 C25 1_555 1_555
H28 C25 1_555 1_555
H29 C25 1_555 1_555
C26 C19 1_555 1_555
H30 C26 1_555 1_555
C27 N4 1_555 1_555
H31 C27 1_555 1_555
C28 C19 1_555 1_555
H32 C28 1_555 1_555
C29 H33 1_555 1_555
C30 H34 1_555 1_555
C31 C29 1_555 1_555
H35 C31 1_555 1_555
C32 C30 1_555 1_555
H36 C32 1_555 1_555
C33 C30 1_555 1_555
H37 C33 1_555 1_555
C34 C29 1_555 1_555
H38 C34 1_555 1_555
N1C B2 1_555 1_555
B2C N1 1_555 1_555
C3 C8 1_555 1_555
C4 B1 1_555 1_555
C5 B2 1_555 1_555
C7 C14 1_555 1_555
C9 C22 1_555 1_555
C12 C13 1_555 1_555
C13 C17 1_555 1_555
C15 C27 1_555 1_555
C16 C18 1_555 1_555
C21 C28 1_555 1_555
C23 C26 1_555 1_555
C31 C32 1_555 1_555
C33 C34 1_555 1_555

#END
