
#######################################################################
#
#                 Cambridge Crystallographic Data Centre
#                                CCDC 
#
#######################################################################
#
# If this CIF has been generated from an entry in the Cambridge 
# Structural Database, then it will include bibliographic, chemical, 
# crystal, experimental, refinement or atomic coordinate data resulting 
# from the CCDC's data processing and validation procedures.
#
#######################################################################

data_QOFBUI
_symmetry_cell_setting           monoclinic
_symmetry_space_group_name_H-M   'P 21/n'
_symmetry_Int_Tables_number      14
_space_group_name_Hall           '-P 2yn'
loop_
_symmetry_equiv_pos_site_id
_symmetry_equiv_pos_as_xyz
1 x,y,z
2 1/2+x,1/2-y,1/2+z
3 -x,-y,-z
4 1/2-x,1/2+y,1/2-z
_cell_length_a                   7.5292(4)
_cell_length_b                   15.6000(10)
_cell_length_c                   15.4081(9)
_cell_angle_alpha                90
_cell_angle_beta                 93.552(2)
_cell_angle_gamma                90
_cell_volume                     1806.29
loop_
_atom_site_label
_atom_site_type_symbol
_atom_site_fract_x
_atom_site_fract_y
_atom_site_fract_z
Fe1 Fe 0.47677(6) -0.39473(3) -0.21019(3)
Mn1 Mn 0.0000 -0.5000 0.0000
O1 O -0.0079(5) -0.3953(2) 0.0939(2)
H1 H -0.008(6) -0.414(3) 0.144(3)
H2 H -0.095(8) -0.373(4) 0.082(4)
N1 N 0.2320(4) -0.4421(2) -0.06535(19)
C1 C 0.3286(4) -0.4245(2) -0.1176(2)
N2 N 0.8116(4) -0.4297(2) -0.08968(19)
C2 C 0.6900(4) -0.4148(2) -0.1352(2)
C3 C 0.2605(4) -0.3777(2) -0.2835(2)
N3 N 0.1366(4) -0.3682(2) -0.3293(2)
C4 C 0.4718(4) -0.2793(3) -0.1693(2)
N4 N 0.4744(4) -0.2091(2) -0.1465(2)
N5 N 0.6118(3) -0.36552(18) -0.31337(16)
N6 N 0.5005(3) -0.51317(17) -0.25695(17)
C5 C 0.6599(4) -0.2889(2) -0.3416(2)
H3 H 0.6405 -0.2409 -0.3077
C6 C 0.7392(5) -0.2784(3) -0.4212(2)
H4 H 0.7691 -0.2239 -0.4399
C7 C 0.7719(5) -0.3477(3) -0.4704(2)
H5 H 0.8254 -0.3409 -0.5227
C8 C 0.7254(4) -0.4295(3) -0.4426(2)
C9 C 0.6438(4) -0.4352(2) -0.3634(2)
C10 C 0.5839(4) -0.5149(2) -0.3328(2)
C11 C 0.6114(5) -0.5907(2) -0.3797(2)
C12 C 0.5530(5) -0.6672(3) -0.3448(3)
H6 H 0.5677 -0.7188 -0.3736
C13 C 0.4735(5) -0.6652(3) -0.2673(3)
H7 H 0.4358 -0.7160 -0.2428
C14 C 0.4487(5) -0.5873(2) -0.2250(3)
H8 H 0.3940 -0.5875 -0.1725
C15 C 0.7513(5) -0.5075(3) -0.4892(2)
H9 H 0.8073 -0.5055 -0.5413
C16 C 0.6975(5) -0.5828(3) -0.4599(3)
H10 H 0.7162 -0.6318 -0.4924
O1B O 0.0079(5) -0.6047(2) -0.0939(2)
N1B N -0.2320(4) -0.5579(2) 0.06535(19)
N2B N 0.1884(4) -0.5703(2) 0.08968(19)
N2_2 N -0.1884(4) -0.4297(2) -0.08968(19)
Mn1_2 Mn 1.0000 -0.5000 0.0000
H1B H 0.008(6) -0.586(3) -0.144(3)
H2B H 0.095(8) -0.627(4) -0.082(4)
C1B C -0.3286(4) -0.5755(2) 0.1176(2)
Fe1B Fe -0.47677(6) -0.60527(3) 0.21019(3)
C2B C -0.6900(4) -0.5852(2) 0.1352(2)
C3B C -0.2605(4) -0.6223(2) 0.2835(2)
C4B C -0.4718(4) -0.7207(3) 0.1693(2)
N5B N -0.6118(3) -0.63448(18) 0.31337(16)
N6B N -0.5005(3) -0.48683(17) 0.25695(17)
N4B N -0.4744(4) -0.7909(2) 0.1465(2)
N3B N -0.1366(4) -0.6318(2) 0.3293(2)
N2B_2 N -0.8116(4) -0.5703(2) 0.08968(19)
C10B C -0.5839(4) -0.4851(2) 0.3328(2)
C14B C -0.4487(5) -0.4127(2) 0.2250(3)
C5B C -0.6599(4) -0.7111(2) 0.3416(2)
C9B C -0.6438(4) -0.5648(2) 0.3634(2)
Mn1_3 Mn -1.0000 -0.5000 0.0000
C13B C -0.4735(5) -0.3348(3) 0.2673(3)
H8B H -0.3940 -0.4125 0.1725
C11B C -0.6114(5) -0.4093(2) 0.3797(2)
C8B C -0.7254(4) -0.5705(3) 0.4426(2)
H3B H -0.6405 -0.7591 0.3077
C6B C -0.7392(5) -0.7216(3) 0.4212(2)
H4B H -0.7691 -0.7761 0.4399
C7B C -0.7719(5) -0.6523(3) 0.4704(2)
C15B C -0.7513(5) -0.4925(3) 0.4892(2)
C12B C -0.5530(5) -0.3328(3) 0.3448(3)
C16B C -0.6975(5) -0.4172(3) 0.4599(3)
H7B H -0.4358 -0.2840 0.2428
H5B H -0.8254 -0.6591 0.5227
H9B H -0.8073 -0.4945 0.5413
H10B H -0.7162 -0.3682 0.4924
H6B H -0.5677 -0.2812 0.3736
O2 O -0.3073(5) -0.2899(3) 0.0591(3)
H11 H -0.372(6) -0.302(3) 0.009(3)
H12 H -0.337(7) -0.255(3) 0.078(3)
O3 O 0.0072(6) -0.4494(3) 0.2615(2)
H13 H -0.025(7) -0.489(4) 0.277(4)
H14 H -0.023(6) -0.408(3) 0.290(3)
loop_
_geom_bond_atom_site_label_1
_geom_bond_atom_site_label_2
_geom_bond_site_symmetry_1
_geom_bond_site_symmetry_2
Fe1 C1 1_555 1_555
Mn1 O1 1_555 1_555
O1 H1 1_555 1_555
H2 O1 1_555 1_555
N1 Mn1 1_555 1_555
C1 N1 1_555 1_555
N2 C2 1_555 1_555
C2 Fe1 1_555 1_555
C3 Fe1 1_555 1_555
N3 C3 1_555 1_555
C4 Fe1 1_555 1_555
N4 C4 1_555 1_555
N5 Fe1 1_555 1_555
N6 Fe1 1_555 1_555
C5 N5 1_555 1_555
H3 C5 1_555 1_555
C6 C5 1_555 1_555
H4 C6 1_555 1_555
C7 C6 1_555 1_555
H5 C7 1_555 1_555
C8 C7 1_555 1_555
C9 N5 1_555 1_555
C10 N6 1_555 1_555
C11 C10 1_555 1_555
C12 C11 1_555 1_555
H6 C12 1_555 1_555
C13 C12 1_555 1_555
H7 C13 1_555 1_555
C14 N6 1_555 1_555
H8 C14 1_555 1_555
C15 C8 1_555 1_555
H9 C15 1_555 1_555
C16 C11 1_555 1_555
H10 C16 1_555 1_555
O2 H11 1_555 1_555
H12 O2 1_555 1_555
O3 H13 1_555 1_555
H14 O3 1_555 1_555
O1B Mn1 1_555 1_555
N1B Mn1 1_555 1_555
N2B Mn1 1_555 1_555
N2_2 Mn1 1_555 1_555
Mn1_2 N2 1_555 1_555
H1B O1B 1_555 1_555
H2B O1B 1_555 1_555
C1B N1B 1_555 1_555
Fe1B C1B 1_555 1_555
C2B Fe1B 1_555 1_555
C3B Fe1B 1_555 1_555
C4B Fe1B 1_555 1_555
N5B Fe1B 1_555 1_555
N6B Fe1B 1_555 1_555
N4B C4B 1_555 1_555
N3B C3B 1_555 1_555
N2B_2 C2B 1_555 1_555
C10B N6B 1_555 1_555
C14B N6B 1_555 1_555
C5B N5B 1_555 1_555
C9B N5B 1_555 1_555
Mn1_3 N2B_2 1_555 1_555
C13B C14B 1_555 1_555
H8B C14B 1_555 1_555
C11B C10B 1_555 1_555
C8B C9B 1_555 1_555
H3B C5B 1_555 1_555
C6B C5B 1_555 1_555
H4B C6B 1_555 1_555
C7B C8B 1_555 1_555
C15B C8B 1_555 1_555
C12B C13B 1_555 1_555
C16B C11B 1_555 1_555
H7B C13B 1_555 1_555
H5B C7B 1_555 1_555
H9B C15B 1_555 1_555
H10B C16B 1_555 1_555
H6B C12B 1_555 1_555
C8 C9 1_555 1_555
C9 C10 1_555 1_555
C13 C14 1_555 1_555
C15 C16 1_555 1_555
C10B C9B 1_555 1_555
C11B C12B 1_555 1_555
C6B C7B 1_555 1_555
C15B C16B 1_555 1_555

#END
