
#######################################################################
#
#                 Cambridge Crystallographic Data Centre
#                                CCDC 
#
#######################################################################
#
# If this CIF has been generated from an entry in the Cambridge 
# Structural Database, then it will include bibliographic, chemical, 
# crystal, experimental, refinement or atomic coordinate data resulting 
# from the CCDC's data processing and validation procedures.
#
#######################################################################

data_QOFBOD
_symmetry_cell_setting           monoclinic
_symmetry_space_group_name_H-M   'P 21/n'
_symmetry_Int_Tables_number      14
_space_group_name_Hall           '-P 2yn'
loop_
_symmetry_equiv_pos_site_id
_symmetry_equiv_pos_as_xyz
1 x,y,z
2 1/2-x,1/2+y,1/2-z
3 -x,-y,-z
4 1/2+x,1/2-y,1/2+z
_cell_length_a                   9.543(2)
_cell_length_b                   18.056(4)
_cell_length_c                   10.901(2)
_cell_angle_alpha                90
_cell_angle_beta                 106.94(3)
_cell_angle_gamma                90
_cell_volume                     1796.83
loop_
_atom_site_label
_atom_site_type_symbol
_atom_site_fract_x
_atom_site_fract_y
_atom_site_fract_z
N4 N 0.5000 0.0000 0.0000
O1 O 0.6268(17) -0.0155(11) 0.0014(15)
O2 O 0.4053(37) 0.0151(35) -0.1045(34)
O3 O 0.4565(34) -0.0516(18) 0.0588(31)
O1B O 0.3732(17) 0.0155(11) -0.0014(15)
O2B O 0.5947(37) -0.0151(35) 0.1045(34)
O3B O 0.5435(34) 0.0516(18) -0.0588(31)
Ag1 Ag 0.0000 0.0000 0.0000
N1 N 0.1473(11) -0.1146(6) -0.0211(9)
H1 H 0.1505(11) -0.1450(6) 0.0451(9)
H2 H 0.2398(11) -0.1005(6) -0.0141(9)
N2 N 0.1001(11) 0.0672(6) -0.1618(9)
H3 H 0.0424(11) 0.0549(6) -0.2402(9)
H4 H 0.1892(11) 0.0481(6) -0.1547(9)
N3 N 0.2853(11) 0.5479(5) 0.3193(9)
H5 H -0.1912(11) -0.0916(5) -0.2089(9)
H6 H -0.2930(11) -0.0548(5) -0.1518(9)
C1 C 0.1191(44) -0.1526(26) -0.1408(45)
C2 C 0.1773(11) -0.1342(6) -0.2321(10)
H7 H 0.2553(11) -0.0986(6) -0.2140(10)
C3 C 0.1382(12) -0.1713(6) -0.3495(10)
H8 H 0.1872(12) -0.1590(6) -0.4122(10)
C4 C 0.0282(13) -0.2254(6) -0.3781(10)
C5 C 0.0878(57) 0.1425(35) -0.1605(53)
C6 C -0.0222(21) 0.1865(12) -0.2315(17)
H9 H -0.1096(21) 0.1609(12) -0.2780(17)
C7 C 0.1366(12) 0.4505(6) 0.1808(10)
H10 H 0.0814(12) 0.4468(6) 0.2415(10)
C8 C -0.0157(17) 0.2585(11) -0.2275(16)
H11 H -0.1010(17) 0.2862(11) -0.2729(16)
C9 C -0.1899(11) -0.0197(5) -0.3940(11)
H12 H -0.1257(11) -0.0618(5) -0.3797(11)
C10 C 0.1007(12) 0.4115(6) 0.0682(11)
H13 H -0.4738(12) 0.1259(6) -0.4454(11)
C11 C -0.2315(13) 0.0211(6) -0.5065(12)
H14 H -0.1858(13) 0.0108(6) -0.5724(12)
C12 C 0.2433(12) 0.5097(36) 0.2000(9)
C13 C -0.0010(20) -0.2051(11) -0.1731(19)
H15 H -0.0532(20) -0.2184(11) -0.1132(19)
C14 C 0.2253(13) 0.1820(7) -0.0856(10)
H16 H 0.3041(13) 0.1535(7) -0.0313(10)
C15 C 0.2287(12) 0.2599(7) -0.0800(10)
H17 H 0.3149(12) 0.2852(7) -0.0298(10)
C16 C 0.1085(13) 0.3016(6) -0.1501(10)
C17 C -0.0413(23) -0.2420(11) -0.2927(18)
H18 H -0.1113(23) -0.2816(11) -0.3074(18)
C18 C 0.1648(12) 0.4236(6) -0.0287(10)
C19 C 0.1137(16) 0.3853(7) -0.1543(12)
H19 H 0.0174(16) 0.4034(7) -0.1979(12)
H20 H 0.1767(16) 0.3987(7) -0.2052(12)
C20 C -0.0218(39) -0.2681(10) -0.5136(34)
H21 H -0.0968(39) -0.3023(10) -0.5081(34)
H22 H -0.0604(39) -0.2348(10) -0.5841(34)
H23 H 0.0593(39) -0.2950(10) -0.5269(34)
Ag1C Ag 0.5000 0.5000 0.5000
Ag1C_2 Ag -0.5000 0.5000 -0.5000
N1B N -0.1473(11) 0.1146(6) 0.0211(9)
H1B H -0.1505(11) 0.1450(6) -0.0451(9)
H2B H -0.2398(11) 0.1005(6) 0.0141(9)
N2C N -0.3999(11) 0.4328(6) -0.6618(9)
N2B N -0.1001(11) -0.0672(6) 0.1618(9)
H3C H -0.4576(11) 0.4451(6) -0.7402(9)
H3B H -0.0424(11) -0.0549(6) 0.2402(9)
H4C H -0.3108(11) 0.4519(6) -0.6547(9)
H4B H -0.1892(11) -0.0481(6) 0.1547(9)
N3A N 0.2147(11) 0.0479(5) 0.1807(9)
N3C N -0.2147(11) -0.0479(5) -0.1807(9)
H5B H 0.1912(11) 0.0916(5) 0.2089(9)
H5C H 0.3088(11) 0.5916(5) 0.2911(9)
H6B H 0.2930(11) 0.0548(5) 0.1518(9)
H6C H 0.2070(11) 0.5548(5) 0.3482(9)
C1B C -0.1191(44) 0.1526(26) 0.1408(45)
C2B C -0.1773(11) 0.1342(6) 0.2321(10)
H7B H -0.2553(11) 0.0986(6) 0.2140(10)
C3B C -0.1382(12) 0.1713(6) 0.3495(10)
H8B H -0.1872(12) 0.1590(6) 0.4122(10)
C4B C -0.0282(13) 0.2254(6) 0.3781(10)
C5C C -0.4122(57) 0.3575(35) -0.6605(53)
C6C C -0.5222(21) 0.3135(12) -0.7315(17)
H9C H -0.6096(21) 0.3391(12) -0.7780(17)
C7C C -0.3634(12) 0.0495(6) -0.3192(10)
H10C H -0.4186(12) 0.0532(6) -0.2585(10)
C8C C -0.5157(17) 0.2415(11) -0.7275(16)
H11C H -0.6010(17) 0.2138(11) -0.7729(16)
C9C C 0.3101(11) 0.5197(5) 0.1060(11)
H12C H 0.3743(11) 0.5618(5) 0.1203(11)
C10C C -0.3993(12) 0.0885(6) -0.4318(11)
H13C H 0.0262(12) 0.3741(6) 0.0546(11)
C11C C 0.2685(13) 0.4789(6) -0.0065(12)
H14C H 0.3142(13) 0.4892(6) -0.0724(12)
C12C C -0.2567(12) -0.0097(36) -0.3000(9)
C13B C 0.0010(20) 0.2051(11) 0.1731(19)
H15B H 0.0532(20) 0.2184(11) 0.1132(19)
C14C C -0.2747(13) 0.3180(7) -0.5856(10)
H16C H -0.1959(13) 0.3465(7) -0.5313(10)
C15C C -0.2713(12) 0.2401(7) -0.5800(10)
H17C H -0.1851(12) 0.2148(7) -0.5298(10)
C16C C -0.3915(13) 0.1984(6) -0.6501(10)
C17B C 0.0413(23) 0.2420(11) 0.2927(18)
H18B H 0.1113(23) 0.2816(11) 0.3074(18)
C18C C -0.3352(12) 0.0764(6) -0.5287(10)
C19C C -0.3863(16) 0.1147(7) -0.6543(12)
H19C H -0.4826(16) 0.0966(7) -0.6979(12)
H20C H -0.3233(16) 0.1013(7) -0.7052(12)
C20B C 0.0218(39) 0.2681(10) 0.5136(34)
H21B H 0.0968(39) 0.3023(10) 0.5081(34)
H22B H 0.0604(39) 0.2348(10) 0.5841(34)
H23B H -0.0593(39) 0.2950(10) 0.5269(34)
loop_
_geom_bond_atom_site_label_1
_geom_bond_atom_site_label_2
_geom_bond_site_symmetry_1
_geom_bond_site_symmetry_2
Ag1 N1 1_555 1_555
N1 H1 1_555 1_555
H2 N1 1_555 1_555
N2 Ag1 1_555 1_555
H3 N2 1_555 1_555
H4 N2 1_555 1_555
N3 C12 1_555 1_555
H5 N3C 1_555 1_555
H6 N3C 1_555 1_555
N4 O1 1_555 1_555
O1 O2B 1_555 1_555
O2 N4 1_555 1_555
O3 N4 1_555 1_555
C1 N1 1_555 1_555
C2 C1 1_555 1_555
H7 C2 1_555 1_555
C3 C2 1_555 1_555
H8 C3 1_555 1_555
C4 C3 1_555 1_555
C5 N2 1_555 1_555
C6 C5 1_555 1_555
H9 C6 1_555 1_555
C7 H10 1_555 1_555
C8 C6 1_555 1_555
H11 C8 1_555 1_555
C9 H12 1_555 1_555
C10 C7 1_555 1_555
H13 C10C 1_555 1_555
C11 C9 1_555 1_555
H14 C11 1_555 1_555
C12 C7 1_555 1_555
C13 C1 1_555 1_555
H15 C13 1_555 1_555
C14 C5 1_555 1_555
H16 C14 1_555 1_555
C15 C14 1_555 1_555
H17 C15 1_555 1_555
C16 C8 1_555 1_555
C17 C4 1_555 1_555
H18 C17 1_555 1_555
C18 C10 1_555 1_555
C19 C16 1_555 1_555
H19 C19 1_555 1_555
H20 C19 1_555 1_555
C20 C4 1_555 1_555
H21 C20 1_555 1_555
H22 C20 1_555 1_555
H23 C20 1_555 1_555
Ag1C N3 1_555 1_555
Ag1C_2 N2C 1_555 1_555
N1B Ag1 1_555 1_555
H1B N1B 1_555 1_555
H2B N1B 1_555 1_555
N2C H3C 1_555 1_555
N2B Ag1 1_555 1_555
H3B N2B 1_555 1_555
H4C N2C 1_555 1_555
H4B N2B 1_555 1_555
N3A Ag1 1_555 1_555
N3C Ag1 1_555 1_555
H5B N3A 1_555 1_555
H5C N3 1_555 1_555
H6B N3A 1_555 1_555
H6C N3 1_555 1_555
O1B N4 1_555 1_555
O2B N4 1_555 1_555
O3B N4 1_555 1_555
C1B N1B 1_555 1_555
C2B C1B 1_555 1_555
H7B C2B 1_555 1_555
C3B C2B 1_555 1_555
H8B C3B 1_555 1_555
C4B C3B 1_555 1_555
C5C N2C 1_555 1_555
C6C C5C 1_555 1_555
H9C C6C 1_555 1_555
C7C H10C 1_555 1_555
C8C C6C 1_555 1_555
H11C C8C 1_555 1_555
C9C C12 1_555 1_555
H12C C9C 1_555 1_555
C10C C7C 1_555 1_555
H13C C10 1_555 1_555
C11C C18 1_555 1_555
H14C C11C 1_555 1_555
C12C C9 1_555 1_555
C13B C1B 1_555 1_555
H15B C13B 1_555 1_555
C14C C5C 1_555 1_555
H16C C14C 1_555 1_555
C15C C14C 1_555 1_555
H17C C15C 1_555 1_555
C16C C8C 1_555 1_555
C17B C4B 1_555 1_555
H18B C17B 1_555 1_555
C18C C11 1_555 1_555
C19C C16C 1_555 1_555
H19C C19C 1_555 1_555
H20C C19C 1_555 1_555
C20B C4B 1_555 1_555
H21B C20B 1_555 1_555
H22B C20B 1_555 1_555
H23B C20B 1_555 1_555
O1 O3B 1_555 1_555
O2 O1B 1_555 1_555
O2 O3B 1_555 1_555
O3 O1B 1_555 1_555
O3 O2B 1_555 1_555
C13 C17 1_555 1_555
C15 C16 1_555 1_555
C18 C19 1_555 1_555
N3C C12C 1_555 1_555
C7C C12C 1_555 1_555
C9C C11C 1_555 1_555
C10C C18C 1_555 1_555
C13B C17B 1_555 1_555
C15C C16C 1_555 1_555
C18C C19C 1_555 1_555

#END
