
#######################################################################
#
#                 Cambridge Crystallographic Data Centre
#                                CCDC 
#
#######################################################################
#
# If this CIF has been generated from an entry in the Cambridge 
# Structural Database, then it will include bibliographic, chemical, 
# crystal, experimental, refinement or atomic coordinate data resulting 
# from the CCDC's data processing and validation procedures.
#
#######################################################################

data_QOFBOC
_symmetry_cell_setting           monoclinic
_symmetry_space_group_name_H-M   'P 21/n'
_symmetry_Int_Tables_number      14
_space_group_name_Hall           '-P 2yn'
loop_
_symmetry_equiv_pos_site_id
_symmetry_equiv_pos_as_xyz
1 x,y,z
2 1/2+x,1/2-y,1/2+z
3 -x,-y,-z
4 1/2-x,1/2+y,1/2-z
_cell_length_a                   7.440(1)
_cell_length_b                   15.569(3)
_cell_length_c                   15.344(6)
_cell_angle_alpha                90
_cell_angle_beta                 93.63(2)
_cell_angle_gamma                90
_cell_volume                     1773.78
loop_
_atom_site_label
_atom_site_type_symbol
_atom_site_fract_x
_atom_site_fract_y
_atom_site_fract_z
Zn1 Zn 0.0000 -0.5000 0.0000
Fe1 Fe 0.47794(7) -0.39668(3) -0.20854(3)
O1 O -0.0017(4) -0.3970(2) 0.0888(2)
N1 N 0.2252(5) -0.4451(2) -0.0660(2)
N2 N 0.8147(5) -0.4354(2) -0.0870(2)
N3 N 0.1349(6) -0.3682(3) -0.3285(3)
N4 N 0.4771(6) -0.2110(2) -0.1446(3)
N5 N 0.6139(4) -0.3666(2) -0.3123(2)
N6 N 0.5019(4) -0.5149(2) -0.2561(2)
C1 C 0.3261(5) -0.4274(2) -0.1166(2)
C2 C 0.6938(5) -0.4182(2) -0.1320(2)
C3 C 0.2589(5) -0.3787(2) -0.2829(2)
C4 C 0.4735(5) -0.2811(3) -0.1670(2)
C5 C 0.6598(6) -0.2896(3) -0.3405(3)
C6 C 0.7385(6) -0.2778(3) -0.4203(3)
C7 C 0.7733(6) -0.3475(3) -0.4701(3)
C8 C 0.7264(5) -0.4294(3) -0.4430(3)
C9 C 0.6441(5) -0.4361(2) -0.3631(2)
C10 C 0.5850(5) -0.5161(2) -0.3327(2)
C11 C 0.6127(6) -0.5912(3) -0.3807(3)
C12 C 0.5528(7) -0.6683(3) -0.3451(3)
C13 C 0.4732(7) -0.6666(3) -0.2670(4)
C14 C 0.4471(6) -0.5887(3) -0.2246(3)
C15 C 0.7542(6) -0.5078(3) -0.4899(3)
C16 C 0.6992(7) -0.5835(3) -0.4608(3)
H1 H -0.0208 -0.4123 0.1398
H2 H -0.0888 -0.3621 0.0848
H7 H 0.6271 -0.2362 -0.3133
H8 H 0.7471 -0.2175 -0.4483
H9 H 0.8333 -0.3458 -0.5250
H10 H 0.5689 -0.7241 -0.3767
H11 H 0.4092 -0.7260 -0.2542
H12 H 0.3754 -0.5798 -0.1663
H13 H 0.8054 -0.5023 -0.5494
H14 H 0.7346 -0.6367 -0.4963
O1B O 0.0017(4) -0.6030(2) -0.0888(2)
N1B N -0.2252(5) -0.5549(2) 0.0660(2)
N2B N 0.1853(5) -0.5646(2) 0.0870(2)
N2_2 N -0.1853(5) -0.4354(2) -0.0870(2)
Zn1_2 Zn 1.0000 -0.5000 0.0000
H1B H 0.0208 -0.5877 -0.1398
H2B H 0.0888 -0.6379 -0.0848
C1B C -0.3261(5) -0.5726(2) 0.1166(2)
Fe1B Fe -0.47794(7) -0.60332(3) 0.20854(3)
N5B N -0.6139(4) -0.6334(2) 0.3123(2)
N6B N -0.5019(4) -0.4851(2) 0.2561(2)
C2B C -0.6938(5) -0.5818(2) 0.1320(2)
C3B C -0.2589(5) -0.6213(2) 0.2829(2)
C4B C -0.4735(5) -0.7189(3) 0.1670(2)
N2B_2 N -0.8147(5) -0.5646(2) 0.0870(2)
C10B C -0.5850(5) -0.4839(2) 0.3327(2)
C14B C -0.4471(6) -0.4113(3) 0.2246(3)
C5B C -0.6598(6) -0.7104(3) 0.3405(3)
C9B C -0.6441(5) -0.5639(2) 0.3631(2)
N3B N -0.1349(6) -0.6318(3) 0.3285(3)
N4B N -0.4771(6) -0.7890(2) 0.1446(3)
Zn1_3 Zn -1.0000 -0.5000 0.0000
C13B C -0.4732(7) -0.3334(3) 0.2670(4)
H12B H -0.3754 -0.4202 0.1663
C11B C -0.6127(6) -0.4088(3) 0.3807(3)
C8B C -0.7264(5) -0.5706(3) 0.4430(3)
C6B C -0.7385(6) -0.7222(3) 0.4203(3)
H7B H -0.6271 -0.7638 0.3133
C12B C -0.5528(7) -0.3317(3) 0.3451(3)
C16B C -0.6992(7) -0.4165(3) 0.4608(3)
H11B H -0.4092 -0.2740 0.2542
C7B C -0.7733(6) -0.6525(3) 0.4701(3)
C15B C -0.7542(6) -0.4922(3) 0.4899(3)
H8B H -0.7471 -0.7825 0.4483
H9B H -0.8333 -0.6542 0.5250
H13B H -0.8054 -0.4977 0.5494
H14B H -0.7346 -0.3633 0.4963
H10B H -0.5689 -0.2759 0.3767
O2 O -0.3100(6) -0.2902(3) 0.0573(3)
H3 H -0.3392 -0.2377 0.0825
H4 H -0.2246 -0.2675 0.0196
O3 O 0.0057(6) -0.4472(3) 0.2592(2)
H5 H -0.0283 -0.4954 0.2917
H6 H -0.0471 -0.4094 0.2942
loop_
_geom_bond_atom_site_label_1
_geom_bond_atom_site_label_2
_geom_bond_site_symmetry_1
_geom_bond_site_symmetry_2
Zn1 O1 1_555 1_555
Fe1 N5 1_555 1_555
O1 H1 1_555 1_555
O2 H3 1_555 1_555
O3 H5 1_555 1_555
N1 Zn1 1_555 1_555
N2 C2 1_555 1_555
N3 C3 1_555 1_555
N4 C4 1_555 1_555
N5 C5 1_555 1_555
N6 Fe1 1_555 1_555
C1 Fe1 1_555 1_555
C2 Fe1 1_555 1_555
C3 Fe1 1_555 1_555
C4 Fe1 1_555 1_555
C5 C6 1_555 1_555
C6 C7 1_555 1_555
C7 C8 1_555 1_555
C8 C9 1_555 1_555
C9 N5 1_555 1_555
C10 N6 1_555 1_555
C11 C10 1_555 1_555
C12 C11 1_555 1_555
C13 C12 1_555 1_555
C14 N6 1_555 1_555
C15 C8 1_555 1_555
C16 C11 1_555 1_555
H2 O1 1_555 1_555
H4 O2 1_555 1_555
H6 O3 1_555 1_555
H7 C5 1_555 1_555
H8 C6 1_555 1_555
H9 C7 1_555 1_555
H10 C12 1_555 1_555
H11 C13 1_555 1_555
H12 C14 1_555 1_555
H13 C15 1_555 1_555
H14 C16 1_555 1_555
O1B Zn1 1_555 1_555
N1B Zn1 1_555 1_555
N2B Zn1 1_555 1_555
N2_2 Zn1 1_555 1_555
Zn1_2 N2 1_555 1_555
H1B O1B 1_555 1_555
H2B O1B 1_555 1_555
C1B N1B 1_555 1_555
Fe1B C1B 1_555 1_555
N5B Fe1B 1_555 1_555
N6B Fe1B 1_555 1_555
C2B Fe1B 1_555 1_555
C3B Fe1B 1_555 1_555
C4B Fe1B 1_555 1_555
N2B_2 C2B 1_555 1_555
C10B N6B 1_555 1_555
C14B N6B 1_555 1_555
C5B N5B 1_555 1_555
C9B N5B 1_555 1_555
N3B C3B 1_555 1_555
N4B C4B 1_555 1_555
Zn1_3 N2B_2 1_555 1_555
C13B C14B 1_555 1_555
H12B C14B 1_555 1_555
C11B C10B 1_555 1_555
C8B C9B 1_555 1_555
C6B C5B 1_555 1_555
H7B C5B 1_555 1_555
C12B C13B 1_555 1_555
C16B C11B 1_555 1_555
H11B C13B 1_555 1_555
C7B C8B 1_555 1_555
C15B C8B 1_555 1_555
H8B C6B 1_555 1_555
H9B C7B 1_555 1_555
H13B C15B 1_555 1_555
H14B C16B 1_555 1_555
H10B C12B 1_555 1_555
N1 C1 1_555 1_555
C9 C10 1_555 1_555
C13 C14 1_555 1_555
C15 C16 1_555 1_555
C10B C9B 1_555 1_555
C11B C12B 1_555 1_555
C6B C7B 1_555 1_555
C16B C15B 1_555 1_555

#END
