
#######################################################################
#
#                 Cambridge Crystallographic Data Centre
#                                CCDC 
#
#######################################################################
#
# If this CIF has been generated from an entry in the Cambridge 
# Structural Database, then it will include bibliographic, chemical, 
# crystal, experimental, refinement or atomic coordinate data resulting 
# from the CCDC's data processing and validation procedures.
#
#######################################################################

data_QOFCUJ
_symmetry_cell_setting           monoclinic
_symmetry_space_group_name_H-M   'P 21/n'
_symmetry_Int_Tables_number      14
_space_group_name_Hall           '-P 2yn'
loop_
_symmetry_equiv_pos_site_id
_symmetry_equiv_pos_as_xyz
1 x,y,z
2 1/2+x,1/2-y,1/2+z
3 -x,-y,-z
4 1/2-x,1/2+y,1/2-z
_cell_length_a                   8.8840(10)
_cell_length_b                   14.305(3)
_cell_length_c                   10.1100(10)
_cell_angle_alpha                90
_cell_angle_beta                 106.780(10)
_cell_angle_gamma                90
_cell_volume                     1230.13
loop_
_atom_site_label
_atom_site_type_symbol
_atom_site_fract_x
_atom_site_fract_y
_atom_site_fract_z
Ag1 Ag -0.84281(4) -0.05483(2) 0.02168(4)
S1 S -0.36678(17) 0.24185(10) 0.12475(13)
N1 N -0.7009(4) 0.0488(2) -0.0409(4)
N2 N -0.5326(4) 0.3256(3) 0.4314(4)
C1 C -0.6057(5) 0.1071(3) 0.0491(4)
H1 H -0.6107 0.1082 0.1397
C2 C -0.5005(5) 0.1653(3) 0.0129(4)
C3 C -0.4925(5) 0.1636(3) -0.1227(4)
H2 H -0.4230 0.2023 -0.1502
C4 C -0.5896(5) 0.1033(3) -0.2153(4)
H3 H -0.5851 0.1000 -0.3060
C5 C -0.6931(5) 0.0479(3) -0.1725(5)
H4 H -0.7599 0.0085 -0.2362
C6 C -0.5056(5) 0.3140(3) 0.3086(4)
H5 H -0.5479 0.3569 0.2386
C7 C -0.4175(5) 0.2409(3) 0.2825(4)
C8 C -0.3551(5) 0.1767(3) 0.3862(5)
H6 H -0.2934 0.1274 0.3718
C9 C -0.3859(6) 0.1871(3) 0.5104(5)
H7 H -0.3484 0.1438 0.5808
C10 C -0.4735(5) 0.2627(3) 0.5295(4)
H8 H -0.4920 0.2701 0.6149
N2C N -0.9674(4) -0.1744(3) 0.0686(4)
Ag1C Ag -0.65719(4) 0.44517(2) 0.47832(4)
Cl1 Cl -0.32136(15) 0.43651(8) -0.15280(11)
O1 O -0.2606(5) 0.3452(3) -0.1529(6)
O2 O -0.2337(9) 0.4983(3) -0.2165(5)
O3 O -0.3050(7) 0.4693(4) -0.0192(4)
O4 O -0.4794(6) 0.4362(5) -0.2315(7)
loop_
_geom_bond_atom_site_label_1
_geom_bond_atom_site_label_2
_geom_bond_site_symmetry_1
_geom_bond_site_symmetry_2
Ag1 N1 1_555 1_555
Cl1 O1 1_555 1_555
S1 C2 1_555 1_555
N1 C1 1_555 1_555
N2 C6 1_555 1_555
O2 Cl1 1_555 1_555
O3 Cl1 1_555 1_555
O4 Cl1 1_555 1_555
C1 H1 1_555 1_555
C2 C1 1_555 1_555
C3 C2 1_555 1_555
H2 C3 1_555 1_555
C4 C3 1_555 1_555
H3 C4 1_555 1_555
C5 N1 1_555 1_555
H4 C5 1_555 1_555
C6 H5 1_555 1_555
C7 S1 1_555 1_555
C8 C7 1_555 1_555
H6 C8 1_555 1_555
C9 C8 1_555 1_555
H7 C9 1_555 1_555
C10 N2 1_555 1_555
H8 C10 1_555 1_555
N2C Ag1 1_555 1_555
Ag1C N2 1_555 1_555
C4 C5 1_555 1_555
C6 C7 1_555 1_555
C9 C10 1_555 1_555

#END
