
#######################################################################
#
#                 Cambridge Crystallographic Data Centre
#                                CCDC 
#
#######################################################################
#
# If this CIF has been generated from an entry in the Cambridge 
# Structural Database, then it will include bibliographic, chemical, 
# crystal, experimental, refinement or atomic coordinate data resulting 
# from the CCDC's data processing and validation procedures.
#
#######################################################################

data_QOFCIY
_symmetry_cell_setting           monoclinic
_symmetry_space_group_name_H-M   'P 21/n'
_symmetry_Int_Tables_number      14
_space_group_name_Hall           '-P 2yn'
loop_
_symmetry_equiv_pos_site_id
_symmetry_equiv_pos_as_xyz
1 x,y,z
2 1/2-x,1/2+y,1/2-z
3 -x,-y,-z
4 1/2+x,1/2-y,1/2+z
_cell_length_a                   13.062(3)
_cell_length_b                   12.259(2)
_cell_length_c                   18.996(4)
_cell_angle_alpha                90
_cell_angle_beta                 97.73(3)
_cell_angle_gamma                90
_cell_volume                     3014.13
loop_
_atom_site_label
_atom_site_type_symbol
_atom_site_fract_x
_atom_site_fract_y
_atom_site_fract_z
Ag1 Ag 0.24327(5) 0.08324(6) 0.14151(3)
Ag2 Ag 0.78337(5) 0.03412(5) 0.33578(3)
O1 O 0.2135(6) -0.0774(6) 0.0593(4)
N1 N 0.2809(5) 0.3506(5) -0.0644(3)
N2 N 0.4143(5) 0.0585(5) 0.2055(3)
N3 N 0.6131(4) 0.0361(5) 0.2730(3)
N4 N 0.0983(5) 0.0634(5) 0.2044(3)
N5 N -0.0693(4) 0.0229(5) 0.2747(3)
N6 N 0.2557(5) 0.2078(5) 0.0444(3)
C1 C -0.0792(5) 0.0255(6) 0.2036(4)
C2 C 0.3203(6) 0.1830(6) -0.0030(4)
C3 C 0.3816(7) 0.0804(7) 0.0062(5)
H1 H 0.3647(7) 0.0417(7) 0.0471(5)
H2 H 0.3659(7) 0.0355(7) -0.0352(5)
H3 H 0.4539(7) 0.0979(7) 0.0129(5)
C4 C 0.0252(5) 0.0374(6) 0.3122(4)
C5 C 0.1101(5) 0.0599(6) 0.2759(4)
C6 C 0.4776(6) 0.1440(6) 0.2154(4)
C7 C 0.0053(5) 0.0457(6) 0.1678(4)
C8 C 0.5796(6) 0.1335(7) 0.2467(4)
C9 C 0.3299(5) 0.2550(6) -0.0586(4)
C10 C 0.1646(8) 0.4842(8) -0.0245(5)
H4 H 0.1833(8) 0.5207(8) -0.0656(5)
H5 H 0.0910(8) 0.4744(8) -0.0298(5)
H6 H 0.1860(8) 0.5273(8) 0.0171(5)
C11 C 0.2176(6) 0.3764(7) -0.0164(4)
C12 C 0.0373(6) 0.0247(7) 0.3911(4)
H7 H -0.0290(6) 0.0095(7) 0.4055(4)
H8 H 0.0837(6) -0.0345(7) 0.4053(4)
H9 H 0.0645(6) 0.0909(7) 0.4132(4)
C13 C 0.3762(7) -0.1337(7) 0.2144(5)
H10 H 0.3118(7) -0.1088(7) 0.1893(5)
H11 H 0.4064(7) -0.1865(7) 0.1861(5)
H12 H 0.3643(7) -0.1665(7) 0.2585(5)
C14 C 0.5487(5) -0.0510(6) 0.2659(4)
C15 C -0.1863(6) 0.0033(8) 0.1631(5)
H13 H -0.2339(6) -0.0094(8) 0.1966(5)
H14 H -0.2084(6) 0.0654(8) 0.1343(5)
H15 H -0.1842(6) -0.0598(8) 0.1333(5)
C16 C 0.2058(6) 0.3022(7) 0.0382(4)
C17 C 0.2141(6) 0.0804(8) 0.3151(5)
H16 H 0.2613(6) 0.0943(8) 0.2815(5)
H17 H 0.2121(6) 0.1425(8) 0.3457(5)
H18 H 0.2366(6) 0.0175(8) 0.3430(5)
C18 C 0.4498(5) -0.0397(6) 0.2299(4)
C19 C 0.5899(6) -0.1552(6) 0.3000(4)
H19 H 0.6599(6) -0.1448(6) 0.3217(4)
H20 H 0.5481(6) -0.1763(6) 0.3357(4)
H21 H 0.5876(6) -0.2114(6) 0.2646(4)
C20 C 0.3960(6) 0.2245(7) -0.1142(4)
H22 H 0.3939(6) 0.2827(7) -0.1482(4)
H23 H 0.4659(6) 0.2135(7) -0.0925(4)
H24 H 0.3704(6) 0.1587(7) -0.1377(4)
C21 C -0.0080(7) 0.0493(8) 0.0885(4)
H25 H 0.0575(7) 0.0645(8) 0.0730(4)
H26 H -0.0333(7) -0.0198(8) 0.0697(4)
H27 H -0.0563(7) 0.1056(8) 0.0719(4)
C22 C 0.6527(7) 0.2251(8) 0.2529(5)
H28 H 0.7186(7) 0.2013(8) 0.2763(5)
H29 H 0.6600(7) 0.2507(8) 0.2061(5)
H30 H 0.6272(7) 0.2831(8) 0.2796(5)
C23 C 0.4338(7) 0.2539(7) 0.1919(5)
H31 H 0.3629(7) 0.2462(7) 0.1715(5)
H32 H 0.4383(7) 0.3026(7) 0.2318(5)
H33 H 0.4730(7) 0.2830(7) 0.1569(5)
C24 C 0.1300(7) 0.3265(8) 0.0902(5)
H34 H 0.1311(7) 0.2686(8) 0.1244(5)
H35 H 0.1485(7) 0.3939(8) 0.1144(5)
H36 H 0.0619(7) 0.3326(8) 0.0643(5)
H37 H 0.1703 -0.1383 0.0751
H38 H 0.2800 -0.0800 0.0235
Ag2_2 Ag -0.21663(5) 0.03412(5) 0.33578(3)
Ag2C Ag 0.28337(5) 0.46588(5) -0.16422(3)
N1C N 0.7809(5) 0.1494(5) 0.4356(3)
N5_2 N 0.9307(4) 0.0229(5) 0.2747(3)
B1 B 0.0383(9) -0.2742(10) 0.1027(7)
F1 F 0.1085(5) -0.2129(6) 0.1475(4)
F2 F 0.0464(5) -0.3811(6) 0.1224(4)
F3 F 0.0628(6) -0.2644(7) 0.0349(4)
F4 F -0.0594(6) -0.2357(7) 0.1050(4)
B2 B 0.8567(11) -0.2419(13) 0.4483(8)
F5 F 0.8255(8) -0.1562(8) 0.4089(5)
F6 F 0.9688(9) -0.1988(10) 0.4653(6)
F7 F 0.8823(7) -0.3329(8) 0.4165(5)
F8 F 0.8457(8) -0.2468(9) 0.5170(6)
loop_
_geom_bond_atom_site_label_1
_geom_bond_atom_site_label_2
_geom_bond_site_symmetry_1
_geom_bond_site_symmetry_2
Ag1 O1 1_555 1_555
Ag2 N3 1_555 1_555
O1 H37 1_555 1_555
N1 C9 1_555 1_555
N2 Ag1 1_555 1_555
N3 C8 1_555 1_555
N4 Ag1 1_555 1_555
N5 C1 1_555 1_555
N6 Ag1 1_555 1_555
C1 C7 1_555 1_555
C2 N6 1_555 1_555
C3 C2 1_555 1_555
H1 C3 1_555 1_555
H2 C3 1_555 1_555
H3 C3 1_555 1_555
C4 N5 1_555 1_555
C5 N4 1_555 1_555
C6 N2 1_555 1_555
C7 N4 1_555 1_555
C8 C6 1_555 1_555
C9 C2 1_555 1_555
C10 H4 1_555 1_555
H5 C10 1_555 1_555
H6 C10 1_555 1_555
C11 N1 1_555 1_555
C12 C4 1_555 1_555
H7 C12 1_555 1_555
H8 C12 1_555 1_555
H9 C12 1_555 1_555
C13 H10 1_555 1_555
H11 C13 1_555 1_555
H12 C13 1_555 1_555
C14 N3 1_555 1_555
C15 C1 1_555 1_555
H13 C15 1_555 1_555
H14 C15 1_555 1_555
H15 C15 1_555 1_555
C16 N6 1_555 1_555
C17 C5 1_555 1_555
H16 C17 1_555 1_555
H17 C17 1_555 1_555
H18 C17 1_555 1_555
C18 N2 1_555 1_555
C19 C14 1_555 1_555
H19 C19 1_555 1_555
H20 C19 1_555 1_555
H21 C19 1_555 1_555
C20 C9 1_555 1_555
H22 C20 1_555 1_555
H23 C20 1_555 1_555
H24 C20 1_555 1_555
C21 C7 1_555 1_555
H25 C21 1_555 1_555
H26 C21 1_555 1_555
H27 C21 1_555 1_555
C22 C8 1_555 1_555
H28 C22 1_555 1_555
H29 C22 1_555 1_555
H30 C22 1_555 1_555
C23 C6 1_555 1_555
H31 C23 1_555 1_555
H32 C23 1_555 1_555
H33 C23 1_555 1_555
C24 C16 1_555 1_555
H34 C24 1_555 1_555
H35 C24 1_555 1_555
H36 C24 1_555 1_555
B1 F1 1_555 1_555
F2 B1 1_555 1_555
F3 B1 1_555 1_555
F4 B1 1_555 1_555
B2 F5 1_555 1_555
F6 B2 1_555 1_555
F7 B2 1_555 1_555
F8 B2 1_555 1_555
H38 O1 1_555 1_555
Ag2_2 N5 1_555 1_555
Ag2C N1 1_555 1_555
N1C Ag2 1_555 1_555
N5_2 Ag2 1_555 1_555
C4 C5 1_555 1_555
C10 C11 1_555 1_555
C11 C16 1_555 1_555
C13 C18 1_555 1_555
C14 C18 1_555 1_555

#END
