
#######################################################################
#
#                 Cambridge Crystallographic Data Centre
#                                CCDC 
#
#######################################################################
#
# If this CIF has been generated from an entry in the Cambridge 
# Structural Database, then it will include bibliographic, chemical, 
# crystal, experimental, refinement or atomic coordinate data resulting 
# from the CCDC's data processing and validation procedures.
#
#######################################################################

data_QOFCOD
_symmetry_cell_setting           monoclinic
_symmetry_space_group_name_H-M   'P 21/n'
_symmetry_Int_Tables_number      14
_space_group_name_Hall           '-P 2yn'
loop_
_symmetry_equiv_pos_site_id
_symmetry_equiv_pos_as_xyz
1 x,y,z
2 1/2+x,1/2-y,1/2+z
3 -x,-y,-z
4 1/2-x,1/2+y,1/2-z
_cell_length_a                   8.946(3)
_cell_length_b                   14.130(2)
_cell_length_c                   10.124(2)
_cell_angle_alpha                90.00(2)
_cell_angle_beta                 107.83(2)
_cell_angle_gamma                90.00(2)
_cell_volume                     1218.28
loop_
_atom_site_label
_atom_site_type_symbol
_atom_site_fract_x
_atom_site_fract_y
_atom_site_fract_z
Ag1 Ag -0.84381(3) -0.05650(2) 0.01918(3)
S1 S -0.37083(14) 0.24267(9) 0.12596(12)
N1 N -0.7049(4) 0.0478(2) -0.0435(3)
N2 N -0.5337(3) 0.3246(2) 0.4320(3)
C1 C -0.6090(4) 0.1064(3) 0.0487(4)
H1 H -0.6126 0.1071 0.1395
C2 C -0.5046(4) 0.1660(2) 0.0122(4)
C3 C -0.4982(4) 0.1630(3) -0.1229(4)
H2 H -0.4281 0.2012 -0.1499
C4 C -0.5969(4) 0.1027(3) -0.2164(4)
H3 H -0.5947 0.1001 -0.3076
C5 C -0.6984(5) 0.0467(2) -0.1742(4)
H4 H -0.7653 0.0064 -0.2383
C6 C -0.5067(4) 0.3144(3) 0.3100(4)
H5 H -0.5479 0.3589 0.2408
C7 C -0.4202(4) 0.2402(3) 0.2830(4)
C8 C -0.3589(5) 0.1742(3) 0.3848(4)
H6 H -0.2974 0.1247 0.3700
C9 C -0.3904(5) 0.1830(3) 0.5096(4)
H7 H -0.3542 0.1379 0.5791
C10 C -0.4758(4) 0.2592(3) 0.5292(4)
H8 H -0.4943 0.2656 0.6142
N2C N -0.9663(3) -0.1754(2) 0.0680(3)
Ag1C Ag -0.65619(3) 0.44350(2) 0.48082(3)
B1 B -0.3183(7) 0.4350(3) -0.1535(5)
F1 F -0.4700(5) 0.4397(4) -0.2294(5)
F2 F -0.2941(5) 0.4666(3) -0.0245(3)
F3 F -0.2683(4) 0.3449(2) -0.1582(4)
F4 F -0.2304(6) 0.4931(2) -0.2158(4)
loop_
_geom_bond_atom_site_label_1
_geom_bond_atom_site_label_2
_geom_bond_site_symmetry_1
_geom_bond_site_symmetry_2
Ag1 N1 1_555 1_555
S1 C2 1_555 1_555
N1 C1 1_555 1_555
N2 C6 1_555 1_555
C1 H1 1_555 1_555
C2 C1 1_555 1_555
C3 C2 1_555 1_555
H2 C3 1_555 1_555
C4 C3 1_555 1_555
H3 C4 1_555 1_555
C5 N1 1_555 1_555
H4 C5 1_555 1_555
C6 H5 1_555 1_555
C7 S1 1_555 1_555
C8 C7 1_555 1_555
H6 C8 1_555 1_555
C9 C8 1_555 1_555
H7 C9 1_555 1_555
C10 N2 1_555 1_555
H8 C10 1_555 1_555
B1 F1 1_555 1_555
F2 B1 1_555 1_555
F3 B1 1_555 1_555
F4 B1 1_555 1_555
N2C Ag1 1_555 1_555
Ag1C N2 1_555 1_555
C4 C5 1_555 1_555
C6 C7 1_555 1_555
C9 C10 1_555 1_555

#END
