
#######################################################################
#
#                 Cambridge Crystallographic Data Centre
#                                CCDC 
#
#######################################################################
#
# If this CIF has been generated from an entry in the Cambridge 
# Structural Database, then it will include bibliographic, chemical, 
# crystal, experimental, refinement or atomic coordinate data resulting 
# from the CCDC's data processing and validation procedures.
#
#######################################################################

data_QOFCEU
_symmetry_cell_setting           monoclinic
_symmetry_space_group_name_H-M   'C 2/c'
_symmetry_Int_Tables_number      15
_space_group_name_Hall           '-C 2yn'
loop_
_symmetry_equiv_pos_site_id
_symmetry_equiv_pos_as_xyz
1 x,y,z
2 -x,y,1/2-z
3 1/2+x,1/2+y,z
4 1/2-x,1/2+y,1/2-z
5 -x,-y,-z
6 x,-y,1/2+z
7 1/2-x,1/2-y,-z
8 1/2+x,1/2-y,1/2+z
_cell_length_a                   9.440(2)
_cell_length_b                   10.587(2)
_cell_length_c                   13.165(3)
_cell_angle_alpha                90
_cell_angle_beta                 107.19(3)
_cell_angle_gamma                90
_cell_volume                     1256.95
loop_
_atom_site_label
_atom_site_type_symbol
_atom_site_fract_x
_atom_site_fract_y
_atom_site_fract_z
Ag1 Ag 0.5000 -0.5000 0.0000
N1 N 0.1569(3) -0.1494(3) -0.0078(3)
C1 C 0.3003(4) -0.1374(3) 0.0463(3)
C2 C 0.3513(5) -0.0120(4) 0.0952(5)
H1 H 0.2692(5) 0.0457(4) 0.0793(5)
H2 H 0.3908(5) -0.0213(4) 0.1709(5)
H3 H 0.4270(5) 0.0204(4) 0.0670(5)
C3 C 0.1042(4) -0.2591(4) -0.0557(3)
C4 C -0.0567(4) -0.2637(5) -0.1169(4)
H4 H -0.1012(4) -0.1829(5) -0.1136(4)
H5 H -0.1043(4) -0.3267(5) -0.0860(4)
H6 H -0.0680(4) -0.2849(5) -0.1898(4)
Ag1B Ag 0.0000 0.0000 0.0000
N1F N 0.3431(3) -0.3506(3) 0.0078(3)
N1B N 0.6569(3) -0.6494(3) -0.0078(3)
C1F C 0.1997(4) -0.3626(3) -0.0463(3)
C2F C 0.1487(5) -0.4880(4) -0.0952(5)
H1F H 0.2308(5) -0.5457(4) -0.0793(5)
H2F H 0.1092(5) -0.4787(4) -0.1709(5)
H3F H 0.0730(5) -0.5204(4) -0.0670(5)
C3F C 0.3958(4) -0.2409(4) 0.0557(3)
C4F C 0.5567(4) -0.2363(5) 0.1169(4)
H4F H 0.6012(4) -0.3171(5) 0.1136(4)
H5F H 0.6043(4) -0.1733(5) 0.0860(4)
H6F H 0.5680(4) -0.2151(5) 0.1898(4)
P1 P 0.0000 -0.1795(2) 0.2500
F1 F 0.0987(3) -0.1796(4) 0.3718(2)
F2 F 0.1047(4) -0.0748(4) 0.2243(3)
F3 F 0.1033(4) -0.2857(4) 0.2244(3)
F1A F -0.0987(3) -0.1796(4) 0.1282(2)
F2A F -0.1047(4) -0.0748(4) 0.2757(3)
F3A F -0.1033(4) -0.2857(4) 0.2756(3)
loop_
_geom_bond_atom_site_label_1
_geom_bond_atom_site_label_2
_geom_bond_site_symmetry_1
_geom_bond_site_symmetry_2
Ag1 N1F 1_555 1_555
P1 F1 1_555 1_555
N1 C1 1_555 1_555
C1 C2 1_555 1_555
C2 H1 1_555 1_555
H2 C2 1_555 1_555
H3 C2 1_555 1_555
C3 N1 1_555 1_555
C4 C3 1_555 1_555
H4 C4 1_555 1_555
H5 C4 1_555 1_555
H6 C4 1_555 1_555
F2 P1 1_555 1_555
F3 P1 1_555 1_555
Ag1B N1 1_555 1_555
N1F C1F 1_555 1_555
N1B Ag1 1_555 1_555
C1F C3 1_555 1_555
C2F C1F 1_555 1_555
H1F C2F 1_555 1_555
H2F C2F 1_555 1_555
H3F C2F 1_555 1_555
C3F C1 1_555 1_555
C4F C3F 1_555 1_555
H4F C4F 1_555 1_555
H5F C4F 1_555 1_555
H6F C4F 1_555 1_555
F1A P1 1_555 1_555
F2A P1 1_555 1_555
F3A P1 1_555 1_555
N1F C3F 1_555 1_555

#END
