
#######################################################################
#
#                 Cambridge Crystallographic Data Centre
#                                CCDC 
#
#######################################################################
#
# If this CIF has been generated from an entry in the Cambridge 
# Structural Database, then it will include bibliographic, chemical, 
# crystal, experimental, refinement or atomic coordinate data resulting 
# from the CCDC's data processing and validation procedures.
#
#######################################################################

data_QOFJOK
_symmetry_cell_setting           orthorhombic
_symmetry_space_group_name_H-M   'P n a 21'
_symmetry_Int_Tables_number      33
_space_group_name_Hall           'P 2c -2n'
loop_
_symmetry_equiv_pos_site_id
_symmetry_equiv_pos_as_xyz
1 x,y,z
2 -x,-y,1/2+z
3 1/2+x,1/2-y,z
4 1/2-x,1/2+y,1/2+z
_cell_length_a                   15.2049(12)
_cell_length_b                   14.2017(11)
_cell_length_c                   18.5719(14)
_cell_angle_alpha                90
_cell_angle_beta                 90
_cell_angle_gamma                90
_cell_volume                     4010.33
loop_
_atom_site_label
_atom_site_type_symbol
_atom_site_fract_x
_atom_site_fract_y
_atom_site_fract_z
Cu1 Cu 0.11662(3) -0.00115(4) 0.00198(3)
Cu2 Cu -0.18392(3) 0.44835(3) 0.08029(2)
Cu3 Cu -0.08587(3) -0.04703(3) -0.07624(2)
S1 S -0.18187(6) 0.37720(7) 0.24362(5)
O1 O 0.13457(17) -0.12413(19) 0.04638(15)
O2 O 0.08295(17) -0.07234(17) -0.08194(17)
O3 O 0.10228(17) 0.1219(2) -0.04207(16)
O4 O 0.14157(18) 0.06890(18) 0.08813(17)
O5 O -0.21113(17) 0.51061(18) -0.01113(15)
O6 O -0.17209(17) 0.33581(19) 0.01806(15)
O7 O -0.05650(17) 1.01231(18) 0.01573(14)
O8 O -0.10225(17) 0.84005(19) -0.01572(15)
O9 O -0.10125(18) 0.4145(2) 0.27759(16)
O10 O -0.20252(18) 0.28447(19) 0.27304(16)
O11 O -0.25455(17) 0.44329(19) 0.25772(15)
O12 O -0.16740(19) 0.3682(2) 0.16540(16)
O13 O -0.10287(18) -0.1202(2) -0.16588(16)
N1 N 0.10215(19) -0.1651(2) -0.0674(2)
H1 H 0.0965 -0.2083 -0.1009
N2 N 0.2600(2) -0.4909(2) -0.0763(2)
H2 H 0.2363 -0.4794 -0.1211
H3 H 0.2522 -0.5537 -0.0658
N3 N 0.1237(2) 0.1625(2) 0.0735(2)
H4 H 0.1261 0.2053 0.1078
N4 N -0.0304(2) 0.4892(2) 0.0739(2)
H5 H -0.0247 0.5516 0.0616
H6 H -0.0047 0.4805 0.1183
N5 N -0.1982(2) 0.4457(2) -0.06563(19)
H7 H -0.2013 0.4625 -0.1111
N6 N -0.0449(2) 0.0662(2) -0.13617(17)
H8 H 0.0051 0.0894 -0.1146
H9 H -0.0284 0.0436 -0.1806
N7 N -0.0653(2) 0.9456(2) 0.06869(18)
H10 H -0.0570 0.9606 0.1142
N8 N -0.2203(2) 0.5653(2) 0.13607(18)
H11 H -0.2679 0.5913 0.1129
H12 H -0.2394 0.5461 0.1807
C1 C 0.1287(2) -0.1876(3) -0.0033(2)
C2 C 0.1536(2) -0.2867(3) 0.0123(2)
C3 C 0.1891(2) -0.3435(3) -0.0412(2)
H13 H 0.1942 -0.3208 -0.0891
C4 C 0.2171(2) -0.4345(3) -0.0237(2)
C5 C 0.2096(3) -0.4674(3) 0.0465(2)
H14 H 0.2283 -0.5293 0.0583
C6 C 0.1745(3) -0.4090(3) 0.0997(2)
H15 H 0.1702 -0.4312 0.1478
C7 C 0.1460(2) -0.3195(3) 0.0831(2)
H16 H 0.1213 -0.2805 0.1194
C8 C 0.1032(2) 0.1859(3) 0.0073(3)
C9 C 0.0784(2) 0.2839(3) -0.0101(2)
C10 C 0.0393(2) 0.3415(3) 0.0414(2)
H17 H 0.0307 0.3192 0.0891
C11 C 0.0126(2) 0.4327(3) 0.0223(2)
C12 C 0.0251(3) 0.4636(3) -0.0479(2)
H18 H 0.0069 0.5252 -0.0610
C13 C 0.0635(3) 0.4065(3) -0.0986(2)
H19 H 0.0715 0.4288 -0.1464
C14 C 0.0906(2) 0.3158(3) -0.0802(2)
H20 H 0.1171 0.2762 -0.1153
C15 C -0.1813(2) 0.3579(3) -0.0475(2)
C16 C -0.1708(2) 0.2872(3) -0.1066(2)
C17 C -0.1156(2) 0.2110(3) -0.0944(2)
H21 H -0.0869 0.2040 -0.0492
C18 C -0.1026(2) 0.1451(3) -0.1486(2)
C19 C -0.1464(2) 0.1533(3) -0.2136(2)
H22 H -0.1393 0.1067 -0.2498
C20 C -0.2013(2) 0.2309(3) -0.2257(2)
H23 H -0.2297 0.2382 -0.2709
C21 C -0.2142(3) 0.2972(3) -0.1719(2)
H24 H -0.2524 0.3491 -0.1797
C22 C -0.0863(2) 0.8591(3) 0.0506(2)
C23 C -0.0913(2) 0.7846(3) 0.1070(2)
C24 C -0.1509(2) 0.7118(3) 0.0971(2)
H25 H -0.1881 0.7119 0.0560
C25 C -0.1566(2) 0.6386(3) 0.1466(2)
C26 C -0.1002(2) 0.6380(3) 0.2056(2)
H26 H -0.1015 0.5869 0.2386
C27 C -0.0421(3) 0.7120(3) 0.2159(2)
H27 H -0.0052 0.7121 0.2572
C28 C -0.0369(2) 0.7853(3) 0.1679(2)
H28 H 0.0031 0.8356 0.1757
H29 H -0.0752 -0.1612 -0.1822
H30 H -0.1349 -0.1297 -0.2023
O8_2 O -0.10225(17) -0.15995(19) -0.01572(15)
Cu3_2 Cu -0.08587(3) 0.95297(3) -0.07624(2)
O7_2 O -0.05650(17) 0.01231(18) 0.01573(14)
N2B N -0.2400(2) -0.0091(2) -0.0763(2)
Cu3B Cu 0.41413(3) -0.45297(3) -0.07624(2)
H2B H -0.2637 -0.0206 -0.1211
H3B H -0.2478 0.0537 -0.0658
O14 O -0.00407(18) 0.2779(2) 0.34295(16)
H31 H 0.0454 0.3023 0.3713
H32 H -0.0504 0.3227 0.3378
O15 O 0.1390(2) 0.3359(2) 0.4179(2)
H33 H 0.1646 0.3803 0.4524
H34 H 0.0983 0.3312 0.4540
O16 O 0.0608(2) 0.4391(2) 0.21271(17)
H35 H 0.0122 0.4226 0.2332
H36 H 0.1014 0.4568 0.2413
O17 O 0.0158(2) 1.0120(2) 0.19628(18)
H37 H 0.0427 1.0193 0.1703
H38 H -0.0036 1.0762 0.2077
O18 O -0.1633(2) 0.1519(2) 0.0810(2)
H39 H -0.1114 0.1290 0.0533
H40 H -0.1668 0.2067 0.0643
O19 O 0.1350(2) 0.2569(3) 0.2007(2)
O20 O -0.2922(3) 0.0477(3) 0.3059(3)
O21 O -0.1370(4) 0.1164(4) 0.2276(3)
O22? O 0.1866(9) 0.2967(10) 0.1745(8)
O23? O -0.1478(8) -0.0014(8) 0.2922(6)
O24? O -0.0913(9) 0.1488(10) 0.2101(8)
loop_
_geom_bond_atom_site_label_1
_geom_bond_atom_site_label_2
_geom_bond_site_symmetry_1
_geom_bond_site_symmetry_2
Cu1 O1 1_555 1_555
Cu2 O5 1_555 1_555
Cu3 O2 1_555 1_555
S1 O9 1_555 1_555
O1 C1 1_555 1_555
O2 Cu1 1_555 1_555
O3 Cu1 1_555 1_555
O4 Cu1 1_555 1_555
O5 N5 1_555 1_555
O6 Cu2 1_555 1_555
O7 N7 1_555 1_555
O8 C22 1_555 1_555
O10 S1 1_555 1_555
O11 S1 1_555 1_555
O12 Cu2 1_555 1_555
O13 Cu3 1_555 1_555
N1 O2 1_555 1_555
H1 N1 1_555 1_555
N2 H2 1_555 1_555
H3 N2 1_555 1_555
N3 O4 1_555 1_555
H4 N3 1_555 1_555
N4 Cu2 1_555 1_555
H5 N4 1_555 1_555
H6 N4 1_555 1_555
N5 H7 1_555 1_555
N6 Cu3 1_555 1_555
H8 N6 1_555 1_555
H9 N6 1_555 1_555
N7 H10 1_555 1_555
N8 Cu2 1_555 1_555
H11 N8 1_555 1_555
H12 N8 1_555 1_555
C1 N1 1_555 1_555
C2 C1 1_555 1_555
C3 C2 1_555 1_555
H13 C3 1_555 1_555
C4 N2 1_555 1_555
C5 C4 1_555 1_555
H14 C5 1_555 1_555
C6 C5 1_555 1_555
H15 C6 1_555 1_555
C7 C2 1_555 1_555
H16 C7 1_555 1_555
C8 O3 1_555 1_555
C9 C8 1_555 1_555
C10 C9 1_555 1_555
H17 C10 1_555 1_555
C11 N4 1_555 1_555
C12 C11 1_555 1_555
H18 C12 1_555 1_555
C13 C12 1_555 1_555
H19 C13 1_555 1_555
C14 C9 1_555 1_555
H20 C14 1_555 1_555
C15 O6 1_555 1_555
C16 C15 1_555 1_555
C17 C16 1_555 1_555
H21 C17 1_555 1_555
C18 N6 1_555 1_555
C19 C18 1_555 1_555
H22 C19 1_555 1_555
C20 C19 1_555 1_555
H23 C20 1_555 1_555
C21 C16 1_555 1_555
H24 C21 1_555 1_555
C22 N7 1_555 1_555
C23 C22 1_555 1_555
C24 C23 1_555 1_555
H25 C24 1_555 1_555
C25 N8 1_555 1_555
C26 C25 1_555 1_555
H26 C26 1_555 1_555
C27 C26 1_555 1_555
H27 C27 1_555 1_555
C28 C23 1_555 1_555
H28 C28 1_555 1_555
H29 O13 1_555 1_555
H30 O13 1_555 1_555
O14 H31 1_555 1_555
H32 O14 1_555 1_555
O15 H33 1_555 1_555
H34 O15 1_555 1_555
O16 H35 1_555 1_555
H36 O16 1_555 1_555
O17 H37 1_555 1_555
H38 O17 1_555 1_555
O18 H39 1_555 1_555
H40 O18 1_555 1_555
O8_2 Cu3 1_555 1_555
Cu3_2 O7 1_555 1_555
O7_2 Cu3 1_555 1_555
N2B Cu3 1_555 1_555
Cu3B N2 1_555 1_555
H2B N2B 1_555 1_555
H3B N2B 1_555 1_555
S1 O12 1_555 1_555
O8 Cu3_2 1_555 1_555
N3 C8 1_555 1_555
N5 C15 1_555 1_555
C3 C4 1_555 1_555
C6 C7 1_555 1_555
C10 C11 1_555 1_555
C13 C14 1_555 1_555
C17 C18 1_555 1_555
C20 C21 1_555 1_555
C24 C25 1_555 1_555
C27 C28 1_555 1_555

#END
