
#######################################################################
#
#                 Cambridge Crystallographic Data Centre
#                                CCDC 
#
#######################################################################
#
# If this CIF has been generated from an entry in the Cambridge 
# Structural Database, then it will include bibliographic, chemical, 
# crystal, experimental, refinement or atomic coordinate data resulting 
# from the CCDC's data processing and validation procedures.
#
#######################################################################

data_QOFKUT
_symmetry_cell_setting           tetragonal
_symmetry_space_group_name_H-M   'I 41/a'
_symmetry_Int_Tables_number      88
_space_group_name_Hall           '-I 4ad'
loop_
_symmetry_equiv_pos_site_id
_symmetry_equiv_pos_as_xyz
1 x,y,z
2 3/4-y,1/4+x,1/4+z
3 -x,1/2-y,z
4 1/4+y,1/4-x,1/4+z
5 1/2+x,1/2+y,1/2+z
6 1/4-y,3/4+x,3/4+z
7 1/2-x,-y,1/2+z
8 3/4+y,3/4-x,3/4+z
9 -x,-y,-z
10 1/4+y,3/4-x,3/4-z
11 x,1/2+y,-z
12 3/4-y,3/4+x,3/4-z
13 1/2-x,1/2-y,1/2-z
14 3/4+y,1/4-x,1/4-z
15 1/2+x,y,1/2-z
16 1/4-y,1/4+x,1/4-z
_cell_length_a                   16.6545(16)
_cell_length_b                   16.6545(16)
_cell_length_c                   16.3362(18)
_cell_angle_alpha                90
_cell_angle_beta                 90
_cell_angle_gamma                90
_cell_volume                     4531.21
loop_
_atom_site_label
_atom_site_type_symbol
_atom_site_fract_x
_atom_site_fract_y
_atom_site_fract_z
Cu1 Cu 0.30216(4) 0.28587(4) 0.85067(3)
O1 O 0.39957(19) 0.35240(19) 0.86181(19)
O2 O 0.49014(18) 0.41881(19) 0.78919(19)
O3 O 0.2374(2) 0.38928(19) 0.9122(2)
N1 N 0.2965(2) 0.2742(2) 0.6585(2)
N2 N 0.3250(2) 0.3015(2) 0.7316(2)
C1 C 0.4101(3) 0.3467(3) 0.6370(3)
C2 C 0.4303(3) 0.3735(3) 0.7946(3)
C3 C 0.3919(3) 0.3434(3) 0.7202(3)
C4 C 0.3487(3) 0.3009(3) 0.5996(3)
C5 C 0.4716(3) 0.3815(3) 0.5885(3)
H1 H 0.5119 0.4122 0.6125
C6 C 0.4704(3) 0.3689(3) 0.5061(3)
H2 H 0.5101 0.3915 0.4733
C7 C 0.3486(3) 0.2876(3) 0.5143(3)
H3 H 0.3088 0.2568 0.4894
C8 C 0.4088(3) 0.3215(3) 0.4697(3)
H4 H 0.4097 0.3133 0.4134
C9 C 0.2565(3) 0.4257(3) 0.9768(3)
N3 N 0.3130(3) 0.3992(3) 1.0260(3)
H5 H 0.324(3) 0.429(3) 1.075(2)
H6 H 0.342(3) 0.351(2) 1.015(3)
C10 C 0.2170(4) 0.5024(4) 0.9986(4)
H7 H 0.2346 0.5438 0.9618
H8 H 0.2309 0.5169 1.0537
H9 H 0.1598 0.4964 0.9943
Cu1I Cu 0.53587(4) 0.44784(4) 0.89933(3)
Cu1L Cu 0.19784(4) 0.21413(4) 0.64933(3)
O2K O 0.33119(19) 0.24014(18) 0.96081(19)
N1L N 0.2035(2) 0.2258(2) 0.8415(2)
loop_
_geom_bond_atom_site_label_1
_geom_bond_atom_site_label_2
_geom_bond_site_symmetry_1
_geom_bond_site_symmetry_2
Cu1 O1 1_555 1_555
O1 C2 1_555 1_555
O2 C2 1_555 1_555
O3 Cu1 1_555 1_555
N1 N2 1_555 1_555
N2 Cu1 1_555 1_555
C1 C3 1_555 1_555
C2 C3 1_555 1_555
C3 N2 1_555 1_555
C4 N1 1_555 1_555
C5 C1 1_555 1_555
H1 C5 1_555 1_555
C6 C5 1_555 1_555
H2 C6 1_555 1_555
C7 C4 1_555 1_555
H3 C7 1_555 1_555
C8 C6 1_555 1_555
H4 C8 1_555 1_555
C9 O3 1_555 1_555
N3 C9 1_555 1_555
H5 N3 1_555 1_555
H6 N3 1_555 1_555
C10 C9 1_555 1_555
H7 C10 1_555 1_555
H8 C10 1_555 1_555
H9 C10 1_555 1_555
Cu1I O2 1_555 1_555
Cu1L N1 1_555 1_555
O2K Cu1 1_555 1_555
N1L Cu1 1_555 1_555
C1 C4 1_555 1_555
C7 C8 1_555 1_555

#END
