
#######################################################################
#
#                 Cambridge Crystallographic Data Centre
#                                CCDC 
#
#######################################################################
#
# If this CIF has been generated from an entry in the Cambridge 
# Structural Database, then it will include bibliographic, chemical, 
# crystal, experimental, refinement or atomic coordinate data resulting 
# from the CCDC's data processing and validation procedures.
#
#######################################################################

data_QOFLAA
_symmetry_cell_setting           tetragonal
_symmetry_space_group_name_H-M   'I 41/a'
_symmetry_Int_Tables_number      88
_space_group_name_Hall           '-I 4ad'
loop_
_symmetry_equiv_pos_site_id
_symmetry_equiv_pos_as_xyz
1 x,y,z
2 3/4-y,1/4+x,1/4+z
3 -x,1/2-y,z
4 1/4+y,1/4-x,1/4+z
5 1/2+x,1/2+y,1/2+z
6 1/4-y,3/4+x,3/4+z
7 1/2-x,-y,1/2+z
8 3/4+y,3/4-x,3/4+z
9 -x,-y,-z
10 1/4+y,3/4-x,3/4-z
11 x,1/2+y,-z
12 3/4-y,3/4+x,3/4-z
13 1/2-x,1/2-y,1/2-z
14 3/4+y,1/4-x,1/4-z
15 1/2+x,y,1/2-z
16 1/4-y,1/4+x,1/4-z
_cell_length_a                   18.0584(8)
_cell_length_b                   18.0584(8)
_cell_length_c                   18.3413(11)
_cell_angle_alpha                90
_cell_angle_beta                 90
_cell_angle_gamma                90
_cell_volume                     5981.2
loop_
_atom_site_label
_atom_site_type_symbol
_atom_site_fract_x
_atom_site_fract_y
_atom_site_fract_z
Cu1 Cu 0.19358(3) 0.74298(3) 0.34219(3)
O1 O 0.3884(2) 0.8285(2) 0.13296(18)
O2 O 0.45155(19) 0.92325(19) 0.18098(19)
N1 N 0.3051(2) 0.8139(2) 0.2488(2)
N2 N 0.2675(2) 0.8171(2) 0.3123(2)
O3 O 0.2837(2) 0.6762(2) 0.4056(2)
C1 C 0.4031(3) 0.8733(3) 0.1830(3)
C2 C 0.3531(3) 0.9074(3) 0.3151(3)
H1 H 0.3818 0.9473 0.3300
C3 C 0.2966(3) 0.8730(3) 0.3526(3)
H2 H 0.2807 0.8863 0.3990
C4 C 0.3572(3) 0.8682(3) 0.2494(3)
N3 N 0.3493(4) 0.5973(4) 0.3359(4)
C5 C 0.3377(4) 0.6553(5) 0.3712(3)
C6 C 0.4094(4) 0.7023(5) 0.3628(4)
H3 H 0.3977 0.7533 0.3511
H4 H 0.4386 0.7012 0.4072
C7 C 0.4487(5) 0.6672(5) 0.3035(5)
H5 H 0.5016 0.6670 0.3128
H6 H 0.4395 0.6931 0.2581
C8 C 0.4171(5) 0.5834(5) 0.2994(4)
H7 H 0.4098 0.5667 0.2497
H8 H 0.4482 0.5485 0.3255
C9 C 0.2923(5) 0.5372(5) 0.3382(7)
H9 H 0.2665 0.5391 0.3839
H10 H 0.3162 0.4900 0.3332
H11 H 0.2578 0.5440 0.2990
Cu1E Cu 0.50702(3) 0.94358(3) 0.09219(3)
Cu1L Cu 0.30642(3) 0.75702(3) 0.15781(3)
O1L O 0.1116(2) 0.6715(2) 0.36704(18)
O2C O 0.17325(19) 0.79845(19) 0.43098(19)
N1L N 0.1949(2) 0.6861(2) 0.2512(2)
loop_
_geom_bond_atom_site_label_1
_geom_bond_atom_site_label_2
_geom_bond_site_symmetry_1
_geom_bond_site_symmetry_2
Cu1 N2 1_555 1_555
O1 C1 1_555 1_555
O2 C1 1_555 1_555
N1 N2 1_555 1_555
N2 C3 1_555 1_555
O3 Cu1 1_555 1_555
C1 C4 1_555 1_555
C2 H1 1_555 1_555
C3 C2 1_555 1_555
H2 C3 1_555 1_555
C4 N1 1_555 1_555
N3 C5 1_555 1_555
C5 O3 1_555 1_555
C6 C5 1_555 1_555
H3 C6 1_555 1_555
H4 C6 1_555 1_555
C7 C6 1_555 1_555
H5 C7 1_555 1_555
H6 C7 1_555 1_555
C8 N3 1_555 1_555
H7 C8 1_555 1_555
H8 C8 1_555 1_555
C9 N3 1_555 1_555
H9 C9 1_555 1_555
H10 C9 1_555 1_555
H11 C9 1_555 1_555
Cu1E O2 1_555 1_555
Cu1L O1 1_555 1_555
O1L Cu1 1_555 1_555
O2C Cu1 1_555 1_555
N1L Cu1 1_555 1_555
N1 Cu1L 1_555 1_555
C2 C4 1_555 1_555
C7 C8 1_555 1_555

#END
