
#######################################################################
#
#                 Cambridge Crystallographic Data Centre
#                                CCDC 
#
#######################################################################
#
# If this CIF has been generated from an entry in the Cambridge 
# Structural Database, then it will include bibliographic, chemical, 
# crystal, experimental, refinement or atomic coordinate data resulting 
# from the CCDC's data processing and validation procedures.
#
#######################################################################

data_QOFNEF
_symmetry_cell_setting           tetragonal
_symmetry_space_group_name_H-M   'P 43 21 2'
_symmetry_Int_Tables_number      96
_space_group_name_Hall           'P 4nw 2abw'
loop_
_symmetry_equiv_pos_site_id
_symmetry_equiv_pos_as_xyz
1 x,y,z
2 -x,-y,1/2+z
3 1/2-y,1/2+x,3/4+z
4 1/2+y,1/2-x,1/4+z
5 1/2-x,1/2+y,3/4-z
6 1/2+x,1/2-y,1/4-z
7 y,x,-z
8 -y,-x,1/2-z
_cell_length_a                   11.4381(4)
_cell_length_b                   11.4381(4)
_cell_length_c                   34.847(3)
_cell_angle_alpha                90
_cell_angle_beta                 90
_cell_angle_gamma                90
_cell_volume                     4559.04
loop_
_atom_site_label
_atom_site_type_symbol
_atom_site_fract_x
_atom_site_fract_y
_atom_site_fract_z
Zn1 Zn 0.67783(2) 0.67783(2) 0.0000
Fe1 Fe 0.61265(3) 0.18804(3) 0.189090(10)
S1 S 0.63271(5) 0.66500(5) 0.100715(16)
O1 O 0.68123(14) 0.67611(14) 0.06182(4)
O2 O 0.52131(16) 0.6052(2) 0.10033(6)
O3 O 0.6349(2) 0.77507(18) 0.12042(6)
N1 N 0.68484(16) 0.86919(15) 0.00072(5)
N2 N 0.68038(16) 0.48919(14) 0.00026(5)
C1 C 0.7337(2) 0.5724(2) 0.12476(6)
C2 C 0.7015(2) 0.4587(2) 0.13414(6)
H1 H 0.6270 0.4318 0.1282
C3 C 0.7811(2) 0.3848(2) 0.15252(6)
C4 C 0.8913(2) 0.4280(2) 0.16103(7)
H2 H 0.9448 0.3802 0.1735
C5 C 0.9234(2) 0.5413(2) 0.15131(7)
H3 H 0.9982 0.5682 0.1570
C6 C 0.8445(2) 0.6141(2) 0.13324(6)
H4 H 0.8654 0.6902 0.1268
C7 C 0.7523(2) 0.2615(2) 0.16111(7)
C8 C 0.7917(2) 0.1949(2) 0.19318(8)
H5 H 0.8363 0.2249 0.2151
C9 C 0.7540(3) 0.0780(2) 0.18808(10)
H6 H 0.7681 0.0134 0.2060
C10 C 0.6911(3) 0.0703(2) 0.15325(9)
H7 H 0.6552 -0.0004 0.1426
C11 C 0.6891(3) 0.1844(2) 0.13657(7)
H8 H 0.6516 0.2058 0.1123
C12 C 0.5055(3) 0.3189(3) 0.20870(9)
H9 H 0.5207 0.4030 0.2069
C13 C 0.4460(3) 0.2496(3) 0.18107(10)
H10 H 0.4133 0.2778 0.1568
C14 C 0.4429(3) 0.1335(3) 0.19441(9)
H11 H 0.4072 0.0668 0.1812
C15 C 0.4998(3) 0.1303(3) 0.23053(8)
H12 H 0.5105 0.0610 0.2467
C16 C 0.5384(3) 0.2454(3) 0.23920(8)
H13 H 0.5806 0.2693 0.2624
C17 C 0.6952(2) 0.9300(2) 0.03353(7)
H14 H 0.7005 0.8889 0.0565
C18 C 0.6983(2) 1.0510(2) 0.03482(7)
H15 H 0.7041 1.0895 0.0582
C19 C 0.6927(2) 1.11469(18) 0.00064(7)
C20 C 0.6871(3) 1.0519(2) -0.03316(7)
H16 H 0.6864 1.0906 -0.0566
C21 C 0.6826(3) 0.9309(2) -0.03183(7)
H17 H 0.6778 0.8904 -0.0549
C22 C 0.6897(2) 1.24437(18) 0.00088(6)
C23 C 0.6254(2) 1.3063(2) 0.02802(6)
H18 H 0.5843 1.2664 0.0470
C24 C 0.6227(2) 0.42692(19) 0.02679(6)
H19 H 0.5790 0.4666 0.0451
C25 C 0.7416(2) 0.4295(2) -0.02578(6)
H20 H 0.7819 0.4715 -0.0444
C26 C 0.7486(2) 1.3093(2) -0.02667(6)
H21 H 0.7924 1.2721 -0.0455
Zn1_2 Zn 0.67783(2) 1.67783(2) 0.0000
Zn1_3 Zn 0.67783(2) -0.32217(2) 0.0000
Fe1F Fe 0.18804(3) 0.61265(3) -0.189090(10)
S1F S 0.66500(5) 0.63271(5) -0.100715(16)
O1F O 0.67611(14) 0.68123(14) -0.06182(4)
O2F O 0.6052(2) 0.52131(16) -0.10033(6)
O3F O 0.77507(18) 0.6349(2) -0.12042(6)
N1F N 0.86919(15) 0.68484(16) -0.00072(5)
N1_2 N 0.68484(16) -0.13081(15) 0.00072(5)
N2_2 N 0.68038(16) 1.48919(14) 0.00026(5)
N2F N 0.48919(14) 0.68038(16) -0.00026(5)
C1F C 0.5724(2) 0.7337(2) -0.12476(6)
C2F C 0.4587(2) 0.7015(2) -0.13414(6)
H1F H 0.4318 0.6270 -0.1282
C3F C 0.3848(2) 0.7811(2) -0.15252(6)
C4F C 0.4280(2) 0.8913(2) -0.16103(7)
H2F H 0.3802 0.9448 -0.1735
C5F C 0.5413(2) 0.9234(2) -0.15131(7)
H3F H 0.5682 0.9982 -0.1570
C6F C 0.6141(2) 0.8445(2) -0.13324(6)
H4F H 0.6902 0.8654 -0.1268
C7F C 0.2615(2) 0.7523(2) -0.16111(7)
C8F C 0.1949(2) 0.7917(2) -0.19318(8)
H5F H 0.2249 0.8363 -0.2151
C9F C 0.0780(2) 0.7540(3) -0.18808(10)
H6F H 0.0134 0.7681 -0.2060
C10F C 0.0703(2) 0.6911(3) -0.15325(9)
H7F H -0.0004 0.6552 -0.1426
C11F C 0.1844(2) 0.6891(3) -0.13657(7)
H8F H 0.2058 0.6516 -0.1123
C12F C 0.3189(3) 0.5055(3) -0.20870(9)
H9F H 0.4030 0.5207 -0.2069
C13F C 0.2496(3) 0.4460(3) -0.18107(10)
H10F H 0.2778 0.4133 -0.1568
C14F C 0.1335(3) 0.4429(3) -0.19441(9)
H11F H 0.0668 0.4072 -0.1812
C15F C 0.1303(3) 0.4998(3) -0.23053(8)
H12F H 0.0610 0.5105 -0.2467
C16F C 0.2454(3) 0.5384(3) -0.23920(8)
H13F H 0.2693 0.5806 -0.2624
C17_2 C 0.6952(2) -0.0700(2) 0.03353(7)
H14_2 H 0.7005 -0.1111 0.0565
C18_2 C 0.6983(2) 0.0510(2) 0.03482(7)
H15_2 H 0.7041 0.0895 0.0582
C19_2 C 0.6927(2) 0.11469(18) 0.00064(7)
C20_2 C 0.6871(3) 0.0519(2) -0.03316(7)
H16_2 H 0.6864 0.0906 -0.0566
C21_2 C 0.6826(3) -0.0691(2) -0.03183(7)
H17_2 H 0.6778 -0.1096 -0.0549
C22_2 C 0.6897(2) 0.24437(18) 0.00088(6)
C23_2 C 0.6254(2) 0.3063(2) 0.02802(6)
H18_2 H 0.5843 0.2664 0.0470
C24_2 C 0.6227(2) 1.42692(19) 0.02679(6)
H19_2 H 0.5790 1.4666 0.0451
C25_2 C 0.7416(2) 1.4295(2) -0.02578(6)
H20_2 H 0.7819 1.4715 -0.0444
C26_2 C 0.7486(2) 0.3093(2) -0.02667(6)
H21_2 H 0.7924 0.2721 -0.0455
loop_
_geom_bond_atom_site_label_1
_geom_bond_atom_site_label_2
_geom_bond_site_symmetry_1
_geom_bond_site_symmetry_2
Zn1 O1 1_555 1_555
Fe1 C7 1_555 1_555
S1 O1 1_555 1_555
O2 S1 1_555 1_555
O3 S1 1_555 1_555
N1 Zn1 1_555 1_555
N2 Zn1 1_555 1_555
C1 S1 1_555 1_555
C2 C1 1_555 1_555
H1 C2 1_555 1_555
C3 C2 1_555 1_555
C4 C3 1_555 1_555
H2 C4 1_555 1_555
C5 C4 1_555 1_555
H3 C5 1_555 1_555
C6 C1 1_555 1_555
H4 C6 1_555 1_555
C7 C3 1_555 1_555
C8 Fe1 1_555 1_555
H5 C8 1_555 1_555
C9 Fe1 1_555 1_555
H6 C9 1_555 1_555
C10 Fe1 1_555 1_555
H7 C10 1_555 1_555
C11 Fe1 1_555 1_555
H8 C11 1_555 1_555
C12 Fe1 1_555 1_555
H9 C12 1_555 1_555
C13 Fe1 1_555 1_555
H10 C13 1_555 1_555
C14 Fe1 1_555 1_555
H11 C14 1_555 1_555
C15 Fe1 1_555 1_555
H12 C15 1_555 1_555
C16 Fe1 1_555 1_555
H13 C16 1_555 1_555
C17 N1 1_555 1_555
H14 C17 1_555 1_555
C18 C17 1_555 1_555
H15 C18 1_555 1_555
C19 C18 1_555 1_555
C20 C19 1_555 1_555
H16 C20 1_555 1_555
C21 N1 1_555 1_555
H17 C21 1_555 1_555
C22 C19 1_555 1_555
C23 C22 1_555 1_555
H18 C23 1_555 1_555
C24 N2 1_555 1_555
H19 C24 1_555 1_555
C25 N2 1_555 1_555
H20 C25 1_555 1_555
C26 C22 1_555 1_555
H21 C26 1_555 1_555
Zn1_2 N2_2 1_555 1_555
Zn1_3 N1_2 1_555 1_555
Fe1F C7F 1_555 1_555
S1F O1F 1_555 1_555
O1F Zn1 1_555 1_555
O2F S1F 1_555 1_555
O3F S1F 1_555 1_555
N1F Zn1 1_555 1_555
N1_2 C17_2 1_555 1_555
N2_2 C24_2 1_555 1_555
N2F Zn1 1_555 1_555
C1F S1F 1_555 1_555
C2F C1F 1_555 1_555
H1F C2F 1_555 1_555
C3F C2F 1_555 1_555
C4F C3F 1_555 1_555
H2F C4F 1_555 1_555
C5F C4F 1_555 1_555
H3F C5F 1_555 1_555
C6F C1F 1_555 1_555
H4F C6F 1_555 1_555
C7F C3F 1_555 1_555
C8F Fe1F 1_555 1_555
H5F C8F 1_555 1_555
C9F Fe1F 1_555 1_555
H6F C9F 1_555 1_555
C10F Fe1F 1_555 1_555
H7F C10F 1_555 1_555
C11F Fe1F 1_555 1_555
H8F C11F 1_555 1_555
C12F Fe1F 1_555 1_555
H9F C12F 1_555 1_555
C13F Fe1F 1_555 1_555
H10F C13F 1_555 1_555
C14F Fe1F 1_555 1_555
H11F C14F 1_555 1_555
C15F Fe1F 1_555 1_555
H12F C15F 1_555 1_555
C16F Fe1F 1_555 1_555
H13F C16F 1_555 1_555
C17_2 H14_2 1_555 1_555
C18_2 C17_2 1_555 1_555
H15_2 C18_2 1_555 1_555
C19_2 C18_2 1_555 1_555
C20_2 C19_2 1_555 1_555
H16_2 C20_2 1_555 1_555
C21_2 N1_2 1_555 1_555
H17_2 C21_2 1_555 1_555
C22_2 C19_2 1_555 1_555
C23_2 C24 1_555 1_555
H18_2 C23_2 1_555 1_555
C24_2 C23 1_555 1_555
H19_2 C24_2 1_555 1_555
C25_2 C26 1_555 1_555
H20_2 C25_2 1_555 1_555
C26_2 C25 1_555 1_555
H21_2 C26_2 1_555 1_555
C5 C6 1_555 1_555
C7 C8 1_555 1_555
C7 C11 1_555 1_555
C8 C9 1_555 1_555
C9 C10 1_555 1_555
C10 C11 1_555 1_555
C12 C13 1_555 1_555
C12 C16 1_555 1_555
C13 C14 1_555 1_555
C14 C15 1_555 1_555
C15 C16 1_555 1_555
C20 C21 1_555 1_555
N2_2 C25_2 1_555 1_555
C5F C6F 1_555 1_555
C7F C8F 1_555 1_555
C7F C11F 1_555 1_555
C8F C9F 1_555 1_555
C9F C10F 1_555 1_555
C10F C11F 1_555 1_555
C12F C13F 1_555 1_555
C12F C16F 1_555 1_555
C13F C14F 1_555 1_555
C14F C15F 1_555 1_555
C15F C16F 1_555 1_555
C20_2 C21_2 1_555 1_555
C22_2 C23_2 1_555 1_555
C22_2 C26_2 1_555 1_555

#END
