
#######################################################################
#
#                 Cambridge Crystallographic Data Centre
#                                CCDC 
#
#######################################################################
#
# If this CIF has been generated from an entry in the Cambridge 
# Structural Database, then it will include bibliographic, chemical, 
# crystal, experimental, refinement or atomic coordinate data resulting 
# from the CCDC's data processing and validation procedures.
#
#######################################################################

data_QOFREJ
_symmetry_cell_setting           triclinic
_symmetry_space_group_name_H-M   'P -1'
_symmetry_Int_Tables_number      2
_space_group_name_Hall           '-P 1'
loop_
_symmetry_equiv_pos_site_id
_symmetry_equiv_pos_as_xyz
1 x,y,z
2 -x,-y,-z
_cell_length_a                   9.923(2)
_cell_length_b                   10.027(3)
_cell_length_c                   10.959(6)
_cell_angle_alpha                107.29(3)
_cell_angle_beta                 97.57(4)
_cell_angle_gamma                115.099(18)
_cell_volume                     899.934
loop_
_atom_site_label
_atom_site_type_symbol
_atom_site_fract_x
_atom_site_fract_y
_atom_site_fract_z
Sn1 Sn 0.17824(3) 0.00480(4) 0.54080(3)
Se1 Se 0.40332(5) 0.22561(6) 0.73494(5)
Se2 Se 0.21486(6) -0.22350(6) 0.42310(5)
Se3 Se 0.07348(6) 0.11856(6) 0.39386(5)
Mn1 Mn 0.64619(8) 0.18803(9) 0.75410(7)
N1 N 0.5999(4) -0.0483(5) 0.7619(4)
C1 C 0.5372(6) -0.1848(7) 0.6541(6)
H1 H 0.5226 -0.1806 0.5700
C2 C 0.4928(7) -0.3328(7) 0.6613(7)
H2 H 0.4490 -0.4259 0.5842
C3 C 0.5160(7) -0.3370(7) 0.7869(7)
H3 H 0.4853 -0.4344 0.7954
C4 C 0.5844(6) -0.1975(7) 0.8990(7)
H4 H 0.6034 -0.1992 0.9838
C5 C 0.6247(5) -0.0548(6) 0.8848(5)
C6 C 0.7003(5) 0.1021(6) 0.9996(5)
C7 C 0.7382(6) 0.1209(7) 1.1337(6)
H5 H 0.7166 0.0324 1.1552
C8 C 0.8080(6) 0.2722(8) 1.2329(5)
H6 H 0.8349 0.2871 1.3223
C9 C 0.8383(6) 0.4036(7) 1.1984(5)
H7 H 0.8853 0.5066 1.2642
C10 C 0.7970(5) 0.3770(6) 1.0647(5)
N2 N 0.7280(4) 0.2294(5) 0.9670(4)
C11 C 0.8279(5) 0.5078(6) 1.0152(5)
C12 C 0.8952(6) 0.6673(7) 1.0983(6)
H8 H 0.9205 0.6983 1.1907
C13 C 0.9247(7) 0.7807(6) 1.0440(6)
H9 H 0.9702 0.8886 1.0992
C14 C 0.8858(6) 0.7324(6) 0.9068(6)
H10 H 0.9065 0.8068 0.8678
C15 C 0.8157(6) 0.5710(6) 0.8289(5)
H11 H 0.7871 0.5380 0.7363
N3 N 0.7866(4) 0.4592(5) 0.8802(4)
Sn1A Sn -0.17824(3) -0.00480(4) 0.45920(3)
Se2A Se 0.78514(6) 0.22350(6) 0.57690(5)
Se3A Se -0.07348(6) -0.11856(6) 0.60614(5)
Mn1A Mn 0.35381(8) -0.18803(9) 0.24590(7)
loop_
_geom_bond_atom_site_label_1
_geom_bond_atom_site_label_2
_geom_bond_site_symmetry_1
_geom_bond_site_symmetry_2
Sn1 Se1 1_555 1_555
Se1 Mn1 1_555 1_555
Se2 Sn1 1_555 1_555
Se3 Sn1 1_555 1_555
Mn1 N1 1_555 1_555
N1 C1 1_555 1_555
C1 H1 1_555 1_555
C2 C1 1_555 1_555
H2 C2 1_555 1_555
C3 C2 1_555 1_555
H3 C3 1_555 1_555
C4 C3 1_555 1_555
H4 C4 1_555 1_555
C5 N1 1_555 1_555
C6 C5 1_555 1_555
C7 C6 1_555 1_555
H5 C7 1_555 1_555
C8 C7 1_555 1_555
H6 C8 1_555 1_555
C9 C8 1_555 1_555
H7 C9 1_555 1_555
C10 C9 1_555 1_555
N2 Mn1 1_555 1_555
C11 C10 1_555 1_555
C12 C11 1_555 1_555
H8 C12 1_555 1_555
C13 C12 1_555 1_555
H9 C13 1_555 1_555
C14 C13 1_555 1_555
H10 C14 1_555 1_555
C15 C14 1_555 1_555
H11 C15 1_555 1_555
N3 Mn1 1_555 1_555
Sn1A Se3 1_555 1_555
Se2A Mn1 1_555 1_555
Se3A Sn1 1_555 1_555
Mn1A Se2 1_555 1_555
C4 C5 1_555 1_555
C6 N2 1_555 1_555
C10 N2 1_555 1_555
C11 N3 1_555 1_555
C15 N3 1_555 1_555
Sn1A Se3A 1_555 1_555

#END
