
#######################################################################
#
#                 Cambridge Crystallographic Data Centre
#                                CCDC 
#
#######################################################################
#
# If this CIF has been generated from an entry in the Cambridge 
# Structural Database, then it will include bibliographic, chemical, 
# crystal, experimental, refinement or atomic coordinate data resulting 
# from the CCDC's data processing and validation procedures.
#
#######################################################################

data_QOFSOV
_symmetry_cell_setting           triclinic
_symmetry_space_group_name_H-M   'P -1'
_symmetry_Int_Tables_number      2
_space_group_name_Hall           '-P 1'
loop_
_symmetry_equiv_pos_site_id
_symmetry_equiv_pos_as_xyz
1 x,y,z
2 -x,-y,-z
_cell_length_a                   10.677(2)
_cell_length_b                   11.349(2)
_cell_length_c                   13.181(3)
_cell_angle_alpha                115.25(3)
_cell_angle_beta                 96.79(3)
_cell_angle_gamma                106.40(3)
_cell_volume                     1332.35
loop_
_atom_site_label
_atom_site_type_symbol
_atom_site_fract_x
_atom_site_fract_y
_atom_site_fract_z
Cu1 Cu 0.39776(5) 0.51243(6) 0.57655(4)
Cu2 Cu 0.47311(5) 0.81826(6) 0.87369(5)
Cu3 Cu 0.22754(5) 0.89833(6) 0.93047(4)
O1 O 0.5225(3) 0.5284(4) 0.7338(3)
O2 O 0.5624(3) 0.7087(3) 0.9110(3)
N1 N 0.4599(4) 0.3701(4) 0.4613(3)
N2 N 0.4403(4) 0.2533(5) 0.4481(3)
N3 N 0.4189(5) 0.1429(5) 0.4341(4)
N4 N 0.3400(4) 0.6669(4) 0.6690(3)
N5 N 0.2242(4) 0.6540(4) 0.6652(3)
N6 N 0.1164(4) 0.6487(5) 0.6683(4)
N7 N 0.3123(3) 0.7653(4) 0.9329(3)
N8 N 0.2663(4) 0.6604(5) 0.9404(3)
N9 N 0.2249(6) 0.5619(5) 0.9483(5)
N10 N 0.3899(3) 0.9586(4) 0.8811(3)
N11 N 0.4219(4) 1.0318(4) 0.8360(3)
N12 N 0.4545(5) 1.0988(5) 0.7942(4)
N13 N 0.6375(3) 0.9194(4) 0.8474(3)
N14 N 0.7227(3) 0.8728(4) 0.8231(3)
N15 N 0.8118(4) 0.8355(4) 0.8047(3)
N16 N 0.0657(3) 0.8437(4) 0.9881(3)
N17 N 0.0791(4) 0.8144(5) 1.0663(4)
N18 N 0.0913(5) 0.7858(7) 1.1384(5)
N19 N 0.1346(3) 1.0181(4) 0.9117(3)
N20 N 0.1637(4) 1.0942(4) 0.8694(3)
N21 N 0.1907(5) 1.1672(5) 0.8313(4)
N22 N 0.7319(3) 0.4701(4) 0.7930(3)
N23 N 1.2322(3) 0.3656(4) 0.5618(3)
C1 C 0.5852(4) 0.6078(5) 0.8367(4)
C2 C 0.7102(4) 0.5871(5) 0.8859(3)
H1 H 0.7896 0.6723 0.9167
H2 H 0.6964 0.5669 0.9491
C3 C 0.6614(5) 0.3400(5) 0.7693(4)
H3 H 0.6101 0.3250 0.8180
C4 C 0.8078(4) 0.4939(5) 0.7251(4)
H4 H 0.8586 0.5856 0.7443
C5 C 0.8115(4) 0.3845(5) 0.6274(4)
H5 H 0.8645 0.4019 0.5806
C6 C 0.6642(4) 0.2280(5) 0.6734(4)
H6 H 0.6168 0.1375 0.6590
C7 C 0.7355(4) 0.2470(5) 0.5984(4)
C8 C 0.7322(4) 0.1228(5) 0.4914(4)
H7 H 0.7421 0.1481 0.4304
H8 H 0.6445 0.0476 0.4643
C9 C 0.8441(4) 0.0700(5) 0.5131(4)
H9 H 0.8423 0.0570 0.5811
H10 H 0.8268 -0.0203 0.4466
C10 C 0.9827(4) 0.1705(4) 0.5322(4)
C11 C 1.0719(4) 0.2613(5) 0.6410(4)
H11 H 1.0501 0.2589 0.7066
C12 C 1.0238(4) 0.1786(5) 0.4390(4)
H12 H 0.9678 0.1174 0.3636
C13 C 1.1447(4) 0.2750(5) 0.4568(4)
H13 H 1.1682 0.2784 0.3921
C14 C 1.1947(4) 0.3566(5) 0.6525(4)
H14 H 1.2539 0.4172 0.7267
Cu4 Cu 0.0000 1.0000 1.0000
Cu1A Cu -0.39776(5) 1.48757(6) 1.42345(4)
Cu2A Cu -0.47311(5) 1.18174(6) 1.12631(5)
Cu3A Cu -0.22754(5) 1.10167(6) 1.06953(4)
O1A O -0.5225(3) 1.4716(4) 1.2662(3)
O2A O -0.5624(3) 1.2913(3) 1.0890(3)
N1A N -0.4599(4) 1.6299(4) 1.5387(3)
N2A N -0.4403(4) 1.7467(5) 1.5519(3)
N3A N -0.4189(5) 1.8571(5) 1.5659(4)
N4A N -0.3400(4) 1.3331(4) 1.3310(3)
N5A N -0.2242(4) 1.3460(4) 1.3348(3)
N6A N -0.1164(4) 1.3513(5) 1.3317(4)
N7A N -0.3123(3) 1.2347(4) 1.0671(3)
N8A N -0.2663(4) 1.3396(5) 1.0596(3)
N9A N -0.2249(6) 1.4381(5) 1.0517(5)
N10A N -0.3899(3) 1.0414(4) 1.1189(3)
N11A N -0.4219(4) 0.9682(4) 1.1640(3)
N12A N -0.4545(5) 0.9012(5) 1.2058(4)
N13A N -0.6375(3) 1.0806(4) 1.1526(3)
N14A N -0.7227(3) 1.1272(4) 1.1769(3)
N15A N -0.8118(4) 1.1645(4) 1.1953(3)
N16A N -0.0657(3) 1.1563(4) 1.0119(3)
N17A N -0.0791(4) 1.1856(5) 0.9337(4)
N18A N -0.0913(5) 1.2142(7) 0.8616(5)
N19A N -0.1346(3) 0.9819(4) 1.0883(3)
N20A N -0.1637(4) 0.9058(4) 1.1306(3)
N21A N -0.1907(5) 0.8328(5) 1.1687(4)
N22A N -0.7319(3) 1.5299(4) 1.2070(3)
N23A N -1.2322(3) 1.6344(4) 1.4382(3)
C1A C -0.5852(4) 1.3922(5) 1.1633(4)
C2A C -0.7102(4) 1.4129(5) 1.1141(3)
H1A H -0.7896 1.3277 1.0833
H2A H -0.6964 1.4331 1.0509
C3A C -0.6614(5) 1.6600(5) 1.2307(4)
H3A H -0.6101 1.6750 1.1820
C4A C -0.8078(4) 1.5061(5) 1.2749(4)
H4A H -0.8586 1.4144 1.2557
C5A C -0.8115(4) 1.6155(5) 1.3726(4)
H5A H -0.8645 1.5981 1.4194
C6A C -0.6642(4) 1.7720(5) 1.3266(4)
H6A H -0.6168 1.8625 1.3410
C7A C -0.7355(4) 1.7530(5) 1.4016(4)
C8A C -0.7322(4) 1.8772(5) 1.5086(4)
H7A H -0.7421 1.8519 1.5696
H8A H -0.6445 1.9524 1.5357
C9A C -0.8441(4) 1.9300(5) 1.4869(4)
H9A H -0.8423 1.9430 1.4189
H10A H -0.8268 2.0203 1.5534
C10A C -0.9827(4) 1.8295(4) 1.4678(4)
C11A C -1.0719(4) 1.7387(5) 1.3590(4)
H11A H -1.0501 1.7411 1.2934
C12A C -1.0238(4) 1.8214(5) 1.5610(4)
H12A H -0.9678 1.8826 1.6364
C13A C -1.1447(4) 1.7250(5) 1.5432(4)
H13A H -1.1682 1.7216 1.6079
C14A C -1.1947(4) 1.6434(5) 1.3475(4)
H14A H -1.2539 1.5828 1.2733
Cu1_2 Cu -0.60224(5) 1.51243(6) 1.57655(4)
Cu1_3 Cu 1.39776(5) 0.51243(6) 0.57655(4)
Cu1A_2 Cu -1.39776(5) 1.48757(6) 1.42345(4)
Cu1A_3 Cu 0.60224(5) 0.48757(6) 0.42345(4)
Cu3_2 Cu -0.77246(5) 0.89833(6) 0.93047(4)
Cu3A_2 Cu 0.77246(5) 1.10167(6) 1.06953(4)
N1_2 N -0.5401(4) 1.3701(4) 1.4613(3)
N1A_2 N 0.5401(4) 0.6299(4) 0.5387(3)
N13_2 N -0.3625(3) 0.9194(4) 0.8474(3)
N13A_2 N 0.3625(3) 1.0806(4) 1.1526(3)
N15_2 N -0.1882(4) 0.8355(4) 0.8047(3)
N15A_2 N 0.1882(4) 1.1645(4) 1.1953(3)
N23_2 N 0.2322(3) 0.3656(4) 0.5618(3)
N23A_2 N -0.2322(3) 1.6344(4) 1.4382(3)
Cu4_2 Cu -1.0000 1.0000 1.0000
Cu4_3 Cu 1.0000 1.0000 1.0000
loop_
_geom_bond_atom_site_label_1
_geom_bond_atom_site_label_2
_geom_bond_site_symmetry_1
_geom_bond_site_symmetry_2
Cu1 O1 1_555 1_555
Cu2 O2 1_555 1_555
Cu3 N7 1_555 1_555
O1 C1 1_555 1_555
O2 C1 1_555 1_555
N1 Cu1 1_555 1_555
N2 N1 1_555 1_555
N3 N2 1_555 1_555
N4 Cu1 1_555 1_555
N5 N4 1_555 1_555
N6 N5 1_555 1_555
N7 Cu2 1_555 1_555
N8 N7 1_555 1_555
N9 N8 1_555 1_555
N10 Cu2 1_555 1_555
N11 N10 1_555 1_555
N12 N11 1_555 1_555
N13 Cu2 1_555 1_555
N14 N13 1_555 1_555
N15 N14 1_555 1_555
N16 Cu3 1_555 1_555
N17 N16 1_555 1_555
N18 N17 1_555 1_555
N19 Cu3 1_555 1_555
N20 N19 1_555 1_555
N21 N20 1_555 1_555
N22 C2 1_555 1_555
N23 C13 1_555 1_555
C1 C2 1_555 1_555
C2 H1 1_555 1_555
H2 C2 1_555 1_555
C3 N22 1_555 1_555
H3 C3 1_555 1_555
C4 N22 1_555 1_555
H4 C4 1_555 1_555
C5 C4 1_555 1_555
H5 C5 1_555 1_555
C6 C3 1_555 1_555
H6 C6 1_555 1_555
C7 C5 1_555 1_555
C8 C7 1_555 1_555
H7 C8 1_555 1_555
H8 C8 1_555 1_555
C9 C8 1_555 1_555
H9 C9 1_555 1_555
H10 C9 1_555 1_555
C10 C9 1_555 1_555
C11 C10 1_555 1_555
H11 C11 1_555 1_555
C12 C10 1_555 1_555
H12 C12 1_555 1_555
C13 C12 1_555 1_555
H13 C13 1_555 1_555
C14 N23 1_555 1_555
H14 C14 1_555 1_555
Cu4 N16 1_555 1_555
Cu1A O1A 1_555 1_555
Cu2A O2A 1_555 1_555
Cu3A N7A 1_555 1_555
O1A C1A 1_555 1_555
O2A C1A 1_555 1_555
N1A Cu1A 1_555 1_555
N2A N1A 1_555 1_555
N3A N2A 1_555 1_555
N4A Cu1A 1_555 1_555
N5A N4A 1_555 1_555
N6A N5A 1_555 1_555
N7A Cu2A 1_555 1_555
N8A N7A 1_555 1_555
N9A N8A 1_555 1_555
N10A Cu2A 1_555 1_555
N11A N10A 1_555 1_555
N12A N11A 1_555 1_555
N13A Cu2A 1_555 1_555
N14A N13A 1_555 1_555
N15A N14A 1_555 1_555
N16A Cu4 1_555 1_555
N17A N16A 1_555 1_555
N18A N17A 1_555 1_555
N19A Cu4 1_555 1_555
N20A N19A 1_555 1_555
N21A N20A 1_555 1_555
N22A C2A 1_555 1_555
N23A C13A 1_555 1_555
C1A C2A 1_555 1_555
C2A H1A 1_555 1_555
H2A C2A 1_555 1_555
C3A N22A 1_555 1_555
H3A C3A 1_555 1_555
C4A N22A 1_555 1_555
H4A C4A 1_555 1_555
C5A C4A 1_555 1_555
H5A C5A 1_555 1_555
C6A C3A 1_555 1_555
H6A C6A 1_555 1_555
C7A C5A 1_555 1_555
C8A C7A 1_555 1_555
H7A C8A 1_555 1_555
H8A C8A 1_555 1_555
C9A C8A 1_555 1_555
H9A C9A 1_555 1_555
H10A C9A 1_555 1_555
C10A C9A 1_555 1_555
C11A C10A 1_555 1_555
H11A C11A 1_555 1_555
C12A C10A 1_555 1_555
H12A C12A 1_555 1_555
C13A C12A 1_555 1_555
H13A C13A 1_555 1_555
C14A N23A 1_555 1_555
H14A C14A 1_555 1_555
Cu1_2 N1A 1_555 1_555
Cu1_3 N23 1_555 1_555
Cu1A_2 N23A 1_555 1_555
Cu1A_3 N1 1_555 1_555
Cu3_2 N13A 1_555 1_555
Cu3A_2 N13 1_555 1_555
N1_2 Cu1A 1_555 1_555
N1A_2 Cu1 1_555 1_555
N13_2 Cu3A 1_555 1_555
N13A_2 Cu3 1_555 1_555
N15_2 Cu4 1_555 1_555
N15A_2 Cu4 1_555 1_555
N23_2 Cu1 1_555 1_555
N23A_2 Cu1A 1_555 1_555
Cu4_2 N15A 1_555 1_555
Cu4_3 N15 1_555 1_555
Cu2 N4 1_555 1_555
Cu3 N10 1_555 1_555
N19 Cu4 1_555 1_555
C6 C7 1_555 1_555
C11 C14 1_555 1_555
Cu2A N4A 1_555 1_555
Cu3A N10A 1_555 1_555
Cu3A N16A 1_555 1_555
Cu3A N19A 1_555 1_555
C6A C7A 1_555 1_555
C11A C14A 1_555 1_555
Cu1_2 N1_2 1_555 1_555
Cu1A_3 N1A_2 1_555 1_555

#END
