
#######################################################################
#
#                 Cambridge Crystallographic Data Centre
#                                CCDC 
#
#######################################################################
#
# If this CIF has been generated from an entry in the Cambridge 
# Structural Database, then it will include bibliographic, chemical, 
# crystal, experimental, refinement or atomic coordinate data resulting 
# from the CCDC's data processing and validation procedures.
#
#######################################################################

data_QOFXUG
_symmetry_cell_setting           triclinic
_symmetry_space_group_name_H-M   'P -1'
_symmetry_Int_Tables_number      2
_space_group_name_Hall           '-P 1'
loop_
_symmetry_equiv_pos_site_id
_symmetry_equiv_pos_as_xyz
1 x,y,z
2 -x,-y,-z
_cell_length_a                   10.2431(9)
_cell_length_b                   14.06540(10)
_cell_length_c                   14.0892(2)
_cell_angle_alpha                93.793(5)
_cell_angle_beta                 90.314(8)
_cell_angle_gamma                93.311(8)
_cell_volume                     2021.96
loop_
_atom_site_label
_atom_site_type_symbol
_atom_site_fract_x
_atom_site_fract_y
_atom_site_fract_z
Co1 Co 0.0000 0.5000 0.5000
Co2 Co -0.25881(9) 0.60718(6) 0.55535(7)
Co3 Co 0.0000 1.0000 1.0000
F1 F 0.5244(7) 0.8719(6) 1.3301(5)
F2 F 0.4623(6) 0.6141(4) 1.1024(4)
N1 N 0.6185(6) 0.6125(4) 0.6718(5)
N2 N 0.4616(6) 0.5778(5) 0.7756(5)
N3 N 0.5624(6) 0.6302(4) 0.8188(5)
N4 N 0.2348(6) 0.7630(4) 0.9719(5)
N5 N 0.1966(7) 0.7535(5) 1.0637(6)
N6 N 0.1164(6) 0.8824(4) 1.0076(4)
O1 O 0.4915(5) 0.8101(4) 0.8870(4)
H1 H 0.5703 0.8204 0.8797
O2 O -0.1625(5) 0.9247(4) 1.0606(4)
H2 H -0.2046 0.9747 1.0707
H3 H -0.2006 0.9087 1.0077
O3 O -0.0658(5) 0.9504(4) 0.8603(4)
O4 O -0.2499(5) 0.8696(5) 0.8850(4)
O5 O -0.1215(5) 0.6852(3) 0.6302(4)
O6 O 0.0581(5) 0.6129(3) 0.5886(4)
O7 O -0.3837(5) 0.6615(3) 0.4676(4)
H4 H -0.3677 0.6533 0.5257
H5 H -0.4596 0.6364 0.4541
O8 O -0.3773(5) 0.4266(4) 0.5374(4)
O9 O -0.1787(4) 0.4825(3) 0.5741(3)
O10 O 0.1261(4) 0.4061(3) 0.5668(3)
O11 O 0.2411(6) 0.3472(5) 0.6798(5)
C1 C 0.5006(7) 0.5707(6) 0.6873(6)
H6 H 0.4500 0.5388 0.6388
C2 C 0.6533(8) 0.6503(5) 0.7564(6)
H7 H 0.7310 0.6862 0.7702
C3 C 0.5615(8) 0.6564(6) 0.9192(6)
H8 H 0.6496 0.6773 0.9399
H9 H 0.5352 0.6005 0.9527
C4 C 0.4707(8) 0.7349(5) 0.9462(5)
C5 C 0.4899(7) 0.7693(6) 1.0496(5)
C6 C 0.5057(9) 0.8655(7) 1.0773(7)
H10 H 0.5101 0.9084 1.0299
C7 C 0.5152(10) 0.9010(9) 1.1682(9)
H11 H 0.5255 0.9664 1.1831
C8 C 0.5093(11) 0.8407(11) 1.2350(9)
C9 C 0.4970(9) 0.7426(11) 1.2204(7)
H12 H 0.4969 0.7016 1.2696
C10 C 0.4847(9) 0.7104(8) 1.1233(7)
C11 C 0.3268(7) 0.6992(5) 0.9283(6)
H13 H 0.3103 0.6922 0.8602
H14 H 0.3126 0.6368 0.9531
C12 C 0.1273(10) 0.8276(7) 1.0797(7)
H15 H 0.0881 0.8411 1.1380
C13 C 0.1864(8) 0.8414(5) 0.9418(6)
H16 H 0.2007 0.8640 0.8820
C14 C -0.1679(8) 0.9048(5) 0.8311(5)
C15 C -0.1967(7) 0.8971(5) 0.7266(5)
C16 C -0.3238(8) 0.9085(5) 0.6974(6)
H17 H -0.3868 0.9190 0.7436
C17 C -0.3606(9) 0.9052(6) 0.6046(6)
H18 H -0.4471 0.9137 0.5884
C18 C -0.2720(9) 0.8896(5) 0.5359(7)
H19 H -0.2963 0.8882 0.4721
C19 C -0.1429(8) 0.8756(5) 0.5620(6)
H20 H -0.0818 0.8641 0.5146
C20 C -0.1036(8) 0.8783(5) 0.6564(5)
C21 C 0.0343(7) 0.8591(5) 0.6753(5)
C22 C 0.1218(8) 0.9364(6) 0.6981(6)
H21 H 0.0913 0.9974 0.7064
C23 C 0.2518(9) 0.9240(7) 0.7086(6)
H22 H 0.3095 0.9768 0.7215
C24 C 0.2989(8) 0.8335(6) 0.7002(5)
H23 H 0.3871 0.8248 0.7103
C25 C 0.2134(7) 0.7572(6) 0.6769(5)
H24 H 0.2446 0.6963 0.6710
C26 C 0.0824(7) 0.7681(5) 0.6618(5)
C27 C 0.0003(7) 0.6825(5) 0.6242(5)
C28 C 0.1449(7) 0.3901(6) 0.6524(6)
C29 C 0.0524(7) 0.4262(6) 0.7253(5)
C30 C 0.0973(9) 0.4969(7) 0.7932(6)
H25 H 0.1848 0.5185 0.7931
C31 C 0.0160(10) 0.5357(8) 0.8604(7)
H26 H 0.0470 0.5836 0.9049
C32 C -0.1137(9) 0.5013(7) 0.8602(6)
H27 H -0.1705 0.5259 0.9056
C33 C -0.1591(8) 0.4315(6) 0.7935(6)
H28 H -0.2464 0.4095 0.7941
C34 C -0.0756(7) 0.3929(5) 0.7242(5)
C35 C -0.1271(7) 0.3104(5) 0.6603(5)
C36 C -0.0860(9) 0.2200(6) 0.6713(7)
H29 H -0.0182 0.2123 0.7138
C37 C -0.1417(10) 0.1419(6) 0.6217(7)
H30 H -0.1103 0.0822 0.6298
C38 C -0.2460(10) 0.1501(6) 0.5585(7)
H31 H -0.2863 0.0966 0.5257
C39 C -0.2858(8) 0.2387(5) 0.5469(6)
H32 H -0.3556 0.2452 0.5058
C40 C -0.2289(7) 0.3185(5) 0.5925(5)
C41 C -0.2673(7) 0.4140(5) 0.5663(5)
Co2A Co 0.25881(9) 0.39282(6) 0.44465(7)
O3A O 0.0658(5) 0.0496(4) 0.1397(4)
O4A O 0.2499(5) 0.1304(5) 0.1150(4)
O5A O 0.1215(5) 0.3148(3) 0.3698(4)
O6A O -0.0581(5) 0.3871(3) 0.4114(4)
O7A O 0.3837(5) 0.3385(3) 0.5324(4)
H4A H 0.3677 0.3467 0.4743
H5A H 0.4596 0.3636 0.5459
O8A O 0.3773(5) 0.5734(4) 0.4626(4)
O9A O 0.1787(4) 0.5175(3) 0.4259(3)
O10A O -0.1261(4) 0.5939(3) 0.4332(3)
O11A O -0.2411(6) 0.6528(5) 0.3202(5)
C14A C 0.1679(8) 0.0952(5) 0.1689(5)
C15A C 0.1967(7) 0.1029(5) 0.2734(5)
C16A C 0.3238(8) 0.0915(5) 0.3026(6)
H17A H 0.3868 0.0810 0.2564
C17A C 0.3606(9) 0.0948(6) 0.3954(6)
H18A H 0.4471 0.0863 0.4116
C18A C 0.2720(9) 0.1104(5) 0.4641(7)
H19A H 0.2963 0.1118 0.5279
C19A C 0.1429(8) 0.1244(5) 0.4380(6)
H20A H 0.0818 0.1359 0.4854
C20A C 0.1036(8) 0.1217(5) 0.3436(5)
C21A C -0.0343(7) 0.1409(5) 0.3247(5)
C22A C -0.1218(8) 0.0636(6) 0.3019(6)
H21A H -0.0913 0.0026 0.2936
C23A C -0.2518(9) 0.0760(7) 0.2914(6)
H22A H -0.3095 0.0232 0.2785
C24A C -0.2989(8) 0.1665(6) 0.2998(5)
H23A H -0.3871 0.1752 0.2897
C25A C -0.2134(7) 0.2428(6) 0.3231(5)
H24A H -0.2446 0.3037 0.3290
C26A C -0.0824(7) 0.2319(5) 0.3382(5)
C27A C -0.0003(7) 0.3175(5) 0.3758(5)
C28A C -0.1449(7) 0.6099(6) 0.3476(6)
C29A C -0.0524(7) 0.5738(6) 0.2747(5)
C30A C -0.0973(9) 0.5031(7) 0.2068(6)
H25A H -0.1848 0.4815 0.2069
C31A C -0.0160(10) 0.4643(8) 0.1396(7)
H26A H -0.0470 0.4164 0.0951
C32A C 0.1137(9) 0.4987(7) 0.1398(6)
H27A H 0.1705 0.4741 0.0944
C33A C 0.1591(8) 0.5685(6) 0.2065(6)
H28A H 0.2464 0.5905 0.2059
C34A C 0.0756(7) 0.6071(5) 0.2758(5)
C35A C 0.1271(7) 0.6896(5) 0.3397(5)
C36A C 0.0860(9) 0.7800(6) 0.3287(7)
H29A H 0.0182 0.7877 0.2862
C37A C 0.1417(10) 0.8581(6) 0.3783(7)
H30A H 0.1103 0.9178 0.3702
C38A C 0.2460(10) 0.8499(6) 0.4415(7)
H31A H 0.2863 0.9034 0.4743
C39A C 0.2858(8) 0.7613(5) 0.4531(6)
H32A H 0.3556 0.7548 0.4942
C40A C 0.2289(7) 0.6815(5) 0.4075(5)
C41A C 0.2673(7) 0.5860(5) 0.4337(5)
F1_2 F -0.4756(7) 0.8719(6) 1.3301(5)
F2_2 F -0.5377(6) 0.6141(4) 1.1024(4)
N1_2 N -0.3815(6) 0.6125(4) 0.6718(5)
N2_2 N -0.5384(6) 0.5778(5) 0.7756(5)
N3_2 N -0.4376(6) 0.6302(4) 0.8188(5)
N4_2 N -0.7652(6) 0.7630(4) 0.9719(5)
N5_2 N -0.8034(7) 0.7535(5) 1.0637(6)
N6_2 N -0.8836(6) 0.8824(4) 1.0076(4)
O1_2 O -0.5085(5) 0.8101(4) 0.8870(4)
H1_2 H -0.4297 0.8204 0.8797
C1_2 C -0.4994(7) 0.5707(6) 0.6873(6)
H6_2 H -0.5500 0.5388 0.6388
C2_2 C -0.3467(8) 0.6503(5) 0.7564(6)
H7_2 H -0.2690 0.6862 0.7702
C3_2 C -0.4385(8) 0.6564(6) 0.9192(6)
H8_2 H -0.3504 0.6773 0.9399
H9_2 H -0.4648 0.6005 0.9527
C4_2 C -0.5293(8) 0.7349(5) 0.9462(5)
C5_2 C -0.5101(7) 0.7693(6) 1.0496(5)
C6_2 C -0.4943(9) 0.8655(7) 1.0773(7)
H10_2 H -0.4899 0.9084 1.0299
C7_2 C -0.4848(10) 0.9010(9) 1.1682(9)
H11_2 H -0.4745 0.9664 1.1831
C8_2 C -0.4907(11) 0.8407(11) 1.2350(9)
C9_2 C -0.5030(9) 0.7426(11) 1.2204(7)
H12_2 H -0.5031 0.7016 1.2696
C10_2 C -0.5153(9) 0.7104(8) 1.1233(7)
C11_2 C -0.6732(7) 0.6992(5) 0.9283(6)
H13_2 H -0.6897 0.6922 0.8602
H14_2 H -0.6874 0.6368 0.9531
C12_2 C -0.8727(10) 0.8276(7) 1.0797(7)
H15_2 H -0.9119 0.8411 1.1380
C13_2 C -0.8136(8) 0.8414(5) 0.9418(6)
H16_2 H -0.7993 0.8640 0.8820
O2A O 0.1625(5) 1.0753(4) 0.9394(4)
H2A H 0.2046 1.0253 0.9293
H3A H 0.2006 1.0913 0.9923
Co2_2 Co 0.74119(9) 0.60718(6) 0.55535(7)
Co3_2 Co -1.0000 1.0000 1.0000
Co3_3 Co 0.0000 0.0000 0.0000
N1A N 0.3815(6) 0.3875(4) 0.3282(5)
N6A N -0.1164(6) 1.1176(4) 0.9924(4)
O3A_2 O 0.0658(5) 1.0496(4) 1.1397(4)
O12 O 0.8252(9) 0.7439(7) 0.1463(8)
H33 H 0.8201 0.8028 0.1374
H34 H 0.8006 0.7340 0.2025
loop_
_geom_bond_atom_site_label_1
_geom_bond_atom_site_label_2
_geom_bond_site_symmetry_1
_geom_bond_site_symmetry_2
Co1 O6 1_555 1_555
Co2 O5 1_555 1_555
Co3 N6 1_555 1_555
F1 C8 1_555 1_555
F2 C10 1_555 1_555
N1 C1 1_555 1_555
N2 N3 1_555 1_555
N3 C2 1_555 1_555
N4 N5 1_555 1_555
N5 C12 1_555 1_555
N6 C12 1_555 1_555
O1 H1 1_555 1_555
O2 Co3 1_555 1_555
H2 O2 1_555 1_555
H3 O2 1_555 1_555
O3 Co3 1_555 1_555
O4 C14 1_555 1_555
O5 C27 1_555 1_555
O6 C27 1_555 1_555
O7 Co2 1_555 1_555
H4 O7 1_555 1_555
H5 O7 1_555 1_555
O8 C41 1_555 1_555
O9 Co1 1_555 1_555
O10 Co1 1_555 1_555
O11 C28 1_555 1_555
C1 N2 1_555 1_555
H6 C1 1_555 1_555
C2 N1 1_555 1_555
H7 C2 1_555 1_555
C3 N3 1_555 1_555
H8 C3 1_555 1_555
H9 C3 1_555 1_555
C4 O1 1_555 1_555
C5 C4 1_555 1_555
C6 C5 1_555 1_555
H10 C6 1_555 1_555
C7 C6 1_555 1_555
H11 C7 1_555 1_555
C8 C7 1_555 1_555
C9 C8 1_555 1_555
H12 C9 1_555 1_555
C10 C5 1_555 1_555
C11 N4 1_555 1_555
H13 C11 1_555 1_555
H14 C11 1_555 1_555
C12 H15 1_555 1_555
C13 N4 1_555 1_555
H16 C13 1_555 1_555
C14 O3 1_555 1_555
C15 C14 1_555 1_555
C16 C15 1_555 1_555
H17 C16 1_555 1_555
C17 C16 1_555 1_555
H18 C17 1_555 1_555
C18 C17 1_555 1_555
H19 C18 1_555 1_555
C19 C18 1_555 1_555
H20 C19 1_555 1_555
C20 C15 1_555 1_555
C21 C20 1_555 1_555
C22 C21 1_555 1_555
H21 C22 1_555 1_555
C23 C22 1_555 1_555
H22 C23 1_555 1_555
C24 C23 1_555 1_555
H23 C24 1_555 1_555
C25 C24 1_555 1_555
H24 C25 1_555 1_555
C26 C21 1_555 1_555
C27 C26 1_555 1_555
C28 O10 1_555 1_555
C29 C28 1_555 1_555
C30 C29 1_555 1_555
H25 C30 1_555 1_555
C31 C30 1_555 1_555
H26 C31 1_555 1_555
C32 C31 1_555 1_555
H27 C32 1_555 1_555
C33 C32 1_555 1_555
H28 C33 1_555 1_555
C34 C29 1_555 1_555
C35 C34 1_555 1_555
C36 C35 1_555 1_555
H29 C36 1_555 1_555
C37 C36 1_555 1_555
H30 C37 1_555 1_555
C38 C37 1_555 1_555
H31 C38 1_555 1_555
C39 C38 1_555 1_555
H32 C39 1_555 1_555
C40 C35 1_555 1_555
C41 O9 1_555 1_555
O12 H33 1_555 1_555
H34 O12 1_555 1_555
Co2A O10 1_555 1_555
O3A C14A 1_555 1_555
O4A C14A 1_555 1_555
O5A Co2A 1_555 1_555
O6A Co1 1_555 1_555
O7A Co2A 1_555 1_555
H4A O7A 1_555 1_555
H5A O7A 1_555 1_555
O8A C41A 1_555 1_555
O9A Co1 1_555 1_555
O10A Co1 1_555 1_555
O11A C28A 1_555 1_555
C14A C15A 1_555 1_555
C15A C16A 1_555 1_555
C16A H17A 1_555 1_555
C17A C16A 1_555 1_555
H18A C17A 1_555 1_555
C18A C17A 1_555 1_555
H19A C18A 1_555 1_555
C19A C18A 1_555 1_555
H20A C19A 1_555 1_555
C20A C15A 1_555 1_555
C21A C20A 1_555 1_555
C22A C21A 1_555 1_555
H21A C22A 1_555 1_555
C23A C22A 1_555 1_555
H22A C23A 1_555 1_555
C24A C23A 1_555 1_555
H23A C24A 1_555 1_555
C25A C24A 1_555 1_555
H24A C25A 1_555 1_555
C26A C21A 1_555 1_555
C27A O5A 1_555 1_555
C28A O10A 1_555 1_555
C29A C28A 1_555 1_555
C30A C29A 1_555 1_555
H25A C30A 1_555 1_555
C31A C30A 1_555 1_555
H26A C31A 1_555 1_555
C32A C31A 1_555 1_555
H27A C32A 1_555 1_555
C33A C32A 1_555 1_555
H28A C33A 1_555 1_555
C34A C29A 1_555 1_555
C35A C34A 1_555 1_555
C36A C35A 1_555 1_555
H29A C36A 1_555 1_555
C37A C36A 1_555 1_555
H30A C37A 1_555 1_555
C38A C37A 1_555 1_555
H31A C38A 1_555 1_555
C39A C38A 1_555 1_555
H32A C39A 1_555 1_555
C40A C35A 1_555 1_555
C41A O9A 1_555 1_555
F1_2 C8_2 1_555 1_555
F2_2 C10_2 1_555 1_555
N1_2 Co2 1_555 1_555
N2_2 N3_2 1_555 1_555
N3_2 C2_2 1_555 1_555
N4_2 N5_2 1_555 1_555
N5_2 C12_2 1_555 1_555
N6_2 C12_2 1_555 1_555
O1_2 H1_2 1_555 1_555
C1_2 N1_2 1_555 1_555
H6_2 C1_2 1_555 1_555
C2_2 N1_2 1_555 1_555
H7_2 C2_2 1_555 1_555
C3_2 N3_2 1_555 1_555
H8_2 C3_2 1_555 1_555
H9_2 C3_2 1_555 1_555
C4_2 O1_2 1_555 1_555
C5_2 C4_2 1_555 1_555
C6_2 C5_2 1_555 1_555
H10_2 C6_2 1_555 1_555
C7_2 C6_2 1_555 1_555
H11_2 C7_2 1_555 1_555
C8_2 C7_2 1_555 1_555
C9_2 C8_2 1_555 1_555
H12_2 C9_2 1_555 1_555
C10_2 C5_2 1_555 1_555
C11_2 N4_2 1_555 1_555
H13_2 C11_2 1_555 1_555
H14_2 C11_2 1_555 1_555
C12_2 H15_2 1_555 1_555
C13_2 N4_2 1_555 1_555
H16_2 C13_2 1_555 1_555
O2A Co3 1_555 1_555
H2A O2A 1_555 1_555
H3A O2A 1_555 1_555
Co2_2 N1 1_555 1_555
Co3_2 N6_2 1_555 1_555
Co3_3 O3A 1_555 1_555
N1A Co2A 1_555 1_555
N6A Co3 1_555 1_555
O3A_2 Co3 1_555 1_555
Co2 O9 1_555 1_555
Co2 O10A 1_555 1_555
N6 C13 1_555 1_555
C3 C4 1_555 1_555
C4 C11 1_555 1_555
C9 C10 1_555 1_555
C19 C20 1_555 1_555
C25 C26 1_555 1_555
C33 C34 1_555 1_555
C39 C40 1_555 1_555
C40 C41 1_555 1_555
Co2A O9A 1_555 1_555
O6A C27A 1_555 1_555
C19A C20A 1_555 1_555
C25A C26A 1_555 1_555
C26A C27A 1_555 1_555
C33A C34A 1_555 1_555
C39A C40A 1_555 1_555
C40A C41A 1_555 1_555
N2_2 C1_2 1_555 1_555
N6_2 C13_2 1_555 1_555
C3_2 C4_2 1_555 1_555
C4_2 C11_2 1_555 1_555
C9_2 C10_2 1_555 1_555

#END
