
#######################################################################
#
#                 Cambridge Crystallographic Data Centre
#                                CCDC 
#
#######################################################################
#
# If this CIF has been generated from an entry in the Cambridge 
# Structural Database, then it will include bibliographic, chemical, 
# crystal, experimental, refinement or atomic coordinate data resulting 
# from the CCDC's data processing and validation procedures.
#
#######################################################################

data_QOGCUM
_symmetry_cell_setting           orthorhombic
_symmetry_space_group_name_H-M   'P b c a'
_symmetry_Int_Tables_number      61
_space_group_name_Hall           '-P 2ac 2ab'
loop_
_symmetry_equiv_pos_site_id
_symmetry_equiv_pos_as_xyz
1 x,y,z
2 1/2-x,-y,1/2+z
3 1/2+x,1/2-y,-z
4 -x,1/2+y,1/2-z
5 -x,-y,-z
6 1/2+x,y,1/2-z
7 1/2-x,1/2+y,z
8 x,1/2-y,1/2+z
_cell_length_a                   17.5902(5)
_cell_length_b                   8.1482(3)
_cell_length_c                   22.4169(8)
_cell_angle_alpha                90
_cell_angle_beta                 90
_cell_angle_gamma                90
_cell_volume                     3212.98
loop_
_atom_site_label
_atom_site_type_symbol
_atom_site_fract_x
_atom_site_fract_y
_atom_site_fract_z
Cu1 Cu 0.36719(2) 0.25728(5) 0.141014(19)
C1 C 0.4879(2) 0.7866(4) 0.31902(16)
C2 C 0.41676(19) 0.7400(4) 0.28574(15)
C3 C 0.34968(19) 0.8335(5) 0.29581(17)
H1 H 0.3502 0.9142 0.3251
C4 C 0.2846(2) 0.8090(5) 0.26395(17)
H2 H 0.2411 0.8708 0.2711
C5 C 0.28618(19) 0.6857(4) 0.21969(16)
C6 C 0.35000(17) 0.5837(4) 0.21271(15)
C7 C 0.41656(18) 0.6124(4) 0.24559(15)
H3 H 0.4593 0.5469 0.2404
C8 C 0.4277(2) -0.0869(5) 0.1338(2)
H4 H 0.4323 -0.0811 0.1751
C9 C 0.4498(3) -0.2320(5) 0.1041(2)
H5 H 0.4685 -0.3207 0.1256
C10 C 0.4434(2) -0.2407(5) 0.0444(2)
H6 H 0.4590 -0.3351 0.0245
C11 C 0.4138(2) -0.1092(5) 0.0120(2)
C12 C 0.39308(19) 0.0316(5) 0.04440(17)
C13 C 0.36445(19) 0.1727(5) 0.01445(18)
C14 C 0.3576(2) 0.1725(6) -0.04828(19)
C15 C 0.3786(3) 0.0264(7) -0.0796(2)
H7 H 0.3738 0.0240 -0.1210
C16 C 0.4048(3) -0.1063(6) -0.0517(2)
H8 H 0.4176 -0.1988 -0.0738
C17 C 0.3323(3) 0.3178(7) -0.0745(2)
H9 H 0.3276 0.3241 -0.1157
C18 C 0.3146(3) 0.4486(6) -0.0409(2)
H10 H 0.2983 0.5455 -0.0587
C19 C 0.3208(2) 0.4377(5) 0.02149(18)
H11 H 0.3072 0.5283 0.0444
O1 O 0.48319(14) 0.8783(3) 0.36319(12)
O2 O 0.55004(13) 0.7290(3) 0.29919(11)
N1 N 0.33187(15) 0.4753(4) 0.16827(13)
N2 N 0.26144(15) 0.5126(3) 0.14839(13)
N3 N 0.23270(15) 0.6393(3) 0.17870(13)
N4 N 0.40062(16) 0.0409(4) 0.10445(14)
N5 N 0.34541(16) 0.3026(4) 0.04932(14)
Cu1C Cu 0.63281(2) 0.75728(5) 0.358986(19)
Cu1F Cu 0.13281(2) 0.75728(5) 0.141014(19)
O2C O 0.44996(13) 0.2290(3) 0.20081(11)
N3F N 0.26730(15) 0.1393(3) 0.17870(13)
loop_
_geom_bond_atom_site_label_1
_geom_bond_atom_site_label_2
_geom_bond_site_symmetry_1
_geom_bond_site_symmetry_2
Cu1 N1 1_555 1_555
C1 C2 1_555 1_555
C2 C3 1_555 1_555
C3 H1 1_555 1_555
C4 C3 1_555 1_555
H2 C4 1_555 1_555
C5 C4 1_555 1_555
C6 C5 1_555 1_555
C7 C2 1_555 1_555
H3 C7 1_555 1_555
C8 H4 1_555 1_555
C9 C8 1_555 1_555
H5 C9 1_555 1_555
C10 C9 1_555 1_555
H6 C10 1_555 1_555
C11 C10 1_555 1_555
C12 C11 1_555 1_555
C13 C12 1_555 1_555
C14 C13 1_555 1_555
C15 C14 1_555 1_555
H7 C15 1_555 1_555
C16 C11 1_555 1_555
H8 C16 1_555 1_555
C17 C14 1_555 1_555
H9 C17 1_555 1_555
C18 C17 1_555 1_555
H10 C18 1_555 1_555
C19 C18 1_555 1_555
H11 C19 1_555 1_555
O1 C1 1_555 1_555
O2 C1 1_555 1_555
N1 C6 1_555 1_555
N2 N1 1_555 1_555
N3 C5 1_555 1_555
N4 Cu1 1_555 1_555
N5 Cu1 1_555 1_555
Cu1C O2 1_555 1_555
Cu1F N3 1_555 1_555
O2C Cu1 1_555 1_555
N3F Cu1 1_555 1_555
C6 C7 1_555 1_555
C8 N4 1_555 1_555
C12 N4 1_555 1_555
C13 N5 1_555 1_555
C15 C16 1_555 1_555
C19 N5 1_555 1_555
N2 N3 1_555 1_555

#END
