
#######################################################################
#
#                 Cambridge Crystallographic Data Centre
#                                CCDC 
#
#######################################################################
#
# If this CIF has been generated from an entry in the Cambridge 
# Structural Database, then it will include bibliographic, chemical, 
# crystal, experimental, refinement or atomic coordinate data resulting 
# from the CCDC's data processing and validation procedures.
#
#######################################################################

data_QOGCIA
_symmetry_cell_setting           orthorhombic
_symmetry_space_group_name_H-M   'P b c a'
_symmetry_Int_Tables_number      61
_space_group_name_Hall           '-P 2ac 2ab'
loop_
_symmetry_equiv_pos_site_id
_symmetry_equiv_pos_as_xyz
1 x,y,z
2 1/2-x,-y,1/2+z
3 1/2+x,1/2-y,-z
4 -x,1/2+y,1/2-z
5 -x,-y,-z
6 1/2+x,y,1/2-z
7 1/2-x,1/2+y,z
8 x,1/2-y,1/2+z
_cell_length_a                   17.4860(4)
_cell_length_b                   8.6664(2)
_cell_length_c                   19.7995(5)
_cell_angle_alpha                90
_cell_angle_beta                 90
_cell_angle_gamma                90
_cell_volume                     3000.43
loop_
_atom_site_label
_atom_site_type_symbol
_atom_site_fract_x
_atom_site_fract_y
_atom_site_fract_z
Zn1 Zn 0.138743(13) 0.21837(3) 0.628256(11)
C1 C 0.50737(13) 0.2181(3) 0.81423(11)
C2 C 0.43240(12) 0.1910(2) 0.77880(11)
C3 C 0.37175(12) 0.2975(3) 0.78819(11)
H1 H 0.3781 0.3782 0.8187
C4 C 0.30404(12) 0.2849(3) 0.75370(11)
H2 H 0.2650 0.3565 0.7596
C5 C 0.29600(11) 0.1596(2) 0.70904(10)
C6 C 0.35410(11) 0.0490(2) 0.70271(10)
C7 C 0.42392(12) 0.0657(2) 0.73688(11)
H3 H 0.4631 -0.0057 0.7314
C8 C 0.18093(17) 0.3902(3) 0.49134(13)
H4 H 0.1967 0.4691 0.5200
C9 C 0.18371(17) 0.4157(4) 0.42258(14)
H5 H 0.2012 0.5091 0.4054
C10 C 0.16002(19) 0.2998(4) 0.38026(13)
H6 H 0.1601 0.3143 0.3337
C11 C 0.13615(16) 0.1620(4) 0.40735(13)
H7 H 0.1209 0.0817 0.3793
C12 C 0.13507(13) 0.1437(3) 0.47753(11)
C13 C 0.10870(13) 0.0000(3) 0.51030(11)
C14 C 0.09094(17) -0.1329(3) 0.47514(14)
H8 H 0.0974 -0.1366 0.4286
C15 C 0.06367(18) -0.2597(3) 0.50909(15)
H9 H 0.0505 -0.3487 0.4856
C16 C 0.05596(16) -0.2539(3) 0.57813(14)
H10 H 0.0379 -0.3384 0.6023
C17 C 0.07606(14) -0.1182(3) 0.61044(13)
H11 H 0.0721 -0.1141 0.6572
N1 N 0.23912(10) 0.11843(19) 0.66486(8)
N2 N 0.26095(10) -0.0119(2) 0.63425(9)
N3 N 0.32936(10) -0.0570(2) 0.65595(9)
N4 N 0.15681(11) 0.2579(2) 0.51905(9)
N5 N 0.10077(10) 0.0067(2) 0.57810(9)
O1 O 0.50899(10) 0.2989(2) 0.86671(8)
O2 O 0.56713(9) 0.15821(19) 0.78941(8)
Zn1E Zn 0.638743(13) 0.21837(3) 0.871744(11)
Zn1F Zn 0.361257(13) -0.28163(3) 0.628256(11)
N3F N 0.17064(10) 0.4430(2) 0.65595(9)
O1E O 0.00899(10) 0.2989(2) 0.63329(8)
O2E O 0.06713(9) 0.15821(19) 0.71059(8)
loop_
_geom_bond_atom_site_label_1
_geom_bond_atom_site_label_2
_geom_bond_site_symmetry_1
_geom_bond_site_symmetry_2
Zn1 N1 1_555 1_555
C1 C2 1_555 1_555
C2 C3 1_555 1_555
C3 H1 1_555 1_555
C4 C3 1_555 1_555
H2 C4 1_555 1_555
C5 C4 1_555 1_555
C6 C5 1_555 1_555
C7 C2 1_555 1_555
H3 C7 1_555 1_555
C8 H4 1_555 1_555
C9 C8 1_555 1_555
H5 C9 1_555 1_555
C10 C9 1_555 1_555
H6 C10 1_555 1_555
C11 C10 1_555 1_555
H7 C11 1_555 1_555
C12 C11 1_555 1_555
C13 C12 1_555 1_555
C14 C13 1_555 1_555
H8 C14 1_555 1_555
C15 C14 1_555 1_555
H9 C15 1_555 1_555
C16 C15 1_555 1_555
H10 C16 1_555 1_555
C17 C16 1_555 1_555
H11 C17 1_555 1_555
N1 C5 1_555 1_555
N2 N1 1_555 1_555
N3 C6 1_555 1_555
N4 Zn1 1_555 1_555
N5 Zn1 1_555 1_555
O1 C1 1_555 1_555
O2 C1 1_555 1_555
Zn1E O1 1_555 1_555
Zn1F N3 1_555 1_555
N3F Zn1 1_555 1_555
O1E Zn1 1_555 1_555
O2E Zn1 1_555 1_555
C6 C7 1_555 1_555
C8 N4 1_555 1_555
C12 N4 1_555 1_555
C13 N5 1_555 1_555
C17 N5 1_555 1_555
N2 N3 1_555 1_555
O2 Zn1E 1_555 1_555

#END
