
#######################################################################
#
#                 Cambridge Crystallographic Data Centre
#                                CCDC 
#
#######################################################################
#
# If this CIF has been generated from an entry in the Cambridge 
# Structural Database, then it will include bibliographic, chemical, 
# crystal, experimental, refinement or atomic coordinate data resulting 
# from the CCDC's data processing and validation procedures.
#
#######################################################################

data_QOGCOG
_symmetry_cell_setting           orthorhombic
_symmetry_space_group_name_H-M   'P b c a'
_symmetry_Int_Tables_number      61
_space_group_name_Hall           '-P 2ac 2ab'
loop_
_symmetry_equiv_pos_site_id
_symmetry_equiv_pos_as_xyz
1 x,y,z
2 1/2-x,-y,1/2+z
3 1/2+x,1/2-y,-z
4 -x,1/2+y,1/2-z
5 -x,-y,-z
6 1/2+x,y,1/2-z
7 1/2-x,1/2+y,z
8 x,1/2-y,1/2+z
_cell_length_a                   17.6541(6)
_cell_length_b                   8.9013(3)
_cell_length_c                   19.7114(7)
_cell_angle_alpha                90
_cell_angle_beta                 90
_cell_angle_gamma                90
_cell_volume                     3097.54
loop_
_atom_site_label
_atom_site_type_symbol
_atom_site_fract_x
_atom_site_fract_y
_atom_site_fract_z
Mn1 Mn 0.63629(2) 0.22903(5) 0.12374(2)
C1 C 1.00967(18) 0.2172(3) 0.30996(16)
C2 C 0.93575(17) 0.1963(3) 0.27477(15)
C3 C 0.87662(18) 0.3026(3) 0.28366(16)
H1 H 0.8839 0.3819 0.3137
C4 C 0.80956(18) 0.2927(3) 0.24975(15)
H2 H 0.7716 0.3639 0.2559
C5 C 0.79975(16) 0.1712(3) 0.20512(15)
C6 C 0.85621(17) 0.0627(3) 0.19829(15)
C7 C 0.92582(17) 0.0759(3) 0.23186(15)
H3 H 0.9641 0.0056 0.2254
C8 C 0.5770(2) -0.1080(4) 0.10100(18)
H4 H 0.5713 -0.1042 0.1479
C9 C 0.5607(2) -0.2414(4) 0.0679(2)
H5 H 0.5439 -0.3248 0.0920
C10 C 0.5697(2) -0.2477(4) -0.0008(2)
H6 H 0.5592 -0.3357 -0.0244
C11 C 0.5945(2) -0.1218(4) -0.03438(19)
H7 H 0.6015 -0.1249 -0.0811
C12 C 0.60926(19) 0.0100(4) 0.00084(17)
C13 C 0.63509(19) 0.1498(4) -0.03217(16)
C14 C 0.6356(2) 0.1691(4) -0.10215(18)
H8 H 0.6194 0.0920 -0.1305
C15 C 0.6600(2) 0.3027(5) -0.12928(19)
H9 H 0.6594 0.3178 -0.1760
C16 C 0.6853(2) 0.4130(5) -0.0868(2)
H10 H 0.7038 0.5030 -0.1041
C17 C 0.6829(2) 0.3883(4) -0.01763(18)
H11 H 0.6997 0.4640 0.0112
N1 N 0.74234(14) 0.1319(3) 0.16173(13)
N2 N 0.76274(13) 0.0048(3) 0.13042(13)
N3 N 0.83085(14) -0.0406(3) 0.15135(13)
N4 N 0.60073(15) 0.0155(3) 0.06884(13)
N5 N 0.65739(16) 0.2603(3) 0.00988(13)
O1 O 1.01222(12) 0.2993(2) 0.36258(10)
O2 O 1.06803(12) 0.1517(2) 0.28753(11)
Mn1E Mn 1.13629(2) 0.22903(5) 0.37626(2)
Mn1F Mn 0.86371(2) -0.27097(5) 0.12374(2)
N3F N 0.66915(14) 0.4594(3) 0.15135(13)
O1E O 0.51222(12) 0.2993(2) 0.13742(10)
O2E O 0.56803(12) 0.1517(2) 0.21247(11)
loop_
_geom_bond_atom_site_label_1
_geom_bond_atom_site_label_2
_geom_bond_site_symmetry_1
_geom_bond_site_symmetry_2
Mn1 N1 1_555 1_555
C1 C2 1_555 1_555
C2 C3 1_555 1_555
C3 H1 1_555 1_555
C4 C3 1_555 1_555
H2 C4 1_555 1_555
C5 C4 1_555 1_555
C6 C5 1_555 1_555
C7 C2 1_555 1_555
H3 C7 1_555 1_555
C8 H4 1_555 1_555
C9 C8 1_555 1_555
H5 C9 1_555 1_555
C10 C9 1_555 1_555
H6 C10 1_555 1_555
C11 C10 1_555 1_555
H7 C11 1_555 1_555
C12 C11 1_555 1_555
C13 C12 1_555 1_555
C14 C13 1_555 1_555
H8 C14 1_555 1_555
C15 C14 1_555 1_555
H9 C15 1_555 1_555
C16 C15 1_555 1_555
H10 C16 1_555 1_555
C17 C16 1_555 1_555
H11 C17 1_555 1_555
N1 C5 1_555 1_555
N2 N1 1_555 1_555
N3 C6 1_555 1_555
N4 Mn1 1_555 1_555
N5 Mn1 1_555 1_555
O1 C1 1_555 1_555
O2 C1 1_555 1_555
Mn1E O1 1_555 1_555
Mn1F N3 1_555 1_555
N3F Mn1 1_555 1_555
O1E Mn1 1_555 1_555
O2E Mn1 1_555 1_555
C6 C7 1_555 1_555
C8 N4 1_555 1_555
C12 N4 1_555 1_555
C13 N5 1_555 1_555
C17 N5 1_555 1_555
N2 N3 1_555 1_555
O2 Mn1E 1_555 1_555

#END
