
#######################################################################
#
#                 Cambridge Crystallographic Data Centre
#                                CCDC 
#
#######################################################################
#
# If this CIF has been generated from an entry in the Cambridge 
# Structural Database, then it will include bibliographic, chemical, 
# crystal, experimental, refinement or atomic coordinate data resulting 
# from the CCDC's data processing and validation procedures.
#
#######################################################################

data_QOGDEW
_symmetry_cell_setting           triclinic
_symmetry_space_group_name_H-M   'P -1'
_symmetry_Int_Tables_number      2
_space_group_name_Hall           '-P 1'
loop_
_symmetry_equiv_pos_site_id
_symmetry_equiv_pos_as_xyz
1 x,y,z
2 -x,-y,-z
_cell_length_a                   7.1179(16)
_cell_length_b                   12.650(3)
_cell_length_c                   14.633(3)
_cell_angle_alpha                74.922(4)
_cell_angle_beta                 89.513(4)
_cell_angle_gamma                87.403(4)
_cell_volume                     1270.9
loop_
_atom_site_label
_atom_site_type_symbol
_atom_site_fract_x
_atom_site_fract_y
_atom_site_fract_z
Nd1 Nd 1.24989(3) -0.875080(18) 0.326330(17)
Nd2 Nd 0.67805(3) -0.459810(18) 0.254790(17)
Ni1 Ni 0.0000 -0.5000 0.0000
Ni2 Ni -0.03682(8) -0.17326(4) 0.29976(4)
O1 O 1.5209(5) -0.9869(3) 0.3343(2)
O2 O 1.7431(5) -1.1163(3) 0.3642(2)
C1 C 1.6670(7) -1.0282(4) 0.2037(3)
H1 H 1.5530 -1.0521 0.1780
H2 H 1.6776 -0.9489 0.1739
C2 C 1.6446(6) -1.0453(4) 0.3079(3)
N1 N 1.8325(5) -1.0880(3) 0.1781(3)
H3 H 1.7952 -1.1360 0.1439
C3 C 1.9749(7) -1.0176(4) 0.1255(3)
H4 H 1.9132 -0.9525 0.0817
H5 H 2.0507 -1.0579 0.0874
C4 C 2.1008(7) -0.9819(3) 0.1925(3)
O3 O 2.2195(5) -0.9133(2) 0.1619(2)
O4 O 2.0788(5) -1.0217(2) 0.2806(2)
O5 O 0.2213(5) -0.5598(2) 0.0881(2)
O6 O 0.4613(5) -0.5059(3) 0.1529(2)
C5 C 0.2981(7) -0.3727(4) 0.0382(4)
H6 H 0.2911 -0.3229 0.0804
H7 H 0.4092 -0.3538 -0.0030
C6 C 0.3271(6) -0.4874(4) 0.0975(3)
N2 N 0.1290(5) -0.3524(3) -0.0216(3)
H8 H 0.1611 -0.3262 -0.0850
C7 C -0.0126(7) -0.2789(4) 0.0053(3)
H9 H -0.0883 -0.2409 -0.0511
H10 H 0.0512 -0.2225 0.0280
C8 C -0.1404(7) -0.3384(4) 0.0809(3)
O7 O -0.2522(5) -0.2884(3) 0.1208(2)
O8 O -0.1264(5) -0.4427(2) 0.1048(2)
O9 O 0.4351(5) -0.3317(3) 0.2571(3)
O10 O 0.1823(5) -0.2232(3) 0.2325(2)
C9 C 0.2684(7) -0.3141(4) 0.3912(4)
H11 H 0.2641 -0.3945 0.4167
H12 H 0.3783 -0.2897 0.4200
C10 C 0.2962(7) -0.2887(4) 0.2858(3)
N3 N 0.0991(5) -0.2632(3) 0.4196(3)
H13 H 0.1313 -0.2170 0.4565
C11 C -0.0404(7) -0.3385(4) 0.4694(3)
H14 H -0.1165 -0.3029 0.5109
H15 H 0.0247 -0.4048 0.5099
C12 C -0.1679(7) -0.3713(4) 0.4009(3)
O11 O -0.1568(5) -0.3210(2) 0.3149(2)
O12 O -0.2735(5) -0.4479(2) 0.4289(2)
O13 O 0.9928(5) -0.5392(2) 0.3094(2)
O14 O 1.1962(4) -0.6823(2) 0.3318(2)
C13 C 1.0471(6) -0.6314(4) 0.3025(3)
C14 C 0.9129(6) -0.6904(4) 0.2535(3)
O15 O 0.7526(5) -0.6476(3) 0.2352(2)
O16 O 0.9741(5) -0.7753(2) 0.2340(2)
C15 C 1.0689(6) -1.0511(3) 0.5099(3)
O17 O 1.2170(4) -1.0419(2) 0.4650(2)
O18 O 1.0154(5) -1.1335(2) 0.5684(2)
O19 O 1.4337(5) -0.8457(2) 0.4605(2)
H16 H 1.5380 -0.8801 0.4639
H17 H 1.3761 -0.8706 0.5114
O20 O 1.4441(5) -0.7533(3) 0.2044(2)
H18 H 1.5472 -0.7431 0.2275
H19 H 1.3879 -0.6923 0.1814
O21 O 0.4808(5) -0.5760(3) 0.3724(2)
H20 H 0.3790 -0.5873 0.3488
H21 H 0.4592 -0.5489 0.4185
Nd1A Nd -1.24989(3) -0.124920(18) -0.326330(17)
Nd1_2 Nd 2.24989(3) -0.875080(18) 0.326330(17)
Nd1A_2 Nd 0.75011(3) -1.124920(18) 0.673670(17)
Nd1_3 Nd 0.24989(3) -0.875080(18) 0.326330(17)
Nd2A Nd -0.67805(3) -0.540190(18) -0.254790(17)
Nd2_2 Nd -0.32195(3) -0.459810(18) 0.254790(17)
Nd2A_2 Nd 0.32195(3) -0.540190(18) -0.254790(17)
Nd2_3 Nd 1.67805(3) -0.459810(18) 0.254790(17)
Ni2_2 Ni 0.96318(8) -0.17326(4) 0.29976(4)
Ni2_3 Ni 1.96318(8) -1.17326(4) 0.29976(4)
Ni2_4 Ni 0.96318(8) -1.17326(4) 0.29976(4)
O1_2 O 0.5209(5) -0.9869(3) 0.3343(2)
O1A O -1.5209(5) -0.0131(3) -0.3343(2)
O2_2 O 0.7431(5) -1.1163(3) 0.3642(2)
O2_3 O -0.2569(5) -0.1163(3) 0.3642(2)
O2_4 O 0.7431(5) -0.1163(3) 0.3642(2)
C1_2 C 0.6670(7) -1.0282(4) 0.2037(3)
H1_2 H 0.5530 -1.0521 0.1780
H2_2 H 0.6776 -0.9489 0.1739
C2_2 C 0.6446(6) -1.0453(4) 0.3079(3)
N1_2 N 0.8325(5) -1.0880(3) 0.1781(3)
N1_3 N -0.1675(5) -0.0880(3) 0.1781(3)
N1_4 N 0.8325(5) -0.0880(3) 0.1781(3)
H3_2 H 0.7952 -1.1360 0.1439
H3_3 H -0.2048 -0.1360 0.1439
H3_4 H 0.7952 -0.1360 0.1439
C3_2 C 0.9749(7) -1.0176(4) 0.1255(3)
H4_2 H 0.9132 -0.9525 0.0817
H5_2 H 1.0507 -1.0579 0.0874
C4_2 C 1.1008(7) -0.9819(3) 0.1925(3)
O3_2 O 1.2195(5) -0.9133(2) 0.1619(2)
O3A O -1.2195(5) -0.0867(2) -0.1619(2)
O4_2 O 1.0788(5) -1.0217(2) 0.2806(2)
O4_3 O 0.0788(5) -0.0217(2) 0.2806(2)
O4A O -1.0788(5) 0.0217(2) -0.2806(2)
O4_4 O 1.0788(5) -0.0217(2) 0.2806(2)
O5A O -0.2213(5) -0.4402(2) -0.0881(2)
O6A O -0.4613(5) -0.4941(3) -0.1529(2)
C5A C -0.2981(7) -0.6273(4) -0.0382(4)
H6A H -0.2911 -0.6771 -0.0804
H7A H -0.4092 -0.6462 0.0030
C6A C -0.3271(6) -0.5126(4) -0.0975(3)
N2A N -0.1290(5) -0.6476(3) 0.0216(3)
H8A H -0.1611 -0.6738 0.0850
C7A C 0.0126(7) -0.7211(4) -0.0053(3)
H9A H 0.0883 -0.7591 0.0511
H10A H -0.0512 -0.7775 -0.0280
C8A C 0.1404(7) -0.6616(4) -0.0809(3)
O7A O 0.2522(5) -0.7116(3) -0.1208(2)
O7_2 O 0.7478(5) -0.2884(3) 0.1208(2)
O7A_2 O -0.7478(5) -0.7116(3) -0.1208(2)
O8A O 0.1264(5) -0.5573(2) -0.1048(2)
O8_2 O 0.8736(5) -0.4427(2) 0.1048(2)
O8A_2 O -0.8736(5) -0.5573(2) -0.1048(2)
O9_2 O 1.4351(5) -0.3317(3) 0.2571(3)
O9A O -0.4351(5) -0.6683(3) -0.2571(3)
O10_2 O 1.1823(5) -0.2232(3) 0.2325(2)
C9_2 C 1.2684(7) -0.3141(4) 0.3912(4)
H11_2 H 1.2641 -0.3945 0.4167
H12_2 H 1.3783 -0.2897 0.4200
C10_2 C 1.2962(7) -0.2887(4) 0.2858(3)
N3_2 N 1.0991(5) -0.2632(3) 0.4196(3)
H13_2 H 1.1313 -0.2170 0.4565
C11_2 C 0.9596(7) -0.3385(4) 0.4694(3)
H14_2 H 0.8835 -0.3029 0.5109
H15_2 H 1.0247 -0.4048 0.5099
C12_2 C 0.8321(7) -0.3713(4) 0.4009(3)
O11_2 O 0.8432(5) -0.3210(2) 0.3149(2)
O11A O -0.8432(5) -0.6790(2) -0.3149(2)
O12_2 O 0.7265(5) -0.4479(2) 0.4289(2)
O12A O -0.7265(5) -0.5521(2) -0.4289(2)
O13A O -0.9928(5) -0.4608(2) -0.3094(2)
O14A O -1.1962(4) -0.3177(2) -0.3318(2)
C13A C -1.0471(6) -0.3686(4) -0.3025(3)
C14A C -0.9129(6) -0.3096(4) -0.2535(3)
O15A O -0.7526(5) -0.3524(3) -0.2352(2)
O16A O -0.9741(5) -0.2247(2) -0.2340(2)
C15A C 0.9311(6) -0.9489(3) 0.4901(3)
O17A O 0.7830(4) -0.9581(2) 0.5350(2)
O17A_2 O -1.2170(4) 0.0419(2) -0.4650(2)
O18A O 0.9846(5) -0.8665(2) 0.4316(2)
O18_2 O -0.9846(5) -0.1335(2) -0.4316(2)
O19A O -1.4337(5) -0.1543(2) -0.4605(2)
H16A H -1.5380 -0.1199 -0.4639
H17A H -1.3761 -0.1294 -0.5114
O20A O -1.4441(5) -0.2467(3) -0.2044(2)
H18A H -1.5472 -0.2569 -0.2275
H19A H -1.3879 -0.3077 -0.1814
O21A O -0.4808(5) -0.4240(3) -0.3724(2)
H20A H -0.3790 -0.4127 -0.3488
H21A H -0.4592 -0.4511 -0.4185
O22 O 1.374(2) -1.1150(7) 0.0355(8)
O23? O 1.5236(16) -1.1209(9) -0.0044(8)
loop_
_geom_bond_atom_site_label_1
_geom_bond_atom_site_label_2
_geom_bond_site_symmetry_1
_geom_bond_site_symmetry_2
Nd1 O1 1_555 1_555
Nd2 O6 1_555 1_555
Ni1 O5 1_555 1_555
Ni2 O10 1_555 1_555
O1 C2 1_555 1_555
O2 C2 1_555 1_555
C1 H1 1_555 1_555
H2 C1 1_555 1_555
C2 C1 1_555 1_555
N1 C1 1_555 1_555
H3 N1 1_555 1_555
C3 N1 1_555 1_555
H4 C3 1_555 1_555
H5 C3 1_555 1_555
C4 C3 1_555 1_555
O3 C4 1_555 1_555
O4 C4 1_555 1_555
O5 C6 1_555 1_555
O6 C6 1_555 1_555
C5 H6 1_555 1_555
H7 C5 1_555 1_555
C6 C5 1_555 1_555
N2 Ni1 1_555 1_555
H8 N2 1_555 1_555
C7 N2 1_555 1_555
H9 C7 1_555 1_555
H10 C7 1_555 1_555
C8 C7 1_555 1_555
O7 C8 1_555 1_555
O8 Ni1 1_555 1_555
O9 Nd2 1_555 1_555
O10 C10 1_555 1_555
C9 H11 1_555 1_555
H12 C9 1_555 1_555
C10 O9 1_555 1_555
N3 Ni2 1_555 1_555
H13 N3 1_555 1_555
C11 N3 1_555 1_555
H14 C11 1_555 1_555
H15 C11 1_555 1_555
C12 C11 1_555 1_555
O11 Ni2 1_555 1_555
O12 C12 1_555 1_555
O13 Nd2 1_555 1_555
O14 Nd1 1_555 1_555
C13 O13 1_555 1_555
C14 C13 1_555 1_555
O15 Nd2 1_555 1_555
O16 Nd1 1_555 1_555
C15 O17 1_555 1_555
O17 Nd1 1_555 1_555
O18 C15 1_555 1_555
O19 Nd1 1_555 1_555
H16 O19 1_555 1_555
H17 O19 1_555 1_555
O20 Nd1 1_555 1_555
H18 O20 1_555 1_555
H19 O20 1_555 1_555
O21 Nd2 1_555 1_555
H20 O21 1_555 1_555
H21 O21 1_555 1_555
Nd1A O1A 1_555 1_555
Nd1_2 O3 1_555 1_555
Nd1A_2 O18 1_555 1_555
Nd1_3 O1_2 1_555 1_555
Nd2A O6A 1_555 1_555
Nd2_2 O7 1_555 1_555
Nd2A_2 O7A 1_555 1_555
Nd2_3 O9_2 1_555 1_555
Ni2_2 O2_4 1_555 1_555
Ni2_3 O2 1_555 1_555
Ni2_4 O2_2 1_555 1_555
O1_2 C2_2 1_555 1_555
O2_2 C2_2 1_555 1_555
O2_3 Ni2 1_555 1_555
C1_2 H1_2 1_555 1_555
H2_2 C1_2 1_555 1_555
C2_2 C1_2 1_555 1_555
N1_2 Ni2_4 1_555 1_555
N1_3 Ni2 1_555 1_555
N1_4 Ni2_2 1_555 1_555
H3_2 N1_2 1_555 1_555
H3_3 N1_3 1_555 1_555
H3_4 N1_4 1_555 1_555
C3_2 N1_2 1_555 1_555
H4_2 C3_2 1_555 1_555
H5_2 C3_2 1_555 1_555
C4_2 C3_2 1_555 1_555
O3_2 Nd1 1_555 1_555
O3A Nd1A 1_555 1_555
O4_2 Nd1 1_555 1_555
O4_3 Ni2 1_555 1_555
O4A Nd1A 1_555 1_555
O4_4 Ni2_2 1_555 1_555
O5A Ni1 1_555 1_555
O6A C6A 1_555 1_555
C5A H6A 1_555 1_555
H7A C5A 1_555 1_555
C6A O5A 1_555 1_555
N2A Ni1 1_555 1_555
H8A N2A 1_555 1_555
C7A N2A 1_555 1_555
H9A C7A 1_555 1_555
H10A C7A 1_555 1_555
C8A C7A 1_555 1_555
O7A C8A 1_555 1_555
O7_2 Nd2 1_555 1_555
O7A_2 Nd2A 1_555 1_555
O8A Ni1 1_555 1_555
O8_2 Nd2 1_555 1_555
O8A_2 Nd2A 1_555 1_555
O9_2 C10_2 1_555 1_555
O9A Nd2A 1_555 1_555
O10_2 Ni2_2 1_555 1_555
C9_2 H11_2 1_555 1_555
H12_2 C9_2 1_555 1_555
C10_2 O10_2 1_555 1_555
N3_2 Ni2_2 1_555 1_555
H13_2 N3_2 1_555 1_555
C11_2 N3_2 1_555 1_555
H14_2 C11_2 1_555 1_555
H15_2 C11_2 1_555 1_555
C12_2 C11_2 1_555 1_555
O11_2 Nd2 1_555 1_555
O11A Nd2A 1_555 1_555
O12_2 Nd2 1_555 1_555
O12A Nd2A 1_555 1_555
O13A Nd2A 1_555 1_555
O14A Nd1A 1_555 1_555
C13A O13A 1_555 1_555
C14A C13A 1_555 1_555
O15A Nd2A 1_555 1_555
O16A Nd1A 1_555 1_555
C15A C15 1_555 1_555
O17A Nd1A_2 1_555 1_555
O17A_2 Nd1A 1_555 1_555
O18A Nd1 1_555 1_555
O18_2 Nd1A 1_555 1_555
O19A Nd1A 1_555 1_555
H16A O19A 1_555 1_555
H17A O19A 1_555 1_555
O20A Nd1A 1_555 1_555
H18A O20A 1_555 1_555
H19A O20A 1_555 1_555
O21A Nd2A 1_555 1_555
H20A O21A 1_555 1_555
H21A O21A 1_555 1_555
N1 Ni2_3 1_555 1_555
O4 Nd1_2 1_555 1_555
O4 Ni2_3 1_555 1_555
C5 N2 1_555 1_555
C8 O8 1_555 1_555
O8 Nd2_2 1_555 1_555
C9 C10 1_555 1_555
C9 N3 1_555 1_555
C12 O11 1_555 1_555
O11 Nd2_2 1_555 1_555
O12 Nd2_2 1_555 1_555
O14 C13 1_555 1_555
C14 O15 1_555 1_555
C14 O16 1_555 1_555
Nd2A_2 O8A 1_555 1_555
Ni2_2 O11_2 1_555 1_555
Ni2_4 O4_2 1_555 1_555
C1_2 N1_2 1_555 1_555
C4_2 O3_2 1_555 1_555
C4_2 O4_2 1_555 1_555
C5A C6A 1_555 1_555
C5A N2A 1_555 1_555
C8A O8A 1_555 1_555
C9_2 C10_2 1_555 1_555
C9_2 N3_2 1_555 1_555
C12_2 O11_2 1_555 1_555
C12_2 O12_2 1_555 1_555
O14A C13A 1_555 1_555
C14A O15A 1_555 1_555
C14A O16A 1_555 1_555
C15A O17A 1_555 1_555
C15A O18A 1_555 1_555

#END
