
#######################################################################
#
#                 Cambridge Crystallographic Data Centre
#                                CCDC 
#
#######################################################################
#
# If this CIF has been generated from an entry in the Cambridge 
# Structural Database, then it will include bibliographic, chemical, 
# crystal, experimental, refinement or atomic coordinate data resulting 
# from the CCDC's data processing and validation procedures.
#
#######################################################################

data_QOGDOG
_symmetry_cell_setting           triclinic
_symmetry_space_group_name_H-M   'P -1'
_symmetry_Int_Tables_number      2
_space_group_name_Hall           '-P 1'
loop_
_symmetry_equiv_pos_site_id
_symmetry_equiv_pos_as_xyz
1 x,y,z
2 -x,-y,-z
_cell_length_a                   7.0723(14)
_cell_length_b                   12.517(3)
_cell_length_c                   14.536(3)
_cell_angle_alpha                74.901(4)
_cell_angle_beta                 89.669(4)
_cell_angle_gamma                87.133(4)
_cell_volume                     1240.77
loop_
_atom_site_label
_atom_site_type_symbol
_atom_site_fract_x
_atom_site_fract_y
_atom_site_fract_z
Gd1 Gd 1.24779(3) -0.876750(17) 0.327530(15)
Gd2 Gd 0.68104(3) -0.462760(18) 0.253220(16)
Ni1 Ni 0.0000 -0.5000 0.0000
Ni2 Ni -0.03523(9) -0.17384(5) 0.29888(4)
O1 O 1.5172(5) -0.9891(3) 0.3362(3)
O2 O 1.7416(6) -1.1174(3) 0.3634(3)
C1 C 1.6681(8) -1.0242(5) 0.2029(4)
H1 H 1.5528 -1.0445 0.1745
H2 H 1.6831 -0.9440 0.1753
C2 C 1.6416(7) -1.0452(4) 0.3084(4)
N1 N 1.8318(7) -1.0859(4) 0.1770(3)
H3 H 1.7925 -1.1336 0.1423
C3 C 1.9784(8) -1.0165(4) 0.1248(4)
H4 H 1.9183 -0.9503 0.0799
H5 H 2.0545 -1.0586 0.0874
C4 C 2.1040(7) -0.9814(4) 0.1921(4)
O3 O 2.2251(5) -0.9141(3) 0.1639(3)
O4 O 2.0777(5) -1.0198(3) 0.2810(2)
O5 O 0.2222(5) -0.5612(3) 0.0883(2)
O6 O 0.4669(5) -0.5077(3) 0.1536(3)
C5 C 0.2990(8) -0.3710(4) 0.0373(4)
H6 H 0.2937 -0.3204 0.0796
H7 H 0.4091 -0.3522 -0.0052
C6 C 0.3298(7) -0.4882(4) 0.0976(3)
N2 N 0.1283(6) -0.3517(3) -0.0204(3)
H8 H 0.1588 -0.3249 -0.0843
C7 C -0.0164(8) -0.2771(4) 0.0065(4)
H9 H -0.0929 -0.2385 -0.0503
H10 H 0.0461 -0.2205 0.0304
C8 C -0.1419(8) -0.3394(4) 0.0810(4)
O7 O -0.2599(5) -0.2870(3) 0.1191(3)
O8 O -0.1281(5) -0.4430(3) 0.1065(2)
O9 O 0.4398(5) -0.3354(3) 0.2563(3)
O10 O 0.1858(5) -0.2242(3) 0.2312(3)
C9 C 0.2704(8) -0.3175(5) 0.3909(4)
H11 H 0.2649 -0.3989 0.4155
H12 H 0.3813 -0.2945 0.4209
C10 C 0.2999(7) -0.2905(4) 0.2858(4)
N3 N 0.0995(6) -0.2652(4) 0.4199(3)
H13 H 0.1318 -0.2190 0.4576
C11 C -0.0393(8) -0.3410(4) 0.4686(4)
H14 H -0.1177 -0.3051 0.5098
H15 H 0.0267 -0.4078 0.5098
C12 C -0.1653(8) -0.3748(5) 0.3990(4)
O11 O -0.1551(5) -0.3234(3) 0.3123(3)
O12 O -0.2715(6) -0.4504(3) 0.4250(3)
O13 O 0.9926(5) -0.5394(3) 0.3089(2)
O14 O 1.1975(5) -0.6845(3) 0.3340(2)
C13 C 1.0465(7) -0.6327(4) 0.3036(3)
C14 C 0.9154(7) -0.6927(4) 0.2531(3)
O15 O 0.7559(5) -0.6480(3) 0.2324(3)
O16 O 0.9796(5) -0.7779(3) 0.2340(2)
C15 C 1.0692(7) -1.0516(3) 0.5106(3)
O17 O 1.2188(5) -1.0430(3) 0.4653(2)
O18 O 1.0168(5) -1.1335(3) 0.5702(2)
O19 O 1.4313(5) -0.8468(3) 0.4578(2)
H16 H 1.5356 -0.8812 0.4611
H17 H 1.3737 -0.8717 0.5087
O20 O 1.4419(5) -0.7582(3) 0.2109(2)
H18 H 1.5450 -0.7480 0.2340
H19 H 1.3857 -0.6972 0.1878
O21 O 0.4953(6) -0.5811(3) 0.3676(3)
H20 H 0.3935 -0.5924 0.3440
H21 H 0.4737 -0.5540 0.4137
Gd1A Gd -1.24779(3) -0.123250(17) -0.327530(15)
Gd1_2 Gd 2.24779(3) -0.876750(17) 0.327530(15)
Gd1A_2 Gd 0.75221(3) -1.123250(17) 0.672470(15)
Gd1_3 Gd 0.24779(3) -0.876750(17) 0.327530(15)
Gd2A Gd -0.68104(3) -0.537240(18) -0.253220(16)
Gd2_2 Gd -0.31896(3) -0.462760(18) 0.253220(16)
Gd2A_2 Gd 0.31896(3) -0.537240(18) -0.253220(16)
Gd2_3 Gd 1.68104(3) -0.462760(18) 0.253220(16)
Ni2_2 Ni 0.96477(9) -0.17384(5) 0.29888(4)
Ni2_3 Ni 1.96477(9) -1.17384(5) 0.29888(4)
Ni2_4 Ni 0.96477(9) -1.17384(5) 0.29888(4)
O1_2 O 0.5172(5) -0.9891(3) 0.3362(3)
O1A O -1.5172(5) -0.0109(3) -0.3362(3)
O2_2 O 0.7416(6) -1.1174(3) 0.3634(3)
O2_3 O -0.2584(6) -0.1174(3) 0.3634(3)
O2_4 O 0.7416(6) -0.1174(3) 0.3634(3)
C1_2 C 0.6681(8) -1.0242(5) 0.2029(4)
H1_2 H 0.5528 -1.0445 0.1745
H2_2 H 0.6831 -0.9440 0.1753
C2_2 C 0.6416(7) -1.0452(4) 0.3084(4)
N1_2 N 0.8318(7) -1.0859(4) 0.1770(3)
N1_3 N -0.1682(7) -0.0859(4) 0.1770(3)
N1_4 N 0.8318(7) -0.0859(4) 0.1770(3)
H3_2 H 0.7925 -1.1336 0.1423
H3_3 H -0.2075 -0.1336 0.1423
H3_4 H 0.7925 -0.1336 0.1423
C3_2 C 0.9784(8) -1.0165(4) 0.1248(4)
H4_2 H 0.9183 -0.9503 0.0799
H5_2 H 1.0545 -1.0586 0.0874
C4_2 C 1.1040(7) -0.9814(4) 0.1921(4)
O3_2 O 1.2251(5) -0.9141(3) 0.1639(3)
O3A O -1.2251(5) -0.0859(3) -0.1639(3)
O4_2 O 1.0777(5) -1.0198(3) 0.2810(2)
O4_3 O 0.0777(5) -0.0198(3) 0.2810(2)
O4A O -1.0777(5) 0.0198(3) -0.2810(2)
O4_4 O 1.0777(5) -0.0198(3) 0.2810(2)
O5A O -0.2222(5) -0.4388(3) -0.0883(2)
O6A O -0.4669(5) -0.4923(3) -0.1536(3)
C5A C -0.2990(8) -0.6290(4) -0.0373(4)
H6A H -0.2937 -0.6796 -0.0796
H7A H -0.4091 -0.6478 0.0052
C6A C -0.3298(7) -0.5118(4) -0.0976(3)
N2A N -0.1283(6) -0.6483(3) 0.0204(3)
H8A H -0.1588 -0.6751 0.0843
C7A C 0.0164(8) -0.7229(4) -0.0065(4)
H9A H 0.0929 -0.7615 0.0503
H10A H -0.0461 -0.7795 -0.0304
C8A C 0.1419(8) -0.6606(4) -0.0810(4)
O7A O 0.2599(5) -0.7130(3) -0.1191(3)
O7_2 O 0.7401(5) -0.2870(3) 0.1191(3)
O7A_2 O -0.7401(5) -0.7130(3) -0.1191(3)
O8A O 0.1281(5) -0.5570(3) -0.1065(2)
O8_2 O 0.8719(5) -0.4430(3) 0.1065(2)
O8A_2 O -0.8719(5) -0.5570(3) -0.1065(2)
O9_2 O 1.4398(5) -0.3354(3) 0.2563(3)
O9A O -0.4398(5) -0.6646(3) -0.2563(3)
O10_2 O 1.1858(5) -0.2242(3) 0.2312(3)
C9_2 C 1.2704(8) -0.3175(5) 0.3909(4)
H11_2 H 1.2649 -0.3989 0.4155
H12_2 H 1.3813 -0.2945 0.4209
C10_2 C 1.2999(7) -0.2905(4) 0.2858(4)
N3_2 N 1.0995(6) -0.2652(4) 0.4199(3)
H13_2 H 1.1318 -0.2190 0.4576
C11_2 C 0.9607(8) -0.3410(4) 0.4686(4)
H14_2 H 0.8823 -0.3051 0.5098
H15_2 H 1.0267 -0.4078 0.5098
C12_2 C 0.8347(8) -0.3748(5) 0.3990(4)
O11_2 O 0.8449(5) -0.3234(3) 0.3123(3)
O11A O -0.8449(5) -0.6766(3) -0.3123(3)
O12_2 O 0.7285(6) -0.4504(3) 0.4250(3)
O12A O -0.7285(6) -0.5496(3) -0.4250(3)
O13A O -0.9926(5) -0.4606(3) -0.3089(2)
O14A O -1.1975(5) -0.3155(3) -0.3340(2)
C13A C -1.0465(7) -0.3673(4) -0.3036(3)
C14A C -0.9154(7) -0.3073(4) -0.2531(3)
O15A O -0.7559(5) -0.3520(3) -0.2324(3)
O16A O -0.9796(5) -0.2221(3) -0.2340(2)
C15A C 0.9308(7) -0.9484(3) 0.4894(3)
O17A O 0.7812(5) -0.9570(3) 0.5347(2)
O17A_2 O -1.2188(5) 0.0430(3) -0.4653(2)
O18A O 0.9832(5) -0.8665(3) 0.4298(2)
O18_2 O -0.9832(5) -0.1335(3) -0.4298(2)
O19A O -1.4313(5) -0.1532(3) -0.4578(2)
H16A H -1.5356 -0.1188 -0.4611
H17A H -1.3737 -0.1283 -0.5087
O20A O -1.4419(5) -0.2418(3) -0.2109(2)
H18A H -1.5450 -0.2520 -0.2340
H19A H -1.3857 -0.3028 -0.1878
O21A O -0.4953(6) -0.4189(3) -0.3676(3)
H20A H -0.3935 -0.4076 -0.3440
H21A H -0.4737 -0.4460 -0.4137
O22 O 1.442(2) -1.1117(7) 0.0206(8)
loop_
_geom_bond_atom_site_label_1
_geom_bond_atom_site_label_2
_geom_bond_site_symmetry_1
_geom_bond_site_symmetry_2
Gd1 O1 1_555 1_555
Gd2 O6 1_555 1_555
Ni1 O5 1_555 1_555
Ni2 O10 1_555 1_555
O1 C2 1_555 1_555
O2 C2 1_555 1_555
C1 H1 1_555 1_555
H2 C1 1_555 1_555
C2 C1 1_555 1_555
N1 C1 1_555 1_555
H3 N1 1_555 1_555
C3 N1 1_555 1_555
H4 C3 1_555 1_555
H5 C3 1_555 1_555
C4 C3 1_555 1_555
O3 C4 1_555 1_555
O4 C4 1_555 1_555
O5 C6 1_555 1_555
O6 C6 1_555 1_555
C5 H6 1_555 1_555
H7 C5 1_555 1_555
C6 C5 1_555 1_555
N2 Ni1 1_555 1_555
H8 N2 1_555 1_555
C7 N2 1_555 1_555
H9 C7 1_555 1_555
H10 C7 1_555 1_555
C8 C7 1_555 1_555
O7 C8 1_555 1_555
O8 Ni1 1_555 1_555
O9 Gd2 1_555 1_555
O10 C10 1_555 1_555
C9 H11 1_555 1_555
H12 C9 1_555 1_555
C10 O9 1_555 1_555
N3 Ni2 1_555 1_555
H13 N3 1_555 1_555
C11 N3 1_555 1_555
H14 C11 1_555 1_555
H15 C11 1_555 1_555
C12 C11 1_555 1_555
O11 Ni2 1_555 1_555
O12 C12 1_555 1_555
O13 Gd2 1_555 1_555
O14 Gd1 1_555 1_555
C13 O13 1_555 1_555
C14 C13 1_555 1_555
O15 Gd2 1_555 1_555
O16 Gd1 1_555 1_555
C15 O17 1_555 1_555
O17 Gd1 1_555 1_555
O18 C15 1_555 1_555
O19 Gd1 1_555 1_555
H16 O19 1_555 1_555
H17 O19 1_555 1_555
O20 Gd1 1_555 1_555
H18 O20 1_555 1_555
H19 O20 1_555 1_555
O21 Gd2 1_555 1_555
H20 O21 1_555 1_555
H21 O21 1_555 1_555
Gd1A O1A 1_555 1_555
Gd1_2 O3 1_555 1_555
Gd1A_2 O18 1_555 1_555
Gd1_3 O1_2 1_555 1_555
Gd2A O6A 1_555 1_555
Gd2_2 O7 1_555 1_555
Gd2A_2 O7A 1_555 1_555
Gd2_3 O9_2 1_555 1_555
Ni2_2 O2_4 1_555 1_555
Ni2_3 O2 1_555 1_555
Ni2_4 O2_2 1_555 1_555
O1_2 C2_2 1_555 1_555
O2_2 C2_2 1_555 1_555
O2_3 Ni2 1_555 1_555
C1_2 H1_2 1_555 1_555
H2_2 C1_2 1_555 1_555
C2_2 C1_2 1_555 1_555
N1_2 Ni2_4 1_555 1_555
N1_3 Ni2 1_555 1_555
N1_4 Ni2_2 1_555 1_555
H3_2 N1_2 1_555 1_555
H3_3 N1_3 1_555 1_555
H3_4 N1_4 1_555 1_555
C3_2 N1_2 1_555 1_555
H4_2 C3_2 1_555 1_555
H5_2 C3_2 1_555 1_555
C4_2 C3_2 1_555 1_555
O3_2 Gd1 1_555 1_555
O3A Gd1A 1_555 1_555
O4_2 Gd1 1_555 1_555
O4_3 Ni2 1_555 1_555
O4A Gd1A 1_555 1_555
O4_4 Ni2_2 1_555 1_555
O5A Ni1 1_555 1_555
O6A C6A 1_555 1_555
C5A H6A 1_555 1_555
H7A C5A 1_555 1_555
C6A O5A 1_555 1_555
N2A Ni1 1_555 1_555
H8A N2A 1_555 1_555
C7A N2A 1_555 1_555
H9A C7A 1_555 1_555
H10A C7A 1_555 1_555
C8A C7A 1_555 1_555
O7A C8A 1_555 1_555
O7_2 Gd2 1_555 1_555
O7A_2 Gd2A 1_555 1_555
O8A Ni1 1_555 1_555
O8_2 Gd2 1_555 1_555
O8A_2 Gd2A 1_555 1_555
O9_2 C10_2 1_555 1_555
O9A Gd2A 1_555 1_555
O10_2 Ni2_2 1_555 1_555
C9_2 H11_2 1_555 1_555
H12_2 C9_2 1_555 1_555
C10_2 O10_2 1_555 1_555
N3_2 Ni2_2 1_555 1_555
H13_2 N3_2 1_555 1_555
C11_2 N3_2 1_555 1_555
H14_2 C11_2 1_555 1_555
H15_2 C11_2 1_555 1_555
C12_2 C11_2 1_555 1_555
O11_2 Gd2 1_555 1_555
O11A Gd2A 1_555 1_555
O12_2 Gd2 1_555 1_555
O12A Gd2A 1_555 1_555
O13A Gd2A 1_555 1_555
O14A Gd1A 1_555 1_555
C13A O13A 1_555 1_555
C14A C13A 1_555 1_555
O15A Gd2A 1_555 1_555
O16A Gd1A 1_555 1_555
C15A C15 1_555 1_555
O17A Gd1A_2 1_555 1_555
O17A_2 Gd1A 1_555 1_555
O18A Gd1 1_555 1_555
O18_2 Gd1A 1_555 1_555
O19A Gd1A 1_555 1_555
H16A O19A 1_555 1_555
H17A O19A 1_555 1_555
O20A Gd1A 1_555 1_555
H18A O20A 1_555 1_555
H19A O20A 1_555 1_555
O21A Gd2A 1_555 1_555
H20A O21A 1_555 1_555
H21A O21A 1_555 1_555
N1 Ni2_3 1_555 1_555
O4 Gd1_2 1_555 1_555
O4 Ni2_3 1_555 1_555
C5 N2 1_555 1_555
C8 O8 1_555 1_555
O8 Gd2_2 1_555 1_555
C9 C10 1_555 1_555
C9 N3 1_555 1_555
C12 O11 1_555 1_555
O11 Gd2_2 1_555 1_555
O12 Gd2_2 1_555 1_555
O14 C13 1_555 1_555
C14 O15 1_555 1_555
C14 O16 1_555 1_555
Gd2A_2 O8A 1_555 1_555
Ni2_2 O11_2 1_555 1_555
Ni2_4 O4_2 1_555 1_555
C1_2 N1_2 1_555 1_555
C4_2 O3_2 1_555 1_555
C4_2 O4_2 1_555 1_555
C5A C6A 1_555 1_555
C5A N2A 1_555 1_555
C8A O8A 1_555 1_555
C9_2 C10_2 1_555 1_555
C9_2 N3_2 1_555 1_555
C12_2 O11_2 1_555 1_555
C12_2 O12_2 1_555 1_555
O14A C13A 1_555 1_555
C14A O15A 1_555 1_555
C14A O16A 1_555 1_555
C15A O17A 1_555 1_555
C15A O18A 1_555 1_555

#END
