
#######################################################################
#
#                 Cambridge Crystallographic Data Centre
#                                CCDC 
#
#######################################################################
#
# If this CIF has been generated from an entry in the Cambridge 
# Structural Database, then it will include bibliographic, chemical, 
# crystal, experimental, refinement or atomic coordinate data resulting 
# from the CCDC's data processing and validation procedures.
#
#######################################################################

data_QOGDUM
_symmetry_cell_setting           triclinic
_symmetry_space_group_name_H-M   'P -1'
_symmetry_Int_Tables_number      2
_space_group_name_Hall           '-P 1'
loop_
_symmetry_equiv_pos_site_id
_symmetry_equiv_pos_as_xyz
1 x,y,z
2 -x,-y,-z
_cell_length_a                   7.113(2)
_cell_length_b                   8.519(2)
_cell_length_c                   12.641(4)
_cell_angle_alpha                74.748(5)
_cell_angle_beta                 88.024(5)
_cell_angle_gamma                86.919(5)
_cell_volume                     737.777
loop_
_atom_site_label
_atom_site_type_symbol
_atom_site_fract_x
_atom_site_fract_y
_atom_site_fract_z
Pr1 Pr 0.20527(2) 0.06631(2) 0.685363(14)
Ni1 Ni -0.5000 0.0000 1.0000
Ni2 Ni -0.5000 0.5000 0.5000
O1 O -0.0521(4) 0.0665(4) 0.8023(2)
O2 O -0.2889(4) 0.1132(3) 0.9053(2)
C1 C -0.1953(6) -0.1596(5) 0.9136(4)
H1 H -0.2023 -0.2082 0.8509
H2 H -0.0799 -0.2060 0.9541
C2 C -0.1796(5) 0.0209(5) 0.8704(3)
N1 N -0.3577(4) -0.2052(4) 0.9855(3)
H3 H -0.3189 -0.2670 1.0540
C3 C -0.4959(6) -0.2911(5) 0.9430(3)
H4 H -0.5694 -0.3581 1.0049
H5 H -0.4300 -0.3653 0.9039
C4 C -0.6264(6) -0.1764(5) 0.8668(3)
O3 O -0.7337(4) -0.2267(3) 0.8100(2)
O4 O -0.6214(4) -0.0277(3) 0.8623(2)
O5 O -0.0107(4) 0.2538(3) 0.5742(2)
O6 O -0.2661(4) 0.3580(3) 0.4869(2)
C5 C -0.1908(5) 0.4375(5) 0.6466(3)
H6 H -0.1938 0.3608 0.7206
H7 H -0.0849 0.5095 0.6435
C6 C -0.1554(5) 0.3426(5) 0.5633(3)
N2 N -0.3674(4) 0.5372(4) 0.6308(3)
H8 H -0.3416 0.6466 0.6176
C7 C -0.5026(5) 0.4934(5) 0.7216(3)
H9 H -0.5822 0.5909 0.7251
H10 H -0.4343 0.4552 0.7913
C8 C -0.6244(5) 0.3633(5) 0.7088(3)
O7 O -0.6020(4) 0.3136(3) 0.6225(2)
O8 O -0.7397(4) 0.3012(3) 0.7810(2)
C9 C 0.5644(5) -0.0465(4) 0.5459(3)
O9 O 0.5093(4) -0.0599(4) 0.6404(2)
O10 O 0.7145(3) -0.1054(3) 0.5163(2)
O11 O 0.0427(4) -0.1412(3) 0.6244(2)
H11 H 0.0715 -0.2226 0.6756
H12 H -0.0739 -0.1497 0.6254
Pr1A Pr -1.20527(2) -0.06631(2) 1.314637(14)
Pr1_2 Pr -0.79473(2) 0.06631(2) 0.685363(14)
Pr1A_2 Pr 0.79473(2) -0.06631(2) 0.314637(14)
Pr1A_3 Pr -0.20527(2) -0.06631(2) 1.314637(14)
Pr1_3 Pr 1.20527(2) 0.06631(2) 0.685363(14)
Ni2_2 Ni 0.5000 0.5000 0.5000
O1A O -0.9479(4) -0.0665(4) 1.1977(2)
O2A O -0.7111(4) -0.1132(3) 1.0947(2)
C1A C -0.8047(6) 0.1596(5) 1.0864(4)
H1A H -0.7977 0.2082 1.1491
H2A H -0.9201 0.2060 1.0459
C2A C -0.8204(5) -0.0209(5) 1.1296(3)
N1A N -0.6423(4) 0.2052(4) 1.0145(3)
H3A H -0.6811 0.2670 0.9460
C3A C -0.5041(6) 0.2911(5) 1.0570(3)
H4A H -0.4306 0.3581 0.9951
H5A H -0.5700 0.3653 1.0961
C4A C -0.3736(6) 0.1764(5) 1.1332(3)
O3A O -0.2663(4) 0.2267(3) 1.1900(2)
O3_2 O 0.2663(4) -0.2267(3) 0.8100(2)
O3A_2 O -1.2663(4) 0.2267(3) 1.1900(2)
O4A O -0.3786(4) 0.0277(3) 1.1377(2)
O4_2 O 0.3786(4) -0.0277(3) 0.8623(2)
O4A_2 O -1.3786(4) 0.0277(3) 1.1377(2)
O5_2 O 0.9893(4) 0.2538(3) 0.5742(2)
O5A O -0.9893(4) -0.2538(3) 1.4258(2)
O6_2 O 0.7339(4) 0.3580(3) 0.4869(2)
O6A O -0.7339(4) 0.6420(3) 0.5131(2)
C5_2 C 0.8092(5) 0.4375(5) 0.6466(3)
H6_2 H 0.8062 0.3608 0.7206
H7_2 H 0.9151 0.5095 0.6435
C6_2 C 0.8446(5) 0.3426(5) 0.5633(3)
N2_2 N 0.6326(4) 0.5372(4) 0.6308(3)
N2A N -0.6326(4) 0.4628(4) 0.3692(3)
H8_2 H 0.6584 0.6466 0.6176
H8A H -0.6584 0.3534 0.3824
C7_2 C 0.4974(5) 0.4934(5) 0.7216(3)
H9_2 H 0.4178 0.5909 0.7251
H10_2 H 0.5657 0.4552 0.7913
C8_2 C 0.3756(5) 0.3633(5) 0.7088(3)
O7_2 O 0.3980(4) 0.3136(3) 0.6225(2)
O7A O -0.3980(4) 0.6864(3) 0.3775(2)
O7A_2 O -1.3980(4) -0.3136(3) 1.3775(2)
O8_2 O 0.2603(4) 0.3012(3) 0.7810(2)
O8A O -1.2603(4) -0.3012(3) 1.2190(2)
C9A C 0.4356(5) 0.0465(4) 0.4541(3)
O9A O 0.4907(4) 0.0599(4) 0.3596(2)
O9A_2 O -1.5093(4) 0.0599(4) 1.3596(2)
O10A O 0.2855(3) 0.1054(3) 0.4837(2)
O10_2 O -1.2855(3) -0.1054(3) 1.5163(2)
O11A O -1.0427(4) 0.1412(3) 1.3756(2)
H11A H -1.0715 0.2226 1.3244
H12A H -0.9261 0.1497 1.3746
O12 O 0.0184(13) -0.4941(10) 0.8805(8)
O13? O 0.0964(16) -0.4498(14) 1.0947(7)
loop_
_geom_bond_atom_site_label_1
_geom_bond_atom_site_label_2
_geom_bond_site_symmetry_1
_geom_bond_site_symmetry_2
Pr1 O1 1_555 1_555
Ni1 O2 1_555 1_555
Ni2 O6 1_555 1_555
O1 C2 1_555 1_555
O2 C2 1_555 1_555
C1 H1 1_555 1_555
H2 C1 1_555 1_555
C2 C1 1_555 1_555
N1 Ni1 1_555 1_555
H3 N1 1_555 1_555
C3 N1 1_555 1_555
H4 C3 1_555 1_555
H5 C3 1_555 1_555
C4 C3 1_555 1_555
O3 C4 1_555 1_555
O4 Ni1 1_555 1_555
O5 Pr1 1_555 1_555
O6 C6 1_555 1_555
C5 H6 1_555 1_555
H7 C5 1_555 1_555
C6 O5 1_555 1_555
N2 Ni2 1_555 1_555
H8 N2 1_555 1_555
C7 N2 1_555 1_555
H9 C7 1_555 1_555
H10 C7 1_555 1_555
C8 C7 1_555 1_555
O7 Ni2 1_555 1_555
O8 C8 1_555 1_555
C9 O9 1_555 1_555
O9 Pr1 1_555 1_555
O10 C9 1_555 1_555
O11 Pr1 1_555 1_555
H11 O11 1_555 1_555
H12 O11 1_555 1_555
Pr1A O1A 1_555 1_555
Pr1_2 O3 1_555 1_555
Pr1A_2 O10 1_555 1_555
Pr1A_3 O3A 1_555 1_555
Pr1_3 O5_2 1_555 1_555
Ni2_2 O6_2 1_555 1_555
O1A C2A 1_555 1_555
O2A Ni1 1_555 1_555
C1A H1A 1_555 1_555
H2A C1A 1_555 1_555
C2A O2A 1_555 1_555
N1A Ni1 1_555 1_555
H3A N1A 1_555 1_555
C3A N1A 1_555 1_555
H4A C3A 1_555 1_555
H5A C3A 1_555 1_555
C4A C3A 1_555 1_555
O3A C4A 1_555 1_555
O3_2 Pr1 1_555 1_555
O3A_2 Pr1A 1_555 1_555
O4A Ni1 1_555 1_555
O4_2 Pr1 1_555 1_555
O4A_2 Pr1A 1_555 1_555
O5_2 C6_2 1_555 1_555
O5A Pr1A 1_555 1_555
O6_2 C6_2 1_555 1_555
O6A Ni2 1_555 1_555
C5_2 H6_2 1_555 1_555
H7_2 C5_2 1_555 1_555
C6_2 C5_2 1_555 1_555
N2_2 Ni2_2 1_555 1_555
N2A Ni2 1_555 1_555
H8_2 N2_2 1_555 1_555
H8A N2A 1_555 1_555
C7_2 N2_2 1_555 1_555
H9_2 C7_2 1_555 1_555
H10_2 C7_2 1_555 1_555
C8_2 C7_2 1_555 1_555
O7_2 Pr1 1_555 1_555
O7A Ni2 1_555 1_555
O7A_2 Pr1A 1_555 1_555
O8_2 Pr1 1_555 1_555
O8A Pr1A 1_555 1_555
C9A C9 1_555 1_555
O9A Pr1A_2 1_555 1_555
O9A_2 Pr1A 1_555 1_555
O10A Pr1 1_555 1_555
O10_2 Pr1A 1_555 1_555
O11A Pr1A 1_555 1_555
H11A O11A 1_555 1_555
H12A O11A 1_555 1_555
C1 N1 1_555 1_555
C4 O4 1_555 1_555
O4 Pr1_2 1_555 1_555
C5 C6 1_555 1_555
C5 N2 1_555 1_555
C8 O7 1_555 1_555
O7 Pr1_2 1_555 1_555
O8 Pr1_2 1_555 1_555
Pr1A_3 O4A 1_555 1_555
Ni2_2 O7_2 1_555 1_555
C1A C2A 1_555 1_555
C1A N1A 1_555 1_555
C4A O4A 1_555 1_555
C5_2 N2_2 1_555 1_555
C8_2 O7_2 1_555 1_555
C8_2 O8_2 1_555 1_555
C9A O9A 1_555 1_555
C9A O10A 1_555 1_555

#END
