
#######################################################################
#
#                 Cambridge Crystallographic Data Centre
#                                CCDC 
#
#######################################################################
#
# If this CIF has been generated from an entry in the Cambridge 
# Structural Database, then it will include bibliographic, chemical, 
# crystal, experimental, refinement or atomic coordinate data resulting 
# from the CCDC's data processing and validation procedures.
#
#######################################################################

data_QOGDIA
_symmetry_cell_setting           triclinic
_symmetry_space_group_name_H-M   'P -1'
_symmetry_Int_Tables_number      2
_space_group_name_Hall           '-P 1'
loop_
_symmetry_equiv_pos_site_id
_symmetry_equiv_pos_as_xyz
1 x,y,z
2 -x,-y,-z
_cell_length_a                   7.0976(19)
_cell_length_b                   12.604(3)
_cell_length_c                   14.654(4)
_cell_angle_alpha                74.981(5)
_cell_angle_beta                 89.720(5)
_cell_angle_gamma                87.365(5)
_cell_volume                     1264.77
loop_
_atom_site_label
_atom_site_type_symbol
_atom_site_fract_x
_atom_site_fract_y
_atom_site_fract_z
Eu1 Eu 1.24712(3) -0.876200(18) 0.327450(16)
Eu2 Eu 0.68023(3) -0.460900(18) 0.252990(17)
Ni1 Ni 0.0000 -0.5000 0.0000
Ni2 Ni -0.03610(9) -0.17337(5) 0.29875(5)
O1 O 1.5168(5) -0.9867(3) 0.3357(3)
O2 O 1.7399(5) -1.1176(3) 0.3640(2)
C1 C 1.6681(8) -1.0237(5) 0.2037(4)
H1 H 1.5538 -1.0424 0.1751
H2 H 1.6855 -0.9450 0.1771
C2 C 1.6402(7) -1.0450(4) 0.3083(4)
N1 N 1.8294(6) -1.0859(3) 0.1781(3)
H3 H 1.7899 -1.1326 0.1438
C3 C 1.9758(8) -1.0169(4) 0.1268(4)
H4 H 1.9166 -0.9522 0.0825
H5 H 2.0510 -1.0583 0.0903
C4 C 2.1007(7) -0.9809(4) 0.1926(4)
O3 O 2.2224(5) -0.9130(3) 0.1633(3)
O4 O 2.0773(5) -1.0209(3) 0.2814(2)
O5 O 0.2228(5) -0.5597(3) 0.0878(2)
O6 O 0.4646(5) -0.5066(3) 0.1535(3)
C5 C 0.2978(8) -0.3722(4) 0.0382(4)
H6 H 0.2913 -0.3228 0.0800
H7 H 0.4070 -0.3529 -0.0029
C6 C 0.3303(7) -0.4865(4) 0.0971(4)
N2 N 0.1279(6) -0.3519(3) -0.0207(3)
H8 H 0.1592 -0.3258 -0.0832
C7 C -0.0149(7) -0.2778(4) 0.0059(4)
H9 H -0.0904 -0.2401 -0.0499
H10 H 0.0476 -0.2220 0.0290
C8 C -0.1410(7) -0.3396(4) 0.0807(4)
O7 O -0.2560(6) -0.2882(3) 0.1200(3)
O8 O -0.1285(5) -0.4427(3) 0.1058(2)
O9 O 0.4387(5) -0.3343(3) 0.2562(3)
O10 O 0.1870(5) -0.2230(3) 0.2323(3)
C9 C 0.2699(8) -0.3155(5) 0.3894(4)
H11 H 0.2638 -0.3953 0.4139
H12 H 0.3796 -0.2927 0.4186
C10 C 0.2993(7) -0.2894(4) 0.2845(4)
N3 N 0.1007(6) -0.2633(3) 0.4183(3)
H13 H 0.1334 -0.2178 0.4550
C11 C -0.0395(7) -0.3391(4) 0.4674(3)
H14 H -0.1158 -0.3037 0.5080
H15 H 0.0252 -0.4049 0.5077
C12 C -0.1656(8) -0.3723(4) 0.3991(4)
O11 O -0.1571(5) -0.3220(3) 0.3118(2)
O12 O -0.2724(5) -0.4487(3) 0.4260(3)
O13 O 0.9924(5) -0.5398(3) 0.3098(2)
O14 O 1.1962(5) -0.6837(3) 0.3334(2)
C13 C 1.0444(7) -0.6323(4) 0.3034(3)
C14 C 0.9125(7) -0.6909(4) 0.2532(3)
O15 O 0.7533(5) -0.6472(3) 0.2333(3)
O16 O 0.9754(5) -0.7780(3) 0.2348(2)
C15 C 1.0669(7) -1.0510(4) 0.5092(3)
O17 O 1.2189(5) -1.0426(3) 0.4643(2)
O18 O 1.0170(5) -1.1332(3) 0.5693(2)
O19 O 1.4318(5) -0.8467(3) 0.4581(3)
H16 H 1.5361 -0.8811 0.4614
H17 H 1.3742 -0.8716 0.5090
O20 O 1.4409(5) -0.7561(3) 0.2092(3)
H18 H 1.5440 -0.7460 0.2322
H19 H 1.3847 -0.6952 0.1861
O21 O 0.4916(5) -0.5787(3) 0.3687(3)
H20 H 0.3898 -0.5900 0.3451
H21 H 0.4701 -0.5516 0.4147
Eu1A Eu -1.24712(3) -0.123800(18) -0.327450(16)
Eu1_2 Eu 2.24712(3) -0.876200(18) 0.327450(16)
Eu1A_2 Eu 0.75288(3) -1.123800(18) 0.672550(16)
Eu1_3 Eu 0.24712(3) -0.876200(18) 0.327450(16)
Eu2A Eu -0.68023(3) -0.539100(18) -0.252990(17)
Eu2_2 Eu -0.31977(3) -0.460900(18) 0.252990(17)
Eu2A_2 Eu 0.31977(3) -0.539100(18) -0.252990(17)
Eu2_3 Eu 1.68023(3) -0.460900(18) 0.252990(17)
Ni2_2 Ni 0.96390(9) -0.17337(5) 0.29875(5)
Ni2_3 Ni 1.96390(9) -1.17337(5) 0.29875(5)
Ni2_4 Ni 0.96390(9) -1.17337(5) 0.29875(5)
O1_2 O 0.5168(5) -0.9867(3) 0.3357(3)
O1A O -1.5168(5) -0.0133(3) -0.3357(3)
O2_2 O 0.7399(5) -1.1176(3) 0.3640(2)
O2_3 O -0.2601(5) -0.1176(3) 0.3640(2)
O2_4 O 0.7399(5) -0.1176(3) 0.3640(2)
C1_2 C 0.6681(8) -1.0237(5) 0.2037(4)
H1_2 H 0.5538 -1.0424 0.1751
H2_2 H 0.6855 -0.9450 0.1771
C2_2 C 0.6402(7) -1.0450(4) 0.3083(4)
N1_2 N 0.8294(6) -1.0859(3) 0.1781(3)
N1_3 N -0.1706(6) -0.0859(3) 0.1781(3)
N1_4 N 0.8294(6) -0.0859(3) 0.1781(3)
H3_2 H 0.7899 -1.1326 0.1438
H3_3 H -0.2101 -0.1326 0.1438
H3_4 H 0.7899 -0.1326 0.1438
C3_2 C 0.9758(8) -1.0169(4) 0.1268(4)
H4_2 H 0.9166 -0.9522 0.0825
H5_2 H 1.0510 -1.0583 0.0903
C4_2 C 1.1007(7) -0.9809(4) 0.1926(4)
O3_2 O 1.2224(5) -0.9130(3) 0.1633(3)
O3A O -1.2224(5) -0.0870(3) -0.1633(3)
O4_2 O 1.0773(5) -1.0209(3) 0.2814(2)
O4_3 O 0.0773(5) -0.0209(3) 0.2814(2)
O4A O -1.0773(5) 0.0209(3) -0.2814(2)
O4_4 O 1.0773(5) -0.0209(3) 0.2814(2)
O5A O -0.2228(5) -0.4403(3) -0.0878(2)
O6A O -0.4646(5) -0.4934(3) -0.1535(3)
C5A C -0.2978(8) -0.6278(4) -0.0382(4)
H6A H -0.2913 -0.6772 -0.0800
H7A H -0.4070 -0.6471 0.0029
C6A C -0.3303(7) -0.5135(4) -0.0971(4)
N2A N -0.1279(6) -0.6481(3) 0.0207(3)
H8A H -0.1592 -0.6742 0.0832
C7A C 0.0149(7) -0.7222(4) -0.0059(4)
H9A H 0.0904 -0.7599 0.0499
H10A H -0.0476 -0.7780 -0.0290
C8A C 0.1410(7) -0.6604(4) -0.0807(4)
O7A O 0.2560(6) -0.7118(3) -0.1200(3)
O7_2 O 0.7440(6) -0.2882(3) 0.1200(3)
O7A_2 O -0.7440(6) -0.7118(3) -0.1200(3)
O8A O 0.1285(5) -0.5573(3) -0.1058(2)
O8_2 O 0.8715(5) -0.4427(3) 0.1058(2)
O8A_2 O -0.8715(5) -0.5573(3) -0.1058(2)
O9_2 O 1.4387(5) -0.3343(3) 0.2562(3)
O9A O -0.4387(5) -0.6657(3) -0.2562(3)
O10_2 O 1.1870(5) -0.2230(3) 0.2323(3)
C9_2 C 1.2699(8) -0.3155(5) 0.3894(4)
H11_2 H 1.2638 -0.3953 0.4139
H12_2 H 1.3796 -0.2927 0.4186
C10_2 C 1.2993(7) -0.2894(4) 0.2845(4)
N3_2 N 1.1007(6) -0.2633(3) 0.4183(3)
H13_2 H 1.1334 -0.2178 0.4550
C11_2 C 0.9605(7) -0.3391(4) 0.4674(3)
H14_2 H 0.8842 -0.3037 0.5080
H15_2 H 1.0252 -0.4049 0.5077
C12_2 C 0.8344(8) -0.3723(4) 0.3991(4)
O11_2 O 0.8429(5) -0.3220(3) 0.3118(2)
O11A O -0.8429(5) -0.6780(3) -0.3118(2)
O12_2 O 0.7276(5) -0.4487(3) 0.4260(3)
O12A O -0.7276(5) -0.5513(3) -0.4260(3)
O13A O -0.9924(5) -0.4602(3) -0.3098(2)
O14A O -1.1962(5) -0.3163(3) -0.3334(2)
C13A C -1.0444(7) -0.3677(4) -0.3034(3)
C14A C -0.9125(7) -0.3091(4) -0.2532(3)
O15A O -0.7533(5) -0.3528(3) -0.2333(3)
O16A O -0.9754(5) -0.2220(3) -0.2348(2)
C15A C 0.9331(7) -0.9490(4) 0.4908(3)
O17A O 0.7811(5) -0.9574(3) 0.5357(2)
O17A_2 O -1.2189(5) 0.0426(3) -0.4643(2)
O18A O 0.9830(5) -0.8668(3) 0.4307(2)
O18_2 O -0.9830(5) -0.1332(3) -0.4307(2)
O19A O -1.4318(5) -0.1533(3) -0.4581(3)
H16A H -1.5361 -0.1189 -0.4614
H17A H -1.3742 -0.1284 -0.5090
O20A O -1.4409(5) -0.2439(3) -0.2092(3)
H18A H -1.5440 -0.2540 -0.2322
H19A H -1.3847 -0.3048 -0.1861
O21A O -0.4916(5) -0.4213(3) -0.3687(3)
H20A H -0.3898 -0.4100 -0.3451
H21A H -0.4701 -0.4484 -0.4147
O22 O -0.5726(19) -1.1132(7) 0.0245(8)
loop_
_geom_bond_atom_site_label_1
_geom_bond_atom_site_label_2
_geom_bond_site_symmetry_1
_geom_bond_site_symmetry_2
Eu1 O1 1_555 1_555
Eu2 O6 1_555 1_555
Ni1 O5 1_555 1_555
Ni2 O10 1_555 1_555
O1 C2 1_555 1_555
O2 C2 1_555 1_555
C1 H1 1_555 1_555
H2 C1 1_555 1_555
C2 C1 1_555 1_555
N1 C1 1_555 1_555
H3 N1 1_555 1_555
C3 N1 1_555 1_555
H4 C3 1_555 1_555
H5 C3 1_555 1_555
C4 C3 1_555 1_555
O3 C4 1_555 1_555
O4 C4 1_555 1_555
O5 C6 1_555 1_555
O6 C6 1_555 1_555
C5 H6 1_555 1_555
H7 C5 1_555 1_555
C6 C5 1_555 1_555
N2 Ni1 1_555 1_555
H8 N2 1_555 1_555
C7 N2 1_555 1_555
H9 C7 1_555 1_555
H10 C7 1_555 1_555
C8 C7 1_555 1_555
O7 C8 1_555 1_555
O8 Ni1 1_555 1_555
O9 Eu2 1_555 1_555
O10 C10 1_555 1_555
C9 H11 1_555 1_555
H12 C9 1_555 1_555
C10 O9 1_555 1_555
N3 Ni2 1_555 1_555
H13 N3 1_555 1_555
C11 N3 1_555 1_555
H14 C11 1_555 1_555
H15 C11 1_555 1_555
C12 C11 1_555 1_555
O11 Ni2 1_555 1_555
O12 C12 1_555 1_555
O13 Eu2 1_555 1_555
O14 Eu1 1_555 1_555
C13 O13 1_555 1_555
C14 C13 1_555 1_555
O15 Eu2 1_555 1_555
O16 Eu1 1_555 1_555
C15 O17 1_555 1_555
O17 Eu1 1_555 1_555
O18 C15 1_555 1_555
O19 Eu1 1_555 1_555
H16 O19 1_555 1_555
H17 O19 1_555 1_555
O20 Eu1 1_555 1_555
H18 O20 1_555 1_555
H19 O20 1_555 1_555
O21 Eu2 1_555 1_555
H20 O21 1_555 1_555
H21 O21 1_555 1_555
Eu1A O1A 1_555 1_555
Eu1_2 O3 1_555 1_555
Eu1A_2 O18 1_555 1_555
Eu1_3 O1_2 1_555 1_555
Eu2A O6A 1_555 1_555
Eu2_2 O7 1_555 1_555
Eu2A_2 O7A 1_555 1_555
Eu2_3 O9_2 1_555 1_555
Ni2_2 O2_4 1_555 1_555
Ni2_3 O2 1_555 1_555
Ni2_4 O2_2 1_555 1_555
O1_2 C2_2 1_555 1_555
O2_2 C2_2 1_555 1_555
O2_3 Ni2 1_555 1_555
C1_2 H1_2 1_555 1_555
H2_2 C1_2 1_555 1_555
C2_2 C1_2 1_555 1_555
N1_2 Ni2_4 1_555 1_555
N1_3 Ni2 1_555 1_555
N1_4 Ni2_2 1_555 1_555
H3_2 N1_2 1_555 1_555
H3_3 N1_3 1_555 1_555
H3_4 N1_4 1_555 1_555
C3_2 N1_2 1_555 1_555
H4_2 C3_2 1_555 1_555
H5_2 C3_2 1_555 1_555
C4_2 C3_2 1_555 1_555
O3_2 Eu1 1_555 1_555
O3A Eu1A 1_555 1_555
O4_2 Eu1 1_555 1_555
O4_3 Ni2 1_555 1_555
O4A Eu1A 1_555 1_555
O4_4 Ni2_2 1_555 1_555
O5A Ni1 1_555 1_555
O6A C6A 1_555 1_555
C5A H6A 1_555 1_555
H7A C5A 1_555 1_555
C6A O5A 1_555 1_555
N2A Ni1 1_555 1_555
H8A N2A 1_555 1_555
C7A N2A 1_555 1_555
H9A C7A 1_555 1_555
H10A C7A 1_555 1_555
C8A C7A 1_555 1_555
O7A C8A 1_555 1_555
O7_2 Eu2 1_555 1_555
O7A_2 Eu2A 1_555 1_555
O8A Ni1 1_555 1_555
O8_2 Eu2 1_555 1_555
O8A_2 Eu2A 1_555 1_555
O9_2 C10_2 1_555 1_555
O9A Eu2A 1_555 1_555
O10_2 Ni2_2 1_555 1_555
C9_2 H11_2 1_555 1_555
H12_2 C9_2 1_555 1_555
C10_2 O10_2 1_555 1_555
N3_2 Ni2_2 1_555 1_555
H13_2 N3_2 1_555 1_555
C11_2 N3_2 1_555 1_555
H14_2 C11_2 1_555 1_555
H15_2 C11_2 1_555 1_555
C12_2 C11_2 1_555 1_555
O11_2 Eu2 1_555 1_555
O11A Eu2A 1_555 1_555
O12_2 Eu2 1_555 1_555
O12A Eu2A 1_555 1_555
O13A Eu2A 1_555 1_555
O14A Eu1A 1_555 1_555
C13A O13A 1_555 1_555
C14A C13A 1_555 1_555
O15A Eu2A 1_555 1_555
O16A Eu1A 1_555 1_555
C15A C15 1_555 1_555
O17A Eu1A_2 1_555 1_555
O17A_2 Eu1A 1_555 1_555
O18A Eu1 1_555 1_555
O18_2 Eu1A 1_555 1_555
O19A Eu1A 1_555 1_555
H16A O19A 1_555 1_555
H17A O19A 1_555 1_555
O20A Eu1A 1_555 1_555
H18A O20A 1_555 1_555
H19A O20A 1_555 1_555
O21A Eu2A 1_555 1_555
H20A O21A 1_555 1_555
H21A O21A 1_555 1_555
N1 Ni2_3 1_555 1_555
O4 Eu1_2 1_555 1_555
O4 Ni2_3 1_555 1_555
C5 N2 1_555 1_555
C8 O8 1_555 1_555
O8 Eu2_2 1_555 1_555
C9 C10 1_555 1_555
C9 N3 1_555 1_555
C12 O11 1_555 1_555
O11 Eu2_2 1_555 1_555
O12 Eu2_2 1_555 1_555
O14 C13 1_555 1_555
C14 O15 1_555 1_555
C14 O16 1_555 1_555
Eu2A_2 O8A 1_555 1_555
Ni2_2 O11_2 1_555 1_555
Ni2_4 O4_2 1_555 1_555
C1_2 N1_2 1_555 1_555
C4_2 O3_2 1_555 1_555
C4_2 O4_2 1_555 1_555
C5A C6A 1_555 1_555
C5A N2A 1_555 1_555
C8A O8A 1_555 1_555
C9_2 C10_2 1_555 1_555
C9_2 N3_2 1_555 1_555
C12_2 O11_2 1_555 1_555
C12_2 O12_2 1_555 1_555
O14A C13A 1_555 1_555
C14A O15A 1_555 1_555
C14A O16A 1_555 1_555
C15A O17A 1_555 1_555
C15A O18A 1_555 1_555

#END
