
#######################################################################
#
#                 Cambridge Crystallographic Data Centre
#                                CCDC 
#
#######################################################################
#
# If this CIF has been generated from an entry in the Cambridge 
# Structural Database, then it will include bibliographic, chemical, 
# crystal, experimental, refinement or atomic coordinate data resulting 
# from the CCDC's data processing and validation procedures.
#
#######################################################################

data_QOGDAT
_symmetry_cell_setting           orthorhombic
_symmetry_space_group_name_H-M   'P b c a'
_symmetry_Int_Tables_number      61
_space_group_name_Hall           '-P 2ac 2ab'
loop_
_symmetry_equiv_pos_site_id
_symmetry_equiv_pos_as_xyz
1 x,y,z
2 1/2-x,-y,1/2+z
3 1/2+x,1/2-y,-z
4 -x,1/2+y,1/2-z
5 -x,-y,-z
6 1/2+x,y,1/2-z
7 1/2-x,1/2+y,z
8 x,1/2-y,1/2+z
_cell_length_a                   17.0070(16)
_cell_length_b                   8.9117(7)
_cell_length_c                   20.6623(10)
_cell_angle_alpha                90
_cell_angle_beta                 90
_cell_angle_gamma                90
_cell_volume                     3131.6
loop_
_atom_site_label
_atom_site_type_symbol
_atom_site_fract_x
_atom_site_fract_y
_atom_site_fract_z
Co1 Co 0.63637(3) 0.22220(6) 0.12641(3)
C1 C 1.0124(3) 0.2346(5) 0.3065(2)
C2 C 0.9376(3) 0.2574(5) 0.2688(2)
C3 C 0.8761(3) 0.1516(5) 0.27617(19)
H1 H 0.8826 0.0724 0.3050
C4 C 0.8075(2) 0.1629(5) 0.2420(2)
H2 H 0.7676 0.0922 0.2466
C5 C 0.7994(2) 0.2855(5) 0.19951(19)
C6 C 0.8582(2) 0.3942(4) 0.19544(19)
C7 C 0.9292(2) 0.3794(5) 0.22893(19)
H3 H 0.9692 0.4497 0.2244
C8 C 0.5755(3) 0.5566(5) 0.1090(2)
H4 H 0.5675 0.5559 0.1535
C9 C 0.5587(3) 0.6889(5) 0.0750(2)
H5 H 0.5395 0.7727 0.0966
C10 C 0.5711(3) 0.6930(6) 0.0096(3)
H6 H 0.5604 0.7797 -0.0138
C11 C 0.6003(3) 0.5646(6) -0.0217(2)
C12 C 0.6135(3) 0.4368(5) 0.0163(2)
C13 C 0.6395(3) 0.3013(5) -0.0145(2)
C14 C 0.6483(3) 0.2973(6) -0.0825(2)
C15 C 0.6348(3) 0.4293(6) -0.1186(2)
H7 H 0.6416 0.4269 -0.1632
C16 C 0.6123(3) 0.5598(6) -0.0901(2)
H8 H 0.6047 0.6455 -0.1150
C17 C 0.6691(3) 0.1586(7) -0.1099(2)
H9 H 0.6759 0.1501 -0.1544
C18 C 0.6792(3) 0.0379(6) -0.0714(2)
H10 H 0.6912 -0.0549 -0.0895
C19 C 0.6715(3) 0.0521(6) -0.0045(2)
H11 H 0.6805 -0.0317 0.0213
N1 N 0.74140(19) 0.3241(4) 0.15635(16)
N2 N 0.76288(19) 0.4545(4) 0.12921(16)
N3 N 0.8323(2) 0.5001(4) 0.15203(17)
N4 N 0.6018(2) 0.4336(4) 0.08151(17)
N5 N 0.6518(2) 0.1809(4) 0.02395(17)
O1 O 1.07636(18) 0.2837(3) 0.28370(15)
O2 O 1.01037(17) 0.1712(3) 0.36084(13)
Co1E Co 1.13637(3) 0.22220(6) 0.37359(3)
Co1F Co 0.86363(3) 0.72220(6) 0.12641(3)
N3F N 0.6677(2) 0.0001(4) 0.15203(17)
O1E O 0.57636(18) 0.2837(3) 0.21630(15)
O2E O 0.51037(17) 0.1712(3) 0.13916(13)
loop_
_geom_bond_atom_site_label_1
_geom_bond_atom_site_label_2
_geom_bond_site_symmetry_1
_geom_bond_site_symmetry_2
Co1 N1 1_555 1_555
C1 C2 1_555 1_555
C2 C3 1_555 1_555
C3 H1 1_555 1_555
C4 C3 1_555 1_555
H2 C4 1_555 1_555
C5 C4 1_555 1_555
C6 C5 1_555 1_555
C7 C2 1_555 1_555
H3 C7 1_555 1_555
C8 H4 1_555 1_555
C9 C8 1_555 1_555
H5 C9 1_555 1_555
C10 C9 1_555 1_555
H6 C10 1_555 1_555
C11 C10 1_555 1_555
C12 C11 1_555 1_555
C13 C12 1_555 1_555
C14 C13 1_555 1_555
C15 C14 1_555 1_555
H7 C15 1_555 1_555
C16 C11 1_555 1_555
H8 C16 1_555 1_555
C17 C14 1_555 1_555
H9 C17 1_555 1_555
C18 C17 1_555 1_555
H10 C18 1_555 1_555
C19 C18 1_555 1_555
H11 C19 1_555 1_555
N1 C5 1_555 1_555
N2 N1 1_555 1_555
N3 C6 1_555 1_555
N4 Co1 1_555 1_555
N5 Co1 1_555 1_555
O1 C1 1_555 1_555
O2 C1 1_555 1_555
Co1E O1 1_555 1_555
Co1F N3 1_555 1_555
N3F Co1 1_555 1_555
O1E Co1 1_555 1_555
O2E Co1 1_555 1_555
C6 C7 1_555 1_555
C8 N4 1_555 1_555
C12 N4 1_555 1_555
C13 N5 1_555 1_555
C15 C16 1_555 1_555
C19 N5 1_555 1_555
N2 N3 1_555 1_555
O2 Co1E 1_555 1_555

#END
