
#######################################################################
#
#                 Cambridge Crystallographic Data Centre
#                                CCDC 
#
#######################################################################
#
# If this CIF has been generated from an entry in the Cambridge 
# Structural Database, then it will include bibliographic, chemical, 
# crystal, experimental, refinement or atomic coordinate data resulting 
# from the CCDC's data processing and validation procedures.
#
#######################################################################

data_QOGFIB
_symmetry_cell_setting           orthorhombic
_symmetry_space_group_name_H-M   'I m a 2'
_symmetry_Int_Tables_number      46
_space_group_name_Hall           'I 2 -2a'
loop_
_symmetry_equiv_pos_site_id
_symmetry_equiv_pos_as_xyz
1 x,y,z
2 -x,-y,z
3 1/2-x,y,z
4 1/2+x,-y,z
5 1/2+x,1/2+y,1/2+z
6 1/2-x,1/2-y,1/2+z
7 -x,1/2+y,1/2+z
8 x,1/2-y,1/2+z
_cell_length_a                   19.270(4)
_cell_length_b                   7.2111(17)
_cell_length_c                   10.025(5)
_cell_angle_alpha                90
_cell_angle_beta                 90
_cell_angle_gamma                90
_cell_volume                     1393.05
loop_
_atom_site_label
_atom_site_type_symbol
_atom_site_fract_x
_atom_site_fract_y
_atom_site_fract_z
Br1 Br 0.2500 0.9850(3) 0.4662(3)
Br2 Br 0.2500 0.4999(3) 0.3284(3)
Br3 Br 0.54675(9) 0.2492(3) 0.9320(3)
Zn1 Zn 0.2500 0.6703(4) 0.5339(4)
Zn2 Zn 0.5000 0.0000 0.8039(4)
N1 N 0.3308(6) 0.5790(16) 0.6502(15)
H1 H 0.3685 0.6485 0.6328
H2 H 0.3197 0.5955 0.7366
N2 N 0.4222(7) 0.1127(18) 0.6882(19)
H3 H 0.4343 0.1014 0.602
H4 H 0.3834 0.0454 0.7005
C1 C 0.3481(7) 0.3825(19) 0.6283(18)
H5 H 0.3611 0.366 0.5356
H6 H 0.3069 0.3085 0.6443
C2 C 0.4055(9) 0.311(2) 0.7145(17)
H7 H 0.4467 0.3851 0.6996
H8 H 0.3923 0.3247 0.8074
N1B N 0.1692(6) 0.5790(16) 0.6502(15)
H1B H 0.1315 0.6485 0.6328
H2B H 0.1803 0.5955 0.7366
N2B N 0.0778(7) 0.1127(18) 0.6882(19)
H3B H 0.0657 0.1014 0.602
H4B H 0.1166 0.0454 0.7005
C1B C 0.1519(7) 0.3825(19) 0.6283(18)
H5B H 0.1389 0.366 0.5356
H6B H 0.1931 0.3085 0.6443
C2B C 0.0945(9) 0.311(2) 0.7145(17)
H7B H 0.0533 0.3851 0.6996
H8B H 0.1077 0.3247 0.8074
Br3A Br 0.45325(9) -0.2492(3) 0.9320(3)
N2A N 0.5778(7) -0.1127(18) 0.6882(19)
Zn2B Zn 0.0000 0.0000 0.8039(4)
H3A H 0.5657 -0.1014 0.602
H4A H 0.6166 -0.0454 0.7005
loop_
_geom_bond_atom_site_label_1
_geom_bond_atom_site_label_2
_geom_bond_site_symmetry_1
_geom_bond_site_symmetry_2
Br1 Zn1 1_555 1_555
Br2 Zn1 1_555 1_555
Br3 Zn2 1_555 1_555
Zn1 N1 1_555 1_555
Zn2 N2 1_555 1_555
N1 H1 1_555 1_555
H2 N1 1_555 1_555
N2 H3 1_555 1_555
H4 N2 1_555 1_555
C1 N1 1_555 1_555
H5 C1 1_555 1_555
H6 C1 1_555 1_555
C2 N2 1_555 1_555
H7 C2 1_555 1_555
H8 C2 1_555 1_555
N1B Zn1 1_555 1_555
H1B N1B 1_555 1_555
H2B N1B 1_555 1_555
N2B H3B 1_555 1_555
H4B N2B 1_555 1_555
C1B N1B 1_555 1_555
H5B C1B 1_555 1_555
H6B C1B 1_555 1_555
C2B N2B 1_555 1_555
H7B C2B 1_555 1_555
H8B C2B 1_555 1_555
Br3A Zn2 1_555 1_555
N2A Zn2 1_555 1_555
Zn2B N2B 1_555 1_555
H3A N2A 1_555 1_555
H4A N2A 1_555 1_555
C1 C2 1_555 1_555
C1B C2B 1_555 1_555

#END
