
#######################################################################
#
#                 Cambridge Crystallographic Data Centre
#                                CCDC 
#
#######################################################################
#
# If this CIF has been generated from an entry in the Cambridge 
# Structural Database, then it will include bibliographic, chemical, 
# crystal, experimental, refinement or atomic coordinate data resulting 
# from the CCDC's data processing and validation procedures.
#
#######################################################################

data_QOGFID
_symmetry_cell_setting           monoclinic
_symmetry_space_group_name_H-M   'P 21/m'
_symmetry_Int_Tables_number      11
_space_group_name_Hall           '-P 2yb'
loop_
_symmetry_equiv_pos_site_id
_symmetry_equiv_pos_as_xyz
1 x,y,z
2 -x,1/2+y,-z
3 -x,-y,-z
4 x,1/2-y,z
_cell_length_a                   9.611(3)
_cell_length_b                   13.439(5)
_cell_length_c                   10.413(4)
_cell_angle_alpha                90
_cell_angle_beta                 90.790(6)
_cell_angle_gamma                90
_cell_volume                     1344.84
loop_
_atom_site_label
_atom_site_type_symbol
_atom_site_fract_x
_atom_site_fract_y
_atom_site_fract_z
Ag1 Ag 0.48950(9) 0.2500 0.10280(9)
N1 N 0.3700(6) 0.3929(4) 0.0565(6)
N2 N 0.2330(6) 0.5712(4) 0.0140(5)
N3 N 0.3038(6) 0.5743(4) -0.1956(6)
N4 N 0.2935(8) 0.7500 -0.1938(8)
N5 N 0.1531(6) 0.5741(4) 0.2228(6)
N6 N 0.1453(9) 0.7500 0.2246(7)
C1 C 0.3697(7) 0.4351(5) -0.0588(7)
H1 H 0.4160 0.4031 -0.1275
C2 C 0.3024(7) 0.5254(5) -0.0807(7)
C3 C 0.2315(7) 0.5270(5) 0.1288(7)
C4 C 0.2993(7) 0.4381(5) 0.1515(7)
H2 H 0.2963 0.4085 0.2343
C5 C 0.3594(8) 0.5302(6) -0.3116(7)
H3 H 0.4436 0.4923 -0.2900
H4 H 0.3823 0.5830 -0.3727
H5 H 0.2898 0.4857 -0.3502
C6 C 0.2251(7) 0.6641(5) -0.2099(6)
C7 C 0.0845(8) 0.6608(5) -0.2415(7)
H6 H 0.0383 0.5988 -0.2520
C8 C 0.0118(12) 0.7500 -0.2578(10)
H7 H -0.0845 0.7500 -0.2794
C9 C 0.1951(9) 0.5649(6) 0.3569(8)
H8 H 0.1896 0.4950 0.3831
H9 H 0.1332 0.6049 0.4101
H10 H 0.2910 0.5886 0.3679
C10 C 0.0844(7) 0.6647(5) 0.1859(7)
C11 C -0.0312(7) 0.6607(5) 0.1056(7)
H11 H -0.0690 0.5988 0.0781
C12 C -0.0903(11) 0.7500 0.0666(11)
H12 H -0.1712 0.7500 0.0131
N1C N 0.3700(6) 1.1071(4) 0.0565(6)
N2C N 0.2330(6) 0.9288(4) 0.0140(5)
N3C N 0.3038(6) 0.9257(4) -0.1956(6)
N5C N 0.1531(6) 0.9259(4) 0.2228(6)
C1C C 0.3697(7) 1.0649(5) -0.0588(7)
H1C H 0.4160 1.0969 -0.1275
C2C C 0.3024(7) 0.9746(5) -0.0807(7)
C3C C 0.2315(7) 0.9730(5) 0.1288(7)
C4C C 0.2993(7) 1.0619(5) 0.1515(7)
H2C H 0.2963 1.0915 0.2343
C5C C 0.3594(8) 0.9698(6) -0.3116(7)
H3C H 0.4436 1.0077 -0.2900
H4C H 0.3823 0.9170 -0.3727
H5C H 0.2898 1.0143 -0.3502
C6C C 0.2251(7) 0.8359(5) -0.2099(6)
C7C C 0.0845(8) 0.8392(5) -0.2415(7)
H6C H 0.0383 0.9012 -0.2520
C9C C 0.1951(9) 0.9351(6) 0.3569(8)
H8C H 0.1896 1.0050 0.3831
H9C H 0.1332 0.8951 0.4101
H10C H 0.2910 0.9114 0.3679
C10C C 0.0844(7) 0.8353(5) 0.1859(7)
C11C C -0.0312(7) 0.8393(5) 0.1056(7)
H11C H -0.0690 0.9012 0.0781
Ag1_2 Ag 0.48950(9) 1.2500 0.10280(9)
Ag1A Ag 0.51050(9) 0.7500 -0.10280(9)
N1C_2 N 0.3700(6) 0.1071(4) 0.0565(6)
N4A N 0.7065(8) 0.2500 0.1938(8)
S1 S 0.3814(3) 0.2500 0.4745(3)
O1 O 0.4669(18) 0.3121(11) 0.5398(16)
O2 O 0.3400(9) 0.2500 0.3438(7)
C13 C 0.2221(14) 0.2500 0.5585(15)
F1 F 0.2448(10) 0.2500 0.6857(8)
F2 F 0.1444(6) 0.1710(4) 0.5330(6)
O1C O 0.4669(18) 0.1879(11) 0.5398(16)
F2C F 0.1444(6) 0.3290(4) 0.5330(6)
O3 O 0.5506(9) 0.2500 0.8054(8)
O4? O 0.4275(17) 0.1388(10) 0.4914(15)
H13? H 0.5264 0.2325 0.7309
H14? H 0.6374 0.2500 0.7973
loop_
_geom_bond_atom_site_label_1
_geom_bond_atom_site_label_2
_geom_bond_site_symmetry_1
_geom_bond_site_symmetry_2
Ag1 N1 1_555 1_555
N1 C1 1_555 1_555
N2 C2 1_555 1_555
N3 C2 1_555 1_555
N4 C6 1_555 1_555
N5 C3 1_555 1_555
N6 C10 1_555 1_555
C1 H1 1_555 1_555
C2 C1 1_555 1_555
C3 N2 1_555 1_555
C4 N1 1_555 1_555
H2 C4 1_555 1_555
C5 N3 1_555 1_555
H3 C5 1_555 1_555
H4 C5 1_555 1_555
H5 C5 1_555 1_555
C6 N3 1_555 1_555
C7 C6 1_555 1_555
H6 C7 1_555 1_555
C8 C7 1_555 1_555
H7 C8 1_555 1_555
C9 N5 1_555 1_555
H8 C9 1_555 1_555
H9 C9 1_555 1_555
H10 C9 1_555 1_555
C10 N5 1_555 1_555
C11 C10 1_555 1_555
H11 C11 1_555 1_555
C12 C11 1_555 1_555
H12 C12 1_555 1_555
S1 O1 1_555 1_555
O2 S1 1_555 1_555
C13 S1 1_555 1_555
F1 C13 1_555 1_555
F2 C13 1_555 1_555
N1C C1C 1_555 1_555
N2C C2C 1_555 1_555
N3C C2C 1_555 1_555
N5C C3C 1_555 1_555
C1C H1C 1_555 1_555
C2C C1C 1_555 1_555
C3C N2C 1_555 1_555
C4C N1C 1_555 1_555
H2C C4C 1_555 1_555
C5C N3C 1_555 1_555
H3C C5C 1_555 1_555
H4C C5C 1_555 1_555
H5C C5C 1_555 1_555
C6C N4 1_555 1_555
C7C C8 1_555 1_555
H6C C7C 1_555 1_555
C9C N5C 1_555 1_555
H8C C9C 1_555 1_555
H9C C9C 1_555 1_555
H10C C9C 1_555 1_555
C10C N6 1_555 1_555
C11C C12 1_555 1_555
H11C C11C 1_555 1_555
Ag1_2 N1C 1_555 1_555
Ag1A N4 1_555 1_555
N1C_2 Ag1 1_555 1_555
N4A Ag1 1_555 1_555
O1C S1 1_555 1_555
F2C C13 1_555 1_555
C3 C4 1_555 1_555
N3C C6C 1_555 1_555
N5C C10C 1_555 1_555
C3C C4C 1_555 1_555
C6C C7C 1_555 1_555
C10C C11C 1_555 1_555

#END
