
#######################################################################
#
#                 Cambridge Crystallographic Data Centre
#                                CCDC 
#
#######################################################################
#
# If this CIF has been generated from an entry in the Cambridge 
# Structural Database, then it will include bibliographic, chemical, 
# crystal, experimental, refinement or atomic coordinate data resulting 
# from the CCDC's data processing and validation procedures.
#
#######################################################################

data_QOGFAU
_symmetry_cell_setting           triclinic
_symmetry_space_group_name_H-M   'P -1'
_symmetry_Int_Tables_number      2
_space_group_name_Hall           '-P 1'
loop_
_symmetry_equiv_pos_site_id
_symmetry_equiv_pos_as_xyz
1 x,y,z
2 -x,-y,-z
_cell_length_a                   7.2250(13)
_cell_length_b                   8.6469(16)
_cell_length_c                   12.836(2)
_cell_angle_alpha                74.971(3)
_cell_angle_beta                 87.847(3)
_cell_angle_gamma                86.518(3)
_cell_volume                     772.857
loop_
_atom_site_label
_atom_site_type_symbol
_atom_site_fract_x
_atom_site_fract_y
_atom_site_fract_z
La1 La 0.204798(16) 0.067170(14) 0.686207(9)
Ni1 Ni -0.5000 0.0000 1.0000
Ni2 Ni -0.5000 0.5000 0.5000
O1 O -0.0522(3) 0.0659(3) 0.80751(18)
O2 O -0.2914(3) 0.1124(2) 0.90613(16)
C1 C -0.1952(4) -0.1561(4) 0.9140(3)
H1 H -0.1998 -0.2019 0.8528
H2 H -0.0840 -0.2009 0.9533
C2 C -0.1810(4) 0.0211(3) 0.8732(2)
N1 N -0.3565(3) -0.2038(2) 0.98436(17)
H3 H -0.3188 -0.2633 1.0502
C3 C -0.4897(4) -0.2897(3) 0.9420(2)
H4 H -0.5595 -0.3555 1.0014
H5 H -0.4240 -0.3602 0.9037
C4 C -0.6219(4) -0.1763(3) 0.8666(2)
O3 O -0.7258(3) -0.2261(2) 0.81058(16)
O4 O -0.6209(3) -0.0299(2) 0.86440(14)
O5 O -0.0178(3) 0.2520(3) 0.57481(16)
O6 O -0.2709(2) 0.3553(2) 0.48940(14)
C5 C -0.1956(4) 0.4391(3) 0.6440(2)
H6 H -0.1956 0.3674 0.7159
H7 H -0.0938 0.5092 0.6387
C6 C -0.1616(3) 0.3415(3) 0.5636(2)
N2 N -0.3698(3) 0.5370(2) 0.63007(16)
H8 H -0.3460 0.6424 0.6178
C7 C -0.5024(4) 0.4925(3) 0.7205(2)
H9 H -0.5798 0.5863 0.7251
H10 H -0.4354 0.4550 0.7872
C8 C -0.6228(3) 0.3639(3) 0.7076(2)
O7 O -0.6069(3) 0.3198(2) 0.62091(14)
O8 O -0.7329(3) 0.3016(2) 0.78019(15)
C9 C 0.5657(3) -0.0459(3) 0.54503(19)
O9 O 0.5121(3) -0.0573(3) 0.63906(15)
O10 O 0.7136(2) -0.1031(2) 0.51517(14)
O11 O 0.0401(3) -0.1418(2) 0.62478(17)
H11 H 0.0688 -0.2232 0.6759
H12 H -0.0766 -0.1504 0.6258
La1A La -1.204798(16) -0.067170(14) 1.313793(9)
La1_2 La -0.795202(16) 0.067170(14) 0.686207(9)
La1A_2 La 0.795202(16) -0.067170(14) 0.313793(9)
La1A_3 La -0.204798(16) -0.067170(14) 1.313793(9)
La1_3 La 1.204798(16) 0.067170(14) 0.686207(9)
Ni2_2 Ni 0.5000 0.5000 0.5000
O1A O -0.9478(3) -0.0659(3) 1.19249(18)
O2A O -0.7086(3) -0.1124(2) 1.09387(16)
C1A C -0.8048(4) 0.1561(4) 1.0860(3)
H1A H -0.8002 0.2019 1.1472
H2A H -0.9160 0.2009 1.0467
C2A C -0.8190(4) -0.0211(3) 1.1268(2)
N1A N -0.6435(3) 0.2038(2) 1.01564(17)
H3A H -0.6812 0.2633 0.9498
C3A C -0.5103(4) 0.2897(3) 1.0580(2)
H4A H -0.4405 0.3555 0.9986
H5A H -0.5760 0.3602 1.0963
C4A C -0.3781(4) 0.1763(3) 1.1334(2)
O3A O -0.2742(3) 0.2261(2) 1.18942(16)
O3_2 O 0.2742(3) -0.2261(2) 0.81058(16)
O3A_2 O -1.2742(3) 0.2261(2) 1.18942(16)
O4A O -0.3791(3) 0.0299(2) 1.13560(14)
O4_2 O 0.3791(3) -0.0299(2) 0.86440(14)
O4A_2 O -1.3791(3) 0.0299(2) 1.13560(14)
O5_2 O 0.9822(3) 0.2520(3) 0.57481(16)
O5A O -0.9822(3) -0.2520(3) 1.42519(16)
O6_2 O 0.7291(2) 0.3553(2) 0.48940(14)
O6A O -0.7291(2) 0.6447(2) 0.51060(14)
C5_2 C 0.8044(4) 0.4391(3) 0.6440(2)
H6_2 H 0.8044 0.3674 0.7159
H7_2 H 0.9062 0.5092 0.6387
C6_2 C 0.8384(3) 0.3415(3) 0.5636(2)
N2_2 N 0.6302(3) 0.5370(2) 0.63007(16)
N2A N -0.6302(3) 0.4630(2) 0.36993(16)
H8_2 H 0.6540 0.6424 0.6178
H8A H -0.6540 0.3576 0.3822
C7_2 C 0.4976(4) 0.4925(3) 0.7205(2)
H9_2 H 0.4202 0.5863 0.7251
H10_2 H 0.5646 0.4550 0.7872
C8_2 C 0.3772(3) 0.3639(3) 0.7076(2)
O7_2 O 0.3931(3) 0.3198(2) 0.62091(14)
O7A O -0.3931(3) 0.6802(2) 0.37909(14)
O7A_2 O -1.3931(3) -0.3198(2) 1.37909(14)
O8_2 O 0.2671(3) 0.3016(2) 0.78019(15)
O8A O -1.2671(3) -0.3016(2) 1.21981(15)
C9A C 0.4343(3) 0.0459(3) 0.45497(19)
O9A O 0.4879(3) 0.0573(3) 0.36094(15)
O9A_2 O -1.5121(3) 0.0573(3) 1.36094(15)
O10A O 0.2864(2) 0.1031(2) 0.48483(14)
O10_2 O -1.2864(2) -0.1031(2) 1.51517(14)
O11A O -1.0401(3) 0.1418(2) 1.37522(17)
H11A H -1.0688 0.2232 1.3241
H12A H -0.9234 0.1504 1.3742
O12 O -1.1091(17) 0.4296(12) 0.9019(6)
O13? O -0.9656(18) 0.5074(9) 0.8874(11)
loop_
_geom_bond_atom_site_label_1
_geom_bond_atom_site_label_2
_geom_bond_site_symmetry_1
_geom_bond_site_symmetry_2
La1 O1 1_555 1_555
Ni1 O2 1_555 1_555
Ni2 O6 1_555 1_555
O1 C2 1_555 1_555
O2 C2 1_555 1_555
C1 H1 1_555 1_555
H2 C1 1_555 1_555
C2 C1 1_555 1_555
N1 Ni1 1_555 1_555
H3 N1 1_555 1_555
C3 N1 1_555 1_555
H4 C3 1_555 1_555
H5 C3 1_555 1_555
C4 C3 1_555 1_555
O3 C4 1_555 1_555
O4 Ni1 1_555 1_555
O5 La1 1_555 1_555
O6 C6 1_555 1_555
C5 H6 1_555 1_555
H7 C5 1_555 1_555
C6 O5 1_555 1_555
N2 Ni2 1_555 1_555
H8 N2 1_555 1_555
C7 N2 1_555 1_555
H9 C7 1_555 1_555
H10 C7 1_555 1_555
C8 C7 1_555 1_555
O7 Ni2 1_555 1_555
O8 C8 1_555 1_555
C9 O9 1_555 1_555
O9 La1 1_555 1_555
O10 C9 1_555 1_555
O11 La1 1_555 1_555
H11 O11 1_555 1_555
H12 O11 1_555 1_555
La1A O1A 1_555 1_555
La1_2 O3 1_555 1_555
La1A_2 O10 1_555 1_555
La1A_3 O3A 1_555 1_555
La1_3 O5_2 1_555 1_555
Ni2_2 O6_2 1_555 1_555
O1A C2A 1_555 1_555
O2A Ni1 1_555 1_555
C1A H1A 1_555 1_555
H2A C1A 1_555 1_555
C2A O2A 1_555 1_555
N1A Ni1 1_555 1_555
H3A N1A 1_555 1_555
C3A N1A 1_555 1_555
H4A C3A 1_555 1_555
H5A C3A 1_555 1_555
C4A C3A 1_555 1_555
O3A C4A 1_555 1_555
O3_2 La1 1_555 1_555
O3A_2 La1A 1_555 1_555
O4A Ni1 1_555 1_555
O4_2 La1 1_555 1_555
O4A_2 La1A 1_555 1_555
O5_2 C6_2 1_555 1_555
O5A La1A 1_555 1_555
O6_2 C6_2 1_555 1_555
O6A Ni2 1_555 1_555
C5_2 H6_2 1_555 1_555
H7_2 C5_2 1_555 1_555
C6_2 C5_2 1_555 1_555
N2_2 Ni2_2 1_555 1_555
N2A Ni2 1_555 1_555
H8_2 N2_2 1_555 1_555
H8A N2A 1_555 1_555
C7_2 N2_2 1_555 1_555
H9_2 C7_2 1_555 1_555
H10_2 C7_2 1_555 1_555
C8_2 C7_2 1_555 1_555
O7_2 La1 1_555 1_555
O7A Ni2 1_555 1_555
O7A_2 La1A 1_555 1_555
O8_2 La1 1_555 1_555
O8A La1A 1_555 1_555
C9A C9 1_555 1_555
O9A La1A_2 1_555 1_555
O9A_2 La1A 1_555 1_555
O10A La1 1_555 1_555
O10_2 La1A 1_555 1_555
O11A La1A 1_555 1_555
H11A O11A 1_555 1_555
H12A O11A 1_555 1_555
C1 N1 1_555 1_555
C4 O4 1_555 1_555
O4 La1_2 1_555 1_555
C5 C6 1_555 1_555
C5 N2 1_555 1_555
C8 O7 1_555 1_555
O7 La1_2 1_555 1_555
O8 La1_2 1_555 1_555
La1A_3 O4A 1_555 1_555
Ni2_2 O7_2 1_555 1_555
C1A C2A 1_555 1_555
C1A N1A 1_555 1_555
C4A O4A 1_555 1_555
C5_2 N2_2 1_555 1_555
C8_2 O7_2 1_555 1_555
C8_2 O8_2 1_555 1_555
C9A O9A 1_555 1_555
C9A O10A 1_555 1_555

#END
