
#######################################################################
#
#                 Cambridge Crystallographic Data Centre
#                                CCDC 
#
#######################################################################
#
# If this CIF has been generated from an entry in the Cambridge 
# Structural Database, then it will include bibliographic, chemical, 
# crystal, experimental, refinement or atomic coordinate data resulting 
# from the CCDC's data processing and validation procedures.
#
#######################################################################

data_QOGFIC
_symmetry_cell_setting           triclinic
_symmetry_space_group_name_H-M   'P -1'
_symmetry_Int_Tables_number      2
_space_group_name_Hall           '-P 1'
loop_
_symmetry_equiv_pos_site_id
_symmetry_equiv_pos_as_xyz
1 x,y,z
2 -x,-y,-z
_cell_length_a                   7.1243(19)
_cell_length_b                   8.578(2)
_cell_length_c                   12.695(3)
_cell_angle_alpha                74.769(4)
_cell_angle_beta                 87.335(5)
_cell_angle_gamma                86.314(5)
_cell_volume                     746.667
loop_
_atom_site_label
_atom_site_type_symbol
_atom_site_fract_x
_atom_site_fract_y
_atom_site_fract_z
Eu1 Eu 0.20705(3) 0.06775(2) 0.684172(15)
Ni1 Ni -0.5000 0.0000 1.0000
Ni2 Ni -0.5000 0.5000 0.5000
O1 O -0.0423(5) 0.0682(5) 0.8033(3)
O2 O -0.2825(5) 0.1130(4) 0.9079(3)
C1 C -0.1947(8) -0.1587(6) 0.9085(5)
H1 H -0.2055 -0.1997 0.8449
H2 H -0.0816 -0.2096 0.9454
C2 C -0.1735(7) 0.0204(6) 0.8713(4)
N1 N -0.3571(6) -0.2056(5) 0.9820(3)
H3 H -0.3184 -0.2673 1.0480
C3 C -0.4955(8) -0.2883(6) 0.9396(4)
H4 H -0.5695 -0.3516 1.0000
H5 H -0.4312 -0.3622 0.9020
C4 C -0.6251(7) -0.1718(5) 0.8619(4)
O3 O -0.7329(5) -0.2207(4) 0.8065(3)
O4 O -0.6177(5) -0.0236(4) 0.8582(2)
O5 O -0.0115(5) 0.2450(5) 0.5761(3)
O6 O -0.2651(5) 0.3558(4) 0.4866(3)
C5 C -0.1907(7) 0.4344(6) 0.6468(4)
H6 H -0.1906 0.3613 0.7194
H7 H -0.0877 0.5051 0.6412
C6 C -0.1557(7) 0.3370(6) 0.5647(4)
N2 N -0.3691(6) 0.5335(4) 0.6335(3)
H8 H -0.3450 0.6397 0.6218
C7 C -0.5073(7) 0.4890(6) 0.7233(4)
H9 H -0.5864 0.5839 0.7271
H10 H -0.4425 0.4508 0.7916
C8 C -0.6274(7) 0.3608(6) 0.7093(4)
O7 O -0.6075(5) 0.3126(4) 0.6227(3)
O8 O -0.7461(5) 0.3008(4) 0.7813(3)
C9 C 0.5654(7) -0.0460(5) 0.5455(3)
O9 O 0.5096(5) -0.0549(5) 0.6407(3)
O10 O 0.7160(5) -0.1052(4) 0.5158(3)
O11 O 0.0435(5) -0.1314(4) 0.6243(3)
H11 H 0.0723 -0.2128 0.6754
H12 H -0.0732 -0.1400 0.6253
Eu1A Eu -1.20705(3) -0.06775(2) 1.315828(15)
Eu1_2 Eu -0.79295(3) 0.06775(2) 0.684172(15)
Eu1A_2 Eu 0.79295(3) -0.06775(2) 0.315828(15)
Eu1A_3 Eu -0.20705(3) -0.06775(2) 1.315828(15)
Eu1_3 Eu 1.20705(3) 0.06775(2) 0.684172(15)
Ni2_2 Ni 0.5000 0.5000 0.5000
O1A O -0.9577(5) -0.0682(5) 1.1967(3)
O2A O -0.7175(5) -0.1130(4) 1.0921(3)
C1A C -0.8053(8) 0.1587(6) 1.0915(5)
H1A H -0.7945 0.1997 1.1551
H2A H -0.9184 0.2096 1.0546
C2A C -0.8265(7) -0.0204(6) 1.1287(4)
N1A N -0.6429(6) 0.2056(5) 1.0180(3)
H3A H -0.6816 0.2673 0.9520
C3A C -0.5045(8) 0.2883(6) 1.0604(4)
H4A H -0.4305 0.3516 1.0000
H5A H -0.5688 0.3622 1.0980
C4A C -0.3749(7) 0.1718(5) 1.1381(4)
O3A O -0.2671(5) 0.2207(4) 1.1935(3)
O3_2 O 0.2671(5) -0.2207(4) 0.8065(3)
O3A_2 O -1.2671(5) 0.2207(4) 1.1935(3)
O4A O -0.3823(5) 0.0236(4) 1.1418(2)
O4_2 O 0.3823(5) -0.0236(4) 0.8582(2)
O4A_2 O -1.3823(5) 0.0236(4) 1.1418(2)
O5_2 O 0.9885(5) 0.2450(5) 0.5761(3)
O5A O -0.9885(5) -0.2450(5) 1.4239(3)
O6_2 O 0.7349(5) 0.3558(4) 0.4866(3)
O6A O -0.7349(5) 0.6442(4) 0.5134(3)
C5_2 C 0.8093(7) 0.4344(6) 0.6468(4)
H6_2 H 0.8094 0.3613 0.7194
H7_2 H 0.9123 0.5051 0.6412
C6_2 C 0.8443(7) 0.3370(6) 0.5647(4)
N2_2 N 0.6309(6) 0.5335(4) 0.6335(3)
N2A N -0.6309(6) 0.4665(4) 0.3665(3)
H8_2 H 0.6550 0.6397 0.6218
H8A H -0.6550 0.3603 0.3782
C7_2 C 0.4927(7) 0.4890(6) 0.7233(4)
H9_2 H 0.4136 0.5839 0.7271
H10_2 H 0.5575 0.4508 0.7916
C8_2 C 0.3726(7) 0.3608(6) 0.7093(4)
O7_2 O 0.3925(5) 0.3126(4) 0.6227(3)
O7A O -0.3925(5) 0.6874(4) 0.3773(3)
O7A_2 O -1.3925(5) -0.3126(4) 1.3773(3)
O8_2 O 0.2539(5) 0.3008(4) 0.7813(3)
O8A O -1.2539(5) -0.3008(4) 1.2187(3)
C9A C 0.4346(7) 0.0460(5) 0.4545(3)
O9A O 0.4904(5) 0.0549(5) 0.3593(3)
O9A_2 O -1.5096(5) 0.0549(5) 1.3593(3)
O10A O 0.2840(5) 0.1052(4) 0.4842(3)
O10_2 O -1.2840(5) -0.1052(4) 1.5158(3)
O11A O -1.0435(5) 0.1314(4) 1.3757(3)
H11A H -1.0723 0.2128 1.3246
H12A H -0.9268 0.1400 1.3747
O12 O -1.0994(19) 0.4258(17) 0.9106(8)
O13? O -1.021(3) 0.4920(18) 0.8854(13)
loop_
_geom_bond_atom_site_label_1
_geom_bond_atom_site_label_2
_geom_bond_site_symmetry_1
_geom_bond_site_symmetry_2
Eu1 O1 1_555 1_555
Ni1 O2 1_555 1_555
Ni2 O6 1_555 1_555
O1 C2 1_555 1_555
O2 C2 1_555 1_555
C1 H1 1_555 1_555
H2 C1 1_555 1_555
C2 C1 1_555 1_555
N1 Ni1 1_555 1_555
H3 N1 1_555 1_555
C3 N1 1_555 1_555
H4 C3 1_555 1_555
H5 C3 1_555 1_555
C4 C3 1_555 1_555
O3 C4 1_555 1_555
O4 Ni1 1_555 1_555
O5 Eu1 1_555 1_555
O6 C6 1_555 1_555
C5 H6 1_555 1_555
H7 C5 1_555 1_555
C6 O5 1_555 1_555
N2 Ni2 1_555 1_555
H8 N2 1_555 1_555
C7 N2 1_555 1_555
H9 C7 1_555 1_555
H10 C7 1_555 1_555
C8 C7 1_555 1_555
O7 Ni2 1_555 1_555
O8 C8 1_555 1_555
C9 O9 1_555 1_555
O9 Eu1 1_555 1_555
O10 C9 1_555 1_555
O11 Eu1 1_555 1_555
H11 O11 1_555 1_555
H12 O11 1_555 1_555
Eu1A O1A 1_555 1_555
Eu1_2 O3 1_555 1_555
Eu1A_2 O10 1_555 1_555
Eu1A_3 O3A 1_555 1_555
Eu1_3 O5_2 1_555 1_555
Ni2_2 O6_2 1_555 1_555
O1A C2A 1_555 1_555
O2A Ni1 1_555 1_555
C1A H1A 1_555 1_555
H2A C1A 1_555 1_555
C2A O2A 1_555 1_555
N1A Ni1 1_555 1_555
H3A N1A 1_555 1_555
C3A N1A 1_555 1_555
H4A C3A 1_555 1_555
H5A C3A 1_555 1_555
C4A C3A 1_555 1_555
O3A C4A 1_555 1_555
O3_2 Eu1 1_555 1_555
O3A_2 Eu1A 1_555 1_555
O4A Ni1 1_555 1_555
O4_2 Eu1 1_555 1_555
O4A_2 Eu1A 1_555 1_555
O5_2 C6_2 1_555 1_555
O5A Eu1A 1_555 1_555
O6_2 C6_2 1_555 1_555
O6A Ni2 1_555 1_555
C5_2 H6_2 1_555 1_555
H7_2 C5_2 1_555 1_555
C6_2 C5_2 1_555 1_555
N2_2 Ni2_2 1_555 1_555
N2A Ni2 1_555 1_555
H8_2 N2_2 1_555 1_555
H8A N2A 1_555 1_555
C7_2 N2_2 1_555 1_555
H9_2 C7_2 1_555 1_555
H10_2 C7_2 1_555 1_555
C8_2 C7_2 1_555 1_555
O7_2 Eu1 1_555 1_555
O7A Ni2 1_555 1_555
O7A_2 Eu1A 1_555 1_555
O8_2 Eu1 1_555 1_555
O8A Eu1A 1_555 1_555
C9A C9 1_555 1_555
O9A Eu1A_2 1_555 1_555
O9A_2 Eu1A 1_555 1_555
O10A Eu1 1_555 1_555
O10_2 Eu1A 1_555 1_555
O11A Eu1A 1_555 1_555
H11A O11A 1_555 1_555
H12A O11A 1_555 1_555
C1 N1 1_555 1_555
C4 O4 1_555 1_555
O4 Eu1_2 1_555 1_555
C5 C6 1_555 1_555
C5 N2 1_555 1_555
C8 O7 1_555 1_555
O7 Eu1_2 1_555 1_555
O8 Eu1_2 1_555 1_555
Eu1A_3 O4A 1_555 1_555
Ni2_2 O7_2 1_555 1_555
C1A C2A 1_555 1_555
C1A N1A 1_555 1_555
C4A O4A 1_555 1_555
C5_2 N2_2 1_555 1_555
C8_2 O7_2 1_555 1_555
C8_2 O8_2 1_555 1_555
C9A O9A 1_555 1_555
C9A O10A 1_555 1_555

#END
