
#######################################################################
#
#                 Cambridge Crystallographic Data Centre
#                                CCDC 
#
#######################################################################
#
# If this CIF has been generated from an entry in the Cambridge 
# Structural Database, then it will include bibliographic, chemical, 
# crystal, experimental, refinement or atomic coordinate data resulting 
# from the CCDC's data processing and validation procedures.
#
#######################################################################

data_QOGFEY
_symmetry_cell_setting           triclinic
_symmetry_space_group_name_H-M   'P -1'
_symmetry_Int_Tables_number      2
_space_group_name_Hall           '-P 1'
loop_
_symmetry_equiv_pos_site_id
_symmetry_equiv_pos_as_xyz
1 x,y,z
2 -x,-y,-z
_cell_length_a                   7.1630(16)
_cell_length_b                   8.5771(19)
_cell_length_c                   12.728(3)
_cell_angle_alpha                74.789(4)
_cell_angle_beta                 87.820(4)
_cell_angle_gamma                86.685(4)
_cell_volume                     753.109
loop_
_atom_site_label
_atom_site_type_symbol
_atom_site_fract_x
_atom_site_fract_y
_atom_site_fract_z
Nd1 Nd 0.20601(2) 0.066780(19) 0.684964(13)
Ni1 Ni -0.5000 0.0000 1.0000
Ni2 Ni -0.5000 0.5000 0.5000
O1 O -0.0500(4) 0.0660(3) 0.8024(2)
O2 O -0.2878(4) 0.1139(3) 0.9058(2)
C1 C -0.1946(6) -0.1601(5) 0.9119(4)
H1 H -0.2025 -0.2068 0.8490
H2 H -0.0797 -0.2074 0.9514
C2 C -0.1784(5) 0.0200(5) 0.8703(3)
N1 N -0.3583(4) -0.2068(4) 0.9851(2)
H3 H -0.3195 -0.2684 1.0530
C3 C -0.4960(5) -0.2923(4) 0.9422(3)
H4 H -0.5693 -0.3588 1.0035
H5 H -0.4301 -0.3659 0.9033
C4 C -0.6274(5) -0.1760(4) 0.8653(3)
O3 O -0.7344(4) -0.2235(3) 0.8082(2)
O4 O -0.6204(4) -0.0261(3) 0.8609(2)
O5 O -0.0098(4) 0.2535(3) 0.5742(2)
O6 O -0.2655(3) 0.3597(3) 0.4863(2)
C5 C -0.1915(5) 0.4370(5) 0.6473(3)
H6 H -0.1953 0.3601 0.7204
H7 H -0.0862 0.5078 0.6450
C6 C -0.1548(5) 0.3428(4) 0.5630(3)
N2 N -0.3676(4) 0.5374(4) 0.6317(2)
H8 H -0.3421 0.6460 0.6189
C7 C -0.5036(5) 0.4930(4) 0.7226(3)
H9 H -0.5833 0.5897 0.7265
H10 H -0.4362 0.4546 0.7919
C8 C -0.6256(5) 0.3619(4) 0.7089(3)
O7 O -0.6021(4) 0.3128(3) 0.6228(2)
O8 O -0.7420(4) 0.3013(3) 0.7809(2)
C9 C 0.5646(5) -0.0464(4) 0.5457(3)
O9 O 0.5102(4) -0.0598(3) 0.6410(2)
O10 O 0.7150(3) -0.1054(3) 0.5155(2)
O11 O 0.0429(4) -0.1387(3) 0.6246(2)
H11 H 0.0717 -0.2201 0.6758
H12 H -0.0737 -0.1472 0.6256
Nd1A Nd -1.20601(2) -0.066780(19) 1.315036(13)
Nd1_2 Nd -0.79399(2) 0.066780(19) 0.684964(13)
Nd1A_2 Nd 0.79399(2) -0.066780(19) 0.315036(13)
Nd1A_3 Nd -0.20601(2) -0.066780(19) 1.315036(13)
Nd1_3 Nd 1.20601(2) 0.066780(19) 0.684964(13)
Ni2_2 Ni 0.5000 0.5000 0.5000
O1A O -0.9500(4) -0.0660(3) 1.1976(2)
O2A O -0.7122(4) -0.1139(3) 1.0942(2)
C1A C -0.8054(6) 0.1601(5) 1.0881(4)
H1A H -0.7975 0.2068 1.1510
H2A H -0.9203 0.2074 1.0486
C2A C -0.8216(5) -0.0200(5) 1.1297(3)
N1A N -0.6417(4) 0.2068(4) 1.0149(2)
H3A H -0.6805 0.2684 0.9470
C3A C -0.5040(5) 0.2923(4) 1.0578(3)
H4A H -0.4307 0.3588 0.9965
H5A H -0.5699 0.3659 1.0967
C4A C -0.3726(5) 0.1760(4) 1.1347(3)
O3A O -0.2656(4) 0.2235(3) 1.1918(2)
O3_2 O 0.2656(4) -0.2235(3) 0.8082(2)
O3A_2 O -1.2656(4) 0.2235(3) 1.1918(2)
O4A O -0.3796(4) 0.0261(3) 1.1391(2)
O4_2 O 0.3796(4) -0.0261(3) 0.8609(2)
O4A_2 O -1.3796(4) 0.0261(3) 1.1391(2)
O5_2 O 0.9902(4) 0.2535(3) 0.5742(2)
O5A O -0.9902(4) -0.2535(3) 1.4258(2)
O6_2 O 0.7345(3) 0.3597(3) 0.4863(2)
O6A O -0.7345(3) 0.6403(3) 0.5137(2)
C5_2 C 0.8085(5) 0.4370(5) 0.6473(3)
H6_2 H 0.8047 0.3601 0.7204
H7_2 H 0.9138 0.5078 0.6450
C6_2 C 0.8452(5) 0.3428(4) 0.5630(3)
N2_2 N 0.6324(4) 0.5374(4) 0.6317(2)
N2A N -0.6324(4) 0.4626(4) 0.3683(2)
H8_2 H 0.6579 0.6460 0.6189
H8A H -0.6579 0.3540 0.3811
C7_2 C 0.4964(5) 0.4930(4) 0.7226(3)
H9_2 H 0.4167 0.5897 0.7265
H10_2 H 0.5638 0.4546 0.7919
C8_2 C 0.3744(5) 0.3619(4) 0.7089(3)
O7_2 O 0.3979(4) 0.3128(3) 0.6228(2)
O7A O -0.3979(4) 0.6872(3) 0.3772(2)
O7A_2 O -1.3979(4) -0.3128(3) 1.3772(2)
O8_2 O 0.2580(4) 0.3013(3) 0.7809(2)
O8A O -1.2580(4) -0.3013(3) 1.2191(2)
C9A C 0.4354(5) 0.0464(4) 0.4543(3)
O9A O 0.4898(4) 0.0598(3) 0.3590(2)
O9A_2 O -1.5102(4) 0.0598(3) 1.3590(2)
O10A O 0.2850(3) 0.1054(3) 0.4845(2)
O10_2 O -1.2850(3) -0.1054(3) 1.5155(2)
O11A O -1.0429(4) 0.1387(3) 1.3754(2)
H11A H -1.0717 0.2201 1.3242
H12A H -0.9263 0.1472 1.3744
O13 O -1.1001(14) 0.4449(12) 0.9068(6)
O12? O -0.9892(15) 0.5071(12) 0.8766(9)
loop_
_geom_bond_atom_site_label_1
_geom_bond_atom_site_label_2
_geom_bond_site_symmetry_1
_geom_bond_site_symmetry_2
Nd1 O1 1_555 1_555
Ni1 O2 1_555 1_555
Ni2 O6 1_555 1_555
O1 C2 1_555 1_555
O2 C2 1_555 1_555
C1 H1 1_555 1_555
H2 C1 1_555 1_555
C2 C1 1_555 1_555
N1 Ni1 1_555 1_555
H3 N1 1_555 1_555
C3 N1 1_555 1_555
H4 C3 1_555 1_555
H5 C3 1_555 1_555
C4 C3 1_555 1_555
O3 C4 1_555 1_555
O4 Ni1 1_555 1_555
O5 Nd1 1_555 1_555
O6 C6 1_555 1_555
C5 H6 1_555 1_555
H7 C5 1_555 1_555
C6 O5 1_555 1_555
N2 Ni2 1_555 1_555
H8 N2 1_555 1_555
C7 N2 1_555 1_555
H9 C7 1_555 1_555
H10 C7 1_555 1_555
C8 C7 1_555 1_555
O7 Ni2 1_555 1_555
O8 C8 1_555 1_555
C9 O9 1_555 1_555
O9 Nd1 1_555 1_555
O10 C9 1_555 1_555
O11 Nd1 1_555 1_555
H11 O11 1_555 1_555
H12 O11 1_555 1_555
Nd1A O1A 1_555 1_555
Nd1_2 O3 1_555 1_555
Nd1A_2 O10 1_555 1_555
Nd1A_3 O3A 1_555 1_555
Nd1_3 O5_2 1_555 1_555
Ni2_2 O6_2 1_555 1_555
O1A C2A 1_555 1_555
O2A Ni1 1_555 1_555
C1A H1A 1_555 1_555
H2A C1A 1_555 1_555
C2A O2A 1_555 1_555
N1A Ni1 1_555 1_555
H3A N1A 1_555 1_555
C3A N1A 1_555 1_555
H4A C3A 1_555 1_555
H5A C3A 1_555 1_555
C4A C3A 1_555 1_555
O3A C4A 1_555 1_555
O3_2 Nd1 1_555 1_555
O3A_2 Nd1A 1_555 1_555
O4A Ni1 1_555 1_555
O4_2 Nd1 1_555 1_555
O4A_2 Nd1A 1_555 1_555
O5_2 C6_2 1_555 1_555
O5A Nd1A 1_555 1_555
O6_2 C6_2 1_555 1_555
O6A Ni2 1_555 1_555
C5_2 H6_2 1_555 1_555
H7_2 C5_2 1_555 1_555
C6_2 C5_2 1_555 1_555
N2_2 Ni2_2 1_555 1_555
N2A Ni2 1_555 1_555
H8_2 N2_2 1_555 1_555
H8A N2A 1_555 1_555
C7_2 N2_2 1_555 1_555
H9_2 C7_2 1_555 1_555
H10_2 C7_2 1_555 1_555
C8_2 C7_2 1_555 1_555
O7_2 Nd1 1_555 1_555
O7A Ni2 1_555 1_555
O7A_2 Nd1A 1_555 1_555
O8_2 Nd1 1_555 1_555
O8A Nd1A 1_555 1_555
C9A C9 1_555 1_555
O9A Nd1A_2 1_555 1_555
O9A_2 Nd1A 1_555 1_555
O10A Nd1 1_555 1_555
O10_2 Nd1A 1_555 1_555
O11A Nd1A 1_555 1_555
H11A O11A 1_555 1_555
H12A O11A 1_555 1_555
C1 N1 1_555 1_555
C4 O4 1_555 1_555
O4 Nd1_2 1_555 1_555
C5 C6 1_555 1_555
C5 N2 1_555 1_555
C8 O7 1_555 1_555
O7 Nd1_2 1_555 1_555
O8 Nd1_2 1_555 1_555
Nd1A_3 O4A 1_555 1_555
Ni2_2 O7_2 1_555 1_555
C1A C2A 1_555 1_555
C1A N1A 1_555 1_555
C4A O4A 1_555 1_555
C5_2 N2_2 1_555 1_555
C8_2 O7_2 1_555 1_555
C8_2 O8_2 1_555 1_555
C9A O9A 1_555 1_555
C9A O10A 1_555 1_555

#END
