
#######################################################################
#
#                 Cambridge Crystallographic Data Centre
#                                CCDC 
#
#######################################################################
#
# If this CIF has been generated from an entry in the Cambridge 
# Structural Database, then it will include bibliographic, chemical, 
# crystal, experimental, refinement or atomic coordinate data resulting 
# from the CCDC's data processing and validation procedures.
#
#######################################################################

data_QOGFOI
_symmetry_cell_setting           triclinic
_symmetry_space_group_name_H-M   'P -1'
_symmetry_Int_Tables_number      2
_space_group_name_Hall           '-P 1'
loop_
_symmetry_equiv_pos_site_id
_symmetry_equiv_pos_as_xyz
1 x,y,z
2 -x,-y,-z
_cell_length_a                   7.4026(18)
_cell_length_b                   8.224(2)
_cell_length_c                   9.822(2)
_cell_angle_alpha                81.482(4)
_cell_angle_beta                 81.709(4)
_cell_angle_gamma                83.254(4)
_cell_volume                     582.348
loop_
_atom_site_label
_atom_site_type_symbol
_atom_site_fract_x
_atom_site_fract_y
_atom_site_fract_z
Dy1 Dy 0.32211(4) 0.39534(3) 0.78976(3)
Ni1 Ni 0.0000 0.0000 1.0000
O1 O 0.1418(7) 0.1586(6) 0.8569(5)
O2 O 0.2286(9) 0.2208(9) 0.6389(6)
C1 C 0.0435(13) -0.0021(13) 0.7071(9)
H1 H -0.0188 0.0363 0.6262
H2 H 0.1301 -0.0959 0.6862
C2 C 0.1453(11) 0.1325(10) 0.7357(8)
N1 N -0.0895(7) -0.0540(7) 0.8235(6)
H3 H -0.0929 -0.1652 0.8303
C3 C -0.2733(11) 0.0261(11) 0.8177(10)
H4 H -0.3591 -0.0575 0.8382
H5 H -0.2827 0.0803 0.7240
C4 C -0.3270(10) 0.1489(9) 0.9146(7)
O3 O -0.4796(7) 0.2289(8) 0.9119(6)
O4 O -0.2229(7) 0.1655(7) 0.9996(5)
C5 C 0.0542(9) 0.4618(8) 1.0594(7)
O5 O 0.2106(6) 0.4006(6) 1.0281(5)
O6 O -0.0288(6) 0.4645(7) 1.1787(5)
C6 C 0.4156(9) 0.5588(8) 0.4860(7)
O7 O 0.2905(7) 0.5680(7) 0.5834(5)
O8 O 0.4174(7) 0.6375(6) 0.3668(5)
O9 O 0.4576(9) 0.6195(8) 0.8269(6)
H6 H 0.5040 0.6679 0.7494
H7 H 0.3767 0.6858 0.8660
Dy1A Dy -0.32211(4) -0.39534(3) 1.21024(3)
Dy1_2 Dy -0.67789(4) 0.39534(3) 0.78976(3)
Dy1A_2 Dy -0.32211(4) 0.60466(3) 1.21024(3)
Dy1A_3 Dy 0.67789(4) 0.60466(3) 0.21024(3)
Dy1A_4 Dy 0.67789(4) -0.39534(3) 1.21024(3)
O1A O -0.1418(7) -0.1586(6) 1.1431(5)
O2A O -0.2286(9) -0.2208(9) 1.3611(6)
C1A C -0.0435(13) 0.0021(13) 1.2929(9)
H1A H 0.0188 -0.0363 1.3738
H2A H -0.1301 0.0959 1.3138
C2A C -0.1453(11) -0.1325(10) 1.2643(8)
N1A N 0.0895(7) 0.0540(7) 1.1765(6)
H3A H 0.0929 0.1652 1.1697
C3A C 0.2733(11) -0.0261(11) 1.1823(10)
H4A H 0.3591 0.0575 1.1618
H5A H 0.2827 -0.0803 1.2760
C4A C 0.3270(10) -0.1489(9) 1.0854(7)
O3A O 0.4796(7) -0.2289(8) 1.0881(6)
O3_2 O 0.5204(7) 0.2289(8) 0.9119(6)
O3A_2 O -0.5204(7) -0.2289(8) 1.0881(6)
O4A O 0.2229(7) -0.1655(7) 1.0004(5)
C5A C -0.0542(9) 0.5382(8) 0.9406(7)
O5A O -0.2106(6) 0.5994(6) 0.9719(5)
O5A_2 O -0.2106(6) -0.4006(6) 0.9719(5)
O6A O 0.0288(6) 0.5355(7) 0.8213(5)
O6_2 O -0.0288(6) -0.5355(7) 1.1787(5)
C6A C 0.5844(9) 0.4412(8) 0.5140(7)
O7A O 0.7095(7) 0.4320(7) 0.4166(5)
O7A_2 O -0.2905(7) -0.5680(7) 1.4166(5)
O8A O 0.5826(7) 0.3625(6) 0.6332(5)
O8_2 O -0.5826(7) -0.3625(6) 1.3668(5)
O9A O -0.4576(9) -0.6195(8) 1.1731(6)
H6A H -0.5040 -0.6679 1.2506
H7A H -0.3767 -0.6858 1.1340
O10 O 0.7656(9) 0.7102(8) 0.6526(6)
H8 H 0.7611 0.7774 0.5783
H9 H 0.8269 0.6206 0.6332
loop_
_geom_bond_atom_site_label_1
_geom_bond_atom_site_label_2
_geom_bond_site_symmetry_1
_geom_bond_site_symmetry_2
Dy1 O1 1_555 1_555
Ni1 O1 1_555 1_555
O1 C2 1_555 1_555
O2 Dy1 1_555 1_555
C1 H1 1_555 1_555
H2 C1 1_555 1_555
C2 O2 1_555 1_555
N1 Ni1 1_555 1_555
H3 N1 1_555 1_555
C3 N1 1_555 1_555
H4 C3 1_555 1_555
H5 C3 1_555 1_555
C4 C3 1_555 1_555
O3 C4 1_555 1_555
O4 Ni1 1_555 1_555
C5 O5 1_555 1_555
O5 Dy1 1_555 1_555
O6 C5 1_555 1_555
C6 O7 1_555 1_555
O7 Dy1 1_555 1_555
O8 C6 1_555 1_555
O9 Dy1 1_555 1_555
H6 O9 1_555 1_555
H7 O9 1_555 1_555
O10 H8 1_555 1_555
H9 O10 1_555 1_555
Dy1A O1A 1_555 1_555
Dy1_2 O3 1_555 1_555
Dy1A_2 O6 1_555 1_555
Dy1A_3 O8 1_555 1_555
Dy1A_4 O3A 1_555 1_555
O1A Ni1 1_555 1_555
O2A Dy1A 1_555 1_555
C1A H1A 1_555 1_555
H2A C1A 1_555 1_555
C2A O1A 1_555 1_555
N1A Ni1 1_555 1_555
H3A N1A 1_555 1_555
C3A N1A 1_555 1_555
H4A C3A 1_555 1_555
H5A C3A 1_555 1_555
C4A C3A 1_555 1_555
O3A C4A 1_555 1_555
O3_2 Dy1 1_555 1_555
O3A_2 Dy1A 1_555 1_555
O4A Ni1 1_555 1_555
C5A C5 1_555 1_555
O5A Dy1A_2 1_555 1_555
O5A_2 Dy1A 1_555 1_555
O6A Dy1 1_555 1_555
O6_2 Dy1A 1_555 1_555
C6A C6 1_555 1_555
O7A Dy1A_3 1_555 1_555
O7A_2 Dy1A 1_555 1_555
O8A Dy1 1_555 1_555
O8_2 Dy1A 1_555 1_555
O9A Dy1A 1_555 1_555
H6A O9A 1_555 1_555
H7A O9A 1_555 1_555
C1 C2 1_555 1_555
C1 N1 1_555 1_555
C4 O4 1_555 1_555
O2A C2A 1_555 1_555
C1A C2A 1_555 1_555
C1A N1A 1_555 1_555
C4A O4A 1_555 1_555
C5A O5A 1_555 1_555
C5A O6A 1_555 1_555
C6A O7A 1_555 1_555
C6A O8A 1_555 1_555

#END
