
#######################################################################
#
#                 Cambridge Crystallographic Data Centre
#                                CCDC 
#
#######################################################################
#
# If this CIF has been generated from an entry in the Cambridge 
# Structural Database, then it will include bibliographic, chemical, 
# crystal, experimental, refinement or atomic coordinate data resulting 
# from the CCDC's data processing and validation procedures.
#
#######################################################################

data_QOGFUN
_symmetry_cell_setting           monoclinic
_symmetry_space_group_name_H-M   'P 21/n'
_symmetry_Int_Tables_number      14
_space_group_name_Hall           '-P 2yn'
loop_
_symmetry_equiv_pos_site_id
_symmetry_equiv_pos_as_xyz
1 x,y,z
2 1/2+x,1/2-y,1/2+z
3 -x,-y,-z
4 1/2-x,1/2+y,1/2-z
_cell_length_a                   12.9880(10)
_cell_length_b                   21.823(2)
_cell_length_c                   23.542(4)
_cell_angle_alpha                90
_cell_angle_beta                 90.840(10)
_cell_angle_gamma                90
_cell_volume                     6671.96
loop_
_atom_site_label
_atom_site_type_symbol
_atom_site_fract_x
_atom_site_fract_y
_atom_site_fract_z
Eu1 Eu -0.714116(19) 1.312782(10) 0.258538(9)
Eu2 Eu -0.783652(17) 1.482469(11) 0.273650(9)
Eu3 Eu -0.789660(18) 1.148650(10) 0.233400(10)
O1 O -0.6764(2) 1.20403(14) 0.29244(12)
O2 O -0.5622(2) 1.27554(15) 0.31032(14)
O3 O -0.5661(3) 1.35361(15) 0.21068(14)
O4 O -0.6312(2) 1.42125(14) 0.26859(13)
O5 O -0.7565(3) 1.31085(16) 0.35960(13)
O6 O -0.8270(2) 1.38653(13) 0.31214(12)
O7 O -0.7997(3) 1.3779(2) 0.19376(15)
O8 O -0.8963(3) 1.4601(2) 0.19565(16)
O9 O -0.9557(2) 1.51057(15) 0.30221(14)
O10 O -0.8623(2) 1.59064(14) 0.28238(13)
O11 O -0.7445(3) 1.49540(15) 0.37353(13)
O12 O -0.6597(2) 1.56006(13) 0.32048(12)
O13 O -0.7076(3) 1.54703(15) 0.20668(13)
O14 O -0.6446(3) 1.63074(17) 0.17091(15)
O15 O -0.7871(3) 1.17799(16) 0.13619(14)
O16 O -0.6913(3) 1.24393(16) 0.18133(13)
O17 O -0.9692(2) 1.17504(15) 0.22769(14)
O18 O -0.8690(2) 1.25258(14) 0.25099(13)
C1 C -0.3919(4) 1.0626(3) 0.4813(2)
H1 H -0.3319 1.0829 0.4964
H2 H -0.3722 1.0245 0.4642
H3 H -0.4393 1.0549 0.5113
C2 C -0.4429(4) 1.1030(3) 0.4369(2)
C3 C -0.5240(4) 1.0825(2) 0.4045(2)
H4 H -0.5478 1.0426 0.4091
C4 C -0.5714(4) 1.1206(2) 0.3646(2)
H5 H -0.6260 1.1056 0.3427
C5 C -0.5391(4) 1.1799(2) 0.35706(18)
C6 C -0.4570(4) 1.2011(2) 0.3899(2)
H6 H -0.4342 1.2413 0.3859
C7 C -0.4089(4) 1.1621(3) 0.4288(2)
H7 H -0.3526 1.1763 0.4498
C8 C -0.5941(4) 1.2222(2) 0.31802(18)
C9 C -0.2045(5) 1.5572(3) 0.1936(3)
H8 H -0.1422 1.5342 0.1994
H9 H -0.2045 1.5919 0.2187
H10 H -0.2085 1.5712 0.1550
C10 C -0.2960(4) 1.5169(3) 0.2059(2)
C11 C -0.3761(4) 1.5386(3) 0.2383(2)
H11 H -0.3728 1.5780 0.2533
C12 C -0.4616(4) 1.5021(2) 0.2487(2)
H12 H -0.5136 1.5166 0.2718
C13 C -0.4697(4) 1.4445(2) 0.22490(19)
C14 C -0.3895(4) 1.4233(3) 0.1930(2)
H13 H -0.3933 1.3843 0.1770
C15 C -0.3042(5) 1.4585(3) 0.1843(3)
H14 H -0.2504 1.4427 0.1632
C16 C -0.5598(4) 1.4047(2) 0.2351(2)
C17 C -1.0720(5) 1.4138(3) 0.5507(2)
H15 H -1.0598 1.3847 0.5806
H16 H -1.1430 1.4120 0.5389
H17 H -1.0561 1.4543 0.5641
C18 C -1.0044(4) 1.3987(3) 0.5010(2)
C19 C -1.0233(4) 1.4245(2) 0.4480(2)
H18 H -1.0786 1.4512 0.4432
C20 C -0.9619(4) 1.4117(2) 0.4025(2)
H19 H -0.9749 1.4306 0.3677
C21 C -0.8815(4) 1.3711(2) 0.40787(19)
C22 C -0.8621(4) 1.3437(3) 0.4603(2)
H20 H -0.8087 1.3156 0.4646
C23 C -0.9238(5) 1.3589(3) 0.5062(2)
H21 H -0.9096 1.3414 0.5415
C24 C -0.8170(4) 1.3550(2) 0.35879(19)
C25 C -1.1514(5) 1.3037(3) 0.0059(2)
H22 H -1.1493 1.3294 -0.0272
H23 H -1.2205 1.3024 0.0198
H24 H -1.1296 1.2631 -0.0038
C26 C -1.0795(4) 1.3298(3) 0.0520(2)
C27 C -1.1025(4) 1.3851(3) 0.0772(2)
H25 H -1.1626 1.4057 0.0669
C28 C -1.0373(4) 1.4101(2) 0.1176(2)
H26 H -1.0532 1.4476 0.1341
C29 C -0.9481(4) 1.3796(2) 0.13361(19)
C30 C -0.9264(4) 1.3252(2) 0.1087(2)
H27 H -0.8659 1.3049 0.1187
C31 C -0.9918(5) 1.2993(3) 0.0687(2)
H28 H -0.9765 1.2613 0.0531
C32 C -0.8768(4) 1.4090(3) 0.1767(2)
C33 C -1.2904(5) 1.7206(3) 0.3634(3)
H29 H -1.3530 1.7079 0.3447
H30 H -1.2761 1.7625 0.3541
H31 H -1.2977 1.7167 0.4038
C34 C -1.2023(5) 1.6804(3) 0.3441(2)
C35 C -1.2070(4) 1.6178(4) 0.3502(2)
H32 H -1.2656 1.5998 0.3651
C36 C -1.1255(4) 1.5813(3) 0.3344(2)
H33 H -1.1302 1.5390 0.3384
C37 C -1.0363(4) 1.6070(2) 0.31259(19)
C38 C -1.0326(4) 1.6696(2) 0.3062(2)
H34 H -0.9741 1.6879 0.2914
C39 C -1.1154(5) 1.7057(3) 0.3217(2)
H35 H -1.1119 1.7479 0.3167
C40 C -0.9479(4) 1.5677(2) 0.29833(18)
C41 C -0.4506(5) 1.6164(3) 0.5697(2)
H36 H -0.4728 1.5936 0.6022
H37 H -0.4626 1.6593 0.5759
H38 H -0.3784 1.6096 0.5641
C42 C -0.5105(5) 1.5956(2) 0.5174(2)
C43 C -0.5919(4) 1.5558(2) 0.5214(2)
H39 H -0.6110 1.5414 0.5569
C44 C -0.6463(4) 1.5364(2) 0.4734(2)
H40 H -0.7013 1.5094 0.4770
C45 C -0.6188(4) 1.5569(2) 0.42062(19)
C46 C -0.5368(4) 1.5970(2) 0.4160(2)
H41 H -0.5178 1.6114 0.3805
C47 C -0.4829(4) 1.6157(2) 0.4644(2)
H42 H -0.4274 1.6422 0.4609
C48 C -0.6783(4) 1.5362(2) 0.36986(19)
C49 C -0.6229(5) 1.4569(3) -0.0533(2)
H43 H -0.6815 1.4655 -0.0773
H44 H -0.6168 1.4134 -0.0480
H45 H -0.5618 1.4723 -0.0708
C50 C -0.6365(4) 1.4877(4) 0.0039(2)
C51 C -0.6387(4) 1.5504(3) 0.0082(2)
H46 H -0.6326 1.5740 -0.0244
C52 C -0.6499(4) 1.5794(3) 0.0609(2)
H47 H -0.6505 1.6220 0.0631
C53 C -0.6600(4) 1.5445(2) 0.10960(19)
C54 C -0.6586(4) 1.4823(3) 0.1051(2)
H48 H -0.6656 1.4585 0.1376
C55 C -0.6469(4) 1.4539(3) 0.0528(2)
H49 H -0.6461 1.4113 0.0509
C56 C -0.6700(4) 1.5759(3) 0.1645(2)
C57 C -0.5398(6) 1.2813(3) -0.0804(3)
H50 H -0.5700 1.3170 -0.0975
H51 H -0.5492 1.2468 -0.1053
H52 H -0.4675 1.2881 -0.0739
C58 C -0.5914(5) 1.2683(3) -0.0240(2)
C59 C -0.5514(5) 1.2922(3) 0.0262(3)
H53 H -0.4944 1.3179 0.0251
C60 C -0.5949(4) 1.2783(2) 0.0778(2)
H54 H -0.5672 1.2947 0.1112
C61 C -0.6794(4) 1.2403(2) 0.07992(19)
C62 C -0.7206(4) 1.2170(2) 0.0298(2)
H55 H -0.7780 1.1916 0.0306
C63 C -0.6759(5) 1.2316(3) -0.0211(2)
H56 H -0.7045 1.2160 -0.0546
C64 C -0.7232(4) 1.2203(2) 0.1350(2)
C65 C -1.3130(4) 1.3615(3) 0.3289(3)
H57 H -1.3115 1.3568 0.3694
H58 H -1.3760 1.3448 0.3137
H59 H -1.3089 1.4042 0.3194
C66 C -1.2228(4) 1.3280(3) 0.3037(2)
C67 C -1.1339(4) 1.3580(3) 0.2908(2)
H60 H -1.1306 1.4004 0.2948
C68 C -1.0481(4) 1.3262(2) 0.2718(2)
H61 H -0.9881 1.3475 0.2638
C69 C -1.0509(4) 1.2637(2) 0.26478(19)
C70 C -1.1415(4) 1.2343(3) 0.2759(2)
H62 H -1.1461 1.1923 0.2697
C71 C -1.2258(4) 1.2648(3) 0.2960(2)
H63 H -1.2853 1.2431 0.3045
C72 C -0.9592(4) 1.2287(2) 0.24612(19)
O10C O -0.6377(2) 1.09064(14) 0.21762(13)
O12C O -0.8403(2) 1.06006(13) 0.17952(12)
O13C O -0.7924(3) 1.04703(15) 0.29332(13)
O14C O -0.8554(3) 1.13074(17) 0.32909(15)
Eu3C Eu -0.710340(18) 1.648650(10) 0.266600(10)
loop_
_geom_bond_atom_site_label_1
_geom_bond_atom_site_label_2
_geom_bond_site_symmetry_1
_geom_bond_site_symmetry_2
Eu1 O1 1_555 1_555
Eu2 O4 1_555 1_555
Eu3 O1 1_555 1_555
O1 C8 1_555 1_555
O2 Eu1 1_555 1_555
O3 Eu1 1_555 1_555
O4 Eu1 1_555 1_555
O5 Eu1 1_555 1_555
O6 Eu1 1_555 1_555
O7 Eu1 1_555 1_555
O8 Eu2 1_555 1_555
O9 Eu2 1_555 1_555
O10 Eu2 1_555 1_555
O11 Eu2 1_555 1_555
O12 Eu2 1_555 1_555
O13 Eu2 1_555 1_555
O14 C56 1_555 1_555
O15 Eu3 1_555 1_555
O16 Eu1 1_555 1_555
O17 Eu3 1_555 1_555
O18 Eu1 1_555 1_555
C1 H1 1_555 1_555
H2 C1 1_555 1_555
H3 C1 1_555 1_555
C2 C1 1_555 1_555
C3 C2 1_555 1_555
H4 C3 1_555 1_555
C4 C3 1_555 1_555
H5 C4 1_555 1_555
C5 C4 1_555 1_555
C6 C5 1_555 1_555
H6 C6 1_555 1_555
C7 C2 1_555 1_555
H7 C7 1_555 1_555
C8 O2 1_555 1_555
C9 H8 1_555 1_555
H9 C9 1_555 1_555
H10 C9 1_555 1_555
C10 C9 1_555 1_555
C11 C10 1_555 1_555
H11 C11 1_555 1_555
C12 C11 1_555 1_555
H12 C12 1_555 1_555
C13 C12 1_555 1_555
C14 C13 1_555 1_555
H13 C14 1_555 1_555
C15 C10 1_555 1_555
H14 C15 1_555 1_555
C16 O3 1_555 1_555
C17 H15 1_555 1_555
H16 C17 1_555 1_555
H17 C17 1_555 1_555
C18 C17 1_555 1_555
C19 C18 1_555 1_555
H18 C19 1_555 1_555
C20 C19 1_555 1_555
H19 C20 1_555 1_555
C21 C20 1_555 1_555
C22 C21 1_555 1_555
H20 C22 1_555 1_555
C23 C18 1_555 1_555
H21 C23 1_555 1_555
C24 O5 1_555 1_555
C25 H22 1_555 1_555
H23 C25 1_555 1_555
H24 C25 1_555 1_555
C26 C25 1_555 1_555
C27 C26 1_555 1_555
H25 C27 1_555 1_555
C28 C27 1_555 1_555
H26 C28 1_555 1_555
C29 C28 1_555 1_555
C30 C29 1_555 1_555
H27 C30 1_555 1_555
C31 C26 1_555 1_555
H28 C31 1_555 1_555
C32 O7 1_555 1_555
C33 H29 1_555 1_555
H30 C33 1_555 1_555
H31 C33 1_555 1_555
C34 C33 1_555 1_555
C35 C34 1_555 1_555
H32 C35 1_555 1_555
C36 C35 1_555 1_555
H33 C36 1_555 1_555
C37 C36 1_555 1_555
C38 C37 1_555 1_555
H34 C38 1_555 1_555
C39 C34 1_555 1_555
H35 C39 1_555 1_555
C40 O9 1_555 1_555
C41 H36 1_555 1_555
H37 C41 1_555 1_555
H38 C41 1_555 1_555
C42 C41 1_555 1_555
C43 C42 1_555 1_555
H39 C43 1_555 1_555
C44 C43 1_555 1_555
H40 C44 1_555 1_555
C45 C44 1_555 1_555
C46 C45 1_555 1_555
H41 C46 1_555 1_555
C47 C42 1_555 1_555
H42 C47 1_555 1_555
C48 O11 1_555 1_555
C49 H43 1_555 1_555
H44 C49 1_555 1_555
H45 C49 1_555 1_555
C50 C49 1_555 1_555
C51 C50 1_555 1_555
H46 C51 1_555 1_555
C52 C51 1_555 1_555
H47 C52 1_555 1_555
C53 C52 1_555 1_555
C54 C53 1_555 1_555
H48 C54 1_555 1_555
C55 C50 1_555 1_555
H49 C55 1_555 1_555
C56 O13 1_555 1_555
C57 H50 1_555 1_555
H51 C57 1_555 1_555
H52 C57 1_555 1_555
C58 C57 1_555 1_555
C59 C58 1_555 1_555
H53 C59 1_555 1_555
C60 C59 1_555 1_555
H54 C60 1_555 1_555
C61 C60 1_555 1_555
C62 C61 1_555 1_555
H55 C62 1_555 1_555
C63 C58 1_555 1_555
H56 C63 1_555 1_555
C64 O15 1_555 1_555
C65 H57 1_555 1_555
H58 C65 1_555 1_555
H59 C65 1_555 1_555
C66 C65 1_555 1_555
C67 C66 1_555 1_555
H60 C67 1_555 1_555
C68 C67 1_555 1_555
H61 C68 1_555 1_555
C69 C68 1_555 1_555
C70 C69 1_555 1_555
H62 C70 1_555 1_555
C71 C66 1_555 1_555
H63 C71 1_555 1_555
C72 O17 1_555 1_555
O10C Eu3 1_555 1_555
O12C Eu3 1_555 1_555
O13C Eu3 1_555 1_555
O14C Eu3 1_555 1_555
Eu3C O10 1_555 1_555
Eu2 O6 1_555 1_555
Eu2 O7 1_555 1_555
Eu3 O16 1_555 1_555
Eu3 O18 1_555 1_555
O4 C16 1_555 1_555
O6 C24 1_555 1_555
O8 C32 1_555 1_555
O10 C40 1_555 1_555
O12 C48 1_555 1_555
O12 Eu3C 1_555 1_555
O13 Eu3C 1_555 1_555
O14 Eu3C 1_555 1_555
O16 C64 1_555 1_555
O18 C72 1_555 1_555
C5 C8 1_555 1_555
C6 C7 1_555 1_555
C13 C16 1_555 1_555
C14 C15 1_555 1_555
C21 C24 1_555 1_555
C22 C23 1_555 1_555
C29 C32 1_555 1_555
C30 C31 1_555 1_555
C37 C40 1_555 1_555
C38 C39 1_555 1_555
C45 C48 1_555 1_555
C46 C47 1_555 1_555
C53 C56 1_555 1_555
C54 C55 1_555 1_555
C61 C64 1_555 1_555
C62 C63 1_555 1_555
C69 C72 1_555 1_555
C70 C71 1_555 1_555

#END
