
#######################################################################
#
#                 Cambridge Crystallographic Data Centre
#                                CCDC 
#
#######################################################################
#
# If this CIF has been generated from an entry in the Cambridge 
# Structural Database, then it will include bibliographic, chemical, 
# crystal, experimental, refinement or atomic coordinate data resulting 
# from the CCDC's data processing and validation procedures.
#
#######################################################################

data_QOGGUP
_symmetry_cell_setting           monoclinic
_symmetry_space_group_name_H-M   'P 21'
_symmetry_Int_Tables_number      4
_space_group_name_Hall           'P 2yb'
loop_
_symmetry_equiv_pos_site_id
_symmetry_equiv_pos_as_xyz
1 x,y,z
2 -x,1/2+y,-z
_cell_length_a                   7.9727(17)
_cell_length_b                   22.654(5)
_cell_length_c                   8.7259(19)
_cell_angle_alpha                90
_cell_angle_beta                 105.636(2)
_cell_angle_gamma                90
_cell_volume                     1517.69
loop_
_atom_site_label
_atom_site_type_symbol
_atom_site_fract_x
_atom_site_fract_y
_atom_site_fract_z
Cu1 Cu -0.16970(11) 0.24937(4) 0.72522(9)
C1 C -0.3203(9) 0.0881(3) 0.5303(8)
C2 C -0.2410(9) 0.0332(3) 0.5685(8)
H1 H -0.1495 0.0276 0.6629
C3 C -0.3017(10) -0.0136(3) 0.4617(8)
I1 I -0.01957(6) 0.59722(2) 0.70929(5)
C4 C -0.4389(11) -0.0070(4) 0.3253(9)
H2 H -0.4802 -0.0395 0.2567
C5 C -0.5139(10) 0.0486(4) 0.2921(9)
H3 H -0.6054 0.0545 0.1979
C6 C -0.4567(9) 0.0954(4) 0.3945(8)
H4 H -0.5114 0.1328 0.3716
C7 C -0.2486(9) 0.1407(3) 0.6332(8)
O1 O -0.3217(6) 0.1902(2) 0.5890(6)
O2 O -0.1241(7) 0.1350(2) 0.7545(6)
C8 C 0.0122(9) 0.4129(3) 0.8596(8)
C9 C -0.0372(9) 0.4656(3) 0.7720(8)
H5 H -0.1264 0.4657 0.6746
C10 C 0.0493(9) 0.5175(3) 0.8331(8)
I2 I -0.18776(7) -0.09698(2) 0.51867(6)
C11 C 0.1829(10) 0.5178(3) 0.9737(9)
H6 H 0.2416 0.5534 1.0132
C12 C 0.2289(10) 0.4653(4) 1.0549(9)
H7 H 0.3207 0.4651 1.1505
C13 C 0.1437(9) 0.4131(3) 0.9996(7)
H8 H 0.1758 0.3775 1.0577
C14 C -0.0808(9) 0.3565(3) 0.7922(8)
O3 O -0.2145(7) 0.3574(2) 0.6787(6)
O4 O -0.0133(7) 0.3085(2) 0.8584(6)
C15 C 0.0361(11) 0.2723(4) 0.3290(9)
H9 H -0.0064 0.2883 0.2250
C16 C -0.0705(10) 0.2701(4) 0.4316(8)
H10 H -0.1847 0.2860 0.3971
N1 N -0.0188(8) 0.2467(3) 0.5747(6)
C17 C 0.1419(9) 0.2229(4) 0.6228(8)
H11 H 0.1780 0.2050 0.7248
C18 C 0.2560(11) 0.2238(4) 0.5279(10)
H12 H 0.3672 0.2057 0.5642
C19 C 0.2088(11) 0.2506(4) 0.3814(9)
C20 C 0.3418(11) 0.2590(4) 0.2857(10)
H13 H 0.3548 0.3017 0.2673
H14 H 0.4562 0.2438 0.3482
C21 C 0.2880(10) 0.2271(4) 0.1259(10)
H15 H 0.2727 0.1845 0.1436
H16 H 0.1752 0.2430 0.0616
C22 C 0.4231(11) 0.2352(4) 0.0378(8)
C23 C 0.4173(11) 0.2820(4) -0.0669(9)
H17 H 0.3271 0.3105 -0.0823
C24 C 0.5442(10) 0.2868(3) -0.1487(9)
H18 H 0.5364 0.3186 -0.2211
N2 N 0.6771(7) 0.2487(3) -0.1306(7)
C25 C 0.6879(11) 0.2061(4) -0.0235(9)
H19 H 0.7838 0.1797 -0.0060
C26 C 0.5689(12) 0.1976(4) 0.0640(11)
H20 H 0.5853 0.1669 0.1408
Cu1_2 Cu 0.83030(11) 0.24937(4) -0.27478(9)
N2_2 N -0.3229(7) 0.2487(3) 0.8694(7)
C27 C 0.2916(10) 1.0142(4) 0.7805(9)
C28 C 0.3417(10) 0.9863(4) 0.6577(9)
H21 H 0.3633 1.0095 0.5743
C29 C 0.3609(9) 0.9258(4) 0.6542(9)
H22 H 0.3908 0.9073 0.5674
C30 C 0.3356(10) 0.8921(4) 0.7808(10)
H23 H 0.3544 0.8507 0.7837
C31 C 0.2834(12) 0.9195(4) 0.9007(10)
H24 H 0.2610 0.8966 0.9842
C32 C 0.2631(11) 0.9801(4) 0.9009(8)
H25 H 0.2290 0.9984 0.9858
C33 C 0.2820(11) 1.0806(4) 0.7822(10)
H26 H 0.3999 1.0967 0.7922
H27 H 0.2057 1.0941 0.6789
O5 O 0.2178(7) 1.1045(3) 0.9073(7)
H28 H 0.1085 1.1054 0.8780
loop_
_geom_bond_atom_site_label_1
_geom_bond_atom_site_label_2
_geom_bond_site_symmetry_1
_geom_bond_site_symmetry_2
Cu1 O1 1_555 1_555
C1 C2 1_555 1_555
C2 H1 1_555 1_555
C3 C2 1_555 1_555
I1 C10 1_555 1_555
C4 C3 1_555 1_555
H2 C4 1_555 1_555
C5 C4 1_555 1_555
H3 C5 1_555 1_555
C6 C1 1_555 1_555
H4 C6 1_555 1_555
C7 C1 1_555 1_555
O1 C7 1_555 1_555
O2 Cu1 1_555 1_555
C8 C9 1_555 1_555
C9 H5 1_555 1_555
C10 C9 1_555 1_555
I2 C3 1_555 1_555
C11 C10 1_555 1_555
H6 C11 1_555 1_555
C12 C11 1_555 1_555
H7 C12 1_555 1_555
C13 C8 1_555 1_555
H8 C13 1_555 1_555
C14 C8 1_555 1_555
O3 Cu1 1_555 1_555
O4 Cu1 1_555 1_555
C15 H9 1_555 1_555
C16 C15 1_555 1_555
H10 C16 1_555 1_555
N1 Cu1 1_555 1_555
C17 N1 1_555 1_555
H11 C17 1_555 1_555
C18 C17 1_555 1_555
H12 C18 1_555 1_555
C19 C15 1_555 1_555
C20 C19 1_555 1_555
H13 C20 1_555 1_555
H14 C20 1_555 1_555
C21 C20 1_555 1_555
H15 C21 1_555 1_555
H16 C21 1_555 1_555
C22 C21 1_555 1_555
C23 C22 1_555 1_555
H17 C23 1_555 1_555
C24 C23 1_555 1_555
H18 C24 1_555 1_555
N2 C24 1_555 1_555
C25 N2 1_555 1_555
H19 C25 1_555 1_555
C26 C22 1_555 1_555
H20 C26 1_555 1_555
C27 C28 1_555 1_555
C28 H21 1_555 1_555
C29 C28 1_555 1_555
H22 C29 1_555 1_555
C30 C29 1_555 1_555
H23 C30 1_555 1_555
C31 C30 1_555 1_555
H24 C31 1_555 1_555
C32 C27 1_555 1_555
H25 C32 1_555 1_555
C33 C27 1_555 1_555
H26 C33 1_555 1_555
H27 C33 1_555 1_555
O5 C33 1_555 1_555
H28 O5 1_555 1_555
Cu1_2 N2 1_555 1_555
N2_2 Cu1 1_555 1_555
C5 C6 1_555 1_555
C7 O2 1_555 1_555
C12 C13 1_555 1_555
C14 O3 1_555 1_555
C14 O4 1_555 1_555
C16 N1 1_555 1_555
C18 C19 1_555 1_555
C25 C26 1_555 1_555
C31 C32 1_555 1_555

#END
