
#######################################################################
#
#                 Cambridge Crystallographic Data Centre
#                                CCDC 
#
#######################################################################
#
# If this CIF has been generated from an entry in the Cambridge 
# Structural Database, then it will include bibliographic, chemical, 
# crystal, experimental, refinement or atomic coordinate data resulting 
# from the CCDC's data processing and validation procedures.
#
#######################################################################

data_QOGJIF
_symmetry_cell_setting           orthorhombic
_symmetry_space_group_name_H-M   'P c a 21'
_symmetry_Int_Tables_number      29
_space_group_name_Hall           'P 2c -2ac'
loop_
_symmetry_equiv_pos_site_id
_symmetry_equiv_pos_as_xyz
1 x,y,z
2 -x,-y,1/2+z
3 1/2-x,y,1/2+z
4 1/2+x,-y,z
_cell_length_a                   8.3887(6)
_cell_length_b                   6.0883(5)
_cell_length_c                   16.8795(10)
_cell_angle_alpha                90
_cell_angle_beta                 90
_cell_angle_gamma                90
_cell_volume                     862.085
loop_
_atom_site_label
_atom_site_type_symbol
_atom_site_fract_x
_atom_site_fract_y
_atom_site_fract_z
Zn1 Zn 0.14004(4) 0.58906(6) 0.31489(4)
O1 O 0.2852(4) 0.4565(5) -0.08640(17)
O2 O 0.0858(3) 0.3469(5) -0.16047(16)
O3 O 0.1372(4) 0.5055(6) 0.20320(19)
O4 O 0.0517(3) 0.2009(5) 0.25925(17)
O5 O 0.2496(3) 0.8773(4) 0.3088(3)
C1 C 0.1557(4) 0.3561(6) -0.0942(2)
C2 C 0.0907(4) 0.2410(6) -0.02366(19)
C3 C 0.1135(4) 0.3303(6) 0.0511(2)
H1 H 0.1620 0.4667 0.0567
C4 C 0.0632(4) 0.2146(6) 0.1179(2)
C5 C -0.0028(5) 0.0056(7) 0.1101(2)
H2 H -0.0321 -0.0740 0.1548
C6 C -0.0245(6) -0.0835(6) 0.0347(3)
H3 H -0.0689 -0.2225 0.0290
C7 C 0.0201(5) 0.0356(7) -0.0319(2)
H4 H 0.0028 -0.0222 -0.0821
C8 C 0.0844(4) 0.3115(6) 0.1986(2)
H5 H 0.192(8) 0.986(9) 0.290(3)
H6 H 0.339(10) 0.893(11) 0.276(6)
Zn1A Zn -0.14004(4) 0.41094(6) -0.18511(4)
Zn1B Zn 0.35996(4) 0.58906(6) -0.18511(4)
O1B O 0.2148(4) 0.4565(5) 0.41360(17)
O2A O -0.0858(3) 0.6531(5) 0.33953(16)
loop_
_geom_bond_atom_site_label_1
_geom_bond_atom_site_label_2
_geom_bond_site_symmetry_1
_geom_bond_site_symmetry_2
Zn1 O3 1_555 1_555
O1 C1 1_555 1_555
O2 C1 1_555 1_555
O3 C8 1_555 1_555
O4 C8 1_555 1_555
O5 Zn1 1_555 1_555
C1 C2 1_555 1_555
C2 C3 1_555 1_555
C3 H1 1_555 1_555
C4 C3 1_555 1_555
C5 C4 1_555 1_555
H2 C5 1_555 1_555
C6 C5 1_555 1_555
H3 C6 1_555 1_555
C7 C2 1_555 1_555
H4 C7 1_555 1_555
C8 C4 1_555 1_555
H5 O5 1_555 1_555
H6 O5 1_555 1_555
Zn1A O2 1_555 1_555
Zn1B O1 1_555 1_555
O1B Zn1 1_555 1_555
O2A Zn1 1_555 1_555
C6 C7 1_555 1_555

#END
