
#######################################################################
#
#                 Cambridge Crystallographic Data Centre
#                                CCDC 
#
#######################################################################
#
# If this CIF has been generated from an entry in the Cambridge 
# Structural Database, then it will include bibliographic, chemical, 
# crystal, experimental, refinement or atomic coordinate data resulting 
# from the CCDC's data processing and validation procedures.
#
#######################################################################

data_QOGKAZ
_symmetry_cell_setting           triclinic
_symmetry_space_group_name_H-M   'P -1'
_symmetry_Int_Tables_number      2
_space_group_name_Hall           '-P 1'
loop_
_symmetry_equiv_pos_site_id
_symmetry_equiv_pos_as_xyz
1 x,y,z
2 -x,-y,-z
_cell_length_a                   7.7952(8)
_cell_length_b                   10.9620(11)
_cell_length_c                   12.8778(13)
_cell_angle_alpha                65.940(2)
_cell_angle_beta                 89.318(2)
_cell_angle_gamma                88.762(2)
_cell_volume                     1004.57
loop_
_atom_site_label
_atom_site_type_symbol
_atom_site_fract_x
_atom_site_fract_y
_atom_site_fract_z
Co1 Co 0.75359(14) 0.61535(12) 0.26574(10)
Co2 Co 0.75174(14) 1.08130(12) 0.33422(10)
V1 V 0.47248(18) 0.81422(16) 0.35292(13)
V2 V 1.03630(18) 0.80088(16) 0.35351(13)
V3 V 1.02450(18) 0.32625(16) 0.36057(13)
V4 V 0.47468(18) 0.34121(16) 0.36335(13)
O1 O 0.7567(8) 0.5360(7) 0.4447(6)
O2 O 0.5860(8) 0.7682(7) 0.2665(5)
O3 O 0.9533(8) 0.7302(7) 0.2752(5)
O4 O 0.9224(8) 0.4599(7) 0.2694(5)
O5 O 0.5536(8) 0.4880(7) 0.2794(5)
O6 O 0.7535(8) 0.9977(7) 0.5179(6)
O7 O 0.5454(9) 0.9563(7) 0.3503(6)
O8 O 0.9270(8) 0.9376(7) 0.3365(6)
O9 O 0.9620(8) 0.1903(7) 0.3469(6)
O10 O 0.5732(9) 0.2209(7) 0.3399(6)
O11 O 0.2550(8) 0.8399(7) 0.3085(6)
O12 O 1.0340(9) 0.6861(7) 0.4996(6)
O13 O 1.2501(8) 0.3415(7) 0.3380(7)
O14 O 0.4853(9) 0.6813(7) 0.4916(6)
N1 N 0.7512(9) 0.6993(8) 0.0882(6)
N2 N 0.7492(9) 1.1708(8) 0.1531(7)
C1 C 0.6764(12) 0.6384(10) 0.0300(8)
H1 H 0.6274 0.5557 0.0704
C2 C 0.6681(14) 0.6922(12) -0.0870(9)
H2 H 0.6146 0.6475 -0.1251
C3 C 0.7422(15) 0.8150(12) -0.1458(8)
H3 H 0.7388 0.8541 -0.2249
C4 C 0.8201(14) 0.8792(12) -0.0887(9)
H4 H 0.8708 0.9616 -0.1276
C5 C 0.8215(12) 0.8183(10) 0.0286(8)
H5 H 0.8737 0.8619 0.0681
C6 C 0.6950(13) 1.1047(11) 0.0928(9)
H6 H 0.6605 1.0169 0.1317
C7 C 0.6878(14) 1.1609(12) -0.0248(9)
H7 H 0.6432 1.1136 -0.0637
C8 C 0.7489(14) 1.2903(12) -0.0840(9)
H8 H 0.7470 1.3302 -0.1631
C9 C 0.8111(12) 1.3564(11) -0.0238(9)
H9 H 0.8560 1.4412 -0.0615
C10 C 0.8073(12) 1.2967(10) 0.0944(8)
H10 H 0.8458 1.3445 0.1347
Co2_2 Co 0.75174(14) 0.08130(12) 0.33422(10)
V2_2 V 0.03630(18) 0.80088(16) 0.35351(13)
V3A V 0.97550(18) 0.67375(16) 0.63943(13)
V4_2 V 1.47468(18) 0.34121(16) 0.36335(13)
V4A V 0.52532(18) 0.65879(16) 0.63665(13)
O9_2 O 0.9620(8) 1.1903(7) 0.3469(6)
O10_2 O 0.5732(9) 1.2209(7) 0.3399(6)
O11_2 O 1.2550(8) 0.8399(7) 0.3085(6)
O12A O 0.9660(9) 0.3139(7) 0.5004(6)
O13_2 O 0.2501(8) 0.3415(7) 0.3380(7)
O14A O 0.5147(9) 0.3187(7) 0.5084(6)
loop_
_geom_bond_atom_site_label_1
_geom_bond_atom_site_label_2
_geom_bond_site_symmetry_1
_geom_bond_site_symmetry_2
Co1 O1 1_555 1_555
Co2 O6 1_555 1_555
V1 O2 1_555 1_555
V2 O3 1_555 1_555
V3 O4 1_555 1_555
V4 O5 1_555 1_555
O2 Co1 1_555 1_555
O3 Co1 1_555 1_555
O4 Co1 1_555 1_555
O5 Co1 1_555 1_555
O7 Co2 1_555 1_555
O8 Co2 1_555 1_555
O9 V3 1_555 1_555
O10 V4 1_555 1_555
O11 V1 1_555 1_555
O12 V2 1_555 1_555
O13 V3 1_555 1_555
O14 V1 1_555 1_555
N1 Co1 1_555 1_555
N2 Co2 1_555 1_555
C1 N1 1_555 1_555
H1 C1 1_555 1_555
C2 C1 1_555 1_555
H2 C2 1_555 1_555
C3 C2 1_555 1_555
H3 C3 1_555 1_555
C4 C3 1_555 1_555
H4 C4 1_555 1_555
C5 N1 1_555 1_555
H5 C5 1_555 1_555
C6 N2 1_555 1_555
H6 C6 1_555 1_555
C7 C6 1_555 1_555
H7 C7 1_555 1_555
C8 C7 1_555 1_555
H8 C8 1_555 1_555
C9 C8 1_555 1_555
H9 C9 1_555 1_555
C10 N2 1_555 1_555
H10 C10 1_555 1_555
Co2_2 O9 1_555 1_555
V2_2 O11 1_555 1_555
V3A O12 1_555 1_555
V4_2 O13 1_555 1_555
V4A O14 1_555 1_555
O9_2 Co2 1_555 1_555
O10_2 Co2 1_555 1_555
O11_2 V2 1_555 1_555
O12A V3 1_555 1_555
O13_2 V4 1_555 1_555
O14A V4 1_555 1_555
V1 O7 1_555 1_555
V2 O8 1_555 1_555
O10 Co2_2 1_555 1_555
C4 C5 1_555 1_555
C9 C10 1_555 1_555

#END
