
#######################################################################
#
#                 Cambridge Crystallographic Data Centre
#                                CCDC 
#
#######################################################################
#
# If this CIF has been generated from an entry in the Cambridge 
# Structural Database, then it will include bibliographic, chemical, 
# crystal, experimental, refinement or atomic coordinate data resulting 
# from the CCDC's data processing and validation procedures.
#
#######################################################################

data_QOGLEE
_symmetry_cell_setting           monoclinic
_symmetry_space_group_name_H-M   'P 21/c'
_symmetry_Int_Tables_number      14
_space_group_name_Hall           '-P 2ybc'
loop_
_symmetry_equiv_pos_site_id
_symmetry_equiv_pos_as_xyz
1 x,y,z
2 -x,1/2+y,1/2-z
3 -x,-y,-z
4 x,1/2-y,1/2+z
_cell_length_a                   6.9563(14)
_cell_length_b                   15.517(3)
_cell_length_c                   12.5004(18)
_cell_angle_alpha                90
_cell_angle_beta                 115.034(8)
_cell_angle_gamma                90
_cell_volume                     1222.55
loop_
_atom_site_label
_atom_site_type_symbol
_atom_site_fract_x
_atom_site_fract_y
_atom_site_fract_z
Eu1 Eu 0.56691(5) 0.90328(2) 0.40509(3)
S1 S 1.0185(2) 1.13850(10) 0.72104(14)
O1 O 0.8965(7) 0.8909(3) 0.5910(4)
O2 O 0.6801(7) 0.9885(3) 0.6030(4)
O3 O 1.0683(8) 1.1121(3) 0.6239(4)
O4 O 1.1505(7) 1.2096(3) 0.7880(4)
O5 O 0.7948(7) 1.1586(3) 0.6819(4)
O6 O 1.4655(8) 1.0799(3) 1.1787(4)
O7 O 1.4469(7) 0.9389(3) 1.2081(4)
O8 O 0.7151(7) 1.0407(3) 0.4032(4)
H1 H 0.6668 1.0689 0.3388
H2 H 0.8263 1.0651 0.4530
O9 O 0.5171(7) 0.8022(3) 0.5394(4)
H3 H 0.4024 0.7864 0.5423
H4 H 0.6212 0.7755 0.5917
O10 O 0.6148(8) 0.7589(3) 0.3439(5)
H5 H 0.5667 0.7095 0.3491
H6 H 0.7146 0.7536 0.3222
C1 C 0.8542(10) 0.9487(4) 0.6486(5)
C2 C 1.0075(10) 0.9674(4) 0.7742(5)
C3 C 1.0778(10) 1.0491(4) 0.8183(6)
C4 C 1.2067(10) 1.0619(4) 0.9359(6)
H9 H 1.2519 1.1172 0.9642
C5 C 1.2692(10) 0.9920(4) 1.0129(6)
C6 C 1.2041(11) 0.9109(4) 0.9703(6)
H10 H 1.2469 0.8640 1.0214
C7 C 1.0751(11) 0.8983(4) 0.8516(6)
H11 H 1.0334 0.8427 0.8235
C8 C 1.4049(10) 1.0060(5) 1.1429(6)
Eu1B Eu 0.43309(5) 1.09672(2) 0.59491(3)
Eu1B_2 Eu 1.43309(5) 1.09672(2) 0.59491(3)
Eu1_2 Eu 1.56691(5) 0.90328(2) 1.40509(3)
O2B O 0.3199(7) 1.0115(3) 0.3970(4)
O3B O 0.9317(8) 0.8879(3) 0.3761(4)
O5B O 0.2052(7) 0.8414(3) 0.3181(4)
O7_2 O 0.4469(7) 0.9389(3) 0.2081(4)
O11 O 0.2029(9) 0.7653(4) 0.6121(5)
H7 H 0.2995 0.7783 0.6826
H8 H 0.0817 0.7807 0.6063
loop_
_geom_bond_atom_site_label_1
_geom_bond_atom_site_label_2
_geom_bond_site_symmetry_1
_geom_bond_site_symmetry_2
Eu1 O1 1_555 1_555
S1 O3 1_555 1_555
O1 C1 1_555 1_555
O2 Eu1 1_555 1_555
O3 Eu1B_2 1_555 1_555
O4 S1 1_555 1_555
O5 S1 1_555 1_555
O6 C8 1_555 1_555
O7 C8 1_555 1_555
O8 Eu1 1_555 1_555
H1 O8 1_555 1_555
H2 O8 1_555 1_555
O9 Eu1 1_555 1_555
H3 O9 1_555 1_555
H4 O9 1_555 1_555
O10 Eu1 1_555 1_555
H5 O10 1_555 1_555
H6 O10 1_555 1_555
O11 H7 1_555 1_555
H8 O11 1_555 1_555
C1 O2 1_555 1_555
C2 C1 1_555 1_555
C3 S1 1_555 1_555
C4 C3 1_555 1_555
H9 C4 1_555 1_555
C5 C4 1_555 1_555
C6 C5 1_555 1_555
H10 C6 1_555 1_555
C7 C2 1_555 1_555
H11 C7 1_555 1_555
C8 C5 1_555 1_555
Eu1B O2 1_555 1_555
Eu1_2 O7 1_555 1_555
O2B Eu1 1_555 1_555
O3B Eu1 1_555 1_555
O5B Eu1 1_555 1_555
O7_2 Eu1 1_555 1_555
O5 Eu1B 1_555 1_555
C2 C3 1_555 1_555
C6 C7 1_555 1_555
Eu1B O2B 1_555 1_555

#END
