
#######################################################################
#
#                 Cambridge Crystallographic Data Centre
#                                CCDC 
#
#######################################################################
#
# If this CIF has been generated from an entry in the Cambridge 
# Structural Database, then it will include bibliographic, chemical, 
# crystal, experimental, refinement or atomic coordinate data resulting 
# from the CCDC's data processing and validation procedures.
#
#######################################################################

data_QOGPUY01
_symmetry_cell_setting           monoclinic
_symmetry_space_group_name_H-M   'P 21/c'
_symmetry_Int_Tables_number      14
_space_group_name_Hall           '-P 2ybc'
loop_
_symmetry_equiv_pos_site_id
_symmetry_equiv_pos_as_xyz
1 x,y,z
2 -x,1/2+y,1/2-z
3 -x,-y,-z
4 x,1/2-y,1/2+z
_cell_length_a                   12.327(2)
_cell_length_b                   15.540(3)
_cell_length_c                   11.252(2)
_cell_angle_alpha                90
_cell_angle_beta                 96.093(3)
_cell_angle_gamma                90
_cell_volume                     2143.27
loop_
_atom_site_label
_atom_site_type_symbol
_atom_site_fract_x
_atom_site_fract_y
_atom_site_fract_z
O1 O -0.00776(14) 0.39410(12) 0.14117(15)
C1 C 0.0377(3) 0.3513(2) 0.2278(3)
C2 C 0.1389(2) 0.3015(2) 0.2118(3)
C3 C 0.1740(3) 0.2383(2) 0.2932(2)
C4 C 0.1988(3) 0.31894(19) 0.1186(3)
Cu1 Cu 0.87727(3) 0.04497(2) 0.72403(3)
N1 N 0.97525(17) -0.05365(15) 0.7619(2)
N2 N 0.7964(2) 0.02423(16) 0.8651(2)
N3 N 0.9185(2) -0.08195(17) 0.9508(2)
C5 C 0.5869(2) 0.0304(2) 0.3847(3)
H1 H 0.6029 -0.0278 0.3950
C6 C 0.6384(2) 0.0890(2) 0.4628(3)
C7 C 0.8279(3) -0.0309(2) 0.9529(3)
C8 C 0.9862(3) -0.0979(2) 0.8638(3)
C9 C 0.7237(2) 0.0621(2) 0.5595(3)
C10 C 0.5114(2) 0.0560(3) 0.2907(3)
H2 H 0.4763 0.0153 0.2394
C11 C 1.0645(3) -0.1622(2) 0.8868(3)
H3 H 1.0724 -0.1901 0.9604
C12 C 0.4892(3) 0.1418(3) 0.2744(3)
C13 C 0.7712(3) -0.0379(2) 1.0537(3)
H4 H 0.7942 -0.0768 1.1139
C14 C 0.6092(3) 0.1735(2) 0.4470(3)
H5 H 0.6402 0.2144 0.5005
C15 C 0.6513(3) 0.0704(2) 0.9753(3)
H6 H 0.5923 0.1068 0.9812
C16 C 0.7090(3) 0.07346(19) 0.8787(3)
H7 H 0.6864 0.1122 0.8182
C17 C 1.0389(3) -0.0779(2) 0.6773(3)
H8 H 1.0303 -0.0493 0.6043
C18 C 1.1290(3) -0.1838(2) 0.8009(3)
H9 H 1.1820 -0.2263 0.8148
C19 C 1.1145(3) -0.1413(2) 0.6922(3)
H10 H 1.1557 -0.1560 0.6307
C20 C 0.6828(3) 0.0119(3) 1.0634(3)
H11 H 0.6437 0.0066 1.1293
O2 O 0.00156(14) 0.34961(12) 0.32778(17)
O3 O 0.76034(15) 0.11489(13) 0.63605(17)
O4 O 0.75888(17) -0.01250(13) 0.55832(16)
C21 C 0.5340(3) 0.1999(2) 0.3524(3)
H12 H 0.5152 0.2577 0.3437
H13 H 0.1332 0.2263 0.3563
H14 H 0.1756 0.3606 0.0624
O5 O 0.42181(18) 0.16589(15) 0.17243(17)
C22 C 0.2681(3) 0.19206(19) 0.2817(3)
H15 H 0.2903 0.1487 0.3358
C23 C 0.2952(3) 0.2730(2) 0.1082(3)
H16 H 0.3366 0.2850 0.0457
C24 C 0.3283(3) 0.2111(2) 0.1891(3)
H17 H 0.9410(19) -0.1066(15) 1.016(2)
O1C O 0.99224(14) 0.10590(12) 0.64117(15)
Cu1C Cu -0.12273(3) 0.45503(2) 0.22403(3)
O2C O 1.00156(14) 0.15039(12) 0.82778(17)
loop_
_geom_bond_atom_site_label_1
_geom_bond_atom_site_label_2
_geom_bond_site_symmetry_1
_geom_bond_site_symmetry_2
O1 C1 1_555 1_555
C1 C2 1_555 1_555
C2 C3 1_555 1_555
C3 H13 1_555 1_555
C4 C2 1_555 1_555
Cu1 N1 1_555 1_555
N1 C8 1_555 1_555
N2 Cu1 1_555 1_555
N3 C7 1_555 1_555
C5 H1 1_555 1_555
C6 C5 1_555 1_555
C7 N2 1_555 1_555
C8 N3 1_555 1_555
C9 C6 1_555 1_555
C10 C5 1_555 1_555
H2 C10 1_555 1_555
C11 C8 1_555 1_555
H3 C11 1_555 1_555
C12 C10 1_555 1_555
C13 C7 1_555 1_555
H4 C13 1_555 1_555
C14 C6 1_555 1_555
H5 C14 1_555 1_555
C15 H6 1_555 1_555
C16 N2 1_555 1_555
H7 C16 1_555 1_555
C17 N1 1_555 1_555
H8 C17 1_555 1_555
C18 C11 1_555 1_555
H9 C18 1_555 1_555
C19 C17 1_555 1_555
H10 C19 1_555 1_555
C20 C13 1_555 1_555
H11 C20 1_555 1_555
O2 C1 1_555 1_555
O3 Cu1 1_555 1_555
O4 Cu1 1_555 1_555
C21 C12 1_555 1_555
H12 C21 1_555 1_555
H14 C4 1_555 1_555
O5 C12 1_555 1_555
C22 C3 1_555 1_555
H15 C22 1_555 1_555
C23 C4 1_555 1_555
H16 C23 1_555 1_555
C24 O5 1_555 1_555
H17 N3 1_555 1_555
O1C Cu1 1_555 1_555
Cu1C O1 1_555 1_555
O2C Cu1 1_555 1_555
C9 O3 1_555 1_555
C9 O4 1_555 1_555
C14 C21 1_555 1_555
C15 C16 1_555 1_555
C15 C20 1_555 1_555
C18 C19 1_555 1_555
O2 Cu1C 1_555 1_555
C22 C24 1_555 1_555
C23 C24 1_555 1_555

#END
