
#######################################################################
#
#                 Cambridge Crystallographic Data Centre
#                                CCDC 
#
#######################################################################
#
# If this CIF has been generated from an entry in the Cambridge 
# Structural Database, then it will include bibliographic, chemical, 
# crystal, experimental, refinement or atomic coordinate data resulting 
# from the CCDC's data processing and validation procedures.
#
#######################################################################

data_QOGPUY
_symmetry_cell_setting           monoclinic
_symmetry_space_group_name_H-M   'P 21/c'
_symmetry_Int_Tables_number      14
_space_group_name_Hall           '-P 2ybc'
loop_
_symmetry_equiv_pos_site_id
_symmetry_equiv_pos_as_xyz
1 x,y,z
2 -x,1/2+y,1/2-z
3 -x,-y,-z
4 x,1/2-y,1/2+z
_cell_length_a                   12.391(2)
_cell_length_b                   15.590(3)
_cell_length_c                   11.297(2)
_cell_angle_alpha                90
_cell_angle_beta                 96.219(3)
_cell_angle_gamma                90
_cell_volume                     2169.46
loop_
_atom_site_label
_atom_site_type_symbol
_atom_site_fract_x
_atom_site_fract_y
_atom_site_fract_z
Cu1 Cu 0.37733(7) 0.04531(6) 0.72434(9)
N1 N 0.4762(4) -0.0536(4) 0.7631(6)
N2 N 0.2957(5) 0.0247(4) 0.8619(6)
N3 N 0.4180(5) -0.0824(4) 0.9494(5)
H1 H 0.4356 -0.1108 1.0139
O1 O 0.2580(4) -0.0138(3) 0.5590(5)
O2 O 0.2594(4) 0.1162(3) 0.6347(5)
O3 O -0.4986(4) 0.3499(3) 0.3278(5)
O4 O -0.5084(4) 0.3949(3) 0.1408(4)
O5 O -0.0786(5) 0.1667(4) 0.1714(5)
C1 C 0.2236(7) 0.0608(6) 0.5552(7)
C2 C 0.1378(7) 0.0918(6) 0.4618(7)
C3 C 0.1095(7) 0.1728(6) 0.4489(8)
H2 H 0.1404 0.2129 0.5034
C4 C 0.0342(8) 0.2005(6) 0.3554(10)
H3 H 0.0149 0.2581 0.3482
C5 C -0.0106(7) 0.1417(7) 0.2751(9)
C6 C 0.0126(6) 0.0571(7) 0.2906(7)
H4 H -0.0213 0.0162 0.2395
C7 C 0.0900(7) 0.0324(6) 0.3868(8)
H5 H 0.1078 -0.0252 0.3981
C8 C -0.4637(7) 0.3502(5) 0.2268(9)
C9 C -0.3622(6) 0.3005(5) 0.2118(7)
C10 C -0.3282(6) 0.2388(5) 0.2907(7)
H6 H -0.3682 0.2272 0.3539
C11 C -0.2356(7) 0.1929(5) 0.2793(8)
H7 H -0.2148 0.1488 0.3323
C12 C -0.1740(7) 0.2122(6) 0.1897(9)
C13 C -0.2053(7) 0.2739(6) 0.1078(7)
H8 H -0.1645 0.2865 0.0456
C14 C -0.2999(7) 0.3166(5) 0.1218(7)
H9 H -0.3229 0.3589 0.0668
C15 C 0.4872(6) -0.0974(5) 0.8624(7)
C16 C 0.5649(6) -0.1617(5) 0.8836(7)
H10 H 0.5731 -0.1898 0.9566
C17 C 0.6289(7) -0.1835(5) 0.7976(9)
H11 H 0.6790 -0.2278 0.8108
C18 C 0.6194(7) -0.1407(6) 0.6936(10)
H12 H 0.6651 -0.1524 0.6355
C19 C 0.5404(8) -0.0793(5) 0.6759(8)
H13 H 0.5290 -0.0533 0.6015
C20 C 0.3264(6) -0.0311(6) 0.9546(8)
C21 C 0.2706(7) -0.0402(6) 1.0548(7)
H14 H 0.2927 -0.0800 1.1137
C22 C 0.1831(8) 0.0108(7) 1.0636(9)
H15 H 0.1441 0.0054 1.1291
C23 C 0.1507(7) 0.0713(5) 0.9756(9)
H16 H 0.0924 0.1078 0.9825
C24 C 0.2078(6) 0.0748(5) 0.8791(8)
H17 H 0.1853 0.1145 0.8200
Cu1C Cu -0.62267(7) 0.45469(6) 0.22434(9)
O3C O 0.5014(4) 0.1501(3) 0.8278(5)
O4C O 0.4916(4) 0.1051(3) 0.6408(4)
loop_
_geom_bond_atom_site_label_1
_geom_bond_atom_site_label_2
_geom_bond_site_symmetry_1
_geom_bond_site_symmetry_2
Cu1 N1 1_555 1_555
N1 C15 1_555 1_555
N2 Cu1 1_555 1_555
N3 H1 1_555 1_555
O1 Cu1 1_555 1_555
O2 Cu1 1_555 1_555
O3 C8 1_555 1_555
O4 C8 1_555 1_555
O5 C5 1_555 1_555
C1 O1 1_555 1_555
C2 C1 1_555 1_555
C3 C2 1_555 1_555
H2 C3 1_555 1_555
C4 C3 1_555 1_555
H3 C4 1_555 1_555
C5 C4 1_555 1_555
C6 C5 1_555 1_555
H4 C6 1_555 1_555
C7 C2 1_555 1_555
H5 C7 1_555 1_555
C8 C9 1_555 1_555
C9 C10 1_555 1_555
C10 H6 1_555 1_555
C11 C10 1_555 1_555
H7 C11 1_555 1_555
C12 O5 1_555 1_555
C13 C12 1_555 1_555
H8 C13 1_555 1_555
C14 C9 1_555 1_555
H9 C14 1_555 1_555
C15 N3 1_555 1_555
C16 C15 1_555 1_555
H10 C16 1_555 1_555
C17 C16 1_555 1_555
H11 C17 1_555 1_555
C18 C17 1_555 1_555
H12 C18 1_555 1_555
C19 N1 1_555 1_555
H13 C19 1_555 1_555
C20 N2 1_555 1_555
C21 C20 1_555 1_555
H14 C21 1_555 1_555
C22 C21 1_555 1_555
H15 C22 1_555 1_555
C23 C22 1_555 1_555
H16 C23 1_555 1_555
C24 N2 1_555 1_555
H17 C24 1_555 1_555
Cu1C O3 1_555 1_555
O3C Cu1 1_555 1_555
O4C Cu1 1_555 1_555
N3 C20 1_555 1_555
O2 C1 1_555 1_555
O4 Cu1C 1_555 1_555
C6 C7 1_555 1_555
C11 C12 1_555 1_555
C13 C14 1_555 1_555
C18 C19 1_555 1_555
C23 C24 1_555 1_555

#END
