
#######################################################################
#
#                 Cambridge Crystallographic Data Centre
#                                CCDC 
#
#######################################################################
#
# If this CIF has been generated from an entry in the Cambridge 
# Structural Database, then it will include bibliographic, chemical, 
# crystal, experimental, refinement or atomic coordinate data resulting 
# from the CCDC's data processing and validation procedures.
#
#######################################################################

data_QOGQAG
_symmetry_cell_setting           orthorhombic
_symmetry_space_group_name_H-M   'P b c a'
_symmetry_Int_Tables_number      61
_space_group_name_Hall           '-P 2ac 2ab'
loop_
_symmetry_equiv_pos_site_id
_symmetry_equiv_pos_as_xyz
1 x,y,z
2 1/2-x,-y,1/2+z
3 -x,1/2+y,1/2-z
4 1/2+x,1/2-y,-z
5 -x,-y,-z
6 1/2+x,y,1/2-z
7 x,1/2-y,1/2+z
8 1/2-x,1/2+y,z
_cell_length_a                   8.1570(16)
_cell_length_b                   15.580(3)
_cell_length_c                   20.958(4)
_cell_angle_alpha                90
_cell_angle_beta                 90
_cell_angle_gamma                90
_cell_volume                     2663.47
loop_
_atom_site_label
_atom_site_type_symbol
_atom_site_fract_x
_atom_site_fract_y
_atom_site_fract_z
Cs1 Cs 0.44566(3) 0.147084(14) 0.313797(11)
O1 O 1.0638(3) 0.14646(17) 0.33079(14)
C1 C 0.5758(4) 0.3877(2) 0.31874(17)
H1 H 0.5432 0.3657 0.2768
O2 O 0.6141(3) 0.31803(15) 0.35975(13)
O3 O 0.8532(3) 0.39560(16) 0.34131(13)
O4 O 0.8605(3) 0.24229(16) 0.32273(12)
O5 O 0.2464(3) 0.32997(16) 0.32536(14)
O6 O 0.1565(3) 0.45704(17) 0.35982(15)
H2 H 0.069(6) 0.434(3) 0.352(2)
O7 O 0.7520(3) 0.50712(17) 0.28649(14)
C2 C 0.4407(4) 0.4440(2) 0.34528(18)
H3 H 0.4656 0.4576 0.3894
H4 H 0.4382 0.4974 0.3216
C3 C 0.7341(4) 0.4387(2) 0.31250(17)
O8 O 0.8490(3) 0.29012(17) 0.42816(12)
O9 O 0.7080(4) 0.1095(2) 0.42841(15)
C4 C 0.9681(5) 0.1575(2) 0.47104(18)
H5 H 1.0638 0.1212 0.4659
H6 H 0.9727 0.1820 0.5136
O10 O 0.3850(4) 0.0852(2) 0.48117(17)
C5 C 0.9791(4) 0.2298(2) 0.42321(18)
H7 H 1.0827 0.2603 0.4302
C6 C 0.9744(4) 0.1999(2) 0.35425(18)
C7 C 0.8178(5) 0.1021(3) 0.46661(19)
B1 B 0.7875(5) 0.3097(3) 0.3652(2)
O11 O 0.8208(4) 0.0411(2) 0.50976(17)
H8 H 0.7399 0.0104 0.5055
C8 C 0.2741(4) 0.4028(2) 0.34212(17)
H9 H 0.373(12) 0.121(5) 0.512(3)
H10 H 0.488(2) 0.084(7) 0.475(5)
Cs1_2 Cs 1.44566(3) 0.147084(14) 0.313797(11)
Cs1B Cs 0.55434(3) 0.647084(14) 0.186203(11)
Cs1E Cs 0.94566(3) 0.147084(14) 0.186203(11)
Cs1G Cs 0.05434(3) 0.647084(14) 0.313797(11)
Cs1G_2 Cs 1.05434(3) 0.647084(14) 0.313797(11)
O1_2 O 0.0638(3) 0.14646(17) 0.33079(14)
O1E O 0.5638(3) 0.14646(17) 0.16921(14)
O4E O 0.3605(3) 0.24229(16) 0.17727(12)
O6G O 0.3435(3) -0.04296(17) 0.35982(15)
O7B O 0.2480(3) 0.00712(17) 0.21351(14)
O7G O 0.7480(3) 0.00712(17) 0.28649(14)
loop_
_geom_bond_atom_site_label_1
_geom_bond_atom_site_label_2
_geom_bond_site_symmetry_1
_geom_bond_site_symmetry_2
Cs1 O2 1_555 1_555
O1 C6 1_555 1_555
C1 H1 1_555 1_555
O2 C1 1_555 1_555
O3 C3 1_555 1_555
O4 C6 1_555 1_555
O5 Cs1 1_555 1_555
O6 H2 1_555 1_555
O7 C3 1_555 1_555
C2 C1 1_555 1_555
H3 C2 1_555 1_555
H4 C2 1_555 1_555
C3 C1 1_555 1_555
O8 C5 1_555 1_555
O9 Cs1 1_555 1_555
C4 H5 1_555 1_555
H6 C4 1_555 1_555
O10 Cs1 1_555 1_555
C5 C4 1_555 1_555
H7 C5 1_555 1_555
C6 C5 1_555 1_555
C7 O9 1_555 1_555
B1 O2 1_555 1_555
O11 C7 1_555 1_555
H8 O11 1_555 1_555
C8 O5 1_555 1_555
H9 O10 1_555 1_555
H10 O10 1_555 1_555
Cs1_2 O1 1_555 1_555
Cs1B O7 1_555 1_555
Cs1E O1 1_555 1_555
Cs1G O6 1_555 1_555
Cs1G_2 O7 1_555 1_555
O1_2 Cs1 1_555 1_555
O1E Cs1 1_555 1_555
O4E Cs1 1_555 1_555
O6G Cs1 1_555 1_555
O7B Cs1 1_555 1_555
O7G Cs1 1_555 1_555
O3 B1 1_555 1_555
O4 B1 1_555 1_555
O4 Cs1E 1_555 1_555
O6 C8 1_555 1_555
C2 C8 1_555 1_555
O8 B1 1_555 1_555
C4 C7 1_555 1_555
Cs1E O1E 1_555 1_555
Cs1E O7G 1_555 1_555

#END
