
#######################################################################
#
#                 Cambridge Crystallographic Data Centre
#                                CCDC 
#
#######################################################################
#
# If this CIF has been generated from an entry in the Cambridge 
# Structural Database, then it will include bibliographic, chemical, 
# crystal, experimental, refinement or atomic coordinate data resulting 
# from the CCDC's data processing and validation procedures.
#
#######################################################################

data_QOGQAF
_symmetry_cell_setting           monoclinic
_symmetry_space_group_name_H-M   'P 21/c'
_symmetry_Int_Tables_number      14
_space_group_name_Hall           '-P 2ybc'
loop_
_symmetry_equiv_pos_site_id
_symmetry_equiv_pos_as_xyz
1 x,y,z
2 -x,1/2+y,1/2-z
3 -x,-y,-z
4 x,1/2-y,1/2+z
_cell_length_a                   12.1249(16)
_cell_length_b                   15.700(3)
_cell_length_c                   11.2713(15)
_cell_angle_alpha                90
_cell_angle_beta                 95.534(2)
_cell_angle_gamma                90
_cell_volume                     2135.61
loop_
_atom_site_label
_atom_site_type_symbol
_atom_site_fract_x
_atom_site_fract_y
_atom_site_fract_z
Co1 Co 0.62533(5) 0.04571(4) 0.77454(5)
N1 N 0.7058(3) 0.0265(2) 0.6238(3)
N2 N 0.5269(3) -0.0588(2) 0.7358(3)
N3 N 0.5813(3) -0.0797(2) 0.5422(3)
H1 H 0.5613 -0.1049 0.4758
O1 O 0.7356(3) 0.0027(2) 0.9185(3)
O2 O 0.7503(3) 0.1335(2) 0.8554(3)
O3 O 1.5050(3) 0.3963(2) 1.3819(3)
O4 O 1.5056(2) 0.36433(19) 1.1923(3)
O5 O 1.0900(3) 0.1476(2) 1.3205(3)
C1 C 0.7790(4) 0.0749(3) 0.9290(4)
C2 C 0.8646(4) 0.0938(3) 1.0290(4)
C3 C 0.8989(4) 0.1766(3) 1.0528(5)
H2 H 0.8698 0.2204 1.0036
C4 C 0.9750(4) 0.1958(4) 1.1478(5)
H3 H 0.9960 0.2520 1.1633
C5 C 1.0194(4) 0.1314(4) 1.2193(4)
C6 C 0.9901(4) 0.0487(4) 1.1956(4)
H4 H 1.0228 0.0051 1.2425
C7 C 0.9117(4) 0.0298(3) 1.1017(4)
H5 H 0.8905 -0.0265 1.0873
C8 C 1.4638(4) 0.3578(3) 1.2918(4)
C9 C 1.3629(3) 0.3036(3) 1.2972(4)
C10 C 1.2976(4) 0.3121(3) 1.3895(4)
H6 H 1.3158 0.3524 1.4485
C11 C 1.2053(4) 0.2615(4) 1.3957(4)
H7 H 1.1607 0.2680 1.4578
C12 C 1.1801(4) 0.2012(3) 1.3084(4)
C13 C 1.2440(4) 0.1918(3) 1.2151(4)
H8 H 1.2260 0.1511 1.1564
C14 C 1.3346(4) 0.2434(3) 1.2098(4)
H9 H 1.3779 0.2379 1.1464
C15 C 0.6733(4) -0.0294(3) 0.5384(4)
C16 C 0.7307(4) -0.0388(4) 0.4370(4)
H10 H 0.7074 -0.0786 0.3789
C17 C 0.8201(5) 0.0105(4) 0.4243(5)
H11 H 0.8587 0.0049 0.3573
C18 C 0.8542(4) 0.0693(4) 0.5113(5)
H12 H 0.9153 0.1041 0.5041
C19 C 0.7955(4) 0.0747(3) 0.6077(5)
H13 H 0.8186 0.1142 0.6665
C20 C 0.5142(4) -0.0980(3) 0.6311(4)
C21 C 0.4335(4) -0.1612(3) 0.6052(5)
H14 H 0.4244 -0.1869 0.5306
C22 C 0.3688(4) -0.1840(3) 0.6924(6)
H15 H 0.3145 -0.2254 0.6774
C23 C 0.3838(4) -0.1457(3) 0.8025(5)
H16 H 0.3408 -0.1615 0.8629
C24 C 0.4626(4) -0.0843(3) 0.8213(4)
H17 H 0.4729 -0.0587 0.8959
Co1C Co 1.62533(5) 0.45429(4) 1.27454(5)
O3C O 0.5050(3) 0.1037(2) 0.8819(3)
O4C O 0.5056(2) 0.13567(19) 0.6923(3)
loop_
_geom_bond_atom_site_label_1
_geom_bond_atom_site_label_2
_geom_bond_site_symmetry_1
_geom_bond_site_symmetry_2
Co1 N1 1_555 1_555
N1 C15 1_555 1_555
N2 Co1 1_555 1_555
N3 H1 1_555 1_555
O1 Co1 1_555 1_555
O2 Co1 1_555 1_555
O3 C8 1_555 1_555
O4 C8 1_555 1_555
O5 C5 1_555 1_555
C1 O1 1_555 1_555
C2 C1 1_555 1_555
C3 C2 1_555 1_555
H2 C3 1_555 1_555
C4 C3 1_555 1_555
H3 C4 1_555 1_555
C5 C4 1_555 1_555
C6 C5 1_555 1_555
H4 C6 1_555 1_555
C7 C2 1_555 1_555
H5 C7 1_555 1_555
C8 C9 1_555 1_555
C9 C10 1_555 1_555
C10 H6 1_555 1_555
C11 C10 1_555 1_555
H7 C11 1_555 1_555
C12 O5 1_555 1_555
C13 C12 1_555 1_555
H8 C13 1_555 1_555
C14 C9 1_555 1_555
H9 C14 1_555 1_555
C15 N3 1_555 1_555
C16 C15 1_555 1_555
H10 C16 1_555 1_555
C17 C16 1_555 1_555
H11 C17 1_555 1_555
C18 C17 1_555 1_555
H12 C18 1_555 1_555
C19 N1 1_555 1_555
H13 C19 1_555 1_555
C20 N2 1_555 1_555
C21 C20 1_555 1_555
H14 C21 1_555 1_555
C22 C21 1_555 1_555
H15 C22 1_555 1_555
C23 C22 1_555 1_555
H16 C23 1_555 1_555
C24 N2 1_555 1_555
H17 C24 1_555 1_555
Co1C O3 1_555 1_555
O3C Co1 1_555 1_555
O4C Co1 1_555 1_555
N3 C20 1_555 1_555
O2 C1 1_555 1_555
O4 Co1C 1_555 1_555
C6 C7 1_555 1_555
C11 C12 1_555 1_555
C13 C14 1_555 1_555
C18 C19 1_555 1_555
C23 C24 1_555 1_555

#END
