
#######################################################################
#
#                 Cambridge Crystallographic Data Centre
#                                CCDC 
#
#######################################################################
#
# If this CIF has been generated from an entry in the Cambridge 
# Structural Database, then it will include bibliographic, chemical, 
# crystal, experimental, refinement or atomic coordinate data resulting 
# from the CCDC's data processing and validation procedures.
#
#######################################################################

data_QOGQEJ
_symmetry_cell_setting           monoclinic
_symmetry_space_group_name_H-M   'C 2/c'
_symmetry_Int_Tables_number      15
_space_group_name_Hall           '-C 2yn'
loop_
_symmetry_equiv_pos_site_id
_symmetry_equiv_pos_as_xyz
1 x,y,z
2 1/2+x,1/2+y,z
3 -x,y,1/2-z
4 1/2-x,1/2+y,1/2-z
5 -x,-y,-z
6 1/2-x,1/2-y,-z
7 x,-y,1/2+z
8 1/2+x,1/2-y,1/2+z
_cell_length_a                   22.1792(17)
_cell_length_b                   13.6526(11)
_cell_length_c                   13.0343(10)
_cell_angle_alpha                90
_cell_angle_beta                 119.281(1)
_cell_angle_gamma                90
_cell_volume                     3442.55
loop_
_atom_site_label
_atom_site_type_symbol
_atom_site_fract_x
_atom_site_fract_y
_atom_site_fract_z
Cu1 Cu 0.54375(2) 0.52556(3) 0.88233(4)
N1 N 0.62303(13) 0.43324(18) 0.9301(2)
O1 O 0.48431(11) 0.41134(15) 0.85095(19)
O2 O 0.41905(11) 0.45450(15) 0.93086(19)
O3 O 0.30884(13) 0.02420(16) 0.7720(3)
O4 O 0.40373(12) -0.37548(15) 0.6538(2)
O5 O 0.47546(12) -0.36977(15) 0.8481(2)
C1 C 0.43979(16) 0.3941(2) 0.8838(3)
C2 C 0.40929(16) 0.2932(2) 0.8584(3)
C3 C 0.3620(2) 0.2669(3) 0.8927(4)
H1 H 0.3511 0.3112 0.9353
C4 C 0.3305(2) 0.1763(3) 0.8656(4)
H2 H 0.2983 0.1602 0.8890
C5 C 0.34674(18) 0.1107(2) 0.8046(4)
C6 C 0.3939(2) 0.1340(3) 0.7696(4)
H3 H 0.4049 0.0890 0.7277
C7 C 0.42531(19) 0.2252(2) 0.7974(3)
H4 H 0.4578 0.2408 0.7744
C8 C 0.34096(18) -0.0619(2) 0.7686(4)
C9 C 0.30644(19) -0.1200(3) 0.6719(4)
H5 H 0.2643 -0.0999 0.6096
C10 C 0.33456(18) -0.2089(2) 0.6672(3)
H6 H 0.3115 -0.2482 0.6008
C11 C 0.39658(16) -0.2405(2) 0.7599(3)
C12 C 0.43041(19) -0.1807(2) 0.8573(3)
H7 H 0.4721 -0.2009 0.9206
C13 C 0.4027(2) -0.0914(3) 0.8610(4)
H8 H 0.4260 -0.0510 0.9264
C14 C 0.42751(17) -0.3363(2) 0.7537(3)
C15 C 0.63111(19) 0.3604(3) 1.0038(3)
H9 H 0.6020 0.3580 1.0364
C16 C 0.68030(19) 0.2889(3) 1.0338(3)
H10 H 0.6841 0.2397 1.0861
C17 C 0.72441(16) 0.2894(2) 0.9865(3)
C18 C 0.71729(17) 0.3670(2) 0.9144(3)
H11 H 0.7469 0.3726 0.8832
C19 C 0.66698(17) 0.4365(2) 0.8877(3)
H12 H 0.6634 0.4879 0.8382
Cu1E Cu 0.95625(2) -0.02556(3) 1.11767(4)
Cu1D Cu 0.45625(2) 0.47444(3) 1.11767(4)
Cu1B Cu 0.45625(2) -0.47444(3) 0.61767(4)
Cu1_2 Cu 0.54375(2) -0.47444(3) 0.88233(4)
Cu1F Cu 0.54375(2) 1.47444(3) 1.38233(4)
Cu1D_2 Cu 0.45625(2) 1.47444(3) 1.11767(4)
N1E N 0.87697(13) 0.06676(18) 1.0699(2)
O1D O 0.51569(11) 0.58866(15) 1.14905(19)
O1E O 1.01569(11) 0.08866(15) 1.14905(19)
O2D O 0.58095(11) 0.54550(15) 1.06914(19)
O2A O 0.91905(11) -0.04550(15) 0.93086(19)
O3D O 0.69116(13) 0.97580(16) 1.2280(3)
O4D O 0.59627(12) 1.37548(15) 1.3462(2)
O4B O 0.59627(12) 0.62452(15) 0.8462(2)
O4G O 0.90373(12) -0.12452(15) 1.1538(2)
O5D O 0.52454(12) 1.36977(15) 1.1519(2)
O5_2 O 0.47546(12) 0.63023(15) 0.8481(2)
O5E O 1.02454(12) -0.13023(15) 1.1519(2)
C1D C 0.56021(16) 0.6059(2) 1.1162(3)
C2D C 0.59071(16) 0.7068(2) 1.1416(3)
C3D C 0.6380(2) 0.7331(3) 1.1073(4)
H1D H 0.6489 0.6888 1.0647
C4D C 0.6695(2) 0.8237(3) 1.1344(4)
H2D H 0.7017 0.8398 1.1110
C5D C 0.65326(18) 0.8893(2) 1.1954(4)
C6D C 0.6061(2) 0.8660(3) 1.2304(4)
H3D H 0.5951 0.9110 1.2723
C7D C 0.57469(19) 0.7748(2) 1.2026(3)
H4D H 0.5422 0.7592 1.2256
C8D C 0.65904(18) 1.0619(2) 1.2314(4)
C9D C 0.69356(19) 1.1200(3) 1.3281(4)
H5D H 0.7357 1.0999 1.3904
C10D C 0.66544(18) 1.2089(2) 1.3328(3)
H6D H 0.6885 1.2482 1.3992
C11D C 0.60342(16) 1.2405(2) 1.2401(3)
C12D C 0.56959(19) 1.1807(2) 1.1427(3)
H7D H 0.5279 1.2009 1.0794
C13D C 0.5973(2) 1.0914(3) 1.1390(4)
H8D H 0.5740 1.0510 1.0736
C14D C 0.57249(17) 1.3363(2) 1.2463(3)
C15E C 0.86889(19) 0.1396(3) 0.9962(3)
H9E H 0.8980 0.1420 0.9636
C16E C 0.81970(19) 0.2111(3) 0.9662(3)
H10E H 0.8159 0.2603 0.9139
C17E C 0.77559(16) 0.2106(2) 1.0135(3)
C18E C 0.78271(17) 0.1330(2) 1.0856(3)
H11E H 0.7531 0.1274 1.1168
C19E C 0.83302(17) 0.0635(2) 1.1123(3)
H12E H 0.8366 0.0121 1.1618
loop_
_geom_bond_atom_site_label_1
_geom_bond_atom_site_label_2
_geom_bond_site_symmetry_1
_geom_bond_site_symmetry_2
Cu1 N1 1_555 1_555
N1 C15 1_555 1_555
O1 Cu1 1_555 1_555
O2 C1 1_555 1_555
O3 C5 1_555 1_555
O4 C14 1_555 1_555
O5 C14 1_555 1_555
C1 O1 1_555 1_555
C2 C1 1_555 1_555
C3 C2 1_555 1_555
H1 C3 1_555 1_555
C4 C3 1_555 1_555
H2 C4 1_555 1_555
C5 C4 1_555 1_555
C6 C5 1_555 1_555
H3 C6 1_555 1_555
C7 C2 1_555 1_555
H4 C7 1_555 1_555
C8 O3 1_555 1_555
C9 C8 1_555 1_555
H5 C9 1_555 1_555
C10 C9 1_555 1_555
H6 C10 1_555 1_555
C11 C10 1_555 1_555
C12 C11 1_555 1_555
H7 C12 1_555 1_555
C13 C8 1_555 1_555
H8 C13 1_555 1_555
C14 C11 1_555 1_555
C15 H9 1_555 1_555
C16 C15 1_555 1_555
H10 C16 1_555 1_555
C17 C16 1_555 1_555
C18 C17 1_555 1_555
H11 C18 1_555 1_555
C19 N1 1_555 1_555
H12 C19 1_555 1_555
Cu1E N1E 1_555 1_555
Cu1D O2 1_555 1_555
Cu1B O4 1_555 1_555
Cu1_2 O5 1_555 1_555
Cu1F O4D 1_555 1_555
Cu1D_2 O5D 1_555 1_555
N1E C15E 1_555 1_555
O1D Cu1D 1_555 1_555
O1E Cu1E 1_555 1_555
O2D Cu1 1_555 1_555
O2A Cu1E 1_555 1_555
O3D C5D 1_555 1_555
O4D C14D 1_555 1_555
O4B Cu1 1_555 1_555
O4G Cu1E 1_555 1_555
O5D C14D 1_555 1_555
O5_2 Cu1 1_555 1_555
O5E Cu1E 1_555 1_555
C1D O1D 1_555 1_555
C2D C1D 1_555 1_555
C3D C2D 1_555 1_555
H1D C3D 1_555 1_555
C4D C3D 1_555 1_555
H2D C4D 1_555 1_555
C5D C4D 1_555 1_555
C6D C5D 1_555 1_555
H3D C6D 1_555 1_555
C7D C2D 1_555 1_555
H4D C7D 1_555 1_555
C8D O3D 1_555 1_555
C9D C8D 1_555 1_555
H5D C9D 1_555 1_555
C10D C9D 1_555 1_555
H6D C10D 1_555 1_555
C11D C10D 1_555 1_555
C12D C11D 1_555 1_555
H7D C12D 1_555 1_555
C13D C8D 1_555 1_555
H8D C13D 1_555 1_555
C14D C11D 1_555 1_555
C15E H9E 1_555 1_555
C16E C15E 1_555 1_555
H10E C16E 1_555 1_555
C17E C17 1_555 1_555
C18E C17E 1_555 1_555
H11E C18E 1_555 1_555
C19E N1E 1_555 1_555
H12E C19E 1_555 1_555
C6 C7 1_555 1_555
C12 C13 1_555 1_555
C18 C19 1_555 1_555
O2D C1D 1_555 1_555
C6D C7D 1_555 1_555
C12D C13D 1_555 1_555
C16E C17E 1_555 1_555
C18E C19E 1_555 1_555

#END
