
#######################################################################
#
#                 Cambridge Crystallographic Data Centre
#                                CCDC 
#
#######################################################################
#
# If this CIF has been generated from an entry in the Cambridge 
# Structural Database, then it will include bibliographic, chemical, 
# crystal, experimental, refinement or atomic coordinate data resulting 
# from the CCDC's data processing and validation procedures.
#
#######################################################################

data_QOGROU
_symmetry_cell_setting           trigonal
_symmetry_space_group_name_H-M   'P -3'
_symmetry_Int_Tables_number      147
_space_group_name_Hall           '-P 3'
loop_
_symmetry_equiv_pos_site_id
_symmetry_equiv_pos_as_xyz
1 x,y,z
2 -y,x-y,z
3 -x+y,-x,z
4 -x,-y,-z
5 y,-x+y,-z
6 x-y,x,-z
_cell_length_a                   19.097(5)
_cell_length_b                   19.097(5)
_cell_length_c                   18.060(4)
_cell_angle_alpha                90
_cell_angle_beta                 90
_cell_angle_gamma                120
_cell_volume                     5703.99
loop_
_atom_site_label
_atom_site_type_symbol
_atom_site_fract_x
_atom_site_fract_y
_atom_site_fract_z
Cd1 Cd 0.0000 0.0000 1.5000
Cd2 Cd 0.6667 0.3333 1.00844(5)
Cd3 Cd 1.3333 0.6667 0.51403(5)
Cd4 Cd 1.0000 1.0000 0.0000
N1 N 0.2341(3) 0.1438(3) 1.3765(3)
N2 N 0.1890(4) 0.1673(4) 1.3357(3)
N3 N 0.1128(3) 0.0788(3) 1.4244(3)
N4 N 0.4348(3) 0.1933(3) 1.1363(3)
N5 N 0.4811(3) 0.1750(4) 1.1800(4)
N6 N 0.5542(3) 0.2535(3) 1.0852(3)
N7 N 0.8948(3) 0.4875(3) 0.8851(3)
N8 N 0.8479(5) 0.5108(4) 0.8470(4)
N9 N 0.7761(3) 0.4211(3) 0.9345(3)
N10 N 1.1132(5) 0.5180(4) 0.6486(3)
N11 N 1.1648(7) 0.5073(5) 0.6939(4)
N12 N 1.2312(4) 0.5756(4) 0.5913(4)
N13 N 1.1735(3) 0.7171(4) 0.3724(4)
N14 N 1.1649(5) 0.6531(4) 0.3312(6)
N15 N 1.2351(4) 0.6677(4) 0.4358(4)
N16 N 1.1588(3) 0.9548(3) 0.1458(3)
N17 N 1.1610(3) 1.0150(3) 0.1882(3)
N18 N 1.1018(3) 1.0057(3) 0.0779(2)
C1 C 0.3215(4) 0.1763(4) 1.3624(3)
H1 H 0.3446 0.1607 1.4040
H2 H 0.3489 0.2361 1.3614
C2 C 0.3391(4) 0.1477(4) 1.2917(3)
H3 H 0.3005 0.0891 1.2862
H4 H 0.3942 0.1552 1.2944
C3 C 0.3334(3) 0.1911(4) 1.2238(3)
H5 H 0.2786 0.1846 1.2219
H6 H 0.3727 0.2496 1.2289
C4 C 0.3493(3) 0.1615(4) 1.1518(3)
H7 H 0.3219 0.1017 1.1530
H8 H 0.3253 0.1769 1.1108
C5 C 0.1178(4) 0.1260(5) 1.3662(3)
H9 H 0.0724 0.1289 1.3488
C6 C 0.1887(4) 0.0920(4) 1.4278(3)
H10 H 0.2071 0.0673 1.4625
C7 C 0.5525(4) 0.2127(4) 1.1468(4)
H11 H 0.5985 0.2112 1.1648
C8 C 0.4786(4) 0.2392(4) 1.0815(4)
H12 H 0.4588 0.2596 1.0440
C9 C 0.9792(5) 0.5182(5) 0.8667(4)
H13 H 1.0053 0.5045 0.9071
H14 H 1.0070 0.5779 0.8628
C10 C 0.9895(10) 0.4836(6) 0.7939(6)
H15 H 1.0244 0.4602 0.8055
H16 H 0.9355 0.4373 0.7818
C11 C 1.0147(12) 0.5197(6) 0.7388(7)
H17 H 1.0681 0.5668 0.7510
H18 H 0.9789 0.5416 0.7262
C12 C 1.0263(7) 0.4843(6) 0.6678(6)
H19 H 1.0005 0.4249 0.6732
H20 H 0.9989 0.4954 0.6267
C13 C 0.7795(5) 0.4699(5) 0.8784(5)
H21 H 0.7336 0.4732 0.8634
C14 C 0.8504(4) 0.4344(4) 0.9367(3)
H22 H 0.8697 0.4097 0.9703
C15 C 1.2330(7) 0.5445(5) 0.6575(5)
H23 H 1.2814 0.5493 0.6769
C16 C 1.1542(5) 0.5570(6) 0.5886(4)
H24 H 1.1311 0.5701 0.5482
C17 C 1.1425(5) 0.7689(5) 0.3439(5)
H25 H 1.1520 0.8108 0.3811
H26 H 1.0835 0.7356 0.3357
C18 C 1.1835(4) 0.8090(4) 0.2723(4)
H27 H 1.1743 0.7671 0.2352
H28 H 1.2425 0.8424 0.2806
C19 C 1.1511(4) 0.8622(4) 0.2426(3)
H29 H 1.0925 0.8281 0.2327
H30 H 1.1582 0.9023 0.2808
C20 C 1.1932(4) 0.9062(4) 0.1723(3)
H31 H 1.2517 0.9416 0.1820
H32 H 1.1869 0.8665 0.1339
C21 C 1.2013(6) 0.6248(5) 0.3726(7)
H33 H 1.2040 0.5780 0.3597
C22 C 1.2169(4) 0.7263(5) 0.4335(4)
H34 H 1.2322 0.7679 0.4694
C23 C 1.1261(4) 1.0434(4) 0.1449(3)
H35 H 1.1183 1.0869 0.1590
C24 C 1.1244(4) 0.9511(4) 0.0805(3)
H36 H 1.1173 0.9145 0.0417
Cd2A Cd -0.3333 0.3334 1.00844(5)
Cd2_2 Cd -0.3333 -0.6667 1.00844(5)
Cd2C Cd -0.6667 -0.3333 1.99156(5)
Cd2C_2 Cd 0.3333 -0.3333 1.99156(5)
Cd2C_3 Cd 0.3333 0.6667 1.99156(5)
Cd3A Cd 0.3333 0.6666 0.51403(5)
Cd3_2 Cd 0.3333 -0.3333 0.51403(5)
Cd3_3 Cd -0.6667 0.6667 0.51403(5)
Cd3_4 Cd -0.6667 -0.3333 0.51403(5)
Cd4_2 Cd 1.0000 0.0000 0.0000
Cd4_3 Cd 2.0000 1.0000 0.0000
Cd4_4 Cd 0.0000 0.0000 0.0000
Cd4_5 Cd 0.0000 1.0000 0.0000
N1A N -0.1438(3) 0.0903(4) 1.3765(3)
N1B N -0.0903(4) -0.2341(3) 1.3765(3)
N1C N -0.2341(3) -0.1438(3) 1.6235(3)
N1D N 0.1438(3) -0.0903(4) 1.6235(3)
N1E N 0.0903(4) 0.2341(3) 1.6235(3)
N2A N -0.1673(4) 0.0217(6) 1.3357(3)
N2B N -0.0217(6) -0.1890(4) 1.3357(3)
N2C N -0.1890(4) -0.1673(4) 1.6643(3)
N2D N 0.1673(4) -0.0217(6) 1.6643(3)
N2E N 0.0217(6) 0.1890(4) 1.6643(3)
N3A N -0.0788(3) 0.0340(4) 1.4244(3)
N3B N -0.0340(4) -0.1128(3) 1.4244(3)
N3C N -0.1128(3) -0.0788(3) 1.5756(3)
N3D N 0.0788(3) -0.0340(4) 1.5756(3)
N3E N 0.0340(4) 0.1128(3) 1.5756(3)
N4A N -0.1933(3) 0.2415(4) 1.1363(3)
N4B N -0.2415(4) -0.4348(3) 1.1363(3)
N4C N -0.4348(3) -0.1933(3) 1.8637(3)
N4D N 0.1933(3) -0.2415(4) 1.8637(3)
N4E N 0.2415(4) 0.4348(3) 1.8637(3)
N5A N -0.1750(4) 0.3061(5) 1.1800(4)
N5B N -0.3061(5) -0.4811(3) 1.1800(4)
N5C N -0.4811(3) -0.1750(4) 1.8200(4)
N5D N 0.1750(4) -0.3061(5) 1.8200(4)
N5E N 0.3061(5) 0.4811(3) 1.8200(4)
N6A N -0.2535(3) 0.3007(4) 1.0852(3)
N6B N -0.3007(4) -0.5542(3) 1.0852(3)
N6C N -0.5542(3) -0.2535(3) 1.9148(3)
N6D N 0.2535(3) -0.3007(4) 1.9148(3)
N6E N 0.3007(4) 0.5542(3) 1.9148(3)
N6A_2 N 0.7465(3) 0.3007(4) 1.0852(3)
N6B_2 N 0.6993(4) 0.4458(3) 1.0852(3)
N6_2 N -0.4458(3) 0.2535(3) 1.0852(3)
N6B_3 N -0.3007(4) 0.4458(3) 1.0852(3)
N7A N 0.5125(3) 0.4073(4) 0.8851(3)
N7B N 0.5927(4) 0.1052(3) 0.8851(3)
N7A_2 N -0.4875(3) 0.4073(4) 0.8851(3)
N7B_2 N -0.4073(4) 0.1052(3) 0.8851(3)
N7_2 N -0.1052(3) 0.4875(3) 0.8851(3)
N8A N 0.4892(4) 0.3371(6) 0.8470(4)
N8B N 0.6629(6) 0.1521(5) 0.8470(4)
N8A_2 N -0.5108(4) 0.3371(6) 0.8470(4)
N8B_2 N -0.3371(6) 0.1521(5) 0.8470(4)
N8_2 N -0.1521(5) 0.5108(4) 0.8470(4)
N9A N 0.5789(3) 0.3550(4) 0.9345(3)
N9B N 0.6450(4) 0.2239(3) 0.9345(3)
N9A_2 N -0.4211(3) 0.3550(4) 0.9345(3)
N9B_2 N -0.3550(4) 0.2239(3) 0.9345(3)
N9_2 N -0.2239(3) 0.4211(3) 0.9345(3)
N10A N 0.4820(4) 0.5952(6) 0.6486(3)
N10B N 0.4048(6) -0.1132(5) 0.6486(3)
N10A_2 N -0.5180(4) 0.5952(6) 0.6486(3)
N10B_2 N -0.5952(6) -0.1132(5) 0.6486(3)
N10_2 N 0.1132(5) 0.5180(4) 0.6486(3)
N11A N 0.4927(5) 0.6575(9) 0.6939(4)
N11B N 0.3425(9) -0.1648(7) 0.6939(4)
N11A_2 N -0.5073(5) 0.6575(9) 0.6939(4)
N11B_2 N -0.6575(9) -0.1648(7) 0.6939(4)
N11_2 N 0.1648(7) 0.5073(5) 0.6939(4)
N12A N 0.4244(4) 0.6556(6) 0.5913(4)
N12B N 0.3444(6) -0.2312(4) 0.5913(4)
N12A_2 N -0.5756(4) 0.6556(6) 0.5913(4)
N12B_2 N -0.6556(6) -0.2312(4) 0.5913(4)
N12_2 N 0.2312(4) 0.5756(4) 0.5913(4)
N12A_3 N 1.4244(4) 0.6556(6) 0.5913(4)
N12B_3 N 1.3444(6) 0.7688(4) 0.5913(4)
N12B_4 N 0.3444(6) 0.7688(4) 0.5913(4)
N13A N 1.2829(4) 0.4564(5) 0.3724(4)
N13B N 1.5436(5) 0.8265(3) 0.3724(4)
N13A_2 N 0.2829(4) 0.4564(5) 0.3724(4)
N13B_2 N 0.5436(5) 0.8265(3) 0.3724(4)
N13_2 N 0.1735(3) 0.7171(4) 0.3724(4)
N14A N 1.3469(4) 0.5118(6) 0.3312(6)
N14B N 1.4882(6) 0.8351(5) 0.3312(6)
N14A_2 N 0.3469(4) 0.5118(6) 0.3312(6)
N14B_2 N 0.4882(6) 0.8351(5) 0.3312(6)
N14_2 N 0.1649(5) 0.6531(4) 0.3312(6)
N15A N 1.3323(4) 0.5674(6) 0.4358(4)
N15B N 1.4326(6) 0.7649(4) 0.4358(4)
N15A_2 N 0.3323(4) 0.5674(6) 0.4358(4)
N15B_2 N 0.4326(6) 0.7649(4) 0.4358(4)
N15_2 N 0.2351(4) 0.6677(4) 0.4358(4)
N16A N 1.0452(3) 0.2040(4) 0.1458(3)
N16B N 1.7960(4) 0.8412(3) 0.1458(3)
N16A_2 N 0.0452(3) 0.2040(4) 0.1458(3)
N16B_2 N 0.7960(4) 0.8412(3) 0.1458(3)
N16_2 N 0.1588(3) 0.9548(3) 0.1458(3)
N17A N 0.9850(3) 0.1460(4) 0.1882(3)
N17B N 1.8540(4) 0.8390(3) 0.1882(3)
N17A_2 N -0.0150(3) 0.1460(4) 0.1882(3)
N17B_2 N 0.8540(4) 0.8390(3) 0.1882(3)
N17_2 N 0.1610(3) 1.0150(3) 0.1882(3)
N18A N 0.9943(3) 0.0961(4) 0.0779(2)
N18B N 1.9039(4) 0.8982(3) 0.0779(2)
N18A_2 N -0.0057(3) 0.0961(4) 0.0779(2)
N18B_2 N 0.9039(4) 0.8982(3) 0.0779(2)
N18_2 N 0.1018(3) 1.0057(3) 0.0779(2)
N18A_3 N 0.9943(3) 1.0961(4) 0.0779(2)
N18C N 0.8982(3) 0.9943(3) -0.0779(2)
N18D N 1.0057(3) 0.9039(4) -0.0779(2)
N18E N 1.0961(4) 1.1018(3) -0.0779(2)
C1A C -0.1763(4) 0.1452(6) 1.3624(3)
C1B C -0.1452(6) -0.3215(4) 1.3624(3)
C1C C -0.3215(4) -0.1763(4) 1.6376(3)
C1D C 0.1763(4) -0.1452(6) 1.6376(3)
C1E C 0.1452(6) 0.3215(4) 1.6376(3)
H1A H -0.1607 0.1839 1.4040
H1B H -0.1839 -0.3446 1.4040
H1C H -0.3446 -0.1607 1.5960
H1D H 0.1607 -0.1839 1.5960
H1E H 0.1839 0.3446 1.5960
H2A H -0.2361 0.1128 1.3614
H2B H -0.1128 -0.3489 1.3614
H2C H -0.3489 -0.2361 1.6386
H2D H 0.2361 -0.1128 1.6386
H2E H 0.1128 0.3489 1.6386
C2A C -0.1477(4) 0.1914(6) 1.2917(3)
C2B C -0.1914(6) -0.3391(4) 1.2917(3)
C2C C -0.3391(4) -0.1477(4) 1.7083(3)
C2D C 0.1477(4) -0.1914(6) 1.7083(3)
C2E C 0.1914(6) 0.3391(4) 1.7083(3)
H3A H -0.0891 0.2114 1.2862
H3B H -0.2114 -0.3005 1.2862
H3C H -0.3005 -0.0891 1.7138
H3D H 0.0891 -0.2114 1.7138
H3E H 0.2114 0.3005 1.7138
H4A H -0.1552 0.2390 1.2944
H4B H -0.2390 -0.3942 1.2944
H4C H -0.3942 -0.1552 1.7056
H4D H 0.1552 -0.2390 1.7056
H4E H 0.2390 0.3942 1.7056
C3A C -0.1911(4) 0.1423(5) 1.2238(3)
C3B C -0.1423(5) -0.3334(3) 1.2238(3)
C3C C -0.3334(3) -0.1911(4) 1.7762(3)
C3D C 0.1911(4) -0.1423(5) 1.7762(3)
C3E C 0.1423(5) 0.3334(3) 1.7762(3)
H5A H -0.1846 0.0940 1.2219
H5B H -0.0940 -0.2786 1.2219
H5C H -0.2786 -0.1846 1.7781
H5D H 0.1846 -0.0940 1.7781
H5E H 0.0940 0.2786 1.7781
H6A H -0.2496 0.1231 1.2289
H6B H -0.1231 -0.3727 1.2289
H6C H -0.3727 -0.2496 1.7711
H6D H 0.2496 -0.1231 1.7711
H6E H 0.1231 0.3727 1.7711
C4A C -0.1615(4) 0.1878(5) 1.1518(3)
C4B C -0.1878(5) -0.3493(3) 1.1518(3)
C4C C -0.3493(3) -0.1615(4) 1.8482(3)
C4D C 0.1615(4) -0.1878(5) 1.8482(3)
C4E C 0.1878(5) 0.3493(3) 1.8482(3)
H7A H -0.1017 0.2202 1.1530
H7B H -0.2202 -0.3219 1.1530
H7C H -0.3219 -0.1017 1.8470
H7D H 0.1017 -0.2202 1.8470
H7E H 0.2202 0.3219 1.8470
H8A H -0.1769 0.1484 1.1108
H8B H -0.1484 -0.3253 1.1108
H8C H -0.3253 -0.1769 1.8892
H8D H 0.1769 -0.1484 1.8892
H8E H 0.1484 0.3253 1.8892
C5A C -0.1260(5) -0.0082(6) 1.3662(3)
C5B C 0.0082(6) -0.1178(4) 1.3662(3)
C5C C -0.1178(4) -0.1260(5) 1.6338(3)
C5D C 0.1260(5) 0.0082(6) 1.6338(3)
C5E C -0.0082(6) 0.1178(4) 1.6338(3)
H9A H -0.1289 -0.0565 1.3488
H9B H 0.0565 -0.0724 1.3488
H9C H -0.0724 -0.1289 1.6512
H9D H 0.1289 0.0565 1.6512
H9E H -0.0565 0.0724 1.6512
C6A C -0.0920(4) 0.0967(6) 1.4278(3)
C6B C -0.0967(6) -0.1887(4) 1.4278(3)
C6C C -0.1887(4) -0.0920(4) 1.5722(3)
C6D C 0.0920(4) -0.0967(6) 1.5722(3)
C6E C 0.0967(6) 0.1887(4) 1.5722(3)
H10A H -0.0673 0.1398 1.4625
H10B H -0.1398 -0.2071 1.4625
H10C H -0.2071 -0.0673 1.5375
H10D H 0.0673 -0.1398 1.5375
H10E H 0.1398 0.2071 1.5375
C7A C -0.2127(4) 0.3398(6) 1.1468(4)
C7B C -0.3398(6) -0.5525(4) 1.1468(4)
C7C C -0.5525(4) -0.2127(4) 1.8532(4)
C7D C 0.2127(4) -0.3398(6) 1.8532(4)
C7E C 0.3398(6) 0.5525(4) 1.8532(4)
H11A H -0.2112 0.3873 1.1648
H11B H -0.3873 -0.5985 1.1648
H11C H -0.5985 -0.2112 1.8352
H11D H 0.2112 -0.3873 1.8352
H11E H 0.3873 0.5985 1.8352
C8A C -0.2392(4) 0.2394(6) 1.0815(4)
C8B C -0.2394(6) -0.4786(4) 1.0815(4)
C8C C -0.4786(4) -0.2392(4) 1.9185(4)
C8D C 0.2392(4) -0.2394(6) 1.9185(4)
C8E C 0.2394(6) 0.4786(4) 1.9185(4)
H12A H -0.2596 0.1992 1.0440
H12B H -0.1992 -0.4588 1.0440
H12C H -0.4588 -0.2596 1.9560
H12D H 0.2596 -0.1992 1.9560
H12E H 0.1992 0.4588 1.9560
C9A C 0.4818(5) 0.4610(7) 0.8667(4)
C9B C 0.5390(7) 0.0208(5) 0.8667(4)
C9A_2 C -0.5182(5) 0.4610(7) 0.8667(4)
C9B_2 C -0.4610(7) 0.0208(5) 0.8667(4)
C9_2 C -0.0208(5) 0.5182(5) 0.8667(4)
H13A H 0.4955 0.5008 0.9071
H13B H 0.4992 -0.0053 0.9071
H13A_2 H -0.5045 0.5008 0.9071
H13B_2 H -0.5008 -0.0053 0.9071
H13_2 H 0.0053 0.5045 0.9071
H14A H 0.4221 0.4291 0.8628
H14B H 0.5709 -0.0070 0.8628
H14A_2 H -0.5779 0.4291 0.8628
H14B_2 H -0.4291 -0.0070 0.8628
H14_2 H 0.0070 0.5779 0.8628
C10A C 0.5164(6) 0.5059(12) 0.7939(6)
C10B C 0.4941(12) 0.0105(10) 0.7939(6)
C10A_2 C -0.4836(6) 0.5059(12) 0.7939(6)
C10B_2 C -0.5059(12) 0.0105(10) 0.7939(6)
C10_2 C -0.0105(10) 0.4836(6) 0.7939(6)
H15A H 0.5398 0.5642 0.8055
H15B H 0.4358 -0.0244 0.8055
H15A_2 H -0.4602 0.5642 0.8055
H15B_2 H -0.5642 -0.0244 0.8055
H15_2 H 0.0244 0.4602 0.8055
H16A H 0.5627 0.4982 0.7818
H16B H 0.5018 0.0645 0.7818
H16A_2 H -0.4373 0.4982 0.7818
H16B_2 H -0.4982 0.0645 0.7818
H16_2 H -0.0645 0.4373 0.7818
C11A C 0.4803(6) 0.4950(13) 0.7388(7)
C11B C 0.5050(13) -0.0147(12) 0.7388(7)
C11A_2 C -0.5197(6) 0.4950(13) 0.7388(7)
C11B_2 C -0.4950(13) -0.0147(12) 0.7388(7)
C11_2 C 0.0147(12) 0.5197(6) 0.7388(7)
H17A H 0.4332 0.5013 0.7510
H17B H 0.4987 -0.0681 0.7510
H17A_2 H -0.5668 0.5013 0.7510
H17B_2 H -0.5013 -0.0681 0.7510
H17_2 H 0.0681 0.5668 0.7510
H18A H 0.4584 0.4373 0.7262
H18B H 0.5627 0.0211 0.7262
H18A_2 H -0.5416 0.4373 0.7262
H18B_2 H -0.4373 0.0211 0.7262
H18_2 H -0.0211 0.5416 0.7262
C12A C 0.5157(6) 0.5420(9) 0.6678(6)
C12B C 0.4580(9) -0.0263(7) 0.6678(6)
C12A_2 C -0.4843(6) 0.5420(9) 0.6678(6)
C12B_2 C -0.5420(9) -0.0263(7) 0.6678(6)
C12_2 C 0.0263(7) 0.4843(6) 0.6678(6)
H19A H 0.5751 0.5756 0.6732
H19B H 0.4244 -0.0005 0.6732
H19A_2 H -0.4249 0.5756 0.6732
H19B_2 H -0.5756 -0.0005 0.6732
H19_2 H 0.0005 0.4249 0.6732
H20A H 0.5046 0.5035 0.6267
H20B H 0.4965 0.0011 0.6267
H20A_2 H -0.4954 0.5035 0.6267
H20B_2 H -0.5035 0.0011 0.6267
H20_2 H -0.0011 0.4954 0.6267
C13A C 0.5301(5) 0.3096(7) 0.8784(5)
C13B C 0.6904(7) 0.2205(5) 0.8784(5)
C13A_2 C -0.4699(5) 0.3096(7) 0.8784(5)
C13B_2 C -0.3096(7) 0.2205(5) 0.8784(5)
C13_2 C -0.2205(5) 0.4699(5) 0.8784(5)
H21A H 0.5268 0.2604 0.8634
H21B H 0.7396 0.2664 0.8634
H21A_2 H -0.4732 0.2604 0.8634
H21B_2 H -0.2604 0.2664 0.8634
H21_2 H -0.2664 0.4732 0.8634
C14A C 0.5656(4) 0.4160(6) 0.9367(3)
C14B C 0.5840(6) 0.1496(4) 0.9367(3)
C14A_2 C -0.4344(4) 0.4160(6) 0.9367(3)
C14B_2 C -0.4160(6) 0.1496(4) 0.9367(3)
C14_2 C -0.1496(4) 0.4344(4) 0.9367(3)
H22A H 0.5903 0.4600 0.9703
H22B H 0.5400 0.1303 0.9703
H22A_2 H -0.4097 0.4600 0.9703
H22B_2 H -0.4600 0.1303 0.9703
H22_2 H -0.1303 0.4097 0.9703
C15A C 0.4555(5) 0.6885(9) 0.6575(5)
C15B C 0.3115(9) -0.2330(7) 0.6575(5)
C15A_2 C -0.5445(5) 0.6885(9) 0.6575(5)
C15B_2 C -0.6885(9) -0.2330(7) 0.6575(5)
C15_2 C 0.2330(7) 0.5445(5) 0.6575(5)
H23A H 0.4507 0.7321 0.6769
H23B H 0.2679 -0.2814 0.6769
H23A_2 H -0.5493 0.7321 0.6769
H23B_2 H -0.7321 -0.2814 0.6769
H23_2 H 0.2814 0.5493 0.6769
C16A C 0.4430(6) 0.5972(8) 0.5886(4)
C16B C 0.4028(8) -0.1542(5) 0.5886(4)
C16A_2 C -0.5570(6) 0.5972(8) 0.5886(4)
C16B_2 C -0.5972(8) -0.1542(5) 0.5886(4)
C16_2 C 0.1542(5) 0.5570(6) 0.5886(4)
H24A H 0.4299 0.5610 0.5482
H24B H 0.4390 -0.1311 0.5482
H24A_2 H -0.5701 0.5610 0.5482
H24B_2 H -0.5610 -0.1311 0.5482
H24_2 H 0.1311 0.5701 0.5482
C17A C 1.2311(5) 0.3736(7) 0.3439(5)
C17B C 1.6264(7) 0.8575(5) 0.3439(5)
C17A_2 C 0.2311(5) 0.3736(7) 0.3439(5)
C17B_2 C 0.6264(7) 0.8575(5) 0.3439(5)
C17_2 C 0.1425(5) 0.7689(5) 0.3439(5)
H25A H 1.1892 0.3412 0.3811
H25B H 1.6588 0.8480 0.3811
H25A_2 H 0.1892 0.3412 0.3811
H25B_2 H 0.6588 0.8480 0.3811
H25_2 H 0.1520 0.8108 0.3811
H26A H 1.2644 0.3479 0.3357
H26B H 1.6521 0.9165 0.3357
H26A_2 H 0.2644 0.3479 0.3357
H26B_2 H 0.6521 0.9165 0.3357
H26_2 H 0.0835 0.7356 0.3357
C18A C 1.1910(4) 0.3745(6) 0.2723(4)
C18B C 1.6255(6) 0.8165(4) 0.2723(4)
C18A_2 C 0.1910(4) 0.3745(6) 0.2723(4)
C18B_2 C 0.6255(6) 0.8165(4) 0.2723(4)
C18_2 C 0.1835(4) 0.8090(4) 0.2723(4)
H27A H 1.2329 0.4072 0.2352
H27B H 1.5928 0.8257 0.2352
H27A_2 H 0.2329 0.4072 0.2352
H27B_2 H 0.5928 0.8257 0.2352
H27_2 H 0.1743 0.7671 0.2352
H28A H 1.1576 0.4001 0.2806
H28B H 1.5999 0.7575 0.2806
H28A_2 H 0.1576 0.4001 0.2806
H28B_2 H 0.5999 0.7575 0.2806
H28_2 H 0.2425 0.8424 0.2806
C19A C 1.1378(4) 0.2889(6) 0.2426(3)
C19B C 1.7111(6) 0.8489(4) 0.2426(3)
C19A_2 C 0.1378(4) 0.2889(6) 0.2426(3)
C19B_2 C 0.7111(6) 0.8489(4) 0.2426(3)
C19_2 C 0.1511(4) 0.8622(4) 0.2426(3)
H29A H 1.1719 0.2644 0.2327
H29B H 1.7356 0.9075 0.2327
H29A_2 H 0.1719 0.2644 0.2327
H29B_2 H 0.7356 0.9075 0.2327
H29_2 H 0.0925 0.8281 0.2327
H30A H 1.0977 0.2559 0.2808
H30B H 1.7441 0.8418 0.2808
H30A_2 H 0.0977 0.2559 0.2808
H30B_2 H 0.7441 0.8418 0.2808
H30_2 H 0.1582 0.9023 0.2808
C20A C 1.0938(4) 0.2870(6) 0.1723(3)
C20B C 1.7130(6) 0.8068(4) 0.1723(3)
C20A_2 C 0.0938(4) 0.2870(6) 0.1723(3)
C20B_2 C 0.7130(6) 0.8068(4) 0.1723(3)
C20_2 C 0.1932(4) 0.9062(4) 0.1723(3)
H31A H 1.0584 0.3101 0.1820
H31B H 1.6899 0.7483 0.1820
H31A_2 H 0.0584 0.3101 0.1820
H31B_2 H 0.6899 0.7483 0.1820
H31_2 H 0.2517 0.9416 0.1820
H32A H 1.1335 0.3204 0.1339
H32B H 1.6796 0.8131 0.1339
H32A_2 H 0.1335 0.3204 0.1339
H32B_2 H 0.6796 0.8131 0.1339
H32_2 H 0.1869 0.8665 0.1339
C21A C 1.3752(5) 0.5765(8) 0.3726(7)
C21B C 1.4235(8) 0.7987(6) 0.3726(7)
C21A_2 C 0.3752(5) 0.5765(8) 0.3726(7)
C21B_2 C 0.4235(8) 0.7987(6) 0.3726(7)
C21_2 C 0.2013(6) 0.6248(5) 0.3726(7)
H33A H 1.4220 0.6260 0.3597
H33B H 1.3740 0.7960 0.3597
H33A_2 H 0.4220 0.6260 0.3597
H33B_2 H 0.3740 0.7960 0.3597
H33_2 H 0.2040 0.5780 0.3597
C22A C 1.2737(5) 0.4906(6) 0.4335(4)
C22B C 1.5094(6) 0.7831(4) 0.4335(4)
C22A_2 C 0.2737(5) 0.4906(6) 0.4335(4)
C22B_2 C 0.5094(6) 0.7831(4) 0.4335(4)
C22_2 C 0.2169(4) 0.7263(5) 0.4335(4)
H34A H 1.2321 0.4643 0.4694
H34B H 1.5357 0.7678 0.4694
H34A_2 H 0.2321 0.4643 0.4694
H34B_2 H 0.5357 0.7678 0.4694
H34_2 H 0.2322 0.7679 0.4694
C23A C 0.9566(4) 0.0827(6) 0.1449(3)
C23B C 1.9173(6) 0.8739(4) 0.1449(3)
C23A_2 C -0.0434(4) 0.0827(6) 0.1449(3)
C23B_2 C 0.9173(6) 0.8739(4) 0.1449(3)
C23_2 C 0.1261(4) 1.0434(4) 0.1449(3)
H35A H 0.9131 0.0314 0.1590
H35B H 1.9686 0.8817 0.1590
H35A_2 H -0.0869 0.0314 0.1590
H35B_2 H 0.9686 0.8817 0.1590
H35_2 H 0.1183 1.0869 0.1590
C24A C 1.0489(4) 0.1733(6) 0.0805(3)
C24B C 1.8267(6) 0.8756(4) 0.0805(3)
C24A_2 C 0.0489(4) 0.1733(6) 0.0805(3)
C24B_2 C 0.8267(6) 0.8756(4) 0.0805(3)
C24_2 C 0.1244(4) 0.9511(4) 0.0805(3)
H36A H 1.0855 0.2028 0.0417
H36B H 1.7972 0.8827 0.0417
H36A_2 H 0.0855 0.2028 0.0417
H36B_2 H 0.7972 0.8827 0.0417
H36_2 H 0.1173 0.9145 0.0417
P1 P 0.69522(12) 0.67031(11) 0.95540(10)
F1 F 0.6170(3) 0.6564(4) 0.9159(4)
F2 F 0.7749(3) 0.6848(4) 0.9944(3)
F3 F 0.7027(4) 0.6128(4) 0.8960(3)
F4 F 0.6417(3) 0.5938(3) 1.0053(3)
F5 F 0.6827(4) 0.7275(4) 1.0096(4)
F6 F 0.7502(3) 0.7475(3) 0.9055(3)
P2 P 0.98397(17) 0.64710(17) 0.54447(14)
F7 F 0.9063(6) 0.6320(6) 0.5009(5)
F8 F 1.0616(4) 0.6607(4) 0.5912(4)
F9 F 0.9259(4) 0.5742(3) 0.5954(3)
F10 F 0.9746(4) 0.7077(4) 0.6009(3)
F11 F 1.0430(5) 0.7236(5) 0.4951(4)
F12 F 0.9947(6) 0.5916(7) 0.4888(6)
loop_
_geom_bond_atom_site_label_1
_geom_bond_atom_site_label_2
_geom_bond_site_symmetry_1
_geom_bond_site_symmetry_2
Cd1 N3 1_555 1_555
Cd2 N6 1_555 1_555
Cd3 N12 1_555 1_555
Cd4 N18 1_555 1_555
P1 F1 1_555 1_555
P2 F7 1_555 1_555
F2 P1 1_555 1_555
F3 P1 1_555 1_555
F4 P1 1_555 1_555
F5 P1 1_555 1_555
F6 P1 1_555 1_555
F8 P2 1_555 1_555
F9 P2 1_555 1_555
F10 P2 1_555 1_555
F11 P2 1_555 1_555
F12 P2 1_555 1_555
N1 N2 1_555 1_555
N2 C5 1_555 1_555
N3 C5 1_555 1_555
N4 N5 1_555 1_555
N5 C7 1_555 1_555
N6 C7 1_555 1_555
N7 N8 1_555 1_555
N8 C13 1_555 1_555
N9 Cd2 1_555 1_555
N10 N11 1_555 1_555
N11 C15 1_555 1_555
N12 C15 1_555 1_555
N13 N14 1_555 1_555
N14 C21 1_555 1_555
N15 Cd3 1_555 1_555
N16 N17 1_555 1_555
N17 C23 1_555 1_555
N18 C23 1_555 1_555
C1 N1 1_555 1_555
H1 C1 1_555 1_555
H2 C1 1_555 1_555
C2 C1 1_555 1_555
H3 C2 1_555 1_555
H4 C2 1_555 1_555
C3 C2 1_555 1_555
H5 C3 1_555 1_555
H6 C3 1_555 1_555
C4 N4 1_555 1_555
H7 C4 1_555 1_555
H8 C4 1_555 1_555
C5 H9 1_555 1_555
C6 N1 1_555 1_555
H10 C6 1_555 1_555
C7 H11 1_555 1_555
C8 N4 1_555 1_555
H12 C8 1_555 1_555
C9 N7 1_555 1_555
H13 C9 1_555 1_555
H14 C9 1_555 1_555
C10 C9 1_555 1_555
H15 C10 1_555 1_555
H16 C10 1_555 1_555
C11 C10 1_555 1_555
H17 C11 1_555 1_555
H18 C11 1_555 1_555
C12 N10 1_555 1_555
H19 C12 1_555 1_555
H20 C12 1_555 1_555
C13 N9 1_555 1_555
H21 C13 1_555 1_555
C14 N7 1_555 1_555
H22 C14 1_555 1_555
C15 H23 1_555 1_555
C16 N10 1_555 1_555
H24 C16 1_555 1_555
C17 N13 1_555 1_555
H25 C17 1_555 1_555
H26 C17 1_555 1_555
C18 C17 1_555 1_555
H27 C18 1_555 1_555
H28 C18 1_555 1_555
C19 C18 1_555 1_555
H29 C19 1_555 1_555
H30 C19 1_555 1_555
C20 N16 1_555 1_555
H31 C20 1_555 1_555
H32 C20 1_555 1_555
C21 N15 1_555 1_555
H33 C21 1_555 1_555
C22 N13 1_555 1_555
H34 C22 1_555 1_555
C23 H35 1_555 1_555
C24 N16 1_555 1_555
H36 C24 1_555 1_555
Cd2A N6A 1_555 1_555
Cd2_2 N6B 1_555 1_555
Cd2C N6C 1_555 1_555
Cd2C_2 N6D 1_555 1_555
Cd2C_3 N6E 1_555 1_555
Cd3A N12A 1_555 1_555
Cd3_2 N12B 1_555 1_555
Cd3_3 N12A_2 1_555 1_555
Cd3_4 N12B_2 1_555 1_555
Cd4_2 N18A 1_555 1_555
Cd4_3 N18B 1_555 1_555
Cd4_4 N18A_2 1_555 1_555
Cd4_5 N18_2 1_555 1_555
N1A N2A 1_555 1_555
N1B N2B 1_555 1_555
N1C N2C 1_555 1_555
N1D N2D 1_555 1_555
N1E N2E 1_555 1_555
N2A C5A 1_555 1_555
N2B C5B 1_555 1_555
N2C C5C 1_555 1_555
N2D C5D 1_555 1_555
N2E C5E 1_555 1_555
N3A Cd1 1_555 1_555
N3B Cd1 1_555 1_555
N3C Cd1 1_555 1_555
N3D Cd1 1_555 1_555
N3E Cd1 1_555 1_555
N4A N5A 1_555 1_555
N4B N5B 1_555 1_555
N4C N5C 1_555 1_555
N4D N5D 1_555 1_555
N4E N5E 1_555 1_555
N5A C7A 1_555 1_555
N5B C7B 1_555 1_555
N5C C7C 1_555 1_555
N5D C7D 1_555 1_555
N5E C7E 1_555 1_555
N6A C7A 1_555 1_555
N6B C7B 1_555 1_555
N6C C7C 1_555 1_555
N6D C7D 1_555 1_555
N6E C7E 1_555 1_555
N6A_2 Cd2 1_555 1_555
N6B_2 Cd2 1_555 1_555
N6_2 Cd2A 1_555 1_555
N6B_3 Cd2A 1_555 1_555
N7A N8A 1_555 1_555
N7B N8B 1_555 1_555
N7A_2 N8A_2 1_555 1_555
N7B_2 N8B_2 1_555 1_555
N7_2 N8_2 1_555 1_555
N8A C13A 1_555 1_555
N8B C13B 1_555 1_555
N8A_2 C13A_2 1_555 1_555
N8B_2 C13B_2 1_555 1_555
N8_2 C13_2 1_555 1_555
N9A Cd2 1_555 1_555
N9B Cd2 1_555 1_555
N9A_2 Cd2A 1_555 1_555
N9B_2 Cd2A 1_555 1_555
N9_2 Cd2A 1_555 1_555
N10A N11A 1_555 1_555
N10B N11B 1_555 1_555
N10A_2 N11A_2 1_555 1_555
N10B_2 N11B_2 1_555 1_555
N10_2 N11_2 1_555 1_555
N11A C15A 1_555 1_555
N11B C15B 1_555 1_555
N11A_2 C15A_2 1_555 1_555
N11B_2 C15B_2 1_555 1_555
N11_2 C15_2 1_555 1_555
N12A C15A 1_555 1_555
N12B C15B 1_555 1_555
N12A_2 C15A_2 1_555 1_555
N12B_2 C15B_2 1_555 1_555
N12_2 Cd3A 1_555 1_555
N12A_3 Cd3 1_555 1_555
N12B_3 Cd3 1_555 1_555
N12B_4 Cd3A 1_555 1_555
N13A N14A 1_555 1_555
N13B N14B 1_555 1_555
N13A_2 N14A_2 1_555 1_555
N13B_2 N14B_2 1_555 1_555
N13_2 N14_2 1_555 1_555
N14A C21A 1_555 1_555
N14B C21B 1_555 1_555
N14A_2 C21A_2 1_555 1_555
N14B_2 C21B_2 1_555 1_555
N14_2 C21_2 1_555 1_555
N15A Cd3 1_555 1_555
N15B Cd3 1_555 1_555
N15A_2 Cd3A 1_555 1_555
N15B_2 Cd3A 1_555 1_555
N15_2 Cd3A 1_555 1_555
N16A N17A 1_555 1_555
N16B N17B 1_555 1_555
N16A_2 N17A_2 1_555 1_555
N16B_2 N17B_2 1_555 1_555
N16_2 N17_2 1_555 1_555
N17A C23A 1_555 1_555
N17B C23B 1_555 1_555
N17A_2 C23A_2 1_555 1_555
N17B_2 C23B_2 1_555 1_555
N17_2 C23_2 1_555 1_555
N18A C23A 1_555 1_555
N18B C23B 1_555 1_555
N18A_2 C23A_2 1_555 1_555
N18B_2 Cd4 1_555 1_555
N18_2 C23_2 1_555 1_555
N18A_3 Cd4 1_555 1_555
N18C Cd4 1_555 1_555
N18D Cd4 1_555 1_555
N18E Cd4 1_555 1_555
C1A N1A 1_555 1_555
C1B N1B 1_555 1_555
C1C N1C 1_555 1_555
C1D N1D 1_555 1_555
C1E N1E 1_555 1_555
H1A C1A 1_555 1_555
H1B C1B 1_555 1_555
H1C C1C 1_555 1_555
H1D C1D 1_555 1_555
H1E C1E 1_555 1_555
H2A C1A 1_555 1_555
H2B C1B 1_555 1_555
H2C C1C 1_555 1_555
H2D C1D 1_555 1_555
H2E C1E 1_555 1_555
C2A C1A 1_555 1_555
C2B C1B 1_555 1_555
C2C C1C 1_555 1_555
C2D C1D 1_555 1_555
C2E C1E 1_555 1_555
H3A C2A 1_555 1_555
H3B C2B 1_555 1_555
H3C C2C 1_555 1_555
H3D C2D 1_555 1_555
H3E C2E 1_555 1_555
H4A C2A 1_555 1_555
H4B C2B 1_555 1_555
H4C C2C 1_555 1_555
H4D C2D 1_555 1_555
H4E C2E 1_555 1_555
C3A C2A 1_555 1_555
C3B C2B 1_555 1_555
C3C C2C 1_555 1_555
C3D C2D 1_555 1_555
C3E C2E 1_555 1_555
H5A C3A 1_555 1_555
H5B C3B 1_555 1_555
H5C C3C 1_555 1_555
H5D C3D 1_555 1_555
H5E C3E 1_555 1_555
H6A C3A 1_555 1_555
H6B C3B 1_555 1_555
H6C C3C 1_555 1_555
H6D C3D 1_555 1_555
H6E C3E 1_555 1_555
C4A N4A 1_555 1_555
C4B N4B 1_555 1_555
C4C N4C 1_555 1_555
C4D N4D 1_555 1_555
C4E N4E 1_555 1_555
H7A C4A 1_555 1_555
H7B C4B 1_555 1_555
H7C C4C 1_555 1_555
H7D C4D 1_555 1_555
H7E C4E 1_555 1_555
H8A C4A 1_555 1_555
H8B C4B 1_555 1_555
H8C C4C 1_555 1_555
H8D C4D 1_555 1_555
H8E C4E 1_555 1_555
C5A N3A 1_555 1_555
C5B N3B 1_555 1_555
C5C N3C 1_555 1_555
C5D N3D 1_555 1_555
C5E N3E 1_555 1_555
H9A C5A 1_555 1_555
H9B C5B 1_555 1_555
H9C C5C 1_555 1_555
H9D C5D 1_555 1_555
H9E C5E 1_555 1_555
C6A N1A 1_555 1_555
C6B N1B 1_555 1_555
C6C N1C 1_555 1_555
C6D N1D 1_555 1_555
C6E N1E 1_555 1_555
H10A C6A 1_555 1_555
H10B C6B 1_555 1_555
H10C C6C 1_555 1_555
H10D C6D 1_555 1_555
H10E C6E 1_555 1_555
C7A H11A 1_555 1_555
C7B H11B 1_555 1_555
C7C H11C 1_555 1_555
C7D H11D 1_555 1_555
C7E H11E 1_555 1_555
C8A N4A 1_555 1_555
C8B N4B 1_555 1_555
C8C N4C 1_555 1_555
C8D N4D 1_555 1_555
C8E N4E 1_555 1_555
H12A C8A 1_555 1_555
H12B C8B 1_555 1_555
H12C C8C 1_555 1_555
H12D C8D 1_555 1_555
H12E C8E 1_555 1_555
C9A N7A 1_555 1_555
C9B N7B 1_555 1_555
C9A_2 N7A_2 1_555 1_555
C9B_2 N7B_2 1_555 1_555
C9_2 N7_2 1_555 1_555
H13A C9A 1_555 1_555
H13B C9B 1_555 1_555
H13A_2 C9A_2 1_555 1_555
H13B_2 C9B_2 1_555 1_555
H13_2 C9_2 1_555 1_555
H14A C9A 1_555 1_555
H14B C9B 1_555 1_555
H14A_2 C9A_2 1_555 1_555
H14B_2 C9B_2 1_555 1_555
H14_2 C9_2 1_555 1_555
C10A C9A 1_555 1_555
C10B C9B 1_555 1_555
C10A_2 C9A_2 1_555 1_555
C10B_2 C9B_2 1_555 1_555
C10_2 C9_2 1_555 1_555
H15A C10A 1_555 1_555
H15B C10B 1_555 1_555
H15A_2 C10A_2 1_555 1_555
H15B_2 C10B_2 1_555 1_555
H15_2 C10_2 1_555 1_555
H16A C10A 1_555 1_555
H16B C10B 1_555 1_555
H16A_2 C10A_2 1_555 1_555
H16B_2 C10B_2 1_555 1_555
H16_2 C10_2 1_555 1_555
C11A C10A 1_555 1_555
C11B C10B 1_555 1_555
C11A_2 C10A_2 1_555 1_555
C11B_2 C10B_2 1_555 1_555
C11_2 C10_2 1_555 1_555
H17A C11A 1_555 1_555
H17B C11B 1_555 1_555
H17A_2 C11A_2 1_555 1_555
H17B_2 C11B_2 1_555 1_555
H17_2 C11_2 1_555 1_555
H18A C11A 1_555 1_555
H18B C11B 1_555 1_555
H18A_2 C11A_2 1_555 1_555
H18B_2 C11B_2 1_555 1_555
H18_2 C11_2 1_555 1_555
C12A N10A 1_555 1_555
C12B N10B 1_555 1_555
C12A_2 N10A_2 1_555 1_555
C12B_2 N10B_2 1_555 1_555
C12_2 N10_2 1_555 1_555
H19A C12A 1_555 1_555
H19B C12B 1_555 1_555
H19A_2 C12A_2 1_555 1_555
H19B_2 C12B_2 1_555 1_555
H19_2 C12_2 1_555 1_555
H20A C12A 1_555 1_555
H20B C12B 1_555 1_555
H20A_2 C12A_2 1_555 1_555
H20B_2 C12B_2 1_555 1_555
H20_2 C12_2 1_555 1_555
C13A N9A 1_555 1_555
C13B N9B 1_555 1_555
C13A_2 N9A_2 1_555 1_555
C13B_2 N9B_2 1_555 1_555
C13_2 N9_2 1_555 1_555
H21A C13A 1_555 1_555
H21B C13B 1_555 1_555
H21A_2 C13A_2 1_555 1_555
H21B_2 C13B_2 1_555 1_555
H21_2 C13_2 1_555 1_555
C14A N7A 1_555 1_555
C14B N7B 1_555 1_555
C14A_2 N7A_2 1_555 1_555
C14B_2 N7B_2 1_555 1_555
C14_2 N7_2 1_555 1_555
H22A C14A 1_555 1_555
H22B C14B 1_555 1_555
H22A_2 C14A_2 1_555 1_555
H22B_2 C14B_2 1_555 1_555
H22_2 C14_2 1_555 1_555
C15A H23A 1_555 1_555
C15B H23B 1_555 1_555
C15A_2 H23A_2 1_555 1_555
C15B_2 H23B_2 1_555 1_555
C15_2 N12_2 1_555 1_555
H23_2 C15_2 1_555 1_555
C16A N10A 1_555 1_555
C16B N10B 1_555 1_555
C16A_2 N10A_2 1_555 1_555
C16B_2 N10B_2 1_555 1_555
C16_2 N10_2 1_555 1_555
H24A C16A 1_555 1_555
H24B C16B 1_555 1_555
H24A_2 C16A_2 1_555 1_555
H24B_2 C16B_2 1_555 1_555
H24_2 C16_2 1_555 1_555
C17A N13A 1_555 1_555
C17B N13B 1_555 1_555
C17A_2 N13A_2 1_555 1_555
C17B_2 N13B_2 1_555 1_555
C17_2 N13_2 1_555 1_555
H25A C17A 1_555 1_555
H25B C17B 1_555 1_555
H25A_2 C17A_2 1_555 1_555
H25B_2 C17B_2 1_555 1_555
H25_2 C17_2 1_555 1_555
H26A C17A 1_555 1_555
H26B C17B 1_555 1_555
H26A_2 C17A_2 1_555 1_555
H26B_2 C17B_2 1_555 1_555
H26_2 C17_2 1_555 1_555
C18A C17A 1_555 1_555
C18B C17B 1_555 1_555
C18A_2 C17A_2 1_555 1_555
C18B_2 C17B_2 1_555 1_555
C18_2 C17_2 1_555 1_555
H27A C18A 1_555 1_555
H27B C18B 1_555 1_555
H27A_2 C18A_2 1_555 1_555
H27B_2 C18B_2 1_555 1_555
H27_2 C18_2 1_555 1_555
H28A C18A 1_555 1_555
H28B C18B 1_555 1_555
H28A_2 C18A_2 1_555 1_555
H28B_2 C18B_2 1_555 1_555
H28_2 C18_2 1_555 1_555
C19A C18A 1_555 1_555
C19B C18B 1_555 1_555
C19A_2 C18A_2 1_555 1_555
C19B_2 C18B_2 1_555 1_555
C19_2 C18_2 1_555 1_555
H29A C19A 1_555 1_555
H29B C19B 1_555 1_555
H29A_2 C19A_2 1_555 1_555
H29B_2 C19B_2 1_555 1_555
H29_2 C19_2 1_555 1_555
H30A C19A 1_555 1_555
H30B C19B 1_555 1_555
H30A_2 C19A_2 1_555 1_555
H30B_2 C19B_2 1_555 1_555
H30_2 C19_2 1_555 1_555
C20A N16A 1_555 1_555
C20B N16B 1_555 1_555
C20A_2 N16A_2 1_555 1_555
C20B_2 N16B_2 1_555 1_555
C20_2 N16_2 1_555 1_555
H31A C20A 1_555 1_555
H31B C20B 1_555 1_555
H31A_2 C20A_2 1_555 1_555
H31B_2 C20B_2 1_555 1_555
H31_2 C20_2 1_555 1_555
H32A C20A 1_555 1_555
H32B C20B 1_555 1_555
H32A_2 C20A_2 1_555 1_555
H32B_2 C20B_2 1_555 1_555
H32_2 C20_2 1_555 1_555
C21A N15A 1_555 1_555
C21B N15B 1_555 1_555
C21A_2 N15A_2 1_555 1_555
C21B_2 N15B_2 1_555 1_555
C21_2 N15_2 1_555 1_555
H33A C21A 1_555 1_555
H33B C21B 1_555 1_555
H33A_2 C21A_2 1_555 1_555
H33B_2 C21B_2 1_555 1_555
H33_2 C21_2 1_555 1_555
C22A N13A 1_555 1_555
C22B N13B 1_555 1_555
C22A_2 N13A_2 1_555 1_555
C22B_2 N13B_2 1_555 1_555
C22_2 N13_2 1_555 1_555
H34A C22A 1_555 1_555
H34B C22B 1_555 1_555
H34A_2 C22A_2 1_555 1_555
H34B_2 C22B_2 1_555 1_555
H34_2 C22_2 1_555 1_555
C23A H35A 1_555 1_555
C23B H35B 1_555 1_555
C23A_2 H35A_2 1_555 1_555
C23B_2 N18B_2 1_555 1_555
C23_2 H35_2 1_555 1_555
H35B_2 C23B_2 1_555 1_555
C24A N16A 1_555 1_555
C24B N16B 1_555 1_555
C24A_2 N16A_2 1_555 1_555
C24B_2 N16B_2 1_555 1_555
C24_2 N16_2 1_555 1_555
H36A C24A 1_555 1_555
H36B C24B 1_555 1_555
H36A_2 C24A_2 1_555 1_555
H36B_2 C24B_2 1_555 1_555
H36_2 C24_2 1_555 1_555
N3 C6 1_555 1_555
N6 C8 1_555 1_555
N9 C14 1_555 1_555
N12 C16 1_555 1_555
N15 C22 1_555 1_555
N18 C24 1_555 1_555
C3 C4 1_555 1_555
C11 C12 1_555 1_555
C19 C20 1_555 1_555
N3A C6A 1_555 1_555
N3B C6B 1_555 1_555
N3C C6C 1_555 1_555
N3D C6D 1_555 1_555
N3E C6E 1_555 1_555
N6A C8A 1_555 1_555
N6B C8B 1_555 1_555
N6C C8C 1_555 1_555
N6D C8D 1_555 1_555
N6E C8E 1_555 1_555
N9A C14A 1_555 1_555
N9B C14B 1_555 1_555
N9A_2 C14A_2 1_555 1_555
N9B_2 C14B_2 1_555 1_555
N9_2 C14_2 1_555 1_555
N12A C16A 1_555 1_555
N12B C16B 1_555 1_555
N12A_2 C16A_2 1_555 1_555
N12B_2 C16B_2 1_555 1_555
N12_2 C16_2 1_555 1_555
N15A C22A 1_555 1_555
N15B C22B 1_555 1_555
N15A_2 C22A_2 1_555 1_555
N15B_2 C22B_2 1_555 1_555
N15_2 C22_2 1_555 1_555
N18A C24A 1_555 1_555
N18B C24B 1_555 1_555
N18A_2 C24A_2 1_555 1_555
N18B_2 C24B_2 1_555 1_555
N18_2 C24_2 1_555 1_555
C3A C4A 1_555 1_555
C3B C4B 1_555 1_555
C3C C4C 1_555 1_555
C3D C4D 1_555 1_555
C3E C4E 1_555 1_555
C11A C12A 1_555 1_555
C11B C12B 1_555 1_555
C11A_2 C12A_2 1_555 1_555
C11B_2 C12B_2 1_555 1_555
C11_2 C12_2 1_555 1_555
C19A C20A 1_555 1_555
C19B C20B 1_555 1_555
C19A_2 C20A_2 1_555 1_555
C19B_2 C20B_2 1_555 1_555
C19_2 C20_2 1_555 1_555

#END
