
#######################################################################
#
#                 Cambridge Crystallographic Data Centre
#                                CCDC 
#
#######################################################################
#
# If this CIF has been generated from an entry in the Cambridge 
# Structural Database, then it will include bibliographic, chemical, 
# crystal, experimental, refinement or atomic coordinate data resulting 
# from the CCDC's data processing and validation procedures.
#
#######################################################################

data_QOGRAG
_symmetry_cell_setting           monoclinic
_symmetry_space_group_name_H-M   'P 21/c'
_symmetry_Int_Tables_number      14
_space_group_name_Hall           '-P 2ybc'
loop_
_symmetry_equiv_pos_site_id
_symmetry_equiv_pos_as_xyz
1 x,y,z
2 -x,1/2+y,1/2-z
3 -x,-y,-z
4 x,1/2-y,1/2+z
_cell_length_a                   9.661(3)
_cell_length_b                   8.391(2)
_cell_length_c                   10.197(3)
_cell_angle_alpha                90
_cell_angle_beta                 106.174(6)
_cell_angle_gamma                90
_cell_volume                     793.907
loop_
_atom_site_label
_atom_site_type_symbol
_atom_site_fract_x
_atom_site_fract_y
_atom_site_fract_z
Cd1 Cd 0.0000 0.5000 0.5000
O1 O 0.08246(17) 0.5563(2) 0.73609(16)
H1 H 0.089(3) 0.475(4) 0.781(3)
H2 H 0.037(3) 0.615(4) 0.761(3)
O2 O 0.08814(18) 0.24574(18) 0.61801(16)
O3 O 0.1630(2) 0.01864(17) 0.56276(19)
O4 O 0.10594(16) 0.20835(18) 0.41471(14)
N1 N 0.42283(17) 0.70382(19) 0.53323(16)
N2 N 0.39927(19) 0.6458(2) 0.40378(17)
N3 N 0.21637(17) 0.58325(19) 0.48926(16)
N4 N 0.11965(17) 0.15542(19) 0.53203(16)
C1 C 0.5256(3) 0.9763(2) 0.5751(3)
H3 H 0.6164 1.0334 0.6187
H4 H 0.4527 1.0108 0.6209
C2 C 0.5508(2) 0.7988(3) 0.5974(2)
H5 H 0.6304 0.7659 0.5597
H6 H 0.5808 0.7767 0.6967
C3 C 0.2736(2) 0.5744(2) 0.3825(2)
H7 H 0.2272 0.5214 0.2995
C4 C 0.3130(2) 0.6663(2) 0.58166(19)
H8 H 0.3049 0.6947 0.6694
Cd1_2 Cd 1.0000 1.5000 0.5000
O1B O -0.08246(17) 0.4437(2) 0.26391(16)
H1B H -0.089(3) 0.525(4) 0.219(3)
H2B H -0.037(3) 0.385(4) 0.239(3)
O2B O -0.08814(18) 0.75426(18) 0.38199(16)
O3B O -0.1630(2) 0.98136(17) 0.43724(19)
O4B O -0.10594(16) 0.79165(18) 0.58529(14)
N1B N 0.57717(17) 1.29618(19) 0.46677(16)
N2B N 0.60073(19) 1.3542(2) 0.59622(17)
N3B N 0.78363(17) 1.41675(19) 0.51074(16)
N3B_2 N -0.21637(17) 0.41675(19) 0.51074(16)
N4B N -0.11965(17) 0.84458(19) 0.46797(16)
C1B C 0.4744(3) 1.0237(2) 0.4249(3)
H3B H 0.3836 0.9666 0.3813
H4B H 0.5473 0.9892 0.3791
C2B C 0.4492(2) 1.2012(3) 0.4026(2)
H5B H 0.3696 1.2341 0.4403
H6B H 0.4192 1.2233 0.3033
C3B C 0.7264(2) 1.4256(2) 0.6175(2)
H7B H 0.7728 1.4786 0.7005
C4B C 0.6870(2) 1.3337(2) 0.41834(19)
H8B H 0.6951 1.3053 0.3306
loop_
_geom_bond_atom_site_label_1
_geom_bond_atom_site_label_2
_geom_bond_site_symmetry_1
_geom_bond_site_symmetry_2
Cd1 O1 1_555 1_555
O1 H1 1_555 1_555
H2 O1 1_555 1_555
O2 Cd1 1_555 1_555
O3 N4 1_555 1_555
O4 N4 1_555 1_555
N1 N2 1_555 1_555
N2 C3 1_555 1_555
N3 Cd1 1_555 1_555
N4 O2 1_555 1_555
C1 H3 1_555 1_555
H4 C1 1_555 1_555
C2 N1 1_555 1_555
H5 C2 1_555 1_555
H6 C2 1_555 1_555
C3 N3 1_555 1_555
H7 C3 1_555 1_555
C4 N1 1_555 1_555
H8 C4 1_555 1_555
Cd1_2 N3B 1_555 1_555
O1B Cd1 1_555 1_555
H1B O1B 1_555 1_555
H2B O1B 1_555 1_555
O2B Cd1 1_555 1_555
O3B N4B 1_555 1_555
O4B N4B 1_555 1_555
N1B N2B 1_555 1_555
N2B C3B 1_555 1_555
N3B C3B 1_555 1_555
N3B_2 Cd1 1_555 1_555
N4B O2B 1_555 1_555
C1B C1 1_555 1_555
H3B C1B 1_555 1_555
H4B C1B 1_555 1_555
C2B N1B 1_555 1_555
H5B C2B 1_555 1_555
H6B C2B 1_555 1_555
C3B H7B 1_555 1_555
C4B N1B 1_555 1_555
H8B C4B 1_555 1_555
N3 C4 1_555 1_555
C1 C2 1_555 1_555
N3B C4B 1_555 1_555
C1B C2B 1_555 1_555

#END
