
#######################################################################
#
#                 Cambridge Crystallographic Data Centre
#                                CCDC 
#
#######################################################################
#
# If this CIF has been generated from an entry in the Cambridge 
# Structural Database, then it will include bibliographic, chemical, 
# crystal, experimental, refinement or atomic coordinate data resulting 
# from the CCDC's data processing and validation procedures.
#
#######################################################################

data_QOGTIQ
_symmetry_cell_setting           monoclinic
_symmetry_space_group_name_H-M   'P 21/n'
_symmetry_Int_Tables_number      14
_space_group_name_Hall           '-P 2yn'
loop_
_symmetry_equiv_pos_site_id
_symmetry_equiv_pos_as_xyz
1 x,y,z
2 1/2-x,1/2+y,1/2-z
3 -x,-y,-z
4 1/2+x,1/2-y,1/2+z
_cell_length_a                   9.271(2)
_cell_length_b                   7.7355(16)
_cell_length_c                   11.967(3)
_cell_angle_alpha                90
_cell_angle_beta                 102.693(3)
_cell_angle_gamma                90
_cell_volume                     837.249
loop_
_atom_site_label
_atom_site_type_symbol
_atom_site_fract_x
_atom_site_fract_y
_atom_site_fract_z
Cu1 Cu 0.25324(15) -0.48096(15) 0.55131(11)
O1 O 0.1453(9) -0.5227(9) 0.3338(7)
N1 N 0.4246(9) -0.5051(8) 0.4717(7)
N2 N 0.1923(10) -0.2582(11) 0.5886(7)
N3 N 0.1860(10) 0.3026(11) 0.5954(8)
N4 N 0.1012(12) 0.0172(10) 0.6462(10)
C1 C 0.0257(14) -0.5476(17) 0.2456(10)
H1 H -0.0724 -0.5371 0.2514
C2 C 0.0695(12) -0.5890(17) 0.1499(10)
H2 H 0.0083 -0.6126 0.0789
C3 C 0.2235(12) -0.5904(17) 0.1757(10)
H3 H 0.2846 -0.6138 0.1255
C4 C 0.2665(11) -0.5510(14) 0.2881(9)
C5 C 0.4072(12) -0.5377(13) 0.3629(9)
H4 H 0.4908 -0.5530 0.3331
C6 C 0.1515(12) -0.1247(13) 0.6131(9)
C7 C 0.1498(11) 0.1639(14) 0.6164(9)
Cu1B Cu 0.74676(15) -0.51904(15) 0.44869(11)
Cu1_2 Cu 0.25324(15) 0.51904(15) 0.55131(11)
Cu1_3 Cu 0.25324(15) -1.48096(15) 0.55131(11)
O1B O 0.8547(9) -0.4773(9) 0.6662(7)
N1B N 0.5754(9) -0.4949(8) 0.5283(7)
N2_2 N 0.1923(10) -1.2582(11) 0.5886(7)
N2B N 0.8077(10) -0.7418(11) 0.4114(7)
N3_2 N 0.1860(10) -0.6974(11) 0.5954(8)
N3B N 0.8140(10) -0.3026(11) 0.4046(8)
N4_2 N 0.1012(12) -0.9828(10) 0.6462(10)
C1B C 0.9743(14) -0.4524(17) 0.7544(10)
H1B H 1.0724 -0.4629 0.7486
C2B C 0.9305(12) -0.4110(17) 0.8501(10)
H2B H 0.9917 -0.3874 0.9211
C3B C 0.7765(12) -0.4096(17) 0.8243(10)
H3B H 0.7154 -0.3862 0.8745
C4B C 0.7335(11) -0.4490(14) 0.7119(9)
C5B C 0.5928(12) -0.4623(13) 0.6371(9)
H4B H 0.5092 -0.4470 0.6669
C6_2 C 0.1515(12) -1.1247(13) 0.6131(9)
C7_2 C 0.1498(11) -0.8361(14) 0.6164(9)
loop_
_geom_bond_atom_site_label_1
_geom_bond_atom_site_label_2
_geom_bond_site_symmetry_1
_geom_bond_site_symmetry_2
Cu1 O1 1_555 1_555
O1 C1 1_555 1_555
N1 Cu1 1_555 1_555
N2 Cu1 1_555 1_555
N3 C7 1_555 1_555
N4 C6 1_555 1_555
C1 H1 1_555 1_555
C2 C1 1_555 1_555
H2 C2 1_555 1_555
C3 C2 1_555 1_555
H3 C3 1_555 1_555
C4 O1 1_555 1_555
C5 N1 1_555 1_555
H4 C5 1_555 1_555
C6 N2 1_555 1_555
C7 N4 1_555 1_555
Cu1B O1B 1_555 1_555
Cu1_2 N3 1_555 1_555
Cu1_3 N2_2 1_555 1_555
O1B C1B 1_555 1_555
N1B N1 1_555 1_555
N2_2 C6_2 1_555 1_555
N2B Cu1B 1_555 1_555
N3_2 Cu1 1_555 1_555
N3B Cu1B 1_555 1_555
N4_2 C6_2 1_555 1_555
C1B H1B 1_555 1_555
C2B C1B 1_555 1_555
H2B C2B 1_555 1_555
C3B C2B 1_555 1_555
H3B C3B 1_555 1_555
C4B O1B 1_555 1_555
C5B N1B 1_555 1_555
H4B C5B 1_555 1_555
C7_2 N3_2 1_555 1_555
C3 C4 1_555 1_555
C4 C5 1_555 1_555
Cu1B N1B 1_555 1_555
N4_2 C7_2 1_555 1_555
C3B C4B 1_555 1_555
C4B C5B 1_555 1_555

#END
