
#######################################################################
#
#                 Cambridge Crystallographic Data Centre
#                                CCDC 
#
#######################################################################
#
# If this CIF has been generated from an entry in the Cambridge 
# Structural Database, then it will include bibliographic, chemical, 
# crystal, experimental, refinement or atomic coordinate data resulting 
# from the CCDC's data processing and validation procedures.
#
#######################################################################

data_QOGTOW
_symmetry_cell_setting           monoclinic
_symmetry_space_group_name_H-M   'P 21/c'
_symmetry_Int_Tables_number      14
_space_group_name_Hall           '-P 2ybc'
loop_
_symmetry_equiv_pos_site_id
_symmetry_equiv_pos_as_xyz
1 x,y,z
2 -x,1/2+y,1/2-z
3 -x,-y,-z
4 x,1/2-y,1/2+z
_cell_length_a                   11.1107(2)
_cell_length_b                   13.7639(2)
_cell_length_c                   12.1457(4)
_cell_angle_alpha                90
_cell_angle_beta                 108.695(1)
_cell_angle_gamma                90
_cell_volume                     1759.4
loop_
_atom_site_label
_atom_site_type_symbol
_atom_site_fract_x
_atom_site_fract_y
_atom_site_fract_z
Cd1 Cd 0.166308(13) 0.546462(9) 0.568129(11)
O1 O 0.11483(15) 0.70396(9) 0.52387(11)
O2 O -0.00444(13) 0.98279(9) 0.88078(10)
O3 O 0.00594(17) 1.08905(9) 0.74527(12)
O4 O 0.28497(17) 0.62045(13) 0.74100(15)
O5 O 0.2844(2) 0.47410(17) 0.7908(2)
O6 O 0.3616(3) 0.5830(3) 0.92113(19)
N1 N 0.06134(15) 0.75955(10) 0.67831(12)
H1 H 0.0518 0.7005 0.6973
N2 N 0.23433(16) 0.39279(12) 0.53420(15)
N3 N 0.30174(16) 0.56193(12) 0.45418(15)
N4 N 0.3104(2) 0.55848(16) 0.82138(18)
C1 C 0.03778(17) 0.83134(12) 0.74421(14)
H2 H 0.0133 0.8158 0.8085
C2 C 0.04930(16) 0.92585(12) 0.71789(14)
C3 C 0.09036(18) 0.94608(11) 0.62203(15)
H3 H 0.1004 1.0103 0.6029
C4 C 0.1156(2) 0.87315(12) 0.55687(15)
H4 H 0.1438 0.8881 0.4946
C5 C 0.09934(17) 0.77469(12) 0.58336(14)
C6 C 0.01486(17) 1.00637(12) 0.78552(14)
C7 C 0.33317(18) 0.64447(18) 0.41363(19)
H5 H 0.3120 0.7029 0.4411
C8 C 0.3969(2) 0.6469(2) 0.3314(2)
H6 H 0.4171 0.7060 0.3046
C9 C 0.4288(2) 0.5621(2) 0.2912(2)
H7 H 0.4709 0.5628 0.2363
C10 C 0.3984(2) 0.4739(2) 0.3322(2)
C11 C 0.4300(2) 0.3808(3) 0.2948(2)
H8 H 0.4729 0.3781 0.2405
C12 C 0.3988(3) 0.2984(2) 0.3366(3)
H9 H 0.4216 0.2395 0.3115
C13 C 0.3317(2) 0.29822(18) 0.4187(2)
C14 C 0.2966(3) 0.21338(17) 0.4642(3)
H10 H 0.3174 0.1529 0.4414
C15 C 0.2325(3) 0.21990(17) 0.5414(3)
H11 H 0.2079 0.1639 0.5713
C16 C 0.2034(2) 0.31088(16) 0.5759(2)
H12 H 0.1606 0.3144 0.6302
C17 C 0.29822(18) 0.38783(14) 0.45679(17)
C18 C 0.33325(16) 0.47714(17) 0.41368(16)
Cd1C Cd 0.166308(13) 0.953538(9) 1.068129(11)
Cd1A Cd -0.166308(13) 1.046462(9) 0.931871(11)
O2C O -0.00444(13) 0.51721(9) 0.38078(10)
O2A O 0.00444(13) 0.48279(9) 0.61922(10)
loop_
_geom_bond_atom_site_label_1
_geom_bond_atom_site_label_2
_geom_bond_site_symmetry_1
_geom_bond_site_symmetry_2
Cd1 O1 1_555 1_555
O1 C5 1_555 1_555
O2 C6 1_555 1_555
O3 C6 1_555 1_555
O4 Cd1 1_555 1_555
O5 N4 1_555 1_555
O6 N4 1_555 1_555
N1 H1 1_555 1_555
N2 Cd1 1_555 1_555
N3 Cd1 1_555 1_555
N4 O4 1_555 1_555
C1 N1 1_555 1_555
H2 C1 1_555 1_555
C2 C1 1_555 1_555
C3 C2 1_555 1_555
H3 C3 1_555 1_555
C4 C3 1_555 1_555
H4 C4 1_555 1_555
C5 N1 1_555 1_555
C6 C2 1_555 1_555
C7 N3 1_555 1_555
H5 C7 1_555 1_555
C8 C7 1_555 1_555
H6 C8 1_555 1_555
C9 C8 1_555 1_555
H7 C9 1_555 1_555
C10 C9 1_555 1_555
C11 C10 1_555 1_555
H8 C11 1_555 1_555
C12 C11 1_555 1_555
H9 C12 1_555 1_555
C13 C12 1_555 1_555
C14 C13 1_555 1_555
H10 C14 1_555 1_555
C15 C14 1_555 1_555
H11 C15 1_555 1_555
C16 N2 1_555 1_555
H12 C16 1_555 1_555
C17 N2 1_555 1_555
C18 N3 1_555 1_555
Cd1C O2 1_555 1_555
Cd1A O2 1_555 1_555
O2C Cd1 1_555 1_555
O2A Cd1 1_555 1_555
C4 C5 1_555 1_555
C10 C18 1_555 1_555
C13 C17 1_555 1_555
C15 C16 1_555 1_555
C17 C18 1_555 1_555

#END
