
#######################################################################
#
#                 Cambridge Crystallographic Data Centre
#                                CCDC 
#
#######################################################################
#
# If this CIF has been generated from an entry in the Cambridge 
# Structural Database, then it will include bibliographic, chemical, 
# crystal, experimental, refinement or atomic coordinate data resulting 
# from the CCDC's data processing and validation procedures.
#
#######################################################################

data_QOGVUE
_symmetry_cell_setting           orthorhombic
_symmetry_space_group_name_H-M   'P c a 21'
_symmetry_Int_Tables_number      29
_space_group_name_Hall           'P 2c -2ac'
loop_
_symmetry_equiv_pos_site_id
_symmetry_equiv_pos_as_xyz
1 x,y,z
2 -x,-y,1/2+z
3 1/2+x,-y,z
4 1/2-x,y,1/2+z
_cell_length_a                   13.382(4)
_cell_length_b                   8.527(2)
_cell_length_c                   9.622(3)
_cell_angle_alpha                90
_cell_angle_beta                 90
_cell_angle_gamma                90
_cell_volume                     1097.95
loop_
_atom_site_label
_atom_site_type_symbol
_atom_site_fract_x
_atom_site_fract_y
_atom_site_fract_z
Mo1 Mo 0.880828(19) 0.13354(4) 0.17883(4)
Cu1 Cu 0.62779(3) -0.00081(6) 0.25410(8)
O1 O 0.8767(2) 0.3377(4) 0.2037(6)
O2 O 0.7714(2) 0.0489(4) 0.2480(4)
O3 O 0.9843(2) 0.0529(3) 0.2701(4)
O4 O 0.8902(3) 0.0933(5) 0.0026(5)
O5 O 0.6284(3) -0.1078(5) 0.0034(5)
H1 H 0.6529 -0.0635 -0.0680
H2 H 0.5651 -0.1011 -0.0008
C1 C 0.5257(4) 0.3038(6) 0.2390(6)
H3 H 0.4863 0.2771 0.3150
C2 C 0.5197(3) 0.4399(4) 0.1734(7)
H4 H 0.4774 0.5231 0.1946
C3 C 0.6329(3) 0.2923(6) 0.0753(6)
H5 H 0.6825 0.2561 0.0157
C4 C 0.6257(3) -0.3001(6) 0.4185(6)
H6 H 0.5767 -0.2678 0.4807
C5 C 0.7387(3) -0.4437(4) 0.3158(5)
H7 H 0.7820 -0.5251 0.2932
C6 C 0.7315(4) -0.3041(5) 0.2515(6)
H8 H 0.7691 -0.2750 0.1743
N1 N 0.5932(2) 0.2107(4) 0.1851(7)
N2 N 0.5883(4) 0.4335(5) 0.0681(7)
H9 H 0.6006 0.5061 0.0085
N3 N 0.6636(3) -0.2126(4) 0.3125(5)
N4 N 0.6714(4) -0.4424(5) 0.4184(7)
H10 H 0.6592 -0.5184 0.4746
Cu1B Cu 1.12779(3) 0.00081(6) 0.25410(8)
Cu1C Cu 0.87221(3) -0.00081(6) -0.24590(8)
O3B O 0.4843(2) -0.0529(3) 0.2701(4)
O4C O 0.6098(3) 0.0933(5) 0.5026(5)
loop_
_geom_bond_atom_site_label_1
_geom_bond_atom_site_label_2
_geom_bond_site_symmetry_1
_geom_bond_site_symmetry_2
Mo1 O1 1_555 1_555
Cu1 O2 1_555 1_555
O2 Mo1 1_555 1_555
O3 Mo1 1_555 1_555
O4 Mo1 1_555 1_555
O5 Cu1 1_555 1_555
H1 O5 1_555 1_555
H2 O5 1_555 1_555
C1 H3 1_555 1_555
C2 C1 1_555 1_555
H4 C2 1_555 1_555
C3 H5 1_555 1_555
C4 H6 1_555 1_555
C5 H7 1_555 1_555
C6 C5 1_555 1_555
H8 C6 1_555 1_555
N1 Cu1 1_555 1_555
N2 C2 1_555 1_555
H9 N2 1_555 1_555
N3 Cu1 1_555 1_555
N4 C4 1_555 1_555
H10 N4 1_555 1_555
Cu1B O3 1_555 1_555
Cu1C O4 1_555 1_555
O3B Cu1 1_555 1_555
O4C Cu1 1_555 1_555
C1 N1 1_555 1_555
C3 N1 1_555 1_555
C3 N2 1_555 1_555
C4 N3 1_555 1_555
C5 N4 1_555 1_555
C6 N3 1_555 1_555

#END
