
#######################################################################
#
#                 Cambridge Crystallographic Data Centre
#                                CCDC 
#
#######################################################################
#
# If this CIF has been generated from an entry in the Cambridge 
# Structural Database, then it will include bibliographic, chemical, 
# crystal, experimental, refinement or atomic coordinate data resulting 
# from the CCDC's data processing and validation procedures.
#
#######################################################################

data_QOGWAL
_symmetry_cell_setting           monoclinic
_symmetry_space_group_name_H-M   'P 21/c'
_symmetry_Int_Tables_number      14
_space_group_name_Hall           '-P 2ybc'
loop_
_symmetry_equiv_pos_site_id
_symmetry_equiv_pos_as_xyz
1 x,y,z
2 -x,1/2+y,1/2-z
3 -x,-y,-z
4 x,1/2-y,1/2+z
_cell_length_a                   11.170(2)
_cell_length_b                   7.8244(15)
_cell_length_c                   22.631(4)
_cell_angle_alpha                90
_cell_angle_beta                 115.790(7)
_cell_angle_gamma                90
_cell_volume                     1780.91
loop_
_atom_site_label
_atom_site_type_symbol
_atom_site_fract_x
_atom_site_fract_y
_atom_site_fract_z
Mo1 Mo -0.528915(19) 0.37522(3) 0.560724(9)
Mo2 Mo -0.76168(2) -0.09781(3) 0.454780(10)
Cu1 Cu -0.53891(3) 0.13625(4) 0.436269(14)
Cu2 Cu -0.22358(3) 0.56095(4) 0.585025(14)
O1 O -0.48825(17) 0.1799(2) 0.53187(8)
O2 O -0.41796(17) 0.5498(2) 0.56738(8)
O3 O -0.69782(17) 0.4311(3) 0.51300(9)
O4 O -0.5140(2) 0.3388(3) 0.63861(9)
O5 O -0.72094(17) 0.0935(2) 0.42335(9)
O6 O -0.91276(19) -0.0617(3) 0.45635(11)
O7 O -0.35022(18) 0.1446(3) 0.46066(9)
O8 O -0.20947(19) 0.2710(3) 0.59962(9)
N1 N -0.1584(2) 0.5990(3) 0.68027(11)
N2 N -0.0362(3) 0.6868(4) 0.78089(12)
H1 H 0.0270 0.7345 0.8141
N3 N -0.0423(2) 0.5685(3) 0.58889(11)
N4 N 0.1311(2) 0.4879(4) 0.57455(11)
H2 H 0.1874 0.4230 0.5689
N5 N -0.5806(2) 0.0995(3) 0.34379(11)
N6 N -0.5770(3) 0.1118(5) 0.24831(14)
H3 H -0.5528 0.1383 0.2182
C1 C -0.0495(3) 0.6843(4) 0.71959(14)
H4 H 0.0094 0.7354 0.7060
C2 C -0.1424(3) 0.5988(4) 0.78131(15)
H5 H -0.1599 0.5797 0.8174
C3 C -0.2160(3) 0.5456(4) 0.71941(14)
H6 H -0.2940 0.4823 0.7054
C4 C 0.0225(3) 0.4353(4) 0.58027(14)
H7 H -0.0038 0.3219 0.5785
C5 C 0.1372(3) 0.6607(4) 0.57912(14)
H8 H 0.2018 0.7311 0.5765
C6 C 0.0300(3) 0.7103(4) 0.58823(15)
H9 H 0.0087 0.8226 0.5932
C7 C -0.5183(3) 0.1628(5) 0.31074(15)
H10 H -0.4439 0.2332 0.3285
C8 C -0.6817(4) 0.0105(6) 0.24070(16)
H11 H -0.7402 -0.0434 0.2023
C9 C -0.6838(3) 0.0037(5) 0.29980(14)
H12 H -0.7452 -0.0563 0.3092
Mo2B Mo -0.23832(2) 0.09781(3) 0.545220(10)
Cu1B Cu -0.46109(3) -0.13625(4) 0.563731(14)
Cu1B_2 Cu -0.46109(3) 0.86375(4) 0.563731(14)
Cu2B Cu -0.77642(3) 0.43905(4) 0.414975(14)
O1B O -0.51175(17) -0.1799(2) 0.46813(8)
O2B O -0.58204(17) 0.4502(2) 0.43262(8)
O3B O -0.30218(17) 0.5689(3) 0.48700(9)
O7B O -0.64978(18) -0.1446(3) 0.53934(9)
O8B O -0.79053(19) -0.2710(3) 0.40038(9)
O9 O 0.2104(3) 0.1082(4) 0.59370(16)
H13 H 0.1272 0.0898 0.5782
H14 H 0.2439 0.0355 0.5773
loop_
_geom_bond_atom_site_label_1
_geom_bond_atom_site_label_2
_geom_bond_site_symmetry_1
_geom_bond_site_symmetry_2
Mo1 O1 1_555 1_555
Mo2 O5 1_555 1_555
Cu1 O1 1_555 1_555
Cu2 O2 1_555 1_555
O1 Cu1B 1_555 1_555
O2 Mo1 1_555 1_555
O3 Mo1 1_555 1_555
O4 Mo1 1_555 1_555
O5 Cu1 1_555 1_555
O6 Mo2 1_555 1_555
O7 Cu1 1_555 1_555
O8 Cu2 1_555 1_555
N1 Cu2 1_555 1_555
N2 H1 1_555 1_555
N3 Cu2 1_555 1_555
N4 H2 1_555 1_555
N5 Cu1 1_555 1_555
N6 H3 1_555 1_555
C1 N1 1_555 1_555
H4 C1 1_555 1_555
C2 N2 1_555 1_555
H5 C2 1_555 1_555
C3 N1 1_555 1_555
H6 C3 1_555 1_555
C4 N3 1_555 1_555
H7 C4 1_555 1_555
C5 N4 1_555 1_555
H8 C5 1_555 1_555
C6 N3 1_555 1_555
H9 C6 1_555 1_555
C7 N5 1_555 1_555
H10 C7 1_555 1_555
C8 N6 1_555 1_555
H11 C8 1_555 1_555
C9 N5 1_555 1_555
H12 C9 1_555 1_555
O9 H13 1_555 1_555
H14 O9 1_555 1_555
Mo2B O7 1_555 1_555
Cu1B O1B 1_555 1_555
Cu1B_2 O2 1_555 1_555
Cu2B O3 1_555 1_555
O1B Cu1 1_555 1_555
O2B Cu1 1_555 1_555
O3B Cu2 1_555 1_555
O7B Mo2 1_555 1_555
O8B Mo2 1_555 1_555
O8 Mo2B 1_555 1_555
N2 C1 1_555 1_555
N4 C4 1_555 1_555
N6 C7 1_555 1_555
C2 C3 1_555 1_555
C5 C6 1_555 1_555
C8 C9 1_555 1_555
Cu1B O7B 1_555 1_555
Cu2B O2B 1_555 1_555

#END
