
#######################################################################
#
#                 Cambridge Crystallographic Data Centre
#                                CCDC 
#
#######################################################################
#
# If this CIF has been generated from an entry in the Cambridge 
# Structural Database, then it will include bibliographic, chemical, 
# crystal, experimental, refinement or atomic coordinate data resulting 
# from the CCDC's data processing and validation procedures.
#
#######################################################################

data_QOGXOA01
_symmetry_cell_setting           monoclinic
_symmetry_space_group_name_H-M   'P 21/c'
_symmetry_Int_Tables_number      14
_space_group_name_Hall           '-P 2ybc'
loop_
_symmetry_equiv_pos_site_id
_symmetry_equiv_pos_as_xyz
1 x,y,z
2 -x,1/2+y,1/2-z
3 -x,-y,-z
4 x,1/2-y,1/2+z
_cell_length_a                   17.865(7)
_cell_length_b                   8.242(3)
_cell_length_c                   23.436(9)
_cell_angle_alpha                90
_cell_angle_beta                 109.391(5)
_cell_angle_gamma                90
_cell_volume                     3255.05
loop_
_atom_site_label
_atom_site_type_symbol
_atom_site_fract_x
_atom_site_fract_y
_atom_site_fract_z
Cd1 Cd 0.763376(12) 0.77219(2) 0.507260(8)
N1 N 0.82386(16) 0.6979(3) 0.60794(11)
N2 N 0.90443(13) 0.5887(3) 0.69162(10)
N3 N 0.87522(14) 0.1275(3) 0.93738(10)
N4 N 0.80594(14) -0.0416(3) 0.97207(10)
N5 N 0.70576(13) 0.9870(3) 0.54057(10)
N6 N 0.62372(13) 1.1221(3) 0.57492(10)
N7 N 0.64184(15) 1.4685(3) 0.83451(11)
N8 N 0.71751(14) 1.6168(3) 0.91010(10)
O1 O 0.88290(15) 0.9095(3) 0.51474(15)
O2 O 0.64075(16) 0.6353(3) 0.49560(16)
C1 C 0.87696(17) 0.5850(3) 0.63070(12)
H1 H 0.8937 0.5110 0.6075
C2 C 0.8170(3) 0.7790(4) 0.65726(15)
H2 H 0.7832 0.8661 0.6555
C3 C 0.8671(2) 0.7127(4) 0.70885(15)
H3 H 0.8743 0.7459 0.7482
C4 C 0.96150(17) 0.4760(4) 0.73197(13)
H4 H 0.9999 0.5367 0.7639
H5 H 0.9899 0.4188 0.7093
C5 C 0.91978(15) 0.3541(3) 0.75968(12)
C6 C 0.8559(2) 0.2651(4) 0.72222(15)
H6 H 0.8391 0.2804 0.6806
C7 C 0.81801(19) 0.1551(4) 0.74700(14)
H7 H 0.7752 0.0966 0.7219
C8 C 0.84245(17) 0.1299(4) 0.80857(14)
H8 H 0.8160 0.0551 0.8247
C9 C 0.90618(17) 0.2153(3) 0.84644(13)
C10 C 0.94440(15) 0.3276(3) 0.82102(12)
H9 H 0.9874 0.3857 0.8461
C11 C 0.93635(18) 0.1892(4) 0.91397(13)
H10 H 0.9801 0.1129 0.9240
H11 H 0.9565 0.2912 0.9338
C12 C 0.87046(17) -0.0224(3) 0.95766(13)
H12 H 0.9081 -0.1030 0.9611
C13 C 0.76762(19) 0.1052(3) 0.95999(14)
H13 H 0.7198 0.1289 0.9658
C14 C 0.8094(2) 0.2092(4) 0.93860(16)
H14 H 0.7962 0.3161 0.9269
C15 C 0.63674(16) 0.9847(3) 0.54907(12)
H15 H 0.6013 0.8985 0.5385
C16 C 0.73838(18) 1.1352(3) 0.56214(13)
H16 H 0.7876 1.1722 0.5622
C17 C 0.6881(2) 1.2187(4) 0.58319(15)
H17 H 0.6960 1.3221 0.6001
C18 C 0.55676(17) 1.1540(4) 0.59609(13)
H18 H 0.5137 1.0803 0.5762
H19 H 0.5380 1.2639 0.5854
C19 C 0.58023(15) 1.1327(4) 0.66388(13)
C20 C 0.61342(17) 0.9893(4) 0.69173(14)
H20 H 0.6212 0.9036 0.6685
C21 C 0.63525(19) 0.9723(5) 0.75417(16)
H21 H 0.6585 0.8764 0.7726
C22 C 0.62239(19) 1.0973(5) 0.78871(15)
H22 H 0.6365 1.0851 0.8304
C23 C 0.5888(2) 1.2399(4) 0.76198(16)
C24 C 0.56779(18) 1.2583(4) 0.69915(15)
H23 H 0.5454 1.3551 0.6810
C25 C 0.5711(2) 1.3771(5) 0.79848(17)
H24 H 0.5342 1.4514 0.7711
H25 H 0.5453 1.3328 0.8255
C26 C 0.65352(18) 1.5248(4) 0.89042(14)
H26 H 0.6204 1.5018 0.9128
C27 C 0.7489(2) 1.6175(4) 0.86406(14)
H27 H 0.7947 1.6719 0.8647
C28 C 0.7030(2) 1.5272(4) 0.81784(14)
H28 H 0.7113 1.5082 0.7813
H29 H 0.626(2) 0.621(5) 0.527(2)
H30 H 0.615(2) 0.577(4) 0.4658(16)
H31 H 0.902(2) 0.899(4) 0.4905(16)
H32 H 0.898(2) 0.968(5) 0.545(2)
Cd1C Cd 0.763376(12) -0.27219(2) 1.007260(8)
Cd1C_2 Cd 0.763376(12) 1.72781(2) 1.007260(8)
N4C N 0.80594(14) 0.5416(3) 0.47207(10)
N8C N 0.71751(14) 0.8832(3) 0.41010(10)
N9 N 0.4981(2) 0.3600(4) 0.42100(14)
O3 O 0.5135(3) 0.2256(4) 0.4405(2)
O4 O 0.4327(3) 0.4123(5) 0.4170(2)
O5 O 0.54364(19) 0.4387(4) 0.40260(14)
N10 N 0.99635(18) 0.7975(3) 0.40179(13)
O6 O 0.97926(17) 0.8638(4) 0.44221(13)
O7 O 1.05971(16) 0.8325(4) 0.39420(14)
O8 O 0.9493(2) 0.7044(4) 0.36705(16)
loop_
_geom_bond_atom_site_label_1
_geom_bond_atom_site_label_2
_geom_bond_site_symmetry_1
_geom_bond_site_symmetry_2
Cd1 N1 1_555 1_555
N1 C1 1_555 1_555
N2 C1 1_555 1_555
N3 C11 1_555 1_555
N4 C12 1_555 1_555
N5 Cd1 1_555 1_555
N6 C15 1_555 1_555
N7 C25 1_555 1_555
N8 C26 1_555 1_555
N9 O3 1_555 1_555
N10 O6 1_555 1_555
O1 Cd1 1_555 1_555
O2 Cd1 1_555 1_555
O4 N9 1_555 1_555
O5 N9 1_555 1_555
O7 N10 1_555 1_555
O8 N10 1_555 1_555
C1 H1 1_555 1_555
C2 N1 1_555 1_555
H2 C2 1_555 1_555
C3 N2 1_555 1_555
H3 C3 1_555 1_555
C4 N2 1_555 1_555
H4 C4 1_555 1_555
H5 C4 1_555 1_555
C5 C4 1_555 1_555
C6 C5 1_555 1_555
H6 C6 1_555 1_555
C7 C6 1_555 1_555
H7 C7 1_555 1_555
C8 C7 1_555 1_555
H8 C8 1_555 1_555
C9 C8 1_555 1_555
C10 C5 1_555 1_555
H9 C10 1_555 1_555
C11 C9 1_555 1_555
H10 C11 1_555 1_555
H11 C11 1_555 1_555
C12 N3 1_555 1_555
H12 C12 1_555 1_555
C13 N4 1_555 1_555
H13 C13 1_555 1_555
C14 N3 1_555 1_555
H14 C14 1_555 1_555
C15 N5 1_555 1_555
H15 C15 1_555 1_555
C16 N5 1_555 1_555
H16 C16 1_555 1_555
C17 N6 1_555 1_555
H17 C17 1_555 1_555
C18 N6 1_555 1_555
H18 C18 1_555 1_555
H19 C18 1_555 1_555
C19 C18 1_555 1_555
C20 C19 1_555 1_555
H20 C20 1_555 1_555
C21 C20 1_555 1_555
H21 C21 1_555 1_555
C22 C21 1_555 1_555
H22 C22 1_555 1_555
C23 C22 1_555 1_555
C24 C19 1_555 1_555
H23 C24 1_555 1_555
C25 C23 1_555 1_555
H24 C25 1_555 1_555
H25 C25 1_555 1_555
C26 N7 1_555 1_555
H26 C26 1_555 1_555
C27 N8 1_555 1_555
H27 C27 1_555 1_555
C28 N7 1_555 1_555
H28 C28 1_555 1_555
H29 O2 1_555 1_555
H30 O2 1_555 1_555
H31 O1 1_555 1_555
H32 O1 1_555 1_555
Cd1C N4 1_555 1_555
Cd1C_2 N8 1_555 1_555
N4C Cd1 1_555 1_555
N8C Cd1 1_555 1_555
C2 C3 1_555 1_555
C9 C10 1_555 1_555
C13 C14 1_555 1_555
C16 C17 1_555 1_555
C23 C24 1_555 1_555
C27 C28 1_555 1_555

#END
