
#######################################################################
#
#                 Cambridge Crystallographic Data Centre
#                                CCDC 
#
#######################################################################
#
# If this CIF has been generated from an entry in the Cambridge 
# Structural Database, then it will include bibliographic, chemical, 
# crystal, experimental, refinement or atomic coordinate data resulting 
# from the CCDC's data processing and validation procedures.
#
#######################################################################

data_QOGXOA02
_symmetry_cell_setting           monoclinic
_symmetry_space_group_name_H-M   'P 21/c'
_symmetry_Int_Tables_number      14
_space_group_name_Hall           '-P 2ybc'
loop_
_symmetry_equiv_pos_site_id
_symmetry_equiv_pos_as_xyz
1 x,y,z
2 -x,1/2+y,1/2-z
3 -x,-y,-z
4 x,1/2-y,1/2+z
_cell_length_a                   17.830(4)
_cell_length_b                   8.2270(19)
_cell_length_c                   23.304(5)
_cell_angle_alpha                90
_cell_angle_beta                 109.432(4)
_cell_angle_gamma                90
_cell_volume                     3223.68
loop_
_atom_site_label
_atom_site_type_symbol
_atom_site_fract_x
_atom_site_fract_y
_atom_site_fract_z
Cd1 Cd 0.263381(19) 0.72833(4) 0.007205(13)
O7 O 0.1405(2) 0.8646(5) -0.00446(19)
H1 H 0.1126 0.8849 -0.0411
H2 H 0.1450 0.9477 0.0181
O8 O 0.3838(2) 0.5915(5) 0.01513(17)
H3 H 0.3998 0.5955 -0.0154
H4 H 0.3933 0.5024 0.0347
N1 N 0.3245(3) 0.8017(5) 0.10795(16)
N2 N 0.4044(2) 0.9119(5) 0.19169(15)
N3 N 0.3756(2) 1.3725(5) 0.43769(16)
N4 N 0.3061(2) 1.5418(5) 0.47228(17)
N5 N 0.2053(2) 0.5131(5) 0.04000(15)
N6 N 0.1242(2) 0.3791(5) 0.07507(15)
N7 N 0.1422(2) 0.0285(6) 0.33418(18)
N8 N 0.2175(2) -0.1174(5) 0.41001(16)
C1 C 0.3774(3) 0.9158(6) 0.13097(19)
H5 H 0.3940 0.9904 0.1078
C2 C 0.3677(4) 0.7883(7) 0.2093(2)
H6 H 0.3747 0.7555 0.2489
C3 C 0.3185(5) 0.7215(7) 0.1574(2)
H7 H 0.2852 0.6333 0.1557
C4 C 0.4614(3) 1.0253(6) 0.2316(2)
H8 H 0.4894 1.0827 0.2085
H9 H 0.5003 0.9653 0.2638
C5 C 0.4195(2) 1.1463(6) 0.25924(18)
C6 C 0.4445(3) 1.1719(6) 0.32136(19)
H10 H 0.4871 1.1125 0.3466
C7 C 0.4069(3) 1.2851(6) 0.3466(2)
C8 C 0.3433(3) 1.3719(6) 0.3084(2)
H11 H 0.3178 1.4489 0.3246
C9 C 0.3176(3) 1.3445(7) 0.2464(2)
H12 H 0.2740 1.4011 0.2210
C10 C 0.3561(4) 1.2346(7) 0.2224(2)
H13 H 0.3393 1.2189 0.1805
C11 C 0.4365(3) 1.3103(7) 0.4140(2)
H14 H 0.4563 1.2077 0.4338
H15 H 0.4807 1.3861 0.4243
C12 C 0.3713(3) 1.5237(6) 0.45783(19)
H16 H 0.4090 1.6046 0.4612
C13 C 0.2685(3) 1.3931(6) 0.4606(2)
H17 H 0.2208 1.3683 0.4666
C14 C 0.3111(4) 1.2899(6) 0.4395(3)
H18 H 0.2986 1.1822 0.4282
C15 C 0.1369(3) 0.5160(6) 0.04908(19)
H19 H 0.1015 0.6027 0.0387
C16 C 0.1876(3) 0.2843(6) 0.0833(3)
H20 H 0.1957 0.1813 0.1008
C17 C 0.2372(3) 0.3657(6) 0.0617(2)
H21 H 0.2862 0.3276 0.0614
C18 C 0.0573(3) 0.3475(7) 0.0963(2)
H22 H 0.0384 0.2374 0.0855
H23 H 0.0141 0.4213 0.0762
C19 C 0.0800(3) 0.3683(7) 0.1639(2)
C20 C 0.0681(3) 0.2409(7) 0.1987(3)
H24 H 0.0461 0.1439 0.1801
C21 C 0.0891(3) 0.2581(8) 0.2618(3)
C22 C 0.1226(3) 0.4015(9) 0.2890(2)
H25 H 0.1371 0.4131 0.3310
C23 C 0.1348(3) 0.5280(9) 0.2542(3)
H26 H 0.1571 0.6249 0.2726
C24 C 0.1137(3) 0.5104(7) 0.1919(2)
H27 H 0.1224 0.5955 0.1687
C25 C 0.0717(3) 0.1184(11) 0.2975(3)
H28 H 0.0445 0.1604 0.3242
H29 H 0.0357 0.0435 0.2693
C26 C 0.1532(3) -0.0293(8) 0.3901(2)
H30 H 0.1191 -0.0092 0.4121
C27 C 0.2490(3) -0.1185(7) 0.3637(2)
H31 H 0.2952 -0.1724 0.3644
C28 C 0.2022(4) -0.0287(8) 0.3171(2)
H32 H 0.2100 -0.0099 0.2802
Cd1C Cd 0.263381(19) -0.22833(4) 0.507205(13)
Cd1C_2 Cd 0.263381(19) 1.77167(4) 0.507205(13)
N4C N 0.3061(2) 0.9582(5) -0.02772(17)
N8C N 0.2175(2) 0.6174(5) -0.08999(16)
O1 O 0.5604(3) 0.6667(6) 0.8946(2)
O2 O 0.4796(3) 0.6352(7) 0.9424(2)
O3 O 0.4491(4) 0.7932(7) 0.8675(3)
N9 N 0.4960(3) 0.7016(6) 0.9021(2)
O4 O 1.0439(3) 0.0600(7) 0.9027(2)
O5 O 1.0132(5) 0.2766(8) 0.9403(4)
O6 O 0.9313(5) 0.0847(9) 0.9166(4)
N10 N 0.9989(3) 0.1409(7) 0.9210(2)
loop_
_geom_bond_atom_site_label_1
_geom_bond_atom_site_label_2
_geom_bond_site_symmetry_1
_geom_bond_site_symmetry_2
Cd1 O7 1_555 1_555
O1 N9 1_555 1_555
O2 N9 1_555 1_555
O3 N9 1_555 1_555
O4 N10 1_555 1_555
O5 N10 1_555 1_555
O6 N10 1_555 1_555
O7 H1 1_555 1_555
H2 O7 1_555 1_555
O8 Cd1 1_555 1_555
H3 O8 1_555 1_555
H4 O8 1_555 1_555
N1 Cd1 1_555 1_555
N2 C1 1_555 1_555
N3 C11 1_555 1_555
N4 C12 1_555 1_555
N5 Cd1 1_555 1_555
N6 C15 1_555 1_555
N7 C25 1_555 1_555
N8 C26 1_555 1_555
C1 N1 1_555 1_555
H5 C1 1_555 1_555
C2 N2 1_555 1_555
H6 C2 1_555 1_555
C3 N1 1_555 1_555
H7 C3 1_555 1_555
C4 N2 1_555 1_555
H8 C4 1_555 1_555
H9 C4 1_555 1_555
C5 C4 1_555 1_555
C6 C5 1_555 1_555
H10 C6 1_555 1_555
C7 C6 1_555 1_555
C8 C7 1_555 1_555
H11 C8 1_555 1_555
C9 C8 1_555 1_555
H12 C9 1_555 1_555
C10 C5 1_555 1_555
H13 C10 1_555 1_555
C11 C7 1_555 1_555
H14 C11 1_555 1_555
H15 C11 1_555 1_555
C12 N3 1_555 1_555
H16 C12 1_555 1_555
C13 N4 1_555 1_555
H17 C13 1_555 1_555
C14 N3 1_555 1_555
H18 C14 1_555 1_555
C15 N5 1_555 1_555
H19 C15 1_555 1_555
C16 N6 1_555 1_555
H20 C16 1_555 1_555
C17 N5 1_555 1_555
H21 C17 1_555 1_555
C18 N6 1_555 1_555
H22 C18 1_555 1_555
H23 C18 1_555 1_555
C19 C18 1_555 1_555
C20 C19 1_555 1_555
H24 C20 1_555 1_555
C21 C20 1_555 1_555
C22 C21 1_555 1_555
H25 C22 1_555 1_555
C23 C22 1_555 1_555
H26 C23 1_555 1_555
C24 C19 1_555 1_555
H27 C24 1_555 1_555
C25 C21 1_555 1_555
H28 C25 1_555 1_555
H29 C25 1_555 1_555
C26 N7 1_555 1_555
H30 C26 1_555 1_555
C27 N8 1_555 1_555
H31 C27 1_555 1_555
C28 N7 1_555 1_555
H32 C28 1_555 1_555
Cd1C N8 1_555 1_555
Cd1C_2 N4 1_555 1_555
N4C Cd1 1_555 1_555
N8C Cd1 1_555 1_555
C2 C3 1_555 1_555
C9 C10 1_555 1_555
C13 C14 1_555 1_555
C16 C17 1_555 1_555
C23 C24 1_555 1_555
C27 C28 1_555 1_555

#END
