
#######################################################################
#
#                 Cambridge Crystallographic Data Centre
#                                CCDC 
#
#######################################################################
#
# If this CIF has been generated from an entry in the Cambridge 
# Structural Database, then it will include bibliographic, chemical, 
# crystal, experimental, refinement or atomic coordinate data resulting 
# from the CCDC's data processing and validation procedures.
#
#######################################################################

data_QOGXOA
_symmetry_cell_setting           monoclinic
_symmetry_space_group_name_H-M   'P 21/c'
_symmetry_Int_Tables_number      14
_space_group_name_Hall           '-P 2ybc'
loop_
_symmetry_equiv_pos_site_id
_symmetry_equiv_pos_as_xyz
1 x,y,z
2 -x,1/2+y,1/2-z
3 -x,-y,-z
4 x,1/2-y,1/2+z
_cell_length_a                   17.838(4)
_cell_length_b                   8.218(2)
_cell_length_c                   23.302(6)
_cell_angle_alpha                90
_cell_angle_beta                 109.531(5)
_cell_angle_gamma                90
_cell_volume                     3219.35
loop_
_atom_site_label
_atom_site_type_symbol
_atom_site_fract_x
_atom_site_fract_y
_atom_site_fract_z
C1 C 0.2374(3) 1.1346(5) 0.0621(2)
H1 H 0.2868 1.1720 0.0627
C2 C 0.1869(2) 1.2178(6) 0.0819(2)
H2 H 0.1943 1.3227 0.0978
C3 C 0.1363(2) 0.9835(5) 0.04850(18)
H3 H 0.1003 0.8977 0.0375
C4 C 0.0561(2) 1.1560(5) 0.09546(18)
H4 H 0.0124 1.0834 0.0751
H5 H 0.0381 1.2670 0.0853
C5 C 0.0809(2) 1.1318(5) 0.16354(18)
C6 C 0.0678(2) 1.2589(5) 0.19860(19)
H6 H 0.0448 1.3551 0.1798
C7 C 0.0891(2) 1.2426(5) 0.26239(19)
C8 C 0.1223(2) 1.1009(6) 0.2880(2)
H7 H 0.1372 1.0893 0.3300
C9 C 0.1348(3) 0.9735(5) 0.2542(2)
H8 H 0.1578 0.8773 0.2730
C10 C 0.1129(2) 0.9907(5) 0.19258(19)
H9 H 0.1200 0.9034 0.1695
C11 C 0.0700(2) 1.3799(5) 0.2974(2)
H10 H 0.0337 1.4543 0.2692
H11 H 0.0434 1.3370 0.3243
C12 C 0.2038(2) 1.5282(5) 0.31737(18)
H12 H 0.2126 1.5097 0.2808
C13 C 0.2498(3) 1.6176(5) 0.3647(2)
H13 H 0.2964 1.6708 0.3661
C14 C 0.1548(2) 1.5251(5) 0.39080(17)
H14 H 0.1227 1.4999 0.4139
C15 C 0.3171(2) 0.7779(6) 0.15737(18)
H15 H 0.2838 0.8664 0.1556
C16 C 0.3660(2) 0.7105(5) 0.20892(17)
H16 H 0.3720 0.7414 0.2486
C17 C 0.3765(3) 0.5837(5) 0.12977(19)
H17 H 0.3930 0.5095 0.1063
C18 C 0.4607(2) 0.4767(5) 0.23208(18)
H18 H 0.4986 0.5380 0.2645
H19 H 0.4899 0.4208 0.2096
C19 C 0.4201(2) 0.3513(5) 0.25985(17)
C20 C 0.4442(2) 0.3286(4) 0.32139(16)
H20 H 0.4862 0.3896 0.3467
C21 C 0.4061(2) 0.2142(5) 0.34654(17)
C22 C 0.3423(2) 0.1287(5) 0.30839(19)
H21 H 0.3154 0.0548 0.3247
C23 C 0.3182(3) 0.1520(6) 0.2465(2)
H22 H 0.2763 0.0915 0.2209
C24 C 0.3562(2) 0.2648(5) 0.22243(17)
H23 H 0.3387 0.2829 0.1806
C25 C 0.4365(2) 0.1877(5) 0.41355(18)
H24 H 0.4799 0.1100 0.4233
H25 H 0.4576 0.2895 0.4335
C26 C 0.3099(3) 0.2101(5) 0.4391(2)
H26 H 0.2964 0.3176 0.4278
C27 C 0.2681(2) 0.1022(5) 0.4607(2)
H27 H 0.2199 0.1252 0.4663
C28 C 0.3701(2) -0.0225(5) 0.45736(17)
H28 H 0.4072 -0.1042 0.4600
Cd1 Cd 0.263156(16) 0.77200(3) 0.006896(13)
N1 N 0.20550(19) 0.9837(4) 0.04039(15)
N2 N 0.12336(18) 1.1227(4) 0.07471(14)
N3 N 0.14152(19) 1.4696(4) 0.33370(15)
N4 N 0.21762(18) 1.6183(4) 0.40994(14)
N5 N 0.32351(19) 0.6967(4) 0.10802(14)
N6 N 0.40449(19) 0.5891(4) 0.19147(15)
N7 N 0.3761(2) 0.1280(4) 0.43757(15)
N8 N 0.3056(2) -0.0426(4) 0.47279(16)
O7 O 0.38297(15) 0.9084(3) 0.01455(12)
H29 H 0.4021 0.9935 0.0441
H30 H 0.4126 0.8793 -0.0116
O8 O 0.13962(15) 0.6341(3) -0.00467(12)
H31 H 0.1217 0.6250 0.0247
H32 H 0.1150 0.5950 -0.0397
Cd1C Cd 0.263156(16) 1.72800(3) 0.506896(13)
Cd1C_2 Cd 0.263156(16) -0.27200(3) 0.506896(13)
N4C N 0.21762(18) 0.8817(4) -0.09006(14)
N8C N 0.3056(2) 0.5426(4) -0.02721(16)
N9 N 0.50269(19) 1.2018(4) 0.09784(16)
O1 O 0.43944(19) 1.1668(4) 0.10469(15)
O2 O 0.52030(16) 1.1335(4) 0.05743(14)
O3 O 0.54892(17) 1.2947(3) 0.13268(13)
N10 N 0.0031(2) 0.6383(5) 0.07881(17)
O4 O -0.04393(17) 0.5603(3) 0.09660(13)
O5 O -0.01348(17) 0.7670(4) 0.05907(14)
O6 O 0.06869(18) 0.5874(4) 0.08423(14)
loop_
_geom_bond_atom_site_label_1
_geom_bond_atom_site_label_2
_geom_bond_site_symmetry_1
_geom_bond_site_symmetry_2
C1 H1 1_555 1_555
C2 C1 1_555 1_555
H2 C2 1_555 1_555
C3 H3 1_555 1_555
C4 H4 1_555 1_555
H5 C4 1_555 1_555
C5 C4 1_555 1_555
C6 C5 1_555 1_555
H6 C6 1_555 1_555
C7 C6 1_555 1_555
C8 C7 1_555 1_555
H7 C8 1_555 1_555
C9 C8 1_555 1_555
H8 C9 1_555 1_555
C10 C5 1_555 1_555
H9 C10 1_555 1_555
C11 C7 1_555 1_555
H10 C11 1_555 1_555
H11 C11 1_555 1_555
C12 H12 1_555 1_555
C13 C12 1_555 1_555
H13 C13 1_555 1_555
C14 H14 1_555 1_555
C15 H15 1_555 1_555
C16 C15 1_555 1_555
H16 C16 1_555 1_555
C17 H17 1_555 1_555
C18 H18 1_555 1_555
H19 C18 1_555 1_555
C19 C18 1_555 1_555
C20 C19 1_555 1_555
H20 C20 1_555 1_555
C21 C20 1_555 1_555
C22 C21 1_555 1_555
H21 C22 1_555 1_555
C23 C22 1_555 1_555
H22 C23 1_555 1_555
C24 C19 1_555 1_555
H23 C24 1_555 1_555
C25 C21 1_555 1_555
H24 C25 1_555 1_555
H25 C25 1_555 1_555
C26 H26 1_555 1_555
C27 C26 1_555 1_555
H27 C27 1_555 1_555
C28 H28 1_555 1_555
Cd1 N1 1_555 1_555
N1 C1 1_555 1_555
N2 C2 1_555 1_555
N3 C11 1_555 1_555
N4 C13 1_555 1_555
N5 C15 1_555 1_555
N6 C16 1_555 1_555
N7 C25 1_555 1_555
N8 C27 1_555 1_555
N9 O1 1_555 1_555
N10 O4 1_555 1_555
O2 N9 1_555 1_555
O3 N9 1_555 1_555
O5 N10 1_555 1_555
O6 N10 1_555 1_555
O7 Cd1 1_555 1_555
H29 O7 1_555 1_555
H30 O7 1_555 1_555
O8 Cd1 1_555 1_555
H31 O8 1_555 1_555
H32 O8 1_555 1_555
Cd1C N4 1_555 1_555
Cd1C_2 N8 1_555 1_555
N4C Cd1 1_555 1_555
N8C Cd1 1_555 1_555
C3 N1 1_555 1_555
C3 N2 1_555 1_555
C4 N2 1_555 1_555
C9 C10 1_555 1_555
C12 N3 1_555 1_555
C14 N3 1_555 1_555
C14 N4 1_555 1_555
C17 N5 1_555 1_555
C17 N6 1_555 1_555
C18 N6 1_555 1_555
C23 C24 1_555 1_555
C26 N7 1_555 1_555
C28 N7 1_555 1_555
C28 N8 1_555 1_555
Cd1 N5 1_555 1_555

#END
