
#######################################################################
#
#                 Cambridge Crystallographic Data Centre
#                                CCDC 
#
#######################################################################
#
# If this CIF has been generated from an entry in the Cambridge 
# Structural Database, then it will include bibliographic, chemical, 
# crystal, experimental, refinement or atomic coordinate data resulting 
# from the CCDC's data processing and validation procedures.
#
#######################################################################

data_QOGXIU
_symmetry_cell_setting           triclinic
_symmetry_space_group_name_H-M   'P -1'
_symmetry_Int_Tables_number      2
_space_group_name_Hall           '-P 1'
loop_
_symmetry_equiv_pos_site_id
_symmetry_equiv_pos_as_xyz
1 x,y,z
2 -x,-y,-z
_cell_length_a                   8.849(3)
_cell_length_b                   8.921(2)
_cell_length_c                   10.085(3)
_cell_angle_alpha                70.741(2)
_cell_angle_beta                 85.558(4)
_cell_angle_gamma                76.584(3)
_cell_volume                     731.066
loop_
_atom_site_label
_atom_site_type_symbol
_atom_site_fract_x
_atom_site_fract_y
_atom_site_fract_z
C1 C 0.7369(7) 0.2594(7) 0.1040(6)
H1 H 0.8088 0.3219 0.1005
C2 C 0.5220(7) 0.1774(7) 0.1346(7)
H2 H 0.4193 0.1697 0.1558
C3 C 0.6294(7) 0.0778(8) 0.0854(7)
H3 H 0.6129 -0.0125 0.0667
C4 C 0.5196(7) 0.4300(7) 0.1990(6)
H4 H 0.4455 0.5082 0.1298
H5 H 0.5998 0.4838 0.2084
C5 C 0.4390(6) 0.3793(7) 0.3363(6)
C6 C 0.2798(6) 0.3995(6) 0.3418(6)
H6 H 0.2240 0.4475 0.2583
C7 C 0.1993(7) 0.3512(7) 0.4664(6)
H7 H 0.0915 0.3690 0.4668
C8 C 0.2831(7) 0.2757(8) 0.5911(7)
H8 H 0.2324 0.2391 0.6759
C9 C 0.4415(6) 0.2560(6) 0.5869(5)
H9 H 0.4962 0.2084 0.6710
C10 C 0.5236(6) 0.3036(6) 0.4638(6)
C11 C 0.6974(7) 0.2873(7) 0.4611(6)
H10 H 0.7389 0.2657 0.3757
H11 H 0.7193 0.3897 0.4587
C12 C 0.8317(7) 0.1700(6) 0.6973(6)
H12 H 0.8268 0.2686 0.7120
C13 C 0.8055(7) -0.0054(7) 0.6009(6)
H13 H 0.7805 -0.0538 0.5392
C14 C 0.8771(7) -0.0829(7) 0.7269(6)
H14 H 0.9105 -0.1951 0.7664
Cd1 Cd 1.0000 0.0000 0.0000
N1 N 0.7674(5) 0.1261(6) 0.0659(5)
N2 N 0.5909(5) 0.2926(6) 0.1479(5)
N3 N 0.7770(5) 0.1577(5) 0.5818(4)
N4 N 0.8925(6) 0.0291(6) 0.7866(5)
N5 N 1.1009(5) 0.3659(6) -0.1168(5)
O1 O 1.0154(5) 0.2815(5) -0.1187(4)
O2 O 1.0797(5) 0.5121(5) -0.1976(4)
O3 O 1.2193(5) 0.3125(5) -0.0484(4)
C1A C 1.2631(7) -0.2594(7) -0.1040(6)
H1A H 1.1912 -0.3219 -0.1005
C2A C 1.4780(7) -0.1774(7) -0.1346(7)
H2A H 1.5807 -0.1697 -0.1558
C3A C 1.3706(7) -0.0778(8) -0.0854(7)
H3A H 1.3871 0.0125 -0.0667
C4A C 1.4804(7) -0.4300(7) -0.1990(6)
H4A H 1.5545 -0.5082 -0.1298
H5A H 1.4002 -0.4838 -0.2084
C5A C 1.5610(6) -0.3793(7) -0.3363(6)
C6A C 1.7202(6) -0.3995(6) -0.3418(6)
H6A H 1.7760 -0.4475 -0.2583
C7A C 1.8007(7) -0.3512(7) -0.4664(6)
H7A H 1.9085 -0.3690 -0.4668
C8A C 1.7169(7) -0.2757(8) -0.5911(7)
H8A H 1.7676 -0.2391 -0.6759
C9A C 1.5585(6) -0.2560(6) -0.5869(5)
H9A H 1.5038 -0.2084 -0.6710
C10A C 1.4764(6) -0.3036(6) -0.4638(6)
C11A C 1.3026(7) -0.2873(7) -0.4611(6)
H10A H 1.2611 -0.2657 -0.3757
H11A H 1.2807 -0.3897 -0.4587
C12A C 1.1683(7) -0.1700(6) -0.6973(6)
H12A H 1.1732 -0.2686 -0.7120
C13A C 1.1945(7) 0.0054(7) -0.6009(6)
H13A H 1.2195 0.0538 -0.5392
C14A C 1.1229(7) 0.0829(7) -0.7269(6)
H14A H 1.0895 0.1951 -0.7664
Cd1_2 Cd 1.0000 0.0000 1.0000
Cd1_3 Cd 1.0000 0.0000 -1.0000
N1A N 1.2326(5) -0.1261(6) -0.0659(5)
N2A N 1.4091(5) -0.2926(6) -0.1479(5)
N3A N 1.2230(5) -0.1577(5) -0.5818(4)
N4A N 1.1075(6) -0.0291(6) -0.7866(5)
N4_2 N 0.8925(6) 0.0291(6) -0.2134(5)
N4A_2 N 1.1075(6) -0.0291(6) 0.2134(5)
N5A N 0.8991(5) -0.3659(6) 0.1168(5)
O1A O 0.9846(5) -0.2815(5) 0.1187(4)
O2A O 0.9203(5) -0.5121(5) 0.1976(4)
O3A O 0.7807(5) -0.3125(5) 0.0484(4)
loop_
_geom_bond_atom_site_label_1
_geom_bond_atom_site_label_2
_geom_bond_site_symmetry_1
_geom_bond_site_symmetry_2
C1 H1 1_555 1_555
C2 H2 1_555 1_555
C3 C2 1_555 1_555
H3 C3 1_555 1_555
C4 H4 1_555 1_555
H5 C4 1_555 1_555
C5 C4 1_555 1_555
C6 C5 1_555 1_555
H6 C6 1_555 1_555
C7 C6 1_555 1_555
H7 C7 1_555 1_555
C8 C7 1_555 1_555
H8 C8 1_555 1_555
C9 C8 1_555 1_555
H9 C9 1_555 1_555
C10 C5 1_555 1_555
C11 C10 1_555 1_555
H10 C11 1_555 1_555
H11 C11 1_555 1_555
C12 H12 1_555 1_555
C13 H13 1_555 1_555
C14 C13 1_555 1_555
H14 C14 1_555 1_555
Cd1 N1 1_555 1_555
N1 C1 1_555 1_555
N2 C1 1_555 1_555
N3 C11 1_555 1_555
N4 C12 1_555 1_555
N5 O1 1_555 1_555
O1 Cd1 1_555 1_555
O2 N5 1_555 1_555
O3 N5 1_555 1_555
C1A H1A 1_555 1_555
C2A H2A 1_555 1_555
C3A C2A 1_555 1_555
H3A C3A 1_555 1_555
C4A H4A 1_555 1_555
H5A C4A 1_555 1_555
C5A C4A 1_555 1_555
C6A C5A 1_555 1_555
H6A C6A 1_555 1_555
C7A C6A 1_555 1_555
H7A C7A 1_555 1_555
C8A C7A 1_555 1_555
H8A C8A 1_555 1_555
C9A C8A 1_555 1_555
H9A C9A 1_555 1_555
C10A C5A 1_555 1_555
C11A C10A 1_555 1_555
H10A C11A 1_555 1_555
H11A C11A 1_555 1_555
C12A H12A 1_555 1_555
C13A H13A 1_555 1_555
C14A C13A 1_555 1_555
H14A C14A 1_555 1_555
Cd1_2 N4 1_555 1_555
Cd1_3 N4A 1_555 1_555
N1A Cd1 1_555 1_555
N2A C1A 1_555 1_555
N3A C11A 1_555 1_555
N4A C12A 1_555 1_555
N4_2 Cd1 1_555 1_555
N4A_2 Cd1 1_555 1_555
N5A O1A 1_555 1_555
O1A Cd1 1_555 1_555
O2A N5A 1_555 1_555
O3A N5A 1_555 1_555
C2 N2 1_555 1_555
C3 N1 1_555 1_555
C4 N2 1_555 1_555
C9 C10 1_555 1_555
C12 N3 1_555 1_555
C13 N3 1_555 1_555
C14 N4 1_555 1_555
C1A N1A 1_555 1_555
C2A N2A 1_555 1_555
C3A N1A 1_555 1_555
C4A N2A 1_555 1_555
C9A C10A 1_555 1_555
C12A N3A 1_555 1_555
C13A N3A 1_555 1_555
C14A N4A 1_555 1_555

#END
