
#######################################################################
#
#                 Cambridge Crystallographic Data Centre
#                                CCDC 
#
#######################################################################
#
# If this CIF has been generated from an entry in the Cambridge 
# Structural Database, then it will include bibliographic, chemical, 
# crystal, experimental, refinement or atomic coordinate data resulting 
# from the CCDC's data processing and validation procedures.
#
#######################################################################

data_QOGXEQ
_symmetry_cell_setting           triclinic
_symmetry_space_group_name_H-M   'P -1'
_symmetry_Int_Tables_number      2
_space_group_name_Hall           '-P 1'
loop_
_symmetry_equiv_pos_site_id
_symmetry_equiv_pos_as_xyz
1 x,y,z
2 -x,-y,-z
_cell_length_a                   7.6960(18)
_cell_length_b                   10.132(3)
_cell_length_c                   12.427(3)
_cell_angle_alpha                90.561(4)
_cell_angle_beta                 105.405(4)
_cell_angle_gamma                92.928(5)
_cell_volume                     932.698
loop_
_atom_site_label
_atom_site_type_symbol
_atom_site_fract_x
_atom_site_fract_y
_atom_site_fract_z
Cd1 Cd 0.81102(4) 0.96510(3) 0.37322(2)
O1 O 0.9002(3) 0.9384(3) 0.5713(2)
O2 O 0.9652(4) 0.7694(3) 0.6849(3)
O3 O 0.4921(4) 1.1166(3) 0.6553(2)
O4 O 0.7380(4) 1.0258(3) 0.7591(2)
N1 N 0.7310(5) 0.9746(4) 0.1815(3)
N2 N 0.6364(5) 0.8652(4) 0.0205(3)
N3 N 0.9096(4) 0.7605(3) 0.3512(3)
N4 N 1.0701(4) 0.6187(3) 0.2904(3)
N5 N 0.6026(5) 0.6827(3) 0.5598(3)
N6 N 0.3602(4) 0.8602(3) 0.5966(3)
C1 C 0.8401(6) 1.0112(5) 0.1146(4)
H1 H 0.9389 1.0717 0.1345
C2 C 0.7816(6) 0.9453(5) 0.0149(4)
H2 H 0.8308 0.9532 -0.0456
C3 C 0.6102(6) 0.8882(5) 0.1212(4)
H3 H 0.5170 0.8475 0.1457
C4 C 0.5336(7) 0.7723(5) -0.0663(4)
H4 H 0.5893 0.7732 -0.1277
H5 H 0.4125 0.8024 -0.0942
C5 C 0.5205(6) 0.6316(5) -0.0283(4)
C6 C 0.4014(6) 0.5452(5) -0.0992(4)
H6 H 0.3331 0.5748 -0.1672
C7 C 0.6201(6) 0.5846(5) 0.0725(4)
H7 H 0.7021 0.6415 0.1225
C8 C 0.8673(6) 0.6354(4) 0.3813(3)
H8 H 0.7839 0.6144 0.4216
C9 C 1.0316(5) 0.7450(4) 0.2961(3)
H9 H 1.0847 0.8139 0.2649
C10 C 0.9653(6) 0.5471(4) 0.3437(4)
H10 H 0.9615 0.4560 0.3525
C11 C 1.1919(6) 0.5666(5) 0.2303(4)
H11 H 1.2452 0.4890 0.2675
H12 H 1.2888 0.6325 0.2321
C12 C 1.0959(6) 0.5305(5) 0.1106(4)
C13 C 1.0638(6) 0.6278(5) 0.0299(4)
H13 H 1.1068 0.7145 0.0496
C14 C 1.0313(6) 0.4036(5) 0.0789(4)
H14 H 1.0518 0.3376 0.1316
C15 C 0.4248(6) 0.6520(4) 0.5365(4)
H15 H 0.3815 0.5678 0.5082
C16 C 0.3043(5) 0.7403(4) 0.5531(3)
H16 H 0.1816 0.7157 0.5336
C17 C 0.5383(5) 0.8935(4) 0.6231(3)
C18 C 0.6582(5) 0.8025(4) 0.6021(3)
C19 C 0.8588(5) 0.8390(4) 0.6234(3)
C20 C 0.5957(5) 1.0241(4) 0.6840(3)
Cd1A Cd 1.18898(4) 1.03490(3) 0.62678(2)
Cd1A_2 Cd 0.18898(4) 1.03490(3) 0.62678(2)
Cd1A_3 Cd 0.18898(4) 0.03490(3) -0.37322(2)
Cd1A_4 Cd 1.18898(4) 0.03490(3) -0.37322(2)
Cd1_2 Cd 1.81102(4) 0.96510(3) 0.37322(2)
O1A O 1.0998(3) 1.0616(3) 0.4287(2)
O2A O 1.0348(4) 1.2306(3) 0.3151(3)
O3A O 1.5079(4) 0.8834(3) 0.3447(2)
O3A_2 O 0.5079(4) 0.8834(3) 0.3447(2)
O3_2 O 1.4921(4) 1.1166(3) 0.6553(2)
O4A O 1.2620(4) 0.9742(3) 0.2409(2)
N1A N 0.2690(5) 0.0254(4) -0.1815(3)
N1A_2 N 1.2690(5) 1.0254(4) 0.8185(3)
N2A N 0.3636(5) 0.1348(4) -0.0205(3)
N3A N 1.0904(4) 0.2395(3) -0.3512(3)
N3A_2 N 1.0904(4) 1.2395(3) 0.6488(3)
N4A N 0.9299(4) 0.3813(3) -0.2904(3)
N5A N 1.3974(5) 1.3173(3) 0.4402(3)
N6A N 1.6398(4) 1.1398(3) 0.4034(3)
N6A_2 N 0.6398(4) 1.1398(3) 0.4034(3)
N6_2 N 1.3602(4) 0.8602(3) 0.5966(3)
C1A C 0.1599(6) -0.0112(5) -0.1146(4)
H1A H 0.0611 -0.0717 -0.1345
C2A C 0.2184(6) 0.0547(5) -0.0149(4)
H2A H 0.1692 0.0468 0.0456
C3A C 0.3898(6) 0.1118(5) -0.1212(4)
H3A H 0.4830 0.1525 -0.1457
C4A C 0.4664(7) 0.2277(5) 0.0663(4)
H4A H 0.4107 0.2268 0.1277
H5A H 0.5875 0.1976 0.0942
C5A C 0.4795(6) 0.3684(5) 0.0283(4)
C6A C 0.5986(6) 0.4548(5) 0.0992(4)
H6A H 0.6669 0.4252 0.1672
C7A C 0.3799(6) 0.4154(5) -0.0725(4)
H7A H 0.2979 0.3585 -0.1225
C8A C 1.1327(6) 0.3646(4) -0.3813(3)
H8A H 1.2161 0.3856 -0.4216
C9A C 0.9684(5) 0.2550(4) -0.2961(3)
H9A H 0.9153 0.1861 -0.2649
C10A C 1.0347(6) 0.4529(4) -0.3437(4)
H10A H 1.0385 0.5440 -0.3525
C11A C 0.8081(6) 0.4334(5) -0.2303(4)
H11A H 0.7548 0.5110 -0.2675
H12A H 0.7112 0.3675 -0.2321
C12A C 0.9041(6) 0.4695(5) -0.1106(4)
C13A C 0.9362(6) 0.3722(5) -0.0299(4)
H13A H 0.8932 0.2855 -0.0496
C14A C 0.9687(6) 0.5964(5) -0.0789(4)
H14A H 0.9482 0.6624 -0.1316
C15A C 1.5752(6) 1.3480(4) 0.4635(4)
H15A H 1.6185 1.4322 0.4918
C16A C 1.6957(5) 1.2597(4) 0.4469(3)
H16A H 1.8184 1.2843 0.4664
C17A C 1.4617(5) 1.1065(4) 0.3769(3)
C18A C 1.3418(5) 1.1975(4) 0.3979(3)
C19A C 1.1412(5) 1.1610(4) 0.3766(3)
C20A C 1.4043(5) 0.9759(4) 0.3160(3)
loop_
_geom_bond_atom_site_label_1
_geom_bond_atom_site_label_2
_geom_bond_site_symmetry_1
_geom_bond_site_symmetry_2
Cd1 O1 1_555 1_555
O1 C19 1_555 1_555
O2 C19 1_555 1_555
O3 C20 1_555 1_555
O4 C20 1_555 1_555
N1 Cd1 1_555 1_555
N2 C2 1_555 1_555
N3 Cd1 1_555 1_555
N4 C9 1_555 1_555
N5 C15 1_555 1_555
N6 C16 1_555 1_555
C1 N1 1_555 1_555
H1 C1 1_555 1_555
C2 C1 1_555 1_555
H2 C2 1_555 1_555
C3 N1 1_555 1_555
H3 C3 1_555 1_555
C4 N2 1_555 1_555
H4 C4 1_555 1_555
H5 C4 1_555 1_555
C5 C4 1_555 1_555
C6 C5 1_555 1_555
H6 C6 1_555 1_555
C7 C5 1_555 1_555
H7 C7 1_555 1_555
C8 N3 1_555 1_555
H8 C8 1_555 1_555
C9 N3 1_555 1_555
H9 C9 1_555 1_555
C10 N4 1_555 1_555
H10 C10 1_555 1_555
C11 N4 1_555 1_555
H11 C11 1_555 1_555
H12 C11 1_555 1_555
C12 C11 1_555 1_555
C13 C12 1_555 1_555
H13 C13 1_555 1_555
C14 C12 1_555 1_555
H14 C14 1_555 1_555
C15 H15 1_555 1_555
C16 C15 1_555 1_555
H16 C16 1_555 1_555
C17 N6 1_555 1_555
C18 N5 1_555 1_555
C19 C18 1_555 1_555
C20 C17 1_555 1_555
Cd1A O1 1_555 1_555
Cd1A_2 O3 1_555 1_555
Cd1A_3 N1A 1_555 1_555
Cd1A_4 N3A 1_555 1_555
Cd1_2 O3A 1_555 1_555
O1A Cd1 1_555 1_555
O2A C19A 1_555 1_555
O3A C20A 1_555 1_555
O3A_2 Cd1 1_555 1_555
O3_2 Cd1A 1_555 1_555
O4A C20A 1_555 1_555
N1A C1A 1_555 1_555
N1A_2 Cd1A 1_555 1_555
N2A C2A 1_555 1_555
N3A C8A 1_555 1_555
N3A_2 Cd1A 1_555 1_555
N4A C9A 1_555 1_555
N5A C15A 1_555 1_555
N6A Cd1_2 1_555 1_555
N6A_2 Cd1 1_555 1_555
N6_2 Cd1A 1_555 1_555
C1A H1A 1_555 1_555
C2A C1A 1_555 1_555
H2A C2A 1_555 1_555
C3A N1A 1_555 1_555
H3A C3A 1_555 1_555
C4A N2A 1_555 1_555
H4A C4A 1_555 1_555
H5A C4A 1_555 1_555
C5A C4A 1_555 1_555
C6A C7 1_555 1_555
H6A C6A 1_555 1_555
C7A C6 1_555 1_555
H7A C7A 1_555 1_555
C8A H8A 1_555 1_555
C9A N3A 1_555 1_555
H9A C9A 1_555 1_555
C10A N4A 1_555 1_555
H10A C10A 1_555 1_555
C11A N4A 1_555 1_555
H11A C11A 1_555 1_555
H12A C11A 1_555 1_555
C12A C11A 1_555 1_555
C13A C14 1_555 1_555
H13A C13A 1_555 1_555
C14A C13 1_555 1_555
H14A C14A 1_555 1_555
C15A H15A 1_555 1_555
C16A N6A 1_555 1_555
H16A C16A 1_555 1_555
C17A N6A 1_555 1_555
C18A N5A 1_555 1_555
C19A O1A 1_555 1_555
C20A C17A 1_555 1_555
N2 C3 1_555 1_555
N6 Cd1A_2 1_555 1_555
C8 C10 1_555 1_555
C17 C18 1_555 1_555
Cd1A O1A 1_555 1_555
N2A C3A 1_555 1_555
C5A C6A 1_555 1_555
C5A C7A 1_555 1_555
C8A C10A 1_555 1_555
C12A C13A 1_555 1_555
C12A C14A 1_555 1_555
C15A C16A 1_555 1_555
C17A C18A 1_555 1_555
C18A C19A 1_555 1_555

#END
