
#######################################################################
#
#                 Cambridge Crystallographic Data Centre
#                                CCDC 
#
#######################################################################
#
# If this CIF has been generated from an entry in the Cambridge 
# Structural Database, then it will include bibliographic, chemical, 
# crystal, experimental, refinement or atomic coordinate data resulting 
# from the CCDC's data processing and validation procedures.
#
#######################################################################

data_QOGXAM
_symmetry_cell_setting           monoclinic
_symmetry_space_group_name_H-M   'P 21/n'
_symmetry_Int_Tables_number      14
_space_group_name_Hall           '-P 2yn'
loop_
_symmetry_equiv_pos_site_id
_symmetry_equiv_pos_as_xyz
1 x,y,z
2 1/2-x,1/2+y,1/2-z
3 -x,-y,-z
4 1/2+x,1/2-y,1/2+z
_cell_length_a                   13.1906(18)
_cell_length_b                   10.9623(15)
_cell_length_c                   16.947(2)
_cell_angle_alpha                90
_cell_angle_beta                 111.343(1)
_cell_angle_gamma                90
_cell_volume                     2282.46
loop_
_atom_site_label
_atom_site_type_symbol
_atom_site_fract_x
_atom_site_fract_y
_atom_site_fract_z
Cd1 Cd 0.880636(16) 0.063695(17) 0.018931(12)
O1 O 0.95523(15) 0.03201(16) -0.08392(11)
O2 O 0.79936(19) -0.1063(2) 0.03452(16)
O3 O 0.6439(2) -0.0065(3) -0.0185(2)
N1 N 0.77793(19) 0.1694(2) -0.10268(15)
N2 N 0.9800(2) 0.2555(2) 0.06105(17)
N3 N 0.8362(2) 0.1680(3) 0.12846(17)
C1 C 0.6859(3) 0.3187(3) -0.2426(3)
H1 H 0.6542 0.3695 -0.2890
C2 C 0.9160(3) 0.1803(3) -0.2857(2)
H2 H 0.9482 0.1814 -0.3262
C3 C 0.7679(4) 0.1256(5) 0.1618(3)
H3 H 0.7296 0.0547 0.1391
C4 C 0.5288(3) -0.4412(3) 0.0021(2)
C5 C 0.7767(3) 0.2489(3) -0.2372(2)
C6 C 0.6386(3) -0.2187(3) 0.0080(2)
C7 C 0.9168(2) 0.1019(2) -0.15145(16)
C8 C 0.6908(3) 0.2353(3) -0.1119(2)
H4 H 0.6592 0.2299 -0.0711
C9 C 0.9619(3) 0.1086(3) -0.21303(19)
H5 H 1.0247 0.0643 -0.2061
C10 C 1.0498(3) 0.2982(3) 0.0289(3)
H6 H 1.0607 0.2550 -0.0145
C11 C 0.8222(2) 0.1746(2) -0.16323(17)
C12 C 0.8915(3) 0.2704(3) 0.1614(2)
C13 C 0.5265(3) -0.2228(3) -0.0223(3)
H7 H 0.4861 -0.1519 -0.0409
C14 C 0.6438(3) 0.3134(4) -0.1816(3)
H8 H 0.5839 0.3611 -0.1853
C15 C 0.6975(3) -0.1001(3) 0.0080(2)
C16 C 0.4743(3) -0.3336(3) -0.0248(3)
H9 H 0.3986 -0.3348 -0.0458
C17 C 1.0096(6) 0.4802(6) 0.2309(5)
H10 H 1.0504 0.5489 0.2551
C18 C 0.8258(3) 0.2480(3) -0.2982(2)
H11 H 0.7961 0.2941 -0.3474
C19 C 0.9655(3) 0.3176(3) 0.1249(2)
C20 C 0.6410(3) -0.4343(3) 0.0340(3)
H12 H 0.6817 -0.5046 0.0540
C21 C 0.8787(4) 0.3300(5) 0.2315(3)
C22 C 1.0938(5) 0.4687(4) 0.1211(4)
H13 H 1.1316 0.5410 0.1404
C23 C 1.0223(4) 0.4254(4) 0.1576(4)
C24 C 0.6943(3) -0.3240(4) 0.0366(3)
H14 H 0.7700 -0.3223 0.0586
C25 C 1.1085(4) 0.4064(4) 0.0576(4)
H15 H 1.1568 0.4347 0.0332
C26 C 0.9416(6) 0.4355(6) 0.2646(5)
H16 H 0.9348 0.4744 0.3112
C27 C 0.8056(6) 0.2819(7) 0.2634(3)
H17 H 0.7950 0.3196 0.3090
C28 C 0.7492(5) 0.1811(6) 0.2295(3)
H18 H 0.6989 0.1488 0.2505
Cd1B Cd 1.119364(16) -0.063695(17) -0.018931(12)
Cd1B_2 Cd 0.119364(16) -1.063695(17) -0.018931(12)
O1B O 1.04477(15) -0.03201(16) 0.08392(11)
O2B O 0.20064(19) -0.8937(2) -0.03452(16)
O2B_2 O 1.20064(19) 0.1063(2) -0.03452(16)
O3B O 0.3561(2) -0.9935(3) 0.0185(2)
N1B N 1.22207(19) -0.1694(2) 0.10268(15)
N2B N 1.0200(2) -0.2555(2) -0.06105(17)
N3B N 1.1638(2) -0.1680(3) -0.12846(17)
C1B C 1.3141(3) -0.3187(3) 0.2426(3)
H1B H 1.3458 -0.3695 0.2890
C2B C 1.0840(3) -0.1803(3) 0.2857(2)
H2B H 1.0518 -0.1814 0.3262
C3B C 1.2321(4) -0.1256(5) -0.1618(3)
H3B H 1.2704 -0.0547 -0.1391
C4B C 0.4712(3) -0.5588(3) -0.0021(2)
C5B C 1.2233(3) -0.2489(3) 0.2372(2)
C6B C 0.3614(3) -0.7813(3) -0.0080(2)
C7B C 1.0832(2) -0.1019(2) 0.15145(16)
C8B C 1.3092(3) -0.2353(3) 0.1119(2)
H4B H 1.3408 -0.2299 0.0711
C9B C 1.0381(3) -0.1086(3) 0.21303(19)
H5B H 0.9753 -0.0643 0.2061
C10B C 0.9502(3) -0.2982(3) -0.0289(3)
H6B H 0.9393 -0.2550 0.0145
C11B C 1.1778(2) -0.1746(2) 0.16323(17)
C12B C 1.1085(3) -0.2704(3) -0.1614(2)
C13B C 0.4735(3) -0.7772(3) 0.0223(3)
H7B H 0.5139 -0.8481 0.0409
C14B C 1.3562(3) -0.3134(4) 0.1816(3)
H8B H 1.4161 -0.3611 0.1853
C15B C 0.3025(3) -0.8999(3) -0.0080(2)
C16B C 0.5257(3) -0.6664(3) 0.0248(3)
H9B H 0.6014 -0.6652 0.0458
C17B C 0.9904(6) -0.4802(6) -0.2309(5)
H10B H 0.9496 -0.5489 -0.2551
C18B C 1.1742(3) -0.2480(3) 0.2982(2)
H11B H 1.2039 -0.2941 0.3474
C19B C 1.0345(3) -0.3176(3) -0.1249(2)
C20B C 0.3590(3) -0.5657(3) -0.0340(3)
H12B H 0.3183 -0.4954 -0.0540
C21B C 1.1213(4) -0.3300(5) -0.2315(3)
C22B C 0.9062(5) -0.4687(4) -0.1211(4)
H13B H 0.8684 -0.5410 -0.1404
C23B C 0.9777(4) -0.4254(4) -0.1576(4)
C24B C 0.3057(3) -0.6760(4) -0.0366(3)
H14B H 0.2300 -0.6777 -0.0586
C25B C 0.8915(4) -0.4064(4) -0.0576(4)
H15B H 0.8432 -0.4347 -0.0332
C26B C 1.0584(6) -0.4355(6) -0.2646(5)
H16B H 1.0652 -0.4744 -0.3112
C27B C 1.1944(6) -0.2819(7) -0.2634(3)
H17B H 1.2050 -0.3196 -0.3090
C28B C 1.2508(5) -0.1811(6) -0.2295(3)
H18B H 1.3011 -0.1488 -0.2505
loop_
_geom_bond_atom_site_label_1
_geom_bond_atom_site_label_2
_geom_bond_site_symmetry_1
_geom_bond_site_symmetry_2
Cd1 O1 1_555 1_555
O1 C7 1_555 1_555
O2 Cd1 1_555 1_555
O3 C15 1_555 1_555
N1 Cd1 1_555 1_555
N2 Cd1 1_555 1_555
N3 Cd1 1_555 1_555
C1 H1 1_555 1_555
C2 H2 1_555 1_555
C3 N3 1_555 1_555
H3 C3 1_555 1_555
C4 C16 1_555 1_555
C5 C1 1_555 1_555
C6 C13 1_555 1_555
C7 C9 1_555 1_555
C8 N1 1_555 1_555
H4 C8 1_555 1_555
C9 C2 1_555 1_555
H5 C9 1_555 1_555
C10 N2 1_555 1_555
H6 C10 1_555 1_555
C11 N1 1_555 1_555
C12 N3 1_555 1_555
C13 H7 1_555 1_555
C14 C1 1_555 1_555
H8 C14 1_555 1_555
C15 O2 1_555 1_555
C16 C13 1_555 1_555
H9 C16 1_555 1_555
C17 H10 1_555 1_555
C18 C2 1_555 1_555
H11 C18 1_555 1_555
C19 N2 1_555 1_555
C20 C4 1_555 1_555
H12 C20 1_555 1_555
C21 C12 1_555 1_555
C22 H13 1_555 1_555
C23 C17 1_555 1_555
C24 C6 1_555 1_555
H14 C24 1_555 1_555
C25 C10 1_555 1_555
H15 C25 1_555 1_555
C26 C17 1_555 1_555
H16 C26 1_555 1_555
C27 C21 1_555 1_555
H17 C27 1_555 1_555
C28 C3 1_555 1_555
H18 C28 1_555 1_555
Cd1B O1 1_555 1_555
Cd1B_2 O2B 1_555 1_555
O1B Cd1 1_555 1_555
O2B C15B 1_555 1_555
O2B_2 Cd1B 1_555 1_555
O3B C15B 1_555 1_555
N1B Cd1B 1_555 1_555
N2B Cd1B 1_555 1_555
N3B Cd1B 1_555 1_555
C1B H1B 1_555 1_555
C2B H2B 1_555 1_555
C3B N3B 1_555 1_555
H3B C3B 1_555 1_555
C4B C4 1_555 1_555
C5B C1B 1_555 1_555
C6B C13B 1_555 1_555
C7B O1B 1_555 1_555
C8B N1B 1_555 1_555
H4B C8B 1_555 1_555
C9B C2B 1_555 1_555
H5B C9B 1_555 1_555
C10B N2B 1_555 1_555
H6B C10B 1_555 1_555
C11B N1B 1_555 1_555
C12B N3B 1_555 1_555
C13B H7B 1_555 1_555
C14B C1B 1_555 1_555
H8B C14B 1_555 1_555
C15B C6B 1_555 1_555
C16B C4B 1_555 1_555
H9B C16B 1_555 1_555
C17B H10B 1_555 1_555
C18B C2B 1_555 1_555
H11B C18B 1_555 1_555
C19B N2B 1_555 1_555
C20B C4B 1_555 1_555
H12B C20B 1_555 1_555
C21B C12B 1_555 1_555
C22B H13B 1_555 1_555
C23B C17B 1_555 1_555
C24B C6B 1_555 1_555
H14B C24B 1_555 1_555
C25B C10B 1_555 1_555
H15B C25B 1_555 1_555
C26B C17B 1_555 1_555
H16B C26B 1_555 1_555
C27B C21B 1_555 1_555
H17B C27B 1_555 1_555
C28B C3B 1_555 1_555
H18B C28B 1_555 1_555
C5 C11 1_555 1_555
C5 C18 1_555 1_555
C6 C15 1_555 1_555
C7 C11 1_555 1_555
C8 C14 1_555 1_555
C12 C19 1_555 1_555
C19 C23 1_555 1_555
C20 C24 1_555 1_555
C21 C26 1_555 1_555
C22 C23 1_555 1_555
C22 C25 1_555 1_555
C27 C28 1_555 1_555
Cd1B O1B 1_555 1_555
C5B C11B 1_555 1_555
C5B C18B 1_555 1_555
C7B C9B 1_555 1_555
C7B C11B 1_555 1_555
C8B C14B 1_555 1_555
C12B C19B 1_555 1_555
C13B C16B 1_555 1_555
C19B C23B 1_555 1_555
C20B C24B 1_555 1_555
C21B C26B 1_555 1_555
C22B C23B 1_555 1_555
C22B C25B 1_555 1_555
C27B C28B 1_555 1_555

#END
