
#######################################################################
#
#                 Cambridge Crystallographic Data Centre
#                                CCDC 
#
#######################################################################
#
# If this CIF has been generated from an entry in the Cambridge 
# Structural Database, then it will include bibliographic, chemical, 
# crystal, experimental, refinement or atomic coordinate data resulting 
# from the CCDC's data processing and validation procedures.
#
#######################################################################

data_QOHGOK
_symmetry_cell_setting           monoclinic
_symmetry_space_group_name_H-M   'P 21/n'
_symmetry_Int_Tables_number      14
_space_group_name_Hall           '-P 2yn'
loop_
_symmetry_equiv_pos_site_id
_symmetry_equiv_pos_as_xyz
1 x,y,z
2 1/2-x,1/2+y,1/2-z
3 -x,-y,-z
4 1/2+x,1/2-y,1/2+z
_cell_length_a                   10.7419(10)
_cell_length_b                   10.6339(9)
_cell_length_c                   24.967(2)
_cell_angle_alpha                90
_cell_angle_beta                 100.2610(10)
_cell_angle_gamma                90
_cell_volume                     2806.33
loop_
_atom_site_label
_atom_site_type_symbol
_atom_site_fract_x
_atom_site_fract_y
_atom_site_fract_z
Eu1 Eu 0.49736(2) 0.85812(2) 0.060828(9)
O1 O 0.6568(4) 0.9992(4) 0.04878(18)
O2 O 0.7113(4) 1.1354(3) -0.00868(18)
O3 O 1.1397(5) 1.2750(5) -0.0127(2)
O4 O 0.5706(4) 0.8848(4) 0.15859(16)
O5 O 0.3768(4) 0.8161(4) 0.13534(17)
O6 O 0.6824(8) 1.1209(8) 0.3253(3)
O7 O 0.4243(5) 0.6398(3) 0.05521(19)
O8 O 0.4501(4) 0.2122(3) 0.02206(15)
O9 O 0.4247(4) 0.0607(3) 0.08056(16)
O10 O 0.6873(4) 0.7312(4) 0.08473(16)
C1 C 0.7392(5) 1.0642(4) 0.0322(2)
C2 C 0.8740(5) 1.0557(5) 0.0610(2)
C3 C 0.8992(6) 0.9812(6) 0.1072(2)
H1 H 0.8331 0.9430 0.1205
C4 C 1.0237(7) 0.9635(7) 0.1338(3)
H2 H 1.0401 0.9153 0.1653
C5 C 1.1225(6) 1.0170(7) 0.1134(3)
H3 H 1.2055 1.0006 0.1299
C6 C 1.0985(6) 1.0940(6) 0.0690(3)
H4 H 1.1658 1.1318 0.0564
C7 C 0.9759(5) 1.1172(5) 0.0424(2)
N1 N 0.9477(4) 1.1960(5) -0.0028(2)
C8 C 1.0261(6) 1.2667(6) -0.0273(3)
C9 C 0.9546(11) 1.3398(8) -0.0750(5)
H5 H 0.9379 1.4232 -0.0634
H6 H 0.8760 1.2982 -0.0886
H7 H 1.0044 1.3443 -0.1033
C10 C 0.4666(6) 0.8517(5) 0.1714(2)
C11 C 0.4517(7) 0.8542(5) 0.2299(2)
C12 C 0.3540(7) 0.7842(7) 0.2445(3)
H8 H 0.2967 0.7436 0.2177
C13 C 0.3410(10) 0.7742(10) 0.2982(4)
H9 H 0.2760 0.7263 0.3079
C14 C 0.4251(13) 0.8356(10) 0.3374(4)
H10 H 0.4168 0.8281 0.3737
C15 C 0.5194(11) 0.9067(9) 0.3245(3)
H11 H 0.5741 0.9483 0.3519
C16 C 0.5358(7) 0.9185(6) 0.2705(2)
N2 N 0.6343(6) 0.9874(5) 0.2553(2)
C17 C 0.6994(8) 1.0821(8) 0.2808(4)
C18 C 0.7917(9) 1.1440(9) 0.2511(5)
H12 H 0.7545 1.2186 0.2334
H13 H 0.8135 1.0872 0.2244
H14 H 0.8666 1.1660 0.2765
C19 C 0.4356(5) 0.1741(5) 0.0681(2)
C20 C 0.4349(5) 0.2707(5) 0.1122(2)
C21 C 0.4734(7) 0.2310(6) 0.1654(3)
H15 H 0.4969 0.1476 0.1724
C22 C 0.4774(9) 0.3146(7) 0.2087(3)
H16 H 0.5031 0.2868 0.2443
C23 C 0.4431(8) 0.4389(7) 0.1986(3)
H17 H 0.4456 0.4946 0.2276
C24 C 0.4054(8) 0.4808(6) 0.1461(3)
H18 H 0.3830 0.5646 0.1397
C25 C 0.4005(5) 0.3978(5) 0.1021(2)
N3 N 0.3560(5) 0.4396(4) 0.0487(2)
C26 C 0.3690(5) 0.5548(5) 0.0277(2)
C27 C 0.3121(7) 0.5703(5) -0.0306(3)
H19 H 0.3291 0.6536 -0.0422
H20 H 0.2224 0.5577 -0.0353
H21 H 0.3481 0.5098 -0.0519
H22 H 0.646(7) 0.958(6) 0.2247(18)
H23 H 0.867(3) 1.203(7) -0.015(3)
H24 H 0.337(7) 0.386(5) 0.023(2)
H25 H 0.731(6) 0.711(7) 0.1139(18)
H26 H 0.739(8) 0.733(11) 0.063(4)
Eu1B Eu 0.50264(2) 1.14188(2) -0.060828(9)
Eu1B_2 Eu 0.50264(2) 0.14188(2) -0.060828(9)
Eu1_2 Eu 0.49736(2) -0.14188(2) 0.060828(9)
O2B O 0.2887(4) 0.8646(3) 0.00868(18)
O8B O 0.5499(4) 0.7878(3) -0.02206(15)
O9_2 O 0.4247(4) 1.0607(3) 0.08056(16)
loop_
_geom_bond_atom_site_label_1
_geom_bond_atom_site_label_2
_geom_bond_site_symmetry_1
_geom_bond_site_symmetry_2
Eu1 O1 1_555 1_555
O1 C1 1_555 1_555
O2 C1 1_555 1_555
O3 C8 1_555 1_555
O4 Eu1 1_555 1_555
O5 Eu1 1_555 1_555
O6 C17 1_555 1_555
O7 Eu1 1_555 1_555
O8 C19 1_555 1_555
O9 C19 1_555 1_555
O10 Eu1 1_555 1_555
C1 C2 1_555 1_555
C2 C3 1_555 1_555
C3 H1 1_555 1_555
C4 C3 1_555 1_555
H2 C4 1_555 1_555
C5 C4 1_555 1_555
H3 C5 1_555 1_555
C6 C5 1_555 1_555
H4 C6 1_555 1_555
C7 C2 1_555 1_555
N1 C7 1_555 1_555
C8 N1 1_555 1_555
C9 C8 1_555 1_555
H5 C9 1_555 1_555
H6 C9 1_555 1_555
H7 C9 1_555 1_555
C10 O4 1_555 1_555
C11 C10 1_555 1_555
C12 C11 1_555 1_555
H8 C12 1_555 1_555
C13 C12 1_555 1_555
H9 C13 1_555 1_555
C14 C13 1_555 1_555
H10 C14 1_555 1_555
C15 C14 1_555 1_555
H11 C15 1_555 1_555
C16 C11 1_555 1_555
N2 C16 1_555 1_555
C17 N2 1_555 1_555
C18 C17 1_555 1_555
H12 C18 1_555 1_555
H13 C18 1_555 1_555
H14 C18 1_555 1_555
C19 C20 1_555 1_555
C20 C21 1_555 1_555
C21 H15 1_555 1_555
C22 C21 1_555 1_555
H16 C22 1_555 1_555
C23 C22 1_555 1_555
H17 C23 1_555 1_555
C24 C23 1_555 1_555
H18 C24 1_555 1_555
C25 C20 1_555 1_555
N3 C25 1_555 1_555
C26 O7 1_555 1_555
C27 C26 1_555 1_555
H19 C27 1_555 1_555
H20 C27 1_555 1_555
H21 C27 1_555 1_555
H22 N2 1_555 1_555
H23 N1 1_555 1_555
H24 N3 1_555 1_555
H25 O10 1_555 1_555
H26 O10 1_555 1_555
Eu1B O2 1_555 1_555
Eu1B_2 O8 1_555 1_555
Eu1_2 O9 1_555 1_555
O2B Eu1 1_555 1_555
O8B Eu1 1_555 1_555
O9_2 Eu1 1_555 1_555
O5 C10 1_555 1_555
C6 C7 1_555 1_555
C15 C16 1_555 1_555
C24 C25 1_555 1_555
N3 C26 1_555 1_555

#END
