
#######################################################################
#
#                 Cambridge Crystallographic Data Centre
#                                CCDC 
#
#######################################################################
#
# If this CIF has been generated from an entry in the Cambridge 
# Structural Database, then it will include bibliographic, chemical, 
# crystal, experimental, refinement or atomic coordinate data resulting 
# from the CCDC's data processing and validation procedures.
#
#######################################################################

data_QOHGIE
_symmetry_cell_setting           monoclinic
_symmetry_space_group_name_H-M   'C 2/c'
_symmetry_Int_Tables_number      15
_space_group_name_Hall           '-C 2yn'
loop_
_symmetry_equiv_pos_site_id
_symmetry_equiv_pos_as_xyz
1 x,y,z
2 1/2+x,1/2+y,z
3 -x,y,1/2-z
4 1/2-x,1/2+y,1/2-z
5 -x,-y,-z
6 1/2-x,1/2-y,-z
7 x,-y,1/2+z
8 1/2+x,1/2-y,1/2+z
_cell_length_a                   9.718(3)
_cell_length_b                   24.087(6)
_cell_length_c                   8.565(2)
_cell_angle_alpha                90
_cell_angle_beta                 114.991(3)
_cell_angle_gamma                90
_cell_volume                     1817.17
loop_
_atom_site_label
_atom_site_type_symbol
_atom_site_fract_x
_atom_site_fract_y
_atom_site_fract_z
Nd1 Nd 0.5000 0.007397(8) 0.2500
Co1 Co 0.5000 0.16231(2) 0.2500
O1 O 0.5679(2) 0.09756(8) 0.1351(2)
O2 O 0.6271(3) 0.08014(8) -0.0868(3)
O3 O 0.7083(3) 0.17053(9) 0.4578(3)
O4 O 0.9518(3) 0.18615(10) 0.5203(3)
O5 O 0.3542(2) 0.02225(8) -0.0944(2)
O6 O 0.2126(2) 0.04322(9) 0.0408(3)
N1 N 0.6173(3) 0.20882(10) 0.1279(3)
H1 H 0.5651 0.2406 0.0827
N2 N 0.0000 0.09921(13) -0.2500
H2 H -0.0402 0.1213 -0.3432
C1 C 0.6049(3) 0.11176(11) 0.0148(3)
C2 C 0.8138(4) 0.19000(12) 0.4245(4)
C3 C 0.6164(4) 0.17365(13) -0.0120(4)
H3 H 0.7087 0.1806 -0.0264
H4 H 0.5315 0.1845 -0.1180
C4 C 0.7683(4) 0.22299(14) 0.2589(4)
H5 H 0.7708 0.2622 0.2852
H6 H 0.8422 0.2164 0.2124
C5 C 0.2347(3) 0.04253(10) -0.0918(3)
C6 C 0.1249(3) 0.06676(13) -0.2613(4)
H7 H 0.1805 0.0906 -0.3057
H8 H 0.0814 0.0368 -0.3430
Nd1F Nd 0.5000 -0.007397(8) -0.2500
Nd1_2 Nd -0.5000 0.007397(8) -0.7500
Nd1F_2 Nd -0.5000 -0.007397(8) -0.2500
Nd1F_3 Nd 0.5000 -0.007397(8) 0.7500
O1B O 0.4321(2) 0.09756(8) 0.3649(2)
O2B O 0.3729(3) 0.08014(8) 0.5868(3)
O2F O 0.6271(3) -0.08014(8) 0.4132(3)
O2D O 0.3729(3) -0.08014(8) 0.0868(3)
O3B O 0.2917(3) 0.17053(9) 0.0422(3)
O4B O 0.0482(3) 0.18615(10) -0.0203(3)
O5B O -0.3542(2) 0.02225(8) -0.4056(2)
O5F O 0.3542(2) -0.02225(8) 0.4056(2)
O5D O 0.6458(2) -0.02225(8) 0.0944(2)
O5B_2 O 0.6458(2) 0.02225(8) 0.5944(2)
O6B O -0.2126(2) 0.04322(9) -0.5408(3)
O6B_2 O 0.7874(2) 0.04322(9) 0.4592(3)
N1B N 0.3827(3) 0.20882(10) 0.3721(3)
H1B H 0.4349 0.2406 0.4173
H2B H 0.0402 0.1213 -0.1568
C1B C 0.3951(3) 0.11176(11) 0.4852(3)
C2B C 0.1862(4) 0.19000(12) 0.0755(4)
C3B C 0.3836(4) 0.17365(13) 0.5120(4)
H3B H 0.2913 0.1806 0.5264
H4B H 0.4685 0.1845 0.6180
C4B C 0.2317(4) 0.22299(14) 0.2411(4)
H5B H 0.2292 0.2622 0.2148
H6B H 0.1578 0.2164 0.2876
C5B C -0.2347(3) 0.04253(10) -0.4082(3)
C6B C -0.1249(3) 0.06676(13) -0.2387(4)
H7B H -0.1805 0.0906 -0.1943
H8B H -0.0814 0.0368 -0.1570
O7 O 0.0000 0.0791(6) 0.2500
H9 H 0.0452 0.0586 0.2056
H9B H -0.0452 0.0586 0.2944
loop_
_geom_bond_atom_site_label_1
_geom_bond_atom_site_label_2
_geom_bond_site_symmetry_1
_geom_bond_site_symmetry_2
Nd1 O1 1_555 1_555
Co1 O1 1_555 1_555
O1 C1 1_555 1_555
O2 C1 1_555 1_555
O3 Co1 1_555 1_555
O4 C2 1_555 1_555
O5 Nd1 1_555 1_555
O6 Nd1 1_555 1_555
N1 Co1 1_555 1_555
H1 N1 1_555 1_555
N2 H2 1_555 1_555
C1 C3 1_555 1_555
C2 O3 1_555 1_555
C3 N1 1_555 1_555
H3 C3 1_555 1_555
H4 C3 1_555 1_555
C4 N1 1_555 1_555
H5 C4 1_555 1_555
H6 C4 1_555 1_555
C5 O5 1_555 1_555
C6 N2 1_555 1_555
H7 C6 1_555 1_555
H8 C6 1_555 1_555
O7 H9 1_555 1_555
Nd1F O2 1_555 1_555
Nd1_2 O5B 1_555 1_555
Nd1F_2 O5B 1_555 1_555
Nd1F_3 O2B 1_555 1_555
O1B Nd1 1_555 1_555
O2B C1B 1_555 1_555
O2F Nd1 1_555 1_555
O2D Nd1 1_555 1_555
O3B Co1 1_555 1_555
O4B C2B 1_555 1_555
O5B C5B 1_555 1_555
O5F Nd1 1_555 1_555
O5D Nd1 1_555 1_555
O5B_2 Nd1 1_555 1_555
O6B Nd1_2 1_555 1_555
O6B_2 Nd1 1_555 1_555
N1B Co1 1_555 1_555
H1B N1B 1_555 1_555
H2B N2 1_555 1_555
C1B O1B 1_555 1_555
C2B O3B 1_555 1_555
C3B N1B 1_555 1_555
H3B C3B 1_555 1_555
H4B C3B 1_555 1_555
C4B N1B 1_555 1_555
H5B C4B 1_555 1_555
H6B C4B 1_555 1_555
C5B O6B 1_555 1_555
C6B N2 1_555 1_555
H7B C6B 1_555 1_555
H8B C6B 1_555 1_555
H9B O7 1_555 1_555
Co1 O1B 1_555 1_555
O5 Nd1F 1_555 1_555
O6 C5 1_555 1_555
C2 C4 1_555 1_555
C5 C6 1_555 1_555
Nd1F O5D 1_555 1_555
Nd1F_3 O5F 1_555 1_555
Nd1F_3 O5B_2 1_555 1_555
C1B C3B 1_555 1_555
C2B C4B 1_555 1_555
C5B C6B 1_555 1_555

#END
