
#######################################################################
#
#                 Cambridge Crystallographic Data Centre
#                                CCDC 
#
#######################################################################
#
# If this CIF has been generated from an entry in the Cambridge 
# Structural Database, then it will include bibliographic, chemical, 
# crystal, experimental, refinement or atomic coordinate data resulting 
# from the CCDC's data processing and validation procedures.
#
#######################################################################

data_QOHHAX
_symmetry_cell_setting           orthorhombic
_symmetry_space_group_name_H-M   'A b a 2'
_symmetry_Int_Tables_number      41
_space_group_name_Hall           'A 2 -2ab'
loop_
_symmetry_equiv_pos_site_id
_symmetry_equiv_pos_as_xyz
1 x,y,z
2 -x,-y,z
3 1/2+x,1/2-y,z
4 1/2-x,1/2+y,z
5 x,1/2+y,1/2+z
6 -x,1/2-y,1/2+z
7 1/2+x,-y,1/2+z
8 1/2-x,y,1/2+z
_cell_length_a                   17.476(4)
_cell_length_b                   19.336(4)
_cell_length_c                   6.9275(13)
_cell_angle_alpha                90
_cell_angle_beta                 90
_cell_angle_gamma                90
_cell_volume                     2340.91
loop_
_atom_site_label
_atom_site_type_symbol
_atom_site_fract_x
_atom_site_fract_y
_atom_site_fract_z
Cd1 Cd 0.290972(9) 0.669578(10) 0.76472(6)
Cl1 Cl 0.21193(4) 0.58552(4) 0.96293(12)
Cl2 Cl 0.20575(4) 0.75103(4) 0.56907(12)
N1 N 0.57593(14) 0.62636(13) 0.8135(4)
N2 N 0.64209(15) 0.58884(13) 1.0531(4)
O1 O 0.41909(12) 0.62761(12) 0.8488(3)
O3 O 0.40589(13) 0.70980(12) 0.6322(4)
C1 C 0.44643(17) 0.66911(14) 0.7299(6)
C2 C 0.5314(2) 0.67277(18) 0.6919(6)
H4 H 0.5409 0.6614 0.5576
H5 H 0.5487 0.7198 0.7131
C3 C 0.5849(2) 0.55584(19) 0.7898(7)
H6 H 0.5659 0.5293 0.6888
C4 C 0.6260(2) 0.53307(18) 0.9384(7)
H7 H 0.6411 0.4876 0.9603
C5 C 0.6105(2) 0.64387(16) 0.9747(5)
H8 H 0.6123 0.6883 1.0257
C6 C 0.6855(3) 0.5873(2) 1.2331(7)
H9 H 0.6885 0.6331 1.2856
H10 H 0.7362 0.5703 1.2082
H11 H 0.6603 0.5574 1.3237
Cd1G Cd 0.209028(9) 0.669578(10) 0.26472(6)
Cd1G_2 Cd 0.209028(9) 0.669578(10) 1.26472(6)
Cl1G Cl 0.28807(4) 0.58552(4) 0.46293(12)
Cl1_2 Cl 0.21193(4) 0.58552(4) -0.03707(12)
Cl2G Cl 0.29425(4) 0.75103(4) 1.06907(12)
Cl2G_2 Cl 0.29425(4) 0.75103(4) 0.06907(12)
N1G N -0.07593(14) 0.62636(13) 0.3135(4)
N2G N -0.14209(15) 0.58884(13) 0.5531(4)
O1G O 0.08091(12) 0.62761(12) 0.3488(3)
O3G O 0.09411(13) 0.70980(12) 0.1322(4)
C1G C 0.05357(17) 0.66911(14) 0.2299(6)
C2G C -0.0314(2) 0.67277(18) 0.1919(6)
H4G H -0.0409 0.6614 0.0576
H5G H -0.0487 0.7198 0.2131
C3G C -0.0849(2) 0.55584(19) 0.2898(7)
H6G H -0.0659 0.5293 0.1888
C4G C -0.1260(2) 0.53307(18) 0.4384(7)
H7G H -0.1411 0.4876 0.4603
C5G C -0.1105(2) 0.64387(16) 0.4747(5)
H8G H -0.1123 0.6883 0.5257
C6G C -0.1855(3) 0.5873(2) 0.7331(7)
H9G H -0.1885 0.6331 0.7856
H10G H -0.2362 0.5703 0.7082
H11G H -0.1603 0.5574 0.8237
O2 O 0.45893(18) 0.6282(2) 1.2424(5)
H1 H 0.444(3) 0.634(4) 1.130(3)
H2 H 0.423(2) 0.636(4) 1.313(6)
O4 O 0.5000 0.5000 1.4063(7)
H3 H 0.494(4) 0.5391(17) 1.351(8)
H3A H 0.506(4) 0.4609(17) 1.351(8)
loop_
_geom_bond_atom_site_label_1
_geom_bond_atom_site_label_2
_geom_bond_site_symmetry_1
_geom_bond_site_symmetry_2
Cd1 Cl1 1_555 1_555
Cl1 Cd1G_2 1_555 1_555
Cl2 Cd1 1_555 1_555
N1 C2 1_555 1_555
N2 C4 1_555 1_555
O1 Cd1 1_555 1_555
O2 H1 1_555 1_555
H2 O2 1_555 1_555
O3 Cd1 1_555 1_555
O4 H3 1_555 1_555
C1 O1 1_555 1_555
C2 C1 1_555 1_555
H4 C2 1_555 1_555
H5 C2 1_555 1_555
C3 N1 1_555 1_555
H6 C3 1_555 1_555
C4 C3 1_555 1_555
H7 C4 1_555 1_555
C5 N1 1_555 1_555
H8 C5 1_555 1_555
C6 N2 1_555 1_555
H9 C6 1_555 1_555
H10 C6 1_555 1_555
H11 C6 1_555 1_555
Cd1G Cl2 1_555 1_555
Cd1G_2 Cl2G 1_555 1_555
Cl1G Cd1 1_555 1_555
Cl1_2 Cd1G 1_555 1_555
Cl2G Cd1 1_555 1_555
Cl2G_2 Cd1G 1_555 1_555
N1G C2G 1_555 1_555
N2G C4G 1_555 1_555
O1G Cd1G 1_555 1_555
O3G Cd1G 1_555 1_555
H3A O4 1_555 1_555
C1G O1G 1_555 1_555
C2G C1G 1_555 1_555
H4G C2G 1_555 1_555
H5G C2G 1_555 1_555
C3G N1G 1_555 1_555
H6G C3G 1_555 1_555
C4G C3G 1_555 1_555
H7G C4G 1_555 1_555
C5G N1G 1_555 1_555
H8G C5G 1_555 1_555
C6G N2G 1_555 1_555
H9G C6G 1_555 1_555
H10G C6G 1_555 1_555
H11G C6G 1_555 1_555
N2 C5 1_555 1_555
O3 C1 1_555 1_555
Cd1G Cl1G 1_555 1_555
N2G C5G 1_555 1_555
O3G C1G 1_555 1_555

#END
