
#######################################################################
#
#                 Cambridge Crystallographic Data Centre
#                                CCDC 
#
#######################################################################
#
# If this CIF has been generated from an entry in the Cambridge 
# Structural Database, then it will include bibliographic, chemical, 
# crystal, experimental, refinement or atomic coordinate data resulting 
# from the CCDC's data processing and validation procedures.
#
#######################################################################

data_QOHJUT
_symmetry_cell_setting           monoclinic
_symmetry_space_group_name_H-M   'C 2/c'
_symmetry_Int_Tables_number      15
_space_group_name_Hall           '-C 2yn'
loop_
_symmetry_equiv_pos_site_id
_symmetry_equiv_pos_as_xyz
1 x,y,z
2 1/2+x,1/2+y,z
3 -x,y,1/2-z
4 1/2-x,1/2+y,1/2-z
5 -x,-y,-z
6 1/2-x,1/2-y,-z
7 x,-y,1/2+z
8 1/2+x,1/2-y,1/2+z
_cell_length_a                   12.640(3)
_cell_length_b                   14.330(3)
_cell_length_c                   9.680(2)
_cell_angle_alpha                90
_cell_angle_beta                 98.400(9)
_cell_angle_gamma                90
_cell_volume                     1734.54
loop_
_atom_site_label
_atom_site_type_symbol
_atom_site_fract_x
_atom_site_fract_y
_atom_site_fract_z
Mn1 Mn 0.5000 0.39623(9) 0.7500
C1 C 0.5474(4) 0.4705(4) 1.0352(6)
C2 C 0.3030(6) 0.2497(6) 0.7029(8)
H1 H 0.2806 0.2706 0.6124
C3 C 0.2610(7) 0.1773(6) 0.7621(10)
H2 H 0.2051 0.1396 0.7213
C4 C 0.3883(6) 0.2373(5) 0.9076(7)
H3 H 0.4365 0.2472 0.9884
C5 C 0.3018(8) 0.0974(6) 0.9981(10)
H4 H 0.2266 0.0922 1.0071
H5 H 0.3404 0.1155 1.0881
C6 C 0.3421(7) 0.0049(7) 0.9561(11)
H6 H 0.3000 -0.0126 0.8680
H7 H 0.3272 -0.0407 1.0248
C7 C 0.4607(9) -0.0050(9) 0.9391(9)
H8 H 0.4703 -0.0659 0.8992
H9 H 0.4762 0.0411 0.8714
O1 O 0.5803(3) 0.4059(3) 0.9654(4)
O2 O 0.5847(3) 0.4911(3) 1.1584(4)
N1 N 0.3845(4) 0.2893(4) 0.7949(5)
N2 N 0.3158(5) 0.1688(4) 0.8943(7)
Mn1F Mn 0.5000 0.60377(9) 1.2500
Mn1F_2 Mn 0.5000 -0.39623(9) 1.2500
C1D C 0.4526(4) 0.5295(4) 0.9648(6)
C2D C 0.6970(6) -0.2497(6) 1.2971(8)
H1D H 0.7194 -0.2706 1.3876
C3D C 0.7390(7) -0.1773(6) 1.2379(10)
H2D H 0.7949 -0.1396 1.2787
C4D C 0.6117(6) -0.2373(5) 1.0924(7)
H3D H 0.5635 -0.2472 1.0116
C5D C 0.6982(8) -0.0974(6) 1.0019(10)
H4D H 0.7734 -0.0922 0.9929
H5D H 0.6596 -0.1155 0.9119
C6D C 0.6579(7) -0.0049(7) 1.0439(11)
H6D H 0.7000 0.0126 1.1320
H7D H 0.6728 0.0407 0.9752
C7D C 0.5393(9) 0.0050(9) 1.0609(9)
H8D H 0.5297 0.0659 1.1008
H9D H 0.5238 -0.0411 1.1286
O1D O 0.4197(3) 0.5941(3) 1.0346(4)
O1B O 0.4197(3) 0.4059(3) 0.5346(4)
O2D O 0.4153(3) 0.5089(3) 0.8416(4)
O2F O 0.5847(3) 0.5089(3) 0.6584(4)
N1D N 0.6155(4) -0.2893(4) 1.2051(5)
N1B N 0.6155(4) 0.2893(4) 0.7051(5)
N2D N 0.6842(5) -0.1688(4) 1.1057(7)
O3 O 0.5000 0.2804(16) 1.2500
loop_
_geom_bond_atom_site_label_1
_geom_bond_atom_site_label_2
_geom_bond_site_symmetry_1
_geom_bond_site_symmetry_2
Mn1 O1 1_555 1_555
C1 O1 1_555 1_555
C2 H1 1_555 1_555
C3 C2 1_555 1_555
H2 C3 1_555 1_555
C4 H3 1_555 1_555
C5 H4 1_555 1_555
H5 C5 1_555 1_555
C6 C5 1_555 1_555
H6 C6 1_555 1_555
H7 C6 1_555 1_555
C7 C6 1_555 1_555
H8 C7 1_555 1_555
H9 C7 1_555 1_555
O2 C1 1_555 1_555
N1 Mn1 1_555 1_555
N2 C3 1_555 1_555
Mn1F O2 1_555 1_555
Mn1F_2 N1D 1_555 1_555
C1D C1 1_555 1_555
C2D H1D 1_555 1_555
C3D C2D 1_555 1_555
H2D C3D 1_555 1_555
C4D H3D 1_555 1_555
C5D H4D 1_555 1_555
H5D C5D 1_555 1_555
C6D C5D 1_555 1_555
H6D C6D 1_555 1_555
H7D C6D 1_555 1_555
C7D C7 1_555 1_555
H8D C7D 1_555 1_555
H9D C7D 1_555 1_555
O1D Mn1F 1_555 1_555
O1B Mn1 1_555 1_555
O2D Mn1 1_555 1_555
O2F Mn1 1_555 1_555
N1D C2D 1_555 1_555
N1B Mn1 1_555 1_555
N2D C3D 1_555 1_555
C2 N1 1_555 1_555
C4 N1 1_555 1_555
C4 N2 1_555 1_555
C5 N2 1_555 1_555
C1D O1D 1_555 1_555
C1D O2D 1_555 1_555
C4D N1D 1_555 1_555
C4D N2D 1_555 1_555
C5D N2D 1_555 1_555
C6D C7D 1_555 1_555

#END
