
#######################################################################
#
#                 Cambridge Crystallographic Data Centre
#                                CCDC 
#
#######################################################################
#
# If this CIF has been generated from an entry in the Cambridge 
# Structural Database, then it will include bibliographic, chemical, 
# crystal, experimental, refinement or atomic coordinate data resulting 
# from the CCDC's data processing and validation procedures.
#
#######################################################################

data_QOHJON
_symmetry_cell_setting           monoclinic
_symmetry_space_group_name_H-M   'C 2/c'
_symmetry_Int_Tables_number      15
_space_group_name_Hall           '-C 2yn'
loop_
_symmetry_equiv_pos_site_id
_symmetry_equiv_pos_as_xyz
1 x,y,z
2 1/2+x,1/2+y,z
3 -x,y,1/2-z
4 1/2-x,1/2+y,1/2-z
5 -x,-y,-z
6 1/2-x,1/2-y,-z
7 x,-y,1/2+z
8 1/2+x,1/2-y,1/2+z
_cell_length_a                   12.758(7)
_cell_length_b                   13.876(8)
_cell_length_c                   9.437(7)
_cell_angle_alpha                90
_cell_angle_beta                 99.557(2)
_cell_angle_gamma                90
_cell_volume                     1647.45
loop_
_atom_site_label
_atom_site_type_symbol
_atom_site_fract_x
_atom_site_fract_y
_atom_site_fract_z
Zn1 Zn 0.5000 0.39583(4) 0.2500
C1 C 0.5481(2) 0.4695(2) 0.5375(3)
C2 C 0.3979(3) 0.2405(3) 0.4148(4)
H1 H 0.4488 0.2500 0.4963
C3 C 0.3063(3) 0.2549(3) 0.2049(4)
H2 H 0.2819 0.2767 0.1121
C4 C 0.2634(3) 0.1816(3) 0.2699(5)
H3 H 0.2048 0.1447 0.2310
C5 C 0.3108(4) 0.0982(3) 0.5103(6)
H4 H 0.2374 0.0959 0.5252
H5 H 0.3545 0.1156 0.6009
C6 C 0.3434(4) 0.0001(3) 0.4646(6)
H6 H 0.2957 -0.0184 0.3779
H7 H 0.3341 -0.0460 0.5388
C7 C 0.4574(4) -0.0077(3) 0.4359(5)
H8 H 0.4670 -0.0712 0.3969
H9 H 0.4671 0.0392 0.3630
N1 N 0.3909(2) 0.2922(2) 0.2964(3)
N2 N 0.3220(3) 0.1718(2) 0.4025(4)
O1 O 0.58180(19) 0.40567(16) 0.4634(2)
O2 O 0.58448(18) 0.48937(18) 0.6645(2)
Zn1F Zn 0.5000 0.60417(4) 0.7500
Zn1F_2 Zn 0.5000 -0.39583(4) 0.7500
C1D C 0.4519(2) 0.5305(2) 0.4625(3)
C2D C 0.6021(3) -0.2405(3) 0.5852(4)
H1D H 0.5512 -0.2500 0.5037
C3D C 0.6937(3) -0.2549(3) 0.7951(4)
H2D H 0.7181 -0.2767 0.8879
C4D C 0.7366(3) -0.1816(3) 0.7301(5)
H3D H 0.7952 -0.1447 0.7690
C5D C 0.6892(4) -0.0982(3) 0.4897(6)
H4D H 0.7626 -0.0959 0.4748
H5D H 0.6455 -0.1156 0.3991
C6D C 0.6566(4) -0.0001(3) 0.5354(6)
H6D H 0.7043 0.0184 0.6221
H7D H 0.6659 0.0460 0.4612
C7D C 0.5426(4) 0.0077(3) 0.5641(5)
H8D H 0.5330 0.0712 0.6031
H9D H 0.5329 -0.0392 0.6370
N1D N 0.6091(2) -0.2922(2) 0.7036(3)
N1B N 0.6091(2) 0.2922(2) 0.2036(3)
N2D N 0.6780(3) -0.1718(2) 0.5975(4)
O1D O 0.41820(19) 0.59433(16) 0.5366(2)
O1B O 0.41820(19) 0.40567(16) 0.0366(2)
O2D O 0.41552(18) 0.51063(18) 0.3355(2)
O2F O 0.58448(18) 0.51063(18) 0.1645(2)
O3 O 0.5000 0.2820(10) 0.7500
loop_
_geom_bond_atom_site_label_1
_geom_bond_atom_site_label_2
_geom_bond_site_symmetry_1
_geom_bond_site_symmetry_2
Zn1 N1 1_555 1_555
C1 O1 1_555 1_555
C2 H1 1_555 1_555
C3 H2 1_555 1_555
C4 C3 1_555 1_555
H3 C4 1_555 1_555
C5 H4 1_555 1_555
H5 C5 1_555 1_555
C6 C5 1_555 1_555
H6 C6 1_555 1_555
H7 C6 1_555 1_555
C7 C6 1_555 1_555
H8 C7 1_555 1_555
H9 C7 1_555 1_555
N1 C2 1_555 1_555
N2 C2 1_555 1_555
O1 Zn1 1_555 1_555
O2 C1 1_555 1_555
Zn1F O2 1_555 1_555
Zn1F_2 N1D 1_555 1_555
C1D C1 1_555 1_555
C2D H1D 1_555 1_555
C3D H2D 1_555 1_555
C4D C3D 1_555 1_555
H3D C4D 1_555 1_555
C5D H4D 1_555 1_555
H5D C5D 1_555 1_555
C6D C5D 1_555 1_555
H6D C6D 1_555 1_555
H7D C6D 1_555 1_555
C7D C7 1_555 1_555
H8D C7D 1_555 1_555
H9D C7D 1_555 1_555
N1D C2D 1_555 1_555
N1B Zn1 1_555 1_555
N2D C2D 1_555 1_555
O1D Zn1F 1_555 1_555
O1B Zn1 1_555 1_555
O2D Zn1 1_555 1_555
O2F Zn1 1_555 1_555
C3 N1 1_555 1_555
C4 N2 1_555 1_555
C5 N2 1_555 1_555
C1D O1D 1_555 1_555
C1D O2D 1_555 1_555
C3D N1D 1_555 1_555
C4D N2D 1_555 1_555
C5D N2D 1_555 1_555
C6D C7D 1_555 1_555

#END
