
#######################################################################
#
#                 Cambridge Crystallographic Data Centre
#                                CCDC 
#
#######################################################################
#
# If this CIF has been generated from an entry in the Cambridge 
# Structural Database, then it will include bibliographic, chemical, 
# crystal, experimental, refinement or atomic coordinate data resulting 
# from the CCDC's data processing and validation procedures.
#
#######################################################################

data_QOHKOO
_symmetry_cell_setting           orthorhombic
_symmetry_space_group_name_H-M   'P b c a'
_symmetry_Int_Tables_number      61
_space_group_name_Hall           '-P 2ac 2ab'
loop_
_symmetry_equiv_pos_site_id
_symmetry_equiv_pos_as_xyz
1 x,y,z
2 1/2-x,-y,1/2+z
3 1/2+x,1/2-y,-z
4 -x,1/2+y,1/2-z
5 -x,-y,-z
6 1/2+x,y,1/2-z
7 1/2-x,1/2+y,z
8 x,1/2-y,1/2+z
_cell_length_a                   10.340(2)
_cell_length_b                   13.539(3)
_cell_length_c                   27.813(7)
_cell_angle_alpha                90
_cell_angle_beta                 90
_cell_angle_gamma                90
_cell_volume                     3893.63
loop_
_atom_site_label
_atom_site_type_symbol
_atom_site_fract_x
_atom_site_fract_y
_atom_site_fract_z
Zn1 Zn 0.18755(2) 0.109839(17) 0.122472(9)
C1 C 0.48462(19) -0.05831(15) 0.18321(7)
C2 C 0.51712(19) -0.15842(15) 0.18284(7)
C3 C 0.6059(2) -0.19376(17) 0.21639(8)
H1 H 0.6258 -0.2607 0.2169
C4 C 0.6646(2) -0.1312(2) 0.24877(9)
H2 H 0.7247 -0.1557 0.2706
C5 C 0.6339(3) -0.0323(2) 0.24873(9)
H3 H 0.6748 0.0104 0.2701
C6 C 0.5423(2) 0.00353(17) 0.21693(8)
H4 H 0.5190 0.0698 0.2181
C7 C 0.3886(2) -0.01689(15) 0.14777(8)
C8 C 0.4608(2) -0.23242(14) 0.14857(8)
C9 C 0.0702(2) -0.09111(15) 0.13611(8)
H5 H 0.1496 -0.1229 0.1334
C10 C -0.0776(2) 0.01987(17) 0.13634(10)
H6 H -0.1195 0.0804 0.1337
C11 C -0.1343(2) -0.06536(18) 0.14839(10)
H7 H -0.2212 -0.0748 0.1555
C12 C -0.0546(2) -0.23977(15) 0.16265(9)
H8 H -0.0925 -0.2424 0.1945
H9 H 0.0300 -0.2705 0.1642
C13 C -0.1392(2) -0.29759(17) 0.12812(8)
H10 H -0.1550 -0.3627 0.1414
H11 H -0.2219 -0.2644 0.1251
C14 C -0.0802(2) -0.30855(18) 0.07910(9)
H12 H 0.0089 -0.3298 0.0827
H13 H -0.0794 -0.2445 0.0635
C15 C -0.1507(3) -0.38196(18) 0.04665(9)
H14 H -0.0976 -0.3940 0.0185
H15 H -0.1589 -0.4441 0.0638
C16 C -0.2839(2) -0.35033(17) 0.03003(9)
H16 H -0.3217 -0.4025 0.0107
H17 H -0.3390 -0.3404 0.0579
C17 C -0.2259(2) -0.24788(16) -0.04172(8)
H18 H -0.1869 -0.2985 -0.0591
C18 C -0.3264(2) -0.16832(18) 0.01526(9)
H19 H -0.3687 -0.1531 0.0438
C19 C -0.2990(2) -0.10582(18) -0.02115(9)
H20 H -0.3201 -0.0391 -0.0219
N1 N 0.05214(18) 0.00440(13) 0.12843(7)
N2 N -0.03977(17) -0.13597(12) 0.14818(7)
N3 N -0.27942(18) -0.25863(14) 0.00167(7)
N4 N -0.23575(18) -0.15563(13) -0.05669(6)
O1 O 0.33856(15) 0.06611(11) 0.15970(6)
O2 O 0.36170(17) -0.06194(12) 0.11072(6)
O3 O 0.35319(15) -0.27093(11) 0.16094(6)
O4 O 0.52383(16) -0.25784(12) 0.11309(6)
Zn1D Zn -0.18755(2) -0.109839(17) -0.122472(9)
Zn1F Zn 0.31245(2) -0.390161(17) 0.122472(9)
N4D N 0.23575(18) 0.15563(13) 0.05669(6)
O3F O 0.14681(15) 0.22907(11) 0.16094(6)
loop_
_geom_bond_atom_site_label_1
_geom_bond_atom_site_label_2
_geom_bond_site_symmetry_1
_geom_bond_site_symmetry_2
Zn1 N1 1_555 1_555
C1 C2 1_555 1_555
C2 C3 1_555 1_555
C3 H1 1_555 1_555
C4 C3 1_555 1_555
H2 C4 1_555 1_555
C5 C4 1_555 1_555
H3 C5 1_555 1_555
C6 C1 1_555 1_555
H4 C6 1_555 1_555
C7 C1 1_555 1_555
C8 C2 1_555 1_555
C9 H5 1_555 1_555
C10 H6 1_555 1_555
C11 C10 1_555 1_555
H7 C11 1_555 1_555
C12 H8 1_555 1_555
H9 C12 1_555 1_555
C13 C12 1_555 1_555
H10 C13 1_555 1_555
H11 C13 1_555 1_555
C14 C13 1_555 1_555
H12 C14 1_555 1_555
H13 C14 1_555 1_555
C15 C14 1_555 1_555
H14 C15 1_555 1_555
H15 C15 1_555 1_555
C16 C15 1_555 1_555
H16 C16 1_555 1_555
H17 C16 1_555 1_555
C17 H18 1_555 1_555
C18 H19 1_555 1_555
C19 C18 1_555 1_555
H20 C19 1_555 1_555
N1 C9 1_555 1_555
N2 C9 1_555 1_555
N3 C16 1_555 1_555
N4 C17 1_555 1_555
O1 Zn1 1_555 1_555
O2 C7 1_555 1_555
O3 C8 1_555 1_555
O4 C8 1_555 1_555
Zn1D N4 1_555 1_555
Zn1F O3 1_555 1_555
N4D Zn1 1_555 1_555
O3F Zn1 1_555 1_555
C5 C6 1_555 1_555
C7 O1 1_555 1_555
C10 N1 1_555 1_555
C11 N2 1_555 1_555
C12 N2 1_555 1_555
C17 N3 1_555 1_555
C18 N3 1_555 1_555
C19 N4 1_555 1_555

#END
