
#######################################################################
#
#                 Cambridge Crystallographic Data Centre
#                                CCDC 
#
#######################################################################
#
# If this CIF has been generated from an entry in the Cambridge 
# Structural Database, then it will include bibliographic, chemical, 
# crystal, experimental, refinement or atomic coordinate data resulting 
# from the CCDC's data processing and validation procedures.
#
#######################################################################

data_QOHKII
_symmetry_cell_setting           triclinic
_symmetry_space_group_name_H-M   'P -1'
_symmetry_Int_Tables_number      2
_space_group_name_Hall           '-P 1'
loop_
_symmetry_equiv_pos_site_id
_symmetry_equiv_pos_as_xyz
1 x,y,z
2 -x,-y,-z
_cell_length_a                   9.677(4)
_cell_length_b                   9.968(5)
_cell_length_c                   11.716(6)
_cell_angle_alpha                78.69(2)
_cell_angle_beta                 74.02(3)
_cell_angle_gamma                68.61(4)
_cell_volume                     1005.82
loop_
_atom_site_label
_atom_site_type_symbol
_atom_site_fract_x
_atom_site_fract_y
_atom_site_fract_z
Zn1 Zn 0.19402(2) 0.29866(2) 0.62223(2)
O1 O 0.06717(16) 0.46709(16) 0.70768(14)
N1 N 0.63142(18) 0.31914(19) 0.56442(17)
O2 O -0.14816(17) 0.41971(18) 0.73605(16)
O3 O -0.15915(17) 0.67539(16) 0.53865(13)
O4 O -0.3653(2) 0.8675(2) 0.56611(16)
N2 N 0.17978(19) 0.11607(18) 0.72495(15)
N3 N 0.40155(18) 0.30373(19) 0.62446(15)
N4 N 0.2506(2) -0.11141(19) 0.79840(16)
C1 C -0.2439(2) 0.7663(2) 0.72776(18)
C2 C -0.1588(2) 0.6425(2) 0.78850(18)
C3 C -0.0771(2) 0.4983(2) 0.73823(17)
C4 C 0.7757(2) 0.3263(3) 0.4827(2)
H1 H 0.8307 0.3573 0.5244
H2 H 0.7528 0.3985 0.4157
C5 C 0.4768(3) -0.4724(2) 0.9416(2)
H3 H 0.4195 -0.5286 0.9297
H4 H 0.5675 -0.4863 0.8776
C6 C -0.2591(2) 0.7706(2) 0.60254(19)
C7 C -0.3149(3) 0.8939(3) 0.7829(2)
H5 H -0.3720 0.9764 0.7426
C8 C 0.8761(3) 0.1836(3) 0.4359(2)
H6 H 0.8162 0.1465 0.4042
H7 H 0.9567 0.2005 0.3704
C9 C 0.2931(2) -0.0082(2) 0.72164(18)
H8 H 0.3896 -0.0218 0.6724
C10 C 0.1012(3) -0.0508(3) 0.8528(2)
H9 H 0.0407 -0.0972 0.9099
C11 C 0.3799(3) -0.3118(2) 0.9348(2)
H10 H 0.2862 -0.2973 0.9956
H11 H 0.4349 -0.2547 0.9489
C12 C -0.3023(3) 0.9002(3) 0.8957(3)
H12 H -0.3493 0.9864 0.9307
C13 C 0.0590(3) 0.0894(3) 0.8074(2)
H13 H -0.0371 0.1574 0.8287
C14 C 0.3443(3) -0.2640(3) 0.8137(2)
H14 H 0.4389 -0.2799 0.7538
H15 H 0.2914 -0.3235 0.8001
C15 C -0.1491(3) 0.6500(3) 0.9034(2)
H16 H -0.0944 0.5677 0.9455
C16 C 0.9466(3) 0.0707(3) 0.5268(2)
H17 H 0.8666 0.0497 0.5906
H18 H 1.0038 0.1084 0.5610
C17 C 0.5196(2) 0.2952(3) 0.5350(2)
H19 H 0.5247 0.2748 0.4595
C18 C -0.2195(3) 0.7778(4) 0.9561(2)
H20 H -0.2109 0.7810 1.0325
C19 C 0.5830(3) 0.3447(3) 0.6789(2)
H21 H 0.6365 0.3652 0.7244
C20 C 0.4407(3) 0.3351(4) 0.7162(2)
H22 H 0.3797 0.3481 0.7926
Zn1A Zn -0.19402(2) 0.70134(2) 0.37777(2)
Zn1A_2 Zn 1.80598(2) -0.29866(2) 0.37777(2)
Zn1A_3 Zn 0.80598(2) -1.29866(2) 1.37777(2)
O1A O -0.06717(16) 0.53291(16) 0.29232(14)
N1A N 1.36858(18) -0.31914(19) 0.43558(17)
O2A O 0.14816(17) 0.58029(18) 0.26395(16)
O3A O 0.15915(17) 0.32461(16) 0.46135(13)
O4A O 0.3653(2) 0.1325(2) 0.43389(16)
N2A N 0.82022(19) -1.11607(18) 1.27505(15)
N2A_2 N -0.17978(19) 0.88393(18) 0.27505(15)
N3A N 1.59845(18) -0.30373(19) 0.37554(15)
N3A_2 N -0.40155(18) 0.69627(19) 0.37554(15)
N4A N 0.7494(2) -0.88859(19) 1.20160(16)
C1A C 0.2439(2) 0.2337(2) 0.27224(18)
C2A C 0.1588(2) 0.3575(2) 0.21150(18)
C3A C 0.0771(2) 0.5017(2) 0.26177(17)
C4A C 1.2243(2) -0.3263(3) 0.5173(2)
H1A H 1.1693 -0.3573 0.4756
H2A H 1.2472 -0.3985 0.5843
C5A C 0.5232(3) -0.5276(2) 1.0584(2)
H3A H 0.5805 -0.4714 1.0703
H4A H 0.4325 -0.5137 1.1224
C6A C 0.2591(2) 0.2294(2) 0.39746(19)
C7A C 0.3149(3) 0.1061(3) 0.2171(2)
H5A H 0.3720 0.0236 0.2574
C8A C 1.1239(3) -0.1836(3) 0.5641(2)
H6A H 1.1838 -0.1465 0.5958
H7A H 1.0433 -0.2005 0.6296
C9A C 0.7069(2) -0.9918(2) 1.27836(18)
H8A H 0.6104 -0.9782 1.3276
C10A C 0.8988(3) -0.9492(3) 1.1472(2)
H9A H 0.9593 -0.9028 1.0901
C11A C 0.6201(3) -0.6882(2) 1.0652(2)
H10A H 0.7138 -0.7027 1.0044
H11A H 0.5651 -0.7453 1.0511
C12A C 0.3023(3) 0.0998(3) 0.1043(3)
H12A H 0.3493 0.0136 0.0693
C13A C 0.9410(3) -1.0894(3) 1.1926(2)
H13A H 1.0371 -1.1574 1.1713
C14A C 0.6557(3) -0.7360(3) 1.1863(2)
H14A H 0.5611 -0.7201 1.2462
H15A H 0.7086 -0.6765 1.1999
C15A C 0.1491(3) 0.3500(3) 0.0966(2)
H16A H 0.0944 0.4323 0.0545
C16A C 1.0534(3) -0.0707(3) 0.4732(2)
H17A H 1.1334 -0.0497 0.4094
H18A H 0.9962 -0.1084 0.4390
C17A C 1.4804(2) -0.2952(3) 0.4650(2)
H19A H 1.4753 -0.2748 0.5405
C18A C 0.2195(3) 0.2222(4) 0.0439(2)
H20A H 0.2109 0.2190 -0.0325
C19A C 1.4170(3) -0.3447(3) 0.3211(2)
H21A H 1.3635 -0.3652 0.2756
C20A C 1.5593(3) -0.3351(4) 0.2838(2)
H22A H 1.6203 -0.3481 0.2074
loop_
_geom_bond_atom_site_label_1
_geom_bond_atom_site_label_2
_geom_bond_site_symmetry_1
_geom_bond_site_symmetry_2
Zn1 O1 1_555 1_555
O1 C3 1_555 1_555
N1 C4 1_555 1_555
O2 C3 1_555 1_555
O3 C6 1_555 1_555
O4 C6 1_555 1_555
N2 Zn1 1_555 1_555
N3 Zn1 1_555 1_555
N4 C9 1_555 1_555
C1 C2 1_555 1_555
C2 C3 1_555 1_555
C4 H1 1_555 1_555
H2 C4 1_555 1_555
C5 H3 1_555 1_555
H4 C5 1_555 1_555
C6 C1 1_555 1_555
C7 C1 1_555 1_555
H5 C7 1_555 1_555
C8 C4 1_555 1_555
H6 C8 1_555 1_555
H7 C8 1_555 1_555
C9 N2 1_555 1_555
H8 C9 1_555 1_555
C10 N4 1_555 1_555
H9 C10 1_555 1_555
C11 C5 1_555 1_555
H10 C11 1_555 1_555
H11 C11 1_555 1_555
C12 C7 1_555 1_555
H12 C12 1_555 1_555
C13 N2 1_555 1_555
H13 C13 1_555 1_555
C14 N4 1_555 1_555
H14 C14 1_555 1_555
H15 C14 1_555 1_555
C15 C2 1_555 1_555
H16 C15 1_555 1_555
C16 C8 1_555 1_555
H17 C16 1_555 1_555
H18 C16 1_555 1_555
C17 N1 1_555 1_555
H19 C17 1_555 1_555
C18 C12 1_555 1_555
H20 C18 1_555 1_555
C19 N1 1_555 1_555
H21 C19 1_555 1_555
C20 N3 1_555 1_555
H22 C20 1_555 1_555
Zn1A O3 1_555 1_555
Zn1A_2 N3A 1_555 1_555
Zn1A_3 N2A 1_555 1_555
O1A Zn1A 1_555 1_555
N1A C4A 1_555 1_555
O2A C3A 1_555 1_555
O3A Zn1 1_555 1_555
O4A C6A 1_555 1_555
N2A C9A 1_555 1_555
N2A_2 Zn1A 1_555 1_555
N3A C17A 1_555 1_555
N3A_2 Zn1A 1_555 1_555
N4A C9A 1_555 1_555
C1A C2A 1_555 1_555
C2A C3A 1_555 1_555
C3A O1A 1_555 1_555
C4A H1A 1_555 1_555
H2A C4A 1_555 1_555
C5A C5 1_555 1_555
H3A C5A 1_555 1_555
H4A C5A 1_555 1_555
C6A O3A 1_555 1_555
C7A C1A 1_555 1_555
H5A C7A 1_555 1_555
C8A C4A 1_555 1_555
H6A C8A 1_555 1_555
H7A C8A 1_555 1_555
C9A H8A 1_555 1_555
C10A N4A 1_555 1_555
H9A C10A 1_555 1_555
C11A C5A 1_555 1_555
H10A C11A 1_555 1_555
H11A C11A 1_555 1_555
C12A C7A 1_555 1_555
H12A C12A 1_555 1_555
C13A N2A 1_555 1_555
H13A C13A 1_555 1_555
C14A N4A 1_555 1_555
H14A C14A 1_555 1_555
H15A C14A 1_555 1_555
C15A C2A 1_555 1_555
H16A C15A 1_555 1_555
C16A C16 1_555 1_555
H17A C16A 1_555 1_555
H18A C16A 1_555 1_555
C17A N1A 1_555 1_555
H19A C17A 1_555 1_555
C18A C12A 1_555 1_555
H20A C18A 1_555 1_555
C19A N1A 1_555 1_555
H21A C19A 1_555 1_555
C20A N3A 1_555 1_555
H22A C20A 1_555 1_555
N3 C17 1_555 1_555
C10 C13 1_555 1_555
C11 C14 1_555 1_555
C15 C18 1_555 1_555
C19 C20 1_555 1_555
C1A C6A 1_555 1_555
C8A C16A 1_555 1_555
C10A C13A 1_555 1_555
C11A C14A 1_555 1_555
C15A C18A 1_555 1_555
C19A C20A 1_555 1_555

#END
