
#######################################################################
#
#                 Cambridge Crystallographic Data Centre
#                                CCDC 
#
#######################################################################
#
# If this CIF has been generated from an entry in the Cambridge 
# Structural Database, then it will include bibliographic, chemical, 
# crystal, experimental, refinement or atomic coordinate data resulting 
# from the CCDC's data processing and validation procedures.
#
#######################################################################

data_QOHKEE
_symmetry_cell_setting           triclinic
_symmetry_space_group_name_H-M   'P -1'
_symmetry_Int_Tables_number      2
_space_group_name_Hall           '-P 1'
loop_
_symmetry_equiv_pos_site_id
_symmetry_equiv_pos_as_xyz
1 x,y,z
2 -x,-y,-z
_cell_length_a                   9.021(3)
_cell_length_b                   13.004(5)
_cell_length_c                   25.752(7)
_cell_angle_alpha                82.509(12)
_cell_angle_beta                 86.757(13)
_cell_angle_gamma                71.119(14)
_cell_volume                     2833.67
loop_
_atom_site_label
_atom_site_type_symbol
_atom_site_fract_x
_atom_site_fract_y
_atom_site_fract_z
Co1 Co 0.59629(4) 0.00139(2) 0.257853(11)
C1 C 0.8717(3) -0.9008(2) 0.23502(11)
H1 H 0.9477 -0.9688 0.2422
C2 C 0.9008(4) -0.8069(2) 0.21723(11)
H2 H 0.9985 -0.7984 0.2096
C3 C 0.6499(3) -0.7755(2) 0.22683(10)
H3 H 0.5425 -0.7390 0.2267
C4 C 0.3181(3) -0.0938(2) 0.27459(11)
H4 H 0.2451 -0.0260 0.2643
C5 C 0.2838(4) -0.1855(3) 0.29154(12)
H5 H 0.1845 -0.1930 0.2947
C6 C 0.5350(3) -0.2204(2) 0.29254(10)
H6 H 0.6412 -0.2581 0.2970
C7 C 0.4402(5) -0.3793(3) 0.32568(13)
H7 H 0.3547 -0.3794 0.3502
H8 H 0.5373 -0.4091 0.3449
C8 C 0.4416(5) -0.4512(3) 0.28418(15)
H9 H 0.3647 -0.4097 0.2580
H10 H 0.4096 -0.5126 0.3001
C9 C 0.5982(4) -0.4947(3) 0.25714(13)
H11 H 0.6659 -0.5549 0.2799
H12 H 0.6466 -0.4374 0.2512
C10 C 0.5846(4) -0.5343(2) 0.20487(14)
H13 H 0.5027 -0.5682 0.2080
H14 H 0.5532 -0.4715 0.1783
C11 C 0.7323(5) -0.6140(2) 0.18720(13)
H15 H 0.7292 -0.6136 0.1496
H16 H 0.8199 -0.5904 0.1945
N1 N 0.4778(3) -0.11523(17) 0.27473(8)
N2 N 0.4222(3) -0.26555(19) 0.30326(9)
N3 N 0.7137(3) -0.88134(17) 0.24089(8)
N4 N 0.7591(3) -0.72677(18) 0.21265(8)
O17 O 0.4247(2) 0.08781(16) 0.19922(7)
H62 H 0.425(4) 0.075(3) 0.1664(15)
H63 H 0.363(4) 0.147(3) 0.2018(14)
O18 O 0.4474(2) 0.09642(15) 0.31135(7)
H64 H 0.485(4) 0.100(3) 0.3404(15)
H65 H 0.386(4) 0.156(3) 0.3041(11)
O19 O 0.7454(2) -0.09146(16) 0.20255(8)
H66 H 0.712(4) -0.095(3) 0.1707(14)
H67 H 0.803(4) -0.150(3) 0.2114(14)
O20 O 0.7685(2) -0.08277(16) 0.31579(7)
H68 H 0.825(4) -0.146(2) 0.3117(12)
H69 H 0.748(4) -0.074(3) 0.3459(12)
Co1_2 Co 0.59629(4) 1.00139(2) 0.257853(11)
Co1_3 Co 0.59629(4) -0.99861(2) 0.257853(11)
C1_2 C 0.8717(3) 0.0992(2) 0.23502(11)
H1_2 H 0.9477 0.0312 0.2422
C2_2 C 0.9008(4) 0.1931(2) 0.21723(11)
H2_2 H 0.9985 0.2016 0.2096
C3_2 C 0.6499(3) 0.2245(2) 0.22683(10)
H3_2 H 0.5425 0.2610 0.2267
C4_2 C 0.3181(3) 0.9062(2) 0.27459(11)
H4_2 H 0.2451 0.9740 0.2643
C5_2 C 0.2838(4) 0.8145(3) 0.29154(12)
H5_2 H 0.1845 0.8070 0.2947
C6_2 C 0.5350(3) 0.7796(2) 0.29254(10)
H6_2 H 0.6412 0.7419 0.2970
C7_2 C 0.4402(5) 0.6207(3) 0.32568(13)
H7_2 H 0.3547 0.6206 0.3502
H8_2 H 0.5373 0.5909 0.3449
C8_2 C 0.4416(5) 0.5488(3) 0.28418(15)
H9_2 H 0.3647 0.5903 0.2580
H10_2 H 0.4096 0.4874 0.3001
C9_2 C 0.5982(4) 0.5053(3) 0.25714(13)
H11_2 H 0.6659 0.4451 0.2799
H12_2 H 0.6466 0.5626 0.2512
C10_2 C 0.5846(4) 0.4657(2) 0.20487(14)
H13_2 H 0.5027 0.4318 0.2080
H14_2 H 0.5532 0.5285 0.1783
C11_2 C 0.7323(5) 0.3860(2) 0.18720(13)
H15_2 H 0.7292 0.3864 0.1496
H16_2 H 0.8199 0.4096 0.1945
N1_2 N 0.4778(3) 0.88477(17) 0.27473(8)
N2_2 N 0.4222(3) 0.73445(19) 0.30326(9)
N3_2 N 0.7137(3) 0.11866(17) 0.24089(8)
N3_3 N 0.7137(3) 1.11866(17) 0.24089(8)
N4_2 N 0.7591(3) 0.27323(18) 0.21265(8)
O17_2 O 0.4247(2) 1.08781(16) 0.19922(7)
H62_2 H 0.425(4) 1.075(3) 0.1664(15)
H63_2 H 0.363(4) 1.147(3) 0.2018(14)
O18_2 O 0.4474(2) 1.09642(15) 0.31135(7)
H64_2 H 0.485(4) 1.100(3) 0.3404(15)
H65_2 H 0.386(4) 1.156(3) 0.3041(11)
O19_2 O 0.7454(2) 0.90854(16) 0.20255(8)
H66_2 H 0.712(4) 0.905(3) 0.1707(14)
H67_2 H 0.803(4) 0.850(3) 0.2114(14)
O20_2 O 0.7685(2) 0.91723(16) 0.31579(7)
H68_2 H 0.825(4) 0.854(2) 0.3117(12)
H69_2 H 0.748(4) 0.926(3) 0.3459(12)
Co2 Co 0.5000 0.5000 0.5000
C12 C 0.3322(3) 0.6350(2) 0.58804(10)
H17 H 0.4128 0.6653 0.5868
C13 C 0.1929(3) 0.5377(2) 0.57310(14)
H18 H 0.1580 0.4869 0.5594
C16 C -0.2884(3) 1.26958(19) 0.53938(10)
H19 H -0.2032 1.2869 0.5233
C17 C -0.5221(3) 1.2774(2) 0.56424(10)
H20 H -0.6304 1.3020 0.5686
C18 C -0.4257(3) 1.1797(2) 0.58554(10)
H21 H -0.4547 1.1257 0.6068
C19 C -0.1316(3) 1.0864(2) 0.58314(12)
H22 H -0.1225 1.0721 0.6209
H23 H -0.0432 1.1090 0.5693
C20 C -0.1250(3) 0.9837(2) 0.56188(10)
H24 H -0.1284 0.9970 0.5239
H25 H -0.2162 0.9632 0.5742
C21 C 0.0229(3) 0.8894(2) 0.57821(10)
H26 H 0.0371 0.8317 0.5562
H27 H 0.1129 0.9150 0.5729
C22 C 0.0148(4) 0.8434(3) 0.63492(11)
H28 H -0.0727 0.8151 0.6399
H29 H -0.0039 0.9018 0.6568
C23 C 0.1649(5) 0.7524(3) 0.65194(11)
H30 H 0.2503 0.7828 0.6508
H31 H 0.1523 0.7228 0.6879
C44 C 0.1156(4) 0.6030(3) 0.60946(15)
H45 H 0.0192 0.6052 0.6251
N5 N 0.3303(3) 0.55813(17) 0.55968(8)
N6 N -0.4362(2) 1.33459(16) 0.53521(8)
N7 N -0.2782(3) 1.17620(16) 0.56973(8)
N12 N 0.2050(3) 0.6644(2) 0.61877(9)
O22 O 0.3204(3) 0.47192(19) 0.45758(9)
H72 H 0.324(4) 0.419(3) 0.4471(12)
H73 H 0.237(5) 0.516(3) 0.4431(16)
Co2_2 Co -0.5000 1.5000 0.5000
Co2_3 Co 1.5000 -0.5000 0.5000
C12A C 0.6678(3) 0.3650(2) 0.41196(10)
H17A H 0.5872 0.3347 0.4132
C13A C 0.8071(3) 0.4623(2) 0.42690(14)
H18A H 0.8420 0.5131 0.4406
C16A C 1.2884(3) -0.26958(19) 0.46062(10)
H19A H 1.2032 -0.2869 0.4767
C17A C 1.5221(3) -0.2774(2) 0.43576(10)
H20A H 1.6304 -0.3020 0.4314
C18A C 1.4257(3) -0.1797(2) 0.41446(10)
H21A H 1.4547 -0.1257 0.3932
C19A C 1.1316(3) -0.0864(2) 0.41686(12)
H22A H 1.1225 -0.0721 0.3791
H23A H 1.0432 -0.1090 0.4307
C20A C 1.1250(3) 0.0163(2) 0.43812(10)
H24A H 1.1284 0.0030 0.4761
H25A H 1.2162 0.0368 0.4258
C21A C 0.9771(3) 0.1106(2) 0.42179(10)
H26A H 0.9629 0.1683 0.4438
H27A H 0.8871 0.0850 0.4271
C22A C 0.9852(4) 0.1566(3) 0.36508(11)
H28A H 1.0727 0.1849 0.3601
H29A H 1.0039 0.0982 0.3432
C23A C 0.8351(5) 0.2476(3) 0.34806(11)
H30A H 0.7497 0.2172 0.3492
H31A H 0.8477 0.2772 0.3121
C44A C 0.8844(4) 0.3970(3) 0.39054(15)
H45A H 0.9808 0.3948 0.3749
N5A N 0.6697(3) 0.44187(17) 0.44032(8)
N6A N 1.4362(2) -0.33459(16) 0.46479(8)
N6_2 N 0.5638(2) 0.33459(16) 0.53521(8)
N6A_2 N 0.4362(2) 0.66541(16) 0.46479(8)
N7A N 1.2782(3) -0.17620(16) 0.43027(8)
N12A N 0.7950(3) 0.3356(2) 0.38123(9)
O22A O 0.6796(3) 0.52808(19) 0.54242(9)
H72A H 0.676(4) 0.581(3) 0.5529(12)
H73A H 0.763(5) 0.484(3) 0.5569(16)
Co3 Co 0.5000 0.5000 0.0000
C24 C 0.5667(3) 0.2966(2) 0.08756(10)
H32 H 0.4669 0.3203 0.1024
C25 C 0.7669(3) 0.2934(2) 0.03931(12)
H33 H 0.8345 0.3123 0.0141
C26 C 0.6775(3) 0.2012(2) 0.10273(10)
H34 H 0.6682 0.1468 0.1287
C29 C 1.4272(3) -0.3388(2) 0.08342(9)
H36 H 1.5055 -0.3115 0.0687
C30 C 1.2753(3) -0.4349(2) 0.09967(10)
H37 H 1.2277 -0.4880 0.0980
C31 C 1.2345(3) -0.3588(2) 0.13359(11)
H38 H 1.1557 -0.3501 0.1591
C32 C 1.3305(4) -0.2021(2) 0.14762(11)
H39 H 1.4117 -0.1737 0.1319
H40 H 1.3527 -0.2240 0.1846
C33 C 1.1717(4) -0.1126(2) 0.14136(14)
H41 H 1.0926 -0.1389 0.1604
H42 H 1.1758 -0.0494 0.1567
C34 C 1.1241(4) -0.0780(3) 0.08436(14)
C35 C 0.9686(5) 0.1209(3) 0.0799(2)
C37 C 0.9582(5) 0.0087(3) 0.07415(19)
N8 N 0.6227(2) 0.35409(17) 0.04691(8)
N9 N 1.3971(2) -0.42209(16) 0.06812(8)
N10 N 1.3322(3) -0.29740(16) 0.12277(8)
N11 N 0.8060(3) 0.20027(19) 0.07231(10)
O21 O 0.3060(2) 0.44094(18) -0.00064(8)
H70 H 0.234(5) 0.456(3) -0.0273(15)
H71 H 0.302(4) 0.386(3) 0.0118(13)
Co3_2 Co 1.5000 -0.5000 0.0000
Co3_3 Co -0.5000 1.5000 0.0000
C24A C 0.4333(3) 0.7034(2) -0.08756(10)
H32A H 0.5331 0.6797 -0.1024
C25A C 0.2331(3) 0.7066(2) -0.03931(12)
H33A H 0.1655 0.6877 -0.0141
C26A C 0.3225(3) 0.7988(2) -0.10273(10)
H34A H 0.3318 0.8532 -0.1287
C29A C -0.4272(3) 1.3388(2) -0.08342(9)
H36A H -0.5055 1.3115 -0.0687
C30A C -0.2753(3) 1.4349(2) -0.09967(10)
H37A H -0.2277 1.4880 -0.0980
C31A C -0.2345(3) 1.3588(2) -0.13359(11)
H38A H -0.1557 1.3501 -0.1591
C32A C -0.3305(4) 1.2021(2) -0.14762(11)
H39A H -0.4117 1.1737 -0.1319
H40A H -0.3527 1.2240 -0.1846
C33A C -0.1717(4) 1.1126(2) -0.14136(14)
H41A H -0.0926 1.1389 -0.1604
H42A H -0.1758 1.0494 -0.1567
C34A C -0.1241(4) 1.0780(3) -0.08436(14)
C35A C 0.0314(5) 0.8791(3) -0.0799(2)
C37A C 0.0418(5) 0.9913(3) -0.07415(19)
N8A N 0.3773(2) 0.64591(17) -0.04691(8)
N9A N -0.3971(2) 1.42209(16) -0.06812(8)
N9_2 N 0.3971(2) 0.57791(16) 0.06812(8)
N9A_2 N 0.6029(2) 0.42209(16) -0.06812(8)
N10A N -0.3322(3) 1.29740(16) -0.12277(8)
N11A N 0.1940(3) 0.79973(19) -0.07231(10)
O21A O 0.6940(2) 0.55906(18) 0.00064(8)
H70A H 0.766(5) 0.544(3) 0.0273(15)
H71A H 0.698(4) 0.614(3) -0.0118(13)
C14 C 0.5130(8) 1.0449(5) 0.4848(2)
C43 C 0.6030(4) 1.0219(3) 0.43356(11)
O7 O 0.7060(3) 0.93699(19) 0.42139(8)
O8 O 0.5566(3) 1.1085(2) 0.40399(8)
C14A C 0.4870(8) 0.9551(5) 0.5152(2)
C43A C 0.3970(4) 0.9781(3) 0.56644(11)
O7A O 0.2940(3) 1.06301(19) 0.57861(8)
O8A O 0.4434(3) 0.8915(2) 0.59601(8)
C27 C 0.5453(4) 0.9782(2) 0.07500(10)
C28 C 0.5527(4) 0.9794(3) 0.01556(11)
H35 H 0.6502 0.9440 0.0014
O5 O 0.4364(2) 1.04762(16) 0.09454(7)
O6 O 0.6538(3) 0.90263(19) 0.10103(8)
C27A C 0.4547(4) 1.0218(2) -0.07500(10)
C28A C 0.4473(4) 1.0206(3) -0.01556(11)
H35A H 0.3498 1.0560 -0.0014
O5A O 0.5636(2) 0.95238(16) -0.09454(7)
O6A O 0.3462(3) 1.09737(19) -0.10103(8)
C39 C 1.0986(3) 0.46558(19) 0.24628(10)
H43 H 1.0557 0.4921 0.2133
C40 C 1.2005(3) 0.34759(19) 0.25534(10)
C41 C 0.9740(3) 0.6525(2) 0.27326(10)
C42 C 1.0668(3) 0.53273(19) 0.28186(10)
H44 H 1.1046 0.5042 0.3153
O1 O 0.9564(3) 0.70415(16) 0.31166(8)
O2 O 0.9234(3) 0.69385(16) 0.22873(8)
O3 O 1.2340(3) 0.29680(16) 0.21619(8)
O4 O 1.2465(3) 0.30786(16) 0.30040(8)
O9 O 0.2625(3) 1.2463(2) 0.04574(9)
H46 H 0.204(5) 1.236(3) 0.0232(15)
H47 H 0.329(4) 1.1727(19) 0.0527(16)
O10 O 0.8948(3) 0.7643(2) 0.04118(9)
H48 H 0.821(5) 0.803(3) 0.0585(16)
H49 H 0.917(5) 0.698(3) 0.0562(16)
O11 O 0.3076(3) 1.2888(2) 0.41307(11)
H50 H 0.382(5) 1.230(3) 0.4120(14)
H51 H 0.291(5) 1.303(3) 0.3839(16)
O12 O 0.8811(3) 0.7521(2) 0.48390(10)
H52 H 0.816(5) 0.802(3) 0.4697(17)
H53 H 0.844(6) 0.737(4) 0.5123(15)
O13 O 0.0578(4) 0.6179(2) 0.41310(14)
H54 H 0.001(5) 0.652(4) 0.4366(15)
H55 H 0.039(5) 0.648(3) 0.3861(12)
O14 O 0.1221(3) 0.4538(2) -0.08212(10)
H56 H 0.069(5) 0.5217(17) -0.0878(15)
H57 H 0.140(6) 0.430(3) -0.1133(9)
O15 O 0.0835(4) 1.3549(3) 0.12280(11)
H58 H 0.150(7) 1.313(4) 0.104(2)
H59 H 0.136(6) 1.338(4) 0.149(2)
O16 O 0.7277(4) 0.6748(2) 0.15644(12)
H60 H 0.700(6) 0.750(2) 0.152(2)
H61 H 0.813(5) 0.663(4) 0.1777(18)
C15? C 0.5548(9) 0.9736(12) 0.4900(3)
C36? C 0.9168(17) 0.0813(15) 0.0553(5)
C38? C 0.9973(15) 0.0413(13) 0.1050(5)
loop_
_geom_bond_atom_site_label_1
_geom_bond_atom_site_label_2
_geom_bond_site_symmetry_1
_geom_bond_site_symmetry_2
Co1 N1 1_555 1_555
Co2 N5 1_555 1_555
Co3 N8 1_555 1_555
C1 H1 1_555 1_555
C2 C1 1_555 1_555
H2 C2 1_555 1_555
C3 H3 1_555 1_555
C4 H4 1_555 1_555
C5 C4 1_555 1_555
H5 C5 1_555 1_555
C6 H6 1_555 1_555
C7 H7 1_555 1_555
H8 C7 1_555 1_555
C8 C7 1_555 1_555
H9 C8 1_555 1_555
H10 C8 1_555 1_555
C9 C8 1_555 1_555
H11 C9 1_555 1_555
H12 C9 1_555 1_555
C10 C9 1_555 1_555
H13 C10 1_555 1_555
H14 C10 1_555 1_555
C11 C10 1_555 1_555
H15 C11 1_555 1_555
H16 C11 1_555 1_555
C12 H17 1_555 1_555
C13 H18 1_555 1_555
C14 C43 1_555 1_555
C16 H19 1_555 1_555
C17 H20 1_555 1_555
C18 C17 1_555 1_555
H21 C18 1_555 1_555
C19 H22 1_555 1_555
H23 C19 1_555 1_555
C20 C19 1_555 1_555
H24 C20 1_555 1_555
H25 C20 1_555 1_555
C21 C20 1_555 1_555
H26 C21 1_555 1_555
H27 C21 1_555 1_555
C22 C21 1_555 1_555
H28 C22 1_555 1_555
H29 C22 1_555 1_555
C23 C22 1_555 1_555
H30 C23 1_555 1_555
H31 C23 1_555 1_555
C24 H32 1_555 1_555
C25 H33 1_555 1_555
C26 C24 1_555 1_555
H34 C26 1_555 1_555
C27 C28 1_555 1_555
C28 H35 1_555 1_555
C29 H36 1_555 1_555
C30 H37 1_555 1_555
C31 C30 1_555 1_555
H38 C31 1_555 1_555
C32 H39 1_555 1_555
H40 C32 1_555 1_555
C33 C32 1_555 1_555
H41 C33 1_555 1_555
H42 C33 1_555 1_555
C34 C33 1_555 1_555
C35 C37 1_555 1_555
C37 C34 1_555 1_555
C39 H43 1_555 1_555
C40 C39 1_555 1_555
C41 C42 1_555 1_555
C42 C39 1_555 1_555
H44 C42 1_555 1_555
C43 O7 1_555 1_555
C44 C13 1_555 1_555
H45 C44 1_555 1_555
N1 C4 1_555 1_555
N2 C5 1_555 1_555
N3 C1 1_555 1_555
N4 C2 1_555 1_555
N5 C12 1_555 1_555
N6 C16 1_555 1_555
N7 C16 1_555 1_555
N8 C24 1_555 1_555
N9 C29 1_555 1_555
N10 C29 1_555 1_555
N11 C25 1_555 1_555
N12 C12 1_555 1_555
O1 C41 1_555 1_555
O2 C41 1_555 1_555
O3 C40 1_555 1_555
O4 C40 1_555 1_555
O5 C27 1_555 1_555
O6 C27 1_555 1_555
O8 C43 1_555 1_555
O9 H46 1_555 1_555
H47 O9 1_555 1_555
O10 H48 1_555 1_555
H49 O10 1_555 1_555
O11 H50 1_555 1_555
H51 O11 1_555 1_555
O12 H52 1_555 1_555
H53 O12 1_555 1_555
O13 H54 1_555 1_555
H55 O13 1_555 1_555
O14 H56 1_555 1_555
H57 O14 1_555 1_555
O15 H58 1_555 1_555
H59 O15 1_555 1_555
O16 H60 1_555 1_555
H61 O16 1_555 1_555
O17 Co1 1_555 1_555
H62 O17 1_555 1_555
H63 O17 1_555 1_555
O18 Co1 1_555 1_555
H64 O18 1_555 1_555
H65 O18 1_555 1_555
O19 Co1 1_555 1_555
H66 O19 1_555 1_555
H67 O19 1_555 1_555
O20 Co1 1_555 1_555
H68 O20 1_555 1_555
H69 O20 1_555 1_555
O21 Co3 1_555 1_555
H70 O21 1_555 1_555
H71 O21 1_555 1_555
O22 Co2 1_555 1_555
H72 O22 1_555 1_555
H73 O22 1_555 1_555
Co1_2 N1_2 1_555 1_555
Co1_3 N3 1_555 1_555
Co2_2 N6 1_555 1_555
Co2_3 N6A 1_555 1_555
Co3_2 N9 1_555 1_555
Co3_3 N9A 1_555 1_555
C1_2 H1_2 1_555 1_555
C2_2 C1_2 1_555 1_555
H2_2 C2_2 1_555 1_555
C3_2 H3_2 1_555 1_555
C4_2 H4_2 1_555 1_555
C5_2 C4_2 1_555 1_555
H5_2 C5_2 1_555 1_555
C6_2 H6_2 1_555 1_555
C7_2 H7_2 1_555 1_555
H8_2 C7_2 1_555 1_555
C8_2 C7_2 1_555 1_555
H9_2 C8_2 1_555 1_555
H10_2 C8_2 1_555 1_555
C9_2 C8_2 1_555 1_555
H11_2 C9_2 1_555 1_555
H12_2 C9_2 1_555 1_555
C10_2 C9_2 1_555 1_555
H13_2 C10_2 1_555 1_555
H14_2 C10_2 1_555 1_555
C11_2 C10_2 1_555 1_555
H15_2 C11_2 1_555 1_555
H16_2 C11_2 1_555 1_555
C12A H17A 1_555 1_555
C13A H18A 1_555 1_555
C14A C14 1_555 1_555
C16A H19A 1_555 1_555
C17A H20A 1_555 1_555
C18A C17A 1_555 1_555
H21A C18A 1_555 1_555
C19A H22A 1_555 1_555
H23A C19A 1_555 1_555
C20A C19A 1_555 1_555
H24A C20A 1_555 1_555
H25A C20A 1_555 1_555
C21A C20A 1_555 1_555
H26A C21A 1_555 1_555
H27A C21A 1_555 1_555
C22A C21A 1_555 1_555
H28A C22A 1_555 1_555
H29A C22A 1_555 1_555
C23A C22A 1_555 1_555
H30A C23A 1_555 1_555
H31A C23A 1_555 1_555
C24A H32A 1_555 1_555
C25A H33A 1_555 1_555
C26A C24A 1_555 1_555
H34A C26A 1_555 1_555
C27A C28A 1_555 1_555
C28A C28 1_555 1_555
H35A C28A 1_555 1_555
C29A H36A 1_555 1_555
C30A H37A 1_555 1_555
C31A C30A 1_555 1_555
H38A C31A 1_555 1_555
C32A H39A 1_555 1_555
H40A C32A 1_555 1_555
C33A C32A 1_555 1_555
H41A C33A 1_555 1_555
H42A C33A 1_555 1_555
C34A C33A 1_555 1_555
C35A C37A 1_555 1_555
C37A C34A 1_555 1_555
C43A C14A 1_555 1_555
C44A C13A 1_555 1_555
H45A C44A 1_555 1_555
N1_2 C4_2 1_555 1_555
N2_2 C5_2 1_555 1_555
N3_2 Co1 1_555 1_555
N3_3 Co1_2 1_555 1_555
N4_2 C2_2 1_555 1_555
N5A Co2 1_555 1_555
N6A C16A 1_555 1_555
N6_2 Co2 1_555 1_555
N6A_2 Co2 1_555 1_555
N7A C16A 1_555 1_555
N8A Co3 1_555 1_555
N9A C29A 1_555 1_555
N9_2 Co3 1_555 1_555
N9A_2 Co3 1_555 1_555
N10A C29A 1_555 1_555
N11A C25A 1_555 1_555
N12A C12A 1_555 1_555
O5A C27A 1_555 1_555
O6A C27A 1_555 1_555
O7A C43A 1_555 1_555
O8A C43A 1_555 1_555
O17_2 Co1_2 1_555 1_555
H62_2 O17_2 1_555 1_555
H63_2 O17_2 1_555 1_555
O18_2 Co1_2 1_555 1_555
H64_2 O18_2 1_555 1_555
H65_2 O18_2 1_555 1_555
O19_2 Co1_2 1_555 1_555
H66_2 O19_2 1_555 1_555
H67_2 O19_2 1_555 1_555
O20_2 Co1_2 1_555 1_555
H68_2 O20_2 1_555 1_555
H69_2 O20_2 1_555 1_555
O21A Co3 1_555 1_555
H70A O21A 1_555 1_555
H71A O21A 1_555 1_555
O22A Co2 1_555 1_555
H72A O22A 1_555 1_555
H73A O22A 1_555 1_555
C3 N3 1_555 1_555
C3 N4 1_555 1_555
C6 N1 1_555 1_555
C6 N2 1_555 1_555
C7 N2 1_555 1_555
C11 N4 1_555 1_555
C13 N5 1_555 1_555
C17 N6 1_555 1_555
C18 N7 1_555 1_555
C19 N7 1_555 1_555
C23 N12 1_555 1_555
C25 N8 1_555 1_555
C26 N11 1_555 1_555
C30 N9 1_555 1_555
C31 N10 1_555 1_555
C32 N10 1_555 1_555
C35 N11 1_555 1_555
C44 N12 1_555 1_555
C1_2 N3_2 1_555 1_555
C3_2 N3_2 1_555 1_555
C3_2 N4_2 1_555 1_555
C6_2 N1_2 1_555 1_555
C6_2 N2_2 1_555 1_555
C7_2 N2_2 1_555 1_555
C11_2 N4_2 1_555 1_555
C12A N5A 1_555 1_555
C13A N5A 1_555 1_555
C17A N6A 1_555 1_555
C18A N7A 1_555 1_555
C19A N7A 1_555 1_555
C23A N12A 1_555 1_555
C24A N8A 1_555 1_555
C25A N8A 1_555 1_555
C26A N11A 1_555 1_555
C30A N9A 1_555 1_555
C31A N10A 1_555 1_555
C32A N10A 1_555 1_555
C35A N11A 1_555 1_555
C44A N12A 1_555 1_555

#END
