
#######################################################################
#
#                 Cambridge Crystallographic Data Centre
#                                CCDC 
#
#######################################################################
#
# If this CIF has been generated from an entry in the Cambridge 
# Structural Database, then it will include bibliographic, chemical, 
# crystal, experimental, refinement or atomic coordinate data resulting 
# from the CCDC's data processing and validation procedures.
#
#######################################################################

data_QOHLAB
_symmetry_cell_setting           triclinic
_symmetry_space_group_name_H-M   'P -1'
_symmetry_Int_Tables_number      2
_space_group_name_Hall           '-P 1'
loop_
_symmetry_equiv_pos_site_id
_symmetry_equiv_pos_as_xyz
1 x,y,z
2 -x,-y,-z
_cell_length_a                   5.669(2)
_cell_length_b                   8.868(6)
_cell_length_c                   10.497(8)
_cell_angle_alpha                76.781(3)
_cell_angle_beta                 86.480(4)
_cell_angle_gamma                84.391(3)
_cell_volume                     510.855
loop_
_atom_site_label
_atom_site_type_symbol
_atom_site_fract_x
_atom_site_fract_y
_atom_site_fract_z
Cd1 Cd 1.0000 1.0000 1.0000
C1 C 0.8046(6) 0.9046(4) 1.2939(3)
C2 C 0.6436(5) 0.9541(4) 1.4007(3)
C3 C 0.4246(6) 1.0358(4) 1.3731(3)
H1 H 0.3737 1.0604 1.2877
C4 C 0.7184(6) 0.9192(4) 1.5283(3)
H2 H 0.8655 0.8652 1.5477
C5 C 1.0800(7) 0.7277(4) 0.8422(3)
H3 H 1.2251 0.7660 0.8123
C6 C 0.7412(7) 0.6985(4) 0.9400(4)
H4 H 0.6045 0.7136 0.9908
C7 C 0.7855(7) 0.5832(5) 0.8749(4)
H5 H 0.6880 0.5052 0.8735
C8 C 1.1247(9) 0.5011(5) 0.7332(4)
H6 H 1.0076 0.4535 0.6953
H7 H 1.2175 0.4184 0.7909
C9 C 1.2845(7) 0.5792(4) 0.6262(4)
H8 H 1.3983 0.6309 0.6626
H9 H 1.1918 0.6578 0.5649
C10 C 1.4161(8) 0.4646(4) 0.5539(4)
H10 H 1.5046 0.3849 0.6164
H11 H 1.3009 0.4142 0.5172
N1 N 0.9261(5) 0.7891(3) 0.9203(3)
N2 N 1.0005(6) 0.6037(3) 0.8118(3)
O1 O 0.7315(4) 0.9437(3) 1.1774(2)
O2 O 0.9971(4) 0.8309(3) 1.3260(2)
O3 O 1.3035(5) 0.8390(3) 1.1242(3)
H12 H 1.226(8) 0.820(5) 1.192(4)
H13 H 1.410(7) 0.867(5) 1.140(4)
Cd1_2 Cd 0.0000 1.0000 2.0000
Cd1_3 Cd 2.0000 0.0000 0.0000
C1A C 0.1954(6) 1.0954(4) 1.7061(3)
C2A C 0.3564(5) 1.0459(4) 1.5993(3)
C3A C 0.5754(6) 0.9642(4) 1.6269(3)
H1A H 0.6263 0.9396 1.7123
C4A C 0.2816(6) 1.0808(4) 1.4717(3)
H2A H 0.1345 1.1348 1.4523
C5A C 1.9200(7) 0.2723(4) 0.1578(3)
H3A H 1.7749 0.2340 0.1877
C6A C 2.2588(7) 0.3015(4) 0.0600(4)
H4A H 2.3955 0.2864 0.0092
C7A C 2.2145(7) 0.4168(5) 0.1251(4)
H5A H 2.3120 0.4948 0.1265
C8A C 1.8753(9) 0.4989(5) 0.2668(4)
H6A H 1.9924 0.5465 0.3047
H7A H 1.7825 0.5816 0.2091
C9A C 1.7155(7) 0.4208(4) 0.3738(4)
H8A H 1.6017 0.3691 0.3374
H9A H 1.8082 0.3422 0.4351
C10A C 1.5839(8) 0.5354(4) 0.4461(4)
H10A H 1.4954 0.6151 0.3836
H11A H 1.6991 0.5858 0.4828
N1A N 2.0739(5) 0.2109(3) 0.0797(3)
N1A_2 N 1.0739(5) 1.2109(3) 1.0797(3)
N2A N 1.9995(6) 0.3963(3) 0.1882(3)
O1A O 0.2685(4) 1.0563(3) 1.8226(2)
O1A_2 O 1.2685(4) 1.0563(3) 0.8226(2)
O2A O 0.0029(4) 1.1691(3) 1.6740(2)
O3A O 0.6965(5) 1.1610(3) 0.8758(3)
H12A H 0.774(8) 1.180(5) 0.808(4)
H13A H 0.590(7) 1.133(5) 0.860(4)
loop_
_geom_bond_atom_site_label_1
_geom_bond_atom_site_label_2
_geom_bond_site_symmetry_1
_geom_bond_site_symmetry_2
Cd1 N1 1_555 1_555
C1 C2 1_555 1_555
C2 C3 1_555 1_555
C3 H1 1_555 1_555
C4 C2 1_555 1_555
H2 C4 1_555 1_555
C5 H3 1_555 1_555
C6 H4 1_555 1_555
C7 C6 1_555 1_555
H5 C7 1_555 1_555
C8 H6 1_555 1_555
H7 C8 1_555 1_555
C9 C8 1_555 1_555
H8 C9 1_555 1_555
H9 C9 1_555 1_555
C10 C9 1_555 1_555
H10 C10 1_555 1_555
H11 C10 1_555 1_555
N1 C5 1_555 1_555
N2 C5 1_555 1_555
O1 Cd1 1_555 1_555
O2 C1 1_555 1_555
O3 Cd1 1_555 1_555
H12 O3 1_555 1_555
H13 O3 1_555 1_555
Cd1_2 O1A 1_555 1_555
Cd1_3 N1A 1_555 1_555
C1A C2A 1_555 1_555
C2A C3A 1_555 1_555
C3A C4 1_555 1_555
H1A C3A 1_555 1_555
C4A C3 1_555 1_555
H2A C4A 1_555 1_555
C5A H3A 1_555 1_555
C6A H4A 1_555 1_555
C7A C6A 1_555 1_555
H5A C7A 1_555 1_555
C8A H6A 1_555 1_555
H7A C8A 1_555 1_555
C9A C8A 1_555 1_555
H8A C9A 1_555 1_555
H9A C9A 1_555 1_555
C10A C10 1_555 1_555
H10A C10A 1_555 1_555
H11A C10A 1_555 1_555
N1A C5A 1_555 1_555
N1A_2 Cd1 1_555 1_555
N2A C5A 1_555 1_555
O1A C1A 1_555 1_555
O1A_2 Cd1 1_555 1_555
O2A C1A 1_555 1_555
O3A Cd1 1_555 1_555
H12A O3A 1_555 1_555
H13A O3A 1_555 1_555
C1 O1 1_555 1_555
C6 N1 1_555 1_555
C7 N2 1_555 1_555
C8 N2 1_555 1_555
C2A C4A 1_555 1_555
C6A N1A 1_555 1_555
C7A N2A 1_555 1_555
C8A N2A 1_555 1_555
C9A C10A 1_555 1_555

#END
