
#######################################################################
#
#                 Cambridge Crystallographic Data Centre
#                                CCDC 
#
#######################################################################
#
# If this CIF has been generated from an entry in the Cambridge 
# Structural Database, then it will include bibliographic, chemical, 
# crystal, experimental, refinement or atomic coordinate data resulting 
# from the CCDC's data processing and validation procedures.
#
#######################################################################

data_QOHNOR
_symmetry_cell_setting           triclinic
_symmetry_space_group_name_H-M   'P -1'
_symmetry_Int_Tables_number      2
_space_group_name_Hall           '-P 1'
loop_
_symmetry_equiv_pos_site_id
_symmetry_equiv_pos_as_xyz
1 x,y,z
2 -x,-y,-z
_cell_length_a                   6.8182(14)
_cell_length_b                   7.4385(15)
_cell_length_c                   17.597(4)
_cell_angle_alpha                94.33(3)
_cell_angle_beta                 95.51(3)
_cell_angle_gamma                97.04(3)
_cell_volume                     878.202
loop_
_atom_site_label
_atom_site_type_symbol
_atom_site_fract_x
_atom_site_fract_y
_atom_site_fract_z
C1 C 0.1465(5) 0.3633(5) 0.7504(2)
H1 H 0.0900 0.2996 0.7044
C2 C 0.0371(5) 0.3571(5) 0.8135(2)
H2 H -0.0871 0.2877 0.8099
C3 C 0.1163(5) 0.4554(5) 0.8811(2)
H3 H 0.0454 0.4552 0.9237
C4 C 0.3065(5) 0.5567(4) 0.88505(19)
C5 C 0.4019(5) 0.6655(5) 0.95348(19)
C6 C 0.3975(7) 0.7720(6) 1.0780(2)
H4 H 0.3349 0.7793 1.1226
C7 C 0.5833(6) 0.8670(6) 1.0785(2)
H5 H 0.6410 0.9353 1.1232
C8 C 0.5923(5) 0.7626(5) 0.95368(19)
C9 C 0.6950(5) 0.7556(4) 0.88546(18)
C10 C 0.8803(5) 0.8568(5) 0.8811(2)
H6 H 0.9449 0.9304 0.9235
C11 C 0.9652(5) 0.8458(5) 0.8135(2)
H7 H 1.0850 0.9166 0.8088
C12 C 0.8706(5) 0.7282(5) 0.7521(2)
H8 H 0.9322 0.7185 0.7073
C13 C 0.6048(5) 0.6467(4) 0.81986(18)
C14 C 0.4065(5) 0.5496(4) 0.81917(18)
C15 C 0.2909(5) 0.2338(4) 0.51956(19)
H9 H 0.2786 0.3464 0.5013
C16 C 0.2303(5) 0.0764(5) 0.47187(19)
H10 H 0.1864 0.0859 0.4208
C17 C 0.2995(4) -0.0978(4) 0.57046(18)
C18 C 0.3705(4) 0.0588(4) 0.61853(18)
C19 C 0.4637(5) 0.0624(4) 0.70088(19)
C20 C 0.2922(5) -0.2897(4) 0.59674(18)
N1 N 0.3264(4) 0.4548(4) 0.75254(16)
N2 N 0.6958(4) 0.6289(4) 0.75485(16)
N3 N 0.3011(5) 0.6688(4) 1.01630(18)
N4 N 0.6851(4) 0.8651(4) 1.01670(16)
N5 N 0.3670(4) 0.2246(3) 0.59162(15)
N6 N 0.2325(4) -0.0890(4) 0.49668(16)
O1 O 0.5909(4) 0.1986(3) 0.72302(14)
O2 O 0.4028(4) -0.0644(3) 0.73822(15)
O3 O 0.7787(4) 0.4153(4) 0.60219(17)
O4 O 0.1259(4) -0.3694(4) 0.60309(17)
O5 O 0.4569(4) -0.3489(3) 0.60538(14)
Zn1 Zn 0.53349(6) 0.44251(5) 0.66695(2)
H11 H 0.781(7) 0.325(7) 0.575(3)
H12 H 0.884(8) 0.476(7) 0.600(3)
O5_2 O 0.4569(4) 0.6511(3) 0.60538(14)
Zn1_2 Zn 0.53349(6) -0.55749(5) 0.66695(2)
loop_
_geom_bond_atom_site_label_1
_geom_bond_atom_site_label_2
_geom_bond_site_symmetry_1
_geom_bond_site_symmetry_2
C1 H1 1_555 1_555
C2 C1 1_555 1_555
H2 C2 1_555 1_555
C3 C2 1_555 1_555
H3 C3 1_555 1_555
C4 C3 1_555 1_555
C5 C4 1_555 1_555
C6 H4 1_555 1_555
C7 C6 1_555 1_555
H5 C7 1_555 1_555
C8 C5 1_555 1_555
C9 C8 1_555 1_555
C10 C9 1_555 1_555
H6 C10 1_555 1_555
C11 C10 1_555 1_555
H7 C11 1_555 1_555
C12 C11 1_555 1_555
H8 C12 1_555 1_555
C13 C9 1_555 1_555
C14 C4 1_555 1_555
C15 H9 1_555 1_555
C16 C15 1_555 1_555
H10 C16 1_555 1_555
C17 C18 1_555 1_555
C18 C19 1_555 1_555
C19 O1 1_555 1_555
C20 C17 1_555 1_555
N1 C1 1_555 1_555
N2 C12 1_555 1_555
N3 C5 1_555 1_555
N4 C7 1_555 1_555
N5 C15 1_555 1_555
N6 C16 1_555 1_555
O1 Zn1 1_555 1_555
O2 C19 1_555 1_555
O3 Zn1 1_555 1_555
O4 C20 1_555 1_555
O5 C20 1_555 1_555
Zn1 N1 1_555 1_555
H11 O3 1_555 1_555
H12 O3 1_555 1_555
O5_2 Zn1 1_555 1_555
Zn1_2 O5 1_555 1_555
C6 N3 1_555 1_555
C8 N4 1_555 1_555
C13 C14 1_555 1_555
C13 N2 1_555 1_555
C14 N1 1_555 1_555
C17 N6 1_555 1_555
C18 N5 1_555 1_555
N2 Zn1 1_555 1_555
N5 Zn1 1_555 1_555

#END
