
#######################################################################
#
#                 Cambridge Crystallographic Data Centre
#                                CCDC 
#
#######################################################################
#
# If this CIF has been generated from an entry in the Cambridge 
# Structural Database, then it will include bibliographic, chemical, 
# crystal, experimental, refinement or atomic coordinate data resulting 
# from the CCDC's data processing and validation procedures.
#
#######################################################################

data_QOHRUA
_symmetry_cell_setting           orthorhombic
_symmetry_space_group_name_H-M   'C m c a'
_symmetry_Int_Tables_number      64
_space_group_name_Hall           '-C 2ac 2'
loop_
_symmetry_equiv_pos_site_id
_symmetry_equiv_pos_as_xyz
1 x,y,z
2 1/2+x,1/2+y,z
3 x,1/2+y,1/2-z
4 x,1/2-y,1/2+z
5 -x,y,z
6 1/2+x,y,1/2-z
7 1/2+x,-y,1/2+z
8 1/2-x,1/2+y,z
9 -x,-y,-z
10 1/2-x,1/2-y,-z
11 -x,1/2-y,1/2+z
12 -x,1/2+y,1/2-z
13 x,-y,-z
14 1/2-x,-y,1/2+z
15 1/2-x,y,1/2-z
16 1/2+x,1/2-y,-z
_cell_length_a                   9.982(1)
_cell_length_b                   12.998(2)
_cell_length_c                   23.862(3)
_cell_angle_alpha                90
_cell_angle_beta                 90
_cell_angle_gamma                90
_cell_volume                     3096
loop_
_atom_site_label
_atom_site_type_symbol
_atom_site_fract_x
_atom_site_fract_y
_atom_site_fract_z
Fe1 Fe 0.0000 0.00221(11) 0.05833(4)
Na1 Na 0.0000 -0.4058(2) 0.05203(14)
C1 C 0.0000 0.0061(9) 0.1319(3)
O1 O 0.0000 0.0103(8) 0.1805(2)
C2 C 0.0000 -0.1336(5) 0.0517(3)
O2 O 0.0000 -0.2226(3) 0.0499(2)
C3 C -0.1552(4) 0.0647(3) 0.05055(18)
O3 O -0.2620(3) 0.1038(2) 0.04766(13)
O4 O 0.0000 -0.5944(4) 0.0515(2)
C4 C -0.1161(5) -0.6472(4) 0.0743(2)
H1 H -0.1372 -0.7094 0.0520
H2 H -0.1954 -0.6014 0.0744
C5 C -0.0766(5) -0.6762(5) 0.1337(2)
H3 H -0.1117 -0.7451 0.1436
H4 H -0.1117 -0.6253 0.1609
O5 O 0.0000 -0.3995(5) 0.1504(2)
C6 C 0.1134(7) -0.3678(7) 0.1813(3)
H5 H 0.1885 -0.3518 0.1557
H6 H 0.1421 -0.4230 0.2072
C7 C 0.0746(6) -0.2759(6) 0.2128(3)
H7 H 0.1097 -0.2131 0.1945
H8 H 0.1097 -0.2791 0.2516
C5D C 0.0766(5) -0.6762(5) 0.1337(2)
C4D C 0.1161(5) -0.6472(4) 0.0743(2)
H1D H 0.1372 -0.7094 0.0520
H2D H 0.1954 -0.6014 0.0744
H3D H 0.1117 -0.7451 0.1436
H4D H 0.1117 -0.6253 0.1609
C7D C -0.0746(6) -0.2759(6) 0.2128(3)
C6D C -0.1134(7) -0.3678(7) 0.1813(3)
H5D H -0.1885 -0.3518 0.1557
H6D H -0.1421 -0.4230 0.2072
H7D H -0.1097 -0.2131 0.1945
H8D H -0.1097 -0.2791 0.2516
C3D C 0.1552(4) 0.0647(3) 0.05055(18)
O3D O 0.2620(3) 0.1038(2) 0.04766(13)
Fe1H Fe 0.0000 -0.00221(11) -0.05833(4)
O3A O 0.2380(3) -0.3962(2) 0.04766(13)
O3G O -0.2380(3) -0.3962(2) 0.04766(13)
O4H O 0.0000 -0.4056(4) -0.0515(2)
Na1A Na -0.5000 0.0942(2) 0.05203(14)
Na1H Na 0.0000 -0.5942(2) -0.05203(14)
Na1A_2 Na 0.5000 0.0942(2) 0.05203(14)
loop_
_geom_bond_atom_site_label_1
_geom_bond_atom_site_label_2
_geom_bond_site_symmetry_1
_geom_bond_site_symmetry_2
Fe1 C1 1_555 1_555
Na1 O2 1_555 1_555
C1 O1 1_555 1_555
C2 Fe1 1_555 1_555
O2 C2 1_555 1_555
C3 Fe1 1_555 1_555
O3 C3 1_555 1_555
O4 Na1 1_555 1_555
C4 O4 1_555 1_555
H1 C4 1_555 1_555
H2 C4 1_555 1_555
C5 C4 1_555 1_555
H3 C5 1_555 1_555
H4 C5 1_555 1_555
O5 Na1 1_555 1_555
C6 O5 1_555 1_555
H5 C6 1_555 1_555
H6 C6 1_555 1_555
C7 C6 1_555 1_555
H7 C7 1_555 1_555
H8 C7 1_555 1_555
C5D C5 1_555 1_555
C4D O4 1_555 1_555
H1D C4D 1_555 1_555
H2D C4D 1_555 1_555
H3D C5D 1_555 1_555
H4D C5D 1_555 1_555
C7D C7 1_555 1_555
C6D O5 1_555 1_555
H5D C6D 1_555 1_555
H6D C6D 1_555 1_555
H7D C7D 1_555 1_555
H8D C7D 1_555 1_555
C3D Fe1 1_555 1_555
O3D C3D 1_555 1_555
Fe1H Fe1 1_555 1_555
O3A Na1 1_555 1_555
O3G Na1 1_555 1_555
O4H Na1 1_555 1_555
Na1A O3 1_555 1_555
Na1H O4 1_555 1_555
Na1A_2 O3D 1_555 1_555
C5D C4D 1_555 1_555
C7D C6D 1_555 1_555
O4H Na1H 1_555 1_555

#END
