
#######################################################################
#
#                 Cambridge Crystallographic Data Centre
#                                CCDC 
#
#######################################################################
#
# If this CIF has been generated from an entry in the Cambridge 
# Structural Database, then it will include bibliographic, chemical, 
# crystal, experimental, refinement or atomic coordinate data resulting 
# from the CCDC's data processing and validation procedures.
#
#######################################################################

data_QOHYIX
_symmetry_cell_setting           monoclinic
_symmetry_space_group_name_H-M   'P 21/c'
_symmetry_Int_Tables_number      14
_space_group_name_Hall           '-P 2ybc'
loop_
_symmetry_equiv_pos_site_id
_symmetry_equiv_pos_as_xyz
1 x,y,z
2 -x,1/2+y,1/2-z
3 -x,-y,-z
4 x,1/2-y,1/2+z
_cell_length_a                   14.9652(10)
_cell_length_b                   16.3097(12)
_cell_length_c                   24.4444(18)
_cell_angle_alpha                90
_cell_angle_beta                 91.698(2)
_cell_angle_gamma                90
_cell_volume                     5963.72
loop_
_atom_site_label
_atom_site_type_symbol
_atom_site_fract_x
_atom_site_fract_y
_atom_site_fract_z
Zn1 Zn 0.38536(5) 0.27876(5) 0.29072(3)
I1 I 0.47301(3) 0.14983(3) 0.26819(2)
I2 I 0.47355(3) 0.40824(3) 0.31624(2)
N1 N 0.2983(4) 0.2546(4) 0.3516(2)
N2 N 0.1774(4) 0.2072(3) 0.5343(2)
N3 N 0.2989(4) 0.2051(3) 0.7248(2)
C1 C 0.2368(4) 0.1948(4) 0.3470(3)
H1 H 0.2318 0.1654 0.3134
C2 C 0.1807(5) 0.1739(4) 0.3883(3)
H2 H 0.1371 0.1321 0.3830
C3 C 0.1890(4) 0.2151(4) 0.4380(3)
C4 C 0.2533(5) 0.2775(4) 0.4432(3)
H3 H 0.2610 0.3069 0.4766
C5 C 0.3048(5) 0.2952(4) 0.3995(3)
H4 H 0.3472 0.3383 0.4030
C6 C 0.1360(4) 0.1931(4) 0.4859(3)
C7 C 0.0508(4) 0.1590(4) 0.4806(3)
H5 H 0.0242 0.1494 0.4454
C8 C 0.0051(4) 0.1392(4) 0.5279(3)
C9 C 0.0472(4) 0.1538(4) 0.5782(3)
H6 H 0.0178 0.1416 0.6111
C10 C 0.1342(4) 0.1871(4) 0.5798(3)
C11 C 0.3324(5) 0.2106(4) 0.6747(3)
H7 H 0.3951 0.2182 0.6717
C12 C 0.2814(4) 0.2059(4) 0.6278(3)
H8 H 0.3081 0.2100 0.5931
C13 C 0.1890(4) 0.1948(4) 0.6314(3)
C14 C 0.1543(5) 0.1891(5) 0.6829(3)
H9 H 0.0917 0.1828 0.6870
C15 C 0.2106(5) 0.1925(5) 0.7281(3)
H10 H 0.1861 0.1857 0.7632
C16 C -0.0834(4) 0.0984(4) 0.5233(3)
C17 C -0.1019(4) 0.0463(4) 0.4795(3)
H11 H -0.0579 0.0377 0.4528
C18 C -0.1833(4) 0.0070(4) 0.4741(3)
H12 H -0.1946 -0.0281 0.4437
C19 C -0.2495(4) 0.0179(4) 0.5125(3)
C20 C -0.2310(5) 0.0703(4) 0.5560(3)
H13 H -0.2756 0.0795 0.5821
C21 C -0.1492(5) 0.1095(4) 0.5625(3)
H14 H -0.1376 0.1437 0.5934
C22 C -0.3345(4) -0.0284(4) 0.5086(3)
C23 C -0.3833(4) -0.0392(4) 0.4575(3)
C24 C -0.3607(5) 0.0005(5) 0.4080(3)
H15 H -0.3109 0.0366 0.4079
C25 C -0.4097(5) -0.0124(5) 0.3604(3)
H16 H -0.3934 0.0147 0.3278
C26 C -0.4846(5) -0.0661(5) 0.3596(3)
H17 H -0.5170 -0.0765 0.3263
C27 C -0.5093(5) -0.1022(5) 0.4064(4)
H18 H -0.5604 -0.1367 0.4057
C28 C -0.4615(5) -0.0904(4) 0.4569(3)
C29 C -0.4905(5) -0.1239(5) 0.5067(4)
H19 H -0.5433 -0.1562 0.5064
C30 C -0.4455(5) -0.1115(5) 0.5546(3)
H20 H -0.4666 -0.1345 0.5875
C31 C -0.3667(4) -0.0637(4) 0.5552(3)
H21 H -0.3349 -0.0557 0.5890
Zn1C Zn 0.38536(5) 0.22124(5) 0.79072(3)
N3C N 0.2989(4) 0.2949(3) 0.2248(2)
Zn2 Zn 0.13327(5) 0.68011(5) 0.19193(3)
I3 I 0.07102(4) 0.53626(4) 0.17674(2)
I4 I 0.01931(3) 0.79688(4) 0.19721(2)
N4 N 0.2165(4) 0.6807(4) 0.2599(2)
N5 N 0.3354(4) 0.7066(3) 0.4493(2)
N6 N 0.2190(4) 0.7880(4) 0.6305(2)
C32 C 0.2705(5) 0.6163(4) 0.2714(3)
H22 H 0.2701 0.5713 0.2467
C33 C 0.3261(5) 0.6130(4) 0.3172(3)
H23 H 0.3639 0.5670 0.3236
C34 C 0.3261(4) 0.6784(4) 0.3542(3)
C35 C 0.2696(5) 0.7440(5) 0.3423(3)
H24 H 0.2671 0.7891 0.3667
C36 C 0.2174(5) 0.7436(5) 0.2951(3)
H25 H 0.1804 0.7897 0.2872
C37 C 0.3779(5) 0.6756(4) 0.4063(3)
C38 C 0.4629(4) 0.6395(4) 0.4109(3)
H26 H 0.4917 0.6198 0.3794
C39 C 0.5043(4) 0.6331(4) 0.4626(3)
C40 C 0.4584(4) 0.6633(4) 0.5071(3)
H27 H 0.4841 0.6589 0.5430
C41 C 0.3751(4) 0.6998(4) 0.4990(3)
C42 C 0.1831(5) 0.7737(4) 0.5806(3)
H28 H 0.1208 0.7825 0.5748
C43 C 0.2318(5) 0.7469(4) 0.5376(3)
H29 H 0.2037 0.7390 0.5026
C44 C 0.3231(4) 0.7313(4) 0.5454(3)
C45 C 0.3606(5) 0.7475(4) 0.5970(3)
H30 H 0.4228 0.7392 0.6038
C46 C 0.3081(5) 0.7753(5) 0.6381(3)
H31 H 0.3350 0.7861 0.6731
C47 C 0.5922(4) 0.5915(4) 0.4714(3)
C48 C 0.6598(5) 0.5962(4) 0.4337(3)
H32 H 0.6498 0.6253 0.4004
C49 C 0.7420(5) 0.5587(4) 0.4441(3)
H33 H 0.7884 0.5654 0.4188
C50 C 0.7576(4) 0.5114(4) 0.4910(3)
C51 C 0.6882(4) 0.5048(4) 0.5276(3)
H34 H 0.6965 0.4724 0.5596
C52 C 0.6080(4) 0.5445(4) 0.5182(3)
H35 H 0.5624 0.5397 0.5442
C53 C 0.8434(4) 0.4672(4) 0.5004(3)
C54 C 0.8847(4) 0.4597(4) 0.5540(3)
C55 C 0.8570(5) 0.5027(5) 0.6007(3)
H36 H 0.8090 0.5406 0.5971
C56 C 0.8975(5) 0.4914(5) 0.6507(3)
H37 H 0.8774 0.5214 0.6813
C57 C 0.9690(6) 0.4355(6) 0.6576(4)
H38 H 0.9948 0.4255 0.6929
C58 C 1.0005(5) 0.3961(5) 0.6131(3)
H39 H 1.0504 0.3604 0.6175
C59 C 0.9608(5) 0.4071(4) 0.5609(3)
C60 C 0.9982(5) 0.3700(4) 0.5139(3)
H40 H 1.0494 0.3360 0.5183
C61 C 0.9621(5) 0.3823(5) 0.4636(3)
H41 H 0.9897 0.3594 0.4326
C62 C 0.8826(5) 0.4295(4) 0.4567(3)
H42 H 0.8559 0.4352 0.4211
Zn2C Zn 0.13327(5) 0.81989(5) 0.69193(3)
N6C N 0.2190(4) 0.7120(4) 0.1305(2)
C63 C -0.1900(10) 0.0137(9) 0.7717(6)
H43 H -0.1310 0.0365 0.7844
Cl1 Cl -0.1938(6) -0.0884(13) 0.7915(8)
Cl2 Cl -0.2736(7) 0.0703(8) 0.8028(5)
Cl3 Cl -0.1972(4) 0.0226(4) 0.6999(3)
C64? C -0.2783(13) 0.0054(12) 0.7713(7)
H44? H -0.3442 -0.0035 0.7728
Cl4? Cl -0.2216(8) -0.0891(14) 0.7927(9)
Cl5? Cl -0.2504(9) 0.0847(9) 0.8123(6)
Cl6? Cl -0.2510(7) 0.0229(5) 0.7026(3)
loop_
_geom_bond_atom_site_label_1
_geom_bond_atom_site_label_2
_geom_bond_site_symmetry_1
_geom_bond_site_symmetry_2
Zn1 I1 1_555 1_555
I2 Zn1 1_555 1_555
N1 Zn1 1_555 1_555
N2 C6 1_555 1_555
N3 C11 1_555 1_555
C1 N1 1_555 1_555
H1 C1 1_555 1_555
C2 C1 1_555 1_555
H2 C2 1_555 1_555
C3 C2 1_555 1_555
C4 C3 1_555 1_555
H3 C4 1_555 1_555
C5 N1 1_555 1_555
H4 C5 1_555 1_555
C6 C3 1_555 1_555
C7 C6 1_555 1_555
H5 C7 1_555 1_555
C8 C7 1_555 1_555
C9 C8 1_555 1_555
H6 C9 1_555 1_555
C10 N2 1_555 1_555
C11 H7 1_555 1_555
C12 C11 1_555 1_555
H8 C12 1_555 1_555
C13 C10 1_555 1_555
C14 C13 1_555 1_555
H9 C14 1_555 1_555
C15 N3 1_555 1_555
H10 C15 1_555 1_555
C16 C8 1_555 1_555
C17 C16 1_555 1_555
H11 C17 1_555 1_555
C18 C17 1_555 1_555
H12 C18 1_555 1_555
C19 C18 1_555 1_555
C20 C19 1_555 1_555
H13 C20 1_555 1_555
C21 C16 1_555 1_555
H14 C21 1_555 1_555
C22 C19 1_555 1_555
C23 C22 1_555 1_555
C24 C23 1_555 1_555
H15 C24 1_555 1_555
C25 C24 1_555 1_555
H16 C25 1_555 1_555
C26 C25 1_555 1_555
H17 C26 1_555 1_555
C27 C26 1_555 1_555
H18 C27 1_555 1_555
C28 C23 1_555 1_555
C29 C28 1_555 1_555
H19 C29 1_555 1_555
C30 C29 1_555 1_555
H20 C30 1_555 1_555
C31 C22 1_555 1_555
H21 C31 1_555 1_555
Zn2 I3 1_555 1_555
I4 Zn2 1_555 1_555
N4 Zn2 1_555 1_555
N5 C37 1_555 1_555
N6 C42 1_555 1_555
C32 N4 1_555 1_555
H22 C32 1_555 1_555
C33 C32 1_555 1_555
H23 C33 1_555 1_555
C34 C33 1_555 1_555
C35 C34 1_555 1_555
H24 C35 1_555 1_555
C36 N4 1_555 1_555
H25 C36 1_555 1_555
C37 C34 1_555 1_555
C38 C37 1_555 1_555
H26 C38 1_555 1_555
C39 C38 1_555 1_555
C40 C39 1_555 1_555
H27 C40 1_555 1_555
C41 N5 1_555 1_555
C42 H28 1_555 1_555
C43 C42 1_555 1_555
H29 C43 1_555 1_555
C44 C41 1_555 1_555
C45 C44 1_555 1_555
H30 C45 1_555 1_555
C46 N6 1_555 1_555
H31 C46 1_555 1_555
C47 C39 1_555 1_555
C48 C47 1_555 1_555
H32 C48 1_555 1_555
C49 C48 1_555 1_555
H33 C49 1_555 1_555
C50 C49 1_555 1_555
C51 C50 1_555 1_555
H34 C51 1_555 1_555
C52 C47 1_555 1_555
H35 C52 1_555 1_555
C53 C50 1_555 1_555
C54 C53 1_555 1_555
C55 C54 1_555 1_555
H36 C55 1_555 1_555
C56 C55 1_555 1_555
H37 C56 1_555 1_555
C57 C56 1_555 1_555
H38 C57 1_555 1_555
C58 C57 1_555 1_555
H39 C58 1_555 1_555
C59 C54 1_555 1_555
C60 C59 1_555 1_555
H40 C60 1_555 1_555
C61 C60 1_555 1_555
H41 C61 1_555 1_555
C62 C53 1_555 1_555
H42 C62 1_555 1_555
C63 H43 1_555 1_555
Cl1 C63 1_555 1_555
Cl2 C63 1_555 1_555
Cl3 C63 1_555 1_555
Zn1C N3 1_555 1_555
N3C Zn1 1_555 1_555
Zn2C N6 1_555 1_555
N6C Zn2 1_555 1_555
C4 C5 1_555 1_555
C9 C10 1_555 1_555
C12 C13 1_555 1_555
C14 C15 1_555 1_555
C20 C21 1_555 1_555
C27 C28 1_555 1_555
C30 C31 1_555 1_555
C35 C36 1_555 1_555
C40 C41 1_555 1_555
C43 C44 1_555 1_555
C45 C46 1_555 1_555
C51 C52 1_555 1_555
C58 C59 1_555 1_555
C61 C62 1_555 1_555

#END
