
#######################################################################
#
#                 Cambridge Crystallographic Data Centre
#                                CCDC 
#
#######################################################################
#
# If this CIF has been generated from an entry in the Cambridge 
# Structural Database, then it will include bibliographic, chemical, 
# crystal, experimental, refinement or atomic coordinate data resulting 
# from the CCDC's data processing and validation procedures.
#
#######################################################################

data_QOHZIY
_symmetry_cell_setting           triclinic
_symmetry_space_group_name_H-M   'P -1'
_symmetry_Int_Tables_number      2
_space_group_name_Hall           '-P 1'
loop_
_symmetry_equiv_pos_site_id
_symmetry_equiv_pos_as_xyz
1 x,y,z
2 -x,-y,-z
_cell_length_a                   7.0405(10)
_cell_length_b                   10.0943(14)
_cell_length_c                   12.0712(17)
_cell_angle_alpha                104.103(2)
_cell_angle_beta                 101.500(2)
_cell_angle_gamma                105.459(2)
_cell_volume                     769.202
loop_
_atom_site_label
_atom_site_type_symbol
_atom_site_fract_x
_atom_site_fract_y
_atom_site_fract_z
O1 O 0.5716(8) 1.1858(6) 0.5186(5)
O2 O 0.4866(8) 0.3647(5) 0.3749(4)
O3 O 0.9802(9) 0.7085(6) 0.6710(6)
H1 H 1.1047 0.7608 0.6861
H2 H 0.9577 0.6273 0.6200
Yb1 Yb 0.75920(5) 0.82674(3) 0.59204(3)
O4 O 0.8160(9) 0.8624(6) 0.4169(5)
O5 O 0.9092(8) 1.0165(6) 0.3194(5)
O6 O 0.6863(8) 0.5965(5) 0.4471(4)
O7 O 0.7570(9) 0.9121(7) 0.7927(5)
H3 H 0.8756 0.9709 0.8341
H4 H 0.7269 0.8410 0.8195
O8 O 0.7299(9) 1.0630(6) 0.6123(5)
O9 O 0.6147(8) 1.1015(5) 0.1512(5)
O10 O 0.8185(8) 1.0107(6) 0.0595(5)
H5 H 0.8355 0.9319 0.0412
N1 N 0.4307(9) 0.7626(6) 0.0198(5)
C1 C 0.7952(11) 0.9039(7) 0.3292(6)
C2 C 0.6243(11) 0.8064(8) 0.2176(6)
C3 C 0.5767(10) 0.8535(8) 0.1184(6)
C4 C 0.3280(11) 0.6186(8) 0.0080(6)
C5 C 0.1872(12) 0.5260(9) -0.0990(7)
H6 H 0.1578 0.5596 -0.1634
C6 C 0.0926(12) 0.3857(10) -0.1083(8)
H7 H -0.0013 0.3232 -0.1798
C7 C 0.1347(12) 0.3346(9) -0.0122(9)
H8 H 0.0683 0.2382 -0.0209
C8 C 0.2717(12) 0.4229(9) 0.0948(8)
H9 H 0.2975 0.3869 0.1582
C9 C 0.3737(11) 0.5696(8) 0.1078(7)
C10 C 0.5198(11) 0.6683(8) 0.2127(6)
H10 H 0.5461 0.6395 0.2801
C11 C 0.5509(11) 0.4876(8) 0.4488(6)
C12 C 0.5886(12) 1.0696(8) 0.5385(7)
C13 C 0.6837(11) 1.0039(8) 0.1101(6)
O1A O 0.4284(8) 0.8142(6) 0.4814(5)
O8A O 0.2701(9) 0.9370(6) 0.3877(5)
C12A C 0.4114(12) 0.9304(8) 0.4615(7)
O2A O 0.5134(8) 0.6353(5) 0.6251(4)
O6A O 0.3137(8) 0.4035(5) 0.5529(4)
C11A C 0.4491(11) 0.5124(8) 0.5512(6)
O3A O 0.0198(9) 0.2915(6) 0.3290(6)
H1A H -0.1047 0.2392 0.3139
H2A H 0.0423 0.3727 0.3800
Yb1A Yb 0.24080(5) 0.17326(3) 0.40796(3)
O4A O 0.1840(9) 0.1376(6) 0.5831(5)
O5A O 0.0908(8) -0.0165(6) 0.6806(5)
O7A O 0.2430(9) 0.0879(7) 0.2073(5)
H3A H 0.1244 0.0291 0.1659
H4A H 0.2731 0.1590 0.1805
O9A O 0.3853(8) -0.1015(5) 0.8488(5)
O10A O 0.1815(8) -0.0107(6) 0.9405(5)
H5A H 0.1645 0.0681 0.9588
N1A N 0.5693(9) 0.2374(6) 0.9802(5)
C1A C 0.2048(11) 0.0961(7) 0.6708(6)
C2A C 0.3757(11) 0.1936(8) 0.7824(6)
C3A C 0.4233(10) 0.1465(8) 0.8816(6)
C4A C 0.6720(11) 0.3814(8) 0.9920(6)
C5A C 0.8128(12) 0.4740(9) 1.0990(7)
H6A H 0.8422 0.4404 1.1634
C6A C 0.9074(12) 0.6143(10) 1.1083(8)
H7A H 1.0013 0.6768 1.1798
C7A C 0.8653(12) 0.6654(9) 1.0122(9)
H8A H 0.9317 0.7618 1.0209
C8A C 0.7283(12) 0.5771(9) 0.9052(8)
H9A H 0.7025 0.6131 0.8418
C9A C 0.6263(11) 0.4304(8) 0.8922(7)
C10A C 0.4802(11) 0.3317(8) 0.7873(6)
H10A H 0.4539 0.3605 0.7199
C13A C 0.3163(11) -0.0039(8) 0.8899(6)
O1_2 O 0.5716(8) 0.1858(6) 0.5186(5)
Yb1_2 Yb -0.24080(5) -0.17326(3) 0.59204(3)
Yb1A_2 Yb 0.24080(5) 1.17326(3) 0.40796(3)
Yb1A_3 Yb 1.24080(5) 1.17326(3) 0.40796(3)
O5_2 O -0.0908(8) 0.0165(6) 0.3194(5)
O5A_2 O 1.0908(8) 0.9835(6) 0.6806(5)
O8A_2 O 0.2701(9) -0.0630(6) 0.3877(5)
O11 O 0.0594(10) 0.5715(6) 0.3817(6)
H11 H -0.0304 0.5908 0.4145
H12 H 0.1654 0.6465 0.4037
loop_
_geom_bond_atom_site_label_1
_geom_bond_atom_site_label_2
_geom_bond_site_symmetry_1
_geom_bond_site_symmetry_2
O1 C12 1_555 1_555
O2 C11 1_555 1_555
O3 H1 1_555 1_555
H2 O3 1_555 1_555
Yb1 O3 1_555 1_555
O4 Yb1 1_555 1_555
O5 C1 1_555 1_555
O6 Yb1 1_555 1_555
O7 Yb1 1_555 1_555
H3 O7 1_555 1_555
H4 O7 1_555 1_555
O8 Yb1 1_555 1_555
O9 C13 1_555 1_555
O10 H5 1_555 1_555
N1 C3 1_555 1_555
C1 O4 1_555 1_555
C2 C1 1_555 1_555
C3 C2 1_555 1_555
C4 N1 1_555 1_555
C5 C4 1_555 1_555
H6 C5 1_555 1_555
C6 C5 1_555 1_555
H7 C6 1_555 1_555
C7 C6 1_555 1_555
H8 C7 1_555 1_555
C8 C7 1_555 1_555
H9 C8 1_555 1_555
C9 C4 1_555 1_555
C10 C2 1_555 1_555
H10 C10 1_555 1_555
C11 O6 1_555 1_555
C12 O8 1_555 1_555
C13 O10 1_555 1_555
O11 H11 1_555 1_555
H12 O11 1_555 1_555
O1A Yb1 1_555 1_555
O8A C12A 1_555 1_555
C12A C12 1_555 1_555
O2A Yb1 1_555 1_555
O6A C11A 1_555 1_555
C11A C11 1_555 1_555
O3A H1A 1_555 1_555
H2A O3A 1_555 1_555
Yb1A O2 1_555 1_555
O4A Yb1A 1_555 1_555
O5A C1A 1_555 1_555
O7A Yb1A 1_555 1_555
H3A O7A 1_555 1_555
H4A O7A 1_555 1_555
O9A C13A 1_555 1_555
O10A H5A 1_555 1_555
N1A C3A 1_555 1_555
C1A O4A 1_555 1_555
C2A C1A 1_555 1_555
C3A C2A 1_555 1_555
C4A N1A 1_555 1_555
C5A C4A 1_555 1_555
H6A C5A 1_555 1_555
C6A C5A 1_555 1_555
H7A C6A 1_555 1_555
C7A C6A 1_555 1_555
H8A C7A 1_555 1_555
C8A C7A 1_555 1_555
H9A C8A 1_555 1_555
C9A C4A 1_555 1_555
C10A C2A 1_555 1_555
H10A C10A 1_555 1_555
C13A O10A 1_555 1_555
O1_2 Yb1A 1_555 1_555
Yb1_2 O5A 1_555 1_555
Yb1A_2 O1 1_555 1_555
Yb1A_3 O5 1_555 1_555
O5_2 Yb1A 1_555 1_555
O5A_2 Yb1 1_555 1_555
O8A_2 Yb1A 1_555 1_555
C3 C13 1_555 1_555
C8 C9 1_555 1_555
C9 C10 1_555 1_555
O1A C12A 1_555 1_555
O8A Yb1A_2 1_555 1_555
O2A C11A 1_555 1_555
O6A Yb1A 1_555 1_555
O3A Yb1A 1_555 1_555
C3A C13A 1_555 1_555
C8A C9A 1_555 1_555
C9A C10A 1_555 1_555

#END
