
#######################################################################
#
#                 Cambridge Crystallographic Data Centre
#                                CCDC 
#
#######################################################################
#
# If this CIF has been generated from an entry in the Cambridge 
# Structural Database, then it will include bibliographic, chemical, 
# crystal, experimental, refinement or atomic coordinate data resulting 
# from the CCDC's data processing and validation procedures.
#
#######################################################################

data_QOHZOE
_symmetry_cell_setting           triclinic
_symmetry_space_group_name_H-M   'P -1'
_symmetry_Int_Tables_number      2
_space_group_name_Hall           '-P 1'
loop_
_symmetry_equiv_pos_site_id
_symmetry_equiv_pos_as_xyz
1 x,y,z
2 -x,-y,-z
_cell_length_a                   7.575(4)
_cell_length_b                   9.851(5)
_cell_length_c                   12.196(6)
_cell_angle_alpha                104.315(6)
_cell_angle_beta                 106.679(6)
_cell_angle_gamma                101.612(6)
_cell_volume                     807.571
loop_
_atom_site_label
_atom_site_type_symbol
_atom_site_fract_x
_atom_site_fract_y
_atom_site_fract_z
Yb1 Yb 0.26824(4) 0.31430(3) 0.07070(3)
O1 O 0.3396(7) 0.4209(5) 0.2739(4)
O2 O 0.6004(8) 0.4280(5) 0.4195(5)
O3 O 0.5824(7) 0.4726(5) 0.1441(4)
O4 O 0.7019(8) 0.6737(5) 0.1070(4)
O5 O 0.0738(7) 0.1485(5) 0.1311(4)
O6 O -0.1328(7) -0.0731(5) 0.0782(4)
O7 O -0.0505(7) 0.3120(5) -0.0247(4)
O8 O -0.2404(7) 0.4437(5) -0.0902(5)
O9 O 0.4847(7) 0.1858(5) 0.1220(5)
H1 H 0.6052 0.2455 0.1735
H2 H 0.4830 0.0975 0.1117
N1 N 0.6148(9) 0.7356(6) 0.4800(5)
H3 H 0.5813 0.6976 0.5300
C1 C 0.5043(11) 0.4824(8) 0.3526(7)
C2 C 0.5932(10) 0.6450(7) 0.3721(6)
C3 C 0.6507(10) 0.7018(7) 0.2897(6)
C4 C 0.6406(10) 0.6076(7) 0.1702(6)
C5 C 0.7219(9) 0.8525(7) 0.3209(6)
H4 H 0.7593 0.8914 0.2662
C6 C 0.7393(10) 0.9477(7) 0.4318(7)
C7 C 0.8080(12) 1.1033(8) 0.4688(8)
H5 H 0.8427 1.1491 0.4167
C8 C 0.8228(12) 1.1846(8) 0.5806(10)
H6 H 0.8673 1.2863 0.6039
C9 C 0.7737(14) 1.1208(10) 0.6601(9)
H7 H 0.7868 1.1802 0.7360
C10 C 0.7070(12) 0.9741(9) 0.6307(7)
H8 H 0.6746 0.9323 0.6855
C11 C 0.6876(10) 0.8859(7) 0.5159(6)
C12 C -0.0175(10) 0.0211(7) 0.0595(6)
C13 C -0.0827(10) 0.4299(7) -0.0324(6)
O5A O -0.0738(7) -0.1485(5) -0.1311(4)
O6A O 0.1328(7) 0.0731(5) -0.0782(4)
C12A C 0.0175(10) -0.0211(7) -0.0595(6)
O7A O 0.0505(7) 0.6880(5) 0.0247(4)
O8A O 0.2404(7) 0.5563(5) 0.0902(5)
C13A C 0.0827(10) 0.5701(7) 0.0324(6)
Yb1A Yb -0.26824(4) -0.31430(3) -0.07070(3)
O1A O -0.3396(7) -0.4209(5) -0.2739(4)
O2A O -0.6004(8) -0.4280(5) -0.4195(5)
O3A O -0.5824(7) -0.4726(5) -0.1441(4)
O4A O -0.7019(8) -0.6737(5) -0.1070(4)
O9A O -0.4847(7) -0.1858(5) -0.1220(5)
H1A H -0.6052 -0.2455 -0.1735
H2A H -0.4830 -0.0975 -0.1117
N1A N -0.6148(9) -0.7356(6) -0.4800(5)
H3A H -0.5813 -0.6976 -0.5300
C1A C -0.5043(11) -0.4824(8) -0.3526(7)
C2A C -0.5932(10) -0.6450(7) -0.3721(6)
C3A C -0.6507(10) -0.7018(7) -0.2897(6)
C4A C -0.6406(10) -0.6076(7) -0.1702(6)
C5A C -0.7219(9) -0.8525(7) -0.3209(6)
H4A H -0.7593 -0.8914 -0.2662
C6A C -0.7393(10) -0.9477(7) -0.4318(7)
C7A C -0.8080(12) -1.1033(8) -0.4688(8)
H5A H -0.8427 -1.1491 -0.4167
C8A C -0.8228(12) -1.1846(8) -0.5806(10)
H6A H -0.8673 -1.2863 -0.6039
C9A C -0.7737(14) -1.1208(10) -0.6601(9)
H7A H -0.7868 -1.1802 -0.7360
C10A C -0.7070(12) -0.9741(9) -0.6307(7)
H8A H -0.6746 -0.9323 -0.6855
C11A C -0.6876(10) -0.8859(7) -0.5159(6)
Yb1_2 Yb -0.73176(4) -0.68570(3) 0.07070(3)
Yb1A_2 Yb -0.26824(4) 0.68570(3) -0.07070(3)
Yb1A_3 Yb 0.73176(4) 0.68570(3) -0.07070(3)
O4_2 O -0.2981(8) -0.3263(5) 0.1070(4)
O4A_2 O 0.2981(8) 0.3263(5) -0.1070(4)
O7A_2 O 0.0505(7) -0.3120(5) 0.0247(4)
O8_2 O -0.2404(7) -0.5563(5) -0.0902(5)
O10 O 0.8670(9) 0.2834(9) 0.2581(7)
H9 H 0.925(13) 0.367(7) 0.311(9)
H10 H 0.942(11) 0.239(10) 0.235(10)
O11 O 1.0000 0.5000 0.5000
O12 O 0.4089(9) 0.9035(6) 0.1036(6)
H11 H 0.472(9) 0.868(8) 0.062(7)
H12 H 0.298(5) 0.846(7) 0.087(7)
H13? H 1.10(4) 0.47(4) 0.51(5)
H14? H 0.91(5) 0.45(6) 0.52(5)
loop_
_geom_bond_atom_site_label_1
_geom_bond_atom_site_label_2
_geom_bond_site_symmetry_1
_geom_bond_site_symmetry_2
Yb1 O1 1_555 1_555
O1 C1 1_555 1_555
O2 C1 1_555 1_555
O3 Yb1 1_555 1_555
O4 C4 1_555 1_555
O5 Yb1 1_555 1_555
O6 C12 1_555 1_555
O7 Yb1 1_555 1_555
O8 C13 1_555 1_555
O9 Yb1 1_555 1_555
H1 O9 1_555 1_555
H2 O9 1_555 1_555
N1 H3 1_555 1_555
C1 C2 1_555 1_555
C2 N1 1_555 1_555
C3 C2 1_555 1_555
C4 O3 1_555 1_555
C5 C3 1_555 1_555
H4 C5 1_555 1_555
C6 C5 1_555 1_555
C7 C6 1_555 1_555
H5 C7 1_555 1_555
C8 C7 1_555 1_555
H6 C8 1_555 1_555
C9 C8 1_555 1_555
H7 C9 1_555 1_555
C10 C9 1_555 1_555
H8 C10 1_555 1_555
C11 N1 1_555 1_555
C12 O5 1_555 1_555
C13 O7 1_555 1_555
O10 H9 1_555 1_555
H10 O10 1_555 1_555
O12 H11 1_555 1_555
H12 O12 1_555 1_555
O5A C12A 1_555 1_555
O6A Yb1 1_555 1_555
C12A C12 1_555 1_555
O7A C13A 1_555 1_555
O8A Yb1 1_555 1_555
C13A C13 1_555 1_555
Yb1A O6 1_555 1_555
O1A Yb1A 1_555 1_555
O2A C1A 1_555 1_555
O3A Yb1A 1_555 1_555
O4A C4A 1_555 1_555
O9A Yb1A 1_555 1_555
H1A O9A 1_555 1_555
H2A O9A 1_555 1_555
N1A H3A 1_555 1_555
C1A O1A 1_555 1_555
C2A N1A 1_555 1_555
C3A C2A 1_555 1_555
C4A O3A 1_555 1_555
C5A C3A 1_555 1_555
H4A C5A 1_555 1_555
C6A C5A 1_555 1_555
C7A C6A 1_555 1_555
H5A C7A 1_555 1_555
C8A C7A 1_555 1_555
H6A C8A 1_555 1_555
C9A C8A 1_555 1_555
H7A C9A 1_555 1_555
C10A C9A 1_555 1_555
H8A C10A 1_555 1_555
C11A N1A 1_555 1_555
Yb1_2 O4A 1_555 1_555
Yb1A_2 O8 1_555 1_555
Yb1A_3 O4 1_555 1_555
O4_2 Yb1A 1_555 1_555
O4A_2 Yb1 1_555 1_555
O7A_2 Yb1A 1_555 1_555
O8_2 Yb1A 1_555 1_555
C3 C4 1_555 1_555
C6 C11 1_555 1_555
C10 C11 1_555 1_555
O5A Yb1A 1_555 1_555
O6A C12A 1_555 1_555
O7A Yb1A_2 1_555 1_555
O8A C13A 1_555 1_555
C1A C2A 1_555 1_555
C3A C4A 1_555 1_555
C6A C11A 1_555 1_555
C10A C11A 1_555 1_555

#END
