
#######################################################################
#
#                 Cambridge Crystallographic Data Centre
#                                CCDC 
#
#######################################################################
#
# If this CIF has been generated from an entry in the Cambridge 
# Structural Database, then it will include bibliographic, chemical, 
# crystal, experimental, refinement or atomic coordinate data resulting 
# from the CCDC's data processing and validation procedures.
#
#######################################################################

data_QOJBOH
_symmetry_cell_setting           monoclinic
_symmetry_space_group_name_H-M   'P 21/c'
_symmetry_Int_Tables_number      14
_space_group_name_Hall           '-P 2ybc'
loop_
_symmetry_equiv_pos_site_id
_symmetry_equiv_pos_as_xyz
1 x,y,z
2 -x,1/2+y,1/2-z
3 -x,-y,-z
4 x,1/2-y,1/2+z
_cell_length_a                   13.094(3)
_cell_length_b                   13.318(3)
_cell_length_c                   13.684(3)
_cell_angle_alpha                90
_cell_angle_beta                 93.81(3)
_cell_angle_gamma                90
_cell_volume                     2381.02
loop_
_atom_site_label
_atom_site_type_symbol
_atom_site_fract_x
_atom_site_fract_y
_atom_site_fract_z
Ag1 Ag 0.13788(9) -0.11311(8) 0.04618(8)
Ag2 Ag 0.03298(9) -0.64623(7) -0.26607(8)
C1 C 0.4139(16) 0.037(2) -0.141(2)
H1 H 0.3755 0.0923 -0.1701
H2 H 0.4554 0.0607 -0.0853
H3 H 0.4571 0.0094 -0.1883
C2 C 0.3361(14) -0.048(2) -0.1071(13)
H4 H 0.3126 -0.0312 -0.0434
H5 H 0.3709 -0.1123 -0.1019
C3 C 0.2505(11) -0.0546(11) -0.1777(12)
H6 H 0.2247 0.0125 -0.1921
H7 H 0.2730 -0.0828 -0.2379
C4 C 0.1904(9) -0.2582(9) -0.1557(9)
H8 H 0.2496 -0.2721 -0.1114
H9 H 0.2113 -0.2633 -0.2222
C5 C 0.1082(9) -0.3345(8) -0.1403(8)
C6 C -0.0506(10) -0.3677(8) -0.0885(9)
C7 C -0.1422(10) -0.3361(10) -0.0447(9)
H10 H -0.1502 -0.2687 -0.0291
C8 C -0.2152(10) -0.4007(11) -0.0260(9)
H11 H -0.2722 -0.3790 0.0052
C9 C -0.2063(11) -0.5069(11) -0.0543(9)
H12 H -0.2585 -0.5521 -0.0436
C10 C -0.1198(10) -0.5381(9) -0.0968(8)
H13 H -0.1132 -0.6050 -0.1149
C11 C -0.0409(9) -0.4696(8) -0.1132(8)
C12 C 0.1156(9) -0.4363(8) -0.1711(7)
C13 C 0.2087(9) -0.4738(9) -0.2180(8)
H14 H 0.2545 -0.4180 -0.2281
H15 H 0.2448 -0.5216 -0.1746
C14 C 0.2927(10) -0.5921(10) -0.3665(10)
H16 H 0.3464 -0.5418 -0.3636
H17 H 0.2849 -0.6170 -0.4332
C15 C 0.3260(13) -0.6815(12) -0.2957(14)
H18 H 0.3436 -0.6570 -0.2300
H19 H 0.2713 -0.7303 -0.2931
C16 C 0.4235(14) -0.7301(17) -0.3417(19)
H20 H 0.4566 -0.6803 -0.3793
H21 H 0.4704 -0.7539 -0.2899
H22 H 0.4020 -0.7852 -0.3833
N1 N 0.0249(8) -0.3006(7) -0.1030(6)
N2 N 0.0446(8) -0.5010(7) -0.1594(6)
N3 N -0.0590(11) -0.1735(9) 0.1369(8)
N4 N 0.3449(12) -0.2381(12) 0.1084(11)
O1 O 0.0278(8) -0.2142(7) 0.1491(6)
O2 O -0.0661(8) -0.0999(8) 0.0783(8)
O3 O -0.1272(9) -0.2062(9) 0.1814(8)
O4 O 0.2520(13) -0.2507(10) 0.0980(12)
O5 O 0.4005(18) -0.287(2) 0.088(4)
O6 O 0.3628(16) -0.1614(15) 0.1490(17)
S1 S 0.1455(3) -0.1328(2) -0.1344(2)
S2 S 0.1735(2) -0.5341(2) -0.3353(2)
Ag1C Ag 0.13788(9) -0.38689(8) -0.45382(8)
Ag2A Ag -0.03298(9) -0.14623(7) -0.23393(8)
S1A S -0.1455(3) -0.6328(2) -0.3656(2)
S2C S 0.1735(2) 0.0341(2) 0.1647(2)
O7 O -0.547(2) 0.451(4) -0.090(3)
loop_
_geom_bond_atom_site_label_1
_geom_bond_atom_site_label_2
_geom_bond_site_symmetry_1
_geom_bond_site_symmetry_2
Ag1 O1 1_555 1_555
Ag2 N2 1_555 1_555
C1 H1 1_555 1_555
H2 C1 1_555 1_555
H3 C1 1_555 1_555
C2 C1 1_555 1_555
H4 C2 1_555 1_555
H5 C2 1_555 1_555
C3 C2 1_555 1_555
H6 C3 1_555 1_555
H7 C3 1_555 1_555
C4 H8 1_555 1_555
H9 C4 1_555 1_555
C5 C4 1_555 1_555
C6 C7 1_555 1_555
C7 H10 1_555 1_555
C8 C7 1_555 1_555
H11 C8 1_555 1_555
C9 C8 1_555 1_555
H12 C9 1_555 1_555
C10 C9 1_555 1_555
H13 C10 1_555 1_555
C11 C6 1_555 1_555
C12 C5 1_555 1_555
C13 C12 1_555 1_555
H14 C13 1_555 1_555
H15 C13 1_555 1_555
C14 H16 1_555 1_555
H17 C14 1_555 1_555
C15 C14 1_555 1_555
H18 C15 1_555 1_555
H19 C15 1_555 1_555
C16 C15 1_555 1_555
H20 C16 1_555 1_555
H21 C16 1_555 1_555
H22 C16 1_555 1_555
N1 C5 1_555 1_555
N2 C11 1_555 1_555
N3 O1 1_555 1_555
N4 O4 1_555 1_555
O2 N3 1_555 1_555
O3 N3 1_555 1_555
O4 Ag1 1_555 1_555
O5 N4 1_555 1_555
O6 N4 1_555 1_555
S1 Ag1 1_555 1_555
S2 Ag2 1_555 1_555
Ag1C S2 1_555 1_555
Ag2A S1 1_555 1_555
S1A Ag2 1_555 1_555
S2C Ag1 1_555 1_555
C3 S1 1_555 1_555
C4 S1 1_555 1_555
C6 N1 1_555 1_555
C10 C11 1_555 1_555
C12 N2 1_555 1_555
C13 S2 1_555 1_555
C14 S2 1_555 1_555

#END
