
#######################################################################
#
#                 Cambridge Crystallographic Data Centre
#                                CCDC 
#
#######################################################################
#
# If this CIF has been generated from an entry in the Cambridge 
# Structural Database, then it will include bibliographic, chemical, 
# crystal, experimental, refinement or atomic coordinate data resulting 
# from the CCDC's data processing and validation procedures.
#
#######################################################################

data_QOJBUO
_symmetry_cell_setting           triclinic
_symmetry_space_group_name_H-M   'P -1'
_symmetry_Int_Tables_number      2
_space_group_name_Hall           '-P 1'
loop_
_symmetry_equiv_pos_site_id
_symmetry_equiv_pos_as_xyz
1 x,y,z
2 -x,-y,-z
_cell_length_a                   7.3918(12)
_cell_length_b                   10.7892(18)
_cell_length_c                   12.962(2)
_cell_angle_alpha                84.097(2)
_cell_angle_beta                 81.426(2)
_cell_angle_gamma                86.601(2)
_cell_volume                     1015.75
loop_
_atom_site_label
_atom_site_type_symbol
_atom_site_fract_x
_atom_site_fract_y
_atom_site_fract_z
Yb1 Yb 0.76003(7) 0.77360(5) 0.45029(5)
O1 O 0.7547(13) 0.3328(10) 0.6415(8)
O2 O 1.0483(12) 0.3441(8) 0.6604(7)
O3 O 0.8559(13) 0.6039(9) 0.5690(7)
O4 O 0.6644(15) 0.7468(9) 0.6336(8)
O5 O 0.5458(12) 1.1466(8) 0.5317(8)
O6 O 0.7374(11) 0.9831(8) 0.4938(8)
O7 O 0.5816(12) 0.6218(8) 0.4170(8)
H1 H 0.6492 0.5597 0.3968
H2 H 0.5191 0.6503 0.3690
O8 O 1.0457(13) 0.8346(9) 0.4645(9)
H3 H 1.0608 0.9079 0.4344
H4 H 1.1255 0.7843 0.4352
O9 O 0.7507(17) 0.8751(11) 0.2877(9)
H5 H 0.7513 0.9539 0.2912
H6 H 0.6529 0.8582 0.2648
N1 N 0.8357(15) 0.3968(11) 0.8633(9)
C1 C 0.8818(17) 0.3734(11) 0.6816(10)
C2 C 0.8243(16) 0.4559(11) 0.7697(9)
C3 C 0.7576(18) 0.5822(13) 0.7542(10)
C4 C 0.7589(18) 0.6440(12) 0.6448(11)
C5 C 0.700(2) 0.6453(14) 0.8420(12)
H7 H 0.6541 0.7273 0.8344
C6 C 0.711(2) 0.5857(14) 0.9419(11)
C7 C 0.657(2) 0.6444(17) 1.0348(14)
H8 H 0.6085 0.7260 1.0308
C8 C 0.675(2) 0.584(2) 1.1292(14)
H9 H 0.6394 0.6243 1.1895
C9 C 0.746(2) 0.4633(19) 1.1374(12)
H10 H 0.7592 0.4240 1.2033
C10 C 0.797(2) 0.4002(18) 1.0520(12)
H11 H 0.8412 0.3178 1.0594
C11 C 0.781(2) 0.4612(15) 0.9507(11)
C12 C 0.5804(18) 1.0382(11) 0.5080(10)
O5A O 0.4542(12) 0.8534(8) 0.4683(8)
O6A O 0.2626(11) 1.0169(8) 0.5062(8)
C12A C 0.4196(18) 0.9618(11) 0.4920(10)
Yb1A Yb 0.23997(7) 1.22640(5) 0.54971(5)
O1A O 0.2453(13) 1.6672(10) 0.3585(8)
O2A O -0.0483(12) 1.6559(8) 0.3396(7)
O3A O 0.1441(13) 1.3961(9) 0.4310(7)
O4A O 0.3356(15) 1.2532(9) 0.3664(8)
O7A O 0.4184(12) 1.3782(8) 0.5830(8)
H1A H 0.3508 1.4403 0.6032
H2A H 0.4809 1.3497 0.6310
O8A O -0.0457(13) 1.1654(9) 0.5355(9)
H3A H -0.0608 1.0921 0.5656
H4A H -0.1255 1.2157 0.5648
O9A O 0.2493(17) 1.1249(11) 0.7123(9)
H5A H 0.2487 1.0461 0.7088
H6A H 0.3471 1.1418 0.7352
N1A N 0.1643(15) 1.6032(11) 0.1367(9)
C1A C 0.1182(17) 1.6266(11) 0.3184(10)
C2A C 0.1757(16) 1.5441(11) 0.2303(9)
C3A C 0.2424(18) 1.4178(13) 0.2458(10)
C4A C 0.2411(18) 1.3560(12) 0.3552(11)
C5A C 0.300(2) 1.3547(14) 0.1580(12)
H7A H 0.3459 1.2727 0.1656
C6A C 0.289(2) 1.4143(14) 0.0581(11)
C7A C 0.343(2) 1.3556(17) -0.0348(14)
H8A H 0.3915 1.2740 -0.0308
C8A C 0.325(2) 1.416(2) -0.1292(14)
H9A H 0.3606 1.3757 -0.1895
C9A C 0.254(2) 1.5367(19) -0.1374(12)
H10A H 0.2408 1.5760 -0.2033
C10A C 0.203(2) 1.5998(18) -0.0520(12)
H11A H 0.1588 1.6822 -0.0594
C11A C 0.219(2) 1.5388(15) 0.0493(11)
Yb1_2 Yb -0.23997(7) 1.77360(5) 0.45029(5)
Yb1A_2 Yb 1.23997(7) 0.22640(5) 0.54971(5)
O2_2 O 0.0483(12) 1.3441(8) 0.6604(7)
O2A_2 O 0.9517(12) 0.6559(8) 0.3396(7)
O10 O 0.612(3) 0.1119(18) 0.2530(16)
H12 H 0.5283 0.1639 0.2755
H13 H 0.7196 0.1373 0.2452
O11 O 0.835(6) 0.941(2) 0.922(2)
H14 H 0.8343 1.0192 0.9246
H15 H 0.8619 0.9063 0.9805
O12 O 0.7545(17) 0.3931(10) 0.3947(10)
H16 H 0.83(3) 0.424(17) 0.442(15)
H17 H 0.73(3) 0.337(19) 0.411(17)
O13 O 1.010(2) 0.1579(11) 0.8874(11)
H18 H 0.9420 0.2239 0.8926
H19 H 1.0869 0.1666 0.8315
loop_
_geom_bond_atom_site_label_1
_geom_bond_atom_site_label_2
_geom_bond_site_symmetry_1
_geom_bond_site_symmetry_2
Yb1 O3 1_555 1_555
O1 C1 1_555 1_555
O2 C1 1_555 1_555
O3 C4 1_555 1_555
O4 Yb1 1_555 1_555
O5 C12 1_555 1_555
O6 Yb1 1_555 1_555
O7 Yb1 1_555 1_555
H1 O7 1_555 1_555
H2 O7 1_555 1_555
O8 Yb1 1_555 1_555
H3 O8 1_555 1_555
H4 O8 1_555 1_555
O9 Yb1 1_555 1_555
H5 O9 1_555 1_555
H6 O9 1_555 1_555
N1 C2 1_555 1_555
C1 C2 1_555 1_555
C2 C3 1_555 1_555
C3 C4 1_555 1_555
C4 O4 1_555 1_555
C5 C3 1_555 1_555
H7 C5 1_555 1_555
C6 C5 1_555 1_555
C7 C6 1_555 1_555
H8 C7 1_555 1_555
C8 C7 1_555 1_555
H9 C8 1_555 1_555
C9 C8 1_555 1_555
H10 C9 1_555 1_555
C10 C9 1_555 1_555
H11 C10 1_555 1_555
C11 N1 1_555 1_555
C12 O6 1_555 1_555
O10 H12 1_555 1_555
H13 O10 1_555 1_555
O11 H14 1_555 1_555
H15 O11 1_555 1_555
O12 H16 1_555 1_555
H17 O12 1_555 1_555
O13 H18 1_555 1_555
H19 O13 1_555 1_555
O5A Yb1 1_555 1_555
O6A C12A 1_555 1_555
C12A C12 1_555 1_555
Yb1A O5 1_555 1_555
O1A C1A 1_555 1_555
O2A C1A 1_555 1_555
O3A Yb1A 1_555 1_555
O4A Yb1A 1_555 1_555
O7A Yb1A 1_555 1_555
H1A O7A 1_555 1_555
H2A O7A 1_555 1_555
O8A Yb1A 1_555 1_555
H3A O8A 1_555 1_555
H4A O8A 1_555 1_555
O9A Yb1A 1_555 1_555
H5A O9A 1_555 1_555
H6A O9A 1_555 1_555
N1A C2A 1_555 1_555
C1A C2A 1_555 1_555
C2A C3A 1_555 1_555
C3A C4A 1_555 1_555
C4A O3A 1_555 1_555
C5A C3A 1_555 1_555
H7A C5A 1_555 1_555
C6A C5A 1_555 1_555
C7A C6A 1_555 1_555
H8A C7A 1_555 1_555
C8A C7A 1_555 1_555
H9A C8A 1_555 1_555
C9A C8A 1_555 1_555
H10A C9A 1_555 1_555
C10A C9A 1_555 1_555
H11A C10A 1_555 1_555
C11A N1A 1_555 1_555
Yb1_2 O2A 1_555 1_555
Yb1A_2 O2 1_555 1_555
O2_2 Yb1A 1_555 1_555
O2A_2 Yb1 1_555 1_555
C6 C11 1_555 1_555
C10 C11 1_555 1_555
O5A C12A 1_555 1_555
O6A Yb1A 1_555 1_555
O4A C4A 1_555 1_555
C6A C11A 1_555 1_555
C10A C11A 1_555 1_555

#END
