
#######################################################################
#
#                 Cambridge Crystallographic Data Centre
#                                CCDC 
#
#######################################################################
#
# If this CIF has been generated from an entry in the Cambridge 
# Structural Database, then it will include bibliographic, chemical, 
# crystal, experimental, refinement or atomic coordinate data resulting 
# from the CCDC's data processing and validation procedures.
#
#######################################################################

data_QOJBAU
_symmetry_cell_setting           triclinic
_symmetry_space_group_name_H-M   'P -1'
_symmetry_Int_Tables_number      2
_space_group_name_Hall           '-P 1'
loop_
_symmetry_equiv_pos_site_id
_symmetry_equiv_pos_as_xyz
1 x,y,z
2 -x,-y,-z
_cell_length_a                   14.3665(6)
_cell_length_b                   20.7814(8)
_cell_length_c                   26.2162(13)
_cell_angle_alpha                99.654(3)
_cell_angle_beta                 97.510(3)
_cell_angle_gamma                103.905(3)
_cell_volume                     7369.49
loop_
_atom_site_label
_atom_site_type_symbol
_atom_site_fract_x
_atom_site_fract_y
_atom_site_fract_z
Zn1 Zn 0.61793(4) 0.81471(3) 1.29718(3)
Cl1 Cl 0.74524(7) 0.90433(7) 1.32439(6)
Cl2 Cl 0.59635(10) 0.74779(8) 1.21862(5)
N1 N 0.4889(2) 0.8381(2) 1.30253(15)
N2 N 0.1378(2) 0.81718(18) 1.30453(14)
N3 N -0.1658(2) 0.62967(19) 1.26517(14)
C1 C 0.4822(3) 0.8993(2) 1.3255(2)
H1 H 0.5403 0.9344 1.3396
C2 C 0.3934(3) 0.9124(2) 1.32927(18)
H2 H 0.3913 0.9561 1.3461
C3 C 0.3082(3) 0.8630(2) 1.30888(18)
C4 C 0.3143(3) 0.8004(2) 1.2848(2)
H3 H 0.2568 0.7649 1.2703
C5 C 0.4054(3) 0.7896(3) 1.2820(2)
H4 H 0.4090 0.7464 1.2649
C6 C 0.2095(3) 0.8739(2) 1.31255(17)
C7 C 0.1928(3) 0.9375(2) 1.32122(18)
H5 H 0.2455 0.9769 1.3262
C8 C 0.0968(3) 0.9434(2) 1.32262(17)
C9 C 0.0236(3) 0.8834(2) 1.31433(17)
H6 H -0.0422 0.8845 1.3142
C10 C 0.0468(3) 0.8220(2) 1.30627(16)
C11 C -0.0699(3) 0.6351(2) 1.26988(19)
H7 H -0.0490 0.5950 1.2624
C12 C -0.0014(3) 0.6962(2) 1.28498(19)
H8 H 0.0658 0.6978 1.2887
C13 C -0.0295(3) 0.7560(2) 1.29488(17)
C14 C -0.1291(3) 0.7491(3) 1.2902(2)
H9 H -0.1523 0.7883 1.2971
C15 C -0.1940(3) 0.6864(3) 1.2757(2)
H10 H -0.2617 0.6831 1.2729
C16 C 0.0735(3) 1.0094(2) 1.32883(19)
C17 C 0.1203(3) 1.0623(2) 1.30627(18)
H11 H 0.1710 1.0566 1.2875
C18 C 0.0938(3) 1.1225(2) 1.31100(19)
H12 H 0.1270 1.1582 1.2961
C19 C 0.0183(3) 1.1307(2) 1.33774(18)
C20 C -0.0301(3) 1.0779(2) 1.35973(18)
H13 H -0.0812 1.0833 1.3782
C21 C -0.0033(3) 1.0185(2) 1.35443(19)
H14 H -0.0378 0.9826 1.3685
C22 C -0.0134(3) 1.1936(3) 1.34179(18)
C23 C 0.0533(3) 1.2586(3) 1.3545(2)
C24 C 0.0245(4) 1.3182(3) 1.3577(2)
C25 C -0.0715(5) 1.3151(3) 1.3511(2)
C26 C -0.1386(4) 1.2534(3) 1.33930(19)
C27 C -0.1093(4) 1.1951(3) 1.3352(2)
F1 F 0.1494(2) 1.26415(16) 1.36340(15)
F2 F 0.0929(3) 1.37726(16) 1.36889(15)
F3 F -0.1007(3) 1.37178(19) 1.35452(16)
F4 F -0.2348(2) 1.24976(18) 1.33120(13)
F5 F -0.18048(19) 1.13575(15) 1.32197(12)
Zn2 Zn -0.26228(4) 0.53612(3) 1.23486(2)
Cl3 Cl -0.37927(7) 0.51242(7) 1.28174(5)
Cl4 Cl -0.17869(9) 0.46070(7) 1.21857(6)
N4 N -0.3187(2) 0.5509(2) 1.16234(15)
N5 N -0.3935(3) 0.5635(2) 0.97265(16)
N6 N -0.3058(3) 0.4916(2) 0.79569(16)
C28 C -0.3830(3) 0.5897(3) 1.1587(2)
H15 H -0.4024 0.6087 1.1899
C29 C -0.4201(3) 0.6020(3) 1.1118(2)
H16 H -0.4647 0.6291 1.1110
C30 C -0.3936(3) 0.5756(2) 1.06486(19)
C31 C -0.3256(3) 0.5379(3) 1.0706(2)
H17 H -0.3032 0.5191 1.0405
C32 C -0.2912(3) 0.5278(3) 1.1183(2)
H18 H -0.2444 0.5024 1.1203
C33 C -0.4311(3) 0.5884(3) 1.01291(19)
C34 C -0.5049(3) 0.6212(3) 1.0071(2)
H19 H -0.5329 0.6355 1.0364
C35 C -0.5369(4) 0.6327(3) 0.9576(2)
C36 C -0.4937(3) 0.6093(3) 0.9155(2)
H20 H -0.5113 0.6177 0.8816
C37 C -0.4249(3) 0.5736(2) 0.92441(19)
C38 C -0.2571(3) 0.5064(3) 0.8441(2)
H21 H -0.1936 0.4999 0.8494
C39 C -0.2929(3) 0.5311(3) 0.8881(2)
H22 H -0.2561 0.5394 0.9225
C40 C -0.3839(3) 0.5429(2) 0.8799(2)
C41 C -0.4350(3) 0.5273(2) 0.82877(19)
H23 H -0.4983 0.5339 0.8223
C42 C -0.3960(3) 0.5029(2) 0.78809(18)
H24 H -0.4321 0.4934 0.7534
C43 C -0.6167(4) 0.6664(4) 0.9483(2)
C44 C -0.6357(6) 0.7136(5) 0.9881(3)
H25 H -0.5922 0.7282 1.0209
C45 C -0.7137(7) 0.7389(6) 0.9812(4)
H26 H -0.7264 0.7689 1.0094
C46 C -0.7758(6) 0.7203(5) 0.9320(2)
C47 C -0.7535(5) 0.6803(4) 0.8923(2)
H27 H -0.7921 0.6702 0.8582
C48 C -0.6757(5) 0.6539(4) 0.9005(2)
H28 H -0.6620 0.6255 0.8717
C49 C -0.8627(6) 0.7472(6) 0.9232(2)
C50 C -0.8544(7) 0.8139(6) 0.9302(3)
C51 C -0.9324(9) 0.8463(7) 0.9232(4)
C52 C -1.0290(9) 0.7924(9) 0.9106(4)
C53 C -1.0380(7) 0.7290(8) 0.9022(3)
C54 C -0.9553(8) 0.7061(8) 0.9083(3)
F6 F -0.7599(5) 0.8659(4) 0.9450(2)
F7 F -0.9169(5) 0.9123(4) 0.9331(2)
F8 F -1.1004(4) 0.8238(4) 0.9041(2)
F9 F -1.1245(4) 0.6900(4) 0.8894(2)
F10 F -0.9692(4) 0.6403(5) 0.9015(2)
Zn3 Zn -0.24011(4) 0.47189(3) 0.73269(3)
Cl5 Cl -0.34123(9) 0.45689(8) 0.65783(5)
Cl6 Cl -0.15655(10) 0.39844(8) 0.74792(8)
N7 N -0.1426(3) 0.5675(2) 0.74911(17)
N8 N 0.1572(2) 0.7582(2) 0.78916(15)
N9 N 0.5104(2) 0.7841(2) 0.79136(14)
C55 C -0.0478(3) 0.5743(3) 0.7533(2)
H29 H -0.0255 0.5347 0.7472
C56 C 0.0194(3) 0.6359(3) 0.7659(2)
H30 H 0.0870 0.6385 0.7699
C57 C -0.0113(3) 0.6953(2) 0.77306(17)
C58 C -0.1109(3) 0.6868(3) 0.7685(2)
H31 H -0.1358 0.7254 0.7738
C59 C -0.1725(3) 0.6240(3) 0.7565(2)
H32 H -0.2405 0.6197 0.7531
C60 C 0.0631(3) 0.7621(2) 0.78557(18)
C61 C 0.0391(3) 0.8229(2) 0.79171(17)
H33 H -0.0269 0.8239 0.7903
C62 C 0.1137(3) 0.8834(3) 0.80013(18)
C63 C 0.2102(3) 0.8790(3) 0.80313(19)
H34 H 0.2628 0.9187 0.8089
C64 C 0.2271(3) 0.8160(3) 0.79755(18)
C65 C 0.5007(3) 0.8471(3) 0.8092(2)
H35 H 0.5573 0.8843 0.8195
C66 C 0.4123(3) 0.8579(3) 0.8128(2)
H36 H 0.4081 0.9026 0.8255
C67 C 0.3273(3) 0.8050(3) 0.79799(19)
C68 C 0.3390(3) 0.7416(3) 0.7805(2)
H37 H 0.2835 0.7036 0.7702
C69 C 0.4298(3) 0.7331(3) 0.7779(2)
H38 H 0.4356 0.6887 0.7660
C70 C 0.0920(3) 0.9498(2) 0.8042(2)
C71 C 0.1465(3) 1.0012(3) 0.7833(2)
H39 H 0.1963 0.9927 0.7647
C72 C 0.1283(3) 1.0638(3) 0.7894(2)
H40 H 0.1668 1.0979 0.7752
C73 C 0.0561(3) 1.0789(2) 0.81555(19)
C74 C -0.0005(3) 1.0262(3) 0.8359(2)
H41 H -0.0509 1.0344 0.8540
C75 C 0.0174(3) 0.9638(2) 0.82951(19)
H42 H -0.0221 0.9290 0.8427
C76 C 0.0420(3) 1.1471(3) 0.82454(18)
C77 C 0.1155(4) 1.2058(3) 0.8389(2)
C78 C 0.1013(6) 1.2697(3) 0.8451(2)
C79 C 0.0089(5) 1.2774(3) 0.8397(2)
C80 C -0.0664(5) 1.2219(3) 0.8256(2)
C81 C -0.0520(4) 1.1576(3) 0.8185(2)
F11 F 0.2095(2) 1.2010(2) 0.84738(17)
F12 F 0.1789(3) 1.3246(2) 0.85940(19)
F13 F -0.0028(4) 1.3408(2) 0.84654(17)
F14 F -0.1595(3) 1.2283(2) 0.81977(16)
F15 F -0.1302(2) 1.10587(17) 0.80339(13)
Zn4 Zn 0.64128(4) 0.76465(3) 0.78223(2)
Cl7 Cl 0.65311(9) 0.68598(7) 0.82796(5)
Cl8 Cl 0.76337(8) 0.85610(7) 0.79264(5)
N10 N 0.6199(2) 0.7155(2) 0.70415(16)
N11 N 0.6341(2) 0.6551(2) 0.51248(16)
N12 N 0.6249(2) 0.7524(2) 0.35056(16)
C82 C 0.5930(3) 0.6489(3) 0.68947(19)
H43 H 0.5703 0.6232 0.7142
C83 C 0.5959(3) 0.6149(3) 0.6406(2)
H44 H 0.5781 0.5668 0.6325
C84 C 0.6250(3) 0.6511(2) 0.6024(2)
C85 C 0.6468(3) 0.7216(2) 0.6169(2)
H45 H 0.6629 0.7487 0.5919
C86 C 0.6450(3) 0.7517(3) 0.66763(19)
H46 H 0.6620 0.7998 0.6772
C87 C 0.6303(3) 0.6177(2) 0.54897(18)
C88 C 0.6343(3) 0.5511(2) 0.53720(19)
H47 H 0.6379 0.5269 0.5648
C89 C 0.6334(3) 0.5194(2) 0.48746(19)
C90 C 0.6294(3) 0.5582(2) 0.44794(18)
H48 H 0.6255 0.5382 0.4121
C91 C 0.6312(3) 0.6253(2) 0.46266(18)
C92 C 0.6686(4) 0.7790(3) 0.4001(2)
H49 H 0.6989 0.8262 0.4103
C93 C 0.6705(3) 0.7378(3) 0.4378(2)
H50 H 0.7005 0.7576 0.4734
C94 C 0.6291(3) 0.6697(2) 0.42299(19)
C95 C 0.5852(3) 0.6430(2) 0.37148(19)
H51 H 0.5563 0.5957 0.3599
C96 C 0.5838(3) 0.6862(3) 0.33688(19)
H52 H 0.5519 0.6675 0.3015
C97 C 0.6343(3) 0.4471(2) 0.47338(19)
C98 C 0.5975(3) 0.4023(2) 0.50486(19)
H53 H 0.5712 0.4183 0.5343
C99 C 0.5989(3) 0.3349(2) 0.4938(2)
H54 H 0.5731 0.3053 0.5155
C100 C 0.6380(3) 0.3108(2) 0.45110(19)
C101 C 0.6741(4) 0.3544(3) 0.4197(2)
H55 H 0.7012 0.3382 0.3906
C102 C 0.6714(3) 0.4213(3) 0.4301(2)
H56 H 0.6952 0.4502 0.4074
C103 C 0.6431(3) 0.2388(3) 0.4421(2)
C104 C 0.5605(4) 0.1850(3) 0.4341(2)
C105 C 0.5673(4) 0.1186(3) 0.4269(3)
C106 C 0.6550(4) 0.1045(3) 0.4251(2)
C107 C 0.7384(4) 0.1567(3) 0.4332(2)
C108 C 0.7310(3) 0.2228(3) 0.4415(2)
F16 F 0.4722(2) 0.19495(17) 0.43492(17)
F17 F 0.4846(3) 0.06666(17) 0.42004(17)
F18 F 0.6592(3) 0.03941(17) 0.41729(16)
F19 F 0.8242(2) 0.14273(18) 0.43485(14)
F20 F 0.81446(18) 0.27232(15) 0.44970(12)
Zn1_2 Zn 0.61793(4) 0.81471(3) 0.29718(3)
N12_2 N 0.6249(2) 0.7524(2) 1.35056(16)
loop_
_geom_bond_atom_site_label_1
_geom_bond_atom_site_label_2
_geom_bond_site_symmetry_1
_geom_bond_site_symmetry_2
Zn1 Cl1 1_555 1_555
Cl2 Zn1 1_555 1_555
N1 Zn1 1_555 1_555
N2 C6 1_555 1_555
N3 C11 1_555 1_555
C1 N1 1_555 1_555
H1 C1 1_555 1_555
C2 C1 1_555 1_555
H2 C2 1_555 1_555
C3 C2 1_555 1_555
C4 C3 1_555 1_555
H3 C4 1_555 1_555
C5 N1 1_555 1_555
H4 C5 1_555 1_555
C6 C3 1_555 1_555
C7 C6 1_555 1_555
H5 C7 1_555 1_555
C8 C7 1_555 1_555
C9 C8 1_555 1_555
H6 C9 1_555 1_555
C10 N2 1_555 1_555
C11 H7 1_555 1_555
C12 C11 1_555 1_555
H8 C12 1_555 1_555
C13 C10 1_555 1_555
C14 C13 1_555 1_555
H9 C14 1_555 1_555
C15 N3 1_555 1_555
H10 C15 1_555 1_555
C16 C8 1_555 1_555
C17 C16 1_555 1_555
H11 C17 1_555 1_555
C18 C17 1_555 1_555
H12 C18 1_555 1_555
C19 C18 1_555 1_555
C20 C19 1_555 1_555
H13 C20 1_555 1_555
C21 C16 1_555 1_555
H14 C21 1_555 1_555
C22 C19 1_555 1_555
C23 C22 1_555 1_555
C24 C23 1_555 1_555
C25 C24 1_555 1_555
C26 C25 1_555 1_555
C27 C22 1_555 1_555
F1 C23 1_555 1_555
F2 C24 1_555 1_555
F3 C25 1_555 1_555
F4 C26 1_555 1_555
F5 C27 1_555 1_555
Zn2 N3 1_555 1_555
Cl3 Zn2 1_555 1_555
Cl4 Zn2 1_555 1_555
N4 Zn2 1_555 1_555
N5 C33 1_555 1_555
N6 C38 1_555 1_555
C28 N4 1_555 1_555
H15 C28 1_555 1_555
C29 C28 1_555 1_555
H16 C29 1_555 1_555
C30 C29 1_555 1_555
C31 C30 1_555 1_555
H17 C31 1_555 1_555
C32 N4 1_555 1_555
H18 C32 1_555 1_555
C33 C30 1_555 1_555
C34 C33 1_555 1_555
H19 C34 1_555 1_555
C35 C34 1_555 1_555
C36 C35 1_555 1_555
H20 C36 1_555 1_555
C37 N5 1_555 1_555
C38 H21 1_555 1_555
C39 C38 1_555 1_555
H22 C39 1_555 1_555
C40 C37 1_555 1_555
C41 C40 1_555 1_555
H23 C41 1_555 1_555
C42 N6 1_555 1_555
H24 C42 1_555 1_555
C43 C35 1_555 1_555
C44 C43 1_555 1_555
H25 C44 1_555 1_555
C45 C44 1_555 1_555
H26 C45 1_555 1_555
C46 C45 1_555 1_555
C47 C46 1_555 1_555
H27 C47 1_555 1_555
C48 C43 1_555 1_555
H28 C48 1_555 1_555
C49 C46 1_555 1_555
C50 C49 1_555 1_555
C51 C50 1_555 1_555
C52 C51 1_555 1_555
C53 C52 1_555 1_555
C54 C49 1_555 1_555
F6 C50 1_555 1_555
F7 C51 1_555 1_555
F8 C52 1_555 1_555
F9 C53 1_555 1_555
F10 C54 1_555 1_555
Zn3 N6 1_555 1_555
Cl5 Zn3 1_555 1_555
Cl6 Zn3 1_555 1_555
N7 Zn3 1_555 1_555
N8 C60 1_555 1_555
N9 C65 1_555 1_555
C55 N7 1_555 1_555
H29 C55 1_555 1_555
C56 C55 1_555 1_555
H30 C56 1_555 1_555
C57 C56 1_555 1_555
C58 C57 1_555 1_555
H31 C58 1_555 1_555
C59 N7 1_555 1_555
H32 C59 1_555 1_555
C60 C57 1_555 1_555
C61 C60 1_555 1_555
H33 C61 1_555 1_555
C62 C61 1_555 1_555
C63 C62 1_555 1_555
H34 C63 1_555 1_555
C64 N8 1_555 1_555
C65 H35 1_555 1_555
C66 C65 1_555 1_555
H36 C66 1_555 1_555
C67 C64 1_555 1_555
C68 C67 1_555 1_555
H37 C68 1_555 1_555
C69 N9 1_555 1_555
H38 C69 1_555 1_555
C70 C62 1_555 1_555
C71 C70 1_555 1_555
H39 C71 1_555 1_555
C72 C71 1_555 1_555
H40 C72 1_555 1_555
C73 C72 1_555 1_555
C74 C73 1_555 1_555
H41 C74 1_555 1_555
C75 C70 1_555 1_555
H42 C75 1_555 1_555
C76 C73 1_555 1_555
C77 C76 1_555 1_555
C78 C77 1_555 1_555
C79 C78 1_555 1_555
C80 C79 1_555 1_555
C81 C76 1_555 1_555
F11 C77 1_555 1_555
F12 C78 1_555 1_555
F13 C79 1_555 1_555
F14 C80 1_555 1_555
F15 C81 1_555 1_555
Zn4 N9 1_555 1_555
Cl7 Zn4 1_555 1_555
Cl8 Zn4 1_555 1_555
N10 Zn4 1_555 1_555
N11 C87 1_555 1_555
N12 C92 1_555 1_555
C82 N10 1_555 1_555
H43 C82 1_555 1_555
C83 C82 1_555 1_555
H44 C83 1_555 1_555
C84 C83 1_555 1_555
C85 C84 1_555 1_555
H45 C85 1_555 1_555
C86 N10 1_555 1_555
H46 C86 1_555 1_555
C87 C84 1_555 1_555
C88 C87 1_555 1_555
H47 C88 1_555 1_555
C89 C88 1_555 1_555
C90 C89 1_555 1_555
H48 C90 1_555 1_555
C91 N11 1_555 1_555
C92 H49 1_555 1_555
C93 C92 1_555 1_555
H50 C93 1_555 1_555
C94 C91 1_555 1_555
C95 C94 1_555 1_555
H51 C95 1_555 1_555
C96 N12 1_555 1_555
H52 C96 1_555 1_555
C97 C89 1_555 1_555
C98 C97 1_555 1_555
H53 C98 1_555 1_555
C99 C98 1_555 1_555
H54 C99 1_555 1_555
C100 C99 1_555 1_555
C101 C100 1_555 1_555
H55 C101 1_555 1_555
C102 C97 1_555 1_555
H56 C102 1_555 1_555
C103 C100 1_555 1_555
C104 C103 1_555 1_555
C105 C104 1_555 1_555
C106 C105 1_555 1_555
C107 C106 1_555 1_555
C108 C103 1_555 1_555
F16 C104 1_555 1_555
F17 C105 1_555 1_555
F18 C106 1_555 1_555
F19 C107 1_555 1_555
F20 C108 1_555 1_555
Zn1_2 N12 1_555 1_555
N12_2 Zn1 1_555 1_555
C4 C5 1_555 1_555
C9 C10 1_555 1_555
C12 C13 1_555 1_555
C14 C15 1_555 1_555
C20 C21 1_555 1_555
C26 C27 1_555 1_555
C31 C32 1_555 1_555
C36 C37 1_555 1_555
C39 C40 1_555 1_555
C41 C42 1_555 1_555
C47 C48 1_555 1_555
C53 C54 1_555 1_555
C58 C59 1_555 1_555
C63 C64 1_555 1_555
C66 C67 1_555 1_555
C68 C69 1_555 1_555
C74 C75 1_555 1_555
C80 C81 1_555 1_555
C85 C86 1_555 1_555
C90 C91 1_555 1_555
C93 C94 1_555 1_555
C95 C96 1_555 1_555
C101 C102 1_555 1_555
C107 C108 1_555 1_555

#END
