
#######################################################################
#
#                 Cambridge Crystallographic Data Centre
#                                CCDC 
#
#######################################################################
#
# If this CIF has been generated from an entry in the Cambridge 
# Structural Database, then it will include bibliographic, chemical, 
# crystal, experimental, refinement or atomic coordinate data resulting 
# from the CCDC's data processing and validation procedures.
#
#######################################################################

data_QOJBUN
_symmetry_cell_setting           monoclinic
_symmetry_space_group_name_H-M   'C c'
_symmetry_Int_Tables_number      9
_space_group_name_Hall           'C -2yc'
loop_
_symmetry_equiv_pos_site_id
_symmetry_equiv_pos_as_xyz
1 x,y,z
2 x,-y,1/2+z
3 1/2+x,1/2+y,z
4 1/2+x,1/2-y,1/2+z
_cell_length_a                   15.7120(17)
_cell_length_b                   9.3505(10)
_cell_length_c                   18.7239(19)
_cell_angle_alpha                90
_cell_angle_beta                 99.482(2)
_cell_angle_gamma                90
_cell_volume                     2713.24
loop_
_atom_site_label
_atom_site_type_symbol
_atom_site_fract_x
_atom_site_fract_y
_atom_site_fract_z
Ag1 Ag -0.07772(2) -0.52178(3) -0.297560(17)
Ag2 Ag 0.06692(2) -0.52534(4) -0.036220(19)
Ag3 Ag -0.16285(2) 0.20066(3) -0.479760(19)
C1 C -0.3669(3) -0.6116(7) -0.4575(4)
H1 H -0.4240 -0.6196 -0.4458
H2 H -0.3531 -0.6972 -0.4814
H3 H -0.3645 -0.5310 -0.4889
C2 C -0.3193(5) -0.4565(7) -0.3464(5)
H4 H -0.3744 -0.4653 -0.3310
H5 H -0.3198 -0.3751 -0.3777
H6 H -0.2751 -0.4443 -0.3049
C3 C -0.3014(4) -0.7238(7) -0.3412(3)
H7 H -0.2621 -0.7117 -0.2966
H8 H -0.2840 -0.8044 -0.3670
H9 H -0.3585 -0.7398 -0.3308
C4 C -0.3011(3) -0.5905(5) -0.3870(3)
C5 C -0.1871(3) -0.4205(4) -0.4598(2)
H10 H -0.1491 -0.4367 -0.4949
H11 H -0.2444 -0.4028 -0.4866
C6 C -0.1572(2) -0.2862(3) -0.4175(2)
C7 C -0.0769(2) -0.1760(4) -0.31889(19)
C8 C -0.0238(3) -0.1835(4) -0.2507(2)
H12 H -0.0117 -0.2718 -0.2284
C9 C 0.0101(3) -0.0619(4) -0.2171(2)
H13 H 0.0448 -0.0679 -0.1719
C10 C -0.0068(3) 0.0715(4) -0.2499(2)
H14 H 0.0169 0.1535 -0.2265
C11 C -0.0579(3) 0.0823(4) -0.3162(2)
H15 H -0.0686 0.1715 -0.3378
C12 C -0.0943(2) -0.0407(4) -0.35175(19)
C13 C -0.1772(2) -0.1480(4) -0.45013(19)
C14 C -0.2330(3) -0.1409(4) -0.5241(2)
H16 H -0.2806 -0.2074 -0.5252
H17 H -0.1991 -0.1721 -0.5601
C15 C -0.2756(3) 0.0486(4) -0.6480(2)
C16 C -0.1850(4) 0.0410(8) -0.6634(3)
H18 H -0.1861 0.0377 -0.7148
H19 H -0.1574 -0.0436 -0.6416
H20 H -0.1535 0.1239 -0.6438
C17 C -0.3161(4) 0.1951(5) -0.6662(3)
H21 H -0.2791 0.2679 -0.6418
H22 H -0.3713 0.1993 -0.6506
H23 H -0.3233 0.2104 -0.7175
C18 C -0.3314(3) -0.0705(5) -0.6863(2)
H24 H -0.3365 -0.0584 -0.7378
H25 H -0.3876 -0.0669 -0.6727
H26 H -0.3052 -0.1614 -0.6727
N1 N -0.1101(2) -0.2975(3) -0.35329(17)
N2 N -0.1461(2) -0.0313(3) -0.41848(18)
N3 N -0.0860(2) -0.6225(4) -0.1435(2)
N4 N 0.0771(3) -0.5678(4) -0.3794(2)
O1 O -0.0325(2) -0.5635(4) -0.17560(18)
O2 O -0.1582(3) -0.6462(7) -0.1757(3)
O3 O -0.0638(2) -0.6588(4) -0.07924(17)
O4 O 0.0266(3) -0.4830(4) -0.4169(2)
O5 O 0.1470(3) -0.5962(5) -0.3975(3)
O6 O 0.0564(2) -0.6194(4) -0.32378(17)
S1 S -0.19096(6) -0.58255(8) -0.40840(5)
S2 S -0.27657(6) 0.03554(9) -0.54929(5)
Ag2C Ag -0.43308(2) 0.02534(4) -0.536220(19)
Ag2A Ag 0.06692(2) -0.47466(4) -0.536220(19)
Ag3_2 Ag -0.16285(2) -0.79934(3) -0.479760(19)
O4A O 0.0266(3) -0.5170(4) 0.0831(2)
S1_2 S -0.19096(6) 0.41745(8) -0.40840(5)
S2C S 0.22343(6) -0.53554(9) -0.04929(5)
N5 N 0.0006(3) 0.2177(5) -0.5386(2)
O7 O -0.0234(3) 0.1039(6) -0.5190(4)
O8 O -0.0492(4) 0.3180(5) -0.5393(4)
O9 O 0.0715(3) 0.2310(6) -0.5586(3)
loop_
_geom_bond_atom_site_label_1
_geom_bond_atom_site_label_2
_geom_bond_site_symmetry_1
_geom_bond_site_symmetry_2
Ag1 N1 1_555 1_555
Ag2 O3 1_555 1_555
Ag3 N2 1_555 1_555
C1 H1 1_555 1_555
H2 C1 1_555 1_555
H3 C1 1_555 1_555
C2 H4 1_555 1_555
H5 C2 1_555 1_555
H6 C2 1_555 1_555
C3 H7 1_555 1_555
H8 C3 1_555 1_555
H9 C3 1_555 1_555
C4 C1 1_555 1_555
C5 H10 1_555 1_555
H11 C5 1_555 1_555
C6 C5 1_555 1_555
C7 C8 1_555 1_555
C8 H12 1_555 1_555
C9 C8 1_555 1_555
H13 C9 1_555 1_555
C10 C9 1_555 1_555
H14 C10 1_555 1_555
C11 C10 1_555 1_555
H15 C11 1_555 1_555
C12 C7 1_555 1_555
C13 C6 1_555 1_555
C14 C13 1_555 1_555
H16 C14 1_555 1_555
H17 C14 1_555 1_555
C15 C16 1_555 1_555
C16 H18 1_555 1_555
H19 C16 1_555 1_555
H20 C16 1_555 1_555
C17 C15 1_555 1_555
H21 C17 1_555 1_555
H22 C17 1_555 1_555
H23 C17 1_555 1_555
C18 C15 1_555 1_555
H24 C18 1_555 1_555
H25 C18 1_555 1_555
H26 C18 1_555 1_555
N1 C6 1_555 1_555
N2 C12 1_555 1_555
N3 O1 1_555 1_555
N4 O4 1_555 1_555
N5 O7 1_555 1_555
O1 Ag1 1_555 1_555
O2 N3 1_555 1_555
O3 N3 1_555 1_555
O4 Ag2A 1_555 1_555
O5 N4 1_555 1_555
O6 Ag1 1_555 1_555
O8 N5 1_555 1_555
O9 N5 1_555 1_555
S1 Ag1 1_555 1_555
S2 Ag3 1_555 1_555
Ag2C S2 1_555 1_555
Ag3_2 S1 1_555 1_555
O4A Ag2 1_555 1_555
S1_2 Ag3 1_555 1_555
S2C Ag2 1_555 1_555
C2 C4 1_555 1_555
C3 C4 1_555 1_555
C4 S1 1_555 1_555
C5 S1 1_555 1_555
C7 N1 1_555 1_555
C11 C12 1_555 1_555
C13 N2 1_555 1_555
C14 S2 1_555 1_555
C15 S2 1_555 1_555
N4 O6 1_555 1_555

#END
