
#######################################################################
#
#                 Cambridge Crystallographic Data Centre
#                                CCDC 
#
#######################################################################
#
# If this CIF has been generated from an entry in the Cambridge 
# Structural Database, then it will include bibliographic, chemical, 
# crystal, experimental, refinement or atomic coordinate data resulting 
# from the CCDC's data processing and validation procedures.
#
#######################################################################

data_QOJBOI
_symmetry_cell_setting           triclinic
_symmetry_space_group_name_H-M   'P -1'
_symmetry_Int_Tables_number      2
_space_group_name_Hall           '-P 1'
loop_
_symmetry_equiv_pos_site_id
_symmetry_equiv_pos_as_xyz
1 x,y,z
2 -x,-y,-z
_cell_length_a                   14.3701(12)
_cell_length_b                   22.089(2)
_cell_length_c                   26.512(3)
_cell_angle_alpha                95.414(6)
_cell_angle_beta                 95.480(6)
_cell_angle_gamma                92.935(5)
_cell_volume                     8324.23
loop_
_atom_site_label
_atom_site_type_symbol
_atom_site_fract_x
_atom_site_fract_y
_atom_site_fract_z
Zn1 Zn 1.66649(4) 0.51016(2) 1.23486(2)
Zn2 Zn 1.84191(3) 0.49975(2) 0.76744(2)
Zn3 Zn 1.03558(4) 0.25941(3) 0.68982(2)
Zn4 Zn 0.88557(3) 0.23598(2) 0.22262(2)
Cl1 Cl 1.76105(9) 0.53316(5) 1.30659(5)
Cl2 Cl 1.56195(10) 0.57398(6) 1.21189(8)
Cl3 Cl 1.75204(7) 0.57738(5) 0.77599(5)
Cl4 Cl 1.96626(7) 0.50592(5) 0.72314(4)
Cl5 Cl 1.04890(11) 0.31745(8) 0.76389(5)
Cl6 Cl 0.94880(10) 0.17302(7) 0.67952(7)
Cl7 Cl 0.86761(8) 0.29603(5) 0.16053(4)
Cl8 Cl 0.79811(8) 0.15237(5) 0.22652(5)
N1 N 1.7523(2) 0.49108(15) 1.17872(13)
N2 N 1.9072(2) 0.44004(14) 1.02157(13)
N3 N 1.8851(2) 0.47834(15) 0.83964(13)
C1 C 1.8376(3) 0.47356(17) 1.19230(16)
H1 H 1.8596 0.4773 1.2275
C2 C 1.8951(3) 0.45036(18) 1.15778(15)
H2 H 1.9551 0.4376 1.1690
C3 C 1.8646(3) 0.44583(18) 1.10638(16)
C4 C 1.7766(3) 0.4663(2) 1.09247(19)
H3 H 1.7544 0.4664 1.0575
C5 C 1.7224(3) 0.4862(2) 1.12959(18)
H4 H 1.6607 0.4970 1.1197
C6 C 1.9259(3) 0.42142(18) 1.06809(15)
C7 C 1.9943(3) 0.38197(19) 1.07930(16)
H5 H 2.0048 0.3698 1.1127
C8 C 2.0482(3) 0.35996(19) 1.04130(16)
C9 C 2.0301(3) 0.38034(19) 0.99323(16)
H6 H 2.0666 0.3677 0.9665
C10 C 1.9593(3) 0.41889(18) 0.98478(15)
C11 C 1.8452(3) 0.49996(17) 0.87955(16)
H7 H 1.7994 0.5291 0.8756
C12 C 1.8685(3) 0.4811(2) 0.92729(16)
H8 H 1.8389 0.4976 0.9556
C13 C 1.9337(3) 0.43901(17) 0.93395(16)
C14 C 1.9752(3) 0.41595(19) 0.89129(15)
H9 H 2.0210 0.3866 0.8942
C15 C 1.9483(3) 0.43663(19) 0.84429(16)
H10 H 1.9756 0.4207 0.8150
C16 C 2.1239(3) 0.3178(2) 1.05101(17)
C17 C 2.1759(3) 0.3207(2) 1.09848(17)
H11 H 2.1626 0.3494 1.1255
C18 C 2.2474(3) 0.2815(3) 1.10605(18)
H12 H 2.2823 0.2835 1.1385
C19 C 2.2690(4) 0.2394(3) 1.0670(2)
C20 C 2.2147(4) 0.2370(2) 1.0194(2)
H13 H 2.2288 0.2091 0.9921
C21 C 2.1434(4) 0.2735(3) 1.0121(2)
H14 H 2.1058 0.2693 0.9804
C22 C 2.3466(5) 0.1961(4) 1.0736(2)
C23 C 2.4355(5) 0.2136(4) 1.0845(2)
C24 C 2.4665(4) 0.2771(5) 1.0902(2)
H15 H 2.4190 0.3051 1.0867
C25 C 2.5571(5) 0.3019(6) 1.1001(3)
H16 H 2.5729 0.3445 1.1031
C26 C 2.6309(5) 0.2530(6) 1.1060(3)
H17 H 2.6958 0.2647 1.1125
C27 C 2.5996(6) 0.1920(7) 1.1017(3)
H18 H 2.6447 0.1629 1.1078
C28 C 2.5071(6) 0.1707(6) 1.0889(2)
C29 C 2.4724(8) 0.1076(6) 1.0798(4)
H19 H 2.5172 0.0775 1.0822
C30 C 2.3884(9) 0.0891(5) 1.0689(3)
H20 H 2.3686 0.0471 1.0636
C31 C 2.3267(7) 0.1351(4) 1.0651(3)
H21 H 2.2628 0.1223 1.0555
N4 N 1.7667(2) 0.42086(14) 0.74195(13)
N5 N 1.5188(2) 0.26007(14) 0.68825(13)
N6 N 1.1700(2) 0.24550(15) 0.67221(14)
C32 C 1.8092(3) 0.3721(2) 0.72265(19)
H22 H 1.8743 0.3762 0.7189
C33 C 1.7621(3) 0.31708(17) 0.70834(17)
H23 H 1.7943 0.2833 0.6957
C34 C 1.6673(3) 0.31106(17) 0.71242(15)
C35 C 1.6241(3) 0.36108(17) 0.73317(16)
H24 H 1.5592 0.3581 0.7375
C36 C 1.6763(3) 0.41474(17) 0.74728(15)
H25 H 1.6464 0.4488 0.7614
C37 C 1.6088(3) 0.25334(17) 0.69534(15)
C38 C 1.6478(3) 0.19714(18) 0.68723(16)
H26 H 1.7137 0.1943 0.6929
C39 C 1.5910(3) 0.14646(17) 0.67120(15)
C40 C 1.4939(3) 0.15355(17) 0.66220(15)
H27 H 1.4522 0.1195 0.6497
C41 C 1.4595(3) 0.21146(16) 0.67195(14)
C42 C 1.2367(3) 0.28943(19) 0.68816(17)
H28 H 1.2190 0.3282 0.7013
C43 C 1.3313(3) 0.27991(17) 0.68610(16)
H29 H 1.3771 0.3123 0.6967
C44 C 1.3587(3) 0.22233(16) 0.66824(15)
C45 C 1.2881(3) 0.17873(17) 0.65031(18)
H30 H 1.3032 0.1399 0.6359
C46 C 1.1965(3) 0.19119(18) 0.65315(17)
H31 H 1.1494 0.1601 0.6411
C47 C 1.6309(3) 0.08691(18) 0.66245(17)
C48 C 1.7032(3) 0.07149(18) 0.69748(17)
H32 H 1.7245 0.0993 0.7263
C49 C 1.7441(3) 0.01566(18) 0.69037(17)
H33 H 1.7925 0.0056 0.7146
C50 C 1.7141(3) -0.02554(18) 0.64769(17)
C51 C 1.6424(3) -0.0103(2) 0.61403(18)
H34 H 1.6207 -0.0381 0.5852
C52 C 1.6010(3) 0.04490(18) 0.62127(17)
H35 H 1.5513 0.0540 0.5975
C53 C 1.7562(4) -0.0862(2) 0.63991(19)
C54 C 1.8503(5) -0.0953(3) 0.6440(2)
C55 C 1.9197(4) -0.0471(4) 0.6546(2)
H36 H 1.9010 -0.0065 0.6594
C56 C 2.0145(5) -0.0574(5) 0.6583(3)
H37 H 2.0606 -0.0244 0.6644
C57 C 2.0406(5) -0.1196(4) 0.6527(2)
H38 H 2.1049 -0.1282 0.6567
C58 C 1.9722(6) -0.1672(4) 0.6414(3)
H39 H 1.9911 -0.2078 0.6372
C59 C 1.8805(6) -0.1576(4) 0.6364(2)
C60 C 1.8135(6) -0.2041(3) 0.6273(3)
H40 H 1.8333 -0.2446 0.6239
C61 C 1.7162(6) -0.1962(3) 0.6227(3)
H41 H 1.6711 -0.2296 0.6155
C62 C 1.6914(6) -0.1374(3) 0.6293(3)
H42 H 1.6266 -0.1303 0.6266
N7 N 0.9865(2) 0.31158(16) 0.63539(14)
N8 N 0.8859(2) 0.37949(16) 0.46665(13)
N9 N 0.8678(2) 0.29330(16) 0.28661(14)
C63 C 0.9422(3) 0.2858(2) 0.59185(19)
H43 H 0.9305 0.2428 0.5883
C64 C 0.9125(3) 0.3168(2) 0.55198(19)
H44 H 0.8828 0.2953 0.5215
C65 C 0.9257(3) 0.3808(2) 0.55598(18)
C66 C 0.9692(3) 0.4071(2) 0.60144(18)
H45 H 0.9785 0.4502 0.6064
C67 C 0.9998(3) 0.3738(2) 0.64014(18)
H46 H 1.0308 0.3942 0.6708
C68 C 0.8965(3) 0.4136(2) 0.51284(16)
C69 C 0.8839(3) 0.4746(2) 0.51734(17)
H47 H 0.8913 0.4970 0.5500
C70 C 0.8599(3) 0.5045(2) 0.47350(17)
C71 C 0.8518(3) 0.4700(2) 0.42762(17)
H48 H 0.8361 0.4886 0.3973
C72 C 0.8662(3) 0.4080(2) 0.42479(16)
C73 C 0.8444(3) 0.2704(2) 0.32901(17)
H49 H 0.8280 0.2281 0.3280
C74 C 0.8435(3) 0.3074(2) 0.37470(18)
H50 H 0.8300 0.2897 0.4047
C75 C 0.8621(3) 0.36903(19) 0.37629(17)
C76 C 0.8814(3) 0.3925(2) 0.33106(17)
H51 H 0.8912 0.4352 0.3298
C77 C 0.8861(3) 0.3530(2) 0.28861(18)
H52 H 0.9034 0.3693 0.2587
C78 C 0.8429(3) 0.5699(2) 0.47772(16)
C79 C 0.7859(4) 0.5947(2) 0.43953(18)
H53 H 0.7557 0.5684 0.4117
C80 C 0.7730(4) 0.6567(2) 0.44184(18)
H54 H 0.7351 0.6723 0.4153
C81 C 0.8154(4) 0.6966(2) 0.48299(19)
C82 C 0.8706(3) 0.6723(2) 0.52003(18)
H55 H 0.9010 0.6987 0.5478
C83 C 0.8838(3) 0.6090(2) 0.51810(19)
H56 H 0.9212 0.5935 0.5449
C84 C 0.8016(4) 0.7625(2) 0.48535(18)
C85 C 0.7100(3) 0.7855(2) 0.48088(16)
C86 C 0.6280(3) 0.7481(2) 0.47817(19)
H57 H 0.6330 0.7055 0.4793
C87 C 0.5394(4) 0.7708(2) 0.4739(2)
H58 H 0.4849 0.7443 0.4730
C88 C 0.5319(4) 0.8340(2) 0.4709(2)
H59 H 0.4721 0.8503 0.4660
C89 C 0.6108(4) 0.8711(2) 0.4749(2)
H60 H 0.6052 0.9137 0.4741
C90 C 0.7017(4) 0.8486(2) 0.4805(2)
C91 C 0.7800(4) 0.8881(2) 0.4851(2)
H61 H 0.7731 0.9306 0.4848
C92 C 0.8693(4) 0.8662(3) 0.4902(3)
H62 H 0.9237 0.8931 0.4938
C93 C 0.8761(4) 0.8016(3) 0.4897(2)
H63 H 0.9366 0.7860 0.4925
N10 N 1.0262(2) 0.21864(15) 0.23056(13)
N11 N 1.3717(2) 0.24863(14) 0.23070(13)
N12 N 1.6018(2) 0.42395(15) 0.23246(16)
C94 C 1.0872(3) 0.26688(19) 0.22969(19)
H64 H 1.0643 0.3062 0.2275
C95 C 1.1823(3) 0.25995(18) 0.23189(18)
H65 H 1.2238 0.2950 0.2326
C96 C 1.2185(3) 0.20352(16) 0.23314(15)
C97 C 1.1534(3) 0.15482(18) 0.23411(17)
H66 H 1.1741 0.1148 0.2359
C98 C 1.0575(3) 0.16452(19) 0.23244(17)
H67 H 1.0141 0.1306 0.2327
C99 C 1.3205(3) 0.19672(17) 0.23152(15)
C100 C 1.3620(3) 0.14058(17) 0.23058(16)
H68 H 1.3247 0.1043 0.2327
C101 C 1.4573(3) 0.13775(17) 0.22658(16)
C102 C 1.5097(3) 0.19297(17) 0.22545(17)
H69 H 1.5754 0.1937 0.2235
C103 C 1.4633(3) 0.24611(17) 0.22729(16)
C104 C 1.5097(3) 0.41529(18) 0.2302(2)
H70 H 1.4736 0.4501 0.2299
C105 C 1.4632(3) 0.3594(2) 0.2283(2)
H71 H 1.3968 0.3561 0.2266
C106 C 1.5136(3) 0.30765(17) 0.22885(17)
C107 C 1.6120(3) 0.31639(18) 0.2303(2)
H72 H 1.6505 0.2827 0.2305
C108 C 1.6501(3) 0.37376(18) 0.2314(2)
H73 H 1.7161 0.3788 0.2315
C109 C 1.5040(3) 0.07955(16) 0.22512(17)
C110 C 1.4741(3) 0.03241(17) 0.25198(17)
H74 H 1.4222 0.0373 0.2714
C111 C 1.5190(3) -0.02186(17) 0.25087(17)
H75 H 1.4980 -0.0536 0.2697
C112 C 1.5961(3) -0.03008(17) 0.22176(16)
C113 C 1.6264(3) 0.01741(18) 0.19715(17)
H76 H 1.6799 0.0131 0.1790
C114 C 1.5827(3) 0.07110(18) 0.19753(17)
H77 H 1.6053 0.1028 0.1792
C115 C 1.6472(3) -0.08748(18) 0.22047(17)
C116 C 1.5966(3) -0.14712(18) 0.20684(17)
C117 C 1.5005(3) -0.1549(2) 0.19393(19)
H78 H 1.4638 -0.1203 0.1938
C118 C 1.4582(5) -0.2119(2) 0.1814(2)
H79 H 1.3924 -0.2162 0.1725
C119 C 1.5090(5) -0.2638(2) 0.1813(2)
H80 H 1.4784 -0.3032 0.1729
C120 C 1.6029(5) -0.2573(2) 0.1932(2)
H81 H 1.6372 -0.2929 0.1933
C121 C 1.6529(4) -0.1994(2) 0.20582(18)
C122 C 1.7479(4) -0.1931(2) 0.21665(19)
H82 H 1.7828 -0.2286 0.2156
C123 C 1.7941(4) -0.1377(3) 0.2289(2)
H83 H 1.8604 -0.1344 0.2358
C124 C 1.7413(3) -0.0842(2) 0.2311(2)
H84 H 1.7734 -0.0454 0.2403
Zn1_2 Zn 1.66649(4) 0.51016(2) 0.23486(2)
N12_2 N 1.6018(2) 0.42395(15) 1.23246(16)
loop_
_geom_bond_atom_site_label_1
_geom_bond_atom_site_label_2
_geom_bond_site_symmetry_1
_geom_bond_site_symmetry_2
Zn1 Cl1 1_555 1_555
Zn2 Cl3 1_555 1_555
Zn3 Cl5 1_555 1_555
Zn4 Cl7 1_555 1_555
Cl2 Zn1 1_555 1_555
Cl4 Zn2 1_555 1_555
Cl6 Zn3 1_555 1_555
Cl8 Zn4 1_555 1_555
N1 Zn1 1_555 1_555
N2 C6 1_555 1_555
N3 Zn2 1_555 1_555
C1 N1 1_555 1_555
H1 C1 1_555 1_555
C2 C1 1_555 1_555
H2 C2 1_555 1_555
C3 C2 1_555 1_555
C4 C3 1_555 1_555
H3 C4 1_555 1_555
C5 N1 1_555 1_555
H4 C5 1_555 1_555
C6 C3 1_555 1_555
C7 C6 1_555 1_555
H5 C7 1_555 1_555
C8 C7 1_555 1_555
C9 C8 1_555 1_555
H6 C9 1_555 1_555
C10 N2 1_555 1_555
C11 N3 1_555 1_555
H7 C11 1_555 1_555
C12 C11 1_555 1_555
H8 C12 1_555 1_555
C13 C10 1_555 1_555
C14 C13 1_555 1_555
H9 C14 1_555 1_555
C15 N3 1_555 1_555
H10 C15 1_555 1_555
C16 C8 1_555 1_555
C17 C16 1_555 1_555
H11 C17 1_555 1_555
C18 C17 1_555 1_555
H12 C18 1_555 1_555
C19 C18 1_555 1_555
C20 C19 1_555 1_555
H13 C20 1_555 1_555
C21 C16 1_555 1_555
H14 C21 1_555 1_555
C22 C19 1_555 1_555
C23 C22 1_555 1_555
C24 C23 1_555 1_555
H15 C24 1_555 1_555
C25 C24 1_555 1_555
H16 C25 1_555 1_555
C26 C25 1_555 1_555
H17 C26 1_555 1_555
C27 C26 1_555 1_555
H18 C27 1_555 1_555
C28 C23 1_555 1_555
C29 C28 1_555 1_555
H19 C29 1_555 1_555
C30 C29 1_555 1_555
H20 C30 1_555 1_555
C31 C22 1_555 1_555
H21 C31 1_555 1_555
N4 Zn2 1_555 1_555
N5 C37 1_555 1_555
N6 Zn3 1_555 1_555
C32 N4 1_555 1_555
H22 C32 1_555 1_555
C33 C32 1_555 1_555
H23 C33 1_555 1_555
C34 C33 1_555 1_555
C35 C34 1_555 1_555
H24 C35 1_555 1_555
C36 N4 1_555 1_555
H25 C36 1_555 1_555
C37 C34 1_555 1_555
C38 C37 1_555 1_555
H26 C38 1_555 1_555
C39 C38 1_555 1_555
C40 C39 1_555 1_555
H27 C40 1_555 1_555
C41 N5 1_555 1_555
C42 N6 1_555 1_555
H28 C42 1_555 1_555
C43 C42 1_555 1_555
H29 C43 1_555 1_555
C44 C41 1_555 1_555
C45 C44 1_555 1_555
H30 C45 1_555 1_555
C46 N6 1_555 1_555
H31 C46 1_555 1_555
C47 C39 1_555 1_555
C48 C47 1_555 1_555
H32 C48 1_555 1_555
C49 C48 1_555 1_555
H33 C49 1_555 1_555
C50 C49 1_555 1_555
C51 C50 1_555 1_555
H34 C51 1_555 1_555
C52 C47 1_555 1_555
H35 C52 1_555 1_555
C53 C50 1_555 1_555
C54 C53 1_555 1_555
C55 C54 1_555 1_555
H36 C55 1_555 1_555
C56 C55 1_555 1_555
H37 C56 1_555 1_555
C57 C56 1_555 1_555
H38 C57 1_555 1_555
C58 C57 1_555 1_555
H39 C58 1_555 1_555
C59 C54 1_555 1_555
C60 C59 1_555 1_555
H40 C60 1_555 1_555
C61 C60 1_555 1_555
H41 C61 1_555 1_555
C62 C53 1_555 1_555
H42 C62 1_555 1_555
N7 Zn3 1_555 1_555
N8 C68 1_555 1_555
N9 Zn4 1_555 1_555
C63 N7 1_555 1_555
H43 C63 1_555 1_555
C64 C63 1_555 1_555
H44 C64 1_555 1_555
C65 C64 1_555 1_555
C66 C65 1_555 1_555
H45 C66 1_555 1_555
C67 N7 1_555 1_555
H46 C67 1_555 1_555
C68 C65 1_555 1_555
C69 C68 1_555 1_555
H47 C69 1_555 1_555
C70 C69 1_555 1_555
C71 C70 1_555 1_555
H48 C71 1_555 1_555
C72 N8 1_555 1_555
C73 N9 1_555 1_555
H49 C73 1_555 1_555
C74 C73 1_555 1_555
H50 C74 1_555 1_555
C75 C72 1_555 1_555
C76 C75 1_555 1_555
H51 C76 1_555 1_555
C77 N9 1_555 1_555
H52 C77 1_555 1_555
C78 C70 1_555 1_555
C79 C78 1_555 1_555
H53 C79 1_555 1_555
C80 C79 1_555 1_555
H54 C80 1_555 1_555
C81 C80 1_555 1_555
C82 C81 1_555 1_555
H55 C82 1_555 1_555
C83 C78 1_555 1_555
H56 C83 1_555 1_555
C84 C81 1_555 1_555
C85 C84 1_555 1_555
C86 C85 1_555 1_555
H57 C86 1_555 1_555
C87 C86 1_555 1_555
H58 C87 1_555 1_555
C88 C87 1_555 1_555
H59 C88 1_555 1_555
C89 C88 1_555 1_555
H60 C89 1_555 1_555
C90 C85 1_555 1_555
C91 C90 1_555 1_555
H61 C91 1_555 1_555
C92 C91 1_555 1_555
H62 C92 1_555 1_555
C93 C84 1_555 1_555
H63 C93 1_555 1_555
N10 Zn4 1_555 1_555
N11 C99 1_555 1_555
N12 C104 1_555 1_555
C94 N10 1_555 1_555
H64 C94 1_555 1_555
C95 C94 1_555 1_555
H65 C95 1_555 1_555
C96 C95 1_555 1_555
C97 C96 1_555 1_555
H66 C97 1_555 1_555
C98 N10 1_555 1_555
H67 C98 1_555 1_555
C99 C96 1_555 1_555
C100 C99 1_555 1_555
H68 C100 1_555 1_555
C101 C100 1_555 1_555
C102 C101 1_555 1_555
H69 C102 1_555 1_555
C103 N11 1_555 1_555
C104 H70 1_555 1_555
C105 C104 1_555 1_555
H71 C105 1_555 1_555
C106 C103 1_555 1_555
C107 C106 1_555 1_555
H72 C107 1_555 1_555
C108 N12 1_555 1_555
H73 C108 1_555 1_555
C109 C101 1_555 1_555
C110 C109 1_555 1_555
H74 C110 1_555 1_555
C111 C110 1_555 1_555
H75 C111 1_555 1_555
C112 C111 1_555 1_555
C113 C112 1_555 1_555
H76 C113 1_555 1_555
C114 C109 1_555 1_555
H77 C114 1_555 1_555
C115 C112 1_555 1_555
C116 C115 1_555 1_555
C117 C116 1_555 1_555
H78 C117 1_555 1_555
C118 C117 1_555 1_555
H79 C118 1_555 1_555
C119 C118 1_555 1_555
H80 C119 1_555 1_555
C120 C119 1_555 1_555
H81 C120 1_555 1_555
C121 C116 1_555 1_555
C122 C121 1_555 1_555
H82 C122 1_555 1_555
C123 C122 1_555 1_555
H83 C123 1_555 1_555
C124 C115 1_555 1_555
H84 C124 1_555 1_555
Zn1_2 N12 1_555 1_555
N12_2 Zn1 1_555 1_555
C4 C5 1_555 1_555
C9 C10 1_555 1_555
C12 C13 1_555 1_555
C14 C15 1_555 1_555
C20 C21 1_555 1_555
C27 C28 1_555 1_555
C30 C31 1_555 1_555
C35 C36 1_555 1_555
C40 C41 1_555 1_555
C43 C44 1_555 1_555
C45 C46 1_555 1_555
C51 C52 1_555 1_555
C58 C59 1_555 1_555
C61 C62 1_555 1_555
C66 C67 1_555 1_555
C71 C72 1_555 1_555
C74 C75 1_555 1_555
C76 C77 1_555 1_555
C82 C83 1_555 1_555
C89 C90 1_555 1_555
C92 C93 1_555 1_555
C97 C98 1_555 1_555
C102 C103 1_555 1_555
C105 C106 1_555 1_555
C107 C108 1_555 1_555
C113 C114 1_555 1_555
C120 C121 1_555 1_555
C123 C124 1_555 1_555

#END
