
#######################################################################
#
#                 Cambridge Crystallographic Data Centre
#                                CCDC 
#
#######################################################################
#
# If this CIF has been generated from an entry in the Cambridge 
# Structural Database, then it will include bibliographic, chemical, 
# crystal, experimental, refinement or atomic coordinate data resulting 
# from the CCDC's data processing and validation procedures.
#
#######################################################################

data_QOJCAU
_symmetry_cell_setting           triclinic
_symmetry_space_group_name_H-M   'P -1'
_symmetry_Int_Tables_number      2
_space_group_name_Hall           '-P 1'
loop_
_symmetry_equiv_pos_site_id
_symmetry_equiv_pos_as_xyz
1 x,y,z
2 -x,-y,-z
_cell_length_a                   10.375(3)
_cell_length_b                   10.831(3)
_cell_length_c                   15.816(4)
_cell_angle_alpha                72.764(4)
_cell_angle_beta                 77.914(4)
_cell_angle_gamma                84.734(5)
_cell_volume                     1658.99
loop_
_atom_site_label
_atom_site_type_symbol
_atom_site_fract_x
_atom_site_fract_y
_atom_site_fract_z
Ag1 Ag -0.00553(7) 0.49079(9) -0.09227(5)
Ag2 Ag -0.40030(9) 0.42269(8) -0.42468(6)
C1 C -0.2742(8) 0.3706(10) 0.1230(6)
C2 C -0.3099(10) 0.2497(10) 0.1793(7)
H1 H -0.2897 0.2231 0.2368
C3 C -0.3740(11) 0.1693(11) 0.1520(8)
H2 H -0.3989 0.0888 0.1912
C4 C -0.4024(12) 0.2054(11) 0.0672(8)
H3 H -0.4479 0.1504 0.0494
C5 C -0.3632(9) 0.3241(11) 0.0078(7)
H4 H -0.3803 0.3471 -0.0503
C6 C -0.2990(8) 0.4088(9) 0.0341(6)
C7 C -0.3062(9) 0.5862(10) -0.1347(6)
H5 H -0.3974 0.5608 -0.1157
H6 H -0.3069 0.6784 -0.1645
C8 C -0.2402(8) 0.5184(9) -0.2045(6)
C9 C -0.0674(9) 0.4053(9) -0.2667(6)
C10 C 0.0590(10) 0.3443(11) -0.2659(8)
H7 H 0.1009 0.3362 -0.2178
C11 C 0.1193(11) 0.2973(13) -0.3360(9)
H8 H 0.2021 0.2564 -0.3353
C12 C 0.0569(12) 0.3104(14) -0.4089(8)
H9 H 0.1000 0.2792 -0.4566
C13 C -0.0650(11) 0.3676(11) -0.4115(8)
H10 H -0.1060 0.3738 -0.4596
C14 C -0.1276(9) 0.4171(9) -0.3406(6)
C15 C -0.3057(8) 0.5254(8) -0.2780(6)
C16 C -0.4402(8) 0.5907(10) -0.2777(5)
H11 H -0.4335 0.6771 -0.2730
H12 H -0.4986 0.5440 -0.2234
C17 C -0.4491(9) 0.7453(9) -0.4512(6)
C18 C -0.5147(9) 0.8045(9) -0.5210(6)
C19 C -0.4649(11) 0.9125(10) -0.5891(7)
H13 H -0.5081 0.9502 -0.6369
C20 C -0.3490(12) 0.9635(11) -0.5843(7)
H14 H -0.3137 1.0351 -0.6298
C21 C -0.2881(10) 0.9106(10) -0.5150(7)
H15 H -0.2128 0.9479 -0.5115
C22 C -0.3357(9) 0.8004(10) -0.4479(6)
H16 H -0.2912 0.7636 -0.4007
C24 C 0.201(2) 0.006(3) 0.0705(19)
H18 H 0.2560 0.0358 0.0119
H19 H 0.1887 -0.0852 0.0841
H20 H 0.2437 0.0212 0.1148
C25 C -0.027(2) 0.010(2) 0.1407(13)
H21 H -0.0446 0.0528 0.1875
H22 H -0.0016 -0.0786 0.1655
H23 H -0.1042 0.0149 0.1157
C26 C 0.007(2) 0.179(2) 0.0297(17)
H24 H -0.0829 0.1848 0.0532
N1 N -0.1259(7) 0.4568(7) -0.1992(5)
N2 N -0.2495(7) 0.4751(7) -0.3436(5)
N3 N -0.2085(7) 0.4569(8) 0.1523(5)
H25 H -0.2139 0.4232 0.2122
H26 H -0.2564 0.5316 0.1441
N4 N -0.6342(8) 0.7501(8) -0.5252(5)
H27 H -0.6790 0.8108 -0.5615
H28 H -0.6850 0.7285 -0.4697
N5 N 0.0783(12) 0.0727(10) 0.0716(8)
O10 O 0.053(2) 0.265(2) -0.0360(14)
S1 S -0.2386(2) 0.5603(2) -0.03497(15)
S2 S -0.5181(2) 0.6052(2) -0.37136(16)
Ag1A Ag 0.00553(7) 0.50921(9) 0.09227(5)
Ag2A Ag -0.59970(9) 0.57731(8) -0.57532(6)
N3A N 0.2085(7) 0.5431(8) -0.1523(5)
H25A H 0.2139 0.5768 -0.2122
H26A H 0.2564 0.4684 -0.1441
N4A N -0.3658(8) 0.2499(8) -0.4748(5)
H27A H -0.3210 0.1892 -0.4385
H28A H -0.3150 0.2715 -0.5303
Cl1 Cl -0.0284(3) 0.2283(3) -0.6570(2)
O2 O 0.0612(11) 0.2818(12) -0.6297(8)
O3 O -0.0371(14) 0.0969(12) -0.6171(12)
O4 O 0.0254(14) 0.2509(12) -0.7519(9)
O5 O -0.1495(10) 0.2929(14) -0.6530(8)
Cl2 Cl -0.4584(4) 0.7676(3) -0.8146(2)
O6 O -0.428(2) 0.707(2) -0.7352(12)
O7 O -0.421(2) 0.8785(12) -0.8547(11)
O8 O -0.4320(14) 0.6794(11) -0.8637(8)
O9 O -0.5902(18) 0.7652(17) -0.7808(17)
O11 O -0.7727(15) 0.9489(14) -0.6617(11)
C23? C 0.099(2) 0.1845(17) 0.0020(14)
H17? H 0.1772 0.1997 -0.0404
O1? O 0.006(2) 0.262(2) 0.0006(17)
loop_
_geom_bond_atom_site_label_1
_geom_bond_atom_site_label_2
_geom_bond_site_symmetry_1
_geom_bond_site_symmetry_2
Ag1 N1 1_555 1_555
Ag2 N2 1_555 1_555
C1 C2 1_555 1_555
C2 H1 1_555 1_555
C3 C2 1_555 1_555
H2 C3 1_555 1_555
C4 C3 1_555 1_555
H3 C4 1_555 1_555
C5 C4 1_555 1_555
H4 C5 1_555 1_555
C6 C1 1_555 1_555
C7 H5 1_555 1_555
H6 C7 1_555 1_555
C8 C7 1_555 1_555
C9 C10 1_555 1_555
C10 H7 1_555 1_555
C11 C10 1_555 1_555
H8 C11 1_555 1_555
C12 C11 1_555 1_555
H9 C12 1_555 1_555
C13 C12 1_555 1_555
H10 C13 1_555 1_555
C14 C9 1_555 1_555
C15 C8 1_555 1_555
C16 C15 1_555 1_555
H11 C16 1_555 1_555
H12 C16 1_555 1_555
C17 C18 1_555 1_555
C18 C19 1_555 1_555
C19 H13 1_555 1_555
C20 C19 1_555 1_555
H14 C20 1_555 1_555
C21 C20 1_555 1_555
H15 C21 1_555 1_555
C22 C17 1_555 1_555
H16 C22 1_555 1_555
C24 H18 1_555 1_555
H19 C24 1_555 1_555
H20 C24 1_555 1_555
C25 H21 1_555 1_555
H22 C25 1_555 1_555
H23 C25 1_555 1_555
C26 H24 1_555 1_555
Cl1 O2 1_555 1_555
Cl2 O6 1_555 1_555
N1 C8 1_555 1_555
N2 C14 1_555 1_555
N3 C1 1_555 1_555
H25 N3 1_555 1_555
H26 N3 1_555 1_555
N4 C18 1_555 1_555
H27 N4 1_555 1_555
H28 N4 1_555 1_555
N5 C24 1_555 1_555
O3 Cl1 1_555 1_555
O4 Cl1 1_555 1_555
O5 Cl1 1_555 1_555
O7 Cl2 1_555 1_555
O8 Cl2 1_555 1_555
O9 Cl2 1_555 1_555
O10 Ag1 1_555 1_555
S1 Ag1 1_555 1_555
S2 Ag2 1_555 1_555
Ag1A N3 1_555 1_555
Ag2A N4 1_555 1_555
N3A Ag1 1_555 1_555
H25A N3A 1_555 1_555
H26A N3A 1_555 1_555
N4A Ag2 1_555 1_555
H27A N4A 1_555 1_555
H28A N4A 1_555 1_555
C5 C6 1_555 1_555
C6 S1 1_555 1_555
C7 S1 1_555 1_555
C9 N1 1_555 1_555
C13 C14 1_555 1_555
C15 N2 1_555 1_555
C16 S2 1_555 1_555
C17 S2 1_555 1_555
C21 C22 1_555 1_555
C25 N5 1_555 1_555
C26 N5 1_555 1_555
C26 O10 1_555 1_555

#END
