
#######################################################################
#
#                 Cambridge Crystallographic Data Centre
#                                CCDC 
#
#######################################################################
#
# If this CIF has been generated from an entry in the Cambridge 
# Structural Database, then it will include bibliographic, chemical, 
# crystal, experimental, refinement or atomic coordinate data resulting 
# from the CCDC's data processing and validation procedures.
#
#######################################################################

data_QOJCAV
_symmetry_cell_setting           triclinic
_symmetry_space_group_name_H-M   'P -1'
_symmetry_Int_Tables_number      2
_space_group_name_Hall           '-P 1'
loop_
_symmetry_equiv_pos_site_id
_symmetry_equiv_pos_as_xyz
1 x,y,z
2 -x,-y,-z
_cell_length_a                   5.9187(6)
_cell_length_b                   10.3360(11)
_cell_length_c                   14.5617(16)
_cell_angle_alpha                101.2750(10)
_cell_angle_beta                 98.8080(10)
_cell_angle_gamma                106.0300(10)
_cell_volume                     819.139
loop_
_atom_site_label
_atom_site_type_symbol
_atom_site_fract_x
_atom_site_fract_y
_atom_site_fract_z
Yb1 Yb 1.00346(3) 1.196308(15) 0.451571(13)
N1 N -0.0610(10) 0.8058(7) 0.2019(3)
C1 C 0.1602(6) 0.8711(3) 0.2658(3)
C2 C 0.3738(5) 0.9505(3) 0.2452(2)
C3 C 0.3584(10) 0.9541(5) 0.1498(4)
H1 H 0.4948 1.0004 0.1307
C4 C 0.1386(11) 0.8885(11) 0.0809(4)
C5 C 0.1388(10) 0.8859(13) -0.0156(4)
H2 H 0.2772 0.9284 -0.0350
C6 C -0.0914(10) 0.8124(11) -0.0843(6)
H3 H -0.1087 0.8240 -0.1464
C7 C -0.2858(17) 0.7251(11) -0.0590(5)
H4 H -0.4197 0.6661 -0.1055
C8 C -0.2724(16) 0.7296(12) 0.0374(4)
H5 H -0.4025 0.6758 0.0562
C9 C -0.0655(11) 0.8141(9) 0.1074(4)
C10 C 0.5915(8) 1.0395(5) 0.3187(3)
C11 C 0.1140(6) 0.8858(4) 0.3639(3)
C12 C 1.1286(6) 1.5245(4) 0.5305(3)
O1 O 0.5963(5) 1.0378(3) 0.40399(19)
O2 O 1.2690(5) 1.2845(3) 0.3573(2)
H6 H 1.4142 1.3184 0.3910
H7 H 1.2290 1.3490 0.3363
O3 O 1.3714(5) 1.2116(3) 0.5469(2)
H8 H 1.4766 1.2912 0.5529
H9 H 1.4245 1.1469 0.5206
O4 O 0.7632(6) 1.1126(3) 0.2921(2)
O5 O 0.1116(5) 0.7865(3) 0.4006(2)
O6 O 0.0682(6) 0.9878(3) 0.4057(4)
O7 O 1.2183(5) 1.4308(3) 0.5412(2)
O8 O 1.2251(5) 1.6523(3) 0.5680(2)
C12A C 0.8714(6) 1.4755(4) 0.4695(3)
O7A O 0.7817(5) 1.5692(3) 0.4588(2)
O8A O 0.7749(5) 1.3477(3) 0.4320(2)
Yb1A Yb -0.00346(3) 0.803692(15) 0.548429(13)
N1A N 1.0610(10) 1.1942(7) 0.7981(3)
C1A C 0.8398(6) 1.1289(3) 0.7342(3)
C2A C 0.6262(5) 1.0495(3) 0.7548(2)
C3A C 0.6416(10) 1.0459(5) 0.8502(4)
H1A H 0.5052 0.9996 0.8693
C4A C 0.8614(11) 1.1115(11) 0.9191(4)
C5A C 0.8612(10) 1.1141(13) 1.0156(4)
H2A H 0.7228 1.0716 1.0350
C6A C 1.0914(10) 1.1876(11) 1.0843(6)
H3A H 1.1087 1.1760 1.1464
C7A C 1.2858(17) 1.2749(11) 1.0590(5)
H4A H 1.4197 1.3339 1.1055
C8A C 1.2724(16) 1.2704(12) 0.9626(4)
H5A H 1.4025 1.3242 0.9438
C9A C 1.0655(11) 1.1859(9) 0.8926(4)
C10A C 0.4085(8) 0.9605(5) 0.6813(3)
C11A C 0.8860(6) 1.1142(4) 0.6361(3)
O1A O 0.4037(5) 0.9622(3) 0.59601(19)
O2A O -0.2690(5) 0.7155(3) 0.6427(2)
H6A H -0.4142 0.6816 0.6090
H7A H -0.2290 0.6510 0.6637
O3A O -0.3714(5) 0.7884(3) 0.4531(2)
H8A H -0.4766 0.7088 0.4471
H9A H -0.4245 0.8531 0.4794
O4A O 0.2368(6) 0.8874(3) 0.7079(2)
O5A O 0.8884(5) 1.2135(3) 0.5994(2)
O6A O 0.9318(6) 1.0122(3) 0.5943(4)
Yb1_2 Yb 0.00346(3) 1.196308(15) 0.451571(13)
Yb1A_2 Yb 0.99654(3) 0.803692(15) 0.548429(13)
Yb1A_3 Yb 0.99654(3) 1.803692(15) 0.548429(13)
O6_2 O 1.0682(6) 0.9878(3) 0.4057(4)
O6A_2 O -0.0682(6) 1.0122(3) 0.5943(4)
O7A_2 O -0.2183(5) 0.5692(3) 0.4588(2)
O8_2 O 0.2251(5) 0.6523(3) 0.5680(2)
O9 O 0.2050(12) 0.5232(5) 0.3113(4)
O10 O 0.6133(13) 0.5798(9) 0.2530(5)
N2? N 0.0142(16) 0.7490(8) 0.1973(4)
C13? C 0.4139(11) 0.9015(5) 0.1510(4)
H10? H 0.5549 0.9508 0.1363
C14? C 0.2538(14) 0.7825(10) 0.0778(5)
C15? C 0.2858(18) 0.7287(7) -0.0168(5)
H11? H 0.4188 0.7775 -0.0366
C16? C 0.1170(14) 0.5997(8) -0.0836(7)
H12? H 0.1459 0.5604 -0.1420
C17? C -0.0966(15) 0.5400(15) -0.0507(5)
H13? H -0.2152 0.4620 -0.0912
C18? C -0.1337(19) 0.5959(11) 0.0423(6)
H14? H -0.2754 0.5561 0.0607
C19? C 0.0459(13) 0.7109(10) 0.1046(5)
loop_
_geom_bond_atom_site_label_1
_geom_bond_atom_site_label_2
_geom_bond_site_symmetry_1
_geom_bond_site_symmetry_2
Yb1 O1 1_555 1_555
N1 C1 1_555 1_555
C1 C2 1_555 1_555
C2 C3 1_555 1_555
C3 H1 1_555 1_555
C4 C3 1_555 1_555
C5 C4 1_555 1_555
H2 C5 1_555 1_555
C6 C5 1_555 1_555
H3 C6 1_555 1_555
C7 C6 1_555 1_555
H4 C7 1_555 1_555
C8 C7 1_555 1_555
H5 C8 1_555 1_555
C9 N1 1_555 1_555
C10 C2 1_555 1_555
C11 C1 1_555 1_555
C12 O7 1_555 1_555
O1 C10 1_555 1_555
O2 Yb1 1_555 1_555
H6 O2 1_555 1_555
H7 O2 1_555 1_555
O3 Yb1 1_555 1_555
H8 O3 1_555 1_555
H9 O3 1_555 1_555
O4 Yb1 1_555 1_555
O5 C11 1_555 1_555
O6 C11 1_555 1_555
O7 Yb1 1_555 1_555
O8 C12 1_555 1_555
C12A C12 1_555 1_555
O7A C12A 1_555 1_555
O8A Yb1 1_555 1_555
Yb1A O5 1_555 1_555
N1A C1A 1_555 1_555
C1A C2A 1_555 1_555
C2A C3A 1_555 1_555
C3A H1A 1_555 1_555
C4A C3A 1_555 1_555
C5A C4A 1_555 1_555
H2A C5A 1_555 1_555
C6A C5A 1_555 1_555
H3A C6A 1_555 1_555
C7A C6A 1_555 1_555
H4A C7A 1_555 1_555
C8A C7A 1_555 1_555
H5A C8A 1_555 1_555
C9A N1A 1_555 1_555
C10A C2A 1_555 1_555
C11A C1A 1_555 1_555
O1A Yb1A 1_555 1_555
O2A Yb1A 1_555 1_555
H6A O2A 1_555 1_555
H7A O2A 1_555 1_555
O3A Yb1A 1_555 1_555
H8A O3A 1_555 1_555
H9A O3A 1_555 1_555
O4A Yb1A 1_555 1_555
O5A Yb1 1_555 1_555
O6A C11A 1_555 1_555
Yb1_2 O6 1_555 1_555
Yb1A_2 O6A 1_555 1_555
Yb1A_3 O8 1_555 1_555
O6_2 Yb1 1_555 1_555
O6A_2 Yb1A 1_555 1_555
O7A_2 Yb1A 1_555 1_555
O8_2 Yb1A 1_555 1_555
C4 C9 1_555 1_555
C8 C9 1_555 1_555
C10 O4 1_555 1_555
C12A O8A 1_555 1_555
O7A Yb1A_3 1_555 1_555
C4A C9A 1_555 1_555
C8A C9A 1_555 1_555
C10A O1A 1_555 1_555
C10A O4A 1_555 1_555
C11A O5A 1_555 1_555

#END
