
#######################################################################
#
#                 Cambridge Crystallographic Data Centre
#                                CCDC 
#
#######################################################################
#
# If this CIF has been generated from an entry in the Cambridge 
# Structural Database, then it will include bibliographic, chemical, 
# crystal, experimental, refinement or atomic coordinate data resulting 
# from the CCDC's data processing and validation procedures.
#
#######################################################################

data_QOJDUP
_symmetry_cell_setting           orthorhombic
_symmetry_space_group_name_H-M   'P 21 21 21'
_symmetry_Int_Tables_number      19
_space_group_name_Hall           'P 2ac 2ab'
loop_
_symmetry_equiv_pos_site_id
_symmetry_equiv_pos_as_xyz
1 x,y,z
2 1/2-x,-y,1/2+z
3 1/2+x,1/2-y,-z
4 -x,1/2+y,1/2-z
_cell_length_a                   15.3936(18)
_cell_length_b                   15.4168(18)
_cell_length_c                   45.759(4)
_cell_angle_alpha                90
_cell_angle_beta                 90
_cell_angle_gamma                90
_cell_volume                     10859.5
loop_
_atom_site_label
_atom_site_type_symbol
_atom_site_fract_x
_atom_site_fract_y
_atom_site_fract_z
La1 La 0.62411(6) 0.13421(6) 0.95705(2)
N1 N 0.6429(10) -0.0346(9) 0.9558(3)
C1 C 0.6726(10) -0.1008(11) 0.9729(4)
La2 La 0.89455(6) 0.09776(5) 1.03604(2)
N2 N 0.6308(10) -0.0751(8) 0.9297(4)
C2 C 0.6961(11) -0.0991(11) 1.0028(4)
H1 H 0.6941 -0.0472 1.0140
La3 La 0.88040(6) -0.13045(6) 1.12501(3)
N3 N 0.6476(11) -0.1608(8) 0.9287(3)
C3 C 0.7224(12) -0.1783(10) 1.0149(4)
H2 H 0.7388 -0.1802 1.0349
La4 La 0.62802(7) -0.12188(7) 0.87498(3)
N4 N 0.5914(8) 0.0965(9) 1.0120(3)
C4 C 0.7253(14) -0.2549(12) 0.9983(5)
H3 H 0.7440 -0.3065 1.0078
La5 La 0.88423(6) -0.12586(5) 0.79293(2)
N5 N 0.6737(8) 0.1169(9) 1.0100(3)
C5 C 0.7028(15) -0.2599(11) 0.9695(4)
H4 H 0.7068 -0.3119 0.9585
La6 La 0.65203(6) -0.14462(6) 1.21396(2)
N6 N 0.7172(8) 0.1035(9) 1.0366(3)
C6 C 0.6727(11) -0.1792(9) 0.9575(4)
N7 N 0.6557(10) 0.1766(9) 0.9020(4)
C7 C 0.5762(10) 0.0670(10) 1.0400(4)
N8 N 0.6364(9) 0.0912(9) 0.9035(3)
C8 C 0.5008(14) 0.0355(12) 1.0532(5)
H5 H 0.4482 0.0286 1.0426
N9 N 0.6496(10) 0.0493(9) 0.8774(4)
C9 C 0.5070(14) 0.0149(16) 1.0823(6)
H6 H 0.4572 -0.0060 1.0923
N10 N 0.7965(9) 0.1484(9) 0.9589(3)
C10 C 0.5857(11) 0.0242(12) 1.0975(4)
H7 H 0.5861 0.0107 1.1178
N11 N 0.8369(9) 0.1246(9) 0.9837(3)
C11 C 0.6625(12) 0.0516(10) 1.0850(4)
H8 H 0.7153 0.0549 1.0957
N12 N 0.9225(8) 0.1432(11) 0.9841(3)
C12 C 0.6570(11) 0.0750(10) 1.0546(4)
N13 N 0.4594(9) 0.1049(8) 0.9469(4)
C13 C 0.6770(11) 0.1909(12) 0.8733(5)
N14 N 0.4664(8) 0.1852(8) 0.9569(4)
C14 C 0.6990(13) 0.2708(12) 0.8586(5)
H9 H 0.7000 0.3254 0.8682
N15 N 0.3901(8) 0.2293(8) 0.9545(3)
C15 C 0.7189(13) 0.2610(14) 0.8288(5)
H10 H 0.7356 0.3114 0.8182
N16 N 0.6281(8) 0.3040(8) 0.9660(4)
C16 C 0.7158(12) 0.1835(11) 0.8139(5)
H11 H 0.7283 0.1816 0.7936
N17 N 0.5512(8) 0.3470(8) 0.9608(3)
C17 C 0.6947(12) 0.1089(11) 0.8286(5)
H12 H 0.6948 0.0548 0.8187
N18 N 0.5576(9) 0.4293(8) 0.9701(4)
C18 C 0.6732(11) 0.1126(11) 0.8579(4)
N19 N 0.8949(10) 0.1053(9) 1.0942(3)
C19 C 0.8622(11) 0.1894(11) 0.9427(4)
N20 N 0.8798(10) 0.0294(8) 1.1090(3)
C20 C 0.8575(12) 0.2340(12) 0.9160(5)
H13 H 0.8040 0.2397 0.9059
N21 N 0.9010(13) 0.0311(9) 1.1369(3)
C21 C 0.9325(13) 0.2691(15) 0.9051(5)
H14 H 0.9320 0.2998 0.8871
N22 N 0.9101(10) -0.0697(9) 1.0243(3)
C22 C 1.0125(16) 0.2588(15) 0.9213(6)
H15 H 1.0644 0.2813 0.9130
N23 N 0.8884(11) -0.0600(8) 1.0525(3)
C23 C 1.0174(11) 0.2200(12) 0.9470(5)
H16 H 1.0705 0.2173 0.9576
N24 N 0.8961(9) -0.1380(8) 1.0679(3)
C24 C 0.9409(12) 0.1830(10) 0.9580(4)
N25 N 0.7168(11) -0.1520(12) 1.1128(3)
C25 C 0.3787(10) 0.0938(10) 0.9368(4)
N26 N 0.7218(8) -0.1313(11) 1.1417(3)
C26 C 0.3384(12) 0.0207(10) 0.9240(4)
H17 H 0.3673 -0.0334 0.9221
N27 N 0.6455(9) -0.1470(9) 1.1549(3)
C27 C 0.2532(12) 0.0332(12) 0.9142(5)
H18 H 0.2247 -0.0122 0.9039
N28 N 0.8864(9) -0.1444(8) 1.1826(3)
C28 C 0.2089(11) 0.1112(13) 0.9192(5)
H19 H 0.1494 0.1147 0.9138
N29 N 0.8110(8) -0.1389(9) 1.1975(3)
C29 C 0.2475(10) 0.1833(11) 0.9315(4)
H20 H 0.2173 0.2368 0.9333
N30 N 0.8177(9) -0.1582(10) 1.2265(3)
C30 C 0.3322(9) 0.1741(10) 0.9412(4)
N31 N 0.3862(12) -0.2028(11) 0.8724(4)
C31 C 0.6845(10) 0.3638(12) 0.9782(4)
N32 N 0.4607(10) -0.1468(13) 0.8744(4)
C32 C 0.7717(10) 0.3571(12) 0.9859(4)
H21 H 0.8026 0.3041 0.9840
N33 N 0.4453(14) -0.0750(14) 0.8679(5)
C33 C 0.8118(11) 0.4319(10) 0.9967(4)
H22 H 0.8720 0.4319 1.0013
N34 N 0.5478(12) -0.3872(15) 0.8807(5)
C34 C 0.7617(13) 0.5069(12) 1.0006(5)
H23 H 0.7890 0.5551 1.0098
N35 N 0.5647(10) -0.3148(10) 0.8743(5)
C35 C 0.6803(10) 0.5162(10) 0.9927(4)
H24 H 0.6501 0.5695 0.9951
N36 N 0.6425(11) -0.2879(10) 0.8795(4)
C36 C 0.6403(11) 0.4421(10) 0.9804(4)
N37 N 0.5894(8) -0.1026(9) 0.8205(3)
C37 C 0.9260(12) 0.1582(13) 1.1152(4)
N38 N 0.6751(8) -0.1198(9) 0.8218(3)
C38 C 0.9537(12) 0.2459(12) 1.1152(4)
H25 H 0.9544 0.2778 1.0975
N39 N 0.7113(9) -0.1076(8) 0.7949(3)
C39 C 0.9791(13) 0.2846(14) 1.1405(5)
H26 H 0.9957 0.3439 1.1398
N40 N 0.7991(9) -0.1022(10) 0.8725(4)
C40 C 0.9823(15) 0.2424(18) 1.1676(7)
H27 H 1.0007 0.2715 1.1849
N41 N 0.8424(10) -0.1112(9) 0.8465(3)
C41 C 0.9564(15) 0.1535(15) 1.1680(5)
H28 H 0.9580 0.1216 1.1858
N42 N 0.9262(9) -0.0970(10) 0.8490(4)
C42 C 0.9296(15) 0.1148(11) 1.1431(5)
N43 N 0.9000(9) 0.0471(9) 0.7908(3)
C43 C 0.9325(11) -0.1555(10) 1.0198(4)
N44 N 0.8733(10) 0.0883(8) 0.7665(3)
C44 C 0.9590(12) -0.1989(12) 0.9949(4)
H29 H 0.9680 -0.1694 0.9769
N45 N 0.8929(11) 0.1719(7) 0.7658(3)
C45 C 0.9718(15) -0.2888(12) 0.9975(4)
H30 H 0.9876 -0.3222 0.9809
N46 N 0.8465(10) -0.1610(8) 0.7381(3)
C46 C 0.9613(13) -0.3284(12) 1.0245(4)
H31 H 0.9716 -0.3891 1.0257
N47 N 0.8675(10) -0.0758(8) 0.7394(3)
C47 C 0.9370(12) -0.2860(12) 1.0496(4)
H32 H 0.9318 -0.3155 1.0677
N48 N 0.8537(10) -0.0326(8) 0.7135(3)
C48 C 0.9205(12) -0.1983(10) 1.0471(4)
N49 N 0.8547(9) -0.2896(9) 0.8026(3)
C49 C 0.6355(11) -0.1784(13) 1.1075(4)
N50 N 0.9356(8) -0.2842(7) 0.7930(3)
C50 C 0.5961(19) -0.2065(16) 1.0819(5)
H33 H 0.6273 -0.2096 1.0640
N51 N 0.9819(8) -0.3606(9) 0.7965(3)
C51 C 0.5074(17) -0.2302(16) 1.0836(6)
H34 H 0.4774 -0.2477 1.0664
N52 N 1.0537(9) -0.1223(9) 0.7848(4)
C52 C 0.4667(14) -0.2282(11) 1.1087(5)
H35 H 0.4074 -0.2455 1.1086
N53 N 1.0971(8) -0.1988(7) 0.7889(3)
C53 C 0.5007(10) -0.2037(11) 1.1349(4)
H36 H 0.4680 -0.2047 1.1525
N54 N 1.1795(8) -0.1931(8) 0.7799(4)
C54 C 0.5885(12) -0.1766(11) 1.1339(5)
C55 C 0.9471(10) -0.1721(12) 1.2029(4)
C56 C 1.0371(10) -0.1856(10) 1.2003(4)
H37 H 1.0667 -0.1781 1.1823
C57 C 1.0800(11) -0.2103(10) 1.2254(4)
H38 H 1.1410 -0.2191 1.2243
C58 C 1.0388(10) -0.2233(13) 1.2524(4)
H39 H 1.0715 -0.2429 1.2687
C59 C 0.9500(12) -0.2074(11) 1.2554(4)
H40 H 0.9216 -0.2128 1.2737
C60 C 0.9033(10) -0.1825(10) 1.2293(4)
C61 C 0.3302(8) -0.1346(7) 0.8598(3)
C62 C 0.2448(8) -0.1381(7) 0.8500(3)
H41 H 0.2123 -0.1902 0.8520
C63 C 0.2070(7) -0.0656(8) 0.8372(3)
H42 H 0.1486 -0.0680 0.8305
C64 C 0.2545(9) 0.0105(7) 0.8342(4)
H43 H 0.2286 0.0601 0.8255
C65 C 0.3399(8) 0.0141(7) 0.8440(3)
H44 H 0.3724 0.0661 0.8419
C66 C 0.3778(6) -0.0584(8) 0.8568(3)
C67 C 0.6114(5) -0.4207(6) 0.8909(2)
C68 C 0.6163(7) -0.5057(6) 0.9008(3)
H45 H 0.5667 -0.5423 0.8998
C69 C 0.6938(7) -0.5374(6) 0.9122(2)
H46 H 0.6972 -0.5955 0.9190
C70 C 0.7664(6) -0.4839(7) 0.9137(3)
H47 H 0.8194 -0.5055 0.9215
C71 C 0.7615(6) -0.3988(7) 0.9038(3)
H48 H 0.8111 -0.3623 0.9048
C72 C 0.6840(6) -0.3672(5) 0.89239(18)
C73 C 0.5706(7) -0.0755(7) 0.7933(2)
C74 C 0.4931(8) -0.0481(8) 0.7803(3)
H49 H 0.4403 -0.0456 0.7910
C75 C 0.4966(13) -0.0243(12) 0.7506(5)
H50 H 0.4448 -0.0072 0.7408
C76 C 0.5743(11) -0.0254(10) 0.7354(5)
H51 H 0.5750 -0.0049 0.7158
C77 C 0.6479(11) -0.0540(10) 0.7469(4)
H52 H 0.6994 -0.0574 0.7355
C78 C 0.6479(11) -0.0791(10) 0.7763(4)
C79 C 0.8644(12) -0.0748(10) 0.8921(4)
C80 C 0.8583(13) -0.0547(11) 0.9215(4)
H53 H 0.8044 -0.0563 0.9316
C81 C 0.9332(13) -0.0325(12) 0.9351(5)
H54 H 0.9314 -0.0172 0.9552
C82 C 1.0144(13) -0.0316(12) 0.9204(5)
H55 H 1.0656 -0.0160 0.9308
C83 C 1.0195(11) -0.0525(12) 0.8921(5)
H56 H 1.0739 -0.0539 0.8823
C84 C 0.9427(12) -0.0721(13) 0.8773(5)
C85 C 0.9392(11) 0.1119(11) 0.8074(4)
C86 C 0.9823(14) 0.1082(13) 0.8346(5)
H57 H 0.9866 0.0558 0.8454
C87 C 1.0184(14) 0.1861(11) 0.8448(4)
H58 H 1.0496 0.1856 0.8627
C88 C 1.0102(15) 0.2644(12) 0.8296(6)
H59 H 1.0339 0.3158 0.8378
C89 C 0.9681(11) 0.2684(10) 0.8028(5)
H60 H 0.9623 0.3211 0.7922
C90 C 0.9344(10) 0.1885(9) 0.7922(4)
C91 C 0.8165(11) -0.1746(9) 0.7102(5)
C92 C 0.7862(15) -0.2492(12) 0.6968(4)
H61 H 0.7808 -0.3020 0.7073
C93 C 0.7638(15) -0.2449(13) 0.6671(5)
H62 H 0.7436 -0.2949 0.6571
C94 C 0.7721(13) -0.1634(11) 0.6522(4)
H63 H 0.7568 -0.1609 0.6321
C95 C 0.8008(10) -0.0895(11) 0.6653(4)
H64 H 0.8055 -0.0366 0.6548
C96 C 0.8234(11) -0.0949(11) 0.6951(4)
C97 C 0.8456(10) -0.3723(9) 0.8132(4)
C98 C 0.7710(10) -0.4127(10) 0.8263(4)
H65 H 0.7173 -0.3831 0.8286
C99 C 0.7826(13) -0.4978(11) 0.8352(5)
H66 H 0.7354 -0.5269 0.8444
C100 C 0.8607(11) -0.5429(10) 0.8314(5)
H67 H 0.8645 -0.6020 0.8371
C101 C 0.9343(13) -0.5013(12) 0.8192(5)
H68 H 0.9887 -0.5300 0.8179
C102 C 0.9237(11) -0.4173(10) 0.8093(4)
C103 C 1.1133(12) -0.0634(10) 0.7717(4)
C104 C 1.1043(10) 0.0244(10) 0.7651(4)
H69 H 1.0523 0.0565 0.7680
C105 C 1.1811(12) 0.0598(12) 0.7536(5)
H70 H 1.1800 0.1191 0.7479
C106 C 1.2596(12) 0.0143(12) 0.7497(5)
H71 H 1.3084 0.0430 0.7415
C107 C 1.2662(11) -0.0717(11) 0.7578(5)
H72 H 1.3182 -0.1040 0.7551
C108 C 1.1929(11) -0.1081(10) 0.7701(4)
La2B La 0.39455(6) 0.40224(5) 0.96396(2)
La3B La 0.38040(6) -0.36955(6) 0.87499(3)
La6A La 0.84797(6) 0.14462(6) 0.71396(2)
La6B La 1.15203(6) -0.35538(6) 0.78604(2)
N15B N 0.8901(8) 0.2707(8) 1.0455(3)
N17B N 1.0512(8) 0.1530(8) 1.0392(3)
N18B N 1.0576(9) 0.0707(8) 1.0299(4)
N31B N 0.8862(12) -0.2972(11) 1.1276(4)
N34B N 1.0478(12) -0.1128(15) 1.1193(5)
N35B N 1.0647(10) -0.1852(10) 1.1257(5)
N44A N 0.6267(10) -0.0883(8) 1.2665(3)
N45A N 0.6071(11) -0.1719(7) 1.2658(3)
N48A N 0.6463(10) 0.0326(8) 1.2135(3)
N51B N 0.4819(8) -0.1394(9) 1.2035(3)
N53B N 0.5971(8) -0.3012(7) 1.2111(3)
N54B N 0.6795(8) -0.3069(8) 1.2201(4)
loop_
_geom_bond_atom_site_label_1
_geom_bond_atom_site_label_2
_geom_bond_site_symmetry_1
_geom_bond_site_symmetry_2
La1 N1 1_555 1_555
N1 C1 1_555 1_555
C1 C2 1_555 1_555
La2 N6 1_555 1_555
N2 N1 1_555 1_555
C2 H1 1_555 1_555
La3 N20 1_555 1_555
N3 N2 1_555 1_555
C3 C2 1_555 1_555
H2 C3 1_555 1_555
La4 N2 1_555 1_555
N4 La1 1_555 1_555
C4 C3 1_555 1_555
H3 C4 1_555 1_555
La5 N39 1_555 1_555
N5 La1 1_555 1_555
C5 C4 1_555 1_555
H4 C5 1_555 1_555
La6 N27 1_555 1_555
N6 N5 1_555 1_555
C6 C1 1_555 1_555
N7 La1 1_555 1_555
C7 N4 1_555 1_555
N8 La1 1_555 1_555
C8 C7 1_555 1_555
H5 C8 1_555 1_555
N9 La4 1_555 1_555
C9 C8 1_555 1_555
H6 C9 1_555 1_555
N10 La1 1_555 1_555
C10 C9 1_555 1_555
H7 C10 1_555 1_555
N11 La2 1_555 1_555
C11 C10 1_555 1_555
H8 C11 1_555 1_555
N12 La2 1_555 1_555
C12 N6 1_555 1_555
N13 La1 1_555 1_555
C13 N7 1_555 1_555
N14 La1 1_555 1_555
C14 C13 1_555 1_555
H9 C14 1_555 1_555
N15 N14 1_555 1_555
C15 C14 1_555 1_555
H10 C15 1_555 1_555
N16 La1 1_555 1_555
C16 C15 1_555 1_555
H11 C16 1_555 1_555
N17 N16 1_555 1_555
C17 C16 1_555 1_555
H12 C17 1_555 1_555
N18 N17 1_555 1_555
C18 N9 1_555 1_555
N19 La2 1_555 1_555
C19 N10 1_555 1_555
N20 N19 1_555 1_555
C20 C19 1_555 1_555
H13 C20 1_555 1_555
N21 La3 1_555 1_555
C21 C20 1_555 1_555
H14 C21 1_555 1_555
N22 La2 1_555 1_555
C22 C21 1_555 1_555
H15 C22 1_555 1_555
N23 La2 1_555 1_555
C23 C22 1_555 1_555
H16 C23 1_555 1_555
N24 La3 1_555 1_555
C24 N12 1_555 1_555
N25 La3 1_555 1_555
C25 N13 1_555 1_555
N26 La3 1_555 1_555
C26 C25 1_555 1_555
H17 C26 1_555 1_555
N27 N26 1_555 1_555
C27 C26 1_555 1_555
H18 C27 1_555 1_555
N28 La3 1_555 1_555
C28 C27 1_555 1_555
H19 C28 1_555 1_555
N29 La6 1_555 1_555
C29 C28 1_555 1_555
H20 C29 1_555 1_555
N30 La6 1_555 1_555
C30 N15 1_555 1_555
N31 N32 1_555 1_555
C31 N16 1_555 1_555
N32 La4 1_555 1_555
C32 C31 1_555 1_555
H21 C32 1_555 1_555
N33 La4 1_555 1_555
C33 C32 1_555 1_555
H22 C33 1_555 1_555
N34 N35 1_555 1_555
C34 C33 1_555 1_555
H23 C34 1_555 1_555
N35 N36 1_555 1_555
C35 C34 1_555 1_555
H24 C35 1_555 1_555
N36 La4 1_555 1_555
C36 N18 1_555 1_555
N37 La4 1_555 1_555
C37 N19 1_555 1_555
N38 La4 1_555 1_555
C38 C37 1_555 1_555
H25 C38 1_555 1_555
N39 N38 1_555 1_555
C39 C38 1_555 1_555
H26 C39 1_555 1_555
N40 La4 1_555 1_555
C40 C39 1_555 1_555
H27 C40 1_555 1_555
N41 La5 1_555 1_555
C41 C40 1_555 1_555
H28 C41 1_555 1_555
N42 La5 1_555 1_555
C42 N21 1_555 1_555
N43 La5 1_555 1_555
C43 N22 1_555 1_555
N44 N43 1_555 1_555
C44 C43 1_555 1_555
H29 C44 1_555 1_555
N45 N44 1_555 1_555
C45 C44 1_555 1_555
H30 C45 1_555 1_555
N46 La5 1_555 1_555
C46 C45 1_555 1_555
H31 C46 1_555 1_555
N47 La5 1_555 1_555
C47 C46 1_555 1_555
H32 C47 1_555 1_555
N48 N47 1_555 1_555
C48 N24 1_555 1_555
N49 La5 1_555 1_555
C49 N25 1_555 1_555
N50 La5 1_555 1_555
C50 C49 1_555 1_555
H33 C50 1_555 1_555
N51 N50 1_555 1_555
C51 C50 1_555 1_555
H34 C51 1_555 1_555
N52 La5 1_555 1_555
C52 C51 1_555 1_555
H35 C52 1_555 1_555
N53 N52 1_555 1_555
C53 C52 1_555 1_555
H36 C53 1_555 1_555
N54 N53 1_555 1_555
C54 N27 1_555 1_555
C55 N28 1_555 1_555
C56 C55 1_555 1_555
H37 C56 1_555 1_555
C57 C56 1_555 1_555
H38 C57 1_555 1_555
C58 C57 1_555 1_555
H39 C58 1_555 1_555
C59 C58 1_555 1_555
H40 C59 1_555 1_555
C60 N30 1_555 1_555
C61 N31 1_555 1_555
C62 C61 1_555 1_555
H41 C62 1_555 1_555
C63 C62 1_555 1_555
H42 C63 1_555 1_555
C64 C63 1_555 1_555
H43 C64 1_555 1_555
C65 C64 1_555 1_555
H44 C65 1_555 1_555
C66 N33 1_555 1_555
C67 N34 1_555 1_555
C68 C67 1_555 1_555
H45 C68 1_555 1_555
C69 C68 1_555 1_555
H46 C69 1_555 1_555
C70 C69 1_555 1_555
H47 C70 1_555 1_555
C71 C70 1_555 1_555
H48 C71 1_555 1_555
C72 N36 1_555 1_555
C73 N37 1_555 1_555
C74 C73 1_555 1_555
H49 C74 1_555 1_555
C75 C74 1_555 1_555
H50 C75 1_555 1_555
C76 C75 1_555 1_555
H51 C76 1_555 1_555
C77 C76 1_555 1_555
H52 C77 1_555 1_555
C78 N39 1_555 1_555
C79 N40 1_555 1_555
C80 C79 1_555 1_555
H53 C80 1_555 1_555
C81 C80 1_555 1_555
H54 C81 1_555 1_555
C82 C81 1_555 1_555
H55 C82 1_555 1_555
C83 C82 1_555 1_555
H56 C83 1_555 1_555
C84 N42 1_555 1_555
C85 N43 1_555 1_555
C86 C85 1_555 1_555
H57 C86 1_555 1_555
C87 C86 1_555 1_555
H58 C87 1_555 1_555
C88 C87 1_555 1_555
H59 C88 1_555 1_555
C89 C88 1_555 1_555
H60 C89 1_555 1_555
C90 N45 1_555 1_555
C91 N46 1_555 1_555
C92 C91 1_555 1_555
H61 C92 1_555 1_555
C93 C92 1_555 1_555
H62 C93 1_555 1_555
C94 C93 1_555 1_555
H63 C94 1_555 1_555
C95 C94 1_555 1_555
H64 C95 1_555 1_555
C96 N48 1_555 1_555
C97 N49 1_555 1_555
C98 C97 1_555 1_555
H65 C98 1_555 1_555
C99 C98 1_555 1_555
H66 C99 1_555 1_555
C100 C99 1_555 1_555
H67 C100 1_555 1_555
C101 C100 1_555 1_555
H68 C101 1_555 1_555
C102 N51 1_555 1_555
C103 N52 1_555 1_555
C104 C103 1_555 1_555
H69 C104 1_555 1_555
C105 C104 1_555 1_555
H70 C105 1_555 1_555
C106 C105 1_555 1_555
H71 C106 1_555 1_555
C107 C106 1_555 1_555
H72 C107 1_555 1_555
C108 N54 1_555 1_555
La2B N15 1_555 1_555
La3B N31 1_555 1_555
La6A N44 1_555 1_555
La6B N51 1_555 1_555
N15B La2 1_555 1_555
N17B La2 1_555 1_555
N18B La2 1_555 1_555
N31B La3 1_555 1_555
N34B La3 1_555 1_555
N35B La3 1_555 1_555
N44A La6 1_555 1_555
N45A La6 1_555 1_555
N48A La6 1_555 1_555
N51B La6 1_555 1_555
N53B La6 1_555 1_555
N54B La6 1_555 1_555
N3 La4 1_555 1_555
N3 C6 1_555 1_555
N4 N5 1_555 1_555
C5 C6 1_555 1_555
N7 N8 1_555 1_555
C7 C12 1_555 1_555
N8 N9 1_555 1_555
N10 N11 1_555 1_555
N11 N12 1_555 1_555
C11 C12 1_555 1_555
N13 N14 1_555 1_555
C13 C18 1_555 1_555
N17 La2B 1_555 1_555
C17 C18 1_555 1_555
N18 La2B 1_555 1_555
C19 C24 1_555 1_555
N20 N21 1_555 1_555
N22 N23 1_555 1_555
N23 N24 1_555 1_555
C23 C24 1_555 1_555
N25 N26 1_555 1_555
C25 C30 1_555 1_555
N28 N29 1_555 1_555
N29 N30 1_555 1_555
C29 C30 1_555 1_555
C31 C36 1_555 1_555
N32 N33 1_555 1_555
N34 La3B 1_555 1_555
N35 La3B 1_555 1_555
C35 C36 1_555 1_555
N37 N38 1_555 1_555
C37 C42 1_555 1_555
N40 N41 1_555 1_555
N41 N42 1_555 1_555
C41 C42 1_555 1_555
C43 C48 1_555 1_555
N45 La6A 1_555 1_555
N46 N47 1_555 1_555
C47 C48 1_555 1_555
N48 La6A 1_555 1_555
N49 N50 1_555 1_555
C49 C54 1_555 1_555
N53 La6B 1_555 1_555
C53 C54 1_555 1_555
N54 La6B 1_555 1_555
C55 C60 1_555 1_555
C59 C60 1_555 1_555
C61 C66 1_555 1_555
C65 C66 1_555 1_555
C67 C72 1_555 1_555
C71 C72 1_555 1_555
C73 C78 1_555 1_555
C77 C78 1_555 1_555
C79 C84 1_555 1_555
C83 C84 1_555 1_555
C85 C90 1_555 1_555
C89 C90 1_555 1_555
C91 C96 1_555 1_555
C95 C96 1_555 1_555
C97 C102 1_555 1_555
C101 C102 1_555 1_555
C103 C108 1_555 1_555
C107 C108 1_555 1_555
N17B N18B 1_555 1_555
N34B N35B 1_555 1_555
N44A N45A 1_555 1_555
N53B N54B 1_555 1_555

#END
