
#######################################################################
#
#                 Cambridge Crystallographic Data Centre
#                                CCDC 
#
#######################################################################
#
# If this CIF has been generated from an entry in the Cambridge 
# Structural Database, then it will include bibliographic, chemical, 
# crystal, experimental, refinement or atomic coordinate data resulting 
# from the CCDC's data processing and validation procedures.
#
#######################################################################

data_QOJDAV
_symmetry_cell_setting           monoclinic
_symmetry_space_group_name_H-M   'P 21/c'
_symmetry_Int_Tables_number      14
_space_group_name_Hall           '-P 2ybc'
loop_
_symmetry_equiv_pos_site_id
_symmetry_equiv_pos_as_xyz
1 x,y,z
2 -x,1/2+y,1/2-z
3 -x,-y,-z
4 x,1/2-y,1/2+z
_cell_length_a                   18.269(3)
_cell_length_b                   3.5918(5)
_cell_length_c                   13.871(3)
_cell_angle_alpha                90
_cell_angle_beta                 110.55(2)
_cell_angle_gamma                90
_cell_volume                     852.276
loop_
_atom_site_label
_atom_site_type_symbol
_atom_site_fract_x
_atom_site_fract_y
_atom_site_fract_z
Ag1 Ag -0.020171(18) -0.64475(14) 0.15936(3)
F1 F 0.26539(13) -0.6921(9) 0.45252(18)
F2 F 0.21986(13) -0.2868(8) 0.11184(18)
F3 F 0.37231(13) -0.3501(11) 0.1445(2)
F4 F 0.47188(12) -0.5968(12) 0.3289(2)
F5 F 0.41727(13) -0.7666(9) 0.4820(2)
O1 O 0.10406(13) -0.5830(10) 0.1813(2)
O2 O -0.0852(2) -1.1934(12) 0.0197(3)
O3 O 0.13469(14) -0.2891(9) 0.3327(2)
C1 C 0.26704(19) -0.4082(14) 0.2039(3)
C2 C 0.23728(19) -0.4882(13) 0.2807(3)
C3 C 0.2900(2) -0.6031(15) 0.3748(3)
C4 C 0.1504(2) -0.4490(13) 0.2627(3)
C5 C 0.3685(2) -0.6428(16) 0.3911(3)
C6 C 0.3955(2) -0.5578(15) 0.3132(3)
C7 C 0.3458(2) -0.4411(15) 0.2201(3)
H1 H -0.038(2) -1.116(16) 0.015(3)
H2 H -0.125(2) -1.090(15) 0.038(3)
Ag1A Ag 0.020171(18) -1.14475(14) 0.34064(3)
Ag1A_2 Ag 0.020171(18) -0.14475(14) 0.34064(3)
Ag1_2 Ag -0.020171(18) -1.64475(14) 0.15936(3)
O2_2 O -0.0852(2) -0.1934(12) 0.0197(3)
O3A O -0.13469(14) -0.7891(9) 0.1673(2)
H1_2 H -0.038(2) -0.116(16) 0.015(3)
H2_2 H -0.125(2) -0.090(15) 0.038(3)
loop_
_geom_bond_atom_site_label_1
_geom_bond_atom_site_label_2
_geom_bond_site_symmetry_1
_geom_bond_site_symmetry_2
Ag1 O1 1_555 1_555
F1 C3 1_555 1_555
F2 C1 1_555 1_555
F3 C7 1_555 1_555
F4 C6 1_555 1_555
F5 C5 1_555 1_555
O1 C4 1_555 1_555
O2 Ag1 1_555 1_555
O3 C4 1_555 1_555
C1 C2 1_555 1_555
C2 C3 1_555 1_555
C3 C5 1_555 1_555
C4 C2 1_555 1_555
C5 C6 1_555 1_555
C6 C7 1_555 1_555
C7 C1 1_555 1_555
H1 O2 1_555 1_555
H2 O2 1_555 1_555
Ag1A Ag1 1_555 1_555
Ag1A_2 Ag1 1_555 1_555
Ag1_2 O2 1_555 1_555
O2_2 Ag1 1_555 1_555
O3A Ag1 1_555 1_555
H1_2 O2_2 1_555 1_555
H2_2 O2_2 1_555 1_555
O3 Ag1A_2 1_555 1_555
Ag1A Ag1_2 1_555 1_555

#END
