
#######################################################################
#
#                 Cambridge Crystallographic Data Centre
#                                CCDC 
#
#######################################################################
#
# If this CIF has been generated from an entry in the Cambridge 
# Structural Database, then it will include bibliographic, chemical, 
# crystal, experimental, refinement or atomic coordinate data resulting 
# from the CCDC's data processing and validation procedures.
#
#######################################################################

data_QOJHAA
_symmetry_cell_setting           monoclinic
_symmetry_space_group_name_H-M   'P 21/c'
_symmetry_Int_Tables_number      14
_space_group_name_Hall           '-P 2ybc'
loop_
_symmetry_equiv_pos_site_id
_symmetry_equiv_pos_as_xyz
1 x,y,z
2 -x,1/2+y,1/2-z
3 -x,-y,-z
4 x,1/2-y,1/2+z
_cell_length_a                   11.808(4)
_cell_length_b                   9.828(3)
_cell_length_c                   21.109(5)
_cell_angle_alpha                90
_cell_angle_beta                 112.859(14)
_cell_angle_gamma                90
_cell_volume                     2257.29
loop_
_atom_site_label
_atom_site_type_symbol
_atom_site_fract_x
_atom_site_fract_y
_atom_site_fract_z
N1 N 0.6665(8) 1.2257(8) 0.1649(4)
C1 C 0.7792(11) 1.2124(10) 0.1659(6)
C2 C 0.8664(10) 1.1265(11) 0.2112(5)
C3 C 0.8337(10) 1.0570(11) 0.2588(6)
C4 C 0.6374(11) 1.1533(11) 0.2089(6)
C5 C 0.7165(9) 1.0664(9) 0.2579(5)
Cu1 Cu 0.46826(11) 0.87901(12) 0.41320(7)
C6 C 0.6125(10) 0.6473(12) 0.5041(6)
C7 C 0.7086(12) 0.5570(11) 0.5305(6)
C8 C 0.8054(11) 0.5644(11) 0.5096(6)
C9 C 0.8004(10) 0.6611(11) 0.4602(7)
C10 C 0.6990(10) 0.7471(10) 0.4345(5)
C11 C 0.6770(10) 0.8516(10) 0.3815(5)
N2 N 0.5737(8) 1.0119(8) 0.3132(4)
C12 C 0.3393(10) 1.1287(12) 0.3308(6)
C13 C 0.2420(12) 1.2220(11) 0.3074(6)
C14 C 0.1554(12) 1.2245(11) 0.3353(6)
C15 C 0.1662(9) 1.1337(11) 0.3865(6)
C16 C 0.2632(10) 1.0402(9) 0.4096(5)
C17 C 0.2867(10) 0.9397(11) 0.4648(6)
C18 C 0.2846(10) 0.8016(10) 0.5386(5)
C19 C 0.2489(12) 0.7270(10) 0.5875(6)
C20 C 0.1330(14) 0.7358(13) 0.5859(7)
C21 C 0.1720(15) 0.5856(13) 0.6726(7)
C22 C 0.2932(14) 0.5696(12) 0.6797(7)
C23 C 0.3271(12) 0.6444(13) 0.6356(7)
H1 H 0.553(6) 0.642(10) 0.518(5)
H2 H 0.703(8) 0.484(9) 0.565(5)
H3 H 0.870(8) 0.499(9) 0.516(5)
H4 H 0.851(8) 0.664(9) 0.435(5)
H5 H 0.554(7) 1.172(7) 0.208(4)
H6 H 0.877(8) 0.997(9) 0.289(5)
H7 H 0.955(8) 1.117(8) 0.212(4)
H8 H 0.795(8) 1.248(9) 0.129(5)
H9 H 0.402(7) 1.129(8) 0.313(4)
H10 H 0.262(7) 1.284(8) 0.275(4)
H11 H 0.091(7) 1.285(8) 0.307(4)
H12 H 0.109(6) 1.129(9) 0.401(4)
H13 H 0.081(9) 0.790(10) 0.552(6)
H14 H 0.136(9) 0.543(10) 0.695(5)
H15 H 0.335(8) 0.502(7) 0.702(5)
N3 N 0.6069(7) 0.7423(7) 0.4569(4)
N4 N 0.5710(7) 0.9224(8) 0.3629(4)
C24 C 0.6785(10) 0.9893(10) 0.3063(5)
N5 N 0.7490(7) 0.8879(8) 0.3475(4)
N6 N 0.3469(8) 1.0379(8) 0.3804(5)
N7 N 0.3876(7) 0.8651(8) 0.4786(4)
N8 N 0.3862(8) 0.7755(8) 0.5284(4)
N9 N 0.2159(8) 0.9069(8) 0.4976(4)
N10 N 0.0906(9) 0.6658(12) 0.6278(6)
H16 H 0.397(9) 0.615(11) 0.637(6)
N1A N 0.3335(8) 0.7257(8) 0.3351(4)
Cu1A Cu 0.53174(11) 1.37901(12) 0.08680(7)
O1 O 0.9958(8) 0.7852(9) 0.3824(5)
H17 H 0.919(3) 0.799(10) 0.371(6)
H18 H 0.988(10) 0.854(7) 0.405(5)
loop_
_geom_bond_atom_site_label_1
_geom_bond_atom_site_label_2
_geom_bond_site_symmetry_1
_geom_bond_site_symmetry_2
N1 C1 1_555 1_555
C1 C2 1_555 1_555
C2 C3 1_555 1_555
C3 C5 1_555 1_555
C4 N1 1_555 1_555
C5 C4 1_555 1_555
Cu1 N3 1_555 1_555
C6 C7 1_555 1_555
C7 C8 1_555 1_555
C8 C9 1_555 1_555
C9 C10 1_555 1_555
C10 C11 1_555 1_555
C11 N4 1_555 1_555
N2 N4 1_555 1_555
C12 C13 1_555 1_555
C13 C14 1_555 1_555
C14 C15 1_555 1_555
C15 C16 1_555 1_555
C16 C17 1_555 1_555
C17 N7 1_555 1_555
C18 C19 1_555 1_555
C19 C20 1_555 1_555
C20 H13 1_555 1_555
C21 C22 1_555 1_555
C22 C23 1_555 1_555
C23 C19 1_555 1_555
H1 C6 1_555 1_555
H2 C7 1_555 1_555
H3 C8 1_555 1_555
H4 C9 1_555 1_555
H5 C4 1_555 1_555
H6 C3 1_555 1_555
H7 C2 1_555 1_555
H8 C1 1_555 1_555
H9 C12 1_555 1_555
H10 C13 1_555 1_555
H11 C14 1_555 1_555
H12 C15 1_555 1_555
H14 C21 1_555 1_555
H15 C22 1_555 1_555
N3 C6 1_555 1_555
N4 Cu1 1_555 1_555
C24 C5 1_555 1_555
N5 C11 1_555 1_555
N6 Cu1 1_555 1_555
N7 Cu1 1_555 1_555
N8 C18 1_555 1_555
N9 C17 1_555 1_555
N10 C20 1_555 1_555
H16 C23 1_555 1_555
O1 H17 1_555 1_555
H18 O1 1_555 1_555
N1A Cu1 1_555 1_555
Cu1A N1 1_555 1_555
C10 N3 1_555 1_555
N2 C24 1_555 1_555
C12 N6 1_555 1_555
C16 N6 1_555 1_555
C18 N9 1_555 1_555
C21 N10 1_555 1_555
C24 N5 1_555 1_555
N7 N8 1_555 1_555

#END
