
#######################################################################
#
#                 Cambridge Crystallographic Data Centre
#                                CCDC 
#
#######################################################################
#
# If this CIF has been generated from an entry in the Cambridge 
# Structural Database, then it will include bibliographic, chemical, 
# crystal, experimental, refinement or atomic coordinate data resulting 
# from the CCDC's data processing and validation procedures.
#
#######################################################################

data_QOJLUX
_symmetry_cell_setting           monoclinic
_symmetry_space_group_name_H-M   'C 2/c'
_symmetry_Int_Tables_number      15
_space_group_name_Hall           '-C 2yn'
loop_
_symmetry_equiv_pos_site_id
_symmetry_equiv_pos_as_xyz
1 x,y,z
2 1/2+x,1/2+y,z
3 -x,y,1/2-z
4 1/2-x,1/2+y,1/2-z
5 -x,-y,-z
6 1/2-x,1/2-y,-z
7 x,-y,1/2+z
8 1/2+x,1/2-y,1/2+z
_cell_length_a                   17.745(4)
_cell_length_b                   10.326(2)
_cell_length_c                   7.3382(15)
_cell_angle_alpha                90
_cell_angle_beta                 106.85(3)
_cell_angle_gamma                90
_cell_volume                     1286.89
loop_
_atom_site_label
_atom_site_type_symbol
_atom_site_fract_x
_atom_site_fract_y
_atom_site_fract_z
Cd1 Cd 0.5000 0.56988(3) 0.7500
Cl1 Cl 0.41076(5) 0.41924(7) 0.50140(11)
N1 N 0.56820(14) 0.7580(2) 0.8907(3)
C1 C 0.53913(15) 0.8749(3) 0.8241(3)
C2 C 0.58084(17) 0.9886(3) 0.8895(4)
C3 C 0.68352(19) 0.8622(3) 1.0895(4)
C4 C 0.65485(17) 0.9838(3) 1.0216(4)
C5 C 0.63885(18) 0.7540(3) 1.0221(4)
C6 C 0.70279(19) 1.1038(3) 1.0890(4)
H1 H 0.6815(8) 1.1718(14) 1.010(2)
H2 H 0.7536(10) 1.0902(7) 1.087(3)
H3 H 0.7025(10) 1.1227(12) 1.211(3)
H4 H 0.5604(19) 1.072(3) 0.837(5)
H5 H 0.7295(19) 0.852(3) 1.171(4)
H6 H 0.6580(18) 0.674(3) 1.064(4)
Cd1F Cd 0.5000 0.43012(3) 0.2500
Cd1F_2 Cd 0.5000 0.43012(3) 1.2500
Cl1F Cl 0.41076(5) 0.58076(7) 1.00140(11)
Cl1D Cl 0.58924(5) 0.58076(7) 0.49860(11)
Cl1B Cl 0.58924(5) 0.41924(7) 0.99860(11)
N1B N 0.43180(14) 0.7580(2) 0.6093(3)
C1B C 0.46087(15) 0.8749(3) 0.6759(3)
C2B C 0.41916(17) 0.9886(3) 0.6105(4)
C3B C 0.31648(19) 0.8622(3) 0.4105(4)
C4B C 0.34515(17) 0.9838(3) 0.4784(4)
C5B C 0.36115(18) 0.7540(3) 0.4779(4)
C6B C 0.29721(19) 1.1038(3) 0.4110(4)
H1B H 0.3185(8) 1.1718(14) 0.490(2)
H2B H 0.2464(10) 1.0902(7) 0.413(3)
H3B H 0.2975(10) 1.1227(12) 0.289(3)
H4B H 0.4396(19) 1.072(3) 0.663(5)
H5B H 0.2705(19) 0.852(3) 0.329(4)
H6B H 0.3420(18) 0.674(3) 0.436(4)
loop_
_geom_bond_atom_site_label_1
_geom_bond_atom_site_label_2
_geom_bond_site_symmetry_1
_geom_bond_site_symmetry_2
Cd1 Cl1 1_555 1_555
Cl1 Cd1F 1_555 1_555
N1 Cd1 1_555 1_555
C1 N1 1_555 1_555
C2 C1 1_555 1_555
C3 C4 1_555 1_555
C4 C2 1_555 1_555
C5 N1 1_555 1_555
C6 C4 1_555 1_555
H1 C6 1_555 1_555
H2 C6 1_555 1_555
H3 C6 1_555 1_555
H4 C2 1_555 1_555
H5 C3 1_555 1_555
H6 C5 1_555 1_555
Cd1F Cl1D 1_555 1_555
Cd1F_2 Cl1F 1_555 1_555
Cl1F Cd1 1_555 1_555
Cl1D Cd1 1_555 1_555
Cl1B Cd1 1_555 1_555
N1B Cd1 1_555 1_555
C1B C1 1_555 1_555
C2B C1B 1_555 1_555
C3B C4B 1_555 1_555
C4B C2B 1_555 1_555
C5B N1B 1_555 1_555
C6B C4B 1_555 1_555
H1B C6B 1_555 1_555
H2B C6B 1_555 1_555
H3B C6B 1_555 1_555
H4B C2B 1_555 1_555
H5B C3B 1_555 1_555
H6B C5B 1_555 1_555
C3 C5 1_555 1_555
Cd1F_2 Cl1B 1_555 1_555
N1B C1B 1_555 1_555
C3B C5B 1_555 1_555

#END
