
#######################################################################
#
#                 Cambridge Crystallographic Data Centre
#                                CCDC 
#
#######################################################################
#
# If this CIF has been generated from an entry in the Cambridge 
# Structural Database, then it will include bibliographic, chemical, 
# crystal, experimental, refinement or atomic coordinate data resulting 
# from the CCDC's data processing and validation procedures.
#
#######################################################################

data_QOJMUY
_symmetry_cell_setting           monoclinic
_symmetry_space_group_name_H-M   'C 2/c'
_symmetry_Int_Tables_number      15
_space_group_name_Hall           '-C 2yn'
loop_
_symmetry_equiv_pos_site_id
_symmetry_equiv_pos_as_xyz
1 x,y,z
2 1/2+x,1/2+y,z
3 -x,y,1/2-z
4 1/2-x,1/2+y,1/2-z
5 -x,-y,-z
6 1/2-x,1/2-y,-z
7 x,-y,1/2+z
8 1/2+x,1/2-y,1/2+z
_cell_length_a                   24.234(8)
_cell_length_b                   20.816(7)
_cell_length_c                   15.333(3)
_cell_angle_alpha                90
_cell_angle_beta                 128.091(8)
_cell_angle_gamma                90
_cell_volume                     6087.54
loop_
_atom_site_label
_atom_site_type_symbol
_atom_site_fract_x
_atom_site_fract_y
_atom_site_fract_z
Hg1 Hg 0.217455(9) 0.974319(11) -0.074319(15)
Cl1 Cl 0.20003(7) 0.86443(7) -0.14949(10)
Cl2 Cl 0.27583(6) 0.97725(7) 0.12504(9)
Cl3 Cl 0.26467(6) 1.04447(7) -0.14343(9)
Cl4 Cl 0.09446(5) 1.01855(6) -0.16332(8)
Hg2 Hg 0.01481(2) 0.71004(3) -0.27119(3)
Cl5 Cl 0.0000 0.82496(14) -0.2500
Cl6 Cl 0.03674(12) 0.73638(12) -0.40369(18)
Cl7 Cl 0.10525(7) 0.65078(10) -0.13228(15)
Hg2B Hg -0.01481(2) 0.71004(3) -0.22881(3)
Cl7B Cl -0.10525(7) 0.65078(10) -0.36772(15)
O7 O 0.22134(18) 0.8961(2) 0.6665(3)
H19 H 0.2211(7) 0.8820(14) 0.7160(9)
O8 O 0.07913(16) 0.52408(16) 0.3306(3)
H18 H 0.0749(16) 0.5632(4) 0.330(3)
Gd1 Gd 0.118562(9) 0.743838(10) 0.382875(15)
O1 O 0.06172(13) 0.68354(15) 0.2154(2)
O2 O 0.05347(12) 0.66370(15) 0.3953(2)
O3 O 0.20633(12) 0.74927(15) 0.3616(2)
O4 O 0.18398(13) 0.73870(15) 0.5782(2)
O5 O 0.04121(12) 0.80268(15) 0.3962(2)
O6 O 0.07208(13) 0.82132(15) 0.2414(2)
N1 N 0.0307(2) 0.5478(2) -0.0708(3)
H1 H 0.0357 0.5252 -0.1125
N2 N 0.1773(2) 0.8000(2) 0.0219(3)
H2 H 0.1616 0.8104 -0.0440
N3 N -0.0301(2) 0.9472(2) 0.5617(3)
H3 H -0.0341 0.9695 0.6047
C1 C 0.0817(2) 0.5987(3) 0.0985(4)
H4 H 0.1213 0.6095 0.1694
C2 C 0.0882(3) 0.5650(3) 0.0295(5)
H5 H 0.1324 0.5539 0.0518
C3 C -0.0330(3) 0.5637(3) -0.1086(4)
H6 H -0.0713 0.5527 -0.1804
C4 C -0.0425(3) 0.5968(2) -0.0416(4)
H7 H -0.0875 0.6059 -0.0654
C5 C 0.01644(19) 0.6166(2) 0.0633(3)
C6 C 0.00768(19) 0.6586(2) 0.1349(3)
C7 C 0.2706(2) 0.7941(2) 0.2114(3)
H8 H 0.3180 0.7992 0.2700
C8 C 0.2453(2) 0.8080(3) 0.1051(4)
H9 H 0.2754 0.8229 0.0912
C9 C 0.1332(2) 0.7767(3) 0.0372(4)
H10 H 0.0865 0.7698 -0.0231
C10 C 0.1566(2) 0.7629(2) 0.1418(3)
H11 H 0.1257 0.7469 0.1533
C11 C 0.22581(19) 0.7727(2) 0.2302(3)
C12 C 0.25126(19) 0.7594(2) 0.3471(3)
C13 C -0.08204(19) 0.9078(2) 0.3851(3)
H12 H -0.1201 0.9048 0.3103
C14 C -0.0871(2) 0.9435(2) 0.4532(4)
H13 H -0.1284 0.9649 0.4268
C15 C 0.0300(2) 0.9197(3) 0.6057(4)
H14 H 0.0675 0.9253 0.6803
C16 C 0.0366(2) 0.8815(2) 0.5377(3)
H15 H 0.0785 0.8605 0.5666
C17 C -0.02042(19) 0.8755(2) 0.4260(3)
C18 C -0.01630(18) 0.8297(2) 0.3538(3)
O9 O 0.18205(13) 0.64078(14) 0.4423(2)
H16 H 0.2229 0.6470 0.4679
O10 O 0.17380(12) 0.85103(14) 0.4639(2)
H17 H 0.1842 0.8542 0.5257
O2B O -0.05347(12) 0.66370(15) 0.1047(2)
O4E O 0.31602(13) 0.76130(15) 0.4218(2)
O6B O -0.07208(13) 0.82132(15) 0.2586(2)
C6B C -0.00768(19) 0.6586(2) 0.3651(3)
C12E C 0.24874(19) 0.7406(2) 0.6529(3)
C18B C 0.01630(18) 0.8297(2) 0.1462(3)
loop_
_geom_bond_atom_site_label_1
_geom_bond_atom_site_label_2
_geom_bond_site_symmetry_1
_geom_bond_site_symmetry_2
Gd1 O1 1_555 1_555
Hg1 Cl1 1_555 1_555
Hg2 Cl5 1_555 1_555
Cl2 Hg1 1_555 1_555
Cl3 Hg1 1_555 1_555
Cl4 Hg1 1_555 1_555
Cl5 Hg2B 1_555 1_555
Cl6 Hg2 1_555 1_555
Cl7 Hg2 1_555 1_555
O1 C6 1_555 1_555
O2 Gd1 1_555 1_555
O3 Gd1 1_555 1_555
O4 Gd1 1_555 1_555
O5 Gd1 1_555 1_555
O6 Gd1 1_555 1_555
N1 H1 1_555 1_555
N2 H2 1_555 1_555
N3 H3 1_555 1_555
C1 H4 1_555 1_555
C2 N1 1_555 1_555
H5 C2 1_555 1_555
C3 N1 1_555 1_555
H6 C3 1_555 1_555
C4 C3 1_555 1_555
H7 C4 1_555 1_555
C5 C1 1_555 1_555
C6 C5 1_555 1_555
C7 H8 1_555 1_555
C8 N2 1_555 1_555
H9 C8 1_555 1_555
C9 N2 1_555 1_555
H10 C9 1_555 1_555
C10 C9 1_555 1_555
H11 C10 1_555 1_555
C11 C7 1_555 1_555
C12 O3 1_555 1_555
C13 H12 1_555 1_555
C14 N3 1_555 1_555
H13 C14 1_555 1_555
C15 N3 1_555 1_555
H14 C15 1_555 1_555
C16 C15 1_555 1_555
H15 C16 1_555 1_555
C17 C13 1_555 1_555
C18 O5 1_555 1_555
O7 H19 1_555 1_555
O8 H18 1_555 1_555
O9 Gd1 1_555 1_555
H16 O9 1_555 1_555
O10 Gd1 1_555 1_555
H17 O10 1_555 1_555
Hg2B Hg2 1_555 1_555
Cl7B Hg2 1_555 1_555
O2B C6 1_555 1_555
O4E C12 1_555 1_555
O6B C18 1_555 1_555
C6B O2 1_555 1_555
C12E O4 1_555 1_555
C18B O6 1_555 1_555
Cl7 Hg2B 1_555 1_555
C1 C2 1_555 1_555
C4 C5 1_555 1_555
C7 C8 1_555 1_555
C10 C11 1_555 1_555
C11 C12 1_555 1_555
C13 C14 1_555 1_555
C16 C17 1_555 1_555
C17 C18 1_555 1_555
Hg2B Cl7B 1_555 1_555

#END
