
#######################################################################
#
#                 Cambridge Crystallographic Data Centre
#                                CCDC 
#
#######################################################################
#
# If this CIF has been generated from an entry in the Cambridge 
# Structural Database, then it will include bibliographic, chemical, 
# crystal, experimental, refinement or atomic coordinate data resulting 
# from the CCDC's data processing and validation procedures.
#
#######################################################################

data_QOJTOY
_symmetry_cell_setting           triclinic
_symmetry_space_group_name_H-M   'P -1'
_symmetry_Int_Tables_number      2
_space_group_name_Hall           '-P 1'
loop_
_symmetry_equiv_pos_site_id
_symmetry_equiv_pos_as_xyz
1 x,y,z
2 -x,-y,-z
_cell_length_a                   9.7150(15)
_cell_length_b                   10.9775(17)
_cell_length_c                   13.880(2)
_cell_angle_alpha                84.976(3)
_cell_angle_beta                 83.800(4)
_cell_angle_gamma                67.496(3)
_cell_volume                     1357.81
loop_
_atom_site_label
_atom_site_type_symbol
_atom_site_fract_x
_atom_site_fract_y
_atom_site_fract_z
I1 I 0.45502(10) 0.23931(8) 0.05223(6)
I2 I 0.76662(9) 0.23813(8) 0.26972(6)
Cu1 Cu 0.66764(16) 0.10303(14) 0.16498(11)
Cu2 Cu 0.48562(17) 0.32985(14) 0.21903(11)
N1 N 0.6403(11) -0.2685(9) 0.6740(7)
C1 C 0.5981(12) -0.2390(11) 0.5856(8)
H1 H 0.5144 -0.2564 0.5708
C2 C 0.6699(13) -0.1824(11) 0.5105(9)
C3 C 0.7884(14) -0.1518(13) 0.5352(9)
H2 H 0.8373 -0.1100 0.4886
C4 C 0.8343(16) -0.1839(15) 0.6302(10)
H3 H 0.9179 -0.1686 0.6478
C5 C 0.7552(14) -0.2381(13) 0.6971(9)
H4 H 0.7824 -0.2548 0.7621
N2 N 0.5982(10) -0.0219(9) 0.2617(7)
C6 C 0.6456(13) -0.0569(11) 0.3518(8)
H5 H 0.6994 -0.0113 0.3759
C7 C 0.6202(12) -0.1538(11) 0.4097(9)
C8 C 0.5446(12) -0.2247(10) 0.3745(8)
H6 H 0.5261 -0.2931 0.4137
C9 C 0.4974(12) -0.1934(11) 0.2819(8)
C10 C 0.5270(12) -0.0917(11) 0.2300(9)
H7 H 0.4941 -0.0694 0.1665
N3 N 0.4157(10) -0.4717(9) 0.2023(6)
C11 C 0.4743(13) -0.4001(11) 0.2430(8)
H8 H 0.5607 -0.4457 0.2771
C12 C 0.4195(13) -0.2654(12) 0.2393(8)
C13 C 0.2924(12) -0.2005(11) 0.1890(8)
H9 H 0.2505 -0.1067 0.1845
C14 C 0.2265(12) -0.2711(11) 0.1456(8)
C15 C 0.2950(13) -0.4063(11) 0.1526(8)
H10 H 0.2547 -0.4565 0.1205
N4 N -0.1596(10) -0.0347(9) 0.0919(7)
C16 C -0.0315(13) -0.0975(11) 0.1323(8)
H11 H -0.0215 -0.0680 0.1925
C17 C 0.0913(13) -0.2046(12) 0.0930(8)
C18 C 0.0741(13) -0.2427(11) 0.0026(8)
H12 H 0.1533 -0.3114 -0.0297
C19 C -0.0612(14) -0.1783(11) -0.0390(9)
H13 H -0.0768 -0.2037 -0.0993
C20 C -0.1687(13) -0.0797(11) 0.0076(8)
H14 H -0.2601 -0.0380 -0.0221
N4_2 N 0.8404(10) -0.0347(9) 0.0919(7)
N1A N 0.3597(11) 0.2685(9) 0.3260(7)
N3_2 N 0.4157(10) 0.5283(9) 0.2023(6)
Cu2A Cu 0.51438(17) -0.32985(14) 0.78097(11)
Cu2_2 Cu 0.48562(17) -0.67015(14) 0.21903(11)
Cu1_2 Cu -0.33236(16) 0.10303(14) 0.16498(11)
N5 N 0.967(4) -0.396(4) 0.319(2)
C21 C 0.911(2) -0.412(2) 0.244(2)
C22 C 0.871(3) -0.443(2) 0.1417(18)
H15 H 0.8620 -0.3686 0.0950
H16 H 0.7760 -0.4562 0.1504
H17 H 0.9504 -0.5231 0.1172
O1 O 0.8435(15) 0.211(3) 0.5568(10)
N6? N 0.858(4) 0.413(3) 0.515(3)
C23? C 0.686(4) 0.437(3) 0.5194(19)
C24? C 0.5000 0.5000 0.5000
loop_
_geom_bond_atom_site_label_1
_geom_bond_atom_site_label_2
_geom_bond_site_symmetry_1
_geom_bond_site_symmetry_2
I1 Cu1 1_555 1_555
I2 Cu1 1_555 1_555
Cu1 Cu2 1_555 1_555
Cu2 I1 1_555 1_555
N1 C1 1_555 1_555
C1 H1 1_555 1_555
C2 C1 1_555 1_555
C3 C2 1_555 1_555
H2 C3 1_555 1_555
C4 C3 1_555 1_555
H3 C4 1_555 1_555
C5 N1 1_555 1_555
H4 C5 1_555 1_555
N2 Cu1 1_555 1_555
C6 N2 1_555 1_555
H5 C6 1_555 1_555
C7 C2 1_555 1_555
C8 C7 1_555 1_555
H6 C8 1_555 1_555
C9 C8 1_555 1_555
C10 N2 1_555 1_555
H7 C10 1_555 1_555
N3 C11 1_555 1_555
C11 H8 1_555 1_555
C12 C9 1_555 1_555
C13 C12 1_555 1_555
H9 C13 1_555 1_555
C14 C13 1_555 1_555
C15 N3 1_555 1_555
H10 C15 1_555 1_555
N4 C16 1_555 1_555
C16 H11 1_555 1_555
C17 C14 1_555 1_555
C18 C17 1_555 1_555
H12 C18 1_555 1_555
C19 C18 1_555 1_555
H13 C19 1_555 1_555
C20 N4 1_555 1_555
H14 C20 1_555 1_555
N5 C21 1_555 1_555
C21 C22 1_555 1_555
C22 H15 1_555 1_555
H16 C22 1_555 1_555
H17 C22 1_555 1_555
N4_2 Cu1 1_555 1_555
N1A Cu2 1_555 1_555
N3_2 Cu2 1_555 1_555
Cu2A N1 1_555 1_555
Cu2_2 N3 1_555 1_555
Cu1_2 N4 1_555 1_555
I2 Cu2 1_555 1_555
C4 C5 1_555 1_555
C6 C7 1_555 1_555
C9 C10 1_555 1_555
C11 C12 1_555 1_555
C14 C15 1_555 1_555
C16 C17 1_555 1_555
C19 C20 1_555 1_555

#END
