
#######################################################################
#
#                 Cambridge Crystallographic Data Centre
#                                CCDC 
#
#######################################################################
#
# If this CIF has been generated from an entry in the Cambridge 
# Structural Database, then it will include bibliographic, chemical, 
# crystal, experimental, refinement or atomic coordinate data resulting 
# from the CCDC's data processing and validation procedures.
#
#######################################################################

data_QOJTUE
_symmetry_cell_setting           monoclinic
_symmetry_space_group_name_H-M   'C 2/c'
_symmetry_Int_Tables_number      15
_space_group_name_Hall           '-C 2yn'
loop_
_symmetry_equiv_pos_site_id
_symmetry_equiv_pos_as_xyz
1 x,y,z
2 1/2+x,1/2+y,z
3 x,-y,1/2+z
4 1/2+x,1/2-y,1/2+z
5 -x,-y,-z
6 1/2-x,1/2-y,-z
7 -x,y,1/2-z
8 1/2-x,1/2+y,1/2-z
_cell_length_a                   14.081(3)
_cell_length_b                   14.413(3)
_cell_length_c                   16.420(3)
_cell_angle_alpha                90
_cell_angle_beta                 97.814(4)
_cell_angle_gamma                90
_cell_volume                     3301.49
loop_
_atom_site_label
_atom_site_type_symbol
_atom_site_fract_x
_atom_site_fract_y
_atom_site_fract_z
I1 I 0.10363(2) 0.23849(3) 0.54864(2)
Cu1 Cu 0.24771(5) 0.16115(5) 0.48069(3)
N1 N 0.1885(3) 0.1209(3) 0.3651(2)
C1 C 0.2447(4) 0.0974(4) 0.3096(3)
H1 H 0.3119 0.0958 0.3266
C2 C 0.2117(4) 0.0751(4) 0.2285(3)
C3 C 0.1122(4) 0.0783(4) 0.2041(3)
H2 H 0.0858 0.0649 0.1490
C4 C 0.0536(4) 0.1014(4) 0.2616(3)
C5 C 0.0943(4) 0.1238(4) 0.3403(3)
H3 H 0.0532 0.1421 0.3788
N2 N 0.3034(3) -0.0599(3) 0.0595(2)
C6 C 0.2476(4) -0.0238(4) 0.1130(3)
H4 H 0.1840 -0.0463 0.1110
C7 C 0.2789(4) 0.0444(4) 0.1704(3)
C8 C 0.3705(4) 0.0779(4) 0.1726(3)
H5 H 0.3942 0.1247 0.2107
C9 C 0.4274(4) 0.0419(5) 0.1183(3)
H6 H 0.4909 0.0641 0.1182
C10 C 0.3914(4) -0.0264(4) 0.0642(3)
H7 H 0.4323 -0.0511 0.0280
C4F C -0.0536(4) 0.1014(4) 0.2384(3)
C3F C -0.1122(4) 0.0783(4) 0.2959(3)
C2F C -0.2117(4) 0.0751(4) 0.2715(3)
C1F C -0.2447(4) 0.0974(4) 0.1904(3)
N1F N -0.1885(3) 0.1209(3) 0.1349(2)
C5F C -0.0943(4) 0.1238(4) 0.1597(3)
H3F H -0.0532 0.1421 0.1212
H1F H -0.3119 0.0958 0.1734
C7F C -0.2789(4) 0.0444(4) 0.3296(3)
C6F C -0.2476(4) -0.0238(4) 0.3870(3)
N2F N -0.3034(3) -0.0599(3) 0.4405(2)
C10F C -0.3914(4) -0.0264(4) 0.4358(3)
C9F C -0.4274(4) 0.0419(5) 0.3817(3)
C8F C -0.3705(4) 0.0779(4) 0.3274(3)
H5F H -0.3942 0.1247 0.2893
H6F H -0.4909 0.0641 0.3818
H7F H -0.4323 -0.0511 0.4720
H4F H -0.1840 -0.0463 0.3890
H2F H -0.0858 0.0649 0.3510
I1E I 0.39637(2) 0.26151(3) 0.45136(2)
Cu1E Cu 0.25229(5) 0.33885(5) 0.51931(3)
N2B N 0.3034(3) 0.0599(3) 0.5595(2)
Cu1B Cu 0.24771(5) -0.16115(5) -0.01931(3)
Cu1F Cu -0.24771(5) 0.16115(5) 0.01931(3)
Cu1D Cu -0.24771(5) -0.16115(5) 0.51931(3)
N1E N 0.3115(3) 0.3791(3) 0.6349(2)
N2G N 0.1966(3) 0.4401(3) 0.4405(2)
C11 C 0.8247(7) -0.1399(6) 0.1105(6)
C12 C 0.7431(6) -0.1466(5) 0.0566(4)
H8 H 0.7439 -0.1380 -0.0007
C13 C 0.6588(5) -0.1664(5) 0.0871(4)
H9 H 0.5999 -0.1722 0.0517
C14 C 0.6632(9) -0.1774(6) 0.1715(6)
C15 C 0.7475(12) -0.1751(8) 0.2256(7)
H10 H 0.7494 -0.1895 0.2822
C16 C 0.8231(10) -0.1520(7) 0.1943(7)
H11 H 0.8810 -0.1428 0.2304
N3 N 0.8981(9) -0.0996(10) 0.0936(10)
O1 O 0.9041(8) -0.0768(9) 0.0238(9)
O2 O 0.9685(7) -0.0872(8) 0.1474(8)
O3? O 0.5180(8) -0.1853(7) 0.1728(6)
N4? N 0.5934(10) -0.1776(8) 0.2150(8)
O4? O 0.5995(8) -0.1755(7) 0.2917(6)
loop_
_geom_bond_atom_site_label_1
_geom_bond_atom_site_label_2
_geom_bond_site_symmetry_1
_geom_bond_site_symmetry_2
I1 Cu1 1_555 1_555
Cu1 N1 1_555 1_555
N1 C1 1_555 1_555
C1 H1 1_555 1_555
C2 C1 1_555 1_555
C3 C2 1_555 1_555
H2 C3 1_555 1_555
C4 C3 1_555 1_555
C5 N1 1_555 1_555
H3 C5 1_555 1_555
N2 C6 1_555 1_555
C6 H4 1_555 1_555
C7 C2 1_555 1_555
C8 C7 1_555 1_555
H5 C8 1_555 1_555
C9 C8 1_555 1_555
H6 C9 1_555 1_555
C10 N2 1_555 1_555
H7 C10 1_555 1_555
C11 C12 1_555 1_555
C12 H8 1_555 1_555
C13 C12 1_555 1_555
H9 C13 1_555 1_555
C14 C13 1_555 1_555
C15 C14 1_555 1_555
H10 C15 1_555 1_555
C16 C11 1_555 1_555
H11 C16 1_555 1_555
N3 C11 1_555 1_555
O1 N3 1_555 1_555
O2 N3 1_555 1_555
C4F C4 1_555 1_555
C3F C4F 1_555 1_555
C2F C3F 1_555 1_555
C1F C2F 1_555 1_555
N1F C1F 1_555 1_555
C5F C4F 1_555 1_555
H3F C5F 1_555 1_555
H1F C1F 1_555 1_555
C7F C2F 1_555 1_555
C6F C7F 1_555 1_555
N2F C6F 1_555 1_555
C10F N2F 1_555 1_555
C9F C10F 1_555 1_555
C8F C7F 1_555 1_555
H5F C8F 1_555 1_555
H6F C9F 1_555 1_555
H7F C10F 1_555 1_555
H4F C6F 1_555 1_555
H2F C3F 1_555 1_555
I1E Cu1 1_555 1_555
Cu1E I1 1_555 1_555
N2B Cu1 1_555 1_555
Cu1B N2 1_555 1_555
Cu1F N1F 1_555 1_555
Cu1D N2F 1_555 1_555
N1E Cu1E 1_555 1_555
N2G Cu1E 1_555 1_555
Cu1 Cu1E 1_555 1_555
C4 C5 1_555 1_555
C6 C7 1_555 1_555
C9 C10 1_555 1_555
C15 C16 1_555 1_555
N1F C5F 1_555 1_555
C9F C8F 1_555 1_555
I1E Cu1E 1_555 1_555

#END
