
#######################################################################
#
#                 Cambridge Crystallographic Data Centre
#                                CCDC 
#
#######################################################################
#
# If this CIF has been generated from an entry in the Cambridge 
# Structural Database, then it will include bibliographic, chemical, 
# crystal, experimental, refinement or atomic coordinate data resulting 
# from the CCDC's data processing and validation procedures.
#
#######################################################################

data_QOJTEO
_symmetry_cell_setting           orthorhombic
_symmetry_space_group_name_H-M   'P n m a'
_symmetry_Int_Tables_number      62
_space_group_name_Hall           '-P 2ac 2n'
loop_
_symmetry_equiv_pos_site_id
_symmetry_equiv_pos_as_xyz
1 x,y,z
2 1/2-x,-y,1/2+z
3 1/2+x,1/2-y,1/2-z
4 -x,1/2+y,-z
5 -x,-y,-z
6 1/2+x,y,1/2-z
7 1/2-x,1/2+y,1/2+z
8 x,1/2-y,z
_cell_length_a                   15.990(3)
_cell_length_b                   9.569(2)
_cell_length_c                   13.045(3)
_cell_angle_alpha                90
_cell_angle_beta                 90
_cell_angle_gamma                90
_cell_volume                     1995.99
loop_
_atom_site_label
_atom_site_type_symbol
_atom_site_fract_x
_atom_site_fract_y
_atom_site_fract_z
Sn1 Sn 0.2247(1) 0.2500 0.5264(1)
Br1 Br 0.1354(1) 0.0428(1) 0.5994(1)
N1 N 0.3170(5) 0.0716(7) 0.4525(5)
N2 N 0.3554(4) -0.1238(7) 0.3833(4)
N3 N 0.4260(5) -0.0709(8) 0.4229(6)
C1 C 0.2907(5) -0.0386(10) 0.4009(6)
C2 C 0.4000(5) 0.0463(10) 0.4651(7)
C3 C 0.3562(8) -0.2500 0.3204(8)
C4 C 0.1637(8) 0.2500 0.3798(9)
C5 C 0.0762(9) 0.2500 0.3787(11)
C6 C 0.0340(10) 0.2500 0.2849(12)
C7 C 0.0802(12) 0.2500 0.1941(12)
C8 C 0.1662(12) 0.2500 0.1954(10)
C9 C 0.2091(10) 0.2500 0.2900(9)
C10 C 0.3141(7) 0.2500 0.6485(8)
C11 C 0.3431(5) 0.1261(9) 0.6899(6)
C12 C 0.3999(6) 0.1267(10) 0.7703(7)
C13 C 0.4283(8) 0.2500 0.8110(9)
N2G N 0.3554(4) -0.3762(7) 0.3833(4)
N3G N 0.4260(5) -0.4291(8) 0.4229(6)
C2G C 0.4000(5) -0.5463(10) 0.4651(7)
N1G N 0.3170(5) -0.5716(7) 0.4525(5)
C1G C 0.2907(5) -0.4614(10) 0.4009(6)
C12G C 0.3999(6) 0.3733(10) 0.7703(7)
C11G C 0.3431(5) 0.3739(9) 0.6899(6)
Br1G Br 0.1354(1) 0.4572(1) 0.5994(1)
N1G_2 N 0.3170(5) 0.4284(7) 0.4525(5)
Sn1_2 Sn 0.2247(1) -0.7500 0.5264(1)
loop_
_geom_bond_atom_site_label_1
_geom_bond_atom_site_label_2
_geom_bond_site_symmetry_1
_geom_bond_site_symmetry_2
Sn1 Br1 1_555 1_555
N1 Sn1 1_555 1_555
N2 N3 1_555 1_555
N3 C2 1_555 1_555
C1 N1 1_555 1_555
C2 N1 1_555 1_555
C3 N2 1_555 1_555
C4 Sn1 1_555 1_555
C5 C4 1_555 1_555
C6 C5 1_555 1_555
C7 C6 1_555 1_555
C8 C7 1_555 1_555
C9 C4 1_555 1_555
C10 Sn1 1_555 1_555
C11 C10 1_555 1_555
C12 C11 1_555 1_555
C13 C12 1_555 1_555
N2G C3 1_555 1_555
N3G N2G 1_555 1_555
C2G N3G 1_555 1_555
N1G C2G 1_555 1_555
C1G N2G 1_555 1_555
C12G C13 1_555 1_555
C11G C10 1_555 1_555
Br1G Sn1 1_555 1_555
N1G_2 Sn1 1_555 1_555
Sn1_2 N1G 1_555 1_555
N2 C1 1_555 1_555
C8 C9 1_555 1_555
N1G C1G 1_555 1_555
C12G C11G 1_555 1_555

#END
