
#######################################################################
#
#                 Cambridge Crystallographic Data Centre
#                                CCDC 
#
#######################################################################
#
# If this CIF has been generated from an entry in the Cambridge 
# Structural Database, then it will include bibliographic, chemical, 
# crystal, experimental, refinement or atomic coordinate data resulting 
# from the CCDC's data processing and validation procedures.
#
#######################################################################

data_QOJVAM
_symmetry_cell_setting           monoclinic
_symmetry_space_group_name_H-M   'C c'
_symmetry_Int_Tables_number      9
_space_group_name_Hall           'C -2yc'
loop_
_symmetry_equiv_pos_site_id
_symmetry_equiv_pos_as_xyz
1 x,y,z
2 x,-y,1/2+z
3 1/2+x,1/2+y,z
4 1/2+x,1/2-y,1/2+z
_cell_length_a                   13.9745(13)
_cell_length_b                   14.5627(14)
_cell_length_c                   16.4373(15)
_cell_angle_alpha                90
_cell_angle_beta                 98.5760(18)
_cell_angle_gamma                90
_cell_volume                     3307.69
loop_
_atom_site_label
_atom_site_type_symbol
_atom_site_fract_x
_atom_site_fract_y
_atom_site_fract_z
I1 I 0.44966(4) 0.26023(9) 0.23580(4)
I2 I 0.74927(4) 0.24022(9) 0.14526(4)
Cu1 Cu 0.59779(15) 0.33770(16) 0.17212(14)
Cu2 Cu 0.60107(16) 0.16192(16) 0.20870(15)
N1 N 0.6613(6) 0.4375(5) 0.2533(4)
C1 C 0.6024(4) 0.4678(5) 0.3089(5)
H1 H 0.5403 0.4411 0.3088
C2 C 0.6343(6) 0.5370(6) 0.3646(5)
C3 C 0.7251(7) 0.5760(6) 0.3647(5)
H2 H 0.7469 0.6233 0.4028
C4 C 0.7840(5) 0.5457(7) 0.3092(6)
H3 H 0.8461 0.5724 0.3093
C5 C 0.7522(6) 0.4765(7) 0.2534(5)
H4 H 0.7925 0.4559 0.2154
N2 N 0.5349(6) 0.6164(6) 0.5591(4)
C6 C 0.5984(4) 0.5897(6) 0.5060(5)
H5 H 0.6660 0.5878 0.5249
C7 C 0.5629(6) 0.5657(6) 0.4252(4)
C8 C 0.4640(7) 0.5684(6) 0.3976(4)
H6 H 0.4398 0.5520 0.3425
C9 C 0.4005(4) 0.5951(7) 0.4507(6)
C10 C 0.4359(5) 0.6191(7) 0.5315(5)
H7 H 0.3925 0.6374 0.5678
N3 N 0.1527(5) 0.6201(6) 0.3271(4)
C11 C 0.2528(5) 0.6187(6) 0.3483(4)
H8 H 0.2930 0.6358 0.3090
C12 C 0.2941(4) 0.5923(6) 0.4270(5)
C13 C 0.2353(7) 0.5673(7) 0.4845(4)
H9 H 0.2635 0.5492 0.5383
C14 C 0.1352(6) 0.5687(7) 0.4633(5)
C15 C 0.0939(4) 0.5951(7) 0.3846(5)
H10 H 0.0255 0.5961 0.3701
N4 N 0.0491(6) 0.4317(5) 0.6230(5)
C16 C 0.1075(4) 0.4680(7) 0.5695(6)
H11 H 0.1717 0.4460 0.5707
C17 C 0.0719(6) 0.5365(7) 0.5143(6)
C18 C -0.0220(7) 0.5687(6) 0.5125(6)
H12 H -0.0463 0.6155 0.4747
C19 C -0.0804(5) 0.5323(6) 0.5660(5)
H13 H -0.1446 0.5543 0.5648
C20 C -0.0448(6) 0.4638(6) 0.6212(5)
H14 H -0.0847 0.4390 0.6578
N2A N 0.5349(6) 0.3836(6) 0.0591(4)
N3B N 0.6527(5) 0.1201(6) 0.3271(4)
N4C N 0.5491(6) 0.0683(5) 0.1230(5)
Cu1A Cu 0.59779(15) 0.66230(16) 0.67212(14)
Cu2B Cu 0.10107(16) 0.66192(16) 0.20870(15)
Cu2C Cu 0.10107(16) 0.33808(16) 0.70870(15)
N5 N 1.3058(6) 0.5319(5) -0.3045(5)
C21 C 1.1797(8) 0.6299(8) -0.2265(6)
C22 C 1.0821(9) 0.6394(9) -0.2575(6)
H15 H 1.0601 0.6281 -0.3141
C23 C 1.0169(7) 0.6655(9) -0.2058(9)
H16 H 0.9502 0.6720 -0.2270
C24 C 1.0491(8) 0.6820(8) -0.1229(8)
H17 H 1.0045 0.6999 -0.0876
C25 C 1.1467(9) 0.6725(8) -0.0919(5)
H18 H 1.1688 0.6838 -0.0353
C26 C 1.2120(6) 0.6464(7) -0.1436(6)
H19 H 1.2787 0.6399 -0.1224
C27 C 1.2503(7) 0.5721(6) -0.2690(5)
N6 N 0.8539(15) 0.6757(6) -0.0427(14)
C28 C 0.6765(7) 0.6833(9) 0.0186(7)
C29 C 0.5886(9) 0.6811(8) -0.0336(6)
H20 H 0.5864 0.6938 -0.0905
C30 C 0.5040(7) 0.6604(9) -0.0024(8)
H21 H 0.4439 0.6589 -0.0381
C31 C 0.5072(7) 0.6419(10) 0.0809(9)
H22 H 0.4494 0.6277 0.1021
C32 C 0.5951(8) 0.6441(9) 0.1331(7)
H23 H 0.5974 0.6314 0.1900
C33 C 0.6798(6) 0.6648(8) 0.1020(7)
H24 H 0.7399 0.6663 0.1376
C34 C 0.7709(10) 0.6738(7) -0.0216(8)
loop_
_geom_bond_atom_site_label_1
_geom_bond_atom_site_label_2
_geom_bond_site_symmetry_1
_geom_bond_site_symmetry_2
I1 Cu1 1_555 1_555
I2 Cu1 1_555 1_555
Cu1 Cu2 1_555 1_555
Cu2 I1 1_555 1_555
N1 Cu1 1_555 1_555
C1 N1 1_555 1_555
H1 C1 1_555 1_555
C2 C1 1_555 1_555
C3 C2 1_555 1_555
H2 C3 1_555 1_555
C4 C3 1_555 1_555
H3 C4 1_555 1_555
C5 N1 1_555 1_555
H4 C5 1_555 1_555
N2 C6 1_555 1_555
C6 H5 1_555 1_555
C7 C2 1_555 1_555
C8 C7 1_555 1_555
H6 C8 1_555 1_555
C9 C8 1_555 1_555
C10 N2 1_555 1_555
H7 C10 1_555 1_555
N3 C11 1_555 1_555
C11 H8 1_555 1_555
C12 C9 1_555 1_555
C13 C12 1_555 1_555
H9 C13 1_555 1_555
C14 C13 1_555 1_555
C15 N3 1_555 1_555
H10 C15 1_555 1_555
N4 C16 1_555 1_555
C16 H11 1_555 1_555
C17 C14 1_555 1_555
C18 C17 1_555 1_555
H12 C18 1_555 1_555
C19 C18 1_555 1_555
H13 C19 1_555 1_555
C20 N4 1_555 1_555
H14 C20 1_555 1_555
N5 C27 1_555 1_555
C21 C22 1_555 1_555
C22 H15 1_555 1_555
C23 C22 1_555 1_555
H16 C23 1_555 1_555
C24 C23 1_555 1_555
H17 C24 1_555 1_555
C25 C24 1_555 1_555
H18 C25 1_555 1_555
C26 C21 1_555 1_555
H19 C26 1_555 1_555
C27 C21 1_555 1_555
N6 C34 1_555 1_555
C28 C29 1_555 1_555
C29 H20 1_555 1_555
C30 C29 1_555 1_555
H21 C30 1_555 1_555
C31 C30 1_555 1_555
H22 C31 1_555 1_555
C32 C31 1_555 1_555
H23 C32 1_555 1_555
C33 C28 1_555 1_555
H24 C33 1_555 1_555
C34 C28 1_555 1_555
N2A Cu1 1_555 1_555
N3B Cu2 1_555 1_555
N4C Cu2 1_555 1_555
Cu1A N2 1_555 1_555
Cu2B N3 1_555 1_555
Cu2C N4 1_555 1_555
I2 Cu2 1_555 1_555
C4 C5 1_555 1_555
C6 C7 1_555 1_555
C9 C10 1_555 1_555
C11 C12 1_555 1_555
C14 C15 1_555 1_555
C16 C17 1_555 1_555
C19 C20 1_555 1_555
C25 C26 1_555 1_555
C32 C33 1_555 1_555

#END
