
#######################################################################
#
#                 Cambridge Crystallographic Data Centre
#                                CCDC 
#
#######################################################################
#
# If this CIF has been generated from an entry in the Cambridge 
# Structural Database, then it will include bibliographic, chemical, 
# crystal, experimental, refinement or atomic coordinate data resulting 
# from the CCDC's data processing and validation procedures.
#
#######################################################################

data_QOJXOE
_symmetry_cell_setting           orthorhombic
_symmetry_space_group_name_H-M   'F d d 2'
_symmetry_Int_Tables_number      43
_space_group_name_Hall           'F 2 -2d'
loop_
_symmetry_equiv_pos_site_id
_symmetry_equiv_pos_as_xyz
1 x,y,z
2 -x,-y,z
3 1/4-x,1/4+y,1/4+z
4 3/4+x,3/4-y,1/4+z
5 x,1/2+y,1/2+z
6 -x,1/2-y,1/2+z
7 1/4-x,3/4+y,3/4+z
8 3/4+x,1/4-y,3/4+z
9 1/2+x,y,1/2+z
10 1/2-x,-y,1/2+z
11 3/4-x,1/4+y,3/4+z
12 1/4+x,3/4-y,3/4+z
13 1/2+x,1/2+y,z
14 1/2-x,1/2-y,z
15 3/4-x,3/4+y,1/4+z
16 1/4+x,1/4-y,1/4+z
_cell_length_a                   17.297(2)
_cell_length_b                   30.446(4)
_cell_length_c                   14.7303(19)
_cell_angle_alpha                90
_cell_angle_beta                 90
_cell_angle_gamma                90
_cell_volume                     7757.34
loop_
_atom_site_label
_atom_site_type_symbol
_atom_site_fract_x
_atom_site_fract_y
_atom_site_fract_z
C1 C 0.4050(3) 0.24719(17) 0.3011(3)
Ni1 Ni 0.52435(3) 0.155824(18) 0.60023(4)
O1 O 0.43783(19) 0.15326(11) 0.6946(2)
O2 O 0.33762(19) 0.12592(12) 0.6159(2)
O3 O 0.4713(2) 0.10313(13) 0.5307(3)
H1 H 0.4254 0.1020 0.5442
O4 O 0.5756(2) 0.10672(13) 0.6794(2)
H2 H 0.5723 0.1134 0.7332
O5 O 0.21760(19) 0.14294(13) 1.0916(3)
O6 O 0.1099(2) 0.14992(12) 1.0061(3)
N1 N 0.4208(2) 0.29294(14) 0.1702(3)
N2 N 0.3901(2) 0.25439(14) 0.4709(3)
N3 N 0.4704(2) 0.20291(15) 0.5220(3)
C2 C 0.4746(3) 0.20512(17) 0.4292(3)
H3 H 0.5074 0.1873 0.3929
C3 C 0.4254(3) 0.23647(16) 0.3958(3)
C4 C 0.4192(3) 0.23354(16) 0.5473(3)
C5 C 0.3941(3) 0.24683(17) 0.6337(3)
H4 H 0.4139 0.2332 0.6869
C6 C 0.3404(3) 0.27999(19) 0.6396(4)
H5 H 0.3237 0.2899 0.6975
C7 C 0.3098(3) 0.29936(19) 0.5603(4)
H6 H 0.2716 0.3216 0.5655
C8 C 0.3339(3) 0.28685(17) 0.4772(4)
H7 H 0.3130 0.3000 0.4241
C9 C 0.3767(3) 0.26459(17) 0.1231(3)
H8 H 0.3676 0.2704 0.0607
C10 C 0.3442(3) 0.22765(18) 0.1610(4)
H9 H 0.3128 0.2086 0.1257
C11 C 0.3583(3) 0.21891(18) 0.2516(4)
H10 H 0.3363 0.1938 0.2797
C12 C 0.4342(3) 0.28415(16) 0.2586(3)
H11 H 0.4647 0.3041 0.2929
C13 C 0.3193(3) 0.14430(19) 0.7717(3)
C14 C 0.3678(3) 0.14107(16) 0.6873(3)
C15 C 0.3501(3) 0.15984(18) 0.8515(4)
H12 H 0.4016 0.1707 0.8521
C16 C 0.3070(3) 0.1599(2) 0.9317(3)
H13 H 0.3298 0.1693 0.9870
C17 C 0.2302(3) 0.1460(2) 0.9300(3)
C18 C 0.1973(3) 0.13280(18) 0.8494(4)
H14 H 0.1441 0.1250 0.8473
C19 C 0.2420(3) 0.1309(2) 0.7706(3)
H15 H 0.2198 0.1203 0.7158
C20 C 0.1825(3) 0.14638(16) 1.0164(3)
H16 H 0.626(4) 0.112(2) 0.655(5)
H17 H 0.472(5) 0.100(3) 0.474(7)
Ni1E Ni 0.47565(3) 0.344176(18) 0.10023(4)
Ni1H Ni 0.02435(3) 0.155824(18) 1.10023(4)
O6H O 0.6099(2) 0.14992(12) 0.5061(3)
N1E N 0.5792(2) 0.20706(14) 0.6702(3)
loop_
_geom_bond_atom_site_label_1
_geom_bond_atom_site_label_2
_geom_bond_site_symmetry_1
_geom_bond_site_symmetry_2
C1 C3 1_555 1_555
Ni1 O1 1_555 1_555
O1 C14 1_555 1_555
O2 C14 1_555 1_555
O3 Ni1 1_555 1_555
H1 O3 1_555 1_555
O4 Ni1 1_555 1_555
H2 O4 1_555 1_555
O5 C20 1_555 1_555
O6 C20 1_555 1_555
N1 C9 1_555 1_555
N2 C3 1_555 1_555
N3 Ni1 1_555 1_555
C2 N3 1_555 1_555
H3 C2 1_555 1_555
C3 C2 1_555 1_555
C4 N2 1_555 1_555
C5 C4 1_555 1_555
H4 C5 1_555 1_555
C6 C5 1_555 1_555
H5 C6 1_555 1_555
C7 C6 1_555 1_555
H6 C7 1_555 1_555
C8 N2 1_555 1_555
H7 C8 1_555 1_555
C9 H8 1_555 1_555
C10 C9 1_555 1_555
H9 C10 1_555 1_555
C11 C1 1_555 1_555
H10 C11 1_555 1_555
C12 C1 1_555 1_555
H11 C12 1_555 1_555
C13 C14 1_555 1_555
C15 C13 1_555 1_555
H12 C15 1_555 1_555
C16 C15 1_555 1_555
H13 C16 1_555 1_555
C17 C16 1_555 1_555
C18 C17 1_555 1_555
H14 C18 1_555 1_555
C19 C13 1_555 1_555
H15 C19 1_555 1_555
C20 C17 1_555 1_555
H16 O4 1_555 1_555
H17 O3 1_555 1_555
Ni1E N1 1_555 1_555
Ni1H O6 1_555 1_555
O6H Ni1 1_555 1_555
N1E Ni1 1_555 1_555
N1 C12 1_555 1_555
N3 C4 1_555 1_555
C7 C8 1_555 1_555
C10 C11 1_555 1_555
C18 C19 1_555 1_555

#END
