
#######################################################################
#
#                 Cambridge Crystallographic Data Centre
#                                CCDC 
#
#######################################################################
#
# If this CIF has been generated from an entry in the Cambridge 
# Structural Database, then it will include bibliographic, chemical, 
# crystal, experimental, refinement or atomic coordinate data resulting 
# from the CCDC's data processing and validation procedures.
#
#######################################################################

data_QOJXUK
_symmetry_cell_setting           orthorhombic
_symmetry_space_group_name_H-M   'F d d 2'
_symmetry_Int_Tables_number      43
_space_group_name_Hall           'F 2 -2d'
loop_
_symmetry_equiv_pos_site_id
_symmetry_equiv_pos_as_xyz
1 x,y,z
2 -x,-y,z
3 1/4-x,1/4+y,1/4+z
4 3/4+x,3/4-y,1/4+z
5 x,1/2+y,1/2+z
6 -x,1/2-y,1/2+z
7 1/4-x,3/4+y,3/4+z
8 3/4+x,1/4-y,3/4+z
9 1/2+x,y,1/2+z
10 1/2-x,-y,1/2+z
11 3/4-x,1/4+y,3/4+z
12 1/4+x,3/4-y,3/4+z
13 1/2+x,1/2+y,z
14 1/2-x,1/2-y,z
15 3/4-x,3/4+y,1/4+z
16 1/4+x,1/4-y,1/4+z
_cell_length_a                   11.723(2)
_cell_length_b                   22.957(6)
_cell_length_c                   31.011(11)
_cell_angle_alpha                90
_cell_angle_beta                 90
_cell_angle_gamma                90
_cell_volume                     8345.83
loop_
_atom_site_label
_atom_site_type_symbol
_atom_site_fract_x
_atom_site_fract_y
_atom_site_fract_z
C1 C 1.1017(2) 0.10986(15) 0.19889(10)
C2 C 1.0220(3) 0.13698(14) 0.17278(9)
H1 H 0.9431 0.1317 0.1786
C3 C 1.0549(3) 0.17169(14) 0.13834(10)
C4 C 1.1705(3) 0.17970(16) 0.12997(12)
H2 H 1.1941 0.2040 0.1068
C5 C 1.2508(3) 0.1523(2) 0.15537(13)
H3 H 1.3297 0.1574 0.1495
C6 C 1.2170(3) 0.11713(19) 0.18952(13)
H4 H 1.2729 0.0979 0.2066
C7 C 1.0645(3) 0.07056(14) 0.23517(9)
C8 C 0.8500(3) 0.09710(16) 0.37552(10)
H5 H 0.8333 0.0614 0.3896
C9 C 0.8695(3) 0.14816(17) 0.39655(11)
C10 C 0.8789(3) 0.15876(19) 0.32498(12)
C11 C 0.9054(6) 0.2468(2) 0.36692(16)
H6 H 0.9138 0.2655 0.3941
C12 C 0.9098(9) 0.2778(2) 0.3294(2)
H7 H 0.9154 0.3190 0.3303
C13 C 0.8874(5) 0.1909(2) 0.28690(15)
H8 H 0.8799 0.1721 0.2598
C14 C 0.9624(3) 0.18291(15) 0.46503(10)
H9 H 1.0291 0.1917 0.4489
C15 C 0.8675(3) 0.16128(17) 0.44288(11)
C16 C 0.7720(3) 0.14849(18) 0.46747(12)
H10 H 0.7060 0.1326 0.4541
C17 C 0.7725(3) 0.1588(2) 0.51162(13)
H11 H 0.7069 0.1509 0.5286
C18 C 0.8700(3) 0.18077(17) 0.53005(11)
H12 H 0.8700 0.1884 0.5602
C19 C 0.9062(8) 0.2485(2) 0.28885(19)
H13 H 0.9172 0.2700 0.2630
C20 C 0.9660(3) 0.19976(16) 0.11109(11)
H14 H 1.034(4) 0.0356(19) 0.3394(14)
N1 N 0.9646(2) 0.19185(12) 0.50765(8)
N2 N 0.8573(2) 0.10318(14) 0.33174(9)
N3 N 0.8885(3) 0.18790(16) 0.36409(11)
Ni1 Ni 0.86108(3) 0.030400(18) 0.289898(10)
O1 O 0.96047(18) 0.07118(10) 0.24442(7)
O2 O 1.14255(18) 0.04152(12) 0.25269(8)
O3 O 0.8649(2) 0.18415(17) 0.11817(11)
O4 O 0.99575(19) 0.23687(10) 0.08345(6)
O5 O 1.0000 0.0000 0.32216(10)
H14A H 0.966(4) -0.0356(19) 0.3394(14)
C1A C 0.8983(2) -0.10986(15) 0.19889(10)
C2A C 0.9780(3) -0.13698(14) 0.17278(9)
H1A H 1.0569 -0.1317 0.1786
C3A C 0.9451(3) -0.17169(14) 0.13834(10)
C4A C 0.8295(3) -0.17970(16) 0.12997(12)
H2A H 0.8059 -0.2040 0.1068
C5A C 0.7492(3) -0.1523(2) 0.15537(13)
H3A H 0.6703 -0.1574 0.1495
C6A C 0.7830(3) -0.11713(19) 0.18952(13)
H4A H 0.7271 -0.0979 0.2066
C7A C 0.9355(3) -0.07056(14) 0.23517(9)
C8A C 1.1500(3) -0.09710(16) 0.37552(10)
H5A H 1.1667 -0.0614 0.3896
C9A C 1.1305(3) -0.14816(17) 0.39655(11)
C10A C 1.1211(3) -0.15876(19) 0.32498(12)
C11A C 1.0946(6) -0.2468(2) 0.36692(16)
H6A H 1.0862 -0.2655 0.3941
C12A C 1.0902(9) -0.2778(2) 0.3294(2)
H7A H 1.0846 -0.3190 0.3303
C13A C 1.1126(5) -0.1909(2) 0.28690(15)
H8A H 1.1201 -0.1721 0.2598
C14A C 1.0376(3) -0.18291(15) 0.46503(10)
H9A H 0.9709 -0.1917 0.4489
C15A C 1.1325(3) -0.16128(17) 0.44288(11)
C16A C 1.2280(3) -0.14849(18) 0.46747(12)
H10A H 1.2940 -0.1326 0.4541
C17A C 1.2275(3) -0.1588(2) 0.51162(13)
H11A H 1.2931 -0.1509 0.5286
C18A C 1.1300(3) -0.18077(17) 0.53005(11)
H12A H 1.1300 -0.1884 0.5602
C19A C 1.0938(8) -0.2485(2) 0.28885(19)
H13A H 1.0828 -0.2700 0.2630
C20A C 1.0340(3) -0.19976(16) 0.11109(11)
N1A N 1.0354(2) -0.19185(12) 0.50765(8)
N2A N 1.1427(2) -0.10318(14) 0.33174(9)
N3A N 1.1115(3) -0.18790(16) 0.36409(11)
Ni1A Ni 1.13892(3) -0.030400(18) 0.289898(10)
O1A O 1.03953(18) -0.07118(10) 0.24442(7)
O2A O 0.85745(18) -0.04152(12) 0.25269(8)
O3A O 1.1351(2) -0.18415(17) 0.11817(11)
O4A O 1.00425(19) -0.23687(10) 0.08345(6)
N1F N 1.2854(2) -0.05815(12) 0.25765(8)
N1G N 0.7146(2) 0.05815(12) 0.25765(8)
Ni1J Ni 0.88892(3) 0.280400(18) 0.039898(10)
Ni1K Ni 1.11108(3) -0.280400(18) 0.039898(10)
Ni1N Ni 0.88892(3) -0.219600(18) 0.539898(10)
Ni1O Ni 1.11108(3) 0.219600(18) 0.539898(10)
O4N O 0.75425(19) -0.01313(10) 0.33345(6)
O4O O 1.24575(19) 0.01313(10) 0.33345(6)
loop_
_geom_bond_atom_site_label_1
_geom_bond_atom_site_label_2
_geom_bond_site_symmetry_1
_geom_bond_site_symmetry_2
C1 C2 1_555 1_555
C2 H1 1_555 1_555
C3 C2 1_555 1_555
C4 C3 1_555 1_555
H2 C4 1_555 1_555
C5 C4 1_555 1_555
H3 C5 1_555 1_555
C6 C1 1_555 1_555
H4 C6 1_555 1_555
C7 C1 1_555 1_555
C8 H5 1_555 1_555
C9 C8 1_555 1_555
C10 C13 1_555 1_555
C11 H6 1_555 1_555
C12 C11 1_555 1_555
H7 C12 1_555 1_555
C13 H8 1_555 1_555
C14 H9 1_555 1_555
C15 C9 1_555 1_555
C16 C15 1_555 1_555
H10 C16 1_555 1_555
C17 C16 1_555 1_555
H11 C17 1_555 1_555
C18 C17 1_555 1_555
H12 C18 1_555 1_555
C19 C12 1_555 1_555
H13 C19 1_555 1_555
C20 C3 1_555 1_555
H14 O5 1_555 1_555
N1 C14 1_555 1_555
N2 C8 1_555 1_555
N3 C9 1_555 1_555
Ni1 N2 1_555 1_555
O1 C7 1_555 1_555
O2 C7 1_555 1_555
O3 C20 1_555 1_555
O4 C20 1_555 1_555
O5 Ni1 1_555 1_555
H14A O5 1_555 1_555
C1A C2A 1_555 1_555
C2A H1A 1_555 1_555
C3A C2A 1_555 1_555
C4A C3A 1_555 1_555
H2A C4A 1_555 1_555
C5A C4A 1_555 1_555
H3A C5A 1_555 1_555
C6A C1A 1_555 1_555
H4A C6A 1_555 1_555
C7A C1A 1_555 1_555
C8A H5A 1_555 1_555
C9A C8A 1_555 1_555
C10A C13A 1_555 1_555
C11A H6A 1_555 1_555
C12A C11A 1_555 1_555
H7A C12A 1_555 1_555
C13A H8A 1_555 1_555
C14A H9A 1_555 1_555
C15A C9A 1_555 1_555
C16A C15A 1_555 1_555
H10A C16A 1_555 1_555
C17A C16A 1_555 1_555
H11A C17A 1_555 1_555
C18A C17A 1_555 1_555
H12A C18A 1_555 1_555
C19A C12A 1_555 1_555
H13A C19A 1_555 1_555
C20A C3A 1_555 1_555
N1A C14A 1_555 1_555
N2A C8A 1_555 1_555
N3A C9A 1_555 1_555
Ni1A O2 1_555 1_555
O1A C7A 1_555 1_555
O2A Ni1 1_555 1_555
O3A C20A 1_555 1_555
O4A C20A 1_555 1_555
N1F Ni1A 1_555 1_555
N1G Ni1 1_555 1_555
Ni1J O4 1_555 1_555
Ni1K O4A 1_555 1_555
Ni1N N1A 1_555 1_555
Ni1O N1 1_555 1_555
O4N Ni1 1_555 1_555
O4O Ni1A 1_555 1_555
C5 C6 1_555 1_555
C10 N2 1_555 1_555
C10 N3 1_555 1_555
C11 N3 1_555 1_555
C13 C19 1_555 1_555
C14 C15 1_555 1_555
C18 N1 1_555 1_555
Ni1 O1 1_555 1_555
O5 Ni1A 1_555 1_555
C5A C6A 1_555 1_555
C7A O2A 1_555 1_555
C10A N2A 1_555 1_555
C10A N3A 1_555 1_555
C11A N3A 1_555 1_555
C13A C19A 1_555 1_555
C14A C15A 1_555 1_555
C18A N1A 1_555 1_555
N2A Ni1A 1_555 1_555
Ni1A O1A 1_555 1_555

#END
