
#######################################################################
#
#                 Cambridge Crystallographic Data Centre
#                                CCDC 
#
#######################################################################
#
# If this CIF has been generated from an entry in the Cambridge 
# Structural Database, then it will include bibliographic, chemical, 
# crystal, experimental, refinement or atomic coordinate data resulting 
# from the CCDC's data processing and validation procedures.
#
#######################################################################

data_QOJYOF
_symmetry_cell_setting           monoclinic
_symmetry_space_group_name_H-M   'C 2/c'
_symmetry_Int_Tables_number      15
_space_group_name_Hall           '-C 2yn'
loop_
_symmetry_equiv_pos_site_id
_symmetry_equiv_pos_as_xyz
1 x,y,z
2 -x,y,1/2-z
3 1/2+x,1/2+y,z
4 1/2-x,1/2+y,1/2-z
5 -x,-y,-z
6 x,-y,1/2+z
7 1/2-x,1/2-y,-z
8 1/2+x,1/2-y,1/2+z
_cell_length_a                   20.233(4)
_cell_length_b                   10.901(2)
_cell_length_c                   20.355(4)
_cell_angle_alpha                90
_cell_angle_beta                 115.467(10)
_cell_angle_gamma                90
_cell_volume                     4053.27
loop_
_atom_site_label
_atom_site_type_symbol
_atom_site_fract_x
_atom_site_fract_y
_atom_site_fract_z
C1 C 0.0699(3) -0.1935(6) 0.4202(3)
H1 H 0.0303 -0.1459 0.4195
C2 C 0.1023(3) -0.2880(5) 0.4675(3)
C3 C 0.1567(3) -0.2603(5) 0.3932(3)
C4 C 0.2073(4) -0.2839(6) 0.3635(4)
H2 H 0.2053 -0.2398 0.3224
C5 C 0.2588(4) -0.3722(6) 0.3960(4)
H3 H 0.2923 -0.3925 0.3763
C6 C 0.2630(3) -0.4340(6) 0.4587(4)
H4 H 0.3012 -0.4916 0.4823
C7 C 0.2141(3) -0.4125(6) 0.4852(3)
H5 H 0.2174 -0.4543 0.5275
C8 C 0.1013(3) -0.2252(6) -0.0634(3)
C9 C 0.0691(4) -0.4198(6) 0.6444(4)
H6 H 0.0633 -0.4481 0.6858
C10 C 0.0837(4) -0.5044(6) 0.6017(4)
H7 H 0.0876 -0.5891 0.6135
C11 C 0.0724(3) -0.2607(6) 0.5721(3)
H8 H 0.0676 -0.1756 0.5610
C12 C 0.0895(3) -0.3395(5) 0.5274(3)
C13 C 0.0927(4) -0.4647(6) 0.5422(4)
H9 H 0.1011 -0.5219 0.5113
C14 C 0.1145(3) -0.0717(5) 0.1752(3)
C15 C 0.1475(3) -0.1423(5) 0.1336(3)
C16 C 0.1129(3) -0.1441(5) 0.0577(3)
H10 H 0.0703 -0.0960 0.0324
C17 C 0.1406(3) -0.2160(5) 0.0190(3)
C18 C 0.2049(3) -0.2814(5) 0.0565(3)
H11 H 0.2237 -0.3315 0.0303
C19 C 0.2419(3) -0.2743(5) 0.1316(3)
C20 C 0.2129(3) -0.2061(5) 0.1702(3)
H12 H 0.2375 -0.2028 0.2218
C21 C 0.3120(3) -0.3442(5) 0.1702(3)
N1 N 0.0626(3) -0.2987(5) 0.6295(3)
N2 N 0.1022(3) -0.1766(5) 0.3736(3)
N3 N 0.1587(3) -0.3292(4) 0.4505(3)
O1 O 0.0754(2) 0.0197(4) 0.1444(2)
O2 O 0.1260(2) -0.1102(4) 0.2378(2)
O3 O 0.3555(3) -0.3073(4) 0.2319(2)
O4 O 0.3216(2) -0.4362(4) 0.1372(2)
O5 O 0.0000 0.0484(5) 0.2500
O6 O 0.0593(2) -0.1372(4) -0.0955(2)
O7 O 0.1111(3) -0.3207(4) -0.0910(3)
O8 O 0.0000 0.2995(8) 0.2500
H13 H -0.0290 0.3489 0.2232
Zn1 Zn 0.03473(3) 0.15871(6) 0.19022(4)
Zn2 Zn 0.08949(3) -0.03478(6) 0.30722(4)
H13A H 0.0290 0.3489 0.2768
C1A C -0.0699(3) -0.1935(6) 0.0798(3)
H1A H -0.0303 -0.1459 0.0805
C2A C -0.1023(3) -0.2880(5) 0.0325(3)
C3A C -0.1567(3) -0.2603(5) 0.1068(3)
C4A C -0.2073(4) -0.2839(6) 0.1365(4)
H2A H -0.2053 -0.2398 0.1776
C5A C -0.2588(4) -0.3722(6) 0.1040(4)
H3A H -0.2923 -0.3925 0.1237
C6A C -0.2630(3) -0.4340(6) 0.0413(4)
H4A H -0.3012 -0.4916 0.0177
C7A C -0.2141(3) -0.4125(6) 0.0148(3)
H5A H -0.2174 -0.4543 -0.0275
C8A C -0.1013(3) -0.2252(6) 0.5634(3)
C9A C -0.0691(4) -0.4198(6) -0.1444(4)
H6A H -0.0633 -0.4481 -0.1858
C10A C -0.0837(4) -0.5044(6) -0.1017(4)
H7A H -0.0876 -0.5891 -0.1135
C11A C -0.0724(3) -0.2607(6) -0.0721(3)
H8A H -0.0676 -0.1756 -0.0610
C12A C -0.0895(3) -0.3395(5) -0.0274(3)
C13A C -0.0927(4) -0.4647(6) -0.0422(4)
H9A H -0.1011 -0.5219 -0.0113
C14A C -0.1145(3) -0.0717(5) 0.3248(3)
C15A C -0.1475(3) -0.1423(5) 0.3664(3)
C16A C -0.1129(3) -0.1441(5) 0.4423(3)
H10A H -0.0703 -0.0960 0.4676
C17A C -0.1406(3) -0.2160(5) 0.4810(3)
C18A C -0.2049(3) -0.2814(5) 0.4435(3)
H11A H -0.2237 -0.3315 0.4697
C19A C -0.2419(3) -0.2743(5) 0.3684(3)
C20A C -0.2129(3) -0.2061(5) 0.3298(3)
H12A H -0.2375 -0.2028 0.2782
C21A C -0.3120(3) -0.3442(5) 0.3298(3)
N1A N -0.0626(3) -0.2987(5) -0.1295(3)
N2A N -0.1022(3) -0.1766(5) 0.1264(3)
N3A N -0.1587(3) -0.3292(4) 0.0495(3)
O1A O -0.0754(2) 0.0197(4) 0.3556(2)
O2A O -0.1260(2) -0.1102(4) 0.2622(2)
O3A O -0.3555(3) -0.3073(4) 0.2681(2)
O4A O -0.3216(2) -0.4362(4) 0.3628(2)
O6A O -0.0593(2) -0.1372(4) 0.5955(2)
O7A O -0.1111(3) -0.3207(4) 0.5910(3)
Zn1A Zn -0.03473(3) 0.15871(6) 0.30978(4)
Zn2A Zn -0.08949(3) -0.03478(6) 0.19278(4)
N1D N -0.0626(3) 0.2987(5) 0.3705(3)
N1E N 0.0626(3) 0.2987(5) 0.1295(3)
O3B O -0.1445(3) 0.1927(4) 0.2319(2)
O3C O 0.1445(3) 0.1927(4) 0.2681(2)
O4B O -0.1784(2) 0.0638(4) 0.1372(2)
O4C O 0.1784(2) 0.0638(4) 0.3628(2)
O6D O -0.0593(2) 0.1372(4) 0.0955(2)
O6E O 0.0593(2) 0.1372(4) 0.4045(2)
Zn1B Zn -0.46527(3) -0.34129(6) 0.19022(4)
Zn1C Zn 0.46527(3) -0.34129(6) 0.30978(4)
Zn1D Zn -0.03473(3) -0.15871(6) -0.19022(4)
Zn1E Zn 0.03473(3) -0.15871(6) 0.69022(4)
Zn2B Zn -0.41051(3) -0.53478(6) 0.30722(4)
Zn2C Zn 0.41051(3) -0.53478(6) 0.19278(4)
O9 O 0.0722(7) 0.4896(11) 0.3064(6)
loop_
_geom_bond_atom_site_label_1
_geom_bond_atom_site_label_2
_geom_bond_site_symmetry_1
_geom_bond_site_symmetry_2
C1 H1 1_555 1_555
C2 C1 1_555 1_555
C3 C4 1_555 1_555
C4 H2 1_555 1_555
C5 C4 1_555 1_555
H3 C5 1_555 1_555
C6 C5 1_555 1_555
H4 C6 1_555 1_555
C7 C6 1_555 1_555
H5 C7 1_555 1_555
C8 C17 1_555 1_555
C9 H6 1_555 1_555
C10 C9 1_555 1_555
H7 C10 1_555 1_555
C11 H8 1_555 1_555
C12 C2 1_555 1_555
C13 C10 1_555 1_555
H9 C13 1_555 1_555
C14 C15 1_555 1_555
C15 C16 1_555 1_555
C16 H10 1_555 1_555
C17 C16 1_555 1_555
C18 C17 1_555 1_555
H11 C18 1_555 1_555
C19 C18 1_555 1_555
C20 C15 1_555 1_555
H12 C20 1_555 1_555
C21 C19 1_555 1_555
N1 C9 1_555 1_555
N2 C1 1_555 1_555
N3 C2 1_555 1_555
O1 C14 1_555 1_555
O2 C14 1_555 1_555
O3 C21 1_555 1_555
O4 C21 1_555 1_555
O5 Zn1 1_555 1_555
O6 C8 1_555 1_555
O7 C8 1_555 1_555
O8 H13 1_555 1_555
Zn1 O1 1_555 1_555
Zn2 N2 1_555 1_555
H13A O8 1_555 1_555
C1A H1A 1_555 1_555
C2A C1A 1_555 1_555
C3A C4A 1_555 1_555
C4A H2A 1_555 1_555
C5A C4A 1_555 1_555
H3A C5A 1_555 1_555
C6A C5A 1_555 1_555
H4A C6A 1_555 1_555
C7A C6A 1_555 1_555
H5A C7A 1_555 1_555
C8A C17A 1_555 1_555
C9A H6A 1_555 1_555
C10A C9A 1_555 1_555
H7A C10A 1_555 1_555
C11A H8A 1_555 1_555
C12A C2A 1_555 1_555
C13A C10A 1_555 1_555
H9A C13A 1_555 1_555
C14A C15A 1_555 1_555
C15A C16A 1_555 1_555
C16A H10A 1_555 1_555
C17A C16A 1_555 1_555
C18A C17A 1_555 1_555
H11A C18A 1_555 1_555
C19A C18A 1_555 1_555
C20A C15A 1_555 1_555
H12A C20A 1_555 1_555
C21A C19A 1_555 1_555
N1A C9A 1_555 1_555
N2A C1A 1_555 1_555
N3A C2A 1_555 1_555
O1A C14A 1_555 1_555
O2A C14A 1_555 1_555
O3A C21A 1_555 1_555
O4A C21A 1_555 1_555
O6A C8A 1_555 1_555
O7A C8A 1_555 1_555
Zn1A O5 1_555 1_555
Zn2A O5 1_555 1_555
N1D Zn1A 1_555 1_555
N1E Zn1 1_555 1_555
O3B Zn1A 1_555 1_555
O3C Zn1 1_555 1_555
O4B Zn2A 1_555 1_555
O4C Zn2 1_555 1_555
O6D Zn1 1_555 1_555
O6E Zn1A 1_555 1_555
Zn1B O3A 1_555 1_555
Zn1C O3 1_555 1_555
Zn1D O6 1_555 1_555
Zn1E N1 1_555 1_555
Zn2B O4A 1_555 1_555
Zn2C O4 1_555 1_555
C3 N2 1_555 1_555
C3 N3 1_555 1_555
C7 N3 1_555 1_555
C11 C12 1_555 1_555
C11 N1 1_555 1_555
C12 C13 1_555 1_555
C19 C20 1_555 1_555
O2 Zn2 1_555 1_555
O5 Zn2 1_555 1_555
O8 Zn1 1_555 1_555
O8 Zn1A 1_555 1_555
C3A N2A 1_555 1_555
C3A N3A 1_555 1_555
C7A N3A 1_555 1_555
C11A C12A 1_555 1_555
C11A N1A 1_555 1_555
C12A C13A 1_555 1_555
C19A C20A 1_555 1_555
N1A Zn1D 1_555 1_555
N2A Zn2A 1_555 1_555
O1A Zn1A 1_555 1_555
O2A Zn2A 1_555 1_555
O6A Zn1E 1_555 1_555

#END
