
#######################################################################
#
#                 Cambridge Crystallographic Data Centre
#                                CCDC 
#
#######################################################################
#
# If this CIF has been generated from an entry in the Cambridge 
# Structural Database, then it will include bibliographic, chemical, 
# crystal, experimental, refinement or atomic coordinate data resulting 
# from the CCDC's data processing and validation procedures.
#
#######################################################################

data_QOJYIZ
_symmetry_cell_setting           triclinic
_symmetry_space_group_name_H-M   'P -1'
_symmetry_Int_Tables_number      2
_space_group_name_Hall           '-P 1'
loop_
_symmetry_equiv_pos_site_id
_symmetry_equiv_pos_as_xyz
1 x,y,z
2 -x,-y,-z
_cell_length_a                   7.2889(4)
_cell_length_b                   9.7098(5)
_cell_length_c                   13.6547(7)
_cell_angle_alpha                95.5580(10)
_cell_angle_beta                 90.9790(10)
_cell_angle_gamma                93.6880(10)
_cell_volume                     959.595
loop_
_atom_site_label
_atom_site_type_symbol
_atom_site_fract_x
_atom_site_fract_y
_atom_site_fract_z
C1 C 0.4084(7) 0.0024(6) 0.7436(4)
H1 H 0.4039 0.0951 0.7725
C2 C 0.3382(7) -0.0445(6) 0.6525(4)
C3 C 0.4638(7) -0.2155(6) 0.7242(4)
C4 C 0.5112(7) -0.3514(6) 0.7336(4)
H2 H 0.5762 -0.3722 0.7907
C5 C 0.4631(8) -0.4535(6) 0.6600(5)
H3 H 0.4953 -0.5459 0.6651
C6 C 0.3651(8) -0.4204(6) 0.5762(4)
H4 H 0.3290 -0.4918 0.5258
C7 C 0.3218(8) -0.2888(6) 0.5664(4)
H5 H 0.2568 -0.2679 0.5094
C8 C 0.2649(7) 0.0355(6) 0.5776(4)
C9 C 0.2712(7) -0.0053(6) 0.4767(4)
H6 H 0.3219 -0.0899 0.4538
C10 C 0.2032(8) 0.0785(6) 0.4112(4)
H7 H 0.2043 0.0481 0.3430
C11 C 0.1304(8) 0.2429(6) 0.5354(4)
H8 H 0.0834 0.3300 0.5555
C12 C 0.1918(8) 0.1629(6) 0.6068(4)
H9 H 0.1844 0.1941 0.6747
C13 C 0.6644(7) 0.2212(5) 0.9555(4)
C14 C 0.7431(7) 0.3425(5) 1.0231(4)
C15 C 0.7301(7) 0.4777(5) 0.9973(4)
H10 H 0.6706 0.4926 0.9371
C16 C 0.8042(7) 0.5905(5) 1.0594(4)
C17 C 0.8951(7) 0.5675(5) 1.1464(4)
H11 H 0.9473 0.6440 1.1886
C18 C 0.9103(7) 0.4322(5) 1.1720(4)
C19 C 0.8326(7) 0.3212(5) 1.1100(4)
H12 H 0.8411 0.2294 1.1274
C20 C 1.0011(7) 0.4075(6) 1.2672(4)
C21 C 0.7854(7) 0.7364(6) 1.0333(4)
N1 N 0.3727(6) -0.1857(5) 0.6399(3)
N2 N 0.4864(6) -0.1004(5) 0.7884(3)
N3 N 0.1354(6) 0.2011(5) 0.4387(4)
O1 O 0.8898(5) -0.0350(4) 0.8418(3)
O2 O 0.6427(5) 0.1050(4) 0.9947(3)
O3 O 0.6249(6) 0.2363(4) 0.8698(3)
O4 O 1.0537(6) 0.5039(4) 1.3295(3)
O5 O 1.0153(6) 0.2773(4) 1.2797(3)
H13 H 1.0672 0.2710 1.3344
O6 O 0.8503(6) 0.8358(4) 1.0901(3)
O7 O 0.6959(5) 0.7465(4) 0.9532(3)
Zn1 Zn 0.63864(8) -0.07261(6) 0.91446(4)
O2A O 0.3573(5) -0.1050(4) 1.0053(3)
O7_2 O 0.6959(5) -0.2535(4) 0.9532(3)
Zn1_2 Zn 0.63864(8) 0.92739(6) 0.91446(4)
Zn1A Zn 0.36136(8) 0.07261(6) 1.08554(4)
O8 O 0.2868(7) 0.7386(5) 0.3238(3)
H14 H 0.2207 0.6782 0.3530
H15 H 0.3205 0.7781 0.2714
loop_
_geom_bond_atom_site_label_1
_geom_bond_atom_site_label_2
_geom_bond_site_symmetry_1
_geom_bond_site_symmetry_2
C1 H1 1_555 1_555
C2 C1 1_555 1_555
C3 C4 1_555 1_555
C4 H2 1_555 1_555
C5 C4 1_555 1_555
H3 C5 1_555 1_555
C6 C5 1_555 1_555
H4 C6 1_555 1_555
C7 C6 1_555 1_555
H5 C7 1_555 1_555
C8 C2 1_555 1_555
C9 C8 1_555 1_555
H6 C9 1_555 1_555
C10 C9 1_555 1_555
H7 C10 1_555 1_555
C11 H8 1_555 1_555
C12 C8 1_555 1_555
H9 C12 1_555 1_555
C13 C14 1_555 1_555
C14 C15 1_555 1_555
C15 H10 1_555 1_555
C16 C15 1_555 1_555
C17 C16 1_555 1_555
H11 C17 1_555 1_555
C18 C17 1_555 1_555
C19 C14 1_555 1_555
H12 C19 1_555 1_555
C20 C18 1_555 1_555
C21 C16 1_555 1_555
N1 C2 1_555 1_555
N2 C1 1_555 1_555
N3 C10 1_555 1_555
O1 Zn1 1_555 1_555
O2 C13 1_555 1_555
O3 C13 1_555 1_555
O4 C20 1_555 1_555
O5 C20 1_555 1_555
H13 O5 1_555 1_555
O6 C21 1_555 1_555
O7 C21 1_555 1_555
Zn1 N2 1_555 1_555
O8 H14 1_555 1_555
H15 O8 1_555 1_555
O2A Zn1 1_555 1_555
O7_2 Zn1 1_555 1_555
Zn1_2 O7 1_555 1_555
Zn1A O2 1_555 1_555
C3 N1 1_555 1_555
C3 N2 1_555 1_555
C7 N1 1_555 1_555
C11 C12 1_555 1_555
C11 N3 1_555 1_555
C18 C19 1_555 1_555
O2 Zn1 1_555 1_555
O2A Zn1A 1_555 1_555

#END
