
#######################################################################
#
#                 Cambridge Crystallographic Data Centre
#                                CCDC 
#
#######################################################################
#
# If this CIF has been generated from an entry in the Cambridge 
# Structural Database, then it will include bibliographic, chemical, 
# crystal, experimental, refinement or atomic coordinate data resulting 
# from the CCDC's data processing and validation procedures.
#
#######################################################################

data_QOJYEV
_symmetry_cell_setting           monoclinic
_symmetry_space_group_name_H-M   'P 21/c'
_symmetry_Int_Tables_number      14
_space_group_name_Hall           '-P 2ybc'
loop_
_symmetry_equiv_pos_site_id
_symmetry_equiv_pos_as_xyz
1 x,y,z
2 -x,1/2+y,1/2-z
3 -x,-y,-z
4 x,1/2-y,1/2+z
_cell_length_a                   7.5106(2)
_cell_length_b                   31.1959(7)
_cell_length_c                   10.5537(3)
_cell_angle_alpha                90
_cell_angle_beta                 118.658(2)
_cell_angle_gamma                90
_cell_volume                     2169.82
loop_
_atom_site_label
_atom_site_type_symbol
_atom_site_fract_x
_atom_site_fract_y
_atom_site_fract_z
C1 C 0.9536(9) 1.08703(17) 0.5248(6)
C2 C 0.8484(9) 1.04976(16) 0.4997(6)
H1 H 0.7312 1.0430 0.4112
C3 C 1.0932(8) 1.04461(17) 0.7193(6)
C4 C 1.2342(9) 1.0331(2) 0.8622(6)
H2 H 1.2270 1.0059 0.8998
C5 C 1.3797(9) 1.06157(19) 0.9444(7)
H3 H 1.4768 1.0541 1.0403
C6 C 1.3890(9) 1.10178(19) 0.8901(7)
H4 H 1.4908 1.1215 0.9506
C7 C 1.2565(9) 1.11323(18) 0.7536(7)
H5 H 1.2633 1.1408 0.7180
C8 C 0.3274(8) 0.92205(16) 0.2695(5)
C9 C 0.1958(8) 0.93404(16) 0.1275(5)
H6 H 0.2052 0.9620 0.0955
C10 C 0.0506(8) 0.90556(16) 0.0320(5)
C11 C 0.0367(8) 0.86496(16) 0.0806(6)
H7 H -0.0641 0.8456 0.0170
C12 C 0.1696(8) 0.85237(16) 0.2223(6)
C13 C 0.3174(8) 0.88064(16) 0.3157(6)
H8 H 0.4113 0.8718 0.4108
C14 C 0.4788(8) 0.95327(16) 0.3710(6)
C15 C 0.1538(9) 0.80854(17) 0.2749(6)
C16 C 1.0341(10) 1.17914(19) 0.3298(7)
H9 H 1.1434 1.1951 0.3323
C17 C 1.0772(10) 1.14618(19) 0.4251(7)
H10 H 1.2142 1.1389 0.4897
C18 C 0.9191(9) 1.12316(16) 0.4272(6)
C19 C 0.7194(9) 1.13426(18) 0.3261(6)
H11 H 0.6073 1.1192 0.3228
C20 C 0.6898(9) 1.16755(19) 0.2317(7)
H12 H 0.5545 1.1749 0.1632
C21 C -0.0939(9) 0.91875(17) -0.1203(6)
C22 C 0.5427(11) 0.7276(2) 0.6884(8)
H13 H 0.5561 0.7576 0.6808
N1 N 0.9305(7) 1.02327(13) 0.6159(5)
N2 N 1.1103(7) 1.08398(14) 0.6662(5)
N3 N 0.8418(8) 1.19006(14) 0.2316(5)
O1 O 0.6293(6) 0.93786(11) 0.4819(4)
O2 O 0.4491(5) 0.99294(11) 0.3447(4)
O3 O -0.0356(6) 0.95180(12) -0.1636(4)
O4 O -0.2511(6) 0.89870(14) -0.1934(5)
O5 O 0.2830(7) 0.79757(13) 0.4024(5)
O6 O 0.0139(7) 0.78353(12) 0.1943(4)
O7 O -0.0306(5) 0.73435(12) 0.4386(4)
H14 H -0.0323 0.7289 0.5141
H15 H -0.1223 0.7506 0.4046
O8 O 0.4009(7) 0.70919(14) 0.5810(5)
O9 O 0.6649(7) 0.71054(14) 0.8014(5)
Zn1 Zn 0.78098(9) 0.974945(18) 0.65010(6)
Zn2 Zn 0.19596(12) 0.73785(2) 0.40921(8)
N3A N 0.1582(8) 0.69006(14) 0.2684(5)
O2B O 0.5509(5) 1.00706(11) 0.6553(4)
O3_2 O 0.9644(6) 0.95180(12) 0.8364(4)
Zn1_2 Zn -0.21902(9) 0.974945(18) -0.34990(6)
Zn1B Zn 0.21902(9) 1.025055(18) 0.34990(6)
Zn2A Zn 0.80404(12) 1.23785(2) 0.09079(8)
loop_
_geom_bond_atom_site_label_1
_geom_bond_atom_site_label_2
_geom_bond_site_symmetry_1
_geom_bond_site_symmetry_2
C1 C2 1_555 1_555
C2 H1 1_555 1_555
C3 C4 1_555 1_555
C4 H2 1_555 1_555
C5 C4 1_555 1_555
H3 C5 1_555 1_555
C6 C5 1_555 1_555
H4 C6 1_555 1_555
C7 C6 1_555 1_555
H5 C7 1_555 1_555
C8 C9 1_555 1_555
C9 H6 1_555 1_555
C10 C9 1_555 1_555
C11 C10 1_555 1_555
H7 C11 1_555 1_555
C12 C11 1_555 1_555
C13 C8 1_555 1_555
H8 C13 1_555 1_555
C14 C8 1_555 1_555
C15 C12 1_555 1_555
C16 H9 1_555 1_555
C17 C16 1_555 1_555
H10 C17 1_555 1_555
C18 C1 1_555 1_555
C19 C18 1_555 1_555
H11 C19 1_555 1_555
C20 C19 1_555 1_555
H12 C20 1_555 1_555
C21 C10 1_555 1_555
C22 H13 1_555 1_555
N1 C2 1_555 1_555
N2 C1 1_555 1_555
N3 C16 1_555 1_555
O1 C14 1_555 1_555
O2 C14 1_555 1_555
O3 C21 1_555 1_555
O4 C21 1_555 1_555
O5 C15 1_555 1_555
O6 C15 1_555 1_555
O7 H14 1_555 1_555
H15 O7 1_555 1_555
O8 C22 1_555 1_555
O9 C22 1_555 1_555
Zn1 N1 1_555 1_555
Zn2 O5 1_555 1_555
N3A Zn2 1_555 1_555
O2B Zn1 1_555 1_555
O3_2 Zn1 1_555 1_555
Zn1_2 O3 1_555 1_555
Zn1B O2 1_555 1_555
Zn2A N3 1_555 1_555
C3 N1 1_555 1_555
C3 N2 1_555 1_555
C7 N2 1_555 1_555
C12 C13 1_555 1_555
C17 C18 1_555 1_555
C20 N3 1_555 1_555
O1 Zn1 1_555 1_555
O6 Zn2 1_555 1_555
O7 Zn2 1_555 1_555
O8 Zn2 1_555 1_555

#END
