
#######################################################################
#
#                 Cambridge Crystallographic Data Centre
#                                CCDC 
#
#######################################################################
#
# If this CIF has been generated from an entry in the Cambridge 
# Structural Database, then it will include bibliographic, chemical, 
# crystal, experimental, refinement or atomic coordinate data resulting 
# from the CCDC's data processing and validation procedures.
#
#######################################################################

data_QOJZIA
_symmetry_cell_setting           monoclinic
_symmetry_space_group_name_H-M   'P 21/n'
_symmetry_Int_Tables_number      14
_space_group_name_Hall           '-P 2yn'
loop_
_symmetry_equiv_pos_site_id
_symmetry_equiv_pos_as_xyz
1 x,y,z
2 1/2-x,1/2+y,1/2-z
3 -x,-y,-z
4 1/2+x,1/2-y,1/2+z
_cell_length_a                   10.4498(8)
_cell_length_b                   27.907(2)
_cell_length_c                   13.7828(11)
_cell_angle_alpha                90
_cell_angle_beta                 107.875(2)
_cell_angle_gamma                90
_cell_volume                     3825.35
loop_
_atom_site_label
_atom_site_type_symbol
_atom_site_fract_x
_atom_site_fract_y
_atom_site_fract_z
Cu1 Cu 0.94313(5) 0.06570(2) 0.60124(5)
Cu2 Cu 1.18228(6) -0.02089(2) 0.65523(5)
Cu3 Cu 1.27283(6) 0.09560(2) 0.66552(5)
O1 O 0.7559(3) 0.08498(12) 0.5250(3)
O2 O 1.1339(3) 0.04667(11) 0.6736(3)
N1 N 0.9911(4) -0.03769(15) 0.6039(3)
C1 C 0.5352(5) 0.14593(16) 0.4794(4)
H1 H 0.5612 0.1313 0.5431
N2 N 1.0006(4) 0.13205(16) 0.6075(3)
N3 N 0.8970(4) -0.00126(15) 0.5848(3)
N4 N 1.4048(4) 0.04351(18) 0.6910(3)
C2 C 0.7176(5) 0.09989(17) 0.4367(4)
N5 N 1.1337(4) 0.14398(15) 0.6302(3)
C3 C 0.6023(5) 0.13457(19) 0.4091(4)
C4 C 1.1434(6) 0.19188(18) 0.6217(4)
H2 H 1.2236 0.2087 0.6334
C5 C 0.7762(4) -0.02441(17) 0.5580(4)
H3 H 0.6929 -0.0093 0.5415
C6 C 0.3886(6) 0.2008(2) 0.3593(4)
C7 C 1.0161(7) 0.2125(2) 0.5929(5)
H4 H 0.9934 0.2447 0.5802
N6 N 1.3724(5) 0.0004(2) 0.6920(4)
C8 C 0.4308(5) 0.17864(17) 0.4560(4)
H5 H 0.3882 0.1861 0.5042
C9 C 0.7950(5) -0.0736(2) 0.5586(4)
H6 H 0.7292 -0.0973 0.5417
C10 C 0.1678(6) 0.2301(2) 0.3751(5)
H7 H 0.1657 0.2038 0.4161
C11 C 0.5645(6) 0.1576(3) 0.3155(5)
H8 H 0.6091 0.1510 0.2680
O3 O 0.8921(5) 0.0656(2) 0.7587(4)
C12 C 0.9291(5) -0.0796(2) 0.5891(4)
H9 H 0.9723 -0.1092 0.5984
C13 C 0.0670(6) 0.2633(2) 0.3572(5)
H10 H 0.0000 0.2600 0.3881
C14 C 0.9308(6) 0.17363(18) 0.5876(5)
H11 H 0.8379 0.1759 0.5724
C15 C 0.2729(7) 0.2747(3) 0.2711(5)
H12 H 0.3432 0.2794 0.2440
C16 C 0.2750(6) 0.2344(2) 0.3335(4)
O4 O 1.1995(6) -0.0477(4) 0.8307(4)
C17 C 0.1696(8) 0.3068(4) 0.2498(6)
H13 H 0.1693 0.3323 0.2061
C18 C 1.4868(6) -0.0263(3) 0.7189(5)
H14 H 1.4899 -0.0594 0.7281
C19 C 0.4589(7) 0.1909(3) 0.2925(5)
H15 H 0.4360 0.2068 0.2302
C20 C 1.5385(5) 0.0481(3) 0.7141(6)
H16 H 1.5871 0.0763 0.7187
C21 C 1.5905(6) 0.0008(4) 0.7299(6)
H17 H 1.6798 -0.0087 0.7448
O5 O 0.7623(4) 0.08834(15) 0.3642(3)
C22 C 0.0641(6) 0.3025(3) 0.2919(5)
C23 C -0.0506(6) 0.3384(2) 0.2643(5)
O6 O -0.0850(4) 0.35594(16) 0.1795(3)
O7 O -0.1015(4) 0.3485(2) 0.3354(3)
Cu2B Cu 0.81772(6) 0.02089(2) 0.34477(5)
Cu3C Cu -0.22717(6) 0.40440(2) 0.16552(5)
O5B O 1.2377(4) -0.08834(15) 0.6358(3)
O6C O 1.4150(4) 0.14406(16) 0.6795(3)
O7C O 1.3985(4) 0.1515(2) 0.8354(3)
loop_
_geom_bond_atom_site_label_1
_geom_bond_atom_site_label_2
_geom_bond_site_symmetry_1
_geom_bond_site_symmetry_2
Cu1 O1 1_555 1_555
Cu2 O2 1_555 1_555
Cu3 O2 1_555 1_555
O1 C2 1_555 1_555
O2 Cu1 1_555 1_555
N1 Cu2 1_555 1_555
C1 H1 1_555 1_555
N2 Cu1 1_555 1_555
N3 Cu1 1_555 1_555
N4 Cu3 1_555 1_555
C2 C3 1_555 1_555
N5 Cu3 1_555 1_555
C3 C1 1_555 1_555
C4 N5 1_555 1_555
H2 C4 1_555 1_555
C5 N3 1_555 1_555
H3 C5 1_555 1_555
C6 C8 1_555 1_555
C7 C4 1_555 1_555
H4 C7 1_555 1_555
N6 Cu2 1_555 1_555
C8 C1 1_555 1_555
H5 C8 1_555 1_555
C9 C5 1_555 1_555
H6 C9 1_555 1_555
C10 H7 1_555 1_555
C11 C3 1_555 1_555
H8 C11 1_555 1_555
O3 Cu1 1_555 1_555
C12 N1 1_555 1_555
H9 C12 1_555 1_555
C13 C10 1_555 1_555
H10 C13 1_555 1_555
C14 N2 1_555 1_555
H11 C14 1_555 1_555
C15 H12 1_555 1_555
C16 C6 1_555 1_555
O4 Cu2 1_555 1_555
C17 C15 1_555 1_555
H13 C17 1_555 1_555
C18 N6 1_555 1_555
H14 C18 1_555 1_555
C19 C6 1_555 1_555
H15 C19 1_555 1_555
C20 N4 1_555 1_555
H16 C20 1_555 1_555
C21 C18 1_555 1_555
H17 C21 1_555 1_555
O5 C2 1_555 1_555
C22 C13 1_555 1_555
C23 C22 1_555 1_555
O6 C23 1_555 1_555
O7 C23 1_555 1_555
Cu2B O5 1_555 1_555
Cu3C O6 1_555 1_555
O5B Cu2 1_555 1_555
O6C Cu3 1_555 1_555
O7C Cu3 1_555 1_555
N1 N3 1_555 1_555
N2 N5 1_555 1_555
N4 N6 1_555 1_555
C7 C14 1_555 1_555
C9 C12 1_555 1_555
C10 C16 1_555 1_555
C11 C19 1_555 1_555
C15 C16 1_555 1_555
C17 C22 1_555 1_555
C20 C21 1_555 1_555
O7 Cu3C 1_555 1_555

#END
