
#######################################################################
#
#                 Cambridge Crystallographic Data Centre
#                                CCDC 
#
#######################################################################
#
# If this CIF has been generated from an entry in the Cambridge 
# Structural Database, then it will include bibliographic, chemical, 
# crystal, experimental, refinement or atomic coordinate data resulting 
# from the CCDC's data processing and validation procedures.
#
#######################################################################

data_QOJZEW
_symmetry_cell_setting           monoclinic
_symmetry_space_group_name_H-M   'P 21/c'
_symmetry_Int_Tables_number      14
_space_group_name_Hall           '-P 2ybc'
loop_
_symmetry_equiv_pos_site_id
_symmetry_equiv_pos_as_xyz
1 x,y,z
2 -x,1/2+y,1/2-z
3 -x,-y,-z
4 x,1/2-y,1/2+z
_cell_length_a                   10.1258(11)
_cell_length_b                   23.350(3)
_cell_length_c                   12.4335(14)
_cell_angle_alpha                90
_cell_angle_beta                 109.325(4)
_cell_angle_gamma                90
_cell_volume                     2774.11
loop_
_atom_site_label
_atom_site_type_symbol
_atom_site_fract_x
_atom_site_fract_y
_atom_site_fract_z
Cu1 Cu 0.03361(7) 0.06035(3) 0.16374(6)
Cu2 Cu -0.25441(7) 0.14167(3) 0.05598(6)
Cu3 Cu -0.26112(7) 0.00104(3) -0.00695(6)
O1 O -0.1738(4) 0.06320(17) 0.1003(3)
O2 O 0.2380(4) 0.05685(18) 0.2411(4)
N1 N 0.0239(4) -0.0207(2) 0.1326(4)
N2 N -0.4223(5) 0.0499(2) -0.0746(4)
N3 N 0.0315(5) 0.1389(2) 0.2103(5)
N4 N -0.0995(5) -0.0453(2) 0.0636(4)
C1 C 0.4796(6) 0.1153(2) 0.4034(5)
C2 C 0.4452(5) 0.1132(3) 0.2813(5)
N5 N -0.0859(5) 0.1718(2) 0.1687(5)
C3 C 0.3367(5) 0.0717(2) 0.2068(5)
C4 C 0.1184(6) -0.0626(3) 0.1649(5)
H1 H 0.2107 -0.0575 0.2115
C5 C 0.6069(7) 0.2046(3) 0.3993(5)
N6 N -0.4220(5) 0.1047(2) -0.0455(4)
C6 C 0.5620(6) 0.1621(3) 0.4618(5)
C7 C 0.5828(8) 0.1977(4) 0.2850(6)
H2 H 0.6210 0.2232 0.2459
C8 C 0.4365(7) 0.0741(3) 0.4656(5)
H3 H 0.3813 0.0438 0.4271
C9 C -0.5494(7) 0.1283(3) -0.0980(6)
H4 H -0.5752 0.1662 -0.0933
C10 C -0.0697(7) -0.1017(3) 0.0586(6)
H5 H -0.1338 -0.1286 0.0166
C11 C 0.0618(7) -0.1141(3) 0.1205(6)
H6 H 0.1054 -0.1497 0.1312
C12 C -0.5521(6) 0.0363(4) -0.1447(5)
H7 H -0.5800 0.0004 -0.1763
C13 C 0.5949(7) 0.1649(3) 0.5831(5)
H8 H 0.6463 0.1959 0.6227
C14 C -0.6356(6) 0.0837(4) -0.1616(6)
H9 H -0.7296 0.0862 -0.2057
C15 C 0.5536(7) 0.1241(3) 0.6408(6)
H10 H 0.5779 0.1267 0.7196
C16 C 0.5001(7) 0.1518(3) 0.2275(6)
H11 H 0.4826 0.1478 0.1496
C17 C 0.1251(7) 0.1699(3) 0.2911(7)
H12 H 0.2146 0.1578 0.3339
C18 C -0.0627(7) 0.2218(3) 0.2224(7)
H13 H -0.1268 0.2517 0.2084
C19 C 0.4729(7) 0.0768(3) 0.5826(6)
H14 H 0.4452 0.0483 0.6227
C20 C 0.0673(8) 0.2231(4) 0.3007(8)
H15 H 0.1088 0.2529 0.3499
O3 O 0.3527(5) 0.0594(2) 0.1137(4)
C21 C 0.6822(8) 0.2601(3) 0.4482(7)
O4 O 0.6531(5) 0.2822(2) 0.5297(4)
O5 O 0.7614(9) 0.2813(3) 0.4041(6)
O6 O 0.456(10) 0.244(4) 0.242(8)
Cu2C Cu 0.74559(7) 0.35833(3) 0.55598(6)
Cu3B Cu 0.26112(7) -0.00104(3) 0.00695(6)
O3B O -0.3527(5) -0.0594(2) -0.1137(4)
O4C O -0.3469(5) 0.2178(2) 0.0297(4)
O5C O -0.2386(9) 0.2187(3) -0.0959(6)
O7 O 0.8034(6) 0.0481(3) 0.3059(4)
C22 C 0.8549(7) 0.0880(4) 0.3740(6)
H16 H 0.8742 0.1226 0.3456
N7 N 0.8825(6) 0.0825(3) 0.4845(5)
C23 C 0.8421(11) 0.0315(4) 0.5314(8)
H17 H 0.8135 0.0026 0.4735
H18 H 0.7659 0.0403 0.5584
H19 H 0.9202 0.0178 0.5936
C24 C 0.9478(11) 0.1302(5) 0.5606(9)
H20 H 0.9866 0.1569 0.5206
H21 H 1.0208 0.1157 0.6258
H22 H 0.8785 0.1491 0.5852
O8 O 0.261(4) 0.2271(14) 0.600(3)
C25 C 0.166(4) 0.2761(18) 0.577(3)
O9 O 0.333(2) 0.2659(10) 0.5223(18)
loop_
_geom_bond_atom_site_label_1
_geom_bond_atom_site_label_2
_geom_bond_site_symmetry_1
_geom_bond_site_symmetry_2
Cu1 O1 1_555 1_555
Cu2 O1 1_555 1_555
Cu3 O1 1_555 1_555
O2 Cu1 1_555 1_555
N1 Cu1 1_555 1_555
N2 Cu3 1_555 1_555
N3 Cu1 1_555 1_555
N4 Cu3 1_555 1_555
C1 C2 1_555 1_555
C2 C3 1_555 1_555
N5 Cu2 1_555 1_555
C3 O2 1_555 1_555
C4 N1 1_555 1_555
H1 C4 1_555 1_555
C5 C6 1_555 1_555
N6 Cu2 1_555 1_555
C6 C1 1_555 1_555
C7 C5 1_555 1_555
H2 C7 1_555 1_555
C8 C1 1_555 1_555
H3 C8 1_555 1_555
C9 N6 1_555 1_555
H4 C9 1_555 1_555
C10 N4 1_555 1_555
H5 C10 1_555 1_555
C11 C4 1_555 1_555
H6 C11 1_555 1_555
C12 N2 1_555 1_555
H7 C12 1_555 1_555
C13 C6 1_555 1_555
H8 C13 1_555 1_555
C14 C9 1_555 1_555
H9 C14 1_555 1_555
C15 C13 1_555 1_555
H10 C15 1_555 1_555
C16 C2 1_555 1_555
H11 C16 1_555 1_555
C17 N3 1_555 1_555
H12 C17 1_555 1_555
C18 N5 1_555 1_555
H13 C18 1_555 1_555
C19 C8 1_555 1_555
H14 C19 1_555 1_555
C20 C17 1_555 1_555
H15 C20 1_555 1_555
O3 C3 1_555 1_555
C21 C5 1_555 1_555
O4 C21 1_555 1_555
O5 C21 1_555 1_555
O6 C7 1_555 1_555
O7 C22 1_555 1_555
C22 H16 1_555 1_555
N7 C22 1_555 1_555
C23 N7 1_555 1_555
H17 C23 1_555 1_555
H18 C23 1_555 1_555
H19 C23 1_555 1_555
C24 N7 1_555 1_555
H20 C24 1_555 1_555
H21 C24 1_555 1_555
H22 C24 1_555 1_555
O8 C25 1_555 1_555
Cu2C O4 1_555 1_555
Cu3B O3 1_555 1_555
O3B Cu3 1_555 1_555
O4C Cu2 1_555 1_555
O5C Cu2 1_555 1_555
N1 N4 1_555 1_555
N2 N6 1_555 1_555
N3 N5 1_555 1_555
C7 C16 1_555 1_555
C10 C11 1_555 1_555
C12 C14 1_555 1_555
C15 C19 1_555 1_555
C18 C20 1_555 1_555
O5 Cu2C 1_555 1_555

#END
