
#######################################################################
#
#                 Cambridge Crystallographic Data Centre
#                                CCDC 
#
#######################################################################
#
# If this CIF has been generated from an entry in the Cambridge 
# Structural Database, then it will include bibliographic, chemical, 
# crystal, experimental, refinement or atomic coordinate data resulting 
# from the CCDC's data processing and validation procedures.
#
#######################################################################

data_QOKBID
_symmetry_cell_setting           monoclinic
_symmetry_space_group_name_H-M   'P 21/c'
_symmetry_Int_Tables_number      14
_space_group_name_Hall           '-P 2ybc'
loop_
_symmetry_equiv_pos_site_id
_symmetry_equiv_pos_as_xyz
1 x,y,z
2 -x,1/2+y,1/2-z
3 -x,-y,-z
4 x,1/2-y,1/2+z
_cell_length_a                   28.0496(19)
_cell_length_b                   15.2674(10)
_cell_length_c                   22.9741(15)
_cell_angle_alpha                90
_cell_angle_beta                 99.0030(10)
_cell_angle_gamma                90
_cell_volume                     9717.32
loop_
_atom_site_label
_atom_site_type_symbol
_atom_site_fract_x
_atom_site_fract_y
_atom_site_fract_z
C1 C -0.0876(7) 0.5009(12) 0.6696(8)
N1 N -0.0801(8) 0.5399(13) 0.6156(10)
N2 N -0.0711(8) 0.4717(19) 0.5767(7)
N3 N -0.0731(7) 0.3907(14) 0.6066(9)
N4 N -0.0833(7) 0.4088(12) 0.6640(8)
W1 W 0.31039(3) 0.47722(5) 0.92780(3)
W2 W 0.06401(3) 0.61865(6) 0.67035(4)
W3 W 0.42031(3) 0.55419(5) 0.87316(4)
W4 W 0.31479(3) 0.69932(5) 0.87012(3)
W5 W 0.17024(3) 0.55788(5) 0.60186(3)
W6 W 0.06617(3) 0.58533(6) 0.81674(4)
W7 W 0.16859(3) 0.31793(5) 0.81347(3)
W8 W 0.30487(3) 0.54792(5) 0.62421(3)
W9 W 0.41314(3) 0.38257(5) 0.77985(4)
W10 W 0.30108(3) 0.34265(5) 0.67597(3)
W11 W 0.17777(3) 0.74596(5) 0.70238(3)
W12 W 0.06023(3) 0.41362(6) 0.72329(4)
W13 W 0.41769(3) 0.58725(6) 0.72708(4)
W14 W 0.17544(3) 0.49010(5) 0.90502(3)
W15 W 0.30333(3) 0.30680(5) 0.83472(3)
W16 W 0.16633(3) 0.35400(5) 0.65473(3)
W17 W 0.31269(3) 0.73408(5) 0.72537(3)
W18 W 0.17981(3) 0.71376(5) 0.84745(3)
Ag1 Ag -0.06654(8) 0.30434(14) 0.73335(11)
Ag2 Ag 0.47857(9) 0.21162(13) 0.70016(10)
Ag3 Ag 0.37112(8) 0.41940(13) 0.54298(10)
P1 P 0.16923(15) 0.5309(3) 0.75388(18)
P2 P 0.31102(15) 0.5170(3) 0.77644(18)
O1 O 0.1019(5) 0.3843(9) 0.6703(6)
O2 O -0.0360(7) 0.3733(13) 0.8258(8)
O3 O 0.0263(5) 0.6183(10) 0.8594(7)
O4 O 0.4525(8) 0.1555(14) 0.7509(9)
O5 O 0.1618(5) 0.3702(8) 0.8873(6)
O6 O 0.1774(5) 0.3165(8) 0.7327(6)
O7 O 0.2988(5) 0.6141(8) 0.7843(5)
O8 O 0.1822(5) 0.4935(8) 0.6973(6)
O9 O 0.2901(5) 0.3055(8) 0.7516(5)
O10 O 0.4638(5) 0.5795(9) 0.9300(6)
O11 O 0.1068(5) 0.5761(9) 0.6206(6)
O12 O 0.0406(5) 0.6412(9) 0.7432(6)
O13 O 0.0351(5) 0.5069(9) 0.6708(6)
O14 O 0.2930(5) 0.4833(8) 0.7145(5)
O15 O 0.2330(5) 0.3530(9) 0.6524(6)
O16 O 0.3764(5) 0.6828(8) 0.7342(6)
O17 O 0.3146(5) 0.3557(8) 0.9117(5)
O18 O 0.1495(5) 0.2593(9) 0.6174(6)
O19 O 0.1849(5) 0.6652(8) 0.6430(6)
O20 O 0.3668(5) 0.3592(8) 0.7131(6)
O21 O 0.1042(5) 0.3575(9) 0.7818(6)
O22 O 0.1724(5) 0.7910(9) 0.8990(6)
O23 O 0.3238(5) 0.7719(8) 0.8048(6)
O24 O 0.1546(5) 0.2134(9) 0.8276(6)
O25 O 0.1885(5) 0.6093(8) 0.8922(6)
O26 O 0.3681(5) 0.3339(8) 0.8237(6)
O27 O 0.4458(5) 0.6052(9) 0.8081(6)
O28 O 0.3777(5) 0.6523(8) 0.8706(6)
O29 O 0.1639(5) 0.4910(9) 0.9755(6)
O30 O 0.2459(5) 0.7527(8) 0.7227(6)
O31 O 0.3257(5) 0.8270(9) 0.6913(6)
O32 O 0.3226(5) 0.4749(8) 1.0029(5)
O33 O 0.2467(5) 0.7223(8) 0.8528(6)
O34 O 0.4610(5) 0.6346(9) 0.6938(6)
O35 O 0.2421(5) 0.4659(8) 0.9188(5)
O36 O 0.3287(5) 0.7733(9) 0.9252(6)
O37 O 0.3121(5) 0.1988(8) 0.8511(6)
O38 O 0.0169(6) 0.3351(10) 0.7074(7)
O39 O 0.2946(4) 0.4591(8) 0.8234(5)
O40 O 0.3681(4) 0.5121(8) 0.7853(5)
O41 O 0.1587(5) 0.5917(9) 0.5298(6)
O42 O 0.1675(5) 0.8422(9) 0.6646(6)
O43 O 0.4529(6) 0.2981(10) 0.7779(7)
O44 O 0.4421(5) 0.4427(9) 0.8492(6)
O45 O 0.2370(5) 0.5363(8) 0.6076(6)
O46 O 0.0353(5) 0.4811(9) 0.7839(6)
O47 O 0.1114(5) 0.7076(8) 0.6923(6)
O48 O 0.0218(5) 0.6748(10) 0.6223(7)
O49 O 0.3116(5) 0.4230(8) 0.6151(6)
O50 O 0.2968(5) 0.6551(8) 0.6613(6)
O51 O 0.1845(5) 0.4714(8) 0.8061(5)
O52 O 0.1710(5) 0.7878(9) 0.7793(6)
O53 O 0.4411(5) 0.4702(9) 0.7348(6)
O54 O 0.3133(5) 0.5798(9) 0.5553(6)
O55 O 0.1570(5) 0.4370(9) 0.5912(6)
O56 O 0.3703(5) 0.5518(8) 0.6626(6)
O57 O 0.1091(5) 0.5182(8) 0.8674(6)
O58 O 0.3006(5) 0.5970(8) 0.9108(6)
O59 O 0.1131(5) 0.6766(8) 0.8279(6)
O60 O 0.1870(5) 0.6235(8) 0.7658(6)
O61 O 0.3740(5) 0.4953(8) 0.9108(6)
O62 O 0.3103(5) 0.2468(9) 0.6417(6)
N5 N -0.0819(11) 0.649(2) 0.7963(18)
N6 N 0.1697(12) 0.259(2) 0.4926(13)
N7 N 0.4345(7) -0.0472(15) 0.6528(10)
N8 N 0.3971(8) 0.2812(14) 0.5320(11)
N9 N 0.2014(8) 0.7172(15) 0.0220(9)
N10 N 0.3143(9) 0.4906(13) 0.4224(8)
N11 N 0.4145(7) -0.3969(12) 0.5327(11)
N12 N 0.4940(7) -0.3915(13) 0.5626(9)
N13 N 0.3073(8) 0.4282(14) 0.4591(8)
N14 N 0.2144(9) 0.4761(17) 0.1174(10)
N15 N 0.2326(11) 0.4190(15) 0.1596(11)
N16 N 0.2389(7) 0.4470(14) 0.4030(9)
N17 N 0.4436(8) 0.0109(16) 0.6955(10)
N18 N 0.4543(8) -0.3516(12) 0.5366(9)
N19 N 0.2925(9) 0.5030(14) 0.1424(9)
N20 N 0.4283(8) -0.4760(13) 0.5553(10)
N21 N 0.2724(8) 0.5018(13) 0.3893(9)
N22 N 0.2774(11) 0.4383(15) 0.1723(9)
N23 N 0.4236(7) -0.0162(15) 0.5995(10)
N24 N 0.4402(7) 0.0873(13) 0.6679(10)
N25 N 0.5118(8) -0.6740(12) 0.6593(9)
C2 C 0.4540(12) -0.2602(17) 0.5171(13)
H1 H 0.4228 -0.2453 0.4948
H2 H 0.4783 -0.2520 0.4920
C3 C 0.1957(15) 0.1955(19) 0.5211(12)
H3 H 0.1804 0.1504 0.5382
C4 C 0.2609(9) 0.4025(16) 0.4460(11)
C5 C 0.2402(11) 0.3316(15) 0.4751(10)
C6 C 0.2660(11) 0.2620(15) 0.5035(11)
H4 H 0.2995 0.2607 0.5077
C7 C 0.2502(10) 0.5267(14) 0.1082(10)
C8 C 0.2400(11) 0.7631(17) 0.0134(11)
H5 H 0.2369 0.8179 -0.0044
C9 C 0.5554(9) -0.5416(16) 0.6023(12)
H6 H 0.5700 -0.4969 0.5841
C10 C 0.4750(8) -0.4713(14) 0.5744(10)
C11 C 0.4860(9) -0.6080(14) 0.6319(10)
H7 H 0.4529 -0.6070 0.6326
C12 C 0.2478(9) 0.6051(14) 0.0700(10)
C13 C 0.4297(9) 0.0723(15) 0.6103(12)
C14 C 0.2833(12) 0.7271(19) 0.0314(10)
H8 H 0.3110 0.7556 0.0239
C15 C 0.4203(8) 0.1381(15) 0.5636(10)
C16 C 0.5060(9) -0.5403(14) 0.6022(9)
C17 C 0.2041(10) 0.6406(18) 0.0491(12)
H9 H 0.1760 0.6110 0.0538
C18 C 0.2875(9) 0.6461(16) 0.0616(9)
H10 H 0.3177 0.6223 0.0754
C19 C 0.2414(14) 0.1958(18) 0.5250(13)
H11 H 0.2587 0.1488 0.5434
C20 C 0.2638(11) 0.5597(17) 0.3398(11)
H12 H 0.2886 0.6044 0.3438
H13 H 0.2329 0.5887 0.3393
C21 C 0.2635(12) 0.511(2) 0.2817(10)
H14 H 0.2413 0.4620 0.2805
H15 H 0.2510 0.5500 0.2497
C22 C 0.3106(13) 0.4771(16) 0.2710(13)
H16 H 0.3282 0.4546 0.3076
H17 H 0.3292 0.5249 0.2580
C23 C 0.3056(12) 0.4059(17) 0.2255(12)
H18 H 0.3372 0.3880 0.2179
H19 H 0.2898 0.3554 0.2396
C24 C 0.1914(11) 0.3268(19) 0.4695(14)
H20 H 0.1727 0.3707 0.4493
C25 C 0.5834(10) -0.610(2) 0.6301(15)
H21 H 0.6165 -0.6143 0.6301
C26 C 0.5575(10) -0.6741(18) 0.6582(13)
H22 H 0.5753 -0.7199 0.6775
C27 C 0.4039(8) 0.2202(16) 0.5751(12)
H23 H 0.3974 0.2337 0.6126
C28 C 0.4300(9) 0.1177(16) 0.5099(11)
H24 H 0.4405 0.0620 0.5015
C29 C 0.4237(9) 0.1822(17) 0.4676(11)
H25 H 0.4314 0.1706 0.4304
C30 C 0.4067(9) 0.2617(16) 0.4790(11)
H26 H 0.4016 0.3035 0.4492
C31 C 0.4350(10) -0.1448(18) 0.6650(13)
H27 H 0.4662 -0.1611 0.6868
H28 H 0.4106 -0.1585 0.6891
C32 C -0.0952(9) 0.5376(16) 0.7222(14)
C33 C -0.0734(11) 0.6170(18) 0.7420(15)
H29 H -0.0540 0.6473 0.7196
C34 C -0.1233(13) 0.497(2) 0.7585(16)
H30 H -0.1390 0.4458 0.7443
C35 C -0.1302(17) 0.523(2) 0.8107(17)
H31 H -0.1479 0.4913 0.8342
C36 C -0.1093(16) 0.602(3) 0.8278(18)
H32 H -0.1145 0.6244 0.8639
C37 C -0.0631(17) 0.496(3) 0.5166(13)
H33 H -0.0745 0.5546 0.5058
H34 H -0.0777 0.4543 0.4872
C38 C -0.0061(12) 0.490(2) 0.5272(14)
H35 H 0.0079 0.5317 0.5569
H36 H 0.0047 0.4315 0.5396
C39 C 0.4658(12) -0.1971(18) 0.5776(15)
H37 H 0.4941 -0.2191 0.6031
H38 H 0.4724 -0.1376 0.5663
C40 C 0.4256(12) -0.197(2) 0.6086(18)
H39 H 0.4180 -0.2571 0.6178
H40 H 0.3977 -0.1730 0.5834
O63 O 0.2363(5) 0.3118(8) 0.8355(6)
O64 O 0.1120(5) 0.5342(8) 0.7444(6)
C1B C 0.0876(7) 0.4991(12) 0.3304(8)
N1B N 0.0801(8) 0.4601(13) 0.3844(10)
N2B N 0.0711(8) 0.5283(19) 0.4233(7)
N3B N 0.0731(7) 0.6093(14) 0.3934(9)
N4B N 0.0833(7) 0.5912(12) 0.3360(8)
N5B N 0.0819(11) 0.351(2) 0.2037(18)
C32B C 0.0952(9) 0.4624(16) 0.2778(14)
C33B C 0.0734(11) 0.3830(18) 0.2580(15)
H29B H 0.0540 0.3527 0.2804
C34B C 0.1233(13) 0.503(2) 0.2415(16)
H30B H 0.1390 0.5542 0.2557
C35B C 0.1302(17) 0.477(2) 0.1893(17)
H31B H 0.1479 0.5087 0.1658
C36B C 0.1093(16) 0.398(3) 0.1722(18)
H32B H 0.1145 0.3756 0.1361
C37B C 0.0631(17) 0.504(3) 0.4834(13)
H33B H 0.0745 0.4454 0.4942
H34B H 0.0777 0.5457 0.5128
C38B C 0.0061(12) 0.510(2) 0.4728(14)
H35B H -0.0079 0.4683 0.4431
H36B H -0.0047 0.5685 0.4604
W1B W -0.31039(3) 0.52278(5) 0.07220(3)
W2B W -0.06401(3) 0.38135(6) 0.32965(4)
W3B W -0.42031(3) 0.44581(5) 0.12684(4)
W4B W -0.31479(3) 0.30068(5) 0.12988(3)
W5B W -0.17024(3) 0.44212(5) 0.39814(3)
W6B W -0.06617(3) 0.41467(6) 0.18326(4)
W7B W -0.16859(3) 0.68207(5) 0.18653(3)
W8B W -0.30487(3) 0.45208(5) 0.37579(3)
W9B W -0.41314(3) 0.61743(5) 0.22015(4)
W10B W -0.30108(3) 0.65735(5) 0.32403(3)
W11B W -0.17777(3) 0.25404(5) 0.29762(3)
W12B W -0.06023(3) 0.58638(6) 0.27671(4)
W13B W -0.41769(3) 0.41275(6) 0.27292(4)
W14B W -0.17544(3) 0.50990(5) 0.09498(3)
W15B W -0.30333(3) 0.69320(5) 0.16528(3)
W16B W -0.16633(3) 0.64600(5) 0.34527(3)
W17B W -0.31269(3) 0.26592(5) 0.27463(3)
W18B W -0.17981(3) 0.28624(5) 0.15255(3)
Ag1B Ag 0.06654(8) 0.69566(14) 0.26665(11)
Ag2B Ag -0.47857(9) 0.78838(13) 0.29984(10)
Ag3B Ag -0.37112(8) 0.58060(13) 0.45702(10)
P1B P -0.16923(15) 0.4691(3) 0.24612(18)
P2B P -0.31102(15) 0.4830(3) 0.22356(18)
O1B O -0.1019(5) 0.6157(9) 0.3297(6)
O2B O 0.0360(7) 0.6267(13) 0.1742(8)
O3B O -0.0263(5) 0.3817(10) 0.1406(7)
O4B O -0.4525(8) 0.8445(14) 0.2491(9)
O5B O -0.1618(5) 0.6298(8) 0.1127(6)
O6B O -0.1774(5) 0.6835(8) 0.2673(6)
O7B O -0.2988(5) 0.3859(8) 0.2157(5)
O8B O -0.1822(5) 0.5065(8) 0.3027(6)
O9B O -0.2901(5) 0.6945(8) 0.2484(5)
O10B O -0.4638(5) 0.4205(9) 0.0700(6)
O11B O -0.1068(5) 0.4239(9) 0.3794(6)
O12B O -0.0406(5) 0.3588(9) 0.2568(6)
O13B O -0.0351(5) 0.4931(9) 0.3292(6)
O14B O -0.2930(5) 0.5167(8) 0.2855(5)
O15B O -0.2330(5) 0.6470(9) 0.3476(6)
O16B O -0.3764(5) 0.3172(8) 0.2658(6)
O17B O -0.3146(5) 0.6443(8) 0.0883(5)
O18B O -0.1495(5) 0.7407(9) 0.3826(6)
O19B O -0.1849(5) 0.3348(8) 0.3570(6)
O20B O -0.3668(5) 0.6408(8) 0.2869(6)
O21B O -0.1042(5) 0.6425(9) 0.2182(6)
O22B O -0.1724(5) 0.2090(9) 0.1010(6)
O23B O -0.3238(5) 0.2281(8) 0.1952(6)
O24B O -0.1546(5) 0.7866(9) 0.1724(6)
O25B O -0.1885(5) 0.3907(8) 0.1078(6)
O26B O -0.3681(5) 0.6661(8) 0.1763(6)
O27B O -0.4458(5) 0.3948(9) 0.1919(6)
O28B O -0.3777(5) 0.3477(8) 0.1294(6)
O29B O -0.1639(5) 0.5090(9) 0.0245(6)
O30B O -0.2459(5) 0.2473(8) 0.2773(6)
O31B O -0.3257(5) 0.1730(9) 0.3087(6)
O32B O -0.3226(5) 0.5251(8) -0.0029(5)
O33B O -0.2467(5) 0.2777(8) 0.1472(6)
O34B O -0.4610(5) 0.3654(9) 0.3062(6)
O35B O -0.2421(5) 0.5341(8) 0.0812(5)
O36B O -0.3287(5) 0.2267(9) 0.0748(6)
O37B O -0.3121(5) 0.8012(8) 0.1489(6)
O38B O -0.0169(6) 0.6649(10) 0.2926(7)
O39B O -0.2946(4) 0.5409(8) 0.1766(5)
O40B O -0.3681(4) 0.4879(8) 0.2147(5)
O41B O -0.1587(5) 0.4083(9) 0.4702(6)
O42B O -0.1675(5) 0.1578(9) 0.3354(6)
O43B O -0.4529(6) 0.7019(10) 0.2221(7)
O44B O -0.4421(5) 0.5573(9) 0.1508(6)
O45B O -0.2370(5) 0.4637(8) 0.3924(6)
O46B O -0.0353(5) 0.5189(9) 0.2161(6)
O47B O -0.1114(5) 0.2924(8) 0.3077(6)
O48B O -0.0218(5) 0.3252(10) 0.3777(7)
O49B O -0.3116(5) 0.5770(8) 0.3849(6)
O50B O -0.2968(5) 0.3449(8) 0.3387(6)
O51B O -0.1845(5) 0.5286(8) 0.1939(5)
O52B O -0.1710(5) 0.2122(9) 0.2207(6)
O53B O -0.4411(5) 0.5298(9) 0.2652(6)
O54B O -0.3133(5) 0.4202(9) 0.4447(6)
O55B O -0.1570(5) 0.5630(9) 0.4088(6)
O56B O -0.3703(5) 0.4482(8) 0.3374(6)
O57B O -0.1091(5) 0.4818(8) 0.1326(6)
O58B O -0.3006(5) 0.4030(8) 0.0892(6)
O59B O -0.1131(5) 0.3234(8) 0.1721(6)
O60B O -0.1870(5) 0.3765(8) 0.2342(6)
O61B O -0.3740(5) 0.5047(8) 0.0892(6)
O62B O -0.3103(5) 0.7532(9) 0.3583(6)
N6B N -0.1697(12) 0.741(2) 0.5074(13)
N7B N -0.4345(7) 1.0472(15) 0.3472(10)
N8B N -0.3971(8) 0.7188(14) 0.4680(11)
N9B N -0.2014(8) 0.2828(15) 0.9780(9)
N10B N -0.3143(9) 0.5094(13) 0.5776(8)
N11B N -0.4145(7) 1.3969(12) 0.4673(11)
N12B N -0.4940(7) 1.3915(13) 0.4374(9)
N13B N -0.3073(8) 0.5718(14) 0.5409(8)
N14B N -0.2144(9) 0.5239(17) 0.8826(10)
N15B N -0.2326(11) 0.5810(15) 0.8404(11)
N16B N -0.2389(7) 0.5530(14) 0.5970(9)
N17B N -0.4436(8) 0.9891(16) 0.3045(10)
N18B N -0.4543(8) 1.3516(12) 0.4634(9)
N19B N -0.2925(9) 0.4970(14) 0.8576(9)
N20B N -0.4283(8) 1.4760(13) 0.4447(10)
N21B N -0.2724(8) 0.4982(13) 0.6107(9)
N22B N -0.2774(11) 0.5617(15) 0.8277(9)
N23B N -0.4236(7) 1.0162(15) 0.4005(10)
N24B N -0.4402(7) 0.9127(13) 0.3321(10)
N25B N -0.5118(8) 1.6740(12) 0.3407(9)
C2B C -0.4540(12) 1.2602(17) 0.4829(13)
H1B H -0.4228 1.2453 0.5052
H2B H -0.4783 1.2520 0.5080
C3B C -0.1957(15) 0.8045(19) 0.4789(12)
H3B H -0.1804 0.8496 0.4618
C4B C -0.2609(9) 0.5975(16) 0.5540(11)
C5B C -0.2402(11) 0.6684(15) 0.5249(10)
C6B C -0.2660(11) 0.7380(15) 0.4965(11)
H4B H -0.2995 0.7393 0.4923
C7B C -0.2502(10) 0.4733(14) 0.8918(10)
C8B C -0.2400(11) 0.2369(17) 0.9866(11)
H5B H -0.2369 0.1821 1.0044
C9B C -0.5554(9) 1.5416(16) 0.3977(12)
H6B H -0.5700 1.4969 0.4159
C10B C -0.4750(8) 1.4713(14) 0.4256(10)
C11B C -0.4860(9) 1.6080(14) 0.3681(10)
H7B H -0.4529 1.6070 0.3674
C12B C -0.2478(9) 0.3949(14) 0.9300(10)
C13B C -0.4297(9) 0.9277(15) 0.3897(12)
C14B C -0.2833(12) 0.2729(19) 0.9686(10)
H8B H -0.3110 0.2444 0.9761
C15B C -0.4203(8) 0.8619(15) 0.4364(10)
C16B C -0.5060(9) 1.5403(14) 0.3978(9)
C17B C -0.2041(10) 0.3594(18) 0.9509(12)
H9B H -0.1760 0.3890 0.9462
C18B C -0.2875(9) 0.3539(16) 0.9384(9)
H10B H -0.3177 0.3777 0.9246
C19B C -0.2414(14) 0.8042(18) 0.4750(13)
H11B H -0.2587 0.8512 0.4566
C20B C -0.2638(11) 0.4403(17) 0.6602(11)
H12B H -0.2886 0.3956 0.6562
H13B H -0.2329 0.4113 0.6607
C21B C -0.2635(12) 0.489(2) 0.7183(10)
H14B H -0.2413 0.5380 0.7195
H15B H -0.2510 0.4500 0.7503
C22B C -0.3106(13) 0.5229(16) 0.7290(13)
H16B H -0.3282 0.5454 0.6924
H17B H -0.3292 0.4751 0.7420
C23B C -0.3056(12) 0.5941(17) 0.7745(12)
H18B H -0.3372 0.6120 0.7821
H19B H -0.2898 0.6446 0.7604
C24B C -0.1914(11) 0.6732(19) 0.5305(14)
H20B H -0.1727 0.6293 0.5507
C25B C -0.5834(10) 1.610(2) 0.3699(15)
H21B H -0.6165 1.6143 0.3699
C26B C -0.5575(10) 1.6741(18) 0.3418(13)
H22B H -0.5753 1.7199 0.3225
C27B C -0.4039(8) 0.7798(16) 0.4249(12)
H23B H -0.3974 0.7663 0.3874
C28B C -0.4300(9) 0.8823(16) 0.4901(11)
H24B H -0.4405 0.9380 0.4985
C29B C -0.4237(9) 0.8178(17) 0.5324(11)
H25B H -0.4314 0.8294 0.5696
C30B C -0.4067(9) 0.7383(16) 0.5210(11)
H26B H -0.4016 0.6965 0.5508
C31B C -0.4350(10) 1.1448(18) 0.3350(13)
H27B H -0.4662 1.1611 0.3132
H28B H -0.4106 1.1585 0.3109
C39B C -0.4658(12) 1.1971(18) 0.4224(15)
H37B H -0.4941 1.2191 0.3969
H38B H -0.4724 1.1376 0.4337
C40B C -0.4256(12) 1.197(2) 0.3914(18)
H39B H -0.4180 1.2571 0.3822
H40B H -0.3977 1.1730 0.4166
O63B O -0.2363(5) 0.6882(8) 0.1645(6)
O64B O -0.1120(5) 0.4658(8) 0.2556(6)
Ag1A Ag 0.06654(8) 0.80434(14) 0.76665(11)
Ag1C Ag -0.06654(8) 0.19566(14) 0.23335(11)
Ag2_2 Ag 0.47857(9) -0.78838(13) 0.70016(10)
Ag2A Ag 0.52143(9) 0.71162(13) 0.79984(10)
Ag2B_2 Ag -0.47857(9) 1.78838(13) 0.29984(10)
Ag2C Ag -0.52143(9) 0.28838(13) 0.20016(10)
Ag3_2 Ag 0.37112(8) -0.58060(13) 0.54298(10)
Ag3B_2 Ag -0.37112(8) 1.58060(13) 0.45702(10)
O12A O -0.0406(5) 0.1412(9) 0.7568(6)
O12C O 0.0406(5) 0.8588(9) 0.2432(6)
O27A O 0.5542(5) 0.1052(9) 0.6919(6)
O27C O -0.5542(5) 0.8948(9) 0.3081(6)
O47A O -0.1114(5) 0.2076(8) 0.8077(6)
O47C O 0.1114(5) 0.7924(8) 0.1923(6)
O59A O -0.1131(5) 0.1766(8) 0.6721(6)
O59C O 0.1131(5) 0.8234(8) 0.3279(6)
N20_2 N 0.4283(8) 0.5240(13) 0.5553(10)
N20B_2 N -0.4283(8) 0.4760(13) 0.4447(10)
N25_2 N 0.5118(8) 0.3260(12) 0.6593(9)
N25B_2 N -0.5118(8) 0.6740(12) 0.3407(9)
loop_
_geom_bond_atom_site_label_1
_geom_bond_atom_site_label_2
_geom_bond_site_symmetry_1
_geom_bond_site_symmetry_2
C1 N1 1_555 1_555
N1 N2 1_555 1_555
N2 N3 1_555 1_555
N3 N4 1_555 1_555
N4 C1 1_555 1_555
W1 O17 1_555 1_555
W2 O11 1_555 1_555
W3 O10 1_555 1_555
W4 O7 1_555 1_555
W5 O8 1_555 1_555
W6 O3 1_555 1_555
W7 O5 1_555 1_555
W8 O14 1_555 1_555
W9 O20 1_555 1_555
W10 O9 1_555 1_555
W11 O19 1_555 1_555
W12 O1 1_555 1_555
W13 O16 1_555 1_555
W14 O5 1_555 1_555
W15 O9 1_555 1_555
W16 O1 1_555 1_555
W17 O7 1_555 1_555
W18 O22 1_555 1_555
Ag1 N4 1_555 1_555
Ag2 O4 1_555 1_555
Ag3 O49 1_555 1_555
P1 O8 1_555 1_555
P2 O7 1_555 1_555
O2 Ag1 1_555 1_555
O6 W7 1_555 1_555
O8 W16 1_555 1_555
O11 W5 1_555 1_555
O12 W2 1_555 1_555
O13 W2 1_555 1_555
O14 W10 1_555 1_555
O15 W10 1_555 1_555
O16 W17 1_555 1_555
O17 W15 1_555 1_555
O18 W16 1_555 1_555
O19 W5 1_555 1_555
O20 W10 1_555 1_555
O21 W7 1_555 1_555
O23 W4 1_555 1_555
O24 W7 1_555 1_555
O25 W14 1_555 1_555
O26 W9 1_555 1_555
O27 W3 1_555 1_555
O28 W3 1_555 1_555
O29 W14 1_555 1_555
O30 W11 1_555 1_555
O31 W17 1_555 1_555
O32 W1 1_555 1_555
O33 W4 1_555 1_555
O34 W13 1_555 1_555
O35 W1 1_555 1_555
O36 W4 1_555 1_555
O37 W15 1_555 1_555
O38 W12 1_555 1_555
O39 W1 1_555 1_555
O40 W3 1_555 1_555
O41 W5 1_555 1_555
O42 W11 1_555 1_555
O43 W9 1_555 1_555
O44 W3 1_555 1_555
O45 W5 1_555 1_555
O46 W6 1_555 1_555
O47 W2 1_555 1_555
O48 W2 1_555 1_555
O49 W8 1_555 1_555
O50 W8 1_555 1_555
O51 W7 1_555 1_555
O52 W11 1_555 1_555
O53 W9 1_555 1_555
O54 W8 1_555 1_555
O55 W5 1_555 1_555
O56 W8 1_555 1_555
O57 W6 1_555 1_555
O58 W1 1_555 1_555
O59 W6 1_555 1_555
O60 W11 1_555 1_555
O61 W1 1_555 1_555
O62 W10 1_555 1_555
N5 C33 1_555 1_555
N6 C3 1_555 1_555
N7 N17 1_555 1_555
N8 Ag3 1_555 1_555
N9 C8 1_555 1_555
N10 N13 1_555 1_555
N11 N18 1_555 1_555
N12 N18 1_555 1_555
N13 Ag3 1_555 1_555
N14 N15 1_555 1_555
N15 N22 1_555 1_555
N16 N21 1_555 1_555
N17 N24 1_555 1_555
N18 C2 1_555 1_555
N19 N22 1_555 1_555
N20 N11 1_555 1_555
N21 N10 1_555 1_555
N22 C23 1_555 1_555
N23 N7 1_555 1_555
N24 Ag2 1_555 1_555
N25 C11 1_555 1_555
C2 H1 1_555 1_555
H2 C2 1_555 1_555
C3 H3 1_555 1_555
C4 N13 1_555 1_555
C5 C4 1_555 1_555
C6 C5 1_555 1_555
H4 C6 1_555 1_555
C7 N14 1_555 1_555
C8 H5 1_555 1_555
C9 H6 1_555 1_555
C10 N12 1_555 1_555
C11 H7 1_555 1_555
C12 C7 1_555 1_555
C13 N23 1_555 1_555
C14 C8 1_555 1_555
H8 C14 1_555 1_555
C15 C13 1_555 1_555
C16 C9 1_555 1_555
C17 N9 1_555 1_555
H9 C17 1_555 1_555
C18 C12 1_555 1_555
H10 C18 1_555 1_555
C19 C3 1_555 1_555
H11 C19 1_555 1_555
C20 N21 1_555 1_555
H12 C20 1_555 1_555
H13 C20 1_555 1_555
C21 C20 1_555 1_555
H14 C21 1_555 1_555
H15 C21 1_555 1_555
C22 C21 1_555 1_555
H16 C22 1_555 1_555
H17 C22 1_555 1_555
C23 C22 1_555 1_555
H18 C23 1_555 1_555
H19 C23 1_555 1_555
C24 N6 1_555 1_555
H20 C24 1_555 1_555
C25 C9 1_555 1_555
H21 C25 1_555 1_555
C26 N25 1_555 1_555
H22 C26 1_555 1_555
C27 N8 1_555 1_555
H23 C27 1_555 1_555
C28 C15 1_555 1_555
H24 C28 1_555 1_555
C29 C28 1_555 1_555
H25 C29 1_555 1_555
C30 N8 1_555 1_555
H26 C30 1_555 1_555
C31 N7 1_555 1_555
H27 C31 1_555 1_555
H28 C31 1_555 1_555
C32 C1 1_555 1_555
C33 C32 1_555 1_555
H29 C33 1_555 1_555
C34 C32 1_555 1_555
H30 C34 1_555 1_555
C35 C34 1_555 1_555
H31 C35 1_555 1_555
C36 N5 1_555 1_555
H32 C36 1_555 1_555
C37 N2 1_555 1_555
H33 C37 1_555 1_555
H34 C37 1_555 1_555
C38 C37 1_555 1_555
H35 C38 1_555 1_555
H36 C38 1_555 1_555
C39 C2 1_555 1_555
H37 C39 1_555 1_555
H38 C39 1_555 1_555
C40 C31 1_555 1_555
H39 C40 1_555 1_555
H40 C40 1_555 1_555
O63 W7 1_555 1_555
O64 W2 1_555 1_555
C1B N1B 1_555 1_555
N1B N2B 1_555 1_555
N2B N3B 1_555 1_555
N3B N4B 1_555 1_555
N4B C1B 1_555 1_555
N5B C33B 1_555 1_555
C32B C1B 1_555 1_555
C33B C32B 1_555 1_555
H29B C33B 1_555 1_555
C34B C32B 1_555 1_555
H30B C34B 1_555 1_555
C35B C34B 1_555 1_555
H31B C35B 1_555 1_555
C36B N5B 1_555 1_555
H32B C36B 1_555 1_555
C37B N2B 1_555 1_555
H33B C37B 1_555 1_555
H34B C37B 1_555 1_555
C38B C38 1_555 1_555
H35B C38B 1_555 1_555
H36B C38B 1_555 1_555
W1B O17B 1_555 1_555
W2B O11B 1_555 1_555
W3B O10B 1_555 1_555
W4B O7B 1_555 1_555
W5B O8B 1_555 1_555
W6B O3B 1_555 1_555
W7B O5B 1_555 1_555
W8B O14B 1_555 1_555
W9B O20B 1_555 1_555
W10B O9B 1_555 1_555
W11B O19B 1_555 1_555
W12B O1B 1_555 1_555
W13B O16B 1_555 1_555
W14B O5B 1_555 1_555
W15B O9B 1_555 1_555
W16B O1B 1_555 1_555
W17B O7B 1_555 1_555
W18B O22B 1_555 1_555
Ag1B N4B 1_555 1_555
Ag2B O4B 1_555 1_555
Ag3B O49B 1_555 1_555
P1B O8B 1_555 1_555
P2B O7B 1_555 1_555
O2B Ag1B 1_555 1_555
O6B W7B 1_555 1_555
O8B W16B 1_555 1_555
O11B W5B 1_555 1_555
O12B W2B 1_555 1_555
O13B W2B 1_555 1_555
O14B W10B 1_555 1_555
O15B W10B 1_555 1_555
O16B W17B 1_555 1_555
O17B W15B 1_555 1_555
O18B W16B 1_555 1_555
O19B W5B 1_555 1_555
O20B W10B 1_555 1_555
O21B W7B 1_555 1_555
O23B W4B 1_555 1_555
O24B W7B 1_555 1_555
O25B W14B 1_555 1_555
O26B W9B 1_555 1_555
O27B W3B 1_555 1_555
O28B W3B 1_555 1_555
O29B W14B 1_555 1_555
O30B W11B 1_555 1_555
O31B W17B 1_555 1_555
O32B W1B 1_555 1_555
O33B W4B 1_555 1_555
O34B W13B 1_555 1_555
O35B W1B 1_555 1_555
O36B W4B 1_555 1_555
O37B W15B 1_555 1_555
O38B W12B 1_555 1_555
O39B W1B 1_555 1_555
O40B W3B 1_555 1_555
O41B W5B 1_555 1_555
O42B W11B 1_555 1_555
O43B W9B 1_555 1_555
O44B W3B 1_555 1_555
O45B W5B 1_555 1_555
O46B W6B 1_555 1_555
O47B W2B 1_555 1_555
O48B W2B 1_555 1_555
O49B W8B 1_555 1_555
O50B W8B 1_555 1_555
O51B W7B 1_555 1_555
O52B W11B 1_555 1_555
O53B W9B 1_555 1_555
O54B W8B 1_555 1_555
O55B W5B 1_555 1_555
O56B W8B 1_555 1_555
O57B W6B 1_555 1_555
O58B W1B 1_555 1_555
O59B W6B 1_555 1_555
O60B W11B 1_555 1_555
O61B W1B 1_555 1_555
O62B W10B 1_555 1_555
N6B C3B 1_555 1_555
N7B N17B 1_555 1_555
N8B Ag3B 1_555 1_555
N9B C8B 1_555 1_555
N10B N13B 1_555 1_555
N11B N18B 1_555 1_555
N12B N18B 1_555 1_555
N13B Ag3B 1_555 1_555
N14B N15B 1_555 1_555
N15B N22B 1_555 1_555
N16B N21B 1_555 1_555
N17B N24B 1_555 1_555
N18B C2B 1_555 1_555
N19B N22B 1_555 1_555
N20B N11B 1_555 1_555
N21B N10B 1_555 1_555
N22B C23B 1_555 1_555
N23B N7B 1_555 1_555
N24B Ag2B 1_555 1_555
N25B C11B 1_555 1_555
C2B H1B 1_555 1_555
H2B C2B 1_555 1_555
C3B H3B 1_555 1_555
C4B N13B 1_555 1_555
C5B C4B 1_555 1_555
C6B C5B 1_555 1_555
H4B C6B 1_555 1_555
C7B N14B 1_555 1_555
C8B H5B 1_555 1_555
C9B H6B 1_555 1_555
C10B N12B 1_555 1_555
C11B H7B 1_555 1_555
C12B C7B 1_555 1_555
C13B N23B 1_555 1_555
C14B C8B 1_555 1_555
H8B C14B 1_555 1_555
C15B C13B 1_555 1_555
C16B C9B 1_555 1_555
C17B N9B 1_555 1_555
H9B C17B 1_555 1_555
C18B C12B 1_555 1_555
H10B C18B 1_555 1_555
C19B C3B 1_555 1_555
H11B C19B 1_555 1_555
C20B N21B 1_555 1_555
H12B C20B 1_555 1_555
H13B C20B 1_555 1_555
C21B C20B 1_555 1_555
H14B C21B 1_555 1_555
H15B C21B 1_555 1_555
C22B C21B 1_555 1_555
H16B C22B 1_555 1_555
H17B C22B 1_555 1_555
C23B C22B 1_555 1_555
H18B C23B 1_555 1_555
H19B C23B 1_555 1_555
C24B N6B 1_555 1_555
H20B C24B 1_555 1_555
C25B C9B 1_555 1_555
H21B C25B 1_555 1_555
C26B N25B 1_555 1_555
H22B C26B 1_555 1_555
C27B N8B 1_555 1_555
H23B C27B 1_555 1_555
C28B C15B 1_555 1_555
H24B C28B 1_555 1_555
C29B C28B 1_555 1_555
H25B C29B 1_555 1_555
C30B N8B 1_555 1_555
H26B C30B 1_555 1_555
C31B N7B 1_555 1_555
H27B C31B 1_555 1_555
H28B C31B 1_555 1_555
C39B C2B 1_555 1_555
H37B C39B 1_555 1_555
H38B C39B 1_555 1_555
C40B C31B 1_555 1_555
H39B C40B 1_555 1_555
H40B C40B 1_555 1_555
O63B W7B 1_555 1_555
O64B W2B 1_555 1_555
Ag1A O12 1_555 1_555
Ag1C O12B 1_555 1_555
Ag2_2 N25 1_555 1_555
Ag2A O27 1_555 1_555
Ag2B_2 N25B 1_555 1_555
Ag2C O27B 1_555 1_555
Ag3_2 N20 1_555 1_555
Ag3B_2 N20B 1_555 1_555
O12A Ag1 1_555 1_555
O12C Ag1B 1_555 1_555
O27A Ag2 1_555 1_555
O27C Ag2B 1_555 1_555
O47A Ag1 1_555 1_555
O47C Ag1B 1_555 1_555
O59A Ag1 1_555 1_555
O59C Ag1B 1_555 1_555
N20_2 Ag3 1_555 1_555
N20B_2 Ag3B 1_555 1_555
N25_2 Ag2 1_555 1_555
N25B_2 Ag2B 1_555 1_555
W3 O61 1_555 1_555
W4 O28 1_555 1_555
W4 O58 1_555 1_555
W6 O12 1_555 1_555
W6 O64 1_555 1_555
W8 O45 1_555 1_555
W9 O40 1_555 1_555
W9 O44 1_555 1_555
W10 O49 1_555 1_555
W11 O47 1_555 1_555
W12 O13 1_555 1_555
W12 O21 1_555 1_555
W12 O46 1_555 1_555
W12 O64 1_555 1_555
W13 O27 1_555 1_555
W13 O40 1_555 1_555
W13 O53 1_555 1_555
W13 O56 1_555 1_555
W14 O35 1_555 1_555
W14 O51 1_555 1_555
W14 O57 1_555 1_555
W15 O26 1_555 1_555
W15 O39 1_555 1_555
W15 O63 1_555 1_555
W16 O6 1_555 1_555
W16 O15 1_555 1_555
W16 O55 1_555 1_555
W17 O23 1_555 1_555
W17 O30 1_555 1_555
W17 O50 1_555 1_555
W18 O25 1_555 1_555
W18 O33 1_555 1_555
W18 O52 1_555 1_555
W18 O59 1_555 1_555
W18 O60 1_555 1_555
Ag1 O38 1_555 1_555
Ag2 O43 1_555 1_555
P1 O51 1_555 1_555
P1 O60 1_555 1_555
P1 O64 1_555 1_555
P2 O14 1_555 1_555
P2 O39 1_555 1_555
P2 O40 1_555 1_555
O47 Ag1A 1_555 1_555
O59 Ag1A 1_555 1_555
N16 C4 1_555 1_555
N19 C7 1_555 1_555
N20 C10 1_555 1_555
N24 C13 1_555 1_555
C5 C24 1_555 1_555
C6 C19 1_555 1_555
C10 C16 1_555 1_555
C11 C16 1_555 1_555
C12 C17 1_555 1_555
C14 C18 1_555 1_555
C15 C27 1_555 1_555
C25 C26 1_555 1_555
C29 C30 1_555 1_555
C35 C36 1_555 1_555
C39 C40 1_555 1_555
C35B C36B 1_555 1_555
C37B C38B 1_555 1_555
W3B O61B 1_555 1_555
W4B O28B 1_555 1_555
W4B O58B 1_555 1_555
W6B O12B 1_555 1_555
W6B O64B 1_555 1_555
W8B O45B 1_555 1_555
W9B O40B 1_555 1_555
W9B O44B 1_555 1_555
W10B O49B 1_555 1_555
W11B O47B 1_555 1_555
W12B O13B 1_555 1_555
W12B O21B 1_555 1_555
W12B O46B 1_555 1_555
W12B O64B 1_555 1_555
W13B O27B 1_555 1_555
W13B O40B 1_555 1_555
W13B O53B 1_555 1_555
W13B O56B 1_555 1_555
W14B O35B 1_555 1_555
W14B O51B 1_555 1_555
W14B O57B 1_555 1_555
W15B O26B 1_555 1_555
W15B O39B 1_555 1_555
W15B O63B 1_555 1_555
W16B O6B 1_555 1_555
W16B O15B 1_555 1_555
W16B O55B 1_555 1_555
W17B O23B 1_555 1_555
W17B O30B 1_555 1_555
W17B O50B 1_555 1_555
W18B O25B 1_555 1_555
W18B O33B 1_555 1_555
W18B O52B 1_555 1_555
W18B O59B 1_555 1_555
W18B O60B 1_555 1_555
Ag1B O38B 1_555 1_555
Ag2B O43B 1_555 1_555
P1B O51B 1_555 1_555
P1B O60B 1_555 1_555
P1B O64B 1_555 1_555
P2B O14B 1_555 1_555
P2B O39B 1_555 1_555
P2B O40B 1_555 1_555
O47B Ag1C 1_555 1_555
O59B Ag1C 1_555 1_555
N16B C4B 1_555 1_555
N19B C7B 1_555 1_555
N20B C10B 1_555 1_555
N24B C13B 1_555 1_555
C5B C24B 1_555 1_555
C6B C19B 1_555 1_555
C10B C16B 1_555 1_555
C11B C16B 1_555 1_555
C12B C17B 1_555 1_555
C14B C18B 1_555 1_555
C15B C27B 1_555 1_555
C25B C26B 1_555 1_555
C29B C30B 1_555 1_555
C39B C40B 1_555 1_555

#END
