
#######################################################################
#
#                 Cambridge Crystallographic Data Centre
#                                CCDC 
#
#######################################################################
#
# If this CIF has been generated from an entry in the Cambridge 
# Structural Database, then it will include bibliographic, chemical, 
# crystal, experimental, refinement or atomic coordinate data resulting 
# from the CCDC's data processing and validation procedures.
#
#######################################################################

data_QOKBEZ
_symmetry_cell_setting           monoclinic
_symmetry_space_group_name_H-M   'C 2/c'
_symmetry_Int_Tables_number      15
_space_group_name_Hall           '-C 2yn'
loop_
_symmetry_equiv_pos_site_id
_symmetry_equiv_pos_as_xyz
1 x,y,z
2 -x,y,1/2-z
3 1/2+x,1/2+y,z
4 1/2-x,1/2+y,1/2-z
5 -x,-y,-z
6 x,-y,1/2+z
7 1/2-x,1/2-y,-z
8 1/2+x,1/2-y,1/2+z
_cell_length_a                   21.7793(15)
_cell_length_b                   24.0089(15)
_cell_length_c                   13.1613(8)
_cell_angle_alpha                90
_cell_angle_beta                 99.0040(10)
_cell_angle_gamma                90
_cell_volume                     6797.2
loop_
_atom_site_label
_atom_site_type_symbol
_atom_site_fract_x
_atom_site_fract_y
_atom_site_fract_z
Ag1 Ag -0.33585(4) 1.33512(3) -0.56178(7)
N1 N -0.3611(3) 1.0966(3) -0.6168(6)
C1 C -0.3832(4) 1.2150(3) -0.5573(7)
H1 H -0.3549 1.2092 -0.6024
C2 C -0.4171(4) 1.1702(3) -0.5292(6)
Ag2 Ag -0.26600(4) 1.11543(3) -0.66660(8)
N2 N -0.3707(4) 1.0428(3) -0.6371(6)
C3 C -0.4599(4) 1.1793(4) -0.4640(8)
H2 H -0.4834 1.1500 -0.4444
N3 N -0.4213(3) 1.0303(3) -0.6009(6)
C4 C -0.4674(4) 1.2325(4) -0.4284(8)
H3 H -0.4964 1.2399 -0.3853
N4 N -0.4468(3) 1.0723(3) -0.5573(6)
C5 C -0.4309(4) 1.2746(4) -0.4582(8)
H4 H -0.4353 1.3102 -0.4326
N5 N -0.3900(4) 1.2666(3) -0.5214(6)
C6 C -0.4080(4) 1.1140(3) -0.5688(6)
N6 N -0.2885(4) 1.4046(3) -0.6168(6)
C7 C -0.3221(4) 1.4447(4) -0.6709(7)
H5 H -0.3646 1.4459 -0.6691
N7 N -0.4001(3) 1.5162(3) -0.8119(6)
C8 C -0.2970(4) 1.4842(3) -0.7291(6)
N8 N -0.4164(4) 1.5566(3) -0.8795(6)
C9 C -0.2331(4) 1.4835(4) -0.7262(7)
H6 H -0.2140 1.5098 -0.7628
N9 N -0.3707(4) 1.5864(3) -0.9019(6)
C10 C -0.1978(4) 1.4433(4) -0.6682(8)
H7 H -0.1549 1.4425 -0.6646
N10 N -0.3200(3) 1.5657(3) -0.8474(5)
C11 C -0.2273(5) 1.4046(4) -0.6162(7)
H8 H -0.2036 1.3772 -0.5788
C12 C -0.3382(4) 1.5222(3) -0.7932(7)
C13 C -0.4815(5) 1.5672(4) -0.9209(9)
H9 H -0.4837 1.5933 -0.9777
H10 H -0.5016 1.5843 -0.8680
C14 C -0.5159(4) 1.5143(4) -0.9581(9)
H11 H -0.5586 1.5232 -0.9861
H12 H -0.5161 1.4891 -0.9006
C15 C -0.4507(5) 0.9751(4) -0.6123(8)
H13 H -0.4630 0.9642 -0.5475
H14 H -0.4207 0.9481 -0.6291
C16 C -0.5074(5) 0.9748(4) -0.6959(8)
H15 H -0.5321 0.9420 -0.6869
H16 H -0.5325 1.0072 -0.6871
N1A N -0.6389(3) 1.0966(3) -0.8832(6)
C1A C -0.6168(4) 1.2150(3) -0.9427(7)
H1A H -0.6451 1.2092 -0.8976
C2A C -0.5829(4) 1.1702(3) -0.9708(6)
N2A N -0.6293(4) 1.0428(3) -0.8629(6)
C3A C -0.5401(4) 1.1793(4) -1.0360(8)
H2A H -0.5166 1.1500 -1.0556
N3A N -0.5787(3) 1.0303(3) -0.8991(6)
C4A C -0.5326(4) 1.2325(4) -1.0716(8)
H3A H -0.5036 1.2399 -1.1147
N4A N -0.5532(3) 1.0723(3) -0.9427(6)
C5A C -0.5691(4) 1.2746(4) -1.0418(8)
H4A H -0.5647 1.3102 -1.0674
N5A N -0.6100(4) 1.2666(3) -0.9786(6)
C6A C -0.5920(4) 1.1140(3) -0.9312(6)
C15A C -0.5493(5) 0.9751(4) -0.8877(8)
H13A H -0.5370 0.9642 -0.9525
H14A H -0.5793 0.9481 -0.8709
C16A C -0.4926(5) 0.9748(4) -0.8041(8)
H15A H -0.4679 0.9420 -0.8131
H16A H -0.4675 1.0072 -0.8129
N6D N -0.7115(4) 1.5954(3) -1.3832(6)
C7D C -0.6779(4) 1.5553(4) -1.3291(7)
H5D H -0.6354 1.5541 -1.3309
N7D N -0.5999(3) 1.4838(3) -1.1881(6)
C8D C -0.7030(4) 1.5158(3) -1.2709(6)
N8D N -0.5836(4) 1.4434(3) -1.1205(6)
C9D C -0.7669(4) 1.5165(4) -1.2738(7)
H6D H -0.7860 1.4902 -1.2372
N9D N -0.6293(4) 1.4136(3) -1.0981(6)
C10D C -0.8022(4) 1.5567(4) -1.3318(8)
H7D H -0.8451 1.5575 -1.3354
N10D N -0.6800(3) 1.4343(3) -1.1526(5)
C11D C -0.7727(5) 1.5954(4) -1.3838(7)
H8D H -0.7964 1.6228 -1.4212
C12D C -0.6618(4) 1.4778(3) -1.2068(7)
C13D C -0.5185(5) 1.4328(4) -1.0791(9)
H9D H -0.5163 1.4067 -1.0223
H10D H -0.4984 1.4157 -1.1320
C14D C -0.4841(4) 1.4857(4) -1.0419(9)
H11D H -0.4414 1.4768 -1.0139
H12D H -0.4839 1.5109 -1.0994
Ag1A Ag -0.66415(4) 1.33512(3) -0.93822(7)
Ag2A Ag -0.73400(4) 1.11543(3) -0.83340(8)
Ag1D Ag -0.66415(4) 1.66488(3) -1.43822(7)
Ag2C Ag -0.23400(4) 1.61543(3) -0.83340(8)
Ag2G Ag -0.76600(4) 1.38457(3) -1.16660(8)
N6A N -0.7115(4) 1.4046(3) -0.8832(6)
N10B N -0.8200(3) 1.0657(3) -0.8474(5)
N10C N -0.1800(3) 1.0657(3) -0.6526(5)
O23 O -0.4546(11) 1.3823(11) -0.6553(17)
H17 H -0.4831 1.3594 -0.6461
H18 H -0.4427 1.3740 -0.7119
P1 P -0.2500 1.2500 -1.0000
Mo1 Mo -0.36397(4) 1.17444(4) -0.88877(7)
O1 O -0.2111(5) 1.2504(4) -1.0820(7)
Mo2 Mo -0.24488(4) 1.25088(4) -0.73144(6)
O2 O -0.2091(5) 1.3033(4) -0.9962(8)
Mo3 Mo -0.24974(6) 1.39907(3) -0.99763(9)
O3 O -0.2076(5) 1.1990(4) -0.9965(8)
Mo4 Mo -0.13114(4) 1.17578(3) -0.84033(7)
O4 O -0.2077(4) 1.2490(4) -0.8910(7)
Mo5 Mo -0.13133(4) 1.32313(4) -0.84008(8)
O5 O -0.3044(3) 1.1917(3) -0.7708(6)
Mo6 Mo -0.36535(5) 1.32369(4) -0.89030(7)
O6 O -0.3080(4) 1.3018(3) -0.7710(6)
O7 O -0.1936(6) 1.3040(5) -0.7733(10)
O8 O -0.1831(4) 1.1941(3) -0.7479(8)
O9 O -0.3062(5) 1.1154(5) -0.9131(6)
O10 O -0.3944(4) 1.2474(3) -0.8879(7)
O11 O -0.3105(5) 1.3810(4) -0.9092(6)
O12 O -0.1888(4) 1.3825(4) -0.8854(7)
O13 O -0.0917(6) 1.2491(5) -0.8050(11)
O14 O -0.1839(4) 1.1177(4) -0.8923(5)
O15 O -0.3947(5) 1.1688(5) -1.0308(6)
O16 O -0.4162(4) 1.1386(4) -0.8372(8)
O17 O -0.4187(5) 1.3564(5) -0.8381(9)
O18 O -0.2520(5) 1.4676(3) -0.9937(6)
O19 O -0.0763(3) 1.3582(3) -0.7666(5)
O20 O -0.1016(5) 1.1754(4) -0.9719(6)
O21 O -0.0739(3) 1.1421(3) -0.7697(5)
O22 O -0.2428(4) 1.2495(3) -0.6057(5)
O1F O -0.2889(5) 1.2496(4) -0.9180(7)
O2F O -0.2909(5) 1.1967(4) -1.0038(8)
O3F O -0.2924(5) 1.3010(4) -1.0035(8)
O4F O -0.2923(4) 1.2510(4) -1.1090(7)
Mo1F Mo -0.13603(4) 1.32556(4) -1.11123(7)
Mo2F Mo -0.25512(4) 1.24912(4) -1.26856(6)
Mo3F Mo -0.25026(6) 1.10093(3) -1.00237(9)
Mo4F Mo -0.36886(4) 1.32422(3) -1.15967(7)
Mo5F Mo -0.36867(4) 1.17687(4) -1.15992(8)
O5F O -0.1956(3) 1.3083(3) -1.2292(6)
Mo6F Mo -0.13465(5) 1.17631(4) -1.10970(7)
O6F O -0.1920(4) 1.1982(3) -1.2290(6)
O7F O -0.3064(6) 1.1960(5) -1.2267(10)
O8F O -0.3169(4) 1.3059(3) -1.2521(8)
O9F O -0.1938(5) 1.3846(5) -1.0869(6)
O10F O -0.1056(4) 1.2526(3) -1.1121(7)
O11F O -0.1895(5) 1.1190(4) -1.0908(6)
O12F O -0.3112(4) 1.1175(4) -1.1146(7)
O13F O -0.4083(6) 1.2509(5) -1.1950(11)
O14F O -0.3161(4) 1.3823(4) -1.1077(5)
O15F O -0.1053(5) 1.3312(5) -0.9692(6)
O16F O -0.0838(4) 1.3614(4) -1.1628(8)
O17F O -0.0813(5) 1.1436(5) -1.1619(9)
O18F O -0.2480(5) 1.0324(3) -1.0063(6)
O19F O -0.4237(3) 1.1418(3) -1.2334(5)
O20F O -0.3984(5) 1.3246(4) -1.0281(6)
O21F O -0.4261(3) 1.3579(3) -1.2303(5)
O22F O -0.2572(4) 1.2505(3) -1.3943(5)
O24? O -0.1767(6) 1.3032(5) -0.7194(10)
O25? O -0.281(2) 1.395(2) -0.968(3)
O26? O -0.1095(6) 1.2523(5) -0.8542(11)
loop_
_geom_bond_atom_site_label_1
_geom_bond_atom_site_label_2
_geom_bond_site_symmetry_1
_geom_bond_site_symmetry_2
P1 O1 1_555 1_555
Mo1 O5 1_555 1_555
O1 O2 1_555 1_555
Mo2 O4 1_555 1_555
O2 P1 1_555 1_555
Mo3 O2 1_555 1_555
O3 P1 1_555 1_555
Mo4 O3 1_555 1_555
O4 P1 1_555 1_555
Mo5 O2 1_555 1_555
O5 Mo2 1_555 1_555
Mo6 O6 1_555 1_555
O6 Mo2 1_555 1_555
O7 Mo2 1_555 1_555
O8 Mo2 1_555 1_555
O9 Mo1 1_555 1_555
O10 Mo1 1_555 1_555
O11 Mo3 1_555 1_555
O12 Mo3 1_555 1_555
O13 Mo4 1_555 1_555
O14 Mo4 1_555 1_555
O15 Mo1 1_555 1_555
O16 Mo1 1_555 1_555
O17 Mo6 1_555 1_555
O18 Mo3 1_555 1_555
O19 Mo5 1_555 1_555
O20 Mo4 1_555 1_555
O21 Mo4 1_555 1_555
O22 Mo2 1_555 1_555
Ag1 N5 1_555 1_555
N1 Ag2 1_555 1_555
C1 H1 1_555 1_555
C2 C1 1_555 1_555
Ag2 N10C 1_555 1_555
N2 N1 1_555 1_555
C3 C2 1_555 1_555
H2 C3 1_555 1_555
N3 N2 1_555 1_555
C4 C3 1_555 1_555
H3 C4 1_555 1_555
N4 N3 1_555 1_555
C5 C4 1_555 1_555
H4 C5 1_555 1_555
N5 C1 1_555 1_555
C6 N1 1_555 1_555
N6 Ag1 1_555 1_555
C7 N6 1_555 1_555
H5 C7 1_555 1_555
N7 N8 1_555 1_555
C8 C7 1_555 1_555
N8 N9 1_555 1_555
C9 C8 1_555 1_555
H6 C9 1_555 1_555
N9 N10 1_555 1_555
C10 C9 1_555 1_555
H7 C10 1_555 1_555
N10 C12 1_555 1_555
C11 N6 1_555 1_555
H8 C11 1_555 1_555
C12 N7 1_555 1_555
C13 N8 1_555 1_555
H9 C13 1_555 1_555
H10 C13 1_555 1_555
C14 C13 1_555 1_555
H11 C14 1_555 1_555
H12 C14 1_555 1_555
C15 N3 1_555 1_555
H13 C15 1_555 1_555
H14 C15 1_555 1_555
C16 C15 1_555 1_555
H15 C16 1_555 1_555
H16 C16 1_555 1_555
O23 H17 1_555 1_555
H18 O23 1_555 1_555
O1F P1 1_555 1_555
O2F P1 1_555 1_555
O3F P1 1_555 1_555
O4F P1 1_555 1_555
Mo1F O1 1_555 1_555
Mo2F O1 1_555 1_555
Mo3F O3 1_555 1_555
Mo4F O3F 1_555 1_555
Mo5F O15 1_555 1_555
O5F Mo1F 1_555 1_555
Mo6F O1 1_555 1_555
O6F Mo2F 1_555 1_555
O7F Mo2F 1_555 1_555
O8F Mo2F 1_555 1_555
O9F Mo3 1_555 1_555
O10F Mo1F 1_555 1_555
O11F Mo3F 1_555 1_555
O12F Mo3F 1_555 1_555
O13F Mo4F 1_555 1_555
O14F Mo3 1_555 1_555
O15F Mo5 1_555 1_555
O16F Mo1F 1_555 1_555
O17F Mo6F 1_555 1_555
O18F Mo3F 1_555 1_555
O19F Mo5F 1_555 1_555
O20F Mo6 1_555 1_555
O21F Mo4F 1_555 1_555
O22F Mo2F 1_555 1_555
N1A N2A 1_555 1_555
C1A H1A 1_555 1_555
C2A C1A 1_555 1_555
N2A N3A 1_555 1_555
C3A C2A 1_555 1_555
H2A C3A 1_555 1_555
N3A N4A 1_555 1_555
C4A C3A 1_555 1_555
H3A C4A 1_555 1_555
N4A C6A 1_555 1_555
C5A C4A 1_555 1_555
H4A C5A 1_555 1_555
N5A C1A 1_555 1_555
C6A N1A 1_555 1_555
C15A N3A 1_555 1_555
H13A C15A 1_555 1_555
H14A C15A 1_555 1_555
C16A C16 1_555 1_555
H15A C16A 1_555 1_555
H16A C16A 1_555 1_555
N6D C7D 1_555 1_555
C7D H5D 1_555 1_555
N7D N8D 1_555 1_555
C8D C7D 1_555 1_555
N8D N9D 1_555 1_555
C9D C8D 1_555 1_555
H6D C9D 1_555 1_555
N9D N10D 1_555 1_555
C10D C9D 1_555 1_555
H7D C10D 1_555 1_555
N10D C12D 1_555 1_555
C11D N6D 1_555 1_555
H8D C11D 1_555 1_555
C12D N7D 1_555 1_555
C13D N8D 1_555 1_555
H9D C13D 1_555 1_555
H10D C13D 1_555 1_555
C14D C14 1_555 1_555
H11D C14D 1_555 1_555
H12D C14D 1_555 1_555
Ag1A N5A 1_555 1_555
Ag2A N1A 1_555 1_555
Ag1D N6D 1_555 1_555
Ag2C N10 1_555 1_555
Ag2G N10D 1_555 1_555
N6A Ag1A 1_555 1_555
N10B Ag2A 1_555 1_555
Mo1 O1F 1_555 1_555
Mo1 O2F 1_555 1_555
O1 O3 1_555 1_555
O1 O4F 1_555 1_555
Mo2 O1F 1_555 1_555
O2 O3F 1_555 1_555
O2 Mo1F 1_555 1_555
Mo3 O3F 1_555 1_555
O3 O2F 1_555 1_555
O3 Mo6F 1_555 1_555
Mo4 O4 1_555 1_555
Mo4 O8 1_555 1_555
O4 Mo5 1_555 1_555
O4 O1F 1_555 1_555
Mo5 O7 1_555 1_555
Mo5 O12 1_555 1_555
Mo5 O13 1_555 1_555
Mo6 O10 1_555 1_555
Mo6 O11 1_555 1_555
Mo6 O1F 1_555 1_555
Mo6 O3F 1_555 1_555
O9 Mo3F 1_555 1_555
O14 Mo3F 1_555 1_555
O20 Mo6F 1_555 1_555
C2 C6 1_555 1_555
N4 C6 1_555 1_555
C5 N5 1_555 1_555
C8 C12 1_555 1_555
C10 C11 1_555 1_555
O1F O2F 1_555 1_555
O1F O3F 1_555 1_555
O2F Mo3F 1_555 1_555
O2F Mo5F 1_555 1_555
O4F Mo2F 1_555 1_555
O4F Mo4F 1_555 1_555
O4F Mo5F 1_555 1_555
Mo1F O9F 1_555 1_555
Mo1F O15F 1_555 1_555
Mo2F O5F 1_555 1_555
Mo4F O8F 1_555 1_555
Mo4F O14F 1_555 1_555
Mo4F O20F 1_555 1_555
Mo5F O7F 1_555 1_555
Mo5F O12F 1_555 1_555
Mo5F O13F 1_555 1_555
Mo6F O6F 1_555 1_555
Mo6F O10F 1_555 1_555
Mo6F O11F 1_555 1_555
C2A C6A 1_555 1_555
C5A N5A 1_555 1_555
C15A C16A 1_555 1_555
C8D C12D 1_555 1_555
C10D C11D 1_555 1_555
C13D C14D 1_555 1_555

#END
