
#######################################################################
#
#                 Cambridge Crystallographic Data Centre
#                                CCDC 
#
#######################################################################
#
# If this CIF has been generated from an entry in the Cambridge 
# Structural Database, then it will include bibliographic, chemical, 
# crystal, experimental, refinement or atomic coordinate data resulting 
# from the CCDC's data processing and validation procedures.
#
#######################################################################

data_QOKBUO
_symmetry_cell_setting           monoclinic
_symmetry_space_group_name_H-M   'C 2/c'
_symmetry_Int_Tables_number      15
_space_group_name_Hall           '-C 2yn'
loop_
_symmetry_equiv_pos_site_id
_symmetry_equiv_pos_as_xyz
1 x,y,z
2 1/2+x,1/2+y,z
3 -x,y,1/2-z
4 1/2-x,1/2+y,1/2-z
5 -x,-y,-z
6 1/2-x,1/2-y,-z
7 x,-y,1/2+z
8 1/2+x,1/2-y,1/2+z
_cell_length_a                   20.282(4)
_cell_length_b                   15.220(3)
_cell_length_c                   7.9736(17)
_cell_angle_alpha                90
_cell_angle_beta                 106.461(3)
_cell_angle_gamma                90
_cell_volume                     2360.5
loop_
_atom_site_label
_atom_site_type_symbol
_atom_site_fract_x
_atom_site_fract_y
_atom_site_fract_z
C1 C 0.14679(11) 0.19153(15) -0.2618(3)
C2 C 0.16633(11) 0.25659(14) -0.3803(3)
C3 C 0.22228(11) 0.31148(15) -0.3131(3)
H1 H 0.2504 0.3046 -0.1948
C4 C 0.23746(10) 0.37575(15) -0.4184(3)
C5 C 0.29789(11) 0.43666(16) -0.3537(3)
C6 C 0.19737(11) 0.38491(16) -0.5914(3)
H2 H 0.2075 0.4304 -0.6637
C7 C 0.14344(12) 0.32809(15) -0.6577(3)
C8 C 0.12741(10) 0.26392(16) -0.5517(3)
H3 H 0.0892 0.2252 -0.5975
C9 C 0.11580(14) 0.39617(18) -0.9397(4)
H4 H 0.1211 0.4525 -0.8834
H5 H 0.1572 0.3825 -0.9698
C10 C 0.05584(14) 0.39745(15) -1.1001(3)
C11 C 0.06579(14) 0.39869(17) -1.2633(3)
H6 H 0.1118 0.4002 -1.2739
C12 C -0.01040(15) 0.39845(19) -1.0876(4)
H7 H -0.0265 0.3997 -0.9854
Co1 Co 0.123899(15) 0.086919(19) -0.04331(4)
O1 O 0.17776(9) 0.19254(12) -0.1034(2)
O2 O 0.09822(8) 0.13720(11) -0.3216(2)
O3 O 0.04338(9) 0.17009(12) -0.0099(3)
H8 H 0.0559 0.2264 0.0401
H9 H -0.0017 0.1676 -0.0857
O4 O 0.05407(9) -0.01598(11) -0.0855(3)
H10 H 0.0699 -0.0604 -0.0004
H11 H 0.0575 -0.0396 -0.1932
O5 O 0.34466(9) 0.41609(11) -0.2207(2)
O6 O 0.10188(9) 0.33052(11) -0.8260(2)
O7 O 0.29871(9) 0.50260(12) -0.4460(3)
C1B C -0.14679(11) 0.19153(15) -2.2382(3)
C2B C -0.16633(11) 0.25659(14) -2.1197(3)
C3B C -0.22228(11) 0.31148(15) -2.1869(3)
H1B H -0.2504 0.3046 -2.3052
C4B C -0.23746(10) 0.37575(15) -2.0816(3)
C5B C -0.29789(11) 0.43666(16) -2.1463(3)
C6B C -0.19737(11) 0.38491(16) -1.9086(3)
H2B H -0.2075 0.4304 -1.8363
C7B C -0.14344(12) 0.32809(15) -1.8423(3)
C8B C -0.12741(10) 0.26392(16) -1.9483(3)
H3B H -0.0892 0.2252 -1.9025
C9B C -0.11580(14) 0.39617(18) -1.5603(4)
H4B H -0.1211 0.4525 -1.6166
H5B H -0.1572 0.3825 -1.5302
C10B C -0.05584(14) 0.39745(15) -1.3999(3)
C11B C -0.06579(14) 0.39869(17) -1.2367(3)
H6B H -0.1118 0.4002 -1.2261
C12B C 0.01040(15) 0.39845(19) -1.4124(4)
H7B H 0.0265 0.3997 -1.5146
Co1B Co -0.123899(15) 0.086919(19) -2.45669(4)
Co1E Co 0.376101(15) 0.413081(19) 0.04331(4)
Co1C Co 0.376101(15) 0.586919(19) -0.45669(4)
Co1G Co -0.376101(15) 0.413081(19) -2.54331(4)
Co1A Co -0.376101(15) 0.586919(19) -2.04331(4)
O1B O -0.17776(9) 0.19254(12) -2.3966(2)
O2B O -0.09822(8) 0.13720(11) -2.1784(2)
O3B O -0.04338(9) 0.17009(12) -2.4901(3)
H8B H -0.0559 0.2264 -2.5401
H9B H 0.0017 0.1676 -2.4143
O4B O -0.05407(9) -0.01598(11) -2.4145(3)
H10B H -0.0699 -0.0604 -2.4996
H11B H -0.0575 -0.0396 -2.3068
O5B O -0.34466(9) 0.41609(11) -2.2793(2)
O5E O 0.15534(9) 0.08391(11) 0.2207(2)
O5G O -0.15534(9) 0.08391(11) -2.7207(2)
O6B O -0.10188(9) 0.33052(11) -1.6740(2)
O7B O -0.29871(9) 0.50260(12) -2.0540(3)
O7C O 0.20129(9) 0.00260(12) -0.0540(3)
O7A O -0.20129(9) 0.00260(12) -2.4460(3)
loop_
_geom_bond_atom_site_label_1
_geom_bond_atom_site_label_2
_geom_bond_site_symmetry_1
_geom_bond_site_symmetry_2
C1 C2 1_555 1_555
C2 C3 1_555 1_555
C3 H1 1_555 1_555
C4 C3 1_555 1_555
C5 C4 1_555 1_555
C6 C4 1_555 1_555
H2 C6 1_555 1_555
C7 C6 1_555 1_555
C8 C2 1_555 1_555
H3 C8 1_555 1_555
C9 H4 1_555 1_555
H5 C9 1_555 1_555
C10 C9 1_555 1_555
C11 C10 1_555 1_555
H6 C11 1_555 1_555
C12 C10 1_555 1_555
H7 C12 1_555 1_555
Co1 O1 1_555 1_555
O1 C1 1_555 1_555
O2 C1 1_555 1_555
O3 Co1 1_555 1_555
H8 O3 1_555 1_555
H9 O3 1_555 1_555
O4 Co1 1_555 1_555
H10 O4 1_555 1_555
H11 O4 1_555 1_555
O5 C5 1_555 1_555
O6 C7 1_555 1_555
O7 C5 1_555 1_555
C1B C2B 1_555 1_555
C2B C3B 1_555 1_555
C3B H1B 1_555 1_555
C4B C3B 1_555 1_555
C5B C4B 1_555 1_555
C6B C4B 1_555 1_555
H2B C6B 1_555 1_555
C7B C6B 1_555 1_555
C8B C2B 1_555 1_555
H3B C8B 1_555 1_555
C9B H4B 1_555 1_555
H5B C9B 1_555 1_555
C10B C9B 1_555 1_555
C11B C12 1_555 1_555
H6B C11B 1_555 1_555
C12B C11 1_555 1_555
H7B C12B 1_555 1_555
Co1B O1B 1_555 1_555
Co1E O5 1_555 1_555
Co1C O7 1_555 1_555
Co1G O5B 1_555 1_555
Co1A O7B 1_555 1_555
O1B C1B 1_555 1_555
O2B C1B 1_555 1_555
O3B Co1B 1_555 1_555
H8B O3B 1_555 1_555
H9B O3B 1_555 1_555
O4B Co1B 1_555 1_555
H10B O4B 1_555 1_555
H11B O4B 1_555 1_555
O5B C5B 1_555 1_555
O5E Co1 1_555 1_555
O5G Co1B 1_555 1_555
O6B C7B 1_555 1_555
O7B C5B 1_555 1_555
O7C Co1 1_555 1_555
O7A Co1B 1_555 1_555
C7 C8 1_555 1_555
C9 O6 1_555 1_555
Co1 O2 1_555 1_555
C7B C8B 1_555 1_555
C9B O6B 1_555 1_555
C10B C11B 1_555 1_555
C10B C12B 1_555 1_555
Co1B O2B 1_555 1_555

#END
