
#######################################################################
#
#                 Cambridge Crystallographic Data Centre
#                                CCDC 
#
#######################################################################
#
# If this CIF has been generated from an entry in the Cambridge 
# Structural Database, then it will include bibliographic, chemical, 
# crystal, experimental, refinement or atomic coordinate data resulting 
# from the CCDC's data processing and validation procedures.
#
#######################################################################

data_QOKCAV
_symmetry_cell_setting           monoclinic
_symmetry_space_group_name_H-M   'C 2/c'
_symmetry_Int_Tables_number      15
_space_group_name_Hall           '-C 2yn'
loop_
_symmetry_equiv_pos_site_id
_symmetry_equiv_pos_as_xyz
1 x,y,z
2 1/2+x,1/2+y,z
3 -x,y,1/2-z
4 1/2-x,1/2+y,1/2-z
5 -x,-y,-z
6 1/2-x,1/2-y,-z
7 x,-y,1/2+z
8 1/2+x,1/2-y,1/2+z
_cell_length_a                   20.607(4)
_cell_length_b                   15.384(3)
_cell_length_c                   8.1417(17)
_cell_angle_alpha                90
_cell_angle_beta                 107.167(3)
_cell_angle_gamma                90
_cell_volume                     2466.08
loop_
_atom_site_label
_atom_site_type_symbol
_atom_site_fract_x
_atom_site_fract_y
_atom_site_fract_z
C1 C 0.29621(14) 0.0685(2) 0.6386(4)
C2 C 0.23545(13) 0.12777(19) 0.5731(4)
C3 C 0.22023(13) 0.19035(19) 0.6768(4)
H1 H 0.2482 0.1972 0.7934
C4 C 0.16384(13) 0.24362(18) 0.6114(4)
C5 C 0.14513(14) 0.30784(19) 0.7272(4)
C6 C 0.12504(13) 0.2358(2) 0.4420(4)
H2 H 0.0868 0.2735 0.3964
C7 C 0.14120(14) 0.17333(19) 0.3379(4)
C8 C 0.19589(14) 0.11832(19) 0.4039(4)
H3 H 0.2064 0.0740 0.3327
C9 C 0.11326(17) 0.1046(2) 0.0610(4)
H4 H 0.1179 0.0488 0.1162
H5 H 0.1546 0.1177 0.0343
C10 C 0.05449(16) 0.10329(19) -0.0996(4)
C11 C -0.01162(17) 0.1023(2) -0.0917(4)
H6 H -0.0193 0.0985 0.0188
C12 C 0.06586(16) 0.1038(2) -0.2575(4)
H7 H 0.0909 0.0525 -0.2673
Mn1 Mn 0.12559(2) 0.41428(3) 0.95914(6)
O1 O 0.34062(10) 0.08819(14) 0.7736(3)
O2 O 0.29902(11) 0.00431(16) 0.5473(3)
O3 O 0.17721(11) 0.30709(15) 0.8833(3)
O4 O 0.09634(10) 0.36064(13) 0.6680(3)
O5 O 0.09942(10) 0.17003(14) 0.1716(3)
O6 O 0.04289(10) 0.32806(14) 0.9869(3)
H8 H 0.0541 0.2774 1.0254
H9 H 0.0047 0.3492 0.9303
O7 O 0.05007(11) 0.51876(14) 0.9125(3)
H10 H 0.0619 0.5372 0.8276
H11 H 0.0629 0.5571 0.9906
C1B C -0.29621(14) 0.0685(2) -1.1386(4)
C2B C -0.23545(13) 0.12777(19) -1.0731(4)
C3B C -0.22023(13) 0.19035(19) -1.1768(4)
H1B H -0.2482 0.1972 -1.2934
C4B C -0.16384(13) 0.24362(18) -1.1114(4)
C5B C -0.14513(14) 0.30784(19) -1.2272(4)
C6B C -0.12504(13) 0.2358(2) -0.9420(4)
H2B H -0.0868 0.2735 -0.8964
C7B C -0.14120(14) 0.17333(19) -0.8379(4)
C8B C -0.19589(14) 0.11832(19) -0.9039(4)
H3B H -0.2064 0.0740 -0.8327
C9B C -0.11326(17) 0.1046(2) -0.5610(4)
H4B H -0.1179 0.0488 -0.6162
H5B H -0.1546 0.1177 -0.5343
C10B C -0.05449(16) 0.10329(19) -0.4004(4)
C11B C 0.01162(17) 0.1023(2) -0.4083(4)
H6B H 0.0193 0.0985 -0.5188
C12B C -0.06586(16) 0.1038(2) -0.2425(4)
H7B H -0.0909 0.0525 -0.2327
Mn1G Mn -0.37441(2) 0.08572(3) -1.54086(6)
Mn1C Mn 0.37441(2) -0.08572(3) 0.54086(6)
Mn1E Mn 0.37441(2) 0.08572(3) 1.04086(6)
Mn1A Mn -0.37441(2) -0.08572(3) -1.04086(6)
Mn1B Mn -0.12559(2) 0.41428(3) -1.45914(6)
O1B O -0.34062(10) 0.08819(14) -1.2736(3)
O1E O 0.15938(10) 0.41181(14) 1.2264(3)
O1G O -0.15938(10) 0.41181(14) -1.7264(3)
O2B O -0.29902(11) 0.00431(16) -1.0473(3)
O2C O 0.20098(11) 0.50431(16) 0.9527(3)
O2A O -0.20098(11) 0.50431(16) -1.4527(3)
O3B O -0.17721(11) 0.30709(15) -1.3833(3)
O4B O -0.09634(10) 0.36064(13) -1.1680(3)
O5B O -0.09942(10) 0.17003(14) -0.6716(3)
O6B O -0.04289(10) 0.32806(14) -1.4869(3)
H8B H -0.0541 0.2774 -1.5254
H9B H -0.0047 0.3492 -1.4303
O7B O -0.05007(11) 0.51876(14) -1.4125(3)
H10B H -0.0619 0.5372 -1.3276
H11B H -0.0629 0.5571 -1.4906
loop_
_geom_bond_atom_site_label_1
_geom_bond_atom_site_label_2
_geom_bond_site_symmetry_1
_geom_bond_site_symmetry_2
C1 C2 1_555 1_555
C2 C3 1_555 1_555
C3 H1 1_555 1_555
C4 C3 1_555 1_555
C5 C4 1_555 1_555
C6 C4 1_555 1_555
H2 C6 1_555 1_555
C7 C6 1_555 1_555
C8 C2 1_555 1_555
H3 C8 1_555 1_555
C9 H4 1_555 1_555
H5 C9 1_555 1_555
C10 C9 1_555 1_555
C11 C10 1_555 1_555
H6 C11 1_555 1_555
C12 C10 1_555 1_555
H7 C12 1_555 1_555
Mn1 O3 1_555 1_555
O1 C1 1_555 1_555
O2 C1 1_555 1_555
O3 C5 1_555 1_555
O4 C5 1_555 1_555
O5 C7 1_555 1_555
O6 Mn1 1_555 1_555
H8 O6 1_555 1_555
H9 O6 1_555 1_555
O7 Mn1 1_555 1_555
H10 O7 1_555 1_555
H11 O7 1_555 1_555
C1B C2B 1_555 1_555
C2B C3B 1_555 1_555
C3B H1B 1_555 1_555
C4B C3B 1_555 1_555
C5B C4B 1_555 1_555
C6B C4B 1_555 1_555
H2B C6B 1_555 1_555
C7B C6B 1_555 1_555
C8B C2B 1_555 1_555
H3B C8B 1_555 1_555
C9B H4B 1_555 1_555
H5B C9B 1_555 1_555
C10B C9B 1_555 1_555
C11B C12 1_555 1_555
H6B C11B 1_555 1_555
C12B C11 1_555 1_555
H7B C12B 1_555 1_555
Mn1G O1B 1_555 1_555
Mn1C O2 1_555 1_555
Mn1E O1 1_555 1_555
Mn1A O2B 1_555 1_555
Mn1B O1G 1_555 1_555
O1B C1B 1_555 1_555
O1E Mn1 1_555 1_555
O2B C1B 1_555 1_555
O2C Mn1 1_555 1_555
O2A Mn1B 1_555 1_555
O3B C5B 1_555 1_555
O4B C5B 1_555 1_555
O5B C7B 1_555 1_555
O6B Mn1B 1_555 1_555
H8B O6B 1_555 1_555
H9B O6B 1_555 1_555
O7B Mn1B 1_555 1_555
H10B O7B 1_555 1_555
H11B O7B 1_555 1_555
C7 C8 1_555 1_555
C9 O5 1_555 1_555
Mn1 O4 1_555 1_555
C7B C8B 1_555 1_555
C9B O5B 1_555 1_555
C10B C11B 1_555 1_555
C10B C12B 1_555 1_555
Mn1B O3B 1_555 1_555
Mn1B O4B 1_555 1_555

#END
