
#######################################################################
#
#                 Cambridge Crystallographic Data Centre
#                                CCDC 
#
#######################################################################
#
# If this CIF has been generated from an entry in the Cambridge 
# Structural Database, then it will include bibliographic, chemical, 
# crystal, experimental, refinement or atomic coordinate data resulting 
# from the CCDC's data processing and validation procedures.
#
#######################################################################

data_QOKCEZ
_symmetry_cell_setting           monoclinic
_symmetry_space_group_name_H-M   'C 2/c'
_symmetry_Int_Tables_number      15
_space_group_name_Hall           '-C 2yn'
loop_
_symmetry_equiv_pos_site_id
_symmetry_equiv_pos_as_xyz
1 x,y,z
2 1/2+x,1/2+y,z
3 -x,y,1/2-z
4 1/2-x,1/2+y,1/2-z
5 -x,-y,-z
6 1/2-x,1/2-y,-z
7 x,-y,1/2+z
8 1/2+x,1/2-y,1/2+z
_cell_length_a                   12.872(3)
_cell_length_b                   11.015(2)
_cell_length_c                   20.869(4)
_cell_angle_alpha                90
_cell_angle_beta                 102.120(4)
_cell_angle_gamma                90
_cell_volume                     2892.96
loop_
_atom_site_label
_atom_site_type_symbol
_atom_site_fract_x
_atom_site_fract_y
_atom_site_fract_z
C1 C 0.65321(18) 0.4577(2) 0.35268(12)
C2 C 0.71300(18) 0.4331(2) 0.42064(12)
C3 C 0.66735(19) 0.4471(2) 0.47346(13)
H1 H 0.5964 0.4699 0.4675
C4 C 0.7273(2) 0.4274(3) 0.53676(13)
C5 C 0.6796(2) 0.4470(3) 0.59454(14)
C6 C 0.83206(19) 0.3901(3) 0.54551(13)
H2 H 0.8719 0.3753 0.5874
C7 C 0.87666(19) 0.3754(3) 0.49168(14)
C8 C 0.81893(19) 0.3984(2) 0.42918(13)
H3 H 0.8506 0.3908 0.3932
C9 C 1.03164(19) 0.3230(2) 0.45391(12)
H4 H 1.0302 0.3981 0.4294
H5 H 0.9943 0.2614 0.4247
C10 C 1.14528(19) 0.2841(2) 0.47935(13)
C11 C 1.1856(2) 0.2673(2) 0.54364(13)
H6 H 1.1429 0.2783 0.5740
H7 H 1.1809 0.2775 0.3909
C12 C 1.2087(2) 0.2666(3) 0.43541(14)
C13 C 0.5675(2) 0.2333(2) 0.22285(13)
H8 H 0.6147 0.2759 0.2030
C14 C 0.5714(2) 0.1089(2) 0.22256(13)
H9 H 0.6215 0.0688 0.2041
C15 C 0.5000 0.0438(3) 0.2500
C16 C 0.5000 -0.0912(3) 0.2500
C17 C 0.58924(18) -0.1562(2) 0.24429(12)
H10 H 0.6510 -0.1159 0.2403
C18 C 0.58621(19) -0.2807(2) 0.24461(13)
H11 H 0.6471 -0.3232 0.2409
Cu1 Cu 0.5000 0.47714(4) 0.2500
N1 N 0.5000 0.2961(3) 0.2500
N2 N 0.5000 -0.3436(3) 0.2500
O1 O 0.55115(13) 0.47357(15) 0.34488(9)
O2 O 0.69659(13) 0.46008(15) 0.30576(9)
O3 O 0.57754(14) 0.46797(17) 0.57782(10)
H12 H 0.553(3) 0.500(3) 0.6149(16)
O4 O 0.72519(14) 0.44463(18) 0.65001(9)
O5 O 0.98169(12) 0.33990(17) 0.50600(8)
C1E C 1.84679(18) 0.0423(2) 0.64732(12)
C2E C 1.78700(18) 0.0669(2) 0.57936(12)
C3E C 1.83265(19) 0.0529(2) 0.52654(13)
H1E H 1.9036 0.0301 0.5325
C4E C 1.7727(2) 0.0726(3) 0.46324(13)
C5E C 1.8204(2) 0.0530(3) 0.40546(14)
C6E C 1.66794(19) 0.1099(3) 0.45449(13)
H2E H 1.6281 0.1247 0.4126
C7E C 1.62334(19) 0.1246(3) 0.50832(14)
C8E C 1.68107(19) 0.1016(2) 0.57082(13)
H3E H 1.6494 0.1092 0.6068
C9E C 1.46836(19) 0.1770(2) 0.54609(12)
H4E H 1.4698 0.1019 0.5706
H5E H 1.5057 0.2386 0.5753
C10E C 1.35472(19) 0.2159(2) 0.52065(13)
C11E C 1.3144(2) 0.2327(2) 0.45636(13)
H6E H 1.3571 0.2217 0.4260
H7E H 1.3191 0.2225 0.6091
C12E C 1.2913(2) 0.2334(3) 0.56459(14)
C13B C 0.4325(2) 0.2333(2) 0.27715(13)
H8B H 0.3853 0.2759 0.2970
C14B C 0.4286(2) 0.1089(2) 0.27744(13)
H9B H 0.3785 0.0688 0.2959
C17B C 0.41076(18) -0.1562(2) 0.25571(12)
H10B H 0.3490 -0.1159 0.2597
C18B C 0.41379(19) -0.2807(2) 0.25539(13)
H11B H 0.3529 -0.3232 0.2591
Cu1_2 Cu 0.5000 -0.52286(4) 0.2500
Cu1G Cu 2.0000 0.02286(4) 0.7500
N2_2 N 0.5000 0.6564(3) 0.2500
O1E O 1.94885(13) 0.02643(15) 0.65512(9)
O1B O 0.44885(13) 0.47357(15) 0.15512(9)
O2E O 1.80341(13) 0.03992(15) 0.69424(9)
O2B O 0.30341(13) 0.46008(15) 0.19424(9)
O3E O 1.92246(14) 0.03203(17) 0.42218(10)
H12E H 1.947(3) 0.000(3) 0.3851(16)
O4E O 1.77481(14) 0.05537(18) 0.34999(9)
O5E O 1.51831(12) 0.16010(17) 0.49400(8)
loop_
_geom_bond_atom_site_label_1
_geom_bond_atom_site_label_2
_geom_bond_site_symmetry_1
_geom_bond_site_symmetry_2
C1 C2 1_555 1_555
C2 C3 1_555 1_555
C3 H1 1_555 1_555
C4 C3 1_555 1_555
C5 C4 1_555 1_555
C6 C4 1_555 1_555
H2 C6 1_555 1_555
C7 C6 1_555 1_555
C8 C2 1_555 1_555
H3 C8 1_555 1_555
C9 H4 1_555 1_555
H5 C9 1_555 1_555
C10 C9 1_555 1_555
C11 C10 1_555 1_555
H6 C11 1_555 1_555
H7 C12 1_555 1_555
C12 C10 1_555 1_555
C13 H8 1_555 1_555
C14 C13 1_555 1_555
H9 C14 1_555 1_555
C15 C14 1_555 1_555
C16 C15 1_555 1_555
C17 C16 1_555 1_555
H10 C17 1_555 1_555
C18 C17 1_555 1_555
H11 C18 1_555 1_555
Cu1 N1 1_555 1_555
N1 C13 1_555 1_555
N2 C18 1_555 1_555
O1 C1 1_555 1_555
O2 C1 1_555 1_555
O3 C5 1_555 1_555
H12 O3 1_555 1_555
O4 C5 1_555 1_555
O5 C7 1_555 1_555
C1E C2E 1_555 1_555
C2E C3E 1_555 1_555
C3E H1E 1_555 1_555
C4E C3E 1_555 1_555
C5E C4E 1_555 1_555
C6E C4E 1_555 1_555
H2E C6E 1_555 1_555
C7E C6E 1_555 1_555
C8E C2E 1_555 1_555
H3E C8E 1_555 1_555
C9E H4E 1_555 1_555
H5E C9E 1_555 1_555
C10E C9E 1_555 1_555
C11E C12 1_555 1_555
H6E C11E 1_555 1_555
H7E C12E 1_555 1_555
C12E C11 1_555 1_555
C13B N1 1_555 1_555
H8B C13B 1_555 1_555
C14B C15 1_555 1_555
H9B C14B 1_555 1_555
C17B C16 1_555 1_555
H10B C17B 1_555 1_555
C18B N2 1_555 1_555
H11B C18B 1_555 1_555
Cu1_2 N2 1_555 1_555
Cu1G O1E 1_555 1_555
N2_2 Cu1 1_555 1_555
O1E C1E 1_555 1_555
O1B Cu1 1_555 1_555
O2E C1E 1_555 1_555
O2B Cu1 1_555 1_555
O3E C5E 1_555 1_555
H12E O3E 1_555 1_555
O4E C5E 1_555 1_555
O5E C7E 1_555 1_555
C7 C8 1_555 1_555
C9 O5 1_555 1_555
Cu1 O1 1_555 1_555
Cu1 O2 1_555 1_555
C7E C8E 1_555 1_555
C9E O5E 1_555 1_555
C10E C11E 1_555 1_555
C10E C12E 1_555 1_555
C13B C14B 1_555 1_555
C17B C18B 1_555 1_555
Cu1G O2E 1_555 1_555

#END
