
#######################################################################
#
#                 Cambridge Crystallographic Data Centre
#                                CCDC 
#
#######################################################################
#
# If this CIF has been generated from an entry in the Cambridge 
# Structural Database, then it will include bibliographic, chemical, 
# crystal, experimental, refinement or atomic coordinate data resulting 
# from the CCDC's data processing and validation procedures.
#
#######################################################################

data_QOKGEE
_symmetry_cell_setting           monoclinic
_symmetry_space_group_name_H-M   'P 21'
_symmetry_Int_Tables_number      4
_space_group_name_Hall           'P 2yb'
loop_
_symmetry_equiv_pos_site_id
_symmetry_equiv_pos_as_xyz
1 x,y,z
2 -x,1/2+y,-z
_cell_length_a                   10.1160(2)
_cell_length_b                   16.0790(4)
_cell_length_c                   13.5500(4)
_cell_angle_alpha                90
_cell_angle_beta                 98.300(2)
_cell_angle_gamma                90
_cell_volume                     2180.89
loop_
_atom_site_label
_atom_site_type_symbol
_atom_site_fract_x
_atom_site_fract_y
_atom_site_fract_z
C1 C 0.5982(6) 0.5874(4) 0.3585(4)
H1 H 0.6880 0.5789 0.3412
H2 H 0.6045 0.5993 0.4300
H3 H 0.5556 0.6343 0.3202
C2 C 0.3407(5) 0.4133(4) 0.2204(4)
H4 H 0.2603 0.4475 0.2038
H5 H 0.3170 0.3608 0.2501
H6 H 0.3796 0.4018 0.1597
C3 C 0.8371(5) 0.4836(4) 0.5796(4)
H7 H 0.8044 0.4861 0.5080
H8 H 0.9309 0.4661 0.5898
H9 H 0.8295 0.5387 0.6092
C4 C 0.5555(5) 0.3823(4) 0.7259(4)
H10 H 0.5871 0.3734 0.7969
H11 H 0.5026 0.3342 0.6990
H12 H 0.5001 0.4325 0.7175
C5 C 1.2138(5) 0.4703(4) 0.7781(4)
H13 H 1.1763 0.4373 0.7199
H14 H 1.2697 0.4347 0.8258
H15 H 1.2683 0.5155 0.7567
C6 C 0.8990(6) 0.6096(4) 0.8409(5)
H16 H 0.9314 0.6641 0.8226
H17 H 0.8689 0.6133 0.9064
H18 H 0.8244 0.5922 0.7910
C7 C 0.6749(5) 0.4715(4) 1.0140(4)
H19 H 0.6537 0.5308 1.0184
H20 H 0.5956 0.4383 1.0213
H21 H 0.7028 0.4599 0.9490
C8 C 0.9684(5) 0.5014(4) 1.2409(4)
H22 H 1.0059 0.5503 1.2117
H23 H 1.0407 0.4632 1.2666
H24 H 0.9210 0.5190 1.2955
C9 C 0.6812(5) 0.3376(3) 0.2467(4)
C10 C 0.6012(5) 0.2670(3) 0.2786(4)
C11 C 0.5700(5) 0.2011(3) 0.2138(4)
H25 H 0.6031 0.2009 0.1516
C12 C 0.4916(6) 0.1351(4) 0.2374(4)
H26 H 0.4696 0.0909 0.1915
C13 C 0.4468(6) 0.1349(3) 0.3275(4)
H27 H 0.3922 0.0904 0.3441
C14 C 0.4797(5) 0.1985(4) 0.3948(4)
H28 H 0.4499 0.1961 0.4581
C15 C 0.5555(5) 0.2660(3) 0.3720(4)
C16 C 0.5921(5) 0.3289(3) 0.4546(4)
C17 C 0.9334(5) 0.3370(3) 0.7846(4)
C18 C 1.0513(4) 0.2942(3) 0.8432(4)
C19 C 1.1184(5) 0.2332(3) 0.7991(4)
H29 H 1.0876 0.2169 0.7323
C20 C 1.2290(6) 0.1957(4) 0.8503(4)
H30 H 1.2739 0.1534 0.8192
C21 C 1.2754(6) 0.2190(3) 0.9468(4)
H31 H 1.3522 0.1929 0.9821
C22 C 1.2094(5) 0.2809(3) 0.9927(4)
H32 H 1.2412 0.2964 1.0595
C23 C 1.0986(5) 0.3199(3) 0.9420(4)
C24 C 1.0293(5) 0.3828(3) 0.9995(3)
C25 C 0.2503(6) 0.6102(3) 0.3824(4)
H33 H 0.2108 0.6060 0.3113
H34 H 0.3156 0.6565 0.3898
C26 C 0.1449(6) 0.6245(4) 0.4458(4)
H35 H 0.0597 0.5983 0.4163
H36 H 0.1299 0.6847 0.4547
C27 C 0.1993(6) 0.5842(4) 0.5426(5)
H37 H 0.1263 0.5646 0.5781
H38 H 0.2565 0.6234 0.5861
C28 C 0.2812(7) 0.5111(4) 0.5119(5)
H39 H 0.3627 0.5030 0.5610
H40 H 0.2279 0.4593 0.5080
C29 C 1.1643(6) 0.6724(4) 1.0118(5)
H41 H 1.0988 0.6512 1.0534
H42 H 1.1217 0.7171 0.9681
C30 C 1.2865(6) 0.7037(4) 1.0754(5)
H43 H 1.2646 0.7298 1.1372
H44 H 1.3350 0.7443 1.0390
C31 C 1.3668(7) 0.6242(4) 1.0979(5)
H45 H 1.4637 0.6364 1.1103
H46 H 1.3411 0.5957 1.1570
C32 C 1.3331(5) 0.5722(4) 1.0068(4)
H47 H 1.4056 0.5748 0.9651
H48 H 1.3203 0.5135 1.0253
O1 O 0.6686(3) 0.4103(2) 0.2783(2)
O2 O 0.7580(4) 0.3213(2) 0.1823(3)
O3 O 0.5354(3) 0.3992(2) 0.4546(2)
O4 O 0.6739(3) 0.3027(2) 0.5266(2)
O5 O 0.8667(4) 0.2980(2) 0.7126(3)
O6 O 0.9011(3) 0.4096(2) 0.8076(2)
O7 O 1.0492(3) 0.4592(2) 0.9925(2)
O8 O 0.9550(3) 0.3520(2) 1.0569(3)
O9 O 0.3157(4) 0.5315(3) 0.4170(3)
O10 O 1.2100(3) 0.6060(2) 0.9531(3)
In1 In 0.48220(4) 0.47820(2) 0.32407(2)
In2 In 0.72127(3) 0.39677(2) 0.64870(2)
In3 In 1.05569(3) 0.52138(2) 0.84715(3)
In4 In 0.83269(3) 0.44006(2) 1.12969(3)
O2_2 O 0.7580(4) 0.3213(2) 1.1823(3)
In4_2 In 0.83269(3) 0.44006(2) 0.12969(3)
C33 C 0.9203(7) 0.8254(5) 0.4718(5)
H49 H 0.9652 0.8018 0.4178
H50 H 0.8866 0.8814 0.4506
C34 C 1.0120(10) 0.8321(6) 0.5587(7)
H51 H 1.0101 0.8890 0.5864
H52 H 1.1034 0.8207 0.5442
C35 C 0.9743(9) 0.7702(6) 0.6319(8)
H53 H 1.0472 0.7295 0.6501
H54 H 0.9550 0.7983 0.6932
C36 C 0.8614(12) 0.7312(10) 0.5838(11)
H55 H 0.7912 0.7316 0.6277
H56 H 0.8828 0.6725 0.5708
O11 O 0.8097(10) 0.7728(8) 0.4877(9)
loop_
_geom_bond_atom_site_label_1
_geom_bond_atom_site_label_2
_geom_bond_site_symmetry_1
_geom_bond_site_symmetry_2
C1 H1 1_555 1_555
H2 C1 1_555 1_555
H3 C1 1_555 1_555
C2 H4 1_555 1_555
H5 C2 1_555 1_555
H6 C2 1_555 1_555
C3 H7 1_555 1_555
H8 C3 1_555 1_555
H9 C3 1_555 1_555
C4 H10 1_555 1_555
H11 C4 1_555 1_555
H12 C4 1_555 1_555
C5 H13 1_555 1_555
H14 C5 1_555 1_555
H15 C5 1_555 1_555
C6 H16 1_555 1_555
H17 C6 1_555 1_555
H18 C6 1_555 1_555
C7 H19 1_555 1_555
H20 C7 1_555 1_555
H21 C7 1_555 1_555
C8 H22 1_555 1_555
H23 C8 1_555 1_555
H24 C8 1_555 1_555
C9 C10 1_555 1_555
C10 C11 1_555 1_555
C11 H25 1_555 1_555
C12 C11 1_555 1_555
H26 C12 1_555 1_555
C13 C12 1_555 1_555
H27 C13 1_555 1_555
C14 C13 1_555 1_555
H28 C14 1_555 1_555
C15 C10 1_555 1_555
C16 C15 1_555 1_555
C17 C18 1_555 1_555
C18 C19 1_555 1_555
C19 H29 1_555 1_555
C20 C19 1_555 1_555
H30 C20 1_555 1_555
C21 C20 1_555 1_555
H31 C21 1_555 1_555
C22 C21 1_555 1_555
H32 C22 1_555 1_555
C23 C18 1_555 1_555
C24 C23 1_555 1_555
C25 H33 1_555 1_555
H34 C25 1_555 1_555
C26 C25 1_555 1_555
H35 C26 1_555 1_555
H36 C26 1_555 1_555
C27 C26 1_555 1_555
H37 C27 1_555 1_555
H38 C27 1_555 1_555
C28 C27 1_555 1_555
H39 C28 1_555 1_555
H40 C28 1_555 1_555
C29 H41 1_555 1_555
H42 C29 1_555 1_555
C30 C29 1_555 1_555
H43 C30 1_555 1_555
H44 C30 1_555 1_555
C31 C30 1_555 1_555
H45 C31 1_555 1_555
H46 C31 1_555 1_555
C32 C31 1_555 1_555
H47 C32 1_555 1_555
H48 C32 1_555 1_555
O1 C9 1_555 1_555
O2 C9 1_555 1_555
O3 C16 1_555 1_555
O4 C16 1_555 1_555
O5 C17 1_555 1_555
O6 C17 1_555 1_555
O7 C24 1_555 1_555
O8 C24 1_555 1_555
O9 C25 1_555 1_555
O10 C29 1_555 1_555
In1 C1 1_555 1_555
In2 C3 1_555 1_555
In3 C5 1_555 1_555
In4 C7 1_555 1_555
C33 H49 1_555 1_555
H50 C33 1_555 1_555
C34 C33 1_555 1_555
H51 C34 1_555 1_555
H52 C34 1_555 1_555
C35 C34 1_555 1_555
H53 C35 1_555 1_555
H54 C35 1_555 1_555
C36 C35 1_555 1_555
H55 C36 1_555 1_555
H56 C36 1_555 1_555
O11 C33 1_555 1_555
O2_2 In4 1_555 1_555
In4_2 O2 1_555 1_555
C2 In1 1_555 1_555
C4 In2 1_555 1_555
C6 In3 1_555 1_555
C8 In4 1_555 1_555
C14 C15 1_555 1_555
C22 C23 1_555 1_555
C28 O9 1_555 1_555
C32 O10 1_555 1_555
O1 In1 1_555 1_555
O3 In1 1_555 1_555
O4 In2 1_555 1_555
O5 In2 1_555 1_555
O6 In2 1_555 1_555
O6 In3 1_555 1_555
O7 In3 1_555 1_555
O8 In4 1_555 1_555
O9 In1 1_555 1_555
O10 In3 1_555 1_555
C36 O11 1_555 1_555

#END
