
#######################################################################
#
#                 Cambridge Crystallographic Data Centre
#                                CCDC 
#
#######################################################################
#
# If this CIF has been generated from an entry in the Cambridge 
# Structural Database, then it will include bibliographic, chemical, 
# crystal, experimental, refinement or atomic coordinate data resulting 
# from the CCDC's data processing and validation procedures.
#
#######################################################################

data_QOKHON
_symmetry_cell_setting           triclinic
_symmetry_space_group_name_H-M   'P -1'
_symmetry_Int_Tables_number      2
_space_group_name_Hall           '-P 1'
loop_
_symmetry_equiv_pos_site_id
_symmetry_equiv_pos_as_xyz
1 x,y,z
2 -x,-y,-z
_cell_length_a                   8.422(2)
_cell_length_b                   10.258(2)
_cell_length_c                   10.980(2)
_cell_angle_alpha                91.06(3)
_cell_angle_beta                 91.28(3)
_cell_angle_gamma                91.65(3)
_cell_volume                     947.79
loop_
_atom_site_label
_atom_site_type_symbol
_atom_site_fract_x
_atom_site_fract_y
_atom_site_fract_z
Ti1 Ti 0.0000 -0.5000 0.0000
Ti2 Ti 0.0000 0.0000 0.5000
O1 O 0.1037(8) -0.4225(6) 0.1380(6)
O2 O 0.0692(8) -0.1694(6) 0.5000(5)
O3 O 0.0324(8) -0.3480(6) -0.0893(5)
O4 O 0.0695(7) 0.0212(5) -0.3357(5)
N1 N 0.2247(9) -0.5725(7) -0.0647(6)
N2 N 0.2348(9) 0.0669(6) 0.4387(6)
C1 C 0.1192(11) -0.4148(8) 0.2604(7)
C2 C 0.1860(10) -0.5145(8) 0.3260(8)
C3 C 0.2089(11) -0.4961(9) 0.4501(8)
C4 C 0.1715(10) -0.3807(8) 0.5065(8)
C5 C 0.1065(11) -0.2845(8) 0.4426(8)
C6 C 0.0766(11) -0.3022(8) 0.3176(8)
C7 C 0.2776(13) -0.5427(10) -0.1712(9)
C8 C 0.4184(13) -0.5832(11) -0.2176(10)
C9 C 0.5108(13) -0.6601(11) -0.1449(11)
C10 C 0.4570(13) -0.6908(10) -0.0321(10)
C11 C 0.3187(12) -0.6471(9) 0.0051(9)
C12 C 0.3229(11) 0.1488(9) 0.5054(8)
C13 C 0.4709(12) 0.1908(10) 0.4711(10)
C14 C 0.5338(14) 0.1449(11) 0.3642(11)
C15 C 0.4397(13) 0.0609(11) 0.2940(10)
C16 C 0.2899(12) 0.0233(10) 0.3327(9)
C17 C 0.0866(11) -0.2257(8) -0.1013(8)
C18 C 0.1628(12) -0.1513(9) -0.0091(8)
C19 C 0.2131(13) -0.0279(10) -0.0323(9)
C20 C 0.1843(12) 0.0312(9) -0.1427(9)
C21 C 0.1051(10) -0.0382(7) -0.2335(7)
C22 C 0.0542(10) -0.1650(8) -0.2116(8)
H1 H 0.2146(10) -0.5916(8) 0.2875(8)
H2 H 0.2504(11) -0.5628(9) 0.4962(8)
H3 H 0.1912(10) -0.3691(8) 0.5897(8)
H4 H 0.0278(11) -0.2374(8) 0.2734(8)
H5 H 0.2154(13) -0.4899(10) -0.2197(9)
H6 H 0.4501(13) -0.5597(11) -0.2950(10)
H7 H 0.6072(13) -0.6904(11) -0.1718(11)
H8 H 0.5173(13) -0.7424(10) 0.0188(10)
H9 H 0.2852(12) -0.6687(9) 0.0825(9)
H10 H 0.2837(11) 0.1796(9) 0.5787(8)
H11 H 0.5292(12) 0.2505(10) 0.5201(10)
H12 H 0.6355(14) 0.1699(11) 0.3408(11)
H13 H 0.4763(13) 0.0289(11) 0.2203(10)
H14 H 0.2266(12) -0.0334(10) 0.2841(9)
H15 H 0.1792(12) -0.1860(9) 0.0677(8)
H16 H 0.2693(13) 0.0192(10) 0.0286(9)
H17 H 0.2184(12) 0.1169(9) -0.1547(9)
H18 H -0.0034(10) -0.2113(8) -0.2723(8)
O1A O -0.1037(8) -0.5775(6) -0.1380(6)
O2A O -0.0692(8) -0.8306(6) -0.5000(5)
C1A C -0.1192(11) -0.5852(8) -0.2604(7)
C2A C -0.1860(10) -0.4855(8) -0.3260(8)
C3A C -0.2089(11) -0.5039(9) -0.4501(8)
C4A C -0.1715(10) -0.6193(8) -0.5065(8)
C5A C -0.1065(11) -0.7155(8) -0.4426(8)
C6A C -0.0766(11) -0.6978(8) -0.3176(8)
H1A H -0.2146(10) -0.4084(8) -0.2875(8)
H2A H -0.2504(11) -0.4372(9) -0.4962(8)
H3A H -0.1912(10) -0.6309(8) -0.5897(8)
H4A H -0.0278(11) -0.7626(8) -0.2734(8)
O3A O -0.0324(8) -0.6520(6) 0.0893(5)
O4A O -0.0695(7) -1.0212(5) 0.3357(5)
C17A C -0.0866(11) -0.7743(8) 0.1013(8)
C18A C -0.1628(12) -0.8487(9) 0.0091(8)
C19A C -0.2131(13) -0.9721(10) 0.0323(9)
C20A C -0.1843(12) -1.0312(9) 0.1427(9)
C21A C -0.1051(10) -0.9618(7) 0.2335(7)
C22A C -0.0542(10) -0.8350(8) 0.2116(8)
H15A H -0.1792(12) -0.8140(9) -0.0677(8)
H16A H -0.2693(13) -1.0192(10) -0.0286(9)
H17A H -0.2184(12) -1.1169(9) 0.1547(9)
H18A H 0.0034(10) -0.7887(8) 0.2723(8)
N1A N -0.2247(9) -0.4275(7) 0.0647(6)
C7A C -0.2776(13) -0.4573(10) 0.1712(9)
C8A C -0.4184(13) -0.4168(11) 0.2176(10)
C9A C -0.5108(13) -0.3399(11) 0.1449(11)
C10A C -0.4570(13) -0.3092(10) 0.0321(10)
C11A C -0.3187(12) -0.3529(9) -0.0051(9)
H5A H -0.2154(13) -0.5101(10) 0.2197(9)
H6A H -0.4501(13) -0.4403(11) 0.2950(10)
H7A H -0.6072(13) -0.3096(11) 0.1718(11)
H8A H -0.5173(13) -0.2576(10) -0.0188(10)
H9A H -0.2852(12) -0.3313(9) -0.0825(9)
N2A N -0.2348(9) -0.0669(6) 0.5613(6)
C12A C -0.3229(11) -0.1488(9) 0.4946(8)
C13A C -0.4709(12) -0.1908(10) 0.5289(10)
C14A C -0.5338(14) -0.1449(11) 0.6358(11)
C15A C -0.4397(13) -0.0609(11) 0.7060(10)
C16A C -0.2899(12) -0.0233(10) 0.6673(9)
H10A H -0.2837(11) -0.1796(9) 0.4213(8)
H11A H -0.5292(12) -0.2505(10) 0.4799(10)
H12A H -0.6355(14) -0.1699(11) 0.6592(11)
H13A H -0.4763(13) -0.0289(11) 0.7797(10)
H14A H -0.2266(12) 0.0334(10) 0.7159(9)
O2A_2 O -0.0692(8) 0.1694(6) 0.5000(5)
O4_2 O 0.0695(7) 0.0212(5) 0.6643(5)
O4A_2 O -0.0695(7) -0.0212(5) 0.3357(5)
Ti2_2 Ti 0.0000 0.0000 -0.5000
Ti2_3 Ti 0.0000 -1.0000 -0.5000
Ti2_4 Ti 0.0000 -1.0000 0.5000
loop_
_geom_bond_atom_site_label_1
_geom_bond_atom_site_label_2
_geom_bond_site_symmetry_1
_geom_bond_site_symmetry_2
Ti1 O1 1_555 1_555
Ti2 O2 1_555 1_555
O1 C1 1_555 1_555
O2 C5 1_555 1_555
O3 Ti1 1_555 1_555
O4 C21 1_555 1_555
N1 Ti1 1_555 1_555
N2 Ti2 1_555 1_555
C1 C2 1_555 1_555
C2 C3 1_555 1_555
C3 C4 1_555 1_555
C4 C5 1_555 1_555
C5 C6 1_555 1_555
C6 C1 1_555 1_555
C7 N1 1_555 1_555
C8 C7 1_555 1_555
C9 C8 1_555 1_555
C10 C9 1_555 1_555
C11 N1 1_555 1_555
C12 N2 1_555 1_555
C13 C12 1_555 1_555
C14 C13 1_555 1_555
C15 C14 1_555 1_555
C16 N2 1_555 1_555
C17 O3 1_555 1_555
C18 C17 1_555 1_555
C19 C18 1_555 1_555
C20 C19 1_555 1_555
C21 C20 1_555 1_555
C22 C17 1_555 1_555
H1 C2 1_555 1_555
H2 C3 1_555 1_555
H3 C4 1_555 1_555
H4 C6 1_555 1_555
H5 C7 1_555 1_555
H6 C8 1_555 1_555
H7 C9 1_555 1_555
H8 C10 1_555 1_555
H9 C11 1_555 1_555
H10 C12 1_555 1_555
H11 C13 1_555 1_555
H12 C14 1_555 1_555
H13 C15 1_555 1_555
H14 C16 1_555 1_555
H15 C18 1_555 1_555
H16 C19 1_555 1_555
H17 C20 1_555 1_555
H18 C22 1_555 1_555
O1A Ti1 1_555 1_555
O2A C5A 1_555 1_555
C1A O1A 1_555 1_555
C2A C1A 1_555 1_555
C3A C2A 1_555 1_555
C4A C3A 1_555 1_555
C5A C4A 1_555 1_555
C6A C1A 1_555 1_555
H1A C2A 1_555 1_555
H2A C3A 1_555 1_555
H3A C4A 1_555 1_555
H4A C6A 1_555 1_555
O3A Ti1 1_555 1_555
O4A C21A 1_555 1_555
C17A O3A 1_555 1_555
C18A C17A 1_555 1_555
C19A C18A 1_555 1_555
C20A C19A 1_555 1_555
C21A C20A 1_555 1_555
C22A C17A 1_555 1_555
H15A C18A 1_555 1_555
H16A C19A 1_555 1_555
H17A C20A 1_555 1_555
H18A C22A 1_555 1_555
N1A Ti1 1_555 1_555
C7A N1A 1_555 1_555
C8A C7A 1_555 1_555
C9A C8A 1_555 1_555
C10A C9A 1_555 1_555
C11A N1A 1_555 1_555
H5A C7A 1_555 1_555
H6A C8A 1_555 1_555
H7A C9A 1_555 1_555
H8A C10A 1_555 1_555
H9A C11A 1_555 1_555
N2A Ti2 1_555 1_555
C12A N2A 1_555 1_555
C13A C12A 1_555 1_555
C14A C13A 1_555 1_555
C15A C14A 1_555 1_555
C16A N2A 1_555 1_555
H10A C12A 1_555 1_555
H11A C13A 1_555 1_555
H12A C14A 1_555 1_555
H13A C15A 1_555 1_555
H14A C16A 1_555 1_555
O2A_2 Ti2 1_555 1_555
O4_2 Ti2 1_555 1_555
O4A_2 Ti2 1_555 1_555
Ti2_2 O4 1_555 1_555
Ti2_3 O2A 1_555 1_555
Ti2_4 O4A 1_555 1_555
C10 C11 1_555 1_555
C15 C16 1_555 1_555
C21 C22 1_555 1_555
C5A C6A 1_555 1_555
C21A C22A 1_555 1_555
C10A C11A 1_555 1_555
C15A C16A 1_555 1_555

#END
