
#######################################################################
#
#                 Cambridge Crystallographic Data Centre
#                                CCDC 
#
#######################################################################
#
# If this CIF has been generated from an entry in the Cambridge 
# Structural Database, then it will include bibliographic, chemical, 
# crystal, experimental, refinement or atomic coordinate data resulting 
# from the CCDC's data processing and validation procedures.
#
#######################################################################

data_QOKHIH
_symmetry_cell_setting           monoclinic
_symmetry_space_group_name_H-M   'P 21/c'
_symmetry_Int_Tables_number      14
_space_group_name_Hall           '-P 2ybc'
loop_
_symmetry_equiv_pos_site_id
_symmetry_equiv_pos_as_xyz
1 x,y,z
2 -x,1/2+y,1/2-z
3 -x,-y,-z
4 x,1/2-y,1/2+z
_cell_length_a                   11.589(2)
_cell_length_b                   8.1029(10)
_cell_length_c                   15.384(2)
_cell_angle_alpha                90
_cell_angle_beta                 110.595(3)
_cell_angle_gamma                90
_cell_volume                     1352.3
loop_
_atom_site_label
_atom_site_type_symbol
_atom_site_fract_x
_atom_site_fract_y
_atom_site_fract_z
Ti1 Ti 0.5000 0.5000 0.0000
O1 O 0.5861(3) 0.3888(5) 0.1103(2)
O2 O 0.5922(3) 0.1263(5) 0.4434(2)
N1 N 0.3574(5) 0.3062(6) -0.0350(3)
C1 C 0.5868(6) 0.3241(7) 0.1927(4)
C2 C 0.6946(6) 0.2637(8) 0.2568(4)
C3 C 0.6957(6) 0.2000(8) 0.3407(4)
C4 C 0.5893(6) 0.1888(7) 0.3606(4)
C5 C 0.4799(7) 0.2488(8) 0.2950(4)
C6 C 0.4799(6) 0.3139(8) 0.2132(4)
C7 C 0.3807(6) 0.1519(8) -0.0039(5)
C8 C 0.2937(6) 0.0275(8) -0.0254(4)
C9 C 0.1742(6) 0.0599(7) -0.0814(4)
C10 C 0.1004(7) -0.2315(9) -0.0960(5)
C11 C 0.0089(7) -0.3486(9) -0.1124(6)
C12 C -0.1128(8) -0.2977(11) -0.1371(6)
C13 C -0.1388(7) -0.1329(10) -0.1428(5)
C14 C -0.0476(6) -0.0191(9) -0.1253(5)
C15 C 0.0749(6) -0.0666(8) -0.1020(4)
C16 C 0.1518(7) 0.2193(9) -0.1162(5)
C17 C 0.2440(6) 0.3357(9) -0.0920(5)
H1 H 0.7682(58) 0.2750(71) 0.2470(40)
H2 H 0.7716(48) 0.1659(57) 0.3865(34)
H3 H 0.4188(49) 0.2349(65) 0.3109(36)
H4 H 0.4066(43) 0.3538(53) 0.1697(30)
H5 H 0.4580(51) 0.1316(63) 0.0376(34)
H6 H 0.3177(49) -0.0737(70) 0.0037(35)
H7 H 0.1775(46) -0.2655(58) -0.0826(30)
H8 H 0.0258(60) -0.4696(86) -0.1034(43)
H9 H -0.2141(45) -0.0923(60) -0.1554(30)
H10 H -0.0660(41) 0.0894(61) -0.1299(29)
H11 H 0.0755(51) 0.2495(67) -0.1595(35)
H12 H 0.2289(48) 0.4513(67) -0.1154(34)
H13 H -0.1713(76) -0.384(10) -0.1500(53)
O1B O 0.4139(3) 0.6112(5) -0.1103(2)
O2B O 0.4078(3) 0.8737(5) -0.4434(2)
C1B C 0.4132(6) 0.6759(7) -0.1927(4)
C2B C 0.3054(6) 0.7363(8) -0.2568(4)
C3B C 0.3043(6) 0.8000(8) -0.3407(4)
C4B C 0.4107(6) 0.8112(7) -0.3606(4)
C5B C 0.5201(7) 0.7512(8) -0.2950(4)
C6B C 0.5201(6) 0.6861(8) -0.2132(4)
H1B H 0.2318(58) 0.7250(71) -0.2470(40)
H2B H 0.2284(48) 0.8341(57) -0.3865(34)
H3B H 0.5812(49) 0.7651(65) -0.3109(36)
H4B H 0.5934(43) 0.6462(53) -0.1697(30)
N1B N 0.6426(5) 0.6938(6) 0.0350(3)
C7B C 0.6193(6) 0.8481(8) 0.0039(5)
C8B C 0.7063(6) 0.9725(8) 0.0254(4)
C9B C 0.8258(6) 0.9401(7) 0.0814(4)
C10B C 0.8996(7) 1.2315(9) 0.0960(5)
C11B C 0.9911(7) 1.3486(9) 0.1124(6)
C12B C 1.1128(8) 1.2977(11) 0.1371(6)
C13B C 1.1388(7) 1.1329(10) 0.1428(5)
C14B C 1.0476(6) 1.0191(9) 0.1253(5)
C15B C 0.9251(6) 1.0666(8) 0.1020(4)
C16B C 0.8482(7) 0.7807(9) 0.1162(5)
C17B C 0.7560(6) 0.6643(9) 0.0920(5)
H5B H 0.5420(51) 0.8684(63) -0.0376(34)
H6B H 0.6823(49) 1.0737(70) -0.0037(35)
H7B H 0.8225(46) 1.2655(58) 0.0826(30)
H8B H 0.9742(60) 1.4696(86) 0.1034(43)
H9B H 1.2141(45) 1.0923(60) 0.1554(30)
H10B H 1.0660(41) 0.9106(61) 0.1299(29)
H11B H 0.9245(51) 0.7505(67) 0.1595(35)
H12B H 0.7711(48) 0.5487(67) 0.1154(34)
H13B H 1.1713(76) 1.384(10) 0.1500(53)
O2A O 0.4078(3) 0.6263(5) 0.0566(2)
O2C O 0.5922(3) 0.3737(5) -0.0566(2)
Ti1A Ti 0.5000 0.0000 0.5000
Ti1A_2 Ti 0.5000 1.0000 -0.5000
loop_
_geom_bond_atom_site_label_1
_geom_bond_atom_site_label_2
_geom_bond_site_symmetry_1
_geom_bond_site_symmetry_2
Ti1 O1 1_555 1_555
O1 C1 1_555 1_555
O2 C4 1_555 1_555
N1 Ti1 1_555 1_555
C1 C2 1_555 1_555
C2 C3 1_555 1_555
C3 C4 1_555 1_555
C4 C5 1_555 1_555
C5 C6 1_555 1_555
C6 C1 1_555 1_555
C7 N1 1_555 1_555
C8 C7 1_555 1_555
C9 C8 1_555 1_555
C10 C11 1_555 1_555
C11 C12 1_555 1_555
C12 C13 1_555 1_555
C13 C14 1_555 1_555
C14 C15 1_555 1_555
C15 C9 1_555 1_555
C16 C9 1_555 1_555
C17 N1 1_555 1_555
H1 C2 1_555 1_555
H2 C3 1_555 1_555
H3 C5 1_555 1_555
H4 C6 1_555 1_555
H5 C7 1_555 1_555
H6 C8 1_555 1_555
H7 C10 1_555 1_555
H8 C11 1_555 1_555
H9 C13 1_555 1_555
H10 C14 1_555 1_555
H11 C16 1_555 1_555
H12 C17 1_555 1_555
H13 C12 1_555 1_555
O1B Ti1 1_555 1_555
O2B C4B 1_555 1_555
C1B O1B 1_555 1_555
C2B C1B 1_555 1_555
C3B C2B 1_555 1_555
C4B C3B 1_555 1_555
C5B C4B 1_555 1_555
C6B C1B 1_555 1_555
H1B C2B 1_555 1_555
H2B C3B 1_555 1_555
H3B C5B 1_555 1_555
H4B C6B 1_555 1_555
N1B Ti1 1_555 1_555
C7B N1B 1_555 1_555
C8B C7B 1_555 1_555
C9B C8B 1_555 1_555
C10B C11B 1_555 1_555
C11B C12B 1_555 1_555
C12B C13B 1_555 1_555
C13B C14B 1_555 1_555
C14B C15B 1_555 1_555
C15B C9B 1_555 1_555
C16B C9B 1_555 1_555
C17B N1B 1_555 1_555
H5B C7B 1_555 1_555
H6B C8B 1_555 1_555
H7B C10B 1_555 1_555
H8B C11B 1_555 1_555
H9B C13B 1_555 1_555
H10B C14B 1_555 1_555
H11B C16B 1_555 1_555
H12B C17B 1_555 1_555
H13B C12B 1_555 1_555
O2A Ti1 1_555 1_555
O2C Ti1 1_555 1_555
Ti1A O2 1_555 1_555
Ti1A_2 O2B 1_555 1_555
C10 C15 1_555 1_555
C16 C17 1_555 1_555
C5B C6B 1_555 1_555
C10B C15B 1_555 1_555
C16B C17B 1_555 1_555

#END
