
#######################################################################
#
#                 Cambridge Crystallographic Data Centre
#                                CCDC 
#
#######################################################################
#
# If this CIF has been generated from an entry in the Cambridge 
# Structural Database, then it will include bibliographic, chemical, 
# crystal, experimental, refinement or atomic coordinate data resulting 
# from the CCDC's data processing and validation procedures.
#
#######################################################################

data_QOKJUX
_symmetry_cell_setting           monoclinic
_symmetry_space_group_name_H-M   'P 21/c'
_symmetry_Int_Tables_number      14
_space_group_name_Hall           '-P 2ybc'
loop_
_symmetry_equiv_pos_site_id
_symmetry_equiv_pos_as_xyz
1 x,y,z
2 -x,1/2+y,1/2-z
3 -x,-y,-z
4 x,1/2-y,1/2+z
_cell_length_a                   27.780(6)
_cell_length_b                   6.6928(13)
_cell_length_c                   17.125(3)
_cell_angle_alpha                90
_cell_angle_beta                 92.90(3)
_cell_angle_gamma                90
_cell_volume                     3179.9
loop_
_atom_site_label
_atom_site_type_symbol
_atom_site_fract_x
_atom_site_fract_y
_atom_site_fract_z
Tb1 Tb 0.409686(14) 0.06409(6) 0.37803(2)
Tb2 Tb 0.199052(16) 0.15907(6) 0.33988(2)
Tb3 Tb 0.097350(13) -0.24676(7) 0.11417(2)
O1 O 0.4159(2) 0.2422(10) 0.4929(3)
O2 O 0.3823(2) 0.5397(9) 0.5172(4)
O3 O 0.5963(2) 0.2720(9) 0.6684(3)
H1 H 0.6267 0.2901 0.6956
O4 O 0.5914(2) 0.6011(9) 0.6621(3)
O5 O 0.5664(2) 0.4294(10) 0.8291(3)
O6 O 0.4956(2) 0.4235(9) 0.8834(3)
O7 O 0.3549(2) 0.4270(9) 0.7662(3)
O8 O 0.3401(2) 0.3280(9) 0.6419(4)
O9 O 0.3342(2) 0.0064(10) 0.4304(3)
O10 O 0.2533(2) 0.0021(10) 0.4277(4)
O11 O 0.1746(2) -0.2888(10) 0.6618(3)
O12 O 0.2236(2) -0.3987(9) 0.7600(3)
O13 O 0.1502(2) -0.1257(10) 0.3725(3)
O14 O 0.1444(2) -0.1942(9) 0.4998(3)
O15 O 0.0758(2) -0.0587(9) 0.2309(4)
O16 O 0.0884(2) -0.3824(10) 0.2428(3)
O17 O -0.1018(2) -0.0934(10) 0.3987(4)
O18 O -0.0996(2) -0.4179(9) 0.4236(4)
O19 O -0.0619(2) -0.2290(11) 0.5650(3)
O20 O 0.0128(2) -0.2522(10) 0.6208(3)
O21 O 0.4375(2) -0.1518(9) 0.4839(3)
H2 H 0.4176 -0.1996 0.5150
H3 H 0.4673 -0.1800 0.4901
O22 O 0.1749(2) 0.2190(10) 0.4775(4)
H4 H 0.1784 0.3341 0.4980
H5 H 0.1632 0.1240 0.5035
O23 O 0.2149(2) 0.5090(10) 0.3780(4)
H6 H 0.1921 0.5865 0.3573
H7 H 0.2428 0.5469 0.3611
O24 O 0.2747(2) 0.2696(10) 0.2979(3)
H8 H 0.2942 0.3303 0.3296
H9 H 0.2823 0.2484 0.2512
O25 O 0.1846(2) 0.2863(10) 0.2113(3)
H10 H 0.1655 0.3842 0.2033
H11 H 0.1985 0.2339 0.1733
O26 O 0.1236(2) 0.3125(10) 0.3314(4)
H12 H 0.1098 0.3439 0.3728
H13 H 0.1099 0.3375 0.2869
N1 N 0.4478(3) 0.4242(10) 0.7489(4)
N2 N 0.3398(3) -0.1396(11) 0.6638(4)
N3 N 0.0510(2) -0.2306(11) 0.4848(4)
C1 C 0.4094(3) 0.3977(14) 0.5337(5)
C2 C 0.4396(3) 0.4064(13) 0.6103(5)
C3 C 0.4891(3) 0.4147(12) 0.6070(5)
H14 H 0.5032 0.4138 0.5576
C4 C 0.5188(3) 0.4244(12) 0.6755(5)
C5 C 0.4961(3) 0.4271(12) 0.7459(5)
C6 C 0.4201(3) 0.4127(13) 0.6830(5)
C7 C 0.3673(3) 0.3867(13) 0.6969(5)
C8 C 0.5728(3) 0.4349(13) 0.6692(5)
C9 C 0.5221(3) 0.4283(13) 0.8265(5)
C10 C 0.2950(3) -0.0198(13) 0.4608(5)
C11 C 0.2964(3) -0.0945(14) 0.5433(5)
C12 C 0.2552(3) -0.1656(13) 0.5792(5)
H15 H 0.2253 -0.1729 0.5498
C13 C 0.2577(3) -0.2244(13) 0.6562(5)
C14 C 0.3006(3) -0.2110(12) 0.6985(5)
H16 H 0.3029 -0.2515 0.7518
C15 C 0.3389(3) -0.0812(13) 0.5885(5)
H17 H 0.3673 -0.0313 0.5667
C16 C 0.2150(3) -0.3116(13) 0.6967(5)
C17 C 0.1270(3) -0.1781(13) 0.4306(5)
C18 C 0.0737(3) -0.2175(13) 0.4176(5)
C19 C 0.0487(3) -0.2218(13) 0.3446(5)
C20 C -0.0009(3) -0.2360(14) 0.3431(5)
H18 H -0.0189 -0.2383 0.2945
C21 C -0.0248(3) -0.2471(13) 0.4128(5)
C22 C 0.0033(3) -0.2421(13) 0.4832(4)
C23 C -0.0174(3) -0.2438(13) 0.5632(5)
C24 C 0.0737(3) -0.2167(14) 0.2684(5)
C25 C -0.0790(3) -0.2553(14) 0.4123(4)
Tb1B Tb 0.590314(14) -0.06409(6) 0.62197(2)
Tb1B_2 Tb 0.590314(14) 0.93591(6) 0.62197(2)
Tb1C Tb 0.409686(14) 0.43591(6) 0.87803(2)
Tb2C Tb 0.199052(16) -0.65907(6) 0.83988(2)
Tb3A Tb -0.097350(13) -0.74676(7) 0.38583(2)
Tb3A_2 Tb -0.097350(13) 0.25324(7) 0.38583(2)
Tb3C Tb 0.097350(13) -0.25324(7) 0.61417(2)
O3B O 0.4037(2) -0.2720(9) 0.3316(3)
O4B O 0.4086(2) 0.3989(9) 0.3379(3)
O6C O 0.4956(2) 0.0765(9) 0.3834(3)
O7C O 0.3549(2) 0.0730(9) 0.2662(3)
O11C O 0.1746(2) -0.2112(10) 0.1618(3)
O12C O 0.2236(2) -0.1013(9) 0.2600(3)
O14C O 0.1444(2) -0.3058(9) -0.0002(3)
O17A O 0.1018(2) -0.5934(10) 0.1013(4)
O18A O 0.0996(2) 0.0821(9) 0.0764(4)
O20C O 0.0128(2) -0.2478(10) 0.1208(3)
N1C N 0.4478(3) 0.0758(10) 0.2489(4)
N3C N 0.0510(2) -0.2694(11) -0.0152(4)
O27 O 0.2432(2) 0.3379(11) 0.6047(4)
H19 H 0.2723(13) 0.308(12) 0.616(5)
H20 H 0.239(3) 0.249(9) 0.570(4)
O28 O 0.3136(2) 0.5548(10) 0.3983(4)
H21 H 0.3081 0.6793 0.4018
H22 H 0.3404 0.5313 0.4230
loop_
_geom_bond_atom_site_label_1
_geom_bond_atom_site_label_2
_geom_bond_site_symmetry_1
_geom_bond_site_symmetry_2
Tb1 O1 1_555 1_555
Tb2 O10 1_555 1_555
Tb3 O15 1_555 1_555
O1 C1 1_555 1_555
O2 C1 1_555 1_555
O3 H1 1_555 1_555
O4 C8 1_555 1_555
O5 C9 1_555 1_555
O6 C9 1_555 1_555
O7 C7 1_555 1_555
O8 C7 1_555 1_555
O9 Tb1 1_555 1_555
O10 C10 1_555 1_555
O11 C16 1_555 1_555
O12 C16 1_555 1_555
O13 Tb2 1_555 1_555
O14 C17 1_555 1_555
O15 C24 1_555 1_555
O16 Tb3 1_555 1_555
O17 C25 1_555 1_555
O18 C25 1_555 1_555
O19 C23 1_555 1_555
O20 C23 1_555 1_555
O21 Tb1 1_555 1_555
H2 O21 1_555 1_555
H3 O21 1_555 1_555
O22 Tb2 1_555 1_555
H4 O22 1_555 1_555
H5 O22 1_555 1_555
O23 Tb2 1_555 1_555
H6 O23 1_555 1_555
H7 O23 1_555 1_555
O24 Tb2 1_555 1_555
H8 O24 1_555 1_555
H9 O24 1_555 1_555
O25 Tb2 1_555 1_555
H10 O25 1_555 1_555
H11 O25 1_555 1_555
O26 Tb2 1_555 1_555
H12 O26 1_555 1_555
H13 O26 1_555 1_555
N1 C5 1_555 1_555
N2 C14 1_555 1_555
N3 C18 1_555 1_555
C1 C2 1_555 1_555
C2 C3 1_555 1_555
C3 H14 1_555 1_555
C4 C3 1_555 1_555
C5 C4 1_555 1_555
C6 N1 1_555 1_555
C7 C6 1_555 1_555
C8 O3 1_555 1_555
C9 C5 1_555 1_555
C10 O9 1_555 1_555
C11 C10 1_555 1_555
C12 C11 1_555 1_555
H15 C12 1_555 1_555
C13 C12 1_555 1_555
C14 C13 1_555 1_555
H16 C14 1_555 1_555
C15 N2 1_555 1_555
H17 C15 1_555 1_555
C16 C13 1_555 1_555
C17 O13 1_555 1_555
C18 C17 1_555 1_555
C19 C18 1_555 1_555
C20 C19 1_555 1_555
H18 C20 1_555 1_555
C21 C20 1_555 1_555
C22 N3 1_555 1_555
C23 C22 1_555 1_555
C24 O16 1_555 1_555
C25 C21 1_555 1_555
O27 H19 1_555 1_555
H20 O27 1_555 1_555
O28 H21 1_555 1_555
H22 O28 1_555 1_555
Tb1B O3 1_555 1_555
Tb1B_2 O4 1_555 1_555
Tb1C O6 1_555 1_555
Tb2C O12 1_555 1_555
Tb3A O18 1_555 1_555
Tb3A_2 O17 1_555 1_555
Tb3C O11 1_555 1_555
O3B Tb1 1_555 1_555
O4B Tb1 1_555 1_555
O6C Tb1 1_555 1_555
O7C Tb1 1_555 1_555
O11C Tb3 1_555 1_555
O12C Tb2 1_555 1_555
O14C Tb3 1_555 1_555
O17A Tb3 1_555 1_555
O18A Tb3 1_555 1_555
O20C Tb3 1_555 1_555
N1C Tb1 1_555 1_555
N3C Tb3 1_555 1_555
O7 Tb1C 1_555 1_555
O14 Tb3C 1_555 1_555
O20 Tb3C 1_555 1_555
N1 Tb1C 1_555 1_555
N3 Tb3C 1_555 1_555
C2 C6 1_555 1_555
C4 C8 1_555 1_555
C11 C15 1_555 1_555
C19 C24 1_555 1_555
C21 C22 1_555 1_555

#END
