
#######################################################################
#
#                 Cambridge Crystallographic Data Centre
#                                CCDC 
#
#######################################################################
#
# If this CIF has been generated from an entry in the Cambridge 
# Structural Database, then it will include bibliographic, chemical, 
# crystal, experimental, refinement or atomic coordinate data resulting 
# from the CCDC's data processing and validation procedures.
#
#######################################################################

data_QOKMAF
_symmetry_cell_setting           triclinic
_symmetry_space_group_name_H-M   'P 1'
_symmetry_Int_Tables_number      1
_space_group_name_Hall           'P 1'
loop_
_symmetry_equiv_pos_site_id
_symmetry_equiv_pos_as_xyz
1 x,y,z
_cell_length_a                   8.047(4)
_cell_length_b                   9.393(5)
_cell_length_c                   12.944(7)
_cell_angle_alpha                101.94(2)
_cell_angle_beta                 93.56(3)
_cell_angle_gamma                93.30(3)
_cell_volume                     952.877
loop_
_atom_site_label
_atom_site_type_symbol
_atom_site_fract_x
_atom_site_fract_y
_atom_site_fract_z
In1 In 0.13172(12) 0.98863(11) 0.36080(10)
In2 In -0.44857(12) 1.07131(11) 0.51276(10)
Cl1 Cl -0.1595(7) 1.0280(7) 0.4375(6)
Cl2 Cl 0.1108(7) 0.7349(6) 0.3671(5)
Cl3 Cl 0.4331(6) 0.9915(5) 0.3141(4)
Cl4 Cl 0.2495(6) 1.0687(5) 0.5584(4)
Cl5 Cl -0.4291(7) 1.3273(5) 0.5052(4)
P1 P -0.0392(7) 0.9504(5) 0.1781(4)
P2 P 0.1091(6) 1.2592(5) 0.3435(4)
P3 P -0.4292(7) 0.8010(6) 0.5318(5)
P4 P -0.2782(6) 1.1086(5) 0.6949(4)
C1 C 0.068(3) 0.920(3) 0.063(2)
H1 H 0.1610 0.9943 0.0700
H2 H -0.0081 0.9250 0.0020
H3 H 0.1119 0.8230 0.0524
C2 C -0.205(3) 0.811(2) 0.158(2)
H4 H -0.2694 0.8227 0.2207
H5 H -0.1587 0.7148 0.1459
H6 H -0.2785 0.8174 0.0960
C3 C -0.142(2) 1.1250(18) 0.1819(14)
C4 C -0.271(2) 1.125(2) 0.1139(17)
H7 H -0.3054 1.0373 0.0638
C5 C -0.357(3) 1.246(2) 0.1130(19)
H8 H -0.4557 1.2415 0.0679
C6 C -0.292(2) 1.384(2) 0.1838(18)
H9 H -0.3421 1.4732 0.1818
C7 C -0.156(3) 1.380(2) 0.254(2)
H10 H -0.1162 1.4670 0.3025
C8 C -0.073(2) 1.251(2) 0.2549(15)
C9 C 0.072(3) 1.3841(19) 0.4643(14)
H11 H 0.1688 1.3918 0.5155
H12 H -0.0273 1.3480 0.4939
H13 H 0.0543 1.4804 0.4492
C10 C 0.287(3) 1.338(2) 0.2830(17)
H14 H 0.3895 1.3434 0.3293
H15 H 0.2642 1.4368 0.2744
H16 H 0.3016 1.2767 0.2137
C11 C -0.398(2) 0.669(2) 0.4105(17)
H17 H -0.3100 0.7085 0.3731
H18 H -0.5022 0.6504 0.3649
H19 H -0.3655 0.5777 0.4285
C12 C -0.592(2) 0.720(2) 0.5940(16)
H20 H -0.6140 0.7864 0.6597
H21 H -0.5567 0.6279 0.6103
H22 H -0.6935 0.6998 0.5461
C13 C -0.245(2) 0.8072(19) 0.6252(16)
C14 C -0.167(2) 0.6794(19) 0.6271(14)
H23 H -0.2110 0.5897 0.5830
C15 C -0.023(3) 0.684(2) 0.6944(17)
H24 H 0.0344 0.5975 0.6912
C16 C 0.033(2) 0.7986(19) 0.7593(15)
H25 H 0.1251 0.7945 0.8081
C17 C -0.038(3) 0.934(2) 0.7609(16)
H26 H 0.0102 1.0215 0.8061
C18 C -0.185(2) 0.936(2) 0.6928(18)
C19 C -0.401(3) 1.143(2) 0.8135(15)
H27 H -0.4535 1.2358 0.8178
H28 H -0.3271 1.1485 0.8773
H29 H -0.4879 1.0638 0.8077
C20 C -0.110(2) 1.250(2) 0.7194(17)
H30 H -0.1559 1.3452 0.7222
H31 H -0.0345 1.2320 0.6622
H32 H -0.0479 1.2503 0.7870
In2_2 In 0.55143(12) 1.07131(11) 0.51276(10)
Cl3_2 Cl -0.5669(6) 0.9915(5) 0.3141(4)
Cl4_2 Cl -0.7505(6) 1.0687(5) 0.5584(4)
In3 In 0.46064(17) 0.58708(15) 0.91999(13)
Cl6 Cl 0.4621(7) 0.8371(6) 0.9113(5)
Cl7 Cl 0.3079(8) 0.4451(7) 0.7746(6)
Cl8 Cl 0.3462(10) 0.5680(11) 1.0793(7)
Cl9 Cl 0.7392(7) 0.5242(7) 0.9236(6)
loop_
_geom_bond_atom_site_label_1
_geom_bond_atom_site_label_2
_geom_bond_site_symmetry_1
_geom_bond_site_symmetry_2
In1 Cl1 1_555 1_555
In2 Cl1 1_555 1_555
In3 Cl6 1_555 1_555
Cl2 In1 1_555 1_555
Cl3 In1 1_555 1_555
Cl4 In1 1_555 1_555
Cl5 In2 1_555 1_555
Cl7 In3 1_555 1_555
Cl8 In3 1_555 1_555
Cl9 In3 1_555 1_555
P1 In1 1_555 1_555
P2 In1 1_555 1_555
P3 In2 1_555 1_555
P4 In2 1_555 1_555
C1 P1 1_555 1_555
H1 C1 1_555 1_555
H2 C1 1_555 1_555
H3 C1 1_555 1_555
C2 P1 1_555 1_555
H4 C2 1_555 1_555
H5 C2 1_555 1_555
H6 C2 1_555 1_555
C3 P1 1_555 1_555
C4 C3 1_555 1_555
H7 C4 1_555 1_555
C5 C4 1_555 1_555
H8 C5 1_555 1_555
C6 C5 1_555 1_555
H9 C6 1_555 1_555
C7 C6 1_555 1_555
H10 C7 1_555 1_555
C8 P2 1_555 1_555
C9 P2 1_555 1_555
H11 C9 1_555 1_555
H12 C9 1_555 1_555
H13 C9 1_555 1_555
C10 P2 1_555 1_555
H14 C10 1_555 1_555
H15 C10 1_555 1_555
H16 C10 1_555 1_555
C11 P3 1_555 1_555
H17 C11 1_555 1_555
H18 C11 1_555 1_555
H19 C11 1_555 1_555
C12 P3 1_555 1_555
H20 C12 1_555 1_555
H21 C12 1_555 1_555
H22 C12 1_555 1_555
C13 P3 1_555 1_555
C14 C13 1_555 1_555
H23 C14 1_555 1_555
C15 C14 1_555 1_555
H24 C15 1_555 1_555
C16 C15 1_555 1_555
H25 C16 1_555 1_555
C17 C16 1_555 1_555
H26 C17 1_555 1_555
C18 P4 1_555 1_555
C19 P4 1_555 1_555
H27 C19 1_555 1_555
H28 C19 1_555 1_555
H29 C19 1_555 1_555
C20 P4 1_555 1_555
H30 C20 1_555 1_555
H31 C20 1_555 1_555
H32 C20 1_555 1_555
In2_2 Cl3 1_555 1_555
Cl3_2 In2 1_555 1_555
Cl4_2 In2 1_555 1_555
Cl4 In2_2 1_555 1_555
C3 C8 1_555 1_555
C7 C8 1_555 1_555
C13 C18 1_555 1_555
C17 C18 1_555 1_555

#END
