
#######################################################################
#
#                 Cambridge Crystallographic Data Centre
#                                CCDC 
#
#######################################################################
#
# If this CIF has been generated from an entry in the Cambridge 
# Structural Database, then it will include bibliographic, chemical, 
# crystal, experimental, refinement or atomic coordinate data resulting 
# from the CCDC's data processing and validation procedures.
#
#######################################################################

data_QOKSIS
_symmetry_cell_setting           monoclinic
_symmetry_space_group_name_H-M   'P 2/n'
_symmetry_Int_Tables_number      13
_space_group_name_Hall           '-P 2yac'
loop_
_symmetry_equiv_pos_site_id
_symmetry_equiv_pos_as_xyz
1 x,y,z
2 1/2+x,-y,1/2+z
3 -x,-y,-z
4 1/2-x,y,1/2-z
_cell_length_a                   9.243(1)
_cell_length_b                   14.793(2)
_cell_length_c                   10.560(1)
_cell_angle_alpha                90
_cell_angle_beta                 95.94(2)
_cell_angle_gamma                90
_cell_volume                     1436.13
loop_
_atom_site_label
_atom_site_type_symbol
_atom_site_fract_x
_atom_site_fract_y
_atom_site_fract_z
Re1 Re 0.7500 0.73388(2) 0.7500
O1 O 0.8905(4) 0.7358(2) 0.8751(3)
N1 N 0.9058(4) 0.7351(3) 0.6135(4)
N2 N 1.1027(6) 0.7446(3) 0.4318(5)
N3 N 0.7500 0.5894(4) 0.7500
N4 N 0.7500 0.4014(4) 0.7500
N5 N 0.7500 0.8789(4) 0.7500
N6 N 0.7500 1.0663(4) 0.7500
C1 C 1.0362(7) 0.7717(4) 0.6401(5)
H1 H 1.0636(7) 0.7941(4) 0.7214(5)
C2 C 1.1317(7) 0.7767(5) 0.5480(6)
H2 H 1.2214(7) 0.8043(5) 0.5691(6)
C3 C 0.9740(7) 0.7062(5) 0.4092(6)
H3 H 0.9487(7) 0.6809(5) 0.3293(6)
C4 C 0.8756(6) 0.7016(5) 0.4974(5)
H4 H 0.7859(6) 0.6744(5) 0.4754(5)
C5 C 0.8301(7) 0.5416(4) 0.8384(6)
H5 H 0.8899(7) 0.5715(4) 0.9012(6)
C6 C 0.8255(8) 0.4493(4) 0.8379(7)
H6 H 0.8790(8) 0.4187(4) 0.9039(7)
C7 C 0.7821(8) 0.9265(4) 0.8559(5)
H7 H 0.8047(8) 0.8964(4) 0.9327(5)
C8 C 0.7824(9) 1.0193(4) 0.8538(6)
H8 H 0.8067(9) 1.0502(4) 0.9298(6)
Na1 Na 1.2500 0.7635(2) 0.2500
O2 O 1.4619(6) 0.7768(4) 0.3899(5)
H9 H 1.4927(76) 0.7586(45) 0.4732(27)
H10 H 1.5324(58) 0.8146(46) 0.3606(60)
C6C C 0.6745(8) 0.4493(4) 0.6621(7)
C5C C 0.6699(7) 0.5416(4) 0.6616(6)
H5C H 0.6101(7) 0.5715(4) 0.5988(6)
H6C H 0.6210(8) 0.4187(4) 0.5961(7)
C8C C 0.7176(9) 1.0193(4) 0.6462(6)
C7C C 0.7179(8) 0.9265(4) 0.6441(5)
H7C H 0.6953(8) 0.8964(4) 0.5673(5)
H8C H 0.6933(9) 1.0502(4) 0.5702(6)
O1C O 0.6095(4) 0.7358(2) 0.6249(3)
N1C N 0.5942(4) 0.7351(3) 0.8865(4)
N2C N 0.3973(6) 0.7446(3) 1.0682(5)
C1C C 0.4638(7) 0.7717(4) 0.8599(5)
H1C H 0.4364(7) 0.7941(4) 0.7786(5)
C2C C 0.3683(7) 0.7767(5) 0.9520(6)
H2C H 0.2786(7) 0.8043(5) 0.9309(6)
C3C C 0.5260(7) 0.7062(5) 1.0908(6)
H3C H 0.5513(7) 0.6809(5) 1.1707(6)
C4C C 0.6244(6) 0.7016(5) 1.0026(5)
H4C H 0.7141(6) 0.6744(5) 1.0246(5)
O2C O 1.0381(6) 0.7768(4) 0.1101(5)
H9C H 1.0073(76) 0.7586(45) 0.0268(27)
H10C H 0.9676(58) 0.8146(46) 0.1394(60)
Na1A Na 0.7500 0.2365(2) 0.7500
Na1A_2 Na 0.7500 1.2365(2) 0.7500
N2C_2 N 1.3973(6) 0.7446(3) 0.0682(5)
N4A N 1.2500 0.5986(4) 0.2500
N6A N 1.2500 0.9337(4) 0.2500
Na1_2 Na 0.2500 0.7635(2) 1.2500
P1 P 0.7500 0.96558(15) 0.2500
F4 F 0.8666(10) 0.9695(9) 0.3559(9)
F5 F 0.8275(14) 0.9043(9) 0.1760(9)
F6 F 0.8216(15) 1.0398(10) 0.1857(10)
F4C F 0.6334(10) 0.9695(9) 0.1441(9)
F5C F 0.6725(14) 0.9043(9) 0.3240(9)
F6C F 0.6784(15) 1.0398(10) 0.3143(10)
P2 P 0.7500 0.4727(2) 0.2500
F1 F 0.8910(7) 0.4732(5) 0.3471(7)
F2 F 0.8215(7) 0.5467(5) 0.1670(6)
F3 F 0.8200(8) 0.3978(5) 0.1711(8)
F1C F 0.6090(7) 0.4732(5) 0.1529(7)
F2C F 0.6785(7) 0.5467(5) 0.3330(6)
F3C F 0.6800(8) 0.3978(5) 0.3289(8)
loop_
_geom_bond_atom_site_label_1
_geom_bond_atom_site_label_2
_geom_bond_site_symmetry_1
_geom_bond_site_symmetry_2
Re1 O1 1_555 1_555
N1 Re1 1_555 1_555
N2 C2 1_555 1_555
N3 Re1 1_555 1_555
N4 C6 1_555 1_555
N5 Re1 1_555 1_555
N6 C8 1_555 1_555
C1 N1 1_555 1_555
H1 C1 1_555 1_555
C2 C1 1_555 1_555
H2 C2 1_555 1_555
C3 N2 1_555 1_555
H3 C3 1_555 1_555
C4 N1 1_555 1_555
H4 C4 1_555 1_555
C5 N3 1_555 1_555
H5 C5 1_555 1_555
C6 C5 1_555 1_555
H6 C6 1_555 1_555
C7 N5 1_555 1_555
H7 C7 1_555 1_555
C8 C7 1_555 1_555
H8 C8 1_555 1_555
P1 F4 1_555 1_555
P2 F1 1_555 1_555
Na1 N2 1_555 1_555
F2 P2 1_555 1_555
F3 P2 1_555 1_555
F5 P1 1_555 1_555
F6 P1 1_555 1_555
O2 Na1 1_555 1_555
H9 O2 1_555 1_555
H10 O2 1_555 1_555
C6C N4 1_555 1_555
C5C N3 1_555 1_555
H5C C5C 1_555 1_555
H6C C6C 1_555 1_555
C8C N6 1_555 1_555
C7C N5 1_555 1_555
H7C C7C 1_555 1_555
H8C C8C 1_555 1_555
F4C P1 1_555 1_555
F5C P1 1_555 1_555
F6C P1 1_555 1_555
F1C P2 1_555 1_555
F2C P2 1_555 1_555
F3C P2 1_555 1_555
O1C Re1 1_555 1_555
N1C Re1 1_555 1_555
N2C C2C 1_555 1_555
C1C N1C 1_555 1_555
H1C C1C 1_555 1_555
C2C C1C 1_555 1_555
H2C C2C 1_555 1_555
C3C N2C 1_555 1_555
H3C C3C 1_555 1_555
C4C N1C 1_555 1_555
H4C C4C 1_555 1_555
O2C Na1 1_555 1_555
H9C O2C 1_555 1_555
H10C O2C 1_555 1_555
Na1A N4 1_555 1_555
Na1A_2 N6 1_555 1_555
N2C_2 Na1 1_555 1_555
N4A Na1 1_555 1_555
N6A Na1 1_555 1_555
Na1_2 N2C 1_555 1_555
C3 C4 1_555 1_555
C6C C5C 1_555 1_555
C8C C7C 1_555 1_555
C3C C4C 1_555 1_555

#END
