
#######################################################################
#
#                 Cambridge Crystallographic Data Centre
#                                CCDC 
#
#######################################################################
#
# If this CIF has been generated from an entry in the Cambridge 
# Structural Database, then it will include bibliographic, chemical, 
# crystal, experimental, refinement or atomic coordinate data resulting 
# from the CCDC's data processing and validation procedures.
#
#######################################################################

data_QOKVAN
_symmetry_cell_setting           monoclinic
_symmetry_space_group_name_H-M   'P 21'
_symmetry_Int_Tables_number      4
_space_group_name_Hall           'P 2yb'
loop_
_symmetry_equiv_pos_site_id
_symmetry_equiv_pos_as_xyz
1 x,y,z
2 -x,1/2+y,-z
_cell_length_a                   8.8815(11)
_cell_length_b                   6.5707(5)
_cell_length_c                   10.630(2)
_cell_angle_alpha                90
_cell_angle_beta                 100.40(2)
_cell_angle_gamma                90
_cell_volume                     610.151
loop_
_atom_site_label
_atom_site_type_symbol
_atom_site_fract_x
_atom_site_fract_y
_atom_site_fract_z
Mo1 Mo 0.49323(4) 0.5130(2) 0.83277(4)
Fe1 Fe 0.30932(7) 0.0136(5) 0.81853(6)
N1 N 0.0847(4) 0.0115(35) 0.8650(4)
N2 N 0.1595(4) 0.0227(33) 0.6305(4)
O1 O 0.3851(13) 0.2888(18) 0.7955(10)
O2 O 0.3733(11) 0.7290(18) 0.7837(9)
O3 O 0.5667(4) 0.5151(30) 0.9967(3)
O4 O 0.6428(5) 0.4974(38) 0.7523(4)
C1 C 0.0496(6) 0.0272(29) 0.9818(5)
H1 H 0.1273(6) 0.0518(29) 1.0513(5)
C2 C -0.1016(6) 0.0073(51) 1.0020(5)
H2 H -0.1218(6) -0.0005(51) 1.0847(5)
C3 C -0.2186(6) -0.0003(30) 0.8999(5)
H3 H -0.3193(6) -0.0084(30) 0.9128(5)
C4 C -0.1871(6) 0.0039(37) 0.7746(5)
C5 C -0.3023(6) -0.0036(29) 0.6618(5)
H4 H -0.4035(6) -0.0295(29) 0.6684(5)
C6 C -0.2644(6) 0.0271(35) 0.5450(5)
H5 H -0.3406(6) 0.0567(35) 0.4752(5)
C7 C -0.1082(5) 0.0142(45) 0.5282(5)
C8 C -0.0626(6) 0.0061(40) 0.4086(5)
H6 H -0.1356(6) -0.0061(40) 0.3344(5)
C9 C 0.0893(6) 0.0162(44) 0.4017(5)
H7 H 0.1205(6) 0.0287(44) 0.3231(5)
C10 C 0.1972(6) 0.0073(38) 0.5151(5)
H8 H 0.2997(6) -0.0101(38) 0.5097(5)
C11 C 0.0083(5) 0.0138(41) 0.6366(4)
C12 C -0.0314(5) 0.0165(41) 0.7625(4)
O2_2 O 0.3733(11) -0.2710(18) 0.7837(9)
O3A O 0.4333(4) 0.0151(30) 1.0033(3)
Fe1_2 Fe 0.30932(7) 1.0136(5) 0.81853(6)
Fe1A Fe 0.69068(7) 0.5136(5) 1.18147(6)
loop_
_geom_bond_atom_site_label_1
_geom_bond_atom_site_label_2
_geom_bond_site_symmetry_1
_geom_bond_site_symmetry_2
Mo1 O1 1_555 1_555
Fe1 N1 1_555 1_555
N1 C1 1_555 1_555
N2 Fe1 1_555 1_555
O1 Fe1 1_555 1_555
O2 Mo1 1_555 1_555
O3 Mo1 1_555 1_555
O4 Mo1 1_555 1_555
C1 H1 1_555 1_555
C2 C1 1_555 1_555
H2 C2 1_555 1_555
C3 C2 1_555 1_555
H3 C3 1_555 1_555
C4 C3 1_555 1_555
C5 C4 1_555 1_555
H4 C5 1_555 1_555
C6 C5 1_555 1_555
H5 C6 1_555 1_555
C7 C6 1_555 1_555
C8 C7 1_555 1_555
H6 C8 1_555 1_555
C9 C8 1_555 1_555
H7 C9 1_555 1_555
C10 N2 1_555 1_555
H8 C10 1_555 1_555
C11 N2 1_555 1_555
C12 N1 1_555 1_555
O2_2 Fe1 1_555 1_555
O3A Fe1 1_555 1_555
Fe1_2 O2 1_555 1_555
Fe1A O3 1_555 1_555
C4 C12 1_555 1_555
C7 C11 1_555 1_555
C9 C10 1_555 1_555
C11 C12 1_555 1_555

#END
