
#######################################################################
#
#                 Cambridge Crystallographic Data Centre
#                                CCDC 
#
#######################################################################
#
# If this CIF has been generated from an entry in the Cambridge 
# Structural Database, then it will include bibliographic, chemical, 
# crystal, experimental, refinement or atomic coordinate data resulting 
# from the CCDC's data processing and validation procedures.
#
#######################################################################

data_QOKVAP
_symmetry_cell_setting           triclinic
_symmetry_space_group_name_H-M   'P -1'
_symmetry_Int_Tables_number      2
_space_group_name_Hall           '-P 1'
loop_
_symmetry_equiv_pos_site_id
_symmetry_equiv_pos_as_xyz
1 x,y,z
2 -x,-y,-z
_cell_length_a                   7.7661(8)
_cell_length_b                   9.6245(10)
_cell_length_c                   9.9385(10)
_cell_angle_alpha                107.2290(10)
_cell_angle_beta                 110.7940(10)
_cell_angle_gamma                98.0680(10)
_cell_volume                     637.74
loop_
_atom_site_label
_atom_site_type_symbol
_atom_site_fract_x
_atom_site_fract_y
_atom_site_fract_z
Bi1 Bi 0.19239(3) 0.68297(3) 0.73247(3)
Cl1 Cl 0.0481(3) 0.8878(2) 0.8435(3)
Cl2 Cl 0.0411(3) 0.33937(19) 0.5696(2)
Cl3 Cl 0.5024(3) 0.7299(2) 0.9706(2)
N1 N 0.0577(9) 0.5662(7) 0.9087(8)
N2 N 0.4077(9) 0.5744(6) 0.5841(8)
N3 N 0.3799(8) 0.9047(7) 0.7160(8)
N4 N 0.5787(11) 1.1491(8) 0.6833(10)
C1 C -0.0659(12) 0.6097(9) 0.9654(9)
H1 H -0.1161 0.6892 0.9444
C2 C 0.1247(12) 0.4568(10) 0.9456(10)
H2 H 0.2156 0.4227 0.9103
C3 C 0.5120(10) 0.4845(8) 0.6323(8)
H3 H 0.5229 0.4708 0.7255
C4 C 0.6051(10) 0.4103(8) 0.5473(9)
H4 H 0.6788 0.3480 0.5844
C5 C 0.5718(9) 0.9403(8) 0.7667(9)
H5 H 0.6415 0.8820 0.8155
C6 C 0.2899(10) 0.9917(8) 0.6510(9)
H6 H 0.1546 0.9705 0.6146
C7 C 0.6704(11) 1.0621(9) 0.7484(9)
H7 H 0.8055 1.0834 0.7832
C8 C 0.3899(11) 1.1129(9) 0.6354(10)
H8 H 0.3204 1.1724 0.5884
N1A N -0.0577(9) 0.4338(7) 1.0913(8)
C1A C 0.0659(12) 0.3903(9) 1.0346(9)
H1A H 0.1161 0.3108 1.0556
C2A C -0.1247(12) 0.5432(10) 1.0544(10)
H2A H -0.2156 0.5773 1.0897
N2A N 0.5923(9) 0.4256(6) 0.4159(8)
C3A C 0.4880(10) 0.5155(8) 0.3677(8)
H3A H 0.4771 0.5292 0.2745
C4A C 0.3949(10) 0.5897(8) 0.4527(9)
H4A H 0.3212 0.6520 0.4156
Bi1A Bi -0.19239(3) 0.31703(3) 0.26753(3)
Cl1A Cl -0.0481(3) 0.1122(2) 0.1565(3)
Cl2A Cl -0.0411(3) 0.66063(19) 0.4304(2)
Cl3A Cl -0.5024(3) 0.2701(2) 0.0294(2)
N3A N -0.3799(8) 0.0953(7) 0.2840(8)
N4A N -0.5787(11) -0.1491(8) 0.3167(10)
C5A C -0.5718(9) 0.0597(8) 0.2333(9)
H5A H -0.6415 0.1180 0.1845
C6A C -0.2899(10) 0.0083(8) 0.3490(9)
H6A H -0.1546 0.0295 0.3854
C7A C -0.6704(11) -0.0621(9) 0.2516(9)
H7A H -0.8055 -0.0834 0.2168
C8A C -0.3899(11) -0.1129(9) 0.3646(10)
H8A H -0.3204 -0.1724 0.4116
Bi1A_2 Bi -0.19239(3) 0.31703(3) 1.26753(3)
Bi1A_3 Bi 0.80761(3) 0.31703(3) 0.26753(3)
N1A_2 N -0.0577(9) 0.4338(7) 0.0913(8)
N2A_2 N -0.4077(9) 0.4256(6) 0.4159(8)
loop_
_geom_bond_atom_site_label_1
_geom_bond_atom_site_label_2
_geom_bond_site_symmetry_1
_geom_bond_site_symmetry_2
Bi1 Cl1 1_555 1_555
Cl2 Bi1 1_555 1_555
Cl3 Bi1 1_555 1_555
N1 Bi1 1_555 1_555
N2 Bi1 1_555 1_555
N3 Bi1 1_555 1_555
N4 C7 1_555 1_555
C1 N1 1_555 1_555
H1 C1 1_555 1_555
C2 N1 1_555 1_555
H2 C2 1_555 1_555
C3 N2 1_555 1_555
H3 C3 1_555 1_555
C4 C3 1_555 1_555
H4 C4 1_555 1_555
C5 N3 1_555 1_555
H5 C5 1_555 1_555
C6 N3 1_555 1_555
H6 C6 1_555 1_555
C7 C5 1_555 1_555
H7 C7 1_555 1_555
C8 N4 1_555 1_555
H8 C8 1_555 1_555
N1A C1A 1_555 1_555
C1A C2 1_555 1_555
H1A C1A 1_555 1_555
C2A C1 1_555 1_555
H2A C2A 1_555 1_555
N2A C4 1_555 1_555
C3A N2A 1_555 1_555
H3A C3A 1_555 1_555
C4A N2 1_555 1_555
H4A C4A 1_555 1_555
Bi1A Cl2 1_555 1_555
Cl1A Bi1A 1_555 1_555
Cl2A Bi1 1_555 1_555
Cl3A Bi1A 1_555 1_555
N3A Bi1A 1_555 1_555
N4A C7A 1_555 1_555
C5A N3A 1_555 1_555
H5A C5A 1_555 1_555
C6A N3A 1_555 1_555
H6A C6A 1_555 1_555
C7A C5A 1_555 1_555
H7A C7A 1_555 1_555
C8A N4A 1_555 1_555
H8A C8A 1_555 1_555
Bi1A_2 N1A 1_555 1_555
Bi1A_3 N2A 1_555 1_555
N1A_2 Bi1A 1_555 1_555
N2A_2 Bi1A 1_555 1_555
C6 C8 1_555 1_555
N1A C2A 1_555 1_555
C3A C4A 1_555 1_555
Bi1A Cl2A 1_555 1_555
C6A C8A 1_555 1_555

#END
