
#######################################################################
#
#                 Cambridge Crystallographic Data Centre
#                                CCDC 
#
#######################################################################
#
# If this CIF has been generated from an entry in the Cambridge 
# Structural Database, then it will include bibliographic, chemical, 
# crystal, experimental, refinement or atomic coordinate data resulting 
# from the CCDC's data processing and validation procedures.
#
#######################################################################

data_QOLCAW
_symmetry_cell_setting           monoclinic
_symmetry_space_group_name_H-M   'P 21/n'
_symmetry_Int_Tables_number      14
_space_group_name_Hall           '-P 2yn'
loop_
_symmetry_equiv_pos_site_id
_symmetry_equiv_pos_as_xyz
1 x,y,z
2 1/2-x,1/2+y,1/2-z
3 -x,-y,-z
4 1/2+x,1/2-y,1/2+z
_cell_length_a                   13.926(1)
_cell_length_b                   19.033(1)
_cell_length_c                   14.118(1)
_cell_angle_alpha                90
_cell_angle_beta                 118.47(1)
_cell_angle_gamma                90
_cell_volume                     3289.49
loop_
_atom_site_label
_atom_site_type_symbol
_atom_site_fract_x
_atom_site_fract_y
_atom_site_fract_z
K1 K 0.38998(3) 0.18545(2) 0.13970(4)
N1 N 0.96071(12) 0.21203(7) 0.40079(13)
N2 N 0.78129(17) -0.06052(9) 0.1599(2)
N3 N 0.52263(14) 0.08759(9) 0.10901(16)
O1 O 0.83645(11) 0.24960(7) 0.45188(12)
O2 O 0.60980(11) 0.19589(7) 0.30904(13)
O3 O 0.68005(11) 0.09125(7) 0.37898(12)
C1 C 0.98729(15) 0.17038(8) 0.33478(16)
C2 C 1.09019(17) 0.17617(11) 0.3394(2)
H1 H 1.1383(19) 0.2050(12) 0.3889(19)
C3 C 1.11408(18) 0.13858(11) 0.2703(2)
H2 H 1.1845(19) 0.1454(12) 0.2734(19)
C4 C 1.03660(18) 0.09525(11) 0.1929(2)
H3 H 1.0476(19) 0.0737(12) 0.1384(19)
C5 C 0.93623(17) 0.08812(10) 0.18818(17)
H4 H 0.8801(17) 0.0595(11) 0.1322(17)
C6 C 0.90947(14) 0.12332(8) 0.26008(15)
C7 C 0.80485(14) 0.11481(8) 0.25818(15)
C8 C 0.78205(14) 0.15948(8) 0.32262(15)
C9 C 0.85814(14) 0.21060(8) 0.39358(15)
C10 C 1.04266(17) 0.25934(10) 0.48076(19)
H5 H 1.004(2) 0.2965(12) 0.492(2)
H6 H 1.0829(18) 0.2848(10) 0.4450(17)
C11 C 1.1190(2) 0.22138(17) 0.5819(2)
H7 H 1.176(2) 0.2524(14) 0.627(2)
H8 H 1.151(2) 0.1822(13) 0.570(2)
H9 H 1.083(3) 0.2059(17) 0.625(3)
C12 C 0.68090(15) 0.15215(9) 0.33408(16)
C13 C 0.5849(2) 0.07420(15) 0.3918(3)
H10 H 0.571(2) 0.1122(14) 0.432(2)
H11 H 0.516(2) 0.0769(13) 0.323(2)
C14 C 0.6039(3) 0.00451(17) 0.4439(3)
H12 H 0.620(3) -0.033(2) 0.411(3)
H13 H 0.525(3) -0.0094(14) 0.434(2)
H14 H 0.662(3) 0.0046(17) 0.518(3)
C15 C 0.72708(15) 0.06299(9) 0.18859(16)
C16 C 0.75766(16) -0.00458(10) 0.17152(19)
C17 C 0.61414(16) 0.07515(9) 0.14513(16)
K2 K 0.86466(4) -0.17397(2) 0.09745(4)
N4 N 0.44467(12) -0.20746(7) 0.37369(13)
N5 N 0.27147(17) 0.06896(9) 0.1383(2)
N6 N 0.01138(14) -0.07947(9) 0.07981(16)
O4 O 0.31655(11) -0.24530(6) 0.41946(12)
O5 O 0.09077(11) -0.18993(7) 0.26800(14)
O6 O 0.16391(11) -0.08941(7) 0.35322(12)
C18 C 0.47398(15) -0.16577(8) 0.30975(16)
C19 C 0.57666(17) -0.17333(11) 0.31479(19)
H15 H 0.6235(19) -0.2024(12) 0.3629(19)
C20 C 0.60240(18) -0.13573(11) 0.2467(2)
H16 H 0.678(2) -0.1426(12) 0.2533(19)
C21 C 0.52770(18) -0.09045(10) 0.1714(2)
H17 H 0.5425(18) -0.0689(11) 0.1227(17)
C22 C 0.42723(18) -0.08125(10) 0.16620(19)
H18 H 0.3778(18) -0.0516(11) 0.1169(18)
C23 C 0.39863(14) -0.11713(8) 0.23653(15)
C24 C 0.29290(14) -0.10787(8) 0.23241(15)
C25 C 0.26701(14) -0.15357(8) 0.29326(15)
C26 C 0.34134(14) -0.20562(8) 0.36401(15)
C27 C 0.52548(18) -0.25505(11) 0.4546(2)
H19 H 0.483(2) -0.2917(12) 0.4632(19)
H20 H 0.5646(19) -0.2814(11) 0.4215(18)
C28 C 0.6019(3) -0.21748(19) 0.5568(3)
H21 H 0.634(2) -0.1789(14) 0.546(2)
H22 H 0.559(3) -0.2022(17) 0.592(3)
H23 H 0.656(3) -0.2483(14) 0.604(2)
C29 C 0.16415(15) -0.14722(9) 0.30164(16)
C30 C 0.0659(3) -0.07605(16) 0.3630(3)
H24 H 0.050(2) -0.1130(15) 0.398(2)
H25 H 0.001(3) -0.0740(15) 0.295(3)
C31 C 0.0872(3) -0.0127(2) 0.4323(3)
H26 H 0.011(3) -0.0016(15) 0.421(3)
H27 H 0.114(4) 0.033(2) 0.409(4)
H28 H 0.145(3) -0.0136(17) 0.505(3)
C32 C 0.21611(15) -0.05512(9) 0.16325(17)
C33 C 0.24832(16) 0.01275(10) 0.1490(2)
C34 C 0.10306(16) -0.06691(9) 0.11726(16)
K1C K 0.88998(3) 0.31455(2) 0.63970(4)
K1B K 0.61002(3) -0.18545(2) -0.13970(4)
K1A K 0.11002(3) -0.31455(2) 0.36030(4)
O1C O 0.33645(11) 0.25040(7) -0.04812(12)
O1A O 0.66355(11) -0.25040(7) 0.04812(12)
O2A O 0.89020(11) -0.30411(7) 0.19096(13)
K2B K 0.13534(4) 0.17397(2) -0.09745(4)
K2A K 0.63534(4) 0.32603(2) 0.40255(4)
K2_2 K -0.13534(4) -0.17397(2) 0.09745(4)
K2C K 0.36466(4) -0.32603(2) 0.59745(4)
N6_2 N 1.01138(14) -0.07947(9) 0.07981(16)
O4A O 0.18345(11) 0.25470(6) 0.08054(12)
O4C O 0.81655(11) -0.25470(6) -0.08054(12)
O5A O 0.40923(11) 0.31007(7) 0.23200(14)
O5_2 O 1.09077(11) -0.18993(7) 0.26800(14)
loop_
_geom_bond_atom_site_label_1
_geom_bond_atom_site_label_2
_geom_bond_site_symmetry_1
_geom_bond_site_symmetry_2
K1 N3 1_555 1_555
N1 C1 1_555 1_555
N2 C16 1_555 1_555
N3 C17 1_555 1_555
O1 C9 1_555 1_555
O2 K1 1_555 1_555
O3 C12 1_555 1_555
C1 C2 1_555 1_555
C2 H1 1_555 1_555
C3 C2 1_555 1_555
H2 C3 1_555 1_555
C4 C3 1_555 1_555
H3 C4 1_555 1_555
C5 C4 1_555 1_555
H4 C5 1_555 1_555
C6 C1 1_555 1_555
C7 C6 1_555 1_555
C8 C7 1_555 1_555
C9 N1 1_555 1_555
C10 N1 1_555 1_555
H5 C10 1_555 1_555
H6 C10 1_555 1_555
C11 C10 1_555 1_555
H7 C11 1_555 1_555
H8 C11 1_555 1_555
H9 C11 1_555 1_555
C12 O2 1_555 1_555
C13 O3 1_555 1_555
H10 C13 1_555 1_555
H11 C13 1_555 1_555
C14 C13 1_555 1_555
H12 C14 1_555 1_555
H13 C14 1_555 1_555
H14 C14 1_555 1_555
C15 C7 1_555 1_555
C16 C15 1_555 1_555
C17 C15 1_555 1_555
K2 N2 1_555 1_555
N4 C18 1_555 1_555
N5 K1 1_555 1_555
N6 C34 1_555 1_555
O4 C26 1_555 1_555
O5 C29 1_555 1_555
O6 C29 1_555 1_555
C18 C19 1_555 1_555
C19 H15 1_555 1_555
C20 C19 1_555 1_555
H16 C20 1_555 1_555
C21 C20 1_555 1_555
H17 C21 1_555 1_555
C22 C21 1_555 1_555
H18 C22 1_555 1_555
C23 C18 1_555 1_555
C24 C23 1_555 1_555
C25 C24 1_555 1_555
C26 N4 1_555 1_555
C27 N4 1_555 1_555
H19 C27 1_555 1_555
H20 C27 1_555 1_555
C28 C27 1_555 1_555
H21 C28 1_555 1_555
H22 C28 1_555 1_555
H23 C28 1_555 1_555
C29 C25 1_555 1_555
C30 O6 1_555 1_555
H24 C30 1_555 1_555
H25 C30 1_555 1_555
C31 C30 1_555 1_555
H26 C31 1_555 1_555
H27 C31 1_555 1_555
H28 C31 1_555 1_555
C32 C24 1_555 1_555
C33 N5 1_555 1_555
C34 C32 1_555 1_555
K1C O1 1_555 1_555
K1B O1A 1_555 1_555
K1A O4 1_555 1_555
O1C K1 1_555 1_555
O1A K2 1_555 1_555
O2A K2 1_555 1_555
K2B O1C 1_555 1_555
K2A O1 1_555 1_555
K2_2 N6 1_555 1_555
K2C O4 1_555 1_555
N6_2 K2 1_555 1_555
O4A K1 1_555 1_555
O4C K2 1_555 1_555
O5A K1 1_555 1_555
O5_2 K2 1_555 1_555
O2 K2A 1_555 1_555
C5 C6 1_555 1_555
C8 C9 1_555 1_555
C8 C12 1_555 1_555
O5 K1A 1_555 1_555
O5 K2_2 1_555 1_555
C22 C23 1_555 1_555
C25 C26 1_555 1_555
C32 C33 1_555 1_555
K1B O4C 1_555 1_555
K2B O4A 1_555 1_555
K2A O5A 1_555 1_555

#END
