
#######################################################################
#
#                 Cambridge Crystallographic Data Centre
#                                CCDC 
#
#######################################################################
#
# If this CIF has been generated from an entry in the Cambridge 
# Structural Database, then it will include bibliographic, chemical, 
# crystal, experimental, refinement or atomic coordinate data resulting 
# from the CCDC's data processing and validation procedures.
#
#######################################################################

data_QOLFIH
_symmetry_cell_setting           monoclinic
_symmetry_space_group_name_H-M   'P 21/n'
_symmetry_Int_Tables_number      14
_space_group_name_Hall           '-P 2yn'
loop_
_symmetry_equiv_pos_site_id
_symmetry_equiv_pos_as_xyz
1 x,y,z
2 1/2-x,1/2+y,1/2-z
3 -x,-y,-z
4 1/2+x,1/2-y,1/2+z
_cell_length_a                   4.7863(4)
_cell_length_b                   14.8940(9)
_cell_length_c                   13.4705(10)
_cell_angle_alpha                90
_cell_angle_beta                 91.098(9)
_cell_angle_gamma                90
_cell_volume                     960.097
loop_
_atom_site_label
_atom_site_type_symbol
_atom_site_fract_x
_atom_site_fract_y
_atom_site_fract_z
Fe1 Fe 0.24998(4) 0.440859(14) 0.501167(14)
O1 O 0.6268(3) 0.44515(7) 0.59098(9)
O2 O 1.0178(2) 0.36165(8) 0.59405(9)
O3 O -0.0120(2) 0.13335(8) 0.90581(9)
O4 O 0.3838(3) 0.05263(7) 0.90583(9)
C1 C 0.6451(3) 0.31639(10) 0.69582(11)
C2 C 0.6838(4) 0.22537(11) 0.68337(12)
H1 H 0.8026 0.2044 0.6326
C3 C 0.5492(4) 0.16326(11) 0.74501(12)
H2 H 0.5782 0.1008 0.7353
C4 C 0.3761(3) 0.19163(10) 0.81920(11)
C5 C 0.1863(4) 0.31859(12) 0.91907(13)
H3 H 0.0869 0.2776 0.9593
C6 C 0.1788(5) 0.40864(12) 0.94029(14)
H4 H 0.0777 0.4292 0.9959
C7 C 0.3198(5) 0.47108(12) 0.88038(13)
H5 H 0.3155 0.5332 0.8963
C8 C 0.4628(4) 0.44215(10) 0.79915(13)
H6 H 0.5519 0.4848 0.7579
C9 C 0.4798(3) 0.34898(10) 0.77570(11)
C10 C 0.3413(3) 0.28589(11) 0.83760(11)
C11 C 0.7751(3) 0.37880(10) 0.62232(11)
C12 C 0.2371(3) 0.12168(10) 0.88160(11)
Fe1B Fe 0.75002(4) 0.559141(14) 0.498833(14)
Fe1_2 Fe 1.24998(4) 0.440859(14) 0.501167(14)
Fe1C Fe -0.25002(4) 0.059141(14) 1.001167(14)
Fe1C_2 Fe 0.74998(4) 0.059141(14) 1.001167(14)
Fe1A Fe 0.25002(4) -0.059141(14) 0.998833(14)
O1B O 0.3732(3) 0.55485(7) 0.40902(9)
O2_2 O 0.0178(2) 0.36165(8) 0.59405(9)
O3C O 0.4880(2) 0.36665(8) 0.40581(9)
O4C O -0.1162(3) 0.44737(7) 0.40583(9)
O4A O 0.1162(3) 0.55263(7) 0.59417(9)
loop_
_geom_bond_atom_site_label_1
_geom_bond_atom_site_label_2
_geom_bond_site_symmetry_1
_geom_bond_site_symmetry_2
Fe1 O1 1_555 1_555
O1 C11 1_555 1_555
O2 C11 1_555 1_555
O3 C12 1_555 1_555
O4 C12 1_555 1_555
C1 C2 1_555 1_555
C2 H1 1_555 1_555
C3 C2 1_555 1_555
H2 C3 1_555 1_555
C4 C3 1_555 1_555
C5 H3 1_555 1_555
C6 C5 1_555 1_555
H4 C6 1_555 1_555
C7 C6 1_555 1_555
H5 C7 1_555 1_555
C8 C7 1_555 1_555
H6 C8 1_555 1_555
C9 C1 1_555 1_555
C10 C4 1_555 1_555
C11 C1 1_555 1_555
C12 C4 1_555 1_555
Fe1B O1 1_555 1_555
Fe1_2 O2 1_555 1_555
Fe1C O3 1_555 1_555
Fe1C_2 O4 1_555 1_555
Fe1A O4 1_555 1_555
O1B Fe1 1_555 1_555
O2_2 Fe1 1_555 1_555
O3C Fe1 1_555 1_555
O4C Fe1 1_555 1_555
O4A Fe1 1_555 1_555
C5 C10 1_555 1_555
C8 C9 1_555 1_555
C9 C10 1_555 1_555
Fe1B O1B 1_555 1_555

#END
