
#######################################################################
#
#                 Cambridge Crystallographic Data Centre
#                                CCDC 
#
#######################################################################
#
# If this CIF has been generated from an entry in the Cambridge 
# Structural Database, then it will include bibliographic, chemical, 
# crystal, experimental, refinement or atomic coordinate data resulting 
# from the CCDC's data processing and validation procedures.
#
#######################################################################

data_QOLHAB
_symmetry_cell_setting           monoclinic
_symmetry_space_group_name_H-M   'C 2/c'
_symmetry_Int_Tables_number      15
_space_group_name_Hall           '-C 2yn'
loop_
_symmetry_equiv_pos_site_id
_symmetry_equiv_pos_as_xyz
1 x,y,z
2 1/2+x,1/2+y,z
3 -x,y,1/2-z
4 1/2-x,1/2+y,1/2-z
5 -x,-y,-z
6 1/2-x,1/2-y,-z
7 x,-y,1/2+z
8 1/2+x,1/2-y,1/2+z
_cell_length_a                   17.7957(6)
_cell_length_b                   9.9229(4)
_cell_length_c                   12.9673(5)
_cell_angle_alpha                90
_cell_angle_beta                 112.407(2)
_cell_angle_gamma                90
_cell_volume                     2116.95
loop_
_atom_site_label
_atom_site_type_symbol
_atom_site_fract_x
_atom_site_fract_y
_atom_site_fract_z
Tb1 Tb 0.323989(12) 0.96756(2) 0.074846(17)
O1 O 0.46185(19) 1.0185(4) 0.1051(3)
O2 O 0.3030(2) 1.1497(3) -0.0596(3)
O3 O 0.3693(2) 0.7501(4) 0.1067(3)
C1 C 0.2585(3) 1.2447(5) -0.0542(4)
C2 C 0.5146(3) 1.0111(5) 0.2013(4)
C3 C 0.5237(3) 0.6498(6) 0.1361(4)
H1 H 0.5190 0.7432 0.1348
C4 C 0.3727(3) 0.6297(6) 0.0808(4)
C5 C 0.4558(3) 0.5688(5) 0.1108(3)
C6 C 0.5989(3) 0.5889(7) 0.1636(4)
H2 H 0.6444 0.6439 0.1807
C7 C 0.4671(3) 0.4306(5) 0.1135(4)
H3 H 0.4228 0.3731 0.0961
C8 C 0.54429(8) 0.37835(15) 0.14206(11)
H4 H 0.5508 0.2853 0.1440
N1 N 0.60972(8) 0.45622(15) 0.16691(11)
O4 O 0.59033(8) 1.00505(15) 0.22872(11)
O5 O 0.22609(8) 1.33232(15) -0.12763(11)
O6 O 0.31250(8) 0.55572(15) 0.03267(11)
O7 O 0.25866(8) 0.87408(15) 0.19413(11)
H5 H 0.2122 0.9030 0.1852
H6 H 0.2833 0.8622 0.2630
O8 O 0.33025(8) 0.88114(15) -0.09693(11)
H7 H 0.3550 0.9157 -0.1341
H8 H 0.2966 0.8264 -0.1394
Tb1B Tb 0.676011(12) 0.96756(2) 0.425154(17)
Tb1E Tb 0.176011(12) 1.53244(2) -0.074846(17)
Tb1E_2 Tb 0.176011(12) 0.53244(2) -0.074846(17)
O1B O 0.53815(19) 1.0185(4) 0.3949(3)
O1E O 0.03815(19) 0.4815(4) -0.1051(3)
O2E O 0.1970(2) 1.3503(3) 0.0596(3)
O2E_2 O 0.1970(2) 0.3503(3) 0.0596(3)
O3E O 0.1307(2) 0.7499(4) -0.1067(3)
C1E C 0.2415(3) 1.2553(5) 0.0542(4)
C2B C 0.4854(3) 1.0111(5) 0.2987(4)
C3E C -0.0237(3) 0.8502(6) -0.1361(4)
H1E H -0.0190 0.7568 -0.1348
C4E C 0.1273(3) 0.8703(6) -0.0808(4)
C5E C 0.0442(3) 0.9312(5) -0.1108(3)
C6E C -0.0989(3) 0.9111(7) -0.1636(4)
H2E H -0.1444 0.8561 -0.1807
C7E C 0.0329(3) 1.0694(5) -0.1135(4)
H3E H 0.0772 1.1269 -0.0961
C8E C -0.04429(8) 1.12165(15) -0.14206(11)
H4E H -0.0508 1.2147 -0.1440
N1E N -0.10972(8) 1.04378(15) -0.16691(11)
O4B O 0.40967(8) 1.00505(15) 0.27128(11)
O4G O 0.09033(8) 0.49495(15) -0.27128(11)
O5E O 0.27391(8) 1.16768(15) 0.12763(11)
O5_2 O 0.22609(8) 0.33232(15) -0.12763(11)
O6E O 0.18750(8) 0.94428(15) -0.03267(11)
O7E O 0.24134(8) 0.62592(15) -0.19413(11)
H5E H 0.2878 0.5970 -0.1852
H6E H 0.2167 0.6378 -0.2630
O8E O 0.16975(8) 0.61886(15) 0.09693(11)
H7E H 0.1450 0.5843 0.1341
H8E H 0.2034 0.6736 0.1394
loop_
_geom_bond_atom_site_label_1
_geom_bond_atom_site_label_2
_geom_bond_site_symmetry_1
_geom_bond_site_symmetry_2
Tb1 O1 1_555 1_555
O1 C2 1_555 1_555
O2 Tb1 1_555 1_555
O3 Tb1 1_555 1_555
C1 O2 1_555 1_555
C2 O4 1_555 1_555
C3 H1 1_555 1_555
C4 O3 1_555 1_555
C5 C3 1_555 1_555
C6 C3 1_555 1_555
H2 C6 1_555 1_555
C7 C5 1_555 1_555
H3 C7 1_555 1_555
C8 C7 1_555 1_555
H4 C8 1_555 1_555
N1 C6 1_555 1_555
O4 Tb1B 1_555 1_555
O5 C1 1_555 1_555
O6 C4 1_555 1_555
O7 Tb1 1_555 1_555
H5 O7 1_555 1_555
H6 O7 1_555 1_555
O8 Tb1 1_555 1_555
H7 O8 1_555 1_555
H8 O8 1_555 1_555
Tb1B O1B 1_555 1_555
Tb1E O5 1_555 1_555
Tb1E_2 O6 1_555 1_555
O1B C2B 1_555 1_555
O1E Tb1E_2 1_555 1_555
O2E Tb1E 1_555 1_555
O2E_2 Tb1E_2 1_555 1_555
O3E Tb1E_2 1_555 1_555
C1E C1 1_555 1_555
C2B C2 1_555 1_555
C3E H1E 1_555 1_555
C4E O3E 1_555 1_555
C5E C3E 1_555 1_555
C6E C3E 1_555 1_555
H2E C6E 1_555 1_555
C7E C5E 1_555 1_555
H3E C7E 1_555 1_555
C8E C7E 1_555 1_555
H4E C8E 1_555 1_555
N1E C6E 1_555 1_555
O4B Tb1 1_555 1_555
O4G Tb1E_2 1_555 1_555
O5E Tb1 1_555 1_555
O5_2 Tb1E_2 1_555 1_555
O6E Tb1 1_555 1_555
O7E Tb1E_2 1_555 1_555
H5E O7E 1_555 1_555
H6E O7E 1_555 1_555
O8E Tb1E_2 1_555 1_555
H7E O8E 1_555 1_555
H8E O8E 1_555 1_555
C4 C5 1_555 1_555
C8 N1 1_555 1_555
O2E C1E 1_555 1_555
C1E O5E 1_555 1_555
C2B O4B 1_555 1_555
C4E C5E 1_555 1_555
C4E O6E 1_555 1_555
C8E N1E 1_555 1_555

#END
