
#######################################################################
#
#                 Cambridge Crystallographic Data Centre
#                                CCDC 
#
#######################################################################
#
# If this CIF has been generated from an entry in the Cambridge 
# Structural Database, then it will include bibliographic, chemical, 
# crystal, experimental, refinement or atomic coordinate data resulting 
# from the CCDC's data processing and validation procedures.
#
#######################################################################

data_QOLHIJ
_symmetry_cell_setting           monoclinic
_symmetry_space_group_name_H-M   'P 21/n'
_symmetry_Int_Tables_number      14
_space_group_name_Hall           '-P 2yn'
loop_
_symmetry_equiv_pos_site_id
_symmetry_equiv_pos_as_xyz
1 x,y,z
2 1/2-x,1/2+y,1/2-z
3 -x,-y,-z
4 1/2+x,1/2-y,1/2+z
_cell_length_a                   10.5169(4)
_cell_length_b                   29.8928(10)
_cell_length_c                   11.5578(4)
_cell_angle_alpha                90
_cell_angle_beta                 93.178(3)
_cell_angle_gamma                90
_cell_volume                     3627.95
loop_
_atom_site_label
_atom_site_type_symbol
_atom_site_fract_x
_atom_site_fract_y
_atom_site_fract_z
Fe1 Fe 0.78027(6) 0.713313(19) 0.77830(5)
Fe2 Fe 0.77587(6) 0.580113(19) 0.67647(5)
C1 C 0.4126(4) 0.64573(15) 0.7149(4)
C2 C 0.3452(5) 0.68369(16) 0.7351(5)
H1 H 0.3888 0.7106 0.7453
C3 C 0.2125(5) 0.68347(16) 0.7410(5)
H2 H 0.1709 0.7104 0.7530
C4 C 0.1427(4) 0.64543(15) 0.7297(4)
C5 C 0.1460(5) 0.56099(17) 0.7074(5)
H3 H 0.0584 0.5598 0.7143
C6 C 0.2098(6) 0.52337(18) 0.6930(6)
H4 H 0.1658 0.4964 0.6894
C7 C 0.3436(6) 0.52322(18) 0.6828(6)
H5 H 0.3871 0.4966 0.6725
C8 C 0.4058(5) 0.56222(17) 0.6883(5)
H6 H 0.4936 0.5620 0.6817
C9 C 0.3448(4) 0.60389(15) 0.7037(4)
C10 C 0.2088(5) 0.60334(15) 0.7128(4)
C11 C 0.5559(4) 0.64965(14) 0.7160(3)
O1 O 0.6054(3) 0.68234(10) 0.7693(3)
O2 O 0.6173(3) 0.61999(11) 0.6670(3)
C12 C -0.0004(4) 0.64874(14) 0.7344(3)
O3 O -0.0671(3) 0.61916(11) 0.6834(3)
O4 O -0.0452(3) 0.68212(11) 0.7840(3)
C13 C 0.7445(4) 0.94353(14) 0.8160(4)
C14 C 0.7291(5) 0.91732(15) 0.9107(4)
H7 H 0.7117 0.9306 0.9809
C15 C 0.7392(5) 0.87040(16) 0.9035(4)
H8 H 0.7263 0.8531 0.9687
C16 C 0.7674(4) 0.84988(14) 0.8032(4)
C17 C 0.8134(6) 0.85673(17) 0.5951(4)
H9 H 0.8218 0.8259 0.5892
C18 C 0.8274(7) 0.8826(2) 0.5001(5)
H10 H 0.8456 0.8692 0.4303
C19 C 0.8147(7) 0.9291(2) 0.5054(5)
H11 H 0.8242 0.9464 0.4395
C20 C 0.7886(6) 0.94909(17) 0.6072(4)
H12 H 0.7802 0.9800 0.6101
C21 C 0.7740(4) 0.92362(15) 0.7085(4)
C22 C 0.7863(4) 0.87590(14) 0.7025(4)
C23 C 0.7294(5) 0.99401(15) 0.8233(4)
O5 O 0.8268(4) 1.01802(11) 0.8276(3)
O6 O 0.6222(4) 1.01085(12) 0.8235(4)
C24 C 0.7764(4) 0.79956(14) 0.7960(4)
O7 O 0.8823(3) 0.78071(10) 0.7884(3)
O8 O 0.6754(3) 0.77705(10) 0.7947(3)
C25 C 0.7818(4) 0.70824(15) 0.3412(4)
C26 C 0.8945(4) 0.71142(17) 0.4109(4)
H13 H 0.9728 0.7109 0.3773
C27 C 0.8896(4) 0.71524(17) 0.5294(4)
H14 H 0.9665 0.7168 0.5731
N1 N 0.7819(4) 0.71690(12) 0.5860(3)
C28 C 0.6740(4) 0.71451(16) 0.5187(4)
H15 H 0.5972 0.7159 0.5548
C29 C 0.6691(5) 0.71017(17) 0.3990(4)
H16 H 0.5910 0.7086 0.3574
C30 C 0.7822(4) 0.70478(15) 0.2126(4)
C31 C 0.8938(4) 0.70362(16) 0.1559(4)
H17 H 0.9717 0.7026 0.1981
C32 C 0.8901(4) 0.70399(16) 0.0356(4)
H18 H 0.9669 0.7032 -0.0005
N2 N 0.7827(3) 0.70538(11) -0.0306(3)
C33 C 0.6737(4) 0.70524(16) 0.0248(4)
H19 H 0.5970 0.7054 -0.0193
C34 C 0.6701(4) 0.70486(16) 0.1438(4)
H20 H 0.5921 0.7047 0.1780
C35 C 0.7816(5) 0.58619(16) 1.1148(4)
C36 C 0.8930(6) 0.5839(2) 1.0576(5)
H21 H 0.9712 0.5846 1.0994
C37 C 0.8884(6) 0.5806(2) 0.9386(5)
H22 H 0.9654 0.5792 0.9029
N3 N 0.7819(4) 0.57940(13) 0.8710(3)
C38 C 0.6749(6) 0.5807(2) 0.9274(4)
H23 H 0.5980 0.5794 0.8838
C39 C 0.6709(6) 0.5839(2) 1.0456(4)
H24 H 0.5926 0.5845 1.0793
C40 C 0.7805(5) 0.58971(16) 1.2434(4)
C41 C 0.8913(5) 0.58902(19) 1.3130(4)
H25 H 0.9698 0.5894 1.2797
C42 C 0.8858(5) 0.58781(19) 1.4322(4)
H26 H 0.9620 0.5873 1.4771
N4 N 0.7758(4) 0.58739(13) 1.4864(3)
C43 C 0.6696(5) 0.59193(17) 1.4197(4)
H27 H 0.5927 0.5945 1.4551
C44 C 0.6680(5) 0.59301(18) 1.3002(4)
H28 H 0.5910 0.5960 1.2574
Fe1_2 Fe -0.21973(6) 0.713313(19) 0.77830(5)
Fe1_3 Fe 0.78027(6) 0.713313(19) -0.22170(5)
Fe2_2 Fe -0.22413(6) 0.580113(19) 0.67647(5)
Fe2A Fe 0.72413(6) 1.080113(19) 0.82353(5)
Fe2_3 Fe 0.77587(6) 0.580113(19) 1.67647(5)
O3_2 O 0.9329(3) 0.61916(11) 0.6834(3)
O4_2 O 0.9548(3) 0.68212(11) 0.7840(3)
O5A O 0.6732(4) 0.51802(11) 0.6724(3)
O6A O 0.8778(4) 0.51085(12) 0.6765(4)
N2_2 N 0.7827(3) 0.70538(11) 0.9694(3)
N4_2 N 0.7758(4) 0.58739(13) 0.4864(3)
loop_
_geom_bond_atom_site_label_1
_geom_bond_atom_site_label_2
_geom_bond_site_symmetry_1
_geom_bond_site_symmetry_2
Fe1 O1 1_555 1_555
Fe2 O2 1_555 1_555
C1 C2 1_555 1_555
C2 H1 1_555 1_555
C3 C2 1_555 1_555
H2 C3 1_555 1_555
C4 C3 1_555 1_555
C5 H3 1_555 1_555
C6 C5 1_555 1_555
H4 C6 1_555 1_555
C7 C6 1_555 1_555
H5 C7 1_555 1_555
C8 C7 1_555 1_555
H6 C8 1_555 1_555
C9 C1 1_555 1_555
C10 C4 1_555 1_555
C11 C1 1_555 1_555
O1 C11 1_555 1_555
O2 C11 1_555 1_555
C12 C4 1_555 1_555
O3 C12 1_555 1_555
O4 C12 1_555 1_555
C13 C14 1_555 1_555
C14 H7 1_555 1_555
C15 C14 1_555 1_555
H8 C15 1_555 1_555
C16 C15 1_555 1_555
C17 H9 1_555 1_555
C18 C17 1_555 1_555
H10 C18 1_555 1_555
C19 C18 1_555 1_555
H11 C19 1_555 1_555
C20 C19 1_555 1_555
H12 C20 1_555 1_555
C21 C13 1_555 1_555
C22 C16 1_555 1_555
C23 C13 1_555 1_555
O5 C23 1_555 1_555
O6 C23 1_555 1_555
C24 C16 1_555 1_555
O7 Fe1 1_555 1_555
O8 Fe1 1_555 1_555
C25 C26 1_555 1_555
C26 H13 1_555 1_555
C27 C26 1_555 1_555
H14 C27 1_555 1_555
N1 Fe1 1_555 1_555
C28 N1 1_555 1_555
H15 C28 1_555 1_555
C29 C25 1_555 1_555
H16 C29 1_555 1_555
C30 C25 1_555 1_555
C31 C30 1_555 1_555
H17 C31 1_555 1_555
C32 C31 1_555 1_555
H18 C32 1_555 1_555
N2 C32 1_555 1_555
C33 N2 1_555 1_555
H19 C33 1_555 1_555
C34 C30 1_555 1_555
H20 C34 1_555 1_555
C35 C36 1_555 1_555
C36 H21 1_555 1_555
C37 C36 1_555 1_555
H22 C37 1_555 1_555
N3 Fe2 1_555 1_555
C38 N3 1_555 1_555
H23 C38 1_555 1_555
C39 C35 1_555 1_555
H24 C39 1_555 1_555
C40 C35 1_555 1_555
C41 C40 1_555 1_555
H25 C41 1_555 1_555
C42 C41 1_555 1_555
H26 C42 1_555 1_555
N4 C42 1_555 1_555
C43 N4 1_555 1_555
H27 C43 1_555 1_555
C44 C40 1_555 1_555
H28 C44 1_555 1_555
Fe1_2 O4 1_555 1_555
Fe1_3 N2 1_555 1_555
Fe2_2 O3 1_555 1_555
Fe2A O5 1_555 1_555
Fe2_3 N4 1_555 1_555
O3_2 Fe2 1_555 1_555
O4_2 Fe1 1_555 1_555
O5A Fe2 1_555 1_555
O6A Fe2 1_555 1_555
N2_2 Fe1 1_555 1_555
N4_2 Fe2 1_555 1_555
C5 C10 1_555 1_555
C8 C9 1_555 1_555
C9 C10 1_555 1_555
C17 C22 1_555 1_555
C20 C21 1_555 1_555
C21 C22 1_555 1_555
O6 Fe2A 1_555 1_555
C24 O7 1_555 1_555
C24 O8 1_555 1_555
C27 N1 1_555 1_555
C28 C29 1_555 1_555
C33 C34 1_555 1_555
C37 N3 1_555 1_555
C38 C39 1_555 1_555
C43 C44 1_555 1_555

#END
