
#######################################################################
#
#                 Cambridge Crystallographic Data Centre
#                                CCDC 
#
#######################################################################
#
# If this CIF has been generated from an entry in the Cambridge 
# Structural Database, then it will include bibliographic, chemical, 
# crystal, experimental, refinement or atomic coordinate data resulting 
# from the CCDC's data processing and validation procedures.
#
#######################################################################

data_QOLJOR
_symmetry_cell_setting           monoclinic
_symmetry_space_group_name_H-M   'P 21/n'
_symmetry_Int_Tables_number      14
_space_group_name_Hall           '-P 2yn'
loop_
_symmetry_equiv_pos_site_id
_symmetry_equiv_pos_as_xyz
1 x,y,z
2 1/2-x,1/2+y,1/2-z
3 -x,-y,-z
4 1/2+x,1/2-y,1/2+z
_cell_length_a                   9.925(5)
_cell_length_b                   7.073(4)
_cell_length_c                   11.325(6)
_cell_angle_alpha                90
_cell_angle_beta                 98.397(10)
_cell_angle_gamma                90
_cell_volume                     786.487
loop_
_atom_site_label
_atom_site_type_symbol
_atom_site_fract_x
_atom_site_fract_y
_atom_site_fract_z
Tl1 Tl -0.05121(3) 0.10847(4) 0.68253(2)
O1 O 0.1709(5) -0.1391(7) 0.8360(4)
O2 O 0.1667(5) 0.1726(8) 0.8595(4)
O3 O 0.3201(5) -0.2759(7) 1.2028(4)
O4 O 0.1685(5) -0.0925(8) 1.0927(5)
C1 C 0.2231(7) 0.0140(11) 0.8761(6)
C2 C 0.3648(8) 0.0083(10) 0.9445(6)
C3 C 0.4680(7) 0.0882(10) 0.8919(6)
H1 H 0.4463 0.1491 0.8168
C4 C 0.3959(7) -0.0817(10) 1.0535(6)
C5 C 0.2857(7) -0.1550(10) 1.1215(6)
O5 O 0.1899(5) 0.0253(8) 0.5778(5)
H7 H 0.2389 -0.0717 0.5965
H8 H 0.2341 0.1244 0.6018
Tl1B Tl 1.05121(3) -0.10847(4) 1.31747(2)
Tl1C Tl 0.44879(3) -0.60847(4) 1.18253(2)
Tl1B_2 Tl 0.05121(3) -0.10847(4) 1.31747(2)
Tl1B_3 Tl 0.05121(3) -0.10847(4) 0.31747(2)
Tl1_2 Tl 0.94879(3) 0.10847(4) 0.68253(2)
Tl1A Tl 0.55121(3) 0.60847(4) 0.81747(2)
O1B O 0.8291(5) 0.1391(7) 1.1640(4)
O2B O 0.8333(5) -0.1726(8) 1.1405(4)
O3B O 0.6799(5) 0.2759(7) 0.7972(4)
O3C O -0.1799(5) -0.2241(7) 0.7028(4)
O3B_2 O -0.3201(5) 0.2759(7) 0.7972(4)
O3_2 O 1.3201(5) -0.2759(7) 1.2028(4)
O3A O 1.1799(5) 0.2241(7) 1.2972(4)
O4B O 0.8315(5) 0.0925(8) 0.9073(5)
O4B_2 O -0.1685(5) 0.0925(8) 0.9073(5)
O4_2 O 1.1685(5) -0.0925(8) 1.0927(5)
C1B C 0.7769(7) -0.0140(11) 1.1239(6)
C2B C 0.6352(8) -0.0083(10) 1.0555(6)
C3B C 0.5320(7) -0.0882(10) 1.1081(6)
H1B H 0.5537 -0.1491 1.1832
C4B C 0.6041(7) 0.0817(10) 0.9465(6)
C5B C 0.7143(7) 0.1550(10) 0.8785(6)
O5B O -0.1899(5) -0.0253(8) 0.4222(5)
O5_2 O 1.1899(5) 0.0253(8) 1.5778(5)
O5B_2 O 0.8101(5) -0.0253(8) 1.4222(5)
H7B H -0.2389 0.0717 0.4035
H7_2 H 1.2389 -0.0717 1.5965
H7B_2 H 0.7611 0.0717 1.4035
H8B H -0.2341 -0.1244 0.3982
H8_2 H 1.2341 0.1244 1.6018
H8B_2 H 0.7659 -0.1244 1.3982
C6 C 0.5359(8) 0.0285(11) 0.5608(6)
H2 H 0.4801 -0.0087 0.6226
H3 H 0.6244 -0.0381 0.5775
N1 N 0.5585(6) 0.2319(8) 0.5655(5)
H4 H 0.6070 0.2664 0.5067
H5 H 0.6058 0.2636 0.6378
H6 H 0.4768 0.2927 0.5550
C6B C 0.4641(8) -0.0285(11) 0.4392(6)
H2B H 0.5199 0.0087 0.3774
H3B H 0.3756 0.0381 0.4225
N1B N 0.4415(6) -0.2319(8) 0.4345(5)
H4B H 0.3930 -0.2664 0.4933
H5B H 0.3942 -0.2636 0.3622
H6B H 0.5232 -0.2927 0.4450
loop_
_geom_bond_atom_site_label_1
_geom_bond_atom_site_label_2
_geom_bond_site_symmetry_1
_geom_bond_site_symmetry_2
Tl1 O1 1_555 1_555
O1 C1 1_555 1_555
O2 Tl1 1_555 1_555
O3 C5 1_555 1_555
O4 C5 1_555 1_555
C1 O2 1_555 1_555
C2 C1 1_555 1_555
C3 C2 1_555 1_555
H1 C3 1_555 1_555
C4 C2 1_555 1_555
C5 C4 1_555 1_555
C6 H2 1_555 1_555
H3 C6 1_555 1_555
N1 C6 1_555 1_555
H4 N1 1_555 1_555
H5 N1 1_555 1_555
H6 N1 1_555 1_555
O5 Tl1 1_555 1_555
H7 O5 1_555 1_555
H8 O5 1_555 1_555
Tl1B O1B 1_555 1_555
Tl1C O3 1_555 1_555
Tl1B_2 O3 1_555 1_555
Tl1B_3 O5 1_555 1_555
Tl1_2 O3B 1_555 1_555
Tl1A O3B 1_555 1_555
O1B C1B 1_555 1_555
O2B Tl1B 1_555 1_555
O3B C5B 1_555 1_555
O3C Tl1 1_555 1_555
O3B_2 Tl1 1_555 1_555
O3_2 Tl1B 1_555 1_555
O3A Tl1B 1_555 1_555
O4B Tl1_2 1_555 1_555
O4B_2 Tl1 1_555 1_555
O4_2 Tl1B 1_555 1_555
C1B O2B 1_555 1_555
C2B C1B 1_555 1_555
C3B C4 1_555 1_555
H1B C3B 1_555 1_555
C4B C3 1_555 1_555
C5B O4B 1_555 1_555
C6B C6 1_555 1_555
H2B C6B 1_555 1_555
H3B C6B 1_555 1_555
N1B C6B 1_555 1_555
H4B N1B 1_555 1_555
H5B N1B 1_555 1_555
H6B N1B 1_555 1_555
O5B Tl1 1_555 1_555
O5_2 Tl1B 1_555 1_555
O5B_2 Tl1B 1_555 1_555
H7B O5B 1_555 1_555
H7_2 O5_2 1_555 1_555
H7B_2 O5B_2 1_555 1_555
H8B O5B 1_555 1_555
H8_2 O5_2 1_555 1_555
H8B_2 O5B_2 1_555 1_555
O4 Tl1B_2 1_555 1_555
Tl1B_3 O5B 1_555 1_555
C2B C3B 1_555 1_555
C2B C4B 1_555 1_555
C4B C5B 1_555 1_555

#END
