
#######################################################################
#
#                 Cambridge Crystallographic Data Centre
#                                CCDC 
#
#######################################################################
#
# If this CIF has been generated from an entry in the Cambridge 
# Structural Database, then it will include bibliographic, chemical, 
# crystal, experimental, refinement or atomic coordinate data resulting 
# from the CCDC's data processing and validation procedures.
#
#######################################################################

data_QOLKOR
_symmetry_cell_setting           triclinic
_symmetry_space_group_name_H-M   'P -1'
_symmetry_Int_Tables_number      2
_space_group_name_Hall           '-P 1'
loop_
_symmetry_equiv_pos_site_id
_symmetry_equiv_pos_as_xyz
1 x,y,z
2 -x,-y,-z
_cell_length_a                   11.086(2)
_cell_length_b                   13.030(3)
_cell_length_c                   15.589(3)
_cell_angle_alpha                103.56(3)
_cell_angle_beta                 97.39(3)
_cell_angle_gamma                92.85(3)
_cell_volume                     2163.42
loop_
_atom_site_label
_atom_site_type_symbol
_atom_site_fract_x
_atom_site_fract_y
_atom_site_fract_z
Cd1 Cd 0.0000 0.0000 0.5000
N1 N -0.0631(6) -0.2546(5) 0.4858(4)
N2 N 0.1820(5) -0.0458(4) 0.4342(3)
N3 N 0.1168(5) -0.0033(4) -0.3605(3)
O1 O -0.1102(11) -0.2563(11) 0.5493(7)
O2 O -0.0261(12) -0.3329(7) 0.4542(8)
O3 O -0.0725(6) -0.1793(4) 0.4563(5)
O4 O 0.5112(5) -0.1909(4) 0.2472(3)
O5 O 0.3301(4) -0.1028(3) -0.0831(2)
C1 C 0.1159(8) 0.0784(6) -0.2896(4)
H1 H 0.0729 0.1355 -0.2982
C2 C 0.1751(8) 0.0833(6) -0.2040(4)
H2 H 0.1747 0.1440 -0.1586
C3 C 0.2367(6) -0.0056(5) -0.1860(4)
C4 C 0.2392(6) -0.0897(5) -0.2589(4)
H3 H 0.2787 -0.1493 -0.2522
C5 C 0.1806(6) -0.0837(5) -0.3439(4)
H4 H 0.1867 -0.1399 -0.3921
C6 C 0.2899(6) -0.0022(5) -0.0889(4)
H5 H 0.2280 0.0163 -0.0505
H6 H 0.3579 0.0516 -0.0688
C7 C 0.3732(6) -0.1143(5) 0.0024(4)
C8 C 0.3828(6) -0.0377(5) 0.0824(4)
H7 H 0.3591 0.0295 0.0814
C9 C 0.4276(7) -0.0586(5) 0.1660(4)
H8 H 0.4318 -0.0060 0.2185
C10 C 0.4654(6) -0.1592(5) 0.1686(4)
C11 C 0.4582(6) -0.2369(5) 0.0874(4)
H9 H 0.4821 -0.3042 0.0875
C12 C 0.4147(7) -0.2120(5) 0.0058(4)
H10 H 0.4140 -0.2629 -0.0473
C13 C 0.2724(6) 0.0301(6) 0.4451(4)
H11 H 0.2611 0.0984 0.4762
C14 C 0.3857(7) 0.0116(6) 0.4114(4)
H12 H 0.4447 0.0676 0.4197
C15 C 0.4081(6) -0.0895(5) 0.3662(4)
C16 C 0.3122(7) -0.1683(6) 0.3565(5)
H13 H 0.3211 -0.2379 0.3275
C17 C 0.2039(7) -0.1426(6) 0.3902(5)
H14 H 0.1424 -0.1969 0.3814
C18 C 0.5296(6) -0.1133(6) 0.3318(4)
H15 H 0.5699 -0.0485 0.3250
H16 H 0.5823 -0.1397 0.3751
N2A N -0.1820(5) 0.0458(4) 0.5658(3)
N3A N -0.1168(5) 0.0033(4) 1.3605(3)
O4A O -0.5112(5) 0.1909(4) 0.7528(3)
O5A O -0.3301(4) 0.1028(3) 1.0831(2)
C1A C -0.1159(8) -0.0784(6) 1.2896(4)
H1A H -0.0729 -0.1355 1.2982
C2A C -0.1751(8) -0.0833(6) 1.2040(4)
H2A H -0.1747 -0.1440 1.1586
C3A C -0.2367(6) 0.0056(5) 1.1860(4)
C4A C -0.2392(6) 0.0897(5) 1.2589(4)
H3A H -0.2787 0.1493 1.2522
C5A C -0.1806(6) 0.0837(5) 1.3439(4)
H4A H -0.1867 0.1399 1.3921
C6A C -0.2899(6) 0.0022(5) 1.0889(4)
H5A H -0.2280 -0.0163 1.0505
H6A H -0.3579 -0.0516 1.0688
C7A C -0.3732(6) 0.1143(5) 0.9976(4)
C8A C -0.3828(6) 0.0377(5) 0.9176(4)
H7A H -0.3591 -0.0295 0.9186
C9A C -0.4276(7) 0.0586(5) 0.8340(4)
H8A H -0.4318 0.0060 0.7815
C10A C -0.4654(6) 0.1592(5) 0.8314(4)
C11A C -0.4582(6) 0.2369(5) 0.9126(4)
H9A H -0.4821 0.3042 0.9125
C12A C -0.4147(7) 0.2120(5) 0.9942(4)
H10A H -0.4140 0.2629 1.0473
C13A C -0.2724(6) -0.0301(6) 0.5549(4)
H11A H -0.2611 -0.0984 0.5238
C14A C -0.3857(7) -0.0116(6) 0.5886(4)
H12A H -0.4447 -0.0676 0.5803
C15A C -0.4081(6) 0.0895(5) 0.6338(4)
C16A C -0.3122(7) 0.1683(6) 0.6435(5)
H13A H -0.3211 0.2379 0.6725
C17A C -0.2039(7) 0.1426(6) 0.6098(5)
H14A H -0.1424 0.1969 0.6186
C18A C -0.5296(6) 0.1133(6) 0.6682(4)
H15A H -0.5699 0.0485 0.6750
H16A H -0.5823 0.1397 0.6249
N1A N 0.0631(6) 0.2546(5) 0.5142(4)
O1A O 0.1102(11) 0.2563(11) 0.4507(7)
O2A O 0.0261(12) 0.3329(7) 0.5458(8)
O3A O 0.0725(6) 0.1793(4) 0.5437(5)
N3_2 N 0.1168(5) -0.0033(4) 0.6395(3)
N3A_2 N -0.1168(5) 0.0033(4) 0.3605(3)
Cd1_2 Cd 0.0000 0.0000 -0.5000
Cd1_3 Cd 0.0000 0.0000 1.5000
Cd2 Cd -0.10531(5) -0.37885(5) 0.98607(3)
N4 N 0.1413(8) -0.3621(6) 1.1209(5)
N5 N -0.3103(7) -0.2897(5) 0.8966(5)
N6 N -0.0103(5) -0.3791(4) 0.8615(3)
N7 N 0.7858(5) -0.4143(4) 0.0956(3)
O6 O 0.0757(9) -0.2843(8) 1.1385(10)
O7 O 0.2350(10) -0.3664(10) 1.1626(6)
O8 O 0.0948(4) -0.4258(4) 1.0575(3)
O9 O -0.3922(9) -0.2563(8) 0.8540(6)
O10 O -0.2339(7) -0.2315(5) 0.9549(5)
O11 O -0.3060(5) -0.3878(4) 0.8846(4)
O12 O 0.2831(4) -0.3550(4) 0.6421(3)
O13 O 0.5756(4) -0.3827(4) 0.3697(3)
O14 O -0.0132(11) -0.1859(11) 1.0463(9)
C19 C -0.0626(6) -0.4343(6) 0.7806(4)
H17 H -0.1390 -0.4695 0.7764
C20 C -0.0126(6) -0.4434(7) 0.7026(5)
H18 H -0.0574 -0.4769 0.6477
C21 C 0.1097(5) -0.3998(5) 0.7089(3)
C22 C 0.1671(6) -0.3474(5) 0.7939(4)
H19 H 0.2472 -0.3181 0.8020
C23 C 0.1036(6) -0.3389(5) 0.8673(4)
H20 H 0.1437 -0.3030 0.9232
C24 C 0.1656(6) -0.4185(6) 0.6250(4)
H21 H 0.1778 -0.4930 0.6050
H22 H 0.1116 -0.3986 0.5786
C25 C 0.3509(6) -0.3661(5) 0.5685(4)
C26 C 0.3079(6) -0.4275(7) 0.4855(4)
H23 H 0.2314 -0.4646 0.4746
C27 C 0.3806(6) -0.4349(6) 0.4153(4)
H24 H 0.3507 -0.4759 0.3585
C28 C 0.4974(6) -0.3805(5) 0.4318(4)
C29 C 0.5396(6) -0.3202(5) 0.5201(4)
H25 H 0.6179 -0.2862 0.5339
C30 C 0.4646(7) -0.3117(6) 0.5859(5)
H26 H 0.4915 -0.2687 0.6425
C31 C 0.6799(5) -0.4779(5) 0.0679(4)
H27 H 0.6603 -0.5135 0.0081
C32 C 0.5999(6) -0.4905(5) 0.1282(4)
H28 H 0.5293 -0.5360 0.1084
C33 C 0.6259(5) -0.4346(4) 0.2187(4)
C34 C 0.7362(6) -0.3711(5) 0.2464(4)
H29 H 0.7580 -0.3345 0.3058
C35 C 0.8136(6) -0.3637(5) 0.1828(4)
H30 H 0.8871 -0.3221 0.2016
C36 C 0.5312(6) -0.4455(5) 0.2802(4)
H31 H 0.4546 -0.4213 0.2581
H32 H 0.5169 -0.5193 0.2810
N6_2 N -1.0103(5) -0.3791(4) 1.8615(3)
N7_2 N -0.2142(5) -0.4143(4) 1.0956(3)
O12_2 O -0.7169(4) -0.3550(4) 1.6421(3)
O13_2 O -0.4244(4) -0.3827(4) 1.3697(3)
C19_2 C -1.0626(6) -0.4343(6) 1.7806(4)
H17_2 H -1.1390 -0.4695 1.7764
C20_2 C -1.0126(6) -0.4434(7) 1.7026(5)
H18_2 H -1.0574 -0.4769 1.6477
C21_2 C -0.8903(5) -0.3998(5) 1.7089(3)
C22_2 C -0.8329(6) -0.3474(5) 1.7939(4)
H19_2 H -0.7528 -0.3181 1.8020
C23_2 C -0.8964(6) -0.3389(5) 1.8673(4)
H20_2 H -0.8563 -0.3030 1.9232
C24_2 C -0.8344(6) -0.4185(6) 1.6250(4)
H21_2 H -0.8222 -0.4930 1.6050
H22_2 H -0.8884 -0.3986 1.5786
C25_2 C -0.6491(6) -0.3661(5) 1.5685(4)
C26_2 C -0.6921(6) -0.4275(7) 1.4855(4)
H23_2 H -0.7686 -0.4646 1.4746
C27_2 C -0.6194(6) -0.4349(6) 1.4153(4)
H24_2 H -0.6493 -0.4759 1.3585
C28_2 C -0.5026(6) -0.3805(5) 1.4318(4)
C29_2 C -0.4604(6) -0.3202(5) 1.5201(4)
H25_2 H -0.3821 -0.2862 1.5339
C30_2 C -0.5354(7) -0.3117(6) 1.5859(5)
H26_2 H -0.5085 -0.2687 1.6425
C31_2 C -0.3201(5) -0.4779(5) 1.0679(4)
H27_2 H -0.3397 -0.5135 1.0081
C32_2 C -0.4001(6) -0.4905(5) 1.1282(4)
H28_2 H -0.4707 -0.5360 1.1084
C33_2 C -0.3741(5) -0.4346(4) 1.2187(4)
C34_2 C -0.2638(6) -0.3711(5) 1.2464(4)
H29_2 H -0.2420 -0.3345 1.3058
C35_2 C -0.1864(6) -0.3637(5) 1.1828(4)
H30_2 H -0.1129 -0.3221 1.2016
C36_2 C -0.4688(6) -0.4455(5) 1.2802(4)
H31_2 H -0.5454 -0.4213 1.2581
H32_2 H -0.4831 -0.5193 1.2810
N4A N -0.1413(8) -0.6379(6) 0.8791(5)
O6A O -0.0757(9) -0.7157(8) 0.8615(10)
O7A O -0.2350(10) -0.6336(10) 0.8374(6)
O8A O -0.0948(4) -0.5742(4) 0.9425(3)
Cd2_2 Cd -1.10531(5) -0.37885(5) 1.98607(3)
Cd2_3 Cd 0.89469(5) -0.37885(5) -0.01393(3)
Cd2A Cd 0.10531(5) -0.62115(5) 1.01393(3)
N7_3 N -1.2142(5) -0.4143(4) 2.0956(3)
O8_2 O -0.9052(4) -0.4258(4) 2.0575(3)
O8A_2 O -1.0948(4) -0.5742(4) 1.9425(3)
O10_2 O -1.2339(7) -0.2315(5) 1.9549(5)
O11_2 O -1.3060(5) -0.3878(4) 1.8846(4)
O14_2 O -1.0132(11) -0.1859(11) 2.0463(9)
O15 O -0.111(2) -0.107(2) 0.7972(16)
C37 C -0.196(3) -0.192(2) 0.719(2)
loop_
_geom_bond_atom_site_label_1
_geom_bond_atom_site_label_2
_geom_bond_site_symmetry_1
_geom_bond_site_symmetry_2
Cd1 N2 1_555 1_555
Cd2 N6 1_555 1_555
N1 O1 1_555 1_555
N2 C13 1_555 1_555
N3 C1 1_555 1_555
N4 O6 1_555 1_555
N5 O9 1_555 1_555
N6 C19 1_555 1_555
N7 C31 1_555 1_555
O2 N1 1_555 1_555
O3 Cd1 1_555 1_555
O4 C10 1_555 1_555
O5 C6 1_555 1_555
O7 N4 1_555 1_555
O8 Cd2 1_555 1_555
O10 Cd2 1_555 1_555
O11 Cd2 1_555 1_555
O12 C24 1_555 1_555
O13 C28 1_555 1_555
O14 Cd2 1_555 1_555
C1 H1 1_555 1_555
C2 C1 1_555 1_555
H2 C2 1_555 1_555
C3 C2 1_555 1_555
C4 C3 1_555 1_555
H3 C4 1_555 1_555
C5 N3 1_555 1_555
H4 C5 1_555 1_555
C6 C3 1_555 1_555
H5 C6 1_555 1_555
H6 C6 1_555 1_555
C7 O5 1_555 1_555
C8 C7 1_555 1_555
H7 C8 1_555 1_555
C9 C8 1_555 1_555
H8 C9 1_555 1_555
C10 C9 1_555 1_555
C11 C10 1_555 1_555
H9 C11 1_555 1_555
C12 C7 1_555 1_555
H10 C12 1_555 1_555
C13 H11 1_555 1_555
C14 C13 1_555 1_555
H12 C14 1_555 1_555
C15 C14 1_555 1_555
C16 C15 1_555 1_555
H13 C16 1_555 1_555
C17 N2 1_555 1_555
H14 C17 1_555 1_555
C18 O4 1_555 1_555
H15 C18 1_555 1_555
H16 C18 1_555 1_555
C19 H17 1_555 1_555
C20 C19 1_555 1_555
H18 C20 1_555 1_555
C21 C20 1_555 1_555
C22 C21 1_555 1_555
H19 C22 1_555 1_555
C23 N6 1_555 1_555
H20 C23 1_555 1_555
C24 C21 1_555 1_555
H21 C24 1_555 1_555
H22 C24 1_555 1_555
C25 O12 1_555 1_555
C26 C25 1_555 1_555
H23 C26 1_555 1_555
C27 C26 1_555 1_555
H24 C27 1_555 1_555
C28 C27 1_555 1_555
C29 C28 1_555 1_555
H25 C29 1_555 1_555
C30 C25 1_555 1_555
H26 C30 1_555 1_555
C31 H27 1_555 1_555
C32 C31 1_555 1_555
H28 C32 1_555 1_555
C33 C32 1_555 1_555
C34 C33 1_555 1_555
H29 C34 1_555 1_555
C35 N7 1_555 1_555
H30 C35 1_555 1_555
C36 O13 1_555 1_555
H31 C36 1_555 1_555
H32 C36 1_555 1_555
O15 C37 1_555 1_555
N2A Cd1 1_555 1_555
N3A C1A 1_555 1_555
O4A C10A 1_555 1_555
O5A C6A 1_555 1_555
C1A H1A 1_555 1_555
C2A C1A 1_555 1_555
H2A C2A 1_555 1_555
C3A C2A 1_555 1_555
C4A C3A 1_555 1_555
H3A C4A 1_555 1_555
C5A N3A 1_555 1_555
H4A C5A 1_555 1_555
C6A C3A 1_555 1_555
H5A C6A 1_555 1_555
H6A C6A 1_555 1_555
C7A O5A 1_555 1_555
C8A C7A 1_555 1_555
H7A C8A 1_555 1_555
C9A C8A 1_555 1_555
H8A C9A 1_555 1_555
C10A C9A 1_555 1_555
C11A C10A 1_555 1_555
H9A C11A 1_555 1_555
C12A C7A 1_555 1_555
H10A C12A 1_555 1_555
C13A N2A 1_555 1_555
H11A C13A 1_555 1_555
C14A C13A 1_555 1_555
H12A C14A 1_555 1_555
C15A C14A 1_555 1_555
C16A C15A 1_555 1_555
H13A C16A 1_555 1_555
C17A N2A 1_555 1_555
H14A C17A 1_555 1_555
C18A O4A 1_555 1_555
H15A C18A 1_555 1_555
H16A C18A 1_555 1_555
N1A O1A 1_555 1_555
O2A N1A 1_555 1_555
O3A Cd1 1_555 1_555
N6_2 C19_2 1_555 1_555
N7_2 Cd2 1_555 1_555
O12_2 C24_2 1_555 1_555
O13_2 C28_2 1_555 1_555
C19_2 H17_2 1_555 1_555
C20_2 C19_2 1_555 1_555
H18_2 C20_2 1_555 1_555
C21_2 C20_2 1_555 1_555
C22_2 C21_2 1_555 1_555
H19_2 C22_2 1_555 1_555
C23_2 N6_2 1_555 1_555
H20_2 C23_2 1_555 1_555
C24_2 C21_2 1_555 1_555
H21_2 C24_2 1_555 1_555
H22_2 C24_2 1_555 1_555
C25_2 O12_2 1_555 1_555
C26_2 C25_2 1_555 1_555
H23_2 C26_2 1_555 1_555
C27_2 C26_2 1_555 1_555
H24_2 C27_2 1_555 1_555
C28_2 C27_2 1_555 1_555
C29_2 C28_2 1_555 1_555
H25_2 C29_2 1_555 1_555
C30_2 C25_2 1_555 1_555
H26_2 C30_2 1_555 1_555
C31_2 N7_2 1_555 1_555
H27_2 C31_2 1_555 1_555
C32_2 C31_2 1_555 1_555
H28_2 C32_2 1_555 1_555
C33_2 C32_2 1_555 1_555
C34_2 C33_2 1_555 1_555
H29_2 C34_2 1_555 1_555
C35_2 N7_2 1_555 1_555
H30_2 C35_2 1_555 1_555
C36_2 O13_2 1_555 1_555
H31_2 C36_2 1_555 1_555
H32_2 C36_2 1_555 1_555
N4A O6A 1_555 1_555
O7A N4A 1_555 1_555
O8A Cd2 1_555 1_555
Cd2_2 N6_2 1_555 1_555
N3_2 Cd1 1_555 1_555
N3A_2 Cd1 1_555 1_555
Cd1_2 N3 1_555 1_555
Cd2_3 N7 1_555 1_555
Cd2A O8 1_555 1_555
Cd1_3 N3A 1_555 1_555
N7_3 Cd2_2 1_555 1_555
O8_2 Cd2_2 1_555 1_555
O8A_2 Cd2_2 1_555 1_555
O10_2 Cd2_2 1_555 1_555
O11_2 Cd2_2 1_555 1_555
O14_2 Cd2_2 1_555 1_555
N1 O3 1_555 1_555
N4 O8 1_555 1_555
N5 O10 1_555 1_555
N5 O11 1_555 1_555
C4 C5 1_555 1_555
C11 C12 1_555 1_555
C15 C18 1_555 1_555
C16 C17 1_555 1_555
C22 C23 1_555 1_555
C29 C30 1_555 1_555
C33 C36 1_555 1_555
C34 C35 1_555 1_555
C4A C5A 1_555 1_555
C11A C12A 1_555 1_555
C15A C18A 1_555 1_555
C16A C17A 1_555 1_555
N1A O3A 1_555 1_555
C22_2 C23_2 1_555 1_555
C29_2 C30_2 1_555 1_555
C33_2 C36_2 1_555 1_555
C34_2 C35_2 1_555 1_555
N4A O8A 1_555 1_555
O8A Cd2A 1_555 1_555

#END
