
#######################################################################
#
#                 Cambridge Crystallographic Data Centre
#                                CCDC 
#
#######################################################################
#
# If this CIF has been generated from an entry in the Cambridge 
# Structural Database, then it will include bibliographic, chemical, 
# crystal, experimental, refinement or atomic coordinate data resulting 
# from the CCDC's data processing and validation procedures.
#
#######################################################################

data_QOLKUX
_symmetry_cell_setting           triclinic
_symmetry_space_group_name_H-M   'P -1'
_symmetry_Int_Tables_number      2
_space_group_name_Hall           '-P 1'
loop_
_symmetry_equiv_pos_site_id
_symmetry_equiv_pos_as_xyz
1 x,y,z
2 -x,-y,-z
_cell_length_a                   9.978(2)
_cell_length_b                   12.508(4)
_cell_length_c                   9.394(5)
_cell_angle_alpha                104.29(2)
_cell_angle_beta                 97.81(4)
_cell_angle_gamma                107.35(3)
_cell_volume                     1056.27
loop_
_atom_site_label
_atom_site_type_symbol
_atom_site_fract_x
_atom_site_fract_y
_atom_site_fract_z
Co1 Co 1.0000 0.0000 1.0000
S1 S 1.0948(2) -0.3352(1) 1.0953(2)
O1 O 0.6586(3) -0.3151(3) 0.2565(4)
O2 O 1.7132(3) 0.3896(3) 1.3479(4)
N1 N 1.0702(4) -0.1388(3) 1.0173(4)
N2 N 1.2261(3) 0.1202(3) 1.0494(4)
N3 N 0.9765(4) -0.0578(3) 0.7460(4)
C1 C 0.8767(5) -0.0380(4) 0.6546(5)
C2 C 0.8217(5) -0.1013(4) 0.5035(5)
C3 C 0.8708(4) -0.1905(4) 0.4395(5)
C4 C 0.9792(5) -0.2089(4) 0.5303(5)
C5 C 1.0282(4) -0.1400(4) 0.6808(5)
C6 C 0.8123(5) -0.2680(5) 0.2780(5)
C7 C 0.5840(4) -0.4069(4) 0.1260(5)
C8 C 0.4368(5) -0.4492(4) 0.1063(5)
C9 C 0.6502(5) -0.4570(4) 0.0197(5)
C10 C 1.3233(4) 0.0889(4) 0.9804(5)
C11 C 1.4703(5) 0.1510(5) 1.0241(6)
C12 C 1.5220(4) 0.2528(4) 1.1447(5)
C13 C 1.4209(5) 0.2893(4) 1.2132(5)
C14 C 1.2772(4) 0.2218(4) 1.1606(5)
C15 C 1.6818(4) 0.3189(4) 1.1956(5)
C16 C 1.8572(4) 0.4441(4) 1.4185(5)
C17 C 1.8879(5) 0.4905(4) 1.5744(5)
C18 C 1.9705(5) 0.4536(4) 1.3423(5)
C19 C 1.0822(4) -0.2200(4) 1.0504(5)
H1 H 0.8419 0.0229 0.6962
H2 H 0.7510 -0.0838 0.4443
H3 H 1.0187 -0.2671 0.4905
H4 H 1.1034 -0.1522 0.7412
H5 H 0.8505 -0.3299 0.2600
H6 H 0.8369 -0.2230 0.2113
H7 H 0.3922 -0.4148 0.1791
H8 H 0.7521 -0.4274 0.0338
H9 H 1.2895 0.0198 0.8962
H10 H 1.5346 0.1239 0.9718
H11 H 1.4508 0.3598 1.2950
H12 H 1.2097 0.2494 1.2065
H13 H 1.7109 0.3675 1.1341
H14 H 1.7320 0.2648 1.1880
H15 H 1.8097 0.4839 1.6255
H16 H 1.9497 0.4220 1.2356
C9A C 0.3498(5) -0.5430(4) -0.0197(5)
C7A C 0.4160(4) -0.5931(4) -0.1260(5)
O1A O 0.3414(3) -0.6849(3) -0.2565(4)
C6A C 0.1877(5) -0.7320(5) -0.2780(5)
C3A C 0.1292(4) -0.8095(4) -0.4395(5)
C2A C 0.1783(5) -0.8987(4) -0.5035(5)
C1A C 0.1233(5) -0.9620(4) -0.6546(5)
N3A N 0.0235(4) -0.9422(3) -0.7460(4)
C5A C -0.0282(4) -0.8600(4) -0.6808(5)
C4A C 0.0208(5) -0.7911(4) -0.5303(5)
H3A H -0.0187 -0.7329 -0.4905
H4A H -0.1034 -0.8478 -0.7412
H1A H 0.1581 -1.0229 -0.6962
H2A H 0.2490 -0.9162 -0.4443
H5A H 0.1495 -0.6701 -0.2600
H6A H 0.1631 -0.7770 -0.2113
C8A C 0.5632(5) -0.5508(4) -0.1063(5)
H7A H 0.6078 -0.5852 -0.1791
H8A H 0.2479 -0.5726 -0.0338
C18A C 2.0295(5) 0.5464(4) 1.6577(5)
C16A C 2.1428(4) 0.5559(4) 1.5815(5)
O2A O 2.2868(3) 0.6104(3) 1.6521(4)
C15A C 2.3182(4) 0.6811(4) 1.8044(5)
C12A C 2.4780(4) 0.7472(4) 1.8553(5)
C11A C 2.5297(5) 0.8490(5) 1.9759(6)
C10A C 2.6767(4) 0.9111(4) 2.0196(5)
N2A N 2.7739(3) 0.8798(3) 1.9506(4)
C14A C 2.7228(4) 0.7782(4) 1.8394(5)
C13A C 2.5791(5) 0.7107(4) 1.7868(5)
H11A H 2.5492 0.6402 1.7050
H12A H 2.7903 0.7506 1.7935
H9A H 2.7105 0.9802 2.1038
H10A H 2.4654 0.8761 2.0282
H13A H 2.2891 0.6325 1.8659
H14A H 2.2680 0.7352 1.8120
C17A C 2.1121(5) 0.5095(4) 1.4256(5)
H15A H 2.1903 0.5161 1.3745
H16A H 2.0503 0.5780 1.7644
S1A S 0.9052(2) 0.3352(1) 0.9047(2)
N1A N 0.9298(4) 0.1388(3) 0.9827(4)
C19A C 0.9178(4) 0.2200(4) 0.9496(5)
N2A_2 N 0.7739(3) -0.1202(3) 0.9506(4)
N3A_2 N 1.0235(4) 0.0578(3) 1.2540(4)
Co1_2 Co 0.0000 -1.0000 -1.0000
Co1_3 Co 3.0000 1.0000 2.0000
N4 N 1.408(1) -0.0495(7) 0.6625(8)
C20 C 1.4109(7) -0.1189(6) 0.5626(8)
C21 C 1.4126(8) -0.2087(6) 0.4337(8)
H17 H 1.3515 -0.2832 0.4340
H18 H 1.3791 -0.1932 0.3440
H19 H 1.5082 -0.2089 0.4381
loop_
_geom_bond_atom_site_label_1
_geom_bond_atom_site_label_2
_geom_bond_site_symmetry_1
_geom_bond_site_symmetry_2
Co1 N1 1_555 1_555
S1 C19 1_555 1_555
O1 C6 1_555 1_555
O2 C15 1_555 1_555
N1 C19 1_555 1_555
N2 Co1 1_555 1_555
N3 Co1 1_555 1_555
N4 C20 1_555 1_555
C1 N3 1_555 1_555
C2 C1 1_555 1_555
C3 C2 1_555 1_555
C4 C3 1_555 1_555
C5 N3 1_555 1_555
C6 C3 1_555 1_555
C7 O1 1_555 1_555
C8 C7 1_555 1_555
C9 C7 1_555 1_555
C10 N2 1_555 1_555
C11 C10 1_555 1_555
C12 C11 1_555 1_555
C13 C12 1_555 1_555
C14 N2 1_555 1_555
C15 C12 1_555 1_555
C16 O2 1_555 1_555
C17 C16 1_555 1_555
C18 C16 1_555 1_555
C20 C21 1_555 1_555
C21 H17 1_555 1_555
H1 C1 1_555 1_555
H2 C2 1_555 1_555
H3 C4 1_555 1_555
H4 C5 1_555 1_555
H5 C6 1_555 1_555
H6 C6 1_555 1_555
H7 C8 1_555 1_555
H8 C9 1_555 1_555
H9 C10 1_555 1_555
H10 C11 1_555 1_555
H11 C13 1_555 1_555
H12 C14 1_555 1_555
H13 C15 1_555 1_555
H14 C15 1_555 1_555
H15 C17 1_555 1_555
H16 C18 1_555 1_555
H18 C21 1_555 1_555
H19 C21 1_555 1_555
C9A C8 1_555 1_555
C7A C9A 1_555 1_555
O1A C7A 1_555 1_555
C6A O1A 1_555 1_555
C3A C6A 1_555 1_555
C2A C3A 1_555 1_555
C1A C2A 1_555 1_555
N3A C1A 1_555 1_555
C5A N3A 1_555 1_555
C4A C3A 1_555 1_555
H3A C4A 1_555 1_555
H4A C5A 1_555 1_555
H1A C1A 1_555 1_555
H2A C2A 1_555 1_555
H5A C6A 1_555 1_555
H6A C6A 1_555 1_555
C8A C9 1_555 1_555
H7A C8A 1_555 1_555
H8A C9A 1_555 1_555
C18A C17 1_555 1_555
C16A C18A 1_555 1_555
O2A C16A 1_555 1_555
C15A O2A 1_555 1_555
C12A C15A 1_555 1_555
C11A C12A 1_555 1_555
C10A C11A 1_555 1_555
N2A C10A 1_555 1_555
C14A N2A 1_555 1_555
C13A C12A 1_555 1_555
H11A C13A 1_555 1_555
H12A C14A 1_555 1_555
H9A C10A 1_555 1_555
H10A C11A 1_555 1_555
H13A C15A 1_555 1_555
H14A C15A 1_555 1_555
C17A C18 1_555 1_555
H15A C17A 1_555 1_555
H16A C18A 1_555 1_555
S1A C19A 1_555 1_555
N1A Co1 1_555 1_555
C19A N1A 1_555 1_555
N2A_2 Co1 1_555 1_555
N3A_2 Co1 1_555 1_555
Co1_2 N3A 1_555 1_555
Co1_3 N2A 1_555 1_555
C4 C5 1_555 1_555
C13 C14 1_555 1_555
C7A C8A 1_555 1_555
C5A C4A 1_555 1_555
C16A C17A 1_555 1_555
C14A C13A 1_555 1_555

#END
