
#######################################################################
#
#                 Cambridge Crystallographic Data Centre
#                                CCDC 
#
#######################################################################
#
# If this CIF has been generated from an entry in the Cambridge 
# Structural Database, then it will include bibliographic, chemical, 
# crystal, experimental, refinement or atomic coordinate data resulting 
# from the CCDC's data processing and validation procedures.
#
#######################################################################

data_QOLNEK
_symmetry_cell_setting           triclinic
_symmetry_space_group_name_H-M   'P -1'
_symmetry_Int_Tables_number      2
_space_group_name_Hall           '-P 1'
loop_
_symmetry_equiv_pos_site_id
_symmetry_equiv_pos_as_xyz
1 x,y,z
2 -x,-y,-z
_cell_length_a                   10.6548(2)
_cell_length_b                   10.6959(2)
_cell_length_c                   12.4945(2)
_cell_angle_alpha                96.580(1)
_cell_angle_beta                 94.927(1)
_cell_angle_gamma                90.395(1)
_cell_volume                     1409.1
loop_
_atom_site_label
_atom_site_type_symbol
_atom_site_fract_x
_atom_site_fract_y
_atom_site_fract_z
Cl1 Cl 0.3957(2) 0.2921(2) -0.20003(17)
O1 O 0.3106(8) 0.2350(8) -0.1352(7)
O2 O 0.4423(9) 0.4083(7) -0.1447(7)
O3 O 0.3300(9) 0.3123(9) -0.3013(6)
O4 O 0.4981(9) 0.2094(8) -0.2199(8)
N5 N -0.0146(12) -0.1927(16) 0.5012(11)
C21 C -0.0390(12) -0.1529(15) 0.4214(11)
C22 C -0.0700(14) -0.0989(18) 0.3228(11)
H17 H -0.0769 -0.0093 0.3385
H18 H -0.1488 -0.1338 0.2890
H19 H -0.0050 -0.1174 0.2749
C26 C 1.070(7) 0.403(7) -0.222(5)
C27 C 1.112(5) 0.468(7) -0.122(6)
N6 N 1.011(5) 0.453(6) -0.261(5)
Cu1 Cu 0.29899(9) 0.22984(9) 0.27867(8)
S1 S 0.7679(2) 0.1409(3) -0.03578(18)
S2 S 0.3292(2) -0.2305(2) 0.59299(16)
N1 N 0.4391(6) 0.2001(7) 0.1756(5)
C1 C 0.5007(8) 0.0903(8) 0.1672(7)
H1 H 0.4737 0.0262 0.2046
C2 C 0.6022(8) 0.0678(9) 0.1057(7)
H2 H 0.6418 -0.0096 0.1016
C3 C 0.6433(8) 0.1636(9) 0.0504(7)
C4 C 0.5804(8) 0.2769(10) 0.0573(7)
H3 H 0.6058 0.3424 0.0207
C5 C 0.4790(8) 0.2905(8) 0.1199(7)
H4 H 0.4364 0.3663 0.1235
N2 N 1.1324(6) 0.2053(6) 0.1831(6)
C6 C 1.0209(8) 0.2046(10) 0.2254(7)
H5 H 1.0210 0.2174 0.3003
C7 C 0.9064(8) 0.1861(10) 0.1654(7)
H6 H 0.8318 0.1869 0.1990
C8 C 0.9048(8) 0.1661(8) 0.0537(7)
C9 C 1.0194(8) 0.1667(10) 0.0082(7)
H7 H 1.0219 0.1533 -0.0664
C10 C 1.1289(8) 0.1872(9) 0.0747(7)
H8 H 1.2046 0.1886 0.0429
N3 N 0.3041(6) 0.0879(6) 0.3781(5)
C11 C 0.2721(8) -0.0302(8) 0.3373(6)
H9 H 0.2447 -0.0447 0.2642
C12 C 0.2768(8) -0.1320(8) 0.3960(7)
H10 H 0.2523 -0.2120 0.3634
C13 C 0.3190(7) -0.1120(7) 0.5050(6)
C14 C 0.3522(8) 0.0101(8) 0.5493(6)
H11 H 0.3805 0.0272 0.6221
C15 C 0.3426(8) 0.1052(8) 0.4840(7)
H12 H 0.3641 0.1865 0.5151
N4 N 0.3146(7) -0.6040(6) 0.3759(6)
C16 C 0.3960(8) -0.5114(8) 0.3622(7)
H13 H 0.4505 -0.5263 0.3080
C17 C 0.4031(8) -0.3966(8) 0.4238(7)
H14 H 0.4614 -0.3359 0.4115
C18 C 0.3223(8) -0.3721(7) 0.5046(7)
C19 C 0.2384(9) -0.4668(9) 0.5206(8)
H15 H 0.1833 -0.4542 0.5745
C20 C 0.2379(9) -0.5800(9) 0.4551(8)
H16 H 0.1815 -0.6428 0.4665
N2_2 N 0.1324(6) 0.2053(6) 0.1831(6)
N4_2 N 0.3146(7) 0.3960(6) 0.3759(6)
Cu1_2 Cu 1.29899(9) 0.22984(9) 0.27867(8)
Cu1_3 Cu 0.29899(9) -0.77016(9) 0.27867(8)
C23? C 0.902(5) 0.463(6) -0.066(4)
C24? C 0.860(6) 0.398(7) -0.165(5)
H20? H 0.7752 0.3740 -0.1792
C25? C 0.943(8) 0.367(7) -0.243(4)
H21? H 0.9151 0.3236 -0.3094
H22? H 1.1259 0.3824 -0.2739
H23? H 1.1968 0.4915 -0.1082
C28? C 1.028(5) 0.498(7) -0.044(4)
H24? H 1.0569 0.5419 0.0219
C29? C 0.820(9) 0.497(10) 0.010(9)
H25? H 0.7397 0.4563 -0.0122
H26? H 0.8105 0.5863 0.0177
H27? H 0.8521 0.4708 0.0782
C30? C 0.919(5) 0.431(6) -0.216(6)
C31? C 0.811(6) 0.443(7) -0.140(6)
H28? H 0.7720 0.3613 -0.1395
H29? H 0.7487 0.4996 -0.1656
H30? H 0.8439 0.4738 -0.0681
N7? N 1.019(6) 0.438(7) -0.169(6)
C32? C 0.918(6) 0.458(9) -0.135(5)
C33? C 0.809(7) 0.486(9) -0.061(7)
H31? H 0.7586 0.4113 -0.0622
H32? H 0.7577 0.5516 -0.0872
H33? H 0.8438 0.5126 0.0113
loop_
_geom_bond_atom_site_label_1
_geom_bond_atom_site_label_2
_geom_bond_site_symmetry_1
_geom_bond_site_symmetry_2
Cu1 N1 1_555 1_555
S1 C3 1_555 1_555
S2 C13 1_555 1_555
N1 C1 1_555 1_555
C1 H1 1_555 1_555
C2 C1 1_555 1_555
H2 C2 1_555 1_555
C3 C2 1_555 1_555
C4 C3 1_555 1_555
H3 C4 1_555 1_555
C5 N1 1_555 1_555
H4 C5 1_555 1_555
N2 C6 1_555 1_555
C6 H5 1_555 1_555
C7 C6 1_555 1_555
H6 C7 1_555 1_555
C8 S1 1_555 1_555
C9 C8 1_555 1_555
H7 C9 1_555 1_555
C10 N2 1_555 1_555
H8 C10 1_555 1_555
N3 Cu1 1_555 1_555
C11 N3 1_555 1_555
H9 C11 1_555 1_555
C12 C11 1_555 1_555
H10 C12 1_555 1_555
C13 C12 1_555 1_555
C14 C13 1_555 1_555
H11 C14 1_555 1_555
C15 N3 1_555 1_555
H12 C15 1_555 1_555
N4 C16 1_555 1_555
C16 H13 1_555 1_555
C17 C16 1_555 1_555
H14 C17 1_555 1_555
C18 S2 1_555 1_555
C19 C18 1_555 1_555
H15 C19 1_555 1_555
C20 N4 1_555 1_555
H16 C20 1_555 1_555
Cl1 O1 1_555 1_555
O2 Cl1 1_555 1_555
O3 Cl1 1_555 1_555
O4 Cl1 1_555 1_555
N5 C21 1_555 1_555
C21 C22 1_555 1_555
C22 H17 1_555 1_555
H18 C22 1_555 1_555
H19 C22 1_555 1_555
C26 C27 1_555 1_555
N6 C26 1_555 1_555
N2_2 Cu1 1_555 1_555
N4_2 Cu1 1_555 1_555
Cu1_2 N2 1_555 1_555
Cu1_3 N4 1_555 1_555
C4 C5 1_555 1_555
C7 C8 1_555 1_555
C9 C10 1_555 1_555
C14 C15 1_555 1_555
C17 C18 1_555 1_555
C19 C20 1_555 1_555

#END
