
#######################################################################
#
#                 Cambridge Crystallographic Data Centre
#                                CCDC 
#
#######################################################################
#
# If this CIF has been generated from an entry in the Cambridge 
# Structural Database, then it will include bibliographic, chemical, 
# crystal, experimental, refinement or atomic coordinate data resulting 
# from the CCDC's data processing and validation procedures.
#
#######################################################################

data_QOLNOU
_symmetry_cell_setting           monoclinic
_symmetry_space_group_name_H-M   'C 2/c'
_symmetry_Int_Tables_number      15
_space_group_name_Hall           '-C 2yn'
loop_
_symmetry_equiv_pos_site_id
_symmetry_equiv_pos_as_xyz
1 x,y,z
2 1/2+x,1/2+y,z
3 x,-y,1/2+z
4 1/2+x,1/2-y,1/2+z
5 -x,-y,-z
6 1/2-x,1/2-y,-z
7 -x,y,1/2-z
8 1/2-x,1/2+y,1/2-z
_cell_length_a                   11.0882(2)
_cell_length_b                   17.6313(1)
_cell_length_c                   27.0724(4)
_cell_angle_alpha                90
_cell_angle_beta                 94.008(1)
_cell_angle_gamma                90
_cell_volume                     5279.69
loop_
_atom_site_label
_atom_site_type_symbol
_atom_site_fract_x
_atom_site_fract_y
_atom_site_fract_z
Ag1 Ag 0.25792(5) 0.05050(4) 0.38001(2)
S1 S 0.78402(18) 0.13706(18) 0.51732(9)
S2 S 0.38689(17) 0.17133(12) 0.15048(7)
N1 N 0.4255(5) 0.0778(3) 0.4350(2)
C1 C 0.4440(6) 0.1432(4) 0.4574(3)
H1 H 0.3805 0.1777 0.4568
C2 C 0.5522(6) 0.1636(4) 0.4816(3)
H2 H 0.5609 0.2109 0.4966
C3 C 0.6488(6) 0.1129(5) 0.4834(2)
C4 C 0.6288(6) 0.0445(4) 0.4607(3)
H3 H 0.6899 0.0083 0.4613
C5 C 0.5181(6) 0.0296(4) 0.4371(3)
H4 H 0.5068 -0.0172 0.4216
N2 N 0.3002(6) 0.0899(4) 0.3025(2)
C6 C 0.3154(10) 0.0438(5) 0.2651(3)
H5 H 0.3085 -0.0081 0.2704
C7 C 0.3404(9) 0.0676(5) 0.2190(3)
H6 H 0.3512 0.0328 0.1939
C8 C 0.3493(6) 0.1434(4) 0.2105(2)
C9 C 0.3339(6) 0.1925(4) 0.2482(3)
H7 H 0.3403 0.2446 0.2435
C10 C 0.3085(7) 0.1635(4) 0.2935(3)
H8 H 0.2964 0.1973 0.3190
N3 N 1.0960(5) 0.0853(4) 0.4241(2)
C11 C 0.9849(7) 0.0898(5) 0.4032(3)
H9 H 0.9742 0.0831 0.3691
C12 C 0.8844(6) 0.1037(5) 0.4286(3)
H10 H 0.8080 0.1061 0.4122
C13 C 0.8999(6) 0.1141(4) 0.4793(3)
C14 C 1.0154(6) 0.1104(5) 0.5008(3)
H11 H 1.0296 0.1171 0.5347
C15 C 1.1092(6) 0.0967(5) 0.4722(3)
H12 H 1.1869 0.0953 0.4875
N4 N 0.2808(6) 0.4196(4) 0.1394(3)
C16 C 0.1967(7) 0.3655(4) 0.1411(3)
H13 H 0.1158 0.3796 0.1396
C17 C 0.2252(6) 0.2900(5) 0.1452(3)
H14 H 0.1639 0.2540 0.1460
C18 C 0.3437(6) 0.2673(4) 0.1480(2)
C19 C 0.4312(7) 0.3226(5) 0.1458(4)
H15 H 0.5128 0.3100 0.1472
C20 C 0.3950(7) 0.3958(6) 0.1415(4)
H16 H 0.4548 0.4325 0.1398
S1_2 S -0.21598(18) 0.13706(18) 0.51732(9)
N1_2 N -0.5745(5) 0.0778(3) 0.4350(2)
C1_2 C -0.5560(6) 0.1432(4) 0.4574(3)
H1_2 H -0.6195 0.1777 0.4568
C2_2 C -0.4478(6) 0.1636(4) 0.4816(3)
H2_2 H -0.4391 0.2109 0.4966
C3_2 C -0.3512(6) 0.1129(5) 0.4834(2)
C4_2 C -0.3712(6) 0.0445(4) 0.4607(3)
H3_2 H -0.3101 0.0083 0.4613
C5_2 C -0.4819(6) 0.0296(4) 0.4371(3)
H4_2 H -0.4932 -0.0172 0.4216
N3_2 N 0.0960(5) 0.0853(4) 0.4241(2)
C11_2 C -0.0151(7) 0.0898(5) 0.4032(3)
H9_2 H -0.0258 0.0831 0.3691
C12_2 C -0.1156(6) 0.1037(5) 0.4286(3)
H10_2 H -0.1920 0.1061 0.4122
C13_2 C -0.1001(6) 0.1141(4) 0.4793(3)
C14_2 C 0.0154(6) 0.1104(5) 0.5008(3)
H11_2 H 0.0296 0.1171 0.5347
C15_2 C 0.1092(6) 0.0967(5) 0.4722(3)
H12_2 H 0.1869 0.0953 0.4875
S2G S 0.11311(17) -0.32867(12) 0.34952(7)
N2G N 0.1998(6) -0.4101(4) 0.1975(2)
C6G C 0.1846(10) -0.4562(5) 0.2349(3)
H5G H 0.1915 -0.5081 0.2296
C7G C 0.1596(9) -0.4324(5) 0.2810(3)
H6G H 0.1488 -0.4672 0.3061
C8G C 0.1507(6) -0.3566(4) 0.2895(2)
C9G C 0.1661(6) -0.3075(4) 0.2518(3)
H7G H 0.1597 -0.2554 0.2565
C10G C 0.1915(7) -0.3365(4) 0.2065(3)
H8G H 0.2036 -0.3027 0.1810
N4G N 0.2192(6) -0.0804(4) 0.3606(3)
C16G C 0.3033(7) -0.1345(4) 0.3589(3)
H13G H 0.3842 -0.1204 0.3604
C17G C 0.2748(6) -0.2100(5) 0.3548(3)
H14G H 0.3361 -0.2460 0.3540
C18G C 0.1563(6) -0.2327(4) 0.3520(2)
C19G C 0.0688(7) -0.1774(5) 0.3542(4)
H15G H -0.0128 -0.1900 0.3528
C20G C 0.1050(7) -0.1042(6) 0.3585(4)
H16G H 0.0452 -0.0675 0.3602
Ag1_2 Ag -0.74208(5) 0.05050(4) 0.38001(2)
Ag1_3 Ag 1.25792(5) 0.05050(4) 0.38001(2)
Ag1G Ag 0.24208(5) 0.55050(4) 0.11999(2)
Ag1G_2 Ag 0.24208(5) -0.44950(4) 0.11999(2)
N2_2 N -0.6998(6) 0.0899(4) 0.3025(2)
N3_3 N -0.9040(5) 0.0853(4) 0.4241(2)
N4G_2 N -0.7808(6) -0.0804(4) 0.3606(3)
P1 P 0.79982(18) 0.34987(12) 0.12240(9)
F1 F 0.7539(7) 0.3358(5) 0.1764(3)
F2 F 0.8999(7) 0.4051(4) 0.1472(3)
F3 F 0.8379(8) 0.3676(5) 0.0685(3)
F4 F 0.6933(7) 0.2971(5) 0.1001(3)
F5 F 0.8878(7) 0.2808(4) 0.1297(3)
F6 F 0.7091(7) 0.4214(4) 0.1159(3)
N5 N 1.0000 0.260(2) 0.2500
C21 C 1.0000 0.1928(19) 0.2500
C22 C 1.0000 0.1131(19) 0.2500
F7? F 0.8834(13) 0.3486(9) 0.0764(4)
F8? F 0.7038(11) 0.4014(8) 0.0933(5)
F9? F 0.7237(14) 0.3499(9) 0.1694(4)
F10? F 0.8993(11) 0.2965(8) 0.1515(5)
F11? F 0.8722(14) 0.4234(7) 0.1420(6)
F12? F 0.7327(13) 0.2752(7) 0.1019(6)
N6? N 1.0000 0.045(2) 0.2500
loop_
_geom_bond_atom_site_label_1
_geom_bond_atom_site_label_2
_geom_bond_site_symmetry_1
_geom_bond_site_symmetry_2
Ag1 N1 1_555 1_555
S1 C3 1_555 1_555
S2 C8 1_555 1_555
N1 C1 1_555 1_555
C1 H1 1_555 1_555
C2 C1 1_555 1_555
H2 C2 1_555 1_555
C3 C2 1_555 1_555
C4 C3 1_555 1_555
H3 C4 1_555 1_555
C5 N1 1_555 1_555
H4 C5 1_555 1_555
N2 Ag1 1_555 1_555
C6 N2 1_555 1_555
H5 C6 1_555 1_555
C7 C6 1_555 1_555
H6 C7 1_555 1_555
C8 C7 1_555 1_555
C9 C8 1_555 1_555
H7 C9 1_555 1_555
C10 N2 1_555 1_555
H8 C10 1_555 1_555
N3 C11 1_555 1_555
C11 H9 1_555 1_555
C12 C11 1_555 1_555
H10 C12 1_555 1_555
C13 S1 1_555 1_555
C14 C13 1_555 1_555
H11 C14 1_555 1_555
C15 N3 1_555 1_555
H12 C15 1_555 1_555
N4 C16 1_555 1_555
C16 H13 1_555 1_555
C17 C16 1_555 1_555
H14 C17 1_555 1_555
C18 S2 1_555 1_555
C19 C18 1_555 1_555
H15 C19 1_555 1_555
C20 N4 1_555 1_555
H16 C20 1_555 1_555
P1 F1 1_555 1_555
F2 P1 1_555 1_555
F3 P1 1_555 1_555
F4 P1 1_555 1_555
F5 P1 1_555 1_555
F6 P1 1_555 1_555
N5 C21 1_555 1_555
C21 C22 1_555 1_555
S1_2 C3_2 1_555 1_555
N1_2 C1_2 1_555 1_555
C1_2 H1_2 1_555 1_555
C2_2 C1_2 1_555 1_555
H2_2 C2_2 1_555 1_555
C3_2 C2_2 1_555 1_555
C4_2 C3_2 1_555 1_555
H3_2 C4_2 1_555 1_555
C5_2 N1_2 1_555 1_555
H4_2 C5_2 1_555 1_555
N3_2 Ag1 1_555 1_555
C11_2 N3_2 1_555 1_555
H9_2 C11_2 1_555 1_555
C12_2 C11_2 1_555 1_555
H10_2 C12_2 1_555 1_555
C13_2 S1_2 1_555 1_555
C14_2 C13_2 1_555 1_555
H11_2 C14_2 1_555 1_555
C15_2 N3_2 1_555 1_555
H12_2 C15_2 1_555 1_555
S2G C8G 1_555 1_555
N2G C6G 1_555 1_555
C6G H5G 1_555 1_555
C7G C6G 1_555 1_555
H6G C7G 1_555 1_555
C8G C7G 1_555 1_555
C9G C8G 1_555 1_555
H7G C9G 1_555 1_555
C10G N2G 1_555 1_555
H8G C10G 1_555 1_555
N4G Ag1 1_555 1_555
C16G N4G 1_555 1_555
H13G C16G 1_555 1_555
C17G C16G 1_555 1_555
H14G C17G 1_555 1_555
C18G S2G 1_555 1_555
C19G C18G 1_555 1_555
H15G C19G 1_555 1_555
C20G N4G 1_555 1_555
H16G C20G 1_555 1_555
Ag1_2 N1_2 1_555 1_555
Ag1_3 N3 1_555 1_555
Ag1G N4 1_555 1_555
Ag1G_2 N2G 1_555 1_555
N2_2 Ag1_2 1_555 1_555
N3_3 Ag1_2 1_555 1_555
N4G_2 Ag1_2 1_555 1_555
C4 C5 1_555 1_555
C9 C10 1_555 1_555
C12 C13 1_555 1_555
C14 C15 1_555 1_555
C17 C18 1_555 1_555
C19 C20 1_555 1_555
C4_2 C5_2 1_555 1_555
C12_2 C13_2 1_555 1_555
C14_2 C15_2 1_555 1_555
C9G C10G 1_555 1_555
C17G C18G 1_555 1_555
C19G C20G 1_555 1_555

#END
