
#######################################################################
#
#                 Cambridge Crystallographic Data Centre
#                                CCDC 
#
#######################################################################
#
# If this CIF has been generated from an entry in the Cambridge 
# Structural Database, then it will include bibliographic, chemical, 
# crystal, experimental, refinement or atomic coordinate data resulting 
# from the CCDC's data processing and validation procedures.
#
#######################################################################

data_QOLNUA
_symmetry_cell_setting           monoclinic
_symmetry_space_group_name_H-M   'C 2/c'
_symmetry_Int_Tables_number      15
_space_group_name_Hall           '-C 2yn'
loop_
_symmetry_equiv_pos_site_id
_symmetry_equiv_pos_as_xyz
1 x,y,z
2 1/2+x,1/2+y,z
3 x,-y,1/2+z
4 1/2+x,1/2-y,1/2+z
5 -x,-y,-z
6 1/2-x,1/2-y,-z
7 -x,y,1/2-z
8 1/2-x,1/2+y,1/2-z
_cell_length_a                   11.0913(6)
_cell_length_b                   18.3157(10)
_cell_length_c                   26.3091(14)
_cell_angle_alpha                90
_cell_angle_beta                 96.032(1)
_cell_angle_gamma                90
_cell_volume                     5314.97
loop_
_atom_site_label
_atom_site_type_symbol
_atom_site_fract_x
_atom_site_fract_y
_atom_site_fract_z
Ag1 Ag 0.27058(3) 0.042591(17) 0.375598(13)
S1 S 0.80486(9) 0.13731(7) 0.51387(5)
S2 S 0.39293(8) 0.18178(5) 0.14662(4)
N1 N 0.4400(3) 0.06546(16) 0.43344(11)
C1 C 0.4557(3) 0.1269(2) 0.46022(14)
H1 H 0.3874 0.1564 0.4630
C2 C 0.5652(3) 0.1502(2) 0.48423(15)
H2 H 0.5706 0.1941 0.5028
C3 C 0.6666(3) 0.1080(2) 0.48048(14)
C4 C 0.6531(3) 0.0435(2) 0.45354(14)
H3 H 0.7198 0.0127 0.4507
C5 C 0.5400(3) 0.02542(18) 0.43100(15)
H4 H 0.5321 -0.0185 0.4124
N2 N 1.1101(3) 0.07881(16) 0.41921(13)
C6 C 0.9987(3) 0.0902(2) 0.39672(16)
H5 H 0.9859 0.0869 0.3609
C7 C 0.9016(3) 0.1066(2) 0.42273(16)
H6 H 0.8244 0.1142 0.4051
C8 C 0.9187(3) 0.1117(2) 0.47499(16)
C9 C 1.0328(3) 0.0997(2) 0.49897(16)
H7 H 1.0477 0.1015 0.5348
C10 C 1.1237(3) 0.0850(2) 0.46960(17)
H8 H 1.2022 0.0787 0.4864
N3 N 0.3042(3) 0.08904(17) 0.29842(12)
C11 C 0.3090(3) 0.1604(2) 0.29131(15)
H9 H 0.2951 0.1908 0.3189
C12 C 0.3328(3) 0.19310(19) 0.24669(14)
H10 H 0.3352 0.2443 0.2441
C13 C 0.3533(3) 0.14973(19) 0.20548(14)
C14 C 0.3475(4) 0.0747(2) 0.21195(16)
H11 H 0.3603 0.0428 0.1850
C15 C 0.3228(4) 0.0479(2) 0.25825(18)
H12 H 0.3186 -0.0030 0.2620
N4 N 0.2768(3) 0.41998(17) 0.14231(13)
C16 C 0.3921(4) 0.4002(2) 0.14664(18)
H13 H 0.4511 0.4372 0.1478
C17 C 0.4312(3) 0.3289(2) 0.14951(16)
H14 H 0.5144 0.3178 0.1530
C18 C 0.3462(3) 0.27452(19) 0.14710(14)
C19 C 0.2262(3) 0.2937(2) 0.14267(15)
H15 H 0.1655 0.2578 0.1410
C20 C 0.1961(3) 0.3665(2) 0.14073(16)
H16 H 0.1136 0.3790 0.1381
S1_2 S -0.19514(9) 0.13731(7) 0.51387(5)
N1_2 N -0.5600(3) 0.06546(16) 0.43344(11)
C1_2 C -0.5443(3) 0.1269(2) 0.46022(14)
H1_2 H -0.6126 0.1564 0.4630
C2_2 C -0.4348(3) 0.1502(2) 0.48423(15)
H2_2 H -0.4294 0.1941 0.5028
C3_2 C -0.3334(3) 0.1080(2) 0.48048(14)
C4_2 C -0.3469(3) 0.0435(2) 0.45354(14)
H3_2 H -0.2802 0.0127 0.4507
C5_2 C -0.4600(3) 0.02542(18) 0.43100(15)
H4_2 H -0.4679 -0.0185 0.4124
N2_2 N 0.1101(3) 0.07881(16) 0.41921(13)
C6_2 C -0.0013(3) 0.0902(2) 0.39672(16)
H5_2 H -0.0141 0.0869 0.3609
C7_2 C -0.0984(3) 0.1066(2) 0.42273(16)
H6_2 H -0.1756 0.1142 0.4051
C8_2 C -0.0813(3) 0.1117(2) 0.47499(16)
C9_2 C 0.0328(3) 0.0997(2) 0.49897(16)
H7_2 H 0.0477 0.1015 0.5348
C10_2 C 0.1237(3) 0.0850(2) 0.46960(17)
H8_2 H 0.2022 0.0787 0.4864
S2G S 0.10707(8) -0.31822(5) 0.35338(4)
N3G N 0.1958(3) -0.41096(17) 0.20158(12)
C11G C 0.1910(3) -0.3396(2) 0.20869(15)
H9G H 0.2049 -0.3092 0.1811
C12G C 0.1672(3) -0.30690(19) 0.25331(14)
H10G H 0.1648 -0.2557 0.2559
C13G C 0.1467(3) -0.35027(19) 0.29452(14)
C14G C 0.1525(4) -0.4253(2) 0.28805(16)
H11G H 0.1397 -0.4572 0.3150
C15G C 0.1772(4) -0.4521(2) 0.24175(18)
H12G H 0.1814 -0.5030 0.2380
N4G N 0.2232(3) -0.08002(17) 0.35769(13)
C16G C 0.1079(4) -0.0998(2) 0.35336(18)
H13G H 0.0489 -0.0628 0.3522
C17G C 0.0688(3) -0.1711(2) 0.35049(16)
H14G H -0.0144 -0.1822 0.3470
C18G C 0.1538(3) -0.22548(19) 0.35290(14)
C19G C 0.2738(3) -0.2063(2) 0.35733(15)
H15G H 0.3345 -0.2422 0.3590
C20G C 0.3039(3) -0.1335(2) 0.35927(16)
H16G H 0.3864 -0.1210 0.3619
Ag1_2 Ag -0.72942(3) 0.042591(17) 0.375598(13)
Ag1_3 Ag 1.27058(3) 0.042591(17) 0.375598(13)
Ag1G Ag 0.22942(3) 0.542591(17) 0.124402(13)
Ag1G_2 Ag 0.22942(3) -0.457409(17) 0.124402(13)
N2_3 N -0.8899(3) 0.07881(16) 0.41921(13)
N3_2 N -0.6958(3) 0.08904(17) 0.29842(12)
N4G_2 N -0.7768(3) -0.08002(17) 0.35769(13)
S3 S 0.21884(9) 0.37532(6) 0.35581(5)
O1 O 0.1008(2) 0.40623(14) 0.34098(12)
O2 O 0.2671(2) 0.33735(14) 0.31455(11)
O3 O 0.3016(2) 0.42187(16) 0.38492(13)
C21 C 0.1894(3) 0.3079(2) 0.39749(15)
F1 F 0.1098(3) 0.25656(15) 0.37752(13)
F2 F 0.1448(3) 0.33195(19) 0.43919(12)
F3 F 0.2878(3) 0.26841(16) 0.41454(12)
N5 N 0.0000 0.1307(4) 0.2500
C22 C 0.0000 0.1963(4) 0.2500
C23 C 0.0000 0.2793(4) 0.2500
H19 H -0.0822 0.2969 0.2419
H19F H 0.0822 0.2969 0.2581
H17? H 0.0503 0.2969 0.2246
H18? H 0.0319 0.2969 0.2835
loop_
_geom_bond_atom_site_label_1
_geom_bond_atom_site_label_2
_geom_bond_site_symmetry_1
_geom_bond_site_symmetry_2
Ag1 N1 1_555 1_555
S1 C3 1_555 1_555
S2 C13 1_555 1_555
N1 C1 1_555 1_555
C1 H1 1_555 1_555
C2 C1 1_555 1_555
H2 C2 1_555 1_555
C3 C2 1_555 1_555
C4 C3 1_555 1_555
H3 C4 1_555 1_555
C5 N1 1_555 1_555
H4 C5 1_555 1_555
N2 C6 1_555 1_555
C6 H5 1_555 1_555
C7 C6 1_555 1_555
H6 C7 1_555 1_555
C8 S1 1_555 1_555
C9 C8 1_555 1_555
H7 C9 1_555 1_555
C10 N2 1_555 1_555
H8 C10 1_555 1_555
N3 Ag1 1_555 1_555
C11 N3 1_555 1_555
H9 C11 1_555 1_555
C12 C11 1_555 1_555
H10 C12 1_555 1_555
C13 C12 1_555 1_555
C14 C13 1_555 1_555
H11 C14 1_555 1_555
C15 N3 1_555 1_555
H12 C15 1_555 1_555
N4 C16 1_555 1_555
C16 H13 1_555 1_555
C17 C16 1_555 1_555
H14 C17 1_555 1_555
C18 S2 1_555 1_555
C19 C18 1_555 1_555
H15 C19 1_555 1_555
C20 N4 1_555 1_555
H16 C20 1_555 1_555
S3 O1 1_555 1_555
O2 S3 1_555 1_555
O3 S3 1_555 1_555
C21 S3 1_555 1_555
F1 C21 1_555 1_555
F2 C21 1_555 1_555
F3 C21 1_555 1_555
N5 C22 1_555 1_555
C22 C23 1_555 1_555
C23 H19 1_555 1_555
H19F C23 1_555 1_555
S1_2 C3_2 1_555 1_555
N1_2 C1_2 1_555 1_555
C1_2 H1_2 1_555 1_555
C2_2 C1_2 1_555 1_555
H2_2 C2_2 1_555 1_555
C3_2 C2_2 1_555 1_555
C4_2 C3_2 1_555 1_555
H3_2 C4_2 1_555 1_555
C5_2 N1_2 1_555 1_555
H4_2 C5_2 1_555 1_555
N2_2 Ag1 1_555 1_555
C6_2 N2_2 1_555 1_555
H5_2 C6_2 1_555 1_555
C7_2 C6_2 1_555 1_555
H6_2 C7_2 1_555 1_555
C8_2 S1_2 1_555 1_555
C9_2 C8_2 1_555 1_555
H7_2 C9_2 1_555 1_555
C10_2 N2_2 1_555 1_555
H8_2 C10_2 1_555 1_555
S2G C13G 1_555 1_555
N3G C11G 1_555 1_555
C11G H9G 1_555 1_555
C12G C11G 1_555 1_555
H10G C12G 1_555 1_555
C13G C12G 1_555 1_555
C14G C13G 1_555 1_555
H11G C14G 1_555 1_555
C15G N3G 1_555 1_555
H12G C15G 1_555 1_555
N4G Ag1 1_555 1_555
C16G N4G 1_555 1_555
H13G C16G 1_555 1_555
C17G C16G 1_555 1_555
H14G C17G 1_555 1_555
C18G S2G 1_555 1_555
C19G C18G 1_555 1_555
H15G C19G 1_555 1_555
C20G N4G 1_555 1_555
H16G C20G 1_555 1_555
Ag1_2 N1_2 1_555 1_555
Ag1_3 N2 1_555 1_555
Ag1G N4 1_555 1_555
Ag1G_2 N3G 1_555 1_555
N2_3 Ag1_2 1_555 1_555
N3_2 Ag1_2 1_555 1_555
N4G_2 Ag1_2 1_555 1_555
C4 C5 1_555 1_555
C7 C8 1_555 1_555
C9 C10 1_555 1_555
C14 C15 1_555 1_555
C17 C18 1_555 1_555
C19 C20 1_555 1_555
C4_2 C5_2 1_555 1_555
C7_2 C8_2 1_555 1_555
C9_2 C10_2 1_555 1_555
C14G C15G 1_555 1_555
C17G C18G 1_555 1_555
C19G C20G 1_555 1_555

#END
