
#######################################################################
#
#                 Cambridge Crystallographic Data Centre
#                                CCDC 
#
#######################################################################
#
# If this CIF has been generated from an entry in the Cambridge 
# Structural Database, then it will include bibliographic, chemical, 
# crystal, experimental, refinement or atomic coordinate data resulting 
# from the CCDC's data processing and validation procedures.
#
#######################################################################

data_QOLNIO
_symmetry_cell_setting           monoclinic
_symmetry_space_group_name_H-M   'P 21/n'
_symmetry_Int_Tables_number      14
_space_group_name_Hall           '-P 2yn'
loop_
_symmetry_equiv_pos_site_id
_symmetry_equiv_pos_as_xyz
1 x,y,z
2 1/2+x,1/2-y,1/2+z
3 -x,-y,-z
4 1/2-x,1/2+y,1/2-z
_cell_length_a                   10.7877(6)
_cell_length_b                   15.6050(8)
_cell_length_c                   16.2228(9)
_cell_angle_alpha                90
_cell_angle_beta                 97.876(2)
_cell_angle_gamma                90
_cell_volume                     2705.22
loop_
_atom_site_label
_atom_site_type_symbol
_atom_site_fract_x
_atom_site_fract_y
_atom_site_fract_z
P1 P 0.73360(15) 0.62111(11) 0.25780(10)
F1 F 0.6763(3) 0.5450(2) 0.30543(19)
F2 F 0.8226(3) 0.6452(2) 0.34120(17)
F3 F 0.7911(3) 0.69743(18) 0.21052(16)
F4 F 0.6460(3) 0.5967(2) 0.17477(19)
F5 F 0.6291(3) 0.6845(2) 0.2832(2)
F6 F 0.8387(3) 0.55901(19) 0.23246(18)
O1 O 0.4584(9) 0.3831(6) 0.1464(7)
O2 O 0.6482(8) 0.3983(5) 0.1146(6)
C23 C 0.5250(10) 0.4215(7) 0.1043(7)
C24 C 0.4925(13) 0.4786(7) 0.0287(7)
H21 H 0.4034 0.4752 0.0097
C25 C 0.6973(10) 0.3768(10) 0.1959(7)
H23 H 0.6526 0.3277 0.2152
H24 H 0.6906 0.4252 0.2335
C26 C 0.8324(9) 0.3546(7) 0.1927(8)
H25 H 0.8619 0.3163 0.2383
H26 H 0.8822 0.4065 0.1976
H27 H 0.8402 0.3266 0.1403
C24B C 0.5075(13) 0.5214(7) -0.0287(7)
C23B C 0.4750(10) 0.5785(7) -0.1043(7)
O1B O 0.5416(9) 0.6169(6) -0.1464(7)
O2B O 0.3518(8) 0.6017(5) -0.1146(6)
C25B C 0.3027(10) 0.6232(10) -0.1959(7)
H23B H 0.3474 0.6723 -0.2152
H24B H 0.3094 0.5748 -0.2335
C26B C 0.1676(9) 0.6454(7) -0.1927(8)
H25B H 0.1381 0.6837 -0.2383
H26B H 0.1178 0.5935 -0.1976
H27B H 0.1598 0.6734 -0.1403
H21B H 0.5966 0.5248 -0.0097
Cu1 Cu 0.31469(5) 0.69478(3) 0.45808(3)
S1 S -0.14502(12) 0.57553(12) 0.66009(9)
S2 S 0.34241(13) 1.11610(8) 0.44237(8)
N1 N 0.1702(3) 0.6625(2) 0.5211(2)
C1 C 0.1607(4) 0.5840(3) 0.5495(3)
H1 H 0.2243 0.5449 0.5418
C2 C 0.0644(4) 0.5551(3) 0.5897(3)
H2 H 0.0617 0.4979 0.6076
C3 C -0.0276(4) 0.6123(4) 0.6028(3)
C4 C -0.0189(4) 0.6950(3) 0.5756(3)
H3 H -0.0793 0.7359 0.5850
C5 C 0.0794(4) 0.7171(3) 0.5345(3)
H4 H 0.0832 0.7735 0.5148
N2 N -0.5229(3) 0.6467(2) 0.5178(2)
C6 C -0.4187(4) 0.6488(3) 0.4814(3)
H5 H -0.4273 0.6649 0.4250
C7 C -0.3011(4) 0.6296(3) 0.5194(3)
H6 H -0.2321 0.6320 0.4898
C8 C -0.2860(4) 0.6068(3) 0.6019(3)
C9 C -0.3928(4) 0.6047(3) 0.6418(3)
H7 H -0.3866 0.5905 0.6985
C10 C -0.5067(4) 0.6237(3) 0.5971(3)
H8 H -0.5778 0.6202 0.6246
N3 N 0.3367(3) 0.8246(2) 0.4558(2)
C11 C 0.3621(4) 0.8657(3) 0.3882(3)
H9 H 0.3767 0.8326 0.3421
C12 C 0.3682(4) 0.9519(3) 0.3812(3)
H10 H 0.3891 0.9767 0.3321
C13 C 0.3438(4) 1.0036(3) 0.4462(3)
C14 C 0.3232(4) 0.9621(3) 0.5180(3)
H11 H 0.3106 0.9937 0.5655
C15 C 0.3211(4) 0.8746(3) 0.5195(3)
H12 H 0.3077 0.8479 0.5695
N4 N 0.2340(3) 1.1629(2) 0.1642(2)
C16 C 0.3431(4) 1.1866(3) 0.2050(3)
H13 H 0.3995 1.2144 0.1747
C17 C 0.3802(4) 1.1735(3) 0.2883(3)
H14 H 0.4594 1.1920 0.3134
C18 C 0.3004(4) 1.1332(3) 0.3342(3)
C19 C 0.1876(4) 1.1081(3) 0.2936(3)
H15 H 0.1295 1.0807 0.3230
C20 C 0.1584(4) 1.1226(3) 0.2100(3)
H16 H 0.0807 1.1030 0.1834
S1_2 S 0.85498(12) 0.57553(12) 0.66009(9)
N1_2 N 1.1702(3) 0.6625(2) 0.5211(2)
C1_2 C 1.1607(4) 0.5840(3) 0.5495(3)
H1_2 H 1.2243 0.5449 0.5418
C2_2 C 1.0644(4) 0.5551(3) 0.5897(3)
H2_2 H 1.0617 0.4979 0.6076
C3_2 C 0.9724(4) 0.6123(4) 0.6028(3)
C4_2 C 0.9811(4) 0.6950(3) 0.5756(3)
H3_2 H 0.9207 0.7359 0.5850
C5_2 C 1.0794(4) 0.7171(3) 0.5345(3)
H4_2 H 1.0832 0.7735 0.5148
N2_2 N 0.4771(3) 0.6467(2) 0.5178(2)
C6_2 C 0.5813(4) 0.6488(3) 0.4814(3)
H5_2 H 0.5727 0.6649 0.4250
C7_2 C 0.6989(4) 0.6296(3) 0.5194(3)
H6_2 H 0.7679 0.6320 0.4898
C8_2 C 0.7140(4) 0.6068(3) 0.6019(3)
C9_2 C 0.6072(4) 0.6047(3) 0.6418(3)
H7_2 H 0.6134 0.5905 0.6985
C10_2 C 0.4933(4) 0.6237(3) 0.5971(3)
H8_2 H 0.4222 0.6202 0.6246
S2C S 0.15759(13) 0.61610(8) 0.05763(8)
N3C N 0.1633(3) 0.3246(2) 0.0442(2)
C11C C 0.1379(4) 0.3657(3) 0.1118(3)
H9C H 0.1233 0.3326 0.1579
C12C C 0.1318(4) 0.4519(3) 0.1188(3)
H10C H 0.1109 0.4767 0.1679
C13C C 0.1562(4) 0.5036(3) 0.0538(3)
C14C C 0.1768(4) 0.4621(3) -0.0180(3)
H11C H 0.1894 0.4937 -0.0655
C15C C 0.1789(4) 0.3746(3) -0.0195(3)
H12C H 0.1923 0.3479 -0.0695
N4C N 0.2660(3) 0.6629(2) 0.3358(2)
C16C C 0.1569(4) 0.6866(3) 0.2950(3)
H13C H 0.1005 0.7144 0.3253
C17C C 0.1198(4) 0.6735(3) 0.2117(3)
H14C H 0.0406 0.6920 0.1866
C18C C 0.1996(4) 0.6332(3) 0.1658(3)
C19C C 0.3124(4) 0.6081(3) 0.2064(3)
H15C H 0.3705 0.5807 0.1770
C20C C 0.3416(4) 0.6226(3) 0.2900(3)
H16C H 0.4193 0.6030 0.3166
Cu1_2 Cu 1.31469(5) 0.69478(3) 0.45808(3)
Cu1_3 Cu -0.68531(5) 0.69478(3) 0.45808(3)
Cu1C Cu 0.18531(5) 1.19478(3) 0.04192(3)
Cu1C_2 Cu 0.18531(5) 0.19478(3) 0.04192(3)
N2_3 N 1.4771(3) 0.6467(2) 0.5178(2)
N3_2 N 1.3367(3) 0.8246(2) 0.4558(2)
N4C_2 N 1.2660(3) 0.6629(2) 0.3358(2)
N5? N 0.4611(9) 0.4128(7) 0.1599(7)
C21? C 0.5534(8) 0.3770(7) 0.1600(8)
C22? C 0.6938(8) 0.3554(8) 0.1668(8)
H17? H 0.7250 0.3396 0.2237
H18? H 0.7392 0.4050 0.1510
H19? H 0.7056 0.3079 0.1300
H20? H 0.5149 0.5374 0.0434
H22? H 0.5384 0.4598 -0.0154
loop_
_geom_bond_atom_site_label_1
_geom_bond_atom_site_label_2
_geom_bond_site_symmetry_1
_geom_bond_site_symmetry_2
Cu1 N1 1_555 1_555
S1 C3 1_555 1_555
S2 C13 1_555 1_555
N1 C1 1_555 1_555
C1 H1 1_555 1_555
C2 C1 1_555 1_555
H2 C2 1_555 1_555
C3 C2 1_555 1_555
C4 C3 1_555 1_555
H3 C4 1_555 1_555
C5 N1 1_555 1_555
H4 C5 1_555 1_555
N2 C6 1_555 1_555
C6 H5 1_555 1_555
C7 C6 1_555 1_555
H6 C7 1_555 1_555
C8 S1 1_555 1_555
C9 C8 1_555 1_555
H7 C9 1_555 1_555
C10 N2 1_555 1_555
H8 C10 1_555 1_555
N3 Cu1 1_555 1_555
C11 N3 1_555 1_555
H9 C11 1_555 1_555
C12 C11 1_555 1_555
H10 C12 1_555 1_555
C13 C12 1_555 1_555
C14 C13 1_555 1_555
H11 C14 1_555 1_555
C15 N3 1_555 1_555
H12 C15 1_555 1_555
N4 C16 1_555 1_555
C16 H13 1_555 1_555
C17 C16 1_555 1_555
H14 C17 1_555 1_555
C18 S2 1_555 1_555
C19 C18 1_555 1_555
H15 C19 1_555 1_555
C20 N4 1_555 1_555
H16 C20 1_555 1_555
P1 F1 1_555 1_555
F2 P1 1_555 1_555
F3 P1 1_555 1_555
F4 P1 1_555 1_555
F5 P1 1_555 1_555
F6 P1 1_555 1_555
O1 C23 1_555 1_555
O2 C23 1_555 1_555
C23 C24 1_555 1_555
C24 H21 1_555 1_555
C25 O2 1_555 1_555
H23 C25 1_555 1_555
H24 C25 1_555 1_555
C26 C25 1_555 1_555
H25 C26 1_555 1_555
H26 C26 1_555 1_555
H27 C26 1_555 1_555
C24B C24 1_555 1_555
C23B C24B 1_555 1_555
O1B C23B 1_555 1_555
O2B C23B 1_555 1_555
C25B O2B 1_555 1_555
H23B C25B 1_555 1_555
H24B C25B 1_555 1_555
C26B C25B 1_555 1_555
H25B C26B 1_555 1_555
H26B C26B 1_555 1_555
H27B C26B 1_555 1_555
H21B C24B 1_555 1_555
S1_2 C3_2 1_555 1_555
N1_2 C1_2 1_555 1_555
C1_2 H1_2 1_555 1_555
C2_2 C1_2 1_555 1_555
H2_2 C2_2 1_555 1_555
C3_2 C2_2 1_555 1_555
C4_2 C3_2 1_555 1_555
H3_2 C4_2 1_555 1_555
C5_2 N1_2 1_555 1_555
H4_2 C5_2 1_555 1_555
N2_2 Cu1 1_555 1_555
C6_2 N2_2 1_555 1_555
H5_2 C6_2 1_555 1_555
C7_2 C6_2 1_555 1_555
H6_2 C7_2 1_555 1_555
C8_2 S1_2 1_555 1_555
C9_2 C8_2 1_555 1_555
H7_2 C9_2 1_555 1_555
C10_2 N2_2 1_555 1_555
H8_2 C10_2 1_555 1_555
S2C C13C 1_555 1_555
N3C C11C 1_555 1_555
C11C H9C 1_555 1_555
C12C C11C 1_555 1_555
H10C C12C 1_555 1_555
C13C C12C 1_555 1_555
C14C C13C 1_555 1_555
H11C C14C 1_555 1_555
C15C N3C 1_555 1_555
H12C C15C 1_555 1_555
N4C Cu1 1_555 1_555
C16C N4C 1_555 1_555
H13C C16C 1_555 1_555
C17C C16C 1_555 1_555
H14C C17C 1_555 1_555
C18C S2C 1_555 1_555
C19C C18C 1_555 1_555
H15C C19C 1_555 1_555
C20C N4C 1_555 1_555
H16C C20C 1_555 1_555
Cu1_2 N1_2 1_555 1_555
Cu1_3 N2 1_555 1_555
Cu1C N4 1_555 1_555
Cu1C_2 N3C 1_555 1_555
N2_3 Cu1_2 1_555 1_555
N3_2 Cu1_2 1_555 1_555
N4C_2 Cu1_2 1_555 1_555
C4 C5 1_555 1_555
C7 C8 1_555 1_555
C9 C10 1_555 1_555
C14 C15 1_555 1_555
C17 C18 1_555 1_555
C19 C20 1_555 1_555
C4_2 C5_2 1_555 1_555
C7_2 C8_2 1_555 1_555
C9_2 C10_2 1_555 1_555
C14C C15C 1_555 1_555
C17C C18C 1_555 1_555
C19C C20C 1_555 1_555

#END
