
#######################################################################
#
#                 Cambridge Crystallographic Data Centre
#                                CCDC 
#
#######################################################################
#
# If this CIF has been generated from an entry in the Cambridge 
# Structural Database, then it will include bibliographic, chemical, 
# crystal, experimental, refinement or atomic coordinate data resulting 
# from the CCDC's data processing and validation procedures.
#
#######################################################################

data_QOLQIR
_symmetry_cell_setting           orthorhombic
_symmetry_space_group_name_H-M   'P n a 21'
_symmetry_Int_Tables_number      33
_space_group_name_Hall           'P 2c -2n'
loop_
_symmetry_equiv_pos_site_id
_symmetry_equiv_pos_as_xyz
1 x,y,z
2 -x,-y,1/2+z
3 1/2-x,1/2+y,1/2+z
4 1/2+x,1/2-y,z
_cell_length_a                   16.503(1)
_cell_length_b                   16.005(1)
_cell_length_c                   8.8130(5)
_cell_angle_alpha                90
_cell_angle_beta                 90
_cell_angle_gamma                90
_cell_volume                     2327.78
loop_
_atom_site_label
_atom_site_type_symbol
_atom_site_fract_x
_atom_site_fract_y
_atom_site_fract_z
Zn1 Zn 0.20430(2) 0.74537(3) 0.7727
Cr1 Cr 0.19310(5) 0.57094(4) 0.4924(1)
Cr2 Cr 0.20670(4) 0.90129(4) 1.0883(1)
O1 O 0.2119(2) 0.6468(2) 0.6145(4)
O2 O 0.0987(2) 0.5714(2) 0.4518(4)
O3 O 0.2451(2) 0.5817(2) 0.3447(4)
O4 O 0.2103(2) 0.4720(2) 0.5831(4)
O5 O 0.1222(2) 0.9476(2) 1.1100(4)
O6 O 0.2054(2) 0.8451(2) 0.9364(3)
O7 O 0.2230(2) 0.8411(2) 1.2303(3)
N1 N 0.2940(2) 0.6792(2) 0.9000(4)
N2 N 0.1086(2) 0.8080(2) 0.6509(4)
N3 N 0.1112(2) 0.6815(2) 0.8982(4)
N4 N 0.2910(2) 0.8144(2) 0.6426(4)
C1 C 0.2963(3) 0.5945(2) 0.9036(5)
C2 C 0.3530(3) 0.5498(2) 0.9823(6)
C3 C 0.4119(3) 0.5920(3) 1.0601(6)
C4 C 0.4116(3) 0.6780(3) 1.0582(6)
C5 C 0.3518(3) 0.7191(3) 0.9776(6)
C6 C 0.0510(3) 0.8510(3) 0.7228(6)
C7 C -0.0103(3) 0.8928(3) 0.6505(6)
C8 C -0.0128(3) 0.8898(3) 0.4932(7)
C9 C 0.0462(3) 0.8476(3) 0.4159(6)
C10 C 0.1064(3) 0.8072(3) 0.4999(6)
C11 C 0.0495(3) 0.6437(3) 0.8239(6)
C12 C -0.0143(3) 0.6046(3) 0.8989(6)
C13 C -0.0140(3) 0.6026(3) 1.0544(6)
C14 C 0.0480(3) 0.6415(3) 1.1323(6)
C15 C 0.1095(3) 0.6798(3) 1.0494(6)
C16 C 0.2921(3) 0.8975(3) 0.6513(5)
C17 C 0.3446(3) 0.9464(3) 0.5656(6)
C18 C 0.3979(3) 0.9068(3) 0.4707(6)
C19 C 0.3968(3) 0.8219(3) 0.4605(7)
C20 C 0.3430(3) 0.7785(3) 0.5473(6)
H1 H 0.2553 0.5643 0.8455
H2 H 0.3512 0.4892 0.9798
H3 H 0.4522 0.5609 1.1176
H4 H 0.4523 0.7089 1.1141
H5 H 0.3497 0.7797 0.9804
H6 H 0.0526 0.8532 0.8320
H7 H -0.0498 0.9226 0.7070
H8 H -0.0562 0.9186 0.4393
H9 H 0.0458 0.8456 0.3045
H10 H 0.1505 0.7761 0.4501
H11 H 0.0512 0.6426 0.7122
H12 H -0.0600 0.5791 0.8417
H13 H -0.0563 0.5743 1.1114
H14 H 0.0489 0.6415 1.2444
H15 H 0.1535 0.7086 1.1087
H16 H 0.2550 0.9247 0.7236
H17 H 0.3423 1.0078 0.5687
H18 H 0.4349 0.9391 0.4087
H19 H 0.4330 0.7923 0.3925
H20 H 0.3417 0.7183 0.5383
O4B O 0.2897(2) 0.9720(2) 1.0831(4)
Cr2B Cr 0.29330(4) 0.40129(4) 0.5883(1)
loop_
_geom_bond_atom_site_label_1
_geom_bond_atom_site_label_2
_geom_bond_site_symmetry_1
_geom_bond_site_symmetry_2
Zn1 O1 1_555 1_555
Cr1 O1 1_555 1_555
Cr2 O5 1_555 1_555
O2 Cr1 1_555 1_555
O3 Cr1 1_555 1_555
O4 Cr1 1_555 1_555
O6 Zn1 1_555 1_555
O7 Cr2 1_555 1_555
N1 Zn1 1_555 1_555
N2 Zn1 1_555 1_555
N3 Zn1 1_555 1_555
N4 Zn1 1_555 1_555
C1 N1 1_555 1_555
C2 C1 1_555 1_555
C3 C2 1_555 1_555
C4 C3 1_555 1_555
C5 N1 1_555 1_555
C6 N2 1_555 1_555
C7 C6 1_555 1_555
C8 C7 1_555 1_555
C9 C8 1_555 1_555
C10 N2 1_555 1_555
C11 N3 1_555 1_555
C12 C11 1_555 1_555
C13 C12 1_555 1_555
C14 C13 1_555 1_555
C15 N3 1_555 1_555
C16 N4 1_555 1_555
C17 C16 1_555 1_555
C18 C17 1_555 1_555
C19 C18 1_555 1_555
C20 N4 1_555 1_555
H1 C1 1_555 1_555
H2 C2 1_555 1_555
H3 C3 1_555 1_555
H4 C4 1_555 1_555
H5 C5 1_555 1_555
H6 C6 1_555 1_555
H7 C7 1_555 1_555
H8 C8 1_555 1_555
H9 C9 1_555 1_555
H10 C10 1_555 1_555
H11 C11 1_555 1_555
H12 C12 1_555 1_555
H13 C13 1_555 1_555
H14 C14 1_555 1_555
H15 C15 1_555 1_555
H16 C16 1_555 1_555
H17 C17 1_555 1_555
H18 C18 1_555 1_555
H19 C19 1_555 1_555
H20 C20 1_555 1_555
O4B Cr2 1_555 1_555
Cr2B O4 1_555 1_555
Cr2 O6 1_555 1_555
C4 C5 1_555 1_555
C9 C10 1_555 1_555
C14 C15 1_555 1_555
C19 C20 1_555 1_555

#END
