
#######################################################################
#
#                 Cambridge Crystallographic Data Centre
#                                CCDC 
#
#######################################################################
#
# If this CIF has been generated from an entry in the Cambridge 
# Structural Database, then it will include bibliographic, chemical, 
# crystal, experimental, refinement or atomic coordinate data resulting 
# from the CCDC's data processing and validation procedures.
#
#######################################################################

data_QOLQEN
_symmetry_cell_setting           orthorhombic
_symmetry_space_group_name_H-M   'P n a 21'
_symmetry_Int_Tables_number      33
_space_group_name_Hall           'P 2c -2n'
loop_
_symmetry_equiv_pos_site_id
_symmetry_equiv_pos_as_xyz
1 x,y,z
2 -x,-y,1/2+z
3 1/2-x,1/2+y,1/2+z
4 1/2+x,1/2-y,z
_cell_length_a                   15.927(2)
_cell_length_b                   16.311(2)
_cell_length_c                   8.8513(9)
_cell_angle_alpha                90
_cell_angle_beta                 90
_cell_angle_gamma                90
_cell_volume                     2299.44
loop_
_atom_site_label
_atom_site_type_symbol
_atom_site_fract_x
_atom_site_fract_y
_atom_site_fract_z
Cu1 Cu 0.20527(1) 0.74747(1) 0.7727
Cr1 Cr 0.19674(2) 0.56571(2) 0.48907(5)
Cr2 Cr 0.20805(2) 0.90279(2) 1.10811(4)
O1 O 0.21388(9) 0.64557(8) 0.5944(2)
O2 O 0.1011(1) 0.5659(1) 0.4345(2)
O3 O 0.2591(1) 0.5638(1) 0.3498(2)
O4 O 0.20914(8) 0.47558(8) 0.6036(2)
O5 O 0.11819(9) 0.9455(1) 1.1342(2)
O6 O 0.20694(9) 0.85040(8) 0.9536(2)
O7 O 0.22781(9) 0.84131(9) 1.2466(2)
N1 N 0.2946(1) 0.68427(9) 0.8896(2)
N2 N 0.1132(1) 0.8083(1) 0.6605(2)
N3 N 0.1158(1) 0.68611(9) 0.8904(2)
N4 N 0.2911(1) 0.81288(9) 0.6545(2)
C1 C 0.2943(1) 0.6004(1) 0.8907(2)
C2 C 0.3503(1) 0.5567(1) 0.9767(3)
C3 C 0.4091(1) 0.5972(1) 1.0631(2)
C4 C 0.4103(1) 0.6819(1) 1.0619(3)
C5 C 0.3519(1) 0.7234(1) 0.9728(3)
C6 C 0.0559(1) 0.8541(1) 0.7343(2)
C7 C -0.0057(1) 0.8974(1) 0.6611(3)
C8 C -0.0107(1) 0.8940(1) 0.5068(3)
C9 C 0.0490(1) 0.8472(1) 0.4278(3)
C10 C 0.1091(1) 0.8052(1) 0.5093(2)
C11 C 0.0544(1) 0.6456(1) 0.8163(2)
C12 C -0.0087(1) 0.6033(1) 0.8912(2)
C13 C -0.0089(1) 0.6022(1) 1.0463(3)
C14 C 0.0542(1) 0.6436(1) 1.1247(3)
C15 C 0.1151(1) 0.6840(1) 1.0409(2)
C16 C 0.2899(1) 0.8947(1) 0.6586(2)
C17 C 0.3421(1) 0.9433(1) 0.5713(3)
C18 C 0.3983(1) 0.9053(1) 0.4766(3)
C19 C 0.4001(1) 0.8210(1) 0.4719(3)
C20 C 0.3459(1) 0.7771(1) 0.5604(3)
H1 H 0.2535 0.5717 0.8272
H2 H 0.3483 0.4975 0.9764
H3 H 0.4485 0.5670 1.1229
H4 H 0.4500 0.7110 1.1233
H5 H 0.3523 0.7826 0.9709
H6 H 0.0583 0.8560 0.8434
H7 H -0.0453 0.9297 0.7185
H8 H -0.0548 0.9228 0.4540
H9 H 0.0487 0.8443 0.3188
H10 H 0.1506 0.7721 0.4576
H11 H 0.0557 0.6468 0.7064
H12 H -0.0525 0.5743 0.8356
H13 H -0.0524 0.5741 1.1021
H14 H 0.0558 0.6438 1.2350
H15 H 0.1594 0.7127 1.0946
H16 H 0.2512 0.9211 0.7287
H17 H 0.3387 1.0027 0.5744
H18 H 0.4351 0.9373 0.4125
H19 H 0.4389 0.7927 0.4062
H20 H 0.3475 0.7182 0.5548
O4B O 0.29086(8) 0.97558(8) 1.1036(2)
Cr2B Cr 0.29195(2) 0.40279(2) 0.60811(4)
loop_
_geom_bond_atom_site_label_1
_geom_bond_atom_site_label_2
_geom_bond_site_symmetry_1
_geom_bond_site_symmetry_2
Cu1 O1 1_555 1_555
Cr1 O1 1_555 1_555
Cr2 O5 1_555 1_555
O2 Cr1 1_555 1_555
O3 Cr1 1_555 1_555
O4 Cr1 1_555 1_555
O6 Cu1 1_555 1_555
O7 Cr2 1_555 1_555
N1 Cu1 1_555 1_555
N2 Cu1 1_555 1_555
N3 Cu1 1_555 1_555
N4 Cu1 1_555 1_555
C1 N1 1_555 1_555
C2 C1 1_555 1_555
C3 C2 1_555 1_555
C4 C3 1_555 1_555
C5 N1 1_555 1_555
C6 N2 1_555 1_555
C7 C6 1_555 1_555
C8 C7 1_555 1_555
C9 C8 1_555 1_555
C10 N2 1_555 1_555
C11 N3 1_555 1_555
C12 C11 1_555 1_555
C13 C12 1_555 1_555
C14 C13 1_555 1_555
C15 N3 1_555 1_555
C16 N4 1_555 1_555
C17 C16 1_555 1_555
C18 C17 1_555 1_555
C19 C18 1_555 1_555
C20 N4 1_555 1_555
H1 C1 1_555 1_555
H2 C2 1_555 1_555
H3 C3 1_555 1_555
H4 C4 1_555 1_555
H5 C5 1_555 1_555
H6 C6 1_555 1_555
H7 C7 1_555 1_555
H8 C8 1_555 1_555
H9 C9 1_555 1_555
H10 C10 1_555 1_555
H11 C11 1_555 1_555
H12 C12 1_555 1_555
H13 C13 1_555 1_555
H14 C14 1_555 1_555
H15 C15 1_555 1_555
H16 C16 1_555 1_555
H17 C17 1_555 1_555
H18 C18 1_555 1_555
H19 C19 1_555 1_555
H20 C20 1_555 1_555
O4B Cr2 1_555 1_555
Cr2B O4 1_555 1_555
Cr2 O6 1_555 1_555
C4 C5 1_555 1_555
C9 C10 1_555 1_555
C14 C15 1_555 1_555
C19 C20 1_555 1_555

#END
