
#######################################################################
#
#                 Cambridge Crystallographic Data Centre
#                                CCDC 
#
#######################################################################
#
# If this CIF has been generated from an entry in the Cambridge 
# Structural Database, then it will include bibliographic, chemical, 
# crystal, experimental, refinement or atomic coordinate data resulting 
# from the CCDC's data processing and validation procedures.
#
#######################################################################

data_QOLQOX
_symmetry_cell_setting           monoclinic
_symmetry_space_group_name_H-M   'C 2/c'
_symmetry_Int_Tables_number      15
_space_group_name_Hall           '-C 2yn'
loop_
_symmetry_equiv_pos_site_id
_symmetry_equiv_pos_as_xyz
1 x,y,z
2 -x,y,1/2-z
3 1/2+x,1/2+y,z
4 1/2-x,1/2+y,1/2-z
5 -x,-y,-z
6 x,-y,1/2+z
7 1/2-x,1/2-y,-z
8 1/2+x,1/2-y,1/2+z
_cell_length_a                   14.8034(9)
_cell_length_b                   11.1847(7)
_cell_length_c                   15.788(1)
_cell_angle_alpha                90
_cell_angle_beta                 110.023(1)
_cell_angle_gamma                90
_cell_volume                     2456.04
loop_
_atom_site_label
_atom_site_type_symbol
_atom_site_fract_x
_atom_site_fract_y
_atom_site_fract_z
Cd1 Cd 0.2500 0.7500 0.5000
Cr1 Cr 0.07481(3) 0.47895(4) 0.44529(3)
O1 O 0.1518(1) 0.5857(2) 0.4722(1)
O2 O 0.0283(3) 0.4553(3) 0.5319(3)
O3 O 0.0363(7) 0.461(1) 0.3480(8)
O4 O 0.1495(3) 0.3575(4) 0.4580(4)
O5 O 0.0001(6) 0.489(1) 0.3420(8)
O6 O 0.0984(4) 0.3615(4) 0.4847(5)
N1 N 0.2597(1) 0.7340(2) 0.3548(1)
N2 N 0.1176(1) 0.8766(2) 0.4394(1)
C1 C 0.3204(2) 0.8037(2) 0.3302(2)
C2 C 0.3272(2) 0.8024(2) 0.2453(2)
C3 C 0.2695(2) 0.7258(2) 0.1820(2)
C4 C 0.2064(2) 0.6527(3) 0.2061(2)
C5 C 0.2036(2) 0.6601(2) 0.2918(2)
C6 C 0.1267(2) 0.9938(3) 0.4510(2)
C7 C 0.0534(2) 1.0728(3) 0.4127(2)
C8 C -0.0339(2) 1.0307(3) 0.3593(2)
C9 C -0.0451(2) 0.9106(3) 0.3462(2)
C10 C 0.0313(2) 0.8363(2) 0.3869(2)
H1 H 0.3622 0.8603 0.3762
H2 H 0.3718 0.8552 0.2294
H3 H 0.2704 0.7216 0.1194
H4 H 0.1642 0.5983 0.1626
H5 H 0.1594 0.6076 0.3082
H6 H 0.1886 1.0240 0.4885
H7 H 0.0644 1.1589 0.4222
H8 H -0.0850 1.0879 0.3320
H9 H -0.1064 0.8789 0.3066
H10 H 0.0226 0.7486 0.3773
O1F O 0.3482(1) 0.9143(2) 0.5278(1)
N1F N 0.2403(1) 0.7660(2) 0.6452(1)
N2F N 0.3824(1) 0.6234(2) 0.5606(1)
O2D O -0.0283(3) 0.5447(3) 0.4681(3)
Cr1D Cr -0.07481(3) 0.52105(4) 0.55471(3)
loop_
_geom_bond_atom_site_label_1
_geom_bond_atom_site_label_2
_geom_bond_site_symmetry_1
_geom_bond_site_symmetry_2
Cd1 O1 1_555 1_555
Cr1 O1 1_555 1_555
O2 Cr1 1_555 1_555
O3 Cr1 1_555 1_555
O4 Cr1 1_555 1_555
O5 Cr1 1_555 1_555
O6 Cr1 1_555 1_555
N1 Cd1 1_555 1_555
N2 Cd1 1_555 1_555
C1 N1 1_555 1_555
C2 C1 1_555 1_555
C3 C2 1_555 1_555
C4 C3 1_555 1_555
C5 N1 1_555 1_555
C6 N2 1_555 1_555
C7 C6 1_555 1_555
C8 C7 1_555 1_555
C9 C8 1_555 1_555
C10 N2 1_555 1_555
H1 C1 1_555 1_555
H2 C2 1_555 1_555
H3 C3 1_555 1_555
H4 C4 1_555 1_555
H5 C5 1_555 1_555
H6 C6 1_555 1_555
H7 C7 1_555 1_555
H8 C8 1_555 1_555
H9 C9 1_555 1_555
H10 C10 1_555 1_555
O1F Cd1 1_555 1_555
N1F Cd1 1_555 1_555
N2F Cd1 1_555 1_555
O2D Cr1 1_555 1_555
Cr1D O2 1_555 1_555
O2 O2D 1_555 1_555
O3 O5 1_555 1_555
O4 O6 1_555 1_555
C4 C5 1_555 1_555
C9 C10 1_555 1_555
O2D Cr1D 1_555 1_555

#END
