
#######################################################################
#
#                 Cambridge Crystallographic Data Centre
#                                CCDC 
#
#######################################################################
#
# If this CIF has been generated from an entry in the Cambridge 
# Structural Database, then it will include bibliographic, chemical, 
# crystal, experimental, refinement or atomic coordinate data resulting 
# from the CCDC's data processing and validation procedures.
#
#######################################################################

data_QOLRAK
_symmetry_cell_setting           triclinic
_symmetry_space_group_name_H-M   'P -1'
_symmetry_Int_Tables_number      2
_space_group_name_Hall           '-P 1'
loop_
_symmetry_equiv_pos_site_id
_symmetry_equiv_pos_as_xyz
1 x,y,z
2 -x,-y,-z
_cell_length_a                   10.814(2)
_cell_length_b                   16.785(3)
_cell_length_c                   18.020(4)
_cell_angle_alpha                93.88(3)
_cell_angle_beta                 107.31(3)
_cell_angle_gamma                108.77(3)
_cell_volume                     2907.94
loop_
_atom_site_label
_atom_site_type_symbol
_atom_site_fract_x
_atom_site_fract_y
_atom_site_fract_z
Ti1 Ti 0.58063(9) 0.28840(5) 0.46516(5)
Ti2 Ti 0.17200(9) -0.21114(5) -0.03544(5)
O1 O 0.4377(3) 0.19687(18) 0.39448(18)
O2 O 0.2247(3) -0.12289(17) 0.04965(17)
O3 O 0.5991(3) 0.35732(17) 0.39012(18)
O4 O 0.0066(4) 0.25701(19) 0.03145(18)
O5 O 0.7010(3) 0.37696(17) 0.55035(18)
O6 O 1.1533(3) 0.69750(17) 0.89353(18)
O7 O 0.7170(3) 0.24258(18) 0.46847(17)
O8 O 0.8519(3) 0.14219(17) 0.11032(18)
N1 N 0.4094(5) 0.3330(2) 0.4821(2)
N2 N 0.5330(4) 0.2081(2) 0.5576(2)
N3 N 0.4049(4) -0.1659(2) -0.0192(2)
N4 N 0.2326(5) -0.2921(2) 0.0567(2)
C1 C 0.3616(5) 0.1169(3) 0.3529(3)
C2 C 0.3602(5) 0.0942(3) 0.2785(3)
H1 H 0.4111 0.1349 0.2558
C3 C 0.2833(5) 0.0104(2) 0.2349(3)
C4 C 0.2863(5) -0.0159(2) 0.1596(3)
H2 H 0.3362 0.0238 0.1358
C5 C 0.2167(5) -0.0990(2) 0.1211(2)
C6 C 0.1396(5) -0.1591(3) 0.1554(3)
H3 H 0.0915 -0.2152 0.1286
C7 C 0.1345(5) -0.1357(3) 0.2281(3)
H4 H 0.0829 -0.1764 0.2504
C8 C 0.2062(5) -0.0507(2) 0.2702(3)
C9 C 0.2057(5) -0.0254(3) 0.3462(3)
H5 H 0.1536 -0.0648 0.3693
C10 C 0.2809(5) 0.0566(3) 0.3864(3)
H6 H 0.2787 0.0725 0.4363
C11 C 0.5392(6) 0.3596(3) 0.3127(3)
C12 C 0.6291(6) 0.4063(3) 0.2745(3)
H7 H 0.7242 0.4318 0.3010
C13 C 0.5713(6) 0.4126(3) 0.1969(3)
H8 H 0.6296 0.4427 0.1712
C14 C 0.4286(6) 0.3757(3) 0.1549(3)
C15 C 0.3681(6) 0.3820(3) 0.0750(3)
H9 H 0.4245 0.4133 0.0490
C16 C 0.2302(6) 0.3433(3) 0.0358(3)
H10 H 0.1929 0.3479 -0.0166
C17 C 0.1430(6) 0.2960(3) 0.0747(3)
C18 C 0.1961(5) 0.2877(3) 0.1509(3)
H11 H 0.1379 0.2557 0.1756
C19 C 0.3393(5) 0.3276(3) 0.1925(3)
C20 C 0.4008(6) 0.3215(3) 0.2742(3)
H12 H 0.3444 0.2910 0.3006
C21 C 0.8034(5) 0.4009(2) 0.6204(3)
C22 C 0.8586(5) 0.3411(3) 0.6558(3)
H13 H 0.8260 0.2851 0.6290
C23 C 0.9571(5) 0.3645(3) 0.7274(3)
H14 H 0.9892 0.3236 0.7499
C24 C 1.0138(5) 0.4496(3) 0.7697(3)
C25 C 1.1157(5) 0.4753(3) 0.8452(3)
H15 H 1.1520 0.4360 0.8680
C26 C 1.1626(5) 0.5570(3) 0.8860(3)
H16 H 1.2299 0.5729 0.9360
C27 C 1.1077(5) 0.6175(3) 0.8515(3)
C28 C 1.0126(5) 0.5948(3) 0.7782(3)
H17 H 0.9795 0.6354 0.7558
C29 C 0.9617(5) 0.5105(2) 0.7344(3)
C30 C 0.8577(5) 0.4843(3) 0.6594(3)
H18 H 0.8248 0.5244 0.6356
C31 C 0.7725(5) 0.2040(3) 0.4263(3)
C32 C 0.7579(5) 0.2119(2) 0.3498(3)
H19 H 0.7069 0.2440 0.3254
C33 C 0.8189(5) 0.1722(3) 0.3071(3)
C34 C 0.8040(5) 0.1782(3) 0.2267(3)
H20 H 0.7508 0.2082 0.2004
C35 C 0.8681(5) 0.1397(3) 0.1873(3)
C36 C 0.9466(6) 0.0934(3) 0.2258(3)
H21 H 0.9888 0.0674 0.1989
C37 C 0.9617(6) 0.0861(3) 0.3027(3)
H22 H 1.0152 0.0556 0.3276
C38 C 0.8981(5) 0.1239(3) 0.3454(3)
C39 C 0.9105(6) 0.1173(3) 0.4244(3)
H23 H 0.9622 0.0863 0.4504
C40 C 0.8481(6) 0.1554(3) 0.4637(3)
H24 H 0.8559 0.1491 0.5156
C41 C 0.4421(6) 0.4068(3) 0.5318(3)
H25 H 0.5353 0.4380 0.5597
C42 C 0.3449(6) 0.4377(3) 0.5430(3)
H26 H 0.3731 0.4886 0.5779
C43 C 0.2060(6) 0.3940(3) 0.5031(3)
C44 C 0.0957(6) 0.4257(3) 0.5144(3)
H27 H 0.1389 0.4781 0.5521
H28 H 0.0344 0.3835 0.5333
H29 H 0.0437 0.4355 0.4648
C45 C 0.1722(6) 0.3192(3) 0.4519(3)
H30 H 0.0797 0.2880 0.4225
C46 C 0.2740(6) 0.2907(3) 0.4439(3)
H31 H 0.2473 0.2392 0.4101
C47 C 0.5407(5) 0.1309(3) 0.5550(3)
H32 H 0.5716 0.1126 0.5164
C48 C 0.5065(5) 0.0757(3) 0.6049(3)
H33 H 0.5175 0.0231 0.6002
C49 C 0.4575(6) 0.0974(3) 0.6603(4)
C50 C 0.4203(7) 0.0412(4) 0.7179(4)
H34 H 0.4330 -0.0118 0.7066
H35 H 0.3252 0.0299 0.7131
H36 H 0.4791 0.0696 0.7708
C51 C 0.4543(12) 0.1781(5) 0.6646(6)
H37 H 0.4274 0.1986 0.7041
C52 C 0.4893(9) 0.2302(4) 0.6129(5)
H38 H 0.4814 0.2837 0.6175
C53 C 0.4602(6) -0.2079(3) -0.0576(3)
H39 H 0.4016 -0.2589 -0.0921
C54 C 0.5973(6) -0.1803(3) -0.0492(3)
H40 H 0.6283 -0.2117 -0.0792
C55 C 0.6926(5) -0.1059(3) 0.0035(3)
C56 C 0.8430(5) -0.0739(3) 0.0150(4)
H41 H 0.8891 -0.0222 0.0538
H42 H 0.8561 -0.0624 -0.0341
H43 H 0.8811 -0.1163 0.0327
C57 C 0.6341(6) -0.0626(3) 0.0436(3)
H44 H 0.6905 -0.0120 0.0792
C58 C 0.4962(5) -0.0934(3) 0.0313(3)
H45 H 0.4619 -0.0625 0.0595
C59 C 0.1433(5) -0.3691(3) 0.0547(3)
H46 H 0.0544 -0.3867 0.0177
C60 C 0.1744(7) -0.4241(3) 0.1037(3)
H47 H 0.1068 -0.4771 0.0987
C61 C 0.2987(7) -0.4034(3) 0.1582(4)
C62 C 0.3371(7) -0.4598(4) 0.2160(4)
H48 H 0.2579 -0.5107 0.2075
H49 H 0.3665 -0.4295 0.2690
H50 H 0.4113 -0.4749 0.2082
C63 C 0.3916(8) -0.3236(5) 0.1624(7)
H51 H 0.4806 -0.3048 0.1994
C64 C 0.3523(8) -0.2709(4) 0.1110(5)
H52 H 0.4168 -0.2166 0.1163
O4A O -0.0066(4) -0.25701(19) -0.03145(18)
O6_2 O 0.1533(3) -0.30250(17) -0.10647(18)
O8A O 0.1481(3) -0.14219(17) -0.11032(18)
Ti2A Ti -0.17200(9) 0.21114(5) 0.03544(5)
Ti2_2 Ti 1.17200(9) 0.78886(5) 0.96456(5)
Ti2A_2 Ti 0.82800(9) 0.21114(5) 0.03544(5)
N5 N 0.7368(15) -0.3160(8) 0.1771(11)
C65 C 0.8084(8) -0.2716(5) 0.3216(5)
H53 H 0.8010 -0.2883 0.3716
C66 C 0.7427(7) -0.3327(4) 0.2560(5)
H54 H 0.7045 -0.3922 0.2624
C67 C 0.7578(7) -0.2280(4) 0.1794(5)
H55 H 0.7213 -0.2100 0.1294
C68 C 0.8213(8) -0.1676(4) 0.2449(5)
H56 H 0.8296 -0.1085 0.2396
C69 C 0.819(2) -0.1910(15) 0.3128(17)
C70 C 0.8554(15) -0.1270(8) 0.3823(7)
N6? N 0.885(2) -0.1844(18) 0.324(2)
C71? C 0.686(2) -0.3111(16) 0.1882(17)
C72? C 0.5987(14) -0.3744(8) 0.1181(7)
loop_
_geom_bond_atom_site_label_1
_geom_bond_atom_site_label_2
_geom_bond_site_symmetry_1
_geom_bond_site_symmetry_2
Ti1 O1 1_555 1_555
Ti2 O2 1_555 1_555
O1 C1 1_555 1_555
O2 C5 1_555 1_555
O3 Ti1 1_555 1_555
O4 C17 1_555 1_555
O5 Ti1 1_555 1_555
O6 C27 1_555 1_555
O7 Ti1 1_555 1_555
O8 C35 1_555 1_555
N1 Ti1 1_555 1_555
N2 Ti1 1_555 1_555
N3 Ti2 1_555 1_555
N4 Ti2 1_555 1_555
C1 C2 1_555 1_555
C2 H1 1_555 1_555
C3 C2 1_555 1_555
C4 C3 1_555 1_555
H2 C4 1_555 1_555
C5 C4 1_555 1_555
C6 C5 1_555 1_555
H3 C6 1_555 1_555
C7 C6 1_555 1_555
H4 C7 1_555 1_555
C8 C3 1_555 1_555
C9 C8 1_555 1_555
H5 C9 1_555 1_555
C10 C1 1_555 1_555
H6 C10 1_555 1_555
C11 O3 1_555 1_555
C12 C11 1_555 1_555
H7 C12 1_555 1_555
C13 C12 1_555 1_555
H8 C13 1_555 1_555
C14 C13 1_555 1_555
C15 C14 1_555 1_555
H9 C15 1_555 1_555
C16 C15 1_555 1_555
H10 C16 1_555 1_555
C17 C16 1_555 1_555
C18 C17 1_555 1_555
H11 C18 1_555 1_555
C19 C14 1_555 1_555
C20 C11 1_555 1_555
H12 C20 1_555 1_555
C21 O5 1_555 1_555
C22 C21 1_555 1_555
H13 C22 1_555 1_555
C23 C22 1_555 1_555
H14 C23 1_555 1_555
C24 C23 1_555 1_555
C25 C24 1_555 1_555
H15 C25 1_555 1_555
C26 C25 1_555 1_555
H16 C26 1_555 1_555
C27 C26 1_555 1_555
C28 C27 1_555 1_555
H17 C28 1_555 1_555
C29 C24 1_555 1_555
C30 C21 1_555 1_555
H18 C30 1_555 1_555
C31 O7 1_555 1_555
C32 C31 1_555 1_555
H19 C32 1_555 1_555
C33 C32 1_555 1_555
C34 C33 1_555 1_555
H20 C34 1_555 1_555
C35 C34 1_555 1_555
C36 C35 1_555 1_555
H21 C36 1_555 1_555
C37 C36 1_555 1_555
H22 C37 1_555 1_555
C38 C33 1_555 1_555
C39 C38 1_555 1_555
H23 C39 1_555 1_555
C40 C31 1_555 1_555
H24 C40 1_555 1_555
C41 N1 1_555 1_555
H25 C41 1_555 1_555
C42 C41 1_555 1_555
H26 C42 1_555 1_555
C43 C42 1_555 1_555
C44 C43 1_555 1_555
H27 C44 1_555 1_555
H28 C44 1_555 1_555
H29 C44 1_555 1_555
C45 C43 1_555 1_555
H30 C45 1_555 1_555
C46 N1 1_555 1_555
H31 C46 1_555 1_555
C47 N2 1_555 1_555
H32 C47 1_555 1_555
C48 C47 1_555 1_555
H33 C48 1_555 1_555
C49 C48 1_555 1_555
C50 C49 1_555 1_555
H34 C50 1_555 1_555
H35 C50 1_555 1_555
H36 C50 1_555 1_555
C51 C49 1_555 1_555
H37 C51 1_555 1_555
C52 N2 1_555 1_555
H38 C52 1_555 1_555
C53 N3 1_555 1_555
H39 C53 1_555 1_555
C54 C53 1_555 1_555
H40 C54 1_555 1_555
C55 C54 1_555 1_555
C56 C55 1_555 1_555
H41 C56 1_555 1_555
H42 C56 1_555 1_555
H43 C56 1_555 1_555
C57 C55 1_555 1_555
H44 C57 1_555 1_555
C58 N3 1_555 1_555
H45 C58 1_555 1_555
C59 N4 1_555 1_555
H46 C59 1_555 1_555
C60 C59 1_555 1_555
H47 C60 1_555 1_555
C61 C60 1_555 1_555
C62 C61 1_555 1_555
H48 C62 1_555 1_555
H49 C62 1_555 1_555
H50 C62 1_555 1_555
C63 C61 1_555 1_555
H51 C63 1_555 1_555
C64 N4 1_555 1_555
H52 C64 1_555 1_555
N5 C66 1_555 1_555
C65 H53 1_555 1_555
C66 C65 1_555 1_555
H54 C66 1_555 1_555
C67 N5 1_555 1_555
H55 C67 1_555 1_555
C68 C67 1_555 1_555
H56 C68 1_555 1_555
C69 C65 1_555 1_555
C70 C69 1_555 1_555
O4A Ti2 1_555 1_555
O6_2 Ti2 1_555 1_555
O8A Ti2 1_555 1_555
Ti2A O4 1_555 1_555
Ti2_2 O6 1_555 1_555
Ti2A_2 O8 1_555 1_555
C7 C8 1_555 1_555
C9 C10 1_555 1_555
C18 C19 1_555 1_555
C19 C20 1_555 1_555
C28 C29 1_555 1_555
C29 C30 1_555 1_555
C37 C38 1_555 1_555
C39 C40 1_555 1_555
C45 C46 1_555 1_555
C51 C52 1_555 1_555
C57 C58 1_555 1_555
C63 C64 1_555 1_555
C68 C69 1_555 1_555

#END
