
#######################################################################
#
#                 Cambridge Crystallographic Data Centre
#                                CCDC 
#
#######################################################################
#
# If this CIF has been generated from an entry in the Cambridge 
# Structural Database, then it will include bibliographic, chemical, 
# crystal, experimental, refinement or atomic coordinate data resulting 
# from the CCDC's data processing and validation procedures.
#
#######################################################################

data_QOLRIU
_symmetry_cell_setting           monoclinic
_symmetry_space_group_name_H-M   'P 21/c'
_symmetry_Int_Tables_number      14
_space_group_name_Hall           '-P 2ybc'
loop_
_symmetry_equiv_pos_site_id
_symmetry_equiv_pos_as_xyz
1 x,y,z
2 -x,1/2+y,1/2-z
3 -x,-y,-z
4 x,1/2-y,1/2+z
_cell_length_a                   6.2078(3)
_cell_length_b                   18.0634(8)
_cell_length_c                   13.7582(6)
_cell_angle_alpha                90
_cell_angle_beta                 101.1480(10)
_cell_angle_gamma                90
_cell_volume                     1513.65
loop_
_atom_site_label
_atom_site_type_symbol
_atom_site_fract_x
_atom_site_fract_y
_atom_site_fract_z
Cu1 Cu 0.45138(4) 0.436064(13) 0.923363(17)
Cu2 Cu 0.0000 0.5000 1.0000
O1 O 0.3062(2) 0.47502(8) 1.02454(10)
H1 H 0.317(4) 0.4451(12) 1.0676(16)
O2 O 0.2629(2) 0.48666(8) 0.80792(11)
O3 O 0.0227(3) 0.55352(8) 0.87520(11)
O4 O 0.4026(3) 0.60653(9) 0.17879(11)
O5 O 0.0522(3) 0.61526(9) 0.09439(12)
O6 O 0.4277(3) 0.84844(9) 0.49818(12)
O7 O 0.5496(3) 0.85774(11) 0.35583(14)
N1 N -0.0453(3) 0.70118(9) 0.37298(12)
C1 C 0.1144(3) 0.53476(11) 0.80546(15)
C2 C 0.0352(3) 0.57343(11) 0.70769(15)
C3 C 0.1411(4) 0.56351(15) 0.62892(19)
H2 H 0.2673 0.5327 0.6365
C4 C 0.0641(4) 0.59820(16) 0.53869(18)
H3 H 0.1381 0.5911 0.4851
C5 C -0.1201(3) 0.64319(12) 0.52658(15)
C6 C -0.2239(4) 0.65410(15) 0.60601(18)
H4 H -0.3485 0.6856 0.5988
C7 C -0.1474(4) 0.61929(15) 0.69625(17)
H5 H -0.2202 0.6269 0.7501
C8 C -0.2172(3) 0.67924(12) 0.42889(15)
H6 H -0.3203 0.6443 0.3884
H7 H -0.3014 0.7236 0.4413
C9 C -0.0179(3) 0.66160(11) 0.29297(15)
H8 H -0.1191 0.6236 0.2679
C10 C 0.1577(3) 0.67655(11) 0.24764(15)
C11 C 0.2985(3) 0.73397(11) 0.28362(15)
H9 H 0.4180 0.7456 0.2524
C12 C 0.2654(3) 0.77460(11) 0.36516(15)
C13 C 0.0911(3) 0.75708(11) 0.40950(15)
H10 H 0.0670 0.7842 0.4656
C14 C 0.2035(3) 0.62817(11) 0.16376(15)
C15 C 0.4285(3) 0.83336(11) 0.40900(16)
Cu1B Cu -0.45138(4) 0.563936(13) 0.076637(17)
O1B O -0.3062(2) 0.52498(8) -0.02454(10)
H1B H -0.317(4) 0.5549(12) -0.0676(16)
O2B O -0.2629(2) 0.51334(8) 0.19208(11)
O3B O -0.0227(3) 0.44648(8) 0.12480(11)
O4B O -0.4026(3) 0.39347(9) 0.82121(11)
O5B O -0.0522(3) 0.38474(9) 0.90561(12)
O6B O -0.4277(3) 0.15156(9) 0.50182(12)
O7B O -0.5496(3) 0.14226(11) 0.64417(14)
N1B N 0.0453(3) 0.29882(9) 0.62702(12)
C1B C -0.1144(3) 0.46524(11) 0.19454(15)
C2B C -0.0352(3) 0.42657(11) 0.29231(15)
C3B C -0.1411(4) 0.43649(15) 0.37108(19)
H2B H -0.2673 0.4673 0.3635
C4B C -0.0641(4) 0.40180(16) 0.46131(18)
H3B H -0.1381 0.4089 0.5149
C5B C 0.1201(3) 0.35681(12) 0.47342(15)
C6B C 0.2239(4) 0.34590(15) 0.39399(18)
H4B H 0.3485 0.3144 0.4012
C7B C 0.1474(4) 0.38071(15) 0.30375(17)
H5B H 0.2202 0.3731 0.2499
C8B C 0.2172(3) 0.32076(12) 0.57111(15)
H6B H 0.3203 0.3557 0.6116
H7B H 0.3014 0.2764 0.5587
C9B C 0.0179(3) 0.33840(11) 0.70703(15)
H8B H 0.1191 0.3764 0.7321
C10B C -0.1577(3) 0.32345(11) 0.75236(15)
C11B C -0.2985(3) 0.26603(11) 0.71638(15)
H9B H -0.4180 0.2544 0.7476
C12B C -0.2654(3) 0.22540(11) 0.63484(15)
C13B C -0.0911(3) 0.24292(11) 0.59050(15)
H10B H -0.0670 0.2158 0.5344
C14B C -0.2035(3) 0.37183(11) 0.83624(15)
C15B C -0.4285(3) 0.16664(11) 0.59100(16)
Cu1_2 Cu -0.54862(4) 0.436064(13) -0.076637(17)
Cu1_3 Cu -0.54862(4) 0.436064(13) 0.923363(17)
Cu1A Cu 0.54862(4) 0.936064(13) 0.576637(17)
Cu1B_2 Cu 0.54862(4) 0.563936(13) 0.076637(17)
Cu1B_3 Cu 0.54862(4) 0.563936(13) 1.076637(17)
Cu1C Cu -0.54862(4) 0.063936(13) 0.423363(17)
Cu2_2 Cu 0.0000 0.5000 0.0000
O1_2 O -0.6938(2) 0.47502(8) 0.02454(10)
O1B_2 O -0.3062(2) 0.52498(8) 0.97546(10)
O1B_3 O 0.6938(2) 0.52498(8) 0.97546(10)
O3B_2 O -0.0227(3) 0.44648(8) 1.12480(11)
O4_2 O -0.5974(3) 0.60653(9) 0.17879(11)
O4B_2 O 0.5974(3) 0.39347(9) 0.82121(11)
O5_2 O 0.0522(3) 0.61526(9) 1.09439(12)
O6A O 0.5723(3) 0.34844(9) 1.00182(12)
O6C O -0.5723(3) 0.65156(9) -0.00182(12)
O8 O 0.4032(6) 0.5444(2) 0.3755(3)
H11 H 0.472(8) 0.555(3) 0.324(3)
H12 H 0.498(7) 0.528(3) 0.431(2)
loop_
_geom_bond_atom_site_label_1
_geom_bond_atom_site_label_2
_geom_bond_site_symmetry_1
_geom_bond_site_symmetry_2
Cu1 O1 1_555 1_555
Cu2 O1 1_555 1_555
O1 H1 1_555 1_555
O2 Cu1 1_555 1_555
O3 Cu2 1_555 1_555
O4 C14 1_555 1_555
O5 C14 1_555 1_555
O6 C15 1_555 1_555
O7 C15 1_555 1_555
N1 C8 1_555 1_555
C1 O2 1_555 1_555
C2 C1 1_555 1_555
C3 C2 1_555 1_555
H2 C3 1_555 1_555
C4 C3 1_555 1_555
H3 C4 1_555 1_555
C5 C4 1_555 1_555
C6 C5 1_555 1_555
H4 C6 1_555 1_555
C7 C2 1_555 1_555
H5 C7 1_555 1_555
C8 C5 1_555 1_555
H6 C8 1_555 1_555
H7 C8 1_555 1_555
C9 N1 1_555 1_555
H8 C9 1_555 1_555
C10 C9 1_555 1_555
C11 C10 1_555 1_555
H9 C11 1_555 1_555
C12 C11 1_555 1_555
C13 N1 1_555 1_555
H10 C13 1_555 1_555
C14 C10 1_555 1_555
C15 C12 1_555 1_555
O8 H11 1_555 1_555
H12 O8 1_555 1_555
Cu1B O1B 1_555 1_555
O1B H1B 1_555 1_555
O2B Cu1B 1_555 1_555
O3B C1B 1_555 1_555
O4B C14B 1_555 1_555
O5B Cu2 1_555 1_555
O6B C15B 1_555 1_555
O7B C15B 1_555 1_555
N1B C8B 1_555 1_555
C1B O2B 1_555 1_555
C2B C1B 1_555 1_555
C3B C2B 1_555 1_555
H2B C3B 1_555 1_555
C4B C3B 1_555 1_555
H3B C4B 1_555 1_555
C5B C4B 1_555 1_555
C6B C5B 1_555 1_555
H4B C6B 1_555 1_555
C7B C2B 1_555 1_555
H5B C7B 1_555 1_555
C8B C5B 1_555 1_555
H6B C8B 1_555 1_555
H7B C8B 1_555 1_555
C9B N1B 1_555 1_555
H8B C9B 1_555 1_555
C10B C9B 1_555 1_555
C11B C10B 1_555 1_555
H9B C11B 1_555 1_555
C12B C11B 1_555 1_555
C13B N1B 1_555 1_555
H10B C13B 1_555 1_555
C14B O5B 1_555 1_555
C15B C12B 1_555 1_555
Cu1_2 O1B 1_555 1_555
Cu1_3 O4B 1_555 1_555
Cu1A O6 1_555 1_555
Cu1B_2 O4 1_555 1_555
Cu1B_3 O1 1_555 1_555
Cu1C O6B 1_555 1_555
Cu2_2 O5 1_555 1_555
O1_2 Cu1B 1_555 1_555
O1B_2 Cu2 1_555 1_555
O1B_3 Cu1 1_555 1_555
O3B_2 Cu2 1_555 1_555
O4_2 Cu1B 1_555 1_555
O4B_2 Cu1 1_555 1_555
O5_2 Cu2 1_555 1_555
O6A Cu1 1_555 1_555
O6C Cu1B 1_555 1_555
O3 C1 1_555 1_555
C6 C7 1_555 1_555
C12 C13 1_555 1_555
O1B Cu2_2 1_555 1_555
O3B Cu2_2 1_555 1_555
C6B C7B 1_555 1_555
C10B C14B 1_555 1_555
C12B C13B 1_555 1_555
Cu1_2 O1_2 1_555 1_555
Cu1_3 O1B_2 1_555 1_555
Cu1B_3 O1B_3 1_555 1_555

#END
