
#######################################################################
#
#                 Cambridge Crystallographic Data Centre
#                                CCDC 
#
#######################################################################
#
# If this CIF has been generated from an entry in the Cambridge 
# Structural Database, then it will include bibliographic, chemical, 
# crystal, experimental, refinement or atomic coordinate data resulting 
# from the CCDC's data processing and validation procedures.
#
#######################################################################

data_QOLREQ
_symmetry_cell_setting           monoclinic
_symmetry_space_group_name_H-M   'P 21/c'
_symmetry_Int_Tables_number      14
_space_group_name_Hall           '-P 2ybc'
loop_
_symmetry_equiv_pos_site_id
_symmetry_equiv_pos_as_xyz
1 x,y,z
2 -x,1/2+y,1/2-z
3 -x,-y,-z
4 x,1/2-y,1/2+z
_cell_length_a                   26.3279(18)
_cell_length_b                   6.8162(5)
_cell_length_c                   8.1902(6)
_cell_angle_alpha                90
_cell_angle_beta                 91.169(2)
_cell_angle_gamma                90
_cell_volume                     1469.48
loop_
_atom_site_label
_atom_site_type_symbol
_atom_site_fract_x
_atom_site_fract_y
_atom_site_fract_z
Cu1 Cu 0.000239(18) 0.25333(7) -0.75057(6)
Cu2 Cu -0.5000 0.0000 0.0000
O1 O -0.01199(19) 0.5029(4) -0.6737(6)
H1 H -0.0310 0.5062 -0.5901
O2 O -0.54551(9) -0.1490(4) -0.1426(3)
H2 H -0.5349 -0.1810 -0.2351
H3 H -0.5769 -0.1220 -0.1461
O3 O -0.05232(12) 0.1679(5) -0.6001(5)
O4 O -0.44347(11) -0.0160(3) -0.1444(3)
O5 O -0.47409(8) -0.1687(4) -0.3708(3)
O6 O -0.27761(12) -0.0172(4) -0.8087(4)
O7 O -0.35923(12) 0.0275(5) -0.8688(4)
N1 N -0.30097(13) -0.0018(4) -0.3196(4)
C1 C -0.07043(18) 0.0044(5) -0.5619(6)
C2 C -0.11722(17) 0.0062(5) -0.4589(6)
C3 C -0.13924(15) -0.1675(6) -0.4083(5)
H4 H -0.1238 -0.2892 -0.4340
C4 C -0.18339(15) -0.1652(6) -0.3209(5)
H5 H -0.1980 -0.2851 -0.2861
C5 C -0.20666(16) 0.0122(5) -0.2834(5)
C6 C -0.18395(15) 0.1882(6) -0.3317(5)
H6 H -0.1990 0.3102 -0.3045
C7 C -0.13967(15) 0.1839(6) -0.4185(5)
H7 H -0.1244 0.3035 -0.4511
C8 C -0.25719(17) 0.0157(6) -0.2001(5)
H8 H -0.2586 -0.0939 -0.1210
H9 H -0.2604 0.1399 -0.1385
C9 C -0.29408(16) 0.0007(4) -0.4827(5)
H10 H -0.2607 0.0134 -0.5234
C10 C -0.33477(16) -0.0150(5) -0.5912(5)
C11 C -0.38250(14) -0.0454(6) -0.5305(4)
H11 H -0.4107 -0.0638 -0.6029
C12 C -0.38914(14) -0.0490(6) -0.3625(4)
C13 C -0.34757(15) -0.0200(5) -0.2584(5)
H12 H -0.3521 -0.0131 -0.1437
C14 C -0.32262(16) -0.0005(4) -0.7740(5)
C15 C -0.44064(12) -0.0829(5) -0.2894(4)
O8 O -0.05316(12) -0.1611(5) -0.6000(4)
Cu1B Cu -1.000239(18) -0.25333(7) 0.75057(6)
O1B O -0.98801(19) -0.5029(4) 0.6737(6)
H1B H -0.9690 -0.5062 0.5901
O2B O -0.45449(9) 0.1490(4) 0.1426(3)
H2B H -0.4651 0.1810 0.2351
H3B H -0.4231 0.1220 0.1461
O3B O -0.94768(12) -0.1679(5) 0.6001(5)
O4B O -0.55653(11) 0.0160(3) 0.1444(3)
O5B O -0.52591(8) 0.1687(4) 0.3708(3)
O6B O -0.72239(12) 0.0172(4) 0.8087(4)
O7B O -0.64077(12) -0.0275(5) 0.8688(4)
N1B N -0.69903(13) 0.0018(4) 0.3196(4)
C1B C -0.92957(18) -0.0044(5) 0.5619(6)
C2B C -0.88278(17) -0.0062(5) 0.4589(6)
C3B C -0.86076(15) 0.1675(6) 0.4083(5)
H4B H -0.8762 0.2892 0.4340
C4B C -0.81661(15) 0.1652(6) 0.3209(5)
H5B H -0.8020 0.2851 0.2861
C5B C -0.79334(16) -0.0122(5) 0.2834(5)
C6B C -0.81605(15) -0.1882(6) 0.3317(5)
H6B H -0.8010 -0.3102 0.3045
C7B C -0.86033(15) -0.1839(6) 0.4185(5)
H7B H -0.8756 -0.3035 0.4511
C8B C -0.74281(17) -0.0157(6) 0.2001(5)
H8B H -0.7414 0.0939 0.1210
H9B H -0.7396 -0.1399 0.1385
C9B C -0.70592(16) -0.0007(4) 0.4827(5)
H10B H -0.7393 -0.0134 0.5234
C10B C -0.66523(16) 0.0150(5) 0.5912(5)
C11B C -0.61750(14) 0.0454(6) 0.5305(4)
H11B H -0.5893 0.0638 0.6029
C12B C -0.61086(14) 0.0490(6) 0.3625(4)
C13B C -0.65243(15) 0.0200(5) 0.2584(5)
H12B H -0.6479 0.0131 0.1437
C14B C -0.67738(16) 0.0005(4) 0.7740(5)
C15B C -0.55936(12) 0.0829(5) 0.2894(4)
O8B O -0.94684(12) 0.1611(5) 0.6000(4)
Cu1A Cu -0.000239(18) -0.24667(7) -0.74943(6)
Cu1A_2 Cu -0.000239(18) 0.75333(7) -0.74943(6)
Cu1C Cu -0.999761(18) -0.75333(7) 0.74943(6)
Cu1C_2 Cu -0.999761(18) 0.24667(7) 0.74943(6)
Cu2A Cu -0.5000 -0.5000 -0.5000
Cu2A_2 Cu -0.5000 0.5000 0.5000
O1A O 0.01199(19) 0.0029(4) -0.8263(6)
O1C O -1.01199(19) -0.0029(4) 0.8263(6)
O5A O -0.52591(8) 0.3313(4) -0.1292(3)
O5C O -0.47409(8) -0.3313(4) 0.1292(3)
O8A O 0.05316(12) 0.3389(5) -0.9000(4)
O8C O -1.05316(12) -0.3389(5) 0.9000(4)
loop_
_geom_bond_atom_site_label_1
_geom_bond_atom_site_label_2
_geom_bond_site_symmetry_1
_geom_bond_site_symmetry_2
Cu1 O1 1_555 1_555
Cu2 O2 1_555 1_555
O1 H1 1_555 1_555
O2 H2 1_555 1_555
H3 O2 1_555 1_555
O3 Cu1 1_555 1_555
O4 Cu2 1_555 1_555
O5 C15 1_555 1_555
O6 C14 1_555 1_555
O7 C14 1_555 1_555
N1 C8 1_555 1_555
C1 O3 1_555 1_555
C2 C1 1_555 1_555
C3 C2 1_555 1_555
H4 C3 1_555 1_555
C4 C3 1_555 1_555
H5 C4 1_555 1_555
C5 C4 1_555 1_555
C6 C5 1_555 1_555
H6 C6 1_555 1_555
C7 C2 1_555 1_555
H7 C7 1_555 1_555
C8 C5 1_555 1_555
H8 C8 1_555 1_555
H9 C8 1_555 1_555
C9 N1 1_555 1_555
H10 C9 1_555 1_555
C10 C9 1_555 1_555
C11 C10 1_555 1_555
H11 C11 1_555 1_555
C12 C11 1_555 1_555
C13 N1 1_555 1_555
H12 C13 1_555 1_555
C14 C10 1_555 1_555
C15 O4 1_555 1_555
O8 C1 1_555 1_555
Cu1B O1B 1_555 1_555
O1B H1B 1_555 1_555
O2B Cu2 1_555 1_555
H2B O2B 1_555 1_555
H3B O2B 1_555 1_555
O3B Cu1B 1_555 1_555
O4B Cu2 1_555 1_555
O5B C15B 1_555 1_555
O6B C14B 1_555 1_555
O7B C14B 1_555 1_555
N1B C8B 1_555 1_555
C1B O3B 1_555 1_555
C2B C1B 1_555 1_555
C3B C2B 1_555 1_555
H4B C3B 1_555 1_555
C4B C3B 1_555 1_555
H5B C4B 1_555 1_555
C5B C4B 1_555 1_555
C6B C5B 1_555 1_555
H6B C6B 1_555 1_555
C7B C2B 1_555 1_555
H7B C7B 1_555 1_555
C8B C5B 1_555 1_555
H8B C8B 1_555 1_555
H9B C8B 1_555 1_555
C9B N1B 1_555 1_555
H10B C9B 1_555 1_555
C10B C9B 1_555 1_555
C11B C10B 1_555 1_555
H11B C11B 1_555 1_555
C12B C11B 1_555 1_555
C13B N1B 1_555 1_555
H12B C13B 1_555 1_555
C14B C10B 1_555 1_555
C15B O4B 1_555 1_555
O8B C1B 1_555 1_555
Cu1A O8 1_555 1_555
Cu1A_2 O1 1_555 1_555
Cu1C O1B 1_555 1_555
Cu1C_2 O8B 1_555 1_555
Cu2A O5 1_555 1_555
Cu2A_2 O5B 1_555 1_555
O1A Cu1 1_555 1_555
O1C Cu1B 1_555 1_555
O5A Cu2 1_555 1_555
O5C Cu2 1_555 1_555
O8A Cu1 1_555 1_555
O8C Cu1B 1_555 1_555
C6 C7 1_555 1_555
C12 C13 1_555 1_555
C12 C15 1_555 1_555
C6B C7B 1_555 1_555
C12B C13B 1_555 1_555
C12B C15B 1_555 1_555
Cu1A O1A 1_555 1_555
Cu1C_2 O1C 1_555 1_555

#END
