
#######################################################################
#
#                 Cambridge Crystallographic Data Centre
#                                CCDC 
#
#######################################################################
#
# If this CIF has been generated from an entry in the Cambridge 
# Structural Database, then it will include bibliographic, chemical, 
# crystal, experimental, refinement or atomic coordinate data resulting 
# from the CCDC's data processing and validation procedures.
#
#######################################################################

data_QOLSUG
_symmetry_cell_setting           triclinic
_symmetry_space_group_name_H-M   'P -1'
_symmetry_Int_Tables_number      2
_space_group_name_Hall           '-P 1'
loop_
_symmetry_equiv_pos_site_id
_symmetry_equiv_pos_as_xyz
1 x,y,z
2 -x,-y,-z
_cell_length_a                   7.153(2)
_cell_length_b                   8.569(3)
_cell_length_c                   12.570(4)
_cell_angle_alpha                75.026(6)
_cell_angle_beta                 87.787(6)
_cell_angle_gamma                85.779(6)
_cell_volume                     742.131
loop_
_atom_site_label
_atom_site_type_symbol
_atom_site_fract_x
_atom_site_fract_y
_atom_site_fract_z
Pr1 Pr 0.20721(6) 0.06611(6) 0.68689(3)
Ni1 Ni -0.5000 0.0000 1.0000
Ni2 Ni -0.5000 0.5000 0.5000
O1 O -0.0435(10) 0.0636(10) 0.8091(6)
O2 O -0.2915(9) 0.1119(8) 0.9051(5)
C1 C -0.1827(15) -0.1591(14) 0.9190(10)
H1 H -0.1798 -0.2093 0.8580
H2 H -0.0726 -0.2009 0.9628
C2 C -0.1766(13) 0.0179(13) 0.8755(7)
N1 N -0.3505(10) -0.2023(9) 0.9866(5)
H3 H -0.3159 -0.2614 1.0549
C3 C -0.4823(14) -0.2914(11) 0.9423(8)
H4 H -0.5521 -0.3586 1.0025
H5 H -0.4133 -0.3616 0.9031
C4 C -0.6137(13) -0.1786(11) 0.8670(7)
O3 O -0.7187(10) -0.2290(8) 0.8102(6)
O4 O -0.6162(9) -0.0301(8) 0.8619(5)
O5 O -0.0138(9) 0.2480(9) 0.5783(5)
O6 O -0.2665(9) 0.3538(8) 0.4904(5)
C5 C -0.1930(13) 0.4396(14) 0.6459(8)
H6 H -0.1859 0.3686 0.7197
H7 H -0.0936 0.5133 0.6373
C6 C -0.1598(12) 0.3408(12) 0.5660(7)
N2 N -0.3724(10) 0.5333(9) 0.6351(5)
H8 H -0.3537 0.6401 0.6253
C7 C -0.5057(13) 0.4829(12) 0.7235(7)
H9 H -0.5855 0.5765 0.7303
H10 H -0.4385 0.4421 0.7917
C8 C -0.6241(12) 0.3580(10) 0.7091(7)
O7 O -0.6069(9) 0.3165(8) 0.6198(5)
O8 O -0.7354(9) 0.2951(8) 0.7816(5)
C9 C 0.5667(12) -0.0440(11) 0.5453(7)
O9 O 0.5130(10) -0.0588(9) 0.6406(5)
O10 O 0.7178(9) -0.1024(8) 0.5146(5)
O11 O 0.0418(11) -0.1374(9) 0.6256(6)
H11 H 0.0706 -0.2188 0.6767
H12 H -0.0748 -0.1459 0.6266
Pr1A Pr -1.20721(6) -0.06611(6) 1.31311(3)
Pr1_2 Pr -0.79279(6) 0.06611(6) 0.68689(3)
Pr1A_2 Pr 0.79279(6) -0.06611(6) 0.31311(3)
Pr1A_3 Pr -0.20721(6) -0.06611(6) 1.31311(3)
Pr1_3 Pr 1.20721(6) 0.06611(6) 0.68689(3)
Ni2_2 Ni 0.5000 0.5000 0.5000
O1A O -0.9565(10) -0.0636(10) 1.1909(6)
O2A O -0.7085(9) -0.1119(8) 1.0949(5)
C1A C -0.8173(15) 0.1591(14) 1.0810(10)
H1A H -0.8202 0.2093 1.1420
H2A H -0.9274 0.2009 1.0372
C2A C -0.8234(13) -0.0179(13) 1.1245(7)
N1A N -0.6495(10) 0.2023(9) 1.0134(5)
H3A H -0.6841 0.2614 0.9451
C3A C -0.5177(14) 0.2914(11) 1.0577(8)
H4A H -0.4479 0.3586 0.9975
H5A H -0.5867 0.3616 1.0969
C4A C -0.3863(13) 0.1786(11) 1.1330(7)
O3A O -0.2813(10) 0.2290(8) 1.1898(6)
O3_2 O 0.2813(10) -0.2290(8) 0.8102(6)
O3A_2 O -1.2813(10) 0.2290(8) 1.1898(6)
O4A O -0.3838(9) 0.0301(8) 1.1381(5)
O4_2 O 0.3838(9) -0.0301(8) 0.8619(5)
O4A_2 O -1.3838(9) 0.0301(8) 1.1381(5)
O5_2 O 0.9862(9) 0.2480(9) 0.5783(5)
O5A O -0.9862(9) -0.2480(9) 1.4217(5)
O6_2 O 0.7335(9) 0.3538(8) 0.4904(5)
O6A O -0.7335(9) 0.6462(8) 0.5096(5)
C5_2 C 0.8070(13) 0.4396(14) 0.6459(8)
H6_2 H 0.8141 0.3686 0.7197
H7_2 H 0.9064 0.5133 0.6373
C6_2 C 0.8402(12) 0.3408(12) 0.5660(7)
N2_2 N 0.6276(10) 0.5333(9) 0.6351(5)
N2A N -0.6276(10) 0.4667(9) 0.3649(5)
H8_2 H 0.6463 0.6401 0.6253
H8A H -0.6463 0.3599 0.3747
C7_2 C 0.4943(13) 0.4829(12) 0.7235(7)
H9_2 H 0.4145 0.5765 0.7303
H10_2 H 0.5615 0.4421 0.7917
C8_2 C 0.3759(12) 0.3580(10) 0.7091(7)
O7_2 O 0.3931(9) 0.3165(8) 0.6198(5)
O7A O -0.3931(9) 0.6835(8) 0.3802(5)
O7A_2 O -1.3931(9) -0.3165(8) 1.3802(5)
O8_2 O 0.2646(9) 0.2951(8) 0.7816(5)
O8A O -1.2646(9) -0.2951(8) 1.2184(5)
C9A C 0.4333(12) 0.0440(11) 0.4547(7)
O9A O 0.4870(10) 0.0588(9) 0.3594(5)
O9A_2 O -1.5130(10) 0.0588(9) 1.3594(5)
O10A O 0.2822(9) 0.1024(8) 0.4854(5)
O10_2 O -1.2822(9) -0.1024(8) 1.5146(5)
O11A O -1.0418(11) 0.1374(9) 1.3744(6)
H11A H -1.0706 0.2188 1.3233
H12A H -0.9252 0.1459 1.3734
loop_
_geom_bond_atom_site_label_1
_geom_bond_atom_site_label_2
_geom_bond_site_symmetry_1
_geom_bond_site_symmetry_2
Pr1 O1 1_555 1_555
Ni1 O2 1_555 1_555
Ni2 O6 1_555 1_555
O1 C2 1_555 1_555
O2 C2 1_555 1_555
C1 H1 1_555 1_555
H2 C1 1_555 1_555
C2 C1 1_555 1_555
N1 Ni1 1_555 1_555
H3 N1 1_555 1_555
C3 N1 1_555 1_555
H4 C3 1_555 1_555
H5 C3 1_555 1_555
C4 C3 1_555 1_555
O3 C4 1_555 1_555
O4 Ni1 1_555 1_555
O5 Pr1 1_555 1_555
O6 C6 1_555 1_555
C5 H6 1_555 1_555
H7 C5 1_555 1_555
C6 O5 1_555 1_555
N2 Ni2 1_555 1_555
H8 N2 1_555 1_555
C7 N2 1_555 1_555
H9 C7 1_555 1_555
H10 C7 1_555 1_555
C8 C7 1_555 1_555
O7 Ni2 1_555 1_555
O8 C8 1_555 1_555
C9 O9 1_555 1_555
O9 Pr1 1_555 1_555
O10 C9 1_555 1_555
O11 Pr1 1_555 1_555
H11 O11 1_555 1_555
H12 O11 1_555 1_555
Pr1A O1A 1_555 1_555
Pr1_2 O3 1_555 1_555
Pr1A_2 O10 1_555 1_555
Pr1A_3 O3A 1_555 1_555
Pr1_3 O5_2 1_555 1_555
Ni2_2 O6_2 1_555 1_555
O1A C2A 1_555 1_555
O2A Ni1 1_555 1_555
C1A H1A 1_555 1_555
H2A C1A 1_555 1_555
C2A O2A 1_555 1_555
N1A Ni1 1_555 1_555
H3A N1A 1_555 1_555
C3A N1A 1_555 1_555
H4A C3A 1_555 1_555
H5A C3A 1_555 1_555
C4A C3A 1_555 1_555
O3A C4A 1_555 1_555
O3_2 Pr1 1_555 1_555
O3A_2 Pr1A 1_555 1_555
O4A Ni1 1_555 1_555
O4_2 Pr1 1_555 1_555
O4A_2 Pr1A 1_555 1_555
O5_2 C6_2 1_555 1_555
O5A Pr1A 1_555 1_555
O6_2 C6_2 1_555 1_555
O6A Ni2 1_555 1_555
C5_2 H6_2 1_555 1_555
H7_2 C5_2 1_555 1_555
C6_2 C5_2 1_555 1_555
N2_2 Ni2_2 1_555 1_555
N2A Ni2 1_555 1_555
H8_2 N2_2 1_555 1_555
H8A N2A 1_555 1_555
C7_2 N2_2 1_555 1_555
H9_2 C7_2 1_555 1_555
H10_2 C7_2 1_555 1_555
C8_2 C7_2 1_555 1_555
O7_2 Pr1 1_555 1_555
O7A Ni2 1_555 1_555
O7A_2 Pr1A 1_555 1_555
O8_2 Pr1 1_555 1_555
O8A Pr1A 1_555 1_555
C9A C9 1_555 1_555
O9A Pr1A_2 1_555 1_555
O9A_2 Pr1A 1_555 1_555
O10A Pr1 1_555 1_555
O10_2 Pr1A 1_555 1_555
O11A Pr1A 1_555 1_555
H11A O11A 1_555 1_555
H12A O11A 1_555 1_555
C1 N1 1_555 1_555
C4 O4 1_555 1_555
O4 Pr1_2 1_555 1_555
C5 C6 1_555 1_555
C5 N2 1_555 1_555
C8 O7 1_555 1_555
O7 Pr1_2 1_555 1_555
O8 Pr1_2 1_555 1_555
Pr1A_3 O4A 1_555 1_555
Ni2_2 O7_2 1_555 1_555
C1A C2A 1_555 1_555
C1A N1A 1_555 1_555
C4A O4A 1_555 1_555
C5_2 N2_2 1_555 1_555
C8_2 O7_2 1_555 1_555
C8_2 O8_2 1_555 1_555
C9A O9A 1_555 1_555
C9A O10A 1_555 1_555

#END
