
#######################################################################
#
#                 Cambridge Crystallographic Data Centre
#                                CCDC 
#
#######################################################################
#
# If this CIF has been generated from an entry in the Cambridge 
# Structural Database, then it will include bibliographic, chemical, 
# crystal, experimental, refinement or atomic coordinate data resulting 
# from the CCDC's data processing and validation procedures.
#
#######################################################################

data_QOLSOA
_symmetry_cell_setting           triclinic
_symmetry_space_group_name_H-M   'P -1'
_symmetry_Int_Tables_number      2
_space_group_name_Hall           '-P 1'
loop_
_symmetry_equiv_pos_site_id
_symmetry_equiv_pos_as_xyz
1 x,y,z
2 -x,-y,-z
_cell_length_a                   7.2229(11)
_cell_length_b                   12.7689(19)
_cell_length_c                   14.766(2)
_cell_angle_alpha                74.862(2)
_cell_angle_beta                 89.617(2)
_cell_angle_gamma                87.493(2)
_cell_volume                     1313.32
loop_
_atom_site_label
_atom_site_type_symbol
_atom_site_fract_x
_atom_site_fract_y
_atom_site_fract_z
La1 La 1.248050(18) -0.875850(10) 0.323680(9)
La2 La 0.672010(18) -0.458790(11) 0.255450(10)
Ni1 Ni 0.0000 -0.5000 0.0000
Ni2 Ni -0.04092(4) -0.17396(2) 0.29893(2)
O1 O 1.5197(3) -0.99033(18) 0.33047(15)
O2 O 1.7439(3) -1.11455(15) 0.36212(13)
C1 C 1.6657(4) -1.0326(3) 0.2029(2)
H1 H 1.5558 -1.0575 0.1788
H2 H 1.6742 -0.9559 0.1723
C2 C 1.6439(4) -1.0466(2) 0.30567(19)
N1 N 1.8283(3) -1.09131(17) 0.17814(14)
H3 H 1.7927 -1.1386 0.1456
C3 C 1.9681(4) -1.0220(2) 0.12566(19)
H4 H 1.9075 -0.9596 0.0825
H5 H 2.0403 -1.0618 0.0890
C4 C 2.0955(4) -0.9838(2) 0.18924(18)
O3 O 2.2061(3) -0.91471(15) 0.15715(14)
O4 O 2.0774(3) -1.02488(14) 0.27654(13)
O5 O 0.2150(3) -0.55750(15) 0.08866(13)
O6 O 0.4553(3) -0.50513(17) 0.15104(15)
C5 C 0.2965(4) -0.3733(2) 0.0356(2)
H6 H 0.2966 -0.3231 0.0749
H7 H 0.4011 -0.3579 -0.0066
C6 C 0.3218(3) -0.4862(2) 0.09632(18)
N2 N 0.1254(3) -0.35368(17) -0.02004(15)
H8 H 0.1531 -0.3276 -0.0818
C7 C -0.0124(4) -0.2805(2) 0.0072(2)
H9 H -0.0853 -0.2426 -0.0474
H10 H 0.0505 -0.2267 0.0300
C8 C -0.1388(4) -0.3402(2) 0.08189(17)
O7 O -0.2441(3) -0.28836(15) 0.12170(14)
O8 O -0.1333(3) -0.44217(14) 0.10118(13)
O9 O 0.4258(3) -0.32916(18) 0.25721(16)
O10 O 0.1717(3) -0.22648(16) 0.23229(13)
C9 C 0.2617(4) -0.3114(3) 0.3896(2)
H11 H 0.2592 -0.3895 0.4150
H12 H 0.3679 -0.2865 0.4167
C10 C 0.2863(4) -0.2866(2) 0.2848(2)
N3 N 0.0941(3) -0.26151(17) 0.41818(15)
H13 H 0.1250 -0.2161 0.4535
C11 C -0.0383(4) -0.3368(2) 0.46840(18)
H14 H -0.1092 -0.3032 0.5102
H15 H 0.0276 -0.4008 0.5065
C12 C -0.1683(4) -0.3700(2) 0.40340(18)
O11 O -0.1649(3) -0.31911(14) 0.31826(12)
O12 O -0.2726(3) -0.44495(16) 0.43249(13)
O13 O 0.9891(3) -0.54084(14) 0.30978(13)
O14 O 1.1908(2) -0.68016(14) 0.32924(13)
C13 C 1.0411(3) -0.63117(19) 0.30132(17)
C14 C 0.9088(3) -0.6900(2) 0.25318(17)
O15 O 0.7501(3) -0.64899(15) 0.23648(15)
O16 O 0.9691(3) -0.77322(15) 0.23253(13)
C15 C 1.0662(3) -1.05039(19) 0.50924(17)
O17 O 1.2112(2) -1.04225(15) 0.46351(13)
O18 O 1.0164(3) -1.13240(15) 0.56763(13)
O19 O 1.4356(3) -0.84850(16) 0.46207(13)
H16 H 1.5399 -0.8829 0.4654
H17 H 1.3780 -0.8734 0.5130
O20 O 1.4446(3) -0.75036(16) 0.20163(15)
H18 H 1.5477 -0.7402 0.2247
H19 H 1.3884 -0.6894 0.1786
O21 O 0.4693(3) -0.57510(18) 0.37547(15)
H20 H 0.3675 -0.5864 0.3518
H21 H 0.4478 -0.5480 0.4215
La1A La -1.248050(18) -0.124150(10) -0.323680(9)
La1_2 La 2.248050(18) -0.875850(10) 0.323680(9)
La1A_2 La 0.751950(18) -1.124150(10) 0.676320(9)
La1_3 La 0.248050(18) -0.875850(10) 0.323680(9)
La2A La -0.672010(18) -0.541210(11) -0.255450(10)
La2_2 La -0.327990(18) -0.458790(11) 0.255450(10)
La2A_2 La 0.327990(18) -0.541210(11) -0.255450(10)
La2_3 La 1.672010(18) -0.458790(11) 0.255450(10)
Ni2_2 Ni 0.95908(4) -0.17396(2) 0.29893(2)
Ni2_3 Ni 1.95908(4) -1.17396(2) 0.29893(2)
Ni2_4 Ni 0.95908(4) -1.17396(2) 0.29893(2)
O1_2 O 0.5197(3) -0.99033(18) 0.33047(15)
O1A O -1.5197(3) -0.00967(18) -0.33047(15)
O2_2 O 0.7439(3) -1.11455(15) 0.36212(13)
O2_3 O -0.2561(3) -0.11455(15) 0.36212(13)
O2_4 O 0.7439(3) -0.11455(15) 0.36212(13)
C1_2 C 0.6657(4) -1.0326(3) 0.2029(2)
H1_2 H 0.5558 -1.0575 0.1788
H2_2 H 0.6742 -0.9559 0.1723
C2_2 C 0.6439(4) -1.0466(2) 0.30567(19)
N1_2 N 0.8283(3) -1.09131(17) 0.17814(14)
N1_3 N -0.1717(3) -0.09131(17) 0.17814(14)
N1_4 N 0.8283(3) -0.09131(17) 0.17814(14)
H3_2 H 0.7927 -1.1386 0.1456
H3_3 H -0.2073 -0.1386 0.1456
H3_4 H 0.7927 -0.1386 0.1456
C3_2 C 0.9681(4) -1.0220(2) 0.12566(19)
H4_2 H 0.9075 -0.9596 0.0825
H5_2 H 1.0403 -1.0618 0.0890
C4_2 C 1.0955(4) -0.9838(2) 0.18924(18)
O3_2 O 1.2061(3) -0.91471(15) 0.15715(14)
O3A O -1.2061(3) -0.08529(15) -0.15715(14)
O4_2 O 1.0774(3) -1.02488(14) 0.27654(13)
O4_3 O 0.0774(3) -0.02488(14) 0.27654(13)
O4A O -1.0774(3) 0.02488(14) -0.27654(13)
O4_4 O 1.0774(3) -0.02488(14) 0.27654(13)
O5A O -0.2150(3) -0.44250(15) -0.08866(13)
O6A O -0.4553(3) -0.49487(17) -0.15104(15)
C5A C -0.2965(4) -0.6267(2) -0.0356(2)
H6A H -0.2966 -0.6769 -0.0749
H7A H -0.4011 -0.6421 0.0066
C6A C -0.3218(3) -0.5138(2) -0.09632(18)
N2A N -0.1254(3) -0.64632(17) 0.02004(15)
H8A H -0.1531 -0.6724 0.0818
C7A C 0.0124(4) -0.7195(2) -0.0072(2)
H9A H 0.0853 -0.7574 0.0474
H10A H -0.0505 -0.7733 -0.0300
C8A C 0.1388(4) -0.6598(2) -0.08189(17)
O7A O 0.2441(3) -0.71164(15) -0.12170(14)
O7_2 O 0.7559(3) -0.28836(15) 0.12170(14)
O7A_2 O -0.7559(3) -0.71164(15) -0.12170(14)
O8A O 0.1333(3) -0.55783(14) -0.10118(13)
O8_2 O 0.8667(3) -0.44217(14) 0.10118(13)
O8A_2 O -0.8667(3) -0.55783(14) -0.10118(13)
O9_2 O 1.4258(3) -0.32916(18) 0.25721(16)
O9A O -0.4258(3) -0.67084(18) -0.25721(16)
O10_2 O 1.1717(3) -0.22648(16) 0.23229(13)
C9_2 C 1.2617(4) -0.3114(3) 0.3896(2)
H11_2 H 1.2592 -0.3895 0.4150
H12_2 H 1.3679 -0.2865 0.4167
C10_2 C 1.2863(4) -0.2866(2) 0.2848(2)
N3_2 N 1.0941(3) -0.26151(17) 0.41818(15)
H13_2 H 1.1250 -0.2161 0.4535
C11_2 C 0.9617(4) -0.3368(2) 0.46840(18)
H14_2 H 0.8908 -0.3032 0.5102
H15_2 H 1.0276 -0.4008 0.5065
C12_2 C 0.8317(4) -0.3700(2) 0.40340(18)
O11_2 O 0.8351(3) -0.31911(14) 0.31826(12)
O11A O -0.8351(3) -0.68089(14) -0.31826(12)
O12_2 O 0.7274(3) -0.44495(16) 0.43249(13)
O12A O -0.7274(3) -0.55505(16) -0.43249(13)
O13A O -0.9891(3) -0.45916(14) -0.30978(13)
O14A O -1.1908(2) -0.31984(14) -0.32924(13)
C13A C -1.0411(3) -0.36883(19) -0.30132(17)
C14A C -0.9088(3) -0.3100(2) -0.25318(17)
O15A O -0.7501(3) -0.35101(15) -0.23648(15)
O16A O -0.9691(3) -0.22678(15) -0.23253(13)
C15A C 0.9338(3) -0.94961(19) 0.49076(17)
O17A O 0.7888(2) -0.95775(15) 0.53649(13)
O17A_2 O -1.2112(2) 0.04225(15) -0.46351(13)
O18A O 0.9836(3) -0.86760(15) 0.43237(13)
O18_2 O -0.9836(3) -0.13240(15) -0.43237(13)
O19A O -1.4356(3) -0.15150(16) -0.46207(13)
H16A H -1.5399 -0.1171 -0.4654
H17A H -1.3780 -0.1266 -0.5130
O20A O -1.4446(3) -0.24964(16) -0.20163(15)
H18A H -1.5477 -0.2598 -0.2247
H19A H -1.3884 -0.3106 -0.1786
O21A O -0.4693(3) -0.42490(18) -0.37547(15)
H20A H -0.3675 -0.4136 -0.3518
H21A H -0.4478 -0.4520 -0.4215
loop_
_geom_bond_atom_site_label_1
_geom_bond_atom_site_label_2
_geom_bond_site_symmetry_1
_geom_bond_site_symmetry_2
La1 O1 1_555 1_555
La2 O6 1_555 1_555
Ni1 O5 1_555 1_555
Ni2 O10 1_555 1_555
O1 C2 1_555 1_555
O2 C2 1_555 1_555
C1 H1 1_555 1_555
H2 C1 1_555 1_555
C2 C1 1_555 1_555
N1 C1 1_555 1_555
H3 N1 1_555 1_555
C3 N1 1_555 1_555
H4 C3 1_555 1_555
H5 C3 1_555 1_555
C4 C3 1_555 1_555
O3 C4 1_555 1_555
O4 C4 1_555 1_555
O5 C6 1_555 1_555
O6 C6 1_555 1_555
C5 H6 1_555 1_555
H7 C5 1_555 1_555
C6 C5 1_555 1_555
N2 Ni1 1_555 1_555
H8 N2 1_555 1_555
C7 N2 1_555 1_555
H9 C7 1_555 1_555
H10 C7 1_555 1_555
C8 C7 1_555 1_555
O7 C8 1_555 1_555
O8 Ni1 1_555 1_555
O9 La2 1_555 1_555
O10 C10 1_555 1_555
C9 H11 1_555 1_555
H12 C9 1_555 1_555
C10 O9 1_555 1_555
N3 Ni2 1_555 1_555
H13 N3 1_555 1_555
C11 N3 1_555 1_555
H14 C11 1_555 1_555
H15 C11 1_555 1_555
C12 C11 1_555 1_555
O11 Ni2 1_555 1_555
O12 C12 1_555 1_555
O13 La2 1_555 1_555
O14 La1 1_555 1_555
C13 O13 1_555 1_555
C14 C13 1_555 1_555
O15 La2 1_555 1_555
O16 La1 1_555 1_555
C15 O17 1_555 1_555
O17 La1 1_555 1_555
O18 C15 1_555 1_555
O19 La1 1_555 1_555
H16 O19 1_555 1_555
H17 O19 1_555 1_555
O20 La1 1_555 1_555
H18 O20 1_555 1_555
H19 O20 1_555 1_555
O21 La2 1_555 1_555
H20 O21 1_555 1_555
H21 O21 1_555 1_555
La1A O1A 1_555 1_555
La1_2 O3 1_555 1_555
La1A_2 O18 1_555 1_555
La1_3 O1_2 1_555 1_555
La2A O6A 1_555 1_555
La2_2 O7 1_555 1_555
La2A_2 O7A 1_555 1_555
La2_3 O9_2 1_555 1_555
Ni2_2 O2_4 1_555 1_555
Ni2_3 O2 1_555 1_555
Ni2_4 O2_2 1_555 1_555
O1_2 C2_2 1_555 1_555
O2_2 C2_2 1_555 1_555
O2_3 Ni2 1_555 1_555
C1_2 H1_2 1_555 1_555
H2_2 C1_2 1_555 1_555
C2_2 C1_2 1_555 1_555
N1_2 Ni2_4 1_555 1_555
N1_3 Ni2 1_555 1_555
N1_4 Ni2_2 1_555 1_555
H3_2 N1_2 1_555 1_555
H3_3 N1_3 1_555 1_555
H3_4 N1_4 1_555 1_555
C3_2 N1_2 1_555 1_555
H4_2 C3_2 1_555 1_555
H5_2 C3_2 1_555 1_555
C4_2 C3_2 1_555 1_555
O3_2 La1 1_555 1_555
O3A La1A 1_555 1_555
O4_2 La1 1_555 1_555
O4_3 Ni2 1_555 1_555
O4A La1A 1_555 1_555
O4_4 Ni2_2 1_555 1_555
O5A Ni1 1_555 1_555
O6A C6A 1_555 1_555
C5A H6A 1_555 1_555
H7A C5A 1_555 1_555
C6A O5A 1_555 1_555
N2A Ni1 1_555 1_555
H8A N2A 1_555 1_555
C7A N2A 1_555 1_555
H9A C7A 1_555 1_555
H10A C7A 1_555 1_555
C8A C7A 1_555 1_555
O7A C8A 1_555 1_555
O7_2 La2 1_555 1_555
O7A_2 La2A 1_555 1_555
O8A Ni1 1_555 1_555
O8_2 La2 1_555 1_555
O8A_2 La2A 1_555 1_555
O9_2 C10_2 1_555 1_555
O9A La2A 1_555 1_555
O10_2 Ni2_2 1_555 1_555
C9_2 H11_2 1_555 1_555
H12_2 C9_2 1_555 1_555
C10_2 O10_2 1_555 1_555
N3_2 Ni2_2 1_555 1_555
H13_2 N3_2 1_555 1_555
C11_2 N3_2 1_555 1_555
H14_2 C11_2 1_555 1_555
H15_2 C11_2 1_555 1_555
C12_2 C11_2 1_555 1_555
O11_2 La2 1_555 1_555
O11A La2A 1_555 1_555
O12_2 La2 1_555 1_555
O12A La2A 1_555 1_555
O13A La2A 1_555 1_555
O14A La1A 1_555 1_555
C13A O13A 1_555 1_555
C14A C13A 1_555 1_555
O15A La2A 1_555 1_555
O16A La1A 1_555 1_555
C15A C15 1_555 1_555
O17A La1A_2 1_555 1_555
O17A_2 La1A 1_555 1_555
O18A La1 1_555 1_555
O18_2 La1A 1_555 1_555
O19A La1A 1_555 1_555
H16A O19A 1_555 1_555
H17A O19A 1_555 1_555
O20A La1A 1_555 1_555
H18A O20A 1_555 1_555
H19A O20A 1_555 1_555
O21A La2A 1_555 1_555
H20A O21A 1_555 1_555
H21A O21A 1_555 1_555
N1 Ni2_3 1_555 1_555
O4 La1_2 1_555 1_555
O4 Ni2_3 1_555 1_555
C5 N2 1_555 1_555
C8 O8 1_555 1_555
O8 La2_2 1_555 1_555
C9 C10 1_555 1_555
C9 N3 1_555 1_555
C12 O11 1_555 1_555
O11 La2_2 1_555 1_555
O12 La2_2 1_555 1_555
O14 C13 1_555 1_555
C14 O15 1_555 1_555
C14 O16 1_555 1_555
La2A_2 O8A 1_555 1_555
Ni2_2 O11_2 1_555 1_555
Ni2_4 O4_2 1_555 1_555
C1_2 N1_2 1_555 1_555
C4_2 O3_2 1_555 1_555
C4_2 O4_2 1_555 1_555
C5A C6A 1_555 1_555
C5A N2A 1_555 1_555
C8A O8A 1_555 1_555
C9_2 C10_2 1_555 1_555
C9_2 N3_2 1_555 1_555
C12_2 O11_2 1_555 1_555
C12_2 O12_2 1_555 1_555
O14A C13A 1_555 1_555
C14A O15A 1_555 1_555
C14A O16A 1_555 1_555
C15A O17A 1_555 1_555
C15A O18A 1_555 1_555

#END
