
#######################################################################
#
#                 Cambridge Crystallographic Data Centre
#                                CCDC 
#
#######################################################################
#
# If this CIF has been generated from an entry in the Cambridge 
# Structural Database, then it will include bibliographic, chemical, 
# crystal, experimental, refinement or atomic coordinate data resulting 
# from the CCDC's data processing and validation procedures.
#
#######################################################################

data_QOLTER
_symmetry_cell_setting           monoclinic
_symmetry_space_group_name_H-M   'C 2/c'
_symmetry_Int_Tables_number      15
_space_group_name_Hall           '-C 2yn'
loop_
_symmetry_equiv_pos_site_id
_symmetry_equiv_pos_as_xyz
1 x,y,z
2 1/2+x,1/2+y,z
3 -x,y,1/2-z
4 1/2-x,1/2+y,1/2-z
5 -x,-y,-z
6 1/2-x,1/2-y,-z
7 x,-y,1/2+z
8 1/2+x,1/2-y,1/2+z
_cell_length_a                   22.9549(4)
_cell_length_b                   12.2443(3)
_cell_length_c                   17.8687(4)
_cell_angle_alpha                90
_cell_angle_beta                 110.873(1)
_cell_angle_gamma                90
_cell_volume                     4692.7
loop_
_atom_site_label
_atom_site_type_symbol
_atom_site_fract_x
_atom_site_fract_y
_atom_site_fract_z
Cu1 Cu 0.32419(3) 0.20681(5) 0.21007(4)
S1 S 0.07524(6) 0.19873(12) 0.46694(8)
O1 O 0.26746(19) 0.1784(3) 0.2651(2)
O2 O 0.2248(2) 0.0147(3) 0.2283(3)
O3 O -0.11181(18) 0.6095(3) 0.2768(2)
O4 O -0.1394(2) 0.4853(4) 0.1797(3)
O5 O 0.11239(19) 0.2563(4) 0.5383(2)
O6 O 0.04323(19) 0.1008(3) 0.4741(3)
O7 O 0.36142(19) 0.3463(3) 0.3044(2)
N1 N 0.26095(18) 0.3079(3) 0.1318(3)
N2 N 0.37340(19) 0.2486(4) 0.1408(3)
C1 C 0.2316(2) 0.1009(4) 0.2661(3)
C2 C 0.1941(2) 0.1223(4) 0.3191(3)
C3 C 0.1415(2) 0.0605(4) 0.3107(3)
H1 H 0.1303 0.0035 0.2739
C4 C 0.1055(2) 0.0828(4) 0.3562(3)
H2 H 0.0702 0.0412 0.3503
C5 C 0.1223(2) 0.1676(4) 0.4108(3)
C6 C 0.1752(2) 0.2308(5) 0.4206(3)
H3 H 0.1864 0.2876 0.4575
C7 C 0.2106(2) 0.2071(5) 0.3741(3)
H4 H 0.2459 0.2485 0.3799
C8 C 0.0197(2) 0.2925(5) 0.4055(3)
C9 C -0.0264(3) 0.2535(5) 0.3370(3)
H5 H -0.0293 0.1793 0.3251
C10 C -0.0676(3) 0.3263(5) 0.2868(3)
H6 H -0.0982 0.3013 0.2401
C11 C -0.0640(2) 0.4368(4) 0.3053(3)
C12 C -0.0195(2) 0.4720(4) 0.3756(3)
H7 H -0.0184 0.5452 0.3899
C13 C 0.0234(2) 0.4008(4) 0.4252(3)
H8 H 0.0545 0.4260 0.4713
C14 C -0.1098(3) 0.5143(5) 0.2477(4)
C15 C 0.2062(2) 0.3404(5) 0.1316(4)
H9 H 0.1925 0.3159 0.1717
C16 C 0.1679(3) 0.4107(5) 0.0726(4)
H10 H 0.1292 0.4313 0.0737
C17 C 0.1873(3) 0.4489(5) 0.0141(4)
H11 H 0.1618 0.4953 -0.0252
C18 C 0.2454(2) 0.4183(4) 0.0130(3)
C19 C 0.2809(2) 0.3482(4) 0.0739(3)
C20 C 0.3421(2) 0.3164(4) 0.0793(3)
C21 C 0.3673(2) 0.3572(4) 0.0242(3)
C22 C 0.3296(3) 0.4264(5) -0.0385(3)
H12 H 0.3455 0.4524 -0.0763
C23 C 0.2715(3) 0.4550(4) -0.0442(3)
H13 H 0.2479 0.4995 -0.0862
C24 C 0.4289(3) 0.3295(5) 0.0371(4)
H14 H 0.4482 0.3565 0.0031
C25 C 0.4612(3) 0.2632(5) 0.0993(5)
H15 H 0.5025 0.2450 0.1083
C26 C 0.4314(2) 0.2229(5) 0.1492(4)
H16 H 0.4534 0.1758 0.1904
H17 H 0.3224 0.3949 0.2896
H18 H 0.3749 0.3098 0.3538
Cu1A Cu -0.17581(3) 0.70681(5) 0.21007(4)
O3A O 0.38819(18) 0.1095(3) 0.2768(2)
loop_
_geom_bond_atom_site_label_1
_geom_bond_atom_site_label_2
_geom_bond_site_symmetry_1
_geom_bond_site_symmetry_2
Cu1 O1 1_555 1_555
S1 O5 1_555 1_555
O1 C1 1_555 1_555
O2 C1 1_555 1_555
O3 C14 1_555 1_555
O4 C14 1_555 1_555
O6 S1 1_555 1_555
O7 Cu1 1_555 1_555
N1 Cu1 1_555 1_555
N2 Cu1 1_555 1_555
C1 C2 1_555 1_555
C2 C3 1_555 1_555
C3 H1 1_555 1_555
C4 C3 1_555 1_555
H2 C4 1_555 1_555
C5 S1 1_555 1_555
C6 C5 1_555 1_555
H3 C6 1_555 1_555
C7 C2 1_555 1_555
H4 C7 1_555 1_555
C8 S1 1_555 1_555
C9 C8 1_555 1_555
H5 C9 1_555 1_555
C10 C9 1_555 1_555
H6 C10 1_555 1_555
C11 C10 1_555 1_555
C12 C11 1_555 1_555
H7 C12 1_555 1_555
C13 C8 1_555 1_555
H8 C13 1_555 1_555
C14 C11 1_555 1_555
C15 N1 1_555 1_555
H9 C15 1_555 1_555
C16 C15 1_555 1_555
H10 C16 1_555 1_555
C17 C16 1_555 1_555
H11 C17 1_555 1_555
C18 C17 1_555 1_555
C19 N1 1_555 1_555
C20 N2 1_555 1_555
C21 C20 1_555 1_555
C22 C21 1_555 1_555
H12 C22 1_555 1_555
C23 C18 1_555 1_555
H13 C23 1_555 1_555
C24 C21 1_555 1_555
H14 C24 1_555 1_555
C25 C24 1_555 1_555
H15 C25 1_555 1_555
C26 N2 1_555 1_555
H16 C26 1_555 1_555
H17 O7 1_555 1_555
H18 O7 1_555 1_555
Cu1A O3 1_555 1_555
O3A Cu1 1_555 1_555
C4 C5 1_555 1_555
C6 C7 1_555 1_555
C12 C13 1_555 1_555
C18 C19 1_555 1_555
C19 C20 1_555 1_555
C22 C23 1_555 1_555
C25 C26 1_555 1_555

#END
