
#######################################################################
#
#                 Cambridge Crystallographic Data Centre
#                                CCDC 
#
#######################################################################
#
# If this CIF has been generated from an entry in the Cambridge 
# Structural Database, then it will include bibliographic, chemical, 
# crystal, experimental, refinement or atomic coordinate data resulting 
# from the CCDC's data processing and validation procedures.
#
#######################################################################

data_QOLWIZ
_symmetry_cell_setting           orthorhombic
_symmetry_space_group_name_H-M   'P n a 21'
_symmetry_Int_Tables_number      33
_space_group_name_Hall           'P 2c -2n'
loop_
_symmetry_equiv_pos_site_id
_symmetry_equiv_pos_as_xyz
1 x,y,z
2 -x,-y,1/2+z
3 1/2-x,1/2+y,1/2+z
4 1/2+x,1/2-y,z
_cell_length_a                   6.7566(14)
_cell_length_b                   23.183(5)
_cell_length_c                   17.755(4)
_cell_angle_alpha                90
_cell_angle_beta                 90
_cell_angle_gamma                90
_cell_volume                     2781.11
loop_
_atom_site_label
_atom_site_type_symbol
_atom_site_fract_x
_atom_site_fract_y
_atom_site_fract_z
C1 C 0.8053(10) 0.3925(3) 0.9524(3)
C2 C 0.9735(9) 0.4063(3) 0.9110(3)
H1 H 1.0924 0.4136 0.9357
C3 C 0.9642(8) 0.4090(2) 0.8329(3)
H2 H 1.0767 0.4181 0.8053
C4 C 0.7866(8) 0.39793(18) 0.7961(3)
C5 C 0.6183(7) 0.3842(2) 0.8375(3)
H3 H 0.4995 0.3768 0.8128
C6 C 0.6277(9) 0.3815(3) 0.9156(3)
H4 H 0.5151 0.3723 0.9432
C7 C 0.7454(8) 0.20125(19) 0.6713(3)
H5 H 0.7692 0.1950 0.7223
C8 C 0.7170(10) 0.1547(2) 0.6232(3)
H6 H 0.7218 0.1173 0.6419
C9 C 0.6814(8) 0.1641(3) 0.5471(3)
H7 H 0.6623 0.1330 0.5149
C10 C 0.6742(8) 0.2201(3) 0.5191(3)
H8 H 0.6503 0.2263 0.4682
C11 C 0.7026(8) 0.2666(2) 0.5672(2)
C12 C 0.7382(6) 0.2572(2) 0.6434(2)
Zn1 Zn 0.7516(2) 0.48366(6) 0.65691(12)
C13 C 0.7553(14) 0.3584(4) 0.6721(7)
N1 N 0.7820(13) 0.4048(5) 0.7132(5)
C14 C 0.5118(19) 0.4889(5) 0.2746(7)
O1 O 0.9719(15) 0.3935(4) 1.0657(5)
O2 O 0.6802(15) 0.5518(5) 0.5854(5)
C15 C 0.5682(10) 0.4727(4) 0.3490(3)
C16 C 0.7619(9) 0.4582(4) 0.3674(4)
H9 H 0.8602 0.4596 0.3307
C17 C 0.8087(8) 0.4415(4) 0.4404(4)
H10 H 0.9383 0.4319 0.4527
C18 C 0.6617(11) 0.4394(4) 0.4951(3)
C19 C 0.4680(10) 0.4539(4) 0.4768(4)
H11 H 0.3697 0.4525 0.5134
C20 C 0.4212(8) 0.4705(4) 0.4037(4)
H12 H 0.2916 0.4802 0.3914
O3 O 0.3414(15) 0.4790(3) 0.2539(5)
N2 N 0.7570(13) 0.3033(4) 0.6938(6)
H13 H 0.7703 0.2958 0.7409
C21 C 0.7127(17) 0.3690(5) 0.5883(7)
O4 O 0.6489(14) 0.3849(5) 1.0707(5)
O5 O 0.6321(15) 0.5144(4) 0.2286(5)
N3 N 0.6889(13) 0.3248(4) 0.5468(4)
H14 H 0.6609 0.3315 0.5003
O6 O 1.0388(11) 0.5079(4) 0.6551(7)
C22 C 0.802(2) 0.3930(7) 1.0359(9)
N4 N 0.6983(16) 0.4243(5) 0.5712(6)
Zn1A Zn 0.2484(2) 0.51634(6) 0.15691(12)
O3A O 0.6586(15) 0.5210(3) 0.7539(5)
loop_
_geom_bond_atom_site_label_1
_geom_bond_atom_site_label_2
_geom_bond_site_symmetry_1
_geom_bond_site_symmetry_2
C1 C2 1_555 1_555
C2 H1 1_555 1_555
C3 C2 1_555 1_555
H2 C3 1_555 1_555
C4 C3 1_555 1_555
C5 C4 1_555 1_555
H3 C5 1_555 1_555
C6 C1 1_555 1_555
H4 C6 1_555 1_555
C7 H5 1_555 1_555
C8 C7 1_555 1_555
H6 C8 1_555 1_555
C9 C8 1_555 1_555
H7 C9 1_555 1_555
C10 C9 1_555 1_555
H8 C10 1_555 1_555
C11 C10 1_555 1_555
C12 C7 1_555 1_555
Zn1 N1 1_555 1_555
C13 N1 1_555 1_555
N1 C4 1_555 1_555
C14 C15 1_555 1_555
O1 C22 1_555 1_555
O2 Zn1 1_555 1_555
C15 C16 1_555 1_555
C16 H9 1_555 1_555
C17 C16 1_555 1_555
H10 C17 1_555 1_555
C18 C17 1_555 1_555
C19 C18 1_555 1_555
H11 C19 1_555 1_555
C20 C15 1_555 1_555
H12 C20 1_555 1_555
O3 C14 1_555 1_555
N2 C12 1_555 1_555
H13 N2 1_555 1_555
C21 C13 1_555 1_555
O4 C22 1_555 1_555
O5 C14 1_555 1_555
N3 C11 1_555 1_555
H14 N3 1_555 1_555
O6 Zn1 1_555 1_555
C22 C1 1_555 1_555
N4 Zn1 1_555 1_555
Zn1A O3 1_555 1_555
O3A Zn1 1_555 1_555
C5 C6 1_555 1_555
C11 C12 1_555 1_555
C13 N2 1_555 1_555
C18 N4 1_555 1_555
C19 C20 1_555 1_555
C21 N3 1_555 1_555
C21 N4 1_555 1_555

#END
