
#######################################################################
#
#                 Cambridge Crystallographic Data Centre
#                                CCDC 
#
#######################################################################
#
# If this CIF has been generated from an entry in the Cambridge 
# Structural Database, then it will include bibliographic, chemical, 
# crystal, experimental, refinement or atomic coordinate data resulting 
# from the CCDC's data processing and validation procedures.
#
#######################################################################

data_QOLZAS
_symmetry_cell_setting           monoclinic
_symmetry_space_group_name_H-M   'P 21/n'
_symmetry_Int_Tables_number      14
_space_group_name_Hall           '-P 2yn'
loop_
_symmetry_equiv_pos_site_id
_symmetry_equiv_pos_as_xyz
1 x,y,z
2 1/2+x,1/2-y,1/2+z
3 -x,-y,-z
4 1/2-x,1/2+y,1/2-z
_cell_length_a                   8.597(2)
_cell_length_b                   24.346(2)
_cell_length_c                   9.197(2)
_cell_angle_alpha                90.00
_cell_angle_beta                 106.10(3)
_cell_angle_gamma                90.00
_cell_volume                     1849.46
loop_
_atom_site_label
_atom_site_type_symbol
_atom_site_fract_x
_atom_site_fract_y
_atom_site_fract_z
Cd1 Cd 0.73729(3) 0.175184(11) 0.84500(3)
O1 O 0.6622(4) 0.25882(14) 0.8962(4)
Cd2 Cd 0.45775(3) 0.167930(12) 1.20550(3)
O2 O 0.7297(4) 0.19116(15) 1.2698(4)
C1 C 1.1824(5) -0.04746(19) 0.6631(5)
H1 H 1.1727 -0.0442 0.5548
H2 H 1.1734 -0.0862 0.6888
H3 H 1.2877 -0.0331 0.7215
C2 C 1.0492(5) -0.01503(18) 0.7004(4)
C3 C 0.9015(6) -0.03953(18) 0.6966(5)
H4 H 0.8859 -0.0775 0.6733
C4 C 0.7768(5) -0.00918(16) 0.7265(5)
H5 H 0.6773 -0.0266 0.7245
C5 C 0.7978(5) 0.04746(16) 0.7597(4)
C6 C 0.9449(5) 0.07251(16) 0.7648(4)
C7 C 1.0693(5) 0.04072(17) 0.7358(4)
H6 H 1.1701 0.0577 0.7404
N1 N 0.6659(4) 0.07901(14) 0.7909(4)
C8 C 0.6212(5) 0.05596(17) 0.9227(4)
H7 H 0.7199 0.0422 0.9973
H8 H 0.5474 0.0244 0.8891
C9 C 0.5393(4) 0.09794(16) 0.9984(4)
O3 O 0.5474(4) 0.14845(13) 0.9693(4)
O4 O 0.4688(4) 0.08104(13) 1.0924(3)
C10 C 0.5245(4) 0.08239(17) 0.6573(4)
H9 H 0.4272 0.0909 0.6908
H10 H 0.5072 0.0462 0.6064
C11 C 0.5431(5) 0.12615(17) 0.5429(4)
O5 O 0.6206(4) 0.16901(13) 0.5900(3)
O6 O 0.4734(4) 0.11521(13) 0.4071(3)
N2 N 0.9694(4) 0.13072(14) 0.7918(4)
C12 C 0.9820(5) 0.15819(16) 0.6521(4)
H11 H 0.9080 0.1401 0.5632
H12 H 1.0938 0.1543 0.6437
C13 C 0.9394(4) 0.21881(17) 0.6515(4)
O7 O 0.9298(4) 0.24064(12) 0.7734(3)
O8 O 0.9210(4) 0.24566(13) 0.5306(4)
C14 C 1.1099(5) 0.14329(18) 0.9235(4)
H13 H 1.1713 0.1741 0.8958
H14 H 1.1822 0.1109 0.9441
C15 C 1.0667(5) 0.15846(16) 1.0683(4)
O9 O 1.1867(4) 0.16664(13) 1.1822(4)
O10 O 0.9229(4) 0.16210(13) 1.0726(3)
O6_2 O 0.4734(4) 0.11521(13) 1.4071(3)
O7A O 0.4298(4) 0.25936(12) 1.2734(3)
O8A O 0.4210(4) 0.25434(13) 1.0306(4)
O9_2 O 0.1867(4) 0.16664(13) 1.1822(4)
Cd2_2 Cd 0.45775(3) 0.167930(12) 0.20550(3)
Cd2A Cd 0.95775(3) 0.332070(12) 0.70550(3)
Cd2_3 Cd 1.45775(3) 0.167930(12) 1.20550(3)
loop_
_geom_bond_atom_site_label_1
_geom_bond_atom_site_label_2
_geom_bond_site_symmetry_1
_geom_bond_site_symmetry_2
Cd1 O1 1_555 1_555
Cd2 O2 1_555 1_555
C1 H1 1_555 1_555
H2 C1 1_555 1_555
H3 C1 1_555 1_555
C2 C1 1_555 1_555
C3 C2 1_555 1_555
H4 C3 1_555 1_555
C4 C3 1_555 1_555
H5 C4 1_555 1_555
C5 C4 1_555 1_555
C6 C5 1_555 1_555
C7 C2 1_555 1_555
H6 C7 1_555 1_555
N1 Cd1 1_555 1_555
C8 N1 1_555 1_555
H7 C8 1_555 1_555
H8 C8 1_555 1_555
C9 C8 1_555 1_555
O3 Cd1 1_555 1_555
O4 Cd2 1_555 1_555
C10 N1 1_555 1_555
H9 C10 1_555 1_555
H10 C10 1_555 1_555
C11 C10 1_555 1_555
O5 Cd1 1_555 1_555
O6 C11 1_555 1_555
N2 Cd1 1_555 1_555
C12 N2 1_555 1_555
H11 C12 1_555 1_555
H12 C12 1_555 1_555
C13 C12 1_555 1_555
O7 Cd1 1_555 1_555
O8 C13 1_555 1_555
C14 N2 1_555 1_555
H13 C14 1_555 1_555
H14 C14 1_555 1_555
C15 C14 1_555 1_555
O9 C15 1_555 1_555
O10 Cd1 1_555 1_555
O6_2 Cd2 1_555 1_555
O7A Cd2 1_555 1_555
O8A Cd2 1_555 1_555
O9_2 Cd2 1_555 1_555
Cd2_2 O6 1_555 1_555
Cd2A O7 1_555 1_555
Cd2_3 O9 1_555 1_555
Cd2 O3 1_555 1_555
C5 N1 1_555 1_555
C6 C7 1_555 1_555
C6 N2 1_555 1_555
C9 O3 1_555 1_555
C9 O4 1_555 1_555
C11 O5 1_555 1_555
C13 O7 1_555 1_555
O8 Cd2A 1_555 1_555
C15 O10 1_555 1_555

#END
