
#######################################################################
#
#                 Cambridge Crystallographic Data Centre
#                                CCDC 
#
#######################################################################
#
# If this CIF has been generated from an entry in the Cambridge 
# Structural Database, then it will include bibliographic, chemical, 
# crystal, experimental, refinement or atomic coordinate data resulting 
# from the CCDC's data processing and validation procedures.
#
#######################################################################

data_QOMGEG
_symmetry_cell_setting           orthorhombic
_symmetry_space_group_name_H-M   'P m a 2'
_symmetry_Int_Tables_number      28
_space_group_name_Hall           'P 2 -2a'
loop_
_symmetry_equiv_pos_site_id
_symmetry_equiv_pos_as_xyz
1 x,y,z
2 -x,-y,z
3 1/2-x,y,z
4 1/2+x,-y,z
_cell_length_a                   29.177(5)
_cell_length_b                   10.248(5)
_cell_length_c                   11.658(5)
_cell_angle_alpha                90
_cell_angle_beta                 90
_cell_angle_gamma                90
_cell_volume                     3485.81
loop_
_atom_site_label
_atom_site_type_symbol
_atom_site_fract_x
_atom_site_fract_y
_atom_site_fract_z
Zn1 Zn 0.045734(15) 0.35743(4) 0.90053(7)
N1 N 0.04305(16) 0.3614(5) 1.0997(6)
N2 N 0.0414(3) 0.3681(8) 1.7061(9)
C1 C 0.04042(19) 0.3544(5) 1.4653(6)
C2 C 0.0440(3) 0.3734(10) 1.3382(10)
O1 O 0.04093(15) 1.1256(4) 0.8926(9)
O2 O 0.10891(12) 1.2124(4) 0.9279(3)
C3 C 0.08405(19) 1.1186(5) 0.9198(5)
C4 C 0.0152(2) 0.2924(8) 1.6460(6)
H1 H -0.0052 0.2376 1.6872
C5 C 0.00197(19) 0.3315(5) 1.2744(5)
H2 H -0.0242 0.3027 1.3155
C6 C 0.0804(2) 0.3898(6) 1.2746(5)
H3 H 0.1089 0.4042 1.3120
C7 C 0.0142(3) 0.2840(7) 1.5302(5)
H4 H -0.0065 0.2244 1.4952
C8 C 0.0724(2) 0.4393(7) 1.6424(6)
H5 H 0.0956 0.4867 1.6817
C9 C 0.0011(2) 0.3345(5) 1.1595(5)
H6 H -0.0265 0.3193 1.1187
C10 C 0.07907(19) 0.8749(5) 0.9168(6)
H7 H 0.0487 0.8802 0.8875
C11 C 0.1430(2) 0.7383(7) 0.9789(6)
H8 H 0.1563 0.6552 0.9929
C12 C 0.10005(19) 0.7506(5) 0.9375(5)
N3 N 0.21277(18) 0.8380(5) 1.0416(5)
C13 C 0.1674(3) 0.8559(7) 1.0006(8)
C14 C 0.1036(2) 0.9866(7) 0.9400(6)
C15 C 0.1496(2) 0.9779(6) 0.9797(5)
H9 H 0.1675 1.0541 0.9914
C16 C 0.0798(2) 0.3875(6) 1.1560(5)
H10 H 0.1073 0.4056 1.1151
C17 C 0.0713(3) 0.4447(7) 1.5284(6)
H11 H 0.0900 0.5052 1.4880
C18 C 0.2500 0.8882(8) 0.9789(9)
H12 H 0.2500 0.9415 0.9123
C19 C 0.2275(3) 0.7662(8) 1.1340(7)
H13 H 0.2085 0.7239 1.1886
O3 O 0.09753(12) 0.5225(3) 0.8821(3)
C20 C 0.07320(16) 0.6222(5) 0.9180(5)
O4 O 0.03205(14) 0.6259(4) 0.8812(4)
O1B O 0.45907(15) 1.1256(4) 0.8926(9)
C3B C 0.41595(19) 1.1186(5) 0.9198(5)
C10B C 0.42093(19) 0.8749(5) 0.9168(6)
H7B H 0.4513 0.8802 0.8875
C11B C 0.3570(2) 0.7383(7) 0.9789(6)
H8B H 0.3437 0.6552 0.9929
C12B C 0.39995(19) 0.7506(5) 0.9375(5)
N3B N 0.28723(18) 0.8380(5) 1.0416(5)
C13B C 0.3326(3) 0.8559(7) 1.0006(8)
C14B C 0.3964(2) 0.9866(7) 0.9400(6)
C15B C 0.3504(2) 0.9779(6) 0.9797(5)
H9B H 0.3325 1.0541 0.9914
C19B C 0.2725(3) 0.7662(8) 1.1340(7)
H13B H 0.2915 0.7239 1.1886
O3B O 0.40247(12) 0.5225(3) 0.8821(3)
C20B C 0.42680(16) 0.6222(5) 0.9180(5)
O4B O 0.46795(14) 0.6259(4) 0.8812(4)
O2B O 0.39109(12) 1.2124(4) 0.9279(3)
Zn1A Zn -0.045734(15) 0.64257(4) 0.90053(7)
N1A N -0.04305(16) 0.6386(5) 1.0997(6)
N2A N -0.0414(3) 0.6319(8) 1.7061(9)
C1A C -0.04042(19) 0.6456(5) 1.4653(6)
C2A C -0.0440(3) 0.6266(10) 1.3382(10)
C4A C -0.0152(2) 0.7076(8) 1.6460(6)
H1A H 0.0052 0.7624 1.6872
C5A C -0.00197(19) 0.6685(5) 1.2744(5)
H2A H 0.0242 0.6973 1.3155
C6A C -0.0804(2) 0.6102(6) 1.2746(5)
H3A H -0.1089 0.5958 1.3120
C7A C -0.0142(3) 0.7160(7) 1.5302(5)
H4A H 0.0065 0.7756 1.4952
C8A C -0.0724(2) 0.5607(7) 1.6424(6)
H5A H -0.0956 0.5133 1.6817
C9A C -0.0011(2) 0.6655(5) 1.1595(5)
H6A H 0.0265 0.6807 1.1187
C16A C -0.0798(2) 0.6125(6) 1.1560(5)
H10A H -0.1073 0.5944 1.1151
C17A C -0.0713(3) 0.5553(7) 1.5284(6)
H11A H -0.0900 0.4948 1.4880
Zn1_2 Zn 0.045734(15) 0.35743(4) 1.90053(7)
Zn1_3 Zn 0.045734(15) 1.35743(4) 0.90053(7)
Zn1A_2 Zn -0.045734(15) 0.64257(4) 1.90053(7)
Zn1B Zn 0.454266(15) 0.35743(4) 0.90053(7)
Zn1B_2 Zn 0.454266(15) 1.35743(4) 0.90053(7)
Zn1C Zn 0.545734(15) 0.64257(4) 0.90053(7)
N2_2 N 0.0414(3) 0.3681(8) 0.7061(9)
N2A_2 N -0.0414(3) 0.6319(8) 0.7061(9)
O1_2 O 0.04093(15) 0.1256(4) 0.8926(9)
O1A O -0.04093(15) 0.8744(4) 0.8926(9)
O2_2 O 0.10891(12) 0.2124(4) 0.9279(3)
O2A O -0.10891(12) 0.7876(4) 0.9279(3)
O3A O -0.09753(12) 0.4775(3) 0.8821(3)
O4A O -0.03205(14) 0.3741(4) 0.8812(4)
loop_
_geom_bond_atom_site_label_1
_geom_bond_atom_site_label_2
_geom_bond_site_symmetry_1
_geom_bond_site_symmetry_2
Zn1 N1 1_555 1_555
N1 C9 1_555 1_555
N2 C4 1_555 1_555
C1 C2 1_555 1_555
C2 C5 1_555 1_555
O1 C3 1_555 1_555
O2 C3 1_555 1_555
C3 C14 1_555 1_555
C4 H1 1_555 1_555
C5 H2 1_555 1_555
C6 C2 1_555 1_555
H3 C6 1_555 1_555
C7 C1 1_555 1_555
H4 C7 1_555 1_555
C8 N2 1_555 1_555
H5 C8 1_555 1_555
C9 C5 1_555 1_555
H6 C9 1_555 1_555
C10 H7 1_555 1_555
C11 H8 1_555 1_555
C12 C10 1_555 1_555
N3 C13 1_555 1_555
C13 C11 1_555 1_555
C14 C10 1_555 1_555
C15 C13 1_555 1_555
H9 C15 1_555 1_555
C16 N1 1_555 1_555
H10 C16 1_555 1_555
C17 C1 1_555 1_555
H11 C17 1_555 1_555
C18 N3 1_555 1_555
H12 C18 1_555 1_555
C19 N3 1_555 1_555
H13 C19 1_555 1_555
O3 Zn1 1_555 1_555
C20 C12 1_555 1_555
O4 C20 1_555 1_555
O1B C3B 1_555 1_555
C3B C14B 1_555 1_555
C10B H7B 1_555 1_555
C11B H8B 1_555 1_555
C12B C10B 1_555 1_555
N3B C18 1_555 1_555
C13B C11B 1_555 1_555
C14B C10B 1_555 1_555
C15B C13B 1_555 1_555
H9B C15B 1_555 1_555
C19B C19 1_555 1_555
H13B C19B 1_555 1_555
O3B C20B 1_555 1_555
C20B C12B 1_555 1_555
O4B C20B 1_555 1_555
O2B C3B 1_555 1_555
Zn1A O4 1_555 1_555
N1A Zn1A 1_555 1_555
N2A C4A 1_555 1_555
C1A C2A 1_555 1_555
C2A C5A 1_555 1_555
C4A H1A 1_555 1_555
C5A H2A 1_555 1_555
C6A C2A 1_555 1_555
H3A C6A 1_555 1_555
C7A C1A 1_555 1_555
H4A C7A 1_555 1_555
C8A N2A 1_555 1_555
H5A C8A 1_555 1_555
C9A N1A 1_555 1_555
H6A C9A 1_555 1_555
C16A N1A 1_555 1_555
H10A C16A 1_555 1_555
C17A C1A 1_555 1_555
H11A C17A 1_555 1_555
Zn1_2 N2 1_555 1_555
Zn1_3 O1 1_555 1_555
Zn1A_2 N2A 1_555 1_555
Zn1B O3B 1_555 1_555
Zn1B_2 O1B 1_555 1_555
Zn1C O4B 1_555 1_555
N2_2 Zn1 1_555 1_555
N2A_2 Zn1A 1_555 1_555
O1_2 Zn1 1_555 1_555
O1A Zn1A 1_555 1_555
O2_2 Zn1 1_555 1_555
O2A Zn1A 1_555 1_555
O3A Zn1A 1_555 1_555
O4A Zn1 1_555 1_555
O2 Zn1_3 1_555 1_555
C4 C7 1_555 1_555
C6 C16 1_555 1_555
C8 C17 1_555 1_555
C11 C12 1_555 1_555
C14 C15 1_555 1_555
O3 C20 1_555 1_555
C11B C12B 1_555 1_555
N3B C13B 1_555 1_555
N3B C19B 1_555 1_555
C14B C15B 1_555 1_555
O2B Zn1B_2 1_555 1_555
C4A C7A 1_555 1_555
C5A C9A 1_555 1_555
C6A C16A 1_555 1_555
C8A C17A 1_555 1_555

#END
