
#######################################################################
#
#                 Cambridge Crystallographic Data Centre
#                                CCDC 
#
#######################################################################
#
# If this CIF has been generated from an entry in the Cambridge 
# Structural Database, then it will include bibliographic, chemical, 
# crystal, experimental, refinement or atomic coordinate data resulting 
# from the CCDC's data processing and validation procedures.
#
#######################################################################

data_QOMMAG
_symmetry_cell_setting           monoclinic
_symmetry_space_group_name_H-M   'C c'
_symmetry_Int_Tables_number      9
_space_group_name_Hall           'C -2yc'
loop_
_symmetry_equiv_pos_site_id
_symmetry_equiv_pos_as_xyz
1 x,y,z
2 x,-y,1/2+z
3 1/2+x,1/2+y,z
4 1/2+x,1/2-y,1/2+z
_cell_length_a                   6.6046(10)
_cell_length_b                   14.487(2)
_cell_length_c                   9.9594(12)
_cell_angle_alpha                90
_cell_angle_beta                 93.379(10)
_cell_angle_gamma                90
_cell_volume                     951.267
loop_
_atom_site_label
_atom_site_type_symbol
_atom_site_fract_x
_atom_site_fract_y
_atom_site_fract_z
Ag1 Ag -0.5000 0.37389(5) 0.5000
N1 N 0.1619(11) 0.3522(5) 0.4652(7)
C1 C -0.0040(18) 0.3639(6) 0.5278(7)
H1 H -0.0046 0.3652 0.6212
N2 N -0.1770(13) 0.3729(5) 0.4476(7)
C2 C -0.1094(11) 0.3631(5) 0.3248(8)
N3 N -0.2131(13) 0.3652(5) 0.2037(7)
H2 H -0.3418 0.3748 0.1972
C3 C -0.1039(14) 0.3516(7) 0.0911(8)
H3 H -0.1732 0.3526 0.0071
C4 C 0.0957(12) 0.3372(7) 0.0980(8)
H4 H 0.1611 0.3307 0.0184
C5 C 0.2144(10) 0.3321(5) 0.2234(8)
O1 O 0.3931(9) 0.3141(5) 0.2424(7)
N4 N 0.0933(9) 0.3511(4) 0.3318(6)
N1_2 N -0.8381(11) 0.3522(5) 0.4652(7)
Ag1_2 Ag 0.5000 0.37389(5) 0.5000
Cl1 Cl -0.5485(5) 0.58807(13) 0.3192(2)
O2 O -0.5161(17) 0.5629(7) 0.4574(7)
O3 O -0.652(3) 0.6678(8) 0.3001(14)
O4 O -0.356(3) 0.602(2) 0.266(2)
O5 O -0.622(5) 0.5170(9) 0.2463(16)
loop_
_geom_bond_atom_site_label_1
_geom_bond_atom_site_label_2
_geom_bond_site_symmetry_1
_geom_bond_site_symmetry_2
Ag1 N2 1_555 1_555
N1 C1 1_555 1_555
C1 H1 1_555 1_555
N2 C1 1_555 1_555
C2 N2 1_555 1_555
N3 C2 1_555 1_555
H2 N3 1_555 1_555
C3 N3 1_555 1_555
H3 C3 1_555 1_555
C4 C3 1_555 1_555
H4 C4 1_555 1_555
C5 C4 1_555 1_555
O1 C5 1_555 1_555
N4 N1 1_555 1_555
Cl1 O2 1_555 1_555
O3 Cl1 1_555 1_555
O4 Cl1 1_555 1_555
O5 Cl1 1_555 1_555
N1_2 Ag1 1_555 1_555
Ag1_2 N1 1_555 1_555
C2 N4 1_555 1_555
C5 N4 1_555 1_555

#END
