
#######################################################################
#
#                 Cambridge Crystallographic Data Centre
#                                CCDC 
#
#######################################################################
#
# If this CIF has been generated from an entry in the Cambridge 
# Structural Database, then it will include bibliographic, chemical, 
# crystal, experimental, refinement or atomic coordinate data resulting 
# from the CCDC's data processing and validation procedures.
#
#######################################################################

data_QOMTET
_symmetry_cell_setting           monoclinic
_symmetry_space_group_name_H-M   'P 21/c'
_symmetry_Int_Tables_number      14
_space_group_name_Hall           '-P 2ybc'
loop_
_symmetry_equiv_pos_site_id
_symmetry_equiv_pos_as_xyz
1 x,y,z
2 -x,1/2+y,1/2-z
3 -x,-y,-z
4 x,1/2-y,1/2+z
_cell_length_a                   8.3800(4)
_cell_length_b                   20.9662(9)
_cell_length_c                   13.0999(6)
_cell_angle_alpha                90
_cell_angle_beta                 95.038(3)
_cell_angle_gamma                90
_cell_volume                     2292.72
loop_
_atom_site_label
_atom_site_type_symbol
_atom_site_fract_x
_atom_site_fract_y
_atom_site_fract_z
N4 N 1.022(2) 0.4708(8) 0.9919(13)
C21 C 1.019(3) 0.4291(13) 0.931(2)
C22 C 1.035(5) 0.5301(14) 0.944(3)
O8 O 1.001(3) 0.3690(15) 0.947(2)
C23 C 1.023(4) 0.4615(16) 1.0979(16)
N4B N 0.978(2) 0.5292(8) 1.0081(13)
C21B C 0.981(3) 0.5709(13) 1.069(2)
C22B C 0.965(5) 0.4699(14) 1.056(3)
O8B O 0.999(3) 0.6310(15) 1.053(2)
C23B C 0.977(4) 0.5385(16) 0.9021(16)
Zn1 Zn 0.63770(11) 0.29106(4) 0.85556(6)
O1 O 0.4095(7) 0.2812(3) 0.8070(4)
O2 O 0.3425(7) 0.3657(3) 1.2769(4)
C1 C 0.5012(6) 0.4892(3) 1.4487(4)
O3 O 0.6902(6) 0.5236(2) 1.2153(4)
O4 O 0.7347(7) 0.1880(2) 1.2290(4)
O5 O 0.6649(8) 0.0895(3) 1.2660(4)
O6 O 0.7524(7) 0.2127(2) 0.9022(4)
N1 N 0.5216(5) 0.4430(2) 1.2493(4)
N2 N 0.6171(6) 0.3475(2) 0.9797(4)
N3 N 0.2192(9) 0.2576(4) 0.6771(7)
C2 C 0.5554(8) 0.4118(3) 1.1556(5)
C3 C 0.6104(7) 0.4981(3) 1.2762(5)
C4 C 0.7953(8) 0.1054(3) 1.1156(5)
C5 C 0.4226(7) 0.4091(3) 1.3134(5)
C6 C 0.5989(7) 0.5229(3) 1.3828(5)
C7 C 0.6785(9) 0.5773(3) 1.4146(5)
H1 H 0.7369 0.6000 1.3695
C8 C 0.4147(7) 0.4339(3) 1.4168(5)
C9 C 0.6716(8) 0.5985(3) 1.5152(5)
H2 H 0.7265 0.6354 1.5366
C10 C 0.7228(8) 0.1293(3) 1.2117(5)
C11 C 0.1820(15) 0.2391(7) 0.5721(10)
H3 H 0.0685 0.2329 0.5592
H4 H 0.2366 0.2000 0.5591
H5 H 0.2160 0.2719 0.5279
C12 C 0.6729(9) 0.3650(3) 1.1594(6)
H6 H 0.7320 0.3549 1.2207
C13 C 0.3679(10) 0.2688(4) 0.7136(7)
H7 H 0.4472 0.2676 0.6682
C14 C 0.5049(8) 0.3927(3) 0.9773(5)
H8 H 0.4477 0.4022 0.9151
C15 C 0.6990(8) 0.3344(3) 1.0702(6)
H9 H 0.7774 0.3030 1.0723
C16 C 0.4700(9) 0.4264(3) 1.0640(6)
H10 H 0.3914 0.4579 1.0603
C17 C 0.0948(13) 0.2523(8) 0.7492(12)
H11 H -0.0069 0.2441 0.7119
H12 H 0.0892 0.2914 0.7868
H13 H 0.1208 0.2179 0.7961
S1 S 0.8992(2) 0.08877(8) 0.93084(13)
S2 S 0.9054(2) 0.03528(8) 1.14046(12)
C18 C 0.7911(8) 0.1291(3) 1.0206(5)
C19 C 0.9600(8) 0.0256(3) 1.0145(5)
O7 O 0.5751(6) 0.2028(2) 1.0180(4)
C20 C 0.6960(8) 0.1863(3) 0.9794(5)
O2B O 0.6575(7) 0.6343(3) 1.7231(4)
C1B C 0.4988(6) 0.5108(3) 1.5513(4)
O3B O 0.3098(6) 0.4764(2) 1.7847(4)
N1B N 0.4784(5) 0.5570(2) 1.7507(4)
N2B N 0.3829(6) 0.6525(2) 2.0203(4)
C2B C 0.4446(8) 0.5882(3) 1.8444(5)
C3B C 0.3896(7) 0.5019(3) 1.7238(5)
C5B C 0.5774(7) 0.5909(3) 1.6866(5)
C6B C 0.4011(7) 0.4771(3) 1.6172(5)
C7B C 0.3215(9) 0.4227(3) 1.5854(5)
H1B H 0.2631 0.4000 1.6305
C8B C 0.5853(7) 0.5661(3) 1.5832(5)
C9B C 0.3284(8) 0.4015(3) 1.4848(5)
H2B H 0.2735 0.3646 1.4634
C12B C 0.3271(9) 0.6350(3) 1.8406(6)
H6B H 0.2680 0.6451 1.7793
C14B C 0.4951(8) 0.6073(3) 2.0227(5)
H8B H 0.5523 0.5978 2.0849
C15B C 0.3010(8) 0.6656(3) 1.9298(6)
H9B H 0.2226 0.6970 1.9277
C16B C 0.5300(9) 0.5736(3) 1.9360(6)
H10B H 0.6086 0.5421 1.9397
O4B O 1.2653(7) -0.1880(2) 0.7710(4)
O5B O 1.3351(8) -0.0895(3) 0.7340(4)
O6B O 1.2476(7) -0.2127(2) 1.0978(4)
C4B C 1.2047(8) -0.1054(3) 0.8844(5)
C10B C 1.2772(8) -0.1293(3) 0.7883(5)
S1B S 1.1008(2) -0.08877(8) 1.06916(13)
S2B S 1.0946(2) -0.03528(8) 0.85954(12)
C18B C 1.2089(8) -0.1291(3) 0.9794(5)
C19B C 1.0400(8) -0.0256(3) 0.9855(5)
O7B O 1.4249(6) -0.2028(2) 0.9820(4)
C20B C 1.3040(8) -0.1863(3) 1.0206(5)
Zn1B Zn 0.36230(11) 0.70894(4) 2.14444(6)
O1B O 0.5905(7) 0.7188(3) 2.1930(4)
N3B N 0.7808(9) 0.7424(4) 2.3229(7)
C11B C 0.8180(15) 0.7609(7) 2.4279(10)
H3B H 0.9315 0.7671 2.4408
H4B H 0.7634 0.8000 2.4409
H5B H 0.7840 0.7281 2.4721
C13B C 0.6321(10) 0.7312(4) 2.2864(7)
H7B H 0.5528 0.7324 2.3318
C17B C 0.9052(13) 0.7477(8) 2.2508(12)
H11B H 1.0069 0.7559 2.2881
H12B H 0.9108 0.7086 2.2132
H13B H 0.8792 0.7821 2.2039
Zn1A Zn 1.36230(11) -0.20894(4) 0.64444(6)
Zn1B_2 Zn 1.36230(11) -0.29106(4) 1.14444(6)
Zn1C Zn 0.63770(11) 0.20894(4) 1.35556(6)
O4A O 0.2653(7) 0.6880(2) 2.2710(4)
O4C O 0.7347(7) 0.3120(2) 0.7290(4)
O6B_2 O 0.2476(7) 0.7873(2) 2.0978(4)
loop_
_geom_bond_atom_site_label_1
_geom_bond_atom_site_label_2
_geom_bond_site_symmetry_1
_geom_bond_site_symmetry_2
Zn1 O1 1_555 1_555
O1 C13 1_555 1_555
O2 C5 1_555 1_555
C1 C6 1_555 1_555
O3 C3 1_555 1_555
O4 C10 1_555 1_555
O5 C10 1_555 1_555
O6 Zn1 1_555 1_555
N1 C2 1_555 1_555
N2 Zn1 1_555 1_555
N3 C11 1_555 1_555
C2 C12 1_555 1_555
C3 N1 1_555 1_555
C4 C10 1_555 1_555
C5 N1 1_555 1_555
C6 C3 1_555 1_555
C7 C6 1_555 1_555
H1 C7 1_555 1_555
C8 C1 1_555 1_555
C9 C7 1_555 1_555
H2 C9 1_555 1_555
C11 H3 1_555 1_555
H4 C11 1_555 1_555
H5 C11 1_555 1_555
C12 H6 1_555 1_555
C13 N3 1_555 1_555
H7 C13 1_555 1_555
C14 N2 1_555 1_555
H8 C14 1_555 1_555
C15 N2 1_555 1_555
H9 C15 1_555 1_555
C16 C2 1_555 1_555
H10 C16 1_555 1_555
C17 N3 1_555 1_555
H11 C17 1_555 1_555
H12 C17 1_555 1_555
H13 C17 1_555 1_555
S1 C18 1_555 1_555
S2 C4 1_555 1_555
C18 C4 1_555 1_555
C19 S1 1_555 1_555
O7 C20 1_555 1_555
C20 O6 1_555 1_555
N4 C21 1_555 1_555
C21 O8 1_555 1_555
C22 N4 1_555 1_555
C23 N4 1_555 1_555
O2B C5B 1_555 1_555
C1B C1 1_555 1_555
O3B C3B 1_555 1_555
N1B C2B 1_555 1_555
N2B C14B 1_555 1_555
C2B C12B 1_555 1_555
C3B N1B 1_555 1_555
C5B N1B 1_555 1_555
C6B C1B 1_555 1_555
C7B C6B 1_555 1_555
H1B C7B 1_555 1_555
C8B C9 1_555 1_555
C9B C8 1_555 1_555
H2B C9B 1_555 1_555
C12B H6B 1_555 1_555
C14B H8B 1_555 1_555
C15B N2B 1_555 1_555
H9B C15B 1_555 1_555
C16B C2B 1_555 1_555
H10B C16B 1_555 1_555
O4B C10B 1_555 1_555
O5B C10B 1_555 1_555
O6B C20B 1_555 1_555
C4B C10B 1_555 1_555
S1B C18B 1_555 1_555
S2B C4B 1_555 1_555
C18B C4B 1_555 1_555
C19B C19 1_555 1_555
O7B C20B 1_555 1_555
C20B C18B 1_555 1_555
Zn1B N2B 1_555 1_555
O1B Zn1B 1_555 1_555
N3B C11B 1_555 1_555
C11B H3B 1_555 1_555
H4B C11B 1_555 1_555
H5B C11B 1_555 1_555
C13B O1B 1_555 1_555
H7B C13B 1_555 1_555
C17B N3B 1_555 1_555
H11B C17B 1_555 1_555
H12B C17B 1_555 1_555
H13B C17B 1_555 1_555
Zn1A O4B 1_555 1_555
Zn1B_2 O6B 1_555 1_555
Zn1C O4 1_555 1_555
O4A Zn1B 1_555 1_555
O4C Zn1 1_555 1_555
O6B_2 Zn1B 1_555 1_555
N4B N4 1_555 1_555
C21B N4B 1_555 1_555
C22B N4 1_555 1_555
O8B C21B 1_555 1_555
C23B C22 1_555 1_555
C5 C8 1_555 1_555
C12 C15 1_555 1_555
C14 C16 1_555 1_555
S2 C19 1_555 1_555
C18 C20 1_555 1_555
C22 N4B 1_555 1_555
C23 C22B 1_555 1_555
C1B C8B 1_555 1_555
C3B C6B 1_555 1_555
C5B C8B 1_555 1_555
C7B C9B 1_555 1_555
C12B C15B 1_555 1_555
C14B C16B 1_555 1_555
S1B C19B 1_555 1_555
S2B C19B 1_555 1_555
N3B C13B 1_555 1_555
N4B C22B 1_555 1_555
N4B C23B 1_555 1_555

#END
