
#######################################################################
#
#                 Cambridge Crystallographic Data Centre
#                                CCDC 
#
#######################################################################
#
# If this CIF has been generated from an entry in the Cambridge 
# Structural Database, then it will include bibliographic, chemical, 
# crystal, experimental, refinement or atomic coordinate data resulting 
# from the CCDC's data processing and validation procedures.
#
#######################################################################

data_QOMTOD
_symmetry_cell_setting           monoclinic
_symmetry_space_group_name_H-M   'P 21/n'
_symmetry_Int_Tables_number      14
_space_group_name_Hall           '-P 2yn'
loop_
_symmetry_equiv_pos_site_id
_symmetry_equiv_pos_as_xyz
1 x,y,z
2 1/2-x,1/2+y,1/2-z
3 -x,-y,-z
4 1/2+x,1/2-y,1/2+z
_cell_length_a                   14.2985(4)
_cell_length_b                   12.5882(3)
_cell_length_c                   14.4371(4)
_cell_angle_alpha                90
_cell_angle_beta                 112.0070(10)
_cell_angle_gamma                90
_cell_volume                     2409.23
loop_
_atom_site_label
_atom_site_type_symbol
_atom_site_fract_x
_atom_site_fract_y
_atom_site_fract_z
C1 C 1.1647(2) 0.3880(2) 0.67512(19)
H1 H 1.1181 0.3989 0.7051
C2 C 1.2555(2) 0.3427(2) 0.73047(19)
H2 H 1.2700 0.3237 0.7967
C3 C 1.3254(2) 0.3256(2) 0.68722(19)
H3 H 1.3870 0.2936 0.7233
C4 C 1.30234(19) 0.3567(2) 0.58916(18)
C5 C 1.20766(18) 0.40149(19) 0.53774(17)
H4 H 1.1913 0.4212 0.4714
C6 C 1.3762(2) 0.3467(2) 0.5420(2)
C7 C 1.4278(2) 0.4235(3) 0.3464(2)
C8 C 1.50347(19) 0.4207(2) 0.30146(19)
C9 C 1.6009(2) 0.3839(2) 0.3523(2)
H5 H 1.6207 0.3601 0.4179
C10 C 1.6677(2) 0.3829(2) 0.3044(2)
H6 H 1.7337 0.3602 0.3377
C11 C 1.6356(2) 0.4162(2) 0.2063(2)
H7 H 1.6809 0.4131 0.1740
C12 C 1.47895(19) 0.4558(2) 0.20393(18)
H8 H 1.4146 0.4831 0.1704
C13 C 0.87704(17) 0.33353(18) 0.55991(17)
C14 C 0.81709(18) 0.31022(19) 0.62435(18)
C15 C 0.7543(2) 0.2232(2) 0.6068(2)
H9 H 0.7487 0.1773 0.5546
C16 C 0.6991(2) 0.2033(2) 0.6665(2)
H10 H 0.6574 0.1440 0.6540
C17 C 0.7055(2) 0.2703(2) 0.7439(2)
C18 C 0.7683(2) 0.3575(2) 0.7610(2)
H11 H 0.7739 0.4034 0.8133
C19 C 0.8229(2) 0.3777(2) 0.7018(2)
H12 H 0.8642 0.4373 0.7143
C20 C 0.6432(2) 0.2507(2) 0.8073(2)
N1 N 1.13970(15) 0.41746(16) 0.57889(14)
N2 N 1.36017(18) 0.3880(2) 0.45806(18)
N3 N 1.44096(18) 0.3733(2) 0.42603(18)
N4 N 1.54231(16) 0.45258(17) 0.15536(15)
O1 O 0.92698(13) 0.41766(13) 0.57774(13)
O2 O 0.87297(16) 0.26928(14) 0.49160(15)
O3 O 1.64303(16) 0.55869(17) 0.03115(15)
O4 O 0.57821(17) 0.17921(19) 0.78226(16)
O5 O 1.45620(17) 0.65223(16) 0.02302(18)
O6 O 0.66094(18) 0.30928(18) 0.88211(17)
O7 O 0.95779(15) 0.38911(15) 0.38045(14)
Co1 Co 1.0000 0.5000 0.5000
Co2 Co 1.5000 0.5000 0.0000
H13 H 1.648(3) 0.621(3) 0.022(3)
H14 H 1.692(3) 0.533(3) 0.024(3)
H15 H 1.424(3) 0.676(3) 0.059(3)
H16 H 1.482(3) 0.701(4) 0.006(3)
H17 H 0.992(3) 0.370(3) 0.355(3)
H18 H 0.931(3) 0.340(3) 0.402(2)
H19 H 1.437(2) 0.316(3) 0.577(2)
H20 H 1.371(3) 0.464(3) 0.315(3)
C1B C 0.8353(2) 0.6120(2) 0.32488(19)
H1B H 0.8819 0.6011 0.2949
C2B C 0.7445(2) 0.6573(2) 0.26953(19)
H2B H 0.7300 0.6763 0.2033
C3B C 0.6746(2) 0.6744(2) 0.31278(19)
H3B H 0.6130 0.7064 0.2767
C4B C 0.69766(19) 0.6433(2) 0.41084(18)
C5B C 0.79234(18) 0.59851(19) 0.46226(17)
H4B H 0.8087 0.5788 0.5286
C6B C 0.6238(2) 0.6533(2) 0.4580(2)
C7B C 0.5722(2) 0.5765(3) 0.6536(2)
C8B C 0.49653(19) 0.5793(2) 0.69854(19)
C9B C 0.3991(2) 0.6161(2) 0.6477(2)
H5B H 0.3793 0.6399 0.5821
C10B C 0.3323(2) 0.6171(2) 0.6956(2)
H6B H 0.2663 0.6398 0.6623
C11B C 0.3644(2) 0.5838(2) 0.7937(2)
H7B H 0.3191 0.5869 0.8260
C12B C 0.52105(19) 0.5442(2) 0.79607(18)
H8B H 0.5854 0.5169 0.8296
C13B C 1.12296(17) 0.66647(18) 0.44009(17)
C14B C 1.18291(18) 0.68978(19) 0.37565(18)
C15B C 1.2457(2) 0.7768(2) 0.3932(2)
H9B H 1.2513 0.8227 0.4454
C16B C 1.3009(2) 0.7967(2) 0.3335(2)
H10B H 1.3426 0.8560 0.3460
C17B C 1.2945(2) 0.7297(2) 0.2561(2)
C18B C 1.2317(2) 0.6425(2) 0.2390(2)
H11B H 1.2261 0.5966 0.1867
C19B C 1.1771(2) 0.6223(2) 0.2982(2)
H12B H 1.1358 0.5627 0.2857
C20B C 1.3568(2) 0.7493(2) 0.1927(2)
N1B N 0.86030(15) 0.58254(16) 0.42111(14)
N2B N 0.63983(18) 0.6120(2) 0.54194(18)
N3B N 0.55904(18) 0.6267(2) 0.57397(18)
N4B N 0.45769(16) 0.54742(17) 0.84464(15)
O1B O 1.07302(13) 0.58234(13) 0.42226(13)
O2B O 1.12703(16) 0.73072(14) 0.50840(15)
O4B O 1.42179(17) 0.82079(19) 0.21774(16)
O6B O 1.33906(18) 0.69072(18) 0.11789(17)
O7B O 1.04221(15) 0.61089(15) 0.61955(14)
H17B H 1.008(3) 0.630(3) 0.645(3)
H18B H 1.069(3) 0.660(3) 0.598(2)
H19B H 0.563(2) 0.684(3) 0.423(2)
H20B H 0.629(3) 0.536(3) 0.685(3)
O3B O 1.35697(16) 0.44131(17) -0.03115(15)
H13B H 1.352(3) 0.379(3) -0.022(3)
H14B H 1.308(3) 0.467(3) -0.024(3)
O5B O 1.54380(17) 0.34777(16) -0.02302(18)
H15B H 1.576(3) 0.324(3) -0.059(3)
H16B H 1.518(3) 0.299(4) -0.006(3)
N4B_2 N 1.45769(16) 0.54742(17) -0.15536(15)
Co2_2 Co 0.5000 0.5000 1.0000
O8 O 0.4808(2) 0.0605(3) 0.6165(3)
H21 H 0.4176 0.0496 0.5961
H22 H 0.5005 0.0912 0.6730
O9 O 1.7847(2) 0.4415(3) 0.0164(3)
O10 O 1.51739(19) 0.1396(4) 0.4501(3)
loop_
_geom_bond_atom_site_label_1
_geom_bond_atom_site_label_2
_geom_bond_site_symmetry_1
_geom_bond_site_symmetry_2
C1 H1 1_555 1_555
C2 C1 1_555 1_555
H2 C2 1_555 1_555
C3 C2 1_555 1_555
H3 C3 1_555 1_555
C4 C3 1_555 1_555
C5 C4 1_555 1_555
H4 C5 1_555 1_555
C6 C4 1_555 1_555
C7 C8 1_555 1_555
C8 C9 1_555 1_555
C9 H5 1_555 1_555
C10 C9 1_555 1_555
H6 C10 1_555 1_555
C11 C10 1_555 1_555
H7 C11 1_555 1_555
C12 C8 1_555 1_555
H8 C12 1_555 1_555
C13 C14 1_555 1_555
C14 C15 1_555 1_555
C15 H9 1_555 1_555
C16 C15 1_555 1_555
H10 C16 1_555 1_555
C17 C16 1_555 1_555
C18 C17 1_555 1_555
H11 C18 1_555 1_555
C19 C14 1_555 1_555
H12 C19 1_555 1_555
C20 C17 1_555 1_555
N1 C1 1_555 1_555
N2 C6 1_555 1_555
N3 C7 1_555 1_555
N4 C11 1_555 1_555
O1 C13 1_555 1_555
O2 C13 1_555 1_555
O3 Co2 1_555 1_555
O4 C20 1_555 1_555
O5 Co2 1_555 1_555
O6 C20 1_555 1_555
O7 Co1 1_555 1_555
Co1 N1 1_555 1_555
Co2 N4 1_555 1_555
H13 O3 1_555 1_555
H14 O3 1_555 1_555
H15 O5 1_555 1_555
H16 O5 1_555 1_555
H17 O7 1_555 1_555
H18 O7 1_555 1_555
H19 C6 1_555 1_555
H20 C7 1_555 1_555
O8 H21 1_555 1_555
H22 O8 1_555 1_555
C1B H1B 1_555 1_555
C2B C1B 1_555 1_555
H2B C2B 1_555 1_555
C3B C2B 1_555 1_555
H3B C3B 1_555 1_555
C4B C3B 1_555 1_555
C5B C4B 1_555 1_555
H4B C5B 1_555 1_555
C6B C4B 1_555 1_555
C7B C8B 1_555 1_555
C8B C9B 1_555 1_555
C9B H5B 1_555 1_555
C10B C9B 1_555 1_555
H6B C10B 1_555 1_555
C11B C10B 1_555 1_555
H7B C11B 1_555 1_555
C12B C8B 1_555 1_555
H8B C12B 1_555 1_555
C13B C14B 1_555 1_555
C14B C15B 1_555 1_555
C15B H9B 1_555 1_555
C16B C15B 1_555 1_555
H10B C16B 1_555 1_555
C17B C16B 1_555 1_555
C18B C17B 1_555 1_555
H11B C18B 1_555 1_555
C19B C14B 1_555 1_555
H12B C19B 1_555 1_555
C20B C17B 1_555 1_555
N1B Co1 1_555 1_555
N2B C6B 1_555 1_555
N3B C7B 1_555 1_555
N4B C11B 1_555 1_555
O1B Co1 1_555 1_555
O2B C13B 1_555 1_555
O4B C20B 1_555 1_555
O6B C20B 1_555 1_555
O7B Co1 1_555 1_555
H17B O7B 1_555 1_555
H18B O7B 1_555 1_555
H19B C6B 1_555 1_555
H20B C7B 1_555 1_555
O3B Co2 1_555 1_555
H13B O3B 1_555 1_555
H14B O3B 1_555 1_555
O5B Co2 1_555 1_555
H15B O5B 1_555 1_555
H16B O5B 1_555 1_555
N4B_2 Co2 1_555 1_555
Co2_2 N4B 1_555 1_555
C5 N1 1_555 1_555
C12 N4 1_555 1_555
C18 C19 1_555 1_555
N2 N3 1_555 1_555
O1 Co1 1_555 1_555
C1B N1B 1_555 1_555
C5B N1B 1_555 1_555
C12B N4B 1_555 1_555
C13B O1B 1_555 1_555
C18B C19B 1_555 1_555
N2B N3B 1_555 1_555

#END
