
#######################################################################
#
#                 Cambridge Crystallographic Data Centre
#                                CCDC 
#
#######################################################################
#
# If this CIF has been generated from an entry in the Cambridge 
# Structural Database, then it will include bibliographic, chemical, 
# crystal, experimental, refinement or atomic coordinate data resulting 
# from the CCDC's data processing and validation procedures.
#
#######################################################################

data_QOMTUJ
_symmetry_cell_setting           triclinic
_symmetry_space_group_name_H-M   'P -1'
_symmetry_Int_Tables_number      2
_space_group_name_Hall           '-P 1'
loop_
_symmetry_equiv_pos_site_id
_symmetry_equiv_pos_as_xyz
1 x,y,z
2 -x,-y,-z
_cell_length_a                   6.7280(2)
_cell_length_b                   8.6182(2)
_cell_length_c                   10.0558(3)
_cell_angle_alpha                97.3020(10)
_cell_angle_beta                 97.1950(10)
_cell_angle_gamma                92.0550(10)
_cell_volume                     572.99
loop_
_atom_site_label
_atom_site_type_symbol
_atom_site_fract_x
_atom_site_fract_y
_atom_site_fract_z
Co1 Co 0.5000 0.5000 0.5000
O1 O 0.0412(2) 0.37161(17) 0.33486(13)
O2 O 0.33873(17) 0.47835(14) 0.30879(11)
N1 N 0.6008(2) 0.26528(15) 0.45493(14)
N2 N 0.5076(3) 0.0344(2) 0.06792(18)
C1 C 0.6574(3) 0.04731(19) 0.29171(19)
C2 C 0.0769(2) 0.46829(19) 0.12840(15)
C3 C 0.1155(3) 0.5872(2) -0.07068(17)
H1 H 0.1937 0.6458 -0.1182
C4 C 0.5887(2) 0.19546(19) 0.32760(17)
H2 H 0.5310 0.2488 0.2589
C5 C 0.7440(3) -0.0302(2) 0.3954(2)
H3 H 0.7931 -0.1289 0.3761
C6 C 0.1578(2) 0.43562(18) 0.26802(15)
C7 C 0.6340(3) -0.0227(2) 0.1478(2)
C8 C 0.7566(3) 0.0403(2) 0.5270(2)
H4 H 0.8135 -0.0106 0.5976
C9 C 0.6842(3) 0.1868(2) 0.55327(18)
H5 H 0.6933 0.2334 0.6426
C10 C 0.1909(2) 0.5558(2) 0.05642(17)
H6 H 0.3195 0.5937 0.0942
C11 C 0.7581(8) -0.1553(6) 0.1089(4)
H7 H 0.7282 -0.1887 0.0135
H8 H 0.7291 -0.2406 0.1574
H9 H 0.8976 -0.1225 0.1306
O3 O 0.24556(18) 0.41216(15) 0.58011(13)
H10 H 0.193(4) 0.480(3) 0.623(3)
H11 H 0.170(4) 0.391(3) 0.509(3)
O1A O -0.0412(2) 0.62839(17) -0.33486(13)
O2A O -0.33873(17) 0.52165(14) -0.30879(11)
C2A C -0.0769(2) 0.53171(19) -0.12840(15)
C3A C -0.1155(3) 0.4128(2) 0.07068(17)
H1A H -0.1937 0.3542 0.1182
C6A C -0.1578(2) 0.56438(18) -0.26802(15)
C10A C -0.1909(2) 0.4442(2) -0.05642(17)
H6A H -0.3195 0.4063 -0.0942
N1A N 0.3992(2) -0.26528(15) -0.45493(14)
N2A N 0.4924(3) -0.0344(2) -0.06792(18)
C1A C 0.3426(3) -0.04731(19) -0.29171(19)
C4A C 0.4113(2) -0.19546(19) -0.32760(17)
H2A H 0.4690 -0.2488 -0.2589
C5A C 0.2560(3) 0.0302(2) -0.3954(2)
H3A H 0.2069 0.1289 -0.3761
C7A C 0.3660(3) 0.0227(2) -0.1478(2)
C8A C 0.2434(3) -0.0403(2) -0.5270(2)
H4A H 0.1865 0.0106 -0.5976
C9A C 0.3158(3) -0.1868(2) -0.55327(18)
H5A H 0.3067 -0.2334 -0.6426
C11A C 0.2419(8) 0.1553(6) -0.1089(4)
H7A H 0.2718 0.1887 -0.0135
H8A H 0.2709 0.2406 -0.1574
H9A H 0.1024 0.1225 -0.1306
O3A O 0.75444(18) 0.58784(15) 0.41989(13)
H10A H 0.807(4) 0.520(3) 0.377(3)
H11A H 0.830(4) 0.609(3) 0.491(3)
Co1_2 Co -0.5000 0.5000 -0.5000
Co1_3 Co 0.5000 -0.5000 -0.5000
O2A_2 O 0.66127(17) 0.52165(14) 0.69121(11)
N1A_2 N 0.3992(2) 0.73472(15) 0.54507(14)
loop_
_geom_bond_atom_site_label_1
_geom_bond_atom_site_label_2
_geom_bond_site_symmetry_1
_geom_bond_site_symmetry_2
Co1 O2 1_555 1_555
O1 C6 1_555 1_555
O2 C6 1_555 1_555
N1 Co1 1_555 1_555
N2 C7 1_555 1_555
C1 C4 1_555 1_555
C2 C6 1_555 1_555
C3 H1 1_555 1_555
C4 N1 1_555 1_555
H2 C4 1_555 1_555
C5 C1 1_555 1_555
H3 C5 1_555 1_555
C7 C1 1_555 1_555
C8 C5 1_555 1_555
H4 C8 1_555 1_555
C9 N1 1_555 1_555
H5 C9 1_555 1_555
C10 C2 1_555 1_555
H6 C10 1_555 1_555
C11 C7 1_555 1_555
H7 C11 1_555 1_555
H8 C11 1_555 1_555
H9 C11 1_555 1_555
O3 Co1 1_555 1_555
H10 O3 1_555 1_555
H11 O3 1_555 1_555
O1A C6A 1_555 1_555
O2A C6A 1_555 1_555
C2A C3 1_555 1_555
C3A C2 1_555 1_555
H1A C3A 1_555 1_555
C6A C2A 1_555 1_555
C10A C2A 1_555 1_555
H6A C10A 1_555 1_555
N1A C4A 1_555 1_555
N2A N2 1_555 1_555
C1A C4A 1_555 1_555
C4A H2A 1_555 1_555
C5A C1A 1_555 1_555
H3A C5A 1_555 1_555
C7A N2A 1_555 1_555
C8A C5A 1_555 1_555
H4A C8A 1_555 1_555
C9A N1A 1_555 1_555
H5A C9A 1_555 1_555
C11A C7A 1_555 1_555
H7A C11A 1_555 1_555
H8A C11A 1_555 1_555
H9A C11A 1_555 1_555
O3A Co1 1_555 1_555
H10A O3A 1_555 1_555
H11A O3A 1_555 1_555
Co1_2 O2A 1_555 1_555
Co1_3 N1A 1_555 1_555
O2A_2 Co1 1_555 1_555
N1A_2 Co1 1_555 1_555
C3 C10 1_555 1_555
C8 C9 1_555 1_555
C3A C10A 1_555 1_555
C1A C7A 1_555 1_555
C8A C9A 1_555 1_555

#END
