
#######################################################################
#
#                 Cambridge Crystallographic Data Centre
#                                CCDC 
#
#######################################################################
#
# If this CIF has been generated from an entry in the Cambridge 
# Structural Database, then it will include bibliographic, chemical, 
# crystal, experimental, refinement or atomic coordinate data resulting 
# from the CCDC's data processing and validation procedures.
#
#######################################################################

data_QOMVAR
_symmetry_cell_setting           monoclinic
_symmetry_space_group_name_H-M   'C 2/c'
_symmetry_Int_Tables_number      15
_space_group_name_Hall           '-C 2yn'
loop_
_symmetry_equiv_pos_site_id
_symmetry_equiv_pos_as_xyz
1 x,y,z
2 -x,y,1/2-z
3 1/2+x,1/2+y,z
4 1/2-x,1/2+y,1/2-z
5 -x,-y,-z
6 x,-y,1/2+z
7 1/2-x,1/2-y,-z
8 1/2+x,1/2-y,1/2+z
_cell_length_a                   19.0040(4)
_cell_length_b                   6.60430(10)
_cell_length_c                   15.8025(4)
_cell_angle_alpha                90
_cell_angle_beta                 111.595(2)
_cell_angle_gamma                90
_cell_volume                     1844.13
loop_
_atom_site_label
_atom_site_type_symbol
_atom_site_fract_x
_atom_site_fract_y
_atom_site_fract_z
Zn1 Zn 0.5000 0.11640(5) 0.2500
O1 O 0.36715(10) 0.1947(3) 0.10041(13)
O2 O 0.42085(9) -0.0737(2) 0.18264(11)
N1 N 0.44967(10) 0.3102(3) 0.31319(12)
N2 N 0.47226(13) 0.9308(3) 0.47446(15)
C1 C 0.24628(12) -0.4502(4) 0.02355(16)
H1 H 0.2438 -0.5846 0.0398
C2 C 0.45447(14) 0.6144(3) 0.39764(16)
C3 C 0.30330(12) -0.3265(4) 0.07919(16)
H2 H 0.3392 -0.3785 0.1322
C4 C 0.48684(13) 0.4709(3) 0.35912(14)
H3 H 0.5372 0.4877 0.3657
C5 C 0.36851(12) 0.0123(3) 0.11598(15)
C6 C 0.30723(12) -0.1246(3) 0.05628(15)
C7 C 0.37931(17) 0.5864(4) 0.3883(2)
H4 H 0.3555 0.6788 0.4133
C8 C 0.37745(14) 0.2859(4) 0.30486(18)
H5 H 0.3509 0.1742 0.2731
C9 C 0.50091(15) 0.7806(4) 0.44931(16)
H6 H 0.5530 0.7761 0.4642
C10 C 0.34105(17) 0.4205(5) 0.3417(2)
H7 H 0.2909 0.3987 0.3349
O1F O 0.13285(10) -0.6947(3) -0.10041(13)
O2F O 0.07915(9) -0.4263(2) -0.18264(11)
C1F C 0.25372(12) -0.0498(4) -0.02355(16)
H1F H 0.2562 0.0846 -0.0398
C3F C 0.19670(12) -0.1735(4) -0.07919(16)
H2F H 0.1608 -0.1215 -0.1322
C5F C 0.13149(12) -0.5123(3) -0.11598(15)
C6F C 0.19277(12) -0.3754(3) -0.05628(15)
N1D N 0.55033(10) 1.6898(3) 0.68681(12)
N2D N 0.52774(13) 1.0692(3) 0.52554(15)
C2D C 0.54553(14) 1.3856(3) 0.60236(16)
C4D C 0.51316(13) 1.5291(3) 0.64088(14)
H3D H 0.4628 1.5123 0.6343
C7D C 0.62069(17) 1.4136(4) 0.6117(2)
H4D H 0.6445 1.3212 0.5867
C8D C 0.62255(14) 1.7141(4) 0.69514(18)
H5D H 0.6491 1.8258 0.7269
C9D C 0.49909(15) 1.2194(4) 0.55069(16)
H6D H 0.4470 1.2239 0.5358
C10D C 0.65895(17) 1.5795(5) 0.6583(2)
H7D H 0.7091 1.6013 0.6651
Zn1D Zn 0.5000 1.88360(5) 0.7500
Zn1F Zn 0.0000 -0.61640(5) -0.2500
O2A O 0.57915(9) -0.0737(2) 0.31736(11)
N1A N 0.55033(10) 0.3102(3) 0.18681(12)
loop_
_geom_bond_atom_site_label_1
_geom_bond_atom_site_label_2
_geom_bond_site_symmetry_1
_geom_bond_site_symmetry_2
Zn1 O2 1_555 1_555
O1 C5 1_555 1_555
O2 C5 1_555 1_555
N1 Zn1 1_555 1_555
N2 C9 1_555 1_555
C1 H1 1_555 1_555
C2 C4 1_555 1_555
C3 C1 1_555 1_555
H2 C3 1_555 1_555
C4 N1 1_555 1_555
H3 C4 1_555 1_555
C5 C6 1_555 1_555
C6 C3 1_555 1_555
C7 C2 1_555 1_555
H4 C7 1_555 1_555
C8 N1 1_555 1_555
H5 C8 1_555 1_555
C9 C2 1_555 1_555
H6 C9 1_555 1_555
C10 C7 1_555 1_555
H7 C10 1_555 1_555
O1F C5F 1_555 1_555
O2F C5F 1_555 1_555
C1F C6 1_555 1_555
H1F C1F 1_555 1_555
C3F C1F 1_555 1_555
H2F C3F 1_555 1_555
C5F C6F 1_555 1_555
C6F C1 1_555 1_555
N1D C4D 1_555 1_555
N2D N2 1_555 1_555
C2D C4D 1_555 1_555
C4D H3D 1_555 1_555
C7D C2D 1_555 1_555
H4D C7D 1_555 1_555
C8D N1D 1_555 1_555
H5D C8D 1_555 1_555
C9D N2D 1_555 1_555
H6D C9D 1_555 1_555
C10D C7D 1_555 1_555
H7D C10D 1_555 1_555
Zn1D N1D 1_555 1_555
Zn1F O2F 1_555 1_555
O2A Zn1 1_555 1_555
N1A Zn1 1_555 1_555
C8 C10 1_555 1_555
C3F C6F 1_555 1_555
C2D C9D 1_555 1_555
C8D C10D 1_555 1_555

#END
