
#######################################################################
#
#                 Cambridge Crystallographic Data Centre
#                                CCDC 
#
#######################################################################
#
# If this CIF has been generated from an entry in the Cambridge 
# Structural Database, then it will include bibliographic, chemical, 
# crystal, experimental, refinement or atomic coordinate data resulting 
# from the CCDC's data processing and validation procedures.
#
#######################################################################

data_QOMVEV
_symmetry_cell_setting           triclinic
_symmetry_space_group_name_H-M   'P -1'
_symmetry_Int_Tables_number      2
_space_group_name_Hall           '-P 1'
loop_
_symmetry_equiv_pos_site_id
_symmetry_equiv_pos_as_xyz
1 x,y,z
2 -x,-y,-z
_cell_length_a                   10.088(5)
_cell_length_b                   12.001(5)
_cell_length_c                   12.044(5)
_cell_angle_alpha                84.583(5)
_cell_angle_beta                 67.262(5)
_cell_angle_gamma                82.802(5)
_cell_volume                     1332.51
loop_
_atom_site_label
_atom_site_type_symbol
_atom_site_fract_x
_atom_site_fract_y
_atom_site_fract_z
C1 C 0.4496(3) 0.1163(2) 0.3274(2)
H1 H 0.3693 0.1677 0.3374
C2 C 0.4440(3) 0.0074(2) 0.3058(3)
H2 H 0.3611 -0.0142 0.3008
C3 C 0.5615(3) -0.0701(2) 0.2914(2)
H3 H 0.5588 -0.1441 0.2760
C4 C 0.6830(2) -0.03700(17) 0.29988(19)
C5 C 0.6803(2) 0.07581(17) 0.3196(2)
H4 H 0.7630 0.1001 0.3224
C6 C 0.8131(3) -0.11526(18) 0.2895(2)
C7 C 0.8374(3) -0.2235(2) 0.2292(3)
H5 H 0.9250 -0.2647 0.2300
H6 H 0.8451 -0.2080 0.1474
H7 H 0.7577 -0.2674 0.2715
C8 C 1.0485(2) -0.17752(16) 0.4169(2)
C9 C 0.9510(3) -0.1443(2) 0.5407(2)
H8 H 0.8645 -0.1028 0.5377
H9 H 0.9992 -0.0981 0.5712
H10 H 0.9265 -0.2105 0.5928
C10 C 1.1896(2) -0.24317(16) 0.39947(19)
C11 C 1.2420(2) -0.25299(17) 0.4903(2)
H11 H 1.1855 -0.2189 0.5620
N1 N 1.36891(19) -0.30839(14) 0.48220(16)
C12 C 1.4465(2) -0.36110(17) 0.38082(19)
H12 H 1.5342 -0.4012 0.3740
C13 C 1.2726(3) -0.29865(18) 0.2951(2)
H13 H 1.2414 -0.2956 0.2316
C14 C 0.2917(2) 0.39340(18) 0.3976(2)
C15 C 0.1407(2) 0.44817(16) 0.45191(19)
C16 C 0.0844(2) 0.48361(17) 0.5682(2)
H14 H 0.1406 0.4730 0.6147
C17 C -0.0548(2) 0.53475(18) 0.6160(2)
H15 H -0.0916 0.5581 0.6946
N2 N 0.56696(19) 0.15108(14) 0.33463(16)
N3 N 0.8940(2) -0.08419(15) 0.33765(17)
N4 N 1.0216(2) -0.15358(15) 0.32198(18)
C18 C 1.4018(3) -0.35826(19) 0.2867(2)
H16 H 1.4582 -0.3963 0.2176
O1 O 0.36260(16) 0.37414(13) 0.46670(15)
O2 O 0.34251(18) 0.36834(15) 0.29152(16)
Zn1 Zn 0.56219(3) 0.315153(19) 0.37537(2)
O3 O 0.67370(16) 0.42124(13) 0.25149(14)
O4 O 0.85164(18) 0.28905(13) 0.24265(14)
C19 C 0.9061(2) 0.44343(17) 0.10054(19)
C20 C 0.8057(3) 0.37918(19) 0.2061(2)
C21 C 0.8555(2) 0.53811(19) 0.0476(2)
H17 H 0.7580 0.5640 0.0794
C22 C 0.9484(3) 0.59387(19) -0.0514(2)
H18 H 0.9132 0.6574 -0.0858
C14A C -0.2917(2) 0.60660(18) 0.6024(2)
C15A C -0.1407(2) 0.55183(16) 0.54809(19)
C16A C -0.0844(2) 0.51639(17) 0.4318(2)
H14A H -0.1406 0.5270 0.3853
C17A C 0.0548(2) 0.46525(18) 0.3840(2)
H15A H 0.0916 0.4419 0.3054
O1A O -0.36260(16) 0.62586(13) 0.53330(15)
O2A O -0.34251(18) 0.63166(15) 0.70848(16)
O3A O 1.32630(16) 0.57876(13) -0.25149(14)
O4A O 1.14836(18) 0.71095(13) -0.24265(14)
C19A C 1.0939(2) 0.55657(17) -0.10054(19)
C20A C 1.1943(3) 0.62082(19) -0.2061(2)
C21A C 1.1445(2) 0.46189(19) -0.0476(2)
H17A H 1.2420 0.4360 -0.0794
C22A C 1.0516(3) 0.40613(19) 0.0514(2)
H18A H 1.0868 0.3426 0.0858
C1A C -0.4496(3) 0.8837(2) 0.6726(2)
H1A H -0.3693 0.8323 0.6626
C2A C -0.4440(3) 0.9926(2) 0.6942(3)
H2A H -0.3611 1.0142 0.6992
C3A C -0.5615(3) 1.0701(2) 0.7086(2)
H3A H -0.5588 1.1441 0.7240
C4A C -0.6830(2) 1.03700(17) 0.70012(19)
C5A C -0.6803(2) 0.92419(17) 0.6804(2)
H4A H -0.7630 0.8999 0.6776
C6A C -0.8131(3) 1.11526(18) 0.7105(2)
C7A C -0.8374(3) 1.2235(2) 0.7708(3)
H5A H -0.9250 1.2647 0.7700
H6A H -0.8451 1.2080 0.8526
H7A H -0.7577 1.2674 0.7285
C8A C -1.0485(2) 1.17752(16) 0.5831(2)
C9A C -0.9510(3) 1.1443(2) 0.4593(2)
H8A H -0.8645 1.1028 0.4623
H9A H -0.9992 1.0981 0.4288
H10A H -0.9265 1.2105 0.4072
C10A C -1.1896(2) 1.24317(16) 0.60053(19)
C11A C -1.2420(2) 1.25299(17) 0.5097(2)
H11A H -1.1855 1.2189 0.4380
N1A N -1.36891(19) 1.30839(14) 0.51780(16)
C12A C -1.4465(2) 1.36110(17) 0.61918(19)
H12A H -1.5342 1.4012 0.6260
C13A C -1.2726(3) 1.29865(18) 0.7049(2)
H13A H -1.2414 1.2956 0.7684
N2A N -0.56696(19) 0.84892(14) 0.66537(16)
N3A N -0.8940(2) 1.08419(15) 0.66235(17)
N4A N -1.0216(2) 1.15358(15) 0.67802(18)
C18A C -1.4018(3) 1.35826(19) 0.7133(2)
H16A H -1.4582 1.3963 0.7824
Zn1A Zn -0.56219(3) 0.684847(19) 0.62463(2)
N1_2 N -0.63109(19) 0.69161(14) 0.48220(16)
N1A_2 N 0.63109(19) 0.30839(14) 0.51780(16)
Zn1_2 Zn -1.43781(3) 1.315153(19) 0.37537(2)
Zn1A_2 Zn 1.43781(3) -0.315153(19) 0.62463(2)
Zn1A_3 Zn 1.43781(3) 0.684847(19) -0.37537(2)
O3A_2 O -0.67370(16) 0.57876(13) 0.74851(14)
C23 C 0.4974(3) 0.2672(3) 0.0186(3)
H19 H 0.4164 0.3190 0.0350
C24 C 0.6099(4) 0.2933(3) 0.0442(3)
H20 H 0.6061 0.3624 0.0750
C25 C 0.7295(3) 0.2163(2) 0.0240(2)
H21 H 0.8073 0.2332 0.0405
C26 C 0.7324(3) 0.1139(2) -0.0210(2)
C27 C 0.6148(3) 0.0979(2) -0.0467(3)
H22 H 0.6168 0.0303 -0.0795
C28 C 0.8543(3) 0.0255(2) -0.0391(2)
C29 C 0.8645(3) -0.0748(2) -0.1077(3)
H23 H 0.9484 -0.1242 -0.1111
H24 H 0.8721 -0.0508 -0.1881
H25 H 0.7797 -0.1138 -0.0681
N5 N 0.4976(3) 0.1713(2) -0.0286(2)
N6 N 0.9436(3) 0.04274(18) 0.0086(2)
C23A C 1.5026(3) -0.2672(3) -0.0186(3)
H19A H 1.5836 -0.3190 -0.0350
C24A C 1.3901(4) -0.2933(3) -0.0442(3)
H20A H 1.3939 -0.3624 -0.0750
C25A C 1.2705(3) -0.2163(2) -0.0240(2)
H21A H 1.1927 -0.2332 -0.0405
C26A C 1.2676(3) -0.1139(2) 0.0210(2)
C27A C 1.3852(3) -0.0979(2) 0.0467(3)
H22A H 1.3832 -0.0303 0.0795
C28A C 1.1457(3) -0.0255(2) 0.0391(2)
C29A C 1.1355(3) 0.0748(2) 0.1077(3)
H23A H 1.0516 0.1242 0.1111
H24A H 1.1279 0.0508 0.1881
H25A H 1.2203 0.1138 0.0681
N5A N 1.5024(3) -0.1713(2) 0.0286(2)
N6A N 1.0564(3) -0.04274(18) -0.0086(2)
loop_
_geom_bond_atom_site_label_1
_geom_bond_atom_site_label_2
_geom_bond_site_symmetry_1
_geom_bond_site_symmetry_2
C1 H1 1_555 1_555
C2 C1 1_555 1_555
H2 C2 1_555 1_555
C3 C2 1_555 1_555
H3 C3 1_555 1_555
C4 C3 1_555 1_555
C5 C4 1_555 1_555
H4 C5 1_555 1_555
C6 C4 1_555 1_555
C7 C6 1_555 1_555
H5 C7 1_555 1_555
H6 C7 1_555 1_555
H7 C7 1_555 1_555
C8 C9 1_555 1_555
C9 H8 1_555 1_555
H9 C9 1_555 1_555
H10 C9 1_555 1_555
C10 C8 1_555 1_555
C11 C10 1_555 1_555
H11 C11 1_555 1_555
N1 C11 1_555 1_555
C12 N1 1_555 1_555
H12 C12 1_555 1_555
C13 C10 1_555 1_555
H13 C13 1_555 1_555
C14 C15 1_555 1_555
C15 C16 1_555 1_555
C16 H14 1_555 1_555
C17 C16 1_555 1_555
H15 C17 1_555 1_555
N2 C1 1_555 1_555
N3 C6 1_555 1_555
N4 C8 1_555 1_555
C18 C12 1_555 1_555
H16 C18 1_555 1_555
O1 C14 1_555 1_555
O2 C14 1_555 1_555
Zn1 N2 1_555 1_555
O3 Zn1 1_555 1_555
O4 C20 1_555 1_555
C19 C20 1_555 1_555
C20 O3 1_555 1_555
C21 C19 1_555 1_555
H17 C21 1_555 1_555
C22 C21 1_555 1_555
H18 C22 1_555 1_555
C23 H19 1_555 1_555
C24 C23 1_555 1_555
H20 C24 1_555 1_555
C25 C24 1_555 1_555
H21 C25 1_555 1_555
C26 C25 1_555 1_555
C27 C26 1_555 1_555
H22 C27 1_555 1_555
C28 C26 1_555 1_555
C29 C28 1_555 1_555
H23 C29 1_555 1_555
H24 C29 1_555 1_555
H25 C29 1_555 1_555
N5 C23 1_555 1_555
N6 C28 1_555 1_555
C14A C15A 1_555 1_555
C15A C17 1_555 1_555
C16A C15A 1_555 1_555
H14A C16A 1_555 1_555
C17A C15 1_555 1_555
H15A C17A 1_555 1_555
O1A C14A 1_555 1_555
O2A C14A 1_555 1_555
O3A C20A 1_555 1_555
O4A C20A 1_555 1_555
C19A C22 1_555 1_555
C20A C19A 1_555 1_555
C21A C19A 1_555 1_555
H17A C21A 1_555 1_555
C22A C19 1_555 1_555
H18A C22A 1_555 1_555
C1A H1A 1_555 1_555
C2A C1A 1_555 1_555
H2A C2A 1_555 1_555
C3A C2A 1_555 1_555
H3A C3A 1_555 1_555
C4A C3A 1_555 1_555
C5A C4A 1_555 1_555
H4A C5A 1_555 1_555
C6A C4A 1_555 1_555
C7A C6A 1_555 1_555
H5A C7A 1_555 1_555
H6A C7A 1_555 1_555
H7A C7A 1_555 1_555
C8A C9A 1_555 1_555
C9A H8A 1_555 1_555
H9A C9A 1_555 1_555
H10A C9A 1_555 1_555
C10A C8A 1_555 1_555
C11A C10A 1_555 1_555
H11A C11A 1_555 1_555
N1A C11A 1_555 1_555
C12A N1A 1_555 1_555
H12A C12A 1_555 1_555
C13A C10A 1_555 1_555
H13A C13A 1_555 1_555
N2A C1A 1_555 1_555
N3A C6A 1_555 1_555
N4A C8A 1_555 1_555
C18A C12A 1_555 1_555
H16A C18A 1_555 1_555
Zn1A O1A 1_555 1_555
N1_2 Zn1A 1_555 1_555
N1A_2 Zn1 1_555 1_555
Zn1_2 N1A 1_555 1_555
Zn1A_2 N1 1_555 1_555
Zn1A_3 O3A 1_555 1_555
O3A_2 Zn1A 1_555 1_555
C23A H19A 1_555 1_555
C24A C23A 1_555 1_555
H20A C24A 1_555 1_555
C25A C24A 1_555 1_555
H21A C25A 1_555 1_555
C26A C25A 1_555 1_555
C27A C26A 1_555 1_555
H22A C27A 1_555 1_555
C28A C26A 1_555 1_555
C29A C28A 1_555 1_555
H23A C29A 1_555 1_555
H24A C29A 1_555 1_555
H25A C29A 1_555 1_555
N5A C23A 1_555 1_555
N6A N6 1_555 1_555
C5 N2 1_555 1_555
C13 C18 1_555 1_555
N3 N4 1_555 1_555
O1 Zn1 1_555 1_555
C27 N5 1_555 1_555
C16A C17A 1_555 1_555
C21A C22A 1_555 1_555
C5A N2A 1_555 1_555
C13A C18A 1_555 1_555
N2A Zn1A 1_555 1_555
N3A N4A 1_555 1_555
C27A N5A 1_555 1_555
C28A N6A 1_555 1_555

#END
