
#######################################################################
#
#                 Cambridge Crystallographic Data Centre
#                                CCDC 
#
#######################################################################
#
# If this CIF has been generated from an entry in the Cambridge 
# Structural Database, then it will include bibliographic, chemical, 
# crystal, experimental, refinement or atomic coordinate data resulting 
# from the CCDC's data processing and validation procedures.
#
#######################################################################

data_QONKOU
_symmetry_cell_setting           monoclinic
_symmetry_space_group_name_H-M   'P 21'
_symmetry_Int_Tables_number      4
_space_group_name_Hall           'P 2yb'
loop_
_symmetry_equiv_pos_site_id
_symmetry_equiv_pos_as_xyz
1 x,y,z
2 -x,1/2+y,-z
_cell_length_a                   13.8348(5)
_cell_length_b                   39.310(2)
_cell_length_c                   15.3517(8)
_cell_angle_alpha                90
_cell_angle_beta                 93.328(2)
_cell_angle_gamma                90
_cell_volume                     8334.88
loop_
_atom_site_label
_atom_site_type_symbol
_atom_site_fract_x
_atom_site_fract_y
_atom_site_fract_z
Zn1 Zn 0.90046(6) 0.18117(3) 0.36019(7)
Zn2 Zn 0.70569(7) -0.01276(3) 0.29333(7)
Zn3 Zn 0.70219(6) 0.19316(2) 0.79384(7)
Zn4 Zn 0.89560(7) -0.00099(3) 0.85706(7)
O1 O 0.8559(4) 0.22190(16) 0.2950(4)
O2 O 1.0323(3) 0.19803(15) 0.3763(3)
O3 O 0.5732(4) -0.02944(16) 0.2776(4)
O4 O 0.7519(4) -0.05394(18) 0.3549(4)
O5 O 0.5684(4) 0.20955(16) 0.7753(4)
O6 O 0.7512(4) 0.23425(16) 0.8532(3)
O7 O 0.8552(4) -0.04137(16) 0.7888(4)
O8 O 1.0273(4) -0.01757(15) 0.8872(3)
N1 N 0.7650(4) 0.19080(18) 0.6725(4)
H1 H 0.8077 0.2087 0.6716
H2 H 0.8018 0.1713 0.6735
N2 N 0.8414(4) 0.19533(18) 0.4812(4)
H3 H 0.8909 0.1950 0.5239
H4 H 0.8202 0.2175 0.4762
N3 N 0.7457(4) -0.01200(19) 0.1603(4)
H5 H 0.7159 -0.0301 0.1320
H6 H 0.7206 0.0075 0.1347
N4 N 0.8413(5) -0.0143(2) -0.0219(5)
H7 H 0.7749 -0.0128 -0.0280
H8 H 0.8561 -0.0368 -0.0120
N5 N 0.7824(4) 0.15484(18) 0.3012(4)
N6 N 0.9516(5) 0.1313(2) 0.3601(4)
N7 N 0.6505(5) 0.0373(2) 0.2914(4)
N8 N 0.8195(5) 0.0144(2) 0.3519(5)
N9 N 0.6498(5) 0.1433(2) 0.7892(4)
N10 N 0.8210(4) 0.16634(18) 0.8546(4)
N11 N 0.7792(5) 0.0249(2) 0.7951(5)
N12 N 0.9500(5) 0.04776(19) 0.8627(4)
C1 C 0.7101(4) 0.19114(15) 0.5874(4)
H9 H 0.6489 0.1781 0.5942
C2 C 0.6810(4) 0.22849(16) 0.5635(4)
C3 C 0.7141(5) 0.25643(17) 0.6097(5)
H10 H 0.7540 0.2533 0.6615
C4 C 0.6902(5) 0.28965(19) 0.5821(5)
H11 H 0.7154 0.3086 0.6147
C5 C 0.6308(5) 0.29501(19) 0.5084(5)
H12 H 0.6139 0.3174 0.4902
C6 C 0.5965(5) 0.26745(18) 0.4617(5)
H13 H 0.5563 0.2710 0.4103
C7 C 0.6193(5) 0.23422(17) 0.4879(4)
H14 H 0.5934 0.2155 0.4551
C8 C 0.7619(4) 0.17481(16) 0.5115(4)
H15 H 0.7127 0.1731 0.4614
C9 C 0.7915(6) 0.13879(18) 0.5351(5)
C10 C 0.7224(5) 0.1123(2) 0.5289(5)
H16 H 0.6573 0.1172 0.5096
C11 C 0.7487(6) 0.0798(2) 0.5504(5)
H17 H 0.7037 0.0618 0.5394
C12 C 0.8374(6) 0.0726(2) 0.5871(5)
H18 H 0.8530 0.0500 0.6046
C13 C 0.9071(6) 0.0988(2) 0.5993(5)
H19 H 0.9694 0.0940 0.6256
C14 C 0.8836(5) 0.13118(19) 0.5726(5)
H20 H 0.9305 0.1487 0.5797
C15 C 0.8464(5) -0.0134(2) 0.1446(5)
H21 H 0.8806 0.0002 0.1922
C16 C 0.8878(5) -0.04840(19) 0.1509(5)
C17 C 0.9809(5) -0.0537(2) 0.1860(5)
H22 H 1.0214 -0.0348 0.2015
C18 C 1.0144(6) -0.0861(2) 0.1983(6)
H23 H 1.0744 -0.0895 0.2305
C19 C 0.9660(6) -0.1133(2) 0.1667(5)
H24 H 0.9935 -0.1354 0.1729
C20 C 0.8747(6) -0.1090(2) 0.1245(6)
H25 H 0.8414 -0.1280 0.0990
C21 C 0.8319(6) -0.0765(2) 0.1199(6)
H26 H 0.7673 -0.0735 0.0967
C22 C 0.8719(5) 0.00407(18) 0.0552(5)
H27 H 0.9440 0.0057 0.0559
C23 C 0.8331(7) 0.0409(2) 0.0547(6)
C24 C 0.7430(6) 0.0507(2) 0.0206(5)
H28 H 0.7013 0.0341 -0.0066
C25 C 0.7126(6) 0.0829(2) 0.0247(5)
H29 H 0.6511 0.0891 -0.0013
C26 C 0.7691(6) 0.1069(2) 0.0656(5)
H30 H 0.7450 0.1294 0.0707
C27 C 0.8609(5) 0.0993(2) 0.1002(5)
H31 H 0.9017 0.1169 0.1239
C28 C 0.8930(6) 0.0663(2) 0.1000(5)
H32 H 0.9531 0.0602 0.1289
C29 C 0.7236(6) 0.0623(2) 0.3089(5)
C30 C 0.5603(5) 0.0454(2) 0.2735(5)
H33 H 0.5461 0.0689 0.2677
C31 C 0.4807(5) 0.0226(2) 0.2619(6)
C32 C 0.4905(5) -0.01350(19) 0.2589(5)
C33 C 0.4013(5) -0.03339(18) 0.2469(6)
C34 C 0.4099(5) -0.0729(2) 0.2464(5)
C35 C 0.4758(5) -0.0845(2) 0.1732(5)
H34 H 0.4546 -0.0734 0.1182
H35 H 0.4713 -0.1092 0.1661
H36 H 0.5430 -0.0781 0.1891
C36 C 0.4495(6) -0.0861(3) 0.3344(5)
H37 H 0.4462 -0.1110 0.3348
H38 H 0.4109 -0.0769 0.3805
H39 H 0.5170 -0.0788 0.3445
C37 C 0.3106(5) -0.0891(2) 0.2269(5)
H40 H 0.2894 -0.0849 0.1659
H41 H 0.2638 -0.0791 0.2651
H42 H 0.3149 -0.1137 0.2374
C38 C 0.3159(5) -0.0172(2) 0.2315(5)
H43 H 0.2597 -0.0307 0.2199
C39 C 0.3048(5) 0.0184(2) 0.2315(6)
C40 C 0.2040(5) 0.0344(2) 0.2131(5)
C41 C 0.1581(6) 0.0189(2) 0.1286(5)
H44 H 0.2012 0.0224 0.0809
H45 H 0.0957 0.0298 0.1140
H46 H 0.1481 -0.0056 0.1369
C42 C 0.2079(6) 0.0727(2) 0.1988(6)
H47 H 0.2459 0.0776 0.1484
H48 H 0.2382 0.0837 0.2508
H49 H 0.1420 0.0815 0.1880
C43 C 0.1402(6) 0.0267(2) 0.2899(5)
H50 H 0.0757 0.0365 0.2778
H51 H 0.1698 0.0368 0.3435
H52 H 0.1347 0.0021 0.2973
C44 C 0.3885(5) 0.0375(2) 0.2439(6)
H53 H 0.3839 0.0615 0.2402
C45 C 0.8180(6) 0.0493(2) 0.3412(5)
C46 C 0.8996(5) -0.0003(2) 0.3864(5)
H54 H 0.9529 0.0142 0.4018
C47 C 0.9124(5) -0.03616(19) 0.4023(5)
C48 C 0.8395(5) -0.06120(18) 0.3854(5)
C49 C 0.8593(5) -0.09602(18) 0.4111(5)
C50 C 0.7793(5) -0.12282(19) 0.4086(5)
C51 C 0.6964(5) -0.1123(3) 0.4680(5)
H55 H 0.7238 -0.1075 0.5270
H56 H 0.6494 -0.1309 0.4702
H57 H 0.6640 -0.0919 0.4440
C52 C 0.7351(7) -0.1275(3) 0.3154(5)
H58 H 0.6829 -0.1444 0.3155
H59 H 0.7851 -0.1354 0.2776
H60 H 0.7089 -0.1058 0.2935
C53 C 0.8151(6) -0.1574(2) 0.4411(6)
H61 H 0.8385 -0.1556 0.5025
H62 H 0.8681 -0.1650 0.4061
H63 H 0.7619 -0.1739 0.4358
C54 C 0.9529(5) -0.1032(2) 0.4421(5)
H64 H 0.9661 -0.1259 0.4605
C55 C 1.0292(5) -0.08028(19) 0.4489(5)
C56 C 1.1316(5) -0.09164(19) 0.4827(5)
C57 C 1.1640(6) -0.1224(2) 0.4290(5)
H65 H 1.2315 -0.1280 0.4460
H66 H 1.1583 -0.1168 0.3667
H67 H 1.1227 -0.1420 0.4401
C58 C 1.1312(6) -0.1025(2) 0.5769(5)
H68 H 1.0840 -0.1209 0.5826
H69 H 1.1136 -0.0831 0.6128
H70 H 1.1958 -0.1107 0.5965
C59 C 1.2053(5) -0.0632(2) 0.4744(6)
H71 H 1.2693 -0.0710 0.4964
H72 H 1.1861 -0.0434 0.5084
H73 H 1.2079 -0.0567 0.4129
C60 C 1.0070(5) -0.0465(2) 0.4329(5)
H74 H 1.0560 -0.0297 0.4426
C61 C 0.8907(6) 0.0715(2) 0.3584(5)
H75 H 0.9513 0.0631 0.3813
C62 C 0.7122(5) 0.0976(2) 0.2935(5)
H76 H 0.6510 0.1062 0.2726
C63 C 0.7900(6) 0.1201(2) 0.3086(5)
C64 C 0.7042(5) 0.1704(2) 0.2664(6)
H77 H 0.6524 0.1562 0.2453
C65 C 0.6898(5) 0.20599(18) 0.2573(6)
C66 C 0.7668(5) 0.23057(18) 0.2710(5)
C67 C 0.7429(4) 0.26589(17) 0.2587(5)
C68 C 0.8233(5) 0.29272(18) 0.2713(5)
C69 C 0.8645(5) 0.2922(2) 0.3666(4)
H78 H 0.9117 0.3107 0.3757
H79 H 0.8964 0.2704 0.3790
H80 H 0.8117 0.2953 0.4058
C70 C 0.7819(6) 0.3289(2) 0.2537(6)
H81 H 0.7268 0.3327 0.2898
H82 H 0.7605 0.3310 0.1919
H83 H 0.8322 0.3458 0.2682
C71 C 0.9037(5) 0.2872(2) 0.2096(5)
H84 H 0.9530 0.3049 0.2192
H85 H 0.8768 0.2883 0.1492
H86 H 0.9331 0.2648 0.2206
C72 C 0.6509(4) 0.27404(19) 0.2311(5)
H87 H 0.6368 0.2974 0.2216
C73 C 0.5743(5) 0.25076(19) 0.2154(5)
C74 C 0.4724(5) 0.2628(2) 0.1837(5)
C75 C 0.4743(6) 0.2780(3) 0.0904(5)
H88 H 0.5211 0.2967 0.0906
H89 H 0.4098 0.2866 0.0721
H90 H 0.4931 0.2603 0.0497
C76 C 0.4381(6) 0.2914(2) 0.2410(5)
H91 H 0.4370 0.2834 0.3014
H92 H 0.3729 0.2984 0.2202
H93 H 0.4825 0.3107 0.2383
C77 C 0.3962(5) 0.2349(2) 0.1854(6)
H94 H 0.4097 0.2174 0.1422
H95 H 0.3321 0.2447 0.1715
H96 H 0.3979 0.2246 0.2436
C78 C 0.5955(5) 0.21690(19) 0.2288(5)
H97 H 0.5458 0.2004 0.2187
C79 C 0.8799(6) 0.1075(2) 0.3432(5)
C80 C 1.0430(5) 0.1240(2) 0.3760(5)
H98 H 1.0587 0.1005 0.3747
C81 C 1.1217(5) 0.14617(19) 0.3950(5)
C82 C 1.1142(5) 0.18221(18) 0.3946(5)
C83 C 1.2026(5) 0.20179(18) 0.4135(5)
C84 C 1.1950(5) 0.24075(19) 0.4184(5)
C85 C 1.1297(5) 0.2506(3) 0.4924(5)
H99 H 1.1211 0.2753 0.4930
H100 H 1.1600 0.2431 0.5485
H101 H 1.0665 0.2395 0.4827
C86 C 1.1577(5) 0.2561(2) 0.3321(4)
H102 H 1.0921 0.2477 0.3172
H103 H 1.2004 0.2495 0.2862
H104 H 1.1564 0.2809 0.3371
C87 C 1.2955(5) 0.2563(2) 0.4415(6)
H105 H 1.3421 0.2474 0.4015
H106 H 1.3164 0.2502 0.5016
H107 H 1.2918 0.2811 0.4361
C88 C 1.2878(5) 0.18457(19) 0.4255(5)
H108 H 1.3451 0.1977 0.4352
C89 C 1.2981(4) 0.14878(18) 0.4248(5)
C90 C 1.4004(5) 0.1329(2) 0.4388(5)
C91 C 1.4460(6) 0.1457(2) 0.5270(5)
H109 H 1.4028 0.1404 0.5735
H110 H 1.4555 0.1704 0.5242
H111 H 1.5086 0.1345 0.5392
C92 C 1.4642(6) 0.1430(3) 0.3659(5)
H112 H 1.5309 0.1358 0.3806
H113 H 1.4625 0.1678 0.3586
H114 H 1.4404 0.1321 0.3114
C93 C 1.3957(6) 0.0943(2) 0.4447(6)
H115 H 1.4608 0.0852 0.4585
H116 H 1.3703 0.0850 0.3887
H117 H 1.3531 0.0878 0.4907
C94 C 1.2155(5) 0.1303(2) 0.4075(5)
H118 H 1.2200 0.1063 0.4036
C95 C 0.7239(6) 0.1187(2) 0.8032(5)
C96 C 0.5591(6) 0.1348(2) 0.7763(6)
H119 H 0.5438 0.1113 0.7784
C97 C 0.4805(5) 0.15809(19) 0.7592(5)
C98 C 0.4863(5) 0.1944(2) 0.7656(5)
C99 C 0.4012(5) 0.21386(17) 0.7486(5)
C100 C 0.4027(5) 0.25291(18) 0.7526(5)
C101 C 0.4678(5) 0.2670(2) 0.6843(5)
H120 H 0.4619 0.2919 0.6823
H121 H 0.4482 0.2575 0.6270
H122 H 0.5352 0.2608 0.6999
C102 C 0.3002(5) 0.2686(3) 0.7371(6)
H123 H 0.2614 0.2633 0.7867
H124 H 0.2688 0.2590 0.6837
H125 H 0.3057 0.2933 0.7310
C103 C 0.4425(6) 0.2650(2) 0.8440(5)
H126 H 0.4491 0.2899 0.8439
H127 H 0.5059 0.2546 0.8578
H128 H 0.3976 0.2583 0.8879
C104 C 0.3143(5) 0.1963(2) 0.7348(5)
H129 H 0.2569 0.2094 0.7267
C105 C 0.3043(5) 0.16021(19) 0.7318(6)
C106 C 0.2044(5) 0.1443(2) 0.7143(5)
C107 C 0.1397(6) 0.1523(3) 0.7902(6)
H130 H 0.0752 0.1426 0.7776
H131 H 0.1344 0.1770 0.7969
H132 H 0.1686 0.1424 0.8442
C108 C 0.1561(6) 0.1589(2) 0.6317(5)
H133 H 0.0932 0.1479 0.6197
H134 H 0.1972 0.1550 0.5829
H135 H 0.1465 0.1834 0.6392
C109 C 0.2092(6) 0.1055(2) 0.7051(6)
H136 H 0.2383 0.0957 0.7591
H137 H 0.2486 0.0996 0.6563
H138 H 0.1436 0.0964 0.6941
C110 C 0.3880(5) 0.1424(2) 0.7463(5)
H139 H 0.3846 0.1183 0.7478
C111 C 0.8115(5) 0.1304(2) 0.8400(5)
C112 C 0.8969(6) 0.1812(2) 0.8854(6)
H140 H 0.9507 0.1668 0.9001
C113 C 0.9117(5) 0.2163(2) 0.9008(6)
C114 C 0.8362(5) 0.24106(18) 0.8924(5)
C115 C 0.8584(4) 0.27529(17) 0.9218(5)
C116 C 0.7772(5) 0.3020(2) 0.9161(5)
C117 C 0.6948(5) 0.2903(3) 0.9710(6)
H141 H 0.6754 0.2672 0.9540
H142 H 0.6395 0.3057 0.9614
H143 H 0.7167 0.2906 1.0329
C118 C 0.8153(5) 0.3368(2) 0.9517(5)
H144 H 0.8364 0.3344 1.0134
H145 H 0.7635 0.3537 0.9455
H146 H 0.8701 0.3441 0.9185
C119 C 0.7394(6) 0.3085(3) 0.8210(5)
H147 H 0.7940 0.3137 0.7854
H148 H 0.6944 0.3277 0.8193
H149 H 0.7059 0.2881 0.7979
C120 C 0.9521(4) 0.2824(2) 0.9528(5)
H150 H 0.9662 0.3050 0.9710
C121 C 1.0289(4) 0.25824(18) 0.9596(5)
C122 C 1.1302(5) 0.26871(19) 0.9971(4)
C123 C 1.2051(5) 0.2410(2) 0.9829(6)
H151 H 1.1891 0.2206 1.0158
H152 H 1.2695 0.2492 1.0031
H153 H 1.2048 0.2355 0.9206
C124 C 1.1258(5) 0.2756(2) 1.0942(4)
H154 H 1.1003 0.2555 1.1229
H155 H 1.0833 0.2951 1.1030
H156 H 1.1910 0.2807 1.1192
C125 C 1.1626(5) 0.30130(19) 0.9514(5)
H157 H 1.2275 0.3077 0.9747
H158 H 1.1171 0.3198 0.9618
H159 H 1.1639 0.2972 0.8885
C126 C 1.0056(5) 0.2257(2) 0.9335(5)
H160 H 1.0546 0.2088 0.9376
C127 C 0.8875(6) 0.1069(2) 0.8615(5)
H161 H 0.9469 0.1148 0.8881
C128 C 0.7141(6) 0.0853(2) 0.7857(6)
H162 H 0.6562 0.0777 0.7556
C129 C 0.7841(5) 0.0615(2) 0.8094(5)
C130 C 0.7022(6) 0.0100(2) 0.7662(6)
H163 H 0.6474 0.0239 0.7518
C131 C 0.6908(5) -0.02635(19) 0.7534(6)
C132 C 0.7672(5) -0.05046(19) 0.7655(6)
C133 C 0.7456(5) -0.08564(18) 0.7460(5)
C134 C 0.8260(5) -0.1127(2) 0.7598(5)
C135 C 0.9081(5) -0.1051(2) 0.6971(5)
H164 H 0.8818 -0.1064 0.6365
H165 H 0.9600 -0.1219 0.7065
H166 H 0.9339 -0.0822 0.7088
C136 C 0.7895(6) -0.1485(2) 0.7401(6)
H167 H 0.7459 -0.1556 0.7849
H168 H 0.8445 -0.1642 0.7401
H169 H 0.7545 -0.1489 0.6828
C137 C 0.8717(6) -0.1119(3) 0.8535(5)
H170 H 0.8989 -0.0893 0.8659
H171 H 0.9233 -0.1290 0.8596
H172 H 0.8221 -0.1169 0.8946
C138 C 0.6508(5) -0.0941(2) 0.7201(5)
H173 H 0.6372 -0.1173 0.7070
C139 C 0.5737(5) -0.0710(2) 0.7118(6)
C140 C 0.4703(5) -0.0837(2) 0.6837(6)
C141 C 0.4378(7) -0.1101(3) 0.7518(6)
H174 H 0.3691 -0.1155 0.7400
H175 H 0.4475 -0.1005 0.8106
H176 H 0.4763 -0.1309 0.7477
C142 C 0.4732(7) -0.0994(3) 0.5929(6)
H177 H 0.4849 -0.0816 0.5502
H178 H 0.4111 -0.1105 0.5774
H179 H 0.5253 -0.1163 0.5928
C143 C 0.3978(6) -0.0541(2) 0.6784(6)
H180 H 0.4207 -0.0365 0.6393
H181 H 0.3920 -0.0445 0.7368
H182 H 0.3345 -0.0625 0.6559
C144 C 0.5963(5) -0.0375(2) 0.7282(6)
H183 H 0.5460 -0.0211 0.7224
C145 C 0.8757(6) 0.0737(2) 0.8445(5)
C146 C 1.0400(5) 0.0571(2) 0.8784(5)
H184 H 1.0534 0.0808 0.8808
C147 C 1.1200(5) 0.0341(2) 0.8923(5)
C148 C 1.1099(5) -0.00211(19) 0.8968(5)
C149 C 1.1969(5) -0.02221(18) 0.9120(5)
C150 C 1.1894(5) -0.0611(2) 0.9164(5)
C151 C 1.1497(7) -0.0747(3) 0.8254(5)
H185 H 1.0852 -0.0652 0.8113
H186 H 1.1456 -0.0996 0.8272
H187 H 1.1935 -0.0679 0.7806
C152 C 1.1230(5) -0.0717(2) 0.9874(5)
H188 H 1.1440 -0.0606 1.0425
H189 H 1.1259 -0.0965 0.9949
H190 H 1.0564 -0.0649 0.9706
C153 C 1.2889(5) -0.0773(2) 0.9390(5)
H191 H 1.3330 -0.0717 0.8934
H192 H 1.2818 -0.1020 0.9428
H193 H 1.3152 -0.0684 0.9951
C154 C 1.2828(5) -0.0053(2) 0.9224(6)
H194 H 1.3397 -0.0187 0.9309
C155 C 1.2948(5) 0.0301(2) 0.9217(6)
C156 C 1.3960(5) 0.0457(2) 0.9378(5)
C157 C 1.4470(6) 0.0292(2) 1.0190(5)
H195 H 1.4651 0.0058 1.0054
H196 H 1.4031 0.0291 1.0669
H197 H 1.5053 0.0423 1.0365
C158 C 1.3931(7) 0.0839(2) 0.9504(6)
H198 H 1.4588 0.0932 0.9487
H199 H 1.3672 0.0891 1.0069
H200 H 1.3516 0.0942 0.9036
C159 C 1.4541(6) 0.0387(3) 0.8589(5)
H201 H 1.5196 0.0480 0.8689
H202 H 1.4224 0.0495 0.8073
H203 H 1.4580 0.0141 0.8494
C160 C 1.2123(5) 0.0491(2) 0.9102(5)
H204 H 1.2169 0.0731 0.9143
Zn4_2 Zn 0.89560(7) -0.00099(3) -0.14294(7)
N4_2 N 0.8413(5) -0.0143(2) 0.9781(5)
H7_2 H 0.7749 -0.0128 0.9720
H8_2 H 0.8561 -0.0368 0.9880
loop_
_geom_bond_atom_site_label_1
_geom_bond_atom_site_label_2
_geom_bond_site_symmetry_1
_geom_bond_site_symmetry_2
Zn1 O1 1_555 1_555
Zn2 O3 1_555 1_555
Zn3 O5 1_555 1_555
Zn4 O7 1_555 1_555
O1 C66 1_555 1_555
O2 Zn1 1_555 1_555
O3 C32 1_555 1_555
O4 Zn2 1_555 1_555
O5 C98 1_555 1_555
O6 Zn3 1_555 1_555
O7 C132 1_555 1_555
O8 Zn4 1_555 1_555
N1 Zn3 1_555 1_555
H1 N1 1_555 1_555
H2 N1 1_555 1_555
N2 Zn1 1_555 1_555
H3 N2 1_555 1_555
H4 N2 1_555 1_555
N3 Zn2 1_555 1_555
H5 N3 1_555 1_555
H6 N3 1_555 1_555
N4 H7 1_555 1_555
H8 N4 1_555 1_555
N5 Zn1 1_555 1_555
N6 Zn1 1_555 1_555
N7 Zn2 1_555 1_555
N8 Zn2 1_555 1_555
N9 Zn3 1_555 1_555
N10 Zn3 1_555 1_555
N11 Zn4 1_555 1_555
N12 Zn4 1_555 1_555
C1 N1 1_555 1_555
H9 C1 1_555 1_555
C2 C1 1_555 1_555
C3 C2 1_555 1_555
H10 C3 1_555 1_555
C4 C3 1_555 1_555
H11 C4 1_555 1_555
C5 C4 1_555 1_555
H12 C5 1_555 1_555
C6 C5 1_555 1_555
H13 C6 1_555 1_555
C7 C2 1_555 1_555
H14 C7 1_555 1_555
C8 N2 1_555 1_555
H15 C8 1_555 1_555
C9 C8 1_555 1_555
C10 C9 1_555 1_555
H16 C10 1_555 1_555
C11 C10 1_555 1_555
H17 C11 1_555 1_555
C12 C11 1_555 1_555
H18 C12 1_555 1_555
C13 C12 1_555 1_555
H19 C13 1_555 1_555
C14 C9 1_555 1_555
H20 C14 1_555 1_555
C15 N3 1_555 1_555
H21 C15 1_555 1_555
C16 C15 1_555 1_555
C17 C16 1_555 1_555
H22 C17 1_555 1_555
C18 C17 1_555 1_555
H23 C18 1_555 1_555
C19 C18 1_555 1_555
H24 C19 1_555 1_555
C20 C19 1_555 1_555
H25 C20 1_555 1_555
C21 C16 1_555 1_555
H26 C21 1_555 1_555
C22 N4 1_555 1_555
H27 C22 1_555 1_555
C23 C22 1_555 1_555
C24 C23 1_555 1_555
H28 C24 1_555 1_555
C25 C24 1_555 1_555
H29 C25 1_555 1_555
C26 C25 1_555 1_555
H30 C26 1_555 1_555
C27 C26 1_555 1_555
H31 C27 1_555 1_555
C28 C23 1_555 1_555
H32 C28 1_555 1_555
C29 N7 1_555 1_555
C30 N7 1_555 1_555
H33 C30 1_555 1_555
C31 C30 1_555 1_555
C32 C31 1_555 1_555
C33 C32 1_555 1_555
C34 C33 1_555 1_555
C35 C34 1_555 1_555
H34 C35 1_555 1_555
H35 C35 1_555 1_555
H36 C35 1_555 1_555
C36 C34 1_555 1_555
H37 C36 1_555 1_555
H38 C36 1_555 1_555
H39 C36 1_555 1_555
C37 C34 1_555 1_555
H40 C37 1_555 1_555
H41 C37 1_555 1_555
H42 C37 1_555 1_555
C38 C33 1_555 1_555
H43 C38 1_555 1_555
C39 C38 1_555 1_555
C40 C39 1_555 1_555
C41 C40 1_555 1_555
H44 C41 1_555 1_555
H45 C41 1_555 1_555
H46 C41 1_555 1_555
C42 C40 1_555 1_555
H47 C42 1_555 1_555
H48 C42 1_555 1_555
H49 C42 1_555 1_555
C43 C40 1_555 1_555
H50 C43 1_555 1_555
H51 C43 1_555 1_555
H52 C43 1_555 1_555
C44 C31 1_555 1_555
H53 C44 1_555 1_555
C45 N8 1_555 1_555
C46 N8 1_555 1_555
H54 C46 1_555 1_555
C47 C46 1_555 1_555
C48 O4 1_555 1_555
C49 C48 1_555 1_555
C50 C49 1_555 1_555
C51 C50 1_555 1_555
H55 C51 1_555 1_555
H56 C51 1_555 1_555
H57 C51 1_555 1_555
C52 C50 1_555 1_555
H58 C52 1_555 1_555
H59 C52 1_555 1_555
H60 C52 1_555 1_555
C53 C50 1_555 1_555
H61 C53 1_555 1_555
H62 C53 1_555 1_555
H63 C53 1_555 1_555
C54 C49 1_555 1_555
H64 C54 1_555 1_555
C55 C54 1_555 1_555
C56 C55 1_555 1_555
C57 C56 1_555 1_555
H65 C57 1_555 1_555
H66 C57 1_555 1_555
H67 C57 1_555 1_555
C58 C56 1_555 1_555
H68 C58 1_555 1_555
H69 C58 1_555 1_555
H70 C58 1_555 1_555
C59 C56 1_555 1_555
H71 C59 1_555 1_555
H72 C59 1_555 1_555
H73 C59 1_555 1_555
C60 C47 1_555 1_555
H74 C60 1_555 1_555
C61 C45 1_555 1_555
H75 C61 1_555 1_555
C62 C29 1_555 1_555
H76 C62 1_555 1_555
C63 N5 1_555 1_555
C64 N5 1_555 1_555
H77 C64 1_555 1_555
C65 C64 1_555 1_555
C66 C65 1_555 1_555
C67 C66 1_555 1_555
C68 C67 1_555 1_555
C69 C68 1_555 1_555
H78 C69 1_555 1_555
H79 C69 1_555 1_555
H80 C69 1_555 1_555
C70 C68 1_555 1_555
H81 C70 1_555 1_555
H82 C70 1_555 1_555
H83 C70 1_555 1_555
C71 C68 1_555 1_555
H84 C71 1_555 1_555
H85 C71 1_555 1_555
H86 C71 1_555 1_555
C72 C67 1_555 1_555
H87 C72 1_555 1_555
C73 C72 1_555 1_555
C74 C73 1_555 1_555
C75 C74 1_555 1_555
H88 C75 1_555 1_555
H89 C75 1_555 1_555
H90 C75 1_555 1_555
C76 C74 1_555 1_555
H91 C76 1_555 1_555
H92 C76 1_555 1_555
H93 C76 1_555 1_555
C77 C74 1_555 1_555
H94 C77 1_555 1_555
H95 C77 1_555 1_555
H96 C77 1_555 1_555
C78 C65 1_555 1_555
H97 C78 1_555 1_555
C79 N6 1_555 1_555
C80 N6 1_555 1_555
H98 C80 1_555 1_555
C81 C80 1_555 1_555
C82 O2 1_555 1_555
C83 C82 1_555 1_555
C84 C83 1_555 1_555
C85 C84 1_555 1_555
H99 C85 1_555 1_555
H100 C85 1_555 1_555
H101 C85 1_555 1_555
C86 C84 1_555 1_555
H102 C86 1_555 1_555
H103 C86 1_555 1_555
H104 C86 1_555 1_555
C87 C84 1_555 1_555
H105 C87 1_555 1_555
H106 C87 1_555 1_555
H107 C87 1_555 1_555
C88 C83 1_555 1_555
H108 C88 1_555 1_555
C89 C88 1_555 1_555
C90 C89 1_555 1_555
C91 C90 1_555 1_555
H109 C91 1_555 1_555
H110 C91 1_555 1_555
H111 C91 1_555 1_555
C92 C90 1_555 1_555
H112 C92 1_555 1_555
H113 C92 1_555 1_555
H114 C92 1_555 1_555
C93 C90 1_555 1_555
H115 C93 1_555 1_555
H116 C93 1_555 1_555
H117 C93 1_555 1_555
C94 C81 1_555 1_555
H118 C94 1_555 1_555
C95 N9 1_555 1_555
C96 N9 1_555 1_555
H119 C96 1_555 1_555
C97 C96 1_555 1_555
C98 C97 1_555 1_555
C99 C98 1_555 1_555
C100 C99 1_555 1_555
C101 C100 1_555 1_555
H120 C101 1_555 1_555
H121 C101 1_555 1_555
H122 C101 1_555 1_555
C102 C100 1_555 1_555
H123 C102 1_555 1_555
H124 C102 1_555 1_555
H125 C102 1_555 1_555
C103 C100 1_555 1_555
H126 C103 1_555 1_555
H127 C103 1_555 1_555
H128 C103 1_555 1_555
C104 C99 1_555 1_555
H129 C104 1_555 1_555
C105 C104 1_555 1_555
C106 C105 1_555 1_555
C107 C106 1_555 1_555
H130 C107 1_555 1_555
H131 C107 1_555 1_555
H132 C107 1_555 1_555
C108 C106 1_555 1_555
H133 C108 1_555 1_555
H134 C108 1_555 1_555
H135 C108 1_555 1_555
C109 C106 1_555 1_555
H136 C109 1_555 1_555
H137 C109 1_555 1_555
H138 C109 1_555 1_555
C110 C97 1_555 1_555
H139 C110 1_555 1_555
C111 N10 1_555 1_555
C112 N10 1_555 1_555
H140 C112 1_555 1_555
C113 C112 1_555 1_555
C114 O6 1_555 1_555
C115 C114 1_555 1_555
C116 C115 1_555 1_555
C117 C116 1_555 1_555
H141 C117 1_555 1_555
H142 C117 1_555 1_555
H143 C117 1_555 1_555
C118 C116 1_555 1_555
H144 C118 1_555 1_555
H145 C118 1_555 1_555
H146 C118 1_555 1_555
C119 C116 1_555 1_555
H147 C119 1_555 1_555
H148 C119 1_555 1_555
H149 C119 1_555 1_555
C120 C115 1_555 1_555
H150 C120 1_555 1_555
C121 C120 1_555 1_555
C122 C121 1_555 1_555
C123 C122 1_555 1_555
H151 C123 1_555 1_555
H152 C123 1_555 1_555
H153 C123 1_555 1_555
C124 C122 1_555 1_555
H154 C124 1_555 1_555
H155 C124 1_555 1_555
H156 C124 1_555 1_555
C125 C122 1_555 1_555
H157 C125 1_555 1_555
H158 C125 1_555 1_555
H159 C125 1_555 1_555
C126 C113 1_555 1_555
H160 C126 1_555 1_555
C127 C111 1_555 1_555
H161 C127 1_555 1_555
C128 C95 1_555 1_555
H162 C128 1_555 1_555
C129 N11 1_555 1_555
C130 N11 1_555 1_555
H163 C130 1_555 1_555
C131 C130 1_555 1_555
C132 C131 1_555 1_555
C133 C132 1_555 1_555
C134 C133 1_555 1_555
C135 C134 1_555 1_555
H164 C135 1_555 1_555
H165 C135 1_555 1_555
H166 C135 1_555 1_555
C136 C134 1_555 1_555
H167 C136 1_555 1_555
H168 C136 1_555 1_555
H169 C136 1_555 1_555
C137 C134 1_555 1_555
H170 C137 1_555 1_555
H171 C137 1_555 1_555
H172 C137 1_555 1_555
C138 C133 1_555 1_555
H173 C138 1_555 1_555
C139 C138 1_555 1_555
C140 C139 1_555 1_555
C141 C140 1_555 1_555
H174 C141 1_555 1_555
H175 C141 1_555 1_555
H176 C141 1_555 1_555
C142 C140 1_555 1_555
H177 C142 1_555 1_555
H178 C142 1_555 1_555
H179 C142 1_555 1_555
C143 C140 1_555 1_555
H180 C143 1_555 1_555
H181 C143 1_555 1_555
H182 C143 1_555 1_555
C144 C131 1_555 1_555
H183 C144 1_555 1_555
C145 N12 1_555 1_555
C146 N12 1_555 1_555
H184 C146 1_555 1_555
C147 C146 1_555 1_555
C148 O8 1_555 1_555
C149 C148 1_555 1_555
C150 C149 1_555 1_555
C151 C150 1_555 1_555
H185 C151 1_555 1_555
H186 C151 1_555 1_555
H187 C151 1_555 1_555
C152 C150 1_555 1_555
H188 C152 1_555 1_555
H189 C152 1_555 1_555
H190 C152 1_555 1_555
C153 C150 1_555 1_555
H191 C153 1_555 1_555
H192 C153 1_555 1_555
H193 C153 1_555 1_555
C154 C149 1_555 1_555
H194 C154 1_555 1_555
C155 C154 1_555 1_555
C156 C155 1_555 1_555
C157 C156 1_555 1_555
H195 C157 1_555 1_555
H196 C157 1_555 1_555
H197 C157 1_555 1_555
C158 C156 1_555 1_555
H198 C158 1_555 1_555
H199 C158 1_555 1_555
H200 C158 1_555 1_555
C159 C156 1_555 1_555
H201 C159 1_555 1_555
H202 C159 1_555 1_555
H203 C159 1_555 1_555
C160 C147 1_555 1_555
H204 C160 1_555 1_555
Zn4_2 N4 1_555 1_555
N4_2 Zn4 1_555 1_555
H7_2 N4_2 1_555 1_555
H8_2 N4_2 1_555 1_555
C1 C8 1_555 1_555
C6 C7 1_555 1_555
C13 C14 1_555 1_555
C15 C22 1_555 1_555
C20 C21 1_555 1_555
C27 C28 1_555 1_555
C29 C45 1_555 1_555
C39 C44 1_555 1_555
C47 C48 1_555 1_555
C55 C60 1_555 1_555
C61 C79 1_555 1_555
C62 C63 1_555 1_555
C63 C79 1_555 1_555
C73 C78 1_555 1_555
C81 C82 1_555 1_555
C89 C94 1_555 1_555
C95 C111 1_555 1_555
C105 C110 1_555 1_555
C113 C114 1_555 1_555
C121 C126 1_555 1_555
C127 C145 1_555 1_555
C128 C129 1_555 1_555
C129 C145 1_555 1_555
C139 C144 1_555 1_555
C147 C148 1_555 1_555
C155 C160 1_555 1_555

#END
