
#######################################################################
#
#                 Cambridge Crystallographic Data Centre
#                                CCDC 
#
#######################################################################
#
# If this CIF has been generated from an entry in the Cambridge 
# Structural Database, then it will include bibliographic, chemical, 
# crystal, experimental, refinement or atomic coordinate data resulting 
# from the CCDC's data processing and validation procedures.
#
#######################################################################

data_QONNIS
_symmetry_cell_setting           monoclinic
_symmetry_space_group_name_H-M   'P 21/c'
_symmetry_Int_Tables_number      14
_space_group_name_Hall           '-P 2ybc'
loop_
_symmetry_equiv_pos_site_id
_symmetry_equiv_pos_as_xyz
1 x,y,z
2 -x,1/2+y,1/2-z
3 -x,-y,-z
4 x,1/2-y,1/2+z
_cell_length_a                   17.0374(12)
_cell_length_b                   9.1839(6)
_cell_length_c                   26.2103(18)
_cell_angle_alpha                90
_cell_angle_beta                 95.0770(10)
_cell_angle_gamma                90
_cell_volume                     4085.03
loop_
_atom_site_label
_atom_site_type_symbol
_atom_site_fract_x
_atom_site_fract_y
_atom_site_fract_z
Cd1 Cd -0.309457(9) -1.170840(18) 0.589886(6)
Cd2 Cd -0.283158(9) -0.829630(18) 0.657438(6)
Cd3 Cd -0.210417(9) -0.501607(18) 0.617144(6)
N1 N -0.40167(14) -1.1690(2) 0.51812(8)
O1 O -0.40684(10) -1.12660(19) 0.63834(7)
O2 O -0.39383(10) -0.91253(19) 0.67975(7)
O3 O -0.24175(11) -1.29711(18) 0.66226(6)
O4 O -0.23308(10) -1.05975(18) 0.66467(6)
O5 O -0.30753(10) -0.90796(18) 0.56993(6)
O6 O -0.21544(10) -0.74335(18) 0.58770(6)
O7 O -0.19315(10) -0.75348(19) 0.71639(6)
O8 O -0.12640(10) -0.58093(19) 0.67775(7)
O9 O -0.33169(10) -0.59284(18) 0.64585(6)
O10 O -0.33770(10) -0.43485(18) 0.58206(6)
O11 O -0.14744(10) -0.40279(19) 0.55792(7)
O12 O -0.20910(11) -0.18950(19) 0.54357(7)
C1 C -0.44142(16) -1.1493(3) 0.48168(11)
C2 C -0.4897(2) -1.1192(4) 0.43468(13)
H1 H -0.4849 -1.0160 0.4259
H2 H -0.5448 -1.1418 0.4393
H3 H -0.4719 -1.1793 0.4070
C3 C -0.42916(13) -1.0298(3) 0.66773(9)
C4 C -0.50664(14) -1.0534(3) 0.68984(9)
C5 C -0.54010(15) -0.9423(3) 0.71635(10)
H4 H -0.5131 -0.8523 0.7218
C6 C -0.61285(17) -0.9626(4) 0.73487(12)
H5 H -0.6364 -0.8854 0.7522
C7 C -0.65136(17) -1.0943(4) 0.72836(11)
H6 H -0.7012 -1.1079 0.7413
C8 C -0.61754(17) -1.2060(3) 0.70305(12)
H7 H -0.6436 -1.2973 0.6992
C9 C -0.54553(15) -1.1860(3) 0.68321(11)
H8 H -0.5228 -1.2627 0.6651
C10 C -0.22843(13) -1.1810(3) 0.68702(9)
C11 C -0.21044(13) -1.1902(3) 0.74366(9)
C12 C -0.22120(17) -1.0714(3) 0.77475(10)
H9 H -0.2383 -0.9812 0.7599
C13 C -0.20713(18) -1.0833(3) 0.82727(10)
H10 H -0.2154 -1.0019 0.8485
C14 C -0.18092(18) -1.2137(4) 0.84908(11)
H11 H -0.1708 -1.2216 0.8852
C15 C -0.1696(2) -1.3314(4) 0.81842(11)
H12 H -0.1513 -1.4208 0.8333
C16 C -0.18482(19) -1.3200(3) 0.76601(10)
H13 H -0.1776 -1.4024 0.7450
C17 C -0.25563(13) -0.8222(3) 0.55526(9)
C18 C -0.24249(14) -0.8113(3) 0.50016(9)
C19 C -0.18591(16) -0.7171(3) 0.48410(10)
H14 H -0.1566 -0.6564 0.5081
C20 C -0.17254(18) -0.7125(3) 0.43259(11)
H15 H -0.1337 -0.6486 0.4214
C21 C -0.21508(19) -0.7996(3) 0.39769(11)
H16 H -0.2055 -0.7956 0.3626
C22 C -0.2715(2) -0.8925(4) 0.41342(11)
H17 H -0.3008 -0.9527 0.3892
C23 C -0.28548(18) -0.8981(3) 0.46469(10)
H18 H -0.3247 -0.9617 0.4755
C24 C -0.13568(13) -0.6670(3) 0.71382(9)
C25 C -0.07407(13) -0.6648(3) 0.75875(9)
C26 C -0.07443(14) -0.7676(3) 0.79738(9)
H19 H -0.1140 -0.8407 0.7959
C27 C -0.01685(15) -0.7636(3) 0.83829(10)
H20 H -0.0165 -0.8352 0.8645
C28 C 0.03989(15) -0.6556(3) 0.84099(10)
H21 H 0.0789 -0.6524 0.8692
C29 C 0.03995(15) -0.5527(3) 0.80280(11)
H22 H 0.0788 -0.4782 0.8048
C30 C -0.01667(15) -0.5578(3) 0.76149(10)
H23 H -0.0161 -0.4875 0.7349
C31 C -0.37167(14) -0.5152(2) 0.61316(9)
C32 C -0.45907(14) -0.5180(3) 0.61051(10)
C33 C -0.49751(16) -0.5795(3) 0.64976(11)
H24 H -0.4682 -0.6182 0.6792
C34 C -0.57960(18) -0.5839(4) 0.64548(14)
H25 H -0.6066 -0.6234 0.6725
C35 C -0.62173(19) -0.5308(4) 0.60185(16)
H26 H -0.6776 -0.5374 0.5986
C36 C -0.58376(19) -0.4685(4) 0.56295(15)
H27 H -0.6132 -0.4305 0.5334
C37 C -0.50212(17) -0.4619(3) 0.56744(13)
H28 H -0.4755 -0.4189 0.5409
C38 C -0.15813(14) -0.2826(3) 0.53503(9)
C39 C -0.10379(14) -0.2482(3) 0.49463(9)
C40 C -0.09750(16) -0.1075(3) 0.47609(10)
H29 H -0.1288 -0.0320 0.4886
C41 C -0.04609(17) -0.0761(3) 0.43954(11)
H30 H -0.0416 0.0208 0.4274
C42 C -0.00125(16) -0.1861(3) 0.42080(11)
H31 H 0.0342 -0.1646 0.3958
C43 C -0.00784(15) -0.3273(3) 0.43825(11)
H32 H 0.0225 -0.4029 0.4250
C44 C -0.05862(14) -0.3584(3) 0.47503(10)
H33 H -0.0629 -0.4554 0.4871
Cd1_2 Cd -0.309457(9) -0.170840(18) 0.589886(6)
Cd3_2 Cd -0.210417(9) -1.501607(18) 0.617144(6)
O3_2 O -0.24175(11) -0.29711(18) 0.66226(6)
O10_2 O -0.33770(10) -1.43485(18) 0.58206(6)
O12_2 O -0.20910(11) -1.18950(19) 0.54357(7)
loop_
_geom_bond_atom_site_label_1
_geom_bond_atom_site_label_2
_geom_bond_site_symmetry_1
_geom_bond_site_symmetry_2
Cd1 N1 1_555 1_555
Cd2 O2 1_555 1_555
Cd3 O6 1_555 1_555
N1 C1 1_555 1_555
O1 Cd1 1_555 1_555
O2 C3 1_555 1_555
O3 Cd1 1_555 1_555
O4 Cd1 1_555 1_555
O5 Cd1 1_555 1_555
O6 Cd2 1_555 1_555
O7 Cd2 1_555 1_555
O8 Cd3 1_555 1_555
O9 Cd2 1_555 1_555
O10 Cd3 1_555 1_555
O11 Cd3 1_555 1_555
O12 C38 1_555 1_555
C1 C2 1_555 1_555
C2 H1 1_555 1_555
H2 C2 1_555 1_555
H3 C2 1_555 1_555
C3 O1 1_555 1_555
C4 C3 1_555 1_555
C5 C4 1_555 1_555
H4 C5 1_555 1_555
C6 C5 1_555 1_555
H5 C6 1_555 1_555
C7 C6 1_555 1_555
H6 C7 1_555 1_555
C8 C7 1_555 1_555
H7 C8 1_555 1_555
C9 C4 1_555 1_555
H8 C9 1_555 1_555
C10 O3 1_555 1_555
C11 C10 1_555 1_555
C12 C11 1_555 1_555
H9 C12 1_555 1_555
C13 C12 1_555 1_555
H10 C13 1_555 1_555
C14 C13 1_555 1_555
H11 C14 1_555 1_555
C15 C14 1_555 1_555
H12 C15 1_555 1_555
C16 C11 1_555 1_555
H13 C16 1_555 1_555
C17 O5 1_555 1_555
C18 C17 1_555 1_555
C19 C18 1_555 1_555
H14 C19 1_555 1_555
C20 C19 1_555 1_555
H15 C20 1_555 1_555
C21 C20 1_555 1_555
H16 C21 1_555 1_555
C22 C21 1_555 1_555
H17 C22 1_555 1_555
C23 C18 1_555 1_555
H18 C23 1_555 1_555
C24 O7 1_555 1_555
C25 C24 1_555 1_555
C26 C25 1_555 1_555
H19 C26 1_555 1_555
C27 C26 1_555 1_555
H20 C27 1_555 1_555
C28 C27 1_555 1_555
H21 C28 1_555 1_555
C29 C28 1_555 1_555
H22 C29 1_555 1_555
C30 C25 1_555 1_555
H23 C30 1_555 1_555
C31 O9 1_555 1_555
C32 C31 1_555 1_555
C33 C32 1_555 1_555
H24 C33 1_555 1_555
C34 C33 1_555 1_555
H25 C34 1_555 1_555
C35 C34 1_555 1_555
H26 C35 1_555 1_555
C36 C35 1_555 1_555
H27 C36 1_555 1_555
C37 C32 1_555 1_555
H28 C37 1_555 1_555
C38 O11 1_555 1_555
C39 C38 1_555 1_555
C40 C39 1_555 1_555
H29 C40 1_555 1_555
C41 C40 1_555 1_555
H30 C41 1_555 1_555
C42 C41 1_555 1_555
H31 C42 1_555 1_555
C43 C42 1_555 1_555
H32 C43 1_555 1_555
C44 C39 1_555 1_555
H33 C44 1_555 1_555
Cd1_2 O10 1_555 1_555
Cd3_2 O3 1_555 1_555
O3_2 Cd3 1_555 1_555
O10_2 Cd1 1_555 1_555
O12_2 Cd1 1_555 1_555
Cd2 O4 1_555 1_555
Cd2 O5 1_555 1_555
Cd3 O9 1_555 1_555
O4 C10 1_555 1_555
O6 C17 1_555 1_555
O8 C24 1_555 1_555
O10 C31 1_555 1_555
O12 Cd1_2 1_555 1_555
C8 C9 1_555 1_555
C15 C16 1_555 1_555
C22 C23 1_555 1_555
C29 C30 1_555 1_555
C36 C37 1_555 1_555
C43 C44 1_555 1_555
Cd1_2 O3_2 1_555 1_555
Cd3_2 O10_2 1_555 1_555

#END
