
#######################################################################
#
#                 Cambridge Crystallographic Data Centre
#                                CCDC 
#
#######################################################################
#
# If this CIF has been generated from an entry in the Cambridge 
# Structural Database, then it will include bibliographic, chemical, 
# crystal, experimental, refinement or atomic coordinate data resulting 
# from the CCDC's data processing and validation procedures.
#
#######################################################################

data_QONTOE
_symmetry_cell_setting           orthorhombic
_symmetry_space_group_name_H-M   'P c c n'
_symmetry_Int_Tables_number      56
_space_group_name_Hall           '-P 2ab 2ac'
loop_
_symmetry_equiv_pos_site_id
_symmetry_equiv_pos_as_xyz
1 x,y,z
2 1/2-x,1/2-y,z
3 -x,1/2+y,1/2-z
4 1/2+x,-y,1/2-z
5 -x,-y,-z
6 1/2+x,1/2+y,-z
7 x,1/2-y,1/2+z
8 1/2-x,y,1/2+z
_cell_length_a                   20.4104(7)
_cell_length_b                   23.1828(9)
_cell_length_c                   12.5984(4)
_cell_angle_alpha                90
_cell_angle_beta                 90
_cell_angle_gamma                90
_cell_volume                     5961.19
loop_
_atom_site_label
_atom_site_type_symbol
_atom_site_fract_x
_atom_site_fract_y
_atom_site_fract_z
Ca1 Ca 0.44446(2) 0.48961(2) 0.87040(4)
Ti1 Ti 0.499405(19) 0.562236(16) 0.64289(3)
Ti2 Ti 0.55316(2) 0.577957(17) 0.39146(3)
O1 O 0.46059(8) 0.48699(7) 0.67737(12)
O2 O 0.49395(8) 0.56311(7) 0.50589(13)
O3 O 0.51811(9) 0.56444(8) 0.80769(14)
O4 O 0.55873(9) 0.52407(9) 0.94953(14)
C1 C 0.56468(11) 0.55897(10) 0.87455(17)
C2 C 0.62563(13) 0.59412(13) 0.8612(2)
H1 H 0.6504 0.5941 0.9278
H2 H 0.6138 0.6338 0.8425
H3 H 0.6526 0.5775 0.8046
O5 O 0.37573(10) 0.56874(9) 0.83149(18)
O6 O 0.41596(9) 0.60032(8) 0.67605(15)
C3 C 0.37530(13) 0.60183(11) 0.7541(2)
C4 C 0.32356(17) 0.64747(14) 0.7439(3)
C5 C 0.2910(2) 0.66425(19) 0.8360(4)
H4 H 0.2583 0.6934 0.8330
H5 H 0.3014 0.6465 0.9019
C6 C 0.3123(3) 0.6710(2) 0.6389(4)
H6 H 0.2705 0.6918 0.6381
H7 H 0.3108 0.6395 0.5871
H8 H 0.3479 0.6975 0.6206
O7 O 0.49168(12) 0.59243(10) 0.14815(17)
O8 O 0.48905(11) 0.62430(8) 0.31467(15)
C7 C 0.46880(14) 0.62341(12) 0.2184(2)
C8 C 0.4156(2) 0.66527(19) 0.1918(4)
C9 C 0.3919(3) 0.7001(3) 0.2717(6)
H9 H 0.3587 0.7277 0.2568
H10 H 0.4089 0.6966 0.3416
C10 C 0.3942(5) 0.6660(4) 0.0821(7)
H11 H 0.3618 0.6967 0.0722
H12 H 0.3745 0.6288 0.0641
H13 H 0.4320 0.6731 0.0358
O9 O 0.64720(10) 0.57052(10) 0.14600(16)
O10 O 0.62377(11) 0.60852(8) 0.30264(16)
C11 C 0.65960(11) 0.60342(10) 0.22008(19)
C12 C 0.71869(12) 0.64146(11) 0.2166(2)
C13 C 0.73408(16) 0.67330(14) 0.3062(3)
H14 H 0.7719 0.6971 0.3066
H15 H 0.7068 0.6713 0.3672
C14 C 0.75700(16) 0.64193(18) 0.1215(3)
H16 H 0.7974 0.6638 0.1336
H17 H 0.7318 0.6600 0.0642
H18 H 0.7680 0.6022 0.1016
O11 O 0.58820(8) 0.52370(7) 0.64340(14)
O12 O 0.62574(8) 0.54259(8) 0.47971(14)
C15 C 0.63103(11) 0.51991(10) 0.5707(2)
C16 C 0.69261(14) 0.48848(13) 0.5947(3)
C17 C 0.7027(2) 0.4692(2) 0.6946(4)
H19 H 0.7425 0.4501 0.7120
H20 H 0.6701 0.4747 0.7474
C18 C 0.73989(16) 0.48209(18) 0.5076(3)
H21 H 0.7798 0.4636 0.5343
H22 H 0.7507 0.5202 0.4788
H23 H 0.7207 0.4582 0.4515
O13 O 0.54491(9) 0.63883(7) 0.64624(14)
O14 O 0.57257(10) 0.65664(8) 0.47749(14)
C19 C 0.56368(11) 0.67179(9) 0.57143(19)
C20 C 0.57693(15) 0.73339(10) 0.6012(2)
C21 C 0.56851(15) 0.75018(12) 0.7010(2)
H24 H 0.5770 0.7890 0.7205
H25 H 0.5540 0.7233 0.7529
C22 C 0.5991(3) 0.77171(15) 0.5156(3)
H26 H 0.6038 0.8110 0.5431
H27 H 0.5669 0.7714 0.4579
H28 H 0.6415 0.7582 0.4887
Ca1D Ca 0.55554(2) 0.51039(2) 0.12960(4)
Ca1D_2 Ca 0.55554(2) 0.51039(2) 1.12960(4)
Ti2D Ti 0.44684(2) 0.422043(17) 0.60854(3)
O1D O 0.53941(8) 0.51301(7) 0.32263(12)
O4D O 0.44127(9) 0.47593(9) 1.05047(14)
O7D O 0.50832(12) 0.40757(10) 0.85185(17)
O9D O 0.35280(10) 0.42948(10) 0.85400(16)
loop_
_geom_bond_atom_site_label_1
_geom_bond_atom_site_label_2
_geom_bond_site_symmetry_1
_geom_bond_site_symmetry_2
Ca1 O1 1_555 1_555
Ti1 O1 1_555 1_555
Ti2 O2 1_555 1_555
O1 Ti2D 1_555 1_555
O2 Ti1 1_555 1_555
O3 Ca1 1_555 1_555
O4 Ca1 1_555 1_555
C1 O3 1_555 1_555
C2 C1 1_555 1_555
H1 C2 1_555 1_555
H2 C2 1_555 1_555
H3 C2 1_555 1_555
O5 Ca1 1_555 1_555
O6 Ti1 1_555 1_555
C3 O5 1_555 1_555
C4 C3 1_555 1_555
C5 C4 1_555 1_555
H4 C5 1_555 1_555
H5 C5 1_555 1_555
C6 C4 1_555 1_555
H6 C6 1_555 1_555
H7 C6 1_555 1_555
H8 C6 1_555 1_555
O7 C7 1_555 1_555
O8 Ti2 1_555 1_555
C7 O8 1_555 1_555
C8 C7 1_555 1_555
C9 C8 1_555 1_555
H9 C9 1_555 1_555
H10 C9 1_555 1_555
C10 C8 1_555 1_555
H11 C10 1_555 1_555
H12 C10 1_555 1_555
H13 C10 1_555 1_555
O9 C11 1_555 1_555
O10 Ti2 1_555 1_555
C11 O10 1_555 1_555
C12 C11 1_555 1_555
C13 C12 1_555 1_555
H14 C13 1_555 1_555
H15 C13 1_555 1_555
C14 C12 1_555 1_555
H16 C14 1_555 1_555
H17 C14 1_555 1_555
H18 C14 1_555 1_555
O11 Ti1 1_555 1_555
O12 Ti2 1_555 1_555
C15 O11 1_555 1_555
C16 C15 1_555 1_555
C17 C16 1_555 1_555
H19 C17 1_555 1_555
H20 C17 1_555 1_555
C18 C16 1_555 1_555
H21 C18 1_555 1_555
H22 C18 1_555 1_555
H23 C18 1_555 1_555
O13 Ti1 1_555 1_555
O14 Ti2 1_555 1_555
C19 O13 1_555 1_555
C20 C19 1_555 1_555
C21 C20 1_555 1_555
H24 C21 1_555 1_555
H25 C21 1_555 1_555
C22 C20 1_555 1_555
H26 C22 1_555 1_555
H27 C22 1_555 1_555
H28 C22 1_555 1_555
Ca1D O7 1_555 1_555
Ca1D_2 O4 1_555 1_555
O1D Ti2 1_555 1_555
O4D Ca1 1_555 1_555
O7D Ca1 1_555 1_555
O9D Ca1 1_555 1_555
Ti1 O3 1_555 1_555
O4 C1 1_555 1_555
O6 C3 1_555 1_555
O9 Ca1D 1_555 1_555
O12 C15 1_555 1_555
O14 C19 1_555 1_555
Ca1D O1D 1_555 1_555
Ca1D_2 O4D 1_555 1_555

#END
