
#######################################################################
#
#                 Cambridge Crystallographic Data Centre
#                                CCDC 
#
#######################################################################
#
# If this CIF has been generated from an entry in the Cambridge 
# Structural Database, then it will include bibliographic, chemical, 
# crystal, experimental, refinement or atomic coordinate data resulting 
# from the CCDC's data processing and validation procedures.
#
#######################################################################

data_QONVEU
_symmetry_cell_setting           tetragonal
_symmetry_space_group_name_H-M   'P 41 21 2'
_symmetry_Int_Tables_number      92
_space_group_name_Hall           'P 4abw 2nw'
loop_
_symmetry_equiv_pos_site_id
_symmetry_equiv_pos_as_xyz
1 x,y,z
2 -x,-y,1/2+z
3 1/2-y,1/2+x,1/4+z
4 1/2+y,1/2-x,3/4+z
5 1/2-x,1/2+y,1/4-z
6 1/2+x,1/2-y,3/4-z
7 y,x,-z
8 -y,-x,1/2-z
_cell_length_a                   6.8042(8)
_cell_length_b                   6.8042(8)
_cell_length_c                   29.612(3)
_cell_angle_alpha                90
_cell_angle_beta                 90
_cell_angle_gamma                90
_cell_volume                     1370.95
loop_
_atom_site_label
_atom_site_type_symbol
_atom_site_fract_x
_atom_site_fract_y
_atom_site_fract_z
Cu1 Cu 0.43097(13) 1.30524(14) 0.11351(3)
Br1 Br 0.12230(11) 1.38030(11) 0.14981(2)
Br2 Br 0.59522(11) 1.25945(11) 0.18494(2)
N1 N 0.6876(9) 1.2712(9) 0.0799(2)
H1 H 0.7767(9) 1.3640(9) 0.0894(2)
H2 H 0.7390(9) 1.1487(9) 0.0858(2)
N2 N 0.3282(9) 1.4012(9) 0.0537(2)
H3 H 0.2559(9) 1.3039(9) 0.0399(2)
H4 H 0.2481(9) 1.5085(9) 0.0580(2)
C1 C 0.6517(11) 1.2932(12) 0.0309(2)
H5 H 0.6026(11) 1.1682(12) 0.0181(2)
H6 H 0.7752(11) 1.3288(12) 0.0152(2)
C2 C 0.4983(10) 1.4560(11) 0.0247(2)
H7 H 0.5558(10) 1.5787(11) 0.0378(2)
C2F C 0.4560(11) 1.4983(10) -0.0247(2)
N2F N 0.4012(9) 1.3282(9) -0.0537(2)
H3F H 0.3039(9) 1.2559(9) -0.0399(2)
H4F H 0.5085(9) 1.2481(9) -0.0580(2)
C1F C 0.2932(12) 1.6517(11) -0.0309(2)
N1F N 0.2712(9) 1.6876(9) -0.0799(2)
H1F H 0.3640(9) 1.7767(9) -0.0894(2)
H2F H 0.1487(9) 1.7390(9) -0.0858(2)
H5F H 0.1682(12) 1.6026(11) -0.0181(2)
H6F H 0.3288(12) 1.7752(11) -0.0152(2)
H7F H 0.5787(11) 1.5558(10) -0.0378(2)
Br1D Br 0.37770(11) 0.88030(11) 0.10019(2)
Cu1D Cu 0.06903(13) 0.80524(14) 0.13649(3)
Cu1D_2 Cu 0.06903(13) 1.80524(14) 0.13649(3)
Cu1F Cu 0.30524(14) 1.43097(13) -0.11351(3)
Br1_2 Br 0.12230(11) 0.38030(11) 0.14981(2)
Br2D Br -0.09522(11) 0.75945(11) 0.06506(2)
N1D N -0.1876(9) 0.7712(9) 0.1701(2)
N2D N 0.1718(9) 0.9012(9) 0.1963(2)
H1D H -0.2767(9) 0.8640(9) 0.1606(2)
H2D H -0.2390(9) 0.6487(9) 0.1642(2)
H3D H 0.2441(9) 0.8039(9) 0.2101(2)
H4D H 0.2519(9) 1.0085(9) 0.1920(2)
O1 O 0.3950(9) 0.6050(9) 0.2500
H8 H 0.383(15) 0.499(16) 0.2315(27)
H8G H 0.501(16) 0.617(15) 0.2685(27)
loop_
_geom_bond_atom_site_label_1
_geom_bond_atom_site_label_2
_geom_bond_site_symmetry_1
_geom_bond_site_symmetry_2
Cu1 Br1 1_555 1_555
Br1 Cu1D_2 1_555 1_555
Br2 Cu1 1_555 1_555
N1 Cu1 1_555 1_555
H1 N1 1_555 1_555
H2 N1 1_555 1_555
N2 Cu1 1_555 1_555
H3 N2 1_555 1_555
H4 N2 1_555 1_555
C1 N1 1_555 1_555
H5 C1 1_555 1_555
H6 C1 1_555 1_555
C2 N2 1_555 1_555
H7 C2 1_555 1_555
O1 H8 1_555 1_555
C2F C2 1_555 1_555
N2F C2F 1_555 1_555
H3F N2F 1_555 1_555
H4F N2F 1_555 1_555
C1F C2F 1_555 1_555
N1F C1F 1_555 1_555
H1F N1F 1_555 1_555
H2F N1F 1_555 1_555
H5F C1F 1_555 1_555
H6F C1F 1_555 1_555
H7F C2F 1_555 1_555
Br1D Cu1 1_555 1_555
Cu1D Br1D 1_555 1_555
Cu1F N2F 1_555 1_555
Br1_2 Cu1D 1_555 1_555
Br2D Cu1D 1_555 1_555
N1D Cu1D 1_555 1_555
N2D Cu1D 1_555 1_555
H1D N1D 1_555 1_555
H2D N1D 1_555 1_555
H3D N2D 1_555 1_555
H4D N2D 1_555 1_555
H8G O1 1_555 1_555
C1 C2 1_555 1_555
N1F Cu1F 1_555 1_555

#END
