
#######################################################################
#
#                 Cambridge Crystallographic Data Centre
#                                CCDC 
#
#######################################################################
#
# If this CIF has been generated from an entry in the Cambridge 
# Structural Database, then it will include bibliographic, chemical, 
# crystal, experimental, refinement or atomic coordinate data resulting 
# from the CCDC's data processing and validation procedures.
#
#######################################################################

data_QONZEZ
_symmetry_cell_setting           triclinic
_symmetry_space_group_name_H-M   'P -1'
_symmetry_Int_Tables_number      2
_space_group_name_Hall           '-P 1'
loop_
_symmetry_equiv_pos_site_id
_symmetry_equiv_pos_as_xyz
1 x,y,z
2 -x,-y,-z
_cell_length_a                   7.9093(16)
_cell_length_b                   8.4482(17)
_cell_length_c                   10.994(2)
_cell_angle_alpha                102.65(3)
_cell_angle_beta                 96.97(3)
_cell_angle_gamma                96.28(3)
_cell_volume                     704.437
loop_
_atom_site_label
_atom_site_type_symbol
_atom_site_fract_x
_atom_site_fract_y
_atom_site_fract_z
Gd1 Gd 0.71394(2) 0.239597(19) 0.688667(15)
O1 O 0.4396(3) 0.0944(3) 0.6651(2)
C1 C 0.3513(4) -0.0439(4) 0.6318(3)
C2 C 0.3042(4) -0.0243(4) 0.8562(3)
C3 C 0.2735(4) -0.1119(4) 0.7314(3)
C4 C 0.2276(5) -0.0823(4) 0.9488(3)
O2 O 0.5369(4) 0.4314(3) 0.6309(3)
H1 H 0.4459 0.4248 0.6646
H2 H 0.5916 0.5277 0.6569
O3 O 0.3183(4) -0.1291(4) 0.5217(3)
O4 O 0.9925(4) 0.1465(4) 0.6530(3)
H3 H 0.9938 0.1159 0.5742
H4 H 1.0731 0.2251 0.6850
C5 C 0.1234(4) -0.2336(4) 0.9148(3)
H5 H 0.0752 -0.2761 0.9761
C6 C 0.1648(5) -0.2612(4) 0.6980(3)
H6 H 0.1420 -0.3200 0.6143
C7 C 0.0910(4) -0.3216(4) 0.7896(3)
C8 C -0.0317(4) -0.4786(4) 0.7517(3)
O5 O -0.1007(3) -0.5314(3) 0.6385(2)
O6 O -0.0674(3) -0.5540(3) 0.8359(2)
C9 C 0.2562(4) 0.0206(4) 1.0789(3)
N1 N 0.3042(4) 0.1829(4) 1.1049(3)
N2 N 0.3169(4) 0.2339(4) 1.2304(3)
N3 N 0.2747(4) 0.1087(4) 1.2781(3)
N4 N 0.2348(4) -0.0299(4) 1.1838(3)
O7 O 0.5958(3) 0.3439(3) 0.8776(3)
H7 H 0.4947 0.3644 0.8577
H8 H 0.6588 0.4313 0.9199
H9 H 0.372(5) 0.069(5) 0.879(4)
Gd1A Gd 0.28606(2) -0.239597(19) 0.311333(15)
Gd1_2 Gd -0.28606(2) -0.760403(19) 0.688667(15)
Gd1A_2 Gd 0.28606(2) -0.239597(19) 1.311333(15)
O3A O 0.6817(4) 0.1291(4) 0.4783(3)
O5_2 O 0.8993(3) 0.4686(3) 0.6385(2)
O6_2 O 0.9326(3) 0.4460(3) 0.8359(2)
N4A N 0.7652(4) 0.0299(4) 0.8162(3)
O8 O 0.2012(4) 0.3047(4) 0.5150(3)
H10 H 0.2530 0.2253 0.4850
H11 H 0.2095 0.3572 0.4578
O9 O 0.7323(4) 0.6163(3) 0.0646(3)
H12 H 0.7636 0.6931 0.0300
H13 H 0.8190 0.5719 0.0859
loop_
_geom_bond_atom_site_label_1
_geom_bond_atom_site_label_2
_geom_bond_site_symmetry_1
_geom_bond_site_symmetry_2
Gd1 O1 1_555 1_555
O1 C1 1_555 1_555
C1 C3 1_555 1_555
C2 C3 1_555 1_555
C3 C6 1_555 1_555
C4 C2 1_555 1_555
O2 Gd1 1_555 1_555
H1 O2 1_555 1_555
H2 O2 1_555 1_555
O3 C1 1_555 1_555
O4 Gd1 1_555 1_555
H3 O4 1_555 1_555
H4 O4 1_555 1_555
C5 C4 1_555 1_555
H5 C5 1_555 1_555
C6 H6 1_555 1_555
C7 C5 1_555 1_555
C8 C7 1_555 1_555
O5 C8 1_555 1_555
O6 C8 1_555 1_555
C9 C4 1_555 1_555
N1 C9 1_555 1_555
N2 N1 1_555 1_555
N3 N2 1_555 1_555
N4 C9 1_555 1_555
O7 Gd1 1_555 1_555
H7 O7 1_555 1_555
H8 O7 1_555 1_555
H9 C2 1_555 1_555
O8 H10 1_555 1_555
H11 O8 1_555 1_555
O9 H12 1_555 1_555
H13 O9 1_555 1_555
Gd1A O3 1_555 1_555
Gd1_2 O5 1_555 1_555
Gd1A_2 N4 1_555 1_555
O3A Gd1 1_555 1_555
O5_2 Gd1 1_555 1_555
O6_2 Gd1 1_555 1_555
N4A Gd1 1_555 1_555
C6 C7 1_555 1_555
O6 Gd1_2 1_555 1_555
N3 N4 1_555 1_555

#END
