
#######################################################################
#
#                 Cambridge Crystallographic Data Centre
#                                CCDC 
#
#######################################################################
#
# If this CIF has been generated from an entry in the Cambridge 
# Structural Database, then it will include bibliographic, chemical, 
# crystal, experimental, refinement or atomic coordinate data resulting 
# from the CCDC's data processing and validation procedures.
#
#######################################################################

data_QOPCII
_symmetry_cell_setting           triclinic
_symmetry_space_group_name_H-M   'P -1'
_symmetry_Int_Tables_number      2
_space_group_name_Hall           '-P 1'
loop_
_symmetry_equiv_pos_site_id
_symmetry_equiv_pos_as_xyz
1 x,y,z
2 -x,-y,-z
_cell_length_a                   5.6431(8)
_cell_length_b                   10.4832(14)
_cell_length_c                   13.3055(18)
_cell_angle_alpha                79.356(2)
_cell_angle_beta                 84.344(2)
_cell_angle_gamma                76.376(2)
_cell_volume                     750.564
loop_
_atom_site_label
_atom_site_type_symbol
_atom_site_fract_x
_atom_site_fract_y
_atom_site_fract_z
Mn1 Mn -0.18527(17) 0.07933(9) 0.40794(7)
Mn2 Mn -0.5000 0.0000 0.0000
Mn3 Mn 0.10593(19) -0.38593(10) 0.34020(8)
P1 P -0.0045(3) 0.14489(18) -0.12401(14)
P2 P 0.2364(3) 0.22189(16) 0.47668(13)
O1 O 0.1635(9) 0.1335(5) -0.0393(4)
O2 O 0.2691(9) -0.1482(5) 0.0806(4)
O3 O 0.0062(11) 0.2619(5) -0.2071(4)
O4 O 0.0470(9) 0.0034(6) 0.2657(4)
H1 H 0.1973 -0.0063 0.2463
O5 O -0.4186(9) 0.0418(5) 0.3069(4)
O6 O 0.5180(9) -0.0551(6) -0.1494(4)
O7 O -0.4922(8) 0.1762(5) 0.4913(4)
O8 O 0.1154(10) 0.3253(5) 0.5406(4)
O9 O 0.1072(8) 0.1065(4) 0.4876(4)
O10 O 0.3263(8) 0.4133(5) 0.3223(4)
H2 H 0.4794 0.3812 0.3211
O11 O -0.1421(9) 0.4903(5) 0.3178(4)
O12 O -0.2029(8) 0.2878(5) 0.3222(4)
O13 O 0.4137(13) -0.3403(9) 0.3857(8)
C1 C 0.0920(12) -0.0075(7) -0.1798(5)
H7 H 0.0643 -0.0805 -0.1283
C2 C 0.3611(12) -0.0359(7) -0.2136(5)
C3 C 0.2005(12) 0.3077(6) 0.3420(5)
H8 H 0.2633 0.2456 0.2959
C4 C -0.0672(12) 0.3679(7) 0.3265(5)
Mn1A Mn 0.18527(17) -0.07933(9) 0.59206(7)
Mn1_2 Mn 0.81473(17) 0.07933(9) 0.40794(7)
Mn1A_2 Mn -0.81473(17) -0.07933(9) 0.59206(7)
Mn1A_3 Mn 0.18527(17) -0.07933(9) -0.40794(7)
Mn1_3 Mn -1.18527(17) 0.07933(9) 0.40794(7)
Mn2_2 Mn 0.5000 0.0000 0.0000
Mn3A Mn -0.10593(19) 0.38593(10) 0.65980(8)
Mn3A_2 Mn -0.10593(19) 0.38593(10) -0.34020(8)
Mn3_2 Mn 0.10593(19) 0.61407(10) 0.34020(8)
Mn3A_3 Mn -1.10593(19) 0.38593(10) 0.65980(8)
Mn3_3 Mn -0.89407(19) 0.61407(10) 0.34020(8)
P1A P 0.0045(3) -0.14489(18) 0.12401(14)
P2_2 P -0.7636(3) 0.22189(16) 0.47668(13)
O1A O -0.1635(9) -0.1335(5) 0.0393(4)
O1_2 O -0.8365(9) 0.1335(5) -0.0393(4)
O2A O -0.2691(9) 0.1482(5) -0.0806(4)
O2_2 O -0.7309(9) -0.1482(5) 0.0806(4)
O3A O -0.0062(11) -0.2619(5) 0.2071(4)
O4A O -0.0470(9) -0.0034(6) -0.2657(4)
H1A H -0.1973 0.0063 -0.2463
O5A O 0.4186(9) -0.0418(5) -0.3069(4)
O6A O -0.5180(9) 0.0551(6) 0.1494(4)
O6_2 O -0.4820(9) -0.0551(6) -0.1494(4)
O7_2 O 0.5078(8) 0.1762(5) 0.4913(4)
O7A O 0.4922(8) -0.1762(5) -0.4913(4)
O8A O -0.1154(10) -0.3253(5) 0.4594(4)
O8_2 O -0.8846(10) 0.3253(5) 0.5406(4)
O8_3 O 0.1154(10) 0.3253(5) -0.4594(4)
O9A O -0.1072(8) -0.1065(4) 0.5124(4)
O9_2 O -0.8928(8) 0.1065(4) 0.4876(4)
O9A_2 O -0.1072(8) -0.1065(4) -0.4876(4)
O9_3 O 0.1072(8) 0.1065(4) -0.5124(4)
O10_2 O 0.3263(8) -0.5867(5) 0.3223(4)
O10A O -0.3263(8) 0.5867(5) -0.3223(4)
O10_3 O -0.6737(8) 0.4133(5) 0.3223(4)
H2_2 H 0.4794 -0.6188 0.3211
H2A H -0.4794 0.6188 -0.3211
H2_3 H -0.5206 0.3812 0.3211
O11_2 O -0.1421(9) -0.5097(5) 0.3178(4)
O11A O 0.1421(9) 0.5097(5) -0.3178(4)
O11_3 O -1.1421(9) 0.4903(5) 0.3178(4)
O12A O 0.2029(8) -0.2878(5) -0.3222(4)
O12_2 O -1.2029(8) 0.2878(5) 0.3222(4)
O13A O -0.4137(13) 0.3403(9) -0.3857(8)
C1A C -0.0920(12) 0.0075(7) 0.1798(5)
H7A H -0.0643 0.0805 0.1283
C2A C -0.3611(12) 0.0359(7) 0.2136(5)
C3_2 C -0.7995(12) 0.3077(6) 0.3420(5)
H8_2 H -0.7367 0.2456 0.2959
C4_2 C -1.0672(12) 0.3679(7) 0.3265(5)
N1 N 0.601(2) -0.3620(11) 0.1380(10)
H3 H 0.5918 -0.3082 0.1844
H4 H 0.7440 -0.4222 0.1455
H5 H 0.6096 -0.3122 0.0755
H6 H 0.4810 -0.4065 0.1553
loop_
_geom_bond_atom_site_label_1
_geom_bond_atom_site_label_2
_geom_bond_site_symmetry_1
_geom_bond_site_symmetry_2
Mn1 O4 1_555 1_555
Mn2 O1A 1_555 1_555
Mn3 O13 1_555 1_555
P1 O1 1_555 1_555
P2 O8 1_555 1_555
O1 Mn2_2 1_555 1_555
O2 Mn2_2 1_555 1_555
O3 P1 1_555 1_555
O4 H1 1_555 1_555
O5 Mn1 1_555 1_555
O6 C2 1_555 1_555
O7 Mn1 1_555 1_555
O8 Mn3A 1_555 1_555
O9 Mn1 1_555 1_555
O10 H2 1_555 1_555
O11 C4 1_555 1_555
O12 Mn1 1_555 1_555
N1 H3 1_555 1_555
H4 N1 1_555 1_555
H5 N1 1_555 1_555
H6 N1 1_555 1_555
C1 P1 1_555 1_555
H7 C1 1_555 1_555
C2 C1 1_555 1_555
C3 P2 1_555 1_555
H8 C3 1_555 1_555
C4 O12 1_555 1_555
Mn1A O9 1_555 1_555
Mn1_2 O7_2 1_555 1_555
Mn1A_2 O9_2 1_555 1_555
Mn1A_3 O4A 1_555 1_555
Mn1_3 O9_2 1_555 1_555
Mn2_2 O6 1_555 1_555
Mn3A_2 O3 1_555 1_555
Mn3_2 O10 1_555 1_555
Mn3A_3 O8_2 1_555 1_555
Mn3_3 O10_3 1_555 1_555
P1A O2 1_555 1_555
P2_2 O7 1_555 1_555
O1A P1A 1_555 1_555
O1_2 Mn2 1_555 1_555
O2A Mn2 1_555 1_555
O2_2 Mn2 1_555 1_555
O3A Mn3 1_555 1_555
O4A C1 1_555 1_555
H1A O4A 1_555 1_555
O5A C2 1_555 1_555
O6A Mn2 1_555 1_555
O6_2 Mn2 1_555 1_555
O7_2 P2 1_555 1_555
O7A Mn1A_3 1_555 1_555
O8A Mn3 1_555 1_555
O8_2 P2_2 1_555 1_555
O8_3 Mn3A_2 1_555 1_555
O9A Mn1 1_555 1_555
O9_2 P2_2 1_555 1_555
O9A_2 Mn1A_3 1_555 1_555
O9_3 Mn1A_3 1_555 1_555
O10_2 Mn3 1_555 1_555
O10A Mn3A_2 1_555 1_555
O10_3 H2_3 1_555 1_555
H2_2 O10_2 1_555 1_555
H2A O10A 1_555 1_555
O11_2 Mn3 1_555 1_555
O11A Mn3A_2 1_555 1_555
O11_3 Mn3_3 1_555 1_555
O12A Mn1A_3 1_555 1_555
O12_2 Mn1_3 1_555 1_555
O13A Mn3A_2 1_555 1_555
C1A O4 1_555 1_555
H7A C1A 1_555 1_555
C2A O5 1_555 1_555
C3_2 P2_2 1_555 1_555
H8_2 C3_2 1_555 1_555
C4_2 O11_3 1_555 1_555
P1 O2A 1_555 1_555
P2 O9 1_555 1_555
O10 C3 1_555 1_555
O11 Mn3_2 1_555 1_555
C3 C4 1_555 1_555
Mn1A O9A 1_555 1_555
Mn1A_3 O5A 1_555 1_555
P1A O3A 1_555 1_555
P1A C1A 1_555 1_555
O6A C2A 1_555 1_555
O10_3 C3_2 1_555 1_555
O12_2 C4_2 1_555 1_555
C1A C2A 1_555 1_555
C3_2 C4_2 1_555 1_555

#END
