
#######################################################################
#
#                 Cambridge Crystallographic Data Centre
#                                CCDC 
#
#######################################################################
#
# If this CIF has been generated from an entry in the Cambridge 
# Structural Database, then it will include bibliographic, chemical, 
# crystal, experimental, refinement or atomic coordinate data resulting 
# from the CCDC's data processing and validation procedures.
#
#######################################################################

data_QOPCAZ
_symmetry_cell_setting           monoclinic
_symmetry_space_group_name_H-M   'C 2/m'
_symmetry_Int_Tables_number      12
_space_group_name_Hall           '-C 2y'
loop_
_symmetry_equiv_pos_site_id
_symmetry_equiv_pos_as_xyz
1 x,y,z
2 x,-y,z
3 1/2+x,1/2+y,z
4 1/2+x,1/2-y,z
5 -x,-y,-z
6 -x,y,-z
7 1/2-x,1/2-y,-z
8 1/2-x,1/2+y,-z
_cell_length_a                   17.471(2)
_cell_length_b                   7.737(2)
_cell_length_c                   7.144(2)
_cell_angle_alpha                90
_cell_angle_beta                 112.62(2)
_cell_angle_gamma                90
_cell_volume                     891.393
loop_
_atom_site_label
_atom_site_type_symbol
_atom_site_fract_x
_atom_site_fract_y
_atom_site_fract_z
Mn1 Mn 0.31924(3) 0.0000 0.24278(7)
O1 O 0.2222(1) 0.1740(3) 0.2422(3)
O2 O 0.2836(3) 0.0000 -0.0798(5)
O3 O 0.3802(2) 0.0000 0.5640(4)
N1 N 0.0932(1) 0.1834(3) 0.2484(3)
N2 N -0.0966(2) 0.2711(4) 0.2489(4)
C1 C 0.1583(2) 0.0965(3) 0.2457(3)
C2 C 0.0276(1) 0.0892(3) 0.2493(3)
C3 C -0.0420(2) 0.1874(4) 0.2487(4)
H1 H 0.277(2) 0.070(5) -0.158(5)
H2 H 0.400(2) 0.089(6) 0.649(6)
C2A C 0.0276(1) -0.0892(3) 0.2493(3)
N1A N 0.0932(1) -0.1834(3) 0.2484(3)
C1A C 0.1583(2) -0.0965(3) 0.2457(3)
O1A O 0.2222(1) -0.1740(3) 0.2422(3)
C3A C -0.0420(2) -0.1874(4) 0.2487(4)
N2A N -0.0966(2) -0.2711(4) 0.2489(4)
H1A H 0.277(2) -0.070(5) -0.158(5)
H2A H 0.400(2) -0.089(6) 0.649(6)
N2B N 0.4034(2) -0.2289(4) 0.2489(4)
N2C N 0.4034(2) 0.2289(4) 0.2489(4)
Mn1B Mn -0.18076(3) 0.5000 0.24278(7)
Mn1B_2 Mn -0.18076(3) -0.5000 0.24278(7)
loop_
_geom_bond_atom_site_label_1
_geom_bond_atom_site_label_2
_geom_bond_site_symmetry_1
_geom_bond_site_symmetry_2
Mn1 O1 1_555 1_555
O1 C1 1_555 1_555
O2 Mn1 1_555 1_555
O3 Mn1 1_555 1_555
N1 C1 1_555 1_555
N2 C3 1_555 1_555
C1 C1A 1_555 1_555
C2 N1 1_555 1_555
C3 C2 1_555 1_555
H1 O2 1_555 1_555
H2 O3 1_555 1_555
C2A C2 1_555 1_555
N1A C2A 1_555 1_555
C1A N1A 1_555 1_555
O1A Mn1 1_555 1_555
C3A C2A 1_555 1_555
N2A C3A 1_555 1_555
H1A O2 1_555 1_555
H2A O3 1_555 1_555
N2B Mn1 1_555 1_555
N2C Mn1 1_555 1_555
Mn1B N2 1_555 1_555
Mn1B_2 N2A 1_555 1_555
C1A O1A 1_555 1_555

#END
