
#######################################################################
#
#                 Cambridge Crystallographic Data Centre
#                                CCDC 
#
#######################################################################
#
# If this CIF has been generated from an entry in the Cambridge 
# Structural Database, then it will include bibliographic, chemical, 
# crystal, experimental, refinement or atomic coordinate data resulting 
# from the CCDC's data processing and validation procedures.
#
#######################################################################

data_QOPFIL
_symmetry_cell_setting           monoclinic
_symmetry_space_group_name_H-M   'P 21/c'
_symmetry_Int_Tables_number      14
_space_group_name_Hall           '-P 2ybc'
loop_
_symmetry_equiv_pos_site_id
_symmetry_equiv_pos_as_xyz
1 x,y,z
2 -x,1/2+y,1/2-z
3 -x,-y,-z
4 x,1/2-y,1/2+z
_cell_length_a                   11.0564(17)
_cell_length_b                   7.3994(7)
_cell_length_c                   22.011(3)
_cell_angle_alpha                90
_cell_angle_beta                 119.510(11)
_cell_angle_gamma                90
_cell_volume                     1567.13
loop_
_atom_site_label
_atom_site_type_symbol
_atom_site_fract_x
_atom_site_fract_y
_atom_site_fract_z
Pb1 Pb 0.35568(3) -0.64543(5) -0.302107(18)
C1 C 0.3158(10) -0.7925(17) -0.4531(6)
H1 H 0.4121 -0.7934 -0.4255
C2 C 0.2595(11) -0.8464(16) -0.5223(5)
H2 H 0.3169 -0.8827 -0.5398
C3 C 0.1153(10) -0.8451(15) -0.5651(5)
C4 C 0.0362(11) -0.7919(14) -0.5342(6)
H3 H -0.0602 -0.7915 -0.5607
C5 C 0.0985(9) -0.7409(13) -0.4663(5)
C6 C 0.0365(11) -0.5786(15) -0.3265(6)
H4 H 0.0905 -0.5388 -0.2808
C7 C -0.1055(10) -0.5861(16) -0.3544(6)
H5 H -0.1459 -0.5533 -0.3276
C8 C -0.1876(10) -0.6430(16) -0.4229(6)
C9 C -0.1221(11) -0.6911(14) -0.4603(5)
H6 H -0.1744 -0.7290 -0.5064
C10 C 0.0230(10) -0.6828(13) -0.4287(5)
C11 C 0.3131(11) -1.1107(16) -0.2694(6)
C12 C 0.4838(12) -0.3104(16) -0.3613(6)
C13 C 0.0480(11) -0.8989(16) -0.6404(5)
H7 H -0.0511 -0.8892 -0.6611
H8 H 0.0725 -1.0214 -0.6439
H9 H 0.0795 -0.8204 -0.6645
C14 C -0.3439(10) -0.6511(19) -0.4554(6)
H10 H -0.3702 -0.6127 -0.4218
H11 H -0.3749 -0.7728 -0.4696
H12 H -0.3859 -0.5729 -0.4953
N1 N 0.2427(9) -0.7406(13) -0.4241(4)
N2 N 0.1003(8) -0.6263(12) -0.3625(4)
N3 N 0.2973(11) -0.9854(14) -0.3041(6)
N4 N 0.3826(10) -0.3777(14) -0.3684(5)
S1 S 0.3413(3) -1.2885(4) -0.21892(15)
S2 S 0.6263(4) -0.2135(5) -0.35032(18)
Pb1_2 Pb 0.35568(3) -1.64543(5) -0.302107(18)
Pb1A Pb 0.64432(3) -1.14543(5) -0.197893(18)
Pb1A_2 Pb 0.64432(3) -0.14543(5) -0.197893(18)
S1_2 S 0.3413(3) -0.2885(4) -0.21892(15)
S1A S 0.6587(3) -0.7885(4) -0.28108(15)
S2A S 0.3737(4) -0.7135(5) -0.14968(18)
loop_
_geom_bond_atom_site_label_1
_geom_bond_atom_site_label_2
_geom_bond_site_symmetry_1
_geom_bond_site_symmetry_2
Pb1 N1 1_555 1_555
C1 H1 1_555 1_555
C2 C1 1_555 1_555
H2 C2 1_555 1_555
C3 C2 1_555 1_555
C4 C3 1_555 1_555
H3 C4 1_555 1_555
C5 C4 1_555 1_555
C6 H4 1_555 1_555
C7 C6 1_555 1_555
H5 C7 1_555 1_555
C8 C7 1_555 1_555
C9 C8 1_555 1_555
H6 C9 1_555 1_555
C10 C5 1_555 1_555
C11 N3 1_555 1_555
C12 N4 1_555 1_555
C13 C3 1_555 1_555
H7 C13 1_555 1_555
H8 C13 1_555 1_555
H9 C13 1_555 1_555
C14 C8 1_555 1_555
H10 C14 1_555 1_555
H11 C14 1_555 1_555
H12 C14 1_555 1_555
N1 C1 1_555 1_555
N2 Pb1 1_555 1_555
N3 Pb1 1_555 1_555
N4 Pb1 1_555 1_555
S1 C11 1_555 1_555
S2 C12 1_555 1_555
Pb1_2 S1 1_555 1_555
Pb1A S1 1_555 1_555
Pb1A_2 S2 1_555 1_555
S1_2 Pb1 1_555 1_555
S1A Pb1 1_555 1_555
S2A Pb1 1_555 1_555
C5 N1 1_555 1_555
C6 N2 1_555 1_555
C9 C10 1_555 1_555
C10 N2 1_555 1_555
Pb1A S1A 1_555 1_555
Pb1A_2 S1_2 1_555 1_555

#END
