
#######################################################################
#
#                 Cambridge Crystallographic Data Centre
#                                CCDC 
#
#######################################################################
#
# If this CIF has been generated from an entry in the Cambridge 
# Structural Database, then it will include bibliographic, chemical, 
# crystal, experimental, refinement or atomic coordinate data resulting 
# from the CCDC's data processing and validation procedures.
#
#######################################################################

data_QOPHAF
_symmetry_cell_setting           monoclinic
_symmetry_space_group_name_H-M   'P 21/n'
_symmetry_Int_Tables_number      14
_space_group_name_Hall           '-P 2yn'
loop_
_symmetry_equiv_pos_site_id
_symmetry_equiv_pos_as_xyz
1 x,y,z
2 1/2-x,1/2+y,1/2-z
3 -x,-y,-z
4 1/2+x,1/2-y,1/2+z
_cell_length_a                   10.9543(12)
_cell_length_b                   16.1279(18)
_cell_length_c                   14.3874(16)
_cell_angle_alpha                90
_cell_angle_beta                 92.8260(10)
_cell_angle_gamma                90
_cell_volume                     2538.73
loop_
_atom_site_label
_atom_site_type_symbol
_atom_site_fract_x
_atom_site_fract_y
_atom_site_fract_z
Zn1 Zn 0.44863(3) 0.168041(18) 0.38582(2)
Fe1 Fe 0.00437(3) 0.15194(2) 0.19046(2)
O1 O 0.32741(17) 0.16651(12) 0.27977(15)
O2 O 0.25493(19) 0.06872(13) 0.36820(14)
O3 O 0.0085(3) 0.33491(13) 0.02988(15)
O4 O -0.1547(3) 0.26545(17) -0.00857(15)
N1 N 0.55686(19) 0.26400(13) 0.33739(15)
N2 N 0.9431(2) 0.56972(13) 0.15617(15)
C1 C 0.2524(2) 0.10849(17) 0.2943(2)
C2 C 0.1627(2) 0.08913(16) 0.21743(18)
C3 C 0.0610(3) 0.03390(16) 0.2212(2)
H1 H 0.0389 0.0012 0.2753
C4 C -0.0024(3) 0.03523(17) 0.1336(2)
H2 H -0.0769 0.0040 0.1165
C5 C 0.0580(3) 0.09105(18) 0.0753(2)
H3 H 0.0330 0.1045 0.0108
C6 C 0.1604(3) 0.12384(18) 0.12599(18)
H4 H 0.2191 0.1638 0.1028
C7 C -0.0817(3) 0.25753(17) 0.14911(18)
C8 C -0.1669(3) 0.1998(2) 0.1831(2)
H5 H -0.2379 0.1766 0.1481
C9 C -0.1315(3) 0.18272(19) 0.2770(2)
H6 H -0.1728 0.1445 0.3181
C10 C -0.0258(3) 0.22835(19) 0.30079(19)
H7 H 0.0195 0.2274 0.3613
C11 C 0.0055(3) 0.27498(18) 0.2225(2)
H8 H 0.0754 0.3126 0.2194
C12 C 0.5323(3) 0.29715(17) 0.25298(19)
H9 H 0.4631 0.2794 0.2186
C13 C 0.6058(3) 0.35650(16) 0.21540(19)
H10 H 0.5863 0.3777 0.1564
C14 C 0.7090(2) 0.38467(15) 0.26559(18)
C15 C 0.7327(2) 0.35013(16) 0.35301(19)
H11 H 0.8002 0.3676 0.3896
C16 C 0.6571(2) 0.29044(17) 0.38534(18)
H12 H 0.6762 0.2671 0.4434
C17 C 0.7902(2) 0.44809(16) 0.22773(17)
C18 C -0.0765(3) 0.28716(19) 0.0515(2)
C19 C 0.8629(3) 0.49869(19) 0.2852(2)
H13 H 0.8617 0.4928 0.3495
C20 C 0.9370(3) 0.5576(2) 0.2478(2)
H14 H 0.9850 0.5905 0.2881
C21 C 0.8730(3) 0.52166(18) 0.10006(19)
H15 H 0.8758 0.5291 0.0361
C22 C 0.7970(3) 0.46191(17) 0.13242(19)
H16 H 0.7496 0.4302 0.0904
Zn1A Zn 1.05137(3) 0.668041(18) 0.11418(2)
Zn1C Zn -0.05137(3) 0.331959(18) -0.11418(2)
O3C O 0.5085(3) 0.16509(13) 0.52988(15)
O4C O 0.3453(3) 0.23455(17) 0.49143(15)
N2A N 0.5569(2) 0.06972(13) 0.34383(15)
C23 C 0.6524(10) 0.0551(4) 0.9349(7)
H17 H 0.7052 0.0185 0.9710
H18 H 0.6448 0.0357 0.8718
H19 H 0.5732 0.0562 0.9607
O5 O 0.7024(6) 0.1358(4) 0.9367(8)
H20 H 0.7596 0.1379 0.9756
O6 O 0.8842(3) 0.1993(3) 0.5279(2)
H21 H 0.9070 0.1517 0.5466
H22 H 0.9080 0.2494 0.5300
O7 O 0.0486(3) 0.0772(3) 0.4821(2)
H23 H 0.1098 0.0749 0.4480
H24 H -0.0032 0.0427 0.4980
O8 O 0.2708(3) 0.89214(19) 0.3677(2)
H25 H 0.2157 0.8684 0.3959
H26 H 0.2642 0.9436 0.3727
O9 O 0.4821(7) 0.1430(5) 0.0375(4)
H27 H 0.4620 0.1731 -0.0090
H28 H 0.4132 0.1383 0.0663
loop_
_geom_bond_atom_site_label_1
_geom_bond_atom_site_label_2
_geom_bond_site_symmetry_1
_geom_bond_site_symmetry_2
Zn1 O1 1_555 1_555
Fe1 C2 1_555 1_555
O1 C1 1_555 1_555
O2 C1 1_555 1_555
O3 C18 1_555 1_555
O4 C18 1_555 1_555
N1 Zn1 1_555 1_555
N2 C20 1_555 1_555
C1 C2 1_555 1_555
C2 C3 1_555 1_555
C3 Fe1 1_555 1_555
H1 C3 1_555 1_555
C4 Fe1 1_555 1_555
H2 C4 1_555 1_555
C5 Fe1 1_555 1_555
H3 C5 1_555 1_555
C6 Fe1 1_555 1_555
H4 C6 1_555 1_555
C7 Fe1 1_555 1_555
C8 Fe1 1_555 1_555
H5 C8 1_555 1_555
C9 Fe1 1_555 1_555
H6 C9 1_555 1_555
C10 Fe1 1_555 1_555
H7 C10 1_555 1_555
C11 Fe1 1_555 1_555
H8 C11 1_555 1_555
C12 N1 1_555 1_555
H9 C12 1_555 1_555
C13 C12 1_555 1_555
H10 C13 1_555 1_555
C14 C13 1_555 1_555
C15 C14 1_555 1_555
H11 C15 1_555 1_555
C16 N1 1_555 1_555
H12 C16 1_555 1_555
C17 C14 1_555 1_555
C18 C7 1_555 1_555
C19 C17 1_555 1_555
H13 C19 1_555 1_555
C20 C19 1_555 1_555
H14 C20 1_555 1_555
C21 N2 1_555 1_555
H15 C21 1_555 1_555
C22 C17 1_555 1_555
H16 C22 1_555 1_555
C23 H17 1_555 1_555
H18 C23 1_555 1_555
H19 C23 1_555 1_555
O5 C23 1_555 1_555
H20 O5 1_555 1_555
O6 H21 1_555 1_555
H22 O6 1_555 1_555
O7 H23 1_555 1_555
H24 O7 1_555 1_555
O8 H25 1_555 1_555
H26 O8 1_555 1_555
O9 H27 1_555 1_555
H28 O9 1_555 1_555
Zn1A N2 1_555 1_555
Zn1C O3 1_555 1_555
O3C Zn1 1_555 1_555
O4C Zn1 1_555 1_555
N2A Zn1 1_555 1_555
O4 Zn1C 1_555 1_555
C2 C6 1_555 1_555
C3 C4 1_555 1_555
C4 C5 1_555 1_555
C5 C6 1_555 1_555
C7 C8 1_555 1_555
C7 C11 1_555 1_555
C8 C9 1_555 1_555
C9 C10 1_555 1_555
C10 C11 1_555 1_555
C15 C16 1_555 1_555
C21 C22 1_555 1_555

#END
