
#######################################################################
#
#                 Cambridge Crystallographic Data Centre
#                                CCDC 
#
#######################################################################
#
# If this CIF has been generated from an entry in the Cambridge 
# Structural Database, then it will include bibliographic, chemical, 
# crystal, experimental, refinement or atomic coordinate data resulting 
# from the CCDC's data processing and validation procedures.
#
#######################################################################

data_QOPLEM
_symmetry_cell_setting           triclinic
_symmetry_space_group_name_H-M   'P -1'
_symmetry_Int_Tables_number      2
_space_group_name_Hall           '-P 1'
loop_
_symmetry_equiv_pos_site_id
_symmetry_equiv_pos_as_xyz
1 x,y,z
2 -x,-y,-z
_cell_length_a                   4.929(2)
_cell_length_b                   11.328(4)
_cell_length_c                   3.866(1)
_cell_angle_alpha                87.09(1)
_cell_angle_beta                 83.47(1)
_cell_angle_gamma                84.31(1)
_cell_volume                     213.233
loop_
_atom_site_label
_atom_site_type_symbol
_atom_site_fract_x
_atom_site_fract_y
_atom_site_fract_z
Cu1 Cu 0.0000 0.0000 0.0000
O1 O -0.2941(3) 0.12593(12) 0.0484(4)
O2 O 0.2022(4) 0.07577(14) 0.3252(4)
O3 O -0.0613(3) 0.24981(13) -0.3091(4)
C1 C -0.2586(4) 0.2299(2) -0.0946(5)
C2 C -0.4762(4) 0.3279(2) 0.0164(5)
C3 C -0.3851(4) 0.4522(2) -0.0521(5)
H1 H 0.3374(67) 0.0932(26) 0.2523(75)
H2 H 0.1244(63) 0.1268(27) 0.3962(73)
H3 H -0.5278(51) 0.3161(22) 0.2604(69)
H4 H -0.6271(54) 0.3160(22) -0.0967(64)
H5 H -0.3210(49) 0.4646(21) -0.2915(65)
H6 H -0.2217(55) 0.4619(22) 0.0646(64)
C3A C -0.6149(4) 0.5478(2) 0.0521(5)
C2A C -0.5238(4) 0.6721(2) -0.0164(5)
C1A C -0.7414(4) 0.7701(2) 0.0946(5)
O1A O -0.7059(3) 0.87407(12) -0.0484(4)
O3A O -0.9387(3) 0.75019(13) 0.3091(4)
H3A H -0.4722(51) 0.6839(22) -0.2604(69)
H4A H -0.3729(54) 0.6840(22) 0.0967(64)
H5A H -0.6790(49) 0.5354(21) 0.2915(65)
H6A H -0.7783(55) 0.5381(22) -0.0646(64)
O2A O -0.2022(4) -0.07577(14) -0.3252(4)
H1A H -0.3374(67) -0.0932(26) -0.2523(75)
H2A H -0.1244(63) -0.1268(27) -0.3962(73)
O1A_2 O 0.2941(3) -0.12593(12) -0.0484(4)
Cu1_2 Cu -1.0000 1.0000 0.0000
loop_
_geom_bond_atom_site_label_1
_geom_bond_atom_site_label_2
_geom_bond_site_symmetry_1
_geom_bond_site_symmetry_2
Cu1 O1 1_555 1_555
O1 C1 1_555 1_555
O2 Cu1 1_555 1_555
O3 C1 1_555 1_555
C1 C2 1_555 1_555
C2 C3 1_555 1_555
C3 H5 1_555 1_555
H1 O2 1_555 1_555
H2 O2 1_555 1_555
H3 C2 1_555 1_555
H4 C2 1_555 1_555
H6 C3 1_555 1_555
C3A C3 1_555 1_555
C2A C3A 1_555 1_555
C1A C2A 1_555 1_555
O1A C1A 1_555 1_555
O3A C1A 1_555 1_555
H3A C2A 1_555 1_555
H4A C2A 1_555 1_555
H5A C3A 1_555 1_555
H6A C3A 1_555 1_555
O2A Cu1 1_555 1_555
H1A O2A 1_555 1_555
H2A O2A 1_555 1_555
O1A_2 Cu1 1_555 1_555
Cu1_2 O1A 1_555 1_555

#END
