
#######################################################################
#
#                 Cambridge Crystallographic Data Centre
#                                CCDC 
#
#######################################################################
#
# If this CIF has been generated from an entry in the Cambridge 
# Structural Database, then it will include bibliographic, chemical, 
# crystal, experimental, refinement or atomic coordinate data resulting 
# from the CCDC's data processing and validation procedures.
#
#######################################################################

data_QOPLIQ
_symmetry_cell_setting           triclinic
_symmetry_space_group_name_H-M   'P -1'
_symmetry_Int_Tables_number      2
_space_group_name_Hall           '-P 1'
loop_
_symmetry_equiv_pos_site_id
_symmetry_equiv_pos_as_xyz
1 x,y,z
2 -x,-y,-z
_cell_length_a                   5.727(3)
_cell_length_b                   7.455(4)
_cell_length_c                   12.648(6)
_cell_angle_alpha                97.70(1)
_cell_angle_beta                 104.16(1)
_cell_angle_gamma                106.43(1)
_cell_volume                     490.085
loop_
_atom_site_label
_atom_site_type_symbol
_atom_site_fract_x
_atom_site_fract_y
_atom_site_fract_z
Cu1 Cu 0.0000 0.5000 0.5000
Cu2 Cu 0.42239(9) 0.35227(7) 0.39455(4)
O1 O 0.3017(6) 0.4062(4) 0.5245(2)
O2 O 0.1608(7) 0.1051(5) 0.3221(3)
O3 O 0.2958(6) 0.7893(5) 0.5003(3)
O4 O 0.0404(6) 0.5687(5) 0.6579(2)
O5 O 0.4608(6) 0.6638(5) 0.7375(3)
C1 C 0.2335(9) 0.6235(6) 0.7406(4)
C2 C 0.1873(9) 0.6424(8) 0.8538(4)
C3 C 0.4235(10) 0.7222(8) 0.9547(4)
C4 C 0.3576(9) 0.7351(8) 1.0642(4)
C5 C 0.5943(9) 0.8145(8) 1.1654(4)
C6 C 0.5486(8) 0.8408(6) 1.2776(4)
O6 O 0.3251(6) 0.8017(5) 1.2838(3)
O7 O 0.7441(6) 0.9015(5) 1.3644(3)
H1 H 0.2792(93) 0.3313(71) 0.5561(41)
H2 H 0.060(12) 0.0651(79) 0.3536(46)
H3 H 0.209(13) 0.0306(99) 0.2978(56)
H4 H 0.2842(90) 0.8894(76) 0.5312(40)
H5 H 0.321(10) 0.7884(76) 0.4483(47)
H6 H 0.0911(98) 0.7106(73) 0.8514(41)
H7 H 0.082(12) 0.5160(88) 0.8532(47)
H8 H 0.5268(98) 0.6480(72) 0.9569(40)
H9 H 0.528(11) 0.8378(87) 0.9515(46)
H10 H 0.251(13) 0.8257(91) 1.0650(51)
H11 H 0.277(10) 0.6215(82) 1.0739(43)
H12 H 0.685(11) 0.9252(83) 1.1596(43)
H13 H 0.694(12) 0.7377(89) 1.1650(49)
O1A O -0.3017(6) 0.5938(4) 0.4755(2)
H1A H -0.2792(93) 0.6687(71) 0.4439(41)
O3A O -0.2958(6) 0.2107(5) 0.4997(3)
H4A H -0.2842(90) 0.1106(76) 0.4688(40)
H5A H -0.321(10) 0.2116(76) 0.5517(47)
O4A O -0.0404(6) 0.4313(5) 0.3421(2)
O5A O -0.4608(6) 0.3362(5) 0.2625(3)
C1A C -0.2335(9) 0.3765(6) 0.2594(4)
C2A C -0.1873(9) 0.3576(8) 0.1462(4)
C3A C -0.4235(10) 0.2778(8) 0.0453(4)
C4A C -0.3576(9) 0.2649(8) -0.0642(4)
C5A C -0.5943(9) 0.1855(8) -0.1654(4)
C6A C -0.5486(8) 0.1592(6) -0.2776(4)
O6A O -0.3251(6) 0.1983(5) -0.2838(3)
O7A O -0.7441(6) 0.0985(5) -0.3644(3)
H6A H -0.0911(98) 0.2894(73) 0.1486(41)
H7A H -0.082(12) 0.4840(88) 0.1468(47)
H8A H -0.5268(98) 0.3520(72) 0.0431(40)
H9A H -0.528(11) 0.1622(87) 0.0485(46)
H10A H -0.251(13) 0.1743(91) -0.0650(51)
H11A H -0.277(10) 0.3785(82) -0.0739(43)
H12A H -0.685(11) 0.0748(83) -0.1596(43)
H13A H -0.694(12) 0.2623(89) -0.1650(49)
Cu2A Cu -0.42239(9) 0.64773(7) 0.60545(4)
O2A O -0.1608(7) 0.8949(5) 0.6779(3)
H2A H -0.060(12) 0.9349(79) 0.6464(46)
H3A H -0.209(13) 0.9694(99) 0.7022(56)
O1A_2 O 0.6983(6) 0.5938(4) 0.4755(2)
O3A_2 O 0.7042(6) 0.2107(5) 0.4997(3)
O5A_2 O 0.5392(6) 0.3362(5) 0.2625(3)
Cu2A_2 Cu 0.57761(9) 0.64773(7) 0.60545(4)
Cu2_2 Cu -0.57761(9) 0.35227(7) 0.39455(4)
O1_2 O -0.6983(6) 0.4062(4) 0.5245(2)
O3_2 O -0.7042(6) 0.7893(5) 0.5003(3)
O5_2 O -0.5392(6) 0.6638(5) 0.7375(3)
H1A_2 H 0.7208(93) 0.6687(71) 0.4439(41)
H4A_2 H 0.7158(90) 0.1106(76) 0.4688(40)
H5A_2 H 0.679(10) 0.2116(76) 0.5517(47)
H1_2 H -0.7208(93) 0.3313(71) 0.5561(41)
H4_2 H -0.7158(90) 0.8894(76) 0.5312(40)
H5_2 H -0.679(10) 0.7884(76) 0.4483(47)
loop_
_geom_bond_atom_site_label_1
_geom_bond_atom_site_label_2
_geom_bond_site_symmetry_1
_geom_bond_site_symmetry_2
Cu1 O1 1_555 1_555
Cu2 O1 1_555 1_555
O1 H1 1_555 1_555
O2 Cu2 1_555 1_555
O3 Cu1 1_555 1_555
O4 Cu1 1_555 1_555
O5 C1 1_555 1_555
C1 O4 1_555 1_555
C2 C1 1_555 1_555
C3 C2 1_555 1_555
C4 C3 1_555 1_555
C5 C4 1_555 1_555
C6 C5 1_555 1_555
O6 C6 1_555 1_555
O7 C6 1_555 1_555
H2 O2 1_555 1_555
H3 O2 1_555 1_555
H4 O3 1_555 1_555
H5 O3 1_555 1_555
H6 C2 1_555 1_555
H7 C2 1_555 1_555
H8 C3 1_555 1_555
H9 C3 1_555 1_555
H10 C4 1_555 1_555
H11 C4 1_555 1_555
H12 C5 1_555 1_555
H13 C5 1_555 1_555
O1A Cu1 1_555 1_555
H1A O1A 1_555 1_555
O3A Cu1 1_555 1_555
H4A O3A 1_555 1_555
H5A O3A 1_555 1_555
O4A Cu1 1_555 1_555
O5A C1A 1_555 1_555
C1A O4A 1_555 1_555
C2A C1A 1_555 1_555
C3A C2A 1_555 1_555
C4A C3A 1_555 1_555
C5A C4A 1_555 1_555
C6A C5A 1_555 1_555
O6A C6A 1_555 1_555
O7A C6A 1_555 1_555
H6A C2A 1_555 1_555
H7A C2A 1_555 1_555
H8A C3A 1_555 1_555
H9A C3A 1_555 1_555
H10A C4A 1_555 1_555
H11A C4A 1_555 1_555
H12A C5A 1_555 1_555
H13A C5A 1_555 1_555
Cu2A O1A 1_555 1_555
O2A Cu2A 1_555 1_555
H2A O2A 1_555 1_555
H3A O2A 1_555 1_555
O1A_2 Cu2 1_555 1_555
O3A_2 Cu2 1_555 1_555
O5A_2 Cu2 1_555 1_555
Cu2A_2 O1 1_555 1_555
Cu2_2 O1A 1_555 1_555
O1_2 Cu2A 1_555 1_555
O3_2 Cu2A 1_555 1_555
O5_2 Cu2A 1_555 1_555
H1A_2 O1A_2 1_555 1_555
H4A_2 O3A_2 1_555 1_555
H5A_2 O3A_2 1_555 1_555
H1_2 O1_2 1_555 1_555
H4_2 O3_2 1_555 1_555
H5_2 O3_2 1_555 1_555
O3 Cu2A_2 1_555 1_555
O5 Cu2A_2 1_555 1_555
O3A Cu2_2 1_555 1_555
O5A Cu2_2 1_555 1_555
O1A_2 Cu2A_2 1_555 1_555
Cu2_2 O1_2 1_555 1_555

#END
