
#######################################################################
#
#                 Cambridge Crystallographic Data Centre
#                                CCDC 
#
#######################################################################
#
# If this CIF has been generated from an entry in the Cambridge 
# Structural Database, then it will include bibliographic, chemical, 
# crystal, experimental, refinement or atomic coordinate data resulting 
# from the CCDC's data processing and validation procedures.
#
#######################################################################

data_QOPLAI01
_symmetry_cell_setting           monoclinic
_symmetry_space_group_name_H-M   'C 2/c'
_symmetry_Int_Tables_number      15
_space_group_name_Hall           '-C 2yn'
loop_
_symmetry_equiv_pos_site_id
_symmetry_equiv_pos_as_xyz
1 x,y,z
2 x,-y,1/2+z
3 1/2+x,1/2+y,z
4 1/2+x,1/2-y,1/2+z
5 -x,-y,-z
6 -x,y,1/2-z
7 1/2-x,1/2-y,-z
8 1/2-x,1/2+y,1/2-z
_cell_length_a                   16.4950(10)
_cell_length_b                   5.578
_cell_length_c                   11.0730(10)
_cell_angle_alpha                90
_cell_angle_beta                 95.480(10)
_cell_angle_gamma                90
_cell_volume                     1014.16
loop_
_atom_site_label
_atom_site_type_symbol
_atom_site_fract_x
_atom_site_fract_y
_atom_site_fract_z
Cd1 Cd 0.5000 0.15990(5) 0.2500
O1 O 0.4380(3) 0.2349(8) 0.0564(3)
O2 O 0.4043(2) 0.4654(5) 0.2031(3)
O3 O 0.5842(2) -0.1034(7) 0.1777(3)
C1 C 0.3978(3) 0.4080(11) 0.0927(4)
C2 C 0.3436(5) 0.5484(13) 0.0007(5)
H1 H 0.3774 0.6581 -0.0404
H2 H 0.3192 0.4374 -0.0597
C3 C 0.2773(4) 0.6886(9) 0.0497(7)
H3 H 0.3011 0.8087 0.1056
H4 H 0.2446 0.5821 0.0945
H5 H 0.5891 -0.2530 0.2127
H6 H 0.5765 -0.1615 0.0972
C3F C 0.2227(4) 0.8114(9) -0.0497(7)
C2F C 0.1564(5) 0.9516(13) -0.0007(5)
C1F C 0.1022(3) 1.0920(11) -0.0927(4)
O1F O 0.0620(3) 1.2651(8) -0.0564(3)
O2F O 0.0957(2) 1.0346(5) -0.2031(3)
H1F H 0.1226 0.8419 0.0404
H2F H 0.1808 1.0626 0.0597
H3F H 0.1989 0.6913 -0.1056
H4F H 0.2554 0.9179 -0.0945
O3E O 0.4158(2) -0.1034(7) 0.3223(3)
H5E H 0.4109 -0.2530 0.2873
H6E H 0.4235 -0.1615 0.4028
O1E O 0.5620(3) 0.2349(8) 0.4436(3)
O2E O 0.5957(2) 0.4654(5) 0.2969(3)
Cd1C Cd 0.0000 1.34010(5) -0.2500
loop_
_geom_bond_atom_site_label_1
_geom_bond_atom_site_label_2
_geom_bond_site_symmetry_1
_geom_bond_site_symmetry_2
Cd1 O1 1_555 1_555
O1 C1 1_555 1_555
O2 Cd1 1_555 1_555
O3 Cd1 1_555 1_555
C1 O2 1_555 1_555
C2 C1 1_555 1_555
H1 C2 1_555 1_555
H2 C2 1_555 1_555
C3 C2 1_555 1_555
H3 C3 1_555 1_555
H4 C3 1_555 1_555
H5 O3 1_555 1_555
H6 O3 1_555 1_555
C3F C3 1_555 1_555
C2F C3F 1_555 1_555
C1F C2F 1_555 1_555
O1F C1F 1_555 1_555
O2F C1F 1_555 1_555
H1F C2F 1_555 1_555
H2F C2F 1_555 1_555
H3F C3F 1_555 1_555
H4F C3F 1_555 1_555
O3E Cd1 1_555 1_555
H5E O3E 1_555 1_555
H6E O3E 1_555 1_555
O1E Cd1 1_555 1_555
O2E Cd1 1_555 1_555
Cd1C O1F 1_555 1_555
O2F Cd1C 1_555 1_555

#END
