
#######################################################################
#
#                 Cambridge Crystallographic Data Centre
#                                CCDC 
#
#######################################################################
#
# If this CIF has been generated from an entry in the Cambridge 
# Structural Database, then it will include bibliographic, chemical, 
# crystal, experimental, refinement or atomic coordinate data resulting 
# from the CCDC's data processing and validation procedures.
#
#######################################################################

data_QOPLEM01
_symmetry_cell_setting           triclinic
_symmetry_space_group_name_H-M   'P -1'
_symmetry_Int_Tables_number      2
_space_group_name_Hall           '-P 1'
loop_
_symmetry_equiv_pos_site_id
_symmetry_equiv_pos_as_xyz
1 x,y,z
2 -x,-y,-z
_cell_length_a                   3.8610(10)
_cell_length_b                   4.9280(10)
_cell_length_c                   11.326(2)
_cell_angle_alpha                84.34(2)
_cell_angle_beta                 87.080(10)
_cell_angle_gamma                83.45(2)
_cell_volume                     212.878
loop_
_atom_site_label
_atom_site_type_symbol
_atom_site_fract_x
_atom_site_fract_y
_atom_site_fract_z
Cu1 Cu 0.5000 0.0000 0.5000
C1 C 0.4047(6) -0.2584(5) 0.7300(2)
C2 C 0.5169(6) -0.4766(5) 0.8279(2)
C3 C 0.4477(6) -0.3847(5) 0.9523(2)
O1 O 0.5481(6) -0.2942(4) 0.62577(16)
O2 O 0.1904(5) -0.0608(4) 0.75017(18)
O3 O 0.1752(5) -0.2022(4) 0.42384(17)
H1 H 0.3925 -0.6305 0.8100
H2 H 0.7504 -0.5296 0.8100
H3 H 0.5704 -0.2185 0.9632
H4 H 0.1980 -0.3234 0.9689
H5 H 0.2387 -0.3626 0.4156
H6 H 0.1217 -0.1382 0.3597
C3A C 0.5523(6) -0.6153(5) 1.0477(2)
C2A C 0.4831(6) -0.5234(5) 1.1721(2)
C1A C 0.5953(6) -0.7416(5) 1.2700(2)
O1A O 0.4519(6) -0.7058(4) 1.37423(16)
O2A O 0.8096(5) -0.9392(4) 1.24983(18)
H1A H 0.6075 -0.3695 1.1900
H2A H 0.2496 -0.4704 1.1900
H3A H 0.4296 -0.7815 1.0368
H4A H 0.8020 -0.6766 1.0311
O3A O 0.8248(5) 0.2022(4) 0.57616(17)
H5A H 0.7613 0.3626 0.5844
H6A H 0.8783 0.1382 0.6403
O1A_2 O 0.4519(6) 0.2942(4) 0.37423(16)
Cu1_2 Cu 0.5000 -1.0000 1.5000
loop_
_geom_bond_atom_site_label_1
_geom_bond_atom_site_label_2
_geom_bond_site_symmetry_1
_geom_bond_site_symmetry_2
Cu1 O1 1_555 1_555
C1 C2 1_555 1_555
C2 C3 1_555 1_555
C3 H3 1_555 1_555
O1 C1 1_555 1_555
O2 C1 1_555 1_555
O3 Cu1 1_555 1_555
H1 C2 1_555 1_555
H2 C2 1_555 1_555
H4 C3 1_555 1_555
H5 O3 1_555 1_555
H6 O3 1_555 1_555
C3A C3 1_555 1_555
C2A C3A 1_555 1_555
C1A C2A 1_555 1_555
O1A C1A 1_555 1_555
O2A C1A 1_555 1_555
H1A C2A 1_555 1_555
H2A C2A 1_555 1_555
H3A C3A 1_555 1_555
H4A C3A 1_555 1_555
O3A Cu1 1_555 1_555
H5A O3A 1_555 1_555
H6A O3A 1_555 1_555
O1A_2 Cu1 1_555 1_555
Cu1_2 O1A 1_555 1_555

#END
