
#######################################################################
#
#                 Cambridge Crystallographic Data Centre
#                                CCDC 
#
#######################################################################
#
# If this CIF has been generated from an entry in the Cambridge 
# Structural Database, then it will include bibliographic, chemical, 
# crystal, experimental, refinement or atomic coordinate data resulting 
# from the CCDC's data processing and validation procedures.
#
#######################################################################

data_QOPRUK
_symmetry_cell_setting           triclinic
_symmetry_space_group_name_H-M   'P -1'
_symmetry_Int_Tables_number      2
_space_group_name_Hall           '-P 1'
loop_
_symmetry_equiv_pos_site_id
_symmetry_equiv_pos_as_xyz
1 x,y,z
2 -x,-y,-z
_cell_length_a                   10.1057(12)
_cell_length_b                   13.0171(15)
_cell_length_c                   13.1887(15)
_cell_angle_alpha                72.717(3)
_cell_angle_beta                 83.335(4)
_cell_angle_gamma                85.693(4)
_cell_volume                     1643.89
loop_
_atom_site_label
_atom_site_type_symbol
_atom_site_fract_x
_atom_site_fract_y
_atom_site_fract_z
La1 La 0.291071(10) 0.555924(8) 0.489074(8)
Cl1 Cl 0.08085(6) 0.46314(5) 0.14966(4)
Cl2 Cl 0.74519(5) 0.49972(5) 0.12192(4)
Cl3 Cl 0.43204(6) 0.14361(5) 0.48566(4)
F1 F -0.03123(18) 0.85005(15) -0.04670(13)
F2 F -0.09085(16) 0.90330(12) 0.13645(15)
F3 F 0.47596(15) 0.29513(12) -0.04330(11)
F4 F 0.27640(15) 0.26771(11) 0.11513(11)
F5 F 0.43999(18) -0.09472(12) 0.86692(13)
F6 F 0.39648(15) 0.07487(12) 0.94471(10)
O1 O 0.10368(13) 0.53282(12) 0.39556(11)
O2 O -0.08698(13) 0.46528(11) 0.38009(10)
O3 O 0.39455(13) 0.49247(12) 0.33761(11)
O4 O 0.61482(13) 0.45416(12) 0.34228(11)
O5 O 0.26165(13) 0.35288(11) 0.56733(11)
O6 O 0.47684(13) 0.38005(11) 0.55392(11)
N1 N 0.23111(16) 0.74794(13) 0.52869(13)
N2 N 0.27056(15) 0.73671(13) 0.32368(13)
C1 C -0.00712(18) 0.61787(17) 0.24309(15)
C2 C 0.0250(2) 0.59288(19) 0.14742(16)
C3 C 0.0172(2) 0.6698(2) 0.04883(18)
H1 H 0.0395 0.6515 -0.0158
C4 C -0.0235(3) 0.7727(2) 0.0480(2)
C5 C -0.0543(2) 0.79994(19) 0.1409(2)
C6 C -0.0463(2) 0.72421(18) 0.23879(18)
H2 H -0.0672 0.7441 0.3027
C7 C 0.00400(18) 0.53208(15) 0.34885(14)
C8 C 0.50461(19) 0.41402(16) 0.21005(15)
C9 C 0.6065(2) 0.42677(17) 0.12714(15)
C10 C 0.5983(2) 0.38696(18) 0.04126(16)
H3 H 0.6681 0.3968 -0.0152
C11 C 0.4871(2) 0.33305(17) 0.03992(16)
C12 C 0.3850(2) 0.31955(16) 0.12105(17)
C13 C 0.3920(2) 0.35953(16) 0.20560(16)
H4 H 0.3207 0.3503 0.2608
C14 C 0.50560(19) 0.45756(16) 0.30453(15)
C15 C 0.39983(18) 0.21012(15) 0.66187(15)
C16 C 0.4229(2) 0.12202(16) 0.62300(16)
C17 C 0.4373(2) 0.01823(17) 0.69041(19)
H5 H 0.4531 -0.0418 0.6629
C18 C 0.4282(2) 0.00514(17) 0.79799(19)
C19 C 0.4054(2) 0.09156(18) 0.83873(17)
C20 C 0.3914(2) 0.19454(16) 0.77125(16)
H6 H 0.3762 0.2542 0.7993
C21 C 0.37831(18) 0.32148(15) 0.58844(14)
C22 C 0.2094(2) 0.75362(18) 0.62865(17)
H7 H 0.2162 0.6891 0.6856
C23 C 0.1768(2) 0.8509(2) 0.6533(2)
H8 H 0.1625 0.8516 0.7255
C24 C 0.1658(2) 0.94414(19) 0.5726(2)
H9 H 0.1440 1.0104 0.5883
C25 C 0.1867(2) 0.94189(17) 0.4665(2)
C26 C 0.1741(2) 1.03632(18) 0.3772(2)
H10 H 0.1539 1.1044 0.3894
C27 C 0.1903(2) 1.02990(17) 0.2766(2)
H11 H 0.1800 1.0934 0.2191
C28 C 0.2229(2) 0.92887(17) 0.25464(19)
C29 C 0.2411(2) 0.91982(19) 0.15048(18)
H12 H 0.2303 0.9816 0.0913
C30 C 0.2745(2) 0.82179(19) 0.13468(17)
H13 H 0.2883 0.8147 0.0646
C31 C 0.28826(19) 0.73182(17) 0.22362(16)
H14 H 0.3114 0.6639 0.2119
C32 C 0.23888(19) 0.83428(16) 0.33939(16)
C33 C 0.21895(19) 0.84096(16) 0.44803(17)
La1A La -0.291071(10) 0.444076(8) 0.510926(8)
La1A_2 La 0.708929(10) 0.444076(8) 0.510926(8)
O2A O 0.08698(13) 0.53472(11) 0.61991(10)
O4A O 0.38518(13) 0.54584(12) 0.65772(11)
O6A O 0.52316(13) 0.61995(11) 0.44608(11)
O7 O -0.0877(2) 0.74024(17) 0.5376(3)
H15 H -0.142(2) 0.715(2) 0.509(2)
H16 H -0.028(3) 0.693(2) 0.560(3)
loop_
_geom_bond_atom_site_label_1
_geom_bond_atom_site_label_2
_geom_bond_site_symmetry_1
_geom_bond_site_symmetry_2
La1 O1 1_555 1_555
Cl1 C2 1_555 1_555
Cl2 C9 1_555 1_555
Cl3 C16 1_555 1_555
F1 C4 1_555 1_555
F2 C5 1_555 1_555
F3 C11 1_555 1_555
F4 C12 1_555 1_555
F5 C18 1_555 1_555
F6 C19 1_555 1_555
O1 C7 1_555 1_555
O2 C7 1_555 1_555
O3 La1 1_555 1_555
O4 C14 1_555 1_555
O5 La1 1_555 1_555
O6 La1 1_555 1_555
N1 La1 1_555 1_555
N2 La1 1_555 1_555
C1 C2 1_555 1_555
C2 C3 1_555 1_555
C3 H1 1_555 1_555
C4 C3 1_555 1_555
C5 C4 1_555 1_555
C6 C1 1_555 1_555
H2 C6 1_555 1_555
C7 C1 1_555 1_555
C8 C9 1_555 1_555
C9 C10 1_555 1_555
C10 H3 1_555 1_555
C11 C10 1_555 1_555
C12 C11 1_555 1_555
C13 C8 1_555 1_555
H4 C13 1_555 1_555
C14 O3 1_555 1_555
C15 C16 1_555 1_555
C16 C17 1_555 1_555
C17 H5 1_555 1_555
C18 C17 1_555 1_555
C19 C18 1_555 1_555
C20 C15 1_555 1_555
H6 C20 1_555 1_555
C21 O5 1_555 1_555
C22 N1 1_555 1_555
H7 C22 1_555 1_555
C23 C22 1_555 1_555
H8 C23 1_555 1_555
C24 C23 1_555 1_555
H9 C24 1_555 1_555
C25 C24 1_555 1_555
C26 C25 1_555 1_555
H10 C26 1_555 1_555
C27 C26 1_555 1_555
H11 C27 1_555 1_555
C28 C27 1_555 1_555
C29 C28 1_555 1_555
H12 C29 1_555 1_555
C30 C29 1_555 1_555
H13 C30 1_555 1_555
C31 N2 1_555 1_555
H14 C31 1_555 1_555
C32 N2 1_555 1_555
C33 N1 1_555 1_555
O7 H15 1_555 1_555
H16 O7 1_555 1_555
La1A O2 1_555 1_555
La1A_2 O4 1_555 1_555
O2A La1 1_555 1_555
O4A La1 1_555 1_555
O6A La1 1_555 1_555
O6 C21 1_555 1_555
O6 La1A_2 1_555 1_555
C5 C6 1_555 1_555
C8 C14 1_555 1_555
C12 C13 1_555 1_555
C15 C21 1_555 1_555
C19 C20 1_555 1_555
C25 C33 1_555 1_555
C28 C32 1_555 1_555
C30 C31 1_555 1_555
C32 C33 1_555 1_555
La1A_2 O6A 1_555 1_555

#END
