
#######################################################################
#
#                 Cambridge Crystallographic Data Centre
#                                CCDC 
#
#######################################################################
#
# If this CIF has been generated from an entry in the Cambridge 
# Structural Database, then it will include bibliographic, chemical, 
# crystal, experimental, refinement or atomic coordinate data resulting 
# from the CCDC's data processing and validation procedures.
#
#######################################################################

data_QOPSOF
_symmetry_cell_setting           triclinic
_symmetry_space_group_name_H-M   'P -1'
_symmetry_Int_Tables_number      2
_space_group_name_Hall           '-P 1'
loop_
_symmetry_equiv_pos_site_id
_symmetry_equiv_pos_as_xyz
1 x,y,z
2 -x,-y,-z
_cell_length_a                   7.1672(8)
_cell_length_b                   10.3283(11)
_cell_length_c                   16.7824(18)
_cell_angle_alpha                73.281(2)
_cell_angle_beta                 87.979(2)
_cell_angle_gamma                88.246(2)
_cell_volume                     1188.79
loop_
_atom_site_label
_atom_site_type_symbol
_atom_site_fract_x
_atom_site_fract_y
_atom_site_fract_z
Nd1 Nd 0.65049(7) 0.62113(4) 0.23389(3)
O1 O 1.0800(11) 0.5249(7) 0.3805(5)
O2 O 0.8736(10) 0.4472(7) 0.3100(5)
O3 O 1.3289(12) -0.0859(8) 0.4657(6)
O4 O 0.6932(10) 0.4663(6) 0.1433(4)
O5 O 0.4939(11) 0.4036(7) 0.2500(5)
O6 O 0.6391(11) -0.1412(6) 0.1604(5)
O7 O 0.5744(11) 0.5494(8) 0.3866(5)
H1 H 0.6286 0.4850 0.4228
H2 H 0.4861 0.5900 0.4058
O8 O 0.3383(10) 0.6992(8) 0.2756(5)
H3 H 0.2832 0.7596 0.2371
H4 H 0.2710 0.6325 0.3012
O9 O 0.4420(10) 0.6830(7) 0.1067(5)
H5 H 0.3814 0.6225 0.0943
H6 H 0.3911 0.7616 0.0949
O10 O 0.8582(10) 0.7502(7) 0.3055(5)
H7 H 0.9314 0.8033 0.2712
H8 H 0.9384 0.6864 0.3317
O11 O 0.9399(10) 0.6714(7) 0.1495(5)
H9 H 1.0077 0.7445 0.1514
H10 H 1.0137 0.6226 0.1285
N1 N 1.3241(13) 0.1374(9) 0.4555(6)
H11 H 1.4274 0.1255 0.4815
N2 N 0.6733(12) 0.0840(8) 0.1085(5)
H12 H 0.7131 0.0713 0.0624
C1 C 1.0065(14) 0.4309(10) 0.3583(6)
C2 C 1.0864(14) 0.2902(10) 0.3898(6)
C3 C 0.9972(15) 0.1792(11) 0.3755(7)
H13 H 0.8843 0.1933 0.3483
C4 C 1.0731(15) 0.0517(11) 0.4008(7)
H14 H 1.0109 -0.0197 0.3909
C5 C 1.2453(15) 0.0265(11) 0.4418(7)
C6 C 1.2497(15) 0.2648(11) 0.4307(7)
H15 H 1.3113 0.3353 0.4418
C7 C 0.5927(14) 0.3774(10) 0.1926(6)
C8 C 0.5975(14) 0.2382(9) 0.1842(6)
C9 C 0.5387(15) 0.1280(10) 0.2513(7)
H16 H 0.4899 0.1441 0.2997
C10 C 0.5521(16) -0.0005(10) 0.2463(7)
H17 H 0.5154 -0.0718 0.2916
C11 C 0.6224(13) -0.0268(9) 0.1719(6)
C12 C 0.6651(14) 0.2121(10) 0.1138(6)
H18 H 0.7060 0.2827 0.0690
Nd1_2 Nd 0.65049(7) -0.37887(4) 0.23389(3)
O6_2 O 0.6391(11) 0.8588(6) 0.1604(5)
O12 O 0.2437(13) -0.0720(7) 0.0538(5)
O13 O 0.1097(11) -0.1058(7) 0.1786(5)
O14 O 0.1723(11) 0.5270(7) 0.0678(5)
N3 N 0.2317(14) 0.2092(10) 0.0296(6)
H19 H 0.2739 0.1801 -0.0108
C13 C 0.1736(14) -0.0294(10) 0.1110(6)
C14 C 0.1674(13) 0.1197(9) 0.1011(6)
C15 C 0.1013(15) 0.1728(10) 0.1657(6)
H20 H 0.0574 0.1141 0.2155
C16 C 0.1003(15) 0.3080(10) 0.1568(7)
H21 H 0.0556 0.3402 0.2004
C17 C 0.1666(13) 0.4003(10) 0.0819(6)
C18 C 0.2298(12) 0.3435(8) 0.0215(5)
H22 H 0.2745 0.4009 -0.0285
O15 O 0.7102(12) 0.3569(8) 0.5209(5)
H23 H 0.8024 0.3968 0.5392
H24 H 0.7472 0.2806 0.5217
loop_
_geom_bond_atom_site_label_1
_geom_bond_atom_site_label_2
_geom_bond_site_symmetry_1
_geom_bond_site_symmetry_2
Nd1 O2 1_555 1_555
O1 C1 1_555 1_555
O2 C1 1_555 1_555
O3 C5 1_555 1_555
O4 Nd1 1_555 1_555
O5 Nd1 1_555 1_555
O6 C11 1_555 1_555
O7 Nd1 1_555 1_555
H1 O7 1_555 1_555
H2 O7 1_555 1_555
O8 Nd1 1_555 1_555
H3 O8 1_555 1_555
H4 O8 1_555 1_555
O9 Nd1 1_555 1_555
H5 O9 1_555 1_555
H6 O9 1_555 1_555
O10 Nd1 1_555 1_555
H7 O10 1_555 1_555
H8 O10 1_555 1_555
O11 Nd1 1_555 1_555
H9 O11 1_555 1_555
H10 O11 1_555 1_555
N1 H11 1_555 1_555
N2 H12 1_555 1_555
C1 C2 1_555 1_555
C2 C3 1_555 1_555
C3 H13 1_555 1_555
C4 C3 1_555 1_555
H14 C4 1_555 1_555
C5 N1 1_555 1_555
C6 N1 1_555 1_555
H15 C6 1_555 1_555
C7 O4 1_555 1_555
C8 C7 1_555 1_555
C9 C8 1_555 1_555
H16 C9 1_555 1_555
C10 C9 1_555 1_555
H17 C10 1_555 1_555
C11 N2 1_555 1_555
C12 N2 1_555 1_555
H18 C12 1_555 1_555
O12 C13 1_555 1_555
O13 C13 1_555 1_555
O14 C17 1_555 1_555
N3 H19 1_555 1_555
C13 C14 1_555 1_555
C14 N3 1_555 1_555
C15 C14 1_555 1_555
H20 C15 1_555 1_555
C16 C15 1_555 1_555
H21 C16 1_555 1_555
C17 C16 1_555 1_555
C18 N3 1_555 1_555
H22 C18 1_555 1_555
O15 H23 1_555 1_555
H24 O15 1_555 1_555
Nd1_2 O6 1_555 1_555
O6_2 Nd1 1_555 1_555
O5 C7 1_555 1_555
C2 C6 1_555 1_555
C4 C5 1_555 1_555
C8 C12 1_555 1_555
C10 C11 1_555 1_555
C17 C18 1_555 1_555

#END
