
#######################################################################
#
#                 Cambridge Crystallographic Data Centre
#                                CCDC 
#
#######################################################################
#
# If this CIF has been generated from an entry in the Cambridge 
# Structural Database, then it will include bibliographic, chemical, 
# crystal, experimental, refinement or atomic coordinate data resulting 
# from the CCDC's data processing and validation procedures.
#
#######################################################################

data_QOPTOG
_symmetry_cell_setting           triclinic
_symmetry_space_group_name_H-M   'P -1'
_symmetry_Int_Tables_number      2
_space_group_name_Hall           '-P 1'
loop_
_symmetry_equiv_pos_site_id
_symmetry_equiv_pos_as_xyz
1 x,y,z
2 -x,-y,-z
_cell_length_a                   9.579(4)
_cell_length_b                   10.158(5)
_cell_length_c                   11.299(5)
_cell_angle_alpha                86.121(7)
_cell_angle_beta                 66.034(6)
_cell_angle_gamma                71.671(7)
_cell_volume                     951.386
loop_
_atom_site_label
_atom_site_type_symbol
_atom_site_fract_x
_atom_site_fract_y
_atom_site_fract_z
C1 C 0.0867(11) 0.7756(10) 0.5298(9)
H1 H 0.1128 0.8539 0.5394
C2 C 0.0419(10) 0.6172(9) 0.4473(9)
C3 C 0.0126(10) 0.5899(11) 0.5783(9)
C4 C -0.0271(10) 0.4704(10) 0.6323(9)
H2 H -0.0427 0.4514 0.7176
C5 C 0.2079(13) 0.7595(12) -0.0089(12)
H3 H 0.1237 0.8347 -0.0117
C6 C 0.4216(12) 0.5752(11) -0.0712(10)
C7 C 0.3635(11) 0.6140(10) 0.0634(10)
C8 C 0.4457(11) 0.5371(9) 0.1360(9)
H4 H 0.4125 0.5606 0.2235
Cl1 Cl 0.2733(4) 0.9626(3) 0.2786(3)
Cl2 Cl -0.1185(4) 0.9754(3) 0.2605(3)
Co1 Co 0.11650(15) 0.84797(13) 0.26509(12)
N1 N 0.2322(9) 0.7279(8) 0.0968(7)
N2 N 0.3166(9) 0.6727(8) -0.1134(8)
H5 H 0.3199 0.6769 -0.1908
N3 N 0.0881(8) 0.7341(7) 0.4209(7)
N4 N 0.0434(9) 0.6922(8) 0.6237(8)
H6 H 0.0361 0.7019 0.7013
C1A C -0.0867(11) 0.2244(10) 0.4702(9)
H1A H -0.1128 0.1461 0.4606
C2A C -0.0419(10) 0.3828(9) 0.5527(9)
C3A C -0.0126(10) 0.4101(11) 0.4217(9)
C4A C 0.0271(10) 0.5296(10) 0.3677(9)
H2A H 0.0427 0.5486 0.2824
N3A N -0.0881(8) 0.2659(7) 0.5791(7)
N4A N -0.0434(9) 0.3078(8) 0.3763(8)
H6A H -0.0361 0.2981 0.2987
C5A C 0.7921(13) 0.2405(12) 0.0089(12)
H3A H 0.8763 0.1653 0.0117
C6A C 0.5784(12) 0.4248(11) 0.0712(10)
C7A C 0.6365(11) 0.3860(10) -0.0634(10)
C8A C 0.5543(11) 0.4629(9) -0.1360(9)
H4A H 0.5875 0.4394 -0.2235
N1A N 0.7678(9) 0.2721(8) -0.0968(7)
N2A N 0.6834(9) 0.3273(8) 0.1134(8)
H5A H 0.6801 0.3231 0.1908
Cl1A Cl -0.2733(4) 0.0374(3) 0.7214(3)
Cl2A Cl 0.1185(4) 0.0246(3) 0.7395(3)
Co1A Co -0.11650(15) 0.15203(13) 0.73491(12)
Co1A_2 Co 0.88350(15) 0.15203(13) -0.26509(12)
N1A_2 N -0.2322(9) 0.2721(8) 0.9032(7)
C9 C 0.800(2) 0.656(2) 1.1147(16)
H7 H 0.8513 0.5569 1.1028
H8 H 0.6909 0.6760 1.1784
H9 H 0.8572 0.6988 1.1438
C10 C 0.692(3) 0.883(3) 1.028(3)
H10 H 0.6812 0.9323 0.9551
H11 H 0.7468 0.9234 1.0629
H12 H 0.5872 0.8895 1.0936
O1 O 0.9649(9) 0.6974(9) 0.8854(7)
S1 S 0.7989(6) 0.7148(7) 0.9800(5)
C11 C 0.4042(19) 0.2074(15) 0.3901(17)
H13 H 0.3681 0.2419 0.3228
H14 H 0.3269 0.1703 0.4545
H15 H 0.5061 0.1356 0.3534
C12 C 0.5684(12) 0.3705(11) 0.3699(8)
H16 H 0.5836 0.4440 0.4075
H17 H 0.5562 0.3987 0.2909
H18 H 0.6601 0.2888 0.3514
O2 O 0.489(3) 0.250(3) 0.558(3)
S2 S 0.4247(4) 0.3404(4) 0.4605(4)
loop_
_geom_bond_atom_site_label_1
_geom_bond_atom_site_label_2
_geom_bond_site_symmetry_1
_geom_bond_site_symmetry_2
C1 H1 1_555 1_555
C2 C3 1_555 1_555
C3 C4 1_555 1_555
C4 H2 1_555 1_555
C5 H3 1_555 1_555
C6 C7 1_555 1_555
C7 C8 1_555 1_555
C8 H4 1_555 1_555
Cl1 Co1 1_555 1_555
Cl2 Co1 1_555 1_555
Co1 N1 1_555 1_555
N1 C5 1_555 1_555
N2 C5 1_555 1_555
H5 N2 1_555 1_555
N3 C1 1_555 1_555
N4 C1 1_555 1_555
H6 N4 1_555 1_555
C9 H7 1_555 1_555
H8 C9 1_555 1_555
H9 C9 1_555 1_555
C10 H10 1_555 1_555
H11 C10 1_555 1_555
H12 C10 1_555 1_555
O1 S1 1_555 1_555
S1 C9 1_555 1_555
C11 H13 1_555 1_555
H14 C11 1_555 1_555
H15 C11 1_555 1_555
C12 H16 1_555 1_555
H17 C12 1_555 1_555
H18 C12 1_555 1_555
O2 S2 1_555 1_555
S2 C11 1_555 1_555
C1A H1A 1_555 1_555
C2A C4 1_555 1_555
C3A C2A 1_555 1_555
C4A C2 1_555 1_555
H2A C4A 1_555 1_555
N3A C1A 1_555 1_555
N4A C1A 1_555 1_555
H6A N4A 1_555 1_555
C5A H3A 1_555 1_555
C6A C8 1_555 1_555
C7A C6A 1_555 1_555
C8A C6 1_555 1_555
H4A C8A 1_555 1_555
N1A C5A 1_555 1_555
N2A C5A 1_555 1_555
H5A N2A 1_555 1_555
Cl1A Co1A 1_555 1_555
Cl2A Co1A 1_555 1_555
Co1A N3A 1_555 1_555
Co1A_2 N1A 1_555 1_555
N1A_2 Co1A 1_555 1_555
C2 N3 1_555 1_555
C3 N4 1_555 1_555
C6 N2 1_555 1_555
C7 N1 1_555 1_555
Co1 N3 1_555 1_555
C10 S1 1_555 1_555
C12 S2 1_555 1_555
C2A N3A 1_555 1_555
C3A C4A 1_555 1_555
C3A N4A 1_555 1_555
C6A N2A 1_555 1_555
C7A C8A 1_555 1_555
C7A N1A 1_555 1_555

#END
