
#######################################################################
#
#                 Cambridge Crystallographic Data Centre
#                                CCDC 
#
#######################################################################
#
# If this CIF has been generated from an entry in the Cambridge 
# Structural Database, then it will include bibliographic, chemical, 
# crystal, experimental, refinement or atomic coordinate data resulting 
# from the CCDC's data processing and validation procedures.
#
#######################################################################

data_QOPTAQ
_symmetry_cell_setting           monoclinic
_symmetry_space_group_name_H-M   'P 21/n'
_symmetry_Int_Tables_number      14
_space_group_name_Hall           '-P 2yn'
loop_
_symmetry_equiv_pos_site_id
_symmetry_equiv_pos_as_xyz
1 x,y,z
2 1/2+x,1/2-y,1/2+z
3 -x,-y,-z
4 1/2-x,1/2+y,1/2-z
_cell_length_a                   10.6648(20)
_cell_length_b                   9.8853(20)
_cell_length_c                   17.8805(50)
_cell_angle_alpha                90
_cell_angle_beta                 91.513(13)
_cell_angle_gamma                90
_cell_volume                     1884.39
loop_
_atom_site_label
_atom_site_type_symbol
_atom_site_fract_x
_atom_site_fract_y
_atom_site_fract_z
Pb1 Pb 0.74657(2) 0.01643(2) 0.019511(13)
P1 P 0.49875(15) -0.10754(19) 0.12411(10)
P2 P 1.02669(15) -0.12710(19) 0.11563(9)
O1 O 0.6386(4) -0.0941(5) 0.1166(3)
O2 O 0.9261(4) -0.0322(5) 0.0894(3)
O3 O 0.4242(4) -0.0904(5) 0.0528(3)
O4 O 1.1423(5) -0.1304(5) 0.0698(3)
C1 C 0.6446(3) -0.2453(4) -0.0524(3)
C2 C 0.6493(3) -0.3672(4) -0.0909(3)
C3 C 0.7627(4) -0.4142(4) -0.1172(3)
C4 C 0.8716(3) -0.3392(5) -0.1050(3)
C5 C 0.8670(3) -0.2172(4) -0.0665(3)
C6 C 0.7535(4) -0.1702(4) -0.0402(2)
H1 H 0.5658 -0.2126 -0.0341
H2 H 0.5737 -0.4193 -0.0993
H3 H 0.7660 -0.4989 -0.1439
H4 H 0.9504 -0.3718 -0.1233
H5 H 0.9426 -0.1651 -0.0580
C7 C 0.7228(4) 0.3236(4) 0.04359(17)
C8 C 0.7209(5) 0.4441(3) 0.0836(2)
C9 C 0.7352(5) 0.4424(4) 0.1611(2)
C10 C 0.7514(4) 0.3202(5) 0.19857(17)
C11 C 0.7533(4) 0.1997(4) 0.1586(2)
C12 C 0.7390(4) 0.2014(4) 0.0811(2)
H6 H 0.7129 0.3248 -0.0102
H7 H 0.7097 0.5289 0.0576
H8 H 0.7339 0.5261 0.1889
H9 H 0.7613 0.3191 0.2524
H10 H 0.7645 0.1149 0.1846
C13 C 0.4493(7) 0.0101(9) 0.1931(4)
H11 H 0.4947 -0.0063 0.2393
H12 H 0.4656 0.1006 0.1764
H13 H 0.3611 -0.0007 0.2007
C14 C 0.4647(8) -0.2711(9) 0.1624(6)
H14 H 0.5081 -0.2813 0.2098
H15 H 0.3760 -0.2793 0.1692
H16 H 0.4918 -0.3402 0.1287
C15 C 0.9647(8) -0.2944(8) 0.1218(5)
H17 H 0.8937 -0.2941 0.1537
H18 H 0.9392 -0.3251 0.0728
H19 H 1.0280 -0.3538 0.1423
C16 C 1.0720(8) -0.0797(10) 0.2094(4)
H20 H 0.9991 -0.0770 0.2397
H21 H 1.1305 -0.1448 0.2296
H22 H 1.1106 0.0080 0.2089
O3B O 0.5758(4) 0.0904(5) -0.0528(3)
O4B O 0.8577(5) 0.1304(5) -0.0698(3)
Pb1B Pb 0.25343(2) -0.01643(2) -0.019511(13)
Pb1B_2 Pb 1.25343(2) -0.01643(2) -0.019511(13)
loop_
_geom_bond_atom_site_label_1
_geom_bond_atom_site_label_2
_geom_bond_site_symmetry_1
_geom_bond_site_symmetry_2
Pb1 O1 1_555 1_555
P1 O1 1_555 1_555
P2 O2 1_555 1_555
O2 Pb1 1_555 1_555
O3 P1 1_555 1_555
O4 P2 1_555 1_555
C1 C2 1_555 1_555
C2 C3 1_555 1_555
C3 C4 1_555 1_555
C4 C5 1_555 1_555
C5 C6 1_555 1_555
C6 Pb1 1_555 1_555
H1 C1 1_555 1_555
H2 C2 1_555 1_555
H3 C3 1_555 1_555
H4 C4 1_555 1_555
H5 C5 1_555 1_555
C7 C8 1_555 1_555
C8 C9 1_555 1_555
C9 C10 1_555 1_555
C10 C11 1_555 1_555
C11 C12 1_555 1_555
C12 Pb1 1_555 1_555
H6 C7 1_555 1_555
H7 C8 1_555 1_555
H8 C9 1_555 1_555
H9 C10 1_555 1_555
H10 C11 1_555 1_555
C13 P1 1_555 1_555
H11 C13 1_555 1_555
H12 C13 1_555 1_555
H13 C13 1_555 1_555
C14 P1 1_555 1_555
H14 C14 1_555 1_555
H15 C14 1_555 1_555
H16 C14 1_555 1_555
C15 P2 1_555 1_555
H17 C15 1_555 1_555
H18 C15 1_555 1_555
H19 C15 1_555 1_555
C16 P2 1_555 1_555
H20 C16 1_555 1_555
H21 C16 1_555 1_555
H22 C16 1_555 1_555
O3B Pb1 1_555 1_555
O4B Pb1 1_555 1_555
Pb1B O3 1_555 1_555
Pb1B_2 O4 1_555 1_555
C1 C6 1_555 1_555
C7 C12 1_555 1_555

#END
