
#######################################################################
#
#                 Cambridge Crystallographic Data Centre
#                                CCDC 
#
#######################################################################
#
# If this CIF has been generated from an entry in the Cambridge 
# Structural Database, then it will include bibliographic, chemical, 
# crystal, experimental, refinement or atomic coordinate data resulting 
# from the CCDC's data processing and validation procedures.
#
#######################################################################

data_QOPTUM
_symmetry_cell_setting           triclinic
_symmetry_space_group_name_H-M   'P -1'
_symmetry_Int_Tables_number      2
_space_group_name_Hall           '-P 1'
loop_
_symmetry_equiv_pos_site_id
_symmetry_equiv_pos_as_xyz
1 x,y,z
2 -x,-y,-z
_cell_length_a                   10.474(2)
_cell_length_b                   11.059(2)
_cell_length_c                   13.165(3)
_cell_angle_alpha                89.420(3)
_cell_angle_beta                 71.755(3)
_cell_angle_gamma                67.220(3)
_cell_volume                     1324.51
loop_
_atom_site_label
_atom_site_type_symbol
_atom_site_fract_x
_atom_site_fract_y
_atom_site_fract_z
C1 C -0.1856(7) 0.4471(6) 0.3625(5)
H1 H -0.2403 0.4324 0.3241
C2 C -0.1305(6) 0.5363(6) 0.4844(5)
C3 C -0.0053(6) 0.4266(6) 0.4187(5)
C4 C -0.0725(7) 0.5158(6) -0.0823(5)
H2 H -0.1177 0.5247 -0.1341
C5 C 0.1305(7) 0.3862(6) 0.4327(5)
H3 H 0.2135 0.3144 0.3908
C6 C 0.5062(7) 0.3214(7) 0.1119(6)
H4 H 0.4396 0.4042 0.1000
H5 H 0.5992 0.2932 0.0548
H6 H 0.5198 0.3319 0.1796
C7 C 0.4337(8) 0.1975(8) -0.0213(5)
H7 H 0.3844 0.1439 -0.0318
H8 H 0.5334 0.1610 -0.0698
H9 H 0.3839 0.2859 -0.0352
C8 C -0.0950(7) 0.1017(6) 0.4525(5)
H10 H -0.1549 0.1662 0.4223
C9 C 0.0572(6) 0.0570(6) 0.4156(4)
C10 C 0.1497(7) -0.0412(6) 0.4610(5)
C11 C 0.2822(7) 0.0243(6) 0.3263(5)
H11 H 0.3638 0.0300 0.2755
C12 C -0.0018(6) 0.4070(6) 0.0699(5)
C13 C -0.0717(6) 0.4240(6) -0.0087(5)
C14 C -0.1011(6) 0.2641(6) 0.0857(5)
H12 H -0.1310 0.1967 0.1093
Cu1 Cu 0.08059(8) 0.21811(7) 0.22844(6)
N1 N -0.2426(5) 0.5449(5) 0.4444(4)
H13 H -0.3320 0.6025 0.4681
N2 N -0.0442(6) 0.3740(5) 0.3420(4)
N3 N -0.0225(5) 0.3043(5) 0.1273(4)
N4 N -0.1334(6) 0.3329(5) 0.0043(4)
H14 H -0.1835 0.3213 -0.0325
N5 N 0.1436(6) -0.0106(5) 0.1037(5)
N6 N 0.1468(5) 0.0969(5) 0.3314(4)
N7 N 0.2927(6) -0.0592(5) 0.4012(4)
H15 H 0.3721 -0.1131 0.4103
O1 O 0.2741(5) 0.2692(4) 0.1872(3)
O2 O 0.2084(5) 0.0655(4) 0.1084(3)
O3 O 0.2008(7) -0.0976(5) 0.0255(5)
O4 O 0.0279(5) 0.0052(5) 0.1770(4)
S1 S 0.43282(16) 0.20097(15) 0.11443(12)
C1A C 0.1856(7) 0.5529(6) 0.6375(5)
H1A H 0.2403 0.5676 0.6759
C2A C 0.1305(6) 0.4637(6) 0.5156(5)
C3A C 0.0053(6) 0.5734(6) 0.5813(5)
C5A C -0.1305(7) 0.6138(6) 0.5673(5)
H3A H -0.2135 0.6856 0.6092
N1A N 0.2426(5) 0.4551(5) 0.5556(4)
H13A H 0.3320 0.3975 0.5319
N2A N 0.0442(6) 0.6260(5) 0.6580(4)
C4A C 0.0725(7) 0.4842(6) 0.0823(5)
H2A H 0.1177 0.4753 0.1341
C12A C 0.0018(6) 0.5930(6) -0.0699(5)
C13A C 0.0717(6) 0.5760(6) 0.0087(5)
C14A C 0.1011(6) 0.7359(6) -0.0857(5)
H12A H 0.1310 0.8033 -0.1093
N3A N 0.0225(5) 0.6957(5) -0.1273(4)
N4A N 0.1334(6) 0.6671(5) -0.0043(4)
H14A H 0.1835 0.6787 0.0325
C8A C 0.0950(7) -0.1017(6) 0.5475(5)
H10A H 0.1549 -0.1662 0.5777
C9A C -0.0572(6) -0.0570(6) 0.5844(4)
C10A C -0.1497(7) 0.0412(6) 0.5390(5)
C11A C -0.2822(7) -0.0243(6) 0.6737(5)
H11A H -0.3638 -0.0300 0.7245
N6A N -0.1468(5) -0.0969(5) 0.6686(4)
N7A N -0.2927(6) 0.0592(5) 0.5988(4)
H15A H -0.3721 0.1131 0.5897
C6A C -0.5062(7) -0.3214(7) 0.8881(6)
H4A H -0.4396 -0.4042 0.9000
H5A H -0.5992 -0.2932 0.9452
H6A H -0.5198 -0.3319 0.8204
C7A C -0.4337(8) -0.1975(8) 1.0213(5)
H7A H -0.3844 -0.1439 1.0318
H8A H -0.5334 -0.1610 1.0698
H9A H -0.3839 -0.2859 1.0352
Cu1A Cu -0.08059(8) -0.21811(7) 0.77156(6)
N5A N -0.1436(6) 0.0106(5) 0.8963(5)
O1A O -0.2741(5) -0.2692(4) 0.8128(3)
O2A O -0.2084(5) -0.0655(4) 0.8916(3)
O3A O -0.2008(7) 0.0976(5) 0.9745(5)
O4A O -0.0279(5) -0.0052(5) 0.8230(4)
S1A S -0.43282(16) -0.20097(15) 0.88557(12)
Cu1A_2 Cu -0.08059(8) 0.78189(7) -0.22844(6)
Cu1A_3 Cu -0.08059(8) 0.78189(7) 0.77156(6)
N2A_2 N 0.0442(6) -0.3740(5) 0.6580(4)
N3A_2 N 0.0225(5) -0.3043(5) 0.8727(4)
C15 C 0.0859(9) 0.7187(10) 0.3174(6)
H16 H 0.0141 0.7652 0.2843
H17 H 0.0558 0.7615 0.3891
H18 H 0.0945 0.6292 0.3205
C16 C 0.3698(9) 0.6121(8) 0.3089(6)
H19 H 0.3635 0.5279 0.3064
H20 H 0.3358 0.6501 0.3826
H21 H 0.4701 0.6003 0.2750
O5 O 0.2986(5) 0.6421(5) 0.1325(4)
S2 S 0.25926(19) 0.71883(16) 0.23978(13)
C17 C 0.7650(9) 0.8986(8) 0.1750(6)
H22 H 0.7844 0.8576 0.1047
H23 H 0.8485 0.9144 0.1759
H24 H 0.6803 0.9810 0.1916
C18 C 0.6848(9) 0.9006(8) 0.3907(6)
H25 H 0.5929 0.9740 0.4004
H26 H 0.7604 0.9324 0.3817
H27 H 0.6763 0.8542 0.4529
O6 O 0.5895(5) 0.7824(5) 0.2769(4)
S3 S 0.73072(18) 0.79115(17) 0.27381(14)
N8 N 0.4297(6) 0.7513(6) 0.6200(5)
O7 O 0.4507(6) 0.7108(6) 0.5233(4)
O8 O 0.3155(5) 0.7616(6) 0.6933(4)
O9 O 0.5237(5) 0.7821(6) 0.6382(5)
H28? H 0.2809 0.6936 0.0886
H29? H 0.5704 0.7339 0.3213
loop_
_geom_bond_atom_site_label_1
_geom_bond_atom_site_label_2
_geom_bond_site_symmetry_1
_geom_bond_site_symmetry_2
C1 H1 1_555 1_555
C2 C3 1_555 1_555
C3 C5 1_555 1_555
C4 H2 1_555 1_555
C5 H3 1_555 1_555
C6 H4 1_555 1_555
H5 C6 1_555 1_555
H6 C6 1_555 1_555
C7 H7 1_555 1_555
H8 C7 1_555 1_555
H9 C7 1_555 1_555
C8 H10 1_555 1_555
C9 C8 1_555 1_555
C10 C9 1_555 1_555
C11 H11 1_555 1_555
C12 C13 1_555 1_555
C13 C4 1_555 1_555
C14 H12 1_555 1_555
Cu1 N2 1_555 1_555
N1 C1 1_555 1_555
H13 N1 1_555 1_555
N2 C1 1_555 1_555
N3 C12 1_555 1_555
N4 C13 1_555 1_555
H14 N4 1_555 1_555
N5 O2 1_555 1_555
N6 C9 1_555 1_555
N7 C10 1_555 1_555
H15 N7 1_555 1_555
O1 Cu1 1_555 1_555
O2 Cu1 1_555 1_555
O3 N5 1_555 1_555
O4 Cu1 1_555 1_555
S1 C6 1_555 1_555
C15 H16 1_555 1_555
H17 C15 1_555 1_555
H18 C15 1_555 1_555
C16 H19 1_555 1_555
H20 C16 1_555 1_555
H21 C16 1_555 1_555
O5 S2 1_555 1_555
S2 C15 1_555 1_555
C17 H22 1_555 1_555
H23 C17 1_555 1_555
H24 C17 1_555 1_555
C18 H25 1_555 1_555
H26 C18 1_555 1_555
H27 C18 1_555 1_555
O6 S3 1_555 1_555
S3 C17 1_555 1_555
N8 O7 1_555 1_555
O8 N8 1_555 1_555
O9 N8 1_555 1_555
C1A H1A 1_555 1_555
C2A C5 1_555 1_555
C3A C2A 1_555 1_555
C5A C2 1_555 1_555
H3A C5A 1_555 1_555
N1A C1A 1_555 1_555
H13A N1A 1_555 1_555
N2A C1A 1_555 1_555
C4A C12 1_555 1_555
H2A C4A 1_555 1_555
C12A C4 1_555 1_555
C13A C4A 1_555 1_555
C14A H12A 1_555 1_555
N3A C12A 1_555 1_555
N4A C13A 1_555 1_555
H14A N4A 1_555 1_555
C8A C10 1_555 1_555
H10A C8A 1_555 1_555
C9A C8A 1_555 1_555
C10A C8 1_555 1_555
C11A H11A 1_555 1_555
N6A C9A 1_555 1_555
N7A C10A 1_555 1_555
H15A N7A 1_555 1_555
C6A H4A 1_555 1_555
H5A C6A 1_555 1_555
H6A C6A 1_555 1_555
C7A H7A 1_555 1_555
H8A C7A 1_555 1_555
H9A C7A 1_555 1_555
Cu1A N6A 1_555 1_555
N5A O2A 1_555 1_555
O1A Cu1A 1_555 1_555
O2A Cu1A 1_555 1_555
O3A N5A 1_555 1_555
O4A Cu1A 1_555 1_555
S1A C6A 1_555 1_555
Cu1A_2 N3A 1_555 1_555
Cu1A_3 N2A 1_555 1_555
N2A_2 Cu1A 1_555 1_555
N3A_2 Cu1A 1_555 1_555
C2 N1 1_555 1_555
C3 N2 1_555 1_555
C7 S1 1_555 1_555
C11 N6 1_555 1_555
C11 N7 1_555 1_555
C14 N3 1_555 1_555
C14 N4 1_555 1_555
Cu1 N3 1_555 1_555
Cu1 N6 1_555 1_555
N5 O4 1_555 1_555
O1 S1 1_555 1_555
C16 S2 1_555 1_555
C18 S3 1_555 1_555
C2A N1A 1_555 1_555
C3A C5A 1_555 1_555
C3A N2A 1_555 1_555
C12A C13A 1_555 1_555
C14A N3A 1_555 1_555
C14A N4A 1_555 1_555
C9A C10A 1_555 1_555
C11A N6A 1_555 1_555
C11A N7A 1_555 1_555
C7A S1A 1_555 1_555
N5A O4A 1_555 1_555
O1A S1A 1_555 1_555

#END
