
#######################################################################
#
#                 Cambridge Crystallographic Data Centre
#                                CCDC 
#
#######################################################################
#
# If this CIF has been generated from an entry in the Cambridge 
# Structural Database, then it will include bibliographic, chemical, 
# crystal, experimental, refinement or atomic coordinate data resulting 
# from the CCDC's data processing and validation procedures.
#
#######################################################################

data_QOPZIF
_symmetry_cell_setting           orthorhombic
_symmetry_space_group_name_H-M   'P 21 21 21'
_symmetry_Int_Tables_number      19
_space_group_name_Hall           'P 2ac 2ab'
loop_
_symmetry_equiv_pos_site_id
_symmetry_equiv_pos_as_xyz
1 x,y,z
2 1/2-x,-y,1/2+z
3 -x,1/2+y,1/2-z
4 1/2+x,1/2-y,-z
_cell_length_a                   16.215(3)
_cell_length_b                   17.174(3)
_cell_length_c                   18.104(4)
_cell_angle_alpha                90
_cell_angle_beta                 90
_cell_angle_gamma                90
_cell_volume                     5041.54
loop_
_atom_site_label
_atom_site_type_symbol
_atom_site_fract_x
_atom_site_fract_y
_atom_site_fract_z
Zn1 Zn 0.72145(4) 0.24322(4) 0.23767(4)
Zn2 Zn 0.77299(4) -0.14339(4) -0.12029(4)
Zn3 Zn 1.11164(4) 0.73093(4) 0.17930(4)
Zn4 Zn 0.68928(5) -0.07961(4) -0.27090(4)
O1 O 0.7766(3) -0.0327(3) -0.0974(3)
O2 O 0.6846(4) -0.0022(3) -0.1847(3)
O3 O 1.0614(3) 0.5881(3) 0.2701(3)
O4 O 1.0057(3) 0.6838(3) 0.2034(3)
O5 O 0.6160(3) 0.1883(3) 0.3886(3)
O6 O 0.6095(3) 0.2490(3) 0.2789(3)
O7 O 0.8924(3) 0.3409(3) 0.2882(3)
O8 O 0.7612(3) 0.3509(3) 0.2531(3)
O9 O 0.7063(3) 0.2359(3) 0.1328(2)
O10 O 0.8018(3) 0.1434(3) 0.1222(3)
O11 O 0.4000(3) 0.2623(3) 0.5703(3)
O12 O 0.2833(3) 0.3185(3) 0.5303(3)
O13 O 0.7903(2) 0.1745(2) 0.2942(2)
O14 O 0.8191(3) -0.0723(3) -0.2838(3)
O15 O 0.6693(3) 0.0169(3) -0.3404(3)
N1 N 0.5693(5) 0.0760(4) -0.4080(4)
N2 N 0.9171(4) -0.0590(4) -0.3747(4)
C1 C 0.7233(4) 0.0118(3) -0.1260(4)
C2 C 0.7038(5) 0.0866(4) -0.0865(4)
C3 C 0.7380(5) 0.1032(4) -0.0171(4)
H1 H 0.7772 0.0689 0.0043
C4 C 0.7147(5) 0.1688(4) 0.0190(4)
C5 C 0.6567(6) 0.2184(4) -0.0108(4)
H2 H 0.6390 0.2624 0.0169
C6 C 0.6232(6) 0.2053(5) -0.0810(4)
C7 C 0.6464(5) 0.1379(5) -0.1176(4)
H3 H 0.6229 0.1263 -0.1645
C8 C 0.5605(7) 0.2605(6) -0.1132(6)
H4 H 0.5434 0.2418 -0.1620
H5 H 0.5850 0.3125 -0.1180
H6 H 0.5123 0.2632 -0.0806
C9 C 1.0029(4) 0.6210(4) 0.2386(4)
C10 C 0.9201(4) 0.5805(4) 0.2419(4)
C11 C 0.9154(4) 0.5023(4) 0.2566(4)
H7 H 0.9640 0.4732 0.2663
C12 C 0.8388(4) 0.4658(4) 0.2572(4)
C13 C 0.7670(4) 0.5102(4) 0.2467(4)
H8 H 0.7149 0.4849 0.2471
C14 C 0.7702(5) 0.5899(4) 0.2358(5)
C15 C 0.8489(5) 0.6244(4) 0.2318(5)
H9 H 0.8534 0.6786 0.2221
C16 C 0.6924(6) 0.6360(5) 0.2273(6)
H10 H 0.6447 0.6014 0.2325
H11 H 0.6913 0.6604 0.1783
H12 H 0.6902 0.6765 0.2654
C17 C 0.5804(4) 0.2289(4) 0.3396(3)
C18 C 0.4946(4) 0.2587(4) 0.3560(4)
C19 C 0.4480(4) 0.2918(4) 0.3011(4)
H13 H 0.4694 0.2929 0.2523
C20 C 0.3707(4) 0.3237(4) 0.3141(4)
C21 C 0.3405(4) 0.3216(4) 0.3859(4)
H14 H 0.2879 0.3434 0.3964
C22 C 0.3862(4) 0.2879(4) 0.4429(3)
C23 C 0.4630(4) 0.2560(4) 0.4280(3)
H15 H 0.4940 0.2324 0.4665
C24 C 0.3208(5) 0.3588(5) 0.2510(4)
H16 H 0.3523 0.3550 0.2050
H17 H 0.3092 0.4137 0.2618
H18 H 0.2687 0.3304 0.2458
C25 C 0.8305(4) 0.3786(4) 0.2673(4)
C26 C 0.7452(4) 0.1832(4) 0.0967(4)
C27 C 0.3537(4) 0.2897(4) 0.5210(4)
C28 C 0.8470(5) -0.0406(5) -0.3411(4)
H19 H 0.8152 0.0001 -0.3622
C29 C 0.9447(6) -0.0196(7) -0.4396(5)
H20 H 0.9051 0.0212 -0.4527
H21 H 0.9492 -0.0569 -0.4804
H22 H 0.9988 0.0039 -0.4302
C30 C 0.9689(6) -0.1232(7) -0.3490(7)
H23 H 0.9435 -0.1473 -0.3054
H24 H 1.0236 -0.1033 -0.3360
H25 H 0.9741 -0.1622 -0.3882
C31 C 0.6090(5) 0.0144(4) -0.3821(4)
H26 H 0.5897 -0.0356 -0.3966
C32 C 0.5941(7) 0.1550(5) -0.3893(7)
H27 H 0.6431 0.1533 -0.3577
H28 H 0.5490 0.1811 -0.3631
H29 H 0.6068 0.1837 -0.4347
C33 C 0.4976(9) 0.0696(7) -0.4552(7)
H30 H 0.4862 0.0146 -0.4652
H31 H 0.5081 0.0968 -0.5019
H32 H 0.4499 0.0932 -0.4305
Zn2A Zn 0.72701(4) 0.14339(4) 0.37971(4)
Zn2B Zn 0.22701(4) 0.35661(4) 0.62029(4)
Zn3B Zn 0.88836(4) 0.23093(4) 0.32070(4)
Zn3A Zn 0.38836(4) 0.26907(4) 0.67930(4)
Zn4C Zn 1.18928(5) 0.57961(4) 0.27090(4)
Zn4A Zn 0.81072(5) 0.07961(4) 0.22910(4)
O3C O 0.5614(3) -0.0881(3) -0.2701(3)
O5A O 0.8840(3) -0.1883(3) -0.1114(3)
O7B O 1.1076(3) 0.8409(3) 0.2118(3)
O10A O 0.6982(3) -0.1434(3) -0.3778(3)
O11A O 1.1000(3) 0.7377(3) 0.0703(3)
O12B O 0.7167(3) -0.1815(3) -0.0303(3)
O13A O 0.7097(2) -0.1745(2) -0.2058(2)
O13B O 1.2097(2) 0.6745(2) 0.2058(2)
O16 O 0.1776(12) -0.0428(15) -0.0298(12)
N3 N 0.3073(10) -0.0993(7) 0.0090(7)
C34 C 0.2397 -0.0713 -0.0425
H33 H 0.2507 -0.0787 -0.0935
C35 C 0.3872(16) -0.1217(16) -0.0250(11)
H34 H 0.3887 -0.1037 -0.0764
H35 H 0.3932 -0.1784 -0.0237
H36 H 0.4325 -0.0976 0.0026
C36 C 0.286(2) -0.1089(17) 0.0784(13)
H37 H 0.2318 -0.0862 0.0869
H38 H 0.3269 -0.0831 0.1103
H39 H 0.2849 -0.1646 0.0900
O17 O 0.5272(15) -0.1840(14) 0.4330(14)
N4 N 0.4883(8) -0.0731(10) 0.3597(11)
C37 C 0.542(2) -0.114(2) 0.4097(14)
H40 H 0.5904 -0.0882 0.4265
C38 C 0.5138(10) 0.0088(11) 0.3391(10)
H41 H 0.4712 0.0323 0.3078
H42 H 0.5661 0.0073 0.3120
H43 H 0.5205 0.0400 0.3840
C39 C 0.4160(15) -0.1006(19) 0.3503(14)
H44 H 0.3846 -0.0660 0.3177
H45 H 0.3880 -0.1045 0.3981
H46 H 0.4198 -0.1524 0.3279
O18 O 0.6300(13) -0.2572(12) 0.3941(10)
N5 N 0.6730(13) -0.3485(11) 0.4864(9)
C40 C 0.6340(16) -0.2832(14) 0.4527(16)
H47 H 0.6034 -0.2535 0.4874
C41 C 0.7134(16) -0.3835(16) 0.4294(11)
H48 H 0.7167 -0.3475 0.3875
H49 H 0.6832 -0.4304 0.4144
H50 H 0.7691 -0.3979 0.4451
C42 C 0.6463(16) -0.3626(18) 0.5573(11)
H51 H 0.6174 -0.3166 0.5762
H52 H 0.6937 -0.3741 0.5890
H53 H 0.6086 -0.4072 0.5573
O19 O 0.4371(10) -0.0235(12) 0.2144(13)
loop_
_geom_bond_atom_site_label_1
_geom_bond_atom_site_label_2
_geom_bond_site_symmetry_1
_geom_bond_site_symmetry_2
Zn1 O6 1_555 1_555
Zn2 O1 1_555 1_555
Zn3 O4 1_555 1_555
Zn4 O2 1_555 1_555
O1 C1 1_555 1_555
O2 C1 1_555 1_555
O3 C9 1_555 1_555
O4 C9 1_555 1_555
O5 C17 1_555 1_555
O6 C17 1_555 1_555
O7 C25 1_555 1_555
O8 Zn1 1_555 1_555
O9 Zn1 1_555 1_555
O10 C26 1_555 1_555
O11 C27 1_555 1_555
O12 C27 1_555 1_555
O13 Zn1 1_555 1_555
O14 Zn4 1_555 1_555
O15 Zn4 1_555 1_555
N1 C31 1_555 1_555
N2 C28 1_555 1_555
C1 C2 1_555 1_555
C2 C3 1_555 1_555
C3 H1 1_555 1_555
C4 C3 1_555 1_555
C5 C4 1_555 1_555
H2 C5 1_555 1_555
C6 C5 1_555 1_555
C7 C2 1_555 1_555
H3 C7 1_555 1_555
C8 C6 1_555 1_555
H4 C8 1_555 1_555
H5 C8 1_555 1_555
H6 C8 1_555 1_555
C9 C10 1_555 1_555
C10 C11 1_555 1_555
C11 H7 1_555 1_555
C12 C11 1_555 1_555
C13 C12 1_555 1_555
H8 C13 1_555 1_555
C14 C13 1_555 1_555
C15 C10 1_555 1_555
H9 C15 1_555 1_555
C16 C14 1_555 1_555
H10 C16 1_555 1_555
H11 C16 1_555 1_555
H12 C16 1_555 1_555
C17 C18 1_555 1_555
C18 C19 1_555 1_555
C19 H13 1_555 1_555
C20 C19 1_555 1_555
C21 C20 1_555 1_555
H14 C21 1_555 1_555
C22 C21 1_555 1_555
C23 C18 1_555 1_555
H15 C23 1_555 1_555
C24 C20 1_555 1_555
H16 C24 1_555 1_555
H17 C24 1_555 1_555
H18 C24 1_555 1_555
C25 O8 1_555 1_555
C26 O9 1_555 1_555
C27 C22 1_555 1_555
C28 O14 1_555 1_555
H19 C28 1_555 1_555
C29 N2 1_555 1_555
H20 C29 1_555 1_555
H21 C29 1_555 1_555
H22 C29 1_555 1_555
C30 N2 1_555 1_555
H23 C30 1_555 1_555
H24 C30 1_555 1_555
H25 C30 1_555 1_555
C31 O15 1_555 1_555
H26 C31 1_555 1_555
C32 N1 1_555 1_555
H27 C32 1_555 1_555
H28 C32 1_555 1_555
H29 C32 1_555 1_555
C33 N1 1_555 1_555
H30 C33 1_555 1_555
H31 C33 1_555 1_555
H32 C33 1_555 1_555
O16 C34 1_555 1_555
N3 C34 1_555 1_555
C34 H33 1_555 1_555
C35 N3 1_555 1_555
H34 C35 1_555 1_555
H35 C35 1_555 1_555
H36 C35 1_555 1_555
C36 N3 1_555 1_555
H37 C36 1_555 1_555
H38 C36 1_555 1_555
H39 C36 1_555 1_555
O17 C37 1_555 1_555
N4 C37 1_555 1_555
C37 H40 1_555 1_555
C38 N4 1_555 1_555
H41 C38 1_555 1_555
H42 C38 1_555 1_555
H43 C38 1_555 1_555
C39 N4 1_555 1_555
H44 C39 1_555 1_555
H45 C39 1_555 1_555
H46 C39 1_555 1_555
O18 C40 1_555 1_555
N5 C40 1_555 1_555
C40 H47 1_555 1_555
C41 N5 1_555 1_555
H48 C41 1_555 1_555
H49 C41 1_555 1_555
H50 C41 1_555 1_555
C42 N5 1_555 1_555
H51 C42 1_555 1_555
H52 C42 1_555 1_555
H53 C42 1_555 1_555
Zn2A O5 1_555 1_555
Zn2B O12 1_555 1_555
Zn3B O7 1_555 1_555
Zn3A O11 1_555 1_555
Zn4C O3 1_555 1_555
Zn4A O10 1_555 1_555
O3C Zn4 1_555 1_555
O5A Zn2 1_555 1_555
O7B Zn3 1_555 1_555
O10A Zn4 1_555 1_555
O11A Zn3 1_555 1_555
O12B Zn2 1_555 1_555
O13A Zn2 1_555 1_555
O13B Zn3 1_555 1_555
Zn4 O13A 1_555 1_555
O13 Zn2A 1_555 1_555
O13 Zn3B 1_555 1_555
O13 Zn4A 1_555 1_555
C4 C26 1_555 1_555
C6 C7 1_555 1_555
C12 C25 1_555 1_555
C14 C15 1_555 1_555
C22 C23 1_555 1_555
Zn4C O13B 1_555 1_555

#END
