
#######################################################################
#
#                 Cambridge Crystallographic Data Centre
#                                CCDC 
#
#######################################################################
#
# If this CIF has been generated from an entry in the Cambridge 
# Structural Database, then it will include bibliographic, chemical, 
# crystal, experimental, refinement or atomic coordinate data resulting 
# from the CCDC's data processing and validation procedures.
#
#######################################################################

data_QOQCUW
_symmetry_cell_setting           monoclinic
_symmetry_space_group_name_H-M   'P 21/c'
_symmetry_Int_Tables_number      14
_space_group_name_Hall           '-P 2ybc'
loop_
_symmetry_equiv_pos_site_id
_symmetry_equiv_pos_as_xyz
1 x,y,z
2 -x,1/2+y,1/2-z
3 -x,-y,-z
4 x,1/2-y,1/2+z
_cell_length_a                   13.058(3)
_cell_length_b                   23.261(5)
_cell_length_c                   6.7325(13)
_cell_angle_alpha                90
_cell_angle_beta                 93.06(3)
_cell_angle_gamma                90
_cell_volume                     2042.03
loop_
_atom_site_label
_atom_site_type_symbol
_atom_site_fract_x
_atom_site_fract_y
_atom_site_fract_z
Co1 Co 0.94555(7) 0.20720(4) 1.29596(13)
O1 O 0.8027(3) 0.17307(19) 1.1660(7)
O2 O 0.8586(3) 0.2505(2) 1.0198(7)
O3 O 0.0624(3) 0.2387(2) 0.8694(7)
O4 O 0.0392(3) 0.16931(19) 1.0983(7)
O5 O 0.4149(5) 0.0540(2) -0.0647(8)
O6 O 0.3148(5) -0.0137(3) 0.0478(8)
O7 O 0.6162(4) 0.1108(2) 0.5869(7)
O8 O 0.2777(4) 0.1449(2) 0.4530(8)
O9 O 0.4397(4) 0.2219(2) 1.0059(7)
N1 N 0.9643(4) 0.1385(2) 1.4948(8)
N2 N 0.5291(4) 0.1643(2) 0.8018(8)
N3 N 0.4470(4) 0.1274(3) 0.5143(8)
N4 N 0.3522(4) 0.1802(2) 0.7393(8)
C1 C 0.4393(5) 0.1917(3) 0.8596(11)
C2 C 0.0901(5) 0.1950(3) 0.9726(10)
C3 C 0.4506(6) 0.1028(3) 0.3100(11)
H1 H 0.5217 0.0993 0.2766
H2 H 0.4172 0.1293 0.2159
C4 C 0.6972(5) 0.2103(3) 0.8918(10)
H3 H 0.6650 0.2479 0.8940
H4 H 0.7179 0.2035 0.7576
C5 C 0.7924(5) 0.2109(3) 1.0326(9)
C6 C 0.8911(6) 0.1228(3) 1.6128(12)
H5 H 0.8311 0.1445 1.6092
C7 C 0.3530(6) 0.1501(3) 0.5623(10)
C8 C 0.5358(5) 0.1325(3) 0.6311(10)
C9 C 0.9861(8) 0.0436(4) 1.7528(12)
C10 C 0.2541(5) 0.2075(3) 0.7920(10)
H6 H 0.2110 0.2132 0.6716
H7 H 0.2686 0.2450 0.8498
C11 C 0.8983(7) 0.0750(3) 1.7444(12)
H8 H 0.8443 0.0655 1.8227
C12 C 0.6193(5) 0.1653(3) 0.9428(10)
H9 H 0.6517 0.1278 0.9442
H10 H 0.5968 0.1728 1.0754
C13 C 0.1959(5) 0.1717(3) 0.9381(9)
H11 H 0.1894 0.1327 0.8880
H12 H 0.2353 0.1703 1.0642
C14 C 1.0492(6) 0.1055(3) 1.5101(11)
H13 H 1.1032 0.1152 1.4319
C15 C 1.0617(7) 0.0577(4) 1.6353(12)
H14 H 1.1216 0.0361 1.6369
C16 C 0.3784(7) 0.0296(3) 0.0720(12)
C17 C 0.4001(7) 0.0452(3) 0.2885(11)
H15 H 0.3363 0.0456 0.3559
H16 H 0.4443 0.0162 0.3515
C18 C 0.9949(9) -0.0086(4) 1.8937(11)
H17 H 0.9345 -0.0326 1.8724
H18 H 1.0542 -0.0313 1.8620
N1B N 1.0357(4) -0.1385(2) 2.5052(8)
C6B C 1.1089(6) -0.1228(3) 2.3872(12)
H5B H 1.1689 -0.1445 2.3908
C9B C 1.0139(8) -0.0436(4) 2.2472(12)
C11B C 1.1017(7) -0.0750(3) 2.2556(12)
H8B H 1.1557 -0.0655 2.1773
C14B C 0.9508(6) -0.1055(3) 2.4899(11)
H13B H 0.8968 -0.1152 2.5681
C15B C 0.9383(7) -0.0577(4) 2.3647(12)
H14B H 0.8784 -0.0361 2.3631
C18B C 1.0051(9) 0.0086(4) 2.1063(11)
H17B H 1.0655 0.0326 2.1276
H18B H 0.9458 0.0313 2.1380
Co1B Co 1.05445(7) -0.20720(4) 2.70404(13)
O1B O 1.1973(3) -0.17307(19) 2.8340(7)
O2B O 1.1414(3) -0.2505(2) 2.9802(7)
O3B O 1.9376(3) -0.2387(2) 3.1306(7)
O4B O 1.9608(3) -0.16931(19) 2.9017(7)
O5B O 1.5851(5) -0.0540(2) 4.0647(8)
O6B O 1.6852(5) 0.0137(3) 3.9522(8)
O7B O 1.3838(4) -0.1108(2) 3.4131(7)
O8B O 1.7223(4) -0.1449(2) 3.5470(8)
O9B O 1.5603(4) -0.2219(2) 2.9941(7)
N2B N 1.4709(4) -0.1643(2) 3.1982(8)
N3B N 1.5530(4) -0.1274(3) 3.4857(8)
N4B N 1.6478(4) -0.1802(2) 3.2607(8)
C1B C 1.5607(5) -0.1917(3) 3.1404(11)
C2B C 1.9099(5) -0.1950(3) 3.0274(10)
C3B C 1.5494(6) -0.1028(3) 3.6900(11)
H1B H 1.4783 -0.0993 3.7234
H2B H 1.5828 -0.1293 3.7841
C4B C 1.3028(5) -0.2103(3) 3.1082(10)
H3B H 1.3350 -0.2479 3.1060
H4B H 1.2821 -0.2035 3.2424
C5B C 1.2076(5) -0.2109(3) 2.9674(9)
C7B C 1.6470(6) -0.1501(3) 3.4377(10)
C8B C 1.4642(5) -0.1325(3) 3.3689(10)
C10B C 1.7459(5) -0.2075(3) 3.2080(10)
H6B H 1.7890 -0.2132 3.3284
H7B H 1.7314 -0.2450 3.1502
C12B C 1.3807(5) -0.1653(3) 3.0572(10)
H9B H 1.3483 -0.1278 3.0558
H10B H 1.4032 -0.1728 2.9246
C13B C 1.8041(5) -0.1717(3) 3.0619(9)
H11B H 1.8106 -0.1327 3.1120
H12B H 1.7647 -0.1703 2.9358
C16B C 1.6216(7) -0.0296(3) 3.9280(12)
C17B C 1.5999(7) -0.0452(3) 3.7115(11)
H15B H 1.6637 -0.0456 3.6441
H16B H 1.5557 -0.0162 3.6485
Co1_2 Co -0.05445(7) 0.20720(4) 1.29596(13)
Co1A Co 1.05445(7) -0.29280(4) 3.20404(13)
Co1A_2 Co 2.05445(7) -0.29280(4) 3.20404(13)
Co1B_2 Co 2.05445(7) -0.20720(4) 2.70404(13)
Co1C Co -0.05445(7) 0.29280(4) 0.79596(13)
Co1C_2 Co 0.94555(7) 0.29280(4) 0.79596(13)
O2A O 1.1414(3) -0.2495(2) 2.4802(7)
O2C O 0.8586(3) 0.2495(2) 1.5198(7)
O3A O 0.9376(3) -0.2613(2) 2.6306(7)
O3C O 1.0624(3) 0.2613(2) 1.3694(7)
O4_2 O 1.0392(3) 0.16931(19) 1.0983(7)
O4B_2 O 0.9608(3) -0.16931(19) 2.9017(7)
O10 O 0.2641(4) 0.9381(2) 0.7082(8)
loop_
_geom_bond_atom_site_label_1
_geom_bond_atom_site_label_2
_geom_bond_site_symmetry_1
_geom_bond_site_symmetry_2
Co1 O1 1_555 1_555
O1 C5 1_555 1_555
O2 Co1 1_555 1_555
O3 C2 1_555 1_555
O4 C2 1_555 1_555
O5 C16 1_555 1_555
O6 C16 1_555 1_555
O7 C8 1_555 1_555
O8 C7 1_555 1_555
O9 C1 1_555 1_555
N1 Co1 1_555 1_555
N2 C1 1_555 1_555
N3 C3 1_555 1_555
N4 C1 1_555 1_555
C2 C13 1_555 1_555
C3 H1 1_555 1_555
H2 C3 1_555 1_555
C4 H3 1_555 1_555
H4 C4 1_555 1_555
C5 O2 1_555 1_555
C6 N1 1_555 1_555
H5 C6 1_555 1_555
C7 N3 1_555 1_555
C8 N2 1_555 1_555
C9 C11 1_555 1_555
C10 N4 1_555 1_555
H6 C10 1_555 1_555
H7 C10 1_555 1_555
C11 C6 1_555 1_555
H8 C11 1_555 1_555
C12 N2 1_555 1_555
H9 C12 1_555 1_555
H10 C12 1_555 1_555
C13 C10 1_555 1_555
H11 C13 1_555 1_555
H12 C13 1_555 1_555
C14 N1 1_555 1_555
H13 C14 1_555 1_555
C15 C9 1_555 1_555
H14 C15 1_555 1_555
C16 C17 1_555 1_555
C17 C3 1_555 1_555
H15 C17 1_555 1_555
H16 C17 1_555 1_555
C18 C9 1_555 1_555
H17 C18 1_555 1_555
H18 C18 1_555 1_555
N1B C6B 1_555 1_555
C6B H5B 1_555 1_555
C9B C11B 1_555 1_555
C11B C6B 1_555 1_555
H8B C11B 1_555 1_555
C14B N1B 1_555 1_555
H13B C14B 1_555 1_555
C15B C9B 1_555 1_555
H14B C15B 1_555 1_555
C18B C18 1_555 1_555
H17B C18B 1_555 1_555
H18B C18B 1_555 1_555
Co1B N1B 1_555 1_555
O1B Co1B 1_555 1_555
O2B Co1B 1_555 1_555
O3B C2B 1_555 1_555
O4B C2B 1_555 1_555
O5B C16B 1_555 1_555
O6B C16B 1_555 1_555
O7B C8B 1_555 1_555
O8B C7B 1_555 1_555
O9B C1B 1_555 1_555
N2B C1B 1_555 1_555
N3B C3B 1_555 1_555
N4B C1B 1_555 1_555
C2B C13B 1_555 1_555
C3B H1B 1_555 1_555
H2B C3B 1_555 1_555
C4B H3B 1_555 1_555
H4B C4B 1_555 1_555
C5B O1B 1_555 1_555
C7B N3B 1_555 1_555
C8B N2B 1_555 1_555
C10B N4B 1_555 1_555
H6B C10B 1_555 1_555
H7B C10B 1_555 1_555
C12B N2B 1_555 1_555
H9B C12B 1_555 1_555
H10B C12B 1_555 1_555
C13B C10B 1_555 1_555
H11B C13B 1_555 1_555
H12B C13B 1_555 1_555
C16B C17B 1_555 1_555
C17B C3B 1_555 1_555
H15B C17B 1_555 1_555
H16B C17B 1_555 1_555
Co1_2 O4 1_555 1_555
Co1A O2B 1_555 1_555
Co1A_2 O3B 1_555 1_555
Co1B_2 O4B 1_555 1_555
Co1C O3 1_555 1_555
Co1C_2 O2 1_555 1_555
O2A Co1B 1_555 1_555
O2C Co1 1_555 1_555
O3A Co1B 1_555 1_555
O3C Co1 1_555 1_555
O4_2 Co1 1_555 1_555
O4B_2 Co1B 1_555 1_555
N3 C8 1_555 1_555
N4 C7 1_555 1_555
C4 C5 1_555 1_555
C4 C12 1_555 1_555
C14 C15 1_555 1_555
C9B C18B 1_555 1_555
C14B C15B 1_555 1_555
O2B C5B 1_555 1_555
N3B C8B 1_555 1_555
N4B C7B 1_555 1_555
C4B C5B 1_555 1_555
C4B C12B 1_555 1_555

#END
