
#######################################################################
#
#                 Cambridge Crystallographic Data Centre
#                                CCDC 
#
#######################################################################
#
# If this CIF has been generated from an entry in the Cambridge 
# Structural Database, then it will include bibliographic, chemical, 
# crystal, experimental, refinement or atomic coordinate data resulting 
# from the CCDC's data processing and validation procedures.
#
#######################################################################

data_QOQJUC
_symmetry_cell_setting           monoclinic
_symmetry_space_group_name_H-M   'P 21/c'
_symmetry_Int_Tables_number      14
_space_group_name_Hall           '-P 2ybc'
loop_
_symmetry_equiv_pos_site_id
_symmetry_equiv_pos_as_xyz
1 x,y,z
2 -x,1/2+y,1/2-z
3 -x,-y,-z
4 x,1/2-y,1/2+z
_cell_length_a                   10.633(4)
_cell_length_b                   6.240(2)
_cell_length_c                   9.764(3)
_cell_angle_alpha                90
_cell_angle_beta                 96.341(5)
_cell_angle_gamma                90
_cell_volume                     643.877
loop_
_atom_site_label
_atom_site_type_symbol
_atom_site_fract_x
_atom_site_fract_y
_atom_site_fract_z
Co1 Co 0.5000 0.0000 0.5000
C1 C 0.6949(2) 0.3703(4) 0.5473(2)
H1 H 0.6553 0.4500 0.4743
C2 C 0.8792(2) 0.6149(4) 0.6176(3)
H2 H 0.9357 0.6280 0.7022
H3 H 0.8272 0.7429 0.6076
C3 C 0.9566(2) 0.5979(4) 0.4964(2)
H4 H 1.0077 0.7261 0.4930
H5 H 0.8995 0.5915 0.4119
N1 N 0.5387(2) -0.2451(3) 0.64596(19)
N2 N 0.57933(16) -0.2861(3) 0.75800(18)
N3 N 0.62078(18) -0.3356(3) 0.87054(18)
N4 N 0.65727(16) 0.1833(3) 0.58789(17)
N5 N 0.74134(19) 0.1251(3) 0.6963(2)
N6 N 0.82662(19) 0.2713(4) 0.7197(2)
N7 N 0.79807(17) 0.4275(3) 0.62646(19)
Co1_2 Co 1.5000 1.0000 0.5000
Co1A Co 0.5000 -0.5000 1.0000
Co1A_2 Co 0.5000 0.5000 0.0000
C1B C 1.3051(2) 0.6297(4) 0.4527(2)
H1B H 1.3447 0.5500 0.5257
C2B C 1.1208(2) 0.3851(4) 0.3824(3)
H2B H 1.0643 0.3720 0.2978
H3B H 1.1728 0.2571 0.3924
C3B C 1.0434(2) 0.4021(4) 0.5036(2)
H4B H 0.9923 0.2739 0.5070
H5B H 1.1005 0.4085 0.5881
N1B N 0.4613(2) 0.2451(3) 0.35404(19)
N2B N 0.42067(16) 0.2861(3) 0.24200(18)
N3B N 0.37922(18) 0.3356(3) 0.12946(18)
N3A N 0.37922(18) 0.1644(3) 0.62946(18)
N3C N 0.62078(18) -0.1644(3) 0.37054(18)
N4B N 1.34273(16) 0.8167(3) 0.41211(17)
N4B_2 N 0.34273(16) -0.1833(3) 0.41211(17)
N5B N 1.25866(19) 0.8749(3) 0.3037(2)
N6B N 1.17338(19) 0.7287(4) 0.2803(2)
N7B N 1.20193(17) 0.5725(3) 0.37354(19)
loop_
_geom_bond_atom_site_label_1
_geom_bond_atom_site_label_2
_geom_bond_site_symmetry_1
_geom_bond_site_symmetry_2
Co1 N1 1_555 1_555
C1 H1 1_555 1_555
C2 H2 1_555 1_555
H3 C2 1_555 1_555
C3 C2 1_555 1_555
H4 C3 1_555 1_555
H5 C3 1_555 1_555
N1 N2 1_555 1_555
N2 N3 1_555 1_555
N3 Co1A 1_555 1_555
N4 Co1 1_555 1_555
N5 N4 1_555 1_555
N6 N5 1_555 1_555
N7 C1 1_555 1_555
Co1_2 N4B 1_555 1_555
Co1A_2 N3B 1_555 1_555
C1B H1B 1_555 1_555
C2B H2B 1_555 1_555
H3B C2B 1_555 1_555
C3B C3 1_555 1_555
H4B C3B 1_555 1_555
H5B C3B 1_555 1_555
N1B Co1 1_555 1_555
N2B N1B 1_555 1_555
N3B N2B 1_555 1_555
N3A Co1 1_555 1_555
N3C Co1 1_555 1_555
N4B C1B 1_555 1_555
N4B_2 Co1 1_555 1_555
N5B N4B 1_555 1_555
N6B N5B 1_555 1_555
N7B C1B 1_555 1_555
C1 N4 1_555 1_555
C2 N7 1_555 1_555
N6 N7 1_555 1_555
C2B C3B 1_555 1_555
C2B N7B 1_555 1_555
N6B N7B 1_555 1_555

#END
