
#######################################################################
#
#                 Cambridge Crystallographic Data Centre
#                                CCDC 
#
#######################################################################
#
# If this CIF has been generated from an entry in the Cambridge 
# Structural Database, then it will include bibliographic, chemical, 
# crystal, experimental, refinement or atomic coordinate data resulting 
# from the CCDC's data processing and validation procedures.
#
#######################################################################

data_QOQMIT01
_symmetry_cell_setting           triclinic
_symmetry_space_group_name_H-M   'P -1'
_symmetry_Int_Tables_number      2
_space_group_name_Hall           '-P 1'
loop_
_symmetry_equiv_pos_site_id
_symmetry_equiv_pos_as_xyz
1 x,y,z
2 -x,-y,-z
_cell_length_a                   4.8898(3)
_cell_length_b                   6.8148(5)
_cell_length_c                   13.7473(11)
_cell_angle_alpha                92.815(6)
_cell_angle_beta                 99.909(6)
_cell_angle_gamma                98.539(7)
_cell_volume                     444.953
loop_
_atom_site_label
_atom_site_type_symbol
_atom_site_fract_x
_atom_site_fract_y
_atom_site_fract_z
C1 C -0.1329(14) 0.3792(10) 0.6476(5)
C2 C -0.2169(14) 0.5242(10) 0.7189(5)
H1 H -0.4074 0.5479 0.6924
C3 C -0.2199(16) 0.4281(11) 0.8175(6)
H2 H -0.3535 0.3053 0.8065
H3 H -0.0352 0.3952 0.8418
C4 C -0.2984(17) 0.5642(13) 0.8946(6)
H4 H -0.4941 0.5792 0.8752
H5 H -0.2785 0.5038 0.9574
C5 C -0.1186(19) 0.7665(13) 0.9080(6)
H6 H 0.0715 0.7542 0.9386
H7 H -0.1910 0.8527 0.9522
C6 C -0.1116(18) 0.8618(11) 0.8100(6)
H8 H 0.0186 0.9862 0.8213
H9 H -0.2969 0.8910 0.7833
C7 C -0.0201(14) 0.7221(10) 0.7349(5)
H10 H 0.1687 0.6970 0.7628
C8 C -0.0029(14) 0.8246(10) 0.6399(6)
O1 O 0.1259(9) 0.3905(7) 0.6447(4)
O2 O -0.3122(9) 0.2447(7) 0.5954(4)
O3 O 0.2051(10) 0.9581(7) 0.6419(4)
O4 O -0.1979(10) 0.7729(8) 0.5675(4)
Zn1 Zn 0.27400(14) 0.19109(11) 0.57083(6)
C1A C 0.1329(14) 0.6208(10) 0.3524(5)
C2A C 0.2169(14) 0.4758(10) 0.2811(5)
H1A H 0.4074 0.4521 0.3076
C3A C 0.2199(16) 0.5719(11) 0.1825(6)
H2A H 0.3535 0.6947 0.1935
H3A H 0.0352 0.6048 0.1582
C4A C 0.2984(17) 0.4358(13) 0.1054(6)
H4A H 0.4941 0.4208 0.1248
H5A H 0.2785 0.4962 0.0426
C5A C 0.1186(19) 0.2335(13) 0.0920(6)
H6A H -0.0715 0.2458 0.0614
H7A H 0.1910 0.1473 0.0478
C6A C 0.1116(18) 0.1382(11) 0.1900(6)
H8A H -0.0186 0.0138 0.1787
H9A H 0.2969 0.1090 0.2167
C7A C 0.0201(14) 0.2779(10) 0.2651(5)
H10A H -0.1687 0.3030 0.2372
C8A C 0.0029(14) 0.1754(10) 0.3601(6)
O1A O -0.1259(9) 0.6095(7) 0.3553(4)
O2A O 0.3122(9) 0.7553(7) 0.4046(4)
O2_2 O 0.6878(9) 0.2447(7) 0.5954(4)
O2A_2 O -0.6878(9) 0.7553(7) 0.4046(4)
O3A O -0.2051(10) 0.0419(7) 0.3581(4)
O3_2 O 0.2051(10) -0.0419(7) 0.6419(4)
O3A_2 O -0.2051(10) 1.0419(7) 0.3581(4)
O4A O 0.1979(10) 0.2271(8) 0.4325(4)
Zn1A Zn -0.27400(14) 0.80891(11) 0.42917(6)
Zn1_2 Zn -0.72600(14) 0.19109(11) 0.57083(6)
Zn1_3 Zn 0.27400(14) 1.19109(11) 0.57083(6)
Zn1A_2 Zn -0.27400(14) -0.19109(11) 0.42917(6)
Zn1A_3 Zn 0.72600(14) 0.80891(11) 0.42917(6)
loop_
_geom_bond_atom_site_label_1
_geom_bond_atom_site_label_2
_geom_bond_site_symmetry_1
_geom_bond_site_symmetry_2
C1 C2 1_555 1_555
C2 H1 1_555 1_555
C3 C2 1_555 1_555
H2 C3 1_555 1_555
H3 C3 1_555 1_555
C4 C3 1_555 1_555
H4 C4 1_555 1_555
H5 C4 1_555 1_555
C5 C4 1_555 1_555
H6 C5 1_555 1_555
H7 C5 1_555 1_555
C6 C5 1_555 1_555
H8 C6 1_555 1_555
H9 C6 1_555 1_555
C7 C2 1_555 1_555
H10 C7 1_555 1_555
C8 C7 1_555 1_555
O1 C1 1_555 1_555
O2 C1 1_555 1_555
O3 C8 1_555 1_555
O4 C8 1_555 1_555
Zn1 O1 1_555 1_555
C1A C2A 1_555 1_555
C2A H1A 1_555 1_555
C3A C2A 1_555 1_555
H2A C3A 1_555 1_555
H3A C3A 1_555 1_555
C4A C3A 1_555 1_555
H4A C4A 1_555 1_555
H5A C4A 1_555 1_555
C5A C4A 1_555 1_555
H6A C5A 1_555 1_555
H7A C5A 1_555 1_555
C6A C5A 1_555 1_555
H8A C6A 1_555 1_555
H9A C6A 1_555 1_555
C7A C2A 1_555 1_555
H10A C7A 1_555 1_555
C8A C7A 1_555 1_555
O1A C1A 1_555 1_555
O2A C1A 1_555 1_555
O2_2 Zn1 1_555 1_555
O2A_2 Zn1A 1_555 1_555
O3A C8A 1_555 1_555
O3_2 Zn1 1_555 1_555
O3A_2 Zn1A 1_555 1_555
O4A Zn1 1_555 1_555
Zn1A O4 1_555 1_555
Zn1_2 O2 1_555 1_555
Zn1_3 O3 1_555 1_555
Zn1A_2 O3A 1_555 1_555
Zn1A_3 O2A 1_555 1_555
C6 C7 1_555 1_555
C6A C7A 1_555 1_555
C8A O4A 1_555 1_555
O1A Zn1A 1_555 1_555

#END
