
#######################################################################
#
#                 Cambridge Crystallographic Data Centre
#                                CCDC 
#
#######################################################################
#
# If this CIF has been generated from an entry in the Cambridge 
# Structural Database, then it will include bibliographic, chemical, 
# crystal, experimental, refinement or atomic coordinate data resulting 
# from the CCDC's data processing and validation procedures.
#
#######################################################################

data_QOQMUG
_symmetry_cell_setting           triclinic
_symmetry_space_group_name_H-M   'P -1'
_symmetry_Int_Tables_number      2
_space_group_name_Hall           '-P 1'
loop_
_symmetry_equiv_pos_site_id
_symmetry_equiv_pos_as_xyz
1 x,y,z
2 -x,-y,-z
_cell_length_a                   6.9753(5)
_cell_length_b                   9.7052(10)
_cell_length_c                   12.0656(10)
_cell_angle_alpha                72.587(3)
_cell_angle_beta                 88.593(2)
_cell_angle_gamma                89.811(3)
_cell_volume                     779.127
loop_
_atom_site_label
_atom_site_type_symbol
_atom_site_fract_x
_atom_site_fract_y
_atom_site_fract_z
C16 C 0.4798(11) 1.4216(8) -0.4824(7)
O1 O 0.3205(11) 1.3815(9) -0.3959(7)
C16A C 0.5202(11) 1.5784(8) -0.5176(7)
O1A O 0.6795(11) 1.6185(9) -0.6041(7)
Ag1 Ag 0.41037(5) 0.79420(4) 0.14412(3)
Ag2 Ag 0.5000 1.0000 0.5000
Ag3 Ag 1.0000 0.5000 0.0000
N1 N 0.2904(5) 0.8643(4) -0.0406(3)
N2 N 0.2391(5) 1.5643(4) -0.7679(3)
N3 N 0.6793(6) 0.6690(5) 0.1037(4)
N4 N 0.3991(6) 0.9025(5) 0.2771(4)
C1 C 0.1871(6) 0.9843(5) -0.0867(4)
H1 H 0.1718 1.0508 -0.0432
C2 C 0.1023(6) 1.0161(5) -0.1934(4)
H2 H 0.0304 1.1023 -0.2214
C3 C 0.1220(6) 0.9223(5) -0.2599(4)
C4 C 0.2301(6) 0.7966(5) -0.2132(4)
H3 H 0.2488 0.7290 -0.2554
C5 C 0.3085(6) 0.7727(5) -0.1054(4)
H4 H 0.3797 0.6867 -0.0747
C6 C 0.0505(6) 0.9596(5) -0.3817(4)
C7 C 0.0832(6) 1.1001(5) -0.4558(4)
H5 H 0.1400 1.1693 -0.4252
C8 C 0.0355(6) 1.1417(5) -0.5723(4)
C9 C 0.0951(6) 1.2882(5) -0.6461(4)
C10 C 0.0293(7) 1.4120(5) -0.6201(4)
H6 H -0.0645 1.4045 -0.5601
C11 C 0.1035(7) 1.5461(5) -0.6836(4)
H7 H 0.0557 1.6294 -0.6664
C12 C 0.2977(7) 1.4456(5) -0.7926(4)
H8 H 0.3930 1.4563 -0.8522
C13 C 0.2291(6) 1.3079(5) -0.7372(4)
H9 H 0.2726 1.2280 -0.7610
C14 C 0.7950(7) 0.6098(5) 0.0681(4)
C15 C 0.4260(7) 0.9408(6) 0.3568(4)
N1A N -0.2904(5) 1.1357(4) -0.9594(3)
N2A N -0.2391(5) 0.4357(4) -0.2321(3)
C1A C -0.1871(6) 1.0157(5) -0.9133(4)
H1A H -0.1718 0.9492 -0.9568
C2A C -0.1023(6) 0.9839(5) -0.8066(4)
H2A H -0.0304 0.8977 -0.7786
C3A C -0.1220(6) 1.0777(5) -0.7401(4)
C4A C -0.2301(6) 1.2034(5) -0.7868(4)
H3A H -0.2488 1.2710 -0.7446
C5A C -0.3085(6) 1.2273(5) -0.8946(4)
H4A H -0.3797 1.3133 -0.9253
C6A C -0.0505(6) 1.0404(5) -0.6183(4)
C7A C -0.0832(6) 0.8999(5) -0.5442(4)
H5A H -0.1400 0.8307 -0.5748
C8A C -0.0355(6) 0.8583(5) -0.4277(4)
C9A C -0.0951(6) 0.7118(5) -0.3539(4)
C10A C -0.0293(7) 0.5880(5) -0.3799(4)
H6A H 0.0645 0.5955 -0.4399
C11A C -0.1035(7) 0.4539(5) -0.3164(4)
H7A H -0.0557 0.3706 -0.3336
C12A C -0.2977(7) 0.5544(5) -0.2074(4)
H8A H -0.3930 0.5437 -0.1478
C13A C -0.2291(6) 0.6921(5) -0.2628(4)
H9A H -0.2726 0.7720 -0.2390
Ag1A Ag -0.41037(5) 0.20580(4) -0.14412(3)
N3A N -0.6793(6) 0.3310(5) -0.1037(4)
N4A N -0.3991(6) 0.0975(5) -0.2771(4)
C14A C -0.7950(7) 0.3902(5) -0.0681(4)
C15A C -0.4260(7) 0.0592(6) -0.3568(4)
Ag1_2 Ag 0.41037(5) 1.79420(4) -0.85588(3)
Ag1A_2 Ag -0.41037(5) 1.20580(4) -1.14412(3)
Ag2_2 Ag -0.5000 0.0000 -0.5000
Ag3_2 Ag -1.0000 0.5000 0.0000
N1A_2 N -0.2904(5) 0.1357(4) 0.0406(3)
N2_2 N 0.2391(5) 0.5643(4) 0.2321(3)
C14A_2 C 1.2050(7) 0.3902(5) -0.0681(4)
C15A_2 C 0.5740(7) 1.0592(6) 0.6432(4)
loop_
_geom_bond_atom_site_label_1
_geom_bond_atom_site_label_2
_geom_bond_site_symmetry_1
_geom_bond_site_symmetry_2
Ag1 N1 1_555 1_555
Ag2 C15 1_555 1_555
Ag3 C14 1_555 1_555
N1 C1 1_555 1_555
N2 C11 1_555 1_555
N3 Ag1 1_555 1_555
N4 Ag1 1_555 1_555
C1 H1 1_555 1_555
C2 C1 1_555 1_555
H2 C2 1_555 1_555
C3 C2 1_555 1_555
C4 C3 1_555 1_555
H3 C4 1_555 1_555
C5 N1 1_555 1_555
H4 C5 1_555 1_555
C6 C3 1_555 1_555
C7 C6 1_555 1_555
H5 C7 1_555 1_555
C8 C7 1_555 1_555
C9 C8 1_555 1_555
C10 C9 1_555 1_555
H6 C10 1_555 1_555
C11 C10 1_555 1_555
H7 C11 1_555 1_555
C12 N2 1_555 1_555
H8 C12 1_555 1_555
C13 C9 1_555 1_555
H9 C13 1_555 1_555
C14 N3 1_555 1_555
C15 N4 1_555 1_555
C16 O1 1_555 1_555
N1A C1A 1_555 1_555
N2A C11A 1_555 1_555
C1A H1A 1_555 1_555
C2A C1A 1_555 1_555
H2A C2A 1_555 1_555
C3A C2A 1_555 1_555
C4A C3A 1_555 1_555
H3A C4A 1_555 1_555
C5A N1A 1_555 1_555
H4A C5A 1_555 1_555
C6A C8 1_555 1_555
C7A C6A 1_555 1_555
H5A C7A 1_555 1_555
C8A C6 1_555 1_555
C9A C8A 1_555 1_555
C10A C9A 1_555 1_555
H6A C10A 1_555 1_555
C11A C10A 1_555 1_555
H7A C11A 1_555 1_555
C12A N2A 1_555 1_555
H8A C12A 1_555 1_555
C13A C9A 1_555 1_555
H9A C13A 1_555 1_555
Ag1A N2A 1_555 1_555
N3A Ag1A 1_555 1_555
N4A Ag1A 1_555 1_555
C14A N3A 1_555 1_555
C15A N4A 1_555 1_555
Ag1_2 N2 1_555 1_555
Ag1A_2 N1A 1_555 1_555
Ag2_2 C15A 1_555 1_555
Ag3_2 C14A 1_555 1_555
N1A_2 Ag1A 1_555 1_555
N2_2 Ag1 1_555 1_555
C14A_2 Ag3 1_555 1_555
C15A_2 Ag2 1_555 1_555
C16A C16 1_555 1_555
O1A C16A 1_555 1_555
C4 C5 1_555 1_555
C12 C13 1_555 1_555
C3A C6A 1_555 1_555
C4A C5A 1_555 1_555
C7A C8A 1_555 1_555
C12A C13A 1_555 1_555

#END
