
#######################################################################
#
#                 Cambridge Crystallographic Data Centre
#                                CCDC 
#
#######################################################################
#
# If this CIF has been generated from an entry in the Cambridge 
# Structural Database, then it will include bibliographic, chemical, 
# crystal, experimental, refinement or atomic coordinate data resulting 
# from the CCDC's data processing and validation procedures.
#
#######################################################################

data_QOQMEQ
_symmetry_cell_setting           hexagonal
_symmetry_space_group_name_H-M   'P 61'
_symmetry_Int_Tables_number      169
_space_group_name_Hall           'P 61'
loop_
_symmetry_equiv_pos_site_id
_symmetry_equiv_pos_as_xyz
1 x,y,z
2 -y,x-y,1/3+z
3 -x+y,-x,2/3+z
4 -x,-y,1/2+z
5 y,-x+y,5/6+z
6 x-y,x,1/6+z
_cell_length_a                   11.1905(3)
_cell_length_b                   11.1905(3)
_cell_length_c                   26.6938(15)
_cell_angle_alpha                90
_cell_angle_beta                 90
_cell_angle_gamma                120
_cell_volume                     2894.94
loop_
_atom_site_label
_atom_site_type_symbol
_atom_site_fract_x
_atom_site_fract_y
_atom_site_fract_z
Gd1 Gd 0.14333(2) 0.17133(2) 0.84550(2)
O1 O -0.0731(3) 0.0182(4) 0.80386(12)
O2 O -0.0200(4) -0.0359(4) 0.73002(11)
C1 C -0.1036(5) -0.0342(4) 0.76129(17)
C2 C -0.2534(5) -0.1052(5) 0.74548(17)
C3 C -0.3599(5) -0.1430(5) 0.77920(17)
H1 H -0.3408 -0.1245 0.8139
C4 C -0.4943(5) -0.2079(6) 0.76215(19)
H2 H -0.5687 -0.2356 0.7850
C5 C -0.5191(5) -0.2321(6) 0.71138(19)
H3 H -0.6117 -0.2762 0.6998
N1 N -0.4170(4) -0.1954(4) 0.67791(17)
C6 C -0.2865(5) -0.1338(5) 0.69490(16)
H4 H -0.2138 -0.1087 0.6715
O3 O 0.2153(3) 0.0323(3) 0.80937(12)
O4 O 0.1856(4) -0.1099(3) 0.74625(12)
C7 C 0.1949(5) -0.0796(5) 0.79151(16)
C8 C 0.1795(5) -0.1896(5) 0.82804(17)
C9 C 0.1399(5) -0.3226(5) 0.81122(17)
H5 H 0.1248 -0.3436 0.7765
C10 C 0.1225(5) -0.4244(5) 0.8452(2)
H6 H 0.0970 -0.5146 0.8339
C11 C 0.1429(5) -0.3925(5) 0.89537(19)
H7 H 0.1291 -0.4615 0.9191
N2 N 0.1826(4) -0.2628(5) 0.91094(14)
H8 H 0.195(6) -0.248(6) 0.942(2)
C12 C 0.2030(5) -0.1619(5) 0.87886(17)
H9 H 0.2335 -0.0713 0.8910
O5 O 0.1318(4) 0.2905(4) 0.77325(12)
O6 O 0.2405(4) 0.2415(4) 0.71355(12)
C13 C 0.1798(5) 0.3026(5) 0.72981(16)
C14 C 0.1635(5) 0.3985(5) 0.69489(17)
C15 C 0.2175(5) 0.4254(5) 0.64669(18)
H10 H 0.2646 0.3809 0.6340
C16 C 0.2011(6) 0.5185(5) 0.61776(18)
H11 H 0.2377 0.5398 0.5848
C17 C 0.1311(6) 0.5805(6) 0.63705(19)
H12 H 0.1247 0.6474 0.6171
N3 N 0.0712(5) 0.5512(5) 0.68283(19)
C18 C 0.0892(6) 0.4613(5) 0.71011(18)
H13 H 0.0481 0.4385 0.7424
N4 N 0.3921(4) 0.4426(4) 0.83904(14)
O7 O 0.3879(4) 0.3363(3) 0.81984(12)
O8 O 0.2859(4) 0.4217(4) 0.86399(12)
O9 O 0.4916(4) 0.5579(4) 0.83402(15)
Gd1D Gd 0.17133(2) 0.02800(3) 0.67883(2)
O2E O 0.0159(6) -0.0200(4) 0.89669(11)
O4E O 0.2955(5) 0.1856(4) 0.91292(12)
O6E O -0.0010(6) 0.2405(4) 0.88022(12)
loop_
_geom_bond_atom_site_label_1
_geom_bond_atom_site_label_2
_geom_bond_site_symmetry_1
_geom_bond_site_symmetry_2
Gd1 O1 1_555 1_555
O1 C1 1_555 1_555
O2 C1 1_555 1_555
C1 C2 1_555 1_555
C2 C3 1_555 1_555
C3 H1 1_555 1_555
C4 C3 1_555 1_555
H2 C4 1_555 1_555
C5 C4 1_555 1_555
H3 C5 1_555 1_555
N1 C5 1_555 1_555
C6 C2 1_555 1_555
H4 C6 1_555 1_555
O3 Gd1 1_555 1_555
O4 C7 1_555 1_555
C7 O3 1_555 1_555
C8 C7 1_555 1_555
C9 C8 1_555 1_555
H5 C9 1_555 1_555
C10 C9 1_555 1_555
H6 C10 1_555 1_555
C11 C10 1_555 1_555
H7 C11 1_555 1_555
N2 C11 1_555 1_555
H8 N2 1_555 1_555
C12 C8 1_555 1_555
H9 C12 1_555 1_555
O5 Gd1 1_555 1_555
O6 C13 1_555 1_555
C13 O5 1_555 1_555
C14 C13 1_555 1_555
C15 C14 1_555 1_555
H10 C15 1_555 1_555
C16 C15 1_555 1_555
H11 C16 1_555 1_555
C17 C16 1_555 1_555
H12 C17 1_555 1_555
N3 C17 1_555 1_555
C18 C14 1_555 1_555
H13 C18 1_555 1_555
N4 O7 1_555 1_555
O7 Gd1 1_555 1_555
O8 Gd1 1_555 1_555
O9 N4 1_555 1_555
Gd1D O2 1_555 1_555
O2E Gd1 1_555 1_555
O4E Gd1 1_555 1_555
O6E Gd1 1_555 1_555
N1 C6 1_555 1_555
O4 Gd1D 1_555 1_555
N2 C12 1_555 1_555
O6 Gd1D 1_555 1_555
N3 C18 1_555 1_555
N4 O8 1_555 1_555

#END
