
#######################################################################
#
#                 Cambridge Crystallographic Data Centre
#                                CCDC 
#
#######################################################################
#
# If this CIF has been generated from an entry in the Cambridge 
# Structural Database, then it will include bibliographic, chemical, 
# crystal, experimental, refinement or atomic coordinate data resulting 
# from the CCDC's data processing and validation procedures.
#
#######################################################################

data_QOQMIT
_symmetry_cell_setting           triclinic
_symmetry_space_group_name_H-M   'P -1'
_symmetry_Int_Tables_number      2
_space_group_name_Hall           '-P 1'
loop_
_symmetry_equiv_pos_site_id
_symmetry_equiv_pos_as_xyz
1 x,y,z
2 -x,-y,-z
_cell_length_a                   4.9223(7)
_cell_length_b                   6.8499(11)
_cell_length_c                   13.864(2)
_cell_angle_alpha                93.048(3)
_cell_angle_beta                 99.600(2)
_cell_angle_gamma                98.501(2)
_cell_volume                     454.392
loop_
_atom_site_label
_atom_site_type_symbol
_atom_site_fract_x
_atom_site_fract_y
_atom_site_fract_z
C1 C 0.1346(9) 0.6211(7) 0.8542(4)
C2 C 0.0039(10) 0.1750(7) 0.8602(4)
C3 C 0.2208(10) 0.4784(7) 0.7822(4)
C4 C 0.0226(10) 0.2771(8) 0.7651(4)
C5 C 0.1131(15) 0.1372(10) 0.6900(5)
C6 C 0.1202(17) 0.2299(12) 0.5926(5)
C7 C 0.2995(14) 0.4354(12) 0.6061(5)
C8 C 0.2219(12) 0.5698(9) 0.6833(5)
H1 H 0.386(12) 0.443(8) 0.805(4)
H2 H -0.203(17) 0.300(12) 0.728(5)
H3 H -0.004(19) 0.022(14) 0.680(6)
H4 H 0.297(15) 0.102(11) 0.724(5)
H5 H -0.089(17) 0.255(11) 0.569(5)
H6 H 0.165(17) 0.178(12) 0.543(6)
H7 H 0.299(14) 0.516(11) 0.548(5)
H8 H 0.500(16) 0.415(12) 0.630(5)
H9 H 0.010(16) 0.614(11) 0.651(5)
H10 H 0.360(13) 0.698(10) 0.696(4)
O1 O 0.3137(6) 0.7547(5) 0.9053(3)
O2 O -0.1246(7) 0.6058(6) 0.8563(3)
O3 O -0.2017(8) 0.0411(6) 0.8581(3)
O4 O 0.1994(7) 0.2266(6) 0.9324(3)
Zn1 Zn -0.27309(10) 0.80827(8) 0.92948(4)
O1_2 O -0.6863(6) 0.7547(5) 0.9053(3)
O3_2 O -0.2017(8) 1.0411(6) 0.8581(3)
O4A O -0.1994(7) 0.7734(6) 1.0676(3)
Zn1_2 Zn 0.72691(10) 0.80827(8) 0.92948(4)
Zn1_3 Zn -0.27309(10) -0.19173(8) 0.92948(4)
Zn1A Zn 0.27309(10) 0.19173(8) 1.07052(4)
loop_
_geom_bond_atom_site_label_1
_geom_bond_atom_site_label_2
_geom_bond_site_symmetry_1
_geom_bond_site_symmetry_2
C1 C3 1_555 1_555
C2 C4 1_555 1_555
C3 C4 1_555 1_555
C4 C5 1_555 1_555
C5 C6 1_555 1_555
C6 C7 1_555 1_555
C7 C8 1_555 1_555
C8 C3 1_555 1_555
H1 C3 1_555 1_555
H2 C4 1_555 1_555
H3 C5 1_555 1_555
H4 C5 1_555 1_555
H5 C6 1_555 1_555
H6 C6 1_555 1_555
H7 C7 1_555 1_555
H8 C7 1_555 1_555
H9 C8 1_555 1_555
H10 C8 1_555 1_555
O1 C1 1_555 1_555
O2 C1 1_555 1_555
O3 C2 1_555 1_555
O4 C2 1_555 1_555
Zn1 O2 1_555 1_555
O1_2 Zn1 1_555 1_555
O3_2 Zn1 1_555 1_555
O4A Zn1 1_555 1_555
Zn1_2 O1 1_555 1_555
Zn1_3 O3 1_555 1_555
Zn1A O4 1_555 1_555

#END
