
#######################################################################
#
#                 Cambridge Crystallographic Data Centre
#                                CCDC 
#
#######################################################################
#
# If this CIF has been generated from an entry in the Cambridge 
# Structural Database, then it will include bibliographic, chemical, 
# crystal, experimental, refinement or atomic coordinate data resulting 
# from the CCDC's data processing and validation procedures.
#
#######################################################################

data_QOQNAN
_symmetry_cell_setting           monoclinic
_symmetry_space_group_name_H-M   'P 21/n'
_symmetry_Int_Tables_number      14
_space_group_name_Hall           '-P 2yn'
loop_
_symmetry_equiv_pos_site_id
_symmetry_equiv_pos_as_xyz
1 x,y,z
2 1/2-x,1/2+y,1/2-z
3 -x,-y,-z
4 1/2+x,1/2-y,1/2+z
_cell_length_a                   11.5405(3)
_cell_length_b                   11.3638(3)
_cell_length_c                   18.1067(4)
_cell_angle_alpha                90
_cell_angle_beta                 100.420(2)
_cell_angle_gamma                90
_cell_volume                     2335.42
loop_
_atom_site_label
_atom_site_type_symbol
_atom_site_fract_x
_atom_site_fract_y
_atom_site_fract_z
Ag1 Ag -0.25373(2) 0.66011(3) 0.541915(15)
Ag2 Ag -0.50615(2) 0.90745(3) 0.321435(15)
N1 N -0.3809(3) 0.7917(3) 0.3894(2)
N2 N -0.1489(3) 0.6145(3) 0.7168(2)
N3 N -0.4675(3) 1.0959(3) 0.27148(18)
N4 N -0.1289(3) 1.5583(3) -0.08372(18)
N5 N -0.3523(3) 1.9937(3) 0.00902(18)
N6 N -0.5954(3) 1.5562(3) 0.41539(18)
C1 C -0.3341(3) 0.7396(3) 0.4409(2)
C2 C -0.1899(4) 0.6348(4) 0.6564(2)
C3 C -0.4294(3) 1.4376(3) 0.1755(2)
C4 C -0.4671(3) 1.5409(3) 0.2063(2)
C5 C -0.4538(3) 1.6480(3) 0.1716(2)
H1 H -0.4829 1.7172 0.1913
C6 C -0.3993(3) 1.6580(3) 0.1089(2)
C7 C -0.3539(3) 1.5540(3) 0.0813(2)
C8 C -0.3736(3) 1.4468(3) 0.1132(2)
H2 H -0.3483 1.3769 0.0921
C9 C -0.4446(3) 1.3179(3) 0.20664(19)
C10 C -0.3505(3) 1.2395(3) 0.2205(2)
H3 H -0.2768 1.2598 0.2077
C11 C -0.3654(3) 1.1312(3) 0.2534(2)
H4 H -0.2997 1.0796 0.2636
C12 C -0.5589(3) 1.1697(4) 0.2550(2)
H5 H -0.6329 1.1450 0.2654
C13 C -0.5520(3) 1.2797(4) 0.2237(2)
H6 H -0.6195 1.3290 0.2139
C14 C -0.5142(3) 1.5427(3) 0.2783(2)
C15 C -0.4622(3) 1.4770(4) 0.3405(2)
H7 H -0.3979 1.4262 0.3374
C16 C -0.5050(4) 1.4865(4) 0.4065(2)
H8 H -0.4683 1.4410 0.4482
C17 C -0.6440(3) 1.6193(4) 0.3559(2)
H9 H -0.7078 1.6697 0.3609
C18 C -0.6073(3) 1.6160(3) 0.2871(2)
H10 H -0.6452 1.6632 0.2466
C19 C -0.3887(3) 1.7751(3) 0.0740(2)
C20 C -0.3573(3) 1.8743(4) 0.1178(2)
H11 H -0.3483 1.8698 0.1710
C21 C -0.3391(3) 1.9797(4) 0.0836(2)
H12 H -0.3159 2.0460 0.1147
C22 C -0.3876(3) 1.8992(4) -0.0330(2)
H13 H -0.3995 1.9073 -0.0860
C23 C -0.4077(3) 1.7903(3) -0.0037(2)
H14 H -0.4342 1.7264 -0.0362
C24 C -0.2787(3) 1.5557(3) 0.0227(2)
C25 C -0.1759(3) 1.6246(4) 0.0328(2)
H15 H -0.1555 1.6724 0.0763
C26 C -0.1050(3) 1.6223(4) -0.0207(2)
H16 H -0.0353 1.6687 -0.0124
C27 C -0.2265(3) 1.4924(4) -0.0927(2)
H17 H -0.2451 1.4461 -0.1370
C28 C -0.3024(3) 1.4875(4) -0.0414(2)
H18 H -0.3697 1.4378 -0.0502
Ag1A Ag -0.24627(2) 2.16011(3) -0.041915(15)
Ag2C Ag -0.00615(2) 0.59255(3) 0.821435(15)
Ag2C_2 Ag -0.00615(2) 1.59255(3) -0.178565(15)
N2C N -0.6489(3) 0.8855(3) 0.2168(2)
N4C N -0.6289(3) 0.9417(3) 0.41628(18)
N5A N -0.1477(3) 0.4937(3) 0.49098(18)
loop_
_geom_bond_atom_site_label_1
_geom_bond_atom_site_label_2
_geom_bond_site_symmetry_1
_geom_bond_site_symmetry_2
Ag1 C1 1_555 1_555
Ag2 N1 1_555 1_555
N1 C1 1_555 1_555
N2 C2 1_555 1_555
N3 Ag2 1_555 1_555
N4 C26 1_555 1_555
N5 C21 1_555 1_555
N6 C16 1_555 1_555
C2 Ag1 1_555 1_555
C3 C4 1_555 1_555
C4 C5 1_555 1_555
C5 H1 1_555 1_555
C6 C5 1_555 1_555
C7 C6 1_555 1_555
C8 C3 1_555 1_555
H2 C8 1_555 1_555
C9 C3 1_555 1_555
C10 C9 1_555 1_555
H3 C10 1_555 1_555
C11 N3 1_555 1_555
H4 C11 1_555 1_555
C12 N3 1_555 1_555
H5 C12 1_555 1_555
C13 C9 1_555 1_555
H6 C13 1_555 1_555
C14 C4 1_555 1_555
C15 C14 1_555 1_555
H7 C15 1_555 1_555
C16 C15 1_555 1_555
H8 C16 1_555 1_555
C17 N6 1_555 1_555
H9 C17 1_555 1_555
C18 C14 1_555 1_555
H10 C18 1_555 1_555
C19 C6 1_555 1_555
C20 C19 1_555 1_555
H11 C20 1_555 1_555
C21 C20 1_555 1_555
H12 C21 1_555 1_555
C22 N5 1_555 1_555
H13 C22 1_555 1_555
C23 C19 1_555 1_555
H14 C23 1_555 1_555
C24 C7 1_555 1_555
C25 C24 1_555 1_555
H15 C25 1_555 1_555
C26 C25 1_555 1_555
H16 C26 1_555 1_555
C27 N4 1_555 1_555
H17 C27 1_555 1_555
C28 C24 1_555 1_555
H18 C28 1_555 1_555
Ag1A N5 1_555 1_555
Ag2C N2 1_555 1_555
Ag2C_2 N4 1_555 1_555
N2C Ag2 1_555 1_555
N4C Ag2 1_555 1_555
N5A Ag1 1_555 1_555
C7 C8 1_555 1_555
C10 C11 1_555 1_555
C12 C13 1_555 1_555
C17 C18 1_555 1_555
C22 C23 1_555 1_555
C27 C28 1_555 1_555

#END
