
#######################################################################
#
#                 Cambridge Crystallographic Data Centre
#                                CCDC 
#
#######################################################################
#
# If this CIF has been generated from an entry in the Cambridge 
# Structural Database, then it will include bibliographic, chemical, 
# crystal, experimental, refinement or atomic coordinate data resulting 
# from the CCDC's data processing and validation procedures.
#
#######################################################################

data_QOQPAO
_symmetry_cell_setting           monoclinic
_symmetry_space_group_name_H-M   'P 21/n'
_symmetry_Int_Tables_number      14
_space_group_name_Hall           '-P 2yn'
loop_
_symmetry_equiv_pos_site_id
_symmetry_equiv_pos_as_xyz
1 x,y,z
2 1/2-x,1/2+y,1/2-z
3 -x,-y,-z
4 1/2+x,1/2-y,1/2+z
_cell_length_a                   11.8777(4)
_cell_length_b                   19.0526(6)
_cell_length_c                   12.1372(4)
_cell_angle_alpha                90
_cell_angle_beta                 110.391(1)
_cell_angle_gamma                90
_cell_volume                     2574.55
loop_
_atom_site_label
_atom_site_type_symbol
_atom_site_fract_x
_atom_site_fract_y
_atom_site_fract_z
O1 O 0.3868(3) 0.25416(17) 0.8883(3)
H30 H 0.428(4) 0.278(2) 0.959(4)
H31 H 0.433(5) 0.224(3) 0.881(5)
O2 O 0.7395(4) 0.1566(2) 0.2265(3)
H32 H 0.699(6) 0.143(4) 0.269(6)
H33 H 0.776(5) 0.190(3) 0.273(5)
Au1 Au 0.5000 0.0000 0.5000
Ru1 Ru 0.98513(2) 0.135825(13) 0.97797(2)
P1 P 0.78622(7) 0.11207(4) 0.90755(7)
P2 P 1.02287(7) 0.12028(4) 0.80926(7)
N1 N 0.5514(2) 0.15275(15) 0.8633(2)
N2 N 0.6080(2) 0.03649(16) 0.9548(3)
N3 N 0.5808(2) 0.05396(14) 0.7462(2)
N4 N 1.0283(3) 0.03769(14) 0.6241(2)
N5 N 1.2028(3) 0.11367(16) 0.7120(3)
N6 N 1.0101(3) 0.16525(15) 0.5884(3)
N7 N 0.9999(2) 0.03017(16) 0.9970(2)
N8 N 0.2735(3) 0.09781(19) 0.4199(3)
N9 N 0.6389(4) 0.10852(19) 0.4034(4)
C2 C 0.3553(3) 0.06259(19) 0.4493(3)
C3 C 0.5894(3) 0.0697(2) 0.4392(3)
C4 C 0.6740(3) 0.18125(16) 0.8964(3)
H1 H 0.6948 0.2056 0.9730
H2 H 0.6767 0.2162 0.8370
C5 C 0.7381(3) 0.05044(19) 0.9997(3)
H3 H 0.7815 0.0055 1.0049
H4 H 0.7608 0.0699 1.0802
C6 C 0.7081(3) 0.06882(17) 0.7663(3)
H5 H 0.7133 0.0992 0.7020
H6 H 0.7496 0.0242 0.7633
C7 C 0.5415(3) 0.1009(2) 0.9503(3)
H7 H 0.5705 0.1229 1.0291
H8 H 0.4556 0.0891 0.9315
C8 C 0.5693(3) 0.00645(17) 0.8374(4)
H9 H 0.4842 -0.0080 0.8153
H10 H 0.6173 -0.0363 0.8392
C9 C 0.5144(3) 0.11811(18) 0.7479(3)
H11 H 0.4278 0.1067 0.7232
H12 H 0.5252 0.1514 0.6897
C10 C 0.9870(3) 0.03763(17) 0.7248(3)
H13 H 1.0250 -0.0020 0.7773
H14 H 0.8990 0.0302 0.6962
C11 C 1.1832(3) 0.12442(19) 0.8243(3)
H15 H 1.2159 0.1708 0.8567
H16 H 1.2281 0.0881 0.8810
C12 C 0.9664(3) 0.18223(17) 0.6849(3)
H17 H 0.8775 0.1813 0.6547
H18 H 0.9922 0.2304 0.7132
C13 C 1.1577(3) 0.04543(19) 0.6605(3)
H19 H 1.1822 0.0378 0.5914
H20 H 1.1960 0.0084 0.7187
C14 C 1.1429(4) 0.16844(19) 0.6278(4)
H21 H 1.1679 0.1644 0.5583
H22 H 1.1698 0.2148 0.6642
C15 C 0.9718(3) 0.09428(18) 0.5423(3)
H23 H 0.8836 0.0907 0.5210
H24 H 0.9904 0.0877 0.4695
C16 C 1.1525(4) 0.1838(2) 1.1026(4)
H25 H 1.2306 0.1660 1.1141
C17 C 1.0899(4) 0.2337(2) 1.0196(4)
H26 H 1.1190 0.2559 0.9648
C18 C 0.9784(4) 0.24576(18) 1.0296(3)
H27 H 0.9181 0.2769 0.9829
C19 C 0.9718(4) 0.2028(2) 1.1227(3)
H28 H 0.9065 0.2003 1.1506
C20 C 1.0780(4) 0.1651(2) 1.1655(3)
H29 H 1.0973 0.1318 1.2277
N3B N 0.4192(2) -0.05396(14) 0.2538(2)
N7B N 1.0001(2) -0.03017(16) 1.0030(2)
C2B C 0.6447(3) -0.06259(19) 0.5507(3)
C3B C 0.4106(3) -0.0697(2) 0.5608(3)
C1? C 1.0001(2) -0.03017(16) 1.0030(2)
loop_
_geom_bond_atom_site_label_1
_geom_bond_atom_site_label_2
_geom_bond_site_symmetry_1
_geom_bond_site_symmetry_2
Au1 N3 1_555 1_555
Ru1 P1 1_555 1_555
P1 C4 1_555 1_555
P2 Ru1 1_555 1_555
N1 C4 1_555 1_555
N2 C5 1_555 1_555
N3 C6 1_555 1_555
N4 C10 1_555 1_555
N5 C11 1_555 1_555
N6 C12 1_555 1_555
N7 Ru1 1_555 1_555
N8 C2 1_555 1_555
N9 C3 1_555 1_555
C2 Au1 1_555 1_555
C3 Au1 1_555 1_555
C4 H1 1_555 1_555
H2 C4 1_555 1_555
C5 P1 1_555 1_555
H3 C5 1_555 1_555
H4 C5 1_555 1_555
C6 P1 1_555 1_555
H5 C6 1_555 1_555
H6 C6 1_555 1_555
C7 N1 1_555 1_555
H7 C7 1_555 1_555
H8 C7 1_555 1_555
C8 N2 1_555 1_555
H9 C8 1_555 1_555
H10 C8 1_555 1_555
C9 N1 1_555 1_555
H11 C9 1_555 1_555
H12 C9 1_555 1_555
C10 P2 1_555 1_555
H13 C10 1_555 1_555
H14 C10 1_555 1_555
C11 P2 1_555 1_555
H15 C11 1_555 1_555
H16 C11 1_555 1_555
C12 P2 1_555 1_555
H17 C12 1_555 1_555
H18 C12 1_555 1_555
C13 N4 1_555 1_555
H19 C13 1_555 1_555
H20 C13 1_555 1_555
C14 N5 1_555 1_555
H21 C14 1_555 1_555
H22 C14 1_555 1_555
C15 N4 1_555 1_555
H23 C15 1_555 1_555
H24 C15 1_555 1_555
C16 Ru1 1_555 1_555
H25 C16 1_555 1_555
C17 Ru1 1_555 1_555
H26 C17 1_555 1_555
C18 Ru1 1_555 1_555
H27 C18 1_555 1_555
C19 Ru1 1_555 1_555
H28 C19 1_555 1_555
C20 Ru1 1_555 1_555
H29 C20 1_555 1_555
O1 H30 1_555 1_555
O2 H32 1_555 1_555
H31 O1 1_555 1_555
H33 O2 1_555 1_555
N3B Au1 1_555 1_555
N7B N7 1_555 1_555
C2B Au1 1_555 1_555
C3B Au1 1_555 1_555
N2 C7 1_555 1_555
N3 C8 1_555 1_555
N3 C9 1_555 1_555
N5 C13 1_555 1_555
N6 C14 1_555 1_555
N6 C15 1_555 1_555
C16 C17 1_555 1_555
C16 C20 1_555 1_555
C17 C18 1_555 1_555
C18 C19 1_555 1_555
C19 C20 1_555 1_555

#END
