
#######################################################################
#
#                 Cambridge Crystallographic Data Centre
#                                CCDC 
#
#######################################################################
#
# If this CIF has been generated from an entry in the Cambridge 
# Structural Database, then it will include bibliographic, chemical, 
# crystal, experimental, refinement or atomic coordinate data resulting 
# from the CCDC's data processing and validation procedures.
#
#######################################################################

data_QOQXOJ
_symmetry_cell_setting           monoclinic
_symmetry_space_group_name_H-M   'P 21/c'
_symmetry_Int_Tables_number      14
_space_group_name_Hall           '-P 2ybc'
loop_
_symmetry_equiv_pos_site_id
_symmetry_equiv_pos_as_xyz
1 x,y,z
2 x,1/2-y,1/2+z
3 -x,-y,-z
4 -x,1/2+y,1/2-z
_cell_length_a                   7.482(2)
_cell_length_b                   19.701(2)
_cell_length_c                   9.574(3)
_cell_angle_alpha                90
_cell_angle_beta                 111.78(2)
_cell_angle_gamma                90
_cell_volume                     1310.49
loop_
_atom_site_label
_atom_site_type_symbol
_atom_site_fract_x
_atom_site_fract_y
_atom_site_fract_z
Fe1 Fe 0.73373(6) 0.93209(2) 0.46455(5)
N1 N 0.5856(4) 0.85484(13) 0.5540(3)
N2 N 0.8337(4) 0.83462(14) 0.4132(3)
C1 C 0.4580(5) 0.8652(2) 0.6172(4)
H1 H 0.4278(5) 0.9096(2) 0.6329(4)
C2 C 0.3664(5) 0.8121(2) 0.6615(4)
H2 H 0.2762(5) 0.8214(2) 0.7045(4)
C3 C 0.4109(5) 0.7463(2) 0.6409(4)
H3 H 0.3534(5) 0.7105(2) 0.6720(4)
C4 C 0.5434(5) 0.7333(2) 0.5727(4)
C5 C 0.6011(6) 0.6660(2) 0.5489(4)
H4 H 0.5474(6) 0.6286(2) 0.5780(4)
C6 C 0.7325(6) 0.6564(2) 0.4846(4)
H5 H 0.7681(6) 0.6124(2) 0.4710(4)
C7 C 0.8177(5) 0.7121(2) 0.4371(4)
C8 C 0.9539(6) 0.7053(2) 0.3682(4)
H6 H 0.9935(6) 0.6625(2) 0.3503(4)
C9 C 1.0264(5) 0.7620(2) 0.3282(4)
H7 H 1.1187(5) 0.7582(2) 0.2851(4)
C10 C 0.9631(5) 0.8259(2) 0.3516(4)
H8 H 1.0141(5) 0.8640(2) 0.3226(4)
C11 C 0.7626(5) 0.7788(2) 0.4585(3)
C12 C 0.6256(5) 0.7896(2) 0.5291(4)
C13 C 1.0728(4) 0.9803(2) 0.7227(3)
C14 C 1.0289(4) 0.9905(2) 0.8645(3)
C15 C 0.8512(4) 1.01495(15) 0.8613(3)
C16 C 0.6858(4) 1.0298(2) 0.7142(3)
C17 C 1.1744(4) 0.9764(2) 1.0027(3)
H9 H 1.2923(4) 0.9606(2) 1.0043(3)
O1 O 0.7056(3) 1.01335(12) 0.5941(2)
O2 O 0.5399(3) 1.05816(13) 0.7213(2)
O3 O 1.0159(3) 0.92645(12) 0.6498(2)
O4 O 1.1686(3) 1.02614(13) 0.6950(3)
C17B C 0.8256(4) 1.0236(2) 0.9973(3)
C14B C 0.9711(4) 1.0095(2) 1.1355(3)
C13B C 0.9272(4) 1.0197(2) 1.2773(3)
O3B O 0.9841(3) 1.07355(12) 1.3502(2)
O4B O 0.8314(3) 0.97386(13) 1.3050(3)
C15B C 1.1488(4) 0.98505(15) 1.1387(3)
C16B C 1.3142(4) 0.9702(2) 1.2858(3)
O1B O 1.2944(3) 0.98665(12) 1.4059(2)
O2B O 1.4601(3) 0.94184(13) 1.2787(2)
H9B H 0.7077(4) 1.0394(2) 0.9957(3)
Fe1B Fe 1.26627(6) 1.06791(2) 1.53545(5)
N1B N 1.4144(4) 1.14516(13) 1.4460(3)
N2B N 1.1663(4) 1.16538(14) 1.5868(3)
C1B C 1.5420(5) 1.1348(2) 1.3828(4)
H1B H 1.5722(5) 1.0904(2) 1.3671(4)
C2B C 1.6336(5) 1.1879(2) 1.3385(4)
H2B H 1.7238(5) 1.1786(2) 1.2955(4)
C3B C 1.5891(5) 1.2537(2) 1.3591(4)
H3B H 1.6466(5) 1.2895(2) 1.3280(4)
C4B C 1.4566(5) 1.2667(2) 1.4273(4)
C5B C 1.3989(6) 1.3340(2) 1.4511(4)
H4B H 1.4526(6) 1.3714(2) 1.4220(4)
C6B C 1.2675(6) 1.3436(2) 1.5154(4)
H5B H 1.2319(6) 1.3876(2) 1.5290(4)
C7B C 1.1823(5) 1.2879(2) 1.5629(4)
C8B C 1.0461(6) 1.2947(2) 1.6318(4)
H6B H 1.0065(6) 1.3375(2) 1.6497(4)
C9B C 0.9736(5) 1.2380(2) 1.6718(4)
H7B H 0.8813(5) 1.2418(2) 1.7149(4)
C10B C 1.0369(5) 1.1741(2) 1.6484(4)
H8B H 0.9859(5) 1.1360(2) 1.6774(4)
C11B C 1.2374(5) 1.2212(2) 1.5415(3)
C12B C 1.3744(5) 1.2104(2) 1.4709(4)
O2B_2 O 0.4601(3) 0.94184(13) 0.2787(2)
O4B_2 O 0.8314(3) 0.97386(13) 0.3050(3)
Fe1B_2 Fe 0.26627(6) 1.06791(2) 0.53545(5)
Fe1B_3 Fe 1.26627(6) 1.06791(2) 0.53545(5)
Fe1_2 Fe 0.73373(6) 0.93209(2) 1.46455(5)
Fe1_3 Fe 1.73373(6) 0.93209(2) 1.46455(5)
O2_2 O 1.5399(3) 1.05816(13) 1.7213(2)
O4_2 O 1.1686(3) 1.02614(13) 1.6950(3)
loop_
_geom_bond_atom_site_label_1
_geom_bond_atom_site_label_2
_geom_bond_site_symmetry_1
_geom_bond_site_symmetry_2
Fe1 N1 1_555 1_555
N1 C1 1_555 1_555
N2 Fe1 1_555 1_555
C1 H1 1_555 1_555
C2 C1 1_555 1_555
H2 C2 1_555 1_555
C3 C2 1_555 1_555
H3 C3 1_555 1_555
C4 C3 1_555 1_555
C5 C4 1_555 1_555
H4 C5 1_555 1_555
C6 C5 1_555 1_555
H5 C6 1_555 1_555
C7 C6 1_555 1_555
C8 C7 1_555 1_555
H6 C8 1_555 1_555
C9 C8 1_555 1_555
H7 C9 1_555 1_555
C10 N2 1_555 1_555
H8 C10 1_555 1_555
C11 N2 1_555 1_555
C12 N1 1_555 1_555
C13 C14 1_555 1_555
C14 C15 1_555 1_555
C15 C16 1_555 1_555
C16 O1 1_555 1_555
C17 C14 1_555 1_555
H9 C17 1_555 1_555
O1 Fe1 1_555 1_555
O2 C16 1_555 1_555
O3 Fe1 1_555 1_555
O4 C13 1_555 1_555
C17B C15 1_555 1_555
C14B C17B 1_555 1_555
C13B C14B 1_555 1_555
O3B C13B 1_555 1_555
O4B C13B 1_555 1_555
C15B C17 1_555 1_555
C16B C15B 1_555 1_555
O1B C16B 1_555 1_555
O2B C16B 1_555 1_555
H9B C17B 1_555 1_555
Fe1B O3B 1_555 1_555
N1B Fe1B 1_555 1_555
N2B Fe1B 1_555 1_555
C1B N1B 1_555 1_555
H1B C1B 1_555 1_555
C2B C1B 1_555 1_555
H2B C2B 1_555 1_555
C3B C2B 1_555 1_555
H3B C3B 1_555 1_555
C4B C3B 1_555 1_555
C5B C4B 1_555 1_555
H4B C5B 1_555 1_555
C6B C5B 1_555 1_555
H5B C6B 1_555 1_555
C7B C6B 1_555 1_555
C8B C7B 1_555 1_555
H6B C8B 1_555 1_555
C9B C8B 1_555 1_555
H7B C9B 1_555 1_555
C10B N2B 1_555 1_555
H8B C10B 1_555 1_555
C11B N2B 1_555 1_555
C12B N1B 1_555 1_555
O2B_2 Fe1 1_555 1_555
O4B_2 Fe1 1_555 1_555
Fe1B_2 O2 1_555 1_555
Fe1B_3 O4 1_555 1_555
Fe1_2 O4B 1_555 1_555
Fe1_3 O2B 1_555 1_555
O2_2 Fe1B 1_555 1_555
O4_2 Fe1B 1_555 1_555
C4 C12 1_555 1_555
C7 C11 1_555 1_555
C9 C10 1_555 1_555
C11 C12 1_555 1_555
C13 O3 1_555 1_555
C14B C15B 1_555 1_555
O1B Fe1B 1_555 1_555
C4B C12B 1_555 1_555
C7B C11B 1_555 1_555
C9B C10B 1_555 1_555
C11B C12B 1_555 1_555

#END
