
#######################################################################
#
#                 Cambridge Crystallographic Data Centre
#                                CCDC 
#
#######################################################################
#
# If this CIF has been generated from an entry in the Cambridge 
# Structural Database, then it will include bibliographic, chemical, 
# crystal, experimental, refinement or atomic coordinate data resulting 
# from the CCDC's data processing and validation procedures.
#
#######################################################################

data_QOQYUR02
_symmetry_cell_setting           orthorhombic
_symmetry_space_group_name_H-M   'P b c n'
_symmetry_Int_Tables_number      60
_space_group_name_Hall           '-P 2n 2ab'
loop_
_symmetry_equiv_pos_site_id
_symmetry_equiv_pos_as_xyz
1 x,y,z
2 1/2-x,1/2-y,1/2+z
3 -x,y,1/2-z
4 1/2+x,1/2-y,-z
5 -x,-y,-z
6 1/2+x,1/2+y,1/2-z
7 x,-y,1/2+z
8 1/2-x,1/2+y,z
_cell_length_a                   16.0567(15)
_cell_length_b                   9.5316(9)
_cell_length_c                   14.6107(14)
_cell_angle_alpha                90
_cell_angle_beta                 90
_cell_angle_gamma                90
_cell_volume                     2236.11
loop_
_atom_site_label
_atom_site_type_symbol
_atom_site_fract_x
_atom_site_fract_y
_atom_site_fract_z
C1 C 0.2877(2) 0.7393(3) 0.3629(2)
H1 H 0.2673 0.8022 0.4100
H2 H 0.3291 0.7895 0.3273
C2 C 0.1376(2) 0.6789(4) 0.1854(2)
H3 H 0.1152 0.6882 0.1270
C3 C 0.2091(2) 0.7374(4) 0.2140(2)
H4 H 0.2450 0.7932 0.1797
C4 C 0.15381(18) 0.6191(3) 0.32504(19)
H5 H 0.1456 0.5792 0.3824
N1 N 0.21862(14) 0.6987(2) 0.30298(15)
N2 N 0.10263(15) 0.6036(2) 0.25533(14)
Zn1 Zn 0.5000 0.01256(5) 0.7500
N3 N 0.54166(16) 0.1154(2) 0.56574(16)
N4 N 0.49180(15) 0.1281(3) 0.63748(16)
C5 C 0.45047(18) 0.2717(3) 0.5382(2)
N5 N 0.43280(16) 0.2255(3) 0.62296(16)
C6 C 0.40588(19) 0.3867(3) 0.49250(18)
C7 C 0.42729(19) 0.4258(3) 0.40387(19)
H6 H 0.4680 0.3755 0.3726
C8 C 0.3890(2) 0.5381(3) 0.3617(2)
H7 H 0.4042 0.5631 0.3025
C9 C 0.32778(18) 0.6142(3) 0.4072(2)
N6 N 0.51614(15) 0.2052(3) 0.50174(16)
C10 C 0.3442(2) 0.4614(3) 0.5366(2)
H8 H 0.3285 0.4361 0.5956
C11 C 0.3057(2) 0.5729(3) 0.4945(2)
H9 H 0.2641 0.6214 0.5254
C1B C 0.7123(2) 0.7393(3) 1.1371(2)
H1B H 0.7327 0.8022 1.0900
H2B H 0.6709 0.7895 1.1727
C2B C 0.8624(2) 0.6789(4) 1.3146(2)
H3B H 0.8848 0.6882 1.3730
C3B C 0.7909(2) 0.7374(4) 1.2860(2)
H4B H 0.7550 0.7932 1.3203
C4B C 0.84619(18) 0.6191(3) 1.17496(19)
H5B H 0.8544 0.5792 1.1176
N1B N 0.78138(14) 0.6987(2) 1.19702(15)
N2B N 0.89737(15) 0.6036(2) 1.24467(14)
N3B N 0.45834(16) 0.1154(2) 0.93426(16)
N4B N 0.50820(15) 0.1281(3) 0.86252(16)
C5B C 0.54953(18) 0.2717(3) 0.9618(2)
N5B N 0.56720(16) 0.2255(3) 0.87704(16)
C6B C 0.59412(19) 0.3867(3) 1.00750(18)
C7B C 0.57271(19) 0.4258(3) 1.09613(19)
H6B H 0.5320 0.3755 1.1274
C8B C 0.6110(2) 0.5381(3) 1.1383(2)
H7B H 0.5958 0.5631 1.1975
C9B C 0.67222(18) 0.6142(3) 1.0928(2)
N6B N 0.48386(15) 0.2052(3) 0.99826(16)
C10B C 0.6558(2) 0.4614(3) 0.9634(2)
H8B H 0.6715 0.4361 0.9044
C11B C 0.6943(2) 0.5729(3) 1.0055(2)
H9B H 0.7359 0.6214 0.9746
N2A N 0.39737(15) -0.1036(2) 0.75533(14)
N2C N 0.60263(15) -0.1036(2) 0.74467(14)
Zn1A Zn 0.0000 0.48744(5) 0.2500
Zn1A_2 Zn 1.0000 0.48744(5) 1.2500
loop_
_geom_bond_atom_site_label_1
_geom_bond_atom_site_label_2
_geom_bond_site_symmetry_1
_geom_bond_site_symmetry_2
C1 H1 1_555 1_555
H2 C1 1_555 1_555
C2 H3 1_555 1_555
C3 C2 1_555 1_555
H4 C3 1_555 1_555
C4 H5 1_555 1_555
N1 C1 1_555 1_555
N2 C2 1_555 1_555
Zn1 N4 1_555 1_555
N3 N4 1_555 1_555
N4 N5 1_555 1_555
C5 N5 1_555 1_555
C6 C5 1_555 1_555
C7 C6 1_555 1_555
H6 C7 1_555 1_555
C8 C7 1_555 1_555
H7 C8 1_555 1_555
C9 C1 1_555 1_555
N6 N3 1_555 1_555
C10 C6 1_555 1_555
H8 C10 1_555 1_555
C11 C9 1_555 1_555
H9 C11 1_555 1_555
C1B H1B 1_555 1_555
H2B C1B 1_555 1_555
C2B H3B 1_555 1_555
C3B C2B 1_555 1_555
H4B C3B 1_555 1_555
C4B H5B 1_555 1_555
N1B C1B 1_555 1_555
N2B C2B 1_555 1_555
N3B N4B 1_555 1_555
N4B Zn1 1_555 1_555
C5B N5B 1_555 1_555
N5B N4B 1_555 1_555
C6B C5B 1_555 1_555
C7B C6B 1_555 1_555
H6B C7B 1_555 1_555
C8B C7B 1_555 1_555
H7B C8B 1_555 1_555
C9B C1B 1_555 1_555
N6B N3B 1_555 1_555
C10B C6B 1_555 1_555
H8B C10B 1_555 1_555
C11B C9B 1_555 1_555
H9B C11B 1_555 1_555
N2A Zn1 1_555 1_555
N2C Zn1 1_555 1_555
Zn1A N2 1_555 1_555
Zn1A_2 N2B 1_555 1_555
C3 N1 1_555 1_555
C4 N1 1_555 1_555
C4 N2 1_555 1_555
C5 N6 1_555 1_555
C8 C9 1_555 1_555
C10 C11 1_555 1_555
C3B N1B 1_555 1_555
C4B N1B 1_555 1_555
C4B N2B 1_555 1_555
C5B N6B 1_555 1_555
C8B C9B 1_555 1_555
C10B C11B 1_555 1_555

#END
