
#######################################################################
#
#                 Cambridge Crystallographic Data Centre
#                                CCDC 
#
#######################################################################
#
# If this CIF has been generated from an entry in the Cambridge 
# Structural Database, then it will include bibliographic, chemical, 
# crystal, experimental, refinement or atomic coordinate data resulting 
# from the CCDC's data processing and validation procedures.
#
#######################################################################

data_QOQYUR
_symmetry_cell_setting           monoclinic
_symmetry_space_group_name_H-M   'C 2/c'
_symmetry_Int_Tables_number      15
_space_group_name_Hall           '-C 2yn'
loop_
_symmetry_equiv_pos_site_id
_symmetry_equiv_pos_as_xyz
1 x,y,z
2 -x,y,1/2-z
3 1/2+x,1/2+y,z
4 1/2-x,1/2+y,1/2-z
5 -x,-y,-z
6 x,-y,1/2+z
7 1/2-x,1/2-y,-z
8 1/2+x,1/2-y,1/2+z
_cell_length_a                   25.470(14)
_cell_length_b                   5.921(3)
_cell_length_c                   15.790(9)
_cell_angle_alpha                90
_cell_angle_beta                 112.248(7)
_cell_angle_gamma                90
_cell_volume                     2203.98
loop_
_atom_site_label
_atom_site_type_symbol
_atom_site_fract_x
_atom_site_fract_y
_atom_site_fract_z
Zn1 Zn 0.0000 0.26379(12) -0.2500
N1 N 0.03231(15) 0.4201(6) -0.1323(2)
N2 N 0.08744(16) 0.6369(6) -0.0235(2)
N3 N 0.39065(18) 0.6742(7) 0.2926(3)
N4 N 0.44023(18) 0.5751(7) 0.3160(3)
N5 N 0.43637(17) 0.4237(6) 0.2527(3)
N6 N 0.38481(17) 0.4199(6) 0.1883(2)
C1 C 0.0618(2) 0.6085(8) -0.1130(3)
H1 H 0.0643 0.7089 -0.1566
C2 C 0.0400(2) 0.3248(8) -0.0494(3)
H2 H 0.0241 0.1891 -0.0413
C3 C 0.0734(2) 0.4554(9) 0.0176(3)
H3 H 0.0851 0.4291 0.0801
C4 C 0.1254(2) 0.8210(8) 0.0219(3)
H4 H 0.1118 0.8912 0.0653
H5 H 0.1241 0.9338 -0.0233
C5 C 0.1851(2) 0.7494(7) 0.0710(3)
C6 C 0.2207(2) 0.8848(8) 0.1392(3)
H6 H 0.2064 1.0166 0.1545
C7 C 0.2762(2) 0.8311(8) 0.1851(3)
H7 H 0.2993 0.9270 0.2307
C8 C 0.2986(2) 0.6370(7) 0.1649(3)
C9 C 0.2630(2) 0.5008(8) 0.0966(3)
H8 H 0.2774 0.3695 0.0813
C10 C 0.2071(2) 0.5525(8) 0.0506(3)
H9 H 0.1839 0.4555 0.0057
C11 C 0.3573(2) 0.5768(7) 0.2145(3)
Zn1F Zn -0.5000 0.23621(12) -0.7500
Zn1F_2 Zn 0.5000 0.23621(12) 0.2500
N1A N -0.03231(15) 0.4201(6) -0.3677(2)
N2A N -0.08744(16) 0.6369(6) -0.4765(2)
N3A N -0.39065(18) 0.6742(7) -0.7926(3)
N4A N -0.44023(18) 0.5751(7) -0.8160(3)
N5A N -0.43637(17) 0.4237(6) -0.7527(3)
N5F N 0.06363(17) 0.0763(6) -0.2527(3)
N5G N -0.06363(17) 0.0763(6) -0.2473(3)
N6A N -0.38481(17) 0.4199(6) -0.6883(2)
C1A C -0.0618(2) 0.6085(8) -0.3870(3)
H1A H -0.0643 0.7089 -0.3434
C2A C -0.0400(2) 0.3248(8) -0.4506(3)
H2A H -0.0241 0.1891 -0.4587
C3A C -0.0734(2) 0.4554(9) -0.5176(3)
H3A H -0.0851 0.4291 -0.5801
C4A C -0.1254(2) 0.8210(8) -0.5219(3)
H4A H -0.1118 0.8912 -0.5653
H5A H -0.1241 0.9338 -0.4767
C5A C -0.1851(2) 0.7494(7) -0.5710(3)
C6A C -0.2207(2) 0.8848(8) -0.6392(3)
H6A H -0.2064 1.0166 -0.6545
C7A C -0.2762(2) 0.8311(8) -0.6851(3)
H7A H -0.2993 0.9270 -0.7307
C8A C -0.2986(2) 0.6370(7) -0.6649(3)
C9A C -0.2630(2) 0.5008(8) -0.5966(3)
H8A H -0.2774 0.3695 -0.5813
C10A C -0.2071(2) 0.5525(8) -0.5506(3)
H9A H -0.1839 0.4555 -0.5057
C11A C -0.3573(2) 0.5768(7) -0.7145(3)
loop_
_geom_bond_atom_site_label_1
_geom_bond_atom_site_label_2
_geom_bond_site_symmetry_1
_geom_bond_site_symmetry_2
Zn1 N1 1_555 1_555
N1 C1 1_555 1_555
N2 C1 1_555 1_555
N3 N4 1_555 1_555
N4 N5 1_555 1_555
N5 N6 1_555 1_555
N6 C11 1_555 1_555
C1 H1 1_555 1_555
C2 N1 1_555 1_555
H2 C2 1_555 1_555
C3 N2 1_555 1_555
H3 C3 1_555 1_555
C4 N2 1_555 1_555
H4 C4 1_555 1_555
H5 C4 1_555 1_555
C5 C4 1_555 1_555
C6 C5 1_555 1_555
H6 C6 1_555 1_555
C7 C6 1_555 1_555
H7 C7 1_555 1_555
C8 C7 1_555 1_555
C9 C8 1_555 1_555
H8 C9 1_555 1_555
C10 C5 1_555 1_555
H9 C10 1_555 1_555
C11 N3 1_555 1_555
Zn1F N5A 1_555 1_555
Zn1F_2 N5 1_555 1_555
N1A Zn1 1_555 1_555
N2A C1A 1_555 1_555
N3A N4A 1_555 1_555
N4A N5A 1_555 1_555
N5A N6A 1_555 1_555
N5F Zn1 1_555 1_555
N5G Zn1 1_555 1_555
N6A C11A 1_555 1_555
C1A N1A 1_555 1_555
H1A C1A 1_555 1_555
C2A N1A 1_555 1_555
H2A C2A 1_555 1_555
C3A N2A 1_555 1_555
H3A C3A 1_555 1_555
C4A N2A 1_555 1_555
H4A C4A 1_555 1_555
H5A C4A 1_555 1_555
C5A C4A 1_555 1_555
C6A C5A 1_555 1_555
H6A C6A 1_555 1_555
C7A C6A 1_555 1_555
H7A C7A 1_555 1_555
C8A C7A 1_555 1_555
C9A C8A 1_555 1_555
H8A C9A 1_555 1_555
C10A C5A 1_555 1_555
H9A C10A 1_555 1_555
C11A N3A 1_555 1_555
C2 C3 1_555 1_555
C8 C11 1_555 1_555
C9 C10 1_555 1_555
C2A C3A 1_555 1_555
C8A C11A 1_555 1_555
C9A C10A 1_555 1_555

#END
