
#######################################################################
#
#                 Cambridge Crystallographic Data Centre
#                                CCDC 
#
#######################################################################
#
# If this CIF has been generated from an entry in the Cambridge 
# Structural Database, then it will include bibliographic, chemical, 
# crystal, experimental, refinement or atomic coordinate data resulting 
# from the CCDC's data processing and validation procedures.
#
#######################################################################

data_QORBEE
_symmetry_cell_setting           monoclinic
_symmetry_space_group_name_H-M   'P 21/m'
_symmetry_Int_Tables_number      11
_space_group_name_Hall           '-P 2yb'
loop_
_symmetry_equiv_pos_site_id
_symmetry_equiv_pos_as_xyz
1 x,y,z
2 -x,1/2+y,-z
3 -x,-y,-z
4 x,1/2-y,z
_cell_length_a                   3.719(3)
_cell_length_b                   12.62(1)
_cell_length_c                   8.800(6)
_cell_angle_alpha                90
_cell_angle_beta                 97.63(2)
_cell_angle_gamma                90
_cell_volume                     409.36
loop_
_atom_site_label
_atom_site_type_symbol
_atom_site_fract_x
_atom_site_fract_y
_atom_site_fract_z
Cu1 Cu 0.5000 0.0000 0.5000
Cl1 Cl 0.0467(2) 0.0578(1) 0.3205(1)
N1 N 0.5488(8) 0.1531(2) 0.5905(3)
S1 S 0.5735(4) 0.2500 0.4703(1)
C1 C 0.4604(10) 0.1930(4) 0.9949(4)
C2 C 0.4935(10) 0.1358(3) 0.8678(4)
C3 C 0.5241(7) 0.1931(3) 0.7296(3)
H1 H 0.426(13) 0.1582(49) 1.0817(57)
H2 H 0.500(10) 0.0533(37) 0.8547(45)
N1C N 0.5488(8) 0.3469(2) 0.5905(3)
C3C C 0.5241(7) 0.3069(3) 0.7296(3)
C2C C 0.4935(10) 0.3642(3) 0.8678(4)
C1C C 0.4604(10) 0.3070(4) 0.9949(4)
H1C H 0.426(13) 0.3418(49) 1.0817(57)
H2C H 0.500(10) 0.4467(37) 0.8547(45)
Cl1_2 Cl 1.0467(2) 0.0578(1) 0.3205(1)
Cl1B Cl -0.0467(2) -0.0578(1) 0.6795(1)
Cl1B_2 Cl 0.9533(2) -0.0578(1) 0.6795(1)
N1B N 0.4512(8) -0.1531(2) 0.4095(3)
Cu1_2 Cu -0.5000 0.0000 0.5000
Cu1A Cu 0.5000 0.5000 0.5000
loop_
_geom_bond_atom_site_label_1
_geom_bond_atom_site_label_2
_geom_bond_site_symmetry_1
_geom_bond_site_symmetry_2
Cu1 Cl1 1_555 1_555
Cl1 Cu1_2 1_555 1_555
N1 Cu1 1_555 1_555
S1 N1 1_555 1_555
C1 C2 1_555 1_555
C2 C3 1_555 1_555
C3 N1 1_555 1_555
H1 C1 1_555 1_555
H2 C2 1_555 1_555
N1C S1 1_555 1_555
C3C C3 1_555 1_555
C2C C3C 1_555 1_555
C1C C1 1_555 1_555
H1C C1C 1_555 1_555
H2C C2C 1_555 1_555
Cl1_2 Cu1 1_555 1_555
Cl1B Cu1 1_555 1_555
Cl1B_2 Cu1 1_555 1_555
N1B Cu1 1_555 1_555
Cu1_2 Cl1B 1_555 1_555
Cu1A N1C 1_555 1_555
N1C C3C 1_555 1_555
C2C C1C 1_555 1_555

#END
