
#######################################################################
#
#                 Cambridge Crystallographic Data Centre
#                                CCDC 
#
#######################################################################
#
# If this CIF has been generated from an entry in the Cambridge 
# Structural Database, then it will include bibliographic, chemical, 
# crystal, experimental, refinement or atomic coordinate data resulting 
# from the CCDC's data processing and validation procedures.
#
#######################################################################

data_QORBAA
_symmetry_cell_setting           orthorhombic
_symmetry_space_group_name_H-M   'I b m 2'
_symmetry_Int_Tables_number      46
_space_group_name_Hall           'I 2 -2b'
loop_
_symmetry_equiv_pos_site_id
_symmetry_equiv_pos_as_xyz
1 x,y,z
2 -x,-y,z
3 -x,1/2+y,z
4 x,1/2-y,z
5 1/2+x,1/2+y,1/2+z
6 1/2-x,1/2-y,1/2+z
7 1/2-x,y,1/2+z
8 1/2+x,-y,1/2+z
_cell_length_a                   3.840(2)
_cell_length_b                   12.229(5)
_cell_length_c                   15.724(6)
_cell_angle_alpha                90
_cell_angle_beta                 90
_cell_angle_gamma                90
_cell_volume                     738.389
loop_
_atom_site_label
_atom_site_type_symbol
_atom_site_fract_x
_atom_site_fract_y
_atom_site_fract_z
Cu1 Cu 0.0000 0.5000 0.6894(1)
Cl1 Cl -0.5000 0.5000 0.6008(1)
S1 S 0.1378(3) 0.7500 0.6841(1)
N1 N 0.0150(7) 0.6488(2) 0.7446(2)
C1 C -0.1259(8) 0.6914(2) 0.8158(2)
C2 C -0.2617(10) 0.6341(3) 0.8865(2)
C3 C -0.3927(10) 0.6926(3) 0.9522(2)
H1 H -0.238(11) 0.5510(37) 0.8855(26)
H2 H -0.482(11) 0.6612(48) 0.9974(31)
C1C C -0.1259(8) 0.8086(2) 0.8158(2)
N1C N 0.0150(7) 0.8512(2) 0.7446(2)
C2C C -0.2617(10) 0.8659(3) 0.8865(2)
C3C C -0.3927(10) 0.8074(3) 0.9522(2)
H2C H -0.482(11) 0.8388(48) 0.9974(31)
H1C H -0.238(11) 0.9490(37) 0.8855(26)
Cl1_2 Cl 0.5000 0.5000 0.6008(1)
N1A N -0.0150(7) 0.3512(2) 0.7446(2)
Cu1_2 Cu -1.0000 0.5000 0.6894(1)
Cu1B Cu 0.0000 1.0000 0.6894(1)
loop_
_geom_bond_atom_site_label_1
_geom_bond_atom_site_label_2
_geom_bond_site_symmetry_1
_geom_bond_site_symmetry_2
Cu1 Cl1 1_555 1_555
Cl1 Cu1_2 1_555 1_555
S1 N1 1_555 1_555
N1 Cu1 1_555 1_555
C1 N1 1_555 1_555
C2 C1 1_555 1_555
C3 C2 1_555 1_555
H1 C2 1_555 1_555
H2 C3 1_555 1_555
C1C C1 1_555 1_555
N1C S1 1_555 1_555
C2C C1C 1_555 1_555
C3C C3 1_555 1_555
H2C C3C 1_555 1_555
H1C C2C 1_555 1_555
Cl1_2 Cu1 1_555 1_555
N1A Cu1 1_555 1_555
Cu1B N1C 1_555 1_555
C1C N1C 1_555 1_555
C2C C3C 1_555 1_555

#END
