
#######################################################################
#
#                 Cambridge Crystallographic Data Centre
#                                CCDC 
#
#######################################################################
#
# If this CIF has been generated from an entry in the Cambridge 
# Structural Database, then it will include bibliographic, chemical, 
# crystal, experimental, refinement or atomic coordinate data resulting 
# from the CCDC's data processing and validation procedures.
#
#######################################################################

data_QORFOS
_symmetry_cell_setting           trigonal
_symmetry_space_group_name_H-M   'P -3'
_symmetry_Int_Tables_number      147
_space_group_name_Hall           '-P 3'
loop_
_symmetry_equiv_pos_site_id
_symmetry_equiv_pos_as_xyz
1 x,y,z
2 -y,x-y,z
3 -x+y,-x,z
4 -x,-y,-z
5 y,-x+y,-z
6 x-y,x,-z
_cell_length_a                   13.3994(14)
_cell_length_b                   13.3994(14)
_cell_length_c                   10.5933(16)
_cell_angle_alpha                90
_cell_angle_beta                 90
_cell_angle_gamma                120
_cell_volume                     1647.15
loop_
_atom_site_label
_atom_site_type_symbol
_atom_site_fract_x
_atom_site_fract_y
_atom_site_fract_z
Co1 Co 0.0000 0.0000 0.0000
N1 N 0.16004(19) 0.07971(18) -0.11139(19)
N2 N 0.3493(2) 0.1494(2) -0.1398(2)
C1 C 0.2551(2) 0.0810(2) -0.0723(3)
H1 H 0.2559 0.0380 -0.0038
C2 C 0.1979(3) 0.1540(3) -0.2158(3)
C3 C 0.1380(3) 0.1854(3) -0.3005(3)
H2 H 0.0589 0.1556 -0.2932
C4 C 0.1997(3) 0.2613(3) -0.3940(3)
H3 H 0.1613 0.2835 -0.4505
C5 C 0.3172(3) 0.3065(3) -0.4084(3)
H4 H 0.3558 0.3590 -0.4728
C6 C 0.3778(3) 0.2749(3) -0.3289(3)
H5 H 0.4564 0.3031 -0.3389
C7 C 0.3152(3) 0.1987(3) -0.2330(2)
C8 C 0.4681(3) 0.1762(3) -0.1180(3)
H6 H 0.5067 0.2450 -0.0662
H7 H 0.5078 0.1934 -0.1985
C9 C 0.4781(2) 0.0810(3) -0.0547(3)
C10 C 0.5048(3) 0.0895(3) 0.0741(3)
C11 C 0.4710(3) -0.0090(3) -0.1277(3)
C12 C 0.4989(3) 0.1785(3) 0.1556(4)
H8 H 0.4810 0.2265 0.1041
H9 H 0.5718 0.2252 0.1963
H10 H 0.4400 0.1407 0.2184
C13 C 0.4298(3) -0.0227(4) -0.2639(3)
H11 H 0.4299 -0.0879 -0.3012
H12 H 0.4803 0.0456 -0.3107
H13 H 0.3530 -0.0344 -0.2658
C11C C 0.5290(3) 0.0090(3) 0.1277(3)
C9C C 0.5219(2) -0.0810(3) 0.0547(3)
C8C C 0.5319(3) -0.1762(3) 0.1180(3)
N2C N 0.6507(2) -0.1494(2) 0.1398(2)
C1C C 0.7449(2) -0.0810(2) 0.0723(3)
N1C N 0.83996(19) -0.07971(18) 0.11139(19)
C2C C 0.8021(3) -0.1540(3) 0.2158(3)
C3C C 0.8620(3) -0.1854(3) 0.3005(3)
H2C H 0.9411 -0.1556 0.2932
C4C C 0.8003(3) -0.2613(3) 0.3940(3)
H3C H 0.8387 -0.2835 0.4505
C5C C 0.6828(3) -0.3065(3) 0.4084(3)
H4C H 0.6442 -0.3590 0.4728
C6C C 0.6222(3) -0.2749(3) 0.3289(3)
H5C H 0.5436 -0.3031 0.3389
C7C C 0.6848(3) -0.1987(3) 0.2330(2)
H1C H 0.7441 -0.0380 0.0038
H6C H 0.4933 -0.2450 0.0662
H7C H 0.4922 -0.1934 0.1985
C10C C 0.4952(3) -0.0895(3) -0.0741(3)
C12C C 0.5011(3) -0.1785(3) -0.1556(4)
H8C H 0.5190 -0.2265 -0.1041
H9C H 0.4282 -0.2252 -0.1963
H10C H 0.5600 -0.1407 -0.2184
C13C C 0.5702(3) 0.0227(4) 0.2639(3)
H11C H 0.5701 0.0879 0.3012
H12C H 0.5197 -0.0456 0.3107
H13C H 0.6470 0.0344 0.2658
N1A N -0.07971(18) 0.08033(26) -0.11139(19)
N2A N -0.1494(2) 0.1999(3) -0.1398(2)
C1A C -0.0810(2) 0.1741(3) -0.0723(3)
H1A H -0.0380 0.2179 -0.0038
C2A C -0.1540(3) 0.0439(4) -0.2158(3)
C3A C -0.1854(3) -0.0474(4) -0.3005(3)
H2A H -0.1556 -0.0967 -0.2932
C4A C -0.2613(3) -0.0616(4) -0.3940(3)
H3A H -0.2835 -0.1222 -0.4505
C5A C -0.3065(3) 0.0107(4) -0.4084(3)
H4A H -0.3590 -0.0032 -0.4728
C6A C -0.2749(3) 0.1029(4) -0.3289(3)
H5A H -0.3031 0.1533 -0.3389
C7A C -0.1987(3) 0.1165(4) -0.2330(2)
C8A C -0.1762(3) 0.2919(4) -0.1180(3)
H6A H -0.2450 0.2617 -0.0662
H7A H -0.1934 0.3144 -0.1985
C9A C -0.0810(3) 0.3971(4) -0.0547(3)
C10A C -0.0895(3) 0.4153(4) 0.0741(3)
C11A C 0.0090(3) 0.4800(4) -0.1277(3)
C12A C -0.1785(3) 0.3204(4) 0.1556(4)
H8A H -0.2265 0.2545 0.1041
H9A H -0.2252 0.3466 0.1963
H10A H -0.1407 0.2993 0.2184
C13A C 0.0227(4) 0.4525(5) -0.2639(3)
H11A H 0.0879 0.5178 -0.3012
H12A H -0.0456 0.4347 -0.3107
H13A H 0.0344 0.3874 -0.2658
C11D C -0.0090(3) 0.5200(4) 0.1277(3)
C9D C 0.0810(3) 0.6029(4) 0.0547(3)
C8D C 0.1762(3) 0.7081(4) 0.1180(3)
N2D N 0.1494(2) 0.8001(3) 0.1398(2)
C1D C 0.0810(2) 0.8259(3) 0.0723(3)
N1D N 0.07971(18) 0.91967(26) 0.11139(19)
C2D C 0.1540(3) 0.9561(4) 0.2158(3)
C3D C 0.1854(3) 1.0474(4) 0.3005(3)
H2D H 0.1556 1.0967 0.2932
C4D C 0.2613(3) 1.0616(4) 0.3940(3)
H3D H 0.2835 1.1222 0.4505
C5D C 0.3065(3) 0.9893(4) 0.4084(3)
H4D H 0.3590 1.0032 0.4728
C6D C 0.2749(3) 0.8971(4) 0.3289(3)
H5D H 0.3031 0.8467 0.3389
C7D C 0.1987(3) 0.8835(4) 0.2330(2)
H1D H 0.0380 0.7821 0.0038
H6D H 0.2450 0.7383 0.0662
H7D H 0.1934 0.6856 0.1985
C10D C 0.0895(3) 0.5847(4) -0.0741(3)
C12D C 0.1785(3) 0.6796(4) -0.1556(4)
H8D H 0.2265 0.7455 -0.1041
H9D H 0.2252 0.6534 -0.1963
H10D H 0.1407 0.7007 -0.2184
C13D C -0.0227(4) 0.5475(5) 0.2639(3)
H11D H -0.0879 0.4822 0.3012
H12D H 0.0456 0.5653 0.3107
H13D H -0.0344 0.6126 0.2658
N1B N -0.08033(26) -0.16004(19) -0.11139(19)
N2B N -0.1999(3) -0.3493(2) -0.1398(2)
C1B C -0.1741(3) -0.2551(2) -0.0723(3)
H1B H -0.2179 -0.2559 -0.0038
C2B C -0.0439(4) -0.1979(3) -0.2158(3)
C3B C 0.0474(4) -0.1380(3) -0.3005(3)
H2B H 0.0967 -0.0589 -0.2932
C4B C 0.0616(4) -0.1997(3) -0.3940(3)
H3B H 0.1222 -0.1613 -0.4505
C5B C -0.0107(4) -0.3172(3) -0.4084(3)
H4B H 0.0032 -0.3558 -0.4728
C6B C -0.1029(4) -0.3778(3) -0.3289(3)
H5B H -0.1533 -0.4564 -0.3389
C7B C -0.1165(4) -0.3152(3) -0.2330(2)
C8B C -0.2919(4) -0.4681(3) -0.1180(3)
H6B H -0.2617 -0.5067 -0.0662
H7B H -0.3144 -0.5078 -0.1985
C9B C -0.3971(4) -0.4781(2) -0.0547(3)
C10B C -0.4153(4) -0.5048(3) 0.0741(3)
C11B C -0.4800(4) -0.4710(3) -0.1277(3)
C12B C -0.3204(4) -0.4989(3) 0.1556(4)
H8B H -0.2545 -0.4810 0.1041
H9B H -0.3466 -0.5718 0.1963
H10B H -0.2993 -0.4400 0.2184
C13B C -0.4525(5) -0.4298(3) -0.2639(3)
H11B H -0.5178 -0.4299 -0.3012
H12B H -0.4347 -0.4803 -0.3107
H13B H -0.3874 -0.3530 -0.2658
C11E C -0.5200(4) -0.5290(3) 0.1277(3)
C9E C -0.6029(4) -0.5219(2) 0.0547(3)
C8E C -0.7081(4) -0.5319(3) 0.1180(3)
N2E N -0.8001(3) -0.6507(2) 0.1398(2)
C1E C -0.8259(3) -0.7449(2) 0.0723(3)
N1E N -0.91967(26) -0.83996(19) 0.11139(19)
C2E C -0.9561(4) -0.8021(3) 0.2158(3)
C3E C -1.0474(4) -0.8620(3) 0.3005(3)
H2E H -1.0967 -0.9411 0.2932
C4E C -1.0616(4) -0.8003(3) 0.3940(3)
H3E H -1.1222 -0.8387 0.4505
C5E C -0.9893(4) -0.6828(3) 0.4084(3)
H4E H -1.0032 -0.6442 0.4728
C6E C -0.8971(4) -0.6222(3) 0.3289(3)
H5E H -0.8467 -0.5436 0.3389
C7E C -0.8835(4) -0.6848(3) 0.2330(2)
H1E H -0.7821 -0.7441 0.0038
H6E H -0.7383 -0.4933 0.0662
H7E H -0.6856 -0.4922 0.1985
C10E C -0.5847(4) -0.4952(3) -0.0741(3)
C12E C -0.6796(4) -0.5011(3) -0.1556(4)
H8E H -0.7455 -0.5190 -0.1041
H9E H -0.6534 -0.4282 -0.1963
H10E H -0.7007 -0.5600 -0.2184
C13E C -0.5475(5) -0.5702(3) 0.2639(3)
H11E H -0.4822 -0.5701 0.3012
H12E H -0.5653 -0.5197 0.3107
H13E H -0.6126 -0.6470 0.2658
N1C_2 N -0.16004(19) -0.07971(18) 0.11139(19)
N1D_2 N 0.07971(18) -0.08033(26) 0.11139(19)
N1E_2 N 0.08033(26) 0.16004(19) 0.11139(19)
Co1_2 Co 1.0000 0.0000 0.0000
Co1_3 Co 0.0000 1.0000 0.0000
Co1_4 Co -1.0000 -1.0000 0.0000
Cl1 Cl 0.6667 0.3333 -0.47690(14)
O1 O 0.6667 0.3333 -0.3445(4)
O2 O 0.7751(4) 0.3593(5) -0.5140(4)
O2A O 0.6407(5) 0.4158(6) -0.5140(4)
O2B O 0.5842(6) 0.2249(4) -0.5140(4)
loop_
_geom_bond_atom_site_label_1
_geom_bond_atom_site_label_2
_geom_bond_site_symmetry_1
_geom_bond_site_symmetry_2
Co1 N1 1_555 1_555
N1 C1 1_555 1_555
N2 C1 1_555 1_555
C1 H1 1_555 1_555
C2 N1 1_555 1_555
C3 C2 1_555 1_555
H2 C3 1_555 1_555
C4 C3 1_555 1_555
H3 C4 1_555 1_555
C5 C4 1_555 1_555
H4 C5 1_555 1_555
C6 C5 1_555 1_555
H5 C6 1_555 1_555
C7 N2 1_555 1_555
C8 N2 1_555 1_555
H6 C8 1_555 1_555
H7 C8 1_555 1_555
C9 C8 1_555 1_555
C10 C9 1_555 1_555
C11 C9 1_555 1_555
C12 C10 1_555 1_555
H8 C12 1_555 1_555
H9 C12 1_555 1_555
H10 C12 1_555 1_555
C13 C11 1_555 1_555
H11 C13 1_555 1_555
H12 C13 1_555 1_555
H13 C13 1_555 1_555
Cl1 O1 1_555 1_555
O2 Cl1 1_555 1_555
C11C C10 1_555 1_555
C9C C11C 1_555 1_555
C8C C9C 1_555 1_555
N2C C8C 1_555 1_555
C1C N2C 1_555 1_555
N1C C1C 1_555 1_555
C2C N1C 1_555 1_555
C3C C2C 1_555 1_555
H2C C3C 1_555 1_555
C4C C3C 1_555 1_555
H3C C4C 1_555 1_555
C5C C4C 1_555 1_555
H4C C5C 1_555 1_555
C6C C5C 1_555 1_555
H5C C6C 1_555 1_555
C7C N2C 1_555 1_555
H1C C1C 1_555 1_555
H6C C8C 1_555 1_555
H7C C8C 1_555 1_555
C10C C11 1_555 1_555
C12C C10C 1_555 1_555
H8C C12C 1_555 1_555
H9C C12C 1_555 1_555
H10C C12C 1_555 1_555
C13C C11C 1_555 1_555
H11C C13C 1_555 1_555
H12C C13C 1_555 1_555
H13C C13C 1_555 1_555
O2A Cl1 1_555 1_555
O2B Cl1 1_555 1_555
N1A Co1 1_555 1_555
N2A C1A 1_555 1_555
C1A N1A 1_555 1_555
H1A C1A 1_555 1_555
C2A N1A 1_555 1_555
C3A C2A 1_555 1_555
H2A C3A 1_555 1_555
C4A C3A 1_555 1_555
H3A C4A 1_555 1_555
C5A C4A 1_555 1_555
H4A C5A 1_555 1_555
C6A C5A 1_555 1_555
H5A C6A 1_555 1_555
C7A N2A 1_555 1_555
C8A N2A 1_555 1_555
H6A C8A 1_555 1_555
H7A C8A 1_555 1_555
C9A C8A 1_555 1_555
C10A C9A 1_555 1_555
C11A C9A 1_555 1_555
C12A C10A 1_555 1_555
H8A C12A 1_555 1_555
H9A C12A 1_555 1_555
H10A C12A 1_555 1_555
C13A C11A 1_555 1_555
H11A C13A 1_555 1_555
H12A C13A 1_555 1_555
H13A C13A 1_555 1_555
C11D C10A 1_555 1_555
C9D C11D 1_555 1_555
C8D C9D 1_555 1_555
N2D C8D 1_555 1_555
C1D N2D 1_555 1_555
N1D C1D 1_555 1_555
C2D N1D 1_555 1_555
C3D C2D 1_555 1_555
H2D C3D 1_555 1_555
C4D C3D 1_555 1_555
H3D C4D 1_555 1_555
C5D C4D 1_555 1_555
H4D C5D 1_555 1_555
C6D C5D 1_555 1_555
H5D C6D 1_555 1_555
C7D N2D 1_555 1_555
H1D C1D 1_555 1_555
H6D C8D 1_555 1_555
H7D C8D 1_555 1_555
C10D C11A 1_555 1_555
C12D C10D 1_555 1_555
H8D C12D 1_555 1_555
H9D C12D 1_555 1_555
H10D C12D 1_555 1_555
C13D C11D 1_555 1_555
H11D C13D 1_555 1_555
H12D C13D 1_555 1_555
H13D C13D 1_555 1_555
N1B Co1 1_555 1_555
N2B C1B 1_555 1_555
C1B N1B 1_555 1_555
H1B C1B 1_555 1_555
C2B N1B 1_555 1_555
C3B C2B 1_555 1_555
H2B C3B 1_555 1_555
C4B C3B 1_555 1_555
H3B C4B 1_555 1_555
C5B C4B 1_555 1_555
H4B C5B 1_555 1_555
C6B C5B 1_555 1_555
H5B C6B 1_555 1_555
C7B N2B 1_555 1_555
C8B N2B 1_555 1_555
H6B C8B 1_555 1_555
H7B C8B 1_555 1_555
C9B C8B 1_555 1_555
C10B C9B 1_555 1_555
C11B C9B 1_555 1_555
C12B C10B 1_555 1_555
H8B C12B 1_555 1_555
H9B C12B 1_555 1_555
H10B C12B 1_555 1_555
C13B C11B 1_555 1_555
H11B C13B 1_555 1_555
H12B C13B 1_555 1_555
H13B C13B 1_555 1_555
C11E C10B 1_555 1_555
C9E C11E 1_555 1_555
C8E C9E 1_555 1_555
N2E C8E 1_555 1_555
C1E N2E 1_555 1_555
N1E C1E 1_555 1_555
C2E N1E 1_555 1_555
C3E C2E 1_555 1_555
H2E C3E 1_555 1_555
C4E C3E 1_555 1_555
H3E C4E 1_555 1_555
C5E C4E 1_555 1_555
H4E C5E 1_555 1_555
C6E C5E 1_555 1_555
H5E C6E 1_555 1_555
C7E N2E 1_555 1_555
H1E C1E 1_555 1_555
H6E C8E 1_555 1_555
H7E C8E 1_555 1_555
C10E C11B 1_555 1_555
C12E C10E 1_555 1_555
H8E C12E 1_555 1_555
H9E C12E 1_555 1_555
H10E C12E 1_555 1_555
C13E C11E 1_555 1_555
H11E C13E 1_555 1_555
H12E C13E 1_555 1_555
H13E C13E 1_555 1_555
N1C_2 Co1 1_555 1_555
N1D_2 Co1 1_555 1_555
N1E_2 Co1 1_555 1_555
Co1_2 N1C 1_555 1_555
Co1_3 N1D 1_555 1_555
Co1_4 N1E 1_555 1_555
C2 C7 1_555 1_555
C6 C7 1_555 1_555
C9C C10C 1_555 1_555
C2C C7C 1_555 1_555
C6C C7C 1_555 1_555
C2A C7A 1_555 1_555
C6A C7A 1_555 1_555
C9D C10D 1_555 1_555
C2D C7D 1_555 1_555
C6D C7D 1_555 1_555
C2B C7B 1_555 1_555
C6B C7B 1_555 1_555
C9E C10E 1_555 1_555
C2E C7E 1_555 1_555
C6E C7E 1_555 1_555

#END
