
#######################################################################
#
#                 Cambridge Crystallographic Data Centre
#                                CCDC 
#
#######################################################################
#
# If this CIF has been generated from an entry in the Cambridge 
# Structural Database, then it will include bibliographic, chemical, 
# crystal, experimental, refinement or atomic coordinate data resulting 
# from the CCDC's data processing and validation procedures.
#
#######################################################################

data_QORMEP
_symmetry_cell_setting           monoclinic
_symmetry_space_group_name_H-M   'P 21/n'
_symmetry_Int_Tables_number      14
_space_group_name_Hall           '-P 2yn'
loop_
_symmetry_equiv_pos_site_id
_symmetry_equiv_pos_as_xyz
1 x,y,z
2 1/2+x,1/2-y,1/2+z
3 -x,-y,-z
4 1/2-x,1/2+y,1/2-z
_cell_length_a                   7.7155(6)
_cell_length_b                   13.459(2)
_cell_length_c                   16.671(3)
_cell_angle_alpha                90
_cell_angle_beta                 100.797(10)
_cell_angle_gamma                90
_cell_volume                     1700.52
loop_
_atom_site_label
_atom_site_type_symbol
_atom_site_fract_x
_atom_site_fract_y
_atom_site_fract_z
Cu1 Cu 0.15445(7) -0.25215(4) -0.13813(3)
Cl1 Cl -0.35000(14) -0.21272(9) -0.14301(6)
N1 N 0.1620(4) -0.3983(2) -0.0958(2)
N2 N 0.1807(5) -0.2044(3) -0.0243(2)
N3 N 0.2581(4) -0.2591(2) 0.0400(2)
N4 N 0.1318(4) -0.3034(3) -0.2501(2)
N5 N 0.0591(4) -0.3922(2) -0.2734(2)
N6 N 0.1380(7) -0.1133(3) -0.1729(3)
N7 N 0.0541(6) -0.0814(3) -0.2332(3)
N8 N -0.0269(10) -0.0465(4) -0.2900(3)
C1 C 0.2584(5) -0.4239(3) -0.0224(2)
C2 C 0.2582(6) -0.5193(3) 0.0080(3)
C3 C 0.1588(6) -0.5916(3) -0.0370(3)
C4 C 0.0613(6) -0.5666(3) -0.1123(3)
C5 C 0.0654(5) -0.4697(3) -0.1400(2)
C6 C 0.3654(5) -0.3438(3) 0.0271(3)
C7 C 0.2275(6) -0.2206(4) 0.1102(3)
C8 C 0.1255(7) -0.1385(4) 0.0906(4)
C9 C 0.0998(7) -0.1312(4) 0.0071(4)
C10 C -0.0453(6) -0.4418(3) -0.2214(3)
C11 C 0.0874(6) -0.4180(4) -0.3474(3)
C12 C 0.1838(6) -0.3435(4) -0.3731(3)
C13 C 0.2093(6) -0.2743(4) -0.3115(3)
O1 O -0.1906(5) -0.2665(3) -0.1233(3)
O2 O -0.4899(6) -0.2737(4) -0.1271(3)
O3 O -0.3831(7) -0.1858(5) -0.2242(3)
O4 O -0.3344(8) -0.1273(5) -0.0937(4)
H1 H 0.3223(56) -0.5313(32) 0.0585(27)
H2 H 0.1531(59) -0.6522(34) -0.0162(26)
H3 H -0.0116(63) -0.6168(36) -0.1429(28)
H4 H 0.4479(59) -0.3258(32) -0.0055(27)
H5 H 0.4105(58) -0.3666(33) 0.0814(29)
H6 H 0.2735(73) -0.2508(37) 0.1630(35)
H7 H 0.0883(66) -0.0951(38) 0.1264(31)
H8 H 0.0421(66) -0.0872(36) -0.0281(29)
H9 H -0.1305(50) -0.4009(27) -0.2131(21)
H10 H -0.0900(53) -0.5013(32) -0.2497(24)
H11 H 0.0462(54) -0.4724(32) -0.3683(24)
H12 H 0.2173(68) -0.3450(38) -0.4268(32)
H13 H 0.2730(58) -0.2078(34) -0.3038(25)
O2_2 O 0.5101(6) -0.2737(4) -0.1271(3)
Cu1_2 Cu -0.84555(7) -0.25215(4) -0.13813(3)
loop_
_geom_bond_atom_site_label_1
_geom_bond_atom_site_label_2
_geom_bond_site_symmetry_1
_geom_bond_site_symmetry_2
Cu1 N1 1_555 1_555
Cl1 O1 1_555 1_555
N1 C1 1_555 1_555
N2 Cu1 1_555 1_555
N3 N2 1_555 1_555
N4 Cu1 1_555 1_555
N5 N4 1_555 1_555
N6 Cu1 1_555 1_555
N7 N6 1_555 1_555
N8 N7 1_555 1_555
C1 C2 1_555 1_555
C2 C3 1_555 1_555
C3 C4 1_555 1_555
C4 C5 1_555 1_555
C5 N1 1_555 1_555
C6 N3 1_555 1_555
C7 N3 1_555 1_555
C8 C7 1_555 1_555
C9 N2 1_555 1_555
C10 N5 1_555 1_555
C11 N5 1_555 1_555
C12 C11 1_555 1_555
C13 N4 1_555 1_555
O1 Cu1 1_555 1_555
O2 Cl1 1_555 1_555
O3 Cl1 1_555 1_555
O4 Cl1 1_555 1_555
H1 C2 1_555 1_555
H2 C3 1_555 1_555
H3 C4 1_555 1_555
H4 C6 1_555 1_555
H5 C6 1_555 1_555
H6 C7 1_555 1_555
H7 C8 1_555 1_555
H8 C9 1_555 1_555
H9 C10 1_555 1_555
H10 C10 1_555 1_555
H11 C11 1_555 1_555
H12 C12 1_555 1_555
H13 C13 1_555 1_555
O2_2 Cu1 1_555 1_555
Cu1_2 O2 1_555 1_555
C1 C6 1_555 1_555
C5 C10 1_555 1_555
C8 C9 1_555 1_555
C12 C13 1_555 1_555

#END
