
#######################################################################
#
#                 Cambridge Crystallographic Data Centre
#                                CCDC 
#
#######################################################################
#
# If this CIF has been generated from an entry in the Cambridge 
# Structural Database, then it will include bibliographic, chemical, 
# crystal, experimental, refinement or atomic coordinate data resulting 
# from the CCDC's data processing and validation procedures.
#
#######################################################################

data_QORREW
_symmetry_cell_setting           triclinic
_symmetry_space_group_name_H-M   'P -1'
_symmetry_Int_Tables_number      2
_space_group_name_Hall           '-P 1'
loop_
_symmetry_equiv_pos_site_id
_symmetry_equiv_pos_as_xyz
1 x,y,z
2 -x,-y,-z
_cell_length_a                   8.4372(4)
_cell_length_b                   10.4765(5)
_cell_length_c                   13.6222(6)
_cell_angle_alpha                76.3450(10)
_cell_angle_beta                 72.1510(10)
_cell_angle_gamma                74.1740(10)
_cell_volume                     1087.3
loop_
_atom_site_label
_atom_site_type_symbol
_atom_site_fract_x
_atom_site_fract_y
_atom_site_fract_z
Cd1 Cd 0.31317(3) 0.17932(2) 0.566773(16)
O1 O 0.3280(3) -0.7224(2) 0.70497(19)
O2 O 0.0368(4) -0.2840(3) 0.99154(19)
C1 C 0.2297(4) -0.2569(3) 0.7845(3)
H1 H 0.2069 -0.1809 0.8149
O3 O 0.3901(3) -0.1189(2) 0.51141(18)
O4 O 0.3230(3) -0.5912(3) 0.55192(19)
O5 O 0.1652(4) -0.4937(3) 1.01553(19)
O6 O 0.3096(4) -0.0269(2) 0.6564(2)
C2 C -0.5329(4) 0.2167(4) 1.0142(3)
H2 H -0.6221 0.2874 1.0006
N1 N 0.1283(4) -0.3848(3) 0.9581(2)
C3 C 0.3215(4) -0.3668(3) 0.6331(3)
H3 H 0.3596 -0.3620 0.5609
C4 C -0.3703(4) 0.2126(4) 0.9472(3)
C5 C -0.5646(4) 0.1175(3) 1.1007(2)
C6 C -0.2613(5) 0.2428(4) 0.6848(3)
H4 H -0.3687 0.2378 0.6830
N2 N 0.0190(4) 0.2308(3) 0.6437(2)
C7 C 0.1995(4) -0.3791(3) 0.8448(2)
C8 C -0.2393(4) 0.1039(4) 0.9680(3)
H5 H -0.1301 0.0980 0.9234
N3 N -0.2223(4) 0.2842(3) 0.7611(2)
C9 C 0.2955(4) -0.2525(3) 0.6769(2)
C10 C 0.2328(4) -0.4958(3) 0.8035(2)
H6 H 0.2165 -0.5770 0.8465
C11 C 0.2913(4) -0.4864(3) 0.6955(2)
C12 C -0.1112(5) 0.2104(4) 0.6123(3)
H7 H -0.0985 0.1794 0.5512
C13 C 0.3165(4) -0.6086(3) 0.6468(3)
C14 C -0.3404(5) 0.3273(4) 0.8573(3)
H8 H -0.4489 0.3751 0.8429
H9 H -0.2956 0.3898 0.8782
C15 C -0.4313(5) 0.0108(4) 1.1213(3)
H10 H -0.4511 -0.0557 1.1796
C16 C 0.3347(4) -0.1212(3) 0.6084(3)
C17 C -0.2707(5) 0.0048(4) 1.0547(3)
H11 H -0.1821 -0.0666 1.0679
C18 C -0.0526(4) 0.2744(4) 0.7334(3)
H12 H 0.0064 0.2958 0.7726
N4 N -0.7657(4) 0.1942(3) 1.2599(2)
C19 C -0.7433(4) 0.1269(4) 1.1726(3)
H13 H -0.8256 0.1764 1.1332
H14 H -0.7647 0.0372 1.1995
C20 C -0.8077(5) 0.3307(4) 1.2607(3)
H15 H -0.8398 0.3987 1.2083
N5 N -0.7397(4) 0.2229(3) 1.4086(2)
C21 C -0.7235(4) 0.1335(4) 1.3503(3)
H16 H -0.6878 0.0411 1.3689
C22 C -0.7927(6) 0.3460(4) 1.3531(3)
H17 H -0.8152 0.4279 1.3754
Cd1_2 Cd -0.68683(3) 0.17932(2) 1.566773(16)
Cd1_3 Cd 0.31317(3) -0.82068(2) 0.566773(16)
Cd1A Cd 0.68683(3) -0.17932(2) 0.433227(16)
O1_2 O 0.3280(3) 0.2776(2) 0.70497(19)
O3A O 0.6099(3) 0.1189(2) 0.48859(18)
O4_2 O 0.3230(3) 0.4088(3) 0.55192(19)
N5_2 N 0.2603(4) 0.2229(3) 0.4086(2)
loop_
_geom_bond_atom_site_label_1
_geom_bond_atom_site_label_2
_geom_bond_site_symmetry_1
_geom_bond_site_symmetry_2
Cd1 O6 1_555 1_555
O1 C13 1_555 1_555
O2 N1 1_555 1_555
C1 H1 1_555 1_555
O3 C16 1_555 1_555
O4 C13 1_555 1_555
O5 N1 1_555 1_555
O6 C16 1_555 1_555
C2 H2 1_555 1_555
N1 C7 1_555 1_555
C3 H3 1_555 1_555
C4 C2 1_555 1_555
C5 C2 1_555 1_555
C6 H4 1_555 1_555
N2 Cd1 1_555 1_555
C7 C1 1_555 1_555
C8 C4 1_555 1_555
H5 C8 1_555 1_555
N3 C6 1_555 1_555
C9 C1 1_555 1_555
C10 C7 1_555 1_555
H6 C10 1_555 1_555
C11 C3 1_555 1_555
C12 C6 1_555 1_555
H7 C12 1_555 1_555
C13 C11 1_555 1_555
C14 C4 1_555 1_555
H8 C14 1_555 1_555
H9 C14 1_555 1_555
C15 C5 1_555 1_555
H10 C15 1_555 1_555
C16 C9 1_555 1_555
C17 C8 1_555 1_555
H11 C17 1_555 1_555
C18 N2 1_555 1_555
H12 C18 1_555 1_555
N4 C19 1_555 1_555
C19 C5 1_555 1_555
H13 C19 1_555 1_555
H14 C19 1_555 1_555
C20 N4 1_555 1_555
H15 C20 1_555 1_555
N5 C21 1_555 1_555
C21 N4 1_555 1_555
H16 C21 1_555 1_555
C22 C20 1_555 1_555
H17 C22 1_555 1_555
Cd1_2 N5 1_555 1_555
Cd1_3 O1 1_555 1_555
Cd1A O3 1_555 1_555
O1_2 Cd1 1_555 1_555
O3A Cd1 1_555 1_555
O4_2 Cd1 1_555 1_555
N5_2 Cd1 1_555 1_555
O4 Cd1_3 1_555 1_555
C3 C9 1_555 1_555
N2 C12 1_555 1_555
N3 C14 1_555 1_555
N3 C18 1_555 1_555
C10 C11 1_555 1_555
C15 C17 1_555 1_555
N5 C22 1_555 1_555

#END
