
#######################################################################
#
#                 Cambridge Crystallographic Data Centre
#                                CCDC 
#
#######################################################################
#
# If this CIF has been generated from an entry in the Cambridge 
# Structural Database, then it will include bibliographic, chemical, 
# crystal, experimental, refinement or atomic coordinate data resulting 
# from the CCDC's data processing and validation procedures.
#
#######################################################################

data_QORSUN
_symmetry_cell_setting           monoclinic
_symmetry_space_group_name_H-M   'P 21/c'
_symmetry_Int_Tables_number      14
_space_group_name_Hall           '-P 2ybc'
loop_
_symmetry_equiv_pos_site_id
_symmetry_equiv_pos_as_xyz
1 x,y,z
2 -x,1/2+y,1/2-z
3 -x,-y,-z
4 x,1/2-y,1/2+z
_cell_length_a                   7.0941(7)
_cell_length_b                   16.5984(16)
_cell_length_c                   15.0594(16)
_cell_angle_alpha                90
_cell_angle_beta                 97.758(9)
_cell_angle_gamma                90
_cell_volume                     1757.02
loop_
_atom_site_label
_atom_site_type_symbol
_atom_site_fract_x
_atom_site_fract_y
_atom_site_fract_z
Cu1 Cu 0.97419(4) 0.163713(15) 0.325858(19)
C1 C 0.9962(3) -0.00924(14) 0.25444(17)
H1 H 0.9281 0.0086 0.2010
C2 C 1.0486(4) -0.09006(14) 0.2619(2)
H2 H 1.0173 -0.1248 0.2138
C3 C 1.1459(3) -0.11796(15) 0.3399(2)
H3 H 1.1812 -0.1719 0.3454
C4 C 1.1924(3) -0.06505(14) 0.41185(18)
C5 C 1.2894(3) -0.08720(16) 0.4975(2)
H4 H 1.3238 -0.1407 0.5082
C6 C 1.3326(3) -0.03255(17) 0.56330(19)
H5 H 1.3959 -0.0491 0.6184
C7 C 1.2824(3) 0.05074(15) 0.54979(17)
C8 C 1.3298(3) 0.11197(17) 0.61304(17)
H6 H 1.3972 0.0998 0.6687
C9 C 1.2763(4) 0.18953(17) 0.59242(18)
H7 H 1.3103 0.2307 0.6333
C10 C 1.1716(3) 0.20629(15) 0.51050(17)
H8 H 1.1332 0.2591 0.4981
C11 C 1.1825(3) 0.07367(13) 0.46768(15)
C12 C 1.1366(3) 0.01571(13) 0.39796(16)
C13 C 0.6889(3) 0.28886(12) 0.35565(16)
C14 C 0.6965(3) 0.36169(12) 0.68543(16)
C15 C 0.6086(3) 0.36238(12) 0.58892(16)
C16 C 0.4371(3) 0.40322(12) 0.56805(16)
H9 H 0.3797 0.4274 0.6133
C17 C 0.3528(3) 0.40780(13) 0.48082(16)
C18 C 0.4363(3) 0.37133(13) 0.41298(16)
H10 H 0.3781 0.3749 0.3540
C19 C 0.6064(3) 0.32957(12) 0.43264(15)
C20 C 0.6929(3) 0.32542(12) 0.52126(15)
H11 H 0.8072 0.2979 0.5352
C21 C 0.0880(3) 0.48042(14) 0.52325(17)
H12 H 0.1686 0.5198 0.5575
H13 H 0.0557 0.4386 0.5636
N1 N 1.0394(2) 0.04333(10) 0.32044(13)
N2 N 1.1233(2) 0.15047(11) 0.44864(12)
O1 O 0.8535(2) 0.25680(9) 0.37644(10)
O2 O 0.5948(2) 0.28990(10) 0.28113(11)
O3 O 0.8635(2) 0.33123(9) 0.70192(10)
O4 O 0.6086(2) 0.39228(10) 0.74274(11)
O5 O 0.1826(2) 0.44676(10) 0.45433(11)
O6 O 1.2716(2) 0.19207(11) 0.27932(13)
H14 H 1.3334 0.2348 0.2917
H15 H 1.3375 0.1516 0.2672
C13B C -0.6889(3) 0.71114(12) 0.64435(16)
C14B C -0.6965(3) 0.63831(12) 0.31457(16)
C15B C -0.6086(3) 0.63762(12) 0.41108(16)
C16B C -0.4371(3) 0.59678(12) 0.43195(16)
H9B H -0.3797 0.5726 0.3867
C17B C -0.3528(3) 0.59220(13) 0.51918(16)
C18B C -0.4363(3) 0.62867(13) 0.58702(16)
H10B H -0.3781 0.6251 0.6460
C19B C -0.6064(3) 0.67043(12) 0.56736(15)
C20B C -0.6929(3) 0.67458(12) 0.47874(15)
H11B H -0.8072 0.7021 0.4648
C21B C -0.0880(3) 0.51958(14) 0.47675(17)
H12B H -0.1686 0.4802 0.4425
H13B H -0.0557 0.5614 0.4364
O1B O -0.8535(2) 0.74320(9) 0.62356(10)
O2B O -0.5948(2) 0.71010(10) 0.71887(11)
O3B O -0.8635(2) 0.66877(9) 0.29808(10)
O4B O -0.6086(2) 0.60772(10) 0.25726(11)
O5B O -0.1826(2) 0.55324(10) 0.54567(11)
Cu1B Cu -0.97419(4) 0.836287(15) 0.674142(19)
C1B C -0.9962(3) 1.00924(14) 0.74556(17)
H1B H -0.9281 0.9914 0.7990
C2B C -1.0486(4) 1.09006(14) 0.7381(2)
H2B H -1.0173 1.1248 0.7862
C3B C -1.1459(3) 1.11796(15) 0.6601(2)
H3B H -1.1812 1.1719 0.6546
C4B C -1.1924(3) 1.06505(14) 0.58815(18)
C5B C -1.2894(3) 1.08720(16) 0.5025(2)
H4B H -1.3238 1.1407 0.4918
C6B C -1.3326(3) 1.03255(17) 0.43670(19)
H5B H -1.3959 1.0491 0.3816
C7B C -1.2824(3) 0.94926(15) 0.45021(17)
C8B C -1.3298(3) 0.88803(17) 0.38696(17)
H6B H -1.3972 0.9002 0.3313
C9B C -1.2763(4) 0.81047(17) 0.40758(18)
H7B H -1.3103 0.7693 0.3667
C10B C -1.1716(3) 0.79371(15) 0.48950(17)
H8B H -1.1332 0.7409 0.5019
C11B C -1.1825(3) 0.92633(13) 0.53232(15)
C12B C -1.1366(3) 0.98429(13) 0.60204(16)
N1B N -1.0394(2) 0.95667(10) 0.67956(13)
N2B N -1.1233(2) 0.84953(11) 0.55136(12)
O6B O -1.2716(2) 0.80793(11) 0.72068(13)
H14B H -1.3334 0.7652 0.7083
H15B H -1.3375 0.8484 0.7328
Cu1A Cu -0.97419(4) 0.663713(15) 0.174142(19)
Cu1C Cu 0.97419(4) 0.336287(15) 0.825858(19)
O3A O -0.8635(2) 0.83123(9) 0.79808(10)
O3C O 0.8635(2) 0.16877(9) 0.20192(10)
loop_
_geom_bond_atom_site_label_1
_geom_bond_atom_site_label_2
_geom_bond_site_symmetry_1
_geom_bond_site_symmetry_2
Cu1 N1 1_555 1_555
C1 H1 1_555 1_555
C2 C1 1_555 1_555
H2 C2 1_555 1_555
C3 C2 1_555 1_555
H3 C3 1_555 1_555
C4 C3 1_555 1_555
C5 C4 1_555 1_555
H4 C5 1_555 1_555
C6 C5 1_555 1_555
H5 C6 1_555 1_555
C7 C6 1_555 1_555
C8 C7 1_555 1_555
H6 C8 1_555 1_555
C9 C8 1_555 1_555
H7 C9 1_555 1_555
C10 C9 1_555 1_555
H8 C10 1_555 1_555
C11 C7 1_555 1_555
C12 C4 1_555 1_555
C13 C19 1_555 1_555
C14 C15 1_555 1_555
C15 C16 1_555 1_555
C16 H9 1_555 1_555
C17 C16 1_555 1_555
C18 C17 1_555 1_555
H10 C18 1_555 1_555
C19 C18 1_555 1_555
C20 C15 1_555 1_555
H11 C20 1_555 1_555
C21 H12 1_555 1_555
H13 C21 1_555 1_555
N1 C1 1_555 1_555
N2 Cu1 1_555 1_555
O1 Cu1 1_555 1_555
O2 C13 1_555 1_555
O3 C14 1_555 1_555
O4 C14 1_555 1_555
O5 C17 1_555 1_555
O6 Cu1 1_555 1_555
H14 O6 1_555 1_555
H15 O6 1_555 1_555
C13B C19B 1_555 1_555
C14B C15B 1_555 1_555
C15B C16B 1_555 1_555
C16B H9B 1_555 1_555
C17B C16B 1_555 1_555
C18B C17B 1_555 1_555
H10B C18B 1_555 1_555
C19B C18B 1_555 1_555
C20B C15B 1_555 1_555
H11B C20B 1_555 1_555
C21B C21 1_555 1_555
H12B C21B 1_555 1_555
H13B C21B 1_555 1_555
O1B C13B 1_555 1_555
O2B C13B 1_555 1_555
O3B C14B 1_555 1_555
O4B C14B 1_555 1_555
O5B C17B 1_555 1_555
Cu1B O1B 1_555 1_555
C1B H1B 1_555 1_555
C2B C1B 1_555 1_555
H2B C2B 1_555 1_555
C3B C2B 1_555 1_555
H3B C3B 1_555 1_555
C4B C3B 1_555 1_555
C5B C4B 1_555 1_555
H4B C5B 1_555 1_555
C6B C5B 1_555 1_555
H5B C6B 1_555 1_555
C7B C6B 1_555 1_555
C8B C7B 1_555 1_555
H6B C8B 1_555 1_555
C9B C8B 1_555 1_555
H7B C9B 1_555 1_555
C10B C9B 1_555 1_555
H8B C10B 1_555 1_555
C11B C7B 1_555 1_555
C12B C4B 1_555 1_555
N1B Cu1B 1_555 1_555
N2B Cu1B 1_555 1_555
O6B Cu1B 1_555 1_555
H14B O6B 1_555 1_555
H15B O6B 1_555 1_555
Cu1A O3B 1_555 1_555
Cu1C O3 1_555 1_555
O3A Cu1B 1_555 1_555
O3C Cu1 1_555 1_555
C10 N2 1_555 1_555
C11 C12 1_555 1_555
C11 N2 1_555 1_555
C12 N1 1_555 1_555
C13 O1 1_555 1_555
C19 C20 1_555 1_555
C21 O5 1_555 1_555
C19B C20B 1_555 1_555
C21B O5B 1_555 1_555
C1B N1B 1_555 1_555
C10B N2B 1_555 1_555
C11B C12B 1_555 1_555
C11B N2B 1_555 1_555
C12B N1B 1_555 1_555

#END
