
#######################################################################
#
#                 Cambridge Crystallographic Data Centre
#                                CCDC 
#
#######################################################################
#
# If this CIF has been generated from an entry in the Cambridge 
# Structural Database, then it will include bibliographic, chemical, 
# crystal, experimental, refinement or atomic coordinate data resulting 
# from the CCDC's data processing and validation procedures.
#
#######################################################################

data_QORTAU
_symmetry_cell_setting           monoclinic
_symmetry_space_group_name_H-M   'C 2/c'
_symmetry_Int_Tables_number      15
_space_group_name_Hall           '-C 2yn'
loop_
_symmetry_equiv_pos_site_id
_symmetry_equiv_pos_as_xyz
1 x,y,z
2 -x,y,1/2-z
3 1/2+x,1/2+y,z
4 1/2-x,1/2+y,1/2-z
5 -x,-y,-z
6 x,-y,1/2+z
7 1/2-x,1/2-y,-z
8 1/2+x,1/2-y,1/2+z
_cell_length_a                   22.492(5)
_cell_length_b                   9.900(5)
_cell_length_c                   35.382(5)
_cell_angle_alpha                90
_cell_angle_beta                 107.650(5)
_cell_angle_gamma                90
_cell_volume                     7507.67
loop_
_atom_site_label
_atom_site_type_symbol
_atom_site_fract_x
_atom_site_fract_y
_atom_site_fract_z
Ni1 Ni 0.42373(2) -0.37347(5) 0.251412(13)
Ni2 Ni 0.41920(2) 0.19854(5) 0.436024(15)
C1 C 0.4013(2) -0.6517(5) 0.28588(13)
H1 H 0.4306 -0.6869 0.2748
C2 C 0.3741(3) -0.7389(6) 0.30683(15)
H2 H 0.3841 -0.8303 0.3090
C3 C 0.3330(3) -0.6878(8) 0.32394(16)
H3 H 0.3158 -0.7437 0.3390
C4 C 0.3160(2) -0.5521(7) 0.31927(14)
C5 C 0.2731(3) -0.4886(10) 0.3361(2)
H4 H 0.2553 -0.5388 0.3521
C6 C 0.2581(3) -0.3585(10) 0.3294(2)
H5 H 0.2303 -0.3206 0.3412
C7 C 0.2830(2) -0.2740(8) 0.30458(16)
C8 C 0.2680(3) -0.1388(8) 0.2949(2)
H6 H 0.2393 -0.0950 0.3048
C9 C 0.2948(2) -0.0712(6) 0.27112(17)
H7 H 0.2852 0.0190 0.2648
C10 C 0.3373(2) -0.1388(5) 0.25627(14)
H8 H 0.3557 -0.0912 0.2401
C11 C 0.32679(18) -0.3357(5) 0.28830(12)
C12 C 0.34426(19) -0.4730(5) 0.29652(12)
C13 C 0.4621(3) 0.4203(7) 0.38918(14)
H9 H 0.4724 0.3537 0.3737
C14 C 0.4663(4) 0.5570(11) 0.3795(2)
H10 H 0.4775 0.5796 0.3571
C15 C 0.4547(4) 0.6533(9) 0.4019(3)
H11 H 0.4582 0.7431 0.3951
C16 C 0.4371(2) 0.6230(6) 0.4357(2)
C17 C 0.4252(4) 0.7187(8) 0.4650(4)
H12 H 0.4267 0.8112 0.4608
C18 C 0.4128(4) 0.6759(9) 0.4958(4)
H13 H 0.4064 0.7400 0.5134
C19 C 0.4083(2) 0.5394(6) 0.5051(2)
C20 C 0.3952(3) 0.4860(10) 0.5389(2)
H14 H 0.3886 0.5440 0.5579
C21 C 0.3922(3) 0.3530(10) 0.54345(18)
H15 H 0.3835 0.3188 0.5657
C22 C 0.4017(2) 0.2667(6) 0.51608(13)
H16 H 0.3997 0.1743 0.5202
C23 C 0.41770(17) 0.4433(4) 0.47802(13)
C24 C 0.43269(19) 0.4841(4) 0.44374(14)
C25 C 0.52932(18) -0.2224(4) 0.30616(11)
C26 C 0.49096(18) 0.0698(4) 0.41178(13)
C27 C 0.53480(17) -0.0064(4) 0.39518(11)
C28 C 0.59796(18) -0.0076(4) 0.41559(12)
H17 H 0.6128 0.0358 0.4400
C29 C 0.63896(18) -0.0737(4) 0.39963(14)
C30 C 0.61662(18) -0.1397(4) 0.36363(13)
H18 H 0.6443 -0.1831 0.3528
C31 C 0.55315(17) -0.1418(4) 0.34356(11)
C32 C 0.51219(17) -0.0739(4) 0.35942(11)
H19 H 0.4697 -0.0738 0.3460
C33 C 0.7298(2) -0.0374(5) 0.45659(14)
H20 H 0.7647 -0.0957 0.4696
H21 H 0.6996 -0.0435 0.4711
C34 C 0.75232(18) 0.1052(4) 0.45775(13)
H22 H 0.7748 0.1307 0.4848
H23 H 0.7803 0.1141 0.4418
C35 C 0.70704(17) 0.3015(4) 0.42118(11)
C36 C 0.75908(17) 0.3837(4) 0.43336(11)
H24 H 0.7911 0.3632 0.4563
C37 C 0.76345(17) 0.4975(4) 0.41113(11)
C38 C 0.71609(17) 0.5257(4) 0.37638(11)
H25 H 0.7191 0.6013 0.3614
C39 C 0.66421(16) 0.4420(4) 0.36377(10)
C40 C 0.65941(17) 0.3312(4) 0.38660(11)
H26 H 0.6242 0.2764 0.3788
C41 C 0.61573(17) 0.4664(4) 0.32379(11)
C42 C 0.82104(18) 0.5819(4) 0.42365(11)
N1 N 0.38789(15) -0.5219(4) 0.28093(9)
N2 N 0.35255(14) -0.2659(4) 0.26385(9)
N3 N 0.44365(16) 0.3849(4) 0.42007(10)
N4 N 0.41371(14) 0.3095(4) 0.48359(9)
O1 O 0.47954(11) -0.2864(3) 0.30209(7)
O2 O 0.56151(12) -0.2202(3) 0.28286(8)
O3 O 0.43614(13) 0.0919(3) 0.38975(8)
O4 O 0.50856(12) 0.1114(3) 0.44683(8)
O5 O 0.70208(13) -0.0827(4) 0.41707(11)
O6 O 0.69916(12) 0.1906(3) 0.44253(8)
O7 O 0.56559(13) 0.4032(3) 0.31605(8)
O8 O 0.63116(12) 0.5473(3) 0.30142(7)
O9 O 0.82204(11) 0.6954(3) 0.40811(8)
O10 O 0.86878(12) 0.5359(3) 0.44937(9)
O11 O 0.5000 -0.4903(3) 0.2500
H27 H 0.5158 -0.5448 0.2690
H27A H 0.4842 -0.5448 0.2310
Ni1A Ni 0.57627(2) -0.37347(5) 0.248588(13)
Ni2A Ni 0.58080(2) 0.19854(5) 0.063976(15)
C1A C 0.5987(2) -0.6517(5) 0.21412(13)
H1A H 0.5694 -0.6869 0.2252
C2A C 0.6259(3) -0.7389(6) 0.19317(15)
H2A H 0.6159 -0.8303 0.1910
C3A C 0.6670(3) -0.6878(8) 0.17606(16)
H3A H 0.6842 -0.7437 0.1610
C4A C 0.6840(2) -0.5521(7) 0.18073(14)
C5A C 0.7269(3) -0.4886(10) 0.1639(2)
H4A H 0.7447 -0.5388 0.1479
C6A C 0.7419(3) -0.3585(10) 0.1706(2)
H5A H 0.7697 -0.3206 0.1588
C7A C 0.7170(2) -0.2740(8) 0.19542(16)
C8A C 0.7320(3) -0.1388(8) 0.2051(2)
H6A H 0.7607 -0.0950 0.1952
C9A C 0.7052(2) -0.0712(6) 0.22888(17)
H7A H 0.7148 0.0190 0.2352
C10A C 0.6627(2) -0.1388(5) 0.24373(14)
H8A H 0.6443 -0.0912 0.2599
C11A C 0.67321(18) -0.3357(5) 0.21170(12)
C12A C 0.65574(19) -0.4730(5) 0.20348(12)
C13A C 0.5379(3) 0.4203(7) 0.11082(14)
H9A H 0.5276 0.3537 0.1263
C14A C 0.5337(4) 0.5570(11) 0.1205(2)
H10A H 0.5225 0.5796 0.1429
C15A C 0.5453(4) 0.6533(9) 0.0981(3)
H11A H 0.5418 0.7431 0.1049
C16A C 0.5629(2) 0.6230(6) 0.0643(2)
C17A C 0.5748(4) 0.7187(8) 0.0350(4)
H12A H 0.5733 0.8112 0.0392
C18A C 0.5872(4) 0.6759(9) 0.0042(4)
H13A H 0.5936 0.7400 -0.0134
C19A C 0.5917(2) 0.5394(6) -0.0051(2)
C20A C 0.6048(3) 0.4860(10) -0.0389(2)
H14A H 0.6114 0.5440 -0.0579
C21A C 0.6078(3) 0.3530(10) -0.04345(18)
H15A H 0.6165 0.3188 -0.0657
C22A C 0.5983(2) 0.2667(6) -0.01608(13)
H16A H 0.6003 0.1743 -0.0202
C23A C 0.58230(17) 0.4433(4) 0.02198(13)
C24A C 0.56731(19) 0.4841(4) 0.05626(14)
C25A C 0.47068(18) -0.2224(4) 0.19384(11)
C26A C 0.50904(18) 0.0698(4) 0.08822(13)
C27A C 0.46520(17) -0.0064(4) 0.10482(11)
C28A C 0.40204(18) -0.0076(4) 0.08441(12)
H17A H 0.3872 0.0358 0.0600
C29A C 0.36104(18) -0.0737(4) 0.10037(14)
C30A C 0.38338(18) -0.1397(4) 0.13637(13)
H18A H 0.3557 -0.1831 0.1472
C31A C 0.44685(17) -0.1418(4) 0.15644(11)
C32A C 0.48781(17) -0.0739(4) 0.14058(11)
H19A H 0.5303 -0.0738 0.1540
C33A C 0.2702(2) -0.0374(5) 0.04341(14)
H20A H 0.2353 -0.0957 0.0304
H21A H 0.3004 -0.0435 0.0289
C34A C 0.24768(18) 0.1052(4) 0.04225(13)
H22A H 0.2252 0.1307 0.0152
H23A H 0.2197 0.1141 0.0582
C35A C 0.29296(17) 0.3015(4) 0.07882(11)
C36A C 0.24092(17) 0.3837(4) 0.06664(11)
H24A H 0.2089 0.3632 0.0437
C37A C 0.23655(17) 0.4975(4) 0.08887(11)
C38A C 0.28391(17) 0.5257(4) 0.12362(11)
H25A H 0.2809 0.6013 0.1386
C39A C 0.33579(16) 0.4420(4) 0.13623(10)
C40A C 0.34059(17) 0.3312(4) 0.11340(11)
H26A H 0.3758 0.2764 0.1212
C41A C 0.38427(17) 0.4664(4) 0.17621(11)
C42A C 0.17896(18) 0.5819(4) 0.07635(11)
N1A N 0.61211(15) -0.5219(4) 0.21907(9)
N2A N 0.64745(14) -0.2659(4) 0.23615(9)
N3A N 0.55635(16) 0.3849(4) 0.07993(10)
N4A N 0.58629(14) 0.3095(4) 0.01641(9)
O1A O 0.52046(11) -0.2864(3) 0.19791(7)
O2A O 0.43849(12) -0.2202(3) 0.21714(8)
O3A O 0.56386(13) 0.0919(3) 0.11025(8)
O4A O 0.49144(12) 0.1114(3) 0.05317(8)
O5A O 0.29792(13) -0.0827(4) 0.08293(11)
O6A O 0.30084(12) 0.1906(3) 0.05747(8)
O7A O 0.43441(13) 0.4032(3) 0.18395(8)
O8A O 0.36884(12) 0.5473(3) 0.19858(7)
O9A O 0.17796(11) 0.6954(3) 0.09189(8)
O10A O 0.13122(12) 0.5359(3) 0.05063(9)
Ni1_2 Ni 0.42373(2) 0.62653(5) 0.251412(13)
Ni1A_2 Ni 0.57627(2) 0.62653(5) 0.248588(13)
Ni2B Ni 0.91920(2) 0.69854(5) 0.436024(15)
Ni2C Ni 0.08080(2) 0.69854(5) 0.063976(15)
O8_2 O 0.63116(12) -0.4527(3) 0.30142(7)
O8A_2 O 0.36884(12) -0.4527(3) 0.19858(7)
O9B O 0.32204(11) 0.1954(3) 0.40811(8)
O9C O 0.67796(11) 0.1954(3) 0.09189(8)
O10B O 0.36878(12) 0.0359(3) 0.44937(9)
O10C O 0.63122(12) 0.0359(3) 0.05063(9)
O12 O 0.5714(7) 0.1185(13) 0.2781(4)
H28 H 0.5656 0.0411 0.2868
H29 H 0.5663 0.1771 0.2944
loop_
_geom_bond_atom_site_label_1
_geom_bond_atom_site_label_2
_geom_bond_site_symmetry_1
_geom_bond_site_symmetry_2
Ni1 N1 1_555 1_555
Ni2 N3 1_555 1_555
C1 H1 1_555 1_555
C2 C1 1_555 1_555
H2 C2 1_555 1_555
C3 C2 1_555 1_555
H3 C3 1_555 1_555
C4 C3 1_555 1_555
C5 C4 1_555 1_555
H4 C5 1_555 1_555
C6 C5 1_555 1_555
H5 C6 1_555 1_555
C7 C6 1_555 1_555
C8 C7 1_555 1_555
H6 C8 1_555 1_555
C9 C8 1_555 1_555
H7 C9 1_555 1_555
C10 C9 1_555 1_555
H8 C10 1_555 1_555
C11 C7 1_555 1_555
C12 C4 1_555 1_555
C13 H9 1_555 1_555
C14 C13 1_555 1_555
H10 C14 1_555 1_555
C15 C14 1_555 1_555
H11 C15 1_555 1_555
C16 C15 1_555 1_555
C17 C16 1_555 1_555
H12 C17 1_555 1_555
C18 C17 1_555 1_555
H13 C18 1_555 1_555
C19 C18 1_555 1_555
C20 C19 1_555 1_555
H14 C20 1_555 1_555
C21 C20 1_555 1_555
H15 C21 1_555 1_555
C22 C21 1_555 1_555
H16 C22 1_555 1_555
C23 C19 1_555 1_555
C24 C16 1_555 1_555
C25 C31 1_555 1_555
C26 C27 1_555 1_555
C27 C28 1_555 1_555
C28 H17 1_555 1_555
C29 C28 1_555 1_555
C30 C29 1_555 1_555
H18 C30 1_555 1_555
C31 C30 1_555 1_555
C32 C27 1_555 1_555
H19 C32 1_555 1_555
C33 H20 1_555 1_555
H21 C33 1_555 1_555
C34 C33 1_555 1_555
H22 C34 1_555 1_555
H23 C34 1_555 1_555
C35 C36 1_555 1_555
C36 H24 1_555 1_555
C37 C36 1_555 1_555
C38 C37 1_555 1_555
H25 C38 1_555 1_555
C39 C38 1_555 1_555
C40 C35 1_555 1_555
H26 C40 1_555 1_555
C41 C39 1_555 1_555
C42 C37 1_555 1_555
N1 C1 1_555 1_555
N2 Ni1 1_555 1_555
N3 C13 1_555 1_555
N4 Ni2 1_555 1_555
O1 Ni1 1_555 1_555
O2 C25 1_555 1_555
O3 Ni2 1_555 1_555
O4 Ni2 1_555 1_555
O5 C29 1_555 1_555
O6 C34 1_555 1_555
O7 C41 1_555 1_555
O8 C41 1_555 1_555
O9 C42 1_555 1_555
O10 C42 1_555 1_555
O11 Ni1 1_555 1_555
H27 O11 1_555 1_555
O12 H28 1_555 1_555
H29 O12 1_555 1_555
H27A O11 1_555 1_555
Ni1A O2 1_555 1_555
Ni2A N3A 1_555 1_555
C1A H1A 1_555 1_555
C2A C1A 1_555 1_555
H2A C2A 1_555 1_555
C3A C2A 1_555 1_555
H3A C3A 1_555 1_555
C4A C3A 1_555 1_555
C5A C4A 1_555 1_555
H4A C5A 1_555 1_555
C6A C5A 1_555 1_555
H5A C6A 1_555 1_555
C7A C6A 1_555 1_555
C8A C7A 1_555 1_555
H6A C8A 1_555 1_555
C9A C8A 1_555 1_555
H7A C9A 1_555 1_555
C10A C9A 1_555 1_555
H8A C10A 1_555 1_555
C11A C7A 1_555 1_555
C12A C4A 1_555 1_555
C13A H9A 1_555 1_555
C14A C13A 1_555 1_555
H10A C14A 1_555 1_555
C15A C14A 1_555 1_555
H11A C15A 1_555 1_555
C16A C15A 1_555 1_555
C17A C16A 1_555 1_555
H12A C17A 1_555 1_555
C18A C17A 1_555 1_555
H13A C18A 1_555 1_555
C19A C18A 1_555 1_555
C20A C19A 1_555 1_555
H14A C20A 1_555 1_555
C21A C20A 1_555 1_555
H15A C21A 1_555 1_555
C22A C21A 1_555 1_555
H16A C22A 1_555 1_555
C23A C19A 1_555 1_555
C24A C16A 1_555 1_555
C25A C31A 1_555 1_555
C26A C27A 1_555 1_555
C27A C28A 1_555 1_555
C28A H17A 1_555 1_555
C29A C28A 1_555 1_555
C30A C29A 1_555 1_555
H18A C30A 1_555 1_555
C31A C30A 1_555 1_555
C32A C27A 1_555 1_555
H19A C32A 1_555 1_555
C33A H20A 1_555 1_555
H21A C33A 1_555 1_555
C34A C33A 1_555 1_555
H22A C34A 1_555 1_555
H23A C34A 1_555 1_555
C35A C36A 1_555 1_555
C36A H24A 1_555 1_555
C37A C36A 1_555 1_555
C38A C37A 1_555 1_555
H25A C38A 1_555 1_555
C39A C38A 1_555 1_555
C40A C35A 1_555 1_555
H26A C40A 1_555 1_555
C41A C39A 1_555 1_555
C42A C37A 1_555 1_555
N1A Ni1A 1_555 1_555
N2A Ni1A 1_555 1_555
N3A C13A 1_555 1_555
N4A Ni2A 1_555 1_555
O1A Ni1A 1_555 1_555
O2A Ni1 1_555 1_555
O3A Ni2A 1_555 1_555
O4A Ni2A 1_555 1_555
O5A C29A 1_555 1_555
O6A C34A 1_555 1_555
O7A C41A 1_555 1_555
O8A C41A 1_555 1_555
O9A C42A 1_555 1_555
O10A C42A 1_555 1_555
Ni1_2 O8A 1_555 1_555
Ni1A_2 O8 1_555 1_555
Ni2B O9 1_555 1_555
Ni2C O9A 1_555 1_555
O8_2 Ni1A 1_555 1_555
O8A_2 Ni1 1_555 1_555
O9B Ni2 1_555 1_555
O9C Ni2A 1_555 1_555
O10B Ni2 1_555 1_555
O10C Ni2A 1_555 1_555
C10 N2 1_555 1_555
C11 C12 1_555 1_555
C11 N2 1_555 1_555
C12 N1 1_555 1_555
C22 N4 1_555 1_555
C23 C24 1_555 1_555
C23 N4 1_555 1_555
C24 N3 1_555 1_555
C25 O1 1_555 1_555
C26 O3 1_555 1_555
C26 O4 1_555 1_555
C31 C32 1_555 1_555
C33 O5 1_555 1_555
C35 O6 1_555 1_555
C39 C40 1_555 1_555
O10 Ni2B 1_555 1_555
O11 Ni1A 1_555 1_555
C1A N1A 1_555 1_555
C10A N2A 1_555 1_555
C11A C12A 1_555 1_555
C11A N2A 1_555 1_555
C12A N1A 1_555 1_555
C22A N4A 1_555 1_555
C23A C24A 1_555 1_555
C23A N4A 1_555 1_555
C24A N3A 1_555 1_555
C25A O1A 1_555 1_555
C25A O2A 1_555 1_555
C26A O3A 1_555 1_555
C26A O4A 1_555 1_555
C31A C32A 1_555 1_555
C33A O5A 1_555 1_555
C35A O6A 1_555 1_555
C39A C40A 1_555 1_555
O10A Ni2C 1_555 1_555

#END
