
#######################################################################
#
#                 Cambridge Crystallographic Data Centre
#                                CCDC 
#
#######################################################################
#
# If this CIF has been generated from an entry in the Cambridge 
# Structural Database, then it will include bibliographic, chemical, 
# crystal, experimental, refinement or atomic coordinate data resulting 
# from the CCDC's data processing and validation procedures.
#
#######################################################################

data_QORVEZ
_symmetry_cell_setting           monoclinic
_symmetry_space_group_name_H-M   'P 21/c'
_symmetry_Int_Tables_number      14
_space_group_name_Hall           '-P 2ybc'
loop_
_symmetry_equiv_pos_site_id
_symmetry_equiv_pos_as_xyz
1 x,y,z
2 -x,1/2+y,1/2-z
3 -x,-y,-z
4 x,1/2-y,1/2+z
_cell_length_a                   8.8988(12)
_cell_length_b                   18.567(3)
_cell_length_c                   12.2080(17)
_cell_angle_alpha                90
_cell_angle_beta                 94.785(2)
_cell_angle_gamma                90
_cell_volume                     2010.02
loop_
_atom_site_label
_atom_site_type_symbol
_atom_site_fract_x
_atom_site_fract_y
_atom_site_fract_z
C1 C 0.3058(7) 0.2132(3) 0.8352(5)
H1 H 0.4048 0.2264 0.8263
Zn1 Zn 0.44424(7) -0.01873(3) 0.85632(5)
Cl1 Cl 0.59440(14) 0.06562(7) 0.93697(9)
Cl2 Cl 0.53718(16) -0.11608(7) 0.78744(9)
C2 C 0.4213(6) 0.1091(3) 0.5108(4)
H2 H 0.4796 0.1276 0.4576
O1 O -0.0456(3) 0.03317(15) 0.4967(2)
C3 C -0.0723(5) 0.1463(3) 0.5770(4)
C4 C 0.0198(5) 0.0366(2) 0.6940(4)
N1 N 0.2115(4) -0.01040(19) 0.8294(3)
C5 C 0.1672(5) 0.0251(2) 0.7372(4)
C6 C -0.0527(5) -0.0283(3) 0.8447(4)
H3 H -0.1275 -0.0485 0.8839
C7 C 0.0201(5) 0.0778(3) 0.5838(4)
N2 N 0.4187(5) 0.0495(2) 0.6843(3)
C8 C -0.1699(5) 0.1574(3) 0.4849(4)
H4 H -0.1728 0.1246 0.4273
C9 C 0.2669(8) 0.1931(3) 0.9369(5)
H5 H 0.3389 0.1902 0.9964
C10 C 0.1891(5) 0.0855(2) 0.5742(4)
C11 C 0.0978(6) -0.0357(3) 0.8827(3)
H6 H 0.1207 -0.0597 0.9490
C12 C 0.2682(6) 0.1130(3) 0.4939(4)
H7 H 0.2207 0.1334 0.4306
C13 C 0.2710(6) 0.0542(2) 0.6630(4)
C14 C 0.0520(7) 0.1954(3) 0.7569(4)
C15 C 0.4928(6) 0.0787(3) 0.6044(5)
H8 H 0.5977 0.0786 0.6122
C16 C -0.0612(6) 0.1973(3) 0.6599(4)
C17 C -0.1579(6) 0.2555(3) 0.6528(4)
H9 H -0.1547 0.2889 0.7098
C18 C -0.2637(6) 0.2170(3) 0.4773(5)
H10 H -0.3291 0.2244 0.4149
C19 C -0.0913(5) 0.0090(3) 0.7491(4)
H11 H -0.1918 0.0150 0.7233
C20 C 0.0144(6) 0.1773(3) 0.8606(5)
H12 H -0.0846 0.1647 0.8713
C21 C -0.2591(6) 0.2649(3) 0.5623(5)
H13 H -0.3246 0.3040 0.5591
C22 C 0.2001(7) 0.2142(3) 0.7458(4)
H14 H 0.2290 0.2278 0.6773
C23 C 0.1213(9) 0.1775(3) 0.9482(5)
H15 H 0.0922 0.1665 1.0177
C1B C -0.3058(7) -0.2132(3) 0.1648(5)
H1B H -0.4048 -0.2264 0.1737
Zn1B Zn 0.55576(7) 0.01873(3) 1.14368(5)
Zn1B_2 Zn -0.44424(7) 0.01873(3) 0.14368(5)
Cl1B Cl 0.40560(14) -0.06562(7) 1.06303(9)
Cl2B Cl 0.46282(16) 0.11608(7) 1.21256(9)
C2B C -0.4213(6) -0.1091(3) 0.4892(4)
H2B H -0.4796 -0.1276 0.5424
O1B O 0.0456(3) -0.03317(15) 0.5033(2)
C3B C 0.0723(5) -0.1463(3) 0.4230(4)
C4B C -0.0198(5) -0.0366(2) 0.3060(4)
N1B N -0.2115(4) 0.01040(19) 0.1706(3)
N1B_2 N 0.7885(4) 0.01040(19) 1.1706(3)
C5B C -0.1672(5) -0.0251(2) 0.2628(4)
C6B C 0.0527(5) 0.0283(3) 0.1553(4)
H3B H 0.1275 0.0485 0.1161
C7B C -0.0201(5) -0.0778(3) 0.4162(4)
N2B N -0.4187(5) -0.0495(2) 0.3157(3)
N2B_2 N 0.5813(5) -0.0495(2) 1.3157(3)
C8B C 0.1699(5) -0.1574(3) 0.5151(4)
H4B H 0.1728 -0.1246 0.5727
C9B C -0.2669(8) -0.1931(3) 0.0631(5)
H5B H -0.3389 -0.1902 0.0036
C10B C -0.1891(5) -0.0855(2) 0.4258(4)
C11B C -0.0978(6) 0.0357(3) 0.1173(3)
H6B H -0.1207 0.0597 0.0510
C12B C -0.2682(6) -0.1130(3) 0.5061(4)
H7B H -0.2207 -0.1334 0.5694
C13B C -0.2710(6) -0.0542(2) 0.3370(4)
C14B C -0.0520(7) -0.1954(3) 0.2431(4)
C15B C -0.4928(6) -0.0787(3) 0.3956(5)
H8B H -0.5977 -0.0786 0.3878
C16B C 0.0612(6) -0.1973(3) 0.3401(4)
C17B C 0.1579(6) -0.2555(3) 0.3472(4)
H9B H 0.1547 -0.2889 0.2902
C18B C 0.2637(6) -0.2170(3) 0.5227(5)
H10B H 0.3291 -0.2244 0.5851
C19B C 0.0913(5) -0.0090(3) 0.2509(4)
H11B H 0.1918 -0.0150 0.2767
C20B C -0.0144(6) -0.1773(3) 0.1394(5)
H12B H 0.0846 -0.1647 0.1287
C21B C 0.2591(6) -0.2649(3) 0.4377(5)
H13B H 0.3246 -0.3040 0.4409
C22B C -0.2001(7) -0.2142(3) 0.2542(4)
H14B H -0.2290 -0.2278 0.3227
C23B C -0.1213(9) -0.1775(3) 0.0518(5)
H15B H -0.0922 -0.1665 -0.0177
loop_
_geom_bond_atom_site_label_1
_geom_bond_atom_site_label_2
_geom_bond_site_symmetry_1
_geom_bond_site_symmetry_2
C1 H1 1_555 1_555
Zn1 Cl1 1_555 1_555
Cl1 Zn1B 1_555 1_555
Cl2 Zn1 1_555 1_555
C2 H2 1_555 1_555
O1 C7 1_555 1_555
C3 C7 1_555 1_555
C4 C5 1_555 1_555
N1 Zn1 1_555 1_555
C5 N1 1_555 1_555
C6 H3 1_555 1_555
C7 C4 1_555 1_555
N2 Zn1 1_555 1_555
C8 C3 1_555 1_555
H4 C8 1_555 1_555
C9 C1 1_555 1_555
H5 C9 1_555 1_555
C10 C7 1_555 1_555
C11 N1 1_555 1_555
H6 C11 1_555 1_555
C12 C2 1_555 1_555
H7 C12 1_555 1_555
C13 C5 1_555 1_555
C14 C16 1_555 1_555
C15 C2 1_555 1_555
H8 C15 1_555 1_555
C16 C3 1_555 1_555
C17 C16 1_555 1_555
H9 C17 1_555 1_555
C18 C8 1_555 1_555
H10 C18 1_555 1_555
C19 C4 1_555 1_555
H11 C19 1_555 1_555
C20 C14 1_555 1_555
H12 C20 1_555 1_555
C21 C17 1_555 1_555
H13 C21 1_555 1_555
C22 C1 1_555 1_555
H14 C22 1_555 1_555
C23 C9 1_555 1_555
H15 C23 1_555 1_555
C1B H1B 1_555 1_555
Zn1B Cl1B 1_555 1_555
Zn1B_2 N1B 1_555 1_555
Cl1B Zn1 1_555 1_555
Cl2B Zn1B 1_555 1_555
C2B H2B 1_555 1_555
O1B O1 1_555 1_555
C3B C7B 1_555 1_555
C4B C5B 1_555 1_555
N1B C5B 1_555 1_555
N1B_2 Zn1B 1_555 1_555
C5B C13B 1_555 1_555
C6B H3B 1_555 1_555
C7B O1B 1_555 1_555
N2B Zn1B_2 1_555 1_555
N2B_2 Zn1B 1_555 1_555
C8B C3B 1_555 1_555
H4B C8B 1_555 1_555
C9B C1B 1_555 1_555
H5B C9B 1_555 1_555
C10B C7B 1_555 1_555
C11B N1B 1_555 1_555
H6B C11B 1_555 1_555
C12B C2B 1_555 1_555
H7B C12B 1_555 1_555
C13B N2B 1_555 1_555
C14B C16B 1_555 1_555
C15B C2B 1_555 1_555
H8B C15B 1_555 1_555
C16B C3B 1_555 1_555
C17B C16B 1_555 1_555
H9B C17B 1_555 1_555
C18B C8B 1_555 1_555
H10B C18B 1_555 1_555
C19B C4B 1_555 1_555
H11B C19B 1_555 1_555
C20B C14B 1_555 1_555
H12B C20B 1_555 1_555
C21B C17B 1_555 1_555
H13B C21B 1_555 1_555
C22B C1B 1_555 1_555
H14B C22B 1_555 1_555
C23B C9B 1_555 1_555
H15B C23B 1_555 1_555
C6 C11 1_555 1_555
C6 C19 1_555 1_555
N2 C13 1_555 1_555
N2 C15 1_555 1_555
C10 C12 1_555 1_555
C10 C13 1_555 1_555
C14 C22 1_555 1_555
C18 C21 1_555 1_555
C20 C23 1_555 1_555
C4B C7B 1_555 1_555
C6B C11B 1_555 1_555
C6B C19B 1_555 1_555
N2B C15B 1_555 1_555
C10B C12B 1_555 1_555
C10B C13B 1_555 1_555
C14B C22B 1_555 1_555
C18B C21B 1_555 1_555
C20B C23B 1_555 1_555

#END
