
#######################################################################
#
#                 Cambridge Crystallographic Data Centre
#                                CCDC 
#
#######################################################################
#
# If this CIF has been generated from an entry in the Cambridge 
# Structural Database, then it will include bibliographic, chemical, 
# crystal, experimental, refinement or atomic coordinate data resulting 
# from the CCDC's data processing and validation procedures.
#
#######################################################################

data_QORXUS
_symmetry_cell_setting           monoclinic
_symmetry_space_group_name_H-M   'P 21/c'
_symmetry_Int_Tables_number      14
_space_group_name_Hall           '-P 2ybc'
loop_
_symmetry_equiv_pos_site_id
_symmetry_equiv_pos_as_xyz
1 x,y,z
2 -x,1/2+y,1/2-z
3 -x,-y,-z
4 x,1/2-y,1/2+z
_cell_length_a                   12.407(3)
_cell_length_b                   11.909(2)
_cell_length_c                   17.656(6)
_cell_angle_alpha                90
_cell_angle_beta                 126.26(2)
_cell_angle_gamma                90
_cell_volume                     2103.55
loop_
_atom_site_label
_atom_site_type_symbol
_atom_site_fract_x
_atom_site_fract_y
_atom_site_fract_z
Co1 Co 0.46285(15) 0.46521(12) 0.36943(10)
C1 C 0.4314(10) 0.4337(9) 0.2165(7)
C2 C 0.4093(10) 0.4138(8) 0.1244(7)
C3 C 0.3718(11) 0.5021(9) 0.0631(7)
H1 H 0.3621 0.5733 0.0799
C4 C 0.3479(10) 0.4858(9) -0.0251(7)
C5 C 0.3671(10) 0.3789(8) -0.0462(7)
H2 H 0.3523 0.3658 -0.1036
C6 C 0.4076(10) 0.2919(8) 0.0163(7)
C7 C 0.4242(10) 0.3079(9) 0.1002(7)
H3 H 0.4453 0.2475 0.1401
C8 C 0.4383(10) 0.1798(9) -0.0054(7)
C9 C 0.7064(13) 0.3133(10) 0.4429(9)
H4 H 0.6391 0.2618 0.4042
C10 C 0.8350(13) 0.2772(11) 0.4919(10)
H5 H 0.8542 0.2032 0.4869
C11 C 0.9360(12) 0.3519(11) 0.5489(9)
H6 H 1.0249 0.3292 0.5839
C12 C 0.9037(11) 0.4607(9) 0.5534(8)
C13 C 0.7702(11) 0.4879(9) 0.5000(8)
H7 H 0.7483 0.5622 0.5015
C14 C 1.0019(11) 0.5486(10) 0.6096(7)
C15 C 1.0965(12) 0.6999(10) 0.6762(8)
C16 C 1.1137(12) 0.8187(10) 0.7039(8)
C17 C 1.2392(11) 0.8659(10) 0.7619(8)
H8 H 1.3127 0.8203 0.7829
C18 C 1.1561(13) 1.0376(11) 0.7594(9)
H9 H 1.1691 1.1128 0.7768
C19 C 1.0277(13) 0.9960(11) 0.7028(11)
H10 H 0.9554 1.0423 0.6837
C20 C 1.0077(14) 0.8873(11) 0.6751(10)
H11 H 0.9211 0.8591 0.6361
N1 N 0.6699(9) 0.4171(8) 0.4464(6)
N2 N 0.9727(9) 0.6538(8) 0.6152(7)
N3 N 1.1350(9) 0.5341(9) 0.6645(6)
N4 N 1.1979(9) 0.6309(8) 0.7081(6)
N5 N 1.2621(9) 0.9730(7) 0.7899(6)
N6 N 0.3029(10) 0.5742(8) -0.0880(6)
H12 H 0.2857 0.5637 -0.1423
H13 H 0.2920 0.6395 -0.0727
O1 O 0.4681(7) 0.5301(6) 0.2539(5)
O2 O 0.4141(8) 0.3564(6) 0.2551(5)
O3 O 0.4210(8) 0.1678(6) -0.0821(5)
O4 O 0.4815(9) 0.1055(6) 0.0554(6)
H14 H 1.177(9) 0.471(5) 0.676(7)
Co1A Co 0.53715(15) -0.03479(12) 0.13057(10)
Co1C Co 0.46285(15) 0.03479(12) -0.13057(10)
Co1C_2 Co 1.46285(15) 1.03479(12) 0.86943(10)
N5C N 0.2621(9) 0.5270(7) 0.2899(6)
O3C O 0.4210(8) 0.3322(6) 0.4179(5)
O4A O 0.5185(9) 0.6055(6) 0.4446(6)
O5 O 0.6880(9) 0.6370(9) 0.2837(8)
H15 H 0.665(15) 0.705(4) 0.270(13)
H16 H 0.625(10) 0.599(10) 0.277(12)
loop_
_geom_bond_atom_site_label_1
_geom_bond_atom_site_label_2
_geom_bond_site_symmetry_1
_geom_bond_site_symmetry_2
Co1 N1 1_555 1_555
C1 C2 1_555 1_555
C2 C3 1_555 1_555
C3 H1 1_555 1_555
C4 C3 1_555 1_555
C5 C4 1_555 1_555
H2 C5 1_555 1_555
C6 C5 1_555 1_555
C7 C2 1_555 1_555
H3 C7 1_555 1_555
C8 C6 1_555 1_555
C9 H4 1_555 1_555
C10 C9 1_555 1_555
H5 C10 1_555 1_555
C11 C10 1_555 1_555
H6 C11 1_555 1_555
C12 C11 1_555 1_555
C13 C12 1_555 1_555
H7 C13 1_555 1_555
C14 C12 1_555 1_555
C15 C16 1_555 1_555
C16 C17 1_555 1_555
C17 H8 1_555 1_555
C18 H9 1_555 1_555
C19 C18 1_555 1_555
H10 C19 1_555 1_555
C20 C16 1_555 1_555
H11 C20 1_555 1_555
N1 C9 1_555 1_555
N2 C14 1_555 1_555
N3 C14 1_555 1_555
N4 C15 1_555 1_555
N5 C17 1_555 1_555
N6 C4 1_555 1_555
H12 N6 1_555 1_555
H13 N6 1_555 1_555
O1 Co1 1_555 1_555
O2 Co1 1_555 1_555
O3 C8 1_555 1_555
O4 C8 1_555 1_555
H14 N3 1_555 1_555
O5 H15 1_555 1_555
H16 O5 1_555 1_555
Co1A O4 1_555 1_555
Co1C O3 1_555 1_555
Co1C_2 N5 1_555 1_555
N5C Co1 1_555 1_555
O3C Co1 1_555 1_555
O4A Co1 1_555 1_555
C1 O1 1_555 1_555
C1 O2 1_555 1_555
C6 C7 1_555 1_555
C13 N1 1_555 1_555
C15 N2 1_555 1_555
C18 N5 1_555 1_555
C19 C20 1_555 1_555
N3 N4 1_555 1_555

#END
