
#######################################################################
#
#                 Cambridge Crystallographic Data Centre
#                                CCDC 
#
#######################################################################
#
# If this CIF has been generated from an entry in the Cambridge 
# Structural Database, then it will include bibliographic, chemical, 
# crystal, experimental, refinement or atomic coordinate data resulting 
# from the CCDC's data processing and validation procedures.
#
#######################################################################

data_QORXOM
_symmetry_cell_setting           monoclinic
_symmetry_space_group_name_H-M   'P 21/c'
_symmetry_Int_Tables_number      14
_space_group_name_Hall           '-P 2ybc'
loop_
_symmetry_equiv_pos_site_id
_symmetry_equiv_pos_as_xyz
1 x,y,z
2 -x,1/2+y,1/2-z
3 -x,-y,-z
4 x,1/2-y,1/2+z
_cell_length_a                   16.606(3)
_cell_length_b                   7.7810(16)
_cell_length_c                   16.037(3)
_cell_angle_alpha                90
_cell_angle_beta                 113.48(3)
_cell_angle_gamma                90
_cell_volume                     1900.58
loop_
_atom_site_label
_atom_site_type_symbol
_atom_site_fract_x
_atom_site_fract_y
_atom_site_fract_z
Ni1 Ni 0.33687(6) 1.00417(14) 0.21374(7)
C1 C 0.3919(5) 0.8288(10) 0.0697(5)
C2 C 0.4022(5) 0.8647(9) -0.0192(5)
C3 C 0.3829(5) 1.0261(9) -0.0616(5)
H1 H 0.3636 1.1151 -0.0354
C4 C 0.3928(5) 1.0531(9) -0.1445(5)
C5 C 0.3720(5) 1.2259(10) -0.1932(5)
C6 C 0.4218(5) 0.9180(10) -0.1831(5)
H2 H 0.4293 0.9364 -0.2369
C7 C 0.4395(5) 0.7572(10) -0.1428(5)
C8 C 0.4313(5) 0.7313(11) -0.0603(5)
H3 H 0.4452 0.6247 -0.0319
C9 C 0.2362(6) 0.6687(11) 0.1573(6)
H4 H 0.2640 0.6600 0.1173
C10 C 0.1724(6) 0.5477(12) 0.1530(7)
H5 H 0.1587 0.4586 0.1109
C11 C 0.1297(6) 0.5606(11) 0.2115(6)
H6 H 0.0869 0.4809 0.2086
C12 C 0.1511(5) 0.6924(11) 0.2737(6)
C13 C 0.2163(5) 0.8056(11) 0.2744(5)
H7 H 0.2320 0.8938 0.3170
C14 C 0.1047(5) 0.7211(11) 0.3344(6)
C15 C 0.0173(5) 0.7157(11) 0.4009(6)
C16 C -0.0585(5) 0.6805(11) 0.4254(6)
C17 C -0.1398(5) 0.6293(11) 0.3625(6)
H8 H -0.1457 0.6086 0.3032
C18 C -0.1242(6) 0.6926(12) 0.5348(6)
H9 H -0.1206 0.7140 0.5932
C19 C -0.2028(6) 0.6414(12) 0.4670(6)
H10 H -0.2517 0.6298 0.4811
C20 C -0.0507(6) 0.7115(12) 0.5145(6)
H11 H 0.0029 0.7444 0.5594
N1 N 0.2582(4) 0.7972(9) 0.2182(4)
N2 N 0.0292(5) 0.6484(9) 0.3274(5)
N3 N 0.0804(5) 0.8223(11) 0.4515(5)
N4 N 0.1354(5) 0.8230(11) 0.4079(5)
N5 N -0.2115(4) 0.6077(8) 0.3820(5)
N6 N 0.4562(4) 0.6160(8) -0.1922(4)
H12 H 0.4890 0.5366 -0.1523
H13 H 0.4873 0.6548 -0.2232
O1 O 0.3677(4) 0.9548(6) 0.1045(4)
O2 O 0.4075(4) 0.6803(7) 0.1020(4)
O3 O 0.3307(3) 1.3434(6) -0.1709(4)
O4 O 0.3946(3) 1.2499(7) -0.2598(3)
H14 H 0.180(3) 0.893(8) 0.421(5)
Ni1A Ni -0.33687(6) 0.50417(14) 0.28626(7)
Ni1C Ni 0.33687(6) 0.49583(14) -0.28626(7)
Ni1C_2 Ni 0.33687(6) 1.49583(14) -0.28626(7)
N5A N 0.2115(4) 1.1077(8) 0.1180(5)
N6C N 0.4562(4) 0.8840(8) 0.3078(4)
O3C O 0.3307(3) 1.1566(6) 0.3291(4)
O4C O 0.3946(3) 1.2501(7) 0.2402(3)
O5 O 0.2852(4) 0.4589(9) 0.9732(5)
H15 H 0.305(5) 0.405(12) 0.940(6)
H16 H 0.324(4) 0.525(10) 1.010(5)
loop_
_geom_bond_atom_site_label_1
_geom_bond_atom_site_label_2
_geom_bond_site_symmetry_1
_geom_bond_site_symmetry_2
Ni1 N1 1_555 1_555
C1 C2 1_555 1_555
C2 C3 1_555 1_555
C3 H1 1_555 1_555
C4 C3 1_555 1_555
C5 C4 1_555 1_555
C6 C4 1_555 1_555
H2 C6 1_555 1_555
C7 C6 1_555 1_555
C8 C2 1_555 1_555
H3 C8 1_555 1_555
C9 H4 1_555 1_555
C10 C9 1_555 1_555
H5 C10 1_555 1_555
C11 C10 1_555 1_555
H6 C11 1_555 1_555
C12 C11 1_555 1_555
C13 C12 1_555 1_555
H7 C13 1_555 1_555
C14 C12 1_555 1_555
C15 C16 1_555 1_555
C16 C17 1_555 1_555
C17 H8 1_555 1_555
C18 H9 1_555 1_555
C19 C18 1_555 1_555
H10 C19 1_555 1_555
C20 C16 1_555 1_555
H11 C20 1_555 1_555
N1 C9 1_555 1_555
N2 C14 1_555 1_555
N3 C15 1_555 1_555
N4 C14 1_555 1_555
N5 C17 1_555 1_555
N6 C7 1_555 1_555
H12 N6 1_555 1_555
H13 N6 1_555 1_555
O1 Ni1 1_555 1_555
O2 C1 1_555 1_555
O3 C5 1_555 1_555
O4 C5 1_555 1_555
H14 N4 1_555 1_555
O5 H15 1_555 1_555
H16 O5 1_555 1_555
Ni1A N5 1_555 1_555
Ni1C N6 1_555 1_555
Ni1C_2 O3 1_555 1_555
N5A Ni1 1_555 1_555
N6C Ni1 1_555 1_555
O3C Ni1 1_555 1_555
O4C Ni1 1_555 1_555
C1 O1 1_555 1_555
C7 C8 1_555 1_555
C13 N1 1_555 1_555
C15 N2 1_555 1_555
C18 C20 1_555 1_555
C19 N5 1_555 1_555
N3 N4 1_555 1_555
O4 Ni1C_2 1_555 1_555

#END
