
#######################################################################
#
#                 Cambridge Crystallographic Data Centre
#                                CCDC 
#
#######################################################################
#
# If this CIF has been generated from an entry in the Cambridge 
# Structural Database, then it will include bibliographic, chemical, 
# crystal, experimental, refinement or atomic coordinate data resulting 
# from the CCDC's data processing and validation procedures.
#
#######################################################################

data_QORYAY
_symmetry_cell_setting           triclinic
_symmetry_space_group_name_H-M   'P -1'
_symmetry_Int_Tables_number      2
_space_group_name_Hall           '-P 1'
loop_
_symmetry_equiv_pos_site_id
_symmetry_equiv_pos_as_xyz
1 x,y,z
2 -x,-y,-z
_cell_length_a                   8.5268(5)
_cell_length_b                   9.4817(5)
_cell_length_c                   10.1833(5)
_cell_angle_alpha                81.201(1)
_cell_angle_beta                 74.459(1)
_cell_angle_gamma                88.713(1)
_cell_volume                     783.721
loop_
_atom_site_label
_atom_site_type_symbol
_atom_site_fract_x
_atom_site_fract_y
_atom_site_fract_z
Co1 Co 1.0000 0.5000 0.5000
Br1 Br 0.52058(4) 0.72666(4) 0.71966(3)
Br2 Br 0.17661(4) 0.67884(4) 0.97069(4)
O1 O 0.8204(2) 0.47465(19) 0.68438(18)
O2 O 0.9022(2) 0.6327(2) 0.7960(2)
O3 O 0.8335(2) 0.4229(2) 0.4066(2)
H1 H 0.7638 0.3623 0.4593
H2 H 0.8976 0.3925 0.3378
O4 O 0.9247(3) 0.7128(2) 0.4513(2)
N1 N 0.9680(4) 0.9337(3) 0.3292(3)
C1 C 0.8052(3) 0.5462(3) 0.7811(3)
C2 C 0.6455(3) 0.5204(3) 0.8940(3)
C3 C 0.5089(3) 0.5973(3) 0.8827(3)
C4 C 0.3652(3) 0.5772(3) 0.9878(3)
C5 C 1.0082(4) 0.8006(3) 0.3620(3)
H3 H 1.1088 0.7715 0.3128
C6 C 0.8167(6) 0.9891(4) 0.4014(5)
H4 H 0.7573 0.9156 0.4716
H5 H 0.7535 1.0205 0.3377
H6 H 0.8380 1.0681 0.4433
C7 C 1.0747(7) 1.0296(5) 0.2172(7)
H7 H 1.1675 0.9784 0.1734
H8 H 1.1103 1.1072 0.2534
H9 H 1.0166 1.0665 0.1510
Co1_2 Co 0.0000 0.5000 1.5000
Br1A Br 0.47942(4) 0.27334(4) 1.28034(3)
Br2A Br 0.82339(4) 0.32116(4) 1.02931(4)
O1A O 0.1796(2) 0.52535(19) 1.31562(18)
O1A_2 O 1.1796(2) 0.52535(19) 0.31562(18)
O2A O 0.0978(2) 0.3673(2) 1.2040(2)
O3A O 1.1665(2) 0.5771(2) 0.5934(2)
H1A H 1.2362 0.6377 0.5407
H2A H 1.1024 0.6075 0.6622
O4A O 1.0753(3) 0.2872(2) 0.5487(2)
N1A N 1.0320(4) 0.0663(3) 0.6708(3)
C1A C 0.1948(3) 0.4538(3) 1.2189(3)
C2A C 0.3545(3) 0.4796(3) 1.1060(3)
C3A C 0.4911(3) 0.4027(3) 1.1173(3)
C4A C 0.6348(3) 0.4228(3) 1.0122(3)
C5A C 0.9918(4) 0.1994(3) 0.6380(3)
H3A H 0.8912 0.2285 0.6872
C6A C 1.1833(6) 0.0109(4) 0.5986(5)
H4A H 1.2427 0.0844 0.5284
H5A H 1.2465 -0.0205 0.6623
H6A H 1.1620 -0.0681 0.5567
C7A C 0.9253(7) -0.0296(5) 0.7828(7)
H7A H 0.8325 0.0216 0.8266
H8A H 0.8897 -0.1072 0.7466
H9A H 0.9834 -0.0665 0.8490
O5 O 0.3943(3) 0.7661(3) 0.4113(3)
N2 N 0.6048(3) 0.7629(3) 0.2223(3)
C8 C 0.5219(5) 0.7155(4) 0.3493(4)
H10 H 0.5629 0.6376 0.3962
C9 C 0.5445(6) 0.8790(6) 0.1427(5)
H11 H 0.5434 0.8528 0.0555
H12 H 0.6138 0.9616 0.1275
H13 H 0.4360 0.9003 0.1917
C10 C 0.7606(5) 0.7060(4) 0.1578(4)
H14 H 0.8445 0.7773 0.1426
H15 H 0.7578 0.6797 0.0711
H16 H 0.7829 0.6235 0.2169
loop_
_geom_bond_atom_site_label_1
_geom_bond_atom_site_label_2
_geom_bond_site_symmetry_1
_geom_bond_site_symmetry_2
Co1 O1 1_555 1_555
Br1 C3 1_555 1_555
Br2 C4 1_555 1_555
O1 C1 1_555 1_555
O2 C1 1_555 1_555
O3 Co1 1_555 1_555
H1 O3 1_555 1_555
H2 O3 1_555 1_555
O4 Co1 1_555 1_555
O5 C8 1_555 1_555
N1 C5 1_555 1_555
N2 C8 1_555 1_555
C1 C2 1_555 1_555
C2 C3 1_555 1_555
C3 C4 1_555 1_555
C4 C2A 1_555 1_555
C5 O4 1_555 1_555
H3 C5 1_555 1_555
C6 N1 1_555 1_555
H4 C6 1_555 1_555
H5 C6 1_555 1_555
H6 C6 1_555 1_555
C7 N1 1_555 1_555
H7 C7 1_555 1_555
H8 C7 1_555 1_555
H9 C7 1_555 1_555
C8 H10 1_555 1_555
C9 N2 1_555 1_555
H11 C9 1_555 1_555
H12 C9 1_555 1_555
H13 C9 1_555 1_555
C10 N2 1_555 1_555
H14 C10 1_555 1_555
H15 C10 1_555 1_555
H16 C10 1_555 1_555
Co1_2 O1A 1_555 1_555
Br1A C3A 1_555 1_555
Br2A C4A 1_555 1_555
O1A C1A 1_555 1_555
O1A_2 Co1 1_555 1_555
O2A C1A 1_555 1_555
O3A Co1 1_555 1_555
H1A O3A 1_555 1_555
H2A O3A 1_555 1_555
O4A Co1 1_555 1_555
N1A C5A 1_555 1_555
C1A C2A 1_555 1_555
C2A C3A 1_555 1_555
C3A C4A 1_555 1_555
C4A C2 1_555 1_555
C5A O4A 1_555 1_555
H3A C5A 1_555 1_555
C6A N1A 1_555 1_555
H4A C6A 1_555 1_555
H5A C6A 1_555 1_555
H6A C6A 1_555 1_555
C7A N1A 1_555 1_555
H7A C7A 1_555 1_555
H8A C7A 1_555 1_555
H9A C7A 1_555 1_555

#END
