
#######################################################################
#
#                 Cambridge Crystallographic Data Centre
#                                CCDC 
#
#######################################################################
#
# If this CIF has been generated from an entry in the Cambridge 
# Structural Database, then it will include bibliographic, chemical, 
# crystal, experimental, refinement or atomic coordinate data resulting 
# from the CCDC's data processing and validation procedures.
#
#######################################################################

data_QORYIG
_symmetry_cell_setting           triclinic
_symmetry_space_group_name_H-M   'P -1'
_symmetry_Int_Tables_number      2
_space_group_name_Hall           '-P 1'
loop_
_symmetry_equiv_pos_site_id
_symmetry_equiv_pos_as_xyz
1 x,y,z
2 -x,-y,-z
_cell_length_a                   8.7450(5)
_cell_length_b                   10.8989(7)
_cell_length_c                   13.8371(9)
_cell_angle_alpha                98.746(1)
_cell_angle_beta                 92.382(1)
_cell_angle_gamma                107.430(1)
_cell_volume                     1238.32
loop_
_atom_site_label
_atom_site_type_symbol
_atom_site_fract_x
_atom_site_fract_y
_atom_site_fract_z
Pb1 Pb 0.29239(4) 0.41171(3) 0.36435(2)
Pb2 Pb 0.88013(4) 0.49401(3) 0.37839(3)
Br1 Br 0.54557(12) 0.83449(9) 0.58228(7)
Br2 Br 0.77087(15) 1.14428(9) 0.60302(8)
Br3 Br 0.98199(16) 1.03455(12) 0.22992(9)
Br4 Br 0.78254(15) 0.71721(10) 0.21791(8)
Br5 Br -0.0917(2) 0.19571(14) 0.03126(11)
Br6 Br -0.25666(18) 0.27474(14) -0.16225(9)
O1 O 0.4374(8) 0.6346(6) 0.3475(5)
O2 O 0.6228(8) 0.5809(6) 0.4317(5)
O3 O 1.0642(9) 1.2648(7) 0.4569(7)
O4 O 0.8407(8) 1.2650(6) 0.3724(5)
O5 O 0.0855(9) 0.4442(8) 0.2503(5)
O6 O 0.2664(12) 0.3973(12) 0.1579(6)
O7 O 0.6202(15) 0.3600(11) 0.2561(9)
O8 O 0.1627(7) 0.5391(6) 0.4594(4)
H1 H 0.2241 0.6332 0.4649
N1 N 0.4969(17) 0.2343(15) 0.1114(10)
C1 C 0.5734(10) 0.6601(8) 0.3918(6)
C2 C 0.6810(10) 0.8004(8) 0.4012(7)
C3 C 0.7730(11) 0.8431(9) 0.3254(7)
C4 C 0.8557(11) 0.9750(9) 0.3314(7)
C5 C 0.8493(11) 1.0646(9) 0.4102(7)
C6 C 0.9294(12) 1.2105(9) 0.4137(8)
C7 C 0.7667(10) 1.0228(9) 0.4911(6)
C8 C 0.6768(10) 0.8922(8) 0.4823(6)
C9 C 0.1491(13) 0.4337(12) 0.1706(7)
C10 C 0.0684(12) 0.4687(11) 0.0826(7)
C11 C -0.0397(13) 0.3713(11) 0.0126(7)
C12 C -0.1082(12) 0.4051(11) -0.0686(7)
C13 C 0.573(2) 0.3343(19) 0.1699(13)
H2 H 0.6012 0.4077 0.1399
C14 C 0.478(4) 0.110(3) 0.152(2)
H3 H 0.5628 0.1240 0.2023
H4 H 0.4828 0.0420 0.0998
H5 H 0.3758 0.0839 0.1784
C15 C 0.416(3) 0.205(3) 0.0188(14)
H6 H 0.3301 0.2435 0.0198
H7 H 0.3719 0.1123 -0.0004
H8 H 0.4890 0.2399 -0.0273
Pb1A Pb 0.70761(4) 0.58829(3) 0.63565(2)
Pb1_2 Pb 1.29239(4) 1.41171(3) 0.36435(2)
Pb1A_2 Pb -0.29239(4) 0.58829(3) -0.36435(2)
Pb1A_3 Pb -0.29239(4) -0.41171(3) 0.63565(2)
Pb1_3 Pb 1.29239(4) 0.41171(3) 0.36435(2)
Pb2A Pb 0.11987(4) 0.50599(3) 0.62161(3)
Pb2_2 Pb 0.88013(4) 1.49401(3) 0.37839(3)
Pb2_3 Pb -0.11987(4) 0.49401(3) 0.37839(3)
Pb2A_2 Pb 0.11987(4) 0.50599(3) -0.37839(3)
Pb2A_3 Pb 0.11987(4) -0.49401(3) 0.62161(3)
Pb2A_4 Pb 1.11987(4) 0.50599(3) 0.62161(3)
Br1A Br 0.45443(12) 0.16551(9) 0.41772(7)
Br2A Br 0.22913(15) -0.14428(9) 0.39698(8)
Br3A Br 0.01801(16) -0.03455(12) 0.77008(9)
Br4A Br 0.21746(15) 0.28279(10) 0.78209(8)
Br5A Br 0.0917(2) 0.80429(14) -0.03126(11)
Br6A Br 0.25666(18) 0.72526(14) 0.16225(9)
O1A O 0.5626(8) 0.3654(6) 0.6525(5)
O2A O 0.3772(8) 0.4191(6) 0.5683(5)
O3A O -0.0642(9) -0.2648(7) 0.5431(7)
O3_2 O 0.0642(9) 0.2648(7) 0.4569(7)
O3A_2 O 0.9358(9) 0.7352(7) 0.5431(7)
O4A O 0.1593(8) -0.2650(6) 0.6276(5)
O4_2 O 0.8407(8) 0.2650(6) 0.3724(5)
O4A_2 O 0.1593(8) 0.7350(6) 0.6276(5)
O5A O -0.0855(9) 0.5558(8) -0.2503(5)
O5_2 O 1.0855(9) 0.4442(8) 0.2503(5)
O5A_2 O 0.9145(9) 0.5558(8) 0.7497(5)
O5A_3 O -0.0855(9) 0.5558(8) 0.7497(5)
O6A O -0.2664(12) 0.6027(12) -0.1579(6)
O6A_2 O 0.7336(12) 0.6027(12) 0.8421(6)
O7A O 0.3798(15) 0.6400(11) 0.7439(9)
O8_2 O 1.1627(7) 0.5391(6) 0.4594(4)
O8A O 0.8373(7) 0.4609(6) 0.5406(4)
O8A_2 O -0.1627(7) 0.4609(6) 0.5406(4)
H1_2 H 1.2241 0.6332 0.4649
H1A H 0.7759 0.3668 0.5351
H1A_2 H -0.2241 0.3668 0.5351
N1A N 0.5031(17) 0.7657(15) 0.8886(10)
C1A C 0.4266(10) 0.3399(8) 0.6082(6)
C2A C 0.3190(10) 0.1996(8) 0.5988(7)
C3A C 0.2270(11) 0.1569(9) 0.6746(7)
C4A C 0.1443(11) 0.0250(9) 0.6686(7)
C5A C 0.1507(11) -0.0646(9) 0.5898(7)
C6A C 0.0706(12) -0.2105(9) 0.5863(8)
C7A C 0.2333(10) -0.0228(9) 0.5089(6)
C8A C 0.3232(10) 0.1078(8) 0.5177(6)
C9A C -0.1491(13) 0.5663(12) -0.1706(7)
C10A C -0.0684(12) 0.5313(11) -0.0826(7)
C11A C 0.0397(13) 0.6287(11) -0.0126(7)
C12A C 0.1082(12) 0.5949(11) 0.0686(7)
C13A C 0.427(2) 0.6657(19) 0.8301(13)
H2A H 0.3988 0.5923 0.8601
C14A C 0.522(4) 0.890(3) 0.848(2)
H3A H 0.4372 0.8760 0.7977
H4A H 0.5172 0.9580 0.9002
H5A H 0.6242 0.9161 0.8216
C15A C 0.584(3) 0.795(3) 0.9812(14)
H6A H 0.6699 0.7565 0.9802
H7A H 0.6281 0.8877 1.0004
H8A H 0.5110 0.7601 1.0273
loop_
_geom_bond_atom_site_label_1
_geom_bond_atom_site_label_2
_geom_bond_site_symmetry_1
_geom_bond_site_symmetry_2
Pb1 O1 1_555 1_555
Pb2 O2 1_555 1_555
Br1 C8 1_555 1_555
Br2 C7 1_555 1_555
Br3 C4 1_555 1_555
Br4 C3 1_555 1_555
Br5 C11 1_555 1_555
Br6 C12 1_555 1_555
O1 C1 1_555 1_555
O2 C1 1_555 1_555
O3 C6 1_555 1_555
O4 C6 1_555 1_555
O5 Pb1 1_555 1_555
O6 Pb1 1_555 1_555
O7 Pb2 1_555 1_555
O8 Pb1 1_555 1_555
H1 O8 1_555 1_555
N1 C13 1_555 1_555
C1 C2 1_555 1_555
C2 C3 1_555 1_555
C3 C4 1_555 1_555
C4 C5 1_555 1_555
C5 C6 1_555 1_555
C7 C5 1_555 1_555
C8 C2 1_555 1_555
C9 O5 1_555 1_555
C10 C9 1_555 1_555
C11 C10 1_555 1_555
C12 C11 1_555 1_555
C13 O7 1_555 1_555
H2 C13 1_555 1_555
C14 N1 1_555 1_555
H3 C14 1_555 1_555
H4 C14 1_555 1_555
H5 C14 1_555 1_555
C15 N1 1_555 1_555
H6 C15 1_555 1_555
H7 C15 1_555 1_555
H8 C15 1_555 1_555
Pb1A O2 1_555 1_555
Pb1_2 O3 1_555 1_555
Pb1A_2 O5A 1_555 1_555
Pb1A_3 O3A 1_555 1_555
Pb1_3 O5_2 1_555 1_555
Pb2A O8 1_555 1_555
Pb2_2 O4 1_555 1_555
Pb2_3 O5 1_555 1_555
Pb2A_2 O5A 1_555 1_555
Pb2A_3 O4A 1_555 1_555
Pb2A_4 O5A_2 1_555 1_555
Br1A C8A 1_555 1_555
Br2A C7A 1_555 1_555
Br3A C4A 1_555 1_555
Br4A C3A 1_555 1_555
Br5A C11A 1_555 1_555
Br6A C12A 1_555 1_555
O1A Pb1A 1_555 1_555
O2A Pb1 1_555 1_555
O3A C6A 1_555 1_555
O3_2 Pb1 1_555 1_555
O3A_2 Pb1A 1_555 1_555
O4A C6A 1_555 1_555
O4_2 Pb2 1_555 1_555
O4A_2 Pb2A 1_555 1_555
O5A C9A 1_555 1_555
O5_2 Pb2 1_555 1_555
O5A_2 Pb1A 1_555 1_555
O5A_3 Pb2A 1_555 1_555
O6A Pb1A_2 1_555 1_555
O6A_2 Pb1A 1_555 1_555
O7A Pb2A 1_555 1_555
O8_2 Pb2 1_555 1_555
O8A Pb2 1_555 1_555
O8A_2 Pb2A 1_555 1_555
H1_2 O8_2 1_555 1_555
H1A O8A 1_555 1_555
H1A_2 O8A_2 1_555 1_555
N1A C13A 1_555 1_555
C1A O1A 1_555 1_555
C2A C1A 1_555 1_555
C3A C2A 1_555 1_555
C4A C3A 1_555 1_555
C5A C4A 1_555 1_555
C6A C5A 1_555 1_555
C7A C5A 1_555 1_555
C8A C2A 1_555 1_555
C9A O6A 1_555 1_555
C10A C12 1_555 1_555
C11A C10A 1_555 1_555
C12A C10 1_555 1_555
C13A O7A 1_555 1_555
H2A C13A 1_555 1_555
C14A N1A 1_555 1_555
H3A C14A 1_555 1_555
H4A C14A 1_555 1_555
H5A C14A 1_555 1_555
C15A N1A 1_555 1_555
H6A C15A 1_555 1_555
H7A C15A 1_555 1_555
H8A C15A 1_555 1_555
O6 C9 1_555 1_555
O8 Pb2_3 1_555 1_555
C7 C8 1_555 1_555
Pb1A O8A 1_555 1_555
Pb1_3 O8_2 1_555 1_555
Pb2A O2A 1_555 1_555
Pb2_3 O8A_2 1_555 1_555
Pb2A_4 O8_2 1_555 1_555
Pb2A_4 O8A 1_555 1_555
O2A C1A 1_555 1_555
C7A C8A 1_555 1_555
C9A C10A 1_555 1_555
C11A C12A 1_555 1_555

#END
