
#######################################################################
#
#                 Cambridge Crystallographic Data Centre
#                                CCDC 
#
#######################################################################
#
# If this CIF has been generated from an entry in the Cambridge 
# Structural Database, then it will include bibliographic, chemical, 
# crystal, experimental, refinement or atomic coordinate data resulting 
# from the CCDC's data processing and validation procedures.
#
#######################################################################

data_QOSDOT
_symmetry_cell_setting           orthorhombic
_symmetry_space_group_name_H-M   'P b c a'
_symmetry_Int_Tables_number      61
_space_group_name_Hall           '-P 2ac 2ab'
loop_
_symmetry_equiv_pos_site_id
_symmetry_equiv_pos_as_xyz
1 x,y,z
2 1/2-x,-y,1/2+z
3 1/2+x,1/2-y,-z
4 -x,1/2+y,1/2-z
5 -x,-y,-z
6 1/2+x,y,1/2-z
7 1/2-x,1/2+y,z
8 x,1/2-y,1/2+z
_cell_length_a                   12.9385(3)
_cell_length_b                   6.73100(10)
_cell_length_c                   17.0240(4)
_cell_angle_alpha                90
_cell_angle_beta                 90
_cell_angle_gamma                90
_cell_volume                     1482.6
loop_
_atom_site_label
_atom_site_type_symbol
_atom_site_fract_x
_atom_site_fract_y
_atom_site_fract_z
C1 C 0.0963(3) 0.2898(5) 0.2772(2)
C2 C 0.1911(3) 0.2544(5) 0.3255(2)
C3 C 0.1897(3) 0.2013(5) 0.4080(2)
C4 C 0.3685(3) 0.1765(5) 0.4095(2)
C5 C 0.2860(3) 0.2710(6) 0.2921(2)
H1 H 0.2904 0.3064 0.2394
N1 N 0.2786(2) 0.1595(4) 0.44615(19)
N2 N 0.3738(2) 0.2382(4) 0.33231(18)
O1 O 0.33106(19) 0.0073(4) 0.61331(16)
H2 H 0.2906 -0.0038 0.5750
H3 H 0.3424 -0.1175 0.6433
O2 O 0.3839(2) 0.4554(4) 0.57626(14)
H4 H 0.3863 0.5108 0.5300
H5 H 0.3978 0.5290 0.6189
O3 O 0.0101(2) 0.3139(4) 0.30912(17)
O4 O 0.1074(2) 0.2978(4) 0.20405(16)
O5 O 0.1058(2) 0.1852(4) 0.44695(17)
O6 O 0.4544(2) 0.1370(4) 0.44380(17)
Mn1 Mn 0.46137(4) 0.16786(9) 0.57167(3)
O3B O 0.5101(2) 0.1861(4) 0.69088(17)
O5B O 0.6058(2) 0.3148(4) 0.55305(17)
O6D O 0.5456(2) -0.1370(4) 0.55620(17)
Mn1B Mn -0.03863(4) 0.33214(9) 0.42833(3)
Mn1D Mn 0.53863(4) -0.16786(9) 0.42833(3)
loop_
_geom_bond_atom_site_label_1
_geom_bond_atom_site_label_2
_geom_bond_site_symmetry_1
_geom_bond_site_symmetry_2
C1 C2 1_555 1_555
C2 C3 1_555 1_555
C3 N1 1_555 1_555
C4 N1 1_555 1_555
C5 C2 1_555 1_555
H1 C5 1_555 1_555
N2 C4 1_555 1_555
O1 H2 1_555 1_555
H3 O1 1_555 1_555
O2 H4 1_555 1_555
H5 O2 1_555 1_555
O3 C1 1_555 1_555
O4 C1 1_555 1_555
O5 C3 1_555 1_555
O6 C4 1_555 1_555
Mn1 O1 1_555 1_555
O3B Mn1 1_555 1_555
O5B Mn1 1_555 1_555
O6D Mn1 1_555 1_555
Mn1B O3 1_555 1_555
Mn1D O6 1_555 1_555
C5 N2 1_555 1_555
O2 Mn1 1_555 1_555
O5 Mn1B 1_555 1_555
O6 Mn1 1_555 1_555
O6D Mn1D 1_555 1_555

#END
