
#######################################################################
#
#                 Cambridge Crystallographic Data Centre
#                                CCDC 
#
#######################################################################
#
# If this CIF has been generated from an entry in the Cambridge 
# Structural Database, then it will include bibliographic, chemical, 
# crystal, experimental, refinement or atomic coordinate data resulting 
# from the CCDC's data processing and validation procedures.
#
#######################################################################

data_QOSHIR
_symmetry_cell_setting           monoclinic
_symmetry_space_group_name_H-M   'P 21/c'
_symmetry_Int_Tables_number      14
_space_group_name_Hall           '-P 2ybc'
loop_
_symmetry_equiv_pos_site_id
_symmetry_equiv_pos_as_xyz
1 x,y,z
2 -x,1/2+y,1/2-z
3 -x,-y,-z
4 x,1/2-y,1/2+z
_cell_length_a                   18.211(3)
_cell_length_b                   5.1283(10)
_cell_length_c                   13.915(3)
_cell_angle_alpha                90
_cell_angle_beta                 96.803(2)
_cell_angle_gamma                90
_cell_volume                     1290.39
loop_
_atom_site_label
_atom_site_type_symbol
_atom_site_fract_x
_atom_site_fract_y
_atom_site_fract_z
Cu1 Cu 0.66899(2) -0.00968(8) 0.56615(3)
Cu2 Cu 0.83713(2) 0.46160(8) 0.40230(3)
O1 O 0.73494(12) 0.2029(5) 0.49913(17)
O2 O 0.73027(12) 0.5399(4) 0.39812(17)
O3 O 0.39470(12) 0.2503(5) 0.38666(18)
O4 O 1.18908(12) 0.8074(5) 0.69342(17)
O5 O 1.14840(12) 1.2067(4) 0.72392(17)
O6 O 0.86462(11) 0.6903(5) 0.50505(17)
N1 N 0.58780(14) 0.1536(5) 0.47872(19)
N2 N 1.06217(14) 0.6907(5) 0.58652(18)
C1 C 0.51376(17) 0.1054(6) 0.4696(2)
C2 C 0.46640(17) 0.2635(6) 0.4019(2)
C3 C 0.49954(18) 0.4534(6) 0.3485(3)
H1 H 0.4698 0.5558 0.3044
C4 C 0.57455(18) 0.4917(6) 0.3594(3)
H2 H 0.5960 0.6168 0.3232
C5 C 0.61731(17) 0.3391(6) 0.4260(2)
C6 C 0.69947(17) 0.3640(6) 0.4422(2)
C7 C 0.99806(16) 0.6103(6) 0.5344(2)
C8 C 0.93083(17) 0.7469(6) 0.5471(2)
C9 C 0.93572(18) 0.9640(6) 0.6098(2)
H3 H 0.8929 1.0535 0.6198
C10 C 1.00195(18) 1.0453(6) 0.6561(2)
H4 H 1.0049 1.1925 0.6954
C11 C 1.06444(17) 0.9036(6) 0.6431(2)
C12 C 1.13923(18) 0.9812(6) 0.6911(2)
O7 O 0.67036(13) 0.2768(5) 0.69099(18)
H5 H 0.6572 0.4209 0.6699
H6 H 0.7134 0.2852 0.7197
O8 O 0.75356(12) -0.2294(5) 0.61748(17)
H7 H 0.7814 -0.2483 0.5759
H8 H 0.7759 -0.2482 0.6730
O1B O 0.26506(12) -0.2029(5) 0.50087(17)
O2B O 0.26973(12) -0.5399(4) 0.60188(17)
O3B O 0.60530(12) -0.2503(5) 0.61334(18)
N1B N 0.41220(14) -0.1536(5) 0.52128(19)
C1B C 0.48624(17) -0.1054(6) 0.5304(2)
C2B C 0.53360(17) -0.2635(6) 0.5981(2)
C3B C 0.50046(18) -0.4534(6) 0.6515(3)
H1B H 0.5302 -0.5558 0.6956
C4B C 0.42545(18) -0.4917(6) 0.6406(3)
H2B H 0.4040 -0.6168 0.6768
C5B C 0.38269(17) -0.3391(6) 0.5740(2)
C6B C 0.30053(17) -0.3640(6) 0.5578(2)
O4B O 0.81092(12) 0.1926(5) 0.30658(17)
O5B O 0.85160(12) -0.2067(4) 0.27608(17)
O6B O 1.13538(11) 0.3097(5) 0.49495(17)
N2B N 0.93783(14) 0.3093(5) 0.41348(18)
C7B C 1.00194(16) 0.3897(6) 0.4656(2)
C8B C 1.06917(17) 0.2531(6) 0.4529(2)
C9B C 1.06428(18) 0.0360(6) 0.3902(2)
H3B H 1.1071 -0.0535 0.3802
C10B C 0.99805(18) -0.0453(6) 0.3439(2)
H4B H 0.9951 -0.1925 0.3046
C11B C 0.93556(17) 0.0964(6) 0.3569(2)
C12B C 0.86077(18) 0.0188(6) 0.3089(2)
Cu1B Cu 0.33101(2) 0.00968(8) 0.43385(3)
Cu2B Cu 0.16287(2) -0.46160(8) 0.59770(3)
O7B O 0.32964(13) -0.2768(5) 0.30901(18)
H5B H 0.3428 -0.4209 0.3301
H6B H 0.2866 -0.2852 0.2803
O8B O 0.24644(12) 0.2294(5) 0.38252(17)
H7B H 0.2186 0.2483 0.4241
H8B H 0.2241 0.2482 0.3270
Cu2_2 Cu 0.83713(2) -0.53840(8) 0.40230(3)
Cu2B_2 Cu 1.16287(2) 0.53840(8) 0.59770(3)
Cu2B_3 Cu 1.16287(2) 1.53840(8) 0.59770(3)
O4_2 O 0.18908(12) -0.1926(5) 0.69342(17)
O5_2 O 0.14840(12) -0.7933(4) 0.72392(17)
O5B_2 O 0.85160(12) 0.7933(4) 0.27608(17)
O6B_2 O 0.13538(11) -0.6903(5) 0.49495(17)
N2_2 N 0.06217(14) -0.3093(5) 0.58652(18)
loop_
_geom_bond_atom_site_label_1
_geom_bond_atom_site_label_2
_geom_bond_site_symmetry_1
_geom_bond_site_symmetry_2
Cu1 O1 1_555 1_555
Cu2 O1 1_555 1_555
O1 C6 1_555 1_555
O2 Cu2 1_555 1_555
O3 C2 1_555 1_555
O4 C12 1_555 1_555
O5 C12 1_555 1_555
O6 Cu2 1_555 1_555
N1 Cu1 1_555 1_555
N2 C7 1_555 1_555
C1 N1 1_555 1_555
C2 C1 1_555 1_555
C3 C2 1_555 1_555
H1 C3 1_555 1_555
C4 C3 1_555 1_555
H2 C4 1_555 1_555
C5 N1 1_555 1_555
C6 O2 1_555 1_555
C7 C8 1_555 1_555
C8 O6 1_555 1_555
C9 C8 1_555 1_555
H3 C9 1_555 1_555
C10 C9 1_555 1_555
H4 C10 1_555 1_555
C11 N2 1_555 1_555
C12 C11 1_555 1_555
O7 Cu1 1_555 1_555
H5 O7 1_555 1_555
H6 O7 1_555 1_555
O8 Cu1 1_555 1_555
H7 O8 1_555 1_555
H8 O8 1_555 1_555
O1B C6B 1_555 1_555
O2B C6B 1_555 1_555
O3B Cu1 1_555 1_555
N1B C1B 1_555 1_555
C1B C1 1_555 1_555
C2B O3B 1_555 1_555
C3B C2B 1_555 1_555
H1B C3B 1_555 1_555
C4B C3B 1_555 1_555
H2B C4B 1_555 1_555
C5B N1B 1_555 1_555
C6B C5B 1_555 1_555
O4B Cu2 1_555 1_555
O5B C12B 1_555 1_555
O6B C8B 1_555 1_555
N2B Cu2 1_555 1_555
C7B C7 1_555 1_555
C8B C7B 1_555 1_555
C9B C8B 1_555 1_555
H3B C9B 1_555 1_555
C10B C9B 1_555 1_555
H4B C10B 1_555 1_555
C11B N2B 1_555 1_555
C12B O4B 1_555 1_555
Cu1B O3 1_555 1_555
Cu2B O1B 1_555 1_555
O7B Cu1B 1_555 1_555
H5B O7B 1_555 1_555
H6B O7B 1_555 1_555
O8B Cu1B 1_555 1_555
H7B O8B 1_555 1_555
H8B O8B 1_555 1_555
Cu2_2 O5B 1_555 1_555
Cu2B_2 O4 1_555 1_555
Cu2B_3 O5 1_555 1_555
O4_2 Cu2B 1_555 1_555
O5_2 Cu2B 1_555 1_555
O5B_2 Cu2 1_555 1_555
O6B_2 Cu2B 1_555 1_555
N2_2 Cu2B 1_555 1_555
N2 Cu2B_2 1_555 1_555
C4 C5 1_555 1_555
C5 C6 1_555 1_555
C10 C11 1_555 1_555
O1B Cu1B 1_555 1_555
O2B Cu2B 1_555 1_555
N1B Cu1B 1_555 1_555
C1B C2B 1_555 1_555
C4B C5B 1_555 1_555
O6B Cu2B_2 1_555 1_555
N2B C7B 1_555 1_555
C10B C11B 1_555 1_555
C11B C12B 1_555 1_555

#END
