
#######################################################################
#
#                 Cambridge Crystallographic Data Centre
#                                CCDC 
#
#######################################################################
#
# If this CIF has been generated from an entry in the Cambridge 
# Structural Database, then it will include bibliographic, chemical, 
# crystal, experimental, refinement or atomic coordinate data resulting 
# from the CCDC's data processing and validation procedures.
#
#######################################################################

data_QOSMIW
_symmetry_cell_setting           monoclinic
_symmetry_space_group_name_H-M   'P 21/c'
_symmetry_Int_Tables_number      14
_space_group_name_Hall           '-P 2ybc'
loop_
_symmetry_equiv_pos_site_id
_symmetry_equiv_pos_as_xyz
1 x,y,z
2 -x,1/2+y,1/2-z
3 -x,-y,-z
4 x,1/2-y,1/2+z
_cell_length_a                   11.213(2)
_cell_length_b                   22.602(4)
_cell_length_c                   8.0287(16)
_cell_angle_alpha                90
_cell_angle_beta                 98.034(4)
_cell_angle_gamma                90
_cell_volume                     2014.79
loop_
_atom_site_label
_atom_site_type_symbol
_atom_site_fract_x
_atom_site_fract_y
_atom_site_fract_z
Ag1 Ag 0.28870(3) 0.279215(16) 0.98579(5)
S1 S 0.32463(11) 0.38426(5) 0.86576(16)
S2 S 0.15048(11) 0.22788(5) 0.70578(15)
N1 N 0.5030(4) 0.29120(18) 0.9912(5)
N2 N 0.3662(4) 0.18142(18) 0.9369(5)
C1 C 0.1938(5) 0.4315(2) 0.8325(7)
H1 H 0.1578 0.4336 0.9340
H2 H 0.1367 0.4157 0.7435
H3 H 0.2174 0.4705 0.8023
C2 C 0.4160(4) 0.4175(2) 1.0396(6)
C3 C 0.3849(5) 0.4716(2) 1.1054(6)
H4 H 0.3132 0.4898 1.0608
C4 C 0.4589(5) 0.4986(2) 1.2359(7)
H5 H 0.4357 0.5342 1.2799
C5 C 0.5674(5) 0.4727(2) 1.3009(6)
H6 H 0.6170 0.4907 1.3889
C6 C 0.6018(4) 0.4198(2) 1.2341(6)
H7 H 0.6758 0.4032 1.2760
C7 C 0.5271(4) 0.3908(2) 1.1049(6)
C8 C 0.5706(4) 0.3328(2) 1.0549(6)
H8 H 0.6533 0.3262 1.0711
C9 C 0.5603(4) 0.2345(2) 0.9580(6)
H9 H 0.6430 0.2342 1.0132
H10 H 0.5611 0.2300 0.8380
C10 C 0.4917(4) 0.1839(2) 1.0228(6)
H11 H 0.5320 0.1469 1.0050
H12 H 0.4913 0.1887 1.1428
C11 C 0.3217(5) 0.1292(2) 0.9108(6)
H13 H 0.3731 0.0975 0.9416
C12 C 0.1976(4) 0.1147(2) 0.8368(6)
C13 C 0.1117(4) 0.1535(2) 0.7501(6)
C14 C -0.0029(5) 0.1321(2) 0.6921(7)
H14 H -0.0601 0.1576 0.6359
C15 C -0.0340(5) 0.0735(3) 0.7163(8)
H15 H -0.1116 0.0602 0.6783
C16 C 0.0512(5) 0.0347(2) 0.7975(7)
H16 H 0.0320 -0.0048 0.8125
C17 C 0.1652(5) 0.0560(2) 0.8557(7)
H17 H 0.2224 0.0300 0.9094
C18 C 0.0135(5) 0.2578(2) 0.5903(7)
H18 H -0.0500 0.2559 0.6589
H19 H 0.0265 0.2983 0.5614
H20 H -0.0087 0.2352 0.4895
Ag1C Ag 0.28870(3) 0.220785(16) 0.48579(5)
S2C S 0.15048(11) 0.27212(5) 1.20578(15)
Cl1 Cl 0.19367(11) 0.62731(6) 0.24080(16)
O1 O 0.0643(3) 0.62343(18) 0.2260(5)
O2 O 0.2465(4) 0.6044(2) 0.4013(6)
O3 O 0.2278(4) 0.68841(18) 0.2234(6)
O4 O 0.2360(4) 0.59329(18) 0.1087(5)
loop_
_geom_bond_atom_site_label_1
_geom_bond_atom_site_label_2
_geom_bond_site_symmetry_1
_geom_bond_site_symmetry_2
Ag1 S1 1_555 1_555
S1 C1 1_555 1_555
S2 Ag1 1_555 1_555
N1 Ag1 1_555 1_555
N2 Ag1 1_555 1_555
C1 H1 1_555 1_555
H2 C1 1_555 1_555
H3 C1 1_555 1_555
C2 S1 1_555 1_555
C3 C2 1_555 1_555
H4 C3 1_555 1_555
C4 C3 1_555 1_555
H5 C4 1_555 1_555
C5 C4 1_555 1_555
H6 C5 1_555 1_555
C6 C5 1_555 1_555
H7 C6 1_555 1_555
C7 C2 1_555 1_555
C8 N1 1_555 1_555
H8 C8 1_555 1_555
C9 N1 1_555 1_555
H9 C9 1_555 1_555
H10 C9 1_555 1_555
C10 N2 1_555 1_555
H11 C10 1_555 1_555
H12 C10 1_555 1_555
C11 N2 1_555 1_555
H13 C11 1_555 1_555
C12 C11 1_555 1_555
C13 S2 1_555 1_555
C14 C13 1_555 1_555
H14 C14 1_555 1_555
C15 C14 1_555 1_555
H15 C15 1_555 1_555
C16 C15 1_555 1_555
H16 C16 1_555 1_555
C17 C12 1_555 1_555
H17 C17 1_555 1_555
C18 S2 1_555 1_555
H18 C18 1_555 1_555
H19 C18 1_555 1_555
H20 C18 1_555 1_555
Cl1 O1 1_555 1_555
O2 Cl1 1_555 1_555
O3 Cl1 1_555 1_555
O4 Cl1 1_555 1_555
Ag1C S2 1_555 1_555
S2C Ag1 1_555 1_555
C6 C7 1_555 1_555
C7 C8 1_555 1_555
C9 C10 1_555 1_555
C12 C13 1_555 1_555
C16 C17 1_555 1_555

#END
