
#######################################################################
#
#                 Cambridge Crystallographic Data Centre
#                                CCDC 
#
#######################################################################
#
# If this CIF has been generated from an entry in the Cambridge 
# Structural Database, then it will include bibliographic, chemical, 
# crystal, experimental, refinement or atomic coordinate data resulting 
# from the CCDC's data processing and validation procedures.
#
#######################################################################

data_QOSMUI
_symmetry_cell_setting           monoclinic
_symmetry_space_group_name_H-M   'P 21/c'
_symmetry_Int_Tables_number      14
_space_group_name_Hall           '-P 2ybc'
loop_
_symmetry_equiv_pos_site_id
_symmetry_equiv_pos_as_xyz
1 x,y,z
2 -x,1/2+y,1/2-z
3 -x,-y,-z
4 x,1/2-y,1/2+z
_cell_length_a                   11.488(4)
_cell_length_b                   23.359(9)
_cell_length_c                   7.938(3)
_cell_angle_alpha                90
_cell_angle_beta                 95.257(6)
_cell_angle_gamma                90
_cell_volume                     2121.19
loop_
_atom_site_label
_atom_site_type_symbol
_atom_site_fract_x
_atom_site_fract_y
_atom_site_fract_z
C1 C 0.5857(5) 0.9186(3) 0.4563(7)
C2 C 0.6140(5) 0.9706(3) 0.3854(8)
H1 H 0.6840 0.9887 0.4214
C3 C 0.5376(6) 0.9956(2) 0.2607(8)
H2 H 0.5566 1.0304 0.2132
C4 C 0.4330(5) 0.9686(3) 0.2069(7)
H3 H 0.3819 0.9854 0.1234
C5 C 0.4047(5) 0.9166(3) 0.2778(8)
H4 H 0.3346 0.8986 0.2417
C6 C 0.4810(6) 0.8916(2) 0.4025(8)
C7 C 0.8881(5) 0.6583(2) 0.7444(9)
C8 C 1.0000(5) 0.6390(3) 0.7969(9)
H5 H 1.0542 0.6638 0.8522
C9 C 1.0308(4) 0.5826(3) 0.7669(9)
H6 H 1.1057 0.5697 0.8020
C10 C 0.9498(6) 0.5456(2) 0.6843(9)
H7 H 0.9705 0.5079 0.6642
C11 C 0.8379(5) 0.5649(2) 0.6318(8)
H8 H 0.7837 0.5402 0.5765
C12 C 0.8071(4) 0.6213(3) 0.6618(8)
Ag1 Ag 0.71530(7) 0.78339(3) 0.53014(11)
S1 S 0.6807(2) 0.88863(11) 0.6292(3)
C13 C 0.4520(9) 0.7392(4) 0.5616(13)
H9 H 0.3726 0.7383 0.5085
H10 H 0.4487 0.7362 0.6830
C14 C 0.5191(9) 0.6889(4) 0.5004(13)
H11 H 0.4792 0.6537 0.5252
H12 H 0.5208 0.6915 0.3787
C15 C 0.4418(9) 0.8343(4) 0.4594(13)
H13 H 0.3618 0.8271 0.4482
C16 C 0.8074(10) 0.9348(5) 0.6428(15)
H14 H 0.8394 0.9358 0.5352
H15 H 0.8651 0.9204 0.7272
H16 H 0.7850 0.9727 0.6730
N1 N 0.5078(8) 0.7945(4) 0.5217(10)
N2 N 0.6394(8) 0.6869(4) 0.5805(12)
C17 C 0.6859(9) 0.6364(4) 0.5953(13)
H17 H 0.6376 0.6060 0.5601
S2 S 0.8480(2) 0.73056(11) 0.7969(3)
C18 C 0.9812(9) 0.7608(5) 0.9025(14)
H18 H 1.0061 0.7381 1.0001
H19 H 0.9665 0.7993 0.9371
H20 H 1.0413 0.7609 0.8260
Ag1C Ag 0.71530(7) 0.71661(3) 1.03014(11)
S2C S 0.8480(2) 0.76944(11) 0.2969(3)
P1 P 0.1977(3) 0.88048(13) 0.7843(4)
F1 F 0.2074(6) 0.8369(3) 0.9418(8)
F2 F 0.2240(6) 0.9335(3) 0.9128(10)
F3 F 0.1720(7) 0.8271(3) 0.6567(9)
F4 F 0.0610(6) 0.8873(3) 0.8005(11)
F5 F 0.3357(6) 0.8742(3) 0.7674(9)
F6 F 0.1899(7) 0.9243(3) 0.6270(10)
loop_
_geom_bond_atom_site_label_1
_geom_bond_atom_site_label_2
_geom_bond_site_symmetry_1
_geom_bond_site_symmetry_2
C1 C2 1_555 1_555
C2 H1 1_555 1_555
C3 C2 1_555 1_555
H2 C3 1_555 1_555
C4 C3 1_555 1_555
H3 C4 1_555 1_555
C5 C4 1_555 1_555
H4 C5 1_555 1_555
C6 C1 1_555 1_555
C7 C8 1_555 1_555
C8 H5 1_555 1_555
C9 C8 1_555 1_555
H6 C9 1_555 1_555
C10 C9 1_555 1_555
H7 C10 1_555 1_555
C11 C10 1_555 1_555
H8 C11 1_555 1_555
C12 C7 1_555 1_555
Ag1 S1 1_555 1_555
S1 C1 1_555 1_555
C13 H9 1_555 1_555
H10 C13 1_555 1_555
C14 C13 1_555 1_555
H11 C14 1_555 1_555
H12 C14 1_555 1_555
C15 C6 1_555 1_555
H13 C15 1_555 1_555
C16 S1 1_555 1_555
H14 C16 1_555 1_555
H15 C16 1_555 1_555
H16 C16 1_555 1_555
N1 Ag1 1_555 1_555
N2 Ag1 1_555 1_555
C17 C12 1_555 1_555
H17 C17 1_555 1_555
S2 C7 1_555 1_555
C18 S2 1_555 1_555
H18 C18 1_555 1_555
H19 C18 1_555 1_555
H20 C18 1_555 1_555
P1 F1 1_555 1_555
F2 P1 1_555 1_555
F3 P1 1_555 1_555
F4 P1 1_555 1_555
F5 P1 1_555 1_555
F6 P1 1_555 1_555
Ag1C S2 1_555 1_555
S2C Ag1 1_555 1_555
C5 C6 1_555 1_555
C11 C12 1_555 1_555
Ag1 S2 1_555 1_555
C13 N1 1_555 1_555
C14 N2 1_555 1_555
C15 N1 1_555 1_555
N2 C17 1_555 1_555

#END
