
#######################################################################
#
#                 Cambridge Crystallographic Data Centre
#                                CCDC 
#
#######################################################################
#
# If this CIF has been generated from an entry in the Cambridge 
# Structural Database, then it will include bibliographic, chemical, 
# crystal, experimental, refinement or atomic coordinate data resulting 
# from the CCDC's data processing and validation procedures.
#
#######################################################################

data_QOSNUJ
_symmetry_cell_setting           monoclinic
_symmetry_space_group_name_H-M   'P 21/n'
_symmetry_Int_Tables_number      14
_space_group_name_Hall           '-P 2yn'
loop_
_symmetry_equiv_pos_site_id
_symmetry_equiv_pos_as_xyz
1 x,y,z
2 1/2-x,1/2+y,1/2-z
3 -x,-y,-z
4 1/2+x,1/2-y,1/2+z
_cell_length_a                   14.154(3)
_cell_length_b                   6.6209(13)
_cell_length_c                   15.047(3)
_cell_angle_alpha                90
_cell_angle_beta                 117.39(3)
_cell_angle_gamma                90
_cell_volume                     1252.01
loop_
_atom_site_label
_atom_site_type_symbol
_atom_site_fract_x
_atom_site_fract_y
_atom_site_fract_z
C1 C 0.9643(4) 0.0863(8) 0.1837(4)
H1 H 0.9693 0.0267 0.2417
C2 C 0.9193(4) 0.3595(8) 0.0773(4)
H2 H 0.8943 0.4913 0.0617
C3 C 0.9454(4) 0.2577(8) 0.0122(4)
H3 H 0.9368 0.3203 -0.0463
C4 C 0.9941(4) -0.0249(9) 0.1233(4)
H4 H 1.0201 -0.1553 0.1417
C5 C 0.9850(4) 0.0590(7) 0.0335(3)
C6 C 0.7818(4) 0.2607(8) 0.3413(3)
C7 C 0.8259(3) 0.4530(7) 0.4033(4)
C8 C 0.8381(4) 0.7047(8) 0.5231(3)
N1 N 0.9063(3) 0.8023(7) 0.4960(3)
C9 C 0.9348(3) 0.7343(7) 0.4252(3)
N2 N 0.9282(3) 0.2776(6) 0.1626(3)
N3 N 0.8942(3) 0.5564(6) 0.3790(3)
C10 C 0.7969(4) 0.5155(9) 0.4729(4)
H5 H 0.7514 0.4379 0.4880
O1 O 0.8144(3) 0.2273(6) 0.2758(2)
O2 O 0.7178(3) 0.1560(6) 0.3559(3)
O3 O 1.0177(3) 0.6257(6) 0.2730(3)
H6 H 1.0255 0.7236 0.3130
H7 H 1.0935 0.5768 0.2983
O4 O 0.9991(3) 0.8390(6) 0.4076(3)
O5 O 0.8191(3) 0.7814(6) 0.5896(3)
Cu1 Cu 0.90162(4) 0.44014(9) 0.26041(4)
C1B C 1.0357(4) -0.0863(8) -0.1837(4)
H1B H 1.0307 -0.0267 -0.2417
C2B C 1.0807(4) -0.3595(8) -0.0773(4)
H2B H 1.1057 -0.4913 -0.0617
C3B C 1.0546(4) -0.2577(8) -0.0122(4)
H3B H 1.0632 -0.3203 0.0463
C4B C 1.0059(4) 0.0249(9) -0.1233(4)
H4B H 0.9799 0.1553 -0.1417
C5B C 1.0150(4) -0.0590(7) -0.0335(3)
N2B N 1.0718(3) -0.2776(6) -0.1626(3)
C6B C 1.2182(4) -0.2607(8) -0.3413(3)
C7B C 1.1741(3) -0.4530(7) -0.4033(4)
C8B C 1.1619(4) -0.7047(8) -0.5231(3)
N1B N 1.0937(3) -0.8023(7) -0.4960(3)
C9B C 1.0652(3) -0.7343(7) -0.4252(3)
N3B N 1.1058(3) -0.5564(6) -0.3790(3)
C10B C 1.2031(4) -0.5155(9) -0.4729(4)
H5B H 1.2486 -0.4379 -0.4880
O1B O 1.1856(3) -0.2273(6) -0.2758(2)
O2B O 1.2822(3) -0.1560(6) -0.3559(3)
O3B O 0.9823(3) -0.6257(6) -0.2730(3)
H6B H 0.9745 -0.7236 -0.3130
H7B H 0.9065 -0.5768 -0.2983
O4B O 1.0009(3) -0.8390(6) -0.4076(3)
O5B O 1.1809(3) -0.7814(6) -0.5896(3)
Cu1B Cu 1.09838(4) -0.44014(9) -0.26041(4)
O2A O 0.7822(3) 0.6560(6) 0.1441(3)
O2C O 1.2178(3) -0.6560(6) -0.1441(3)
Cu1A Cu 0.59838(4) -0.05986(9) 0.23959(4)
Cu1C Cu 1.40162(4) 0.05986(9) -0.23959(4)
O6 O 1.2118(3) 0.5107(6) 0.3031(3)
H8 H 1.2206 0.4074 0.3599
H9 H 1.2095 0.4436 0.2464
O7 O 0.7178(3) 1.1029(7) 0.6325(3)
H10 H 0.7420 1.0217 0.5963
H11 H 0.7560 1.1052 0.7035
loop_
_geom_bond_atom_site_label_1
_geom_bond_atom_site_label_2
_geom_bond_site_symmetry_1
_geom_bond_site_symmetry_2
C1 H1 1_555 1_555
C2 H2 1_555 1_555
C3 C2 1_555 1_555
H3 C3 1_555 1_555
C4 C1 1_555 1_555
H4 C4 1_555 1_555
C5 C3 1_555 1_555
C6 C7 1_555 1_555
C7 N3 1_555 1_555
C8 N1 1_555 1_555
N1 C9 1_555 1_555
C9 N3 1_555 1_555
N2 C1 1_555 1_555
N3 Cu1 1_555 1_555
C10 C7 1_555 1_555
H5 C10 1_555 1_555
O1 C6 1_555 1_555
O2 C6 1_555 1_555
O3 H6 1_555 1_555
H7 O3 1_555 1_555
O4 C9 1_555 1_555
O5 C8 1_555 1_555
Cu1 N2 1_555 1_555
O6 H8 1_555 1_555
H9 O6 1_555 1_555
O7 H10 1_555 1_555
H11 O7 1_555 1_555
C1B H1B 1_555 1_555
C2B H2B 1_555 1_555
C3B C2B 1_555 1_555
H3B C3B 1_555 1_555
C4B C1B 1_555 1_555
H4B C4B 1_555 1_555
C5B C5 1_555 1_555
N2B C1B 1_555 1_555
C6B C7B 1_555 1_555
C7B N3B 1_555 1_555
C8B N1B 1_555 1_555
N1B C9B 1_555 1_555
C9B N3B 1_555 1_555
N3B Cu1B 1_555 1_555
C10B C7B 1_555 1_555
H5B C10B 1_555 1_555
O1B C6B 1_555 1_555
O2B C6B 1_555 1_555
O3B H6B 1_555 1_555
H7B O3B 1_555 1_555
O4B C9B 1_555 1_555
O5B C8B 1_555 1_555
Cu1B N2B 1_555 1_555
O2A Cu1 1_555 1_555
O2C Cu1B 1_555 1_555
Cu1A O2 1_555 1_555
Cu1C O2B 1_555 1_555
C2 N2 1_555 1_555
C4 C5 1_555 1_555
C8 C10 1_555 1_555
O1 Cu1 1_555 1_555
O3 Cu1 1_555 1_555
C2B N2B 1_555 1_555
C3B C5B 1_555 1_555
C4B C5B 1_555 1_555
C8B C10B 1_555 1_555
O1B Cu1B 1_555 1_555
O3B Cu1B 1_555 1_555

#END
