
#######################################################################
#
#                 Cambridge Crystallographic Data Centre
#                                CCDC 
#
#######################################################################
#
# If this CIF has been generated from an entry in the Cambridge 
# Structural Database, then it will include bibliographic, chemical, 
# crystal, experimental, refinement or atomic coordinate data resulting 
# from the CCDC's data processing and validation procedures.
#
#######################################################################

data_QOSNOD
_symmetry_cell_setting           monoclinic
_symmetry_space_group_name_H-M   'P 21/n'
_symmetry_Int_Tables_number      14
_space_group_name_Hall           '-P 2yn'
loop_
_symmetry_equiv_pos_site_id
_symmetry_equiv_pos_as_xyz
1 x,y,z
2 1/2-x,1/2+y,1/2-z
3 -x,-y,-z
4 1/2+x,1/2-y,1/2+z
_cell_length_a                   5.2909(2)
_cell_length_b                   12.0901(5)
_cell_length_c                   13.9601(5)
_cell_angle_alpha                90
_cell_angle_beta                 90.199(2)
_cell_angle_gamma                90
_cell_volume                     892.987
loop_
_atom_site_label
_atom_site_type_symbol
_atom_site_fract_x
_atom_site_fract_y
_atom_site_fract_z
C1 C 0.6646(5) 0.36045(19) 0.05944(16)
C2 C 0.9379(5) 0.36168(19) -0.08146(15)
C3 C 0.9352(5) 0.2149(2) 0.03274(16)
C4 C 1.0398(5) 0.25854(19) -0.04883(16)
C5 C 1.2487(5) 0.1987(2) -0.09802(16)
N1 N 0.7554(4) 0.26081(16) 0.08809(13)
N2 N 0.7563(4) 0.40583(17) -0.02327(14)
O1 O 0.9299(4) 0.04528(18) 0.22155(16)
O2 O 0.4071(4) 0.05214(16) 0.12851(13)
O3 O 0.2807(4) 0.27119(18) 0.22830(17)
O4 O 0.4971(4) 0.41210(14) 0.10456(12)
O5 O 0.9939(4) 0.41496(14) -0.15514(11)
O6 O 1.3521(4) 0.12037(16) -0.05434(12)
O7 O 1.3180(4) 0.22958(15) -0.18043(12)
Mn1 Mn 0.62285(7) 0.16870(3) 0.21843(2)
H1 H 0.936(7) 0.012(3) 0.260(3)
H2 H 1.087(7) 0.047(3) 0.192(2)
H3 H 0.487(7) -0.002(3) 0.114(2)
H4 H 0.384(7) 0.080(3) 0.073(3)
H5 H 0.156(6) 0.275(2) 0.260(2)
H6 H 0.306(8) 0.323(3) 0.198(3)
H7 H 0.986(5) 0.141(2) 0.0519(19)
H8 H 0.690(6) 0.464(3) -0.045(2)
O5C O 0.4939(4) 0.08504(14) 0.34486(11)
O7C O 0.8180(4) 0.27042(15) 0.31957(12)
Mn1C Mn 1.12285(7) 0.33130(3) -0.28157(2)
loop_
_geom_bond_atom_site_label_1
_geom_bond_atom_site_label_2
_geom_bond_site_symmetry_1
_geom_bond_site_symmetry_2
C1 N1 1_555 1_555
C2 C4 1_555 1_555
C3 C4 1_555 1_555
C4 C5 1_555 1_555
C5 O6 1_555 1_555
N1 C3 1_555 1_555
N2 C1 1_555 1_555
O1 Mn1 1_555 1_555
O2 Mn1 1_555 1_555
O3 Mn1 1_555 1_555
O4 C1 1_555 1_555
O5 C2 1_555 1_555
O7 C5 1_555 1_555
Mn1 N1 1_555 1_555
H1 O1 1_555 1_555
H2 O1 1_555 1_555
H3 O2 1_555 1_555
H4 O2 1_555 1_555
H5 O3 1_555 1_555
H6 O3 1_555 1_555
H7 C3 1_555 1_555
H8 N2 1_555 1_555
O5C Mn1 1_555 1_555
O7C Mn1 1_555 1_555
Mn1C O5 1_555 1_555
C2 N2 1_555 1_555
O7 Mn1C 1_555 1_555

#END
