
#######################################################################
#
#                 Cambridge Crystallographic Data Centre
#                                CCDC 
#
#######################################################################
#
# If this CIF has been generated from an entry in the Cambridge 
# Structural Database, then it will include bibliographic, chemical, 
# crystal, experimental, refinement or atomic coordinate data resulting 
# from the CCDC's data processing and validation procedures.
#
#######################################################################

data_QOSQUM
_symmetry_cell_setting           monoclinic
_symmetry_space_group_name_H-M   'P 21/n'
_symmetry_Int_Tables_number      14
_space_group_name_Hall           '-P 2yn'
loop_
_symmetry_equiv_pos_site_id
_symmetry_equiv_pos_as_xyz
1 x,y,z
2 1/2-x,1/2+y,1/2-z
3 -x,-y,-z
4 1/2+x,1/2-y,1/2+z
_cell_length_a                   6.8969(6)
_cell_length_b                   15.4879(13)
_cell_length_c                   9.9315(8)
_cell_angle_alpha                90
_cell_angle_beta                 104.730(2)
_cell_angle_gamma                90
_cell_volume                     1026
loop_
_atom_site_label
_atom_site_type_symbol
_atom_site_fract_x
_atom_site_fract_y
_atom_site_fract_z
Ni1 Ni 0.0000 0.0000 0.5000
S1 S 0.16878(3) 0.112918(14) 0.790234(19)
O1 O 0.03456(10) 0.09714(4) 0.65046(6)
O2 O 0.37149(10) 0.08214(6) 0.80138(7)
O3 O 0.15467(14) 0.20124(5) 0.83386(8)
O4 O -0.02729(10) 0.09919(4) 0.35927(6)
N1 N 0.29991(11) -0.00058(4) 0.50281(7)
N2 N -0.14133(13) 0.17390(5) 0.15837(7)
C1 C 0.07304(12) 0.04833(5) 0.90643(8)
C2 C -0.13178(13) 0.03195(6) 0.87909(8)
H1 H -0.2207 0.0538 0.7969
C3 C 0.20523(13) 0.01672(6) 1.02669(8)
H2 H 0.3447 0.0283 1.0443
C4 C 0.39691(12) 0.07349(5) 0.49597(8)
H3 H 0.3272 0.1267 0.4929
C5 C 0.40254(12) -0.07428(5) 0.50672(8)
H4 H 0.3375 -0.1279 0.5114
C6 C -0.16320(13) 0.11792(5) 0.25348(8)
H5 H -0.2894 0.0902 0.2410
C7 C 0.04679(17) 0.22001(6) 0.17102(10)
H6 H 0.0344 0.2789 0.2040
H7 H 0.0774 0.2222 0.0800
H8 H 0.1550 0.1899 0.2376
C8 C -0.31144(19) 0.19793(7) 0.04366(10)
H9 H -0.4212 0.1568 0.0382
H10 H -0.2706 0.1970 -0.0439
H11 H -0.3567 0.2561 0.0597
S1B S -0.16878(3) -0.112918(14) 1.209766(19)
O1B O -0.03456(10) -0.09714(4) 1.34954(6)
O2B O -0.37149(10) -0.08214(6) 1.19862(7)
O3B O -0.15467(14) -0.20124(5) 1.16614(8)
C1B C -0.07304(12) -0.04833(5) 1.09357(8)
C2B C 0.13178(13) -0.03195(6) 1.12091(8)
H1B H 0.2207 -0.0538 1.2031
C3B C -0.20523(13) -0.01672(6) 0.97331(8)
H2B H -0.3447 -0.0283 0.9557
N1B N 0.70009(11) 0.00058(4) 0.49719(7)
C4B C 0.60309(12) -0.07349(5) 0.50403(8)
H3B H 0.6728 -0.1267 0.5071
C5B C 0.59746(12) 0.07428(5) 0.49328(8)
H4B H 0.6625 0.1279 0.4886
O4B O 0.02729(10) -0.09919(4) 0.64073(6)
N2B N 0.14133(13) -0.17390(5) 0.84163(7)
C6B C 0.16320(13) -0.11792(5) 0.74652(8)
H5B H 0.2894 -0.0902 0.7590
C7B C -0.04679(17) -0.22001(6) 0.82898(10)
H6B H -0.0344 -0.2789 0.7960
H7B H -0.0774 -0.2222 0.9200
H8B H -0.1550 -0.1899 0.7624
C8B C 0.31144(19) -0.19793(7) 0.95634(10)
H9B H 0.4212 -0.1568 0.9618
H10B H 0.2706 -0.1970 1.0439
H11B H 0.3567 -0.2561 0.9403
Ni1_2 Ni 0.0000 0.0000 1.5000
Ni1_3 Ni 1.0000 0.0000 0.5000
O1B_2 O -0.03456(10) -0.09714(4) 0.34954(6)
N1B_2 N -0.29991(11) 0.00058(4) 0.49719(7)
loop_
_geom_bond_atom_site_label_1
_geom_bond_atom_site_label_2
_geom_bond_site_symmetry_1
_geom_bond_site_symmetry_2
Ni1 O1 1_555 1_555
S1 O1 1_555 1_555
O2 S1 1_555 1_555
O3 S1 1_555 1_555
O4 Ni1 1_555 1_555
N1 Ni1 1_555 1_555
N2 C6 1_555 1_555
C1 S1 1_555 1_555
C2 C1 1_555 1_555
H1 C2 1_555 1_555
C3 C1 1_555 1_555
H2 C3 1_555 1_555
C4 N1 1_555 1_555
H3 C4 1_555 1_555
C5 N1 1_555 1_555
H4 C5 1_555 1_555
C6 O4 1_555 1_555
H5 C6 1_555 1_555
C7 N2 1_555 1_555
H6 C7 1_555 1_555
H7 C7 1_555 1_555
H8 C7 1_555 1_555
C8 N2 1_555 1_555
H9 C8 1_555 1_555
H10 C8 1_555 1_555
H11 C8 1_555 1_555
S1B O1B 1_555 1_555
O1B Ni1_2 1_555 1_555
O2B S1B 1_555 1_555
O3B S1B 1_555 1_555
C1B S1B 1_555 1_555
C2B C3 1_555 1_555
H1B C2B 1_555 1_555
C3B C2 1_555 1_555
H2B C3B 1_555 1_555
N1B C4B 1_555 1_555
C4B C5 1_555 1_555
H3B C4B 1_555 1_555
C5B C4 1_555 1_555
H4B C5B 1_555 1_555
O4B Ni1 1_555 1_555
N2B C6B 1_555 1_555
C6B O4B 1_555 1_555
H5B C6B 1_555 1_555
C7B N2B 1_555 1_555
H6B C7B 1_555 1_555
H7B C7B 1_555 1_555
H8B C7B 1_555 1_555
C8B N2B 1_555 1_555
H9B C8B 1_555 1_555
H10B C8B 1_555 1_555
H11B C8B 1_555 1_555
Ni1_3 N1B 1_555 1_555
O1B_2 Ni1 1_555 1_555
N1B_2 Ni1 1_555 1_555
C1B C2B 1_555 1_555
C1B C3B 1_555 1_555
N1B C5B 1_555 1_555

#END
