
#######################################################################
#
#                 Cambridge Crystallographic Data Centre
#                                CCDC 
#
#######################################################################
#
# If this CIF has been generated from an entry in the Cambridge 
# Structural Database, then it will include bibliographic, chemical, 
# crystal, experimental, refinement or atomic coordinate data resulting 
# from the CCDC's data processing and validation procedures.
#
#######################################################################

data_QOSSEY
_symmetry_cell_setting           triclinic
_symmetry_space_group_name_H-M   'P -1'
_symmetry_Int_Tables_number      2
_space_group_name_Hall           '-P 1'
loop_
_symmetry_equiv_pos_site_id
_symmetry_equiv_pos_as_xyz
1 x,y,z
2 -x,-y,-z
_cell_length_a                   10.164(5)
_cell_length_b                   11.950(5)
_cell_length_c                   12.458(5)
_cell_angle_alpha                95.827(5)
_cell_angle_beta                 105.902(5)
_cell_angle_gamma                102.420(5)
_cell_volume                     1400.29
loop_
_atom_site_label
_atom_site_type_symbol
_atom_site_fract_x
_atom_site_fract_y
_atom_site_fract_z
C1 C -0.1458(5) 1.1418(4) 0.5961(4)
H1 H -0.1092 1.1961 0.5521
H2 H -0.1512 1.0638 0.5614
C2 C -0.0472(5) 1.1681(4) 0.7167(4)
H3 H 0.0427 1.1525 0.7171
H4 H -0.0300 1.2497 0.7472
N1 N -0.1100(4) 1.0962(3) 0.7879(3)
C3 C -0.2470(5) 1.1126(4) 0.7900(4)
H5 H -0.2377 1.1933 0.8187
H6 H -0.2824 1.0650 0.8396
C4 C -0.3489(5) 1.0786(4) 0.6715(4)
H7 H -0.3612 0.9970 0.6438
H8 H -0.4404 1.0903 0.6717
C5 C -0.0611(4) 1.0072(3) 0.8278(3)
C6 C 0.1016(4) 0.9026(3) 0.8517(3)
C7 C 0.0278(4) 0.8275(3) 0.9069(3)
C8 C -0.0943(4) 0.8557(3) 0.9208(3)
H9 H -0.1460 0.8092 0.9583
C9 C 0.3070(5) 0.9627(4) 0.7804(4)
H10 H 0.3688 0.9242 0.7523
H11 H 0.2416 0.9811 0.7159
C10 C 0.3932(7) 1.0723(5) 0.8580(6)
H12 H 0.4436 1.1214 0.8183
H13 H 0.4594 1.0547 0.9212
H14 H 0.3322 1.1116 0.8848
C11 C 0.2708(4) 0.7921(3) 0.8761(4)
H15 H 0.3549 0.7814 0.8661
C12 C 0.2033(4) 0.7149(3) 0.9295(3)
C13 C 0.0727(4) 0.7295(3) 0.9468(3)
C14 C 0.2686(4) 0.6179(3) 0.9661(3)
N2 N 0.2260(3) 0.8824(3) 0.8368(3)
N3 N 0.0581(3) 0.9912(3) 0.8104(3)
N4 N -0.1398(3) 0.9434(3) 0.8843(3)
N5 N -0.2914(4) 1.1517(3) 0.5963(3)
H16 H -0.2875 1.2265 0.6193
H17 H -0.3507 1.1299 0.5251
O1 O 0.6402(3) 0.8780(3) 0.4678(3)
O2 O 0.9081(3) 0.8581(3) 0.5297(3)
O3 O 0.3271(3) 0.3627(2) 0.9780(2)
O4 O 0.4439(3) 0.7913(3) 0.6186(3)
O5 O -0.0709(3) 0.4632(3) 0.8232(3)
H18 H -0.1511 0.4800 0.8112
H19 H -0.0447 0.4745 0.7643
O6 O 0.5770(3) 0.7226(3) 0.8108(2)
O7 O 0.6450(3) 0.5391(2) 0.6817(2)
O8 O 0.3886(3) 0.5524(2) 0.6243(2)
O9 O 0.8093(3) 0.6179(2) 0.5468(2)
O10 O 0.7686(3) 0.3913(2) 0.5755(2)
O11 O 0.4696(3) 0.3859(2) 0.5139(2)
O12 O 0.5948(3) 0.3162(3) 0.7287(3)
O13 O 0.3094(3) 0.3126(2) 0.6430(2)
O14 O 0.4867(3) 0.4686(2) 0.8321(2)
O15 O 0.7205(3) 0.7761(2) 0.6537(2)
O16 O 0.3918(3) 0.6235(2) 0.9619(2)
O17 O 0.1997(3) 0.5349(2) 0.9992(3)
O18 O -0.0009(3) 0.6659(2) 0.9944(3)
Ni1 Ni 0.5000 0.5000 1.0000
Ni2 Ni 0.0000 0.5000 1.0000
Mo1 Mo 0.67893(3) 0.49282(3) 0.53916(3)
Mo2 Mo 0.73947(4) 0.78162(3) 0.50477(3)
Mo3 Mo 0.54541(3) 0.69948(3) 0.66827(3)
Mo4 Mo 0.49369(3) 0.41176(3) 0.70246(3)
C1A C 0.1458(5) -0.1418(4) 1.4039(4)
H1A H 0.1092 -0.1961 1.4479
H2A H 0.1512 -0.0638 1.4386
C2A C 0.0472(5) -0.1681(4) 1.2833(4)
H3A H -0.0427 -0.1525 1.2829
H4A H 0.0300 -0.2497 1.2528
N1A N 0.1100(4) -0.0962(3) 1.2121(3)
C3A C 0.2470(5) -0.1126(4) 1.2100(4)
H5A H 0.2377 -0.1933 1.1813
H6A H 0.2824 -0.0650 1.1604
C4A C 0.3489(5) -0.0786(4) 1.3285(4)
H7A H 0.3612 0.0030 1.3562
H8A H 0.4404 -0.0903 1.3283
C5A C 0.0611(4) -0.0072(3) 1.1722(3)
C6A C -0.1016(4) 0.0974(3) 1.1483(3)
C7A C -0.0278(4) 0.1725(3) 1.0931(3)
C8A C 0.0943(4) 0.1443(3) 1.0792(3)
H9A H 0.1460 0.1908 1.0417
C9A C -0.3070(5) 0.0373(4) 1.2196(4)
H10A H -0.3688 0.0758 1.2477
H11A H -0.2416 0.0189 1.2841
C10A C -0.3932(7) -0.0723(5) 1.1420(6)
H12A H -0.4436 -0.1214 1.1817
H13A H -0.4594 -0.0547 1.0788
H14A H -0.3322 -0.1116 1.1152
C11A C -0.2708(4) 0.2079(3) 1.1239(4)
H15A H -0.3549 0.2186 1.1339
C12A C -0.2033(4) 0.2851(3) 1.0705(3)
C13A C -0.0727(4) 0.2705(3) 1.0532(3)
C14A C -0.2686(4) 0.3821(3) 1.0339(3)
N2A N -0.2260(3) 0.1176(3) 1.1632(3)
N3A N -0.0581(3) 0.0088(3) 1.1896(3)
N4A N 0.1398(3) 0.0566(3) 1.1157(3)
N5A N 0.2914(4) -0.1517(3) 1.4037(3)
H16A H 0.2875 -0.2265 1.3807
H17A H 0.3507 -0.1299 1.4749
O5A O 0.0709(3) 0.5368(3) 1.1768(3)
H18A H 0.1511 0.5200 1.1888
H19A H 0.0447 0.5255 1.2357
O16A O -0.3918(3) 0.3765(2) 1.0381(2)
O17A O -0.1997(3) 0.4651(2) 1.0008(3)
O18A O 0.0009(3) 0.3341(2) 1.0056(3)
O1A O 0.3598(3) 0.1220(3) 0.5322(3)
O2A O 0.0919(3) 0.1419(3) 0.4703(3)
O4A O 0.5561(3) 0.2087(3) 0.3814(3)
O6A O 0.4230(3) 0.2774(3) 0.1892(2)
O7A O 0.3550(3) 0.4609(2) 0.3183(2)
O8A O 0.6114(3) 0.4476(2) 0.3757(2)
O9A O 0.1907(3) 0.3821(2) 0.4532(2)
O10A O 0.2314(3) 0.6087(2) 0.4245(2)
O11A O 0.5304(3) 0.6141(2) 0.4861(2)
O12A O 0.4052(3) 0.6838(3) 0.2713(3)
O13A O 0.6906(3) 0.6874(2) 0.3570(2)
O14A O 0.5133(3) 0.5314(2) 0.1679(2)
O15A O 0.2795(3) 0.2239(2) 0.3463(2)
Mo1A Mo 0.32107(3) 0.50718(3) 0.46084(3)
Mo2A Mo 0.26053(4) 0.21838(3) 0.49523(3)
Mo3A Mo 0.45459(3) 0.30052(3) 0.33173(3)
Mo4A Mo 0.50631(3) 0.58824(3) 0.29754(3)
O3A O 0.6729(3) 0.6373(2) 1.0220(2)
O14A_2 O 0.5133(3) 0.5314(2) 1.1679(2)
O16A_2 O 0.6082(3) 0.3765(2) 1.0381(2)
Ni1_2 Ni -0.5000 0.5000 1.0000
Ni1_3 Ni 0.5000 0.5000 0.0000
O19 O 0.1063(5) 0.4559(5) 0.6986(5)
H20 H 0.1622 0.4588 0.6586
H21 H 0.1524 0.4516 0.7655
O20 O 1.1151(7) 0.6612(7) 0.6141(6)
H22 H 1.0252 0.6402 0.5904
H23 H 1.1392 0.7282 0.6546
loop_
_geom_bond_atom_site_label_1
_geom_bond_atom_site_label_2
_geom_bond_site_symmetry_1
_geom_bond_site_symmetry_2
C1 H1 1_555 1_555
H2 C1 1_555 1_555
C2 C1 1_555 1_555
H3 C2 1_555 1_555
H4 C2 1_555 1_555
N1 C2 1_555 1_555
C3 N1 1_555 1_555
H5 C3 1_555 1_555
H6 C3 1_555 1_555
C4 C3 1_555 1_555
H7 C4 1_555 1_555
H8 C4 1_555 1_555
C5 N1 1_555 1_555
C6 C7 1_555 1_555
C7 C8 1_555 1_555
C8 H9 1_555 1_555
C9 H10 1_555 1_555
H11 C9 1_555 1_555
C10 C9 1_555 1_555
H12 C10 1_555 1_555
H13 C10 1_555 1_555
H14 C10 1_555 1_555
C11 H15 1_555 1_555
C12 C11 1_555 1_555
C13 C7 1_555 1_555
C14 C12 1_555 1_555
N2 C6 1_555 1_555
N3 C5 1_555 1_555
N4 C5 1_555 1_555
N5 C1 1_555 1_555
H16 N5 1_555 1_555
H17 N5 1_555 1_555
O1 Mo2 1_555 1_555
O2 Mo2 1_555 1_555
O3 Ni1 1_555 1_555
O4 Mo3 1_555 1_555
O5 H18 1_555 1_555
H19 O5 1_555 1_555
O6 Mo3 1_555 1_555
O7 Mo1 1_555 1_555
O8 Mo3 1_555 1_555
O9 Mo1 1_555 1_555
O10 Mo1 1_555 1_555
O11 Mo1 1_555 1_555
O12 Mo4 1_555 1_555
O13 Mo4 1_555 1_555
O14 Ni1 1_555 1_555
O15 Mo2 1_555 1_555
O16 C14 1_555 1_555
O17 C14 1_555 1_555
O18 C13 1_555 1_555
Ni1 O16 1_555 1_555
Ni2 O5 1_555 1_555
Mo1 O8A 1_555 1_555
Mo2 O9 1_555 1_555
Mo3 O7 1_555 1_555
Mo4 O7 1_555 1_555
O19 H20 1_555 1_555
H21 O19 1_555 1_555
O20 H22 1_555 1_555
H23 O20 1_555 1_555
C1A H1A 1_555 1_555
H2A C1A 1_555 1_555
C2A C1A 1_555 1_555
H3A C2A 1_555 1_555
H4A C2A 1_555 1_555
N1A C2A 1_555 1_555
C3A N1A 1_555 1_555
H5A C3A 1_555 1_555
H6A C3A 1_555 1_555
C4A C3A 1_555 1_555
H7A C4A 1_555 1_555
H8A C4A 1_555 1_555
C5A N1A 1_555 1_555
C6A C7A 1_555 1_555
C7A C8A 1_555 1_555
C8A H9A 1_555 1_555
C9A H10A 1_555 1_555
H11A C9A 1_555 1_555
C10A C9A 1_555 1_555
H12A C10A 1_555 1_555
H13A C10A 1_555 1_555
H14A C10A 1_555 1_555
C11A H15A 1_555 1_555
C12A C11A 1_555 1_555
C13A C7A 1_555 1_555
C14A C12A 1_555 1_555
N2A C6A 1_555 1_555
N3A C5A 1_555 1_555
N4A C5A 1_555 1_555
N5A C1A 1_555 1_555
H16A N5A 1_555 1_555
H17A N5A 1_555 1_555
O5A Ni2 1_555 1_555
H18A O5A 1_555 1_555
H19A O5A 1_555 1_555
O16A C14A 1_555 1_555
O17A Ni2 1_555 1_555
O18A Ni2 1_555 1_555
O1A Mo2A 1_555 1_555
O2A Mo2A 1_555 1_555
O4A Mo3A 1_555 1_555
O6A Mo3A 1_555 1_555
O7A Mo1A 1_555 1_555
O8A Mo3A 1_555 1_555
O9A Mo1A 1_555 1_555
O10A Mo1A 1_555 1_555
O11A Mo1 1_555 1_555
O12A Mo4A 1_555 1_555
O13A Mo2 1_555 1_555
O14A Mo4A 1_555 1_555
O15A Mo2A 1_555 1_555
Mo1A O8 1_555 1_555
Mo2A O11 1_555 1_555
Mo3A O11 1_555 1_555
Mo4A O7A 1_555 1_555
O3A Ni1 1_555 1_555
O14A_2 Ni1 1_555 1_555
O16A_2 Ni1 1_555 1_555
Ni1_2 O16A 1_555 1_555
Ni1_3 O14A 1_555 1_555
C4 N5 1_555 1_555
C6 N3 1_555 1_555
C8 N4 1_555 1_555
C9 N2 1_555 1_555
C11 N2 1_555 1_555
C12 C13 1_555 1_555
O8 Mo4 1_555 1_555
O11 Mo4 1_555 1_555
O11 Mo1A 1_555 1_555
O13 Mo2A 1_555 1_555
O14 Mo4 1_555 1_555
O15 Mo3 1_555 1_555
O17 Ni2 1_555 1_555
O18 Ni2 1_555 1_555
Mo2 O11A 1_555 1_555
Mo3 O11A 1_555 1_555
C4A N5A 1_555 1_555
C6A N3A 1_555 1_555
C8A N4A 1_555 1_555
C9A N2A 1_555 1_555
C11A N2A 1_555 1_555
C12A C13A 1_555 1_555
C13A O18A 1_555 1_555
C14A O17A 1_555 1_555
O7A Mo3A 1_555 1_555
O8A Mo4A 1_555 1_555
O9A Mo2A 1_555 1_555
O11A Mo1A 1_555 1_555
O11A Mo4A 1_555 1_555
O13A Mo4A 1_555 1_555
O15A Mo3A 1_555 1_555

#END
