
#######################################################################
#
#                 Cambridge Crystallographic Data Centre
#                                CCDC 
#
#######################################################################
#
# If this CIF has been generated from an entry in the Cambridge 
# Structural Database, then it will include bibliographic, chemical, 
# crystal, experimental, refinement or atomic coordinate data resulting 
# from the CCDC's data processing and validation procedures.
#
#######################################################################

data_QOSXOM
_symmetry_cell_setting           orthorhombic
_symmetry_space_group_name_H-M   'P n m a'
_symmetry_Int_Tables_number      62
_space_group_name_Hall           '-P 2ac 2n'
loop_
_symmetry_equiv_pos_site_id
_symmetry_equiv_pos_as_xyz
1 x,y,z
2 1/2-x,-y,1/2+z
3 -x,1/2+y,-z
4 1/2+x,1/2-y,1/2-z
5 -x,-y,-z
6 1/2+x,y,1/2-z
7 x,1/2-y,z
8 1/2-x,1/2+y,1/2+z
_cell_length_a                   17.6356(5)
_cell_length_b                   48.0644(13)
_cell_length_c                   24.5539(7)
_cell_angle_alpha                90
_cell_angle_beta                 90
_cell_angle_gamma                90
_cell_volume                     20813
loop_
_atom_site_label
_atom_site_type_symbol
_atom_site_fract_x
_atom_site_fract_y
_atom_site_fract_z
C1 C 0.3701(10) 0.1103(3) 0.3041(9)
C2 C 0.3767(10) 0.1055(4) 0.3597(8)
C3 C 0.3785(10) 0.0784(5) 0.3794(5)
C4 C 0.3737(9) 0.0561(3) 0.3435(9)
C5 C 0.3672(10) 0.0609(4) 0.2879(8)
C6 C 0.3654(10) 0.0880(5) 0.2682(6)
Zn1 Zn 0.43144(15) 0.31068(5) 1.19066(11)
Zn2 Zn 0.37310(14) 0.41909(5) 1.09006(10)
Zn3 Zn 0.43122(15) 0.52716(5) 1.19597(10)
Zn4 Zn 0.74393(15) 0.52447(5) 1.10564(10)
Zn5 Zn 0.68835(16) 0.41684(5) 0.99938(10)
Zn6 Zn 0.74858(15) 0.31082(5) 1.10569(11)
N1 N 0.3714(9) 0.3412(4) 1.1574(7)
N2 N 0.3462(10) 0.3827(4) 1.1235(7)
N3 N 0.3443(10) 0.4534(4) 1.1289(7)
N4 N 0.3676(11) 0.4952(4) 1.1684(7)
N5 N 0.5399(11) 0.5149(5) 1.1885(10)
N6 N 0.6559(11) 0.5128(5) 1.1557(8)
N7 N 0.7702(13) 0.4939(4) 1.0526(9)
N8 N 0.7417(13) 0.4528(5) 1.0159(9)
N9 N 0.7385(13) 0.3807(4) 1.0129(10)
N10 N 0.7667(14) 0.3388(5) 1.0496(10)
N11 N 0.6588(14) 0.3220(5) 1.1508(8)
N12 N 0.5389(11) 0.3214(5) 1.1828(9)
N13 N 0.4874(9) 0.4191(3) 1.0876(7)
N14 N 0.6015(11) 0.4168(3) 1.0549(7)
N15 N 0.4199(10) 0.2734(4) 1.1595(7)
N16 N 0.5923(10) 0.4410(4) 0.8554(7)
N17 N 0.6425(10) 0.4201(3) 0.9273(6)
N18 N 0.4048(11) 0.5363(4) 1.2745(7)
N19 N 0.3313(10) 0.5342(4) 1.3455(7)
N20 N 0.2862(9) 0.4441(4) 0.9393(7)
N21 N 0.3311(10) 0.4223(4) 1.0147(6)
N22 N 0.3357(12) 0.3075(3) 1.3460(7)
N23 N 0.7265(10) 0.2735(3) 1.0752(7)
N24 N 0.4055(13) 0.3076(4) 1.2686(7)
C7 C 0.4014(16) 0.3645(6) 1.1386(9)
C8 C 0.2940(12) 0.3436(5) 1.1521(7)
C9 C 0.2351(19) 0.3246(3) 1.1576(9)
C10 C 0.1622(15) 0.3318(7) 1.1412(12)
C11 C 0.1483(11) 0.3580(8) 1.1194(11)
C12 C 0.2072(18) 0.3770(5) 1.1139(8)
C13 C 0.2801(14) 0.3698(4) 1.1303(8)
C14 C 0.0676(17) 0.3626(9) 1.0894(16)
C15 C 0.3986(14) 0.4706(6) 1.1474(7)
C16 C 0.2784(11) 0.4668(3) 1.1362(6)
C17 C 0.2045(13) 0.4608(4) 1.1203(7)
C18 C 0.1472(9) 0.4802(6) 1.1288(9)
C19 C 0.1637(12) 0.5055(5) 1.1533(9)
C20 C 0.2376(15) 0.5115(3) 1.1692(7)
C21 C 0.2949(9) 0.4922(4) 1.1607(6)
C22 C 0.0623(16) 0.4763(10) 1.1044(18)
C23 C 0.5888(18) 0.5288(5) 1.1526(9)
C24 C 0.587(3) 0.4942(4) 1.2101(12)
C25 C 0.555(2) 0.4748(8) 1.2453(14)
C26 C 0.595(3) 0.4510(7) 1.2596(17)
C27 C 0.668(3) 0.4466(8) 1.2387(19)
C28 C 0.6996(19) 0.4660(12) 1.2036(17)
C29 C 0.659(3) 0.4898(9) 1.1893(12)
C30 C 0.716(5) 0.4189(11) 1.251(3)
C31 C 0.7237(13) 0.4722(6) 1.0554(8)
C32 C 0.813(3) 0.4610(7) 0.976(3)
C33 C 0.8211(19) 0.4861(11) 1.0089(12)
C34 C 0.7225(19) 0.3605(8) 1.0502(11)
C35 C 0.799(3) 0.3706(7) 0.981(2)
C36 C 0.8148(18) 0.3468(11) 1.0028(14)
C37 C 0.586(2) 0.3082(6) 1.1479(12)
C38 C 0.5737(16) 0.3439(5) 1.2079(11)
C39 C 0.5488(15) 0.3651(7) 1.2420(13)
C40 C 0.598(2) 0.3864(6) 1.2567(15)
C41 C 0.6720(19) 0.3865(6) 1.2374(15)
C42 C 0.6969(14) 0.3653(6) 1.2033(12)
C43 C 0.6478(17) 0.3440(5) 1.1886(8)
C44 C 0.576(2) 0.4138(7) 1.2921(12)
C45 C 0.5253(15) 0.4180(4) 1.0414(10)
C46 C 0.5362(9) 0.4181(3) 1.1299(8)
C47 C 0.5240(15) 0.4183(6) 1.1858(9)
C48 C 0.585(2) 0.4168(8) 1.2214(6)
C49 C 0.6586(18) 0.4153(7) 1.2010(11)
C50 C 0.6708(9) 0.4151(5) 1.1451(12)
C51 C 0.6096(10) 0.4165(3) 1.1095(7)
C52 C 0.4210(17) 0.2500 1.1925(13)
C53 C 0.4120(17) 0.2654(5) 1.1108(14)
C54 C 0.392(6) 0.2786(19) 1.052(4)
C55 C 0.6343(12) 0.4440(5) 0.8995(10)
C56 C 0.6036(15) 0.4012(9) 0.8989(13)
C57 C 0.588(3) 0.3739(10) 0.9135(17)
C58 C 0.536(3) 0.3584(6) 0.883(3)
C59 C 0.500(2) 0.3703(11) 0.839(2)
C60 C 0.516(2) 0.3976(11) 0.8243(13)
C61 C 0.567(2) 0.4131(6) 0.8543(15)
C62 C 0.436(4) 0.359(2) 0.799(3)
C63 C 0.3443(14) 0.5249(4) 1.2938(10)
C64 C 0.452(3) 0.5535(10) 1.314(2)
C65 C 0.393(2) 0.5528(8) 1.3541(15)
C66 C 0.3064(13) 0.4468(5) 0.9914(11)
C67 C 0.3257(15) 0.4037(7) 0.9749(10)
C68 C 0.3597(19) 0.3776(7) 0.9714(18)
C69 C 0.366(2) 0.3644(6) 0.921(2)
C70 C 0.338(3) 0.3771(10) 0.8746(17)
C71 C 0.304(2) 0.4032(10) 0.8780(10)
C72 C 0.2979(13) 0.4164(5) 0.9281(14)
C73 C 0.407(4) 0.3351(10) 0.916(6)
C74 C 0.355(5) 0.358(2) 0.823(3)
C75 C 0.3382(14) 0.3107(4) 1.2930(12)
C76 C 0.409(2) 0.3006(7) 1.3607(13)
C77 C 0.4493(18) 0.2988(7) 1.3109(15)
C78 C 0.7535(15) 0.2500 1.0973(11)
C79 C 0.6763(18) 0.2643(5) 1.0345(12)
C80 C 0.621(4) 0.2792(15) 1.002(3)
C81 C 0.565(5) 0.2623(17) 0.972(3)
C82 C 0.506(4) 0.2856(16) 0.943(3)
C83 C 0.460(8) 0.278(2) 1.072(5)
Zn1F Zn 0.43144(15) 0.18932(5) 1.19066(11)
Zn1E Zn 0.93144(15) 0.31068(5) 1.30934(11)
Zn2F Zn 0.37310(14) 0.08091(5) 1.09006(10)
Zn2D Zn 0.62690(14) 0.58091(5) 0.90994(10)
Zn3F Zn 0.43122(15) -0.02716(5) 1.19597(10)
Zn3D Zn 0.56878(15) 0.47284(5) 0.80403(10)
Zn3E Zn 0.93122(15) 0.52716(5) 1.30403(10)
Zn4F Zn 0.74393(15) -0.02447(5) 1.10564(10)
Zn4E Zn 0.24393(15) 0.52447(5) 1.39436(10)
Zn4D Zn 0.25607(15) 0.47553(5) 0.89436(10)
Zn5E Zn 0.18835(16) 0.41684(5) 1.50062(10)
Zn5D Zn 0.31165(16) 0.58316(5) 1.00062(10)
Zn5F Zn 0.68835(16) 0.08316(5) 0.99938(10)
Zn6E Zn 0.24858(15) 0.31082(5) 1.39431(11)
Zn6F Zn 0.74858(15) 0.18918(5) 1.10569(11)
N1F N 0.3714(9) 0.1588(4) 1.1574(7)
N2F N 0.3462(10) 0.1173(4) 1.1235(7)
N3F N 0.3443(10) 0.0466(4) 1.1289(7)
N4F N 0.3676(11) 0.0048(4) 1.1684(7)
N5F N 0.5399(11) -0.0149(5) 1.1885(10)
N6F N 0.6559(11) -0.0128(5) 1.1557(8)
N7F N 0.7702(13) 0.0061(4) 1.0526(9)
N8F N 0.7417(13) 0.0472(5) 1.0159(9)
N8E N 0.2417(13) 0.4528(5) 1.4841(9)
N9E N 0.2385(13) 0.3807(4) 1.4871(10)
N10E N 0.2667(14) 0.3388(5) 1.4504(10)
N11F N 0.6588(14) 0.1780(5) 1.1508(8)
N11E N 0.1588(14) 0.3220(5) 1.3492(8)
N12F N 0.5389(11) 0.1786(5) 1.1828(9)
N13F N 0.4874(9) 0.0809(3) 1.0876(7)
N14F N 0.6015(11) 0.0832(3) 1.0549(7)
N14E N 0.1015(11) 0.4168(3) 1.4451(7)
N15F N 0.4199(10) 0.2266(4) 1.1595(7)
N16D N 0.4077(10) 0.5590(4) 1.1446(7)
N16B N 0.4077(10) -0.0590(4) 1.1446(7)
N17D N 0.3575(10) 0.5799(3) 1.0727(6)
N17E N 0.1425(10) 0.4201(3) 1.5727(6)
N18E N 0.9048(11) 0.5363(4) 1.2255(7)
N18F N 0.4048(11) -0.0363(4) 1.2745(7)
N19E N 0.8313(10) 0.5342(4) 1.1545(7)
N19C N 0.8313(10) -0.0342(4) 1.1545(7)
N20D N 0.7138(9) 0.5559(4) 1.0607(7)
N20B N 0.7138(9) -0.0559(4) 1.0607(7)
N21D N 0.6689(10) 0.5777(4) 0.9853(6)
N21F N 0.3311(10) 0.0777(4) 1.0147(6)
N22E N 0.8357(12) 0.3075(3) 1.1540(7)
N23F N 0.7265(10) 0.2265(3) 1.0752(7)
N23E N 0.2265(10) 0.2735(3) 1.4248(7)
N24E N 0.9055(13) 0.3076(4) 1.2314(7)
N24F N 0.4055(13) 0.1924(4) 1.2686(7)
C7F C 0.4014(16) 0.1355(6) 1.1386(9)
C8F C 0.2940(12) 0.1564(5) 1.1521(7)
C9F C 0.2351(19) 0.1754(3) 1.1576(9)
C10F C 0.1622(15) 0.1682(7) 1.1412(12)
C11F C 0.1483(11) 0.1420(8) 1.1194(11)
C12F C 0.2072(18) 0.1230(5) 1.1139(8)
C13F C 0.2801(14) 0.1302(4) 1.1303(8)
C14F C 0.0676(17) 0.1374(9) 1.0894(16)
C15F C 0.3986(14) 0.0294(6) 1.1474(7)
C16F C 0.2784(11) 0.0332(3) 1.1362(6)
C17F C 0.2045(13) 0.0392(4) 1.1203(7)
C18F C 0.1472(9) 0.0198(6) 1.1288(9)
C19F C 0.1637(12) -0.0055(5) 1.1533(9)
C20F C 0.2376(15) -0.0115(3) 1.1692(7)
C21F C 0.2949(9) 0.0078(4) 1.1607(6)
C22F C 0.0623(16) 0.0237(10) 1.1044(18)
C23F C 0.5888(18) -0.0288(5) 1.1526(9)
C24F C 0.587(3) 0.0058(4) 1.2101(12)
C25F C 0.555(2) 0.0252(8) 1.2453(14)
C26F C 0.595(3) 0.0490(7) 1.2596(17)
C27F C 0.668(3) 0.0534(8) 1.2387(19)
C28F C 0.6996(19) 0.0340(12) 1.2036(17)
C29F C 0.659(3) 0.0102(9) 1.1893(12)
C30F C 0.716(5) 0.0811(11) 1.251(3)
C31F C 0.7237(13) 0.0278(6) 1.0554(8)
C32F C 0.813(3) 0.0390(7) 0.976(3)
C33F C 0.8211(19) 0.0139(11) 1.0089(12)
C34E C 0.2225(19) 0.3605(8) 1.4498(11)
C35E C 0.299(3) 0.3706(7) 1.519(2)
C36E C 0.3148(18) 0.3468(11) 1.4972(14)
C37F C 0.586(2) 0.1918(6) 1.1479(12)
C38F C 0.5737(16) 0.1561(5) 1.2079(11)
C39F C 0.5488(15) 0.1349(7) 1.2420(13)
C40F C 0.598(2) 0.1136(6) 1.2567(15)
C41F C 0.6720(19) 0.1135(6) 1.2374(15)
C42F C 0.6969(14) 0.1347(6) 1.2033(12)
C43F C 0.6478(17) 0.1560(5) 1.1886(8)
C44F C 0.576(2) 0.0862(7) 1.2921(12)
C45F C 0.5253(15) 0.0820(4) 1.0414(10)
C46F C 0.5362(9) 0.0819(3) 1.1299(8)
C47F C 0.5240(15) 0.0817(6) 1.1858(9)
C48F C 0.585(2) 0.0832(8) 1.2214(6)
C49F C 0.6586(18) 0.0847(7) 1.2010(11)
C50F C 0.6708(9) 0.0849(5) 1.1451(12)
C51F C 0.6096(10) 0.0835(3) 1.1095(7)
C53F C 0.4120(17) 0.2346(5) 1.1108(14)
C54F C 0.392(6) 0.2214(19) 1.052(4)
C55D C 0.3657(12) 0.5560(5) 1.1005(10)
C56D C 0.3964(15) 0.5988(9) 1.1011(13)
C57D C 0.412(3) 0.6261(10) 1.0865(17)
C58D C 0.464(3) 0.6416(6) 1.117(3)
C59D C 0.500(2) 0.6297(11) 1.161(2)
C60D C 0.484(2) 0.6024(11) 1.1757(13)
C61D C 0.433(2) 0.5869(6) 1.1457(15)
C62D C 0.564(4) 0.641(2) 1.201(3)
C63E C 0.8443(14) 0.5249(4) 1.2062(10)
C64E C 0.952(3) 0.5535(10) 1.186(2)
C65E C 0.893(2) 0.5528(8) 1.1459(15)
C66D C 0.6936(13) 0.5532(5) 1.0086(11)
C67D C 0.6743(15) 0.5963(7) 1.0251(10)
C68D C 0.6403(19) 0.6224(7) 1.0286(18)
C69D C 0.634(2) 0.6356(6) 1.079(2)
C70D C 0.662(3) 0.6229(10) 1.1254(17)
C71D C 0.696(2) 0.5968(10) 1.1220(10)
C72D C 0.7021(13) 0.5836(5) 1.0719(14)
C73D C 0.593(4) 0.6649(10) 1.084(6)
C74D C 0.645(5) 0.642(2) 1.177(3)
C75E C 0.8382(14) 0.3107(4) 1.2070(12)
C76E C 0.909(2) 0.3006(7) 1.1393(13)
C77E C 0.9493(18) 0.2988(7) 1.1891(15)
C79F C 0.6763(18) 0.2357(5) 1.0345(12)
C80F C 0.621(4) 0.2208(15) 1.002(3)
C81F C 0.565(5) 0.2377(17) 0.972(3)
C82F C 0.506(4) 0.2144(16) 0.943(3)
C83F C 0.460(8) 0.222(2) 1.072(5)
loop_
_geom_bond_atom_site_label_1
_geom_bond_atom_site_label_2
_geom_bond_site_symmetry_1
_geom_bond_site_symmetry_2
Zn1 N1 1_555 1_555
Zn2 N2 1_555 1_555
Zn3 N4 1_555 1_555
Zn4 N6 1_555 1_555
Zn5 N8 1_555 1_555
Zn6 N10 1_555 1_555
N1 C7 1_555 1_555
N2 C7 1_555 1_555
N3 Zn2 1_555 1_555
N4 C15 1_555 1_555
N5 Zn3 1_555 1_555
N6 C23 1_555 1_555
N7 Zn4 1_555 1_555
N8 C31 1_555 1_555
N9 Zn5 1_555 1_555
N10 C34 1_555 1_555
N11 Zn6 1_555 1_555
N12 Zn1 1_555 1_555
N13 Zn2 1_555 1_555
N14 Zn5 1_555 1_555
N15 Zn1 1_555 1_555
N16 C55 1_555 1_555
N17 Zn5 1_555 1_555
N18 Zn3 1_555 1_555
N19 C63 1_555 1_555
N20 C66 1_555 1_555
N21 Zn2 1_555 1_555
N22 C75 1_555 1_555
N23 Zn6 1_555 1_555
N24 Zn1 1_555 1_555
C1 C2 1_555 1_555
C2 C3 1_555 1_555
C3 C4 1_555 1_555
C4 C5 1_555 1_555
C5 C6 1_555 1_555
C6 C1 1_555 1_555
C8 N1 1_555 1_555
C9 C8 1_555 1_555
C10 C9 1_555 1_555
C11 C10 1_555 1_555
C12 C11 1_555 1_555
C13 N2 1_555 1_555
C14 C11 1_555 1_555
C15 N3 1_555 1_555
C16 N3 1_555 1_555
C17 C16 1_555 1_555
C18 C17 1_555 1_555
C19 C18 1_555 1_555
C20 C19 1_555 1_555
C21 N4 1_555 1_555
C22 C18 1_555 1_555
C23 N5 1_555 1_555
C24 N5 1_555 1_555
C25 C24 1_555 1_555
C26 C25 1_555 1_555
C27 C26 1_555 1_555
C28 C27 1_555 1_555
C29 N6 1_555 1_555
C30 C27 1_555 1_555
C31 N7 1_555 1_555
C32 N8 1_555 1_555
C33 N7 1_555 1_555
C34 N9 1_555 1_555
C35 N9 1_555 1_555
C36 N10 1_555 1_555
C37 N11 1_555 1_555
C38 N12 1_555 1_555
C39 C38 1_555 1_555
C40 C39 1_555 1_555
C41 C40 1_555 1_555
C42 C41 1_555 1_555
C43 N11 1_555 1_555
C44 C40 1_555 1_555
C45 N13 1_555 1_555
C46 N13 1_555 1_555
C47 C46 1_555 1_555
C48 C40 1_555 1_555
C49 C30 1_555 1_555
C50 C49 1_555 1_555
C51 N14 1_555 1_555
C52 N15 1_555 1_555
C53 N15 1_555 1_555
C54 C53 1_555 1_555
C55 N17 1_555 1_555
C56 N17 1_555 1_555
C57 C56 1_555 1_555
C58 C57 1_555 1_555
C59 C58 1_555 1_555
C60 C59 1_555 1_555
C61 N16 1_555 1_555
C62 C59 1_555 1_555
C63 N18 1_555 1_555
C64 N18 1_555 1_555
C65 N19 1_555 1_555
C66 N21 1_555 1_555
C67 N21 1_555 1_555
C68 C67 1_555 1_555
C69 C68 1_555 1_555
C70 C69 1_555 1_555
C71 C70 1_555 1_555
C72 N20 1_555 1_555
C73 C69 1_555 1_555
C74 C62 1_555 1_555
C75 N24 1_555 1_555
C76 N22 1_555 1_555
C77 N24 1_555 1_555
C78 N23 1_555 1_555
C79 N23 1_555 1_555
C80 C79 1_555 1_555
C81 C80 1_555 1_555
C82 C81 1_555 1_555
C83 C53 1_555 1_555
Zn1F N1F 1_555 1_555
Zn1E N24E 1_555 1_555
Zn2F N2F 1_555 1_555
Zn2D N21D 1_555 1_555
Zn3F N4F 1_555 1_555
Zn3D N16 1_555 1_555
Zn3E N18E 1_555 1_555
Zn4F N6F 1_555 1_555
Zn4E N19 1_555 1_555
Zn4D N20 1_555 1_555
Zn5E N8E 1_555 1_555
Zn5D N17D 1_555 1_555
Zn5F N8F 1_555 1_555
Zn6E N22 1_555 1_555
Zn6F N11F 1_555 1_555
N1F C7F 1_555 1_555
N2F C7F 1_555 1_555
N3F Zn2F 1_555 1_555
N4F C15F 1_555 1_555
N5F Zn3F 1_555 1_555
N6F C23F 1_555 1_555
N7F Zn4F 1_555 1_555
N8F C31F 1_555 1_555
N9E Zn5E 1_555 1_555
N10E Zn6E 1_555 1_555
N11F C37F 1_555 1_555
N11E Zn6E 1_555 1_555
N12F Zn1F 1_555 1_555
N13F Zn2F 1_555 1_555
N14F Zn5F 1_555 1_555
N14E Zn5E 1_555 1_555
N15F C52 1_555 1_555
N16D Zn3 1_555 1_555
N16B Zn3F 1_555 1_555
N17D C55D 1_555 1_555
N17E Zn5E 1_555 1_555
N18E C63E 1_555 1_555
N18F Zn3F 1_555 1_555
N19E Zn4 1_555 1_555
N19C Zn4F 1_555 1_555
N20D Zn4 1_555 1_555
N20B Zn4F 1_555 1_555
N21D C66D 1_555 1_555
N21F Zn2F 1_555 1_555
N22E Zn6 1_555 1_555
N23F C78 1_555 1_555
N23E Zn6E 1_555 1_555
N24E C75E 1_555 1_555
N24F Zn1F 1_555 1_555
C8F N1F 1_555 1_555
C9F C8F 1_555 1_555
C10F C9F 1_555 1_555
C11F C10F 1_555 1_555
C12F C11F 1_555 1_555
C13F N2F 1_555 1_555
C14F C11F 1_555 1_555
C15F N3F 1_555 1_555
C16F N3F 1_555 1_555
C17F C16F 1_555 1_555
C18F C17F 1_555 1_555
C19F C18F 1_555 1_555
C20F C19F 1_555 1_555
C21F N4F 1_555 1_555
C22F C18F 1_555 1_555
C23F N5F 1_555 1_555
C24F N5F 1_555 1_555
C25F C24F 1_555 1_555
C26F C25F 1_555 1_555
C27F C26F 1_555 1_555
C28F C27F 1_555 1_555
C29F N6F 1_555 1_555
C30F C27F 1_555 1_555
C31F N7F 1_555 1_555
C32F N8F 1_555 1_555
C33F N7F 1_555 1_555
C34E N9E 1_555 1_555
C35E N9E 1_555 1_555
C36E N10E 1_555 1_555
C37F N12F 1_555 1_555
C38F N12F 1_555 1_555
C39F C38F 1_555 1_555
C40F C39F 1_555 1_555
C41F C40F 1_555 1_555
C42F C41F 1_555 1_555
C43F N11F 1_555 1_555
C44F C40F 1_555 1_555
C45F N13F 1_555 1_555
C46F N13F 1_555 1_555
C47F C46F 1_555 1_555
C48F C40F 1_555 1_555
C49F C30F 1_555 1_555
C50F C49F 1_555 1_555
C51F N14F 1_555 1_555
C53F C53 1_555 1_555
C54F C53F 1_555 1_555
C55D N16D 1_555 1_555
C56D N17D 1_555 1_555
C57D C56D 1_555 1_555
C58D C57D 1_555 1_555
C59D C58D 1_555 1_555
C60D C59D 1_555 1_555
C61D N16D 1_555 1_555
C62D C59D 1_555 1_555
C63E N19E 1_555 1_555
C64E N18E 1_555 1_555
C65E N19E 1_555 1_555
C66D N20D 1_555 1_555
C67D N21D 1_555 1_555
C68D C67D 1_555 1_555
C69D C68D 1_555 1_555
C70D C69D 1_555 1_555
C71D C70D 1_555 1_555
C72D N20D 1_555 1_555
C73D C69D 1_555 1_555
C74D C62D 1_555 1_555
C75E N22E 1_555 1_555
C76E N22E 1_555 1_555
C77E N24E 1_555 1_555
C79F C79 1_555 1_555
C80F C79F 1_555 1_555
C81F C81 1_555 1_555
C82F C81F 1_555 1_555
C83F C53F 1_555 1_555
N12 C37 1_555 1_555
N14 C45 1_555 1_555
C8 C13 1_555 1_555
C12 C13 1_555 1_555
C16 C21 1_555 1_555
C20 C21 1_555 1_555
C24 C29 1_555 1_555
C28 C29 1_555 1_555
C32 C33 1_555 1_555
C35 C36 1_555 1_555
C38 C43 1_555 1_555
C41 C49 1_555 1_555
C42 C43 1_555 1_555
C44 C48 1_555 1_555
C46 C51 1_555 1_555
C47 C48 1_555 1_555
C48 C49 1_555 1_555
C50 C51 1_555 1_555
C54 C83 1_555 1_555
C56 C61 1_555 1_555
C60 C61 1_555 1_555
C64 C65 1_555 1_555
C67 C72 1_555 1_555
C70 C74 1_555 1_555
C71 C72 1_555 1_555
C76 C77 1_555 1_555
Zn1F N15F 1_555 1_555
Zn6F N23F 1_555 1_555
N10E C34E 1_555 1_555
N14F C45F 1_555 1_555
N15F C53F 1_555 1_555
N23F C79F 1_555 1_555
C8F C13F 1_555 1_555
C12F C13F 1_555 1_555
C16F C21F 1_555 1_555
C20F C21F 1_555 1_555
C24F C29F 1_555 1_555
C28F C29F 1_555 1_555
C32F C33F 1_555 1_555
C35E C36E 1_555 1_555
C38F C43F 1_555 1_555
C41F C49F 1_555 1_555
C42F C43F 1_555 1_555
C44F C48F 1_555 1_555
C46F C51F 1_555 1_555
C47F C48F 1_555 1_555
C48F C49F 1_555 1_555
C50F C51F 1_555 1_555
C54F C83F 1_555 1_555
C56D C61D 1_555 1_555
C60D C61D 1_555 1_555
C64E C65E 1_555 1_555
C67D C72D 1_555 1_555
C70D C74D 1_555 1_555
C71D C72D 1_555 1_555
C76E C77E 1_555 1_555
C80F C81F 1_555 1_555

#END
