
#######################################################################
#
#                 Cambridge Crystallographic Data Centre
#                                CCDC 
#
#######################################################################
#
# If this CIF has been generated from an entry in the Cambridge 
# Structural Database, then it will include bibliographic, chemical, 
# crystal, experimental, refinement or atomic coordinate data resulting 
# from the CCDC's data processing and validation procedures.
#
#######################################################################

data_QOSXUR
_symmetry_cell_setting           monoclinic
_symmetry_space_group_name_H-M   'C 2/c'
_symmetry_Int_Tables_number      15
_space_group_name_Hall           '-C 2yn'
loop_
_symmetry_equiv_pos_site_id
_symmetry_equiv_pos_as_xyz
1 x,y,z
2 1/2+x,1/2+y,z
3 x,-y,1/2+z
4 1/2+x,1/2-y,1/2+z
5 -x,-y,-z
6 1/2-x,1/2-y,-z
7 -x,y,1/2-z
8 1/2-x,1/2+y,1/2-z
_cell_length_a                   23.3789(10)
_cell_length_b                   7.5684(3)
_cell_length_c                   28.3778(12)
_cell_angle_alpha                90
_cell_angle_beta                 105.6210(10)
_cell_angle_gamma                90
_cell_volume                     4835.73
loop_
_atom_site_label
_atom_site_type_symbol
_atom_site_fract_x
_atom_site_fract_y
_atom_site_fract_z
Co1 Co 0.5000 0.22199(3) 0.2500
N1 N 0.43429(6) 0.42823(16) 0.22825(5)
N2 N 0.50953(6) 0.22697(18) 0.17910(5)
N3 N 0.43694(6) 1.00871(16) 0.22668(5)
N4 N 0.39605(7) 0.71889(18) 0.19613(7)
N5 N 0.48900(7) 0.19954(19) 0.09009(5)
N6 N 0.41557(7) 0.3586(2) 0.02601(6)
C1 C 0.41867(7) 0.56838(19) 0.21498(6)
C2 C 0.49752(7) 0.22216(19) 0.13699(6)
C3 C 0.42005(6) 0.86835(19) 0.21414(6)
C4 C 0.44916(8) 0.2903(2) 0.05786(6)
N1F N 0.56571(6) 0.42823(16) 0.27175(5)
N3F N 0.56306(6) 1.00871(16) 0.27332(5)
N4F N 0.60395(7) 0.71889(18) 0.30387(7)
C1F C 0.58133(7) 0.56838(19) 0.28502(6)
C3F C 0.57995(6) 0.86835(19) 0.28586(6)
N2F N 0.49047(6) 0.22697(18) 0.32090(5)
N5F N 0.51100(7) 0.19954(19) 0.40991(5)
N6F N 0.58443(7) 0.3586(2) 0.47399(6)
C2F C 0.50248(7) 0.22216(19) 0.36301(6)
C4F C 0.55084(8) 0.2903(2) 0.44214(6)
N3_2 N 0.43694(6) 0.00871(16) 0.22668(5)
N3F_2 N 0.56306(6) 0.00871(16) 0.27332(5)
Co1_2 Co 0.5000 1.22199(3) 0.2500
C5 C 0.15442(6) 0.81444(19) 0.05355(6)
C6 C 0.16531(8) 0.7247(2) -0.02464(6)
H1 H 0.1826 0.7409 -0.0510
C7 C 0.12624(8) 0.5875(2) -0.02595(7)
H2 H 0.1168 0.5091 -0.0531
C8 C 0.17961(7) 0.8398(2) 0.01496(6)
H3 H 0.2064 0.9349 0.0156
C9 C 0.11489(7) 0.6753(2) 0.05228(6)
H4 H 0.0979 0.6576 0.0788
C10 C 0.10058(8) 0.5635(2) 0.01242(7)
H5 H 0.0731 0.4700 0.0112
C11 C 0.19336(7) 0.80431(19) 0.15787(6)
C12 C 0.16015(7) 0.7966(2) 0.19205(6)
H6 H 0.1282 0.8766 0.1899
C13 C 0.23995(7) 0.6848(2) 0.16098(6)
H7 H 0.2622 0.6886 0.1375
C14 C 0.25367(8) 0.5615(2) 0.19820(7)
H8 H 0.2857 0.4816 0.2006
C15 C 0.17408(7) 0.6717(2) 0.22904(6)
H9 H 0.1517 0.6663 0.2524
C16 C 0.22051(8) 0.5545(2) 0.23204(6)
H10 H 0.2297 0.4689 0.2574
C17 C 0.11244(7) 1.08710(19) 0.11220(6)
C18 C 0.05663(7) 1.0733(2) 0.07959(6)
H11 H 0.0500 0.9955 0.0524
C19 C 0.01995(8) 1.2887(2) 0.12632(8)
H12 H -0.0122 1.3555 0.1315
C20 C 0.07616(9) 1.3066(2) 0.15824(7)
H13 H 0.0827 1.3877 0.1847
C21 C 0.01052(8) 1.1751(2) 0.08732(8)
H14 H -0.0280 1.1658 0.0653
C22 C 0.12262(8) 1.2062(2) 0.15135(7)
H15 H 0.1612 1.2179 0.1730
C23 C 0.23247(7) 1.10027(19) 0.10431(6)
C24 C 0.21731(7) 1.2405(2) 0.07118(6)
H16 H 0.1779 1.2520 0.0510
C25 C 0.29036(7) 1.0836(2) 0.13386(6)
H17 H 0.3008 0.9881 0.1563
C26 C 0.33280(7) 1.2077(2) 0.13034(6)
H18 H 0.3723 1.1972 0.1505
C27 C 0.26023(8) 1.3621(2) 0.06810(7)
H19 H 0.2502 1.4573 0.0455
C28 C 0.31774(7) 1.3463(2) 0.09765(6)
H20 H 0.3469 1.4310 0.0955
P1 P 0.173200(16) 0.95256(5) 0.106730(14)
loop_
_geom_bond_atom_site_label_1
_geom_bond_atom_site_label_2
_geom_bond_site_symmetry_1
_geom_bond_site_symmetry_2
Co1 N1 1_555 1_555
N1 C1 1_555 1_555
N2 Co1 1_555 1_555
N3 C3 1_555 1_555
N4 C1 1_555 1_555
N5 C2 1_555 1_555
N6 C4 1_555 1_555
C2 N2 1_555 1_555
C3 N4 1_555 1_555
C4 N5 1_555 1_555
C5 C8 1_555 1_555
C6 H1 1_555 1_555
C7 C6 1_555 1_555
H2 C7 1_555 1_555
C8 C6 1_555 1_555
H3 C8 1_555 1_555
C9 C5 1_555 1_555
H4 C9 1_555 1_555
C10 C7 1_555 1_555
H5 C10 1_555 1_555
C11 C12 1_555 1_555
C12 H6 1_555 1_555
C13 C11 1_555 1_555
H7 C13 1_555 1_555
C14 C13 1_555 1_555
H8 C14 1_555 1_555
C15 C12 1_555 1_555
H9 C15 1_555 1_555
C16 C14 1_555 1_555
H10 C16 1_555 1_555
C17 C18 1_555 1_555
C18 H11 1_555 1_555
C19 H12 1_555 1_555
C20 C19 1_555 1_555
H13 C20 1_555 1_555
C21 C18 1_555 1_555
H14 C21 1_555 1_555
C22 C17 1_555 1_555
H15 C22 1_555 1_555
C23 C24 1_555 1_555
C24 H16 1_555 1_555
C25 C23 1_555 1_555
H17 C25 1_555 1_555
C26 C25 1_555 1_555
H18 C26 1_555 1_555
C27 C24 1_555 1_555
H19 C27 1_555 1_555
C28 C26 1_555 1_555
H20 C28 1_555 1_555
P1 C5 1_555 1_555
N1F Co1 1_555 1_555
N3F C3F 1_555 1_555
N4F C1F 1_555 1_555
C1F N1F 1_555 1_555
C3F N4F 1_555 1_555
N2F Co1 1_555 1_555
N5F C2F 1_555 1_555
N6F C4F 1_555 1_555
C2F N2F 1_555 1_555
C4F N5F 1_555 1_555
N3_2 Co1 1_555 1_555
N3F_2 Co1 1_555 1_555
Co1_2 N3 1_555 1_555
C9 C10 1_555 1_555
C11 P1 1_555 1_555
C15 C16 1_555 1_555
C17 P1 1_555 1_555
C19 C21 1_555 1_555
C20 C22 1_555 1_555
C23 P1 1_555 1_555
C27 C28 1_555 1_555
N3F Co1_2 1_555 1_555

#END
