
#######################################################################
#
#                 Cambridge Crystallographic Data Centre
#                                CCDC 
#
#######################################################################
#
# If this CIF has been generated from an entry in the Cambridge 
# Structural Database, then it will include bibliographic, chemical, 
# crystal, experimental, refinement or atomic coordinate data resulting 
# from the CCDC's data processing and validation procedures.
#
#######################################################################

data_QOSYAY
_symmetry_cell_setting           monoclinic
_symmetry_space_group_name_H-M   'P 2/n'
_symmetry_Int_Tables_number      13
_space_group_name_Hall           '-P 2yac'
loop_
_symmetry_equiv_pos_site_id
_symmetry_equiv_pos_as_xyz
1 x,y,z
2 1/2+x,-y,1/2+z
3 -x,-y,-z
4 1/2-x,y,1/2-z
_cell_length_a                   13.4354(10)
_cell_length_b                   7.4426(5)
_cell_length_c                   14.1556(10)
_cell_angle_alpha                90
_cell_angle_beta                 101.0870(10)
_cell_angle_gamma                90
_cell_volume                     1389.06
loop_
_atom_site_label
_atom_site_type_symbol
_atom_site_fract_x
_atom_site_fract_y
_atom_site_fract_z
C4 C 0.6746(2) 0.4375(4) 0.1653(2)
C5 C 0.6754(2) 0.4321(4) 0.0680(2)
H1 H 0.7105 0.3388 0.0422
C6 C 0.6246(2) 0.5641(4) 0.0078(2)
H2 H 0.6248 0.5606 -0.0592
C7 C 0.5739(2) 0.7001(4) 0.0449(2)
H3 H 0.5398 0.7902 0.0034
C8 C 0.5724(2) 0.7060(4) 0.1429(2)
H4 H 0.5369 0.7994 0.1680
C9 C 0.6225(2) 0.5765(4) 0.2032(2)
H5 H 0.6220 0.5806 0.2702
C10 C 0.8279(2) 0.1481(4) 0.1912(2)
C11 C 0.7811(2) 0.0100(4) 0.1321(2)
H6 H 0.7099 -0.0073 0.1242
C12 C 0.8376(2) -0.1012(4) 0.0851(2)
H7 H 0.8055 -0.1951 0.0450
C13 C 0.9414(2) -0.0760(4) 0.0966(2)
H8 H 0.9803 -0.1526 0.0641
C14 C 0.9883(2) 0.0598(4) 0.1548(2)
H9 H 1.0596 0.0763 0.1624
C15 C 0.9319(2) 0.1731(4) 0.2026(2)
H10 H 0.9643 0.2667 0.2427
P1 P 0.7500 0.28928(13) 0.2500
C4C C 0.8254(2) 0.4375(4) 0.3347(2)
C5C C 0.8246(2) 0.4321(4) 0.4320(2)
H1C H 0.7895 0.3388 0.4578
C6C C 0.8754(2) 0.5641(4) 0.4922(2)
H2C H 0.8752 0.5606 0.5592
C7C C 0.9261(2) 0.7001(4) 0.4551(2)
H3C H 0.9602 0.7902 0.4966
C8C C 0.9276(2) 0.7060(4) 0.3571(2)
H4C H 0.9631 0.7994 0.3320
C9C C 0.8775(2) 0.5765(4) 0.2968(2)
H5C H 0.8780 0.5806 0.2298
C10C C 0.6721(2) 0.1481(4) 0.3088(2)
C11C C 0.7189(2) 0.0100(4) 0.3679(2)
H6C H 0.7901 -0.0073 0.3758
C12C C 0.6624(2) -0.1012(4) 0.4149(2)
H7C H 0.6945 -0.1951 0.4550
C13C C 0.5586(2) -0.0760(4) 0.4034(2)
H8C H 0.5197 -0.1526 0.4359
C14C C 0.5117(2) 0.0598(4) 0.3452(2)
H9C H 0.4404 0.0763 0.3376
C15C C 0.5681(2) 0.1731(4) 0.2974(2)
H10C H 0.5357 0.2667 0.2573
Co1 Co 0.2500 0.45689(6) 0.2500
N1 N 0.3140(2) 0.2463(3) 0.18064(17)
N2 N 0.3504(2) -0.0438(3) 0.11263(18)
N3 N 0.3164(2) -0.3363(3) 0.18049(19)
N4 N 0.1225(2) 0.4613(3) 0.13147(19)
N5 N -0.0560(4) 0.4718(8) 0.0422(4)
C1 C 0.3290(2) 0.1067(3) 0.15150(19)
C2 C 0.3303(2) -0.1964(3) 0.1522(2)
C3 C 0.0388(6) 0.4664(8) 0.0870(4)
N1C N 0.1860(2) 0.2463(3) 0.31936(17)
N2C N 0.1496(2) -0.0438(3) 0.38737(18)
N3C N 0.1836(2) -0.3363(3) 0.31951(19)
C1C C 0.1710(2) 0.1067(3) 0.34850(19)
C2C C 0.1697(2) -0.1964(3) 0.3478(2)
N4C N 0.3775(2) 0.4613(3) 0.36853(19)
N5C N 0.5560(4) 0.4718(8) 0.4578(4)
C3C C 0.4612(6) 0.4664(8) 0.4130(4)
N3_2 N 0.3164(2) 0.6637(3) 0.18049(19)
N3C_2 N 0.1836(2) 0.6637(3) 0.31951(19)
Co1_2 Co 0.2500 -0.54311(6) 0.2500
C16? C 0.0890(6) 0.4928(7) 0.0500(5)
loop_
_geom_bond_atom_site_label_1
_geom_bond_atom_site_label_2
_geom_bond_site_symmetry_1
_geom_bond_site_symmetry_2
Co1 N1 1_555 1_555
N1 C1 1_555 1_555
N2 C1 1_555 1_555
N3 C2 1_555 1_555
N4 Co1 1_555 1_555
N5 C3 1_555 1_555
C2 N2 1_555 1_555
C3 N4 1_555 1_555
C4 C5 1_555 1_555
C5 H1 1_555 1_555
C6 C5 1_555 1_555
H2 C6 1_555 1_555
C7 C6 1_555 1_555
H3 C7 1_555 1_555
C8 C7 1_555 1_555
H4 C8 1_555 1_555
C9 C4 1_555 1_555
H5 C9 1_555 1_555
C10 C11 1_555 1_555
C11 H6 1_555 1_555
C12 C11 1_555 1_555
H7 C12 1_555 1_555
C13 C12 1_555 1_555
H8 C13 1_555 1_555
C14 C13 1_555 1_555
H9 C14 1_555 1_555
C15 C10 1_555 1_555
H10 C15 1_555 1_555
P1 C4 1_555 1_555
C4C P1 1_555 1_555
C5C C4C 1_555 1_555
H1C C5C 1_555 1_555
C6C C5C 1_555 1_555
H2C C6C 1_555 1_555
C7C C6C 1_555 1_555
H3C C7C 1_555 1_555
C8C C7C 1_555 1_555
H4C C8C 1_555 1_555
C9C C4C 1_555 1_555
H5C C9C 1_555 1_555
C10C P1 1_555 1_555
C11C C10C 1_555 1_555
H6C C11C 1_555 1_555
C12C C11C 1_555 1_555
H7C C12C 1_555 1_555
C13C C12C 1_555 1_555
H8C C13C 1_555 1_555
C14C C13C 1_555 1_555
H9C C14C 1_555 1_555
C15C C10C 1_555 1_555
H10C C15C 1_555 1_555
N1C Co1 1_555 1_555
N2C C1C 1_555 1_555
N3C C2C 1_555 1_555
C1C N1C 1_555 1_555
C2C N2C 1_555 1_555
N4C Co1 1_555 1_555
N5C C3C 1_555 1_555
C3C N4C 1_555 1_555
N3_2 Co1 1_555 1_555
N3C_2 Co1 1_555 1_555
Co1_2 N3 1_555 1_555
C8 C9 1_555 1_555
C10 P1 1_555 1_555
C14 C15 1_555 1_555
C8C C9C 1_555 1_555
C14C C15C 1_555 1_555
N3C Co1_2 1_555 1_555

#END
