
#######################################################################
#
#                 Cambridge Crystallographic Data Centre
#                                CCDC 
#
#######################################################################
#
# If this CIF has been generated from an entry in the Cambridge 
# Structural Database, then it will include bibliographic, chemical, 
# crystal, experimental, refinement or atomic coordinate data resulting 
# from the CCDC's data processing and validation procedures.
#
#######################################################################

data_QOSYIH
_symmetry_cell_setting           tetragonal
_symmetry_space_group_name_H-M   'I 41/a'
_symmetry_Int_Tables_number      88
_space_group_name_Hall           '-I 4ad'
loop_
_symmetry_equiv_pos_site_id
_symmetry_equiv_pos_as_xyz
1 x,y,z
2 1/2-x,-y,1/2+z
3 3/4-y,1/4+x,1/4+z
4 3/4+y,3/4-x,3/4+z
5 1/2+x,1/2+y,1/2+z
6 -x,1/2-y,z
7 1/4-y,3/4+x,3/4+z
8 1/4+y,1/4-x,1/4+z
9 -x,-y,-z
10 1/2+x,y,1/2-z
11 1/4+y,3/4-x,3/4-z
12 1/4-y,1/4+x,1/4-z
13 1/2-x,1/2-y,1/2-z
14 x,1/2+y,-z
15 3/4+y,1/4-x,1/4-z
16 3/4-y,3/4+x,3/4-z
_cell_length_a                   16.7862(2)
_cell_length_b                   16.7862(2)
_cell_length_c                   21.3384(5)
_cell_angle_alpha                90
_cell_angle_beta                 90
_cell_angle_gamma                90
_cell_volume                     6012.66
loop_
_atom_site_label
_atom_site_type_symbol
_atom_site_fract_x
_atom_site_fract_y
_atom_site_fract_z
Zn1 Zn 0.19883(9) 0.40812(9) 0.10773(7)
C1 C 0.1798(8) 0.4724(8) -0.0195(6)
H1 H 0.1257 0.4836 -0.0097
N1 N 0.2289(6) 0.4425(6) 0.0228(5)
N2 N 0.2093(7) 0.4863(7) -0.0765(5)
C2 C 0.3001(9) 0.4366(9) -0.0098(7)
N3 N 0.2117(8) 0.2905(7) 0.1103(6)
C3 C 0.3545(13) 0.4628(13) -0.1124(10)
H2 H 0.3453 0.4788 -0.1545
C4 C 0.1709(8) 0.2308(8) 0.1338(6)
H3 H 0.1241 0.2395 0.1579
N4 N 0.1965(8) 0.1607(7) 0.1233(6)
C5 C 0.2884(10) 0.4608(10) -0.0706(7)
C6 C 0.3774(13) 0.4133(14) 0.0137(10)
H4 H 0.3838 0.3978 0.0563
C7 C 0.4442(16) 0.4137(17) -0.0282(12)
C8 C 0.2585(17) 0.1691(16) 0.0841(19)
H5 H 0.2907 0.1279 0.0670
C9 C 0.4988(17) 0.4333(15) -0.1391(12)
H6 H 0.5029 0.3774 -0.1519
H7 H 0.5483 0.4496 -0.1184
H8 H 0.4899 0.4666 -0.1762
C10 C 0.5252(18) 0.3822(11) -0.0102(12)
H9 H 0.5248 0.3663 0.0340
H10 H 0.5654 0.4238 -0.0166
H11 H 0.5382 0.3359 -0.0363
C11 C 0.4312(15) 0.4428(13) -0.0951(12)
C12 C 0.2662(16) 0.2532(14) 0.0735(15)
H12 H 0.3027 0.2782 0.0457
Zn1C Zn 0.15812(9) 0.55117(9) -0.14227(7)
Zn1N Zn 0.15812(9) 0.05117(9) 0.14227(7)
N2B N 0.2637(7) 0.4593(7) 0.1735(5)
N4K N 0.0893(7) 0.4465(8) 0.1267(6)
O1 O 1.048(5) 0.219(5) 0.298(4)
O2? O 1.001(7) 0.174(6) 0.287(5)
O3? O 0.911(5) 0.191(5) 0.302(4)
loop_
_geom_bond_atom_site_label_1
_geom_bond_atom_site_label_2
_geom_bond_site_symmetry_1
_geom_bond_site_symmetry_2
Zn1 N1 1_555 1_555
C1 H1 1_555 1_555
N1 C1 1_555 1_555
N2 C1 1_555 1_555
C2 N1 1_555 1_555
N3 Zn1 1_555 1_555
C3 H2 1_555 1_555
C4 N3 1_555 1_555
H3 C4 1_555 1_555
N4 C4 1_555 1_555
C5 N2 1_555 1_555
C6 C2 1_555 1_555
H4 C6 1_555 1_555
C7 C6 1_555 1_555
C8 N4 1_555 1_555
H5 C8 1_555 1_555
C9 H6 1_555 1_555
H7 C9 1_555 1_555
H8 C9 1_555 1_555
C10 C7 1_555 1_555
H9 C10 1_555 1_555
H10 C10 1_555 1_555
H11 C10 1_555 1_555
C11 C3 1_555 1_555
C12 N3 1_555 1_555
H12 C12 1_555 1_555
Zn1C N2 1_555 1_555
Zn1N N4 1_555 1_555
N2B Zn1 1_555 1_555
N4K Zn1 1_555 1_555
C2 C5 1_555 1_555
C3 C5 1_555 1_555
C7 C11 1_555 1_555
C8 C12 1_555 1_555
C9 C11 1_555 1_555

#END
