
#######################################################################
#
#                 Cambridge Crystallographic Data Centre
#                                CCDC 
#
#######################################################################
#
# If this CIF has been generated from an entry in the Cambridge 
# Structural Database, then it will include bibliographic, chemical, 
# crystal, experimental, refinement or atomic coordinate data resulting 
# from the CCDC's data processing and validation procedures.
#
#######################################################################

data_QOSZIH
_symmetry_cell_setting           monoclinic
_symmetry_space_group_name_H-M   'P 2'
_symmetry_Int_Tables_number      3
_space_group_name_Hall           'P 2y'
loop_
_symmetry_equiv_pos_site_id
_symmetry_equiv_pos_as_xyz
1 x,y,z
2 -x,y,-z
_cell_length_a                   8.1434(9)
_cell_length_b                   11.4343(12)
_cell_length_c                   10.0905(11)
_cell_angle_alpha                90.00
_cell_angle_beta                 107.060(2)
_cell_angle_gamma                90.00
_cell_volume                     898.225
loop_
_atom_site_label
_atom_site_type_symbol
_atom_site_fract_x
_atom_site_fract_y
_atom_site_fract_z
V1 V 1.0000 0.55888(9) 0.5000
V2 V 1.0000 0.62928(9) 0.0000
P1 P 0.72026(14) 0.60465(12) 0.18604(12)
P2 P 0.7161(2) 0.58921(12) 0.68200(13)
O1 O 0.5713(5) 0.5190(3) 0.1266(3)
O2 O 0.8042(4) 0.6372(4) 0.0775(3)
O3 O 0.8420(4) 0.5522(4) 0.3132(3)
O4 O 0.6422(5) 0.7217(3) 0.2241(4)
O5 O 0.8368(4) 0.6369(3) 0.8157(3)
O6 O 0.5742(5) 0.6835(4) 0.6252(4)
O7 O 0.8050(4) 0.5578(4) 0.5752(3)
O8 O 0.6293(5) 0.4740(4) 0.7101(4)
N1 N 1.0000 0.7482(6) 0.5000
N2 N 1.0000 1.3715(6) 0.5000
N3 N 1.0000 0.8181(6) 0.0000
N4 N 1.0000 1.4386(6) 0.0000
C1 C 0.9815(6) 0.8099(4) 0.6076(4)
C2 C 0.9800(6) 0.9312(4) 0.6120(4)
C3 C 1.0000 0.9977(7) 0.5000
C4 C 1.0000 1.1218(9) 0.5000
C5 C 0.9581(7) 1.3097(4) 0.5986(5)
C6 C 0.9586(7) 1.1886(4) 0.6032(5)
C7 C 0.8528(6) 0.8784(4) -0.0297(5)
C8 C 0.8477(6) 0.9980(4) -0.0288(5)
C9 C 1.0000 1.0612(6) 0.0000
C10 C 1.0000 1.1950(8) 0.0000
C11 C 0.8610(6) 1.3766(4) 0.0041(5)
C12 C 0.8564(6) 1.2562(4) 0.0046(5)
H1 H 0.5672 0.7057 0.2770
H2 H 0.5689 0.4836 0.7772
H3 H 0.9531 0.7695 0.6783
H4 H 0.9549 0.9609 0.6983
H5 H 0.9407 1.3408 0.6783
H6 H 0.8653 1.1387 0.6378
H7 H 0.7501 0.8279 -0.0425
H8 H 0.7561 1.0409 -0.0224
H9 H 0.7557 1.4210 -0.0024
H10 H 0.7473 1.2159 -0.0024
C2A C 1.0200(6) 0.9312(4) 0.3880(4)
C1A C 1.0185(6) 0.8099(4) 0.3924(4)
H3A H 1.0469 0.7695 0.3217
H4A H 1.0451 0.9609 0.3017
C5A C 1.0419(7) 1.3097(4) 0.4014(5)
C6A C 1.0414(7) 1.1886(4) 0.3968(5)
H6A H 1.1347 1.1387 0.3622
H5A H 1.0593 1.3408 0.3217
C8A C 1.1523(6) 0.9980(4) 0.0288(5)
C7A C 1.1472(6) 0.8784(4) 0.0297(5)
H7A H 1.2499 0.8279 0.0425
H8A H 1.2439 1.0409 0.0224
C11A C 1.1390(6) 1.3766(4) -0.0041(5)
C12A C 1.1436(6) 1.2562(4) -0.0046(5)
H10A H 1.2527 1.2159 0.0024
H9A H 1.2443 1.4210 0.0024
P1A P 1.27974(14) 0.60465(12) 0.81396(12)
O1A O 1.4287(5) 0.5190(3) 0.8734(3)
O2A O 1.1958(4) 0.6372(4) 0.9225(3)
O3A O 1.1580(4) 0.5522(4) 0.6868(3)
O4A O 1.3578(5) 0.7217(3) 0.7759(4)
H1A H 1.4328 0.7057 0.7230
P2A P 1.2839(2) 0.58921(12) 0.31800(13)
O5A O 1.1632(4) 0.6369(3) 0.1843(3)
O6A O 1.4258(5) 0.6835(4) 0.3748(4)
O7A O 1.1950(4) 0.5578(4) 0.4248(3)
O8A O 1.3707(5) 0.4740(4) 0.2899(4)
H2A H 1.4311 0.4836 0.2228
N2_2 N 1.0000 0.3715(6) 0.5000
O2A_2 O 1.1958(4) 0.6372(4) -0.0775(3)
O5_2 O 0.8368(4) 0.6369(3) -0.1843(3)
N4_2 N 1.0000 0.4386(6) 0.0000
V2_2 V 1.0000 0.62928(9) 1.0000
V1_2 V 1.0000 1.55888(9) 0.5000
V2_3 V 1.0000 1.62928(9) 0.0000
N5 N 0.6134(6) 1.1135(5) 1.1832(5)
C13 C 0.5955(8) 1.0133(6) 1.2459(7)
C14 C 0.5484(8) 1.0072(5) 1.3669(7)
C15 C 0.5210(6) 1.1099(5) 1.4327(5)
C16 C 0.5401(9) 1.2142(6) 1.3668(7)
C17 C 0.5838(9) 1.2101(5) 1.2436(7)
H11 H 0.5424 0.9211 1.3969
H12 H 0.5062 1.2809 1.4233
H13 H 0.6022 1.2764 1.1972
C15A C 0.4790(6) 1.1099(5) 1.5673(5)
C14A C 0.4516(8) 1.0072(5) 1.6331(7)
C13A C 0.4045(8) 1.0133(6) 1.7541(7)
N5A N 0.3866(6) 1.1135(5) 1.8168(5)
C17A C 0.4162(9) 1.2101(5) 1.7564(7)
C16A C 0.4599(9) 1.2142(6) 1.6332(7)
H12A H 0.4938 1.2809 1.5767
H13A H 0.3978 1.2764 1.8028
H11A H 0.4576 0.9211 1.6031
loop_
_geom_bond_atom_site_label_1
_geom_bond_atom_site_label_2
_geom_bond_site_symmetry_1
_geom_bond_site_symmetry_2
V1 O3 1_555 1_555
V2 O2 1_555 1_555
P1 O1 1_555 1_555
P2 O5 1_555 1_555
O2 P1 1_555 1_555
O3 P1 1_555 1_555
O4 P1 1_555 1_555
O5 V2_2 1_555 1_555
O6 P2 1_555 1_555
O7 V1 1_555 1_555
O8 P2 1_555 1_555
N1 V1 1_555 1_555
N2 C5 1_555 1_555
N3 V2 1_555 1_555
N4 C11 1_555 1_555
N5 C13 1_555 1_555
C1 N1 1_555 1_555
C2 C1 1_555 1_555
C3 C2 1_555 1_555
C4 C3 1_555 1_555
C5 C6 1_555 1_555
C6 C4 1_555 1_555
C7 N3 1_555 1_555
C8 C7 1_555 1_555
C9 C8 1_555 1_555
C10 C9 1_555 1_555
C11 C12 1_555 1_555
C12 C10 1_555 1_555
C13 C14 1_555 1_555
C14 C15 1_555 1_555
C15 C16 1_555 1_555
C16 C17 1_555 1_555
C17 N5 1_555 1_555
H1 O4 1_555 1_555
H2 O8 1_555 1_555
H3 C1 1_555 1_555
H4 C2 1_555 1_555
H5 C5 1_555 1_555
H6 C6 1_555 1_555
H7 C7 1_555 1_555
H8 C8 1_555 1_555
H9 C11 1_555 1_555
H10 C12 1_555 1_555
H11 C14 1_555 1_555
H12 C16 1_555 1_555
H13 C17 1_555 1_555
C2A C3 1_555 1_555
C1A N1 1_555 1_555
H3A C1A 1_555 1_555
H4A C2A 1_555 1_555
C5A N2 1_555 1_555
C6A C4 1_555 1_555
H6A C6A 1_555 1_555
H5A C5A 1_555 1_555
C8A C9 1_555 1_555
C7A N3 1_555 1_555
H7A C7A 1_555 1_555
H8A C8A 1_555 1_555
C11A N4 1_555 1_555
C12A C10 1_555 1_555
H10A C12A 1_555 1_555
H9A C11A 1_555 1_555
C15A C15 1_555 1_555
C14A C15A 1_555 1_555
C13A C14A 1_555 1_555
N5A C13A 1_555 1_555
C17A N5A 1_555 1_555
C16A C15A 1_555 1_555
H12A C16A 1_555 1_555
H13A C17A 1_555 1_555
H11A C14A 1_555 1_555
P1A O1A 1_555 1_555
O2A P1A 1_555 1_555
O3A V1 1_555 1_555
O4A P1A 1_555 1_555
H1A O4A 1_555 1_555
P2A O5A 1_555 1_555
O5A V2 1_555 1_555
O6A P2A 1_555 1_555
O7A V1 1_555 1_555
O8A P2A 1_555 1_555
H2A O8A 1_555 1_555
N2_2 V1 1_555 1_555
O2A_2 V2 1_555 1_555
O5_2 V2 1_555 1_555
N4_2 V2 1_555 1_555
V2_2 O2A 1_555 1_555
V1_2 N2 1_555 1_555
V2_3 N4 1_555 1_555
P2 O7 1_555 1_555
C2A C1A 1_555 1_555
C5A C6A 1_555 1_555
C8A C7A 1_555 1_555
C11A C12A 1_555 1_555
C17A C16A 1_555 1_555
P1A O3A 1_555 1_555
P2A O7A 1_555 1_555

#END
