
#######################################################################
#
#                 Cambridge Crystallographic Data Centre
#                                CCDC 
#
#######################################################################
#
# If this CIF has been generated from an entry in the Cambridge 
# Structural Database, then it will include bibliographic, chemical, 
# crystal, experimental, refinement or atomic coordinate data resulting 
# from the CCDC's data processing and validation procedures.
#
#######################################################################

data_QOTBAE
_symmetry_cell_setting           tetragonal
_symmetry_space_group_name_H-M   'P 4/n c c'
_symmetry_Int_Tables_number      130
_space_group_name_Hall           '-P 4a 2ac'
loop_
_symmetry_equiv_pos_site_id
_symmetry_equiv_pos_as_xyz
1 x,y,z
2 1/2-y,x,z
3 1/2-x,1/2-y,z
4 y,1/2-x,z
5 1/2+x,-y,1/2-z
6 1/2+y,1/2+x,1/2-z
7 -x,1/2+y,1/2-z
8 -y,-x,1/2-z
9 -x,-y,-z
10 1/2+y,-x,-z
11 1/2+x,1/2+y,-z
12 -y,1/2+x,-z
13 1/2-x,y,1/2+z
14 1/2-y,1/2-x,1/2+z
15 x,1/2-y,1/2+z
16 y,x,1/2+z
_cell_length_a                   13.4761(19)
_cell_length_b                   13.4761(19)
_cell_length_c                   27.254(5)
_cell_angle_alpha                90
_cell_angle_beta                 90
_cell_angle_gamma                90
_cell_volume                     4949.47
loop_
_atom_site_label
_atom_site_type_symbol
_atom_site_fract_x
_atom_site_fract_y
_atom_site_fract_z
Zn1 Zn 0.09002(4) -0.02250(4) 0.947334(18)
O1 O 0.1398(3) 0.0554(3) 0.86644(13)
O2 O 0.0484(3) -0.0747(3) 0.88338(15)
N1 N 0.2344(3) -0.0145(3) 0.96543(13)
N2 N 0.3766(3) -0.0391(3) 1.00321(13)
N3 N 0.3916(3) 0.0275(3) 0.96584(13)
C1 C 0.0883(5) -0.0148(5) 0.8534(2)
C2 C 0.0680(5) -0.0336(5) 0.7999(2)
C3 C 0.1184(6) 0.0203(5) 0.7643(2)
H1 H 0.1627 0.0698 0.7736
C4 C -0.0008(5) -0.1030(5) 0.7849(2)
H2 H -0.0346 -0.1401 0.8083
C5 C 0.3059(3) 0.0384(3) 0.94404(15)
H3 H 0.2960 0.0786 0.9167
C6 C 0.2820(3) -0.0619(3) 1.00135(15)
H4 H 0.2515 -0.1062 1.0227
O1G O -0.0554(3) -0.1398(3) 0.63356(13)
O2G O 0.0747(3) -0.0484(3) 0.61662(15)
C1G C 0.0148(5) -0.0883(5) 0.6466(2)
C2G C 0.0336(5) -0.0680(5) 0.7001(2)
C3G C -0.0203(5) -0.1184(6) 0.7357(2)
H1G H -0.0698 -0.1627 0.7264
C4G C 0.1030(5) 0.0008(5) 0.7151(2)
H2G H 0.1401 0.0346 0.6917
Zn1A Zn 0.52250(4) 0.09002(4) 0.947334(18)
N1A N 0.5145(3) 0.2344(3) 0.96543(13)
N2A N 0.5391(3) 0.3766(3) 1.00321(13)
N3A N 0.4725(3) 0.3916(3) 0.96584(13)
C5A C 0.4616(3) 0.3059(3) 0.94404(15)
H3A H 0.4214 0.2960 0.9167
C6A C 0.5619(3) 0.2820(3) 1.00135(15)
H4A H 0.6062 0.2515 1.0227
Zn1B Zn 0.40998(4) 0.52250(4) 0.947334(18)
Zn1G Zn 0.02250(4) -0.09002(4) 0.552666(18)
Zn1I Zn 0.47750(4) -0.09002(4) 1.052666(18)
Zn1J Zn 0.59002(4) 0.47750(4) 1.052666(18)
O1A O 0.4446(3) 0.1398(3) 0.86644(13)
O2A O 0.5747(3) 0.0484(3) 0.88338(15)
N2H N 0.6234(3) 0.0391(3) 0.99679(13)
N2K N 0.0391(3) -0.1234(3) 0.99679(13)
N3C N 0.0275(3) 0.1084(3) 0.96584(13)
loop_
_geom_bond_atom_site_label_1
_geom_bond_atom_site_label_2
_geom_bond_site_symmetry_1
_geom_bond_site_symmetry_2
Zn1 O1 1_555 1_555
O1 C1 1_555 1_555
O2 Zn1 1_555 1_555
N1 Zn1 1_555 1_555
N2 N3 1_555 1_555
N3 C5 1_555 1_555
C1 O2 1_555 1_555
C2 C1 1_555 1_555
C3 C2 1_555 1_555
H1 C3 1_555 1_555
C4 C2 1_555 1_555
H2 C4 1_555 1_555
C5 N1 1_555 1_555
H3 C5 1_555 1_555
C6 N1 1_555 1_555
H4 C6 1_555 1_555
O1G C1G 1_555 1_555
O2G C1G 1_555 1_555
C1G C2G 1_555 1_555
C2G C3G 1_555 1_555
C3G C4 1_555 1_555
H1G C3G 1_555 1_555
C4G C3 1_555 1_555
H2G C4G 1_555 1_555
Zn1A N3 1_555 1_555
N1A Zn1A 1_555 1_555
N2A N3A 1_555 1_555
N3A C5A 1_555 1_555
C5A N1A 1_555 1_555
H3A C5A 1_555 1_555
C6A N1A 1_555 1_555
H4A C6A 1_555 1_555
Zn1B N3A 1_555 1_555
Zn1G O1G 1_555 1_555
Zn1I N2 1_555 1_555
Zn1J N2A 1_555 1_555
O1A Zn1A 1_555 1_555
O2A Zn1A 1_555 1_555
N2H Zn1A 1_555 1_555
N2K Zn1 1_555 1_555
N3C Zn1 1_555 1_555
N2 C6 1_555 1_555
O2G Zn1G 1_555 1_555
C2G C4G 1_555 1_555
N2A C6A 1_555 1_555

#END
