
#######################################################################
#
#                 Cambridge Crystallographic Data Centre
#                                CCDC 
#
#######################################################################
#
# If this CIF has been generated from an entry in the Cambridge 
# Structural Database, then it will include bibliographic, chemical, 
# crystal, experimental, refinement or atomic coordinate data resulting 
# from the CCDC's data processing and validation procedures.
#
#######################################################################

data_QOTBOQ
_symmetry_cell_setting           triclinic
_symmetry_space_group_name_H-M   'P -1'
_symmetry_Int_Tables_number      2
_space_group_name_Hall           '-P 1'
loop_
_symmetry_equiv_pos_site_id
_symmetry_equiv_pos_as_xyz
1 x,y,z
2 -x,-y,-z
_cell_length_a                   6.6480(18)
_cell_length_b                   8.550(2)
_cell_length_c                   11.124(3)
_cell_angle_alpha                70.280(6)
_cell_angle_beta                 79.594(6)
_cell_angle_gamma                76.093(6)
_cell_volume                     574.326
loop_
_atom_site_label
_atom_site_type_symbol
_atom_site_fract_x
_atom_site_fract_y
_atom_site_fract_z
C1 C 0.8969(3) 0.1632(3) 1.1838(2)
O1 O 0.9101(3) 0.1748(2) 1.28759(16)
O2 O 0.9410(3) 0.0181(2) 1.15859(17)
H1 H 0.987(6) -0.062(4) 1.218(3)
C2 C 0.8324(3) 0.3100(3) 1.0709(2)
C3 C 0.7623(3) 0.4707(3) 1.0843(2)
H2 H 0.7559 0.4874 1.1652
C4 C 0.7017(3) 0.6067(3) 0.9777(2)
C5 C 0.6212(3) 0.7776(3) 0.9914(2)
O3 O 0.6028(3) 0.8048(2) 1.09528(16)
O4 O 0.5689(3) 0.8946(2) 0.88572(16)
H3 H 0.517(9) 0.987(5) 0.900(6)
C6 C 0.7037(3) 0.5818(3) 0.86017(19)
H4 H 0.6569 0.6748 0.7889
C7 C 0.7742(3) 0.4206(3) 0.8468(2)
C8 C 0.7564(3) 0.3942(3) 0.7223(2)
O5 O 0.8767(3) 0.2718(2) 0.69021(16)
O6 O 0.6157(3) 0.4978(2) 0.65851(15)
C9 C 0.8409(3) 0.2856(3) 0.9520(2)
H5 H 0.8925 0.1759 0.9430
Ni1 Ni 0.5000 0.5000 0.5000
O7 O 0.7926(3) 0.3786(2) 0.44326(16)
H6 H 0.834(5) 0.319(4) 0.514(3)
H7 H 0.802(7) 0.310(5) 0.404(4)
N1 N 0.3888(3) 0.2726(2) 0.60388(18)
H8 H 0.425(5) 0.243(4) 0.685(2)
H9 H 0.248(4) 0.308(5) 0.613(4)
C10 C 0.4435(3) 0.1326(3) 0.5529(2)
C11 C 0.3167(4) 0.1164(3) 0.4731(2)
H10 H 0.1910 0.1965 0.4544
C12 C 0.6277(4) 0.0158(3) 0.5794(2)
H11 H 0.7157 0.0265 0.6335
C12A C 0.3723(4) -0.0158(3) 0.4206(2)
C10A C 0.5565(3) -0.1326(3) 0.4471(2)
N1A N 0.6112(3) -0.2726(2) 0.39612(18)
H8A H 0.575(5) -0.243(4) 0.315(2)
H9A H 0.752(4) -0.308(5) 0.387(4)
C11A C 0.6833(4) -0.1164(3) 0.5269(2)
H10A H 0.8090 -0.1965 0.5456
H11A H 0.2843 -0.0265 0.3665
C1A C 0.1031(3) 0.8368(3) -0.1838(2)
O1A O 0.0899(3) 0.8252(2) -0.28759(16)
O2A O 0.0590(3) 0.9819(2) -0.15859(17)
H1A H 0.013(6) 1.062(4) -0.218(3)
C2A C 0.1676(3) 0.6900(3) -0.0709(2)
C3A C 0.2377(3) 0.5293(3) -0.0843(2)
H2A H 0.2441 0.5126 -0.1652
C4A C 0.2983(3) 0.3933(3) 0.0223(2)
C5A C 0.3788(3) 0.2224(3) 0.0086(2)
O3A O 0.3972(3) 0.1952(2) -0.09528(16)
O4A O 0.4311(3) 0.1054(2) 0.11428(16)
H3A H 0.483(9) 0.013(5) 0.100(6)
C6A C 0.2963(3) 0.4182(3) 0.13983(19)
H4A H 0.3431 0.3252 0.2111
C7A C 0.2258(3) 0.5794(3) 0.1532(2)
C8A C 0.2436(3) 0.6058(3) 0.2777(2)
O5A O 0.1233(3) 0.7282(2) 0.30979(16)
O6A O 0.3843(3) 0.5022(2) 0.34149(15)
C9A C 0.1591(3) 0.7144(3) 0.0480(2)
H5A H 0.1075 0.8241 0.0570
O7A O 0.2074(3) 0.6214(2) 0.55674(16)
H6A H 0.166(5) 0.681(4) 0.486(3)
H7A H 0.198(7) 0.690(5) 0.596(4)
N1A_2 N 0.6112(3) 0.7274(2) 0.39612(18)
Ni1_2 Ni 0.5000 -0.5000 0.5000
H8A_2 H 0.575(5) 0.757(4) 0.315(2)
H9A_2 H 0.752(4) 0.692(5) 0.387(4)
loop_
_geom_bond_atom_site_label_1
_geom_bond_atom_site_label_2
_geom_bond_site_symmetry_1
_geom_bond_site_symmetry_2
C1 O1 1_555 1_555
O2 C1 1_555 1_555
H1 O2 1_555 1_555
C2 C1 1_555 1_555
C3 C2 1_555 1_555
H2 C3 1_555 1_555
C4 C3 1_555 1_555
C5 C4 1_555 1_555
O3 C5 1_555 1_555
O4 C5 1_555 1_555
H3 O4 1_555 1_555
C6 C4 1_555 1_555
H4 C6 1_555 1_555
C7 C6 1_555 1_555
C8 C7 1_555 1_555
O5 C8 1_555 1_555
O6 C8 1_555 1_555
C9 C2 1_555 1_555
H5 C9 1_555 1_555
Ni1 O6 1_555 1_555
O7 Ni1 1_555 1_555
H6 O7 1_555 1_555
H7 O7 1_555 1_555
N1 Ni1 1_555 1_555
H8 N1 1_555 1_555
H9 N1 1_555 1_555
C10 N1 1_555 1_555
C11 C10 1_555 1_555
H10 C11 1_555 1_555
C12 C10 1_555 1_555
H11 C12 1_555 1_555
C12A C11 1_555 1_555
C10A C12A 1_555 1_555
N1A C10A 1_555 1_555
H8A N1A 1_555 1_555
H9A N1A 1_555 1_555
C11A C12 1_555 1_555
H10A C11A 1_555 1_555
H11A C12A 1_555 1_555
C1A O1A 1_555 1_555
O2A C1A 1_555 1_555
H1A O2A 1_555 1_555
C2A C1A 1_555 1_555
C3A C2A 1_555 1_555
H2A C3A 1_555 1_555
C4A C3A 1_555 1_555
C5A C4A 1_555 1_555
O3A C5A 1_555 1_555
O4A C5A 1_555 1_555
H3A O4A 1_555 1_555
C6A C4A 1_555 1_555
H4A C6A 1_555 1_555
C7A C6A 1_555 1_555
C8A C7A 1_555 1_555
O5A C8A 1_555 1_555
O6A Ni1 1_555 1_555
C9A C2A 1_555 1_555
H5A C9A 1_555 1_555
O7A Ni1 1_555 1_555
H6A O7A 1_555 1_555
H7A O7A 1_555 1_555
N1A_2 Ni1 1_555 1_555
Ni1_2 N1A 1_555 1_555
H8A_2 N1A_2 1_555 1_555
H9A_2 N1A_2 1_555 1_555
C7 C9 1_555 1_555
C10A C11A 1_555 1_555
C7A C9A 1_555 1_555
C8A O6A 1_555 1_555

#END
