
#######################################################################
#
#                 Cambridge Crystallographic Data Centre
#                                CCDC 
#
#######################################################################
#
# If this CIF has been generated from an entry in the Cambridge 
# Structural Database, then it will include bibliographic, chemical, 
# crystal, experimental, refinement or atomic coordinate data resulting 
# from the CCDC's data processing and validation procedures.
#
#######################################################################

data_QOTCIM
_symmetry_cell_setting           orthorhombic
_symmetry_space_group_name_H-M   'P 21 21 21'
_symmetry_Int_Tables_number      19
_space_group_name_Hall           'P 2ac 2ab'
loop_
_symmetry_equiv_pos_site_id
_symmetry_equiv_pos_as_xyz
1 x,y,z
2 1/2-x,-y,1/2+z
3 1/2+x,1/2-y,-z
4 -x,1/2+y,1/2-z
_cell_length_a                   16.9510(1)
_cell_length_b                   19.8020(1)
_cell_length_c                   20.0230(1)
_cell_angle_alpha                90
_cell_angle_beta                 90
_cell_angle_gamma                90
_cell_volume                     6720.99
loop_
_atom_site_label
_atom_site_type_symbol
_atom_site_fract_x
_atom_site_fract_y
_atom_site_fract_z
Sn1 Sn 0.116834(10) -0.117430(8) 0.335922(8)
Sn2 Sn -0.126058(10) 0.070099(8) 0.410319(8)
Sn3 Sn 0.157941(10) 0.073297(8) 0.601805(8)
Sn4 Sn 0.395960(10) -0.304040(8) 0.308030(8)
Se1 Se 0.033810(14) -0.022542(12) 0.482491(11)
Se2 Se 0.258560(14) -0.190640(12) 0.218370(11)
O1 O 0.04981(11) -0.04314(9) 0.40437(8)
O2 O 0.10436(11) 0.02862(9) 0.50721(8)
O3 O -0.05122(11) 0.01899(9) 0.48474(9)
O4 O 0.02725(12) -0.08816(9) 0.52969(9)
O5 O 0.28295(11) -0.11397(8) 0.19376(8)
O6 O 0.33120(11) -0.21660(9) 0.26588(9)
O7 O 0.17771(10) -0.18649(9) 0.26304(9)
O8 O 0.24493(12) -0.24006(9) 0.15488(9)
O9 O -0.21290(12) 0.12998(9) 0.34057(10)
O10 O 0.46826(12) -0.39288(10) 0.34922(10)
C1 C 0.04476(15) -0.20001(12) 0.36407(12)
C2 C 0.00953(17) -0.23970(13) 0.31555(13)
H1 H 0.0189 -0.2304 0.2697
C3 C -0.03947(18) -0.29316(14) 0.33343(14)
H2 H -0.0640 -0.3197 0.2998
C4 C -0.05242(16) -0.30766(14) 0.40011(13)
H3 H -0.0860 -0.3440 0.4124
C5 C -0.01599(17) -0.26867(13) 0.44924(13)
H4 H -0.0241 -0.2788 0.4951
C6 C 0.03212(16) -0.21498(13) 0.43114(12)
H5 H 0.0566 -0.1883 0.4647
C7 C 0.22016(15) -0.10185(13) 0.39263(12)
C8 C 0.25053(17) -0.15612(14) 0.42789(13)
H6 H 0.2260 -0.1991 0.4246
C9 C 0.31651(18) -0.14814(15) 0.46802(14)
H7 H 0.3368 -0.1855 0.4923
C10 C 0.35275(17) -0.08563(15) 0.47264(14)
H8 H 0.3983 -0.0803 0.4998
C11 C 0.32296(18) -0.03108(15) 0.43792(15)
H9 H 0.3476 0.0119 0.4416
C12 C 0.25671(17) -0.03913(14) 0.39752(14)
H10 H 0.2365 -0.0017 0.3733
C13 C 0.07600(15) -0.05578(12) 0.25713(12)
C14 C 0.12646(16) -0.01461(13) 0.22009(13)
H11 H 0.1810 -0.0131 0.2309
C15 C 0.09786(17) 0.02415(15) 0.16751(15)
H12 H 0.1327 0.0523 0.1428
C16 C 0.01864(19) 0.02169(15) 0.15128(14)
H13 H -0.0008 0.0473 0.1147
C17 C -0.03241(18) -0.01812(16) 0.18829(15)
H14 H -0.0871 -0.0189 0.1779
C18 C -0.00343(17) -0.05709(14) 0.24087(13)
H15 H -0.0385 -0.0848 0.2658
C19 C -0.15839(16) -0.01990(13) 0.35869(12)
C20 C -0.14343(16) -0.08314(13) 0.38674(14)
H16 H -0.1159 -0.0858 0.4280
C21 C -0.16795(19) -0.14247(15) 0.35555(16)
H17 H -0.1567 -0.1850 0.3753
C22 C -0.20849(19) -0.13912(16) 0.29609(17)
H18 H -0.2255 -0.1794 0.2748
C23 C -0.22457(19) -0.07699(17) 0.26724(15)
H19 H -0.2531 -0.0748 0.2264
C24 C -0.19927(17) -0.01814(15) 0.29772(13)
H20 H -0.2097 0.0241 0.2771
C25 C -0.20648(16) 0.09408(13) 0.48830(13)
C26 C -0.23976(17) 0.15799(13) 0.49723(13)
H21 H -0.2243 0.1941 0.4689
C27 C -0.29514(18) 0.16925(15) 0.54697(15)
H22 H -0.3167 0.2131 0.5529
C28 C -0.3191(2) 0.11697(16) 0.58788(16)
H23 H -0.3570 0.1247 0.6221
C29 C -0.2876(2) 0.05323(17) 0.57863(18)
H24 H -0.3047 0.0168 0.6060
C30 C -0.2310(2) 0.04206(15) 0.52954(16)
H25 H -0.2090 -0.0017 0.5243
C31 C -0.03709(16) 0.13812(13) 0.37851(12)
C32 C 0.03238(17) 0.11348(14) 0.35012(13)
H26 H 0.0383 0.0663 0.3431
C33 C 0.09335(18) 0.15727(16) 0.33184(14)
C34 C 0.08421(18) 0.22628(16) 0.34160(14)
H27 H 0.1254 0.2563 0.3293
C35 C 0.0153(2) 0.25156(16) 0.36922(15)
H28 H 0.0093 0.2988 0.3757
C36 C 0.1552(2) -0.03137(15) 0.71593(15)
H29 H 0.1323 0.0046 0.7406
C37 C 0.17342(16) -0.02235(13) 0.64856(13)
C38 C 0.20639(17) -0.07606(14) 0.61357(16)
H30 H 0.2177 -0.0712 0.5673
C39 C 0.2229(2) -0.13667(16) 0.6455(2)
H31 H 0.2469 -0.1725 0.6214
C40 C 0.2047(3) -0.14490(18) 0.7118(2)
H32 H 0.2158 -0.1865 0.7334
C41 C 0.1704(3) -0.09277(17) 0.74706(18)
H33 H 0.1571 -0.0988 0.7928
C42 C -0.04529(18) 0.20776(14) 0.38753(14)
H34 H -0.0925 0.2253 0.4063
C43 C 0.24683(16) 0.11027(13) 0.53668(12)
C44 C 0.22825(18) 0.13229(13) 0.47264(13)
H35 H 0.1748 0.1325 0.4584
C45 C 0.2873(2) 0.15415(15) 0.42910(14)
H36 H 0.2737 0.1697 0.3857
C46 C 0.36526(19) 0.15323(14) 0.44877(15)
H37 H 0.4055 0.1669 0.4186
C47 C 0.38471(19) 0.13218(14) 0.51315(14)
H38 H 0.4382 0.1318 0.5272
C48 C 0.32561(17) 0.11176(15) 0.55668(14)
H39 H 0.3391 0.0986 0.6009
C49 C 0.05149(15) 0.12643(13) 0.61984(13)
C50 C 0.01035(17) 0.15590(13) 0.56707(13)
H40 H 0.0317 0.1544 0.5232
C51 C -0.06183(18) 0.18752(15) 0.57830(15)
H41 H -0.0893 0.2078 0.5421
C52 C -0.09380(18) 0.18952(16) 0.64202(16)
H42 H -0.1436 0.2102 0.6494
C53 C -0.05277(19) 0.16120(16) 0.69484(16)
H43 H -0.0742 0.1632 0.7386
C54 C 0.01952(17) 0.12984(14) 0.68430(13)
H44 H 0.0473 0.1107 0.7209
C55 C 0.40559(15) -0.35133(13) 0.21294(13)
C56 C 0.42426(16) -0.31455(14) 0.15583(13)
H45 H 0.4363 -0.2678 0.1593
C57 C 0.42530(18) -0.34589(17) 0.09363(15)
H46 H 0.4383 -0.3204 0.0549
C58 C 0.4077(2) -0.41332(18) 0.08773(17)
H47 H 0.4081 -0.4343 0.0451
C59 C 0.3893(2) -0.45078(17) 0.14411(18)
H48 H 0.3772 -0.4974 0.1400
C60 C 0.38850(19) -0.41998(15) 0.20696(15)
H49 H 0.3763 -0.4458 0.2456
C61 C 0.48016(15) -0.23448(13) 0.34630(12)
C62 C 0.46128(17) -0.16678(14) 0.35286(13)
H50 H 0.4095 -0.1518 0.3423
C63 C 0.51740(18) -0.12031(15) 0.37476(14)
H51 H 0.5036 -0.0740 0.3792
C64 C 0.59304(19) -0.14133(15) 0.38994(15)
H52 H 0.6316 -0.1094 0.4037
C65 C 0.61223(18) -0.20883(15) 0.38504(16)
H53 H 0.6639 -0.2236 0.3961
C66 C 0.55616(18) -0.25524(15) 0.36399(16)
H54 H 0.5696 -0.3018 0.3616
C67 C 0.29818(16) -0.33385(13) 0.36641(13)
C68 C 0.22497(17) -0.34328(14) 0.33579(14)
H55 H 0.2202 -0.3383 0.2888
C69 C 0.15883(19) -0.35990(15) 0.37365(15)
H56 H 0.1094 -0.3665 0.3523
C70 C 0.16489(19) -0.36678(16) 0.44157(15)
H57 H 0.1196 -0.3777 0.4673
C71 C 0.23700(19) -0.35778(16) 0.47263(14)
H58 H 0.2411 -0.3628 0.5197
C72 C 0.30343(18) -0.34141(14) 0.43558(14)
H59 H 0.3527 -0.3353 0.4574
H60 H -0.2623 0.1195 0.3606
H61 H -0.2130(19) 0.1735(9) 0.3410(15)
H62 H 0.461(3) -0.4397(11) 0.340(2)
H63 H 0.483(3) -0.389(2) 0.3899(12)
Sn3A Sn 0.342059(10) -0.073297(8) 0.101805(8)
O5A O 0.21705(11) 0.11397(8) 0.69376(8)
O11 O 0.1035(3) 0.5105(2) 0.8608(2)
H64 H 0.087(4) 0.546(2) 0.837(3)
H65 H 0.103(6) 0.518(4) 0.9038(13)
loop_
_geom_bond_atom_site_label_1
_geom_bond_atom_site_label_2
_geom_bond_site_symmetry_1
_geom_bond_site_symmetry_2
Sn1 O1 1_555 1_555
Sn2 O3 1_555 1_555
Sn3 O2 1_555 1_555
Sn4 O6 1_555 1_555
Se1 O1 1_555 1_555
Se2 O5 1_555 1_555
O2 Se1 1_555 1_555
O3 Se1 1_555 1_555
O4 Se1 1_555 1_555
O5 Sn3A 1_555 1_555
O6 Se2 1_555 1_555
O7 Sn1 1_555 1_555
O8 Se2 1_555 1_555
O9 Sn2 1_555 1_555
O10 Sn4 1_555 1_555
O11 H64 1_555 1_555
C1 Sn1 1_555 1_555
C2 C1 1_555 1_555
H1 C2 1_555 1_555
C3 C2 1_555 1_555
H2 C3 1_555 1_555
C4 C3 1_555 1_555
H3 C4 1_555 1_555
C5 C4 1_555 1_555
H4 C5 1_555 1_555
C6 C1 1_555 1_555
H5 C6 1_555 1_555
C7 Sn1 1_555 1_555
C8 C7 1_555 1_555
H6 C8 1_555 1_555
C9 C8 1_555 1_555
H7 C9 1_555 1_555
C10 C9 1_555 1_555
H8 C10 1_555 1_555
C11 C10 1_555 1_555
H9 C11 1_555 1_555
C12 C7 1_555 1_555
H10 C12 1_555 1_555
C13 Sn1 1_555 1_555
C14 C13 1_555 1_555
H11 C14 1_555 1_555
C15 C14 1_555 1_555
H12 C15 1_555 1_555
C16 C15 1_555 1_555
H13 C16 1_555 1_555
C17 C16 1_555 1_555
H14 C17 1_555 1_555
C18 C13 1_555 1_555
H15 C18 1_555 1_555
C19 Sn2 1_555 1_555
C20 C19 1_555 1_555
H16 C20 1_555 1_555
C21 C20 1_555 1_555
H17 C21 1_555 1_555
C22 C21 1_555 1_555
H18 C22 1_555 1_555
C23 C22 1_555 1_555
H19 C23 1_555 1_555
C24 C19 1_555 1_555
H20 C24 1_555 1_555
C25 Sn2 1_555 1_555
C26 C25 1_555 1_555
H21 C26 1_555 1_555
C27 C26 1_555 1_555
H22 C27 1_555 1_555
C28 C27 1_555 1_555
H23 C28 1_555 1_555
C29 C28 1_555 1_555
H24 C29 1_555 1_555
C30 C25 1_555 1_555
H25 C30 1_555 1_555
C31 Sn2 1_555 1_555
C32 C31 1_555 1_555
H26 C32 1_555 1_555
C33 C32 1_555 1_555
C34 C33 1_555 1_555
H27 C34 1_555 1_555
C35 C34 1_555 1_555
H28 C35 1_555 1_555
C36 H29 1_555 1_555
C37 Sn3 1_555 1_555
C38 C37 1_555 1_555
H30 C38 1_555 1_555
C39 C38 1_555 1_555
H31 C39 1_555 1_555
C40 C39 1_555 1_555
H32 C40 1_555 1_555
C41 C36 1_555 1_555
H33 C41 1_555 1_555
C42 C31 1_555 1_555
H34 C42 1_555 1_555
C43 Sn3 1_555 1_555
C44 C43 1_555 1_555
H35 C44 1_555 1_555
C45 C44 1_555 1_555
H36 C45 1_555 1_555
C46 C45 1_555 1_555
H37 C46 1_555 1_555
C47 C46 1_555 1_555
H38 C47 1_555 1_555
C48 C43 1_555 1_555
H39 C48 1_555 1_555
C49 Sn3 1_555 1_555
C50 C49 1_555 1_555
H40 C50 1_555 1_555
C51 C50 1_555 1_555
H41 C51 1_555 1_555
C52 C51 1_555 1_555
H42 C52 1_555 1_555
C53 C52 1_555 1_555
H43 C53 1_555 1_555
C54 C49 1_555 1_555
H44 C54 1_555 1_555
C55 Sn4 1_555 1_555
C56 C55 1_555 1_555
H45 C56 1_555 1_555
C57 C56 1_555 1_555
H46 C57 1_555 1_555
C58 C57 1_555 1_555
H47 C58 1_555 1_555
C59 C58 1_555 1_555
H48 C59 1_555 1_555
C60 C55 1_555 1_555
H49 C60 1_555 1_555
C61 Sn4 1_555 1_555
C62 C61 1_555 1_555
H50 C62 1_555 1_555
C63 C62 1_555 1_555
H51 C63 1_555 1_555
C64 C63 1_555 1_555
H52 C64 1_555 1_555
C65 C64 1_555 1_555
H53 C65 1_555 1_555
C66 C61 1_555 1_555
H54 C66 1_555 1_555
C67 Sn4 1_555 1_555
C68 C67 1_555 1_555
H55 C68 1_555 1_555
C69 C68 1_555 1_555
H56 C69 1_555 1_555
C70 C69 1_555 1_555
H57 C70 1_555 1_555
C71 C70 1_555 1_555
H58 C71 1_555 1_555
C72 C67 1_555 1_555
H59 C72 1_555 1_555
H60 O9 1_555 1_555
H61 O9 1_555 1_555
H62 O10 1_555 1_555
H63 O10 1_555 1_555
H65 O11 1_555 1_555
O5A Sn3 1_555 1_555
Se2 O7 1_555 1_555
C5 C6 1_555 1_555
C11 C12 1_555 1_555
C17 C18 1_555 1_555
C23 C24 1_555 1_555
C29 C30 1_555 1_555
C35 C42 1_555 1_555
C36 C37 1_555 1_555
C40 C41 1_555 1_555
C47 C48 1_555 1_555
C53 C54 1_555 1_555
C59 C60 1_555 1_555
C65 C66 1_555 1_555
C71 C72 1_555 1_555

#END
