
#######################################################################
#
#                 Cambridge Crystallographic Data Centre
#                                CCDC 
#
#######################################################################
#
# If this CIF has been generated from an entry in the Cambridge 
# Structural Database, then it will include bibliographic, chemical, 
# crystal, experimental, refinement or atomic coordinate data resulting 
# from the CCDC's data processing and validation procedures.
#
#######################################################################

data_QOTDUZ
_symmetry_cell_setting           monoclinic
_symmetry_space_group_name_H-M   'P 21/c'
_symmetry_Int_Tables_number      14
_space_group_name_Hall           '-P 2ybc'
loop_
_symmetry_equiv_pos_site_id
_symmetry_equiv_pos_as_xyz
1 x,y,z
2 -x,1/2+y,1/2-z
3 -x,-y,-z
4 x,1/2-y,1/2+z
_cell_length_a                   5.5362(6)
_cell_length_b                   18.135(4)
_cell_length_c                   7.915(2)
_cell_angle_alpha                90
_cell_angle_beta                 95.013(17)
_cell_angle_gamma                90
_cell_volume                     791.618
loop_
_atom_site_label
_atom_site_type_symbol
_atom_site_fract_x
_atom_site_fract_y
_atom_site_fract_z
Ca1 Ca 0.11876(6) 0.440675(17) 0.83207(4)
P1 P 0.35589(7) 0.59273(2) 0.86346(5)
C1 C 0.2525(3) 0.68122(9) 0.7825(2)
H1 H 0.2355 0.7139 0.8778
H2 H 0.3763 0.7019 0.7171
C2 C 0.0137(3) 0.68026(9) 0.6719(2)
H3 H 0.0366 0.6549 0.5666
H4 H -0.1055 0.6530 0.7295
C3 C -0.0816(3) 0.75690(9) 0.6322(2)
O1 O 0.1722(2) 0.55956(6) 0.97385(15)
O2 O 0.3825(2) 0.53901(6) 0.71724(15)
O3 O 0.5996(2) 0.61070(6) 0.96292(15)
O4 O 0.0136(2) 0.81274(7) 0.69354(17)
O5 O -0.2771(3) 0.75802(7) 0.52584(19)
H5 H -0.3182 0.8009 0.5067
O6 O -0.2031(3) 0.47459(9) 0.62678(18)
O7 O 0.3740(3) 0.37920(10) 0.6422(2)
H6 H -0.304(5) 0.5011(15) 0.660(3)
H7 H -0.237(5) 0.4700(16) 0.528(4)
H8 H 0.508(6) 0.3912(17) 0.643(4)
H9 H 0.380(5) 0.3392(19) 0.616(4)
Ca1B Ca -0.11876(6) 0.559325(17) 1.16793(4)
Ca1B_2 Ca 0.88124(6) 0.559325(17) 1.16793(4)
Ca1A Ca -0.11876(6) 0.940675(17) 0.66793(4)
O1B O -0.1722(2) 0.44044(6) 1.02615(15)
O3B O 0.4004(2) 0.38930(6) 1.03708(15)
O4A O -0.0136(2) 0.31274(7) 0.80646(17)
loop_
_geom_bond_atom_site_label_1
_geom_bond_atom_site_label_2
_geom_bond_site_symmetry_1
_geom_bond_site_symmetry_2
Ca1 O1 1_555 1_555
P1 C1 1_555 1_555
C1 H1 1_555 1_555
H2 C1 1_555 1_555
C2 C1 1_555 1_555
H3 C2 1_555 1_555
H4 C2 1_555 1_555
C3 C2 1_555 1_555
O1 P1 1_555 1_555
O2 Ca1 1_555 1_555
O3 P1 1_555 1_555
O4 C3 1_555 1_555
O5 C3 1_555 1_555
H5 O5 1_555 1_555
O6 Ca1 1_555 1_555
O7 Ca1 1_555 1_555
H6 O6 1_555 1_555
H7 O6 1_555 1_555
H8 O7 1_555 1_555
H9 O7 1_555 1_555
Ca1B O1 1_555 1_555
Ca1B_2 O3 1_555 1_555
Ca1A O4 1_555 1_555
O1B Ca1 1_555 1_555
O3B Ca1 1_555 1_555
O4A Ca1 1_555 1_555
P1 O2 1_555 1_555
Ca1B O1B 1_555 1_555

#END
