
#######################################################################
#
#                 Cambridge Crystallographic Data Centre
#                                CCDC 
#
#######################################################################
#
# If this CIF has been generated from an entry in the Cambridge 
# Structural Database, then it will include bibliographic, chemical, 
# crystal, experimental, refinement or atomic coordinate data resulting 
# from the CCDC's data processing and validation procedures.
#
#######################################################################

data_QOTFAH
_symmetry_cell_setting           orthorhombic
_symmetry_space_group_name_H-M   'P b c n'
_symmetry_Int_Tables_number      60
_space_group_name_Hall           '-P 2n 2ab'
loop_
_symmetry_equiv_pos_site_id
_symmetry_equiv_pos_as_xyz
1 x,y,z
2 1/2-x,1/2-y,1/2+z
3 -x,y,1/2-z
4 1/2+x,1/2-y,-z
5 -x,-y,-z
6 1/2+x,1/2+y,1/2-z
7 x,-y,1/2+z
8 1/2-x,1/2+y,z
_cell_length_a                   11.286(3)
_cell_length_b                   9.1194(17)
_cell_length_c                   11.107(3)
_cell_angle_alpha                90
_cell_angle_beta                 90
_cell_angle_gamma                90
_cell_volume                     1143.15
loop_
_atom_site_label
_atom_site_type_symbol
_atom_site_fract_x
_atom_site_fract_y
_atom_site_fract_z
Sr1 Sr 0.5000 0.99152(3) -0.2500
C1 C 0.43798(15) 0.6758(2) -0.07208(15)
C2 C 0.47512(16) 0.5714(2) 0.02904(17)
H1 H 0.5388 0.6181 0.0752
C3 C 0.37259(16) 0.5383(2) 0.11466(17)
H2 H 0.3090 0.4928 0.0693
H3 H 0.3993 0.4682 0.1745
C4 C 0.32454(16) 0.6710(2) 0.17813(15)
O1 O 0.50788(11) 0.77220(16) -0.10576(13)
O2 O 0.33790(12) 0.65320(16) -0.12059(13)
O3 O 0.37320(13) 0.79027(16) 0.17592(14)
O4 O 0.22603(13) 0.64489(17) 0.23804(12)
O5 O 0.38451(16) 1.0609(2) -0.06459(15)
H4 H 0.412(3) 1.120(4) -0.023(3)
H5 H 0.319(3) 1.088(3) -0.079(3)
H6 H 0.212(3) 0.724(3) 0.281(2)
Sr1D Sr 0.5000 1.00848(3) 0.2500
Sr1A Sr 0.0000 0.50848(3) 0.2500
Sr1D_2 Sr 0.5000 0.00848(3) 0.2500
Sr1_2 Sr 0.5000 -0.00848(3) -0.2500
Sr1E Sr 1.0000 0.49152(3) -0.2500
C1D C 0.56202(15) 0.3242(2) 0.07208(15)
C2D C 0.52488(16) 0.4286(2) -0.02904(17)
H1D H 0.4612 0.3819 -0.0752
C3D C 0.62741(16) 0.4617(2) -0.11466(17)
H2D H 0.6910 0.5072 -0.0693
H3D H 0.6007 0.5318 -0.1745
C4D C 0.67546(16) 0.3290(2) -0.17813(15)
O1D O 0.49212(11) 0.22780(16) 0.10576(13)
O1B O 0.49212(11) 0.77220(16) -0.39424(13)
O2D O 0.66210(12) 0.34680(16) 0.12059(13)
O3D O 0.62680(13) 0.20973(16) -0.17592(14)
O3D_2 O 0.62680(13) 1.20973(16) -0.17592(14)
O3F O 0.37320(13) 1.20973(16) -0.32408(14)
O4D O 0.77397(13) 0.35511(17) -0.23804(12)
O4A O 0.27397(13) 0.85511(17) -0.26196(12)
O4C O 0.72603(13) 0.85511(17) -0.23804(12)
O5B O 0.61549(16) 1.0609(2) -0.43541(15)
H4B H 0.588(3) 1.120(4) -0.477(3)
H5B H 0.681(3) 1.088(3) -0.421(3)
H6D H 0.788(3) 0.276(3) -0.281(2)
H6A H 0.288(3) 0.776(3) -0.219(2)
H6C H 0.712(3) 0.776(3) -0.281(2)
loop_
_geom_bond_atom_site_label_1
_geom_bond_atom_site_label_2
_geom_bond_site_symmetry_1
_geom_bond_site_symmetry_2
Sr1 O1 1_555 1_555
C1 C2 1_555 1_555
C2 H1 1_555 1_555
C3 C2 1_555 1_555
H2 C3 1_555 1_555
H3 C3 1_555 1_555
C4 C3 1_555 1_555
O1 C1 1_555 1_555
O2 C1 1_555 1_555
O3 C4 1_555 1_555
O4 C4 1_555 1_555
O5 Sr1 1_555 1_555
H4 O5 1_555 1_555
H5 O5 1_555 1_555
H6 O4 1_555 1_555
Sr1D O3 1_555 1_555
Sr1A O4 1_555 1_555
Sr1D_2 O1D 1_555 1_555
Sr1_2 O3D 1_555 1_555
Sr1E O4D 1_555 1_555
C1D C2D 1_555 1_555
C2D C2 1_555 1_555
H1D C2D 1_555 1_555
C3D C2D 1_555 1_555
H2D C3D 1_555 1_555
H3D C3D 1_555 1_555
C4D C3D 1_555 1_555
O1D C1D 1_555 1_555
O1B Sr1 1_555 1_555
O2D C1D 1_555 1_555
O3D C4D 1_555 1_555
O3D_2 Sr1 1_555 1_555
O3F Sr1 1_555 1_555
O4D C4D 1_555 1_555
O4A Sr1 1_555 1_555
O4C Sr1 1_555 1_555
O5B Sr1 1_555 1_555
H4B O5B 1_555 1_555
H5B O5B 1_555 1_555
H6D O4D 1_555 1_555
H6A O4A 1_555 1_555
H6C O4C 1_555 1_555

#END
