
#######################################################################
#
#                 Cambridge Crystallographic Data Centre
#                                CCDC 
#
#######################################################################
#
# If this CIF has been generated from an entry in the Cambridge 
# Structural Database, then it will include bibliographic, chemical, 
# crystal, experimental, refinement or atomic coordinate data resulting 
# from the CCDC's data processing and validation procedures.
#
#######################################################################

data_QOTHOW
_symmetry_cell_setting           monoclinic
_symmetry_space_group_name_H-M   'P 21/n'
_symmetry_Int_Tables_number      14
_space_group_name_Hall           '-P 2yn'
loop_
_symmetry_equiv_pos_site_id
_symmetry_equiv_pos_as_xyz
1 x,y,z
2 1/2+x,1/2-y,1/2+z
3 -x,-y,-z
4 1/2-x,1/2+y,1/2-z
_cell_length_a                   10.6525(7)
_cell_length_b                   12.3426(8)
_cell_length_c                   14.5551(10)
_cell_angle_alpha                90
_cell_angle_beta                 104.2920(10)
_cell_angle_gamma                90
_cell_volume                     1854.47
loop_
_atom_site_label
_atom_site_type_symbol
_atom_site_fract_x
_atom_site_fract_y
_atom_site_fract_z
Cd1 Cd -0.37472(4) 0.21697(3) 0.06565(3)
O1 O -0.1816(3) 0.1198(3) 0.1512(3)
O2 O -0.3190(4) 0.0275(3) 0.0447(3)
O3 O -0.1439(4) -0.0504(4) 0.1277(3)
O4 O -0.2941(3) 0.3838(3) 0.1581(2)
O5 O -0.4885(3) 0.3912(3) 0.0658(2)
O6 O -0.4022(3) 0.5353(3) 0.1440(3)
O7 O -0.5557(4) 0.1709(4) -0.0507(3)
H1 H -0.5922(51) 0.1173(44) -0.0438(37)
N1 N -0.2764(4) 0.2958(4) -0.0397(3)
N2 N -0.3356(5) 0.3804(4) -0.0939(3)
H2 H -0.4045(45) 0.4023(39) -0.0900(33)
N3 N 0.0489(4) 0.3360(3) -0.3091(3)
N4 N 0.1313(4) 0.3648(4) -0.2246(3)
H3 H 0.2108(43) 0.3842(35) -0.2231(30)
N5 N -0.2117(5) 0.0295(4) 0.1100(3)
N6 N -0.3956(4) 0.4381(4) 0.1235(3)
C1 C -0.2729(5) 0.4123(4) -0.1581(3)
C2 C -0.1637(5) 0.3473(4) -0.1447(3)
C3 C -0.1708(4) 0.2760(5) -0.0711(3)
C4 C -0.0811(5) 0.1837(4) -0.0329(4)
H4 H -0.1090(5) 0.1484(4) 0.0175(4)
H5 H -0.0815(5) 0.1325(4) -0.0826(4)
H6 H 0.0050(5) 0.2115(4) -0.0091(4)
C5 C -0.3232(5) 0.4992(5) -0.2279(4)
H7 H -0.4019(5) 0.5278(5) -0.2167(4)
H8 H -0.2601(5) 0.5561(5) -0.2215(4)
H9 H -0.3402(5) 0.4697(5) -0.2908(4)
C6 C -0.0674(5) 0.3266(4) -0.2904(4)
C7 C -0.0601(5) 0.3520(4) -0.1956(3)
C8 C 0.0694(5) 0.3755(4) -0.1557(3)
C9 C 0.1383(5) 0.4099(5) -0.0569(4)
H10 H 0.2289(5) 0.4196(5) -0.0528(4)
H11 H 0.1272(5) 0.3554(5) -0.0125(4)
H12 H 0.1019(5) 0.4771(5) -0.0424(4)
C10 C -0.1850(5) 0.2999(5) -0.3673(4)
H13 H -0.1595(5) 0.2866(5) -0.4252(4)
H14 H -0.2442(5) 0.3598(5) -0.3760(4)
H15 H -0.2264(5) 0.2364(5) -0.3504(4)
C11 C -0.5725(5) 0.1892(4) -0.1507(4)
H16 H -0.5603(5) 0.2651(4) -0.1601(4)
H17 H -0.6596(5) 0.1709(4) -0.1833(4)
C12 C -0.4810(6) 0.1255(5) -0.1943(4)
H18 H -0.5031(6) 0.0499(5) -0.1956(4)
H19 H -0.3946(6) 0.1338(5) -0.1555(4)
C13 C -0.4848(5) 0.1631(5) -0.2930(4)
H20 H -0.4251(5) 0.1216(5) -0.3187(4)
H21 H -0.5709(5) 0.1537(5) -0.3320(4)
H22 H -0.4615(5) 0.2384(5) -0.2915(4)
N3A N -0.4511(4) 0.1640(3) 0.1909(3)
Cd1A Cd 0.12528(4) 0.28303(3) -0.43435(3)
loop_
_geom_bond_atom_site_label_1
_geom_bond_atom_site_label_2
_geom_bond_site_symmetry_1
_geom_bond_site_symmetry_2
Cd1 O1 1_555 1_555
O1 N5 1_555 1_555
O2 Cd1 1_555 1_555
O3 N5 1_555 1_555
O4 Cd1 1_555 1_555
O5 Cd1 1_555 1_555
O6 N6 1_555 1_555
O7 Cd1 1_555 1_555
H1 O7 1_555 1_555
N1 Cd1 1_555 1_555
N2 N1 1_555 1_555
H2 N2 1_555 1_555
N3 N4 1_555 1_555
N4 H3 1_555 1_555
N5 O2 1_555 1_555
N6 O4 1_555 1_555
C1 N2 1_555 1_555
C2 C1 1_555 1_555
C3 N1 1_555 1_555
C4 C3 1_555 1_555
H4 C4 1_555 1_555
H5 C4 1_555 1_555
H6 C4 1_555 1_555
C5 C1 1_555 1_555
H7 C5 1_555 1_555
H8 C5 1_555 1_555
H9 C5 1_555 1_555
C6 N3 1_555 1_555
C7 C2 1_555 1_555
C8 N4 1_555 1_555
C9 C8 1_555 1_555
H10 C9 1_555 1_555
H11 C9 1_555 1_555
H12 C9 1_555 1_555
C10 C6 1_555 1_555
H13 C10 1_555 1_555
H14 C10 1_555 1_555
H15 C10 1_555 1_555
C11 O7 1_555 1_555
H16 C11 1_555 1_555
H17 C11 1_555 1_555
C12 C11 1_555 1_555
H18 C12 1_555 1_555
H19 C12 1_555 1_555
C13 C12 1_555 1_555
H20 C13 1_555 1_555
H21 C13 1_555 1_555
H22 C13 1_555 1_555
N3A Cd1 1_555 1_555
Cd1A N3 1_555 1_555
O5 N6 1_555 1_555
C2 C3 1_555 1_555
C6 C7 1_555 1_555
C7 C8 1_555 1_555

#END
