
#######################################################################
#
#                 Cambridge Crystallographic Data Centre
#                                CCDC 
#
#######################################################################
#
# If this CIF has been generated from an entry in the Cambridge 
# Structural Database, then it will include bibliographic, chemical, 
# crystal, experimental, refinement or atomic coordinate data resulting 
# from the CCDC's data processing and validation procedures.
#
#######################################################################

data_QOTHIQ
_symmetry_cell_setting           monoclinic
_symmetry_space_group_name_H-M   'P 21/c'
_symmetry_Int_Tables_number      14
_space_group_name_Hall           '-P 2ybc'
loop_
_symmetry_equiv_pos_site_id
_symmetry_equiv_pos_as_xyz
1 x,y,z
2 x,1/2-y,1/2+z
3 -x,-y,-z
4 -x,1/2+y,1/2-z
_cell_length_a                   10.0250(7)
_cell_length_b                   19.1106(13)
_cell_length_c                   8.4217(6)
_cell_angle_alpha                90
_cell_angle_beta                 100.4650(10)
_cell_angle_gamma                90
_cell_volume                     1586.62
loop_
_atom_site_label
_atom_site_type_symbol
_atom_site_fract_x
_atom_site_fract_y
_atom_site_fract_z
Ag1 Ag 0.61000(3) 0.17694(2) 0.00358(4)
N1 N 0.3978(3) 0.1532(2) -0.0180(4)
N2 N 0.3444(3) 0.0988(2) -0.1120(4)
H2 H 0.3902(3) 0.0736(2) -0.1748(4)
N3 N -0.1744(3) 0.1616(2) 0.0521(4)
N4 N -0.1096(3) 0.1513(2) 0.2073(4)
H3 H -0.1512(3) 0.1516(2) 0.2935(4)
C1 C 0.2995(4) 0.1766(2) 0.0565(4)
C2 C 0.1816(3) 0.1362(2) 0.0082(4)
C3 C 0.2146(4) 0.0870(2) -0.0996(4)
C4 C 0.1363(4) 0.0281(2) -0.1851(6)
H4 H 0.1907(4) 0.0044(2) -0.2513(6)
H5 H 0.1125(4) -0.0040(2) -0.1072(6)
H6 H 0.0553(4) 0.0455(2) -0.2519(6)
C5 C 0.3248(4) 0.2367(2) 0.1702(5)
H7 H 0.4164(4) 0.2527(2) 0.1770(5)
H8 H 0.2632(4) 0.2741(2) 0.1322(5)
H9 H 0.3111(4) 0.2220(2) 0.2751(5)
C6 C -0.0770(4) 0.1576(2) -0.0371(5)
C7 C 0.0504(3) 0.1451(2) 0.0600(5)
C8 C 0.0244(4) 0.1408(2) 0.2160(5)
C9 C 0.1137(4) 0.1270(3) 0.3746(6)
H10 H 0.0607(4) 0.1278(3) 0.4588(6)
H11 H 0.1554(4) 0.0819(3) 0.3720(6)
H12 H 0.1826(4) 0.1624(3) 0.3951(6)
C10 C -0.1100(4) 0.1677(2) -0.2166(5)
H13 H -0.2056(4) 0.1755(2) -0.2497(5)
H14 H -0.0611(4) 0.2074(2) -0.2464(5)
H15 H -0.0840(4) 0.1266(2) -0.2687(5)
N3_2 N 0.8256(3) 0.1616(2) 0.0521(4)
Ag1_2 Ag -0.39000(3) 0.17694(2) 0.00358(4)
O1 O 0.7050(4) 0.3979(2) -0.0689(5)
O2 O 0.5582(4) 0.3354(2) 0.0233(5)
O3 O 0.6648(4) 0.2931(2) -0.1531(4)
N5 N 0.6425(4) 0.3427(2) -0.0668(4)
O4 O 1.5288(4) 0.0529(2) -0.2849(5)
H1 H 1.5430(4) 0.0841(2) -0.3520(5)
C11 C 1.6106(7) -0.0051(3) -0.2744(8)
H16 H 1.5842(7) -0.0385(3) -0.2008(8)
H17 H 1.6033(7) -0.0260(3) -0.3793(8)
H18 H 1.7028(7) 0.0091(3) -0.2363(8)
loop_
_geom_bond_atom_site_label_1
_geom_bond_atom_site_label_2
_geom_bond_site_symmetry_1
_geom_bond_site_symmetry_2
Ag1 N1 1_555 1_555
O1 N5 1_555 1_555
O2 N5 1_555 1_555
O3 N5 1_555 1_555
O4 H1 1_555 1_555
N1 N2 1_555 1_555
N2 H2 1_555 1_555
N3 N4 1_555 1_555
N4 H3 1_555 1_555
C1 N1 1_555 1_555
C2 C1 1_555 1_555
C3 N2 1_555 1_555
C4 C3 1_555 1_555
H4 C4 1_555 1_555
H5 C4 1_555 1_555
H6 C4 1_555 1_555
C5 C1 1_555 1_555
H7 C5 1_555 1_555
H8 C5 1_555 1_555
H9 C5 1_555 1_555
C6 N3 1_555 1_555
C7 C2 1_555 1_555
C8 N4 1_555 1_555
C9 C8 1_555 1_555
H10 C9 1_555 1_555
H11 C9 1_555 1_555
H12 C9 1_555 1_555
C10 C6 1_555 1_555
H13 C10 1_555 1_555
H14 C10 1_555 1_555
H15 C10 1_555 1_555
C11 O4 1_555 1_555
H16 C11 1_555 1_555
H17 C11 1_555 1_555
H18 C11 1_555 1_555
N3_2 Ag1 1_555 1_555
Ag1_2 N3 1_555 1_555
C2 C3 1_555 1_555
C6 C7 1_555 1_555
C7 C8 1_555 1_555

#END
