
#######################################################################
#
#                 Cambridge Crystallographic Data Centre
#                                CCDC 
#
#######################################################################
#
# If this CIF has been generated from an entry in the Cambridge 
# Structural Database, then it will include bibliographic, chemical, 
# crystal, experimental, refinement or atomic coordinate data resulting 
# from the CCDC's data processing and validation procedures.
#
#######################################################################

data_QOTJAK
_symmetry_cell_setting           tetragonal
_symmetry_space_group_name_H-M   'P 4/m n c'
_symmetry_Int_Tables_number      128
_space_group_name_Hall           '-P 4 2n'
loop_
_symmetry_equiv_pos_site_id
_symmetry_equiv_pos_as_xyz
1 x,y,z
2 -y,x,z
3 y,-x,z
4 1/2+y,1/2+x,1/2-z
5 x,y,-z
6 1/2+x,1/2-y,1/2+z
7 1/2-x,1/2+y,1/2+z
8 1/2+y,1/2+x,1/2+z
9 -x,-y,-z
10 y,-x,-z
11 -y,x,-z
12 1/2-y,1/2-x,1/2+z
13 -x,-y,z
14 1/2-x,1/2+y,1/2-z
15 1/2+x,1/2-y,1/2-z
16 1/2-y,1/2-x,1/2-z
_cell_length_a                   13.3817(8)
_cell_length_b                   13.3817(8)
_cell_length_c                   18.0851(14)
_cell_angle_alpha                90
_cell_angle_beta                 90
_cell_angle_gamma                90
_cell_volume                     3238.5
loop_
_atom_site_label
_atom_site_type_symbol
_atom_site_fract_x
_atom_site_fract_y
_atom_site_fract_z
B1 B -0.1581(7) 0.2169(9) 0.5000
F1 F -0.2583(7) 0.2427(15) 0.5000
F2 F -0.1186(7) 0.2448(8) 0.5626(3)
F3 F -0.1620(14) 0.1105(8) 0.5000
F2D F -0.1186(7) 0.2448(8) 0.4374(3)
Br1 Br -0.4940(12) 0.2739(9) 0.5000
C6 C -0.4983(20) 0.3970(4) 0.5000
C8 C -0.4472(10) 0.4114(16) 0.5000
C8B C -0.5886(16) 0.4472(10) 0.5000
C6A C -0.3970(4) 0.5017(20) 0.5000
Br1B Br -0.7261(9) 0.4940(12) 0.5000
C6B C -0.6030(4) 0.4983(20) 0.5000
Br1A Br -0.2739(9) 0.5060(12) 0.5000
C8A C -0.4114(16) 0.5528(10) 0.5000
C8H C -0.5528(10) 0.5886(16) 0.5000
C6H C -0.5017(20) 0.6030(4) 0.5000
Br1H Br -0.5060(12) 0.7261(9) 0.5000
Cu1 Cu 0.0000 0.0000 0.29068(10)
N1 N -0.1328(4) 0.0680(4) 0.2876(4)
N2 N -0.2054(4) 0.0396(4) 0.3354(4)
H1 H -0.1974(4) -0.0078(4) 0.3702(4)
C1 C -0.1736(5) 0.1398(5) 0.2446(5)
C2 C -0.2738(5) 0.1552(5) 0.2667(4)
C3 C -0.2907(5) 0.0915(5) 0.3253(5)
C4 C -0.1182(6) 0.1908(6) 0.1845(5)
H2 H -0.0512(6) 0.1651(6) 0.1826(5)
H3 H -0.1514(6) 0.1772(6) 0.1385(5)
H4 H -0.1162(6) 0.2616(6) 0.1927(5)
C5 C -0.3795(6) 0.0780(7) 0.3744(5)
H5 H -0.3666(6) 0.0265(7) 0.4101(5)
H6 H -0.3933(6) 0.1397(7) 0.3995(5)
H7 H -0.4360(6) 0.0596(7) 0.3447(5)
O1 O 0.0000 0.0000 0.4156(7)
N1A N -0.0680(4) -0.1328(4) 0.2876(4)
N1B N 0.0680(4) 0.1328(4) 0.2876(4)
N1L N 0.1328(4) -0.0680(4) 0.2876(4)
C2C C -0.3448(5) 0.2262(5) 0.2333(4)
C1C C -0.3602(5) 0.3264(5) 0.2554(5)
C3C C -0.4085(5) 0.2093(5) 0.1747(5)
N2A N -0.0396(4) -0.2054(4) 0.3354(4)
C1A C -0.1398(5) -0.1736(5) 0.2446(5)
N1C N -0.4320(4) 0.3672(4) 0.2124(4)
C4C C -0.3092(6) 0.3818(6) 0.3155(5)
N2C N -0.4604(4) 0.2946(4) 0.1646(4)
C5C C -0.4220(7) 0.1205(6) 0.1256(5)
H1A H 0.0078(4) -0.1974(4) 0.3702(4)
C3A C -0.0915(5) -0.2907(5) 0.3253(5)
C2A C -0.1552(5) -0.2738(5) 0.2667(4)
C4A C -0.1908(6) -0.1182(6) 0.1845(5)
C5A C -0.0780(7) -0.3795(6) 0.3744(5)
C2M C -0.2262(5) -0.3448(5) 0.2333(4)
Cu1C Cu -0.5000 0.5000 0.20932(10)
H1C H -0.5078(4) 0.3026(4) 0.1298(4)
H5A H -0.0265(7) -0.3666(6) 0.4101(5)
H6A H -0.1397(7) -0.3933(6) 0.3995(5)
H7A H -0.0596(7) -0.4360(6) 0.3447(5)
C1M C -0.3264(5) -0.3602(5) 0.2554(5)
C3M C -0.2093(5) -0.4085(5) 0.1747(5)
H2A H -0.1651(6) -0.0512(6) 0.1826(5)
H3A H -0.1772(6) -0.1514(6) 0.1385(5)
H4A H -0.2616(6) -0.1162(6) 0.1927(5)
N1M N -0.3672(4) -0.4320(4) 0.2124(4)
C4M C -0.3818(6) -0.3092(6) 0.3155(5)
N2M N -0.2946(4) -0.4604(4) 0.1646(4)
C5M C -0.1205(6) -0.4220(7) 0.1256(5)
Cu1C_2 Cu -0.5000 -0.5000 0.20932(10)
H1M H -0.3026(4) -0.5078(4) 0.1298(4)
H2C H -0.3349(6) 0.4488(6) 0.3174(5)
H3C H -0.3228(6) 0.3486(6) 0.3615(5)
H4C H -0.2384(6) 0.3838(6) 0.3073(5)
H5C H -0.4735(7) 0.1334(6) 0.0899(5)
H6C H -0.3603(7) 0.1067(6) 0.1005(5)
H7C H -0.4404(7) 0.0640(6) 0.1553(5)
H2M H -0.4488(6) -0.3349(6) 0.3174(5)
H3M H -0.3486(6) -0.3228(6) 0.3615(5)
H4M H -0.3838(6) -0.2384(6) 0.3073(5)
H5M H -0.1334(6) -0.4735(7) 0.0899(5)
H6M H -0.1067(6) -0.3603(7) 0.1005(5)
H7M H -0.0640(6) -0.4404(7) 0.1553(5)
F4? F -0.2558(10) 0.1940(22) 0.5000
F5? F -0.1113(12) 0.1856(14) 0.5610(3)
F6? F -0.1505(19) 0.3219(11) 0.5000
C7? C -0.4096(10) 0.4503(17) 0.5000
H8? H -0.3490(10) 0.4119(17) 0.5000
H9? H -0.6423(10) 0.3995(16) 0.5000
H10? H -0.0184(10) 0.0251(16) 0.4437
loop_
_geom_bond_atom_site_label_1
_geom_bond_atom_site_label_2
_geom_bond_site_symmetry_1
_geom_bond_site_symmetry_2
Cu1 N1 1_555 1_555
N1 N2 1_555 1_555
N2 H1 1_555 1_555
C1 N1 1_555 1_555
C2 C1 1_555 1_555
C3 N2 1_555 1_555
C4 C1 1_555 1_555
H2 C4 1_555 1_555
H3 C4 1_555 1_555
H4 C4 1_555 1_555
C5 C3 1_555 1_555
H5 C5 1_555 1_555
H6 C5 1_555 1_555
H7 C5 1_555 1_555
O1 Cu1 1_555 1_555
B1 F1 1_555 1_555
F2 B1 1_555 1_555
F3 B1 1_555 1_555
Br1 C6 1_555 1_555
C6 C8 1_555 1_555
C8 Br1 1_555 1_555
N1A Cu1 1_555 1_555
N1B Cu1 1_555 1_555
N1L Cu1 1_555 1_555
C2C C2 1_555 1_555
F2D B1 1_555 1_555
C8B C6 1_555 1_555
C6A C8 1_555 1_555
Br1B C8B 1_555 1_555
C6B C8B 1_555 1_555
Br1A C6A 1_555 1_555
C8A C6A 1_555 1_555
C8H C6B 1_555 1_555
C6H C8A 1_555 1_555
Br1H C8H 1_555 1_555
C1C C2C 1_555 1_555
C3C C2C 1_555 1_555
N2A N1A 1_555 1_555
C1A N1A 1_555 1_555
N1C C1C 1_555 1_555
C4C C1C 1_555 1_555
N2C C3C 1_555 1_555
C5C C3C 1_555 1_555
H1A N2A 1_555 1_555
C3A N2A 1_555 1_555
C2A C1A 1_555 1_555
C4A C1A 1_555 1_555
C5A C3A 1_555 1_555
C2M C2A 1_555 1_555
Cu1C N1C 1_555 1_555
H1C N2C 1_555 1_555
H5A C5A 1_555 1_555
H6A C5A 1_555 1_555
H7A C5A 1_555 1_555
C1M C2M 1_555 1_555
C3M C2M 1_555 1_555
H2A C4A 1_555 1_555
H3A C4A 1_555 1_555
H4A C4A 1_555 1_555
N1M C1M 1_555 1_555
C4M C1M 1_555 1_555
N2M C3M 1_555 1_555
C5M C3M 1_555 1_555
Cu1C_2 N1M 1_555 1_555
H1M N2M 1_555 1_555
H2C C4C 1_555 1_555
H3C C4C 1_555 1_555
H4C C4C 1_555 1_555
H5C C5C 1_555 1_555
H6C C5C 1_555 1_555
H7C C5C 1_555 1_555
H2M C4M 1_555 1_555
H3M C4M 1_555 1_555
H4M C4M 1_555 1_555
H5M C5M 1_555 1_555
H6M C5M 1_555 1_555
H7M C5M 1_555 1_555
C2 C3 1_555 1_555
Br1B C6B 1_555 1_555
Br1A C8A 1_555 1_555
C8H C6H 1_555 1_555
C6H Br1H 1_555 1_555
N1C N2C 1_555 1_555
C3A C2A 1_555 1_555
N1M N2M 1_555 1_555

#END
