
#######################################################################
#
#                 Cambridge Crystallographic Data Centre
#                                CCDC 
#
#######################################################################
#
# If this CIF has been generated from an entry in the Cambridge 
# Structural Database, then it will include bibliographic, chemical, 
# crystal, experimental, refinement or atomic coordinate data resulting 
# from the CCDC's data processing and validation procedures.
#
#######################################################################

data_QOTJEO
_symmetry_cell_setting           monoclinic
_symmetry_space_group_name_H-M   'P 21/c'
_symmetry_Int_Tables_number      14
_space_group_name_Hall           '-P 2ybc'
loop_
_symmetry_equiv_pos_site_id
_symmetry_equiv_pos_as_xyz
1 x,y,z
2 x,1/2-y,1/2+z
3 -x,-y,-z
4 -x,1/2+y,1/2-z
_cell_length_a                   13.1636(7)
_cell_length_b                   13.4973(7)
_cell_length_c                   19.1351(10)
_cell_angle_alpha                90
_cell_angle_beta                 105.8410(10)
_cell_angle_gamma                90
_cell_volume                     3270.68
loop_
_atom_site_label
_atom_site_type_symbol
_atom_site_fract_x
_atom_site_fract_y
_atom_site_fract_z
O2 O 0.2790(2) 0.3087(2) 0.06118(13)
O3 O 0.3973(2) 0.2288(2) 0.0193(2)
C21 C 0.3584(3) 0.3032(2) 0.0376(2)
H31 H 0.3928(3) 0.3648(2) 0.0335(2)
O4 O -0.0705(2) 0.4254(2) 0.03857(13)
O5 O -0.0811(2) 0.2934(2) -0.03100(15)
C22 C -0.04211(14) 0.34319(12) 0.02410(9)
H32 H 0.01648(14) 0.31427(12) 0.05955(9)
O6 O 0.42553(14) 0.59947(12) 0.06101(9)
N9 N 0.39309(14) 0.73632(12) -0.00706(9)
H33 H 0.45778(14) 0.74675(12) -0.00551(9)
H34 H 0.34295(14) 0.78669(12) -0.03334(9)
C23 C 0.36528(14) 0.66004(12) 0.02570(9)
H35 H 0.29131(14) 0.65154(12) 0.02099(9)
C24 C 0.5264(9) 0.9635(7) -0.0101(6)
C25 C 0.5753(24) 1.0331(10) 0.0289(8)
C26 C 0.6845(3) 1.0551(2) 0.0611(2)
C27 C 0.7719(6) 1.0085(6) 0.0534(4)
C28 C 0.7724(6) 0.9169(5) 0.0256(4)
C29 C 0.9010(18) 0.9189(14) 0.0266(7)
C30 C 0.8891(10) 0.8293(9) 0.0212(8)
C31 C 0.9827(6) 0.8815(5) 0.0357(4)
C32 C 0.9715(9) 0.9774(8) 0.0468(5)
C24B C 0.4736(9) 1.0365(7) 0.0101(6)
C25B C 0.4247(24) 0.9669(10) -0.0289(8)
C26B C 0.3155(3) 0.9449(2) -0.0611(2)
C27B C 0.2281(6) 0.9915(6) -0.0534(4)
Cu1 Cu 0.22981(2) 0.50989(2) 0.19936(2)
O1 O 0.2028(2) 0.4925(2) 0.08116(13)
H1 H 0.2308(40) 0.4338(43) 0.0676(27)
H2 H 0.1672(38) 0.5261(34) 0.0440(28)
N1 N 0.1605(2) 0.3779(2) 0.20865(13)
N2 N 0.1917(2) 0.2968(2) 0.17762(14)
H3 H 0.2258(26) 0.3031(23) 0.1488(19)
N3 N -0.0973(2) 0.0821(2) 0.30183(13)
N4 N -0.0042(2) 0.0583(2) 0.34945(14)
H4 H -0.0004(24) 0.0236(24) 0.3781(18)
N5 N 0.3711(2) 0.4431(2) 0.21698(12)
N6 N 0.4329(2) 0.4698(2) 0.17391(15)
H5 H 0.4084(26) 0.5044(24) 0.1401(19)
N7 N 0.6985(2) 0.1423(2) 0.30012(12)
N8 N 0.7461(2) 0.2119(2) 0.3489(2)
H6 H 0.7862(27) 0.2010(24) 0.3742(19)
C1 C 0.0990(2) 0.3429(2) 0.24880(15)
C2 C 0.0917(2) 0.2389(2) 0.24274(15)
C3 C 0.1521(2) 0.2131(2) 0.1965(2)
C4 C 0.1744(3) 0.1141(2) 0.1689(2)
H7 H 0.2197(3) 0.1228(2) 0.1377(2)
H8 H 0.2085(3) 0.0723(2) 0.2090(2)
H9 H 0.1094(3) 0.0840(2) 0.1420(2)
C5 C 0.0471(3) 0.4068(2) 0.2918(2)
H10 H 0.0651(3) 0.4747(2) 0.2862(2)
H11 H -0.0282(3) 0.3989(2) 0.2753(2)
H12 H 0.0715(3) 0.3883(2) 0.3420(2)
C6 C -0.0753(2) 0.1516(2) 0.2577(2)
C7 C 0.0339(2) 0.1710(2) 0.2782(2)
C8 C 0.0758(2) 0.1103(2) 0.3374(2)
C9 C 0.1859(2) 0.1008(3) 0.3845(2)
H13 H 0.1890(2) 0.0520(3) 0.4215(2)
H15 H 0.2095(2) 0.1635(3) 0.4068(2)
C10 C -0.1574(3) 0.1973(3) 0.1967(2)
H16 H -0.2252(3) 0.1698(3) 0.1954(2)
H17 H -0.1588(3) 0.2676(3) 0.2037(2)
H18 H -0.1413(3) 0.1834(3) 0.1517(2)
C11 C 0.4265(2) 0.3742(2) 0.2630(2)
C12 C 0.5234(2) 0.3574(2) 0.2472(2)
C13 C 0.5237(2) 0.4204(2) 0.1903(2)
C14 C 0.6059(3) 0.4370(3) 0.1509(2)
H19 H 0.5817(3) 0.4862(3) 0.1139(2)
H20 H 0.6701(3) 0.4592(3) 0.1846(2)
H21 H 0.6186(3) 0.3760(3) 0.1290(2)
C15 C 0.3887(2) 0.3293(3) 0.3226(2)
H22 H 0.3201(2) 0.3549(3) 0.3212(2)
H23 H 0.3845(2) 0.2588(3) 0.3158(2)
H24 H 0.4372(2) 0.3443(3) 0.3688(2)
C16 C 0.6123(2) 0.1862(2) 0.2574(2)
C17 C 0.6057(2) 0.2841(2) 0.2809(2)
C18 C 0.6931(2) 0.2972(2) 0.3396(2)
C19 C 0.7288(3) 0.3851(2) 0.3873(2)
H25 H 0.7937(3) 0.3695(2) 0.4229(2)
H26 H 0.7398(3) 0.4400(2) 0.3583(2)
H27 H 0.6760(3) 0.4023(2) 0.4113(2)
C20 C 0.5383(3) 0.1359(2) 0.1945(2)
H28 H 0.5619(3) 0.0694(2) 0.1904(2)
H29 H 0.4690(3) 0.1344(2) 0.2017(2)
H30 H 0.5363(3) 0.1718(2) 0.1508(2)
N3C N 0.0973(2) 0.5821(2) 0.19817(13)
N7C N 0.3015(2) 0.6423(2) 0.19988(12)
Cu1C Cu -0.22981(2) 0.00989(2) 0.30064(2)
Cu1C_2 Cu 0.77019(2) 0.00989(2) 0.30064(2)
H14? H -0.2306(2) 0.5809(3) 0.1451(2)
loop_
_geom_bond_atom_site_label_1
_geom_bond_atom_site_label_2
_geom_bond_site_symmetry_1
_geom_bond_site_symmetry_2
Cu1 O1 1_555 1_555
O1 H1 1_555 1_555
H2 O1 1_555 1_555
N1 Cu1 1_555 1_555
N2 N1 1_555 1_555
H3 N2 1_555 1_555
N3 N4 1_555 1_555
N4 H4 1_555 1_555
N5 Cu1 1_555 1_555
N6 N5 1_555 1_555
H5 N6 1_555 1_555
N7 N8 1_555 1_555
N8 H6 1_555 1_555
C1 N1 1_555 1_555
C2 C1 1_555 1_555
C3 N2 1_555 1_555
C4 C3 1_555 1_555
H7 C4 1_555 1_555
H8 C4 1_555 1_555
H9 C4 1_555 1_555
C5 C1 1_555 1_555
H10 C5 1_555 1_555
H11 C5 1_555 1_555
H12 C5 1_555 1_555
C6 N3 1_555 1_555
C7 C2 1_555 1_555
C8 N4 1_555 1_555
C9 C8 1_555 1_555
H13 C9 1_555 1_555
H15 C9 1_555 1_555
C10 C6 1_555 1_555
H16 C10 1_555 1_555
H17 C10 1_555 1_555
H18 C10 1_555 1_555
C11 N5 1_555 1_555
C12 C11 1_555 1_555
C13 N6 1_555 1_555
C14 C13 1_555 1_555
H19 C14 1_555 1_555
H20 C14 1_555 1_555
H21 C14 1_555 1_555
C15 C11 1_555 1_555
H22 C15 1_555 1_555
H23 C15 1_555 1_555
H24 C15 1_555 1_555
C16 N7 1_555 1_555
C17 C12 1_555 1_555
C18 N8 1_555 1_555
C19 C18 1_555 1_555
H25 C19 1_555 1_555
H26 C19 1_555 1_555
H27 C19 1_555 1_555
C20 C16 1_555 1_555
H28 C20 1_555 1_555
H29 C20 1_555 1_555
H30 C20 1_555 1_555
O2 C21 1_555 1_555
O3 C21 1_555 1_555
C21 H31 1_555 1_555
O4 C22 1_555 1_555
O5 C22 1_555 1_555
C22 H32 1_555 1_555
O6 C23 1_555 1_555
N9 H33 1_555 1_555
H34 N9 1_555 1_555
C23 N9 1_555 1_555
H35 C23 1_555 1_555
C24 C25 1_555 1_555
C25 C26 1_555 1_555
C26 C27 1_555 1_555
C27 C28 1_555 1_555
C28 C29 1_555 1_555
C29 C30 1_555 1_555
C30 C31 1_555 1_555
C31 C29 1_555 1_555
C32 C29 1_555 1_555
C24B C24 1_555 1_555
C25B C24 1_555 1_555
N3C Cu1 1_555 1_555
N7C Cu1 1_555 1_555
C26B C25B 1_555 1_555
Cu1C N3 1_555 1_555
Cu1C_2 N7 1_555 1_555
C27B C26B 1_555 1_555
C2 C3 1_555 1_555
C6 C7 1_555 1_555
C7 C8 1_555 1_555
C12 C13 1_555 1_555
C16 C17 1_555 1_555
C17 C18 1_555 1_555
C25 C24B 1_555 1_555
C31 C32 1_555 1_555
C24B C25B 1_555 1_555

#END
