
#######################################################################
#
#                 Cambridge Crystallographic Data Centre
#                                CCDC 
#
#######################################################################
#
# If this CIF has been generated from an entry in the Cambridge 
# Structural Database, then it will include bibliographic, chemical, 
# crystal, experimental, refinement or atomic coordinate data resulting 
# from the CCDC's data processing and validation procedures.
#
#######################################################################

data_QOTJOY
_symmetry_cell_setting           monoclinic
_symmetry_space_group_name_H-M   'C 2/c'
_symmetry_Int_Tables_number      15
_space_group_name_Hall           '-C 2yn'
loop_
_symmetry_equiv_pos_site_id
_symmetry_equiv_pos_as_xyz
1 x,y,z
2 1/2+x,1/2+y,z
3 x,-y,1/2+z
4 1/2+x,1/2-y,1/2+z
5 -x,-y,-z
6 1/2-x,1/2-y,-z
7 -x,y,1/2-z
8 1/2-x,1/2+y,1/2-z
_cell_length_a                   16.5140(16)
_cell_length_b                   11.1559(11)
_cell_length_c                   11.2834(11)
_cell_angle_alpha                90
_cell_angle_beta                 115.974(2)
_cell_angle_gamma                90
_cell_volume                     1868.76
loop_
_atom_site_label
_atom_site_type_symbol
_atom_site_fract_x
_atom_site_fract_y
_atom_site_fract_z
Cu1 Cu -0.5000 -0.45030(5) -0.2500
N1 N -0.5000 0.3666(3) -0.2500
N2 N -0.5000 -0.2668(3) -0.2500
O1 O -0.41759(17) -0.4480(2) -0.0620(2)
O2 O -0.35991(17) -0.46318(19) -0.2465(2)
O3 O -0.2818(2) -0.4708(3) 0.1024(3)
C1 C -0.3346(3) -0.4626(3) -0.0209(4)
C2 C -0.2906(2) -0.4790(3) -0.1145(3)
C3 C -0.5545(2) -0.2037(3) -0.2139(4)
H1 H -0.5932 -0.2454 -0.1888
C4 C -0.5562(2) -0.0813(3) -0.2119(4)
H2 H -0.5949 -0.0419 -0.1850
C5 C -0.5000 -0.0158(4) -0.2500
C6 C -0.5109(2) 0.3055(3) -0.1561(3)
H3 H -0.5184 0.3477 -0.0905
C7 C -0.5115(2) 0.1815(3) -0.1532(3)
H4 H -0.5196 0.1418 -0.0867
C8 C -0.5000 0.1161(4) -0.2500
C9 C -0.2517(3) -0.6044(4) -0.0946(4)
H5 H -0.2983 -0.6617 -0.1083
H6 H -0.2048 -0.6120 -0.0064
H7 H -0.2273 -0.6188 -0.1564
C10 C -0.2184(3) -0.3835(4) -0.0856(4)
H8 H -0.1981 -0.3846 -0.1533
H9 H -0.1685 -0.3996 -0.0018
H10 H -0.2431 -0.3060 -0.0833
H11 H -0.3287 -0.4915 -0.2900
O1F O -0.58241(17) -0.4480(2) -0.4380(2)
O2F O -0.64009(17) -0.46318(19) -0.2535(2)
C3F C -0.4455(2) -0.2037(3) -0.2861(4)
C4F C -0.4438(2) -0.0813(3) -0.2881(4)
C7F C -0.4885(2) 0.1815(3) -0.3468(3)
C1F C -0.6654(3) -0.4626(3) -0.4791(4)
C2F C -0.7094(2) -0.4790(3) -0.3855(3)
H11F H -0.6713 -0.4915 -0.2100
H1F H -0.4068 -0.2454 -0.3112
H2F H -0.4051 -0.0419 -0.3150
C6F C -0.4891(2) 0.3055(3) -0.3439(3)
H4F H -0.4804 0.1418 -0.4133
O3F O -0.7182(2) -0.4708(3) -0.6024(3)
C9F C -0.7483(3) -0.6044(4) -0.4054(4)
C10F C -0.7816(3) -0.3835(4) -0.4144(4)
N1_2 N -0.5000 -0.6334(3) -0.2500
H3F H -0.4816 0.3477 -0.4095
H5F H -0.7017 -0.6617 -0.3917
H6F H -0.7952 -0.6120 -0.4936
H7F H -0.7727 -0.6188 -0.3436
H8F H -0.8019 -0.3846 -0.3467
H9F H -0.8315 -0.3996 -0.4982
H10F H -0.7569 -0.3060 -0.4167
Cu1_2 Cu -0.5000 0.54970(5) -0.2500
loop_
_geom_bond_atom_site_label_1
_geom_bond_atom_site_label_2
_geom_bond_site_symmetry_1
_geom_bond_site_symmetry_2
Cu1 N2 1_555 1_555
N1 C6 1_555 1_555
N2 C3 1_555 1_555
O1 Cu1 1_555 1_555
O2 Cu1 1_555 1_555
O3 C1 1_555 1_555
C1 O1 1_555 1_555
C2 O2 1_555 1_555
C3 H1 1_555 1_555
C4 C3 1_555 1_555
H2 C4 1_555 1_555
C5 C4 1_555 1_555
C6 H3 1_555 1_555
C7 C6 1_555 1_555
H4 C7 1_555 1_555
C8 C5 1_555 1_555
C9 C2 1_555 1_555
H5 C9 1_555 1_555
H6 C9 1_555 1_555
H7 C9 1_555 1_555
C10 C2 1_555 1_555
H8 C10 1_555 1_555
H9 C10 1_555 1_555
H10 C10 1_555 1_555
H11 O2 1_555 1_555
O1F Cu1 1_555 1_555
O2F Cu1 1_555 1_555
C3F N2 1_555 1_555
C4F C5 1_555 1_555
C7F C8 1_555 1_555
C1F O1F 1_555 1_555
C2F O2F 1_555 1_555
H11F O2F 1_555 1_555
H1F C3F 1_555 1_555
H2F C4F 1_555 1_555
C6F N1 1_555 1_555
H4F C7F 1_555 1_555
O3F C1F 1_555 1_555
C9F C2F 1_555 1_555
C10F C2F 1_555 1_555
N1_2 Cu1 1_555 1_555
H3F C6F 1_555 1_555
H5F C9F 1_555 1_555
H6F C9F 1_555 1_555
H7F C9F 1_555 1_555
H8F C10F 1_555 1_555
H9F C10F 1_555 1_555
H10F C10F 1_555 1_555
Cu1_2 N1 1_555 1_555
C1 C2 1_555 1_555
C7 C8 1_555 1_555
C3F C4F 1_555 1_555
C7F C6F 1_555 1_555
C1F C2F 1_555 1_555

#END
