
#######################################################################
#
#                 Cambridge Crystallographic Data Centre
#                                CCDC 
#
#######################################################################
#
# If this CIF has been generated from an entry in the Cambridge 
# Structural Database, then it will include bibliographic, chemical, 
# crystal, experimental, refinement or atomic coordinate data resulting 
# from the CCDC's data processing and validation procedures.
#
#######################################################################

data_QOTLIV
_symmetry_cell_setting           monoclinic
_symmetry_space_group_name_H-M   'P 21/c'
_symmetry_Int_Tables_number      14
_space_group_name_Hall           '-P 2ybc'
loop_
_symmetry_equiv_pos_site_id
_symmetry_equiv_pos_as_xyz
1 x,y,z
2 -x,1/2+y,1/2-z
3 -x,-y,-z
4 x,1/2-y,1/2+z
_cell_length_a                   11.857(2)
_cell_length_b                   9.839(2)
_cell_length_c                   6.6250(13)
_cell_angle_alpha                90
_cell_angle_beta                 100.33(3)
_cell_angle_gamma                90
_cell_volume                     760.352
loop_
_atom_site_label
_atom_site_type_symbol
_atom_site_fract_x
_atom_site_fract_y
_atom_site_fract_z
Cd1 Cd 0.42263(4) 0.36045(4) 0.34194(7)
N1 N 0.3555(5) 0.1927(5) 0.5059(8)
N2 N 0.2937(5) 0.1135(5) 0.4006(8)
N3 N 0.2327(6) 0.0399(7) 0.3035(10)
N4 N 0.2558(4) 0.4910(5) 0.3100(7)
N5 N 0.0689(5) 0.6646(7) 0.1984(10)
O1 O 0.4718(3) 0.5816(4) 0.3145(6)
O2 O 0.4043(4) 0.7823(4) 0.1835(6)
C1 C 0.3913(5) 0.6650(6) 0.2480(8)
C2 C 0.2694(5) 0.6193(6) 0.2517(8)
C3 C 0.1769(5) 0.7052(7) 0.1982(9)
H1 H 0.1898 0.7942 0.1609
C4 C 0.0571(6) 0.5372(9) 0.2550(11)
H2 H -0.0162 0.5044 0.2575
C5 C 0.1493(6) 0.4509(8) 0.3106(10)
H3 H 0.1362 0.3623 0.3494
Cd1C Cd 0.42263(4) 0.13955(4) 0.84194(7)
Cd1B Cd 0.57737(4) 0.63955(4) 0.65806(7)
Cd1A Cd 0.57737(4) 0.86045(4) 0.15806(7)
N1C N 0.3555(5) 0.3073(5) 0.0059(8)
O1B O 0.5282(3) 0.4184(4) 0.6855(6)
O2A O 0.5957(4) 0.2823(4) 0.3165(6)
loop_
_geom_bond_atom_site_label_1
_geom_bond_atom_site_label_2
_geom_bond_site_symmetry_1
_geom_bond_site_symmetry_2
Cd1 N1 1_555 1_555
N1 N2 1_555 1_555
N2 N3 1_555 1_555
N4 Cd1 1_555 1_555
N5 C3 1_555 1_555
O1 Cd1 1_555 1_555
O2 C1 1_555 1_555
C1 O1 1_555 1_555
C2 N4 1_555 1_555
C3 C2 1_555 1_555
H1 C3 1_555 1_555
C4 N5 1_555 1_555
H2 C4 1_555 1_555
C5 N4 1_555 1_555
H3 C5 1_555 1_555
Cd1C N1 1_555 1_555
Cd1B O1 1_555 1_555
Cd1A O2 1_555 1_555
N1C Cd1 1_555 1_555
O1B Cd1 1_555 1_555
O2A Cd1 1_555 1_555
C1 C2 1_555 1_555
C4 C5 1_555 1_555
Cd1B O1B 1_555 1_555

#END
