
#######################################################################
#
#                 Cambridge Crystallographic Data Centre
#                                CCDC 
#
#######################################################################
#
# If this CIF has been generated from an entry in the Cambridge 
# Structural Database, then it will include bibliographic, chemical, 
# crystal, experimental, refinement or atomic coordinate data resulting 
# from the CCDC's data processing and validation procedures.
#
#######################################################################

data_QOTMIW
_symmetry_cell_setting           monoclinic
_symmetry_space_group_name_H-M   'C 2/c'
_symmetry_Int_Tables_number      15
_space_group_name_Hall           '-C 2yn'
loop_
_symmetry_equiv_pos_site_id
_symmetry_equiv_pos_as_xyz
1 x,y,z
2 -x,y,1/2-z
3 1/2+x,1/2+y,z
4 1/2-x,1/2+y,1/2-z
5 -x,-y,-z
6 x,-y,1/2+z
7 1/2-x,1/2-y,-z
8 1/2+x,1/2-y,1/2+z
_cell_length_a                   22.392(5)
_cell_length_b                   4.9308(10)
_cell_length_c                   12.185(2)
_cell_angle_alpha                90
_cell_angle_beta                 90.30(3)
_cell_angle_gamma                90
_cell_volume                     1345.33
loop_
_atom_site_label
_atom_site_type_symbol
_atom_site_fract_x
_atom_site_fract_y
_atom_site_fract_z
Zn1 Zn 0.0000 0.08046(11) 0.7500
O1 O 0.06809(11) 0.3407(5) 0.7428(2)
O2 O 0.04382(12) 0.2669(5) 0.5705(2)
C1 C 0.07463(15) 0.3874(7) 0.6402(3)
O3 O -0.03292(14) -0.2000(5) 0.6496(2)
H1 H -0.0458 -0.3274 0.6857
C2 C 0.12028(14) 0.5963(7) 0.6090(3)
C3 C 0.16404(19) 0.9039(8) 0.4779(4)
H2 H 0.1651 0.9768 0.4075
C4 C 0.20375(18) 0.9943(8) 0.5579(4)
C5 C 0.12236(18) 0.7023(8) 0.5038(3)
H3 H 0.0960 0.6394 0.4503
C6 C 0.16064(17) 0.6897(8) 0.6873(3)
H4 H 0.1599 0.6179 0.7578
C7 C 0.20196(18) 0.8879(8) 0.6617(4)
H5 H 0.2286 0.9492 0.7150
H6 H -0.037(2) -0.207(12) 0.584(5)
N1 N 0.25044(16) 1.2046(7) 0.5460(3)
Zn1F Zn 0.5000 2.41954(11) 0.2500
O1F O 0.43191(11) 2.1593(5) 0.2572(2)
O1A O -0.06809(11) 0.3407(5) 0.7572(2)
O2F O 0.45618(12) 2.2331(5) 0.4295(2)
O2A O -0.04382(12) 0.2669(5) 0.9295(2)
C1F C 0.42537(15) 2.1126(7) 0.3598(3)
O3A O 0.03292(14) -0.2000(5) 0.8504(2)
H1A H 0.0458 -0.3274 0.8143
C2F C 0.37972(14) 1.9037(7) 0.3910(3)
C3F C 0.33596(19) 1.5961(8) 0.5221(4)
H2F H 0.3349 1.5232 0.5925
C4F C 0.29625(18) 1.5057(8) 0.4421(4)
C5F C 0.37764(18) 1.7977(8) 0.4962(3)
H3F H 0.4040 1.8606 0.5497
C6F C 0.33936(17) 1.8103(8) 0.3127(3)
H4F H 0.3401 1.8821 0.2422
C7F C 0.29804(18) 1.6121(8) 0.3383(4)
H5F H 0.2714 1.5508 0.2850
H6A H 0.037(2) -0.207(12) 0.916(5)
N1F N 0.24956(16) 1.2954(7) 0.4540(3)
loop_
_geom_bond_atom_site_label_1
_geom_bond_atom_site_label_2
_geom_bond_site_symmetry_1
_geom_bond_site_symmetry_2
Zn1 O1 1_555 1_555
O1 C1 1_555 1_555
O2 Zn1 1_555 1_555
C1 O2 1_555 1_555
O3 Zn1 1_555 1_555
H1 O3 1_555 1_555
C2 C1 1_555 1_555
C3 H2 1_555 1_555
C4 C3 1_555 1_555
C5 C2 1_555 1_555
H3 C5 1_555 1_555
C6 C2 1_555 1_555
H4 C6 1_555 1_555
C7 C4 1_555 1_555
H5 C7 1_555 1_555
H6 O3 1_555 1_555
N1 C4 1_555 1_555
Zn1F O1F 1_555 1_555
O1F C1F 1_555 1_555
O1A Zn1 1_555 1_555
O2F Zn1F 1_555 1_555
O2A Zn1 1_555 1_555
C1F O2F 1_555 1_555
O3A Zn1 1_555 1_555
H1A O3A 1_555 1_555
C2F C1F 1_555 1_555
C3F H2F 1_555 1_555
C4F C3F 1_555 1_555
C5F C2F 1_555 1_555
H3F C5F 1_555 1_555
C6F C2F 1_555 1_555
H4F C6F 1_555 1_555
C7F C4F 1_555 1_555
H5F C7F 1_555 1_555
H6A O3A 1_555 1_555
N1F N1 1_555 1_555
C3 C5 1_555 1_555
C6 C7 1_555 1_555
C3F C5F 1_555 1_555
C4F N1F 1_555 1_555
C6F C7F 1_555 1_555

#END
