
#######################################################################
#
#                 Cambridge Crystallographic Data Centre
#                                CCDC 
#
#######################################################################
#
# If this CIF has been generated from an entry in the Cambridge 
# Structural Database, then it will include bibliographic, chemical, 
# crystal, experimental, refinement or atomic coordinate data resulting 
# from the CCDC's data processing and validation procedures.
#
#######################################################################

data_QOTROI
_symmetry_cell_setting           monoclinic
_symmetry_space_group_name_H-M   'C 2/c'
_symmetry_Int_Tables_number      15
_space_group_name_Hall           '-C 2yn'
loop_
_symmetry_equiv_pos_site_id
_symmetry_equiv_pos_as_xyz
1 x,y,z
2 -x,y,1/2-z
3 1/2+x,1/2+y,z
4 1/2-x,1/2+y,1/2-z
5 -x,-y,-z
6 x,-y,1/2+z
7 1/2-x,1/2-y,-z
8 1/2+x,1/2-y,1/2+z
_cell_length_a                   26.7024(17)
_cell_length_b                   14.8976(10)
_cell_length_c                   8.0841(5)
_cell_angle_alpha                90
_cell_angle_beta                 106.816(2)
_cell_angle_gamma                90
_cell_volume                     3078.35
loop_
_atom_site_label
_atom_site_type_symbol
_atom_site_fract_x
_atom_site_fract_y
_atom_site_fract_z
Zn1 Zn 0.207038(13) 0.69777(2) 0.02443(4)
O1 O 0.24940(8) 0.60114(14) -0.0548(3)
O2 O 0.26064(8) 0.69850(15) 0.2635(3)
O3 O 0.32872(8) 0.77521(14) 0.2311(3)
O4 O 0.31811(8) 0.67947(13) -0.0803(3)
N1 N 0.15294(9) 0.61849(16) 0.0829(3)
N2 N 0.0000 0.5004(2) 0.2500
N3 N 0.0000 -0.0717(3) 0.2500
C1 C 0.10953(11) 0.65397(19) 0.1078(4)
H1 H 0.1044 0.7170 0.0964
C2 C 0.07211(11) 0.60248(19) 0.1491(4)
H2 H 0.0420 0.6302 0.1663
C3 C 0.07838(11) 0.50966(19) 0.1659(3)
C4 C 0.12423(11) 0.4734(2) 0.1431(4)
H3 H 0.1306 0.4107 0.1553
C5 C 0.16007(11) 0.52945(19) 0.1028(4)
H4 H 0.1912 0.5040 0.0885
C6 C 0.03776(11) 0.45377(19) 0.2083(4)
C7 C 0.03862(11) 0.36041(19) 0.2053(4)
H5 H 0.0656 0.3301 0.1726
C8 C 0.0000 0.3112(3) 0.2500
C9 C 0.0000 0.2115(3) 0.2500
C10 C 0.04540(12) 0.1625(2) 0.2587(4)
H6 H 0.0770 0.1938 0.2658
C11 C 0.04551(13) 0.0697(2) 0.2570(5)
H7 H 0.0769 0.0386 0.2607
C12 C 0.0000 0.0206(3) 0.2500
C13 C 0.04662(15) -0.1209(2) 0.2541(6)
H8 H 0.0744 -0.1053 0.3591
H9 H 0.0578 -0.1054 0.1524
H10 H 0.0395 -0.1854 0.2537
C14 C 0.29258(12) 0.6082(2) -0.0881(4)
C15 C 0.31467(13) 0.5241(2) -0.1448(4)
H11 H 0.3516 0.5180 -0.0793
H12 H 0.3115 0.5281 -0.2685
H13 H 0.2952 0.4717 -0.1235
C16 C 0.30433(12) 0.73560(19) 0.3218(4)
C17 C 0.32888(13) 0.7337(2) 0.5136(4)
H14 H 0.3266 0.6729 0.5570
H15 H 0.3104 0.7756 0.5690
H16 H 0.3657 0.7515 0.5403
N1A N -0.15294(9) 0.61849(16) 0.4171(3)
C1A C -0.10953(11) 0.65397(19) 0.3922(4)
H1A H -0.1044 0.7170 0.4036
C2A C -0.07211(11) 0.60248(19) 0.3509(4)
H2A H -0.0420 0.6302 0.3337
C3A C -0.07838(11) 0.50966(19) 0.3341(3)
C4A C -0.12423(11) 0.4734(2) 0.3569(4)
H3A H -0.1306 0.4107 0.3447
C5A C -0.16007(11) 0.52945(19) 0.3972(4)
H4A H -0.1912 0.5040 0.4115
C6A C -0.03776(11) 0.45377(19) 0.2917(4)
C7A C -0.03862(11) 0.36041(19) 0.2947(4)
H5A H -0.0656 0.3301 0.3274
C10A C -0.04540(12) 0.1625(2) 0.2413(4)
H6A H -0.0770 0.1938 0.2342
C11A C -0.04551(13) 0.0697(2) 0.2430(5)
H7A H -0.0769 0.0386 0.2393
C13A C -0.04662(15) -0.1209(2) 0.2459(6)
H8A H -0.0744 -0.1053 0.1409
H9A H -0.0578 -0.1054 0.3476
H10A H -0.0395 -0.1854 0.2463
Zn1A Zn -0.207038(13) 0.69777(2) 0.47557(4)
O1A O -0.24940(8) 0.60114(14) 0.5548(3)
O2A O -0.26064(8) 0.69850(15) 0.2365(3)
O3A O -0.32872(8) 0.77521(14) 0.2689(3)
O4A O -0.31811(8) 0.67947(13) 0.5803(3)
C14A C -0.29258(12) 0.6082(2) 0.5881(4)
C15A C -0.31467(13) 0.5241(2) 0.6448(4)
H11A H -0.3516 0.5180 0.5793
H12A H -0.3115 0.5281 0.7685
H13A H -0.2952 0.4717 0.6235
C16A C -0.30433(12) 0.73560(19) 0.1782(4)
C17A C -0.32888(13) 0.7337(2) -0.0136(4)
H14A H -0.3266 0.6729 -0.0570
H15A H -0.3104 0.7756 -0.0690
H16A H -0.3657 0.7515 -0.0403
Zn1F Zn 0.292962(13) 0.80223(2) -0.02443(4)
Zn1G Zn -0.292962(13) 0.80223(2) 0.52443(4)
O3F O 0.17128(8) 0.72479(14) -0.2311(3)
O3G O -0.17128(8) 0.72479(14) 0.7311(3)
O4F O 0.18189(8) 0.82053(13) 0.0803(3)
O4G O -0.18189(8) 0.82053(13) 0.4197(3)
loop_
_geom_bond_atom_site_label_1
_geom_bond_atom_site_label_2
_geom_bond_site_symmetry_1
_geom_bond_site_symmetry_2
Zn1 O1 1_555 1_555
O1 C14 1_555 1_555
O2 Zn1 1_555 1_555
O3 C16 1_555 1_555
O4 C14 1_555 1_555
N1 Zn1 1_555 1_555
N2 C6 1_555 1_555
N3 C12 1_555 1_555
C1 N1 1_555 1_555
H1 C1 1_555 1_555
C2 C1 1_555 1_555
H2 C2 1_555 1_555
C3 C2 1_555 1_555
C4 C3 1_555 1_555
H3 C4 1_555 1_555
C5 N1 1_555 1_555
H4 C5 1_555 1_555
C6 C3 1_555 1_555
C7 C6 1_555 1_555
H5 C7 1_555 1_555
C8 C7 1_555 1_555
C9 C8 1_555 1_555
C10 C9 1_555 1_555
H6 C10 1_555 1_555
C11 C10 1_555 1_555
H7 C11 1_555 1_555
C12 C11 1_555 1_555
C13 N3 1_555 1_555
H8 C13 1_555 1_555
H9 C13 1_555 1_555
H10 C13 1_555 1_555
C14 C15 1_555 1_555
C15 H11 1_555 1_555
H12 C15 1_555 1_555
H13 C15 1_555 1_555
C16 O2 1_555 1_555
C17 C16 1_555 1_555
H14 C17 1_555 1_555
H15 C17 1_555 1_555
H16 C17 1_555 1_555
N1A C1A 1_555 1_555
C1A H1A 1_555 1_555
C2A C1A 1_555 1_555
H2A C2A 1_555 1_555
C3A C2A 1_555 1_555
C4A C3A 1_555 1_555
H3A C4A 1_555 1_555
C5A N1A 1_555 1_555
H4A C5A 1_555 1_555
C6A N2 1_555 1_555
C7A C8 1_555 1_555
H5A C7A 1_555 1_555
C10A C9 1_555 1_555
H6A C10A 1_555 1_555
C11A C12 1_555 1_555
H7A C11A 1_555 1_555
C13A N3 1_555 1_555
H8A C13A 1_555 1_555
H9A C13A 1_555 1_555
H10A C13A 1_555 1_555
Zn1A N1A 1_555 1_555
O1A Zn1A 1_555 1_555
O2A Zn1A 1_555 1_555
O3A C16A 1_555 1_555
O4A C14A 1_555 1_555
C14A O1A 1_555 1_555
C15A C14A 1_555 1_555
H11A C15A 1_555 1_555
H12A C15A 1_555 1_555
H13A C15A 1_555 1_555
C16A O2A 1_555 1_555
C17A C16A 1_555 1_555
H14A C17A 1_555 1_555
H15A C17A 1_555 1_555
H16A C17A 1_555 1_555
Zn1F O3 1_555 1_555
Zn1G O3A 1_555 1_555
O3F Zn1 1_555 1_555
O3G Zn1A 1_555 1_555
O4F Zn1 1_555 1_555
O4G Zn1A 1_555 1_555
O4 Zn1F 1_555 1_555
C4 C5 1_555 1_555
C3A C6A 1_555 1_555
C4A C5A 1_555 1_555
C6A C7A 1_555 1_555
C10A C11A 1_555 1_555
O4A Zn1G 1_555 1_555

#END
