
#######################################################################
#
#                 Cambridge Crystallographic Data Centre
#                                CCDC 
#
#######################################################################
#
# If this CIF has been generated from an entry in the Cambridge 
# Structural Database, then it will include bibliographic, chemical, 
# crystal, experimental, refinement or atomic coordinate data resulting 
# from the CCDC's data processing and validation procedures.
#
#######################################################################

data_QOTREY
_symmetry_cell_setting           monoclinic
_symmetry_space_group_name_H-M   'C 2/c'
_symmetry_Int_Tables_number      15
_space_group_name_Hall           '-C 2yn'
loop_
_symmetry_equiv_pos_site_id
_symmetry_equiv_pos_as_xyz
1 x,y,z
2 -x,y,1/2-z
3 1/2+x,1/2+y,z
4 1/2-x,1/2+y,1/2-z
5 -x,-y,-z
6 x,-y,1/2+z
7 1/2-x,1/2-y,-z
8 1/2+x,1/2-y,1/2+z
_cell_length_a                   26.0536(19)
_cell_length_b                   14.9913(11)
_cell_length_c                   8.1639(6)
_cell_angle_alpha                90
_cell_angle_beta                 107.153(2)
_cell_angle_gamma                90
_cell_volume                     3046.81
loop_
_atom_site_label
_atom_site_type_symbol
_atom_site_fract_x
_atom_site_fract_y
_atom_site_fract_z
Zn1 Zn 0.290658(16) 0.69275(3) 0.11053(5)
O1 O 0.31358(12) 0.81203(17) 0.2289(4)
O2 O 0.24869(10) 0.89815(17) 0.0660(3)
O3 O 0.23046(11) 0.68666(18) 0.2236(3)
O4 O 0.16635(10) 0.77024(18) 0.0547(3)
N1 N 0.34520(11) 0.61288(19) 0.2782(4)
N2 N 0.5000 0.4959(3) 0.7500
N3 N 0.5000 0.0236(4) 0.7500
C1 C 0.38688(14) 0.6488(2) 0.3975(5)
H1 H 0.3905 0.7119 0.4014
C2 C 0.42441(13) 0.5989(2) 0.5138(4)
H2 H 0.4531 0.6274 0.5969
C3 C 0.42035(12) 0.5059(2) 0.5099(4)
C4 C 0.37621(13) 0.4688(2) 0.3881(4)
H3 H 0.3710 0.4060 0.3827
C5 C 0.34003(13) 0.5242(2) 0.2753(4)
H4 H 0.3103 0.4981 0.1924
C6 C 0.46121(12) 0.4510(2) 0.6347(4)
C7 C 0.46004(13) 0.3583(2) 0.6310(4)
H5 H 0.4323 0.3278 0.5480
C8 C 0.5000 0.3104(3) 0.7500
C9 C 0.5000 0.2120(4) 0.7500
C10 C 0.54776(18) 0.1626(3) 0.8041(7)
H6 H 0.5815 0.1921 0.8421
C11 C 0.5453(2) 0.0703(3) 0.8016(10)
H7 H 0.5781 0.0383 0.8394
C12 C 0.28954(15) 0.8859(3) 0.1916(5)
C13 C 0.31090(17) 0.9632(3) 0.3080(6)
H8 H 0.2980 1.0191 0.2474
H9 H 0.3503 0.9621 0.3430
H10 H 0.2984 0.9590 0.4097
C14 C 0.18504(15) 0.7225(3) 0.1834(5)
C15 C 0.1496(2) 0.7058(3) 0.2969(7)
H11 H 0.1233 0.7541 0.2820
H12 H 0.1717 0.7035 0.4169
H13 H 0.1307 0.6489 0.2654
N1A N 0.65480(11) 0.61288(19) 1.2218(4)
C1A C 0.61312(14) 0.6488(2) 1.1025(5)
H1A H 0.6095 0.7119 1.0986
C2A C 0.57559(13) 0.5989(2) 0.9862(4)
H2A H 0.5469 0.6274 0.9031
C3A C 0.57965(12) 0.5059(2) 0.9901(4)
C4A C 0.62379(13) 0.4688(2) 1.1119(4)
H3A H 0.6290 0.4060 1.1173
C5A C 0.65997(13) 0.5242(2) 1.2247(4)
H4A H 0.6897 0.4981 1.3076
C6A C 0.53879(12) 0.4510(2) 0.8653(4)
C7A C 0.53996(13) 0.3583(2) 0.8690(4)
H5A H 0.5677 0.3278 0.9520
C10A C 0.45224(18) 0.1626(3) 0.6959(7)
H6A H 0.4185 0.1921 0.6579
C11A C 0.4547(2) 0.0703(3) 0.6984(10)
H7A H 0.4219 0.0383 0.6606
Zn1A Zn 0.709342(16) 0.69275(3) 1.38947(5)
O1A O 0.68642(12) 0.81203(17) 1.2711(4)
O2A O 0.75131(10) 0.89815(17) 1.4340(3)
O3A O 0.76954(11) 0.68666(18) 1.2764(3)
O4A O 0.83365(10) 0.77024(18) 1.4453(3)
C12A C 0.71046(15) 0.8859(3) 1.3084(5)
C13A C 0.68910(17) 0.9632(3) 1.1920(6)
H8A H 0.7020 1.0191 1.2526
H9A H 0.6497 0.9621 1.1570
H10A H 0.7016 0.9590 1.0903
C14A C 0.81496(15) 0.7225(3) 1.3166(5)
C15A C 0.8504(2) 0.7058(3) 1.2031(7)
H11A H 0.8767 0.7541 1.2180
H12A H 0.8283 0.7035 1.0831
H13A H 0.8693 0.6489 1.2346
Zn1F Zn 0.209342(16) 0.80725(3) -0.11053(5)
Zn1G Zn 0.790658(16) 0.80725(3) 1.61053(5)
O2F O 0.25131(10) 0.60185(17) -0.0660(3)
O2G O 0.74869(10) 0.60185(17) 1.5660(3)
O4F O 0.33365(10) 0.72976(18) -0.0547(3)
O4G O 0.66635(10) 0.72976(18) 1.5547(3)
loop_
_geom_bond_atom_site_label_1
_geom_bond_atom_site_label_2
_geom_bond_site_symmetry_1
_geom_bond_site_symmetry_2
Zn1 O1 1_555 1_555
O1 C12 1_555 1_555
O2 C12 1_555 1_555
O3 Zn1 1_555 1_555
O4 C14 1_555 1_555
N1 Zn1 1_555 1_555
N2 C6 1_555 1_555
N3 C11 1_555 1_555
C1 N1 1_555 1_555
H1 C1 1_555 1_555
C2 C1 1_555 1_555
H2 C2 1_555 1_555
C3 C2 1_555 1_555
C4 C3 1_555 1_555
H3 C4 1_555 1_555
C5 N1 1_555 1_555
H4 C5 1_555 1_555
C6 C3 1_555 1_555
C7 C6 1_555 1_555
H5 C7 1_555 1_555
C8 C7 1_555 1_555
C9 C8 1_555 1_555
C10 C9 1_555 1_555
H6 C10 1_555 1_555
C11 C10 1_555 1_555
H7 C11 1_555 1_555
C12 C13 1_555 1_555
C13 H8 1_555 1_555
H9 C13 1_555 1_555
H10 C13 1_555 1_555
C14 O3 1_555 1_555
C15 C14 1_555 1_555
H11 C15 1_555 1_555
H12 C15 1_555 1_555
H13 C15 1_555 1_555
N1A C1A 1_555 1_555
C1A H1A 1_555 1_555
C2A C1A 1_555 1_555
H2A C2A 1_555 1_555
C3A C2A 1_555 1_555
C4A C3A 1_555 1_555
H3A C4A 1_555 1_555
C5A N1A 1_555 1_555
H4A C5A 1_555 1_555
C6A N2 1_555 1_555
C7A C8 1_555 1_555
H5A C7A 1_555 1_555
C10A C9 1_555 1_555
H6A C10A 1_555 1_555
C11A N3 1_555 1_555
H7A C11A 1_555 1_555
Zn1A N1A 1_555 1_555
O1A Zn1A 1_555 1_555
O2A C12A 1_555 1_555
O3A Zn1A 1_555 1_555
O4A C14A 1_555 1_555
C12A O1A 1_555 1_555
C13A C12A 1_555 1_555
H8A C13A 1_555 1_555
H9A C13A 1_555 1_555
H10A C13A 1_555 1_555
C14A O3A 1_555 1_555
C15A C14A 1_555 1_555
H11A C15A 1_555 1_555
H12A C15A 1_555 1_555
H13A C15A 1_555 1_555
Zn1F O2 1_555 1_555
Zn1G O2A 1_555 1_555
O2F Zn1 1_555 1_555
O2G Zn1A 1_555 1_555
O4F Zn1 1_555 1_555
O4G Zn1A 1_555 1_555
O4 Zn1F 1_555 1_555
C4 C5 1_555 1_555
C3A C6A 1_555 1_555
C4A C5A 1_555 1_555
C6A C7A 1_555 1_555
C10A C11A 1_555 1_555
O4A Zn1G 1_555 1_555

#END
