
#######################################################################
#
#                 Cambridge Crystallographic Data Centre
#                                CCDC 
#
#######################################################################
#
# If this CIF has been generated from an entry in the Cambridge 
# Structural Database, then it will include bibliographic, chemical, 
# crystal, experimental, refinement or atomic coordinate data resulting 
# from the CCDC's data processing and validation procedures.
#
#######################################################################

data_QOTSIC
_symmetry_cell_setting           triclinic
_symmetry_space_group_name_H-M   'P -1'
_symmetry_Int_Tables_number      2
_space_group_name_Hall           '-P 1'
loop_
_symmetry_equiv_pos_site_id
_symmetry_equiv_pos_as_xyz
1 x,y,z
2 -x,-y,-z
_cell_length_a                   7.1145(10)
_cell_length_b                   7.6126(11)
_cell_length_c                   10.4712(15)
_cell_angle_alpha                91.944(2)
_cell_angle_beta                 101.794(2)
_cell_angle_gamma                93.981(2)
_cell_volume                     553.134
loop_
_atom_site_label
_atom_site_type_symbol
_atom_site_fract_x
_atom_site_fract_y
_atom_site_fract_z
C6 C 0.3486(14) 0.4069(14) 0.6586(7)
H8 H 0.3665 0.2823 0.6493
H9 H 0.4444 0.4705 0.6201
C7 C 0.5547(9) 0.3691(10) 0.8777(12)
C8 C 0.3883(16) 0.4629(14) 0.8035(12)
H10 H 0.3027 0.4921 0.8610
H11 H 0.4365 0.5716 0.7715
C9 C 0.1538(13) 0.4461(17) 0.5982(7)
C10 C 0.0021(13) 0.5246(15) 0.6330(11)
H12 H -0.0018 0.5417 0.7208
C11 C 0.1520(15) 0.4193(17) 0.4668(7)
H13 H 0.2521 0.3639 0.4418
O3 O 0.7154(7) 0.4553(8) 0.9079(6)
O4 O 0.5142(8) 0.2481(7) 0.9485(6)
C6A C -0.3486(14) 0.5931(14) 0.3414(7)
H8A H -0.3665 0.7177 0.3507
H9A H -0.4444 0.5295 0.3799
C7A C -0.5547(9) 0.6309(10) 0.1223(12)
C8A C -0.3883(16) 0.5371(14) 0.1965(12)
H10A H -0.3027 0.5079 0.1390
H11A H -0.4365 0.4284 0.2285
C9A C -0.1538(13) 0.5539(17) 0.4018(7)
C10A C -0.0021(13) 0.4754(15) 0.3670(11)
H12A H 0.0018 0.4583 0.2792
C11A C -0.1520(15) 0.5807(17) 0.5332(7)
H13A H -0.2521 0.6361 0.5582
O3A O -0.7154(7) 0.5447(8) 0.0921(6)
O4A O -0.5142(8) 0.7519(7) 0.0515(6)
Zn1 Zn 0.0000 0.0000 0.0000
O1 O 0.2399(3) -0.0310(3) -0.0850(2)
H1 H 0.2994 0.0651 -0.0855
H2 H 0.3080 -0.1050 -0.0481
O2 O 0.0281(3) 0.2727(3) -0.0126(3)
H3 H 0.1147 0.3152 0.0467
H4 H -0.0605 0.3352 -0.0341
C1 C 0.4370(8) -0.0010(8) 0.4326(5)
N1 N 0.1826(8) 0.0085(7) 0.1897(5)
C2 C 0.1216(6) -0.0531(5) 0.2947(5)
H5 H -0.0056 -0.0997 0.2819
C3 C 0.2378(8) -0.0612(7) 0.4166(5)
H6 H 0.1891 -0.1122 0.4838
C4 C 0.4930(8) 0.0826(9) 0.3332(6)
C5 C 0.3666(8) 0.0851(9) 0.2145(5)
H7 H 0.4113 0.1354 0.1456
Zn1_2 Zn 1.0000 0.0000 1.0000
O1A O -0.2399(3) 0.0310(3) 0.0850(2)
H1A H -0.2994 -0.0651 0.0855
H2A H -0.3080 0.1050 0.0481
O2A O -0.0281(3) -0.2727(3) 0.0126(3)
H3A H -0.1147 -0.3152 -0.0467
H4A H 0.0605 -0.3352 0.0341
C1A C 0.5630(8) 0.0010(8) 0.5674(5)
N1A N 0.8174(8) -0.0085(7) 0.8103(5)
N1A_2 N -0.1826(8) -0.0085(7) -0.1897(5)
C2A C 0.8784(6) 0.0531(5) 0.7053(5)
H5A H 1.0056 0.0997 0.7181
C3A C 0.7622(8) 0.0612(7) 0.5834(5)
H6A H 0.8109 0.1122 0.5162
C4A C 0.5070(8) -0.0826(9) 0.6668(6)
C5A C 0.6334(8) -0.0851(9) 0.7855(5)
H7A H 0.5887 -0.1354 0.8544
C12? C 0.5592(9) 0.3752(10) 0.8774(12)
C13? C 0.3875(7) 0.4568(6) 0.7968(5)
H14? H 0.2741 0.4228 0.8309
H15? H 0.4096 0.5841 0.8075
C14? C 0.1537(15) 0.4384(16) 0.5807(8)
C15? C 0.0421(13) 0.5545(15) 0.6277(11)
H16? H 0.0754 0.5952 0.7147
C16? C 0.1125(14) 0.3904(17) 0.4492(8)
H17? H 0.1930 0.3195 0.4145
O5? O 0.7248(7) 0.4429(8) 0.8732(6)
O6? O 0.5210(8) 0.2242(6) 0.9159(6)
O7? O 0.2830(9) 0.3468(9) 0.6933(6)
C17? C 0.1459(5) -0.1018(6) 0.2804(5)
H18? H 0.0333 -0.1760 0.2611
C18? C 0.2664(8) -0.1111(7) 0.4008(5)
H19? H 0.2345 -0.1898 0.4605
C19? C 0.4750(8) 0.1141(8) 0.3382(6)
H20? H 0.5863 0.1901 0.3549
C20? C 0.3462(8) 0.1143(8) 0.2201(5)
H21? H 0.3742 0.1916 0.1585
C21? C 0.4300(8) 0.0078(8) 0.4387(5)
H22? H 0.6193 0.1303 0.3431
N2? N 0.1823(8) 0.0186(7) 0.1933(5)
loop_
_geom_bond_atom_site_label_1
_geom_bond_atom_site_label_2
_geom_bond_site_symmetry_1
_geom_bond_site_symmetry_2
Zn1 O1 1_555 1_555
O1 H1 1_555 1_555
H2 O1 1_555 1_555
O2 Zn1 1_555 1_555
H3 O2 1_555 1_555
H4 O2 1_555 1_555
C1 C3 1_555 1_555
N1 Zn1 1_555 1_555
C2 N1 1_555 1_555
H5 C2 1_555 1_555
C3 C2 1_555 1_555
H6 C3 1_555 1_555
C4 C1 1_555 1_555
C5 N1 1_555 1_555
H7 C5 1_555 1_555
C6 H8 1_555 1_555
H9 C6 1_555 1_555
C7 C8 1_555 1_555
C8 C6 1_555 1_555
H10 C8 1_555 1_555
H11 C8 1_555 1_555
C9 C6 1_555 1_555
C10 C9 1_555 1_555
H12 C10 1_555 1_555
C11 C9 1_555 1_555
H13 C11 1_555 1_555
O3 C7 1_555 1_555
O4 C7 1_555 1_555
Zn1_2 N1A 1_555 1_555
O1A Zn1 1_555 1_555
H1A O1A 1_555 1_555
H2A O1A 1_555 1_555
O2A Zn1 1_555 1_555
H3A O2A 1_555 1_555
H4A O2A 1_555 1_555
C1A C1 1_555 1_555
N1A C2A 1_555 1_555
N1A_2 Zn1 1_555 1_555
C2A H5A 1_555 1_555
C3A C1A 1_555 1_555
H6A C3A 1_555 1_555
C4A C1A 1_555 1_555
C5A N1A 1_555 1_555
H7A C5A 1_555 1_555
C6A H8A 1_555 1_555
H9A C6A 1_555 1_555
C7A C8A 1_555 1_555
C8A C6A 1_555 1_555
H10A C8A 1_555 1_555
H11A C8A 1_555 1_555
C9A C6A 1_555 1_555
C10A C11 1_555 1_555
H12A C10A 1_555 1_555
C11A C10 1_555 1_555
H13A C11A 1_555 1_555
O3A C7A 1_555 1_555
O4A C7A 1_555 1_555
C4 C5 1_555 1_555
C2A C3A 1_555 1_555
C4A C5A 1_555 1_555
C9A C10A 1_555 1_555
C9A C11A 1_555 1_555

#END
