
#######################################################################
#
#                 Cambridge Crystallographic Data Centre
#                                CCDC 
#
#######################################################################
#
# If this CIF has been generated from an entry in the Cambridge 
# Structural Database, then it will include bibliographic, chemical, 
# crystal, experimental, refinement or atomic coordinate data resulting 
# from the CCDC's data processing and validation procedures.
#
#######################################################################

data_QOTSAV
_symmetry_cell_setting           monoclinic
_symmetry_space_group_name_H-M   'P 21/c'
_symmetry_Int_Tables_number      14
_space_group_name_Hall           '-P 2ybc'
loop_
_symmetry_equiv_pos_site_id
_symmetry_equiv_pos_as_xyz
1 x,y,z
2 -x,1/2+y,1/2-z
3 -x,-y,-z
4 x,1/2-y,1/2+z
_cell_length_a                   10.0987(6)
_cell_length_b                   11.3461(5)
_cell_length_c                   18.6487(10)
_cell_angle_alpha                90
_cell_angle_beta                 103.791(2)
_cell_angle_gamma                90
_cell_volume                     2075.18
loop_
_atom_site_label
_atom_site_type_symbol
_atom_site_fract_x
_atom_site_fract_y
_atom_site_fract_z
Zn1 Zn 0.82570(6) 0.65602(5) 0.30168(3)
I1 I 1.07629(3) 0.60377(3) 0.34306(2)
I2 I 0.73522(4) 0.86764(3) 0.286226(18)
O1 O -0.1658(4) 0.2969(4) 0.2939(2)
O2 O -0.2859(4) 0.1896(4) 0.3620(2)
N1 N 0.7243(4) 0.5711(4) 0.3718(2)
N2 N 0.5667(4) 0.2477(3) 0.5147(2)
N3 N 0.7370(4) -0.0692(4) 0.7035(2)
C1 C 0.5891(5) 0.5806(4) 0.3588(3)
H1 H 0.5455 0.6423 0.3274
C2 C 0.5089(5) 0.5043(4) 0.3889(3)
H2 H 0.4125 0.5125 0.3769
C3 C 0.5714(5) 0.4163(4) 0.4367(2)
C4 C 0.7136(5) 0.4135(4) 0.4550(3)
H3 H 0.7610 0.3589 0.4906
C5 C 0.7850(5) 0.4906(4) 0.4208(3)
H4 H 0.8817 0.4861 0.4328
C6 C 0.4922(5) 0.3244(4) 0.4663(2)
C7 C 0.3516(5) 0.3207(4) 0.4445(3)
H5 H 0.3035 0.3783 0.4113
C8 C 0.2794(5) 0.2314(4) 0.4716(3)
C9 C 0.3585(5) 0.1529(4) 0.5219(3)
H6 H 0.3152 0.0916 0.5424
C10 C 0.4985(5) 0.1632(4) 0.5420(2)
C11 C 0.5835(5) 0.0803(4) 0.5958(2)
C12 C 0.5254(5) -0.0196(4) 0.6197(3)
H7 H 0.4322 -0.0382 0.5998
C13 C 0.6055(5) -0.0909(4) 0.6730(3)
H8 H 0.5650 -0.1588 0.6887
C14 C 0.7937(5) 0.0243(4) 0.6778(3)
H9 H 0.8880 0.0394 0.6972
C15 C 0.7216(6) 0.0985(4) 0.6250(3)
H10 H 0.7663 0.1629 0.6082
C16 C 0.1298(5) 0.2205(4) 0.4462(3)
C17 C 0.0541(6) 0.1616(4) 0.4894(3)
H11 H 0.1000 0.1318 0.5364
C18 C -0.0867(6) 0.1457(5) 0.4655(3)
H12 H -0.1374 0.1060 0.4950
C19 C -0.1478(5) 0.1896(4) 0.3979(3)
C20 C -0.2910(6) 0.2374(6) 0.2913(3)
H13 H -0.3682 0.2933 0.2774
H14 H -0.3046 0.1737 0.2541
C21 C -0.0759(5) 0.2520(5) 0.3559(3)
C22 C 0.0615(5) 0.2673(4) 0.3780(3)
H15 H 0.1097 0.3086 0.3479
Zn1C Zn 0.82570(6) -0.15602(5) 0.80168(3)
N3C N 0.7370(4) 0.5692(4) 0.2035(2)
loop_
_geom_bond_atom_site_label_1
_geom_bond_atom_site_label_2
_geom_bond_site_symmetry_1
_geom_bond_site_symmetry_2
Zn1 I1 1_555 1_555
I2 Zn1 1_555 1_555
O1 C20 1_555 1_555
O2 C19 1_555 1_555
N1 Zn1 1_555 1_555
N2 C6 1_555 1_555
N3 C13 1_555 1_555
C1 N1 1_555 1_555
H1 C1 1_555 1_555
C2 C1 1_555 1_555
H2 C2 1_555 1_555
C3 C2 1_555 1_555
C4 C3 1_555 1_555
H3 C4 1_555 1_555
C5 N1 1_555 1_555
H4 C5 1_555 1_555
C6 C3 1_555 1_555
C7 C6 1_555 1_555
H5 C7 1_555 1_555
C8 C7 1_555 1_555
C9 C8 1_555 1_555
H6 C9 1_555 1_555
C10 N2 1_555 1_555
C11 C10 1_555 1_555
C12 C11 1_555 1_555
H7 C12 1_555 1_555
C13 C12 1_555 1_555
H8 C13 1_555 1_555
C14 N3 1_555 1_555
H9 C14 1_555 1_555
C15 C11 1_555 1_555
H10 C15 1_555 1_555
C16 C8 1_555 1_555
C17 C16 1_555 1_555
H11 C17 1_555 1_555
C18 C17 1_555 1_555
H12 C18 1_555 1_555
C19 C18 1_555 1_555
C20 O2 1_555 1_555
H13 C20 1_555 1_555
H14 C20 1_555 1_555
C21 O1 1_555 1_555
C22 C16 1_555 1_555
H15 C22 1_555 1_555
Zn1C N3 1_555 1_555
N3C Zn1 1_555 1_555
C4 C5 1_555 1_555
C9 C10 1_555 1_555
C14 C15 1_555 1_555
C19 C21 1_555 1_555
C21 C22 1_555 1_555

#END
