
#######################################################################
#
#                 Cambridge Crystallographic Data Centre
#                                CCDC 
#
#######################################################################
#
# If this CIF has been generated from an entry in the Cambridge 
# Structural Database, then it will include bibliographic, chemical, 
# crystal, experimental, refinement or atomic coordinate data resulting 
# from the CCDC's data processing and validation procedures.
#
#######################################################################

data_QOTSOI
_symmetry_cell_setting           monoclinic
_symmetry_space_group_name_H-M   'P 21/c'
_symmetry_Int_Tables_number      14
_space_group_name_Hall           '-P 2ybc'
loop_
_symmetry_equiv_pos_site_id
_symmetry_equiv_pos_as_xyz
1 x,y,z
2 -x,1/2+y,1/2-z
3 -x,-y,-z
4 x,1/2-y,1/2+z
_cell_length_a                   9.3141(3)
_cell_length_b                   7.6933(2)
_cell_length_c                   23.5516(6)
_cell_angle_alpha                90
_cell_angle_beta                 91.090(1)
_cell_angle_gamma                90
_cell_volume                     1687.31
loop_
_atom_site_label
_atom_site_type_symbol
_atom_site_fract_x
_atom_site_fract_y
_atom_site_fract_z
Gd1 Gd 0.248753(11) 0.104391(19) 0.250840(4)
C1 C 0.4862(3) 0.3501(4) 0.19309(11)
C2 C 0.3989(3) 0.3091(4) 0.14067(11)
C3 C 0.4342(4) 0.3721(4) 0.08812(12)
H1 H 0.5139 0.4436 0.0840
C4 C 0.3501(4) 0.3281(5) 0.04169(13)
H2 H 0.3708 0.3709 0.0058
C5 C 0.2352(4) 0.2200(5) 0.04937(13)
H3 H 0.1769 0.1877 0.0187
C6 C 0.2069(3) 0.1595(5) 0.10322(12)
H4 H 0.1292 0.0853 0.1080
C7 C 0.0751(3) 0.4394(4) 0.29190(11)
C8 C 0.1853(3) 0.4381(4) 0.33891(11)
C9 C 0.1872(3) 0.5605(5) 0.38126(13)
H5 H 0.1153 0.6441 0.3829
C10 C 0.2967(4) 0.5581(5) 0.42139(13)
H6 H 0.3005 0.6399 0.4504
C11 C 0.3999(4) 0.4320(5) 0.41740(13)
H7 H 0.4762 0.4283 0.4435
C12 C 0.3897(3) 0.3108(5) 0.37438(12)
H8 H 0.4594 0.2246 0.3725
N1 N 0.2839(2) 0.3121(3) 0.33540(9)
N2 N 0.2868(3) 0.2035(4) 0.14872(9)
O1 O 0.1031(2) 0.3486(3) 0.24866(8)
O2 O 0.1133(3) -0.0265(4) 0.31899(9)
H9 H 0.120(5) -0.020(6) 0.3571(19)
H10 H 0.037(3) -0.076(5) 0.3080(15)
O3 O -0.0344(2) 0.5303(3) 0.29725(8)
O4 O 0.2971(3) -0.1563(4) 0.20507(10)
H11 H 0.261(4) -0.206(5) 0.1754(13)
H12 H 0.369(4) -0.221(6) 0.2123(18)
O5 O 0.5791(2) 0.4655(3) 0.19092(8)
O6 O 0.4589(2) 0.2605(3) 0.23653(8)
O3A O 0.0344(2) 0.0303(3) 0.20275(8)
O5A O 0.4209(2) -0.0345(3) 0.30908(8)
Gd1A Gd -0.248753(11) 0.604391(19) 0.249160(4)
Gd1A_2 Gd 0.751247(11) 0.604391(19) 0.249160(4)
N3 N 0.1809(4) 0.7234(4) 0.06595(13)
O7 O 0.3068(3) 0.7486(5) 0.05507(14)
O8 O 0.0901(3) 0.7088(5) 0.02636(11)
O9 O 0.1404(4) 0.7109(5) 0.11558(11)
O10 O 0.1429(4) 0.0087(5) 0.43094(11)
H13 H 0.076(6) 0.079(7) 0.439(3)
H14 H 0.129(6) -0.070(6) 0.456(2)
loop_
_geom_bond_atom_site_label_1
_geom_bond_atom_site_label_2
_geom_bond_site_symmetry_1
_geom_bond_site_symmetry_2
Gd1 N1 1_555 1_555
C1 C2 1_555 1_555
C2 C3 1_555 1_555
C3 H1 1_555 1_555
C4 C3 1_555 1_555
H2 C4 1_555 1_555
C5 C4 1_555 1_555
H3 C5 1_555 1_555
C6 C5 1_555 1_555
H4 C6 1_555 1_555
C7 C8 1_555 1_555
C8 C9 1_555 1_555
C9 H5 1_555 1_555
C10 C9 1_555 1_555
H6 C10 1_555 1_555
C11 C10 1_555 1_555
H7 C11 1_555 1_555
C12 C11 1_555 1_555
H8 C12 1_555 1_555
N1 C8 1_555 1_555
N2 Gd1 1_555 1_555
O1 Gd1 1_555 1_555
O2 Gd1 1_555 1_555
H9 O2 1_555 1_555
H10 O2 1_555 1_555
O3 C7 1_555 1_555
O4 Gd1 1_555 1_555
H11 O4 1_555 1_555
H12 O4 1_555 1_555
O5 C1 1_555 1_555
O6 Gd1 1_555 1_555
N3 O7 1_555 1_555
O8 N3 1_555 1_555
O9 N3 1_555 1_555
O10 H13 1_555 1_555
H14 O10 1_555 1_555
O3A Gd1 1_555 1_555
O5A Gd1 1_555 1_555
Gd1A O3 1_555 1_555
Gd1A_2 O5 1_555 1_555
C1 O6 1_555 1_555
C2 N2 1_555 1_555
C6 N2 1_555 1_555
C7 O1 1_555 1_555
C12 N1 1_555 1_555

#END
