
#######################################################################
#
#                 Cambridge Crystallographic Data Centre
#                                CCDC 
#
#######################################################################
#
# If this CIF has been generated from an entry in the Cambridge 
# Structural Database, then it will include bibliographic, chemical, 
# crystal, experimental, refinement or atomic coordinate data resulting 
# from the CCDC's data processing and validation procedures.
#
#######################################################################

data_QOTTUP
_symmetry_cell_setting           monoclinic
_symmetry_space_group_name_H-M   'P 21/n'
_symmetry_Int_Tables_number      14
_space_group_name_Hall           '-P 2yn'
loop_
_symmetry_equiv_pos_site_id
_symmetry_equiv_pos_as_xyz
1 x,y,z
2 1/2-x,1/2+y,1/2-z
3 -x,-y,-z
4 1/2+x,1/2-y,1/2+z
_cell_length_a                   8.4247(19)
_cell_length_b                   13.760(3)
_cell_length_c                   13.830(3)
_cell_angle_alpha                90
_cell_angle_beta                 99.739(4)
_cell_angle_gamma                90
_cell_volume                     1580.12
loop_
_atom_site_label
_atom_site_type_symbol
_atom_site_fract_x
_atom_site_fract_y
_atom_site_fract_z
Cd1 Cd 0.0000 1.0000 0.5000
O1 O 0.2816(6) 0.9963(3) 0.5350(4)
N1 N 0.0214(6) 1.0001(3) 0.3301(3)
N2 N 0.0642(7) 0.9993(3) 0.0299(4)
N3 N 0.0030(5) 0.8294(4) 0.4962(3)
N4 N 0.0211(8) 0.5155(4) 0.4667(5)
C1 C -0.1123(8) 0.9976(4) 0.2606(5)
H1 H -0.2123 0.9963 0.2806
C2 C -0.1076(9) 0.9970(5) 0.1612(5)
H2 H -0.2023 0.9954 0.1155
C3 C 0.0414(8) 0.9987(3) 0.1309(4)
C4 C 0.1786(8) 0.9995(3) 0.2008(4)
H3 H 0.2798 0.9990 0.1823
C5 C 0.1639(7) 1.0010(3) 0.2994(4)
H4 H 0.2572 1.0026 0.3462
C6 C 0.0966(10) 0.7823(5) 0.4435(6)
H5 H 0.1611 0.8187 0.4088
C7 C 0.1031(11) 0.6826(6) 0.4376(8)
H6 H 0.1712 0.6530 0.4001
C8 C 0.0093(7) 0.6281(7) 0.4869(5)
C9 C -0.0845(12) 0.6753(5) 0.5428(8)
H7 H -0.1480 0.6400 0.5790
C10 C -0.0857(11) 0.7757(5) 0.5458(7)
H8 H -0.1513 0.8065 0.5841
H9 H 0.330(10) 1.049(3) 0.559(6)
H10 H 0.300(12) 0.946(3) 0.569(6)
Cd1_2 Cd 0.0000 1.0000 -0.5000
Cd1_3 Cd 0.0000 0.0000 0.5000
O1B O -0.2816(6) 1.0037(3) 0.4650(4)
N1B N -0.0214(6) 0.9999(3) -0.3301(3)
N1B_2 N -0.0214(6) 0.9999(3) 0.6699(3)
N2B N -0.0642(7) 1.0007(3) -0.0299(4)
N3B N -0.0030(5) 0.1706(4) 0.5038(3)
N3B_2 N -0.0030(5) 1.1706(4) 0.5038(3)
N4B N -0.0211(8) 0.4845(4) 0.5333(5)
C1B C 0.1123(8) 1.0024(4) -0.2606(5)
H1B H 0.2123 1.0037 -0.2806
C2B C 0.1076(9) 1.0030(5) -0.1612(5)
H2B H 0.2023 1.0046 -0.1155
C3B C -0.0414(8) 1.0013(3) -0.1309(4)
C4B C -0.1786(8) 1.0005(3) -0.2008(4)
H3B H -0.2798 1.0010 -0.1823
C5B C -0.1639(7) 0.9990(3) -0.2994(4)
H4B H -0.2572 0.9974 -0.3462
C6B C -0.0966(10) 0.2177(5) 0.5565(6)
H5B H -0.1611 0.1813 0.5912
C7B C -0.1031(11) 0.3174(6) 0.5624(8)
H6B H -0.1712 0.3470 0.5999
C8B C -0.0093(7) 0.3719(7) 0.5131(5)
C9B C 0.0845(12) 0.3247(5) 0.4572(8)
H7B H 0.1480 0.3600 0.4210
C10B C 0.0857(11) 0.2243(5) 0.4542(7)
H8B H 0.1513 0.1935 0.4159
H9B H -0.330(10) 0.951(3) 0.441(6)
H10B H -0.300(12) 1.054(3) 0.431(6)
Cl1 Cl 0.9809(3) 0.28302(18) 0.1688(2)
O2 O 1.1299(8) 0.2515(5) 0.2196(5)
O3 O 0.9668(13) 0.2404(8) 0.0709(7)
O4 O 0.9877(10) 0.3803(6) 0.1601(8)
O5 O 0.8545(11) 0.2503(7) 0.2096(8)
O6 O 0.4716(17) 0.8430(10) 0.5937(10)
H11 H 0.4650 0.8090 0.5445
C11 C 0.4445(19) 0.7906(12) 0.6666(11)
H12 H 0.5333 0.7966 0.7198
H13 H 0.4325 0.7239 0.6466
H14 H 0.3476 0.8125 0.6876
loop_
_geom_bond_atom_site_label_1
_geom_bond_atom_site_label_2
_geom_bond_site_symmetry_1
_geom_bond_site_symmetry_2
Cd1 O1 1_555 1_555
O1 H9 1_555 1_555
N1 Cd1 1_555 1_555
N2 C3 1_555 1_555
N3 Cd1 1_555 1_555
N4 C8 1_555 1_555
C1 N1 1_555 1_555
H1 C1 1_555 1_555
C2 C1 1_555 1_555
H2 C2 1_555 1_555
C3 C2 1_555 1_555
C4 C3 1_555 1_555
H3 C4 1_555 1_555
C5 N1 1_555 1_555
H4 C5 1_555 1_555
C6 N3 1_555 1_555
H5 C6 1_555 1_555
C7 C6 1_555 1_555
H6 C7 1_555 1_555
C8 C7 1_555 1_555
C9 C8 1_555 1_555
H7 C9 1_555 1_555
C10 N3 1_555 1_555
H8 C10 1_555 1_555
H10 O1 1_555 1_555
Cl1 O2 1_555 1_555
O3 Cl1 1_555 1_555
O4 Cl1 1_555 1_555
O5 Cl1 1_555 1_555
O6 H11 1_555 1_555
C11 O6 1_555 1_555
H12 C11 1_555 1_555
H13 C11 1_555 1_555
H14 C11 1_555 1_555
Cd1_2 N1B 1_555 1_555
Cd1_3 N3B 1_555 1_555
O1B Cd1 1_555 1_555
N1B C1B 1_555 1_555
N1B_2 Cd1 1_555 1_555
N2B N2 1_555 1_555
N3B C6B 1_555 1_555
N3B_2 Cd1 1_555 1_555
N4B N4 1_555 1_555
C1B H1B 1_555 1_555
C2B C1B 1_555 1_555
H2B C2B 1_555 1_555
C3B N2B 1_555 1_555
C4B C3B 1_555 1_555
H3B C4B 1_555 1_555
C5B N1B 1_555 1_555
H4B C5B 1_555 1_555
C6B H5B 1_555 1_555
C7B C6B 1_555 1_555
H6B C7B 1_555 1_555
C8B N4B 1_555 1_555
C9B C8B 1_555 1_555
H7B C9B 1_555 1_555
C10B N3B 1_555 1_555
H8B C10B 1_555 1_555
H9B O1B 1_555 1_555
H10B O1B 1_555 1_555
C4 C5 1_555 1_555
C9 C10 1_555 1_555
C2B C3B 1_555 1_555
C4B C5B 1_555 1_555
C7B C8B 1_555 1_555
C9B C10B 1_555 1_555

#END
