
#######################################################################
#
#                 Cambridge Crystallographic Data Centre
#                                CCDC 
#
#######################################################################
#
# If this CIF has been generated from an entry in the Cambridge 
# Structural Database, then it will include bibliographic, chemical, 
# crystal, experimental, refinement or atomic coordinate data resulting 
# from the CCDC's data processing and validation procedures.
#
#######################################################################

data_QOTTOJ
_symmetry_cell_setting           orthorhombic
_symmetry_space_group_name_H-M   'P c c n'
_symmetry_Int_Tables_number      56
_space_group_name_Hall           '-P 2ab 2ac'
loop_
_symmetry_equiv_pos_site_id
_symmetry_equiv_pos_as_xyz
1 x,y,z
2 1/2-x,1/2-y,z
3 -x,1/2+y,1/2-z
4 1/2+x,-y,1/2-z
5 -x,-y,-z
6 1/2+x,1/2+y,-z
7 x,1/2-y,1/2+z
8 1/2-x,y,1/2+z
_cell_length_a                   13.028(2)
_cell_length_b                   19.081(3)
_cell_length_c                   7.2611(13)
_cell_angle_alpha                90
_cell_angle_beta                 90
_cell_angle_gamma                90
_cell_volume                     1805.02
loop_
_atom_site_label
_atom_site_type_symbol
_atom_site_fract_x
_atom_site_fract_y
_atom_site_fract_z
Mn1 Mn 0.0000 0.0000 0.0000
O1 O 0.01272(10) -0.08877(8) 0.4030(2)
O2 O 0.10810(9) -0.06403(6) 0.15485(19)
O3 O -0.08698(11) 0.02116(9) 0.2594(2)
N1 N 0.09887(11) 0.09545(7) 0.0458(2)
N2 N 0.11786(15) -0.22506(11) 0.6318(3)
C1 C 0.20093(14) 0.09291(10) 0.0471(3)
H1 H 0.2324 0.0492 0.0424
C2 C 0.26242(14) 0.15161(9) 0.0552(3)
H2 H 0.3335 0.1469 0.0548
C3 C 0.21844(12) 0.21760(8) 0.0637(2)
C4 C 0.11281(13) 0.21987(9) 0.0663(3)
H3 H 0.0792 0.2628 0.0744
C5 C 0.05702(14) 0.15887(10) 0.0567(3)
H4 H -0.0142 0.1621 0.0580
C6 C 0.09219(13) -0.09305(9) 0.3066(3)
C7 C 0.17967(14) -0.13810(10) 0.3821(3)
H5 H 0.2106 -0.1640 0.2814
H6 H 0.2319 -0.1077 0.4341
C8 C 0.14565(15) -0.18716(11) 0.5222(3)
H7 H -0.0652(18) -0.0147(7) 0.309(3)
H8 H -0.0699(19) 0.0545(8) 0.324(3)
Mn1A Mn 0.5000 0.5000 0.0000
O1D O -0.01272(10) 0.08877(8) -0.4030(2)
O2D O -0.10810(9) 0.06403(6) -0.15485(19)
O3D O 0.08698(11) -0.02116(9) -0.2594(2)
N1A N 0.40113(11) 0.40455(7) 0.0458(2)
N1D N -0.09887(11) -0.09545(7) -0.0458(2)
N2D N -0.11786(15) 0.22506(11) -0.6318(3)
C1A C 0.29907(14) 0.40709(10) 0.0471(3)
H1A H 0.2676 0.4508 0.0424
C2A C 0.23758(14) 0.34839(9) 0.0552(3)
H2A H 0.1665 0.3531 0.0548
C3A C 0.28156(12) 0.28240(8) 0.0637(2)
C4A C 0.38719(13) 0.28013(9) 0.0663(3)
H3A H 0.4208 0.2372 0.0744
C5A C 0.44298(14) 0.34113(10) 0.0567(3)
H4A H 0.5142 0.3379 0.0580
C6D C -0.09219(13) 0.09305(9) -0.3066(3)
C7D C -0.17967(14) 0.13810(10) -0.3821(3)
H5D H -0.2106 0.1640 -0.2814
H6D H -0.2319 0.1077 -0.4341
C8D C -0.14565(15) 0.18716(11) -0.5222(3)
H7D H 0.0652(18) 0.0147(7) -0.309(3)
H8D H 0.0699(19) -0.0545(8) -0.324(3)
loop_
_geom_bond_atom_site_label_1
_geom_bond_atom_site_label_2
_geom_bond_site_symmetry_1
_geom_bond_site_symmetry_2
Mn1 O2 1_555 1_555
O1 C6 1_555 1_555
O2 C6 1_555 1_555
O3 Mn1 1_555 1_555
N1 Mn1 1_555 1_555
N2 C8 1_555 1_555
C1 N1 1_555 1_555
H1 C1 1_555 1_555
C2 C1 1_555 1_555
H2 C2 1_555 1_555
C3 C2 1_555 1_555
C4 C3 1_555 1_555
H3 C4 1_555 1_555
C5 N1 1_555 1_555
H4 C5 1_555 1_555
C6 C7 1_555 1_555
C7 H5 1_555 1_555
H6 C7 1_555 1_555
C8 C7 1_555 1_555
H7 O3 1_555 1_555
H8 O3 1_555 1_555
Mn1A N1A 1_555 1_555
O1D C6D 1_555 1_555
O2D Mn1 1_555 1_555
O3D Mn1 1_555 1_555
N1A C1A 1_555 1_555
N1D Mn1 1_555 1_555
N2D C8D 1_555 1_555
C1A H1A 1_555 1_555
C2A C1A 1_555 1_555
H2A C2A 1_555 1_555
C3A C3 1_555 1_555
C4A C3A 1_555 1_555
H3A C4A 1_555 1_555
C5A N1A 1_555 1_555
H4A C5A 1_555 1_555
C6D O2D 1_555 1_555
C7D C6D 1_555 1_555
H5D C7D 1_555 1_555
H6D C7D 1_555 1_555
C8D C7D 1_555 1_555
H7D O3D 1_555 1_555
H8D O3D 1_555 1_555
C4 C5 1_555 1_555
C2A C3A 1_555 1_555
C4A C5A 1_555 1_555

#END
