
#######################################################################
#
#                 Cambridge Crystallographic Data Centre
#                                CCDC 
#
#######################################################################
#
# If this CIF has been generated from an entry in the Cambridge 
# Structural Database, then it will include bibliographic, chemical, 
# crystal, experimental, refinement or atomic coordinate data resulting 
# from the CCDC's data processing and validation procedures.
#
#######################################################################

data_QOTVEB
_symmetry_cell_setting           monoclinic
_symmetry_space_group_name_H-M   'P 2/c'
_symmetry_Int_Tables_number      13
_space_group_name_Hall           '-P 2yc'
loop_
_symmetry_equiv_pos_site_id
_symmetry_equiv_pos_as_xyz
1 x,y,z
2 -x,y,1/2-z
3 -x,-y,-z
4 x,-y,1/2+z
_cell_length_a                   14.1203(15)
_cell_length_b                   8.4612(9)
_cell_length_c                   20.5495(16)
_cell_angle_alpha                90
_cell_angle_beta                 129.470(5)
_cell_angle_gamma                90
_cell_volume                     1895.27
loop_
_atom_site_label
_atom_site_type_symbol
_atom_site_fract_x
_atom_site_fract_y
_atom_site_fract_z
Co1 Co 0.5000 0.75690(5) 0.2500
Co2 Co 1.0000 0.26464(4) 0.7500
S1 S 0.43419(6) 0.26976(8) 0.47725(4)
O1 O 1.05036(14) 0.38037(18) 0.69275(9)
O2 O 0.85655(16) 0.4496(2) 0.61839(12)
O3 O 1.31437(13) 0.75215(18) 0.68917(10)
O4 O 1.24651(15) 0.8467(2) 0.56878(10)
O5 O 0.79031(13) 0.90442(18) 0.34383(9)
O6 O 0.67604(13) 0.75463(18) 0.35992(9)
O7 O 0.44972(16) 0.9417(2) 0.29642(10)
H1 H 0.4841 1.0250 0.3084
H2 H 0.3733 0.9474 0.2609
N1 N 1.23064(16) 0.7805(2) 0.61448(11)
N2 N 0.13695(15) -0.0994(2) 0.32125(10)
N3 N 0.45986(15) 0.5851(2) 0.30846(10)
C1 C 0.9576(2) 0.4632(2) 0.63635(13)
C2 C 0.97546(19) 0.5810(2) 0.59019(12)
C3 C 1.09284(18) 0.6253(2) 0.62251(12)
H3 H 1.1615 0.5834 0.6731
C4 C 1.10560(18) 0.7329(2) 0.57788(12)
C5 C 1.00629(19) 0.7938(2) 0.50063(12)
H4 H 1.0178 0.8625 0.4709
C6 C 0.88892(18) 0.7496(2) 0.46879(12)
C7 C 0.87482(18) 0.6458(2) 0.51449(12)
H5 H 0.7962 0.6191 0.4939
C8 C 0.77689(19) 0.8099(3) 0.38365(12)
C9 C 0.1668(2) -0.0054(3) 0.28469(13)
H6 H 0.1264 -0.0195 0.2276
C10 C 0.2541(2) 0.1113(3) 0.32696(14)
H7 H 0.2721 0.1737 0.2988
C11 C 0.31474(19) 0.1348(2) 0.41164(13)
C12 C 0.2827(2) 0.0392(3) 0.44988(14)
H8 H 0.3201 0.0529 0.5065
C13 C 0.1953(2) -0.0755(3) 0.40322(13)
H9 H 0.1756 -0.1398 0.4298
C14 C 0.43693(19) 0.3858(2) 0.40594(13)
C15 C 0.34781(19) 0.4979(3) 0.35356(13)
H10 H 0.2793 0.5084 0.3503
C16 C 0.36280(18) 0.5938(3) 0.30630(13)
H11 H 0.3025 0.6684 0.2710
C17 C 0.5434(2) 0.4746(3) 0.35828(14)
H12 H 0.6104 0.4650 0.3597
C18 C 0.5362(2) 0.3732(3) 0.40800(15)
H13 H 0.5970 0.2982 0.4420
Co2B Co 0.0000 -0.26464(4) 0.2500
Co2_2 Co 0.0000 0.26464(4) -0.2500
Co2B_2 Co 1.0000 -0.26464(4) 0.2500
S1A S 0.56581(6) 0.26976(8) 0.02275(4)
O1A O -0.05036(14) 0.38037(18) -0.19275(9)
O1A_2 O 0.94964(14) 0.38037(18) 0.80725(9)
O2A O 0.14345(16) 0.4496(2) -0.11839(12)
O3A O -0.31437(13) 0.75215(18) -0.18917(10)
O4A O -0.24651(15) 0.8467(2) -0.06878(10)
O5A O 0.20969(13) 0.90442(18) 0.15617(9)
O6A O 0.32396(13) 0.75463(18) 0.14008(9)
O7A O 0.55028(16) 0.9417(2) 0.20358(10)
H1A H 0.5159 1.0250 0.1916
H2A H 0.6267 0.9474 0.2391
N1A N -0.23064(16) 0.7805(2) -0.11448(11)
N2A N 0.86305(15) -0.0994(2) 0.17875(10)
N2C N 1.13695(15) 0.0994(2) 0.82125(10)
N2B N 0.86305(15) 0.0994(2) 0.67875(10)
N3A N 0.54014(15) 0.5851(2) 0.19154(10)
C1A C 0.0424(2) 0.4632(2) -0.13635(13)
C2A C 0.02454(19) 0.5810(2) -0.09019(12)
C3A C -0.09284(18) 0.6253(2) -0.12251(12)
H3A H -0.1615 0.5834 -0.1731
C4A C -0.10560(18) 0.7329(2) -0.07788(12)
C5A C -0.00629(19) 0.7938(2) -0.00063(12)
H4A H -0.0178 0.8625 0.0291
C6A C 0.11108(18) 0.7496(2) 0.03121(12)
C7A C 0.12518(18) 0.6458(2) -0.01449(12)
H5A H 0.2038 0.6191 0.0061
C8A C 0.22311(19) 0.8099(3) 0.11635(12)
C9A C 0.8332(2) -0.0054(3) 0.21531(13)
H6A H 0.8736 -0.0195 0.2724
C10A C 0.7459(2) 0.1113(3) 0.17304(14)
H7A H 0.7279 0.1737 0.2012
C11A C 0.68526(19) 0.1348(2) 0.08836(13)
C12A C 0.7173(2) 0.0392(3) 0.05012(14)
H8A H 0.6799 0.0529 -0.0065
C13A C 0.8047(2) -0.0755(3) 0.09678(13)
H9A H 0.8244 -0.1398 0.0702
C14A C 0.56307(19) 0.3858(2) 0.09406(13)
C15A C 0.65219(19) 0.4979(3) 0.14644(13)
H10A H 0.7207 0.5084 0.1497
C16A C 0.63720(18) 0.5938(3) 0.19370(13)
H11A H 0.6975 0.6684 0.2290
C17A C 0.4566(2) 0.4746(3) 0.14172(14)
H12A H 0.3896 0.4650 0.1403
C18A C 0.4638(2) 0.3732(3) 0.09200(15)
H13A H 0.4030 0.2982 0.0580
loop_
_geom_bond_atom_site_label_1
_geom_bond_atom_site_label_2
_geom_bond_site_symmetry_1
_geom_bond_site_symmetry_2
Co1 O6 1_555 1_555
Co2 O1 1_555 1_555
S1 C11 1_555 1_555
O1 C1 1_555 1_555
O2 C1 1_555 1_555
O3 N1 1_555 1_555
O4 N1 1_555 1_555
O5 C8 1_555 1_555
O6 C8 1_555 1_555
O7 Co1 1_555 1_555
H1 O7 1_555 1_555
H2 O7 1_555 1_555
N1 C4 1_555 1_555
N2 C9 1_555 1_555
N3 Co1 1_555 1_555
C1 C2 1_555 1_555
C2 C3 1_555 1_555
C3 H3 1_555 1_555
C4 C3 1_555 1_555
C5 C4 1_555 1_555
H4 C5 1_555 1_555
C6 C5 1_555 1_555
C7 C2 1_555 1_555
H5 C7 1_555 1_555
C8 C6 1_555 1_555
C9 H6 1_555 1_555
C10 C9 1_555 1_555
H7 C10 1_555 1_555
C11 C10 1_555 1_555
C12 C11 1_555 1_555
H8 C12 1_555 1_555
C13 N2 1_555 1_555
H9 C13 1_555 1_555
C14 S1 1_555 1_555
C15 C14 1_555 1_555
H10 C15 1_555 1_555
C16 N3 1_555 1_555
H11 C16 1_555 1_555
C17 N3 1_555 1_555
H12 C17 1_555 1_555
C18 C14 1_555 1_555
H13 C18 1_555 1_555
Co2B N2 1_555 1_555
Co2_2 O1A 1_555 1_555
Co2B_2 N2A 1_555 1_555
S1A C11A 1_555 1_555
O1A C1A 1_555 1_555
O1A_2 Co2 1_555 1_555
O2A C1A 1_555 1_555
O3A N1A 1_555 1_555
O4A N1A 1_555 1_555
O5A C8A 1_555 1_555
O6A Co1 1_555 1_555
O7A Co1 1_555 1_555
H1A O7A 1_555 1_555
H2A O7A 1_555 1_555
N1A C4A 1_555 1_555
N2A C9A 1_555 1_555
N2C Co2 1_555 1_555
N2B Co2 1_555 1_555
N3A Co1 1_555 1_555
C1A C2A 1_555 1_555
C2A C3A 1_555 1_555
C3A H3A 1_555 1_555
C4A C3A 1_555 1_555
C5A C4A 1_555 1_555
H4A C5A 1_555 1_555
C6A C5A 1_555 1_555
C7A C2A 1_555 1_555
H5A C7A 1_555 1_555
C8A O6A 1_555 1_555
C9A H6A 1_555 1_555
C10A C9A 1_555 1_555
H7A C10A 1_555 1_555
C11A C10A 1_555 1_555
C12A C11A 1_555 1_555
H8A C12A 1_555 1_555
C13A N2A 1_555 1_555
H9A C13A 1_555 1_555
C14A S1A 1_555 1_555
C15A C14A 1_555 1_555
H10A C15A 1_555 1_555
C16A N3A 1_555 1_555
H11A C16A 1_555 1_555
C17A N3A 1_555 1_555
H12A C17A 1_555 1_555
C18A C14A 1_555 1_555
H13A C18A 1_555 1_555
C6 C7 1_555 1_555
C12 C13 1_555 1_555
C15 C16 1_555 1_555
C17 C18 1_555 1_555
C6A C7A 1_555 1_555
C6A C8A 1_555 1_555
C12A C13A 1_555 1_555
C15A C16A 1_555 1_555
C17A C18A 1_555 1_555

#END
