
#######################################################################
#
#                 Cambridge Crystallographic Data Centre
#                                CCDC 
#
#######################################################################
#
# If this CIF has been generated from an entry in the Cambridge 
# Structural Database, then it will include bibliographic, chemical, 
# crystal, experimental, refinement or atomic coordinate data resulting 
# from the CCDC's data processing and validation procedures.
#
#######################################################################

data_QOTVIF
_symmetry_cell_setting           monoclinic
_symmetry_space_group_name_H-M   'C 2/c'
_symmetry_Int_Tables_number      15
_space_group_name_Hall           '-C 2yn'
loop_
_symmetry_equiv_pos_site_id
_symmetry_equiv_pos_as_xyz
1 x,y,z
2 1/2+x,1/2+y,z
3 -x,y,1/2-z
4 1/2-x,1/2+y,1/2-z
5 -x,-y,-z
6 1/2-x,1/2-y,-z
7 x,-y,1/2+z
8 1/2+x,1/2-y,1/2+z
_cell_length_a                   13.6879(6)
_cell_length_b                   18.6173(8)
_cell_length_c                   18.2470(7)
_cell_angle_alpha                90
_cell_angle_beta                 90.3920(10)
_cell_angle_gamma                90
_cell_volume                     4649.81
loop_
_atom_site_label
_atom_site_type_symbol
_atom_site_fract_x
_atom_site_fract_y
_atom_site_fract_z
C1 C 0.9112(5) 0.2491(3) 0.5984(3)
H1 H 0.9082 0.2085 0.6279
C2 C 0.8768(4) 0.2451(3) 0.5272(3)
H2 H 0.8499 0.2025 0.5097
C3 C 0.8825(4) 0.3043(3) 0.4822(3)
C4 C 0.9211(5) 0.3667(3) 0.5113(3)
H3 H 0.9256 0.4078 0.4826
C5 C 0.9530(5) 0.3677(3) 0.5828(3)
H4 H 0.9785 0.4102 0.6016
C6 C 0.8441(5) 0.3018(3) 0.4063(3)
H5 H 0.8350 0.3441 0.3799
C7 C 0.7486(5) 0.1826(3) 0.2784(3)
Cd1 Cd 1.0000 0.31224(3) 0.7500
N1 N 0.9489(4) 0.3104(3) 0.6266(3)
N2 N 0.8235(4) 0.2413(3) 0.3771(2)
N3 N 0.7808(4) 0.2441(3) 0.3085(3)
H6 H 0.7750 0.2842 0.2856
N4 N 0.7683(5) 0.1216(3) 0.3092(3)
H7 H 0.8021 0.1204 0.3491
H8 H 0.7476 0.0823 0.2898
O1 O 1.0000 0.1856(3) 0.7500
H9 H 1.0559 0.1662 0.7458
O2 O 1.0000 0.4391(4) 0.7500
H10 H 1.0094 0.4574 0.7921
S1 S 0.68290(14) 0.18993(9) 0.19825(8)
C1G C 1.4112(5) 0.2509(3) 1.0984(3)
H1G H 1.4082 0.2915 1.1279
C2G C 1.3768(4) 0.2549(3) 1.0272(3)
H2G H 1.3499 0.2975 1.0097
C3G C 1.3825(4) 0.1957(3) 0.9822(3)
C4G C 1.4211(5) 0.1333(3) 1.0113(3)
H3G H 1.4256 0.0922 0.9826
C5G C 1.4530(5) 0.1323(3) 1.0828(3)
H4G H 1.4785 0.0898 1.1016
C6G C 1.3441(5) 0.1982(3) 0.9063(3)
H5G H 1.3350 0.1559 0.8799
C7G C 1.2486(5) 0.3174(3) 0.7784(3)
Cd1E Cd 0.5000 0.18776(3) 0.2500
Cd1E_2 Cd 1.5000 0.18776(3) 1.2500
N1G N 1.4489(4) 0.1896(3) 1.1266(3)
N1B N 1.0511(4) 0.3104(3) 0.8734(3)
N2G N 1.3235(4) 0.2587(3) 0.8771(2)
N3G N 1.2808(4) 0.2559(3) 0.8085(3)
H6G H 1.2750 0.2158 0.7856
N4G N 1.2683(5) 0.3784(3) 0.8092(3)
H7G H 1.3021 0.3796 0.8491
H8G H 1.2476 0.4177 0.7898
H9B H 0.9441 0.1662 0.7542
H10B H 0.9906 0.4574 0.7079
S1G S 1.18290(14) 0.31007(9) 0.69825(8)
S1E S 0.81710(14) 0.31007(9) 0.80175(8)
C8 C 0.9508(5) 0.1437(3) 0.0951(3)
H11 H 0.9755 0.1145 0.1322
C9 C 0.9186(5) 0.2114(3) 0.1139(3)
H12 H 0.9220 0.2272 0.1622
C10 C 0.8807(4) 0.2556(3) 0.0588(3)
C11 C 0.8769(4) 0.2285(3) -0.0124(3)
H13 H 0.8512 0.2562 -0.0503
C12 C 0.9111(4) 0.1610(3) -0.0261(3)
H14 H 0.9084 0.1439 -0.0740
C13 C 0.8421(5) 0.3269(3) 0.0759(3)
H15 H 0.8322 0.3403 0.1244
C14 C 0.7473(4) 0.4773(3) -0.0112(3)
Cd2 Cd 1.0000 0.0000 0.0000
N5 N 0.9489(4) 0.1175(2) 0.0269(3)
N6 N 0.8222(3) 0.3705(2) 0.0242(3)
N7 N 0.7791(4) 0.4345(2) 0.0434(3)
H16 H 0.7727 0.4466 0.0886
N8 N 0.7681(4) 0.4595(3) -0.0788(3)
H17 H 0.8014 0.4213 -0.0874
H18 H 0.7486 0.4861 -0.1146
O3 O 0.9995(3) -0.0231(2) 0.1272(2)
H19 H 1.0525 -0.0426 0.1413
H20 H 0.9517 -0.0497 0.1391
S2 S 0.68083(11) 0.55206(7) 0.01071(8)
C8A C 1.4508(5) -0.3563(3) 0.0951(3)
H11A H 1.4755 -0.3855 0.1322
C9A C 1.4186(5) -0.2886(3) 0.1139(3)
H12A H 1.4220 -0.2728 0.1622
C10A C 1.3807(4) -0.2444(3) 0.0588(3)
C11A C 1.3769(4) -0.2715(3) -0.0124(3)
H13A H 1.3512 -0.2438 -0.0503
C12A C 1.4111(4) -0.3390(3) -0.0261(3)
H14A H 1.4084 -0.3561 -0.0740
C13A C 1.3421(5) -0.1731(3) 0.0759(3)
H15A H 1.3322 -0.1597 0.1244
C14A C 1.2473(4) -0.0227(3) -0.0112(3)
Cd2A Cd 0.5000 0.5000 0.0000
Cd2A_2 Cd 1.5000 -0.5000 0.0000
N5A N 1.4489(4) -0.3825(2) 0.0269(3)
N5D N 1.0511(4) -0.1175(2) -0.0269(3)
N6A N 1.3222(3) -0.1295(2) 0.0242(3)
N7A N 1.2791(4) -0.0655(2) 0.0434(3)
H16A H 1.2727 -0.0534 0.0886
N8A N 1.2681(4) -0.0405(3) -0.0788(3)
H17A H 1.3014 -0.0787 -0.0874
H18A H 1.2486 -0.0139 -0.1146
O3D O 1.0005(3) 0.0231(2) -0.1272(2)
H19D H 0.9475 0.0426 -0.1413
H20D H 1.0483 0.0497 -0.1391
S2A S 1.18083(11) 0.05206(7) 0.01071(8)
S2E S 0.81917(11) -0.05206(7) -0.01071(8)
O4 O 0.7362(7) 0.9967(3) 0.2232(4)
O5 O 0.8165(4) 0.9411(3) 0.3240(2)
O6 O 0.6943(4) 0.8778(3) 0.2548(3)
O7 O 0.8480(5) 0.9021(4) 0.2021(3)
S3 S 0.77460(13) 0.93101(8) 0.25232(8)
O8 O 0.5000 0.8501(18) 0.2500
H21 H 0.5606 0.8701 0.2515
H21B H 0.4394 0.8701 0.2485
O9 O 0.9683(19) 0.5436(14) 0.8246(15)
H22 H 0.9885 0.5488 0.8684
H23 H 0.9062 0.5439 0.8238
loop_
_geom_bond_atom_site_label_1
_geom_bond_atom_site_label_2
_geom_bond_site_symmetry_1
_geom_bond_site_symmetry_2
C1 H1 1_555 1_555
C2 C1 1_555 1_555
H2 C2 1_555 1_555
C3 C2 1_555 1_555
C4 C3 1_555 1_555
H3 C4 1_555 1_555
C5 C4 1_555 1_555
H4 C5 1_555 1_555
C6 C3 1_555 1_555
H5 C6 1_555 1_555
C7 N3 1_555 1_555
Cd1 N1 1_555 1_555
N1 C1 1_555 1_555
N2 C6 1_555 1_555
N3 N2 1_555 1_555
H6 N3 1_555 1_555
N4 C7 1_555 1_555
H7 N4 1_555 1_555
H8 N4 1_555 1_555
O1 Cd1 1_555 1_555
H9 O1 1_555 1_555
O2 Cd1 1_555 1_555
H10 O2 1_555 1_555
S1 C7 1_555 1_555
C8 H11 1_555 1_555
C9 C8 1_555 1_555
H12 C9 1_555 1_555
C10 C9 1_555 1_555
C11 C10 1_555 1_555
H13 C11 1_555 1_555
C12 C11 1_555 1_555
H14 C12 1_555 1_555
C13 C10 1_555 1_555
H15 C13 1_555 1_555
C14 N7 1_555 1_555
Cd2 N5 1_555 1_555
N5 C8 1_555 1_555
N6 C13 1_555 1_555
N7 N6 1_555 1_555
H16 N7 1_555 1_555
N8 C14 1_555 1_555
H17 N8 1_555 1_555
H18 N8 1_555 1_555
O3 Cd2 1_555 1_555
H19 O3 1_555 1_555
H20 O3 1_555 1_555
S2 C14 1_555 1_555
O4 S3 1_555 1_555
O5 S3 1_555 1_555
O6 S3 1_555 1_555
O7 S3 1_555 1_555
O8 H21 1_555 1_555
O9 H22 1_555 1_555
H23 O9 1_555 1_555
C1G H1G 1_555 1_555
C2G C1G 1_555 1_555
H2G C2G 1_555 1_555
C3G C2G 1_555 1_555
C4G C3G 1_555 1_555
H3G C4G 1_555 1_555
C5G C4G 1_555 1_555
H4G C5G 1_555 1_555
C6G C3G 1_555 1_555
H5G C6G 1_555 1_555
C7G N3G 1_555 1_555
Cd1E S1 1_555 1_555
Cd1E_2 N1G 1_555 1_555
N1G C1G 1_555 1_555
N1B Cd1 1_555 1_555
N2G C6G 1_555 1_555
N3G N2G 1_555 1_555
H6G N3G 1_555 1_555
N4G C7G 1_555 1_555
H7G N4G 1_555 1_555
H8G N4G 1_555 1_555
H9B O1 1_555 1_555
H10B O2 1_555 1_555
S1G Cd1 1_555 1_555
S1E Cd1 1_555 1_555
C8A H11A 1_555 1_555
C9A C8A 1_555 1_555
H12A C9A 1_555 1_555
C10A C9A 1_555 1_555
C11A C10A 1_555 1_555
H13A C11A 1_555 1_555
C12A C11A 1_555 1_555
H14A C12A 1_555 1_555
C13A C10A 1_555 1_555
H15A C13A 1_555 1_555
C14A N7A 1_555 1_555
Cd2A S2 1_555 1_555
Cd2A_2 N5A 1_555 1_555
N5A C8A 1_555 1_555
N5D Cd2 1_555 1_555
N6A C13A 1_555 1_555
N7A N6A 1_555 1_555
H16A N7A 1_555 1_555
N8A C14A 1_555 1_555
H17A N8A 1_555 1_555
H18A N8A 1_555 1_555
O3D Cd2 1_555 1_555
H19D O3D 1_555 1_555
H20D O3D 1_555 1_555
S2A Cd2 1_555 1_555
S2E Cd2 1_555 1_555
H21B O8 1_555 1_555
C5 N1 1_555 1_555
C12 N5 1_555 1_555
C5G N1G 1_555 1_555
C7G S1G 1_555 1_555
C12A N5A 1_555 1_555
C14A S2A 1_555 1_555

#END
