
#######################################################################
#
#                 Cambridge Crystallographic Data Centre
#                                CCDC 
#
#######################################################################
#
# If this CIF has been generated from an entry in the Cambridge 
# Structural Database, then it will include bibliographic, chemical, 
# crystal, experimental, refinement or atomic coordinate data resulting 
# from the CCDC's data processing and validation procedures.
#
#######################################################################

data_QOTWAZ
_symmetry_cell_setting           monoclinic
_symmetry_space_group_name_H-M   'P 21/c'
_symmetry_Int_Tables_number      14
_space_group_name_Hall           '-P 2ybc'
loop_
_symmetry_equiv_pos_site_id
_symmetry_equiv_pos_as_xyz
1 x,y,z
2 -x,1/2+y,1/2-z
3 -x,-y,-z
4 x,1/2-y,1/2+z
_cell_length_a                   6.941(2)
_cell_length_b                   24.440(8)
_cell_length_c                   13.040(4)
_cell_angle_alpha                90
_cell_angle_beta                 107.867(13)
_cell_angle_gamma                90
_cell_volume                     2105.39
loop_
_atom_site_label
_atom_site_type_symbol
_atom_site_fract_x
_atom_site_fract_y
_atom_site_fract_z
C1 C 0.8472(16) 0.8481(4) 0.7588(7)
C2 C 0.7572(15) 0.8295(4) 0.6371(8)
C3 C 0.7252(15) 0.8595(5) 0.5447(9)
C4 C 0.6327(15) 0.8297(4) 0.4481(9)
H1 H 0.5997 0.8445 0.3792
C5 C 0.5992(15) 0.7771(4) 0.4701(8)
C6 C 0.4995(16) 0.7328(5) 0.3969(9)
C7 C 1.1538(17) 0.7861(5) 0.5544(10)
H2 H 1.1493 0.7562 0.5976
C8 C 1.1007(17) 0.7852(5) 0.4487(10)
H3 H 1.0523 0.7553 0.4041
C9 C 1.253(2) 0.9275(5) 0.5071(12)
H4 H 1.1294 0.9479 0.4793
H5 H 1.3381 0.9337 0.4627
H6 H 1.3211 0.9391 0.5794
C10 C 1.2049(17) 0.8687(5) 0.5068(9)
C11 C 1.1103(19) 0.8540(6) 0.3060(9)
H7 H 1.1259 0.8214 0.2668
H8 H 1.2191 0.8789 0.3059
C12 C 0.9112(18) 0.8807(5) 0.2470(9)
H9 H 0.8848 0.9105 0.2900
H10 H 0.8027 0.8542 0.2359
C13 C 0.9162(19) 0.9029(5) 0.1372(9)
H11 H 1.0219 0.9304 0.1497
H12 H 0.9519 0.8732 0.0971
C14 C 0.7199(18) 0.9279(5) 0.0693(9)
H13 H 0.7372 0.9414 0.0027
H14 H 0.6163 0.8997 0.0509
C15 C 0.8749(18) 1.0457(5) 0.0847(10)
H15 H 1.0072 1.0376 0.1327
H16 H 0.8599 1.0846 0.0750
H17 H 0.8585 1.0285 0.0163
C16 C 0.7194(16) 1.0247(5) 0.1310(8)
C17 C 0.4938(17) 1.0200(5) 0.2151(10)
H18 H 0.4084 1.0294 0.2550
C18 C 0.5064(16) 0.9686(5) 0.1744(9)
H19 H 0.4321 0.9377 0.1800
Cd1 Cd 1.34568(12) 0.85607(3) 0.77063(6)
N1 N 1.2193(14) 0.8397(4) 0.5931(8)
N2 N 1.1320(14) 0.8388(4) 0.4164(8)
N3 N 0.6518(14) 0.9727(4) 0.1236(7)
N4 N 0.6259(13) 1.0555(4) 0.1884(7)
N5 N 0.7766(15) 0.9168(4) 0.5451(9)
O1 O 1.0263(10) 0.8409(3) 0.7976(6)
O2 O 0.7125(10) 0.8633(3) 0.7940(6)
O3 O 0.4401(12) 0.7420(3) 0.2958(6)
O4 O 0.4740(11) 0.6866(3) 0.4368(6)
O5 O 0.7345(15) 0.9400(4) 0.4573(8)
O6 O 0.8582(14) 0.9389(4) 0.6310(7)
S1 S 0.6793(4) 0.76417(11) 0.6074(2)
Cd1_2 Cd 0.34568(12) 0.85607(3) 0.77063(6)
Cd1B Cd 0.65432(12) 1.14393(3) 0.22937(6)
Cd1C Cd 0.34568(12) 0.64393(3) 0.27063(6)
N4B N 1.3741(13) 0.9445(4) 0.8116(7)
O2_2 O 1.7125(10) 0.8633(3) 0.7940(6)
O3C O 1.4401(12) 0.7580(3) 0.7958(6)
O4C O 1.4740(11) 0.8134(3) 0.9368(6)
O7 O 0.3797(15) 0.8369(4) 0.1433(8)
H20 H 0.4062 0.8306 0.0850
H21 H 0.3975 0.8101 0.1868
loop_
_geom_bond_atom_site_label_1
_geom_bond_atom_site_label_2
_geom_bond_site_symmetry_1
_geom_bond_site_symmetry_2
C1 C2 1_555 1_555
C2 C3 1_555 1_555
C3 C4 1_555 1_555
C4 H1 1_555 1_555
C5 C4 1_555 1_555
C6 C5 1_555 1_555
C7 H2 1_555 1_555
C8 C7 1_555 1_555
H3 C8 1_555 1_555
C9 H4 1_555 1_555
H5 C9 1_555 1_555
H6 C9 1_555 1_555
C10 C9 1_555 1_555
C11 H7 1_555 1_555
H8 C11 1_555 1_555
C12 C11 1_555 1_555
H9 C12 1_555 1_555
H10 C12 1_555 1_555
C13 C12 1_555 1_555
H11 C13 1_555 1_555
H12 C13 1_555 1_555
C14 C13 1_555 1_555
H13 C14 1_555 1_555
H14 C14 1_555 1_555
C15 H15 1_555 1_555
H16 C15 1_555 1_555
H17 C15 1_555 1_555
C16 C15 1_555 1_555
C17 H18 1_555 1_555
C18 C17 1_555 1_555
H19 C18 1_555 1_555
Cd1 N1 1_555 1_555
N1 C7 1_555 1_555
N2 C8 1_555 1_555
N3 C14 1_555 1_555
N4 C16 1_555 1_555
N5 C3 1_555 1_555
O1 C1 1_555 1_555
O2 C1 1_555 1_555
O3 C6 1_555 1_555
O4 C6 1_555 1_555
O5 N5 1_555 1_555
O6 N5 1_555 1_555
S1 C2 1_555 1_555
O7 H20 1_555 1_555
H21 O7 1_555 1_555
Cd1_2 O2 1_555 1_555
Cd1B N4 1_555 1_555
Cd1C O3 1_555 1_555
N4B Cd1 1_555 1_555
O2_2 Cd1 1_555 1_555
O3C Cd1 1_555 1_555
O4C Cd1 1_555 1_555
C5 S1 1_555 1_555
C10 N1 1_555 1_555
C10 N2 1_555 1_555
C11 N2 1_555 1_555
C16 N3 1_555 1_555
C17 N4 1_555 1_555
C18 N3 1_555 1_555
Cd1 O1 1_555 1_555
O4 Cd1C 1_555 1_555

#END
