
#######################################################################
#
#                 Cambridge Crystallographic Data Centre
#                                CCDC 
#
#######################################################################
#
# If this CIF has been generated from an entry in the Cambridge 
# Structural Database, then it will include bibliographic, chemical, 
# crystal, experimental, refinement or atomic coordinate data resulting 
# from the CCDC's data processing and validation procedures.
#
#######################################################################

data_QOTXUU
_symmetry_cell_setting           monoclinic
_symmetry_space_group_name_H-M   'P 21/n'
_symmetry_Int_Tables_number      14
_space_group_name_Hall           '-P 2yn'
loop_
_symmetry_equiv_pos_site_id
_symmetry_equiv_pos_as_xyz
1 x,y,z
2 1/2-x,1/2+y,1/2-z
3 -x,-y,-z
4 1/2+x,1/2-y,1/2+z
_cell_length_a                   8.2264(2)
_cell_length_b                   18.0498(5)
_cell_length_c                   17.5389(5)
_cell_angle_alpha                90
_cell_angle_beta                 92.405(2)
_cell_angle_gamma                90
_cell_volume                     2601.97
loop_
_atom_site_label
_atom_site_type_symbol
_atom_site_fract_x
_atom_site_fract_y
_atom_site_fract_z
Ru1 Ru 0.62639(2) 0.103153(12) 0.325365(11)
Ru2 Ru 0.76874(2) 0.189899(12) 0.394046(11)
O1 O 0.4908(2) 0.03710(11) 0.23132(10)
O2 O 0.4008(2) 0.05065(12) 0.10994(10)
O3 O 0.8870(2) 0.29403(11) 0.44017(10)
O4 O 0.8767(3) 0.41609(12) 0.41990(12)
O5 O 0.8360(2) 0.06923(11) 0.27726(10)
O6 O 0.9763(2) 0.15598(11) 0.34327(10)
O7 O 0.6732(2) 0.02787(11) 0.41286(10)
O8 O 0.8198(2) 0.11242(11) 0.47863(10)
O9 O 0.4189(2) 0.13658(11) 0.37828(10)
O10 O 0.5613(2) 0.22003(11) 0.44728(10)
N1 N 0.5845(2) 0.17707(12) 0.24018(12)
N2 N 0.7161(2) 0.26678(12) 0.31346(12)
C1 C 0.4621(3) 0.07403(16) 0.17154(15)
C2 C 0.5062(3) 0.15546(16) 0.17495(14)
C3 C 0.4685(3) 0.20521(17) 0.11596(15)
H1 H 0.4137 0.1882 0.0705
C4 C 0.5101(3) 0.27821(17) 0.12321(15)
H2 H 0.4821 0.3122 0.0834
C5 C 0.5950(3) 0.30306(16) 0.19033(15)
C6 C 0.6319(3) 0.24948(15) 0.24689(14)
C7 C 0.6467(3) 0.37636(17) 0.20425(16)
H3 H 0.6255 0.4138 0.1671
C8 C 0.7280(3) 0.39321(16) 0.27200(16)
H4 H 0.7616 0.4427 0.2824
C9 C 0.7613(3) 0.33748(16) 0.32557(15)
C10 C 0.8495(3) 0.35068(16) 0.40151(15)
C11 C 0.9673(3) 0.10296(16) 0.29620(15)
C12 C 1.1204(3) 0.0793(2) 0.25968(17)
H5 H 1.2115 0.1096 0.2794
H6 H 1.1076 0.0857 0.2043
H7 H 1.1421 0.0270 0.2715
C13 C 0.7607(3) 0.04781(17) 0.47023(15)
C14 C 0.7964(4) -0.00819(19) 0.53180(18)
H8 H 0.8646 0.0145 0.5726
H9 H 0.8538 -0.0505 0.5105
H10 H 0.6941 -0.0252 0.5526
C15 C 0.4294(3) 0.18729(16) 0.42793(15)
C16 C 0.2797(3) 0.20967(18) 0.46768(17)
H11 H 0.1868 0.1806 0.4477
H12 H 0.2584 0.2625 0.4588
H13 H 0.2957 0.2006 0.5226
Ca1 Ca 1.0000 0.5000 0.5000
O11 O 0.7551(3) 0.56840(13) 0.47843(12)
C17 C 0.5803(4) 0.5814(2) 0.58086(19)
H14 H 0.6706 0.5578 0.6098
H15 H 0.4822 0.5510 0.5841
H16 H 0.5603 0.6306 0.6022
C18 C 0.6227(4) 0.58899(17) 0.49956(18)
C19 C 0.5002(4) 0.6230(2) 0.4460(2)
H17 H 0.5429 0.6245 0.3946
H18 H 0.4767 0.6736 0.4627
H19 H 0.4001 0.5936 0.4451
Ru1B Ru 1.37361(2) 0.896847(12) 0.674635(11)
Ru2B Ru 1.23126(2) 0.810101(12) 0.605954(11)
O1B O 1.5092(2) 0.96290(11) 0.76868(10)
O2B O 1.5992(2) 0.94935(12) 0.89006(10)
O3B O 1.1130(2) 0.70597(11) 0.55983(10)
O4B O 1.1233(3) 0.58391(12) 0.58010(12)
O5B O 1.1640(2) 0.93077(11) 0.72274(10)
O6B O 1.0237(2) 0.84402(11) 0.65673(10)
O7B O 1.3268(2) 0.97213(11) 0.58714(10)
O8B O 1.1802(2) 0.88758(11) 0.52137(10)
O9B O 1.5811(2) 0.86342(11) 0.62172(10)
O10B O 1.4387(2) 0.77997(11) 0.55272(10)
N1B N 1.4155(2) 0.82293(12) 0.75982(12)
N2B N 1.2839(2) 0.73322(12) 0.68654(12)
C1B C 1.5379(3) 0.92597(16) 0.82846(15)
C2B C 1.4938(3) 0.84454(16) 0.82505(14)
C3B C 1.5315(3) 0.79479(17) 0.88404(15)
H1B H 1.5863 0.8118 0.9295
C4B C 1.4899(3) 0.72179(17) 0.87679(15)
H2B H 1.5179 0.6878 0.9166
C5B C 1.4050(3) 0.69694(16) 0.80967(15)
C6B C 1.3681(3) 0.75052(15) 0.75311(14)
C7B C 1.3533(3) 0.62364(17) 0.79575(16)
H3B H 1.3745 0.5862 0.8329
C8B C 1.2720(3) 0.60679(16) 0.72800(16)
H4B H 1.2384 0.5573 0.7176
C9B C 1.2387(3) 0.66252(16) 0.67443(15)
C10B C 1.1505(3) 0.64932(16) 0.59849(15)
C11B C 1.0327(3) 0.89704(16) 0.70380(15)
C12B C 0.8796(3) 0.9207(2) 0.74032(17)
H5B H 0.7885 0.8904 0.7206
H6B H 0.8924 0.9143 0.7957
H7B H 0.8579 0.9730 0.7285
C13B C 1.2393(3) 0.95219(17) 0.52977(15)
C14B C 1.2036(4) 1.00819(19) 0.46820(18)
H8B H 1.1354 0.9855 0.4274
H9B H 1.1462 1.0505 0.4895
H10B H 1.3059 1.0252 0.4474
C15B C 1.5706(3) 0.81271(16) 0.57207(15)
C16B C 1.7203(3) 0.79033(18) 0.53232(17)
H11B H 1.8132 0.8194 0.5523
H12B H 1.7416 0.7375 0.5412
H13B H 1.7043 0.7994 0.4774
O11B O 1.2449(3) 0.43160(13) 0.52157(12)
C17B C 1.4197(4) 0.4186(2) 0.41914(19)
H14B H 1.3294 0.4422 0.3902
H15B H 1.5178 0.4490 0.4159
H16B H 1.4397 0.3694 0.3978
C18B C 1.3773(4) 0.41101(17) 0.50044(18)
C19B C 1.4998(4) 0.3770(2) 0.5540(2)
H17B H 1.4571 0.3755 0.6054
H18B H 1.5233 0.3264 0.5373
H19B H 1.5999 0.4064 0.5549
O2A O 1.0992(2) 0.55065(12) 0.39006(10)
O2C O 0.9008(2) 0.44935(12) 0.60994(10)
Ca1A Ca 0.5000 0.0000 0.0000
Ca1A_2 Ca 1.5000 1.0000 1.0000
O12 O 0.9725(3) 0.26059(16) 0.17738(14)
C20 C 1.1612(5) 0.3110(3) 0.2687(2)
H20 H 1.1392 0.2654 0.2968
H21 H 1.1306 0.3540 0.2991
H22 H 1.2773 0.3137 0.2587
C21 C 1.0646(4) 0.3110(2) 0.1950(2)
C22 C 1.0833(5) 0.3770(2) 0.1450(2)
H23 H 1.0150 0.3710 0.0983
H24 H 1.1974 0.3819 0.1318
H25 H 1.0497 0.4216 0.1721
loop_
_geom_bond_atom_site_label_1
_geom_bond_atom_site_label_2
_geom_bond_site_symmetry_1
_geom_bond_site_symmetry_2
Ru1 Ru2 1_555 1_555
Ru2 O3 1_555 1_555
O1 Ru1 1_555 1_555
O2 C1 1_555 1_555
O3 C10 1_555 1_555
O4 C10 1_555 1_555
O5 Ru1 1_555 1_555
O6 Ru2 1_555 1_555
O7 Ru1 1_555 1_555
O8 Ru2 1_555 1_555
O9 Ru1 1_555 1_555
O10 Ru2 1_555 1_555
N1 Ru1 1_555 1_555
N2 Ru2 1_555 1_555
C1 O1 1_555 1_555
C2 N1 1_555 1_555
C3 C2 1_555 1_555
H1 C3 1_555 1_555
C4 C3 1_555 1_555
H2 C4 1_555 1_555
C5 C4 1_555 1_555
C6 N1 1_555 1_555
C7 C5 1_555 1_555
H3 C7 1_555 1_555
C8 C7 1_555 1_555
H4 C8 1_555 1_555
C9 N2 1_555 1_555
C10 C9 1_555 1_555
C11 O5 1_555 1_555
C12 C11 1_555 1_555
H5 C12 1_555 1_555
H6 C12 1_555 1_555
H7 C12 1_555 1_555
C13 O7 1_555 1_555
C14 C13 1_555 1_555
H8 C14 1_555 1_555
H9 C14 1_555 1_555
H10 C14 1_555 1_555
C15 O9 1_555 1_555
C16 C15 1_555 1_555
H11 C16 1_555 1_555
H12 C16 1_555 1_555
H13 C16 1_555 1_555
Ca1 O4 1_555 1_555
O11 Ca1 1_555 1_555
C17 H14 1_555 1_555
H15 C17 1_555 1_555
H16 C17 1_555 1_555
C18 O11 1_555 1_555
C19 C18 1_555 1_555
H17 C19 1_555 1_555
H18 C19 1_555 1_555
H19 C19 1_555 1_555
O12 C21 1_555 1_555
C20 H20 1_555 1_555
H21 C20 1_555 1_555
H22 C20 1_555 1_555
C21 C20 1_555 1_555
C22 C21 1_555 1_555
H23 C22 1_555 1_555
H24 C22 1_555 1_555
H25 C22 1_555 1_555
Ru1B Ru2B 1_555 1_555
Ru2B O3B 1_555 1_555
O1B Ru1B 1_555 1_555
O2B C1B 1_555 1_555
O3B C10B 1_555 1_555
O4B Ca1 1_555 1_555
O5B Ru1B 1_555 1_555
O6B Ru2B 1_555 1_555
O7B Ru1B 1_555 1_555
O8B Ru2B 1_555 1_555
O9B Ru1B 1_555 1_555
O10B Ru2B 1_555 1_555
N1B Ru1B 1_555 1_555
N2B Ru2B 1_555 1_555
C1B O1B 1_555 1_555
C2B N1B 1_555 1_555
C3B C2B 1_555 1_555
H1B C3B 1_555 1_555
C4B C3B 1_555 1_555
H2B C4B 1_555 1_555
C5B C4B 1_555 1_555
C6B N1B 1_555 1_555
C7B C5B 1_555 1_555
H3B C7B 1_555 1_555
C8B C7B 1_555 1_555
H4B C8B 1_555 1_555
C9B N2B 1_555 1_555
C10B O4B 1_555 1_555
C11B O5B 1_555 1_555
C12B C11B 1_555 1_555
H5B C12B 1_555 1_555
H6B C12B 1_555 1_555
H7B C12B 1_555 1_555
C13B O7B 1_555 1_555
C14B C13B 1_555 1_555
H8B C14B 1_555 1_555
H9B C14B 1_555 1_555
H10B C14B 1_555 1_555
C15B O9B 1_555 1_555
C16B C15B 1_555 1_555
H11B C16B 1_555 1_555
H12B C16B 1_555 1_555
H13B C16B 1_555 1_555
O11B Ca1 1_555 1_555
C17B H14B 1_555 1_555
H15B C17B 1_555 1_555
H16B C17B 1_555 1_555
C18B O11B 1_555 1_555
C19B C18B 1_555 1_555
H17B C19B 1_555 1_555
H18B C19B 1_555 1_555
H19B C19B 1_555 1_555
O2A Ca1 1_555 1_555
O2C Ca1 1_555 1_555
Ca1A O2 1_555 1_555
Ca1A_2 O2B 1_555 1_555
O6 C11 1_555 1_555
O8 C13 1_555 1_555
O10 C15 1_555 1_555
N2 C6 1_555 1_555
C1 C2 1_555 1_555
C5 C6 1_555 1_555
C8 C9 1_555 1_555
C17 C18 1_555 1_555
O6B C11B 1_555 1_555
O8B C13B 1_555 1_555
O10B C15B 1_555 1_555
N2B C6B 1_555 1_555
C1B C2B 1_555 1_555
C5B C6B 1_555 1_555
C8B C9B 1_555 1_555
C9B C10B 1_555 1_555
C17B C18B 1_555 1_555

#END
