
#######################################################################
#
#                 Cambridge Crystallographic Data Centre
#                                CCDC 
#
#######################################################################
#
# If this CIF has been generated from an entry in the Cambridge 
# Structural Database, then it will include bibliographic, chemical, 
# crystal, experimental, refinement or atomic coordinate data resulting 
# from the CCDC's data processing and validation procedures.
#
#######################################################################

data_QOTZOP
_symmetry_cell_setting           orthorhombic
_symmetry_space_group_name_H-M   'P 21 21 21'
_symmetry_Int_Tables_number      19
_space_group_name_Hall           'P 2ac 2ab'
loop_
_symmetry_equiv_pos_site_id
_symmetry_equiv_pos_as_xyz
1 x,y,z
2 1/2-x,-y,1/2+z
3 -x,1/2+y,1/2-z
4 1/2+x,1/2-y,-z
_cell_length_a                   4.8436(2)
_cell_length_b                   6.6125(3)
_cell_length_c                   26.2382(13)
_cell_angle_alpha                90
_cell_angle_beta                 90
_cell_angle_gamma                90
_cell_volume                     840.365
loop_
_atom_site_label
_atom_site_type_symbol
_atom_site_fract_x
_atom_site_fract_y
_atom_site_fract_z
C1 C -0.0246(12) 0.0424(8) 0.8811(2)
H1 H -0.1980 0.0922 0.8666
C2 C 0.0901(16) -0.1103(10) 0.8431(2)
H2 H 0.2632 -0.1640 0.8559
H3 H -0.0385 -0.2219 0.8397
C3 C 0.1379(14) -0.0145(11) 0.7910(2)
H4 H 0.2216 -0.1133 0.7685
H5 H -0.0383 0.0247 0.7764
C4 C 0.3238(16) 0.1701(12) 0.7945(2)
H6 H 0.3334 0.2352 0.7614
H7 H 0.5088 0.1279 0.8038
C5 C 0.2166(16) 0.3221(10) 0.8341(2)
H8 H 0.0460 0.3811 0.8217
H9 H 0.3502 0.4305 0.8377
C6 C 0.1640(13) 0.2272(9) 0.8866(2)
H10 H 0.3405 0.1845 0.9014
C7 C -0.0990(12) -0.0575(9) 0.9308(2)
C8 C 0.0339(12) 0.3833(8) 0.9208(2)
O1 O -0.3113(10) -0.1636(7) 0.93149(18)
O2 O 0.0700(10) -0.0339(7) 0.96718(14)
O3 O -0.2242(9) 0.3759(8) 0.92605(17)
O4 O 0.1776(10) 0.5206(7) 0.93983(18)
Zn1 Zn 0.05870(15) -0.08464(11) 1.03956(2)
O1C O 0.1887(10) -0.3364(7) 1.06851(18)
O3C O 0.2758(9) 0.1241(8) 1.07395(17)
O4C O -0.3224(10) -0.0206(7) 1.06017(18)
Zn1C Zn -0.44130(15) -0.41536(11) 0.96044(2)
Zn1C_2 Zn -0.44130(15) 0.58464(11) 0.96044(2)
Zn1C_3 Zn 0.55870(15) 0.58464(11) 0.96044(2)
loop_
_geom_bond_atom_site_label_1
_geom_bond_atom_site_label_2
_geom_bond_site_symmetry_1
_geom_bond_site_symmetry_2
C1 H1 1_555 1_555
C2 C1 1_555 1_555
H2 C2 1_555 1_555
H3 C2 1_555 1_555
C3 C2 1_555 1_555
H4 C3 1_555 1_555
H5 C3 1_555 1_555
C4 C3 1_555 1_555
H6 C4 1_555 1_555
H7 C4 1_555 1_555
C5 C4 1_555 1_555
H8 C5 1_555 1_555
H9 C5 1_555 1_555
C6 C1 1_555 1_555
H10 C6 1_555 1_555
C7 C1 1_555 1_555
C8 C6 1_555 1_555
O1 C7 1_555 1_555
O2 C7 1_555 1_555
O3 C8 1_555 1_555
O4 C8 1_555 1_555
Zn1 O2 1_555 1_555
O1C Zn1 1_555 1_555
O3C Zn1 1_555 1_555
O4C Zn1 1_555 1_555
Zn1C O1 1_555 1_555
Zn1C_2 O3 1_555 1_555
Zn1C_3 O4 1_555 1_555
C5 C6 1_555 1_555

#END
