
#######################################################################
#
#                 Cambridge Crystallographic Data Centre
#                                CCDC 
#
#######################################################################
#
# If this CIF has been generated from an entry in the Cambridge 
# Structural Database, then it will include bibliographic, chemical, 
# crystal, experimental, refinement or atomic coordinate data resulting 
# from the CCDC's data processing and validation procedures.
#
#######################################################################

data_QOVCIP
_symmetry_cell_setting           monoclinic
_symmetry_space_group_name_H-M   'C 2/c'
_symmetry_Int_Tables_number      15
_space_group_name_Hall           '-C 2yn'
loop_
_symmetry_equiv_pos_site_id
_symmetry_equiv_pos_as_xyz
1 x,y,z
2 -x,y,1/2-z
3 1/2+x,1/2+y,z
4 1/2-x,1/2+y,1/2-z
5 -x,-y,-z
6 x,-y,1/2+z
7 1/2-x,1/2-y,-z
8 1/2+x,1/2-y,1/2+z
_cell_length_a                   12.6068(5)
_cell_length_b                   9.9798(4)
_cell_length_c                   22.7581(9)
_cell_angle_alpha                90
_cell_angle_beta                 100.174(2)
_cell_angle_gamma                90
_cell_volume                     2818.25
loop_
_atom_site_label
_atom_site_type_symbol
_atom_site_fract_x
_atom_site_fract_y
_atom_site_fract_z
Sn1 Sn 0.69602(2) 0.44371(2) 0.23090(2)
O1 O 0.61758(15) 0.28730(18) 0.17044(8)
O2 O 0.72746(19) 0.1326(2) 0.21529(9)
O3 O 0.6779(3) 0.4159(3) 0.04647(14)
O4 O 0.7472(2) 0.2230(3) 0.07130(12)
N1 N 0.6705(3) 0.2954(3) 0.05335(12)
C1 C 0.6587(3) 0.3576(3) 0.30997(13)
H1 H 0.5941 0.3052 0.3003
H2 H 0.6480 0.4275 0.3373
H3 H 0.7170 0.3011 0.3281
C2 C 0.5890(3) 0.5844(3) 0.18216(15)
H4 H 0.5272 0.5954 0.2010
H5 H 0.5664 0.5527 0.1421
H6 H 0.6250 0.6690 0.1813
C3 C 0.8483(3) 0.4203(4) 0.20539(16)
H7 H 0.8964 0.3757 0.2367
H8 H 0.8770 0.5068 0.1984
H9 H 0.8406 0.3679 0.1695
C4 C 0.6539(2) 0.1693(3) 0.17451(12)
C5 C 0.6056(3) 0.0706(3) 0.12693(13)
H10 H 0.6640 0.0225 0.1137
H11 H 0.5639 0.0056 0.1450
C6 C 0.5342(2) 0.1286(3) 0.07277(11)
C7 C 0.4315(3) 0.0782(3) 0.05457(13)
H12 H 0.4080 0.0084 0.0761
C8 C 0.3627(3) 0.1280(4) 0.00569(14)
H13 H 0.2946 0.0907 -0.0056
C9 C 0.3944(3) 0.2319(4) -0.02628(15)
H14 H 0.3480 0.2656 -0.0593
C10 C 0.4947(3) 0.2861(3) -0.00945(14)
H15 H 0.5163 0.3580 -0.0305
C11 C 0.5636(2) 0.2338(3) 0.03875(12)
Sn1C Sn 0.80398(2) -0.05629(2) 0.26910(2)
O2C O 0.77254(19) 0.6326(2) 0.28471(9)
loop_
_geom_bond_atom_site_label_1
_geom_bond_atom_site_label_2
_geom_bond_site_symmetry_1
_geom_bond_site_symmetry_2
Sn1 O1 1_555 1_555
O1 C4 1_555 1_555
O2 C4 1_555 1_555
O3 N1 1_555 1_555
O4 N1 1_555 1_555
N1 C11 1_555 1_555
C1 Sn1 1_555 1_555
H1 C1 1_555 1_555
H2 C1 1_555 1_555
H3 C1 1_555 1_555
C2 Sn1 1_555 1_555
H4 C2 1_555 1_555
H5 C2 1_555 1_555
H6 C2 1_555 1_555
C3 Sn1 1_555 1_555
H7 C3 1_555 1_555
H8 C3 1_555 1_555
H9 C3 1_555 1_555
C4 C5 1_555 1_555
C5 H10 1_555 1_555
H11 C5 1_555 1_555
C6 C5 1_555 1_555
C7 C6 1_555 1_555
H12 C7 1_555 1_555
C8 C7 1_555 1_555
H13 C8 1_555 1_555
C9 C8 1_555 1_555
H14 C9 1_555 1_555
C10 C9 1_555 1_555
H15 C10 1_555 1_555
C11 C6 1_555 1_555
Sn1C O2 1_555 1_555
O2C Sn1 1_555 1_555
C10 C11 1_555 1_555

#END
