
#######################################################################
#
#                 Cambridge Crystallographic Data Centre
#                                CCDC 
#
#######################################################################
#
# If this CIF has been generated from an entry in the Cambridge 
# Structural Database, then it will include bibliographic, chemical, 
# crystal, experimental, refinement or atomic coordinate data resulting 
# from the CCDC's data processing and validation procedures.
#
#######################################################################

data_QOVDIP
_symmetry_cell_setting           orthorhombic
_symmetry_space_group_name_H-M   'P n a 21'
_symmetry_Int_Tables_number      33
_space_group_name_Hall           'P 2c -2n'
loop_
_symmetry_equiv_pos_site_id
_symmetry_equiv_pos_as_xyz
1 x,y,z
2 -x,-y,1/2+z
3 1/2+x,1/2-y,z
4 1/2-x,1/2+y,1/2+z
_cell_length_a                   9.2333(18)
_cell_length_b                   9.2163(18)
_cell_length_c                   14.101(3)
_cell_angle_alpha                90
_cell_angle_beta                 90
_cell_angle_gamma                90
_cell_volume                     1199.95
loop_
_atom_site_label
_atom_site_type_symbol
_atom_site_fract_x
_atom_site_fract_y
_atom_site_fract_z
O1 O 0.5044(5) 1.2574(5) 0.3939(3)
O2 O 0.4266(4) 1.3874(4) 0.2309(3)
C1 C 0.3425(7) 1.2932(7) 0.2640(4)
Co1 Co 0.11792(7) 1.08924(7) 0.30925(11)
C2 C 0.3876(6) 1.2177(7) 0.3569(4)
O3 O 0.3038(5) 1.1224(4) 0.3891(3)
O4 O 0.2237(5) 1.2560(5) 0.2294(3)
C3 C 0.1633(8) 0.7791(7) 0.2550(5)
C4 C 0.0832(8) 0.7718(7) 0.3458(5)
N1 N 0.1983(6) 0.9123(6) 0.2254(4)
N2 N 0.0502(6) 0.9010(5) 0.3861(4)
C5 C 0.2749(8) 0.9265(8) 0.1462(5)
H1 H 0.3012 1.0189 0.1262
C6 C -0.0191(8) 0.9026(8) 0.4686(5)
H2 H -0.0402 0.9916 0.4964
C7 C 0.2031(9) 0.6552(8) 0.2047(6)
H3 H 0.1776 0.5634 0.2264
C8 C -0.0611(9) 0.7770(9) 0.5146(5)
H4 H -0.1083 0.7819 0.5728
C9 C 0.0401(9) 0.6451(8) 0.3887(6)
H5 H 0.0604 0.5569 0.3596
C10 C 0.3166(9) 0.8083(11) 0.0928(6)
H6 H 0.3686 0.8209 0.0369
C11 C -0.0327(10) 0.6461(9) 0.4741(6)
H7 H -0.0615 0.5601 0.5031
C12 C 0.2799(10) 0.6717(9) 0.1236(6)
H8 H 0.3077 0.5907 0.0888
O1B O 0.0044(5) 1.2426(5) 0.3939(3)
O2B O -0.0734(4) 1.1126(4) 0.2309(3)
Co1B Co 0.61792(7) 1.41076(7) 0.30925(11)
loop_
_geom_bond_atom_site_label_1
_geom_bond_atom_site_label_2
_geom_bond_site_symmetry_1
_geom_bond_site_symmetry_2
O1 C2 1_555 1_555
O2 C1 1_555 1_555
C1 C2 1_555 1_555
Co1 O3 1_555 1_555
C2 O3 1_555 1_555
O4 C1 1_555 1_555
C3 C4 1_555 1_555
C4 N2 1_555 1_555
N1 Co1 1_555 1_555
N2 Co1 1_555 1_555
C5 N1 1_555 1_555
H1 C5 1_555 1_555
C6 N2 1_555 1_555
H2 C6 1_555 1_555
C7 C3 1_555 1_555
H3 C7 1_555 1_555
C8 C6 1_555 1_555
H4 C8 1_555 1_555
C9 C4 1_555 1_555
H5 C9 1_555 1_555
C10 C5 1_555 1_555
H6 C10 1_555 1_555
C11 C8 1_555 1_555
H7 C11 1_555 1_555
C12 C7 1_555 1_555
H8 C12 1_555 1_555
O1B Co1 1_555 1_555
O2B Co1 1_555 1_555
Co1B O1 1_555 1_555
O2 Co1B 1_555 1_555
Co1 O4 1_555 1_555
C3 N1 1_555 1_555
C9 C11 1_555 1_555
C10 C12 1_555 1_555

#END
