
#######################################################################
#
#                 Cambridge Crystallographic Data Centre
#                                CCDC 
#
#######################################################################
#
# If this CIF has been generated from an entry in the Cambridge 
# Structural Database, then it will include bibliographic, chemical, 
# crystal, experimental, refinement or atomic coordinate data resulting 
# from the CCDC's data processing and validation procedures.
#
#######################################################################

data_QOVFAI
_symmetry_cell_setting           monoclinic
_symmetry_space_group_name_H-M   'P 21/a'
_symmetry_Int_Tables_number      14
_space_group_name_Hall           '-P 2yab'
loop_
_symmetry_equiv_pos_site_id
_symmetry_equiv_pos_as_xyz
1 x,y,z
2 1/2+x,1/2-y,z
3 -x,-y,-z
4 1/2-x,1/2+y,-z
_cell_length_a                   18.818(3)
_cell_length_b                   14.390(2)
_cell_length_c                   22.690(3)
_cell_angle_alpha                90.0
_cell_angle_beta                 111.24(1)
_cell_angle_gamma                90.0
_cell_volume                     5726.88
loop_
_atom_site_label
_atom_site_type_symbol
_atom_site_fract_x
_atom_site_fract_y
_atom_site_fract_z
I1 I 0.37546(5) 0.54992(6) 0.94210(4)
I2 I 0.37795(4) 0.44303(5) 1.04819(4)
I3 I 0.38735(5) 0.34092(5) 1.16800(5)
I4 I 0.21292(5) 0.28506(5) 1.16979(4)
I5 I 0.07474(5) 0.23328(6) 1.17673(4)
I6 I -0.11978(5) 0.43620(5) 0.49661(4)
I7 I -0.07523(4) 0.60240(5) 0.56621(4)
I8 I -0.04310(4) 0.79211(5) 0.63526(5)
I9 I 0.27167(4) 0.74579(5) 0.63064(4)
I10 I 0.12703(4) 0.77568(5) 0.63233(4)
Rb1 Rb 0.28912(5) 0.25668(6) 0.72706(5)
C1 C 0.4480(5) 0.2331(8) 0.8824(5)
O1 O 0.4451(4) 0.2847(4) 0.8308(3)
C2 C 0.4681(6) 0.3800(7) 0.8398(6)
H1 H 0.5225(6) 0.3834(7) 0.8635(6)
H2 H 0.4420(6) 0.4109(7) 0.8642(6)
C3 C 0.4500(7) 0.4284(7) 0.7781(6)
H3 H 0.4745(7) 0.4889(7) 0.7845(6)
H4 H 0.4683(7) 0.3923(7) 0.7504(6)
O2 O 0.3697(4) 0.4387(5) 0.7509(4)
C4 C 0.3423(8) 0.5004(8) 0.6964(8)
H5 H 0.2913(8) 0.5209(8) 0.6912(8)
H6 H 0.3748(8) 0.5549(8) 0.7048(8)
C5 C 0.3404(8) 0.4594(9) 0.6385(7)
H7 H 0.3229(8) 0.5049(9) 0.6048(7)
H8 H 0.3914(8) 0.4402(9) 0.6426(7)
O3 O 0.2917(4) 0.3823(5) 0.6231(4)
C6 C 0.2825(7) 0.3420(9) 0.5651(6)
H9 H 0.3319(7) 0.3236(9) 0.5647(6)
H10 H 0.2608(7) 0.3873(9) 0.5318(6)
C7 C 0.2315(6) 0.2590(8) 0.5528(5)
H11 H 0.1836(6) 0.2756(8) 0.5570(5)
H12 H 0.2207(6) 0.2366(8) 0.5101(5)
O4 O 0.2681(4) 0.1885(5) 0.5968(3)
C8 C 0.2240(6) 0.1048(7) 0.5866(5)
H13 H 0.2075(6) 0.0869(7) 0.5424(5)
H14 H 0.1791(6) 0.1148(7) 0.5972(5)
C9 C 0.2715(7) 0.0305(7) 0.6267(6)
H15 H 0.2423(7) -0.0267(7) 0.6196(6)
H16 H 0.3156(7) 0.0199(7) 0.6151(6)
O5 O 0.2958(4) 0.0547(4) 0.6914(4)
C10 C 0.3605(8) 0.0010(7) 0.7286(7)
H17 H 0.4036(8) 0.0166(7) 0.7166(7)
H18 H 0.3494(8) -0.0644(7) 0.7198(7)
C11 C 0.3810(7) 0.0176(7) 0.7963(6)
H19 H 0.3375(7) 0.0055(7) 0.8085(6)
H20 H 0.4221(7) -0.0236(7) 0.8203(6)
O6 O 0.4046(4) 0.1126(4) 0.8093(4)
C12 C 0.4264(6) 0.1404(8) 0.8707(6)
C13 C 0.4292(6) 0.0830(9) 0.9194(7)
H21 H 0.4146(6) 0.0211(9) 0.9117(7)
C14 C 0.4537(8) 0.1177(13) 0.9803(8)
H22 H 0.4563(8) 0.0784(13) 1.0136(8)
C15 C 0.4739(8) 0.2074(14) 0.9922(7)
H23 H 0.4909(8) 0.2301(14) 1.0334(7)
C16 C 0.4691(6) 0.2643(9) 0.9434(7)
H24 H 0.4807(6) 0.3270(9) 0.9516(7)
Rb2 Rb 0.56716(6) 0.18291(6) 0.78768(5)
C17 C 0.0936(6) 0.1451(7) 0.6763(5)
O7 O 0.1425(4) 0.1583(4) 0.7395(4)
C18 C 0.1621(6) 0.0782(6) 0.7817(5)
H25 H 0.1872(6) 0.0316(6) 0.7653(5)
H26 H 0.1160(6) 0.0511(6) 0.7841(5)
C19 C 0.2133(6) 0.1076(7) 0.8456(5)
H27 H 0.2289(6) 0.0535(7) 0.8728(5)
H28 H 0.2587(6) 0.1361(7) 0.8428(5)
O8 O 0.1768(4) 0.1707(5) 0.8718(4)
C20 C 0.2241(7) 0.1952(8) 0.9349(6)
H29 H 0.2727(7) 0.2185(8) 0.9354(6)
H30 H 0.2336(7) 0.1408(8) 0.9619(6)
C21 C 0.1853(7) 0.2678(9) 0.9588(6)
H31 H 0.1356(7) 0.2456(9) 0.9563(6)
H32 H 0.2152(7) 0.2811(9) 1.0028(6)
O9 O 0.1768(4) 0.3497(6) 0.9226(4)
C22 C 0.1493(7) 0.4278(9) 0.9474(6)
H33 H 0.1831(7) 0.4398(9) 0.9905(6)
H34 H 0.0990(7) 0.4142(9) 0.9478(6)
C23 C 0.1457(8) 0.5101(9) 0.9082(8)
H35 H 0.1356(8) 0.5649(9) 0.9287(8)
H36 H 0.1942(8) 0.5186(9) 0.9030(8)
O10 O 0.0862(5) 0.4981(5) 0.8474(5)
C24 C 0.0790(9) 0.5724(8) 0.8054(8)
H37 H 0.0958(9) 0.6290(8) 0.8298(8)
H38 H 0.0256(9) 0.5800(8) 0.7795(8)
C25 C 0.1207(9) 0.5614(8) 0.7655(7)
H39 H 0.1739(9) 0.5499(8) 0.7906(7)
H40 H 0.1176(9) 0.6177(8) 0.7412(7)
O11 O 0.0893(5) 0.4823(5) 0.7222(4)
C26 C 0.1264(7) 0.4709(7) 0.6778(6)
H41 H 0.1804(7) 0.4594(7) 0.7000(6)
H42 H 0.1209(7) 0.5269(7) 0.6528(6)
C27 C 0.0919(7) 0.3929(8) 0.6370(6)
H43 H 0.0369(7) 0.3999(8) 0.6207(6)
H44 H 0.1087(7) 0.3924(8) 0.6013(6)
O12 O 0.1120(4) 0.3067(4) 0.6703(3)
C28 C 0.0782(6) 0.2260(6) 0.6402(5)
C29 C 0.0322(6) 0.2209(8) 0.5779(5)
H45 H 0.0208(6) 0.2735(8) 0.5524(5)
C30 C 0.0028(6) 0.1331(9) 0.5538(6)
H46 H -0.0287(6) 0.1286(9) 0.5115(6)
C31 C 0.0179(7) 0.0557(9) 0.5889(7)
H47 H -0.0025(7) -0.0009(9) 0.5709(7)
C32 C 0.0639(6) 0.0603(7) 0.6518(6)
H48 H 0.0746(6) 0.0074(7) 0.6771(6)
O13 O 0.2591(3) 0.3596(4) 0.8321(3)
H49 H 0.2700(3) 0.4254(4) 0.8319(3)
H50 H 0.2878(3) 0.3337(4) 0.8733(3)
O14 O 0.4291(3) 0.2073(4) 0.6707(3)
H51 H 0.4360(3) 0.2580(4) 0.6451(3)
H52 H 0.4177(3) 0.1509(4) 0.6456(3)
O7A O 0.6425(4) 0.3417(4) 0.7395(4)
O8A O 0.6768(4) 0.3293(5) 0.8718(4)
O9A O 0.6768(4) 0.1503(6) 0.9226(4)
O10A O 0.5862(5) 0.0019(5) 0.8474(5)
O11A O 0.5893(5) 0.0177(5) 0.7222(4)
O12A O 0.6120(4) 0.1933(4) 0.6703(3)
Rb2A Rb 0.06716(6) 0.31709(6) 0.78768(5)
loop_
_geom_bond_atom_site_label_1
_geom_bond_atom_site_label_2
_geom_bond_site_symmetry_1
_geom_bond_site_symmetry_2
I1 I2 1_555 1_555
I2 I3 1_555 1_555
I3 I4 1_555 1_555
I4 I5 1_555 1_555
I6 I7 1_555 1_555
I7 I8 1_555 1_555
I8 I10 1_555 1_555
I9 I10 1_555 1_555
Rb1 O1 1_555 1_555
C1 O1 1_555 1_555
O1 C2 1_555 1_555
C2 H1 1_555 1_555
H2 C2 1_555 1_555
C3 C2 1_555 1_555
H3 C3 1_555 1_555
H4 C3 1_555 1_555
O2 Rb1 1_555 1_555
C4 O2 1_555 1_555
H5 C4 1_555 1_555
H6 C4 1_555 1_555
C5 C4 1_555 1_555
H7 C5 1_555 1_555
H8 C5 1_555 1_555
O3 Rb1 1_555 1_555
C6 O3 1_555 1_555
H9 C6 1_555 1_555
H10 C6 1_555 1_555
C7 C6 1_555 1_555
H11 C7 1_555 1_555
H12 C7 1_555 1_555
O4 Rb1 1_555 1_555
C8 O4 1_555 1_555
H13 C8 1_555 1_555
H14 C8 1_555 1_555
C9 C8 1_555 1_555
H15 C9 1_555 1_555
H16 C9 1_555 1_555
O5 Rb1 1_555 1_555
C10 O5 1_555 1_555
H17 C10 1_555 1_555
H18 C10 1_555 1_555
C11 C10 1_555 1_555
H19 C11 1_555 1_555
H20 C11 1_555 1_555
O6 Rb1 1_555 1_555
C12 C1 1_555 1_555
C13 C12 1_555 1_555
H21 C13 1_555 1_555
C14 C13 1_555 1_555
H22 C14 1_555 1_555
C15 C14 1_555 1_555
H23 C15 1_555 1_555
C16 C1 1_555 1_555
H24 C16 1_555 1_555
Rb2 O1 1_555 1_555
C17 O7 1_555 1_555
O7 Rb1 1_555 1_555
C18 O7 1_555 1_555
H25 C18 1_555 1_555
H26 C18 1_555 1_555
C19 C18 1_555 1_555
H27 C19 1_555 1_555
H28 C19 1_555 1_555
O8 C19 1_555 1_555
C20 O8 1_555 1_555
H29 C20 1_555 1_555
H30 C20 1_555 1_555
C21 C20 1_555 1_555
H31 C21 1_555 1_555
H32 C21 1_555 1_555
O9 C21 1_555 1_555
C22 O9 1_555 1_555
H33 C22 1_555 1_555
H34 C22 1_555 1_555
C23 C22 1_555 1_555
H35 C23 1_555 1_555
H36 C23 1_555 1_555
O10 C23 1_555 1_555
C24 O10 1_555 1_555
H37 C24 1_555 1_555
H38 C24 1_555 1_555
C25 C24 1_555 1_555
H39 C25 1_555 1_555
H40 C25 1_555 1_555
O11 C25 1_555 1_555
C26 O11 1_555 1_555
H41 C26 1_555 1_555
H42 C26 1_555 1_555
C27 C26 1_555 1_555
H43 C27 1_555 1_555
H44 C27 1_555 1_555
O12 Rb1 1_555 1_555
C28 C17 1_555 1_555
C29 C28 1_555 1_555
H45 C29 1_555 1_555
C30 C29 1_555 1_555
H46 C30 1_555 1_555
C31 C30 1_555 1_555
H47 C31 1_555 1_555
C32 C17 1_555 1_555
H48 C32 1_555 1_555
O13 Rb1 1_555 1_555
H49 O13 1_555 1_555
H50 O13 1_555 1_555
O14 Rb1 1_555 1_555
H51 O14 1_555 1_555
H52 O14 1_555 1_555
O7A Rb2 1_555 1_555
O8A Rb2 1_555 1_555
O9A Rb2 1_555 1_555
O10A Rb2 1_555 1_555
O11A Rb2 1_555 1_555
O12A Rb2 1_555 1_555
Rb2A O7 1_555 1_555
C3 O2 1_555 1_555
C5 O3 1_555 1_555
C7 O4 1_555 1_555
C9 O5 1_555 1_555
C11 O6 1_555 1_555
O6 C12 1_555 1_555
O6 Rb2 1_555 1_555
C15 C16 1_555 1_555
Rb2 O14 1_555 1_555
O8 Rb2A 1_555 1_555
O9 Rb2A 1_555 1_555
O10 Rb2A 1_555 1_555
O11 Rb2A 1_555 1_555
C27 O12 1_555 1_555
O12 C28 1_555 1_555
O12 Rb2A 1_555 1_555
C31 C32 1_555 1_555

#END
