
#######################################################################
#
#                 Cambridge Crystallographic Data Centre
#                                CCDC 
#
#######################################################################
#
# If this CIF has been generated from an entry in the Cambridge 
# Structural Database, then it will include bibliographic, chemical, 
# crystal, experimental, refinement or atomic coordinate data resulting 
# from the CCDC's data processing and validation procedures.
#
#######################################################################

data_QOVGAK
_symmetry_cell_setting           tetragonal
_symmetry_space_group_name_H-M   'I -4 2 d'
_symmetry_Int_Tables_number      122
_space_group_name_Hall           'I -4 2bw'
loop_
_symmetry_equiv_pos_site_id
_symmetry_equiv_pos_as_xyz
1 x,y,z
2 -x,-y,z
3 y,-x,-z
4 -y,x,-z
5 1/2-x,y,3/4-z
6 1/2+x,-y,3/4-z
7 1/2-y,-x,3/4+z
8 1/2+y,x,3/4+z
9 1/2+x,1/2+y,1/2+z
10 1/2-x,1/2-y,1/2+z
11 1/2+y,1/2-x,1/2-z
12 1/2-y,1/2+x,1/2-z
13 -x,1/2+y,1/4-z
14 x,1/2-y,1/4-z
15 -y,1/2-x,1/4+z
16 y,1/2+x,1/4+z
_cell_length_a                   13.0539(5)
_cell_length_b                   13.0539(5)
_cell_length_c                   40.304(3)
_cell_angle_alpha                90
_cell_angle_beta                 90
_cell_angle_gamma                90
_cell_volume                     6867.98
loop_
_atom_site_label
_atom_site_type_symbol
_atom_site_fract_x
_atom_site_fract_y
_atom_site_fract_z
Ag1 Ag 0.0000 0.5000 0.100722(17)
Ag2 Ag -0.14323(5) 0.38180(5) 0.244901(14)
N1 N 0.0000 0.5000 0.15562(18)
N2 N -0.0485(5) 0.5180(5) 0.20835(15)
N3 N 0.0089(6) 0.6325(5) 0.06352(13)
N4 N -0.0356(5) 0.7401(5) 0.02270(16)
N5 N 0.0626(5) 0.7598(5) 0.03101(15)
C1 C -0.0730(7) 0.5285(6) 0.17640(19)
C2 C -0.1732(7) 0.5714(7) 0.1658(2)
C3 C -0.0637(6) 0.6652(6) 0.04272(19)
C4 C 0.0860(7) 0.6945(7) 0.0548(2)
C5 C 0.1912(8) 0.6958(8) 0.0706(3)
C6 C -0.1690(8) 0.6187(8) 0.0412(3)
F1 F -0.1626(5) 0.6668(5) 0.1538(2)
F2 F -0.2152(4) 0.5181(5) 0.14143(13)
F3 F -0.2401(5) 0.5796(7) 0.19001(15)
F4 F 0.2131(6) 0.7862(5) 0.0822(2)
F5 F 0.2628(5) 0.6791(8) 0.04905(18)
F6 F 0.1991(5) 0.6285(5) 0.09359(17)
F7 F -0.2051(5) 0.5989(7) 0.07144(16)
F8 F -0.1656(6) 0.5272(5) 0.0260(2)
F9 F -0.2344(5) 0.6748(5) 0.02528(19)
Ag2A Ag 0.14323(5) 0.61820(5) 0.244901(14)
Ag2J Ag -0.11820(5) 0.64323(5) 0.255099(14)
Ag2G Ag -0.11820(5) 0.85677(5) -0.005099(14)
Ag2L Ag 0.14323(5) 0.88180(5) 0.005099(14)
Ag2K Ag 0.11820(5) 0.35677(5) 0.255099(14)
Ag2F Ag 0.11820(5) 0.14323(5) -0.005099(14)
Ag2M Ag -0.14323(5) 0.11820(5) 0.005099(14)
N2A N 0.0485(5) 0.4820(5) 0.20835(15)
N2K N -0.0180(5) 0.4515(5) 0.29165(15)
N2J N 0.0180(5) 0.5485(5) 0.29165(15)
N3A N -0.0089(6) 0.3675(5) 0.06352(13)
N4A N 0.0356(5) 0.2599(5) 0.02270(16)
N4O N -0.2599(5) 0.4644(5) 0.27270(16)
N4N N 0.2599(5) 0.5356(5) 0.27270(16)
N5A N -0.0626(5) 0.2402(5) 0.03101(15)
N5L N -0.0626(5) 0.2598(5) 0.21899(15)
N5M N 0.0626(5) 0.7402(5) 0.21899(15)
C1A C 0.0730(7) 0.4715(6) 0.17640(19)
C2A C 0.1732(7) 0.4286(7) 0.1658(2)
C3A C 0.0637(6) 0.3348(6) 0.04272(19)
C4A C -0.0860(7) 0.3055(7) 0.0548(2)
C5A C -0.1912(8) 0.3042(8) 0.0706(3)
C6A C 0.1690(8) 0.3813(8) 0.0412(3)
F1A F 0.1626(5) 0.3332(5) 0.1538(2)
F2A F 0.2152(4) 0.4819(5) 0.14143(13)
F3A F 0.2401(5) 0.4204(7) 0.19001(15)
F4A F -0.2131(6) 0.2138(5) 0.0822(2)
F5A F -0.2628(5) 0.3209(8) 0.04905(18)
F6A F -0.1991(5) 0.3715(5) 0.09359(17)
F7A F 0.2051(5) 0.4011(7) 0.07144(16)
F8A F 0.1656(6) 0.4728(5) 0.0260(2)
F9A F 0.2344(5) 0.3252(5) 0.02528(19)
N6 N -0.0406(15) 0.508(7) -0.0424(10)
N6A N 0.0406(15) 0.492(7) -0.0424(10)
loop_
_geom_bond_atom_site_label_1
_geom_bond_atom_site_label_2
_geom_bond_site_symmetry_1
_geom_bond_site_symmetry_2
Ag1 N1 1_555 1_555
Ag2 N2 1_555 1_555
N1 C1 1_555 1_555
N2 C1 1_555 1_555
N3 Ag1 1_555 1_555
N4 N5 1_555 1_555
N5 C4 1_555 1_555
C1 C2 1_555 1_555
C2 F1 1_555 1_555
C3 N3 1_555 1_555
C4 N3 1_555 1_555
C5 C4 1_555 1_555
C6 C3 1_555 1_555
F2 C2 1_555 1_555
F3 C2 1_555 1_555
F4 C5 1_555 1_555
F5 C5 1_555 1_555
F6 C5 1_555 1_555
F7 C6 1_555 1_555
F8 C6 1_555 1_555
F9 C6 1_555 1_555
N6 N6A 1_555 1_555
Ag2A N2A 1_555 1_555
Ag2J N2 1_555 1_555
Ag2G N4 1_555 1_555
Ag2L N5 1_555 1_555
Ag2K N2A 1_555 1_555
Ag2F N4A 1_555 1_555
Ag2M N5A 1_555 1_555
N2A N2 1_555 1_555
N2K Ag2 1_555 1_555
N2J Ag2A 1_555 1_555
N3A Ag1 1_555 1_555
N4A N5A 1_555 1_555
N4O Ag2 1_555 1_555
N4N Ag2A 1_555 1_555
N5A C4A 1_555 1_555
N5L Ag2 1_555 1_555
N5M Ag2A 1_555 1_555
C1A N1 1_555 1_555
C2A C1A 1_555 1_555
C3A N3A 1_555 1_555
C4A N3A 1_555 1_555
C5A C4A 1_555 1_555
C6A C3A 1_555 1_555
F1A C2A 1_555 1_555
F2A C2A 1_555 1_555
F3A C2A 1_555 1_555
F4A C5A 1_555 1_555
F5A C5A 1_555 1_555
F6A C5A 1_555 1_555
F7A C6A 1_555 1_555
F8A C6A 1_555 1_555
F9A C6A 1_555 1_555
N4 C3 1_555 1_555
Ag2J N2J 1_555 1_555
Ag2K N2K 1_555 1_555
N2A C1A 1_555 1_555
N2K N2J 1_555 1_555
N4A C3A 1_555 1_555

#END
