
#######################################################################
#
#                 Cambridge Crystallographic Data Centre
#                                CCDC 
#
#######################################################################
#
# If this CIF has been generated from an entry in the Cambridge 
# Structural Database, then it will include bibliographic, chemical, 
# crystal, experimental, refinement or atomic coordinate data resulting 
# from the CCDC's data processing and validation procedures.
#
#######################################################################

data_QOVRUQ
_symmetry_cell_setting           triclinic
_symmetry_space_group_name_H-M   'P -1'
_symmetry_Int_Tables_number      2
_space_group_name_Hall           '-P 1'
loop_
_symmetry_equiv_pos_site_id
_symmetry_equiv_pos_as_xyz
1 x,y,z
2 -x,-y,-z
_cell_length_a                   9.5458(3)
_cell_length_b                   10.5524(3)
_cell_length_c                   13.9153(5)
_cell_angle_alpha                70.299(3)
_cell_angle_beta                 79.799(3)
_cell_angle_gamma                72.102(3)
_cell_volume                     1251.56
loop_
_atom_site_label
_atom_site_type_symbol
_atom_site_fract_x
_atom_site_fract_y
_atom_site_fract_z
Zn1 Zn 0.48429(6) 0.16205(6) 0.71636(5)
O1 O 0.7636(6) 0.1920(5) 0.7418(4)
O2 O 0.3675(5) 0.2882(4) 0.7959(3)
O3 O 0.2355(5) 0.1360(5) 0.8424(4)
O4 O 0.6218(5) 0.2576(5) 0.6182(3)
N1 N 0.5699(4) -0.0387(4) 0.7942(3)
N2 N 0.5839(5) -0.2587(4) 0.8775(3)
N3 N 0.2286(5) 0.0916(4) 0.5345(3)
N4 N 0.3711(4) 0.1507(4) 0.6093(3)
C1 C 0.4814(7) -0.3906(6) 1.0367(4)
H1 H 0.4692 -0.3154 1.0608
C2 C 0.8514(6) 0.5259(6) 0.4194(5)
H2 H 0.8216 0.5780 0.3542
C3 C 0.1951(7) -0.1917(6) 0.6587(5)
H3 H 0.1589 -0.1736 0.7230
H4 H 0.2934 -0.1806 0.6402
H5 H 0.1965 -0.2854 0.6649
C4 C 0.0957(6) -0.0905(5) 0.5774(4)
C5 C 0.7725(6) 0.4386(6) 0.4840(5)
H6 H 0.6891 0.4311 0.4628
C6 C 0.2604(7) 0.2463(6) 0.8444(4)
C7 C 0.3222(7) 0.1537(7) 0.4589(4)
H7 H 0.3247 0.1680 0.3890
C8 C 0.1489(8) 0.3304(8) 0.9066(5)
C9 C 0.7154(6) -0.1133(5) 0.7930(4)
H8 H 0.7947 -0.0761 0.7621
C10 C 0.1607(8) 0.4516(8) 0.9054(5)
H9 H 0.2358 0.4873 0.8637
C11 C 0.8174(6) 0.3582(5) 0.5847(5)
C12 C 0.0304(8) 0.2741(9) 0.9701(6)
H10 H 0.0232 0.1883 0.9698
C13 C -0.0712(8) 0.3446(8) 1.0304(6)
H11 H -0.1482 0.3101 1.0703
C14 C 0.7256(6) -0.2497(5) 0.8437(4)
H12 H 0.8115 -0.3227 0.8536
C15 C 0.0196(6) 0.1282(5) 0.4450(4)
H13 H 0.0344 0.2152 0.4079
C16 C 0.7279(6) 0.2598(5) 0.6546(5)
C17 C 0.4943(6) -0.1302(5) 0.8464(4)
H14 H 0.3922 -0.1079 0.8596
C18 C 0.6201(14) -0.4844(9) 0.7904(6)
H15 H 0.7260 -0.5141 0.7865
H16 H 0.5883 -0.3900 0.7470
H17 H 0.5838 -0.5444 0.7681
C19 C 0.5399(6) -0.3834(5) 0.9393(4)
C20 C 0.9769(6) 0.5375(5) 0.4506(4)
C21 C 0.1124(6) 0.0419(5) 0.5196(4)
C22 C 0.4088(6) 0.1894(6) 0.5056(4)
H18 H 0.4827 0.2335 0.4730
C23 C 0.9376(6) 0.3705(5) 0.6154(5)
H19 H 0.9661 0.3182 0.6809
C24 C 0.2620(5) 0.0928(5) 0.6241(4)
H20 H 0.2145 0.0576 0.6877
C25 C 0.0523(7) 0.5351(7) 0.9717(5)
C26 C 0.5609(8) -0.4917(6) 0.8987(4)
O1A O 1.2364(6) 0.8080(5) 0.2582(4)
O4A O 1.3782(5) 0.7424(5) 0.3818(3)
C2A C 1.1486(6) 0.4741(6) 0.5806(5)
H2A H 1.1784 0.4220 0.6458
C5A C 1.2275(6) 0.5614(6) 0.5160(5)
H6A H 1.3109 0.5689 0.5372
C11A C 1.1826(6) 0.6418(5) 0.4153(5)
C16A C 1.2721(6) 0.7402(5) 0.3454(5)
C20A C 1.0231(6) 0.4625(5) 0.5494(4)
C23A C 1.0624(6) 0.6295(5) 0.3846(5)
H19A H 1.0339 0.6818 0.3191
O2A O -0.3675(5) 0.7118(4) 1.2041(3)
O3A O -0.2355(5) 0.8640(5) 1.1576(4)
C6A C -0.2604(7) 0.7537(6) 1.1556(4)
C8A C -0.1489(8) 0.6696(8) 1.0934(5)
C10A C -0.1607(8) 0.5484(8) 1.0946(5)
H9A H -0.2358 0.5127 1.1363
C12A C -0.0304(8) 0.7259(9) 1.0299(6)
H10A H -0.0232 0.8117 1.0302
C13A C 0.0712(8) 0.6554(8) 0.9696(6)
H11A H 0.1482 0.6899 0.9297
C25A C -0.0523(7) 0.4649(7) 1.0283(5)
N1A N 0.4301(4) -0.9613(4) 1.2058(3)
N2A N 0.4161(5) -0.7413(4) 1.1225(3)
C1A C 0.5186(7) -0.6094(6) 0.9633(4)
H1A H 0.5308 -0.6846 0.9392
C9A C 0.2846(6) -0.8867(5) 1.2070(4)
H8A H 0.2053 -0.9239 1.2379
C14A C 0.2744(6) -0.7503(5) 1.1563(4)
H12A H 0.1885 -0.6773 1.1464
C17A C 0.5057(6) -0.8698(5) 1.1536(4)
H14A H 0.6078 -0.8921 1.1404
C18A C 0.3799(14) -0.5156(9) 1.2096(6)
H15A H 0.2740 -0.4859 1.2135
H16A H 0.4117 -0.6100 1.2530
H17A H 0.4162 -0.4556 1.2319
C19A C 0.4601(6) -0.6166(5) 1.0607(4)
C26A C 0.4391(8) -0.5083(6) 1.1013(4)
N3A N -0.2286(5) -0.0916(4) 0.4655(3)
N4A N -0.3711(4) -0.1507(4) 0.3907(3)
C3A C -0.1951(7) 0.1917(6) 0.3413(5)
H3A H -0.1589 0.1736 0.2770
H4A H -0.2934 0.1806 0.3598
H5A H -0.1965 0.2854 0.3351
C4A C -0.0957(6) 0.0905(5) 0.4226(4)
C7A C -0.3222(7) -0.1537(7) 0.5411(4)
H7A H -0.3247 -0.1680 0.6110
C15A C -0.0196(6) -0.1282(5) 0.5550(4)
H13A H -0.0344 -0.2152 0.5921
C21A C -0.1124(6) -0.0419(5) 0.4804(4)
C22A C -0.4088(6) -0.1894(6) 0.4944(4)
H18A H -0.4827 -0.2335 0.5270
C24A C -0.2620(5) -0.0928(5) 0.3759(4)
H20A H -0.2145 -0.0576 0.3123
Zn1A Zn -0.48429(6) -0.16205(6) 0.28364(5)
Zn1A_2 Zn -0.48429(6) 0.83795(6) 1.28364(5)
Zn1A_3 Zn 0.51571(6) -1.16205(6) 1.28364(5)
Zn1A_4 Zn 1.51571(6) 0.83795(6) 0.28364(5)
O2A_2 O -0.3675(5) -0.2882(4) 0.2041(3)
O4A_2 O -0.6218(5) -0.2576(5) 0.3818(3)
N1A_2 N -0.5699(4) 0.0387(4) 0.2058(3)
O5 O 0.0298(9) 0.0032(9) 0.8271(6)
H21 H -0.0420 0.0522 0.8559
H22 H 0.1059 -0.0217 0.8597
loop_
_geom_bond_atom_site_label_1
_geom_bond_atom_site_label_2
_geom_bond_site_symmetry_1
_geom_bond_site_symmetry_2
Zn1 O2 1_555 1_555
O1 C16 1_555 1_555
O2 C6 1_555 1_555
O3 C6 1_555 1_555
O4 Zn1 1_555 1_555
N1 Zn1 1_555 1_555
N2 C14 1_555 1_555
N3 C7 1_555 1_555
N4 Zn1 1_555 1_555
C1 H1 1_555 1_555
C2 H2 1_555 1_555
C3 H3 1_555 1_555
H4 C3 1_555 1_555
H5 C3 1_555 1_555
C4 C3 1_555 1_555
C5 C2 1_555 1_555
H6 C5 1_555 1_555
C6 C8 1_555 1_555
C7 H7 1_555 1_555
C8 C10 1_555 1_555
C9 N1 1_555 1_555
H8 C9 1_555 1_555
C10 H9 1_555 1_555
C11 C5 1_555 1_555
C12 C8 1_555 1_555
H10 C12 1_555 1_555
C13 C12 1_555 1_555
H11 C13 1_555 1_555
C14 C9 1_555 1_555
H12 C14 1_555 1_555
C15 H13 1_555 1_555
C16 O4 1_555 1_555
C17 N1 1_555 1_555
H14 C17 1_555 1_555
C18 H15 1_555 1_555
H16 C18 1_555 1_555
H17 C18 1_555 1_555
C19 N2 1_555 1_555
C20 C2 1_555 1_555
C21 N3 1_555 1_555
C22 N4 1_555 1_555
H18 C22 1_555 1_555
C23 C11 1_555 1_555
H19 C23 1_555 1_555
C24 N3 1_555 1_555
H20 C24 1_555 1_555
C25 C10 1_555 1_555
C26 C18 1_555 1_555
O5 H21 1_555 1_555
H22 O5 1_555 1_555
O1A C16A 1_555 1_555
O4A C16A 1_555 1_555
C2A H2A 1_555 1_555
C5A C2A 1_555 1_555
H6A C5A 1_555 1_555
C11A C5A 1_555 1_555
C16A C11A 1_555 1_555
C20A C20 1_555 1_555
C23A C20 1_555 1_555
H19A C23A 1_555 1_555
O2A C6A 1_555 1_555
O3A C6A 1_555 1_555
C6A C8A 1_555 1_555
C8A C10A 1_555 1_555
C10A H9A 1_555 1_555
C12A C8A 1_555 1_555
H10A C12A 1_555 1_555
C13A C25 1_555 1_555
H11A C13A 1_555 1_555
C25A C13 1_555 1_555
N1A C9A 1_555 1_555
N2A C14A 1_555 1_555
C1A C26 1_555 1_555
H1A C1A 1_555 1_555
C9A H8A 1_555 1_555
C14A C9A 1_555 1_555
H12A C14A 1_555 1_555
C17A N1A 1_555 1_555
H14A C17A 1_555 1_555
C18A H15A 1_555 1_555
H16A C18A 1_555 1_555
H17A C18A 1_555 1_555
C19A N2A 1_555 1_555
C26A C1 1_555 1_555
N3A C7A 1_555 1_555
N4A C22A 1_555 1_555
C3A H3A 1_555 1_555
H4A C3A 1_555 1_555
H5A C3A 1_555 1_555
C4A C15 1_555 1_555
C7A H7A 1_555 1_555
C15A C4 1_555 1_555
H13A C15A 1_555 1_555
C21A N3A 1_555 1_555
C22A C7A 1_555 1_555
H18A C22A 1_555 1_555
C24A N3A 1_555 1_555
H20A C24A 1_555 1_555
Zn1A N4A 1_555 1_555
Zn1A_2 O2A 1_555 1_555
Zn1A_3 N1A 1_555 1_555
Zn1A_4 O4A 1_555 1_555
O2A_2 Zn1A 1_555 1_555
O4A_2 Zn1A 1_555 1_555
N1A_2 Zn1A 1_555 1_555
N2 C17 1_555 1_555
N4 C24 1_555 1_555
C1 C19 1_555 1_555
C4 C21 1_555 1_555
C7 C22 1_555 1_555
C11 C16 1_555 1_555
C15 C21 1_555 1_555
C19 C26 1_555 1_555
C23 C20A 1_555 1_555
C25 C25A 1_555 1_555
C2A C20A 1_555 1_555
C11A C23A 1_555 1_555
C10A C25A 1_555 1_555
C12A C13A 1_555 1_555
N2A C17A 1_555 1_555
C1A C19A 1_555 1_555
C18A C26A 1_555 1_555
C19A C26A 1_555 1_555
N4A C24A 1_555 1_555
C3A C4A 1_555 1_555
C4A C21A 1_555 1_555
C15A C21A 1_555 1_555

#END
