
#######################################################################
#
#                 Cambridge Crystallographic Data Centre
#                                CCDC 
#
#######################################################################
#
# If this CIF has been generated from an entry in the Cambridge 
# Structural Database, then it will include bibliographic, chemical, 
# crystal, experimental, refinement or atomic coordinate data resulting 
# from the CCDC's data processing and validation procedures.
#
#######################################################################

data_QOVSAX
_symmetry_cell_setting           monoclinic
_symmetry_space_group_name_H-M   'P 21/n'
_symmetry_Int_Tables_number      14
_space_group_name_Hall           '-P 2yn'
loop_
_symmetry_equiv_pos_site_id
_symmetry_equiv_pos_as_xyz
1 x,y,z
2 1/2-x,1/2+y,1/2-z
3 -x,-y,-z
4 1/2+x,1/2-y,1/2+z
_cell_length_a                   11.990(3)
_cell_length_b                   18.125(4)
_cell_length_c                   12.239(3)
_cell_angle_alpha                90
_cell_angle_beta                 105.173(4)
_cell_angle_gamma                90
_cell_volume                     2567.04
loop_
_atom_site_label
_atom_site_type_symbol
_atom_site_fract_x
_atom_site_fract_y
_atom_site_fract_z
Zn1 Zn 0.60218(4) 0.07877(3) 0.77208(4)
Zn2 Zn 0.76016(4) -0.43651(3) 0.45201(4)
C1 C 0.4007(3) -0.2873(2) 0.5492(4)
C2 C 0.4354(3) -0.2143(2) 0.5485(4)
H1 H 0.4998 -0.2006 0.5214
C3 C 0.3717(3) -0.1623(2) 0.5890(3)
C4 C 0.2767(3) -0.1806(2) 0.6282(4)
H2 H 0.2340 -0.1435 0.6542
C5 C 0.2452(3) -0.2545(2) 0.6287(3)
C6 C 0.3076(3) -0.3086(2) 0.5901(4)
H3 H 0.2872 -0.3591 0.5915
C7 C 0.5746(4) -0.3470(2) 0.5163(4)
H4 H 0.6298 -0.3137 0.5601
C8 C 0.4975(4) -0.4371(2) 0.4078(4)
H5 H 0.4893 -0.4793 0.3603
C9 C 0.4092(4) -0.4008(3) 0.4343(4)
H6 H 0.3293 -0.4127 0.4103
C10 C 0.5061(4) -0.0573(2) 0.6454(4)
H7 H 0.5736 -0.0858 0.6760
C11 C 0.3888(4) 0.0343(2) 0.5943(4)
H8 H 0.3592 0.0831 0.5826
C12 C 0.3278(4) -0.0280(2) 0.5603(4)
H9 H 0.2482 -0.0312 0.5213
C13 C 0.1001(4) -0.3415(2) 0.6677(4)
H10 H 0.1278 -0.3847 0.6395
C14 C -0.0012(4) -0.2666(3) 0.7402(5)
H11 H -0.0594 -0.2482 0.7728
C15 C 0.0839(4) -0.2260(3) 0.7171(5)
H12 H 0.0969 -0.1747 0.7300
C16 C 0.8727(4) 0.1771(3) 0.6699(4)
C17 C 0.8459(5) 0.2522(3) 0.6779(5)
H13 H 0.7812 0.2656 0.7047
C18 C 0.9124(6) 0.3065(4) 0.6473(5)
H14 H 0.8917 0.3569 0.6506
C19 C 1.0073(6) 0.2881(4) 0.6125(5)
C20 C 1.0359(5) 0.2139(5) 0.6018(6)
H15 H 1.1016 0.2014 0.5760
C21 C 0.9657(5) 0.1576(4) 0.6299(6)
H16 H 0.9828 0.1071 0.6212
C22 C 0.7995(4) 0.1184(3) 0.7051(4)
C23 C 1.0858(7) 0.3558(5) 0.5901(5)
C24 C 0.6754(4) -0.5088(3) 0.2443(4)
H17 H 0.6670 -0.5491 0.1932
N1 N 0.4601(3) -0.34261(19) 0.5039(3)
N2 N 0.6004(3) -0.4037(2) 0.4597(3)
N3 N 0.4028(3) -0.08568(18) 0.5928(3)
N4 N 0.5017(3) 0.01534(19) 0.6493(3)
N5 N 0.1486(3) -0.27381(18) 0.6708(3)
N6 N 0.0092(3) -0.33917(19) 0.7093(3)
O1 O 0.6558(3) 0.01807(17) 0.9056(3)
O2 O 0.7123(3) 0.14440(19) 0.7332(3)
O3 O 0.8232(4) 0.0533(2) 0.7068(4)
O4 O 1.1719(4) 0.3351(3) 0.5655(5)
O5 O 1.0472(6) 0.4181(3) 0.5919(5)
O6 O 0.7322(3) -0.52075(17) 0.3460(3)
O7 O 0.6302(3) -0.4502(2) 0.2057(3)
Zn1A Zn -0.10218(4) -0.42123(3) 0.72792(4)
Zn2A Zn 0.73984(4) 0.06349(3) 1.04799(4)
Zn2B Zn 1.23984(4) 0.43651(3) 0.54799(4)
N6A N 0.4908(3) 0.16083(19) 0.7907(3)
O1A O 0.8442(3) -0.48193(17) 0.5944(3)
O4B O 0.8281(4) -0.3351(3) 0.4345(5)
O5B O 0.9528(6) -0.4181(3) 0.4081(5)
O8 O 0.8861(5) -0.0698(3) 0.5958(6)
O9 O 1.2705(5) 0.1939(4) 0.4557(7)
loop_
_geom_bond_atom_site_label_1
_geom_bond_atom_site_label_2
_geom_bond_site_symmetry_1
_geom_bond_site_symmetry_2
Zn1 N4 1_555 1_555
Zn2 N2 1_555 1_555
C1 C2 1_555 1_555
C2 H1 1_555 1_555
C3 C2 1_555 1_555
C4 C3 1_555 1_555
H2 C4 1_555 1_555
C5 C4 1_555 1_555
C6 C1 1_555 1_555
H3 C6 1_555 1_555
C7 H4 1_555 1_555
C8 H5 1_555 1_555
C9 C8 1_555 1_555
H6 C9 1_555 1_555
C10 H7 1_555 1_555
C11 H8 1_555 1_555
C12 C11 1_555 1_555
H9 C12 1_555 1_555
C13 H10 1_555 1_555
C14 H11 1_555 1_555
C15 C14 1_555 1_555
H12 C15 1_555 1_555
C16 C17 1_555 1_555
C17 H13 1_555 1_555
C18 C17 1_555 1_555
H14 C18 1_555 1_555
C19 C18 1_555 1_555
C20 C19 1_555 1_555
H15 C20 1_555 1_555
C21 C16 1_555 1_555
H16 C21 1_555 1_555
C22 C16 1_555 1_555
C23 C19 1_555 1_555
C24 H17 1_555 1_555
N1 C1 1_555 1_555
N2 C7 1_555 1_555
N3 C3 1_555 1_555
N4 C10 1_555 1_555
N5 C5 1_555 1_555
N6 C13 1_555 1_555
O1 Zn1 1_555 1_555
O2 Zn1 1_555 1_555
O3 C22 1_555 1_555
O4 C23 1_555 1_555
O5 C23 1_555 1_555
O6 Zn2 1_555 1_555
O7 C24 1_555 1_555
Zn1A N6 1_555 1_555
Zn2A O1 1_555 1_555
Zn2B O4 1_555 1_555
N6A Zn1 1_555 1_555
O1A Zn2 1_555 1_555
O4B Zn2 1_555 1_555
O5B Zn2 1_555 1_555
C5 C6 1_555 1_555
C7 N1 1_555 1_555
C8 N2 1_555 1_555
C9 N1 1_555 1_555
C10 N3 1_555 1_555
C11 N4 1_555 1_555
C12 N3 1_555 1_555
C13 N5 1_555 1_555
C14 N6 1_555 1_555
C15 N5 1_555 1_555
C20 C21 1_555 1_555
C22 O2 1_555 1_555
C24 O6 1_555 1_555
O5 Zn2B 1_555 1_555

#END
