
#######################################################################
#
#                 Cambridge Crystallographic Data Centre
#                                CCDC 
#
#######################################################################
#
# If this CIF has been generated from an entry in the Cambridge 
# Structural Database, then it will include bibliographic, chemical, 
# crystal, experimental, refinement or atomic coordinate data resulting 
# from the CCDC's data processing and validation procedures.
#
#######################################################################

data_QOVSEB
_symmetry_cell_setting           monoclinic
_symmetry_space_group_name_H-M   'C 2/c'
_symmetry_Int_Tables_number      15
_space_group_name_Hall           '-C 2yn'
loop_
_symmetry_equiv_pos_site_id
_symmetry_equiv_pos_as_xyz
1 x,y,z
2 -x,y,1/2-z
3 1/2+x,1/2+y,z
4 1/2-x,1/2+y,1/2-z
5 -x,-y,-z
6 x,-y,1/2+z
7 1/2-x,1/2-y,-z
8 1/2+x,1/2-y,1/2+z
_cell_length_a                   34.838(9)
_cell_length_b                   13.738(3)
_cell_length_c                   25.355(6)
_cell_angle_alpha                90
_cell_angle_beta                 90.058(4)
_cell_angle_gamma                90
_cell_volume                     12135
loop_
_atom_site_label
_atom_site_type_symbol
_atom_site_fract_x
_atom_site_fract_y
_atom_site_fract_z
Cd1 Cd 0.339020(11) 0.97832(3) 1.006627(15)
Cd2 Cd 0.390700(13) 1.51274(3) 1.337314(16)
C1 C 0.35068(16) 0.5646(4) 1.0459(2)
C2 C 0.36887(17) 0.5643(4) 1.0943(2)
H1 H 0.3731 0.6218 1.1127
C3 C 0.38061(17) 0.4749(4) 1.1147(2)
C4 C 0.37337(18) 0.3877(4) 1.0884(2)
H2 H 0.3809 0.3285 1.1030
C5 C 0.35459(17) 0.3911(4) 1.0400(2)
C6 C 0.34396(16) 0.4798(4) 1.0177(2)
H3 H 0.3326 0.4820 0.9845
C7 C 0.30438(17) 0.6644(4) 0.9940(2)
H4 H 0.2876 0.6154 0.9836
C8 C 0.30155(18) 0.7611(4) 0.9828(2)
H5 H 0.2820 0.7893 0.9630
C9 C 0.35242(16) 0.7438(4) 1.0299(2)
H6 H 0.3746 0.7570 1.0492
C10 C 0.42911(17) 0.4120(4) 1.1799(2)
H7 H 0.4427 0.3696 1.1582
C11 C 0.43505(18) 0.4277(5) 1.2321(2)
H8 H 0.4539 0.3978 1.2524
C12 C 0.38702(18) 0.5184(4) 1.2091(2)
H9 H 0.3664 0.5613 1.2103
C13 C 0.3169(3) 0.2943(6) 0.9743(4)
H10 H 0.3039 0.3446 0.9574
C14 C 0.3130(3) 0.1968(5) 0.9651(4)
H11 H 0.2961 0.1695 0.9408
C15 C 0.35502(19) 0.2114(4) 1.0259(2)
H12 H 0.3729 0.1966 1.0520
C16 C 0.34791(17) 1.0117(4) 1.2302(2)
C17 C 0.35241(17) 1.1009(4) 1.2556(2)
H13 H 0.3453 1.1587 1.2392
C18 C 0.36799(17) 1.1008(4) 1.3065(2)
C19 C 0.37837(17) 1.0142(4) 1.3317(2)
H14 H 0.3885 1.0152 1.3656
C20 C 0.37329(17) 0.9267(4) 1.3051(2)
C21 C 0.35806(17) 0.9241(4) 1.2541(2)
H15 H 0.3548 0.8653 1.2365
C22 C 0.29501(19) 1.0495(5) 1.1668(2)
H16 H 0.2775 1.0776 1.1899
C23 C 0.2911(2) 1.0378(5) 1.1135(2)
H17 H 0.2699 1.0570 1.0937
C24 C 0.3464(2) 0.9782(4) 1.1339(2)
H18 H 0.3705 0.9490 1.1313
C25 C 0.3727(2) 1.2049(5) 1.3869(2)
H19 H 0.3704 1.1577 1.4129
C26 C 0.3769(2) 1.3032(5) 1.3938(2)
H20 H 0.3778 1.3343 1.4264
C27 C 0.37708(18) 1.2805(4) 1.3103(2)
H21 H 0.3782 1.2913 1.2741
C28 C 0.3951(2) 0.8272(5) 1.3836(3)
H22 H 0.3992 0.8766 1.4080
C29 C 0.3995(2) 0.7300(5) 1.3915(3)
H23 H 0.4072 0.7013 1.4230
C30 C 0.3799(2) 0.7468(4) 1.3115(2)
H24 H 0.3709 0.7330 1.2777
C31 C 0.46040(18) 0.9888(5) 1.0004(3)
C32 C 0.48136(19) 0.9825(6) 1.0475(3)
H25 H 0.4688 0.9706 1.0792
C33 C 0.47918(19) 1.0058(5) 0.9535(3)
H26 H 0.4652 1.0094 0.9223
C34 C 0.41733(18) 0.9758(5) 1.0018(3)
C35 C 0.47371(19) 1.5036(5) 1.4587(2)
C36 C 0.5124(2) 1.4958(5) 1.4478(3)
H27 H 0.5208 1.4925 1.4131
C37 C 0.4611(2) 1.5072(5) 1.5105(2)
H28 H 0.4350 1.5117 1.5177
C38 C 0.44464(19) 1.5051(4) 1.4143(2)
N1 N 0.33180(14) 0.8111(3) 1.00495(18)
N2 N 0.33716(14) 0.6538(3) 1.02391(19)
N3 N 0.40868(16) 0.4950(4) 1.2503(2)
N4 N 0.39895(15) 0.4713(3) 1.16514(19)
N5 N 0.33749(16) 0.1451(3) 0.9969(2)
N6 N 0.34420(15) 0.3029(3) 1.01371(19)
N7 N 0.32326(16) 0.9933(4) 1.0938(2)
N8 N 0.33083(15) 1.0105(4) 1.17911(19)
N9 N 0.37948(14) 1.3494(3) 1.34593(19)
N10 N 0.37267(14) 1.1909(3) 1.33300(18)
N11 N 0.39083(16) 0.6802(4) 1.3454(2)
N12 N 0.38300(15) 0.8378(4) 1.33127(19)
N13 N 0.27009(15) 0.9747(3) 0.9425(2)
N14 N 0.31089(16) 1.5727(4) 1.3402(2)
O1 O 0.40152(15) 0.9619(6) 1.0459(2)
O2 O 0.39872(12) 0.9809(3) 0.95941(16)
O3 O 0.26752(13) 0.9881(3) 0.99190(17)
O4 O 0.30359(13) 0.9723(3) 0.92210(17)
O5 O 0.24116(14) 0.9636(4) 0.9151(2)
O6 O 0.45676(14) 1.5014(4) 1.36723(18)
O7 O 0.40956(13) 1.5100(3) 1.42645(17)
O8 O 0.32756(14) 1.5492(4) 1.29772(17)
O9 O 0.32370(16) 1.5377(4) 1.38268(19)
O10 O 0.28312(15) 1.6295(4) 1.3397(2)
C31D C 0.53960(18) 1.0112(5) 0.9996(3)
C32D C 0.51864(19) 1.0175(6) 0.9525(3)
H25D H 0.5312 1.0294 0.9208
C33D C 0.52082(19) 0.9942(5) 1.0465(3)
H26D H 0.5348 0.9906 1.0777
C34D C 0.58267(18) 1.0242(5) 0.9982(3)
O1D O 0.59848(15) 1.0381(6) 0.9541(2)
O2D O 0.60128(12) 1.0191(3) 1.04059(16)
C35D C 0.52629(19) 1.4964(5) 1.5413(2)
C36D C 0.4876(2) 1.5042(5) 1.5522(3)
H27D H 0.4792 1.5075 1.5869
C37D C 0.5389(2) 1.4928(5) 1.4895(2)
H28D H 0.5650 1.4883 1.4823
C38D C 0.55536(19) 1.4949(4) 1.5857(2)
O6D O 0.54324(14) 1.4986(4) 1.63277(18)
O7D O 0.59044(13) 1.4900(3) 1.57355(17)
Cd1D Cd 0.660980(11) 1.02168(3) 0.993373(15)
Cd2D Cd 0.609300(13) 0.48726(3) 0.662686(16)
C1D C 0.64932(16) 1.4354(4) 0.9541(2)
C2D C 0.63113(17) 1.4357(4) 0.9057(2)
H1D H 0.6269 1.3782 0.8873
C3D C 0.61939(17) 1.5251(4) 0.8853(2)
C4D C 0.62663(18) 1.6123(4) 0.9116(2)
H2D H 0.6191 1.6715 0.8970
C5D C 0.64541(17) 1.6089(4) 0.9600(2)
C6D C 0.65604(16) 1.5202(4) 0.9823(2)
H3D H 0.6674 1.5180 1.0155
C7D C 0.69562(17) 1.3356(4) 1.0060(2)
H4D H 0.7124 1.3846 1.0164
C8D C 0.69845(18) 1.2389(4) 1.0172(2)
H5D H 0.7180 1.2107 1.0370
C9D C 0.64758(16) 1.2562(4) 0.9701(2)
H6D H 0.6254 1.2430 0.9508
C10D C 0.57089(17) 1.5880(4) 0.8201(2)
H7D H 0.5573 1.6304 0.8418
C11D C 0.56495(18) 1.5723(5) 0.7679(2)
H8D H 0.5461 1.6022 0.7476
C12D C 0.61298(18) 1.4816(4) 0.7909(2)
H9D H 0.6336 1.4387 0.7897
C13D C 0.6831(3) 1.7057(6) 1.0257(4)
H10D H 0.6961 1.6554 1.0426
C14D C 0.6870(3) 1.8032(5) 1.0349(4)
H11D H 0.7039 1.8305 1.0592
C15D C 0.64498(19) 1.7886(4) 0.9741(2)
H12D H 0.6271 1.8034 0.9480
C16D C 0.65209(17) 0.9883(4) 0.7698(2)
C17D C 0.64759(17) 0.8991(4) 0.7444(2)
H13D H 0.6547 0.8413 0.7608
C18D C 0.63201(17) 0.8992(4) 0.6935(2)
C19D C 0.62163(17) 0.9858(4) 0.6683(2)
H14D H 0.6115 0.9848 0.6344
C20D C 0.62671(17) 1.0733(4) 0.6949(2)
C21D C 0.64194(17) 1.0759(4) 0.7459(2)
H15D H 0.6452 1.1347 0.7635
C22D C 0.70499(19) 0.9505(5) 0.8332(2)
H16D H 0.7225 0.9224 0.8101
C23D C 0.7089(2) 0.9622(5) 0.8865(2)
H17D H 0.7301 0.9430 0.9063
C24D C 0.6536(2) 1.0218(4) 0.8661(2)
H18D H 0.6295 1.0510 0.8687
C25D C 0.6273(2) 0.7951(5) 0.6131(2)
H19D H 0.6296 0.8423 0.5871
C26D C 0.6231(2) 0.6968(5) 0.6062(2)
H20D H 0.6222 0.6657 0.5736
C27D C 0.62292(18) 0.7195(4) 0.6897(2)
H21D H 0.6218 0.7087 0.7259
C28D C 0.6049(2) 1.1728(5) 0.6164(3)
H22D H 0.6008 1.1234 0.5920
C29D C 0.6005(2) 1.2700(5) 0.6085(3)
H23D H 0.5928 1.2987 0.5770
C30D C 0.6201(2) 1.2532(4) 0.6885(2)
H24D H 0.6291 1.2670 0.7223
N1D N 0.66820(14) 1.1889(3) 0.99505(18)
N2D N 0.66284(14) 1.3462(3) 0.97609(19)
N3D N 0.59132(16) 1.5050(4) 0.7497(2)
N4D N 0.60105(15) 1.5287(3) 0.83486(19)
N5D N 0.66251(16) 1.8549(3) 1.0031(2)
N6D N 0.65580(15) 1.6971(3) 0.98629(19)
N7D N 0.67674(16) 1.0067(4) 0.9062(2)
N8D N 0.66917(15) 0.9895(4) 0.82089(19)
N9D N 0.62052(14) 0.6506(3) 0.65407(19)
N10D N 0.62733(14) 0.8091(3) 0.66700(18)
N11D N 0.60917(16) 1.3198(4) 0.6546(2)
N12D N 0.61700(15) 1.1622(4) 0.66873(19)
N13D N 0.72991(15) 1.0253(3) 1.0575(2)
N14D N 0.68911(16) 0.4273(4) 0.6598(2)
O3D O 0.73248(13) 1.0119(3) 1.00810(17)
O4D O 0.69641(13) 1.0277(3) 1.07790(17)
O5D O 0.75884(14) 1.0364(4) 1.0849(2)
O8D O 0.67244(14) 0.4508(4) 0.70228(17)
O9D O 0.67630(16) 0.4623(4) 0.61732(19)
O10D O 0.71688(15) 0.3705(4) 0.6603(2)
Cd1_2 Cd 0.339020(11) -0.02168(3) 1.006627(15)
Cd1D_2 Cd 0.660980(11) 2.02168(3) 0.993373(15)
Cd2_2 Cd 0.390700(13) 0.51274(3) 1.337314(16)
Cd2D_2 Cd 0.609300(13) 1.48726(3) 0.662686(16)
Cd2D_3 Cd 0.609300(13) 1.48726(3) 1.662686(16)
N3_2 N 0.40868(16) 1.4950(4) 1.2503(2)
N3D_2 N 0.59132(16) 0.5050(4) 0.7497(2)
N5_2 N 0.33749(16) 1.1451(3) 0.9969(2)
N5D_2 N 0.66251(16) 0.8549(3) 1.0031(2)
N11_2 N 0.39083(16) 1.6802(4) 1.3454(2)
N11D_2 N 0.60917(16) 0.3198(4) 0.6546(2)
O6D_2 O 0.54324(14) 0.4986(4) 0.63277(18)
O7D_2 O 0.59044(13) 0.4900(3) 0.57355(17)
C39 C 0.2303(3) 1.3039(8) 0.6849(4)
H29 H 0.2292 1.3317 0.7196
H30 H 0.2133 1.2489 0.6830
H31 H 0.2226 1.3517 0.6594
C40 C 0.2765(3) 1.2231(7) 0.6245(3)
H32 H 0.3032 1.2070 0.6216
H33 H 0.2693 1.2649 0.5958
H34 H 0.2614 1.1646 0.6232
C41 C 0.2984(3) 1.3017(7) 0.7051(3)
H35 H 0.2930 1.3374 0.7353
N15 N 0.26973(17) 1.2723(4) 0.6736(2)
O11 O 0.33362(16) 1.2807(4) 0.6935(3)
C42 C 0.5172(6) 1.7558(16) 0.6146(7)
H36 H 0.5446 1.7486 0.6179
H37 H 0.5047 1.7034 0.6328
H38 H 0.5095 1.8167 0.6298
C43 C 0.5366(5) 1.7454(18) 0.5158(8)
H39 H 0.5614 1.7397 0.5322
H40 H 0.5361 1.8025 0.4940
H41 H 0.5317 1.6889 0.4946
C44 C 0.4650(5) 1.7594(14) 0.5415(7)
H42 H 0.4551 1.7571 0.5074
N16 N 0.5063(4) 1.7537(7) 0.5577(7)
O12 O 0.4471(5) 1.7679(14) 0.5827(7)
C45 C 0.2239(2) 1.1927(6) 0.8724(3)
H43 H 0.2002 1.2277 0.8763
H44 H 0.2450 1.2369 0.8762
H45 H 0.2255 1.1431 0.8990
C46 C 0.2615(3) 1.1063(9) 0.8067(4)
H46 H 0.2592 1.0721 0.7738
H47 H 0.2695 1.0617 0.8337
H48 H 0.2803 1.1570 0.8032
C47 C 0.1939(3) 1.1459(6) 0.7907(3)
H49 H 0.1952 1.1107 0.7594
N17 N 0.22518(19) 1.1480(5) 0.8206(3)
O13 O 0.16359(17) 1.1863(4) 0.8007(2)
O14 O 0.4710(6) 0.7435(19) 1.1637(6)
loop_
_geom_bond_atom_site_label_1
_geom_bond_atom_site_label_2
_geom_bond_site_symmetry_1
_geom_bond_site_symmetry_2
Cd1 N1 1_555 1_555
Cd2 N9 1_555 1_555
C1 C2 1_555 1_555
C2 H1 1_555 1_555
C3 C2 1_555 1_555
C4 C3 1_555 1_555
H2 C4 1_555 1_555
C5 C4 1_555 1_555
C6 C1 1_555 1_555
H3 C6 1_555 1_555
C7 H4 1_555 1_555
C8 C7 1_555 1_555
H5 C8 1_555 1_555
C9 H6 1_555 1_555
C10 H7 1_555 1_555
C11 C10 1_555 1_555
H8 C11 1_555 1_555
C12 H9 1_555 1_555
C13 H10 1_555 1_555
C14 C13 1_555 1_555
H11 C14 1_555 1_555
C15 H12 1_555 1_555
C16 C17 1_555 1_555
C17 H13 1_555 1_555
C18 C17 1_555 1_555
C19 C18 1_555 1_555
H14 C19 1_555 1_555
C20 C19 1_555 1_555
C21 C16 1_555 1_555
H15 C21 1_555 1_555
C22 H16 1_555 1_555
C23 C22 1_555 1_555
H17 C23 1_555 1_555
C24 H18 1_555 1_555
C25 H19 1_555 1_555
C26 C25 1_555 1_555
H20 C26 1_555 1_555
C27 H21 1_555 1_555
C28 H22 1_555 1_555
C29 C28 1_555 1_555
H23 C29 1_555 1_555
C30 H24 1_555 1_555
C31 C32 1_555 1_555
C32 H25 1_555 1_555
C33 C31 1_555 1_555
H26 C33 1_555 1_555
C34 C31 1_555 1_555
C35 C36 1_555 1_555
C36 H27 1_555 1_555
C37 C35 1_555 1_555
H28 C37 1_555 1_555
C38 C35 1_555 1_555
N1 C8 1_555 1_555
N2 C1 1_555 1_555
N3 C11 1_555 1_555
N4 C3 1_555 1_555
N5 C14 1_555 1_555
N6 C5 1_555 1_555
N7 Cd1 1_555 1_555
N8 C16 1_555 1_555
N9 C26 1_555 1_555
N10 C18 1_555 1_555
N11 C29 1_555 1_555
N12 C20 1_555 1_555
N13 O3 1_555 1_555
N14 O8 1_555 1_555
O1 Cd1 1_555 1_555
O2 Cd1 1_555 1_555
O3 Cd1 1_555 1_555
O4 Cd1 1_555 1_555
O5 N13 1_555 1_555
O6 Cd2 1_555 1_555
O7 Cd2 1_555 1_555
O8 Cd2 1_555 1_555
O9 Cd2 1_555 1_555
O10 N14 1_555 1_555
C39 H29 1_555 1_555
H30 C39 1_555 1_555
H31 C39 1_555 1_555
C40 H32 1_555 1_555
H33 C40 1_555 1_555
H34 C40 1_555 1_555
C41 H35 1_555 1_555
N15 C39 1_555 1_555
O11 C41 1_555 1_555
C42 H36 1_555 1_555
H37 C42 1_555 1_555
H38 C42 1_555 1_555
C43 H39 1_555 1_555
H40 C43 1_555 1_555
H41 C43 1_555 1_555
C44 H42 1_555 1_555
N16 C42 1_555 1_555
O12 C44 1_555 1_555
C45 H43 1_555 1_555
H44 C45 1_555 1_555
H45 C45 1_555 1_555
C46 H46 1_555 1_555
H47 C46 1_555 1_555
H48 C46 1_555 1_555
C47 H49 1_555 1_555
N17 C45 1_555 1_555
O13 C47 1_555 1_555
C31D C32D 1_555 1_555
C32D C33 1_555 1_555
H25D C32D 1_555 1_555
C33D C32 1_555 1_555
H26D C33D 1_555 1_555
C34D C31D 1_555 1_555
O1D C34D 1_555 1_555
O2D C34D 1_555 1_555
C35D C36D 1_555 1_555
C36D C37 1_555 1_555
H27D C36D 1_555 1_555
C37D C36 1_555 1_555
H28D C37D 1_555 1_555
C38D C35D 1_555 1_555
O6D C38D 1_555 1_555
O7D C38D 1_555 1_555
Cd1D O1D 1_555 1_555
Cd2D N9D 1_555 1_555
C1D C2D 1_555 1_555
C2D H1D 1_555 1_555
C3D C2D 1_555 1_555
C4D C3D 1_555 1_555
H2D C4D 1_555 1_555
C5D C4D 1_555 1_555
C6D C1D 1_555 1_555
H3D C6D 1_555 1_555
C7D H4D 1_555 1_555
C8D C7D 1_555 1_555
H5D C8D 1_555 1_555
C9D H6D 1_555 1_555
C10D H7D 1_555 1_555
C11D C10D 1_555 1_555
H8D C11D 1_555 1_555
C12D H9D 1_555 1_555
C13D H10D 1_555 1_555
C14D C13D 1_555 1_555
H11D C14D 1_555 1_555
C15D H12D 1_555 1_555
C16D C17D 1_555 1_555
C17D H13D 1_555 1_555
C18D C17D 1_555 1_555
C19D C18D 1_555 1_555
H14D C19D 1_555 1_555
C20D C19D 1_555 1_555
C21D C16D 1_555 1_555
H15D C21D 1_555 1_555
C22D H16D 1_555 1_555
C23D C22D 1_555 1_555
H17D C23D 1_555 1_555
C24D H18D 1_555 1_555
C25D H19D 1_555 1_555
C26D C25D 1_555 1_555
H20D C26D 1_555 1_555
C27D H21D 1_555 1_555
C28D H22D 1_555 1_555
C29D C28D 1_555 1_555
H23D C29D 1_555 1_555
C30D H24D 1_555 1_555
N1D Cd1D 1_555 1_555
N2D C1D 1_555 1_555
N3D C11D 1_555 1_555
N4D C3D 1_555 1_555
N5D C14D 1_555 1_555
N6D C5D 1_555 1_555
N7D Cd1D 1_555 1_555
N8D C16D 1_555 1_555
N9D C26D 1_555 1_555
N10D C18D 1_555 1_555
N11D C29D 1_555 1_555
N12D C20D 1_555 1_555
N13D O3D 1_555 1_555
N14D O8D 1_555 1_555
O3D Cd1D 1_555 1_555
O4D Cd1D 1_555 1_555
O5D N13D 1_555 1_555
O8D Cd2D 1_555 1_555
O9D Cd2D 1_555 1_555
O10D N14D 1_555 1_555
Cd1_2 N5 1_555 1_555
Cd1D_2 N5D 1_555 1_555
Cd2_2 N3 1_555 1_555
Cd2D_2 N3D 1_555 1_555
Cd2D_3 O6D 1_555 1_555
N3_2 Cd2 1_555 1_555
N3D_2 Cd2D 1_555 1_555
N5_2 Cd1 1_555 1_555
N5D_2 Cd1D 1_555 1_555
N11_2 Cd2 1_555 1_555
N11D_2 Cd2D 1_555 1_555
O6D_2 Cd2D 1_555 1_555
O7D_2 Cd2D 1_555 1_555
C5 C6 1_555 1_555
C7 N2 1_555 1_555
C9 N1 1_555 1_555
C9 N2 1_555 1_555
C10 N4 1_555 1_555
C12 N3 1_555 1_555
C12 N4 1_555 1_555
C13 N6 1_555 1_555
C15 N5 1_555 1_555
C15 N6 1_555 1_555
C20 C21 1_555 1_555
C22 N8 1_555 1_555
C23 N7 1_555 1_555
C24 N7 1_555 1_555
C24 N8 1_555 1_555
C25 N10 1_555 1_555
C27 N9 1_555 1_555
C27 N10 1_555 1_555
C28 N12 1_555 1_555
C30 N11 1_555 1_555
C30 N12 1_555 1_555
C34 O1 1_555 1_555
C34 O2 1_555 1_555
C38 O6 1_555 1_555
C38 O7 1_555 1_555
N11 Cd2_2 1_555 1_555
N13 O4 1_555 1_555
N14 O9 1_555 1_555
C40 N15 1_555 1_555
C41 N15 1_555 1_555
C43 N16 1_555 1_555
C44 N16 1_555 1_555
C46 N17 1_555 1_555
C47 N17 1_555 1_555
C31D C33D 1_555 1_555
O2D Cd1D 1_555 1_555
C35D C37D 1_555 1_555
O7D Cd2D_3 1_555 1_555
C5D C6D 1_555 1_555
C7D N2D 1_555 1_555
C8D N1D 1_555 1_555
C9D N1D 1_555 1_555
C9D N2D 1_555 1_555
C10D N4D 1_555 1_555
C12D N3D 1_555 1_555
C12D N4D 1_555 1_555
C13D N6D 1_555 1_555
C15D N5D 1_555 1_555
C15D N6D 1_555 1_555
C20D C21D 1_555 1_555
C22D N8D 1_555 1_555
C23D N7D 1_555 1_555
C24D N7D 1_555 1_555
C24D N8D 1_555 1_555
C25D N10D 1_555 1_555
C27D N9D 1_555 1_555
C27D N10D 1_555 1_555
C28D N12D 1_555 1_555
C30D N11D 1_555 1_555
C30D N12D 1_555 1_555
N11D Cd2D_2 1_555 1_555
N13D O4D 1_555 1_555
N14D O9D 1_555 1_555

#END
