
#######################################################################
#
#                 Cambridge Crystallographic Data Centre
#                                CCDC 
#
#######################################################################
#
# If this CIF has been generated from an entry in the Cambridge 
# Structural Database, then it will include bibliographic, chemical, 
# crystal, experimental, refinement or atomic coordinate data resulting 
# from the CCDC's data processing and validation procedures.
#
#######################################################################

data_QOVSIF
_symmetry_cell_setting           monoclinic
_symmetry_space_group_name_H-M   'P 21/n'
_symmetry_Int_Tables_number      14
_space_group_name_Hall           '-P 2yn'
loop_
_symmetry_equiv_pos_site_id
_symmetry_equiv_pos_as_xyz
1 x,y,z
2 1/2-x,1/2+y,1/2-z
3 -x,-y,-z
4 1/2+x,1/2-y,1/2+z
_cell_length_a                   21.139(4)
_cell_length_b                   13.704(2)
_cell_length_c                   21.810(4)
_cell_angle_alpha                90
_cell_angle_beta                 107.006(3)
_cell_angle_gamma                90
_cell_volume                     6041.85
loop_
_atom_site_label
_atom_site_type_symbol
_atom_site_fract_x
_atom_site_fract_y
_atom_site_fract_z
Cd1 Cd 0.601285(19) 0.22971(3) 0.916952(19)
Cd2 Cd 0.98344(2) 0.76060(3) 1.20444(2)
C1 C 0.6504(3) 0.6431(4) 0.9438(3)
C2 C 0.7175(3) 0.6391(4) 0.9743(3)
H1 H 0.7396 0.5795 0.9819
C3 C 0.7515(3) 0.7265(4) 0.9933(3)
C4 C 0.7197(3) 0.8155(4) 0.9839(3)
H2 H 0.7428 0.8731 0.9975
C5 C 0.6516(3) 0.8161(4) 0.9530(3)
C6 C 0.6171(3) 0.7306(4) 0.9314(3)
H3 H 0.5723 0.7324 0.9090
C7 C 0.5456(4) 0.5447(6) 0.9175(6)
H4 H 0.5155 0.5944 0.9174
C8 C 0.5323(4) 0.4488(6) 0.9084(7)
H5 H 0.4904 0.4213 0.9001
C9 C 0.6358(3) 0.4629(4) 0.9271(3)
H6 H 0.6805 0.4480 0.9363
C10 C 0.8663(3) 0.6609(5) 1.0116(3)
H7 H 0.8589 0.6175 0.9774
C11 C 0.9241(3) 0.6767(5) 1.0576(3)
H8 H 0.9641 0.6466 1.0595
C12 C 0.8525(3) 0.7695(4) 1.0807(3)
H9 H 0.8326 0.8143 1.1012
C13 C 0.5512(3) 0.9173(4) 0.9433(3)
H10 H 0.5230 0.8692 0.9504
C14 C 0.5375(3) 1.0135(4) 0.9316(3)
H11 H 0.4969 1.0425 0.9287
C15 C 0.6386(3) 0.9956(4) 0.9320(3)
H12 H 0.6812 1.0084 0.9302
C16 C 0.8338(3) 0.2592(4) 1.1310(3)
C17 C 0.8626(3) 0.3482(4) 1.1529(3)
H13 H 0.8389 0.4061 1.1427
C18 C 0.9281(3) 0.3481(4) 1.1905(3)
C19 C 0.9635(3) 0.2619(4) 1.2058(3)
H14 H 1.0074 0.2627 1.2309
C20 C 0.9326(3) 0.1745(4) 1.1834(3)
C21 C 0.8670(3) 0.1716(4) 1.1453(3)
H15 H 0.8463 0.1128 1.1302
C22 C 0.7153(3) 0.3032(5) 1.1159(3)
H16 H 0.7197 0.3344 1.1548
C23 C 0.6588(3) 0.2904(5) 1.0669(3)
H17 H 0.6169 0.3111 1.0672
C24 C 0.7367(3) 0.2242(4) 1.0362(3)
H18 H 0.7593 0.1911 1.0119
C25 C 1.0125(3) 0.4519(5) 1.2677(3)
H19 H 1.0357 0.4039 1.2954
C26 C 1.0239(4) 0.5494(5) 1.2722(3)
H20 H 1.0567 0.5798 1.3044
C27 C 0.9416(3) 0.5279(4) 1.1883(3)
H21 H 0.9068 0.5393 1.1515
C28 C 1.0303(4) 0.0745(6) 1.2453(5)
H22 H 1.0578 0.1243 1.2669
C29 C 1.0433(4) -0.0221(6) 1.2505(5)
H23 H 1.0811 -0.0508 1.2776
C30 C 0.9462(3) -0.0063(4) 1.1837(3)
H24 H 0.9043 -0.0209 1.1569
C31 C 1.1923(3) 0.7509(6) 1.2511(4)
C32 C 1.2242(4) 0.7551(6) 1.2048(4)
H25 H 1.1997 0.7570 1.1618
C33 C 1.2944(4) 0.7566(6) 1.2221(4)
C34 C 1.3301(4) 0.7514(8) 1.2869(4)
H26 H 1.3761 0.7501 1.2987
C35 C 1.2981(4) 0.7482(9) 1.3336(4)
H27 H 1.3226 0.7475 1.3767
C36 C 1.2292(4) 0.7461(7) 1.3167(4)
H28 H 1.2077 0.7416 1.3482
C37 C 1.1175(3) 0.7513(5) 1.2327(4)
C38 C 1.3284(3) 0.7654(5) 1.1712(3)
N1 N 0.5897(3) 0.3969(4) 0.9132(3)
N2 N 0.6133(3) 0.5544(4) 0.9271(3)
N3 N 0.9151(2) 0.7441(4) 1.1011(3)
N4 N 0.8206(2) 0.7219(4) 1.0257(2)
N5 N 0.5916(2) 1.0617(3) 0.9246(2)
N6 N 0.6159(2) 0.9058(3) 0.9426(2)
N7 N 0.6724(2) 0.2428(4) 1.0174(2)
N8 N 0.7647(2) 0.2598(4) 1.0956(2)
N9 N 0.9797(2) 0.5965(3) 1.2220(2)
N10 N 0.9595(2) 0.4385(3) 1.2137(2)
N11 N 0.9909(3) -0.0716(4) 1.2086(3)
N12 N 0.9677(3) 0.0855(4) 1.2012(3)
N13 N 0.4657(3) 0.2253(4) 0.9221(3)
N14 N 0.9042(3) 0.8194(4) 1.2854(3)
O1 O 1.0856(3) 0.7456(4) 1.1739(3)
O2 O 1.0919(2) 0.7573(4) 1.2766(3)
O3 O 1.3906(2) 0.7685(3) 1.1877(2)
O4 O 1.2951(3) 0.7694(6) 1.1137(3)
O5 O 0.5112(2) 0.2376(3) 0.9734(2)
O6 O 0.4805(2) 0.2238(3) 0.8697(2)
O7 O 0.4077(2) 0.2125(4) 0.9222(3)
O8 O 0.9604(3) 0.7874(4) 1.3130(3)
O9 O 0.8783(2) 0.7972(4) 1.2270(3)
O10 O 0.8740(4) 0.8739(5) 1.3137(3)
Cd1_2 Cd 0.601285(19) 1.22971(3) 0.916952(19)
Cd1B Cd 1.398715(19) 0.77029(3) 1.083048(19)
Cd2_2 Cd 0.98344(2) -0.23940(3) 1.20444(2)
N5_2 N 0.5916(2) 0.0617(3) 0.9246(2)
N11_2 N 0.9909(3) 0.9284(4) 1.2086(3)
O3B O 0.6094(2) 0.2315(3) 0.8123(2)
O4B O 0.7049(3) 0.2306(6) 0.8863(3)
C39 C 0.3452(5) 0.4373(7) 0.8920(6)
H29 H 0.3256 0.4678 0.9217
H30 H 0.3678 0.4856 0.8744
H31 H 0.3761 0.3885 0.9140
C40 C 0.3139(8) 0.3411(12) 0.7930(7)
H32 H 0.2763 0.3105 0.7635
H33 H 0.3458 0.2922 0.8131
H34 H 0.3336 0.3862 0.7702
C41 C 0.2317(5) 0.3958(7) 0.8434(5)
H35 H 0.2000 0.3607 0.8129
N15 N 0.2934(4) 0.3917(6) 0.8403(4)
O11 O 0.2129(3) 0.4412(4) 0.8824(3)
C42 C 0.3467(4) -0.0302(7) 0.9001(4)
H36 H 0.3749 0.0158 0.9286
H37 H 0.3733 -0.0792 0.8881
H38 H 0.3179 -0.0604 0.9212
C43 C 0.3404(5) 0.0476(8) 0.7958(4)
H39 H 0.3085 0.0743 0.7587
H40 H 0.3606 -0.0090 0.7835
H41 H 0.3737 0.0955 0.8137
C44 C 0.2458(4) 0.0498(6) 0.8381(5)
H42 H 0.2233 0.0847 0.8017
N16 N 0.3076(3) 0.0203(4) 0.8430(3)
O12 O 0.2170(3) 0.0336(4) 0.8787(3)
C45 C 1.4185(11) 0.476(2) 1.3928(10)
H43 H 1.4572 0.4384 1.4131
H44 H 1.4316 0.5381 1.3798
H45 H 1.3919 0.4420 1.3559
C46 C 1.4088(11) 0.5483(19) 1.5006(10)
H46 H 1.3820 0.6043 1.5018
H47 H 1.4527 0.5691 1.5023
H48 H 1.4109 0.5071 1.5367
C47 C 1.3094(9) 0.4551(17) 1.4236(9)
H49 H 1.2844 0.4292 1.3846
N17 N 1.3791(8) 0.4924(12) 1.4395(8)
O13 O 1.2926(8) 0.4655(13) 1.4707(8)
C48 C 1.5453(10) 0.9137(12) 1.4591(10)
H50 H 1.5849 0.9356 1.4903
H51 H 1.5076 0.9444 1.4671
H52 H 1.5470 0.9308 1.4169
C49 C 1.5923(10) 0.7464(14) 1.5101(10)
H53 H 1.5807 0.6785 1.5061
H54 H 1.5966 0.7678 1.5530
H55 H 1.6336 0.7556 1.5008
C50 C 1.4795(11) 0.7558(19) 1.4191(12)
H56 H 1.4464 0.7788 1.3839
N18 N 1.5395(7) 0.8046(12) 1.4638(7)
O14 O 1.489(3) 0.677(3) 1.445(3)
O15 O 1.1872(16) 0.505(3) 1.1906(16)
O16 O 1.2117(12) 0.5660(19) 1.0698(11)
loop_
_geom_bond_atom_site_label_1
_geom_bond_atom_site_label_2
_geom_bond_site_symmetry_1
_geom_bond_site_symmetry_2
Cd1 N1 1_555 1_555
Cd2 N3 1_555 1_555
C1 C2 1_555 1_555
C2 H1 1_555 1_555
C3 C2 1_555 1_555
C4 C3 1_555 1_555
H2 C4 1_555 1_555
C5 C4 1_555 1_555
C6 C1 1_555 1_555
H3 C6 1_555 1_555
C7 H4 1_555 1_555
C8 C7 1_555 1_555
H5 C8 1_555 1_555
C9 H6 1_555 1_555
C10 H7 1_555 1_555
C11 C10 1_555 1_555
H8 C11 1_555 1_555
C12 H9 1_555 1_555
C13 H10 1_555 1_555
C14 C13 1_555 1_555
H11 C14 1_555 1_555
C15 H12 1_555 1_555
C16 C17 1_555 1_555
C17 H13 1_555 1_555
C18 C17 1_555 1_555
C19 C18 1_555 1_555
H14 C19 1_555 1_555
C20 C19 1_555 1_555
C21 C16 1_555 1_555
H15 C21 1_555 1_555
C22 H16 1_555 1_555
C23 C22 1_555 1_555
H17 C23 1_555 1_555
C24 H18 1_555 1_555
C25 H19 1_555 1_555
C26 C25 1_555 1_555
H20 C26 1_555 1_555
C27 H21 1_555 1_555
C28 H22 1_555 1_555
C29 C28 1_555 1_555
H23 C29 1_555 1_555
C30 H24 1_555 1_555
C31 C32 1_555 1_555
C32 H25 1_555 1_555
C33 C32 1_555 1_555
C34 C33 1_555 1_555
H26 C34 1_555 1_555
C35 C34 1_555 1_555
H27 C35 1_555 1_555
C36 C31 1_555 1_555
H28 C36 1_555 1_555
C37 C31 1_555 1_555
C38 C33 1_555 1_555
N1 C8 1_555 1_555
N2 C1 1_555 1_555
N3 C11 1_555 1_555
N4 C3 1_555 1_555
N5 C14 1_555 1_555
N6 C5 1_555 1_555
N7 Cd1 1_555 1_555
N8 C16 1_555 1_555
N9 Cd2 1_555 1_555
N10 C18 1_555 1_555
N11 C29 1_555 1_555
N12 C20 1_555 1_555
N13 O5 1_555 1_555
N14 O8 1_555 1_555
O1 Cd2 1_555 1_555
O2 Cd2 1_555 1_555
O3 C38 1_555 1_555
O4 C38 1_555 1_555
O5 Cd1 1_555 1_555
O6 Cd1 1_555 1_555
O7 N13 1_555 1_555
O8 Cd2 1_555 1_555
O9 Cd2 1_555 1_555
O10 N14 1_555 1_555
C39 H29 1_555 1_555
H30 C39 1_555 1_555
H31 C39 1_555 1_555
C40 H32 1_555 1_555
H33 C40 1_555 1_555
H34 C40 1_555 1_555
C41 H35 1_555 1_555
N15 C39 1_555 1_555
O11 C41 1_555 1_555
C42 H36 1_555 1_555
H37 C42 1_555 1_555
H38 C42 1_555 1_555
C43 H39 1_555 1_555
H40 C43 1_555 1_555
H41 C43 1_555 1_555
C44 H42 1_555 1_555
N16 C42 1_555 1_555
O12 C44 1_555 1_555
C45 H43 1_555 1_555
H44 C45 1_555 1_555
H45 C45 1_555 1_555
C46 H46 1_555 1_555
H47 C46 1_555 1_555
H48 C46 1_555 1_555
C47 H49 1_555 1_555
N17 C45 1_555 1_555
O13 C47 1_555 1_555
C48 H50 1_555 1_555
H51 C48 1_555 1_555
H52 C48 1_555 1_555
C49 H53 1_555 1_555
H54 C49 1_555 1_555
H55 C49 1_555 1_555
C50 H56 1_555 1_555
N18 C48 1_555 1_555
O14 C50 1_555 1_555
Cd1_2 N5 1_555 1_555
Cd1B O3 1_555 1_555
Cd2_2 N11 1_555 1_555
N5_2 Cd1 1_555 1_555
N11_2 Cd2 1_555 1_555
O3B Cd1 1_555 1_555
O4B Cd1 1_555 1_555
C5 C6 1_555 1_555
C7 N2 1_555 1_555
C9 N1 1_555 1_555
C9 N2 1_555 1_555
C10 N4 1_555 1_555
C12 N3 1_555 1_555
C12 N4 1_555 1_555
C13 N6 1_555 1_555
C15 N5 1_555 1_555
C15 N6 1_555 1_555
C20 C21 1_555 1_555
C22 N8 1_555 1_555
C23 N7 1_555 1_555
C24 N7 1_555 1_555
C24 N8 1_555 1_555
C25 N10 1_555 1_555
C26 N9 1_555 1_555
C27 N9 1_555 1_555
C27 N10 1_555 1_555
C28 N12 1_555 1_555
C30 N11 1_555 1_555
C30 N12 1_555 1_555
C35 C36 1_555 1_555
C37 O1 1_555 1_555
C37 O2 1_555 1_555
N13 O6 1_555 1_555
N14 O9 1_555 1_555
O4 Cd1B 1_555 1_555
C40 N15 1_555 1_555
C41 N15 1_555 1_555
C43 N16 1_555 1_555
C44 N16 1_555 1_555
C46 N17 1_555 1_555
C47 N17 1_555 1_555
C49 N18 1_555 1_555
C50 N18 1_555 1_555

#END
