
#######################################################################
#
#                 Cambridge Crystallographic Data Centre
#                                CCDC 
#
#######################################################################
#
# If this CIF has been generated from an entry in the Cambridge 
# Structural Database, then it will include bibliographic, chemical, 
# crystal, experimental, refinement or atomic coordinate data resulting 
# from the CCDC's data processing and validation procedures.
#
#######################################################################

data_QOVTIF
_symmetry_cell_setting           triclinic
_symmetry_space_group_name_H-M   'P -1'
_symmetry_Int_Tables_number      2
_space_group_name_Hall           '-P 1'
loop_
_symmetry_equiv_pos_site_id
_symmetry_equiv_pos_as_xyz
1 x,y,z
2 -x,-y,-z
_cell_length_a                   6.6228(4)
_cell_length_b                   10.2720(7)
_cell_length_c                   12.3563(8)
_cell_angle_alpha                76.092(1)
_cell_angle_beta                 76.815(1)
_cell_angle_gamma                86.899(1)
_cell_volume                     794.438
loop_
_atom_site_label
_atom_site_type_symbol
_atom_site_fract_x
_atom_site_fract_y
_atom_site_fract_z
Co1 Co 0.5000 1.0000 0.5000
Co2 Co -0.01128(3) 1.09198(2) 0.58180(2)
O1 O 0.21287(19) 1.03522(14) 0.45705(12)
H1 H 0.235(4) 1.088(3) 0.404(2)
O2 O 0.1345(2) 1.24343(14) 0.61229(14)
O3 O 0.4602(2) 1.16787(13) 0.58341(12)
O4 O 0.7519(2) 1.72634(15) 0.74457(13)
O5 O 0.37684(19) 1.86373(13) 0.65266(11)
O6 O 0.0754(2) 1.95487(14) 0.72246(12)
O7 O -0.1047(2) 1.24930(15) 0.44994(13)
H2 H -0.023(4) 1.271(3) 0.395(2)
H3 H -0.202(5) 1.230(3) 0.430(3)
O8 O -0.2656(2) 1.1145(2) 0.71613(16)
H4 H -0.380(6) 1.127(4) 0.690(3)
H5 H -0.281(5) 1.050(3) 0.757(3)
C1 C 0.3855(3) 1.36587(18) 0.65304(16)
C2 C 0.2415(3) 1.4259(2) 0.72687(19)
H6 H 0.1047 1.3962 0.7492
C3 C 0.2990(3) 1.5287(2) 0.76729(18)
H7 H 0.2021 1.5660 0.8186
C4 C 0.5019(3) 1.57743(18) 0.73160(16)
C5 C 0.6440(3) 1.5192(2) 0.65556(18)
H8 H 0.7789 1.5522 0.6298
C6 C 0.5885(3) 1.4137(2) 0.61787(17)
H9 H 0.6867 1.3741 0.5688
C7 C 0.5726(3) 1.68646(18) 0.77488(16)
C8 C 0.4265(3) 1.73607(19) 0.86936(17)
C9 C 0.2607(3) 1.82296(19) 0.85208(16)
C10 C 0.1286(4) 1.8568(2) 0.94644(19)
H10 H 0.0152 1.9120 0.9363
C11 C 0.1641(5) 1.8093(3) 1.0546(2)
H11 H 0.0747 1.8324 1.1170
C12 C 0.3312(5) 1.7279(3) 1.0704(2)
H12 H 0.3570 1.6979 1.1432
C13 C 0.4615(4) 1.6904(2) 0.9784(2)
H13 H 0.5733 1.6340 0.9899
C14 C 0.3213(3) 1.25045(19) 0.61244(16)
C15 C 0.2326(3) 1.88613(18) 0.73371(16)
Co1_2 Co 0.5000 2.0000 0.5000
Co1_3 Co 0.5000 0.0000 0.5000
Co2A Co 1.01128(3) 0.90802(2) 0.41820(2)
Co2A_2 Co 0.01128(3) 0.90802(2) 0.41820(2)
Co2_2 Co -0.01128(3) 2.09198(2) 0.58180(2)
Co2_3 Co 0.98872(3) 1.09198(2) 0.58180(2)
Co2A_3 Co 1.01128(3) -0.09198(2) 0.41820(2)
O1A O 0.78713(19) 0.96478(14) 0.54295(12)
O1A_2 O -0.21287(19) 0.96478(14) 0.54295(12)
O1_2 O 1.21287(19) 1.03522(14) 0.45705(12)
H1A H 0.765(4) 0.912(3) 0.596(2)
H1A_2 H -0.235(4) 0.912(3) 0.596(2)
H1_2 H 1.235(4) 1.088(3) 0.404(2)
O2A O 0.8655(2) 0.75657(14) 0.38771(14)
O3A O 0.5398(2) 0.83213(13) 0.41659(12)
O4A O 0.2481(2) 0.27366(15) 0.25543(13)
O5A O 0.62316(19) 0.13627(13) 0.34734(11)
O5_2 O 0.37684(19) 0.86373(13) 0.65266(11)
O5A_2 O 0.62316(19) 1.13627(13) 0.34734(11)
O6A O 0.9246(2) 0.04513(14) 0.27754(12)
O6_2 O 0.0754(2) 0.95487(14) 0.72246(12)
O6A_2 O 0.9246(2) 1.04513(14) 0.27754(12)
O7A O 1.1047(2) 0.75070(15) 0.55006(13)
H2A H 1.023(4) 0.729(3) 0.605(2)
H3A H 1.202(5) 0.770(3) 0.570(3)
O8A O 1.2656(2) 0.8855(2) 0.28387(16)
H4A H 1.380(6) 0.873(4) 0.310(3)
H5A H 1.281(5) 0.950(3) 0.243(3)
C1A C 0.6145(3) 0.63413(18) 0.34696(16)
C2A C 0.7585(3) 0.5741(2) 0.27313(19)
H6A H 0.8953 0.6038 0.2508
C3A C 0.7010(3) 0.4713(2) 0.23271(18)
H7A H 0.7979 0.4340 0.1814
C4A C 0.4981(3) 0.42257(18) 0.26840(16)
C5A C 0.3560(3) 0.4808(2) 0.34444(18)
H8A H 0.2211 0.4478 0.3702
C6A C 0.4115(3) 0.5863(2) 0.38213(17)
H9A H 0.3133 0.6259 0.4312
C7A C 0.4274(3) 0.31354(18) 0.22512(16)
C8A C 0.5735(3) 0.26393(19) 0.13064(17)
C9A C 0.7393(3) 0.17704(19) 0.14792(16)
C10A C 0.8714(4) 0.1432(2) 0.05356(19)
H10A H 0.9848 0.0880 0.0637
C11A C 0.8359(5) 0.1907(3) -0.0546(2)
H11A H 0.9253 0.1676 -0.1170
C12A C 0.6688(5) 0.2721(3) -0.0704(2)
H12A H 0.6430 0.3021 -0.1432
C13A C 0.5385(4) 0.3096(2) 0.0216(2)
H13A H 0.4267 0.3660 0.0101
C14A C 0.6787(3) 0.74955(19) 0.38756(16)
C15A C 0.7674(3) 0.11387(18) 0.26629(16)
loop_
_geom_bond_atom_site_label_1
_geom_bond_atom_site_label_2
_geom_bond_site_symmetry_1
_geom_bond_site_symmetry_2
Co1 O1 1_555 1_555
Co2 O1 1_555 1_555
O1 H1 1_555 1_555
O2 Co2 1_555 1_555
O3 Co1 1_555 1_555
O4 C7 1_555 1_555
O5 C15 1_555 1_555
O6 C15 1_555 1_555
O7 Co2 1_555 1_555
H2 O7 1_555 1_555
H3 O7 1_555 1_555
O8 Co2 1_555 1_555
H4 O8 1_555 1_555
H5 O8 1_555 1_555
C1 C2 1_555 1_555
C2 H6 1_555 1_555
C3 C2 1_555 1_555
H7 C3 1_555 1_555
C4 C3 1_555 1_555
C5 C4 1_555 1_555
H8 C5 1_555 1_555
C6 C1 1_555 1_555
H9 C6 1_555 1_555
C7 C4 1_555 1_555
C8 C7 1_555 1_555
C9 C8 1_555 1_555
C10 C9 1_555 1_555
H10 C10 1_555 1_555
C11 C10 1_555 1_555
H11 C11 1_555 1_555
C12 C11 1_555 1_555
H12 C12 1_555 1_555
C13 C8 1_555 1_555
H13 C13 1_555 1_555
C14 O2 1_555 1_555
C15 C9 1_555 1_555
Co1_2 O5 1_555 1_555
Co1_3 O5A 1_555 1_555
Co2A O1A 1_555 1_555
Co2A_2 O1 1_555 1_555
Co2_2 O6 1_555 1_555
Co2_3 O1A 1_555 1_555
Co2A_3 O6A 1_555 1_555
O1A Co1 1_555 1_555
O1A_2 Co2 1_555 1_555
O1_2 Co2A 1_555 1_555
H1A O1A 1_555 1_555
H1A_2 O1A_2 1_555 1_555
H1_2 O1_2 1_555 1_555
O2A Co2A 1_555 1_555
O3A Co1 1_555 1_555
O4A C7A 1_555 1_555
O5A C15A 1_555 1_555
O5_2 Co1 1_555 1_555
O5A_2 Co1 1_555 1_555
O6A C15A 1_555 1_555
O6_2 Co2 1_555 1_555
O6A_2 Co2A 1_555 1_555
O7A Co2A 1_555 1_555
H2A O7A 1_555 1_555
H3A O7A 1_555 1_555
O8A Co2A 1_555 1_555
H4A O8A 1_555 1_555
H5A O8A 1_555 1_555
C1A C2A 1_555 1_555
C2A H6A 1_555 1_555
C3A C2A 1_555 1_555
H7A C3A 1_555 1_555
C4A C3A 1_555 1_555
C5A C4A 1_555 1_555
H8A C5A 1_555 1_555
C6A C1A 1_555 1_555
H9A C6A 1_555 1_555
C7A C4A 1_555 1_555
C8A C7A 1_555 1_555
C9A C8A 1_555 1_555
C10A C9A 1_555 1_555
H10A C10A 1_555 1_555
C11A C10A 1_555 1_555
H11A C11A 1_555 1_555
C12A C11A 1_555 1_555
H12A C12A 1_555 1_555
C13A C8A 1_555 1_555
H13A C13A 1_555 1_555
C14A O2A 1_555 1_555
C15A C9A 1_555 1_555
O3 C14 1_555 1_555
C1 C14 1_555 1_555
C5 C6 1_555 1_555
C12 C13 1_555 1_555
Co2A_2 O1A_2 1_555 1_555
Co2_3 O1_2 1_555 1_555
O3A C14A 1_555 1_555
C1A C14A 1_555 1_555
C5A C6A 1_555 1_555
C12A C13A 1_555 1_555

#END
