
#######################################################################
#
#                 Cambridge Crystallographic Data Centre
#                                CCDC 
#
#######################################################################
#
# If this CIF has been generated from an entry in the Cambridge 
# Structural Database, then it will include bibliographic, chemical, 
# crystal, experimental, refinement or atomic coordinate data resulting 
# from the CCDC's data processing and validation procedures.
#
#######################################################################

data_QOVTAY
_symmetry_cell_setting           monoclinic
_symmetry_space_group_name_H-M   'C 2/c'
_symmetry_Int_Tables_number      15
_space_group_name_Hall           '-C 2yn'
loop_
_symmetry_equiv_pos_site_id
_symmetry_equiv_pos_as_xyz
1 x,y,z
2 -x,y,1/2-z
3 1/2+x,1/2+y,z
4 1/2-x,1/2+y,1/2-z
5 -x,-y,-z
6 x,-y,1/2+z
7 1/2-x,1/2-y,-z
8 1/2+x,1/2-y,1/2+z
_cell_length_a                   15.0742(11)
_cell_length_b                   19.7770(14)
_cell_length_c                   21.3225(15)
_cell_angle_alpha                90
_cell_angle_beta                 105.1130(10)
_cell_angle_gamma                90
_cell_volume                     6136.86
loop_
_atom_site_label
_atom_site_type_symbol
_atom_site_fract_x
_atom_site_fract_y
_atom_site_fract_z
Co1 Co 0.04288(3) 0.21530(2) 0.519815(19)
N1 N 0.06074(18) 0.24264(16) 0.92841(13)
N2 N 0.0575(2) 0.32010(16) 0.49607(14)
N3 N 0.0417(2) 0.41514(18) 0.44008(17)
N4 N 0.4792(3) 0.48270(17) 0.07477(16)
N5 N 0.5358(2) 0.38706(16) 0.05003(14)
O1 O 0.45272(17) 0.29161(14) 0.92778(12)
O2 O 0.32955(18) 0.35786(14) 0.91654(12)
O3 O 0.28080(16) 0.21648(14) 0.59467(11)
O4 O 0.14053(15) 0.23163(14) 0.60928(11)
O5 O 0.15402(16) 0.18832(14) 0.47838(12)
H1 H 0.199(3) 0.194(2) 0.511(2)
H2 H 0.167(3) 0.222(2) 0.454(2)
C1 C 0.0378(2) 0.27903(19) 0.87390(17)
H3 H -0.0201 0.2989 0.8623
C2 C 0.0949(2) 0.28882(19) 0.83373(17)
H4 H 0.0746 0.3136 0.7956
C3 C 0.1827(2) 0.26167(17) 0.85018(15)
C4 C 0.2077(2) 0.22472(18) 0.90771(16)
H5 H 0.2658 0.2053 0.9211
C5 C 0.1461(2) 0.21702(19) 0.94467(16)
H6 H 0.1646 0.1926 0.9832
C6 C 0.2446(2) 0.26699(17) 0.80659(15)
C7 C 0.2109(2) 0.24954(17) 0.74169(14)
H7 H 0.1492 0.2382 0.7263
C8 C 0.2666(2) 0.24852(17) 0.69880(15)
C9 C 0.3594(2) 0.2651(2) 0.72295(16)
H8 H 0.3985 0.2634 0.6957
C10 C 0.3931(2) 0.2839(2) 0.78659(17)
H9 H 0.4549 0.2950 0.8017
C11 C 0.3373(2) 0.28682(17) 0.82922(15)
C12 C 0.3763(2) 0.31531(18) 0.89750(15)
C13 C 0.2269(2) 0.23109(17) 0.62858(15)
C14 C 0.1141(3) 0.3684(2) 0.5307(2)
H10 H 0.1532 0.3622 0.5720
C15 C 0.1055(3) 0.4266(2) 0.4967(2)
H11 H 0.1371 0.4667 0.5097
C16 C 0.0155(3) 0.3508(2) 0.44165(19)
H12 H -0.0278 0.3299 0.4080
C17 C 0.0111(3) 0.4625(3) 0.3865(2)
H13 H 0.0008 0.5063 0.4038
H14 H -0.0471 0.4469 0.3589
C18 C 0.10718(18) 0.41517(12) 0.31444(14)
H15 H 0.0867 0.3721 0.3212
C19 C 0.0803(2) 0.47057(15) 0.34516(16)
C20 C 0.1109(3) 0.53496(13) 0.33510(19)
H16 H 0.0929 0.5720 0.3557
C21 C 0.1684(3) 0.54395(13) 0.2943(2)
H17 H 0.1889 0.5870 0.2876
C22 C 0.1953(2) 0.48856(16) 0.26359(17)
C23 C 0.1647(2) 0.42417(13) 0.27365(15)
H18 H 0.1827 0.3871 0.2531
C24 C 0.2933(2) 0.44388(11) 0.19280(14)
H19 H 0.2840 0.4002 0.2061
C25 C 0.2549(2) 0.49865(13) 0.21702(15)
C26 C 0.2687(2) 0.56387(11) 0.19719(16)
H20 H 0.2430 0.6005 0.2134
C27 C 0.3209(2) 0.57433(12) 0.15313(16)
H21 H 0.3302 0.6180 0.1399
C28 C 0.3594(3) 0.51955(15) 0.12890(17)
C29 C 0.3456(2) 0.45433(13) 0.14873(16)
H22 H 0.3713 0.4177 0.1325
C30 C 0.4114(4) 0.5356(2) 0.0771(2)
H23 H 0.3677 0.5392 0.0348
H24 H 0.4425 0.5787 0.0870
C31 C 0.5673(4) 0.4794(2) 0.1112(2)
H25 H 0.5978 0.5115 0.1410
C32 C 0.6023(3) 0.4208(2) 0.0960(2)
H26 H 0.6620 0.4055 0.1137
C33 C 0.4642(3) 0.42722(19) 0.03832(18)
H27 H 0.4090 0.4179 0.0079
Co1A Co -0.04288(3) 0.21530(2) 0.980185(19)
Co1G Co 0.54288(3) 0.28470(2) 0.019815(19)
Co1G_2 Co 0.54288(3) 0.28470(2) 1.019815(19)
N1A N -0.06074(18) 0.24264(16) 0.57159(13)
N5G N 0.0358(2) 0.11294(16) 0.55003(14)
O1G O -0.04728(17) 0.20839(14) 0.42778(12)
O6 O 0.1830(9) 0.5968(7) 0.4769(6)
H28 H 0.1961 0.6317 0.4579
H29 H 0.2099 0.5626 0.4662
loop_
_geom_bond_atom_site_label_1
_geom_bond_atom_site_label_2
_geom_bond_site_symmetry_1
_geom_bond_site_symmetry_2
Co1 N2 1_555 1_555
N1 C1 1_555 1_555
N2 C14 1_555 1_555
N3 C15 1_555 1_555
N4 C30 1_555 1_555
N5 C32 1_555 1_555
O1 C12 1_555 1_555
O2 C12 1_555 1_555
O3 C13 1_555 1_555
O4 Co1 1_555 1_555
O5 Co1 1_555 1_555
H1 O5 1_555 1_555
H2 O5 1_555 1_555
C1 H3 1_555 1_555
C2 C1 1_555 1_555
H4 C2 1_555 1_555
C3 C2 1_555 1_555
C4 C3 1_555 1_555
H5 C4 1_555 1_555
C5 N1 1_555 1_555
H6 C5 1_555 1_555
C6 C3 1_555 1_555
C7 C6 1_555 1_555
H7 C7 1_555 1_555
C8 C7 1_555 1_555
C9 C8 1_555 1_555
H8 C9 1_555 1_555
C10 C9 1_555 1_555
H9 C10 1_555 1_555
C11 C6 1_555 1_555
C12 C11 1_555 1_555
C13 O4 1_555 1_555
C14 H10 1_555 1_555
C15 C14 1_555 1_555
H11 C15 1_555 1_555
C16 N2 1_555 1_555
H12 C16 1_555 1_555
C17 N3 1_555 1_555
H13 C17 1_555 1_555
H14 C17 1_555 1_555
C18 H15 1_555 1_555
C19 C17 1_555 1_555
C20 C19 1_555 1_555
H16 C20 1_555 1_555
C21 C20 1_555 1_555
H17 C21 1_555 1_555
C22 C21 1_555 1_555
C23 C18 1_555 1_555
H18 C23 1_555 1_555
C24 H19 1_555 1_555
C25 C22 1_555 1_555
C26 C25 1_555 1_555
H20 C26 1_555 1_555
C27 C26 1_555 1_555
H21 C27 1_555 1_555
C28 C27 1_555 1_555
C29 C24 1_555 1_555
H22 C29 1_555 1_555
C30 C28 1_555 1_555
H23 C30 1_555 1_555
H24 C30 1_555 1_555
C31 N4 1_555 1_555
H25 C31 1_555 1_555
C32 C31 1_555 1_555
H26 C32 1_555 1_555
C33 N4 1_555 1_555
H27 C33 1_555 1_555
O6 H28 1_555 1_555
H29 O6 1_555 1_555
Co1A N1 1_555 1_555
Co1G N5 1_555 1_555
Co1G_2 O1 1_555 1_555
N1A Co1 1_555 1_555
N5G Co1 1_555 1_555
O1G Co1 1_555 1_555
N3 C16 1_555 1_555
N5 C33 1_555 1_555
C4 C5 1_555 1_555
C8 C13 1_555 1_555
C10 C11 1_555 1_555
C18 C19 1_555 1_555
C22 C23 1_555 1_555
C24 C25 1_555 1_555
C28 C29 1_555 1_555

#END
