
#######################################################################
#
#                 Cambridge Crystallographic Data Centre
#                                CCDC 
#
#######################################################################
#
# If this CIF has been generated from an entry in the Cambridge 
# Structural Database, then it will include bibliographic, chemical, 
# crystal, experimental, refinement or atomic coordinate data resulting 
# from the CCDC's data processing and validation procedures.
#
#######################################################################

data_QOVWEF
_symmetry_cell_setting           monoclinic
_symmetry_space_group_name_H-M   'C 2/c'
_symmetry_Int_Tables_number      15
_space_group_name_Hall           '-C 2yn'
loop_
_symmetry_equiv_pos_site_id
_symmetry_equiv_pos_as_xyz
1 x,y,z
2 -x,y,1/2-z
3 1/2+x,1/2+y,z
4 1/2-x,1/2+y,1/2-z
5 -x,-y,-z
6 x,-y,1/2+z
7 1/2-x,1/2-y,-z
8 1/2+x,1/2-y,1/2+z
_cell_length_a                   14.092(2)
_cell_length_b                   18.273(3)
_cell_length_c                   16.325(3)
_cell_angle_alpha                90
_cell_angle_beta                 92.766(3)
_cell_angle_gamma                90
_cell_volume                     4198.84
loop_
_atom_site_label
_atom_site_type_symbol
_atom_site_fract_x
_atom_site_fract_y
_atom_site_fract_z
C1 C 0.8089(4) 0.2117(3) 0.1625(4)
C2 C 0.8114(4) 0.2813(3) 0.2110(3)
C3 C 0.7457(4) 0.3368(3) 0.1946(3)
H1 H 0.7003 0.3315 0.1517
C4 C 0.7473(4) 0.3999(3) 0.2413(4)
H2 H 0.7031 0.4367 0.2297
C5 C 0.8145(4) 0.4085(3) 0.3056(3)
C6 C 0.8025(4) 0.4697(3) 0.3649(3)
C7 C 0.8840(4) 0.3542(3) 0.3211(3)
C8 C 0.8811(4) 0.2913(3) 0.2738(3)
H3 H 0.9264 0.2550 0.2841
C9 C 0.9649(4) 0.3659(3) 0.3816(3)
C10 C 1.0165(4) 0.4305(3) 0.3825(4)
H4 H 0.9998 0.4677 0.3456
C11 C 1.0919(4) 0.4397(3) 0.4373(4)
H5 H 1.1253 0.4837 0.4371
C12 C 0.9940(4) 0.3125(3) 0.4369(4)
H6 H 0.9616 0.2683 0.4386
C13 C 1.0718(4) 0.3255(3) 0.4897(4)
H7 H 1.0914 0.2885 0.5258
C14 C 0.8534(5) 0.0158(3) -0.0496(4)
H8 H 0.8101 -0.0226 -0.0543
C15 C 0.9314(5) 0.0223(4) -0.0930(4)
H9 H 0.9518 -0.0099 -0.1326
C16 C 0.9211(4) 0.1142(4) -0.0095(4)
H10 H 0.9354 0.1575 0.0184
C17 C 1.0571(5) 0.1185(5) -0.1026(4)
H11 H 1.1019 0.0804 -0.1154
H12 H 1.0880 0.1510 -0.0626
C18 C 1.0300(5) 0.1611(4) -0.1796(4)
C19 C 1.0000 0.1242(6) -0.2500
H13 H 1.0000 0.0733 -0.2500
C20 C 1.0308(8) 0.2361(5) -0.1800(6)
H14 H 1.0519 0.2620 -0.1336
C21 C 1.0000 0.2725(9) -0.2500
H15 H 1.0000 0.3234 -0.2500
N1 N 1.1198(3) 0.3876(2) 0.4916(3)
N2 N 0.9746(4) 0.0856(3) -0.0675(3)
N3 N 0.8467(3) 0.0740(3) 0.0030(3)
O1 O 0.8762(4) 0.1683(3) 0.1705(4)
O2 O 0.7382(3) 0.2005(2) 0.1147(3)
O3 O 0.8039(3) 0.4553(2) 0.4393(2)
O4 O 0.7876(3) 0.5333(2) 0.3367(3)
Zn1 Zn 0.73754(4) 0.09985(3) 0.07112(4)
C14A C 1.1466(5) 0.0158(3) -0.4504(4)
H8A H 1.1899 -0.0226 -0.4457
C15A C 1.0686(5) 0.0223(4) -0.4070(4)
H9A H 1.0482 -0.0099 -0.3674
C16A C 1.0789(4) 0.1142(4) -0.4905(4)
H10A H 1.0646 0.1575 -0.5184
C17A C 0.9429(5) 0.1185(5) -0.3974(4)
H11A H 0.8981 0.0804 -0.3846
H12A H 0.9120 0.1510 -0.4374
C18A C 0.9700(5) 0.1611(4) -0.3204(4)
C20A C 0.9692(8) 0.2361(5) -0.3200(6)
H14A H 0.9481 0.2620 -0.3664
N2A N 1.0254(4) 0.0856(3) -0.4325(3)
N3A N 1.1533(3) 0.0740(3) -0.5030(3)
C1A C 1.1911(4) 0.2117(3) -0.6625(4)
C2A C 1.1886(4) 0.2813(3) -0.7110(3)
C3A C 1.2543(4) 0.3368(3) -0.6946(3)
H1A H 1.2997 0.3315 -0.6517
C4A C 1.2527(4) 0.3999(3) -0.7413(4)
H2A H 1.2969 0.4367 -0.7297
C5A C 1.1855(4) 0.4085(3) -0.8056(3)
C6A C 1.1975(4) 0.4697(3) -0.8649(3)
C7A C 1.1160(4) 0.3542(3) -0.8211(3)
C8A C 1.1189(4) 0.2913(3) -0.7738(3)
H3A H 1.0736 0.2550 -0.7841
C9A C 1.0351(4) 0.3659(3) -0.8816(3)
C10A C 0.9835(4) 0.4305(3) -0.8825(4)
H4A H 1.0002 0.4677 -0.8456
C11A C 0.9081(4) 0.4397(3) -0.9373(4)
H5A H 0.8747 0.4837 -0.9371
C12A C 1.0060(4) 0.3125(3) -0.9369(4)
H6A H 1.0384 0.2683 -0.9386
C13A C 0.9282(4) 0.3255(3) -0.9897(4)
H7A H 0.9086 0.2885 -1.0258
N1A N 0.8802(3) 0.3876(2) -0.9916(3)
O1A O 1.1238(4) 0.1683(3) -0.6705(4)
O2A O 1.2618(3) 0.2005(2) -0.6147(3)
O3A O 1.1961(3) 0.4553(2) -0.9393(2)
O4A O 1.2124(3) 0.5333(2) -0.8367(3)
Zn1A Zn 1.26246(4) 0.09985(3) -0.57112(4)
N1F N 1.3802(3) 0.1124(2) -0.4916(3)
N1G N 0.6198(3) 0.1124(2) -0.0084(3)
O4B O 1.2876(3) 0.0333(2) -0.6633(3)
O4C O 0.7124(3) 0.0333(2) 0.1633(3)
Zn1B Zn 1.23754(4) 0.59985(3) -0.92888(4)
Zn1C Zn 0.76246(4) 0.59985(3) 0.42888(4)
Zn1F Zn 0.76246(4) 0.40015(3) -1.07112(4)
Zn1G Zn 1.23754(4) 0.40015(3) 0.57112(4)
O5 O 0.2645(9) 0.1789(5) 0.0297(6)
H16 H 0.283(4) 0.143(2) 0.005(4)
H17 H 0.233(5) 0.169(4) 0.069(4)
O6 O 0.0000 0.0729(5) 0.2500
H18 H 0.044(4) 0.095(4) 0.273(5)
H18A H -0.044(4) 0.095(4) 0.227(5)
loop_
_geom_bond_atom_site_label_1
_geom_bond_atom_site_label_2
_geom_bond_site_symmetry_1
_geom_bond_site_symmetry_2
C1 C2 1_555 1_555
C2 C3 1_555 1_555
C3 H1 1_555 1_555
C4 C3 1_555 1_555
H2 C4 1_555 1_555
C5 C4 1_555 1_555
C6 C5 1_555 1_555
C7 C5 1_555 1_555
C8 C2 1_555 1_555
H3 C8 1_555 1_555
C9 C7 1_555 1_555
C10 C9 1_555 1_555
H4 C10 1_555 1_555
C11 C10 1_555 1_555
H5 C11 1_555 1_555
C12 C9 1_555 1_555
H6 C12 1_555 1_555
C13 C12 1_555 1_555
H7 C13 1_555 1_555
C14 H8 1_555 1_555
C15 C14 1_555 1_555
H9 C15 1_555 1_555
C16 H10 1_555 1_555
C17 H11 1_555 1_555
H12 C17 1_555 1_555
C18 C17 1_555 1_555
C19 C18 1_555 1_555
H13 C19 1_555 1_555
C20 C18 1_555 1_555
H14 C20 1_555 1_555
C21 C20 1_555 1_555
H15 C21 1_555 1_555
N1 C11 1_555 1_555
N2 C15 1_555 1_555
N3 C14 1_555 1_555
O1 C1 1_555 1_555
O2 C1 1_555 1_555
O3 C6 1_555 1_555
O4 C6 1_555 1_555
Zn1 N3 1_555 1_555
O5 H16 1_555 1_555
H17 O5 1_555 1_555
O6 H18 1_555 1_555
C14A H8A 1_555 1_555
C15A C14A 1_555 1_555
H9A C15A 1_555 1_555
C16A H10A 1_555 1_555
C17A H11A 1_555 1_555
H12A C17A 1_555 1_555
C18A C19 1_555 1_555
C20A C21 1_555 1_555
H14A C20A 1_555 1_555
N2A C15A 1_555 1_555
N3A C14A 1_555 1_555
C1A C2A 1_555 1_555
C2A C3A 1_555 1_555
C3A H1A 1_555 1_555
C4A C3A 1_555 1_555
H2A C4A 1_555 1_555
C5A C4A 1_555 1_555
C6A C5A 1_555 1_555
C7A C5A 1_555 1_555
C8A C2A 1_555 1_555
H3A C8A 1_555 1_555
C9A C7A 1_555 1_555
C10A C9A 1_555 1_555
H4A C10A 1_555 1_555
C11A C10A 1_555 1_555
H5A C11A 1_555 1_555
C12A C9A 1_555 1_555
H6A C12A 1_555 1_555
C13A C12A 1_555 1_555
H7A C13A 1_555 1_555
N1A C11A 1_555 1_555
O1A C1A 1_555 1_555
O2A C1A 1_555 1_555
O3A C6A 1_555 1_555
O4A C6A 1_555 1_555
Zn1A N3A 1_555 1_555
N1F Zn1A 1_555 1_555
N1G Zn1 1_555 1_555
O4B Zn1A 1_555 1_555
O4C Zn1 1_555 1_555
Zn1B O4A 1_555 1_555
Zn1C O4 1_555 1_555
Zn1F N1A 1_555 1_555
Zn1G N1 1_555 1_555
H18A O6 1_555 1_555
C7 C8 1_555 1_555
C13 N1 1_555 1_555
C16 N2 1_555 1_555
C16 N3 1_555 1_555
C17 N2 1_555 1_555
O2 Zn1 1_555 1_555
C16A N2A 1_555 1_555
C16A N3A 1_555 1_555
C17A C18A 1_555 1_555
C17A N2A 1_555 1_555
C18A C20A 1_555 1_555
C7A C8A 1_555 1_555
C13A N1A 1_555 1_555
O2A Zn1A 1_555 1_555

#END
