
#######################################################################
#
#                 Cambridge Crystallographic Data Centre
#                                CCDC 
#
#######################################################################
#
# If this CIF has been generated from an entry in the Cambridge 
# Structural Database, then it will include bibliographic, chemical, 
# crystal, experimental, refinement or atomic coordinate data resulting 
# from the CCDC's data processing and validation procedures.
#
#######################################################################

data_QOVWOP
_symmetry_cell_setting           monoclinic
_symmetry_space_group_name_H-M   'C 2/c'
_symmetry_Int_Tables_number      15
_space_group_name_Hall           '-C 2yn'
loop_
_symmetry_equiv_pos_site_id
_symmetry_equiv_pos_as_xyz
1 x,y,z
2 -x,y,1/2-z
3 1/2+x,1/2+y,z
4 1/2-x,1/2+y,1/2-z
5 -x,-y,-z
6 x,-y,1/2+z
7 1/2-x,1/2-y,-z
8 1/2+x,1/2-y,1/2+z
_cell_length_a                   11.979(2)
_cell_length_b                   18.789(4)
_cell_length_c                   18.662(5)
_cell_angle_alpha                90
_cell_angle_beta                 96.494(2)
_cell_angle_gamma                90
_cell_volume                     4173.37
loop_
_atom_site_label
_atom_site_type_symbol
_atom_site_fract_x
_atom_site_fract_y
_atom_site_fract_z
C1 C 0.6242(4) 0.1270(2) 0.4317(2)
H1 H 0.6981 0.1355 0.4233
C2 C 0.5415(4) 0.1330(3) 0.3748(2)
H2 H 0.5600 0.1455 0.3293
C3 C 0.4306(3) 0.12032(17) 0.3852(2)
C4 C 0.4091(3) 0.1010(2) 0.4547(2)
H3 H 0.3362 0.0915 0.4644
C5 C 0.4974(3) 0.0964(2) 0.5084(2)
H4 H 0.4820 0.0834 0.5543
C6 C 0.3412(3) 0.13040(19) 0.32466(19)
C7 C 0.3398(3) 0.19322(19) 0.28454(19)
H5 H 0.3938 0.2279 0.2973
C8 C 0.2598(3) 0.2048(2) 0.22624(19)
C9 C 0.1780(3) 0.1536(2) 0.2077(2)
H6 H 0.1241 0.1608 0.1684
C10 C 0.1770(3) 0.0920(2) 0.2479(2)
H7 H 0.1209 0.0583 0.2362
C11 C 0.2583(3) 0.07942(19) 0.30532(19)
C12 C 0.2580(3) 0.00833(19) 0.34251(18)
C13 C 0.2633(3) 0.2701(2) 0.1808(2)
C14 C 0.4663(3) 0.3169(2) 0.0318(2)
H8 H 0.4614 0.2772 0.0610
C15 C 0.5292(4) 0.3925(2) -0.0422(3)
H9 H 0.5734 0.4151 -0.0732
C16 C 0.4294(3) 0.4146(2) -0.0235(2)
H10 H 0.3927 0.4562 -0.0397
C17 C 0.6534(3) 0.2882(2) -0.0046(2)
C18 C 0.6731(3) 0.2478(2) -0.0644(2)
C19 C 0.7264(3) 0.2904(2) 0.0578(2)
H11 H 0.7084 0.3179 0.0963
C20 C 0.5923(4) 0.2440(3) -0.1315(3)
H12 H 0.5183 0.2341 -0.1189
H13 H 0.6149 0.2068 -0.1620
H14 H 0.5918 0.2886 -0.1565
Cd1 Cd 0.24791(2) 0.382910(13) 0.089830(13)
N1 N 0.6046(3) 0.10961(16) 0.49813(17)
N2 N 0.5519(3) 0.32968(17) -0.00611(19)
N3 N 0.3900(3) 0.36683(18) 0.02291(18)
O1 O 0.3412(2) -0.03127(15) 0.34348(16)
O2 O 0.1733(3) -0.00902(16) 0.37063(19)
O3 O 0.3363(3) 0.31684(18) 0.19709(19)
O4 O 0.1947(3) 0.27532(18) 0.12561(17)
C14F C 1.0337(3) 0.1831(2) -0.0318(2)
H8F H 1.0386 0.2228 -0.0610
C15F C 0.9708(4) 0.1075(2) 0.0422(3)
H9F H 0.9266 0.0849 0.0732
C16F C 1.0706(3) 0.0854(2) 0.0235(2)
H10F H 1.1073 0.0438 0.0397
C17F C 0.8466(3) 0.2118(2) 0.0046(2)
C18F C 0.8269(3) 0.2522(2) 0.0644(2)
C19F C 0.7736(3) 0.2096(2) -0.0578(2)
H11F H 0.7916 0.1821 -0.0963
C20F C 0.9077(4) 0.2560(3) 0.1315(3)
H12F H 0.9817 0.2659 0.1189
H13F H 0.8851 0.2932 0.1620
H14F H 0.9082 0.2114 0.1565
N2F N 0.9481(3) 0.17032(17) 0.00611(19)
N3F N 1.1100(3) 0.13317(18) -0.02291(18)
C1F C 0.8758(4) 0.3730(2) -0.4317(2)
H1F H 0.8019 0.3645 -0.4233
C2F C 0.9585(4) 0.3670(3) -0.3748(2)
H2F H 0.9400 0.3545 -0.3293
C3F C 1.0694(3) 0.37968(17) -0.3852(2)
C4F C 1.0909(3) 0.3990(2) -0.4547(2)
H3F H 1.1638 0.4085 -0.4644
C5F C 1.0026(3) 0.4036(2) -0.5084(2)
H4F H 1.0180 0.4166 -0.5543
C6F C 1.1588(3) 0.36960(19) -0.32466(19)
C7F C 1.1602(3) 0.30678(19) -0.28454(19)
H5F H 1.1062 0.2721 -0.2973
C8F C 1.2402(3) 0.2952(2) -0.22624(19)
C9F C 1.3220(3) 0.3464(2) -0.2077(2)
H6F H 1.3759 0.3392 -0.1684
C10F C 1.3230(3) 0.4080(2) -0.2479(2)
H7F H 1.3791 0.4417 -0.2362
C11F C 1.2417(3) 0.42058(19) -0.30532(19)
C12F C 1.2420(3) 0.49167(19) -0.34251(18)
C13F C 1.2367(3) 0.2299(2) -0.1808(2)
Cd1F Cd 1.25209(2) 0.117090(13) -0.089830(13)
N1F N 0.8954(3) 0.39039(16) -0.49813(17)
O1F O 1.1588(2) 0.53127(15) -0.34348(16)
O2F O 1.3267(3) 0.50902(16) -0.37063(19)
O3F O 1.1637(3) 0.18316(18) -0.19709(19)
O4F O 1.3053(3) 0.22468(18) -0.12561(17)
Cd1A Cd 0.75209(2) 0.382910(13) -0.589830(13)
Cd1C Cd 0.25209(2) -0.117090(13) 0.410170(13)
Cd1E Cd 1.24791(2) 0.617090(13) -0.410170(13)
Cd1G Cd 0.74791(2) 0.117090(13) 0.589830(13)
N1A N 1.3954(3) 0.10961(16) 0.00187(17)
N1G N 0.1046(3) 0.39039(16) -0.00187(17)
O1C O 0.1588(2) 0.46873(15) 0.15652(16)
O1E O 1.3412(2) 0.03127(15) -0.15652(16)
O2C O 0.3267(3) 0.49098(16) 0.12937(19)
O2E O 1.1733(3) 0.00902(16) -0.12937(19)
O5 O 0.7702(12) 0.4660(5) 0.1075(7)
H15 H 0.819(3) 0.463(7) 0.143(3)
H16 H 0.7053(16) 0.464(5) 0.117(3)
O6 O 0.4139(6) 0.4097(6) 0.3193(4)
H17 H 0.457(5) 0.4405(17) 0.338(4)
H18 H 0.439(5) 0.3689(10) 0.323(3)
loop_
_geom_bond_atom_site_label_1
_geom_bond_atom_site_label_2
_geom_bond_site_symmetry_1
_geom_bond_site_symmetry_2
C1 H1 1_555 1_555
C2 C1 1_555 1_555
H2 C2 1_555 1_555
C3 C2 1_555 1_555
C4 C3 1_555 1_555
H3 C4 1_555 1_555
C5 C4 1_555 1_555
H4 C5 1_555 1_555
C6 C3 1_555 1_555
C7 C6 1_555 1_555
H5 C7 1_555 1_555
C8 C7 1_555 1_555
C9 C8 1_555 1_555
H6 C9 1_555 1_555
C10 C9 1_555 1_555
H7 C10 1_555 1_555
C11 C6 1_555 1_555
C12 C11 1_555 1_555
C13 C8 1_555 1_555
C14 H8 1_555 1_555
C15 H9 1_555 1_555
C16 C15 1_555 1_555
H10 C16 1_555 1_555
C17 C18 1_555 1_555
C18 C20 1_555 1_555
C19 C17 1_555 1_555
H11 C19 1_555 1_555
C20 H12 1_555 1_555
H13 C20 1_555 1_555
H14 C20 1_555 1_555
Cd1 N3 1_555 1_555
N1 C1 1_555 1_555
N2 C14 1_555 1_555
N3 C14 1_555 1_555
O1 C12 1_555 1_555
O2 C12 1_555 1_555
O3 C13 1_555 1_555
O4 C13 1_555 1_555
O5 H15 1_555 1_555
H16 O5 1_555 1_555
O6 H17 1_555 1_555
H18 O6 1_555 1_555
C14F H8F 1_555 1_555
C15F H9F 1_555 1_555
C16F C15F 1_555 1_555
H10F C16F 1_555 1_555
C17F C18F 1_555 1_555
C18F C19 1_555 1_555
C19F C18 1_555 1_555
H11F C19F 1_555 1_555
C20F C18F 1_555 1_555
H12F C20F 1_555 1_555
H13F C20F 1_555 1_555
H14F C20F 1_555 1_555
N2F C14F 1_555 1_555
N3F C14F 1_555 1_555
C1F H1F 1_555 1_555
C2F C1F 1_555 1_555
H2F C2F 1_555 1_555
C3F C2F 1_555 1_555
C4F C3F 1_555 1_555
H3F C4F 1_555 1_555
C5F C4F 1_555 1_555
H4F C5F 1_555 1_555
C6F C3F 1_555 1_555
C7F C6F 1_555 1_555
H5F C7F 1_555 1_555
C8F C7F 1_555 1_555
C9F C8F 1_555 1_555
H6F C9F 1_555 1_555
C10F C9F 1_555 1_555
H7F C10F 1_555 1_555
C11F C6F 1_555 1_555
C12F C11F 1_555 1_555
C13F C8F 1_555 1_555
Cd1F N3F 1_555 1_555
N1F C1F 1_555 1_555
O1F C12F 1_555 1_555
O2F C12F 1_555 1_555
O3F C13F 1_555 1_555
O4F C13F 1_555 1_555
Cd1A N1F 1_555 1_555
Cd1C O1 1_555 1_555
Cd1E O1F 1_555 1_555
Cd1G N1 1_555 1_555
N1A Cd1F 1_555 1_555
N1G Cd1 1_555 1_555
O1C Cd1 1_555 1_555
O1E Cd1F 1_555 1_555
O2C Cd1 1_555 1_555
O2E Cd1F 1_555 1_555
C5 N1 1_555 1_555
C10 C11 1_555 1_555
C15 N2 1_555 1_555
C16 N3 1_555 1_555
C17 N2 1_555 1_555
Cd1 O3 1_555 1_555
Cd1 O4 1_555 1_555
O2 Cd1C 1_555 1_555
C15F N2F 1_555 1_555
C16F N3F 1_555 1_555
C17F C19F 1_555 1_555
C17F N2F 1_555 1_555
C5F N1F 1_555 1_555
C10F C11F 1_555 1_555
Cd1F O3F 1_555 1_555
Cd1F O4F 1_555 1_555
O2F Cd1E 1_555 1_555

#END
