
#######################################################################
#
#                 Cambridge Crystallographic Data Centre
#                                CCDC 
#
#######################################################################
#
# If this CIF has been generated from an entry in the Cambridge 
# Structural Database, then it will include bibliographic, chemical, 
# crystal, experimental, refinement or atomic coordinate data resulting 
# from the CCDC's data processing and validation procedures.
#
#######################################################################

data_QOVWAB
_symmetry_cell_setting           triclinic
_symmetry_space_group_name_H-M   'P -1'
_symmetry_Int_Tables_number      2
_space_group_name_Hall           '-P 1'
loop_
_symmetry_equiv_pos_site_id
_symmetry_equiv_pos_as_xyz
1 x,y,z
2 -x,-y,-z
_cell_length_a                   8.3360(5)
_cell_length_b                   10.5155(6)
_cell_length_c                   13.4550(8)
_cell_angle_alpha                105.088(5)
_cell_angle_beta                 107.870(5)
_cell_angle_gamma                90.637(5)
_cell_volume                     1078.5
loop_
_atom_site_label
_atom_site_type_symbol
_atom_site_fract_x
_atom_site_fract_y
_atom_site_fract_z
Cd1 Cd 0.16891(4) 0.59425(3) 0.06159(3)
C1 C 0.7112(10) 0.9980(7) 0.3117(7)
H1 H 0.6331 1.0567 0.3356
H2 H 0.7489 1.0321 0.2613
O1 O 0.2628(6) 0.3950(4) 0.0476(4)
C2 C 1.0195(10) 1.0314(10) 0.4118(7)
H3 H 1.0355 1.0535 0.3527
O2 O 0.0235(5) 0.2621(4) -0.0390(4)
C3 C 0.0495(8) 0.5529(6) 0.4968(5)
O3 O -0.1646(6) 0.4177(4) 0.1084(3)
C4 C 0.0455(8) 0.5642(6) 0.3938(5)
H4 H 0.1105 0.6338 0.3896
N1 N 0.6218(6) 0.8640(5) 0.2550(4)
O4 O 0.0651(6) 0.5633(5) 0.1910(4)
C5 C 0.4518(7) 0.1762(5) 0.0285(5)
H5 H 0.5098 0.2604 0.0556
C6 C -0.0514(8) 0.4754(6) 0.3007(5)
C7 C 0.8625(9) 0.9975(7) 0.4090(6)
C8 C 0.7244(7) 0.0743(5) 0.0473(5)
H6 H 0.7848 0.1574 0.0710
C9 C 0.3246(10) 0.9286(8) 0.2283(7)
H7 H 0.3394 0.9639 0.3043
H8 H 0.2130 0.8833 0.1916
H9 H 0.3385 0.9995 0.1980
N2 N 0.4176(6) 0.7072(5) 0.1595(4)
C10 C 0.2800(7) 0.1635(5) -0.0011(5)
C11 C 0.1908(7) 0.0355(6) -0.0401(5)
H10 H 0.0732 0.0267 -0.0610
C12 C 0.1545(10) 0.6432(7) 0.5951(6)
H11 H 0.2226 0.7122 0.5926
C13 C 0.5445(7) 0.0644(5) 0.0191(5)
C14 C -0.1547(9) 0.3721(6) 0.3065(5)
H12 H -0.2241 0.3135 0.2426
C15 C 0.1819(7) 0.2839(6) 0.0032(5)
C16 C 0.4525(8) 0.8344(6) 0.2145(5)
C17 C -0.0502(8) 0.4862(6) 0.1910(5)
C18 C 0.6962(8) 0.7502(7) 0.2232(6)
H13 H 0.8116 0.7416 0.2398
C19 C 0.8411(10) 0.9659(11) 0.4984(7)
H14 H 0.7330 0.9428 0.4981
C20 C 0.5710(8) 0.6556(6) 0.1644(5)
H15 H 0.5843 0.5686 0.1317
C1A C 1.2888(10) 1.0020(7) 0.6883(7)
H1A H 1.3669 0.9433 0.6644
H2A H 1.2511 0.9679 0.7387
C2A C 0.9805(10) 0.9686(10) 0.5882(7)
H3A H 0.9645 0.9465 0.6473
N1A N 1.3782(6) 1.1360(5) 0.7450(4)
C7A C 1.1375(9) 1.0025(7) 0.5910(6)
C9A C 1.6754(10) 1.0714(8) 0.7717(7)
H7A H 1.6606 1.0361 0.6957
H8A H 1.7870 1.1167 0.8084
H9A H 1.6615 1.0005 0.8020
N2A N 1.5824(6) 1.2928(5) 0.8405(4)
C16A C 1.5475(8) 1.1656(6) 0.7855(5)
C18A C 1.3038(8) 1.2498(7) 0.7768(6)
H13A H 1.1884 1.2584 0.7602
C19A C 1.1589(10) 1.0341(11) 0.5016(7)
H14A H 1.2670 1.0572 0.5019
C20A C 1.4290(8) 1.3444(6) 0.8356(5)
H15A H 1.4157 1.4314 0.8683
O1A O 0.7372(6) -0.3950(4) -0.0476(4)
C5A C 0.5482(7) -0.1762(5) -0.0285(5)
H5A H 0.4902 -0.2604 -0.0556
C8A C 0.2756(7) -0.0743(5) -0.0473(5)
H6A H 0.2152 -0.1574 -0.0710
C10A C 0.7200(7) -0.1635(5) 0.0011(5)
C11A C 0.8092(7) -0.0355(6) 0.0401(5)
H10A H 0.9268 -0.0267 0.0610
C13A C 0.4555(7) -0.0644(5) -0.0191(5)
C15A C 0.8181(7) -0.2839(6) -0.0032(5)
O2A O 0.9765(5) -0.2621(4) 0.0390(4)
C3A C -0.0495(8) 0.4471(6) 0.5032(5)
C4A C -0.0455(8) 0.4358(6) 0.6062(5)
H4A H -0.1105 0.3662 0.6104
O4A O -0.0651(6) 0.4367(5) 0.8090(4)
C6A C 0.0514(8) 0.5246(6) 0.6993(5)
C12A C -0.1545(10) 0.3568(7) 0.4049(6)
H11A H -0.2226 0.2878 0.4074
C14A C 0.1547(9) 0.6279(6) 0.6935(5)
H12A H 0.2241 0.6865 0.7574
C17A C 0.0502(8) 0.5138(6) 0.8090(5)
O3A O 0.1646(6) 0.5823(4) 0.8916(3)
Cd1A Cd -0.16891(4) 0.40575(3) -0.06159(3)
Cd1_2 Cd 0.16891(4) 0.59425(3) 1.06159(3)
Cd1_3 Cd 1.16891(4) -0.40575(3) 0.06159(3)
Cd1A_2 Cd -0.16891(4) 0.40575(3) 0.93841(3)
Cd1A_3 Cd 0.83109(4) -0.59425(3) -0.06159(3)
Cd1A_4 Cd 1.83109(4) 1.40575(3) 0.93841(3)
O1A_2 O -0.2628(6) 0.6050(4) -0.0476(4)
O2A_2 O -0.0235(5) 0.7379(4) 0.0390(4)
O3A_2 O 0.1646(6) 0.5823(4) -0.1084(3)
O4A_2 O -0.0651(6) 0.4367(5) -0.1910(4)
N2A_2 N -0.4176(6) 0.2928(5) -0.1595(4)
loop_
_geom_bond_atom_site_label_1
_geom_bond_atom_site_label_2
_geom_bond_site_symmetry_1
_geom_bond_site_symmetry_2
Cd1 O1 1_555 1_555
C1 H1 1_555 1_555
H2 C1 1_555 1_555
O1 C15 1_555 1_555
C2 H3 1_555 1_555
O2 C15 1_555 1_555
C3 C4 1_555 1_555
O3 C17 1_555 1_555
C4 H4 1_555 1_555
N1 C1 1_555 1_555
O4 Cd1 1_555 1_555
C5 H5 1_555 1_555
C6 C4 1_555 1_555
C7 C1 1_555 1_555
C8 H6 1_555 1_555
C9 H7 1_555 1_555
H8 C9 1_555 1_555
H9 C9 1_555 1_555
N2 Cd1 1_555 1_555
C10 C5 1_555 1_555
C11 C10 1_555 1_555
H10 C11 1_555 1_555
C12 C3 1_555 1_555
H11 C12 1_555 1_555
C13 C5 1_555 1_555
C14 C6 1_555 1_555
H12 C14 1_555 1_555
C15 C10 1_555 1_555
C16 N1 1_555 1_555
C17 O4 1_555 1_555
C18 N1 1_555 1_555
H13 C18 1_555 1_555
C19 C7 1_555 1_555
H14 C19 1_555 1_555
C20 N2 1_555 1_555
H15 C20 1_555 1_555
C1A H1A 1_555 1_555
H2A C1A 1_555 1_555
C2A C19 1_555 1_555
H3A C2A 1_555 1_555
N1A C1A 1_555 1_555
C7A C1A 1_555 1_555
C9A H7A 1_555 1_555
H8A C9A 1_555 1_555
H9A C9A 1_555 1_555
N2A C16A 1_555 1_555
C16A N1A 1_555 1_555
C18A N1A 1_555 1_555
H13A C18A 1_555 1_555
C19A C2 1_555 1_555
H14A C19A 1_555 1_555
C20A N2A 1_555 1_555
H15A C20A 1_555 1_555
O1A C15A 1_555 1_555
C5A H5A 1_555 1_555
C8A C11 1_555 1_555
H6A C8A 1_555 1_555
C10A C5A 1_555 1_555
C11A C8 1_555 1_555
H10A C11A 1_555 1_555
C13A C13 1_555 1_555
C15A C10A 1_555 1_555
O2A C15A 1_555 1_555
C3A C3 1_555 1_555
C4A C3A 1_555 1_555
H4A C4A 1_555 1_555
O4A C17A 1_555 1_555
C6A C4A 1_555 1_555
C12A C14 1_555 1_555
H11A C12A 1_555 1_555
C14A C12 1_555 1_555
H12A C14A 1_555 1_555
C17A C6A 1_555 1_555
O3A C17A 1_555 1_555
Cd1A O2 1_555 1_555
Cd1_2 O3A 1_555 1_555
Cd1_3 O2A 1_555 1_555
Cd1A_2 O4A 1_555 1_555
Cd1A_3 O1A 1_555 1_555
Cd1A_4 N2A 1_555 1_555
O1A_2 Cd1A 1_555 1_555
O2A_2 Cd1 1_555 1_555
O3A_2 Cd1 1_555 1_555
O4A_2 Cd1A 1_555 1_555
N2A_2 Cd1A 1_555 1_555
C2 C7 1_555 1_555
O3 Cd1A 1_555 1_555
C6 C17 1_555 1_555
C8 C13 1_555 1_555
C9 C16 1_555 1_555
N2 C16 1_555 1_555
C18 C20 1_555 1_555
C2A C7A 1_555 1_555
C7A C19A 1_555 1_555
C9A C16A 1_555 1_555
C18A C20A 1_555 1_555
C5A C13A 1_555 1_555
C8A C13A 1_555 1_555
C10A C11A 1_555 1_555
C3A C12A 1_555 1_555
C6A C14A 1_555 1_555

#END
