
#######################################################################
#
#                 Cambridge Crystallographic Data Centre
#                                CCDC 
#
#######################################################################
#
# If this CIF has been generated from an entry in the Cambridge 
# Structural Database, then it will include bibliographic, chemical, 
# crystal, experimental, refinement or atomic coordinate data resulting 
# from the CCDC's data processing and validation procedures.
#
#######################################################################

data_QOVXEG01
_symmetry_cell_setting           rhombohedral
_symmetry_space_group_name_H-M   'R -3'
_symmetry_Int_Tables_number      148
_space_group_name_Hall           '-R 3'
loop_
_symmetry_equiv_pos_site_id
_symmetry_equiv_pos_as_xyz
1 x,y,z
2 1/3+x,2/3+y,2/3+z
3 2/3+x,1/3+y,1/3+z
4 -y,x-y,z
5 1/3-y,2/3+x-y,2/3+z
6 2/3-y,1/3+x-y,1/3+z
7 -x+y,-x,z
8 1/3-x+y,2/3-x,2/3+z
9 2/3-x+y,1/3-x,1/3+z
10 -x,-y,-z
11 2/3-x,1/3-y,1/3-z
12 1/3-x,2/3-y,2/3-z
13 y,-x+y,-z
14 2/3+y,1/3-x+y,1/3-z
15 1/3+y,2/3-x+y,2/3-z
16 x-y,x,-z
17 2/3+x-y,1/3+x,1/3-z
18 1/3+x-y,2/3+x,2/3-z
_cell_length_a                   21.607(3)
_cell_length_b                   21.607(3)
_cell_length_c                   15.608(4)
_cell_angle_alpha                90
_cell_angle_beta                 90
_cell_angle_gamma                120
_cell_volume                     6310.54
loop_
_atom_site_label
_atom_site_type_symbol
_atom_site_fract_x
_atom_site_fract_y
_atom_site_fract_z
Co1 Co 0.3988(2) 0.0573(2) 0.3249(3)
C1 C 0.3385(5) 0.0231(5) 0.1572(11)
C2 C 0.3664(3) -0.0550(5) 0.1810(6)
C3 C 0.3899(4) -0.0982(7) 0.2129(9)
C4 C 0.3804(5) -0.1520(6) 0.1627(13)
C5 C 0.3837(5) 0.1869(8) 0.3331(7)
C6 C 0.4481(5) 0.1899(6) 0.2287(7)
C7 C 0.4848(6) 0.1765(8) 0.1669(8)
C8 C 0.5249(5) 0.2323(11) 0.1104(7)
C9 C 0.4510(5) 0.2544(5) 0.2344(7)
C10 C 0.4912(5) 0.3084(6) 0.1776(8)
C11 C 0.5279(5) 0.2955(9) 0.1158(7)
C12 C 0.3347(4) -0.0665(6) 0.1012(6)
C13 C 0.3249(5) -0.1220(7) 0.0495(8)
C14 C 0.3488(6) -0.1645(5) 0.0827(12)
N1 N 0.3689(4) 0.0031(6) 0.2171(8)
N2 N 0.4040(5) 0.1474(6) 0.2939(8)
N3 N 0.4087(5) 0.2514(7) 0.3026(7)
N4 N 0.3170(4) -0.0154(7) 0.0872(9)
H1 H 0.3330 0.0627 0.1649
H2 H 0.4113 -0.0906 0.2665
H3 H 0.3957 -0.1829 0.1823
H4 H 0.3533 0.1705 0.3802
H5 H 0.4830 0.1327 0.1630
H6 H 0.5505 0.2253 0.0673
H7 H 0.4932 0.3523 0.1812
H8 H 0.5555 0.3312 0.0767
H9 H 0.3034 -0.1300 -0.0041
H10 H 0.3436 -0.2031 0.0506
Co1D Co 0.2760(2) 0.0082(3) -0.0084(3)
Co1N Co 0.3906(2) 0.3252(3) 0.3418(3)
N3Q N 0.4906(9) 0.0754(5) 0.3641(7)
N4H N 0.3343(8) 0.0163(4) 0.4205(9)
loop_
_geom_bond_atom_site_label_1
_geom_bond_atom_site_label_2
_geom_bond_site_symmetry_1
_geom_bond_site_symmetry_2
Co1 N1 1_555 1_555
C1 N1 1_555 1_555
C2 C3 1_555 1_555
C3 C4 1_555 1_555
C4 C14 1_555 1_555
C5 N2 1_555 1_555
C6 C7 1_555 1_555
C7 C8 1_555 1_555
C8 C11 1_555 1_555
C9 C6 1_555 1_555
C10 C9 1_555 1_555
C11 C10 1_555 1_555
C12 C2 1_555 1_555
C13 C12 1_555 1_555
C14 C13 1_555 1_555
N1 C2 1_555 1_555
N2 Co1 1_555 1_555
N3 C5 1_555 1_555
N4 C1 1_555 1_555
H1 C1 1_555 1_555
H2 C3 1_555 1_555
H3 C4 1_555 1_555
H4 C5 1_555 1_555
H5 C7 1_555 1_555
H6 C8 1_555 1_555
H7 C10 1_555 1_555
H8 C11 1_555 1_555
H9 C13 1_555 1_555
H10 C14 1_555 1_555
Co1D N4 1_555 1_555
Co1N N3 1_555 1_555
N3Q Co1 1_555 1_555
N4H Co1 1_555 1_555
C6 N2 1_555 1_555
C9 N3 1_555 1_555
C12 N4 1_555 1_555

#END
