
#######################################################################
#
#                 Cambridge Crystallographic Data Centre
#                                CCDC 
#
#######################################################################
#
# If this CIF has been generated from an entry in the Cambridge 
# Structural Database, then it will include bibliographic, chemical, 
# crystal, experimental, refinement or atomic coordinate data resulting 
# from the CCDC's data processing and validation procedures.
#
#######################################################################

data_QOVXEG02
_symmetry_cell_setting           rhombohedral
_symmetry_space_group_name_H-M   'R -3'
_symmetry_Int_Tables_number      148
_space_group_name_Hall           '-R 3'
loop_
_symmetry_equiv_pos_site_id
_symmetry_equiv_pos_as_xyz
1 x,y,z
2 1/3+x,2/3+y,2/3+z
3 2/3+x,1/3+y,1/3+z
4 -y,x-y,z
5 1/3-y,2/3+x-y,2/3+z
6 2/3-y,1/3+x-y,1/3+z
7 -x+y,-x,z
8 1/3-x+y,2/3-x,2/3+z
9 2/3-x+y,1/3-x,1/3+z
10 -x,-y,-z
11 2/3-x,1/3-y,1/3-z
12 1/3-x,2/3-y,2/3-z
13 y,-x+y,-z
14 2/3+y,1/3-x+y,1/3-z
15 1/3+y,2/3-x+y,2/3-z
16 x-y,x,-z
17 2/3+x-y,1/3+x,1/3-z
18 1/3+x-y,2/3+x,2/3-z
_cell_length_a                   23.0110(8)
_cell_length_b                   23.0110(8)
_cell_length_c                   15.7647(7)
_cell_angle_alpha                90
_cell_angle_beta                 90
_cell_angle_gamma                120
_cell_volume                     7229.15
loop_
_atom_site_label
_atom_site_type_symbol
_atom_site_fract_x
_atom_site_fract_y
_atom_site_fract_z
Co1 Co 0.40361(2) 0.065623(19) 0.32560(2)
C1 C 0.33781(15) 0.03327(15) 0.15800(19)
C2 C 0.36156(15) -0.04313(15) 0.18766(19)
C3 C 0.38137(16) -0.08591(17) 0.2236(2)
C4 C 0.36852(19) -0.14204(19) 0.1785(3)
C5 C 0.39309(15) 0.19221(15) 0.33969(17)
C6 C 0.45281(15) 0.19628(15) 0.23332(19)
C7 C 0.48890(19) 0.18533(18) 0.1707(2)
C8 C 0.5233(2) 0.2365(2) 0.1136(2)
C9 C 0.45173(15) 0.25596(15) 0.23785(19)
C10 C 0.48772(18) 0.30791(18) 0.1802(2)
C11 C 0.5232(2) 0.2964(2) 0.1183(2)
C12 C 0.32895(14) -0.05759(14) 0.10899(19)
C13 C 0.31701(16) -0.11424(17) 0.0628(2)
C14 C 0.3376(2) -0.15532(18) 0.1000(3)
N1 N 0.36676(12) 0.01551(12) 0.21802(14)
N2 N 0.41394(12) 0.15530(12) 0.30014(14)
N3 N 0.41264(12) 0.25292(12) 0.30727(14)
N4 N 0.31388(12) -0.00784(12) 0.09108(14)
H1 H 0.3335 0.0719 0.1614
H2 H 0.4024 -0.0758 0.2776
H3 H 0.3821 -0.1708 0.2015
H4 H 0.3664 0.1766 0.3891
H5 H 0.4884 0.1441 0.1674
H6 H 0.5473 0.2308 0.0682
H7 H 0.4884 0.3497 0.1842
H8 H 0.5482 0.3311 0.0780
H9 H 0.2943 -0.1240 0.0104
H10 H 0.3309 -0.1940 0.0692
Co1D Co 0.267710(19) 0.004654(28) -0.00773(2)
Co1N Co 0.398956(19) 0.328680(28) 0.34107(2)
N3Q N 0.49305(17) 0.07931(12) 0.35940(14)
N4H N 0.34495(17) 0.01945(12) 0.42441(14)
loop_
_geom_bond_atom_site_label_1
_geom_bond_atom_site_label_2
_geom_bond_site_symmetry_1
_geom_bond_site_symmetry_2
Co1 N1 1_555 1_555
C1 N1 1_555 1_555
C2 C3 1_555 1_555
C3 C4 1_555 1_555
C4 C14 1_555 1_555
C5 N2 1_555 1_555
C6 C7 1_555 1_555
C7 C8 1_555 1_555
C8 C11 1_555 1_555
C9 C6 1_555 1_555
C10 C9 1_555 1_555
C11 C10 1_555 1_555
C12 C2 1_555 1_555
C13 C12 1_555 1_555
C14 C13 1_555 1_555
N1 C2 1_555 1_555
N2 Co1 1_555 1_555
N3 C5 1_555 1_555
N4 C1 1_555 1_555
H1 C1 1_555 1_555
H2 C3 1_555 1_555
H3 C4 1_555 1_555
H4 C5 1_555 1_555
H5 C7 1_555 1_555
H6 C8 1_555 1_555
H7 C10 1_555 1_555
H8 C11 1_555 1_555
H9 C13 1_555 1_555
H10 C14 1_555 1_555
Co1D N4 1_555 1_555
Co1N N3 1_555 1_555
N3Q Co1 1_555 1_555
N4H Co1 1_555 1_555
C6 N2 1_555 1_555
C9 N3 1_555 1_555
C12 N4 1_555 1_555

#END
