
#######################################################################
#
#                 Cambridge Crystallographic Data Centre
#                                CCDC 
#
#######################################################################
#
# If this CIF has been generated from an entry in the Cambridge 
# Structural Database, then it will include bibliographic, chemical, 
# crystal, experimental, refinement or atomic coordinate data resulting 
# from the CCDC's data processing and validation procedures.
#
#######################################################################

data_QOVXEG03
_symmetry_cell_setting           rhombohedral
_symmetry_space_group_name_H-M   'R -3'
_symmetry_Int_Tables_number      148
_space_group_name_Hall           '-R 3'
loop_
_symmetry_equiv_pos_site_id
_symmetry_equiv_pos_as_xyz
1 x,y,z
2 -y,x-y,z
3 -x+y,-x,z
4 2/3+x,1/3+y,1/3+z
5 2/3-y,1/3+x-y,1/3+z
6 2/3-x+y,1/3-x,1/3+z
7 1/3+x,2/3+y,2/3+z
8 1/3-y,2/3+x-y,2/3+z
9 1/3-x+y,2/3-x,2/3+z
10 -x,-y,-z
11 y,-x+y,-z
12 x-y,x,-z
13 1/3-x,2/3-y,2/3-z
14 1/3+y,2/3-x+y,2/3-z
15 1/3+x-y,2/3+x,2/3-z
16 2/3-x,1/3-y,1/3-z
17 2/3+y,1/3-x+y,1/3-z
18 2/3+x-y,1/3+x,1/3-z
_cell_length_a                   22.8401(14)
_cell_length_b                   22.8401(14)
_cell_length_c                   15.8514(15)
_cell_angle_alpha                90
_cell_angle_beta                 90
_cell_angle_gamma                120
_cell_volume                     7161.34
loop_
_atom_site_label
_atom_site_type_symbol
_atom_site_fract_x
_atom_site_fract_y
_atom_site_fract_z
Co1 Co 0.40215(3) 0.06374(3) 0.32479(4)
N1 N 0.3669(2) 0.0137(2) 0.2171(3)
N2 N 0.3146(2) -0.0100(2) 0.0907(3)
C1 C 0.3385(3) 0.0327(3) 0.1570(3)
H1 H 0.3356 0.0726 0.1607
C2 C 0.3309(2) -0.0579(2) 0.1078(3)
C3 C 0.3207(3) -0.1152(3) 0.0587(4)
H2 H 0.3009 -0.1242 0.0041
C4 C 0.3418(3) -0.1568(3) 0.0962(5)
H3 H 0.3349 -0.1961 0.0669
C5 C 0.3719(3) -0.1430(3) 0.1737(5)
H4 H 0.3864 -0.1723 0.1961
C6 C 0.3820(3) -0.0874(3) 0.2208(4)
H5 H 0.4022 -0.0790 0.2751
C7 C 0.3622(3) -0.0455(3) 0.1872(4)
N3 N 0.4120(2) 0.1541(2) 0.2987(3)
N4 N 0.4110(2) 0.2523(2) 0.3075(3)
C8 C 0.3908(3) 0.1912(3) 0.3384(3)
H6 H 0.3624 0.1747 0.3866
C9 C 0.4508(3) 0.2562(3) 0.2380(3)
C10 C 0.4867(3) 0.3087(3) 0.1808(4)
H7 H 0.4863 0.3500 0.1844
C11 C 0.5226(4) 0.2980(4) 0.1190(5)
H8 H 0.5484 0.3327 0.0795
C12 C 0.5212(5) 0.2351(5) 0.1140(5)
H9 H 0.5443 0.2282 0.0686
C13 C 0.4887(4) 0.1845(4) 0.1705(4)
H10 H 0.4907 0.1439 0.1679
C14 C 0.4517(3) 0.1956(3) 0.2340(4)
Co1G Co 0.26959(3) 0.00508(4) -0.00854(4)
Co1M Co 0.39707(3) 0.32826(4) 0.34188(4)
N2E N 0.3421(3) 0.0187(2) 0.4240(3)
N4N N 0.4920(3) 0.0777(2) 0.3592(3)
loop_
_geom_bond_atom_site_label_1
_geom_bond_atom_site_label_2
_geom_bond_site_symmetry_1
_geom_bond_site_symmetry_2
Co1 N1 1_555 1_555
N1 C1 1_555 1_555
N2 C1 1_555 1_555
C1 H1 1_555 1_555
C2 N2 1_555 1_555
C3 C2 1_555 1_555
H2 C3 1_555 1_555
C4 C3 1_555 1_555
H3 C4 1_555 1_555
C5 C4 1_555 1_555
H4 C5 1_555 1_555
C6 C5 1_555 1_555
H5 C6 1_555 1_555
C7 N1 1_555 1_555
N3 Co1 1_555 1_555
N4 C8 1_555 1_555
C8 N3 1_555 1_555
H6 C8 1_555 1_555
C9 N4 1_555 1_555
C10 C9 1_555 1_555
H7 C10 1_555 1_555
C11 C10 1_555 1_555
H8 C11 1_555 1_555
C12 C11 1_555 1_555
H9 C12 1_555 1_555
C13 C12 1_555 1_555
H10 C13 1_555 1_555
C14 N3 1_555 1_555
Co1G N2 1_555 1_555
Co1M N4 1_555 1_555
N2E Co1 1_555 1_555
N4N Co1 1_555 1_555
C2 C7 1_555 1_555
C6 C7 1_555 1_555
C9 C14 1_555 1_555
C13 C14 1_555 1_555

#END
