
#######################################################################
#
#                 Cambridge Crystallographic Data Centre
#                                CCDC 
#
#######################################################################
#
# If this CIF has been generated from an entry in the Cambridge 
# Structural Database, then it will include bibliographic, chemical, 
# crystal, experimental, refinement or atomic coordinate data resulting 
# from the CCDC's data processing and validation procedures.
#
#######################################################################

data_QOVYEF
_symmetry_cell_setting           tetragonal
_symmetry_space_group_name_H-M   'P 41 21 2'
_symmetry_Int_Tables_number      92
_space_group_name_Hall           'P 4abw 2nw'
loop_
_symmetry_equiv_pos_site_id
_symmetry_equiv_pos_as_xyz
1 x,y,z
2 1/2-y,1/2+x,1/4+z
3 1/2+x,1/2-y,3/4-z
4 -x,-y,1/2+z
5 y,x,-z
6 1/2+y,1/2-x,3/4+z
7 1/2-x,1/2+y,1/4-z
8 -y,-x,1/2-z
_cell_length_a                   16.6280(10)
_cell_length_b                   16.6280(10)
_cell_length_c                   22.7800(10)
_cell_angle_alpha                90
_cell_angle_beta                 90
_cell_angle_gamma                90
_cell_volume                     6298.45
loop_
_atom_site_label
_atom_site_type_symbol
_atom_site_fract_x
_atom_site_fract_y
_atom_site_fract_z
Fe2 Fe 0.76852(5) 0.76852(5) 0.0000
S3 S 0.5890(5) 0.5415(5) -0.0085(5)
S4 S 0.9232(4) 0.9876(4) 0.0870(2)
N4 N 0.6812(4) 0.6812(4) 0.0000
N5 N 0.6854(3) 0.8447(3) 0.0564(2)
N6 N 0.2838(3) 1.1787(3) 0.4158(3)
N7 N 0.8653(12) 0.8584(11) 0.0201(6)
C18 C 0.6322(4) 0.6322(4) 0.0000
C19 C 0.6084(3) 0.8335(3) 0.0522(2)
H9 H 0.5896 0.7905 0.0300
C20 C 0.5542(3) 0.8824(3) 0.07925(19)
H10 H 0.5010 0.8826 0.0666
C21 C 0.5769(3) 0.9316(3) 0.12501(17)
C22 C 0.6593(4) 0.9395(4) 0.1291(3)
H11 H 0.6793 0.9794 0.1538
C23 C 0.7131(4) 0.8933(4) 0.0996(3)
H12 H 0.7676 0.8950 0.1089
C24 C 0.5310(3) 0.9745(3) 0.1701(2)
C25 C 0.4723(5) 1.0085(5) 0.1971(3)
C26 C 0.4312(4) 1.0480(4) 0.2371(3)
C27 C 0.4044(7) 1.0943(7) 0.2772(5)
C28 C 0.3513(4) 1.1151(3) 0.3280(3)
C29 C 0.3609(5) 1.1987(4) 0.3315(3)
H13 H 0.3882 1.2299 0.3041
C30 C 0.3248(4) 1.2275(4) 0.3803(3)
H14 H 0.3286 1.2820 0.3892
C31 C 0.2691(4) 1.0992(3) 0.4148(2)
H15 H 0.2335 1.0712 0.4387
C32 C 0.3173(4) 1.0671(4) 0.3713(3)
H16 H 0.3273 1.0121 0.3711
C33 C 0.8875(5) 0.9214(5) 0.0364(4)
S3D S 0.5415(5) 0.5890(5) 0.0085(5)
N7D N 0.8584(11) 0.8653(12) -0.0201(6)
C33D C 0.9214(5) 0.8875(5) -0.0364(4)
S4D S 0.9876(4) 0.9232(4) -0.0870(2)
N5D N 0.8447(3) 0.6854(3) -0.0564(2)
N6D N 1.1787(3) 0.2838(3) -0.4158(3)
C19D C 0.8335(3) 0.6084(3) -0.0522(2)
H9D H 0.7905 0.5896 -0.0300
C20D C 0.8824(3) 0.5542(3) -0.07925(19)
H10D H 0.8826 0.5010 -0.0666
C21D C 0.9316(3) 0.5769(3) -0.12501(17)
C22D C 0.9395(4) 0.6593(4) -0.1291(3)
H11D H 0.9794 0.6793 -0.1538
C23D C 0.8933(4) 0.7131(4) -0.0996(3)
H12D H 0.8950 0.7676 -0.1089
C24D C 0.9745(3) 0.5310(3) -0.1701(2)
C25D C 1.0085(5) 0.4723(5) -0.1971(3)
C26D C 1.0480(4) 0.4312(4) -0.2371(3)
C27D C 1.0943(7) 0.4044(7) -0.2772(5)
C28D C 1.1151(3) 0.3513(4) -0.3280(3)
C29D C 1.1987(4) 0.3609(5) -0.3315(3)
H13D H 1.2299 0.3882 -0.3041
C30D C 1.2275(4) 0.3248(4) -0.3803(3)
H14D H 1.2820 0.3286 -0.3892
C31D C 1.0992(3) 0.2691(4) -0.4148(2)
H15D H 1.0712 0.2335 -0.4387
C32D C 1.0671(4) 0.3173(4) -0.3713(3)
H16D H 1.0121 0.3273 -0.3711
N6C N 0.7162(3) 0.8213(3) -0.0842(3)
N6G N 0.8213(3) 0.7162(3) 0.0842(3)
Fe2C Fe 0.23148(5) 1.23148(5) 0.5000
Fe2C_2 Fe 1.23148(5) 0.23148(5) -0.5000
O1 O 0.0591(16) 0.0591(16) 0.0000
C34 C 0.1213(16) 0.1213(16) 0.0000
Fe1 Fe 0.31391(3) 0.31391(3) 0.0000
S1 S 0.3947(3) 0.2531(3) 0.18508(17)
N1 N 0.3149(3) 0.3144(2) 0.09030(18)
N2 N 0.45026(18) 0.31681(18) -0.00508(13)
N3 N 1.1787(2) 0.3149(3) -0.0050(2)
C1 C 0.3457(5) 0.3143(6) 0.1369(4)
C2 C 0.4912(2) 0.3600(2) 0.03348(14)
H1 H 0.4620 0.3914 0.0597
C3 C 0.5733(3) 0.3619(3) 0.0375(2)
H2 H 0.6008 0.3856 0.0685
C4 C 0.6119(4) 0.3239(4) -0.0106(2)
C5 C 0.5758(4) 0.2719(5) -0.0495(3)
H3 H 0.6030 0.2392 -0.0761
C6 C 0.4926(2) 0.2757(3) -0.04317(18)
H4 H 0.4631 0.2448 -0.0695
C7 C 0.6978(2) 0.3296(3) -0.01420(18)
C8 C 0.7742(5) 0.3293(9) -0.0265(4)
C10 C 0.8504(3) 0.3256(3) -0.0133(2)
C11 C 0.9282(5) 0.3286(6) -0.0226(5)
C13 C 1.01440(18) 0.3113(2) -0.01092(13)
C14 C 1.0491(3) 0.2738(4) 0.0357(3)
H5 H 1.0197 0.2460 0.0640
C15 C 1.1358(3) 0.2809(3) 0.0375(2)
H6 H 1.1628 0.2606 0.0701
C16 C 1.1410(4) 0.3531(5) -0.0468(4)
H7 H 1.1704 0.3831 -0.0737
C17 C 1.0601(2) 0.3499(3) -0.05194(17)
H8 H 1.0353 0.3743 -0.0839
S1D S 0.2531(3) 0.3947(3) -0.18508(17)
N1D N 0.3144(2) 0.3149(3) -0.09030(18)
C1D C 0.3143(6) 0.3457(5) -0.1369(4)
N2D N 0.31681(18) 0.45026(18) 0.00508(13)
N3D N 0.3149(3) 1.1787(2) 0.0050(2)
C2D C 0.3600(2) 0.4912(2) -0.03348(14)
H1D H 0.3914 0.4620 -0.0597
C3D C 0.3619(3) 0.5733(3) -0.0375(2)
H2D H 0.3856 0.6008 -0.0685
C4D C 0.3239(4) 0.6119(4) 0.0106(2)
C5D C 0.2719(5) 0.5758(4) 0.0495(3)
H3D H 0.2392 0.6030 0.0761
C6D C 0.2757(3) 0.4926(2) 0.04317(18)
H4D H 0.2448 0.4631 0.0695
C7D C 0.3296(3) 0.6978(2) 0.01420(18)
C8D C 0.3293(9) 0.7742(5) 0.0265(4)
C10D C 0.3256(3) 0.8504(3) 0.0133(2)
C11D C 0.3286(6) 0.9282(5) 0.0226(5)
C13D C 0.3113(2) 1.01440(18) 0.01092(13)
C14D C 0.2738(4) 1.0491(3) -0.0357(3)
H5D H 0.2460 1.0197 -0.0640
C15D C 0.2809(3) 1.1358(3) -0.0375(2)
H6D H 0.2606 1.1628 -0.0701
C16D C 0.3531(5) 1.1410(4) 0.0468(4)
H7D H 0.3831 1.1704 0.0737
C17D C 0.3499(3) 1.0601(2) 0.05194(17)
H8D H 0.3743 1.0353 0.0839
N3_2 N 0.1787(2) 0.3149(3) -0.0050(2)
N3D_2 N 0.3149(3) 0.1787(2) 0.0050(2)
Fe1_2 Fe 1.31391(3) 0.31391(3) 0.0000
Fe1_3 Fe 0.31391(3) 1.31391(3) 0.0000
S2? S 0.4008(3) 0.3487(3) 0.1948(2)
C9? C 0.7740(5) 0.3190(10) -0.0038(5)
C12? C 0.9259(5) 0.3066(9) -0.0063(6)
loop_
_geom_bond_atom_site_label_1
_geom_bond_atom_site_label_2
_geom_bond_site_symmetry_1
_geom_bond_site_symmetry_2
Fe1 N1 1_555 1_555
S1 C1 1_555 1_555
N1 C1 1_555 1_555
N2 Fe1 1_555 1_555
N3 C15 1_555 1_555
C2 N2 1_555 1_555
H1 C2 1_555 1_555
C3 C2 1_555 1_555
H2 C3 1_555 1_555
C4 C3 1_555 1_555
C5 C4 1_555 1_555
H3 C5 1_555 1_555
C6 N2 1_555 1_555
H4 C6 1_555 1_555
C7 C4 1_555 1_555
C8 C7 1_555 1_555
C10 C8 1_555 1_555
C11 C10 1_555 1_555
C13 C11 1_555 1_555
C14 C13 1_555 1_555
H5 C14 1_555 1_555
C15 C14 1_555 1_555
H6 C15 1_555 1_555
C16 N3 1_555 1_555
H7 C16 1_555 1_555
C17 C13 1_555 1_555
H8 C17 1_555 1_555
Fe2 N4 1_555 1_555
S3 C18 1_555 1_555
S4 C33 1_555 1_555
N4 C18 1_555 1_555
N5 Fe2 1_555 1_555
N6 C30 1_555 1_555
N7 Fe2 1_555 1_555
C18 S3D 1_555 1_555
C19 N5 1_555 1_555
H9 C19 1_555 1_555
C20 C19 1_555 1_555
H10 C20 1_555 1_555
C21 C20 1_555 1_555
C22 C21 1_555 1_555
H11 C22 1_555 1_555
C23 N5 1_555 1_555
H12 C23 1_555 1_555
C24 C21 1_555 1_555
C25 C24 1_555 1_555
C26 C25 1_555 1_555
C27 C26 1_555 1_555
C28 C27 1_555 1_555
C29 C28 1_555 1_555
H13 C29 1_555 1_555
C30 C29 1_555 1_555
H14 C30 1_555 1_555
C31 N6 1_555 1_555
H15 C31 1_555 1_555
C32 C28 1_555 1_555
H16 C32 1_555 1_555
C33 N7 1_555 1_555
O1 C34 1_555 1_555
S3D S3 1_555 1_555
N7D Fe2 1_555 1_555
C33D N7 1_555 1_555
S4D C33D 1_555 1_555
S1D C1D 1_555 1_555
N1D Fe1 1_555 1_555
C1D N1D 1_555 1_555
N2D Fe1 1_555 1_555
N3D C15D 1_555 1_555
C2D N2D 1_555 1_555
H1D C2D 1_555 1_555
C3D C2D 1_555 1_555
H2D C3D 1_555 1_555
C4D C3D 1_555 1_555
C5D C4D 1_555 1_555
H3D C5D 1_555 1_555
C6D N2D 1_555 1_555
H4D C6D 1_555 1_555
C7D C4D 1_555 1_555
C8D C7D 1_555 1_555
C10D C8D 1_555 1_555
C11D C10D 1_555 1_555
C13D C11D 1_555 1_555
C14D C13D 1_555 1_555
H5D C14D 1_555 1_555
C15D C14D 1_555 1_555
H6D C15D 1_555 1_555
C16D N3D 1_555 1_555
H7D C16D 1_555 1_555
C17D C13D 1_555 1_555
H8D C17D 1_555 1_555
N5D Fe2 1_555 1_555
N6D C30D 1_555 1_555
C19D N5D 1_555 1_555
H9D C19D 1_555 1_555
C20D C19D 1_555 1_555
H10D C20D 1_555 1_555
C21D C20D 1_555 1_555
C22D C21D 1_555 1_555
H11D C22D 1_555 1_555
C23D N5D 1_555 1_555
H12D C23D 1_555 1_555
C24D C21D 1_555 1_555
C25D C24D 1_555 1_555
C26D C25D 1_555 1_555
C27D C26D 1_555 1_555
C28D C27D 1_555 1_555
C29D C28D 1_555 1_555
H13D C29D 1_555 1_555
C30D C29D 1_555 1_555
H14D C30D 1_555 1_555
C31D N6D 1_555 1_555
H15D C31D 1_555 1_555
C32D C28D 1_555 1_555
H16D C32D 1_555 1_555
N3_2 Fe1 1_555 1_555
N3D_2 Fe1 1_555 1_555
Fe1_2 N3 1_555 1_555
N6C Fe2 1_555 1_555
N6G Fe2 1_555 1_555
Fe2C N6 1_555 1_555
Fe1_3 N3D 1_555 1_555
Fe2C_2 N6D 1_555 1_555
C5 C6 1_555 1_555
C16 C17 1_555 1_555
N7 N7D 1_555 1_555
C22 C23 1_555 1_555
C31 C32 1_555 1_555
C33 N7D 1_555 1_555
N7D C33D 1_555 1_555
C5D C6D 1_555 1_555
C16D C17D 1_555 1_555
C22D C23D 1_555 1_555
C31D C32D 1_555 1_555

#END
