
#######################################################################
#
#                 Cambridge Crystallographic Data Centre
#                                CCDC 
#
#######################################################################
#
# If this CIF has been generated from an entry in the Cambridge 
# Structural Database, then it will include bibliographic, chemical, 
# crystal, experimental, refinement or atomic coordinate data resulting 
# from the CCDC's data processing and validation procedures.
#
#######################################################################

data_QOVZOR
_symmetry_cell_setting           monoclinic
_symmetry_space_group_name_H-M   'P 21/n'
_symmetry_Int_Tables_number      14
_space_group_name_Hall           '-P 2yn'
loop_
_symmetry_equiv_pos_site_id
_symmetry_equiv_pos_as_xyz
1 x,y,z
2 1/2-x,1/2+y,1/2-z
3 -x,-y,-z
4 1/2+x,1/2-y,1/2+z
_cell_length_a                   8.2071(11)
_cell_length_b                   26.893(4)
_cell_length_c                   16.931(2)
_cell_angle_alpha                90
_cell_angle_beta                 95.538(2)
_cell_angle_gamma                90
_cell_volume                     3719.46
loop_
_atom_site_label
_atom_site_type_symbol
_atom_site_fract_x
_atom_site_fract_y
_atom_site_fract_z
Sm1 Sm -1.26428(2) 0.436207(8) 0.495523(11)
Ni1 Ni -0.52414(6) 0.24873(2) 0.24545(3)
Ni2 Ni -1.19739(6) 0.50265(2) 0.00543(3)
O1 O -0.9485(3) 0.54488(12) 0.40482(15)
N1 N -1.0026(4) 0.44930(14) 0.0022(2)
N2 N -0.7225(4) 0.28296(13) 0.29755(19)
O2 O -1.2533(3) 0.53098(12) 0.49938(18)
O3 O -0.6454(3) 0.17827(12) 0.24639(16)
O4 O -1.0699(3) 0.36940(12) 0.47937(16)
N3 N -0.8986(4) 0.26621(13) -0.14333(18)
O5 O -0.4064(4) 0.31823(12) 0.24082(16)
O6 O -1.2328(3) 0.37345(11) 0.36782(16)
N4 N -1.5020(4) 0.55797(13) 0.00255(19)
N5 N -0.9984(4) 0.41155(16) 0.0398(2)
N6 N -1.1617(4) 0.50543(14) 0.12858(19)
O7 O -0.5452(4) 0.33085(14) 0.09391(18)
C1 C -0.7227(5) 0.28351(16) 0.0036(2)
N7 N -1.3603(4) 0.56137(15) 0.0197(2)
C2 C -1.0298(5) 0.50811(16) 0.3778(2)
C3 C -1.1021(5) 0.35973(16) 0.4068(2)
C4 C -0.7902(5) 0.23763(17) -0.0149(2)
H1 H -0.7770 0.2117 0.0216
C5 C -0.8773(5) 0.23017(16) -0.0877(2)
H2 H -0.9233 0.1991 -0.0990
N8 N -1.6437(4) 0.55694(15) -0.0148(2)
C6 C -1.0906(5) 0.50920(16) 0.2918(2)
C7 C -0.9749(5) 0.33125(17) 0.3669(2)
C8 C -0.8839(5) 0.29391(17) 0.4064(2)
H3 H -0.9043 0.2847 0.4575
C9 C -1.0715(5) 0.55112(17) 0.2456(2)
H4 H -1.0336 0.5808 0.2687
C10 C -1.1568(5) 0.46689(18) 0.2554(2)
H5 H -1.1795 0.4391 0.2852
C11 C -0.8325(5) 0.31072(17) -0.1244(2)
H6 H -0.8469 0.3361 -0.1618
C12 C -0.6296(5) 0.29265(17) 0.0844(2)
C13 C -0.8110(5) 0.31931(18) 0.2593(2)
H7 H -0.7844 0.3289 0.2094
C14 C -1.1886(5) 0.46663(18) 0.1742(2)
H8 H -1.2312 0.4378 0.1499
N9 N -0.9945(5) 0.37484(19) 0.0754(3)
C15 C -0.7444(5) 0.32113(17) -0.0527(2)
H9 H -0.7005 0.3526 -0.0424
C16 C -0.7638(5) 0.27073(17) 0.3696(2)
H10 H -0.7071 0.2448 0.3963
C17 C -0.9390(5) 0.34307(18) 0.2904(2)
H11 H -1.0007 0.3667 0.2607
C18 C -1.1098(6) 0.54773(18) 0.1653(2)
H12 H -1.0994 0.5760 0.1346
O8 O -0.6460(3) 0.25938(11) 0.13572(15)
O9 O -1.0569(3) 0.46972(11) 0.41704(15)
O12 O -1.5734(3) 0.53421(12) 0.40499(15)
N10 N -1.7300(4) 0.49538(15) 0.11864(19)
C19 C -1.5406(4) 0.49743(17) 0.3650(2)
C20 C -1.6208(5) 0.45263(18) 0.2354(2)
H13 H -1.5880 0.4227 0.2593
C21 C -1.7157(6) 0.53781(19) 0.1603(3)
H14 H -1.7470 0.5674 0.1346
C22 C -1.6828(6) 0.45352(18) 0.1568(2)
H15 H -1.6922 0.4236 0.1291
C23 C -1.6572(6) 0.53987(19) 0.2391(2)
H16 H -1.6510 0.5701 0.2658
O13 O -1.4556(3) 0.46060(12) 0.38992(16)
C24 C -1.6075(5) 0.49615(17) 0.2785(2)
N11 N -1.8343(4) 0.28526(14) 0.68821(18)
C25 C -1.8670(5) 0.32184(18) 0.6357(2)
H17 H -1.9753 0.3318 0.6247
C26 C -1.6770(5) 0.27213(18) 0.7021(3)
H18 H -1.6507 0.2464 0.7377
O14 O -1.4954(3) 0.37973(12) 0.50697(16)
C27 C -1.5867(5) 0.33271(16) 0.6135(2)
C28 C -1.4559(5) 0.35974(16) 0.5731(2)
C29 C -1.7491(5) 0.34566(18) 0.5971(2)
H19 H -1.7789 0.3704 0.5601
C30 C -1.5504(5) 0.29463(18) 0.6666(3)
H20 H -1.4429 0.2841 0.6785
O15 O -1.3119(3) 0.36234(11) 0.60751(17)
Sm1B Sm -0.73572(2) 0.563793(8) 0.504477(11)
Sm1B_2 Sm -1.73572(2) 0.563793(8) 0.504477(11)
Ni1C Ni -2.02414(6) 0.25127(2) 0.74545(3)
Ni1C_2 Ni -1.02414(6) 0.25127(2) -0.25455(3)
Ni2B Ni -0.80261(6) 0.49735(2) -0.00543(3)
Ni2B_2 Ni -1.80261(6) 0.49735(2) -0.00543(3)
O1B O -1.0515(3) 0.45512(12) 0.59518(15)
N1B N -0.9974(4) 0.55070(14) -0.0022(2)
N3C N -0.3986(4) 0.23379(13) 0.35667(18)
N8B N -1.3563(4) 0.44306(15) 0.0148(2)
O12B O -1.4266(3) 0.46579(12) 0.59501(15)
N10B N -1.2700(4) 0.50462(15) -0.11864(19)
N11C N -0.3343(4) 0.21474(14) 0.18821(18)
O10 O 0.2260(6) 0.1858(2) 0.5077(3)
O11 O 0.1345(6) 0.15660(18) 0.3549(3)
loop_
_geom_bond_atom_site_label_1
_geom_bond_atom_site_label_2
_geom_bond_site_symmetry_1
_geom_bond_site_symmetry_2
Sm1 O2 1_555 1_555
Ni1 N2 1_555 1_555
Ni2 N1 1_555 1_555
O1 C2 1_555 1_555
N1 N5 1_555 1_555
N2 C13 1_555 1_555
O3 Ni1 1_555 1_555
O4 Sm1 1_555 1_555
N3 C5 1_555 1_555
O5 Ni1 1_555 1_555
O6 C3 1_555 1_555
N4 N7 1_555 1_555
N5 N9 1_555 1_555
N6 Ni2 1_555 1_555
O7 C12 1_555 1_555
C1 C4 1_555 1_555
N7 Ni2 1_555 1_555
C2 C6 1_555 1_555
C3 O4 1_555 1_555
C4 H1 1_555 1_555
C5 C4 1_555 1_555
H2 C5 1_555 1_555
N8 N4 1_555 1_555
C6 C9 1_555 1_555
C7 C3 1_555 1_555
C8 C7 1_555 1_555
H3 C8 1_555 1_555
C9 H4 1_555 1_555
C10 C6 1_555 1_555
H5 C10 1_555 1_555
C11 N3 1_555 1_555
H6 C11 1_555 1_555
C12 C1 1_555 1_555
C13 H7 1_555 1_555
C14 N6 1_555 1_555
H8 C14 1_555 1_555
C15 C1 1_555 1_555
H9 C15 1_555 1_555
C16 N2 1_555 1_555
H10 C16 1_555 1_555
C17 C7 1_555 1_555
H11 C17 1_555 1_555
C18 N6 1_555 1_555
H12 C18 1_555 1_555
O8 Ni1 1_555 1_555
O9 Sm1 1_555 1_555
O12 C19 1_555 1_555
N10 C21 1_555 1_555
C19 O13 1_555 1_555
C20 H13 1_555 1_555
C21 H14 1_555 1_555
C22 N10 1_555 1_555
H15 C22 1_555 1_555
C23 C21 1_555 1_555
H16 C23 1_555 1_555
O13 Sm1 1_555 1_555
C24 C19 1_555 1_555
N11 C25 1_555 1_555
C25 H17 1_555 1_555
C26 N11 1_555 1_555
H18 C26 1_555 1_555
O14 Sm1 1_555 1_555
C27 C28 1_555 1_555
C28 O14 1_555 1_555
C29 C25 1_555 1_555
H19 C29 1_555 1_555
C30 C26 1_555 1_555
H20 C30 1_555 1_555
O15 C28 1_555 1_555
Sm1B O1 1_555 1_555
Sm1B_2 O12 1_555 1_555
Ni1C N11 1_555 1_555
Ni1C_2 N3 1_555 1_555
Ni2B N1 1_555 1_555
Ni2B_2 N8 1_555 1_555
O1B Sm1 1_555 1_555
N1B Ni2 1_555 1_555
N3C Ni1 1_555 1_555
N8B Ni2 1_555 1_555
O12B Sm1 1_555 1_555
N10B Ni2 1_555 1_555
N11C Ni1 1_555 1_555
C2 O9 1_555 1_555
C8 C16 1_555 1_555
C9 C18 1_555 1_555
C10 C14 1_555 1_555
C11 C15 1_555 1_555
C12 O8 1_555 1_555
C13 C17 1_555 1_555
N10 Ni2B_2 1_555 1_555
C20 C22 1_555 1_555
C20 C24 1_555 1_555
C23 C24 1_555 1_555
C27 C29 1_555 1_555
C27 C30 1_555 1_555
Ni2B N1B 1_555 1_555

#END
