
#######################################################################
#
#                 Cambridge Crystallographic Data Centre
#                                CCDC 
#
#######################################################################
#
# If this CIF has been generated from an entry in the Cambridge 
# Structural Database, then it will include bibliographic, chemical, 
# crystal, experimental, refinement or atomic coordinate data resulting 
# from the CCDC's data processing and validation procedures.
#
#######################################################################

data_QOVZUX
_symmetry_cell_setting           monoclinic
_symmetry_space_group_name_H-M   'P 21/n'
_symmetry_Int_Tables_number      14
_space_group_name_Hall           '-P 2yn'
loop_
_symmetry_equiv_pos_site_id
_symmetry_equiv_pos_as_xyz
1 x,y,z
2 1/2-x,1/2+y,1/2-z
3 -x,-y,-z
4 1/2+x,1/2-y,1/2+z
_cell_length_a                   8.2521(9)
_cell_length_b                   26.966(3)
_cell_length_c                   17.0838(18)
_cell_angle_alpha                90
_cell_angle_beta                 96.254(2)
_cell_angle_gamma                90
_cell_volume                     3778.97
loop_
_atom_site_label
_atom_site_type_symbol
_atom_site_fract_x
_atom_site_fract_y
_atom_site_fract_z
La1 La 0.23265(2) 0.065474(6) 0.495627(10)
Ni1 Ni 0.97246(5) 0.251370(14) 0.24484(2)
Ni2 Ni -0.30318(6) 0.002740(16) -0.00602(3)
O1 O 0.2476(3) -0.03189(10) 0.50272(16)
O2 O 0.2686(3) 0.12838(8) 0.36500(14)
O3 O 0.4312(3) 0.13425(9) 0.47686(14)
O4 O 0.8516(3) 0.32133(8) 0.24425(14)
O5 O 1.0884(3) 0.18216(9) 0.24067(14)
O6 O 0.9543(4) 0.16982(10) 0.09342(16)
O8 O 0.8500(3) 0.24026(9) 0.13484(13)
O9 O 0.0363(3) 0.03955(9) 0.38685(14)
O11 O -0.0730(3) -0.03477(9) 0.40007(14)
O12 O 0.4409(3) 0.02985(9) 0.41424(13)
O13 O 0.5404(3) -0.04639(9) 0.40456(14)
O14 O -0.0106(3) 0.12200(9) 0.50769(14)
O15 O 0.1786(3) 0.14026(8) 0.60532(15)
N1 N 0.7759(3) 0.21758(10) 0.29576(17)
N2 N 0.5987(3) 0.23369(10) -0.14345(16)
N3 N -0.2307(4) 0.00455(11) 0.11616(18)
N4 N 0.3412(4) -0.00505(11) 0.12789(17)
N5 N -0.3391(3) 0.21496(10) 0.68862(16)
N6 N -0.1393(4) 0.06079(12) -0.0200(2)
N7 N 0.0014(4) 0.05740(10) -0.00253(18)
N8 N 0.1416(4) 0.05616(12) 0.0156(2)
N9 N -0.5042(4) 0.05040(11) 0.00195(17)
N10 N -0.4989(4) 0.08842(12) 0.0381(2)
N11 N -0.4959(5) 0.12487(14) 0.0729(3)
C1 C 0.6867(5) 0.18155(14) 0.2578(2)
H1 H 0.722(5) 0.1737(14) 0.205(2)
C2 C 0.5600(5) 0.15800(14) 0.2890(2)
H2 H 0.501(5) 0.1345(14) 0.261(2)
C3 C 0.5257(4) 0.16991(12) 0.3641(2)
C4 C 0.6158(4) 0.20733(13) 0.4032(2)
H3 H 0.604(4) 0.2152(13) 0.455(2)
C5 C 0.7369(4) 0.23032(13) 0.3671(2)
H4 H 0.797(4) 0.2557(13) 0.395(2)
C6 C 0.3986(4) 0.14253(12) 0.4043(2)
C7 C 0.6201(4) 0.26934(12) -0.0885(2)
H5 H 0.571(4) 0.3001(13) -0.102(2)
C8 C 0.7066(4) 0.26223(13) -0.0154(2)
H6 H 0.725(4) 0.2855(14) 0.019(2)
C9 C 0.7753(4) 0.21620(12) 0.00343(19)
C10 C 0.7534(5) 0.17929(13) -0.0530(2)
H7 H 0.797(5) 0.1482(15) -0.043(2)
C11 C 0.6665(4) 0.18940(13) -0.1246(2)
H8 H 0.650(4) 0.1668(13) -0.165(2)
C12 C 0.8685(4) 0.20780(12) 0.0837(2)
C13 C -0.1834(5) 0.04627(14) 0.1546(2)
H9 H -0.193(5) 0.0760(15) 0.126(2)
C14 C -0.1221(5) 0.04722(14) 0.2328(2)
H10 H -0.097(5) 0.0770(16) 0.258(3)
C15 C -0.1096(4) 0.00335(12) 0.2751(2)
C16 C -0.1589(5) -0.03969(15) 0.2357(2)
H11 H -0.152(5) -0.0715(16) 0.261(3)
C17 C -0.2164(6) -0.03749(15) 0.1572(2)
H12 H -0.252(5) -0.0643(15) 0.129(2)
C18 C -0.0440(4) 0.00251(12) 0.36089(19)
C19 C 0.3931(5) -0.04711(15) 0.1642(2)
H13 H 0.415(6) -0.0732(19) 0.131(3)
C20 C 0.4295(5) -0.05072(14) 0.2448(2)
H14 H 0.469(5) -0.0792(15) 0.270(2)
C21 C 0.4089(4) -0.00925(12) 0.2904(2)
C22 C 0.3452(5) 0.03303(14) 0.2538(2)
H15 H 0.333(5) 0.0618(14) 0.283(2)
C23 C 0.3147(5) 0.03395(14) 0.1731(2)
H16 H 0.275(5) 0.0611(14) 0.144(2)
C24 C 0.4658(4) -0.00891(12) 0.3766(2)
C25 C -0.1821(4) 0.22849(14) 0.7030(2)
H17 H -0.164(4) 0.2550(14) 0.740(2)
C26 C -0.0583(4) 0.20612(14) 0.6675(2)
H18 H 0.044(5) 0.2189(14) 0.675(2)
C27 C -0.0951(4) 0.16852(12) 0.6138(2)
C28 C -0.2568(4) 0.15559(14) 0.5972(2)
H19 H -0.290(5) 0.1342(14) 0.565(2)
C29 C -0.3727(4) 0.17924(14) 0.6354(2)
H20 H -0.479(5) 0.1700(14) 0.629(2)
C30 C 0.0340(4) 0.14183(11) 0.5733(2)
La1B La -0.23265(2) -0.065474(6) 0.504373(10)
La1B_2 La 0.76735(2) -0.065474(6) 0.504373(10)
Ni1C Ni 0.47246(5) 0.248630(14) -0.25516(2)
Ni1C_2 Ni -0.52754(5) 0.248630(14) 0.74484(2)
Ni2B Ni 0.30318(6) -0.002740(16) 0.00602(3)
Ni2B_2 Ni -0.69682(6) -0.002740(16) 0.00602(3)
O11B O 0.0730(3) 0.03477(9) 0.59993(14)
O13B O 0.4596(3) 0.04639(9) 0.59544(14)
N2C N 1.0987(3) 0.26631(10) 0.35655(16)
N4B N -0.3412(4) 0.00505(11) -0.12789(17)
N5C N 1.1609(3) 0.28504(10) 0.18862(16)
N8B N -0.1416(4) -0.05616(12) -0.0156(2)
N9B N -0.4958(4) -0.05040(11) -0.00195(17)
O7 O -0.8666(6) 0.15626(14) 0.8518(3)
O10 O -0.2810(5) 0.31558(17) 0.5048(2)
loop_
_geom_bond_atom_site_label_1
_geom_bond_atom_site_label_2
_geom_bond_site_symmetry_1
_geom_bond_site_symmetry_2
La1 O1 1_555 1_555
Ni1 O4 1_555 1_555
Ni2 N3 1_555 1_555
O2 C6 1_555 1_555
O3 La1 1_555 1_555
O5 Ni1 1_555 1_555
O6 C12 1_555 1_555
O8 Ni1 1_555 1_555
O9 La1 1_555 1_555
O11 C18 1_555 1_555
O12 La1 1_555 1_555
O13 C24 1_555 1_555
O14 La1 1_555 1_555
O15 C30 1_555 1_555
N1 Ni1 1_555 1_555
N2 C7 1_555 1_555
N3 C13 1_555 1_555
N4 C19 1_555 1_555
N5 C25 1_555 1_555
N6 Ni2 1_555 1_555
N7 N6 1_555 1_555
N8 N7 1_555 1_555
N9 Ni2 1_555 1_555
N10 N9 1_555 1_555
N11 N10 1_555 1_555
C1 N1 1_555 1_555
H1 C1 1_555 1_555
C2 C1 1_555 1_555
H2 C2 1_555 1_555
C3 C2 1_555 1_555
C4 C3 1_555 1_555
H3 C4 1_555 1_555
C5 N1 1_555 1_555
H4 C5 1_555 1_555
C6 O3 1_555 1_555
C7 H5 1_555 1_555
C8 C7 1_555 1_555
H6 C8 1_555 1_555
C9 C8 1_555 1_555
C10 C9 1_555 1_555
H7 C10 1_555 1_555
C11 N2 1_555 1_555
H8 C11 1_555 1_555
C12 O8 1_555 1_555
C13 H9 1_555 1_555
C14 C13 1_555 1_555
H10 C14 1_555 1_555
C15 C14 1_555 1_555
C16 C15 1_555 1_555
H11 C16 1_555 1_555
C17 N3 1_555 1_555
H12 C17 1_555 1_555
C18 O9 1_555 1_555
C19 H13 1_555 1_555
C20 C19 1_555 1_555
H14 C20 1_555 1_555
C21 C20 1_555 1_555
C22 C21 1_555 1_555
H15 C22 1_555 1_555
C23 N4 1_555 1_555
H16 C23 1_555 1_555
C24 O12 1_555 1_555
C25 H17 1_555 1_555
C26 C25 1_555 1_555
H18 C26 1_555 1_555
C27 C26 1_555 1_555
C28 C27 1_555 1_555
H19 C28 1_555 1_555
C29 N5 1_555 1_555
H20 C29 1_555 1_555
C30 O14 1_555 1_555
La1B O11 1_555 1_555
La1B_2 O13 1_555 1_555
Ni1C N2 1_555 1_555
Ni1C_2 N5 1_555 1_555
Ni2B N4 1_555 1_555
Ni2B_2 N9 1_555 1_555
O11B La1 1_555 1_555
O13B La1 1_555 1_555
N2C Ni1 1_555 1_555
N4B Ni2 1_555 1_555
N5C Ni1 1_555 1_555
N8B Ni2 1_555 1_555
N9B Ni2 1_555 1_555
N8 Ni2B 1_555 1_555
C3 C6 1_555 1_555
C4 C5 1_555 1_555
C9 C12 1_555 1_555
C10 C11 1_555 1_555
C15 C18 1_555 1_555
C16 C17 1_555 1_555
C21 C24 1_555 1_555
C22 C23 1_555 1_555
C27 C30 1_555 1_555
C28 C29 1_555 1_555
Ni2B_2 N9B 1_555 1_555

#END
