
#######################################################################
#
#                 Cambridge Crystallographic Data Centre
#                                CCDC 
#
#######################################################################
#
# If this CIF has been generated from an entry in the Cambridge 
# Structural Database, then it will include bibliographic, chemical, 
# crystal, experimental, refinement or atomic coordinate data resulting 
# from the CCDC's data processing and validation procedures.
#
#######################################################################

data_QOVZIL
_symmetry_cell_setting           monoclinic
_symmetry_space_group_name_H-M   'P 21/n'
_symmetry_Int_Tables_number      14
_space_group_name_Hall           '-P 2yn'
loop_
_symmetry_equiv_pos_site_id
_symmetry_equiv_pos_as_xyz
1 x,y,z
2 1/2-x,1/2+y,1/2-z
3 -x,-y,-z
4 1/2+x,1/2-y,1/2+z
_cell_length_a                   8.1978(8)
_cell_length_b                   26.866(3)
_cell_length_c                   16.9079(16)
_cell_angle_alpha                90
_cell_angle_beta                 95.508(2)
_cell_angle_gamma                90
_cell_volume                     3706.64
loop_
_atom_site_label
_atom_site_type_symbol
_atom_site_fract_x
_atom_site_fract_y
_atom_site_fract_z
Eu1 Eu 0.235969(19) 0.063532(6) 0.495565(10)
Ni1 Ni 0.97596(5) 0.251360(17) 0.24542(3)
Ni2 Ni -0.30260(6) 0.002690(18) -0.00532(3)
O1 O 0.2470(3) -0.03094(10) 0.49943(16)
O2 O 0.2670(3) 0.12638(10) 0.36764(15)
O3 O 0.4295(3) 0.13021(10) 0.47932(15)
O4 O 0.8548(3) 0.32165(10) 0.24642(15)
O5 O 1.0941(3) 0.18187(10) 0.24070(15)
O6 O 0.9553(4) 0.16901(11) 0.09388(16)
O8 O 0.8540(3) 0.24071(10) 0.13566(14)
O9 O 0.0449(3) 0.03928(10) 0.39058(15)
O11 O -0.0736(3) -0.03387(10) 0.40511(14)
O12 O 0.4430(3) 0.03032(10) 0.41706(14)
O13 O 0.5522(3) -0.04500(10) 0.40493(14)
O14 O 0.0061(3) 0.12010(10) 0.50679(15)
O15 O 0.1886(3) 0.13749(10) 0.60779(16)
N1 N 0.7771(4) 0.21695(11) 0.29750(17)
N2 N 0.6007(4) 0.23400(11) -0.14315(17)
N3 N -0.2299(4) 0.00448(13) 0.11879(18)
N4 N 0.3379(4) -0.00549(12) 0.12862(17)
N5 N -0.3335(4) 0.21458(12) 0.68778(17)
N6 N -0.1390(4) 0.06133(13) -0.0195(2)
N7 N 0.0023(4) 0.05800(11) -0.00240(17)
N8 N 0.1431(4) 0.05675(13) 0.0147(2)
N9 N -0.5031(4) 0.05062(12) 0.00251(18)
N10 N -0.4985(4) 0.08844(14) 0.0397(2)
N11 N -0.4939(5) 0.12483(15) 0.0761(3)
C1 C 0.6876(5) 0.18076(16) 0.2592(2)
H1 H 0.723(4) 0.1728(14) 0.208(2)
C2 C 0.5608(5) 0.15725(16) 0.2906(2)
H2 H 0.507(5) 0.1337(14) 0.263(2)
C3 C 0.5250(4) 0.16817(14) 0.3671(2)
C4 C 0.6155(5) 0.20556(15) 0.4067(2)
H3 H 0.604(5) 0.2131(14) 0.459(2)
C5 C 0.7366(5) 0.22916(15) 0.3700(2)
H4 H 0.797(4) 0.2551(13) 0.3961(19)
C6 C 0.3980(4) 0.14024(13) 0.4069(2)
C7 C 0.6235(5) 0.27005(14) -0.0879(2)
H5 H 0.570(4) 0.3029(13) -0.1000(19)
C8 C 0.7100(5) 0.26220(15) -0.0150(2)
H6 H 0.729(4) 0.2864(13) 0.020(2)
C9 C 0.7778(4) 0.21634(14) 0.0036(2)
C10 C 0.7555(5) 0.17899(15) -0.0528(2)
H7 H 0.798(5) 0.1446(17) -0.043(3)
C11 C 0.6672(5) 0.18895(15) -0.1249(2)
H8 H 0.653(4) 0.1664(14) -0.166(2)
C12 C 0.8715(4) 0.20737(14) 0.0844(2)
C13 C -0.1821(6) 0.04659(16) 0.1573(2)
H9 H -0.194(5) 0.0759(17) 0.127(3)
C14 C -0.1201(5) 0.04729(15) 0.2358(2)
H10 H -0.088(6) 0.0767(17) 0.263(3)
C15 C -0.1062(4) 0.00358(14) 0.2785(2)
C16 C -0.1560(6) -0.03967(16) 0.2396(2)
H11 H -0.156(5) -0.0725(17) 0.267(3)
C17 C -0.2154(6) -0.03786(17) 0.1608(2)
H12 H -0.240(5) -0.0671(16) 0.131(3)
C18 C -0.0397(4) 0.00289(14) 0.3648(2)
C19 C 0.3911(6) -0.04746(16) 0.1650(2)
H13 H 0.406(6) -0.0753(18) 0.135(3)
C20 C 0.4289(6) -0.05088(16) 0.2455(2)
H14 H 0.468(5) -0.0796(15) 0.262(2)
C21 C 0.4099(4) -0.00951(14) 0.2920(2)
C22 C 0.3433(5) 0.03272(16) 0.2554(2)
H15 H 0.329(5) 0.0617(15) 0.285(2)
C23 C 0.3101(5) 0.03342(15) 0.1742(2)
H16 H 0.265(5) 0.0616(16) 0.146(2)
C24 C 0.4704(4) -0.00810(14) 0.3784(2)
C25 C -0.1756(5) 0.22804(16) 0.7015(3)
H17 H -0.162(5) 0.2525(15) 0.733(2)
C26 C -0.0507(5) 0.20540(16) 0.6665(3)
H18 H 0.051(5) 0.2160(15) 0.673(2)
C27 C -0.0859(4) 0.16726(14) 0.6131(2)
C28 C -0.2487(5) 0.15435(16) 0.5968(2)
H19 H -0.277(5) 0.1285(16) 0.561(3)
C29 C -0.3667(5) 0.17845(16) 0.6350(2)
H20 H -0.466(5) 0.1695(15) 0.627(2)
C30 C 0.0460(4) 0.14010(13) 0.5735(2)
Eu1B Eu -0.235969(19) -0.063532(6) 0.504435(10)
Eu1B_2 Eu 0.764031(19) -0.063532(6) 0.504435(10)
Ni1C Ni 0.47596(5) 0.248640(17) -0.25458(3)
Ni1C_2 Ni -0.52404(5) 0.248640(17) 0.74542(3)
Ni2B Ni 0.30260(6) -0.002690(18) 0.00532(3)
Ni2B_2 Ni -0.69740(6) -0.002690(18) 0.00532(3)
O11B O 0.0736(3) 0.03387(10) 0.59489(14)
O13B O 0.4478(3) 0.04500(10) 0.59507(14)
N2C N 1.1007(4) 0.26600(11) 0.35685(17)
N4B N -0.3379(4) 0.00549(12) -0.12862(17)
N5C N 1.1665(4) 0.28542(12) 0.18778(17)
N8B N -0.1431(4) -0.05675(13) -0.0147(2)
N9B N -0.4969(4) -0.05062(12) -0.00251(18)
O7 O -0.8645(6) 0.15677(16) 0.8550(3)
O10 O -0.2741(5) 0.31439(18) 0.5078(2)
loop_
_geom_bond_atom_site_label_1
_geom_bond_atom_site_label_2
_geom_bond_site_symmetry_1
_geom_bond_site_symmetry_2
Eu1 O1 1_555 1_555
Ni1 O4 1_555 1_555
Ni2 N3 1_555 1_555
O2 C6 1_555 1_555
O3 Eu1 1_555 1_555
O5 Ni1 1_555 1_555
O6 C12 1_555 1_555
O8 Ni1 1_555 1_555
O9 Eu1 1_555 1_555
O11 C18 1_555 1_555
O12 Eu1 1_555 1_555
O13 C24 1_555 1_555
O14 Eu1 1_555 1_555
O15 C30 1_555 1_555
N1 Ni1 1_555 1_555
N2 C7 1_555 1_555
N3 C13 1_555 1_555
N4 C19 1_555 1_555
N5 C25 1_555 1_555
N6 Ni2 1_555 1_555
N7 N6 1_555 1_555
N8 N7 1_555 1_555
N9 Ni2 1_555 1_555
N10 N9 1_555 1_555
N11 N10 1_555 1_555
C1 N1 1_555 1_555
H1 C1 1_555 1_555
C2 C1 1_555 1_555
H2 C2 1_555 1_555
C3 C2 1_555 1_555
C4 C3 1_555 1_555
H3 C4 1_555 1_555
C5 N1 1_555 1_555
H4 C5 1_555 1_555
C6 O3 1_555 1_555
C7 H5 1_555 1_555
C8 C7 1_555 1_555
H6 C8 1_555 1_555
C9 C8 1_555 1_555
C10 C9 1_555 1_555
H7 C10 1_555 1_555
C11 N2 1_555 1_555
H8 C11 1_555 1_555
C12 O8 1_555 1_555
C13 H9 1_555 1_555
C14 C13 1_555 1_555
H10 C14 1_555 1_555
C15 C14 1_555 1_555
C16 C15 1_555 1_555
H11 C16 1_555 1_555
C17 N3 1_555 1_555
H12 C17 1_555 1_555
C18 O9 1_555 1_555
C19 H13 1_555 1_555
C20 C19 1_555 1_555
H14 C20 1_555 1_555
C21 C20 1_555 1_555
C22 C21 1_555 1_555
H15 C22 1_555 1_555
C23 N4 1_555 1_555
H16 C23 1_555 1_555
C24 O12 1_555 1_555
C25 H17 1_555 1_555
C26 C25 1_555 1_555
H18 C26 1_555 1_555
C27 C26 1_555 1_555
C28 C27 1_555 1_555
H19 C28 1_555 1_555
C29 N5 1_555 1_555
H20 C29 1_555 1_555
C30 O14 1_555 1_555
Eu1B O11 1_555 1_555
Eu1B_2 O13 1_555 1_555
Ni1C N2 1_555 1_555
Ni1C_2 N5 1_555 1_555
Ni2B N4 1_555 1_555
Ni2B_2 N9 1_555 1_555
O11B Eu1 1_555 1_555
O13B Eu1 1_555 1_555
N2C Ni1 1_555 1_555
N4B Ni2 1_555 1_555
N5C Ni1 1_555 1_555
N8B Ni2 1_555 1_555
N9B Ni2 1_555 1_555
N8 Ni2B 1_555 1_555
C3 C6 1_555 1_555
C4 C5 1_555 1_555
C9 C12 1_555 1_555
C10 C11 1_555 1_555
C15 C18 1_555 1_555
C16 C17 1_555 1_555
C21 C24 1_555 1_555
C22 C23 1_555 1_555
C27 C30 1_555 1_555
C28 C29 1_555 1_555
Ni2B_2 N9B 1_555 1_555

#END
