
#######################################################################
#
#                 Cambridge Crystallographic Data Centre
#                                CCDC 
#
#######################################################################
#
# If this CIF has been generated from an entry in the Cambridge 
# Structural Database, then it will include bibliographic, chemical, 
# crystal, experimental, refinement or atomic coordinate data resulting 
# from the CCDC's data processing and validation procedures.
#
#######################################################################

data_QOWBAG
_symmetry_cell_setting           monoclinic
_symmetry_space_group_name_H-M   'P 21/n'
_symmetry_Int_Tables_number      14
_space_group_name_Hall           '-P 2yn'
loop_
_symmetry_equiv_pos_site_id
_symmetry_equiv_pos_as_xyz
1 x,y,z
2 1/2-x,1/2+y,1/2-z
3 -x,-y,-z
4 1/2+x,1/2-y,1/2+z
_cell_length_a                   8.1982(8)
_cell_length_b                   27.328(3)
_cell_length_c                   16.4634(17)
_cell_angle_alpha                90
_cell_angle_beta                 93.154(2)
_cell_angle_gamma                90
_cell_volume                     3682.88
loop_
_atom_site_label
_atom_site_type_symbol
_atom_site_fract_x
_atom_site_fract_y
_atom_site_fract_z
Gd1 Gd 0.23939(2) 0.062735(7) 0.495914(12)
Cu1 Cu 0.98182(6) 0.25107(2) 0.24719(3)
O1 O 0.2477(3) -0.02971(12) 0.49345(19)
O2 O 0.2869(3) 0.12353(11) 0.37441(18)
N1 N 0.7898(4) 0.21766(13) 0.2996(2)
C1 C 0.7119(6) 0.17964(18) 0.2621(3)
H1 H 0.7459 0.1694 0.2118
Cu2 Cu -0.28796(8) 0.00727(2) -0.00370(3)
O3 O 0.4416(4) 0.12805(12) 0.48735(18)
O4 O 0.8459(4) 0.33288(14) 0.2572(2)
N2 N 0.5987(4) 0.23661(13) -0.1406(2)
C2 C 0.5841(6) 0.15532(19) 0.2952(3)
H2 H 0.5283 0.1308 0.2660
O5 O 1.1234(5) 0.17354(13) 0.2424(2)
O6 O 0.9594(5) 0.17475(15) 0.0924(2)
N3 N -0.2189(5) 0.00982(15) 0.1159(2)
C3 C 0.5402(5) 0.16765(17) 0.3716(3)
O7 O 0.8638(3) 0.24505(12) 0.13906(18)
N4 N 0.3248(5) -0.00943(15) 0.1262(2)
C4 C 0.6190(5) 0.20649(17) 0.4108(3)
H3 H 0.5911 0.2161 0.4624
O8 O 0.0569(4) 0.04008(11) 0.38886(18)
N5 N -0.3316(4) 0.21524(14) 0.6912(2)
C5 C 0.7392(5) 0.23062(17) 0.3718(3)
H4 H 0.7880 0.2576 0.3975
O9 O -0.0675(4) -0.03125(11) 0.40614(18)
N6 N -0.0835(7) 0.0755(2) -0.0494(4)
C6 C 0.4132(5) 0.13812(15) 0.4135(3)
O10 O 0.4565(3) 0.03161(11) 0.41637(17)
N7 N 0.0371(6) 0.06287(17) -0.0167(3)
C7 C 0.6252(5) 0.27320(16) -0.0867(3)
H5 H 0.5835 0.3041 -0.0992
O11 O 0.5660(4) -0.04260(11) 0.40099(18)
N8 N 0.1544(7) 0.0512(2) 0.0173(3)
C8 C 0.7123(5) 0.26628(17) -0.0133(3)
H6 H 0.7267 0.2922 0.0231
O12 O 0.0066(4) 0.11737(12) 0.50766(19)
N9 N -0.4652(6) 0.05531(17) 0.0061(3)
C9 C 0.7777(5) 0.22107(17) 0.0062(3)
O13 O 0.1841(4) 0.13177(12) 0.6104(2)
N10 N -0.4648(5) 0.08976(18) 0.0511(3)
C10 C 0.7473(6) 0.18354(17) -0.0489(3)
H7 H 0.7866 0.1522 -0.0373
N11 N -0.4706(6) 0.12294(19) 0.0941(3)
C11 C 0.6590(5) 0.19251(16) -0.1207(3)
H8 H 0.6404 0.1668 -0.1570
C12 C 0.8777(5) 0.21233(18) 0.0853(3)
C13 C -0.1516(6) 0.04937(18) 0.1526(3)
H9 H -0.1451 0.0781 0.1228
C14 C -0.0922(5) 0.04940(17) 0.2316(3)
H10 H -0.0464 0.0777 0.2545
C15 C -0.1007(5) 0.00702(16) 0.2775(3)
C16 C -0.1727(6) -0.03335(18) 0.2407(3)
H11 H -0.1833 -0.0622 0.2698
C17 C -0.2287(6) -0.03078(19) 0.1611(3)
H12 H -0.2759 -0.0586 0.1371
C18 C -0.0313(5) 0.00504(16) 0.3646(3)
C19 C 0.3744(7) -0.05055(19) 0.1650(3)
H13 H 0.3796 -0.0793 0.1351
C20 C 0.4173(6) -0.05223(18) 0.2462(3)
H14 H 0.4494 -0.0815 0.2709
C21 C 0.4122(5) -0.00946(16) 0.2908(3)
C22 C 0.3541(5) 0.03245(17) 0.2526(3)
H15 H 0.3433 0.0613 0.2819
C23 C 0.3122(6) 0.03100(17) 0.1707(3)
H16 H 0.2735 0.0594 0.1452
C24 C 0.4803(5) -0.00699(17) 0.3767(3)
C25 C -0.1742(5) 0.22674(18) 0.7065(3)
H17 H -0.1482 0.2520 0.7428
C26 C -0.0491(5) 0.20256(19) 0.6706(3)
H18 H 0.0588 0.2118 0.6825
C27 C -0.0841(5) 0.16497(17) 0.6173(3)
C28 C -0.2482(5) 0.15371(17) 0.6008(3)
H19 H -0.2778 0.1290 0.5641
C29 C -0.3659(5) 0.17927(18) 0.6390(3)
H20 H -0.4748 0.1710 0.6277
C30 C 0.0448(5) 0.13640(17) 0.5758(3)
Gd1B Gd -0.23939(2) -0.062735(7) 0.504086(12)
Gd1B_2 Gd 0.76061(2) -0.062735(7) 0.504086(12)
Cu1C Cu -0.51818(6) 0.24893(2) 0.74719(3)
Cu1C_2 Cu 0.48182(6) 0.24893(2) -0.25281(3)
Cu2B Cu 0.28796(8) -0.00727(2) 0.00370(3)
Cu2B_2 Cu -0.71204(8) -0.00727(2) 0.00370(3)
N2C N 1.0987(4) 0.26339(13) 0.3594(2)
N4B N -0.3248(5) 0.00943(15) -0.1262(2)
N5C N 1.1684(4) 0.28476(14) 0.1912(2)
O9B O 0.0675(4) 0.03125(11) 0.59386(18)
O11B O 0.4340(4) 0.04260(11) 0.59901(18)
N8B N -0.1544(7) -0.0512(2) -0.0173(3)
N9B N -0.5348(6) -0.05531(17) -0.0061(3)
O14 O 0.7685(8) 0.3100(3) 0.5246(5)
O15 O -0.8490(11) 0.1530(3) 0.8817(6)
loop_
_geom_bond_atom_site_label_1
_geom_bond_atom_site_label_2
_geom_bond_site_symmetry_1
_geom_bond_site_symmetry_2
Gd1 O1 1_555 1_555
Cu1 N1 1_555 1_555
O2 C6 1_555 1_555
N1 C1 1_555 1_555
C1 H1 1_555 1_555
Cu2 N3 1_555 1_555
O3 Gd1 1_555 1_555
O4 Cu1 1_555 1_555
N2 C7 1_555 1_555
C2 C1 1_555 1_555
H2 C2 1_555 1_555
O5 Cu1 1_555 1_555
O6 C12 1_555 1_555
N3 C13 1_555 1_555
C3 C2 1_555 1_555
O7 Cu1 1_555 1_555
N4 C19 1_555 1_555
C4 C3 1_555 1_555
H3 C4 1_555 1_555
O8 Gd1 1_555 1_555
N5 C25 1_555 1_555
C5 N1 1_555 1_555
H4 C5 1_555 1_555
O9 C18 1_555 1_555
N6 Cu2 1_555 1_555
C6 O3 1_555 1_555
O10 Gd1 1_555 1_555
N7 N6 1_555 1_555
C7 H5 1_555 1_555
O11 C24 1_555 1_555
N8 N7 1_555 1_555
C8 C7 1_555 1_555
H6 C8 1_555 1_555
O12 Gd1 1_555 1_555
N9 Cu2 1_555 1_555
C9 C8 1_555 1_555
O13 C30 1_555 1_555
N10 N9 1_555 1_555
C10 C9 1_555 1_555
H7 C10 1_555 1_555
N11 N10 1_555 1_555
C11 N2 1_555 1_555
H8 C11 1_555 1_555
C12 O7 1_555 1_555
C13 H9 1_555 1_555
C14 C13 1_555 1_555
H10 C14 1_555 1_555
C15 C14 1_555 1_555
C16 C15 1_555 1_555
H11 C16 1_555 1_555
C17 N3 1_555 1_555
H12 C17 1_555 1_555
C18 O8 1_555 1_555
C19 H13 1_555 1_555
C20 C19 1_555 1_555
H14 C20 1_555 1_555
C21 C20 1_555 1_555
C22 C21 1_555 1_555
H15 C22 1_555 1_555
C23 N4 1_555 1_555
H16 C23 1_555 1_555
C24 O10 1_555 1_555
C25 H17 1_555 1_555
C26 C25 1_555 1_555
H18 C26 1_555 1_555
C27 C26 1_555 1_555
C28 C27 1_555 1_555
H19 C28 1_555 1_555
C29 N5 1_555 1_555
H20 C29 1_555 1_555
C30 O12 1_555 1_555
Gd1B O9 1_555 1_555
Gd1B_2 O11 1_555 1_555
Cu1C N5 1_555 1_555
Cu1C_2 N2 1_555 1_555
Cu2B N4 1_555 1_555
Cu2B_2 N9 1_555 1_555
N2C Cu1 1_555 1_555
N4B Cu2 1_555 1_555
N5C Cu1 1_555 1_555
O9B Gd1 1_555 1_555
O11B Gd1 1_555 1_555
N8B Cu2 1_555 1_555
N9B Cu2 1_555 1_555
C3 C6 1_555 1_555
C4 C5 1_555 1_555
N8 Cu2B 1_555 1_555
C9 C12 1_555 1_555
C10 C11 1_555 1_555
C15 C18 1_555 1_555
C16 C17 1_555 1_555
C21 C24 1_555 1_555
C22 C23 1_555 1_555
C27 C30 1_555 1_555
C28 C29 1_555 1_555
Cu2B_2 N9B 1_555 1_555

#END
