
#######################################################################
#
#                 Cambridge Crystallographic Data Centre
#                                CCDC 
#
#######################################################################
#
# If this CIF has been generated from an entry in the Cambridge 
# Structural Database, then it will include bibliographic, chemical, 
# crystal, experimental, refinement or atomic coordinate data resulting 
# from the CCDC's data processing and validation procedures.
#
#######################################################################

data_QOWBEK
_symmetry_cell_setting           monoclinic
_symmetry_space_group_name_H-M   'P 21'
_symmetry_Int_Tables_number      4
_space_group_name_Hall           'P 2yb'
loop_
_symmetry_equiv_pos_site_id
_symmetry_equiv_pos_as_xyz
1 x,y,z
2 -x,1/2+y,-z
_cell_length_a                   9.6784(2)
_cell_length_b                   8.8112(2)
_cell_length_c                   24.1616(4)
_cell_angle_alpha                90
_cell_angle_beta                 93.381(2)
_cell_angle_gamma                90
_cell_volume                     2056.87
loop_
_atom_site_label
_atom_site_type_symbol
_atom_site_fract_x
_atom_site_fract_y
_atom_site_fract_z
Ag1 Ag 0.25237(3) 0.15178(3) 0.277710(13)
Ag2 Ag 0.23372(3) -0.15264(4) 0.223480(13)
N1 N 0.2313(3) 0.3241(6) 0.21372(15)
N2 N -0.1469(4) 0.4839(5) -0.15656(15)
N3 N 0.3034(4) 0.0178(5) 0.35155(15)
N4 N 0.6824(4) 0.1808(5) 0.71969(14)
O1 O -0.0099(3) 0.1317(5) 0.29121(13)
O2 O 0.0072(3) -0.1193(4) 0.27981(13)
O3 O -0.2837(3) 0.1080(4) 0.30971(15)
H1 H -0.254(5) 0.198(3) 0.312(2)
C1 C -0.0548(5) -0.0014(7) 0.29328(17)
C2 C -0.1991(4) -0.0221(6) 0.31601(18)
H9 H -0.2456 -0.1050 0.2952
C3 C -0.1777(5) -0.0725(6) 0.37615(19)
C4 C -0.1646(5) -0.2262(7) 0.3892(2)
H10 H -0.1717 -0.2979 0.3610
C5 C -0.1413(5) -0.2739(7) 0.4437(2)
H11 H -0.1318 -0.3765 0.4520
C6 C -0.1320(5) -0.1647(8) 0.4860(2)
H12 H -0.1167 -0.1950 0.5228
C7 C -0.1453(5) -0.0165(8) 0.47374(19)
H13 H -0.1392 0.0548 0.5022
C8 C -0.1680(5) 0.0324(7) 0.41881(19)
H14 H -0.1765 0.1355 0.4110
C17 C 0.1077(5) 0.3849(7) 0.2001(2)
H21 H 0.0323 0.3537 0.2193
C18 C 0.0868(5) 0.4926(7) 0.15852(19)
H22 H -0.0008 0.5336 0.1510
C19 C 0.1965(4) 0.5391(6) 0.12830(18)
C20 C 0.3250(4) 0.4767(6) 0.14293(17)
H23 H 0.4024 0.5059 0.1245
C21 C 0.3370(4) 0.3713(6) 0.18497(17)
H24 H 0.4240 0.3304 0.1939
C22 C 0.1728(4) 0.6515(6) 0.08159(16)
H25 H 0.2613 0.6913 0.0715
H26 H 0.1182 0.7357 0.0942
C23 C 0.0979(4) 0.5795(5) 0.03046(17)
H27 H 0.1587 0.5063 0.0144
H28 H 0.0168 0.5256 0.0417
C24 C 0.0535(5) 0.6975(5) -0.01329(17)
H29 H -0.0088 0.7695 0.0026
H30 H 0.1344 0.7529 -0.0239
C25 C -0.0178(4) 0.6271(6) -0.06437(18)
C26 C -0.1608(4) 0.6235(6) -0.07219(18)
H31 H -0.2158 0.6695 -0.0467
C27 C -0.2206(5) 0.5508(6) -0.11823(18)
H32 H -0.3167 0.5483 -0.1228
C28 C -0.0082(4) 0.4914(6) -0.14945(17)
H33 H 0.0448 0.4494 -0.1765
C29 C 0.0585(4) 0.5582(6) -0.10413(17)
H34 H 0.1547 0.5573 -0.1001
C30 C 0.4291(5) -0.0433(6) 0.36300(18)
H35 H 0.4940 -0.0359 0.3363
C31 C 0.4676(5) -0.1163(6) 0.4120(2)
H36 H 0.5560 -0.1571 0.4175
C32 C 0.3739(4) -0.1284(6) 0.45268(18)
C33 C 0.2420(5) -0.0708(6) 0.44112(18)
H37 H 0.1745 -0.0808 0.4667
C34 C 0.2117(4) 0.0023(6) 0.39070(17)
H38 H 0.1235 0.0424 0.3838
C35 C 0.4152(5) -0.1993(6) 0.50753(18)
H39 H 0.4852 -0.2760 0.5023
H40 H 0.3354 -0.2494 0.5218
C36 C 0.4718(5) -0.0833(5) 0.55003(17)
H41 H 0.5475 -0.0281 0.5348
H42 H 0.3996 -0.0109 0.5573
C37 C 0.5230(5) -0.1579(6) 0.60423(18)
H43 H 0.4472 -0.2122 0.6198
H44 H 0.5948 -0.2308 0.5970
C38 C 0.5794(5) -0.0418(6) 0.64530(18)
C39 C 0.7155(5) 0.0082(6) 0.64479(19)
H45 H 0.7745 -0.0333 0.6198
C40 C 0.7629(5) 0.1193(6) 0.68130(18)
H46 H 0.8535 0.1535 0.6796
C41 C 0.5527(4) 0.1306(6) 0.72059(18)
H47 H 0.4960 0.1712 0.7466
C42 C 0.4987(5) 0.0210(6) 0.68463(18)
H48 H 0.4076 -0.0106 0.6869
Ag2A Ag -0.23372(3) 0.34736(4) -0.223480(13)
Ag2A_2 Ag 0.76628(3) 0.34736(4) 0.776520(13)
N2A N 0.1469(4) -0.0161(5) 0.15656(15)
N4A N 0.3176(4) -0.3192(5) 0.28031(14)
O4 O 0.6497(5) -0.2396(5) 0.18998(16)
O5 O 0.5592(5) -0.1140(5) 0.1168(2)
O6 O 0.7336(4) -0.2174(5) 0.04949(14)
H2 H 0.699(8) -0.134(5) 0.057(3)
C9 C 0.6379(5) -0.2078(7) 0.1393(2)
C10 C 0.7319(4) -0.2957(5) 0.10053(19)
H15 H 0.8263 -0.2966 0.1177
C11 C 0.6846(4) -0.4583(6) 0.09235(19)
C12 C 0.7016(5) -0.5650(6) 0.13500(19)
H16 H 0.7458 -0.5368 0.1687
C13 C 0.6534(5) -0.7123(7) 0.1278(2)
H17 H 0.6646 -0.7817 0.1567
C14 C 0.5892(5) -0.7564(6) 0.0780(2)
H18 H 0.5571 -0.8553 0.0734
C15 C 0.5726(5) -0.6534(7) 0.0349(2)
H19 H 0.5298 -0.6829 0.0012
C16 C 0.6199(4) -0.5065(6) 0.04234(19)
H20 H 0.6083 -0.4379 0.0132
O7 O 0.4947(4) 0.0407(5) 0.22720(16)
H3 H 0.524(5) -0.028(5) 0.2060(19)
H4 H 0.562(4) 0.067(7) 0.250(2)
O8 O -0.1452(5) 0.6216(5) 0.2533(2)
H5 H -0.088(5) 0.689(6) 0.266(2)
H6 H -0.199(6) 0.663(7) 0.228(2)
O9 O -0.1282(6) 0.3926(6) 0.3320(2)
H7 H -0.138(5) 0.462(5) 0.3070(17)
H8 H -0.070(5) 0.328(5) 0.319(2)
loop_
_geom_bond_atom_site_label_1
_geom_bond_atom_site_label_2
_geom_bond_site_symmetry_1
_geom_bond_site_symmetry_2
Ag1 Ag2 1_555 1_555
Ag2 O2 1_555 1_555
N1 Ag1 1_555 1_555
N2 C27 1_555 1_555
N3 Ag1 1_555 1_555
N4 C40 1_555 1_555
O1 Ag1 1_555 1_555
O2 C1 1_555 1_555
O3 H1 1_555 1_555
O4 C9 1_555 1_555
O5 C9 1_555 1_555
O6 H2 1_555 1_555
O7 H3 1_555 1_555
H4 O7 1_555 1_555
O8 H5 1_555 1_555
H6 O8 1_555 1_555
O9 H7 1_555 1_555
H8 O9 1_555 1_555
C1 O1 1_555 1_555
C2 O3 1_555 1_555
H9 C2 1_555 1_555
C3 C2 1_555 1_555
C4 C3 1_555 1_555
H10 C4 1_555 1_555
C5 C4 1_555 1_555
H11 C5 1_555 1_555
C6 C5 1_555 1_555
H12 C6 1_555 1_555
C7 C6 1_555 1_555
H13 C7 1_555 1_555
C8 C3 1_555 1_555
H14 C8 1_555 1_555
C9 C10 1_555 1_555
C10 O6 1_555 1_555
H15 C10 1_555 1_555
C11 C10 1_555 1_555
C12 C11 1_555 1_555
H16 C12 1_555 1_555
C13 C12 1_555 1_555
H17 C13 1_555 1_555
C14 C13 1_555 1_555
H18 C14 1_555 1_555
C15 C14 1_555 1_555
H19 C15 1_555 1_555
C16 C11 1_555 1_555
H20 C16 1_555 1_555
C17 N1 1_555 1_555
H21 C17 1_555 1_555
C18 C17 1_555 1_555
H22 C18 1_555 1_555
C19 C18 1_555 1_555
C20 C19 1_555 1_555
H23 C20 1_555 1_555
C21 N1 1_555 1_555
H24 C21 1_555 1_555
C22 C19 1_555 1_555
H25 C22 1_555 1_555
H26 C22 1_555 1_555
C23 C22 1_555 1_555
H27 C23 1_555 1_555
H28 C23 1_555 1_555
C24 C23 1_555 1_555
H29 C24 1_555 1_555
H30 C24 1_555 1_555
C25 C24 1_555 1_555
C26 C25 1_555 1_555
H31 C26 1_555 1_555
C27 C26 1_555 1_555
H32 C27 1_555 1_555
C28 N2 1_555 1_555
H33 C28 1_555 1_555
C29 C25 1_555 1_555
H34 C29 1_555 1_555
C30 N3 1_555 1_555
H35 C30 1_555 1_555
C31 C30 1_555 1_555
H36 C31 1_555 1_555
C32 C31 1_555 1_555
C33 C32 1_555 1_555
H37 C33 1_555 1_555
C34 N3 1_555 1_555
H38 C34 1_555 1_555
C35 C32 1_555 1_555
H39 C35 1_555 1_555
H40 C35 1_555 1_555
C36 C35 1_555 1_555
H41 C36 1_555 1_555
H42 C36 1_555 1_555
C37 C36 1_555 1_555
H43 C37 1_555 1_555
H44 C37 1_555 1_555
C38 C37 1_555 1_555
C39 C38 1_555 1_555
H45 C39 1_555 1_555
C40 C39 1_555 1_555
H46 C40 1_555 1_555
C41 N4 1_555 1_555
H47 C41 1_555 1_555
C42 C38 1_555 1_555
H48 C42 1_555 1_555
Ag2A N2 1_555 1_555
Ag2A_2 N4 1_555 1_555
N2A Ag2 1_555 1_555
N4A Ag2 1_555 1_555
C1 C2 1_555 1_555
C7 C8 1_555 1_555
C15 C16 1_555 1_555
C20 C21 1_555 1_555
C28 C29 1_555 1_555
C33 C34 1_555 1_555
C41 C42 1_555 1_555

#END
