
#######################################################################
#
#                 Cambridge Crystallographic Data Centre
#                                CCDC 
#
#######################################################################
#
# If this CIF has been generated from an entry in the Cambridge 
# Structural Database, then it will include bibliographic, chemical, 
# crystal, experimental, refinement or atomic coordinate data resulting 
# from the CCDC's data processing and validation procedures.
#
#######################################################################

data_QOWBUA
_symmetry_cell_setting           monoclinic
_symmetry_space_group_name_H-M   'P 21/c'
_symmetry_Int_Tables_number      14
_space_group_name_Hall           '-P 2ybc'
loop_
_symmetry_equiv_pos_site_id
_symmetry_equiv_pos_as_xyz
1 x,y,z
2 -x,1/2+y,1/2-z
3 -x,-y,-z
4 x,1/2-y,1/2+z
_cell_length_a                   9.9575(6)
_cell_length_b                   9.3038(5)
_cell_length_c                   24.8837(15)
_cell_angle_alpha                90
_cell_angle_beta                 112.579(5)
_cell_angle_gamma                90
_cell_volume                     2128.59
loop_
_atom_site_label
_atom_site_type_symbol
_atom_site_fract_x
_atom_site_fract_y
_atom_site_fract_z
Ag1 Ag 0.56554(2) 0.12687(2) 0.034724(9)
O1 O 0.7900(3) 0.1534(3) 0.00360(11)
O2 O 0.6790(2) -0.0357(3) -0.05048(10)
O3 O 0.9761(2) 0.1826(3) -0.04322(11)
H1 H 0.921(5) 0.236(4) -0.033(2)
N1 N 0.6880(2) -0.0021(2) 0.11220(9)
N2 N 1.4361(2) 0.2105(2) 0.47301(9)
C1 C 0.7691(3) 0.0639(3) -0.03657(13)
C2 C 0.8666(3) 0.0806(3) -0.07157(13)
H2 H 0.9142 -0.0140 -0.0717
C3 C 0.7778(3) 0.1233(3) -0.13403(12)
C4 C 0.7503(3) 0.2671(3) -0.14814(15)
H3 H 0.7847 0.3386 -0.1187
C5 C 0.6715(4) 0.3066(5) -0.20609(18)
H4 H 0.6554 0.4056 -0.2157
C6 C 0.6171(4) 0.2062(6) -0.24913(16)
H5 H 0.5618 0.2349 -0.2880
C7 C 0.6432(4) 0.0648(5) -0.23545(16)
H6 H 0.6068 -0.0057 -0.2652
C8 C 0.7229(3) 0.0218(3) -0.17821(14)
H7 H 0.7398 -0.0775 -0.1693
C9 C 0.6353(3) -0.0463(3) 0.15154(12)
H8 H 0.5357 -0.0291 0.1441
C10 C 0.7199(3) -0.1160(3) 0.20277(13)
H9 H 0.6781 -0.1453 0.2295
C11 C 0.8658(3) -0.1428(2) 0.21470(11)
C12 C 0.9174(3) -0.1019(3) 0.17302(13)
H10 H 1.0156 -0.1214 0.1786
C13 C 0.8270(3) -0.0324(3) 0.12291(12)
H11 H 0.8657 -0.0050 0.0950
C14 C 0.9698(3) -0.2026(3) 0.27259(11)
H12 H 1.0329 -0.2765 0.2657
H13 H 0.9139 -0.2484 0.2934
C15 C 1.0639(3) -0.0810(3) 0.30988(12)
H14 H 1.0009 -0.0130 0.3200
H15 H 1.1095 -0.0279 0.2868
C16 C 1.1838(3) -0.1362(3) 0.36624(12)
H16 H 1.1387 -0.1920 0.3888
H17 H 1.2491 -0.2015 0.3561
C17 C 1.2725(3) -0.0149(3) 0.40351(11)
C18 C 1.2134(3) 0.0794(3) 0.43146(13)
H18 H 1.1152 0.0682 0.4275
C19 C 1.2966(3) 0.1898(3) 0.46509(12)
H19 H 1.2530 0.2538 0.4834
C20 C 1.4937(3) 0.1199(3) 0.44522(12)
H20 H 1.5919 0.1337 0.4497
C21 C 1.4164(3) 0.0082(3) 0.41061(11)
H21 H 1.4612 -0.0527 0.3917
Ag1C Ag 1.56554(2) 0.37313(2) 0.534724(9)
N2C N 0.4361(2) 0.2895(2) -0.02699(9)
O4 O 0.6645(4) -0.2801(4) -0.11384(13)
H22 H 0.678(9) -0.192(3) -0.102(3)
C22 C 0.8057(8) -0.3481(5) -0.0941(2)
H23 H 0.8190 -0.3942 -0.1271
H24 H 0.8122 -0.4207 -0.0647
H25 H 0.8815 -0.2755 -0.0771
loop_
_geom_bond_atom_site_label_1
_geom_bond_atom_site_label_2
_geom_bond_site_symmetry_1
_geom_bond_site_symmetry_2
Ag1 O1 1_555 1_555
O1 C1 1_555 1_555
O2 C1 1_555 1_555
O3 H1 1_555 1_555
N1 Ag1 1_555 1_555
N2 C19 1_555 1_555
C1 C2 1_555 1_555
C2 O3 1_555 1_555
H2 C2 1_555 1_555
C3 C2 1_555 1_555
C4 C3 1_555 1_555
H3 C4 1_555 1_555
C5 C4 1_555 1_555
H4 C5 1_555 1_555
C6 C5 1_555 1_555
H5 C6 1_555 1_555
C7 C6 1_555 1_555
H6 C7 1_555 1_555
C8 C3 1_555 1_555
H7 C8 1_555 1_555
C9 N1 1_555 1_555
H8 C9 1_555 1_555
C10 C9 1_555 1_555
H9 C10 1_555 1_555
C11 C10 1_555 1_555
C12 C11 1_555 1_555
H10 C12 1_555 1_555
C13 N1 1_555 1_555
H11 C13 1_555 1_555
C14 C11 1_555 1_555
H12 C14 1_555 1_555
H13 C14 1_555 1_555
C15 C14 1_555 1_555
H14 C15 1_555 1_555
H15 C15 1_555 1_555
C16 C15 1_555 1_555
H16 C16 1_555 1_555
H17 C16 1_555 1_555
C17 C16 1_555 1_555
C18 C17 1_555 1_555
H18 C18 1_555 1_555
C19 C18 1_555 1_555
H19 C19 1_555 1_555
C20 N2 1_555 1_555
H20 C20 1_555 1_555
C21 C17 1_555 1_555
H21 C21 1_555 1_555
O4 H22 1_555 1_555
C22 O4 1_555 1_555
H23 C22 1_555 1_555
H24 C22 1_555 1_555
H25 C22 1_555 1_555
Ag1C N2 1_555 1_555
N2C Ag1 1_555 1_555
C7 C8 1_555 1_555
C12 C13 1_555 1_555
C20 C21 1_555 1_555

#END
