
#######################################################################
#
#                 Cambridge Crystallographic Data Centre
#                                CCDC 
#
#######################################################################
#
# If this CIF has been generated from an entry in the Cambridge 
# Structural Database, then it will include bibliographic, chemical, 
# crystal, experimental, refinement or atomic coordinate data resulting 
# from the CCDC's data processing and validation procedures.
#
#######################################################################

data_QOWCAH
_symmetry_cell_setting           triclinic
_symmetry_space_group_name_H-M   'P -1'
_symmetry_Int_Tables_number      2
_space_group_name_Hall           '-P 1'
loop_
_symmetry_equiv_pos_site_id
_symmetry_equiv_pos_as_xyz
1 x,y,z
2 -x,-y,-z
_cell_length_a                   9.011(2)
_cell_length_b                   9.038(2)
_cell_length_c                   9.638(2)
_cell_angle_alpha                101.955(5)
_cell_angle_beta                 110.443(4)
_cell_angle_gamma                106.959(4)
_cell_volume                     660.375
loop_
_atom_site_label
_atom_site_type_symbol
_atom_site_fract_x
_atom_site_fract_y
_atom_site_fract_z
C1 C 0.5160(4) 0.8779(4) 0.6326(4)
C2 C 0.4885(4) 0.9779(4) 0.7426(4)
C3 C 0.6274(5) 1.0733(5) 0.8832(4)
C4 C 0.7908(4) 1.0721(4) 0.9172(4)
C5 C 0.8207(4) 0.9730(4) 0.8097(4)
C6 C 0.6790(4) 0.8738(4) 0.6659(4)
C7 C 0.5054(4) 0.6998(4) 0.4312(3)
C8 C 0.4524(4) 0.5684(4) 0.2823(4)
C9 C 0.2919(4) 0.4956(4) 0.1544(4)
C10 C 0.2644(4) 0.3705(5) 0.0275(4)
C11 C 0.3917(4) 0.3175(4) 0.0302(4)
C12 C 0.5499(4) 0.3981(4) 0.1595(4)
C13 C 0.2268(4) 0.7385(4) 0.4030(4)
C14 C 0.1024(4) 0.5735(4) 0.3877(4)
C15 C 0.9381(4) 0.9864(4) 0.4172(3)
Co1 Co 0.83255(5) 0.67962(5) 0.46303(5)
H1 H 0.3762 0.9733 0.7283
H2 H 0.6134 1.1317 0.9675
H3 H 0.8832 1.1351 1.0171
H4 H 0.9323 0.9679 0.8366
H5 H 0.1897 0.5158 0.1439
H6 H 0.1597 0.3140 -0.0486
H7 H 0.3719 0.2261 -0.0484
H8 H 0.6436 0.3638 0.1722
H9 H 0.2089 0.8290 0.4611
H10 H 0.1908 0.7412 0.2962
N1 N 0.6666(3) 0.7604(3) 0.5376(3)
N2 N 0.5810(3) 0.5220(3) 0.2825(3)
N3 N 0.4082(3) 0.7673(3) 0.4808(3)
O1 O 0.1610(3) 0.4669(3) 0.4038(3)
O2 O -0.0493(3) 0.5591(3) 0.3532(3)
O3 O 0.8323(3) 0.8418(3) 0.3331(2)
O4 O 0.9481(3) 1.1101(3) 0.3744(2)
C1A C 0.4840(4) 0.1221(4) 0.3674(4)
C2A C 0.5115(4) 0.0221(4) 0.2574(4)
C3A C 0.3726(5) -0.0733(5) 0.1168(4)
C4A C 0.2092(4) -0.0721(4) 0.0828(4)
C5A C 0.1793(4) 0.0270(4) 0.1903(4)
C6A C 0.3210(4) 0.1262(4) 0.3341(4)
C7A C 0.4946(4) 0.3002(4) 0.5688(3)
C8A C 0.5476(4) 0.4316(4) 0.7177(4)
C9A C 0.7081(4) 0.5044(4) 0.8456(4)
C10A C 0.7356(4) 0.6295(5) 0.9725(4)
C11A C 0.6083(4) 0.6825(4) 0.9698(4)
C12A C 0.4501(4) 0.6019(4) 0.8405(4)
C13A C 0.7732(4) 0.2615(4) 0.5970(4)
C14A C 0.8976(4) 0.4265(4) 0.6123(4)
C15A C 1.0619(4) 1.0136(4) 0.5828(3)
Co1A Co 0.16745(5) 0.32038(5) 0.53697(5)
Co1_2 Co -0.16745(5) 0.67962(5) 0.46303(5)
Co1A_2 Co 1.16745(5) 1.32038(5) 0.53697(5)
Co1A_3 Co 1.16745(5) 0.32038(5) 0.53697(5)
H1A H 0.6238 0.0267 0.2717
H2A H 0.3866 -0.1317 0.0325
H3A H 0.1168 -0.1351 -0.0171
H4A H 0.0677 0.0321 0.1634
H5A H 0.8103 0.4842 0.8561
H6A H 0.8403 0.6860 1.0486
H7A H 0.6281 0.7739 1.0484
H8A H 0.3564 0.6362 0.8278
H9A H 0.7911 0.1710 0.5389
H10A H 0.8092 0.2588 0.7038
N1A N 0.3334(3) 0.2396(3) 0.4624(3)
N2A N 0.4190(3) 0.4780(3) 0.7175(3)
N3A N 0.5918(3) 0.2327(3) 0.5192(3)
O1A O 0.8390(3) 0.5331(3) 0.5962(3)
O2A O 1.0493(3) 0.4409(3) 0.6468(3)
O2_2 O 0.9507(3) 0.5591(3) 0.3532(3)
O2A_2 O 0.0493(3) 0.4409(3) 0.6468(3)
O3A O 1.1677(3) 1.1582(3) 0.6669(2)
O3A_2 O 0.1677(3) 0.1582(3) 0.6669(2)
O4A O 1.0519(3) 0.8899(3) 0.6256(2)
O4_2 O -0.0519(3) 0.1101(3) 0.3744(2)
loop_
_geom_bond_atom_site_label_1
_geom_bond_atom_site_label_2
_geom_bond_site_symmetry_1
_geom_bond_site_symmetry_2
C1 C2 1_555 1_555
C2 C3 1_555 1_555
C3 C4 1_555 1_555
C4 C5 1_555 1_555
C5 C6 1_555 1_555
C6 C1 1_555 1_555
C7 C8 1_555 1_555
C8 C9 1_555 1_555
C9 C10 1_555 1_555
C10 C11 1_555 1_555
C11 C12 1_555 1_555
C12 H8 1_555 1_555
C13 C14 1_555 1_555
C14 O1 1_555 1_555
C15 O3 1_555 1_555
Co1 N1 1_555 1_555
H1 C2 1_555 1_555
H2 C3 1_555 1_555
H3 C4 1_555 1_555
H4 C5 1_555 1_555
H5 C9 1_555 1_555
H6 C10 1_555 1_555
H7 C11 1_555 1_555
H9 C13 1_555 1_555
H10 C13 1_555 1_555
N1 C6 1_555 1_555
N2 C8 1_555 1_555
N3 C1 1_555 1_555
O1 Co1A 1_555 1_555
O2 C14 1_555 1_555
O3 Co1 1_555 1_555
O4 C15 1_555 1_555
C1A C2A 1_555 1_555
C2A C3A 1_555 1_555
C3A C4A 1_555 1_555
C4A C5A 1_555 1_555
C5A C6A 1_555 1_555
C6A C1A 1_555 1_555
C7A C8A 1_555 1_555
C8A C9A 1_555 1_555
C9A C10A 1_555 1_555
C10A C11A 1_555 1_555
C11A C12A 1_555 1_555
C12A H8A 1_555 1_555
C13A C14A 1_555 1_555
C14A O1A 1_555 1_555
C15A C15 1_555 1_555
Co1A N1A 1_555 1_555
Co1_2 O2 1_555 1_555
Co1A_2 O4 1_555 1_555
Co1A_3 O2A 1_555 1_555
H1A C2A 1_555 1_555
H2A C3A 1_555 1_555
H3A C4A 1_555 1_555
H4A C5A 1_555 1_555
H5A C9A 1_555 1_555
H6A C10A 1_555 1_555
H7A C11A 1_555 1_555
H9A C13A 1_555 1_555
H10A C13A 1_555 1_555
N1A C6A 1_555 1_555
N2A C8A 1_555 1_555
N3A C1A 1_555 1_555
O1A Co1 1_555 1_555
O2A C14A 1_555 1_555
O2_2 Co1 1_555 1_555
O2A_2 Co1A 1_555 1_555
O3A C15A 1_555 1_555
O3A_2 Co1A 1_555 1_555
O4A Co1 1_555 1_555
O4_2 Co1A 1_555 1_555
C7 N1 1_555 1_555
C7 N3 1_555 1_555
C12 N2 1_555 1_555
C13 N3 1_555 1_555
Co1 N2 1_555 1_555
C7A N1A 1_555 1_555
C7A N3A 1_555 1_555
C12A N2A 1_555 1_555
C13A N3A 1_555 1_555
C15A O4A 1_555 1_555
Co1A N2A 1_555 1_555
Co1A_2 O3A 1_555 1_555

#END
