
#######################################################################
#
#                 Cambridge Crystallographic Data Centre
#                                CCDC 
#
#######################################################################
#
# If this CIF has been generated from an entry in the Cambridge 
# Structural Database, then it will include bibliographic, chemical, 
# crystal, experimental, refinement or atomic coordinate data resulting 
# from the CCDC's data processing and validation procedures.
#
#######################################################################

data_QOWCEL
_symmetry_cell_setting           monoclinic
_symmetry_space_group_name_H-M   'P 21/c'
_symmetry_Int_Tables_number      14
_space_group_name_Hall           '-P 2ybc'
loop_
_symmetry_equiv_pos_site_id
_symmetry_equiv_pos_as_xyz
1 x,y,z
2 -x,1/2+y,1/2-z
3 -x,-y,-z
4 x,1/2-y,1/2+z
_cell_length_a                   13.785(3)
_cell_length_b                   8.4298(18)
_cell_length_c                   22.060(4)
_cell_angle_alpha                90
_cell_angle_beta                 111.250(11)
_cell_angle_gamma                90
_cell_volume                     2389.18
loop_
_atom_site_label
_atom_site_type_symbol
_atom_site_fract_x
_atom_site_fract_y
_atom_site_fract_z
C1 C 0.1813(3) 0.4466(5) 0.0581(2)
C2 C 0.2187(4) 0.3751(6) 0.1193(2)
H1 H 0.2575 0.2821 0.1265
C3 C 0.1961(3) 0.4470(6) 0.1683(2)
H2 H 0.2184 0.4006 0.2094
C4 C 0.1408(4) 0.5871(7) 0.1577(2)
H3 H 0.1279 0.6329 0.1924
C5 C 0.1038(3) 0.6624(7) 0.0986(3)
H4 H 0.0660 0.7563 0.0923
C6 C 0.1262(4) 0.5900(6) 0.0489(2)
C7 C 0.1390(4) 0.5061(5) -0.0430(2)
C8 C 0.1267(4) 0.4913(6) -0.1117(2)
C9 C 0.1019(4) 0.6139(6) -0.1565(2)
H5 H 0.0935 0.7171 -0.1443
C10 C 0.0901(4) 0.5783(7) -0.2199(3)
H6 H 0.0729 0.6584 -0.2510
C11 C 0.1031(4) 0.4298(7) -0.2372(2)
H7 H 0.0923 0.4046 -0.2802
C12 C 0.1334(4) 0.3141(6) -0.1888(2)
H8 H 0.1459 0.2116 -0.1998
C13 C 0.0370(3) 0.7646(5) -0.0453(2)
H9 H -0.0097 0.7866 -0.0223
H10 H -0.0055 0.7393 -0.0900
C14 C 0.0999(4) 0.9132(6) -0.0447(3)
C15 C 0.3898(3) 0.0473(5) 0.1110(2)
C16 C 0.3167(4) -0.0330(6) 0.1300(2)
H11 H 0.2472 -0.0403 0.1028
C17 C 0.3530(4) -0.1009(7) 0.1911(2)
H12 H 0.3065 -0.1549 0.2055
C18 C 0.4559(4) -0.0913(7) 0.2315(2)
H13 H 0.4772 -0.1411 0.2719
C19 C 0.5270(4) -0.0114(6) 0.2141(2)
H14 H 0.5961 -0.0025 0.2419
C20 C 0.4918(4) 0.0560(5) 0.1532(2)
C21 C 0.4714(3) 0.1773(6) 0.0601(2)
C22 C 0.4882(4) 0.2557(6) 0.0056(2)
C23 C 0.5839(4) 0.2525(6) -0.0020(2)
H15 H 0.6413 0.2042 0.0288
C24 C 0.5914(4) 0.3229(6) -0.0564(2)
H16 H 0.6545 0.3245 -0.0627
C25 C 0.5056(5) 0.3896(6) -0.1006(3)
H17 H 0.5091 0.4374 -0.1378
C26 C 0.4134(5) 0.3863(6) -0.0902(2)
H18 H 0.3548 0.4308 -0.1215
C27 C 0.6512(3) 0.1844(6) 0.1495(2)
H19 H 0.6663 0.2111 0.1948
H20 H 0.6633 0.2787 0.1281
C28 C 0.7272(3) 0.0561(5) 0.1464(2)
Cd1 Cd 0.23679(2) 0.16926(4) -0.041237(15)
N1 N 0.1450(3) 0.3457(5) -0.12732(17)
N2 N 0.1860(3) 0.3964(5) -0.00033(19)
N3 N 0.4035(3) 0.3220(5) -0.03702(17)
N4 N 0.3775(3) 0.1236(5) 0.05358(18)
N5 N 0.5433(3) 0.1429(5) 0.12061(17)
N6 N 0.0999(3) 0.6276(4) -0.01596(18)
O1 O 0.1917(3) 0.9103(4) -0.02215(19)
O2 O 0.0487(3) 1.0319(4) -0.07050(17)
O3 O 0.6899(2) -0.0469(4) 0.10392(15)
O4 O 0.8162(3) 0.0675(4) 0.18581(17)
Cd1B Cd 0.76321(2) -0.16926(4) 0.041237(15)
Cd1_2 Cd 0.23679(2) 1.16926(4) -0.041237(15)
O1_2 O 0.1917(3) -0.0897(4) -0.02215(19)
O3B O 0.3101(2) 0.0469(4) -0.10392(15)
loop_
_geom_bond_atom_site_label_1
_geom_bond_atom_site_label_2
_geom_bond_site_symmetry_1
_geom_bond_site_symmetry_2
C1 C2 1_555 1_555
C2 H1 1_555 1_555
C3 C2 1_555 1_555
H2 C3 1_555 1_555
C4 C3 1_555 1_555
H3 C4 1_555 1_555
C5 C4 1_555 1_555
H4 C5 1_555 1_555
C6 C1 1_555 1_555
C7 C8 1_555 1_555
C8 C9 1_555 1_555
C9 H5 1_555 1_555
C10 C9 1_555 1_555
H6 C10 1_555 1_555
C11 C10 1_555 1_555
H7 C11 1_555 1_555
C12 C11 1_555 1_555
H8 C12 1_555 1_555
C13 H9 1_555 1_555
H10 C13 1_555 1_555
C14 C13 1_555 1_555
C15 C16 1_555 1_555
C16 H11 1_555 1_555
C17 C16 1_555 1_555
H12 C17 1_555 1_555
C18 C17 1_555 1_555
H13 C18 1_555 1_555
C19 C18 1_555 1_555
H14 C19 1_555 1_555
C20 C15 1_555 1_555
C21 C22 1_555 1_555
C22 C23 1_555 1_555
C23 H15 1_555 1_555
C24 C23 1_555 1_555
H16 C24 1_555 1_555
C25 C24 1_555 1_555
H17 C25 1_555 1_555
C26 C25 1_555 1_555
H18 C26 1_555 1_555
C27 H19 1_555 1_555
H20 C27 1_555 1_555
C28 C27 1_555 1_555
Cd1 N1 1_555 1_555
N1 C8 1_555 1_555
N2 C1 1_555 1_555
N3 C22 1_555 1_555
N4 C15 1_555 1_555
N5 C20 1_555 1_555
N6 C6 1_555 1_555
O1 C14 1_555 1_555
O2 C14 1_555 1_555
O3 C28 1_555 1_555
O4 C28 1_555 1_555
Cd1B O3 1_555 1_555
Cd1_2 O1 1_555 1_555
O1_2 Cd1 1_555 1_555
O3B Cd1 1_555 1_555
C5 C6 1_555 1_555
C7 N2 1_555 1_555
C7 N6 1_555 1_555
C12 N1 1_555 1_555
C13 N6 1_555 1_555
C19 C20 1_555 1_555
C21 N4 1_555 1_555
C21 N5 1_555 1_555
C26 N3 1_555 1_555
C27 N5 1_555 1_555
Cd1 N2 1_555 1_555
Cd1 N3 1_555 1_555
Cd1 N4 1_555 1_555

#END
