
#######################################################################
#
#                 Cambridge Crystallographic Data Centre
#                                CCDC 
#
#######################################################################
#
# If this CIF has been generated from an entry in the Cambridge 
# Structural Database, then it will include bibliographic, chemical, 
# crystal, experimental, refinement or atomic coordinate data resulting 
# from the CCDC's data processing and validation procedures.
#
#######################################################################

data_QOWCOV
_symmetry_cell_setting           triclinic
_symmetry_space_group_name_H-M   'P -1'
_symmetry_Int_Tables_number      2
_space_group_name_Hall           '-P 1'
loop_
_symmetry_equiv_pos_site_id
_symmetry_equiv_pos_as_xyz
1 x,y,z
2 -x,-y,-z
_cell_length_a                   8.692(2)
_cell_length_b                   11.027(3)
_cell_length_c                   12.797(3)
_cell_angle_alpha                75.434(5)
_cell_angle_beta                 71.326(5)
_cell_angle_gamma                77.664(5)
_cell_volume                     1112.72
loop_
_atom_site_label
_atom_site_type_symbol
_atom_site_fract_x
_atom_site_fract_y
_atom_site_fract_z
Zn1 Zn 1.0000 0.0000 0.5000
Zn2 Zn 0.79686(8) 0.85073(6) 0.19937(5)
O1 O 0.1212(4) 0.3575(3) 0.4009(3)
O2 O 0.1368(5) 0.5613(3) 0.3531(4)
H1 H 0.0403 0.5666 0.3554
O3 O 0.6385(4) 0.7262(3) 0.2642(3)
O4 O 0.8554(5) 0.6097(3) 0.3083(4)
O5 O 0.8392(4) 0.1490(3) 0.4530(3)
O6 O 0.5991(4) 0.0795(3) 0.5367(3)
O7 O 1.0046(4) -0.0826(3) 0.3597(3)
O8 O 1.0217(4) -0.1343(3) 0.1983(3)
O9 O 1.1826(4) 0.1055(3) 0.3982(3)
H2 H 1.2046 0.1488 0.4366
H3 H 1.2677 0.0550 0.3731
O10 O 0.7009(4) 0.9416(3) 0.3333(3)
H4 H 0.7532 1.0027 0.3226
H5 H 0.6007 0.9702 0.3376
N1 N 1.2900(5) 0.0132(4) -0.0823(4)
N2 N 1.0843(5) 0.2168(4) -0.0423(4)
N3 N 1.3092(5) -0.0634(4) 0.0925(3)
C1 C 0.4421(6) 0.3103(4) 0.4326(4)
H6 H 0.3836 0.2420 0.4587
C2 C 0.3676(6) 0.4272(5) 0.3911(4)
C3 C 0.4547(6) 0.5278(5) 0.3533(4)
H7 H 0.4041 0.6074 0.3261
C4 C 0.6157(6) 0.5131(4) 0.3550(4)
C5 C 0.6883(6) 0.3940(4) 0.3973(4)
H8 H 0.7966 0.3827 0.3993
C6 C 0.6030(6) 0.2923(4) 0.4364(4)
C7 C 0.1958(7) 0.4424(5) 0.3835(4)
C8 C 0.7118(7) 0.6220(5) 0.3072(4)
C9 C 0.6856(7) 0.1627(5) 0.4801(4)
C10 C 0.9739(8) 0.3186(5) -0.0287(5)
H9 H 0.9355 0.3643 -0.0894
C11 C 0.9140(8) 0.3595(6) 0.0710(6)
H10 H 0.8344 0.4306 0.0783
C12 C 1.0823(8) 0.1885(5) 0.1478(5)
H11 H 1.1214 0.1424 0.2081
C13 C 1.1361(7) 0.1494(5) 0.0455(5)
C14 C 1.2472(6) 0.0328(5) 0.0206(4)
C15 C 1.3972(7) -0.1543(5) 0.0308(4)
C16 C 1.4807(7) -0.2726(5) 0.0608(5)
H12 H 1.4882 -0.3040 0.1339
C17 C 1.5414(8) -0.2946(5) -0.1312(5)
H13 H 1.5936 -0.3440 -0.1854
C18 C 1.4566(7) -0.1783(5) -0.1613(5)
H14 H 1.4477 -0.1486 -0.2342
C19 C 1.3842(6) -0.1063(5) -0.0785(4)
C20 C 1.2606(6) -0.0830(5) 0.2150(4)
H15 H 1.2774 -0.0102 0.2375
H16 H 1.3286 -0.1569 0.2448
C21 C 1.0795(7) -0.1017(5) 0.2639(5)
C22 C 1.5516(7) -0.3412(5) -0.0216(5)
H17 H 1.6087 -0.4216 -0.0042
C23 C 0.9715(9) 0.2957(6) 0.1584(6)
H18 H 0.9357 0.3246 0.2257
Zn2A Zn 1.20314(8) -0.85073(6) 0.80063(5)
Zn2_2 Zn 0.79686(8) -0.14927(6) 0.19937(5)
Zn2A_2 Zn 1.20314(8) 0.14927(6) -0.19937(5)
Zn2A_3 Zn 1.20314(8) 0.14927(6) 0.80063(5)
Zn2_3 Zn 0.79686(8) -0.14927(6) 1.19937(5)
O1A O 1.8788(4) -0.3575(3) 0.5991(3)
O2A O 1.8632(5) -0.5613(3) 0.6469(4)
H1A H 1.9597 -0.5666 0.6446
O3A O 1.3615(4) -0.7262(3) 0.7358(3)
O4A O 1.1446(5) -0.6097(3) 0.6917(4)
O5A O 1.1608(4) -0.1490(3) 0.5470(3)
O6A O 1.4009(4) -0.0795(3) 0.4633(3)
O7A O 0.9954(4) 0.0826(3) 0.6403(3)
O8A O 0.9783(4) 0.1343(3) 0.8017(3)
O8_2 O 1.0217(4) 0.8657(3) 0.1983(3)
O8A_2 O 0.9783(4) -0.8657(3) 0.8017(3)
O9A O 0.8174(4) -0.1055(3) 0.6018(3)
H2A H 0.7954 -0.1488 0.5634
H3A H 0.7323 -0.0550 0.6269
O10A O 1.2991(4) -0.9416(3) 0.6667(3)
H4A H 1.2468 -1.0027 0.6774
H5A H 1.3993 -0.9702 0.6624
N1A N 0.7100(5) -0.0132(4) 1.0823(4)
N1A_2 N 0.7100(5) 0.9868(4) 0.0823(4)
N1_2 N 1.2900(5) -0.9868(4) 0.9177(4)
N2A N 0.9157(5) -0.2168(4) 1.0423(4)
N2A_2 N 0.9157(5) 0.7832(4) 0.0423(4)
N2_2 N 1.0843(5) -0.7832(4) 0.9577(4)
N3A N 0.6908(5) 0.0634(4) 0.9075(3)
C1A C 1.5579(6) -0.3103(4) 0.5674(4)
H6A H 1.6164 -0.2420 0.5413
C2A C 1.6324(6) -0.4272(5) 0.6089(4)
C3A C 1.5453(6) -0.5278(5) 0.6467(4)
H7A H 1.5959 -0.6074 0.6739
C4A C 1.3843(6) -0.5131(4) 0.6450(4)
C5A C 1.3117(6) -0.3940(4) 0.6027(4)
H8A H 1.2034 -0.3827 0.6007
C6A C 1.3970(6) -0.2923(4) 0.5636(4)
C7A C 1.8042(7) -0.4424(5) 0.6165(4)
C8A C 1.2882(7) -0.6220(5) 0.6928(4)
C9A C 1.3144(7) -0.1627(5) 0.5199(4)
C10A C 1.0261(8) -0.3186(5) 1.0287(5)
H9A H 1.0645 -0.3643 1.0894
C11A C 1.0860(8) -0.3595(6) 0.9290(6)
H10A H 1.1656 -0.4306 0.9217
C12A C 0.9177(8) -0.1885(5) 0.8522(5)
H11A H 0.8786 -0.1424 0.7919
C13A C 0.8639(7) -0.1494(5) 0.9545(5)
C14A C 0.7528(6) -0.0328(5) 0.9794(4)
C15A C 0.6028(7) 0.1543(5) 0.9692(4)
C16A C 0.5193(7) 0.2726(5) 0.9392(5)
H12A H 0.5118 0.3040 0.8661
C17A C 0.4586(8) 0.2946(5) 1.1312(5)
H13A H 0.4064 0.3440 1.1854
C18A C 0.5434(7) 0.1783(5) 1.1613(5)
H14A H 0.5523 0.1486 1.2342
C19A C 0.6158(6) 0.1063(5) 1.0785(4)
C20A C 0.7394(6) 0.0830(5) 0.7850(4)
H15A H 0.7226 0.0102 0.7625
H16A H 0.6714 0.1569 0.7552
C21A C 0.9205(7) 0.1017(5) 0.7361(5)
C22A C 0.4484(7) 0.3412(5) 1.0216(5)
H17A H 0.3913 0.4216 1.0042
C23A C 1.0285(9) -0.2957(6) 0.8416(6)
H18A H 1.0643 -0.3246 0.7743
loop_
_geom_bond_atom_site_label_1
_geom_bond_atom_site_label_2
_geom_bond_site_symmetry_1
_geom_bond_site_symmetry_2
Zn1 O5 1_555 1_555
Zn2 O3 1_555 1_555
O1 C7 1_555 1_555
O2 H1 1_555 1_555
O3 C8 1_555 1_555
O4 Zn2 1_555 1_555
O5 C9 1_555 1_555
O6 C9 1_555 1_555
O7 Zn1 1_555 1_555
O8 C21 1_555 1_555
O9 Zn1 1_555 1_555
H2 O9 1_555 1_555
H3 O9 1_555 1_555
O10 Zn2 1_555 1_555
H4 O10 1_555 1_555
H5 O10 1_555 1_555
N1 C14 1_555 1_555
N2 C10 1_555 1_555
N3 C14 1_555 1_555
C1 H6 1_555 1_555
C2 C1 1_555 1_555
C3 C2 1_555 1_555
H7 C3 1_555 1_555
C4 C3 1_555 1_555
C5 C4 1_555 1_555
H8 C5 1_555 1_555
C6 C1 1_555 1_555
C7 O2 1_555 1_555
C8 O4 1_555 1_555
C9 C6 1_555 1_555
C10 H9 1_555 1_555
C11 C10 1_555 1_555
H10 C11 1_555 1_555
C12 H11 1_555 1_555
C13 N2 1_555 1_555
C14 C13 1_555 1_555
C15 N3 1_555 1_555
C16 C15 1_555 1_555
H12 C16 1_555 1_555
C17 H13 1_555 1_555
C18 C17 1_555 1_555
H14 C18 1_555 1_555
C19 N1 1_555 1_555
C20 N3 1_555 1_555
H15 C20 1_555 1_555
H16 C20 1_555 1_555
C21 O7 1_555 1_555
C22 C16 1_555 1_555
H17 C22 1_555 1_555
C23 C11 1_555 1_555
H18 C23 1_555 1_555
Zn2A O3A 1_555 1_555
Zn2_2 O8 1_555 1_555
Zn2A_2 N1 1_555 1_555
Zn2A_3 O8A 1_555 1_555
Zn2_3 N1A 1_555 1_555
O1A C7A 1_555 1_555
O2A H1A 1_555 1_555
O3A C8A 1_555 1_555
O4A Zn2A 1_555 1_555
O5A Zn1 1_555 1_555
O6A C9A 1_555 1_555
O7A Zn1 1_555 1_555
O8A C21A 1_555 1_555
O8_2 Zn2 1_555 1_555
O8A_2 Zn2A 1_555 1_555
O9A Zn1 1_555 1_555
H2A O9A 1_555 1_555
H3A O9A 1_555 1_555
O10A Zn2A 1_555 1_555
H4A O10A 1_555 1_555
H5A O10A 1_555 1_555
N1A C14A 1_555 1_555
N1A_2 Zn2 1_555 1_555
N1_2 Zn2A 1_555 1_555
N2A Zn2_3 1_555 1_555
N2A_2 Zn2 1_555 1_555
N2_2 Zn2A 1_555 1_555
N3A C14A 1_555 1_555
C1A H6A 1_555 1_555
C2A C1A 1_555 1_555
C3A C2A 1_555 1_555
H7A C3A 1_555 1_555
C4A C3A 1_555 1_555
C5A C4A 1_555 1_555
H8A C5A 1_555 1_555
C6A C1A 1_555 1_555
C7A O2A 1_555 1_555
C8A O4A 1_555 1_555
C9A O5A 1_555 1_555
C10A N2A 1_555 1_555
H9A C10A 1_555 1_555
C11A C10A 1_555 1_555
H10A C11A 1_555 1_555
C12A H11A 1_555 1_555
C13A N2A 1_555 1_555
C14A C13A 1_555 1_555
C15A N3A 1_555 1_555
C16A C15A 1_555 1_555
H12A C16A 1_555 1_555
C17A H13A 1_555 1_555
C18A C17A 1_555 1_555
H14A C18A 1_555 1_555
C19A N1A 1_555 1_555
C20A N3A 1_555 1_555
H15A C20A 1_555 1_555
H16A C20A 1_555 1_555
C21A O7A 1_555 1_555
C22A C16A 1_555 1_555
H17A C22A 1_555 1_555
C23A C11A 1_555 1_555
H18A C23A 1_555 1_555
N2 Zn2A_2 1_555 1_555
C2 C7 1_555 1_555
C4 C8 1_555 1_555
C5 C6 1_555 1_555
C12 C13 1_555 1_555
C12 C23 1_555 1_555
C15 C19 1_555 1_555
C17 C22 1_555 1_555
C18 C19 1_555 1_555
C20 C21 1_555 1_555
C2A C7A 1_555 1_555
C4A C8A 1_555 1_555
C5A C6A 1_555 1_555
C6A C9A 1_555 1_555
C12A C13A 1_555 1_555
C12A C23A 1_555 1_555
C15A C19A 1_555 1_555
C17A C22A 1_555 1_555
C18A C19A 1_555 1_555
C20A C21A 1_555 1_555

#END
