
#######################################################################
#
#                 Cambridge Crystallographic Data Centre
#                                CCDC 
#
#######################################################################
#
# If this CIF has been generated from an entry in the Cambridge 
# Structural Database, then it will include bibliographic, chemical, 
# crystal, experimental, refinement or atomic coordinate data resulting 
# from the CCDC's data processing and validation procedures.
#
#######################################################################

data_QOWGUF
_symmetry_cell_setting           monoclinic
_symmetry_space_group_name_H-M   'P 21/n'
_symmetry_Int_Tables_number      14
_space_group_name_Hall           '-P 2yn'
loop_
_symmetry_equiv_pos_site_id
_symmetry_equiv_pos_as_xyz
1 x,y,z
2 1/2-x,1/2+y,1/2-z
3 -x,-y,-z
4 1/2+x,1/2-y,1/2+z
_cell_length_a                   11.0790(12)
_cell_length_b                   25.098(3)
_cell_length_c                   13.4274(15)
_cell_angle_alpha                90
_cell_angle_beta                 92.846(4)
_cell_angle_gamma                90
_cell_volume                     3729.03
loop_
_atom_site_label
_atom_site_type_symbol
_atom_site_fract_x
_atom_site_fract_y
_atom_site_fract_z
Ag1 Ag 0.19766(5) 0.16786(2) 0.35443(4)
N1 N 0.2466(6) 0.2105(2) 0.5110(4)
N2 N 0.1672(5) 0.2023(2) 0.5840(4)
N3 N 0.0196(5) 0.1523(2) 0.4277(4)
N4 N 0.0103(5) 0.1430(2) 0.5275(4)
N5 N 0.1704(6) 0.2001(2) 0.1882(4)
N6 N 0.2411(5) 0.1784(2) 0.1201(4)
N7 N 0.3717(5) 0.1331(2) 0.2944(4)
N8 N 0.3788(5) 0.1150(2) 0.1987(4)
O1 O 0.4870(5) 0.0840(2) 0.8151(4)
O2 O 0.5968(5) 0.0448(2) 0.7038(4)
O3 O -0.2199(5) 0.0252(2) 0.0194(4)
O4 O -0.1188(5) 0.0823(2) -0.0680(4)
Ag2 Ag 0.70901(7) 0.05442(4) 0.84766(6)
C1 C 0.0507(9) 0.2507(4) 0.7119(6)
H1 H 0.0234 0.2150 0.7270
H2 H -0.0182 0.2725 0.6905
H3 H 0.0904 0.2662 0.7710
C2 C 0.1385(7) 0.2482(3) 0.6295(5)
C3 C 0.1993(8) 0.2873(3) 0.5844(6)
H4 H 0.1966 0.3240 0.5985
C4 C 0.2669(8) 0.2623(3) 0.5125(6)
C5 C 0.3549(10) 0.2858(4) 0.4424(9)
H5 H 0.3870 0.2576 0.4018
H6 H 0.4206 0.3029 0.4806
H7 H 0.3137 0.3119 0.3996
C6 C -0.1385(7) 0.1122(4) 0.6495(6)
H8 H -0.0712 0.1180 0.6973
H9 H -0.1652 0.0755 0.6534
H10 H -0.2045 0.1358 0.6646
C7 C -0.0994(6) 0.1234(3) 0.5472(5)
C8 C -0.1645(6) 0.1205(3) 0.4572(6)
H11 H -0.2444 0.1084 0.4461
C9 C -0.0876(6) 0.1391(3) 0.3860(5)
C10 C -0.1149(8) 0.1476(4) 0.2773(6)
H12 H -0.0434 0.1610 0.2467
H13 H -0.1799 0.1733 0.2681
H14 H -0.1393 0.1141 0.2464
C11 C 0.1148(6) 0.1499(3) 0.5967(5)
H15 H 0.0848 0.1486 0.6648
C12 C 0.2074(6) 0.1057(3) 0.5897(5)
C13 C 0.1980(7) 0.0657(3) 0.5175(5)
H16 H 0.1321 0.0654 0.4706
C14 C 0.2854(7) 0.0265(3) 0.5149(6)
H17 H 0.2776 -0.0006 0.4667
C15 C 0.3840(7) 0.0266(3) 0.5821(5)
H18 H 0.4443 0.0005 0.5779
C16 C 0.3934(6) 0.0653(3) 0.6555(5)
C17 C 0.3057(6) 0.1044(3) 0.6596(5)
H19 H 0.3121 0.1304 0.7100
C18 C 0.4994(6) 0.0648(3) 0.7306(6)
C19 C 0.3487(9) 0.2017(4) -0.0344(7)
H20 H 0.3739 0.1647 -0.0299
H21 H 0.4194 0.2245 -0.0306
H22 H 0.3037 0.2076 -0.0972
C20 C 0.2705(7) 0.2143(3) 0.0496(5)
C21 C 0.2147(8) 0.2605(3) 0.0738(6)
H23 H 0.2163 0.2929 0.0389
C22 C 0.1545(7) 0.2502(3) 0.1610(6)
C23 C 0.0754(12) 0.2869(4) 0.2173(9)
H24 H 0.0467 0.2685 0.2751
H25 H 0.0070 0.2979 0.1744
H26 H 0.1215 0.3180 0.2390
C24 C 0.5103(8) 0.0638(4) 0.0881(6)
H27 H 0.4443 0.0695 0.0391
H28 H 0.5220 0.0259 0.0986
H29 H 0.5837 0.0793 0.0644
C25 C 0.4810(6) 0.0894(3) 0.1836(5)
C26 C 0.5456(6) 0.0921(3) 0.2737(5)
H30 H 0.6232 0.0780 0.2878
C27 C 0.4758(6) 0.1194(3) 0.3398(5)
C28 C 0.5016(7) 0.1348(4) 0.4459(5)
H31 H 0.4328 0.1538 0.4703
H32 H 0.5724 0.1576 0.4507
H33 H 0.5166 0.1031 0.4858
C29 C 0.2758(6) 0.1223(3) 0.1277(5)
H34 H 0.3032 0.1117 0.0615
C30 C 0.1677(6) 0.0877(3) 0.1479(5)
C31 C 0.1618(7) 0.0540(3) 0.2294(5)
H35 H 0.2268 0.0529 0.2771
C32 C 0.0632(8) 0.0225(3) 0.2415(6)
H36 H 0.0605 0.0005 0.2980
C33 C -0.0328(7) 0.0225(3) 0.1716(6)
H37 H -0.1006 0.0008 0.1808
C34 C -0.0284(6) 0.0548(3) 0.0876(5)
C35 C 0.0708(6) 0.0878(3) 0.0787(5)
H38 H 0.0724 0.1109 0.0238
C36 C -0.1290(6) 0.0542(3) 0.0083(6)
O3_2 O 0.7801(5) 0.0252(2) 1.0194(4)
O4_2 O 0.8812(5) 0.0823(2) 0.9320(4)
Ag2_2 Ag -0.29099(7) 0.05442(4) -0.15234(6)
O5 O 0.2746(5) 0.0730(2) 0.9065(4)
O6 O 1.0752(6) 0.1276(3) 0.8281(4)
loop_
_geom_bond_atom_site_label_1
_geom_bond_atom_site_label_2
_geom_bond_site_symmetry_1
_geom_bond_site_symmetry_2
Ag1 N1 1_555 1_555
N1 N2 1_555 1_555
N2 C2 1_555 1_555
N3 Ag1 1_555 1_555
N4 N3 1_555 1_555
N5 Ag1 1_555 1_555
N6 N5 1_555 1_555
N7 Ag1 1_555 1_555
N8 N7 1_555 1_555
O1 Ag2 1_555 1_555
O2 Ag2 1_555 1_555
O3 C36 1_555 1_555
O4 C36 1_555 1_555
Ag2 O3_2 1_555 1_555
C1 H1 1_555 1_555
H2 C1 1_555 1_555
H3 C1 1_555 1_555
C2 C1 1_555 1_555
C3 C2 1_555 1_555
H4 C3 1_555 1_555
C4 N1 1_555 1_555
C5 C4 1_555 1_555
H5 C5 1_555 1_555
H6 C5 1_555 1_555
H7 C5 1_555 1_555
C6 H8 1_555 1_555
H9 C6 1_555 1_555
H10 C6 1_555 1_555
C7 N4 1_555 1_555
C8 C7 1_555 1_555
H11 C8 1_555 1_555
C9 N3 1_555 1_555
C10 C9 1_555 1_555
H12 C10 1_555 1_555
H13 C10 1_555 1_555
H14 C10 1_555 1_555
C11 N2 1_555 1_555
H15 C11 1_555 1_555
C12 C11 1_555 1_555
C13 C12 1_555 1_555
H16 C13 1_555 1_555
C14 C13 1_555 1_555
H17 C14 1_555 1_555
C15 C14 1_555 1_555
H18 C15 1_555 1_555
C16 C15 1_555 1_555
C17 C12 1_555 1_555
H19 C17 1_555 1_555
C18 O1 1_555 1_555
C19 H20 1_555 1_555
H21 C19 1_555 1_555
H22 C19 1_555 1_555
C20 N6 1_555 1_555
C21 C20 1_555 1_555
H23 C21 1_555 1_555
C22 N5 1_555 1_555
C23 C22 1_555 1_555
H24 C23 1_555 1_555
H25 C23 1_555 1_555
H26 C23 1_555 1_555
C24 H27 1_555 1_555
H28 C24 1_555 1_555
H29 C24 1_555 1_555
C25 N8 1_555 1_555
C26 C25 1_555 1_555
H30 C26 1_555 1_555
C27 N7 1_555 1_555
C28 C27 1_555 1_555
H31 C28 1_555 1_555
H32 C28 1_555 1_555
H33 C28 1_555 1_555
C29 N6 1_555 1_555
H34 C29 1_555 1_555
C30 C29 1_555 1_555
C31 C30 1_555 1_555
H35 C31 1_555 1_555
C32 C31 1_555 1_555
H36 C32 1_555 1_555
C33 C32 1_555 1_555
H37 C33 1_555 1_555
C34 C33 1_555 1_555
C35 C30 1_555 1_555
H38 C35 1_555 1_555
C36 C34 1_555 1_555
O4_2 Ag2 1_555 1_555
Ag2_2 O3 1_555 1_555
N4 C11 1_555 1_555
N8 C29 1_555 1_555
O2 C18 1_555 1_555
O4 Ag2_2 1_555 1_555
C3 C4 1_555 1_555
C6 C7 1_555 1_555
C8 C9 1_555 1_555
C16 C17 1_555 1_555
C16 C18 1_555 1_555
C19 C20 1_555 1_555
C21 C22 1_555 1_555
C24 C25 1_555 1_555
C26 C27 1_555 1_555
C34 C35 1_555 1_555

#END
