
#######################################################################
#
#                 Cambridge Crystallographic Data Centre
#                                CCDC 
#
#######################################################################
#
# If this CIF has been generated from an entry in the Cambridge 
# Structural Database, then it will include bibliographic, chemical, 
# crystal, experimental, refinement or atomic coordinate data resulting 
# from the CCDC's data processing and validation procedures.
#
#######################################################################

data_QOWKOD
_symmetry_cell_setting           triclinic
_symmetry_space_group_name_H-M   'P -1'
_symmetry_Int_Tables_number      2
_space_group_name_Hall           '-P 1'
loop_
_symmetry_equiv_pos_site_id
_symmetry_equiv_pos_as_xyz
1 x,y,z
2 -x,-y,-z
_cell_length_a                   13.8390(18)
_cell_length_b                   15.0212(19)
_cell_length_c                   17.725(2)
_cell_angle_alpha                65.372(2)
_cell_angle_beta                 72.986(2)
_cell_angle_gamma                79.134(3)
_cell_volume                     3193.46
loop_
_atom_site_label
_atom_site_type_symbol
_atom_site_fract_x
_atom_site_fract_y
_atom_site_fract_z
Sm1 Sm 0.14527(3) 0.99342(4) 0.00636(3)
N1 N -0.0166(6) 0.7000(7) 0.2661(6)
N2 N 0.3367(6) 0.2881(7) 0.7863(6)
N3 N -0.0438(6) 1.0756(7) 0.2651(5)
N4 N 0.3556(8) 0.7085(9) 0.7619(7)
N5 N 0.2820(7) 0.8674(8) 0.2974(6)
N6 N 0.6619(9) 0.4375(9) 0.8008(7)
O1 O -0.0165(5) 0.8982(5) 0.0606(4)
O2 O 0.0982(5) 0.8354(5) 0.1340(4)
O3 O 0.2638(5) 0.0869(6) 0.8695(5)
H1 H 0.2674 0.0742 0.8279
O4 O 0.0244(5) 1.0289(6) 0.1257(4)
O5 O -0.1277(5) 1.0651(5) 0.0963(4)
O6 O 0.3322(11) 0.7518(11) 0.9089(8)
H2 H 0.3064 0.7090 0.9057
O7 O 0.2649(5) 0.9822(6) 0.0797(5)
O8 O 0.3944(6) 0.9095(8) 0.1358(6)
O9 O 0.5740(12) 0.4310(12) 0.9650(10)
H3 H 0.6147 0.3865 0.9855
O10 O 0.1660(6) 1.1591(6) -0.0016(6)
H4 H 0.1910 1.1744 -0.0549
H5 H 0.1135 1.1974 0.0052
O11 O 0.2808(6) 0.8723(7) -0.0143(6)
H6 H 0.2976 0.9101 -0.0667
H7 H 0.2720 0.8170 -0.0128
C1 C 0.0135(8) 0.8370(8) 0.1242(7)
C2 C -0.0614(8) 0.7658(9) 0.1924(7)
H14 H -0.1220 0.8022 0.2123
H15 H -0.0806 0.7264 0.1683
C3 C -0.0362(9) 0.7205(9) 0.3325(8)
H16 H -0.0843 0.7713 0.3378
C4 C 0.0166(9) 0.6645(9) 0.3991(8)
H17 H 0.0047 0.6807 0.4465
C5 C 0.0831(8) 0.5888(9) 0.3923(8)
C6 C 0.0942(9) 0.5669(10) 0.3241(8)
H18 H 0.1352 0.5117 0.3198
C7 C 0.0462(9) 0.6244(9) 0.2612(8)
H19 H 0.0583 0.6097 0.2130
C8 C 0.1454(9) 0.5191(9) 0.4526(8)
H20 H 0.1865 0.4686 0.4393
C9 C 0.1432(9) 0.5276(9) 0.5215(7)
H21 H 0.1014 0.5792 0.5325
C10 C 0.2001(8) 0.4639(8) 0.5856(7)
C11 C 0.1820(9) 0.4832(9) 0.6565(8)
H22 H 0.1362 0.5356 0.6614
C12 C 0.2284(8) 0.4285(9) 0.7212(8)
H23 H 0.2164 0.4468 0.7674
C13 C 0.2948(8) 0.3442(8) 0.7202(7)
C14 C 0.3112(8) 0.3264(9) 0.6457(7)
H24 H 0.3552 0.2731 0.6405
C15 C 0.2664(9) 0.3824(9) 0.5813(8)
H25 H 0.2796 0.3668 0.5335
C16 C 0.4019(8) 0.1995(8) 0.7925(7)
H26 H 0.4673 0.2090 0.7966
H27 H 0.4125 0.1889 0.7402
C17 C 0.3628(7) 0.1092(8) 0.8666(7)
H28 H 0.4109 0.0537 0.8646
H29 H 0.3591 0.1169 0.9191
C18 C 0.3317(10) 0.3197(10) 0.8541(8)
H30 H 0.3670 0.2709 0.8945
H31 H 0.2621 0.3287 0.8823
H32 H 0.3628 0.3807 0.8304
C19 C -0.0633(7) 1.0634(8) 0.1335(6)
C20 C -0.1055(8) 1.1097(9) 0.2005(7)
H33 H -0.1063 1.1807 0.1720
H34 H -0.1747 1.0928 0.2292
C21 C 0.0253(8) 1.1255(9) 0.2588(7)
H35 H 0.0364 1.1856 0.2131
C22 C 0.0832(8) 1.0942(9) 0.3163(7)
H36 H 0.1318 1.1339 0.3096
C23 C 0.0718(8) 1.0048(9) 0.3846(6)
C24 C -0.0066(8) 0.9526(9) 0.3895(7)
H37 H -0.0204 0.8920 0.4339
C25 C -0.0602(8) 0.9899(9) 0.3311(7)
H38 H -0.1119 0.9547 0.3363
C26 C 0.1330(8) 0.9712(8) 0.4457(6)
H39 H 0.1791 1.0128 0.4400
C27 C 0.1272(8) 0.8830(8) 0.5106(6)
H40 H 0.0788 0.8440 0.5161
C28 C 0.1885(8) 0.8415(9) 0.5737(7)
C29 C 0.2627(9) 0.8895(10) 0.5780(8)
H41 H 0.2761 0.9518 0.5365
C30 C 0.3160(9) 0.8513(10) 0.6385(8)
H42 H 0.3619 0.8878 0.6403
C31 C 0.3009(10) 0.7554(10) 0.6985(8)
C32 C 0.2279(9) 0.7079(10) 0.6961(8)
H43 H 0.2143 0.6455 0.7377
C33 C 0.1742(9) 0.7489(10) 0.6347(8)
H44 H 0.1267 0.7130 0.6343
C34 C 0.4293(11) 0.7590(11) 0.7655(9)
H45 H 0.4541 0.8079 0.7090
H46 H 0.4862 0.7128 0.7816
C35 C 0.3909(12) 0.8077(12) 0.8263(9)
H47 H 0.4485 0.8283 0.8341
H48 H 0.3498 0.8666 0.8006
C36 C 0.3461(12) 0.6122(13) 0.8157(10)
H49 H 0.3893 0.5936 0.8543
H50 H 0.3652 0.5718 0.7828
H51 H 0.2770 0.6035 0.8477
C37 C 0.3057(8) 0.9387(10) 0.1393(7)
C38 C 0.2340(8) 0.9209(10) 0.2236(7)
H52 H 0.1807 0.8832 0.2293
H53 H 0.2028 0.9835 0.2258
C39 C 0.3387(9) 0.9152(11) 0.3152(8)
H54 H 0.3445 0.9823 0.2845
C40 C 0.3879(9) 0.8652(10) 0.3786(8)
H55 H 0.4276 0.8998 0.3896
C41 C 0.3830(9) 0.7703(10) 0.4255(7)
C42 C 0.3205(9) 0.7249(11) 0.4086(8)
H56 H 0.3101 0.6592 0.4430
C43 C 0.2729(9) 0.7702(11) 0.3448(8)
H57 H 0.2342 0.7352 0.3332
C44 C 0.4429(9) 0.7277(10) 0.4928(7)
H58 H 0.4746 0.7707 0.5016
C45 C 0.4531(9) 0.6346(10) 0.5396(7)
H59 H 0.4208 0.5921 0.5306
C46 C 0.5103(9) 0.5918(10) 0.6042(7)
C47 C 0.5658(9) 0.6379(11) 0.6270(8)
H60 H 0.5707 0.7052 0.5976
C48 C 0.6146(9) 0.5892(10) 0.6913(8)
H61 H 0.6490 0.6246 0.7062
C49 C 0.6142(10) 0.4894(11) 0.7346(9)
C50 C 0.5624(10) 0.4399(11) 0.7100(8)
H62 H 0.5610 0.3720 0.7372
C51 C 0.5135(10) 0.4899(10) 0.6464(8)
H63 H 0.4807 0.4545 0.6302
C52 C 0.7002(11) 0.4904(12) 0.8383(9)
H64 H 0.7245 0.5513 0.7931
H65 H 0.7579 0.4512 0.8596
C53 C 0.6239(12) 0.5149(12) 0.9116(10)
H66 H 0.6592 0.5330 0.9425
H67 H 0.5761 0.5692 0.8891
C54 C 0.6655(14) 0.3330(13) 0.8408(11)
H68 H 0.7028 0.3108 0.8841
H69 H 0.6984 0.3054 0.7988
H70 H 0.5978 0.3125 0.8663
Sm1A Sm -0.14527(3) 1.00658(4) -0.00636(3)
Sm1_2 Sm 0.14527(3) -0.00658(4) 1.00636(3)
O1A O 0.0165(5) 1.1018(5) -0.0606(4)
O3_2 O 0.2638(5) 1.0869(6) -0.1305(5)
H1_2 H 0.2674 1.0742 -0.1721
O5A O 0.1277(5) 0.9349(5) -0.0963(4)
N7 N 0.2957(11) 0.0947(10) 0.6615(9)
O12 O 0.2692(9) 0.1297(10) 0.5918(9)
O13 O 0.2274(8) 0.0909(9) 0.7212(7)
O14 O 0.3787(9) 0.0675(9) 0.6660(9)
N8 N 0.1092(13) 0.2892(14) 0.3883(11)
O15 O 0.0216(10) 0.3277(11) 0.3976(10)
O16 O 0.1393(12) 0.2246(14) 0.4568(10)
O17 O 0.1709(11) 0.3022(12) 0.3167(9)
N9 N 0.0675(11) 0.6777(12) 0.0113(9)
O18 O -0.0237(9) 0.6732(12) 0.0330(9)
O19 O 0.1179(10) 0.6650(11) 0.0690(8)
O20 O 0.1250(12) 0.6738(15) -0.0594(9)
O21 O 0.4865(7) 0.8791(9) -0.0077(7)
H8 H 0.4696 0.8887 0.0386
H9 H 0.4326 0.8749 -0.0195
O22 O 0.4425(10) 0.0801(11) 0.4671(10)
H10 H 0.3938 0.0903 0.5057
H11 H 0.4766 0.0273 0.4904
O23 O 0.3274(12) 0.1426(12) 0.3482(11)
H12 H 0.3559 0.1307 0.3883
H13 H 0.2834 0.1908 0.3464
loop_
_geom_bond_atom_site_label_1
_geom_bond_atom_site_label_2
_geom_bond_site_symmetry_1
_geom_bond_site_symmetry_2
Sm1 O1 1_555 1_555
N1 C2 1_555 1_555
N2 C13 1_555 1_555
N3 C20 1_555 1_555
N4 C31 1_555 1_555
N5 C38 1_555 1_555
N6 C49 1_555 1_555
N7 O12 1_555 1_555
N8 O15 1_555 1_555
N9 O18 1_555 1_555
O1 C1 1_555 1_555
O2 Sm1 1_555 1_555
O3 H1 1_555 1_555
O4 Sm1 1_555 1_555
O5 C19 1_555 1_555
O6 H2 1_555 1_555
O7 Sm1 1_555 1_555
O8 C37 1_555 1_555
O9 H3 1_555 1_555
O10 Sm1 1_555 1_555
H4 O10 1_555 1_555
H5 O10 1_555 1_555
O11 Sm1 1_555 1_555
H6 O11 1_555 1_555
H7 O11 1_555 1_555
O13 N7 1_555 1_555
O14 N7 1_555 1_555
O16 N8 1_555 1_555
O17 N8 1_555 1_555
O19 N9 1_555 1_555
O20 N9 1_555 1_555
O21 H8 1_555 1_555
H9 O21 1_555 1_555
O22 H10 1_555 1_555
H11 O22 1_555 1_555
O23 H12 1_555 1_555
H13 O23 1_555 1_555
C1 O2 1_555 1_555
C2 C1 1_555 1_555
H14 C2 1_555 1_555
H15 C2 1_555 1_555
C3 N1 1_555 1_555
H16 C3 1_555 1_555
C4 C3 1_555 1_555
H17 C4 1_555 1_555
C5 C4 1_555 1_555
C6 C5 1_555 1_555
H18 C6 1_555 1_555
C7 N1 1_555 1_555
H19 C7 1_555 1_555
C8 C5 1_555 1_555
H20 C8 1_555 1_555
C9 C8 1_555 1_555
H21 C9 1_555 1_555
C10 C9 1_555 1_555
C11 C10 1_555 1_555
H22 C11 1_555 1_555
C12 C11 1_555 1_555
H23 C12 1_555 1_555
C13 C12 1_555 1_555
C14 C13 1_555 1_555
H24 C14 1_555 1_555
C15 C10 1_555 1_555
H25 C15 1_555 1_555
C16 N2 1_555 1_555
H26 C16 1_555 1_555
H27 C16 1_555 1_555
C17 O3 1_555 1_555
H28 C17 1_555 1_555
H29 C17 1_555 1_555
C18 N2 1_555 1_555
H30 C18 1_555 1_555
H31 C18 1_555 1_555
H32 C18 1_555 1_555
C19 O4 1_555 1_555
C20 C19 1_555 1_555
H33 C20 1_555 1_555
H34 C20 1_555 1_555
C21 N3 1_555 1_555
H35 C21 1_555 1_555
C22 C21 1_555 1_555
H36 C22 1_555 1_555
C23 C22 1_555 1_555
C24 C23 1_555 1_555
H37 C24 1_555 1_555
C25 N3 1_555 1_555
H38 C25 1_555 1_555
C26 C23 1_555 1_555
H39 C26 1_555 1_555
C27 C26 1_555 1_555
H40 C27 1_555 1_555
C28 C27 1_555 1_555
C29 C28 1_555 1_555
H41 C29 1_555 1_555
C30 C29 1_555 1_555
H42 C30 1_555 1_555
C31 C30 1_555 1_555
C32 C31 1_555 1_555
H43 C32 1_555 1_555
C33 C28 1_555 1_555
H44 C33 1_555 1_555
C34 N4 1_555 1_555
H45 C34 1_555 1_555
H46 C34 1_555 1_555
C35 O6 1_555 1_555
H47 C35 1_555 1_555
H48 C35 1_555 1_555
C36 N4 1_555 1_555
H49 C36 1_555 1_555
H50 C36 1_555 1_555
H51 C36 1_555 1_555
C37 O7 1_555 1_555
C38 C37 1_555 1_555
H52 C38 1_555 1_555
H53 C38 1_555 1_555
C39 N5 1_555 1_555
H54 C39 1_555 1_555
C40 C39 1_555 1_555
H55 C40 1_555 1_555
C41 C40 1_555 1_555
C42 C41 1_555 1_555
H56 C42 1_555 1_555
C43 N5 1_555 1_555
H57 C43 1_555 1_555
C44 C41 1_555 1_555
H58 C44 1_555 1_555
C45 C44 1_555 1_555
H59 C45 1_555 1_555
C46 C45 1_555 1_555
C47 C46 1_555 1_555
H60 C47 1_555 1_555
C48 C47 1_555 1_555
H61 C48 1_555 1_555
C49 C48 1_555 1_555
C50 C49 1_555 1_555
H62 C50 1_555 1_555
C51 C46 1_555 1_555
H63 C51 1_555 1_555
C52 N6 1_555 1_555
H64 C52 1_555 1_555
H65 C52 1_555 1_555
C53 O9 1_555 1_555
H66 C53 1_555 1_555
H67 C53 1_555 1_555
C54 N6 1_555 1_555
H68 C54 1_555 1_555
H69 C54 1_555 1_555
H70 C54 1_555 1_555
Sm1A O1 1_555 1_555
Sm1_2 O3 1_555 1_555
O1A Sm1 1_555 1_555
O3_2 Sm1 1_555 1_555
H1_2 O3_2 1_555 1_555
O5A Sm1 1_555 1_555
O5 Sm1A 1_555 1_555
C6 C7 1_555 1_555
C14 C15 1_555 1_555
C16 C17 1_555 1_555
C24 C25 1_555 1_555
C32 C33 1_555 1_555
C34 C35 1_555 1_555
C42 C43 1_555 1_555
C50 C51 1_555 1_555
C52 C53 1_555 1_555
Sm1A O1A 1_555 1_555

#END
