
#######################################################################
#
#                 Cambridge Crystallographic Data Centre
#                                CCDC 
#
#######################################################################
#
# If this CIF has been generated from an entry in the Cambridge 
# Structural Database, then it will include bibliographic, chemical, 
# crystal, experimental, refinement or atomic coordinate data resulting 
# from the CCDC's data processing and validation procedures.
#
#######################################################################

data_QOWKOE
_symmetry_cell_setting           triclinic
_symmetry_space_group_name_H-M   'P -1'
_symmetry_Int_Tables_number      2
_space_group_name_Hall           '-P 1'
loop_
_symmetry_equiv_pos_site_id
_symmetry_equiv_pos_as_xyz
1 x,y,z
2 -x,-y,-z
_cell_length_a                   10.7016(2)
_cell_length_b                   14.1793(3)
_cell_length_c                   24.4382(6)
_cell_angle_alpha                88.7940(10)
_cell_angle_beta                 87.2910(10)
_cell_angle_gamma                82.4590(10)
_cell_volume                     3671.69
loop_
_atom_site_label
_atom_site_type_symbol
_atom_site_fract_x
_atom_site_fract_y
_atom_site_fract_z
W1 W 0.49492(2) 0.54719(2) 0.252212(11)
C1 C 0.6855(6) 0.5010(5) 0.2791(2)
N1 N 0.7864(5) 0.4805(4) 0.2927(2)
C2 C 0.5853(6) 0.6750(5) 0.2564(3)
N2 N 0.6374(6) 0.7388(5) 0.2599(3)
C3 C 0.4822(5) 0.5086(5) 0.3378(3)
N3 N 0.4766(6) 0.4847(5) 0.3829(2)
C4 C 0.6223(6) 0.5340(5) 0.1800(3)
N4 N 0.6890(5) 0.5273(5) 0.1422(2)
C5 C 0.5198(6) 0.3974(5) 0.2347(3)
N5 N 0.5315(6) 0.3163(5) 0.2264(3)
C6 C 0.3907(7) 0.6039(7) 0.1825(3)
N6 N 0.3357(6) 0.6332(8) 0.1452(3)
C7 C 0.3580(6) 0.6615(6) 0.2851(3)
N7 N 0.2862(6) 0.7224(5) 0.3010(3)
C8 C 0.3138(6) 0.4951(5) 0.2638(3)
N8 N 0.2169(5) 0.4697(4) 0.2709(2)
Mn1 Mn 1.00321(8) 0.46851(8) 0.29025(4)
O1 O 1.0129(4) 0.3343(4) 0.28686(19)
O2 O 1.0279(4) 0.4654(4) 0.36578(19)
N9 N 0.9876(5) 0.4847(5) 0.2094(2)
N10 N 0.9896(5) 0.6095(5) 0.2868(2)
C9 C 0.9776(6) 0.2851(6) 0.2474(3)
C10 C 0.9710(7) 0.1883(6) 0.2576(3)
H1 H 0.9868 0.1631 0.2933
C11 C 0.9426(8) 0.1288(7) 0.2180(3)
H2 H 0.9404 0.0631 0.2258
C12 C 0.9167(8) 0.1672(7) 0.1652(3)
C13 C 0.9167(7) 0.2624(7) 0.1535(3)
H3 H 0.8954 0.2870 0.1182
C14 C 0.9482(6) 0.3232(6) 0.1938(3)
C15 C 0.9605(6) 0.4204(6) 0.1778(3)
H4 H 0.9474 0.4379 0.1406
C16 C 1.0161(7) 0.5771(6) 0.1894(3)
H5 H 1.1092 0.5781 0.1908
C17 C 0.9763(7) 0.6078(7) 0.1327(3)
H6 H 1.0208 0.5631 0.1054
H7 H 0.8845 0.6063 0.1303
C18 C 1.0066(8) 0.7069(7) 0.1199(4)
H8 H 1.0989 0.7074 0.1207
H9 H 0.9802 0.7261 0.0826
C19 C 0.9416(9) 0.7762(7) 0.1601(4)
H10 H 0.8492 0.7793 0.1570
H11 H 0.9650 0.8401 0.1510
C20 C 0.9752(8) 0.7497(6) 0.2195(3)
H12 H 1.0653 0.7549 0.2245
H13 H 0.9236 0.7936 0.2451
C21 C 0.9495(7) 0.6487(6) 0.2311(3)
H14 H 0.8566 0.6474 0.2295
C22 C 1.0153(6) 0.6622(6) 0.3250(3)
H15 H 1.0090 0.7286 0.3175
C23 C 1.0532(6) 0.6297(6) 0.3788(3)
C24 C 1.0801(7) 0.6989(6) 0.4159(3)
H16 H 1.0737 0.7640 0.4050
C25 C 1.1150(9) 0.6720(7) 0.4669(4)
C26 C 1.1307(9) 0.5766(7) 0.4842(4)
H17 H 1.1584 0.5592 0.5198
C27 C 1.1049(7) 0.5079(6) 0.4482(3)
H18 H 1.1165 0.4430 0.4595
C28 C 1.0621(6) 0.5319(6) 0.3953(3)
Br1 Br 0.88526(9) 0.08193(8) 0.10960(4)
Br2 Br 1.14324(12) 0.76552(8) 0.51829(4)
N8_2 N 1.2169(5) 0.4697(4) 0.2709(2)
Mn1_2 Mn 0.00321(8) 0.46851(8) 0.29025(4)
Fe1 Fe 0.5000 0.0000 0.0000
N11 N 0.6233(5) 0.1106(4) 0.0114(2)
N12 N 0.5921(5) 0.1660(4) 0.0563(2)
N13 N 0.3514(5) 0.1035(5) 0.0360(2)
N14 N 0.5395(5) -0.0346(4) 0.0855(2)
N15 N 0.5466(5) 0.0417(4) 0.1187(2)
N16 N 0.3795(5) 0.1495(4) 0.0824(2)
C29 C 0.7558(9) 0.1218(7) -0.0733(4)
H19 H 0.7345 0.0576 -0.0788
H20 H 0.8477 0.1198 -0.0735
H21 H 0.7223 0.1641 -0.1028
C30 C 0.6996(8) 0.1579(6) -0.0199(3)
C31 C 0.7153(9) 0.2431(6) 0.0047(4)
H22 H 0.7656 0.2892 -0.0095
C32 C 0.6445(8) 0.2481(6) 0.0530(3)
C33 C 0.6219(10) 0.3232(6) 0.0958(4)
H23 H 0.5336 0.3522 0.0961
H24 H 0.6770 0.3721 0.0876
H25 H 0.6404 0.2943 0.1318
C34 C 0.1617(7) 0.0943(7) -0.0158(3)
H26 H 0.1362 0.1456 -0.0421
H27 H 0.0867 0.0687 -0.0004
H28 H 0.2178 0.0436 -0.0345
C35 C 0.2297(6) 0.1326(7) 0.0294(3)
C36 C 0.1803(7) 0.1953(7) 0.0699(4)
H29 H 0.0960 0.2260 0.0737
C37 C 0.2778(7) 0.2044(6) 0.1037(3)
C38 C 0.2805(8) 0.2639(7) 0.1539(3)
H30 H 0.2852 0.2225 0.1866
H31 H 0.2035 0.3097 0.1568
H32 H 0.3543 0.2982 0.1511
C39 C 0.5820(8) -0.2088(6) 0.0947(3)
H33 H 0.5201 -0.2429 0.1150
H34 H 0.6669 -0.2427 0.0992
H35 H 0.5636 -0.2054 0.0558
C40 C 0.5751(7) -0.1113(6) 0.1162(3)
C41 C 0.6037(7) -0.0839(6) 0.1691(3)
H36 H 0.6307 -0.1252 0.1986
C42 C 0.5846(7) 0.0143(6) 0.1696(3)
C43 C 0.6022(8) 0.0809(7) 0.2138(3)
H37 H 0.6663 0.1210 0.2016
H38 H 0.6297 0.0445 0.2466
H39 H 0.5222 0.1210 0.2223
C44 C 0.5091(6) 0.1377(5) 0.0995(3)
H40 H 0.5129 0.1811 0.1310
N11A N 0.3767(5) -0.1106(4) -0.0114(2)
N12A N 0.4079(5) -0.1660(4) -0.0563(2)
N13A N 0.6486(5) -0.1035(5) -0.0360(2)
N14A N 0.4605(5) 0.0346(4) -0.0855(2)
N15A N 0.4534(5) -0.0417(4) -0.1187(2)
N16A N 0.6205(5) -0.1495(4) -0.0824(2)
C29A C 0.2442(9) -0.1218(7) 0.0733(4)
H19A H 0.2655 -0.0576 0.0788
H20A H 0.1523 -0.1198 0.0735
H21A H 0.2777 -0.1641 0.1028
C30A C 0.3004(8) -0.1579(6) 0.0199(3)
C31A C 0.2847(9) -0.2431(6) -0.0047(4)
H22A H 0.2344 -0.2892 0.0095
C32A C 0.3555(8) -0.2481(6) -0.0530(3)
C33A C 0.3781(10) -0.3232(6) -0.0958(4)
H23A H 0.4664 -0.3522 -0.0961
H24A H 0.3230 -0.3721 -0.0876
H25A H 0.3596 -0.2943 -0.1318
C34A C 0.8383(7) -0.0943(7) 0.0158(3)
H26A H 0.8638 -0.1456 0.0421
H27A H 0.9133 -0.0687 0.0004
H28A H 0.7822 -0.0436 0.0345
C35A C 0.7703(6) -0.1326(7) -0.0294(3)
C36A C 0.8197(7) -0.1953(7) -0.0699(4)
H29A H 0.9040 -0.2260 -0.0737
C37A C 0.7222(7) -0.2044(6) -0.1037(3)
C38A C 0.7195(8) -0.2639(7) -0.1539(3)
H30A H 0.7148 -0.2225 -0.1866
H31A H 0.7965 -0.3097 -0.1568
H32A H 0.6457 -0.2982 -0.1511
C39A C 0.4180(8) 0.2088(6) -0.0947(3)
H33A H 0.4799 0.2429 -0.1150
H34A H 0.3331 0.2427 -0.0992
H35A H 0.4364 0.2054 -0.0558
C40A C 0.4249(7) 0.1113(6) -0.1162(3)
C41A C 0.3963(7) 0.0839(6) -0.1691(3)
H36A H 0.3693 0.1252 -0.1986
C42A C 0.4154(7) -0.0143(6) -0.1696(3)
C43A C 0.3978(8) -0.0809(7) -0.2138(3)
H37A H 0.3337 -0.1210 -0.2016
H38A H 0.3703 -0.0445 -0.2466
H39A H 0.4778 -0.1210 -0.2223
C44A C 0.4909(6) -0.1377(5) -0.0995(3)
H40A H 0.4871 -0.1811 -0.1310
Fe2 Fe 0.5000 0.0000 0.5000
N17 N 0.6341(6) 0.0470(4) 0.4384(2)
N18 N 0.6092(5) 0.1402(4) 0.4199(2)
N19 N 0.3566(5) 0.0824(4) 0.4503(2)
N20 N 0.3854(5) 0.1678(4) 0.4299(2)
N21 N 0.5119(5) 0.1328(4) 0.5359(2)
C45 C 0.5196(9) 0.1661(6) 0.5859(3)
C46 C 0.1777(8) -0.0096(7) 0.4438(4)
H41 H 0.2267 -0.0526 0.4691
H42 H 0.1697 -0.0427 0.4096
H43 H 0.0936 0.0106 0.4605
C47 C 0.2426(7) 0.0744(6) 0.4321(3)
C48 C 0.1981(7) 0.1564(6) 0.4011(3)
H44 H 0.1190 0.1690 0.3845
C49 C 0.2913(7) 0.2141(6) 0.3997(3)
C50 C 0.3005(8) 0.3063(7) 0.3699(4)
H45 H 0.3228 0.3531 0.3955
H46 H 0.2191 0.3297 0.3545
H47 H 0.3657 0.2967 0.3403
C51 C 0.7941(8) -0.0893(6) 0.4164(4)
H48 H 0.7576 -0.1157 0.4499
H49 H 0.8855 -0.0918 0.4193
H50 H 0.7769 -0.1267 0.3849
C52 C 0.7368(7) 0.0110(6) 0.4087(3)
C53 C 0.7755(7) 0.0794(6) 0.3723(3)
H51 H 0.8459 0.0707 0.3470
C54 C 0.6946(7) 0.1609(6) 0.3796(3)
C55 C 0.6879(8) 0.2555(6) 0.3517(3)
H52 H 0.7586 0.2553 0.3246
H53 H 0.6927 0.3046 0.3788
H54 H 0.6081 0.2689 0.3332
N22 N 0.5104(6) 0.2109(4) 0.5014(2)
C56 C 0.5195(11) 0.2899(6) 0.5297(3)
C57 C 0.5210(17) 0.3831(8) 0.5026(4)
H55 H 0.5936 0.3805 0.4764
H56 H 0.5275 0.4313 0.5301
H57 H 0.4430 0.3999 0.4832
C58 C 0.5026(6) 0.2009(5) 0.4428(3)
H58 H 0.5033 0.2654 0.4256
C59 C 0.5236(9) 0.1028(6) 0.6361(3)
H59 H 0.6104 0.0903 0.6480
H60 H 0.4691 0.1343 0.6654
H61 H 0.4939 0.0426 0.6275
C60 C 0.5249(12) 0.2646(6) 0.5835(3)
H62 H 0.5311 0.3051 0.6134
N17A N 0.3659(6) -0.0470(4) 0.5616(2)
N18A N 0.3908(5) -0.1402(4) 0.5801(2)
N19A N 0.6434(5) -0.0824(4) 0.5497(2)
N20A N 0.6146(5) -0.1678(4) 0.5701(2)
N21A N 0.4881(5) -0.1328(4) 0.4641(2)
C45A C 0.4804(9) -0.1661(6) 0.4141(3)
C46A C 0.8223(8) 0.0096(7) 0.5562(4)
H41A H 0.7733 0.0526 0.5309
H42A H 0.8303 0.0427 0.5904
H43A H 0.9064 -0.0106 0.5395
C47A C 0.7574(7) -0.0744(6) 0.5679(3)
C48A C 0.8019(7) -0.1564(6) 0.5989(3)
H44A H 0.8810 -0.1690 0.6155
C49A C 0.7087(7) -0.2141(6) 0.6003(3)
C50A C 0.6995(8) -0.3063(7) 0.6301(4)
H45A H 0.6772 -0.3531 0.6045
H46A H 0.7809 -0.3297 0.6455
H47A H 0.6343 -0.2967 0.6597
C51A C 0.2059(8) 0.0893(6) 0.5836(4)
H48A H 0.2424 0.1157 0.5501
H49A H 0.1145 0.0918 0.5807
H50A H 0.2231 0.1267 0.6151
C52A C 0.2632(7) -0.0110(6) 0.5913(3)
C53A C 0.2245(7) -0.0794(6) 0.6277(3)
H51A H 0.1541 -0.0707 0.6530
C54A C 0.3054(7) -0.1609(6) 0.6204(3)
C55A C 0.3121(8) -0.2555(6) 0.6483(3)
H52A H 0.2414 -0.2553 0.6754
H53A H 0.3073 -0.3046 0.6212
H54A H 0.3919 -0.2689 0.6668
N22A N 0.4896(6) -0.2109(4) 0.4986(2)
C56A C 0.4805(11) -0.2899(6) 0.4703(3)
C57A C 0.4790(17) -0.3831(8) 0.4974(4)
H55A H 0.4064 -0.3805 0.5236
H56A H 0.4725 -0.4313 0.4699
H57A H 0.5570 -0.3999 0.5168
C58A C 0.4974(6) -0.2009(5) 0.5572(3)
H58A H 0.4967 -0.2654 0.5744
C59A C 0.4764(9) -0.1028(6) 0.3639(3)
H59A H 0.3896 -0.0903 0.3520
H60A H 0.5309 -0.1343 0.3346
H61A H 0.5061 -0.0426 0.3725
C60A C 0.4751(12) -0.2646(6) 0.4165(3)
H62A H 0.4689 -0.3051 0.3866
O3 O 0.1754(7) 0.9199(6) 0.2986(3)
C61 C 0.237(2) 0.926(2) 0.2022(7)
C62 C 0.2635(19) 0.9513(11) 0.2556(5)
C63 C 0.2853(12) 1.0493(11) 0.2656(6)
O4 O 0.798(2) 0.5117(17) 0.0221(9)
loop_
_geom_bond_atom_site_label_1
_geom_bond_atom_site_label_2
_geom_bond_site_symmetry_1
_geom_bond_site_symmetry_2
W1 C1 1_555 1_555
C1 N1 1_555 1_555
N1 Mn1 1_555 1_555
C2 W1 1_555 1_555
N2 C2 1_555 1_555
C3 W1 1_555 1_555
N3 C3 1_555 1_555
C4 W1 1_555 1_555
N4 C4 1_555 1_555
C5 W1 1_555 1_555
N5 C5 1_555 1_555
C6 W1 1_555 1_555
N6 C6 1_555 1_555
C7 W1 1_555 1_555
N7 C7 1_555 1_555
C8 W1 1_555 1_555
N8 C8 1_555 1_555
Mn1 O1 1_555 1_555
O1 C9 1_555 1_555
O2 Mn1 1_555 1_555
N9 Mn1 1_555 1_555
N10 Mn1 1_555 1_555
C9 C10 1_555 1_555
C10 H1 1_555 1_555
C11 C10 1_555 1_555
H2 C11 1_555 1_555
C12 C11 1_555 1_555
C13 C12 1_555 1_555
H3 C13 1_555 1_555
C14 C9 1_555 1_555
C15 N9 1_555 1_555
H4 C15 1_555 1_555
C16 N9 1_555 1_555
H5 C16 1_555 1_555
C17 C16 1_555 1_555
H6 C17 1_555 1_555
H7 C17 1_555 1_555
C18 C17 1_555 1_555
H8 C18 1_555 1_555
H9 C18 1_555 1_555
C19 C18 1_555 1_555
H10 C19 1_555 1_555
H11 C19 1_555 1_555
C20 C19 1_555 1_555
H12 C20 1_555 1_555
H13 C20 1_555 1_555
C21 N10 1_555 1_555
H14 C21 1_555 1_555
C22 N10 1_555 1_555
H15 C22 1_555 1_555
C23 C22 1_555 1_555
C24 C23 1_555 1_555
H16 C24 1_555 1_555
C25 C24 1_555 1_555
C26 C25 1_555 1_555
H17 C26 1_555 1_555
C27 C26 1_555 1_555
H18 C27 1_555 1_555
C28 O2 1_555 1_555
Br1 C12 1_555 1_555
Br2 C25 1_555 1_555
Fe1 N11 1_555 1_555
N11 N12 1_555 1_555
N12 C32 1_555 1_555
N13 Fe1 1_555 1_555
N14 Fe1 1_555 1_555
N15 N14 1_555 1_555
N16 N13 1_555 1_555
C29 H19 1_555 1_555
H20 C29 1_555 1_555
H21 C29 1_555 1_555
C30 N11 1_555 1_555
C31 C30 1_555 1_555
H22 C31 1_555 1_555
C32 C31 1_555 1_555
C33 C32 1_555 1_555
H23 C33 1_555 1_555
H24 C33 1_555 1_555
H25 C33 1_555 1_555
C34 H26 1_555 1_555
H27 C34 1_555 1_555
H28 C34 1_555 1_555
C35 N13 1_555 1_555
C36 C35 1_555 1_555
H29 C36 1_555 1_555
C37 N16 1_555 1_555
C38 C37 1_555 1_555
H30 C38 1_555 1_555
H31 C38 1_555 1_555
H32 C38 1_555 1_555
C39 H33 1_555 1_555
H34 C39 1_555 1_555
H35 C39 1_555 1_555
C40 N14 1_555 1_555
C41 C40 1_555 1_555
H36 C41 1_555 1_555
C42 N15 1_555 1_555
C43 C42 1_555 1_555
H37 C43 1_555 1_555
H38 C43 1_555 1_555
H39 C43 1_555 1_555
C44 N12 1_555 1_555
H40 C44 1_555 1_555
Fe2 N17 1_555 1_555
N17 N18 1_555 1_555
N18 C54 1_555 1_555
N19 Fe2 1_555 1_555
N20 N19 1_555 1_555
N21 Fe2 1_555 1_555
C45 N21 1_555 1_555
C46 H41 1_555 1_555
H42 C46 1_555 1_555
H43 C46 1_555 1_555
C47 N19 1_555 1_555
C48 C47 1_555 1_555
H44 C48 1_555 1_555
C49 N20 1_555 1_555
C50 C49 1_555 1_555
H45 C50 1_555 1_555
H46 C50 1_555 1_555
H47 C50 1_555 1_555
C51 H48 1_555 1_555
H49 C51 1_555 1_555
H50 C51 1_555 1_555
C52 N17 1_555 1_555
C53 C52 1_555 1_555
H51 C53 1_555 1_555
C54 C53 1_555 1_555
C55 C54 1_555 1_555
H52 C55 1_555 1_555
H53 C55 1_555 1_555
H54 C55 1_555 1_555
N22 N21 1_555 1_555
C56 N22 1_555 1_555
C57 C56 1_555 1_555
H55 C57 1_555 1_555
H56 C57 1_555 1_555
H57 C57 1_555 1_555
C58 N18 1_555 1_555
H58 C58 1_555 1_555
C59 C45 1_555 1_555
H59 C59 1_555 1_555
H60 C59 1_555 1_555
H61 C59 1_555 1_555
C60 C45 1_555 1_555
H62 C60 1_555 1_555
O3 C62 1_555 1_555
C61 C62 1_555 1_555
C62 C63 1_555 1_555
N8_2 Mn1 1_555 1_555
Mn1_2 N8 1_555 1_555
N11A Fe1 1_555 1_555
N12A N11A 1_555 1_555
N13A Fe1 1_555 1_555
N14A Fe1 1_555 1_555
N15A N14A 1_555 1_555
N16A N13A 1_555 1_555
C29A H19A 1_555 1_555
H20A C29A 1_555 1_555
H21A C29A 1_555 1_555
C30A N11A 1_555 1_555
C31A C30A 1_555 1_555
H22A C31A 1_555 1_555
C32A N12A 1_555 1_555
C33A C32A 1_555 1_555
H23A C33A 1_555 1_555
H24A C33A 1_555 1_555
H25A C33A 1_555 1_555
C34A H26A 1_555 1_555
H27A C34A 1_555 1_555
H28A C34A 1_555 1_555
C35A N13A 1_555 1_555
C36A C35A 1_555 1_555
H29A C36A 1_555 1_555
C37A N16A 1_555 1_555
C38A C37A 1_555 1_555
H30A C38A 1_555 1_555
H31A C38A 1_555 1_555
H32A C38A 1_555 1_555
C39A H33A 1_555 1_555
H34A C39A 1_555 1_555
H35A C39A 1_555 1_555
C40A N14A 1_555 1_555
C41A C40A 1_555 1_555
H36A C41A 1_555 1_555
C42A N15A 1_555 1_555
C43A C42A 1_555 1_555
H37A C43A 1_555 1_555
H38A C43A 1_555 1_555
H39A C43A 1_555 1_555
C44A N12A 1_555 1_555
H40A C44A 1_555 1_555
N17A Fe2 1_555 1_555
N18A N17A 1_555 1_555
N19A Fe2 1_555 1_555
N20A N19A 1_555 1_555
N21A Fe2 1_555 1_555
C45A N21A 1_555 1_555
C46A H41A 1_555 1_555
H42A C46A 1_555 1_555
H43A C46A 1_555 1_555
C47A N19A 1_555 1_555
C48A C47A 1_555 1_555
H44A C48A 1_555 1_555
C49A N20A 1_555 1_555
C50A C49A 1_555 1_555
H45A C50A 1_555 1_555
H46A C50A 1_555 1_555
H47A C50A 1_555 1_555
C51A H48A 1_555 1_555
H49A C51A 1_555 1_555
H50A C51A 1_555 1_555
C52A N17A 1_555 1_555
C53A C52A 1_555 1_555
H51A C53A 1_555 1_555
C54A N18A 1_555 1_555
C55A C54A 1_555 1_555
H52A C55A 1_555 1_555
H53A C55A 1_555 1_555
H54A C55A 1_555 1_555
N22A N21A 1_555 1_555
C56A N22A 1_555 1_555
C57A C56A 1_555 1_555
H55A C57A 1_555 1_555
H56A C57A 1_555 1_555
H57A C57A 1_555 1_555
C58A N18A 1_555 1_555
H58A C58A 1_555 1_555
C59A C45A 1_555 1_555
H59A C59A 1_555 1_555
H60A C59A 1_555 1_555
H61A C59A 1_555 1_555
C60A C45A 1_555 1_555
H62A C60A 1_555 1_555
C13 C14 1_555 1_555
C14 C15 1_555 1_555
C16 C21 1_555 1_555
C20 C21 1_555 1_555
C23 C28 1_555 1_555
C27 C28 1_555 1_555
N15 C44 1_555 1_555
N16 C44 1_555 1_555
C29 C30 1_555 1_555
C34 C35 1_555 1_555
C36 C37 1_555 1_555
C39 C40 1_555 1_555
C41 C42 1_555 1_555
N20 C58 1_555 1_555
C46 C47 1_555 1_555
C48 C49 1_555 1_555
C51 C52 1_555 1_555
N22 C58 1_555 1_555
C56 C60 1_555 1_555
N15A C44A 1_555 1_555
N16A C44A 1_555 1_555
C29A C30A 1_555 1_555
C31A C32A 1_555 1_555
C34A C35A 1_555 1_555
C36A C37A 1_555 1_555
C39A C40A 1_555 1_555
C41A C42A 1_555 1_555
N20A C58A 1_555 1_555
C46A C47A 1_555 1_555
C48A C49A 1_555 1_555
C51A C52A 1_555 1_555
C53A C54A 1_555 1_555
N22A C58A 1_555 1_555
C56A C60A 1_555 1_555

#END
