
#######################################################################
#
#                 Cambridge Crystallographic Data Centre
#                                CCDC 
#
#######################################################################
#
# If this CIF has been generated from an entry in the Cambridge 
# Structural Database, then it will include bibliographic, chemical, 
# crystal, experimental, refinement or atomic coordinate data resulting 
# from the CCDC's data processing and validation procedures.
#
#######################################################################

data_QOWKIY
_symmetry_cell_setting           triclinic
_symmetry_space_group_name_H-M   'P -1'
_symmetry_Int_Tables_number      2
_space_group_name_Hall           '-P 1'
loop_
_symmetry_equiv_pos_site_id
_symmetry_equiv_pos_as_xyz
1 x,y,z
2 -x,-y,-z
_cell_length_a                   10.8160(6)
_cell_length_b                   13.8608(8)
_cell_length_c                   24.5131(15)
_cell_angle_alpha                89.373(2)
_cell_angle_beta                 89.037(2)
_cell_angle_gamma                84.840(2)
_cell_volume                     3659.39
loop_
_atom_site_label
_atom_site_type_symbol
_atom_site_fract_x
_atom_site_fract_y
_atom_site_fract_z
W1 W 0.050081(9) 0.535231(7) 0.245561(5)
C1 C 0.2381(3) 0.4818(2) 0.26805(12)
N1 N 0.3385(2) 0.45634(19) 0.27927(11)
C2 C 0.1652(3) 0.5580(2) 0.17423(14)
N2 N 0.2261(3) 0.5680(3) 0.13592(13)
C3 C 0.1485(3) 0.6576(2) 0.26921(14)
N3 N 0.2021(3) 0.7223(2) 0.28001(14)
C4 C -0.0723(3) 0.6672(3) 0.24070(18)
N4 N -0.1369(3) 0.7363(3) 0.2375(2)
C5 C -0.0528(3) 0.5174(3) 0.17156(14)
N5 N -0.1057(3) 0.5068(3) 0.13213(14)
C6 C 0.0677(3) 0.3796(2) 0.23719(13)
N6 N 0.0744(3) 0.2969(2) 0.23312(13)
C7 C 0.0446(3) 0.5190(2) 0.33305(13)
N7 N 0.0472(3) 0.5059(2) 0.37955(12)
C8 C -0.1333(3) 0.4929(2) 0.26811(13)
N8 N -0.2310(2) 0.4710(2) 0.27788(12)
Mn1 Mn 0.55463(4) 0.45391(3) 0.284848(19)
O1 O 0.57015(19) 0.31744(15) 0.28567(9)
O2 O 0.55951(19) 0.46196(14) 0.36061(9)
N9 N 0.5523(2) 0.45773(18) 0.20377(11)
N10 N 0.5310(2) 0.59752(18) 0.27568(11)
C9 C 0.5280(3) 0.2619(2) 0.24809(14)
C10 C 0.5109(3) 0.1645(2) 0.26243(15)
H1 H 0.5268 0.1425 0.2987
C11 C 0.4718(3) 0.1014(2) 0.22492(16)
H2 H 0.4606 0.0365 0.2354
C12 C 0.4485(3) 0.1325(2) 0.17162(15)
C13 C 0.4627(3) 0.2266(2) 0.15557(14)
H3 H 0.4463 0.2469 0.1191
C14 C 0.5019(3) 0.2925(2) 0.19382(13)
C15 C 0.5220(3) 0.3888(2) 0.17341(14)
H4 H 0.5123 0.4015 0.1355
C16 C 0.5774(3) 0.5552(2) 0.18219(14)
H5 H 0.6671 0.5635 0.1881
C17 C 0.5515(3) 0.5728(2) 0.12197(14)
H6 H 0.4651 0.5597 0.1142
H7 H 0.6082 0.5284 0.0997
C18 C 0.5710(4) 0.6783(3) 0.10701(15)
H8 H 0.6598 0.6888 0.1108
H9 H 0.5483 0.6909 0.0685
C19 C 0.4934(4) 0.7484(3) 0.14318(16)
H10 H 0.4044 0.7409 0.1375
H11 H 0.5089 0.8155 0.1327
C20 C 0.5230(3) 0.7316(2) 0.20352(14)
H12 H 0.4693 0.7774 0.2262
H13 H 0.6106 0.7427 0.2101
C21 C 0.5003(3) 0.6270(2) 0.21888(13)
H14 H 0.4106 0.6188 0.2132
C22 C 0.5409(3) 0.6591(2) 0.31395(14)
H15 H 0.5321 0.7258 0.3042
C23 C 0.5642(3) 0.6352(2) 0.37027(13)
C24 C 0.5719(3) 0.7133(2) 0.40666(14)
H16 H 0.5661 0.7780 0.3932
C25 C 0.5878(3) 0.6949(2) 0.46114(14)
C26 C 0.6012(3) 0.6000(2) 0.48169(14)
H17 H 0.6142 0.5882 0.5195
C27 C 0.5954(3) 0.5237(2) 0.44648(14)
H18 H 0.6070 0.4593 0.4603
C28 C 0.5728(3) 0.5387(2) 0.39084(13)
Br1 Br 0.39955(4) 0.04252(3) 0.119844(17)
Br2 Br 0.59494(3) 0.79799(2) 0.511115(14)
N8_2 N 0.7690(2) 0.4710(2) 0.27788(12)
Mn1_2 Mn -0.44537(4) 0.45391(3) 0.284848(19)
Zn1 Zn 0.0000 0.0000 0.0000
N11 N 0.0280(3) -0.04370(18) 0.08450(12)
N12 N 0.0492(2) 0.02862(18) 0.12014(12)
N13 N 0.1412(3) 0.09651(19) 0.01686(12)
N14 N 0.1194(2) 0.15342(18) 0.06194(12)
N15 N -0.1284(2) 0.11405(19) 0.03466(12)
N16 N -0.0955(2) 0.15198(18) 0.08328(11)
C29 C 0.0367(4) -0.2229(2) 0.08829(18)
H19 H 0.0153 -0.2141 0.0498
H20 H -0.0293 -0.2541 0.1077
H21 H 0.1151 -0.2638 0.0912
C30 C 0.0503(3) -0.1261(2) 0.11310(16)
C31 C 0.0853(4) -0.1060(3) 0.16601(17)
H22 H 0.1057 -0.1521 0.1942
C32 C 0.0848(3) -0.0069(3) 0.16984(16)
C33 C 0.1112(5) 0.0557(3) 0.21624(18)
H23 H 0.1353 0.0150 0.2479
H24 H 0.0367 0.0983 0.2254
H25 H 0.1791 0.0950 0.2060
C34 C 0.2758(4) 0.0976(3) -0.06543(18)
H26 H 0.2414 0.0356 -0.0715
H27 H 0.3666 0.0872 -0.0641
H28 H 0.2518 0.1426 -0.0953
C35 C 0.2267(3) 0.1391(2) -0.01283(16)
C36 C 0.2572(3) 0.2231(2) 0.01338(16)
H29 H 0.3155 0.2660 0.0008
C37 C 0.1874(3) 0.2317(2) 0.06041(15)
C38 C 0.1791(3) 0.3068(2) 0.10388(16)
H30 H 0.0944 0.3386 0.1057
H31 H 0.2375 0.3552 0.0953
H32 H 0.1999 0.2760 0.1391
C39 C -0.3148(4) 0.1309(3) -0.02285(18)
H33 H -0.2634 0.0863 -0.0464
H34 H -0.3393 0.1907 -0.0431
H35 H -0.3893 0.1005 -0.0110
C40 C -0.2428(3) 0.1539(2) 0.02581(15)
C41 C -0.2819(3) 0.2173(2) 0.06780(16)
H36 H -0.3597 0.2548 0.0706
C42 C -0.1866(3) 0.2153(2) 0.10436(15)
C43 C -0.1761(3) 0.2658(3) 0.15711(18)
H37 H -0.1877 0.2205 0.1874
H38 H -0.2399 0.3206 0.1594
H39 H -0.0937 0.2896 0.1593
C44 C 0.0294(3) 0.1291(2) 0.10277(14)
H40 H 0.0399 0.1702 0.1354
N11A N -0.0280(3) 0.04370(18) -0.08450(12)
N12A N -0.0492(2) -0.02862(18) -0.12014(12)
N13A N -0.1412(3) -0.09651(19) -0.01686(12)
N14A N -0.1194(2) -0.15342(18) -0.06194(12)
N15A N 0.1284(2) -0.11405(19) -0.03466(12)
N16A N 0.0955(2) -0.15198(18) -0.08328(11)
C29A C -0.0367(4) 0.2229(2) -0.08829(18)
H19A H -0.0153 0.2141 -0.0498
H20A H 0.0293 0.2541 -0.1077
H21A H -0.1151 0.2638 -0.0912
C30A C -0.0503(3) 0.1261(2) -0.11310(16)
C31A C -0.0853(4) 0.1060(3) -0.16601(17)
H22A H -0.1057 0.1521 -0.1942
C32A C -0.0848(3) 0.0069(3) -0.16984(16)
C33A C -0.1112(5) -0.0557(3) -0.21624(18)
H23A H -0.1353 -0.0150 -0.2479
H24A H -0.0367 -0.0983 -0.2254
H25A H -0.1791 -0.0950 -0.2060
C34A C -0.2758(4) -0.0976(3) 0.06543(18)
H26A H -0.2414 -0.0356 0.0715
H27A H -0.3666 -0.0872 0.0641
H28A H -0.2518 -0.1426 0.0953
C35A C -0.2267(3) -0.1391(2) 0.01283(16)
C36A C -0.2572(3) -0.2231(2) -0.01338(16)
H29A H -0.3155 -0.2660 -0.0008
C37A C -0.1874(3) -0.2317(2) -0.06041(15)
C38A C -0.1791(3) -0.3068(2) -0.10388(16)
H30A H -0.0944 -0.3386 -0.1057
H31A H -0.2375 -0.3552 -0.0953
H32A H -0.1999 -0.2760 -0.1391
C39A C 0.3148(4) -0.1309(3) 0.02285(18)
H33A H 0.2634 -0.0863 0.0464
H34A H 0.3393 -0.1907 0.0431
H35A H 0.3893 -0.1005 0.0110
C40A C 0.2428(3) -0.1539(2) -0.02581(15)
C41A C 0.2819(3) -0.2173(2) -0.06780(16)
H36A H 0.3597 -0.2548 -0.0706
C42A C 0.1866(3) -0.2153(2) -0.10436(15)
C43A C 0.1761(3) -0.2658(3) -0.15711(18)
H37A H 0.1877 -0.2205 -0.1874
H38A H 0.2399 -0.3206 -0.1594
H39A H 0.0937 -0.2896 -0.1593
C44A C -0.0294(3) -0.1291(2) -0.10277(14)
H40A H -0.0399 -0.1702 -0.1354
Zn2 Zn 0.0000 0.0000 0.5000
N17 N 0.0308(3) 0.13095(18) 0.54148(12)
N18 N 0.0478(2) 0.21004(17) 0.50881(11)
N19 N -0.1283(2) 0.09253(18) 0.45053(13)
N20 N -0.0909(2) 0.18222(18) 0.43710(12)
N21 N 0.1406(2) 0.04487(17) 0.44268(12)
N22 N 0.1267(2) 0.13967(17) 0.42534(11)
C45 C 0.0417(4) 0.0942(3) 0.64067(17)
H41 H 0.0132 0.0325 0.6292
H42 H -0.0182 0.1253 0.6669
H43 H 0.1229 0.0822 0.6578
C46 C 0.0526(3) 0.1591(2) 0.59195(15)
C47 C 0.0837(3) 0.2559(2) 0.59154(15)
H44 H 0.1034 0.2927 0.6222
C48 C 0.0798(3) 0.2862(2) 0.53865(14)
C49 C 0.1004(3) 0.3810(2) 0.51223(15)
H45 H 0.1269 0.4254 0.5397
H46 H 0.0229 0.4088 0.4959
H47 H 0.1648 0.3712 0.4838
C50 C -0.3195(3) 0.0097(3) 0.4387(2)
H48 H -0.2654 -0.0469 0.4505
H49 H -0.3572 -0.0042 0.4039
H50 H -0.3850 0.0245 0.4662
C51 C -0.2797(3) 0.1842(3) 0.40717(17)
H51 H -0.3573 0.2034 0.3909
C52 C -0.2443(3) 0.0949(2) 0.43168(16)
C53 C -0.1805(3) 0.2389(2) 0.41108(16)
C54 C -0.1632(3) 0.3397(3) 0.39223(19)
H52 H -0.1462 0.3793 0.4236
H53 H -0.2389 0.3675 0.3744
H54 H -0.0932 0.3384 0.3663
C55 C 0.2820(4) -0.1001(3) 0.4206(2)
H55 H 0.2420 -0.1271 0.4528
H56 H 0.3722 -0.1059 0.4253
H57 H 0.2618 -0.1358 0.3881
C56 C 0.2363(3) 0.0043(2) 0.41391(17)
C57 C 0.2836(3) 0.0725(2) 0.37810(16)
H58 H 0.3514 0.0614 0.3532
C58 C 0.2122(3) 0.1585(2) 0.38640(14)
C59 C 0.2208(3) 0.2563(2) 0.36079(15)
H59 H 0.1425 0.2773 0.3429
H60 H 0.2887 0.2527 0.3337
H61 H 0.2369 0.3029 0.3890
C60 C 0.0328(3) 0.2055(2) 0.45054(13)
H62 H 0.0432 0.2716 0.4353
N17A N -0.0308(3) -0.13095(18) 0.45852(12)
N18A N -0.0478(2) -0.21004(17) 0.49119(11)
N19A N 0.1283(2) -0.09253(18) 0.54947(13)
N20A N 0.0909(2) -0.18222(18) 0.56290(12)
N21A N -0.1406(2) -0.04487(17) 0.55732(12)
N22A N -0.1267(2) -0.13967(17) 0.57466(11)
C45A C -0.0417(4) -0.0942(3) 0.35933(17)
H41A H -0.0132 -0.0325 0.3708
H42A H 0.0182 -0.1253 0.3331
H43A H -0.1229 -0.0822 0.3422
C46A C -0.0526(3) -0.1591(2) 0.40805(15)
C47A C -0.0837(3) -0.2559(2) 0.40846(15)
H44A H -0.1034 -0.2927 0.3778
C48A C -0.0798(3) -0.2862(2) 0.46135(14)
C49A C -0.1004(3) -0.3810(2) 0.48777(15)
H45A H -0.1269 -0.4254 0.4603
H46A H -0.0229 -0.4088 0.5041
H47A H -0.1648 -0.3712 0.5162
C50A C 0.3195(3) -0.0097(3) 0.5613(2)
H48A H 0.2654 0.0469 0.5495
H49A H 0.3572 0.0042 0.5961
H50A H 0.3850 -0.0245 0.5338
C51A C 0.2797(3) -0.1842(3) 0.59283(17)
H51A H 0.3573 -0.2034 0.6091
C52A C 0.2443(3) -0.0949(2) 0.56832(16)
C53A C 0.1805(3) -0.2389(2) 0.58892(16)
C54A C 0.1632(3) -0.3397(3) 0.60777(19)
H52A H 0.1462 -0.3793 0.5764
H53A H 0.2389 -0.3675 0.6256
H54A H 0.0932 -0.3384 0.6337
C55A C -0.2820(4) 0.1001(3) 0.5794(2)
H55A H -0.2420 0.1271 0.5472
H56A H -0.3722 0.1059 0.5747
H57A H -0.2618 0.1358 0.6119
C56A C -0.2363(3) -0.0043(2) 0.58609(17)
C57A C -0.2836(3) -0.0725(2) 0.62190(16)
H58A H -0.3514 -0.0614 0.6468
C58A C -0.2122(3) -0.1585(2) 0.61360(14)
C59A C -0.2208(3) -0.2563(2) 0.63921(15)
H59A H -0.1425 -0.2773 0.6571
H60A H -0.2887 -0.2527 0.6663
H61A H -0.2369 -0.3029 0.6110
C60A C -0.0328(3) -0.2055(2) 0.54946(13)
H62A H -0.0432 -0.2716 0.5647
O3 O 0.4826(3) 0.38149(19) 0.03336(11)
O4 O 0.5414(4) 0.9192(3) 0.32410(17)
O5 O 0.3106(3) 0.5502(3) 0.02609(12)
O6 O 0.3132(4) 0.8971(3) 0.2772(2)
O7 O 0.7181(4) 0.9172(3) 0.2422(3)
H63 H 0.7563 0.8640 0.2334
C61 C 0.7733(6) 0.9903(5) 0.2179(4)
H64 H 0.7853 1.0402 0.2449
H65 H 0.7207 1.0186 0.1886
H66 H 0.8540 0.9654 0.2026
O8 O 0.2011(3) 0.5740(2) 0.46381(12)
H67 H 0.1598 0.5453 0.4414
C62 C 0.2567(4) 0.6476(3) 0.4375(2)
H68 H 0.1926 0.6959 0.4238
H69 H 0.3076 0.6209 0.4068
H70 H 0.3094 0.6783 0.4631
O9 O 0.0959(6) 0.4955(5) -0.0183(3)
O10? O 0.0948(6) 0.6122(5) -0.0329(3)
O11? O 0.0252(10) 0.5846(7) -0.0054(4)
loop_
_geom_bond_atom_site_label_1
_geom_bond_atom_site_label_2
_geom_bond_site_symmetry_1
_geom_bond_site_symmetry_2
W1 C1 1_555 1_555
C1 N1 1_555 1_555
N1 Mn1 1_555 1_555
C2 W1 1_555 1_555
N2 C2 1_555 1_555
C3 W1 1_555 1_555
N3 C3 1_555 1_555
C4 W1 1_555 1_555
N4 C4 1_555 1_555
C5 W1 1_555 1_555
N5 C5 1_555 1_555
C6 W1 1_555 1_555
N6 C6 1_555 1_555
C7 W1 1_555 1_555
N7 C7 1_555 1_555
C8 W1 1_555 1_555
N8 C8 1_555 1_555
Mn1 O1 1_555 1_555
O1 C9 1_555 1_555
O2 Mn1 1_555 1_555
N9 Mn1 1_555 1_555
N10 Mn1 1_555 1_555
C9 C10 1_555 1_555
C10 H1 1_555 1_555
C11 C10 1_555 1_555
H2 C11 1_555 1_555
C12 C11 1_555 1_555
C13 C12 1_555 1_555
H3 C13 1_555 1_555
C14 C9 1_555 1_555
C15 N9 1_555 1_555
H4 C15 1_555 1_555
C16 N9 1_555 1_555
H5 C16 1_555 1_555
C17 C16 1_555 1_555
H6 C17 1_555 1_555
H7 C17 1_555 1_555
C18 C17 1_555 1_555
H8 C18 1_555 1_555
H9 C18 1_555 1_555
C19 C18 1_555 1_555
H10 C19 1_555 1_555
H11 C19 1_555 1_555
C20 C19 1_555 1_555
H12 C20 1_555 1_555
H13 C20 1_555 1_555
C21 N10 1_555 1_555
H14 C21 1_555 1_555
C22 N10 1_555 1_555
H15 C22 1_555 1_555
C23 C22 1_555 1_555
C24 C23 1_555 1_555
H16 C24 1_555 1_555
C25 C24 1_555 1_555
C26 C25 1_555 1_555
H17 C26 1_555 1_555
C27 C26 1_555 1_555
H18 C27 1_555 1_555
C28 O2 1_555 1_555
Br1 C12 1_555 1_555
Br2 C25 1_555 1_555
Zn1 N11 1_555 1_555
N11 N12 1_555 1_555
N12 C32 1_555 1_555
N13 Zn1 1_555 1_555
N14 N13 1_555 1_555
N15 Zn1 1_555 1_555
N16 N15 1_555 1_555
C29 H19 1_555 1_555
H20 C29 1_555 1_555
H21 C29 1_555 1_555
C30 N11 1_555 1_555
C31 C30 1_555 1_555
H22 C31 1_555 1_555
C32 C31 1_555 1_555
C33 C32 1_555 1_555
H23 C33 1_555 1_555
H24 C33 1_555 1_555
H25 C33 1_555 1_555
C34 H26 1_555 1_555
H27 C34 1_555 1_555
H28 C34 1_555 1_555
C35 N13 1_555 1_555
C36 C35 1_555 1_555
H29 C36 1_555 1_555
C37 N14 1_555 1_555
C38 C37 1_555 1_555
H30 C38 1_555 1_555
H31 C38 1_555 1_555
H32 C38 1_555 1_555
C39 H33 1_555 1_555
H34 C39 1_555 1_555
H35 C39 1_555 1_555
C40 N15 1_555 1_555
C41 C40 1_555 1_555
H36 C41 1_555 1_555
C42 N16 1_555 1_555
C43 C42 1_555 1_555
H37 C43 1_555 1_555
H38 C43 1_555 1_555
H39 C43 1_555 1_555
C44 N12 1_555 1_555
H40 C44 1_555 1_555
Zn2 N17 1_555 1_555
N17 N18 1_555 1_555
N18 C48 1_555 1_555
N19 Zn2 1_555 1_555
N20 N19 1_555 1_555
N21 Zn2 1_555 1_555
N22 N21 1_555 1_555
C45 H41 1_555 1_555
H42 C45 1_555 1_555
H43 C45 1_555 1_555
C46 N17 1_555 1_555
C47 C46 1_555 1_555
H44 C47 1_555 1_555
C48 C47 1_555 1_555
C49 C48 1_555 1_555
H45 C49 1_555 1_555
H46 C49 1_555 1_555
H47 C49 1_555 1_555
C50 H48 1_555 1_555
H49 C50 1_555 1_555
H50 C50 1_555 1_555
C51 H51 1_555 1_555
C52 N19 1_555 1_555
C53 N20 1_555 1_555
C54 C53 1_555 1_555
H52 C54 1_555 1_555
H53 C54 1_555 1_555
H54 C54 1_555 1_555
C55 H55 1_555 1_555
H56 C55 1_555 1_555
H57 C55 1_555 1_555
C56 N21 1_555 1_555
C57 C56 1_555 1_555
H58 C57 1_555 1_555
C58 N22 1_555 1_555
C59 C58 1_555 1_555
H59 C59 1_555 1_555
H60 C59 1_555 1_555
H61 C59 1_555 1_555
C60 N18 1_555 1_555
H62 C60 1_555 1_555
O7 H63 1_555 1_555
C61 O7 1_555 1_555
H64 C61 1_555 1_555
H65 C61 1_555 1_555
H66 C61 1_555 1_555
O8 H67 1_555 1_555
C62 O8 1_555 1_555
H68 C62 1_555 1_555
H69 C62 1_555 1_555
H70 C62 1_555 1_555
N8_2 Mn1 1_555 1_555
Mn1_2 N8 1_555 1_555
N11A Zn1 1_555 1_555
N12A N11A 1_555 1_555
N13A Zn1 1_555 1_555
N14A N13A 1_555 1_555
N15A Zn1 1_555 1_555
N16A N15A 1_555 1_555
C29A H19A 1_555 1_555
H20A C29A 1_555 1_555
H21A C29A 1_555 1_555
C30A N11A 1_555 1_555
C31A C30A 1_555 1_555
H22A C31A 1_555 1_555
C32A N12A 1_555 1_555
C33A C32A 1_555 1_555
H23A C33A 1_555 1_555
H24A C33A 1_555 1_555
H25A C33A 1_555 1_555
C34A H26A 1_555 1_555
H27A C34A 1_555 1_555
H28A C34A 1_555 1_555
C35A N13A 1_555 1_555
C36A C35A 1_555 1_555
H29A C36A 1_555 1_555
C37A N14A 1_555 1_555
C38A C37A 1_555 1_555
H30A C38A 1_555 1_555
H31A C38A 1_555 1_555
H32A C38A 1_555 1_555
C39A H33A 1_555 1_555
H34A C39A 1_555 1_555
H35A C39A 1_555 1_555
C40A N15A 1_555 1_555
C41A C40A 1_555 1_555
H36A C41A 1_555 1_555
C42A N16A 1_555 1_555
C43A C42A 1_555 1_555
H37A C43A 1_555 1_555
H38A C43A 1_555 1_555
H39A C43A 1_555 1_555
C44A N12A 1_555 1_555
H40A C44A 1_555 1_555
N17A Zn2 1_555 1_555
N18A N17A 1_555 1_555
N19A Zn2 1_555 1_555
N20A N19A 1_555 1_555
N21A Zn2 1_555 1_555
N22A N21A 1_555 1_555
C45A H41A 1_555 1_555
H42A C45A 1_555 1_555
H43A C45A 1_555 1_555
C46A N17A 1_555 1_555
C47A C46A 1_555 1_555
H44A C47A 1_555 1_555
C48A N18A 1_555 1_555
C49A C48A 1_555 1_555
H45A C49A 1_555 1_555
H46A C49A 1_555 1_555
H47A C49A 1_555 1_555
C50A H48A 1_555 1_555
H49A C50A 1_555 1_555
H50A C50A 1_555 1_555
C51A H51A 1_555 1_555
C52A N19A 1_555 1_555
C53A N20A 1_555 1_555
C54A C53A 1_555 1_555
H52A C54A 1_555 1_555
H53A C54A 1_555 1_555
H54A C54A 1_555 1_555
C55A H55A 1_555 1_555
H56A C55A 1_555 1_555
H57A C55A 1_555 1_555
C56A N21A 1_555 1_555
C57A C56A 1_555 1_555
H58A C57A 1_555 1_555
C58A N22A 1_555 1_555
C59A C58A 1_555 1_555
H59A C59A 1_555 1_555
H60A C59A 1_555 1_555
H61A C59A 1_555 1_555
C60A N18A 1_555 1_555
H62A C60A 1_555 1_555
C13 C14 1_555 1_555
C14 C15 1_555 1_555
C16 C21 1_555 1_555
C20 C21 1_555 1_555
C23 C28 1_555 1_555
C27 C28 1_555 1_555
N14 C44 1_555 1_555
N16 C44 1_555 1_555
C29 C30 1_555 1_555
C34 C35 1_555 1_555
C36 C37 1_555 1_555
C39 C40 1_555 1_555
C41 C42 1_555 1_555
N20 C60 1_555 1_555
N22 C60 1_555 1_555
C45 C46 1_555 1_555
C50 C52 1_555 1_555
C51 C52 1_555 1_555
C51 C53 1_555 1_555
C55 C56 1_555 1_555
C57 C58 1_555 1_555
N14A C44A 1_555 1_555
N16A C44A 1_555 1_555
C29A C30A 1_555 1_555
C31A C32A 1_555 1_555
C34A C35A 1_555 1_555
C36A C37A 1_555 1_555
C39A C40A 1_555 1_555
C41A C42A 1_555 1_555
N20A C60A 1_555 1_555
N22A C60A 1_555 1_555
C45A C46A 1_555 1_555
C47A C48A 1_555 1_555
C50A C52A 1_555 1_555
C51A C52A 1_555 1_555
C51A C53A 1_555 1_555
C55A C56A 1_555 1_555
C57A C58A 1_555 1_555

#END
