
#######################################################################
#
#                 Cambridge Crystallographic Data Centre
#                                CCDC 
#
#######################################################################
#
# If this CIF has been generated from an entry in the Cambridge 
# Structural Database, then it will include bibliographic, chemical, 
# crystal, experimental, refinement or atomic coordinate data resulting 
# from the CCDC's data processing and validation procedures.
#
#######################################################################

data_QOWLOE
_symmetry_cell_setting           monoclinic
_symmetry_space_group_name_H-M   'P 2/m'
_symmetry_Int_Tables_number      10
_space_group_name_Hall           '-P 2y'
loop_
_symmetry_equiv_pos_site_id
_symmetry_equiv_pos_as_xyz
1 x,y,z
2 -x,y,-z
3 -x,-y,-z
4 x,-y,z
_cell_length_a                   6.1644(3)
_cell_length_b                   7.3623(2)
_cell_length_c                   9.5371(5)
_cell_angle_alpha                90
_cell_angle_beta                 90.24(2)
_cell_angle_gamma                90
_cell_volume                     432.829
loop_
_atom_site_label
_atom_site_type_symbol
_atom_site_fract_x
_atom_site_fract_y
_atom_site_fract_z
Ca1 Ca 0.407(2) 0.5000 0.193(2)
Ca2 Ca 0.434(2) 0.0000 0.318(2)
C1 C 0.5000 0.1081(7) 0.0000
C2 C 0.5000 0.6081(7) 0.5000
C3 C -0.0929(6) 0.5000 0.0577(4)
C4 C -0.0798(5) 0.0000 0.4341(5)
O1 O 0.4404(3) 0.188(1) 0.1136(4)
O2 O 0.4636(1) 0.688(1) 0.3820(5)
O3 O -0.0319(4) 0.5000 0.1869(9)
O4 O -0.290(1) 0.5000 0.0133(2)
O5 O 0.0079(1) 0.0000 0.312(1)
O6 O -0.285(1) 0.0000 0.4596(4)
Ca1A Ca 0.593(2) -0.5000 -0.193(2)
Ca1A_2 Ca -0.407(2) 0.5000 -0.193(2)
Ca1_2 Ca -0.593(2) 0.5000 0.193(2)
Ca1_3 Ca 0.407(2) -0.5000 0.193(2)
Ca1A_3 Ca 0.593(2) 0.5000 -0.193(2)
Ca1A_4 Ca 0.593(2) 0.5000 0.807(2)
Ca2A Ca 0.566(2) 0.0000 -0.318(2)
Ca2_2 Ca 0.434(2) 1.0000 0.318(2)
Ca2A_2 Ca -0.434(2) 0.0000 0.682(2)
Ca2_3 Ca -0.566(2) 0.0000 0.318(2)
Ca2A_3 Ca 0.566(2) 0.0000 0.682(2)
Ca2A_4 Ca 0.566(2) 1.0000 0.682(2)
C1B C 0.5000 -0.1081(7) 0.0000
C2B C 0.5000 0.3919(7) 0.5000
C3A C 0.0929(6) 0.5000 -0.0577(4)
C4A C 0.0798(5) 0.0000 0.5659(5)
O1B O 0.5596(3) -0.188(1) -0.1136(4)
O1C O 0.4404(3) -0.188(1) 0.1136(4)
O1A O 0.5596(3) 0.188(1) -0.1136(4)
O1C_2 O 0.4404(3) 0.812(1) 0.1136(4)
O1A_2 O 0.5596(3) -0.812(1) -0.1136(4)
O2C O 0.4636(1) 0.312(1) 0.3820(5)
O2B O 0.5364(1) 0.312(1) 0.6180(5)
O2A O 0.5364(1) 0.688(1) 0.6180(5)
O2_2 O 0.4636(1) -0.312(1) 0.3820(5)
O2B_2 O 0.5364(1) -0.688(1) -0.3820(5)
O2A_2 O 0.5364(1) -0.312(1) -0.3820(5)
O2B_3 O 0.5364(1) 0.312(1) -0.3820(5)
O3A O 0.0319(4) 0.5000 -0.1869(9)
O3A_2 O 1.0319(4) -0.5000 -0.1869(9)
O4A O 0.290(1) 0.5000 -0.0133(2)
O4_2 O 0.710(1) 0.5000 0.0133(2)
O4_3 O 0.710(1) -0.5000 0.0133(2)
O4A_2 O 0.290(1) -0.5000 -0.0133(2)
O5A O -0.0079(1) 0.0000 0.688(1)
O5A_2 O 0.9921(1) 0.0000 -0.312(1)
O6A O 0.285(1) 0.0000 0.5404(4)
O6_2 O 0.715(1) 0.0000 0.4596(4)
O6_3 O 0.715(1) 0.0000 -0.5404(4)
O6A_2 O 0.285(1) 0.0000 -0.4596(4)
loop_
_geom_bond_atom_site_label_1
_geom_bond_atom_site_label_2
_geom_bond_site_symmetry_1
_geom_bond_site_symmetry_2
Ca1 O1 1_555 1_555
Ca2 O1 1_555 1_555
C1 O1 1_555 1_555
C2 O2 1_555 1_555
C3 O3 1_555 1_555
C4 O5 1_555 1_555
O2 Ca1 1_555 1_555
O3 Ca1 1_555 1_555
O4 C3 1_555 1_555
O5 Ca2 1_555 1_555
O6 C4 1_555 1_555
Ca1A O1B 1_555 1_555
Ca1A_2 O4 1_555 1_555
Ca1_2 O4 1_555 1_555
Ca1_3 O1C 1_555 1_555
Ca1A_3 O1A 1_555 1_555
Ca1A_4 O2B 1_555 1_555
Ca2A O1B 1_555 1_555
Ca2_2 O2 1_555 1_555
Ca2A_2 O6 1_555 1_555
Ca2_3 O6 1_555 1_555
Ca2A_3 O2B 1_555 1_555
Ca2A_4 O2A 1_555 1_555
C1B C1 1_555 1_555
C2B C2 1_555 1_555
C3A C3 1_555 1_555
C4A C4 1_555 1_555
O1B C1B 1_555 1_555
O1C Ca2 1_555 1_555
O1A C1 1_555 1_555
O1C_2 Ca1 1_555 1_555
O1A_2 Ca1A 1_555 1_555
O2C Ca1 1_555 1_555
O2B C2B 1_555 1_555
O2A C2 1_555 1_555
O2_2 Ca2 1_555 1_555
O2B_2 Ca1A 1_555 1_555
O2A_2 Ca1A 1_555 1_555
O2B_3 Ca1A_3 1_555 1_555
O3A Ca1A_2 1_555 1_555
O3A_2 Ca1A 1_555 1_555
O4A Ca1 1_555 1_555
O4_2 Ca1 1_555 1_555
O4_3 Ca1A 1_555 1_555
O4A_2 Ca1A 1_555 1_555
O5A Ca2A_2 1_555 1_555
O5A_2 Ca2A 1_555 1_555
O6A Ca2 1_555 1_555
O6_2 Ca2 1_555 1_555
O6_3 Ca2A 1_555 1_555
O6A_2 Ca2A 1_555 1_555
Ca2 O2C 1_555 1_555
Ca1_3 O2_2 1_555 1_555
Ca1_3 O4_3 1_555 1_555
Ca1_3 O4A_2 1_555 1_555
Ca1A_3 O4A 1_555 1_555
Ca1A_3 O4_2 1_555 1_555
Ca1A_4 O2A 1_555 1_555
Ca2A O1A 1_555 1_555
Ca2A O2A_2 1_555 1_555
Ca2A O2B_3 1_555 1_555
Ca2_2 O1C_2 1_555 1_555
Ca2A_3 O6A 1_555 1_555
Ca2A_3 O6_2 1_555 1_555
C1B O1C 1_555 1_555
C2B O2C 1_555 1_555
C3A O3A 1_555 1_555
C3A O4A 1_555 1_555
C4A O5A 1_555 1_555
C4A O6A 1_555 1_555

#END
