
#######################################################################
#
#                 Cambridge Crystallographic Data Centre
#                                CCDC 
#
#######################################################################
#
# If this CIF has been generated from an entry in the Cambridge 
# Structural Database, then it will include bibliographic, chemical, 
# crystal, experimental, refinement or atomic coordinate data resulting 
# from the CCDC's data processing and validation procedures.
#
#######################################################################

data_QOWQOJ
_symmetry_cell_setting           monoclinic
_symmetry_space_group_name_H-M   'P 21/c'
_symmetry_Int_Tables_number      14
_space_group_name_Hall           '-P 2ybc'
loop_
_symmetry_equiv_pos_site_id
_symmetry_equiv_pos_as_xyz
1 x,y,z
2 -x,1/2+y,1/2-z
3 -x,-y,-z
4 x,1/2-y,1/2+z
_cell_length_a                   13.9805(15)
_cell_length_b                   7.8875(7)
_cell_length_c                   19.746(2)
_cell_angle_alpha                90
_cell_angle_beta                 95.303(6)
_cell_angle_gamma                90
_cell_volume                     2168.1
loop_
_atom_site_label
_atom_site_type_symbol
_atom_site_fract_x
_atom_site_fract_y
_atom_site_fract_z
Pb1 Pb 0.39039(3) 0.27808(5) 0.16096(2)
Pb2 Pb 0.47516(3) -0.23329(5) 0.055400(19)
I1 I 0.20065(7) 0.40476(11) 0.20001(4)
I2 I 0.29921(5) -0.07201(9) 0.11488(4)
I3 I 0.53859(6) 0.59502(9) 0.19761(3)
I4 I 0.34035(5) 0.43122(8) 0.00945(3)
I5 I 0.59362(5) 0.09518(8) 0.09620(3)
Pb1A Pb 0.60961(3) -0.22192(5) 0.33904(2)
Pb1A_2 Pb 0.60961(3) 0.77808(5) 0.33904(2)
Pb1_2 Pb 0.39039(3) -0.72192(5) 0.16096(2)
Pb1B Pb 0.60961(3) -0.27808(5) -0.16096(2)
Pb2_2 Pb 0.47516(3) 0.76671(5) 0.055400(19)
Pb2B Pb 0.52484(3) 0.23329(5) -0.055400(19)
Pb2A Pb 0.52484(3) 0.26671(5) 0.444600(19)
Pb2B_2 Pb 0.52484(3) -0.76671(5) -0.055400(19)
Pb2A_2 Pb 0.52484(3) -0.73329(5) 0.444600(19)
I1A I 0.79935(7) -0.09524(11) 0.29999(4)
I2A I 0.70079(5) -0.57201(9) 0.38512(4)
I2_2 I 0.29921(5) 0.92799(9) 0.11488(4)
I3A I 0.46141(6) 0.09502(9) 0.30239(3)
I3_2 I 0.53859(6) -0.40498(9) 0.19761(3)
I4_2 I 0.34035(5) -0.56878(8) 0.00945(3)
I4B I 0.65965(5) -0.43122(8) -0.00945(3)
I4A I 0.65965(5) -0.06878(8) 0.49055(3)
I4B_2 I 0.65965(5) 0.56878(8) -0.00945(3)
I5B I 0.40638(5) -0.09518(8) -0.09620(3)
I5A I 0.40638(5) -0.40482(8) 0.40380(3)
I5B_2 I 0.40638(5) 0.90482(8) -0.09620(3)
I5_2 I 0.59362(5) 1.09518(8) 0.09620(3)
Ni1 Ni 0.0000 0.5000 0.0000
C1 C 0.0648(8) 0.1701(12) -0.0374(5)
C2 C 0.1358(8) 0.0650(14) -0.0573(6)
H1 H 0.1939 0.0536 -0.0308
C3 C 0.1185(9) -0.0227(15) -0.1175(7)
H2 H 0.1652 -0.0966 -0.1306
C4 C 0.0345(10) -0.0047(16) -0.1588(7)
H3 H 0.0247 -0.0642 -0.1995
C5 C -0.0358(8) 0.1049(14) -0.1382(6)
H4 H -0.0934 0.1196 -0.1652
C6 C -0.0189(8) 0.1906(12) -0.0780(5)
C7 C -0.1284(9) 0.4666(14) 0.1263(6)
C8 C -0.1919(11) 0.473(2) 0.1796(7)
H5 H -0.2552 0.4390 0.1619
H6 H -0.1940 0.5869 0.1968
H7 H -0.1687 0.3981 0.2158
N1 N 0.0782(6) 0.2752(10) 0.0228(4)
H8 H 0.1409 0.2986 0.0329
H9 H 0.0561 0.2220 0.0585
N2 N -0.0847(6) 0.3233(10) -0.0571(4)
H10 H -0.1287 0.2780 -0.0319
H11 H -0.1155 0.3732 -0.0939
N3 N -0.0799(7) 0.4620(11) 0.0842(5)
C1B C -0.0648(8) 0.8299(12) 0.0374(5)
C2B C -0.1358(8) 0.9350(14) 0.0573(6)
H1B H -0.1939 0.9464 0.0308
C3B C -0.1185(9) 1.0227(15) 0.1175(7)
H2B H -0.1652 1.0966 0.1306
C4B C -0.0345(10) 1.0047(16) 0.1588(7)
H3B H -0.0247 1.0642 0.1995
C5B C 0.0358(8) 0.8951(14) 0.1382(6)
H4B H 0.0934 0.8804 0.1652
C6B C 0.0189(8) 0.8094(12) 0.0780(5)
C7B C 0.1284(9) 0.5334(14) -0.1263(6)
C8B C 0.1919(11) 0.527(2) -0.1796(7)
H5B H 0.2552 0.5610 -0.1619
H6B H 0.1940 0.4131 -0.1968
H7B H 0.1687 0.6019 -0.2158
N1B N -0.0782(6) 0.7248(10) -0.0228(4)
H8B H -0.1409 0.7014 -0.0329
H9B H -0.0561 0.7780 -0.0585
N2B N 0.0847(6) 0.6767(10) 0.0571(4)
H10B H 0.1287 0.7220 0.0319
H11B H 0.1155 0.6268 0.0939
N3B N 0.0799(7) 0.5380(11) -0.0842(5)
loop_
_geom_bond_atom_site_label_1
_geom_bond_atom_site_label_2
_geom_bond_site_symmetry_1
_geom_bond_site_symmetry_2
Pb1 I1 1_555 1_555
Pb2 I2 1_555 1_555
I2 Pb1 1_555 1_555
I3 Pb1 1_555 1_555
I4 Pb1 1_555 1_555
I5 Pb1 1_555 1_555
Ni1 N1 1_555 1_555
C1 C2 1_555 1_555
C2 H1 1_555 1_555
C3 C2 1_555 1_555
H2 C3 1_555 1_555
C4 C3 1_555 1_555
H3 C4 1_555 1_555
C5 C4 1_555 1_555
H4 C5 1_555 1_555
C6 C1 1_555 1_555
C7 C8 1_555 1_555
C8 H5 1_555 1_555
H6 C8 1_555 1_555
H7 C8 1_555 1_555
N1 C1 1_555 1_555
H8 N1 1_555 1_555
H9 N1 1_555 1_555
N2 Ni1 1_555 1_555
H10 N2 1_555 1_555
H11 N2 1_555 1_555
N3 Ni1 1_555 1_555
Pb1A I1A 1_555 1_555
Pb1A_2 I3 1_555 1_555
Pb1_2 I3_2 1_555 1_555
Pb1B I4B 1_555 1_555
Pb2_2 I3 1_555 1_555
Pb2B I4 1_555 1_555
Pb2A I3A 1_555 1_555
Pb2B_2 I4_2 1_555 1_555
Pb2A_2 I2A 1_555 1_555
I2A Pb1A 1_555 1_555
I2_2 Pb2_2 1_555 1_555
I3A Pb1 1_555 1_555
I3_2 Pb2 1_555 1_555
I4_2 Pb2 1_555 1_555
I4B Pb2 1_555 1_555
I4A Pb1A 1_555 1_555
I4B_2 Pb2_2 1_555 1_555
I5B Pb2 1_555 1_555
I5A Pb1A 1_555 1_555
I5B_2 Pb2_2 1_555 1_555
I5_2 Pb2_2 1_555 1_555
C1B C2B 1_555 1_555
C2B H1B 1_555 1_555
C3B C2B 1_555 1_555
H2B C3B 1_555 1_555
C4B C3B 1_555 1_555
H3B C4B 1_555 1_555
C5B C4B 1_555 1_555
H4B C5B 1_555 1_555
C6B C1B 1_555 1_555
C7B C8B 1_555 1_555
C8B H5B 1_555 1_555
H6B C8B 1_555 1_555
H7B C8B 1_555 1_555
N1B Ni1 1_555 1_555
H8B N1B 1_555 1_555
H9B N1B 1_555 1_555
N2B Ni1 1_555 1_555
H10B N2B 1_555 1_555
H11B N2B 1_555 1_555
N3B Ni1 1_555 1_555
Pb2 I5 1_555 1_555
I4 Pb2_2 1_555 1_555
I5 Pb2B 1_555 1_555
C5 C6 1_555 1_555
C6 N2 1_555 1_555
C7 N3 1_555 1_555
Pb1A I3A 1_555 1_555
Pb1A I3_2 1_555 1_555
Pb1_2 I4_2 1_555 1_555
Pb1B I5B 1_555 1_555
Pb2B I4B_2 1_555 1_555
Pb2B I5B 1_555 1_555
Pb2A I4A 1_555 1_555
Pb2B_2 I4B 1_555 1_555
Pb2A_2 I5A 1_555 1_555
C1B N1B 1_555 1_555
C5B C6B 1_555 1_555
C6B N2B 1_555 1_555
C7B N3B 1_555 1_555

#END
