
#######################################################################
#
#                 Cambridge Crystallographic Data Centre
#                                CCDC 
#
#######################################################################
#
# If this CIF has been generated from an entry in the Cambridge 
# Structural Database, then it will include bibliographic, chemical, 
# crystal, experimental, refinement or atomic coordinate data resulting 
# from the CCDC's data processing and validation procedures.
#
#######################################################################

data_QOWREA
_symmetry_cell_setting           monoclinic
_symmetry_space_group_name_H-M   'P 21/c'
_symmetry_Int_Tables_number      14
_space_group_name_Hall           '-P 2ybc'
loop_
_symmetry_equiv_pos_site_id
_symmetry_equiv_pos_as_xyz
1 x,y,z
2 -x,1/2+y,1/2-z
3 -x,-y,-z
4 x,1/2-y,1/2+z
_cell_length_a                   11.986(4)
_cell_length_b                   16.002(5)
_cell_length_c                   25.926(8)
_cell_angle_alpha                90
_cell_angle_beta                 93.814(5)
_cell_angle_gamma                90
_cell_volume                     4961.59
loop_
_atom_site_label
_atom_site_type_symbol
_atom_site_fract_x
_atom_site_fract_y
_atom_site_fract_z
Cd1 Cd 0.90871(3) 0.14644(2) 0.163946(14)
O1 O 0.9602(5) 0.2311(3) 0.10279(19)
O3 O 0.7914(5) 0.2773(3) 0.08022(18)
O5 O 1.8924(4) -0.1020(3) -0.1705(2)
O7 O 2.0051(3) -0.0490(2) -0.22317(16)
O9 O 0.9682(4) 0.2523(3) 0.22823(17)
O11 O 0.7984(4) 0.1997(3) 0.23185(17)
O13 O 0.7595(5) 0.0587(3) 0.1490(2)
O15 O 0.8796(5) 0.0316(3) 0.0936(2)
O17 O 0.4476(6) -0.2916(3) 0.0672(3)
O19 O 0.5611(6) -0.3133(4) 0.0047(2)
N1 N 1.1564(4) 0.4141(2) -0.11971(14)
N2 N 1.4732(4) 0.1710(3) -0.28124(15)
N3 N 0.7529(4) 0.4117(3) 0.47006(17)
C1 C 0.8914(5) 0.2736(3) 0.07479(18)
C2 C 0.9414(5) 0.3219(3) 0.03210(16)
C3 C 1.0553(5) 0.3278(4) 0.0295(2)
H1 H 1.1030 0.2996 0.0545
C4 C 0.8731(5) 0.3619(3) -0.0062(2)
H2 H 0.7941 0.3588 -0.0053
C5 C 1.1017(5) 0.3737(4) -0.0085(2)
H3 H 1.1808 0.3780 -0.0086
C6 C 0.9194(5) 0.4054(3) -0.04497(19)
H4 H 0.8719 0.4305 -0.0714
C7 C 1.0354(5) 0.4135(3) -0.04631(17)
C8 C 1.0873(6) 0.4661(3) -0.0864(2)
H5 H 1.0276 0.4942 -0.1082
H6 H 1.1347 0.5097 -0.0690
C9 C 1.2677(5) 0.4225(3) -0.11780(17)
H7 H 1.3027 0.4616 -0.0944
C10 C 1.1058(5) 0.3597(3) -0.1539(2)
H8 H 1.0267 0.3544 -0.1559
C11 C 1.3322(4) 0.3766(3) -0.14852(18)
H9 H 1.4110 0.3840 -0.1463
C12 C 1.1674(4) 0.3125(3) -0.18559(19)
H10 H 1.1306 0.2750 -0.2095
C13 C 1.2830(4) 0.3189(2) -0.18319(15)
C14 C 1.3513(4) 0.2685(3) -0.21763(15)
C15 C 1.4584(4) 0.2880(3) -0.2255(2)
H11 H 1.4923 0.3353 -0.2088
C16 C 1.3075(5) 0.1978(4) -0.2421(3)
H12 H 1.2323 0.1821 -0.2376
C17 C 1.5206(5) 0.2386(4) -0.2585(3)
H13 H 1.5955 0.2531 -0.2646
C18 C 1.3715(6) 0.1499(4) -0.2730(3)
H14 H 1.3406 0.1005 -0.2884
C19 C 1.5400(5) 0.1198(5) -0.3156(2)
H15 H 1.4913 0.0768 -0.3329
H16 H 1.5689 0.1560 -0.3427
C20 C 1.6375(4) 0.0772(3) -0.28564(18)
C21 C 1.7455(4) 0.0857(3) -0.30100(17)
H17 H 1.7595 0.1211 -0.3293
C22 C 1.6200(4) 0.0266(3) -0.24480(19)
H18 H 1.5463 0.0212 -0.2338
C23 C 1.8329(4) 0.0430(3) -0.27548(18)
H19 H 1.9066 0.0497 -0.2862
C24 C 1.7058(4) -0.0173(3) -0.21879(19)
H20 H 1.6911 -0.0523 -0.1905
C25 C 1.8142(4) -0.0095(3) -0.23459(17)
C26 C 1.9100(5) -0.0560(3) -0.2075(2)
C27 C 0.8790(5) 0.2414(3) 0.2509(2)
C28 C 0.8722(4) 0.2792(3) 0.30367(19)
C29 C 0.7899(5) 0.2533(3) 0.3351(2)
H21 H 0.7361 0.2133 0.3226
C30 C 0.9479(4) 0.3382(3) 0.3223(2)
H22 H 1.0039 0.3570 0.3007
C31 C 0.7856(5) 0.2852(3) 0.3844(2)
H23 H 0.7294 0.2668 0.4060
C32 C 0.9445(5) 0.3705(3) 0.3709(3)
H24 H 0.9981 0.4110 0.3829
C33 C 0.8643(5) 0.3447(3) 0.4026(2)
C34 C 0.8658(6) 0.3783(4) 0.4571(2)
H25 H 0.9219 0.4236 0.4613
H26 H 0.8886 0.3332 0.4817
C35 C 0.7132(6) 0.4789(4) 0.4442(3)
H27 H 0.7557 0.5021 0.4181
C36 C 0.6957(6) 0.3768(4) 0.5064(2)
H28 H 0.7239 0.3281 0.5237
C37 C 0.6161(6) 0.5143(3) 0.4538(2)
H29 H 0.5890 0.5610 0.4341
C38 C 0.5964(6) 0.4104(3) 0.5192(2)
H30 H 0.5562 0.3856 0.5456
C39 C 0.5540(5) 0.4816(3) 0.49327(18)
C40 C 0.7942(6) 0.0139(4) 0.1141(3)
C41 C 0.7269(4) -0.0621(3) 0.0978(2)
C42 C 0.6276(5) -0.0831(4) 0.1190(2)
H31 H 0.6016 -0.0493 0.1459
C43 C 0.7635(5) -0.1139(4) 0.0585(2)
H32 H 0.8321 -0.1019 0.0437
C44 C 0.5650(6) -0.1519(3) 0.1022(2)
H33 H 0.4977 -0.1650 0.1179
C45 C 0.7013(5) -0.1817(4) 0.0415(2)
H34 H 0.7271 -0.2159 0.0148
C46 C 0.5999(5) -0.2012(3) 0.0630(2)
C47 C 0.5311(6) -0.2742(4) 0.0425(3)
Cd1B Cd 2.09129(3) -0.14644(2) -0.163946(14)
Cd1B_2 Cd 0.09129(3) 0.85356(2) 0.836054(14)
O1B O 2.0398(5) -0.2311(3) -0.10279(19)
O3B O 2.2086(5) -0.2773(3) -0.08022(18)
O5B O 1.1076(4) 0.1020(3) 0.1705(2)
O7B O 0.9949(3) 0.0490(2) 0.22317(16)
O9B O 0.0318(4) 0.7477(3) 0.77177(17)
O9B_2 O 2.0318(4) -0.2523(3) -0.22823(17)
O11B O 0.2016(4) 0.8003(3) 0.76815(17)
O11B_2 O 2.2016(4) -0.1997(3) -0.23185(17)
O13B O 2.2405(5) -0.0587(3) -0.1490(2)
O15B O 2.1204(5) -0.0316(3) -0.0936(2)
O17B O 2.5524(6) 0.2916(3) -0.0672(3)
O19B O 2.4389(6) 0.3133(4) -0.0047(2)
N1B N 1.8436(4) -0.4141(2) 0.11971(14)
N2B N 1.5268(4) -0.1710(3) 0.28124(15)
N3B N 0.2471(4) 0.5883(3) 0.52994(17)
C1B C 2.1086(5) -0.2736(3) -0.07479(18)
C2B C 2.0586(5) -0.3219(3) -0.03210(16)
C3B C 1.9447(5) -0.3278(4) -0.0295(2)
H1B H 1.8970 -0.2996 -0.0545
C4B C 2.1269(5) -0.3619(3) 0.0062(2)
H2B H 2.2059 -0.3588 0.0053
C5B C 1.8983(5) -0.3737(4) 0.0085(2)
H3B H 1.8192 -0.3780 0.0086
C6B C 2.0806(5) -0.4054(3) 0.04497(19)
H4B H 2.1281 -0.4305 0.0714
C7B C 1.9646(5) -0.4135(3) 0.04631(17)
C8B C 1.9127(6) -0.4661(3) 0.0864(2)
H5B H 1.9724 -0.4942 0.1082
H6B H 1.8653 -0.5097 0.0690
C9B C 1.7323(5) -0.4225(3) 0.11780(17)
H7B H 1.6973 -0.4616 0.0944
C10B C 1.8942(5) -0.3597(3) 0.1539(2)
H8B H 1.9733 -0.3544 0.1559
C11B C 1.6678(4) -0.3766(3) 0.14852(18)
H9B H 1.5890 -0.3840 0.1463
C12B C 1.8326(4) -0.3125(3) 0.18559(19)
H10B H 1.8694 -0.2750 0.2095
C13B C 1.7170(4) -0.3189(2) 0.18319(15)
C14B C 1.6487(4) -0.2685(3) 0.21763(15)
C15B C 1.5416(4) -0.2880(3) 0.2255(2)
H11B H 1.5077 -0.3353 0.2088
C16B C 1.6925(5) -0.1978(4) 0.2421(3)
H12B H 1.7677 -0.1821 0.2376
C17B C 1.4794(5) -0.2386(4) 0.2585(3)
H13B H 1.4045 -0.2531 0.2646
C18B C 1.6285(6) -0.1499(4) 0.2730(3)
H14B H 1.6594 -0.1005 0.2884
C19B C 1.4600(5) -0.1198(5) 0.3156(2)
H15B H 1.5087 -0.0768 0.3329
H16B H 1.4311 -0.1560 0.3427
C20B C 1.3625(4) -0.0772(3) 0.28564(18)
C21B C 1.2545(4) -0.0857(3) 0.30100(17)
H17B H 1.2405 -0.1211 0.3293
C22B C 1.3800(4) -0.0266(3) 0.24480(19)
H18B H 1.4537 -0.0212 0.2338
C23B C 1.1671(4) -0.0430(3) 0.27548(18)
H19B H 1.0934 -0.0497 0.2862
C24B C 1.2942(4) 0.0173(3) 0.21879(19)
H20B H 1.3089 0.0523 0.1905
C25B C 1.1858(4) 0.0095(3) 0.23459(17)
C26B C 1.0900(5) 0.0560(3) 0.2075(2)
C27B C 0.1210(5) 0.7586(3) 0.7491(2)
C28B C 0.1278(4) 0.7208(3) 0.69633(19)
C29B C 0.2101(5) 0.7467(3) 0.6649(2)
H21B H 0.2639 0.7867 0.6774
C30B C 0.0521(4) 0.6618(3) 0.6777(2)
H22B H -0.0039 0.6430 0.6993
C31B C 0.2144(5) 0.7148(3) 0.6156(2)
H23B H 0.2706 0.7332 0.5940
C32B C 0.0555(5) 0.6295(3) 0.6291(3)
H24B H 0.0019 0.5890 0.6171
C33B C 0.1357(5) 0.6553(3) 0.5974(2)
C34B C 0.1342(6) 0.6217(4) 0.5429(2)
H25B H 0.0781 0.5764 0.5387
H26B H 0.1114 0.6668 0.5183
C35B C 0.2868(6) 0.5211(4) 0.5558(3)
H27B H 0.2443 0.4979 0.5819
C36B C 0.3043(6) 0.6232(4) 0.4936(2)
H28B H 0.2761 0.6719 0.4763
C37B C 0.3839(6) 0.4857(3) 0.5462(2)
H29B H 0.4110 0.4390 0.5659
C38B C 0.4036(6) 0.5896(3) 0.4808(2)
H30B H 0.4438 0.6144 0.4544
C39B C 0.4460(5) 0.5184(3) 0.50673(18)
C40B C 2.2058(6) -0.0139(4) -0.1141(3)
C41B C 2.2731(4) 0.0621(3) -0.0978(2)
C42B C 2.3724(5) 0.0831(4) -0.1190(2)
H31B H 2.3984 0.0493 -0.1459
C43B C 2.2365(5) 0.1139(4) -0.0585(2)
H32B H 2.1679 0.1019 -0.0437
C44B C 2.4350(6) 0.1519(3) -0.1022(2)
H33B H 2.5023 0.1650 -0.1179
C45B C 2.2987(5) 0.1817(4) -0.0415(2)
H34B H 2.2729 0.2159 -0.0148
C46B C 2.4001(5) 0.2012(3) -0.0630(2)
C47B C 2.4689(6) 0.2742(4) -0.0425(3)
O2 O 1.0697(5) 0.0856(4) 0.0427(2)
O4 O 0.6205(6) 0.4005(4) 0.0581(3)
O6 O 1.0948(7) 0.3664(4) 0.1675(4)
O8 O 0.8825(7) 0.0298(5) 0.3120(3)
O10 O 0.6170(10) 0.2037(7) 0.1289(4)
O12 O 0.5805(9) -0.2330(7) -0.0896(4)
O14 O 0.6490(8) -0.4714(6) -0.0070(4)
O16 O 1.3506(13) -0.0582(9) -0.2922(6)
O18 O 0.3981(10) -0.4323(7) 0.1159(7)
O20 O 0.7666(11) -0.2158(13) -0.1274(8)
O21 O 0.2885(14) -0.597(2) 0.1082(6)
O22 O 0.510(2) 0.1264(15) 0.1499(11)
loop_
_geom_bond_atom_site_label_1
_geom_bond_atom_site_label_2
_geom_bond_site_symmetry_1
_geom_bond_site_symmetry_2
Cd1 O1 1_555 1_555
O1 C1 1_555 1_555
O3 C1 1_555 1_555
O5 C26 1_555 1_555
O7 C26 1_555 1_555
O9 Cd1 1_555 1_555
O11 Cd1 1_555 1_555
O13 Cd1 1_555 1_555
O15 Cd1 1_555 1_555
O17 C47 1_555 1_555
O19 C47 1_555 1_555
N1 C8 1_555 1_555
N2 C17 1_555 1_555
N3 C34 1_555 1_555
C1 C2 1_555 1_555
C2 C3 1_555 1_555
C3 H1 1_555 1_555
C4 C2 1_555 1_555
H2 C4 1_555 1_555
C5 C3 1_555 1_555
H3 C5 1_555 1_555
C6 C4 1_555 1_555
H4 C6 1_555 1_555
C7 C5 1_555 1_555
C8 C7 1_555 1_555
H5 C8 1_555 1_555
H6 C8 1_555 1_555
C9 N1 1_555 1_555
H7 C9 1_555 1_555
C10 N1 1_555 1_555
H8 C10 1_555 1_555
C11 C9 1_555 1_555
H9 C11 1_555 1_555
C12 C10 1_555 1_555
H10 C12 1_555 1_555
C13 C11 1_555 1_555
C14 C13 1_555 1_555
C15 C14 1_555 1_555
H11 C15 1_555 1_555
C16 C14 1_555 1_555
H12 C16 1_555 1_555
C17 C15 1_555 1_555
H13 C17 1_555 1_555
C18 N2 1_555 1_555
H14 C18 1_555 1_555
C19 N2 1_555 1_555
H15 C19 1_555 1_555
H16 C19 1_555 1_555
C20 C19 1_555 1_555
C21 C20 1_555 1_555
H17 C21 1_555 1_555
C22 C20 1_555 1_555
H18 C22 1_555 1_555
C23 C21 1_555 1_555
H19 C23 1_555 1_555
C24 C22 1_555 1_555
H20 C24 1_555 1_555
C25 C23 1_555 1_555
C26 C25 1_555 1_555
C27 O9 1_555 1_555
C28 C27 1_555 1_555
C29 C28 1_555 1_555
H21 C29 1_555 1_555
C30 C28 1_555 1_555
H22 C30 1_555 1_555
C31 C29 1_555 1_555
H23 C31 1_555 1_555
C32 C30 1_555 1_555
H24 C32 1_555 1_555
C33 C31 1_555 1_555
C34 C33 1_555 1_555
H25 C34 1_555 1_555
H26 C34 1_555 1_555
C35 N3 1_555 1_555
H27 C35 1_555 1_555
C36 N3 1_555 1_555
H28 C36 1_555 1_555
C37 C35 1_555 1_555
H29 C37 1_555 1_555
C38 C36 1_555 1_555
H30 C38 1_555 1_555
C39 C37 1_555 1_555
C40 O13 1_555 1_555
C41 C40 1_555 1_555
C42 C41 1_555 1_555
H31 C42 1_555 1_555
C43 C41 1_555 1_555
H32 C43 1_555 1_555
C44 C42 1_555 1_555
H33 C44 1_555 1_555
C45 C43 1_555 1_555
H34 C45 1_555 1_555
C46 C44 1_555 1_555
C47 C46 1_555 1_555
Cd1B O5 1_555 1_555
Cd1B_2 O9B 1_555 1_555
O1B Cd1B 1_555 1_555
O3B C1B 1_555 1_555
O5B Cd1 1_555 1_555
O7B Cd1 1_555 1_555
O9B C27B 1_555 1_555
O9B_2 Cd1B 1_555 1_555
O11B Cd1B_2 1_555 1_555
O11B_2 Cd1B 1_555 1_555
O13B Cd1B 1_555 1_555
O15B Cd1B 1_555 1_555
O17B C47B 1_555 1_555
O19B C47B 1_555 1_555
N1B C8B 1_555 1_555
N2B C17B 1_555 1_555
N3B C34B 1_555 1_555
C1B O1B 1_555 1_555
C2B C1B 1_555 1_555
C3B C2B 1_555 1_555
H1B C3B 1_555 1_555
C4B C2B 1_555 1_555
H2B C4B 1_555 1_555
C5B C3B 1_555 1_555
H3B C5B 1_555 1_555
C6B C4B 1_555 1_555
H4B C6B 1_555 1_555
C7B C5B 1_555 1_555
C8B C7B 1_555 1_555
H5B C8B 1_555 1_555
H6B C8B 1_555 1_555
C9B N1B 1_555 1_555
H7B C9B 1_555 1_555
C10B N1B 1_555 1_555
H8B C10B 1_555 1_555
C11B C9B 1_555 1_555
H9B C11B 1_555 1_555
C12B C10B 1_555 1_555
H10B C12B 1_555 1_555
C13B C11B 1_555 1_555
C14B C13B 1_555 1_555
C15B C14B 1_555 1_555
H11B C15B 1_555 1_555
C16B C14B 1_555 1_555
H12B C16B 1_555 1_555
C17B C15B 1_555 1_555
H13B C17B 1_555 1_555
C18B N2B 1_555 1_555
H14B C18B 1_555 1_555
C19B N2B 1_555 1_555
H15B C19B 1_555 1_555
H16B C19B 1_555 1_555
C20B C19B 1_555 1_555
C21B C20B 1_555 1_555
H17B C21B 1_555 1_555
C22B C20B 1_555 1_555
H18B C22B 1_555 1_555
C23B C21B 1_555 1_555
H19B C23B 1_555 1_555
C24B C22B 1_555 1_555
H20B C24B 1_555 1_555
C25B C23B 1_555 1_555
C26B O5B 1_555 1_555
C27B O11B 1_555 1_555
C28B C27B 1_555 1_555
C29B C28B 1_555 1_555
H21B C29B 1_555 1_555
C30B C28B 1_555 1_555
H22B C30B 1_555 1_555
C31B C29B 1_555 1_555
H23B C31B 1_555 1_555
C32B C30B 1_555 1_555
H24B C32B 1_555 1_555
C33B C31B 1_555 1_555
C34B C33B 1_555 1_555
H25B C34B 1_555 1_555
H26B C34B 1_555 1_555
C35B N3B 1_555 1_555
H27B C35B 1_555 1_555
C36B N3B 1_555 1_555
H28B C36B 1_555 1_555
C37B C35B 1_555 1_555
H29B C37B 1_555 1_555
C38B C36B 1_555 1_555
H30B C38B 1_555 1_555
C39B C39 1_555 1_555
C40B O13B 1_555 1_555
C41B C40B 1_555 1_555
C42B C41B 1_555 1_555
H31B C42B 1_555 1_555
C43B C41B 1_555 1_555
H32B C43B 1_555 1_555
C44B C42B 1_555 1_555
H33B C44B 1_555 1_555
C45B C43B 1_555 1_555
H34B C45B 1_555 1_555
C46B C44B 1_555 1_555
C47B C46B 1_555 1_555
O7 Cd1B 1_555 1_555
O11 C27 1_555 1_555
O15 C40 1_555 1_555
C6 C7 1_555 1_555
C12 C13 1_555 1_555
C16 C18 1_555 1_555
C24 C25 1_555 1_555
C32 C33 1_555 1_555
C38 C39 1_555 1_555
C45 C46 1_555 1_555
O7B C26B 1_555 1_555
O15B C40B 1_555 1_555
C6B C7B 1_555 1_555
C12B C13B 1_555 1_555
C16B C18B 1_555 1_555
C24B C25B 1_555 1_555
C25B C26B 1_555 1_555
C32B C33B 1_555 1_555
C37B C39B 1_555 1_555
C38B C39B 1_555 1_555
C45B C46B 1_555 1_555

#END
