
#######################################################################
#
#                 Cambridge Crystallographic Data Centre
#                                CCDC 
#
#######################################################################
#
# If this CIF has been generated from an entry in the Cambridge 
# Structural Database, then it will include bibliographic, chemical, 
# crystal, experimental, refinement or atomic coordinate data resulting 
# from the CCDC's data processing and validation procedures.
#
#######################################################################

data_QOWRIE
_symmetry_cell_setting           monoclinic
_symmetry_space_group_name_H-M   'I 2/a'
_symmetry_Int_Tables_number      15
_space_group_name_Hall           '-I 2ya'
loop_
_symmetry_equiv_pos_site_id
_symmetry_equiv_pos_as_xyz
1 x,y,z
2 1/2-x,y,-z
3 1/2+x,1/2+y,1/2+z
4 -x,1/2+y,1/2-z
5 -x,-y,-z
6 1/2+x,-y,z
7 1/2-x,1/2-y,1/2-z
8 x,1/2-y,1/2+z
_cell_length_a                   10.0792(6)
_cell_length_b                   11.9676(5)
_cell_length_c                   24.9148(12)
_cell_angle_alpha                90
_cell_angle_beta                 89.467(4)
_cell_angle_gamma                90
_cell_volume                     3005.19
loop_
_atom_site_label
_atom_site_type_symbol
_atom_site_fract_x
_atom_site_fract_y
_atom_site_fract_z
Cu1 Cu 0.7500 0.11485(3) 0.50000
O1 O 0.6191(3) 0.45358(19) 0.29388(9)
N1 N 0.4749(3) 0.1088(2) 0.36441(11)
N2 N 0.5638(2) 0.10237(16) 0.54524(8)
N3 N 0.3552(2) 0.01059(17) 0.54185(8)
C1 C 0.605(2) 0.5025(11) 0.4144(12)
N4 N 0.625(5) 0.591(2) 0.4273(12)
N5 N 0.5842(4) 0.2337(3) 0.20694(12)
N6 N 0.6780(3) 0.23585(18) 0.44993(9)
C2 C 0.3153(4) 0.0681(3) 0.58453(12)
C3 C 0.6497(3) 0.3052(2) 0.42086(11)
C4 C 0.5209(4) 0.1592(2) 0.58860(11)
C5 C 0.6194(4) 0.3920(2) 0.38541(14)
C6 C 0.6035(4) 0.3717(2) 0.33029(12)
C7 C 0.5169(3) 0.1811(2) 0.33968(11)
C8 C 0.5790(3) 0.2510(3) 0.25193(13)
C9 C 0.5692(3) 0.2704(2) 0.30829(11)
C10 C 0.7226(7) 0.5360(4) 0.2995(2)
C11 C 0.7728(7) 0.5641(6) 0.2457(3)
C12 C 0.4775(3) 0.03094(18) 0.52391(9)
C13 C 0.3961(4) 0.1439(3) 0.60904(13)
H1 H 0.782(5) 0.511(4) 0.324(2)
H2 H 0.229(4) 0.052(3) 0.5949(13)
H3 H 0.681(6) 0.600(5) 0.319(3)
H4 H 0.369(4) 0.180(3) 0.6373(16)
H5 H 0.786(8) 0.636(6) 0.263(3)
H6 H 0.799(8) 0.466(8) 0.235(3)
H7 H 0.706(6) 0.585(4) 0.222(2)
H8 H 0.580(3) 0.206(2) 0.6028(11)
Cu1D Cu 0.2500 -0.11485(3) 0.50000
O1A O 0.8809(3) 0.45358(19) 0.70612(9)
N1A N 1.0251(3) 0.1088(2) 0.63559(11)
N2D N 0.4362(2) -0.10237(16) 0.45476(8)
N2A N 0.9362(2) 0.10237(16) 0.45476(8)
N3D N 0.6448(2) -0.01059(17) 0.45815(8)
N3E N 0.8552(2) -0.01059(17) 0.54185(8)
C1A C 0.895(2) 0.5025(11) 0.5856(12)
N4A N 0.875(5) 0.591(2) 0.5727(12)
N5A N 0.9158(4) 0.2337(3) 0.79306(12)
N6A N 0.8220(3) 0.23585(18) 0.55007(9)
C2D C 0.6847(4) -0.0681(3) 0.41547(12)
C3A C 0.8503(3) 0.3052(2) 0.57914(11)
C4D C 0.4791(4) -0.1592(2) 0.41140(11)
C5A C 0.8806(4) 0.3920(2) 0.61459(14)
C6A C 0.8965(4) 0.3717(2) 0.66971(12)
C7A C 0.9831(3) 0.1811(2) 0.66032(11)
C8A C 0.9210(3) 0.2510(3) 0.74807(13)
C9A C 0.9308(3) 0.2704(2) 0.69171(11)
C10A C 0.7774(7) 0.5360(4) 0.7005(2)
C11A C 0.7272(7) 0.5641(6) 0.7543(3)
C12D C 0.5225(3) -0.03094(18) 0.47609(9)
C13D C 0.6039(4) -0.1439(3) 0.39096(13)
H1A H 0.718(5) 0.511(4) 0.676(2)
H2D H 0.771(4) -0.052(3) 0.4051(13)
H3A H 0.819(6) 0.600(5) 0.681(3)
H4D H 0.631(4) -0.180(3) 0.3627(16)
H5A H 0.714(8) 0.636(6) 0.737(3)
H6A H 0.701(8) 0.466(8) 0.765(3)
H7A H 0.794(6) 0.585(4) 0.778(2)
H8D H 0.420(3) -0.206(2) 0.3972(11)
O3 O 0.8384(15) 0.7406(11) 0.4829(6)
O2? O 0.7836(16) 0.7468(8) 0.4959(8)
C14? C 0.606(4) 0.494(3) 0.3984(13)
N7? N 0.568(6) 0.580(2) 0.4257(10)
loop_
_geom_bond_atom_site_label_1
_geom_bond_atom_site_label_2
_geom_bond_site_symmetry_1
_geom_bond_site_symmetry_2
Cu1 N2 1_555 1_555
O1 C6 1_555 1_555
N1 C7 1_555 1_555
N2 C4 1_555 1_555
N3 C2 1_555 1_555
C1 N4 1_555 1_555
N5 C8 1_555 1_555
N6 Cu1 1_555 1_555
C2 C13 1_555 1_555
C3 N6 1_555 1_555
C4 C13 1_555 1_555
C5 C1 1_555 1_555
C6 C5 1_555 1_555
C7 C9 1_555 1_555
C8 C9 1_555 1_555
C9 C6 1_555 1_555
C10 O1 1_555 1_555
C11 C10 1_555 1_555
C12 N2 1_555 1_555
C13 H4 1_555 1_555
H1 C10 1_555 1_555
H2 C2 1_555 1_555
H3 C10 1_555 1_555
H5 C11 1_555 1_555
H6 C11 1_555 1_555
H7 C11 1_555 1_555
H8 C4 1_555 1_555
Cu1D N3 1_555 1_555
O1A C6A 1_555 1_555
N1A C7A 1_555 1_555
N2D Cu1D 1_555 1_555
N2A Cu1 1_555 1_555
N3D Cu1 1_555 1_555
N3E Cu1 1_555 1_555
C1A N4A 1_555 1_555
N5A C8A 1_555 1_555
N6A Cu1 1_555 1_555
C2D N3D 1_555 1_555
C3A N6A 1_555 1_555
C4D N2D 1_555 1_555
C5A C1A 1_555 1_555
C6A C5A 1_555 1_555
C7A C9A 1_555 1_555
C8A C9A 1_555 1_555
C9A C6A 1_555 1_555
C10A O1A 1_555 1_555
C11A C10A 1_555 1_555
C12D C12 1_555 1_555
C13D C2D 1_555 1_555
H1A C10A 1_555 1_555
H2D C2D 1_555 1_555
H3A C10A 1_555 1_555
H4D C13D 1_555 1_555
H5A C11A 1_555 1_555
H6A C11A 1_555 1_555
H7A C11A 1_555 1_555
H8D C4D 1_555 1_555
N3 C12 1_555 1_555
C3 C5 1_555 1_555
N2D C12D 1_555 1_555
N3D C12D 1_555 1_555
C3A C5A 1_555 1_555
C4D C13D 1_555 1_555

#END
