
#######################################################################
#
#                 Cambridge Crystallographic Data Centre
#                                CCDC 
#
#######################################################################
#
# If this CIF has been generated from an entry in the Cambridge 
# Structural Database, then it will include bibliographic, chemical, 
# crystal, experimental, refinement or atomic coordinate data resulting 
# from the CCDC's data processing and validation procedures.
#
#######################################################################

data_QOWRIE03
_symmetry_cell_setting           triclinic
_symmetry_space_group_name_H-M   'P -1'
_symmetry_Int_Tables_number      2
_space_group_name_Hall           '-P 1'
loop_
_symmetry_equiv_pos_site_id
_symmetry_equiv_pos_as_xyz
1 x,y,z
2 -x,-y,-z
_cell_length_a                   10.1400(4)
_cell_length_b                   11.8050(7)
_cell_length_c                   14.5310(5)
_cell_angle_alpha                66.091(4)
_cell_angle_beta                 70.285(4)
_cell_angle_gamma                87.905(5)
_cell_volume                     1486.76
loop_
_atom_site_label
_atom_site_type_symbol
_atom_site_fract_x
_atom_site_fract_y
_atom_site_fract_z
Cu1 Cu 0.75813(5) 0.38294(4) 0.99907(4)
N1 N 0.9910(4) 0.4487(3) 0.9013(3)
N2 N 0.6854(4) 0.5476(3) 0.9205(3)
N3 N 0.9004(4) 0.2487(3) 1.2755(3)
O1 O 0.6685(3) -0.1578(3) 1.4186(2)
O2 O 0.8624(3) 0.2675(3) 0.5713(2)
N4 N 0.6024(4) 0.5198(3) 0.7350(3)
N5 N 0.4822(4) 0.6513(3) 0.9079(3)
N6 N 0.7837(4) 0.2143(3) 1.0981(3)
C1 C 0.7567(5) 0.2763(4) 0.8349(3)
N7 N 0.7420(4) 0.3152(3) 0.8980(3)
C2 C 0.7102(5) 0.7531(4) 0.7856(3)
H1 H 0.7686 0.8245 0.7269
N8 N 0.6103(4) -0.0108(3) 1.5908(3)
C3 C 0.7822(5) 0.1130(4) 1.1594(3)
N9 N 0.8686(4) 0.5782(3) 0.4122(3)
C4 C 1.2215(5) 0.4798(4) 0.7725(3)
H2 H 1.2831 0.4731 0.7096
C5 C 1.2712(5) 0.5299(4) 0.8272(3)
H3 H 1.3687 0.5586 0.8011
C6 C 0.7749(5) -0.0103(4) 1.2326(3)
N10 N 0.8595(5) -0.1669(4) 1.1486(3)
C7 C 1.0794(4) 0.4399(4) 0.8123(3)
H4 H 1.0429 0.4052 0.7759
C8 C 0.5661(5) 0.7507(4) 0.8229(3)
H5 H 0.5245 0.821 0.7879
C9 C 0.5472(5) 0.5546(4) 0.9525(3)
C10 C 0.6776(5) 0.4777(4) 0.6815(3)
C11 C 1.0488(4) 0.4963(4) 0.9499(3)
C12 C 0.8035(5) 0.3065(4) 0.6487(3)
C13 C 0.6650(5) 0.0106(4) 1.5008(3)
C14 C 0.7263(5) -0.0421(4) 1.3454(3)
C15 C 0.7700(5) 0.4285(4) 0.6124(3)
C16 C 0.8259(5) 0.5104(4) 0.5009(3)
C17 C 0.7680(5) 0.6476(4) 0.8365(3)
H6 H 0.8673 0.6462 0.8114
N11 N 0.7610(6) -0.0129(4) 0.8326(3)
C18 C 0.8274(5) 0.1563(4) 1.3258(3)
C19 C 0.5882(5) -0.2344(4) 1.3944(3)
H7 H 0.6508 -0.2839 1.3607
H8 H 0.5419 -0.1814 1.3444
C20 C 0.7772(5) 0.2262(4) 0.7588(3)
C21 C 0.8206(5) -0.0980(4) 1.1871(3)
C22 C 0.9656(5) 0.1769(4) 0.5813(4)
H9 H 0.9184 0.0909 0.6129
H10 H 1.0154 0.1825 0.6276
C23 C 0.7377(5) 0.0410(4) 1.3888(3)
C24 C 0.4795(5) -0.3193(4) 1.4998(4)
H11 H 0.4225 -0.3731 1.4874
H12 H 0.4183 -0.2691 1.5323
H13 H 0.5268 -0.371 1.5485
C25 C 0.7692(6) 0.0943(4) 0.7984(4)
C26 C 1.0680(5) 0.2109(5) 0.4680(4)
H14 H 1.14 0.1532 0.4695
H15 H 1.1133 0.2963 0.4379
H16 H 1.0169 0.2052 0.4233
N12 N 1.1844(4) 0.5389(3) 0.9168(3)
Cu1A Cu 1.24187(5) 0.61706(4) 1.00093(4)
Cu1A_2 Cu 0.24187(5) 0.61706(4) 1.00093(4)
N1A N 1.0090(4) 0.5513(3) 1.0987(3)
N2A N 0.3146(4) 0.4524(3) 1.0795(3)
N2A_2 N 1.3146(4) 0.4524(3) 1.0795(3)
N3A N 1.0996(4) 0.7513(3) 0.7245(3)
O1A O 1.3315(3) 1.1578(3) 0.5814(2)
O2A O 1.1376(3) 0.7325(3) 1.4287(2)
N4A N 1.3976(4) 0.4802(3) 1.2650(3)
N5A N 0.5178(4) 0.3487(3) 1.0921(3)
N5_2 N 1.4822(4) 0.6513(3) 0.9079(3)
N6A N 1.2163(4) 0.7857(3) 0.9019(3)
C1A C 1.2433(5) 0.7237(4) 1.1651(3)
N7A N 1.2580(4) 0.6848(3) 1.1020(3)
C2A C 0.2898(5) 0.2469(4) 1.2144(3)
H1A H 0.2314 0.1755 1.2731
N8A N 1.3897(4) 1.0108(3) 0.4092(3)
C3A C 1.2178(5) 0.8870(4) 0.8406(3)
N9A N 1.1314(4) 0.4218(3) 1.5878(3)
C4A C 0.7785(5) 0.5202(4) 1.2275(3)
H2A H 0.7169 0.5269 1.2904
C5A C 0.7288(5) 0.4701(4) 1.1728(3)
H3A H 0.6313 0.4414 1.1989
C6A C 1.2251(5) 1.0103(4) 0.7674(3)
N10A N 1.1405(5) 1.1669(4) 0.8514(3)
C7A C 0.9206(4) 0.5601(4) 1.1877(3)
H4A H 0.9571 0.5948 1.2241
C8A C 0.4339(5) 0.2493(4) 1.1771(3)
H5A H 0.4755 0.179 1.2121
C9A C 0.4528(5) 0.4454(4) 1.0475(3)
C10A C 1.3224(5) 0.5223(4) 1.3185(3)
C11A C 0.9512(4) 0.5037(4) 1.0501(3)
C12A C 1.1965(5) 0.6935(4) 1.3513(3)
C13A C 1.3350(5) 0.9894(4) 0.4992(3)
C14A C 1.2737(5) 1.0421(4) 0.6546(3)
C15A C 1.2300(5) 0.5715(4) 1.3876(3)
C16A C 1.1741(5) 0.4896(4) 1.4991(3)
C17A C 0.2320(5) 0.3524(4) 1.1635(3)
H6A H 0.1327 0.3538 1.1886
N11A N 1.2390(6) 1.0129(4) 1.1674(3)
C18A C 1.1726(5) 0.8437(4) 0.6742(3)
C19A C 1.4118(5) 1.2344(4) 0.6056(3)
H7A H 1.3492 1.2839 0.6393
H8A H 1.4581 1.1814 0.6556
C20A C 1.2228(5) 0.7738(4) 1.2412(3)
C21A C 1.1794(5) 1.0980(4) 0.8129(3)
C22A C 1.0344(5) 0.8231(4) 1.4187(4)
H9A H 1.0816 0.9091 1.3871
H10A H 0.9846 0.8175 1.3724
C23A C 1.2623(5) 0.9590(4) 0.6112(3)
C24A C 1.5205(5) 1.3193(4) 0.5002(4)
H11A H 1.5775 1.3731 0.5126
H12A H 1.5817 1.2691 0.4677
H13A H 1.4732 1.371 0.4515
C25A C 1.2308(6) 0.9057(4) 1.2016(4)
C26A C 0.9320(5) 0.7891(5) 1.5320(4)
H14A H 0.86 0.8468 1.5305
H15A H 0.8867 0.7037 1.5621
H16A H 0.9831 0.7948 1.5767
N12A N 0.8156(4) 0.4611(3) 1.0832(3)
O3 O 0.8283(4) -0.2502(3) 0.9841(3)
loop_
_geom_bond_atom_site_label_1
_geom_bond_atom_site_label_2
_geom_bond_site_symmetry_1
_geom_bond_site_symmetry_2
Cu1 N1 1_555 1_555
N1 C7 1_555 1_555
N2 Cu1 1_555 1_555
N3 C18 1_555 1_555
O1 C14 1_555 1_555
O2 C12 1_555 1_555
N4 C10 1_555 1_555
N5 C8 1_555 1_555
N6 Cu1 1_555 1_555
C1 N7 1_555 1_555
N7 Cu1 1_555 1_555
C2 H1 1_555 1_555
N8 C13 1_555 1_555
C3 N6 1_555 1_555
N9 C16 1_555 1_555
C4 H2 1_555 1_555
C5 C4 1_555 1_555
H3 C5 1_555 1_555
C6 C3 1_555 1_555
N10 C21 1_555 1_555
C7 C4 1_555 1_555
H4 C7 1_555 1_555
C8 C2 1_555 1_555
H5 C8 1_555 1_555
C9 N2 1_555 1_555
C10 C15 1_555 1_555
C11 N1 1_555 1_555
C12 C15 1_555 1_555
C13 C23 1_555 1_555
C14 C6 1_555 1_555
C15 C16 1_555 1_555
C17 N2 1_555 1_555
H6 C17 1_555 1_555
N11 C25 1_555 1_555
C18 C23 1_555 1_555
C19 O1 1_555 1_555
H7 C19 1_555 1_555
H8 C19 1_555 1_555
C20 C1 1_555 1_555
C21 C6 1_555 1_555
C22 O2 1_555 1_555
H9 C22 1_555 1_555
H10 C22 1_555 1_555
C23 C14 1_555 1_555
C24 C19 1_555 1_555
H11 C24 1_555 1_555
H12 C24 1_555 1_555
H13 C24 1_555 1_555
C25 C20 1_555 1_555
C26 C22 1_555 1_555
H14 C26 1_555 1_555
H15 C26 1_555 1_555
H16 C26 1_555 1_555
N12 C5 1_555 1_555
Cu1A N12 1_555 1_555
Cu1A_2 N5 1_555 1_555
N1A Cu1A 1_555 1_555
N2A Cu1A_2 1_555 1_555
N2A_2 Cu1A 1_555 1_555
N3A C18A 1_555 1_555
O1A C14A 1_555 1_555
O2A C12A 1_555 1_555
N4A C10A 1_555 1_555
N5A Cu1 1_555 1_555
N5_2 Cu1A 1_555 1_555
N6A Cu1A 1_555 1_555
C1A N7A 1_555 1_555
N7A Cu1A 1_555 1_555
C2A H1A 1_555 1_555
N8A C13A 1_555 1_555
C3A N6A 1_555 1_555
N9A C16A 1_555 1_555
C4A H2A 1_555 1_555
C5A C4A 1_555 1_555
H3A C5A 1_555 1_555
C6A C3A 1_555 1_555
N10A C21A 1_555 1_555
C7A N1A 1_555 1_555
H4A C7A 1_555 1_555
C8A N5A 1_555 1_555
H5A C8A 1_555 1_555
C9A C9 1_555 1_555
C10A C15A 1_555 1_555
C11A C11 1_555 1_555
C12A C15A 1_555 1_555
C13A C23A 1_555 1_555
C14A C6A 1_555 1_555
C15A C16A 1_555 1_555
C17A N2A 1_555 1_555
H6A C17A 1_555 1_555
N11A C25A 1_555 1_555
C18A C23A 1_555 1_555
C19A O1A 1_555 1_555
H7A C19A 1_555 1_555
H8A C19A 1_555 1_555
C20A C1A 1_555 1_555
C21A C6A 1_555 1_555
C22A O2A 1_555 1_555
H9A C22A 1_555 1_555
H10A C22A 1_555 1_555
C23A C14A 1_555 1_555
C24A C19A 1_555 1_555
H11A C24A 1_555 1_555
H12A C24A 1_555 1_555
H13A C24A 1_555 1_555
C25A C20A 1_555 1_555
C26A C22A 1_555 1_555
H14A C26A 1_555 1_555
H15A C26A 1_555 1_555
H16A C26A 1_555 1_555
N12A Cu1 1_555 1_555
N5 C9 1_555 1_555
C2 C17 1_555 1_555
C11 N12 1_555 1_555
C12 C20 1_555 1_555
N1A C11A 1_555 1_555
N2A C9A 1_555 1_555
N5A C9A 1_555 1_555
C2A C8A 1_555 1_555
C2A C17A 1_555 1_555
C4A C7A 1_555 1_555
C5A N12A 1_555 1_555
C11A N12A 1_555 1_555
C12A C20A 1_555 1_555

#END
