
#######################################################################
#
#                 Cambridge Crystallographic Data Centre
#                                CCDC 
#
#######################################################################
#
# If this CIF has been generated from an entry in the Cambridge 
# Structural Database, then it will include bibliographic, chemical, 
# crystal, experimental, refinement or atomic coordinate data resulting 
# from the CCDC's data processing and validation procedures.
#
#######################################################################

data_QOWRIE01
_symmetry_cell_setting           monoclinic
_symmetry_space_group_name_H-M   'I 2/a'
_symmetry_Int_Tables_number      15
_space_group_name_Hall           '-I 2ya'
loop_
_symmetry_equiv_pos_site_id
_symmetry_equiv_pos_as_xyz
1 x,y,z
2 1/2-x,y,-z
3 1/2+x,1/2+y,1/2+z
4 -x,1/2+y,1/2-z
5 -x,-y,-z
6 1/2+x,-y,z
7 1/2-x,1/2-y,1/2-z
8 x,1/2-y,1/2+z
_cell_length_a                   10.1105(5)
_cell_length_b                   11.8149(6)
_cell_length_c                   24.9214(12)
_cell_angle_alpha                90
_cell_angle_beta                 91.839(4)
_cell_angle_gamma                90
_cell_volume                     2975.44
loop_
_atom_site_label
_atom_site_type_symbol
_atom_site_fract_x
_atom_site_fract_y
_atom_site_fract_z
Cu1 Cu 0.75000 0.11899(3) 0.50000
O1 O 0.63259(18) 0.44814(14) 0.28873(6)
N1 N 0.4663(2) 0.11284(18) 0.36465(8)
N2 N 0.44139(18) -0.10383(15) 0.45261(7)
N3 N 0.64444(18) -0.00381(15) 0.45934(7)
N4 N 0.5829(2) 0.21764(19) 0.20565(8)
N5 N 0.67871(19) 0.23729(16) 0.45018(7)
C1 C 0.6860(3) -0.05943(19) 0.41603(8)
C2 C 0.6556(2) 0.30719(19) 0.41917(8)
C3 C 0.4848(2) -0.1586(2) 0.40937(8)
C4 C 0.6299(3) 0.3942(2) 0.38184(9)
C5 C 0.6126(2) 0.3696(2) 0.32627(9)
C6 C 0.5138(2) 0.1818(2) 0.33892(8)
C7 C 0.5798(2) 0.2401(2) 0.25034(9)
C8 C 0.5717(2) 0.26556(19) 0.30632(8)
C9 C 0.7318(3) 0.5367(3) 0.29736(11)
C10 C 0.7840(3) 0.5637(3) 0.24293(13)
C11 C 0.5238(2) -0.02949(18) 0.47576(8)
C12 C 0.6079(2) -0.13842(19) 0.39010(9)
N6 N 0.6461(9) 0.5960(4) 0.41951(19)
C13 C 0.6457(9) 0.5069(5) 0.4009(2)
H1 H 0.804(3) 0.510(3) 0.3222(12)
H2 H 0.768(2) -0.0425(18) 0.4045(8)
H3 H 0.686(3) 0.602(3) 0.3139(12)
H4 H 0.641(3) -0.176(2) 0.3615(11)
H5 H 0.843(4) 0.623(3) 0.2464(14)
H6 H 0.832(4) 0.494(4) 0.2280(15)
H7 H 0.714(3) 0.588(3) 0.2176(12)
H8 H 0.428(2) -0.210(2) 0.3939(9)
Cu1D Cu 0.25000 -0.11899(3) 0.50000
O1A O 0.86741(18) 0.44814(14) 0.71127(6)
N1A N 1.0337(2) 0.11284(18) 0.63535(8)
N2D N 0.55861(18) 0.10383(15) 0.54739(7)
N2E N 0.94139(18) 0.10383(15) 0.45261(7)
N3D N 0.35556(18) 0.00381(15) 0.54066(7)
N3A N 0.85556(18) -0.00381(15) 0.54066(7)
N4A N 0.9171(2) 0.21764(19) 0.79435(8)
N5A N 0.82129(19) 0.23729(16) 0.54982(7)
C1D C 0.3140(3) 0.05943(19) 0.58397(8)
C2A C 0.8444(2) 0.30719(19) 0.58083(8)
C3D C 0.5152(2) 0.1586(2) 0.59063(8)
C4A C 0.8701(3) 0.3942(2) 0.61816(9)
C5A C 0.8874(2) 0.3696(2) 0.67373(9)
C6A C 0.9862(2) 0.1818(2) 0.66108(8)
C7A C 0.9202(2) 0.2401(2) 0.74966(9)
C8A C 0.9283(2) 0.26556(19) 0.69368(8)
C9A C 0.7682(3) 0.5367(3) 0.70264(11)
C10A C 0.7160(3) 0.5637(3) 0.75707(13)
C11D C 0.4762(2) 0.02949(18) 0.52424(8)
C12D C 0.3921(2) 0.13842(19) 0.60990(9)
N6A N 0.8539(9) 0.5960(4) 0.58049(19)
C13A C 0.8543(9) 0.5069(5) 0.5991(2)
H1A H 0.696(3) 0.510(3) 0.6778(12)
H2D H 0.232(2) 0.0425(18) 0.5955(8)
H3A H 0.814(3) 0.602(3) 0.6861(12)
H4D H 0.359(3) 0.176(2) 0.6385(11)
H5A H 0.657(4) 0.623(3) 0.7536(14)
H6A H 0.668(4) 0.494(4) 0.7720(15)
H7A H 0.786(3) 0.588(3) 0.7824(12)
H8D H 0.572(2) 0.210(2) 0.6061(9)
O2 O 0.7739(12) 0.7570(5) 0.4974(5)
C14? C 0.5979(10) 0.5031(5) 0.4061(2)
N7? N 0.5842(10) 0.5906(4) 0.4251(2)
O3? O 0.8220(9) 0.7526(7) 0.4877(3)
loop_
_geom_bond_atom_site_label_1
_geom_bond_atom_site_label_2
_geom_bond_site_symmetry_1
_geom_bond_site_symmetry_2
Cu1 N3 1_555 1_555
O1 C5 1_555 1_555
N1 C6 1_555 1_555
N2 C3 1_555 1_555
N3 C1 1_555 1_555
N4 C7 1_555 1_555
N5 Cu1 1_555 1_555
C1 C12 1_555 1_555
C2 N5 1_555 1_555
C3 C12 1_555 1_555
C4 C2 1_555 1_555
C5 C4 1_555 1_555
C6 C8 1_555 1_555
C7 C8 1_555 1_555
C8 C5 1_555 1_555
C9 O1 1_555 1_555
C10 C9 1_555 1_555
C11 N2 1_555 1_555
C12 H4 1_555 1_555
N6 C13 1_555 1_555
C13 C4 1_555 1_555
H1 C9 1_555 1_555
H2 C1 1_555 1_555
H3 C9 1_555 1_555
H5 C10 1_555 1_555
H6 C10 1_555 1_555
H7 C10 1_555 1_555
H8 C3 1_555 1_555
Cu1D N2 1_555 1_555
O1A C5A 1_555 1_555
N1A C6A 1_555 1_555
N2D Cu1 1_555 1_555
N2E Cu1 1_555 1_555
N3D Cu1D 1_555 1_555
N3A Cu1 1_555 1_555
N4A C7A 1_555 1_555
N5A Cu1 1_555 1_555
C1D N3D 1_555 1_555
C2A N5A 1_555 1_555
C3D N2D 1_555 1_555
C4A C2A 1_555 1_555
C5A C4A 1_555 1_555
C6A C8A 1_555 1_555
C7A C8A 1_555 1_555
C8A C5A 1_555 1_555
C9A O1A 1_555 1_555
C10A C9A 1_555 1_555
C11D C11 1_555 1_555
C12D C1D 1_555 1_555
N6A C13A 1_555 1_555
C13A C4A 1_555 1_555
H1A C9A 1_555 1_555
H2D C1D 1_555 1_555
H3A C9A 1_555 1_555
H4D C12D 1_555 1_555
H5A C10A 1_555 1_555
H6A C10A 1_555 1_555
H7A C10A 1_555 1_555
H8D C3D 1_555 1_555
N3 C11 1_555 1_555
N2D C11D 1_555 1_555
N3D C11D 1_555 1_555
C3D C12D 1_555 1_555

#END
