
#######################################################################
#
#                 Cambridge Crystallographic Data Centre
#                                CCDC 
#
#######################################################################
#
# If this CIF has been generated from an entry in the Cambridge 
# Structural Database, then it will include bibliographic, chemical, 
# crystal, experimental, refinement or atomic coordinate data resulting 
# from the CCDC's data processing and validation procedures.
#
#######################################################################

data_QOWSOL
_symmetry_cell_setting           triclinic
_symmetry_space_group_name_H-M   'P -1'
_symmetry_Int_Tables_number      2
_space_group_name_Hall           '-P 1'
loop_
_symmetry_equiv_pos_site_id
_symmetry_equiv_pos_as_xyz
1 x,y,z
2 -x,-y,-z
_cell_length_a                   8.4022(2)
_cell_length_b                   11.6981(3)
_cell_length_c                   15.2421(4)
_cell_angle_alpha                95.0084(9)
_cell_angle_beta                 97.6127(9)
_cell_angle_gamma                103.9581(9)
_cell_volume                     1429.97
loop_
_atom_site_label
_atom_site_type_symbol
_atom_site_fract_x
_atom_site_fract_y
_atom_site_fract_z
Ni1 Ni 0.40983(4) 0.16619(3) 0.72040(2)
Ni2 Ni 0.14272(4) 0.24827(3) 0.82401(2)
N1 N 0.4506(2) 0.19509(18) 0.92235(15)
N2 N -0.0025(2) 0.09503(19) 0.86189(14)
N3 N 0.1541(2) 0.16420(19) 0.69785(14)
O1 O 0.2798(2) 0.40294(16) 0.78947(12)
N4 N 0.0944(3) 0.19481(19) 0.63097(15)
O2 O 0.4751(2) 0.34471(16) 0.72300(12)
N5 N 0.1454(2) 0.33156(19) 0.94996(14)
N6 N 0.3458(2) -0.01611(18) 0.71278(13)
N7 N 0.3612(3) 0.1900(2) 0.85434(14)
C1 C 0.0181(3) 0.3049(2) 0.99497(17)
N8 N 0.6562(3) 0.1669(2) 0.75787(18)
N9 N 0.4136(3) 0.1420(2) 0.58527(15)
N10 N -0.1095(3) 0.2041(2) 0.96632(15)
H1 H -0.2049 0.2085 0.9787
C2 C -0.2168(3) -0.0057(3) 0.93741(19)
H2 H -0.2883 -0.0015 0.9785
N11 N 0.5372(3) 0.1980(3) 0.98856(16)
C3 C 0.4055(3) 0.4213(2) 0.75094(18)
N12 N 0.0370(4) 0.2226(3) 0.56588(17)
C4 C -0.1068(3) 0.0971(2) 0.92070(17)
N13 N 0.2098(3) -0.0396(2) 0.56478(14)
H3 H 0.1158 -0.0737 0.5322
C5 C 0.2402(3) -0.0851(2) 0.64445(17)
C6 C 0.3142(4) -0.1833(3) 0.79489(19)
H4 H 0.3445 -0.2156 0.8462
C7 C 0.3837(3) -0.0683(2) 0.78645(18)
H5 H 0.4613 -0.0226 0.8335
C8 C -0.0057(3) -0.0120(2) 0.82023(19)
H6 H 0.0681 -0.0153 0.7802
C9 C 0.1602(4) -0.2028(3) 0.64969(19)
H7 H 0.0826 -0.2474 0.6023
C10 C -0.1108(4) -0.1165(3) 0.8331(2)
H8 H -0.1091 -0.1881 0.8020
C11 C -0.2185(3) -0.1129(3) 0.8928(2)
H9 H -0.2916 -0.1822 0.9029
C12 C 0.2691(4) 0.5006(3) 1.0595(2)
H10 H 0.3579 0.5660 1.0808
C13 C 0.0080(4) 0.3756(3) 1.07142(19)
H11 H -0.0839 0.3561 1.1003
C14 C 0.5096(4) 0.2281(3) 0.5473(2)
H12 H 0.5863 0.2898 0.5845
C15 C 0.2698(3) 0.4293(2) 0.98429(19)
H13 H 0.3606 0.4485 0.9546
C16 C 0.1974(4) -0.2519(3) 0.7258(2)
H14 H 0.1449 -0.3301 0.7309
C17 C 0.3874(5) 0.1372(4) 0.4013(2)
H15 H 0.3778 0.1358 0.3397
C18 C 0.4996(5) 0.2292(3) 0.4565(2)
H16 H 0.5669 0.2906 0.4331
C19 C 0.1350(4) 0.4742(3) 1.1037(2)
H17 H 0.1304 0.5225 1.1546
C20 C 0.3077(4) 0.0520(3) 0.52992(19)
C21 C 0.4789(4) 0.5471(3) 0.7360(3)
H18 H 0.5730 0.5503 0.7059
H19 H 0.5137 0.5963 0.7924
H20 H 0.3971 0.5753 0.7001
N14 N 0.7879(3) 0.23066(19) 0.76370(14)
C22 C 0.2917(4) 0.0491(3) 0.43701(19)
H21 H 0.2154 -0.0132 0.4002
N15 N 0.9230(3) 0.2933(2) 0.77025(15)
Ni2_2 Ni 1.14272(4) 0.24827(3) 0.82401(2)
N15_2 N -0.0770(3) 0.2933(2) 0.77025(15)
O3 O 0.9682(7) 0.4813(3) 0.6383(3)
O4 O 0.7709(11) 0.5161(6) 0.4955(5)
loop_
_geom_bond_atom_site_label_1
_geom_bond_atom_site_label_2
_geom_bond_site_symmetry_1
_geom_bond_site_symmetry_2
Ni1 N3 1_555 1_555
Ni2 N2 1_555 1_555
N1 N7 1_555 1_555
N2 C4 1_555 1_555
N3 Ni2 1_555 1_555
O1 Ni2 1_555 1_555
N4 N3 1_555 1_555
O2 Ni1 1_555 1_555
N5 Ni2 1_555 1_555
N6 Ni1 1_555 1_555
N7 Ni1 1_555 1_555
C1 N5 1_555 1_555
N8 Ni1 1_555 1_555
N9 Ni1 1_555 1_555
N10 C1 1_555 1_555
H1 N10 1_555 1_555
C2 H2 1_555 1_555
N11 N1 1_555 1_555
C3 O1 1_555 1_555
N12 N4 1_555 1_555
C4 N10 1_555 1_555
N13 H3 1_555 1_555
C5 N6 1_555 1_555
C6 H4 1_555 1_555
C7 N6 1_555 1_555
H5 C7 1_555 1_555
C8 N2 1_555 1_555
H6 C8 1_555 1_555
C9 C5 1_555 1_555
H7 C9 1_555 1_555
C10 C8 1_555 1_555
H8 C10 1_555 1_555
C11 C2 1_555 1_555
H9 C11 1_555 1_555
C12 H10 1_555 1_555
C13 C1 1_555 1_555
H11 C13 1_555 1_555
C14 N9 1_555 1_555
H12 C14 1_555 1_555
C15 N5 1_555 1_555
H13 C15 1_555 1_555
C16 C6 1_555 1_555
H14 C16 1_555 1_555
C17 H15 1_555 1_555
C18 C14 1_555 1_555
H16 C18 1_555 1_555
C19 C12 1_555 1_555
H17 C19 1_555 1_555
C20 N9 1_555 1_555
C21 C3 1_555 1_555
H18 C21 1_555 1_555
H19 C21 1_555 1_555
H20 C21 1_555 1_555
N14 N8 1_555 1_555
C22 C17 1_555 1_555
H21 C22 1_555 1_555
N15 N14 1_555 1_555
Ni2_2 N15 1_555 1_555
N15_2 Ni2 1_555 1_555
Ni2 N7 1_555 1_555
O2 C3 1_555 1_555
C2 C4 1_555 1_555
N13 C5 1_555 1_555
N13 C20 1_555 1_555
C6 C7 1_555 1_555
C9 C16 1_555 1_555
C10 C11 1_555 1_555
C12 C15 1_555 1_555
C13 C19 1_555 1_555
C17 C18 1_555 1_555
C20 C22 1_555 1_555

#END
