
#######################################################################
#
#                 Cambridge Crystallographic Data Centre
#                                CCDC 
#
#######################################################################
#
# If this CIF has been generated from an entry in the Cambridge 
# Structural Database, then it will include bibliographic, chemical, 
# crystal, experimental, refinement or atomic coordinate data resulting 
# from the CCDC's data processing and validation procedures.
#
#######################################################################

data_QOWTAZ
_symmetry_cell_setting           monoclinic
_symmetry_space_group_name_H-M   'P 21/c'
_symmetry_Int_Tables_number      14
_space_group_name_Hall           '-P 2ybc'
loop_
_symmetry_equiv_pos_site_id
_symmetry_equiv_pos_as_xyz
1 x,y,z
2 -x,1/2+y,1/2-z
3 -x,-y,-z
4 x,1/2-y,1/2+z
_cell_length_a                   9.5122(19)
_cell_length_b                   12.462(3)
_cell_length_c                   12.743(4)
_cell_angle_alpha                90
_cell_angle_beta                 127.057(19)
_cell_angle_gamma                90
_cell_volume                     1205.49
loop_
_atom_site_label
_atom_site_type_symbol
_atom_site_fract_x
_atom_site_fract_y
_atom_site_fract_z
Cd1 Cd 0.85708(2) 0.790709(14) 0.868699(16)
O1 O 0.7815(2) 0.96100(17) 0.8736(2)
O2 O 0.8858(2) 1.12088(16) 0.9626(2)
N1 N 1.0654(3) 0.64495(17) 0.9474(2)
N2 N 0.8681(3) 0.70383(16) 1.0304(2)
N3 N 1.0628(3) 0.63096(18) 1.22981(19)
N4 N 0.9255(3) 0.67345(19) 1.22444(19)
N5 N 0.5194(3) 0.7983(2) 0.9525(2)
N6 N 0.4021(3) 0.8344(2) 0.9736(2)
N7 N 0.6262(3) 0.77532(18) 1.1643(2)
C1 C 1.1496(4) 0.6113(2) 0.8999(3)
H1 H 1.1055 0.6307 0.8146
C2 C 1.2987(4) 0.5491(3) 0.9711(3)
H2 H 1.3525 0.5256 0.9339
C3 C 1.3671(4) 0.5222(3) 1.0981(3)
H3 H 1.4707 0.4827 1.1494
C4 C 1.2797(4) 0.5549(3) 1.1483(3)
H4 H 1.3217 0.5364 1.2333
C5 C 1.1284(3) 0.6157(2) 1.0695(2)
C6 C 1.0225(3) 0.65072(19) 1.1123(2)
C7 C 0.8138(3) 0.71555(19) 1.1053(2)
C8 C 0.6521(3) 0.7648(2) 1.0703(2)
C9 C 0.4662(3) 0.8187(2) 1.0983(3)
H5 H 0.4080 0.8356 1.1341
C10 C 0.9038(3) 1.0233(2) 0.9524(2)
O1B O 1.2185(2) 1.03900(17) 1.1264(2)
O2B O 1.1142(2) 0.87912(16) 1.0374(2)
C10B C 1.0962(3) 0.9767(2) 1.0476(2)
Cd1B Cd 1.14292(2) 1.209291(14) 1.131301(16)
N1B N 0.9346(3) 1.35505(17) 1.0526(2)
N2B N 1.1319(3) 1.29617(16) 0.9696(2)
N3B N 0.9372(3) 1.36904(18) 0.77019(19)
N4B N 1.0745(3) 1.32655(19) 0.77556(19)
N5B N 1.4806(3) 1.2017(2) 1.0475(2)
N6B N 1.5979(3) 1.1656(2) 1.0264(2)
N7B N 1.3738(3) 1.22468(18) 0.8357(2)
C1B C 0.8504(4) 1.3887(2) 1.1001(3)
H1B H 0.8945 1.3693 1.1854
C2B C 0.7013(4) 1.4509(3) 1.0289(3)
H2B H 0.6475 1.4744 1.0661
C3B C 0.6329(4) 1.4778(3) 0.9019(3)
H3B H 0.5293 1.5173 0.8506
C4B C 0.7203(4) 1.4451(3) 0.8517(3)
H4B H 0.6783 1.4636 0.7667
C5B C 0.8716(3) 1.3843(2) 0.9305(2)
C6B C 0.9775(3) 1.34928(19) 0.8877(2)
C7B C 1.1862(3) 1.28445(19) 0.8947(2)
C8B C 1.3479(3) 1.2352(2) 0.9297(2)
C9B C 1.5338(3) 1.1813(2) 0.9017(3)
H5B H 1.5920 1.1644 0.8659
Cd1A Cd 1.14292(2) 1.290709(14) 0.631301(16)
Cd1C Cd 0.85708(2) 0.709291(14) 1.368699(16)
N4A N 1.0745(3) 1.17345(19) 1.27556(19)
N4C N 0.9255(3) 0.82655(19) 0.72444(19)
N7A N 1.3738(3) 1.27532(18) 1.3357(2)
N7C N 0.6262(3) 0.72468(18) 0.6643(2)
loop_
_geom_bond_atom_site_label_1
_geom_bond_atom_site_label_2
_geom_bond_site_symmetry_1
_geom_bond_site_symmetry_2
Cd1 O1 1_555 1_555
O1 C10 1_555 1_555
O2 C10 1_555 1_555
N1 Cd1 1_555 1_555
N2 Cd1 1_555 1_555
N3 N4 1_555 1_555
N4 C7 1_555 1_555
N5 N6 1_555 1_555
N6 C9 1_555 1_555
N7 C8 1_555 1_555
C1 N1 1_555 1_555
H1 C1 1_555 1_555
C2 C1 1_555 1_555
H2 C2 1_555 1_555
C3 C2 1_555 1_555
H3 C3 1_555 1_555
C4 C3 1_555 1_555
H4 C4 1_555 1_555
C5 N1 1_555 1_555
C6 N2 1_555 1_555
C7 N2 1_555 1_555
C8 N5 1_555 1_555
C9 N7 1_555 1_555
H5 C9 1_555 1_555
C10 C10B 1_555 1_555
O1B C10B 1_555 1_555
O2B Cd1 1_555 1_555
C10B O2B 1_555 1_555
Cd1B O2 1_555 1_555
N1B Cd1B 1_555 1_555
N2B Cd1B 1_555 1_555
N3B N4B 1_555 1_555
N4B C7B 1_555 1_555
N5B N6B 1_555 1_555
N6B C9B 1_555 1_555
N7B C8B 1_555 1_555
C1B N1B 1_555 1_555
H1B C1B 1_555 1_555
C2B C1B 1_555 1_555
H2B C2B 1_555 1_555
C3B C2B 1_555 1_555
H3B C3B 1_555 1_555
C4B C3B 1_555 1_555
H4B C4B 1_555 1_555
C5B N1B 1_555 1_555
C6B N2B 1_555 1_555
C7B N2B 1_555 1_555
C8B N5B 1_555 1_555
C9B N7B 1_555 1_555
H5B C9B 1_555 1_555
Cd1A N4B 1_555 1_555
Cd1C N4 1_555 1_555
N4A Cd1B 1_555 1_555
N4C Cd1 1_555 1_555
N7A Cd1B 1_555 1_555
N7C Cd1 1_555 1_555
N3 C6 1_555 1_555
N7 Cd1C 1_555 1_555
C4 C5 1_555 1_555
C5 C6 1_555 1_555
C7 C8 1_555 1_555
O1B Cd1B 1_555 1_555
N3B C6B 1_555 1_555
N7B Cd1A 1_555 1_555
C4B C5B 1_555 1_555
C5B C6B 1_555 1_555
C7B C8B 1_555 1_555

#END
