
#######################################################################
#
#                 Cambridge Crystallographic Data Centre
#                                CCDC 
#
#######################################################################
#
# If this CIF has been generated from an entry in the Cambridge 
# Structural Database, then it will include bibliographic, chemical, 
# crystal, experimental, refinement or atomic coordinate data resulting 
# from the CCDC's data processing and validation procedures.
#
#######################################################################

data_QOWTIG
_symmetry_cell_setting           monoclinic
_symmetry_space_group_name_H-M   'P 21'
_symmetry_Int_Tables_number      4
_space_group_name_Hall           'P 2yb'
loop_
_symmetry_equiv_pos_site_id
_symmetry_equiv_pos_as_xyz
1 x,y,z
2 -x,1/2+y,-z
_cell_length_a                   17.2057(15)
_cell_length_b                   9.9089(9)
_cell_length_c                   19.4765(17)
_cell_angle_alpha                90
_cell_angle_beta                 98.3707(19)
_cell_angle_gamma                90
_cell_volume                     3285.17
loop_
_atom_site_label
_atom_site_type_symbol
_atom_site_fract_x
_atom_site_fract_y
_atom_site_fract_z
Ag1 Ag 0.55427(6) 1.14999(17) 0.01672(6)
O1 O 0.4195(6) 1.2252(11) 0.0255(5)
O2 O 0.3807(7) 1.4385(11) 0.0260(6)
O3 O 0.5056(6) 1.3893(11) 0.0517(6)
N1 N 0.6602(7) 1.2664(13) -0.0190(7)
N2 N 0.4330(7) 1.3517(13) 0.0352(6)
C1 C 0.6165(9) 1.2550(16) -0.1406(8)
C2 C 0.5919(8) 1.3995(15) -0.1118(7)
C3 C 0.5995(8) 1.5142(15) -0.1596(8)
C4 C 0.6370(8) 1.5096(14) -0.2166(8)
C5 C 0.6598(8) 1.3779(15) -0.2436(7)
C6 C 0.6426(9) 1.2614(15) -0.2114(8)
C7 C 0.5489(8) 1.154(2) -0.1573(6)
C8 C 0.4766(7) 1.1683(19) -0.1361(6)
C9 C 0.4566(8) 1.3013(15) -0.1097(8)
C10 C 0.5057(8) 1.4101(15) -0.1039(7)
C11 C 0.4771(9) 1.5391(16) -0.1257(8)
C12 C 0.5349(8) 1.6041(13) -0.1585(7)
C13 C 0.5093(8) 1.6933(15) -0.2148(8)
C14 C 0.5523(8) 1.6886(14) -0.2760(7)
C15 C 0.6144(8) 1.5984(14) -0.2749(7)
C16 C 0.6212(9) 1.5224(15) -0.3377(8)
C17 C 0.6494(9) 1.3898(16) -0.3183(7)
C18 C 0.6220(8) 1.2820(13) -0.3592(7)
C19 C 0.6039(6) 1.155(2) -0.3273(6)
C20 C 0.6131(7) 1.150(2) -0.2548(6)
C21 C 0.5555(8) 1.0815(13) -0.2204(7)
C22 C 0.4896(9) 1.0235(14) -0.2588(8)
C23 C 0.4146(9) 1.0389(16) -0.2350(9)
C24 C 0.4070(9) 1.1118(15) -0.1769(8)
C25 C 0.3430(8) 1.2007(14) -0.1772(7)
C26 C 0.3697(8) 1.3202(14) -0.1353(7)
C27 C 0.3406(9) 1.4499(16) -0.1530(8)
C28 C 0.3941(9) 1.5639(15) -0.1496(8)
C29 C 0.3714(7) 1.651(2) -0.2066(6)
C30 C 0.4279(10) 1.7127(16) -0.2403(9)
C31 C 0.4166(9) 1.7233(15) -0.3119(8)
C32 C 0.4928(8) 1.7081(14) -0.3358(7)
C33 C 0.5016(7) 1.6340(16) -0.3961(6)
C34 C 0.5664(8) 1.5436(15) -0.3966(7)
C35 C 0.5392(8) 1.4312(13) -0.4375(7)
C36 C 0.5658(8) 1.3012(13) -0.4222(7)
C37 C 0.5110(7) 1.1867(13) -0.4262(6)
C38 C 0.5335(9) 1.0979(14) -0.3674(7)
C39 C 0.4770(9) 1.0314(16) -0.3309(8)
C40 C 0.3970(8) 1.0535(15) -0.3579(8)
C41 C 0.3561(8) 1.0564(15) -0.2984(8)
C42 C 0.2941(7) 1.145(2) -0.2986(6)
C43 C 0.2878(9) 1.2197(15) -0.2322(8)
C44 C 0.2575(8) 1.3556(15) -0.2531(7)
C45 C 0.2848(9) 1.4648(17) -0.2127(9)
C46 C 0.3025(9) 1.5895(16) -0.2463(8)
C47 C 0.2941(7) 1.6018(13) -0.3210(7)
C48 C 0.3516(7) 1.665(2) -0.3539(7)
C49 C 0.3614(8) 1.5947(13) -0.4141(7)
C50 C 0.4379(7) 1.5766(12) -0.4364(6)
C51 C 0.4577(8) 1.4491(14) -0.4635(7)
C52 C 0.4027(8) 1.3393(15) -0.4689(7)
C53 C 0.4326(8) 1.2064(14) -0.4497(7)
C54 C 0.3737(7) 1.1373(17) -0.4142(6)
C55 C 0.3084(8) 1.2336(14) -0.4145(8)
C56 C 0.2689(9) 1.2354(16) -0.3551(8)
C57 C 0.2459(9) 1.3622(16) -0.3290(8)
C58 C 0.2649(9) 1.4846(15) -0.3595(8)
C59 C 0.3053(8) 1.4815(14) -0.4190(8)
C60 C 0.3276(8) 1.3537(14) -0.4454(7)
C61 C 0.6830(8) 1.2048(15) -0.0815(7)
H1 H 0.6836 1.1051 -0.0781
H2 H 0.7354 1.2366 -0.0898
C62 C 0.6447(8) 1.4071(15) -0.0420(8)
H3 H 0.6945 1.4537 -0.0468
H4 H 0.6182 1.4571 -0.0079
C63 C 0.7263(9) 1.2557(16) 0.0386(8)
H5 H 0.7712 1.3074 0.0270
H6 H 0.7414 1.1608 0.0456
H7 H 0.7102 1.2918 0.0812
Ag1A Ag 0.44573(6) 1.64999(17) -0.01672(6)
O2A O 0.6193(7) 0.9385(11) -0.0260(6)
C11A C 0.5229(9) 1.0391(16) 0.1257(8)
Ag2 Ag 1.04873(6) 1.15201(17) 0.98232(6)
O4 O 0.9087(6) 1.2306(10) 0.9737(6)
O5 O 0.8699(6) 1.4391(12) 0.9723(6)
O6 O 0.9873(5) 1.3896(11) 0.9464(6)
N3 N 1.1661(7) 1.2677(12) 1.0206(7)
N4 N 0.9237(8) 1.3542(16) 0.9624(7)
C64 C 1.1610(9) 1.2575(16) 1.1397(8)
C65 C 1.1279(8) 1.3993(16) 1.1108(8)
C66 C 1.0360(9) 1.4059(16) 1.1044(8)
C67 C 0.9878(8) 1.3013(14) 1.1106(7)
C68 C 1.0204(7) 1.1691(19) 1.1354(7)
C69 C 1.0991(8) 1.151(2) 1.1547(6)
C70 C 1.2124(9) 1.2613(15) 1.2108(8)
C71 C 1.2405(8) 1.3804(15) 1.2439(7)
C72 C 1.2085(9) 1.5128(16) 1.2176(8)
C73 C 1.1516(8) 1.5179(14) 1.1611(8)
C74 C 1.0863(9) 1.6083(15) 1.1622(8)
C75 C 1.0170(9) 1.5406(16) 1.1241(8)
C76 C 0.9440(9) 1.5607(15) 1.1470(8)
C77 C 0.8917(8) 1.4468(14) 1.1513(7)
C78 C 0.9158(9) 1.3209(16) 1.1330(8)
C79 C 0.8990(8) 1.2086(14) 1.1711(7)
C80 C 0.9637(8) 1.1124(13) 1.1740(7)
C81 C 0.9905(8) 1.0374(15) 1.2352(8)
C82 C 1.0707(9) 1.0239(15) 1.2552(8)
C83 C 1.1258(10) 1.0800(17) 1.2179(8)
C84 C 1.1958(7) 1.150(2) 1.2516(7)
C85 C 1.2097(6) 1.156(2) 1.3233(6)
C86 C 1.2387(9) 1.2697(15) 1.3574(8)
C87 C 1.2534(8) 1.3858(14) 1.3186(7)
C88 C 1.2302(8) 1.5225(13) 1.3388(7)
C89 C 1.2025(8) 1.5934(15) 1.2771(8)
C90 C 1.1411(8) 1.6836(15) 1.2763(7)
C91 C 1.0820(8) 1.6926(15) 1.2173(8)
C92 C 1.0053(8) 1.7136(14) 1.2407(7)
C93 C 0.9379(7) 1.650(2) 1.2074(6)
C94 C 0.8816(9) 1.5886(16) 1.2484(8)
C95 C 0.8535(8) 1.4667(15) 1.2136(8)
C96 C 0.8398(9) 1.3568(16) 1.2523(8)
C97 C 0.8626(9) 1.2198(15) 1.2335(8)
C98 C 0.8885(6) 1.1460(19) 1.2925(6)
C99 C 0.9525(8) 1.0575(14) 1.2932(8)
C100 C 1.0112(9) 1.0496(16) 1.3561(8)
C101 C 1.0890(9) 1.0284(14) 1.3322(8)
C102 C 1.1537(9) 1.0932(15) 1.3639(7)
C103 C 1.1485(7) 1.1764(15) 1.4226(6)
C104 C 1.2016(8) 1.2888(14) 1.4185(7)
C105 C 1.1805(8) 1.4182(14) 1.4397(7)
C106 C 1.1956(9) 1.5338(15) 1.3987(8)
C107 C 1.1307(8) 1.6339(17) 1.3953(7)
C108 C 1.1058(8) 1.7027(15) 1.3388(8)
C109 C 1.0214(8) 1.7205(13) 1.3168(7)
C110 C 0.9659(7) 1.661(2) 1.3544(6)
C111 C 0.8936(8) 1.5900(15) 1.3189(7)
C112 C 0.8814(8) 1.4769(14) 1.3611(7)
C113 C 0.8540(7) 1.3609(13) 1.3260(6)
C114 C 0.8853(8) 1.2306(13) 1.3525(7)
C115 C 0.9411(8) 1.2245(14) 1.4112(7)
C116 C 1.0068(8) 1.1334(17) 1.4121(7)
C117 C 1.0764(7) 1.1977(13) 1.4464(6)
C118 C 1.0550(8) 1.3309(15) 1.4671(7)
C119 C 1.1028(8) 1.4404(13) 1.4635(7)
C120 C 1.0700(8) 1.5706(13) 1.4365(7)
C121 C 0.9932(8) 1.5832(13) 1.4164(7)
C122 C 0.9414(8) 1.4663(13) 1.4210(7)
C123 C 0.9708(8) 1.3507(14) 1.4467(7)
C124 C 1.1571(10) 1.4101(17) 1.0374(9)
H8 H 1.1176 1.4551 1.0029
H9 H 1.2076 1.4592 1.0406
C125 C 1.2097(8) 1.2031(15) 1.0846(7)
H10 H 1.2651 1.2335 1.0938
H11 H 1.2080 1.1033 1.0818
C126 C 1.2109(8) 1.2533(15) 0.9597(8)
H12 H 1.2665 1.2731 0.9748
H13 H 1.1897 1.3166 0.9231
H14 H 1.2054 1.1608 0.9418
Ag2A Ag 0.95127(6) 1.65201(17) 1.01768(6)
C75A C 0.9830(9) 1.0406(16) 0.8759(8)
C76A C 1.0560(9) 1.0607(15) 0.8530(8)
O7 O 1.2299(12) 0.879(3) 0.5190(11)
H15 H 1.2192 0.7971 0.5250
C127 C 1.2705(15) 0.887(3) 0.4755(14)
H16 H 1.2679 0.9786 0.4564
H17 H 1.2524 0.8224 0.4385
H18 H 1.3248 0.8660 0.4953
loop_
_geom_bond_atom_site_label_1
_geom_bond_atom_site_label_2
_geom_bond_site_symmetry_1
_geom_bond_site_symmetry_2
Ag1 O1 1_555 1_555
O1 N2 1_555 1_555
O2 N2 1_555 1_555
O3 N2 1_555 1_555
N1 Ag1 1_555 1_555
C1 C2 1_555 1_555
C2 C3 1_555 1_555
C3 C4 1_555 1_555
C4 C5 1_555 1_555
C5 C6 1_555 1_555
C6 C1 1_555 1_555
C7 C1 1_555 1_555
C8 C7 1_555 1_555
C9 C8 1_555 1_555
C10 C2 1_555 1_555
C11 C10 1_555 1_555
C12 C3 1_555 1_555
C13 C12 1_555 1_555
C14 C13 1_555 1_555
C15 C4 1_555 1_555
C16 C15 1_555 1_555
C17 C5 1_555 1_555
C18 C17 1_555 1_555
C19 C18 1_555 1_555
C20 C6 1_555 1_555
C21 C7 1_555 1_555
C22 C21 1_555 1_555
C23 C22 1_555 1_555
C24 C8 1_555 1_555
C25 C24 1_555 1_555
C26 C9 1_555 1_555
C27 C26 1_555 1_555
C28 C11 1_555 1_555
C29 C28 1_555 1_555
C30 C13 1_555 1_555
C31 C30 1_555 1_555
C32 C14 1_555 1_555
C33 C32 1_555 1_555
C34 C16 1_555 1_555
C35 C34 1_555 1_555
C36 C18 1_555 1_555
C37 C36 1_555 1_555
C38 C19 1_555 1_555
C39 C22 1_555 1_555
C40 C39 1_555 1_555
C41 C23 1_555 1_555
C42 C41 1_555 1_555
C43 C25 1_555 1_555
C44 C43 1_555 1_555
C45 C27 1_555 1_555
C46 C29 1_555 1_555
C47 C46 1_555 1_555
C48 C31 1_555 1_555
C49 C48 1_555 1_555
C50 C33 1_555 1_555
C51 C35 1_555 1_555
C52 C51 1_555 1_555
C53 C37 1_555 1_555
C54 C40 1_555 1_555
C55 C54 1_555 1_555
C56 C42 1_555 1_555
C57 C44 1_555 1_555
C58 C47 1_555 1_555
C59 C49 1_555 1_555
C60 C52 1_555 1_555
C61 N1 1_555 1_555
H1 C61 1_555 1_555
H2 C61 1_555 1_555
C62 N1 1_555 1_555
H3 C62 1_555 1_555
H4 C62 1_555 1_555
C63 N1 1_555 1_555
H5 C63 1_555 1_555
H6 C63 1_555 1_555
H7 C63 1_555 1_555
Ag2 O4 1_555 1_555
O4 N4 1_555 1_555
O5 N4 1_555 1_555
O6 N4 1_555 1_555
N3 Ag2 1_555 1_555
C64 C65 1_555 1_555
C65 C66 1_555 1_555
C66 C67 1_555 1_555
C67 C68 1_555 1_555
C68 C69 1_555 1_555
C69 C64 1_555 1_555
C70 C64 1_555 1_555
C71 C70 1_555 1_555
C72 C71 1_555 1_555
C73 C65 1_555 1_555
C74 C73 1_555 1_555
C75 C66 1_555 1_555
C76 C75 1_555 1_555
C77 C76 1_555 1_555
C78 C67 1_555 1_555
C79 C78 1_555 1_555
C80 C68 1_555 1_555
C81 C80 1_555 1_555
C82 C81 1_555 1_555
C83 C69 1_555 1_555
C84 C70 1_555 1_555
C85 C84 1_555 1_555
C86 C85 1_555 1_555
C87 C71 1_555 1_555
C88 C87 1_555 1_555
C89 C72 1_555 1_555
C90 C89 1_555 1_555
C91 C74 1_555 1_555
C92 C91 1_555 1_555
C93 C76 1_555 1_555
C94 C93 1_555 1_555
C95 C77 1_555 1_555
C96 C95 1_555 1_555
C97 C79 1_555 1_555
C98 C97 1_555 1_555
C99 C81 1_555 1_555
C100 C99 1_555 1_555
C101 C82 1_555 1_555
C102 C85 1_555 1_555
C103 C102 1_555 1_555
C104 C86 1_555 1_555
C105 C104 1_555 1_555
C106 C88 1_555 1_555
C107 C106 1_555 1_555
C108 C90 1_555 1_555
C109 C92 1_555 1_555
C110 C109 1_555 1_555
C111 C94 1_555 1_555
C112 C111 1_555 1_555
C113 C96 1_555 1_555
C114 C98 1_555 1_555
C115 C114 1_555 1_555
C116 C100 1_555 1_555
C117 C103 1_555 1_555
C118 C117 1_555 1_555
C119 C105 1_555 1_555
C120 C107 1_555 1_555
C121 C110 1_555 1_555
C122 C112 1_555 1_555
C123 C115 1_555 1_555
C124 N3 1_555 1_555
H8 C124 1_555 1_555
H9 C124 1_555 1_555
C125 N3 1_555 1_555
H10 C125 1_555 1_555
H11 C125 1_555 1_555
C126 N3 1_555 1_555
H12 C126 1_555 1_555
H13 C126 1_555 1_555
H14 C126 1_555 1_555
O7 H15 1_555 1_555
C127 O7 1_555 1_555
H16 C127 1_555 1_555
H17 C127 1_555 1_555
H18 C127 1_555 1_555
Ag1A O2 1_555 1_555
O2A Ag1 1_555 1_555
C11A Ag1 1_555 1_555
Ag2A C75 1_555 1_555
C75A Ag2 1_555 1_555
C76A Ag2 1_555 1_555
C1 C61 1_555 1_555
C2 C62 1_555 1_555
C9 C10 1_555 1_555
C11 C12 1_555 1_555
C11 Ag1A 1_555 1_555
C14 C15 1_555 1_555
C16 C17 1_555 1_555
C19 C20 1_555 1_555
C20 C21 1_555 1_555
C23 C24 1_555 1_555
C25 C26 1_555 1_555
C27 C28 1_555 1_555
C29 C30 1_555 1_555
C31 C32 1_555 1_555
C33 C34 1_555 1_555
C35 C36 1_555 1_555
C37 C38 1_555 1_555
C38 C39 1_555 1_555
C40 C41 1_555 1_555
C42 C43 1_555 1_555
C44 C45 1_555 1_555
C45 C46 1_555 1_555
C47 C48 1_555 1_555
C49 C50 1_555 1_555
C50 C51 1_555 1_555
C52 C53 1_555 1_555
C53 C54 1_555 1_555
C55 C56 1_555 1_555
C55 C60 1_555 1_555
C56 C57 1_555 1_555
C57 C58 1_555 1_555
C58 C59 1_555 1_555
C59 C60 1_555 1_555
C64 C125 1_555 1_555
C65 C124 1_555 1_555
C72 C73 1_555 1_555
C74 C75 1_555 1_555
C76 Ag2A 1_555 1_555
C77 C78 1_555 1_555
C79 C80 1_555 1_555
C82 C83 1_555 1_555
C83 C84 1_555 1_555
C86 C87 1_555 1_555
C88 C89 1_555 1_555
C90 C91 1_555 1_555
C92 C93 1_555 1_555
C94 C95 1_555 1_555
C96 C97 1_555 1_555
C98 C99 1_555 1_555
C100 C101 1_555 1_555
C101 C102 1_555 1_555
C103 C104 1_555 1_555
C105 C106 1_555 1_555
C107 C108 1_555 1_555
C108 C109 1_555 1_555
C110 C111 1_555 1_555
C112 C113 1_555 1_555
C113 C114 1_555 1_555
C115 C116 1_555 1_555
C116 C117 1_555 1_555
C118 C119 1_555 1_555
C118 C123 1_555 1_555
C119 C120 1_555 1_555
C120 C121 1_555 1_555
C121 C122 1_555 1_555
C122 C123 1_555 1_555
C75A C76A 1_555 1_555

#END
