
#######################################################################
#
#                 Cambridge Crystallographic Data Centre
#                                CCDC 
#
#######################################################################
#
# If this CIF has been generated from an entry in the Cambridge 
# Structural Database, then it will include bibliographic, chemical, 
# crystal, experimental, refinement or atomic coordinate data resulting 
# from the CCDC's data processing and validation procedures.
#
#######################################################################

data_QOXBOW
_symmetry_cell_setting           monoclinic
_symmetry_space_group_name_H-M   'P 21/c'
_symmetry_Int_Tables_number      14
_space_group_name_Hall           '-P 2ybc'
loop_
_symmetry_equiv_pos_site_id
_symmetry_equiv_pos_as_xyz
1 x,y,z
2 -x,1/2+y,1/2-z
3 -x,-y,-z
4 x,1/2-y,1/2+z
_cell_length_a                   18.5986(4)
_cell_length_b                   8.0499(2)
_cell_length_c                   12.9360(3)
_cell_angle_alpha                90
_cell_angle_beta                 90.7420(10)
_cell_angle_gamma                90
_cell_volume                     1936.58
loop_
_atom_site_label
_atom_site_type_symbol
_atom_site_fract_x
_atom_site_fract_y
_atom_site_fract_z
C1 C 0.2005(2) -0.4063(4) 0.2808(2)
H1 H 0.2048 -0.5249 0.2763
H2 H 0.2239 -0.3560 0.2229
H3 H 0.1506 -0.3759 0.2801
C2 C 0.23511(15) -0.3473(3) 0.3788(2)
C3 C 0.27472(17) -0.1850(3) 0.4997(3)
H4 H 0.2856 -0.0909 0.5385
C4 C 0.29229(17) -0.3424(4) 0.5249(2)
H5 H 0.3170 -0.3753 0.5844
C5 C 0.0896(2) -0.1529(5) 0.5176(3)
H6 H 0.0544 -0.2117 0.5570
H7 H 0.0958 -0.0433 0.5456
H8 H 0.1345 -0.2114 0.5210
C6 C 0.06492(17) -0.1409(4) 0.4081(2)
C7 C -0.0033(2) -0.1708(4) 0.2700(3)
H9 H -0.0412 -0.2001 0.2262
C8 C 0.05605(18) -0.0868(4) 0.2439(3)
H10 H 0.0663 -0.0474 0.1782
C9 C 0.4115(2) -0.4885(5) 0.2857(3)
H11 H 0.4523 -0.4553 0.2460
H12 H 0.3879 -0.3918 0.3124
H13 H 0.3785 -0.5494 0.2423
C10 C 0.43567(17) -0.5954(4) 0.3726(3)
C11 C 0.5073(2) -0.7369(5) 0.4762(3)
H14 H 0.5481 -0.7844 0.5064
C12 C 0.43945(19) -0.7534(4) 0.5077(3)
H15 H 0.4249 -0.8155 0.5644
N1 N 0.23789(14) -0.1872(3) 0.40678(19)
N2 N 0.26757(13) -0.4459(3) 0.44797(19)
N3 N 0.09944(13) -0.0682(3) 0.33079(19)
N4 N 0.00272(16) -0.2051(3) 0.3735(2)
N5 N 0.39441(13) -0.6643(3) 0.4431(2)
N6 N 0.50492(15) -0.6365(4) 0.3911(3)
N7 N 0.18619(16) 0.1310(4) 0.1950(2)
N8 N 0.23611(15) 0.1954(3) 0.15451(19)
N9 N 0.28392(16) 0.2598(4) 0.1134(2)
N10 N 0.29980(13) 0.1096(3) 0.3475(2)
N11 N 0.35247(15) 0.0439(3) 0.3153(2)
N12 N 0.40284(18) -0.0207(5) 0.2851(3)
N13 N 0.18578(14) -0.7573(3) 0.4293(2)
N14 N 0.13366(14) -0.6796(3) 0.4505(2)
N15 N 0.08263(16) -0.6070(4) 0.4698(3)
Cu1 Cu 0.200402(19) 0.00837(4) 0.33149(3)
Cu2 Cu 0.287995(18) -0.68464(4) 0.43706(3)
N9C N 0.28392(16) -0.7598(4) 0.6134(2)
N10_2 N 0.29980(13) -0.8904(3) 0.3475(2)
N13_2 N 0.18578(14) 0.2427(3) 0.4293(2)
Cu1_2 Cu 0.200402(19) -0.99163(4) 0.33149(3)
Cu2_2 Cu 0.287995(18) 0.31536(4) 0.43706(3)
Cu2C Cu 0.287995(18) 0.18464(4) -0.06294(3)
loop_
_geom_bond_atom_site_label_1
_geom_bond_atom_site_label_2
_geom_bond_site_symmetry_1
_geom_bond_site_symmetry_2
C1 H1 1_555 1_555
H2 C1 1_555 1_555
H3 C1 1_555 1_555
C2 C1 1_555 1_555
C3 H4 1_555 1_555
C4 C3 1_555 1_555
H5 C4 1_555 1_555
C5 H6 1_555 1_555
H7 C5 1_555 1_555
H8 C5 1_555 1_555
C6 C5 1_555 1_555
C7 H9 1_555 1_555
C8 C7 1_555 1_555
H10 C8 1_555 1_555
C9 H11 1_555 1_555
H12 C9 1_555 1_555
H13 C9 1_555 1_555
C10 C9 1_555 1_555
C11 H14 1_555 1_555
C12 C11 1_555 1_555
H15 C12 1_555 1_555
N1 C2 1_555 1_555
N2 C2 1_555 1_555
N3 C6 1_555 1_555
N4 C6 1_555 1_555
N5 C10 1_555 1_555
N6 C10 1_555 1_555
N7 N8 1_555 1_555
N8 N9 1_555 1_555
N9 Cu2C 1_555 1_555
N10 N11 1_555 1_555
N11 N12 1_555 1_555
N13 N14 1_555 1_555
N14 N15 1_555 1_555
Cu1 N1 1_555 1_555
Cu2 N2 1_555 1_555
N9C Cu2 1_555 1_555
N10_2 Cu2 1_555 1_555
N13_2 Cu1 1_555 1_555
Cu1_2 N13 1_555 1_555
Cu2_2 N10 1_555 1_555
C3 N1 1_555 1_555
C4 N2 1_555 1_555
C7 N4 1_555 1_555
C8 N3 1_555 1_555
C11 N6 1_555 1_555
C12 N5 1_555 1_555
N3 Cu1 1_555 1_555
N5 Cu2 1_555 1_555
N7 Cu1 1_555 1_555
N10 Cu1 1_555 1_555
N13 Cu2 1_555 1_555
N10_2 Cu1_2 1_555 1_555
N13_2 Cu2_2 1_555 1_555

#END
