
#######################################################################
#
#                 Cambridge Crystallographic Data Centre
#                                CCDC 
#
#######################################################################
#
# If this CIF has been generated from an entry in the Cambridge 
# Structural Database, then it will include bibliographic, chemical, 
# crystal, experimental, refinement or atomic coordinate data resulting 
# from the CCDC's data processing and validation procedures.
#
#######################################################################

data_QOXBUC
_symmetry_cell_setting           triclinic
_symmetry_space_group_name_H-M   'P -1'
_symmetry_Int_Tables_number      2
_space_group_name_Hall           '-P 1'
loop_
_symmetry_equiv_pos_site_id
_symmetry_equiv_pos_as_xyz
1 x,y,z
2 -x,-y,-z
_cell_length_a                   7.6956(3)
_cell_length_b                   8.7246(4)
_cell_length_c                   13.1172(6)
_cell_angle_alpha                83.099(3)
_cell_angle_beta                 77.457(2)
_cell_angle_gamma                71.479(2)
_cell_volume                     813.911
loop_
_atom_site_label
_atom_site_type_symbol
_atom_site_fract_x
_atom_site_fract_y
_atom_site_fract_z
C1 C 0.5389(11) -0.2230(10) 0.8761(6)
H1 H 0.4885 -0.3088 0.8894
C2 C 0.7232(11) -0.2367(11) 0.8482(6)
H2 H 0.8219 -0.3318 0.8385
C3 C 0.5641(10) 0.0134(10) 0.8553(7)
H3 H 0.5350 0.1256 0.8499
C4 C 0.1853(12) 0.3763(10) 0.8881(6)
H4 H 0.1654 0.3859 0.9598
C5 C 0.2216(11) 0.4879(9) 0.8150(6)
H5 H 0.2324 0.5869 0.8274
C6 C 0.2139(10) 0.2867(9) 0.7407(6)
H6 H 0.2180 0.2204 0.6892
C7 C -0.0164(11) 0.8032(11) 0.5207(8)
H7 H 0.0596 0.8629 0.4829
C8 C -0.2038(12) 0.8497(12) 0.5325(7)
H8 H -0.2802 0.9454 0.5066
C9 C -0.1039(11) 0.6137(10) 0.6121(6)
H9 H -0.1032 0.5170 0.6508
N1 N -0.1079(8) 0.1340(8) 0.9785(5)
N2 N -0.2013(9) 0.2639(8) 0.9504(5)
N3 N -0.2870(13) 0.3895(11) 0.9252(8)
N4 N 0.1161(9) -0.0658(9) 0.7667(6)
N5 N 0.2319(8) -0.1439(7) 0.7035(5)
N6 N 0.3455(9) -0.2232(9) 0.6391(6)
N7 N 0.4386(8) -0.0619(7) 0.8815(5)
N8 N 0.7342(9) -0.0831(10) 0.8376(6)
H10 H 0.8347 -0.0549 0.8220
N9 N 0.1816(8) 0.2466(7) 0.8418(4)
N10 N 0.2403(8) 0.4329(7) 0.7198(4)
N11 N 0.0461(8) 0.6575(7) 0.5714(5)
N12 N -0.2573(9) 0.7261(9) 0.5906(6)
H11 H -0.3698 0.7216 0.6099
N13 N 0.5819(8) 0.4127(8) 0.5691(5)
N14 N 0.6567(10) 0.3376(9) 0.6376(6)
N15 N 0.7270(13) 0.2713(15) 0.7043(8)
Cu1 Cu 0.16325(11) 0.03842(10) 0.91386(7)
Cu2 Cu 0.30908(11) 0.54119(10) 0.58303(6)
N1A N 0.1079(8) -0.1340(8) 1.0215(5)
N6_2 N 0.3455(9) 0.7768(9) 0.6391(6)
N13A N 0.4181(8) 0.5873(8) 0.4309(5)
Cu1A Cu -0.16325(11) -0.03842(10) 1.08614(7)
Cu2_2 Cu 0.30908(11) -0.45881(10) 0.58303(6)
Cu2A Cu 0.69092(11) 0.45881(10) 0.41697(6)
loop_
_geom_bond_atom_site_label_1
_geom_bond_atom_site_label_2
_geom_bond_site_symmetry_1
_geom_bond_site_symmetry_2
C1 H1 1_555 1_555
C2 C1 1_555 1_555
H2 C2 1_555 1_555
C3 H3 1_555 1_555
C4 H4 1_555 1_555
C5 C4 1_555 1_555
H5 C5 1_555 1_555
C6 H6 1_555 1_555
C7 H7 1_555 1_555
C8 C7 1_555 1_555
H8 C8 1_555 1_555
C9 H9 1_555 1_555
N1 N2 1_555 1_555
N2 N3 1_555 1_555
N4 N5 1_555 1_555
N5 N6 1_555 1_555
N6 Cu2_2 1_555 1_555
N7 C1 1_555 1_555
N8 C2 1_555 1_555
H10 N8 1_555 1_555
N9 C4 1_555 1_555
N10 C5 1_555 1_555
N11 C7 1_555 1_555
N12 C8 1_555 1_555
H11 N12 1_555 1_555
N13 N14 1_555 1_555
N14 N15 1_555 1_555
Cu1 N1 1_555 1_555
Cu2 N10 1_555 1_555
N1A Cu1 1_555 1_555
N6_2 Cu2 1_555 1_555
N13A Cu2 1_555 1_555
Cu1A N1 1_555 1_555
Cu2A N13 1_555 1_555
C3 N7 1_555 1_555
C3 N8 1_555 1_555
C6 N9 1_555 1_555
C6 N10 1_555 1_555
C9 N11 1_555 1_555
C9 N12 1_555 1_555
N4 Cu1 1_555 1_555
N7 Cu1 1_555 1_555
N9 Cu1 1_555 1_555
N11 Cu2 1_555 1_555
N13 Cu2 1_555 1_555
N1A Cu1A 1_555 1_555
N13A Cu2A 1_555 1_555

#END
