
#######################################################################
#
#                 Cambridge Crystallographic Data Centre
#                                CCDC 
#
#######################################################################
#
# If this CIF has been generated from an entry in the Cambridge 
# Structural Database, then it will include bibliographic, chemical, 
# crystal, experimental, refinement or atomic coordinate data resulting 
# from the CCDC's data processing and validation procedures.
#
#######################################################################

data_QOXCAJ
_symmetry_cell_setting           triclinic
_symmetry_space_group_name_H-M   'P -1'
_symmetry_Int_Tables_number      2
_space_group_name_Hall           '-P 1'
loop_
_symmetry_equiv_pos_site_id
_symmetry_equiv_pos_as_xyz
1 x,y,z
2 -x,-y,-z
_cell_length_a                   7.84820(10)
_cell_length_b                   8.7740(2)
_cell_length_c                   15.4669(3)
_cell_angle_alpha                90.3090(10)
_cell_angle_beta                 90.5480(10)
_cell_angle_gamma                107.3910(10)
_cell_volume                     1016.28
loop_
_atom_site_label
_atom_site_type_symbol
_atom_site_fract_x
_atom_site_fract_y
_atom_site_fract_z
Cu1 Cu 0.87239(6) 0.01326(5) 0.34637(3)
Cu2 Cu 0.86975(6) -0.46881(5) 0.07153(3)
N1 N 0.9917(4) -0.5744(4) 0.1855(2)
C1 C 0.8847(5) -0.2324(5) 0.2141(2)
N2 N 0.6163(4) -0.5766(4) 0.0994(2)
C2 C 0.3579(6) -0.7604(6) 0.1231(3)
N3 N 0.8352(4) 0.0953(4) 0.4647(2)
N4 N 0.8951(4) -0.6526(4) 0.2370(2)
N5 N 0.3720(5) -0.2811(4) 0.4018(3)
N6 N 0.6167(4) -0.1187(4) 0.3499(2)
N7 N 0.8735(4) -0.2671(3) 0.12914(19)
N8 N 1.1289(4) 0.1431(4) 0.3468(2)
N9 N 0.7991(5) -0.7328(4) 0.2879(2)
C3 C 0.3499(6) -0.2816(5) 0.3143(3)
N10 N 0.8933(4) -0.0807(4) 0.23041(19)
C4 C 0.5003(5) -0.1830(5) 0.2831(3)
C5 C 0.8742(6) -0.1273(5) 0.0899(3)
N11 N 0.9375(4) 0.1588(3) 0.5195(2)
N12 N 1.1110(4) -0.3663(4) 0.0171(2)
N13 N 0.3360(5) -0.6137(5) 0.1316(2)
N14 N 1.2213(5) -0.2587(4) 0.0522(2)
C6 C 1.2055(5) 0.2990(5) 0.3716(3)
C7 C 0.8864(6) -0.0145(5) 0.1512(3)
C8 C 0.5293(6) -0.7372(5) 0.1034(3)
C9 C 0.4939(6) -0.5065(6) 0.1174(3)
N15 N 1.3230(6) -0.1555(5) 0.0853(3)
C10 C 0.5323(6) -0.1823(5) 0.4197(3)
C11 C 1.2629(5) 0.0899(5) 0.3254(3)
C12 C 1.3827(6) 0.3378(5) 0.3645(3)
N16 N 1.4175(5) 0.2038(5) 0.3360(3)
N17 N 1.0309(5) 0.2199(4) 0.5772(2)
H1 H 0.517(5) -0.402(5) 0.122(2)
H2 H 0.524(5) -0.154(4) 0.232(2)
H3 H 1.254(5) -0.011(5) 0.301(3)
H4 H 1.505(5) 0.200(5) 0.326(3)
H5 H 0.578(6) -0.158(5) 0.468(3)
H6 H 0.314(6) -0.337(5) 0.437(3)
H7 H 0.872(5) -0.317(5) 0.263(3)
H8 H 0.889(5) 0.089(5) 0.145(2)
H9 H 1.471(6) 0.436(5) 0.376(3)
H10 H 0.253(6) -0.586(5) 0.150(3)
H11 H 0.581(5) -0.812(5) 0.096(3)
H12 H 1.143(5) 0.363(5) 0.390(3)
H13 H 0.253(6) -0.343(5) 0.287(3)
H14 H 0.282(6) -0.845(5) 0.133(3)
H15 H 0.858(5) -0.127(5) 0.031(3)
Cu1_2 Cu 0.87239(6) -0.98674(5) 0.34637(3)
Cu1A Cu 1.12761(6) -0.01326(5) 0.65363(3)
Cu2A Cu 1.13025(6) -0.53119(5) -0.07153(3)
N9_2 N 0.7991(5) 0.2672(4) 0.2879(2)
N12A N 0.8890(4) -0.6337(4) -0.0171(2)
N17A N 0.9691(5) -0.2199(4) 0.4228(2)
O1 O 0.2050(4) -0.4457(4) 0.5478(2)
loop_
_geom_bond_atom_site_label_1
_geom_bond_atom_site_label_2
_geom_bond_site_symmetry_1
_geom_bond_site_symmetry_2
Cu1 N3 1_555 1_555
Cu2 N1 1_555 1_555
N1 N4 1_555 1_555
C1 N7 1_555 1_555
N2 Cu2 1_555 1_555
C2 N13 1_555 1_555
N3 N11 1_555 1_555
N4 N9 1_555 1_555
N5 C3 1_555 1_555
N6 Cu1 1_555 1_555
N7 Cu2 1_555 1_555
N8 Cu1 1_555 1_555
N9 Cu1_2 1_555 1_555
C3 C4 1_555 1_555
N10 Cu1 1_555 1_555
C4 N6 1_555 1_555
C5 N7 1_555 1_555
N11 N17 1_555 1_555
N12 Cu2 1_555 1_555
N13 C9 1_555 1_555
N14 N12 1_555 1_555
C6 N8 1_555 1_555
C7 N10 1_555 1_555
C8 N2 1_555 1_555
C9 N2 1_555 1_555
N15 N14 1_555 1_555
C10 N5 1_555 1_555
C11 N8 1_555 1_555
C12 C6 1_555 1_555
N16 C11 1_555 1_555
N17 Cu1A 1_555 1_555
H1 C9 1_555 1_555
H2 C4 1_555 1_555
H3 C11 1_555 1_555
H4 N16 1_555 1_555
H5 C10 1_555 1_555
H6 N5 1_555 1_555
H7 C1 1_555 1_555
H8 C7 1_555 1_555
H9 C12 1_555 1_555
H10 N13 1_555 1_555
H11 C8 1_555 1_555
H12 C6 1_555 1_555
H13 C3 1_555 1_555
H14 C2 1_555 1_555
H15 C5 1_555 1_555
Cu2A N12 1_555 1_555
N9_2 Cu1 1_555 1_555
N12A Cu2 1_555 1_555
N17A Cu1 1_555 1_555
C1 N10 1_555 1_555
C2 C8 1_555 1_555
N6 C10 1_555 1_555
C5 C7 1_555 1_555
C12 N16 1_555 1_555
Cu2A N12A 1_555 1_555

#END
