
#######################################################################
#
#                 Cambridge Crystallographic Data Centre
#                                CCDC 
#
#######################################################################
#
# If this CIF has been generated from an entry in the Cambridge 
# Structural Database, then it will include bibliographic, chemical, 
# crystal, experimental, refinement or atomic coordinate data resulting 
# from the CCDC's data processing and validation procedures.
#
#######################################################################

data_QOXFEO01
_symmetry_cell_setting           orthorhombic
_symmetry_space_group_name_H-M   'P n n a'
_symmetry_Int_Tables_number      52
_space_group_name_Hall           '-P 2a 2bc'
loop_
_symmetry_equiv_pos_site_id
_symmetry_equiv_pos_as_xyz
1 x,y,z
2 1/2-x,-y,z
3 1/2-x,1/2+y,1/2-z
4 x,1/2-y,1/2-z
5 -x,-y,-z
6 1/2+x,y,-z
7 1/2+x,1/2-y,1/2+z
8 -x,1/2+y,1/2+z
_cell_length_a                   10.2524(8)
_cell_length_b                   11.5653(9)
_cell_length_c                   7.4719(6)
_cell_angle_alpha                90
_cell_angle_beta                 90
_cell_angle_gamma                90
_cell_volume                     885.959
loop_
_atom_site_label
_atom_site_type_symbol
_atom_site_fract_x
_atom_site_fract_y
_atom_site_fract_z
Co1 Co 0.07275(3) 0.2500 0.2500
V1 V -0.22520(2) 0.14620(2) 0.09835(3)
O1 O -0.06663(10) 0.17093(9) 0.08879(14)
O2 O -0.2500 0.0000 0.1718(2)
O3 O -0.29416(16) 0.2500 0.2500
O4 O -0.28709(11) 0.16738(10) -0.10355(14)
N1 N 0.04442(13) 0.39935(11) 0.08378(16)
C1 C 0.06302(14) 0.50416(13) 0.1565(2)
C2 C -0.01913(16) 0.39596(13) -0.0727(2)
H1 H -0.030(2) 0.326(2) -0.136(3)
H2 H 0.099(2) 0.506(2) 0.262(3)
Co1G Co -0.07275(3) 0.7500 -0.2500
Co1E Co -0.42725(3) 0.2500 -0.2500
Co1E_2 Co -0.42725(3) 0.2500 0.7500
V1C V -0.22520(2) 0.35380(2) 0.40165(3)
V1A V -0.27480(2) -0.14620(2) 0.09835(3)
O1C O -0.06663(10) 0.32907(9) 0.41121(14)
O2B O -0.2500 0.5000 0.3282(2)
O4F O 0.21291(11) 0.33262(10) 0.39645(14)
O4E O 0.21291(11) 0.16738(10) 0.10355(14)
O4C O -0.28709(11) 0.33262(10) 0.60355(14)
N1D N -0.04442(13) 0.60065(11) -0.08378(16)
N1C N 0.04442(13) 0.10065(11) 0.41622(16)
C1D C -0.06302(14) 0.49584(13) -0.1565(2)
C2D C 0.01913(16) 0.60404(13) 0.0727(2)
H1D H 0.030(2) 0.674(2) 0.136(3)
H2D H -0.099(2) 0.494(2) -0.262(3)
loop_
_geom_bond_atom_site_label_1
_geom_bond_atom_site_label_2
_geom_bond_site_symmetry_1
_geom_bond_site_symmetry_2
Co1 O1 1_555 1_555
V1 O1 1_555 1_555
O2 V1 1_555 1_555
O3 V1 1_555 1_555
O4 V1 1_555 1_555
N1 Co1 1_555 1_555
C1 N1 1_555 1_555
C2 N1 1_555 1_555
H1 C2 1_555 1_555
H2 C1 1_555 1_555
Co1G N1D 1_555 1_555
Co1E O4 1_555 1_555
Co1E_2 O4C 1_555 1_555
V1C O3 1_555 1_555
V1A O2 1_555 1_555
O1C Co1 1_555 1_555
O2B V1C 1_555 1_555
O4F Co1 1_555 1_555
O4E Co1 1_555 1_555
O4C V1C 1_555 1_555
N1D C1D 1_555 1_555
N1C Co1 1_555 1_555
C1D C2 1_555 1_555
C2D C1 1_555 1_555
H1D C2D 1_555 1_555
H2D C1D 1_555 1_555
V1C O1C 1_555 1_555
N1D C2D 1_555 1_555

#END
