
#######################################################################
#
#                 Cambridge Crystallographic Data Centre
#                                CCDC 
#
#######################################################################
#
# If this CIF has been generated from an entry in the Cambridge 
# Structural Database, then it will include bibliographic, chemical, 
# crystal, experimental, refinement or atomic coordinate data resulting 
# from the CCDC's data processing and validation procedures.
#
#######################################################################

data_QOXFEO
_symmetry_cell_setting           orthorhombic
_symmetry_space_group_name_H-M   'P n n a'
_symmetry_Int_Tables_number      52
_space_group_name_Hall           '-P 2a 2bc'
loop_
_symmetry_equiv_pos_site_id
_symmetry_equiv_pos_as_xyz
1 x,y,z
2 1/2+x,y,-z
3 1/2+x,1/2-y,1/2+z
4 -x,1/2+y,1/2+z
5 -x,-y,-z
6 1/2-x,-y,z
7 1/2-x,1/2+y,1/2-z
8 x,1/2-y,1/2-z
_cell_length_a                   10.2793(8)
_cell_length_b                   11.5639(9)
_cell_length_c                   7.4822(6)
_cell_angle_alpha                90
_cell_angle_beta                 90
_cell_angle_gamma                90
_cell_volume                     889.4
loop_
_atom_site_label
_atom_site_type_symbol
_atom_site_fract_x
_atom_site_fract_y
_atom_site_fract_z
V1 V 0.22493(4) 0.35378(3) 0.09809(5)
Co1 Co -0.07271(4) 0.2500 0.2500
O1 O 0.0672(2) 0.3294(2) 0.0878(2)
O2 O -0.2128(2) 0.3318(2) 0.1022(2)
O3 O 0.2500 0.5000 0.1705(4)
O4 O 0.2927(3) 0.2500 0.2500
N1 N -0.0438(2) 0.1006(2) 0.0839(3)
C1 C 0.0188(3) 0.1038(2) -0.0719(4)
H1 H 0.0293(34) 0.1729(31) -0.1278(40)
C2 C -0.0618(3) -0.0045(2) 0.1565(4)
H2 H -0.0970(31) -0.0071(31) 0.2716(43)
O1G O 0.0672(2) 0.1706(2) 0.4122(2)
V1G V 0.22493(4) 0.14622(3) 0.40191(5)
O2B O 0.2872(2) 0.1682(2) 0.6022(2)
V1E V 0.27507(4) 0.64622(3) 0.09809(5)
V1A V -0.27507(4) 0.35378(3) -0.09809(5)
O2A O 0.2872(2) 0.3318(2) -0.1022(2)
O3G O 0.2500 0.0000 0.3295(4)
O2G O -0.2128(2) 0.1682(2) 0.3978(2)
N1G N -0.0438(2) 0.3994(2) 0.4161(3)
C2D C 0.0618(3) 0.0045(2) -0.1565(4)
C1D C -0.0188(3) -0.1038(2) 0.0719(4)
Co1C Co 0.07271(4) -0.2500 -0.2500
V1B V -0.27507(4) 0.14622(3) 0.59809(5)
N1D N 0.0438(2) -0.1006(2) -0.0839(3)
H2D H 0.0970(31) 0.0071(31) -0.2716(43)
H1D H -0.0293(34) -0.1729(31) 0.1278(40)
loop_
_geom_bond_atom_site_label_1
_geom_bond_atom_site_label_2
_geom_bond_site_symmetry_1
_geom_bond_site_symmetry_2
V1 O1 1_555 1_555
Co1 O1 1_555 1_555
O2 Co1 1_555 1_555
O3 V1 1_555 1_555
O4 V1 1_555 1_555
N1 Co1 1_555 1_555
C1 N1 1_555 1_555
H1 C1 1_555 1_555
C2 N1 1_555 1_555
H2 C2 1_555 1_555
O1G Co1 1_555 1_555
V1G O4 1_555 1_555
O2B V1G 1_555 1_555
V1E O3 1_555 1_555
V1A O2 1_555 1_555
O2A V1 1_555 1_555
O3G V1G 1_555 1_555
O2G Co1 1_555 1_555
N1G Co1 1_555 1_555
C2D C1 1_555 1_555
C1D C2 1_555 1_555
Co1C N1D 1_555 1_555
V1B O2G 1_555 1_555
N1D C2D 1_555 1_555
H2D C2D 1_555 1_555
H1D C1D 1_555 1_555
O1G V1G 1_555 1_555
C1D N1D 1_555 1_555

#END
