
#######################################################################
#
#                 Cambridge Crystallographic Data Centre
#                                CCDC 
#
#######################################################################
#
# If this CIF has been generated from an entry in the Cambridge 
# Structural Database, then it will include bibliographic, chemical, 
# crystal, experimental, refinement or atomic coordinate data resulting 
# from the CCDC's data processing and validation procedures.
#
#######################################################################

data_QOXFAK02
_symmetry_cell_setting           triclinic
_symmetry_space_group_name_H-M   'P -1'
_symmetry_Int_Tables_number      2
_space_group_name_Hall           '-P 1'
loop_
_symmetry_equiv_pos_site_id
_symmetry_equiv_pos_as_xyz
1 x,y,z
2 -x,-y,-z
_cell_length_a                   8.1517(4)
_cell_length_b                   8.5794(4)
_cell_length_c                   10.1233(5)
_cell_angle_alpha                87.0170(10)
_cell_angle_beta                 75.9610(10)
_cell_angle_gamma                75.1740(10)
_cell_volume                     663.938
loop_
_atom_site_label
_atom_site_type_symbol
_atom_site_fract_x
_atom_site_fract_y
_atom_site_fract_z
Co1 Co 0.84373(3) 0.83910(3) 0.44210(2)
V1 V 1.23116(4) 0.72646(4) 0.53016(3)
V2 V 0.62618(4) 0.58995(4) 0.30192(3)
O1 O 1.04046(18) 0.70562(18) 0.51304(15)
O2 O 0.78218(19) 1.07859(16) 0.45259(14)
O3 O 0.72873(18) 0.69764(17) 0.37047(14)
O4 O 1.39509(18) 0.64362(17) 0.38456(15)
O5 O 0.6509(2) 0.62957(18) 0.14134(14)
O6 O 1.28175(18) 0.62245(16) 0.67779(14)
N1 N 0.6668(2) 0.83587(19) 0.63407(16)
N2 N 0.0206(2) 0.8458(2) 1.24873(16)
C1 C 0.6723(3) 0.7027(2) 0.7109(2)
H1 H 0.7613 0.6107 0.6812
C2 C 0.5507(3) 0.6967(2) 0.8327(2)
H2 H 0.5585 0.6022 0.8828
C3 C 0.4169(2) 0.8336(2) 0.87903(19)
C4 C 0.4117(3) 0.9714(2) 0.7998(2)
H3 H 0.3250 1.0654 0.8274
C5 C 0.5374(3) 0.9668(2) 0.6794(2)
H4 H 0.5318 1.0596 0.6271
C6 C 0.2810(2) 0.8356(2) 1.00718(19)
C7 C 0.2116(3) 0.7037(2) 1.0483(2)
H5 H 0.2509 0.6096 0.9959
C8 C 0.0833(3) 0.7140(2) 1.1680(2)
H6 H 0.0381 0.6250 1.1938
C9 C 0.0877(3) 0.9729(3) 1.2080(2)
H7 H 0.0458 1.0656 1.2621
C10 C 0.2152(3) 0.9734(3) 1.0901(2)
H8 H 0.2570 1.0646 1.0661
Co1_2 Co -0.15627(3) 0.83910(3) 1.44210(2)
V1A V 0.76884(4) 1.27354(4) 0.46984(3)
V2_2 V 1.62618(4) 0.58995(4) 0.30192(3)
V2A V 1.37382(4) 0.41005(4) 0.69808(3)
O2A O 1.21782(19) 0.92141(16) 0.54741(14)
O4_2 O 0.39509(18) 0.64362(17) 0.38456(15)
O6A O 0.71825(18) 0.37755(16) 0.32221(14)
N2_2 N 1.0206(2) 0.8458(2) 0.24873(16)
loop_
_geom_bond_atom_site_label_1
_geom_bond_atom_site_label_2
_geom_bond_site_symmetry_1
_geom_bond_site_symmetry_2
Co1 O1 1_555 1_555
V1 O1 1_555 1_555
V2 O3 1_555 1_555
O2 Co1 1_555 1_555
O3 Co1 1_555 1_555
O4 V1 1_555 1_555
O5 V2 1_555 1_555
O6 V1 1_555 1_555
N1 Co1 1_555 1_555
N2 C8 1_555 1_555
C1 N1 1_555 1_555
H1 C1 1_555 1_555
C2 C1 1_555 1_555
H2 C2 1_555 1_555
C3 C2 1_555 1_555
C4 C3 1_555 1_555
H3 C4 1_555 1_555
C5 N1 1_555 1_555
H4 C5 1_555 1_555
C6 C3 1_555 1_555
C7 C6 1_555 1_555
H5 C7 1_555 1_555
C8 C7 1_555 1_555
H6 C8 1_555 1_555
C9 N2 1_555 1_555
H7 C9 1_555 1_555
C10 C6 1_555 1_555
H8 C10 1_555 1_555
Co1_2 N2 1_555 1_555
V1A O2 1_555 1_555
V2_2 O4 1_555 1_555
V2A O6 1_555 1_555
O2A V1 1_555 1_555
O4_2 V2 1_555 1_555
O6A V2 1_555 1_555
N2_2 Co1 1_555 1_555
C4 C5 1_555 1_555
C9 C10 1_555 1_555

#END
