
#######################################################################
#
#                 Cambridge Crystallographic Data Centre
#                                CCDC 
#
#######################################################################
#
# If this CIF has been generated from an entry in the Cambridge 
# Structural Database, then it will include bibliographic, chemical, 
# crystal, experimental, refinement or atomic coordinate data resulting 
# from the CCDC's data processing and validation procedures.
#
#######################################################################

data_QOXFAK
_symmetry_cell_setting           triclinic
_symmetry_space_group_name_H-M   'P -1'
_symmetry_Int_Tables_number      2
_space_group_name_Hall           '-P 1'
loop_
_symmetry_equiv_pos_site_id
_symmetry_equiv_pos_as_xyz
1 x,y,z
2 -x,-y,-z
_cell_length_a                   8.164(2)
_cell_length_b                   8.587(2)
_cell_length_c                   10.162(2)
_cell_angle_alpha                87.04(3)
_cell_angle_beta                 75.72(3)
_cell_angle_gamma                75.02(3)
_cell_volume                     666.87
loop_
_atom_site_label
_atom_site_type_symbol
_atom_site_fract_x
_atom_site_fract_y
_atom_site_fract_z
Co1 Co 0.34427(5) -0.16122(4) -0.05821(4)
V1 V 0.26850(6) 0.27282(5) -0.03010(5)
V2 V -0.12774(6) 0.41028(5) 0.19726(4)
N1 N 0.1672(3) -0.1643(3) 0.1341(2)
N2 N -0.4785(3) -0.1549(3) 0.7483(2)
O1 O 0.2815(3) 0.0784(2) -0.0478(2)
O2 O 0.1038(3) 0.3554(3) 0.1147(2)
O3 O 0.4587(3) 0.2928(3) -0.0120(2)
O4 O 0.2195(3) 0.3774(2) -0.1770(2)
O5 O -0.1530(3) 0.3712(3) 0.3572(2)
O6 O -0.2299(3) 0.3029(3) 0.1293(2)
C1 C 0.0374(4) -0.0332(4) 0.1804(3)
H1 H 0.0318(49) 0.0579(48) 0.1314(39)
C2 C -0.0875(4) -0.0288(4) 0.3000(3)
H2 H -0.1805(53) 0.0678(49) 0.3273(38)
C3 C -0.0831(4) -0.1665(4) 0.3786(3)
C4 C 0.0509(4) -0.3039(4) 0.3318(3)
H3 H 0.0640(49) -0.4031(48) 0.3853(38)
C5 C 0.1730(4) -0.2980(4) 0.2101(3)
H4 H 0.2643(50) -0.3920(47) 0.1697(37)
C6 C -0.2182(4) -0.1645(4) 0.5066(3)
C7 C -0.2850(5) -0.0274(4) 0.5899(3)
H5 H -0.2375(56) 0.0673(52) 0.5653(42)
C8 C -0.4117(5) -0.0278(4) 0.7073(3)
H6 H -0.5495(56) 0.9413(54) 0.2364(43)
C9 C -0.5843(4) 1.2867(4) 0.3331(3)
H7 H -0.5389(54) 1.3690(52) 0.3086(41)
C10 C -0.2882(4) -0.2962(4) 0.5474(3)
H8 H -0.2415(53) -0.3859(51) 0.4980(40)
N2_2 N 0.5215(3) -0.1549(3) -0.2517(2)
Co1_2 Co -0.65573(5) -0.16122(4) 0.94179(4)
Co1A Co -1.34427(5) 1.16122(4) 1.05821(4)
N1A N -1.1672(3) 1.1643(3) 0.8659(2)
C1A C -1.0374(4) 1.0332(4) 0.8196(3)
H1A H -1.0318(49) 0.9421(48) 0.8686(39)
C2A C -0.9125(4) 1.0288(4) 0.7000(3)
H2A H -0.8195(53) 0.9322(49) 0.6727(38)
C3A C -0.9169(4) 1.1665(4) 0.6214(3)
C4A C -1.0509(4) 1.3039(4) 0.6682(3)
H3A H -1.0640(49) 1.4031(48) 0.6147(38)
C5A C -1.1730(4) 1.2980(4) 0.7899(3)
H4A H -1.2643(50) 1.3920(47) 0.8303(37)
C6A C -0.7818(4) 1.1645(4) 0.4934(3)
C7A C -0.7150(5) 1.0274(4) 0.4101(3)
H5A H -0.7625(56) 0.9327(52) 0.4347(42)
C8A C -0.5883(5) 1.0278(4) 0.2927(3)
N2A N -0.5215(3) 1.1549(3) 0.2517(2)
Co1A_2 Co -0.34427(5) 1.16122(4) 0.05821(4)
N1A_2 N -0.1672(3) 1.1643(3) -0.1341(2)
O1A O -0.2815(3) 0.9216(2) 0.0478(2)
O3_2 O -0.5413(3) 1.2928(3) -0.0120(2)
O6_2 O -0.2299(3) 1.3029(3) 0.1293(2)
C10A C -0.7118(4) 1.2962(4) 0.4526(3)
H8A H -0.7585(53) 1.3859(51) 0.5020(40)
C9A C -0.4157(4) -0.2867(4) 0.6669(3)
H7A H -0.4611(54) -0.3690(52) 0.6914(41)
H6A H -0.4505(56) 0.0587(54) 0.7636(43)
O3A O 0.5413(3) -0.2928(3) 0.0120(2)
O4A O -0.2195(3) 0.6226(2) 0.1770(2)
O6A O 0.2299(3) -0.3029(3) -0.1293(2)
V2A V 0.12774(6) 0.58972(5) -0.19726(4)
V1A V -0.26850(6) 0.72718(5) 0.03010(5)
Co1_3 Co -0.65573(5) 0.83878(4) -0.05821(4)
Co1A_3 Co 0.65573(5) 0.16122(4) 0.05821(4)
Co1A_4 Co -0.34427(5) 0.16122(4) 0.05821(4)
O2A O -0.1038(3) 0.6446(3) -0.1147(2)
O5A O 0.1530(3) 0.6288(3) -0.3572(2)
O6A_2 O 0.2299(3) 0.6971(3) -0.1293(2)
O3A_2 O -0.4587(3) 0.7072(3) 0.0120(2)
Co1_4 Co 0.34427(5) 0.83878(4) -0.05821(4)
loop_
_geom_bond_atom_site_label_1
_geom_bond_atom_site_label_2
_geom_bond_site_symmetry_1
_geom_bond_site_symmetry_2
Co1 N1 1_555 1_555
V1 O1 1_555 1_555
V2 O2 1_555 1_555
N1 C1 1_555 1_555
N2 C8 1_555 1_555
O1 Co1 1_555 1_555
O2 V1 1_555 1_555
O3 V1 1_555 1_555
O4 V1 1_555 1_555
O5 V2 1_555 1_555
O6 V2 1_555 1_555
C1 H1 1_555 1_555
C2 C1 1_555 1_555
H2 C2 1_555 1_555
C3 C2 1_555 1_555
C4 C3 1_555 1_555
H3 C4 1_555 1_555
C5 N1 1_555 1_555
H4 C5 1_555 1_555
C6 C3 1_555 1_555
C7 C6 1_555 1_555
H5 C7 1_555 1_555
C8 C7 1_555 1_555
H6 C8A 1_555 1_555
C9 H7 1_555 1_555
C10 C6 1_555 1_555
H8 C10 1_555 1_555
N2_2 Co1 1_555 1_555
Co1_2 N2 1_555 1_555
Co1A N1A 1_555 1_555
N1A C1A 1_555 1_555
C1A H1A 1_555 1_555
C2A C1A 1_555 1_555
H2A C2A 1_555 1_555
C3A C2A 1_555 1_555
C4A C3A 1_555 1_555
H3A C4A 1_555 1_555
C5A N1A 1_555 1_555
H4A C5A 1_555 1_555
C6A C3A 1_555 1_555
C7A C6A 1_555 1_555
H5A C7A 1_555 1_555
C8A C7A 1_555 1_555
N2A C9 1_555 1_555
Co1A_2 N2A 1_555 1_555
N1A_2 Co1A_2 1_555 1_555
O1A Co1A_2 1_555 1_555
O3_2 Co1A_2 1_555 1_555
O6_2 Co1A_2 1_555 1_555
C10A C9 1_555 1_555
H8A C10A 1_555 1_555
C9A N2 1_555 1_555
H7A C9A 1_555 1_555
H6A C8 1_555 1_555
O3A Co1 1_555 1_555
O4A V2 1_555 1_555
O6A Co1 1_555 1_555
V2A O4 1_555 1_555
V1A O1A 1_555 1_555
Co1_3 O3A_2 1_555 1_555
Co1A_3 O3 1_555 1_555
Co1A_4 O6 1_555 1_555
O2A V2A 1_555 1_555
O5A V2A 1_555 1_555
O6A_2 V2A 1_555 1_555
O3A_2 V1A 1_555 1_555
Co1_4 O6A_2 1_555 1_555
C4 C5 1_555 1_555
C10 C9A 1_555 1_555
C4A C5A 1_555 1_555
C6A C10A 1_555 1_555
C8A N2A 1_555 1_555
O4A V1A 1_555 1_555
V1A O2A 1_555 1_555

#END
