
#######################################################################
#
#                 Cambridge Crystallographic Data Centre
#                                CCDC 
#
#######################################################################
#
# If this CIF has been generated from an entry in the Cambridge 
# Structural Database, then it will include bibliographic, chemical, 
# crystal, experimental, refinement or atomic coordinate data resulting 
# from the CCDC's data processing and validation procedures.
#
#######################################################################

data_QOXFAK01
_symmetry_cell_setting           triclinic
_symmetry_space_group_name_H-M   'P -1'
_symmetry_Int_Tables_number      2
_space_group_name_Hall           '-P 1'
loop_
_symmetry_equiv_pos_site_id
_symmetry_equiv_pos_as_xyz
1 x,y,z
2 -x,-y,-z
_cell_length_a                   8.1634(9)
_cell_length_b                   8.5720(10)
_cell_length_c                   10.1710(10)
_cell_angle_alpha                87.079(5)
_cell_angle_beta                 75.833(4)
_cell_angle_gamma                75.233(6)
_cell_volume                     667.244
loop_
_atom_site_label
_atom_site_type_symbol
_atom_site_fract_x
_atom_site_fract_y
_atom_site_fract_z
Co1 Co 0.15624(4) -0.33906(5) -0.94205(3)
V1 V 0.23138(5) -0.77366(6) -0.96987(4)
V2 V 0.37325(5) -0.09006(6) -0.80229(4)
O1 O 0.2178(2) -0.5793(3) -0.9527(2)
O2 O 0.2707(2) -0.1978(3) -0.8703(2)
O3 O 0.3483(3) -0.1289(3) -0.6422(2)
O4 O 0.2811(2) -0.8774(3) -0.8225(2)
O5 O -0.0414(2) -0.2058(3) -1.0122(2)
O6 O 0.3953(2) -0.8565(3) -1.1148(2)
N1 N -0.0205(3) -0.3466(3) -0.7485(2)
N2 N -0.6666(3) -0.3351(3) -0.1342(2)
C1 C -0.0876(4) -0.4734(4) -0.7077(3)
C2 C -0.2165(4) -0.4741(4) -0.5889(3)
C3 C -0.2807(3) -0.3344(4) -0.5066(3)
C4 C -0.2121(4) -0.2035(4) -0.5482(3)
C5 C -0.0828(4) -0.2136(4) -0.6687(3)
C6 C -0.6728(4) -0.2039(4) -0.2104(3)
C7 C -0.5510(4) -0.1956(4) -0.3333(3)
C8 C -0.5379(3) -0.4661(4) -0.1791(3)
C9 C -0.4111(3) -0.4702(4) -0.3004(3)
C10 C -0.4169(3) -0.3331(4) -0.3789(3)
H1 H -0.2629 -0.5802 -0.5582
H2 H -0.2516 -0.1051 -0.4763
H3 H -0.0239 -0.1138 -0.6984
H4 H -0.0547 -0.5725 -0.7778
H5 H -0.5398 -0.5693 -0.1143
H6 H -0.3189 -0.5872 -0.3214
H7 H -0.5614 -0.0808 -0.3831
H8 H -0.7621 -0.0889 -0.1787
N2_2 N 0.3334(3) -0.3351(3) -1.1342(2)
O5A O 0.0414(2) -0.7942(3) -0.9878(2)
O4_2 O 0.2811(2) 0.1226(3) -0.8225(2)
O6A O 0.6047(2) -0.1435(3) -0.8852(2)
V2_2 V 0.37325(5) -1.09006(6) -0.80229(4)
V1A V -0.23138(5) -0.22634(6) -1.03013(4)
V2A V 0.62675(5) -0.90994(6) -1.19771(4)
Co1_2 Co -0.84376(4) -0.33906(5) 0.05795(3)
loop_
_geom_bond_atom_site_label_1
_geom_bond_atom_site_label_2
_geom_bond_site_symmetry_1
_geom_bond_site_symmetry_2
Co1 O1 1_555 1_555
V1 O1 1_555 1_555
V2 O2 1_555 1_555
O2 Co1 1_555 1_555
O3 V2 1_555 1_555
O4 V1 1_555 1_555
O5 Co1 1_555 1_555
O6 V1 1_555 1_555
N1 Co1 1_555 1_555
N2 C6 1_555 1_555
C1 N1 1_555 1_555
C2 C1 1_555 1_555
C3 C2 1_555 1_555
C4 C3 1_555 1_555
C5 N1 1_555 1_555
C6 C7 1_555 1_555
C7 C10 1_555 1_555
C8 N2 1_555 1_555
C9 C8 1_555 1_555
C10 C3 1_555 1_555
H1 C2 1_555 1_555
H2 C4 1_555 1_555
H3 C5 1_555 1_555
H4 C1 1_555 1_555
H5 C8 1_555 1_555
H6 C9 1_555 1_555
H7 C7 1_555 1_555
H8 C6 1_555 1_555
N2_2 Co1 1_555 1_555
O5A V1 1_555 1_555
O4_2 V2 1_555 1_555
O6A V2 1_555 1_555
V2_2 O4 1_555 1_555
V1A O5 1_555 1_555
V2A O6 1_555 1_555
Co1_2 N2 1_555 1_555
C4 C5 1_555 1_555
C9 C10 1_555 1_555

#END
