
#######################################################################
#
#                 Cambridge Crystallographic Data Centre
#                                CCDC 
#
#######################################################################
#
# If this CIF has been generated from an entry in the Cambridge 
# Structural Database, then it will include bibliographic, chemical, 
# crystal, experimental, refinement or atomic coordinate data resulting 
# from the CCDC's data processing and validation procedures.
#
#######################################################################

data_QOXLEV
_symmetry_cell_setting           monoclinic
_symmetry_space_group_name_H-M   'P 21/n'
_symmetry_Int_Tables_number      14
_space_group_name_Hall           '-P 2yn'
loop_
_symmetry_equiv_pos_site_id
_symmetry_equiv_pos_as_xyz
1 x,y,z
2 1/2-x,1/2+y,1/2-z
3 -x,-y,-z
4 1/2+x,1/2-y,1/2+z
_cell_length_a                   10.8710(17)
_cell_length_b                   7.6412(12)
_cell_length_c                   17.004(3)
_cell_angle_alpha                90
_cell_angle_beta                 104.650(2)
_cell_angle_gamma                90
_cell_volume                     1366.56
loop_
_atom_site_label
_atom_site_type_symbol
_atom_site_fract_x
_atom_site_fract_y
_atom_site_fract_z
O1 O 0.20538(12) 0.03768(17) 0.75524(8)
C1 C 0.12016(18) 0.1202(2) 0.78071(11)
C2 C 0.5175(2) 0.0981(3) 0.85219(16)
H1 H 0.5772 0.1701 0.8897
H2 H 0.5592 0.0438 0.8150
H3 H 0.4853 0.0093 0.8816
O2 O 0.41534(12) 0.20321(17) 0.80819(8)
H4 H 0.3519 0.1388 0.7879
C3 C -0.00407(19) 0.0477(3) 0.77148(12)
H5 H -0.0224 -0.0623 0.7480
C4 C -0.09470(19) 0.1356(3) 0.79605(13)
H6 H -0.1751 0.0869 0.7890
N1 N 0.51040(16) 0.4657(2) 1.09701(10)
Ni1 Ni 0.32445(2) 0.40288(3) 0.854513(13)
S1 S 0.34753(5) 0.24011(6) 0.98934(3)
N2 N 0.21156(16) 0.58440(19) 0.89354(10)
N3 N 0.14901(14) 0.27583(19) 0.81809(9)
C5 C 0.08970(18) 0.5295(2) 0.88251(11)
C6 C 0.05628(17) 0.3639(2) 0.84343(11)
C7 C 0.44215(18) 0.3736(2) 1.05293(11)
C8 C -0.06767(18) 0.3029(3) 0.83269(12)
C9 C -0.1591(2) 0.4062(3) 0.85832(14)
H7 H -0.2417 0.3644 0.8505
C10 C 0.2443(2) 0.7373(3) 0.92988(14)
H8 H 0.3276 0.7758 0.9376
C11 C -0.0028(2) 0.6288(3) 0.90770(13)
C12 C 0.1585(3) 0.8423(3) 0.95700(16)
H9 H 0.1847 0.9487 0.9823
C13 C 0.0370(2) 0.7886(3) 0.94637(15)
H10 H -0.0204 0.8578 0.9647
C14 C -0.1285(2) 0.5638(3) 0.89376(15)
H11 H -0.1903 0.6301 0.9091
O1A O 0.29462(12) 0.53768(17) 0.74476(8)
N1B N 0.48960(16) 0.5343(2) 0.90299(10)
Ni1A Ni 0.17555(2) -0.09712(3) 0.645487(13)
Ni1B Ni 0.67555(2) 0.59712(3) 1.145487(13)
loop_
_geom_bond_atom_site_label_1
_geom_bond_atom_site_label_2
_geom_bond_site_symmetry_1
_geom_bond_site_symmetry_2
O1 C1 1_555 1_555
C1 C3 1_555 1_555
C2 H1 1_555 1_555
H2 C2 1_555 1_555
H3 C2 1_555 1_555
O2 C2 1_555 1_555
H4 O2 1_555 1_555
C3 H5 1_555 1_555
C4 C3 1_555 1_555
H6 C4 1_555 1_555
N1 C7 1_555 1_555
Ni1 O2 1_555 1_555
S1 Ni1 1_555 1_555
N2 Ni1 1_555 1_555
N3 C1 1_555 1_555
C5 N2 1_555 1_555
C6 N3 1_555 1_555
C7 S1 1_555 1_555
C8 C4 1_555 1_555
C9 C8 1_555 1_555
H7 C9 1_555 1_555
C10 N2 1_555 1_555
H8 C10 1_555 1_555
C11 C5 1_555 1_555
C12 C10 1_555 1_555
H9 C12 1_555 1_555
C13 C11 1_555 1_555
H10 C13 1_555 1_555
C14 C9 1_555 1_555
H11 C14 1_555 1_555
O1A Ni1 1_555 1_555
N1B Ni1 1_555 1_555
Ni1A O1 1_555 1_555
Ni1B N1 1_555 1_555
Ni1 N3 1_555 1_555
C5 C6 1_555 1_555
C6 C8 1_555 1_555
C11 C14 1_555 1_555
C12 C13 1_555 1_555

#END
