
#######################################################################
#
#                 Cambridge Crystallographic Data Centre
#                                CCDC 
#
#######################################################################
#
# If this CIF has been generated from an entry in the Cambridge 
# Structural Database, then it will include bibliographic, chemical, 
# crystal, experimental, refinement or atomic coordinate data resulting 
# from the CCDC's data processing and validation procedures.
#
#######################################################################

data_QOXRIG
_symmetry_cell_setting           triclinic
_symmetry_space_group_name_H-M   'P -1'
_symmetry_Int_Tables_number      2
_space_group_name_Hall           '-P 1'
loop_
_symmetry_equiv_pos_site_id
_symmetry_equiv_pos_as_xyz
1 x,y,z
2 -x,-y,-z
_cell_length_a                   9.3285(9)
_cell_length_b                   12.5500(12)
_cell_length_c                   18.9817(18)
_cell_angle_alpha                92.6312(18)
_cell_angle_beta                 93.5590(18)
_cell_angle_gamma                101.924(2)
_cell_volume                     2166.17
loop_
_atom_site_label
_atom_site_type_symbol
_atom_site_fract_x
_atom_site_fract_y
_atom_site_fract_z
Cu1 Cu 0.5000 0.5000 0.0000
Cu2 Cu 0.5000 0.5000 0.5000
C1 C 0.6385(3) 0.33173(18) -0.04488(12)
H1 H 0.6339 0.3420 -0.0952
H2 H 0.6584 0.2600 -0.0377
C2 C 0.3680(2) 0.27733(17) -0.05989(11)
H3 H 0.3643 0.3058 -0.1065
H4 H 0.3750 0.2014 -0.0654
C3 C 0.1900(2) 0.38738(18) -0.03426(12)
H5 H 0.0878 0.3786 -0.0239
H6 H 0.1982 0.4074 -0.0828
C4 C 0.2412(3) 0.58145(18) 0.00705(14)
H7 H 0.1487 0.5813 0.0278
H8 H 0.2297 0.5962 -0.0425
C5 C 0.1207(3) 0.18719(19) -0.02768(12)
H9 H 0.1624 0.1236 -0.0364
H10 H 0.0482 0.1891 -0.0663
C6 C 0.0467(3) 0.1778(2) 0.04106(13)
H11 H -0.0107 0.2336 0.0458
H12 H -0.0193 0.1070 0.0413
C7 C 0.1415(3) 0.1306(2) 0.15625(12)
C8 C 0.2924(2) 0.09778(17) 0.26189(11)
C9 C 0.1807(3) 0.0301(2) 0.29455(12)
H13 H 0.0830 0.0242 0.2784
C10 C 0.2158(3) -0.0279(2) 0.35068(12)
H14 H 0.1417 -0.0730 0.3725
C11 C 0.3606(3) -0.01922(19) 0.37462(11)
C12 C 0.4724(3) 0.05103(18) 0.34587(12)
H15 H 0.5694 0.0586 0.3637
C13 C 0.4372(3) 0.10976(18) 0.29014(12)
H16 H 0.5115 0.1585 0.2709
C14 C 0.7360(2) 0.39990(18) 0.47336(12)
H17 H 0.7593 0.3835 0.5217
H18 H 0.8189 0.3942 0.4460
C15 C 0.8187(2) 0.59454(18) 0.51291(12)
H19 H 0.8211 0.5783 0.5624
H20 H 0.9149 0.5945 0.4962
C16 C 0.6681(2) 0.72183(18) 0.54867(11)
H21 H 0.6705 0.7995 0.5524
H22 H 0.6841 0.6981 0.5959
C17 C 0.4002(2) 0.67953(17) 0.55766(11)
H23 H 0.3868 0.7539 0.5548
H24 H 0.4198 0.6665 0.6070
C18 C 0.9102(3) 0.79221(19) 0.50497(13)
H25 H 0.9924 0.7661 0.4868
H26 H 0.9390 0.8218 0.5531
C19 C 0.8749(3) 0.88150(18) 0.46011(12)
H27 H 0.8100 0.9199 0.4841
H28 H 0.9645 0.9335 0.4529
C20 C 0.7739(3) 0.89911(19) 0.34095(11)
C21 C 0.6036(3) 0.89026(17) 0.23484(11)
C22 C 0.6868(3) 0.96922(18) 0.19585(12)
H29 H 0.7871 0.9932 0.2072
C23 C 0.6179(3) 1.01137(19) 0.14008(12)
H30 H 0.6717 1.0644 0.1139
C24 C 0.4698(3) 0.97475(18) 0.12345(11)
C25 C 0.3864(3) 0.89492(18) 0.16035(12)
H31 H 0.2866 0.8702 0.1480
C26 C 0.4543(3) 0.85297(18) 0.21557(11)
H32 H 0.3997 0.7987 0.2406
N1 N 0.49773(19) 0.34040(13) -0.01623(8)
H33 H 0.495(2) 0.3130(17) 0.0289(7)
N2 N 0.2372(2) 0.28601(14) -0.02571(9)
N3 N 0.28157(19) 0.47450(14) 0.01381(9)
H34 H 0.272(2) 0.4519(18) 0.0602(6)
N4 N 0.1573(2) 0.19057(17) 0.09955(10)
H35 H 0.2511(16) 0.2351(18) 0.0934(14)
N5 N 0.2670(2) 0.15359(16) 0.20291(10)
H36 H 0.345(2) 0.2049(16) 0.1866(13)
N6 N 0.3937(3) -0.08741(18) 0.43086(11)
N7 N 0.70707(18) 0.51113(14) 0.47167(9)
H37 H 0.707(2) 0.5310(17) 0.4248(6)
N8 N 0.78337(19) 0.70040(14) 0.50514(9)
N9 N 0.52387(19) 0.66288(14) 0.51658(8)
H38 H 0.510(2) 0.6845(17) 0.4705(6)
N10 N 0.8046(2) 0.83370(16) 0.39259(10)
H39 H 0.730(2) 0.7709(14) 0.3968(13)
N11 N 0.6636(2) 0.84407(15) 0.29193(10)
H40 H 0.602(2) 0.7856(15) 0.3115(12)
N12 N 0.3965(3) 1.01916(19) 0.06458(11)
O1 O 0.0307(2) 0.06366(18) 0.16534(10)
O2 O 0.2908(3) -0.1432(2) 0.45852(12)
O3 O 0.5229(2) -0.08757(16) 0.44832(10)
O4 O 0.83726(19) 0.99368(13) 0.33762(9)
O5 O 0.4657(3) 1.10046(16) 0.03939(10)
O6 O 0.2717(3) 0.97244(19) 0.04295(11)
C27 C 0.5017(2) 0.41345(17) 0.16243(10)
C28 C 0.4885(2) 0.43786(17) 0.24095(10)
H41 H 0.4067 0.3852 0.2564
H42 H 0.5770 0.4279 0.2671
C29 C 0.4658(2) 0.55131(17) 0.25943(10)
H43 H 0.3749 0.5601 0.2350
H44 H 0.5452 0.6039 0.2421
C30 C 0.4595(2) 0.57747(17) 0.33808(10)
O7 O 0.5508(2) 0.49142(13) 0.12625(7)
O8 O 0.46651(18) 0.31544(12) 0.13921(7)
O9 O 0.41380(19) 0.50156(12) 0.37605(7)
O10 O 0.4982(2) 0.67624(12) 0.36023(7)
C1A C 0.3615(3) 0.66827(18) 0.04488(12)
H1A H 0.3661 0.6580 0.0952
H2A H 0.3416 0.7400 0.0377
C2A C 0.6320(2) 0.72267(17) 0.05989(11)
H3A H 0.6357 0.6942 0.1065
H4A H 0.6250 0.7986 0.0654
C3A C 0.8100(2) 0.61262(18) 0.03426(12)
H5A H 0.9122 0.6214 0.0239
H6A H 0.8018 0.5926 0.0828
C4A C 0.7588(3) 0.41855(18) -0.00705(14)
H7A H 0.8513 0.4187 -0.0278
H8A H 0.7703 0.4038 0.0425
C5A C 0.8793(3) 0.81281(19) 0.02768(12)
H9A H 0.8376 0.8764 0.0364
H10A H 0.9518 0.8109 0.0663
C6A C 0.9533(3) 0.8222(2) -0.04106(13)
H11A H 1.0107 0.7664 -0.0458
H12A H 1.0193 0.8930 -0.0413
C7A C 0.8585(3) 0.8694(2) -0.15625(12)
C8A C 0.7076(2) 0.90222(17) -0.26189(11)
C9A C 0.8193(3) 0.9699(2) -0.29455(12)
H13A H 0.9170 0.9758 -0.2784
C10A C 0.7842(3) 1.0279(2) -0.35068(12)
H14A H 0.8583 1.0730 -0.3725
C11A C 0.6394(3) 1.01922(19) -0.37462(11)
C12A C 0.5276(3) 0.94897(18) -0.34587(12)
H15A H 0.4306 0.9414 -0.3637
C13A C 0.5628(3) 0.89024(18) -0.29014(12)
H16A H 0.4885 0.8415 -0.2709
N1A N 0.50227(19) 0.65960(13) 0.01623(8)
H33A H 0.505(2) 0.6870(17) -0.0289(7)
N2A N 0.7628(2) 0.71399(14) 0.02571(9)
N3A N 0.71843(19) 0.52550(14) -0.01381(9)
H34A H 0.728(2) 0.5481(18) -0.0602(6)
N4A N 0.8427(2) 0.80943(17) -0.09955(10)
H35A H 0.7489(16) 0.7649(18) -0.0934(14)
N5A N 0.7330(2) 0.84641(16) -0.20291(10)
H36A H 0.655(2) 0.7951(16) -0.1866(13)
N6A N 0.6063(3) 1.08741(18) -0.43086(11)
O1A O 0.9693(2) 0.93634(18) -0.16534(10)
O2A O 0.7092(3) 1.1432(2) -0.45852(12)
O3A O 0.4771(2) 1.08757(16) -0.44832(10)
C14A C 0.2640(2) 0.60010(18) 0.52664(12)
H17A H 0.2407 0.6165 0.4783
H18A H 0.1811 0.6058 0.5540
C15A C 0.1813(2) 0.40546(18) 0.48709(12)
H19A H 0.1789 0.4217 0.4376
H20A H 0.0851 0.4055 0.5038
C16A C 0.3319(2) 0.27817(18) 0.45133(11)
H21A H 0.3295 0.2005 0.4476
H22A H 0.3159 0.3019 0.4041
C17A C 0.5998(2) 0.32047(17) 0.44234(11)
H23A H 0.6132 0.2461 0.4452
H24A H 0.5802 0.3335 0.3930
C18A C 0.0898(3) 0.20779(19) 0.49503(13)
H25A H 0.0076 0.2339 0.5132
H26A H 0.0610 0.1782 0.4469
C19A C 0.1251(3) 0.11850(18) 0.53989(12)
H27A H 0.1900 0.0801 0.5159
H28A H 0.0355 0.0665 0.5471
C20A C 0.2261(3) 0.10089(19) 0.65905(11)
C21A C 0.3964(3) 0.10974(17) 0.76516(11)
C22A C 0.3132(3) 0.03078(18) 0.80415(12)
H29A H 0.2129 0.0068 0.7928
C23A C 0.3821(3) -0.01137(19) 0.85992(12)
H30A H 0.3283 -0.0644 0.8861
C24A C 0.5302(3) 0.02525(18) 0.87655(11)
C25A C 0.6136(3) 0.10508(18) 0.83965(12)
H31A H 0.7134 0.1298 0.8520
C26A C 0.5457(3) 0.14703(18) 0.78443(11)
H32A H 0.6003 0.2013 0.7594
N7A N 0.29293(18) 0.48887(14) 0.52833(9)
H37A H 0.293(2) 0.4690(17) 0.5752(6)
N8A N 0.21663(19) 0.29960(14) 0.49486(9)
N9A N 0.47613(19) 0.33712(14) 0.48342(8)
H38A H 0.490(2) 0.3155(17) 0.5295(6)
N10A N 0.1954(2) 0.16630(16) 0.60741(10)
H39A H 0.270(2) 0.2291(14) 0.6032(13)
N11A N 0.3364(2) 0.15593(15) 0.70807(10)
H40A H 0.398(2) 0.2144(15) 0.6885(12)
N12A N 0.6035(3) -0.01916(19) 0.93542(11)
O4A O 0.16274(19) 0.00632(13) 0.66238(9)
O5A O 0.5343(3) -0.10046(16) 0.96061(10)
O6A O 0.7283(3) 0.02756(19) 0.95705(11)
C27A C 0.4983(2) 0.58655(17) -0.16243(10)
C28A C 0.5115(2) 0.56214(17) -0.24095(10)
H41A H 0.5933 0.6148 -0.2564
H42A H 0.4230 0.5721 -0.2671
C29A C 0.5342(2) 0.44869(17) -0.25943(10)
H43A H 0.6251 0.4399 -0.2350
H44A H 0.4548 0.3961 -0.2421
C30A C 0.5405(2) 0.42253(17) -0.33808(10)
O7A O 0.4492(2) 0.50858(13) -0.12625(7)
O8A O 0.53349(18) 0.68456(12) -0.13921(7)
O9A O 0.58620(19) 0.49844(12) -0.37605(7)
O10A O 0.5018(2) 0.32376(12) -0.36023(7)
Cu2_2 Cu 0.5000 0.5000 -0.5000
O9A_2 O 0.58620(19) 0.49844(12) 0.62395(7)
C31 C 0.0793(5) 0.3994(4) 0.1941(3)
H45 H 0.1717 0.4105 0.2180
C32 C -0.1700(5) 0.3096(5) 0.1930(3)
H46 H -0.1889 0.3692 0.1664
H47 H -0.2394 0.2952 0.2284
H48 H -0.1795 0.2458 0.1618
C33 C -0.0003(7) 0.2920(5) 0.2917(2)
H49 H 0.0969 0.3252 0.3113
H50 H -0.0085 0.2147 0.2845
H51 H -0.0708 0.3060 0.3237
N13 N -0.0278(3) 0.3369(2) 0.22545(12)
O11 O 0.0751(4) 0.4426(3) 0.14098(19)
C34 C 0.8620(4) 0.5936(3) 0.28695(19)
H52 H 0.7839 0.5968 0.2547
C35 C 1.1126(4) 0.6555(4) 0.3250(3)
H53 H 1.1068 0.7018 0.3660
H54 H 1.2016 0.6831 0.3030
H55 H 1.1125 0.5829 0.3390
C36 C 1.0078(6) 0.7217(4) 0.2171(2)
H56 H 0.9154 0.7137 0.1901
H57 H 1.0785 0.7004 0.1878
H58 H 1.0417 0.7965 0.2341
N14 N 0.9898(3) 0.6534(2) 0.27638(11)
O12 O 0.8361(3) 0.5340(2) 0.33548(13)
loop_
_geom_bond_atom_site_label_1
_geom_bond_atom_site_label_2
_geom_bond_site_symmetry_1
_geom_bond_site_symmetry_2
Cu1 N1 1_555 1_555
Cu2 N7 1_555 1_555
C1 H1 1_555 1_555
H2 C1 1_555 1_555
C2 H3 1_555 1_555
H4 C2 1_555 1_555
C3 H5 1_555 1_555
H6 C3 1_555 1_555
C4 H7 1_555 1_555
H8 C4 1_555 1_555
C5 H9 1_555 1_555
H10 C5 1_555 1_555
C6 C5 1_555 1_555
H11 C6 1_555 1_555
H12 C6 1_555 1_555
C7 N4 1_555 1_555
C8 C9 1_555 1_555
C9 H13 1_555 1_555
C10 C9 1_555 1_555
H14 C10 1_555 1_555
C11 C10 1_555 1_555
C12 C11 1_555 1_555
H15 C12 1_555 1_555
C13 C8 1_555 1_555
H16 C13 1_555 1_555
C14 H17 1_555 1_555
H18 C14 1_555 1_555
C15 H19 1_555 1_555
H20 C15 1_555 1_555
C16 H21 1_555 1_555
H22 C16 1_555 1_555
C17 H23 1_555 1_555
H24 C17 1_555 1_555
C18 H25 1_555 1_555
H26 C18 1_555 1_555
C19 C18 1_555 1_555
H27 C19 1_555 1_555
H28 C19 1_555 1_555
C20 N10 1_555 1_555
C21 C22 1_555 1_555
C22 H29 1_555 1_555
C23 C22 1_555 1_555
H30 C23 1_555 1_555
C24 C23 1_555 1_555
C25 C24 1_555 1_555
H31 C25 1_555 1_555
C26 C21 1_555 1_555
H32 C26 1_555 1_555
N1 C1 1_555 1_555
H33 N1 1_555 1_555
N2 C2 1_555 1_555
N3 Cu1 1_555 1_555
H34 N3 1_555 1_555
N4 C6 1_555 1_555
H35 N4 1_555 1_555
N5 C7 1_555 1_555
H36 N5 1_555 1_555
N6 C11 1_555 1_555
N7 C14 1_555 1_555
H37 N7 1_555 1_555
N8 C15 1_555 1_555
N9 Cu2 1_555 1_555
H38 N9 1_555 1_555
N10 C19 1_555 1_555
H39 N10 1_555 1_555
N11 C20 1_555 1_555
H40 N11 1_555 1_555
N12 C24 1_555 1_555
O1 C7 1_555 1_555
O2 N6 1_555 1_555
O3 N6 1_555 1_555
O4 C20 1_555 1_555
O5 N12 1_555 1_555
O6 N12 1_555 1_555
C27 C28 1_555 1_555
C28 H41 1_555 1_555
H42 C28 1_555 1_555
C29 C28 1_555 1_555
H43 C29 1_555 1_555
H44 C29 1_555 1_555
C30 C29 1_555 1_555
O7 Cu1 1_555 1_555
O8 C27 1_555 1_555
O9 Cu2 1_555 1_555
O10 C30 1_555 1_555
C31 H45 1_555 1_555
C32 H46 1_555 1_555
H47 C32 1_555 1_555
H48 C32 1_555 1_555
C33 H49 1_555 1_555
H50 C33 1_555 1_555
H51 C33 1_555 1_555
N13 C31 1_555 1_555
O11 C31 1_555 1_555
C34 H52 1_555 1_555
C35 H53 1_555 1_555
H54 C35 1_555 1_555
H55 C35 1_555 1_555
C36 H56 1_555 1_555
H57 C36 1_555 1_555
H58 C36 1_555 1_555
N14 C34 1_555 1_555
O12 C34 1_555 1_555
C1A C4 1_555 1_555
H1A C1A 1_555 1_555
H2A C1A 1_555 1_555
C2A H3A 1_555 1_555
H4A C2A 1_555 1_555
C3A H5A 1_555 1_555
H6A C3A 1_555 1_555
C4A C1 1_555 1_555
H7A C4A 1_555 1_555
H8A C4A 1_555 1_555
C5A H9A 1_555 1_555
H10A C5A 1_555 1_555
C6A C5A 1_555 1_555
H11A C6A 1_555 1_555
H12A C6A 1_555 1_555
C7A N4A 1_555 1_555
C8A C9A 1_555 1_555
C9A H13A 1_555 1_555
C10A C9A 1_555 1_555
H14A C10A 1_555 1_555
C11A C10A 1_555 1_555
C12A C11A 1_555 1_555
H15A C12A 1_555 1_555
C13A C8A 1_555 1_555
H16A C13A 1_555 1_555
N1A Cu1 1_555 1_555
H33A N1A 1_555 1_555
N2A C2A 1_555 1_555
N3A Cu1 1_555 1_555
H34A N3A 1_555 1_555
N4A C6A 1_555 1_555
H35A N4A 1_555 1_555
N5A C7A 1_555 1_555
H36A N5A 1_555 1_555
N6A C11A 1_555 1_555
O1A C7A 1_555 1_555
O2A N6A 1_555 1_555
O3A N6A 1_555 1_555
C14A C17 1_555 1_555
H17A C14A 1_555 1_555
H18A C14A 1_555 1_555
C15A H19A 1_555 1_555
H20A C15A 1_555 1_555
C16A H21A 1_555 1_555
H22A C16A 1_555 1_555
C17A C14 1_555 1_555
H23A C17A 1_555 1_555
H24A C17A 1_555 1_555
C18A H25A 1_555 1_555
H26A C18A 1_555 1_555
C19A C18A 1_555 1_555
H27A C19A 1_555 1_555
H28A C19A 1_555 1_555
C20A N10A 1_555 1_555
C21A C22A 1_555 1_555
C22A H29A 1_555 1_555
C23A C22A 1_555 1_555
H30A C23A 1_555 1_555
C24A C23A 1_555 1_555
C25A C24A 1_555 1_555
H31A C25A 1_555 1_555
C26A C21A 1_555 1_555
H32A C26A 1_555 1_555
N7A Cu2 1_555 1_555
H37A N7A 1_555 1_555
N8A C15A 1_555 1_555
N9A Cu2 1_555 1_555
H38A N9A 1_555 1_555
N10A C19A 1_555 1_555
H39A N10A 1_555 1_555
N11A C20A 1_555 1_555
H40A N11A 1_555 1_555
N12A C24A 1_555 1_555
O4A C20A 1_555 1_555
O5A N12A 1_555 1_555
O6A N12A 1_555 1_555
C27A C28A 1_555 1_555
C28A H41A 1_555 1_555
H42A C28A 1_555 1_555
C29A C28A 1_555 1_555
H43A C29A 1_555 1_555
H44A C29A 1_555 1_555
C30A C29A 1_555 1_555
O7A Cu1 1_555 1_555
O8A C27A 1_555 1_555
O9A C30A 1_555 1_555
O10A C30A 1_555 1_555
Cu2_2 O9A 1_555 1_555
O9A_2 Cu2 1_555 1_555
C2 N1 1_555 1_555
C3 N2 1_555 1_555
C3 N3 1_555 1_555
C4 N3 1_555 1_555
C5 N2 1_555 1_555
C8 N5 1_555 1_555
C12 C13 1_555 1_555
C15 N7 1_555 1_555
C16 N8 1_555 1_555
C16 N9 1_555 1_555
C17 N9 1_555 1_555
C18 N8 1_555 1_555
C21 N11 1_555 1_555
C25 C26 1_555 1_555
C27 O7 1_555 1_555
C30 O9 1_555 1_555
C32 N13 1_555 1_555
C33 N13 1_555 1_555
C35 N14 1_555 1_555
C36 N14 1_555 1_555
C1A N1A 1_555 1_555
C2A N1A 1_555 1_555
C3A N2A 1_555 1_555
C3A N3A 1_555 1_555
C4A N3A 1_555 1_555
C5A N2A 1_555 1_555
C8A N5A 1_555 1_555
C12A C13A 1_555 1_555
C14A N7A 1_555 1_555
C15A N7A 1_555 1_555
C16A N8A 1_555 1_555
C16A N9A 1_555 1_555
C17A N9A 1_555 1_555
C18A N8A 1_555 1_555
C21A N11A 1_555 1_555
C25A C26A 1_555 1_555
C27A O7A 1_555 1_555

#END
