
#######################################################################
#
#                 Cambridge Crystallographic Data Centre
#                                CCDC 
#
#######################################################################
#
# If this CIF has been generated from an entry in the Cambridge 
# Structural Database, then it will include bibliographic, chemical, 
# crystal, experimental, refinement or atomic coordinate data resulting 
# from the CCDC's data processing and validation procedures.
#
#######################################################################

data_QOYGOA
_symmetry_cell_setting           monoclinic
_symmetry_space_group_name_H-M   'P 21/c'
_symmetry_Int_Tables_number      14
_space_group_name_Hall           '-P 2ybc'
loop_
_symmetry_equiv_pos_site_id
_symmetry_equiv_pos_as_xyz
1 x,y,z
2 -x,1/2+y,1/2-z
3 -x,-y,-z
4 x,1/2-y,1/2+z
_cell_length_a                   7.8114(2)
_cell_length_b                   16.4811(5)
_cell_length_c                   8.5560(2)
_cell_angle_alpha                90
_cell_angle_beta                 100.408(2)
_cell_angle_gamma                90
_cell_volume                     1083.38
loop_
_atom_site_label
_atom_site_type_symbol
_atom_site_fract_x
_atom_site_fract_y
_atom_site_fract_z
K1 K 0.46135(5) 0.25777(2) 0.69176(4)
N1 N 0.17520(19) 0.40422(9) 0.56971(16)
C1 C 0.1470(2) 0.42211(10) 0.41549(19)
N2 N 0.05109(18) 0.37122(9) 0.31546(16)
C2 C -0.0327(2) 0.30124(10) 0.3721(2)
C3 C 0.0856(2) 0.22960(10) 0.42938(19)
O1 O 0.23875(16) 0.22893(8) 0.40508(14)
O2 O 0.01458(16) 0.17404(7) 0.49617(14)
C4 C 0.1604(3) 0.50720(11) 0.1815(2)
N3 N 0.20734(18) 0.49089(8) 0.35225(15)
C5 C 0.3059(2) 0.54870(10) 0.4488(2)
O3 O 0.35827(17) 0.60912(7) 0.38895(15)
C6 C 0.3391(2) 0.53054(10) 0.6177(2)
N4 N 0.4309(2) 0.58701(9) 0.70871(17)
O4 O 0.47143(17) 0.57318(8) 0.85983(14)
C7 C 0.2719(2) 0.45560(10) 0.67092(19)
N5 N 0.3054(2) 0.43546(9) 0.82198(17)
O5 O 0.66183(17) 0.30429(8) 0.97742(14)
H1 H 0.0380 0.3801 0.2126
H2 H -0.1252 0.2822 0.2852
H3 H -0.0898 0.3190 0.4606
H4 H 0.1998 0.4622 0.1220
H5 H 0.2162 0.5576 0.1563
H6 H 0.0338 0.5127 0.1519
H7 H 0.2647 0.3897 0.8536
H8 H 0.3684 0.4678 0.8915
H9 H 0.7840(8) 0.3119(10) 0.980(2)
H10 H 0.6177(19) 0.3529(7) 1.017(2)
O1C O 0.23875(16) 0.27107(8) 0.90508(14)
O3B O 0.64173(17) 0.39088(7) 0.61105(15)
N4A N 0.5691(2) 0.08701(9) 0.79129(17)
O4A O 0.52857(17) 0.07318(8) 0.64017(14)
O5C O 0.66183(17) 0.19571(8) 0.47742(14)
K1C K 0.46135(5) 0.24223(2) 0.19176(4)
K1B K 0.53865(5) 0.74223(2) 0.30824(4)
K1A K 0.53865(5) 0.75777(2) 0.80824(4)
K1C_2 K 0.46135(5) 0.24223(2) 1.19176(4)
H9C H 0.7840(8) 0.1881(10) 0.480(2)
H10C H 0.6177(19) 0.1471(7) 0.517(2)
loop_
_geom_bond_atom_site_label_1
_geom_bond_atom_site_label_2
_geom_bond_site_symmetry_1
_geom_bond_site_symmetry_2
K1 O1 1_555 1_555
N1 C1 1_555 1_555
C1 N2 1_555 1_555
N2 C2 1_555 1_555
C2 C3 1_555 1_555
C3 O1 1_555 1_555
O1 K1C 1_555 1_555
O2 C3 1_555 1_555
C4 N3 1_555 1_555
N3 C1 1_555 1_555
C5 N3 1_555 1_555
O3 C5 1_555 1_555
C6 C5 1_555 1_555
N4 C6 1_555 1_555
O4 N4 1_555 1_555
C7 N1 1_555 1_555
N5 C7 1_555 1_555
O5 K1 1_555 1_555
H1 N2 1_555 1_555
H2 C2 1_555 1_555
H3 C2 1_555 1_555
H4 C4 1_555 1_555
H5 C4 1_555 1_555
H6 C4 1_555 1_555
H7 N5 1_555 1_555
H8 N5 1_555 1_555
H9 O5 1_555 1_555
H10 O5 1_555 1_555
O1C K1 1_555 1_555
O3B K1 1_555 1_555
N4A K1 1_555 1_555
O4A K1 1_555 1_555
O5C K1 1_555 1_555
K1C O5C 1_555 1_555
K1B O3 1_555 1_555
K1A N4 1_555 1_555
K1C_2 O5 1_555 1_555
H9C O5C 1_555 1_555
H10C O5C 1_555 1_555
C6 C7 1_555 1_555
O4 K1A 1_555 1_555
O1C K1C_2 1_555 1_555
N4A O4A 1_555 1_555

#END
