
#######################################################################
#
#                 Cambridge Crystallographic Data Centre
#                                CCDC 
#
#######################################################################
#
# If this CIF has been generated from an entry in the Cambridge 
# Structural Database, then it will include bibliographic, chemical, 
# crystal, experimental, refinement or atomic coordinate data resulting 
# from the CCDC's data processing and validation procedures.
#
#######################################################################

data_QOYGIU
_symmetry_cell_setting           triclinic
_symmetry_space_group_name_H-M   'P -1'
_symmetry_Int_Tables_number      2
_space_group_name_Hall           '-P 1'
loop_
_symmetry_equiv_pos_site_id
_symmetry_equiv_pos_as_xyz
1 x,y,z
2 -x,-y,-z
_cell_length_a                   7.57020(10)
_cell_length_b                   11.5237(2)
_cell_length_c                   13.3743(3)
_cell_angle_alpha                104.4350(8)
_cell_angle_beta                 97.8415(8)
_cell_angle_gamma                103.5004(7)
_cell_volume                     1074.95
loop_
_atom_site_label
_atom_site_type_symbol
_atom_site_fract_x
_atom_site_fract_y
_atom_site_fract_z
Na1 Na 0.05392(8) -0.00233(5) 0.63859(4)
Na2 Na 0.44774(8) 0.02654(5) 0.87001(4)
N1 N 0.63681(16) 0.43063(11) 0.62252(9)
C1 C 0.7496(2) 0.35828(13) 0.62632(10)
N2 N 0.68035(17) 0.24431(11) 0.63286(10)
C2 C 0.48563(19) 0.19257(13) 0.62986(11)
C3 C 0.3659(2) 0.12325(13) 0.52015(11)
O1 O 0.20324(14) 0.06612(10) 0.51894(8)
O2 O 0.43522(15) 0.12875(11) 0.44102(8)
N3 N 0.93659(17) 0.39433(11) 0.62513(9)
C4 C 1.0470(2) 0.30464(14) 0.62079(13)
C5 C 1.0242(2) 0.51581(13) 0.62703(11)
O3 O 1.19040(15) 0.54667(10) 0.62615(9)
C6 C 0.9051(2) 0.59845(13) 0.62927(10)
N4 N 0.99469(18) 0.71658(11) 0.64088(9)
O4 O 0.90055(15) 0.79584(9) 0.64188(9)
C7 C 0.7088(2) 0.54845(13) 0.62214(10)
N5 N 0.59444(17) 0.61854(11) 0.61787(10)
N6 N -0.11087(16) -0.40708(11) 0.88221(9)
C8 C -0.22692(19) -0.33628(13) 0.88301(10)
N7 N -0.15810(17) -0.21679(11) 0.88895(10)
C9 C 0.0372(2) -0.16094(13) 0.89466(11)
C10 C 0.14604(19) -0.08322(13) 1.00496(11)
O5 O 0.30425(14) -0.01441(10) 1.00911(8)
O6 O 0.07505(15) -0.09126(11) 1.08261(8)
N8 N -0.41548(17) -0.37828(11) 0.87654(9)
C11 C -0.5355(2) -0.29641(14) 0.86837(13)
C12 C -0.4978(2) -0.50082(13) 0.87514(11)
O7 O -0.66516(15) -0.53699(10) 0.87057(9)
C13 C -0.37104(19) -0.57757(13) 0.88001(10)
N9 N -0.45236(17) -0.69255(11) 0.88204(9)
O8 O -0.35341(15) -0.76836(10) 0.88634(9)
C14 C -0.1785(2) -0.52597(13) 0.88043(10)
N10 N -0.06301(17) -0.59608(11) 0.87893(9)
O9 O 0.21649(15) 0.12493(10) 0.82016(8)
O10 O -0.18882(15) 0.06565(9) 0.70682(8)
O11 O 0.34158(17) -0.11114(11) 0.70071(9)
H1 H 0.7562 0.1980 0.6393
H2 H 0.4350 0.2613 0.6626
H3 H 0.4747 0.1344 0.6736
H4 H 1.0636 0.2856 0.6883
H5 H 1.1687 0.3407 0.6071
H6 H 0.9825 0.2278 0.5641
H7 H 0.4756 0.5876 0.6154
H8 H 0.6371 0.6963 0.6175
H9 H -0.2344 -0.1696 0.8894
H10 H 0.0477 -0.1072 0.8472
H11 H 0.0948 -0.2282 0.8682
H12 H -0.5001 -0.2254 0.9324
H13 H -0.6652 -0.3432 0.8603
H14 H -0.5216 -0.2659 0.8069
H15 H 0.0547 -0.5643 0.8791
H16 H -0.1037 -0.6745 0.8777
H17 H 0.1242(18) 0.1259(13) 0.8625(12)
H18 H 0.2985(18) 0.2073(8) 0.8394(13)
H19 H -0.2809(19) -0.0107(9) 0.6667(9)
H20 H -0.177(2) 0.0690(13) 0.7797(4)
H21 H 0.2414(18) -0.1862(11) 0.6824(14)
H22 H 0.416(2) -0.1211(16) 0.6480(12)
O1A O -0.20324(14) -0.06612(10) 0.48106(8)
O4_2 O -0.09945(15) -0.20416(9) 0.64188(9)
O5A O 0.69575(14) 0.01441(10) 0.99089(8)
O8_2 O 0.64659(15) 0.23164(10) 0.88634(9)
Na1A Na -0.05392(8) 0.00233(5) 0.36141(4)
Na1_2 Na 1.05392(8) 0.99767(5) 0.63859(4)
Na2A Na 0.55226(8) -0.02654(5) 1.12999(4)
Na2_2 Na -0.55226(8) -0.97346(5) 0.87001(4)
loop_
_geom_bond_atom_site_label_1
_geom_bond_atom_site_label_2
_geom_bond_site_symmetry_1
_geom_bond_site_symmetry_2
Na1 O1 1_555 1_555
Na2 O5 1_555 1_555
N1 C1 1_555 1_555
C1 N2 1_555 1_555
N2 C2 1_555 1_555
C2 C3 1_555 1_555
C3 O1 1_555 1_555
O1 Na1A 1_555 1_555
O2 C3 1_555 1_555
N3 C1 1_555 1_555
C4 N3 1_555 1_555
C5 N3 1_555 1_555
O3 C5 1_555 1_555
C6 C5 1_555 1_555
N4 C6 1_555 1_555
O4 N4 1_555 1_555
C7 N1 1_555 1_555
N5 C7 1_555 1_555
N6 C8 1_555 1_555
C8 N7 1_555 1_555
N7 C9 1_555 1_555
C9 C10 1_555 1_555
C10 O5 1_555 1_555
O5 Na2A 1_555 1_555
O6 C10 1_555 1_555
N8 C8 1_555 1_555
C11 N8 1_555 1_555
C12 N8 1_555 1_555
O7 C12 1_555 1_555
C13 C12 1_555 1_555
N9 C13 1_555 1_555
O8 N9 1_555 1_555
C14 N6 1_555 1_555
N10 C14 1_555 1_555
O9 Na1 1_555 1_555
O10 Na1 1_555 1_555
O11 Na2 1_555 1_555
H1 N2 1_555 1_555
H2 C2 1_555 1_555
H3 C2 1_555 1_555
H4 C4 1_555 1_555
H5 C4 1_555 1_555
H6 C4 1_555 1_555
H7 N5 1_555 1_555
H8 N5 1_555 1_555
H9 N7 1_555 1_555
H10 C9 1_555 1_555
H11 C9 1_555 1_555
H12 C11 1_555 1_555
H13 C11 1_555 1_555
H14 C11 1_555 1_555
H15 N10 1_555 1_555
H16 N10 1_555 1_555
H17 O9 1_555 1_555
H18 O9 1_555 1_555
H19 O10 1_555 1_555
H20 O10 1_555 1_555
H21 O11 1_555 1_555
H22 O11 1_555 1_555
O1A Na1 1_555 1_555
O4_2 Na1 1_555 1_555
O5A Na2 1_555 1_555
O8_2 Na2 1_555 1_555
Na1A O1A 1_555 1_555
Na1_2 O4 1_555 1_555
Na2A O5A 1_555 1_555
Na2_2 O8 1_555 1_555
Na2 O9 1_555 1_555
C6 C7 1_555 1_555
C13 C14 1_555 1_555

#END
