
#######################################################################
#
#                 Cambridge Crystallographic Data Centre
#                                CCDC 
#
#######################################################################
#
# If this CIF has been generated from an entry in the Cambridge 
# Structural Database, then it will include bibliographic, chemical, 
# crystal, experimental, refinement or atomic coordinate data resulting 
# from the CCDC's data processing and validation procedures.
#
#######################################################################

data_QOYLIA
_symmetry_cell_setting           monoclinic
_symmetry_space_group_name_H-M   'P 21/n'
_symmetry_Int_Tables_number      14
_space_group_name_Hall           '-P 2yn'
loop_
_symmetry_equiv_pos_site_id
_symmetry_equiv_pos_as_xyz
1 x,y,z
2 1/2-x,1/2+y,1/2-z
3 -x,-y,-z
4 1/2+x,1/2-y,1/2+z
_cell_length_a                   9.4093(10)
_cell_length_b                   11.5611(12)
_cell_length_c                   13.4812(15)
_cell_angle_alpha                90
_cell_angle_beta                 105.445(7)
_cell_angle_gamma                90
_cell_volume                     1413.55
loop_
_atom_site_label
_atom_site_type_symbol
_atom_site_fract_x
_atom_site_fract_y
_atom_site_fract_z
Ni1 Ni 0.5000 0.5000 0.0000
Ni2 Ni 0.74064(6) 0.40386(5) 0.22918(4)
O1 O 0.4178(3) 0.3480(3) 0.0378(2)
O2 O 0.5803(3) 0.2840(3) 0.1803(3)
O3 O -0.1265(3) 0.2962(3) 0.0426(2)
O4 O -0.1039(3) 0.2872(3) 0.2120(2)
O5 O -0.0921(3) 0.0137(3) 0.2306(2)
O6 O 0.0506(3) 0.0819(3) 0.3796(2)
O7 O 0.5817(3) 0.0135(3) 0.2141(2)
O8 O 0.6005(3) 0.1241(3) 0.3545(2)
O9 O 0.7120(3) 0.4652(3) 0.0820(2)
H1 H 0.7916 0.4778 0.0512
O10 O 0.7780(3) 0.3318(3) 0.3751(2)
H2 H 0.8531 0.3634 0.4313
H3 H 0.7204 0.2671 0.3863
C1 C 0.4555(5) 0.2880(4) 0.1178(3)
C2 C 0.3386(4) 0.2171(4) 0.1468(3)
C3 C 0.1914(5) 0.2508(4) 0.1116(3)
H8 H 0.1628 0.3068 0.0573
C4 C 0.0850(5) 0.2052(4) 0.1547(3)
C5 C -0.0611(5) 0.2656(4) 0.1333(3)
C6 C 0.1239(5) 0.1197(4) 0.2304(3)
C7 C 0.0174(4) 0.0695(4) 0.2844(3)
C8 C 0.2695(5) 0.0817(4) 0.2610(3)
H9 H 0.2957 0.0205 0.3105
C9 C 0.3782(5) 0.1307(4) 0.2218(3)
C10 C 0.5346(5) 0.0885(4) 0.2655(3)
Ni1A Ni 0.0000 0.0000 0.5000
Ni1A_2 Ni 1.0000 1.0000 -0.5000
Ni2B Ni 0.25936(6) 0.59614(5) -0.22918(4)
Ni2_2 Ni -0.25936(6) 0.40386(5) 0.22918(4)
Ni2A Ni -0.24064(6) -0.09614(5) 0.27082(4)
Ni2A_2 Ni 0.75936(6) -0.09614(5) 0.27082(4)
Ni2B_2 Ni 1.25936(6) 0.59614(5) -0.22918(4)
Ni2C Ni 1.24064(6) 1.09614(5) -0.27082(4)
Ni2C_2 Ni 0.24064(6) 1.09614(5) -0.27082(4)
O1B O 0.5822(3) 0.6520(3) -0.0378(2)
O2B O 0.4197(3) 0.7160(3) -0.1803(3)
O3B O 1.1265(3) 0.7038(3) -0.0426(2)
O4B O 1.1039(3) 0.7128(3) -0.2120(2)
O4_2 O 0.8961(3) 0.2872(3) 0.2120(2)
O4B_2 O 0.1039(3) 0.7128(3) -0.2120(2)
O5B O 1.0921(3) 0.9863(3) -0.2306(2)
O5A O 0.5921(3) 0.5137(3) 0.2694(2)
O5C O 0.4079(3) 0.4863(3) -0.2694(2)
O6B O 0.9494(3) 0.9181(3) -0.3796(2)
O6A O 0.4494(3) 0.5819(3) 0.1204(2)
O6C O 0.5506(3) 0.4181(3) -0.1204(2)
O7B O 0.4183(3) 0.9865(3) -0.2141(2)
O7A O 0.9183(3) 0.5135(3) 0.2859(2)
O7C O 0.0817(3) 0.4865(3) -0.2859(2)
O8B O 0.3995(3) 0.8759(3) -0.3545(2)
O9B O 0.2880(3) 0.5348(3) -0.0820(2)
H1B H 0.2084 0.5222 -0.0512
O10B O 0.2220(3) 0.6682(3) -0.3751(2)
H2B H 0.1469 0.6366 -0.4313
H3B H 0.2796 0.7329 -0.3863
C1B C 0.5445(5) 0.7120(4) -0.1178(3)
C2B C 0.6614(4) 0.7829(4) -0.1468(3)
C3B C 0.8086(5) 0.7492(4) -0.1116(3)
H8B H 0.8372 0.6932 -0.0573
C4B C 0.9150(5) 0.7948(4) -0.1547(3)
C5B C 1.0611(5) 0.7344(4) -0.1333(3)
C6B C 0.8761(5) 0.8803(4) -0.2304(3)
C7B C 0.9826(4) 0.9305(4) -0.2844(3)
C8B C 0.7305(5) 0.9183(4) -0.2610(3)
H9B H 0.7043 0.9795 -0.3105
C9B C 0.6218(5) 0.8693(4) -0.2218(3)
C10B C 0.4654(5) 0.9115(4) -0.2655(3)
K1 K 0.08546(12) 0.32101(10) 0.41287(9)
O11 O 0.2830(4) 0.4844(3) 0.5200(3)
H4 H 0.3133 0.4834 0.4574
H5 H 0.3557 0.4834 0.5853
O12 O 0.3928(4) 0.3519(3) 0.3827(3)
H6 H 0.4901 0.3766 0.3825
H7 H 0.3508 0.3766 0.4368
loop_
_geom_bond_atom_site_label_1
_geom_bond_atom_site_label_2
_geom_bond_site_symmetry_1
_geom_bond_site_symmetry_2
Ni1 O1 1_555 1_555
Ni2 O2 1_555 1_555
O1 C1 1_555 1_555
O2 C1 1_555 1_555
O3 C5 1_555 1_555
O4 C5 1_555 1_555
O5 C7 1_555 1_555
O6 C7 1_555 1_555
O7 C10 1_555 1_555
O8 C10 1_555 1_555
O9 Ni1 1_555 1_555
H1 O9 1_555 1_555
O10 Ni2 1_555 1_555
H2 O10 1_555 1_555
H3 O10 1_555 1_555
O11 H4 1_555 1_555
H5 O11 1_555 1_555
O12 H6 1_555 1_555
H7 O12 1_555 1_555
C1 C2 1_555 1_555
C2 C3 1_555 1_555
C3 H8 1_555 1_555
C4 C3 1_555 1_555
C5 C4 1_555 1_555
C6 C4 1_555 1_555
C7 C6 1_555 1_555
C8 C6 1_555 1_555
H9 C8 1_555 1_555
C9 C2 1_555 1_555
C10 C9 1_555 1_555
Ni1A O6 1_555 1_555
Ni1A_2 O6B 1_555 1_555
Ni2B O2B 1_555 1_555
Ni2_2 O4 1_555 1_555
Ni2A O5 1_555 1_555
Ni2A_2 O7 1_555 1_555
Ni2B_2 O4B 1_555 1_555
Ni2C O5B 1_555 1_555
Ni2C_2 O7B 1_555 1_555
O1B Ni1 1_555 1_555
O2B C1B 1_555 1_555
O3B C5B 1_555 1_555
O4B C5B 1_555 1_555
O4_2 Ni2 1_555 1_555
O4B_2 Ni2B 1_555 1_555
O5B C7B 1_555 1_555
O5A Ni2 1_555 1_555
O5C Ni2B 1_555 1_555
O6B C7B 1_555 1_555
O6A Ni1 1_555 1_555
O6C Ni1 1_555 1_555
O7B C10B 1_555 1_555
O7A Ni2 1_555 1_555
O7C Ni2B 1_555 1_555
O8B C10B 1_555 1_555
O9B Ni1 1_555 1_555
H1B O9B 1_555 1_555
O10B Ni2B 1_555 1_555
H2B O10B 1_555 1_555
H3B O10B 1_555 1_555
C1B O1B 1_555 1_555
C2B C1B 1_555 1_555
C3B C2B 1_555 1_555
H8B C3B 1_555 1_555
C4B C3B 1_555 1_555
C5B C4B 1_555 1_555
C6B C4B 1_555 1_555
C7B C6B 1_555 1_555
C8B C6B 1_555 1_555
H9B C8B 1_555 1_555
C9B C2B 1_555 1_555
C10B C9B 1_555 1_555
Ni2 O9 1_555 1_555
C8 C9 1_555 1_555
Ni2B O9B 1_555 1_555
C8B C9B 1_555 1_555

#END
