
#######################################################################
#
#                 Cambridge Crystallographic Data Centre
#                                CCDC 
#
#######################################################################
#
# If this CIF has been generated from an entry in the Cambridge 
# Structural Database, then it will include bibliographic, chemical, 
# crystal, experimental, refinement or atomic coordinate data resulting 
# from the CCDC's data processing and validation procedures.
#
#######################################################################

data_QOYMAT
_symmetry_cell_setting           monoclinic
_symmetry_space_group_name_H-M   'P n'
_symmetry_Int_Tables_number      7
_space_group_name_Hall           'P -2yac'
loop_
_symmetry_equiv_pos_site_id
_symmetry_equiv_pos_as_xyz
1 x,y,z
2 1/2+x,-y,1/2+z
_cell_length_a                   9.4829(19)
_cell_length_b                   11.218(2)
_cell_length_c                   13.905(3)
_cell_angle_alpha                90
_cell_angle_beta                 104.63(3)
_cell_angle_gamma                90
_cell_volume                     1431.24
loop_
_atom_site_label
_atom_site_type_symbol
_atom_site_fract_x
_atom_site_fract_y
_atom_site_fract_z
Cs1 Cs -0.01601(11) 0.36624(12) 0.19124(9)
Cs2 Cs -0.07592(13) -0.11323(12) -0.16584(10)
Ni1 Ni 0.26798(16) 0.33972(15) 0.00383(12)
Ni2 Ni 0.03112(19) 0.25158(18) -0.22087(15)
Ni3 Ni 0.29472(16) -0.15440(15) 0.05647(12)
O1 O 0.1133(12) 0.2265(10) 0.0372(8)
O2 O -0.0191(11) 0.1604(9) -0.1100(8)
O3 O 0.1346(10) -0.0434(9) 0.0665(7)
O4 O 0.1466(10) -0.0402(9) 0.2297(7)
O5 O -0.3864(10) -0.1027(10) 0.2314(8)
O6 O -0.5541(11) -0.0262(8) 0.1076(8)
O7 O -0.5728(10) 0.1198(9) -0.0810(7)
O8 O -0.5533(9) 0.2300(8) 0.0530(7)
O9 O 0.4180(10) 0.4668(9) -0.0083(7)
O10 O 0.4242(12) 0.4459(9) -0.1664(8)
O11 O 0.5758(10) 0.6517(8) 0.1642(7)
O12 O 0.4522(10) 0.7424(9) 0.0235(7)
O13 O 1.1245(10) 0.7249(9) 0.0053(8)
O14 O 1.1295(10) 0.6171(10) 0.1439(7)
O15 O 1.1115(10) 0.4640(9) -0.0360(7)
O16 O 0.9453(10) 0.4037(9) -0.1784(7)
O17 O 0.2439(8) 0.2832(8) -0.1430(6)
O18 O -0.1790(9) 0.2160(8) -0.3012(7)
O19 O 0.2992(12) 0.4083(10) 0.1476(8)
O20 O 0.2624(10) -0.0890(9) -0.0885(7)
C1 C -0.1003(15) 0.1201(14) 0.0350(10)
C2 C -0.0602(15) 0.0412(12) 0.1151(10)
C3 C -0.1664(14) -0.0055(13) 0.1574(10)
H1 H -0.1419 -0.0587 0.2103
C4 C -0.3103(14) 0.0294(12) 0.1186(11)
C5 C -0.3513(14) 0.1112(13) 0.0435(10)
C6 C -0.2462(14) 0.1532(12) -0.0011(11)
H2 H -0.2728 0.2039 -0.0556
C7 C 0.0109(15) 0.1725(14) -0.0152(12)
C8 C 0.0871(16) -0.0149(13) 0.1416(12)
C9 C -0.4291(14) -0.0399(13) 0.1553(10)
C10 C -0.5065(14) 0.1532(12) 0.0014(11)
C11 C 0.6254(13) 0.5413(13) -0.0538(11)
C12 C 0.6615(13) 0.6239(13) 0.0221(10)
C13 C 0.8061(15) 0.6617(13) 0.0513(11)
H3 H 0.8318 0.7197 0.1004
C14 C 0.9125(14) 0.6160(13) 0.0099(10)
C15 C 0.8739(14) 0.5301(11) -0.0643(9)
C16 C 0.7291(13) 0.4997(13) -0.0974(10)
H4 H 0.7010 0.4488 -0.1517
C17 C 0.4747(13) 0.4843(12) -0.0776(10)
C18 C 0.5514(17) 0.6778(14) 0.0750(13)
C19 C 1.0687(14) 0.6534(12) 0.0532(12)
C20 C 0.9864(15) 0.4589(12) -0.0982(12)
Ni1_2 Ni -0.73202(16) 0.33972(15) 0.00383(12)
Ni1_3 Ni 1.26798(16) 0.33972(15) 0.00383(12)
Ni2A Ni -0.46888(19) -0.25158(18) 0.27913(15)
Ni2A_2 Ni 0.53112(19) 0.74842(18) 0.27913(15)
Ni2_2 Ni 1.03112(19) 0.25158(18) -0.22087(15)
Ni3_2 Ni -0.70528(16) -0.15440(15) 0.05647(12)
Ni3_3 Ni 0.29472(16) 0.84560(15) 0.05647(12)
Ni3_4 Ni 1.29472(16) 0.84560(15) 0.05647(12)
Ni3A Ni -0.20528(16) 0.15440(15) -0.44353(12)
O5A O 0.1136(10) 0.1027(10) -0.2686(8)
O6_2 O 0.4459(11) -0.0262(8) 0.1076(8)
O8_2 O 0.4467(9) 0.2300(8) 0.0530(7)
O11A O 0.0758(10) 0.3483(8) -0.3358(7)
O12_2 O 0.4522(10) -0.2576(9) 0.0235(7)
O13_2 O 0.1245(10) -0.2751(9) 0.0053(8)
O15_2 O 0.1115(10) 0.4640(9) -0.0360(7)
O16_2 O -0.0547(10) 0.4037(9) -0.1784(7)
O18A O 0.3210(9) -0.2160(8) 0.1988(7)
O21 O 0.0956(14) 0.1482(11) 0.3591(9)
O22 O -0.3695(17) 0.4043(10) 0.1842(12)
O23 O -0.247(4) 0.3020(16) 0.3296(13)
loop_
_geom_bond_atom_site_label_1
_geom_bond_atom_site_label_2
_geom_bond_site_symmetry_1
_geom_bond_site_symmetry_2
Ni1 O1 1_555 1_555
Ni2 O2 1_555 1_555
Ni3 O3 1_555 1_555
O1 C7 1_555 1_555
O2 C7 1_555 1_555
O3 C8 1_555 1_555
O4 C8 1_555 1_555
O5 C9 1_555 1_555
O6 C9 1_555 1_555
O7 C10 1_555 1_555
O8 C10 1_555 1_555
O9 Ni1 1_555 1_555
O10 C17 1_555 1_555
O11 C18 1_555 1_555
O12 C18 1_555 1_555
O13 C19 1_555 1_555
O14 C19 1_555 1_555
O15 C20 1_555 1_555
O16 C20 1_555 1_555
O17 Ni1 1_555 1_555
O18 Ni2 1_555 1_555
O19 Ni1 1_555 1_555
O20 Ni3 1_555 1_555
C1 C2 1_555 1_555
C2 C3 1_555 1_555
C3 H1 1_555 1_555
C4 C3 1_555 1_555
C5 C4 1_555 1_555
C6 C1 1_555 1_555
H2 C6 1_555 1_555
C7 C1 1_555 1_555
C8 C2 1_555 1_555
C9 C4 1_555 1_555
C10 C5 1_555 1_555
C11 C12 1_555 1_555
C12 C13 1_555 1_555
C13 H3 1_555 1_555
C14 C13 1_555 1_555
C15 C14 1_555 1_555
C16 C11 1_555 1_555
H4 C16 1_555 1_555
C17 O9 1_555 1_555
C18 C12 1_555 1_555
C19 C14 1_555 1_555
C20 C15 1_555 1_555
Ni1_2 O8 1_555 1_555
Ni1_3 O15 1_555 1_555
Ni2A O5 1_555 1_555
Ni2A_2 O11 1_555 1_555
Ni2_2 O16 1_555 1_555
Ni3_2 O6 1_555 1_555
Ni3_3 O12 1_555 1_555
Ni3_4 O13 1_555 1_555
Ni3A O18 1_555 1_555
O5A Ni2 1_555 1_555
O6_2 Ni3 1_555 1_555
O8_2 Ni1 1_555 1_555
O11A Ni2 1_555 1_555
O12_2 Ni3 1_555 1_555
O13_2 Ni3 1_555 1_555
O15_2 Ni1 1_555 1_555
O16_2 Ni2 1_555 1_555
O18A Ni3 1_555 1_555
Ni2 O17 1_555 1_555
C5 C6 1_555 1_555
C11 C17 1_555 1_555
C15 C16 1_555 1_555

#END
