
#######################################################################
#
#                 Cambridge Crystallographic Data Centre
#                                CCDC 
#
#######################################################################
#
# If this CIF has been generated from an entry in the Cambridge 
# Structural Database, then it will include bibliographic, chemical, 
# crystal, experimental, refinement or atomic coordinate data resulting 
# from the CCDC's data processing and validation procedures.
#
#######################################################################

data_QOYXIL
_symmetry_cell_setting           monoclinic
_symmetry_space_group_name_H-M   'P 21/c'
_symmetry_Int_Tables_number      14
_space_group_name_Hall           '-P 2ybc'
loop_
_symmetry_equiv_pos_site_id
_symmetry_equiv_pos_as_xyz
1 x,y,z
2 x,1/2-y,1/2+z
3 -x,-y,-z
4 -x,1/2+y,1/2-z
_cell_length_a                   16.9451(4)
_cell_length_b                   8.7280(2)
_cell_length_c                   16.8639(4)
_cell_angle_alpha                90
_cell_angle_beta                 112.2980(10)
_cell_angle_gamma                90
_cell_volume                     2307.61
loop_
_atom_site_label
_atom_site_type_symbol
_atom_site_fract_x
_atom_site_fract_y
_atom_site_fract_z
Ni1 Ni 0.308462(15) 0.06658(3) 0.037990(15)
Ni2 Ni 0.200057(15) 0.21333(3) 0.229657(15)
C1 C 0.20739(12) -0.1140(2) 0.21315(12)
C2 C 0.22068(14) -0.2430(2) 0.17213(13)
C3 C 0.24950(12) -0.1846(2) 0.11102(13)
C4 C 0.27293(15) -0.2595(2) 0.04303(14)
C5 C 0.42437(14) -0.1934(3) 0.10355(14)
C6 C 0.47836(14) -0.0507(3) 0.12076(14)
C7 C 0.34969(15) -0.2112(3) -0.05071(14)
C8 C 0.47835(15) 0.2237(3) 0.13839(16)
C9 C 0.43246(15) 0.0649(3) 0.22765(13)
C10 C 0.17624(14) -0.0926(2) 0.28442(13)
C11 C 0.04325(13) 0.0368(3) 0.19809(14)
C12 C 0.01634(13) 0.1889(3) 0.15294(13)
C13 C 0.11530(15) 0.0940(3) 0.35041(13)
C14 C 0.07454(14) 0.1615(3) 0.04223(13)
C15 C 0.06394(15) 0.4084(3) 0.09687(14)
N1 N 0.25326(10) -0.03058(18) 0.11554(10)
N2 N 0.22763(10) 0.01390(18) 0.17961(9)
N3 N 0.34169(10) -0.16828(19) 0.03047(10)
N4 N 0.43305(10) 0.08036(19) 0.14044(10)
N5 N 0.12693(10) 0.05231(18) 0.27081(10)
N6 N 0.08111(10) 0.24655(19) 0.12076(10)
N7 N 0.27828(11) 0.29650(19) 0.05067(11)
N8 N 0.27436(10) 0.32787(18) 0.11742(11)
N9 N 0.27078(11) 0.36058(19) 0.18379(11)
N10 N 0.36544(10) 0.1363(2) -0.04857(10)
N11 N 0.33514(10) 0.23076(19) -0.10130(10)
N12 N 0.30647(11) 0.3264(2) -0.15398(10)
N13 N 0.18977(10) 0.0332(2) -0.06938(10)
N14 N 0.17896(10) 0.06520(18) -0.14054(10)
N15 N 0.16513(11) 0.09398(19) -0.21254(10)
H1 H 0.4055(15) -0.021(3) 0.2333(14)
H2 H 0.1679(14) 0.119(3) 0.3935(13)
H3 H -0.0380(13) 0.178(2) 0.1078(13)
H4 H 0.0502(13) -0.037(3) 0.1582(13)
H5 H 0.2235(13) -0.084(2) 0.3374(13)
H6 H 0.2990(14) -0.189(2) -0.0984(14)
H7 H -0.0018(13) 0.004(3) 0.2202(13)
H8 H 0.0888(14) 0.013(3) 0.3703(14)
H9 H 0.0823(13) 0.054(3) 0.0516(13)
H10 H 0.0104(12) 0.263(2) 0.1931(14)
H11 H 0.2230(13) -0.264(2) -0.0150(14)
H12 H 0.3971(14) -0.156(3) -0.0560(13)
H13 H 0.1177(14) 0.196(2) 0.0232(13)
H14 H 0.4745(13) 0.245(3) 0.0840(15)
H15 H 0.4102(13) -0.223(3) 0.1530(15)
H16 H 0.0062(15) 0.421(2) 0.0558(14)
H17 H 0.0702(12) 0.473(2) 0.1453(13)
H18 H 0.5298(14) -0.067(2) 0.1621(14)
H19 H 0.1409(14) -0.178(3) 0.2883(14)
H20 H 0.2133(14) -0.343(3) 0.1822(14)
H21 H 0.0173(15) 0.179(3) -0.0029(15)
H22 H 0.4894(14) -0.025(3) 0.0707(14)
H23 H 0.4910(15) 0.058(3) 0.2706(14)
H24 H 0.0776(14) 0.176(3) 0.3390(14)
H25 H 0.3589(14) -0.317(3) -0.0515(14)
H26 H 0.4501(14) 0.303(3) 0.1548(15)
H27 H 0.5391(16) 0.220(3) 0.1796(16)
H28 H 0.4046(14) 0.153(3) 0.2410(14)
H29 H 0.4503(16) -0.286(3) 0.0912(16)
H30 H 0.2900(14) -0.358(3) 0.0585(14)
H31 H 0.1034(15) 0.443(3) 0.0699(14)
N12A N 0.30647(11) 0.1736(2) 0.34602(10)
N15A N 0.16513(11) 0.40602(19) 0.28746(10)
Ni2A Ni 0.200057(15) 0.28667(3) -0.270343(15)
loop_
_geom_bond_atom_site_label_1
_geom_bond_atom_site_label_2
_geom_bond_site_symmetry_1
_geom_bond_site_symmetry_2
Ni1 N1 1_555 1_555
Ni2 N2 1_555 1_555
C1 C2 1_555 1_555
C2 C3 1_555 1_555
C3 C4 1_555 1_555
C4 N3 1_555 1_555
C5 C6 1_555 1_555
C6 N4 1_555 1_555
C7 N3 1_555 1_555
C8 N4 1_555 1_555
C9 N4 1_555 1_555
C10 C1 1_555 1_555
C11 C12 1_555 1_555
C12 N6 1_555 1_555
C13 N5 1_555 1_555
C14 N6 1_555 1_555
C15 N6 1_555 1_555
N1 C3 1_555 1_555
N2 C1 1_555 1_555
N3 Ni1 1_555 1_555
N4 Ni1 1_555 1_555
N5 Ni2 1_555 1_555
N6 Ni2 1_555 1_555
N7 Ni1 1_555 1_555
N8 N7 1_555 1_555
N9 Ni2 1_555 1_555
N10 Ni1 1_555 1_555
N11 N10 1_555 1_555
N12 N11 1_555 1_555
N13 Ni1 1_555 1_555
N14 N13 1_555 1_555
N15 N14 1_555 1_555
H1 C9 1_555 1_555
H2 C13 1_555 1_555
H3 C12 1_555 1_555
H4 C11 1_555 1_555
H5 C10 1_555 1_555
H6 C7 1_555 1_555
H7 C11 1_555 1_555
H8 C13 1_555 1_555
H9 C14 1_555 1_555
H10 C12 1_555 1_555
H11 C4 1_555 1_555
H12 C7 1_555 1_555
H13 C14 1_555 1_555
H14 C8 1_555 1_555
H15 C5 1_555 1_555
H16 C15 1_555 1_555
H17 C15 1_555 1_555
H18 C6 1_555 1_555
H19 C10 1_555 1_555
H20 C2 1_555 1_555
H21 C14 1_555 1_555
H22 C6 1_555 1_555
H23 C9 1_555 1_555
H24 C13 1_555 1_555
H25 C7 1_555 1_555
H26 C8 1_555 1_555
H27 C8 1_555 1_555
H28 C9 1_555 1_555
H29 C5 1_555 1_555
H30 C4 1_555 1_555
H31 C15 1_555 1_555
N12A Ni2 1_555 1_555
N15A Ni2 1_555 1_555
Ni2A N12 1_555 1_555
C5 N3 1_555 1_555
C10 N5 1_555 1_555
C11 N5 1_555 1_555
N1 N2 1_555 1_555
N8 N9 1_555 1_555
N15 Ni2A 1_555 1_555

#END
