
#######################################################################
#
#                 Cambridge Crystallographic Data Centre
#                                CCDC 
#
#######################################################################
#
# If this CIF has been generated from an entry in the Cambridge 
# Structural Database, then it will include bibliographic, chemical, 
# crystal, experimental, refinement or atomic coordinate data resulting 
# from the CCDC's data processing and validation procedures.
#
#######################################################################

data_QOYYAG
_symmetry_cell_setting           monoclinic
_symmetry_space_group_name_H-M   'P 21/n'
_symmetry_Int_Tables_number      14
_space_group_name_Hall           '-P 2yn'
loop_
_symmetry_equiv_pos_site_id
_symmetry_equiv_pos_as_xyz
1 x,y,z
2 1/2-x,1/2+y,1/2-z
3 -x,-y,-z
4 1/2+x,1/2-y,1/2+z
_cell_length_a                   15.574(3)
_cell_length_b                   24.083(5)
_cell_length_c                   15.804(3)
_cell_angle_alpha                90
_cell_angle_beta                 107.11(3)
_cell_angle_gamma                90
_cell_volume                     5665.24
loop_
_atom_site_label
_atom_site_type_symbol
_atom_site_fract_x
_atom_site_fract_y
_atom_site_fract_z
Ni1 Ni 0.40664(10) 0.71079(7) 0.77209(9)
N1 N 0.3279(4) 0.7760(3) 0.7953(4)
C1 C 0.2498(5) 0.7723(3) 0.8204(5)
H1 H 0.2265 0.7376 0.8277
C2 C 0.2065(4) 0.8203(4) 0.8347(5)
H2 H 0.1542 0.8178 0.8515
C3 C 0.2413(6) 0.8720(3) 0.8237(6)
H3 H 0.2123 0.9041 0.8332
C4 C 0.3194(6) 0.8758(3) 0.7985(6)
C5 C 0.3627(4) 0.8278(3) 0.7843(5)
N2 N 0.4785(4) 0.7799(3) 0.7481(4)
C6 C 0.5578(5) 0.7794(3) 0.7248(5)
H4 H 0.5845 0.7458 0.7180
C7 C 0.5974(4) 0.8291(4) 0.7116(5)
H5 H 0.6505 0.8288 0.6960
C8 C 0.5576(6) 0.8794(3) 0.7217(6)
H6 H 0.5840 0.9126 0.7129
C9 C 0.4782(6) 0.8799(3) 0.7450(6)
C10 C 0.4386(4) 0.8302(3) 0.7582(5)
C11 C 0.3603(13) 0.9275(7) 0.7859(14)
H7 H 0.3343 0.9603 0.7975
C12 C 0.4322(13) 0.9310(7) 0.7588(14)
H8 H 0.4539 0.9656 0.7485
N3 N 0.4812(5) 0.7064(3) 0.9055(4)
C13 C 0.4639(5) 0.7343(4) 0.9758(5)
H9 H 0.4132 0.7566 0.9660
C14 C 0.5226(7) 0.7288(4) 1.0608(4)
H10 H 0.5110 0.7474 1.1078
C15 C 0.5984(6) 0.6955(5) 1.0754(4)
H11 H 0.6376 0.6918 1.1323
C16 C 0.6157(5) 0.6677(4) 1.0051(6)
C17 C 0.5570(5) 0.6731(3) 0.9201(5)
N4 N 0.5071(4) 0.6544(3) 0.7659(5)
C18 C 0.5175(6) 0.6288(4) 0.6908(4)
H12 H 0.4753 0.6346 0.6360
C19 C 0.5911(7) 0.5945(4) 0.6974(6)
H13 H 0.5981 0.5774 0.6471
C20 C 0.6541(6) 0.5859(4) 0.7792(8)
H14 H 0.7033 0.5630 0.7836
C21 C 0.6437(5) 0.6115(4) 0.8544(6)
C22 C 0.5702(5) 0.6458(4) 0.8477(4)
C23 C 0.6926(10) 0.6316(7) 1.0101(13)
H15 H 0.7350 0.6272 1.0651
C24 C 0.7061(10) 0.6049(7) 0.9421(13)
H16 H 0.7558 0.5817 0.9506
N5 N 0.3133(5) 0.6502(3) 0.7802(5)
C25 C 0.3112(6) 0.6215(4) 0.8559(4)
H17 H 0.3576 0.6259 0.9083
C26 C 0.2399(7) 0.5862(4) 0.8534(7)
H18 H 0.2386 0.5670 0.9041
C27 C 0.1707(6) 0.5796(4) 0.7752(9)
H19 H 0.1230 0.5560 0.7735
C28 C 0.1727(5) 0.6083(4) 0.6995(6)
C29 C 0.2440(6) 0.6436(4) 0.7020(4)
N6 N 0.3292(5) 0.7051(3) 0.6394(4)
C30 C 0.3410(6) 0.7341(4) 0.5676(5)
H20 H 0.3919 0.7559 0.5745
C31 C 0.2768(7) 0.7304(4) 0.4853(4)
H21 H 0.2847 0.7498 0.4373
C32 C 0.2008(6) 0.6977(5) 0.4749(4)
H22 H 0.1579 0.6953 0.4198
C33 C 0.1890(5) 0.6688(4) 0.5467(6)
C34 C 0.2532(6) 0.6724(3) 0.6289(5)
C35 C 0.1047(13) 0.6032(9) 0.6170(15)
H23 H 0.0563 0.5795 0.6114
C36 C 0.1113(12) 0.6337(8) 0.5461(14)
H24 H 0.0637 0.6322 0.4943
In1 In 0.39808(6) 0.84635(4) 0.23208(5)
Se1 Se 0.41011(14) 0.94740(8) 0.27017(13)
Se2 Se 0.54064(12) 0.79124(10) 0.28154(11)
Se3 Se 0.34634(11) 0.84669(8) 0.06069(10)
Se4 Se 0.26964(11) 0.78646(9) 0.25243(10)
In2 In 0.46642(6) 0.94369(5) 0.43635(7)
In3 In 0.56283(6) 0.79375(4) 0.44485(5)
In4 In 0.22661(6) 0.78271(4) 0.08483(5)
Se5 Se 0.6221(3) 0.9860(2) 0.4998(5)
Se6 Se 0.44157(13) 0.84749(9) 0.48320(13)
Se7 Se 0.72874(11) 0.81446(8) 0.52348(11)
Se8 Se 0.56309(11) 0.69416(9) 0.50663(11)
Se5B Se 0.3779(3) 1.0140(2) 0.5002(5)
Se7C Se 0.22874(11) 0.68554(8) 0.02348(11)
Se8C Se 0.06309(11) 0.80584(9) 0.00663(11)
In2B In 0.53358(6) 1.05631(5) 0.56365(7)
In3C In 0.06283(6) 0.70625(4) -0.05515(5)
Se9? Se 0.634(3) 0.9796(18) 0.525(2)
Sn1? Sn 0.39808(6) 0.84635(4) 0.23208(5)
Sn2? Sn 0.56283(6) 0.79375(4) 0.44485(5)
Sn3? Sn 0.46642(6) 0.94369(5) 0.43635(7)
Sn4? Sn 0.22661(6) 0.78271(4) 0.08483(5)
loop_
_geom_bond_atom_site_label_1
_geom_bond_atom_site_label_2
_geom_bond_site_symmetry_1
_geom_bond_site_symmetry_2
In1 Se1 1_555 1_555
Se1 In2 1_555 1_555
Se2 In1 1_555 1_555
Se3 In1 1_555 1_555
Se4 In1 1_555 1_555
In2 Se5 1_555 1_555
In3 Se2 1_555 1_555
In4 Se3 1_555 1_555
Se5 In2B 1_555 1_555
Se6 In2 1_555 1_555
Se7 In3 1_555 1_555
Se8 In3 1_555 1_555
Ni1 N1 1_555 1_555
N1 C1 1_555 1_555
C1 H1 1_555 1_555
C2 C1 1_555 1_555
H2 C2 1_555 1_555
C3 C2 1_555 1_555
H3 C3 1_555 1_555
C4 C3 1_555 1_555
C5 N1 1_555 1_555
N2 Ni1 1_555 1_555
C6 N2 1_555 1_555
H4 C6 1_555 1_555
C7 C6 1_555 1_555
H5 C7 1_555 1_555
C8 C7 1_555 1_555
H6 C8 1_555 1_555
C9 C8 1_555 1_555
C10 C5 1_555 1_555
C11 C4 1_555 1_555
H7 C11 1_555 1_555
C12 C9 1_555 1_555
H8 C12 1_555 1_555
N3 Ni1 1_555 1_555
C13 N3 1_555 1_555
H9 C13 1_555 1_555
C14 C13 1_555 1_555
H10 C14 1_555 1_555
C15 C14 1_555 1_555
H11 C15 1_555 1_555
C16 C15 1_555 1_555
C17 N3 1_555 1_555
N4 Ni1 1_555 1_555
C18 N4 1_555 1_555
H12 C18 1_555 1_555
C19 C18 1_555 1_555
H13 C19 1_555 1_555
C20 C19 1_555 1_555
H14 C20 1_555 1_555
C21 C20 1_555 1_555
C22 C17 1_555 1_555
C23 C16 1_555 1_555
H15 C23 1_555 1_555
C24 C21 1_555 1_555
H16 C24 1_555 1_555
N5 Ni1 1_555 1_555
C25 N5 1_555 1_555
H17 C25 1_555 1_555
C26 C25 1_555 1_555
H18 C26 1_555 1_555
C27 C26 1_555 1_555
H19 C27 1_555 1_555
C28 C27 1_555 1_555
C29 N5 1_555 1_555
N6 Ni1 1_555 1_555
C30 N6 1_555 1_555
H20 C30 1_555 1_555
C31 C30 1_555 1_555
H21 C31 1_555 1_555
C32 C31 1_555 1_555
H22 C32 1_555 1_555
C33 C32 1_555 1_555
C34 C29 1_555 1_555
C35 C28 1_555 1_555
H23 C35 1_555 1_555
C36 C33 1_555 1_555
H24 C36 1_555 1_555
Se5B In2 1_555 1_555
Se7C In4 1_555 1_555
Se8C In4 1_555 1_555
In2B Se5B 1_555 1_555
In3C Se7C 1_555 1_555
Se4 In4 1_555 1_555
In3 Se6 1_555 1_555
C4 C5 1_555 1_555
N2 C10 1_555 1_555
C9 C10 1_555 1_555
C11 C12 1_555 1_555
C16 C17 1_555 1_555
N4 C22 1_555 1_555
C21 C22 1_555 1_555
C23 C24 1_555 1_555
C28 C29 1_555 1_555
N6 C34 1_555 1_555
C33 C34 1_555 1_555
C35 C36 1_555 1_555
Se8C In3C 1_555 1_555

#END
