
#######################################################################
#
#                 Cambridge Crystallographic Data Centre
#                                CCDC 
#
#######################################################################
#
# If this CIF has been generated from an entry in the Cambridge 
# Structural Database, then it will include bibliographic, chemical, 
# crystal, experimental, refinement or atomic coordinate data resulting 
# from the CCDC's data processing and validation procedures.
#
#######################################################################

data_QOYYIO
_symmetry_cell_setting           monoclinic
_symmetry_space_group_name_H-M   'P 21/n'
_symmetry_Int_Tables_number      14
_space_group_name_Hall           '-P 2yn'
loop_
_symmetry_equiv_pos_site_id
_symmetry_equiv_pos_as_xyz
1 x,y,z
2 1/2-x,1/2+y,1/2-z
3 -x,-y,-z
4 1/2+x,1/2-y,1/2+z
_cell_length_a                   15.610(3)
_cell_length_b                   24.238(5)
_cell_length_c                   15.828(3)
_cell_angle_alpha                90
_cell_angle_beta                 107.04(3)
_cell_angle_gamma                90
_cell_volume                     5725.71
loop_
_atom_site_label
_atom_site_type_symbol
_atom_site_fract_x
_atom_site_fract_y
_atom_site_fract_z
Co1 Co 0.59443(14) 0.21124(9) 0.22736(14)
N1 N 0.4941(6) 0.1532(4) 0.2329(8)
C1 C 0.4836(9) 0.1268(5) 0.3072(7)
H1 H 0.5256 0.1321 0.3619
C2 C 0.4102(11) 0.0927(5) 0.2996(11)
H2 H 0.4031 0.0751 0.3494
C3 C 0.3473(9) 0.0849(5) 0.2178(13)
H3 H 0.2982 0.0620 0.2127
C4 C 0.3579(7) 0.1112(6) 0.1435(10)
C5 C 0.4313(7) 0.1454(5) 0.1510(7)
N2 N 0.5166(6) 0.2064(4) 0.0916(5)
C6 C 0.5317(8) 0.2351(5) 0.0212(8)
H4 H 0.5814 0.2580 0.0305
C7 C 0.4724(10) 0.2295(6) -0.0631(6)
H5 H 0.4824 0.2487 -0.1102
C8 C 0.3981(9) 0.1953(7) -0.0771(6)
H6 H 0.3584 0.1915 -0.1335
C9 C 0.3831(7) 0.1666(6) -0.0067(9)
C10 C 0.4424(8) 0.1722(5) 0.0777(7)
C11 C 0.3074(13) 0.1312(10) -0.0134(18)
H7 H 0.2641 0.1278 -0.0679
C12 C 0.2965(14) 0.1019(12) 0.0581(19)
H8 H 0.2499 0.0767 0.0505
N3 N 0.5206(6) 0.2824(3) 0.2493(6)
C13 C 0.4413(6) 0.2822(4) 0.2725(7)
H9 H 0.4155 0.2489 0.2811
C14 C 0.4007(5) 0.3317(5) 0.2828(7)
H10 H 0.3476 0.3316 0.2983
C15 C 0.4393(7) 0.3815(4) 0.2699(8)
H11 H 0.4121 0.4146 0.2768
C16 C 0.5186(7) 0.3817(3) 0.2467(8)
C17 C 0.5593(5) 0.3321(4) 0.2365(7)
N4 N 0.6738(6) 0.2782(3) 0.2052(6)
C18 C 0.7514(6) 0.2744(4) 0.1794(7)
H12 H 0.7750 0.2400 0.1729
C19 C 0.7938(6) 0.3220(5) 0.1634(7)
H13 H 0.8457 0.3195 0.1462
C20 C 0.7585(7) 0.3735(4) 0.1732(8)
H14 H 0.7869 0.4054 0.1625
C21 C 0.6809(7) 0.3773(3) 0.1989(8)
C22 C 0.6385(5) 0.3297(4) 0.2149(7)
C23 C 0.5609(15) 0.4306(8) 0.2290(19)
H15 H 0.5344 0.4645 0.2322
C24 C 0.6408(15) 0.4288(7) 0.207(2)
H16 H 0.6680 0.4614 0.1977
N5 N 0.6742(6) 0.2040(4) 0.3629(6)
C25 C 0.6649(8) 0.2330(5) 0.4354(8)
H17 H 0.6156 0.2558 0.4294
C26 C 0.7294(11) 0.2280(7) 0.5170(6)
H18 H 0.7232 0.2474 0.5655
C27 C 0.8031(9) 0.1938(7) 0.5260(7)
H19 H 0.8462 0.1904 0.5805
C28 C 0.8123(7) 0.1648(6) 0.4534(9)
C29 C 0.7479(7) 0.1698(5) 0.3719(7)
N6 N 0.6891(6) 0.1485(4) 0.2196(7)
C30 C 0.6928(8) 0.1195(5) 0.1450(6)
H20 H 0.6477 0.1239 0.0920
C31 C 0.7640(10) 0.0840(5) 0.1496(9)
H21 H 0.7665 0.0646 0.0997
C32 C 0.8314(8) 0.0775(5) 0.2289(11)
H22 H 0.8790 0.0537 0.2320
C33 C 0.8277(7) 0.1065(6) 0.3035(8)
C34 C 0.7565(8) 0.1420(5) 0.2989(6)
C35 C 0.8863(15) 0.1297(11) 0.4557(16)
H23 H 0.9307 0.1251 0.5091
C36 C 0.8951(16) 0.1020(10) 0.3819(17)
H24 H 0.9457 0.0808 0.3854
In1 In 0.10379(7) 0.15354(5) 0.26674(7)
Se1 Se 0.09502(17) 0.05202(10) 0.23006(17)
Se2 Se -0.04128(16) 0.20579(12) 0.21700(15)
Se3 Se 0.15655(15) 0.15363(10) 0.43794(14)
Se4 Se 0.23103(15) 0.21345(11) 0.24505(14)
In2 In 0.03516(8) 0.05594(5) 0.06375(9)
In3 In -0.06258(7) 0.20551(5) 0.05354(7)
In4 In 0.27450(7) 0.21854(5) 0.41255(7)
Se5 Se -0.1213(7) 0.0157(8) 0.0004(18)
Se6 Se 0.05901(17) 0.15164(11) 0.01456(17)
Se7 Se 0.43828(15) 0.19585(10) 0.49116(16)
Se8 Se 0.27145(15) 0.31532(10) 0.47336(15)
In2B In -0.03516(8) -0.05594(5) -0.06375(9)
In3C In 0.43742(7) 0.29449(5) 0.55354(7)
Se5B Se 0.1213(7) -0.0157(8) -0.0004(18)
Se7C Se -0.06172(15) 0.30415(10) -0.00884(16)
Se8C Se -0.22855(15) 0.18468(10) -0.02664(15)
Sn1? Sn 0.10379(7) 0.15354(5) 0.26674(7)
Sn2? Sn 0.43742(7) 0.29449(5) 0.55354(7)
Sn3? Sn 0.03516(8) 0.05594(5) 0.06375(9)
Sn4? Sn 0.27450(7) 0.21854(5) 0.41255(7)
Se9? Se -0.113(3) 0.0063(18) 0.022(3)
Se10? Se -0.125(2) 0.0179(16) -0.013(2)
loop_
_geom_bond_atom_site_label_1
_geom_bond_atom_site_label_2
_geom_bond_site_symmetry_1
_geom_bond_site_symmetry_2
In1 Se1 1_555 1_555
Se1 In2 1_555 1_555
Se2 In1 1_555 1_555
Se3 In1 1_555 1_555
Se4 In1 1_555 1_555
In2 Se5 1_555 1_555
In3 Se2 1_555 1_555
In4 Se3 1_555 1_555
Se5 In2B 1_555 1_555
Se6 In2 1_555 1_555
Se7 In4 1_555 1_555
Se8 In4 1_555 1_555
Co1 N1 1_555 1_555
N1 C1 1_555 1_555
C1 H1 1_555 1_555
C2 C1 1_555 1_555
H2 C2 1_555 1_555
C3 C2 1_555 1_555
H3 C3 1_555 1_555
C4 C3 1_555 1_555
C5 N1 1_555 1_555
N2 Co1 1_555 1_555
C6 N2 1_555 1_555
H4 C6 1_555 1_555
C7 C6 1_555 1_555
H5 C7 1_555 1_555
C8 C7 1_555 1_555
H6 C8 1_555 1_555
C9 C8 1_555 1_555
C10 C5 1_555 1_555
C11 C9 1_555 1_555
H7 C11 1_555 1_555
C12 C4 1_555 1_555
H8 C12 1_555 1_555
N3 Co1 1_555 1_555
C13 N3 1_555 1_555
H9 C13 1_555 1_555
C14 C13 1_555 1_555
H10 C14 1_555 1_555
C15 C14 1_555 1_555
H11 C15 1_555 1_555
C16 C15 1_555 1_555
C17 N3 1_555 1_555
N4 Co1 1_555 1_555
C18 N4 1_555 1_555
H12 C18 1_555 1_555
C19 C18 1_555 1_555
H13 C19 1_555 1_555
C20 C19 1_555 1_555
H14 C20 1_555 1_555
C21 C20 1_555 1_555
C22 C17 1_555 1_555
C23 C16 1_555 1_555
H15 C23 1_555 1_555
C24 C21 1_555 1_555
H16 C24 1_555 1_555
N5 Co1 1_555 1_555
C25 N5 1_555 1_555
H17 C25 1_555 1_555
C26 C25 1_555 1_555
H18 C26 1_555 1_555
C27 C26 1_555 1_555
H19 C27 1_555 1_555
C28 C27 1_555 1_555
C29 N5 1_555 1_555
N6 Co1 1_555 1_555
C30 N6 1_555 1_555
H20 C30 1_555 1_555
C31 C30 1_555 1_555
H21 C31 1_555 1_555
C32 C31 1_555 1_555
H22 C32 1_555 1_555
C33 C32 1_555 1_555
C34 C29 1_555 1_555
C35 C28 1_555 1_555
H23 C35 1_555 1_555
C36 C33 1_555 1_555
H24 C36 1_555 1_555
In2B Se5B 1_555 1_555
In3C Se7 1_555 1_555
Se5B In2 1_555 1_555
Se7C In3 1_555 1_555
Se8C In3 1_555 1_555
Se4 In4 1_555 1_555
In3 Se6 1_555 1_555
Se8 In3C 1_555 1_555
C4 C5 1_555 1_555
N2 C10 1_555 1_555
C9 C10 1_555 1_555
C11 C12 1_555 1_555
C16 C17 1_555 1_555
N4 C22 1_555 1_555
C21 C22 1_555 1_555
C23 C24 1_555 1_555
C28 C29 1_555 1_555
N6 C34 1_555 1_555
C33 C34 1_555 1_555
C35 C36 1_555 1_555

#END
