
#######################################################################
#
#                 Cambridge Crystallographic Data Centre
#                                CCDC 
#
#######################################################################
#
# If this CIF has been generated from an entry in the Cambridge 
# Structural Database, then it will include bibliographic, chemical, 
# crystal, experimental, refinement or atomic coordinate data resulting 
# from the CCDC's data processing and validation procedures.
#
#######################################################################

data_QOYYEK
_symmetry_cell_setting           monoclinic
_symmetry_space_group_name_H-M   'P 21/n'
_symmetry_Int_Tables_number      14
_space_group_name_Hall           '-P 2yn'
loop_
_symmetry_equiv_pos_site_id
_symmetry_equiv_pos_as_xyz
1 x,y,z
2 1/2-x,1/2+y,1/2-z
3 -x,-y,-z
4 1/2+x,1/2-y,1/2+z
_cell_length_a                   15.130(3)
_cell_length_b                   23.728(5)
_cell_length_c                   15.450(3)
_cell_angle_alpha                90
_cell_angle_beta                 107.46(3)
_cell_angle_gamma                90
_cell_volume                     5291.07
loop_
_atom_site_label
_atom_site_type_symbol
_atom_site_fract_x
_atom_site_fract_y
_atom_site_fract_z
Fe1 Fe 0.59824(10) 0.78616(6) 0.72771(10)
N1 N 0.6836(6) 0.8456(3) 0.7137(6)
N2 N 0.6733(6) 0.7907(4) 0.8562(6)
N3 N 0.6769(6) 0.7251(3) 0.7071(6)
N4 N 0.5236(6) 0.7223(4) 0.7491(6)
N5 N 0.5229(6) 0.7881(3) 0.5975(6)
N6 N 0.5073(6) 0.8437(4) 0.7401(6)
C1 C 0.6886(8) 0.8724(5) 0.6401(8)
H1 H 0.6435 0.8655 0.5852
C2 C 0.7603(11) 0.9111(5) 0.6423(11)
H2 H 0.7601 0.9296 0.5892
C3 C 0.8270(11) 0.9216(6) 0.7170(12)
H3 H 0.8743 0.9467 0.7172
C4 C 0.8252(9) 0.8937(5) 0.7975(10)
C5 C 0.7533(7) 0.8567(5) 0.7917(8)
C6 C 0.6659(9) 0.7633(6) 0.9293(9)
H4 H 0.6163 0.7388 0.9220
C7 C 0.7274(10) 0.7693(7) 1.0147(10)
H5 H 0.7171 0.7500 1.0632
C8 C 0.8044(11) 0.8036(7) 1.0294(10)
H6 H 0.8494 0.8052 1.0856
C9 C 0.8119(10) 0.8371(7) 0.9529(9)
C10 C 0.7461(8) 0.8277(5) 0.8703(8)
C11 C 0.8953(12) 0.9022(7) 0.8839(14)
H7 H 0.9436 0.9273 0.8879
C12 C 0.8913(10) 0.8745(7) 0.9575(13)
H8 H 0.9384 0.8788 1.0119
C13 C 0.7554(8) 0.7271(5) 0.6834(8)
H9 H 0.7793 0.7621 0.6751
C14 C 0.8029(8) 0.6783(5) 0.6706(8)
H10 H 0.8567 0.6818 0.6538
C15 C 0.7721(9) 0.6275(5) 0.6822(9)
H11 H 0.8039 0.5953 0.6743
C16 C 0.6913(8) 0.6236(5) 0.7066(9)
C17 C 0.6465(7) 0.6720(4) 0.7191(8)
C18 C 0.4463(7) 0.7210(5) 0.7716(8)
H12 H 0.4191 0.7552 0.7787
C19 C 0.4024(9) 0.6712(5) 0.7854(9)
H13 H 0.3469 0.6728 0.7995
C20 C 0.4398(8) 0.6224(5) 0.7784(8)
H14 H 0.4108 0.5897 0.7890
C21 C 0.5238(9) 0.6179(5) 0.7550(9)
C22 C 0.5630(7) 0.6728(5) 0.7428(8)
C23 C 0.6503(10) 0.5700(5) 0.7219(13)
H15 H 0.6801 0.5364 0.7172
C24 C 0.5706(11) 0.5687(6) 0.7426(13)
H16 H 0.5451 0.5339 0.7491
C25 C 0.5342(9) 0.7609(5) 0.5264(8)
H17 H 0.5851 0.7373 0.5345
C26 C 0.4722(11) 0.7668(6) 0.4405(8)
H18 H 0.4800 0.7455 0.3929
C27 C 0.4029(11) 0.8018(7) 0.4256(9)
H19 H 0.3630 0.8058 0.3670
C28 C 0.3873(9) 0.8341(6) 0.4978(9)
C29 C 0.4503(8) 0.8258(5) 0.5846(7)
C30 C 0.5018(10) 0.8706(5) 0.8148(10)
H20 H 0.5468 0.8643 0.8700
C31 C 0.4292(11) 0.9081(6) 0.8108(12)
H21 H 0.4245 0.9244 0.8640
C32 C 0.3671(11) 0.9209(6) 0.7326(12)
H22 H 0.3217 0.9476 0.7308
C33 C 0.3697(10) 0.8937(5) 0.6514(11)
C34 C 0.4425(8) 0.8543(4) 0.6616(8)
C35 C 0.3108(11) 0.8747(8) 0.4909(13)
H23 H 0.2666 0.8810 0.4352
C36 C 0.3057(10) 0.9018(7) 0.5632(14)
H24 H 0.2580 0.9277 0.5568
In1 In 0.39259(5) 0.35048(3) 0.73234(5)
S1 S 0.4018(2) 0.44955(12) 0.7713(2)
S2 S 0.5358(2) 0.29695(14) 0.7833(2)
S3 S 0.3373(2) 0.34790(14) 0.5629(2)
S4 S 0.2642(2) 0.29167(13) 0.7494(2)
In2 In 0.46282(6) 0.44496(3) 0.93556(6)
In3 In 0.56106(6) 0.29604(4) 0.94614(6)
In4 In 0.22192(5) 0.28428(3) 0.58532(6)
S5 S 0.6170(2) 0.48742(16) 0.9942(3)
S6 S 0.4424(2) 0.35028(14) 0.9836(2)
S7 S 0.5591(2) 0.19889(14) 1.0066(2)
S8 S 0.7275(2) 0.31025(14) 1.0279(2)
S5B S 0.3830(2) 0.51258(16) 1.0058(3)
S7C S 0.0591(2) 0.30111(14) 0.5066(2)
S8C S 0.2275(2) 0.18975(14) 0.5279(2)
In2B In 0.53718(6) 0.55504(3) 1.06444(6)
In3C In 0.06106(6) 0.20396(4) 0.44614(6)
Sn1? Sn 0.39259(5) 0.35048(3) 0.73234(5)
Sn2? Sn 0.46282(6) 0.44496(3) 0.93556(6)
Sn3? Sn 0.56106(6) 0.29604(4) 0.94614(6)
Sn4? Sn 0.22192(5) 0.28428(3) 0.58532(6)
loop_
_geom_bond_atom_site_label_1
_geom_bond_atom_site_label_2
_geom_bond_site_symmetry_1
_geom_bond_site_symmetry_2
In1 S1 1_555 1_555
S1 In2 1_555 1_555
S2 In1 1_555 1_555
S3 In1 1_555 1_555
S4 In1 1_555 1_555
In2 S5 1_555 1_555
In3 S2 1_555 1_555
In4 S3 1_555 1_555
S5 In2B 1_555 1_555
S6 In2 1_555 1_555
S7 In3 1_555 1_555
S8 In3 1_555 1_555
Fe1 N1 1_555 1_555
N1 C1 1_555 1_555
N2 Fe1 1_555 1_555
N3 Fe1 1_555 1_555
N4 Fe1 1_555 1_555
N5 Fe1 1_555 1_555
N6 Fe1 1_555 1_555
C1 H1 1_555 1_555
C2 C1 1_555 1_555
H2 C2 1_555 1_555
C3 C2 1_555 1_555
H3 C3 1_555 1_555
C4 C3 1_555 1_555
C5 N1 1_555 1_555
C6 N2 1_555 1_555
H4 C6 1_555 1_555
C7 C6 1_555 1_555
H5 C7 1_555 1_555
C8 C7 1_555 1_555
H6 C8 1_555 1_555
C9 C8 1_555 1_555
C10 N2 1_555 1_555
C11 C4 1_555 1_555
H7 C11 1_555 1_555
C12 C9 1_555 1_555
H8 C12 1_555 1_555
C13 N3 1_555 1_555
H9 C13 1_555 1_555
C14 C13 1_555 1_555
H10 C14 1_555 1_555
C15 C14 1_555 1_555
H11 C15 1_555 1_555
C16 C15 1_555 1_555
C17 N3 1_555 1_555
C18 N4 1_555 1_555
H12 C18 1_555 1_555
C19 C18 1_555 1_555
H13 C19 1_555 1_555
C20 C19 1_555 1_555
H14 C20 1_555 1_555
C21 C20 1_555 1_555
C22 N4 1_555 1_555
C23 C16 1_555 1_555
H15 C23 1_555 1_555
C24 C21 1_555 1_555
H16 C24 1_555 1_555
C25 N5 1_555 1_555
H17 C25 1_555 1_555
C26 C25 1_555 1_555
H18 C26 1_555 1_555
C27 C26 1_555 1_555
H19 C27 1_555 1_555
C28 C27 1_555 1_555
C29 N5 1_555 1_555
C30 N6 1_555 1_555
H20 C30 1_555 1_555
C31 C30 1_555 1_555
H21 C31 1_555 1_555
C32 C31 1_555 1_555
H22 C32 1_555 1_555
C33 C32 1_555 1_555
C34 N6 1_555 1_555
C35 C28 1_555 1_555
H23 C35 1_555 1_555
C36 C33 1_555 1_555
H24 C36 1_555 1_555
S5B In2 1_555 1_555
S7C In4 1_555 1_555
S8C In4 1_555 1_555
In2B S5B 1_555 1_555
In3C S7C 1_555 1_555
S4 In4 1_555 1_555
In3 S6 1_555 1_555
C4 C5 1_555 1_555
C5 C10 1_555 1_555
C9 C10 1_555 1_555
C11 C12 1_555 1_555
C16 C17 1_555 1_555
C17 C22 1_555 1_555
C21 C22 1_555 1_555
C23 C24 1_555 1_555
C28 C29 1_555 1_555
C29 C34 1_555 1_555
C33 C34 1_555 1_555
C35 C36 1_555 1_555
S8C In3C 1_555 1_555

#END
