
#######################################################################
#
#                 Cambridge Crystallographic Data Centre
#                                CCDC 
#
#######################################################################
#
# If this CIF has been generated from an entry in the Cambridge 
# Structural Database, then it will include bibliographic, chemical, 
# crystal, experimental, refinement or atomic coordinate data resulting 
# from the CCDC's data processing and validation procedures.
#
#######################################################################

data_QOZBAI
_symmetry_cell_setting           monoclinic
_symmetry_space_group_name_H-M   'P 21/c'
_symmetry_Int_Tables_number      14
_space_group_name_Hall           '-P 2ybc'
loop_
_symmetry_equiv_pos_site_id
_symmetry_equiv_pos_as_xyz
1 x,y,z
2 x,1/2-y,1/2+z
3 -x,-y,-z
4 -x,1/2+y,1/2-z
_cell_length_a                   6.8830(3)
_cell_length_b                   20.9508(13)
_cell_length_c                   7.5354(5)
_cell_angle_alpha                90
_cell_angle_beta                 92.8680(10)
_cell_angle_gamma                90
_cell_volume                     1085.28
loop_
_atom_site_label
_atom_site_type_symbol
_atom_site_fract_x
_atom_site_fract_y
_atom_site_fract_z
Pb1 Pb 0.01427(8) 0.18815(4) 0.30527(8)
O1 O 0.3342(18) 0.1370(6) 0.4589(15)
O2 O 0.2003(17) 0.2050(6) 0.6338(15)
C1 C 0.335(3) 0.1703(8) 0.603(2)
C2 C 0.505(3) 0.1617(9) 0.729(2)
H1 H 0.6233 0.1689 0.6670
H2 H 0.5072 0.1181 0.7720
C3 C 0.500(2) 0.2082(8) 0.890(2)
H3 H 0.4903 0.2519 0.8481
H4 H 0.3876 0.1992 0.9583
C4 C 0.683(2) 0.2005(8) 1.007(2)
O3 O 0.675(2) 0.1583(7) 1.1382(17)
O4 O 0.8292(18) 0.2310(7) 0.9901(17)
Pb2 Pb 0.50268(10) 0.06290(4) 0.26912(8)
O5 O 0.1823(19) 0.1014(7) 0.1340(16)
O6 O 0.297(2) 0.0331(7) -0.0511(17)
C5 C 0.174(2) 0.0689(8) -0.020(2)
C6 C 0.002(3) 0.0837(8) -0.139(2)
H5 H 0.0018 0.1287 -0.1689
H6 H -0.1157 0.0746 -0.0778
C7 C 0.004(3) 0.0434(10) -0.311(2)
H7 H 0.1227 0.0521 -0.3713
H8 H 0.0027 -0.0016 -0.2810
C8 C -0.168(3) 0.0588(8) -0.431(2)
O7 O -0.1612(18) 0.1032(6) -0.5421(15)
O8 O -0.3205(18) 0.0266(6) -0.4181(15)
O3_2 O -0.325(2) 0.1583(7) 0.1382(17)
O4A O -0.1708(18) 0.2690(7) 0.4901(17)
O7_2 O -0.1612(18) 0.1032(6) 0.4579(15)
Pb1_2 Pb 1.01427(8) 0.18815(4) 1.30527(8)
Pb2_2 Pb 0.50268(10) 0.06290(4) 1.26912(8)
Pb1A Pb 1.01427(8) 0.31185(4) 0.80527(8)
O3_3 O 0.675(2) 0.1583(7) 0.1382(17)
O8_2 O 0.6795(18) 0.0266(6) 0.5819(15)
O8B O 0.3205(18) -0.0266(6) 0.4181(15)
Pb1_3 Pb 0.01427(8) 0.18815(4) -0.69473(8)
Pb2_3 Pb -0.49732(10) 0.06290(4) -0.73088(8)
Pb2B Pb -0.50268(10) -0.06290(4) -0.26912(8)
loop_
_geom_bond_atom_site_label_1
_geom_bond_atom_site_label_2
_geom_bond_site_symmetry_1
_geom_bond_site_symmetry_2
Pb1 O1 1_555 1_555
O1 C1 1_555 1_555
O2 Pb1 1_555 1_555
C1 O2 1_555 1_555
C2 C1 1_555 1_555
H1 C2 1_555 1_555
H2 C2 1_555 1_555
C3 C2 1_555 1_555
H3 C3 1_555 1_555
H4 C3 1_555 1_555
C4 C3 1_555 1_555
O3 C4 1_555 1_555
O4 C4 1_555 1_555
Pb2 O1 1_555 1_555
O5 Pb1 1_555 1_555
O6 C5 1_555 1_555
C5 O5 1_555 1_555
C6 C5 1_555 1_555
H5 C6 1_555 1_555
H6 C6 1_555 1_555
C7 C6 1_555 1_555
H7 C7 1_555 1_555
H8 C7 1_555 1_555
C8 C7 1_555 1_555
O7 C8 1_555 1_555
O8 C8 1_555 1_555
O3_2 Pb1 1_555 1_555
O4A Pb1 1_555 1_555
O7_2 Pb1 1_555 1_555
Pb1_2 O3 1_555 1_555
Pb2_2 O3 1_555 1_555
Pb1A O4 1_555 1_555
O3_3 Pb2 1_555 1_555
O8_2 Pb2 1_555 1_555
O8B Pb2 1_555 1_555
Pb1_3 O7 1_555 1_555
Pb2_3 O8 1_555 1_555
Pb2B O8 1_555 1_555
Pb2 O5 1_555 1_555

#END
