
#######################################################################
#
#                 Cambridge Crystallographic Data Centre
#                                CCDC 
#
#######################################################################
#
# If this CIF has been generated from an entry in the Cambridge 
# Structural Database, then it will include bibliographic, chemical, 
# crystal, experimental, refinement or atomic coordinate data resulting 
# from the CCDC's data processing and validation procedures.
#
#######################################################################

data_QOZBUC
_symmetry_cell_setting           orthorhombic
_symmetry_space_group_name_H-M   'P 21 21 21'
_symmetry_Int_Tables_number      19
_space_group_name_Hall           'P 2ac 2ab'
loop_
_symmetry_equiv_pos_site_id
_symmetry_equiv_pos_as_xyz
1 x,y,z
2 1/2-x,-y,1/2+z
3 -x,1/2+y,1/2-z
4 1/2+x,1/2-y,-z
_cell_length_a                   7.2864(3)
_cell_length_b                   11.0392(5)
_cell_length_c                   23.2010(11)
_cell_angle_alpha                90
_cell_angle_beta                 90
_cell_angle_gamma                90
_cell_volume                     1866.2
loop_
_atom_site_label
_atom_site_type_symbol
_atom_site_fract_x
_atom_site_fract_y
_atom_site_fract_z
Pb1 Pb 0.656098(16) 0.189528(11) -0.037893(5)
C1 C 0.6195(5) 0.5358(3) 0.05708(15)
C2 C 0.4495(5) 0.5901(3) 0.04678(16)
H1 H 0.3591 0.5507 0.0256
C3 C 0.4202(5) 0.7052(4) 0.06921(17)
C4 C 0.5506(7) 0.7677(4) 0.09911(17)
H2 H 0.5287 0.8457 0.1126
C5 C 0.7132(6) 0.7117(3) 0.10835(18)
C6 C 0.7523(6) 0.5961(3) 0.08830(16)
H3 H 0.8652 0.5601 0.0957
O1 O 0.5219(3) 0.3575(2) 0.00869(11)
O2 O 0.8160(3) 0.3723(2) 0.03021(12)
C7 C 0.6577(5) 0.4133(2) 0.03066(13)
N1 N 0.2405(6) 0.7627(4) 0.05789(17)
O3 O 0.1199(4) 0.6996(3) 0.03606(15)
O4 O 0.2230(6) 0.8694(3) 0.07168(17)
N2 N 0.8566(7) 0.7783(3) 0.14088(16)
O5 O 0.9877(6) 0.7232(3) 0.15948(15)
O6 O 0.8335(8) 0.8862(3) 0.1464(2)
C8 C 0.6339(5) 0.4273(3) -0.18873(14)
C9 C 0.4777(5) 0.4240(3) -0.22232(14)
H4 H 0.3798 0.3742 -0.2122
C10 C 0.4687(5) 0.4955(3) -0.27116(15)
C11 C 0.6069(5) 0.5722(4) -0.28757(17)
H5 H 0.5968 0.6208 -0.3202
C12 C 0.7623(5) 0.5738(4) -0.25327(17)
C13 C 0.7792(5) 0.5013(4) -0.20463(16)
H6 H 0.8866 0.5024 -0.1830
O7 O 0.4978(3) 0.2970(3) -0.11983(10)
O8 O 0.7885(3) 0.3470(2) -0.10623(11)
C14 C 0.6422(6) 0.3517(3) -0.13433(14)
N3 N 0.3024(5) 0.4874(3) -0.30725(16)
O9 O 0.1748(5) 0.4255(3) -0.29116(14)
O10 O 0.3032(5) 0.5434(3) -0.35325(15)
N4 N 0.9132(5) 0.6561(4) -0.2687(2)
O11 O 0.9014(5) 0.7090(4) -0.31461(19)
O12 O 1.0418(5) 0.6656(3) -0.23624(16)
O13 O 0.6516(6) 0.1084(3) 0.07004(14)
H7 H 0.749(9) 0.100(6) 0.086(3)
H8 H 0.562(6) 0.126(4) 0.079(2)
O1C O 1.0219(3) 0.1425(2) -0.00869(11)
O2C O 0.3160(3) 0.1277(2) -0.03021(12)
Pb1C Pb 0.156098(16) 0.310472(11) 0.037893(5)
Pb1C_2 Pb 1.156098(16) 0.310472(11) 0.037893(5)
loop_
_geom_bond_atom_site_label_1
_geom_bond_atom_site_label_2
_geom_bond_site_symmetry_1
_geom_bond_site_symmetry_2
Pb1 O1 1_555 1_555
C1 C2 1_555 1_555
C2 H1 1_555 1_555
C3 C2 1_555 1_555
C4 C3 1_555 1_555
H2 C4 1_555 1_555
C5 C4 1_555 1_555
C6 C1 1_555 1_555
H3 C6 1_555 1_555
O1 C7 1_555 1_555
O2 Pb1 1_555 1_555
C7 C1 1_555 1_555
N1 C3 1_555 1_555
O3 N1 1_555 1_555
O4 N1 1_555 1_555
N2 C5 1_555 1_555
O5 N2 1_555 1_555
O6 N2 1_555 1_555
C8 C9 1_555 1_555
C9 H4 1_555 1_555
C10 C9 1_555 1_555
C11 C10 1_555 1_555
H5 C11 1_555 1_555
C12 C11 1_555 1_555
C13 C8 1_555 1_555
H6 C13 1_555 1_555
O7 Pb1 1_555 1_555
O8 Pb1 1_555 1_555
C14 C8 1_555 1_555
N3 C10 1_555 1_555
O9 N3 1_555 1_555
O10 N3 1_555 1_555
N4 C12 1_555 1_555
O11 N4 1_555 1_555
O12 N4 1_555 1_555
O13 Pb1 1_555 1_555
H7 O13 1_555 1_555
H8 O13 1_555 1_555
O1C Pb1 1_555 1_555
O2C Pb1 1_555 1_555
Pb1C O1 1_555 1_555
Pb1C_2 O2 1_555 1_555
C5 C6 1_555 1_555
O2 C7 1_555 1_555
C12 C13 1_555 1_555
O7 C14 1_555 1_555
O8 C14 1_555 1_555
O1C Pb1C_2 1_555 1_555
O2C Pb1C 1_555 1_555

#END
