
#######################################################################
#
#                 Cambridge Crystallographic Data Centre
#                                CCDC 
#
#######################################################################
#
# If this CIF has been generated from an entry in the Cambridge 
# Structural Database, then it will include bibliographic, chemical, 
# crystal, experimental, refinement or atomic coordinate data resulting 
# from the CCDC's data processing and validation procedures.
#
#######################################################################

data_QOZGUH
_symmetry_cell_setting           orthorhombic
_symmetry_space_group_name_H-M   'P b c a'
_symmetry_Int_Tables_number      61
_space_group_name_Hall           '-P 2ac 2ab'
loop_
_symmetry_equiv_pos_site_id
_symmetry_equiv_pos_as_xyz
1 x,y,z
2 1/2+x,y,1/2-z
3 x,1/2-y,1/2+z
4 1/2-x,1/2+y,z
5 -x,-y,-z
6 1/2-x,-y,1/2+z
7 -x,1/2+y,1/2-z
8 1/2+x,1/2-y,-z
_cell_length_a                   7.8860(6)
_cell_length_b                   15.5844(11)
_cell_length_c                   16.2399(12)
_cell_angle_alpha                90
_cell_angle_beta                 90
_cell_angle_gamma                90
_cell_volume                     1995.86
loop_
_atom_site_label
_atom_site_type_symbol
_atom_site_fract_x
_atom_site_fract_y
_atom_site_fract_z
Ni1 Ni 0.03375(5) -0.11983(3) -0.50308(3)
S1 S 0.05559(11) 0.00007(6) -0.59891(6)
S2 S -0.22683(11) -0.18759(6) -0.55369(6)
N1 N 0.2319(4) -0.07379(19) -0.43381(19)
N2 N 0.2447(4) 0.0278(2) -0.3237(2)
N3 N -0.3085(4) -0.29544(18) -0.42677(19)
N4 N -0.0689(3) -0.20237(18) -0.41620(19)
C1 C 0.3984(5) -0.0879(2) -0.4275(3)
H1 H 0.4503 -0.1272 -0.4624
C2 C 0.4942(5) -0.0449(3) -0.3699(3)
H2 H 0.6106 -0.0535 -0.3659
C3 C 0.4110(5) 0.0115(3) -0.3182(3)
H3 H 0.4734 0.0395 -0.2777
C4 C -0.1611(4) 0.0154(2) -0.6172(2)
C5 C -0.2030(4) -0.2344(2) -0.4586(2)
C6 C -0.2869(5) -0.3123(2) -0.3458(2)
H4 H 0.3596 0.3516 -0.6789
C7 C -0.1642(5) -0.2750(2) -0.2977(2)
H5 H -0.1580 -0.2851 -0.2413
C8 C -0.0505(5) -0.2217(2) -0.3372(2)
H6 H 0.0403 -0.1989 -0.3079
S1D S -0.05559(11) -0.00007(6) -0.40109(6)
Ni1D Ni -0.03375(5) 0.11983(3) -0.49692(3)
C4D C 0.1611(4) -0.0154(2) -0.3828(2)
N1D N -0.2319(4) 0.07379(19) -0.56619(19)
N2D N -0.2447(4) -0.0278(2) -0.6763(2)
N3G N 0.1915(4) -0.20456(18) -0.57323(19)
Ni1G Ni -0.46625(5) -0.38017(3) -0.49692(3)
C1D C -0.3984(5) 0.0879(2) -0.5725(3)
C3D C -0.4110(5) -0.0115(3) -0.6818(3)
H1D H -0.4503 0.1272 -0.5376
C2D C -0.4942(5) 0.0449(3) -0.6301(3)
H3D H -0.4734 -0.0395 -0.7223
S2D S 0.22683(11) 0.18759(6) -0.44631(6)
N3C N -0.1915(4) 0.20456(18) -0.42677(19)
N4D N 0.0689(3) 0.20237(18) -0.58380(19)
H2D H -0.6106 0.0535 -0.6341
C5D C 0.2030(4) 0.2344(2) -0.5414(2)
C8D C 0.0505(5) 0.2217(2) -0.6628(2)
C7D C 0.1642(5) 0.2750(2) -0.7023(2)
H6D H -0.0403 0.1989 -0.6921
N3D N 0.3085(4) 0.29544(18) -0.57323(19)
C6D C 0.2869(5) 0.3123(2) -0.6542(2)
H5D H 0.1580 0.2851 -0.7587
Ni1C Ni 0.46625(5) 0.38017(3) -0.50308(3)
H4D H -0.3596 -0.3516 -0.3211
loop_
_geom_bond_atom_site_label_1
_geom_bond_atom_site_label_2
_geom_bond_site_symmetry_1
_geom_bond_site_symmetry_2
Ni1 S1 1_555 1_555
S1 C4 1_555 1_555
S2 Ni1 1_555 1_555
N1 Ni1 1_555 1_555
N2 C3 1_555 1_555
N3 C5 1_555 1_555
N4 Ni1 1_555 1_555
C1 N1 1_555 1_555
H1 C1 1_555 1_555
C2 C1 1_555 1_555
H2 C2 1_555 1_555
C3 C2 1_555 1_555
H3 C3 1_555 1_555
C4 N1D 1_555 1_555
C5 S2 1_555 1_555
C6 N3 1_555 1_555
H4 C6D 1_555 1_555
C7 C6 1_555 1_555
H5 C7 1_555 1_555
C8 N4 1_555 1_555
H6 C8 1_555 1_555
S1D Ni1 1_555 1_555
Ni1D S1 1_555 1_555
C4D N1 1_555 1_555
N1D Ni1D 1_555 1_555
N2D C4 1_555 1_555
N3G Ni1 1_555 1_555
Ni1G N3 1_555 1_555
C1D N1D 1_555 1_555
C3D N2D 1_555 1_555
H1D C1D 1_555 1_555
C2D C1D 1_555 1_555
H3D C3D 1_555 1_555
S2D Ni1D 1_555 1_555
N3C Ni1D 1_555 1_555
N4D Ni1D 1_555 1_555
H2D C2D 1_555 1_555
C5D S2D 1_555 1_555
C8D N4D 1_555 1_555
C7D C8D 1_555 1_555
H6D C8D 1_555 1_555
N3D C5D 1_555 1_555
C6D C7D 1_555 1_555
H5D C7D 1_555 1_555
Ni1C N3D 1_555 1_555
H4D C6 1_555 1_555
N2 C4D 1_555 1_555
N4 C5 1_555 1_555
C7 C8 1_555 1_555
S1D C4D 1_555 1_555
S1D Ni1D 1_555 1_555
C3D C2D 1_555 1_555
N4D C5D 1_555 1_555
N3D C6D 1_555 1_555

#END
