
#######################################################################
#
#                 Cambridge Crystallographic Data Centre
#                                CCDC 
#
#######################################################################
#
# If this CIF has been generated from an entry in the Cambridge 
# Structural Database, then it will include bibliographic, chemical, 
# crystal, experimental, refinement or atomic coordinate data resulting 
# from the CCDC's data processing and validation procedures.
#
#######################################################################

data_QOZHIY
_symmetry_cell_setting           monoclinic
_symmetry_space_group_name_H-M   'C 2/c'
_symmetry_Int_Tables_number      15
_space_group_name_Hall           '-C 2yn'
loop_
_symmetry_equiv_pos_site_id
_symmetry_equiv_pos_as_xyz
1 x,y,z
2 -x,y,1/2-z
3 1/2+x,1/2+y,z
4 1/2-x,1/2+y,1/2-z
5 -x,-y,-z
6 x,-y,1/2+z
7 1/2-x,1/2-y,-z
8 1/2+x,1/2-y,1/2+z
_cell_length_a                   21.774(5)
_cell_length_b                   18.169(4)
_cell_length_c                   22.493(5)
_cell_angle_alpha                90
_cell_angle_beta                 118.311(3)
_cell_angle_gamma                90
_cell_volume                     7834.11
loop_
_atom_site_label
_atom_site_type_symbol
_atom_site_fract_x
_atom_site_fract_y
_atom_site_fract_z
Ni1 Ni 0.10971(3) -0.01260(3) 0.06955(3)
Ni2 Ni 0.2500 0.7500 0.0000
C1 C 0.0035(3) 0.1168(3) 0.0075(2)
C2 C 0.0330(3) 0.1936(3) 0.0191(2)
C3 C 0.0948(3) 0.2081(3) 0.0766(3)
H1 H 0.1173 0.1710 0.1080
C4 C 0.1228(3) 0.2775(3) 0.0871(3)
C5 C 0.0929(3) 0.3356(3) 0.0424(3)
C6 C 0.0312(3) 0.3198(3) -0.0137(3)
H2 H 0.0088 0.3569 -0.0451
C7 C 0.0008(3) 0.2508(3) -0.0256(3)
H3 H -0.0417 0.2428 -0.0640
C8 C 0.1224(3) 0.4112(3) 0.0504(3)
C9 C 0.1633(4) 0.4297(3) 0.0213(3)
H4 H 0.1754 0.3932 -0.0003
C10 C 0.1874(3) 0.5010(3) 0.0231(3)
H5 H 0.2159 0.5115 0.0039
C11 C 0.1686(3) 0.5564(3) 0.0536(3)
C12 C 0.1273(3) 0.5389(3) 0.0832(3)
H6 H 0.1146 0.5753 0.1044
C13 C 0.1050(3) 0.4677(3) 0.0810(3)
C14 C 0.1900(3) 0.6356(3) 0.0540(3)
C15 C 0.2379(3) 0.0025(3) 0.1248(3)
C16 C 0.3154(3) 0.0106(3) 0.1615(3)
C17 C 0.3451(3) 0.0691(4) 0.2035(3)
H7 H 0.3171 0.1045 0.2086
C18 C 0.4171(3) 0.0757(4) 0.2384(3)
C19 C 0.4609(3) 0.0258(3) 0.2316(3)
C20 C 0.4299(3) -0.0325(3) 0.1888(3)
H8 H 0.4580 -0.0672 0.1829
C21 C 0.3577(3) -0.0412(3) 0.1540(3)
H9 H 0.3381 -0.0816 0.1259
C22 C 0.1065(3) -0.0591(3) -0.0591(2)
H10 H 0.1039 -0.1053 -0.0427
C23 C 0.1078(3) -0.0546(3) -0.1195(3)
H11 H 0.1051 -0.0975 -0.1432
C24 C 0.1130(3) 0.0122(3) -0.1455(3)
C25 C 0.1167(4) 0.0739(3) -0.1078(3)
H12 H 0.1202 0.1206 -0.1229
C26 C 0.1151(4) 0.0654(3) -0.0477(3)
H13 H 0.1185 0.1074 -0.0226
C27 C 0.1150(3) 0.0166(3) -0.2106(3)
C28 C 0.1459(6) -0.0389(4) -0.2292(4)
H14 H 0.1666 -0.0785 -0.2004
C29 C 0.1462(6) -0.0360(5) -0.2905(4)
H15 H 0.1682 -0.0733 -0.3015
C30 C 0.0937(7) 0.0782(6) -0.3121(5)
H16 H 0.0782 0.1204 -0.3386
C31 C 0.0942(7) 0.0769(8) -0.2513(7)
H17 H 0.0798 0.1186 -0.2372
N1 N 0.1153(2) 0.0198(2) -0.3351(2)
C32 C 0.3429(3) 0.7428(3) 0.1526(2)
H18 H 0.3004 0.7347 0.1518
C33 C 0.4025(3) 0.7432(3) 0.2145(2)
H19 H 0.3995 0.7354 0.2539
C34 C 0.4669(3) 0.7554(3) 0.2174(2)
C35 C 0.4671(3) 0.7663(3) 0.1562(3)
H20 H 0.5089 0.7746 0.1555
C36 C 0.4050(3) 0.7649(3) 0.0965(3)
H21 H 0.4063 0.7723 0.0562
N2 N 0.1088(2) 0.0001(2) -0.0232(2)
N3 N 0.3429(2) 0.7534(2) 0.09378(19)
N4 N 0.1899(4) 0.2887(4) 0.1492(4)
N5 N 0.0592(4) 0.4538(4) 0.1113(4)
N6 N 0.4448(3) 0.1380(4) 0.2866(4)
O1 O 0.03871(18) 0.06858(18) 0.04941(17)
O2 O -0.05544(19) 0.10731(18) -0.04334(16)
O3 O 0.22369(18) 0.64923(17) 0.02251(17)
O4 O 0.1721(2) 0.6811(2) 0.0839(2)
O5 O 0.21067(18) -0.0609(2) 0.10645(17)
O6 O 0.20045(18) 0.0584(2) 0.11400(18)
O7 O 0.1956(2) 0.80501(19) 0.04079(18)
H22 H 0.201(3) 0.8451(15) 0.061(2)
H23 H 0.185(3) 0.7699(18) 0.059(2)
O8 O 0.1994(4) 0.2477(4) 0.1987(4)
O9 O 0.2253(4) 0.3379(4) 0.1575(4)
O10 O 0.0651(4) 0.3974(3) 0.1405(4)
O11 O 0.0182(4) 0.5017(4) 0.1067(4)
O12 O 0.5044(3) 0.1458(3) 0.3214(3)
O13 O 0.4066(5) 0.1654(7) 0.3084(6)
C15A C 0.7621(3) 0.0025(3) 0.3752(3)
C16A C 0.6846(3) 0.0106(3) 0.3385(3)
C17A C 0.6549(3) 0.0691(4) 0.2965(3)
H7A H 0.6829 0.1045 0.2914
C18A C 0.5829(3) 0.0757(4) 0.2616(3)
C19A C 0.5391(3) 0.0258(3) 0.2684(3)
C20A C 0.5701(3) -0.0325(3) 0.3112(3)
H8A H 0.5420 -0.0672 0.3171
C21A C 0.6423(3) -0.0412(3) 0.3460(3)
H9A H 0.6619 -0.0816 0.3741
N6A N 0.5552(3) 0.1380(4) 0.2134(4)
O5A O 0.78933(18) -0.0609(2) 0.39355(17)
O6A O 0.79955(18) 0.0584(2) 0.38600(18)
O12A O 0.4956(3) 0.1458(3) 0.1786(3)
O13A O 0.5934(5) 0.1654(7) 0.1916(6)
C32A C 0.6571(3) 0.7428(3) 0.3474(2)
H18A H 0.6996 0.7347 0.3482
C33A C 0.5975(3) 0.7432(3) 0.2855(2)
H19A H 0.6005 0.7354 0.2461
C34A C 0.5331(3) 0.7554(3) 0.2826(2)
C35A C 0.5329(3) 0.7663(3) 0.3438(3)
H20A H 0.4911 0.7746 0.3445
C36A C 0.5950(3) 0.7649(3) 0.4035(3)
H21A H 0.5937 0.7723 0.4438
N3A N 0.6571(2) 0.7534(2) 0.40622(19)
Ni1A Ni 0.89029(3) -0.01260(3) 0.43045(3)
C1A C 0.9965(3) 0.1168(3) 0.4925(2)
C2A C 0.9670(3) 0.1936(3) 0.4809(2)
C3A C 0.9052(3) 0.2081(3) 0.4234(3)
H1A H 0.8827 0.1710 0.3920
C4A C 0.8772(3) 0.2775(3) 0.4129(3)
C5A C 0.9071(3) 0.3356(3) 0.4576(3)
C6A C 0.9688(3) 0.3198(3) 0.5137(3)
H2A H 0.9912 0.3569 0.5451
C7A C 0.9992(3) 0.2508(3) 0.5256(3)
H3A H 1.0417 0.2428 0.5640
C8A C 0.8776(3) 0.4112(3) 0.4496(3)
C9A C 0.8367(4) 0.4297(3) 0.4787(3)
H4A H 0.8246 0.3932 0.5003
C10A C 0.8126(3) 0.5010(3) 0.4769(3)
H5A H 0.7841 0.5115 0.4961
C11A C 0.8314(3) 0.5564(3) 0.4464(3)
C12A C 0.8727(3) 0.5389(3) 0.4168(3)
H6A H 0.8854 0.5753 0.3956
C13A C 0.8950(3) 0.4677(3) 0.4190(3)
C14A C 0.8100(3) 0.6356(3) 0.4460(3)
C22A C 0.8935(3) -0.0591(3) 0.5591(2)
H10A H 0.8961 -0.1053 0.5427
C23A C 0.8922(3) -0.0546(3) 0.6195(3)
H11A H 0.8949 -0.0975 0.6432
C24A C 0.8870(3) 0.0122(3) 0.6455(3)
C25A C 0.8833(4) 0.0739(3) 0.6078(3)
H12A H 0.8798 0.1206 0.6229
C26A C 0.8849(4) 0.0654(3) 0.5477(3)
H13A H 0.8815 0.1074 0.5226
C27A C 0.8850(3) 0.0166(3) 0.7106(3)
C28A C 0.8541(6) -0.0389(4) 0.7292(4)
H14A H 0.8334 -0.0785 0.7004
C29A C 0.8538(6) -0.0360(5) 0.7905(4)
H15A H 0.8318 -0.0733 0.8015
C30A C 0.9063(7) 0.0782(6) 0.8121(5)
H16A H 0.9218 0.1204 0.8386
C31A C 0.9058(7) 0.0769(8) 0.7513(7)
H17A H 0.9202 0.1186 0.7372
N1A N 0.8847(2) 0.0198(2) 0.8351(2)
N2A N 0.8912(2) 0.0001(2) 0.5232(2)
N4A N 0.8101(4) 0.2887(4) 0.3508(4)
N5A N 0.9408(4) 0.4538(4) 0.3887(4)
O1A O 0.96129(18) 0.06858(18) 0.45059(17)
O2A O 1.05544(19) 0.10731(18) 0.54334(16)
O3A O 0.77631(18) 0.64923(17) 0.47749(17)
O4A O 0.8279(2) 0.6811(2) 0.4161(2)
O8A O 0.8006(4) 0.2477(4) 0.3013(4)
O9A O 0.7747(4) 0.3379(4) 0.3425(4)
O10A O 0.9349(4) 0.3974(3) 0.3595(4)
O11A O 0.9818(4) 0.5017(4) 0.3933(4)
O7F O 0.3044(2) 0.69499(19) -0.04079(18)
H22F H 0.299(3) 0.6549(15) -0.061(2)
H23F H 0.315(3) 0.7301(18) -0.059(2)
Ni1D Ni -0.10971(3) 0.01260(3) -0.06955(3)
Ni1D_2 Ni 0.89029(3) 0.01260(3) 0.93045(3)
Ni1E Ni 0.10971(3) 0.01260(3) -0.43045(3)
Ni1E_2 Ni 1.10971(3) 0.01260(3) 0.56955(3)
Ni2A Ni 0.7500 0.7500 0.5000
N1D N 0.8847(2) -0.0198(2) 0.3351(2)
N1E N 0.1153(2) -0.0198(2) 0.1649(2)
N3F N 0.1571(2) 0.7466(2) -0.09378(19)
O2D O 0.05544(19) -0.10731(18) 0.04334(16)
O2E O 0.94456(19) -0.10731(18) 0.45666(16)
O3F O 0.27631(18) 0.85077(17) -0.02251(17)
O15 O 0.2419(6) 0.1884(6) 0.0600(6)
O16 O 0.3611(7) 0.2464(6) 0.0763(7)
C37? C 0.0747(17) -0.0349(13) -0.2615(12)
H24? H 0.0471 -0.0689 -0.2542
C38? C 0.0763(15) -0.0345(13) -0.3199(12)
H25? H 0.0515 -0.0703 -0.3520
C39? C 0.1309(19) 0.069(2) -0.2980(17)
H26? H 0.1410 0.1125 -0.3127
C40? C 0.136(2) 0.070(2) -0.234(2)
H27? H 0.1564 0.1106 -0.2067
O14? O 0.4090(8) 0.2007(9) 0.2592(9)
loop_
_geom_bond_atom_site_label_1
_geom_bond_atom_site_label_2
_geom_bond_site_symmetry_1
_geom_bond_site_symmetry_2
Ni1 N2 1_555 1_555
Ni2 N3 1_555 1_555
C1 C2 1_555 1_555
C2 C3 1_555 1_555
C3 H1 1_555 1_555
C4 C3 1_555 1_555
C5 C4 1_555 1_555
C6 C5 1_555 1_555
H2 C6 1_555 1_555
C7 C2 1_555 1_555
H3 C7 1_555 1_555
C8 C5 1_555 1_555
C9 C8 1_555 1_555
H4 C9 1_555 1_555
C10 C9 1_555 1_555
H5 C10 1_555 1_555
C11 C10 1_555 1_555
C12 C11 1_555 1_555
H6 C12 1_555 1_555
C13 C8 1_555 1_555
C14 C11 1_555 1_555
C15 C16 1_555 1_555
C16 C17 1_555 1_555
C17 H7 1_555 1_555
C18 C17 1_555 1_555
C19 C18 1_555 1_555
C20 C19 1_555 1_555
H8 C20 1_555 1_555
C21 C16 1_555 1_555
H9 C21 1_555 1_555
C22 H10 1_555 1_555
C23 C22 1_555 1_555
H11 C23 1_555 1_555
C24 C23 1_555 1_555
C25 C24 1_555 1_555
H12 C25 1_555 1_555
C26 C25 1_555 1_555
H13 C26 1_555 1_555
C27 C24 1_555 1_555
C28 C27 1_555 1_555
H14 C28 1_555 1_555
C29 C28 1_555 1_555
H15 C29 1_555 1_555
C30 H16 1_555 1_555
C31 C27 1_555 1_555
H17 C31 1_555 1_555
N1 C29 1_555 1_555
C32 H18 1_555 1_555
C33 C32 1_555 1_555
H19 C33 1_555 1_555
C34 C33 1_555 1_555
C35 C34 1_555 1_555
H20 C35 1_555 1_555
C36 C35 1_555 1_555
H21 C36 1_555 1_555
N2 C22 1_555 1_555
N3 C32 1_555 1_555
N4 C4 1_555 1_555
N5 C13 1_555 1_555
N6 C18 1_555 1_555
O1 Ni1 1_555 1_555
O2 C1 1_555 1_555
O3 Ni2 1_555 1_555
O4 C14 1_555 1_555
O5 Ni1 1_555 1_555
O6 Ni1 1_555 1_555
O7 Ni2 1_555 1_555
H22 O7 1_555 1_555
H23 O7 1_555 1_555
O8 N4 1_555 1_555
O9 N4 1_555 1_555
O10 N5 1_555 1_555
O11 N5 1_555 1_555
O12 N6 1_555 1_555
O13 N6 1_555 1_555
C15A C16A 1_555 1_555
C16A C17A 1_555 1_555
C17A H7A 1_555 1_555
C18A C17A 1_555 1_555
C19A C19 1_555 1_555
C20A C19A 1_555 1_555
H8A C20A 1_555 1_555
C21A C16A 1_555 1_555
H9A C21A 1_555 1_555
N6A C18A 1_555 1_555
O5A C15A 1_555 1_555
O6A C15A 1_555 1_555
O12A N6A 1_555 1_555
O13A N6A 1_555 1_555
C32A H18A 1_555 1_555
C33A C32A 1_555 1_555
H19A C33A 1_555 1_555
C34A C34 1_555 1_555
C35A C34A 1_555 1_555
H20A C35A 1_555 1_555
C36A C35A 1_555 1_555
H21A C36A 1_555 1_555
N3A C32A 1_555 1_555
Ni1A O5A 1_555 1_555
C1A C2A 1_555 1_555
C2A C3A 1_555 1_555
C3A H1A 1_555 1_555
C4A C3A 1_555 1_555
C5A C4A 1_555 1_555
C6A C5A 1_555 1_555
H2A C6A 1_555 1_555
C7A C2A 1_555 1_555
H3A C7A 1_555 1_555
C8A C5A 1_555 1_555
C9A C8A 1_555 1_555
H4A C9A 1_555 1_555
C10A C9A 1_555 1_555
H5A C10A 1_555 1_555
C11A C10A 1_555 1_555
C12A C11A 1_555 1_555
H6A C12A 1_555 1_555
C13A C8A 1_555 1_555
C14A C11A 1_555 1_555
C22A H10A 1_555 1_555
C23A C22A 1_555 1_555
H11A C23A 1_555 1_555
C24A C23A 1_555 1_555
C25A C24A 1_555 1_555
H12A C25A 1_555 1_555
C26A C25A 1_555 1_555
H13A C26A 1_555 1_555
C27A C24A 1_555 1_555
C28A C27A 1_555 1_555
H14A C28A 1_555 1_555
C29A C28A 1_555 1_555
H15A C29A 1_555 1_555
C30A H16A 1_555 1_555
C31A C27A 1_555 1_555
H17A C31A 1_555 1_555
N1A C29A 1_555 1_555
N2A Ni1A 1_555 1_555
N4A C4A 1_555 1_555
N5A C13A 1_555 1_555
O1A Ni1A 1_555 1_555
O2A C1A 1_555 1_555
O3A C14A 1_555 1_555
O4A C14A 1_555 1_555
O8A N4A 1_555 1_555
O9A N4A 1_555 1_555
O10A N5A 1_555 1_555
O11A N5A 1_555 1_555
O7F Ni2 1_555 1_555
H22F O7F 1_555 1_555
H23F O7F 1_555 1_555
Ni1D O2 1_555 1_555
Ni1D_2 N1A 1_555 1_555
Ni1E N1 1_555 1_555
Ni1E_2 O2A 1_555 1_555
Ni2A N3A 1_555 1_555
N1D Ni1A 1_555 1_555
N1E Ni1 1_555 1_555
N3F Ni2 1_555 1_555
O2D Ni1 1_555 1_555
O2E Ni1A 1_555 1_555
O3F Ni2 1_555 1_555
C1 O1 1_555 1_555
C6 C7 1_555 1_555
C12 C13 1_555 1_555
C14 O3 1_555 1_555
C15 O5 1_555 1_555
C15 O6 1_555 1_555
C20 C21 1_555 1_555
C26 N2 1_555 1_555
C30 C31 1_555 1_555
C30 N1 1_555 1_555
C36 N3 1_555 1_555
C18A C19A 1_555 1_555
C20A C21A 1_555 1_555
O6A Ni1A 1_555 1_555
C33A C34A 1_555 1_555
C36A N3A 1_555 1_555
C1A O1A 1_555 1_555
C6A C7A 1_555 1_555
C12A C13A 1_555 1_555
C22A N2A 1_555 1_555
C26A N2A 1_555 1_555
C30A C31A 1_555 1_555
C30A N1A 1_555 1_555
O3A Ni2A 1_555 1_555

#END
