
#######################################################################
#
#                 Cambridge Crystallographic Data Centre
#                                CCDC 
#
#######################################################################
#
# If this CIF has been generated from an entry in the Cambridge 
# Structural Database, then it will include bibliographic, chemical, 
# crystal, experimental, refinement or atomic coordinate data resulting 
# from the CCDC's data processing and validation procedures.
#
#######################################################################

data_QOZJOE
_symmetry_cell_setting           monoclinic
_symmetry_space_group_name_H-M   'P 21/c'
_symmetry_Int_Tables_number      14
_space_group_name_Hall           '-P 2ybc'
loop_
_symmetry_equiv_pos_site_id
_symmetry_equiv_pos_as_xyz
1 x,y,z
2 x,1/2-y,1/2+z
3 -x,-y,-z
4 -x,1/2+y,1/2-z
_cell_length_a                   8.176(2)
_cell_length_b                   14.718(3)
_cell_length_c                   15.952(3)
_cell_angle_alpha                90
_cell_angle_beta                 101.60(3)
_cell_angle_gamma                90
_cell_volume                     1880.37
loop_
_atom_site_label
_atom_site_type_symbol
_atom_site_fract_x
_atom_site_fract_y
_atom_site_fract_z
Cu1 Cu 0.22008(9) 0.78418(5) 0.72133(4)
Cr1 Cr 0.02373(14) 0.62813(7) 0.83874(7)
Cr2 Cr -0.32456(13) 0.71817(8) 0.82728(6)
O1 O 0.1191(5) 0.7091(3) 0.7998(3)
O2 O -0.1925(5) 0.6346(3) 0.7976(3)
O3 O 0.0839(7) 0.5311(3) 0.8134(5)
O4 O 0.0484(7) 0.6378(5) 0.9385(3)
O5 O -0.2561(6) 0.8161(3) 0.8072(3)
O6 O 0.4893(5) 0.7005(3) 0.7723(3)
O7 O -0.3211(6) 0.7107(4) 0.9270(3)
O8 O -0.0450(5) 0.8491(3) 0.6892(3)
H1 H -0.0436 0.9140 0.6861
H2 H -0.1381 0.8179 0.7065
N1 N 0.3161(6) 0.8617(3) 0.6387(3)
N2 N 0.1560(6) 0.6846(3) 0.6349(3)
N3 N 0.3045(6) 0.8679(3) 0.8221(3)
C1 C 0.2385(8) 0.9324(4) 0.5972(4)
H3 H 0.1433 0.9423 0.6090
C2 C 0.3048(8) 0.9874(4) 0.5440(4)
H4 H 0.2480 1.0424 0.5100
C3 C 0.4606(8) 0.9718(4) 0.5292(4)
C4 C 0.5435(8) 0.8964(5) 0.5717(4)
H5 H 0.6594 0.8823 0.5654
C5 C 0.4667(9) 0.8455(5) 0.6237(4)
H6 H 0.5163 0.7880 0.6586
C6 C 0.0392(10) 0.6971(4) 0.5632(4)
H7 H -0.0018 0.7555 0.5539
C7 C -0.0235(9) 0.6273(4) 0.5104(4)
H8 H -0.0558 0.6416 0.4528
C8 C 0.0323(7) 0.5389(4) 0.5280(4)
C9 C 0.1527(8) 0.5269(4) 0.6024(4)
H9 H 0.1955 0.4752 0.6191
C10 C 0.2087(8) 0.6004(4) 0.6532(4)
H10 H 0.2795 0.5925 0.7066
C11 C 0.3187(9) 0.9572(4) 0.8159(4)
H11 H 0.2498 0.9787 0.7544
C12 C 0.3939(9) 1.0110(4) 0.8844(4)
H12 H 0.3850 1.0727 0.8770
C13 C 0.4573(7) 0.9720(4) 0.9632(3)
C14 C 0.4372(8) 0.8792(4) 0.9690(4)
H13 H 0.4708 0.8462 1.0199
C15 C 0.3597(8) 0.8306(4) 0.8993(4)
H14 H 0.3384 0.7687 0.9050
O6_2 O -0.5107(5) 0.7005(3) 0.7723(3)
Cr2_2 Cr 0.67544(13) 0.71817(8) 0.82728(6)
C3B C 0.5394(8) 1.0282(4) 0.4708(4)
C8B C -0.0323(7) 0.4611(4) 0.4720(4)
C13B C 0.5427(7) 1.0280(4) 1.0368(3)
Cu1_2 Cu -0.77992(9) 0.78418(5) 0.72133(4)
O2_2 O 0.8075(5) 0.6346(3) 0.7976(3)
O5_2 O 0.7439(6) 0.8161(3) 0.8072(3)
O7_2 O 0.6789(6) 0.7107(4) 0.9270(3)
C2B C 0.6952(8) 1.0126(4) 0.4560(4)
C4B C 0.4565(8) 1.1036(5) 0.4283(4)
C7B C 0.0235(9) 0.3727(4) 0.4896(4)
C9B C -0.1527(8) 0.4731(4) 0.3976(4)
C12B C 0.6061(9) 0.9890(4) 1.1156(4)
C14B C 0.5628(8) 1.1208(4) 1.0310(4)
O1_2 O -0.8809(5) 0.7091(3) 0.7998(3)
O8_2 O -1.0450(5) 0.8491(3) 0.6892(3)
N1_2 N -0.6839(6) 0.8617(3) 0.6387(3)
N2_2 N -0.8440(6) 0.6846(3) 0.6349(3)
N3_2 N -0.6955(6) 0.8679(3) 0.8221(3)
Cr1_2 Cr 1.02373(14) 0.62813(7) 0.83874(7)
C1B C 0.7615(8) 1.0676(4) 0.4028(4)
H4B H 0.7520 0.9576 0.4900
H5B H 0.3406 1.1177 0.4346
C5B C 0.5333(9) 1.1545(5) 0.3763(4)
C6B C -0.0392(10) 0.3029(4) 0.4368(4)
H8B H 0.0558 0.3584 0.5472
H9B H -0.1955 0.5248 0.3809
C10B C -0.2087(8) 0.3996(4) 0.3468(4)
C11B C 0.6813(9) 1.0428(4) 1.1841(4)
H12B H 0.6150 0.9273 1.1230
H13B H 0.5292 1.1538 0.9801
C15B C 0.6403(8) 1.1694(4) 1.1007(4)
H1_2 H -1.0436 0.9140 0.6861
H2_2 H -1.1381 0.8179 0.7065
O1_3 O 1.1191(5) 0.7091(3) 0.7998(3)
O3_2 O 1.0839(7) 0.5311(3) 0.8134(5)
O4_2 O 1.0484(7) 0.6378(5) 0.9385(3)
N1B N 0.6839(6) 1.1383(3) 0.3613(3)
H3B H 0.8567 1.0577 0.3910
H6B H 0.4837 1.2120 0.3414
N2B N -0.1560(6) 0.3154(3) 0.3651(3)
H7B H 0.0018 0.2445 0.4461
H10B H -0.2795 0.4075 0.2934
N3B N 0.6955(6) 1.1321(3) 1.1779(3)
H11B H 0.7502 1.0213 1.2456
H14B H 0.6616 1.2313 1.0950
Cu1_3 Cu 1.22008(9) 0.78418(5) 0.72133(4)
Cu1B Cu 0.77992(9) 1.21582(5) 0.27867(4)
Cu1B_2 Cu -0.22008(9) 0.21582(5) 0.27867(4)
Cu1B_3 Cu 0.77992(9) 1.21582(5) 1.27867(4)
loop_
_geom_bond_atom_site_label_1
_geom_bond_atom_site_label_2
_geom_bond_site_symmetry_1
_geom_bond_site_symmetry_2
Cu1 O1 1_555 1_555
Cr1 O1 1_555 1_555
Cr2 O2 1_555 1_555
O2 Cr1 1_555 1_555
O3 Cr1 1_555 1_555
O4 Cr1 1_555 1_555
O5 Cr2 1_555 1_555
O6 Cu1 1_555 1_555
O7 Cr2 1_555 1_555
O8 Cu1 1_555 1_555
H1 O8 1_555 1_555
H2 O8 1_555 1_555
N1 Cu1 1_555 1_555
N2 Cu1 1_555 1_555
N3 Cu1 1_555 1_555
C1 N1 1_555 1_555
H3 C1 1_555 1_555
C2 C1 1_555 1_555
H4 C2 1_555 1_555
C3 C2 1_555 1_555
C4 C3 1_555 1_555
H5 C4 1_555 1_555
C5 N1 1_555 1_555
H6 C5 1_555 1_555
C6 N2 1_555 1_555
H7 C6 1_555 1_555
C7 C6 1_555 1_555
H8 C7 1_555 1_555
C8 C7 1_555 1_555
C9 C8 1_555 1_555
H9 C9 1_555 1_555
C10 N2 1_555 1_555
H10 C10 1_555 1_555
C11 N3 1_555 1_555
H11 C11 1_555 1_555
C12 C11 1_555 1_555
H12 C12 1_555 1_555
C13 C12 1_555 1_555
C14 C13 1_555 1_555
H13 C14 1_555 1_555
C15 N3 1_555 1_555
H14 C15 1_555 1_555
O6_2 Cr2 1_555 1_555
Cr2_2 O6 1_555 1_555
C3B C3 1_555 1_555
C8B C8 1_555 1_555
C13B C13 1_555 1_555
Cu1_2 O6_2 1_555 1_555
O2_2 Cr2_2 1_555 1_555
O5_2 Cr2_2 1_555 1_555
O7_2 Cr2_2 1_555 1_555
C2B C3B 1_555 1_555
C4B C3B 1_555 1_555
C7B C8B 1_555 1_555
C9B C8B 1_555 1_555
C12B C13B 1_555 1_555
C14B C13B 1_555 1_555
O1_2 Cu1_2 1_555 1_555
O8_2 Cu1_2 1_555 1_555
N1_2 Cu1_2 1_555 1_555
N2_2 Cu1_2 1_555 1_555
N3_2 Cu1_2 1_555 1_555
Cr1_2 O2_2 1_555 1_555
C1B C2B 1_555 1_555
H4B C2B 1_555 1_555
H5B C4B 1_555 1_555
C5B C4B 1_555 1_555
C6B C7B 1_555 1_555
H8B C7B 1_555 1_555
H9B C9B 1_555 1_555
C10B C9B 1_555 1_555
C11B C12B 1_555 1_555
H12B C12B 1_555 1_555
H13B C14B 1_555 1_555
C15B C14B 1_555 1_555
H1_2 O8_2 1_555 1_555
H2_2 O8_2 1_555 1_555
O1_3 Cr1_2 1_555 1_555
O3_2 Cr1_2 1_555 1_555
O4_2 Cr1_2 1_555 1_555
N1B C1B 1_555 1_555
H3B C1B 1_555 1_555
H6B C5B 1_555 1_555
N2B C6B 1_555 1_555
H7B C6B 1_555 1_555
H10B C10B 1_555 1_555
N3B C11B 1_555 1_555
H11B C11B 1_555 1_555
H14B C15B 1_555 1_555
Cu1_3 O1_3 1_555 1_555
Cu1B N1B 1_555 1_555
Cu1B_2 N2B 1_555 1_555
Cu1B_3 N3B 1_555 1_555
C4 C5 1_555 1_555
C9 C10 1_555 1_555
C14 C15 1_555 1_555
C5B N1B 1_555 1_555
C10B N2B 1_555 1_555
C15B N3B 1_555 1_555

#END
