
#######################################################################
#
#                 Cambridge Crystallographic Data Centre
#                                CCDC 
#
#######################################################################
#
# If this CIF has been generated from an entry in the Cambridge 
# Structural Database, then it will include bibliographic, chemical, 
# crystal, experimental, refinement or atomic coordinate data resulting 
# from the CCDC's data processing and validation procedures.
#
#######################################################################

data_QOZKOF
_symmetry_cell_setting           hexagonal
_symmetry_space_group_name_H-M   'P 65 2 2'
_symmetry_Int_Tables_number      179
_space_group_name_Hall           "P 65 2' (0,0,1)"
loop_
_symmetry_equiv_pos_site_id
_symmetry_equiv_pos_as_xyz
1 x,y,z
2 -y,x-y,2/3+z
3 -x+y,-x,1/3+z
4 -x,-y,1/2+z
5 y,-x+y,1/6+z
6 x-y,x,5/6+z
7 y,x,2/3-z
8 x-y,-y,-z
9 -x,-x+y,1/3-z
10 -y,-x,1/6-z
11 -x+y,y,1/2-z
12 x,x-y,5/6-z
_cell_length_a                   9.182(2)
_cell_length_b                   9.182(2)
_cell_length_c                   52.480(18)
_cell_angle_alpha                90
_cell_angle_beta                 90
_cell_angle_gamma                120
_cell_volume                     3831.77
loop_
_atom_site_label
_atom_site_type_symbol
_atom_site_fract_x
_atom_site_fract_y
_atom_site_fract_z
Ag1 Ag -0.43481(7) -0.28810(7) -0.056350(9)
S1 S -0.6584(2) -0.4627(2) -0.11312(3)
N1 N -0.3046(6) -0.3792(6) -0.08234(9)
N2 N -0.3576(7) -0.2341(8) -0.14804(10)
C1 C -0.1349(9) -0.3018(9) -0.08251(11)
C2 C -0.0493(9) -0.3468(10) -0.09940(12)
H1 H 0.0702 -0.2884 -0.0995
C3 C -0.1393(10) -0.4783(10) -0.11620(13)
H2 H -0.0823 -0.5097 -0.1282
C4 C -0.3139(10) -0.5637(10) -0.11534(12)
H3 H -0.3787 -0.6582 -0.1260
C5 C -0.3908(9) -0.5071(8) -0.09850(11)
C6 C -0.5792(9) -0.5871(10) -0.09784(13)
H4 H -0.6167 -0.6065 -0.0799
H5 H -0.6294 -0.6981 -0.1064
C7 C -0.6303(8) -0.4934(9) -0.14641(11)
H6 H -0.6697 -0.6143 -0.1491
H7 H -0.7043 -0.4660 -0.1566
C8 C -0.4531(8) -0.3927(8) -0.15702(10)
C9 C -0.2046(10) -0.1412(12) -0.15774(13)
H8 H -0.1372 -0.0281 -0.1523
C10 C -0.0416(8) -0.1628(9) -0.06340(13)
H9 H -0.1007 -0.0996 -0.0611
H10 H 0.0726 -0.0871 -0.0696
H11 H -0.0362 -0.2115 -0.0471
S1K S -0.6584(2) -0.1957(3) -0.05355(3)
Ag1K Ag -0.43481(7) -0.14671(10) -0.110317(9)
N2K N -0.3576(7) -0.1235(11) -0.01863(10)
C8F C -0.3927(8) -0.4531(8) -0.17631(10)
N2F N -0.2341(8) -0.3576(7) -0.18529(10)
C7F C -0.4934(9) -0.6303(8) -0.18692(11)
C9F C -0.1412(12) -0.2046(10) -0.17559(13)
Ag1E Ag -0.14671(10) -0.43481(7) -0.223017(9)
S1F S -0.4627(2) -0.6584(2) -0.22021(3)
H6F H -0.6143 -0.6697 -0.1842
H7F H -0.4660 -0.7043 -0.1767
C6F C -0.5871(10) -0.5792(9) -0.23549(13)
C5F C -0.5071(8) -0.3908(9) -0.23483(11)
H4F H -0.6065 -0.6167 -0.2534
H5F H -0.6981 -0.6294 -0.2269
N1F N -0.3792(6) -0.3046(6) -0.25099(9)
C4F C -0.5637(10) -0.3139(10) -0.21799(12)
Ag1F Ag -0.28810(7) -0.43481(7) -0.276983(9)
C1F C -0.3018(9) -0.1349(9) -0.25082(11)
C3F C -0.4783(10) -0.1393(10) -0.21713(13)
H3F H -0.6582 -0.3787 -0.2073
C2F C -0.3468(10) -0.0493(9) -0.23393(12)
H2F H -0.5097 -0.0823 -0.2051
C10F C -0.1628(9) -0.0416(8) -0.26993(13)
H1F H -0.2884 0.0702 -0.2338
H9F H -0.0996 -0.1007 -0.2722
H10F H -0.0871 0.0726 -0.2637
H11F H -0.2115 -0.0362 -0.2862
N1K N -0.3046(6) 0.0746(8) -0.08433(9)
H8F H -0.0281 -0.1372 -0.1810
Cl1 Cl -0.6782(2) -0.6451(2) -0.01952(3)
O1 O -0.5012(9) -0.5664(10) -0.02309(17)
O2 O -0.7290(10) -0.5378(8) -0.03080(14)
O3 O -0.7113(10) -0.6583(10) 0.00650(10)
O4 O -0.7586(10) -0.8050(9) -0.03131(16)
loop_
_geom_bond_atom_site_label_1
_geom_bond_atom_site_label_2
_geom_bond_site_symmetry_1
_geom_bond_site_symmetry_2
Ag1 N1 1_555 1_555
S1 C6 1_555 1_555
Cl1 O1 1_555 1_555
O2 Cl1 1_555 1_555
O3 Cl1 1_555 1_555
O4 Cl1 1_555 1_555
N1 C1 1_555 1_555
N2 C8 1_555 1_555
C1 C2 1_555 1_555
C2 H1 1_555 1_555
C3 C2 1_555 1_555
H2 C3 1_555 1_555
C4 C3 1_555 1_555
H3 C4 1_555 1_555
C5 N1 1_555 1_555
C6 C5 1_555 1_555
H4 C6 1_555 1_555
H5 C6 1_555 1_555
C7 S1 1_555 1_555
H6 C7 1_555 1_555
H7 C7 1_555 1_555
C8 C7 1_555 1_555
C9 N2 1_555 1_555
H8 C9 1_555 1_555
C10 C1 1_555 1_555
H9 C10 1_555 1_555
H10 C10 1_555 1_555
H11 C10 1_555 1_555
S1K Ag1 1_555 1_555
Ag1K S1 1_555 1_555
N2K Ag1 1_555 1_555
C8F C8 1_555 1_555
N2F C8F 1_555 1_555
C7F C8F 1_555 1_555
C9F C9 1_555 1_555
Ag1E N2F 1_555 1_555
S1F C7F 1_555 1_555
H6F C7F 1_555 1_555
H7F C7F 1_555 1_555
C6F S1F 1_555 1_555
C5F C6F 1_555 1_555
H4F C6F 1_555 1_555
H5F C6F 1_555 1_555
N1F C5F 1_555 1_555
C4F C5F 1_555 1_555
Ag1F N1F 1_555 1_555
C1F N1F 1_555 1_555
C3F C4F 1_555 1_555
H3F C4F 1_555 1_555
C2F C1F 1_555 1_555
H2F C3F 1_555 1_555
C10F C1F 1_555 1_555
H1F C2F 1_555 1_555
H9F C10F 1_555 1_555
H10F C10F 1_555 1_555
H11F C10F 1_555 1_555
N1K Ag1K 1_555 1_555
H8F C9F 1_555 1_555
N2 Ag1K 1_555 1_555
C4 C5 1_555 1_555
N2F C9F 1_555 1_555
Ag1E S1F 1_555 1_555
C3F C2F 1_555 1_555

#END
