
#######################################################################
#
#                 Cambridge Crystallographic Data Centre
#                                CCDC 
#
#######################################################################
#
# If this CIF has been generated from an entry in the Cambridge 
# Structural Database, then it will include bibliographic, chemical, 
# crystal, experimental, refinement or atomic coordinate data resulting 
# from the CCDC's data processing and validation procedures.
#
#######################################################################

data_QOZLEX
_symmetry_cell_setting           monoclinic
_symmetry_space_group_name_H-M   'P 21/n'
_symmetry_Int_Tables_number      14
_space_group_name_Hall           '-P 2yn'
loop_
_symmetry_equiv_pos_site_id
_symmetry_equiv_pos_as_xyz
1 x,y,z
2 1/2-x,1/2+y,1/2-z
3 -x,-y,-z
4 1/2+x,1/2-y,1/2+z
_cell_length_a                   13.9587(15)
_cell_length_b                   8.7386(9)
_cell_length_c                   16.6299(18)
_cell_angle_alpha                90
_cell_angle_beta                 106.4220(10)
_cell_angle_gamma                90
_cell_volume                     1945.75
loop_
_atom_site_label
_atom_site_type_symbol
_atom_site_fract_x
_atom_site_fract_y
_atom_site_fract_z
Y1 Y 0.69675(3) 0.40695(4) 0.24825(2)
C1 C 0.8467(3) 0.5380(5) 0.0585(3)
C2 C 0.8530(3) 0.3820(5) 0.0466(3)
H1 H 0.8464 0.3140 0.0878
C3 C 0.8688(4) 0.3278(5) -0.0261(3)
C4 C 0.8772(4) 0.4253(5) -0.0893(3)
H2 H 0.8868 0.3875 -0.1387
C5 C 0.8708(4) 0.5800(5) -0.0765(3)
C6 C 0.8573(4) 0.6378(5) -0.0028(3)
H3 H 0.8554 0.7430 0.0053
C7 C 0.8270(3) 0.5973(5) 0.1376(2)
C8 C 0.8774(5) 0.1603(6) -0.0372(4)
C9 C 0.8932(3) 0.6173(4) 0.4902(2)
C10 C 0.9641(3) 0.7240(4) 0.5304(2)
H4 H 0.9759 0.8099 0.5016
C11 C 1.0178(3) 0.7022(4) 0.6144(2)
C12 C 0.9983(3) 0.5771(4) 0.6579(2)
H5 H 1.0342 0.5610 0.7135
C13 C 0.9242(3) 0.4764(5) 0.6171(2)
C14 C 0.8719(3) 0.4927(5) 0.5338(2)
H6 H 0.8235 0.4218 0.5075
C15 C 0.8419(3) 0.6287(4) 0.3975(2)
C16 C 1.0965(3) 0.8147(4) 0.6591(2)
N1 N 0.8790(5) 0.6876(7) -0.1419(3)
O1 O 0.8069(2) 0.4980(3) 0.18466(17)
O2 O 0.8322(2) 0.7372(3) 0.15075(18)
O3 O 0.8698(4) 0.0691(4) 0.0144(3)
O4 O 0.8945(7) 0.1200(6) -0.1040(4)
H7 H 0.8417 0.1128 -0.1412
O5 O 0.8595(5) 0.6427(6) -0.2154(3)
O6 O 0.9055(8) 0.8157(6) -0.1234(4)
O7 O 0.7826(2) 0.5238(3) 0.36612(16)
O8 O 0.8638(2) 0.7399(3) 0.35809(17)
O9 O 1.0855(2) 0.9522(3) 0.63732(19)
O10 O 1.1677(2) 0.7695(3) 0.71934(17)
O11 O 0.5624(3) 0.4946(5) 0.2969(3)
N2 N 0.9033(3) 0.3436(5) 0.6632(3)
O13 O 0.9495(3) 0.3244(4) 0.7348(2)
O14 O 0.8421(6) 0.2548(9) 0.6264(4)
H10 H 0.4994(10) 0.485(11) 0.278(6)
H11 H 0.558(7) 0.485(12) 0.347(2)
Y1A Y 0.80325(3) 0.90695(4) 0.25175(2)
Y1C Y 1.19675(3) 1.09305(4) 0.74825(2)
Y1B Y 1.30325(3) 0.59305(4) 0.75175(2)
O2A O 0.6678(2) 0.2372(3) 0.34925(18)
O8A O 0.6362(2) 0.2399(3) 0.14191(17)
O9C O 0.5855(2) 0.5478(3) 0.13732(19)
O10B O 0.8323(2) 0.2305(3) 0.28066(17)
O10C O 0.6677(2) 0.7305(3) 0.21934(17)
O12 O 0.3673(4) 0.5662(7) 0.2011(4)
H8 H 0.4203 0.5631 0.1855
H9 H 0.3193 0.5276 0.1632
loop_
_geom_bond_atom_site_label_1
_geom_bond_atom_site_label_2
_geom_bond_site_symmetry_1
_geom_bond_site_symmetry_2
Y1 O1 1_555 1_555
C1 C2 1_555 1_555
C2 H1 1_555 1_555
C3 C2 1_555 1_555
C4 C3 1_555 1_555
H2 C4 1_555 1_555
C5 C4 1_555 1_555
C6 C1 1_555 1_555
H3 C6 1_555 1_555
C7 C1 1_555 1_555
C8 C3 1_555 1_555
C9 C10 1_555 1_555
C10 H4 1_555 1_555
C11 C10 1_555 1_555
C12 C11 1_555 1_555
H5 C12 1_555 1_555
C13 C12 1_555 1_555
C14 C9 1_555 1_555
H6 C14 1_555 1_555
C15 C9 1_555 1_555
C16 C11 1_555 1_555
N1 C5 1_555 1_555
O1 C7 1_555 1_555
O2 C7 1_555 1_555
O3 C8 1_555 1_555
O4 C8 1_555 1_555
H7 O4 1_555 1_555
O5 N1 1_555 1_555
O6 N1 1_555 1_555
O7 Y1 1_555 1_555
O8 C15 1_555 1_555
O9 C16 1_555 1_555
O10 C16 1_555 1_555
O11 Y1 1_555 1_555
O12 H8 1_555 1_555
H9 O12 1_555 1_555
N2 C13 1_555 1_555
O13 N2 1_555 1_555
O14 N2 1_555 1_555
H10 O11 1_555 1_555
H11 O11 1_555 1_555
Y1A O2 1_555 1_555
Y1C O9 1_555 1_555
Y1B O10 1_555 1_555
O2A Y1 1_555 1_555
O8A Y1 1_555 1_555
O9C Y1 1_555 1_555
O10B Y1 1_555 1_555
O10C Y1 1_555 1_555
C5 C6 1_555 1_555
C13 C14 1_555 1_555
C15 O7 1_555 1_555
O8 Y1A 1_555 1_555
O10 Y1C 1_555 1_555
Y1A O10C 1_555 1_555

#END
