
#######################################################################
#
#                 Cambridge Crystallographic Data Centre
#                                CCDC 
#
#######################################################################
#
# If this CIF has been generated from an entry in the Cambridge 
# Structural Database, then it will include bibliographic, chemical, 
# crystal, experimental, refinement or atomic coordinate data resulting 
# from the CCDC's data processing and validation procedures.
#
#######################################################################

data_QOZLOH
_symmetry_cell_setting           triclinic
_symmetry_space_group_name_H-M   'P -1'
_symmetry_Int_Tables_number      2
_space_group_name_Hall           '-P 1'
loop_
_symmetry_equiv_pos_site_id
_symmetry_equiv_pos_as_xyz
1 x,y,z
2 -x,-y,-z
_cell_length_a                   9.6860(6)
_cell_length_b                   10.5102(7)
_cell_length_c                   13.5884(8)
_cell_angle_alpha                67.7540(10)
_cell_angle_beta                 69.9160(10)
_cell_angle_gamma                65.0680(10)
_cell_volume                     1132.86
loop_
_atom_site_label
_atom_site_type_symbol
_atom_site_fract_x
_atom_site_fract_y
_atom_site_fract_z
Eu1 Eu 0.276016(15) 0.969637(14) -0.012963(11)
C1 C 0.1814(4) 0.7520(3) 0.3306(3)
C2 C 0.0316(4) 0.7833(4) 0.3951(3)
H1 H -0.0473 0.8664 0.3686
C3 C -0.0021(4) 0.6928(4) 0.4982(3)
C4 C 0.1154(4) 0.5697(4) 0.5390(3)
H2 H 0.0950 0.5086 0.6086
C5 C 0.2628(4) 0.5408(4) 0.4736(3)
C6 C 0.2996(4) 0.6278(3) 0.3699(3)
H3 H 0.4005 0.6040 0.3276
C7 C 0.2175(3) 0.8460(3) 0.2170(2)
C8 C -0.1650(4) 0.7237(5) 0.5649(3)
C9 C 0.7867(3) 0.6664(3) -0.0961(2)
C10 C 0.7835(3) 0.5266(3) -0.0703(2)
H4 H 0.6887 0.5099 -0.0416
C11 C 0.9212(3) 0.4110(3) -0.0870(2)
C12 C 1.0622(3) 0.4367(3) -0.1332(2)
H5 H 1.1556 0.3608 -0.1439
C13 C 1.0594(3) 0.5788(3) -0.1629(2)
C14 C 0.9262(3) 0.6944(3) -0.1440(2)
H6 H 0.9297 0.7879 -0.1626
C15 C 0.6397(3) 0.7873(3) -0.0681(2)
C16 C 0.9188(3) 0.2582(3) -0.0506(2)
N1 N 0.3862(4) 0.4072(4) 0.5160(3)
N2 N 1.2093(3) 0.6055(3) -0.2112(2)
O1 O 0.1072(2) 0.9501(2) 0.17621(17)
O2 O 0.3557(2) 0.8169(2) 0.16247(16)
O3 O -0.2724(4) 0.8270(5) 0.5332(3)
O4 O -0.1799(3) 0.6270(3) 0.6575(2)
H7 H -0.2718 0.6483 0.6898
O5 O 0.3562(4) 0.3422(4) 0.6117(3)
O6 O 0.5111(4) 0.3707(3) 0.4554(3)
O7 O 0.5124(2) 0.7859(2) -0.07164(18)
O8 O 0.6502(2) 0.8840(2) -0.04120(17)
O9 O 0.7930(2) 0.2421(2) -0.0379(2)
O10 O 1.0434(2) 0.1554(2) -0.03366(19)
O11 O 1.3291(3) 0.5023(3) -0.2043(3)
O12 O 1.2071(3) 0.7293(3) -0.2528(3)
O13 O 0.2160(3) 0.9671(3) -0.17198(19)
O14 O 0.3985(2) 1.1214(2) -0.17561(17)
H8 H 0.2706 0.9738 -0.2363
H9 H 0.4183 1.1019 -0.2350
H10 H 0.4719 1.1488 -0.1796
H11 H 0.1257 0.9942 -0.1845
Eu1A Eu 0.723984(15) 1.030363(14) 0.012963(11)
Eu1A_2 Eu 0.723984(15) 0.030363(14) 0.012963(11)
Eu1_2 Eu 1.276016(15) -0.030363(14) -0.012963(11)
O8A O 0.3498(2) 1.1160(2) 0.04120(17)
O9A O 0.2070(2) 0.7579(2) 0.0379(2)
O10_2 O 0.0434(2) 1.1554(2) -0.03366(19)
O15 O 0.5417(3) 0.6680(4) 0.7687(2)
H13 H 0.5117 0.7166 0.8150
H15 H 0.4625 0.6813 0.7473
O16 O 0.4305(4) 1.0111(4) 0.6443(3)
H12 H 0.4051 0.9573 0.6251
H14 H 0.5057 0.9474 0.6156
loop_
_geom_bond_atom_site_label_1
_geom_bond_atom_site_label_2
_geom_bond_site_symmetry_1
_geom_bond_site_symmetry_2
Eu1 O1 1_555 1_555
C1 C2 1_555 1_555
C2 H1 1_555 1_555
C3 C2 1_555 1_555
C4 C3 1_555 1_555
H2 C4 1_555 1_555
C5 C4 1_555 1_555
C6 C1 1_555 1_555
H3 C6 1_555 1_555
C7 C1 1_555 1_555
C8 C3 1_555 1_555
C9 C10 1_555 1_555
C10 H4 1_555 1_555
C11 C10 1_555 1_555
C12 C11 1_555 1_555
H5 C12 1_555 1_555
C13 C12 1_555 1_555
C14 C9 1_555 1_555
H6 C14 1_555 1_555
C15 C9 1_555 1_555
C16 C11 1_555 1_555
N1 C5 1_555 1_555
N2 C13 1_555 1_555
O1 C7 1_555 1_555
O2 Eu1 1_555 1_555
O3 C8 1_555 1_555
O4 C8 1_555 1_555
H7 O4 1_555 1_555
O5 N1 1_555 1_555
O6 N1 1_555 1_555
O7 Eu1 1_555 1_555
O8 C15 1_555 1_555
O9 C16 1_555 1_555
O10 C16 1_555 1_555
O11 N2 1_555 1_555
O12 N2 1_555 1_555
O13 Eu1 1_555 1_555
O14 Eu1 1_555 1_555
O15 H13 1_555 1_555
O16 H12 1_555 1_555
H8 O13 1_555 1_555
H9 O14 1_555 1_555
H10 O14 1_555 1_555
H11 O13 1_555 1_555
H14 O16 1_555 1_555
H15 O15 1_555 1_555
Eu1A O8 1_555 1_555
Eu1A_2 O9 1_555 1_555
Eu1_2 O10 1_555 1_555
O8A Eu1 1_555 1_555
O9A Eu1 1_555 1_555
O10_2 Eu1 1_555 1_555
C5 C6 1_555 1_555
C7 O2 1_555 1_555
C13 C14 1_555 1_555
C15 O7 1_555 1_555

#END
