
#######################################################################
#
#                 Cambridge Crystallographic Data Centre
#                                CCDC 
#
#######################################################################
#
# If this CIF has been generated from an entry in the Cambridge 
# Structural Database, then it will include bibliographic, chemical, 
# crystal, experimental, refinement or atomic coordinate data resulting 
# from the CCDC's data processing and validation procedures.
#
#######################################################################

data_QOZPIG
_symmetry_cell_setting           orthorhombic
_symmetry_space_group_name_H-M   'P b c n'
_symmetry_Int_Tables_number      60
_space_group_name_Hall           '-P 2n 2ab'
loop_
_symmetry_equiv_pos_site_id
_symmetry_equiv_pos_as_xyz
1 x,y,z
2 1/2-x,1/2-y,1/2+z
3 1/2+x,1/2-y,-z
4 -x,y,1/2-z
5 -x,-y,-z
6 1/2+x,1/2+y,1/2-z
7 1/2-x,1/2+y,z
8 x,-y,1/2+z
_cell_length_a                   14.919(7)
_cell_length_b                   9.376(4)
_cell_length_c                   19.138(9)
_cell_angle_alpha                90
_cell_angle_beta                 90
_cell_angle_gamma                90
_cell_volume                     2677.03
loop_
_atom_site_label
_atom_site_type_symbol
_atom_site_fract_x
_atom_site_fract_y
_atom_site_fract_z
Cd1 Cd 0.0000 0.19059(7) 0.2500
N1 N -0.1711(4) -0.0212(7) 0.2441(3)
N2 N -0.1156(4) 0.0561(6) 0.2882(3)
N3 N -0.2262(3) -0.0206(6) 0.3499(3)
C1 C -0.2376(5) -0.0640(8) 0.2828(4)
H1 H -0.2872 -0.1180 0.2664
C2 C -0.1501(4) 0.0554(7) 0.3509(3)
H2 H -0.1253 0.1012 0.3908
O1 O -0.3556(3) 0.1712(5) 0.3672(3)
N4 N -0.2881(3) -0.0322(6) 0.4039(3)
H3 H -0.2830 -0.0968 0.4370
C3 C -0.4321(4) 0.0271(6) 0.4523(3)
C4 C -0.3576(4) 0.0627(7) 0.4023(3)
C5 C -0.4972(4) -0.0754(6) 0.4372(3)
O2 O -0.4416(3) -0.1243(5) 0.3230(2)
C6 C -0.4982(4) -0.1569(7) 0.3691(3)
O3 O -0.5544(3) -0.2550(6) 0.3607(2)
C7 C -0.4356(4) 0.1019(7) 0.5144(3)
H4 H -0.3915 0.1723 0.5241
N1D N -0.8289(4) 0.0212(7) 0.7559(3)
N2D N -0.8844(4) -0.0561(6) 0.7118(3)
N3D N -0.7738(3) 0.0206(6) 0.6501(3)
C1D C -0.7624(5) 0.0640(8) 0.7172(4)
H1D H -0.7128 0.1180 0.7336
C2D C -0.8499(4) -0.0554(7) 0.6491(3)
H2D H -0.8747 -0.1012 0.6092
O1D O -0.6444(3) -0.1712(5) 0.6328(3)
N4D N -0.7119(3) 0.0322(6) 0.5961(3)
H3D H -0.7170 0.0968 0.5630
C3D C -0.5679(4) -0.0271(6) 0.5477(3)
C4D C -0.6424(4) -0.0627(7) 0.5977(3)
C5D C -0.5028(4) 0.0754(6) 0.5628(3)
O2D O -0.5584(3) 0.1243(5) 0.6770(2)
C6D C -0.5018(4) 0.1569(7) 0.6309(3)
O3D O -0.4456(3) 0.2550(6) 0.6393(2)
C7D C -0.5644(4) -0.1019(7) 0.4856(3)
H4D H -0.6085 -0.1723 0.4759
Cd1A Cd -0.5000 0.30941(7) 0.7500
Cd1D Cd -1.0000 -0.19059(7) 0.7500
Cd1E Cd -0.5000 -0.30941(7) 0.2500
N2C N 0.1156(4) 0.0561(6) 0.2118(3)
O2E O 0.0584(3) 0.3757(5) 0.1770(2)
O2F O -0.0584(3) 0.3757(5) 0.3230(2)
O3E O -0.0544(3) 0.2450(6) 0.1393(2)
O3F O 0.0544(3) 0.2450(6) 0.3607(2)
N5 N -0.1201(6) -0.2539(10) 0.0993(4)
C8 C -0.1069(8) -0.3252(11) 0.1649(4)
H5 H -0.1479 -0.4065 0.1682
H6 H -0.1188 -0.2586 0.2033
H7 H -0.0449 -0.3591 0.1680
C9 C -0.1723(7) -0.2893(12) 0.0518(5)
H8 H -0.2095 -0.3690 0.0616
O4 O -0.1826(4) -0.2337(7) -0.0077(3)
C10 C -0.0591(8) -0.1236(12) 0.0858(7)
H9 H -0.0726 -0.0833 0.0397
H10 H 0.0038 -0.1535 0.0872
H11 H -0.0697 -0.0512 0.1218
loop_
_geom_bond_atom_site_label_1
_geom_bond_atom_site_label_2
_geom_bond_site_symmetry_1
_geom_bond_site_symmetry_2
Cd1 N2 1_555 1_555
N1 N2 1_555 1_555
N2 C2 1_555 1_555
N3 C1 1_555 1_555
C1 N1 1_555 1_555
H1 C1 1_555 1_555
C2 N3 1_555 1_555
H2 C2 1_555 1_555
O1 C4 1_555 1_555
N4 N3 1_555 1_555
H3 N4 1_555 1_555
C3 C4 1_555 1_555
C4 N4 1_555 1_555
C5 C3 1_555 1_555
O2 C6 1_555 1_555
C6 C5 1_555 1_555
O3 C6 1_555 1_555
C7 C3 1_555 1_555
H4 C7 1_555 1_555
N5 C8 1_555 1_555
C8 H5 1_555 1_555
H6 C8 1_555 1_555
H7 C8 1_555 1_555
C9 N5 1_555 1_555
H8 C9 1_555 1_555
O4 C9 1_555 1_555
C10 N5 1_555 1_555
H9 C10 1_555 1_555
H10 C10 1_555 1_555
H11 C10 1_555 1_555
N1D N2D 1_555 1_555
N2D C2D 1_555 1_555
N3D C1D 1_555 1_555
C1D N1D 1_555 1_555
H1D C1D 1_555 1_555
C2D N3D 1_555 1_555
H2D C2D 1_555 1_555
O1D C4D 1_555 1_555
N4D N3D 1_555 1_555
H3D N4D 1_555 1_555
C3D C4D 1_555 1_555
C4D N4D 1_555 1_555
C5D C7 1_555 1_555
O2D C6D 1_555 1_555
C6D C5D 1_555 1_555
O3D C6D 1_555 1_555
C7D C5 1_555 1_555
H4D C7D 1_555 1_555
Cd1A O2D 1_555 1_555
Cd1D N2D 1_555 1_555
Cd1E O2 1_555 1_555
N2C Cd1 1_555 1_555
O2E Cd1 1_555 1_555
O2F Cd1 1_555 1_555
O3E Cd1 1_555 1_555
O3F Cd1 1_555 1_555
O3 Cd1E 1_555 1_555
C3D C5D 1_555 1_555
C3D C7D 1_555 1_555
O3D Cd1A 1_555 1_555

#END
