
#######################################################################
#
#                 Cambridge Crystallographic Data Centre
#                                CCDC 
#
#######################################################################
#
# If this CIF has been generated from an entry in the Cambridge 
# Structural Database, then it will include bibliographic, chemical, 
# crystal, experimental, refinement or atomic coordinate data resulting 
# from the CCDC's data processing and validation procedures.
#
#######################################################################

data_QOZQIF
_symmetry_cell_setting           rhombohedral
_symmetry_space_group_name_H-M   'R 3'
_symmetry_Int_Tables_number      146
_space_group_name_Hall           'R 3'
loop_
_symmetry_equiv_pos_site_id
_symmetry_equiv_pos_as_xyz
1 x,y,z
2 -y,x-y,z
3 -x+y,-x,z
4 2/3+x,1/3+y,1/3+z
5 2/3-y,1/3+x-y,1/3+z
6 2/3-x+y,1/3-x,1/3+z
7 1/3+x,2/3+y,2/3+z
8 1/3-y,2/3+x-y,2/3+z
9 1/3-x+y,2/3-x,2/3+z
_cell_length_a                   24.115(3)
_cell_length_b                   24.115(3)
_cell_length_c                   8.417(3)
_cell_angle_alpha                90
_cell_angle_beta                 90
_cell_angle_gamma                120.0
_cell_volume                     4238.99
loop_
_atom_site_label
_atom_site_type_symbol
_atom_site_fract_x
_atom_site_fract_y
_atom_site_fract_z
Ag1 Ag 0.38212(3) -0.00247(3) 0.27878(6)
Co1 Co 0.24796(4) -0.19268(4) 0.2760(1)
S1 S 0.26816(8) -0.09286(8) 0.3301(2)
O1 O 0.2629(3) -0.1192(3) -0.1273(7)
O2 O 0.2285(3) -0.0490(3) -0.1023(9)
N1 N 0.1875(3) -0.1956(3) 0.1118(7)
N2 N 0.3054(3) -0.1890(3) 0.4455(8)
N3 N 0.1795(3) -0.2306(3) 0.4371(9)
N4 N 0.3189(3) -0.1593(3) 0.1241(8)
N5 N 0.2321(4) -0.2786(3) 0.2079(8)
C1 C 0.2001(4) -0.0965(4) 0.2270(9)
C2 C 0.1852(3) -0.1366(3) 0.0739(8)
C3 C 0.2307(4) -0.0985(4) -0.0619(8)
C4 C 0.2676(6) -0.2188(8) 0.591(1)
C5 C 0.2055(7) -0.241(1) 0.580(2)
C6 C 0.3310(7) -0.2104(6) 0.072(1)
C7 C 0.2724(8) -0.2703(6) 0.066(2)
H1 H 0.1977 -0.2093 0.0159
H2 H 0.1457 -0.2268 0.1453
H3 H 0.3265 -0.2115 0.4134
H4 H 0.3363 -0.1456 0.4667
H5 H 0.1638 -0.2023 0.4581
H6 H 0.1456 -0.2702 0.3992
H7 H 0.3084 -0.1423 0.0345
H8 H 0.3564 -0.1263 0.1734
H9 H 0.2432 -0.2977 0.2916
H10 H 0.1882 -0.3052 0.1817
H11 H 0.1637 -0.1156 0.2947
H12 H 0.2097 -0.0544 0.2002
H13 H 0.2738 -0.2534 0.6192
H14 H 0.2837 -0.1875 0.6726
H15 H 0.1943 -0.2225 0.6647
H16 H 0.1851 -0.2861 0.5953
H17 H 0.3496 -0.2005 -0.0313
H18 H 0.3595 -0.2135 0.1439
H19 H 0.2819 -0.3041 0.0633
H20 H 0.2494 -0.2718 -0.0268
H21 H 0.1428 -0.1489 0.0418
S1G S 0.42619(8) 0.02769(11) -0.0032(2)
Ag1E Ag 0.28208(4) -0.04879(3) 0.61211(6)
O2E O 0.3892(4) 0.1048(3) 0.2310(9)
Ag1G Ag 0.33580(3) 0.05126(4) -0.05455(6)
O3 O 0.7224(5) 0.2462(5) 0.395(1)
O4 O 0.6679(7) 0.0485(7) 0.247(2)
O5 O 1.0000 0.0000 0.115(2)
O7 O 0.7414(6) 0.2079(7) 0.068(2)
O8 O 0.7754(6) 0.1424(4) 0.090(1)
O9 O 0.8135(5) 0.2127(6) -0.087(1)
N6 N 0.7727(5) 0.1871(4) 0.020(1)
O10 O 0.671(1) 0.142(1) 0.606(2)
O11 O 0.6683(5) 0.0880(6) 0.816(1)
O12 O 0.7315(6) 0.0988(8) 0.618(2)
N7 N 0.6905(5) 0.1096(6) 0.671(2)
O13 O 0.9408(3) -0.0243(3) 0.735(1)
N8 N 1.0000 0.0000 0.738(2)
O13B O 1.0349(4) 0.0592(3) 0.735(1)
O13A O 1.0243(3) -0.0349(4) 0.735(1)
O6? O 0.707(3) 0.126(2) 0.531(5)
loop_
_geom_bond_atom_site_label_1
_geom_bond_atom_site_label_2
_geom_bond_site_symmetry_1
_geom_bond_site_symmetry_2
Ag1 S1 1_555 1_555
Co1 S1 1_555 1_555
S1 C1 1_555 1_555
O1 C3 1_555 1_555
O2 C3 1_555 1_555
O7 N6 1_555 1_555
O8 N6 1_555 1_555
O9 N6 1_555 1_555
O10 N7 1_555 1_555
O11 N7 1_555 1_555
O12 N7 1_555 1_555
O13 N8 1_555 1_555
N1 Co1 1_555 1_555
N2 Co1 1_555 1_555
N3 Co1 1_555 1_555
N4 Co1 1_555 1_555
N5 Co1 1_555 1_555
N8 O13B 1_555 1_555
C1 C2 1_555 1_555
C2 N1 1_555 1_555
C3 C2 1_555 1_555
C4 N2 1_555 1_555
C5 N3 1_555 1_555
C6 N4 1_555 1_555
C7 N5 1_555 1_555
H1 N1 1_555 1_555
H2 N1 1_555 1_555
H3 N2 1_555 1_555
H4 N2 1_555 1_555
H5 N3 1_555 1_555
H6 N3 1_555 1_555
H7 N4 1_555 1_555
H8 N4 1_555 1_555
H9 N5 1_555 1_555
H10 N5 1_555 1_555
H11 C1 1_555 1_555
H12 C1 1_555 1_555
H13 C4 1_555 1_555
H14 C4 1_555 1_555
H15 C5 1_555 1_555
H16 C5 1_555 1_555
H17 C6 1_555 1_555
H18 C6 1_555 1_555
H19 C7 1_555 1_555
H20 C7 1_555 1_555
H21 C2 1_555 1_555
S1G Ag1 1_555 1_555
Ag1E S1 1_555 1_555
O13A N8 1_555 1_555
O2E Ag1 1_555 1_555
Ag1G O2 1_555 1_555
C4 C5 1_555 1_555
C6 C7 1_555 1_555
S1G Ag1G 1_555 1_555

#END
