
#######################################################################
#
#                 Cambridge Crystallographic Data Centre
#                                CCDC 
#
#######################################################################
#
# If this CIF has been generated from an entry in the Cambridge 
# Structural Database, then it will include bibliographic, chemical, 
# crystal, experimental, refinement or atomic coordinate data resulting 
# from the CCDC's data processing and validation procedures.
#
#######################################################################

data_QOZQEB
_symmetry_cell_setting           orthorhombic
_symmetry_space_group_name_H-M   'P 21 21 21'
_symmetry_Int_Tables_number      19
_space_group_name_Hall           'P 2ac 2ab'
loop_
_symmetry_equiv_pos_site_id
_symmetry_equiv_pos_as_xyz
1 x,y,z
2 1/2-x,-y,1/2+z
3 1/2+x,1/2-y,-z
4 -x,1/2+y,1/2-z
_cell_length_a                   8.037(4)
_cell_length_b                   8.056(3)
_cell_length_c                   26.648(6)
_cell_angle_alpha                90
_cell_angle_beta                 90
_cell_angle_gamma                90
_cell_volume                     1725.35
loop_
_atom_site_label
_atom_site_type_symbol
_atom_site_fract_x
_atom_site_fract_y
_atom_site_fract_z
Ag1 Ag -0.0375(1) 0.6869(1) 0.00825(3)
Co1 Co 0.3021(2) 0.5532(2) 0.11281(5)
S1 S 0.2563(3) 0.6192(3) 0.03142(9)
O1 O 0.252(1) 0.056(1) -0.0180(3)
O2 O 0.4113(10) 0.052(1) 0.0490(3)
N1 N 0.276(1) 0.319(1) 0.0925(3)
N2 N 0.342(1) 0.788(1) 0.1292(3)
N3 N 0.546(1) 0.543(1) 0.1030(3)
N4 N 0.063(1) 0.570(1) 0.1280(3)
N5 N 0.328(1) 0.488(1) 0.1842(3)
C1 C 0.298(1) 0.415(1) 0.0049(4)
C2 C 0.230(1) 0.283(1) 0.0395(3)
C3 C 0.300(1) 0.114(1) 0.0227(4)
C4 C 0.525(2) 0.816(2) 0.1401(5)
C5 C 0.619(1) 0.706(2) 0.1068(5)
C6 C 0.033(2) 0.505(2) 0.1798(5)
C7 C 0.175(2) 0.528(2) 0.2121(5)
H1 H 0.3789 0.2652 0.0989
H2 H 0.1919 0.2723 0.1131
H3 H 0.3096 0.8557 0.1015
H4 H 0.2783 0.8181 0.1578
H5 H 0.5927 0.4732 0.1280
H6 H 0.5685 0.4987 0.0708
H7 H 0.0286 0.6826 0.1260
H8 H 0.0012 0.5057 0.1046
H9 H 0.3483 0.3722 0.1863
H10 H 0.4187 0.5468 0.1985
H11 H 0.2454 0.4056 -0.0270
H12 H 0.4145 0.4000 0.0010
H13 H 0.5541 0.9282 0.1338
H14 H 0.5484 0.7896 0.1741
H15 H 0.7290 0.6952 0.1195
H16 H 0.6227 0.7544 0.0743
H17 H -0.0594 0.5631 0.1939
H18 H 0.0080 0.3906 0.1779
H19 H 0.1650 0.4568 0.2404
H20 H 0.1788 0.6403 0.2232
H21 H 0.1115 0.2804 0.0366
S1B S -0.2437(3) 0.8808(3) -0.03142(9)
Ag1B Ag 0.4625(1) 0.8131(1) -0.00825(3)
O1B O -0.248(1) 0.444(1) 0.0180(3)
O2B O -0.0887(10) 0.448(1) -0.0490(3)
Ag1B_2 Ag 0.4625(1) -0.1869(1) -0.00825(3)
O3 O 0.643(1) 0.276(2) 0.1668(4)
O4 O 0.255(1) 0.111(1) 0.1852(3)
O5 O 0.370(2) 0.149(1) 0.2568(4)
O6 O 0.295(2) -0.091(1) 0.2352(4)
N6 N 0.310(2) 0.055(1) 0.2257(4)
O7 O 0.035(1) -0.065(1) 0.0892(4)
O8 O -0.098(2) -0.074(2) 0.1580(5)
O9 O -0.068(2) 0.160(1) 0.1180(4)
N7 N -0.047(1) 0.009(1) 0.1215(4)
loop_
_geom_bond_atom_site_label_1
_geom_bond_atom_site_label_2
_geom_bond_site_symmetry_1
_geom_bond_site_symmetry_2
Ag1 S1 1_555 1_555
Co1 S1 1_555 1_555
S1 C1 1_555 1_555
O1 C3 1_555 1_555
O2 C3 1_555 1_555
O4 N6 1_555 1_555
O5 N6 1_555 1_555
O6 N6 1_555 1_555
O7 N7 1_555 1_555
O8 N7 1_555 1_555
O9 N7 1_555 1_555
N1 Co1 1_555 1_555
N2 Co1 1_555 1_555
N3 Co1 1_555 1_555
N4 Co1 1_555 1_555
N5 Co1 1_555 1_555
C1 C2 1_555 1_555
C2 N1 1_555 1_555
C3 C2 1_555 1_555
C4 N2 1_555 1_555
C5 N3 1_555 1_555
C6 N4 1_555 1_555
C7 N5 1_555 1_555
H1 N1 1_555 1_555
H2 N1 1_555 1_555
H3 N2 1_555 1_555
H4 N2 1_555 1_555
H5 N3 1_555 1_555
H6 N3 1_555 1_555
H7 N4 1_555 1_555
H8 N4 1_555 1_555
H9 N5 1_555 1_555
H10 N5 1_555 1_555
H11 C1 1_555 1_555
H12 C1 1_555 1_555
H13 C4 1_555 1_555
H14 C4 1_555 1_555
H15 C5 1_555 1_555
H16 C5 1_555 1_555
H17 C6 1_555 1_555
H18 C6 1_555 1_555
H19 C7 1_555 1_555
H20 C7 1_555 1_555
H21 C2 1_555 1_555
S1B Ag1 1_555 1_555
Ag1B S1 1_555 1_555
O1B Ag1 1_555 1_555
O2B Ag1 1_555 1_555
Ag1B_2 O1 1_555 1_555
O2 Ag1B_2 1_555 1_555
C4 C5 1_555 1_555
C6 C7 1_555 1_555

#END
