
#######################################################################
#
#                 Cambridge Crystallographic Data Centre
#                                CCDC 
#
#######################################################################
#
# If this CIF has been generated from an entry in the Cambridge 
# Structural Database, then it will include bibliographic, chemical, 
# crystal, experimental, refinement or atomic coordinate data resulting 
# from the CCDC's data processing and validation procedures.
#
#######################################################################

data_QOZROO
_symmetry_cell_setting           monoclinic
_symmetry_space_group_name_H-M   'P 21/c'
_symmetry_Int_Tables_number      14
_space_group_name_Hall           '-P 2ybc'
loop_
_symmetry_equiv_pos_site_id
_symmetry_equiv_pos_as_xyz
1 x,y,z
2 -x,1/2+y,1/2-z
3 -x,-y,-z
4 x,1/2-y,1/2+z
_cell_length_a                   22.223(4)
_cell_length_b                   16.599(3)
_cell_length_c                   23.438(5)
_cell_angle_alpha                90
_cell_angle_beta                 117.450(2)
_cell_angle_gamma                90
_cell_volume                     7672.4
loop_
_atom_site_label
_atom_site_type_symbol
_atom_site_fract_x
_atom_site_fract_y
_atom_site_fract_z
Sm1 Sm 0.491992(11) 0.131430(14) 0.262325(11)
O1 O 0.25555(18) 0.3855(2) 0.21120(19)
O2 O 0.40044(17) 0.3448(2) 0.10985(16)
O3 O 0.55598(17) 0.50053(19) 0.25519(17)
O4 O 0.50614(16) 0.23494(18) 0.19682(15)
O5 O 0.48754(16) 0.08132(18) 0.16286(15)
O6 O 0.37795(16) 0.14240(19) 0.18091(15)
O7 O 0.55381(16) 0.23775(18) 0.33536(15)
O8 O 0.42473(16) 0.18309(19) 0.30967(16)
O9 O 0.60744(14) 0.09352(18) 0.30277(14)
O10 O 0.52721(16) 0.0665(2) 0.36497(16)
N1 N 0.55842(19) 0.4296(2) 0.23396(19)
N2 N 0.53560(19) 0.3041(2) 0.20738(18)
F1 F 0.3883(2) 0.2727(3) 0.4230(2)
F2 F 0.3753(3) 0.1490(3) 0.4005(3)
F3 F 0.32239(19) 0.2323(3) 0.3304(2)
F4 F 0.60452(15) 0.39276(18) 0.39877(15)
F5 F 0.61813(18) 0.3311(2) 0.48527(15)
F6 F 0.73109(14) 0.07361(19) 0.31380(14)
F7 F 0.74317(16) 0.16299(19) 0.38425(16)
F8 F 0.77097(14) 0.0400(2) 0.41287(15)
F9 F 0.50602(18) -0.0139(2) 0.07789(15)
F10 F 0.66932(14) 0.29003(19) 0.43247(15)
C1 C 0.4449(2) 0.3796(3) 0.2179(2)
F11 F 0.23934(17) 0.0506(2) 0.06538(19)
F12 F 0.63911(16) -0.0097(2) 0.51602(14)
C2 C 0.3232(2) 0.3621(3) 0.1561(2)
H1 H 0.2853 0.3488 0.1178
C3 C 0.6525(2) 0.0734(3) 0.3562(2)
C4 C 0.4413(2) 0.0738(3) 0.1073(2)
C5 C 0.5835(2) 0.0473(3) 0.4100(2)
F13 F 0.41517(17) 0.0302(3) 0.00107(15)
F14 F 0.5003(2) 0.1089(2) 0.04960(18)
C6 C 0.6461(2) 0.0475(3) 0.4095(2)
H2 H 0.6844 0.0299 0.4458
F15 F 0.57027(19) 0.0880(2) 0.49926(16)
C7 C 0.5506(2) 0.2664(3) 0.3839(2)
C8 C 0.3162(2) 0.3835(3) 0.2099(3)
C9 C 0.5974(2) 0.3179(3) 0.1979(2)
C10 C 0.3722(3) 0.4056(3) 0.2671(2)
C11 C 0.5115(2) 0.3718(3) 0.2203(2)
H3 H 0.3667 0.4213 0.3025
C12 C 0.7255(2) 0.0858(3) 0.3663(2)
F16 F 0.53276(16) -0.02939(19) 0.46132(14)
C13 C 0.4388(2) 0.2195(3) 0.3608(2)
C14 C 0.5813(2) 0.0237(3) 0.4721(2)
C15 C 0.3878(2) 0.3606(3) 0.1600(2)
C16 C 0.3716(3) 0.0855(3) 0.0855(3)
H4 H 0.3416 0.0730 0.0431
C17 C 0.4359(2) 0.4040(3) 0.2707(2)
H5 H 0.4733 0.4193 0.3086
C18 C 0.4991(3) 0.2586(3) 0.4009(2)
H6 H 0.5047 0.2799 0.4398
F17 F 0.25166(19) 0.1146(4) 0.1469(2)
C19 C 0.4654(3) 0.0498(3) 0.0576(2)
C20 C 0.3459(2) 0.1155(3) 0.1256(2)
C21 C 0.6115(3) 0.3196(3) 0.4261(3)
C22 C 0.6211(2) 0.4019(3) 0.2303(2)
C23 C 0.6773(3) 0.3974(3) 0.2993(3)
H7 H 0.6825 0.4491 0.3195
H8 H 0.7190 0.3824 0.2994
H9 H 0.6657 0.3580 0.3226
F18 F 0.24014(18) 0.1768(2) 0.0614(2)
C24 C 0.6380(3) 0.4627(3) 0.1918(3)
H10 H 0.5998 0.4688 0.1500
H11 H 0.6765 0.4444 0.1873
H12 H 0.6482 0.5137 0.2136
C25 C 0.2684(3) 0.1157(4) 0.0999(3)
C26 C 0.3456(3) 0.3214(4) 0.0499(3)
H13 H 0.3624 0.3106 0.0196
H14 H 0.3128 0.3641 0.0339
H15 H 0.3246 0.2737 0.0558
C27 C 0.6472(3) 0.2487(3) 0.2296(3)
H16 H 0.6274 0.1991 0.2080
H17 H 0.6573 0.2447 0.2740
H18 H 0.6883 0.2588 0.2268
C28 C 0.3811(3) 0.2197(4) 0.3800(3)
C29 C 0.1954(3) 0.3688(4) 0.1531(3)
H19 H 0.1933 0.4038 0.1196
H20 H 0.1564 0.3776 0.1597
H21 H 0.1961 0.3137 0.1408
C30 C 0.5719(3) 0.3166(3) 0.1250(3)
H22 H 0.5538 0.2643 0.1085
H23 H 0.6088 0.3282 0.1157
H24 H 0.5370 0.3565 0.1051
Sm1A Sm 0.508008(11) 0.631430(14) 0.237675(11)
O3A O 0.44402(17) 0.00053(19) 0.24481(17)
Sm2 Sm -0.011803(11) 0.324291(14) 0.252103(10)
O11 O 0.24576(17) 0.5640(2) 0.29581(18)
O12 O 0.09090(17) 0.6043(2) 0.38666(15)
O13 O -0.01112(16) 0.71550(17) 0.30352(15)
O14 O -0.06175(16) 0.45604(17) 0.22652(15)
O15 O -0.00952(16) 0.37109(18) 0.15549(15)
O16 O -0.12220(15) 0.30882(18) 0.16596(14)
O17 O 0.10430(15) 0.36429(18) 0.30163(14)
O18 O 0.01161(15) 0.39502(19) 0.34975(14)
O19 O 0.04979(15) 0.22338(17) 0.33332(14)
O20 O -0.08410(15) 0.2737(2) 0.29426(15)
N3 N -0.04163(19) 0.6470(2) 0.28643(18)
N4 N -0.06561(19) 0.5249(2) 0.24994(18)
F19 F -0.26229(19) 0.3430(3) 0.01884(18)
C31 C 0.0559(2) 0.4205(3) 0.4608(2)
F20 F -0.25244(19) 0.3830(3) 0.1077(3)
C32 C -0.1805(3) 0.5693(3) 0.1790(2)
H25 H -0.1871 0.5212 0.1541
H26 H -0.1629 0.6111 0.1626
H27 H -0.2230 0.5862 0.1764
C33 C -0.1553(3) 0.4860(3) 0.2779(3)
H28 H -0.1916 0.5065 0.2853
H29 H -0.1188 0.4685 0.3180
H30 H -0.1714 0.4414 0.2487
F21 F 0.0907(2) 0.4830(2) 0.49389(17)
F22 F 0.23264(14) 0.38150(19) 0.32650(13)
F23 F 0.16340(14) 0.18614(18) 0.44100(14)
F24 F 0.23933(15) 0.2912(2) 0.39450(17)
F25 F 0.10535(17) 0.1490(2) 0.48843(15)
F26 F 0.10361(16) 0.07753(18) 0.41142(17)
C34 C 0.2207(2) 0.3666(3) 0.3754(2)
C35 C -0.0162(2) 0.5804(3) 0.2711(2)
F27 F 0.01465(19) 0.4767(2) 0.08028(15)
F28 F -0.00645(17) 0.4269(3) 0.44817(16)
C36 C -0.0534(3) 0.3829(3) 0.0998(2)
F29 F -0.07417(19) 0.4369(2) -0.00271(15)
C37 C 0.0655(2) 0.4028(3) 0.4010(2)
F30 F 0.26135(14) 0.4157(2) 0.42376(15)
C38 C 0.0515(2) 0.5735(3) 0.2777(2)
F31 F 0.0808(2) 0.3585(3) 0.50195(17)
F32 F 0.0098(2) 0.3569(2) 0.04508(18)
C39 C 0.1455(2) 0.3779(3) 0.3587(2)
F33 F -0.25032(16) 0.2594(2) 0.08913(18)
C40 C 0.0643(2) 0.5521(3) 0.2268(2)
H31 H 0.0282 0.5398 0.1870
C41 C 0.0431(2) 0.2004(3) 0.3811(2)
C42 C 0.1835(3) 0.5682(3) 0.2936(3)
C43 C 0.1317(2) 0.3964(3) 0.4096(2)
H32 H 0.1676 0.4046 0.4503
C44 C 0.1291(3) 0.5490(3) 0.2344(2)
H33 H 0.1369 0.5340 0.2001
C45 C -0.1523(2) 0.3365(3) 0.1098(2)
C46 C -0.1301(2) 0.5523(3) 0.2492(2)
C47 C -0.0717(2) 0.2454(3) 0.3475(2)
F34 F -0.18776(17) 0.2243(3) 0.3142(2)
C48 C 0.1069(2) 0.5899(3) 0.3381(2)
C49 C 0.1730(2) 0.5874(3) 0.3457(2)
H34 H 0.2096 0.5987 0.3854
C50 C -0.0263(3) 0.4141(3) 0.0547(2)
C51 C -0.1242(3) 0.3710(3) 0.0737(2)
H35 H -0.1523 0.3865 0.0315
F35 F -0.12310(19) 0.2114(3) 0.4138(2)
C52 C -0.2292(3) 0.3306(3) 0.0818(3)
C53 C 0.1050(3) 0.1544(3) 0.4321(2)
C54 C 0.1443(3) 0.6268(3) 0.4482(3)
H36 H 0.1687 0.6718 0.4433
H37 H 0.1747 0.5822 0.4665
H38 H 0.1253 0.6416 0.4762
C55 C -0.0117(2) 0.2106(3) 0.3933(2)
H39 H -0.0084 0.1940 0.4325
C56 C 0.3036(3) 0.5832(4) 0.3551(3)
H40 H 0.3435 0.5828 0.3491
H41 H 0.3083 0.5441 0.3871
H42 H 0.2980 0.6357 0.3691
C57 C -0.1314(3) 0.2496(4) 0.3628(3)
F36 F -0.1438(3) 0.3250(3) 0.3718(3)
C58 C -0.1054(3) 0.6303(3) 0.2912(3)
C59 C -0.0826(3) 0.6163(4) 0.3630(3)
H43 H -0.1209 0.6005 0.3689
H44 H -0.0637 0.6652 0.3863
H45 H -0.0490 0.5745 0.3787
C60 C -0.1517(3) 0.7025(3) 0.2668(3)
H46 H -0.1613 0.7135 0.2232
H47 H -0.1299 0.7484 0.2932
H48 H -0.1932 0.6915 0.2685
Sm2A Sm 0.011803(11) 0.824291(14) 0.247897(10)
O13A O 0.01112(16) 0.21550(17) 0.19648(15)
loop_
_geom_bond_atom_site_label_1
_geom_bond_atom_site_label_2
_geom_bond_site_symmetry_1
_geom_bond_site_symmetry_2
Sm1 O4 1_555 1_555
O1 C8 1_555 1_555
O2 C15 1_555 1_555
O3 N1 1_555 1_555
O4 N2 1_555 1_555
O5 Sm1 1_555 1_555
O6 Sm1 1_555 1_555
O7 Sm1 1_555 1_555
O8 Sm1 1_555 1_555
O9 Sm1 1_555 1_555
O10 Sm1 1_555 1_555
N1 C11 1_555 1_555
N2 C9 1_555 1_555
F1 C28 1_555 1_555
F2 C28 1_555 1_555
F3 C28 1_555 1_555
F4 C21 1_555 1_555
F5 C21 1_555 1_555
F6 C12 1_555 1_555
F7 C12 1_555 1_555
F8 C12 1_555 1_555
F9 C19 1_555 1_555
F10 C21 1_555 1_555
C1 C11 1_555 1_555
F11 C25 1_555 1_555
F12 C14 1_555 1_555
C2 H1 1_555 1_555
C3 O9 1_555 1_555
C4 O5 1_555 1_555
C5 O10 1_555 1_555
F13 C19 1_555 1_555
F14 C19 1_555 1_555
C6 C3 1_555 1_555
H2 C6 1_555 1_555
F15 C14 1_555 1_555
C7 O7 1_555 1_555
C8 C2 1_555 1_555
C9 C22 1_555 1_555
C10 C8 1_555 1_555
C11 N2 1_555 1_555
H3 C10 1_555 1_555
C12 C3 1_555 1_555
F16 C14 1_555 1_555
C13 O8 1_555 1_555
C14 C5 1_555 1_555
C15 C1 1_555 1_555
C16 C4 1_555 1_555
H4 C16 1_555 1_555
C17 C1 1_555 1_555
H5 C17 1_555 1_555
C18 C7 1_555 1_555
H6 C18 1_555 1_555
F17 C25 1_555 1_555
C19 C4 1_555 1_555
C20 O6 1_555 1_555
C21 C7 1_555 1_555
C22 N1 1_555 1_555
C23 C22 1_555 1_555
H7 C23 1_555 1_555
H8 C23 1_555 1_555
H9 C23 1_555 1_555
F18 C25 1_555 1_555
C24 C22 1_555 1_555
H10 C24 1_555 1_555
H11 C24 1_555 1_555
H12 C24 1_555 1_555
C25 C20 1_555 1_555
C26 O2 1_555 1_555
H13 C26 1_555 1_555
H14 C26 1_555 1_555
H15 C26 1_555 1_555
C27 C9 1_555 1_555
H16 C27 1_555 1_555
H17 C27 1_555 1_555
H18 C27 1_555 1_555
C28 C13 1_555 1_555
C29 O1 1_555 1_555
H19 C29 1_555 1_555
H20 C29 1_555 1_555
H21 C29 1_555 1_555
C30 C9 1_555 1_555
H22 C30 1_555 1_555
H23 C30 1_555 1_555
H24 C30 1_555 1_555
Sm2 O14 1_555 1_555
O11 C42 1_555 1_555
O12 C48 1_555 1_555
O13 N3 1_555 1_555
O14 N4 1_555 1_555
O15 Sm2 1_555 1_555
O16 Sm2 1_555 1_555
O17 Sm2 1_555 1_555
O18 Sm2 1_555 1_555
O19 Sm2 1_555 1_555
O20 Sm2 1_555 1_555
N3 C35 1_555 1_555
N4 C35 1_555 1_555
F19 C52 1_555 1_555
C31 F21 1_555 1_555
F20 C52 1_555 1_555
C32 H25 1_555 1_555
H26 C32 1_555 1_555
H27 C32 1_555 1_555
C33 H28 1_555 1_555
H29 C33 1_555 1_555
H30 C33 1_555 1_555
F22 C34 1_555 1_555
F23 C53 1_555 1_555
F24 C34 1_555 1_555
F25 C53 1_555 1_555
F26 C53 1_555 1_555
C34 F30 1_555 1_555
C35 C38 1_555 1_555
F27 C50 1_555 1_555
F28 C31 1_555 1_555
C36 O15 1_555 1_555
F29 C50 1_555 1_555
C37 O18 1_555 1_555
C38 C40 1_555 1_555
F31 C31 1_555 1_555
F32 C50 1_555 1_555
C39 O17 1_555 1_555
F33 C52 1_555 1_555
C40 H31 1_555 1_555
C41 O19 1_555 1_555
C42 C44 1_555 1_555
C43 C37 1_555 1_555
H32 C43 1_555 1_555
C44 C40 1_555 1_555
H33 C44 1_555 1_555
C45 O16 1_555 1_555
C46 N4 1_555 1_555
C47 O20 1_555 1_555
F34 C57 1_555 1_555
C48 C38 1_555 1_555
C49 C42 1_555 1_555
H34 C49 1_555 1_555
C50 C36 1_555 1_555
C51 C36 1_555 1_555
H35 C51 1_555 1_555
F35 C57 1_555 1_555
C52 C45 1_555 1_555
C53 C41 1_555 1_555
C54 O12 1_555 1_555
H36 C54 1_555 1_555
H37 C54 1_555 1_555
H38 C54 1_555 1_555
C55 C41 1_555 1_555
H39 C55 1_555 1_555
C56 O11 1_555 1_555
H40 C56 1_555 1_555
H41 C56 1_555 1_555
H42 C56 1_555 1_555
C57 C47 1_555 1_555
F36 C57 1_555 1_555
C58 N3 1_555 1_555
C59 C58 1_555 1_555
H43 C59 1_555 1_555
H44 C59 1_555 1_555
H45 C59 1_555 1_555
C60 C58 1_555 1_555
H46 C60 1_555 1_555
H47 C60 1_555 1_555
H48 C60 1_555 1_555
Sm1A O3 1_555 1_555
O3A Sm1 1_555 1_555
Sm2A O13 1_555 1_555
O13A Sm2 1_555 1_555
C2 C15 1_555 1_555
C5 C6 1_555 1_555
C10 C17 1_555 1_555
C13 C18 1_555 1_555
C16 C20 1_555 1_555
C31 C37 1_555 1_555
C32 C46 1_555 1_555
C33 C46 1_555 1_555
C34 C39 1_555 1_555
C39 C43 1_555 1_555
C45 C51 1_555 1_555
C46 C58 1_555 1_555
C47 C55 1_555 1_555
C48 C49 1_555 1_555

#END
