
#######################################################################
#
#                 Cambridge Crystallographic Data Centre
#                                CCDC 
#
#######################################################################
#
# If this CIF has been generated from an entry in the Cambridge 
# Structural Database, then it will include bibliographic, chemical, 
# crystal, experimental, refinement or atomic coordinate data resulting 
# from the CCDC's data processing and validation procedures.
#
#######################################################################

data_QOZSUT
_symmetry_cell_setting           monoclinic
_symmetry_space_group_name_H-M   'C c'
_symmetry_Int_Tables_number      9
_space_group_name_Hall           'C -2yc'
loop_
_symmetry_equiv_pos_site_id
_symmetry_equiv_pos_as_xyz
1 x,y,z
2 x,-y,1/2+z
3 1/2+x,1/2+y,z
4 1/2+x,1/2-y,1/2+z
_cell_length_a                   8.4550(10)
_cell_length_b                   25.5090(10)
_cell_length_c                   6.4610(10)
_cell_angle_alpha                90
_cell_angle_beta                 96.150(10)
_cell_angle_gamma                90
_cell_volume                     1385.48
loop_
_atom_site_label
_atom_site_type_symbol
_atom_site_fract_x
_atom_site_fract_y
_atom_site_fract_z
Ag1 Ag 0.00068(5) 0.03242(2) 0.00220(7)
Ag2 Ag 0.28917(6) -0.01122(2) 0.17723(8)
N1 N -0.3430(6) -0.0996(2) -0.0726(8)
N2 N 0.2818(6) 0.1855(2) -0.2291(8)
N3 N -0.3905(6) 0.0521(2) -0.1131(8)
O1 O -0.0628(6) -0.0475(2) -0.0709(8)
O2 O 0.1490(5) -0.0866(2) 0.0985(7)
O3 O 0.1244(6) 0.1050(2) 0.0577(8)
O4 O 0.3516(6) 0.0735(2) 0.2180(8)
O5 O -0.2531(6) 0.0728(2) -0.1237(8)
O6 O -0.5075(5) 0.0730(2) -0.2123(7)
O7 O -0.4023(7) 0.0117(2) -0.0065(8)
C1 C 0.0133(8) -0.0873(2) 0.0022(11)
C2 C -0.0723(8) -0.1393(2) -0.0257(10)
H1 H -0.0902(8) -0.1526(2) 0.1105(10)
H2 H -0.0038(8) -0.1640(2) -0.0872(10)
C3 C -0.2329(7) -0.1370(3) -0.1621(9)
H3 H -0.2160(7) -0.1259(3) -0.3017(9)
H4 H -0.2804(7) -0.1717(3) -0.1712(9)
C4 C 0.2647(7) 0.1096(3) 0.1377(9)
C5 C 0.3352(8) 0.1656(3) 0.1427(10)
H5 H 0.3296(8) 0.1805(3) 0.2799(10)
H6 H 0.4465(8) 0.1635(3) 0.1197(10)
C6 C 0.2508(7) 0.2014(2) -0.0175(9)
H7 H 0.1373(7) 0.2004(2) -0.0067(9)
H8 H 0.2871(7) 0.2372(2) 0.0085(9)
Ag2A Ag -0.71083(6) 0.01122(2) -0.32277(8)
O6A O 0.4925(5) -0.0730(2) 0.2877(7)
N4 N 0.6900(6) 0.2165(2) -0.1234(8)
O8 O 0.6205(6) 0.1901(2) -0.2680(8)
O9 O 0.6084(6) 0.2425(2) -0.0083(8)
O10 O 0.8377(6) 0.2181(3) -0.0952(10)
loop_
_geom_bond_atom_site_label_1
_geom_bond_atom_site_label_2
_geom_bond_site_symmetry_1
_geom_bond_site_symmetry_2
Ag1 O1 1_555 1_555
Ag2 O2 1_555 1_555
N1 C3 1_555 1_555
N2 C6 1_555 1_555
N3 O5 1_555 1_555
N4 O8 1_555 1_555
O1 C1 1_555 1_555
O2 C1 1_555 1_555
O3 Ag1 1_555 1_555
O4 Ag2 1_555 1_555
O5 Ag1 1_555 1_555
O6 N3 1_555 1_555
O7 N3 1_555 1_555
O9 N4 1_555 1_555
O10 N4 1_555 1_555
C1 C2 1_555 1_555
C2 H1 1_555 1_555
H2 C2 1_555 1_555
C3 C2 1_555 1_555
H3 C3 1_555 1_555
H4 C3 1_555 1_555
C4 O3 1_555 1_555
C5 C4 1_555 1_555
H5 C5 1_555 1_555
H6 C5 1_555 1_555
C6 C5 1_555 1_555
H7 C6 1_555 1_555
H8 C6 1_555 1_555
Ag2A O6 1_555 1_555
O6A Ag2 1_555 1_555
O4 C4 1_555 1_555

#END
