
#######################################################################
#
#                 Cambridge Crystallographic Data Centre
#                                CCDC 
#
#######################################################################
#
# If this CIF has been generated from an entry in the Cambridge 
# Structural Database, then it will include bibliographic, chemical, 
# crystal, experimental, refinement or atomic coordinate data resulting 
# from the CCDC's data processing and validation procedures.
#
#######################################################################

data_QOZSAB
_symmetry_cell_setting           monoclinic
_symmetry_space_group_name_H-M   'P 21/c'
_symmetry_Int_Tables_number      14
_space_group_name_Hall           '-P 2ybc'
loop_
_symmetry_equiv_pos_site_id
_symmetry_equiv_pos_as_xyz
1 x,y,z
2 -x,1/2+y,1/2-z
3 -x,-y,-z
4 x,1/2-y,1/2+z
_cell_length_a                   22.204(4)
_cell_length_b                   16.575(3)
_cell_length_c                   23.444(5)
_cell_angle_alpha                90
_cell_angle_beta                 117.00(3)
_cell_angle_gamma                90
_cell_volume                     7687.72
loop_
_atom_site_label
_atom_site_type_symbol
_atom_site_fract_x
_atom_site_fract_y
_atom_site_fract_z
Eu1 Eu 0.488174(8) 0.323733(10) 0.752264(8)
F1 F 0.73177(11) 0.38072(15) 0.82575(11)
F2 F 0.73889(12) 0.28989(15) 0.89410(13)
F3 F 0.76105(12) 0.41456(17) 0.92302(12)
F4 F 0.59093(17) 0.48161(18) 0.99418(14)
F5 F 0.58104(19) 0.35703(19) 1.00211(14)
F6 F 0.49357(13) 0.4261(2) 0.94839(13)
F7 F 0.66297(11) 0.18511(14) 0.94079(11)
F8 F 0.60329(13) 0.07666(13) 0.91134(14)
F9 F 0.60509(14) 0.1485(2) 0.98830(12)
F10 F 0.3553(2) 0.3241(2) 0.8712(2)
F11 F 0.37583(16) 0.2086(3) 0.91208(18)
F12 F 0.31141(14) 0.2245(2) 0.81229(16)
F13 F 0.42745(16) 0.43621(18) 0.49791(12)
F14 F 0.51667(16) 0.47520(16) 0.58135(12)
F15 F 0.51072(18) 0.35528(18) 0.54580(15)
F16 F 0.23876(16) 0.3428(2) 0.51830(15)
F17 F 0.24809(16) 0.3840(2) 0.6068(2)
F18 F 0.25004(13) 0.25920(16) 0.58904(15)
O1 O 0.54969(12) 0.22293(14) 0.83312(11)
O2 O 0.41589(13) 0.27349(15) 0.79324(12)
O3 O 0.60365(12) 0.36323(14) 0.80097(11)
O4 O 0.51164(12) 0.39395(15) 0.84985(11)
O5 O 0.49134(13) 0.37035(14) 0.65635(12)
O6 O 0.37817(13) 0.30832(14) 0.66607(11)
O7 O 0.43899(13) 0.45545(13) 0.72681(12)
O8 O 0.48961(13) 0.71522(13) 0.80305(11)
O9 O 0.74669(14) 0.56409(18) 0.79678(15)
O10 O 0.59116(14) 0.60435(18) 0.88692(12)
N1 N 0.43556(15) 0.52424(16) 0.75068(14)
N2 N 0.45887(16) 0.64631(17) 0.78624(14)
C1 C 0.6044(2) 0.1533(3) 0.93164(19)
C2 C 0.54313(19) 0.1997(2) 0.88115(17)
C3 C 0.48820(19) 0.2094(2) 0.89294(18)
H1 H 0.4909 0.1929 0.9320
C4 C 0.42799(19) 0.2441(2) 0.84668(18)
C5 C 0.3683(2) 0.2486(3) 0.8617(2)
C6 C 0.7200(2) 0.3659(3) 0.8748(2)
C7 C 0.64478(18) 0.3768(2) 0.85803(17)
C8 C 0.63175(18) 0.3959(2) 0.90924(17)
H2 H 0.6676 0.4049 0.9495
C9 C 0.56540(19) 0.4019(2) 0.90086(17)
C10 C 0.5562(2) 0.4188(3) 0.96109(18)
C11 C 0.4748(2) 0.4127(3) 0.55535(19)
C12 C 0.4472(2) 0.3823(2) 0.59995(17)
C13 C 0.3768(2) 0.3701(2) 0.57396(18)
H3 H 0.3488 0.3854 0.5320
C14 C 0.3489(2) 0.3356(2) 0.61033(17)
C15 C 0.2714(2) 0.3304(2) 0.5813(2)
C16 C 0.8045(2) 0.5818(3) 0.8559(2)
H4 H 0.8447 0.5757 0.8508
H5 H 0.8060 0.5454 0.8884
H6 H 0.8015 0.6363 0.8684
C17 C 0.6845(2) 0.5670(2) 0.7943(2)
C18 C 0.6739(2) 0.5870(2) 0.84654(19)
H7 H 0.7102 0.5985 0.8860
C19 C 0.6300(2) 0.5479(2) 0.73476(19)
H8 H 0.6380 0.5333 0.7005
C20 C 0.5651(2) 0.5507(2) 0.72727(18)
H9 H 0.5291 0.5378 0.6879
C21 C 0.6075(2) 0.5894(2) 0.83859(17)
C22 C 0.6449(2) 0.6264(3) 0.9490(2)
H10 H 0.6688 0.6722 0.9445
H11 H 0.6756 0.5819 0.9663
H12 H 0.6260 0.6396 0.9774
C23 C 0.55265(18) 0.5729(2) 0.77839(17)
C24 C 0.48453(18) 0.5801(2) 0.77118(16)
C25 C 0.37059(19) 0.5518(2) 0.74948(18)
C26 C 0.3451(2) 0.4858(2) 0.7782(2)
H13 H 0.3321 0.4395 0.7506
H14 H 0.3067 0.5052 0.7827
H15 H 0.3803 0.4710 0.8195
C27 C 0.3199(2) 0.5680(3) 0.6793(2)
H16 H 0.3368 0.6103 0.6625
H17 H 0.2773 0.5840 0.6769
H18 H 0.3139 0.5198 0.6546
C28 C 0.3955(2) 0.6297(2) 0.7917(2)
C29 C 0.4181(2) 0.6158(3) 0.8628(2)
H19 H 0.3797 0.6018 0.8692
H20 H 0.4384 0.6641 0.8862
H21 H 0.4505 0.5726 0.8778
C30 C 0.3483(2) 0.7020(3) 0.7668(3)
H22 H 0.3402 0.7140 0.7238
H23 H 0.3687 0.7478 0.7937
H24 H 0.3063 0.6897 0.7672
Eu1A Eu 0.511826(8) 0.823733(10) 0.747736(8)
O8A O 0.51039(13) 0.21522(13) 0.69695(11)
Eu2 Eu 0.008210(8) 0.631366(10) 0.737605(8)
F19 F 0.24848(15) 0.6139(4) 0.85347(16)
F20 F 0.26022(13) 0.55051(17) 0.93488(15)
F21 F 0.25978(14) 0.67690(16) 0.93833(19)
F22 F 0.08413(15) 0.5304(2) 0.99856(12)
F23 F -0.00677(15) 0.48667(16) 0.92137(12)
F24 F -0.00084(17) 0.60956(18) 0.94981(14)
F25 F 0.1251(2) 0.6475(2) 0.5995(2)
F26 F 0.17856(15) 0.7312(3) 0.67102(17)
F27 F 0.11318(18) 0.7723(3) 0.57818(19)
F28 F -0.11752(15) 0.83132(17) 0.51504(12)
F29 F -0.10393(13) 0.89282(13) 0.60129(12)
F30 F -0.16895(12) 0.78946(15) 0.56739(12)
F31 F -0.13957(13) 0.49072(16) 0.48379(11)
F32 F -0.03327(13) 0.47101(16) 0.53845(12)
F33 F -0.07076(16) 0.58843(15) 0.50047(13)
F34 F -0.27052(11) 0.54098(16) 0.58783(12)
F35 F -0.24240(12) 0.66375(15) 0.61656(13)
F36 F -0.23006(11) 0.57413(15) 0.68724(11)
O11 O 0.01187(13) 0.58149(14) 0.83647(12)
O12 O 0.12174(13) 0.64233(15) 0.81866(12)
O13 O -0.02736(13) 0.56684(15) 0.63480(12)
O14 O -0.10662(12) 0.59399(14) 0.69787(11)
O15 O 0.07548(13) 0.68248(15) 0.69091(12)
O16 O -0.05334(13) 0.73749(14) 0.66480(12)
O17 O -0.00559(13) 0.73516(14) 0.80255(12)
O18 O -0.05546(14) 1.00044(14) 0.74480(13)
O19 O 0.24543(15) 0.88570(18) 0.78967(15)
O20 O 0.09974(14) 0.84443(18) 0.89034(13)
N3 N -0.03525(16) 0.80386(17) 0.79247(14)
N4 N -0.05779(15) 0.92985(17) 0.76600(15)
C31 C 0.2311(2) 0.6154(3) 0.9001(2)
C32 C 0.15350(19) 0.6152(2) 0.87401(18)
C33 C 0.1283(2) 0.5857(3) 0.91423(19)
H25 H 0.1580 0.5729 0.9564
C34 C 0.05858(19) 0.5746(2) 0.89238(18)
C35 C 0.0345(2) 0.5500(3) 0.9418(2)
C36 C 0.1194(2) 0.7179(3) 0.6206(2)
C37 C 0.0620(2) 0.7188(2) 0.64001(18)
C38 C 0.0019(2) 0.7585(2) 0.59986(18)
H26 H -0.0031 0.7799 0.5613
C39 C -0.0500(2) 0.7666(2) 0.61639(17)
C40 C -0.1113(2) 0.8196(2) 0.5742(2)
C41 C -0.0818(2) 0.5239(2) 0.52769(19)
C42 C -0.08324(19) 0.5474(2) 0.59027(17)
C43 C -0.14579(19) 0.5480(2) 0.59046(17)
H27 H -0.1839 0.5305 0.5544
C44 C -0.15225(18) 0.5744(2) 0.64385(17)
C45 C -0.22475(19) 0.5870(2) 0.63454(18)
C46 C 0.3052(2) 0.8683(3) 0.8468(2)
H28 H 0.3438 0.8735 0.8390
H29 H 0.3028 0.8142 0.8603
H30 H 0.3091 0.9055 0.8798
C47 C 0.1848(2) 0.8835(2) 0.7910(2)
C48 C 0.1772(2) 0.8614(2) 0.8445(2)
H31 H 0.2146 0.8473 0.8824
C49 C 0.1287(2) 0.9054(2) 0.73325(19)
H32 H 0.1346 0.9204 0.6979
C50 C 0.0650(2) 0.9043(2) 0.72950(18)
H33 H 0.0279 0.9200 0.6918
C51 C 0.1128(2) 0.8607(2) 0.84035(18)
C52 C 0.1549(2) 0.8214(3) 0.9509(2)
H34 H 0.1746 0.7721 0.9458
H35 H 0.1383 0.8136 0.9818
H36 H 0.1885 0.8632 0.9654
C53 C 0.05581(19) 0.8799(2) 0.78222(17)
C54 C -0.01093(18) 0.8721(2) 0.77944(17)
C55 C -0.09661(19) 0.8174(2) 0.80221(19)
C56 C -0.1460(2) 0.7480(2) 0.7716(2)
H37 H -0.1554 0.7427 0.7276
H38 H -0.1872 0.7587 0.7740
H39 H -0.1264 0.6988 0.7940
C57 C -0.0707(2) 0.8170(3) 0.8750(2)
H40 H -0.0513 0.7653 0.8918
H41 H -0.1076 0.8274 0.8847
H42 H -0.0369 0.8581 0.8940
C58 C -0.12030(19) 0.9014(2) 0.76963(19)
C59 C -0.1766(2) 0.8969(3) 0.7010(2)
H43 H -0.1835 0.9492 0.6815
H44 H -0.2176 0.8791 0.7012
H45 H -0.1641 0.8594 0.6770
C60 C -0.1377(2) 0.9630(2) 0.8083(2)
H46 H -0.0984 0.9734 0.8481
H47 H -0.1731 0.9421 0.8168
H48 H -0.1525 1.0123 0.7844
Eu2A Eu -0.008210(8) 1.131366(10) 0.762395(8)
O18A O 0.05546(14) 0.50044(14) 0.75520(13)
loop_
_geom_bond_atom_site_label_1
_geom_bond_atom_site_label_2
_geom_bond_site_symmetry_1
_geom_bond_site_symmetry_2
Eu1 O1 1_555 1_555
F1 C6 1_555 1_555
F2 C6 1_555 1_555
F3 C6 1_555 1_555
F4 C10 1_555 1_555
F5 C10 1_555 1_555
F6 C10 1_555 1_555
F7 C1 1_555 1_555
F8 C1 1_555 1_555
F9 C1 1_555 1_555
F10 C5 1_555 1_555
F11 C5 1_555 1_555
F12 C5 1_555 1_555
F13 C11 1_555 1_555
F14 C11 1_555 1_555
F15 C11 1_555 1_555
F16 C15 1_555 1_555
F17 C15 1_555 1_555
F18 C15 1_555 1_555
O1 C2 1_555 1_555
O2 Eu1 1_555 1_555
O3 Eu1 1_555 1_555
O4 Eu1 1_555 1_555
O5 Eu1 1_555 1_555
O6 Eu1 1_555 1_555
O7 Eu1 1_555 1_555
O8 N2 1_555 1_555
O9 C16 1_555 1_555
O10 C21 1_555 1_555
N1 O7 1_555 1_555
N2 C24 1_555 1_555
C1 C2 1_555 1_555
C2 C3 1_555 1_555
C3 H1 1_555 1_555
C4 O2 1_555 1_555
C5 C4 1_555 1_555
C6 C7 1_555 1_555
C7 O3 1_555 1_555
C8 C7 1_555 1_555
H2 C8 1_555 1_555
C9 O4 1_555 1_555
C10 C9 1_555 1_555
C11 C12 1_555 1_555
C12 O5 1_555 1_555
C13 C12 1_555 1_555
H3 C13 1_555 1_555
C14 O6 1_555 1_555
C15 C14 1_555 1_555
C16 H4 1_555 1_555
H5 C16 1_555 1_555
H6 C16 1_555 1_555
C17 O9 1_555 1_555
C18 C17 1_555 1_555
H7 C18 1_555 1_555
C19 C17 1_555 1_555
H8 C19 1_555 1_555
C20 C19 1_555 1_555
H9 C20 1_555 1_555
C21 C18 1_555 1_555
C22 O10 1_555 1_555
H10 C22 1_555 1_555
H11 C22 1_555 1_555
H12 C22 1_555 1_555
C23 C20 1_555 1_555
C24 N1 1_555 1_555
C25 N1 1_555 1_555
C26 C25 1_555 1_555
H13 C26 1_555 1_555
H14 C26 1_555 1_555
H15 C26 1_555 1_555
C27 C25 1_555 1_555
H16 C27 1_555 1_555
H17 C27 1_555 1_555
H18 C27 1_555 1_555
C28 N2 1_555 1_555
C29 C28 1_555 1_555
H19 C29 1_555 1_555
H20 C29 1_555 1_555
H21 C29 1_555 1_555
C30 C28 1_555 1_555
H22 C30 1_555 1_555
H23 C30 1_555 1_555
H24 C30 1_555 1_555
Eu2 O11 1_555 1_555
F19 C31 1_555 1_555
F20 C31 1_555 1_555
F21 C31 1_555 1_555
F22 C35 1_555 1_555
F23 C35 1_555 1_555
F24 C35 1_555 1_555
F25 C36 1_555 1_555
F26 C36 1_555 1_555
F27 C36 1_555 1_555
F28 C40 1_555 1_555
F29 C40 1_555 1_555
F30 C40 1_555 1_555
F31 C41 1_555 1_555
F32 C41 1_555 1_555
F33 C41 1_555 1_555
F34 C45 1_555 1_555
F35 C45 1_555 1_555
F36 C45 1_555 1_555
O11 C34 1_555 1_555
O12 Eu2 1_555 1_555
O13 Eu2 1_555 1_555
O14 Eu2 1_555 1_555
O15 Eu2 1_555 1_555
O16 Eu2 1_555 1_555
O17 Eu2 1_555 1_555
O18 N4 1_555 1_555
O19 C46 1_555 1_555
O20 C51 1_555 1_555
N3 O17 1_555 1_555
N4 C54 1_555 1_555
C31 C32 1_555 1_555
C32 O12 1_555 1_555
C33 C32 1_555 1_555
H25 C33 1_555 1_555
C34 C33 1_555 1_555
C35 C34 1_555 1_555
C36 C37 1_555 1_555
C37 O15 1_555 1_555
C38 C37 1_555 1_555
H26 C38 1_555 1_555
C39 O16 1_555 1_555
C40 C39 1_555 1_555
C41 C42 1_555 1_555
C42 O13 1_555 1_555
C43 C42 1_555 1_555
H27 C43 1_555 1_555
C44 O14 1_555 1_555
C45 C44 1_555 1_555
C46 H28 1_555 1_555
H29 C46 1_555 1_555
H30 C46 1_555 1_555
C47 O19 1_555 1_555
C48 C47 1_555 1_555
H31 C48 1_555 1_555
C49 C47 1_555 1_555
H32 C49 1_555 1_555
C50 C49 1_555 1_555
H33 C50 1_555 1_555
C51 C48 1_555 1_555
C52 O20 1_555 1_555
H34 C52 1_555 1_555
H35 C52 1_555 1_555
H36 C52 1_555 1_555
C53 C50 1_555 1_555
C54 N3 1_555 1_555
C55 N3 1_555 1_555
C56 C55 1_555 1_555
H37 C56 1_555 1_555
H38 C56 1_555 1_555
H39 C56 1_555 1_555
C57 C55 1_555 1_555
H40 C57 1_555 1_555
H41 C57 1_555 1_555
H42 C57 1_555 1_555
C58 N4 1_555 1_555
C59 C58 1_555 1_555
H43 C59 1_555 1_555
H44 C59 1_555 1_555
H45 C59 1_555 1_555
C60 C58 1_555 1_555
H46 C60 1_555 1_555
H47 C60 1_555 1_555
H48 C60 1_555 1_555
Eu1A O8 1_555 1_555
O8A Eu1 1_555 1_555
Eu2A O18 1_555 1_555
O18A Eu2 1_555 1_555
C3 C4 1_555 1_555
C8 C9 1_555 1_555
C13 C14 1_555 1_555
C21 C23 1_555 1_555
C23 C24 1_555 1_555
C25 C28 1_555 1_555
C38 C39 1_555 1_555
C43 C44 1_555 1_555
C51 C53 1_555 1_555
C53 C54 1_555 1_555
C55 C58 1_555 1_555

#END
