
#######################################################################
#
#                 Cambridge Crystallographic Data Centre
#                                CCDC 
#
#######################################################################
#
# If this CIF has been generated from an entry in the Cambridge 
# Structural Database, then it will include bibliographic, chemical, 
# crystal, experimental, refinement or atomic coordinate data resulting 
# from the CCDC's data processing and validation procedures.
#
#######################################################################

data_QOZSEF
_symmetry_cell_setting           monoclinic
_symmetry_space_group_name_H-M   'P 21/c'
_symmetry_Int_Tables_number      14
_space_group_name_Hall           '-P 2ybc'
loop_
_symmetry_equiv_pos_site_id
_symmetry_equiv_pos_as_xyz
1 x,y,z
2 -x,1/2+y,1/2-z
3 -x,-y,-z
4 x,1/2-y,1/2+z
_cell_length_a                   22.261(4)
_cell_length_b                   16.582(3)
_cell_length_c                   23.453(5)
_cell_angle_alpha                90
_cell_angle_beta                 117.45(3)
_cell_angle_gamma                90
_cell_volume                     7682.56
loop_
_atom_site_label
_atom_site_type_symbol
_atom_site_fract_x
_atom_site_fract_y
_atom_site_fract_z
Gd1 Gd 0.508447(8) 0.368118(11) 0.237782(8)
O1 O 0.25435(15) 0.6137(2) 0.21012(16)
O2 O 0.40005(14) 0.65435(18) 0.10947(12)
O3 O 0.55522(14) 0.49853(16) 0.25544(13)
O4 O 0.51160(13) 0.41757(15) 0.33613(12)
O5 O 0.62127(13) 0.35686(16) 0.31846(12)
O6 O 0.39436(12) 0.40545(15) 0.19878(11)
O7 O 0.47341(13) 0.43270(16) 0.13558(12)
O8 O 0.44724(13) 0.26240(16) 0.16509(12)
O9 O 0.57569(13) 0.31806(16) 0.19157(12)
O10 O 0.50532(13) 0.76465(15) 0.19790(12)
N1 N 0.55765(16) 0.56933(18) 0.23394(15)
N2 N 0.53489(16) 0.69506(19) 0.20781(14)
F1 F 0.58346(15) 0.4690(2) 0.49878(12)
F2 F 0.49252(15) 0.51249(17) 0.42111(13)
F3 F 0.49863(18) 0.38922(18) 0.44949(15)
F4 F 0.75976(14) 0.44885(18) 0.43505(15)
F5 F 0.75926(14) 0.32238(18) 0.43871(19)
F6 F 0.74830(15) 0.3839(3) 0.35416(16)
F7 F 0.27070(11) 0.42466(16) 0.18812(11)
F8 F 0.25860(12) 0.33473(15) 0.11748(12)
F9 F 0.23001(12) 0.45768(17) 0.08822(12)
F10 F 0.42951(16) 0.41044(17) 0.00092(13)
F11 F 0.46688(14) 0.52807(18) 0.03840(12)
F12 F 0.36093(14) 0.50793(17) -0.01594(11)
F13 F 0.39667(13) 0.10673(15) 0.10101(13)
F14 F 0.33163(12) 0.21028(16) 0.06736(12)
F15 F 0.38344(15) 0.16865(18) 0.01504(12)
F16 F 0.67911(16) 0.2697(3) 0.17141(17)
F17 F 0.61423(18) 0.2280(3) 0.07916(19)
F18 F 0.6250(2) 0.3528(2) 0.1000(2)
C1 C 0.1944(2) 0.6311(3) 0.1525(2)
H1 H 0.1913 0.5954 0.1191
H2 H 0.1959 0.6859 0.1400
H3 H 0.1557 0.6238 0.1597
C2 C 0.6455(2) 0.7518(3) 0.2281(2)
H4 H 0.6554 0.7574 0.2723
H5 H 0.6255 0.8007 0.2053
H6 H 0.6866 0.7411 0.2255
C3 C 0.3153(2) 0.6160(3) 0.2093(2)
C4 C 0.3225(2) 0.6374(2) 0.15528(19)
H7 H 0.2850 0.6509 0.1169
C5 C 0.3711(2) 0.5938(3) 0.2665(2)
H8 H 0.3652 0.5780 0.3016
C6 C 0.4350(2) 0.5954(2) 0.27092(19)
H9 H 0.4722 0.5804 0.3090
C7 C 0.3874(2) 0.6380(2) 0.16016(18)
C8 C 0.3449(2) 0.6778(3) 0.0493(2)
H10 H 0.3614 0.6877 0.0187
H11 H 0.3245 0.7260 0.0551
H12 H 0.3118 0.6354 0.0338
C9 C 0.44369(19) 0.6196(2) 0.21785(18)
C10 C 0.51080(18) 0.6275(2) 0.22101(17)
C11 C 0.62019(19) 0.5978(2) 0.23108(19)
C12 C 0.6376(2) 0.5369(3) 0.1923(2)
H13 H 0.6740 0.5575 0.1854
H14 H 0.5986 0.5280 0.1516
H15 H 0.6511 0.4870 0.2155
C13 C 0.6766(2) 0.6025(3) 0.2997(2)
H16 H 0.6640 0.6397 0.3237
H17 H 0.7174 0.6208 0.2995
H18 H 0.6839 0.5502 0.3192
C14 C 0.5964(2) 0.6822(2) 0.19804(19)
C15 C 0.5695(2) 0.6822(3) 0.1244(2)
H19 H 0.6065 0.6735 0.1146
H20 H 0.5487 0.7332 0.1071
H21 H 0.5368 0.6399 0.1056
C16 C 0.27579(19) 0.4115(3) 0.13504(19)
C17 C 0.34856(18) 0.4246(2) 0.14440(17)
C18 C 0.35455(19) 0.4503(2) 0.09070(17)
H22 H 0.3161 0.4669 0.0542
C19 C 0.41710(19) 0.4517(2) 0.09088(17)
C20 C 0.4187(2) 0.4747(3) 0.02845(19)
C21 C 0.3898(2) 0.1798(3) 0.07419(19)
C22 C 0.4503(2) 0.2338(2) 0.11675(17)
C23 C 0.5025(2) 0.2410(2) 0.10043(18)
H23 H 0.4976 0.2186 0.0622
C24 C 0.5623(2) 0.2815(2) 0.14063(19)
C25 C 0.6201(2) 0.2823(3) 0.1218(2)
C26 C 0.5337(2) 0.4490(3) 0.4414(2)
C27 C 0.5582(2) 0.4248(2) 0.39219(18)
C28 C 0.6282(2) 0.4135(3) 0.41435(18)
H24 H 0.6583 0.4260 0.4567
C29 C 0.6527(2) 0.3841(3) 0.37394(18)
C30 C 0.7305(2) 0.3834(3) 0.4003(2)
Gd1A Gd 0.491553(8) 0.868118(11) 0.262218(8)
O10A O 0.49468(13) 0.26465(15) 0.30210(12)
Gd2 Gd -0.011699(8) 0.676431(11) 0.252519(8)
O11 O -0.06051(14) 0.54527(15) 0.22731(12)
O12 O 0.24744(15) 0.43638(19) 0.29754(15)
O13 O 0.09184(14) 0.39592(19) 0.38744(12)
O14 O -0.01019(13) 0.28471(15) 0.30269(12)
O15 O 0.01164(12) 0.60677(16) 0.34991(11)
O16 O 0.10340(12) 0.63750(15) 0.30056(11)
O17 O -0.12115(13) 0.69141(16) 0.16670(12)
O18 O -0.00766(14) 0.62998(16) 0.15734(12)
O19 O -0.08406(13) 0.72638(16) 0.29268(12)
O20 O 0.04947(12) 0.77718(15) 0.33265(11)
N3 N -0.06399(16) 0.47640(18) 0.25128(14)
N4 N -0.04060(16) 0.35381(19) 0.28628(14)
F19 F -0.25157(16) 0.6159(2) 0.1060(2)
F20 F -0.24947(13) 0.74012(18) 0.08934(15)
F21 F -0.25978(16) 0.6587(2) 0.01810(15)
F22 F 0.01894(16) 0.52616(18) 0.08229(13)
F23 F -0.07041(17) 0.5648(2) -0.00134(12)
F24 F 0.01221(18) 0.6467(2) 0.04702(15)
F25 F -0.12522(17) 0.7941(3) 0.41010(19)
F26 F -0.18892(14) 0.7747(3) 0.31131(16)
F27 F -0.1442(2) 0.6773(3) 0.3719(2)
F28 F 0.10273(13) 0.92403(15) 0.41079(14)
F29 F 0.10486(14) 0.8515(2) 0.48799(12)
F30 F 0.16252(12) 0.81577(16) 0.44028(11)
F31 F 0.08149(19) 0.6441(2) 0.50219(14)
F32 F -0.00609(14) 0.5739(2) 0.44859(13)
F33 F 0.09093(17) 0.51884(19) 0.49414(14)
F34 F 0.23862(13) 0.71081(17) 0.39360(14)
F35 F 0.26089(12) 0.58614(18) 0.42257(12)
F36 F 0.23108(11) 0.62018(16) 0.32486(11)
C31 C -0.1790(2) 0.4319(3) 0.1798(2)
H25 H -0.1611 0.3906 0.1631
H26 H -0.1858 0.4804 0.1552
H27 H -0.2213 0.4144 0.1769
C32 C -0.1545(2) 0.5146(3) 0.2784(2)
H28 H -0.1932 0.4954 0.2821
H29 H -0.1669 0.5610 0.2509
H30 H -0.1193 0.5289 0.3201
C33 C -0.12902(19) 0.4483(2) 0.24985(18)
C34 C 0.3050(2) 0.4178(3) 0.3571(2)
H31 H 0.3062 0.4533 0.3900
H32 H 0.3455 0.4246 0.3527
H33 H 0.3020 0.3629 0.3687
C35 C 0.1847(2) 0.4330(3) 0.2949(2)
C36 C 0.1743(2) 0.4129(2) 0.34711(19)
H34 H 0.2107 0.4010 0.3867
C37 C 0.1314(2) 0.4520(3) 0.2355(2)
H35 H 0.1395 0.4663 0.2014
C38 C 0.0658(2) 0.4493(2) 0.22769(18)
H36 H 0.0298 0.4623 0.1881
C39 C 0.1080(2) 0.4109(2) 0.33898(17)
C40 C 0.1453(2) 0.3739(3) 0.44955(19)
H37 H 0.1261 0.3576 0.4770
H38 H 0.1746 0.4194 0.4682
H39 H 0.1709 0.3301 0.4449
C41 C 0.05315(18) 0.4272(2) 0.27905(17)
C42 C -0.01507(19) 0.4199(2) 0.27148(17)
C43 C -0.1041(2) 0.3702(2) 0.29171(19)
C44 C -0.0810(2) 0.3832(3) 0.3634(2)
H40 H -0.1195 0.3950 0.3700
H41 H -0.0498 0.4276 0.3785
H42 H -0.0590 0.3353 0.3866
C45 C -0.1511(2) 0.2983(3) 0.2675(3)
H43 H -0.1615 0.2875 0.2237
H44 H -0.1921 0.3098 0.2699
H45 H -0.1294 0.2521 0.2935
C46 C 0.0568(2) 0.5817(3) 0.46114(18)
C47 C 0.06545(19) 0.5980(2) 0.40068(17)
C48 C 0.13134(19) 0.6042(3) 0.40893(17)
H46 H 0.1674 0.5951 0.4494
C49 C 0.14481(18) 0.6239(2) 0.35774(18)
C50 C 0.2200(2) 0.6353(3) 0.37421(19)
C51 C -0.1324(2) 0.7520(4) 0.3610(2)
C52 C -0.07236(19) 0.7561(3) 0.34618(19)
C53 C -0.0125(2) 0.7903(3) 0.39199(18)
H47 H -0.0097 0.8066 0.4311
C54 C 0.04309(19) 0.8008(2) 0.38102(17)
C55 C 0.1038(2) 0.8474(3) 0.43122(19)
C56 C -0.2281(2) 0.6690(3) 0.0811(2)
C57 C -0.1505(2) 0.6649(2) 0.11071(18)
C58 C -0.1218(2) 0.6306(3) 0.07440(19)
H48 H -0.1497 0.6157 0.0320
C59 C -0.0514(2) 0.6184(2) 0.10096(19)
C60 C -0.0237(3) 0.5882(3) 0.0564(2)
Gd2A Gd 0.011699(8) 0.176431(11) 0.247481(8)
O14A O 0.01019(13) 0.78471(15) 0.19731(12)
loop_
_geom_bond_atom_site_label_1
_geom_bond_atom_site_label_2
_geom_bond_site_symmetry_1
_geom_bond_site_symmetry_2
Gd1 O3 1_555 1_555
O1 C1 1_555 1_555
O2 C7 1_555 1_555
O3 N1 1_555 1_555
O4 Gd1 1_555 1_555
O5 Gd1 1_555 1_555
O6 Gd1 1_555 1_555
O7 Gd1 1_555 1_555
O8 Gd1 1_555 1_555
O9 Gd1 1_555 1_555
O10 N2 1_555 1_555
N1 C10 1_555 1_555
N2 C10 1_555 1_555
F1 C26 1_555 1_555
F2 C26 1_555 1_555
F3 C26 1_555 1_555
F4 C30 1_555 1_555
F5 C30 1_555 1_555
F6 C30 1_555 1_555
F7 C16 1_555 1_555
F8 C16 1_555 1_555
F9 C16 1_555 1_555
F10 C20 1_555 1_555
F11 C20 1_555 1_555
F12 C20 1_555 1_555
F13 C21 1_555 1_555
F14 C21 1_555 1_555
F15 C21 1_555 1_555
F16 C25 1_555 1_555
F17 C25 1_555 1_555
F18 C25 1_555 1_555
C1 H1 1_555 1_555
H2 C1 1_555 1_555
H3 C1 1_555 1_555
C2 H4 1_555 1_555
H5 C2 1_555 1_555
H6 C2 1_555 1_555
C3 O1 1_555 1_555
C4 C3 1_555 1_555
H7 C4 1_555 1_555
C5 C3 1_555 1_555
H8 C5 1_555 1_555
C6 C5 1_555 1_555
H9 C6 1_555 1_555
C7 C4 1_555 1_555
C8 O2 1_555 1_555
H10 C8 1_555 1_555
H11 C8 1_555 1_555
H12 C8 1_555 1_555
C9 C6 1_555 1_555
C10 C9 1_555 1_555
C11 N1 1_555 1_555
C12 C11 1_555 1_555
H13 C12 1_555 1_555
H14 C12 1_555 1_555
H15 C12 1_555 1_555
C13 C11 1_555 1_555
H16 C13 1_555 1_555
H17 C13 1_555 1_555
H18 C13 1_555 1_555
C14 N2 1_555 1_555
C15 C14 1_555 1_555
H19 C15 1_555 1_555
H20 C15 1_555 1_555
H21 C15 1_555 1_555
C16 C17 1_555 1_555
C17 O6 1_555 1_555
C18 C17 1_555 1_555
H22 C18 1_555 1_555
C19 O7 1_555 1_555
C20 C19 1_555 1_555
C21 C22 1_555 1_555
C22 O8 1_555 1_555
C23 C22 1_555 1_555
H23 C23 1_555 1_555
C24 O9 1_555 1_555
C25 C24 1_555 1_555
C26 C27 1_555 1_555
C27 O4 1_555 1_555
C28 C27 1_555 1_555
H24 C28 1_555 1_555
C29 O5 1_555 1_555
C30 C29 1_555 1_555
Gd2 O11 1_555 1_555
O11 N3 1_555 1_555
O12 C34 1_555 1_555
O13 C39 1_555 1_555
O14 N4 1_555 1_555
O15 Gd2 1_555 1_555
O16 Gd2 1_555 1_555
O17 Gd2 1_555 1_555
O18 Gd2 1_555 1_555
O19 Gd2 1_555 1_555
O20 Gd2 1_555 1_555
N3 C33 1_555 1_555
N4 C42 1_555 1_555
F19 C56 1_555 1_555
F20 C56 1_555 1_555
F21 C56 1_555 1_555
F22 C60 1_555 1_555
F23 C60 1_555 1_555
F24 C60 1_555 1_555
F25 C51 1_555 1_555
F26 C51 1_555 1_555
F27 C51 1_555 1_555
F28 C55 1_555 1_555
F29 C55 1_555 1_555
F30 C55 1_555 1_555
F31 C46 1_555 1_555
F32 C46 1_555 1_555
F33 C46 1_555 1_555
F34 C50 1_555 1_555
F35 C50 1_555 1_555
F36 C50 1_555 1_555
C31 H25 1_555 1_555
H26 C31 1_555 1_555
H27 C31 1_555 1_555
C32 H28 1_555 1_555
H29 C32 1_555 1_555
H30 C32 1_555 1_555
C33 C31 1_555 1_555
C34 H31 1_555 1_555
H32 C34 1_555 1_555
H33 C34 1_555 1_555
C35 O12 1_555 1_555
C36 C35 1_555 1_555
H34 C36 1_555 1_555
C37 C35 1_555 1_555
H35 C37 1_555 1_555
C38 C37 1_555 1_555
H36 C38 1_555 1_555
C39 C36 1_555 1_555
C40 O13 1_555 1_555
H37 C40 1_555 1_555
H38 C40 1_555 1_555
H39 C40 1_555 1_555
C41 C38 1_555 1_555
C42 N3 1_555 1_555
C43 N4 1_555 1_555
C44 C43 1_555 1_555
H40 C44 1_555 1_555
H41 C44 1_555 1_555
H42 C44 1_555 1_555
C45 C43 1_555 1_555
H43 C45 1_555 1_555
H44 C45 1_555 1_555
H45 C45 1_555 1_555
C46 C47 1_555 1_555
C47 O15 1_555 1_555
C48 C47 1_555 1_555
H46 C48 1_555 1_555
C49 O16 1_555 1_555
C50 C49 1_555 1_555
C51 C52 1_555 1_555
C52 O19 1_555 1_555
C53 C52 1_555 1_555
H47 C53 1_555 1_555
C54 O20 1_555 1_555
C55 C54 1_555 1_555
C56 C57 1_555 1_555
C57 O17 1_555 1_555
C58 C57 1_555 1_555
H48 C58 1_555 1_555
C59 O18 1_555 1_555
C60 C59 1_555 1_555
Gd1A O10 1_555 1_555
O10A Gd1 1_555 1_555
Gd2A O14 1_555 1_555
O14A Gd2 1_555 1_555
C2 C14 1_555 1_555
C7 C9 1_555 1_555
C11 C14 1_555 1_555
C18 C19 1_555 1_555
C23 C24 1_555 1_555
C28 C29 1_555 1_555
C32 C33 1_555 1_555
C33 C43 1_555 1_555
C39 C41 1_555 1_555
C41 C42 1_555 1_555
C48 C49 1_555 1_555
C53 C54 1_555 1_555
C58 C59 1_555 1_555

#END
