
#######################################################################
#
#                 Cambridge Crystallographic Data Centre
#                                CCDC 
#
#######################################################################
#
# If this CIF has been generated from an entry in the Cambridge 
# Structural Database, then it will include bibliographic, chemical, 
# crystal, experimental, refinement or atomic coordinate data resulting 
# from the CCDC's data processing and validation procedures.
#
#######################################################################

data_QOZXUZ
_symmetry_cell_setting           monoclinic
_symmetry_space_group_name_H-M   'C 2/c'
_symmetry_Int_Tables_number      15
_space_group_name_Hall           '-C 2yn'
loop_
_symmetry_equiv_pos_site_id
_symmetry_equiv_pos_as_xyz
1 x,y,z
2 -x,y,1/2-z
3 1/2+x,1/2+y,z
4 1/2-x,1/2+y,1/2-z
5 -x,-y,-z
6 x,-y,1/2+z
7 1/2-x,1/2-y,-z
8 1/2+x,1/2-y,1/2+z
_cell_length_a                   25.341(5)
_cell_length_b                   5.7895(12)
_cell_length_c                   18.900(4)
_cell_angle_alpha                90
_cell_angle_beta                 124.64(3)
_cell_angle_gamma                90
_cell_volume                     2281.34
loop_
_atom_site_label
_atom_site_type_symbol
_atom_site_fract_x
_atom_site_fract_y
_atom_site_fract_z
Gd1 Gd 0.367283(7) -0.15904(3) 0.887420(9)
C1 C 0.30719(16) 0.3187(6) 1.1357(2)
C2 C 0.33467(16) 0.1070(6) 1.1428(2)
H1 H 0.3380 -0.0110 1.1785
C3 C 0.35700(16) 0.0899(6) 1.0900(2)
H2 H 0.3765 -0.0417 1.0867
C4 C 0.34706(16) 0.2873(6) 1.0439(2)
C5 C 0.36520(16) 0.3309(6) 0.9831(2)
C6 C 0.27544(16) 0.3959(6) 1.1772(2)
C7 C 0.47647(16) -0.3978(6) 0.7916(2)
C8 C 0.48623(19) -0.6175(6) 0.7736(2)
H3 H 0.4759 -0.7509 0.7907
C9 C 0.44817(16) -0.3235(6) 0.8381(2)
O1 O 0.34952(11) 0.5215(4) 0.94389(15)
O2 O 0.39527(12) 0.1717(4) 0.97394(16)
O3 O 0.23149(11) 0.5472(4) 1.13806(15)
O4 O 0.29222(12) 0.3080(4) 1.24856(15)
O5 O 0.44352(11) -0.1089(4) 0.84755(15)
O6 O 0.42785(11) -0.4720(4) 0.86612(15)
O7 O 0.46966(12) -0.2064(4) 1.02477(16)
H4 H 0.4987(16) -0.308(6) 1.048(3)
H5 H 0.485(3) -0.094(6) 1.059(3)
O8 O 0.33544(12) 0.1708(4) 0.79218(16)
H6 H 0.2979(10) 0.223(8) 0.771(3)
H7 H 0.361(2) 0.286(6) 0.810(3)
S1 S 0.30775(4) 0.49453(15) 1.06270(5)
S2 S 0.5000 -0.1923(2) 0.7500
Gd1_2 Gd 0.367283(7) -1.15904(3) 0.887420(9)
Gd1_3 Gd 0.367283(7) 0.84096(3) 0.887420(9)
Gd1F Gd 0.132717(7) 0.65904(3) 1.112580(9)
Gd1E Gd 0.367283(7) 0.15904(3) 1.387420(9)
Gd1A Gd 0.632717(7) -0.15904(3) 0.612580(9)
Gd1F_2 Gd 0.132717(7) -0.34096(3) 1.112580(9)
Gd1E_2 Gd 0.367283(7) -0.84096(3) 1.387420(9)
C1_2 C 0.30719(16) -0.6813(6) 1.1357(2)
C2_2 C 0.33467(16) -0.8930(6) 1.1428(2)
H1_2 H 0.3380 -1.0110 1.1785
C3_2 C 0.35700(16) -0.9101(6) 1.0900(2)
H2_2 H 0.3765 -1.0417 1.0867
C4_2 C 0.34706(16) -0.7127(6) 1.0439(2)
C5_2 C 0.36520(16) -0.6691(6) 0.9831(2)
C6_2 C 0.27544(16) -0.6041(6) 1.1772(2)
C7A C 0.52353(16) -0.3978(6) 0.7084(2)
C8A C 0.51377(19) -0.6175(6) 0.7264(2)
H3A H 0.5241 -0.7509 0.7093
C9A C 0.55183(16) -0.3235(6) 0.6619(2)
O1_2 O 0.34952(11) -0.4785(4) 0.94389(15)
O1_3 O 0.34952(11) -1.4785(4) 0.94389(15)
O2_2 O 0.39527(12) -0.8283(4) 0.97394(16)
O3_2 O 0.23149(11) -0.4528(4) 1.13806(15)
O3F O 0.26851(11) -0.0472(4) 0.86194(15)
O3F_2 O 0.26851(11) -1.0472(4) 0.86194(15)
O4_2 O 0.29222(12) -0.6920(4) 1.24856(15)
O4E O 0.29222(12) -0.3080(4) 0.74856(15)
O4E_2 O 0.29222(12) -1.3080(4) 0.74856(15)
O5A O 0.55648(11) -0.1089(4) 0.65245(15)
O5_2 O 0.44352(11) -1.1089(4) 0.84755(15)
O6A O 0.57215(11) -0.4720(4) 0.63388(15)
O6_2 O 0.42785(11) -1.4720(4) 0.86612(15)
O7_2 O 0.46966(12) -1.2064(4) 1.02477(16)
H4_2 H 0.4987(16) -1.308(6) 1.048(3)
H5_2 H 0.485(3) -1.094(6) 1.059(3)
O8_2 O 0.33544(12) -0.8292(4) 0.79218(16)
H6_2 H 0.2979(10) -0.777(8) 0.771(3)
H7_2 H 0.361(2) -0.714(6) 0.810(3)
S1_2 S 0.30775(4) -0.50547(15) 1.06270(5)
loop_
_geom_bond_atom_site_label_1
_geom_bond_atom_site_label_2
_geom_bond_site_symmetry_1
_geom_bond_site_symmetry_2
Gd1 O2 1_555 1_555
C1 C2 1_555 1_555
C2 H1 1_555 1_555
C3 C2 1_555 1_555
H2 C3 1_555 1_555
C4 C3 1_555 1_555
C5 C4 1_555 1_555
C6 C1 1_555 1_555
C7 C8 1_555 1_555
C8 H3 1_555 1_555
C9 C7 1_555 1_555
O1 C5 1_555 1_555
O2 C5 1_555 1_555
O3 C6 1_555 1_555
O4 C6 1_555 1_555
O5 Gd1 1_555 1_555
O6 Gd1 1_555 1_555
O7 Gd1 1_555 1_555
H4 O7 1_555 1_555
H5 O7 1_555 1_555
O8 Gd1 1_555 1_555
H6 O8 1_555 1_555
H7 O8 1_555 1_555
S1 C1 1_555 1_555
S2 C7 1_555 1_555
Gd1_2 O1_3 1_555 1_555
Gd1_3 O1 1_555 1_555
Gd1F O3 1_555 1_555
Gd1E O4 1_555 1_555
Gd1A O5A 1_555 1_555
Gd1F_2 O3_2 1_555 1_555
Gd1E_2 O4_2 1_555 1_555
C1_2 C2_2 1_555 1_555
C2_2 H1_2 1_555 1_555
C3_2 C2_2 1_555 1_555
H2_2 C3_2 1_555 1_555
C4_2 C3_2 1_555 1_555
C5_2 C4_2 1_555 1_555
C6_2 C1_2 1_555 1_555
C7A S2 1_555 1_555
C8A C8 1_555 1_555
H3A C8A 1_555 1_555
C9A C7A 1_555 1_555
O1_2 Gd1 1_555 1_555
O2_2 Gd1_2 1_555 1_555
O3_2 C6_2 1_555 1_555
O3F Gd1 1_555 1_555
O3F_2 Gd1_2 1_555 1_555
O4_2 C6_2 1_555 1_555
O4E Gd1 1_555 1_555
O4E_2 Gd1_2 1_555 1_555
O5A C9A 1_555 1_555
O5_2 Gd1_2 1_555 1_555
O6A Gd1A 1_555 1_555
O6_2 Gd1_2 1_555 1_555
O7_2 Gd1_2 1_555 1_555
H4_2 O7_2 1_555 1_555
H5_2 O7_2 1_555 1_555
O8_2 Gd1_2 1_555 1_555
H6_2 O8_2 1_555 1_555
H7_2 O8_2 1_555 1_555
S1_2 C1_2 1_555 1_555
C4 S1 1_555 1_555
C9 O5 1_555 1_555
C9 O6 1_555 1_555
C4_2 S1_2 1_555 1_555
C5_2 O1_2 1_555 1_555
C5_2 O2_2 1_555 1_555
C7A C8A 1_555 1_555
C9A O6A 1_555 1_555

#END
