
#######################################################################
#
#                 Cambridge Crystallographic Data Centre
#                                CCDC 
#
#######################################################################
#
# If this CIF has been generated from an entry in the Cambridge 
# Structural Database, then it will include bibliographic, chemical, 
# crystal, experimental, refinement or atomic coordinate data resulting 
# from the CCDC's data processing and validation procedures.
#
#######################################################################

data_QOZYUA
_symmetry_cell_setting           tetragonal
_symmetry_space_group_name_H-M   'P 41 21 2'
_symmetry_Int_Tables_number      92
_space_group_name_Hall           'P 4abw 2nw'
loop_
_symmetry_equiv_pos_site_id
_symmetry_equiv_pos_as_xyz
1 x,y,z
2 1/2-y,1/2+x,1/4+z
3 1/2+y,1/2-x,3/4+z
4 1/2+x,1/2-y,3/4-z
5 1/2-x,1/2+y,1/4-z
6 -x,-y,1/2+z
7 y,x,-z
8 -y,-x,1/2-z
_cell_length_a                   13.3505(4)
_cell_length_b                   13.3505(4)
_cell_length_c                   14.7128(4)
_cell_angle_alpha                90
_cell_angle_beta                 90
_cell_angle_gamma                90
_cell_volume                     2622.35
loop_
_atom_site_label
_atom_site_type_symbol
_atom_site_fract_x
_atom_site_fract_y
_atom_site_fract_z
C1 C 0.42263(10) 0.60161(10) 0.90052(10)
C2 C 0.42291(11) 0.70286(11) 0.94737(10)
C3 C 0.34856(11) 0.77177(11) 0.92743(10)
C4 C 0.26456(11) 0.74361(11) 0.87451(9)
C5 C 0.25258(11) 0.63757(11) 0.84319(9)
C6 C 0.16360(13) 0.60626(13) 0.80398(12)
H1 H 0.1108 0.6511 0.7970
C7 C 0.15331(15) 0.50786(15) 0.77507(14)
H2 H 0.0931 0.4867 0.7498
C8 C 0.23162(16) 0.44134(15) 0.78357(13)
H3 H 0.2242 0.3758 0.7633
C9 C 0.32095(14) 0.47144(13) 0.82191(12)
H4 H 0.3740 0.4266 0.8270
C10 C 0.33124(11) 0.56918(11) 0.85292(9)
C11 C 0.35858(12) 0.87837(13) 0.96076(12)
H5 H 0.4280 0.8989 0.9555
H6 H 0.3190 0.9219 0.9220
C12 C 0.32512(17) 0.89171(18) 1.05791(14)
H7 H 0.3435 0.8415 1.0984
C13 C 0.27322(19) 0.96581(19) 1.09140(18)
C14 C 0.2457(3) 0.9727(3) 1.1901(2)
H8 H 0.1743 0.9771 1.1959
H9 H 0.2761 1.0312 1.2161
H10 H 0.2693 0.9141 1.2213
C15 C 0.2320(4) 1.0482(2) 1.0385(3)
H11 H 0.1975 1.0936 1.0783
H12 H 0.1859 1.0223 0.9943
H13 H 0.2853 1.0829 1.0082
Mn1 Mn 0.619176(16) 0.619176(16) 1.0000
O1 O 0.49851(8) 0.55038(8) 0.90515(9)
O2 O 0.49741(7) 0.71947(8) 0.99924(9)
O3 O 0.19752(9) 0.80581(9) 0.85459(8)
C1F C 0.60161(10) 0.42263(10) 1.09948(10)
C2F C 0.70286(11) 0.42291(11) 1.05263(10)
C3F C 0.77177(11) 0.34856(11) 1.07257(10)
C4F C 0.74361(11) 0.26456(11) 1.12549(9)
C5F C 0.63757(11) 0.25258(11) 1.15681(9)
C6F C 0.60626(13) 0.16360(13) 1.19602(12)
H1F H 0.6511 0.1108 1.2030
C7F C 0.50786(15) 0.15331(15) 1.22493(14)
H2F H 0.4867 0.0931 1.2502
C8F C 0.44134(15) 0.23162(16) 1.21643(13)
H3F H 0.3758 0.2242 1.2367
C9F C 0.47144(13) 0.32095(14) 1.17809(12)
H4F H 0.4266 0.3740 1.1730
C10F C 0.56918(11) 0.33124(11) 1.14708(9)
C11F C 0.87837(13) 0.35858(12) 1.03924(12)
H5F H 0.8989 0.4280 1.0445
H6F H 0.9219 0.3190 1.0780
C12F C 0.89171(18) 0.32512(17) 0.94209(14)
H7F H 0.8415 0.3435 0.9016
C13F C 0.96581(19) 0.27322(19) 0.90860(18)
C14F C 0.9727(3) 0.2457(3) 0.8099(2)
H8F H 0.9771 0.1743 0.8041
H9F H 1.0312 0.2761 0.7839
H10F H 0.9141 0.2693 0.7787
C15F C 1.0482(2) 0.2320(4) 0.9615(3)
H11F H 1.0936 0.1975 0.9217
H12F H 1.0223 0.1859 1.0057
H13F H 1.0829 0.2853 0.9918
Mn1A Mn 0.880824(16) 0.119176(16) 1.2500
Mn1B Mn 0.119176(16) 0.880824(16) 0.7500
O1F O 0.55038(8) 0.49851(8) 1.09485(9)
O2F O 0.71947(8) 0.49741(7) 1.00076(9)
O3F O 0.80581(9) 0.19752(9) 1.14541(8)
O3A O 0.69419(9) 0.69752(9) 1.10459(8)
O3C O 0.69752(9) 0.69419(9) 0.89541(8)
loop_
_geom_bond_atom_site_label_1
_geom_bond_atom_site_label_2
_geom_bond_site_symmetry_1
_geom_bond_site_symmetry_2
C1 C2 1_555 1_555
C2 C3 1_555 1_555
C3 C4 1_555 1_555
C4 C5 1_555 1_555
C5 C6 1_555 1_555
C6 H1 1_555 1_555
C7 C6 1_555 1_555
H2 C7 1_555 1_555
C8 C7 1_555 1_555
H3 C8 1_555 1_555
C9 C8 1_555 1_555
H4 C9 1_555 1_555
C10 C1 1_555 1_555
C11 C3 1_555 1_555
H5 C11 1_555 1_555
H6 C11 1_555 1_555
C12 C11 1_555 1_555
H7 C12 1_555 1_555
C13 C12 1_555 1_555
C14 C13 1_555 1_555
H8 C14 1_555 1_555
H9 C14 1_555 1_555
H10 C14 1_555 1_555
C15 C13 1_555 1_555
H11 C15 1_555 1_555
H12 C15 1_555 1_555
H13 C15 1_555 1_555
Mn1 O1 1_555 1_555
O1 C1 1_555 1_555
O2 C2 1_555 1_555
O3 C4 1_555 1_555
C1F C2F 1_555 1_555
C2F C3F 1_555 1_555
C3F C4F 1_555 1_555
C4F C5F 1_555 1_555
C5F C6F 1_555 1_555
C6F H1F 1_555 1_555
C7F C6F 1_555 1_555
H2F C7F 1_555 1_555
C8F C7F 1_555 1_555
H3F C8F 1_555 1_555
C9F C8F 1_555 1_555
H4F C9F 1_555 1_555
C10F C1F 1_555 1_555
C11F C3F 1_555 1_555
H5F C11F 1_555 1_555
H6F C11F 1_555 1_555
C12F C11F 1_555 1_555
H7F C12F 1_555 1_555
C13F C12F 1_555 1_555
C14F C13F 1_555 1_555
H8F C14F 1_555 1_555
H9F C14F 1_555 1_555
H10F C14F 1_555 1_555
C15F C13F 1_555 1_555
H11F C15F 1_555 1_555
H12F C15F 1_555 1_555
H13F C15F 1_555 1_555
Mn1A O3F 1_555 1_555
Mn1B O3 1_555 1_555
O1F Mn1 1_555 1_555
O2F Mn1 1_555 1_555
O3F C4F 1_555 1_555
O3A Mn1 1_555 1_555
O3C Mn1 1_555 1_555
C5 C10 1_555 1_555
C9 C10 1_555 1_555
Mn1 O2 1_555 1_555
C1F O1F 1_555 1_555
C2F O2F 1_555 1_555
C5F C10F 1_555 1_555
C9F C10F 1_555 1_555

#END
