
#######################################################################
#
#                 Cambridge Crystallographic Data Centre
#                                CCDC 
#
#######################################################################
#
# If this CIF has been generated from an entry in the Cambridge 
# Structural Database, then it will include bibliographic, chemical, 
# crystal, experimental, refinement or atomic coordinate data resulting 
# from the CCDC's data processing and validation procedures.
#
#######################################################################

data_QOZYUA03
_symmetry_cell_setting           tetragonal
_symmetry_space_group_name_H-M   'P 43 21 2'
_symmetry_Int_Tables_number      96
_space_group_name_Hall           'P 4nw 2abw'
loop_
_symmetry_equiv_pos_site_id
_symmetry_equiv_pos_as_xyz
1 x,y,z
2 1/2-y,1/2+x,3/4+z
3 -x,-y,1/2+z
4 1/2+y,1/2-x,1/4+z
5 1/2+x,1/2-y,1/4-z
6 y,x,-z
7 1/2-x,1/2+y,3/4-z
8 -y,-x,1/2-z
_cell_length_a                   13.3539(4)
_cell_length_b                   13.3539(4)
_cell_length_c                   14.7148(4)
_cell_angle_alpha                90
_cell_angle_beta                 90
_cell_angle_gamma                90
_cell_volume                     2624.04
loop_
_atom_site_label
_atom_site_type_symbol
_atom_site_fract_x
_atom_site_fract_y
_atom_site_fract_z
Mn1 Mn -0.11913(2) 0.11913(2) 0.2500
O1 O 0.00144(12) 0.05034(12) 0.15529(12)
O2 O 0.00251(10) 0.21972(11) 0.24929(12)
O3 O 0.30245(13) 0.30582(13) 0.10456(10)
C1 C 0.07776(15) 0.10176(15) 0.15033(14)
C2 C 0.16894(16) 0.06921(16) 0.10298(14)
C3 C 0.1791(2) -0.02873(18) 0.07197(17)
H1 H 0.1261 -0.0736 0.0769
C4 C 0.2682(2) -0.0585(2) 0.03405(18)
H2 H 0.2758 -0.1242 0.0144
C5 C 0.3462(2) 0.0080(2) 0.02491(18)
H3 H 0.4061 -0.0132 -0.0011
C6 C 0.33662(18) 0.10602(19) 0.05405(16)
H4 H 0.3896 0.1507 0.0474
C7 C 0.24717(16) 0.13739(17) 0.09330(13)
C8 C 0.23505(16) 0.24354(17) 0.12458(13)
C9 C 0.15136(16) 0.27154(17) 0.17760(14)
C10 C 0.07756(15) 0.20278(15) 0.19712(14)
C11 C 0.14138(18) 0.37855(18) 0.21082(17)
H5 H 0.1812 0.4219 0.1722
H6 H 0.0720 0.3992 0.2053
C12 C 0.1742(2) 0.3920(2) 0.3076(2)
H7 H 0.1554 0.3420 0.3482
C13 C 0.2262(3) 0.4660(3) 0.3413(2)
C14 C 0.2537(4) 0.4727(4) 0.4403(3)
H8 H 0.2277 0.4155 0.4719
H9 H 0.2257 0.5327 0.4658
H10 H 0.3252 0.4743 0.4463
C15 C 0.2691(5) 0.5477(3) 0.2882(4)
H11 H 0.2861 0.5238 0.2286
H12 H 0.3283 0.5721 0.3179
H13 H 0.2211 0.6010 0.2832
O1G O -0.05034(12) -0.00144(12) 0.34471(12)
O2G O -0.21972(11) -0.00251(10) 0.25071(12)
O3G O -0.30582(13) -0.30245(13) 0.39544(10)
C1G C -0.10176(15) -0.07776(15) 0.34967(14)
C2G C -0.06921(16) -0.16894(16) 0.39702(14)
C3G C 0.02873(18) -0.1791(2) 0.42803(17)
H1G H 0.0736 -0.1261 0.4231
C4G C 0.0585(2) -0.2682(2) 0.46595(18)
H2G H 0.1242 -0.2758 0.4856
C5G C -0.0080(2) -0.3462(2) 0.47509(18)
H3G H 0.0132 -0.4061 0.5011
C6G C -0.10602(19) -0.33662(18) 0.44595(16)
H4G H -0.1507 -0.3896 0.4526
C7G C -0.13739(17) -0.24717(16) 0.40670(13)
C8G C -0.24354(17) -0.23505(16) 0.37542(13)
C9G C -0.27154(17) -0.15136(16) 0.32240(14)
C10G C -0.20278(15) -0.07756(15) 0.30288(14)
C11G C -0.37855(18) -0.14138(18) 0.28918(17)
H5G H -0.4219 -0.1812 0.3278
H6G H -0.3992 -0.0720 0.2947
C12G C -0.3920(2) -0.1742(2) 0.1924(2)
H7G H -0.3420 -0.1554 0.1518
C13G C -0.4660(3) -0.2262(3) 0.1587(2)
C14G C -0.4727(4) -0.2537(4) 0.0597(3)
H8G H -0.4155 -0.2277 0.0281
H9G H -0.5327 -0.2257 0.0342
H10G H -0.4743 -0.3252 0.0537
C15G C -0.5477(3) -0.2691(5) 0.2118(4)
H11G H -0.5238 -0.2861 0.2714
H12G H -0.5721 -0.3283 0.1821
H13G H -0.6010 -0.2211 0.2168
Mn1A Mn 0.38087(2) 0.38087(2) 0.0000
Mn1C Mn -0.38087(2) -0.38087(2) 0.5000
O3C O -0.19418(13) 0.19755(13) 0.35456(10)
O3D O -0.19755(13) 0.19418(13) 0.14544(10)
loop_
_geom_bond_atom_site_label_1
_geom_bond_atom_site_label_2
_geom_bond_site_symmetry_1
_geom_bond_site_symmetry_2
Mn1 O1 1_555 1_555
O1 C1 1_555 1_555
O2 Mn1 1_555 1_555
O3 C8 1_555 1_555
C1 C2 1_555 1_555
C2 C3 1_555 1_555
C3 H1 1_555 1_555
C4 C3 1_555 1_555
H2 C4 1_555 1_555
C5 C4 1_555 1_555
H3 C5 1_555 1_555
C6 C5 1_555 1_555
H4 C6 1_555 1_555
C7 C2 1_555 1_555
C8 C7 1_555 1_555
C9 C8 1_555 1_555
C10 O2 1_555 1_555
C11 C9 1_555 1_555
H5 C11 1_555 1_555
H6 C11 1_555 1_555
C12 C11 1_555 1_555
H7 C12 1_555 1_555
C13 C12 1_555 1_555
C14 C13 1_555 1_555
H8 C14 1_555 1_555
H9 C14 1_555 1_555
H10 C14 1_555 1_555
C15 C13 1_555 1_555
H11 C15 1_555 1_555
H12 C15 1_555 1_555
H13 C15 1_555 1_555
O1G Mn1 1_555 1_555
O2G Mn1 1_555 1_555
O3G C8G 1_555 1_555
C1G O1G 1_555 1_555
C2G C1G 1_555 1_555
C3G C2G 1_555 1_555
H1G C3G 1_555 1_555
C4G C3G 1_555 1_555
H2G C4G 1_555 1_555
C5G C4G 1_555 1_555
H3G C5G 1_555 1_555
C6G C5G 1_555 1_555
H4G C6G 1_555 1_555
C7G C2G 1_555 1_555
C8G C7G 1_555 1_555
C9G C8G 1_555 1_555
C10G O2G 1_555 1_555
C11G C9G 1_555 1_555
H5G C11G 1_555 1_555
H6G C11G 1_555 1_555
C12G C11G 1_555 1_555
H7G C12G 1_555 1_555
C13G C12G 1_555 1_555
C14G C13G 1_555 1_555
H8G C14G 1_555 1_555
H9G C14G 1_555 1_555
H10G C14G 1_555 1_555
C15G C13G 1_555 1_555
H11G C15G 1_555 1_555
H12G C15G 1_555 1_555
H13G C15G 1_555 1_555
Mn1A O3 1_555 1_555
Mn1C O3G 1_555 1_555
O3C Mn1 1_555 1_555
O3D Mn1 1_555 1_555
C1 C10 1_555 1_555
C6 C7 1_555 1_555
C9 C10 1_555 1_555
C1G C10G 1_555 1_555
C6G C7G 1_555 1_555
C9G C10G 1_555 1_555

#END
