
#######################################################################
#
#                 Cambridge Crystallographic Data Centre
#                                CCDC 
#
#######################################################################
#
# If this CIF has been generated from an entry in the Cambridge 
# Structural Database, then it will include bibliographic, chemical, 
# crystal, experimental, refinement or atomic coordinate data resulting 
# from the CCDC's data processing and validation procedures.
#
#######################################################################

data_QOZYUA02
_symmetry_cell_setting           tetragonal
_symmetry_space_group_name_H-M   'P 41 21 2'
_symmetry_Int_Tables_number      92
_space_group_name_Hall           'P 4abw 2nw'
loop_
_symmetry_equiv_pos_site_id
_symmetry_equiv_pos_as_xyz
1 x,y,z
2 1/2-y,1/2+x,1/4+z
3 1/2+y,1/2-x,3/4+z
4 1/2+x,1/2-y,3/4-z
5 1/2-x,1/2+y,1/4-z
6 -x,-y,1/2+z
7 y,x,-z
8 -y,-x,1/2-z
_cell_length_a                   13.2486(1)
_cell_length_b                   13.2486(1)
_cell_length_c                   14.6401(1)
_cell_angle_alpha                90
_cell_angle_beta                 90
_cell_angle_gamma                90
_cell_volume                     2569.71
loop_
_atom_site_label
_atom_site_type_symbol
_atom_site_fract_x
_atom_site_fract_y
_atom_site_fract_z
C1 C 0.41695(8) 0.59892(7) 0.89929(8)
C2 C 0.41811(8) 0.70033(8) 0.94691(8)
C3 C 0.34473(8) 0.77186(8) 0.92579(8)
C4 C 0.25956(8) 0.74431(8) 0.87246(7)
C5 C 0.24657(8) 0.63782(8) 0.84034(7)
C6 C 0.15643(8) 0.60747(9) 0.80028(8)
H1 H 0.1044 0.6537 0.7923
C7 C 0.14404(9) 0.50760(9) 0.77204(9)
H2 H 0.0830 0.4871 0.7468
C8 C 0.22258(9) 0.43842(9) 0.78149(9)
H3 H 0.2141 0.3722 0.7619
C9 C 0.31341(9) 0.46845(9) 0.82009(8)
H4 H 0.3663 0.4227 0.8255
C10 C 0.32509(8) 0.56742(8) 0.85070(8)
C11 C 0.35627(8) 0.87878(8) 0.95970(8)
H5 H 0.4258 0.9000 0.9514
H6 H 0.3139 0.9229 0.9233
C12 C 0.32821(9) 0.89019(10) 1.05891(9)
H7 H 0.3536 0.8418 1.0988
C13 C 0.27093(11) 0.96216(10) 1.09566(11)
C14 C 0.22043(15) 1.04448(12) 1.04417(17)
H8 H 0.2514 1.1078 1.0592
H9 H 0.1502 1.0465 1.0602
H10 H 0.2270 1.0323 0.9798
C15 C 0.25104(15) 0.96497(15) 1.19677(13)
H11 H 0.2870 0.9110 1.2260
H12 H 0.1800 0.9574 1.2077
H13 H 0.2735 1.0284 1.2211
Mn1 Mn 0.613899(11) 0.613899(11) 1.0000
O1 O 0.49278(6) 0.54563(6) 0.90460(6)
O2 O 0.49235(5) 0.71612(6) 1.00027(6)
O3 O 0.19195(6) 0.80761(6) 0.85375(6)
C1F C 0.59892(7) 0.41695(8) 1.10071(8)
C2F C 0.70033(8) 0.41811(8) 1.05309(8)
C3F C 0.77186(8) 0.34473(8) 1.07421(8)
C4F C 0.74431(8) 0.25956(8) 1.12754(7)
C5F C 0.63782(8) 0.24657(8) 1.15966(7)
C6F C 0.60747(9) 0.15643(8) 1.19972(8)
H1F H 0.6537 0.1044 1.2077
C7F C 0.50760(9) 0.14404(9) 1.22796(9)
H2F H 0.4871 0.0830 1.2532
C8F C 0.43842(9) 0.22258(9) 1.21851(9)
H3F H 0.3722 0.2141 1.2381
C9F C 0.46845(9) 0.31341(9) 1.17991(8)
H4F H 0.4227 0.3663 1.1745
C10F C 0.56742(8) 0.32509(8) 1.14930(8)
C11F C 0.87878(8) 0.35627(8) 1.04030(8)
H5F H 0.9000 0.4258 1.0486
H6F H 0.9229 0.3139 1.0767
C12F C 0.89019(10) 0.32821(9) 0.94109(9)
H7F H 0.8418 0.3536 0.9012
C13F C 0.96216(10) 0.27093(11) 0.90434(11)
C14F C 1.04448(12) 0.22043(15) 0.95583(17)
H8F H 1.1078 0.2514 0.9408
H9F H 1.0465 0.1502 0.9398
H10F H 1.0323 0.2270 1.0202
C15F C 0.96497(15) 0.25104(15) 0.80323(13)
H11F H 0.9110 0.2870 0.7740
H12F H 0.9574 0.1800 0.7923
H13F H 1.0284 0.2735 0.7789
Mn1A Mn 0.886101(11) 0.113899(11) 1.2500
Mn1B Mn 0.113899(11) 0.886101(11) 0.7500
O1F O 0.54563(6) 0.49278(6) 1.09540(6)
O2F O 0.71612(6) 0.49235(5) 0.99973(6)
O3F O 0.80761(6) 0.19195(6) 1.14625(6)
O3A O 0.69239(6) 0.69195(6) 1.10375(6)
O3C O 0.69195(6) 0.69239(6) 0.89625(6)
loop_
_geom_bond_atom_site_label_1
_geom_bond_atom_site_label_2
_geom_bond_site_symmetry_1
_geom_bond_site_symmetry_2
C1 C2 1_555 1_555
C2 C3 1_555 1_555
C3 C4 1_555 1_555
C4 C5 1_555 1_555
C5 C6 1_555 1_555
C6 H1 1_555 1_555
C7 C6 1_555 1_555
H2 C7 1_555 1_555
C8 C7 1_555 1_555
H3 C8 1_555 1_555
C9 C8 1_555 1_555
H4 C9 1_555 1_555
C10 C1 1_555 1_555
C11 C3 1_555 1_555
H5 C11 1_555 1_555
H6 C11 1_555 1_555
C12 C11 1_555 1_555
H7 C12 1_555 1_555
C13 C12 1_555 1_555
C14 C13 1_555 1_555
H8 C14 1_555 1_555
H9 C14 1_555 1_555
H10 C14 1_555 1_555
C15 C13 1_555 1_555
H11 C15 1_555 1_555
H12 C15 1_555 1_555
H13 C15 1_555 1_555
Mn1 O1 1_555 1_555
O1 C1 1_555 1_555
O2 C2 1_555 1_555
O3 C4 1_555 1_555
C1F C2F 1_555 1_555
C2F C3F 1_555 1_555
C3F C4F 1_555 1_555
C4F C5F 1_555 1_555
C5F C6F 1_555 1_555
C6F H1F 1_555 1_555
C7F C6F 1_555 1_555
H2F C7F 1_555 1_555
C8F C7F 1_555 1_555
H3F C8F 1_555 1_555
C9F C8F 1_555 1_555
H4F C9F 1_555 1_555
C10F C1F 1_555 1_555
C11F C3F 1_555 1_555
H5F C11F 1_555 1_555
H6F C11F 1_555 1_555
C12F C11F 1_555 1_555
H7F C12F 1_555 1_555
C13F C12F 1_555 1_555
C14F C13F 1_555 1_555
H8F C14F 1_555 1_555
H9F C14F 1_555 1_555
H10F C14F 1_555 1_555
C15F C13F 1_555 1_555
H11F C15F 1_555 1_555
H12F C15F 1_555 1_555
H13F C15F 1_555 1_555
Mn1A O3F 1_555 1_555
Mn1B O3 1_555 1_555
O1F Mn1 1_555 1_555
O2F Mn1 1_555 1_555
O3F C4F 1_555 1_555
O3A Mn1 1_555 1_555
O3C Mn1 1_555 1_555
C5 C10 1_555 1_555
C9 C10 1_555 1_555
Mn1 O2 1_555 1_555
C1F O1F 1_555 1_555
C2F O2F 1_555 1_555
C5F C10F 1_555 1_555
C9F C10F 1_555 1_555

#END
