
#######################################################################
#
#                 Cambridge Crystallographic Data Centre
#                                CCDC 
#
#######################################################################
#
# If this CIF has been generated from an entry in the Cambridge 
# Structural Database, then it will include bibliographic, chemical, 
# crystal, experimental, refinement or atomic coordinate data resulting 
# from the CCDC's data processing and validation procedures.
#
#######################################################################

data_QOZYUA01
_symmetry_cell_setting           tetragonal
_symmetry_space_group_name_H-M   'P 41 21 2'
_symmetry_Int_Tables_number      92
_space_group_name_Hall           'P 4abw 2nw'
loop_
_symmetry_equiv_pos_site_id
_symmetry_equiv_pos_as_xyz
1 x,y,z
2 1/2-y,1/2+x,1/4+z
3 1/2+y,1/2-x,3/4+z
4 1/2+x,1/2-y,3/4-z
5 1/2-x,1/2+y,1/4-z
6 -x,-y,1/2+z
7 y,x,-z
8 -y,-x,1/2-z
_cell_length_a                   13.2925(4)
_cell_length_b                   13.2925(4)
_cell_length_c                   14.6653(4)
_cell_angle_alpha                90
_cell_angle_beta                 90
_cell_angle_gamma                90
_cell_volume                     2591.22
loop_
_atom_site_label
_atom_site_type_symbol
_atom_site_fract_x
_atom_site_fract_y
_atom_site_fract_z
Mn1 Mn 0.616096(13) 0.616096(13) 1.0000
O1 O 0.49523(7) 0.54751(7) 0.90478(7)
O2 O 0.19427(7) 0.80692(7) 0.85412(6)
O3 O 0.49458(6) 0.71749(6) 0.99985(7)
C1 C 0.2245(2) 1.04532(17) 1.0418(2)
H1 H 0.2597 1.1071 1.0533
H2 H 0.1555 1.0523 1.0601
H3 H 0.2275 1.0299 0.9779
C2 C 0.2489(2) 0.9674(2) 1.19444(16)
H4 H 0.2807 0.9118 1.2246
H5 H 0.1775 0.9637 1.2034
H6 H 0.2739 1.0293 1.2194
C3 C 0.27187(14) 0.96329(14) 1.09419(13)
C4 C 0.32700(12) 0.89072(13) 1.05872(10)
H7 H 0.3497 0.8415 1.0989
C5 C 0.22612(12) 0.43959(11) 0.78248(10)
H8 H 0.2180 0.3736 0.7628
C6 C 0.14783(11) 0.50754(12) 0.77345(10)
H9 H 0.0871 0.4867 0.7483
C7 C 0.31650(11) 0.46956(10) 0.82069(9)
H10 H 0.3695 0.4242 0.8257
C8 C 0.15933(10) 0.60701(11) 0.80174(9)
H11 H 0.1071 0.6527 0.7940
C9 C 0.35725(10) 0.87870(10) 0.96013(9)
H12 H 0.4267 0.8996 0.9530
H13 H 0.3159 0.9225 0.9228
C10 C 0.41930(9) 0.60008(9) 0.89973(8)
C11 C 0.32763(9) 0.56830(9) 0.85164(8)
C12 C 0.34631(9) 0.77173(9) 0.92656(8)
C13 C 0.24903(9) 0.63765(9) 0.84157(8)
C14 C 0.26168(9) 0.74414(9) 0.87334(7)
C15 C 0.42014(9) 0.70141(9) 0.94716(8)
Mn1A Mn 0.883904(13) 0.116096(13) 1.2500
Mn1B Mn 0.116096(13) 0.883904(13) 0.7500
O1F O 0.54751(7) 0.49523(7) 1.09522(7)
O2F O 0.80692(7) 0.19427(7) 1.14588(6)
O2A O 0.69308(7) 0.69427(7) 1.10412(6)
O2C O 0.69427(7) 0.69308(7) 0.89588(6)
O3F O 0.71749(6) 0.49458(6) 1.00015(7)
C1F C 1.04532(17) 0.2245(2) 0.9582(2)
H1F H 1.1071 0.2597 0.9467
H2F H 1.0523 0.1555 0.9399
H3F H 1.0299 0.2275 1.0221
C2F C 0.9674(2) 0.2489(2) 0.80556(16)
H4F H 0.9118 0.2807 0.7754
H5F H 0.9637 0.1775 0.7966
H6F H 1.0293 0.2739 0.7806
C3F C 0.96329(14) 0.27187(14) 0.90581(13)
C4F C 0.89072(13) 0.32700(12) 0.94128(10)
H7F H 0.8415 0.3497 0.9011
C5F C 0.43959(11) 0.22612(12) 1.21752(10)
H8F H 0.3736 0.2180 1.2372
C6F C 0.50754(12) 0.14783(11) 1.22655(10)
H9F H 0.4867 0.0871 1.2517
C7F C 0.46956(10) 0.31650(11) 1.17931(9)
H10F H 0.4242 0.3695 1.1743
C8F C 0.60701(11) 0.15933(10) 1.19826(9)
H11F H 0.6527 0.1071 1.2060
C9F C 0.87870(10) 0.35725(10) 1.03987(9)
H12F H 0.8996 0.4267 1.0470
H13F H 0.9225 0.3159 1.0772
C10F C 0.60008(9) 0.41930(9) 1.10027(8)
C11F C 0.56830(9) 0.32763(9) 1.14836(8)
C12F C 0.77173(9) 0.34631(9) 1.07344(8)
C13F C 0.63765(9) 0.24903(9) 1.15843(8)
C14F C 0.74414(9) 0.26168(9) 1.12666(7)
C15F C 0.70141(9) 0.42014(9) 1.05284(8)
loop_
_geom_bond_atom_site_label_1
_geom_bond_atom_site_label_2
_geom_bond_site_symmetry_1
_geom_bond_site_symmetry_2
Mn1 O1 1_555 1_555
O1 C10 1_555 1_555
O2 C14 1_555 1_555
O3 Mn1 1_555 1_555
C1 H1 1_555 1_555
H2 C1 1_555 1_555
H3 C1 1_555 1_555
C2 H4 1_555 1_555
H5 C2 1_555 1_555
H6 C2 1_555 1_555
C3 C1 1_555 1_555
C4 C3 1_555 1_555
H7 C4 1_555 1_555
C5 H8 1_555 1_555
C6 C5 1_555 1_555
H9 C6 1_555 1_555
C7 C5 1_555 1_555
H10 C7 1_555 1_555
C8 C6 1_555 1_555
H11 C8 1_555 1_555
C9 C4 1_555 1_555
H12 C9 1_555 1_555
H13 C9 1_555 1_555
C10 C11 1_555 1_555
C11 C7 1_555 1_555
C12 C9 1_555 1_555
C13 C8 1_555 1_555
C14 C12 1_555 1_555
C15 O3 1_555 1_555
Mn1A O2F 1_555 1_555
Mn1B O2 1_555 1_555
O1F Mn1 1_555 1_555
O2F C14F 1_555 1_555
O2A Mn1 1_555 1_555
O2C Mn1 1_555 1_555
O3F Mn1 1_555 1_555
C1F H1F 1_555 1_555
H2F C1F 1_555 1_555
H3F C1F 1_555 1_555
C2F H4F 1_555 1_555
H5F C2F 1_555 1_555
H6F C2F 1_555 1_555
C3F C1F 1_555 1_555
C4F C3F 1_555 1_555
H7F C4F 1_555 1_555
C5F H8F 1_555 1_555
C6F C5F 1_555 1_555
H9F C6F 1_555 1_555
C7F C5F 1_555 1_555
H10F C7F 1_555 1_555
C8F C6F 1_555 1_555
H11F C8F 1_555 1_555
C9F C4F 1_555 1_555
H12F C9F 1_555 1_555
H13F C9F 1_555 1_555
C10F O1F 1_555 1_555
C11F C7F 1_555 1_555
C12F C9F 1_555 1_555
C13F C8F 1_555 1_555
C14F C12F 1_555 1_555
C15F O3F 1_555 1_555
C2 C3 1_555 1_555
C10 C15 1_555 1_555
C11 C13 1_555 1_555
C12 C15 1_555 1_555
C13 C14 1_555 1_555
C2F C3F 1_555 1_555
C10F C11F 1_555 1_555
C10F C15F 1_555 1_555
C11F C13F 1_555 1_555
C12F C15F 1_555 1_555
C13F C14F 1_555 1_555

#END
