
#######################################################################
#
#                 Cambridge Crystallographic Data Centre
#                                CCDC 
#
#######################################################################
#
# If this CIF has been generated from an entry in the Cambridge 
# Structural Database, then it will include bibliographic, chemical, 
# crystal, experimental, refinement or atomic coordinate data resulting 
# from the CCDC's data processing and validation procedures.
#
#######################################################################

data_QQQAEA01
_symmetry_cell_setting           monoclinic
_symmetry_space_group_name_H-M   'C 2/c'
_symmetry_Int_Tables_number      15
_space_group_name_Hall           '-C 2yn'
loop_
_symmetry_equiv_pos_site_id
_symmetry_equiv_pos_as_xyz
1 x,y,z
2 -x,y,1/2-z
3 1/2+x,1/2+y,z
4 1/2-x,1/2+y,1/2-z
5 -x,-y,-z
6 x,-y,1/2+z
7 1/2-x,1/2-y,-z
8 1/2+x,1/2-y,1/2+z
_cell_length_a                   13.658(3)
_cell_length_b                   9.837(2)
_cell_length_c                   13.586(3)
_cell_angle_alpha                90
_cell_angle_beta                 92.64(3)
_cell_angle_gamma                90
_cell_volume                     1823.39
loop_
_atom_site_label
_atom_site_type_symbol
_atom_site_fract_x
_atom_site_fract_y
_atom_site_fract_z
Ca1 Ca 0.04881(6) 0.01088(8) 0.87124(5)
O1 O 0.1775(2) -0.1153(3) 0.9380(2)
H1 H 0.1571 -0.1688 0.9786
O2 O 0.00000 -0.1605(4) 0.75000
O3 O 0.0439(2) 0.1288(3) 1.02558(18)
O4 O 0.0913(3) 0.3065(3) 1.11956(19)
O5 O 0.09760(19) 0.0927(3) 0.70781(18)
O6 O 0.1567(2) 0.2565(3) 0.61306(18)
N1 N 0.1097(2) 0.2469(3) 0.8658(2)
C1 C 0.1060(3) 0.3239(4) 0.9477(3)
C2 C 0.1232(4) 0.4629(5) 0.9469(3)
C3 C 0.1439(4) 0.5236(5) 0.8578(3)
C4 C 0.1491(3) 0.4450(4) 0.7736(3)
C5 C 0.1316(3) 0.3073(4) 0.7812(3)
C6 C 0.0795(3) 0.2478(4) 1.0387(3)
C7 C 0.1296(3) 0.2125(4) 0.6934(3)
H2 H 0.237 -0.150 0.919
H3 H -0.035 -0.212 0.788
H4 H 0.120 0.516 1.006
H5 H 0.159 0.621 0.854
H6 H 0.165 0.490 0.708
Ca1D Ca -0.04881(6) -0.01088(8) 1.12876(5)
Ca1A Ca -0.04881(6) 0.01088(8) 0.62876(5)
Ca1E Ca 0.04881(6) -0.01088(8) 1.37124(5)
O1D O -0.1775(2) 0.1153(3) 1.0620(2)
H1D H -0.1571 0.1688 1.0214
O2D O 0.00000 0.1605(4) 1.25000
O3D O -0.0439(2) -0.1288(3) 0.97442(18)
O4D O -0.0913(3) -0.3065(3) 0.88044(19)
O5D O -0.09760(19) -0.0927(3) 1.29219(18)
O5A O -0.09760(19) 0.0927(3) 0.79219(18)
O5E O 0.09760(19) -0.0927(3) 1.20781(18)
O6D O -0.1567(2) -0.2565(3) 1.38694(18)
N1D N -0.1097(2) -0.2469(3) 1.1342(2)
C1D C -0.1060(3) -0.3239(4) 1.0523(3)
C2D C -0.1232(4) -0.4629(5) 1.0531(3)
C3D C -0.1439(4) -0.5236(5) 1.1422(3)
C4D C -0.1491(3) -0.4450(4) 1.2264(3)
C5D C -0.1316(3) -0.3073(4) 1.2188(3)
C6D C -0.0795(3) -0.2478(4) 0.9613(3)
C7D C -0.1296(3) -0.2125(4) 1.3066(3)
H2D H -0.237 0.150 1.081
H3A H 0.035 -0.212 0.712
H3D H 0.035 0.212 1.212
H3E H -0.035 0.212 1.288
H4D H -0.120 -0.516 0.994
H5D H -0.159 -0.621 1.146
H6D H -0.165 -0.490 1.292
loop_
_geom_bond_atom_site_label_1
_geom_bond_atom_site_label_2
_geom_bond_site_symmetry_1
_geom_bond_site_symmetry_2
Ca1 O1 1_555 1_555
O1 H1 1_555 1_555
O2 Ca1 1_555 1_555
O3 Ca1 1_555 1_555
O4 C6 1_555 1_555
O5 Ca1 1_555 1_555
O6 C7 1_555 1_555
N1 Ca1 1_555 1_555
C1 N1 1_555 1_555
C2 C1 1_555 1_555
C3 C2 1_555 1_555
C4 C3 1_555 1_555
C5 N1 1_555 1_555
C6 O3 1_555 1_555
C7 O5 1_555 1_555
H2 O1 1_555 1_555
H3 O2 1_555 1_555
H4 C2 1_555 1_555
H5 C3 1_555 1_555
H6 C4 1_555 1_555
Ca1D O3 1_555 1_555
Ca1A O2 1_555 1_555
Ca1E O2D 1_555 1_555
O1D Ca1D 1_555 1_555
H1D O1D 1_555 1_555
O2D Ca1D 1_555 1_555
O3D Ca1 1_555 1_555
O4D C6D 1_555 1_555
O5D Ca1D 1_555 1_555
O5A Ca1 1_555 1_555
O5E Ca1D 1_555 1_555
O6D C7D 1_555 1_555
N1D Ca1D 1_555 1_555
C1D N1D 1_555 1_555
C2D C1D 1_555 1_555
C3D C2D 1_555 1_555
C4D C3D 1_555 1_555
C5D N1D 1_555 1_555
C6D O3D 1_555 1_555
C7D O5D 1_555 1_555
H2D O1D 1_555 1_555
H3A O2 1_555 1_555
H3D O2D 1_555 1_555
H3E O2D 1_555 1_555
H4D C2D 1_555 1_555
H5D C3D 1_555 1_555
H6D C4D 1_555 1_555
O5 Ca1A 1_555 1_555
C1 C6 1_555 1_555
C4 C5 1_555 1_555
C5 C7 1_555 1_555
Ca1D O3D 1_555 1_555
Ca1A O5A 1_555 1_555
Ca1E O5D 1_555 1_555
Ca1E O5E 1_555 1_555
C1D C6D 1_555 1_555
C4D C5D 1_555 1_555
C5D C7D 1_555 1_555

#END
