
#######################################################################
#
#                 Cambridge Crystallographic Data Centre
#                                CCDC 
#
#######################################################################
#
# If this CIF has been generated from an entry in the Cambridge 
# Structural Database, then it will include bibliographic, chemical, 
# crystal, experimental, refinement or atomic coordinate data resulting 
# from the CCDC's data processing and validation procedures.
#
#######################################################################

data_QQQAWM02
_symmetry_cell_setting           cubic
_symmetry_space_group_name_H-M   'P n -3 n'
_symmetry_Int_Tables_number      222
_space_group_name_Hall           '-P 4a 2bc 3'
loop_
_symmetry_equiv_pos_site_id
_symmetry_equiv_pos_as_xyz
1 x,y,z
2 z,x,y
3 y,z,x
4 y,x,1/2-z
5 y,1/2-x,z
6 1/2-y,x,z
7 x,z,1/2-y
8 1/2-x,z,y
9 x,1/2-z,y
10 z,y,1/2-x
11 z,1/2-y,x
12 1/2-z,y,x
13 1/2-x,1/2-y,z
14 1/2-x,y,1/2-z
15 x,1/2-y,1/2-z
16 z,1/2-x,1/2-y
17 1/2-z,1/2-x,y
18 1/2-z,x,1/2-y
19 1/2-y,z,1/2-x
20 y,1/2-z,1/2-x
21 1/2-y,1/2-z,x
22 1/2-y,1/2-x,1/2-z
23 1/2-x,1/2-z,1/2-y
24 1/2-z,1/2-y,1/2-x
25 -x,-y,-z
26 -z,-x,-y
27 -y,-z,-x
28 -y,-x,1/2+z
29 -y,1/2+x,-z
30 1/2+y,-x,-z
31 -x,-z,1/2+y
32 1/2+x,-z,-y
33 -x,1/2+z,-y
34 -z,-y,1/2+x
35 -z,1/2+y,-x
36 1/2+z,-y,-x
37 1/2+x,1/2+y,-z
38 1/2+x,-y,1/2+z
39 -x,1/2+y,1/2+z
40 -z,1/2+x,1/2+y
41 1/2+z,1/2+x,-y
42 1/2+z,-x,1/2+y
43 1/2+y,-z,1/2+x
44 -y,1/2+z,1/2+x
45 1/2+y,1/2+z,-x
46 1/2+y,1/2+x,1/2+z
47 1/2+x,1/2+z,1/2+y
48 1/2+z,1/2+y,1/2+x
_cell_length_a                   16.2442(9)
_cell_length_b                   16.2442(9)
_cell_length_c                   16.2442(9)
_cell_angle_alpha                90
_cell_angle_beta                 90
_cell_angle_gamma                90
_cell_volume                     4286.42
loop_
_atom_site_label
_atom_site_type_symbol
_atom_site_fract_x
_atom_site_fract_y
_atom_site_fract_z
Co1 Co 0.49847(5) 0.4985 0.2500
O1 O 0.5382(3) 0.4606(3) 0.3631(3)
O2 O 0.5049(3) 0.6199(3) 0.2998(3)
C1 C 0.5015(5) 0.6919(5) 0.2715(4)
O3 O 0.3822(3) 0.4877(3) 0.3023(3)
C2 C 0.3104(5) 0.4850(3) 0.2727(4)
H1 H 0.6004 0.4753 0.3833
H2 H 0.5210 0.4048 0.3795
Co1DA Co 0.50153(5) 0.7500 -0.0015
Co1D Co 0.4985 1.00153(5) 0.2500
Co1Z Co 0.5015 0.7500 0.50153(5)
Co1I Co 0.2500 0.4985 0.00153(5)
Co1E Co 0.0015 0.49847(5) 0.2500
Co1A Co 0.2500 0.49847(5) 0.4985
O1C O 0.4606(3) 0.5382(3) 0.1369(3)
O1DA O 0.4618(3) 0.6369(3) -0.0394(3)
O1QA O 0.5394(3) 0.8631(3) 0.0382(3)
O2DA O 0.4951(3) 0.7002(3) 0.1199(3)
O2N O 0.5049(3) 0.8801(3) 0.2002(3)
O2FA O 0.4951(3) 0.7998(3) 0.3801(3)
O2C O 0.6199(3) 0.5049(3) 0.2002(3)
O2QA O 0.3801(3) 0.7998(3) 0.0049(3)
C1DA C 0.4985(5) 0.7285(4) 0.1919(5)
C1N C 0.5015(5) 0.8081(5) 0.2285(4)
C1FA C 0.4985(5) 0.7715(4) 0.3081(5)
O3I O 0.3023(3) 0.4877(3) 0.1178(3)
O3M O 0.1178(3) 0.4877(3) 0.1977(3)
O3K O 0.1977(3) 0.4877(3) 0.3822(3)
O3C O 0.4877(3) 0.3822(3) 0.1977(3)
O3QA O 0.5123(3) 0.8023(3) -0.1178(3)
O3DA O 0.6178(3) 0.6977(3) -0.0123(3)
C2I C 0.2727(4) 0.4850(3) 0.1896(5)
C2M C 0.1896(5) 0.4850(3) 0.2273(4)
C2K C 0.2273(4) 0.4850(3) 0.3104(5)
H1C H 0.4753 0.6004 0.1167
H1DA H 0.3996 0.6167 -0.0247
H1QA H 0.5247 0.8833 0.1004
H2C H 0.4048 0.5210 0.1205
H2DA H 0.4790 0.6205 -0.0952
H2QA H 0.5952 0.8795 0.0210
loop_
_geom_bond_atom_site_label_1
_geom_bond_atom_site_label_2
_geom_bond_site_symmetry_1
_geom_bond_site_symmetry_2
Co1 O1 1_555 1_555
O1 H1 1_555 1_555
O2 Co1 1_555 1_555
C1 O2 1_555 1_555
O3 Co1 1_555 1_555
C2 O3 1_555 1_555
H2 O1 1_555 1_555
Co1DA O1DA 1_555 1_555
Co1D O2N 1_555 1_555
Co1Z O2FA 1_555 1_555
Co1I O3I 1_555 1_555
Co1E O3M 1_555 1_555
Co1A O3K 1_555 1_555
O1C Co1 1_555 1_555
O1DA H1DA 1_555 1_555
O1QA Co1DA 1_555 1_555
O2DA Co1DA 1_555 1_555
O2N C1N 1_555 1_555
O2FA C1FA 1_555 1_555
O2C Co1 1_555 1_555
O2QA Co1DA 1_555 1_555
C1DA C1 1_555 1_555
C1N C1DA 1_555 1_555
C1FA C1 1_555 1_555
O3I C2I 1_555 1_555
O3M C2M 1_555 1_555
O3K C2K 1_555 1_555
O3C Co1 1_555 1_555
O3QA Co1DA 1_555 1_555
O3DA Co1DA 1_555 1_555
C2I C2 1_555 1_555
C2M C2I 1_555 1_555
C2K C2 1_555 1_555
H1C O1C 1_555 1_555
H1QA O1QA 1_555 1_555
H2C O1C 1_555 1_555
H2DA O1DA 1_555 1_555
H2QA O1QA 1_555 1_555
O2DA C1DA 1_555 1_555
C1N C1FA 1_555 1_555
C2M C2K 1_555 1_555

#END
