
#######################################################################
#
#                 Cambridge Crystallographic Data Centre
#                                CCDC 
#
#######################################################################
#
# If this CIF has been generated from an entry in the Cambridge 
# Structural Database, then it will include bibliographic, chemical, 
# crystal, experimental, refinement or atomic coordinate data resulting 
# from the CCDC's data processing and validation procedures.
#
#######################################################################

data_QQQAZD01
_symmetry_cell_setting           monoclinic
_symmetry_space_group_name_H-M   'P 21/c'
_symmetry_Int_Tables_number      14
_space_group_name_Hall           '-P 2ybc'
loop_
_symmetry_equiv_pos_site_id
_symmetry_equiv_pos_as_xyz
1 x,y,z
2 -x,1/2+y,1/2-z
3 -x,-y,-z
4 x,1/2-y,1/2+z
_cell_length_a                   8.110(1)
_cell_length_b                   6.404(1)
_cell_length_c                   8.714(2)
_cell_angle_alpha                90
_cell_angle_beta                 93.44(1)
_cell_angle_gamma                90
_cell_volume                     451.759
loop_
_atom_site_label
_atom_site_type_symbol
_atom_site_fract_x
_atom_site_fract_y
_atom_site_fract_z
Zn1 Zn 0.44899 0.07100 0.16151
C1 C 0.78040 0.14690 0.06680
C2 C 0.69820 0.35310 0.09120
C3 C 0.82530 0.51510 0.14320
O1 O 0.66410 -0.01880 0.04650
O2 O 0.57620 0.33050 0.19970
O3 O 0.75610 0.68430 0.22530
H1 H 0.84900 0.16800 -0.01200
H2 H 0.84200 0.12300 0.17500
H3 H 0.64000 0.40800 -0.01000
H4 H 0.87800 0.57500 0.06300
H5 H 0.90900 0.45800 0.20700
H6 H 0.73300 0.77800 0.15700
O1B O 0.33590 0.01880 -0.04650
O2A O 0.42380 -0.16950 0.30030
O3A O 0.24390 0.18430 0.27470
Zn1B Zn 0.55101 -0.07100 -0.16151
Zn1A Zn 0.55101 0.57100 0.33849
H6A H 0.26700 0.27800 0.34300
loop_
_geom_bond_atom_site_label_1
_geom_bond_atom_site_label_2
_geom_bond_site_symmetry_1
_geom_bond_site_symmetry_2
Zn1 O1 1_555 1_555
C1 C2 1_555 1_555
C2 C3 1_555 1_555
C3 O3 1_555 1_555
O1 C1 1_555 1_555
O2 Zn1 1_555 1_555
O3 H6 1_555 1_555
H1 C1 1_555 1_555
H2 C1 1_555 1_555
H3 C2 1_555 1_555
H4 C3 1_555 1_555
H5 C3 1_555 1_555
O1B Zn1 1_555 1_555
O2A Zn1 1_555 1_555
O3A Zn1 1_555 1_555
Zn1B O1 1_555 1_555
Zn1A O2 1_555 1_555
H6A O3A 1_555 1_555
C2 O2 1_555 1_555
O3 Zn1A 1_555 1_555
O1B Zn1B 1_555 1_555

#END
