
#######################################################################
#
#                 Cambridge Crystallographic Data Centre
#                                CCDC 
#
#######################################################################
#
# If this CIF has been generated from an entry in the Cambridge 
# Structural Database, then it will include bibliographic, chemical, 
# crystal, experimental, refinement or atomic coordinate data resulting 
# from the CCDC's data processing and validation procedures.
#
#######################################################################

data_QQQAWM01
_symmetry_cell_setting           cubic
_symmetry_space_group_name_H-M   'P n -3 n'
_symmetry_Int_Tables_number      222
_space_group_name_Hall           '-P 4a 2bc 3'
loop_
_symmetry_equiv_pos_site_id
_symmetry_equiv_pos_as_xyz
1 x,y,z
2 1/2-y,x,z
3 x,1/2-y,1/2-z
4 z,x,y
5 1/2-x,1/2-y,z
6 y,x,1/2-z
7 1/2-x,z,y
8 y,1/2-x,z
9 1/2-x,y,1/2-z
10 1/2-z,1/2-x,y
11 1/2-y,1/2-x,1/2-z
12 x,1/2-z,y
13 z,1/2-x,1/2-y
14 1/2-x,1/2-z,1/2-y
15 1/2-z,x,1/2-y
16 x,z,1/2-y
17 y,z,x
18 z,1/2-y,x
19 1/2-z,y,x
20 z,y,1/2-x
21 y,1/2-z,1/2-x
22 1/2-z,1/2-y,1/2-x
23 1/2-y,z,1/2-x
24 1/2-y,1/2-z,x
25 -x,-y,-z
26 1/2+y,-x,-z
27 -x,1/2+y,1/2+z
28 -z,-x,-y
29 1/2+x,1/2+y,-z
30 -y,-x,1/2+z
31 1/2+x,-z,-y
32 -y,1/2+x,-z
33 1/2+x,-y,1/2+z
34 1/2+z,1/2+x,-y
35 1/2+y,1/2+x,1/2+z
36 -x,1/2+z,-y
37 -z,1/2+x,1/2+y
38 1/2+x,1/2+z,1/2+y
39 1/2+z,-x,1/2+y
40 -x,-z,1/2+y
41 -y,-z,-x
42 -z,1/2+y,-x
43 1/2+z,-y,-x
44 -z,-y,1/2+x
45 -y,1/2+z,1/2+x
46 1/2+z,1/2+y,1/2+x
47 1/2+y,-z,1/2+x
48 1/2+y,1/2+z,-x
_cell_length_a                   16.280(5)
_cell_length_b                   16.280(5)
_cell_length_c                   16.280(5)
_cell_angle_alpha                90
_cell_angle_beta                 90
_cell_angle_gamma                90
_cell_volume                     4314.83
loop_
_atom_site_label
_atom_site_type_symbol
_atom_site_fract_x
_atom_site_fract_y
_atom_site_fract_z
Co1 Co 0.498343(19) 0.498343(19) 0.2500
O1 O 0.46045(14) 0.53739(13) 0.13678(13)
O2 O 0.38080(12) 0.48679(14) 0.30178(12)
O3 O 0.50401(14) 0.61842(12) 0.29980(12)
C1 C 0.30923(18) 0.48447(17) 0.27268(18)
C2 C 0.50095(18) 0.69045(18) 0.27183(19)
H1 H 0.417(3) 0.525(3) 0.124(3)
H2 H 0.471(3) 0.602(3) 0.120(3)
C1R C 0.22732(18) 0.48447(17) 0.30923(18)
O2R O 0.19822(12) 0.48679(14) 0.38080(12)
C1H C 0.19077(18) 0.48447(17) 0.22732(18)
O2H O 0.11920(12) 0.48679(14) 0.19822(12)
C1S C 0.27268(18) 0.48447(17) 0.19077(18)
O2S O 0.30178(12) 0.48679(14) 0.11920(12)
C2IA C 0.49905(18) 0.77183(19) 0.30955(18)
O3IA O 0.49599(14) 0.79980(12) 0.38158(12)
C2B C 0.50095(18) 0.80955(18) 0.22817(19)
O3B O 0.50401(14) 0.88158(12) 0.20020(12)
C2MA C 0.49905(18) 0.72817(19) 0.19045(18)
O3MA O 0.49599(14) 0.70020(12) 0.11842(12)
O1E O 0.53739(13) 0.46045(14) 0.36322(13)
H1E H 0.525(3) 0.417(3) 0.376(3)
H2E H 0.602(3) 0.471(3) 0.380(3)
Co1R Co 0.2500 0.498343(19) 0.498343(19)
O1R O 0.36322(13) 0.53739(13) 0.46045(14)
H1R H 0.376(3) 0.525(3) 0.417(3)
H2R H 0.380(3) 0.602(3) 0.471(3)
O1C O 0.13678(13) 0.46045(14) 0.53739(13)
H1C H 0.124(3) 0.417(3) 0.525(3)
H2C H 0.120(3) 0.471(3) 0.602(3)
O2E O 0.48679(14) 0.38080(12) 0.19822(12)
O3E O 0.61842(12) 0.50401(14) 0.20020(12)
Co1A Co 0.001657(19) 0.498343(19) 0.2500
Co1N Co 0.2500 0.498343(19) 0.001657(19)
Co1IA Co 0.501657(19) 0.7500 0.501657(19)
Co1B Co 0.498343(19) 1.001657(19) 0.2500
Co1MA Co 0.501657(19) 0.7500 -0.001657(19)
O2C O 0.30178(12) 0.38080(12) 0.48679(14)
O3C O 0.29980(12) 0.50401(14) 0.61842(12)
O3R O 0.20020(12) 0.61842(12) 0.50401(14)
loop_
_geom_bond_atom_site_label_1
_geom_bond_atom_site_label_2
_geom_bond_site_symmetry_1
_geom_bond_site_symmetry_2
Co1 O1 1_555 1_555
O1 H1 1_555 1_555
O2 Co1 1_555 1_555
O3 Co1 1_555 1_555
C1 O2 1_555 1_555
C2 O3 1_555 1_555
H2 O1 1_555 1_555
C1R C1 1_555 1_555
O2R C1R 1_555 1_555
C1H C1R 1_555 1_555
O2H C1H 1_555 1_555
C1S C1 1_555 1_555
O2S C1S 1_555 1_555
C2IA C2 1_555 1_555
O3IA C2IA 1_555 1_555
C2B C2IA 1_555 1_555
O3B C2B 1_555 1_555
C2MA C2 1_555 1_555
O3MA C2MA 1_555 1_555
O1E Co1 1_555 1_555
H1E O1E 1_555 1_555
H2E O1E 1_555 1_555
Co1R O2R 1_555 1_555
O1R Co1R 1_555 1_555
H1R O1R 1_555 1_555
H2R O1R 1_555 1_555
O1C Co1R 1_555 1_555
H1C O1C 1_555 1_555
H2C O1C 1_555 1_555
O2E Co1 1_555 1_555
O3E Co1 1_555 1_555
Co1A O2H 1_555 1_555
Co1N O2S 1_555 1_555
Co1IA O3IA 1_555 1_555
Co1B O3B 1_555 1_555
Co1MA O3MA 1_555 1_555
O2C Co1R 1_555 1_555
O3C Co1R 1_555 1_555
O3R Co1R 1_555 1_555
C1H C1S 1_555 1_555
C2B C2MA 1_555 1_555

#END
