
#######################################################################
#
#                 Cambridge Crystallographic Data Centre
#                                CCDC 
#
#######################################################################
#
# If this CIF has been generated from an entry in the Cambridge 
# Structural Database, then it will include bibliographic, chemical, 
# crystal, experimental, refinement or atomic coordinate data resulting 
# from the CCDC's data processing and validation procedures.
#
#######################################################################

data_QQQBOG05
_symmetry_cell_setting           monoclinic
_symmetry_space_group_name_H-M   'C 2/c'
_symmetry_Int_Tables_number      15
_space_group_name_Hall           '-C 2yn'
loop_
_symmetry_equiv_pos_site_id
_symmetry_equiv_pos_as_xyz
1 x,y,z
2 -x,y,1/2-z
3 1/2+x,1/2+y,z
4 1/2-x,1/2+y,1/2-z
5 -x,-y,-z
6 x,-y,1/2+z
7 1/2-x,1/2-y,-z
8 1/2+x,1/2-y,1/2+z
_cell_length_a                   13.419(3)
_cell_length_b                   6.562(1)
_cell_length_c                   10.359(2)
_cell_angle_alpha                90
_cell_angle_beta                 138.84(3)
_cell_angle_gamma                90
_cell_volume                     600.355
loop_
_atom_site_label
_atom_site_type_symbol
_atom_site_fract_x
_atom_site_fract_y
_atom_site_fract_z
Ni1 Ni 0.0000 0.48653(15) 0.2500
O1 O 0.1027(4) 0.2503(7) 0.2445(6)
O2 O 0.3000(5) 0.0424(6) 0.4544(6)
C1 C 0.2219(6) 0.1894(8) 0.4142(8)
O3 O -0.0738(7) 0.6930(9) 0.3123(9)
H1 H -0.133 0.790 0.228
H2 H -0.105 0.633 0.351
Ni1F Ni 0.5000 0.01347(15) 0.7500
O1F O 0.3973(4) 0.2497(7) 0.7555(6)
O1A O -0.1027(4) 0.2503(7) 0.2555(6)
O2F O 0.2000(5) 0.4576(6) 0.5456(6)
O2G O -0.2000(5) 0.4576(6) -0.0456(6)
C1F C 0.2781(6) 0.3106(8) 0.5858(8)
O3A O 0.0738(7) 0.6930(9) 0.1877(9)
H1A H 0.133 0.790 0.272
H2A H 0.105 0.633 0.149
loop_
_geom_bond_atom_site_label_1
_geom_bond_atom_site_label_2
_geom_bond_site_symmetry_1
_geom_bond_site_symmetry_2
Ni1 O1 1_555 1_555
O1 C1 1_555 1_555
O2 C1 1_555 1_555
C1 C1F 1_555 1_555
O3 Ni1 1_555 1_555
H1 O3 1_555 1_555
H2 O3 1_555 1_555
Ni1F O2 1_555 1_555
O1F Ni1F 1_555 1_555
O1A Ni1 1_555 1_555
O2F Ni1 1_555 1_555
O2G Ni1 1_555 1_555
C1F O1F 1_555 1_555
O3A Ni1 1_555 1_555
H1A O3A 1_555 1_555
H2A O3A 1_555 1_555
O2F C1F 1_555 1_555

#END
