
#######################################################################
#
#                 Cambridge Crystallographic Data Centre
#                                CCDC 
#
#######################################################################
#
# If this CIF has been generated from an entry in the Cambridge 
# Structural Database, then it will include bibliographic, chemical, 
# crystal, experimental, refinement or atomic coordinate data resulting 
# from the CCDC's data processing and validation procedures.
#
#######################################################################

data_QQQBOD04
_symmetry_cell_setting           monoclinic
_symmetry_space_group_name_H-M   'C 2/c'
_symmetry_Int_Tables_number      15
_space_group_name_Hall           '-C 2yn'
loop_
_symmetry_equiv_pos_site_id
_symmetry_equiv_pos_as_xyz
1 x,y,z
2 -x,y,1/2-z
3 1/2+x,1/2+y,z
4 1/2-x,1/2+y,1/2-z
5 -x,-y,-z
6 x,-y,1/2+z
7 1/2-x,1/2-y,-z
8 1/2+x,1/2-y,1/2+z
_cell_length_a                   11.812(3)
_cell_length_b                   5.402(1)
_cell_length_c                   9.919(2)
_cell_angle_alpha                90
_cell_angle_beta                 127.72(2)
_cell_angle_gamma                90
_cell_volume                     500.643
loop_
_atom_site_label
_atom_site_type_symbol
_atom_site_fract_x
_atom_site_fract_y
_atom_site_fract_z
C1 C 0.0493(2) 0.6740(5) 0.3500(2)
O1 O 0.08462(18) 0.4695(3) 0.42169(19)
O2 O 0.08487(19) 0.8823(3) 0.4219(2)
O3 O 0.18313(19) 0.1869(4) 0.2577(2)
Zn1 Zn 0.00000 0.17693(9) 0.25000
H1 H 0.249(4) 0.107(6) 0.336(5)
H2 H 0.167(3) 0.135(6) 0.177(4)
C1A C -0.0493(2) 0.6740(5) 0.1500(2)
O1A O -0.08462(18) 0.4695(3) 0.07831(19)
Zn1_2 Zn 0.00000 1.17693(9) 0.25000
O2A O -0.08487(19) 0.8823(3) 0.0781(2)
O2_2 O 0.08487(19) -0.1177(3) 0.4219(2)
O2A_2 O -0.08487(19) -0.1177(3) 0.0781(2)
O3A O -0.18313(19) 0.1869(4) 0.2423(2)
H1A H -0.249(4) 0.107(6) 0.164(5)
H2A H -0.167(3) 0.135(6) 0.323(4)
loop_
_geom_bond_atom_site_label_1
_geom_bond_atom_site_label_2
_geom_bond_site_symmetry_1
_geom_bond_site_symmetry_2
C1 O1 1_555 1_555
O1 Zn1 1_555 1_555
O2 C1 1_555 1_555
O3 Zn1 1_555 1_555
Zn1 O1A 1_555 1_555
H1 O3 1_555 1_555
H2 O3 1_555 1_555
C1A C1 1_555 1_555
O1A C1A 1_555 1_555
Zn1_2 O2 1_555 1_555
O2A C1A 1_555 1_555
O2_2 Zn1 1_555 1_555
O2A_2 Zn1 1_555 1_555
O3A Zn1 1_555 1_555
H1A O3A 1_555 1_555
H2A O3A 1_555 1_555
Zn1_2 O2A 1_555 1_555

#END
