
#######################################################################
#
#                 Cambridge Crystallographic Data Centre
#                                CCDC 
#
#######################################################################
#
# If this CIF has been generated from an entry in the Cambridge 
# Structural Database, then it will include bibliographic, chemical, 
# crystal, experimental, refinement or atomic coordinate data resulting 
# from the CCDC's data processing and validation procedures.
#
#######################################################################

data_QQQBOD05
_symmetry_cell_setting           monoclinic
_symmetry_space_group_name_H-M   'C 2/c'
_symmetry_Int_Tables_number      15
_space_group_name_Hall           '-C 2yn'
loop_
_symmetry_equiv_pos_site_id
_symmetry_equiv_pos_as_xyz
1 x,y,z
2 -x,y,1/2-z
3 1/2+x,1/2+y,z
4 1/2-x,1/2+y,1/2-z
5 -x,-y,-z
6 x,-y,1/2+z
7 1/2-x,1/2-y,-z
8 1/2+x,1/2-y,1/2+z
_cell_length_a                   11.786(3)
_cell_length_b                   5.3955(5)
_cell_length_c                   9.712(3)
_cell_angle_alpha                90
_cell_angle_beta                 126.22(3)
_cell_angle_gamma                90
_cell_volume                     498.251
loop_
_atom_site_label
_atom_site_type_symbol
_atom_site_fract_x
_atom_site_fract_y
_atom_site_fract_z
Zn1 Zn 0.0000 0.07254(15) 0.2500
C1 C -0.0513(5) -0.4242(9) 0.1493(6)
O1 O -0.0868(4) -0.2200(7) 0.0787(4)
O2 O -0.0869(4) -0.6322(7) 0.0781(4)
O3 O 0.1759(4) 0.0635(7) 0.2430(5)
H1 H 0.163(6) 0.144(11) 0.148(5)
H2 H 0.259(5) 0.121(14) 0.345(4)
C1A C 0.0513(5) -0.4242(9) 0.3507(6)
O1A O 0.0868(4) -0.2200(7) 0.4213(4)
O2A O 0.0869(4) -0.6322(7) 0.4219(4)
O3A O -0.1759(4) 0.0635(7) 0.2570(5)
H1A H -0.163(6) 0.144(11) 0.352(5)
H2A H -0.259(5) 0.121(14) 0.155(4)
Zn1_2 Zn 0.0000 -0.92746(15) 0.2500
O2_2 O -0.0869(4) 0.3678(7) 0.0781(4)
O2A_2 O 0.0869(4) 0.3678(7) 0.4219(4)
loop_
_geom_bond_atom_site_label_1
_geom_bond_atom_site_label_2
_geom_bond_site_symmetry_1
_geom_bond_site_symmetry_2
Zn1 O1 1_555 1_555
C1 O1 1_555 1_555
O2 C1 1_555 1_555
O3 Zn1 1_555 1_555
H1 O3 1_555 1_555
H2 O3 1_555 1_555
C1A C1 1_555 1_555
O1A Zn1 1_555 1_555
O2A C1A 1_555 1_555
O3A Zn1 1_555 1_555
H1A O3A 1_555 1_555
H2A O3A 1_555 1_555
Zn1_2 O2 1_555 1_555
O2_2 Zn1 1_555 1_555
O2A_2 Zn1 1_555 1_555
C1A O1A 1_555 1_555
O2A Zn1_2 1_555 1_555

#END
