
#######################################################################
#
#                 Cambridge Crystallographic Data Centre
#                                CCDC 
#
#######################################################################
#
# If this CIF has been generated from an entry in the Cambridge 
# Structural Database, then it will include bibliographic, chemical, 
# crystal, experimental, refinement or atomic coordinate data resulting 
# from the CCDC's data processing and validation procedures.
#
#######################################################################

data_QQQCUJ01
_symmetry_cell_setting           triclinic
_symmetry_space_group_name_H-M   'P -1'
_symmetry_Int_Tables_number      2
_space_group_name_Hall           '-P 1'
loop_
_symmetry_equiv_pos_site_id
_symmetry_equiv_pos_as_xyz
1 x,y,z
2 -x,-y,-z
_cell_length_a                   3.8445(9)
_cell_length_b                   9.803(3)
_cell_length_c                   10.094(3)
_cell_angle_alpha                112.991(13)
_cell_angle_beta                 89.946(16)
_cell_angle_gamma                90.716(16)
_cell_volume                     350.17
loop_
_atom_site_label
_atom_site_type_symbol
_atom_site_fract_x
_atom_site_fract_y
_atom_site_fract_z
Cu1 Cu 0.3360(4) -0.03807(15) 0.83059(15)
Cl1 Cl 0.3126(9) -0.1394(4) 1.0040(3)
Cl2 Cl -0.0838(9) -0.1964(4) 0.7017(3)
O1 O 0.375(3) 0.0470(10) 0.6833(10)
N1 N 0.531(3) 0.2150(11) 0.5906(11)
H1 H 0.5952 0.1409 0.5118
C1 C 0.391(4) 0.1827(17) 0.7016(15)
C2 C 0.270(4) 0.3068(13) 0.8255(15)
H2 H 0.1708 0.2900 0.9042
C3 C 0.295(3) 0.4466(16) 0.8310(16)
H3 H 0.2073 0.5266 0.9119
C4 C 0.454(4) 0.4748(15) 0.7157(16)
H4 H 0.4768 0.5730 0.7198
C5 C 0.574(4) 0.3548(16) 0.5972(14)
H5 H 0.6874 0.3711 0.5208
Cu1_2 Cu -0.6640(4) -0.03807(15) 0.83059(15)
Cu1A Cu 0.6640(4) 0.03807(15) 1.16941(15)
Cl1A Cl 0.6874(9) 0.1394(4) 0.9960(3)
Cl2_2 Cl 0.9162(9) -0.1964(4) 0.7017(3)
loop_
_geom_bond_atom_site_label_1
_geom_bond_atom_site_label_2
_geom_bond_site_symmetry_1
_geom_bond_site_symmetry_2
Cu1 Cl1 1_555 1_555
Cl1 Cu1A 1_555 1_555
Cl2 Cu1 1_555 1_555
O1 Cu1 1_555 1_555
N1 H1 1_555 1_555
C1 O1 1_555 1_555
C2 C1 1_555 1_555
H2 C2 1_555 1_555
C3 C2 1_555 1_555
H3 C3 1_555 1_555
C4 C3 1_555 1_555
H4 C4 1_555 1_555
C5 N1 1_555 1_555
H5 C5 1_555 1_555
Cu1_2 Cl2 1_555 1_555
Cu1A Cl1A 1_555 1_555
Cl1A Cu1 1_555 1_555
Cl2_2 Cu1 1_555 1_555
N1 C1 1_555 1_555
C4 C5 1_555 1_555

#END
