
#######################################################################
#
#                 Cambridge Crystallographic Data Centre
#                                CCDC 
#
#######################################################################
#
# If this CIF has been generated from an entry in the Cambridge 
# Structural Database, then it will include bibliographic, chemical, 
# crystal, experimental, refinement or atomic coordinate data resulting 
# from the CCDC's data processing and validation procedures.
#
#######################################################################

data_QQQCVP02
_symmetry_cell_setting           monoclinic
_symmetry_space_group_name_H-M   'P 21/c'
_symmetry_Int_Tables_number      14
_space_group_name_Hall           '-P 2ybc'
loop_
_symmetry_equiv_pos_site_id
_symmetry_equiv_pos_as_xyz
1 x,y,z
2 x,1/2-y,1/2+z
3 -x,-y,-z
4 -x,1/2+y,1/2-z
_cell_length_a                   10.9065(6)
_cell_length_b                   9.5339(5)
_cell_length_c                   9.8977(5)
_cell_angle_alpha                90
_cell_angle_beta                 114.1250(10)
_cell_angle_gamma                90
_cell_volume                     939.285
loop_
_atom_site_label
_atom_site_type_symbol
_atom_site_fract_x
_atom_site_fract_y
_atom_site_fract_z
Er1 Er 0.191404(11) 0.456295(12) -0.669046(12)
O1 O 0.2120(3) 0.6856(3) -0.5707(3)
H1 H 0.269(4) 0.756(4) -0.587(6)
H2 H 0.133(3) 0.734(5) -0.568(6)
O2 O 0.1667(3) 0.2191(3) -0.6175(3)
H3 H 0.108(5) 0.151(4) -0.688(4)
H4 H 0.221(5) 0.167(5) -0.528(3)
O3 O 0.2955(2) 0.3191(3) -0.7993(3)
H5 H 0.3934(11) 0.322(5) -0.752(5)
H6 H 0.262(4) 0.223(2) -0.821(6)
O4 O 0.3892(2) 0.3911(2) -0.4648(2)
O5 O 0.6094(2) 0.4263(2) -0.3338(2)
C1 C 0.4992(3) 0.4469(3) -0.4420(3)
O6 O 0.1636(2) 0.4371(3) -0.4290(3)
O7 O 0.0260(2) 0.4754(3) -0.3158(3)
C2 C 0.0550(3) 0.4752(3) -0.4268(3)
O8 O 0.1283(2) 0.6040(2) -0.8773(2)
O9 O -0.0141(2) 0.6459(2) -1.1122(2)
C3 C 0.0330(3) 0.5726(3) -0.9965(3)
C1B C 0.5008(3) 0.5531(3) -0.5580(3)
O4B O 0.6108(2) 0.6089(2) -0.5352(2)
O5B O 0.3906(2) 0.5737(2) -0.6662(2)
C2B C -0.0550(3) 0.5248(3) -0.5732(3)
O6B O -0.1636(2) 0.5629(3) -0.5710(3)
O7B O -0.0260(2) 0.5246(3) -0.6842(3)
C3B C -0.0330(3) 0.4274(3) -1.0035(3)
O8B O -0.1283(2) 0.3960(2) -1.1227(2)
O9B O 0.0141(2) 0.3541(2) -0.8878(2)
Er1B Er 0.808596(11) 0.543705(12) -0.330954(12)
O1B O 0.7880(3) 0.3144(3) -0.4293(3)
H1B H 0.731(4) 0.244(4) -0.413(6)
H2B H 0.867(3) 0.266(5) -0.432(6)
O2B O 0.8333(3) 0.7809(3) -0.3825(3)
H3B H 0.892(5) 0.849(4) -0.312(4)
H4B H 0.779(5) 0.833(5) -0.472(3)
O3B O 0.7045(2) 0.6809(3) -0.2007(3)
H5B H 0.6066(11) 0.678(5) -0.248(5)
H6B H 0.738(4) 0.777(2) -0.179(6)
Er1B_2 Er -0.191404(11) 0.543705(12) -0.330954(12)
Er1B_3 Er -0.191404(11) 0.543705(12) -1.330954(12)
O6B_2 O 0.8364(2) 0.5629(3) -0.5710(3)
O7_2 O 1.0260(2) 0.4754(3) -0.3158(3)
O8B_2 O 0.8717(2) 0.3960(2) -0.1227(2)
O9_2 O 0.9859(2) 0.6459(2) -0.1122(2)
O10 O 0.4246(8) -0.1872(9) -0.7979(9)
O12 O 0.3386(10) -0.0884(11) -0.6556(11)
O11? O 0.4431(10) -0.2877(11) -0.8780(11)
O13? O 0.4210(15) 0.0125(16) -0.5761(16)
O14? O 0.4183(17) -0.1448(19) -0.7429(19)
loop_
_geom_bond_atom_site_label_1
_geom_bond_atom_site_label_2
_geom_bond_site_symmetry_1
_geom_bond_site_symmetry_2
Er1 O1 1_555 1_555
O1 H1 1_555 1_555
H2 O1 1_555 1_555
O2 Er1 1_555 1_555
H3 O2 1_555 1_555
H4 O2 1_555 1_555
O3 Er1 1_555 1_555
H5 O3 1_555 1_555
H6 O3 1_555 1_555
O4 Er1 1_555 1_555
O5 C1 1_555 1_555
C1 O4 1_555 1_555
O6 Er1 1_555 1_555
O7 C2 1_555 1_555
C2 O6 1_555 1_555
O8 Er1 1_555 1_555
O9 C3 1_555 1_555
C3 O8 1_555 1_555
C1B C1 1_555 1_555
O4B C1B 1_555 1_555
O5B Er1 1_555 1_555
C2B C2 1_555 1_555
O6B C2B 1_555 1_555
O7B Er1 1_555 1_555
C3B C3 1_555 1_555
O8B C3B 1_555 1_555
O9B Er1 1_555 1_555
Er1B O5 1_555 1_555
O1B Er1B 1_555 1_555
H1B O1B 1_555 1_555
H2B O1B 1_555 1_555
O2B Er1B 1_555 1_555
H3B O2B 1_555 1_555
H4B O2B 1_555 1_555
O3B Er1B 1_555 1_555
H5B O3B 1_555 1_555
H6B O3B 1_555 1_555
Er1B_2 O7 1_555 1_555
Er1B_3 O9 1_555 1_555
O6B_2 Er1B 1_555 1_555
O7_2 Er1B 1_555 1_555
O8B_2 Er1B 1_555 1_555
O9_2 Er1B 1_555 1_555
C1B O5B 1_555 1_555
O4B Er1B 1_555 1_555
C2B O7B 1_555 1_555
O6B Er1B_2 1_555 1_555
C3B O9B 1_555 1_555
O8B Er1B_3 1_555 1_555

#END
