
#######################################################################
#
#                 Cambridge Crystallographic Data Centre
#                                CCDC 
#
#######################################################################
#
# If this CIF has been generated from an entry in the Cambridge 
# Structural Database, then it will include bibliographic, chemical, 
# crystal, experimental, refinement or atomic coordinate data resulting 
# from the CCDC's data processing and validation procedures.
#
#######################################################################

data_QQQDSD01
_symmetry_cell_setting           triclinic
_symmetry_space_group_name_H-M   'P -1'
_symmetry_Int_Tables_number      2
_space_group_name_Hall           '-P 1'
loop_
_symmetry_equiv_pos_site_id
_symmetry_equiv_pos_as_xyz
1 x,y,z
2 -x,-y,-z
_cell_length_a                   6.291(4)
_cell_length_b                   7.204(1)
_cell_length_c                   10.634(2)
_cell_angle_alpha                94.55(1)
_cell_angle_beta                 100.35(5)
_cell_angle_gamma                97.64(5)
_cell_volume                     467.246
loop_
_atom_site_label
_atom_site_type_symbol
_atom_site_fract_x
_atom_site_fract_y
_atom_site_fract_z
Rb1 Rb -0.33551(6) -0.35045(4) 0.27505(3)
O1 O -0.7262(4) -0.5674(3) 0.3552(2)
O2 O -0.4403(4) -0.7539(4) 0.1292(2)
O3 O 0.0056(4) -0.5730(3) 0.1514(2)
O4 O 0.2645(4) -0.4012(3) 0.0738(2)
O5 O 0.1578(4) 0.0094(3) 0.1534(2)
O6 O -0.1660(4) -0.1622(3) 0.0666(2)
O7 O 0.1600(4) -0.1596(3) 0.3500(2)
O8 O -0.2625(4) -0.1128(3) 0.5254(2)
O9 O -0.3140(5) 0.0653(3) 0.3171(2)
O10 O -0.2210(4) 0.3418(3) 0.4356(2)
C1 C 0.0829(5) -0.4889(4) 0.0636(3)
C2 C -0.0087(5) -0.0465(4) 0.0621(3)
C3 C 0.2219(5) -0.0600(4) 0.4557(3)
C4 C -0.2517(5) 0.1726(4) 0.4258(3)
H1 H 0.065(9) -0.583(7) 0.220(5)
H2 H 0.15(1) -0.045(8) 0.233(6)
H3 H -0.358(7) 0.127(5) 0.256(4)
H4 H -0.728(7) -0.688(9) 0.376(7)
H5 H -0.762(7) -0.496(5) 0.415(4)
H6 H -0.554(10) -0.803(8) 0.088(6)
H7 H -0.362(9) -0.722(7) 0.078(5)
C3A C -0.2219(5) 0.0600(4) 0.5443(3)
O4_2 O -0.7355(4) -0.4012(3) 0.0738(2)
C1A C -0.0829(5) -0.5111(4) -0.0636(3)
C2A C 0.0087(5) 0.0465(4) -0.0621(3)
O8A O 0.2625(4) 0.1128(3) 0.4746(2)
C4A C 0.2517(5) -0.1726(4) 0.5742(3)
O10_2 O -0.2210(4) -0.6582(3) 0.4356(2)
O7A O -0.1600(4) 0.1596(3) 0.6500(2)
O3A O -0.0056(4) -0.4270(3) -0.1514(2)
O4A O -0.2645(4) -0.5988(3) -0.0738(2)
O5A O -0.1578(4) -0.0094(3) -0.1534(2)
O6A O 0.1660(4) 0.1622(3) -0.0666(2)
Rb1A Rb 0.33551(6) 0.35045(4) 0.72495(3)
O9A O 0.3140(5) -0.0653(3) 0.6829(2)
O10A O 0.2210(4) -0.3418(3) 0.5644(2)
Rb1A_2 Rb 0.33551(6) -0.64955(4) -0.27505(3)
H1A H -0.065(9) -0.417(7) -0.220(5)
Rb1A_3 Rb -0.66449(6) -0.64955(4) -0.27505(3)
H2A H -0.15(1) 0.045(8) -0.233(6)
Rb1A_4 Rb 0.33551(6) 0.35045(4) -0.27505(3)
O1A O 0.7262(4) 0.5674(3) 0.6448(2)
O2A O 0.4403(4) 0.7539(4) 0.8708(2)
O3A_2 O -0.0056(4) 0.5730(3) 0.8486(2)
O4A_2 O 0.7355(4) 0.4012(3) 0.9262(2)
O6A_2 O 0.1660(4) 0.1622(3) 0.9334(2)
O10A_2 O 0.2210(4) 0.6582(3) 0.5644(2)
H3A H 0.358(7) -0.127(5) 0.744(4)
Rb1A_5 Rb 0.33551(6) -0.64955(4) 0.72495(3)
H4A H 0.728(7) 0.688(9) 0.624(7)
H5A H 0.762(7) 0.496(5) 0.585(4)
H6A H 0.554(10) 0.803(8) 0.912(6)
H7A H 0.362(9) 0.722(7) 0.922(5)
Rb1_2 Rb 0.66449(6) -0.35045(4) 0.27505(3)
Rb1_3 Rb -0.33551(6) 0.64955(4) 0.27505(3)
H1A_2 H -0.065(9) 0.583(7) 0.780(5)
loop_
_geom_bond_atom_site_label_1
_geom_bond_atom_site_label_2
_geom_bond_site_symmetry_1
_geom_bond_site_symmetry_2
Rb1 O1 1_555 1_555
O1 H4 1_555 1_555
O2 Rb1 1_555 1_555
O3 Rb1 1_555 1_555
O4 C1 1_555 1_555
O5 C2 1_555 1_555
O6 Rb1 1_555 1_555
O7 Rb1 1_555 1_555
O8 Rb1 1_555 1_555
O9 Rb1 1_555 1_555
O10 C4 1_555 1_555
C1 O3 1_555 1_555
C2 O6 1_555 1_555
C3 O7 1_555 1_555
C4 O9 1_555 1_555
H1 O3 1_555 1_555
H2 O5 1_555 1_555
H3 O9 1_555 1_555
H5 O1 1_555 1_555
H6 O2 1_555 1_555
H7 O2 1_555 1_555
C3A O8 1_555 1_555
O4_2 Rb1 1_555 1_555
C1A C1 1_555 1_555
C2A C2 1_555 1_555
O8A C3 1_555 1_555
C4A C3 1_555 1_555
O10_2 Rb1 1_555 1_555
O7A C3A 1_555 1_555
O3A C1A 1_555 1_555
O4A C1A 1_555 1_555
O5A C2A 1_555 1_555
O6A C2A 1_555 1_555
Rb1A O8A 1_555 1_555
O9A C4A 1_555 1_555
O10A C4A 1_555 1_555
Rb1A_2 O3A 1_555 1_555
H1A O3A 1_555 1_555
Rb1A_3 O4A 1_555 1_555
H2A O5A 1_555 1_555
Rb1A_4 O6A 1_555 1_555
O1A Rb1A 1_555 1_555
O2A Rb1A 1_555 1_555
O3A_2 Rb1A 1_555 1_555
O4A_2 Rb1A 1_555 1_555
O6A_2 Rb1A 1_555 1_555
O10A_2 Rb1A 1_555 1_555
H3A O9A 1_555 1_555
Rb1A_5 O10A 1_555 1_555
H4A O1A 1_555 1_555
H5A O1A 1_555 1_555
H6A O2A 1_555 1_555
H7A O2A 1_555 1_555
Rb1_2 O4 1_555 1_555
Rb1_3 O10 1_555 1_555
H1A_2 O3A_2 1_555 1_555
C4 C3A 1_555 1_555
O7A Rb1A 1_555 1_555
Rb1A O9A 1_555 1_555

#END
