
#######################################################################
#
#                 Cambridge Crystallographic Data Centre
#                                CCDC 
#
#######################################################################
#
# If this CIF has been generated from an entry in the Cambridge 
# Structural Database, then it will include bibliographic, chemical, 
# crystal, experimental, refinement or atomic coordinate data resulting 
# from the CCDC's data processing and validation procedures.
#
#######################################################################

data_QQQDHD01
_symmetry_cell_setting           orthorhombic
_symmetry_space_group_name_H-M   'P b c 21'
_symmetry_Int_Tables_number      29
_space_group_name_Hall           'P 2c -2b'
loop_
_symmetry_equiv_pos_site_id
_symmetry_equiv_pos_as_xyz
1 x,y,z
2 -x,1/2+y,z
3 x,1/2-y,1/2+z
4 -x,-y,1/2+z
_cell_length_a                   3.54807(5)
_cell_length_b                   10.81599(16)
_cell_length_c                   18.9943(2)
_cell_angle_alpha                90
_cell_angle_beta                 90
_cell_angle_gamma                90
_cell_volume                     728.923
loop_
_atom_site_label
_atom_site_type_symbol
_atom_site_fract_x
_atom_site_fract_y
_atom_site_fract_z
C1 C -0.147(4) -0.0979(19) -0.0964(18)
C2 C -0.334 -0.0092 -0.0548
C3 C -0.434 -0.0373 0.0152
C4 C -0.346 -0.1541 0.0437
C5 C -0.159 -0.2429 0.0021
C6 C -0.059 -0.2148 -0.0679
H1 H -0.394 0.0714 -0.0744
H2 H -0.563 0.0239 0.0439
H3 H -0.098 -0.3235 0.0217
H4 H 0.070 -0.2760 -0.0966
C7 C -0.058(7) -0.0783(19) -0.1727(18)
C8 C -0.419(7) -0.175(2) 0.1208(17)
O1 O -0.024(4) 0.032(2) -0.1976(19)
O2 O -0.038(4) -0.168(2) -0.2133(19)
O3 O -0.484(4) -0.286(2) 0.1426(19)
O4 O -0.503(5) -0.083(2) 0.1574(18)
Na1 Na -0.014(4) -0.071(3) -0.3228(3)
Na2 Na -0.479(2) -0.319(3) -0.227470
O3B O -0.484(4) -0.214(2) -0.3574(19)
Na1C Na -0.986(4) 0.071(3) 0.1772(3)
O4C O -0.497(5) 0.083(2) -0.3426(18)
O4B O -0.503(5) -0.417(2) -0.3426(18)
Na1B Na -0.014(4) -0.429(3) 0.1772(3)
Na2B Na -0.479(2) -0.181(3) 0.272530
loop_
_geom_bond_atom_site_label_1
_geom_bond_atom_site_label_2
_geom_bond_site_symmetry_1
_geom_bond_site_symmetry_2
C1 C2 1_555 1_555
C2 C3 1_555 1_555
C3 C4 1_555 1_555
C4 C5 1_555 1_555
C5 C6 1_555 1_555
C6 C1 1_555 1_555
H1 C2 1_555 1_555
H2 C3 1_555 1_555
H3 C5 1_555 1_555
H4 C6 1_555 1_555
C7 C1 1_555 1_555
C8 C4 1_555 1_555
O1 C7 1_555 1_555
O2 C7 1_555 1_555
O3 C8 1_555 1_555
O4 C8 1_555 1_555
Na1 O2 1_555 1_555
Na2 O2 1_555 1_555
O3B Na1 1_555 1_555
Na1C O4 1_555 1_555
O4C Na1 1_555 1_555
O4B Na2 1_555 1_555
Na1B O3 1_555 1_555
Na2B O4 1_555 1_555

#END
