
#######################################################################
#
#                 Cambridge Crystallographic Data Centre
#                                CCDC 
#
#######################################################################
#
# If this CIF has been generated from an entry in the Cambridge 
# Structural Database, then it will include bibliographic, chemical, 
# crystal, experimental, refinement or atomic coordinate data resulting 
# from the CCDC's data processing and validation procedures.
#
#######################################################################

data_QQQDSD03
_symmetry_cell_setting           triclinic
_symmetry_space_group_name_H-M   'P -1'
_symmetry_Int_Tables_number      2
_space_group_name_Hall           '-P 1'
loop_
_symmetry_equiv_pos_site_id
_symmetry_equiv_pos_as_xyz
1 x,y,z
2 -x,-y,-z
_cell_length_a                   6.2969(10)
_cell_length_b                   7.206(3)
_cell_length_c                   10.641(2)
_cell_angle_alpha                94.549(2)
_cell_angle_beta                 100.3990(10)
_cell_angle_gamma                97.676(2)
_cell_volume                     467.997
loop_
_atom_site_label
_atom_site_type_symbol
_atom_site_fract_x
_atom_site_fract_y
_atom_site_fract_z
Rb1 Rb 0.16455(4) 0.14947(3) 0.77505(2)
O1 O 0.2798(4) -0.1573(3) 0.93548(17)
O2 O 0.1866(4) -0.4352(3) 0.81707(17)
O3 O 0.2378(4) -0.6133(3) 1.02524(18)
O4 O 0.3390(4) -0.3395(3) 1.15008(17)
O5 O 0.3341(3) 0.3379(3) 0.56691(17)
O6 O 0.6571(3) 0.5100(3) 0.65341(18)
O7 O 0.7650(3) 0.0993(3) 0.57384(18)
O8 O 0.5047(3) -0.0730(3) 0.65165(18)
O9 O -0.2262(3) -0.0670(3) 0.85499(17)
O10 O 0.0595(3) -0.2534(3) 0.62947(19)
C1 C 0.2491(4) -0.3273(3) 0.9256(2)
C2 C 0.2766(4) -0.4406(3) 1.0439(2)
C3 C 0.4907(4) 0.4534(3) 0.5623(2)
C4 C 0.5837(4) 0.0110(3) 0.5632(2)
H1 H -0.263(7) -0.002(5) 0.915(3)
H2 H -0.239(6) -0.174(3) 0.883(4)
H3 H 0.609(9) -0.067(8) 0.729(6)
H4 H 0.127(9) -0.368(7) 0.747(6)
H5 H -0.064(4) -0.311(7) 0.589(5)
H6 H 0.135(7) -0.229(6) 0.573(4)
H7 H 0.634(11) 0.459(9) 0.730(5)
Rb1A Rb 0.83545(4) -0.14947(3) 1.22495(2)
Rb1_2 Rb 0.16455(4) -0.85053(3) 0.77505(2)
Rb1_3 Rb 1.16455(4) 0.14947(3) 0.77505(2)
Rb1A_2 Rb 0.83545(4) 0.85053(3) 0.22495(2)
Rb1A_3 Rb -0.16455(4) -0.14947(3) 0.22495(2)
Rb1A_4 Rb 0.83545(4) -0.14947(3) 0.22495(2)
Rb1A_5 Rb 0.83545(4) 0.85053(3) 1.22495(2)
O1A O 0.7202(4) 0.1573(3) 1.06452(17)
O2A O 0.8134(4) 0.4352(3) 1.18293(17)
O2_2 O 0.1866(4) 0.5648(3) 0.81707(17)
O2A_2 O 0.8134(4) -0.5648(3) 1.18293(17)
O3A O 0.7622(4) 0.6133(3) 0.97476(18)
O3_2 O 0.2378(4) 0.3867(3) 1.02524(18)
O3A_2 O 0.7622(4) -0.3867(3) 0.97476(18)
O4A O 0.6610(4) 0.3395(3) 0.84992(17)
O5A O 0.6659(3) 0.6621(3) 0.43309(17)
O5A_2 O 0.6659(3) -0.3379(3) 1.43309(17)
O6A O 0.3429(3) 0.4900(3) 0.34659(18)
O7A O 0.2350(3) -0.0993(3) 0.42616(18)
O7_2 O -0.2350(3) 0.0993(3) 0.57384(18)
O7A_2 O 1.2350(3) -0.0993(3) 1.42616(18)
O8A O 0.4953(3) 0.0730(3) 0.34835(18)
O8A_2 O 0.4953(3) 0.0730(3) 1.34835(18)
O9A O 1.2262(3) 0.0670(3) 1.14501(17)
O10A O 0.9405(3) 0.2534(3) 1.37053(19)
C1A C 0.7509(4) 0.3273(3) 1.0744(2)
C2A C 0.7234(4) 0.4406(3) 0.9561(2)
C3A C 0.5093(4) 0.5466(3) 0.4377(2)
C4A C 0.4163(4) -0.0110(3) 0.4368(2)
H1A H 1.263(7) 0.002(5) 1.085(3)
H2A H 1.239(6) 0.174(3) 1.117(4)
H3A H 0.391(9) 0.067(8) 0.271(6)
H3A_2 H 0.391(9) 0.067(8) 1.271(6)
H4A H 0.873(9) 0.368(7) 1.253(6)
H4_2 H 0.127(9) 0.632(7) 0.747(6)
H4A_2 H 0.873(9) -0.632(7) 1.253(6)
H5A H 1.064(4) 0.311(7) 1.411(5)
H6A H 0.865(7) 0.229(6) 1.427(4)
H7A H 0.366(11) 0.541(9) 0.270(5)
loop_
_geom_bond_atom_site_label_1
_geom_bond_atom_site_label_2
_geom_bond_site_symmetry_1
_geom_bond_site_symmetry_2
Rb1 O1 1_555 1_555
O1 C1 1_555 1_555
O2 C1 1_555 1_555
O3 C2 1_555 1_555
O4 C2 1_555 1_555
O5 Rb1 1_555 1_555
O6 C3 1_555 1_555
O7 C4 1_555 1_555
O8 Rb1 1_555 1_555
O9 Rb1 1_555 1_555
O10 Rb1 1_555 1_555
C1 C2 1_555 1_555
C3 O5 1_555 1_555
C4 O8 1_555 1_555
H1 O9 1_555 1_555
H2 O9 1_555 1_555
H3 O8 1_555 1_555
H4 O2 1_555 1_555
H5 O10 1_555 1_555
H6 O10 1_555 1_555
H7 O6 1_555 1_555
Rb1A O4 1_555 1_555
Rb1_2 O2 1_555 1_555
Rb1_3 O7 1_555 1_555
Rb1A_2 O5A 1_555 1_555
Rb1A_3 O7A 1_555 1_555
Rb1A_4 O8A 1_555 1_555
Rb1A_5 O2A 1_555 1_555
O1A Rb1A 1_555 1_555
O2A C1A 1_555 1_555
O2_2 Rb1 1_555 1_555
O2A_2 Rb1A 1_555 1_555
O3A Rb1A_5 1_555 1_555
O3_2 Rb1 1_555 1_555
O3A_2 Rb1A 1_555 1_555
O4A Rb1 1_555 1_555
O5A C3A 1_555 1_555
O5A_2 Rb1A 1_555 1_555
O6A C3A 1_555 1_555
O7A C4A 1_555 1_555
O7_2 Rb1 1_555 1_555
O7A_2 Rb1A 1_555 1_555
O8A C4A 1_555 1_555
O8A_2 Rb1A 1_555 1_555
O9A Rb1A 1_555 1_555
O10A Rb1A 1_555 1_555
C1A O1A 1_555 1_555
C2A O3A 1_555 1_555
C3A C3 1_555 1_555
C4A C4 1_555 1_555
H1A O9A 1_555 1_555
H2A O9A 1_555 1_555
H3A O8A 1_555 1_555
H3A_2 O8A_2 1_555 1_555
H4A O2A 1_555 1_555
H4_2 O2_2 1_555 1_555
H4A_2 O2A_2 1_555 1_555
H5A O10A 1_555 1_555
H6A O10A 1_555 1_555
H7A O6A 1_555 1_555
O3 Rb1_2 1_555 1_555
O4A C2A 1_555 1_555
C1A C2A 1_555 1_555

#END
