
#######################################################################
#
#                 Cambridge Crystallographic Data Centre
#                                CCDC 
#
#######################################################################
#
# If this CIF has been generated from an entry in the Cambridge 
# Structural Database, then it will include bibliographic, chemical, 
# crystal, experimental, refinement or atomic coordinate data resulting 
# from the CCDC's data processing and validation procedures.
#
#######################################################################

data_QQQDMP01
_symmetry_cell_setting           monoclinic
_symmetry_space_group_name_H-M   'C 2/c'
_symmetry_Int_Tables_number      15
_space_group_name_Hall           '-C 2yn'
loop_
_symmetry_equiv_pos_site_id
_symmetry_equiv_pos_as_xyz
1 x,y,z
2 1/2+x,1/2+y,z
3 -x,y,1/2-z
4 1/2-x,1/2+y,1/2-z
5 -x,-y,-z
6 1/2-x,1/2-y,-z
7 x,-y,1/2+z
8 1/2+x,1/2-y,1/2+z
_cell_length_a                   10.064(4)
_cell_length_b                   10.269(4)
_cell_length_c                   12.615(2)
_cell_angle_alpha                90
_cell_angle_beta                 104.01(4)
_cell_angle_gamma                90
_cell_volume                     1264.94
loop_
_atom_site_label
_atom_site_type_symbol
_atom_site_fract_x
_atom_site_fract_y
_atom_site_fract_z
O5 O -0.1384(4) 0.1375(4) -0.0615(4)
Co1 Co 0.5000 0.0000 0.0000
N1 N 0.3464(4) 0.1530(4) -0.0028(4)
O6 O 0.6306(4) 0.1034(4) 0.1275(3)
O7 O 0.4144(4) -0.0965(4) 0.1085(3)
C1 C 0.3211(5) 0.1924(6) 0.0911(5)
C2 C 0.2746(5) 0.2107(5) -0.0953(4)
C2E C 0.2254(5) 0.2893(5) 0.0953(4)
N1E N 0.1536(4) 0.3470(4) 0.0028(4)
C1E C 0.1789(5) 0.3076(6) -0.0911(5)
O6D O 0.3694(4) -0.1034(4) -0.1275(3)
O7D O 0.5856(4) 0.0965(4) -0.1085(3)
N1D N 0.6536(4) -0.1530(4) 0.0028(4)
Co1A Co 0.0000 0.5000 0.0000
S1 S 0.0000 0.0776(1) 0.2500
O1 O 0.0000 0.2224(7) 0.2500
O2 O 0.1003(11) 0.0331(13) 0.3381(10)
O3 O 0.0127(13) 0.0388(15) 0.1410(9)
O4 O 0.1360(9) 0.0193(10) 0.2377(8)
O3B O -0.0127(13) 0.0388(15) 0.3590(9)
O2B O -0.1003(11) 0.0331(13) 0.1619(10)
O4B O -0.1360(9) 0.0193(10) 0.2623(8)
loop_
_geom_bond_atom_site_label_1
_geom_bond_atom_site_label_2
_geom_bond_site_symmetry_1
_geom_bond_site_symmetry_2
S1 O1 1_555 1_555
O2 S1 1_555 1_555
O3 S1 1_555 1_555
O4 S1 1_555 1_555
Co1 N1 1_555 1_555
N1 C1 1_555 1_555
O6 Co1 1_555 1_555
O7 Co1 1_555 1_555
C1 C2E 1_555 1_555
C2 N1 1_555 1_555
O3B S1 1_555 1_555
O2B S1 1_555 1_555
O4B S1 1_555 1_555
C2E N1E 1_555 1_555
N1E C1E 1_555 1_555
C1E C2 1_555 1_555
O6D Co1 1_555 1_555
O7D Co1 1_555 1_555
N1D Co1 1_555 1_555
Co1A N1E 1_555 1_555
O2 O4 1_555 1_555
O2 O3B 1_555 1_555
O3 O4 1_555 1_555
O3 O2B 1_555 1_555
O3B O4B 1_555 1_555
O2B O4B 1_555 1_555

#END
