
#######################################################################
#
#                 Cambridge Crystallographic Data Centre
#                                CCDC 
#
#######################################################################
#
# If this CIF has been generated from an entry in the Cambridge 
# Structural Database, then it will include bibliographic, chemical, 
# crystal, experimental, refinement or atomic coordinate data resulting 
# from the CCDC's data processing and validation procedures.
#
#######################################################################

data_QQQFJS01
_symmetry_cell_setting           triclinic
_symmetry_space_group_name_H-M   'P -1'
_symmetry_Int_Tables_number      2
_space_group_name_Hall           '-P 1'
loop_
_symmetry_equiv_pos_site_id
_symmetry_equiv_pos_as_xyz
1 x,y,z
2 -x,-y,-z
_cell_length_a                   6.289(3)
_cell_length_b                   6.660(3)
_cell_length_c                   9.628(4)
_cell_angle_alpha                75.043(6)
_cell_angle_beta                 80.778(6)
_cell_angle_gamma                81.575(6)
_cell_volume                     382.223
loop_
_atom_site_label
_atom_site_type_symbol
_atom_site_fract_x
_atom_site_fract_y
_atom_site_fract_z
Tm1 Tm 0.30208(3) 0.30847(3) 0.307083(18)
O1 O 0.1512(5) 0.1653(5) 0.5484(3)
O2 O -0.0620(6) -0.0706(5) 0.6874(3)
C1 C 0.0250(7) 0.0273(7) 0.5692(5)
O3 O 0.5733(5) 0.2581(5) 0.4564(3)
O4 O 0.7192(5) 0.4081(5) 0.5953(4)
C2 C 0.5850(8) 0.4037(6) 0.5142(5)
O5 O 0.5850(6) 0.4962(5) 0.1638(3)
O6 O 0.7186(6) 0.6475(5) -0.0626(3)
C3 C 0.5895(8) 0.5426(7) 0.0290(5)
O7 O 0.5439(6) 0.0324(5) 0.2464(4)
H1 H 0.6213 -0.0431 0.3092
H2 H 0.6165 0.0533 0.1626
O8 O -0.0185(6) 0.5348(6) 0.2654(4)
H3 H -0.0415 0.6464 0.2946
H4 H -0.1229 0.5236 0.2229
Tm1A Tm -0.30208(3) -0.30847(3) 0.692917(18)
Tm1A_2 Tm 0.69792(3) 0.69153(3) 0.692917(18)
Tm1A_3 Tm 0.69792(3) 0.69153(3) -0.307083(18)
O1A O -0.1512(5) -0.1653(5) 0.4516(3)
O2A O 0.0620(6) 0.0706(5) 0.3126(3)
C1A C -0.0250(7) -0.0273(7) 0.4308(5)
O3A O 0.4267(5) 0.7419(5) 0.5436(3)
O3A_2 O -0.5733(5) -0.2581(5) 0.5436(3)
O4A O 0.2808(5) 0.5919(5) 0.4047(4)
O4_2 O -0.2808(5) -0.5919(5) 0.5953(4)
C2A C 0.4150(8) 0.5963(6) 0.4858(5)
O5A O 0.4150(6) 0.5038(5) -0.1638(3)
O5A_2 O -0.5850(6) -0.4962(5) 0.8362(3)
O6A O 0.2814(6) 0.3525(5) 0.0626(3)
O6_2 O -0.2814(6) -0.3525(5) 0.9374(3)
C3A C 0.4105(8) 0.4574(7) -0.0290(5)
O7A O -0.5439(6) -0.0324(5) 0.7536(4)
H1A H -0.6213 0.0431 0.6908
H2A H -0.6165 -0.0533 0.8374
O8A O 0.0185(6) -0.5348(6) 0.7346(4)
H3A H 0.0415 -0.6464 0.7054
H4A H 0.1229 -0.5236 0.7771
O9 O 0.7727(11) 0.0842(9) -0.0234(6)
H5 H 0.7269 0.0575 -0.0942
H6 H 0.8630 0.1740 -0.0535
loop_
_geom_bond_atom_site_label_1
_geom_bond_atom_site_label_2
_geom_bond_site_symmetry_1
_geom_bond_site_symmetry_2
Tm1 O1 1_555 1_555
O1 C1 1_555 1_555
O2 C1 1_555 1_555
C1 C1A 1_555 1_555
O3 Tm1 1_555 1_555
O4 C2 1_555 1_555
C2 O3 1_555 1_555
O5 Tm1 1_555 1_555
O6 C3 1_555 1_555
C3 O5 1_555 1_555
O7 Tm1 1_555 1_555
H1 O7 1_555 1_555
H2 O7 1_555 1_555
O8 Tm1 1_555 1_555
H3 O8 1_555 1_555
H4 O8 1_555 1_555
O9 H5 1_555 1_555
H6 O9 1_555 1_555
Tm1A O2 1_555 1_555
Tm1A_2 O4 1_555 1_555
Tm1A_3 O6 1_555 1_555
O1A Tm1A 1_555 1_555
O2A Tm1 1_555 1_555
C1A O1A 1_555 1_555
O3A Tm1A_2 1_555 1_555
O3A_2 Tm1A 1_555 1_555
O4A Tm1 1_555 1_555
O4_2 Tm1A 1_555 1_555
C2A C2 1_555 1_555
O5A Tm1A_3 1_555 1_555
O5A_2 Tm1A 1_555 1_555
O6A Tm1 1_555 1_555
O6_2 Tm1A 1_555 1_555
C3A C3 1_555 1_555
O7A Tm1A 1_555 1_555
H1A O7A 1_555 1_555
H2A O7A 1_555 1_555
O8A Tm1A 1_555 1_555
H3A O8A 1_555 1_555
H4A O8A 1_555 1_555
O2A C1A 1_555 1_555
O3A C2A 1_555 1_555
O4A C2A 1_555 1_555
O5A C3A 1_555 1_555
O6A C3A 1_555 1_555

#END
