
#######################################################################
#
#                 Cambridge Crystallographic Data Centre
#                                CCDC 
#
#######################################################################
#
# If this CIF has been generated from an entry in the Cambridge 
# Structural Database, then it will include bibliographic, chemical, 
# crystal, experimental, refinement or atomic coordinate data resulting 
# from the CCDC's data processing and validation procedures.
#
#######################################################################

data_QQQFUY01
_symmetry_cell_setting           orthorhombic
_symmetry_space_group_name_H-M   'P b c n'
_symmetry_Int_Tables_number      60
_space_group_name_Hall           '-P 2n 2ab'
loop_
_symmetry_equiv_pos_site_id
_symmetry_equiv_pos_as_xyz
1 x,y,z
2 1/2-x,1/2-y,1/2+z
3 1/2+x,1/2-y,-z
4 -x,y,1/2-z
5 -x,-y,-z
6 1/2+x,1/2+y,1/2-z
7 1/2-x,1/2+y,z
8 x,-y,1/2+z
_cell_length_a                   18.1715(4)
_cell_length_b                   22.1453(5)
_cell_length_c                   8.2781(2)
_cell_angle_alpha                90
_cell_angle_beta                 90
_cell_angle_gamma                90
_cell_volume                     3331.22
loop_
_atom_site_label
_atom_site_type_symbol
_atom_site_fract_x
_atom_site_fract_y
_atom_site_fract_z
Fe1 Fe 0.5000 0.34852(3) 0.7500
Fe2 Fe 0.32494(2) 0.31966(2) 0.65657(5)
Fe3 Fe 0.29729(3) 0.19188(2) 0.47060(5)
O1 O 0.43948(12) 0.28396(10) 0.6036(3)
O2 O 0.40439(13) 0.21073(12) 0.4372(3)
O3 O 0.46242(13) 0.41749(11) 0.6012(3)
O4 O 0.34661(13) 0.39597(10) 0.5369(3)
O5 O 0.17912(16) 0.40541(11) 0.9541(3)
O6 O 0.22389(12) 0.35610(9) 0.7475(2)
O7 O 0.26482(12) 0.28298(10) 0.4424(2)
O8 O 0.19433(12) 0.27020(10) 0.2256(2)
O9 O 0.30499(13) 0.33040(12) 1.0519(3)
O10 O 0.39098(12) 0.34151(10) 0.8641(2)
C1 C 0.45284(18) 0.23644(15) 0.5204(4)
C2 C 0.5278(2) 0.20938(19) 0.5209(5)
H1 H 0.5248 0.1671 0.5553
H2 H 0.5594 0.2318 0.5957
H3 H 0.5487 0.2114 0.4118
C3 C 0.40296(18) 0.42914(15) 0.5337(4)
C4 C 0.3958(2) 0.48733(17) 0.4406(5)
H4 H 0.3602 0.5137 0.4947
H5 H 0.3787 0.4786 0.3308
H6 H 0.4438 0.5075 0.4358
C5 C 0.20295(19) 0.40612(15) 0.8123(4)
C6 C 0.2068(3) 0.46328(18) 0.7183(5)
H7 H 0.1625 0.4673 0.6516
H8 H 0.2504 0.4626 0.6486
H9 H 0.2100 0.4976 0.7928
C7 C 0.22070(17) 0.30324(14) 0.3379(4)
C8 C 0.19748(19) 0.36785(15) 0.3457(4)
H10 H 0.1726 0.3755 0.4488
H11 H 0.1636 0.3766 0.2565
H12 H 0.2409 0.3939 0.3369
C9 C 0.36929(18) 0.34140(15) 1.0109(4)
C10 C 0.4237(2) 0.3537(2) 1.1419(4)
H13 H 0.4301 0.3974 1.1542
H14 H 0.4710 0.3352 1.1140
H15 H 0.4057 0.3365 1.2437
Fe2C Fe 0.67506(2) 0.31966(2) 0.84343(5)
Fe2A Fe 0.17506(2) 0.18034(2) 0.15657(5)
Fe2A_2 Fe 0.17506(2) 0.18034(2) 1.15657(5)
Fe3C Fe 0.70271(3) 0.19188(2) 1.02940(5)
Fe3A Fe 0.20271(3) 0.30812(2) 0.97060(5)
Fe3A_2 Fe 0.20271(3) 0.30812(2) -0.02940(5)
Fe3B Fe 0.79729(3) 0.30812(2) 0.52940(5)
O1C O 0.56052(12) 0.28396(10) 0.8964(3)
O2C O 0.59561(13) 0.21073(12) 1.0628(3)
O3C O 0.53758(13) 0.41749(11) 0.8988(3)
O4C O 0.65339(13) 0.39597(10) 0.9631(3)
O5A O 0.32088(16) 0.09459(11) 0.4541(3)
O5B O 0.67912(16) 0.09459(11) 1.0459(3)
O6A O 0.27611(12) 0.14390(9) 0.2475(2)
O6C O 0.77611(12) 0.35610(9) 0.7525(2)
O6B O 0.72389(12) 0.14390(9) 1.2525(2)
O7A O 0.23518(12) 0.21702(10) 0.9424(2)
O7C O 0.73518(12) 0.28298(10) 1.0576(2)
O8A O 0.30567(12) 0.22980(10) 0.7256(2)
O8B O 0.69433(12) 0.22980(10) 0.7744(2)
O9C O 0.69501(13) 0.33040(12) 0.4481(3)
O9A O 0.19501(13) 0.16960(12) 0.5519(3)
O9B O 0.80499(13) 0.16960(12) 0.9481(3)
O10C O 0.60902(12) 0.34151(10) 0.6359(2)
C1C C 0.54716(18) 0.23644(15) 0.9796(4)
C2C C 0.4722(2) 0.20938(19) 0.9791(5)
H1C H 0.4752 0.1671 0.9447
H2C H 0.4406 0.2318 0.9043
H3C H 0.4513 0.2114 1.0882
C3C C 0.59704(18) 0.42914(15) 0.9663(4)
C4C C 0.6042(2) 0.48733(17) 1.0594(5)
H4C H 0.6398 0.5137 1.0053
H5C H 0.6213 0.4786 1.1692
H6C H 0.5562 0.5075 1.0642
C5A C 0.29705(19) 0.09388(15) 0.3123(4)
C6A C 0.2932(3) 0.03672(18) 0.2183(5)
H7A H 0.3375 0.0327 0.1516
H8A H 0.2496 0.0374 0.1486
H9A H 0.2900 0.0024 0.2928
C7A C 0.27930(17) 0.19676(14) 0.8379(4)
C8A C 0.30252(19) 0.13215(15) 0.8457(4)
H10A H 0.3274 0.1245 0.9488
H11A H 0.3364 0.1234 0.7565
H12A H 0.2591 0.1061 0.8369
C9C C 0.63071(18) 0.34140(15) 0.4891(4)
C10C C 0.5763(2) 0.3537(2) 0.3581(4)
H13C H 0.5699 0.3974 0.3458
H14C H 0.5290 0.3352 0.3860
H15C H 0.5943 0.3365 0.2563
loop_
_geom_bond_atom_site_label_1
_geom_bond_atom_site_label_2
_geom_bond_site_symmetry_1
_geom_bond_site_symmetry_2
Fe1 O1 1_555 1_555
Fe2 O1 1_555 1_555
Fe3 O2 1_555 1_555
O1 C1 1_555 1_555
O2 C1 1_555 1_555
O3 Fe1 1_555 1_555
O4 Fe2 1_555 1_555
O5 C5 1_555 1_555
O6 Fe2 1_555 1_555
O7 Fe2 1_555 1_555
O8 C7 1_555 1_555
O9 C9 1_555 1_555
O10 Fe1 1_555 1_555
C1 C2 1_555 1_555
C2 H1 1_555 1_555
H2 C2 1_555 1_555
H3 C2 1_555 1_555
C3 O3 1_555 1_555
C4 C3 1_555 1_555
H4 C4 1_555 1_555
H5 C4 1_555 1_555
H6 C4 1_555 1_555
C5 O6 1_555 1_555
C6 C5 1_555 1_555
H7 C6 1_555 1_555
H8 C6 1_555 1_555
H9 C6 1_555 1_555
C7 O7 1_555 1_555
C8 C7 1_555 1_555
H10 C8 1_555 1_555
H11 C8 1_555 1_555
H12 C8 1_555 1_555
C9 O10 1_555 1_555
C10 C9 1_555 1_555
H13 C10 1_555 1_555
H14 C10 1_555 1_555
H15 C10 1_555 1_555
Fe2C O1C 1_555 1_555
Fe2A O8 1_555 1_555
Fe2A_2 O7A 1_555 1_555
Fe3C O2C 1_555 1_555
Fe3A O5 1_555 1_555
Fe3A_2 O8 1_555 1_555
Fe3B O6C 1_555 1_555
O1C Fe1 1_555 1_555
O2C C1C 1_555 1_555
O3C Fe1 1_555 1_555
O4C Fe2C 1_555 1_555
O5A Fe3 1_555 1_555
O5B Fe3C 1_555 1_555
O6A Fe3 1_555 1_555
O6C Fe2C 1_555 1_555
O6B Fe3C 1_555 1_555
O7A Fe3A 1_555 1_555
O7C Fe2C 1_555 1_555
O8A Fe2 1_555 1_555
O8B Fe2C 1_555 1_555
O9C Fe3B 1_555 1_555
O9A Fe3 1_555 1_555
O9B Fe3C 1_555 1_555
O10C Fe1 1_555 1_555
C1C O1C 1_555 1_555
C2C C1C 1_555 1_555
H1C C2C 1_555 1_555
H2C C2C 1_555 1_555
H3C C2C 1_555 1_555
C3C O3C 1_555 1_555
C4C C3C 1_555 1_555
H4C C4C 1_555 1_555
H5C C4C 1_555 1_555
H6C C4C 1_555 1_555
C5A O5A 1_555 1_555
C6A C5A 1_555 1_555
H7A C6A 1_555 1_555
H8A C6A 1_555 1_555
H9A C6A 1_555 1_555
C7A O7A 1_555 1_555
C8A C7A 1_555 1_555
H10A C8A 1_555 1_555
H11A C8A 1_555 1_555
H12A C8A 1_555 1_555
C9C O9C 1_555 1_555
C10C C9C 1_555 1_555
H13C C10C 1_555 1_555
H14C C10C 1_555 1_555
H15C C10C 1_555 1_555
Fe2 O10 1_555 1_555
Fe3 O7 1_555 1_555
Fe3 O8A 1_555 1_555
O4 C3 1_555 1_555
O6 Fe3A 1_555 1_555
O9 Fe3A 1_555 1_555
Fe2C O10C 1_555 1_555
Fe2A O6A 1_555 1_555
Fe3C O7C 1_555 1_555
Fe3C O8B 1_555 1_555
O4C C3C 1_555 1_555
O6A C5A 1_555 1_555
O8A C7A 1_555 1_555
O10C C9C 1_555 1_555

#END
