
#######################################################################
#
#                 Cambridge Crystallographic Data Centre
#                                CCDC 
#
#######################################################################
#
# If this CIF has been generated from an entry in the Cambridge 
# Structural Database, then it will include bibliographic, chemical, 
# crystal, experimental, refinement or atomic coordinate data resulting 
# from the CCDC's data processing and validation procedures.
#
#######################################################################

data_QQQFUV02
_symmetry_cell_setting           orthorhombic
_symmetry_space_group_name_H-M   'P 21 21 21'
_symmetry_Int_Tables_number      19
_space_group_name_Hall           'P 2ac 2ab'
loop_
_symmetry_equiv_pos_site_id
_symmetry_equiv_pos_as_xyz
1 x,y,z
2 1/2-x,-y,1/2+z
3 1/2+x,1/2-y,-z
4 -x,1/2+y,1/2-z
_cell_length_a                   11.3001(9)
_cell_length_b                   11.5329(9)
_cell_length_c                   15.272(1)
_cell_angle_alpha                90
_cell_angle_beta                 90
_cell_angle_gamma                90
_cell_volume                     1990.29
loop_
_atom_site_label
_atom_site_type_symbol
_atom_site_fract_x
_atom_site_fract_y
_atom_site_fract_z
Mn1 Mn 0.04188(8) 0.19958(8) 0.87756(6)
Mn2 Mn -0.19871(9) 0.24376(9) 1.04970(7)
Mn3 Mn 0.01407(9) 0.42697(8) 0.69080(7)
O1 O -0.0472(4) 0.3664(4) 0.8175(3)
O2 O -0.1452(4) 0.2774(4) 0.9176(3)
O3 O 0.1136(4) 0.2879(4) 0.9931(3)
O4 O -0.0342(4) 0.3140(5) 1.0877(3)
O5 O 0.2116(4) 0.2869(4) 0.8254(3)
O6 O 0.1965(4) 0.3987(4) 0.7085(4)
O7 O -0.0474(4) 0.0341(4) 0.9273(3)
O8 O -0.1328(5) 0.0722(4) 1.0548(3)
O9 O 0.2038(4) 0.0914(4) 0.9211(4)
O10 O -0.1655(5) 0.4257(5) 0.6476(4)
O11 O -0.0109(5) 0.1094(4) 0.7597(3)
O12 O 0.0151(6) 0.2432(4) 0.6575(3)
C1 C -0.1396(6) 0.3578(6) 0.8623(4)
C2 C -0.2420(8) 0.4371(10) 0.8488(6)
C3 C 0.0704(6) 0.3296(6) 1.0635(4)
C4 C 0.1450(7) 0.4068(9) 1.1175(6)
C5 C 0.2507(6) 0.3303(6) 0.7551(5)
C6 C 0.3737(9) 0.2968(10) 0.7277(6)
C7 C -0.0807(6) 0.0068(6) 1.0033(5)
C8 C -0.0540(11) -0.1144(8) 1.0339(6)
C9 C 0.2281(6) -0.0114(6) 0.8992(5)
C10 C 0.3376(9) -0.0655(8) 0.9361(8)
C11 C -0.0322(7) 0.1530(5) 0.6840(4)
C12 C -0.1148(9) 0.0888(7) 0.6251(6)
H1 H -0.214 0.509 0.825
H2 H -0.297 0.402 0.809
H3 H -0.280 0.451 0.904
H4 H 0.175 0.364 1.167
H5 H 0.210 0.435 1.083
H6 H 0.098 0.471 1.138
H7 H 0.385 0.215 0.736
H8 H 0.385 0.315 0.667
H9 H 0.430 0.339 0.762
H10 H -0.096 -0.129 1.088
H11 H -0.079 -0.169 0.990
H12 H 0.029 -0.122 1.043
H13 H 0.317 -0.137 0.965
H14 H 0.393 -0.080 0.890
H15 H 0.373 -0.014 0.978
H16 H -0.194 0.113 0.636
H17 H -0.094 0.104 0.565
H18 H -0.108 0.007 0.636
O3B O -0.3864(4) 0.2121(4) 1.0069(3)
O5B O -0.2884(4) 0.2131(4) 1.1746(3)
O9B O -0.2962(4) 0.4086(4) 1.0789(4)
O7C O 0.0474(4) 0.5341(4) 0.5727(3)
O11C O 0.0109(5) 0.6094(4) 0.7403(3)
Mn2B Mn 0.30129(9) 0.25624(9) 0.95030(7)
Mn3C Mn -0.01407(9) -0.07303(8) 0.80920(7)
O10C O 0.1655(5) -0.0743(5) 0.8524(4)
loop_
_geom_bond_atom_site_label_1
_geom_bond_atom_site_label_2
_geom_bond_site_symmetry_1
_geom_bond_site_symmetry_2
Mn1 O1 1_555 1_555
Mn2 O2 1_555 1_555
Mn3 O1 1_555 1_555
O1 C1 1_555 1_555
O2 Mn1 1_555 1_555
O3 Mn1 1_555 1_555
O4 Mn2 1_555 1_555
O5 Mn1 1_555 1_555
O6 Mn3 1_555 1_555
O7 Mn1 1_555 1_555
O8 Mn2 1_555 1_555
O9 Mn1 1_555 1_555
O10 Mn3 1_555 1_555
O11 Mn1 1_555 1_555
O12 Mn3 1_555 1_555
C1 O2 1_555 1_555
C2 C1 1_555 1_555
C3 O3 1_555 1_555
C4 C3 1_555 1_555
C5 O5 1_555 1_555
C6 C5 1_555 1_555
C7 O7 1_555 1_555
C8 C7 1_555 1_555
C9 O9 1_555 1_555
C10 C9 1_555 1_555
C11 O11 1_555 1_555
C12 C11 1_555 1_555
H1 C2 1_555 1_555
H2 C2 1_555 1_555
H3 C2 1_555 1_555
H4 C4 1_555 1_555
H5 C4 1_555 1_555
H6 C4 1_555 1_555
H7 C6 1_555 1_555
H8 C6 1_555 1_555
H9 C6 1_555 1_555
H10 C8 1_555 1_555
H11 C8 1_555 1_555
H12 C8 1_555 1_555
H13 C10 1_555 1_555
H14 C10 1_555 1_555
H15 C10 1_555 1_555
H16 C12 1_555 1_555
H17 C12 1_555 1_555
H18 C12 1_555 1_555
O3B Mn2 1_555 1_555
O5B Mn2 1_555 1_555
O9B Mn2 1_555 1_555
O7C Mn3 1_555 1_555
O11C Mn3 1_555 1_555
Mn2B O3 1_555 1_555
Mn3C O7 1_555 1_555
O10C C9 1_555 1_555
O4 C3 1_555 1_555
O5 Mn2B 1_555 1_555
O6 C5 1_555 1_555
O8 C7 1_555 1_555
O9 Mn2B 1_555 1_555
O11 Mn3C 1_555 1_555
O12 C11 1_555 1_555
Mn3C O10C 1_555 1_555

#END
