
#######################################################################
#
#                 Cambridge Crystallographic Data Centre
#                                CCDC 
#
#######################################################################
#
# If this CIF has been generated from an entry in the Cambridge 
# Structural Database, then it will include bibliographic, chemical, 
# crystal, experimental, refinement or atomic coordinate data resulting 
# from the CCDC's data processing and validation procedures.
#
#######################################################################

data_QQQGOD01
_symmetry_cell_setting           monoclinic
_symmetry_space_group_name_H-M   'C 2/m'
_symmetry_Int_Tables_number      12
_space_group_name_Hall           '-C 2y'
loop_
_symmetry_equiv_pos_site_id
_symmetry_equiv_pos_as_xyz
1 x,y,z
2 -x,y,-z
3 1/2+x,1/2+y,z
4 1/2-x,1/2+y,-z
5 -x,-y,-z
6 x,-y,z
7 1/2-x,1/2-y,-z
8 1/2+x,1/2-y,z
_cell_length_a                   16.279(4)
_cell_length_b                   8.382(3)
_cell_length_c                   8.297(3)
_cell_angle_alpha                90
_cell_angle_beta                 93.13(3)
_cell_angle_gamma                90
_cell_volume                     1130.44
loop_
_atom_site_label
_atom_site_type_symbol
_atom_site_fract_x
_atom_site_fract_y
_atom_site_fract_z
Rb1 Rb 0.5000 -0.5000 0.0000
Rb2 Rb 0.5000 -0.5000 -0.5000
Cu1 Cu 0.5000 0.0000 0.0000
O1 O 0.5542(2) -0.2702(3) -0.2575(3)
O2 O 0.3674(2) -0.2696(4) -0.1213(4)
O3 O 0.3357(3) -0.5000 -0.3551(6)
N1 N 0.5481(2) 0.0000 -0.2162(5)
N2 N 0.3859(2) 0.0000 -0.1002(5)
C1 C 0.5698(2) -0.1331(5) -0.2960(4)
C2 C 0.6165(2) -0.0902(5) -0.4449(4)
C3 C 0.3411(2) -0.1333(5) -0.1355(4)
C4 C 0.2551(2) -0.0895(6) -0.1977(5)
H1 H 0.6716 -0.1310 -0.4359
H2 H 0.5896 -0.1310 -0.5405
H3 H 0.2457 -0.1284 -0.3097
H4 H 0.2144 -0.1284 -0.1364
C1E C 0.5698(2) 0.1331(5) -0.2960(4)
O1E O 0.5542(2) 0.2702(3) -0.2575(3)
C2E C 0.6165(2) 0.0902(5) -0.4449(4)
H1E H 0.6716 0.1310 -0.4359
H2E H 0.5896 0.1310 -0.5405
C3E C 0.3411(2) 0.1333(5) -0.1355(4)
O2E O 0.3674(2) 0.2696(4) -0.1213(4)
C4E C 0.2551(2) 0.0895(6) -0.1977(5)
H3E H 0.2457 0.1284 -0.3097
H4E H 0.2144 0.1284 -0.1364
O1A O 0.4458(2) -0.2702(3) 0.2575(3)
N1A N 0.4519(2) 0.0000 0.2162(5)
C1A C 0.4302(2) -0.1331(5) 0.2960(4)
C2A C 0.3835(2) -0.0902(5) 0.4449(4)
H1A H 0.3284 -0.1310 0.4359
H2A H 0.4104 -0.1310 0.5405
C1D C 0.4302(2) 0.1331(5) 0.2960(4)
O1D O 0.4458(2) 0.2702(3) 0.2575(3)
C2D C 0.3835(2) 0.0902(5) 0.4449(4)
H1D H 0.3284 0.1310 0.4359
H2D H 0.4104 0.1310 0.5405
O2A O 0.6326(2) -0.2696(4) 0.1213(4)
N2A N 0.6141(2) 0.0000 0.1002(5)
C3A C 0.6589(2) -0.1333(5) 0.1355(4)
C4A C 0.7449(2) -0.0895(6) 0.1977(5)
H3A H 0.7543 -0.1284 0.3097
H4A H 0.7856 -0.1284 0.1364
C3D C 0.6589(2) 0.1333(5) 0.1355(4)
O2D O 0.6326(2) 0.2696(4) 0.1213(4)
C4D C 0.7449(2) 0.0895(6) 0.1977(5)
H3D H 0.7543 0.1284 0.3097
H4D H 0.7856 0.1284 0.1364
O3A O 0.6643(3) -0.5000 -0.6449(6)
O1D_2 O 0.4458(2) -0.7298(3) 0.2575(3)
O1E_2 O 0.5542(2) -0.7298(3) -0.2575(3)
O2D_2 O 0.6326(2) -0.7304(4) 0.1213(4)
O2E_2 O 0.3674(2) -0.7304(4) -0.1213(4)
O1A_2 O 0.4458(2) -0.2702(3) -0.7425(3)
O1D_3 O 0.4458(2) -0.7298(3) -0.7425(3)
Rb1_2 Rb 0.5000 0.5000 0.0000
Rb2_2 Rb 0.5000 0.5000 -0.5000
Rb2_3 Rb 0.5000 -0.5000 0.5000
Rb2_4 Rb 0.5000 0.5000 0.5000
loop_
_geom_bond_atom_site_label_1
_geom_bond_atom_site_label_2
_geom_bond_site_symmetry_1
_geom_bond_site_symmetry_2
Rb1 O1 1_555 1_555
Rb2 O1 1_555 1_555
Cu1 N1 1_555 1_555
O1 C1 1_555 1_555
O2 Rb1 1_555 1_555
O3 Rb2 1_555 1_555
N1 C1 1_555 1_555
N2 Cu1 1_555 1_555
C1 C2 1_555 1_555
C2 H1 1_555 1_555
C3 O2 1_555 1_555
C4 C3 1_555 1_555
H2 C2 1_555 1_555
H3 C4 1_555 1_555
H4 C4 1_555 1_555
C1E N1 1_555 1_555
O1E C1E 1_555 1_555
C2E C2 1_555 1_555
H1E C2E 1_555 1_555
H2E C2E 1_555 1_555
C3E N2 1_555 1_555
O2E C3E 1_555 1_555
C4E C4 1_555 1_555
H3E C4E 1_555 1_555
H4E C4E 1_555 1_555
O1A Rb1 1_555 1_555
N1A Cu1 1_555 1_555
C1A O1A 1_555 1_555
C2A C1A 1_555 1_555
H1A C2A 1_555 1_555
H2A C2A 1_555 1_555
C1D N1A 1_555 1_555
O1D C1D 1_555 1_555
C2D C2A 1_555 1_555
H1D C2D 1_555 1_555
H2D C2D 1_555 1_555
O2A Rb1 1_555 1_555
N2A Cu1 1_555 1_555
C3A O2A 1_555 1_555
C4A C3A 1_555 1_555
H3A C4A 1_555 1_555
H4A C4A 1_555 1_555
C3D N2A 1_555 1_555
O2D C3D 1_555 1_555
C4D C4A 1_555 1_555
H3D C4D 1_555 1_555
H4D C4D 1_555 1_555
O3A Rb2 1_555 1_555
O1D_2 Rb1 1_555 1_555
O1E_2 Rb1 1_555 1_555
O2D_2 Rb1 1_555 1_555
O2E_2 Rb1 1_555 1_555
O1A_2 Rb2 1_555 1_555
O1D_3 Rb2 1_555 1_555
Rb1_2 O1E 1_555 1_555
Rb2_2 O1E 1_555 1_555
Rb2_3 O1A 1_555 1_555
Rb2_4 O1D 1_555 1_555
Rb2 O1E_2 1_555 1_555
N2 C3 1_555 1_555
C1E C2E 1_555 1_555
C3E C4E 1_555 1_555
O2E Rb1_2 1_555 1_555
N1A C1A 1_555 1_555
C1D C2D 1_555 1_555
O1D Rb1_2 1_555 1_555
N2A C3A 1_555 1_555
C3D C4D 1_555 1_555
O2D Rb1_2 1_555 1_555
O1D_2 Rb2_3 1_555 1_555

#END
