
#######################################################################
#
#                 Cambridge Crystallographic Data Centre
#                                CCDC 
#
#######################################################################
#
# If this CIF has been generated from an entry in the Cambridge 
# Structural Database, then it will include bibliographic, chemical, 
# crystal, experimental, refinement or atomic coordinate data resulting 
# from the CCDC's data processing and validation procedures.
#
#######################################################################

data_QQQGMA04
_symmetry_cell_setting           monoclinic
_symmetry_space_group_name_H-M   'P 21/c'
_symmetry_Int_Tables_number      14
_space_group_name_Hall           '-P 2ybc'
loop_
_symmetry_equiv_pos_site_id
_symmetry_equiv_pos_as_xyz
1 x,y,z
2 -x,1/2+y,1/2-z
3 -x,-y,-z
4 x,1/2-y,1/2+z
_cell_length_a                   5.8207(11)
_cell_length_b                   14.460(3)
_cell_length_c                   22.090(4)
_cell_angle_alpha                90
_cell_angle_beta                 97.084(3)
_cell_angle_gamma                90
_cell_volume                     1845.06
loop_
_atom_site_label
_atom_site_type_symbol
_atom_site_fract_x
_atom_site_fract_y
_atom_site_fract_z
Na1 Na 0.08963(12) 0.88489(5) 0.01320(3)
O1 O 0.2103(2) 1.03229(9) 0.04724(6)
O2 O 0.3548(2) 0.80269(10) 0.08180(6)
O3 O 0.5215(2) 1.11879(10) 0.04054(6)
C1 C 0.4959(3) 1.03989(13) 0.13393(8)
O4 O 0.0057(2) 0.75317(10) -0.04681(7)
O5 O 0.7094(2) 0.84165(11) 0.06294(6)
C2 C 0.4006(3) 1.06416(13) 0.06951(8)
O6 O 0.3344(3) 0.71578(12) -0.08339(8)
C3 C 0.6644(3) 0.78556(13) 0.16193(9)
C4 C 0.7226(3) 1.06138(14) 0.15784(9)
C5 C 0.3516(3) 0.99767(14) 0.17147(9)
C6 C 0.8014(4) 1.04132(16) 0.21822(9)
C7 C 0.5618(3) 0.81024(13) 0.09865(9)
C8 C 0.6553(4) 0.99962(16) 0.25507(9)
C9 C 0.6029(4) 0.72572(16) 0.26038(10)
C10 C 0.1263(3) 0.69655(15) -0.06883(9)
C11 C 0.8917(3) 0.80554(15) 0.18416(10)
C12 C 0.5206(4) 0.74492(15) 0.20017(9)
C13 C 0.9733(4) 0.78631(16) 0.24486(10)
C14 C -0.2099(4) 0.47448(17) -0.06918(10)
C15 C 0.4324(4) 0.97817(15) 0.23196(9)
C16 C 0.0541(3) 0.59877(14) -0.08129(9)
C17 C 0.1333(4) 0.44510(16) -0.11580(12)
C18 C -0.1499(4) 0.56730(16) -0.06245(10)
C19 C 0.8285(4) 0.74743(15) 0.28260(10)
C20 C -0.0668(4) 0.41392(18) -0.09520(11)
C21 C 0.1950(4) 0.53761(16) -0.10860(10)
H1 H 0.822(3) 1.0894(15) 0.1327(10)
H2 H 0.956(4) 1.0578(16) 0.2322(10)
H3 H 0.334(4) 0.5605(16) -0.1239(10)
H4 H 0.359(4) 0.7297(16) 0.1840(10)
H5 H 0.191(3) 0.9832(16) 0.1557(10)
H6 H 0.990(3) 0.8300(16) 0.1598(10)
H7 H 0.887(3) 0.7356(15) 0.3242(11)
H8 H 0.501(3) 0.6980(16) 0.2863(10)
H9 H 1.138(4) 0.8004(16) 0.2602(10)
H10 H -0.246(3) 0.6092(16) -0.0439(10)
H11 H 0.329(4) 0.9497(16) 0.2563(10)
H12 H 0.714(3) 0.9867(16) 0.2956(11)
H13 H -0.347(4) 0.4576(17) -0.0540(11)
H14 H -0.104(4) 0.3552(18) -0.0984(10)
H15 H 0.231(4) 0.4028(19) -0.1362(12)
H16 H 0.370(5) 0.771(2) -0.0731(13)
H17 H 0.627(5) 0.854(3) 0.0253(15)
Na1_2 Na 1.08963(12) 0.88489(5) 0.01320(3)
Na1B Na -0.08963(12) 1.11511(5) -0.01320(3)
Na1B_2 Na 0.91037(12) 1.11511(5) -0.01320(3)
O1B O -0.2103(2) 0.96771(9) -0.04724(6)
O3B O 0.4785(2) 0.88121(10) -0.04054(6)
O5_2 O -0.2906(2) 0.84165(11) 0.06294(6)
loop_
_geom_bond_atom_site_label_1
_geom_bond_atom_site_label_2
_geom_bond_site_symmetry_1
_geom_bond_site_symmetry_2
Na1 O1 1_555 1_555
O1 C2 1_555 1_555
O2 Na1 1_555 1_555
O3 C2 1_555 1_555
C1 C2 1_555 1_555
O4 Na1 1_555 1_555
O5 C7 1_555 1_555
O6 C10 1_555 1_555
C3 C7 1_555 1_555
C4 C1 1_555 1_555
C5 C1 1_555 1_555
C6 C4 1_555 1_555
C7 O2 1_555 1_555
C8 C6 1_555 1_555
C9 C12 1_555 1_555
C10 O4 1_555 1_555
C11 C3 1_555 1_555
C12 C3 1_555 1_555
C13 C11 1_555 1_555
C14 C18 1_555 1_555
C15 C5 1_555 1_555
C16 C10 1_555 1_555
C17 C20 1_555 1_555
C18 C16 1_555 1_555
C19 C9 1_555 1_555
C20 C14 1_555 1_555
C21 C16 1_555 1_555
H1 C4 1_555 1_555
H2 C6 1_555 1_555
H3 C21 1_555 1_555
H4 C12 1_555 1_555
H5 C5 1_555 1_555
H6 C11 1_555 1_555
H7 C19 1_555 1_555
H8 C9 1_555 1_555
H9 C13 1_555 1_555
H10 C18 1_555 1_555
H11 C15 1_555 1_555
H12 C8 1_555 1_555
H13 C14 1_555 1_555
H14 C20 1_555 1_555
H15 C17 1_555 1_555
H16 O6 1_555 1_555
H17 O5 1_555 1_555
Na1_2 O5 1_555 1_555
Na1B O1 1_555 1_555
Na1B_2 O3 1_555 1_555
O1B Na1 1_555 1_555
O3B Na1 1_555 1_555
O5_2 Na1 1_555 1_555
C8 C15 1_555 1_555
C13 C19 1_555 1_555
C17 C21 1_555 1_555
Na1B O1B 1_555 1_555

#END
