
#######################################################################
#
#                 Cambridge Crystallographic Data Centre
#                                CCDC 
#
#######################################################################
#
# If this CIF has been generated from an entry in the Cambridge 
# Structural Database, then it will include bibliographic, chemical, 
# crystal, experimental, refinement or atomic coordinate data resulting 
# from the CCDC's data processing and validation procedures.
#
#######################################################################

data_QQQGMA03
_symmetry_cell_setting           monoclinic
_symmetry_space_group_name_H-M   'P 21/c'
_symmetry_Int_Tables_number      14
_space_group_name_Hall           '-P 2ybc'
loop_
_symmetry_equiv_pos_site_id
_symmetry_equiv_pos_as_xyz
1 x,y,z
2 -x,1/2+y,1/2-z
3 -x,-y,-z
4 x,1/2-y,1/2+z
_cell_length_a                   5.8402(12)
_cell_length_b                   14.499(3)
_cell_length_c                   22.136(4)
_cell_angle_alpha                90
_cell_angle_beta                 97.18(3)
_cell_angle_gamma                90
_cell_volume                     1859.71
loop_
_atom_site_label
_atom_site_type_symbol
_atom_site_fract_x
_atom_site_fract_y
_atom_site_fract_z
Na1 Na 0.41023(15) 0.61510(5) 0.48680(3)
O1 O 0.0209(3) 0.61894(9) 0.54048(5)
O2 O 0.1456(3) 0.69739(9) 0.41829(6)
C1 C -0.0048(4) 0.53997(11) 0.63412(8)
C2 C -0.0996(4) 0.56395(12) 0.56936(8)
O3 O 0.4943(3) 0.74670(9) 0.54677(6)
O4 O 0.1654(3) 0.78412(10) 0.58350(7)
H1 H 0.1292 0.7316 0.5725
C3 C -0.1642(4) 0.71441(12) 0.33799(8)
C4 C -0.1478(4) 0.49757(12) 0.67135(8)
H2 H -0.2983 0.4822 0.6558
C5 C 0.2223(4) 0.56152(13) 0.65766(8)
H3 H 0.3201 0.5892 0.6330
C6 C 0.3015(4) 0.54130(14) 0.71827(8)
H4 H 0.4523 0.5558 0.7340
C7 C -0.0218(4) 0.75491(13) 0.29993(8)
H5 H 0.1299 0.7693 0.3150
C8 C 0.1563(4) 0.49976(13) 0.75508(8)
H6 H 0.2097 0.4866 0.7955
C9 C -0.1031(4) 0.77417(14) 0.23957(9)
H7 H -0.0069 0.8014 0.2142
C10 C 0.7093(5) 1.02548(15) 0.56913(9)
H8 H 0.8455 1.0466 0.5562
C11 C -0.3920(4) 0.69416(13) 0.31584(8)
H9 H -0.4896 0.6680 0.3412
C12 C -0.0605(4) 0.68994(12) 0.40132(8)
C13 C 0.3737(4) 0.80356(14) 0.56864(9)
C14 C -0.0676(4) 0.47793(13) 0.73185(8)
H10 H -0.1649 0.4501 0.7566
C15 C -0.4727(4) 0.71343(14) 0.25517(9)
H11 H -0.6247 0.6998 0.2400
C16 C 0.3678(5) 1.05439(14) 0.61574(10)
H12 H 0.2752 1.0949 0.6345
C17 C 0.4457(4) 0.90117(13) 0.58137(8)
C18 C -0.3282(4) 0.75253(13) 0.21762(9)
H13 H -0.3830 0.7644 0.1771
C19 C 0.6492(4) 0.93278(14) 0.56236(9)
H14 H 0.7455 0.8920 0.5451
C20 C 0.3048(4) 0.96200(14) 0.60871(9)
H15 H 0.1695 0.9410 0.6222
C21 C 0.5673(5) 1.08629(15) 0.59501(10)
H16 H 0.6058 1.1485 0.5985
O5 O -0.2901(3) 0.53210(8) 0.54724(5)
O6 O -0.2092(3) 0.65849(10) 0.43708(6)
H17 H -0.1406 0.6465 0.4708
Na1_2 Na -0.58977(15) 0.61510(5) 0.48680(3)
Na1B Na -0.41023(15) 0.38490(5) 0.51320(3)
O5_2 O 0.7099(3) 0.53210(8) 0.54724(5)
O5B O 0.2901(3) 0.46790(8) 0.45276(5)
O6_2 O 0.7908(3) 0.65849(10) 0.43708(6)
H17_2 H 0.8594 0.6465 0.4708
loop_
_geom_bond_atom_site_label_1
_geom_bond_atom_site_label_2
_geom_bond_site_symmetry_1
_geom_bond_site_symmetry_2
Na1 O1 1_555 1_555
O1 C2 1_555 1_555
O2 Na1 1_555 1_555
C1 C2 1_555 1_555
C2 O5 1_555 1_555
O3 Na1 1_555 1_555
O4 H1 1_555 1_555
C3 C7 1_555 1_555
C4 C1 1_555 1_555
H2 C4 1_555 1_555
C5 C1 1_555 1_555
H3 C5 1_555 1_555
C6 C5 1_555 1_555
H4 C6 1_555 1_555
C7 H5 1_555 1_555
C8 C6 1_555 1_555
H6 C8 1_555 1_555
C9 C7 1_555 1_555
H7 C9 1_555 1_555
C10 H8 1_555 1_555
C11 C3 1_555 1_555
H9 C11 1_555 1_555
C12 O2 1_555 1_555
C13 O3 1_555 1_555
C14 C4 1_555 1_555
H10 C14 1_555 1_555
C15 C11 1_555 1_555
H11 C15 1_555 1_555
C16 H12 1_555 1_555
C17 C13 1_555 1_555
C18 C9 1_555 1_555
H13 C18 1_555 1_555
C19 C10 1_555 1_555
H14 C19 1_555 1_555
C20 C16 1_555 1_555
H15 C20 1_555 1_555
C21 C10 1_555 1_555
H16 C21 1_555 1_555
O5 Na1_2 1_555 1_555
O6 C12 1_555 1_555
H17 O6 1_555 1_555
Na1_2 O6 1_555 1_555
Na1B O5 1_555 1_555
O5_2 Na1 1_555 1_555
O5B Na1 1_555 1_555
O6_2 Na1 1_555 1_555
H17_2 O6_2 1_555 1_555
O4 C13 1_555 1_555
C3 C12 1_555 1_555
C8 C14 1_555 1_555
C15 C18 1_555 1_555
C16 C21 1_555 1_555
C17 C19 1_555 1_555
C17 C20 1_555 1_555

#END
