
#######################################################################
#
#                 Cambridge Crystallographic Data Centre
#                                CCDC 
#
#######################################################################
#
# If this CIF has been generated from an entry in the Cambridge 
# Structural Database, then it will include bibliographic, chemical, 
# crystal, experimental, refinement or atomic coordinate data resulting 
# from the CCDC's data processing and validation procedures.
#
#######################################################################

data_QQQGMA02
_symmetry_cell_setting           triclinic
_symmetry_space_group_name_H-M   'P -1'
_symmetry_Int_Tables_number      2
_space_group_name_Hall           '-P 1'
loop_
_symmetry_equiv_pos_site_id
_symmetry_equiv_pos_as_xyz
1 x,y,z
2 -x,-y,-z
_cell_length_a                   6.8912(14)
_cell_length_b                   12.082(2)
_cell_length_c                   13.372(3)
_cell_angle_alpha                109.97(3)
_cell_angle_beta                 100.51(3)
_cell_angle_gamma                103.88(3)
_cell_volume                     972.283
loop_
_atom_site_label
_atom_site_type_symbol
_atom_site_fract_x
_atom_site_fract_y
_atom_site_fract_z
Na1 Na 0.0000 0.0000 0.0000
O1 O 0.0001(5) 0.1049(3) 0.1824(2)
O2 O 0.2793(4) -0.0552(3) 0.1068(2)
O3 O 0.2697(5) 0.0355(3) 0.2813(2)
H1 H 0.1881 0.0623 0.2516
O4 O 0.2962(4) 0.1774(3) 0.0482(2)
O5 O 0.5362(5) 0.3217(3) 0.2033(2)
H2 H 0.5907 0.2670 0.1931
C1 C 0.5020(7) -0.0779(4) 0.2532(4)
C2 C -0.0372(7) 0.2482(4) 0.3463(3)
C3 C -0.1787(7) 0.2706(4) 0.4062(3)
H3 H -0.3213 0.2324 0.3710
C4 C -0.1144(7) 0.1633(4) 0.2258(3)
C5 C 0.2505(7) 0.3754(4) 0.1346(3)
C6 C 0.1735(7) 0.3087(4) 0.3997(3)
H4 H 0.2700 0.2952 0.3605
C7 C 0.3413(7) -0.0321(4) 0.2063(4)
C8 C 0.3605(7) 0.2817(4) 0.1242(4)
C9 C 0.1033(8) 0.4101(5) 0.5704(4)
H5 H 0.1505 0.4643 0.6451
C10 C 0.2426(8) 0.3892(5) 0.5111(4)
H6 H 0.3850 0.4294 0.5458
C11 C 0.3523(8) 0.4998(5) 0.2049(4)
H7 H 0.4924 0.5262 0.2446
C12 C 0.5655(8) -0.0513(5) 0.3648(4)
H8 H 0.5062 -0.0041 0.4130
C13 C -0.1084(8) 0.3498(4) 0.5183(4)
H9 H -0.2038 0.3623 0.5585
C14 C 0.0401(7) 0.3363(5) 0.0757(4)
H10 H -0.0288 0.2531 0.0279
C15 C 0.5938(8) -0.1469(5) 0.1835(4)
H11 H 0.5508 -0.1669 0.1076
C16 C -0.0660(8) 0.4225(6) 0.0892(5)
H12 H -0.2069 0.3967 0.0513
C17 C 0.7501(9) -0.1864(6) 0.2264(5)
H13 H 0.8147 -0.2305 0.1793
C18 C 0.0375(10) 0.5458(6) 0.1586(5)
H14 H -0.0336 0.6032 0.1667
C19 C 0.2446(9) 0.5845(5) 0.2160(4)
H15 H 0.3132 0.6681 0.2625
C20 C 0.7177(10) -0.0944(6) 0.4057(5)
H16 H 0.7575 -0.0776 0.4810
C21 C 0.8096(9) -0.1614(6) 0.3365(6)
H17 H 0.9123 -0.1897 0.3645
Na2 Na 0.5000 0.0000 0.0000
O6 O -0.2938(5) 0.1510(3) 0.1685(2)
O1A O -0.0001(5) -0.1049(3) -0.1824(2)
O2A O -0.2793(4) 0.0552(3) -0.1068(2)
O2A_2 O 0.7207(4) 0.0552(3) -0.1068(2)
O3A O -0.2697(5) -0.0355(3) -0.2813(2)
H1A H -0.1881 -0.0623 -0.2516
O4A O -0.2962(4) -0.1774(3) -0.0482(2)
O4A_2 O 0.7038(4) -0.1774(3) -0.0482(2)
O5A O -0.5362(5) -0.3217(3) -0.2033(2)
H2A H -0.5907 -0.2670 -0.1931
C1A C -0.5020(7) 0.0779(4) -0.2532(4)
C2A C 0.0372(7) -0.2482(4) -0.3463(3)
C3A C 0.1787(7) -0.2706(4) -0.4062(3)
H3A H 0.3213 -0.2324 -0.3710
C4A C 0.1144(7) -0.1633(4) -0.2258(3)
C5A C -0.2505(7) -0.3754(4) -0.1346(3)
C6A C -0.1735(7) -0.3087(4) -0.3997(3)
H4A H -0.2700 -0.2952 -0.3605
C7A C -0.3413(7) 0.0321(4) -0.2063(4)
C8A C -0.3605(7) -0.2817(4) -0.1242(4)
C9A C -0.1033(8) -0.4101(5) -0.5704(4)
H5A H -0.1505 -0.4643 -0.6451
C10A C -0.2426(8) -0.3892(5) -0.5111(4)
H6A H -0.3850 -0.4294 -0.5458
C11A C -0.3523(8) -0.4998(5) -0.2049(4)
H7A H -0.4924 -0.5262 -0.2446
C12A C -0.5655(8) 0.0513(5) -0.3648(4)
H8A H -0.5062 0.0041 -0.4130
C13A C 0.1084(8) -0.3498(4) -0.5183(4)
H9A H 0.2038 -0.3623 -0.5585
C14A C -0.0401(7) -0.3363(5) -0.0757(4)
H10A H 0.0288 -0.2531 -0.0279
C15A C -0.5938(8) 0.1469(5) -0.1835(4)
H11A H -0.5508 0.1669 -0.1076
C16A C 0.0660(8) -0.4225(6) -0.0892(5)
H12A H 0.2069 -0.3967 -0.0513
C17A C -0.7501(9) 0.1864(6) -0.2264(5)
H13A H -0.8147 0.2305 -0.1793
C18A C -0.0375(10) -0.5458(6) -0.1586(5)
H14A H 0.0336 -0.6032 -0.1667
C19A C -0.2446(9) -0.5845(5) -0.2160(4)
H15A H -0.3132 -0.6681 -0.2625
C20A C -0.7177(10) 0.0944(6) -0.4057(5)
H16A H -0.7575 0.0776 -0.4810
C21A C -0.8096(9) 0.1614(6) -0.3365(6)
H17A H -0.9123 0.1897 -0.3645
Na2_2 Na -0.5000 0.0000 0.0000
O6A O 0.2938(5) -0.1510(3) -0.1685(2)
O6_2 O 0.7062(5) 0.1510(3) 0.1685(2)
loop_
_geom_bond_atom_site_label_1
_geom_bond_atom_site_label_2
_geom_bond_site_symmetry_1
_geom_bond_site_symmetry_2
Na1 O1 1_555 1_555
O1 C4 1_555 1_555
O2 Na1 1_555 1_555
O3 H1 1_555 1_555
O4 Na1 1_555 1_555
O5 H2 1_555 1_555
C1 C7 1_555 1_555
C2 C3 1_555 1_555
C3 H3 1_555 1_555
C4 C2 1_555 1_555
C5 C8 1_555 1_555
C6 C2 1_555 1_555
H4 C6 1_555 1_555
C7 O2 1_555 1_555
C8 O4 1_555 1_555
C9 H5 1_555 1_555
C10 C6 1_555 1_555
H6 C10 1_555 1_555
C11 C5 1_555 1_555
H7 C11 1_555 1_555
C12 C1 1_555 1_555
H8 C12 1_555 1_555
C13 C3 1_555 1_555
H9 C13 1_555 1_555
C14 C5 1_555 1_555
H10 C14 1_555 1_555
C15 C1 1_555 1_555
H11 C15 1_555 1_555
C16 C14 1_555 1_555
H12 C16 1_555 1_555
C17 C15 1_555 1_555
H13 C17 1_555 1_555
C18 C16 1_555 1_555
H14 C18 1_555 1_555
C19 C11 1_555 1_555
H15 C19 1_555 1_555
C20 C12 1_555 1_555
H16 C20 1_555 1_555
C21 C17 1_555 1_555
H17 C21 1_555 1_555
Na2 O2 1_555 1_555
O6 C4 1_555 1_555
O1A Na1 1_555 1_555
O2A Na1 1_555 1_555
O2A_2 Na2 1_555 1_555
O3A H1A 1_555 1_555
O4A Na1 1_555 1_555
O4A_2 Na2 1_555 1_555
O5A H2A 1_555 1_555
C1A C7A 1_555 1_555
C2A C3A 1_555 1_555
C3A H3A 1_555 1_555
C4A O1A 1_555 1_555
C5A C8A 1_555 1_555
C6A C2A 1_555 1_555
H4A C6A 1_555 1_555
C7A O2A 1_555 1_555
C8A O4A 1_555 1_555
C9A H5A 1_555 1_555
C10A C6A 1_555 1_555
H6A C10A 1_555 1_555
C11A C5A 1_555 1_555
H7A C11A 1_555 1_555
C12A C1A 1_555 1_555
H8A C12A 1_555 1_555
C13A C3A 1_555 1_555
H9A C13A 1_555 1_555
C14A C5A 1_555 1_555
H10A C14A 1_555 1_555
C15A C1A 1_555 1_555
H11A C15A 1_555 1_555
C16A C14A 1_555 1_555
H12A C16A 1_555 1_555
C17A C15A 1_555 1_555
H13A C17A 1_555 1_555
C18A C16A 1_555 1_555
H14A C18A 1_555 1_555
C19A C11A 1_555 1_555
H15A C19A 1_555 1_555
C20A C12A 1_555 1_555
H16A C20A 1_555 1_555
C21A C17A 1_555 1_555
H17A C21A 1_555 1_555
Na2_2 O6 1_555 1_555
O6A Na2 1_555 1_555
O6_2 Na2 1_555 1_555
O3 C7 1_555 1_555
O4 Na2 1_555 1_555
O5 C8 1_555 1_555
C9 C10 1_555 1_555
C9 C13 1_555 1_555
C18 C19 1_555 1_555
C20 C21 1_555 1_555
O2A Na2_2 1_555 1_555
O3A C7A 1_555 1_555
O4A Na2_2 1_555 1_555
O5A C8A 1_555 1_555
C2A C4A 1_555 1_555
C4A O6A 1_555 1_555
C9A C10A 1_555 1_555
C9A C13A 1_555 1_555
C18A C19A 1_555 1_555
C20A C21A 1_555 1_555

#END
