
#######################################################################
#
#                 Cambridge Crystallographic Data Centre
#                                CCDC 
#
#######################################################################
#
# If this CIF has been generated from an entry in the Cambridge 
# Structural Database, then it will include bibliographic, chemical, 
# crystal, experimental, refinement or atomic coordinate data resulting 
# from the CCDC's data processing and validation procedures.
#
#######################################################################

data_QUBBEU01
_symmetry_cell_setting           triclinic
_symmetry_space_group_name_H-M   'P -1'
_symmetry_Int_Tables_number      2
_space_group_name_Hall           '-P 1'
loop_
_symmetry_equiv_pos_site_id
_symmetry_equiv_pos_as_xyz
1 x,y,z
2 -x,-y,-z
_cell_length_a                   10.181(2)
_cell_length_b                   10.668(2)
_cell_length_c                   12.857(3)
_cell_angle_alpha                112.97(3)
_cell_angle_beta                 91.24(3)
_cell_angle_gamma                117.96(3)
_cell_volume                     1099.09
loop_
_atom_site_label
_atom_site_type_symbol
_atom_site_fract_x
_atom_site_fract_y
_atom_site_fract_z
Co1 Co 0.79965(4) 0.34520(5) 0.14902(3)
Co2 Co 1.01882(4) 0.60454(5) -0.37014(3)
Co3 Co 1.0000 0.5000 0.0000
Co4 Co 1.5000 1.0000 0.0000
Co5 Co 1.75006(5) 1.50986(5) 0.43171(3)
O1 O 0.5850(3) -0.0309(3) 0.1268(2)
O2 O 0.8090(2) 0.1981(3) 0.2215(2)
O3 O 1.0538(3) 0.2744(3) 0.4292(2)
O4 O 1.1005(3) 0.0939(3) 0.4343(2)
O5 O 0.8127(2) 0.4838(3) 0.0683(2)
O6 O 0.6781(3) 0.5867(4) 0.1606(2)
O7 O 0.8541(3) 0.5759(3) -0.2673(2)
O8 O 0.9716(2) 0.5711(3) -0.1237(2)
O9 O 1.5634(2) 1.2279(3) 0.1268(2)
O10 O 1.5465(3) 1.3127(3) 0.3108(2)
O11 O 1.1278(3) 0.7400(3) 0.1173(2)
O12 O 1.2729(2) 0.8547(3) 0.0163(2)
O13 O 1.1544(2) 0.5911(3) -0.4875(2)
O14 O 0.8860(2) 0.5041(3) 0.3166(2)
O15 O 1.6773(3) 1.6428(3) 0.3889(2)
O16 O 1.6299(3) 1.5096(4) 0.5626(2)
C1 C 0.7076(3) 0.0589(4) 0.2051(2)
C2 C 0.7389(4) -0.0006(4) 0.2857(3)
C3 C 0.8914(5) 0.0024(5) 0.2853(4)
C4 C 1.0241(4) 0.1319(4) 0.3911(3)
C5 C 0.7384(3) 0.5560(4) 0.0796(3)
C6 C 0.7283(5) 0.6100(5) -0.0121(3)
C7 C 0.7077(4) 0.4952(5) -0.1381(3)
C8 C 0.8538(3) 0.5509(4) -0.1800(2)
C9 C 1.4885(3) 1.2402(3) 0.2050(3)
C10 C 1.2387(5) 1.0154(4) 0.1922(3)
C11 C 1.3169(4) 1.1568(4) 0.1648(3)
C12 C 1.2142(3) 0.8597(4) 0.1022(2)
H1 H 0.6640(56) -0.1071(64) 0.2550(41)
H2 H 0.7386(56) 0.0699(63) 0.3630(44)
H3 H 0.8706(57) -0.0923(67) 0.2712(41)
H4 H 0.9157(56) 0.0166(60) 0.2142(42)
H5 H 0.6367(56) 0.6236(61) -0.0061(39)
H6 H 0.8069(59) 0.6960(64) 0.0067(42)
H7 H 0.6211(54) 0.4792(59) -0.1953(40)
H8 H 0.6706(57) 0.3771(64) -0.1544(42)
H9 H 1.2881(54) 1.1235(61) 0.0798(43)
H10 H 1.2911(56) 1.2372(63) 0.2128(41)
H11 H 1.3108(56) 1.0454(59) 0.2717(42)
H12 H 1.1546(59) 1.0010(64) 0.2060(42)
H13 H 1.2139(59) 0.6709(67) -0.4966(43)
H14 H 0.9369(59) 0.5901(64) 0.3265(44)
H15 H 1.6908(57) 1.6424(62) 0.3240(45)
H16 H 1.7382(60) 1.7239(66) 0.4276(48)
H17 H 1.5449(63) 1.4724(64) 0.5703(43)
H18 H 1.6727(60) 1.5327(65) 0.6196(46)
O5A O 1.1873(2) 0.5162(3) -0.0683(2)
O6A O 1.3219(3) 0.4133(4) -0.1606(2)
O7A O 1.1459(3) 0.4241(3) 0.2673(2)
O8A O 1.0284(2) 0.4289(3) 0.1237(2)
C5A C 1.2616(3) 0.4440(4) -0.0796(3)
C6A C 1.2717(5) 0.3900(5) 0.0121(3)
C7A C 1.2923(4) 0.5048(5) 0.1381(3)
C8A C 1.1462(3) 0.4491(4) 0.1800(2)
H5A H 1.3633(56) 0.3764(61) 0.0061(39)
H6A H 1.1931(59) 0.3040(64) -0.0067(42)
H7A H 1.3789(54) 0.5208(59) 0.1953(40)
H8A H 1.3294(57) 0.6229(64) 0.1544(42)
O9A O 0.4366(2) -0.2279(3) -0.1268(2)
O10A O 0.4535(3) -0.3127(3) -0.3108(2)
O11A O 0.8722(3) 0.2600(3) -0.1173(2)
O12A O 0.7271(2) 0.1453(3) -0.0163(2)
C9A C 0.5115(3) -0.2402(3) -0.2050(3)
C10A C 0.7613(5) -0.0154(4) -0.1922(3)
C11A C 0.6831(4) -0.1568(4) -0.1648(3)
C12A C 0.7858(3) 0.1403(4) -0.1022(2)
H9A H 0.7119(54) -0.1235(61) -0.0798(43)
H10A H 0.7089(56) -0.2372(63) -0.2128(41)
H11A H 0.6892(56) -0.0454(59) -0.2717(42)
H12A H 0.8454(59) -0.0010(64) -0.2060(42)
Co1A Co 1.20035(4) 0.65480(5) -0.14902(3)
Co2A Co 0.98118(4) 0.39546(5) 0.37014(3)
Co5A Co 0.24994(5) -0.50986(5) -0.43171(3)
O1A O 1.4150(3) 1.0309(3) -0.1268(2)
O2A O 1.1910(2) 0.8019(3) -0.2215(2)
O3A O 0.9462(3) 0.7256(3) -0.4292(2)
O4A O 0.8995(3) 0.9061(3) -0.4343(2)
C1A C 1.2924(3) 0.9411(4) -0.2051(2)
C2A C 1.2611(4) 1.0006(4) -0.2857(3)
C3A C 1.1086(5) 0.9976(5) -0.2853(4)
C4A C 0.9759(4) 0.8681(4) -0.3911(3)
H1A H 1.3360(56) 1.1071(64) -0.2550(41)
H2A H 1.2614(56) 0.9301(63) -0.3630(44)
H3A H 1.1294(57) 1.0923(67) -0.2712(41)
H4A H 1.0843(56) 0.9834(60) -0.2142(42)
O13A O 0.8456(2) 0.4089(3) -0.5125(2)
H13A H 0.7861(59) 0.3291(67) -0.5034(43)
O14A O 1.1140(2) 0.4959(3) -0.3166(2)
H14A H 1.0631(59) 0.4099(64) -0.3265(44)
O15A O 0.3227(3) -0.6428(3) -0.3889(2)
H15A H 0.3092(57) -0.6424(62) -0.3240(45)
H16A H 0.2618(60) -0.7239(66) -0.4276(48)
O16A O 0.3701(3) -0.5096(4) -0.5626(2)
H17A H 0.4551(63) -0.4724(64) -0.5703(43)
H18A H 0.3273(60) -0.5327(65) -0.6196(46)
O9_2 O 0.5634(2) 0.2279(3) 0.1268(2)
O1_2 O 1.5850(3) 0.9691(3) 0.1268(2)
O9A_2 O 1.4366(2) 0.7721(3) -0.1268(2)
O12A_2 O 1.7271(2) 1.1453(3) -0.0163(2)
O3A_2 O 1.9462(3) 1.7256(3) 0.5708(2)
O13A_2 O 1.8456(2) 1.4089(3) 0.4875(2)
O14_2 O 1.8860(2) 1.5041(3) 0.3166(2)
Co4_2 Co 0.5000 0.0000 0.0000
Co5A_2 Co 1.24994(5) 0.49014(5) 0.56829(3)
Co1_2 Co 1.79965(4) 1.34520(5) 0.14902(3)
Co2A_2 Co 0.98118(4) 0.39546(5) -0.62986(3)
Co5A_3 Co 1.24994(5) 0.49014(5) -0.43171(3)
Co5_2 Co 0.75006(5) 0.50986(5) 0.43171(3)
Co1A_2 Co 0.20035(4) -0.34520(5) -0.14902(3)
O13_2 O 1.1544(2) 0.5911(3) 0.5125(2)
O13A_3 O 0.8456(2) 0.4089(3) 0.4875(2)
O3_2 O 0.0538(3) -0.7256(3) -0.5708(2)
O13_3 O 0.1544(2) -0.4089(3) -0.4875(2)
O14A_2 O 0.1140(2) -0.5041(3) -0.3166(2)
Co5_3 Co 0.75006(5) 0.50986(5) -0.56829(3)
H13A_2 H 1.7861(59) 1.3291(67) 0.4966(43)
H14_2 H 1.9369(59) 1.5901(64) 0.3265(44)
H13_2 H 1.2139(59) 0.6709(67) 0.5034(43)
H13A_3 H 0.7861(59) 0.3291(67) 0.4966(43)
H13_3 H 0.2139(59) -0.3291(67) -0.4966(43)
H14A_2 H 0.0631(59) -0.5901(64) -0.3265(44)
O17 O 1.1007(4) 0.8098(4) 0.3469(3)
H19 H 1.0929(57) 0.8970(68) 0.3796(44)
H20 H 1.1076(55) 0.7994(61) 0.2776(43)
O18 O 1.3616(6) 0.8337(6) 0.4434(5)
H21? H 1.2265(56) 0.8139(60) 0.3992(41)
H22? H 1.4770(56) 0.8204(60) 0.5127(40)
loop_
_geom_bond_atom_site_label_1
_geom_bond_atom_site_label_2
_geom_bond_site_symmetry_1
_geom_bond_site_symmetry_2
Co1 O2 1_555 1_555
Co2 O7 1_555 1_555
Co3 O5 1_555 1_555
Co4 O9 1_555 1_555
Co5 O10 1_555 1_555
O1 C1 1_555 1_555
O2 C1 1_555 1_555
O3 C4 1_555 1_555
O4 C4 1_555 1_555
O5 Co1 1_555 1_555
O6 C5 1_555 1_555
O7 C8 1_555 1_555
O8 Co3 1_555 1_555
O9 C9 1_555 1_555
O10 C9 1_555 1_555
O11 Co3 1_555 1_555
O12 Co4 1_555 1_555
O13 Co2 1_555 1_555
O14 Co1 1_555 1_555
O15 Co5 1_555 1_555
O16 Co5 1_555 1_555
C1 C2 1_555 1_555
C2 C3 1_555 1_555
C3 C4 1_555 1_555
C5 O5 1_555 1_555
C6 C5 1_555 1_555
C7 C6 1_555 1_555
C8 O8 1_555 1_555
C9 C11 1_555 1_555
C10 C11 1_555 1_555
C11 H9 1_555 1_555
C12 O11 1_555 1_555
O17 H19 1_555 1_555
H1 C2 1_555 1_555
H2 C2 1_555 1_555
H3 C3 1_555 1_555
H4 C3 1_555 1_555
H5 C6 1_555 1_555
H6 C6 1_555 1_555
H7 C7 1_555 1_555
H8 C7 1_555 1_555
H10 C11 1_555 1_555
H11 C10 1_555 1_555
H12 C10 1_555 1_555
H13 O13 1_555 1_555
H14 O14 1_555 1_555
H15 O15 1_555 1_555
H16 O15 1_555 1_555
H17 O16 1_555 1_555
H18 O16 1_555 1_555
H20 O17 1_555 1_555
O5A Co3 1_555 1_555
O6A C5A 1_555 1_555
O7A C8A 1_555 1_555
O8A Co1 1_555 1_555
C5A O5A 1_555 1_555
C6A C5A 1_555 1_555
C7A C6A 1_555 1_555
C8A O8A 1_555 1_555
H5A C6A 1_555 1_555
H6A C6A 1_555 1_555
H7A C7A 1_555 1_555
H8A C7A 1_555 1_555
O9A C9A 1_555 1_555
O10A C9A 1_555 1_555
O11A Co3 1_555 1_555
O12A Co1 1_555 1_555
C9A C11A 1_555 1_555
C10A C11A 1_555 1_555
C11A H9A 1_555 1_555
C12A O11A 1_555 1_555
H10A C11A 1_555 1_555
H11A C10A 1_555 1_555
H12A C10A 1_555 1_555
Co1A O8 1_555 1_555
Co2A O2 1_555 1_555
Co5A O10A 1_555 1_555
O1A Co4 1_555 1_555
O2A Co2 1_555 1_555
O3A Co2 1_555 1_555
O4A C4A 1_555 1_555
C1A O1A 1_555 1_555
C2A C1A 1_555 1_555
C3A C2A 1_555 1_555
C4A O3A 1_555 1_555
H1A C2A 1_555 1_555
H2A C2A 1_555 1_555
H3A C3A 1_555 1_555
H4A C3A 1_555 1_555
O13A Co2 1_555 1_555
H13A O13A 1_555 1_555
O14A Co2 1_555 1_555
H14A O14A 1_555 1_555
O15A Co5A 1_555 1_555
H15A O15A 1_555 1_555
H16A O15A 1_555 1_555
O16A Co5A 1_555 1_555
H17A O16A 1_555 1_555
H18A O16A 1_555 1_555
O9_2 Co1 1_555 1_555
O1_2 Co4 1_555 1_555
O9A_2 Co4 1_555 1_555
O12A_2 Co4 1_555 1_555
O3A_2 Co5 1_555 1_555
O13A_2 Co5 1_555 1_555
O14_2 Co5 1_555 1_555
Co4_2 O1 1_555 1_555
Co5A_2 O3 1_555 1_555
Co1_2 O9 1_555 1_555
Co2A_2 O13 1_555 1_555
Co5A_3 O13 1_555 1_555
Co5_2 O14 1_555 1_555
Co1A_2 O9A 1_555 1_555
O13_2 Co2A 1_555 1_555
O13A_3 Co2A 1_555 1_555
O3_2 Co5A 1_555 1_555
O13_3 Co5A 1_555 1_555
O14A_2 Co5A 1_555 1_555
Co5_3 O3A 1_555 1_555
H13A_2 O13A_2 1_555 1_555
H14_2 O14_2 1_555 1_555
H13_2 O13_2 1_555 1_555
H13A_3 O13A_3 1_555 1_555
H13_3 O13_3 1_555 1_555
H14A_2 O14A_2 1_555 1_555
Co3 O8A 1_555 1_555
O3 Co2A 1_555 1_555
O12 C12 1_555 1_555
O12 Co1A 1_555 1_555
O14 Co2A 1_555 1_555
C7 C8 1_555 1_555
C10 C12 1_555 1_555
O5A Co1A 1_555 1_555
O7A Co2A 1_555 1_555
C7A C8A 1_555 1_555
O9A Co4_2 1_555 1_555
O12A C12A 1_555 1_555
O12A Co4_2 1_555 1_555
C10A C12A 1_555 1_555
Co1A O2A 1_555 1_555
Co1A O14A 1_555 1_555
Co1A O9A_2 1_555 1_555
O2A C1A 1_555 1_555
C3A C4A 1_555 1_555
O13A Co2A_2 1_555 1_555
O13A Co5_3 1_555 1_555
O14A Co5A_3 1_555 1_555
O9_2 Co4_2 1_555 1_555
O12A_2 Co1_2 1_555 1_555
O14_2 Co1_2 1_555 1_555
Co5A_2 O13_2 1_555 1_555
Co5_2 O13A_3 1_555 1_555
Co1A_2 O14A_2 1_555 1_555

#END
