
#######################################################################
#
#                 Cambridge Crystallographic Data Centre
#                                CCDC 
#
#######################################################################
#
# If this CIF has been generated from an entry in the Cambridge 
# Structural Database, then it will include bibliographic, chemical, 
# crystal, experimental, refinement or atomic coordinate data resulting 
# from the CCDC's data processing and validation procedures.
#
#######################################################################

data_QUBHAX
_symmetry_cell_setting           monoclinic
_symmetry_space_group_name_H-M   'P 21/c'
_symmetry_Int_Tables_number      14
_space_group_name_Hall           '-P 2ybc'
loop_
_symmetry_equiv_pos_site_id
_symmetry_equiv_pos_as_xyz
1 x,y,z
2 -x,1/2+y,1/2-z
3 -x,-y,-z
4 x,1/2-y,1/2+z
_cell_length_a                   12.9638(5)
_cell_length_b                   6.4039(2)
_cell_length_c                   7.3594(2)
_cell_angle_alpha                90
_cell_angle_beta                 90.561(3)
_cell_angle_gamma                90
_cell_volume                     610.94
loop_
_atom_site_label
_atom_site_type_symbol
_atom_site_fract_x
_atom_site_fract_y
_atom_site_fract_z
C1 C 0.85690(15) -0.2552(3) 1.2476(2)
C2 C 0.74851(16) -0.2688(3) 1.3065(2)
H1 H 0.7070 -0.1509 1.2954
C3 C 0.70774(16) -0.4420(3) 1.3746(2)
H2 H 0.7508 -0.5577 1.3841
C4 C 0.60116(16) -0.4680(3) 1.4362(2)
C5 C 0.57415(16) -0.6520(4) 1.5271(3)
H3 H 0.6237 -0.7551 1.5459
C6 C 0.52478(16) -0.3174(4) 1.4108(3)
H4 H 0.5408 -0.1939 1.3509
O1 O 0.88488(10) -0.0847(2) 1.17963(17)
O2 O 0.91616(10) -0.4125(2) 1.26536(16)
O3 O 1.07684(12) -0.2865(2) 1.0108(2)
Co1 Co 1.0000 0.0000 1.0000
H5 H 1.0843(17) -0.365(4) 0.925(3)
H6 H 1.067(2) -0.361(5) 1.094(4)
C1B C 0.14310(15) -0.7448(3) 1.7524(2)
C2B C 0.25149(16) -0.7312(3) 1.6935(2)
H1B H 0.2930 -0.8491 1.7046
C3B C 0.29226(16) -0.5580(3) 1.6254(2)
H2B H 0.2492 -0.4423 1.6159
C4B C 0.39884(16) -0.5320(3) 1.5638(2)
C5B C 0.42585(16) -0.3480(4) 1.4729(3)
H3B H 0.3763 -0.2449 1.4541
C6B C 0.47522(16) -0.6826(4) 1.5892(3)
H4B H 0.4592 -0.8061 1.6491
O1B O 0.11512(10) -0.9153(2) 1.82037(17)
O1B_2 O 1.11512(10) 0.0847(2) 0.82037(17)
O2B O 0.08384(10) -0.5875(2) 1.73464(16)
O2A O 1.08384(10) 0.0875(2) 1.23464(16)
O2C O 0.91616(10) -0.0875(2) 0.76536(16)
O3B O 0.92316(12) 0.2865(2) 0.9892(2)
Co1A Co 1.0000 -0.5000 1.5000
Co1_2 Co 0.0000 -1.0000 2.0000
Co1A_2 Co 0.0000 -0.5000 1.5000
H5B H 0.9157(17) 0.365(4) 1.075(3)
H6B H 0.933(2) 0.361(5) 0.906(4)
loop_
_geom_bond_atom_site_label_1
_geom_bond_atom_site_label_2
_geom_bond_site_symmetry_1
_geom_bond_site_symmetry_2
C1 C2 1_555 1_555
C2 H1 1_555 1_555
C3 C2 1_555 1_555
H2 C3 1_555 1_555
C4 C3 1_555 1_555
C5 C4 1_555 1_555
H3 C5 1_555 1_555
C6 C4 1_555 1_555
H4 C6 1_555 1_555
O1 C1 1_555 1_555
O2 C1 1_555 1_555
O3 Co1 1_555 1_555
Co1 O1 1_555 1_555
H5 O3 1_555 1_555
H6 O3 1_555 1_555
C1B C2B 1_555 1_555
C2B H1B 1_555 1_555
C3B C2B 1_555 1_555
H2B C3B 1_555 1_555
C4B C3B 1_555 1_555
C5B C6 1_555 1_555
H3B C5B 1_555 1_555
C6B C5 1_555 1_555
H4B C6B 1_555 1_555
O1B C1B 1_555 1_555
O1B_2 Co1 1_555 1_555
O2B C1B 1_555 1_555
O2A Co1 1_555 1_555
O2C Co1 1_555 1_555
O3B Co1 1_555 1_555
Co1A O2 1_555 1_555
Co1_2 O1B 1_555 1_555
Co1A_2 O2B 1_555 1_555
H5B O3B 1_555 1_555
H6B O3B 1_555 1_555
C4B C5B 1_555 1_555
C4B C6B 1_555 1_555

#END
