
#######################################################################
#
#                 Cambridge Crystallographic Data Centre
#                                CCDC 
#
#######################################################################
#
# If this CIF has been generated from an entry in the Cambridge 
# Structural Database, then it will include bibliographic, chemical, 
# crystal, experimental, refinement or atomic coordinate data resulting 
# from the CCDC's data processing and validation procedures.
#
#######################################################################

data_QUBHAX01
_symmetry_cell_setting           monoclinic
_symmetry_space_group_name_H-M   'P 21/c'
_symmetry_Int_Tables_number      14
_space_group_name_Hall           '-P 2ybc'
loop_
_symmetry_equiv_pos_site_id
_symmetry_equiv_pos_as_xyz
1 x,y,z
2 -x,1/2+y,1/2-z
3 -x,-y,-z
4 x,1/2-y,1/2+z
_cell_length_a                   12.903(7)
_cell_length_b                   6.371(3)
_cell_length_c                   7.329(4)
_cell_angle_alpha                90
_cell_angle_beta                 90.289(7)
_cell_angle_gamma                90
_cell_volume                     602.473
loop_
_atom_site_label
_atom_site_type_symbol
_atom_site_fract_x
_atom_site_fract_y
_atom_site_fract_z
Co1 Co 0.5000 0.0000 0.5000
C1 C 0.3572(6) 0.2443(13) 0.2491(11)
O1 O 0.4122(5) 0.0876(11) 0.2675(9)
C2 C 0.2068(8) 0.0610(18) 0.3741(15)
H1 H 0.2494 -0.0563 0.3836
C3 C 0.0736(8) -0.1520(17) 0.5209(17)
H2 H 0.1228 -0.2580 0.5319
C4 C 0.1007(8) 0.0366(17) 0.4370(15)
C5 C 0.2491(7) 0.2331(18) 0.3048(15)
H3 H 0.2079 0.3519 0.2910
O2 O 0.3886(5) 0.4153(10) 0.1830(10)
C6 C 0.0241(9) 0.184(2) 0.4128(16)
H4 H 0.0389 0.3071 0.3503
O3 O 0.4235(5) -0.2880(9) 0.4902(9)
H5 H 0.418(8) -0.370(11) 0.581(7)
H6 H 0.421(8) -0.363(12) 0.394(7)
Co1_2 Co -0.5000 0.0000 0.5000
Co1A Co -0.5000 -0.5000 1.0000
Co1A_2 Co 0.5000 0.5000 0.0000
C1B C -0.3572(6) -0.2443(13) 0.7509(11)
O1B O -0.4122(5) -0.0876(11) 0.7325(9)
O1B_2 O 0.5878(5) -0.0876(11) 0.7325(9)
C2B C -0.2068(8) -0.0610(18) 0.6259(15)
H1B H -0.2494 0.0563 0.6164
C3B C -0.0736(8) 0.1520(17) 0.4791(17)
H2B H -0.1228 0.2580 0.4681
C4B C -0.1007(8) -0.0366(17) 0.5630(15)
C5B C -0.2491(7) -0.2331(18) 0.6952(15)
H3B H -0.2079 -0.3519 0.7090
O2B O -0.3886(5) -0.4153(10) 0.8170(10)
O2A O 0.6114(5) -0.0847(10) 0.3170(10)
O2C O 0.3886(5) 0.0847(10) 0.6830(10)
C6B C -0.0241(9) -0.184(2) 0.5872(16)
H4B H -0.0389 -0.3071 0.6497
O3B O 0.5765(5) 0.2880(9) 0.5098(9)
H5B H 0.582(8) 0.370(11) 0.419(7)
H6B H 0.579(8) 0.363(12) 0.606(7)
loop_
_geom_bond_atom_site_label_1
_geom_bond_atom_site_label_2
_geom_bond_site_symmetry_1
_geom_bond_site_symmetry_2
Co1 O1 1_555 1_555
C1 O1 1_555 1_555
C2 H1 1_555 1_555
C3 H2 1_555 1_555
C4 C2 1_555 1_555
C5 C1 1_555 1_555
H3 C5 1_555 1_555
O2 C1 1_555 1_555
C6 C4 1_555 1_555
H4 C6 1_555 1_555
O3 Co1 1_555 1_555
H5 O3 1_555 1_555
H6 O3 1_555 1_555
Co1_2 O1B 1_555 1_555
Co1A O2B 1_555 1_555
Co1A_2 O2 1_555 1_555
C1B O1B 1_555 1_555
O1B_2 Co1 1_555 1_555
C2B H1B 1_555 1_555
C3B C6 1_555 1_555
H2B C3B 1_555 1_555
C4B C2B 1_555 1_555
C5B C1B 1_555 1_555
H3B C5B 1_555 1_555
O2B C1B 1_555 1_555
O2A Co1 1_555 1_555
O2C Co1 1_555 1_555
C6B C3 1_555 1_555
H4B C6B 1_555 1_555
O3B Co1 1_555 1_555
H5B O3B 1_555 1_555
H6B O3B 1_555 1_555
C2 C5 1_555 1_555
C3 C4 1_555 1_555
C2B C5B 1_555 1_555
C3B C4B 1_555 1_555
C4B C6B 1_555 1_555

#END
