
#######################################################################
#
#                 Cambridge Crystallographic Data Centre
#                                CCDC 
#
#######################################################################
#
# If this CIF has been generated from an entry in the Cambridge 
# Structural Database, then it will include bibliographic, chemical, 
# crystal, experimental, refinement or atomic coordinate data resulting 
# from the CCDC's data processing and validation procedures.
#
#######################################################################

data_QUBHEB
_symmetry_cell_setting           triclinic
_symmetry_space_group_name_H-M   'P -1'
_symmetry_Int_Tables_number      2
_space_group_name_Hall           '-P 1'
loop_
_symmetry_equiv_pos_site_id
_symmetry_equiv_pos_as_xyz
1 x,y,z
2 -x,-y,-z
_cell_length_a                   5.6645(2)
_cell_length_b                   9.4282(6)
_cell_length_c                   10.7437(5)
_cell_angle_alpha                91.907(4)
_cell_angle_beta                 95.553(3)
_cell_angle_gamma                102.426(4)
_cell_volume                     556.843
loop_
_atom_site_label
_atom_site_type_symbol
_atom_site_fract_x
_atom_site_fract_y
_atom_site_fract_z
C1 C -0.1747(3) 0.3008(2) 0.0759(2)
H1 H -0.3309 0.2675 0.0358
C2 C -0.0904(4) 0.4328(2) 0.1351(2)
H2 H -0.1756 0.5061 0.1430
C3 C 0.1913(3) 0.3101(2) 0.14803(18)
H3 H 0.3402 0.2855 0.1683
C4 C 0.3124(4) 0.5616(2) 0.25080(18)
H4 H 0.2294 0.6406 0.2597
H5 H 0.4480 0.5950 0.2026
C5 C 0.4095(3) 0.52626(18) 0.37907(16)
C6 C 0.2643(3) 0.4373(2) 0.45444(17)
H6 H 0.1047 0.3943 0.4240
C7 C 0.6480(3) 0.5886(2) 0.42597(17)
H7 H 0.7491 0.6482 0.3766
C8 C 0.1839(3) -0.07995(19) 0.26423(15)
C9 C 0.3820(3) -0.06034(19) 0.37445(15)
H8 H 0.5024 -0.1144 0.3515
C10 C 0.2878(3) -0.1211(2) 0.49425(15)
H9 H 0.2174 -0.2243 0.4795
H10 H 0.1605 -0.0737 0.5164
C11 C 0.5119(3) 0.0987(2) 0.39691(16)
H11 H 0.3948 0.1562 0.4145
H12 H 0.5820 0.1329 0.3216
N1 N 0.0038(2) 0.22288(17) 0.08334(13)
N2 N 0.1440(3) 0.43786(16) 0.18122(14)
O1 O 0.24544(19) -0.02973(14) 0.16165(10)
O2 O -0.0256(2) -0.14543(18) 0.27946(13)
O3 O 0.3255(2) 0.09931(16) -0.09218(12)
Mn1 Mn 0.0000 0.0000 0.0000
H13 H 0.256(4) 0.124(3) -0.157(2)
H14 H 0.437(4) 0.063(3) -0.113(2)
C1A C 1.1747(3) 0.6992(2) 0.9241(2)
H1A H 1.3309 0.7325 0.9642
C2A C 1.0904(4) 0.5672(2) 0.8649(2)
H2A H 1.1756 0.4939 0.8570
C3A C 0.8087(3) 0.6899(2) 0.85197(18)
H3A H 0.6598 0.7145 0.8317
C4A C 0.6876(4) 0.4384(2) 0.74920(18)
H4A H 0.7706 0.3594 0.7403
H5A H 0.5520 0.4050 0.7974
C5A C 0.5905(3) 0.47374(18) 0.62093(16)
C6A C 0.7357(3) 0.5627(2) 0.54556(17)
H6A H 0.8953 0.6057 0.5760
C7A C 0.3520(3) 0.4114(2) 0.57403(17)
H7A H 0.2509 0.3518 0.6234
C8A C 0.8161(3) 0.07995(19) 0.73577(15)
C9A C 0.6180(3) 0.06034(19) 0.62555(15)
H8A H 0.4976 0.1144 0.6485
C10A C 0.7122(3) 0.1211(2) 0.50575(15)
H9A H 0.7826 0.2243 0.5205
H10A H 0.8395 0.0737 0.4836
C11A C 0.4881(3) -0.0987(2) 0.60309(16)
H11A H 0.6052 -0.1562 0.5855
H12A H 0.4180 -0.1329 0.6784
N1A N 0.9962(2) 0.77712(17) 0.91666(13)
N1A_2 N -0.0038(2) -0.22288(17) -0.08334(13)
N2A N 0.8560(3) 0.56214(16) 0.81878(14)
O1A O 0.75456(19) 0.02973(14) 0.83835(10)
O1A_2 O -0.24544(19) 0.02973(14) -0.16165(10)
O2A O 1.0256(2) 0.14543(18) 0.72054(13)
O3A O -0.3255(2) -0.09931(16) 0.09218(12)
Mn1_2 Mn 1.0000 1.0000 1.0000
Mn1_3 Mn 1.0000 0.0000 1.0000
H13A H -0.256(4) -0.124(3) 0.157(2)
H14A H -0.437(4) -0.063(3) 0.113(2)
loop_
_geom_bond_atom_site_label_1
_geom_bond_atom_site_label_2
_geom_bond_site_symmetry_1
_geom_bond_site_symmetry_2
C1 H1 1_555 1_555
C2 C1 1_555 1_555
H2 C2 1_555 1_555
C3 H3 1_555 1_555
C4 H4 1_555 1_555
H5 C4 1_555 1_555
C5 C4 1_555 1_555
C6 C5 1_555 1_555
H6 C6 1_555 1_555
C7 C5 1_555 1_555
H7 C7 1_555 1_555
C8 C9 1_555 1_555
C9 H8 1_555 1_555
C10 C9 1_555 1_555
H9 C10 1_555 1_555
H10 C10 1_555 1_555
C11 C9 1_555 1_555
H11 C11 1_555 1_555
H12 C11 1_555 1_555
N1 C1 1_555 1_555
N2 C2 1_555 1_555
O1 C8 1_555 1_555
O2 C8 1_555 1_555
O3 Mn1 1_555 1_555
Mn1 N1 1_555 1_555
H13 O3 1_555 1_555
H14 O3 1_555 1_555
C1A H1A 1_555 1_555
C2A C1A 1_555 1_555
H2A C2A 1_555 1_555
C3A H3A 1_555 1_555
C4A H4A 1_555 1_555
H5A C4A 1_555 1_555
C5A C4A 1_555 1_555
C6A C7 1_555 1_555
H6A C6A 1_555 1_555
C7A C6 1_555 1_555
H7A C7A 1_555 1_555
C8A C9A 1_555 1_555
C9A H8A 1_555 1_555
C10A C11 1_555 1_555
H9A C10A 1_555 1_555
H10A C10A 1_555 1_555
C11A C10 1_555 1_555
H11A C11A 1_555 1_555
H12A C11A 1_555 1_555
N1A C1A 1_555 1_555
N1A_2 Mn1 1_555 1_555
N2A C2A 1_555 1_555
O1A C8A 1_555 1_555
O1A_2 Mn1 1_555 1_555
O2A C8A 1_555 1_555
O3A Mn1 1_555 1_555
Mn1_2 N1A 1_555 1_555
Mn1_3 O1A 1_555 1_555
H13A O3A 1_555 1_555
H14A O3A 1_555 1_555
C3 N1 1_555 1_555
C3 N2 1_555 1_555
C4 N2 1_555 1_555
O1 Mn1 1_555 1_555
C3A N1A 1_555 1_555
C3A N2A 1_555 1_555
C4A N2A 1_555 1_555
C5A C6A 1_555 1_555
C5A C7A 1_555 1_555
C9A C10A 1_555 1_555
C9A C11A 1_555 1_555

#END
