
#######################################################################
#
#                 Cambridge Crystallographic Data Centre
#                                CCDC 
#
#######################################################################
#
# If this CIF has been generated from an entry in the Cambridge 
# Structural Database, then it will include bibliographic, chemical, 
# crystal, experimental, refinement or atomic coordinate data resulting 
# from the CCDC's data processing and validation procedures.
#
#######################################################################

data_QUBJAZ
_symmetry_cell_setting           triclinic
_symmetry_space_group_name_H-M   'P -1'
_symmetry_Int_Tables_number      2
_space_group_name_Hall           '-P 1'
loop_
_symmetry_equiv_pos_site_id
_symmetry_equiv_pos_as_xyz
1 x,y,z
2 -x,-y,-z
_cell_length_a                   8.1321(2)
_cell_length_b                   10.0250(2)
_cell_length_c                   12.6802(3)
_cell_angle_alpha                98.474(2)
_cell_angle_beta                 97.472(2)
_cell_angle_gamma                105.491(2)
_cell_volume                     969.629
loop_
_atom_site_label
_atom_site_type_symbol
_atom_site_fract_x
_atom_site_fract_y
_atom_site_fract_z
Ca1 Ca 0.0000 0.5000 0.5000
K1 K 0.31787(5) 1.04069(4) 0.40999(3)
S1 S 0.35559(5) 0.65053(4) 0.37099(3)
O1 O 0.17893(15) 0.57405(13) 0.37756(10)
O2 O 0.47802(17) 0.57937(14) 0.41193(11)
O3 O 0.40558(17) 0.79816(12) 0.41988(10)
O4 O 0.25945(17) 0.55155(14) -0.17345(10)
O5 O 0.53019(17) 0.69630(14) -0.12608(11)
H1 H 0.512(3) 0.693(2) -0.193(2)
C1 C 0.3815(2) 0.62672(16) 0.01333(13)
C2 C 0.5234(2) 0.70667(17) 0.09216(14)
H2 H 0.6272 0.7562 0.0712
C3 C 0.5135(2) 0.71403(18) 0.20053(14)
H3 H 0.6102 0.7688 0.2542
C4 C 0.3616(2) 0.64097(15) 0.23109(13)
C5 C 0.2194(2) 0.56056(17) 0.15323(14)
H4 H 0.1155 0.5114 0.1742
C6 C 0.2314(2) 0.55312(18) 0.04492(14)
H5 H 0.1356 0.4968 -0.0087
C7 C 0.3833(2) 0.61969(17) -0.10450(14)
S2 S 0.10972(6) 0.83869(4) 0.63692(3)
O6 O 0.22528(18) 0.96682(12) 0.61825(11)
O7 O 0.17007(18) 0.71542(12) 0.60756(10)
O8 O -0.07007(18) 0.81148(15) 0.58693(11)
O9 O 0.25169(17) 0.95045(14) 1.18416(10)
O10 O -0.02384(17) 0.81432(14) 1.14191(11)
H6 H -0.005(3) 0.828(2) 1.213(2)
O11 O 0.19325(16) 0.42311(12) 0.61428(10)
H7 H 0.218(3) 0.465(2) 0.6759(19)
H8 H 0.278(3) 0.406(2) 0.5964(18)
O12 O 0.48191(18) 1.28956(13) 0.33412(11)
H9 H 0.463(3) 1.351(2) 0.3688(18)
H10 H 0.577(3) 1.283(2) 0.350(2)
O13 O -0.01468(18) 0.84578(14) 0.35085(11)
H11 H -0.077(3) 0.896(2) 0.3729(19)
H12 H -0.058(3) 0.765(2) 0.3658(19)
C8 C 0.1174(2) 0.87436(16) 0.99832(13)
C9 C -0.0341(2) 0.80257(17) 0.92490(14)
H13 H -0.1362 0.7589 0.9503
C10 C -0.0363(2) 0.79475(18) 0.81454(14)
H14 H -0.1401 0.7469 0.7643
C11 C 0.1136(2) 0.85708(16) 0.77813(13)
C12 C 0.2660(2) 0.92976(17) 0.85057(14)
H15 H 0.3684 0.9723 0.8250
C13 C 0.2659(2) 0.93906(18) 0.96071(14)
H16 H 0.3685 0.9902 1.0110
C14 C 0.1243(2) 0.88514(17) 1.11725(14)
K1A K -0.31787(5) -0.04069(4) 0.59001(3)
K1A_2 K 0.68213(5) 0.95931(4) 0.59001(3)
K1A_3 K -0.31787(5) 0.95931(4) 0.59001(3)
K1_2 K 0.31787(5) 1.04069(4) 1.40999(3)
K1_3 K -0.68213(5) 0.04069(4) 0.40999(3)
K1_4 K 0.31787(5) 0.04069(4) 0.40999(3)
K1A_4 K -0.31787(5) -0.04069(4) -0.40999(3)
S1A S -0.35559(5) 0.34947(4) 0.62901(3)
O1A O -0.17893(15) 0.42595(13) 0.62244(10)
O2A O -0.47802(17) 0.42063(14) 0.58807(11)
O3A O -0.40558(17) 0.20184(12) 0.58012(10)
O3A_2 O 0.59442(17) 1.20184(12) 0.58012(10)
O3_2 O -0.59442(17) -0.20184(12) 0.41988(10)
O4A O -0.25945(17) 0.44845(14) 1.17345(10)
O5A O -0.53019(17) 0.30370(14) 1.12608(11)
H1A H -0.512(3) 0.307(2) 1.193(2)
C1A C -0.3815(2) 0.37328(16) 0.98667(13)
C2A C -0.5234(2) 0.29333(17) 0.90784(14)
H2A H -0.6272 0.2438 0.9288
C3A C -0.5135(2) 0.28597(18) 0.79947(14)
H3A H -0.6102 0.2312 0.7458
C4A C -0.3616(2) 0.35903(15) 0.76891(13)
C5A C -0.2194(2) 0.43944(17) 0.84677(14)
H4A H -0.1155 0.4886 0.8258
C6A C -0.2314(2) 0.44688(18) 0.95508(14)
H5A H -0.1356 0.5032 1.0087
C7A C -0.3833(2) 0.38031(17) 1.10450(14)
S2A S -0.10972(6) 0.16131(4) 0.36308(3)
O6A O -0.22528(18) 0.03318(12) 0.38175(11)
O7A O -0.17007(18) 0.28458(12) 0.39244(10)
O8A O 0.07007(18) 0.18852(15) 0.41307(11)
O8A_2 O 0.07007(18) 1.18852(15) 0.41307(11)
O8_2 O -0.07007(18) -0.18852(15) 0.58693(11)
O9A O -0.25169(17) 0.04955(14) -0.18416(10)
O9_2 O 0.25169(17) 0.95045(14) 0.18416(10)
O9A_2 O -0.25169(17) 0.04955(14) 0.81584(10)
O10A O 0.02384(17) 0.18568(14) -0.14191(11)
H6A H 0.005(3) 0.172(2) -0.213(2)
O11A O -0.19325(16) 0.57689(12) 0.38572(10)
H7A H -0.218(3) 0.535(2) 0.3241(19)
H8A H -0.278(3) 0.594(2) 0.4036(18)
O12A O -0.48191(18) -0.28956(13) 0.66588(11)
H9A H -0.463(3) -0.351(2) 0.6312(18)
H10A H -0.577(3) -0.283(2) 0.650(2)
O13A O 0.01468(18) 0.15422(14) 0.64915(11)
H11A H 0.077(3) 0.104(2) 0.6271(19)
H12A H 0.058(3) 0.235(2) 0.6342(19)
C8A C -0.1174(2) 0.12564(16) 0.00168(13)
C9A C 0.0341(2) 0.19743(17) 0.07510(14)
H13A H 0.1362 0.2411 0.0497
C10A C 0.0363(2) 0.20525(18) 0.18546(14)
H14A H 0.1401 0.2531 0.2357
C11A C -0.1136(2) 0.14292(16) 0.22187(13)
C12A C -0.2660(2) 0.07024(17) 0.14943(14)
H15A H -0.3684 0.0277 0.1750
C13A C -0.2659(2) 0.06094(18) 0.03929(14)
H16A H -0.3685 0.0098 -0.0110
C14A C -0.1243(2) 0.11486(17) -0.11725(14)
loop_
_geom_bond_atom_site_label_1
_geom_bond_atom_site_label_2
_geom_bond_site_symmetry_1
_geom_bond_site_symmetry_2
Ca1 O1 1_555 1_555
K1 O3 1_555 1_555
S1 O1 1_555 1_555
O2 S1 1_555 1_555
O3 S1 1_555 1_555
O4 C7 1_555 1_555
O5 H1 1_555 1_555
C1 C2 1_555 1_555
C2 H2 1_555 1_555
C3 C2 1_555 1_555
H3 C3 1_555 1_555
C4 S1 1_555 1_555
C5 C4 1_555 1_555
H4 C5 1_555 1_555
C6 C1 1_555 1_555
H5 C6 1_555 1_555
C7 O5 1_555 1_555
S2 O6 1_555 1_555
O6 K1 1_555 1_555
O7 Ca1 1_555 1_555
O8 S2 1_555 1_555
O9 C14 1_555 1_555
O10 H6 1_555 1_555
O11 Ca1 1_555 1_555
H7 O11 1_555 1_555
H8 O11 1_555 1_555
O12 K1 1_555 1_555
H9 O12 1_555 1_555
H10 O12 1_555 1_555
O13 K1 1_555 1_555
H11 O13 1_555 1_555
H12 O13 1_555 1_555
C8 C9 1_555 1_555
C9 H13 1_555 1_555
C10 C9 1_555 1_555
H14 C10 1_555 1_555
C11 S2 1_555 1_555
C12 C11 1_555 1_555
H15 C12 1_555 1_555
C13 C8 1_555 1_555
H16 C13 1_555 1_555
C14 O10 1_555 1_555
K1A O3A 1_555 1_555
K1A_2 O3 1_555 1_555
K1A_3 O8 1_555 1_555
K1_2 O9 1_555 1_555
K1_3 O3A 1_555 1_555
K1_4 O8A 1_555 1_555
K1A_4 O9A 1_555 1_555
S1A O1A 1_555 1_555
O1A Ca1 1_555 1_555
O2A S1A 1_555 1_555
O3A S1A 1_555 1_555
O3A_2 K1 1_555 1_555
O3_2 K1A 1_555 1_555
O4A C7A 1_555 1_555
O5A H1A 1_555 1_555
C1A C2A 1_555 1_555
C2A H2A 1_555 1_555
C3A C2A 1_555 1_555
H3A C3A 1_555 1_555
C4A S1A 1_555 1_555
C5A C4A 1_555 1_555
H4A C5A 1_555 1_555
C6A C1A 1_555 1_555
H5A C6A 1_555 1_555
C7A O5A 1_555 1_555
S2A O6A 1_555 1_555
O6A K1A 1_555 1_555
O7A Ca1 1_555 1_555
O8A S2A 1_555 1_555
O8A_2 K1 1_555 1_555
O8_2 K1A 1_555 1_555
O9A C14A 1_555 1_555
O9_2 K1 1_555 1_555
O9A_2 K1A 1_555 1_555
O10A H6A 1_555 1_555
O11A Ca1 1_555 1_555
H7A O11A 1_555 1_555
H8A O11A 1_555 1_555
O12A K1A 1_555 1_555
H9A O12A 1_555 1_555
H10A O12A 1_555 1_555
O13A K1A 1_555 1_555
H11A O13A 1_555 1_555
H12A O13A 1_555 1_555
C8A C9A 1_555 1_555
C9A H13A 1_555 1_555
C10A C9A 1_555 1_555
H14A C10A 1_555 1_555
C11A S2A 1_555 1_555
C12A C11A 1_555 1_555
H15A C12A 1_555 1_555
C13A C8A 1_555 1_555
H16A C13A 1_555 1_555
C14A O10A 1_555 1_555
C1 C7 1_555 1_555
C3 C4 1_555 1_555
C5 C6 1_555 1_555
S2 O7 1_555 1_555
C8 C14 1_555 1_555
C10 C11 1_555 1_555
C12 C13 1_555 1_555
K1A_2 O3A_2 1_555 1_555
K1_3 O3_2 1_555 1_555
C1A C7A 1_555 1_555
C3A C4A 1_555 1_555
C5A C6A 1_555 1_555
S2A O7A 1_555 1_555
C8A C14A 1_555 1_555
C10A C11A 1_555 1_555
C12A C13A 1_555 1_555

#END
