
#######################################################################
#
#                 Cambridge Crystallographic Data Centre
#                                CCDC 
#
#######################################################################
#
# If this CIF has been generated from an entry in the Cambridge 
# Structural Database, then it will include bibliographic, chemical, 
# crystal, experimental, refinement or atomic coordinate data resulting 
# from the CCDC's data processing and validation procedures.
#
#######################################################################

data_QUBKEF
_symmetry_cell_setting           triclinic
_symmetry_space_group_name_H-M   'P -1'
_symmetry_Int_Tables_number      2
_space_group_name_Hall           '-P 1'
loop_
_symmetry_equiv_pos_site_id
_symmetry_equiv_pos_as_xyz
1 x,y,z
2 -x,-y,-z
_cell_length_a                   8.2954(4)
_cell_length_b                   9.7473(5)
_cell_length_c                   9.8872(6)
_cell_angle_alpha                101.508(5)
_cell_angle_beta                 108.666(5)
_cell_angle_gamma                101.022(4)
_cell_volume                     713.624
loop_
_atom_site_label
_atom_site_type_symbol
_atom_site_fract_x
_atom_site_fract_y
_atom_site_fract_z
Tb1 Tb 0.40030(2) 0.65347(2) 0.16755(2)
N1 N 0.2306(5) -0.0552(4) 0.1543(4)
N2 N 0.3661(5) 0.6693(4) 0.4936(4)
C1 C 0.4200(5) 0.2855(5) 0.0735(5)
C2 C 0.3286(5) 0.1840(5) 0.1391(5)
C3 C 0.2660(6) 0.2377(5) 0.2481(5)
H1 H 0.2744 0.3364 0.2776
C4 C 0.1912(6) 0.1418(5) 0.3117(5)
H2 H 0.1538 0.1763 0.3878
C5 C 0.1724(6) -0.0052(5) 0.2616(5)
H3 H 0.1193 -0.0700 0.3024
C6 C 0.3095(6) 0.0356(5) 0.0938(5)
H4 H 0.3515 -0.0011 0.0216
C7 C 0.2965(6) 1.0191(5) 0.6662(5)
C8 C 0.2832(5) 0.8585(5) 0.6210(5)
C9 C 0.1921(5) 0.7591(5) 0.6741(5)
H5 H 0.1323 0.7890 0.7346
C10 C 0.1935(5) 0.6152(5) 0.6340(5)
H6 H 0.1338 0.5473 0.6678
C11 C 0.2821(6) 0.5715(5) 0.5448(5)
H7 H 0.2842 0.4748 0.5198
C12 C 0.3690(5) 0.8107(5) 0.5303(5)
H8 H 0.4291 0.8763 0.4944
C13 C -0.0122(5) 0.5069(4) 0.0755(5)
O1 O 0.2089(4) -0.1967(3) 0.1071(4)
O2 O 0.4920(4) 0.2320(3) -0.0116(4)
O3 O 0.4206(4) 0.4167(3) 0.1077(3)
O4 O 0.4548(4) 0.6271(3) 0.4090(3)
O5 O 0.4394(4) 1.1057(3) 0.6798(3)
O6 O 0.1680(4) 1.0531(3) 0.6898(4)
O7 O -0.1692(4) 0.4741(3) 0.0693(3)
O8 O 0.1258(4) 0.5467(3) 0.1906(3)
O9 O 0.7110(4) 0.6597(3) 0.2539(3)
H9 H 0.7330 0.5982 0.1938
H10 H 0.7735 0.7447 0.2660
C13A C 0.0122(5) 0.4931(4) -0.0755(5)
O7A O 0.1692(4) 0.5259(3) -0.0693(3)
O8A O -0.1258(4) 0.4533(3) -0.1906(3)
Tb1A Tb -0.40030(2) 0.34653(2) -0.16755(2)
N1A N -0.2306(5) 1.0552(4) -0.1543(4)
N2A N -0.3661(5) 0.3307(4) -0.4936(4)
C1A C -0.4200(5) 0.7145(5) -0.0735(5)
C2A C -0.3286(5) 0.8160(5) -0.1391(5)
C3A C -0.2660(6) 0.7623(5) -0.2481(5)
H1A H -0.2744 0.6636 -0.2776
C4A C -0.1912(6) 0.8582(5) -0.3117(5)
H2A H -0.1538 0.8237 -0.3878
C5A C -0.1724(6) 1.0052(5) -0.2616(5)
H3A H -0.1193 1.0700 -0.3024
C6A C -0.3095(6) 0.9644(5) -0.0938(5)
H4A H -0.3515 1.0011 -0.0216
C7A C -0.2965(6) -0.0191(5) -0.6662(5)
C8A C -0.2832(5) 0.1415(5) -0.6210(5)
C9A C -0.1921(5) 0.2409(5) -0.6741(5)
H5A H -0.1323 0.2110 -0.7346
C10A C -0.1935(5) 0.3848(5) -0.6340(5)
H6A H -0.1338 0.4527 -0.6678
C11A C -0.2821(6) 0.4285(5) -0.5448(5)
H7A H -0.2842 0.5252 -0.5198
C12A C -0.3690(5) 0.1893(5) -0.5303(5)
H8A H -0.4291 0.1237 -0.4944
O1A O -0.2089(4) 1.1967(3) -0.1071(4)
O2A O -0.4920(4) 0.7680(3) 0.0116(4)
O3A O -0.4206(4) 0.5833(3) -0.1077(3)
O4A O -0.4548(4) 0.3729(3) -0.4090(3)
O5A O -0.4394(4) -0.1057(3) -0.6798(3)
O6A O -0.1680(4) -0.0531(3) -0.6898(4)
O9A O -0.7110(4) 0.3403(3) -0.2539(3)
H9A H -0.7330 0.4018 -0.1938
H10A H -0.7735 0.2553 -0.2660
Tb1_2 Tb -0.59970(2) -0.34653(2) -0.83245(2)
Tb1_3 Tb -0.59970(2) 0.65347(2) 0.16755(2)
Tb1_4 Tb 0.40030(2) -0.34653(2) 0.16755(2)
Tb1A_2 Tb -0.40030(2) 1.34653(2) -0.16755(2)
Tb1A_3 Tb 0.59970(2) 0.34653(2) -0.16755(2)
Tb1A_4 Tb 0.59970(2) 1.34653(2) 0.83245(2)
O1_2 O 0.2089(4) 0.8033(3) 0.1071(4)
O1A_2 O -0.2089(4) 0.1967(3) -0.1071(4)
O2_2 O -0.5080(4) 0.2320(3) -0.0116(4)
O2A_2 O 0.5080(4) 0.7680(3) 0.0116(4)
O5_2 O -0.5606(4) 0.1057(3) -0.3202(3)
O5A_2 O 0.5606(4) 0.8943(3) 0.3202(3)
loop_
_geom_bond_atom_site_label_1
_geom_bond_atom_site_label_2
_geom_bond_site_symmetry_1
_geom_bond_site_symmetry_2
Tb1 O3 1_555 1_555
N1 C5 1_555 1_555
N2 C11 1_555 1_555
C1 C2 1_555 1_555
C2 C3 1_555 1_555
C3 H1 1_555 1_555
C4 C3 1_555 1_555
H2 C4 1_555 1_555
C5 C4 1_555 1_555
H3 C5 1_555 1_555
C6 N1 1_555 1_555
H4 C6 1_555 1_555
C7 C8 1_555 1_555
C8 C9 1_555 1_555
C9 H5 1_555 1_555
C10 C9 1_555 1_555
H6 C10 1_555 1_555
C11 C10 1_555 1_555
H7 C11 1_555 1_555
C12 N2 1_555 1_555
H8 C12 1_555 1_555
C13 O7 1_555 1_555
O1 N1 1_555 1_555
O2 C1 1_555 1_555
O3 C1 1_555 1_555
O4 Tb1 1_555 1_555
O5 C7 1_555 1_555
O6 C7 1_555 1_555
O7 Tb1A 1_555 1_555
O8 Tb1 1_555 1_555
O9 Tb1 1_555 1_555
H9 O9 1_555 1_555
H10 O9 1_555 1_555
C13A C13 1_555 1_555
O7A Tb1 1_555 1_555
O8A C13A 1_555 1_555
Tb1A O8A 1_555 1_555
N1A C5A 1_555 1_555
N2A C11A 1_555 1_555
C1A C2A 1_555 1_555
C2A C3A 1_555 1_555
C3A H1A 1_555 1_555
C4A C3A 1_555 1_555
H2A C4A 1_555 1_555
C5A C4A 1_555 1_555
H3A C5A 1_555 1_555
C6A N1A 1_555 1_555
H4A C6A 1_555 1_555
C7A C8A 1_555 1_555
C8A C9A 1_555 1_555
C9A H5A 1_555 1_555
C10A C9A 1_555 1_555
H6A C10A 1_555 1_555
C11A C10A 1_555 1_555
H7A C11A 1_555 1_555
C12A N2A 1_555 1_555
H8A C12A 1_555 1_555
O1A N1A 1_555 1_555
O2A C1A 1_555 1_555
O3A Tb1A 1_555 1_555
O4A Tb1A 1_555 1_555
O5A C7A 1_555 1_555
O6A C7A 1_555 1_555
O9A Tb1A 1_555 1_555
H9A O9A 1_555 1_555
H10A O9A 1_555 1_555
Tb1_2 O5A 1_555 1_555
Tb1_3 O2A 1_555 1_555
Tb1_4 O1 1_555 1_555
Tb1A_2 O1A 1_555 1_555
Tb1A_3 O2 1_555 1_555
Tb1A_4 O5 1_555 1_555
O1_2 Tb1 1_555 1_555
O1A_2 Tb1A 1_555 1_555
O2_2 Tb1A 1_555 1_555
O2A_2 Tb1 1_555 1_555
O5_2 Tb1A 1_555 1_555
O5A_2 Tb1 1_555 1_555
N2 O4 1_555 1_555
C2 C6 1_555 1_555
C8 C12 1_555 1_555
C13 O8 1_555 1_555
C13A O7A 1_555 1_555
N2A O4A 1_555 1_555
C1A O3A 1_555 1_555
C2A C6A 1_555 1_555
C8A C12A 1_555 1_555

#END
