
#######################################################################
#
#                 Cambridge Crystallographic Data Centre
#                                CCDC 
#
#######################################################################
#
# If this CIF has been generated from an entry in the Cambridge 
# Structural Database, then it will include bibliographic, chemical, 
# crystal, experimental, refinement or atomic coordinate data resulting 
# from the CCDC's data processing and validation procedures.
#
#######################################################################

data_QUBLUU
_symmetry_cell_setting           orthorhombic
_symmetry_space_group_name_H-M   'P 21 21 21'
_symmetry_Int_Tables_number      19
_space_group_name_Hall           'P 2ac 2ab'
loop_
_symmetry_equiv_pos_site_id
_symmetry_equiv_pos_as_xyz
1 x,y,z
2 1/2+x,1/2-y,-z
3 -x,1/2+y,1/2-z
4 1/2-x,-y,1/2+z
_cell_length_a                   8.2829(5)
_cell_length_b                   9.3466(16)
_cell_length_c                   16.4991(18)
_cell_angle_alpha                90
_cell_angle_beta                 90
_cell_angle_gamma                90
_cell_volume                     1277.31
loop_
_atom_site_label
_atom_site_type_symbol
_atom_site_fract_x
_atom_site_fract_y
_atom_site_fract_z
Cu1 Cu 1.04396(5) 0.70180(4) 0.68850(2)
N1 N 1.1706(3) 0.5953(3) 0.61634(15)
N2 N 1.0809(3) 0.8605(3) 0.60731(14)
H1 H 0.9851 0.8927 0.5891
H2 H 1.1320 0.9338 0.6317
N3 N 1.3083(4) 1.2790(3) 0.46508(16)
H3 H 1.3251 1.3687 0.4731
O1 O 1.0996(3) 0.2861(2) 0.73541(12)
O2 O 1.0289(3) 0.5153(2) 0.74780(12)
O3 O 1.2939(3) 0.5860(2) 0.49234(14)
C1 C 1.1887(4) 0.4439(3) 0.63381(18)
H4 H 1.3020 0.4197 0.6395
H5 H 1.1435 0.3871 0.5902
C2 C 1.0998(4) 0.4149(3) 0.71196(16)
C3 C 1.2209(3) 0.6503(3) 0.54777(17)
C4 C 1.1790(3) 0.8094(3) 0.53774(16)
H6 H 1.1121 0.8182 0.4890
C5 C 1.3323(4) 0.8977(3) 0.52336(19)
H7 H 1.3873 0.9101 0.5748
H8 H 1.4036 0.8439 0.4880
C6 C 1.3047(4) 1.0411(3) 0.48695(19)
C7 C 1.2364(4) 1.0688(3) 0.40836(18)
C8 C 1.1772(4) 0.9847(4) 0.3459(2)
H9 H 1.1761 0.8856 0.3509
C9 C 1.1198(5) 1.0486(5) 0.2761(2)
H10 H 1.0799 0.9920 0.2343
C10 C 1.1210(5) 1.1967(5) 0.2676(2)
H11 H 1.0802 1.2375 0.2205
C11 C 1.1812(4) 1.2839(4) 0.3275(2)
H12 H 1.1822 1.3828 0.3213
C12 C 1.2401(4) 1.2206(4) 0.39719(19)
C13 C 1.3456(4) 1.1717(3) 0.51818(19)
H13 H 1.3926 1.1856 0.5688
O1B O 0.9004(3) 0.7861(2) 0.76459(12)
Cu1B Cu 0.95604(5) 0.20180(4) 0.81150(2)
loop_
_geom_bond_atom_site_label_1
_geom_bond_atom_site_label_2
_geom_bond_site_symmetry_1
_geom_bond_site_symmetry_2
Cu1 N1 1_555 1_555
N1 C1 1_555 1_555
N2 Cu1 1_555 1_555
H1 N2 1_555 1_555
H2 N2 1_555 1_555
N3 H3 1_555 1_555
O1 C2 1_555 1_555
O2 Cu1 1_555 1_555
O3 C3 1_555 1_555
C1 H4 1_555 1_555
H5 C1 1_555 1_555
C2 O2 1_555 1_555
C3 N1 1_555 1_555
C4 N2 1_555 1_555
H6 C4 1_555 1_555
C5 C4 1_555 1_555
H7 C5 1_555 1_555
H8 C5 1_555 1_555
C6 C5 1_555 1_555
C7 C6 1_555 1_555
C8 C7 1_555 1_555
H9 C8 1_555 1_555
C9 C8 1_555 1_555
H10 C9 1_555 1_555
C10 C9 1_555 1_555
H11 C10 1_555 1_555
C11 C10 1_555 1_555
H12 C11 1_555 1_555
C12 N3 1_555 1_555
C13 N3 1_555 1_555
H13 C13 1_555 1_555
O1B Cu1 1_555 1_555
Cu1B O1 1_555 1_555
C1 C2 1_555 1_555
C3 C4 1_555 1_555
C6 C13 1_555 1_555
C7 C12 1_555 1_555
C11 C12 1_555 1_555

#END
