
#######################################################################
#
#                 Cambridge Crystallographic Data Centre
#                                CCDC 
#
#######################################################################
#
# If this CIF has been generated from an entry in the Cambridge 
# Structural Database, then it will include bibliographic, chemical, 
# crystal, experimental, refinement or atomic coordinate data resulting 
# from the CCDC's data processing and validation procedures.
#
#######################################################################

data_QUBLOP
_symmetry_cell_setting           monoclinic
_symmetry_space_group_name_H-M   'C 2/c'
_symmetry_Int_Tables_number      15
_space_group_name_Hall           '-C 2yn'
loop_
_symmetry_equiv_pos_site_id
_symmetry_equiv_pos_as_xyz
1 x,y,z
2 -x,y,1/2-z
3 1/2+x,1/2+y,z
4 1/2-x,1/2+y,1/2-z
5 -x,-y,-z
6 x,-y,1/2+z
7 1/2-x,1/2-y,-z
8 1/2+x,1/2-y,1/2+z
_cell_length_a                   14.902(4)
_cell_length_b                   8.969(2)
_cell_length_c                   18.434(5)
_cell_angle_alpha                90
_cell_angle_beta                 112.397(9)
_cell_angle_gamma                90
_cell_volume                     2277.96
loop_
_atom_site_label
_atom_site_type_symbol
_atom_site_fract_x
_atom_site_fract_y
_atom_site_fract_z
Co1 Co 1.0000 0.5000 0.5000
O1 O 1.05915(11) 0.57279(16) 0.42244(9)
O2 O 1.03432(11) 0.70182(16) 0.55771(9)
N1 N 0.85669(12) 0.5909(2) 0.42004(11)
C1 C 1.1338(2) 0.7269(3) 0.35847(15)
H1 H 1.1639 0.6386 0.3488
H2 H 1.1800 0.8070 0.3731
H3 H 1.0795 0.7536 0.3118
C2 C 1.09900(13) 0.6977(2) 0.42406(12)
C3 C 1.11304(16) 0.8071(2) 0.48057(13)
H4 H 1.1475 0.8911 0.4766
C4 C 1.08130(13) 0.8051(2) 0.54260(12)
C5 C 1.1025(2) 0.9398(3) 0.59583(15)
H5 H 1.0425 0.9817 0.5944
H6 H 1.1368 1.0128 0.5783
H7 H 1.1414 0.9103 0.6485
C6 C 0.84230(17) 0.6495(3) 0.34991(13)
H8 H 0.8919 0.6417 0.3312
C7 C 0.75795(17) 0.7208(3) 0.30386(14)
H9 H 0.7522 0.7604 0.2557
C8 C 0.68168(15) 0.7340(2) 0.32870(13)
C9 C 0.69650(17) 0.6708(3) 0.40065(16)
H10 H 0.6473 0.6743 0.4200
C10 C 0.78293(17) 0.6030(3) 0.44390(16)
H11 H 0.7905 0.5633 0.4925
C11 C 0.59061(17) 0.8163(3) 0.28293(15)
H12 H 0.5996 0.8671 0.2397
H13 H 0.5803 0.8920 0.3165
C12 C 0.5000 0.7208(3) 0.2500
H14 H 0.4958 0.6573 0.2912
Co1A Co 0.0000 0.5000 0.0000
O1D O 0.94085(11) 0.42721(16) 0.57756(9)
O2D O 0.96568(11) 0.29818(16) 0.44229(9)
N1A N 0.14331(12) 0.5909(2) 0.07996(11)
N1D N 1.14331(12) 0.4091(2) 0.57996(11)
C1D C 0.8662(2) 0.2731(3) 0.64153(15)
H1D H 0.8361 0.3614 0.6512
H2D H 0.8200 0.1930 0.6269
H3D H 0.9205 0.2464 0.6882
C2D C 0.90100(13) 0.3023(2) 0.57594(12)
C3D C 0.88696(16) 0.1929(2) 0.51943(13)
H4D H 0.8525 0.1089 0.5234
C4D C 0.91870(13) 0.1949(2) 0.45740(12)
C5D C 0.8975(2) 0.0602(3) 0.40417(15)
H5D H 0.9575 0.0183 0.4056
H6D H 0.8632 -0.0128 0.4217
H7D H 0.8586 0.0897 0.3515
C6A C 0.15770(17) 0.6495(3) 0.15009(13)
H8A H 0.1081 0.6417 0.1688
C7A C 0.24205(17) 0.7208(3) 0.19614(14)
H9A H 0.2478 0.7604 0.2443
C8A C 0.31832(15) 0.7340(2) 0.17130(13)
C9A C 0.30350(17) 0.6708(3) 0.09935(16)
H10A H 0.3527 0.6743 0.0800
C10A C 0.21707(17) 0.6030(3) 0.05610(16)
H11A H 0.2095 0.5633 0.0075
C11A C 0.40939(17) 0.8163(3) 0.21707(15)
H12A H 0.4004 0.8671 0.2603
H13A H 0.4197 0.8920 0.1835
H14A H 0.5042 0.6573 0.2088
loop_
_geom_bond_atom_site_label_1
_geom_bond_atom_site_label_2
_geom_bond_site_symmetry_1
_geom_bond_site_symmetry_2
Co1 O1 1_555 1_555
O1 C2 1_555 1_555
O2 Co1 1_555 1_555
N1 Co1 1_555 1_555
C1 H1 1_555 1_555
H2 C1 1_555 1_555
H3 C1 1_555 1_555
C2 C1 1_555 1_555
C3 C2 1_555 1_555
H4 C3 1_555 1_555
C4 O2 1_555 1_555
C5 C4 1_555 1_555
H5 C5 1_555 1_555
H6 C5 1_555 1_555
H7 C5 1_555 1_555
C6 N1 1_555 1_555
H8 C6 1_555 1_555
C7 C6 1_555 1_555
H9 C7 1_555 1_555
C8 C7 1_555 1_555
C9 C8 1_555 1_555
H10 C9 1_555 1_555
C10 N1 1_555 1_555
H11 C10 1_555 1_555
C11 C8 1_555 1_555
H12 C11 1_555 1_555
H13 C11 1_555 1_555
C12 C11 1_555 1_555
H14 C12 1_555 1_555
Co1A N1A 1_555 1_555
O1D Co1 1_555 1_555
O2D Co1 1_555 1_555
N1A C6A 1_555 1_555
N1D Co1 1_555 1_555
C1D H1D 1_555 1_555
H2D C1D 1_555 1_555
H3D C1D 1_555 1_555
C2D O1D 1_555 1_555
C3D C2D 1_555 1_555
H4D C3D 1_555 1_555
C4D O2D 1_555 1_555
C5D C4D 1_555 1_555
H5D C5D 1_555 1_555
H6D C5D 1_555 1_555
H7D C5D 1_555 1_555
C6A H8A 1_555 1_555
C7A C6A 1_555 1_555
H9A C7A 1_555 1_555
C8A C7A 1_555 1_555
C9A C8A 1_555 1_555
H10A C9A 1_555 1_555
C10A N1A 1_555 1_555
H11A C10A 1_555 1_555
C11A C12 1_555 1_555
H12A C11A 1_555 1_555
H13A C11A 1_555 1_555
H14A C12 1_555 1_555
C3 C4 1_555 1_555
C9 C10 1_555 1_555
C1D C2D 1_555 1_555
C3D C4D 1_555 1_555
C8A C11A 1_555 1_555
C9A C10A 1_555 1_555

#END
