
#######################################################################
#
#                 Cambridge Crystallographic Data Centre
#                                CCDC 
#
#######################################################################
#
# If this CIF has been generated from an entry in the Cambridge 
# Structural Database, then it will include bibliographic, chemical, 
# crystal, experimental, refinement or atomic coordinate data resulting 
# from the CCDC's data processing and validation procedures.
#
#######################################################################

data_QUBPUY
_symmetry_cell_setting           monoclinic
_symmetry_space_group_name_H-M   'P 21'
_symmetry_Int_Tables_number      4
_space_group_name_Hall           'P 2yb'
loop_
_symmetry_equiv_pos_site_id
_symmetry_equiv_pos_as_xyz
1 x,y,z
2 -x,1/2+y,-z
_cell_length_a                   11.1777(5)
_cell_length_b                   8.2217(4)
_cell_length_c                   14.5203(7)
_cell_angle_alpha                90
_cell_angle_beta                 94.601(2)
_cell_angle_gamma                90
_cell_volume                     1330.11
loop_
_atom_site_label
_atom_site_type_symbol
_atom_site_fract_x
_atom_site_fract_y
_atom_site_fract_z
Tl1 Tl -0.813285(13) 0.03438(3) 0.449497(10)
S1 S -0.92813(10) 0.0438(2) 0.25714(8)
S2 S -1.18197(12) 0.1345(2) 0.24279(10)
S3 S -0.64302(11) 0.2629(2) 0.34378(9)
S4 S -0.64889(12) 0.1937(2) 0.14532(9)
S5 S -0.96808(14) 0.3196(2) 0.47933(9)
S6 S -0.76177(14) 0.5335(4) 0.53225(8)
N1 N -1.0197(4) 0.3524(5) 0.2702(3)
N2 N -0.8118(4) 0.3692(5) 0.2093(3)
N3 N -0.8450(4) 0.5119(8) 0.3639(3)
C1 C -1.0319(4) 0.1920(6) 0.2573(3)
C2 C -1.1293(5) 0.4353(7) 0.2762(3)
C3 C -1.1464(5) 0.5974(8) 0.2968(4)
H1 H -1.0798(5) 0.6688(8) 0.3071(4)
C4 C -1.2627(6) 0.6539(9) 0.3022(4)
H2 H -1.2751(6) 0.7651(9) 0.3164(4)
C5 C -1.3614(5) 0.5514(12) 0.2875(4)
H3 H -1.4401(5) 0.5933(12) 0.2911(4)
C6 C -1.3453(5) 0.3889(10) 0.2676(4)
H4 H -1.4121(5) 0.3178(10) 0.2575(4)
C7 C -1.2295(5) 0.3323(7) 0.2627(4)
C8 C -0.7108(4) 0.2869(6) 0.2373(3)
C9 C -0.8407(4) 0.3587(6) 0.1134(3)
C10 C -0.9405(5) 0.4309(7) 0.0649(3)
H5 H -0.9962(5) 0.4933(7) 0.0962(3)
C11 C -0.9557(5) 0.4085(8) -0.0304(4)
H6 H -1.0224(5) 0.4568(8) -0.0648(4)
C12 C -0.8747(6) 0.3168(8) -0.0757(4)
H7 H -0.8864(6) 0.3053(8) -0.1409(4)
C13 C -0.7767(6) 0.2408(8) -0.0285(4)
H8 H -0.7230(6) 0.1751(8) -0.0597(4)
C14 C -0.7610(5) 0.2657(7) 0.0675(4)
C15 C -0.8631(5) 0.4527(7) 0.4478(3)
C16 C -0.7512(4) 0.6249(7) 0.3654(4)
C17 C -0.7149(5) 0.7105(7) 0.2890(5)
H9 H -0.7548(5) 0.6966(7) 0.2292(5)
C18 C -0.6177(6) 0.8175(9) 0.3040(6)
H10 H -0.5924(6) 0.8795(9) 0.2539(6)
C19 C -0.5570(6) 0.8345(9) 0.3924(7)
H11 H -0.4888(6) 0.9037(9) 0.4006(7)
C20 C -0.5951(6) 0.7528(9) 0.4663(6)
H12 H -0.5555(6) 0.7669(9) 0.5261(6)
C21 C -0.6924(6) 0.6489(8) 0.4528(4)
B1 B -0.9030(4) 0.4571(7) 0.2675(3)
H15 H -0.9295(4) 0.5691(7) 0.2298(3)
S5A S -1.03192(14) -0.1804(2) 0.52067(9)
Tl1A Tl -1.186715(13) 0.53438(3) 0.550503(10)
C22 C -0.6440(7) 0.6635(11) -0.0183(5)
H13 H -0.6031(7) 0.7038(11) -0.0684(5)
H14 H -0.6887(7) 0.5706(11) -0.0394(5)
Cl1 Cl -0.5390(2) 0.6059(4) 0.0709(2)
Cl2 Cl -0.7420(3) 0.8110(4) 0.0155(2)
loop_
_geom_bond_atom_site_label_1
_geom_bond_atom_site_label_2
_geom_bond_site_symmetry_1
_geom_bond_site_symmetry_2
Tl1 S1 1_555 1_555
S1 C1 1_555 1_555
S2 C1 1_555 1_555
S3 Tl1 1_555 1_555
S4 C8 1_555 1_555
S5 Tl1 1_555 1_555
S6 C15 1_555 1_555
N1 C1 1_555 1_555
N2 C8 1_555 1_555
N3 C15 1_555 1_555
C2 N1 1_555 1_555
C3 C2 1_555 1_555
H1 C3 1_555 1_555
C4 C3 1_555 1_555
H2 C4 1_555 1_555
C5 C4 1_555 1_555
H3 C5 1_555 1_555
C6 C5 1_555 1_555
H4 C6 1_555 1_555
C7 S2 1_555 1_555
C8 S3 1_555 1_555
C9 N2 1_555 1_555
C10 C9 1_555 1_555
H5 C10 1_555 1_555
C11 C10 1_555 1_555
H6 C11 1_555 1_555
C12 C11 1_555 1_555
H7 C12 1_555 1_555
C13 C12 1_555 1_555
H8 C13 1_555 1_555
C14 S4 1_555 1_555
C15 S5 1_555 1_555
C16 N3 1_555 1_555
C17 C16 1_555 1_555
H9 C17 1_555 1_555
C18 C17 1_555 1_555
H10 C18 1_555 1_555
C19 C18 1_555 1_555
H11 C19 1_555 1_555
C20 C19 1_555 1_555
H12 C20 1_555 1_555
C21 S6 1_555 1_555
C22 H13 1_555 1_555
H14 C22 1_555 1_555
B1 N1 1_555 1_555
H15 B1 1_555 1_555
Cl1 C22 1_555 1_555
Cl2 C22 1_555 1_555
S5A Tl1 1_555 1_555
Tl1A S5 1_555 1_555
N2 B1 1_555 1_555
N3 B1 1_555 1_555
C2 C7 1_555 1_555
C6 C7 1_555 1_555
C9 C14 1_555 1_555
C13 C14 1_555 1_555
C16 C21 1_555 1_555
C20 C21 1_555 1_555

#END
