
#######################################################################
#
#                 Cambridge Crystallographic Data Centre
#                                CCDC 
#
#######################################################################
#
# If this CIF has been generated from an entry in the Cambridge 
# Structural Database, then it will include bibliographic, chemical, 
# crystal, experimental, refinement or atomic coordinate data resulting 
# from the CCDC's data processing and validation procedures.
#
#######################################################################

data_QUBQEL
_symmetry_cell_setting           triclinic
_symmetry_space_group_name_H-M   'P -1'
_symmetry_Int_Tables_number      2
_space_group_name_Hall           '-P 1'
loop_
_symmetry_equiv_pos_site_id
_symmetry_equiv_pos_as_xyz
1 x,y,z
2 -x,-y,-z
_cell_length_a                   7.7712(6)
_cell_length_b                   9.6697(7)
_cell_length_c                   16.5905(12)
_cell_angle_alpha                79.677(4)
_cell_angle_beta                 81.264(4)
_cell_angle_gamma                77.605(4)
_cell_volume                     1189.55
loop_
_atom_site_label
_atom_site_type_symbol
_atom_site_fract_x
_atom_site_fract_y
_atom_site_fract_z
U1 U 0.74230(2) 0.20573(2) 0.15160(2)
U2 U 0.70663(2) 0.65671(2) 0.37500(2)
O1 O 0.6876(4) 0.0370(4) 0.14830(19)
O2 O 0.8637(6) 0.7728(4) 0.2485(2)
H1 H 0.954(6) 0.742(6) 0.216(3)
H2 H 0.820(7) 0.855(4) 0.226(3)
O3 O 0.8004(4) 0.3720(4) 0.1553(2)
O4 O 0.6403(4) 0.5459(4) 0.3165(2)
O5 O 0.7729(4) 0.7636(4) 0.4352(2)
O6 O 0.5298(4) 0.8637(4) 0.3085(2)
O7 O 0.9952(4) 0.5331(4) 0.3554(2)
O8 O 0.4289(4) 0.3217(4) 0.1342(2)
O9 O 0.6141(4) 0.3004(4) 0.02199(19)
O10 O -0.0402(4) 0.1744(4) 0.02973(19)
O11 O 0.0559(4) 0.0892(4) 0.1492(2)
O12 O 0.8314(4) 0.1128(4) 0.28876(19)
O13 O 0.5534(4) 0.2139(4) 0.28247(19)
O14 O 0.5842(4) 0.2997(4) 0.5535(2)
O15 O 0.7146(4) 0.4767(4) 0.48916(19)
N1 N 0.3082(11) 0.8029(7) 0.2603(5)
H3 H 0.3658 0.7138 0.2613
H4 H 0.2024 0.8285 0.2434
N2 N 0.2914(6) 1.0320(5) 0.2806(3)
H5 H 0.3384 1.0973 0.2954
H6 H 0.1857 1.0556 0.2635
N3 N 1.1061(5) 0.4052(5) 0.2511(3)
H7 H 1.0009 0.4191 0.2342
H8 H 1.1986 0.3548 0.2248
N4 N 1.2845(5) 0.4409(5) 0.3409(3)
H9 H 1.2975 0.4786 0.3836
H10 H 1.3771 0.3906 0.3146
C1 C 0.3800(8) 0.8975(6) 0.2842(3)
C2 C 1.1251(6) 0.4600(5) 0.3160(3)
C3 C 0.4555(6) 0.3259(5) 0.0566(3)
C4 C 0.3057(6) 0.3528(6) 0.0051(3)
H11 H 0.3158 0.4361 -0.0385
H12 H 0.1912 0.3750 0.0401
C5 C 0.3110(6) 0.2199(5) -0.0343(3)
H13 H 0.2215 0.2430 -0.0737
H14 H 0.4292 0.1944 -0.0658
C6 C 0.2749(6) 0.0914(5) 0.0289(3)
H15 H 0.2933 0.0061 0.0010
H16 H 0.3599 0.0712 0.0703
C7 C 0.0889(6) 0.1181(5) 0.0717(3)
C8 C 0.6777(6) 0.1467(5) 0.3256(3)
C9 C 0.6360(6) 0.1071(5) 0.4175(3)
H17 H 0.5959 0.0143 0.4291
H18 H 0.5371 0.1804 0.4380
C10 C 0.7940(6) 0.0954(5) 0.4643(3)
H19 H 0.7648 0.0540 0.5226
H20 H 0.8968 0.0294 0.4402
C11 C 0.8453(6) 0.2398(5) 0.4614(3)
H21 H 0.9550 0.2246 0.4880
H22 H 0.8718 0.2819 0.4030
C12 C 0.7029(6) 0.3449(5) 0.5036(3)
U1_2 U -0.25770(2) 0.20573(2) 0.15160(2)
U2A U 0.29337(2) 0.34329(2) 0.62500(2)
O10_2 O 0.9598(4) 0.1744(4) 0.02973(19)
O11_2 O 1.0559(4) 0.0892(4) 0.1492(2)
O14A O 0.4158(4) 0.7003(4) 0.4465(2)
O16 O 1.1174(6) 0.7069(6) 0.1271(3)
H23 H 1.089(10) 0.724(7) 0.079(2)
H24 H 1.127(11) 0.618(3) 0.142(4)
loop_
_geom_bond_atom_site_label_1
_geom_bond_atom_site_label_2
_geom_bond_site_symmetry_1
_geom_bond_site_symmetry_2
U1 O1 1_555 1_555
U2 O2 1_555 1_555
O2 H1 1_555 1_555
H2 O2 1_555 1_555
O3 U1 1_555 1_555
O4 U2 1_555 1_555
O5 U2 1_555 1_555
O6 U2 1_555 1_555
O7 U2 1_555 1_555
O8 U1 1_555 1_555
O9 U1 1_555 1_555
O10 C7 1_555 1_555
O11 C7 1_555 1_555
O12 U1 1_555 1_555
O13 U1 1_555 1_555
O14 C12 1_555 1_555
O15 U2 1_555 1_555
N1 H3 1_555 1_555
H4 N1 1_555 1_555
N2 H5 1_555 1_555
H6 N2 1_555 1_555
N3 H7 1_555 1_555
H8 N3 1_555 1_555
N4 H9 1_555 1_555
H10 N4 1_555 1_555
C1 O6 1_555 1_555
C2 O7 1_555 1_555
C3 O8 1_555 1_555
C4 C3 1_555 1_555
H11 C4 1_555 1_555
H12 C4 1_555 1_555
C5 C4 1_555 1_555
H13 C5 1_555 1_555
H14 C5 1_555 1_555
C6 C5 1_555 1_555
H15 C6 1_555 1_555
H16 C6 1_555 1_555
C7 C6 1_555 1_555
C8 O12 1_555 1_555
C9 C8 1_555 1_555
H17 C9 1_555 1_555
H18 C9 1_555 1_555
C10 C9 1_555 1_555
H19 C10 1_555 1_555
H20 C10 1_555 1_555
C11 C10 1_555 1_555
H21 C11 1_555 1_555
H22 C11 1_555 1_555
C12 O15 1_555 1_555
O16 H23 1_555 1_555
H24 O16 1_555 1_555
U1_2 O10 1_555 1_555
U2A O14 1_555 1_555
O10_2 U1 1_555 1_555
O11_2 U1 1_555 1_555
O14A U2 1_555 1_555
O9 C3 1_555 1_555
O11 U1_2 1_555 1_555
O13 C8 1_555 1_555
N1 C1 1_555 1_555
N2 C1 1_555 1_555
N3 C2 1_555 1_555
N4 C2 1_555 1_555
C11 C12 1_555 1_555

#END
