
#######################################################################
#
#                 Cambridge Crystallographic Data Centre
#                                CCDC 
#
#######################################################################
#
# If this CIF has been generated from an entry in the Cambridge 
# Structural Database, then it will include bibliographic, chemical, 
# crystal, experimental, refinement or atomic coordinate data resulting 
# from the CCDC's data processing and validation procedures.
#
#######################################################################

data_QUBQAH
_symmetry_cell_setting           monoclinic
_symmetry_space_group_name_H-M   'P 21/c'
_symmetry_Int_Tables_number      14
_space_group_name_Hall           '-P 2ybc'
loop_
_symmetry_equiv_pos_site_id
_symmetry_equiv_pos_as_xyz
1 x,y,z
2 -x,1/2+y,1/2-z
3 -x,-y,-z
4 x,1/2-y,1/2+z
_cell_length_a                   20.918(5)
_cell_length_b                   7.4539(17)
_cell_length_c                   20.168(5)
_cell_angle_alpha                90
_cell_angle_beta                 95.486(2)
_cell_angle_gamma                90
_cell_volume                     3130.2
loop_
_atom_site_label
_atom_site_type_symbol
_atom_site_fract_x
_atom_site_fract_y
_atom_site_fract_z
Ba1 Ba 0.495270(9) 0.13240(2) 0.693864(10)
C1 C 0.78936(14) 1.0922(4) 0.82519(15)
C2 C 0.83573(14) 1.2236(4) 0.84152(15)
C3 C 0.84377(16) 1.3630(4) 0.79768(16)
H1 H 0.8746 1.4506 0.8088
C4 C 0.80641(17) 1.3725(5) 0.73780(17)
H2 H 0.8120 1.4669 0.7087
C5 C 0.76108(17) 1.2438(5) 0.72080(17)
H3 H 0.7360 1.2506 0.6802
C6 C 0.75271(15) 1.1038(4) 0.76410(15)
H4 H 0.7221 1.0161 0.7522
C7 C 0.97136(14) 1.2999(4) 1.09258(15)
C8 C 1.03054(15) 1.2142(4) 1.10282(17)
H5 H 1.0496 1.1677 1.0668
C9 C 1.06104(17) 1.1980(5) 1.16636(18)
H6 H 1.1008 1.1414 1.1727
C10 C 1.03329(18) 1.2646(5) 1.22013(18)
H7 H 1.0540 1.2537 1.2628
C11 C 0.97448(17) 1.3478(4) 1.21015(17)
H8 H 0.9554 1.3911 1.2467
C12 C 0.94291(14) 1.3689(4) 1.14696(15)
C13 C 0.84385(14) 1.7592(4) 1.09925(14)
C14 C 0.78262(14) 1.7279(4) 1.11701(14)
H9 H 0.7736 1.6232 1.1394
C15 C 0.73460(14) 1.8542(4) 1.10124(14)
C16 C 0.74772(15) 2.0097(4) 1.06724(15)
H10 H 0.7155 2.0937 1.0566
C17 C 0.80906(15) 2.0389(4) 1.04923(15)
H11 H 0.8179 2.1419 1.0258
C18 C 0.85682(15) 1.9165(4) 1.06585(15)
H12 H 0.8982 1.9387 1.0547
C19 C 0.88101(15) 1.4702(4) 1.13777(17)
H13 H 0.8506 1.4080 1.1065
H14 H 0.8625 1.4807 1.1799
C20 C 0.66856(16) 1.8228(5) 1.12306(18)
C21 C 0.96693(15) 1.2690(4) 0.97431(15)
H15 H 0.9726 1.1398 0.9748
H16 H 1.0089 1.3245 0.9743
C22 C 0.68611(14) 0.5380(4) 0.83909(15)
H17 H 0.6728 0.5589 0.7944
C23 C 0.72793(15) 0.6575(4) 0.87383(15)
C24 C 0.74700(18) 0.6283(5) 0.94025(16)
H18 H 0.7744 0.7088 0.9640
C25 C 0.7249(2) 0.4778(5) 0.97136(19)
H19 H 0.7375 0.4577 1.0162
C26 C 0.68444(19) 0.3576(5) 0.93660(17)
H20 H 0.6708 0.2556 0.9577
C27 C 0.66412(14) 0.3886(4) 0.87027(15)
C28 C 0.77784(15) 0.9454(4) 0.87364(15)
H21 H 0.8183 0.9067 0.8967
H22 H 0.7507 0.9891 0.9065
C29 C 0.61732(14) 0.2606(4) 0.83393(16)
C30 C 0.92553(16) 1.3231(4) 0.91324(17)
H23 H 0.9099 1.4443 0.9186
H24 H 0.9506 1.3217 0.8752
O1 O 0.89480(10) 1.6453(3) 1.11264(11)
O2 O 0.74753(12) 0.7992(3) 0.83794(11)
O3 O 0.61903(12) 0.1001(3) 0.85203(13)
O4 O 0.57880(10) 0.3227(3) 0.78817(12)
O5 O 0.51734(10) 0.5089(3) 0.67327(11)
H25 H 0.4886 0.5650 0.6517
H26 H 0.5513 0.5269 0.6565
O6 O 0.58474(10) -0.1281(3) 0.74842(11)
H27 H 0.6094 -0.1496 0.7198
H28 H 0.6034 -0.0647 0.7774
O7 O 0.5104(2) -0.1116(5) 0.5893(2)
H29 H 0.5407 -0.1378 0.5550
H30 H 0.4901 -0.1974 0.5595
O8 O 0.63053(13) 1.9529(4) 1.12004(18)
O9 O 0.65580(12) 1.6698(3) 1.14384(14)
O10 O 0.93753(10) 1.3237(3) 1.03172(10)
O11 O 0.60464(13) 0.1837(4) 0.62688(16)
H31 H 0.6278 0.2710 0.6235
H32 H 0.6275 0.1042 0.6209
O12 O 0.87239(10) 1.2034(3) 0.90167(10)
O13 O 0.41812(16) 0.2757(6) 0.58085(18)
H33 H 0.4326 0.1728 0.5633
H34 H 0.4055 0.3302 0.5438
Ba1A Ba 0.504730(9) -0.36760(2) 0.806136(10)
Ba1A_2 Ba 0.504730(9) 0.63240(2) 0.806136(10)
O4A O 0.42120(10) -0.1773(3) 0.71183(12)
O5A O 0.48266(10) 0.0089(3) 0.82673(11)
O6A O 0.41526(10) 0.3719(3) 0.75158(11)
O14 O 0.4553(3) 0.6248(11) 0.5015(3)
loop_
_geom_bond_atom_site_label_1
_geom_bond_atom_site_label_2
_geom_bond_site_symmetry_1
_geom_bond_site_symmetry_2
Ba1 O4 1_555 1_555
C1 C2 1_555 1_555
C2 C3 1_555 1_555
C3 H1 1_555 1_555
C4 C3 1_555 1_555
H2 C4 1_555 1_555
C5 C4 1_555 1_555
H3 C5 1_555 1_555
C6 C1 1_555 1_555
H4 C6 1_555 1_555
C7 C8 1_555 1_555
C8 H5 1_555 1_555
C9 C8 1_555 1_555
H6 C9 1_555 1_555
C10 C9 1_555 1_555
H7 C10 1_555 1_555
C11 C10 1_555 1_555
H8 C11 1_555 1_555
C12 C7 1_555 1_555
C13 C14 1_555 1_555
C14 H9 1_555 1_555
C15 C14 1_555 1_555
C16 C15 1_555 1_555
H10 C16 1_555 1_555
C17 C16 1_555 1_555
H11 C17 1_555 1_555
C18 C13 1_555 1_555
H12 C18 1_555 1_555
C19 C12 1_555 1_555
H13 C19 1_555 1_555
H14 C19 1_555 1_555
C20 C15 1_555 1_555
C21 H15 1_555 1_555
H16 C21 1_555 1_555
C22 H17 1_555 1_555
C23 C22 1_555 1_555
C24 C23 1_555 1_555
H18 C24 1_555 1_555
C25 C24 1_555 1_555
H19 C25 1_555 1_555
C26 C25 1_555 1_555
H20 C26 1_555 1_555
C27 C22 1_555 1_555
C28 C1 1_555 1_555
H21 C28 1_555 1_555
H22 C28 1_555 1_555
C29 C27 1_555 1_555
C30 C21 1_555 1_555
H23 C30 1_555 1_555
H24 C30 1_555 1_555
O1 C13 1_555 1_555
O2 C23 1_555 1_555
O3 C29 1_555 1_555
O4 C29 1_555 1_555
O5 Ba1 1_555 1_555
H25 O5 1_555 1_555
H26 O5 1_555 1_555
O6 Ba1 1_555 1_555
H27 O6 1_555 1_555
H28 O6 1_555 1_555
O7 Ba1 1_555 1_555
H29 O7 1_555 1_555
H30 O7 1_555 1_555
O8 C20 1_555 1_555
O9 C20 1_555 1_555
O10 C7 1_555 1_555
O11 Ba1 1_555 1_555
H31 O11 1_555 1_555
H32 O11 1_555 1_555
O12 C2 1_555 1_555
O13 Ba1 1_555 1_555
H33 O13 1_555 1_555
H34 O13 1_555 1_555
Ba1A O6 1_555 1_555
Ba1A_2 O4 1_555 1_555
O4A Ba1 1_555 1_555
O5A Ba1 1_555 1_555
O6A Ba1 1_555 1_555
C5 C6 1_555 1_555
C11 C12 1_555 1_555
C17 C18 1_555 1_555
C19 O1 1_555 1_555
C21 O10 1_555 1_555
C26 C27 1_555 1_555
C28 O2 1_555 1_555
C30 O12 1_555 1_555
O5 Ba1A_2 1_555 1_555
Ba1A O4A 1_555 1_555
Ba1A O5A 1_555 1_555
Ba1A_2 O6A 1_555 1_555

#END
