
#######################################################################
#
#                 Cambridge Crystallographic Data Centre
#                                CCDC 
#
#######################################################################
#
# If this CIF has been generated from an entry in the Cambridge 
# Structural Database, then it will include bibliographic, chemical, 
# crystal, experimental, refinement or atomic coordinate data resulting 
# from the CCDC's data processing and validation procedures.
#
#######################################################################

data_QUBQIP
_symmetry_cell_setting           triclinic
_symmetry_space_group_name_H-M   'P -1'
_symmetry_Int_Tables_number      2
_space_group_name_Hall           '-P 1'
loop_
_symmetry_equiv_pos_site_id
_symmetry_equiv_pos_as_xyz
1 x,y,z
2 -x,-y,-z
_cell_length_a                   8.7211(4)
_cell_length_b                   9.4515(5)
_cell_length_c                   9.6105(4)
_cell_angle_alpha                61.154(2)
_cell_angle_beta                 71.166(3)
_cell_angle_gamma                66.974(3)
_cell_volume                     629.694
loop_
_atom_site_label
_atom_site_type_symbol
_atom_site_fract_x
_atom_site_fract_y
_atom_site_fract_z
U1 U 0.33266(4) 0.81889(4) 0.29253(4)
O1 O 0.1728(9) 1.0092(9) 0.2500(9)
O2 O 0.4937(8) 0.6271(8) 0.3307(8)
O3 O 0.1695(8) 0.7005(8) 0.5629(7)
O4 O 0.3646(8) 0.8015(9) 0.5457(7)
O5 O 0.4693(9) 1.0363(9) 0.7702(8)
O6 O 0.4211(10) 0.8657(9) 1.0250(8)
O7 O 0.1636(8) 0.6941(8) 0.2705(7)
N1 N 0.0194(10) 0.5419(10) 0.2717(10)
H1 H 0.0124 0.4426 0.2936
N2 N 0.2609(10) 0.4072(10) 0.3863(10)
H2 H 0.3412 0.4152 0.4166
C1 C 0.2531(12) 0.7252(12) 0.6314(11)
C2 C 0.2237(13) 0.6582(13) 0.8129(11)
H3 H 0.2473 0.5343 0.8583
H4 H 0.1030 0.7052 0.8506
C3 C 0.3310(12) 0.6990(12) 0.8790(11)
H5 H 0.3243 0.6301 0.9965
H6 H 0.4505 0.6703 0.8276
C4 C 0.2699(13) 0.8845(12) 0.8465(11)
H7 H 0.2566 0.9531 0.7320
H8 H 0.1581 0.9086 0.9136
C5 C 0.3936(11) 0.9329(12) 0.8841(11)
C6 C 0.1485(12) 0.5483(12) 0.3095(11)
C7 C -0.1090(14) 0.6878(12) 0.1972(13)
H9 H -0.1919 0.6539 0.1801
H10 H -0.1652 0.7487 0.2668
H11 H -0.0582 0.7610 0.0932
C8 C 0.2561(13) 0.2389(12) 0.4224(13)
H12 H 0.3495 0.1532 0.4791
H13 H 0.1485 0.2208 0.4905
H14 H 0.2673 0.2305 0.3217
U1_2 U 0.33266(4) 0.81889(4) 1.29253(4)
U1A U 0.66734(4) 1.18111(4) 0.70747(4)
O5A O 0.5307(9) 0.9637(9) 0.2298(8)
O6_2 O 0.4211(10) 0.8657(9) 0.0250(8)
loop_
_geom_bond_atom_site_label_1
_geom_bond_atom_site_label_2
_geom_bond_site_symmetry_1
_geom_bond_site_symmetry_2
U1 O1 1_555 1_555
O2 U1 1_555 1_555
O3 U1 1_555 1_555
O4 U1 1_555 1_555
O5 C5 1_555 1_555
O6 C5 1_555 1_555
O7 U1 1_555 1_555
N1 H1 1_555 1_555
N2 H2 1_555 1_555
C1 O3 1_555 1_555
C2 C1 1_555 1_555
H3 C2 1_555 1_555
H4 C2 1_555 1_555
C3 C2 1_555 1_555
H5 C3 1_555 1_555
H6 C3 1_555 1_555
C4 C3 1_555 1_555
H7 C4 1_555 1_555
H8 C4 1_555 1_555
C5 C4 1_555 1_555
C6 O7 1_555 1_555
C7 N1 1_555 1_555
H9 C7 1_555 1_555
H10 C7 1_555 1_555
H11 C7 1_555 1_555
C8 N2 1_555 1_555
H12 C8 1_555 1_555
H13 C8 1_555 1_555
H14 C8 1_555 1_555
U1_2 O6 1_555 1_555
U1A O5 1_555 1_555
O5A U1 1_555 1_555
O6_2 U1 1_555 1_555
O4 C1 1_555 1_555
N1 C6 1_555 1_555
N2 C6 1_555 1_555

#END
