
#######################################################################
#
#                 Cambridge Crystallographic Data Centre
#                                CCDC 
#
#######################################################################
#
# If this CIF has been generated from an entry in the Cambridge 
# Structural Database, then it will include bibliographic, chemical, 
# crystal, experimental, refinement or atomic coordinate data resulting 
# from the CCDC's data processing and validation procedures.
#
#######################################################################

data_QUBRAI
_symmetry_cell_setting           monoclinic
_symmetry_space_group_name_H-M   'P 21/m'
_symmetry_Int_Tables_number      11
_space_group_name_Hall           '-P 2yb'
loop_
_symmetry_equiv_pos_site_id
_symmetry_equiv_pos_as_xyz
1 x,y,z
2 -x,1/2+y,-z
3 -x,-y,-z
4 x,1/2-y,z
_cell_length_a                   9.236(2)
_cell_length_b                   21.642(5)
_cell_length_c                   12.378(3)
_cell_angle_alpha                90
_cell_angle_beta                 103.281(3)
_cell_angle_gamma                90
_cell_volume                     2408.01
loop_
_atom_site_label
_atom_site_type_symbol
_atom_site_fract_x
_atom_site_fract_y
_atom_site_fract_z
C1 C 0.2014(10) 0.0565(3) 0.4921(6)
H1 H 0.2432 0.0220 0.5322
C2 C 0.0624(7) 0.1202(3) 0.3653(5)
C3 C 0.4287(7) 0.0918(3) 0.6880(5)
C4 C -0.1234(7) 0.0917(3) 0.1954(5)
C5 C 0.0934(9) 0.0565(3) 0.3970(7)
H2 H 0.0479 0.0220 0.3592
C6 C 0.5828(9) 0.0201(4) 0.7679(6)
H3 H 0.6572 -0.0097 0.7786
C7 C -0.1663(7) 0.0347(4) 0.0442(6)
H4 H -0.1521 0.0146 -0.0190
C8 C 0.2386(8) 0.1198(3) 0.5192(5)
C9 C -0.0796(7) 0.1994(3) 0.2533(5)
C10 C 0.3223(7) 0.1149(3) 1.0654(5)
C11 C -0.1923(9) 0.2189(4) 0.1592(6)
H5 H -0.2537 0.1933 0.1079
C12 C -0.0456(7) 0.1383(3) 0.2740(5)
C13 C 0.3208(7) 0.1852(3) 1.0623(5)
C14 C -0.2619(8) 0.0692(3) 0.1742(6)
H6 H -0.3305 0.0768 0.2171
C15 C 0.3508(7) 0.1382(3) 0.6066(5)
C16 C 0.5111(8) 0.2192(3) 0.7176(6)
H7 H 0.5770 0.1938 0.7661
C17 C 0.3908(8) 0.1992(3) 0.6293(5)
C18 C 0.2265(8) 0.2183(3) 1.1136(7)
H8 H 0.1624 0.1972 1.1485
C19 C 0.4153(8) 0.2171(3) 1.0110(6)
H9 H 0.4792 0.1957 0.9764
C20 C 0.4117(8) 0.0804(3) 0.7933(6)
H10 H 0.3441 0.1003 0.8267
N1 N -0.2891(6) 0.0328(2) 0.0788(4)
N2 N 0.1530(5) 0.1599(2) 0.4414(4)
N3 N -0.0092(8) 0.2500 0.3106(6)
N4 N 0.5104(6) 0.0349(2) 0.8425(4)
N5 N 0.3163(9) 0.2500 0.5711(6)
N6 N 0.5382(8) 0.0529(3) 0.6731(5)
N7 N -0.0610(6) 0.0700(3) 0.1122(5)
Ni1 Ni 0.5000 0.0000 1.0000
Ni2 Ni 0.15300(12) 0.2500 0.44093(9)
O1 O 0.2256(5) 0.0880(2) 1.1032(5)
O2 O 0.4251(5) 0.08912(19) 1.0318(4)
C1C C 0.2014(10) 0.4435(3) 0.4921(6)
H1C H 0.2432 0.4780 0.5322
C2C C 0.0624(7) 0.3798(3) 0.3653(5)
C3C C 0.4287(7) 0.4082(3) 0.6880(5)
C5C C 0.0934(9) 0.4435(3) 0.3970(7)
H2C H 0.0479 0.4780 0.3592
C6C C 0.5828(9) 0.4799(4) 0.7679(6)
H3C H 0.6572 0.5097 0.7786
C8C C 0.2386(8) 0.3802(3) 0.5192(5)
C9C C -0.0796(7) 0.3006(3) 0.2533(5)
C11C C -0.1923(9) 0.2811(4) 0.1592(6)
H5C H -0.2537 0.3067 0.1079
C12C C -0.0456(7) 0.3617(3) 0.2740(5)
C15C C 0.3508(7) 0.3618(3) 0.6066(5)
C16C C 0.5111(8) 0.2808(3) 0.7176(6)
H7C H 0.5770 0.3062 0.7661
C17C C 0.3908(8) 0.3008(3) 0.6293(5)
C20C C 0.4117(8) 0.4196(3) 0.7933(6)
H10C H 0.3441 0.3997 0.8267
N2C N 0.1530(5) 0.3401(2) 0.4414(4)
N4C N 0.5104(6) 0.4651(2) 0.8425(4)
N6C N 0.5382(8) 0.4471(3) 0.6731(5)
C4C C -0.1234(7) 0.4083(3) 0.1954(5)
C7C C -0.1663(7) 0.4653(4) 0.0442(6)
H4C H -0.1521 0.4854 -0.0190
C14C C -0.2619(8) 0.4308(3) 0.1742(6)
H6C H -0.3305 0.4232 0.2171
N1C N -0.2891(6) 0.4672(2) 0.0788(4)
N7C N -0.0610(6) 0.4300(3) 0.1122(5)
C10C C 0.3223(7) 0.3851(3) 1.0654(5)
C13C C 0.3208(7) 0.3148(3) 1.0623(5)
C18C C 0.2265(8) 0.2817(3) 1.1136(7)
H8C H 0.1624 0.3028 1.1485
C19C C 0.4153(8) 0.2829(3) 1.0110(6)
H9C H 0.4792 0.3043 0.9764
O1C O 0.2256(5) 0.4120(2) 1.1032(5)
O2C O 0.4251(5) 0.41088(19) 1.0318(4)
N1_2 N 0.7109(6) 0.0328(2) 1.0788(4)
N1B N 0.2891(6) -0.0328(2) 0.9212(4)
N4B N 0.4896(6) -0.0349(2) 1.1575(4)
Ni1_2 Ni -0.5000 0.0000 0.0000
Ni1A Ni -0.5000 0.5000 0.0000
Ni1A_2 Ni 0.5000 0.5000 1.0000
O2B O 0.5749(5) -0.08912(19) 0.9682(4)
C21 C 0.3788(13) -0.0789(5) 0.5333(9)
H11 H 0.2889 -0.0735 0.4771
H12 H 0.4629 -0.0694 0.5028
H13 H 0.3778 -0.0517 0.5944
C22 C 0.5075(17) -0.1531(7) 0.6493(13)
H14 H 0.4926 -0.1960 0.6631
H15 H 0.5125 -0.1299 0.7161
H16 H 0.5988 -0.1482 0.6257
N8 N 0.387(2) -0.1313(11) 0.5650(16)
H17 H 0.3840 -0.1552 0.5051
H18 H 0.3037 -0.1391 0.5882
loop_
_geom_bond_atom_site_label_1
_geom_bond_atom_site_label_2
_geom_bond_site_symmetry_1
_geom_bond_site_symmetry_2
C1 H1 1_555 1_555
C2 C5 1_555 1_555
C3 C15 1_555 1_555
C4 C12 1_555 1_555
C5 C1 1_555 1_555
H2 C5 1_555 1_555
C6 H3 1_555 1_555
C7 H4 1_555 1_555
C8 C1 1_555 1_555
C9 C11 1_555 1_555
C10 C13 1_555 1_555
C11 H5 1_555 1_555
C12 C2 1_555 1_555
C13 C18 1_555 1_555
C14 C4 1_555 1_555
H6 C14 1_555 1_555
C15 C8 1_555 1_555
C16 H7 1_555 1_555
C17 C15 1_555 1_555
C18 H8 1_555 1_555
C19 C13 1_555 1_555
H9 C19 1_555 1_555
C20 C3 1_555 1_555
H10 C20 1_555 1_555
N1 C7 1_555 1_555
N2 C2 1_555 1_555
N3 C9 1_555 1_555
N4 C6 1_555 1_555
N5 C17 1_555 1_555
N6 C3 1_555 1_555
N7 C4 1_555 1_555
Ni1 N4 1_555 1_555
Ni2 N2 1_555 1_555
O1 C10 1_555 1_555
O2 C10 1_555 1_555
C21 H11 1_555 1_555
H12 C21 1_555 1_555
H13 C21 1_555 1_555
C22 H14 1_555 1_555
H15 C22 1_555 1_555
H16 C22 1_555 1_555
N8 C21 1_555 1_555
H17 N8 1_555 1_555
H18 N8 1_555 1_555
C1C H1C 1_555 1_555
C2C C5C 1_555 1_555
C3C C15C 1_555 1_555
C5C C1C 1_555 1_555
H2C C5C 1_555 1_555
C6C H3C 1_555 1_555
C8C C1C 1_555 1_555
C9C N3 1_555 1_555
C11C C11 1_555 1_555
H5C C11C 1_555 1_555
C12C C2C 1_555 1_555
C15C C8C 1_555 1_555
C16C C16 1_555 1_555
H7C C16C 1_555 1_555
C17C N5 1_555 1_555
C20C C3C 1_555 1_555
H10C C20C 1_555 1_555
N2C Ni2 1_555 1_555
N4C C6C 1_555 1_555
N6C C3C 1_555 1_555
C4C C12C 1_555 1_555
C7C H4C 1_555 1_555
C14C C4C 1_555 1_555
H6C C14C 1_555 1_555
N1C C7C 1_555 1_555
N7C C4C 1_555 1_555
C10C C13C 1_555 1_555
C13C C18C 1_555 1_555
C18C C18 1_555 1_555
H8C C18C 1_555 1_555
C19C C19 1_555 1_555
H9C C19C 1_555 1_555
O1C C10C 1_555 1_555
O2C C10C 1_555 1_555
N1_2 Ni1 1_555 1_555
N1B Ni1 1_555 1_555
N4B Ni1 1_555 1_555
Ni1_2 N1 1_555 1_555
Ni1A N1C 1_555 1_555
Ni1A_2 N4C 1_555 1_555
O2B Ni1 1_555 1_555
C6 N6 1_555 1_555
C7 N7 1_555 1_555
C8 N2 1_555 1_555
C9 C12 1_555 1_555
C14 N1 1_555 1_555
C16 C17 1_555 1_555
C20 N4 1_555 1_555
N3 Ni2 1_555 1_555
N5 Ni2 1_555 1_555
Ni1 O2 1_555 1_555
C22 N8 1_555 1_555
C2C N2C 1_555 1_555
C6C N6C 1_555 1_555
C8C N2C 1_555 1_555
C9C C11C 1_555 1_555
C9C C12C 1_555 1_555
C15C C17C 1_555 1_555
C16C C17C 1_555 1_555
C20C N4C 1_555 1_555
C7C N7C 1_555 1_555
C14C N1C 1_555 1_555
C13C C19C 1_555 1_555
O2C Ni1A_2 1_555 1_555

#END
