
#######################################################################
#
#                 Cambridge Crystallographic Data Centre
#                                CCDC 
#
#######################################################################
#
# If this CIF has been generated from an entry in the Cambridge 
# Structural Database, then it will include bibliographic, chemical, 
# crystal, experimental, refinement or atomic coordinate data resulting 
# from the CCDC's data processing and validation procedures.
#
#######################################################################

data_QUBRUC
_symmetry_cell_setting           orthorhombic
_symmetry_space_group_name_H-M   'C 2 2 21'
_symmetry_Int_Tables_number      20
_space_group_name_Hall           'C 2c 2'
loop_
_symmetry_equiv_pos_site_id
_symmetry_equiv_pos_as_xyz
1 x,y,z
2 -x,-y,1/2+z
3 -x,y,1/2-z
4 1/2-x,1/2-y,1/2+z
5 1/2-x,1/2+y,1/2-z
6 x,-y,-z
7 1/2+x,1/2-y,-z
8 1/2+x,1/2+y,z
_cell_length_a                   13.90990(42)
_cell_length_b                   13.92264(47)
_cell_length_c                   14.96590(14)
_cell_angle_alpha                90
_cell_angle_beta                 90
_cell_angle_gamma                90
_cell_volume                     2898.33
loop_
_atom_site_label
_atom_site_type_symbol
_atom_site_fract_x
_atom_site_fract_y
_atom_site_fract_z
Zr1 Zr 0.51544(21) 0.47684(18) 0.62651(19)
O1 O 0.523525 0.363510 0.328425
O2 O 0.520784 0.422810 0.484452
O3 O 0.496867 0.313279 0.631599
C1 C 0.487215 0.140923 0.442777
C2 C 0.500055 0.204110 0.372274
C3 C 0.511497 0.301357 0.388736
C4 C 0.510099 0.335417 0.475701
C5 C 0.497259 0.272229 0.546204
C6 C 0.485817 0.174983 0.529742
O4 O 0.355535 0.485063 0.581846
O5 O 0.419985 0.469808 0.737587
O6 O 0.325275 0.481705 0.887082
C7 C 0.138060 0.518244 0.714233
C8 C 0.195506 0.510601 0.638952
C9 C 0.293193 0.493793 0.647915
C10 C 0.333434 0.484630 0.732159
C11 C 0.275988 0.492274 0.807439
C12 C 0.178301 0.509081 0.798476
Zr1B Zr 0.48456(21) 0.47684(18) 0.87349(19)
Zr1E Zr 0.51544(21) 0.52316(18) 0.37349(19)
O1E O 0.523525 0.636490 0.671575
O2E O 0.520784 0.577190 0.515548
O5B O 0.580015 0.469808 0.762413
O6B O 0.674725 0.481705 0.612918
C13 C -0.273761 0.165075 0.501251
C14 C -0.268643 0.225607 0.649029
N1 N -0.257457 0.249897 0.555389
loop_
_geom_bond_atom_site_label_1
_geom_bond_atom_site_label_2
_geom_bond_site_symmetry_1
_geom_bond_site_symmetry_2
Zr1 O2 1_555 1_555
O1 C3 1_555 1_555
O2 C4 1_555 1_555
O3 Zr1 1_555 1_555
C1 C2 1_555 1_555
C2 C3 1_555 1_555
C3 C4 1_555 1_555
C4 C5 1_555 1_555
C5 O3 1_555 1_555
C6 C1 1_555 1_555
O4 Zr1 1_555 1_555
O5 Zr1 1_555 1_555
O6 C11 1_555 1_555
C7 C8 1_555 1_555
C8 C9 1_555 1_555
C9 O4 1_555 1_555
C10 O5 1_555 1_555
C11 C10 1_555 1_555
C12 C7 1_555 1_555
C13 N1 1_555 1_555
C14 N1 1_555 1_555
Zr1B O5 1_555 1_555
Zr1E O1 1_555 1_555
O1E Zr1 1_555 1_555
O2E Zr1 1_555 1_555
O5B Zr1 1_555 1_555
O6B Zr1 1_555 1_555
O2 Zr1E 1_555 1_555
C5 C6 1_555 1_555
O6 Zr1B 1_555 1_555
C9 C10 1_555 1_555
C11 C12 1_555 1_555
Zr1B O5B 1_555 1_555
Zr1E O2E 1_555 1_555

#END
