
#######################################################################
#
#                 Cambridge Crystallographic Data Centre
#                                CCDC 
#
#######################################################################
#
# If this CIF has been generated from an entry in the Cambridge 
# Structural Database, then it will include bibliographic, chemical, 
# crystal, experimental, refinement or atomic coordinate data resulting 
# from the CCDC's data processing and validation procedures.
#
#######################################################################

data_QUBXUH01
_symmetry_cell_setting           monoclinic
_symmetry_space_group_name_H-M   'P 21/n'
_symmetry_Int_Tables_number      14
_space_group_name_Hall           '-P 2yn'
loop_
_symmetry_equiv_pos_site_id
_symmetry_equiv_pos_as_xyz
1 x,y,z
2 1/2-x,1/2+y,1/2-z
3 -x,-y,-z
4 1/2+x,1/2-y,1/2+z
_cell_length_a                   14.598(4)
_cell_length_b                   7.3645(18)
_cell_length_c                   19.757(5)
_cell_angle_alpha                90
_cell_angle_beta                 98.849(4)
_cell_angle_gamma                90
_cell_volume                     2098.73
loop_
_atom_site_label
_atom_site_type_symbol
_atom_site_fract_x
_atom_site_fract_y
_atom_site_fract_z
Eu1 Eu 0.79578(5) 0.04105(11) 0.13846(4)
Ag1 Ag 0.87902(16) 0.5033(3) 0.00702(16)
O1 O 0.7938(8) 0.2545(16) 0.0438(6)
O2 O 0.7369(10) 0.3740(19) -0.0562(7)
O3 O 0.6976(8) -0.2267(16) 0.1385(6)
O4 O 0.5963(9) -0.4304(17) 0.0870(7)
O5 O 0.8685(8) -0.1714(16) 0.0688(6)
O6 O 0.9939(10) -0.3023(19) 0.0384(8)
O7 O 0.8670(8) 0.3167(16) 0.1941(6)
O8 O 0.9821(9) 0.5191(18) 0.2148(8)
O9 O 0.8950(8) -0.1577(16) 0.2201(6)
H1 H 0.9553 -0.1002 0.2368
H2 H 0.9225 -0.2310 0.2083
O10 O 0.7473(8) 0.0480(16) 0.2507(6)
H3 H 0.7648 0.0971 0.2783
H4 H 0.7100 -0.0459 0.2619
O11 O 0.6621(8) 0.2424(16) 0.1437(6)
H5 H 0.6612 0.2708 0.1881
H6 H 0.6525 0.3245 0.1282
N1 N 0.6784(10) -0.0178(18) 0.0299(7)
N2 N 0.9643(9) 0.1016(19) 0.1267(7)
C1 C 0.7371(12) 0.254(2) -0.0118(8)
C2 C 0.6712(11) 0.096(2) -0.0233(8)
C3 C 0.6107(13) 0.066(3) -0.0835(10)
H7 H 0.6066 0.1470 -0.1198
C4 C 0.5569(14) -0.089(3) -0.0879(10)
H8 H 0.5158 -0.1132 -0.1277
C5 C 0.5639(13) -0.208(3) -0.0332(9)
H9 H 0.5275 -0.3123 -0.0354
C6 C 0.6265(11) -0.169(2) 0.0246(8)
C7 C 0.6402(12) -0.287(2) 0.0889(8)
C8 C 0.9548(12) -0.175(2) 0.0652(9)
C9 C 1.0117(12) -0.017(2) 0.0952(9)
C10 C 1.1037(13) 0.003(3) 0.0904(11)
H10 H 1.1355 -0.0835 0.0689
C11 C 1.1475(14) 0.158(3) 0.1186(12)
H11 H 1.2101 0.1760 0.1165
C12 C 1.0989(13) 0.284(3) 0.1497(11)
H12 H 1.1277 0.3906 0.1674
C13 C 1.0076(11) 0.253(2) 0.1544(9)
C14 C 0.9486(11) 0.372(2) 0.1908(9)
Ag1_2 Ag 0.87902(16) -0.4967(3) 0.00702(16)
Ag1B Ag 1.12098(16) -0.5033(3) -0.00702(16)
O5_2 O 0.8685(8) 0.8286(16) 0.0688(6)
O6_2 O 0.9939(10) 0.6977(19) 0.0384(8)
O6B O 1.0061(10) 0.3023(19) -0.0384(8)
O12 O 0.3036(10) 0.532(2) 0.1909(8)
H13 H 0.2907 0.5689 0.1526
H14 H 0.2646 0.5903 0.2104
O13 O 0.1635(11) 0.674(3) 0.2554(11)
H15 H 0.1709 0.7880 0.2536
H16 H 0.1086 0.6337 0.2447
O14 O 0.0082(11) 0.050(3) 0.3030(9)
H17 H -0.0021 0.0426 0.3442
H18 H 0.0644 0.0617 0.2974
loop_
_geom_bond_atom_site_label_1
_geom_bond_atom_site_label_2
_geom_bond_site_symmetry_1
_geom_bond_site_symmetry_2
Eu1 O1 1_555 1_555
Ag1 O1 1_555 1_555
O1 C1 1_555 1_555
O2 Ag1 1_555 1_555
O3 Eu1 1_555 1_555
O4 C7 1_555 1_555
O5 Eu1 1_555 1_555
O6 C8 1_555 1_555
O7 Eu1 1_555 1_555
O8 C14 1_555 1_555
O9 Eu1 1_555 1_555
H1 O9 1_555 1_555
H2 O9 1_555 1_555
O10 Eu1 1_555 1_555
H3 O10 1_555 1_555
H4 O10 1_555 1_555
O11 Eu1 1_555 1_555
H5 O11 1_555 1_555
H6 O11 1_555 1_555
N1 Eu1 1_555 1_555
N2 Eu1 1_555 1_555
C1 O2 1_555 1_555
C2 N1 1_555 1_555
C3 C2 1_555 1_555
H7 C3 1_555 1_555
C4 C3 1_555 1_555
H8 C4 1_555 1_555
C5 C4 1_555 1_555
H9 C5 1_555 1_555
C6 N1 1_555 1_555
C7 O3 1_555 1_555
C8 O5 1_555 1_555
C9 N2 1_555 1_555
C10 C9 1_555 1_555
H10 C10 1_555 1_555
C11 C10 1_555 1_555
H11 C11 1_555 1_555
C12 C11 1_555 1_555
H12 C12 1_555 1_555
C13 N2 1_555 1_555
C14 O7 1_555 1_555
O12 H13 1_555 1_555
H14 O12 1_555 1_555
O13 H15 1_555 1_555
H16 O13 1_555 1_555
O14 H17 1_555 1_555
H18 O14 1_555 1_555
Ag1_2 O5 1_555 1_555
Ag1B O6 1_555 1_555
O5_2 Ag1 1_555 1_555
O6_2 Ag1 1_555 1_555
O6B Ag1 1_555 1_555
O6 Ag1_2 1_555 1_555
C1 C2 1_555 1_555
C5 C6 1_555 1_555
C6 C7 1_555 1_555
C8 C9 1_555 1_555
C12 C13 1_555 1_555
C13 C14 1_555 1_555

#END
