
#######################################################################
#
#                 Cambridge Crystallographic Data Centre
#                                CCDC 
#
#######################################################################
#
# If this CIF has been generated from an entry in the Cambridge 
# Structural Database, then it will include bibliographic, chemical, 
# crystal, experimental, refinement or atomic coordinate data resulting 
# from the CCDC's data processing and validation procedures.
#
#######################################################################

data_QUBXUH
_symmetry_cell_setting           monoclinic
_symmetry_space_group_name_H-M   'P 21/n'
_symmetry_Int_Tables_number      14
_space_group_name_Hall           '-P 2yn'
loop_
_symmetry_equiv_pos_site_id
_symmetry_equiv_pos_as_xyz
1 x,y,z
2 1/2-x,1/2+y,1/2-z
3 -x,-y,-z
4 1/2+x,1/2-y,1/2+z
_cell_length_a                   14.590(6)
_cell_length_b                   7.355(3)
_cell_length_c                   19.749(8)
_cell_angle_alpha                90
_cell_angle_beta                 98.878(5)
_cell_angle_gamma                90
_cell_volume                     2093.86
loop_
_atom_site_label
_atom_site_type_symbol
_atom_site_fract_x
_atom_site_fract_y
_atom_site_fract_z
Eu1 Eu 0.795502(19) 1.04079(4) 0.138489(14)
Ag1 Ag 0.87885(6) 1.50227(12) 0.00720(7)
O1 O 0.5958(4) 0.5701(7) 0.0871(3)
O2 O 0.6973(3) 0.7730(6) 0.1390(2)
O3 O 0.7936(3) 1.2533(6) 0.0437(2)
O4 O 0.7370(4) 1.3726(7) -0.0565(3)
O5 O 0.9820(3) 1.5195(7) 0.2146(3)
O6 O 0.9938(4) 0.6982(7) 0.0381(3)
O7 O 0.8684(3) 0.8269(6) 0.0684(2)
O8 O 0.8664(3) 1.3156(6) 0.1937(2)
O9 O 0.6616(3) 1.2428(7) 0.1436(3)
H1 H 0.657(6) 1.331(13) 0.124(4)
H2 H 0.651(6) 1.268(12) 0.179(5)
O10 O 0.7474(4) 1.0477(7) 0.2512(3)
H3 H 0.718(6) 0.964(12) 0.264(5)
H4 H 0.765(6) 1.123(12) 0.274(4)
O11 O 0.8951(3) 0.8422(7) 0.2193(3)
H5 H 0.936(6) 0.908(13) 0.242(5)
H6 H 0.923(6) 0.752(13) 0.214(4)
N1 N 0.6788(4) 0.9811(7) 0.0300(3)
N2 N 0.9636(3) 1.1037(7) 0.1264(3)
C1 C 0.6404(4) 0.7144(9) 0.0888(3)
C2 C 0.6263(4) 0.8326(9) 0.0253(3)
C3 C 0.5642(5) 0.7906(10) -0.0326(4)
H13 H 0.5282 0.6858 -0.0346
C4 C 0.5571(5) 0.9094(11) -0.0879(4)
H14 H 0.5167 0.8835 -0.1280
C5 C 0.6101(5) 1.0663(11) -0.0832(4)
H15 H 0.6048 1.1487 -0.1193
C6 C 0.6714(5) 1.0977(9) -0.0231(3)
C7 C 0.7373(4) 1.2528(9) -0.0118(3)
C8 C 0.9481(4) 1.3729(9) 0.1907(3)
C9 C 1.0074(4) 1.2507(9) 0.1543(3)
C10 C 1.0992(5) 1.2842(10) 0.1496(4)
H16 H 1.1277 1.3905 0.1677
C11 C 1.1481(5) 1.1587(12) 0.1181(4)
H17 H 1.2106 1.1772 0.1158
C12 C 1.1034(5) 1.0040(11) 0.0896(4)
H18 H 1.1349 0.9177 0.0676
C13 C 1.0111(5) 0.9816(9) 0.0949(4)
C14 C 0.9539(5) 0.8246(9) 0.0647(3)
Ag1_2 Ag 0.87885(6) 0.50227(12) 0.00720(7)
Ag1B Ag 1.12115(6) 0.49773(12) -0.00720(7)
O6_2 O 0.9938(4) 1.6982(7) 0.0381(3)
O6B O 1.0062(4) 1.3018(7) -0.0381(3)
O7_2 O 0.8684(3) 1.8269(6) 0.0684(2)
O12 O 0.6962(4) 0.4663(11) 0.8084(4)
H7 H 0.729(8) 0.427(17) 0.787(6)
H8 H 0.709(7) 0.422(17) 0.849(6)
O13 O 0.1641(6) 0.6729(13) 0.2554(6)
H9 H 0.164(11) 0.76(2) 0.260(9)
H10 H 0.115(10) 0.64(2) 0.253(8)
O14 O 0.0079(5) 0.0520(12) 0.3024(4)
H11 H 0.056(10) 0.019(19) 0.305(8)
H12 H -0.006(9) 0.032(17) 0.351(8)
loop_
_geom_bond_atom_site_label_1
_geom_bond_atom_site_label_2
_geom_bond_site_symmetry_1
_geom_bond_site_symmetry_2
Eu1 O2 1_555 1_555
Ag1 O3 1_555 1_555
O1 C1 1_555 1_555
O2 C1 1_555 1_555
O3 Eu1 1_555 1_555
O4 Ag1 1_555 1_555
O5 C8 1_555 1_555
O6 C14 1_555 1_555
O7 Eu1 1_555 1_555
O8 Eu1 1_555 1_555
O9 Eu1 1_555 1_555
H1 O9 1_555 1_555
H2 O9 1_555 1_555
O10 Eu1 1_555 1_555
H3 O10 1_555 1_555
H4 O10 1_555 1_555
O11 Eu1 1_555 1_555
H5 O11 1_555 1_555
H6 O11 1_555 1_555
O12 H7 1_555 1_555
H8 O12 1_555 1_555
O13 H9 1_555 1_555
H10 O13 1_555 1_555
O14 H11 1_555 1_555
H12 O14 1_555 1_555
N1 Eu1 1_555 1_555
N2 Eu1 1_555 1_555
C1 C2 1_555 1_555
C2 N1 1_555 1_555
C3 C2 1_555 1_555
H13 C3 1_555 1_555
C4 C3 1_555 1_555
H14 C4 1_555 1_555
C5 C4 1_555 1_555
H15 C5 1_555 1_555
C6 N1 1_555 1_555
C7 O3 1_555 1_555
C8 O8 1_555 1_555
C9 N2 1_555 1_555
C10 C9 1_555 1_555
H16 C10 1_555 1_555
C11 C10 1_555 1_555
H17 C11 1_555 1_555
C12 C11 1_555 1_555
H18 C12 1_555 1_555
C13 N2 1_555 1_555
C14 O7 1_555 1_555
Ag1_2 O6 1_555 1_555
Ag1B O6 1_555 1_555
O6_2 Ag1 1_555 1_555
O6B Ag1 1_555 1_555
O7_2 Ag1 1_555 1_555
O4 C7 1_555 1_555
O7 Ag1_2 1_555 1_555
C5 C6 1_555 1_555
C6 C7 1_555 1_555
C8 C9 1_555 1_555
C12 C13 1_555 1_555
C13 C14 1_555 1_555

#END
