
#######################################################################
#
#                 Cambridge Crystallographic Data Centre
#                                CCDC 
#
#######################################################################
#
# If this CIF has been generated from an entry in the Cambridge 
# Structural Database, then it will include bibliographic, chemical, 
# crystal, experimental, refinement or atomic coordinate data resulting 
# from the CCDC's data processing and validation procedures.
#
#######################################################################

data_QUBXER
_symmetry_cell_setting           monoclinic
_symmetry_space_group_name_H-M   'C 2/m'
_symmetry_Int_Tables_number      12
_space_group_name_Hall           '-C 2y'
loop_
_symmetry_equiv_pos_site_id
_symmetry_equiv_pos_as_xyz
1 x,y,z
2 -x,y,-z
3 1/2+x,1/2+y,z
4 1/2-x,1/2+y,-z
5 -x,-y,-z
6 x,-y,z
7 1/2-x,1/2-y,-z
8 1/2+x,1/2-y,z
_cell_length_a                   15.392(3)
_cell_length_b                   10.196(2)
_cell_length_c                   8.1580(16)
_cell_angle_alpha                90
_cell_angle_beta                 104.70(3)
_cell_angle_gamma                90
_cell_volume                     1238.38
loop_
_atom_site_label
_atom_site_type_symbol
_atom_site_fract_x
_atom_site_fract_y
_atom_site_fract_z
Gd1 Gd 0.710119(12) 0.295739(19) 0.74922(2)
P1 P 0.81349(10) 0.5000 0.52718(18)
H1 H 0.9050 0.5000 0.5829
P2 P 0.69306(10) 0.5000 1.01846(18)
H2 H 0.6481 0.5000 1.1393
O1 O 0.7691(3) 0.5000 0.6765(5)
O2 O 0.7878(2) 0.6256(3) 0.4276(4)
O3 O 0.5728(2) 0.2232(3) 0.7887(4)
O4 O 0.6368(3) 0.5000 0.8365(5)
O5 O 0.74823(19) 0.6258(3) 1.0432(3)
O6 O 0.63054(19) 0.2319(3) 1.2083(4)
O7 O 0.59325(19) 0.3611(3) 0.4891(4)
C1 C 0.5349(3) 0.2203(4) 0.9055(5)
C2 C 0.5599(3) 0.2224(4) 1.0924(5)
Gd1C Gd 0.789881(12) 0.795739(19) 0.25078(2)
Gd1E Gd 0.710119(12) 0.704261(19) 0.74922(2)
Gd1C_2 Gd 0.789881(12) 0.795739(19) 1.25078(2)
Gd1F Gd 0.789881(12) 0.204261(19) 1.25078(2)
Gd1F_2 Gd 0.789881(12) 0.204261(19) 0.25078(2)
Gd1A Gd 0.289881(12) 0.295739(19) 1.25078(2)
Gd1G Gd 0.210119(12) 0.204261(19) 0.74922(2)
O1C O 0.7309(3) 1.0000 0.3235(5)
O2E O 0.7878(2) 0.3744(3) 0.4276(4)
O2C O 0.7122(2) 0.1256(3) 0.5724(4)
O3A O 0.4272(2) 0.2232(3) 1.2113(4)
O3C O 0.9272(2) 0.7232(3) 0.2113(4)
O4C O 0.8632(3) 1.0000 0.1635(5)
O5E O 0.74823(19) 0.3742(3) 1.0432(3)
O5C O 0.75177(19) 0.1258(3) 0.9568(3)
O5_2 O 0.74823(19) 0.6258(3) 0.0432(3)
O5F O 0.75177(19) 0.8742(3) -0.0432(3)
O6A O 0.36946(19) 0.2319(3) 0.7917(4)
O6F O 0.86946(19) 0.2681(3) 0.7917(4)
O6E O 0.63054(19) 0.7681(3) 0.2083(4)
O7C O 0.90675(19) 0.8611(3) 0.5109(4)
C1A C 0.4651(3) 0.2203(4) 1.0945(5)
C2A C 0.4401(3) 0.2224(4) 0.9076(5)
loop_
_geom_bond_atom_site_label_1
_geom_bond_atom_site_label_2
_geom_bond_site_symmetry_1
_geom_bond_site_symmetry_2
Gd1 O1 1_555 1_555
P1 H1 1_555 1_555
P2 H2 1_555 1_555
O1 P1 1_555 1_555
O2 P1 1_555 1_555
O3 Gd1 1_555 1_555
O4 Gd1 1_555 1_555
O5 P2 1_555 1_555
O6 C2 1_555 1_555
O7 Gd1 1_555 1_555
C1 O3 1_555 1_555
C2 C1 1_555 1_555
Gd1C O2 1_555 1_555
Gd1E O1 1_555 1_555
Gd1C_2 O5 1_555 1_555
Gd1F O6 1_555 1_555
Gd1F_2 O2E 1_555 1_555
Gd1A O3A 1_555 1_555
Gd1G O6A 1_555 1_555
O1C Gd1C 1_555 1_555
O2E P1 1_555 1_555
O2C Gd1 1_555 1_555
O3A C1A 1_555 1_555
O3C Gd1C 1_555 1_555
O4C Gd1C 1_555 1_555
O5E Gd1 1_555 1_555
O5C Gd1 1_555 1_555
O5_2 Gd1C 1_555 1_555
O5F Gd1C 1_555 1_555
O6A C2A 1_555 1_555
O6F Gd1 1_555 1_555
O6E Gd1C 1_555 1_555
O7C Gd1C 1_555 1_555
C1A C2 1_555 1_555
C2A C1 1_555 1_555
P2 O4 1_555 1_555
P2 O5E 1_555 1_555
O4 Gd1E 1_555 1_555
O5 Gd1E 1_555 1_555
Gd1F O5E 1_555 1_555
Gd1F O5C 1_555 1_555
C1A C2A 1_555 1_555

#END
