
#######################################################################
#
#                 Cambridge Crystallographic Data Centre
#                                CCDC 
#
#######################################################################
#
# If this CIF has been generated from an entry in the Cambridge 
# Structural Database, then it will include bibliographic, chemical, 
# crystal, experimental, refinement or atomic coordinate data resulting 
# from the CCDC's data processing and validation procedures.
#
#######################################################################

data_QUBXAN
_symmetry_cell_setting           monoclinic
_symmetry_space_group_name_H-M   'C 2/m'
_symmetry_Int_Tables_number      12
_space_group_name_Hall           '-C 2y'
loop_
_symmetry_equiv_pos_site_id
_symmetry_equiv_pos_as_xyz
1 x,y,z
2 -x,y,-z
3 1/2+x,1/2+y,z
4 1/2-x,1/2+y,-z
5 -x,-y,-z
6 x,-y,z
7 1/2-x,1/2-y,-z
8 1/2+x,1/2-y,z
_cell_length_a                   15.4305(7)
_cell_length_b                   10.2242(5)
_cell_length_c                   8.1616(4)
_cell_angle_alpha                90
_cell_angle_beta                 104.6150(10)
_cell_angle_gamma                90
_cell_volume                     1245.95
loop_
_atom_site_label
_atom_site_type_symbol
_atom_site_fract_x
_atom_site_fract_y
_atom_site_fract_z
Eu1 Eu 0.710399(13) 0.295724(17) 0.74867(2)
P1 P 0.81384(9) 0.5000 0.52803(15)
H1 H 0.9050 0.5000 0.5829
P2 P 0.69337(10) 0.5000 1.01887(16)
H2 H 0.6481 0.5000 1.1393
O1 O 0.7704(3) 0.5000 0.6777(5)
O2 O 0.7876(2) 0.6249(3) 0.4291(4)
O3 O 0.5730(2) 0.2235(3) 0.7886(4)
O4 O 0.6370(3) 0.5000 0.8350(5)
O5 O 0.7485(2) 0.6246(2) 1.0440(3)
O6 O 0.6302(2) 0.2324(3) 1.2083(4)
O7 O 0.59349(19) 0.3609(3) 0.4883(3)
C1 C 0.5351(3) 0.2219(4) 0.9050(5)
C2 C 0.5596(3) 0.2230(4) 1.0924(5)
Eu1C Eu 0.789601(13) 0.795724(17) 0.25133(2)
Eu1E Eu 0.710399(13) 0.704276(17) 0.74867(2)
Eu1C_2 Eu 0.789601(13) 0.795724(17) 1.25133(2)
Eu1F Eu 0.789601(13) 0.204276(17) 1.25133(2)
Eu1F_2 Eu 0.789601(13) 0.204276(17) 0.25133(2)
Eu1A Eu 0.289601(13) 0.295724(17) 1.25133(2)
Eu1G Eu 0.210399(13) 0.204276(17) 0.74867(2)
O1C O 0.7296(3) 1.0000 0.3223(5)
O2E O 0.7876(2) 0.3751(3) 0.4291(4)
O2C O 0.7124(2) 0.1249(3) 0.5709(4)
O3A O 0.4270(2) 0.2235(3) 1.2114(4)
O3C O 0.9270(2) 0.7235(3) 0.2114(4)
O4C O 0.8630(3) 1.0000 0.1650(5)
O5E O 0.7485(2) 0.3754(2) 1.0440(3)
O5C O 0.7515(2) 0.1246(2) 0.9560(3)
O5_2 O 0.7485(2) 0.6246(2) 0.0440(3)
O5F O 0.7515(2) 0.8754(2) -0.0440(3)
O6A O 0.3698(2) 0.2324(3) 0.7917(4)
O6F O 0.8698(2) 0.2676(3) 0.7917(4)
O6E O 0.6302(2) 0.7676(3) 0.2083(4)
O7C O 0.90651(19) 0.8609(3) 0.5117(3)
C1A C 0.4649(3) 0.2219(4) 1.0950(5)
C2A C 0.4404(3) 0.2230(4) 0.9076(5)
loop_
_geom_bond_atom_site_label_1
_geom_bond_atom_site_label_2
_geom_bond_site_symmetry_1
_geom_bond_site_symmetry_2
Eu1 O1 1_555 1_555
P1 H1 1_555 1_555
P2 H2 1_555 1_555
O1 P1 1_555 1_555
O2 P1 1_555 1_555
O3 Eu1 1_555 1_555
O4 Eu1 1_555 1_555
O5 P2 1_555 1_555
O6 C2 1_555 1_555
O7 Eu1 1_555 1_555
C1 O3 1_555 1_555
C2 C1 1_555 1_555
Eu1C O2 1_555 1_555
Eu1E O1 1_555 1_555
Eu1C_2 O5 1_555 1_555
Eu1F O6 1_555 1_555
Eu1F_2 O2E 1_555 1_555
Eu1A O3A 1_555 1_555
Eu1G O6A 1_555 1_555
O1C Eu1C 1_555 1_555
O2E P1 1_555 1_555
O2C Eu1 1_555 1_555
O3A C1A 1_555 1_555
O3C Eu1C 1_555 1_555
O4C Eu1C 1_555 1_555
O5E Eu1 1_555 1_555
O5C Eu1 1_555 1_555
O5_2 Eu1C 1_555 1_555
O5F Eu1C 1_555 1_555
O6A C2A 1_555 1_555
O6F Eu1 1_555 1_555
O6E Eu1C 1_555 1_555
O7C Eu1C 1_555 1_555
C1A C2 1_555 1_555
C2A C1 1_555 1_555
P2 O4 1_555 1_555
P2 O5E 1_555 1_555
O4 Eu1E 1_555 1_555
O5 Eu1E 1_555 1_555
Eu1F O5E 1_555 1_555
Eu1F O5C 1_555 1_555
C1A C2A 1_555 1_555

#END
