
#######################################################################
#
#                 Cambridge Crystallographic Data Centre
#                                CCDC 
#
#######################################################################
#
# If this CIF has been generated from an entry in the Cambridge 
# Structural Database, then it will include bibliographic, chemical, 
# crystal, experimental, refinement or atomic coordinate data resulting 
# from the CCDC's data processing and validation procedures.
#
#######################################################################

data_QUBYES
_symmetry_cell_setting           monoclinic
_symmetry_space_group_name_H-M   'C 2/c'
_symmetry_Int_Tables_number      15
_space_group_name_Hall           '-C 2yn'
loop_
_symmetry_equiv_pos_site_id
_symmetry_equiv_pos_as_xyz
1 x,y,z
2 -x,y,1/2-z
3 1/2+x,1/2+y,z
4 1/2-x,1/2+y,1/2-z
5 -x,-y,-z
6 x,-y,1/2+z
7 1/2-x,1/2-y,-z
8 1/2+x,1/2-y,1/2+z
_cell_length_a                   19.1631(10)
_cell_length_b                   13.3791(7)
_cell_length_c                   7.3656(4)
_cell_angle_alpha                90
_cell_angle_beta                 107.336(3)
_cell_angle_gamma                90
_cell_volume                     1802.65
loop_
_atom_site_label
_atom_site_type_symbol
_atom_site_fract_x
_atom_site_fract_y
_atom_site_fract_z
Eu1 Eu 1.0000 0.828926(17) 0.7500
Ag1 Ag 1.0000 0.56846(4) 0.2500
O1 O 1.07857(13) 0.87671(17) 1.0767(3)
O2 O 1.15886(16) 0.8353(2) 1.3549(4)
O3 O 1.03021(14) 0.69734(18) 0.5542(3)
O4 O 1.08900(18) 0.5601(2) 0.5167(4)
O5 O 1.09761(12) 0.90233(16) 0.6215(3)
H1 H 1.1097(6) 0.8680(6) 0.5405(11)
H2 H 1.0947(15) 0.9641(4) 0.602(3)
O6 O 1.0000 1.0138(2) 0.7500
H3 H 0.9720(4) 1.0500(8) 0.7902(17)
N1 N 1.11536(14) 0.72347(19) 0.9046(4)
C1 C 1.13000(18) 0.8228(3) 1.1841(5)
C2 C 1.15575(17) 0.7384(2) 1.0848(4)
C3 C 1.21611(19) 0.6802(2) 1.1736(5)
H4 H 1.2429 0.6916 1.2997
C4 C 1.23550(19) 0.6043(3) 1.0691(5)
H5 H 1.2767 0.5655 1.1231
C5 C 1.19295(19) 0.5871(3) 0.8844(5)
H6 H 1.2045 0.5358 0.8131
C6 C 1.13261(18) 0.6478(2) 0.8071(5)
C7 C 1.0808(2) 0.6343(3) 0.6111(5)
Ag1_2 Ag 1.0000 0.56846(4) 1.2500
O1A O 0.92143(13) 0.87671(17) 0.4233(3)
O2A O 0.84114(16) 0.8353(2) 0.1451(4)
O3A O 0.96979(14) 0.69734(18) 0.9458(3)
O3A_2 O 0.96979(14) 0.69734(18) -0.0542(3)
O4A O 0.91100(18) 0.5601(2) 0.9833(4)
O4A_2 O 0.91100(18) 0.5601(2) -0.0167(4)
O5A O 0.90239(12) 0.90233(16) 0.8785(3)
H1A H 0.8903(6) 0.8680(6) 0.9595(11)
H2A H 0.9053(15) 0.9641(4) 0.898(3)
H3A H 1.0280(4) 1.0500(8) 0.7098(17)
N1A N 0.88464(14) 0.72347(19) 0.5954(4)
C1A C 0.87000(18) 0.8228(3) 0.3159(5)
C2A C 0.84425(17) 0.7384(2) 0.4152(4)
C3A C 0.78389(19) 0.6802(2) 0.3264(5)
H4A H 0.7571 0.6916 0.2003
C4A C 0.76450(19) 0.6043(3) 0.4309(5)
H5A H 0.7233 0.5655 0.3769
C5A C 0.80705(19) 0.5871(3) 0.6156(5)
H6A H 0.7955 0.5358 0.6869
C6A C 0.86739(18) 0.6478(2) 0.6929(5)
C7A C 0.9192(2) 0.6343(3) 0.8889(5)
loop_
_geom_bond_atom_site_label_1
_geom_bond_atom_site_label_2
_geom_bond_site_symmetry_1
_geom_bond_site_symmetry_2
Eu1 O1 1_555 1_555
Ag1 O3 1_555 1_555
O1 C1 1_555 1_555
O2 C1 1_555 1_555
O3 Eu1 1_555 1_555
O4 Ag1 1_555 1_555
O5 Eu1 1_555 1_555
H1 O5 1_555 1_555
H2 O5 1_555 1_555
O6 Eu1 1_555 1_555
H3 O6 1_555 1_555
N1 Eu1 1_555 1_555
C1 C2 1_555 1_555
C2 N1 1_555 1_555
C3 C2 1_555 1_555
H4 C3 1_555 1_555
C4 C3 1_555 1_555
H5 C4 1_555 1_555
C5 C4 1_555 1_555
H6 C5 1_555 1_555
C6 N1 1_555 1_555
C7 O3 1_555 1_555
Ag1_2 O3A 1_555 1_555
O1A Eu1 1_555 1_555
O2A C1A 1_555 1_555
O3A Eu1 1_555 1_555
O3A_2 Ag1 1_555 1_555
O4A Ag1_2 1_555 1_555
O4A_2 Ag1 1_555 1_555
O5A Eu1 1_555 1_555
H1A O5A 1_555 1_555
H2A O5A 1_555 1_555
H3A O6 1_555 1_555
N1A Eu1 1_555 1_555
C1A O1A 1_555 1_555
C2A N1A 1_555 1_555
C3A C2A 1_555 1_555
H4A C3A 1_555 1_555
C4A C3A 1_555 1_555
H5A C4A 1_555 1_555
C5A C4A 1_555 1_555
H6A C5A 1_555 1_555
C6A N1A 1_555 1_555
C7A O3A 1_555 1_555
O4 C7 1_555 1_555
C5 C6 1_555 1_555
C6 C7 1_555 1_555
O4A C7A 1_555 1_555
C1A C2A 1_555 1_555
C5A C6A 1_555 1_555
C6A C7A 1_555 1_555

#END
