
#######################################################################
#
#                 Cambridge Crystallographic Data Centre
#                                CCDC 
#
#######################################################################
#
# If this CIF has been generated from an entry in the Cambridge 
# Structural Database, then it will include bibliographic, chemical, 
# crystal, experimental, refinement or atomic coordinate data resulting 
# from the CCDC's data processing and validation procedures.
#
#######################################################################

data_QUBZET
_symmetry_cell_setting           triclinic
_symmetry_space_group_name_H-M   'P -1'
_symmetry_Int_Tables_number      2
_space_group_name_Hall           '-P 1'
loop_
_symmetry_equiv_pos_site_id
_symmetry_equiv_pos_as_xyz
1 x,y,z
2 -x,-y,-z
_cell_length_a                   14.7490(16)
_cell_length_b                   15.0041(16)
_cell_length_c                   17.6073(16)
_cell_angle_alpha                89.815(6)
_cell_angle_beta                 91.846(5)
_cell_angle_gamma                92.986(6)
_cell_volume                     3889.1
loop_
_atom_site_label
_atom_site_type_symbol
_atom_site_fract_x
_atom_site_fract_y
_atom_site_fract_z
Cd2 Cd 0.11409(9) 0.55784(8) 0.49941(6)
Cl1 Cl -0.0460(4) 0.6025(4) 0.5167(6)
O5 O 0.1424(11) 0.6535(10) 0.3989(7)
O6 O 0.2098(11) 0.5266(8) 0.4000(6)
O7 O 0.1662(12) 0.6551(10) -0.4038(7)
O8 O 0.2019(12) 0.5215(11) -0.3969(7)
N3 N 0.3028(11) 0.6606(9) 0.0625(7)
N4 N 0.3048(12) 0.6611(8) -0.0596(6)
C30 C 0.2502(13) 0.6438(10) -0.0006(8)
H12 H 0.1893 0.6244 -0.0030
C31 C 0.3938(14) 0.6880(10) -0.0362(10)
H13 H 0.4438 0.6997 -0.0661
C32 C 0.3894(12) 0.6931(11) 0.0443(10)
H14 H 0.4353 0.7141 0.0781
C33 C 0.2770(15) 0.6406(10) 0.1383(7)
C34 C 0.2419(10) 0.7164(11) 0.1773(9)
C35 C 0.2116(12) 0.7015(9) 0.2580(8)
H15 H 0.1898 0.7470 0.2870
C36 C 0.2185(12) 0.6169(11) 0.2852(7)
C37 C 0.2518(13) 0.5456(11) 0.2445(8)
H16 H 0.2563 0.4900 0.2673
C38 C 0.2793(10) 0.5598(11) 0.1659(9)
C39 C 0.1902(13) 0.5973(15) 0.3678(8)
C40 C 0.2796(14) 0.6414(11) -0.1377(8)
C41 C 0.2519(13) 0.7139(11) -0.1799(9)
C42 C 0.2277(12) 0.6974(12) -0.2574(9)
H17 H 0.2110 0.7437 -0.2894
C43 C 0.2294(14) 0.6117(12) -0.2841(8)
C44 C 0.2589(12) 0.5440(11) -0.2392(8)
H18 H 0.2620 0.4871 -0.2593
C45 C 0.2837(11) 0.5594(11) -0.1656(8)
C46 C 0.2012(12) 0.5971(18) -0.3690(9)
C47 C 0.2270(18) 0.8109(11) 0.1454(11)
H19 H 0.2585 0.8189 0.0975
C48 C 0.126(2) 0.822(2) 0.131(3)
C49 C 0.255(3) 0.8857(12) 0.1976(14)
C50 C 0.3057(17) 0.4806(12) 0.1210(10)
H20 H 0.3339 0.5039 0.0748
C51 C 0.377(2) 0.437(3) 0.166(3)
C52 C 0.227(2) 0.418(2) 0.0959(14)
C53 C 0.2466(18) 0.8098(10) -0.1443(10)
H21 H 0.2780 0.8111 -0.0944
C54 C 0.295(2) 0.8838(14) -0.1982(12)
C55 C 0.146(2) 0.824(2) -0.134(2)
C56 C 0.3071(16) 0.4767(14) -0.1194(11)
H22 H 0.3087 0.4998 -0.0674
C57 C 0.4078(19) 0.455(2) -0.129(2)
C58 C 0.237(2) 0.4027(14) -0.1152(16)
Cd2A Cd -0.11409(9) 0.44216(8) 0.50059(6)
Cd2_2 Cd 0.11409(9) 0.55784(8) -0.50059(6)
Cl1A Cl 0.0460(4) 0.3975(4) 0.4833(6)
O7_2 O 0.1662(12) 0.6551(10) 0.5962(7)
O8_2 O 0.2019(12) 0.5215(11) 0.6031(7)
Cd1 Cd 0.57367(9) 0.90267(8) -0.00048(6)
Cl2 Cl 0.4043(4) 0.9299(3) 0.0122(4)
O1 O 0.6802(11) 0.8810(10) -0.0966(8)
O2 O 0.5426(12) 0.8096(12) -0.1050(7)
O3 O 0.6751(11) 0.8899(11) -0.8974(7)
O4 O 0.5560(10) 0.8007(11) -0.8971(7)
N1 N 0.6996(10) 0.7364(10) -0.4388(6)
N2 N 0.7024(9) 0.7358(10) -0.5597(7)
C1 C 0.6839(13) 0.7883(12) -0.4997(7)
H1 H 0.6648 0.8464 -0.5007
C2 C 0.7291(13) 0.6525(11) -0.5368(8)
H2 H 0.7457 0.6062 -0.5676
C3 C 0.7259(13) 0.6528(13) -0.4591(8)
H3 H 0.7387 0.6059 -0.4264
C4 C 0.6821(11) 0.7621(10) -0.3573(9)
C5 C 0.5917(10) 0.7477(10) -0.3384(8)
C6 C 0.5719(12) 0.7747(11) -0.2587(9)
H4 H 0.5131 0.7711 -0.2411
C7 C 0.6413(11) 0.8036(11) -0.2147(9)
C8 C 0.7285(13) 0.8151(11) -0.2385(9)
H5 H 0.7738 0.8358 -0.2040
C9 C 0.7527(12) 0.7964(11) -0.3148(9)
C10 C 0.6851(12) 0.7585(11) -0.6433(9)
C11 C 0.6003(12) 0.7423(10) -0.6644(8)
C12 C 0.5796(13) 0.7676(12) -0.7420(9)
H6 H 0.5214 0.7574 -0.7631
C13 C 0.6483(14) 0.8071(10) -0.7842(8)
C14 C 0.7343(14) 0.8174(11) -0.7574(8)
H7 H 0.7801 0.8392 -0.7887
C15 C 0.7541(11) 0.7954(12) -0.6831(9)
C16 C 0.619(3) 0.8310(14) -0.1321(9)
C17 C 0.6250(17) 0.8321(14) -0.8695(10)
C18 C 0.5097(12) 0.7159(18) -0.3876(11)
H8 H 0.5313 0.7084 -0.4391
C19 C 0.475(2) 0.621(2) -0.3598(17)
C20 C 0.4252(16) 0.773(2) -0.3947(15)
C21 C 0.8484(13) 0.8042(17) -0.3376(11)
H9 H 0.8476 0.7989 -0.3930
C22 C 0.9061(14) 0.738(2) -0.3083(16)
C23 C 0.896(2) 0.907(2) -0.3161(16)
C24 C 0.5218(14) 0.7005(16) -0.6181(10)
H10 H 0.5443 0.6921 -0.5657
C25 C 0.491(2) 0.608(2) -0.651(2)
C26 C 0.4348(17) 0.751(2) -0.6160(14)
C27 C 0.8446(16) 0.8085(15) -0.6533(12)
H11 H 0.8420 0.8049 -0.5978
C28 C 0.9055(17) 0.736(2) -0.6788(15)
C29 C 0.895(2) 0.898(2) -0.673(2)
Cd1A Cd 0.42633(9) 1.09733(8) 0.00048(6)
Cd1_2 Cd 0.57367(9) 0.90267(8) -1.00048(6)
Cl2A Cl 0.5957(4) 1.0701(3) -0.0122(4)
O3_2 O 0.6751(11) 0.8899(11) 0.1026(7)
O4_2 O 0.5560(10) 0.8007(11) 0.1029(7)
loop_
_geom_bond_atom_site_label_1
_geom_bond_atom_site_label_2
_geom_bond_site_symmetry_1
_geom_bond_site_symmetry_2
Cd1 Cl2 1_555 1_555
Cd2 Cl1 1_555 1_555
Cl1 Cd2A 1_555 1_555
Cl2 Cd1A 1_555 1_555
O1 Cd1 1_555 1_555
O2 Cd1 1_555 1_555
O3 C17 1_555 1_555
O4 C17 1_555 1_555
O5 Cd2 1_555 1_555
O6 Cd2 1_555 1_555
O7 C46 1_555 1_555
O8 C46 1_555 1_555
N1 C1 1_555 1_555
N2 C1 1_555 1_555
N3 C30 1_555 1_555
N4 C30 1_555 1_555
C1 H1 1_555 1_555
C2 N2 1_555 1_555
H2 C2 1_555 1_555
C3 N1 1_555 1_555
H3 C3 1_555 1_555
C4 N1 1_555 1_555
C5 C4 1_555 1_555
C6 C5 1_555 1_555
H4 C6 1_555 1_555
C7 C6 1_555 1_555
C8 C7 1_555 1_555
H5 C8 1_555 1_555
C9 C4 1_555 1_555
C10 N2 1_555 1_555
C11 C10 1_555 1_555
C12 C11 1_555 1_555
H6 C12 1_555 1_555
C13 C12 1_555 1_555
C14 C13 1_555 1_555
H7 C14 1_555 1_555
C15 C10 1_555 1_555
C16 O1 1_555 1_555
C17 C13 1_555 1_555
C18 C5 1_555 1_555
H8 C18 1_555 1_555
C19 C18 1_555 1_555
C20 C18 1_555 1_555
C21 C9 1_555 1_555
H9 C21 1_555 1_555
C22 C21 1_555 1_555
C23 C21 1_555 1_555
C24 C11 1_555 1_555
H10 C24 1_555 1_555
C25 C24 1_555 1_555
C26 C24 1_555 1_555
C27 C15 1_555 1_555
H11 C27 1_555 1_555
C28 C27 1_555 1_555
C29 C27 1_555 1_555
C30 H12 1_555 1_555
C31 N4 1_555 1_555
H13 C31 1_555 1_555
C32 N3 1_555 1_555
H14 C32 1_555 1_555
C33 N3 1_555 1_555
C34 C33 1_555 1_555
C35 C34 1_555 1_555
H15 C35 1_555 1_555
C36 C35 1_555 1_555
C37 C36 1_555 1_555
H16 C37 1_555 1_555
C38 C33 1_555 1_555
C39 O5 1_555 1_555
C40 N4 1_555 1_555
C41 C40 1_555 1_555
C42 C41 1_555 1_555
H17 C42 1_555 1_555
C43 C42 1_555 1_555
C44 C43 1_555 1_555
H18 C44 1_555 1_555
C45 C40 1_555 1_555
C46 C43 1_555 1_555
C47 C34 1_555 1_555
H19 C47 1_555 1_555
C48 C47 1_555 1_555
C49 C47 1_555 1_555
C50 C38 1_555 1_555
H20 C50 1_555 1_555
C51 C50 1_555 1_555
C52 C50 1_555 1_555
C53 C41 1_555 1_555
H21 C53 1_555 1_555
C54 C53 1_555 1_555
C55 C53 1_555 1_555
C56 C45 1_555 1_555
H22 C56 1_555 1_555
C57 C56 1_555 1_555
C58 C56 1_555 1_555
Cd1A Cl2A 1_555 1_555
Cd1_2 O3 1_555 1_555
Cd2A Cl1A 1_555 1_555
Cd2_2 O7 1_555 1_555
Cl1A Cd2 1_555 1_555
Cl2A Cd1 1_555 1_555
O3_2 Cd1 1_555 1_555
O4_2 Cd1 1_555 1_555
O7_2 Cd2 1_555 1_555
O8_2 Cd2 1_555 1_555
O2 C16 1_555 1_555
O4 Cd1_2 1_555 1_555
O6 C39 1_555 1_555
O8 Cd2_2 1_555 1_555
C2 C3 1_555 1_555
C7 C16 1_555 1_555
C8 C9 1_555 1_555
C14 C15 1_555 1_555
C31 C32 1_555 1_555
C36 C39 1_555 1_555
C37 C38 1_555 1_555
C44 C45 1_555 1_555

#END
