
#######################################################################
#
#                 Cambridge Crystallographic Data Centre
#                                CCDC 
#
#######################################################################
#
# If this CIF has been generated from an entry in the Cambridge 
# Structural Database, then it will include bibliographic, chemical, 
# crystal, experimental, refinement or atomic coordinate data resulting 
# from the CCDC's data processing and validation procedures.
#
#######################################################################

data_QUBZIW
_symmetry_cell_setting           monoclinic
_symmetry_space_group_name_H-M   'P 21/c'
_symmetry_Int_Tables_number      14
_space_group_name_Hall           '-P 2ybc'
loop_
_symmetry_equiv_pos_site_id
_symmetry_equiv_pos_as_xyz
1 x,y,z
2 x,1/2-y,1/2+z
3 -x,-y,-z
4 -x,1/2+y,1/2-z
_cell_length_a                   7.4413(3)
_cell_length_b                   10.9583(3)
_cell_length_c                   9.5083(3)
_cell_angle_alpha                90
_cell_angle_beta                 102.5130(10)
_cell_angle_gamma                90
_cell_volume                     756.928
loop_
_atom_site_label
_atom_site_type_symbol
_atom_site_fract_x
_atom_site_fract_y
_atom_site_fract_z
Hg1 Hg -0.00738(5) 0.57172(3) 0.20290(3)
Cl1 Cl -0.2410(4) 0.5483(2) -0.0018(3)
O1 O 0.0788(11) 0.3398(6) 0.3290(8)
C1 C 0.1771(13) 0.5956(9) 0.3958(11)
C2 C 0.2354(13) 0.4938(9) 0.4860(10)
C3 C 0.3528(14) 0.5127(9) 0.6196(10)
H1 H 0.3932 0.4452 0.6790
C4 C 0.4107(14) 0.6269(10) 0.6665(10)
H2 H 0.4862 0.6378 0.7586
C5 C 0.3579(14) 0.7255(9) 0.5784(11)
H3 H 0.4022 0.8036 0.6091
C6 C 0.2396(14) 0.7117(9) 0.4442(10)
H4 H 0.2017 0.7804 0.3861
C7 C 0.1778(14) 0.3692(10) 0.4420(12)
H5 H 0.2219 0.3063 0.5078
O1C O -0.0788(11) 0.8398(6) 0.1710(8)
Hg1C Hg 0.00738(5) 0.07172(3) 0.29710(3)
loop_
_geom_bond_atom_site_label_1
_geom_bond_atom_site_label_2
_geom_bond_site_symmetry_1
_geom_bond_site_symmetry_2
Hg1 Cl1 1_555 1_555
O1 Hg1 1_555 1_555
C1 Hg1 1_555 1_555
C2 C1 1_555 1_555
C3 C2 1_555 1_555
H1 C3 1_555 1_555
C4 C3 1_555 1_555
H2 C4 1_555 1_555
C5 C4 1_555 1_555
H3 C5 1_555 1_555
C6 C1 1_555 1_555
H4 C6 1_555 1_555
C7 O1 1_555 1_555
H5 C7 1_555 1_555
O1C Hg1 1_555 1_555
Hg1C O1 1_555 1_555
C2 C7 1_555 1_555
C5 C6 1_555 1_555

#END
