
#######################################################################
#
#                 Cambridge Crystallographic Data Centre
#                                CCDC 
#
#######################################################################
#
# If this CIF has been generated from an entry in the Cambridge 
# Structural Database, then it will include bibliographic, chemical, 
# crystal, experimental, refinement or atomic coordinate data resulting 
# from the CCDC's data processing and validation procedures.
#
#######################################################################

data_QUBZOD
_symmetry_cell_setting           orthorhombic
_symmetry_space_group_name_H-M   'P 21 21 21'
_symmetry_Int_Tables_number      19
_space_group_name_Hall           'P 2ac 2ab'
loop_
_symmetry_equiv_pos_site_id
_symmetry_equiv_pos_as_xyz
1 x,y,z
2 1/2-x,-y,1/2+z
3 -x,1/2+y,1/2-z
4 1/2+x,1/2-y,-z
_cell_length_a                   12.1362(11)
_cell_length_b                   12.2752(16)
_cell_length_c                   12.7945(14)
_cell_angle_alpha                90
_cell_angle_beta                 90
_cell_angle_gamma                90
_cell_volume                     1906.05
loop_
_atom_site_label
_atom_site_type_symbol
_atom_site_fract_x
_atom_site_fract_y
_atom_site_fract_z
Zn1 Zn 0.61765(15) 0.26640(13) 1.57040(16)
Zn2 Zn 0.36949(16) 0.18756(14) 1.48771(16)
O1 O 0.4478(8) 0.0501(9) 1.4734(12)
O2 O 0.6181(9) 0.1124(8) 1.5069(9)
O3 O 0.8027(8) -0.2224(8) 1.1998(9)
O4 O 0.6258(10) -0.2447(12) 1.1471(10)
O5 O 0.7204(8) 0.3346(8) 1.4710(9)
O6 O 0.4531(8) 0.2665(8) 1.5936(10)
O7 O 0.5608(12) 0.6635(15) 1.7159(15)
H1 H 0.5539 0.6926 1.7732
C1 C 0.5923(11) -0.0754(11) 1.4567(12)
C2 C 0.5877(12) -0.0993(12) 1.3373(14)
C3 C 0.6616(13) -0.2023(14) 1.3296(14)
H2 H 0.6171 -0.2648 1.3518
C4 C 0.7520(14) -0.1859(14) 1.4109(16)
H3 H 0.7655 -0.2533 1.4482
H4 H 0.8199 -0.1636 1.3770
C5 C 0.7141(11) -0.0992(12) 1.4853(14)
H5 H 0.7586 -0.0340 1.4776
H6 H 0.7198 -0.1245 1.5569
C6 C 0.520(3) -0.162(2) 1.523(2)
H7 H 0.5264 -0.1451 1.5959
H8 H 0.5475 -0.2338 1.5100
H9 H 0.4447 -0.1570 1.5017
C7 C 0.4655(13) -0.111(2) 1.2945(16)
H10 H 0.4673 -0.1241 1.2206
H11 H 0.4257 -0.0447 1.3080
H12 H 0.4296 -0.1704 1.3290
C8 C 0.6357(16) -0.0086(13) 1.2763(16)
H13 H 0.6307 -0.0249 1.2030
H14 H 0.7116 0.0008 1.2953
H15 H 0.5959 0.0573 1.2908
C9 C 0.5535(12) 0.0398(13) 1.4844(15)
C10 C 0.7007(16) -0.2245(13) 1.2168(14)
C11 C 0.640(2) 0.4843(15) 1.7105(16)
H16 H 0.7079 0.4457 1.7244
H17 H 0.5905 0.4700 1.7686
C12 C 0.6876(14) 0.4480(17) 1.4452(16)
H18 H 0.7470 0.4848 1.4088
H19 H 0.6232 0.4476 1.4002
C13 C 0.4800(17) 0.462(2) 1.576(2)
H20 H 0.4795 0.4623 1.5002
H21 H 0.4540 0.5317 1.6012
C14 C 0.6665(19) 0.6123(18) 1.710(3)
H22 H 0.7120 0.6322 1.7690
H23 H 0.7043 0.6329 1.6458
C15 C 0.4077(14) 0.3670(12) 1.6195(19)
H24 H 0.4023 0.3732 1.6949
H25 H 0.3339 0.3722 1.5907
C16 C 0.663(3) 0.505(2) 1.544(2)
H26 H 0.6254 0.5728 1.5280
H27 H 0.7310 0.5221 1.5791
N1 N 0.5906(11) 0.4377(11) 1.6163(12)
Zn1A Zn 0.88235(15) -0.26640(13) 1.07040(16)
Zn2B Zn 0.63051(16) -0.31244(14) 1.01229(16)
Zn2C Zn 0.86949(16) 0.31244(14) 1.51229(16)
O3A O 0.6973(8) 0.2224(8) 1.6998(9)
O4B O 0.3742(10) 0.2553(12) 1.3529(10)
O5C O 0.2204(8) 0.1654(8) 1.5290(9)
loop_
_geom_bond_atom_site_label_1
_geom_bond_atom_site_label_2
_geom_bond_site_symmetry_1
_geom_bond_site_symmetry_2
Zn1 O2 1_555 1_555
Zn2 O1 1_555 1_555
O1 C9 1_555 1_555
O2 C9 1_555 1_555
O3 C10 1_555 1_555
O4 C10 1_555 1_555
O5 Zn1 1_555 1_555
O6 Zn1 1_555 1_555
O7 H1 1_555 1_555
C1 C2 1_555 1_555
C2 C3 1_555 1_555
C3 H2 1_555 1_555
C4 C3 1_555 1_555
H3 C4 1_555 1_555
H4 C4 1_555 1_555
C5 C1 1_555 1_555
H5 C5 1_555 1_555
H6 C5 1_555 1_555
C6 C1 1_555 1_555
H7 C6 1_555 1_555
H8 C6 1_555 1_555
H9 C6 1_555 1_555
C7 C2 1_555 1_555
H10 C7 1_555 1_555
H11 C7 1_555 1_555
H12 C7 1_555 1_555
C8 C2 1_555 1_555
H13 C8 1_555 1_555
H14 C8 1_555 1_555
H15 C8 1_555 1_555
C9 C1 1_555 1_555
C10 C3 1_555 1_555
C11 H16 1_555 1_555
H17 C11 1_555 1_555
C12 O5 1_555 1_555
H18 C12 1_555 1_555
H19 C12 1_555 1_555
C13 H20 1_555 1_555
H21 C13 1_555 1_555
C14 O7 1_555 1_555
H22 C14 1_555 1_555
H23 C14 1_555 1_555
C15 O6 1_555 1_555
H24 C15 1_555 1_555
H25 C15 1_555 1_555
C16 C12 1_555 1_555
H26 C16 1_555 1_555
H27 C16 1_555 1_555
N1 Zn1 1_555 1_555
Zn1A O3 1_555 1_555
Zn2B O4 1_555 1_555
Zn2C O5 1_555 1_555
O3A Zn1 1_555 1_555
O4B Zn2 1_555 1_555
O5C Zn2 1_555 1_555
Zn2 O6 1_555 1_555
C4 C5 1_555 1_555
C11 C14 1_555 1_555
C11 N1 1_555 1_555
C13 C15 1_555 1_555
C13 N1 1_555 1_555
C16 N1 1_555 1_555

#END
