
#######################################################################
#
#                 Cambridge Crystallographic Data Centre
#                                CCDC 
#
#######################################################################
#
# If this CIF has been generated from an entry in the Cambridge 
# Structural Database, then it will include bibliographic, chemical, 
# crystal, experimental, refinement or atomic coordinate data resulting 
# from the CCDC's data processing and validation procedures.
#
#######################################################################

data_QUCDAU
_symmetry_cell_setting           triclinic
_symmetry_space_group_name_H-M   'P -1'
_symmetry_Int_Tables_number      2
_space_group_name_Hall           '-P 1'
loop_
_symmetry_equiv_pos_site_id
_symmetry_equiv_pos_as_xyz
1 x,y,z
2 -x,-y,-z
_cell_length_a                   7.21150(10)
_cell_length_b                   9.34700(10)
_cell_length_c                   10.6322(2)
_cell_angle_alpha                112.7200(10)
_cell_angle_beta                 108.8300(10)
_cell_angle_gamma                95.5820(10)
_cell_volume                     605.128
loop_
_atom_site_label
_atom_site_type_symbol
_atom_site_fract_x
_atom_site_fract_y
_atom_site_fract_z
Ni1 Ni 0.00000 0.00000 1.00000
C1 C 0.42401(18) 0.39111(14) 1.04216(14)
C2 C 0.43069(18) 0.33541(15) 0.90138(14)
C3 C 0.50542(18) 0.44605(15) 0.86090(14)
H1 H 0.5083 0.4106 0.7671
C4 C 0.32515(19) 0.28168(14) 1.08810(14)
C5 C 0.36527(19) 0.15800(15) 0.79578(14)
O1 O 0.14545(13) 0.20052(10) 1.00054(10)
O2 O 0.42075(15) 0.28245(12) 1.20874(11)
O3 O 0.2586(2) 0.11600(13) 0.66391(12)
O4 O 0.42488(15) 0.06463(11) 0.84885(11)
O5 O 0.18379(14) 0.05465(11) 1.21508(10)
H9 H 0.2767 0.1294 1.2294
H10 H 0.1353 0.0931 1.2806
O6 O -0.21078(14) 0.11312(11) 1.06521(11)
H11 H -0.2557 0.0702 1.1104
H12 H -0.3121 0.1088 0.9937
Ni1_2 Ni 1.00000 1.00000 1.00000
C1A C 0.57599(18) 0.60889(14) 0.95784(14)
C2A C 0.56931(18) 0.66459(15) 1.09862(14)
C3A C 0.49458(18) 0.55395(15) 1.13910(14)
H1A H 0.4917 0.5894 1.2329
C4A C 0.67485(19) 0.71832(14) 0.91190(14)
C5A C 0.63473(19) 0.84200(15) 1.20422(14)
O1A O 0.85455(13) 0.79948(10) 0.99946(10)
O1A_2 O -0.14545(13) -0.20052(10) 0.99946(10)
O2A O 0.57925(15) 0.71755(12) 0.79126(11)
O3A O 0.7414(2) 0.88400(13) 1.33609(12)
O4A O 0.57512(15) 0.93537(11) 1.15115(11)
O5A O -0.18379(14) -0.05465(11) 0.78492(10)
H9A H -0.2767 -0.1294 0.7706
H10A H -0.1353 -0.0931 0.7194
O6A O 0.21078(14) -0.11312(11) 0.93479(11)
H11A H 0.2557 -0.0702 0.8896
H12A H 0.3121 -0.1088 1.0063
N1 N 0.9034(2) 0.28646(18) 1.77371(15)
H2 H 0.9397 0.244 1.8336
C6 C 0.9976(2) 0.4382(2) 1.81496(17)
H3 H 1.1004 0.4962 1.9087
C7 C 0.9467(2) 0.50850(18) 1.72376(16)
H4 H 1.0126 0.6143 1.7554
C8 C 0.7933(2) 0.42135(17) 1.58003(15)
C9 C 0.6936(2) 0.26379(18) 1.54195(17)
H5 H 0.5874 0.2034 1.4502
C10 C 0.7530(3) 0.2008(2) 1.6396(2)
H6 H 0.6883 0.0963 1.6131
N2 N 0.7487(2) 0.48454(16) 1.48525(14)
H7 H 0.8135 0.5801 1.5109
H8 H 0.6549 0.43 1.3981
O7 O 0.05029(18) 0.17265(13) 0.43489(12)
H13 H 0.1248 0.1693 0.5134
H14 H -0.0649 0.1083 0.4016
loop_
_geom_bond_atom_site_label_1
_geom_bond_atom_site_label_2
_geom_bond_site_symmetry_1
_geom_bond_site_symmetry_2
Ni1 O1 1_555 1_555
C1 C2 1_555 1_555
C2 C3 1_555 1_555
C3 H1 1_555 1_555
C4 C1 1_555 1_555
C5 C2 1_555 1_555
O1 C4 1_555 1_555
O2 C4 1_555 1_555
O3 C5 1_555 1_555
O4 C5 1_555 1_555
N1 H2 1_555 1_555
C6 N1 1_555 1_555
H3 C6 1_555 1_555
C7 C6 1_555 1_555
H4 C7 1_555 1_555
C8 C7 1_555 1_555
C9 C8 1_555 1_555
H5 C9 1_555 1_555
C10 N1 1_555 1_555
H6 C10 1_555 1_555
N2 C8 1_555 1_555
H7 N2 1_555 1_555
H8 N2 1_555 1_555
O5 Ni1 1_555 1_555
H9 O5 1_555 1_555
H10 O5 1_555 1_555
O6 Ni1 1_555 1_555
H11 O6 1_555 1_555
H12 O6 1_555 1_555
O7 H13 1_555 1_555
H14 O7 1_555 1_555
Ni1_2 O1A 1_555 1_555
C1A C3 1_555 1_555
C2A C1A 1_555 1_555
C3A C1 1_555 1_555
H1A C3A 1_555 1_555
C4A C1A 1_555 1_555
C5A C2A 1_555 1_555
O1A C4A 1_555 1_555
O1A_2 Ni1 1_555 1_555
O2A C4A 1_555 1_555
O3A C5A 1_555 1_555
O4A C5A 1_555 1_555
O5A Ni1 1_555 1_555
H9A O5A 1_555 1_555
H10A O5A 1_555 1_555
O6A Ni1 1_555 1_555
H11A O6A 1_555 1_555
H12A O6A 1_555 1_555
C9 C10 1_555 1_555
C2A C3A 1_555 1_555

#END
