
#######################################################################
#
#                 Cambridge Crystallographic Data Centre
#                                CCDC 
#
#######################################################################
#
# If this CIF has been generated from an entry in the Cambridge 
# Structural Database, then it will include bibliographic, chemical, 
# crystal, experimental, refinement or atomic coordinate data resulting 
# from the CCDC's data processing and validation procedures.
#
#######################################################################

data_QUCDAV
_symmetry_cell_setting           monoclinic
_symmetry_space_group_name_H-M   'C 2/c'
_symmetry_Int_Tables_number      15
_space_group_name_Hall           '-C 2yn'
loop_
_symmetry_equiv_pos_site_id
_symmetry_equiv_pos_as_xyz
1 x,y,z
2 -x,y,1/2-z
3 1/2+x,1/2+y,z
4 1/2-x,1/2+y,1/2-z
5 -x,-y,-z
6 x,-y,1/2+z
7 1/2-x,1/2-y,-z
8 1/2+x,1/2-y,1/2+z
_cell_length_a                   14.387(7)
_cell_length_b                   8.358(7)
_cell_length_c                   10.512(7)
_cell_angle_alpha                90
_cell_angle_beta                 90.068(15)
_cell_angle_gamma                90
_cell_volume                     1264.03
loop_
_atom_site_label
_atom_site_type_symbol
_atom_site_fract_x
_atom_site_fract_y
_atom_site_fract_z
C1 C 0.4509(6) 0.1813(11) -0.0141(8)
C2 C 0.5252(6) 0.2408(11) -0.0793(8)
H1 H 0.5321 0.2235 -0.1661
C3 C 0.5881(6) 0.3258(12) -0.0126(8)
H2 H 0.6366 0.3749 -0.0560
C4 C 0.5832(6) 0.3428(10) 0.1185(8)
C5 C 0.5066(5) 0.2785(10) 0.1777(7)
C6 C 0.3769(6) 0.0701(11) -0.0748(8)
C7 C 0.6672(6) 0.4104(10) 0.1863(7)
Cu1 Cu 0.31390(7) 0.11723(12) 0.16919(10)
N1 N 0.4378(5) 0.2041(8) 0.1103(6)
O1 O 0.3125(4) 0.0254(8) -0.0036(6)
O2 O 0.3900(4) 0.0301(7) -0.1878(5)
O3 O 0.7186(4) 0.3188(9) 0.2407(6)
O4 O 0.6818(4) 0.5584(7) 0.1728(6)
C1A C 0.5491(6) 0.1813(11) 0.5141(8)
C2A C 0.4748(6) 0.2408(11) 0.5793(8)
H1A H 0.4679 0.2235 0.6661
C3A C 0.4119(6) 0.3258(12) 0.5126(8)
H2A H 0.3634 0.3749 0.5560
C4A C 0.4168(6) 0.3428(10) 0.3815(8)
C5A C 0.4934(5) 0.2785(10) 0.3223(7)
C6A C 0.6231(6) 0.0701(11) 0.5748(8)
C7A C 0.3328(6) 0.4104(10) 0.3137(7)
N1A N 0.5622(5) 0.2041(8) 0.3897(6)
O1A O 0.6875(4) 0.0254(8) 0.5036(6)
O2A O 0.6100(4) 0.0301(7) 0.6878(5)
O3A O 0.2814(4) 0.3188(9) 0.2593(6)
O4A O 0.3182(4) 0.5584(7) 0.3272(6)
Cu1A Cu 0.68610(7) 0.11723(12) 0.33081(10)
Cu1B Cu 0.81390(7) 0.61723(12) 0.16919(10)
Cu1C Cu 0.18610(7) 0.61723(12) 0.33081(10)
Cu1D Cu 0.68610(7) -0.11723(12) 0.83081(10)
Cu1E Cu 0.31390(7) -0.11723(12) -0.33081(10)
O2D O 0.6100(4) -0.0301(7) 0.1878(5)
O2E O 0.3900(4) -0.0301(7) 0.3122(5)
O4B O 0.1818(4) 0.0584(7) 0.1728(6)
O4C O 0.8182(4) 0.0584(7) 0.3272(6)
loop_
_geom_bond_atom_site_label_1
_geom_bond_atom_site_label_2
_geom_bond_site_symmetry_1
_geom_bond_site_symmetry_2
C1 C2 1_555 1_555
C2 H1 1_555 1_555
C3 C2 1_555 1_555
H2 C3 1_555 1_555
C4 C3 1_555 1_555
C5 C4 1_555 1_555
C6 C1 1_555 1_555
C7 C4 1_555 1_555
Cu1 N1 1_555 1_555
N1 C1 1_555 1_555
O1 C6 1_555 1_555
O2 C6 1_555 1_555
O3 C7 1_555 1_555
O4 C7 1_555 1_555
C1A C2A 1_555 1_555
C2A H1A 1_555 1_555
C3A C2A 1_555 1_555
H2A C3A 1_555 1_555
C4A C3A 1_555 1_555
C5A C5 1_555 1_555
C6A C1A 1_555 1_555
C7A C4A 1_555 1_555
N1A C1A 1_555 1_555
O1A C6A 1_555 1_555
O2A C6A 1_555 1_555
O3A Cu1 1_555 1_555
O4A C7A 1_555 1_555
Cu1A O3 1_555 1_555
Cu1B O4 1_555 1_555
Cu1C O4A 1_555 1_555
Cu1D O2A 1_555 1_555
Cu1E O2 1_555 1_555
O2D Cu1A 1_555 1_555
O2E Cu1 1_555 1_555
O4B Cu1 1_555 1_555
O4C Cu1A 1_555 1_555
C5 N1 1_555 1_555
Cu1 O1 1_555 1_555
C4A C5A 1_555 1_555
C5A N1A 1_555 1_555
C7A O3A 1_555 1_555
N1A Cu1A 1_555 1_555
O1A Cu1A 1_555 1_555

#END
