
#######################################################################
#
#                 Cambridge Crystallographic Data Centre
#                                CCDC 
#
#######################################################################
#
# If this CIF has been generated from an entry in the Cambridge 
# Structural Database, then it will include bibliographic, chemical, 
# crystal, experimental, refinement or atomic coordinate data resulting 
# from the CCDC's data processing and validation procedures.
#
#######################################################################

data_QUCFEA
_symmetry_cell_setting           monoclinic
_symmetry_space_group_name_H-M   'P 21/c'
_symmetry_Int_Tables_number      14
_space_group_name_Hall           '-P 2ybc'
loop_
_symmetry_equiv_pos_site_id
_symmetry_equiv_pos_as_xyz
1 x,y,z
2 -x,1/2+y,1/2-z
3 -x,-y,-z
4 x,1/2-y,1/2+z
_cell_length_a                   12.5038(15)
_cell_length_b                   10.7240(13)
_cell_length_c                   7.3196(9)
_cell_angle_alpha                90
_cell_angle_beta                 106.476(2)
_cell_angle_gamma                90
_cell_volume                     941.189
loop_
_atom_site_label
_atom_site_type_symbol
_atom_site_fract_x
_atom_site_fract_y
_atom_site_fract_z
C1 C 0.1593(2) 0.7435(2) 0.0075(4)
H1 H 0.0980 0.6904 -0.0225
C2 C 0.2671(2) 0.7082(2) 0.0439(4)
H2 H 0.2951 0.6278 0.0441
C3 C 0.44202(19) 0.8353(2) 0.1282(3)
C4 C 0.6101(2) 0.7616(3) 0.1322(4)
H3 H 0.6555 0.6987 0.1083
C5 C 0.6582(2) 0.8710(3) 0.2116(4)
H4 H 0.7347 0.8817 0.2350
C6 C 0.4896(2) 0.9434(3) 0.2156(5)
H5 H 0.4446 1.0041 0.2468
C7 C -0.08801(19) 0.7249(2) 0.1329(3)
Cd1 Cd 0.0000 1.0000 0.0000
N1 N 0.15559(16) 0.86932(18) 0.0222(3)
N2 N 0.25664(17) 0.91457(18) 0.0669(3)
N3 N 0.32500(16) 0.81662(17) 0.0798(3)
N4 N 0.50015(18) 0.7423(2) 0.0879(4)
N5 N 0.5982(2) 0.9623(3) 0.2560(5)
N6 N -0.07295(19) 0.82994(19) 0.1207(3)
S1 S -0.11190(7) 0.57527(6) 0.14333(11)
C1B C -0.1593(2) 1.2565(2) -0.0075(4)
H1B H -0.0980 1.3096 0.0225
C2B C -0.2671(2) 1.2918(2) -0.0439(4)
H2B H -0.2951 1.3722 -0.0441
C3B C -0.44202(19) 1.1647(2) -0.1282(3)
C4B C -0.6101(2) 1.2384(3) -0.1322(4)
H3B H -0.6555 1.3013 -0.1083
C5B C -0.6582(2) 1.1290(3) -0.2116(4)
H4B H -0.7347 1.1183 -0.2350
C6B C -0.4896(2) 1.0566(3) -0.2156(5)
H5B H -0.4446 0.9959 -0.2468
C7B C 0.08801(19) 1.2751(2) -0.1329(3)
Cd1A Cd 0.0000 0.5000 0.5000
Cd1A_2 Cd 0.0000 1.5000 -0.5000
N1B N -0.15559(16) 1.13068(18) -0.0222(3)
N2B N -0.25664(17) 1.08543(18) -0.0669(3)
N3B N -0.32500(16) 1.18338(17) -0.0798(3)
N4B N -0.50015(18) 1.2577(2) -0.0879(4)
N5B N -0.5982(2) 1.0377(3) -0.2560(5)
N6B N 0.07295(19) 1.17006(19) -0.1207(3)
S1B S 0.11190(7) 1.42473(6) -0.14333(11)
S1A S 0.11190(7) 1.07527(6) 0.35667(11)
S1C S -0.11190(7) 0.92473(6) -0.35667(11)
loop_
_geom_bond_atom_site_label_1
_geom_bond_atom_site_label_2
_geom_bond_site_symmetry_1
_geom_bond_site_symmetry_2
C1 H1 1_555 1_555
C2 C1 1_555 1_555
H2 C2 1_555 1_555
C3 C6 1_555 1_555
C4 H3 1_555 1_555
C5 C4 1_555 1_555
H4 C5 1_555 1_555
C6 H5 1_555 1_555
C7 N6 1_555 1_555
Cd1 N1 1_555 1_555
N1 C1 1_555 1_555
N2 N1 1_555 1_555
N3 C2 1_555 1_555
N4 C3 1_555 1_555
N5 C5 1_555 1_555
N6 Cd1 1_555 1_555
S1 C7 1_555 1_555
C1B H1B 1_555 1_555
C2B C1B 1_555 1_555
H2B C2B 1_555 1_555
C3B C6B 1_555 1_555
C4B H3B 1_555 1_555
C5B C4B 1_555 1_555
H4B C5B 1_555 1_555
C6B H5B 1_555 1_555
C7B N6B 1_555 1_555
Cd1A S1 1_555 1_555
Cd1A_2 S1B 1_555 1_555
N1B Cd1 1_555 1_555
N2B N1B 1_555 1_555
N3B C2B 1_555 1_555
N4B C3B 1_555 1_555
N5B C5B 1_555 1_555
N6B Cd1 1_555 1_555
S1B C7B 1_555 1_555
S1A Cd1 1_555 1_555
S1C Cd1 1_555 1_555
C3 N3 1_555 1_555
C4 N4 1_555 1_555
C6 N5 1_555 1_555
N2 N3 1_555 1_555
C1B N1B 1_555 1_555
C3B N3B 1_555 1_555
C4B N4B 1_555 1_555
C6B N5B 1_555 1_555
N2B N3B 1_555 1_555

#END
