
#######################################################################
#
#                 Cambridge Crystallographic Data Centre
#                                CCDC 
#
#######################################################################
#
# If this CIF has been generated from an entry in the Cambridge 
# Structural Database, then it will include bibliographic, chemical, 
# crystal, experimental, refinement or atomic coordinate data resulting 
# from the CCDC's data processing and validation procedures.
#
#######################################################################

data_QUCFUR
_symmetry_cell_setting           triclinic
_symmetry_space_group_name_H-M   'P -1'
_symmetry_Int_Tables_number      2
_space_group_name_Hall           '-P 1'
loop_
_symmetry_equiv_pos_site_id
_symmetry_equiv_pos_as_xyz
1 x,y,z
2 -x,-y,-z
_cell_length_a                   6.35214(55)
_cell_length_b                   7.15241(91)
_cell_length_c                   13.7010(14)
_cell_angle_alpha                81.841(12)
_cell_angle_beta                 88.6965(71)
_cell_angle_gamma                64.2526(72)
_cell_volume                     554.474
loop_
_atom_site_label
_atom_site_type_symbol
_atom_site_fract_x
_atom_site_fract_y
_atom_site_fract_z
O8 O 0.4397(74) 0.8937(91) 0.9569(32)
O9 O 0.4128(31) 0.0259(77) 0.7036(24)
Al1 Al -0.5 0.50000 -0.5
Al2 Al 0.00000 0.00000 -0.5
O1 O -0.32063(60) 0.20373(86) -0.50618(41)
O2 O -0.94247(87) 0.19377(71) -0.59104(53)
O3 O -0.72339(64) 0.52967(61) -0.59507(33)
O4 O -1.05818(87) 0.85254(67) -0.59137(39)
O5 O -1.29687(70) 0.5219(10) -0.60282(35)
S1 S -1.0957(14) 0.3981(11) -0.98282(43)
O6 O -1.0034(31) 0.1567(12) -0.9367(14)
O7 O -1.3592(17) 0.4865(44) -1.0038(30)
C1 C -0.91712(82) 0.69010(76) -0.62556(47)
C2 C -1.11476(95) 0.36912(82) -0.62679(79)
C3 C -0.980043 0.651702 -0.719025
C4 C -1.054747 0.493407 -0.707593
C5 C -0.936942 0.725216 -0.814281
C6 C -0.981293 0.644814 -0.894567
C7 C -1.059043 0.488087 -0.879432
C8 C -1.095817 0.414885 -0.786557
O2A O -1.05753(87) 0.80623(71) -1.40896(53)
O3A O -1.27661(64) 0.47033(61) -1.40493(33)
O4A O -0.94182(87) 0.14746(67) -1.40863(39)
O5A O -0.70313(70) 0.4781(10) -1.39718(35)
S1A S -0.9043(14) 0.6019(11) -1.01718(43)
O6A O -0.9966(31) 0.8433(12) -1.0633(14)
O7A O -0.6408(17) 0.5135(44) -0.9962(30)
C1A C -1.08288(82) 0.30990(76) -1.37444(47)
C2A C -0.88524(95) 0.63088(82) -1.37321(79)
C3A C -1.019957 0.348298 -1.280975
C4A C -0.945253 0.506593 -1.292407
C5A C -1.063058 0.274784 -1.185719
C6A C -1.018707 0.355186 -1.105433
C7A C -0.940957 0.511913 -1.120568
C8A C -0.904183 0.585115 -1.213443
O1A O -0.67937(60) 0.79627(86) -0.49382(41)
Al1A Al -1.5 0.50000 -1.5
Al1A_2 Al -1.5 0.50000 -0.5
Al1A_3 Al -0.5 0.50000 -1.5
Al2A Al -1.00000 0.00000 -1.5
Al2A_2 Al -1.00000 0.00000 -0.5
Al2A_3 Al -1.00000 1.00000 -1.5
Al2A_4 Al -1.00000 1.00000 -0.5
O1A_2 O 0.32063(60) -0.20373(86) -0.49382(41)
O2A_2 O -0.05753(87) -0.19377(71) -0.40896(53)
O2_2 O 0.05753(87) 0.19377(71) -0.59104(53)
O3A_2 O -0.27661(64) 0.47033(61) -0.40493(33)
O4A_2 O 0.05818(87) 0.14746(67) -0.40863(39)
O4_2 O -0.05818(87) -0.14746(67) -0.59137(39)
O5A_2 O -0.70313(70) 0.4781(10) -0.39718(35)
O5_2 O -0.29687(70) 0.5219(10) -0.60282(35)
loop_
_geom_bond_atom_site_label_1
_geom_bond_atom_site_label_2
_geom_bond_site_symmetry_1
_geom_bond_site_symmetry_2
Al1 O1 1_555 1_555
Al2 O1 1_555 1_555
O2 C2 1_555 1_555
O3 Al1 1_555 1_555
O4 C1 1_555 1_555
O5 C2 1_555 1_555
S1 O6 1_555 1_555
O7 S1 1_555 1_555
C1 O3 1_555 1_555
C2 C4 1_555 1_555
C3 C1 1_555 1_555
C4 C3 1_555 1_555
C5 C3 1_555 1_555
C6 C5 1_555 1_555
C7 S1 1_555 1_555
C8 C4 1_555 1_555
O2A C2A 1_555 1_555
O3A C1A 1_555 1_555
O4A C1A 1_555 1_555
O5A C2A 1_555 1_555
S1A C6 1_555 1_555
O6A S1A 1_555 1_555
O7A S1A 1_555 1_555
C1A C3A 1_555 1_555
C2A C4A 1_555 1_555
C3A C4A 1_555 1_555
C4A C8A 1_555 1_555
C5A C3A 1_555 1_555
C6A S1 1_555 1_555
C7A S1A 1_555 1_555
C8A C7A 1_555 1_555
O1A Al1 1_555 1_555
Al1A O3A 1_555 1_555
Al1A_2 O5 1_555 1_555
Al1A_3 O5A 1_555 1_555
Al2A O4A 1_555 1_555
Al2A_2 O2 1_555 1_555
Al2A_3 O2A 1_555 1_555
Al2A_4 O4 1_555 1_555
O1A_2 Al2 1_555 1_555
O2A_2 Al2 1_555 1_555
O2_2 Al2 1_555 1_555
O3A_2 Al1 1_555 1_555
O4A_2 Al2 1_555 1_555
O4_2 Al2 1_555 1_555
O5A_2 Al1 1_555 1_555
O5_2 Al1 1_555 1_555
C6 C7 1_555 1_555
C7 C8 1_555 1_555
C5A C6A 1_555 1_555
C6A C7A 1_555 1_555
O1A Al2A_4 1_555 1_555

#END
