
#######################################################################
#
#                 Cambridge Crystallographic Data Centre
#                                CCDC 
#
#######################################################################
#
# If this CIF has been generated from an entry in the Cambridge 
# Structural Database, then it will include bibliographic, chemical, 
# crystal, experimental, refinement or atomic coordinate data resulting 
# from the CCDC's data processing and validation procedures.
#
#######################################################################

data_QUCFIF
_symmetry_cell_setting           orthorhombic
_symmetry_space_group_name_H-M   'P n m a'
_symmetry_Int_Tables_number      62
_space_group_name_Hall           '-P 2ac 2n'
loop_
_symmetry_equiv_pos_site_id
_symmetry_equiv_pos_as_xyz
1 x,y,z
2 1/2-x,-y,1/2+z
3 1/2+x,1/2-y,1/2-z
4 -x,1/2+y,-z
5 -x,-y,-z
6 1/2+x,y,1/2-z
7 1/2-x,1/2+y,1/2+z
8 x,1/2-y,z
_cell_length_a                   6.6111(5)
_cell_length_b                   12.8888(12)
_cell_length_c                   20.0197(14)
_cell_angle_alpha                90
_cell_angle_beta                 90
_cell_angle_gamma                90
_cell_volume                     1705.86
loop_
_atom_site_label
_atom_site_type_symbol
_atom_site_fract_x
_atom_site_fract_y
_atom_site_fract_z
S1 S 0.6191(13) 0.7500 1.0155(3)
O1 O 0.7988(29) 0.7500 1.0649(6)
O2 O 0.4078(25) 0.7500 1.0510(6)
C1 C 0.8267 0.9802 0.9060
C2 C 0.8196 0.8978 0.9481
C3 C 0.6403 0.8510 0.9614
C4 C 0.4681 0.8867 0.9327
C5 C 0.4751 0.9692 0.8906
C6 C 0.6544 1.0159 0.8773
C7 C 0.6623 1.1071 0.8308
O3 O 0.5083 1.1451 0.8106
O4 O 0.8225 1.1421 0.8139
Al1 Al 0.4135(29) 1.2500 0.7492(7)
O5 O 0.6671(50) 1.2500 0.7065(14)
C1G C 0.8267 0.5198 0.9060
C2G C 0.8196 0.6022 0.9481
C3G C 0.6403 0.6490 0.9614
C4G C 0.4681 0.6133 0.9327
C5G C 0.4751 0.5308 0.8906
C6G C 0.6544 0.4841 0.8773
C7G C 0.6623 0.3929 0.8308
O3G O 0.5083 0.3549 0.8106
O4G O 0.8225 0.3579 0.8139
O3G_2 O 0.5083 1.3549 0.8106
O4B O 0.3225 1.3579 0.6861
O4E O 0.3225 1.1421 0.6861
Al1_2 Al 0.4135(29) 0.2500 0.7492(7)
Al1B Al 0.9135(29) 0.2500 0.7508(7)
Al1B_2 Al 0.9135(29) 1.2500 0.7508(7)
O5B O 0.1671(50) 1.2500 0.7935(14)
loop_
_geom_bond_atom_site_label_1
_geom_bond_atom_site_label_2
_geom_bond_site_symmetry_1
_geom_bond_site_symmetry_2
S1 O1 1_555 1_555
O2 S1 1_555 1_555
C1 C2 1_555 1_555
C2 C3 1_555 1_555
C3 S1 1_555 1_555
C4 C3 1_555 1_555
C5 C4 1_555 1_555
C6 C1 1_555 1_555
C7 C6 1_555 1_555
O3 C7 1_555 1_555
O4 C7 1_555 1_555
Al1 O3 1_555 1_555
O5 Al1 1_555 1_555
C1G C2G 1_555 1_555
C2G C3G 1_555 1_555
C3G S1 1_555 1_555
C4G C3G 1_555 1_555
C5G C4G 1_555 1_555
C6G C1G 1_555 1_555
C7G C6G 1_555 1_555
O3G C7G 1_555 1_555
O4G C7G 1_555 1_555
O3G_2 Al1 1_555 1_555
O4B Al1 1_555 1_555
O4E Al1 1_555 1_555
Al1_2 O3G 1_555 1_555
Al1B O4G 1_555 1_555
Al1B_2 O4 1_555 1_555
O5B Al1 1_555 1_555
C5 C6 1_555 1_555
O5 Al1B_2 1_555 1_555
C5G C6G 1_555 1_555

#END
