
#######################################################################
#
#                 Cambridge Crystallographic Data Centre
#                                CCDC 
#
#######################################################################
#
# If this CIF has been generated from an entry in the Cambridge 
# Structural Database, then it will include bibliographic, chemical, 
# crystal, experimental, refinement or atomic coordinate data resulting 
# from the CCDC's data processing and validation procedures.
#
#######################################################################

data_QUCFUQ
_symmetry_cell_setting           triclinic
_symmetry_space_group_name_H-M   'P -1'
_symmetry_Int_Tables_number      2
_space_group_name_Hall           '-P 1'
loop_
_symmetry_equiv_pos_site_id
_symmetry_equiv_pos_as_xyz
1 x,y,z
2 -x,-y,-z
_cell_length_a                   6.5391(11)
_cell_length_b                   9.5305(16)
_cell_length_c                   9.7391(16)
_cell_angle_alpha                71.810(2)
_cell_angle_beta                 78.862(2)
_cell_angle_gamma                80.359(2)
_cell_volume                     562.005
loop_
_atom_site_label
_atom_site_type_symbol
_atom_site_fract_x
_atom_site_fract_y
_atom_site_fract_z
Ho1 Ho 0.09083(4) 0.29059(3) 0.30045(3)
O1 O -0.1655(7) 0.3863(5) 0.1370(5)
O2 O 0.1549(8) 0.1295(6) 0.1626(5)
O3 O 0.1351(9) 0.3228(5) 0.5267(6)
O4 O 0.2127(8) 0.0581(5) 0.4520(5)
O5 O -0.2292(7) 0.5458(5) -0.0767(5)
N1 N 0.2729(11) -0.0557(8) 0.0581(7)
H1 H 0.2407 0.0054 -0.0227
C1 C 0.2307(12) -0.0067(8) 0.1802(8)
C2 C 0.0606(11) 0.4422(8) 0.5578(8)
C3 C 0.3624(14) -0.1948(10) 0.0574(10)
H2 H 0.3862 -0.2213 -0.0290
C4 C 0.4170(14) -0.2947(9) 0.1807(10)
H3 H 0.4851 -0.3882 0.1795
C5 C 0.3695(13) -0.2550(9) 0.3094(10)
H4 H 0.3999 -0.3250 0.3960
C6 C 0.2776(10) -0.1133(7) 0.3126(7)
C7 C 0.2306(10) -0.0747(7) 0.4529(7)
C8 C -0.1147(10) 0.4807(7) 0.0161(7)
O7 O 0.2125(7) -0.1813(5) 0.5703(5)
O8 O 0.0730(9) 0.4748(6) 0.6691(5)
O9 O 0.4526(8) 0.2970(7) 0.2822(6)
H7 H 0.508(12) 0.263(11) 0.359(5)
H8 H 0.549(10) 0.332(11) 0.215(6)
Ho1A Ho -0.09083(4) 0.70941(3) -0.30045(3)
Ho1A_2 Ho -0.09083(4) -0.29059(3) 0.69955(3)
Ho1A_3 Ho -0.09083(4) 0.70941(3) 0.69955(3)
O1A O 0.1655(7) 0.6137(5) -0.1370(5)
O2A O -0.1549(8) -0.1295(6) 0.8374(5)
O2A_2 O -0.1549(8) 0.8705(6) -0.1626(5)
O3A O -0.1351(9) 0.6772(5) 0.4733(6)
O3A_2 O -0.1351(9) 0.6772(5) -0.5267(6)
O4A O -0.2127(8) -0.0581(5) 0.5480(5)
O4A_2 O -0.2127(8) 0.9419(5) -0.4520(5)
O5A O 0.2292(7) 0.4542(5) 0.0767(5)
N1A N -0.2729(11) 0.0557(8) 0.9419(7)
H1A H -0.2407 -0.0054 1.0227
C1A C -0.2307(12) 0.0067(8) 0.8198(8)
C2A C -0.0606(11) 0.5578(8) 0.4422(8)
C3A C -0.3624(14) 0.1948(10) 0.9426(10)
H2A H -0.3862 0.2213 1.0290
C4A C -0.4170(14) 0.2947(9) 0.8193(10)
H3A H -0.4851 0.3882 0.8205
C5A C -0.3695(13) 0.2550(9) 0.6906(10)
H4A H -0.3999 0.3250 0.6040
C6A C -0.2776(10) 0.1133(7) 0.6874(7)
C7A C -0.2306(10) 0.0747(7) 0.5471(7)
C8A C 0.1147(10) 0.5193(7) -0.0161(7)
O7A O -0.2125(7) 0.1813(5) 0.4297(5)
O7_2 O 0.2125(7) 0.8187(5) -0.4297(5)
O8A O -0.0730(9) 0.5252(6) 0.3309(5)
O8_2 O 0.0730(9) 0.4748(6) -0.3309(5)
O9A O -0.4526(8) 0.7030(7) -0.2822(6)
H7A H -0.508(12) 0.737(11) -0.359(5)
H8A H -0.549(10) 0.668(11) -0.215(6)
O6 O 0.2278(13) 0.0635(9) 0.7646(8)
H5 H 0.164(16) 0.149(7) 0.758(10)
H6 H 0.203(16) 0.041(10) 0.691(6)
loop_
_geom_bond_atom_site_label_1
_geom_bond_atom_site_label_2
_geom_bond_site_symmetry_1
_geom_bond_site_symmetry_2
Ho1 O1 1_555 1_555
O1 C8 1_555 1_555
O2 Ho1 1_555 1_555
O3 Ho1 1_555 1_555
O4 Ho1 1_555 1_555
O5 C8 1_555 1_555
N1 H1 1_555 1_555
C1 O2 1_555 1_555
C2 O3 1_555 1_555
C3 N1 1_555 1_555
H2 C3 1_555 1_555
C4 C3 1_555 1_555
H3 C4 1_555 1_555
C5 C4 1_555 1_555
H4 C5 1_555 1_555
C6 C1 1_555 1_555
C7 O4 1_555 1_555
C8 C8A 1_555 1_555
O6 H5 1_555 1_555
O7 C7 1_555 1_555
O8 C2 1_555 1_555
O9 Ho1 1_555 1_555
H6 O6 1_555 1_555
H7 O9 1_555 1_555
H8 O9 1_555 1_555
Ho1A O5 1_555 1_555
Ho1A_2 O7 1_555 1_555
Ho1A_3 O8 1_555 1_555
O1A Ho1A 1_555 1_555
O2A Ho1A_2 1_555 1_555
O2A_2 Ho1A 1_555 1_555
O3A Ho1A_3 1_555 1_555
O3A_2 Ho1A 1_555 1_555
O4A Ho1A_2 1_555 1_555
O4A_2 Ho1A 1_555 1_555
O5A Ho1 1_555 1_555
N1A H1A 1_555 1_555
C1A O2A 1_555 1_555
C2A C2 1_555 1_555
C3A N1A 1_555 1_555
H2A C3A 1_555 1_555
C4A C3A 1_555 1_555
H3A C4A 1_555 1_555
C5A C4A 1_555 1_555
H4A C5A 1_555 1_555
C6A C1A 1_555 1_555
C7A O4A 1_555 1_555
C8A O1A 1_555 1_555
O7A Ho1 1_555 1_555
O7_2 Ho1A 1_555 1_555
O8A Ho1 1_555 1_555
O8_2 Ho1A 1_555 1_555
O9A Ho1A 1_555 1_555
H7A O9A 1_555 1_555
H8A O9A 1_555 1_555
N1 C1 1_555 1_555
C5 C6 1_555 1_555
C6 C7 1_555 1_555
O3A C2A 1_555 1_555
O5A C8A 1_555 1_555
N1A C1A 1_555 1_555
C2A O8A 1_555 1_555
C5A C6A 1_555 1_555
C6A C7A 1_555 1_555
C7A O7A 1_555 1_555

#END
