
#######################################################################
#
#                 Cambridge Crystallographic Data Centre
#                                CCDC 
#
#######################################################################
#
# If this CIF has been generated from an entry in the Cambridge 
# Structural Database, then it will include bibliographic, chemical, 
# crystal, experimental, refinement or atomic coordinate data resulting 
# from the CCDC's data processing and validation procedures.
#
#######################################################################

data_QUCFOL
_symmetry_cell_setting           triclinic
_symmetry_space_group_name_H-M   'P -1'
_symmetry_Int_Tables_number      2
_space_group_name_Hall           '-P 1'
loop_
_symmetry_equiv_pos_site_id
_symmetry_equiv_pos_as_xyz
1 x,y,z
2 -x,-y,-z
_cell_length_a                   6.6872(4)
_cell_length_b                   6.6878(6)
_cell_length_c                   13.6148(11)
_cell_angle_alpha                84.698(8)
_cell_angle_beta                 84.705(5)
_cell_angle_gamma                61.126(5)
_cell_volume                     530.12
loop_
_atom_site_label
_atom_site_type_symbol
_atom_site_fract_x
_atom_site_fract_y
_atom_site_fract_z
O9 O -0.9405 0.9561 -0.1221
S1 S -1.2391 0.5739 -0.9944
Al1 Al -0.5000 0.5000 -0.5000
Al2 Al 0.0000 0.0000 -0.5000
O1 O -0.3113 0.1838 -0.5038
O2 O -1.5484 0.9090 -0.6582
O3 O -0.6499 0.4684 -0.5963
O4 O -0.9708 0.7734 -0.5900
O5 O -1.3429 0.5852 -0.5933
O6 O -1.3266 0.4156 -0.9510
O7 O -1.4737 0.7764 -1.0195
C1 C -0.8233 0.6129 -0.6388
C2 C -1.3493 0.7371 -0.6614
C3 C -0.9238 0.6456 -0.7336
C4 C -1.1651 0.7407 -0.7359
C5 C -0.7881 0.5500 -0.8198
C6 C -0.8988 0.5599 -0.9039
C7 C -1.1265 0.6526 -0.9045
C8 C -1.2641 0.7394 -0.8215
O8 O -0.0310 -0.1335 -0.3708
S1A S -0.7609 0.4261 -1.0056
O3A O -1.3501 0.5316 -1.4037
O6A O -0.6734 0.5844 -1.0490
O7A O -0.5263 0.2236 -0.9805
C1A C -1.1767 0.3871 -1.3612
C2A C -0.6507 0.2629 -1.3386
C3A C -1.0762 0.3544 -1.2664
C4A C -0.8349 0.2593 -1.2641
C5A C -1.2119 0.4500 -1.1802
C6A C -1.1012 0.4401 -1.0961
C7A C -0.8735 0.3474 -1.0955
C8A C -0.7359 0.2606 -1.1785
O2A O -0.4516 0.0910 -1.3418
O4A O -1.0292 0.2266 -1.4100
O5A O -0.6571 0.4148 -1.4067
O1A O -0.6887 0.8162 -0.4962
O8A O 0.0310 0.1335 -0.6292
Al1_2 Al -1.5000 0.5000 -1.5000
Al1_3 Al -1.5000 0.5000 -0.5000
Al1_4 Al -0.5000 0.5000 -1.5000
Al2_2 Al -1.0000 0.0000 -1.5000
Al2_3 Al -1.0000 1.0000 -0.5000
O1A_2 O 0.3113 -0.1838 -0.4962
O3A_2 O -0.3501 0.5316 -0.4037
O4_2 O 0.0292 -0.2266 -0.5900
O4A_2 O -0.0292 0.2266 -0.4100
O5_2 O -0.3429 0.5852 -0.5933
O5A_2 O -0.6571 0.4148 -0.4067
loop_
_geom_bond_atom_site_label_1
_geom_bond_atom_site_label_2
_geom_bond_site_symmetry_1
_geom_bond_site_symmetry_2
S1 O6 1_555 1_555
Al1 O1 1_555 1_555
Al2 O1 1_555 1_555
O2 C2 1_555 1_555
O3 Al1 1_555 1_555
O4 C1 1_555 1_555
O5 C2 1_555 1_555
O7 S1 1_555 1_555
C1 O3 1_555 1_555
C2 C4 1_555 1_555
C3 C1 1_555 1_555
C4 C3 1_555 1_555
C5 C3 1_555 1_555
C6 C5 1_555 1_555
C7 S1 1_555 1_555
C8 C4 1_555 1_555
O8 Al2 1_555 1_555
S1A C6 1_555 1_555
O3A C1A 1_555 1_555
O6A S1A 1_555 1_555
O7A S1A 1_555 1_555
C1A C3A 1_555 1_555
C2A C4A 1_555 1_555
C3A C4A 1_555 1_555
C4A C8A 1_555 1_555
C5A C3A 1_555 1_555
C6A S1 1_555 1_555
C7A S1A 1_555 1_555
C8A C7A 1_555 1_555
O2A C2A 1_555 1_555
O4A C1A 1_555 1_555
O5A C2A 1_555 1_555
O1A Al1 1_555 1_555
O8A Al2 1_555 1_555
Al1_2 O3A 1_555 1_555
Al1_3 O5 1_555 1_555
Al1_4 O5A 1_555 1_555
Al2_2 O4A 1_555 1_555
Al2_3 O4 1_555 1_555
O1A_2 Al2 1_555 1_555
O3A_2 Al1 1_555 1_555
O4_2 Al2 1_555 1_555
O4A_2 Al2 1_555 1_555
O5_2 Al1 1_555 1_555
O5A_2 Al1 1_555 1_555
C6 C7 1_555 1_555
C7 C8 1_555 1_555
C5A C6A 1_555 1_555
C6A C7A 1_555 1_555
O1A Al2_3 1_555 1_555

#END
