
#######################################################################
#
#                 Cambridge Crystallographic Data Centre
#                                CCDC 
#
#######################################################################
#
# If this CIF has been generated from an entry in the Cambridge 
# Structural Database, then it will include bibliographic, chemical, 
# crystal, experimental, refinement or atomic coordinate data resulting 
# from the CCDC's data processing and validation procedures.
#
#######################################################################

data_QUCGIF
_symmetry_cell_setting           monoclinic
_symmetry_space_group_name_H-M   'P 21/c'
_symmetry_Int_Tables_number      14
_space_group_name_Hall           '-P 2ybc'
loop_
_symmetry_equiv_pos_site_id
_symmetry_equiv_pos_as_xyz
1 x,y,z
2 -x,1/2+y,1/2-z
3 -x,-y,-z
4 x,1/2-y,1/2+z
_cell_length_a                   6.1146(12)
_cell_length_b                   21.424(4)
_cell_length_c                   12.577(3)
_cell_angle_alpha                90
_cell_angle_beta                 101.10(3)
_cell_angle_gamma                90
_cell_volume                     1616.76
loop_
_atom_site_label
_atom_site_type_symbol
_atom_site_fract_x
_atom_site_fract_y
_atom_site_fract_z
O1 O -0.045(3) -0.0632(10) -0.0746(11)
O2 O 0.340(5) 0.0205(10) -0.0364(12)
Zn1 Zn 0.5000 0.0000 0.5000
O3 O 0.6981(4) -0.00325(10) 0.3877(2)
O4 O 0.8573(7) 0.01818(18) 0.2500(3)
O5 O 0.3495(5) 0.07935(11) 0.4179(2)
N1 N 0.4916(7) 0.17173(17) 0.1532(3)
N2 N 0.2252(6) 0.24690(15) 0.1677(3)
N3 N -0.0127(6) 0.23572(16) 0.2988(3)
N4 N -0.0227(6) 0.32384(15) 0.1907(3)
N5 N -0.2450(5) 0.43908(14) 0.1084(2)
H1 H -0.154(8) 0.466(2) 0.152(4)
C1 C 0.7147(7) 0.02891(17) 0.3064(3)
C2 C 0.5658(7) 0.08450(17) 0.2772(3)
C3 C 0.3947(6) 0.10453(16) 0.3346(3)
C4 C 0.2744(7) 0.15974(16) 0.2910(3)
C5 C 0.0937(8) 0.18359(19) 0.3318(3)
H2 H 0.0454 0.1610 0.3861
C6 C 0.0671(7) 0.26762(18) 0.2197(3)
C7 C 0.3246(7) 0.19340(18) 0.2034(3)
C8 C 0.6010(8) 0.1189(2) 0.1902(4)
H3 H 0.7096 0.1047 0.1535
C9 C 0.5540(11) 0.2051(3) 0.0585(5)
H4 H 0.5306 0.2496 0.0653
H5 H 0.7107 0.1983 0.0582
C10 C 0.4247(16) 0.1834(5) -0.0401(7)
H6 H 0.4566 0.1401 -0.0496
H7 H 0.4605 0.2071 -0.0993
H8 H 0.2693 0.1883 -0.0385
C11 C -0.1608(8) 0.3572(2) 0.2553(4)
H9 H -0.0673 0.3839 0.3077
H10 H -0.2346 0.3275 0.2947
C12 C -0.3356(7) 0.3970(2) 0.1813(4)
H11 H -0.4429 0.3694 0.1379
H12 H -0.4150 0.4218 0.2262
C13 C -0.1090(6) 0.40176(17) 0.0469(3)
H13 H -0.0405 0.4295 0.0018
H14 H -0.2057 0.3734 -0.0006
C14 C 0.0708(7) 0.36460(18) 0.1185(4)
H15 H 0.1500 0.3397 0.0737
H16 H 0.1768 0.3929 0.1610
Zn1A Zn -0.5000 0.5000 0.0000
Zn1A_2 Zn -0.5000 -0.5000 0.0000
O3A O -0.6981(4) -0.50325(10) 0.1123(2)
O3B O 0.3019(4) 0.00325(10) 0.6123(2)
O4A O -0.8573(7) -0.48182(18) 0.2500(3)
O5A O -0.3495(5) -0.42065(11) 0.0821(2)
O5B O 0.6505(5) -0.07935(11) 0.5821(2)
N1A N -0.4916(7) -0.32827(17) 0.3468(3)
N2A N -0.2252(6) -0.25310(15) 0.3323(3)
N3A N 0.0127(6) -0.26428(16) 0.2012(3)
N4A N 0.0227(6) -0.17616(15) 0.3093(3)
N5A N 0.2450(5) -0.06092(14) 0.3916(2)
N5C N 0.7550(5) 0.06092(14) 0.6084(2)
H1A H 0.154(8) -0.034(2) 0.348(4)
H1C H 0.846(8) 0.034(2) 0.652(4)
C1A C -0.7147(7) -0.47109(17) 0.1936(3)
C2A C -0.5658(7) -0.41550(17) 0.2228(3)
C3A C -0.3947(6) -0.39547(16) 0.1654(3)
C4A C -0.2744(7) -0.34026(16) 0.2090(3)
C5A C -0.0937(8) -0.31641(19) 0.1682(3)
H2A H -0.0454 -0.3390 0.1139
C6A C -0.0671(7) -0.23238(18) 0.2803(3)
C7A C -0.3246(7) -0.30660(18) 0.2966(3)
C8A C -0.6010(8) -0.3811(2) 0.3098(4)
H3A H -0.7096 -0.3953 0.3465
C9A C -0.5540(11) -0.2949(3) 0.4415(5)
H4A H -0.5306 -0.2504 0.4347
H5A H -0.7107 -0.3017 0.4418
C10A C -0.4247(16) -0.3166(5) 0.5401(7)
H6A H -0.4566 -0.3599 0.5496
H7A H -0.4605 -0.2929 0.5993
H8A H -0.2693 -0.3117 0.5385
C11A C 0.1608(8) -0.1428(2) 0.2447(4)
H9A H 0.0673 -0.1161 0.1923
H10A H 0.2346 -0.1725 0.2053
C12A C 0.3356(7) -0.1030(2) 0.3187(4)
H11A H 0.4429 -0.1306 0.3621
H12A H 0.4150 -0.0782 0.2738
C13A C 0.1090(6) -0.09824(17) 0.4531(3)
H13A H 0.0405 -0.0705 0.4982
H14A H 0.2057 -0.1266 0.5006
C14A C -0.0708(7) -0.13540(18) 0.3815(4)
H15A H -0.1500 -0.1603 0.4263
H16A H -0.1768 -0.1071 0.3390
loop_
_geom_bond_atom_site_label_1
_geom_bond_atom_site_label_2
_geom_bond_site_symmetry_1
_geom_bond_site_symmetry_2
Zn1 O3 1_555 1_555
O3 C1 1_555 1_555
O4 C1 1_555 1_555
O5 Zn1 1_555 1_555
N1 C7 1_555 1_555
N2 C6 1_555 1_555
N3 C5 1_555 1_555
N4 C6 1_555 1_555
N5 H1 1_555 1_555
C1 C2 1_555 1_555
C2 C3 1_555 1_555
C3 O5 1_555 1_555
C4 C3 1_555 1_555
C5 C4 1_555 1_555
H2 C5 1_555 1_555
C6 N3 1_555 1_555
C7 N2 1_555 1_555
C8 N1 1_555 1_555
H3 C8 1_555 1_555
C9 N1 1_555 1_555
H4 C9 1_555 1_555
H5 C9 1_555 1_555
C10 C9 1_555 1_555
H6 C10 1_555 1_555
H7 C10 1_555 1_555
H8 C10 1_555 1_555
C11 N4 1_555 1_555
H9 C11 1_555 1_555
H10 C11 1_555 1_555
C12 N5 1_555 1_555
H11 C12 1_555 1_555
H12 C12 1_555 1_555
C13 N5 1_555 1_555
H13 C13 1_555 1_555
H14 C13 1_555 1_555
C14 N4 1_555 1_555
H15 C14 1_555 1_555
H16 C14 1_555 1_555
Zn1A N5 1_555 1_555
Zn1A_2 O3A 1_555 1_555
O3A C1A 1_555 1_555
O3B Zn1 1_555 1_555
O4A C1A 1_555 1_555
O5A Zn1A_2 1_555 1_555
O5B Zn1 1_555 1_555
N1A C7A 1_555 1_555
N2A C6A 1_555 1_555
N3A C5A 1_555 1_555
N4A C6A 1_555 1_555
N5A Zn1 1_555 1_555
N5C Zn1 1_555 1_555
H1A N5A 1_555 1_555
H1C N5C 1_555 1_555
C1A C2A 1_555 1_555
C2A C3A 1_555 1_555
C3A O5A 1_555 1_555
C4A C3A 1_555 1_555
C5A C4A 1_555 1_555
H2A C5A 1_555 1_555
C6A N3A 1_555 1_555
C7A N2A 1_555 1_555
C8A N1A 1_555 1_555
H3A C8A 1_555 1_555
C9A N1A 1_555 1_555
H4A C9A 1_555 1_555
H5A C9A 1_555 1_555
C10A C9A 1_555 1_555
H6A C10A 1_555 1_555
H7A C10A 1_555 1_555
H8A C10A 1_555 1_555
C11A N4A 1_555 1_555
H9A C11A 1_555 1_555
H10A C11A 1_555 1_555
C12A N5A 1_555 1_555
H11A C12A 1_555 1_555
H12A C12A 1_555 1_555
C13A N5A 1_555 1_555
H13A C13A 1_555 1_555
H14A C13A 1_555 1_555
C14A N4A 1_555 1_555
H15A C14A 1_555 1_555
H16A C14A 1_555 1_555
C2 C8 1_555 1_555
C4 C7 1_555 1_555
C11 C12 1_555 1_555
C13 C14 1_555 1_555
C2A C8A 1_555 1_555
C4A C7A 1_555 1_555
C11A C12A 1_555 1_555
C13A C14A 1_555 1_555

#END
