
#######################################################################
#
#                 Cambridge Crystallographic Data Centre
#                                CCDC 
#
#######################################################################
#
# If this CIF has been generated from an entry in the Cambridge 
# Structural Database, then it will include bibliographic, chemical, 
# crystal, experimental, refinement or atomic coordinate data resulting 
# from the CCDC's data processing and validation procedures.
#
#######################################################################

data_QUCHIG
_symmetry_cell_setting           monoclinic
_symmetry_space_group_name_H-M   'C 2/c'
_symmetry_Int_Tables_number      15
_space_group_name_Hall           '-C 2yn'
loop_
_symmetry_equiv_pos_site_id
_symmetry_equiv_pos_as_xyz
1 x,y,z
2 -x,y,1/2-z
3 1/2+x,1/2+y,z
4 1/2-x,1/2+y,1/2-z
5 -x,-y,-z
6 x,-y,1/2+z
7 1/2-x,1/2-y,-z
8 1/2+x,1/2-y,1/2+z
_cell_length_a                   20.692(2)
_cell_length_b                   5.6750(10)
_cell_length_c                   22.178(3)
_cell_angle_alpha                90
_cell_angle_beta                 115.260(10)
_cell_angle_gamma                90
_cell_volume                     2355.28
loop_
_atom_site_label
_atom_site_type_symbol
_atom_site_fract_x
_atom_site_fract_y
_atom_site_fract_z
Ca1 Ca 0.0000 0.11798(9) 0.7500
P1 P 0.08497(3) 0.40618(9) 0.90271(3)
S1 S 0.11429(2) 0.61596(8) 0.80223(2)
N1 N 0.10168(11) 0.6246(3) 0.86566(10)
O1 O 0.08963(8) 0.4015(2) 0.76256(7)
O2 O 0.08568(8) 0.8289(3) 0.76345(8)
O3 O 0.03860(8) 0.2157(3) 0.86087(7)
O4 O 0.05382(10) 0.5213(3) 0.94933(8)
O5 O 0.15878(8) 0.3097(3) 0.95446(8)
C1 C 0.20763(10) 0.6308(3) 0.82721(10)
C2 C 0.24528(12) 0.8183(4) 0.86721(13)
H1 H 0.2221 0.9313 0.8812
C3 C 0.31817(13) 0.8330(5) 0.88576(15)
H2 H 0.3441 0.9571 0.9126
C4 C 0.35270(13) 0.6668(5) 0.86510(14)
H3 H 0.4015 0.6799 0.8774
C5 C 0.31461(12) 0.4795(5) 0.82586(12)
H4 H 0.3379 0.3667 0.8119
C6 C 0.24168(12) 0.4602(4) 0.80730(11)
H5 H 0.2161 0.3333 0.7817
C7 C -0.00791(16) 0.6710(5) 0.92083(17)
H6 H 0.0048 0.8154 0.9060
H7 H -0.0251 0.7052 0.9538
H8 H -0.0446 0.5927 0.8836
C8 C 0.16248(17) 0.0968(5) 0.99136(15)
H9 H 0.2108 0.0719 1.0237
H10 H 0.1472 -0.0345 0.9612
H11 H 0.1319 0.1115 1.0137
Ca1_2 Ca 0.0000 1.11798(9) 0.7500
Ca1_3 Ca 0.0000 -0.88202(9) 0.7500
P1_2 P 0.08497(3) -0.59382(9) 0.90271(3)
S1_2 S 0.11429(2) -0.38404(8) 0.80223(2)
N1_2 N 0.10168(11) -0.3754(3) 0.86566(10)
O1_2 O 0.08963(8) -0.5985(2) 0.76256(7)
O1A O -0.08963(8) 0.4015(2) 0.73744(7)
O2_2 O 0.08568(8) -0.1711(3) 0.76345(8)
O2A O -0.08568(8) -0.1711(3) 0.73655(8)
O3_2 O 0.03860(8) -0.7843(3) 0.86087(7)
O3A O -0.03860(8) 0.2157(3) 0.63913(7)
O4_2 O 0.05382(10) -0.4787(3) 0.94933(8)
O5_2 O 0.15878(8) -0.6903(3) 0.95446(8)
C1_2 C 0.20763(10) -0.3692(3) 0.82721(10)
C2_2 C 0.24528(12) -0.1817(4) 0.86721(13)
H1_2 H 0.2221 -0.0687 0.8812
C3_2 C 0.31817(13) -0.1670(5) 0.88576(15)
H2_2 H 0.3441 -0.0429 0.9126
C4_2 C 0.35270(13) -0.3332(5) 0.86510(14)
H3_2 H 0.4015 -0.3201 0.8774
C5_2 C 0.31461(12) -0.5205(5) 0.82586(12)
H4_2 H 0.3379 -0.6333 0.8119
C6_2 C 0.24168(12) -0.5398(4) 0.80730(11)
H5_2 H 0.2161 -0.6667 0.7817
C7_2 C -0.00791(16) -0.3290(5) 0.92083(17)
H6_2 H 0.0048 -0.1846 0.9060
H7_2 H -0.0251 -0.2948 0.9538
H8_2 H -0.0446 -0.4073 0.8836
C8_2 C 0.16248(17) -0.9032(5) 0.99136(15)
H9_2 H 0.2108 -0.9281 1.0237
H10_2 H 0.1472 -1.0345 0.9612
H11_2 H 0.1319 -0.8885 1.0137
loop_
_geom_bond_atom_site_label_1
_geom_bond_atom_site_label_2
_geom_bond_site_symmetry_1
_geom_bond_site_symmetry_2
Ca1 O1 1_555 1_555
P1 N1 1_555 1_555
S1 N1 1_555 1_555
O1 S1 1_555 1_555
O2 S1 1_555 1_555
O3 Ca1 1_555 1_555
O4 P1 1_555 1_555
O5 P1 1_555 1_555
C1 S1 1_555 1_555
C2 C1 1_555 1_555
H1 C2 1_555 1_555
C3 C2 1_555 1_555
H2 C3 1_555 1_555
C4 C3 1_555 1_555
H3 C4 1_555 1_555
C5 C4 1_555 1_555
H4 C5 1_555 1_555
C6 C1 1_555 1_555
H5 C6 1_555 1_555
C7 O4 1_555 1_555
H6 C7 1_555 1_555
H7 C7 1_555 1_555
H8 C7 1_555 1_555
C8 O5 1_555 1_555
H9 C8 1_555 1_555
H10 C8 1_555 1_555
H11 C8 1_555 1_555
Ca1_2 O2 1_555 1_555
Ca1_3 O1_2 1_555 1_555
P1_2 N1_2 1_555 1_555
S1_2 N1_2 1_555 1_555
O1_2 S1_2 1_555 1_555
O1A Ca1 1_555 1_555
O2_2 Ca1 1_555 1_555
O2A Ca1 1_555 1_555
O3_2 Ca1_3 1_555 1_555
O3A Ca1 1_555 1_555
O4_2 P1_2 1_555 1_555
O5_2 P1_2 1_555 1_555
C1_2 S1_2 1_555 1_555
C2_2 C1_2 1_555 1_555
H1_2 C2_2 1_555 1_555
C3_2 C2_2 1_555 1_555
H2_2 C3_2 1_555 1_555
C4_2 C3_2 1_555 1_555
H3_2 C4_2 1_555 1_555
C5_2 C4_2 1_555 1_555
H4_2 C5_2 1_555 1_555
C6_2 C1_2 1_555 1_555
H5_2 C6_2 1_555 1_555
C7_2 O4_2 1_555 1_555
H6_2 C7_2 1_555 1_555
H7_2 C7_2 1_555 1_555
H8_2 C7_2 1_555 1_555
C8_2 O5_2 1_555 1_555
H9_2 C8_2 1_555 1_555
H10_2 C8_2 1_555 1_555
H11_2 C8_2 1_555 1_555
P1 O3 1_555 1_555
C5 C6 1_555 1_555
P1_2 O3_2 1_555 1_555
S1_2 O2_2 1_555 1_555
C5_2 C6_2 1_555 1_555

#END
