
#######################################################################
#
#                 Cambridge Crystallographic Data Centre
#                                CCDC 
#
#######################################################################
#
# If this CIF has been generated from an entry in the Cambridge 
# Structural Database, then it will include bibliographic, chemical, 
# crystal, experimental, refinement or atomic coordinate data resulting 
# from the CCDC's data processing and validation procedures.
#
#######################################################################

data_QUCHUT
_symmetry_cell_setting           monoclinic
_symmetry_space_group_name_H-M   'P 21'
_symmetry_Int_Tables_number      4
_space_group_name_Hall           'P 2yb'
loop_
_symmetry_equiv_pos_site_id
_symmetry_equiv_pos_as_xyz
1 x,y,z
2 -x,1/2+y,-z
_cell_length_a                   19.5092(4)
_cell_length_b                   14.9489(2)
_cell_length_c                   22.5356(4)
_cell_angle_alpha                90
_cell_angle_beta                 98.240(2)
_cell_angle_gamma                90
_cell_volume                     6504.46
loop_
_atom_site_label
_atom_site_type_symbol
_atom_site_fract_x
_atom_site_fract_y
_atom_site_fract_z
Fe1 Fe 0.37644(2) 0.31444(3) 0.77838(2)
Fe2 Fe -0.11868(2) 0.29200(3) 0.77511(2)
Mn1 Mn 0.62790(2) 0.18307(3) 0.78406(2)
Mn2 Mn 0.12734(2) 0.43183(3) 0.77044(2)
O1 O 0.12003(11) 0.55334(15) 0.74695(10)
O2 O 0.12495(12) 0.39044(16) 0.69189(10)
O3 O 0.61857(12) 0.21143(16) 0.70245(11)
O4 O 0.62639(12) 0.05886(16) 0.76859(11)
N1 N 0.50891(14) 0.19835(19) 0.77968(13)
N2 N 0.24589(14) 0.42950(19) 0.78613(12)
N3 N 0.43071(16) 0.3607(2) 0.90969(14)
N4 N 0.34193(13) 0.28542(19) 0.69559(12)
N5 N 0.25930(14) 0.09092(19) 0.74542(13)
N6 N 0.32303(13) 0.20721(18) 0.79068(12)
N7 N 0.42357(15) 0.4830(2) 0.65048(14)
N8 N 0.41588(14) 0.41409(19) 0.73952(13)
N9 N 0.62325(13) 0.31086(19) 0.80872(12)
N10 N 0.64206(14) 0.16278(18) 0.87275(13)
N11 N 0.13554(13) 0.30831(18) 0.80474(12)
N12 N 0.13303(14) 0.46593(18) 0.85631(12)
N13 N 0.01186(14) 0.4071(2) 0.76431(13)
N14 N -0.05742(17) 0.2631(2) 0.90675(15)
N15 N 0.74426(14) 0.1955(2) 0.79115(13)
N16 N -0.08365(17) 0.1023(2) 0.65619(16)
N17 N -0.08355(15) 0.1854(2) 0.74129(14)
N18 N -0.23143(15) 0.5163(2) 0.73503(14)
N19 N -0.16769(14) 0.40358(19) 0.78276(13)
N20 N -0.15465(14) 0.3125(2) 0.69217(13)
C1 C 0.45996(17) 0.2415(2) 0.77793(14)
C2 C 0.29447(17) 0.3875(2) 0.78398(14)
C3 C 0.40987(17) 0.3433(2) 0.86055(15)
C4 C 0.30179(16) 0.2130(2) 0.68325(15)
C5 C 0.27247(18) 0.1944(3) 0.62495(16)
H1 H 0.2447 0.1443 0.6159
C6 C 0.28606(19) 0.2535(3) 0.58014(17)
H2 H 0.2659 0.2435 0.5407
C7 C 0.32828(19) 0.3256(3) 0.59313(16)
H3 H 0.3383 0.3637 0.5629
C8 C 0.35607(17) 0.3411(2) 0.65248(15)
C9 C 0.39964(17) 0.4144(2) 0.67858(15)
C10 C 0.45824(18) 0.5339(2) 0.69686(17)
C11 C 0.49307(19) 0.6153(2) 0.69469(19)
H4 H 0.4952 0.6441 0.6584
C12 C 0.5243(2) 0.6518(3) 0.7482(2)
H5 H 0.5492 0.7049 0.7478
C13 C 0.51911(19) 0.6101(3) 0.80285(19)
H6 H 0.5403 0.6366 0.8381
C14 C 0.48319(19) 0.5301(2) 0.80631(17)
H7 H 0.4791 0.5034 0.8429
C15 C 0.45378(17) 0.4925(2) 0.75239(16)
C16 C 0.29391(16) 0.1666(2) 0.73849(15)
C17 C 0.30493(17) 0.1532(2) 0.83570(16)
C18 C 0.31885(18) 0.1599(2) 0.89788(16)
H8 H 0.3451 0.2066 0.9166
C19 C 0.29164(19) 0.0933(3) 0.93052(17)
H9 H 0.3001 0.0953 0.9722
C20 C 0.2515(2) 0.0227(3) 0.90244(18)
H10 H 0.2338 -0.0202 0.9260
C21 C 0.23801(19) 0.0158(2) 0.84133(17)
H11 H 0.2118 -0.0313 0.8231
C22 C 0.26478(17) 0.0819(2) 0.80713(16)
C23 C 0.65767(18) 0.2474(2) 0.90691(16)
H12 H 0.7064 0.2619 0.9056
C24 C 0.61397(17) 0.3207(2) 0.87262(14)
H13 H 0.5653 0.3079 0.8756
C25 C 0.63096(19) 0.4115(2) 0.90123(16)
H14 H 0.6011 0.4567 0.8803
H15 H 0.6785 0.4271 0.8980
C26 C 0.6209(2) 0.4094(3) 0.96689(17)
H16 H 0.6339 0.4668 0.9852
H17 H 0.5724 0.3992 0.9698
C27 C 0.6639(2) 0.3368(3) 1.00033(17)
H18 H 0.6553 0.3360 1.0417
H19 H 0.7126 0.3499 1.0003
C28 C 0.6475(2) 0.2445(3) 0.97240(15)
H20 H 0.6778 0.1999 0.9935
H21 H 0.6000 0.2283 0.9756
C29 C 0.64576(18) 0.0868(2) 0.89884(17)
H22 H 0.6491 0.0867 0.9404
C30 C 0.64526(18) 0.0011(2) 0.86940(18)
C31 C 0.6564(2) -0.0754(3) 0.9061(2)
H23 H 0.6587 -0.0692 0.9474
C32 C 0.6639(2) -0.1578(3) 0.8828(2)
H24 H 0.6720 -0.2075 0.9076
C33 C 0.6594(2) -0.1667(3) 0.8208(3)
H25 H 0.6650 -0.2230 0.8046
C34 C 0.6467(2) -0.0944(3) 0.7826(2)
H26 H 0.6428 -0.1027 0.7414
C35 C 0.63973(17) -0.0071(2) 0.80642(19)
C36 C 0.62053(17) 0.3779(2) 0.77302(15)
H27 H 0.6199 0.4345 0.7900
C37 C 0.61846(17) 0.3735(2) 0.70939(16)
C38 C 0.61304(18) 0.4544(3) 0.67749(17)
H28 H 0.6135 0.5080 0.6985
C39 C 0.60714(19) 0.4564(3) 0.61592(18)
H29 H 0.6033 0.5107 0.5956
C40 C 0.6070(2) 0.3767(3) 0.58458(17)
H30 H 0.6031 0.3777 0.5430
C41 C 0.61242(18) 0.2960(3) 0.61444(16)
H31 H 0.6127 0.2433 0.5925
C42 C 0.61759(17) 0.2913(2) 0.67708(16)
C43 C 0.15571(17) 0.3081(2) 0.87081(14)
H32 H 0.2059 0.3175 0.8791
C44 C 0.12057(17) 0.3890(2) 0.89524(14)
H33 H 0.0706 0.3776 0.8901
C45 C 0.14533(19) 0.4019(2) 0.96186(15)
H34 H 0.1213 0.4521 0.9767
H35 H 0.1946 0.4149 0.9682
C46 C 0.13123(19) 0.3171(2) 0.99591(16)
H36 H 0.1501 0.3240 1.0379
H37 H 0.0816 0.3083 0.9933
C47 C 0.1636(2) 0.2352(2) 0.97050(16)
H38 H 0.2136 0.2412 0.9770
H39 H 0.1517 0.1822 0.9916
C48 C 0.13883(18) 0.2239(2) 0.90386(15)
H40 H 0.0893 0.2134 0.8972
H41 H 0.1615 0.1727 0.8887
C49 C 0.15318(17) 0.5424(2) 0.87713(16)
H42 H 0.1592 0.5495 0.9186
C50 C 0.16725(17) 0.6183(2) 0.84191(16)
C51 C 0.19743(18) 0.6938(2) 0.87234(16)
H43 H 0.2087 0.6922 0.9138
C52 C 0.2105(2) 0.7699(2) 0.84174(17)
H44 H 0.2314 0.8190 0.8622
C53 C 0.19208(19) 0.7727(2) 0.77999(17)
H45 H 0.2007 0.8244 0.7593
C54 C 0.16126(18) 0.7006(2) 0.74849(17)
H46 H 0.1484 0.7046 0.7072
C55 C 0.14922(16) 0.6211(2) 0.77862(15)
C56 C 0.12634(16) 0.2362(2) 0.77339(15)
H47 H 0.1291 0.1821 0.7940
C57 C 0.11214(17) 0.2327(2) 0.70911(15)
C58 C 0.11368(17) 0.3081(2) 0.67171(15)
C59 C 0.10384(18) 0.2952(3) 0.60904(16)
H48 H 0.1060 0.3438 0.5836
C60 C 0.09122(19) 0.2117(3) 0.58564(17)
H49 H 0.0849 0.2044 0.5442
C61 C 0.08754(19) 0.1376(2) 0.62159(17)
H50 H 0.0771 0.0817 0.6046
C62 C 0.09951(17) 0.1475(2) 0.68305(16)
H51 H 0.0992 0.0974 0.7075
C63 C -0.03583(18) 0.3625(2) 0.76718(15)
C64 C 0.79667(18) 0.2292(2) 0.78657(14)
C65 C -0.08143(18) 0.2729(2) 0.85737(17)
C66 C -0.19139(18) 0.3871(3) 0.67728(16)
C67 C -0.21977(19) 0.4009(3) 0.61740(17)
H52 H -0.2442 0.4532 0.6064
C68 C -0.2119(2) 0.3386(4) 0.57538(18)
H53 H -0.2311 0.3477 0.5356
C69 C -0.1747(2) 0.2606(3) 0.59201(18)
H54 H -0.1698 0.2167 0.5637
C70 C -0.14492(19) 0.2493(3) 0.65160(17)
C71 C -0.10373(19) 0.1761(3) 0.68047(18)
C72 C -0.0473(2) 0.0583(3) 0.7045(2)
C73 C -0.04623(19) 0.1097(2) 0.7578(2)
C74 C -0.0110(2) 0.0816(3) 0.8116(2)
H55 H -0.0111 0.1156 0.8461
C75 C 0.0250(2) 0.0007(3) 0.8132(3)
H56 H 0.0498 -0.0195 0.8490
C76 C 0.0234(3) -0.0503(3) 0.7599(3)
H57 H 0.0476 -0.1041 0.7617
C77 C -0.0116(2) -0.0241(3) 0.7068(3)
H58 H -0.0122 -0.0592 0.6727
C78 C -0.19753(17) 0.4404(2) 0.73042(16)
C79 C -0.22552(17) 0.5307(2) 0.79601(17)
C80 C -0.25245(19) 0.5973(3) 0.82893(19)
H59 H -0.2795 0.6428 0.8096
C81 C -0.2385(2) 0.5949(3) 0.89000(19)
H60 H -0.2567 0.6391 0.9123
C82 C -0.19736(19) 0.5271(3) 0.91977(18)
H61 H -0.1884 0.5278 0.9614
C83 C -0.16990(18) 0.4595(2) 0.88915(16)
H62 H -0.1425 0.4149 0.9091
C84 C -0.18505(17) 0.4611(2) 0.82681(16)
Fe2_2 Fe 0.88132(2) 0.29200(3) 0.77511(2)
C64_2 C -0.20333(18) 0.2292(2) 0.78657(14)
Mn3 Mn 0.34735(3) 0.88078(3) 0.65060(2)
O5 O 0.30013(14) 0.78890(17) 0.60405(11)
O6 O 0.33305(13) 0.96413(16) 0.58738(11)
O7 O 0.45096(16) 0.8333(2) 0.62245(14)
H63 H 0.4195 0.8336 0.5921
O8 O 0.25025(12) 0.93040(16) 0.68649(10)
H64 H 0.2523 0.9862 0.6962
N21 N 0.36953(14) 0.80154(19) 0.72201(13)
N22 N 0.39932(14) 0.96863(18) 0.70422(13)
C85 C 0.40235(17) 0.9427(2) 0.76817(15)
H65 H 0.3558 0.9505 0.7789
C86 C 0.41839(17) 0.8426(2) 0.77102(15)
H66 H 0.4656 0.8340 0.7619
C87 C 0.41507(19) 0.8064(3) 0.83394(15)
H67 H 0.3682 0.8121 0.8433
H68 H 0.4273 0.7435 0.8356
C88 C 0.4647(2) 0.8579(3) 0.87973(16)
H69 H 0.5118 0.8473 0.8726
H70 H 0.4604 0.8365 0.9197
C89 C 0.4497(2) 0.9583(2) 0.87627(16)
H71 H 0.4836 0.9894 0.9046
H72 H 0.4043 0.9694 0.8876
C90 C 0.45189(18) 0.9954(2) 0.81313(15)
H73 H 0.4387 1.0581 0.8117
H74 H 0.4986 0.9908 0.8033
C91 C 0.30504(17) 0.6725(2) 0.67872(16)
C92 C 0.34832(18) 0.7192(2) 0.72480(16)
H75 H 0.3628 0.6881 0.7601
C93 C 0.28420(18) 0.5853(2) 0.69224(17)
H76 H 0.2994 0.5616 0.7300
C94 C 0.24216(19) 0.5345(2) 0.65129(17)
H77 H 0.2277 0.4779 0.6613
C95 C 0.2217(2) 0.5699(3) 0.5944(2)
H78 H 0.1941 0.5359 0.5657
C96 C 0.2418(2) 0.6549(3) 0.57982(18)
H79 H 0.2275 0.6769 0.5415
C97 C 0.2828(2) 0.7080(2) 0.62143(17)
C98 C 0.42959(18) 1.0387(2) 0.68689(16)
H80 H 0.4576 1.0719 0.7157
C99 C 0.42257(19) 1.0684(2) 0.62565(16)
C100 C 0.37406(18) 1.0321(2) 0.57923(16)
C101 C 0.3673(2) 1.0726(3) 0.52259(17)
H81 H 0.3347 1.0504 0.4920
C102 C 0.4069(2) 1.1429(3) 0.51124(17)
H82 H 0.4012 1.1678 0.4730
C103 C 0.4567(2) 1.1792(3) 0.55615(18)
H83 H 0.4844 1.2268 0.5477
C104 C 0.4636(2) 1.1429(3) 0.61288(17)
H84 H 0.4955 1.1673 0.6432
C105 C 0.1862(2) 0.9239(3) 0.64784(19)
H85 H 0.1787 0.8631 0.6348
H86 H 0.1872 0.9619 0.6136
H87 H 0.1492 0.9423 0.6690
C106 C 0.5185(3) 0.8554(4) 0.6290(3)
H88 H 0.5248 0.9136 0.6469
H89 H 0.5340 0.8560 0.5904
H90 H 0.5449 0.8123 0.6543
Mn4 Mn 0.84525(3) 0.72759(3) 0.63502(2)
O9 O 0.84788(13) 0.65361(16) 0.56827(11)
O10 O 0.78957(13) 0.81518(17) 0.59178(11)
O11 O 0.94104(14) 0.80498(19) 0.61348(13)
H91 H 0.9132 0.8287 0.5873
O12 O 0.75181(13) 0.65285(16) 0.65667(12)
H92 H 0.7565 0.6175 0.6861
N23 N 0.84517(14) 0.7942(2) 0.71200(13)
N24 N 0.91335(14) 0.65168(19) 0.68655(12)
C107 C 0.93724(17) 0.6926(2) 0.74576(15)
H93 H 0.9723 0.7376 0.7403
C108 C 0.87575(18) 0.7409(2) 0.76451(15)
H94 H 0.8417 0.6953 0.7714
C109 C 0.89443(19) 0.7920(3) 0.82282(16)
H95 H 0.8529 0.8173 0.8350
H96 H 0.9255 0.8408 0.8168
C110 C 0.9296(2) 0.7295(3) 0.87228(16)
H97 H 0.9455 0.7642 0.9080
H98 H 0.8962 0.6861 0.8824
C111 C 0.99097(19) 0.6807(3) 0.85189(17)
H99 H 1.0261 0.7240 0.8452
H100 H 1.0110 0.6402 0.8833
C112 C 0.96928(19) 0.6277(3) 0.79430(16)
H101 H 1.0093 0.5985 0.7819
H102 H 0.9358 0.5821 0.8010
C113 C 0.94084(18) 0.5794(2) 0.66998(16)
H103 H 0.9735 0.5515 0.6981
C114 C 0.92579(18) 0.5376(2) 0.61208(15)
C115 C 0.87960(18) 0.5760(2) 0.56491(15)
C116 C 0.8666(2) 0.5290(3) 0.51022(16)
H104 H 0.8352 0.5515 0.4788
C117 C 0.9012(2) 0.4482(3) 0.50322(17)
H105 H 0.8929 0.4178 0.4669
C118 C 0.9478(2) 0.4129(3) 0.54989(17)
H106 H 0.9707 0.3595 0.5448
C119 C 0.9594(2) 0.4572(3) 0.60286(17)
H107 H 0.9907 0.4335 0.6339
C120 C 0.82045(19) 0.8734(2) 0.71676(16)
H108 H 0.8255 0.8979 0.7551
C121 C 0.78600(19) 0.9273(2) 0.66926(17)
C122 C 0.7634(2) 1.0122(3) 0.68348(19)
H109 H 0.7721 1.0316 0.7231
C123 C 0.7292(2) 1.0675(3) 0.6414(2)
H110 H 0.7140 1.1234 0.6521
C124 C 0.7172(2) 1.0392(3) 0.5824(2)
H111 H 0.6950 1.0771 0.5531
C125 C 0.7378(2) 0.9556(3) 0.56682(19)
H112 H 0.7285 0.9374 0.5270
C126 C 0.77236(19) 0.8974(2) 0.60939(18)
C127 C 0.68852(19) 0.6970(3) 0.6599(2)
H113 H 0.6787 0.7375 0.6267
H114 H 0.6919 0.7299 0.6968
H115 H 0.6520 0.6537 0.6584
C128 C 1.0035(3) 0.7659(4) 0.6009(3)
H116 H 0.9931 0.7142 0.5760
H117 H 1.0312 0.7485 0.6378
H118 H 1.0285 0.8086 0.5804
O13 O 0.40341(18) 0.7238(2) 0.53087(13)
O14 O 0.95121(16) 0.3465(2) 0.01577(14)
H119 H 0.9504 0.3229 -0.0172
C129 C 0.8909(2) 0.3271(4) 0.0380(2)
H120 H 0.8774 0.2666 0.0280
H121 H 0.8551 0.3672 0.0209
H122 H 0.8982 0.3338 0.0808
O15 O 1.0218(2) 0.5007(3) 0.0358(3)
H123 H 0.9971 0.4563 0.0362
C130 C 0.9840(4) 0.5691(4) 0.0102(4)
H124 H 0.9405 0.5713 0.0253
H125 H 0.9759 0.5608 -0.0325
H126 H 1.0086 0.6241 0.0194
O16 O 0.8905(2) 0.0648(3) 0.53343(19)
C131 C 0.9379(4) 0.1144(7) 0.5021(4)
O17 O 0.4830(3) 0.6556(3) 0.9416(2)
C132 C 0.5414(3) 0.6639(4) 0.9869(3)
H127 H 0.5703 0.6121 0.9864
H128 H 0.5260 0.6690 1.0253
H129 H 0.5672 0.7164 0.9794
O18 O 0.8881(3) 0.8904(4) 0.5198(2)
O19 O 0.4081(2) 0.5442(2) 0.53526(14)
H130 H 0.4054 0.5166 0.5691
C133 C 0.4437(3) 0.4869(3) 0.5010(2)
H131 H 0.4346 0.5042 0.4596
H132 H 0.4285 0.4265 0.5053
H133 H 0.4925 0.4909 0.5147
O20 O 0.39501(16) 0.5196(2) 0.96316(13)
H134 H 0.4077 0.4686 0.9569
C134 C 0.3394(3) 0.5425(4) 0.9201(2)
H135 H 0.3140 0.4895 0.9067
H136 H 0.3562 0.5706 0.8867
H137 H 0.3095 0.5832 0.9372
N25 N 0.7991(2) 0.1212(3) 0.97432(17)
C135 C 0.8159(2) 0.0851(3) 0.9348(2)
C136 C 0.8353(2) 0.0347(3) 0.8827(2)
H138 H 0.8014 -0.0109 0.8709
H139 H 0.8799 0.0075 0.8938
H140 H 0.8372 0.0750 0.8498
loop_
_geom_bond_atom_site_label_1
_geom_bond_atom_site_label_2
_geom_bond_site_symmetry_1
_geom_bond_site_symmetry_2
Fe1 N4 1_555 1_555
Fe2 N17 1_555 1_555
Mn1 O3 1_555 1_555
Mn2 O1 1_555 1_555
O1 C55 1_555 1_555
O2 Mn2 1_555 1_555
O3 C42 1_555 1_555
O4 Mn1 1_555 1_555
N1 Mn1 1_555 1_555
N2 Mn2 1_555 1_555
N3 C3 1_555 1_555
N4 C4 1_555 1_555
N5 C16 1_555 1_555
N6 Fe1 1_555 1_555
N7 C9 1_555 1_555
N8 Fe1 1_555 1_555
N9 Mn1 1_555 1_555
N10 Mn1 1_555 1_555
N11 Mn2 1_555 1_555
N12 Mn2 1_555 1_555
N13 Mn2 1_555 1_555
N14 C65 1_555 1_555
N15 Mn1 1_555 1_555
N16 C71 1_555 1_555
N17 C71 1_555 1_555
N18 C78 1_555 1_555
N19 Fe2 1_555 1_555
N20 Fe2 1_555 1_555
C1 Fe1 1_555 1_555
C2 Fe1 1_555 1_555
C3 Fe1 1_555 1_555
C4 C5 1_555 1_555
C5 H1 1_555 1_555
C6 C5 1_555 1_555
H2 C6 1_555 1_555
C7 C6 1_555 1_555
H3 C7 1_555 1_555
C8 N4 1_555 1_555
C9 N8 1_555 1_555
C10 N7 1_555 1_555
C11 C10 1_555 1_555
H4 C11 1_555 1_555
C12 C11 1_555 1_555
H5 C12 1_555 1_555
C13 C12 1_555 1_555
H6 C13 1_555 1_555
C14 C13 1_555 1_555
H7 C14 1_555 1_555
C15 N8 1_555 1_555
C16 N6 1_555 1_555
C17 N6 1_555 1_555
C18 C17 1_555 1_555
H8 C18 1_555 1_555
C19 C18 1_555 1_555
H9 C19 1_555 1_555
C20 C19 1_555 1_555
H10 C20 1_555 1_555
C21 C20 1_555 1_555
H11 C21 1_555 1_555
C22 N5 1_555 1_555
C23 N10 1_555 1_555
H12 C23 1_555 1_555
C24 N9 1_555 1_555
H13 C24 1_555 1_555
C25 C24 1_555 1_555
H14 C25 1_555 1_555
H15 C25 1_555 1_555
C26 C25 1_555 1_555
H16 C26 1_555 1_555
H17 C26 1_555 1_555
C27 C26 1_555 1_555
H18 C27 1_555 1_555
H19 C27 1_555 1_555
C28 C23 1_555 1_555
H20 C28 1_555 1_555
H21 C28 1_555 1_555
C29 N10 1_555 1_555
H22 C29 1_555 1_555
C30 C29 1_555 1_555
C31 C30 1_555 1_555
H23 C31 1_555 1_555
C32 C31 1_555 1_555
H24 C32 1_555 1_555
C33 C32 1_555 1_555
H25 C33 1_555 1_555
C34 C33 1_555 1_555
H26 C34 1_555 1_555
C35 O4 1_555 1_555
C36 N9 1_555 1_555
H27 C36 1_555 1_555
C37 C36 1_555 1_555
C38 C37 1_555 1_555
H28 C38 1_555 1_555
C39 C38 1_555 1_555
H29 C39 1_555 1_555
C40 C39 1_555 1_555
H30 C40 1_555 1_555
C41 C40 1_555 1_555
H31 C41 1_555 1_555
C42 C37 1_555 1_555
C43 N11 1_555 1_555
H32 C43 1_555 1_555
C44 N12 1_555 1_555
H33 C44 1_555 1_555
C45 C44 1_555 1_555
H34 C45 1_555 1_555
H35 C45 1_555 1_555
C46 C45 1_555 1_555
H36 C46 1_555 1_555
H37 C46 1_555 1_555
C47 C46 1_555 1_555
H38 C47 1_555 1_555
H39 C47 1_555 1_555
C48 C43 1_555 1_555
H40 C48 1_555 1_555
H41 C48 1_555 1_555
C49 N12 1_555 1_555
H42 C49 1_555 1_555
C50 C49 1_555 1_555
C51 C50 1_555 1_555
H43 C51 1_555 1_555
C52 C51 1_555 1_555
H44 C52 1_555 1_555
C53 C52 1_555 1_555
H45 C53 1_555 1_555
C54 C53 1_555 1_555
H46 C54 1_555 1_555
C55 C50 1_555 1_555
C56 N11 1_555 1_555
H47 C56 1_555 1_555
C57 C56 1_555 1_555
C58 O2 1_555 1_555
C59 C58 1_555 1_555
H48 C59 1_555 1_555
C60 C59 1_555 1_555
H49 C60 1_555 1_555
C61 C60 1_555 1_555
H50 C61 1_555 1_555
C62 C57 1_555 1_555
H51 C62 1_555 1_555
C63 Fe2 1_555 1_555
C64 N15 1_555 1_555
C65 Fe2 1_555 1_555
C66 N20 1_555 1_555
C67 C66 1_555 1_555
H52 C67 1_555 1_555
C68 C67 1_555 1_555
H53 C68 1_555 1_555
C69 C68 1_555 1_555
H54 C69 1_555 1_555
C70 N20 1_555 1_555
C71 C70 1_555 1_555
C72 N16 1_555 1_555
C73 N17 1_555 1_555
C74 C73 1_555 1_555
H55 C74 1_555 1_555
C75 C74 1_555 1_555
H56 C75 1_555 1_555
C76 C75 1_555 1_555
H57 C76 1_555 1_555
C77 C72 1_555 1_555
H58 C77 1_555 1_555
C78 N19 1_555 1_555
C79 N18 1_555 1_555
C80 C79 1_555 1_555
H59 C80 1_555 1_555
C81 C80 1_555 1_555
H60 C81 1_555 1_555
C82 C81 1_555 1_555
H61 C82 1_555 1_555
C83 C82 1_555 1_555
H62 C83 1_555 1_555
C84 N19 1_555 1_555
Mn3 O5 1_555 1_555
O5 C97 1_555 1_555
O6 Mn3 1_555 1_555
O7 Mn3 1_555 1_555
H63 O7 1_555 1_555
O8 Mn3 1_555 1_555
H64 O8 1_555 1_555
N21 Mn3 1_555 1_555
N22 Mn3 1_555 1_555
C85 N22 1_555 1_555
H65 C85 1_555 1_555
C86 N21 1_555 1_555
H66 C86 1_555 1_555
C87 C86 1_555 1_555
H67 C87 1_555 1_555
H68 C87 1_555 1_555
C88 C87 1_555 1_555
H69 C88 1_555 1_555
H70 C88 1_555 1_555
C89 C88 1_555 1_555
H71 C89 1_555 1_555
H72 C89 1_555 1_555
C90 C85 1_555 1_555
H73 C90 1_555 1_555
H74 C90 1_555 1_555
C91 C92 1_555 1_555
C92 N21 1_555 1_555
H75 C92 1_555 1_555
C93 C91 1_555 1_555
H76 C93 1_555 1_555
C94 C93 1_555 1_555
H77 C94 1_555 1_555
C95 C94 1_555 1_555
H78 C95 1_555 1_555
C96 C95 1_555 1_555
H79 C96 1_555 1_555
C97 C91 1_555 1_555
C98 N22 1_555 1_555
H80 C98 1_555 1_555
C99 C98 1_555 1_555
C100 O6 1_555 1_555
C101 C100 1_555 1_555
H81 C101 1_555 1_555
C102 C101 1_555 1_555
H82 C102 1_555 1_555
C103 C102 1_555 1_555
H83 C103 1_555 1_555
C104 C99 1_555 1_555
H84 C104 1_555 1_555
C105 O8 1_555 1_555
H85 C105 1_555 1_555
H86 C105 1_555 1_555
H87 C105 1_555 1_555
C106 O7 1_555 1_555
H88 C106 1_555 1_555
H89 C106 1_555 1_555
H90 C106 1_555 1_555
Mn4 O9 1_555 1_555
O9 C115 1_555 1_555
O10 Mn4 1_555 1_555
O11 Mn4 1_555 1_555
H91 O11 1_555 1_555
O12 Mn4 1_555 1_555
H92 O12 1_555 1_555
N23 Mn4 1_555 1_555
N24 Mn4 1_555 1_555
C107 N24 1_555 1_555
H93 C107 1_555 1_555
C108 N23 1_555 1_555
H94 C108 1_555 1_555
C109 C108 1_555 1_555
H95 C109 1_555 1_555
H96 C109 1_555 1_555
C110 C109 1_555 1_555
H97 C110 1_555 1_555
H98 C110 1_555 1_555
C111 C110 1_555 1_555
H99 C111 1_555 1_555
H100 C111 1_555 1_555
C112 C107 1_555 1_555
H101 C112 1_555 1_555
H102 C112 1_555 1_555
C113 N24 1_555 1_555
H103 C113 1_555 1_555
C114 C113 1_555 1_555
C115 C114 1_555 1_555
C116 C115 1_555 1_555
H104 C116 1_555 1_555
C117 C116 1_555 1_555
H105 C117 1_555 1_555
C118 C117 1_555 1_555
H106 C118 1_555 1_555
C119 C114 1_555 1_555
H107 C119 1_555 1_555
C120 N23 1_555 1_555
H108 C120 1_555 1_555
C121 C120 1_555 1_555
C122 C121 1_555 1_555
H109 C122 1_555 1_555
C123 C122 1_555 1_555
H110 C123 1_555 1_555
C124 C123 1_555 1_555
H111 C124 1_555 1_555
C125 C124 1_555 1_555
H112 C125 1_555 1_555
C126 O10 1_555 1_555
C127 O12 1_555 1_555
H113 C127 1_555 1_555
H114 C127 1_555 1_555
H115 C127 1_555 1_555
C128 O11 1_555 1_555
H116 C128 1_555 1_555
H117 C128 1_555 1_555
H118 C128 1_555 1_555
O14 H119 1_555 1_555
C129 O14 1_555 1_555
H120 C129 1_555 1_555
H121 C129 1_555 1_555
H122 C129 1_555 1_555
O15 H123 1_555 1_555
C130 O15 1_555 1_555
H124 C130 1_555 1_555
H125 C130 1_555 1_555
H126 C130 1_555 1_555
O16 C131 1_555 1_555
O17 C132 1_555 1_555
C132 H127 1_555 1_555
H128 C132 1_555 1_555
H129 C132 1_555 1_555
O19 H130 1_555 1_555
C133 O19 1_555 1_555
H131 C133 1_555 1_555
H132 C133 1_555 1_555
H133 C133 1_555 1_555
O20 H134 1_555 1_555
C134 O20 1_555 1_555
H135 C134 1_555 1_555
H136 C134 1_555 1_555
H137 C134 1_555 1_555
N25 C135 1_555 1_555
C135 C136 1_555 1_555
C136 H138 1_555 1_555
H139 C136 1_555 1_555
H140 C136 1_555 1_555
Fe2_2 C64 1_555 1_555
C64_2 Fe2 1_555 1_555
N1 C1 1_555 1_555
N2 C2 1_555 1_555
N13 C63 1_555 1_555
C4 C16 1_555 1_555
C7 C8 1_555 1_555
C8 C9 1_555 1_555
C10 C15 1_555 1_555
C14 C15 1_555 1_555
C17 C22 1_555 1_555
C21 C22 1_555 1_555
C23 C24 1_555 1_555
C27 C28 1_555 1_555
C30 C35 1_555 1_555
C34 C35 1_555 1_555
C41 C42 1_555 1_555
C43 C44 1_555 1_555
C47 C48 1_555 1_555
C54 C55 1_555 1_555
C57 C58 1_555 1_555
C61 C62 1_555 1_555
C66 C78 1_555 1_555
C69 C70 1_555 1_555
C72 C73 1_555 1_555
C76 C77 1_555 1_555
C79 C84 1_555 1_555
C83 C84 1_555 1_555
C85 C86 1_555 1_555
C89 C90 1_555 1_555
C96 C97 1_555 1_555
C99 C100 1_555 1_555
C103 C104 1_555 1_555
C107 C108 1_555 1_555
C111 C112 1_555 1_555
C118 C119 1_555 1_555
C121 C126 1_555 1_555
C125 C126 1_555 1_555

#END
