
#######################################################################
#
#                 Cambridge Crystallographic Data Centre
#                                CCDC 
#
#######################################################################
#
# If this CIF has been generated from an entry in the Cambridge 
# Structural Database, then it will include bibliographic, chemical, 
# crystal, experimental, refinement or atomic coordinate data resulting 
# from the CCDC's data processing and validation procedures.
#
#######################################################################

data_QUCJEF
_symmetry_cell_setting           triclinic
_symmetry_space_group_name_H-M   'P 1'
_symmetry_Int_Tables_number      1
_space_group_name_Hall           'P 1'
loop_
_symmetry_equiv_pos_site_id
_symmetry_equiv_pos_as_xyz
1 x,y,z
_cell_length_a                   10.2833(16)
_cell_length_b                   13.8961(18)
_cell_length_c                   18.0725(12)
_cell_angle_alpha                79.813(8)
_cell_angle_beta                 85.233(8)
_cell_angle_gamma                68.301(13)
_cell_volume                     2361.25
loop_
_atom_site_label
_atom_site_type_symbol
_atom_site_fract_x
_atom_site_fract_y
_atom_site_fract_z
Cu1 Cu 0.50809(14) 0.04568(11) 0.39058(9)
Cu2 Cu 0.14533(15) 0.02002(12) -0.18365(9)
Fe1 Fe 1.02081(11) 0.03139(9) 0.37682(7)
Fe2 Fe 0.63569(12) 0.02889(10) -0.16647(7)
N1 N 0.7157(12) 0.0646(9) 0.4392(7)
N2 N 1.3263(12) 0.0050(10) 0.3195(8)
N3 N 1.1324(12) 0.0388(10) 0.5272(7)
N4 N 0.9350(13) -0.0034(10) -0.2290(7)
N5 N 0.3359(14) 0.0588(12) -0.1187(8)
N6 N 0.5262(11) 0.0295(8) -0.3212(6)
N7 N 0.9534(9) 0.0326(7) 0.2805(5)
N8 N 0.8730(12) 0.3077(8) 0.2349(6)
N9 N 0.9678(9) 0.1827(8) 0.3368(5)
N10 N 1.0359(10) -0.2432(7) 0.3245(6)
N11 N 1.0605(9) -0.1170(7) 0.3816(5)
N12 N 0.6994(9) 0.0318(7) -0.0684(5)
N13 N 0.7789(12) -0.2452(8) -0.0269(6)
N14 N 0.6951(10) -0.1175(7) -0.1260(5)
N15 N 0.6255(11) 0.3062(8) -0.1168(6)
N16 N 0.5980(10) 0.1797(7) -0.1736(5)
N17 N 0.3643(11) 0.1876(8) 0.3876(7)
H1 H 0.2807 0.1816 0.4001
H2 H 0.3840 0.2187 0.4225
N18 N 0.5611(12) 0.1068(10) 0.2888(7)
H3 H 0.6550 0.0852 0.2837
H4 H 0.5285 0.0850 0.2528
N19 N 0.4627(10) -0.0122(8) 0.4920(7)
H5 H 0.4719 0.0259 0.5253
H6 H 0.3732 -0.0084 0.4940
N20 N 0.6273(11) -0.0966(9) 0.3835(8)
H7 H 0.6197 -0.1112 0.3378
H8 H 0.7171 -0.1049 0.3893
N21 N 0.0987(11) -0.0416(9) -0.0811(8)
H9 H 0.0978 -0.0003 -0.0477
H10 H 0.0127 -0.0447 -0.0809
N22 N 0.2849(12) -0.1254(10) -0.1877(7)
H11 H 0.2828 -0.1445 -0.2326
H12 H 0.3720 -0.1286 -0.1805
N23 N 0.1966(11) 0.0861(9) -0.2901(6)
H13 H 0.2898 0.0616 -0.2985
H14 H 0.1548 0.0720 -0.3265
N24 N 0.0043(10) 0.1706(8) -0.1783(7)
H15 H -0.0813 0.1692 -0.1647
H16 H 0.0316 0.1987 -0.1440
C1 C 0.8339(14) 0.0547(10) 0.4196(6)
C2 C 1.2155(14) 0.0118(11) 0.3362(8)
C3 C 1.0837(11) 0.0360(9) 0.4732(7)
C4 C 0.8248(13) 0.0090(9) -0.2083(7)
C5 C 0.4487(13) 0.0491(9) -0.1344(7)
C6 C 0.5679(13) 0.0306(10) -0.2641(8)
C7 C 0.9058(11) 0.1227(9) 0.2310(6)
C8 C 0.8559(12) 0.1235(10) 0.1620(7)
H17 H 0.8237 0.1862 0.1286
C9 C 0.8530(11) 0.0312(8) 0.1413(6)
C10 C 0.9053(10) -0.0616(9) 0.1942(5)
H18 H 0.9034 -0.1241 0.1835
C11 C 0.9585(11) -0.0607(9) 0.2607(7)
C12 C 1.0146(12) -0.1415(10) 0.3232(7)
C13 C 1.1154(10) -0.2116(9) 0.4269(5)
C14 C 1.0979(12) -0.2885(9) 0.3927(7)
C15 C 1.1626(14) -0.3962(10) 0.4220(8)
H19 H 1.1635 -0.4479 0.3954
C16 C 1.2253(13) -0.4226(10) 0.4925(7)
H20 H 1.2586 -0.4920 0.5162
C17 C 1.2375(14) -0.3429(11) 0.5272(7)
H21 H 1.2802 -0.3623 0.5737
C18 C 1.1893(13) -0.2374(11) 0.4959(8)
H22 H 1.2040 -0.1870 0.5182
C19 C 0.9172(12) 0.2064(9) 0.2640(7)
C20 C 0.9035(13) 0.3508(9) 0.2937(8)
C21 C 0.8813(15) 0.4528(10) 0.2942(9)
H23 H 0.8457 0.5049 0.2533
C22 C 0.9162(17) 0.4738(11) 0.3616(10)
H24 H 0.9064 0.5428 0.3628
C23 C 0.9613(13) 0.4060(11) 0.4231(8)
H25 H 0.9727 0.4280 0.4670
C24 C 0.9923(12) 0.2980(12) 0.4206(8)
H26 H 1.0324 0.2463 0.4610
C25 C 0.9594(11) 0.2727(9) 0.3539(6)
C26 C 0.3528(14) 0.2557(12) 0.3142(9)
H27 H 0.2975 0.2348 0.2829
C27 C 0.5016(13) 0.2209(12) 0.2806(9)
H28 H 0.5565 0.2395 0.3136
C28 C 0.508(2) 0.2869(17) 0.2029(14)
H29 H 0.6050 0.2771 0.1894
H30 H 0.4714 0.2623 0.1653
C29 C 0.426(2) 0.4013(17) 0.2024(15)
H31 H 0.4758 0.4282 0.2320
H32 H 0.4243 0.4373 0.1511
C30 C 0.288(2) 0.4270(16) 0.2300(13)
H33 H 0.2355 0.4054 0.1985
H34 H 0.2452 0.5025 0.2272
C31 C 0.2797(16) 0.3748(12) 0.3114(10)
H35 H 0.1826 0.3915 0.3277
H36 H 0.3256 0.3999 0.3443
C32 C 0.5566(13) -0.1229(10) 0.5123(7)
H37 H 0.6455 -0.1203 0.5256
C33 C 0.5858(11) -0.1686(9) 0.4424(6)
H38 H 0.4997 -0.1738 0.4272
C34 C 0.704(2) -0.2821(13) 0.4523(12)
H39 H 0.7203 -0.3111 0.4059
H40 H 0.7915 -0.2797 0.4671
C35 C 0.647(2) -0.3476(11) 0.5147(10)
H41 H 0.7182 -0.4171 0.5257
H42 H 0.5667 -0.3554 0.4956
C36 C 0.603(2) -0.3025(14) 0.5889(11)
H43 H 0.5518 -0.3414 0.6202
H44 H 0.6863 -0.3129 0.6154
C37 C 0.5163(16) -0.1918(12) 0.5785(7)
H45 H 0.5188 -0.1648 0.6241
H46 H 0.4203 -0.1851 0.5723
C38 C 0.7985(13) 0.0316(9) 0.0674(7)
C39 C 0.7517(13) 0.1209(9) 0.0174(7)
H47 H 0.7510 0.1839 0.0287
C40 C 0.7034(11) 0.1165(8) -0.0529(6)
C41 C 0.7474(12) -0.0576(9) -0.0215(7)
C42 C 0.7955(11) -0.0626(8) 0.0496(6)
H48 H 0.8242 -0.1248 0.0836
C43 C 0.6455(11) 0.2077(8) -0.1119(6)
C44 C 0.5369(12) 0.2736(9) -0.2210(8)
C45 C 0.5526(13) 0.3530(10) -0.1832(7)
C46 C 0.5153(14) 0.4545(10) -0.2197(7)
H49 H 0.5387 0.5042 -0.2012
C47 C 0.4431(17) 0.4788(11) -0.2838(9)
H50 H 0.4076 0.5487 -0.3064
C48 C 0.4193(16) 0.4051(11) -0.3175(9)
H51 H 0.3664 0.4257 -0.3608
C49 C 0.4750(14) 0.2997(9) -0.2861(6)
H52 H 0.4686 0.2485 -0.3109
C50 C 0.7455(13) -0.1471(9) -0.0560(7)
C51 C 0.6982(13) -0.2134(10) -0.1462(8)
C52 C 0.7560(16) -0.2924(12) -0.0806(8)
C53 C 0.7818(16) -0.4037(11) -0.0856(9)
H53 H 0.8254 -0.4564 -0.0465
C54 C 0.7430(15) -0.4275(10) -0.1452(8)
H54 H 0.7540 -0.4964 -0.1477
C55 C 0.6818(17) -0.3432(12) -0.2078(9)
H55 H 0.6524 -0.3607 -0.2492
C56 C 0.6652(13) -0.2397(9) -0.2093(6)
H56 H 0.6326 -0.1898 -0.2518
C57 C 0.2012(15) -0.1470(12) -0.0587(10)
H57 H 0.2838 -0.1393 -0.0409
C58 C 0.2426(12) -0.1940(9) -0.1269(7)
H58 H 0.1587 -0.2004 -0.1441
C59 C 0.156(2) -0.2174(14) 0.0022(11)
H59 H 0.1357 -0.1860 0.0477
H60 H 0.0698 -0.2214 -0.0127
C60 C 0.258(2) -0.3224(15) 0.0187(13)
H61 H 0.2158 -0.3656 0.0526
H62 H 0.3361 -0.3204 0.0440
C61 C 0.312(2) -0.3725(15) -0.0523(11)
H63 H 0.3946 -0.4348 -0.0402
H64 H 0.2410 -0.3940 -0.0691
C62 C 0.3470(19) -0.2994(14) -0.1146(13)
H65 H 0.4354 -0.2951 -0.1038
H66 H 0.3599 -0.3287 -0.1608
C63 C 0.0004(11) 0.2326(8) -0.2524(7)
H67 H -0.0576 0.2136 -0.2832
C64 C 0.1433(14) 0.2005(11) -0.2875(7)
H68 H 0.2053 0.2141 -0.2558
C65 C 0.1453(18) 0.2618(16) -0.3654(10)
H69 H 0.0980 0.2404 -0.4000
H70 H 0.2413 0.2477 -0.3831
C66 C 0.072(2) 0.3785(17) -0.3627(12)
H71 H 0.1277 0.3997 -0.3327
H72 H 0.0708 0.4162 -0.4133
C67 C -0.0692(18) 0.4110(12) -0.3328(11)
H73 H -0.1306 0.3978 -0.3643
H74 H -0.1046 0.4852 -0.3291
C68 C -0.059(2) 0.3481(14) -0.2589(12)
H75 H -0.1522 0.3672 -0.2365
H76 H -0.0030 0.3685 -0.2284
Cu1_2 Cu 1.50809(14) 0.04568(11) 0.39058(9)
Cu2_2 Cu 1.14533(15) 0.02002(12) -0.18365(9)
N2_2 N 0.3263(12) 0.0050(10) 0.3195(8)
N4_2 N -0.0650(13) -0.0034(10) -0.2290(7)
O1 O 0.2394(13) 0.7717(12) 0.7018(6)
N25 N 0.0259(15) 0.7856(11) 0.6675(10)
C69 C 0.031(2) 0.6933(17) 0.7167(15)
H77 H 0.1051 0.6743 0.7518
H78 H 0.0486 0.6375 0.6882
H79 H -0.0565 0.7053 0.7436
C70 C 0.1310(19) 0.8205(15) 0.6722(9)
H80 H 0.1168 0.8892 0.6500
C71 C -0.087(2) 0.8480(19) 0.6220(16)
H81 H -0.1700 0.8702 0.6526
H82 H -0.0987 0.8086 0.5863
H83 H -0.0688 0.9084 0.5958
O2 O 0.4155(13) 0.2943(9) 0.5038(8)
N26 N 0.6349(12) 0.2721(11) 0.5378(7)
C72 C 0.5329(19) 0.2410(13) 0.5379(9)
H84 H 0.5433 0.1750 0.5645
C73 C 0.7608(18) 0.2077(17) 0.5784(12)
H85 H 0.8411 0.2103 0.5482
H86 H 0.7646 0.1365 0.5896
H87 H 0.7605 0.2333 0.6244
C74 C 0.614(2) 0.3894(18) 0.5060(19)
H88 H 0.6945 0.3921 0.4759
H89 H 0.6031 0.4274 0.5470
H90 H 0.5321 0.4203 0.4757
O3 O 0.7618(10) 0.4586(6) 0.1062(4)
O4 O 0.174(2) 0.3409(16) 0.9728(13)
O5 O 0.726(3) 0.3771(15) -0.0084(14)
C75 C 0.602(2) 0.3801(15) 0.0278(8)
O6 O 0.897(3) 0.7133(12) 0.2095(14)
C76 C 1.032(4) 0.718(4) 0.188(5)
O7 O 0.6258(15) 0.835(3) 0.2397(12)
loop_
_geom_bond_atom_site_label_1
_geom_bond_atom_site_label_2
_geom_bond_site_symmetry_1
_geom_bond_site_symmetry_2
Cu1 N1 1_555 1_555
Cu2 N5 1_555 1_555
Fe1 N7 1_555 1_555
Fe2 N12 1_555 1_555
N1 C1 1_555 1_555
N2 C2 1_555 1_555
N3 C3 1_555 1_555
N4 C4 1_555 1_555
N5 C5 1_555 1_555
N6 C6 1_555 1_555
N7 C7 1_555 1_555
N8 C19 1_555 1_555
N9 Fe1 1_555 1_555
N10 C12 1_555 1_555
N11 Fe1 1_555 1_555
N12 C40 1_555 1_555
N13 C50 1_555 1_555
N14 Fe2 1_555 1_555
N15 C43 1_555 1_555
N16 Fe2 1_555 1_555
N17 Cu1 1_555 1_555
H1 N17 1_555 1_555
H2 N17 1_555 1_555
N18 Cu1 1_555 1_555
H3 N18 1_555 1_555
H4 N18 1_555 1_555
N19 Cu1 1_555 1_555
H5 N19 1_555 1_555
H6 N19 1_555 1_555
N20 Cu1 1_555 1_555
H7 N20 1_555 1_555
H8 N20 1_555 1_555
N21 Cu2 1_555 1_555
H9 N21 1_555 1_555
H10 N21 1_555 1_555
N22 Cu2 1_555 1_555
H11 N22 1_555 1_555
H12 N22 1_555 1_555
N23 Cu2 1_555 1_555
H13 N23 1_555 1_555
H14 N23 1_555 1_555
N24 Cu2 1_555 1_555
H15 N24 1_555 1_555
H16 N24 1_555 1_555
C1 Fe1 1_555 1_555
C2 Fe1 1_555 1_555
C3 Fe1 1_555 1_555
C4 Fe2 1_555 1_555
C5 Fe2 1_555 1_555
C6 Fe2 1_555 1_555
C7 C8 1_555 1_555
C8 H17 1_555 1_555
C9 C8 1_555 1_555
C10 C9 1_555 1_555
H18 C10 1_555 1_555
C11 N7 1_555 1_555
C12 N11 1_555 1_555
C13 N11 1_555 1_555
C14 N10 1_555 1_555
C15 C14 1_555 1_555
H19 C15 1_555 1_555
C16 C15 1_555 1_555
H20 C16 1_555 1_555
C17 C16 1_555 1_555
H21 C17 1_555 1_555
C18 C13 1_555 1_555
H22 C18 1_555 1_555
C19 N9 1_555 1_555
C20 N8 1_555 1_555
C21 C20 1_555 1_555
H23 C21 1_555 1_555
C22 C21 1_555 1_555
H24 C22 1_555 1_555
C23 C22 1_555 1_555
H25 C23 1_555 1_555
C24 C23 1_555 1_555
H26 C24 1_555 1_555
C25 N9 1_555 1_555
C26 N17 1_555 1_555
H27 C26 1_555 1_555
C27 N18 1_555 1_555
H28 C27 1_555 1_555
C28 C27 1_555 1_555
H29 C28 1_555 1_555
H30 C28 1_555 1_555
C29 C28 1_555 1_555
H31 C29 1_555 1_555
H32 C29 1_555 1_555
C30 C29 1_555 1_555
H33 C30 1_555 1_555
H34 C30 1_555 1_555
C31 C26 1_555 1_555
H35 C31 1_555 1_555
H36 C31 1_555 1_555
C32 N19 1_555 1_555
H37 C32 1_555 1_555
C33 N20 1_555 1_555
H38 C33 1_555 1_555
C34 C33 1_555 1_555
H39 C34 1_555 1_555
H40 C34 1_555 1_555
C35 C34 1_555 1_555
H41 C35 1_555 1_555
H42 C35 1_555 1_555
C36 C35 1_555 1_555
H43 C36 1_555 1_555
H44 C36 1_555 1_555
C37 C32 1_555 1_555
H45 C37 1_555 1_555
H46 C37 1_555 1_555
C38 C9 1_555 1_555
C39 C38 1_555 1_555
H47 C39 1_555 1_555
C40 C39 1_555 1_555
C41 N12 1_555 1_555
C42 C38 1_555 1_555
H48 C42 1_555 1_555
C43 N16 1_555 1_555
C44 N16 1_555 1_555
C45 N15 1_555 1_555
C46 C45 1_555 1_555
H49 C46 1_555 1_555
C47 C46 1_555 1_555
H50 C47 1_555 1_555
C48 C47 1_555 1_555
H51 C48 1_555 1_555
C49 C44 1_555 1_555
H52 C49 1_555 1_555
C50 N14 1_555 1_555
C51 N14 1_555 1_555
C52 N13 1_555 1_555
C53 C52 1_555 1_555
H53 C53 1_555 1_555
C54 C53 1_555 1_555
H54 C54 1_555 1_555
C55 C54 1_555 1_555
H55 C55 1_555 1_555
C56 C51 1_555 1_555
H56 C56 1_555 1_555
C57 N21 1_555 1_555
H57 C57 1_555 1_555
C58 N22 1_555 1_555
H58 C58 1_555 1_555
C59 C57 1_555 1_555
H59 C59 1_555 1_555
H60 C59 1_555 1_555
C60 C59 1_555 1_555
H61 C60 1_555 1_555
H62 C60 1_555 1_555
C61 C60 1_555 1_555
H63 C61 1_555 1_555
H64 C61 1_555 1_555
C62 C58 1_555 1_555
H65 C62 1_555 1_555
H66 C62 1_555 1_555
C63 N24 1_555 1_555
H67 C63 1_555 1_555
C64 N23 1_555 1_555
H68 C64 1_555 1_555
C65 C64 1_555 1_555
H69 C65 1_555 1_555
H70 C65 1_555 1_555
C66 C65 1_555 1_555
H71 C66 1_555 1_555
H72 C66 1_555 1_555
C67 C66 1_555 1_555
H73 C67 1_555 1_555
H74 C67 1_555 1_555
C68 C63 1_555 1_555
H75 C68 1_555 1_555
H76 C68 1_555 1_555
O1 C70 1_555 1_555
N25 C69 1_555 1_555
C69 H77 1_555 1_555
H78 C69 1_555 1_555
H79 C69 1_555 1_555
C70 N25 1_555 1_555
H80 C70 1_555 1_555
C71 N25 1_555 1_555
H81 C71 1_555 1_555
H82 C71 1_555 1_555
H83 C71 1_555 1_555
O2 C72 1_555 1_555
N26 C72 1_555 1_555
C72 H84 1_555 1_555
C73 N26 1_555 1_555
H85 C73 1_555 1_555
H86 C73 1_555 1_555
H87 C73 1_555 1_555
C74 N26 1_555 1_555
H88 C74 1_555 1_555
H89 C74 1_555 1_555
H90 C74 1_555 1_555
O5 C75 1_555 1_555
O6 C76 1_555 1_555
Cu1_2 N2 1_555 1_555
Cu2_2 N4 1_555 1_555
N2_2 Cu1 1_555 1_555
N4_2 Cu2 1_555 1_555
C7 C19 1_555 1_555
C10 C11 1_555 1_555
C11 C12 1_555 1_555
C13 C14 1_555 1_555
C17 C18 1_555 1_555
C20 C25 1_555 1_555
C24 C25 1_555 1_555
C26 C27 1_555 1_555
C30 C31 1_555 1_555
C32 C33 1_555 1_555
C36 C37 1_555 1_555
C40 C43 1_555 1_555
C41 C42 1_555 1_555
C41 C50 1_555 1_555
C44 C45 1_555 1_555
C48 C49 1_555 1_555
C51 C52 1_555 1_555
C55 C56 1_555 1_555
C57 C58 1_555 1_555
C61 C62 1_555 1_555
C63 C64 1_555 1_555
C67 C68 1_555 1_555

#END
