
#######################################################################
#
#                 Cambridge Crystallographic Data Centre
#                                CCDC 
#
#######################################################################
#
# If this CIF has been generated from an entry in the Cambridge 
# Structural Database, then it will include bibliographic, chemical, 
# crystal, experimental, refinement or atomic coordinate data resulting 
# from the CCDC's data processing and validation procedures.
#
#######################################################################

data_QUCJAB
_symmetry_cell_setting           monoclinic
_symmetry_space_group_name_H-M   'P 21'
_symmetry_Int_Tables_number      4
_space_group_name_Hall           'P 2yb'
loop_
_symmetry_equiv_pos_site_id
_symmetry_equiv_pos_as_xyz
1 x,y,z
2 -x,1/2+y,-z
_cell_length_a                   19.5297(5)
_cell_length_b                   14.9492(4)
_cell_length_c                   22.5824(5)
_cell_angle_alpha                90
_cell_angle_beta                 98.188(2)
_cell_angle_gamma                90
_cell_volume                     6525.8
loop_
_atom_site_label
_atom_site_type_symbol
_atom_site_fract_x
_atom_site_fract_y
_atom_site_fract_z
Fe1 Fe 0.37636(5) 0.31433(6) 0.77828(4)
Fe2 Fe -0.11827(5) 0.29087(6) 0.77563(4)
Mn1 Mn 0.62771(5) 0.18273(7) 0.78322(4)
Mn2 Mn 0.12733(5) 0.43135(6) 0.77040(4)
O1 O 0.1197(2) 0.5529(3) 0.74723(18)
O2 O 0.1244(2) 0.3913(3) 0.69144(18)
O3 O 0.6189(2) 0.2115(3) 0.7021(2)
O4 O 0.6266(2) 0.0591(3) 0.7680(2)
N1 N 0.5084(3) 0.1986(4) 0.7789(2)
N2 N 0.2457(3) 0.4299(4) 0.7855(2)
N3 N 0.4308(3) 0.3597(4) 0.9093(2)
N4 N 0.3410(3) 0.2861(4) 0.6958(2)
N5 N 0.2591(3) 0.0919(4) 0.7446(2)
N6 N 0.3230(3) 0.2086(4) 0.7902(2)
N7 N 0.4229(3) 0.4839(4) 0.6510(3)
N8 N 0.4163(3) 0.4148(4) 0.7396(2)
N9 N 0.6233(3) 0.3103(4) 0.8074(2)
N10 N 0.6416(3) 0.1630(4) 0.8716(2)
N11 N 0.1361(2) 0.3076(4) 0.8043(2)
N12 N 0.1339(2) 0.4650(3) 0.8562(2)
N13 N 0.0115(3) 0.4068(4) 0.7647(2)
N14 N -0.0579(3) 0.2652(4) 0.9079(3)
N15 N 0.7443(3) 0.1955(4) 0.7906(2)
N16 N -0.0810(3) 0.0985(5) 0.6599(3)
N17 N -0.0831(3) 0.1847(4) 0.7429(3)
N18 N -0.2314(3) 0.5151(4) 0.7325(3)
N19 N -0.1680(3) 0.4041(4) 0.7823(2)
N20 N -0.1534(3) 0.3084(4) 0.6925(2)
C1 C 0.4592(3) 0.2419(4) 0.7775(3)
C2 C 0.2956(3) 0.3880(5) 0.7839(3)
C3 C 0.4098(3) 0.3428(5) 0.8601(3)
C4 C 0.3009(3) 0.2151(4) 0.6833(3)
C5 C 0.2709(4) 0.1977(5) 0.6257(3)
H1 H 0.2422 0.1483 0.6172
C6 C 0.2841(4) 0.2550(5) 0.5808(3)
H2 H 0.2639 0.2446 0.5415
C7 C 0.3270(4) 0.3274(5) 0.5939(3)
H3 H 0.3368 0.3654 0.5636
C8 C 0.3554(4) 0.3432(5) 0.6525(3)
C9 C 0.3995(3) 0.4156(4) 0.6781(3)
C10 C 0.4581(3) 0.5349(5) 0.6970(3)
C11 C 0.4933(4) 0.6155(5) 0.6945(4)
H4 H 0.4954 0.6445 0.6584
C12 C 0.5247(4) 0.6504(5) 0.7476(4)
H5 H 0.5500 0.7030 0.7472
C13 C 0.5199(4) 0.6092(5) 0.8023(4)
H6 H 0.5412 0.6358 0.8374
C14 C 0.4845(4) 0.5307(5) 0.8057(3)
H7 H 0.4814 0.5036 0.8423
C15 C 0.4532(3) 0.4925(5) 0.7515(3)
C16 C 0.2931(3) 0.1682(5) 0.7379(3)
C17 C 0.3053(3) 0.1541(4) 0.8360(3)
C18 C 0.3188(3) 0.1590(5) 0.8973(3)
H8 H 0.3451 0.2054 0.9163
C19 C 0.2922(4) 0.0933(5) 0.9293(3)
H9 H 0.3007 0.0953 0.9709
C20 C 0.2523(4) 0.0225(5) 0.9013(3)
H10 H 0.2353 -0.0211 0.9247
C21 C 0.2382(4) 0.0168(5) 0.8403(3)
H11 H 0.2114 -0.0295 0.8219
C22 C 0.2650(3) 0.0819(5) 0.8072(3)
C23 C 0.6568(4) 0.2482(4) 0.9056(3)
H12 H 0.7055 0.2625 0.9043
C24 C 0.6143(3) 0.3214(4) 0.8715(3)
H13 H 0.5656 0.3096 0.8747
C25 C 0.6321(4) 0.4114(4) 0.8993(3)
H14 H 0.6027 0.4569 0.8781
H15 H 0.6798 0.4260 0.8960
C26 C 0.6219(4) 0.4106(5) 0.9648(3)
H16 H 0.6351 0.4683 0.9826
H17 H 0.5734 0.4009 0.9678
C27 C 0.6642(4) 0.3388(6) 0.9985(3)
H18 H 0.6556 0.3388 1.0398
H19 H 0.7129 0.3514 0.9983
C28 C 0.6470(4) 0.2459(5) 0.9710(3)
H20 H 0.6773 0.2013 0.9920
H21 H 0.5996 0.2302 0.9746
C29 C 0.6454(3) 0.0874(4) 0.8979(3)
H22 H 0.6490 0.0874 0.9394
C30 C 0.6447(4) 0.0023(5) 0.8686(4)
C31 C 0.6560(4) -0.0730(5) 0.9051(4)
H23 H 0.6584 -0.0658 0.9463
C32 C 0.6636(5) -0.1566(6) 0.8832(4)
H24 H 0.6702 -0.2059 0.9085
C33 C 0.6611(5) -0.1658(5) 0.8213(5)
H25 H 0.6683 -0.2217 0.8053
C34 C 0.6484(4) -0.0941(5) 0.7839(4)
H26 H 0.6453 -0.1025 0.7428
C35 C 0.6398(3) -0.0070(5) 0.8069(4)
C36 C 0.6201(3) 0.3768(5) 0.7716(3)
H27 H 0.6189 0.4334 0.7885
C37 C 0.6180(3) 0.3730(5) 0.7081(3)
C38 C 0.6124(3) 0.4523(5) 0.6763(3)
H28 H 0.6122 0.5058 0.6972
C39 C 0.6070(4) 0.4551(6) 0.6145(3)
H29 H 0.6037 0.5093 0.5941
C40 C 0.6069(4) 0.3755(6) 0.5846(3)
H30 H 0.6031 0.3760 0.5431
C41 C 0.6122(3) 0.2945(5) 0.6141(3)
H31 H 0.6125 0.2417 0.5923
C42 C 0.6171(3) 0.2912(5) 0.6761(3)
C43 C 0.1557(3) 0.3073(4) 0.8702(3)
H32 H 0.2058 0.3167 0.8783
C44 C 0.1209(3) 0.3901(4) 0.8949(3)
H33 H 0.0709 0.3795 0.8896
C45 C 0.1457(4) 0.4001(5) 0.9613(3)
H34 H 0.1219 0.4499 0.9769
H35 H 0.1949 0.4132 0.9676
C46 C 0.1323(4) 0.3153(5) 0.9950(3)
H36 H 0.0828 0.3063 0.9927
H37 H 0.1513 0.3220 1.0368
C47 C 0.1645(4) 0.2335(5) 0.9694(3)
H38 H 0.2145 0.2391 0.9762
H39 H 0.1521 0.1803 0.9900
C48 C 0.1401(3) 0.2234(5) 0.9025(3)
H40 H 0.1633 0.1730 0.8871
H41 H 0.0907 0.2120 0.8958
C49 C 0.1529(3) 0.5421(4) 0.8777(3)
H42 H 0.1579 0.5494 0.9190
C50 C 0.1670(3) 0.6175(4) 0.8424(3)
C51 C 0.1974(3) 0.6933(4) 0.8723(3)
H43 H 0.2091 0.6914 0.9137
C52 C 0.2103(4) 0.7694(5) 0.8427(3)
H44 H 0.2311 0.8184 0.8634
C53 C 0.1919(4) 0.7728(5) 0.7806(3)
H45 H 0.2003 0.8247 0.7601
C54 C 0.1615(4) 0.7007(4) 0.7492(3)
H46 H 0.1493 0.7045 0.7080
C55 C 0.1489(3) 0.6214(4) 0.7791(3)
C56 C 0.1260(3) 0.2357(5) 0.7729(3)
H47 H 0.1281 0.1813 0.7930
C57 C 0.1119(3) 0.2343(5) 0.7089(3)
C58 C 0.1133(3) 0.3095(5) 0.6711(3)
C59 C 0.1022(3) 0.2962(5) 0.6090(3)
H48 H 0.1034 0.3451 0.5837
C60 C 0.0896(4) 0.2137(5) 0.5852(3)
H49 H 0.0831 0.2071 0.5438
C61 C 0.0860(4) 0.1388(5) 0.6207(3)
H50 H 0.0755 0.0830 0.6036
C62 C 0.0984(3) 0.1488(5) 0.6822(3)
H51 H 0.0979 0.0986 0.7065
C63 C -0.0354(3) 0.3628(5) 0.7679(3)
C64 C 0.7961(3) 0.2285(5) 0.7869(3)
C65 C -0.0812(3) 0.2745(5) 0.8583(3)
C66 C -0.1904(3) 0.3834(5) 0.6769(3)
C67 C -0.2198(4) 0.3974(6) 0.6175(3)
H52 H -0.2448 0.4489 0.6058
C68 C -0.2097(4) 0.3299(7) 0.5767(3)
H53 H -0.2287 0.3366 0.5368
C69 C -0.1728(4) 0.2552(6) 0.5938(3)
H54 H -0.1671 0.2106 0.5662
C70 C -0.1434(3) 0.2464(5) 0.6542(3)
C71 C -0.1014(3) 0.1716(5) 0.6836(3)
C72 C -0.0449(4) 0.0553(5) 0.7087(4)
C73 C -0.0447(4) 0.1087(5) 0.7616(4)
C74 C -0.0104(4) 0.0826(5) 0.8156(4)
H55 H -0.0109 0.1173 0.8497
C75 C 0.0254(4) 0.0021(6) 0.8178(5)
H56 H 0.0491 -0.0175 0.8541
C76 C 0.0264(5) -0.0500(6) 0.7667(6)
H57 H 0.0521 -0.1026 0.7698
C77 C -0.0090(4) -0.0266(5) 0.7120(5)
H58 H -0.0093 -0.0632 0.6787
C78 C -0.1971(3) 0.4389(5) 0.7293(3)
C79 C -0.2250(3) 0.5296(4) 0.7937(3)
C80 C -0.2524(4) 0.5980(5) 0.8258(4)
H59 H -0.2792 0.6432 0.8060
C81 C -0.2388(4) 0.5966(5) 0.8865(4)
H60 H -0.2571 0.6415 0.9081
C82 C -0.1984(4) 0.5299(5) 0.9175(3)
H61 H -0.1900 0.5316 0.9590
C83 C -0.1707(4) 0.4611(5) 0.8873(3)
H62 H -0.1436 0.4165 0.9076
C84 C -0.1856(3) 0.4620(5) 0.8241(3)
Fe2_2 Fe 0.88173(5) 0.29087(6) 0.77563(4)
C64_2 C -0.2039(3) 0.2285(5) 0.7869(3)
Mn3 Mn 0.34579(6) 0.88131(8) 0.64994(5)
O5 O 0.2978(3) 0.7916(4) 0.6044(2)
O6 O 0.3312(3) 0.9656(3) 0.5866(2)
O7 O 0.4487(4) 0.8321(5) 0.6222(3)
H63 H 0.4173 0.8325 0.5919
O8 O 0.2489(2) 0.9326(3) 0.6860(2)
H64 H 0.2509 0.9884 0.6958
N21 N 0.3695(3) 0.8029(4) 0.7205(3)
N22 N 0.3989(3) 0.9684(4) 0.7038(3)
C85 C 0.4022(4) 0.9422(5) 0.7674(3)
H65 H 0.3558 0.9502 0.7783
C86 C 0.4176(4) 0.8427(5) 0.7698(3)
H66 H 0.4647 0.8345 0.7605
C87 C 0.4159(4) 0.8071(6) 0.8327(3)
H67 H 0.3692 0.8120 0.8423
H68 H 0.4284 0.7442 0.8340
C88 C 0.4647(4) 0.8572(5) 0.8789(3)
H69 H 0.5120 0.8464 0.8725
H70 H 0.4594 0.8358 0.9186
C89 C 0.4495(4) 0.9575(5) 0.8747(3)
H71 H 0.4040 0.9686 0.8858
H72 H 0.4831 0.9890 0.9029
C90 C 0.4519(4) 0.9935(5) 0.8124(3)
H73 H 0.4395 1.0564 0.8110
H74 H 0.4985 0.9879 0.8026
C91 C 0.3042(4) 0.6737(6) 0.6783(3)
C92 C 0.3479(4) 0.7205(5) 0.7236(3)
H75 H 0.3625 0.6896 0.7588
C93 C 0.2846(4) 0.5868(5) 0.6914(3)
H76 H 0.3012 0.5622 0.7285
C94 C 0.2408(4) 0.5362(6) 0.6505(4)
H77 H 0.2258 0.4800 0.6608
C95 C 0.2202(5) 0.5707(7) 0.5949(4)
H78 H 0.1928 0.5363 0.5665
C96 C 0.2394(5) 0.6562(7) 0.5799(4)
H79 H 0.2244 0.6789 0.5419
C97 C 0.2817(5) 0.7086(5) 0.6221(3)
C98 C 0.4283(4) 1.0395(5) 0.6858(3)
H80 H 0.4562 1.0728 0.7145
C99 C 0.4209(4) 1.0707(5) 0.6249(3)
C100 C 0.3723(4) 1.0349(5) 0.5789(3)
C101 C 0.3651(5) 1.0753(5) 0.5227(3)
H81 H 0.3323 1.0538 0.4921
C102 C 0.4059(4) 1.1462(6) 0.5125(4)
H82 H 0.4007 1.1712 0.4744
C103 C 0.4546(4) 1.1825(6) 0.5566(3)
H83 H 0.4821 1.2306 0.5486
C104 C 0.4609(4) 1.1449(5) 0.6124(3)
H84 H 0.4925 1.1690 0.6429
C105 C 0.1833(5) 0.9234(6) 0.6498(4)
H85 H 0.1762 0.8620 0.6380
H86 H 0.1821 0.9601 0.6148
H87 H 0.1475 0.9419 0.6721
C106 C 0.5172(6) 0.8582(8) 0.6268(7)
H88 H 0.5240 0.9116 0.6505
H89 H 0.5287 0.8697 0.5876
H90 H 0.5463 0.8115 0.6454
Mn4 Mn 0.84539(6) 0.72854(7) 0.63371(5)
O9 O 0.8488(2) 0.6546(3) 0.5675(2)
O10 O 0.7894(3) 0.8158(3) 0.5904(2)
O11 O 0.9410(3) 0.8070(4) 0.6127(2)
H91 H 0.9132 0.8307 0.5866
O12 O 0.7522(2) 0.6525(3) 0.6561(2)
H92 H 0.7568 0.6172 0.6855
N23 N 0.8449(3) 0.7965(4) 0.7104(2)
N24 N 0.9128(3) 0.6531(4) 0.6856(2)
C107 C 0.9374(3) 0.6948(5) 0.7445(3)
H93 H 0.9724 0.7398 0.7388
C108 C 0.8753(3) 0.7424(5) 0.7631(3)
H94 H 0.8413 0.6969 0.7703
C109 C 0.8941(3) 0.7955(5) 0.8206(3)
H95 H 0.8527 0.8210 0.8330
H96 H 0.9251 0.8441 0.8141
C110 C 0.9301(4) 0.7316(6) 0.8704(3)
H97 H 0.9460 0.7661 0.9061
H98 H 0.8967 0.6881 0.8805
C111 C 0.9901(4) 0.6838(6) 0.8505(3)
H99 H 1.0102 0.6437 0.8820
H100 H 1.0251 0.7271 0.8438
C112 C 0.9692(4) 0.6296(5) 0.7927(3)
H101 H 1.0094 0.6007 0.7805
H102 H 0.9358 0.5838 0.7992
C113 C 0.9395(3) 0.5802(5) 0.6694(3)
H103 H 0.9717 0.5523 0.6978
C114 C 0.9249(3) 0.5370(5) 0.6121(3)
C115 C 0.8786(4) 0.5767(5) 0.5643(3)
C116 C 0.8659(4) 0.5279(6) 0.5108(3)
H104 H 0.8352 0.5505 0.4791
C117 C 0.8975(4) 0.4485(6) 0.5046(3)
H105 H 0.8874 0.4170 0.4689
C118 C 0.9454(4) 0.4125(6) 0.5510(3)
H106 H 0.9681 0.3591 0.5458
C119 C 0.9573(4) 0.4570(5) 0.6028(3)
H107 H 0.9886 0.4333 0.6337
C120 C 0.8194(4) 0.8745(5) 0.7151(3)
H108 H 0.8230 0.8984 0.7535
C121 C 0.7859(4) 0.9288(5) 0.6675(3)
C122 C 0.7624(4) 1.0128(5) 0.6823(4)
H109 H 0.7692 1.0310 0.7221
C123 C 0.7298(4) 1.0685(5) 0.6398(4)
H110 H 0.7153 1.1250 0.6501
C124 C 0.7183(4) 1.0399(5) 0.5808(4)
H111 H 0.6961 1.0777 0.5515
C125 C 0.7392(4) 0.9561(5) 0.5648(4)
H112 H 0.7309 0.9383 0.5249
C126 C 0.7731(4) 0.8975(5) 0.6082(3)
C127 C 0.6889(4) 0.6949(6) 0.6577(4)
H113 H 0.6775 0.7309 0.6225
H114 H 0.6920 0.7322 0.6926
H115 H 0.6535 0.6506 0.6592
C128 C 1.0024(5) 0.7726(7) 0.5969(4)
H116 H 1.0025 0.7086 0.6010
H117 H 1.0411 0.7972 0.6227
H118 H 1.0057 0.7881 0.5562
O13 O 0.4019(4) 0.7240(5) 0.5319(3)
O14 O 0.9511(3) 0.3491(4) 0.0157(3)
H119 H 0.9497 0.3281 -0.0180
C129 C 0.8906(4) 0.3288(7) 0.0377(4)
H120 H 0.8850 0.2650 0.0387
H121 H 0.8522 0.3548 0.0123
H122 H 0.8926 0.3524 0.0775
O15 O 1.0220(4) 0.5047(6) 0.0326(5)
H123 H 1.0006 0.4580 0.0245
C130 C 0.9861(6) 0.5729(7) 0.0060(6)
H124 H 0.9398 0.5717 0.0158
H125 H 0.9846 0.5681 -0.0366
H126 H 1.0080 0.6282 0.0196
O16 O 0.9304(7) -0.0192(8) 0.5728(6)
C131 C 0.9066(10) 0.0547(12) 0.5258(6)
O17 O 0.4849(7) 0.6566(8) 0.9435(5)
C132 C 0.5435(6) 0.6632(8) 0.9880(6)
H127 H 0.5771 0.6193 0.9806
H128 H 0.5299 0.6529 1.0266
H129 H 0.5633 0.7219 0.9869
O18 O 0.8905(8) 0.8974(14) 0.5198(6)
O19 O 0.4068(5) 0.5443(5) 0.5355(3)
H130 H 0.4041 0.5167 0.5694
C133 C 0.4423(4) 0.4888(6) 0.5033(4)
H131 H 0.4258 0.4959 0.4615
H132 H 0.4356 0.4280 0.5149
H133 H 0.4906 0.5033 0.5108
O20 O 0.3950(3) 0.5200(4) 0.9628(3)
H134 H 0.4122 0.4733 0.9528
C134 C 0.3406(5) 0.5449(8) 0.9191(5)
H135 H 0.3222 0.4927 0.8976
H136 H 0.3572 0.5861 0.8918
H137 H 0.3049 0.5729 0.9377
N25 N 0.7983(4) 0.1210(5) 0.9732(3)
C135 C 0.8158(4) 0.0850(6) 0.9346(3)
C136 C 0.8360(5) 0.0349(7) 0.8841(4)
H138 H 0.8071 -0.0170 0.8765
H139 H 0.8834 0.0164 0.8935
H140 H 0.8309 0.0722 0.8492
loop_
_geom_bond_atom_site_label_1
_geom_bond_atom_site_label_2
_geom_bond_site_symmetry_1
_geom_bond_site_symmetry_2
Fe1 N4 1_555 1_555
Fe2 N17 1_555 1_555
Mn1 O3 1_555 1_555
Mn2 O1 1_555 1_555
O1 C55 1_555 1_555
O2 Mn2 1_555 1_555
O3 C42 1_555 1_555
O4 Mn1 1_555 1_555
N1 Mn1 1_555 1_555
N2 Mn2 1_555 1_555
N3 C3 1_555 1_555
N4 C4 1_555 1_555
N5 C16 1_555 1_555
N6 Fe1 1_555 1_555
N7 C9 1_555 1_555
N8 Fe1 1_555 1_555
N9 Mn1 1_555 1_555
N10 Mn1 1_555 1_555
N11 Mn2 1_555 1_555
N12 Mn2 1_555 1_555
N13 Mn2 1_555 1_555
N14 C65 1_555 1_555
N15 Mn1 1_555 1_555
N16 C71 1_555 1_555
N17 C71 1_555 1_555
N18 C78 1_555 1_555
N19 Fe2 1_555 1_555
N20 Fe2 1_555 1_555
C1 Fe1 1_555 1_555
C2 Fe1 1_555 1_555
C3 Fe1 1_555 1_555
C4 C5 1_555 1_555
C5 H1 1_555 1_555
C6 C5 1_555 1_555
H2 C6 1_555 1_555
C7 C6 1_555 1_555
H3 C7 1_555 1_555
C8 N4 1_555 1_555
C9 N8 1_555 1_555
C10 N7 1_555 1_555
C11 C10 1_555 1_555
H4 C11 1_555 1_555
C12 C11 1_555 1_555
H5 C12 1_555 1_555
C13 C12 1_555 1_555
H6 C13 1_555 1_555
C14 C13 1_555 1_555
H7 C14 1_555 1_555
C15 N8 1_555 1_555
C16 N6 1_555 1_555
C17 N6 1_555 1_555
C18 C17 1_555 1_555
H8 C18 1_555 1_555
C19 C18 1_555 1_555
H9 C19 1_555 1_555
C20 C19 1_555 1_555
H10 C20 1_555 1_555
C21 C20 1_555 1_555
H11 C21 1_555 1_555
C22 N5 1_555 1_555
C23 N10 1_555 1_555
H12 C23 1_555 1_555
C24 N9 1_555 1_555
H13 C24 1_555 1_555
C25 C24 1_555 1_555
H14 C25 1_555 1_555
H15 C25 1_555 1_555
C26 C25 1_555 1_555
H16 C26 1_555 1_555
H17 C26 1_555 1_555
C27 C26 1_555 1_555
H18 C27 1_555 1_555
H19 C27 1_555 1_555
C28 C23 1_555 1_555
H20 C28 1_555 1_555
H21 C28 1_555 1_555
C29 N10 1_555 1_555
H22 C29 1_555 1_555
C30 C29 1_555 1_555
C31 C30 1_555 1_555
H23 C31 1_555 1_555
C32 C31 1_555 1_555
H24 C32 1_555 1_555
C33 C32 1_555 1_555
H25 C33 1_555 1_555
C34 C33 1_555 1_555
H26 C34 1_555 1_555
C35 O4 1_555 1_555
C36 N9 1_555 1_555
H27 C36 1_555 1_555
C37 C36 1_555 1_555
C38 C37 1_555 1_555
H28 C38 1_555 1_555
C39 C38 1_555 1_555
H29 C39 1_555 1_555
C40 C39 1_555 1_555
H30 C40 1_555 1_555
C41 C40 1_555 1_555
H31 C41 1_555 1_555
C42 C37 1_555 1_555
C43 N11 1_555 1_555
H32 C43 1_555 1_555
C44 N12 1_555 1_555
H33 C44 1_555 1_555
C45 C44 1_555 1_555
H34 C45 1_555 1_555
H35 C45 1_555 1_555
C46 C45 1_555 1_555
H36 C46 1_555 1_555
H37 C46 1_555 1_555
C47 C46 1_555 1_555
H38 C47 1_555 1_555
H39 C47 1_555 1_555
C48 C43 1_555 1_555
H40 C48 1_555 1_555
H41 C48 1_555 1_555
C49 N12 1_555 1_555
H42 C49 1_555 1_555
C50 C49 1_555 1_555
C51 C50 1_555 1_555
H43 C51 1_555 1_555
C52 C51 1_555 1_555
H44 C52 1_555 1_555
C53 C52 1_555 1_555
H45 C53 1_555 1_555
C54 C53 1_555 1_555
H46 C54 1_555 1_555
C55 C50 1_555 1_555
C56 N11 1_555 1_555
H47 C56 1_555 1_555
C57 C56 1_555 1_555
C58 O2 1_555 1_555
C59 C58 1_555 1_555
H48 C59 1_555 1_555
C60 C59 1_555 1_555
H49 C60 1_555 1_555
C61 C60 1_555 1_555
H50 C61 1_555 1_555
C62 C57 1_555 1_555
H51 C62 1_555 1_555
C63 Fe2 1_555 1_555
C64 N15 1_555 1_555
C65 Fe2 1_555 1_555
C66 N20 1_555 1_555
C67 C66 1_555 1_555
H52 C67 1_555 1_555
C68 C67 1_555 1_555
H53 C68 1_555 1_555
C69 C68 1_555 1_555
H54 C69 1_555 1_555
C70 N20 1_555 1_555
C71 C70 1_555 1_555
C72 N16 1_555 1_555
C73 N17 1_555 1_555
C74 C73 1_555 1_555
H55 C74 1_555 1_555
C75 C74 1_555 1_555
H56 C75 1_555 1_555
C76 C75 1_555 1_555
H57 C76 1_555 1_555
C77 C72 1_555 1_555
H58 C77 1_555 1_555
C78 N19 1_555 1_555
C79 N18 1_555 1_555
C80 C79 1_555 1_555
H59 C80 1_555 1_555
C81 C80 1_555 1_555
H60 C81 1_555 1_555
C82 C81 1_555 1_555
H61 C82 1_555 1_555
C83 C82 1_555 1_555
H62 C83 1_555 1_555
C84 N19 1_555 1_555
Mn3 O5 1_555 1_555
O5 C97 1_555 1_555
O6 Mn3 1_555 1_555
O7 Mn3 1_555 1_555
H63 O7 1_555 1_555
O8 Mn3 1_555 1_555
H64 O8 1_555 1_555
N21 Mn3 1_555 1_555
N22 Mn3 1_555 1_555
C85 N22 1_555 1_555
H65 C85 1_555 1_555
C86 N21 1_555 1_555
H66 C86 1_555 1_555
C87 C86 1_555 1_555
H67 C87 1_555 1_555
H68 C87 1_555 1_555
C88 C87 1_555 1_555
H69 C88 1_555 1_555
H70 C88 1_555 1_555
C89 C88 1_555 1_555
H71 C89 1_555 1_555
H72 C89 1_555 1_555
C90 C85 1_555 1_555
H73 C90 1_555 1_555
H74 C90 1_555 1_555
C91 C92 1_555 1_555
C92 N21 1_555 1_555
H75 C92 1_555 1_555
C93 C91 1_555 1_555
H76 C93 1_555 1_555
C94 C93 1_555 1_555
H77 C94 1_555 1_555
C95 C94 1_555 1_555
H78 C95 1_555 1_555
C96 C95 1_555 1_555
H79 C96 1_555 1_555
C97 C91 1_555 1_555
C98 N22 1_555 1_555
H80 C98 1_555 1_555
C99 C98 1_555 1_555
C100 O6 1_555 1_555
C101 C100 1_555 1_555
H81 C101 1_555 1_555
C102 C101 1_555 1_555
H82 C102 1_555 1_555
C103 C102 1_555 1_555
H83 C103 1_555 1_555
C104 C99 1_555 1_555
H84 C104 1_555 1_555
C105 O8 1_555 1_555
H85 C105 1_555 1_555
H86 C105 1_555 1_555
H87 C105 1_555 1_555
C106 O7 1_555 1_555
H88 C106 1_555 1_555
H89 C106 1_555 1_555
H90 C106 1_555 1_555
Mn4 O9 1_555 1_555
O9 C115 1_555 1_555
O10 Mn4 1_555 1_555
O11 Mn4 1_555 1_555
H91 O11 1_555 1_555
O12 Mn4 1_555 1_555
H92 O12 1_555 1_555
N23 Mn4 1_555 1_555
N24 Mn4 1_555 1_555
C107 N24 1_555 1_555
H93 C107 1_555 1_555
C108 N23 1_555 1_555
H94 C108 1_555 1_555
C109 C108 1_555 1_555
H95 C109 1_555 1_555
H96 C109 1_555 1_555
C110 C109 1_555 1_555
H97 C110 1_555 1_555
H98 C110 1_555 1_555
C111 C110 1_555 1_555
H99 C111 1_555 1_555
H100 C111 1_555 1_555
C112 C107 1_555 1_555
H101 C112 1_555 1_555
H102 C112 1_555 1_555
C113 N24 1_555 1_555
H103 C113 1_555 1_555
C114 C113 1_555 1_555
C115 C114 1_555 1_555
C116 C115 1_555 1_555
H104 C116 1_555 1_555
C117 C116 1_555 1_555
H105 C117 1_555 1_555
C118 C117 1_555 1_555
H106 C118 1_555 1_555
C119 C114 1_555 1_555
H107 C119 1_555 1_555
C120 N23 1_555 1_555
H108 C120 1_555 1_555
C121 C120 1_555 1_555
C122 C121 1_555 1_555
H109 C122 1_555 1_555
C123 C122 1_555 1_555
H110 C123 1_555 1_555
C124 C123 1_555 1_555
H111 C124 1_555 1_555
C125 C124 1_555 1_555
H112 C125 1_555 1_555
C126 O10 1_555 1_555
C127 O12 1_555 1_555
H113 C127 1_555 1_555
H114 C127 1_555 1_555
H115 C127 1_555 1_555
C128 O11 1_555 1_555
H116 C128 1_555 1_555
H117 C128 1_555 1_555
H118 C128 1_555 1_555
O14 H119 1_555 1_555
C129 O14 1_555 1_555
H120 C129 1_555 1_555
H121 C129 1_555 1_555
H122 C129 1_555 1_555
O15 H123 1_555 1_555
C130 O15 1_555 1_555
H124 C130 1_555 1_555
H125 C130 1_555 1_555
H126 C130 1_555 1_555
O16 C131 1_555 1_555
O17 C132 1_555 1_555
C132 H127 1_555 1_555
H128 C132 1_555 1_555
H129 C132 1_555 1_555
O19 H130 1_555 1_555
C133 O19 1_555 1_555
H131 C133 1_555 1_555
H132 C133 1_555 1_555
H133 C133 1_555 1_555
O20 H134 1_555 1_555
C134 O20 1_555 1_555
H135 C134 1_555 1_555
H136 C134 1_555 1_555
H137 C134 1_555 1_555
N25 C135 1_555 1_555
C135 C136 1_555 1_555
C136 H138 1_555 1_555
H139 C136 1_555 1_555
H140 C136 1_555 1_555
Fe2_2 C64 1_555 1_555
C64_2 Fe2 1_555 1_555
N1 C1 1_555 1_555
N2 C2 1_555 1_555
N13 C63 1_555 1_555
C4 C16 1_555 1_555
C7 C8 1_555 1_555
C8 C9 1_555 1_555
C10 C15 1_555 1_555
C14 C15 1_555 1_555
C17 C22 1_555 1_555
C21 C22 1_555 1_555
C23 C24 1_555 1_555
C27 C28 1_555 1_555
C30 C35 1_555 1_555
C34 C35 1_555 1_555
C41 C42 1_555 1_555
C43 C44 1_555 1_555
C47 C48 1_555 1_555
C54 C55 1_555 1_555
C57 C58 1_555 1_555
C61 C62 1_555 1_555
C66 C78 1_555 1_555
C69 C70 1_555 1_555
C72 C73 1_555 1_555
C76 C77 1_555 1_555
C79 C84 1_555 1_555
C83 C84 1_555 1_555
C85 C86 1_555 1_555
C89 C90 1_555 1_555
C96 C97 1_555 1_555
C99 C100 1_555 1_555
C103 C104 1_555 1_555
C107 C108 1_555 1_555
C111 C112 1_555 1_555
C118 C119 1_555 1_555
C121 C126 1_555 1_555
C125 C126 1_555 1_555

#END
