
#######################################################################
#
#                 Cambridge Crystallographic Data Centre
#                                CCDC 
#
#######################################################################
#
# If this CIF has been generated from an entry in the Cambridge 
# Structural Database, then it will include bibliographic, chemical, 
# crystal, experimental, refinement or atomic coordinate data resulting 
# from the CCDC's data processing and validation procedures.
#
#######################################################################

data_QUCNUY
_symmetry_cell_setting           monoclinic
_symmetry_space_group_name_H-M   'P 21/n'
_symmetry_Int_Tables_number      14
_space_group_name_Hall           '-P 2yn'
loop_
_symmetry_equiv_pos_site_id
_symmetry_equiv_pos_as_xyz
1 x,y,z
2 1/2-x,1/2+y,1/2-z
3 -x,-y,-z
4 1/2+x,1/2-y,1/2+z
_cell_length_a                   8.2193(9)
_cell_length_b                   26.890(3)
_cell_length_c                   16.9816(18)
_cell_angle_alpha                90
_cell_angle_beta                 95.751(2)
_cell_angle_gamma                90
_cell_volume                     3734.33
loop_
_atom_site_label
_atom_site_type_symbol
_atom_site_fract_x
_atom_site_fract_y
_atom_site_fract_z
Nd1 Nd 0.23442(2) 0.064402(8) 0.495435(12)
O1 O 0.2473(3) -0.03112(12) 0.5001(2)
O2 O 0.2673(3) 0.12717(10) 0.36706(18)
O3 O 0.4299(3) 0.13210(11) 0.47846(18)
O4 O -0.6465(3) 0.17834(11) 0.74500(18)
O5 O -0.4089(4) 0.31821(11) 0.74067(18)
O6 O -0.5460(4) 0.33080(13) 0.59396(19)
O8 O -0.6483(3) 0.25931(11) 0.63503(16)
O9 O 0.0415(4) 0.03957(11) 0.38871(18)
O11 O -0.0731(4) -0.03422(11) 0.40317(17)
O12 O 0.4431(3) 0.03032(11) 0.41603(17)
O13 O 0.5483(3) -0.04539(11) 0.40491(17)
O14 O -0.0020(3) 0.12077(12) 0.50698(18)
O15 O 0.1846(3) 0.13835(11) 0.60659(19)
N1 N 0.7766(4) 0.21736(13) 0.2968(2)
N2 N -0.9007(4) 0.26641(13) 0.3563(2)
N3 N -0.2305(4) 0.00446(14) 0.1175(2)
N4 N 0.3391(4) -0.00516(13) 0.1286(2)
N5 N -0.3356(4) 0.21445(13) 0.6879(2)
N6 N 0.1400(5) -0.06132(14) 0.0202(2)
N7 N -0.0016(5) -0.05797(12) 0.0026(2)
N8 N -0.1435(5) -0.05657(14) -0.0155(2)
N9 N -0.4964(4) -0.05064(13) -0.0022(2)
N10 N -0.5011(4) -0.08851(15) -0.0390(2)
N11 N -0.5056(6) -0.12473(17) -0.0747(3)
C1 C 0.6877(5) 0.18129(17) 0.2587(3)
H1 H 0.7131 0.1720 0.2086
C2 C 0.5603(6) 0.15727(17) 0.2901(3)
H2 H 0.4993 0.1334 0.2605
C3 C 0.5237(5) 0.16887(15) 0.3660(3)
C4 C 0.6163(5) 0.20633(16) 0.4053(3)
H3 H 0.5967 0.2155 0.4562
C5 C 0.7361(5) 0.22958(16) 0.3687(3)
H4 H 0.7929 0.2554 0.3954
C6 C 0.3978(5) 0.14091(15) 0.4064(3)
C7 C -0.8774(5) 0.23051(15) 0.4120(3)
H5 H -0.9216 0.1992 0.4003
C8 C -0.7919(5) 0.23758(16) 0.4852(2)
H6 H -0.7801 0.2117 0.5216
C9 C -0.7237(5) 0.28372(15) 0.5040(2)
C10 C -0.7461(5) 0.32084(16) 0.4472(3)
H7 H -0.7023 0.3523 0.4575
C11 C -0.8340(5) 0.31083(16) 0.3747(3)
H8 H -0.8472 0.3362 0.3373
C12 C -0.6298(5) 0.29241(16) 0.5846(3)
C13 C -0.1832(6) 0.04636(17) 0.1559(3)
H9 H -0.1924 0.0762 0.1283
C14 C -0.1217(6) 0.04729(17) 0.2343(3)
H10 H -0.0897 0.0773 0.2584
C15 C -0.1076(5) 0.00363(16) 0.2770(3)
C16 C -0.1577(6) -0.03954(18) 0.2379(3)
H11 H -0.1520 -0.0698 0.2646
C17 C -0.2162(6) -0.03767(18) 0.1590(3)
H12 H -0.2473 -0.0673 0.1335
C18 C -0.0408(5) 0.00299(15) 0.3630(2)
C19 C 0.3918(6) -0.04741(18) 0.1654(3)
H13 H 0.4034 -0.0756 0.1347
C20 C 0.4288(6) -0.05106(17) 0.2451(3)
H14 H 0.4661 -0.0809 0.2680
C21 C 0.4097(5) -0.00913(15) 0.2916(2)
C22 C 0.3451(5) 0.03287(17) 0.2547(3)
H15 H 0.3249 0.0608 0.2844
C23 C 0.3104(5) 0.03358(17) 0.1738(3)
H16 H 0.2653 0.0622 0.1499
C24 C 0.4698(5) -0.00840(15) 0.3780(2)
C25 C -0.1793(5) 0.22818(17) 0.7021(3)
H17 H -0.1536 0.2541 0.7374
C26 C -0.0537(5) 0.20581(17) 0.6668(3)
H18 H 0.0538 0.2163 0.6787
C27 C -0.0907(5) 0.16758(15) 0.6134(2)
C28 C -0.2522(5) 0.15451(17) 0.5969(3)
H19 H -0.2819 0.1296 0.5603
C29 C -0.3695(5) 0.17862(17) 0.6349(3)
H20 H -0.4782 0.1694 0.6229
C30 C 0.0401(5) 0.14068(15) 0.5727(3)
Ni1 Ni -0.52567(6) 0.24865(2) 0.74504(3)
Ni2 Ni -0.30277(6) 0.00267(2) -0.00575(3)
Nd1B Nd -0.23442(2) -0.064402(8) 0.504565(12)
Nd1B_2 Nd 0.76558(2) -0.064402(8) 0.504565(12)
O11B O 0.0731(4) 0.03422(11) 0.59683(17)
O13B O 0.4517(3) 0.04539(11) 0.59509(17)
N1C N -0.7234(4) 0.28264(13) 0.7968(2)
N2C N -0.4007(4) 0.23359(13) 0.8563(2)
N4B N -0.3391(4) 0.00516(13) -0.1286(2)
N6B N -0.1400(5) 0.06132(14) -0.0202(2)
N9B N -0.5036(4) 0.05064(13) 0.0022(2)
Ni1C Ni 0.97433(6) 0.25135(2) 0.24504(3)
Ni1C_2 Ni -1.02567(6) 0.25135(2) 0.24504(3)
Ni2B Ni 0.30277(6) -0.00267(2) 0.00575(3)
Ni2B_2 Ni -0.69723(6) -0.00267(2) 0.00575(3)
O7 O -0.8665(6) 0.15679(16) 0.8533(3)
O10 O -0.2791(6) 0.31482(19) 0.5067(3)
loop_
_geom_bond_atom_site_label_1
_geom_bond_atom_site_label_2
_geom_bond_site_symmetry_1
_geom_bond_site_symmetry_2
Nd1 O1 1_555 1_555
O2 C6 1_555 1_555
O3 Nd1 1_555 1_555
O4 Ni1 1_555 1_555
O5 Ni1 1_555 1_555
O6 C12 1_555 1_555
O8 C12 1_555 1_555
O9 Nd1 1_555 1_555
O11 C18 1_555 1_555
O12 Nd1 1_555 1_555
O13 C24 1_555 1_555
O14 Nd1 1_555 1_555
O15 C30 1_555 1_555
N1 C1 1_555 1_555
N2 C7 1_555 1_555
N3 C13 1_555 1_555
N4 C19 1_555 1_555
N5 C25 1_555 1_555
N6 N7 1_555 1_555
N7 N8 1_555 1_555
N8 Ni2 1_555 1_555
N9 N10 1_555 1_555
N10 N11 1_555 1_555
C1 H1 1_555 1_555
C2 C1 1_555 1_555
H2 C2 1_555 1_555
C3 C2 1_555 1_555
C4 C3 1_555 1_555
H3 C4 1_555 1_555
C5 N1 1_555 1_555
H4 C5 1_555 1_555
C6 O3 1_555 1_555
C7 H5 1_555 1_555
C8 C7 1_555 1_555
H6 C8 1_555 1_555
C9 C8 1_555 1_555
C10 C9 1_555 1_555
H7 C10 1_555 1_555
C11 N2 1_555 1_555
H8 C11 1_555 1_555
C12 C9 1_555 1_555
C13 H9 1_555 1_555
C14 C13 1_555 1_555
H10 C14 1_555 1_555
C15 C14 1_555 1_555
C16 C15 1_555 1_555
H11 C16 1_555 1_555
C17 N3 1_555 1_555
H12 C17 1_555 1_555
C18 O9 1_555 1_555
C19 H13 1_555 1_555
C20 C19 1_555 1_555
H14 C20 1_555 1_555
C21 C20 1_555 1_555
C22 C21 1_555 1_555
H15 C22 1_555 1_555
C23 N4 1_555 1_555
H16 C23 1_555 1_555
C24 O12 1_555 1_555
C25 H17 1_555 1_555
C26 C25 1_555 1_555
H18 C26 1_555 1_555
C27 C26 1_555 1_555
C28 C27 1_555 1_555
H19 C28 1_555 1_555
C29 N5 1_555 1_555
H20 C29 1_555 1_555
C30 O14 1_555 1_555
Ni1 O8 1_555 1_555
Ni2 N3 1_555 1_555
Nd1B O11 1_555 1_555
Nd1B_2 O13 1_555 1_555
O11B Nd1 1_555 1_555
O13B Nd1 1_555 1_555
N1C Ni1 1_555 1_555
N2C Ni1 1_555 1_555
N4B Ni2 1_555 1_555
N6B Ni2 1_555 1_555
N9B Ni2 1_555 1_555
Ni1C N1 1_555 1_555
Ni1C_2 N2 1_555 1_555
Ni2B N4 1_555 1_555
Ni2B_2 N9 1_555 1_555
N5 Ni1 1_555 1_555
N6 Ni2B 1_555 1_555
N9 Ni2 1_555 1_555
C3 C6 1_555 1_555
C4 C5 1_555 1_555
C10 C11 1_555 1_555
C15 C18 1_555 1_555
C16 C17 1_555 1_555
C21 C24 1_555 1_555
C22 C23 1_555 1_555
C27 C30 1_555 1_555
C28 C29 1_555 1_555
N9B Ni2B_2 1_555 1_555

#END
