
#######################################################################
#
#                 Cambridge Crystallographic Data Centre
#                                CCDC 
#
#######################################################################
#
# If this CIF has been generated from an entry in the Cambridge 
# Structural Database, then it will include bibliographic, chemical, 
# crystal, experimental, refinement or atomic coordinate data resulting 
# from the CCDC's data processing and validation procedures.
#
#######################################################################

data_QUCPAG
_symmetry_cell_setting           monoclinic
_symmetry_space_group_name_H-M   'P 21'
_symmetry_Int_Tables_number      4
_space_group_name_Hall           'P 2yb'
loop_
_symmetry_equiv_pos_site_id
_symmetry_equiv_pos_as_xyz
1 x,y,z
2 -x,1/2+y,-z
_cell_length_a                   9.6683(2)
_cell_length_b                   8.8016(2)
_cell_length_c                   24.1522(6)
_cell_angle_alpha                90
_cell_angle_beta                 93.377(2)
_cell_angle_gamma                90
_cell_volume                     2051.7
loop_
_atom_site_label
_atom_site_type_symbol
_atom_site_fract_x
_atom_site_fract_y
_atom_site_fract_z
Ag1 Ag -0.25254(2) -0.151790(19) -0.277770(11)
Ag2 Ag -0.23370(2) 0.15263(2) -0.223510(11)
N1 N -0.2314(2) -0.3239(3) -0.21374(12)
N2 N 0.1471(3) -0.4848(3) 0.15625(13)
N3 N -0.3038(3) -0.0175(3) -0.35153(13)
N4 N -0.6835(3) -0.1798(3) -0.71923(13)
O1 O 0.00971(19) -0.1318(2) -0.29148(10)
O2 O -0.0065(2) 0.1198(2) -0.28011(10)
O3 O 0.2837(2) -0.1087(2) -0.30981(10)
H1 H 0.237(3) -0.191(3) -0.3119(18)
C1 C 0.0551(3) 0.0018(4) -0.29320(14)
C2 C 0.1986(3) 0.0235(3) -0.31615(14)
H9 H 0.2462 0.1082 -0.2951
C3 C 0.1778(3) 0.0721(3) -0.37619(14)
C4 C 0.1647(4) 0.2273(4) -0.38989(17)
H10 H 0.1718 0.3015 -0.3613
C5 C 0.1417(4) 0.2724(4) -0.44362(17)
H11 H 0.1330 0.3775 -0.4520
C6 C 0.1311(3) 0.1667(5) -0.48599(16)
H12 H 0.1144 0.1987 -0.5234
C7 C 0.1449(3) 0.0152(4) -0.47359(15)
H13 H 0.1393 -0.0578 -0.5026
C8 C 0.1670(3) -0.0321(4) -0.41904(15)
H14 H 0.1748 -0.1375 -0.4110
C17 C -0.1062(3) -0.3859(4) -0.20079(16)
H21 H -0.0292 -0.3565 -0.2210
C18 C -0.0875(3) -0.4922(4) -0.15838(16)
H22 H 0.0023 -0.5328 -0.1498
C19 C -0.1957(3) -0.5394(3) -0.12883(13)
C20 C -0.3248(3) -0.4763(3) -0.14275(13)
H23 H -0.4032 -0.5058 -0.1234
C21 C -0.3384(3) -0.3701(4) -0.18512(14)
H24 H -0.4275 -0.3283 -0.1943
C22 C -0.1727(3) -0.6505(3) -0.08127(12)
H25 H -0.1174 -0.7374 -0.0937
H26 H -0.2635 -0.6903 -0.0710
C23 C -0.0982(3) -0.5788(3) -0.03020(12)
H27 H -0.0152 -0.5237 -0.0416
H28 H -0.1604 -0.5042 -0.0137
C24 C -0.0543(3) -0.6977(3) 0.01315(12)
H29 H -0.1371 -0.7545 0.0238
H30 H 0.0096 -0.7709 -0.0031
C25 C 0.0170(3) -0.6268(3) 0.06470(14)
C26 C 0.1607(3) -0.6233(3) 0.07210(14)
H31 H 0.2171 -0.6696 0.0460
C27 C 0.2198(3) -0.5501(3) 0.11879(14)
H32 H 0.3180 -0.5474 0.1238
C28 C 0.0067(3) -0.4898(3) 0.14964(14)
H33 H -0.0475 -0.4454 0.1769
C29 C -0.0583(3) -0.5588(3) 0.10383(13)
H34 H -0.1566 -0.5588 0.0995
C30 C -0.4299(3) 0.0436(3) -0.36254(14)
H35 H -0.4966 0.0358 -0.3353
C31 C -0.4667(3) 0.1176(4) -0.41216(15)
H36 H -0.5568 0.1600 -0.4180
C32 C -0.3749(3) 0.1295(3) -0.45224(14)
C33 C -0.2414(3) 0.0700(3) -0.44164(14)
H37 H -0.1731 0.0784 -0.4682
C34 C -0.2124(3) -0.0019(3) -0.39096(14)
H38 H -0.1222 -0.0427 -0.3838
C35 C -0.4149(4) 0.2003(3) -0.50764(13)
H39 H -0.3327 0.2504 -0.5221
H40 H -0.4859 0.2794 -0.5027
C36 C -0.4716(3) 0.0841(3) -0.54991(12)
H41 H -0.3979 0.0100 -0.5573
H42 H -0.5488 0.0279 -0.5342
C37 C -0.5232(3) 0.1578(3) -0.60434(12)
H43 H -0.5972 0.2317 -0.5971
H44 H -0.4461 0.2140 -0.6201
C38 C -0.5788(3) 0.0419(3) -0.64574(15)
C39 C -0.7156(3) -0.0086(3) -0.64453(15)
H45 H -0.7756 0.0325 -0.6186
C40 C -0.7626(3) -0.1197(3) -0.68174(15)
H46 H -0.8553 -0.1543 -0.6804
C41 C -0.5511(3) -0.1298(4) -0.72120(14)
H47 H -0.4937 -0.1705 -0.7482
C42 C -0.4981(3) -0.0201(3) -0.68440(13)
H48 H -0.4047 0.0121 -0.6862
Ag2A Ag 0.23370(2) -0.34737(2) 0.223510(11)
Ag2A_2 Ag -0.76630(2) -0.34737(2) -0.776490(11)
N2A N -0.1471(3) 0.0152(3) -0.15625(13)
N4A N -0.3165(3) 0.3202(3) -0.28077(13)
O4 O -0.6492(3) 0.2388(3) -0.18973(13)
O5 O -0.5592(3) 0.1148(3) -0.11633(15)
O6 O -0.7338(3) 0.2169(3) -0.04937(10)
H2 H -0.677(4) 0.145(4) -0.0496(14)
C9 C -0.6379(4) 0.2086(4) -0.13942(18)
C10 C -0.7313(3) 0.2952(3) -0.10052(13)
H15 H -0.8276 0.2962 -0.1181
C11 C -0.6845(3) 0.4592(3) -0.09211(14)
C12 C -0.7018(3) 0.5652(3) -0.13496(15)
H16 H -0.7468 0.5358 -0.1693
C13 C -0.6538(3) 0.7131(4) -0.12786(18)
H17 H -0.6651 0.7841 -0.1574
C14 C -0.5898(3) 0.7567(3) -0.07776(18)
H18 H -0.5573 0.8580 -0.0728
C15 C -0.5731(3) 0.6540(4) -0.03517(15)
H19 H -0.5292 0.6843 -0.0007
C16 C -0.6202(3) 0.5061(3) -0.04235(14)
H20 H -0.6081 0.4358 -0.0126
O7 O -0.4951(2) -0.0400(3) -0.22720(12)
H3 H -0.561(3) -0.087(3) -0.2445(13)
H4 H -0.525(4) 0.024(4) -0.2053(15)
O8 O 0.1449(3) -0.6210(3) -0.25376(13)
H5 H 0.095(3) -0.686(3) -0.2693(17)
H6 H 0.213(3) -0.653(4) -0.2352(17)
O9 O 0.1282(4) -0.3925(3) -0.33295(16)
H7 H 0.081(4) -0.317(3) -0.3196(18)
H8 H 0.128(4) -0.460(3) -0.3077(13)
loop_
_geom_bond_atom_site_label_1
_geom_bond_atom_site_label_2
_geom_bond_site_symmetry_1
_geom_bond_site_symmetry_2
Ag1 Ag2 1_555 1_555
Ag2 O2 1_555 1_555
N1 Ag1 1_555 1_555
N2 C27 1_555 1_555
N3 Ag1 1_555 1_555
N4 C40 1_555 1_555
O1 Ag1 1_555 1_555
O2 C1 1_555 1_555
O3 H1 1_555 1_555
O4 C9 1_555 1_555
O5 C9 1_555 1_555
O6 H2 1_555 1_555
O7 H3 1_555 1_555
H4 O7 1_555 1_555
O8 H5 1_555 1_555
H6 O8 1_555 1_555
O9 H7 1_555 1_555
H8 O9 1_555 1_555
C1 O1 1_555 1_555
C2 O3 1_555 1_555
H9 C2 1_555 1_555
C3 C2 1_555 1_555
C4 C3 1_555 1_555
H10 C4 1_555 1_555
C5 C4 1_555 1_555
H11 C5 1_555 1_555
C6 C5 1_555 1_555
H12 C6 1_555 1_555
C7 C6 1_555 1_555
H13 C7 1_555 1_555
C8 C3 1_555 1_555
H14 C8 1_555 1_555
C9 C10 1_555 1_555
C10 O6 1_555 1_555
H15 C10 1_555 1_555
C11 C10 1_555 1_555
C12 C11 1_555 1_555
H16 C12 1_555 1_555
C13 C12 1_555 1_555
H17 C13 1_555 1_555
C14 C13 1_555 1_555
H18 C14 1_555 1_555
C15 C14 1_555 1_555
H19 C15 1_555 1_555
C16 C11 1_555 1_555
H20 C16 1_555 1_555
C17 N1 1_555 1_555
H21 C17 1_555 1_555
C18 C17 1_555 1_555
H22 C18 1_555 1_555
C19 C18 1_555 1_555
C20 C19 1_555 1_555
H23 C20 1_555 1_555
C21 N1 1_555 1_555
H24 C21 1_555 1_555
C22 C19 1_555 1_555
H25 C22 1_555 1_555
H26 C22 1_555 1_555
C23 C22 1_555 1_555
H27 C23 1_555 1_555
H28 C23 1_555 1_555
C24 C23 1_555 1_555
H29 C24 1_555 1_555
H30 C24 1_555 1_555
C25 C24 1_555 1_555
C26 C25 1_555 1_555
H31 C26 1_555 1_555
C27 C26 1_555 1_555
H32 C27 1_555 1_555
C28 N2 1_555 1_555
H33 C28 1_555 1_555
C29 C25 1_555 1_555
H34 C29 1_555 1_555
C30 N3 1_555 1_555
H35 C30 1_555 1_555
C31 C30 1_555 1_555
H36 C31 1_555 1_555
C32 C31 1_555 1_555
C33 C32 1_555 1_555
H37 C33 1_555 1_555
C34 N3 1_555 1_555
H38 C34 1_555 1_555
C35 C32 1_555 1_555
H39 C35 1_555 1_555
H40 C35 1_555 1_555
C36 C35 1_555 1_555
H41 C36 1_555 1_555
H42 C36 1_555 1_555
C37 C36 1_555 1_555
H43 C37 1_555 1_555
H44 C37 1_555 1_555
C38 C37 1_555 1_555
C39 C38 1_555 1_555
H45 C39 1_555 1_555
C40 C39 1_555 1_555
H46 C40 1_555 1_555
C41 N4 1_555 1_555
H47 C41 1_555 1_555
C42 C38 1_555 1_555
H48 C42 1_555 1_555
Ag2A N2 1_555 1_555
Ag2A_2 N4 1_555 1_555
N2A Ag2 1_555 1_555
N4A Ag2 1_555 1_555
C1 C2 1_555 1_555
C7 C8 1_555 1_555
C15 C16 1_555 1_555
C20 C21 1_555 1_555
C28 C29 1_555 1_555
C33 C34 1_555 1_555
C41 C42 1_555 1_555

#END
