
#######################################################################
#
#                 Cambridge Crystallographic Data Centre
#                                CCDC 
#
#######################################################################
#
# If this CIF has been generated from an entry in the Cambridge 
# Structural Database, then it will include bibliographic, chemical, 
# crystal, experimental, refinement or atomic coordinate data resulting 
# from the CCDC's data processing and validation procedures.
#
#######################################################################

data_QUCSUD
_symmetry_cell_setting           monoclinic
_symmetry_space_group_name_H-M   'P 21'
_symmetry_Int_Tables_number      4
_space_group_name_Hall           'P 2yb'
loop_
_symmetry_equiv_pos_site_id
_symmetry_equiv_pos_as_xyz
1 x,y,z
2 -x,1/2+y,-z
_cell_length_a                   14.323(2)
_cell_length_b                   11.679(3)
_cell_length_c                   19.029(3)
_cell_angle_alpha                90
_cell_angle_beta                 91.131(3)
_cell_angle_gamma                90
_cell_volume                     3182.52
loop_
_atom_site_label
_atom_site_type_symbol
_atom_site_fract_x
_atom_site_fract_y
_atom_site_fract_z
C1 C -0.0611(6) 1.0348(8) -0.5556(4)
H1 H -0.0125 1.0553 -0.5848
C2 C -0.1617(6) 0.9267(8) -0.4903(5)
H2 H -0.1903 0.8646 -0.4689
C3 C -0.2605(5) 1.1015(9) -0.4456(4)
H3 H -0.2426 1.1791 -0.4331
H4 H -0.2744 1.0597 -0.4030
C4 C -0.3466(6) 1.1013(8) -0.4977(4)
H5 H -0.3513 1.0282 -0.5217
H6 H -0.4037 1.1139 -0.4723
C5 C -0.3323(4) 1.1961(7) -0.5501(3)
H7 H -0.3728 1.1848 -0.5909
H8 H -0.2681 1.1962 -0.5654
C6 C -0.3047(6) 1.4135(7) -0.5209(4)
H9 H -0.2497 1.4223 -0.5454
C7 C -0.4354(7) 1.4505(8) -0.4529(5)
H10 H -0.4782 1.4878 -0.4248
C8 C 0.1868(6) 0.4307(8) 0.0273(5)
H11 H 0.2383 0.4434 0.0567
C9 C 0.0692(6) 0.4603(8) -0.0471(4)
H12 H 0.0266 0.4955 -0.0776
C10 C 0.1625(5) 0.2234(7) 0.0567(5)
H13 H 0.1172 0.2133 0.0934
H14 H 0.2250 0.2248 0.0773
C11 C 0.1524(6) 0.1312(7) -0.0010(4)
H15 H 0.0959 0.1489 -0.0278
H16 H 0.1414 0.0590 0.0226
C12 C 0.2310(5) 0.1099(8) -0.0550(4)
H17 H 0.2104 0.0552 -0.0905
H18 H 0.2478 0.1807 -0.0781
C13 C 0.4340(5) 0.0595(7) 0.0574(4)
H19 H 0.4808 0.0790 0.0898
C14 C 0.3398(6) -0.0469(7) -0.0142(4)
H20 H 0.3138 -0.1082 -0.0389
C15 C 0.0077(6) 0.8444(6) -0.3833(4)
C16 C 0.0032(6) 0.8901(7) -0.3129(4)
C17 C 0.0530(6) 0.9991(7) -0.2872(4)
H21 H 0.1082 1.0121 -0.3148
H22 H 0.0118 1.0645 -0.2934
C18 C 0.0809(6) 0.9872(7) -0.2101(5)
H23 H 0.0537 1.0481 -0.1825
H24 H 0.1483 0.9895 -0.2039
C19 C 0.0419(6) 0.8690(7) -0.1880(5)
H25 H -0.0235 0.8764 -0.1746
C20 C 0.0483(6) 0.8044(7) -0.2601(5)
C21 C 0.0953(5) 0.8113(8) -0.1325(4)
C22 C 0.1507(6) 0.7662(7) -0.2772(4)
H26 H 0.1569 0.7592 -0.3272
H27 H 0.1637 0.6937 -0.2554
H28 H 0.1941 0.8224 -0.2596
C23 C -0.0080(6) 0.6938(7) -0.2553(4)
H29 H -0.0513 0.6894 -0.2944
H30 H -0.0417 0.6930 -0.2122
H31 H 0.0335 0.6293 -0.2564
C24 C -0.0978(6) 0.8949(9) -0.2941(5)
H32 H -0.1359 0.8845 -0.3357
H33 H -0.1113 0.9680 -0.2735
H34 H -0.1110 0.8353 -0.2610
C25 C 0.1431(5) 0.8444(8) -0.6416(4)
C26 C 0.1969(5) 0.8679(8) -0.7047(4)
C27 C 0.2137(6) 0.9920(7) -0.7299(5)
H35 H 0.2691 1.0232 -0.7069
H36 H 0.1609 1.0399 -0.7184
C28 C 0.2272(6) 0.9893(7) -0.8141(5)
H37 H 0.1763 1.0284 -0.8385
H38 H 0.2858 1.0244 -0.8269
C29 C 0.2268(6) 0.8614(8) -0.8310(4)
H39 H 0.2900 0.8342 -0.8197
C30 C 0.1623(7) 0.8105(10) -0.7719(4)
C31 C 0.2029(5) 0.8137(8) -0.9033(4)
C32 C 0.0628(6) 0.8494(8) -0.7934(4)
H40 H 0.0193 0.8222 -0.7595
H41 H 0.0466 0.8187 -0.8388
H42 H 0.0606 0.9315 -0.7952
C33 C 0.1637(6) 0.6814(9) -0.7692(4)
H43 H 0.1914 0.6568 -0.7254
H44 H 0.1995 0.6524 -0.8074
H45 H 0.1009 0.6528 -0.7731
C34 C 0.2964(6) 0.8188(8) -0.6910(4)
H46 H 0.3419 0.8714 -0.7084
H47 H 0.3022 0.7466 -0.7147
H48 H 0.3065 0.8080 -0.6414
C35 C -0.3618(6) 1.8569(8) -0.8619(5)
C36 C -0.2993(6) 1.8738(7) -0.7949(4)
H49 H -0.2380 1.8474 -0.8102
C37 C -0.2785(7) 1.9887(8) -0.7657(5)
H50 H -0.3260 2.0439 -0.7795
H51 H -0.2178 2.0161 -0.7801
C38 C -0.2798(6) 1.9634(7) -0.6847(5)
H52 H -0.2292 2.0033 -0.6606
H53 H -0.3385 1.9877 -0.6651
C39 C -0.2678(6) 1.8335(7) -0.6774(4)
C40 C -0.3230(6) 1.7876(8) -0.7360(4)
C41 C -0.2920(5) 1.7833(7) -0.6040(4)
C42 C -0.4254(6) 1.7993(7) -0.7151(4)
H54 H -0.4387 1.7452 -0.6787
H55 H -0.4651 1.7845 -0.7553
H56 H -0.4364 1.8755 -0.6983
C43 C -0.3037(6) 1.6574(7) -0.7582(4)
H57 H -0.3245 1.6070 -0.7219
H58 H -0.2381 1.6466 -0.7649
H59 H -0.3371 1.6406 -0.8013
C44 C -0.1637(5) 1.8051(7) -0.6896(4)
H60 H -0.1456 1.8350 -0.7343
H61 H -0.1551 1.7236 -0.6890
H62 H -0.1259 1.8393 -0.6530
C45 C -0.4727(6) 1.8673(6) -0.1063(4)
C46 C -0.4799(6) 1.8971(7) -0.1877(4)
H63 H -0.5458 1.9114 -0.1993
C47 C -0.4225(6) 2.0004(7) -0.2166(4)
H64 H -0.4594 2.0700 -0.2151
H65 H -0.3662 2.0116 -0.1883
C48 C -0.3972(5) 1.9720(7) -0.2937(4)
H66 H -0.4124 2.0361 -0.3243
H67 H -0.3309 1.9560 -0.2969
C49 C -0.4550(6) 1.8655(7) -0.3155(4)
C50 C -0.4426(6) 1.8107(8) -0.2428(4)
C51 C -0.4049(6) 1.7969(7) -0.3742(5)
C52 C -0.3390(5) 1.7891(9) -0.2247(4)
H68 H -0.3163 1.8483 -0.1939
H69 H -0.3037 1.7894 -0.2671
H70 H -0.3324 1.7162 -0.2019
C53 C -0.4988(6) 1.7004(8) -0.2377(5)
H71 H -0.4747 1.6449 -0.2699
H72 H -0.5631 1.7157 -0.2494
H73 H -0.4939 1.6710 -0.1907
C54 C -0.5556(6) 1.8858(7) -0.3340(5)
H74 H -0.5707 1.8488 -0.3778
H75 H -0.5668 1.9665 -0.3383
H76 H -0.5939 1.8550 -0.2977
Cd1 Cd 0.03322(4) 0.78735(11) -0.52577(3)
Cd2 Cd 0.17662(4) 0.70411(11) -0.02584(3)
Cd3 Cd -0.46621(4) 1.81277(11) -0.97277(3)
Cd4 Cd -0.32969(4) 1.68559(11) -0.47481(3)
N1 N -0.0833(5) 0.9232(6) -0.5361(3)
N2 N -0.1238(5) 1.1120(6) -0.5243(3)
N3 N -0.1874(5) 1.0452(6) -0.4840(4)
N4 N -0.3551(5) 1.3104(6) -0.5145(4)
N5 N -0.4359(5) 1.3270(6) -0.4763(3)
N6 N -0.3495(5) 1.4985(5) -0.4855(3)
N7 N 0.1426(4) 0.5146(6) -0.0112(4)
N8 N 0.0705(4) 0.3406(6) -0.0289(3)
N9 N 0.1440(4) 0.3209(6) 0.0165(4)
N10 N 0.3103(5) 0.0646(6) -0.0146(4)
N11 N 0.3668(5) 0.1403(7) 0.0266(4)
N12 N 0.4185(4) -0.0483(6) 0.0322(3)
O1 O 0.0697(4) 0.8958(6) -0.4206(3)
O2 O -0.0150(3) 0.7622(5) -0.4208(3)
O3 O 0.1689(4) 0.8554(4) -0.1090(2)
O4 O 0.0610(4) 0.7286(5) -0.1052(3)
O5 O 0.1248(4) 0.9290(5) -0.6014(3)
O6 O 0.1175(4) 0.7441(5) -0.6193(3)
O7 O 0.1390(4) 0.8494(5) -0.9407(3)
O8 O 0.2474(4) 0.7226(5) -0.9203(3)
O9 O -0.3873(4) 1.9521(5) -0.8883(3)
O10 O -0.3778(4) 1.7707(5) -0.8812(3)
O11 O -0.3545(4) 1.8249(5) -0.5655(3)
O12 O -0.2506(3) 1.7006(5) -0.5774(3)
O13 O -0.4143(4) 1.9199(5) -0.0739(3)
O14 O -0.5210(4) 1.7856(5) -0.0865(3)
O15 O -0.3348(4) 1.8443(5) -0.4009(3)
O16 O -0.4415(4) 1.7135(5) -0.3877(3)
O17 O -0.0662(4) 0.6475(5) -0.5613(3)
H77 H -0.1293 0.6730 -0.5557
H78 H -0.0555 0.5801 -0.5334
O18 O 0.3159(4) 0.6607(5) -0.0852(3)
H79 H 0.3529 0.6091 -0.0570
H80 H 0.3503 0.7300 -0.0928
O19 O -0.5699(4) 1.6720(5) -0.9367(3)
H81 H -0.5575 1.6023 -0.9616
H82 H -0.6329 1.6961 -0.9468
O20 O -0.1941(4) 1.6428(5) -0.4125(3)
H83 H -0.1922 1.5703 -0.4089
H84 H -0.1396 1.6636 -0.4240
Cd1A Cd -0.03322(4) 1.28735(11) -0.47423(3)
Cd2_2 Cd 0.17662(4) 0.70411(11) -1.02584(3)
Cd3A Cd 0.46621(4) 0.31277(11) -0.02723(3)
Cd3_2 Cd 0.53379(4) -0.18723(11) 0.02723(3)
Cd3_3 Cd -0.46621(4) 1.81277(11) 0.02723(3)
N2A N 0.1238(5) 0.6120(6) -0.4757(3)
N11A N -0.3668(5) 1.6403(7) -1.0266(4)
N12_2 N -0.5815(4) 1.9517(6) -0.9678(3)
O7_2 O 0.1390(4) 0.8494(5) 0.0593(3)
O8_2 O 0.2474(4) 0.7226(5) 0.0797(3)
O13_2 O -0.4143(4) 1.9199(5) -1.0739(3)
O14_2 O -0.5210(4) 1.7856(5) -1.0865(3)
loop_
_geom_bond_atom_site_label_1
_geom_bond_atom_site_label_2
_geom_bond_site_symmetry_1
_geom_bond_site_symmetry_2
C1 H1 1_555 1_555
C2 H2 1_555 1_555
C3 H3 1_555 1_555
H4 C3 1_555 1_555
C4 C3 1_555 1_555
H5 C4 1_555 1_555
H6 C4 1_555 1_555
C5 C4 1_555 1_555
H7 C5 1_555 1_555
H8 C5 1_555 1_555
C6 H9 1_555 1_555
C7 H10 1_555 1_555
C8 H11 1_555 1_555
C9 H12 1_555 1_555
C10 H13 1_555 1_555
H14 C10 1_555 1_555
C11 C10 1_555 1_555
H15 C11 1_555 1_555
H16 C11 1_555 1_555
C12 C11 1_555 1_555
H17 C12 1_555 1_555
H18 C12 1_555 1_555
C13 H19 1_555 1_555
C14 H20 1_555 1_555
C15 C16 1_555 1_555
C16 C17 1_555 1_555
C17 H21 1_555 1_555
H22 C17 1_555 1_555
C18 C17 1_555 1_555
H23 C18 1_555 1_555
H24 C18 1_555 1_555
C19 C18 1_555 1_555
H25 C19 1_555 1_555
C20 C16 1_555 1_555
C21 C19 1_555 1_555
C22 C20 1_555 1_555
H26 C22 1_555 1_555
H27 C22 1_555 1_555
H28 C22 1_555 1_555
C23 C20 1_555 1_555
H29 C23 1_555 1_555
H30 C23 1_555 1_555
H31 C23 1_555 1_555
C24 C16 1_555 1_555
H32 C24 1_555 1_555
H33 C24 1_555 1_555
H34 C24 1_555 1_555
C25 C26 1_555 1_555
C26 C27 1_555 1_555
C27 H35 1_555 1_555
H36 C27 1_555 1_555
C28 C27 1_555 1_555
H37 C28 1_555 1_555
H38 C28 1_555 1_555
C29 C28 1_555 1_555
H39 C29 1_555 1_555
C30 C26 1_555 1_555
C31 C29 1_555 1_555
C32 C30 1_555 1_555
H40 C32 1_555 1_555
H41 C32 1_555 1_555
H42 C32 1_555 1_555
C33 C30 1_555 1_555
H43 C33 1_555 1_555
H44 C33 1_555 1_555
H45 C33 1_555 1_555
C34 C26 1_555 1_555
H46 C34 1_555 1_555
H47 C34 1_555 1_555
H48 C34 1_555 1_555
C35 C36 1_555 1_555
C36 H49 1_555 1_555
C37 C36 1_555 1_555
H50 C37 1_555 1_555
H51 C37 1_555 1_555
C38 C37 1_555 1_555
H52 C38 1_555 1_555
H53 C38 1_555 1_555
C39 C38 1_555 1_555
C40 C36 1_555 1_555
C41 C39 1_555 1_555
C42 C40 1_555 1_555
H54 C42 1_555 1_555
H55 C42 1_555 1_555
H56 C42 1_555 1_555
C43 C40 1_555 1_555
H57 C43 1_555 1_555
H58 C43 1_555 1_555
H59 C43 1_555 1_555
C44 C39 1_555 1_555
H60 C44 1_555 1_555
H61 C44 1_555 1_555
H62 C44 1_555 1_555
C45 C46 1_555 1_555
C46 H63 1_555 1_555
C47 C46 1_555 1_555
H64 C47 1_555 1_555
H65 C47 1_555 1_555
C48 C47 1_555 1_555
H66 C48 1_555 1_555
H67 C48 1_555 1_555
C49 C48 1_555 1_555
C50 C46 1_555 1_555
C51 C49 1_555 1_555
C52 C50 1_555 1_555
H68 C52 1_555 1_555
H69 C52 1_555 1_555
H70 C52 1_555 1_555
C53 C50 1_555 1_555
H71 C53 1_555 1_555
H72 C53 1_555 1_555
H73 C53 1_555 1_555
C54 C49 1_555 1_555
H74 C54 1_555 1_555
H75 C54 1_555 1_555
H76 C54 1_555 1_555
Cd1 N1 1_555 1_555
Cd2 N7 1_555 1_555
Cd3 O9 1_555 1_555
Cd4 N6 1_555 1_555
N1 C1 1_555 1_555
N2 C1 1_555 1_555
N3 C2 1_555 1_555
N4 C5 1_555 1_555
N5 C7 1_555 1_555
N6 C6 1_555 1_555
N7 C8 1_555 1_555
N8 C9 1_555 1_555
N9 C8 1_555 1_555
N10 C12 1_555 1_555
N11 C13 1_555 1_555
N12 C13 1_555 1_555
O1 C15 1_555 1_555
O2 C15 1_555 1_555
O3 C21 1_555 1_555
O4 C21 1_555 1_555
O5 C25 1_555 1_555
O6 C25 1_555 1_555
O7 C31 1_555 1_555
O8 C31 1_555 1_555
O9 C35 1_555 1_555
O10 C35 1_555 1_555
O11 C41 1_555 1_555
O12 C41 1_555 1_555
O13 C45 1_555 1_555
O14 C45 1_555 1_555
O15 C51 1_555 1_555
O16 C51 1_555 1_555
O17 Cd1 1_555 1_555
H77 O17 1_555 1_555
H78 O17 1_555 1_555
O18 Cd2 1_555 1_555
H79 O18 1_555 1_555
H80 O18 1_555 1_555
O19 Cd3 1_555 1_555
H81 O19 1_555 1_555
H82 O19 1_555 1_555
O20 Cd4 1_555 1_555
H83 O20 1_555 1_555
H84 O20 1_555 1_555
Cd1A N2 1_555 1_555
Cd2_2 O7 1_555 1_555
Cd3A N11 1_555 1_555
Cd3_2 N12 1_555 1_555
Cd3_3 O13 1_555 1_555
N2A Cd1 1_555 1_555
N11A Cd3 1_555 1_555
N12_2 Cd3 1_555 1_555
O7_2 Cd2 1_555 1_555
O8_2 Cd2 1_555 1_555
O13_2 Cd3 1_555 1_555
O14_2 Cd3 1_555 1_555
C2 N1 1_555 1_555
C3 N3 1_555 1_555
C6 N4 1_555 1_555
C7 N6 1_555 1_555
C9 N7 1_555 1_555
C10 N9 1_555 1_555
C14 N10 1_555 1_555
C14 N12 1_555 1_555
C19 C20 1_555 1_555
C29 C30 1_555 1_555
C39 C40 1_555 1_555
C49 C50 1_555 1_555
Cd1 O1 1_555 1_555
Cd1 O2 1_555 1_555
Cd1 O5 1_555 1_555
Cd1 O6 1_555 1_555
Cd2 O3 1_555 1_555
Cd2 O4 1_555 1_555
Cd3 O10 1_555 1_555
Cd4 O11 1_555 1_555
Cd4 O12 1_555 1_555
Cd4 O15 1_555 1_555
Cd4 O16 1_555 1_555
N2 N3 1_555 1_555
N4 N5 1_555 1_555
N8 N9 1_555 1_555
N10 N11 1_555 1_555
O8 Cd2_2 1_555 1_555
O14 Cd3_3 1_555 1_555

#END
