
#######################################################################
#
#                 Cambridge Crystallographic Data Centre
#                                CCDC 
#
#######################################################################
#
# If this CIF has been generated from an entry in the Cambridge 
# Structural Database, then it will include bibliographic, chemical, 
# crystal, experimental, refinement or atomic coordinate data resulting 
# from the CCDC's data processing and validation procedures.
#
#######################################################################

data_QUCTAL
_symmetry_cell_setting           monoclinic
_symmetry_space_group_name_H-M   'P 21/c'
_symmetry_Int_Tables_number      14
_space_group_name_Hall           '-P 2ybc'
loop_
_symmetry_equiv_pos_site_id
_symmetry_equiv_pos_as_xyz
1 x,y,z
2 -x,1/2+y,1/2-z
3 -x,-y,-z
4 x,1/2-y,1/2+z
_cell_length_a                   11.563(5)
_cell_length_b                   10.350(5)
_cell_length_c                   12.463(5)
_cell_angle_alpha                90
_cell_angle_beta                 110.254(5)
_cell_angle_gamma                90
_cell_volume                     1399.31
loop_
_atom_site_label
_atom_site_type_symbol
_atom_site_fract_x
_atom_site_fract_y
_atom_site_fract_z
Sn1 Sn 0.570097(15) 0.604468(15) 0.309615(13)
O1 O 0.50659(16) 0.29495(16) 0.29056(14)
O2 O 0.63952(16) 0.42714(15) 0.41230(14)
O3 O 1.05686(17) 0.15710(17) 0.21555(16)
N1 N 0.96744(19) 0.33158(19) 0.37138(18)
C1 C 0.6961(3) 0.7154(2) 0.4413(2)
H1 H 0.7786 0.6872 0.4528
H2 H 0.6790 0.7043 0.5108
H3 H 0.6878 0.8049 0.4200
N2 N 0.86092(18) 0.24123(19) 0.47097(16)
N3 N 0.86205(18) 0.01677(19) 0.41488(17)
N4 N 0.9647(2) -0.0054(2) 0.28164(19)
C2 C 0.6489(2) 0.2071(2) 0.4647(2)
H4 H 0.6444 0.1281 0.4216
H5 H 0.5999 0.1948 0.5133
C3 C 0.9081(2) 0.3515(2) 0.4422(2)
H6 H 0.8990 0.4327 0.4701
C4 C 0.7826(2) 0.2303(2) 0.5402(2)
H7 H 0.7882 0.3090 0.5839
H8 H 0.8110 0.1592 0.5937
C5 C 1.0001(2) 0.1229(2) 0.2778(2)
C6 C 0.5937(2) 0.3159(2) 0.3822(2)
C7 C 0.9578(2) 0.2003(2) 0.3519(2)
C8 C 0.6281(3) 0.5368(3) 0.1762(2)
H9 H 0.6424 0.6090 0.1342
H10 H 0.5652 0.4825 0.1259
H11 H 0.7029 0.4881 0.2081
C9 C 0.3920(2) 0.5729(3) 0.3172(2)
H12 H 0.3990 0.5502 0.3939
H13 H 0.3524 0.5039 0.2662
H14 H 0.3439 0.6503 0.2949
C10 C 0.8927(2) 0.1432(2) 0.4121(2)
C11 C 0.9013(2) -0.0519(2) 0.3469(2)
H15 H 0.8845 -0.1400 0.3427
H16 H 0.982(3) -0.052(3) 0.245(3)
Sn1A Sn 0.429903(15) 0.104468(15) 0.190385(13)
O1A O 0.49341(16) 0.79495(16) 0.20944(14)
loop_
_geom_bond_atom_site_label_1
_geom_bond_atom_site_label_2
_geom_bond_site_symmetry_1
_geom_bond_site_symmetry_2
Sn1 O2 1_555 1_555
O1 C6 1_555 1_555
O2 C6 1_555 1_555
O3 C5 1_555 1_555
N1 C3 1_555 1_555
C1 Sn1 1_555 1_555
H1 C1 1_555 1_555
H2 C1 1_555 1_555
H3 C1 1_555 1_555
N2 C3 1_555 1_555
N3 C10 1_555 1_555
N4 C5 1_555 1_555
C2 H4 1_555 1_555
H5 C2 1_555 1_555
C3 H6 1_555 1_555
C4 N2 1_555 1_555
H7 C4 1_555 1_555
H8 C4 1_555 1_555
C5 C7 1_555 1_555
C6 C2 1_555 1_555
C7 N1 1_555 1_555
C8 Sn1 1_555 1_555
H9 C8 1_555 1_555
H10 C8 1_555 1_555
H11 C8 1_555 1_555
C9 Sn1 1_555 1_555
H12 C9 1_555 1_555
H13 C9 1_555 1_555
H14 C9 1_555 1_555
C10 N2 1_555 1_555
C11 N3 1_555 1_555
H15 C11 1_555 1_555
H16 N4 1_555 1_555
Sn1A O1 1_555 1_555
O1A Sn1 1_555 1_555
N4 C11 1_555 1_555
C2 C4 1_555 1_555
C7 C10 1_555 1_555

#END
