
#######################################################################
#
#                 Cambridge Crystallographic Data Centre
#                                CCDC 
#
#######################################################################
#
# If this CIF has been generated from an entry in the Cambridge 
# Structural Database, then it will include bibliographic, chemical, 
# crystal, experimental, refinement or atomic coordinate data resulting 
# from the CCDC's data processing and validation procedures.
#
#######################################################################

data_QUCTUE
_symmetry_cell_setting           triclinic
_symmetry_space_group_name_H-M   'P -1'
_symmetry_Int_Tables_number      2
_space_group_name_Hall           '-P 1'
loop_
_symmetry_equiv_pos_site_id
_symmetry_equiv_pos_as_xyz
1 x,y,z
2 -x,-y,-z
_cell_length_a                   8.453(3)
_cell_length_b                   14.656(6)
_cell_length_c                   15.651(6)
_cell_angle_alpha                95.895(5)
_cell_angle_beta                 102.855(5)
_cell_angle_gamma                90.786(6)
_cell_volume                     1879.03
loop_
_atom_site_label
_atom_site_type_symbol
_atom_site_fract_x
_atom_site_fract_y
_atom_site_fract_z
Cu1 Cu 0.36893(9) 0.13812(5) 0.29576(6)
Cu2 Cu -0.05429(9) 0.09216(5) 0.20342(5)
Cu3 Cu -0.33690(11) -0.36930(7) 0.13896(7)
Cu4 Cu 0.80702(11) 0.28913(7) 0.56962(7)
Cu5 Cu 0.95638(11) 0.56323(6) 0.91672(7)
C1 C -0.3470(8) -0.2135(5) 0.0310(5)
C2 C -0.2994(8) -0.1378(5) -0.0026(5)
C3 C -0.1501(8) -0.0972(5) 0.0340(5)
C4 C -0.0510(7) -0.1336(4) 0.1035(4)
C5 C -0.1081(8) -0.2098(4) 0.1331(5)
C6 C 0.1042(7) -0.0863(4) 0.1494(4)
C7 C 0.3599(7) -0.0547(4) 0.2090(4)
C8 C 0.5367(7) -0.0615(4) 0.2425(4)
C9 C 0.6018(8) -0.1200(5) 0.3029(5)
C10 C 0.7672(9) -0.1124(6) 0.3386(6)
C11 C 0.8588(8) -0.0483(5) 0.3121(5)
C12 C 0.6379(7) -0.0004(4) 0.2173(4)
C13 C 0.6752(8) 0.4337(5) 0.4568(5)
C14 C 0.5710(8) 0.4801(5) 0.3988(5)
C15 C 0.4141(8) 0.4436(5) 0.3646(5)
C16 C 0.3707(7) 0.3619(4) 0.3915(4)
C17 C 0.4836(8) 0.3215(5) 0.4526(4)
C18 C 0.2141(7) 0.3146(4) 0.3494(4)
C19 C -0.0438(7) 0.2865(4) 0.2900(4)
C20 C -0.2202(7) 0.2973(4) 0.2588(4)
C21 C -0.2842(8) 0.3655(4) 0.2075(4)
C22 C -0.4498(8) 0.3639(5) 0.1751(5)
C23 C -0.5452(8) 0.2955(5) 0.1933(5)
C24 C -0.3240(7) 0.2325(4) 0.2766(4)
C25 C 0.6269(9) 0.1129(5) 0.4639(5)
C26 C -0.1572(8) -0.3605(5) 0.3320(5)
C27 C 0.8136(9) 0.4120(6) 0.7688(5)
C28 C -0.6582(7) -0.4560(4) 0.0347(4)
C29 C -0.0948(8) 0.2420(5) 0.0760(4)
N1 N 0.1183(5) 0.0018(3) 0.1799(3)
N2 N 0.2815(5) 0.0217(3) 0.2181(3)
N3 N 0.2532(6) -0.1233(3) 0.1664(3)
N4 N 0.3006(9) -0.2108(5) 0.1354(4)
N5 N 0.7981(6) 0.0073(3) 0.2505(3)
N6 N -0.2551(6) -0.2509(3) 0.0973(4)
N7 N 0.0310(5) 0.2085(3) 0.2818(3)
N8 N 0.1944(5) 0.2266(3) 0.3197(3)
N9 N 0.0673(5) 0.3541(3) 0.3311(3)
N10 N 0.0337(7) 0.4469(4) 0.3595(4)
N11 N 0.6361(6) 0.3548(4) 0.4840(4)
N12 N -0.4865(6) 0.2292(3) 0.2449(3)
N13 N 0.5264(7) 0.1052(4) 0.4013(4)
N14 N -0.2236(7) -0.3746(4) 0.2598(4)
N15 N 0.8688(7) 0.4777(5) 0.8142(4)
N16 N -0.5535(6) -0.4085(4) 0.0766(4)
N17 N -0.0253(7) 0.3113(4) 0.0775(4)
S1 S 0.7700(3) 0.13004(16) 0.55557(19)
S2 S -0.0662(2) -0.34056(15) 0.43802(13)
S3 S 0.7292(3) 0.32190(17) 0.70340(15)
S4 S -0.80457(19) -0.52858(12) -0.02560(12)
S5 S -0.1963(2) 0.14344(12) 0.07025(12)
H1 H 0.540(7) -0.159(4) 0.318(4)
H2 H 0.605(7) 0.040(4) 0.178(4)
H3 H 0.972(7) -0.040(4) 0.334(3)
H4 H 0.819(7) -0.147(4) 0.379(4)
H5 H 0.603(7) 0.534(4) 0.388(4)
H6 H 0.777(7) 0.461(4) 0.489(4)
H7 H 0.454(7) 0.270(4) 0.473(4)
H8 H -0.658(7) 0.295(4) 0.172(4)
H9 H -0.283(7) 0.188(4) 0.310(3)
H10 H -0.500(7) 0.405(4) 0.136(4)
H11 H -0.376(7) -0.116(4) -0.047(4)
H12 H -0.433(7) -0.247(4) 0.004(4)
H13 H -0.121(7) -0.048(4) 0.011(4)
H14 H -0.047(7) -0.238(4) 0.176(4)
H15 H 0.359(7) 0.468(4) 0.321(4)
H16 H -0.220(7) 0.407(4) 0.193(4)
H17 H 0.275(8) -0.217(5) 0.089(4)
H18 H 0.289(7) -0.254(4) 0.166(4)
H19 H 0.007(8) 0.469(4) 0.402(3)
H20 H 0.029(8) 0.476(4) 0.319(3)
Cu1_2 Cu -0.63107(9) 0.13812(5) 0.29576(6)
Cu2_2 Cu 0.94571(9) 0.09216(5) 0.20342(5)
Cu3A Cu -0.66310(11) -0.63070(7) -0.13896(7)
Cu4A Cu 0.19298(11) -0.28913(7) 0.43038(7)
Cu5A Cu 0.04362(11) 0.43677(6) 0.08328(7)
Cu5_2 Cu -1.04362(11) -0.43677(6) -0.08328(7)
Cu5A_2 Cu -0.95638(11) -0.56323(6) 0.08328(7)
N5_2 N -0.2019(6) 0.0073(3) 0.2505(3)
N12_2 N 0.5135(6) 0.2292(3) 0.2449(3)
N17A N 1.0253(7) 0.6887(4) 0.9225(4)
S2A S 1.0662(2) 0.34056(15) 0.56198(13)
S4A S -0.19543(19) -0.47142(12) 0.02560(12)
S4_2 S 1.19543(19) 0.47142(12) 0.97440(12)
S4A_2 S 0.80457(19) 0.52858(12) 1.02560(12)
loop_
_geom_bond_atom_site_label_1
_geom_bond_atom_site_label_2
_geom_bond_site_symmetry_1
_geom_bond_site_symmetry_2
Cu1 N2 1_555 1_555
Cu2 N1 1_555 1_555
Cu3 N6 1_555 1_555
Cu4 N11 1_555 1_555
Cu5 N15 1_555 1_555
C1 C2 1_555 1_555
C2 C3 1_555 1_555
C3 C4 1_555 1_555
C4 C5 1_555 1_555
C5 N6 1_555 1_555
C6 C4 1_555 1_555
C7 C8 1_555 1_555
C8 C9 1_555 1_555
C9 C10 1_555 1_555
C10 C11 1_555 1_555
C11 N5 1_555 1_555
C12 C8 1_555 1_555
C13 C14 1_555 1_555
C14 C15 1_555 1_555
C15 C16 1_555 1_555
C16 C17 1_555 1_555
C17 N11 1_555 1_555
C18 C16 1_555 1_555
C19 C20 1_555 1_555
C20 C21 1_555 1_555
C21 C22 1_555 1_555
C22 C23 1_555 1_555
C23 N12 1_555 1_555
C24 C20 1_555 1_555
C25 N13 1_555 1_555
C26 N14 1_555 1_555
C27 N15 1_555 1_555
C28 N16 1_555 1_555
C29 N17 1_555 1_555
N1 C6 1_555 1_555
N2 C7 1_555 1_555
N3 C6 1_555 1_555
N4 N3 1_555 1_555
N5 C12 1_555 1_555
N6 C1 1_555 1_555
N7 Cu2 1_555 1_555
N8 Cu1 1_555 1_555
N9 C18 1_555 1_555
N10 N9 1_555 1_555
N11 C13 1_555 1_555
N12 C24 1_555 1_555
N13 Cu1 1_555 1_555
N14 Cu3 1_555 1_555
N16 Cu3 1_555 1_555
N17 Cu5A 1_555 1_555
S1 Cu4 1_555 1_555
S2 C26 1_555 1_555
S3 Cu4 1_555 1_555
S4 C28 1_555 1_555
S5 Cu2 1_555 1_555
H1 C9 1_555 1_555
H2 C12 1_555 1_555
H3 C11 1_555 1_555
H4 C10 1_555 1_555
H5 C14 1_555 1_555
H6 C13 1_555 1_555
H7 C17 1_555 1_555
H8 C23 1_555 1_555
H9 C24 1_555 1_555
H10 C22 1_555 1_555
H11 C2 1_555 1_555
H12 C1 1_555 1_555
H13 C3 1_555 1_555
H14 C5 1_555 1_555
H15 C15 1_555 1_555
H16 C21 1_555 1_555
H17 N4 1_555 1_555
H18 N4 1_555 1_555
H19 N10 1_555 1_555
H20 N10 1_555 1_555
Cu1_2 N12 1_555 1_555
Cu2_2 N5 1_555 1_555
Cu3A S4 1_555 1_555
Cu4A S2 1_555 1_555
Cu5_2 S4 1_555 1_555
Cu5A_2 S4 1_555 1_555
N5_2 Cu2 1_555 1_555
N12_2 Cu1 1_555 1_555
N17A Cu5 1_555 1_555
S2A Cu4 1_555 1_555
S4A Cu3 1_555 1_555
S4_2 Cu5 1_555 1_555
S4A_2 Cu5 1_555 1_555
C7 N3 1_555 1_555
C18 N8 1_555 1_555
C19 N7 1_555 1_555
C19 N9 1_555 1_555
C25 S1 1_555 1_555
C27 S3 1_555 1_555
C29 S5 1_555 1_555
N1 N2 1_555 1_555
N7 N8 1_555 1_555

#END
