
#######################################################################
#
#                 Cambridge Crystallographic Data Centre
#                                CCDC 
#
#######################################################################
#
# If this CIF has been generated from an entry in the Cambridge 
# Structural Database, then it will include bibliographic, chemical, 
# crystal, experimental, refinement or atomic coordinate data resulting 
# from the CCDC's data processing and validation procedures.
#
#######################################################################

data_QUCTEP
_symmetry_cell_setting           triclinic
_symmetry_space_group_name_H-M   'P -1'
_symmetry_Int_Tables_number      2
_space_group_name_Hall           '-P 1'
loop_
_symmetry_equiv_pos_site_id
_symmetry_equiv_pos_as_xyz
1 x,y,z
2 -x,-y,-z
_cell_length_a                   10.4055(13)
_cell_length_b                   12.6484(16)
_cell_length_c                   17.386(2)
_cell_angle_alpha                77.482(2)
_cell_angle_beta                 89.515(3)
_cell_angle_gamma                89.422(3)
_cell_volume                     2233.67
loop_
_atom_site_label
_atom_site_type_symbol
_atom_site_fract_x
_atom_site_fract_y
_atom_site_fract_z
C1 C 0.617(3) 0.211(3) 0.1586(18)
Sn1 Sn 1.39405(18) 0.27867(18) 0.28269(11)
Sn2 Sn 0.8939(2) 0.2169(3) 0.21497(13)
O1 O 1.228(2) 0.3091(17) 0.3564(12)
O2 O 1.087(2) 0.250(2) 0.2804(13)
N1 N 0.316(3) -0.208(2) 0.2238(18)
H1 H 0.2630 -0.2521 0.2520
C2 C 0.268(3) -0.114(3) 0.180(2)
H2 H 0.1794 -0.1042 0.1806
N2 N 0.335(3) -0.036(3) 0.1351(19)
N3 N 0.654(2) -0.149(2) 0.1682(19)
C3 C 0.671(3) -0.053(3) 0.121(2)
H3 H 0.7520 -0.0262 0.1033
O3 O 0.589(2) 0.246(2) 0.2186(13)
C4 C 1.042(4) 0.382(3) 0.447(2)
H4 H 0.9738 0.3831 0.4858
H5 H 1.1207 0.3596 0.4759
C5 C 1.169(3) 0.549(3) 0.379(2)
H6 H 1.2487 0.5221 0.3980
N4 N 1.153(2) 0.643(2) 0.3314(18)
N5 N 0.836(3) 0.535(3) 0.365(2)
N6 N 0.818(3) 0.707(2) 0.276(2)
H7 H 0.7646 0.7510 0.2473
C6 C 1.339(3) 0.396(2) 0.1790(18)
H8 H 1.4154 0.4227 0.1497
H9 H 1.2879 0.3594 0.1459
C7 C 1.261(3) 0.491(3) 0.1954(19)
H10 H 1.3154 0.5327 0.2230
H11 H 1.1897 0.4642 0.2299
C8 C 1.209(4) 0.567(3) 0.121(2)
H12 H 1.1563 0.5255 0.0932
H13 H 1.1535 0.6210 0.1373
C9 C 1.311(4) 0.625(3) 0.066(2)
H14 H 1.3634 0.6671 0.0931
H15 H 1.2712 0.6718 0.0216
H16 H 1.3643 0.5725 0.0479
C10 C 1.352(4) 0.110(3) 0.295(2)
H17 H 1.2924 0.1025 0.2543
H18 H 1.4309 0.0725 0.2863
O4 O 0.7312(19) 0.1884(19) 0.1413(13)
O5 O 0.483(2) -0.326(2) 0.2662(16)
O6 O 0.984(2) 0.823(2) 0.2306(17)
C11 C 1.114(3) 0.287(3) 0.3393(19)
C12 C 0.856(5) 0.389(4) 0.204(3)
H19 H 0.8065 0.3977 0.2494
H20 H 0.9375 0.4244 0.2055
C13 C 0.786(4) 0.449(3) 0.132(2)
H21 H 0.8393 0.4472 0.0861
H22 H 0.7080 0.4100 0.1267
C14 C 0.750(6) 0.565(5) 0.129(3)
H23 H 0.6973 0.5669 0.1753
H24 H 0.8283 0.6041 0.1341
C15 C 0.681(4) 0.622(3) 0.059(2)
H25 H 0.7372 0.6308 0.0139
H26 H 0.6539 0.6921 0.0662
H27 H 0.6074 0.5811 0.0508
C16 C 1.085(7) 0.187(6) 0.081(4)
H28 H 1.1453 0.1406 0.0601
H29 H 1.1355 0.2413 0.0985
C17 C 0.976(12) 0.160(6) -0.036(4)
H30 H 1.0464 0.1101 -0.0318
H31 H 0.9661 0.1971 -0.0904
H32 H 0.8983 0.1220 -0.0182
C18 C 0.512(3) 0.195(3) 0.1025(19)
H33 H 0.4933 0.2646 0.0679
H34 H 0.4350 0.1715 0.1327
C19 C 0.545(3) 0.114(3) 0.052(2)
H35 H 0.4776 0.1141 0.0141
H36 H 0.6245 0.1349 0.0234
N7 N 0.560(3) 0.004(2) 0.1008(18)
C20 C 0.463(3) -0.061(3) 0.139(2)
C21 C 0.522(3) -0.155(3) 0.180(2)
C22 C 0.447(3) -0.238(3) 0.227(2)
C23 C 0.834(6) 0.102(3) 0.318(2)
H37 H 0.9106 0.0746 0.3480
H38 H 0.7838 0.1408 0.3509
C24 C 0.758(4) 0.008(3) 0.307(2)
H39 H 0.8118 -0.0327 0.2773
H40 H 0.6864 0.0365 0.2728
C25 C 0.700(5) -0.078(5) 0.381(3)
H41 H 0.6396 -0.0412 0.4093
H42 H 0.6533 -0.1335 0.3621
C26 C 0.803(6) -0.128(5) 0.433(3)
H43 H 0.8632 -0.1625 0.4045
H44 H 0.7672 -0.1804 0.4761
H45 H 0.8459 -0.0729 0.4536
C27 C 1.009(3) 0.302(3) 0.398(2)
H46 H 0.9312 0.3266 0.3688
H47 H 0.9917 0.2329 0.4324
N8 N 1.058(3) 0.493(2) 0.3985(18)
C28 C 1.022(3) 0.651(3) 0.319(2)
C29 C 0.964(3) 0.560(3) 0.360(2)
C30 C 0.769(3) 0.614(3) 0.321(3)
H48 H 0.6806 0.6061 0.3209
C31 C 0.947(3) 0.737(3) 0.271(2)
C32 C 1.510(9) 0.353(8) 0.365(5)
H49 H 1.5691 0.4055 0.3356
H50 H 1.4535 0.3899 0.3957
C33 C 1.576(9) 0.275(7) 0.414(5)
H51 H 1.6485 0.2474 0.3884
H52 H 1.5221 0.2153 0.4402
C34 C 1.622(9) 0.360(8) 0.477(5)
H53 H 1.7121 0.3505 0.4903
H54 H 1.6064 0.4359 0.4520
C35 C 1.540(9) 0.326(8) 0.545(4)
H55 H 1.4685 0.3747 0.5418
H56 H 1.5885 0.3260 0.5916
H57 H 1.5102 0.2541 0.5460
C36 C 1.296(5) 0.052(3) 0.373(3)
H58 H 1.2247 0.0946 0.3866
H59 H 1.3610 0.0483 0.4137
C37 C 1.250(6) -0.062(4) 0.374(4)
H60 H 1.1961 -0.0579 0.3283
H61 H 1.3248 -0.1055 0.3673
C38 C 1.178(6) -0.121(4) 0.444(3)
H62 H 1.2315 -0.1301 0.4893
H63 H 1.1537 -0.1903 0.4352
H64 H 1.1026 -0.0800 0.4512
C39 C 1.002(7) 0.244(5) 0.014(4)
H65 H 1.0456 0.3064 -0.0167
H66 H 0.9222 0.2677 0.0344
C40 C 1.019(4) 0.121(3) 0.149(2)
H67 H 1.0833 0.0822 0.1849
H68 H 0.9670 0.0682 0.1315
Sn1_2 Sn 0.39405(18) 0.27867(18) 0.28269(11)
O3_2 O 1.589(2) 0.246(2) 0.2186(13)
loop_
_geom_bond_atom_site_label_1
_geom_bond_atom_site_label_2
_geom_bond_site_symmetry_1
_geom_bond_site_symmetry_2
C1 O3 1_555 1_555
Sn1 O1 1_555 1_555
Sn2 O2 1_555 1_555
O1 C11 1_555 1_555
O2 C11 1_555 1_555
N1 H1 1_555 1_555
C2 N1 1_555 1_555
H2 C2 1_555 1_555
N2 C2 1_555 1_555
N3 C3 1_555 1_555
C3 H3 1_555 1_555
O3 Sn1_2 1_555 1_555
C4 H4 1_555 1_555
H5 C4 1_555 1_555
C5 H6 1_555 1_555
N4 C5 1_555 1_555
N5 C29 1_555 1_555
N6 H7 1_555 1_555
C6 Sn1 1_555 1_555
H8 C6 1_555 1_555
H9 C6 1_555 1_555
C7 C6 1_555 1_555
H10 C7 1_555 1_555
H11 C7 1_555 1_555
C8 C7 1_555 1_555
H12 C8 1_555 1_555
H13 C8 1_555 1_555
C9 C8 1_555 1_555
H14 C9 1_555 1_555
H15 C9 1_555 1_555
H16 C9 1_555 1_555
C10 Sn1 1_555 1_555
H17 C10 1_555 1_555
H18 C10 1_555 1_555
O4 C1 1_555 1_555
O5 C22 1_555 1_555
O6 C31 1_555 1_555
C11 C27 1_555 1_555
C12 Sn2 1_555 1_555
H19 C12 1_555 1_555
H20 C12 1_555 1_555
C13 C12 1_555 1_555
H21 C13 1_555 1_555
H22 C13 1_555 1_555
C14 C13 1_555 1_555
H23 C14 1_555 1_555
H24 C14 1_555 1_555
C15 C14 1_555 1_555
H25 C15 1_555 1_555
H26 C15 1_555 1_555
H27 C15 1_555 1_555
C16 H28 1_555 1_555
H29 C16 1_555 1_555
C17 H30 1_555 1_555
H31 C17 1_555 1_555
H32 C17 1_555 1_555
C18 C1 1_555 1_555
H33 C18 1_555 1_555
H34 C18 1_555 1_555
C19 C18 1_555 1_555
H35 C19 1_555 1_555
H36 C19 1_555 1_555
N7 C3 1_555 1_555
C20 N2 1_555 1_555
C21 N3 1_555 1_555
C22 N1 1_555 1_555
C23 Sn2 1_555 1_555
H37 C23 1_555 1_555
H38 C23 1_555 1_555
C24 C23 1_555 1_555
H39 C24 1_555 1_555
H40 C24 1_555 1_555
C25 C24 1_555 1_555
H41 C25 1_555 1_555
H42 C25 1_555 1_555
C26 C25 1_555 1_555
H43 C26 1_555 1_555
H44 C26 1_555 1_555
H45 C26 1_555 1_555
C27 C4 1_555 1_555
H46 C27 1_555 1_555
H47 C27 1_555 1_555
N8 C4 1_555 1_555
C28 N4 1_555 1_555
C29 N8 1_555 1_555
C30 N5 1_555 1_555
H48 C30 1_555 1_555
C31 N6 1_555 1_555
C32 Sn1 1_555 1_555
H49 C32 1_555 1_555
H50 C32 1_555 1_555
C33 C32 1_555 1_555
H51 C33 1_555 1_555
H52 C33 1_555 1_555
C34 C33 1_555 1_555
H53 C34 1_555 1_555
H54 C34 1_555 1_555
C35 C34 1_555 1_555
H55 C35 1_555 1_555
H56 C35 1_555 1_555
H57 C35 1_555 1_555
C36 C10 1_555 1_555
H58 C36 1_555 1_555
H59 C36 1_555 1_555
C37 C36 1_555 1_555
H60 C37 1_555 1_555
H61 C37 1_555 1_555
C38 C37 1_555 1_555
H62 C38 1_555 1_555
H63 C38 1_555 1_555
H64 C38 1_555 1_555
C39 C16 1_555 1_555
H65 C39 1_555 1_555
H66 C39 1_555 1_555
C40 Sn2 1_555 1_555
H67 C40 1_555 1_555
H68 C40 1_555 1_555
O3_2 Sn1 1_555 1_555
Sn2 O4 1_555 1_555
C5 N8 1_555 1_555
N6 C30 1_555 1_555
C16 C40 1_555 1_555
C17 C39 1_555 1_555
C19 N7 1_555 1_555
N7 C20 1_555 1_555
C20 C21 1_555 1_555
C21 C22 1_555 1_555
C28 C29 1_555 1_555
C28 C31 1_555 1_555

#END
