
#######################################################################
#
#                 Cambridge Crystallographic Data Centre
#                                CCDC 
#
#######################################################################
#
# If this CIF has been generated from an entry in the Cambridge 
# Structural Database, then it will include bibliographic, chemical, 
# crystal, experimental, refinement or atomic coordinate data resulting 
# from the CCDC's data processing and validation procedures.
#
#######################################################################

data_QUCVIU
_symmetry_cell_setting           monoclinic
_symmetry_space_group_name_H-M   'P 21'
_symmetry_Int_Tables_number      4
_space_group_name_Hall           'P 2yb'
loop_
_symmetry_equiv_pos_site_id
_symmetry_equiv_pos_as_xyz
1 x,y,z
2 -x,1/2+y,-z
_cell_length_a                   5.8910(9)
_cell_length_b                   14.382(2)
_cell_length_c                   8.6385(12)
_cell_angle_alpha                90
_cell_angle_beta                 95.156(2)
_cell_angle_gamma                90
_cell_volume                     728.93
loop_
_atom_site_label
_atom_site_type_symbol
_atom_site_fract_x
_atom_site_fract_y
_atom_site_fract_z
Cu1 Cu 0.68772(9) 0.83509(4) 0.07359(6)
Cu2 Cu 1.02602(9) 0.59675(4) 0.11831(8)
S1 S 0.93619(18) 0.73817(8) -0.06569(13)
S2 S 0.7305(2) 1.00074(9) 0.01354(18)
C1 C 0.9881(7) 0.8761(3) 0.3573(5)
C2 C 1.1431(7) 0.9254(3) 0.2749(5)
H1 H 1.1238 0.9298 0.1671
C3 C 1.3243(8) 0.9671(3) 0.3584(6)
H2 H 1.4305 0.9996 0.3060
C4 C 1.3532(7) 0.9618(3) 0.5221(5)
H3 H 1.4759 0.9922 0.5752
C5 C 1.2053(7) 0.9131(3) 0.6049(5)
H4 H 1.2257 0.9086 0.7127
C6 C 1.0219(7) 0.8706(3) 0.5183(5)
C7 C 0.7165(7) 0.7902(3) 0.4317(5)
C8 C 0.5163(7) 0.7300(3) 0.4431(5)
C9 C 0.3929(7) 0.6959(3) 0.3096(5)
H5 H 0.4446 0.7095 0.2135
C10 C 0.1341(7) 0.6233(3) 0.4526(6)
H6 H 0.0016 0.5886 0.4566
C11 C 0.2508(8) 0.6506(3) 0.5896(5)
H7 H 0.2020 0.6318 0.6841
C12 C 0.4423(7) 0.7066(3) 0.5862(5)
H8 H 0.5194 0.7280 0.6779
C13 C 1.2017(8) 0.7778(3) -0.0436(5)
C14 C 0.4685(7) 1.0315(3) -0.0495(6)
N1 N 0.7954(5) 0.8251(3) 0.3046(4)
N2 N 0.8472(6) 0.8174(2) 0.5623(4)
H9 H 0.8234 0.8035 0.6563
N3 N 0.2033(6) 0.6446(3) 0.3132(4)
N4 N 1.3860(6) 0.8033(3) -0.0243(5)
N5 N 0.2820(6) 1.0535(3) -0.0906(5)
Cu1_2 Cu 1.68772(9) 0.83509(4) 0.07359(6)
Cu2A Cu 0.97398(9) 1.09675(4) -0.11831(8)
Cu2_2 Cu 0.02602(9) 0.59675(4) 0.11831(8)
Cu2A_2 Cu -0.02602(9) 1.09675(4) -0.11831(8)
S2A S 1.2695(2) 0.50074(9) -0.01354(18)
N3_2 N 1.2033(6) 0.6446(3) 0.3132(4)
N4_2 N 0.3860(6) 0.8033(3) -0.0243(5)
N5A N 0.7180(6) 0.5535(3) 0.0906(5)
loop_
_geom_bond_atom_site_label_1
_geom_bond_atom_site_label_2
_geom_bond_site_symmetry_1
_geom_bond_site_symmetry_2
Cu1 S1 1_555 1_555
Cu2 S1 1_555 1_555
S1 C13 1_555 1_555
S2 Cu1 1_555 1_555
C1 C2 1_555 1_555
C2 H1 1_555 1_555
C3 C2 1_555 1_555
H2 C3 1_555 1_555
C4 C3 1_555 1_555
H3 C4 1_555 1_555
C5 C4 1_555 1_555
H4 C5 1_555 1_555
C6 C1 1_555 1_555
C7 C8 1_555 1_555
C8 C9 1_555 1_555
C9 H5 1_555 1_555
C10 H6 1_555 1_555
C11 C10 1_555 1_555
H7 C11 1_555 1_555
C12 C8 1_555 1_555
H8 C12 1_555 1_555
C13 N4 1_555 1_555
C14 S2 1_555 1_555
N1 Cu1 1_555 1_555
N2 C6 1_555 1_555
H9 N2 1_555 1_555
N3 C9 1_555 1_555
N4 Cu1_2 1_555 1_555
N5 C14 1_555 1_555
Cu2A S2 1_555 1_555
Cu2_2 N3 1_555 1_555
Cu2A_2 N5 1_555 1_555
S2A Cu2 1_555 1_555
N3_2 Cu2 1_555 1_555
N4_2 Cu1 1_555 1_555
N5A Cu2 1_555 1_555
C1 N1 1_555 1_555
C5 C6 1_555 1_555
C7 N1 1_555 1_555
C7 N2 1_555 1_555
C10 N3 1_555 1_555
C11 C12 1_555 1_555

#END
