
#######################################################################
#
#                 Cambridge Crystallographic Data Centre
#                                CCDC 
#
#######################################################################
#
# If this CIF has been generated from an entry in the Cambridge 
# Structural Database, then it will include bibliographic, chemical, 
# crystal, experimental, refinement or atomic coordinate data resulting 
# from the CCDC's data processing and validation procedures.
#
#######################################################################

data_QUCVEQ
_symmetry_cell_setting           triclinic
_symmetry_space_group_name_H-M   'P -1'
_symmetry_Int_Tables_number      2
_space_group_name_Hall           '-P 1'
loop_
_symmetry_equiv_pos_site_id
_symmetry_equiv_pos_as_xyz
1 x,y,z
2 -x,-y,-z
_cell_length_a                   8.7767(13)
_cell_length_b                   9.0022(14)
_cell_length_c                   9.3592(14)
_cell_angle_alpha                80.617(2)
_cell_angle_beta                 88.527(2)
_cell_angle_gamma                84.051(2)
_cell_volume                     725.615
loop_
_atom_site_label
_atom_site_type_symbol
_atom_site_fract_x
_atom_site_fract_y
_atom_site_fract_z
Cu1 Cu 0.35365(5) 0.31355(4) 0.68301(5)
Cu2 Cu -0.04472(4) 0.63173(5) 0.71873(4)
S1 S 0.11672(9) 0.39091(9) 0.78338(9)
S2 S 0.24492(10) 0.38537(11) 0.43859(9)
C1 C 0.5826(3) 0.0359(3) 0.7137(3)
C2 C 0.4809(3) -0.1379(4) 0.8710(3)
C3 C 0.4454(4) -0.2661(4) 0.9651(4)
H1 H 0.5183 -0.3477 0.9926
C4 C 0.2965(4) -0.2659(4) 1.0153(4)
H2 H 0.2677 -0.3495 1.0783
C5 C 0.1878(4) -0.1430(4) 0.9736(4)
H3 H 0.0884 -0.1470 1.0099
C6 C 0.2227(4) -0.0160(4) 0.8807(4)
H4 H 0.1494 0.0656 0.8544
C7 C 0.3728(3) -0.0149(3) 0.8275(3)
C8 C 0.6953(3) 0.1060(3) 0.6135(3)
C9 C 0.6494(3) 0.1890(3) 0.4808(3)
H5 H 0.5469 0.1999 0.4547
C10 C 0.7562(3) 0.2551(4) 0.3879(3)
H6 H 0.7228 0.3106 0.2997
C11 C 0.9503(3) 0.1629(4) 0.5465(3)
H7 H 1.0535 0.1539 0.5701
C12 C 0.8508(3) 0.0925(4) 0.6454(3)
H8 H 0.8872 0.0367 0.7324
C13 C 0.1218(3) 0.3621(3) 0.9623(3)
C14 C 0.3831(4) 0.4843(4) 0.3615(3)
N1 N 0.4390(3) 0.0933(3) 0.7300(3)
N2 N 0.6130(3) -0.1012(3) 0.7969(3)
H9 H 0.6996 -0.1560 0.8025
N3 N 0.9064(3) 0.2436(3) 0.4183(3)
N4 N 0.1201(3) 0.3400(3) 1.0875(3)
N5 N 0.4827(3) 0.5513(3) 0.3154(3)
Cu1A Cu 0.64635(5) 0.68645(4) 0.31699(5)
Cu2A Cu 0.04472(4) 0.36827(5) 0.28127(4)
Cu2A_2 Cu 1.04472(4) 0.36827(5) 0.28127(4)
Cu2A_3 Cu 0.04472(4) 0.36827(5) 1.28127(4)
S2A S -0.24492(10) 0.61463(11) 0.56141(9)
N3A N 0.0936(3) 0.7564(3) 0.5817(3)
N4A N -0.1201(3) 0.6600(3) 0.9125(3)
N5A N 0.5173(3) 0.4487(3) 0.6846(3)
loop_
_geom_bond_atom_site_label_1
_geom_bond_atom_site_label_2
_geom_bond_site_symmetry_1
_geom_bond_site_symmetry_2
Cu1 S1 1_555 1_555
Cu2 S1 1_555 1_555
S1 C13 1_555 1_555
S2 Cu1 1_555 1_555
C1 C8 1_555 1_555
C2 C3 1_555 1_555
C3 H1 1_555 1_555
C4 C3 1_555 1_555
H2 C4 1_555 1_555
C5 C4 1_555 1_555
H3 C5 1_555 1_555
C6 C5 1_555 1_555
H4 C6 1_555 1_555
C7 C2 1_555 1_555
C8 C9 1_555 1_555
C9 H5 1_555 1_555
C10 C9 1_555 1_555
H6 C10 1_555 1_555
C11 H7 1_555 1_555
C12 C8 1_555 1_555
H8 C12 1_555 1_555
C13 N4 1_555 1_555
C14 S2 1_555 1_555
N1 Cu1 1_555 1_555
N2 C1 1_555 1_555
H9 N2 1_555 1_555
N3 C10 1_555 1_555
N4 Cu2A_3 1_555 1_555
N5 C14 1_555 1_555
Cu1A N5 1_555 1_555
Cu2A S2 1_555 1_555
Cu2A_2 N3 1_555 1_555
S2A Cu2 1_555 1_555
N3A Cu2 1_555 1_555
N4A Cu2 1_555 1_555
N5A Cu1 1_555 1_555
C1 N1 1_555 1_555
C2 N2 1_555 1_555
C6 C7 1_555 1_555
C7 N1 1_555 1_555
C11 C12 1_555 1_555
C11 N3 1_555 1_555

#END
