
#######################################################################
#
#                 Cambridge Crystallographic Data Centre
#                                CCDC 
#
#######################################################################
#
# If this CIF has been generated from an entry in the Cambridge 
# Structural Database, then it will include bibliographic, chemical, 
# crystal, experimental, refinement or atomic coordinate data resulting 
# from the CCDC's data processing and validation procedures.
#
#######################################################################

data_QUCVOA
_symmetry_cell_setting           orthorhombic
_symmetry_space_group_name_H-M   'P b c a'
_symmetry_Int_Tables_number      61
_space_group_name_Hall           '-P 2ac 2ab'
loop_
_symmetry_equiv_pos_site_id
_symmetry_equiv_pos_as_xyz
1 x,y,z
2 1/2-x,-y,1/2+z
3 -x,1/2+y,1/2-z
4 1/2+x,1/2-y,-z
5 -x,-y,-z
6 1/2+x,y,1/2-z
7 x,1/2-y,1/2+z
8 1/2-x,1/2+y,z
_cell_length_a                   18.1048(14)
_cell_length_b                   10.3065(8)
_cell_length_c                   26.212(2)
_cell_angle_alpha                90
_cell_angle_beta                 90
_cell_angle_gamma                90
_cell_volume                     4891.08
loop_
_atom_site_label
_atom_site_type_symbol
_atom_site_fract_x
_atom_site_fract_y
_atom_site_fract_z
Cu1 Cu 0.09886(4) 0.86848(7) 0.34970(3)
Cu2 Cu -0.13838(5) 0.50562(9) 0.36624(3)
S1 S -0.03112(8) 0.50206(16) 0.41610(6)
S2 S -0.32713(9) 0.23497(16) 0.42765(7)
C1 C 0.2780(3) 0.8547(6) 0.3880(2)
H1 H 0.2858 0.7972 0.3612
C2 C 0.3377(3) 0.8874(7) 0.4173(3)
H2 H 0.3844 0.8534 0.4108
C3 C 0.3255(4) 0.9745(7) 0.4574(3)
H3 H 0.3638 1.0002 0.4788
C4 C 0.2536(4) 1.0215(7) 0.4642(2)
H4 H 0.2432 1.0798 0.4903
C5 C 0.1990(3) 0.9809(6) 0.4322(2)
C6 C 0.1224(3) 1.0278(5) 0.4368(2)
C7 C 0.0199(3) 1.1273(6) 0.4634(2)
C8 C -0.0328(4) 1.2002(6) 0.4865(2)
H5 H -0.0224 1.2532 0.5142
C9 C -0.1019(4) 1.1909(6) 0.4665(3)
H6 H -0.1397 1.2384 0.4815
C10 C -0.1183(4) 1.1146(6) 0.4250(2)
H7 H -0.1666 1.1125 0.4131
C11 C -0.0660(3) 1.0415(6) 0.4006(2)
H8 H -0.0778 0.9902 0.3725
C12 C 0.0064(3) 1.0476(6) 0.4201(2)
C13 C 0.1680(3) 0.6335(6) 0.3022(3)
H9 H 0.1652 0.5967 0.3346
C14 C 0.1968(4) 0.5627(7) 0.2636(3)
H10 H 0.2142 0.4791 0.2695
C15 C 0.1999(4) 0.6163(7) 0.2154(3)
H11 H 0.2186 0.5687 0.1882
C16 C 0.1751(4) 0.7403(7) 0.2082(3)
H12 H 0.1767 0.7776 0.1759
C17 C 0.1477(3) 0.8099(6) 0.2491(2)
C18 C 0.1236(3) 0.9457(6) 0.2484(2)
C19 C 0.0842(3) 1.1238(6) 0.2819(2)
C20 C 0.0565(3) 1.2244(6) 0.3121(2)
H13 H 0.0459 1.2120 0.3464
C21 C 0.0457(3) 1.3426(6) 0.2889(2)
H14 H 0.0279 1.4118 0.3081
C22 C 0.0610(3) 1.3609(6) 0.2371(2)
H15 H 0.0529 1.4421 0.2227
C23 C 0.0873(3) 1.2634(6) 0.2074(2)
H16 H 0.0976 1.2768 0.1730
C24 C 0.0981(3) 1.1441(6) 0.2297(2)
C25 C 0.0157(3) 0.6278(6) 0.3948(2)
C26 C -0.2658(3) 0.3409(6) 0.4081(2)
N1 N 0.2091(3) 0.8990(5) 0.3950(2)
N2 N 0.0698(3) 0.9885(5) 0.40504(18)
N3 N 0.0959(3) 1.1105(5) 0.47237(19)
H17 H 0.1210 1.1465 0.4963
N4 N 0.1434(3) 0.7556(5) 0.29542(18)
N5 N 0.1013(3) 0.9965(4) 0.29305(17)
N6 N 0.1231(2) 1.0275(5) 0.20880(18)
N7 N 0.0499(3) 0.7163(5) 0.38202(19)
N8 N -0.2215(3) 0.4138(5) 0.39470(19)
Cu2B Cu 0.13838(5) 1.00562(9) 0.13376(3)
N6B N -0.1231(2) 0.5275(5) 0.29120(18)
loop_
_geom_bond_atom_site_label_1
_geom_bond_atom_site_label_2
_geom_bond_site_symmetry_1
_geom_bond_site_symmetry_2
Cu1 N1 1_555 1_555
Cu2 S1 1_555 1_555
S1 C25 1_555 1_555
S2 C26 1_555 1_555
C1 H1 1_555 1_555
C2 C1 1_555 1_555
H2 C2 1_555 1_555
C3 C2 1_555 1_555
H3 C3 1_555 1_555
C4 C3 1_555 1_555
H4 C4 1_555 1_555
C5 C4 1_555 1_555
C6 C5 1_555 1_555
C7 C8 1_555 1_555
C8 H5 1_555 1_555
C9 C8 1_555 1_555
H6 C9 1_555 1_555
C10 C9 1_555 1_555
H7 C10 1_555 1_555
C11 C10 1_555 1_555
H8 C11 1_555 1_555
C12 C7 1_555 1_555
C13 H9 1_555 1_555
C14 C13 1_555 1_555
H10 C14 1_555 1_555
C15 C14 1_555 1_555
H11 C15 1_555 1_555
C16 C15 1_555 1_555
H12 C16 1_555 1_555
C17 C16 1_555 1_555
C18 C17 1_555 1_555
C19 C20 1_555 1_555
C20 H13 1_555 1_555
C21 C20 1_555 1_555
H14 C21 1_555 1_555
C22 C21 1_555 1_555
H15 C22 1_555 1_555
C23 C22 1_555 1_555
H16 C23 1_555 1_555
C24 C19 1_555 1_555
C25 N7 1_555 1_555
C26 N8 1_555 1_555
N1 C1 1_555 1_555
N2 Cu1 1_555 1_555
N3 C6 1_555 1_555
H17 N3 1_555 1_555
N4 Cu1 1_555 1_555
N5 Cu1 1_555 1_555
N6 C18 1_555 1_555
N7 Cu1 1_555 1_555
N8 Cu2 1_555 1_555
Cu2B N6 1_555 1_555
N6B Cu2 1_555 1_555
C5 N1 1_555 1_555
C6 N2 1_555 1_555
C7 N3 1_555 1_555
C11 C12 1_555 1_555
C12 N2 1_555 1_555
C13 N4 1_555 1_555
C17 N4 1_555 1_555
C18 N5 1_555 1_555
C19 N5 1_555 1_555
C23 C24 1_555 1_555
C24 N6 1_555 1_555

#END
