
#######################################################################
#
#                 Cambridge Crystallographic Data Centre
#                                CCDC 
#
#######################################################################
#
# If this CIF has been generated from an entry in the Cambridge 
# Structural Database, then it will include bibliographic, chemical, 
# crystal, experimental, refinement or atomic coordinate data resulting 
# from the CCDC's data processing and validation procedures.
#
#######################################################################

data_QUCZIZ
_symmetry_cell_setting           orthorhombic
_symmetry_space_group_name_H-M   'P 21 21 21'
_symmetry_Int_Tables_number      19
_space_group_name_Hall           'P 2ac 2ab'
loop_
_symmetry_equiv_pos_site_id
_symmetry_equiv_pos_as_xyz
1 x,y,z
2 1/2-x,-y,1/2+z
3 -x,1/2+y,1/2-z
4 1/2+x,1/2-y,-z
_cell_length_a                   12.9705(10)
_cell_length_b                   12.9057(11)
_cell_length_c                   23.0960(12)
_cell_angle_alpha                90
_cell_angle_beta                 90
_cell_angle_gamma                90
_cell_volume                     3866.12
loop_
_atom_site_label
_atom_site_type_symbol
_atom_site_fract_x
_atom_site_fract_y
_atom_site_fract_z
Cd1 Cd 0.871561(13) 0.136779(14) 0.143404(6)
O1 O 0.85345(13) 0.13588(15) 0.33758(8)
O2 O 0.99838(16) -0.30910(16) 0.43115(8)
C1 C 0.86737(19) -0.07881(19) 0.37911(9)
H1 H 0.8992 -0.0755 0.3431
O3 O 0.74473(13) -0.17528(18) 0.57294(7)
C2 C 0.97184(19) -0.2415(2) 0.39736(10)
O4 O 1.01132(14) -0.23248(16) 0.34848(7)
N1 N 0.97822(15) 0.00432(17) 0.17660(8)
O5 O 0.67875(15) -0.02282(16) 0.56403(7)
O6 O 0.74315(15) 0.07295(18) 0.21456(9)
C3 C 0.72981(17) -0.0940(2) 0.54510(10)
C4 C 0.77961(17) 0.0833(2) 0.35418(10)
C5 C 0.5923(2) 0.0469(3) 0.34918(16)
H2 H 0.5847 0.0412 0.3908
H3 H 0.5893 -0.0217 0.3320
C6 C 1.0285(2) 0.0362(3) 0.23378(11)
H4 H 1.0683 0.0990 0.2280
H5 H 0.9754 0.0506 0.2622
C7 C 0.79737(17) -0.0016(2) 0.39411(9)
N2 N 0.68592(15) 0.1003(2) 0.33359(9)
C8 C 0.89139(16) -0.15991(16) 0.41549(9)
O7 O 0.78823(13) 0.23341(15) 0.21752(7)
C9 C 0.75447(16) -0.0068(2) 0.45086(10)
H6 H 0.7108 0.0453 0.4640
C10 C 0.73977(18) 0.1599(3) 0.23663(10)
C11 C 0.77847(18) -0.0903(2) 0.48627(9)
C12 C 0.84584(17) -0.1635(2) 0.46916(10)
H7 H 0.8619 -0.2176 0.4942
C13 C 0.9866(2) -0.1801(2) 0.21114(13)
H8 H 0.9628 -0.2043 0.2486
H9 H 0.9840 -0.2376 0.1841
C14 C 1.1329(2) -0.1068(2) 0.15661(12)
H10 H 1.2038 -0.0832 0.1592
H11 H 1.1299 -0.1645 0.1298
N3 N 1.09416(18) -0.1398(2) 0.21581(9)
C15 C 1.0961(2) -0.0459(2) 0.25531(12)
H12 H 1.0741 -0.0661 0.2938
H13 H 1.1660 -0.0198 0.2580
C16 C 0.66901(19) 0.1807(3) 0.29004(12)
H14 H 0.6823 0.2496 0.3063
C17 C 0.9166(2) -0.0895(2) 0.18926(13)
H15 H 0.8805 -0.1111 0.1545
H16 H 0.8654 -0.0734 0.2185
C18 C 0.5554(3) 0.1695(3) 0.27267(17)
H17 H 0.5255 0.2366 0.2640
H18 H 0.5485 0.1253 0.2389
C19 C 1.0639(3) -0.0197(3) 0.13614(12)
H19 H 1.1053 0.0422 0.1308
H20 H 1.0350 -0.0382 0.0988
C20 C 0.5063(3) 0.1242(4) 0.3212(2)
H21 H 0.4455 0.0858 0.3095
H22 H 0.4860 0.1770 0.3489
Cd1A Cd 0.628439(13) -0.136779(14) 0.643404(6)
Cd1B Cd 1.128439(13) -0.363221(14) 0.356596(6)
O2B O 1.00162(16) 0.19090(16) 0.06885(8)
O3A O 0.75527(13) 0.17528(18) 0.07294(7)
O4B O 0.98868(14) 0.26752(16) 0.15152(7)
O5A O 0.82125(15) 0.02282(16) 0.06403(7)
loop_
_geom_bond_atom_site_label_1
_geom_bond_atom_site_label_2
_geom_bond_site_symmetry_1
_geom_bond_site_symmetry_2
Cd1 N1 1_555 1_555
O1 C4 1_555 1_555
O2 C2 1_555 1_555
C1 H1 1_555 1_555
O3 C3 1_555 1_555
C2 O4 1_555 1_555
O4 Cd1B 1_555 1_555
N1 C6 1_555 1_555
O5 C3 1_555 1_555
O6 Cd1 1_555 1_555
C3 C11 1_555 1_555
C4 C7 1_555 1_555
C5 H2 1_555 1_555
H3 C5 1_555 1_555
C6 H4 1_555 1_555
H5 C6 1_555 1_555
C7 C1 1_555 1_555
N2 C4 1_555 1_555
C8 C1 1_555 1_555
O7 Cd1 1_555 1_555
C9 C7 1_555 1_555
H6 C9 1_555 1_555
C10 O6 1_555 1_555
C11 C9 1_555 1_555
C12 C8 1_555 1_555
H7 C12 1_555 1_555
C13 H8 1_555 1_555
H9 C13 1_555 1_555
C14 H10 1_555 1_555
H11 C14 1_555 1_555
N3 C13 1_555 1_555
C15 C6 1_555 1_555
H12 C15 1_555 1_555
H13 C15 1_555 1_555
C16 N2 1_555 1_555
H14 C16 1_555 1_555
C17 N1 1_555 1_555
H15 C17 1_555 1_555
H16 C17 1_555 1_555
C18 C16 1_555 1_555
H17 C18 1_555 1_555
H18 C18 1_555 1_555
C19 N1 1_555 1_555
H19 C19 1_555 1_555
H20 C19 1_555 1_555
C20 C5 1_555 1_555
H21 C20 1_555 1_555
H22 C20 1_555 1_555
Cd1A O3 1_555 1_555
Cd1B O2 1_555 1_555
O2B Cd1 1_555 1_555
O3A Cd1 1_555 1_555
O4B Cd1 1_555 1_555
O5A Cd1 1_555 1_555
C2 C8 1_555 1_555
O5 Cd1A 1_555 1_555
C5 N2 1_555 1_555
O7 C10 1_555 1_555
C10 C16 1_555 1_555
C11 C12 1_555 1_555
C13 C17 1_555 1_555
C14 N3 1_555 1_555
C14 C19 1_555 1_555
N3 C15 1_555 1_555
C18 C20 1_555 1_555

#END
