
#######################################################################
#
#                 Cambridge Crystallographic Data Centre
#                                CCDC 
#
#######################################################################
#
# If this CIF has been generated from an entry in the Cambridge 
# Structural Database, then it will include bibliographic, chemical, 
# crystal, experimental, refinement or atomic coordinate data resulting 
# from the CCDC's data processing and validation procedures.
#
#######################################################################

data_QUCZEV
_symmetry_cell_setting           orthorhombic
_symmetry_space_group_name_H-M   'P 21 21 21'
_symmetry_Int_Tables_number      19
_space_group_name_Hall           'P 2ac 2ab'
loop_
_symmetry_equiv_pos_site_id
_symmetry_equiv_pos_as_xyz
1 x,y,z
2 1/2-x,-y,1/2+z
3 -x,1/2+y,1/2-z
4 1/2+x,1/2-y,-z
_cell_length_a                   12.8564(10)
_cell_length_b                   13.0151(5)
_cell_length_c                   23.0858(8)
_cell_angle_alpha                90
_cell_angle_beta                 90
_cell_angle_gamma                90
_cell_volume                     3862.89
loop_
_atom_site_label
_atom_site_type_symbol
_atom_site_fract_x
_atom_site_fract_y
_atom_site_fract_z
Cd1 Cd 0.371778(13) 0.149508(12) 0.856790(5)
O1 O 0.35076(14) 0.15514(15) 0.66031(8)
C1 C 0.34832(18) -0.14899(19) 0.53131(8)
H1 H 0.3669 -0.2021 0.5065
O2 O 0.49843(19) -0.29342(15) 0.56958(8)
O3 O 0.51300(16) -0.21780(15) 0.65295(7)
C2 C 0.4753(2) -0.22455(16) 0.60341(9)
N1 N 0.48268(16) 0.01978(15) 0.82265(7)
C3 C 0.39417(17) -0.14282(16) 0.58541(8)
O4 O 0.16464(17) -0.02105(15) 0.43784(7)
C4 C 0.3694(2) -0.06067(17) 0.62230(8)
H2 H 0.4011 -0.0552 0.6584
C5 C 0.2251(2) -0.0877(2) 0.45523(9)
C6 C 0.27624(19) -0.07848(17) 0.51373(8)
C7 C 0.27652(19) 0.09890(18) 0.64699(9)
O5 O 0.24688(15) -0.17056(15) 0.42667(7)
O6 O 0.28186(16) 0.25051(17) 0.78375(7)
C8 C 0.2503(2) 0.00168(19) 0.55008(10)
H3 H 0.2008 0.0494 0.5383
O7 O 0.24859(17) 0.09018(16) 0.78336(8)
C9 C 0.2975(2) 0.01240(17) 0.60470(8)
N2 N 0.1843(2) 0.1105(2) 0.66476(10)
N3 N 0.6015(2) -0.12046(17) 0.78407(10)
C10 C 0.23861(19) 0.1759(2) 0.76264(10)
C11 C 0.5343(2) 0.0574(2) 0.76744(10)
H4 H 0.5778 0.1165 0.7759
H5 H 0.4817 0.0782 0.7397
C12 C 0.4246(2) -0.0750(2) 0.81042(13)
H6 H 0.3716 -0.0609 0.7816
H7 H 0.3901 -0.0979 0.8455
C13 C 0.6013(3) -0.0300(2) 0.74166(12)
H8 H 0.5729 -0.0516 0.7047
H9 H 0.6719 -0.0060 0.7354
C14 C 0.4965(2) -0.1606(2) 0.78819(12)
H10 H 0.4949 -0.2185 0.8146
H11 H 0.4732 -0.1839 0.7504
C15 C 0.6365(3) -0.0866(3) 0.84472(14)
H12 H 0.6337 -0.1444 0.8712
H13 H 0.7075 -0.0617 0.8433
C16 C 0.5662(2) -0.0038(2) 0.86501(14)
H14 H 0.6067 0.0578 0.8720
H15 H 0.5348 -0.0244 0.9014
C17 C 0.1695(2) 0.1967(3) 0.70903(14)
H16 H 0.1796 0.2654 0.6926
C18 C 0.0959(2) 0.0458(2) 0.65487(13)
H17 H 0.1153 -0.0262 0.6543
H18 H 0.0611 0.0630 0.6189
C19 C 0.0519(2) 0.1738(2) 0.72631(13)
H19 H 0.0430 0.1800 0.7679
H20 H 0.0059 0.2227 0.7075
C20 C 0.0275(3) 0.0714(3) 0.70794(16)
H21 H -0.0455 0.0667 0.6977
H22 H 0.0412 0.0232 0.7390
Cd1A Cd 0.128222(13) -0.149508(12) 0.356790(5)
Cd1B Cd 0.628222(13) -0.350492(12) 0.643210(5)
O2B O 0.50157(19) 0.20658(15) 0.93042(8)
O3B O 0.48700(16) 0.28220(15) 0.84705(7)
O4A O 0.33536(17) 0.02105(15) 0.93784(7)
O5A O 0.25312(15) 0.17056(15) 0.92667(7)
loop_
_geom_bond_atom_site_label_1
_geom_bond_atom_site_label_2
_geom_bond_site_symmetry_1
_geom_bond_site_symmetry_2
Cd1 N1 1_555 1_555
O1 C7 1_555 1_555
C1 H1 1_555 1_555
O2 C2 1_555 1_555
O3 C2 1_555 1_555
C2 C3 1_555 1_555
N1 C11 1_555 1_555
C3 C1 1_555 1_555
O4 C5 1_555 1_555
C4 C3 1_555 1_555
H2 C4 1_555 1_555
C5 C6 1_555 1_555
C6 C1 1_555 1_555
C7 C9 1_555 1_555
O5 C5 1_555 1_555
O6 Cd1 1_555 1_555
C8 C6 1_555 1_555
H3 C8 1_555 1_555
O7 Cd1 1_555 1_555
C9 C4 1_555 1_555
N2 C7 1_555 1_555
N3 C13 1_555 1_555
C10 O6 1_555 1_555
C11 H4 1_555 1_555
H5 C11 1_555 1_555
C12 N1 1_555 1_555
H6 C12 1_555 1_555
H7 C12 1_555 1_555
C13 C11 1_555 1_555
H8 C13 1_555 1_555
H9 C13 1_555 1_555
C14 N3 1_555 1_555
H10 C14 1_555 1_555
H11 C14 1_555 1_555
C15 N3 1_555 1_555
H12 C15 1_555 1_555
H13 C15 1_555 1_555
C16 N1 1_555 1_555
H14 C16 1_555 1_555
H15 C16 1_555 1_555
C17 N2 1_555 1_555
H16 C17 1_555 1_555
C18 N2 1_555 1_555
H17 C18 1_555 1_555
H18 C18 1_555 1_555
C19 C17 1_555 1_555
H19 C19 1_555 1_555
H20 C19 1_555 1_555
C20 C18 1_555 1_555
H21 C20 1_555 1_555
H22 C20 1_555 1_555
Cd1A O4 1_555 1_555
Cd1B O2 1_555 1_555
O2B Cd1 1_555 1_555
O3B Cd1 1_555 1_555
O4A Cd1 1_555 1_555
O5A Cd1 1_555 1_555
O3 Cd1B 1_555 1_555
O5 Cd1A 1_555 1_555
C8 C9 1_555 1_555
O7 C10 1_555 1_555
C10 C17 1_555 1_555
C12 C14 1_555 1_555
C15 C16 1_555 1_555
C19 C20 1_555 1_555

#END
