
#######################################################################
#
#                 Cambridge Crystallographic Data Centre
#                                CCDC 
#
#######################################################################
#
# If this CIF has been generated from an entry in the Cambridge 
# Structural Database, then it will include bibliographic, chemical, 
# crystal, experimental, refinement or atomic coordinate data resulting 
# from the CCDC's data processing and validation procedures.
#
#######################################################################

data_QUCZAR
_symmetry_cell_setting           orthorhombic
_symmetry_space_group_name_H-M   'P b c a'
_symmetry_Int_Tables_number      61
_space_group_name_Hall           '-P 2ac 2ab'
loop_
_symmetry_equiv_pos_site_id
_symmetry_equiv_pos_as_xyz
1 x,y,z
2 1/2-x,-y,1/2+z
3 1/2+x,1/2-y,-z
4 -x,1/2+y,1/2-z
5 -x,-y,-z
6 1/2+x,y,1/2-z
7 1/2-x,1/2+y,z
8 x,1/2-y,1/2+z
_cell_length_a                   25.15(2)
_cell_length_b                   14.705(13)
_cell_length_c                   36.85(3)
_cell_angle_alpha                90
_cell_angle_beta                 90
_cell_angle_gamma                90
_cell_volume                     13628.3
loop_
_atom_site_label
_atom_site_type_symbol
_atom_site_fract_x
_atom_site_fract_y
_atom_site_fract_z
O2 O 0.6165(2) 0.9453(4) 0.68903(17)
O3 O 0.3292(5) 1.0772(7) 0.6024(2)
O4 O 0.3577(5) 0.7363(7) 0.9185(3)
O5 O 0.6172(7) 1.1386(12) 0.9135(6)
O6 O 0.2353(8) 0.8153(9) 0.6573(5)
O7 O 0.3076(8) 0.6925(11) 0.4667(6)
O8 O 0.2695(7) 1.3757(13) 0.9460(6)
Na1 Na 0.41818(13) 1.1998(2) 0.77406(9)
Na2 Na 0.34381(15) 0.8621(2) 0.82301(10)
Cl1 Cl 0.38401(13) 1.0289(2) 0.79894(9)
C1 C 0.4417(4) 0.8164(6) 0.7619(2)
C2 C 0.4755(4) 0.9005(5) 0.7150(2)
C3 C 0.5166(4) 0.9012(6) 0.7468(2)
C4 C 0.4911(3) 1.0507(6) 0.7346(2)
C5 C 0.5131(4) 0.8243(6) 0.8072(2)
H1 H 0.5515 0.8171 0.8036
H2 H 0.4989 0.7651 0.8146
C6 C 0.5593(4) 1.0343(6) 0.7820(2)
H3 H 0.5916 0.9971 0.7830
H4 H 0.5697 1.0962 0.7751
C7 C 0.4632(4) 0.8850(5) 0.8593(2)
C8 C 0.5363(4) 0.9659(6) 0.8429(3)
C9 C 0.5089(4) 1.0096(6) 0.8780(2)
C10 C 0.5148(4) 1.1136(6) 0.8288(3)
C11 C 0.4285(4) 0.9653(7) 0.9130(2)
H5 H 0.4143 0.9057 0.9199
H6 H 0.4489 0.9885 0.9337
C12 C 0.4768(4) 1.1720(6) 0.8866(2)
H7 H 0.4887 1.2311 0.8774
H8 H 0.4903 1.1656 0.9115
C13 C 0.3380(4) 0.9935(6) 0.8945(2)
C14 C 0.3867(4) 1.1166(7) 0.9112(2)
C15 C 0.3281(4) 1.1486(7) 0.9011(3)
C16 C 0.3925(4) 1.2202(6) 0.8617(3)
C17 C 0.2487(4) 1.0558(6) 0.8802(2)
H9 H 0.2360 0.9956 0.8876
H10 H 0.2281 1.1010 0.8938
C18 C 0.2974(4) 1.2608(6) 0.8504(2)
H11 H 0.2694 1.2786 0.8674
H12 H 0.3135 1.3166 0.8408
C19 C 0.2412(3) 0.9955(6) 0.8190(2)
C20 C 0.2272(4) 1.1518(6) 0.8239(3)
C21 C 0.2220(3) 1.1185(5) 0.7842(2)
C22 C 0.2930(4) 1.2192(5) 0.7864(2)
C23 C 0.2246(3) 0.9647(6) 0.7550(2)
H13 H 0.1961 0.9877 0.7393
H14 H 0.2138 0.9046 0.7638
C24 C 0.2658(4) 1.1745(6) 0.7256(2)
H15 H 0.2300 1.1701 0.7153
H16 H 0.2804 1.2340 0.7189
C25 C 0.3084(4) 0.8848(6) 0.7362(2)
C26 C 0.2850(4) 1.0129(6) 0.7023(2)
C27 C 0.3367(4) 0.9675(6) 0.6869(2)
C28 C 0.3522(4) 1.1212(6) 0.7047(2)
C29 C 0.3865(4) 0.8263(6) 0.7071(2)
H17 H 0.3963 0.8228 0.6814
H18 H 0.3732 0.7664 0.7144
C30 C 0.4301(3) 1.0332(6) 0.6809(2)
H19 H 0.4432 1.0934 0.6738
H20 H 0.4338 0.9926 0.6600
N1 N 0.4332(3) 0.8456(5) 0.72770(17)
N2 N 0.4899(3) 0.8488(5) 0.77391(18)
N3 N 0.4631(3) 0.9981(4) 0.7114(2)
N4 N 0.5234(3) 0.9972(5) 0.7545(2)
N5 N 0.5045(3) 0.8890(4) 0.83688(19)
N6 N 0.4643(3) 0.9531(5) 0.88283(19)
N7 N 0.5354(3) 1.0361(4) 0.81629(19)
N8 N 0.4994(3) 1.1007(5) 0.8643(2)
N9 N 0.3859(3) 1.0239(5) 0.9066(2)
N10 N 0.3035(3) 1.0639(5) 0.8906(2)
N11 N 0.4188(3) 1.1704(5) 0.8874(2)
N12 N 0.3386(3) 1.2084(5) 0.8702(2)
N13 N 0.2378(3) 1.0671(4) 0.8428(2)
N14 N 0.2301(3) 1.0237(5) 0.7851(2)
N15 N 0.2743(3) 1.2112(5) 0.8214(2)
N16 N 0.2624(3) 1.1688(5) 0.76480(18)
N17 N 0.2731(3) 0.9550(5) 0.7335(2)
N18 N 0.3444(3) 0.8904(4) 0.71083(17)
N19 N 0.2987(3) 1.1041(5) 0.7099(2)
N20 N 0.3732(3) 1.0400(5) 0.69094(18)
O9 O 0.4135(2) 0.7682(4) 0.77883(15)
O10 O 0.4282(3) 0.8266(4) 0.85861(17)
O11 O 0.3262(3) 0.9144(4) 0.89048(18)
O12 O 0.2533(3) 0.9183(4) 0.82729(17)
O13 O 0.3051(2) 0.8274(4) 0.76074(16)
O14 O 0.4891(3) 1.1346(4) 0.73522(18)
O15 O 0.5100(3) 1.1870(4) 0.81311(17)
O16 O 0.4089(3) 1.2680(4) 0.83838(18)
O17 O 0.3289(3) 1.2679(4) 0.77698(18)
O18 O 0.3767(3) 1.1900(4) 0.70942(18)
O19 O 0.4969(2) 0.8723(4) 0.68151(16)
H21 H 0.4731 0.8725 0.6659
O20 O 0.5649(2) 0.8585(4) 0.73964(16)
O21 O 0.5895(3) 0.9366(4) 0.8490(2)
H22 H 0.6088 0.9815 0.8527
O22 O 0.5430(3) 1.0160(4) 0.90788(18)
H23 H 0.5489 0.9643 0.9160
O23 O 0.4004(3) 1.1368(5) 0.94712(15)
H24 H 0.4000 1.1927 0.9501
O24 O 0.3012(3) 1.1936(5) 0.92790(18)
H25 H 0.2995 1.1610 0.9462
O25 O 0.1865(2) 1.2009(4) 0.83797(15)
O26 O 0.1709(2) 1.1357(4) 0.76974(16)
H26 H 0.1657 1.1914 0.7690
O27 O 0.2414(3) 1.0137(4) 0.67901(17)
H27 H 0.2353 0.9612 0.6718
O28 O 0.3343(3) 0.9364(4) 0.65182(16)
H28 H 0.3268 0.9792 0.6381
Na1C Na 0.58182(13) 0.6998(2) 0.72594(9)
Na2F Na 0.15619(15) 1.3621(2) 0.82301(10)
O20C O 0.4351(2) 1.3585(4) 0.76036(16)
O25F O 0.3135(2) 0.7009(4) 0.83797(15)
O29 O 0.6272(4) 0.9279(5) 0.6061(2)
O30 O 0.4267(3) 0.8332(5) 0.61330(19)
O31 O 0.3029(3) 0.9032(7) 0.5052(2)
O32 O 0.4601(3) 0.7895(5) 0.5446(2)
O33 O 0.4512(3) 1.0093(5) 0.5923(2)
O34 O 0.3886(3) 0.9131(6) 0.5518(2)
O35 O 0.5539(3) 1.0535(5) 0.5896(3)
O36 O 0.5266(3) 0.8833(4) 0.5854(2)
O37 O 0.4831(4) 1.1708(5) 0.62320(19)
O38 O 0.3992(4) 0.8254(6) 0.49083(19)
O39 O 0.3548(4) 1.2464(6) 0.5165(2)
O40 O 0.5265(4) 1.2033(7) 0.5540(2)
O41 O 0.5399(3) 0.7571(8) 0.4982(2)
O42 O 0.4483(4) 0.6592(5) 0.4915(2)
O43 O 0.4260(3) 1.1565(7) 0.5591(2)
O44 O 0.6278(5) 1.0238(6) 0.5440(2)
O45 O 0.3593(5) 1.0618(5) 0.5153(2)
O46 O 0.3952(5) 1.1464(5) 0.4598(2)
O47 O 0.4952(5) 1.0086(7) 0.4577(3)
O48 O 0.5374(6) 1.0729(9) 0.4852(3)
O49 O 0.5143(5) 0.8998(7) 0.4809(3)
O50 O 0.4388(6) 1.0282(9) 0.4877(3)
W1 W 0.45094(2) 0.88798(3) 0.576889(10)
W2 W 0.48856(2) 1.11808(3) 0.582369(11)
W3 W 0.58613(2) 0.94762(3) 0.572495(11)
W4 W 0.46528(2) 0.76846(3) 0.495005(13)
W5 W 0.40088(2) 1.16574(3) 0.510632(13)
W6 W 0.36615(2) 0.93547(4) 0.503823(13)
Si1 Si 0.5000 1.0000 0.5000
O47D O 0.5048(5) 0.9914(7) 0.5423(3)
O48D O 0.4626(6) 0.9271(9) 0.5148(3)
O49D O 0.4857(5) 1.1002(7) 0.5191(3)
O50D O 0.5612(6) 0.9718(9) 0.5123(3)
O29D O 0.3728(4) 1.0721(5) 0.3939(2)
O30D O 0.5733(3) 1.1668(5) 0.38670(19)
O31D O 0.6971(3) 1.0968(7) 0.4948(2)
O32D O 0.5399(3) 1.2105(5) 0.4554(2)
O33D O 0.5488(3) 0.9907(5) 0.4077(2)
O34D O 0.6114(3) 1.0869(6) 0.4482(2)
O35D O 0.4461(3) 0.9465(5) 0.4104(3)
O36D O 0.4734(3) 1.1167(4) 0.4146(2)
O37D O 0.5169(4) 0.8292(5) 0.37680(19)
O38D O 0.6008(4) 1.1746(6) 0.50917(19)
O39D O 0.6452(4) 0.7536(6) 0.4835(2)
O40D O 0.4735(4) 0.7967(7) 0.4460(2)
O41D O 0.4601(3) 1.2429(8) 0.5018(2)
O42D O 0.5517(4) 1.3408(5) 0.5085(2)
O43D O 0.5740(3) 0.8435(7) 0.4409(2)
O44D O 0.3722(5) 0.9762(6) 0.4560(2)
O45D O 0.6407(5) 0.9382(5) 0.4847(2)
O46D O 0.6048(5) 0.8536(5) 0.5402(2)
W1D W 0.54906(2) 1.11202(3) 0.423111(10)
W2D W 0.51144(2) 0.88192(3) 0.417631(11)
W3D W 0.41387(2) 1.05238(3) 0.427505(11)
W4D W 0.53472(2) 1.23154(3) 0.504995(13)
W5D W 0.59912(2) 0.83426(3) 0.489368(13)
W6D W 0.63385(2) 1.06453(4) 0.496177(13)
O1 O 0.0885(3) 1.1237(4) 0.83178(17)
loop_
_geom_bond_atom_site_label_1
_geom_bond_atom_site_label_2
_geom_bond_site_symmetry_1
_geom_bond_site_symmetry_2
Na1 Cl1 1_555 1_555
Na2 Cl1 1_555 1_555
C1 N1 1_555 1_555
C2 C3 1_555 1_555
C3 N2 1_555 1_555
C4 N3 1_555 1_555
C5 H1 1_555 1_555
H2 C5 1_555 1_555
C6 H3 1_555 1_555
H4 C6 1_555 1_555
C7 N5 1_555 1_555
C8 C9 1_555 1_555
C9 N6 1_555 1_555
C10 N7 1_555 1_555
C11 H5 1_555 1_555
H6 C11 1_555 1_555
C12 H7 1_555 1_555
H8 C12 1_555 1_555
C13 N9 1_555 1_555
C14 C15 1_555 1_555
C15 N10 1_555 1_555
C16 N11 1_555 1_555
C17 H9 1_555 1_555
H10 C17 1_555 1_555
C18 H11 1_555 1_555
H12 C18 1_555 1_555
C19 N13 1_555 1_555
C20 C21 1_555 1_555
C21 N14 1_555 1_555
C22 N15 1_555 1_555
C23 H13 1_555 1_555
H14 C23 1_555 1_555
C24 H15 1_555 1_555
H16 C24 1_555 1_555
C25 N17 1_555 1_555
C26 C27 1_555 1_555
C27 N18 1_555 1_555
C28 N19 1_555 1_555
C29 H17 1_555 1_555
H18 C29 1_555 1_555
C30 H19 1_555 1_555
H20 C30 1_555 1_555
N1 C2 1_555 1_555
N2 C1 1_555 1_555
N3 C2 1_555 1_555
N4 C3 1_555 1_555
N5 C5 1_555 1_555
N6 C7 1_555 1_555
N7 C6 1_555 1_555
N8 C9 1_555 1_555
N9 C11 1_555 1_555
N10 C13 1_555 1_555
N11 C12 1_555 1_555
N12 C15 1_555 1_555
N13 C17 1_555 1_555
N14 C19 1_555 1_555
N15 C18 1_555 1_555
N16 C21 1_555 1_555
N17 C23 1_555 1_555
N18 C25 1_555 1_555
N19 C24 1_555 1_555
N20 C27 1_555 1_555
O9 Na2 1_555 1_555
O10 Na2 1_555 1_555
O11 Na2 1_555 1_555
O12 Na2 1_555 1_555
O13 Na2 1_555 1_555
O14 Na1 1_555 1_555
O15 Na1 1_555 1_555
O16 Na1 1_555 1_555
O17 Na1 1_555 1_555
O18 Na1 1_555 1_555
O19 C2 1_555 1_555
H21 O19 1_555 1_555
O20 C3 1_555 1_555
O21 C8 1_555 1_555
H22 O21 1_555 1_555
O22 C9 1_555 1_555
H23 O22 1_555 1_555
O23 C14 1_555 1_555
H24 O23 1_555 1_555
O24 C15 1_555 1_555
H25 O24 1_555 1_555
O25 C20 1_555 1_555
O26 C21 1_555 1_555
H26 O26 1_555 1_555
O27 C26 1_555 1_555
H27 O27 1_555 1_555
O28 C27 1_555 1_555
H28 O28 1_555 1_555
O29 W3 1_555 1_555
O30 W1 1_555 1_555
O31 W6 1_555 1_555
O32 W1 1_555 1_555
O33 W1 1_555 1_555
O34 W1 1_555 1_555
O35 W2 1_555 1_555
O36 W1 1_555 1_555
O37 W2 1_555 1_555
O38 W4 1_555 1_555
O39 W5 1_555 1_555
O40 W2 1_555 1_555
O41 W4 1_555 1_555
O42 W4 1_555 1_555
O43 W2 1_555 1_555
O44 W3 1_555 1_555
O45 W5 1_555 1_555
O46 W5 1_555 1_555
O47 O48 1_555 1_555
O48 Si1 1_555 1_555
O49 W4 1_555 1_555
O50 W5 1_555 1_555
W1 O47D 1_555 1_555
W2 O33 1_555 1_555
W3 O35 1_555 1_555
W4 O32 1_555 1_555
W5 O43 1_555 1_555
W6 O34 1_555 1_555
Si1 O47 1_555 1_555
Na1C O20 1_555 1_555
Na2F O25 1_555 1_555
O20C Na1 1_555 1_555
O25F Na2 1_555 1_555
O47D W2 1_555 1_555
O48D W1 1_555 1_555
O49D W2 1_555 1_555
O50D W3 1_555 1_555
O29D W3D 1_555 1_555
O30D W1D 1_555 1_555
O31D W6D 1_555 1_555
O32D W1D 1_555 1_555
O33D W1D 1_555 1_555
O34D W1D 1_555 1_555
O35D W2D 1_555 1_555
O36D W1D 1_555 1_555
O37D W2D 1_555 1_555
O38D W4D 1_555 1_555
O39D W5D 1_555 1_555
O40D W4 1_555 1_555
O41D W5 1_555 1_555
O42D W4D 1_555 1_555
O43D W2D 1_555 1_555
O44D W6 1_555 1_555
O45D W5D 1_555 1_555
O46D W3 1_555 1_555
W1D O47 1_555 1_555
W2D O47 1_555 1_555
W3D O46 1_555 1_555
W4D O40 1_555 1_555
W5D O41 1_555 1_555
W6D O44 1_555 1_555
C1 O9 1_555 1_555
C4 N4 1_555 1_555
C4 O14 1_555 1_555
C5 N2 1_555 1_555
C6 N4 1_555 1_555
C7 O10 1_555 1_555
C8 N5 1_555 1_555
C8 N7 1_555 1_555
C10 N8 1_555 1_555
C10 O15 1_555 1_555
C11 N6 1_555 1_555
C12 N8 1_555 1_555
C13 O11 1_555 1_555
C14 N9 1_555 1_555
C14 N11 1_555 1_555
C16 N12 1_555 1_555
C16 O16 1_555 1_555
C17 N10 1_555 1_555
C18 N12 1_555 1_555
C19 O12 1_555 1_555
C20 N13 1_555 1_555
C20 N15 1_555 1_555
C22 N16 1_555 1_555
C22 O17 1_555 1_555
C23 N14 1_555 1_555
C24 N16 1_555 1_555
C25 O13 1_555 1_555
C26 N17 1_555 1_555
C26 N19 1_555 1_555
C28 N20 1_555 1_555
C28 O18 1_555 1_555
C29 N1 1_555 1_555
C29 N18 1_555 1_555
C30 N3 1_555 1_555
C30 N20 1_555 1_555
O36 W3 1_555 1_555
O38 W6 1_555 1_555
O45 W6 1_555 1_555
O47 W3D 1_555 1_555
O48 W1D 1_555 1_555
O48 W4D 1_555 1_555
O48 W6D 1_555 1_555
O49 Si1 1_555 1_555
O49 W2D 1_555 1_555
O49 W5D 1_555 1_555
O50 W6 1_555 1_555
O50 Si1 1_555 1_555
O50 W3D 1_555 1_555
W3 O47D 1_555 1_555
W4 O48D 1_555 1_555
W5 O49D 1_555 1_555
W6 O48D 1_555 1_555
Si1 O47D 1_555 1_555
Si1 O48D 1_555 1_555
Si1 O49D 1_555 1_555
Si1 O50D 1_555 1_555
O47D O48D 1_555 1_555
O49D W4D 1_555 1_555
O50D W5D 1_555 1_555
O50D W6D 1_555 1_555
O32D W4D 1_555 1_555
O33D W2D 1_555 1_555
O34D W6D 1_555 1_555
O35D W3D 1_555 1_555
O36D W3D 1_555 1_555
O38D W6D 1_555 1_555
O40D W2D 1_555 1_555
O41D W4D 1_555 1_555
O43D W5D 1_555 1_555
O44D W3D 1_555 1_555
O45D W6D 1_555 1_555
O46D W5D 1_555 1_555

#END
