
#######################################################################
#
#                 Cambridge Crystallographic Data Centre
#                                CCDC 
#
#######################################################################
#
# If this CIF has been generated from an entry in the Cambridge 
# Structural Database, then it will include bibliographic, chemical, 
# crystal, experimental, refinement or atomic coordinate data resulting 
# from the CCDC's data processing and validation procedures.
#
#######################################################################

data_QUDCOI
_symmetry_cell_setting           triclinic
_symmetry_space_group_name_H-M   'P -1'
_symmetry_Int_Tables_number      2
_space_group_name_Hall           '-P 1'
loop_
_symmetry_equiv_pos_site_id
_symmetry_equiv_pos_as_xyz
1 x,y,z
2 -x,-y,-z
_cell_length_a                   9.814(5)
_cell_length_b                   10.619(5)
_cell_length_c                   15.246(5)
_cell_angle_alpha                103.273(5)
_cell_angle_beta                 95.276(5)
_cell_angle_gamma                98.804(5)
_cell_volume                     1514.8
loop_
_atom_site_label
_atom_site_type_symbol
_atom_site_fract_x
_atom_site_fract_y
_atom_site_fract_z
Sn1 Sn 1.0000 1.0000 1.0000
Sn2 Sn 0.5000 0.0000 0.5000
C1 C 0.7029(5) 0.3272(5) 0.8377(3)
C2 C 0.7684(5) 0.2242(5) 0.8000(3)
H1 H 0.8629 0.2289 0.8166
N1 N 0.9320(4) 0.6941(4) 0.9942(3)
O1 O 1.0033(4) 0.8125(3) 1.0427(2)
C3 C 0.5225(7) 0.2105(6) 0.5215(5)
H2 H 0.4778 0.2290 0.4676
H3 H 0.4725 0.2430 0.5715
O2 O 0.4893(4) 0.0041(4) 0.6466(2)
N2 N 0.5579(4) 0.1081(4) 0.7126(3)
C4 C 0.7323(5) 0.5317(5) 0.9650(3)
H4 H 0.6440 0.5028 0.9783
C5 C 0.5592(5) 0.3137(5) 0.8135(4)
H5 H 0.5125 0.3798 0.8397
O3 O 0.7334(4) -0.0013(5) 0.5203(3)
C6 C 0.9333(6) 0.9054(6) 0.8615(4)
H6 H 0.8865 0.8170 0.8589
H7 H 0.8637 0.9508 0.8399
C7 C 1.0319(8) 0.8940(8) 0.7972(5)
H8 H 1.0943 0.8382 0.8136
H9 H 1.0872 0.9806 0.8046
O4 O 1.2271(5) 1.0017(6) 0.9854(4)
C8 C 0.9189(5) 0.4976(5) 0.8809(4)
H10 H 0.9593 0.4456 0.8365
C9 C 0.7872(5) 0.4540(5) 0.8970(3)
C10 C 0.9924(5) 0.6190(5) 0.9304(4)
H11 H 1.0821 0.6485 0.9199
C11 C 0.9772(9) 0.8413(10) 0.6990(5)
H12 H 0.9129 0.7596 0.6920
H13 H 0.9248 0.9031 0.6801
C12 C 0.4869(5) 0.2038(6) 0.7514(4)
H14 H 0.3913 0.1942 0.7357
C13 C 0.6918(5) 0.1142(5) 0.7374(3)
H15 H 0.7349 0.0446 0.7127
C14 C 0.6692(9) 0.2870(8) 0.5420(7)
H16 H 0.7219 0.2536 0.4938
H17 H 0.7134 0.2750 0.5983
C15 C 0.8072(5) 0.6524(5) 1.0137(4)
H18 H 0.7700 0.7041 1.0601
C16 C 1.0804(14) 0.8170(12) 0.6385(6)
H19 H 1.1512 0.8940 0.6497
H20 H 1.0370 0.7963 0.5766
H21 H 1.1216 0.7445 0.6489
C19 C 0.6708(12) 0.4367(11) 0.5507(8)
H22 H 0.7634 0.4775 0.5439
H23 H 0.6071 0.4461 0.5010
C20 C 0.6362(14) 0.5017(14) 0.6289(10)
H24 H 0.5563 0.4507 0.6440
H25 H 0.6147 0.5847 0.6226
H26 H 0.7126 0.5164 0.6763
H27 H 1.254(7) 0.935(7) 0.966(4)
H28 H 1.292(6) 1.060(6) 0.995(4)
H29 H 0.772(6) -0.054(5) 0.491(4)
H30 H 0.760(8) 0.074(3) 0.545(5)
Sn1_2 Sn 0.0000 -1.0000 0.0000
C1A C 0.2971(5) -0.3272(5) 0.1623(3)
C2A C 0.2316(5) -0.2242(5) 0.2000(3)
H1A H 0.1371 -0.2289 0.1834
N1A N 0.0680(4) -0.6941(4) 0.0058(3)
O1A O -0.0033(4) -0.8125(3) -0.0427(2)
O1A_2 O 0.9967(4) 1.1875(3) 0.9573(2)
C3A C 0.4775(7) -0.2105(6) 0.4785(5)
H2A H 0.5222 -0.2290 0.5324
H3A H 0.5275 -0.2430 0.4285
O2A O 0.5107(4) -0.0041(4) 0.3534(2)
N2A N 0.4421(4) -0.1081(4) 0.2874(3)
C4A C 0.2677(5) -0.5317(5) 0.0350(3)
H4A H 0.3560 -0.5028 0.0217
C5A C 0.4408(5) -0.3137(5) 0.1865(4)
H5A H 0.4875 -0.3798 0.1603
O3A O 0.2666(4) 0.0013(5) 0.4797(3)
C6A C 1.0667(6) 1.0946(6) 1.1385(4)
H6A H 1.1135 1.1830 1.1411
H7A H 1.1363 1.0492 1.1601
C7A C 0.9681(8) 1.1060(8) 1.2028(5)
H8A H 0.9057 1.1618 1.1864
H9A H 0.9128 1.0194 1.1954
O4A O 0.7729(5) 0.9983(6) 1.0146(4)
C8A C 0.0811(5) -0.4976(5) 0.1191(4)
H10A H 0.0407 -0.4456 0.1635
C9A C 0.2128(5) -0.4540(5) 0.1030(3)
C10A C 0.0076(5) -0.6190(5) 0.0696(4)
H11A H -0.0821 -0.6485 0.0801
C11A C 1.0228(9) 1.1587(10) 1.3010(5)
H12A H 1.0871 1.2404 1.3080
H13A H 1.0752 1.0969 1.3199
C12A C 0.5131(5) -0.2038(6) 0.2486(4)
H14A H 0.6087 -0.1942 0.2643
C13A C 0.3082(5) -0.1142(5) 0.2626(3)
H15A H 0.2651 -0.0446 0.2873
C14A C 0.3308(9) -0.2870(8) 0.4580(7)
H16A H 0.2781 -0.2536 0.5062
H17A H 0.2866 -0.2750 0.4017
C15A C 0.1928(5) -0.6524(5) -0.0137(4)
H18A H 0.2300 -0.7041 -0.0601
C16A C 0.9196(14) 1.1830(12) 1.3615(6)
H19A H 0.8488 1.1060 1.3503
H20A H 0.9630 1.2037 1.4234
H21A H 0.8784 1.2555 1.3511
C19A C 0.3292(12) -0.4367(11) 0.4493(8)
H22A H 0.2366 -0.4775 0.4561
H23A H 0.3929 -0.4461 0.4990
C20A C 0.3638(14) -0.5017(14) 0.3711(10)
H24A H 0.4437 -0.4507 0.3560
H25A H 0.3853 -0.5847 0.3774
H26A H 0.2874 -0.5164 0.3237
H27A H 0.746(7) 1.065(7) 1.034(4)
H28A H 0.708(6) 0.940(6) 1.005(4)
H29A H 0.228(6) 0.054(5) 0.509(4)
H30A H 0.240(8) -0.074(3) 0.455(5)
S1 S 0.56074(14) 0.27006(14) 0.08466(12)
O6 O 0.6915(4) 0.2346(5) 0.0642(4)
O8 O 0.4441(5) 0.2016(5) 0.0183(4)
O9 O 0.5656(6) 0.4078(5) 0.1127(5)
F1 F 0.6223(7) 0.2634(7) 0.2528(4)
F2 F 0.5270(7) 0.0787(6) 0.1626(4)
F3 F 0.4098(6) 0.2245(8) 0.2089(4)
C17 C 0.5336(10) 0.2071(9) 0.1822(6)
S2 S 0.90762(15) 0.76732(17) 0.33633(11)
O5 O 0.8842(7) 0.7406(6) 0.2397(4)
O7 O 1.0453(4) 0.8166(6) 0.3758(4)
O10 O 0.8094(6) 0.8312(7) 0.3807(4)
F4 F 0.7377(9) 0.5545(7) 0.3299(6)
F5 F 0.8991(10) 0.6016(8) 0.4382(5)
F6 F 0.9355(11) 0.5240(7) 0.3070(6)
C18 C 0.8772(13) 0.6006(11) 0.3565(7)
loop_
_geom_bond_atom_site_label_1
_geom_bond_atom_site_label_2
_geom_bond_site_symmetry_1
_geom_bond_site_symmetry_2
Sn1 O1 1_555 1_555
Sn2 C3 1_555 1_555
C1 C2 1_555 1_555
C2 H1 1_555 1_555
N1 O1 1_555 1_555
C3 H2 1_555 1_555
H3 C3 1_555 1_555
O2 Sn2 1_555 1_555
N2 O2 1_555 1_555
C4 H4 1_555 1_555
C5 C1 1_555 1_555
H5 C5 1_555 1_555
O3 Sn2 1_555 1_555
C6 Sn1 1_555 1_555
H6 C6 1_555 1_555
H7 C6 1_555 1_555
C7 C6 1_555 1_555
H8 C7 1_555 1_555
H9 C7 1_555 1_555
O4 Sn1 1_555 1_555
C8 H10 1_555 1_555
C9 C1 1_555 1_555
C10 N1 1_555 1_555
H11 C10 1_555 1_555
C11 C7 1_555 1_555
H12 C11 1_555 1_555
H13 C11 1_555 1_555
C12 N2 1_555 1_555
H14 C12 1_555 1_555
C13 C2 1_555 1_555
H15 C13 1_555 1_555
C14 C3 1_555 1_555
H16 C14 1_555 1_555
H17 C14 1_555 1_555
C15 N1 1_555 1_555
H18 C15 1_555 1_555
C16 C11 1_555 1_555
H19 C16 1_555 1_555
H20 C16 1_555 1_555
H21 C16 1_555 1_555
S1 O6 1_555 1_555
S2 O5 1_555 1_555
O7 S2 1_555 1_555
O8 S1 1_555 1_555
O9 S1 1_555 1_555
O10 S2 1_555 1_555
F1 C17 1_555 1_555
F2 C17 1_555 1_555
F3 C17 1_555 1_555
F4 C18 1_555 1_555
F5 C18 1_555 1_555
F6 C18 1_555 1_555
C17 S1 1_555 1_555
C18 S2 1_555 1_555
C19 C14 1_555 1_555
H22 C19 1_555 1_555
H23 C19 1_555 1_555
C20 C19 1_555 1_555
H24 C20 1_555 1_555
H25 C20 1_555 1_555
H26 C20 1_555 1_555
H27 O4 1_555 1_555
H28 O4 1_555 1_555
H29 O3 1_555 1_555
H30 O3 1_555 1_555
Sn1_2 O1A 1_555 1_555
C1A C2A 1_555 1_555
C2A H1A 1_555 1_555
N1A O1A 1_555 1_555
O1A_2 Sn1 1_555 1_555
C3A Sn2 1_555 1_555
H2A C3A 1_555 1_555
H3A C3A 1_555 1_555
O2A Sn2 1_555 1_555
N2A O2A 1_555 1_555
C4A H4A 1_555 1_555
C5A C1A 1_555 1_555
H5A C5A 1_555 1_555
O3A Sn2 1_555 1_555
C6A Sn1 1_555 1_555
H6A C6A 1_555 1_555
H7A C6A 1_555 1_555
C7A C6A 1_555 1_555
H8A C7A 1_555 1_555
H9A C7A 1_555 1_555
O4A Sn1 1_555 1_555
C8A H10A 1_555 1_555
C9A C1A 1_555 1_555
C10A N1A 1_555 1_555
H11A C10A 1_555 1_555
C11A C7A 1_555 1_555
H12A C11A 1_555 1_555
H13A C11A 1_555 1_555
C12A N2A 1_555 1_555
H14A C12A 1_555 1_555
C13A C2A 1_555 1_555
H15A C13A 1_555 1_555
C14A C3A 1_555 1_555
H16A C14A 1_555 1_555
H17A C14A 1_555 1_555
C15A N1A 1_555 1_555
H18A C15A 1_555 1_555
C16A C11A 1_555 1_555
H19A C16A 1_555 1_555
H20A C16A 1_555 1_555
H21A C16A 1_555 1_555
C19A C14A 1_555 1_555
H22A C19A 1_555 1_555
H23A C19A 1_555 1_555
C20A C19A 1_555 1_555
H24A C20A 1_555 1_555
H25A C20A 1_555 1_555
H26A C20A 1_555 1_555
H27A O4A 1_555 1_555
H28A O4A 1_555 1_555
H29A O3A 1_555 1_555
H30A O3A 1_555 1_555
N2 C13 1_555 1_555
C4 C9 1_555 1_555
C4 C15 1_555 1_555
C5 C12 1_555 1_555
C8 C9 1_555 1_555
C8 C10 1_555 1_555
N2A C13A 1_555 1_555
C4A C9A 1_555 1_555
C4A C15A 1_555 1_555
C5A C12A 1_555 1_555
C8A C9A 1_555 1_555
C8A C10A 1_555 1_555

#END
