
#######################################################################
#
#                 Cambridge Crystallographic Data Centre
#                                CCDC 
#
#######################################################################
#
# If this CIF has been generated from an entry in the Cambridge 
# Structural Database, then it will include bibliographic, chemical, 
# crystal, experimental, refinement or atomic coordinate data resulting 
# from the CCDC's data processing and validation procedures.
#
#######################################################################

data_QUDJOP
_symmetry_cell_setting           monoclinic
_symmetry_space_group_name_H-M   'P 21/c'
_symmetry_Int_Tables_number      14
_space_group_name_Hall           '-P 2ybc'
loop_
_symmetry_equiv_pos_site_id
_symmetry_equiv_pos_as_xyz
1 x,y,z
2 -x,1/2+y,1/2-z
3 -x,-y,-z
4 x,1/2-y,1/2+z
_cell_length_a                   10.101(2)
_cell_length_b                   21.058(4)
_cell_length_c                   12.215(5)
_cell_angle_alpha                90
_cell_angle_beta                 126.511(19)
_cell_angle_gamma                90
_cell_volume                     2088.3
loop_
_atom_site_label
_atom_site_type_symbol
_atom_site_fract_x
_atom_site_fract_y
_atom_site_fract_z
C1 C 0.5371(4) 0.87736(12) 0.5754(3)
C2 C 0.6546(3) 0.90309(12) 0.7171(4)
C3 C 0.7464(4) 0.95541(12) 0.7350(4)
H1 H 0.7241 0.9764 0.6588
C4 C 0.8737(3) 0.97831(12) 0.8658(3)
C5 C 0.9071(3) 0.94619(12) 0.9838(4)
C6 C 0.8080(3) 0.89224(12) 0.9621(4)
H2 H 0.8275 0.8709 1.0371
C7 C 0.6869(3) 0.87135(12) 0.8358(4)
C8 C 0.9693(3) 1.03194(13) 0.8858(4)
H3 H 0.9495 1.0531 0.8106
C9 C 0.5760(3) 0.81771(12) 0.8166(3)
C10 C 0.4303(4) 0.90852(13) 0.2350(4)
H4 H 0.3929 0.9222 0.2846
C11 C 0.4392(4) 0.95179(13) 0.1552(4)
H5 H 0.4098 0.9940 0.1519
C12 C 0.4928(4) 0.93116(13) 0.0799(4)
C13 C 0.5360(4) 0.86849(13) 0.0880(4)
H6 H 0.5712 0.8537 0.0376
C14 C 0.5266(4) 0.82777(13) 0.1717(4)
H7 H 0.5581 0.7856 0.1782
C15 C 0.2212(4) 0.76680(13) 0.4017(4)
H8 H 0.2998 0.7833 0.4878
C16 C -0.0522(6) 0.7270(3) 0.2390(5)
H9 H -0.0121 0.7215 0.1855
H10 H -0.1393 0.7579 0.1963
H11 H -0.0934 0.6872 0.2458
C17 C 0.0477(5) 0.75189(17) 0.4744(4)
H12 H 0.1401 0.7712 0.5559
H13 H 0.0316 0.7098 0.4948
H14 H -0.0493 0.7768 0.4397
N1 N 0.4733(3) 0.84730(11) 0.2441(3)
N2 N 0.5051(3) 0.97139(11) -0.0087(3)
N3 N 0.0793(3) 0.74850(12) 0.3727(3)
O1 O 0.5822(2) 0.82286(9) 0.5581(2)
O2 O 0.4171(3) 0.90812(9) 0.4850(3)
O3 O 0.4353(2) 0.81321(9) 0.7106(3)
O4 O 0.6357(3) 0.77983(8) 0.9180(3)
O5 O 0.2560(3) 0.76311(9) 0.3188(3)
Zn1 Zn 0.47737(4) 0.787347(13) 0.37689(4)
C1B C 1.4629(4) 1.12264(12) 1.4246(3)
C2B C 1.3454(3) 1.09691(12) 1.2829(4)
C3B C 1.2536(4) 1.04459(12) 1.2650(4)
H1B H 1.2759 1.0236 1.3412
C4B C 1.1263(3) 1.02169(12) 1.1342(3)
C5B C 1.0929(3) 1.05381(12) 1.0162(4)
C6B C 1.1920(3) 1.10776(12) 1.0379(4)
H2B H 1.1725 1.1291 0.9629
C7B C 1.3131(3) 1.12865(12) 1.1642(4)
C8B C 1.0307(3) 0.96806(13) 1.1142(4)
H3B H 1.0505 0.9469 1.1894
C9B C 1.4240(3) 1.18229(12) 1.1834(3)
C10B C 0.5697(4) 1.09148(13) -0.2350(4)
H4B H 0.6071 1.0778 -0.2846
C11B C 0.5608(4) 1.04821(13) -0.1552(4)
H5B H 0.5902 1.0060 -0.1519
C12B C 0.5072(4) 1.06884(13) -0.0799(4)
C13B C 0.4640(4) 1.13151(13) -0.0880(4)
H6B H 0.4288 1.1463 -0.0376
C14B C 0.4734(4) 1.17223(13) -0.1717(4)
H7B H 0.4419 1.2144 -0.1782
C15B C 0.7788(4) 1.23320(13) -0.4017(4)
H8B H 0.7002 1.2167 -0.4878
C16B C 1.0522(6) 1.2730(3) -0.2390(5)
H9B H 1.0121 1.2785 -0.1855
H10B H 1.1393 1.2421 -0.1963
H11B H 1.0934 1.3128 -0.2458
C17B C 0.9523(5) 1.24811(17) -0.4744(4)
H12B H 0.8599 1.2288 -0.5559
H13B H 0.9684 1.2902 -0.4948
H14B H 1.0493 1.2232 -0.4397
N1B N 0.5267(3) 1.15270(11) -0.2441(3)
N2B N 0.4949(3) 1.02861(11) 0.0087(3)
N3B N 0.9207(3) 1.25150(12) -0.3727(3)
O1B O 1.4178(2) 1.17714(9) 1.4419(2)
O1B_2 O 0.4178(2) 1.17714(9) -0.5581(2)
O2B O 1.5829(3) 1.09188(9) 1.5150(3)
O3B O 1.5647(2) 1.18679(9) 1.2894(3)
O4B O 1.3643(3) 1.22017(8) 1.0820(3)
O4C O 0.6357(3) 0.72017(8) 0.4180(3)
O4A O 0.3643(3) 1.27983(8) -0.4180(3)
O5B O 0.7440(3) 1.23689(9) -0.3188(3)
Zn1B Zn 0.52263(4) 1.212653(13) -0.37689(4)
Zn1C Zn 0.47737(4) 0.712653(13) 0.87689(4)
Zn1B_2 Zn 1.52263(4) 1.212653(13) 1.62311(4)
Zn1A Zn 1.52263(4) 1.287347(13) 1.12311(4)
C18 C 0.0521(5) 0.90982(17) 0.4348(6)
H15 H 0.1578 0.9107 0.4576
C19 C 0.1782(6) 0.9281(2) 0.6764(5)
H16 H 0.2774 0.9277 0.6824
H17 H 0.1824 0.8947 0.7319
H18 H 0.1682 0.9683 0.7080
C20 C -0.1249(5) 0.91861(19) 0.5058(5)
H19 H -0.1452 0.9591 0.5294
H20 H -0.1307 0.8858 0.5574
H21 H -0.2065 0.9109 0.4103
N4 N 0.0375(4) 0.91863(14) 0.5362(4)
O6 O -0.0613(4) 0.90083(15) 0.3157(4)
loop_
_geom_bond_atom_site_label_1
_geom_bond_atom_site_label_2
_geom_bond_site_symmetry_1
_geom_bond_site_symmetry_2
C1 C2 1_555 1_555
C2 C3 1_555 1_555
C3 H1 1_555 1_555
C4 C3 1_555 1_555
C5 C4 1_555 1_555
C6 C5 1_555 1_555
H2 C6 1_555 1_555
C7 C2 1_555 1_555
C8 C4 1_555 1_555
H3 C8 1_555 1_555
C9 C7 1_555 1_555
C10 H4 1_555 1_555
C11 C10 1_555 1_555
H5 C11 1_555 1_555
C12 C11 1_555 1_555
C13 C12 1_555 1_555
H6 C13 1_555 1_555
C14 C13 1_555 1_555
H7 C14 1_555 1_555
C15 H8 1_555 1_555
C16 H9 1_555 1_555
H10 C16 1_555 1_555
H11 C16 1_555 1_555
C17 H12 1_555 1_555
H13 C17 1_555 1_555
H14 C17 1_555 1_555
C18 H15 1_555 1_555
C19 H16 1_555 1_555
H17 C19 1_555 1_555
H18 C19 1_555 1_555
C20 H19 1_555 1_555
H20 C20 1_555 1_555
H21 C20 1_555 1_555
N1 C10 1_555 1_555
N2 C12 1_555 1_555
N3 C15 1_555 1_555
N4 C18 1_555 1_555
O1 C1 1_555 1_555
O2 C1 1_555 1_555
O3 C9 1_555 1_555
O4 C9 1_555 1_555
O5 C15 1_555 1_555
O6 C18 1_555 1_555
Zn1 N1 1_555 1_555
C1B C2B 1_555 1_555
C2B C3B 1_555 1_555
C3B H1B 1_555 1_555
C4B C3B 1_555 1_555
C5B C8 1_555 1_555
C6B C5B 1_555 1_555
H2B C6B 1_555 1_555
C7B C2B 1_555 1_555
C8B C5 1_555 1_555
H3B C8B 1_555 1_555
C9B C7B 1_555 1_555
C10B H4B 1_555 1_555
C11B C10B 1_555 1_555
H5B C11B 1_555 1_555
C12B C11B 1_555 1_555
C13B C12B 1_555 1_555
H6B C13B 1_555 1_555
C14B C13B 1_555 1_555
H7B C14B 1_555 1_555
C15B H8B 1_555 1_555
C16B H9B 1_555 1_555
H10B C16B 1_555 1_555
H11B C16B 1_555 1_555
C17B H12B 1_555 1_555
H13B C17B 1_555 1_555
H14B C17B 1_555 1_555
N1B C10B 1_555 1_555
N2B N2 1_555 1_555
N3B C15B 1_555 1_555
O1B C1B 1_555 1_555
O1B_2 Zn1B 1_555 1_555
O2B C1B 1_555 1_555
O3B C9B 1_555 1_555
O4B C9B 1_555 1_555
O4C Zn1 1_555 1_555
O4A Zn1B 1_555 1_555
O5B C15B 1_555 1_555
Zn1B N1B 1_555 1_555
Zn1C O4 1_555 1_555
Zn1B_2 O1B 1_555 1_555
Zn1A O4B 1_555 1_555
C6 C7 1_555 1_555
C14 N1 1_555 1_555
C16 N3 1_555 1_555
C17 N3 1_555 1_555
C19 N4 1_555 1_555
C20 N4 1_555 1_555
O1 Zn1 1_555 1_555
O5 Zn1 1_555 1_555
C4B C5B 1_555 1_555
C4B C8B 1_555 1_555
C6B C7B 1_555 1_555
C12B N2B 1_555 1_555
C14B N1B 1_555 1_555
C16B N3B 1_555 1_555
C17B N3B 1_555 1_555
O5B Zn1B 1_555 1_555

#END
