
#######################################################################
#
#                 Cambridge Crystallographic Data Centre
#                                CCDC 
#
#######################################################################
#
# If this CIF has been generated from an entry in the Cambridge 
# Structural Database, then it will include bibliographic, chemical, 
# crystal, experimental, refinement or atomic coordinate data resulting 
# from the CCDC's data processing and validation procedures.
#
#######################################################################

data_QUDJEF
_symmetry_cell_setting           monoclinic
_symmetry_space_group_name_H-M   'P 21/c'
_symmetry_Int_Tables_number      14
_space_group_name_Hall           '-P 2ybc'
loop_
_symmetry_equiv_pos_site_id
_symmetry_equiv_pos_as_xyz
1 x,y,z
2 -x,1/2+y,1/2-z
3 -x,-y,-z
4 x,1/2-y,1/2+z
_cell_length_a                   7.7210(15)
_cell_length_b                   10.433(2)
_cell_length_c                   23.876(6)
_cell_angle_alpha                90
_cell_angle_beta                 106.52(3)
_cell_angle_gamma                90
_cell_volume                     1843.9
loop_
_atom_site_label
_atom_site_type_symbol
_atom_site_fract_x
_atom_site_fract_y
_atom_site_fract_z
O1 O 0.5932(5) 0.2087(3) 0.76728(15)
H1 H 0.5011 0.1845 0.7718
H2 H 0.6396 0.1345 0.7642
C1 C 0.7730(6) 0.6584(4) 0.65851(19)
C2 C 0.7222(6) 0.7830(4) 0.62473(17)
C3 C 0.6474(6) 0.7777(4) 0.56575(17)
H3 H 0.6442 0.6992 0.5470
C4 C 0.5733(6) 0.8879(4) 0.53130(17)
C5 C 0.5795(6) 1.0075(4) 0.56093(17)
C6 C 0.6637(6) 1.0117(4) 0.62309(17)
H4 H 0.6719 1.0899 0.6423
C7 C 0.7315(6) 0.9050(4) 0.65456(16)
C8 C 0.4921(6) 0.8820(4) 0.47102(18)
H5 H 0.4855 0.8038 0.4518
C9 C 0.8300(7) 0.9193(4) 0.71909(18)
C10 C 1.0814(7) 0.2003(5) 0.6589(2)
H6 H 1.1236 0.2009 0.6994
C11 C 1.0667(8) 0.0978(6) 0.5682(2)
H7 H 1.0105 0.1774 0.5529
H8 H 0.9806 0.0295 0.5569
H9 H 1.1672 0.0818 0.5530
C12 C 1.2429(7) -0.0004(5) 0.6629(2)
H10 H 1.2791 0.0172 0.7040
H11 H 1.3481 -0.0087 0.6494
H12 H 1.1749 -0.0787 0.6556
N1 N 1.1304(5) 0.1052(4) 0.63175(16)
O2 O 0.8502(4) 0.5726(3) 0.63602(12)
O3 O 0.7307(4) 0.6436(3) 0.70473(13)
O4 O 0.9883(4) 0.8720(3) 0.73534(12)
O5 O 0.7602(6) 0.9792(4) 0.75159(14)
O6 O 0.9816(5) 0.2917(3) 0.63478(13)
O8 O 0.6485(4) 0.3336(3) 0.67723(14)
H20 H 0.5661 0.3489 0.6519
H21 H 0.6267 0.2883 0.7056
Zn1 Zn 0.88679(8) 0.41663(5) 0.68359(2)
C1B C 0.2270(6) 1.3416(4) 0.34149(19)
C2B C 0.2778(6) 1.2170(4) 0.37527(17)
C3B C 0.3526(6) 1.2223(4) 0.43425(17)
H3B H 0.3558 1.3008 0.4530
C4B C 0.4267(6) 1.1121(4) 0.46870(17)
C5B C 0.4205(6) 0.9925(4) 0.43907(17)
C6B C 0.3363(6) 0.9883(4) 0.37691(17)
H4B H 0.3281 0.9101 0.3577
C7B C 0.2685(6) 1.0950(4) 0.34544(16)
C8B C 0.5079(6) 1.1180(4) 0.52898(18)
H5B H 0.5145 1.1962 0.5482
C9B C 0.1700(7) 1.0807(4) 0.28091(18)
C10B C -0.0814(7) 1.7997(5) 0.3411(2)
H6B H -0.1236 1.7991 0.3006
C11B C -0.0667(8) 1.9022(6) 0.4318(2)
H7B H -0.0105 1.8226 0.4471
H8B H 0.0194 1.9705 0.4431
H9B H -0.1672 1.9182 0.4470
C12B C -0.2429(7) 2.0004(5) 0.3371(2)
H10B H -0.2791 1.9828 0.2960
H11B H -0.3481 2.0087 0.3506
H12B H -0.1749 2.0787 0.3444
N1B N -0.1304(5) 1.8948(4) 0.36825(16)
O2B O 0.1498(4) 1.4274(3) 0.36398(12)
O3B O 0.2693(4) 1.3564(3) 0.29527(13)
O4B O 0.0117(4) 1.1280(3) 0.26466(12)
O4A O 1.0117(4) 0.3720(3) 0.76466(12)
O4C O -0.0117(4) 1.6280(3) 0.23534(12)
O5B O 0.2398(6) 1.0208(4) 0.24841(14)
O6B O 0.0184(5) 1.7083(3) 0.36522(13)
O8B O 0.3515(4) 1.6664(3) 0.32277(14)
H20B H 0.4339 1.6511 0.3481
H21B H 0.3733 1.7117 0.2944
Zn1B Zn 0.11321(8) 1.58337(5) 0.31641(2)
Zn1A Zn 1.11321(8) 0.91663(5) 0.81641(2)
Zn1C Zn -0.11321(8) 1.08337(5) 0.18359(2)
C13 C 0.3072(8) 0.4990(6) 0.5951(2)
H13 H 0.3094 0.5140 0.6337
C14 C 0.2230(8) 0.5696(5) 0.4955(2)
H14 H 0.2573 0.4834 0.4894
H15 H 0.1025 0.5856 0.4712
C15 C 0.1567(8) 0.7048(5) 0.5728(3)
H16 H 0.1744 0.7053 0.6143
H17 H 0.2179 0.7768 0.5621
H18 H 0.0299 0.7101 0.5530
N2 N 0.2293(6) 0.5865(4) 0.55626(17)
H19 H 0.3052 0.6286 0.4855
O7 O 0.3777(6) 0.3987(4) 0.58471(16)
loop_
_geom_bond_atom_site_label_1
_geom_bond_atom_site_label_2
_geom_bond_site_symmetry_1
_geom_bond_site_symmetry_2
O1 H1 1_555 1_555
H2 O1 1_555 1_555
C1 C2 1_555 1_555
C2 C3 1_555 1_555
C3 H3 1_555 1_555
C4 C3 1_555 1_555
C5 C4 1_555 1_555
C6 C5 1_555 1_555
H4 C6 1_555 1_555
C7 C2 1_555 1_555
C8 C4 1_555 1_555
H5 C8 1_555 1_555
C9 C7 1_555 1_555
C10 H6 1_555 1_555
C11 H7 1_555 1_555
H8 C11 1_555 1_555
H9 C11 1_555 1_555
C12 H10 1_555 1_555
H11 C12 1_555 1_555
H12 C12 1_555 1_555
C13 H13 1_555 1_555
C14 H14 1_555 1_555
H15 C14 1_555 1_555
C15 H16 1_555 1_555
H17 C15 1_555 1_555
H18 C15 1_555 1_555
N1 C10 1_555 1_555
N2 C13 1_555 1_555
H19 C14 1_555 1_555
O2 C1 1_555 1_555
O3 C1 1_555 1_555
O4 C9 1_555 1_555
O5 C9 1_555 1_555
O6 C10 1_555 1_555
O7 C13 1_555 1_555
O8 H20 1_555 1_555
H21 O8 1_555 1_555
Zn1 O2 1_555 1_555
C1B C2B 1_555 1_555
C2B C3B 1_555 1_555
C3B H3B 1_555 1_555
C4B C3B 1_555 1_555
C5B C8 1_555 1_555
C6B C5B 1_555 1_555
H4B C6B 1_555 1_555
C7B C2B 1_555 1_555
C8B C5 1_555 1_555
H5B C8B 1_555 1_555
C9B C7B 1_555 1_555
C10B H6B 1_555 1_555
C11B H7B 1_555 1_555
H8B C11B 1_555 1_555
H9B C11B 1_555 1_555
C12B H10B 1_555 1_555
H11B C12B 1_555 1_555
H12B C12B 1_555 1_555
N1B C10B 1_555 1_555
O2B C1B 1_555 1_555
O3B C1B 1_555 1_555
O4B C9B 1_555 1_555
O4A Zn1 1_555 1_555
O4C Zn1B 1_555 1_555
O5B C9B 1_555 1_555
O6B C10B 1_555 1_555
O8B H20B 1_555 1_555
H21B O8B 1_555 1_555
Zn1B O2B 1_555 1_555
Zn1A O4 1_555 1_555
Zn1C O4B 1_555 1_555
C6 C7 1_555 1_555
C11 N1 1_555 1_555
C12 N1 1_555 1_555
C14 N2 1_555 1_555
C15 N2 1_555 1_555
O6 Zn1 1_555 1_555
O8 Zn1 1_555 1_555
C4B C5B 1_555 1_555
C4B C8B 1_555 1_555
C6B C7B 1_555 1_555
C11B N1B 1_555 1_555
C12B N1B 1_555 1_555
O6B Zn1B 1_555 1_555
O8B Zn1B 1_555 1_555

#END
