
#######################################################################
#
#                 Cambridge Crystallographic Data Centre
#                                CCDC 
#
#######################################################################
#
# If this CIF has been generated from an entry in the Cambridge 
# Structural Database, then it will include bibliographic, chemical, 
# crystal, experimental, refinement or atomic coordinate data resulting 
# from the CCDC's data processing and validation procedures.
#
#######################################################################

data_QUDKIK
_symmetry_cell_setting           monoclinic
_symmetry_space_group_name_H-M   'P 21/c'
_symmetry_Int_Tables_number      14
_space_group_name_Hall           '-P 2ybc'
loop_
_symmetry_equiv_pos_site_id
_symmetry_equiv_pos_as_xyz
1 x,y,z
2 -x,1/2+y,1/2-z
3 -x,-y,-z
4 x,1/2-y,1/2+z
_cell_length_a                   9.0571(9)
_cell_length_b                   16.8080(16)
_cell_length_c                   10.9333(10)
_cell_angle_alpha                90
_cell_angle_beta                 98.9910(10)
_cell_angle_gamma                90
_cell_volume                     1643.94
loop_
_atom_site_label
_atom_site_type_symbol
_atom_site_fract_x
_atom_site_fract_y
_atom_site_fract_z
Zn1 Zn 0.99458(3) 0.529319(15) 0.82207(2)
Zn2 Zn 1.69731(3) 0.466210(15) 0.60848(2)
O1 O 1.5309(2) 0.41742(11) 0.68283(17)
O2 O 1.5688(2) 0.28925(11) 0.64868(19)
O3 O 1.1471(2) 0.48114(9) 0.95637(16)
O4 O 1.1050(2) 0.38860(10) 1.09104(15)
O5 O 1.1899(2) 0.10967(11) 0.9914(2)
O6 O 1.3601(2) 0.07778(10) 0.87475(17)
O7 O 0.8721(2) 0.44967(10) 0.73641(16)
H1 H 0.8671 0.4056 0.7736
N1 N 1.1434(2) 0.80148(11) 0.64958(18)
N2 N 1.2774(3) 0.85727(12) 0.5087(2)
H2 H 1.2511 0.9038 0.5299
H3 H 1.3338 0.8523 0.4527
N3 N 1.2733(2) 0.72113(11) 0.52532(18)
H4 H 1.3300 0.7171 0.4695
N4 N 1.0155(2) 0.75091(12) 0.79673(18)
H5 H 0.9924 0.7989 0.8136
H6 H 0.9848 0.7117 0.8367
N5 N 1.1083(2) 0.58368(11) 0.70527(18)
N6 N 1.2435(2) 0.57888(11) 0.54793(17)
C1 C 1.2307(3) 0.79253(13) 0.5629(2)
C2 C 1.2233(3) 0.65597(13) 0.5787(2)
C3 C 1.1410(3) 0.66095(13) 0.6738(2)
C4 C 1.0990(3) 0.73729(13) 0.7086(2)
C5 C 1.1701(3) 0.53864(14) 0.6275(2)
H7 H 1.1636 0.4834 0.6275
C6 C 1.4034(3) 0.31997(13) 0.7852(2)
C7 C 1.3264(3) 0.37555(13) 0.8445(2)
H8 H 1.3324 0.4293 0.8257
C8 C 1.2402(3) 0.35094(13) 0.9323(2)
C9 C 1.2309(3) 0.27053(13) 0.9594(2)
H9 H 1.1754 0.2543 1.0196
C10 C 1.3036(3) 0.21430(13) 0.8977(2)
C11 C 1.3905(3) 0.23952(13) 0.8113(2)
H10 H 1.4408 0.2022 0.7703
C12 C 1.5082(3) 0.34417(15) 0.6976(2)
C13 C 1.1590(3) 0.41077(13) 0.9967(2)
C14 C 1.2819(3) 0.12782(13) 0.9247(2)
Zn1B Zn 1.00542(3) 0.470681(15) 1.17793(2)
Zn2A Zn 1.30269(3) -0.033790(15) 0.89152(2)
Zn2_2 Zn 0.69731(3) 0.466210(15) 0.60848(2)
Zn2B Zn 1.30269(3) 0.533790(15) 0.39152(2)
O4B O 0.8950(2) 0.61140(10) 0.90896(15)
O6A O 1.6399(2) 0.57778(10) 0.62525(17)
O7_2 O 1.8721(2) 0.44967(10) 0.73641(16)
H1_2 H 1.8671 0.4056 0.7736
N6B N 1.7565(2) 0.42112(11) 0.45207(17)
O8 O 0.5049(3) 0.06882(17) 0.6471(3)
H11 H 0.4830 0.0263 0.6060
H12 H 0.4714 0.0736 0.7151
loop_
_geom_bond_atom_site_label_1
_geom_bond_atom_site_label_2
_geom_bond_site_symmetry_1
_geom_bond_site_symmetry_2
Zn1 O3 1_555 1_555
Zn2 O1 1_555 1_555
O1 C12 1_555 1_555
O2 C12 1_555 1_555
O3 C13 1_555 1_555
O4 C13 1_555 1_555
O5 C14 1_555 1_555
O6 C14 1_555 1_555
O7 Zn1 1_555 1_555
H1 O7 1_555 1_555
N1 C1 1_555 1_555
N2 H2 1_555 1_555
H3 N2 1_555 1_555
N3 H4 1_555 1_555
N4 H5 1_555 1_555
H6 N4 1_555 1_555
N5 Zn1 1_555 1_555
N6 C2 1_555 1_555
C1 N2 1_555 1_555
C2 N3 1_555 1_555
C3 N5 1_555 1_555
C4 N1 1_555 1_555
C5 N5 1_555 1_555
H7 C5 1_555 1_555
C6 C7 1_555 1_555
C7 H8 1_555 1_555
C8 C7 1_555 1_555
C9 C8 1_555 1_555
H9 C9 1_555 1_555
C10 C9 1_555 1_555
C11 C6 1_555 1_555
H10 C11 1_555 1_555
C12 C6 1_555 1_555
C13 C8 1_555 1_555
C14 C10 1_555 1_555
O8 H11 1_555 1_555
H12 O8 1_555 1_555
Zn1B O4 1_555 1_555
Zn2A O6 1_555 1_555
Zn2_2 O7 1_555 1_555
Zn2B N6 1_555 1_555
O4B Zn1 1_555 1_555
O6A Zn2 1_555 1_555
O7_2 Zn2 1_555 1_555
H1_2 O7_2 1_555 1_555
N6B Zn2 1_555 1_555
N3 C1 1_555 1_555
N4 C4 1_555 1_555
N6 C5 1_555 1_555
C2 C3 1_555 1_555
C3 C4 1_555 1_555
C10 C11 1_555 1_555

#END
