
#######################################################################
#
#                 Cambridge Crystallographic Data Centre
#                                CCDC 
#
#######################################################################
#
# If this CIF has been generated from an entry in the Cambridge 
# Structural Database, then it will include bibliographic, chemical, 
# crystal, experimental, refinement or atomic coordinate data resulting 
# from the CCDC's data processing and validation procedures.
#
#######################################################################

data_QUDKOQ
_symmetry_cell_setting           triclinic
_symmetry_space_group_name_H-M   'P -1'
_symmetry_Int_Tables_number      2
_space_group_name_Hall           '-P 1'
loop_
_symmetry_equiv_pos_site_id
_symmetry_equiv_pos_as_xyz
1 x,y,z
2 -x,-y,-z
_cell_length_a                   9.9718(6)
_cell_length_b                   10.0083(6)
_cell_length_c                   10.4759(6)
_cell_angle_alpha                81.9930(10)
_cell_angle_beta                 69.0970(10)
_cell_angle_gamma                70.4920(10)
_cell_volume                     920.386
loop_
_atom_site_label
_atom_site_type_symbol
_atom_site_fract_x
_atom_site_fract_y
_atom_site_fract_z
Zn1 Zn 0.30842(3) 0.35514(3) 0.04358(3)
O1 O 0.47552(17) 0.67753(16) -0.01174(17)
O2 O 0.42771(19) 0.8631(2) 0.1076(2)
O3 O 0.29659(19) 0.52322(16) -0.09840(16)
O4 O 0.32947(19) 0.71263(18) -0.22436(16)
O5 O 0.01789(19) 0.68566(19) -0.15705(18)
O6 O -0.18646(19) 0.7112(2) 0.02914(18)
O7 O 0.32545(19) 0.15324(17) 0.17382(17)
H1 H 0.3500 0.0807 0.1270
H2 H 0.3858 0.1555 0.2133
N1 N -0.1872(2) 0.7014(2) 0.45576(19)
N2 N -0.3032(2) 0.6092(2) 0.3495(2)
H3 H -0.3864 0.6845 0.3761
H4 H -0.2911 0.5732 0.2707
N3 N -0.0451(2) 0.53406(19) 0.27954(18)
H5 H -0.0425 0.4788 0.2221
N4 N -0.0713(2) 0.7889(2) 0.5662(2)
H6 H -0.1583 0.8376 0.6179
H7 H 0.0093 0.7928 0.5761
N5 N 0.2289(2) 0.6026(2) 0.36976(19)
H8 H 0.2619 0.6408 0.4160
N6 N 0.2274(2) 0.46944(19) 0.21801(18)
C1 C -0.1770(3) 0.6167(2) 0.3612(2)
C2 C 0.0834(2) 0.5412(2) 0.2913(2)
C3 C 0.0798(2) 0.6252(2) 0.3853(2)
C4 C -0.0613(3) 0.7082(2) 0.4719(2)
C5 C 0.3121(3) 0.5108(2) 0.2701(2)
H9 H 0.4170 0.4788 0.2398
C6 C 0.2211(2) 0.8177(2) 0.0788(2)
C7 C 0.1672(2) 0.7527(2) 0.0046(2)
C8 C 0.0106(2) 0.7851(2) 0.0385(2)
C9 C -0.0885(2) 0.8808(2) 0.1407(2)
H10 H -0.1920 0.9004 0.1624
C10 C -0.0343(3) 0.9469(2) 0.2102(2)
H11 H -0.1007 1.0125 0.2769
C11 C 0.1192(3) 0.9141(2) 0.1794(2)
H12 H 0.1557 0.9575 0.2270
C12 C 0.3854(2) 0.7852(2) 0.0571(2)
C13 C 0.2733(2) 0.6550(2) -0.1134(2)
C14 C -0.0558(2) 0.7204(2) -0.0366(2)
Zn1A Zn 0.69158(3) 0.64486(3) -0.04358(3)
Zn1A_2 Zn -0.30842(3) 0.64486(3) -0.04358(3)
O1A O 0.52448(17) 0.32247(16) 0.01174(17)
O6A O 0.18646(19) 0.2888(2) -0.02914(18)
O8 O 0.5223(2) 0.8616(2) 0.6498(2)
H13 H 0.4478 0.8308 0.6915
H14 H 0.5985 0.8067 0.5930
O9 O 0.5514(3) 0.1302(2) 0.6357(2)
H15 H 0.5709 0.1294 0.7085
H16 H 0.5372 0.0561 0.6194
O10 O 0.7592(2) 0.2387(2) 0.4491(2)
H17 H 0.6952 0.2053 0.5106
H18 H 0.7411 0.2683 0.3750
loop_
_geom_bond_atom_site_label_1
_geom_bond_atom_site_label_2
_geom_bond_site_symmetry_1
_geom_bond_site_symmetry_2
Zn1 O3 1_555 1_555
O1 C12 1_555 1_555
O2 C12 1_555 1_555
O3 C13 1_555 1_555
O4 C13 1_555 1_555
O5 C14 1_555 1_555
O6 C14 1_555 1_555
O7 Zn1 1_555 1_555
H1 O7 1_555 1_555
H2 O7 1_555 1_555
N1 C1 1_555 1_555
N2 H3 1_555 1_555
H4 N2 1_555 1_555
N3 H5 1_555 1_555
N4 H6 1_555 1_555
H7 N4 1_555 1_555
N5 H8 1_555 1_555
N6 Zn1 1_555 1_555
C1 N2 1_555 1_555
C2 N3 1_555 1_555
C3 N5 1_555 1_555
C4 N1 1_555 1_555
C5 N5 1_555 1_555
H9 C5 1_555 1_555
C6 C7 1_555 1_555
C7 C8 1_555 1_555
C8 C9 1_555 1_555
C9 H10 1_555 1_555
C10 C9 1_555 1_555
H11 C10 1_555 1_555
C11 C6 1_555 1_555
H12 C11 1_555 1_555
C12 C6 1_555 1_555
C13 C7 1_555 1_555
C14 C8 1_555 1_555
O8 H13 1_555 1_555
H14 O8 1_555 1_555
O9 H15 1_555 1_555
H16 O9 1_555 1_555
O10 H17 1_555 1_555
H18 O10 1_555 1_555
Zn1A O1 1_555 1_555
Zn1A_2 O6 1_555 1_555
O1A Zn1 1_555 1_555
O6A Zn1 1_555 1_555
N3 C1 1_555 1_555
N4 C4 1_555 1_555
N6 C2 1_555 1_555
N6 C5 1_555 1_555
C2 C3 1_555 1_555
C3 C4 1_555 1_555
C10 C11 1_555 1_555

#END
