
#######################################################################
#
#                 Cambridge Crystallographic Data Centre
#                                CCDC 
#
#######################################################################
#
# If this CIF has been generated from an entry in the Cambridge 
# Structural Database, then it will include bibliographic, chemical, 
# crystal, experimental, refinement or atomic coordinate data resulting 
# from the CCDC's data processing and validation procedures.
#
#######################################################################

data_QUDKIJ
_symmetry_cell_setting           monoclinic
_symmetry_space_group_name_H-M   'C 2/c'
_symmetry_Int_Tables_number      15
_space_group_name_Hall           '-C 2yn'
loop_
_symmetry_equiv_pos_site_id
_symmetry_equiv_pos_as_xyz
1 x,y,z
2 1/2+x,1/2+y,z
3 x,-y,1/2+z
4 1/2+x,1/2-y,1/2+z
5 -x,-y,-z
6 1/2-x,1/2-y,-z
7 -x,y,1/2-z
8 1/2-x,1/2+y,1/2-z
_cell_length_a                   23.400(5)
_cell_length_b                   8.160(2)
_cell_length_c                   14.170(3)
_cell_angle_alpha                90
_cell_angle_beta                 122.88(3)
_cell_angle_gamma                90
_cell_volume                     2272.25
loop_
_atom_site_label
_atom_site_type_symbol
_atom_site_fract_x
_atom_site_fract_y
_atom_site_fract_z
Ag1 Ag 0.276384(10) 1.13043(2) 0.595495(16)
C1 C 0.11646(13) 1.0230(3) 0.4537(2)
H1 H 0.1044(16) 1.101(4) 0.401(3)
H2 H 0.1150(16) 1.079(4) 0.515(3)
C2 C 0.06508(12) 0.8841(3) 0.40600(19)
H3 H 0.0671(14) 0.834(4) 0.345(3)
H4 H 0.0176(14) 0.929(4) 0.371(2)
C3 C 0.05114(13) 0.6001(3) 0.4402(2)
H5 H 0.004(2) 0.610(4) 0.385(3)
H6 H 0.0544(16) 0.532(4) 0.503(3)
C4 C 0.08870(13) 0.5120(3) 0.3952(2)
H7 H 0.0871(16) 0.574(4) 0.338(3)
H8 H 0.0652(19) 0.411(5) 0.361(3)
C5 C 0.05772(12) 0.8123(3) 0.56388(19)
H9 H 0.0066(16) 0.787(4) 0.528(3)
H10 H 0.0647(14) 0.929(4) 0.576(2)
C6 C 0.09616(13) 0.7306(3) 0.67798(19)
H11 H 0.0750(15) 0.766(4) 0.715(3)
H12 H 0.0918(15) 0.610(4) 0.667(2)
N1 N 0.18581(11) 0.9687(3) 0.4951(2)
H13 H 0.1875(15) 0.940(4) 0.444(3)
H14 H 0.1965(19) 0.887(4) 0.543(3)
N2 N 0.08117(8) 0.7591(2) 0.49154(14)
N3 N 0.15913(12) 0.4686(3) 0.4800(2)
H15 H 0.1811(17) 0.561(5) 0.512(3)
H16 H 0.160(2) 0.407(5) 0.524(4)
N4 N 0.16872(11) 0.7736(3) 0.74792(17)
H17 H 0.1687(17) 0.873(4) 0.754(3)
H18 H 0.1882(15) 0.744(4) 0.705(3)
N3E N 0.34087(12) 1.0314(3) 0.5200(2)
N4G N 0.33128(11) 1.2736(3) 0.75208(17)
Ag1E Ag 0.223616(10) 0.36957(2) 0.404505(16)
Ag1G Ag 0.223616(10) 0.63043(2) 0.904505(16)
H15E H 0.3189(17) 0.939(5) 0.488(3)
H16E H 0.340(2) 1.093(5) 0.476(4)
H17G H 0.3313(17) 1.373(4) 0.746(3)
H18G H 0.3118(15) 1.244(4) 0.795(3)
N5 N 0.32628(11) 0.7388(3) 0.74914(17)
O1 O 0.27496(14) 0.6790(4) 0.6689(2)
O2 O 0.37962(15) 0.6677(5) 0.7808(3)
O3 O 0.3207(3) 0.8615(4) 0.7910(4)
loop_
_geom_bond_atom_site_label_1
_geom_bond_atom_site_label_2
_geom_bond_site_symmetry_1
_geom_bond_site_symmetry_2
Ag1 N1 1_555 1_555
C1 H1 1_555 1_555
H2 C1 1_555 1_555
C2 C1 1_555 1_555
H3 C2 1_555 1_555
H4 C2 1_555 1_555
C3 H5 1_555 1_555
H6 C3 1_555 1_555
C4 C3 1_555 1_555
H7 C4 1_555 1_555
H8 C4 1_555 1_555
C5 H9 1_555 1_555
H10 C5 1_555 1_555
C6 C5 1_555 1_555
H11 C6 1_555 1_555
H12 C6 1_555 1_555
N1 C1 1_555 1_555
H13 N1 1_555 1_555
H14 N1 1_555 1_555
N2 C2 1_555 1_555
N3 C4 1_555 1_555
H15 N3 1_555 1_555
H16 N3 1_555 1_555
N4 C6 1_555 1_555
H17 N4 1_555 1_555
H18 N4 1_555 1_555
N5 O1 1_555 1_555
O2 N5 1_555 1_555
O3 N5 1_555 1_555
N3E Ag1 1_555 1_555
N4G Ag1 1_555 1_555
Ag1E N3 1_555 1_555
Ag1G N4 1_555 1_555
H15E N3E 1_555 1_555
H16E N3E 1_555 1_555
H17G N4G 1_555 1_555
H18G N4G 1_555 1_555
C3 N2 1_555 1_555
C5 N2 1_555 1_555

#END
