
#######################################################################
#
#                 Cambridge Crystallographic Data Centre
#                                CCDC 
#
#######################################################################
#
# If this CIF has been generated from an entry in the Cambridge 
# Structural Database, then it will include bibliographic, chemical, 
# crystal, experimental, refinement or atomic coordinate data resulting 
# from the CCDC's data processing and validation procedures.
#
#######################################################################

data_QUDKEG
_symmetry_cell_setting           monoclinic
_symmetry_space_group_name_H-M   'P 21/n'
_symmetry_Int_Tables_number      14
_space_group_name_Hall           '-P 2yn'
loop_
_symmetry_equiv_pos_site_id
_symmetry_equiv_pos_as_xyz
1 x,y,z
2 1/2-x,1/2+y,1/2-z
3 -x,-y,-z
4 1/2+x,1/2-y,1/2+z
_cell_length_a                   7.3203(4)
_cell_length_b                   19.1072(10)
_cell_length_c                   15.7652(8)
_cell_angle_alpha                90
_cell_angle_beta                 101.7870(10)
_cell_angle_gamma                90
_cell_volume                     2158.59
loop_
_atom_site_label
_atom_site_type_symbol
_atom_site_fract_x
_atom_site_fract_y
_atom_site_fract_z
Zn1 Zn 0.93565(3) 0.063364(11) 0.581803(15)
Zn2 Zn 1.59036(3) -0.149760(12) 1.209000(15)
O1 O 1.3718(2) -0.03850(8) 1.15146(10)
O2 O 1.4430(2) -0.13657(8) 1.09137(10)
O3 O 1.0121(2) 0.00261(8) 0.68556(9)
O4 O 1.2155(2) 0.08715(8) 0.72203(10)
O5 O 1.0856(2) 0.11379(7) 0.51282(10)
O6 O 1.20862(19) 0.01243(7) 0.48752(9)
O7 O 1.8907(2) 0.18693(9) 0.31741(11)
O8 O 1.7218(2) 0.28422(9) 0.31164(12)
N1 N 0.5780(2) 0.16655(9) 0.70915(11)
N2 N 0.7698(2) 0.13503(9) 0.62007(11)
N3 N 0.8264(3) 0.32957(9) 0.61443(12)
N4 N 0.6271(2) 0.29204(9) 0.70569(11)
H1 H 0.5510 0.3022 0.7388
N5 N 0.9428(3) 0.25485(9) 0.52537(12)
H2 H 0.9864 0.2905 0.5028
H3 H 0.9598 0.2134 0.5071
N6 N 0.7193(3) 0.40716(9) 0.70387(12)
H4 H 0.7802 0.4401 0.6847
H5 H 0.6545 0.4162 0.7423
C1 C 0.6543(3) 0.22475(10) 0.68271(13)
C2 C 0.7710(3) 0.20774(10) 0.62769(13)
C3 C 0.8491(3) 0.26374(10) 0.58832(13)
C4 C 0.7252(3) 0.34224(10) 0.67394(14)
C5 C 0.6548(3) 0.11444(11) 0.67035(14)
H6 H 0.6291 0.0675 0.6783
C6 C 1.3677(3) -0.07526(11) 1.08667(14)
C7 C 1.2849(3) -0.04912(11) 0.99731(14)
C8 C 1.2734(3) -0.09207(11) 0.92582(15)
H7 H 1.3019 -0.1394 0.9337
C9 C 1.2205(3) -0.06573(11) 0.84319(15)
H8 H 1.2124 -0.0952 0.7956
C10 C 1.1793(3) 0.00469(11) 0.83108(13)
C11 C 1.1345(3) 0.03342(10) 0.74185(14)
C12 C 1.1826(3) 0.04745(11) 0.90202(14)
H9 H 1.1495 0.0943 0.8940
C13 C 1.2348(3) 0.02076(11) 0.98466(14)
H10 H 1.2364 0.0497 1.0322
C14 C 1.2013(3) 0.07797(10) 0.48155(13)
C15 C 1.3390(3) 0.11561(10) 0.44059(13)
C16 C 1.3335(3) 0.18787(11) 0.43014(16)
H11 H 1.2414 0.2138 0.4485
C17 C 1.4644(3) 0.22119(12) 0.39249(17)
H12 H 1.4578 0.2694 0.3843
C18 C 1.6056(3) 0.18342(11) 0.36675(14)
C19 C 1.7522(3) 0.22008(12) 0.32858(13)
C20 C 1.6127(3) 0.11148(11) 0.37802(14)
H13 H 1.7075 0.0858 0.3615
C21 C 1.4796(3) 0.07781(11) 0.41367(14)
H14 H 1.4839 0.0294 0.4198
Zn1B Zn 1.06435(3) -0.063364(11) 0.418197(15)
Zn2B Zn 1.40964(3) 0.149760(12) 0.791000(15)
Zn2A Zn 1.90964(3) 0.350240(12) 0.291000(15)
Zn2B_2 Zn 0.40964(3) 0.149760(12) 0.791000(15)
O4B O 1.7845(2) -0.08715(8) 1.27797(10)
O6B O 0.79138(19) -0.01243(7) 0.51248(9)
O8A O 1.7782(2) -0.21578(9) 1.18836(12)
N1B N 1.4220(2) -0.16655(9) 1.29085(11)
loop_
_geom_bond_atom_site_label_1
_geom_bond_atom_site_label_2
_geom_bond_site_symmetry_1
_geom_bond_site_symmetry_2
Zn1 O3 1_555 1_555
Zn2 O2 1_555 1_555
O1 C6 1_555 1_555
O2 C6 1_555 1_555
O3 C11 1_555 1_555
O4 C11 1_555 1_555
O5 Zn1 1_555 1_555
O6 C14 1_555 1_555
O7 C19 1_555 1_555
O8 C19 1_555 1_555
N1 C1 1_555 1_555
N2 Zn1 1_555 1_555
N3 C3 1_555 1_555
N4 H1 1_555 1_555
N5 H2 1_555 1_555
H3 N5 1_555 1_555
N6 H4 1_555 1_555
H5 N6 1_555 1_555
C1 N4 1_555 1_555
C2 N2 1_555 1_555
C3 N5 1_555 1_555
C4 N3 1_555 1_555
C5 N1 1_555 1_555
H6 C5 1_555 1_555
C6 C7 1_555 1_555
C7 C8 1_555 1_555
C8 H7 1_555 1_555
C9 C8 1_555 1_555
H8 C9 1_555 1_555
C10 C9 1_555 1_555
C11 C10 1_555 1_555
C12 C10 1_555 1_555
H9 C12 1_555 1_555
C13 C7 1_555 1_555
H10 C13 1_555 1_555
C14 O5 1_555 1_555
C15 C14 1_555 1_555
C16 C15 1_555 1_555
H11 C16 1_555 1_555
C17 C16 1_555 1_555
H12 C17 1_555 1_555
C18 C17 1_555 1_555
C19 C18 1_555 1_555
C20 C18 1_555 1_555
H13 C20 1_555 1_555
C21 C15 1_555 1_555
H14 C21 1_555 1_555
Zn1B O6 1_555 1_555
Zn2B O4 1_555 1_555
Zn2A O8 1_555 1_555
Zn2B_2 N1 1_555 1_555
O4B Zn2 1_555 1_555
O6B Zn1 1_555 1_555
O8A Zn2 1_555 1_555
N1B Zn2 1_555 1_555
N2 C5 1_555 1_555
N4 C4 1_555 1_555
N6 C4 1_555 1_555
C1 C2 1_555 1_555
C2 C3 1_555 1_555
C12 C13 1_555 1_555
C20 C21 1_555 1_555

#END
