
#######################################################################
#
#                 Cambridge Crystallographic Data Centre
#                                CCDC 
#
#######################################################################
#
# If this CIF has been generated from an entry in the Cambridge 
# Structural Database, then it will include bibliographic, chemical, 
# crystal, experimental, refinement or atomic coordinate data resulting 
# from the CCDC's data processing and validation procedures.
#
#######################################################################

data_QUDKAC
_symmetry_cell_setting           monoclinic
_symmetry_space_group_name_H-M   'C 2/c'
_symmetry_Int_Tables_number      15
_space_group_name_Hall           '-C 2yn'
loop_
_symmetry_equiv_pos_site_id
_symmetry_equiv_pos_as_xyz
1 x,y,z
2 -x,y,1/2-z
3 1/2+x,1/2+y,z
4 1/2-x,1/2+y,1/2-z
5 -x,-y,-z
6 x,-y,1/2+z
7 1/2-x,1/2-y,-z
8 1/2+x,1/2-y,1/2+z
_cell_length_a                   19.8378(15)
_cell_length_b                   11.0364(8)
_cell_length_c                   18.3362(14)
_cell_angle_alpha                90
_cell_angle_beta                 91.2290(10)
_cell_angle_gamma                90
_cell_volume                     4013.57
loop_
_atom_site_label
_atom_site_type_symbol
_atom_site_fract_x
_atom_site_fract_y
_atom_site_fract_z
Zn1 Zn 0.655844(17) 0.93800(3) 0.260476(19)
Zn2 Zn 1.023390(18) 0.59570(3) 0.664240(19)
O1 O 0.96128(11) 0.6365(2) 0.58282(12)
O2 O 0.95522(13) 0.8254(2) 0.62177(14)
O3 O 0.70762(13) 0.7571(3) 0.32009(14)
O4 O 0.72483(13) 0.9505(2) 0.33804(14)
O5 O 0.69862(12) 0.8938(2) 0.16785(13)
O6 O 0.60511(12) 0.8486(3) 0.10342(13)
O7 O 0.56627(10) 0.8636(2) 0.26060(12)
H1 H 0.5701 0.7888 0.2709
N1 N 0.49093(15) 1.2865(3) 0.11802(17)
N2 N 0.44725(19) 1.1136(3) 0.0724(2)
H2 H 0.4214 1.1574 0.0450
H3 H 0.4449 1.0359 0.0701
N3 N 0.53051(13) 1.0918(2) 0.16034(14)
N4 N 0.5365(2) 1.4708(3) 0.1630(2)
H4 H 0.5097 1.5115 0.1349
H5 H 0.5646 1.5081 0.1916
N5 N 0.63086(15) 1.3120(3) 0.25374(17)
H6 H 0.6442 1.3836 0.2657
N6 N 0.62480(13) 1.1109(2) 0.24672(15)
C1 C 0.93797(15) 0.7436(3) 0.57855(17)
C2 C 0.49085(17) 1.1660(3) 0.11829(19)
C3 C 0.88710(15) 0.7681(3) 0.51872(17)
C4 C 0.57497(16) 1.1559(3) 0.20215(18)
C5 C 0.57773(17) 1.2814(3) 0.2062(2)
C6 C 0.5346(2) 1.3485(3) 0.1625(2)
C7 C 0.85592(16) 0.6727(3) 0.48166(18)
H7 H 0.8678 0.5932 0.4928
C8 C 0.65634(18) 1.2073(3) 0.2766(2)
H8 H 0.6922 1.2011 0.3099
C9 C 0.80703(16) 0.6959(3) 0.42807(18)
H9 H 0.7856 0.6318 0.4042
C10 C 0.79022(15) 0.8137(3) 0.41021(17)
C11 C 0.73713(16) 0.8400(3) 0.35273(18)
C12 C 0.82199(18) 0.9086(3) 0.44660(19)
H10 H 0.8111 0.9881 0.4345
C13 C 0.86967(19) 0.8856(3) 0.50067(19)
H11 H 0.8903 0.9499 0.5252
C14 C 0.66748(17) 0.8514(3) 0.11303(17)
C15 C 0.71022(16) 0.7988(3) 0.05415(17)
C16 C 0.68280(16) 0.7174(3) 0.00419(18)
H12 H 0.6377 0.6953 0.0071
C17 C 0.77787(17) 0.8311(3) 0.04998(18)
H13 H 0.7966 0.8852 0.0836
Zn1F Zn 0.844156(17) 0.56200(3) -0.260476(19)
Zn1F_2 Zn 0.844156(17) 0.56200(3) 0.739524(19)
Zn1G Zn 1.155844(17) 0.56200(3) 0.760476(19)
Zn2G Zn 0.523390(18) 0.90430(3) 0.164240(19)
Zn2F Zn 0.476610(18) 0.90430(3) 0.335760(19)
Zn2A Zn 0.976610(18) 0.59570(3) -0.164240(19)
Zn2A_2 Zn 0.976610(18) 0.59570(3) 0.835760(19)
Zn2F_2 Zn 0.476610(18) 0.90430(3) -0.664240(19)
O1F O 0.53872(11) 0.8635(2) -0.58282(12)
O1G O 0.46128(11) 0.8635(2) 0.08282(12)
O2F O 0.54478(13) 0.6746(2) -0.62177(14)
O3F O 0.79238(13) 0.7429(3) -0.32009(14)
O4F O 0.77517(13) 0.5495(2) -0.33804(14)
O5F O 0.80138(12) 0.6062(2) -0.16785(13)
O6F O 0.89489(12) 0.6514(3) -0.10342(13)
O6G O 1.10511(12) 0.6514(3) 0.60342(13)
O7F O 0.93373(10) 0.6364(2) 0.73940(12)
O7G O 1.06627(10) 0.6364(2) 0.76060(12)
O7F_2 O 0.93373(10) 0.6364(2) -0.26060(12)
O7A O 0.43373(10) 0.8636(2) 0.23940(12)
H1F H 0.9299 0.7112 0.7291
H1G H 1.0701 0.7112 0.7709
H1F_2 H 0.9299 0.7112 -0.2709
H1A H 0.4299 0.7888 0.2291
N1G N 0.99093(15) 0.2135(3) 0.61802(17)
N2G N 0.94725(19) 0.3864(3) 0.5724(2)
H2G H 0.9214 0.3426 0.5450
H3G H 0.9449 0.4641 0.5701
N3G N 1.03051(13) 0.4082(2) 0.66034(14)
N4G N 1.0365(2) 0.0292(3) 0.6630(2)
H4G H 1.0097 -0.0115 0.6349
H5G H 1.0646 -0.0081 0.6916
N5G N 1.13086(15) 0.1880(3) 0.75374(17)
H6G H 1.1442 0.1164 0.7657
N6G N 1.12480(13) 0.3891(2) 0.74672(15)
N6F N 0.87520(13) 0.3891(2) -0.24672(15)
C1F C 0.56203(15) 0.7564(3) -0.57855(17)
C2G C 0.99085(17) 0.3340(3) 0.61829(19)
C3F C 0.61290(15) 0.7319(3) -0.51872(17)
C4G C 1.07497(16) 0.3441(3) 0.70215(18)
C5G C 1.07773(17) 0.2186(3) 0.7062(2)
C6G C 1.0346(2) 0.1515(3) 0.6625(2)
C7F C 0.64408(16) 0.8273(3) -0.48166(18)
H7F H 0.6322 0.9068 -0.4928
C8G C 1.15634(18) 0.2927(3) 0.7766(2)
H8G H 1.1922 0.2989 0.8099
C9F C 0.69297(16) 0.8041(3) -0.42807(18)
H9F H 0.7144 0.8682 -0.4042
C10F C 0.70978(15) 0.6863(3) -0.41021(17)
C11F C 0.76287(16) 0.6600(3) -0.35273(18)
C12F C 0.67801(18) 0.5914(3) -0.44660(19)
H10F H 0.6889 0.5119 -0.4345
C13F C 0.63033(19) 0.6144(3) -0.50067(19)
H11F H 0.6097 0.5501 -0.5252
C14F C 0.83252(17) 0.6486(3) -0.11303(17)
C15F C 0.78978(16) 0.7012(3) -0.05415(17)
C16F C 0.81720(16) 0.7826(3) -0.00419(18)
H12F H 0.8623 0.8047 -0.0071
C17F C 0.72213(17) 0.6689(3) -0.04998(18)
H13F H 0.7034 0.6148 -0.0836
O8 O 0.3647(2) 0.5528(3) 0.2105(3)
H14 H 0.3392 0.5808 0.2431
H15 H 0.3927 0.6017 0.1920
loop_
_geom_bond_atom_site_label_1
_geom_bond_atom_site_label_2
_geom_bond_site_symmetry_1
_geom_bond_site_symmetry_2
Zn1 O3 1_555 1_555
Zn2 O1 1_555 1_555
O1 C1 1_555 1_555
O2 C1 1_555 1_555
O3 C11 1_555 1_555
O4 Zn1 1_555 1_555
O5 Zn1 1_555 1_555
O6 C14 1_555 1_555
O7 Zn1 1_555 1_555
H1 O7 1_555 1_555
N1 C2 1_555 1_555
N2 H2 1_555 1_555
H3 N2 1_555 1_555
N3 C2 1_555 1_555
N4 H4 1_555 1_555
H5 N4 1_555 1_555
N5 H6 1_555 1_555
N6 Zn1 1_555 1_555
C1 C3 1_555 1_555
C2 N2 1_555 1_555
C3 C7 1_555 1_555
C4 N3 1_555 1_555
C5 N5 1_555 1_555
C6 N1 1_555 1_555
C7 H7 1_555 1_555
C8 N5 1_555 1_555
H8 C8 1_555 1_555
C9 C7 1_555 1_555
H9 C9 1_555 1_555
C10 C9 1_555 1_555
C11 O4 1_555 1_555
C12 C10 1_555 1_555
H10 C12 1_555 1_555
C13 C3 1_555 1_555
H11 C13 1_555 1_555
C14 O5 1_555 1_555
C15 C14 1_555 1_555
C16 C15 1_555 1_555
H12 C16 1_555 1_555
C17 C15 1_555 1_555
H13 C17 1_555 1_555
O8 H14 1_555 1_555
H15 O8 1_555 1_555
Zn1F O3F 1_555 1_555
Zn1F_2 O7F 1_555 1_555
Zn1G O7G 1_555 1_555
Zn2G O6 1_555 1_555
Zn2F O7 1_555 1_555
Zn2A O6F 1_555 1_555
Zn2A_2 O7F 1_555 1_555
Zn2F_2 O1F 1_555 1_555
O1F C1F 1_555 1_555
O1G Zn2G 1_555 1_555
O2F C1F 1_555 1_555
O3F C11F 1_555 1_555
O4F Zn1F 1_555 1_555
O5F Zn1F 1_555 1_555
O6F C14F 1_555 1_555
O6G Zn2 1_555 1_555
O7F Zn2 1_555 1_555
O7G Zn2 1_555 1_555
O7F_2 Zn1F 1_555 1_555
O7A Zn2G 1_555 1_555
H1F O7F 1_555 1_555
H1G O7G 1_555 1_555
H1F_2 O7F_2 1_555 1_555
H1A O7A 1_555 1_555
N1G C2G 1_555 1_555
N2G H2G 1_555 1_555
H3G N2G 1_555 1_555
N3G Zn2 1_555 1_555
N4G H4G 1_555 1_555
H5G N4G 1_555 1_555
N5G H6G 1_555 1_555
N6G Zn1G 1_555 1_555
N6F Zn1F 1_555 1_555
C1F C3F 1_555 1_555
C2G N2G 1_555 1_555
C3F C7F 1_555 1_555
C4G N3G 1_555 1_555
C5G N5G 1_555 1_555
C6G N1G 1_555 1_555
C7F H7F 1_555 1_555
C8G N5G 1_555 1_555
H8G C8G 1_555 1_555
C9F C7F 1_555 1_555
H9F C9F 1_555 1_555
C10F C9F 1_555 1_555
C11F O4F 1_555 1_555
C12F C10F 1_555 1_555
H10F C12F 1_555 1_555
C13F C3F 1_555 1_555
H11F C13F 1_555 1_555
C14F O5F 1_555 1_555
C15F C14F 1_555 1_555
C16F C17 1_555 1_555
H12F C16F 1_555 1_555
C17F C16 1_555 1_555
H13F C17F 1_555 1_555
O7 Zn2G 1_555 1_555
N3 Zn2G 1_555 1_555
N4 C6 1_555 1_555
N6 C4 1_555 1_555
N6 C8 1_555 1_555
C4 C5 1_555 1_555
C5 C6 1_555 1_555
C10 C11 1_555 1_555
C12 C13 1_555 1_555
Zn2F O7A 1_555 1_555
Zn2A O7F_2 1_555 1_555
Zn2A_2 O7G 1_555 1_555
N3G C2G 1_555 1_555
N4G C6G 1_555 1_555
N6G C4G 1_555 1_555
N6G C8G 1_555 1_555
C4G C5G 1_555 1_555
C5G C6G 1_555 1_555
C10F C11F 1_555 1_555
C12F C13F 1_555 1_555
C15F C16F 1_555 1_555
C15F C17F 1_555 1_555

#END
