
#######################################################################
#
#                 Cambridge Crystallographic Data Centre
#                                CCDC 
#
#######################################################################
#
# If this CIF has been generated from an entry in the Cambridge 
# Structural Database, then it will include bibliographic, chemical, 
# crystal, experimental, refinement or atomic coordinate data resulting 
# from the CCDC's data processing and validation procedures.
#
#######################################################################

data_QUDLIL
_symmetry_cell_setting           monoclinic
_symmetry_space_group_name_H-M   'P 21/n'
_symmetry_Int_Tables_number      14
_space_group_name_Hall           '-P 2yn'
loop_
_symmetry_equiv_pos_site_id
_symmetry_equiv_pos_as_xyz
1 x,y,z
2 1/2-x,1/2+y,1/2-z
3 -x,-y,-z
4 1/2+x,1/2-y,1/2+z
_cell_length_a                   11.562(10)
_cell_length_b                   18.771(15)
_cell_length_c                   11.794(9)
_cell_angle_alpha                90
_cell_angle_beta                 101.390(12)
_cell_angle_gamma                90
_cell_volume                     2509.24
loop_
_atom_site_label
_atom_site_type_symbol
_atom_site_fract_x
_atom_site_fract_y
_atom_site_fract_z
Ag1 Ag 0.87676(5) 0.03595(3) 0.50189(4)
Ag2 Ag 0.59911(5) 0.01860(3) 0.44880(6)
O1 O 1.0385(4) 0.1222(3) 0.5407(4)
O2 O 0.6464(4) -0.1014(3) 0.5003(5)
H1 H 0.5875 -0.1263 0.4811
H2 H 0.7107 -0.1300 0.5077
O3 O 1.1594(4) 0.1946(4) 0.4736(5)
O4 O 0.6879(4) 0.1191(3) 0.5023(5)
O5 O 0.5544(4) 0.1858(3) 0.5653(4)
N1 N 0.7906(4) 0.0293(3) 0.3150(4)
N2 N 0.5426(5) 0.0105(3) -0.2886(5)
N3 N 0.9122(5) 0.0159(3) 0.6931(4)
C1 C 0.8562(5) 0.2377(3) 0.4597(5)
C2 C 0.9552(5) 0.2159(3) 0.4136(5)
C3 C 0.9541(5) 0.2286(3) 0.2958(5)
H3 H 1.0207 0.2168 0.2666
C4 C 0.8588(6) 0.2577(3) 0.2219(5)
H4 H 0.8598 0.2637 0.1438
C5 C 0.7598(6) 0.2781(3) 0.2670(5)
H5 H 0.6942 0.2976 0.2186
C6 C 0.7604(5) 0.2690(3) 0.3837(5)
H6 H 0.6954 0.2841 0.4128
C7 C 0.8548(4) 0.2370(3) 0.5858(5)
C8 C 0.7574(5) 0.2121(3) 0.6303(5)
C9 C 0.7564(5) 0.2219(3) 0.7485(5)
H7 H 0.6903 0.2083 0.7772
C10 C 0.8522(6) 0.2513(4) 0.8223(5)
H8 H 0.8513 0.2556 0.9007
C11 C 0.9498(6) 0.2743(3) 0.7803(6)
H9 H 1.0146 0.2940 0.8299
C12 C 0.9489(5) 0.2676(3) 0.6629(5)
H10 H 1.0135 0.2840 0.6346
C13 C 1.0592(5) 0.1748(3) 0.4840(5)
C14 C 0.6570(5) 0.1700(3) 0.5592(5)
C15 C 0.7532(6) 0.0882(3) 0.2555(5)
H11 H 0.7578 0.1313 0.2950
C16 C 0.7078(6) 0.0882(3) 0.1375(5)
H12 H 0.6857 0.1309 0.0991
C17 C 0.6952(5) 0.0238(3) 0.0761(5)
C18 C 0.7325(7) -0.0371(3) 0.1396(6)
H13 H 0.7250 -0.0813 0.1033
C19 C 0.7810(7) -0.0325(4) 0.2571(6)
H14 H 0.8078 -0.0740 0.2970
C20 C 0.5308(7) 0.0690(4) -0.2267(6)
H15 H 0.4873 0.1069 -0.2640
C21 C 0.5802(7) 0.0761(3) -0.1093(6)
H16 H 0.5697 0.1179 -0.0703
C22 C 0.6451(5) 0.0202(3) -0.0512(5)
C23 C 0.6583(8) -0.0395(4) -0.1159(6)
H17 H 0.7008 -0.0784 -0.0807
C24 C 0.6088(8) -0.0419(4) -0.2327(6)
H18 H 0.6222 -0.0821 -0.2744
C25 C 0.9352(8) 0.0731(4) 0.7620(6)
H19 H 0.9288 0.1179 0.7279
C26 C 0.9680(7) 0.0690(4) 0.8809(6)
H20 H 0.9820 0.1106 0.9243
C27 C 0.9805(6) 0.0028(4) 0.9364(5)
C28 C 0.9590(8) -0.0564(4) 0.8646(6)
H21 H 0.9680 -0.1019 0.8961
C29 C 0.9242(8) -0.0477(4) 0.7463(6)
H22 H 0.9082 -0.0883 0.7009
Ag1B Ag 1.12324(5) -0.03595(3) 1.49811(4)
Ag1B_2 Ag 0.12324(5) -0.03595(3) -0.50189(4)
Ag2B Ag 0.40089(5) -0.01860(3) -0.44880(6)
Ag2B_2 Ag 1.40089(5) -0.01860(3) 1.55120(6)
O1B O 0.9615(4) -0.1222(3) 1.4593(4)
O2B O 0.3536(4) 0.1014(3) -0.5003(5)
H1B H 0.4125 0.1263 -0.4811
H2B H 0.2893 0.1300 -0.5077
O3B O 0.8406(4) -0.1946(4) 1.5264(5)
O4B O 1.3121(4) -0.1191(3) 1.4977(5)
O4B_2 O 0.3121(4) -0.1191(3) -0.5023(5)
O5B O 1.4456(4) -0.1858(3) 1.4347(4)
N1B N 0.2094(4) -0.0293(3) -0.3150(4)
N1B_2 N 1.2094(4) -0.0293(3) 1.6850(4)
N2B N 0.4574(5) -0.0105(3) 0.2886(5)
N3B N 1.0878(5) -0.0159(3) 1.3069(4)
C1B C 1.1438(5) -0.2377(3) 1.5403(5)
C2B C 1.0448(5) -0.2159(3) 1.5864(5)
C3B C 1.0459(5) -0.2286(3) 1.7042(5)
H3B H 0.9793 -0.2168 1.7334
C4B C 1.1412(6) -0.2577(3) 1.7781(5)
H4B H 1.1402 -0.2637 1.8562
C5B C 1.2402(6) -0.2781(3) 1.7330(5)
H5B H 1.3058 -0.2976 1.7814
C6B C 1.2396(5) -0.2690(3) 1.6163(5)
H6B H 1.3046 -0.2841 1.5872
C7B C 1.1452(4) -0.2370(3) 1.4142(5)
C8B C 1.2426(5) -0.2121(3) 1.3697(5)
C9B C 1.2436(5) -0.2219(3) 1.2515(5)
H7B H 1.3097 -0.2083 1.2228
C10B C 1.1478(6) -0.2513(4) 1.1777(5)
H8B H 1.1487 -0.2556 1.0993
C11B C 1.0502(6) -0.2743(3) 1.2197(6)
H9B H 0.9854 -0.2940 1.1701
C12B C 1.0511(5) -0.2676(3) 1.3371(5)
H10B H 0.9865 -0.2840 1.3654
C13B C 0.9408(5) -0.1748(3) 1.5160(5)
C14B C 1.3430(5) -0.1700(3) 1.4408(5)
C15B C 0.2468(6) -0.0882(3) -0.2555(5)
H11B H 0.2422 -0.1313 -0.2950
C16B C 0.2922(6) -0.0882(3) -0.1375(5)
H12B H 0.3143 -0.1309 -0.0991
C17B C 0.3048(5) -0.0238(3) -0.0761(5)
C18B C 0.2675(7) 0.0371(3) -0.1396(6)
H13B H 0.2750 0.0813 -0.1033
C19B C 0.2190(7) 0.0325(4) -0.2571(6)
H14B H 0.1922 0.0740 -0.2970
C20B C 0.4692(7) -0.0690(4) 0.2267(6)
H15B H 0.5127 -0.1069 0.2640
C21B C 0.4198(7) -0.0761(3) 0.1093(6)
H16B H 0.4303 -0.1179 0.0703
C22B C 0.3549(5) -0.0202(3) 0.0512(5)
C23B C 0.3417(8) 0.0395(4) 0.1159(6)
H17B H 0.2992 0.0784 0.0807
C24B C 0.3912(8) 0.0419(4) 0.2327(6)
H18B H 0.3778 0.0821 0.2744
C25B C 1.0648(8) -0.0731(4) 1.2380(6)
H19B H 1.0712 -0.1179 1.2721
C26B C 1.0320(7) -0.0690(4) 1.1191(6)
H20B H 1.0180 -0.1106 1.0757
C27B C 1.0195(6) -0.0028(4) 1.0636(5)
C28B C 1.0410(8) 0.0564(4) 1.1354(6)
H21B H 1.0320 0.1019 1.1039
C29B C 1.0758(8) 0.0477(4) 1.2537(6)
H22B H 1.0918 0.0883 1.2991
loop_
_geom_bond_atom_site_label_1
_geom_bond_atom_site_label_2
_geom_bond_site_symmetry_1
_geom_bond_site_symmetry_2
Ag1 O1 1_555 1_555
Ag2 O2 1_555 1_555
O1 C13 1_555 1_555
O2 H1 1_555 1_555
H2 O2 1_555 1_555
O3 C13 1_555 1_555
O4 Ag2 1_555 1_555
O5 C14 1_555 1_555
N1 Ag1 1_555 1_555
N2 C20 1_555 1_555
N3 Ag1 1_555 1_555
C1 C2 1_555 1_555
C2 C3 1_555 1_555
C3 H3 1_555 1_555
C4 C3 1_555 1_555
H4 C4 1_555 1_555
C5 C4 1_555 1_555
H5 C5 1_555 1_555
C6 C1 1_555 1_555
H6 C6 1_555 1_555
C7 C1 1_555 1_555
C8 C7 1_555 1_555
C9 C8 1_555 1_555
H7 C9 1_555 1_555
C10 C9 1_555 1_555
H8 C10 1_555 1_555
C11 C10 1_555 1_555
H9 C11 1_555 1_555
C12 C7 1_555 1_555
H10 C12 1_555 1_555
C13 C2 1_555 1_555
C14 O4 1_555 1_555
C15 N1 1_555 1_555
H11 C15 1_555 1_555
C16 C15 1_555 1_555
H12 C16 1_555 1_555
C17 C16 1_555 1_555
C18 C17 1_555 1_555
H13 C18 1_555 1_555
C19 N1 1_555 1_555
H14 C19 1_555 1_555
C20 H15 1_555 1_555
C21 C20 1_555 1_555
H16 C21 1_555 1_555
C22 C17 1_555 1_555
C23 C22 1_555 1_555
H17 C23 1_555 1_555
C24 N2 1_555 1_555
H18 C24 1_555 1_555
C25 N3 1_555 1_555
H19 C25 1_555 1_555
C26 C25 1_555 1_555
H20 C26 1_555 1_555
C27 C26 1_555 1_555
C28 C27 1_555 1_555
H21 C28 1_555 1_555
C29 N3 1_555 1_555
H22 C29 1_555 1_555
Ag1B O1B 1_555 1_555
Ag1B_2 N1B 1_555 1_555
Ag2B N2 1_555 1_555
Ag2B_2 O4B 1_555 1_555
O1B C13B 1_555 1_555
O2B Ag2B 1_555 1_555
H1B O2B 1_555 1_555
H2B O2B 1_555 1_555
O3B C13B 1_555 1_555
O4B C14B 1_555 1_555
O4B_2 Ag2B 1_555 1_555
O5B C14B 1_555 1_555
N1B C15B 1_555 1_555
N1B_2 Ag1B 1_555 1_555
N2B Ag2 1_555 1_555
N3B Ag1B 1_555 1_555
C1B C2B 1_555 1_555
C2B C3B 1_555 1_555
C3B H3B 1_555 1_555
C4B C3B 1_555 1_555
H4B C4B 1_555 1_555
C5B C4B 1_555 1_555
H5B C5B 1_555 1_555
C6B C1B 1_555 1_555
H6B C6B 1_555 1_555
C7B C1B 1_555 1_555
C8B C7B 1_555 1_555
C9B C8B 1_555 1_555
H7B C9B 1_555 1_555
C10B C9B 1_555 1_555
H8B C10B 1_555 1_555
C11B C10B 1_555 1_555
H9B C11B 1_555 1_555
C12B C7B 1_555 1_555
H10B C12B 1_555 1_555
C13B C2B 1_555 1_555
C14B C8B 1_555 1_555
C15B H11B 1_555 1_555
C16B C15B 1_555 1_555
H12B C16B 1_555 1_555
C17B C16B 1_555 1_555
C18B C17B 1_555 1_555
H13B C18B 1_555 1_555
C19B N1B 1_555 1_555
H14B C19B 1_555 1_555
C20B N2B 1_555 1_555
H15B C20B 1_555 1_555
C21B C20B 1_555 1_555
H16B C21B 1_555 1_555
C22B C17B 1_555 1_555
C23B C22B 1_555 1_555
H17B C23B 1_555 1_555
C24B N2B 1_555 1_555
H18B C24B 1_555 1_555
C25B N3B 1_555 1_555
H19B C25B 1_555 1_555
C26B C25B 1_555 1_555
H20B C26B 1_555 1_555
C27B C27 1_555 1_555
C28B C27B 1_555 1_555
H21B C28B 1_555 1_555
C29B N3B 1_555 1_555
H22B C29B 1_555 1_555
C5 C6 1_555 1_555
C8 C14 1_555 1_555
C11 C12 1_555 1_555
C18 C19 1_555 1_555
C21 C22 1_555 1_555
C23 C24 1_555 1_555
C28 C29 1_555 1_555
C5B C6B 1_555 1_555
C11B C12B 1_555 1_555
C18B C19B 1_555 1_555
C21B C22B 1_555 1_555
C23B C24B 1_555 1_555
C26B C27B 1_555 1_555
C28B C29B 1_555 1_555

#END
