
#######################################################################
#
#                 Cambridge Crystallographic Data Centre
#                                CCDC 
#
#######################################################################
#
# If this CIF has been generated from an entry in the Cambridge 
# Structural Database, then it will include bibliographic, chemical, 
# crystal, experimental, refinement or atomic coordinate data resulting 
# from the CCDC's data processing and validation procedures.
#
#######################################################################

data_QUDLAD
_symmetry_cell_setting           monoclinic
_symmetry_space_group_name_H-M   'P 21/c'
_symmetry_Int_Tables_number      14
_space_group_name_Hall           '-P 2ybc'
loop_
_symmetry_equiv_pos_site_id
_symmetry_equiv_pos_as_xyz
1 x,y,z
2 -x,1/2+y,1/2-z
3 -x,-y,-z
4 x,1/2-y,1/2+z
_cell_length_a                   11.0461(3)
_cell_length_b                   24.5548(6)
_cell_length_c                   7.8992(2)
_cell_angle_alpha                90
_cell_angle_beta                 106.97
_cell_angle_gamma                90
_cell_volume                     2049.25
loop_
_atom_site_label
_atom_site_type_symbol
_atom_site_fract_x
_atom_site_fract_y
_atom_site_fract_z
Cd1 Cd 0.742933(14) 0.668925(6) 0.34730(2)
O1 O 0.58599(15) 0.73501(7) 0.2393(3)
O2 O 0.51962(15) 0.65448(7) 0.2903(3)
O3 O -0.10697(16) 0.74147(8) -0.0931(3)
O4 O -0.04329(16) 0.82584(7) -0.0342(3)
O7 O 0.72655(19) 0.68614(8) 0.6281(2)
H1 H 0.6477 0.6916 0.6096
H2 H 0.7770 0.7079 0.6983
O8 O 0.7655(2) 0.66464(8) 0.0676(3)
H3 H 0.7979 0.6899 0.0215
H4 H 0.7564 0.6338 0.0167
N1 N 1.01182(17) 0.49442(7) 0.2362(2)
H5 H 1.0780 0.4957 0.1999
N2 N 1.0268(2) 0.40127(8) 0.2223(3)
H6 H 1.1042 0.4055 0.2080
H7 H 1.0173 0.3690 0.2706
N3 N 0.86223(18) 0.43715(7) 0.3113(3)
N4 N 1.01825(19) 0.58786(8) 0.2496(3)
H8 H 1.0863 0.5869 0.2176
H9 H 0.9878 0.6186 0.2693
N5 N 0.76959(17) 0.57427(8) 0.3651(3)
N6 N 0.70620(17) 0.48977(8) 0.3963(3)
H10 H 0.6614 0.4638 0.4200
C1 C 0.9640(2) 0.44434(9) 0.2581(3)
C2 C 0.81135(19) 0.48419(9) 0.3404(3)
C3 C 0.85090(19) 0.53701(9) 0.3220(3)
C4 C 0.9606(2) 0.54207(9) 0.2686(3)
C5 C 0.6856(2) 0.54371(10) 0.4076(3)
H11 H 0.6183 0.5578 0.4421
C6 C 0.4975(2) 0.70302(10) 0.2374(3)
C7 C 0.3629(2) 0.72194(9) 0.1719(3)
C8 C 0.2646(2) 0.68489(11) 0.1259(4)
H12 H 0.2820 0.6478 0.1400
C9 C 0.3349(2) 0.77698(10) 0.1567(4)
H13 H 0.4000 0.8024 0.1892
C10 C -0.0208(2) 0.77542(10) -0.0342(3)
C11 C 0.1137(2) 0.75699(9) 0.0414(3)
C12 C 0.1414(2) 0.70211(10) 0.0594(4)
H14 H 0.0765 0.6766 0.0265
C13 C 0.2109(2) 0.79447(10) 0.0934(4)
H15 H 0.1929 0.8315 0.0858
Cd1C Cd -0.257067(14) 0.831075(6) -0.15270(2)
O3C O 0.89303(16) 0.75853(8) 0.4069(3)
O4C O 0.95671(16) 0.67416(7) 0.4658(3)
O5 O 0.74011(18) 0.57416(8) 0.8550(3)
O6 O 0.78066(17) 0.48603(7) 0.8489(3)
C14 C 0.7167(2) 0.52527(10) 0.8779(3)
C15 C 0.6040(2) 0.51237(9) 0.9413(3)
C16 C 0.5734(2) 0.45862(10) 0.9636(3)
H16 H 0.6226 0.4307 0.9389
C17 C 0.5299(2) 0.55378(10) 0.9776(3)
H17 H 0.5496 0.5899 0.9624
O5B O 0.25989(18) 0.42584(8) 1.1450(3)
O6B O 0.21934(17) 0.51397(7) 1.1511(3)
C14B C 0.2833(2) 0.47473(10) 1.1221(3)
C15B C 0.3960(2) 0.48763(9) 1.0587(3)
C16B C 0.4266(2) 0.54138(10) 1.0364(3)
H16B H 0.3774 0.5693 1.0611
C17B C 0.4701(2) 0.44622(10) 1.0224(3)
H17B H 0.4504 0.4101 1.0376
O9 O 0.4625(3) 0.59555(11) 0.5660(5)
O10? O 0.3878(10) 0.5854(4) 0.4279(15)
loop_
_geom_bond_atom_site_label_1
_geom_bond_atom_site_label_2
_geom_bond_site_symmetry_1
_geom_bond_site_symmetry_2
Cd1 O1 1_555 1_555
O1 C6 1_555 1_555
O2 Cd1 1_555 1_555
O3 C10 1_555 1_555
O4 C10 1_555 1_555
O5 C14 1_555 1_555
O6 C14 1_555 1_555
O7 Cd1 1_555 1_555
H1 O7 1_555 1_555
H2 O7 1_555 1_555
O8 Cd1 1_555 1_555
H3 O8 1_555 1_555
H4 O8 1_555 1_555
N1 H5 1_555 1_555
N2 H6 1_555 1_555
H7 N2 1_555 1_555
N3 C1 1_555 1_555
N4 H8 1_555 1_555
H9 N4 1_555 1_555
N5 Cd1 1_555 1_555
N6 H10 1_555 1_555
C1 N1 1_555 1_555
C2 N3 1_555 1_555
C3 N5 1_555 1_555
C4 N1 1_555 1_555
C5 N5 1_555 1_555
H11 C5 1_555 1_555
C6 O2 1_555 1_555
C7 C6 1_555 1_555
C8 C7 1_555 1_555
H12 C8 1_555 1_555
C9 C7 1_555 1_555
H13 C9 1_555 1_555
C10 C11 1_555 1_555
C11 C12 1_555 1_555
C12 C8 1_555 1_555
H14 C12 1_555 1_555
C13 C9 1_555 1_555
H15 C13 1_555 1_555
C14 C15 1_555 1_555
C15 C16 1_555 1_555
C16 H16 1_555 1_555
C17 C15 1_555 1_555
H17 C17 1_555 1_555
Cd1C O3 1_555 1_555
O3C Cd1 1_555 1_555
O4C Cd1 1_555 1_555
O5B C14B 1_555 1_555
O6B C14B 1_555 1_555
C14B C15B 1_555 1_555
C15B C16B 1_555 1_555
C16B C17 1_555 1_555
H16B C16B 1_555 1_555
C17B C16 1_555 1_555
H17B C17B 1_555 1_555
O4 Cd1C 1_555 1_555
N2 C1 1_555 1_555
N4 C4 1_555 1_555
N6 C2 1_555 1_555
N6 C5 1_555 1_555
C2 C3 1_555 1_555
C3 C4 1_555 1_555
C11 C13 1_555 1_555
C15B C17B 1_555 1_555

#END
