
#######################################################################
#
#                 Cambridge Crystallographic Data Centre
#                                CCDC 
#
#######################################################################
#
# If this CIF has been generated from an entry in the Cambridge 
# Structural Database, then it will include bibliographic, chemical, 
# crystal, experimental, refinement or atomic coordinate data resulting 
# from the CCDC's data processing and validation procedures.
#
#######################################################################

data_QUDLUX
_symmetry_cell_setting           triclinic
_symmetry_space_group_name_H-M   'P -1'
_symmetry_Int_Tables_number      2
_space_group_name_Hall           '-P 1'
loop_
_symmetry_equiv_pos_site_id
_symmetry_equiv_pos_as_xyz
1 x,y,z
2 -x,-y,-z
_cell_length_a                   8.904(3)
_cell_length_b                   9.342(3)
_cell_length_c                   13.430(4)
_cell_angle_alpha                73.67(2)
_cell_angle_beta                 84.83(2)
_cell_angle_gamma                77.49(3)
_cell_volume                     1046.1
loop_
_atom_site_label
_atom_site_type_symbol
_atom_site_fract_x
_atom_site_fract_y
_atom_site_fract_z
Ag1 Ag 0.86989(3) -0.08246(3) 0.48366(3)
N1 N 0.6659(3) 0.0938(3) 0.4922(3)
N2 N 0.0462(3) 0.7106(3) 0.4950(3)
C15 C 0.5979(5) 0.1787(7) 0.4085(4)
H9 H 0.6353 0.1590 0.3457
C16 C 0.4727(5) 0.2972(7) 0.4065(4)
H10 H 0.4312 0.3561 0.3434
C17 C 0.4110(4) 0.3276(4) 0.4949(3)
C18 C 0.4785(7) 0.2366(6) 0.5823(4)
H11 H 0.4393 0.2498 0.6464
C19 C 0.6066(7) 0.1228(5) 0.5777(4)
H12 H 0.6523 0.0641 0.6396
C20 C 0.1051(7) 0.6797(5) 0.4094(4)
H13 H 0.0665 0.7443 0.3469
C21 C 0.2218(8) 0.5565(5) 0.4060(4)
H14 H 0.2595 0.5405 0.3423
C22 C 0.2815(4) 0.4590(4) 0.4951(3)
C23 C 0.2186(6) 0.4910(7) 0.5829(4)
H15 H 0.2539 0.4280 0.6468
C24 C 0.1018(6) 0.6168(7) 0.5794(4)
H16 H 0.0610 0.6347 0.6420
Ag1A Ag 1.13011(3) 0.08246(3) 0.51634(3)
Ag1_2 Ag -0.13011(3) 0.91754(3) 0.48366(3)
N2_2 N 1.0462(3) -0.2894(3) 0.4950(3)
O1 O 0.8469(3) -0.0124(3) 0.2827(3)
O2 O 1.0488(3) 0.0725(3) 0.3118(2)
O3 O 1.2034(3) 0.2782(3) 0.2462(2)
O4 O 1.4146(3) 0.3353(3) 0.1609(2)
C1 C 1.0732(4) 0.1769(4) 0.0813(3)
C2 C 0.9416(4) 0.1720(4) 0.1464(3)
C3 C 0.8035(4) 0.2715(4) 0.1115(4)
H1 H 0.7153 0.2667 0.1540
C4 C 0.7956(5) 0.3756(4) 0.0162(4)
H2 H 0.7036 0.4431 -0.0048
C5 C 0.9246(5) 0.3796(5) -0.0481(4)
H3 H 0.9199 0.4489 -0.1133
C6 C 1.0613(5) 0.2807(4) -0.0158(3)
H4 H 1.1476 0.2839 -0.0603
C7 C 1.2239(4) 0.0693(4) 0.1099(3)
C8 C 1.3439(4) 0.1095(4) 0.1491(3)
C9 C 1.4879(4) 0.0126(5) 0.1608(3)
H5 H 1.5693 0.0415 0.1838
C10 C 1.5103(5) -0.1254(5) 0.1385(3)
H6 H 1.6062 -0.1903 0.1477
C11 C 1.3927(6) -0.1675(6) 0.1030(4)
H7 H 1.4078 -0.2620 0.0894
C12 C 1.2501(5) -0.0698(5) 0.0872(3)
H8 H 1.1712 -0.0982 0.0610
C13 C 0.9449(4) 0.0683(4) 0.2535(3)
C14 C 1.3230(4) 0.2514(4) 0.1839(3)
H17 H 1.152(7) 0.207(6) 0.270(5)
loop_
_geom_bond_atom_site_label_1
_geom_bond_atom_site_label_2
_geom_bond_site_symmetry_1
_geom_bond_site_symmetry_2
Ag1 N1 1_555 1_555
N1 C15 1_555 1_555
N2 C20 1_555 1_555
O1 C13 1_555 1_555
O2 C13 1_555 1_555
O3 C14 1_555 1_555
O4 C14 1_555 1_555
C1 C2 1_555 1_555
C2 C3 1_555 1_555
C3 H1 1_555 1_555
C4 C3 1_555 1_555
H2 C4 1_555 1_555
C5 C4 1_555 1_555
H3 C5 1_555 1_555
C6 C1 1_555 1_555
H4 C6 1_555 1_555
C7 C1 1_555 1_555
C8 C7 1_555 1_555
C9 C8 1_555 1_555
H5 C9 1_555 1_555
C10 C9 1_555 1_555
H6 C10 1_555 1_555
C11 C10 1_555 1_555
H7 C11 1_555 1_555
C12 C7 1_555 1_555
H8 C12 1_555 1_555
C13 C2 1_555 1_555
C14 C8 1_555 1_555
C15 H9 1_555 1_555
C16 C15 1_555 1_555
H10 C16 1_555 1_555
C17 C16 1_555 1_555
C18 C17 1_555 1_555
H11 C18 1_555 1_555
C19 N1 1_555 1_555
H12 C19 1_555 1_555
C20 H13 1_555 1_555
C21 C20 1_555 1_555
H14 C21 1_555 1_555
C22 C17 1_555 1_555
C23 C22 1_555 1_555
H15 C23 1_555 1_555
C24 N2 1_555 1_555
H16 C24 1_555 1_555
H17 O3 1_555 1_555
Ag1A Ag1 1_555 1_555
Ag1_2 N2 1_555 1_555
N2_2 Ag1 1_555 1_555
C5 C6 1_555 1_555
C11 C12 1_555 1_555
C18 C19 1_555 1_555
C21 C22 1_555 1_555
C23 C24 1_555 1_555

#END
