
#######################################################################
#
#                 Cambridge Crystallographic Data Centre
#                                CCDC 
#
#######################################################################
#
# If this CIF has been generated from an entry in the Cambridge 
# Structural Database, then it will include bibliographic, chemical, 
# crystal, experimental, refinement or atomic coordinate data resulting 
# from the CCDC's data processing and validation procedures.
#
#######################################################################

data_QUDLOR
_symmetry_cell_setting           monoclinic
_symmetry_space_group_name_H-M   'C 2/c'
_symmetry_Int_Tables_number      15
_space_group_name_Hall           '-C 2yn'
loop_
_symmetry_equiv_pos_site_id
_symmetry_equiv_pos_as_xyz
1 x,y,z
2 -x,y,1/2-z
3 1/2+x,1/2+y,z
4 1/2-x,1/2+y,1/2-z
5 -x,-y,-z
6 x,-y,1/2+z
7 1/2-x,1/2-y,-z
8 1/2+x,1/2-y,1/2+z
_cell_length_a                   29.487(3)
_cell_length_b                   14.8474(12)
_cell_length_c                   7.5179(6)
_cell_angle_alpha                90
_cell_angle_beta                 99.635(3)
_cell_angle_gamma                90
_cell_volume                     3244.95
loop_
_atom_site_label
_atom_site_type_symbol
_atom_site_fract_x
_atom_site_fract_y
_atom_site_fract_z
Ag1 Ag 0.0000 0.227989(17) 0.2500
Ag2 Ag 0.0000 0.028690(18) 0.2500
O1 O 0.07082(5) 0.19821(11) 0.1952(2)
O2 O 0.06634(6) 0.04819(12) 0.1714(3)
O3 O 0.11661(6) 0.32936(12) 0.0635(2)
H1 H 0.1025 0.2924 0.1144
O4 O 0.17607(8) 0.42009(13) 0.1350(3)
N1 N 0.0000 0.86679(18) 0.2500
N2 N 0.0000 0.38886(18) 0.2500
C1 C 0.17118(7) 0.16809(14) 0.2442(3)
C2 C 0.16362(7) 0.22926(14) 0.3948(3)
C3 C 0.13650(7) 0.11592(14) 0.1427(3)
C4 C 0.15860(7) 0.32221(14) 0.3666(3)
C5 C 0.15785(8) 0.38047(15) 0.5098(3)
H2 H 0.1561 0.4423 0.4897
C6 C 0.14712(8) 0.05773(15) 0.0103(3)
H3 H 0.1241 0.0225 -0.0554
C7 C 0.19153(8) 0.05196(16) -0.0241(3)
H4 H 0.1983 0.0136 -0.1140
C8 C 0.15973(8) 0.34712(17) 0.6823(3)
H5 H 0.1585 0.3862 0.7781
C9 C 0.16347(8) 0.25559(17) 0.7115(3)
H6 H 0.1641 0.2327 0.8270
C10 C 0.22597(8) 0.10296(17) 0.0747(3)
H7 H 0.2560 0.0987 0.0522
C11 C 0.16627(8) 0.19742(16) 0.5694(3)
H8 H 0.1700 0.1360 0.5917
C12 C 0.21572(8) 0.16042(16) 0.2073(3)
H9 H 0.2391 0.1947 0.2732
C13 C 0.15216(9) 0.36132(15) 0.1804(3)
C14 C 0.08737(7) 0.12104(15) 0.1730(3)
C15 C 0.03522(8) 0.82033(16) 0.2075(4)
H10 H 0.0600 0.8520 0.1766
C16 C 0.03682(8) 0.72698(15) 0.2068(3)
H11 H 0.0624 0.6972 0.1777
C17 C 0.0000 0.6785(2) 0.2500
C18 C 0.0000 0.5782(2) 0.2500
C19 C -0.03955(8) 0.52911(15) 0.1848(3)
H12 H -0.0669 0.5586 0.1404
C20 C -0.03773(8) 0.43586(15) 0.1866(3)
H13 H -0.0644 0.4043 0.1409
Ag2_2 Ag 0.0000 1.028690(18) 0.2500
O1A O -0.07082(5) 0.19821(11) 0.3048(2)
O2A O -0.06634(6) 0.04819(12) 0.3286(3)
O3A O -0.11661(6) 0.32936(12) 0.4365(2)
H1A H -0.1025 0.2924 0.3856
O4A O -0.17607(8) 0.42009(13) 0.3650(3)
N1_2 N 0.0000 -0.13321(18) 0.2500
C1A C -0.17118(7) 0.16809(14) 0.2558(3)
C2A C -0.16362(7) 0.22926(14) 0.1052(3)
C3A C -0.13650(7) 0.11592(14) 0.3573(3)
C4A C -0.15860(7) 0.32221(14) 0.1334(3)
C5A C -0.15785(8) 0.38047(15) -0.0098(3)
H2A H -0.1561 0.4423 0.0103
C6A C -0.14712(8) 0.05773(15) 0.4897(3)
H3A H -0.1241 0.0225 0.5554
C7A C -0.19153(8) 0.05196(16) 0.5241(3)
H4A H -0.1983 0.0136 0.6140
C8A C -0.15973(8) 0.34712(17) -0.1823(3)
H5A H -0.1585 0.3862 -0.2781
C9A C -0.16347(8) 0.25559(17) -0.2115(3)
H6A H -0.1641 0.2327 -0.3270
C10A C -0.22597(8) 0.10296(17) 0.4253(3)
H7A H -0.2560 0.0987 0.4478
C11A C -0.16627(8) 0.19742(16) -0.0694(3)
H8A H -0.1700 0.1360 -0.0917
C12A C -0.21572(8) 0.16042(16) 0.2927(3)
H9A H -0.2391 0.1947 0.2268
C13A C -0.15216(9) 0.36132(15) 0.3196(3)
C14A C -0.08737(7) 0.12104(15) 0.3270(3)
C15A C -0.03522(8) 0.82033(16) 0.2925(4)
H10A H -0.0600 0.8520 0.3234
C16A C -0.03682(8) 0.72698(15) 0.2932(3)
H11A H -0.0624 0.6972 0.3223
C19A C 0.03955(8) 0.52911(15) 0.3152(3)
H12A H 0.0669 0.5586 0.3596
C20A C 0.03773(8) 0.43586(15) 0.3134(3)
H13A H 0.0644 0.4043 0.3591
loop_
_geom_bond_atom_site_label_1
_geom_bond_atom_site_label_2
_geom_bond_site_symmetry_1
_geom_bond_site_symmetry_2
Ag1 O1 1_555 1_555
Ag2 O2 1_555 1_555
O1 C14 1_555 1_555
O2 C14 1_555 1_555
O3 H1 1_555 1_555
O4 C13 1_555 1_555
N1 C15 1_555 1_555
N2 Ag1 1_555 1_555
C1 C2 1_555 1_555
C2 C4 1_555 1_555
C3 C1 1_555 1_555
C4 C5 1_555 1_555
C5 H2 1_555 1_555
C6 C3 1_555 1_555
H3 C6 1_555 1_555
C7 C6 1_555 1_555
H4 C7 1_555 1_555
C8 C5 1_555 1_555
H5 C8 1_555 1_555
C9 C8 1_555 1_555
H6 C9 1_555 1_555
C10 C7 1_555 1_555
H7 C10 1_555 1_555
C11 C2 1_555 1_555
H8 C11 1_555 1_555
C12 C1 1_555 1_555
H9 C12 1_555 1_555
C13 O3 1_555 1_555
C14 C3 1_555 1_555
C15 H10 1_555 1_555
C16 C15 1_555 1_555
H11 C16 1_555 1_555
C17 C16 1_555 1_555
C18 C17 1_555 1_555
C19 C18 1_555 1_555
H12 C19 1_555 1_555
C20 N2 1_555 1_555
H13 C20 1_555 1_555
Ag2_2 N1 1_555 1_555
O1A Ag1 1_555 1_555
O2A Ag2 1_555 1_555
O3A H1A 1_555 1_555
O4A C13A 1_555 1_555
N1_2 Ag2 1_555 1_555
C1A C2A 1_555 1_555
C2A C4A 1_555 1_555
C3A C1A 1_555 1_555
C4A C5A 1_555 1_555
C5A H2A 1_555 1_555
C6A C3A 1_555 1_555
H3A C6A 1_555 1_555
C7A C6A 1_555 1_555
H4A C7A 1_555 1_555
C8A C5A 1_555 1_555
H5A C8A 1_555 1_555
C9A C8A 1_555 1_555
H6A C9A 1_555 1_555
C10A C7A 1_555 1_555
H7A C10A 1_555 1_555
C11A C2A 1_555 1_555
H8A C11A 1_555 1_555
C12A C1A 1_555 1_555
H9A C12A 1_555 1_555
C13A O3A 1_555 1_555
C14A O1A 1_555 1_555
C15A N1 1_555 1_555
H10A C15A 1_555 1_555
C16A C17 1_555 1_555
H11A C16A 1_555 1_555
C19A C18 1_555 1_555
H12A C19A 1_555 1_555
C20A N2 1_555 1_555
H13A C20A 1_555 1_555
C4 C13 1_555 1_555
C9 C11 1_555 1_555
C10 C12 1_555 1_555
C19 C20 1_555 1_555
O2A C14A 1_555 1_555
C3A C14A 1_555 1_555
C4A C13A 1_555 1_555
C9A C11A 1_555 1_555
C10A C12A 1_555 1_555
C15A C16A 1_555 1_555
C19A C20A 1_555 1_555

#END
