
#######################################################################
#
#                 Cambridge Crystallographic Data Centre
#                                CCDC 
#
#######################################################################
#
# If this CIF has been generated from an entry in the Cambridge 
# Structural Database, then it will include bibliographic, chemical, 
# crystal, experimental, refinement or atomic coordinate data resulting 
# from the CCDC's data processing and validation procedures.
#
#######################################################################

data_QUDMAE
_symmetry_cell_setting           monoclinic
_symmetry_space_group_name_H-M   'P 21/n'
_symmetry_Int_Tables_number      14
_space_group_name_Hall           '-P 2yn'
loop_
_symmetry_equiv_pos_site_id
_symmetry_equiv_pos_as_xyz
1 x,y,z
2 1/2-x,1/2+y,1/2-z
3 -x,-y,-z
4 1/2+x,1/2-y,1/2+z
_cell_length_a                   10.589(2)
_cell_length_b                   11.409(3)
_cell_length_c                   17.569(4)
_cell_angle_alpha                90
_cell_angle_beta                 100.172(5)
_cell_angle_gamma                90
_cell_volume                     2089.15
loop_
_atom_site_label
_atom_site_type_symbol
_atom_site_fract_x
_atom_site_fract_y
_atom_site_fract_z
Ag1 Ag 0.38292(2) 0.304752(15) 0.062754(12)
N1 N 0.39384(19) 0.11474(17) 0.07323(11)
N2 N 0.39741(19) -0.50615(17) 0.06108(11)
C15 C 0.4560(3) 0.0533(2) 0.13255(17)
H10 H 0.4994 0.0937 0.1753
C16 C 0.4590(3) -0.0677(2) 0.13370(16)
H11 H 0.5021 -0.1069 0.1771
C17 C 0.3985(2) -0.13054(18) 0.07094(13)
C18 C 0.3347(3) -0.0663(2) 0.00952(17)
H12 H 0.2924 -0.1043 -0.0345
C19 C 0.3336(3) 0.0541(2) 0.01334(18)
H13 H 0.2881 0.0953 -0.0284
C20 C 0.4839(2) -0.4473(2) 0.11098(15)
H14 H 0.5456 -0.4899 0.1440
C21 C 0.4870(2) -0.32728(19) 0.11639(15)
H15 H 0.5486 -0.2910 0.1531
C22 C 0.3993(2) -0.26030(19) 0.06767(12)
C23 C 0.3112(3) -0.3215(2) 0.01370(17)
H16 H 0.2508 -0.2809 -0.0214
C24 C 0.3140(3) -0.4422(2) 0.01244(17)
H17 H 0.2545 -0.4811 -0.0242
Ag1_2 Ag 0.38292(2) -0.695248(15) 0.062754(12)
N2_2 N 0.39741(19) 0.49385(17) 0.06108(11)
O1 O 0.1100(2) 0.31775(17) 0.02059(11)
O2 O 0.21877(17) 0.28674(15) -0.07400(10)
O3 O 0.1560(3) 0.1698(2) -0.31781(13)
O4 O 0.20427(19) 0.28024(16) -0.21522(11)
H1 H 0.2062 0.2740 -0.1685
C1 C 0.1150(3) 0.30934(19) -0.04876(15)
C2 C -0.0027(3) 0.3296(2) -0.10885(15)
C3 C -0.0604(3) 0.4395(3) -0.11320(19)
H2 H -0.0282 0.4976 -0.0779
C4 C -0.1647(4) 0.4622(4) -0.1693(2)
H3 H -0.2017 0.5363 -0.1729
C5 C -0.2141(3) 0.3772(4) -0.2196(2)
H4 H -0.2858 0.3932 -0.2570
C6 C -0.1591(3) 0.2664(3) -0.21597(19)
H5 H -0.1950 0.2083 -0.2503
C7 C -0.0517(2) 0.2421(2) -0.16172(15)
C8 C 0.0079(2) 0.1228(2) -0.15883(14)
C9 C -0.0378(3) 0.0335(3) -0.11639(16)
H6 H -0.1008 0.0506 -0.0873
C10 C 0.0088(3) -0.0795(3) -0.11677(18)
H7 H -0.0226 -0.1376 -0.0880
C11 C 0.1014(3) -0.1059(2) -0.15977(17)
H8 H 0.1324 -0.1821 -0.1605
C12 C 0.1482(3) -0.0196(2) -0.20169(15)
H9 H 0.2110 -0.0379 -0.2307
C13 C 0.1029(2) 0.0952(2) -0.20144(14)
C14 C 0.1568(3) 0.1853(2) -0.24970(15)
loop_
_geom_bond_atom_site_label_1
_geom_bond_atom_site_label_2
_geom_bond_site_symmetry_1
_geom_bond_site_symmetry_2
Ag1 N1 1_555 1_555
N1 C15 1_555 1_555
N2 C20 1_555 1_555
O1 C1 1_555 1_555
O2 C1 1_555 1_555
O3 C14 1_555 1_555
O4 H1 1_555 1_555
C1 C2 1_555 1_555
C2 C3 1_555 1_555
C3 H2 1_555 1_555
C4 C3 1_555 1_555
H3 C4 1_555 1_555
C5 C4 1_555 1_555
H4 C5 1_555 1_555
C6 C5 1_555 1_555
H5 C6 1_555 1_555
C7 C2 1_555 1_555
C8 C7 1_555 1_555
C9 C8 1_555 1_555
H6 C9 1_555 1_555
C10 C9 1_555 1_555
H7 C10 1_555 1_555
C11 C10 1_555 1_555
H8 C11 1_555 1_555
C12 C11 1_555 1_555
H9 C12 1_555 1_555
C13 C8 1_555 1_555
C14 O4 1_555 1_555
C15 H10 1_555 1_555
C16 C15 1_555 1_555
H11 C16 1_555 1_555
C17 C16 1_555 1_555
C18 C17 1_555 1_555
H12 C18 1_555 1_555
C19 N1 1_555 1_555
H13 C19 1_555 1_555
C20 H14 1_555 1_555
C21 C20 1_555 1_555
H15 C21 1_555 1_555
C22 C17 1_555 1_555
C23 C22 1_555 1_555
H16 C23 1_555 1_555
C24 N2 1_555 1_555
H17 C24 1_555 1_555
Ag1_2 N2 1_555 1_555
N2_2 Ag1 1_555 1_555
C6 C7 1_555 1_555
C12 C13 1_555 1_555
C13 C14 1_555 1_555
C18 C19 1_555 1_555
C21 C22 1_555 1_555
C23 C24 1_555 1_555

#END
