
#######################################################################
#
#                 Cambridge Crystallographic Data Centre
#                                CCDC 
#
#######################################################################
#
# If this CIF has been generated from an entry in the Cambridge 
# Structural Database, then it will include bibliographic, chemical, 
# crystal, experimental, refinement or atomic coordinate data resulting 
# from the CCDC's data processing and validation procedures.
#
#######################################################################

data_QUDMEI
_symmetry_cell_setting           monoclinic
_symmetry_space_group_name_H-M   'C 2/c'
_symmetry_Int_Tables_number      15
_space_group_name_Hall           '-C 2yn'
loop_
_symmetry_equiv_pos_site_id
_symmetry_equiv_pos_as_xyz
1 x,y,z
2 -x,y,1/2-z
3 1/2+x,1/2+y,z
4 1/2-x,1/2+y,1/2-z
5 -x,-y,-z
6 x,-y,1/2+z
7 1/2-x,1/2-y,-z
8 1/2+x,1/2-y,1/2+z
_cell_length_a                   21.783(11)
_cell_length_b                   20.047(10)
_cell_length_c                   14.820(8)
_cell_angle_alpha                90
_cell_angle_beta                 101.225(8)
_cell_angle_gamma                90
_cell_volume                     6347.85
loop_
_atom_site_label
_atom_site_type_symbol
_atom_site_fract_x
_atom_site_fract_y
_atom_site_fract_z
Ag1 Ag -0.198542(18) 0.18996(2) -0.07273(2)
Ag2 Ag -0.43454(2) 0.28192(2) -0.82490(3)
N1 N -0.24474(16) 0.21259(18) -0.2156(2)
N2 N -0.39092(16) 0.25708(18) -0.6847(2)
N3 N 0.00974(17) 0.21396(19) 0.5362(2)
N4 N -0.15155(16) 0.20163(17) 0.0715(2)
C15 C -0.2522(2) 0.2727(2) -0.2546(3)
H9 H -0.2374 0.3095 -0.2185
C16 C -0.2800(2) 0.2836(2) -0.3440(3)
H10 H -0.2836 0.3269 -0.3670
C17 C -0.30303(17) 0.2306(2) -0.4010(2)
C18 C -0.2964(2) 0.1681(2) -0.3599(3)
H11 H -0.3118 0.1305 -0.3938
C19 C -0.2673(2) 0.1614(2) -0.2702(3)
H12 H -0.2629 0.1186 -0.2454
C20 C -0.3750(2) 0.3090(2) -0.6275(3)
H13 H -0.3835 0.3519 -0.6506
C21 C -0.3468(2) 0.3019(2) -0.5371(3)
H14 H -0.3367 0.3397 -0.5010
C22 C -0.33322(17) 0.2396(2) -0.4985(2)
C23 C -0.3497(2) 0.1862(2) -0.5577(3)
H15 H -0.3418 0.1429 -0.5362
C24 C -0.3778(2) 0.1969(2) -0.6480(3)
H16 H -0.3882 0.1599 -0.6857
C25 C -0.0062(2) 0.1558(2) 0.4945(3)
H17 H 0.0035 0.1169 0.5284
C26 C -0.0362(2) 0.1499(2) 0.4041(3)
H18 H -0.0452 0.1080 0.3778
C27 C -0.05304(18) 0.2075(2) 0.3522(3)
C28 C -0.0384(2) 0.2673(2) 0.3982(3)
H19 H -0.0502 0.3072 0.3677
C29 C -0.0073(2) 0.2686(2) 0.4867(3)
H20 H 0.0027 0.3099 0.5143
C30 C -0.1450(2) 0.1469(2) 0.1249(3)
H21 H -0.1630 0.1073 0.1001
C31 C -0.1130(2) 0.1469(2) 0.2144(3)
H22 H -0.1090 0.1074 0.2479
C32 C -0.08656(17) 0.2050(2) 0.2554(2)
C33 C -0.0932(2) 0.2620(2) 0.1984(3)
H23 H -0.0758 0.3024 0.2213
C34 C -0.1250(2) 0.2578(2) 0.1099(3)
H24 H -0.1286 0.2961 0.0739
Ag1G Ag 0.301458(18) 0.31004(2) 1.42727(2)
Ag1G_2 Ag -0.698542(18) 0.31004(2) -1.57273(2)
Ag2G Ag 0.06546(2) 0.21808(2) 0.67510(3)
N1G N 0.25526(16) 0.28741(18) 1.2844(2)
N2G N 0.10908(16) 0.24292(18) 0.8153(2)
N3G N -0.49026(17) 0.28604(19) -0.9638(2)
N4G N -0.65155(16) 0.29837(17) -1.4285(2)
N4G_2 N 0.34845(16) 0.29837(17) 1.5715(2)
C15G C 0.2478(2) 0.2273(2) 1.2454(3)
H9G H 0.2626 0.1905 1.2815
C16G C 0.2200(2) 0.2164(2) 1.1560(3)
H10G H 0.2164 0.1731 1.1330
C17G C 0.19697(17) 0.2694(2) 1.0990(2)
C18G C 0.2036(2) 0.3319(2) 1.1401(3)
H11G H 0.1882 0.3695 1.1062
C19G C 0.2327(2) 0.3386(2) 1.2298(3)
H12G H 0.2371 0.3814 1.2546
C20G C 0.1250(2) 0.1910(2) 0.8725(3)
H13G H 0.1165 0.1481 0.8494
C21G C 0.1532(2) 0.1981(2) 0.9629(3)
H14G H 0.1633 0.1603 0.9990
C22G C 0.16678(17) 0.2604(2) 1.0015(2)
C23G C 0.1503(2) 0.3138(2) 0.9423(3)
H15G H 0.1582 0.3571 0.9638
C24G C 0.1222(2) 0.3031(2) 0.8520(3)
H16G H 0.1118 0.3401 0.8143
C25G C -0.5062(2) 0.3442(2) -1.0055(3)
H17G H -0.4965 0.3831 -0.9716
C26G C -0.5362(2) 0.3501(2) -1.0959(3)
H18G H -0.5452 0.3920 -1.1222
C27G C -0.55304(18) 0.2925(2) -1.1478(3)
C28G C -0.5384(2) 0.2327(2) -1.1018(3)
H19G H -0.5502 0.1928 -1.1323
C29G C -0.5073(2) 0.2314(2) -1.0133(3)
H20G H -0.4973 0.1901 -0.9857
C30G C -0.6450(2) 0.3531(2) -1.3751(3)
H21G H -0.6630 0.3927 -1.3999
C31G C -0.6130(2) 0.3531(2) -1.2856(3)
H22G H -0.6090 0.3926 -1.2521
C32G C -0.58656(17) 0.2950(2) -1.2446(2)
C33G C -0.5932(2) 0.2380(2) -1.3016(3)
H23G H -0.5758 0.1976 -1.2787
C34G C -0.6250(2) 0.2422(2) -1.3901(3)
H24G H -0.6286 0.2039 -1.4261
O1 O -0.13810(14) 0.10681(15) -0.1547(2)
O2 O -0.06742(15) 0.02699(18) -0.1538(2)
O3 O -0.37197(17) 0.0683(2) -0.0237(3)
O4 O -0.27971(15) 0.11741(15) -0.0077(2)
C1 C -0.19488(19) 0.00426(19) -0.0409(3)
C2 C -0.13258(19) 0.02012(19) -0.0445(3)
C3 C -0.0863(2) 0.0090(2) 0.0337(3)
H1 H -0.0446 0.0171 0.0312
C4 C -0.1015(2) -0.0137(2) 0.1147(3)
H2 H -0.0703 -0.0191 0.1667
C5 C -0.1620(2) -0.0282(2) 0.1186(3)
H3 H -0.1721 -0.0432 0.1733
C6 C -0.2081(2) -0.0204(2) 0.0415(3)
H4 H -0.2490 -0.0319 0.0441
C7 C -0.24641(18) 0.0062(2) -0.1237(3)
C8 C -0.30467(19) 0.0339(2) -0.1227(3)
C9 C -0.3523(2) 0.0267(3) -0.2013(3)
H5 H -0.3917 0.0445 -0.2013
C10 C -0.3415(2) -0.0063(3) -0.2780(3)
H6 H -0.3736 -0.0102 -0.3293
C11 C -0.2841(2) -0.0335(2) -0.2796(3)
H7 H -0.2769 -0.0557 -0.3317
C12 C -0.2369(2) -0.0275(2) -0.2029(3)
H8 H -0.1980 -0.0463 -0.2037
C13 C -0.11206(18) 0.0534(2) -0.1257(3)
C14 C -0.3187(2) 0.0759(2) -0.0452(3)
O5 O -0.0085(3) 0.4155(4) -0.1608(4)
H25 H -0.041(3) 0.401(5) -0.141(6)
H26 H -0.016(5) 0.397(5) -0.214(3)
O6 O -0.5004(2) 0.0697(4) -0.1311(5)
H27 H -0.497(5) 0.077(6) -0.187(3)
H28 H -0.463(2) 0.058(5) -0.109(6)
O7 O -0.4206(3) 0.0579(2) -0.4989(4)
H29 H -0.451(3) 0.048(4) -0.546(4)
H30 H -0.416(4) 0.0162(16) -0.482(5)
O8 O -0.1140(3) 0.3459(3) -0.1159(3)
H31 H -0.143(3) 0.324(3) -0.096(5)
H32 H -0.117(4) 0.382(2) -0.085(5)
O9 O 0.0000 0.1140(2) -0.2500
H33 H 0.019(3) 0.088(2) -0.281(4)
H33A H -0.019(3) 0.088(2) -0.219(4)
loop_
_geom_bond_atom_site_label_1
_geom_bond_atom_site_label_2
_geom_bond_site_symmetry_1
_geom_bond_site_symmetry_2
Ag1 N1 1_555 1_555
Ag2 N2 1_555 1_555
O1 C13 1_555 1_555
O2 C13 1_555 1_555
O3 C14 1_555 1_555
O4 C14 1_555 1_555
N1 C15 1_555 1_555
N2 C20 1_555 1_555
N3 C25 1_555 1_555
N4 Ag1 1_555 1_555
C1 C2 1_555 1_555
C2 C3 1_555 1_555
C3 H1 1_555 1_555
C4 C3 1_555 1_555
H2 C4 1_555 1_555
C5 C4 1_555 1_555
H3 C5 1_555 1_555
C6 C1 1_555 1_555
H4 C6 1_555 1_555
C7 C1 1_555 1_555
C8 C7 1_555 1_555
C9 C8 1_555 1_555
H5 C9 1_555 1_555
C10 C9 1_555 1_555
H6 C10 1_555 1_555
C11 C10 1_555 1_555
H7 C11 1_555 1_555
C12 C7 1_555 1_555
H8 C12 1_555 1_555
C13 C2 1_555 1_555
C14 C8 1_555 1_555
C15 H9 1_555 1_555
C16 C15 1_555 1_555
H10 C16 1_555 1_555
C17 C16 1_555 1_555
C18 C17 1_555 1_555
H11 C18 1_555 1_555
C19 N1 1_555 1_555
H12 C19 1_555 1_555
C20 H13 1_555 1_555
C21 C20 1_555 1_555
H14 C21 1_555 1_555
C22 C17 1_555 1_555
C23 C22 1_555 1_555
H15 C23 1_555 1_555
C24 N2 1_555 1_555
H16 C24 1_555 1_555
C25 H17 1_555 1_555
C26 C25 1_555 1_555
H18 C26 1_555 1_555
C27 C26 1_555 1_555
C28 C27 1_555 1_555
H19 C28 1_555 1_555
C29 N3 1_555 1_555
H20 C29 1_555 1_555
C30 N4 1_555 1_555
H21 C30 1_555 1_555
C31 C30 1_555 1_555
H22 C31 1_555 1_555
C32 C27 1_555 1_555
C33 C32 1_555 1_555
H23 C33 1_555 1_555
C34 N4 1_555 1_555
H24 C34 1_555 1_555
O5 H25 1_555 1_555
H26 O5 1_555 1_555
O6 H27 1_555 1_555
H28 O6 1_555 1_555
O7 H29 1_555 1_555
H30 O7 1_555 1_555
O8 H31 1_555 1_555
H32 O8 1_555 1_555
O9 H33 1_555 1_555
Ag1G N1G 1_555 1_555
Ag1G_2 N4G 1_555 1_555
Ag2G N3 1_555 1_555
N1G C15G 1_555 1_555
N2G Ag2G 1_555 1_555
N3G Ag2 1_555 1_555
N4G C30G 1_555 1_555
N4G_2 Ag1G 1_555 1_555
C15G H9G 1_555 1_555
C16G C15G 1_555 1_555
H10G C16G 1_555 1_555
C17G C16G 1_555 1_555
C18G C17G 1_555 1_555
H11G C18G 1_555 1_555
C19G N1G 1_555 1_555
H12G C19G 1_555 1_555
C20G N2G 1_555 1_555
H13G C20G 1_555 1_555
C21G C20G 1_555 1_555
H14G C21G 1_555 1_555
C22G C17G 1_555 1_555
C23G C22G 1_555 1_555
H15G C23G 1_555 1_555
C24G N2G 1_555 1_555
H16G C24G 1_555 1_555
C25G N3G 1_555 1_555
H17G C25G 1_555 1_555
C26G C25G 1_555 1_555
H18G C26G 1_555 1_555
C27G C26G 1_555 1_555
C28G C27G 1_555 1_555
H19G C28G 1_555 1_555
C29G N3G 1_555 1_555
H20G C29G 1_555 1_555
C30G H21G 1_555 1_555
C31G C30G 1_555 1_555
H22G C31G 1_555 1_555
C32G C27G 1_555 1_555
C33G C32G 1_555 1_555
H23G C33G 1_555 1_555
C34G N4G 1_555 1_555
H24G C34G 1_555 1_555
H33A O9 1_555 1_555
C5 C6 1_555 1_555
C11 C12 1_555 1_555
C18 C19 1_555 1_555
C21 C22 1_555 1_555
C23 C24 1_555 1_555
C28 C29 1_555 1_555
C31 C32 1_555 1_555
C33 C34 1_555 1_555
C18G C19G 1_555 1_555
C21G C22G 1_555 1_555
C23G C24G 1_555 1_555
C28G C29G 1_555 1_555
C31G C32G 1_555 1_555
C33G C34G 1_555 1_555

#END
