
#######################################################################
#
#                 Cambridge Crystallographic Data Centre
#                                CCDC 
#
#######################################################################
#
# If this CIF has been generated from an entry in the Cambridge 
# Structural Database, then it will include bibliographic, chemical, 
# crystal, experimental, refinement or atomic coordinate data resulting 
# from the CCDC's data processing and validation procedures.
#
#######################################################################

data_QUDMIM
_symmetry_cell_setting           monoclinic
_symmetry_space_group_name_H-M   'P 21/c'
_symmetry_Int_Tables_number      14
_space_group_name_Hall           '-P 2ybc'
loop_
_symmetry_equiv_pos_site_id
_symmetry_equiv_pos_as_xyz
1 x,y,z
2 -x,1/2+y,1/2-z
3 -x,-y,-z
4 x,1/2-y,1/2+z
_cell_length_a                   14.999(6)
_cell_length_b                   17.698(6)
_cell_length_c                   23.385(7)
_cell_angle_alpha                90
_cell_angle_beta                 114.447(19)
_cell_angle_gamma                90
_cell_volume                     5651.06
loop_
_atom_site_label
_atom_site_type_symbol
_atom_site_fract_x
_atom_site_fract_y
_atom_site_fract_z
Ag1 Ag -0.17616(3) -0.15726(3) -0.25349(2)
Ag4 Ag -0.66708(4) -0.28200(4) -0.00172(2)
N1 N -0.5798(3) -0.2585(3) -0.0518(2)
N2 N -0.2714(3) -0.1892(2) -0.20806(19)
N3 N -0.0756(3) -0.1734(2) -0.29822(18)
N4 N 0.2302(3) -0.2091(3) -0.46064(19)
C1 C -0.5420(4) -0.3142(4) -0.0730(3)
H1 H -0.5566 -0.3638 -0.0666
C2 C -0.4827(4) -0.3025(3) -0.1039(3)
H2 H -0.4579 -0.3436 -0.1175
C3 C -0.4596(3) -0.2295(3) -0.1150(2)
C4 C -0.4995(4) -0.1718(3) -0.0929(3)
H3 H -0.4861 -0.1218 -0.0986
C5 C -0.5588(4) -0.1877(4) -0.0625(3)
H4 H -0.5853 -0.1478 -0.0488
C6 C -0.2961(4) -0.2572(3) -0.1990(3)
H5 H -0.2716 -0.2977 -0.2134
C7 C -0.3565(4) -0.2725(3) -0.1693(3)
H6 H -0.3717 -0.3224 -0.1645
C8 C -0.3942(3) -0.2158(2) -0.14685(19)
C9 C -0.3686(6) -0.1449(3) -0.1565(4)
H7 H -0.3926 -0.1034 -0.1428
C10 C -0.3074(6) -0.1339(3) -0.1865(4)
H8 H -0.2906 -0.0846 -0.1918
C11 C -0.0609(3) -0.2407(3) -0.3187(2)
H9 H -0.0909 -0.2828 -0.3106
C12 C -0.0035(3) -0.2510(3) -0.3514(2)
H10 H 0.0053 -0.2991 -0.3643
C13 C 0.0416(3) -0.1883(2) -0.36495(18)
C14 C 0.0246(3) -0.1188(2) -0.3438(2)
H11 H 0.0520 -0.0753 -0.3521
C15 C -0.0326(4) -0.1139(3) -0.3107(2)
H12 H -0.0415 -0.0667 -0.2964
C16 C 0.1944(4) -0.2697(3) -0.4435(3)
H13 H 0.2116 -0.3172 -0.4527
C17 C 0.1333(3) -0.2658(3) -0.4128(2)
H14 H 0.1108 -0.3099 -0.4015
C18 C 0.1056(3) -0.1960(2) -0.39898(19)
C19 C 0.1406(4) -0.1333(3) -0.4188(3)
H15 H 0.1224 -0.0850 -0.4120
C20 C 0.2023(4) -0.1424(3) -0.4484(3)
H16 H 0.2256 -0.0993 -0.4606
Ag4C Ag 0.33292(4) -0.21800(4) -0.50172(2)
N4C N -0.7698(3) -0.2909(3) 0.03936(19)
Ag2 Ag -0.41184(3) -0.20939(2) -0.386690(19)
Ag3 Ag 0.07777(3) -0.37592(3) -0.63646(2)
O1 O -0.3203(2) -0.41098(19) -0.83700(16)
O2 O -0.3932(2) -0.4676(2) -0.92916(17)
O3 O -0.0689(3) -0.45707(19) -0.68787(17)
O4 O -0.0259(3) -0.5557(2) -0.62329(18)
N5 N -0.3243(3) -0.2386(2) -0.43874(19)
N6 N 0.0008(3) -0.3331(2) -0.57933(19)
N7 N -0.8176(3) -0.1427(2) -0.1788(2)
N8 N -0.5121(3) -0.1956(2) -0.34144(18)
C21 C -0.2818(4) -0.1854(3) -0.4596(3)
H17 H -0.2962 -0.1352 -0.4553
C22 C -0.2183(4) -0.2000(3) -0.4867(2)
H18 H -0.1902 -0.1604 -0.4996
C23 C -0.1960(3) -0.2745(2) -0.49498(19)
C24 C -0.2428(4) -0.3292(3) -0.4754(2)
H19 H -0.2326 -0.3800 -0.4811
C25 C -0.3043(4) -0.3094(3) -0.4477(3)
H20 H -0.3336 -0.3479 -0.4345
C26 C -0.0348(4) -0.2626(3) -0.5827(2)
H21 H -0.0165 -0.2264 -0.6046
C27 C -0.0961(4) -0.2413(3) -0.5558(2)
H22 H -0.1174 -0.1915 -0.5591
C28 C -0.1271(3) -0.2940(2) -0.52330(19)
C29 C -0.0877(4) -0.3662(3) -0.5188(2)
H23 H -0.1036 -0.4034 -0.4965
C30 C -0.0263(4) -0.3832(3) -0.5467(2)
H24 H -0.0019 -0.4322 -0.5428
C31 C -0.7946(4) -0.2109(3) -0.1921(2)
H25 H -0.8197 -0.2525 -0.1793
C32 C -0.7361(3) -0.2243(3) -0.2234(2)
H26 H -0.7231 -0.2736 -0.2313
C33 C -0.6964(3) -0.1637(2) -0.2434(2)
C34 C -0.7198(4) -0.0923(3) -0.2288(3)
H27 H -0.6950 -0.0494 -0.2401
C35 C -0.7790(5) -0.0850(3) -0.1977(3)
H28 H -0.7934 -0.0363 -0.1890
C36 C -0.5561(4) -0.2525(3) -0.3268(3)
H29 H -0.5458 -0.3010 -0.3382
C37 C -0.6158(4) -0.2445(3) -0.2960(3)
H30 H -0.6444 -0.2870 -0.2871
C38 C -0.6339(3) -0.1744(2) -0.2779(2)
C39 C -0.5883(5) -0.1150(3) -0.2934(3)
H31 H -0.5982 -0.0658 -0.2833
C40 C -0.5285(5) -0.1278(3) -0.3236(3)
H32 H -0.4977 -0.0865 -0.3322
C41 C -0.2029(3) -0.5536(2) -0.7993(2)
C42 C -0.2419(3) -0.5170(3) -0.8575(2)
C43 C -0.1988(4) -0.5278(3) -0.8994(2)
H33 H -0.2255 -0.5047 -0.9386
C44 C -0.1156(4) -0.5731(3) -0.8827(3)
H34 H -0.0866 -0.5793 -0.9107
C45 C -0.0765(4) -0.6083(3) -0.8258(3)
H35 H -0.0206 -0.6379 -0.8146
C46 C -0.1209(4) -0.5994(3) -0.7848(2)
H36 H -0.0952 -0.6247 -0.7465
C47 C -0.2502(3) -0.5493(2) -0.7540(2)
C48 C -0.1925(4) -0.5395(2) -0.6895(2)
C49 C -0.2361(5) -0.5466(3) -0.6468(3)
H37 H -0.1976 -0.5440 -0.6038
C50 C -0.3364(5) -0.5573(3) -0.6687(3)
H38 H -0.3650 -0.5609 -0.6402
C51 C -0.3940(5) -0.5625(3) -0.7320(3)
H39 H -0.4615 -0.5673 -0.7464
C52 C -0.3509(4) -0.5606(3) -0.7746(3)
H40 H -0.3897 -0.5669 -0.8173
C53 C -0.3258(3) -0.4616(3) -0.8757(2)
C54 C -0.0871(4) -0.5161(3) -0.6652(2)
Ag3C Ag -0.92223(3) -0.12408(3) -0.13646(2)
N7C N 0.1824(3) -0.3573(2) -0.6788(2)
O5 O -0.2652(9) -0.0513(5) -0.6755(6)
O6 O -0.1756(12) -0.0530(6) -0.5775(7)
O7 O -0.1199(8) -0.0741(8) -0.6485(8)
N9 N -0.1782(11) -0.0617(4) -0.6340(9)
O8 O 0.3414(6) -0.1056(4) 0.0246(4)
O9 O 0.3278(7) -0.0075(5) -0.0283(6)
O10 O 0.1986(5) -0.0468(5) -0.0186(4)
N10 N 0.2877(6) -0.0544(5) -0.0082(4)
O11 O -0.1422(4) -0.4523(4) -0.3624(4)
O12 O -0.5893(3) -0.0671(2) -0.47548(19)
O13 O -0.5334(8) -0.5193(6) -0.5834(6)
O14 O -0.1920(6) -0.3791(4) -0.2763(5)
O15 O -0.3897(7) -0.0414(4) -0.6102(5)
O16 O -0.4005(7) -0.3721(6) -0.3401(5)
loop_
_geom_bond_atom_site_label_1
_geom_bond_atom_site_label_2
_geom_bond_site_symmetry_1
_geom_bond_site_symmetry_2
Ag1 N2 1_555 1_555
Ag2 N5 1_555 1_555
Ag3 O3 1_555 1_555
Ag4 N1 1_555 1_555
O1 C53 1_555 1_555
O2 C53 1_555 1_555
O3 C54 1_555 1_555
O4 C54 1_555 1_555
N1 C1 1_555 1_555
N2 C6 1_555 1_555
N3 Ag1 1_555 1_555
N4 C16 1_555 1_555
N5 C21 1_555 1_555
N6 Ag3 1_555 1_555
N7 C31 1_555 1_555
N8 Ag2 1_555 1_555
C1 H1 1_555 1_555
C2 C1 1_555 1_555
H2 C2 1_555 1_555
C3 C2 1_555 1_555
C4 C3 1_555 1_555
H3 C4 1_555 1_555
C5 N1 1_555 1_555
H4 C5 1_555 1_555
C6 H5 1_555 1_555
C7 C6 1_555 1_555
H6 C7 1_555 1_555
C8 C3 1_555 1_555
C9 C8 1_555 1_555
H7 C9 1_555 1_555
C10 N2 1_555 1_555
H8 C10 1_555 1_555
C11 N3 1_555 1_555
H9 C11 1_555 1_555
C12 C11 1_555 1_555
H10 C12 1_555 1_555
C13 C12 1_555 1_555
C14 C13 1_555 1_555
H11 C14 1_555 1_555
C15 N3 1_555 1_555
H12 C15 1_555 1_555
C16 H13 1_555 1_555
C17 C16 1_555 1_555
H14 C17 1_555 1_555
C18 C13 1_555 1_555
C19 C18 1_555 1_555
H15 C19 1_555 1_555
C20 N4 1_555 1_555
H16 C20 1_555 1_555
C21 H17 1_555 1_555
C22 C21 1_555 1_555
H18 C22 1_555 1_555
C23 C22 1_555 1_555
C24 C23 1_555 1_555
H19 C24 1_555 1_555
C25 N5 1_555 1_555
H20 C25 1_555 1_555
C26 N6 1_555 1_555
H21 C26 1_555 1_555
C27 C26 1_555 1_555
H22 C27 1_555 1_555
C28 C23 1_555 1_555
C29 C28 1_555 1_555
H23 C29 1_555 1_555
C30 N6 1_555 1_555
H24 C30 1_555 1_555
C31 H25 1_555 1_555
C32 C31 1_555 1_555
H26 C32 1_555 1_555
C33 C32 1_555 1_555
C34 C33 1_555 1_555
H27 C34 1_555 1_555
C35 N7 1_555 1_555
H28 C35 1_555 1_555
C36 N8 1_555 1_555
H29 C36 1_555 1_555
C37 C36 1_555 1_555
H30 C37 1_555 1_555
C38 C33 1_555 1_555
C39 C38 1_555 1_555
H31 C39 1_555 1_555
C40 N8 1_555 1_555
H32 C40 1_555 1_555
C41 C42 1_555 1_555
C42 C43 1_555 1_555
C43 H33 1_555 1_555
C44 C43 1_555 1_555
H34 C44 1_555 1_555
C45 C44 1_555 1_555
H35 C45 1_555 1_555
C46 C41 1_555 1_555
H36 C46 1_555 1_555
C47 C41 1_555 1_555
C48 C47 1_555 1_555
C49 C48 1_555 1_555
H37 C49 1_555 1_555
C50 C49 1_555 1_555
H38 C50 1_555 1_555
C51 C50 1_555 1_555
H39 C51 1_555 1_555
C52 C47 1_555 1_555
H40 C52 1_555 1_555
C53 C42 1_555 1_555
C54 C48 1_555 1_555
O5 N9 1_555 1_555
O6 N9 1_555 1_555
O7 N9 1_555 1_555
O8 N10 1_555 1_555
O9 N10 1_555 1_555
O10 N10 1_555 1_555
Ag3C N7 1_555 1_555
Ag4C N4 1_555 1_555
N4C Ag4 1_555 1_555
N7C Ag3 1_555 1_555
C4 C5 1_555 1_555
C7 C8 1_555 1_555
C9 C10 1_555 1_555
C14 C15 1_555 1_555
C17 C18 1_555 1_555
C19 C20 1_555 1_555
C24 C25 1_555 1_555
C27 C28 1_555 1_555
C29 C30 1_555 1_555
C34 C35 1_555 1_555
C37 C38 1_555 1_555
C39 C40 1_555 1_555
C45 C46 1_555 1_555
C51 C52 1_555 1_555

#END
