
#######################################################################
#
#                 Cambridge Crystallographic Data Centre
#                                CCDC 
#
#######################################################################
#
# If this CIF has been generated from an entry in the Cambridge 
# Structural Database, then it will include bibliographic, chemical, 
# crystal, experimental, refinement or atomic coordinate data resulting 
# from the CCDC's data processing and validation procedures.
#
#######################################################################

data_QUDZUL
_symmetry_cell_setting           monoclinic
_symmetry_space_group_name_H-M   'C c'
_symmetry_Int_Tables_number      9
_space_group_name_Hall           'C -2yc'
loop_
_symmetry_equiv_pos_site_id
_symmetry_equiv_pos_as_xyz
1 x,y,z
2 x,-y,1/2+z
3 1/2+x,1/2+y,z
4 1/2+x,1/2-y,1/2+z
_cell_length_a                   13.6971(15)
_cell_length_b                   13.6280(15)
_cell_length_c                   18.634(2)
_cell_angle_alpha                90
_cell_angle_beta                 105.895(2)
_cell_angle_gamma                90
_cell_volume                     3345.31
loop_
_atom_site_label
_atom_site_type_symbol
_atom_site_fract_x
_atom_site_fract_y
_atom_site_fract_z
Co1 Co -0.02271(3) 0.26605(3) 0.56387(2)
Co2 Co 0.04875(3) 0.10419(3) 0.69745(2)
F1 F -0.26816(14) 0.14350(12) 0.66719(11)
F2 F -0.36985(14) 0.02490(12) 0.73427(11)
F3 F -0.24467(14) -0.25007(12) 0.63029(10)
F4 F -0.14346(14) -0.13085(13) 0.56413(10)
F5 F 0.07857(14) -0.11827(12) 0.52372(10)
F6 F 0.14424(14) -0.21386(12) 0.42277(10)
F7 F 0.22219(15) 0.17660(13) 0.46042(10)
F8 F 0.28324(15) 0.07885(13) 0.35753(10)
O1 O -0.36818(19) -0.17577(17) 0.78562(12)
O2 O -0.42992(16) -0.24772(15) 0.67367(11)
O3 O -0.08940(15) 0.14222(15) 0.60982(11)
O4 O -0.17528(19) 0.06903(17) 0.50231(12)
O5 O 0.10152(16) 0.05286(15) 0.60938(11)
O6 O 0.06306(16) 0.17237(15) 0.52281(11)
O7 O 0.19714(16) -0.10654(15) 0.25950(11)
O8 O 0.33607(17) -0.16109(17) 0.34300(12)
O9 O -0.13965(19) 0.25287(18) 0.47100(14)
H1 H -0.159(3) 0.198(3) 0.466(2)
H2 H -0.151(3) 0.277(3) 0.428(2)
N1 N 0.02751(19) 0.39022(18) 0.51311(14)
N2 N -0.0901(2) 0.38463(19) 0.60382(14)
N3 N -0.03041(19) 0.11463(18) 0.78021(14)
N4 N 0.02830(18) -0.04561(18) 0.72486(14)
C1 C -0.3746(2) -0.1850(2) 0.71915(16)
C2 C -0.3118(2) -0.1176(2) 0.68387(16)
C3 C -0.2532(2) -0.1528(2) 0.64022(16)
C4 C -0.1991(2) -0.0910(2) 0.60575(16)
C5 C -0.2019(2) 0.0101(2) 0.61396(16)
C6 C -0.2599(2) 0.0454(2) 0.65873(17)
C7 C -0.3129(2) -0.0161(2) 0.69316(17)
C8 C -0.1509(2) 0.0787(2) 0.57124(17)
C9 C 0.1001(2) 0.0914(2) 0.54835(16)
C10 C 0.1463(2) 0.0338(2) 0.49588(16)
C11 C 0.1309(2) -0.0667(2) 0.48490(16)
C12 C 0.1653(2) -0.1172(2) 0.43164(16)
C13 C 0.2150(2) -0.0698(2) 0.38652(16)
C14 C 0.2323(2) 0.0291(2) 0.39902(16)
C15 C 0.1992(2) 0.0798(2) 0.45177(17)
C16 C 0.2517(2) -0.1185(2) 0.32504(16)
C17 C 0.0782(2) 0.3856(2) 0.46107(18)
H3 H 0.1034 0.3237 0.4510
C18 C 0.0956(2) 0.4664(2) 0.42123(18)
H4 H 0.1317 0.4600 0.3846
C19 C 0.0591(3) 0.5567(2) 0.43596(19)
H5 H 0.0704 0.6137 0.4099
C20 C 0.0057(2) 0.5629(2) 0.48950(18)
H6 H -0.0204 0.6241 0.5002
C21 C -0.0092(2) 0.4780(2) 0.52728(17)
C22 C -0.0669(2) 0.4756(2) 0.58419(16)
C23 C -0.0961(2) 0.5587(2) 0.61642(18)
H7 H -0.0801 0.6221 0.6018
C24 C -0.1483(2) 0.5489(2) 0.66977(18)
H8 H -0.1667 0.6050 0.6933
C25 C -0.1734(2) 0.4557(2) 0.68823(18)
H9 H -0.2107 0.4470 0.7239
C26 C -0.1433(2) 0.3754(2) 0.65404(17)
H10 H -0.1611 0.3116 0.6666
C27 C -0.0598(2) 0.1992(2) 0.80524(17)
H11 H -0.0424 0.2593 0.7860
C28 C -0.1146(2) 0.2024(2) 0.85795(18)
H12 H -0.1336 0.2634 0.8748
C29 C -0.1407(3) 0.1146(2) 0.88535(18)
H13 H -0.1785 0.1147 0.9211
C30 C -0.1112(2) 0.0267(2) 0.86020(18)
H14 H -0.1285 -0.0341 0.8785
C31 C -0.0559(2) 0.0289(2) 0.80763(16)
C32 C -0.0194(2) -0.0607(2) 0.77860(17)
C33 C -0.0326(2) -0.1545(2) 0.80405(18)
H15 H -0.0666 -0.1636 0.8416
C34 C 0.0049(3) -0.2348(2) 0.77372(19)
H16 H -0.0038 -0.2995 0.7899
C35 C 0.0553(3) -0.2185(2) 0.71928(18)
H17 H 0.0824 -0.2720 0.6982
C36 C 0.0654(2) -0.1230(2) 0.69618(19)
H18 H 0.0996 -0.1121 0.6589
Co1B Co -0.52271(3) -0.23395(3) 0.56387(2)
Co2B Co -0.45125(3) -0.39581(3) 0.69745(2)
Co2A Co 0.04875(3) -0.10419(3) 0.19745(2)
O2B O 0.07008(16) 0.25228(15) 0.67367(11)
O7A O 0.19714(16) 0.10654(15) 0.75950(11)
loop_
_geom_bond_atom_site_label_1
_geom_bond_atom_site_label_2
_geom_bond_site_symmetry_1
_geom_bond_site_symmetry_2
Co1 O3 1_555 1_555
Co2 O3 1_555 1_555
F1 C6 1_555 1_555
F2 C7 1_555 1_555
F3 C3 1_555 1_555
F4 C4 1_555 1_555
F5 C11 1_555 1_555
F6 C12 1_555 1_555
F7 C15 1_555 1_555
F8 C14 1_555 1_555
O1 C1 1_555 1_555
O2 C1 1_555 1_555
O3 C8 1_555 1_555
O4 C8 1_555 1_555
O5 Co2 1_555 1_555
O6 Co1 1_555 1_555
O7 C16 1_555 1_555
O8 C16 1_555 1_555
O9 Co1 1_555 1_555
H1 O9 1_555 1_555
H2 O9 1_555 1_555
N1 Co1 1_555 1_555
N2 Co1 1_555 1_555
N3 Co2 1_555 1_555
N4 Co2 1_555 1_555
C1 C2 1_555 1_555
C2 C3 1_555 1_555
C3 C4 1_555 1_555
C4 C5 1_555 1_555
C5 C6 1_555 1_555
C6 C7 1_555 1_555
C7 C2 1_555 1_555
C8 C5 1_555 1_555
C9 O5 1_555 1_555
C10 C9 1_555 1_555
C11 C10 1_555 1_555
C12 C11 1_555 1_555
C13 C12 1_555 1_555
C14 C13 1_555 1_555
C15 C10 1_555 1_555
C16 C13 1_555 1_555
C17 N1 1_555 1_555
H3 C17 1_555 1_555
C18 C17 1_555 1_555
H4 C18 1_555 1_555
C19 C18 1_555 1_555
H5 C19 1_555 1_555
C20 C19 1_555 1_555
H6 C20 1_555 1_555
C21 N1 1_555 1_555
C22 N2 1_555 1_555
C23 C22 1_555 1_555
H7 C23 1_555 1_555
C24 C23 1_555 1_555
H8 C24 1_555 1_555
C25 C24 1_555 1_555
H9 C25 1_555 1_555
C26 N2 1_555 1_555
H10 C26 1_555 1_555
C27 N3 1_555 1_555
H11 C27 1_555 1_555
C28 C27 1_555 1_555
H12 C28 1_555 1_555
C29 C28 1_555 1_555
H13 C29 1_555 1_555
C30 C29 1_555 1_555
H14 C30 1_555 1_555
C31 N3 1_555 1_555
C32 N4 1_555 1_555
C33 C32 1_555 1_555
H15 C33 1_555 1_555
C34 C33 1_555 1_555
H16 C34 1_555 1_555
C35 C34 1_555 1_555
H17 C35 1_555 1_555
C36 N4 1_555 1_555
H18 C36 1_555 1_555
Co1B O2 1_555 1_555
Co2B O2 1_555 1_555
Co2A O7 1_555 1_555
O2B Co1 1_555 1_555
O7A Co2 1_555 1_555
Co2 O2B 1_555 1_555
O6 C9 1_555 1_555
C14 C15 1_555 1_555
C20 C21 1_555 1_555
C21 C22 1_555 1_555
C25 C26 1_555 1_555
C30 C31 1_555 1_555
C31 C32 1_555 1_555
C35 C36 1_555 1_555

#END
