
#######################################################################
#
#                 Cambridge Crystallographic Data Centre
#                                CCDC 
#
#######################################################################
#
# If this CIF has been generated from an entry in the Cambridge 
# Structural Database, then it will include bibliographic, chemical, 
# crystal, experimental, refinement or atomic coordinate data resulting 
# from the CCDC's data processing and validation procedures.
#
#######################################################################

data_QUFBEZ
_symmetry_cell_setting           monoclinic
_symmetry_space_group_name_H-M   'P 21/n'
_symmetry_Int_Tables_number      14
_space_group_name_Hall           '-P 2yn'
loop_
_symmetry_equiv_pos_site_id
_symmetry_equiv_pos_as_xyz
1 x,y,z
2 1/2-x,1/2+y,1/2-z
3 -x,-y,-z
4 1/2+x,1/2-y,1/2+z
_cell_length_a                   10.5699(7)
_cell_length_b                   12.9603(8)
_cell_length_c                   13.4373(9)
_cell_angle_alpha                90
_cell_angle_beta                 107.936(2)
_cell_angle_gamma                90
_cell_volume                     1751.3
loop_
_atom_site_label
_atom_site_type_symbol
_atom_site_fract_x
_atom_site_fract_y
_atom_site_fract_z
Mn1 Mn 0.86350(3) 0.47727(2) 0.54775(2)
C1 C 0.7861(3) 0.6570(2) 0.6810(2)
H1 H 0.8656 0.6843 0.6766
C2 C 0.7117(3) 0.7147(3) 0.7282(2)
H2 H 0.7402 0.7797 0.7550
C3 C 0.5946(3) 0.6746(3) 0.7350(2)
H3 H 0.5427 0.7122 0.7668
C4 C 0.5547(3) 0.5784(2) 0.6944(2)
H4 H 0.4757 0.5502 0.6989
C5 C 0.6325(2) 0.52384(18) 0.64714(17)
C6 C 0.5999(2) 0.42023(19) 0.60039(18)
C7 C 0.4882(3) 0.3654(2) 0.6031(2)
H5 H 0.4289 0.3939 0.6342
C8 C 0.4661(3) 0.2687(3) 0.5591(3)
H6 H 0.3922 0.2307 0.5611
C9 C 0.5537(3) 0.2285(2) 0.5123(2)
H7 H 0.5406 0.1630 0.4826
C10 C 0.6615(3) 0.2874(2) 0.5102(2)
H8 H 0.7202 0.2607 0.4774
C11 C 0.8490(2) 0.44801(17) 0.31336(17)
C12 C 0.7646(2) 0.42150(17) 0.20276(16)
C13 C 0.7022(2) 0.32677(17) 0.17703(17)
C14 C 0.6261(2) 0.29844(16) 0.07760(17)
C15 C 0.6106(2) 0.37090(18) 0.00047(18)
C16 C 0.6705(3) 0.46679(18) 0.02092(19)
C17 C 0.7470(3) 0.49004(18) 0.12153(19)
C18 C 0.5687(2) 0.19022(17) 0.05365(17)
N1 N 0.7489(2) 0.56312(17) 0.64087(16)
N2 N 0.68503(18) 0.38116(15) 0.55325(15)
O1 O 0.7923(2) 0.44078(17) 0.38147(13)
O2 O 0.96493(17) 0.47444(15) 0.32435(15)
O3 O 0.46455(17) 0.17105(14) 0.07318(17)
O4 O 0.6341(2) 0.13144(14) 0.01568(16)
F1 F 0.72136(17) 0.25560(11) 0.25290(11)
F2 F 0.53595(19) 0.34956(13) -0.09804(12)
F3 F 0.6530(2) 0.53623(14) -0.05580(13)
F4 F 0.80295(19) 0.58392(11) 0.13832(12)
Mn1B Mn 1.13650(3) 0.52273(2) 0.45225(2)
Mn1C Mn 0.36350(3) 0.02273(2) 0.04775(2)
Mn1A Mn 0.63650(3) -0.02273(2) -0.04775(2)
O2B O 1.03507(17) 0.52556(15) 0.67565(15)
O3C O 0.96455(17) 0.32895(14) 0.57318(17)
O4A O 0.8659(2) 0.63144(14) 0.48432(16)
O5 O 0.4265(12) 0.0177(8) 0.3644(9)
loop_
_geom_bond_atom_site_label_1
_geom_bond_atom_site_label_2
_geom_bond_site_symmetry_1
_geom_bond_site_symmetry_2
Mn1 N1 1_555 1_555
C1 H1 1_555 1_555
C2 C1 1_555 1_555
H2 C2 1_555 1_555
C3 C2 1_555 1_555
H3 C3 1_555 1_555
C4 C3 1_555 1_555
H4 C4 1_555 1_555
C5 C4 1_555 1_555
C6 C5 1_555 1_555
C7 C6 1_555 1_555
H5 C7 1_555 1_555
C8 C7 1_555 1_555
H6 C8 1_555 1_555
C9 C8 1_555 1_555
H7 C9 1_555 1_555
C10 C9 1_555 1_555
H8 C10 1_555 1_555
C11 C12 1_555 1_555
C12 C13 1_555 1_555
C13 C14 1_555 1_555
C14 C15 1_555 1_555
C15 C16 1_555 1_555
C16 C17 1_555 1_555
C17 C12 1_555 1_555
C18 C14 1_555 1_555
N1 C1 1_555 1_555
N2 Mn1 1_555 1_555
O1 Mn1 1_555 1_555
O2 C11 1_555 1_555
O3 C18 1_555 1_555
O4 C18 1_555 1_555
F1 C13 1_555 1_555
F2 C15 1_555 1_555
F3 C16 1_555 1_555
F4 C17 1_555 1_555
Mn1B O2 1_555 1_555
Mn1C O3 1_555 1_555
Mn1A O4 1_555 1_555
O2B Mn1 1_555 1_555
O3C Mn1 1_555 1_555
O4A Mn1 1_555 1_555
C5 N1 1_555 1_555
C6 N2 1_555 1_555
C10 N2 1_555 1_555
C11 O1 1_555 1_555

#END
