
#######################################################################
#
#                 Cambridge Crystallographic Data Centre
#                                CCDC 
#
#######################################################################
#
# If this CIF has been generated from an entry in the Cambridge 
# Structural Database, then it will include bibliographic, chemical, 
# crystal, experimental, refinement or atomic coordinate data resulting 
# from the CCDC's data processing and validation procedures.
#
#######################################################################

data_QUFBAV
_symmetry_cell_setting           monoclinic
_symmetry_space_group_name_H-M   'C c'
_symmetry_Int_Tables_number      9
_space_group_name_Hall           'C -2yc'
loop_
_symmetry_equiv_pos_site_id
_symmetry_equiv_pos_as_xyz
1 x,y,z
2 x,-y,1/2+z
3 1/2+x,1/2+y,z
4 1/2+x,1/2-y,1/2+z
_cell_length_a                   13.8311(18)
_cell_length_b                   13.7846(19)
_cell_length_c                   18.904(3)
_cell_angle_alpha                90
_cell_angle_beta                 104.920(3)
_cell_angle_gamma                90
_cell_volume                     3482.65
loop_
_atom_site_label
_atom_site_type_symbol
_atom_site_fract_x
_atom_site_fract_y
_atom_site_fract_z
Mn1 Mn -0.06220(9) 0.23431(8) -0.45955(6)
Mn2 Mn 0.01171(8) 0.39453(8) -0.32430(6)
C1 C 0.3031(7) -0.0835(8) -0.4478(5)
C2 C 0.2534(6) -0.0153(6) -0.4039(4)
C3 C 0.1942(7) -0.0490(6) -0.3605(5)
C4 C 0.2581(6) 0.0827(7) -0.4118(4)
C5 C 0.2028(6) 0.1455(6) -0.3783(4)
C6 C 0.1406(6) 0.0123(6) -0.3274(4)
C7 C 0.1434(6) 0.1101(6) -0.3349(4)
C8 C 0.0819(7) 0.1797(6) -0.3002(5)
C9 C -0.1830(7) 0.1153(8) -0.3711(5)
H1 H -0.2002 0.1770 -0.3588
C10 C -0.2110(8) 0.0352(8) -0.3361(5)
H2 H -0.2459 0.0432 -0.3005
C11 C -0.1866(8) -0.0541(8) -0.3546(6)
H3 H -0.2039 -0.1085 -0.3315
C12 C -0.1359(7) -0.0644(7) -0.4082(5)
H4 H -0.1207 -0.1260 -0.4222
C13 C -0.1074(6) 0.0170(7) -0.4410(4)
C14 C -0.0504(7) 0.0156(6) -0.4982(5)
C15 C -0.0360(7) -0.0672(7) -0.5351(5)
H5 H -0.0608 -0.1263 -0.5237
C16 C 0.0144(9) -0.0631(8) -0.5884(6)
H6 H 0.0225 -0.1181 -0.6148
C17 C 0.0520(8) 0.0230(9) -0.6016(5)
H7 H 0.0888 0.0277 -0.6363
C18 C 0.0362(7) 0.1034(7) -0.5642(5)
H8 H 0.0610 0.1625 -0.5756
C19 C 0.2119(7) 0.6177(6) -0.6967(4)
C20 C 0.1783(6) 0.5679(6) -0.6355(4)
C21 C 0.1279(6) 0.6132(6) -0.5906(4)
C22 C 0.1945(6) 0.4697(6) -0.6235(4)
C23 C 0.1623(7) 0.4196(6) -0.5704(5)
C24 C 0.0955(6) 0.5631(6) -0.5381(4)
C25 C 0.1105(6) 0.4658(6) -0.5272(4)
C26 C 0.0652(6) 0.4094(6) -0.4752(4)
C27 C -0.1051(7) 0.3094(7) -0.2118(5)
H9 H -0.0898 0.2503 -0.2301
C28 C -0.1591(8) 0.3091(8) -0.1596(5)
H10 H -0.1799 0.2511 -0.1432
C29 C -0.1808(8) 0.3951(9) -0.1330(5)
H11 H -0.2159 0.3972 -0.0972
C30 C -0.1506(8) 0.4786(8) -0.1594(5)
H12 H -0.1675 0.5382 -0.1428
C31 C -0.0958(6) 0.4758(6) -0.2101(4)
C32 C -0.0601(6) 0.5641(6) -0.2396(4)
C33 C -0.0704(8) 0.6566(7) -0.2157(6)
H13 H -0.1031 0.6667 -0.1791
C34 C -0.0333(9) 0.7333(7) -0.2452(6)
H14 H -0.0391 0.7954 -0.2275
C35 C 0.0124(9) 0.7203(7) -0.3004(6)
H15 H 0.0377 0.7725 -0.3212
C36 C 0.0196(9) 0.6266(6) -0.3241(6)
H16 H 0.0503 0.6165 -0.3619
N1 N -0.1324(5) 0.1058(5) -0.4216(4)
N2 N -0.0136(5) 0.1017(5) -0.5117(4)
N3 N -0.0743(5) 0.3903(5) -0.2368(3)
N4 N -0.0153(5) 0.5493(5) -0.2955(3)
O1 O 0.3676(4) -0.1422(4) -0.4110(3)
O2 O 0.2751(7) -0.0743(6) -0.5149(4)
O3 O 0.0280(4) 0.2412(4) -0.3453(3)
O4 O 0.0841(6) 0.1700(5) -0.2365(3)
O5 O 0.1592(4) 0.6060(4) -0.7593(3)
O6 O 0.2924(5) 0.6619(5) -0.6800(3)
O7 O 0.0640(5) 0.4469(4) -0.4157(3)
O8 O 0.0345(5) 0.3269(4) -0.4968(3)
O9 O -0.1720(7) 0.2569(6) -0.5579(4)
H17 H -0.204(7) 0.305(4) -0.560(5)
H18 H -0.195(7) 0.227(6) -0.595(3)
F1 F 0.3120(4) 0.1228(4) -0.4531(3)
F2 F 0.1858(4) -0.1453(4) -0.3522(3)
F3 F 0.0851(4) -0.0276(3) -0.2864(3)
F4 F 0.2130(4) 0.2410(3) -0.3872(3)
F5 F 0.2438(4) 0.4202(4) -0.6657(3)
F6 F 0.1088(4) 0.7084(3) -0.5991(3)
F7 F 0.0448(4) 0.6148(4) -0.4985(3)
F8 F 0.1852(4) 0.3249(4) -0.5637(3)
Mn1B Mn 0.43780(9) -0.26569(8) -0.45955(6)
Mn2A Mn 0.01171(8) 0.60547(8) -0.82430(6)
Mn2B Mn 0.51171(8) -0.10547(8) -0.32430(6)
O1B O -0.1324(4) 0.3578(4) -0.4110(3)
O5A O 0.1592(4) 0.3940(4) -0.2593(3)
loop_
_geom_bond_atom_site_label_1
_geom_bond_atom_site_label_2
_geom_bond_site_symmetry_1
_geom_bond_site_symmetry_2
Mn1 N1 1_555 1_555
Mn2 N3 1_555 1_555
C1 C2 1_555 1_555
C2 C3 1_555 1_555
C3 C6 1_555 1_555
C4 C2 1_555 1_555
C5 C4 1_555 1_555
C6 C7 1_555 1_555
C7 C5 1_555 1_555
C8 C7 1_555 1_555
C9 H1 1_555 1_555
C10 C9 1_555 1_555
H2 C10 1_555 1_555
C11 C10 1_555 1_555
H3 C11 1_555 1_555
C12 C11 1_555 1_555
H4 C12 1_555 1_555
C13 C12 1_555 1_555
C14 C13 1_555 1_555
C15 C14 1_555 1_555
H5 C15 1_555 1_555
C16 C15 1_555 1_555
H6 C16 1_555 1_555
C17 C16 1_555 1_555
H7 C17 1_555 1_555
C18 C17 1_555 1_555
H8 C18 1_555 1_555
C19 C20 1_555 1_555
C20 C21 1_555 1_555
C21 C24 1_555 1_555
C22 C20 1_555 1_555
C23 C22 1_555 1_555
C24 C25 1_555 1_555
C25 C23 1_555 1_555
C26 C25 1_555 1_555
C27 H9 1_555 1_555
C28 C27 1_555 1_555
H10 C28 1_555 1_555
C29 C28 1_555 1_555
H11 C29 1_555 1_555
C30 C29 1_555 1_555
H12 C30 1_555 1_555
C31 C30 1_555 1_555
C32 C31 1_555 1_555
C33 C32 1_555 1_555
H13 C33 1_555 1_555
C34 C33 1_555 1_555
H14 C34 1_555 1_555
C35 C34 1_555 1_555
H15 C35 1_555 1_555
C36 C35 1_555 1_555
H16 C36 1_555 1_555
N1 C9 1_555 1_555
N2 Mn1 1_555 1_555
N3 C27 1_555 1_555
N4 Mn2 1_555 1_555
O1 C1 1_555 1_555
O2 C1 1_555 1_555
O3 Mn1 1_555 1_555
O4 C8 1_555 1_555
O5 C19 1_555 1_555
O6 C19 1_555 1_555
O7 Mn2 1_555 1_555
O8 Mn1 1_555 1_555
O9 Mn1 1_555 1_555
H17 O9 1_555 1_555
H18 O9 1_555 1_555
F1 C4 1_555 1_555
F2 C3 1_555 1_555
F3 C6 1_555 1_555
F4 C5 1_555 1_555
F5 C22 1_555 1_555
F6 C21 1_555 1_555
F7 C24 1_555 1_555
F8 C23 1_555 1_555
Mn1B O1 1_555 1_555
Mn2A O5 1_555 1_555
Mn2B O1 1_555 1_555
O1B Mn1 1_555 1_555
O5A Mn2 1_555 1_555
Mn2 O3 1_555 1_555
Mn2 O1B 1_555 1_555
C8 O3 1_555 1_555
C13 N1 1_555 1_555
C14 N2 1_555 1_555
C18 N2 1_555 1_555
C26 O7 1_555 1_555
C26 O8 1_555 1_555
C31 N3 1_555 1_555
C32 N4 1_555 1_555
C36 N4 1_555 1_555

#END
