
#######################################################################
#
#                 Cambridge Crystallographic Data Centre
#                                CCDC 
#
#######################################################################
#
# If this CIF has been generated from an entry in the Cambridge 
# Structural Database, then it will include bibliographic, chemical, 
# crystal, experimental, refinement or atomic coordinate data resulting 
# from the CCDC's data processing and validation procedures.
#
#######################################################################

data_QUFBID
_symmetry_cell_setting           triclinic
_symmetry_space_group_name_H-M   'P -1'
_symmetry_Int_Tables_number      2
_space_group_name_Hall           '-P 1'
loop_
_symmetry_equiv_pos_site_id
_symmetry_equiv_pos_as_xyz
1 x,y,z
2 -x,-y,-z
_cell_length_a                   8.247(3)
_cell_length_b                   9.535(3)
_cell_length_c                   11.261(4)
_cell_angle_alpha                74.189(5)
_cell_angle_beta                 70.491(5)
_cell_angle_gamma                76.021(5)
_cell_volume                     791.947
loop_
_atom_site_label
_atom_site_type_symbol
_atom_site_fract_x
_atom_site_fract_y
_atom_site_fract_z
Cu1 Cu 0.52983(8) 0.81487(7) 0.57262(6)
C1 C 0.3739(7) 0.6480(6) 0.8366(5)
H1 H 0.4313 0.6992 0.8651
C2 C 0.2791(8) 0.5454(6) 0.9250(6)
H2 H 0.2721 0.5274 1.0118
C3 C 0.1949(7) 0.4702(6) 0.8825(6)
H3 H 0.1325 0.3982 0.9405
C4 C 0.2020(7) 0.5002(5) 0.7558(5)
H4 H 0.1414 0.4521 0.7269
C5 C 0.3015(6) 0.6041(5) 0.6705(5)
C6 C 0.3262(6) 0.6423(5) 0.5313(5)
C7 C 0.2501(7) 0.5825(5) 0.4679(6)
H5 H 0.1773 0.5132 0.5145
C8 C 0.2816(7) 0.6250(6) 0.3375(6)
H6 H 0.2309 0.5853 0.2945
C9 C 0.3902(7) 0.7283(6) 0.2704(5)
H7 H 0.4160 0.7577 0.1812
C10 C 0.4591(7) 0.7865(6) 0.3376(5)
H8 H 0.5289 0.8583 0.2924
C11 C 0.8122(7) 0.8749(5) 0.3766(5)
C12 C 0.9512(6) 0.9571(5) 0.2774(5)
C13 C 1.0140(6) 1.0643(5) 0.3037(4)
C14 C 1.1594(6) 1.1255(5) 0.2241(5)
C15 C 1.2342(7) 1.0834(6) 0.1070(5)
C16 C 1.1759(7) 0.9813(6) 0.0742(5)
C17 C 1.0379(7) 0.9163(5) 0.1618(5)
C18 C 1.2436(7) 1.2203(6) 0.2689(5)
N1 N 0.3871(5) 0.6773(4) 0.7110(4)
N2 N 0.4307(5) 0.7447(4) 0.4654(4)
O1 O 0.6666(4) 0.9503(4) 0.4259(3)
O2 O 0.8475(5) 0.7397(4) 0.4054(4)
O3 O 1.1972(6) 1.3521(4) 0.2516(5)
O4 O 1.3609(5) 1.1400(4) 0.3186(4)
F1 F 0.9369(4) 1.1058(3) 0.4173(3)
F2 F 1.3754(4) 1.1403(4) 0.0246(3)
F3 F 1.2552(4) 0.9403(4) -0.0390(3)
F4 F 0.9886(4) 0.8115(3) 0.1284(3)
Cu1A Cu 0.47017(8) 1.18513(7) 0.42738(6)
Cu1A_2 Cu 1.47017(8) 1.18513(7) 0.42738(6)
O1A O 0.3334(4) 1.0497(4) 0.5741(3)
O4A O 0.6391(5) 0.8600(4) 0.6814(4)
loop_
_geom_bond_atom_site_label_1
_geom_bond_atom_site_label_2
_geom_bond_site_symmetry_1
_geom_bond_site_symmetry_2
Cu1 N1 1_555 1_555
C1 H1 1_555 1_555
C2 C1 1_555 1_555
H2 C2 1_555 1_555
C3 C2 1_555 1_555
H3 C3 1_555 1_555
C4 C3 1_555 1_555
H4 C4 1_555 1_555
C5 C4 1_555 1_555
C6 C5 1_555 1_555
C7 C6 1_555 1_555
H5 C7 1_555 1_555
C8 C7 1_555 1_555
H6 C8 1_555 1_555
C9 C8 1_555 1_555
H7 C9 1_555 1_555
C10 C9 1_555 1_555
H8 C10 1_555 1_555
C11 C12 1_555 1_555
C12 C13 1_555 1_555
C13 C14 1_555 1_555
C14 C15 1_555 1_555
C15 C16 1_555 1_555
C16 C17 1_555 1_555
C17 C12 1_555 1_555
C18 C14 1_555 1_555
N1 C1 1_555 1_555
N2 Cu1 1_555 1_555
O1 Cu1 1_555 1_555
O2 C11 1_555 1_555
O3 C18 1_555 1_555
O4 C18 1_555 1_555
F1 C13 1_555 1_555
F2 C15 1_555 1_555
F3 C16 1_555 1_555
F4 C17 1_555 1_555
Cu1A O1 1_555 1_555
Cu1A_2 O4 1_555 1_555
O1A Cu1 1_555 1_555
O4A Cu1 1_555 1_555
C5 N1 1_555 1_555
C6 N2 1_555 1_555
C10 N2 1_555 1_555
C11 O1 1_555 1_555
Cu1A O1A 1_555 1_555

#END
