
#######################################################################
#
#                 Cambridge Crystallographic Data Centre
#                                CCDC 
#
#######################################################################
#
# If this CIF has been generated from an entry in the Cambridge 
# Structural Database, then it will include bibliographic, chemical, 
# crystal, experimental, refinement or atomic coordinate data resulting 
# from the CCDC's data processing and validation procedures.
#
#######################################################################

data_QUFBUP
_symmetry_cell_setting           orthorhombic
_symmetry_space_group_name_H-M   'F d d 2'
_symmetry_Int_Tables_number      43
_space_group_name_Hall           'F 2 -2d'
loop_
_symmetry_equiv_pos_site_id
_symmetry_equiv_pos_as_xyz
1 x,y,z
2 -x,-y,z
3 1/4+x,1/4-y,1/4+z
4 1/4-x,1/4+y,1/4+z
5 x,1/2+y,1/2+z
6 -x,1/2-y,1/2+z
7 1/4+x,3/4-y,3/4+z
8 1/4-x,3/4+y,3/4+z
9 1/2+x,y,1/2+z
10 1/2-x,-y,1/2+z
11 3/4+x,1/4-y,3/4+z
12 3/4-x,1/4+y,3/4+z
13 1/2+x,1/2+y,z
14 1/2-x,1/2-y,z
15 3/4+x,3/4-y,1/4+z
16 3/4-x,3/4+y,1/4+z
_cell_length_a                   26.9256(17)
_cell_length_b                   12.9697(8)
_cell_length_c                   16.6178(10)
_cell_angle_alpha                90
_cell_angle_beta                 90
_cell_angle_gamma                90
_cell_volume                     5803.22
loop_
_atom_site_label
_atom_site_type_symbol
_atom_site_fract_x
_atom_site_fract_y
_atom_site_fract_z
Cu1 Cu 0.063565(17) 0.10641(4) 0.34803(3)
C1 C 0.04732(18) 0.1020(4) 0.1710(3)
H1 H 0.0480 0.0304 0.1749
C2 C 0.03902(17) 0.1463(4) 0.0980(4)
H2 H 0.0344 0.1053 0.0528
C3 C 0.03752(18) 0.2521(4) 0.0913(3)
H3 H 0.0313 0.2831 0.0419
C4 C 0.04519(18) 0.3104(4) 0.1579(3)
H4 H 0.0448 0.3820 0.1544
C5 C 0.05360(15) 0.2630(3) 0.2308(3)
C6 C 0.06196(15) 0.3187(4) 0.3079(3)
C7 C 0.0627(2) 0.4245(4) 0.3158(3)
H5 H 0.0590 0.4667 0.2710
C8 C 0.0690(2) 0.4668(4) 0.3917(4)
H6 H 0.0697 0.5380 0.3984
C9 C 0.07427(18) 0.4022(4) 0.4573(3)
H7 H 0.0781 0.4295 0.5086
C10 C 0.07377(16) 0.2971(4) 0.4458(3)
H8 H 0.0772 0.2537 0.4900
C11 C 0.13409(15) 0.0528(3) 0.4542(2)
C12 C 0.15265(15) -0.0107(3) 0.5265(2)
C13 C 0.15550(14) 0.0490(3) 0.6060(2)
C14 C 0.19386(13) 0.1386(3) 0.6038(3)
N1 N 0.06845(12) 0.2561(3) 0.3724(2)
N2 N 0.05446(13) 0.1588(3) 0.2374(2)
O1 O 0.08713(10) 0.0633(2) 0.45326(17)
O2 O 0.16402(13) 0.0843(3) 0.40463(19)
O3 O 0.17917(13) 0.2135(2) 0.56353(19)
O4 O 0.23276(11) 0.1266(2) 0.64043(19)
F1 F 0.12210(10) -0.09298(17) 0.53842(15)
F2 F 0.19830(10) -0.0498(2) 0.51282(17)
F3 F 0.11031(9) 0.0847(2) 0.62444(16)
F4 F 0.16766(12) -0.0195(2) 0.66456(15)
Cu1C Cu 0.186435(17) 0.35641(4) 0.59803(3)
Cu1B Cu 0.313565(17) 0.14359(4) 0.59803(3)
O3G O 0.07083(13) -0.0365(2) 0.31353(19)
O4J O -0.01724(11) 0.1234(2) 0.39043(19)
O5 O 0.0000 0.5000 0.0598(3)
loop_
_geom_bond_atom_site_label_1
_geom_bond_atom_site_label_2
_geom_bond_site_symmetry_1
_geom_bond_site_symmetry_2
Cu1 N1 1_555 1_555
C1 H1 1_555 1_555
C2 C1 1_555 1_555
H2 C2 1_555 1_555
C3 C2 1_555 1_555
H3 C3 1_555 1_555
C4 C3 1_555 1_555
H4 C4 1_555 1_555
C5 C4 1_555 1_555
C6 C5 1_555 1_555
C7 C6 1_555 1_555
H5 C7 1_555 1_555
C8 C7 1_555 1_555
H6 C8 1_555 1_555
C9 C8 1_555 1_555
H7 C9 1_555 1_555
C10 C9 1_555 1_555
H8 C10 1_555 1_555
C11 C12 1_555 1_555
C12 C13 1_555 1_555
C13 C14 1_555 1_555
C14 O3 1_555 1_555
N1 C6 1_555 1_555
N2 Cu1 1_555 1_555
O1 Cu1 1_555 1_555
O2 C11 1_555 1_555
O3 Cu1C 1_555 1_555
O4 C14 1_555 1_555
F1 C12 1_555 1_555
F2 C12 1_555 1_555
F3 C13 1_555 1_555
F4 C13 1_555 1_555
Cu1B O4 1_555 1_555
O3G Cu1 1_555 1_555
O4J Cu1 1_555 1_555
C1 N2 1_555 1_555
C5 N2 1_555 1_555
C10 N1 1_555 1_555
C11 O1 1_555 1_555

#END
