
#######################################################################
#
#                 Cambridge Crystallographic Data Centre
#                                CCDC 
#
#######################################################################
#
# If this CIF has been generated from an entry in the Cambridge 
# Structural Database, then it will include bibliographic, chemical, 
# crystal, experimental, refinement or atomic coordinate data resulting 
# from the CCDC's data processing and validation procedures.
#
#######################################################################

data_QUFBOJ
_symmetry_cell_setting           monoclinic
_symmetry_space_group_name_H-M   'P 21/c'
_symmetry_Int_Tables_number      14
_space_group_name_Hall           '-P 2ybc'
loop_
_symmetry_equiv_pos_site_id
_symmetry_equiv_pos_as_xyz
1 x,y,z
2 -x,1/2+y,1/2-z
3 -x,-y,-z
4 x,1/2-y,1/2+z
_cell_length_a                   9.369(2)
_cell_length_b                   13.436(3)
_cell_length_c                   13.359(3)
_cell_angle_alpha                90
_cell_angle_beta                 104.958(6)
_cell_angle_gamma                90
_cell_volume                     1624.67
loop_
_atom_site_label
_atom_site_type_symbol
_atom_site_fract_x
_atom_site_fract_y
_atom_site_fract_z
Cu1 Cu 0.21466(10) 0.07065(6) 0.61352(7)
C1 C 0.2880(10) -0.0438(5) 0.7850(6)
C2 C 0.2587(8) -0.1318(6) 0.8468(5)
C3 C 0.1908(8) -0.1216(5) 0.9289(6)
C4 C 0.2900(8) -0.2276(5) 0.8236(6)
C5 C 0.1560(8) -0.2028(5) 0.9795(5)
C6 C 0.2547(8) -0.3092(5) 0.8743(5)
C7 C 0.1865(8) -0.2994(5) 0.9538(6)
C8 C 0.1412(9) -0.3888(5) 1.0078(5)
C9 C 0.1160(8) 0.2142(6) 0.7501(6)
H1 H 0.0820 0.1593 0.7796
C10 C 0.0893(9) 0.3089(6) 0.7817(6)
H2 H 0.0382 0.3171 0.8323
C11 C 0.1371(10) 0.3892(6) 0.7395(7)
H3 H 0.1179 0.4529 0.7598
C12 C 0.2149(9) 0.3756(6) 0.6658(6)
H4 H 0.2519 0.4301 0.6376
C13 C 0.2372(7) 0.2807(5) 0.6345(5)
C14 C 0.3172(8) 0.2541(5) 0.5545(5)
C15 C 0.3775(8) 0.3233(6) 0.5010(6)
H5 H 0.3708 0.3908 0.5143
C16 C 0.4475(8) 0.2916(6) 0.4280(6)
H6 H 0.4894 0.3373 0.3916
C17 C 0.4546(8) 0.1911(6) 0.4098(5)
H7 H 0.5012 0.1677 0.3608
C18 C 0.3924(8) 0.1267(7) 0.4645(6)
H8 H 0.3998 0.0589 0.4531
N1 N 0.1895(6) 0.2000(4) 0.6779(4)
N2 N 0.3203(6) 0.1564(4) 0.5346(4)
O1 O 0.1720(6) -0.0077(4) 0.7257(4)
O2 O 0.4149(7) -0.0174(5) 0.7939(5)
O3 O 0.0133(6) -0.3926(4) 1.0133(4)
O4 O 0.2436(5) -0.4520(4) 1.0394(4)
F1 F 0.1584(5) -0.0306(3) 0.9566(4)
F2 F 0.3528(5) -0.2425(3) 0.7440(3)
F3 F 0.0910(5) -0.1862(3) 1.0566(3)
F4 F 0.2857(5) -0.3994(3) 0.8422(3)
Cu1A Cu -0.21466(10) -0.42935(6) 0.88648(7)
Cu1C Cu 0.21466(10) -0.57065(6) 1.11352(7)
O3A O -0.0133(6) 0.1074(4) 0.4867(4)
O4C O 0.2436(5) -0.0480(4) 0.5394(4)
loop_
_geom_bond_atom_site_label_1
_geom_bond_atom_site_label_2
_geom_bond_site_symmetry_1
_geom_bond_site_symmetry_2
Cu1 N1 1_555 1_555
C1 C2 1_555 1_555
C2 C3 1_555 1_555
C3 C5 1_555 1_555
C4 C2 1_555 1_555
C5 C7 1_555 1_555
C6 C4 1_555 1_555
C7 C6 1_555 1_555
C8 C7 1_555 1_555
C9 H1 1_555 1_555
C10 C9 1_555 1_555
H2 C10 1_555 1_555
C11 C10 1_555 1_555
H3 C11 1_555 1_555
C12 C11 1_555 1_555
H4 C12 1_555 1_555
C13 C12 1_555 1_555
C14 C13 1_555 1_555
C15 C14 1_555 1_555
H5 C15 1_555 1_555
C16 C15 1_555 1_555
H6 C16 1_555 1_555
C17 C16 1_555 1_555
H7 C17 1_555 1_555
C18 C17 1_555 1_555
H8 C18 1_555 1_555
N1 C9 1_555 1_555
N2 Cu1 1_555 1_555
O1 Cu1 1_555 1_555
O2 C1 1_555 1_555
O3 C8 1_555 1_555
O4 C8 1_555 1_555
F1 C3 1_555 1_555
F2 C4 1_555 1_555
F3 C5 1_555 1_555
F4 C6 1_555 1_555
Cu1A O3 1_555 1_555
Cu1C O4 1_555 1_555
O3A Cu1 1_555 1_555
O4C Cu1 1_555 1_555
C1 O1 1_555 1_555
C13 N1 1_555 1_555
C14 N2 1_555 1_555
C18 N2 1_555 1_555

#END
