
#######################################################################
#
#                 Cambridge Crystallographic Data Centre
#                                CCDC 
#
#######################################################################
#
# If this CIF has been generated from an entry in the Cambridge 
# Structural Database, then it will include bibliographic, chemical, 
# crystal, experimental, refinement or atomic coordinate data resulting 
# from the CCDC's data processing and validation procedures.
#
#######################################################################

data_QUFCAW
_symmetry_cell_setting           monoclinic
_symmetry_space_group_name_H-M   'P 21/c'
_symmetry_Int_Tables_number      14
_space_group_name_Hall           '-P 2ybc'
loop_
_symmetry_equiv_pos_site_id
_symmetry_equiv_pos_as_xyz
1 x,y,z
2 -x,1/2+y,1/2-z
3 -x,-y,-z
4 x,1/2-y,1/2+z
_cell_length_a                   10.3712(15)
_cell_length_b                   14.876(2)
_cell_length_c                   10.6560(15)
_cell_angle_alpha                90
_cell_angle_beta                 103.666(4)
_cell_angle_gamma                90
_cell_volume                     1597.49
loop_
_atom_site_label
_atom_site_type_symbol
_atom_site_fract_x
_atom_site_fract_y
_atom_site_fract_z
Cu1 Cu 0.57563(7) 0.35647(5) 0.78723(6)
C1 C 0.7513(6) 0.3943(4) 0.6094(6)
H1 H 0.6748 0.3927 0.5430
C2 C 0.8711(7) 0.4116(5) 0.5804(7)
H2 H 0.8751 0.4217 0.4953
C3 C 0.9837(7) 0.4139(5) 0.6763(7)
H3 H 1.0651 0.4261 0.6576
C4 C 0.9758(6) 0.3979(5) 0.8014(6)
H4 H 1.0519 0.3976 0.8683
C5 C 0.8524(6) 0.3824(4) 0.8258(5)
C6 C 0.8307(6) 0.3650(4) 0.9561(5)
C7 C 0.9287(6) 0.3676(5) 1.0675(6)
H5 H 1.0165 0.3770 1.0643
C8 C 0.8957(7) 0.3560(5) 1.1846(6)
H6 H 0.9603 0.3590 1.2616
C9 C 0.7655(6) 0.3400(4) 1.1851(6)
H7 H 0.7404 0.3323 1.2626
C10 C 0.6736(6) 0.3354(4) 1.0702(5)
H8 H 0.5860 0.3228 1.0710
C11 C 0.3499(6) 0.3787(5) 0.5838(5)
C12 C 0.2563(5) 0.3222(5) 0.4792(6)
C13 C 0.2861(6) 0.3226(4) 0.3463(6)
C14 C 0.4230(5) 0.2849(4) 0.3363(5)
N1 N 0.7420(5) 0.3799(3) 0.7304(4)
N2 N 0.7038(4) 0.3482(3) 0.9578(4)
O1 O 0.4667(4) 0.3473(3) 0.6132(4)
O2 O 0.3045(5) 0.4441(3) 0.6273(5)
O3 O 0.5054(4) 0.3374(3) 0.3138(4)
O4 O 0.4321(4) 0.2016(3) 0.3512(4)
O5 O 0.5289(5) 0.4983(3) 0.8368(4)
H9 H 0.510(6) 0.538(3) 0.781(4)
H10 H 0.587(5) 0.517(4) 0.901(4)
F1 F 0.2573(4) 0.2364(3) 0.5195(3)
F2 F 0.1298(3) 0.3521(3) 0.4627(3)
F3 F 0.2721(4) 0.4082(3) 0.3034(4)
F4 F 0.1913(3) 0.2743(3) 0.2661(3)
Cu1C Cu 0.57563(7) 0.14353(5) 0.28723(6)
O4C O 0.4321(4) 0.2984(3) 0.8512(4)
O6 O 0.2975(5) 0.4464(4) 0.9349(6)
H11 H 0.310(14) 0.485(5) 0.880(10)
H12 H 0.331(7) 0.396(3) 0.923(7)
loop_
_geom_bond_atom_site_label_1
_geom_bond_atom_site_label_2
_geom_bond_site_symmetry_1
_geom_bond_site_symmetry_2
Cu1 N1 1_555 1_555
C1 H1 1_555 1_555
C2 C1 1_555 1_555
H2 C2 1_555 1_555
C3 C2 1_555 1_555
H3 C3 1_555 1_555
C4 C3 1_555 1_555
H4 C4 1_555 1_555
C5 C4 1_555 1_555
C6 C5 1_555 1_555
C7 C6 1_555 1_555
H5 C7 1_555 1_555
C8 C7 1_555 1_555
H6 C8 1_555 1_555
C9 C8 1_555 1_555
H7 C9 1_555 1_555
C10 C9 1_555 1_555
H8 C10 1_555 1_555
C11 C12 1_555 1_555
C12 C13 1_555 1_555
C13 C14 1_555 1_555
C14 O3 1_555 1_555
N1 C1 1_555 1_555
N2 Cu1 1_555 1_555
O1 Cu1 1_555 1_555
O2 C11 1_555 1_555
O4 C14 1_555 1_555
O5 Cu1 1_555 1_555
H9 O5 1_555 1_555
H10 O5 1_555 1_555
O6 H11 1_555 1_555
H12 O6 1_555 1_555
F1 C12 1_555 1_555
F2 C12 1_555 1_555
F3 C13 1_555 1_555
F4 C13 1_555 1_555
Cu1C O4 1_555 1_555
O4C Cu1 1_555 1_555
C5 N1 1_555 1_555
C6 N2 1_555 1_555
C10 N2 1_555 1_555
C11 O1 1_555 1_555

#END
