
#######################################################################
#
#                 Cambridge Crystallographic Data Centre
#                                CCDC 
#
#######################################################################
#
# If this CIF has been generated from an entry in the Cambridge 
# Structural Database, then it will include bibliographic, chemical, 
# crystal, experimental, refinement or atomic coordinate data resulting 
# from the CCDC's data processing and validation procedures.
#
#######################################################################

data_QUFCEA
_symmetry_cell_setting           triclinic
_symmetry_space_group_name_H-M   'P -1'
_symmetry_Int_Tables_number      2
_space_group_name_Hall           '-P 1'
loop_
_symmetry_equiv_pos_site_id
_symmetry_equiv_pos_as_xyz
1 x,y,z
2 -x,-y,-z
_cell_length_a                   8.787(2)
_cell_length_b                   10.340(3)
_cell_length_c                   10.420(3)
_cell_angle_alpha                78.645(4)
_cell_angle_beta                 79.290(4)
_cell_angle_gamma                71.291(4)
_cell_volume                     871.452
loop_
_atom_site_label
_atom_site_type_symbol
_atom_site_fract_x
_atom_site_fract_y
_atom_site_fract_z
Zn1 Zn 0.51757(8) 0.80093(7) 0.73264(6)
C1 C 0.7473(8) 0.9838(6) 0.6780(6)
H1 H 0.7335 0.9923 0.5900
C2 C 0.8426(8) 1.0512(6) 0.7073(6)
H2 H 0.8937 1.1038 0.6412
C3 C 0.8617(8) 1.0399(6) 0.8370(7)
H3 H 0.9270 1.0844 0.8603
C4 C 0.7832(7) 0.9620(6) 0.9328(6)
H4 H 0.7937 0.9543 1.0213
C5 C 0.6888(6) 0.8956(5) 0.8950(5)
C6 C 0.6022(6) 0.8079(5) 0.9901(5)
C7 C 0.6047(7) 0.7865(6) 1.1245(5)
H5 H 0.6620 0.8289 1.1606
C8 C 0.5217(7) 0.7018(6) 1.2051(6)
H6 H 0.5250 0.6843 1.2957
C9 C 0.4338(7) 0.6433(6) 1.1500(6)
H7 H 0.3764 0.5861 1.2024
C10 C 0.4332(7) 0.6714(6) 1.0168(5)
H8 H 0.3729 0.6330 0.9793
C11 C 0.2357(7) 0.7304(6) 0.6725(5)
C12 C 0.1757(6) 0.6102(5) 0.6643(5)
C13 C 0.2350(6) 0.5335(5) 0.5640(5)
C14 C 0.0665(7) 0.5644(6) 0.7632(5)
C15 C 0.2025(6) 0.4122(5) 0.5591(5)
C16 C 0.0251(7) 0.4509(6) 0.7608(5)
C17 C 0.0927(7) 0.3746(6) 0.6608(5)
C18 C 0.2959(7) 0.3201(6) 0.4562(6)
N1 N 0.6725(5) 0.9062(4) 0.7675(4)
N2 N 0.5153(5) 0.7517(4) 0.9376(4)
O1 O 0.3553(5) 0.6966(4) 0.7317(4)
O2 O 0.1674(5) 0.8461(4) 0.6181(5)
O3 O 0.2955(5) 0.3705(4) 0.3372(4)
O4 O 0.3755(5) 0.1995(4) 0.4955(4)
O5 O 0.3344(6) 0.9844(4) 0.6943(4)
H9 H 0.378(5) 1.035(5) 0.630(4)
H10 H 0.263(6) 0.960(5) 0.661(6)
F1 F 0.3421(4) 0.5744(3) 0.4671(3)
F2 F 0.0526(4) 0.2599(3) 0.6615(4)
F3 F -0.0818(4) 0.4087(4) 0.8578(3)
F4 F 0.0003(4) 0.6373(4) 0.8655(3)
Zn1A Zn 0.48243(8) 0.19907(7) 0.26736(6)
O3A O 0.7045(5) 0.6295(4) 0.6628(4)
O4A O 0.6245(5) 0.8005(4) 0.5045(4)
loop_
_geom_bond_atom_site_label_1
_geom_bond_atom_site_label_2
_geom_bond_site_symmetry_1
_geom_bond_site_symmetry_2
Zn1 N1 1_555 1_555
C1 H1 1_555 1_555
C2 C1 1_555 1_555
H2 C2 1_555 1_555
C3 C2 1_555 1_555
H3 C3 1_555 1_555
C4 C3 1_555 1_555
H4 C4 1_555 1_555
C5 C4 1_555 1_555
C6 C5 1_555 1_555
C7 C6 1_555 1_555
H5 C7 1_555 1_555
C8 C7 1_555 1_555
H6 C8 1_555 1_555
C9 C8 1_555 1_555
H7 C9 1_555 1_555
C10 C9 1_555 1_555
H8 C10 1_555 1_555
C11 C12 1_555 1_555
C12 C13 1_555 1_555
C13 C15 1_555 1_555
C14 C12 1_555 1_555
C15 C17 1_555 1_555
C16 C14 1_555 1_555
C17 C16 1_555 1_555
C18 C15 1_555 1_555
N1 C1 1_555 1_555
N2 Zn1 1_555 1_555
O1 Zn1 1_555 1_555
O2 C11 1_555 1_555
O3 C18 1_555 1_555
O4 C18 1_555 1_555
O5 Zn1 1_555 1_555
H9 O5 1_555 1_555
H10 O5 1_555 1_555
F1 C13 1_555 1_555
F2 C17 1_555 1_555
F3 C16 1_555 1_555
F4 C14 1_555 1_555
Zn1A O3 1_555 1_555
O3A Zn1 1_555 1_555
O4A Zn1 1_555 1_555
C5 N1 1_555 1_555
C6 N2 1_555 1_555
C10 N2 1_555 1_555
C11 O1 1_555 1_555
O4 Zn1A 1_555 1_555

#END
