
#######################################################################
#
#                 Cambridge Crystallographic Data Centre
#                                CCDC 
#
#######################################################################
#
# If this CIF has been generated from an entry in the Cambridge 
# Structural Database, then it will include bibliographic, chemical, 
# crystal, experimental, refinement or atomic coordinate data resulting 
# from the CCDC's data processing and validation procedures.
#
#######################################################################

data_QUFFON
_symmetry_cell_setting           monoclinic
_symmetry_space_group_name_H-M   'C 2/c'
_symmetry_Int_Tables_number      15
_space_group_name_Hall           '-C 2yn'
loop_
_symmetry_equiv_pos_site_id
_symmetry_equiv_pos_as_xyz
1 x,y,z
2 -x,y,1/2-z
3 1/2+x,1/2+y,z
4 1/2-x,1/2+y,1/2-z
5 -x,-y,-z
6 x,-y,1/2+z
7 1/2-x,1/2-y,-z
8 1/2+x,1/2-y,1/2+z
_cell_length_a                   31.700(2)
_cell_length_b                   8.9406(5)
_cell_length_c                   21.5253(18)
_cell_angle_alpha                90
_cell_angle_beta                 93.350(10)
_cell_angle_gamma                90
_cell_volume                     6090.21
loop_
_atom_site_label
_atom_site_type_symbol
_atom_site_fract_x
_atom_site_fract_y
_atom_site_fract_z
C1 C 0.90053(7) 0.1305(3) 0.27043(11)
C2 C 0.89871(7) 0.2311(3) 0.22138(11)
C3 C 0.85559(7) 0.2725(3) 0.21244(11)
C4 C 0.93701(8) 0.0505(4) 0.30164(14)
H1 H 0.9351 0.0556 0.3459
H2 H 0.9629 0.0964 0.2904
H3 H 0.9366 -0.0523 0.2887
C5 C 0.83481(9) 0.3762(4) 0.16637(14)
H4 H 0.8065 0.3562 0.1626
H5 H 0.8462 0.3636 0.1286
H6 H 0.8389 0.473 0.1795
C6 C 0.94860(8) 0.4264(3) 0.17795(13)
C7 C 0.93340(7) 0.2826(3) 0.18378(11)
C8 C 0.95597(7) 0.1934(3) 0.14233(11)
C9 C 0.93781(12) 0.5696(4) 0.20866(19)
H7 H 0.9446 0.649 0.1837
H8 H 0.9094 0.5716 0.2148
H9 H 0.9528 0.5770 0.2464
C10 C 0.95354(9) 0.0308(4) 0.13077(14)
H10 H 0.9689 0.0074 0.0982
H11 H 0.9638 -0.0188 0.1649
H12 H 0.9264 0.0043 0.1222
C11 C 0.71178(7) 0.1328(3) 0.44719(11)
C12 C 0.68183(7) 0.2368(3) 0.42665(11)
C13 C 0.69223(8) 0.2764(3) 0.36552(12)
C14 C 0.71708(10) 0.0498(4) 0.50742(14)
H13 H 0.7155 -0.045 0.5004
H14 H 0.6973 0.076 0.5313
H15 H 0.7415 0.071 0.5255
C15 C 0.67024(11) 0.3786(4) 0.32011(16)
H16 H 0.6836 0.464 0.3198
H17 H 0.6445 0.393 0.3307
H18 H 0.6697 0.3388 0.2832
C16 C 0.63842(7) 0.4411(3) 0.47745(12)
C17 C 0.64559(7) 0.2952(3) 0.45943(11)
C18 C 0.61019(7) 0.2131(3) 0.47707(11)
C19 C 0.66313(10) 0.5811(4) 0.47145(17)
H19 H 0.6459 0.6548 0.4589
H20 H 0.6825 0.5677 0.4438
H21 H 0.6758 0.6045 0.5081
C20 C 0.60058(9) 0.0521(4) 0.46779(14)
H22 H 0.5732 0.0333 0.4779
H23 H 0.6190 -0.0042 0.4929
H24 H 0.6035 0.0271 0.4267
C21 C 0.69811(7) 0.3223(3) 0.15150(11)
C22 C 0.66059(7) 0.2175(3) 0.14255(10)
C23 C 0.66466(10) 0.0668(4) 0.15845(14)
C24 C 0.63076(11) -0.0299(4) 0.14793(16)
C25 C 0.59262(9) 0.0220(3) 0.12229(13)
H25 H 0.5699 -0.0434 0.1166
C26 C 0.58785(7) 0.1708(3) 0.10488(11)
C27 C 0.54714(7) 0.2239(3) 0.07052(11)
C28 C 0.62205(7) 0.2680(3) 0.11546(10)
N1 N 0.83279(6) 0.2012(2) 0.25367(9)
N2 N 0.86068(6) 0.1162(2) 0.28841(9)
N3 N 0.98272(6) 0.2812(3) 0.11261(10)
N4 N 0.97814(7) 0.4204(3) 0.13560(11)
N5 N 0.72706(6) 0.2022(3) 0.35114(10)
N6 N 0.73821(6) 0.1155(2) 0.40096(10)
N7 N 0.58321(6) 0.3048(3) 0.50388(10)
N8 N 0.60106(6) 0.4413(3) 0.50412(10)
O1 O 0.73222(6) 0.2717(3) 0.17304(12)
O2 O 0.69169(5) 0.4574(2) 0.13451(9)
O3 O 0.51592(6) 0.1365(3) 0.06812(11)
O4 O 0.54696(5) 0.3478(2) 0.04364(10)
Ag1 Ag 0.766289(6) 0.21200(3) 0.272940(10)
Ag2 Ag 1.019190(6) 0.23526(3) 0.031080(10)
H26 H 0.8520(9) 0.064(4) 0.3155(14)
H27 H 0.9920(9) 0.483(3) 0.1198(14)
H28 H 0.7597(9) 0.061(3) 0.3981(12)
H29 H 0.5876(10) 0.516(4) 0.5160(15)
H30 H 0.6890 0.033 0.1729
H31 H 0.6344 -0.123 0.1590
H32 H 0.6196 0.369 0.1036
N7G N 1.08321(6) 0.1952(3) 0.00388(10)
O3F O 0.98408(6) 0.3635(3) -0.06812(11)
O4F O 0.95304(5) 0.1522(2) -0.04364(10)
Ag2G Ag 0.519190(6) 0.26474(3) 0.531080(10)
Ag2F Ag 0.480810(6) 0.26474(3) -0.031080(10)
loop_
_geom_bond_atom_site_label_1
_geom_bond_atom_site_label_2
_geom_bond_site_symmetry_1
_geom_bond_site_symmetry_2
C1 C2 1_555 1_555
C2 C3 1_555 1_555
C3 C5 1_555 1_555
C4 C1 1_555 1_555
H1 C4 1_555 1_555
H2 C4 1_555 1_555
H3 C4 1_555 1_555
C5 H4 1_555 1_555
H5 C5 1_555 1_555
H6 C5 1_555 1_555
C6 C7 1_555 1_555
C7 C2 1_555 1_555
C8 C7 1_555 1_555
C9 C6 1_555 1_555
H7 C9 1_555 1_555
H8 C9 1_555 1_555
H9 C9 1_555 1_555
C10 C8 1_555 1_555
H10 C10 1_555 1_555
H11 C10 1_555 1_555
H12 C10 1_555 1_555
C11 C12 1_555 1_555
C12 C13 1_555 1_555
C13 C15 1_555 1_555
C14 C11 1_555 1_555
H13 C14 1_555 1_555
H14 C14 1_555 1_555
H15 C14 1_555 1_555
C15 H16 1_555 1_555
H17 C15 1_555 1_555
H18 C15 1_555 1_555
C16 C17 1_555 1_555
C17 C12 1_555 1_555
C18 C17 1_555 1_555
C19 C16 1_555 1_555
H19 C19 1_555 1_555
H20 C19 1_555 1_555
H21 C19 1_555 1_555
C20 C18 1_555 1_555
H22 C20 1_555 1_555
H23 C20 1_555 1_555
H24 C20 1_555 1_555
C21 C22 1_555 1_555
C22 C23 1_555 1_555
C23 C24 1_555 1_555
C24 C25 1_555 1_555
C25 H25 1_555 1_555
C26 C25 1_555 1_555
C27 C26 1_555 1_555
C28 C22 1_555 1_555
N1 C3 1_555 1_555
N2 C1 1_555 1_555
N3 C8 1_555 1_555
N4 C6 1_555 1_555
N5 C13 1_555 1_555
N6 C11 1_555 1_555
N7 C18 1_555 1_555
N8 C16 1_555 1_555
O1 C21 1_555 1_555
O2 C21 1_555 1_555
O3 C27 1_555 1_555
O4 C27 1_555 1_555
Ag1 N1 1_555 1_555
Ag2 N3 1_555 1_555
H26 N2 1_555 1_555
H27 N4 1_555 1_555
H28 N6 1_555 1_555
H29 N8 1_555 1_555
H30 C23 1_555 1_555
H31 C24 1_555 1_555
H32 C28 1_555 1_555
N7G Ag2 1_555 1_555
O3F Ag2 1_555 1_555
O4F Ag2 1_555 1_555
Ag2G N7 1_555 1_555
Ag2F O3 1_555 1_555
C26 C28 1_555 1_555
N1 N2 1_555 1_555
N3 N4 1_555 1_555
N5 N6 1_555 1_555
N5 Ag1 1_555 1_555
N7 N8 1_555 1_555
O1 Ag1 1_555 1_555
O4 Ag2F 1_555 1_555

#END
