
#######################################################################
#
#                 Cambridge Crystallographic Data Centre
#                                CCDC 
#
#######################################################################
#
# If this CIF has been generated from an entry in the Cambridge 
# Structural Database, then it will include bibliographic, chemical, 
# crystal, experimental, refinement or atomic coordinate data resulting 
# from the CCDC's data processing and validation procedures.
#
#######################################################################

data_QUFFAZ
_symmetry_cell_setting           monoclinic
_symmetry_space_group_name_H-M   'P 21/c'
_symmetry_Int_Tables_number      14
_space_group_name_Hall           '-P 2ybc'
loop_
_symmetry_equiv_pos_site_id
_symmetry_equiv_pos_as_xyz
1 x,y,z
2 -x,1/2+y,1/2-z
3 -x,-y,-z
4 x,1/2-y,1/2+z
_cell_length_a                   10.6313(12)
_cell_length_b                   9.5834(10)
_cell_length_c                   18.827(2)
_cell_angle_alpha                90
_cell_angle_beta                 102.538(2)
_cell_angle_gamma                90
_cell_volume                     1872.43
loop_
_atom_site_label
_atom_site_type_symbol
_atom_site_fract_x
_atom_site_fract_y
_atom_site_fract_z
C1 C -0.0299(2) 0.7971(3) 0.16656(13)
C2 C 0.0884(2) 0.7721(3) 0.21240(12)
C3 C 0.1516(2) 0.6794(3) 0.17423(12)
C4 C -0.1391(3) 0.8858(3) 0.17650(16)
H1 H -0.1641 0.946 0.1357
H2 H -0.1133 0.940 0.2193
H3 H -0.2097 0.8283 0.1809
C5 C 0.2815(2) 0.6160(3) 0.19905(14)
H4 H 0.2864 0.5344 0.1733
H5 H 0.2953 0.596 0.2483
H6 H 0.3438 0.6782 0.1910
C6 C 0.2409(2) 0.9214(3) 0.30451(13)
C7 C 0.1365(2) 0.8336(3) 0.28434(13)
C8 C 0.0840(2) 0.8207(3) 0.34647(13)
C9 C 0.3339(3) 0.9762(4) 0.26239(15)
H7 H 0.4106 0.9330 0.2772
H8 H 0.3033 0.960 0.2145
H9 H 0.3441 1.069 0.2700
C10 C -0.0292(3) 0.7380(3) 0.35659(16)
H10 H -0.0957 0.7974 0.3595
H11 H -0.0546 0.679 0.3178
H12 H -0.0072 0.687 0.3987
C11 C 0.3311(2) 1.3073(2) 0.05105(12)
C12 C 0.3629(2) 1.1549(2) 0.06135(13)
C13 C 0.4867(2) 1.1145(3) 0.09372(15)
C14 C 0.5189(3) 0.9745(3) 0.09808(15)
C15 C 0.4288(2) 0.8740(2) 0.07041(13)
C16 C 0.4703(2) 0.7237(2) 0.07255(13)
C17 C 0.3035(2) 0.9141(3) 0.03997(15)
C18 C 0.2707(2) 1.0541(2) 0.03566(15)
N1 N 0.07738(19) 0.6504(2) 0.10907(10)
N2 N -0.0323(2) 0.7241(2) 0.10576(11)
N3 N 0.15218(19) 0.8961(2) 0.40081(11)
N4 N 0.2470(2) 0.9561(2) 0.37403(11)
O1 O 0.22155(16) 1.34261(17) 0.01724(10)
O2 O 0.42135(17) 1.39079(17) 0.07768(11)
O3 O 0.37931(16) 0.63683(18) 0.04658(10)
O4 O 0.58242(17) 0.69138(18) 0.09761(11)
Ag1 Ag 0.129166(17) 0.578854(19) 0.011742(9)
H13 H -0.092(3) 0.713(3) 0.0705(17)
H14 H 0.403(4) 0.544(4) 0.059(2)
H15 H 0.296(3) 1.006(3) 0.3979(17)
H16 H 0.547 1.184 0.1114
H17 H 0.598 0.949 0.1187
H18 H 0.245 0.852 0.0215
H19 H 0.188 1.080 0.0139
N3C N 0.15218(19) 0.6039(2) -0.09919(11)
O1_2 O 0.22155(16) 0.34261(17) 0.01724(10)
Ag1C Ag 0.129166(17) 0.921146(19) 0.511742(9)
Ag1_2 Ag 0.129166(17) 1.578854(19) 0.011742(9)
loop_
_geom_bond_atom_site_label_1
_geom_bond_atom_site_label_2
_geom_bond_site_symmetry_1
_geom_bond_site_symmetry_2
C1 C2 1_555 1_555
C2 C3 1_555 1_555
C3 C5 1_555 1_555
C4 C1 1_555 1_555
H1 C4 1_555 1_555
H2 C4 1_555 1_555
H3 C4 1_555 1_555
C5 H4 1_555 1_555
H5 C5 1_555 1_555
H6 C5 1_555 1_555
C6 C7 1_555 1_555
C7 C2 1_555 1_555
C8 C7 1_555 1_555
C9 C6 1_555 1_555
H7 C9 1_555 1_555
H8 C9 1_555 1_555
H9 C9 1_555 1_555
C10 C8 1_555 1_555
H10 C10 1_555 1_555
H11 C10 1_555 1_555
H12 C10 1_555 1_555
C11 C12 1_555 1_555
C12 C13 1_555 1_555
C13 C14 1_555 1_555
C14 C15 1_555 1_555
C15 C16 1_555 1_555
C16 O3 1_555 1_555
C17 C15 1_555 1_555
C18 C12 1_555 1_555
N1 C3 1_555 1_555
N2 C1 1_555 1_555
N3 C8 1_555 1_555
N4 C6 1_555 1_555
O1 C11 1_555 1_555
O2 C11 1_555 1_555
O3 Ag1 1_555 1_555
O4 C16 1_555 1_555
Ag1 N1 1_555 1_555
H13 N2 1_555 1_555
H14 O3 1_555 1_555
H15 N4 1_555 1_555
H16 C13 1_555 1_555
H17 C14 1_555 1_555
H18 C17 1_555 1_555
H19 C18 1_555 1_555
N3C Ag1 1_555 1_555
O1_2 Ag1 1_555 1_555
Ag1C N3 1_555 1_555
Ag1_2 O1 1_555 1_555
C17 C18 1_555 1_555
N1 N2 1_555 1_555
N3 N4 1_555 1_555

#END
