
#######################################################################
#
#                 Cambridge Crystallographic Data Centre
#                                CCDC 
#
#######################################################################
#
# If this CIF has been generated from an entry in the Cambridge 
# Structural Database, then it will include bibliographic, chemical, 
# crystal, experimental, refinement or atomic coordinate data resulting 
# from the CCDC's data processing and validation procedures.
#
#######################################################################

data_QUFFUT
_symmetry_cell_setting           orthorhombic
_symmetry_space_group_name_H-M   'P 21 21 21'
_symmetry_Int_Tables_number      19
_space_group_name_Hall           'P 2ac 2ab'
loop_
_symmetry_equiv_pos_site_id
_symmetry_equiv_pos_as_xyz
1 x,y,z
2 1/2-x,-y,1/2+z
3 1/2+x,1/2-y,-z
4 -x,1/2+y,1/2-z
_cell_length_a                   8.8317(3)
_cell_length_b                   13.4885(5)
_cell_length_c                   16.2387(8)
_cell_angle_alpha                90
_cell_angle_beta                 90
_cell_angle_gamma                90
_cell_volume                     1934.46
loop_
_atom_site_label
_atom_site_type_symbol
_atom_site_fract_x
_atom_site_fract_y
_atom_site_fract_z
C1 C 0.0541(2) 1.16180(15) 0.08932(14)
C2 C 0.0133(2) 1.18468(15) 0.16990(14)
C3 C 0.1222(3) 1.13839(14) 0.21986(12)
C4 C -0.0147(3) 1.18908(18) 0.00853(14)
H1 H 0.0593 1.1859 -0.0327
H2 H -0.0533 1.2537 0.0114
H3 H -0.0933 1.1448 -0.0039
C5 C 0.1331(3) 1.13616(16) 0.31151(13)
H4 H 0.1614 1.0712 0.3291
H5 H 0.0373 1.1531 0.3348
H6 H 0.2075 1.1827 0.3293
C6 C -0.2671(3) 1.22702(15) 0.17375(13)
C7 C -0.1177(2) 1.24407(13) 0.19518(14)
C8 C -0.1189(3) 1.33086(14) 0.24346(13)
C9 C -0.3380(3) 1.14508(16) 0.12553(15)
H7 H -0.4442 1.1465 0.1330
H8 H -0.2995 1.0835 0.1440
H9 H -0.3151 1.1533 0.0690
C10 C 0.0113(3) 1.38216(17) 0.28393(16)
H10 H -0.0025 1.4483 0.2813
H11 H 0.0978 1.3659 0.2579
H12 H 0.0170 1.3633 0.3370
C11 C 1.0163(2) 1.02812(16) 0.52890(12)
C12 C 0.8885(2) 1.07124(15) 0.47976(13)
C13 C 0.8122(2) 1.01362(18) 0.42206(13)
C14 C 0.6922(2) 1.05355(16) 0.37705(14)
C15 C 0.6009(2) 0.99031(16) 0.31938(12)
C16 C 0.6543(3) 1.15369(16) 0.38747(14)
C17 C 0.7316(3) 1.21118(18) 0.44431(16)
C18 C 0.8462(3) 1.17004(15) 0.49160(14)
N1 N 0.2222(2) 1.09046(13) 0.17271(11)
N2 N 0.1783(2) 1.10531(13) 0.09356(12)
N3 N -0.2611(2) 1.36493(13) 0.24940(12)
N4 N -0.3499(2) 1.30040(11) 0.20695(11)
O1 O 1.03994(18) 1.06936(11) 0.59866(10)
O2 O 1.08926(17) 0.95733(11) 0.49976(10)
O3 O 0.50235(18) 1.03708(11) 0.27675(9)
O4 O 0.62273(19) 0.89880(10) 0.31675(9)
Zn1 Zn 0.36445(3) 0.980270(17) 0.197700(14)
H13 H 0.235(3) 1.0883(19) 0.0608(17)
H14 H -0.443(3) 1.3162(17) 0.1982(19)
H15 H 0.842 0.946 0.4147
H16 H 0.576 1.181 0.3587
H17 H 0.704 1.278 0.4523
H18 H 0.896 1.2074 0.5335
N3C N 0.2611(2) 0.86493(13) 0.25060(12)
O1A O 0.46006(18) 0.93064(11) 0.09866(10)
Zn1C Zn -0.36445(3) 1.480270(17) 0.302300(14)
Zn1A Zn 1.13555(3) 1.019730(17) 0.697700(14)
loop_
_geom_bond_atom_site_label_1
_geom_bond_atom_site_label_2
_geom_bond_site_symmetry_1
_geom_bond_site_symmetry_2
C1 C2 1_555 1_555
C2 C3 1_555 1_555
C3 C5 1_555 1_555
C4 C1 1_555 1_555
H1 C4 1_555 1_555
H2 C4 1_555 1_555
H3 C4 1_555 1_555
C5 H4 1_555 1_555
H5 C5 1_555 1_555
H6 C5 1_555 1_555
C6 C7 1_555 1_555
C7 C2 1_555 1_555
C8 C7 1_555 1_555
C9 C6 1_555 1_555
H7 C9 1_555 1_555
H8 C9 1_555 1_555
H9 C9 1_555 1_555
C10 C8 1_555 1_555
H10 C10 1_555 1_555
H11 C10 1_555 1_555
H12 C10 1_555 1_555
C11 C12 1_555 1_555
C12 C13 1_555 1_555
C13 C14 1_555 1_555
C14 C15 1_555 1_555
C15 O3 1_555 1_555
C16 C14 1_555 1_555
C17 C16 1_555 1_555
C18 C12 1_555 1_555
N1 C3 1_555 1_555
N2 C1 1_555 1_555
N3 C8 1_555 1_555
N4 C6 1_555 1_555
O1 C11 1_555 1_555
O2 C11 1_555 1_555
O3 Zn1 1_555 1_555
O4 C15 1_555 1_555
Zn1 N1 1_555 1_555
H13 N2 1_555 1_555
H14 N4 1_555 1_555
H15 C13 1_555 1_555
H16 C16 1_555 1_555
H17 C17 1_555 1_555
H18 C18 1_555 1_555
N3C Zn1 1_555 1_555
O1A Zn1 1_555 1_555
Zn1C N3 1_555 1_555
Zn1A O1 1_555 1_555
C17 C18 1_555 1_555
N1 N2 1_555 1_555
N3 N4 1_555 1_555

#END
