
#######################################################################
#
#                 Cambridge Crystallographic Data Centre
#                                CCDC 
#
#######################################################################
#
# If this CIF has been generated from an entry in the Cambridge 
# Structural Database, then it will include bibliographic, chemical, 
# crystal, experimental, refinement or atomic coordinate data resulting 
# from the CCDC's data processing and validation procedures.
#
#######################################################################

data_QUFGEE
_symmetry_cell_setting           tetragonal
_symmetry_space_group_name_H-M   'I 41/a'
_symmetry_Int_Tables_number      88
_space_group_name_Hall           '-I 4ad'
loop_
_symmetry_equiv_pos_site_id
_symmetry_equiv_pos_as_xyz
1 x,y,z
2 1/2-x,-y,1/2+z
3 3/4-y,1/4+x,1/4+z
4 3/4+y,3/4-x,3/4+z
5 1/2+x,1/2+y,1/2+z
6 -x,1/2-y,z
7 1/4-y,3/4+x,3/4+z
8 1/4+y,1/4-x,1/4+z
9 -x,-y,-z
10 1/2+x,y,1/2-z
11 1/4+y,3/4-x,3/4-z
12 1/4-y,1/4+x,1/4-z
13 1/2-x,1/2-y,1/2-z
14 x,1/2+y,-z
15 3/4+y,1/4-x,1/4-z
16 3/4-y,3/4+x,3/4-z
_cell_length_a                   34.5676(12)
_cell_length_b                   34.5676(12)
_cell_length_c                   10.3008(4)
_cell_angle_alpha                90
_cell_angle_beta                 90
_cell_angle_gamma                90
_cell_volume                     12308.6
loop_
_atom_site_label
_atom_site_type_symbol
_atom_site_fract_x
_atom_site_fract_y
_atom_site_fract_z
C1 C 0.53276(8) 0.47974(8) 0.2728(2)
C2 C 0.54303(8) 0.51757(8) 0.2435(2)
C3 C 0.58028(8) 0.51495(8) 0.1877(3)
C4 C 0.49748(9) 0.46308(9) 0.3337(3)
H1 H 0.4799 0.4832 0.353
H2 H 0.5044 0.4500 0.411
H3 H 0.4858 0.4455 0.276
C5 C 0.60479(9) 0.54739(9) 0.1389(3)
H4 H 0.6234 0.5374 0.076
H5 H 0.6187 0.5592 0.2118
H6 H 0.5883 0.5669 0.097
C6 C 0.48544(8) 0.56282(9) 0.2048(3)
C7 C 0.51954(8) 0.55242(8) 0.2660(2)
C8 C 0.52684(8) 0.58262(8) 0.3544(3)
C9 C 0.46318(11) 0.54278(11) 0.1002(3)
H7 H 0.4807 0.5277 0.047
H8 H 0.4504 0.5618 0.047
H9 H 0.4441 0.5259 0.1389
C10 C 0.56074(9) 0.58675(9) 0.4441(3)
H10 H 0.5543 0.6041 0.5126
H11 H 0.5823 0.5967 0.3972
H12 H 0.5672 0.5622 0.4794
C11 C 0.62238(8) 0.46524(8) -0.3331(2)
C12 C 0.64308(7) 0.49803(7) -0.3001(2)
C13 C 0.65945(7) 0.48985(7) -0.1773(2)
C14 C 0.59833(9) 0.45646(8) -0.4495(3)
H13 H 0.5948 0.4788 -0.498
H14 H 0.5750 0.447 -0.4234
H15 H 0.6107 0.4381 -0.500
C15 C 0.68615(8) 0.51408(8) -0.0979(2)
H16 H 0.6788 0.5404 -0.1046
H17 H 0.7118 0.5110 -0.1288
H18 H 0.6848 0.5062 -0.0100
C16 C 0.63472(7) 0.57051(7) -0.3343(2)
C17 C 0.64717(8) 0.53426(8) -0.3729(2)
C18 C 0.66465(8) 0.53996(8) -0.4951(2)
C19 C 0.61239(8) 0.58348(9) -0.2177(2)
H19 H 0.5973 0.5622 -0.1849
H20 H 0.5955 0.6044 -0.2416
H21 H 0.6301 0.5921 -0.1516
C20 C 0.68264(9) 0.51080(9) -0.5842(3)
H22 H 0.6850 0.522 -0.671
H23 H 0.6665 0.4877 -0.587
H24 H 0.7083 0.5040 -0.552
C21 C 0.57778(8) 0.36429(8) 0.1556(3)
C22 C 0.56014(10) 0.32554(9) 0.1286(3)
H25 H 0.5614 0.3102 0.204
H26 H 0.5738 0.3133 0.061
H27 H 0.5341 0.32877 0.104
N1 N 0.59186(6) 0.47827(7) 0.1827(2)
N2 N 0.56262(7) 0.45743(7) 0.2356(2)
N3 N 0.49893(7) 0.60917(7) 0.3497(2)
N4 N 0.47393(8) 0.59636(8) 0.2569(2)
N5 N 0.64913(7) 0.45443(6) -0.13814(19)
N6 N 0.62711(7) 0.43994(7) -0.2350(2)
N7 N 0.66393(6) 0.57722(6) -0.52732(19)
N8 N 0.64571(7) 0.59550(6) -0.4272(2)
O1 O 0.59424(6) 0.38198(6) 0.06449(19)
O2 O 0.57578(6) 0.37784(5) 0.27109(17)
Ag1 Ag 0.637124(6) 0.441515(6) 0.068442(18)
H28 H 0.5655(8) 0.4340(5) 0.242(3)
H33 H 0.4545(10) 0.6085(10) 0.238(3)
H34 H 0.6174(8) 0.4172(8) -0.230(3)
H35 H 0.6387(10) 0.6191(9) -0.432(3)
N7F N 0.67278(6) 0.41393(6) 0.22268(19)
Ag1G Ag 0.691515(6) 0.612876(6) -0.681558(18)
O3 O 0.40412(6) 0.63302(5) 0.18772(19)
H29 H 0.4044(13) 0.6306(13) 0.0949(4)
H30 H 0.3919(12) 0.6562(8) 0.218(5)
O4 O 0.47723(7) 0.65628(7) 0.5669(2)
H31 H 0.4566(9) 0.6428(12) 0.610(4)
H32 H 0.4814(16) 0.6394(13) 0.494(3)
O5 O 0.61020(10) 0.29271(8) 0.7374(3)
O6 O 0.55824(14) 0.25113(10) 0.9087(4)
O7 O 0.5000 0.7500 0.3496(7)
O8 O 0.4082(2) 0.70959(19) 0.5103(6)
H36 H 0.415(3) 0.7321(15) 0.559(7)
H37 H 0.3810(6) 0.710(3) 0.492(8)
O9? O 0.4787(6) 0.7169(8) 0.435(3)
H38? H 0.5815 0.5712 0.4136
H39? H 0.5535 0.5786 0.5289
H40? H 0.5687 0.6131 0.4467
H41? H 0.8195 0.3419 0.300
H42? H 0.7880 0.362 0.2262
H43? H 0.7788 0.3260 0.303
H44? H 0.7520 0.4548 0.692
H45? H 0.7226 0.4218 0.717
H46? H 0.7178 0.4488 0.5977
H47? H 0.6397 0.3679 0.5496
H48? H 0.6819 0.3697 0.6062
H49? H 0.6696 0.3351 0.5162
H50? H 0.7627 0.438 0.214
H51? H 0.7287 0.4565 0.130
H52? H 0.7451 0.4148 0.095
H53? H 0.5515 0.3247 0.042
H54? H 0.5391 0.3215 0.185
H55? H 0.5788 0.3061 0.142
H56? H 0.5001 0.4360 0.340
H57? H 0.4757 0.4691 0.282
H58? H 0.4943 0.4736 0.418
H59? H 0.5969 0.5715 0.181
H60? H 0.6016 0.5498 0.045
H61? H 0.6320 0.5421 0.159
H62? H 0.444(3) 0.6951(10) 0.516(9)
H63? H 0.4619(16) 0.729(3) 0.533(10)
H64? H 0.4361 0.5492 0.108
H65? H 0.4664 0.5151 0.109
H66? H 0.4726 0.5510 0.016
O10? O 0.4377(2) 0.72131(16) 0.4952(5)
loop_
_geom_bond_atom_site_label_1
_geom_bond_atom_site_label_2
_geom_bond_site_symmetry_1
_geom_bond_site_symmetry_2
C1 C2 1_555 1_555
C2 C3 1_555 1_555
C3 C5 1_555 1_555
C4 C1 1_555 1_555
H1 C4 1_555 1_555
H2 C4 1_555 1_555
H3 C4 1_555 1_555
C5 H4 1_555 1_555
H5 C5 1_555 1_555
H6 C5 1_555 1_555
C6 C7 1_555 1_555
C7 C2 1_555 1_555
C8 C7 1_555 1_555
C9 C6 1_555 1_555
H7 C9 1_555 1_555
H8 C9 1_555 1_555
H9 C9 1_555 1_555
C10 C8 1_555 1_555
H10 C10 1_555 1_555
H11 C10 1_555 1_555
H12 C10 1_555 1_555
C11 C12 1_555 1_555
C12 C13 1_555 1_555
C13 C15 1_555 1_555
C14 C11 1_555 1_555
H13 C14 1_555 1_555
H14 C14 1_555 1_555
H15 C14 1_555 1_555
C15 H16 1_555 1_555
H17 C15 1_555 1_555
H18 C15 1_555 1_555
C16 C17 1_555 1_555
C17 C12 1_555 1_555
C18 C17 1_555 1_555
C19 C16 1_555 1_555
H19 C19 1_555 1_555
H20 C19 1_555 1_555
H21 C19 1_555 1_555
C20 C18 1_555 1_555
H22 C20 1_555 1_555
H23 C20 1_555 1_555
H24 C20 1_555 1_555
C21 C22 1_555 1_555
C22 H25 1_555 1_555
H26 C22 1_555 1_555
H27 C22 1_555 1_555
N1 C3 1_555 1_555
N2 C1 1_555 1_555
N3 C8 1_555 1_555
N4 C6 1_555 1_555
N5 C13 1_555 1_555
N6 C11 1_555 1_555
N7 C18 1_555 1_555
N8 C16 1_555 1_555
O1 C21 1_555 1_555
O2 C21 1_555 1_555
O3 H29 1_555 1_555
O4 H31 1_555 1_555
O8 H36 1_555 1_555
Ag1 N1 1_555 1_555
H28 N2 1_555 1_555
H30 O3 1_555 1_555
H32 O4 1_555 1_555
H33 N4 1_555 1_555
H34 N6 1_555 1_555
H35 N8 1_555 1_555
H37 O8 1_555 1_555
N7F Ag1 1_555 1_555
Ag1G N7 1_555 1_555
N1 N2 1_555 1_555
N3 N4 1_555 1_555
N5 N6 1_555 1_555
N5 Ag1 1_555 1_555
N7 N8 1_555 1_555
O1 Ag1 1_555 1_555

#END
