
#######################################################################
#
#                 Cambridge Crystallographic Data Centre
#                                CCDC 
#
#######################################################################
#
# If this CIF has been generated from an entry in the Cambridge 
# Structural Database, then it will include bibliographic, chemical, 
# crystal, experimental, refinement or atomic coordinate data resulting 
# from the CCDC's data processing and validation procedures.
#
#######################################################################

data_QUFHIJ
_symmetry_cell_setting           monoclinic
_symmetry_space_group_name_H-M   'P 21/c'
_symmetry_Int_Tables_number      14
_space_group_name_Hall           '-P 2ybc'
loop_
_symmetry_equiv_pos_site_id
_symmetry_equiv_pos_as_xyz
1 x,y,z
2 -x,1/2+y,1/2-z
3 -x,-y,-z
4 x,1/2-y,1/2+z
_cell_length_a                   9.0782(5)
_cell_length_b                   10.3625(5)
_cell_length_c                   13.6625(7)
_cell_angle_alpha                90
_cell_angle_beta                 95.371(3)
_cell_angle_gamma                90
_cell_volume                     1279.63
loop_
_atom_site_label
_atom_site_type_symbol
_atom_site_fract_x
_atom_site_fract_y
_atom_site_fract_z
Co1 Co 0.5000 0.5000 0.0000
N1 N 0.7325(3) 0.5305(2) 0.04638(18)
N2 N 0.9477(3) 0.5331(2) 0.13155(19)
N3 N 0.9537(3) 0.6287(3) 0.0642(2)
C1 C 0.8222(4) 0.6219(3) 0.0152(2)
H1 H 0.7933 0.6764 -0.0372
C2 C 0.8158(4) 0.4768(3) 0.1200(2)
H2 H 0.7861 0.4091 0.1582
C3 C 1.2589(4) 0.4605(3) 0.3987(2)
C4 C 1.1529(3) 0.5574(3) 0.3879(2)
C5 C 1.0690(4) 0.5062(3) 0.2053(2)
H3 H 1.1621 0.5194 0.1771
H4 H 1.0644 0.4166 0.2253
C6 C 1.1260(4) 0.6259(3) 0.4720(3)
H5 H 1.0580 0.6933 0.4668
C7 C 1.0637(4) 0.5924(3) 0.2947(2)
C8 C 1.3320(4) 0.4286(3) 0.4886(3)
H6 H 1.4013 0.3623 0.4947
C9 C 1.2985(5) 0.4981(4) 0.5678(3)
C10 C 1.1972(4) 0.5969(4) 0.5629(3)
H7 H 1.1774 0.6426 0.6188
F1 F 1.2931(3) 0.3932(2) 0.31998(16)
F2 F 1.3680(4) 0.4689(3) 0.65732(19)
O1 O 0.9841(3) 0.6863(3) 0.2901(2)
N4 N 0.4509(3) 0.6303(3) 0.10977(19)
C11 C 0.4253(3) 0.6790(3) 0.1811(2)
N5 N 0.3749(3) 0.7282(3) 0.2589(2)
C12 C 0.4543(3) 0.7894(3) 0.3281(2)
N6 N 0.5044(3) 0.8467(3) 0.39476(19)
Co1A Co 0.5000 0.0000 -0.5000
Co1A_2 Co 0.5000 1.0000 0.5000
N1B N 0.2675(3) 0.4695(2) -0.04638(18)
N2B N 0.0523(3) 0.4669(2) -0.13155(19)
N3B N 0.0463(3) 0.3713(3) -0.0642(2)
C1B C 0.1778(4) 0.3781(3) -0.0152(2)
H1B H 0.2067 0.3236 0.0372
C2B C 0.1842(4) 0.5232(3) -0.1200(2)
H2B H 0.2139 0.5909 -0.1582
C3B C -0.2589(4) 0.5395(3) -0.3987(2)
C4B C -0.1529(3) 0.4426(3) -0.3879(2)
C5B C -0.0690(4) 0.4938(3) -0.2053(2)
H3B H -0.1621 0.4806 -0.1771
H4B H -0.0644 0.5834 -0.2253
C6B C -0.1260(4) 0.3741(3) -0.4720(3)
H5B H -0.0580 0.3067 -0.4668
C7B C -0.0637(4) 0.4076(3) -0.2947(2)
C8B C -0.3320(4) 0.5714(3) -0.4886(3)
H6B H -0.4013 0.6377 -0.4947
C9B C -0.2985(5) 0.5019(4) -0.5678(3)
C10B C -0.1972(4) 0.4031(4) -0.5629(3)
H7B H -0.1774 0.3574 -0.6188
F1B F -0.2931(3) 0.6068(2) -0.31998(16)
F2B F -0.3680(4) 0.5311(3) -0.65732(19)
O1B O 0.0159(3) 0.3137(3) -0.2901(2)
N4B N 0.5491(3) 0.3697(3) -0.10977(19)
C11B C 0.5747(3) 0.3210(3) -0.1811(2)
N5B N 0.6251(3) 0.2718(3) -0.2589(2)
C12B C 0.5457(3) 0.2106(3) -0.3281(2)
N6B N 0.4956(3) 0.1533(3) -0.39476(19)
N6A N 0.4956(3) 0.3467(3) 0.10524(19)
N6C N 0.5044(3) 0.6533(3) -0.10524(19)
loop_
_geom_bond_atom_site_label_1
_geom_bond_atom_site_label_2
_geom_bond_site_symmetry_1
_geom_bond_site_symmetry_2
Co1 N1 1_555 1_555
N1 C1 1_555 1_555
N2 N3 1_555 1_555
N3 C1 1_555 1_555
C1 H1 1_555 1_555
C2 N1 1_555 1_555
H2 C2 1_555 1_555
C3 C4 1_555 1_555
C4 C6 1_555 1_555
C5 N2 1_555 1_555
H3 C5 1_555 1_555
H4 C5 1_555 1_555
C6 H5 1_555 1_555
C7 C4 1_555 1_555
C8 C3 1_555 1_555
H6 C8 1_555 1_555
C9 C8 1_555 1_555
C10 C6 1_555 1_555
H7 C10 1_555 1_555
F1 C3 1_555 1_555
F2 C9 1_555 1_555
O1 C7 1_555 1_555
N4 Co1 1_555 1_555
C11 N4 1_555 1_555
N5 C11 1_555 1_555
C12 N5 1_555 1_555
N6 C12 1_555 1_555
Co1A N6B 1_555 1_555
Co1A_2 N6 1_555 1_555
N1B Co1 1_555 1_555
N2B N3B 1_555 1_555
N3B C1B 1_555 1_555
C1B N1B 1_555 1_555
H1B C1B 1_555 1_555
C2B N1B 1_555 1_555
H2B C2B 1_555 1_555
C3B C4B 1_555 1_555
C4B C6B 1_555 1_555
C5B N2B 1_555 1_555
H3B C5B 1_555 1_555
H4B C5B 1_555 1_555
C6B H5B 1_555 1_555
C7B C4B 1_555 1_555
C8B C3B 1_555 1_555
H6B C8B 1_555 1_555
C9B C8B 1_555 1_555
C10B C6B 1_555 1_555
H7B C10B 1_555 1_555
F1B C3B 1_555 1_555
F2B C9B 1_555 1_555
O1B C7B 1_555 1_555
N4B Co1 1_555 1_555
C11B N4B 1_555 1_555
N5B C11B 1_555 1_555
C12B N5B 1_555 1_555
N6B C12B 1_555 1_555
N6A Co1 1_555 1_555
N6C Co1 1_555 1_555
N2 C2 1_555 1_555
C5 C7 1_555 1_555
C9 C10 1_555 1_555
N2B C2B 1_555 1_555
C5B C7B 1_555 1_555
C9B C10B 1_555 1_555

#END
