
#######################################################################
#
#                 Cambridge Crystallographic Data Centre
#                                CCDC 
#
#######################################################################
#
# If this CIF has been generated from an entry in the Cambridge 
# Structural Database, then it will include bibliographic, chemical, 
# crystal, experimental, refinement or atomic coordinate data resulting 
# from the CCDC's data processing and validation procedures.
#
#######################################################################

data_QUFHUV
_symmetry_cell_setting           monoclinic
_symmetry_space_group_name_H-M   'P 21/c'
_symmetry_Int_Tables_number      14
_space_group_name_Hall           '-P 2ybc'
loop_
_symmetry_equiv_pos_site_id
_symmetry_equiv_pos_as_xyz
1 x,y,z
2 -x,1/2+y,1/2-z
3 -x,-y,-z
4 x,1/2-y,1/2+z
_cell_length_a                   7.6549(16)
_cell_length_b                   15.696(3)
_cell_length_c                   9.526(2)
_cell_angle_alpha                90
_cell_angle_beta                 98.201(2)
_cell_angle_gamma                90
_cell_volume                     1132.86
loop_
_atom_site_label
_atom_site_type_symbol
_atom_site_fract_x
_atom_site_fract_y
_atom_site_fract_z
Cd1 Cd 0.5000 0.5000 0.5000
S1 S 0.03647(11) 0.86728(5) 0.61590(7)
Cl1 Cl 0.28828(9) 0.43203(5) 0.65233(7)
N1 N 0.3543(3) 0.63535(13) 0.5179(2)
N2 N -0.3067(3) 0.95617(13) 0.2127(2)
C1 C 0.1823(3) 0.64131(16) 0.4711(2)
H1 H 0.1268 0.5951 0.4224
C2 C 0.0815(3) 0.71211(16) 0.4907(3)
H2 H -0.0377 0.7138 0.4541
C3 C 0.1608(3) 0.78033(16) 0.5656(2)
C4 C 0.3396(4) 0.77593(18) 0.6141(3)
H3 H 0.3978 0.8211 0.6639
C5 C 0.4298(4) 0.70308(18) 0.5869(4)
H4 H 0.5504 0.7009 0.6186
C6 C -0.3636(3) 0.9545(2) 0.3384(3)
H5 H -0.4769 0.9744 0.3438
C7 C -0.2648(4) 0.92506(19) 0.4608(3)
H6 H -0.3112 0.9244 0.5458
C8 C -0.0944(3) 0.89625(16) 0.4549(3)
C9 C -0.0334(3) 0.89813(17) 0.3255(3)
H7 H 0.0801 0.8796 0.3175
C10 C -0.1426(3) 0.92770(16) 0.2086(3)
H8 H -0.1002 0.9280 0.1218
Cd1A Cd -0.5000 1.0000 0.0000
Cd1A_2 Cd -0.5000 0.0000 0.0000
S1A S -0.03647(11) 0.36728(5) -0.11590(7)
Cl1B Cl 0.71172(9) 0.56797(5) 0.34767(7)
N1A N -0.3543(3) 0.13535(13) -0.0179(2)
N1B N 0.6457(3) 0.36465(13) 0.4821(2)
N2A N 0.3067(3) 0.45617(13) 0.2873(2)
N2C N 0.6933(3) 0.54383(13) 0.7127(2)
C1A C -0.1823(3) 0.14131(16) 0.0289(2)
H1A H -0.1268 0.0951 0.0776
C2A C -0.0815(3) 0.21211(16) 0.0093(3)
H2A H 0.0377 0.2138 0.0459
C3A C -0.1608(3) 0.28033(16) -0.0656(2)
C4A C -0.3396(4) 0.27593(18) -0.1141(3)
H3A H -0.3978 0.3211 -0.1639
C5A C -0.4298(4) 0.20308(18) -0.0869(4)
H4A H -0.5504 0.2009 -0.1186
C6A C 0.3636(3) 0.4545(2) 0.1616(3)
H5A H 0.4769 0.4744 0.1562
C7A C 0.2648(4) 0.42506(19) 0.0392(3)
H6A H 0.3112 0.4244 -0.0458
C8A C 0.0944(3) 0.39625(16) 0.0451(3)
C9A C 0.0334(3) 0.39813(17) 0.1745(3)
H7A H -0.0801 0.3796 0.1825
C10A C 0.1426(3) 0.42770(16) 0.2914(3)
H8A H 0.1002 0.4280 0.3782
loop_
_geom_bond_atom_site_label_1
_geom_bond_atom_site_label_2
_geom_bond_site_symmetry_1
_geom_bond_site_symmetry_2
Cd1 Cl1 1_555 1_555
S1 C3 1_555 1_555
N1 Cd1 1_555 1_555
N2 C6 1_555 1_555
C1 N1 1_555 1_555
H1 C1 1_555 1_555
C2 C1 1_555 1_555
H2 C2 1_555 1_555
C3 C2 1_555 1_555
C4 C3 1_555 1_555
H3 C4 1_555 1_555
C5 N1 1_555 1_555
H4 C5 1_555 1_555
C6 H5 1_555 1_555
C7 C6 1_555 1_555
H6 C7 1_555 1_555
C8 S1 1_555 1_555
C9 C8 1_555 1_555
H7 C9 1_555 1_555
C10 N2 1_555 1_555
H8 C10 1_555 1_555
Cd1A N2 1_555 1_555
Cd1A_2 N1A 1_555 1_555
S1A C3A 1_555 1_555
Cl1B Cd1 1_555 1_555
N1A C1A 1_555 1_555
N1B Cd1 1_555 1_555
N2A Cd1 1_555 1_555
N2C Cd1 1_555 1_555
C1A H1A 1_555 1_555
C2A C1A 1_555 1_555
H2A C2A 1_555 1_555
C3A C2A 1_555 1_555
C4A C3A 1_555 1_555
H3A C4A 1_555 1_555
C5A N1A 1_555 1_555
H4A C5A 1_555 1_555
C6A N2A 1_555 1_555
H5A C6A 1_555 1_555
C7A C6A 1_555 1_555
H6A C7A 1_555 1_555
C8A S1A 1_555 1_555
C9A C8A 1_555 1_555
H7A C9A 1_555 1_555
C10A N2A 1_555 1_555
H8A C10A 1_555 1_555
C4 C5 1_555 1_555
C7 C8 1_555 1_555
C9 C10 1_555 1_555
C4A C5A 1_555 1_555
C7A C8A 1_555 1_555
C9A C10A 1_555 1_555

#END
