
#######################################################################
#
#                 Cambridge Crystallographic Data Centre
#                                CCDC 
#
#######################################################################
#
# If this CIF has been generated from an entry in the Cambridge 
# Structural Database, then it will include bibliographic, chemical, 
# crystal, experimental, refinement or atomic coordinate data resulting 
# from the CCDC's data processing and validation procedures.
#
#######################################################################

data_QUFHAB
_symmetry_cell_setting           triclinic
_symmetry_space_group_name_H-M   'P -1'
_symmetry_Int_Tables_number      2
_space_group_name_Hall           '-P 1'
loop_
_symmetry_equiv_pos_site_id
_symmetry_equiv_pos_as_xyz
1 x,y,z
2 -x,-y,-z
_cell_length_a                   12.3803(4)
_cell_length_b                   13.8445(5)
_cell_length_c                   14.6218(5)
_cell_angle_alpha                95.949(2)
_cell_angle_beta                 108.328(2)
_cell_angle_gamma                96.956(2)
_cell_volume                     2334.65
loop_
_atom_site_label
_atom_site_type_symbol
_atom_site_fract_x
_atom_site_fract_y
_atom_site_fract_z
Co1 Co 0.40630(4) 0.04648(3) 0.83061(3)
Co2 Co 0.37630(4) 0.08325(3) 0.59952(3)
F1 F -0.1342(2) 0.28579(15) 0.93061(18)
F2 F -0.1828(2) 0.60943(16) 0.91234(17)
F3 F 0.8433(2) -0.23089(14) 0.66101(15)
F4 F 1.2144(2) -0.30597(19) 0.7630(2)
F5 F -0.21144(18) 0.22944(14) 0.65845(16)
F6 F -0.3403(2) 0.52891(18) 0.68083(16)
F7 F 0.6825(2) 0.50894(15) 0.36003(17)
F8 F 0.6784(3) 0.51610(19) 0.04420(18)
O1 O 0.0999(2) 0.30731(15) 0.78490(17)
O2 O 0.8795(3) -0.1019(2) 0.9324(2)
O3 O 0.0192(2) 0.34234(17) 0.5307(2)
O4 O 0.4189(2) 0.27025(16) 0.27039(17)
N1 N 0.2381(2) 0.06440(18) 0.82838(18)
N2 N 0.0462(2) 0.06139(19) 0.7719(2)
N3 N 0.0973(2) 0.13386(18) 0.84934(19)
N4 N 0.5790(2) 0.03432(18) 0.84264(18)
N5 N 0.7596(2) 0.0753(2) 0.8415(2)
N6 N 0.7186(2) -0.02154(19) 0.80687(19)
N7 N 0.2010(2) 0.10824(17) 0.55469(18)
N8 N 0.0175(2) 0.10076(19) 0.45664(19)
N9 N 0.0365(2) 0.15320(18) 0.54627(19)
N10 N 0.4176(2) 0.21053(18) 0.53858(18)
N11 N 0.4248(3) 0.36748(19) 0.5104(2)
N12 N 0.4884(2) 0.31918(18) 0.46653(18)
N13 N 0.3414(2) -0.02841(19) 0.68173(18)
N14 N 0.3259(2) -0.1150(2) 0.65151(19)
N15 N 0.3097(3) -0.1972(2) 0.6211(2)
N16 N 0.4109(2) 0.16678(19) 0.74399(18)
N17 N 0.4771(3) 0.2423(2) 0.7775(2)
N18 N 0.5409(3) 0.3151(2) 0.8104(3)
N19 N 0.4721(3) 0.13848(19) 0.9712(2)
N20 N 0.5348(2) 0.11196(18) 1.0397(2)
N21 N 0.5985(2) 0.08902(19) 1.1090(2)
N22 N 0.3293(3) -0.0160(2) 0.4636(2)
N23 N 0.4486(3) -0.0587(2) 0.3753(2)
N24 N 0.3907(2) -0.03674(18) 0.42057(19)
C1 C 0.1345(3) 0.0224(2) 0.7633(2)
H1 H 0.1264 -0.0305 0.7157
C2 C 0.2102(3) 0.1344(2) 0.8810(2)
H2 H 0.2626 0.1780 0.9331
C3 C 0.0314(3) 0.2031(2) 0.8801(2)
H3 H 0.0593 0.2184 0.9507
H4 H -0.0491 0.1732 0.8597
C4 C 0.0419(3) 0.2973(2) 0.8368(2)
C5 C -0.0193(3) 0.3782(2) 0.8599(2)
C6 C -0.1040(3) 0.3700(2) 0.9023(2)
C7 C -0.1625(3) 0.4450(3) 0.9192(2)
H5 H -0.2212 0.4361 0.9461
C8 C -0.1285(4) 0.5334(3) 0.8938(3)
C9 C -0.0458(4) 0.5481(3) 0.8533(3)
H6 H -0.0258 0.6098 0.8380
C10 C 0.0099(3) 0.4710(2) 0.8342(2)
H7 H 0.0661 0.4804 0.8047
C11 C 0.6715(3) 0.1048(2) 0.8608(2)
H8 H 0.6727 0.1697 0.8854
C12 C 0.6124(3) -0.0441(2) 0.8085(2)
H9 H 0.5678 -0.1064 0.7884
C13 C 0.7865(3) -0.0834(2) 0.7699(2)
H10 H 0.8241 -0.0469 0.7321
H11 H 0.7355 -0.1401 0.7266
C14 C 0.8762(3) -0.1183(2) 0.8491(3)
C15 C 0.9632(3) -0.1700(2) 0.8228(3)
C16 C 0.9470(3) -0.2213(3) 0.7325(3)
C17 C 1.0299(4) -0.2669(3) 0.7096(3)
H12 H 1.0169 -0.3004 0.6477
C18 C 1.1332(4) -0.2601(3) 0.7838(4)
C19 C 1.1556(4) -0.2107(3) 0.8750(3)
H13 H 1.2264 -0.2076 0.9232
C20 C 1.0703(3) -0.1657(3) 0.8933(3)
H14 H 1.0845 -0.1311 0.9551
C21 C 0.1179(3) 0.0762(2) 0.4665(2)
H15 H 0.1323 0.0388 0.4163
C22 C 0.1452(3) 0.1569(2) 0.6023(2)
H16 H 0.1772 0.1892 0.6661
C23 C -0.0556(3) 0.1940(2) 0.5710(2)
H17 H -0.0493 0.1859 0.6375
H18 H -0.1295 0.1578 0.5285
C24 C -0.0510(3) 0.3017(2) 0.5610(2)
C25 C -0.1334(3) 0.3571(2) 0.5911(2)
C26 C -0.2088(3) 0.3216(3) 0.6368(2)
C27 C -0.2794(3) 0.3768(3) 0.6667(2)
H19 H -0.3284 0.3511 0.6981
C28 C -0.2741(4) 0.4726(3) 0.6478(3)
C29 C -0.2044(4) 0.5119(3) 0.6012(3)
H20 H -0.2038 0.5766 0.5891
C30 C -0.1354(3) 0.4547(3) 0.5725(2)
H21 H -0.0882 0.4810 0.5397
C31 C 0.3838(3) 0.2983(2) 0.5519(3)
H22 H 0.3351 0.3093 0.5877
C32 C 0.4843(3) 0.2268(2) 0.4847(2)
H23 H 0.5227 0.1805 0.4628
C33 C 0.5512(3) 0.3710(2) 0.4121(2)
H24 H 0.6306 0.3597 0.4337
H25 H 0.5517 0.4411 0.4261
C34 C 0.4988(3) 0.3380(2) 0.3026(2)
C35 C 0.5488(3) 0.3881(2) 0.2372(3)
C36 C 0.6343(3) 0.4682(3) 0.2649(3)
C37 C 0.6775(4) 0.5145(3) 0.2013(3)
H26 H 0.7331 0.5708 0.2223
C38 C 0.6337(4) 0.4726(4) 0.1063(3)
C39 C 0.5527(4) 0.3920(3) 0.0739(3)
H27 H 0.5263 0.3650 0.0083
C40 C 0.5089(4) 0.3496(3) 0.1388(3)
H28 H 0.4517 0.2944 0.1163
Co1A Co 0.59370(4) -0.04648(3) 1.16939(3)
Co2A Co 0.62370(4) -0.08325(3) 0.40048(3)
N21A N 0.4015(2) -0.08902(19) 0.8910(2)
N23A N 0.5514(3) 0.0587(2) 0.6247(2)
loop_
_geom_bond_atom_site_label_1
_geom_bond_atom_site_label_2
_geom_bond_site_symmetry_1
_geom_bond_site_symmetry_2
Co1 N1 1_555 1_555
Co2 N7 1_555 1_555
F1 C6 1_555 1_555
F2 C8 1_555 1_555
F3 C16 1_555 1_555
F4 C18 1_555 1_555
F5 C26 1_555 1_555
F6 C28 1_555 1_555
F7 C36 1_555 1_555
F8 C38 1_555 1_555
O1 C4 1_555 1_555
O2 C14 1_555 1_555
O3 C24 1_555 1_555
O4 C34 1_555 1_555
N1 C1 1_555 1_555
N2 N3 1_555 1_555
N3 C2 1_555 1_555
N4 Co1 1_555 1_555
N5 N6 1_555 1_555
N6 C12 1_555 1_555
N7 C21 1_555 1_555
N8 N9 1_555 1_555
N9 C22 1_555 1_555
N10 Co2 1_555 1_555
N11 N12 1_555 1_555
N12 C32 1_555 1_555
N13 Co1 1_555 1_555
N14 N13 1_555 1_555
N15 N14 1_555 1_555
N16 Co1 1_555 1_555
N17 N16 1_555 1_555
N18 N17 1_555 1_555
N19 Co1 1_555 1_555
N20 N19 1_555 1_555
N21 N20 1_555 1_555
N22 Co2 1_555 1_555
N23 N24 1_555 1_555
N24 N22 1_555 1_555
C1 N2 1_555 1_555
H1 C1 1_555 1_555
C2 N1 1_555 1_555
H2 C2 1_555 1_555
C3 N3 1_555 1_555
H3 C3 1_555 1_555
H4 C3 1_555 1_555
C4 C3 1_555 1_555
C5 C4 1_555 1_555
C6 C5 1_555 1_555
C7 C6 1_555 1_555
H5 C7 1_555 1_555
C8 C7 1_555 1_555
C9 C8 1_555 1_555
H6 C9 1_555 1_555
C10 C5 1_555 1_555
H7 C10 1_555 1_555
C11 N4 1_555 1_555
H8 C11 1_555 1_555
C12 N4 1_555 1_555
H9 C12 1_555 1_555
C13 N6 1_555 1_555
H10 C13 1_555 1_555
H11 C13 1_555 1_555
C14 C13 1_555 1_555
C15 C14 1_555 1_555
C16 C15 1_555 1_555
C17 C16 1_555 1_555
H12 C17 1_555 1_555
C18 C17 1_555 1_555
C19 C18 1_555 1_555
H13 C19 1_555 1_555
C20 C15 1_555 1_555
H14 C20 1_555 1_555
C21 N8 1_555 1_555
H15 C21 1_555 1_555
C22 N7 1_555 1_555
H16 C22 1_555 1_555
C23 N9 1_555 1_555
H17 C23 1_555 1_555
H18 C23 1_555 1_555
C24 C23 1_555 1_555
C25 C24 1_555 1_555
C26 C25 1_555 1_555
C27 C26 1_555 1_555
H19 C27 1_555 1_555
C28 C27 1_555 1_555
C29 C28 1_555 1_555
H20 C29 1_555 1_555
C30 C25 1_555 1_555
H21 C30 1_555 1_555
C31 N10 1_555 1_555
H22 C31 1_555 1_555
C32 N10 1_555 1_555
H23 C32 1_555 1_555
C33 N12 1_555 1_555
H24 C33 1_555 1_555
H25 C33 1_555 1_555
C34 C33 1_555 1_555
C35 C34 1_555 1_555
C36 C35 1_555 1_555
C37 C36 1_555 1_555
H26 C37 1_555 1_555
C38 C37 1_555 1_555
C39 C38 1_555 1_555
H27 C39 1_555 1_555
C40 C35 1_555 1_555
H28 C40 1_555 1_555
Co1A N21 1_555 1_555
Co2A N23 1_555 1_555
N21A Co1 1_555 1_555
N23A Co2 1_555 1_555
Co2 N13 1_555 1_555
Co2 N16 1_555 1_555
N5 C11 1_555 1_555
N11 C31 1_555 1_555
C9 C10 1_555 1_555
C19 C20 1_555 1_555
C29 C30 1_555 1_555
C39 C40 1_555 1_555

#END
