
#######################################################################
#
#                 Cambridge Crystallographic Data Centre
#                                CCDC 
#
#######################################################################
#
# If this CIF has been generated from an entry in the Cambridge 
# Structural Database, then it will include bibliographic, chemical, 
# crystal, experimental, refinement or atomic coordinate data resulting 
# from the CCDC's data processing and validation procedures.
#
#######################################################################

data_QUFHOP
_symmetry_cell_setting           monoclinic
_symmetry_space_group_name_H-M   'C 2/c'
_symmetry_Int_Tables_number      15
_space_group_name_Hall           '-C 2yn'
loop_
_symmetry_equiv_pos_site_id
_symmetry_equiv_pos_as_xyz
1 x,y,z
2 -x,y,1/2-z
3 1/2+x,1/2+y,z
4 1/2-x,1/2+y,1/2-z
5 -x,-y,-z
6 x,-y,1/2+z
7 1/2-x,1/2-y,-z
8 1/2+x,1/2-y,1/2+z
_cell_length_a                   19.390(2)
_cell_length_b                   19.843(2)
_cell_length_c                   10.3043(12)
_cell_angle_alpha                90
_cell_angle_beta                 111.1860(10)
_cell_angle_gamma                90
_cell_volume                     3696.68
loop_
_atom_site_label
_atom_site_type_symbol
_atom_site_fract_x
_atom_site_fract_y
_atom_site_fract_z
Co1 Co 0.0000 0.24832(2) 0.7500
S1 S 0.0000 0.02906(6) 0.2500
S2 S 0.0000 0.46645(5) 0.2500
O4 O 0.11605(13) 0.24966(11) 0.8362(2)
H1 H 0.1297 0.2754 0.9029
H2 H 0.1483 0.2345 0.8116
N1 N -0.00041(14) 0.17272(12) 0.5970(2)
N2 N 0.00507(14) 0.32395(12) 0.6014(3)
C1 C -0.04721(19) 0.17995(17) 0.4639(3)
H7 H -0.0810 0.2153 0.4435
C2 C -0.0480(2) 0.13864(18) 0.3575(3)
H8 H -0.0815 0.1458 0.2677
C3 C 0.00192(19) 0.08603(16) 0.3855(3)
C4 C 0.04979(19) 0.07684(15) 0.5191(4)
H9 H 0.0836 0.0416 0.5411
C5 C 0.04703(18) 0.12142(15) 0.6226(3)
H10 H 0.0798 0.1149 0.7133
C6 C -0.03832(17) 0.37790(15) 0.5690(3)
H11 H -0.0682 0.3864 0.6203
C7 C -0.04160(17) 0.42232(14) 0.4631(3)
H12 H -0.0727 0.4596 0.4445
C8 C 0.00220(18) 0.40998(16) 0.3858(3)
C9 C 0.04912(19) 0.35507(17) 0.4193(3)
H13 H 0.0800 0.3461 0.3702
C10 C 0.04937(18) 0.31379(16) 0.5273(3)
H14 H 0.0815 0.2772 0.5503
Co1_2 Co 0.0000 0.24832(2) -0.2500
O4A O -0.11605(13) 0.24966(11) 0.6638(2)
H1A H -0.1297 0.2754 0.5971
H2A H -0.1483 0.2345 0.6884
N1A N 0.00041(14) 0.17272(12) -0.0970(2)
N1A_2 N 0.00041(14) 0.17272(12) 0.9030(2)
N2A N -0.00507(14) 0.32395(12) -0.1014(3)
N2A_2 N -0.00507(14) 0.32395(12) 0.8986(3)
C1A C 0.04721(19) 0.17995(17) 0.0361(3)
H7A H 0.0810 0.2153 0.0565
C2A C 0.0480(2) 0.13864(18) 0.1425(3)
H8A H 0.0815 0.1458 0.2323
C3A C -0.00192(19) 0.08603(16) 0.1145(3)
C4A C -0.04979(19) 0.07684(15) -0.0191(4)
H9A H -0.0836 0.0416 -0.0411
C5A C -0.04703(18) 0.12142(15) -0.1226(3)
H10A H -0.0798 0.1149 -0.2133
C6A C 0.03832(17) 0.37790(15) -0.0690(3)
H11A H 0.0682 0.3864 -0.1203
C7A C 0.04160(17) 0.42232(14) 0.0369(3)
H12A H 0.0727 0.4596 0.0555
C8A C -0.00220(18) 0.40998(16) 0.1142(3)
C9A C -0.04912(19) 0.35507(17) 0.0807(3)
H13A H -0.0800 0.3461 0.1298
C10A C -0.04937(18) 0.31379(16) -0.0273(3)
H14A H -0.0815 0.2772 -0.0503
S3 S 0.22457(4) 0.33239(4) 0.20300(9)
O1 O 0.29509(13) 0.30118(13) 0.2879(3)
O2 O 0.16498(14) 0.31211(14) 0.2475(3)
O3 O 0.20876(16) 0.32080(14) 0.0550(3)
N3 N 0.2489(3) 0.6302(2) 0.2636(6)
H5 H 0.2268 0.6513 0.3102
H6 H 0.2732 0.6524 0.2225
C11 C 0.23492(18) 0.42048(19) 0.2271(3)
C12 C 0.2748(2) 0.4575(2) 0.1637(4)
H15 H 0.2980 0.4354 0.1110
C13 C 0.2805(3) 0.5265(2) 0.1779(5)
H16 H 0.3078 0.5505 0.1357
C14 C 0.2455(3) 0.5603(2) 0.2549(5)
C15 C 0.2070(2) 0.5235(2) 0.3198(5)
H17 H 0.1839 0.5457 0.3725
C16 C 0.2023(2) 0.4544(2) 0.3077(4)
H18 H 0.1770 0.4303 0.3539
O5 O 0.3274(2) 0.30240(17) 0.5812(3)
H3 H 0.3357 0.2670 0.6277
H4 H 0.3072 0.2945 0.4971
loop_
_geom_bond_atom_site_label_1
_geom_bond_atom_site_label_2
_geom_bond_site_symmetry_1
_geom_bond_site_symmetry_2
Co1 O4 1_555 1_555
S1 C3 1_555 1_555
S2 C8 1_555 1_555
S3 O1 1_555 1_555
O2 S3 1_555 1_555
O3 S3 1_555 1_555
O4 H1 1_555 1_555
H2 O4 1_555 1_555
O5 H3 1_555 1_555
H4 O5 1_555 1_555
N1 Co1 1_555 1_555
N2 Co1 1_555 1_555
N3 H5 1_555 1_555
H6 N3 1_555 1_555
C1 N1 1_555 1_555
H7 C1 1_555 1_555
C2 C1 1_555 1_555
H8 C2 1_555 1_555
C3 C2 1_555 1_555
C4 C3 1_555 1_555
H9 C4 1_555 1_555
C5 N1 1_555 1_555
H10 C5 1_555 1_555
C6 N2 1_555 1_555
H11 C6 1_555 1_555
C7 C6 1_555 1_555
H12 C7 1_555 1_555
C8 C7 1_555 1_555
C9 C8 1_555 1_555
H13 C9 1_555 1_555
C10 N2 1_555 1_555
H14 C10 1_555 1_555
C11 S3 1_555 1_555
C12 C11 1_555 1_555
H15 C12 1_555 1_555
C13 C12 1_555 1_555
H16 C13 1_555 1_555
C14 N3 1_555 1_555
C15 C14 1_555 1_555
H17 C15 1_555 1_555
C16 C11 1_555 1_555
H18 C16 1_555 1_555
Co1_2 N1A 1_555 1_555
O4A Co1 1_555 1_555
H1A O4A 1_555 1_555
H2A O4A 1_555 1_555
N1A C1A 1_555 1_555
N1A_2 Co1 1_555 1_555
N2A Co1_2 1_555 1_555
N2A_2 Co1 1_555 1_555
C1A H7A 1_555 1_555
C2A C1A 1_555 1_555
H8A C2A 1_555 1_555
C3A S1 1_555 1_555
C4A C3A 1_555 1_555
H9A C4A 1_555 1_555
C5A N1A 1_555 1_555
H10A C5A 1_555 1_555
C6A N2A 1_555 1_555
H11A C6A 1_555 1_555
C7A C6A 1_555 1_555
H12A C7A 1_555 1_555
C8A S2 1_555 1_555
C9A C8A 1_555 1_555
H13A C9A 1_555 1_555
C10A N2A 1_555 1_555
H14A C10A 1_555 1_555
C4 C5 1_555 1_555
C9 C10 1_555 1_555
C13 C14 1_555 1_555
C15 C16 1_555 1_555
C2A C3A 1_555 1_555
C4A C5A 1_555 1_555
C7A C8A 1_555 1_555
C9A C10A 1_555 1_555

#END
