
#######################################################################
#
#                 Cambridge Crystallographic Data Centre
#                                CCDC 
#
#######################################################################
#
# If this CIF has been generated from an entry in the Cambridge 
# Structural Database, then it will include bibliographic, chemical, 
# crystal, experimental, refinement or atomic coordinate data resulting 
# from the CCDC's data processing and validation procedures.
#
#######################################################################

data_QUFKUY
_symmetry_cell_setting           monoclinic
_symmetry_space_group_name_H-M   'P 21/c'
_symmetry_Int_Tables_number      14
_space_group_name_Hall           '-P 2ybc'
loop_
_symmetry_equiv_pos_site_id
_symmetry_equiv_pos_as_xyz
1 x,y,z
2 -x,1/2+y,1/2-z
3 -x,-y,-z
4 x,1/2-y,1/2+z
_cell_length_a                   13.7832(8)
_cell_length_b                   14.8487(9)
_cell_length_c                   8.6128(5)
_cell_angle_alpha                90
_cell_angle_beta                 101.8160(10)
_cell_angle_gamma                90
_cell_volume                     1725.37
loop_
_atom_site_label
_atom_site_type_symbol
_atom_site_fract_x
_atom_site_fract_y
_atom_site_fract_z
Cd1 Cd 0.375121(13) 0.182470(11) 0.795826(19)
Cd2 Cd 1.0000 0.0000 1.0000
N1 N 0.37964(16) 0.04767(13) 0.6550(2)
N2 N 0.54186(19) 0.16611(17) 0.8984(3)
N3 N 0.7179(2) 0.1726(2) 1.0014(6)
N4 N 0.8430(2) 0.0563(2) 1.0366(4)
N5 N 0.95538(16) 0.05447(16) 0.7509(3)
O1 O 0.37997(14) 0.21324(11) 0.52855(19)
O2 O 0.37383(14) 0.15912(12) 0.28988(19)
O3 O 0.20399(16) 0.19372(15) 0.7225(3)
H1 H 0.188(3) 0.195(3) 0.6221(13)
H2 H 0.186(3) 0.2398(18) 0.767(4)
O4 O 0.33031(19) 0.08729(14) 0.9913(2)
H3 H 0.341(3) 0.115(2) 1.079(2)
H4 H 0.2683(9) 0.091(3) 0.982(4)
O5 O 0.92474(18) -0.11557(15) 0.8501(3)
O6 O 0.85219(18) -0.15655(16) 0.6085(3)
C1 C 0.3854(2) -0.03416(17) 0.7201(3)
H5 H 0.3910 -0.0388 0.8293
C2 C 0.3834(3) -0.11180(17) 0.6330(3)
H6 H 0.3877 -0.1678 0.6823
C3 C 0.3749(3) -0.10547(18) 0.4716(4)
H7 H 0.3722 -0.1571 0.4097
C4 C 0.3706(2) -0.02080(17) 0.4026(3)
H8 H 0.3659 -0.0146 0.2939
C5 C 0.37339(18) 0.05377(15) 0.4979(3)
C6 C 0.37519(18) 0.14842(15) 0.4348(3)
C7 C 0.6246(2) 0.16362(17) 0.9434(3)
C8 C 0.7810(2) 0.1079(2) 1.0128(4)
C9 C 0.9678(2) 0.1388(2) 0.7063(4)
H9 H 1.0015 0.1791 0.7809
C10 C 0.9325(3) 0.1686(3) 0.5532(5)
H10 H 0.9411 0.2281 0.5249
C11 C 0.8845(3) 0.1080(3) 0.4446(4)
H11 H 0.8605 0.1260 0.3403
C12 C 0.8714(2) 0.0203(2) 0.4888(4)
H12 H 0.8389 -0.0211 0.4151
C13 C 0.90734(19) -0.00506(19) 0.6449(3)
C14 C 0.8942(2) -0.1004(2) 0.7050(3)
Cd1B Cd 1.624879(13) -0.182470(11) 1.204174(19)
Cd1C Cd 0.375121(13) 0.317530(11) 0.295826(19)
Cd1C_2 Cd 0.375121(13) 0.317530(11) 1.295826(19)
N1C N 0.37964(16) 0.45233(13) 1.1550(2)
N1B N 1.62036(16) -0.04767(13) 1.3450(2)
N2B N 1.45814(19) -0.16611(17) 1.1016(3)
N3B N 1.2821(2) -0.1726(2) 0.9986(6)
N4B N 1.1570(2) -0.0563(2) 0.9634(4)
N5B N 1.04462(16) -0.05447(16) 1.2491(3)
O1C O 0.37997(14) 0.28676(11) 1.02855(19)
O1B O 1.62003(14) -0.21324(11) 1.47145(19)
O1A O 1.62003(14) -0.28676(11) 0.97145(19)
O2C O 0.37383(14) 0.34088(12) 0.78988(19)
O2A O 1.62617(14) -0.34088(12) 1.21012(19)
O3B O 1.79601(16) -0.19372(15) 1.2775(3)
H1B H 1.812(3) -0.195(3) 1.3779(13)
H2B H 1.814(3) -0.2398(18) 1.233(4)
O4B O 1.66969(19) -0.08729(14) 1.0087(2)
H3B H 1.659(3) -0.115(2) 0.921(2)
H4B H 1.7317(9) -0.091(3) 1.018(4)
O5B O 1.07526(18) 0.11557(15) 1.1499(3)
O6B O 1.14781(18) 0.15655(16) 1.3915(3)
C1C C 0.3854(2) 0.53416(17) 1.2201(3)
H5C H 0.3910 0.5388 1.3293
C2C C 0.3834(3) 0.61180(17) 1.1330(3)
H6C H 0.3877 0.6678 1.1823
C3C C 0.3749(3) 0.60547(18) 0.9716(4)
H7C H 0.3722 0.6571 0.9097
C4C C 0.3706(2) 0.52080(17) 0.9026(3)
H8C H 0.3659 0.5146 0.7939
C5C C 0.37339(18) 0.44623(15) 0.9979(3)
C6C C 0.37519(18) 0.35158(15) 0.9348(3)
C7B C 1.3754(2) -0.16362(17) 1.0566(3)
C8B C 1.2190(2) -0.1079(2) 0.9872(4)
C9B C 1.0322(2) -0.1388(2) 1.2937(4)
H9B H 0.9985 -0.1791 1.2191
C10B C 1.0675(3) -0.1686(3) 1.4468(5)
H10B H 1.0589 -0.2281 1.4751
C11B C 1.1155(3) -0.1080(3) 1.5554(4)
H11B H 1.1395 -0.1260 1.6597
C12B C 1.1286(2) -0.0203(2) 1.5112(4)
H12B H 1.1611 0.0211 1.5849
C13B C 1.09266(19) 0.00506(19) 1.3551(3)
C14B C 1.1058(2) 0.1004(2) 1.2950(3)
loop_
_geom_bond_atom_site_label_1
_geom_bond_atom_site_label_2
_geom_bond_site_symmetry_1
_geom_bond_site_symmetry_2
Cd1 N1 1_555 1_555
Cd2 N4 1_555 1_555
N1 C1 1_555 1_555
N2 Cd1 1_555 1_555
N3 C7 1_555 1_555
N4 C8 1_555 1_555
N5 Cd2 1_555 1_555
O1 Cd1 1_555 1_555
O2 C6 1_555 1_555
O3 Cd1 1_555 1_555
H1 O3 1_555 1_555
H2 O3 1_555 1_555
O4 Cd1 1_555 1_555
H3 O4 1_555 1_555
H4 O4 1_555 1_555
O5 Cd2 1_555 1_555
O6 C14 1_555 1_555
C1 H5 1_555 1_555
C2 C1 1_555 1_555
H6 C2 1_555 1_555
C3 C2 1_555 1_555
H7 C3 1_555 1_555
C4 C3 1_555 1_555
H8 C4 1_555 1_555
C5 N1 1_555 1_555
C6 O1 1_555 1_555
C7 N2 1_555 1_555
C8 N3 1_555 1_555
C9 N5 1_555 1_555
H9 C9 1_555 1_555
C10 C9 1_555 1_555
H10 C10 1_555 1_555
C11 C10 1_555 1_555
H11 C11 1_555 1_555
C12 C11 1_555 1_555
H12 C12 1_555 1_555
C13 N5 1_555 1_555
C14 O5 1_555 1_555
Cd1B N1B 1_555 1_555
Cd1C O1 1_555 1_555
Cd1C_2 N1C 1_555 1_555
N1C C1C 1_555 1_555
N2B Cd1B 1_555 1_555
N3B C7B 1_555 1_555
N4B Cd2 1_555 1_555
N5B Cd2 1_555 1_555
O1C Cd1 1_555 1_555
O1B Cd1B 1_555 1_555
O1A Cd1B 1_555 1_555
O2C Cd1 1_555 1_555
O2A Cd1B 1_555 1_555
O3B Cd1B 1_555 1_555
H1B O3B 1_555 1_555
H2B O3B 1_555 1_555
O4B Cd1B 1_555 1_555
H3B O4B 1_555 1_555
H4B O4B 1_555 1_555
O5B Cd2 1_555 1_555
O6B C14B 1_555 1_555
C1C H5C 1_555 1_555
C2C C1C 1_555 1_555
H6C C2C 1_555 1_555
C3C C2C 1_555 1_555
H7C C3C 1_555 1_555
C4C C3C 1_555 1_555
H8C C4C 1_555 1_555
C5C N1C 1_555 1_555
C6C O1C 1_555 1_555
C7B N2B 1_555 1_555
C8B N3B 1_555 1_555
C9B N5B 1_555 1_555
H9B C9B 1_555 1_555
C10B C9B 1_555 1_555
H10B C10B 1_555 1_555
C11B C10B 1_555 1_555
H11B C11B 1_555 1_555
C12B C11B 1_555 1_555
H12B C12B 1_555 1_555
C13B N5B 1_555 1_555
C14B O5B 1_555 1_555
O2 Cd1C 1_555 1_555
C4 C5 1_555 1_555
C5 C6 1_555 1_555
C12 C13 1_555 1_555
C13 C14 1_555 1_555
Cd1C_2 O1C 1_555 1_555
N4B C8B 1_555 1_555
O2C C6C 1_555 1_555
C4C C5C 1_555 1_555
C5C C6C 1_555 1_555
C12B C13B 1_555 1_555
C13B C14B 1_555 1_555

#END
