
#######################################################################
#
#                 Cambridge Crystallographic Data Centre
#                                CCDC 
#
#######################################################################
#
# If this CIF has been generated from an entry in the Cambridge 
# Structural Database, then it will include bibliographic, chemical, 
# crystal, experimental, refinement or atomic coordinate data resulting 
# from the CCDC's data processing and validation procedures.
#
#######################################################################

data_QUFNEL
_symmetry_cell_setting           orthorhombic
_symmetry_space_group_name_H-M   'P b c n'
_symmetry_Int_Tables_number      60
_space_group_name_Hall           '-P 2n 2ab'
loop_
_symmetry_equiv_pos_site_id
_symmetry_equiv_pos_as_xyz
1 x,y,z
2 1/2-x,1/2-y,1/2+z
3 1/2+x,1/2-y,-z
4 -x,y,1/2-z
5 -x,-y,-z
6 1/2+x,1/2+y,1/2-z
7 1/2-x,1/2+y,z
8 x,-y,1/2+z
_cell_length_a                   19.3539(9)
_cell_length_b                   10.4337(5)
_cell_length_c                   25.8343(10)
_cell_angle_alpha                90
_cell_angle_beta                 90
_cell_angle_gamma                90
_cell_volume                     5216.79
loop_
_atom_site_label
_atom_site_type_symbol
_atom_site_fract_x
_atom_site_fract_y
_atom_site_fract_z
C1 C -0.1007(3) 0.8819(6) 0.1201(2)
C2 C -0.1540(3) 0.7840(6) 0.1314(2)
C3 C -0.2150(3) 0.7778(8) 0.1037(3)
H1 H -0.2232 0.8361 0.0772
C4 C -0.2641(4) 0.6857(9) 0.1152(4)
H2 H -0.3054 0.6828 0.0968
C5 C -0.2517(4) 0.6003(9) 0.1531(4)
H3 H -0.2854 0.5403 0.1615
C6 C -0.1901(5) 0.6000(8) 0.1796(4)
H4 H -0.1806 0.5373 0.2042
C7 C -0.1429(4) 0.6947(7) 0.1688(3)
H5 H -0.1021 0.6978 0.1877
C8 C 0.0550(3) 0.7921(6) 0.0402(2)
C9 C 0.0775(3) 0.6635(6) 0.0224(2)
C10 C 0.0818(5) 0.5627(7) 0.0550(3)
H6 H 0.0714 0.5746 0.0898
C11 C 0.1012(6) 0.4428(8) 0.0383(4)
H7 H 0.1037 0.3752 0.0617
C12 C 0.1162(4) 0.4236(8) -0.0108(4)
H8 H 0.1279 0.3419 -0.0222
C13 C 0.1146(5) 0.5220(10) -0.0445(3)
H9 H 0.1277 0.5088 -0.0788
C14 C 0.0939(4) 0.6418(8) -0.0288(3)
H10 H 0.0908 0.7083 -0.0527
C15 C 0.1023(3) 1.1064(6) 0.2122(2)
C16 C 0.1588(3) 1.1960(6) 0.1979(2)
C17 C 0.1814(4) 1.2017(8) 0.1477(3)
H11 H 0.1597 1.1519 0.1226
C18 C 0.2352(5) 1.2789(10) 0.1336(4)
H12 H 0.2500 1.2809 0.0994
C19 C 0.2673(4) 1.3536(8) 0.1701(4)
H13 H 0.3038 1.4068 0.1608
C20 C 0.2453(4) 1.3490(8) 0.2194(4)
H14 H 0.2669 1.3994 0.2443
C21 C 0.1914(4) 1.2711(7) 0.2335(3)
H15 H 0.1768 1.2695 0.2678
C22 C -0.0296(5) 1.3291(8) 0.1632(3)
H16 H -0.0648 1.3910 0.1710
H17 H -0.0003 1.3616 0.1363
H18 H -0.0026 1.3129 0.1937
C23 C 0.2013(5) 1.0165(10) 0.0274(3)
H19 H 0.2376 1.0626 0.0103
H20 H 0.1928 0.9374 0.0096
H21 H 0.2147 0.9987 0.0625
C24 C -0.0903(7) 0.6101(10) 0.3025(4)
H22 H -0.0792 0.5480 0.3287
H23 H -0.0793 0.5757 0.2690
H24 H -0.1387 0.6298 0.3040
O1 O -0.0564(2) 0.9108(4) 0.15332(16)
O2 O -0.0990(2) 0.9325(4) 0.07487(15)
O3 O 0.0593(2) 0.8189(4) 0.08810(16)
O4 O 0.0328(2) 0.8739(4) 0.00850(16)
O5 O 0.0749(2) 1.0372(4) 0.17892(16)
O6 O 0.0846(3) 1.0968(5) 0.25982(16)
O7 O 0.1411(2) 1.0906(5) 0.02741(16)
H25 H 0.1247 1.0921 -0.0019
O8 O -0.0600(3) 1.2169(5) 0.14696(18)
H26 H -0.0724 1.1752 0.1722
O9 O -0.0541(4) 0.7155(7) 0.3105(2)
H27 H -0.0548 0.7335 0.3413
Pb1 Pb 0.013699(11) 1.03673(2) 0.083638(9)
Pb2 Pb 0.0000 0.92204(3) 0.2500
C1C C 0.1007(3) 0.8819(6) 0.3799(2)
C2C C 0.1540(3) 0.7840(6) 0.3686(2)
C3C C 0.2150(3) 0.7778(8) 0.3963(3)
H1C H 0.2232 0.8361 0.4228
C4C C 0.2641(4) 0.6857(9) 0.3848(4)
H2C H 0.3054 0.6828 0.4032
C5C C 0.2517(4) 0.6003(9) 0.3469(4)
H3C H 0.2854 0.5403 0.3385
C6C C 0.1901(5) 0.6000(8) 0.3204(4)
H4C H 0.1806 0.5373 0.2958
C7C C 0.1429(4) 0.6947(7) 0.3312(3)
H5C H 0.1021 0.6978 0.3123
C8D C -0.0550(3) 1.2079(6) -0.0402(2)
C9D C -0.0775(3) 1.3365(6) -0.0224(2)
C10D C -0.0818(5) 1.4373(7) -0.0550(3)
H6D H -0.0714 1.4254 -0.0898
C11D C -0.1012(6) 1.5572(8) -0.0383(4)
H7D H -0.1037 1.6248 -0.0617
C12D C -0.1162(4) 1.5764(8) 0.0108(4)
H8D H -0.1279 1.6581 0.0222
C13D C -0.1146(5) 1.4780(10) 0.0445(3)
H9D H -0.1277 1.4912 0.0788
C14D C -0.0939(4) 1.3582(8) 0.0288(3)
H10D H -0.0908 1.2917 0.0527
C15C C -0.1023(3) 1.1064(6) 0.2878(2)
C16C C -0.1588(3) 1.1960(6) 0.3021(2)
C17C C -0.1814(4) 1.2017(8) 0.3523(3)
H11C H -0.1597 1.1519 0.3774
C18C C -0.2352(5) 1.2789(10) 0.3664(4)
H12C H -0.2500 1.2809 0.4006
C19C C -0.2673(4) 1.3536(8) 0.3299(4)
H13C H -0.3038 1.4068 0.3392
C20C C -0.2453(4) 1.3490(8) 0.2806(4)
H14C H -0.2669 1.3994 0.2557
C21C C -0.1914(4) 1.2711(7) 0.2665(3)
H15C H -0.1768 1.2695 0.2322
C22C C 0.0296(5) 1.3291(8) 0.3368(3)
H16C H 0.0648 1.3910 0.3290
H17C H 0.0003 1.3616 0.3637
H18C H 0.0026 1.3129 0.3063
C23C C -0.2013(5) 1.0165(10) 0.4726(3)
H19C H -0.2376 1.0626 0.4897
H20C H -0.1928 0.9374 0.4904
H21C H -0.2147 0.9987 0.4375
C24C C 0.0903(7) 0.6101(10) 0.1975(4)
H22C H 0.0792 0.5480 0.1713
H23C H 0.0793 0.5757 0.2310
H24C H 0.1387 0.6298 0.1960
O1C O 0.0564(2) 0.9108(4) 0.34668(16)
O2C O 0.0990(2) 0.9325(4) 0.42513(15)
O3D O -0.0593(2) 1.1811(4) -0.08810(16)
O3C O -0.0593(2) 0.8189(4) 0.41190(16)
O4D O -0.0328(2) 1.1261(4) -0.00850(16)
O4C O -0.0328(2) 0.8739(4) 0.49150(16)
O4G O 0.0328(2) 1.1261(4) 0.50850(16)
O5C O -0.0749(2) 1.0372(4) 0.32108(16)
O6C O -0.0846(3) 1.0968(5) 0.24018(16)
O7C O -0.1411(2) 1.0906(5) 0.47259(16)
H25C H -0.1247 1.0921 0.5019
O8C O 0.0600(3) 1.2169(5) 0.35304(18)
H26C H 0.0724 1.1752 0.3278
O9C O 0.0541(4) 0.7155(7) 0.1895(2)
H27C H 0.0548 0.7335 0.1587
Pb1C Pb -0.013699(11) 1.03673(2) 0.416362(9)
Pb1D Pb -0.013699(11) 0.96327(2) -0.083638(9)
loop_
_geom_bond_atom_site_label_1
_geom_bond_atom_site_label_2
_geom_bond_site_symmetry_1
_geom_bond_site_symmetry_2
C1 C2 1_555 1_555
C2 C3 1_555 1_555
C3 H1 1_555 1_555
C4 C3 1_555 1_555
H2 C4 1_555 1_555
C5 C4 1_555 1_555
H3 C5 1_555 1_555
C6 C5 1_555 1_555
H4 C6 1_555 1_555
C7 C2 1_555 1_555
H5 C7 1_555 1_555
C8 C9 1_555 1_555
C9 C10 1_555 1_555
C10 H6 1_555 1_555
C11 C10 1_555 1_555
H7 C11 1_555 1_555
C12 C11 1_555 1_555
H8 C12 1_555 1_555
C13 C12 1_555 1_555
H9 C13 1_555 1_555
C14 C9 1_555 1_555
H10 C14 1_555 1_555
C15 C16 1_555 1_555
C16 C17 1_555 1_555
C17 H11 1_555 1_555
C18 C17 1_555 1_555
H12 C18 1_555 1_555
C19 C18 1_555 1_555
H13 C19 1_555 1_555
C20 C19 1_555 1_555
H14 C20 1_555 1_555
C21 C16 1_555 1_555
H15 C21 1_555 1_555
C22 H16 1_555 1_555
H17 C22 1_555 1_555
H18 C22 1_555 1_555
C23 H19 1_555 1_555
H20 C23 1_555 1_555
H21 C23 1_555 1_555
C24 H22 1_555 1_555
H23 C24 1_555 1_555
H24 C24 1_555 1_555
O1 C1 1_555 1_555
O2 C1 1_555 1_555
O3 C8 1_555 1_555
O4 C8 1_555 1_555
O5 C15 1_555 1_555
O6 C15 1_555 1_555
O7 C23 1_555 1_555
H25 O7 1_555 1_555
O8 C22 1_555 1_555
H26 O8 1_555 1_555
O9 C24 1_555 1_555
H27 O9 1_555 1_555
Pb1 O1 1_555 1_555
Pb2 O1 1_555 1_555
C1C C2C 1_555 1_555
C2C C3C 1_555 1_555
C3C H1C 1_555 1_555
C4C C3C 1_555 1_555
H2C C4C 1_555 1_555
C5C C4C 1_555 1_555
H3C C5C 1_555 1_555
C6C C5C 1_555 1_555
H4C C6C 1_555 1_555
C7C C2C 1_555 1_555
H5C C7C 1_555 1_555
C8D C9D 1_555 1_555
C9D C10D 1_555 1_555
C10D H6D 1_555 1_555
C11D C10D 1_555 1_555
H7D C11D 1_555 1_555
C12D C11D 1_555 1_555
H8D C12D 1_555 1_555
C13D C12D 1_555 1_555
H9D C13D 1_555 1_555
C14D C9D 1_555 1_555
H10D C14D 1_555 1_555
C15C C16C 1_555 1_555
C16C C17C 1_555 1_555
C17C H11C 1_555 1_555
C18C C17C 1_555 1_555
H12C C18C 1_555 1_555
C19C C18C 1_555 1_555
H13C C19C 1_555 1_555
C20C C19C 1_555 1_555
H14C C20C 1_555 1_555
C21C C16C 1_555 1_555
H15C C21C 1_555 1_555
C22C H16C 1_555 1_555
H17C C22C 1_555 1_555
H18C C22C 1_555 1_555
C23C H19C 1_555 1_555
H20C C23C 1_555 1_555
H21C C23C 1_555 1_555
C24C H22C 1_555 1_555
H23C C24C 1_555 1_555
H24C C24C 1_555 1_555
O1C Pb2 1_555 1_555
O2C C1C 1_555 1_555
O3D C8D 1_555 1_555
O3C Pb1C 1_555 1_555
O4D Pb1 1_555 1_555
O4C Pb1C 1_555 1_555
O4G Pb1C 1_555 1_555
O5C Pb2 1_555 1_555
O6C Pb2 1_555 1_555
O7C C23C 1_555 1_555
H25C O7C 1_555 1_555
O8C C22C 1_555 1_555
H26C O8C 1_555 1_555
O9C Pb2 1_555 1_555
H27C O9C 1_555 1_555
Pb1C O1C 1_555 1_555
Pb1D O4 1_555 1_555
C6 C7 1_555 1_555
C13 C14 1_555 1_555
C20 C21 1_555 1_555
O2 Pb1 1_555 1_555
O3 Pb1 1_555 1_555
O4 Pb1 1_555 1_555
O5 Pb1 1_555 1_555
O5 Pb2 1_555 1_555
O6 Pb2 1_555 1_555
O7 Pb1 1_555 1_555
O8 Pb1 1_555 1_555
O9 Pb2 1_555 1_555
C1C O1C 1_555 1_555
C6C C7C 1_555 1_555
C8D O4D 1_555 1_555
C13D C14D 1_555 1_555
C15C O5C 1_555 1_555
C15C O6C 1_555 1_555
C20C C21C 1_555 1_555
C24C O9C 1_555 1_555
O2C Pb1C 1_555 1_555
O3D Pb1D 1_555 1_555
O4D Pb1D 1_555 1_555
O5C Pb1C 1_555 1_555
O7C Pb1C 1_555 1_555
O8C Pb1C 1_555 1_555

#END
