
#######################################################################
#
#                 Cambridge Crystallographic Data Centre
#                                CCDC 
#
#######################################################################
#
# If this CIF has been generated from an entry in the Cambridge 
# Structural Database, then it will include bibliographic, chemical, 
# crystal, experimental, refinement or atomic coordinate data resulting 
# from the CCDC's data processing and validation procedures.
#
#######################################################################

data_QUFNOV
_symmetry_cell_setting           triclinic
_symmetry_space_group_name_H-M   'P -1'
_symmetry_Int_Tables_number      2
_space_group_name_Hall           '-P 1'
loop_
_symmetry_equiv_pos_site_id
_symmetry_equiv_pos_as_xyz
1 x,y,z
2 -x,-y,-z
_cell_length_a                   7.31950(10)
_cell_length_b                   10.0892(2)
_cell_length_c                   11.8016(2)
_cell_angle_alpha                90.1510(10)
_cell_angle_beta                 105.0190(10)
_cell_angle_gamma                103.0080(10)
_cell_volume                     818.429
loop_
_atom_site_label
_atom_site_type_symbol
_atom_site_fract_x
_atom_site_fract_y
_atom_site_fract_z
C1 C 1.0441(12) 0.2600(8) 0.3910(6)
H1 H 1.1100 0.2627 0.3331
C2 C 1.0825(11) 0.1792(7) 0.4855(7)
H2 H 1.1741 0.1272 0.4909
C3 C 0.9840(13) 0.1761(8) 0.5719(6)
H3 H 1.0097 0.1220 0.6351
C4 C 0.8471(11) 0.2538(9) 0.5638(7)
H4 H 0.7812 0.2517 0.6217
C5 C 0.8087(11) 0.3345(8) 0.4694(9)
Pb1 Pb 0.81281(3) 0.583995(19) 0.075703(19)
O1 O 0.7026(6) 0.4569(5) 0.2360(4)
O2 O 1.0022(7) 0.4666(5) 0.2386(4)
O3 O 0.5477(5) 0.3763(4) -0.0308(4)
O4 O 0.8523(5) 0.3806(3) -0.0134(4)
O5 O 0.7163(6) 0.6272(4) -0.1542(4)
H5 H 0.7724 0.6095 -0.1988
H6 H 0.5780 0.6076 -0.1859
C6 C 0.8628(10) 0.4277(6) 0.2818(5)
C7 C 0.6742(7) 0.3210(5) -0.0505(5)
C8 C 0.6192(7) 0.1857(5) -0.1160(5)
C9 C 0.4866(11) 0.1668(8) -0.2262(7)
H7 H 0.4260 0.2360 -0.2554
C10 C 0.4446(14) 0.0449(10) -0.2929(8)
H8 H 0.3615 0.0341 -0.3684
C11 C 0.5252(14) -0.0585(10) -0.2474(11)
H9 H 0.4982 -0.1395 -0.2929
C12 C 0.6479(10) -0.0455(7) -0.1337(9)
H10 H 0.6957 -0.1193 -0.1025
C13 C 0.6988(8) 0.0776(5) -0.0670(6)
C14 C 0.8269(10) 0.0885(7) 0.0553(7)
H11 H 0.8338 -0.0011 0.0804
H12 H 0.7744 0.1333 0.1070
H13 H 0.9550 0.1404 0.0572
C15 C 0.6718(13) 0.4034(10) 0.4670(8)
H14 H 0.5614 0.3684 0.4015
H15 H 0.7230 0.4982 0.4591
H16 H 0.6326 0.3930 0.5387
C16 C 0.8948(14) 0.3430(9) 0.3833(8)
Pb1A Pb 0.18719(3) 0.416005(19) -0.075703(19)
Pb1A_2 Pb 1.18719(3) 0.416005(19) -0.075703(19)
O3A O 0.4523(5) 0.6237(4) 0.0308(4)
O4A O 1.1477(5) 0.6194(3) 0.0134(4)
loop_
_geom_bond_atom_site_label_1
_geom_bond_atom_site_label_2
_geom_bond_site_symmetry_1
_geom_bond_site_symmetry_2
C1 H1 1_555 1_555
C2 C1 1_555 1_555
H2 C2 1_555 1_555
C3 C2 1_555 1_555
H3 C3 1_555 1_555
C4 C3 1_555 1_555
H4 C4 1_555 1_555
C5 C4 1_555 1_555
Pb1 O1 1_555 1_555
O1 C6 1_555 1_555
O2 Pb1 1_555 1_555
O3 Pb1 1_555 1_555
O4 Pb1 1_555 1_555
O5 Pb1 1_555 1_555
H5 O5 1_555 1_555
H6 O5 1_555 1_555
C6 O2 1_555 1_555
C7 O3 1_555 1_555
C8 C7 1_555 1_555
C9 C8 1_555 1_555
H7 C9 1_555 1_555
C10 C9 1_555 1_555
H8 C10 1_555 1_555
C11 C10 1_555 1_555
H9 C11 1_555 1_555
C12 C11 1_555 1_555
H10 C12 1_555 1_555
C13 C8 1_555 1_555
C14 C13 1_555 1_555
H11 C14 1_555 1_555
H12 C14 1_555 1_555
H13 C14 1_555 1_555
C15 C5 1_555 1_555
H14 C15 1_555 1_555
H15 C15 1_555 1_555
H16 C15 1_555 1_555
C16 C1 1_555 1_555
Pb1A O3 1_555 1_555
Pb1A_2 O4 1_555 1_555
O3A Pb1 1_555 1_555
O4A Pb1 1_555 1_555
C5 C16 1_555 1_555
O4 C7 1_555 1_555
C6 C16 1_555 1_555
C12 C13 1_555 1_555
Pb1A O3A 1_555 1_555
Pb1A_2 O4A 1_555 1_555

#END
