
#######################################################################
#
#                 Cambridge Crystallographic Data Centre
#                                CCDC 
#
#######################################################################
#
# If this CIF has been generated from an entry in the Cambridge 
# Structural Database, then it will include bibliographic, chemical, 
# crystal, experimental, refinement or atomic coordinate data resulting 
# from the CCDC's data processing and validation procedures.
#
#######################################################################

data_QUFVUJ
_symmetry_cell_setting           orthorhombic
_symmetry_space_group_name_H-M   'P b c a'
_symmetry_Int_Tables_number      61
_space_group_name_Hall           '-P 2ac 2ab'
loop_
_symmetry_equiv_pos_site_id
_symmetry_equiv_pos_as_xyz
1 x,y,z
2 1/2-x,-y,1/2+z
3 1/2+x,1/2-y,-z
4 -x,1/2+y,1/2-z
5 -x,-y,-z
6 1/2+x,y,1/2-z
7 1/2-x,1/2+y,z
8 x,1/2-y,1/2+z
_cell_length_a                   10.350(2)
_cell_length_b                   13.540(5)
_cell_length_c                   27.867(7)
_cell_angle_alpha                90
_cell_angle_beta                 90
_cell_angle_gamma                90
_cell_volume                     3905.25
loop_
_atom_site_label
_atom_site_type_symbol
_atom_site_fract_x
_atom_site_fract_y
_atom_site_fract_z
Co1 Co 0.81049(3) 0.10951(2) 0.622492(10)
C1 C 1.0703(2) 0.09183(15) 0.36303(7)
H1 H 1.1497 0.1236 0.3655
C2 C 0.9229(2) -0.01906(17) 0.36328(9)
H2 H 0.8813 -0.0797 0.3661
C3 C 0.8650(2) 0.06659(18) 0.35149(9)
H3 H 0.7779 0.0761 0.3447
C4 C 0.9443(2) 0.24066(16) 0.33699(8)
H4 H 0.9068 0.2432 0.3051
H5 H 1.0286 0.2719 0.3356
C5 C 0.8588(2) 0.29765(18) 0.37144(8)
H6 H 0.8423 0.3628 0.3583
H7 H 0.7766 0.2639 0.3744
C6 C 0.9179(2) 0.30861(19) 0.42065(8)
H8 H 1.0069 0.3300 0.4171
H9 H 0.9190 0.2445 0.4362
C7 C 0.8472(2) 0.38181(18) 0.45319(9)
H10 H 0.9002 0.3935 0.4813
H11 H 0.8393 0.4441 0.4362
C8 C 0.7138(2) 0.35069(18) 0.46980(8)
H12 H 0.6764 0.4030 0.4891
H13 H 0.6587 0.3409 0.4420
C9 C 0.7718(2) 0.24783(17) 0.54150(7)
H14 H 0.8111 0.2983 0.5588
C10 C 0.6699(2) 0.16903(19) 0.48438(8)
H15 H 0.6275 0.1541 0.4559
C11 C 0.6969(2) 0.10633(18) 0.52075(8)
H16 H 0.6749 0.0397 0.5215
C12 C 0.61074(19) -0.01753(15) 0.64791(7)
C13 C 0.51517(18) -0.06039(15) 0.68292(7)
C14 C 0.48463(17) -0.16046(15) 0.68239(7)
C15 C 0.54443(19) -0.23421(15) 0.64888(7)
C16 C 0.3957(2) -0.19743(17) 0.71562(7)
H17 H 0.3770 -0.2646 0.7159
C17 C 0.3353(2) -0.1355(2) 0.74796(8)
H18 H 0.2752 -0.1606 0.7696
C18 C 0.3646(2) -0.0359(2) 0.74803(8)
H19 H 0.3232 0.0064 0.7693
C19 C 0.4555(2) 0.00077(17) 0.71643(7)
H20 H 0.4773 0.0674 0.7175
N1 N 1.05261(16) -0.00348(13) 0.37054(6)
N2 N 0.95994(16) 0.13690(13) 0.35144(6)
N3 N 0.71796(17) 0.25930(14) 0.49803(6)
N4 N 0.76166(17) 0.15596(14) 0.55642(6)
O1 O 0.48420(15) -0.26268(12) 0.61318(5)
O2 O 0.65298(14) -0.27097(12) 0.66160(6)
O3 O 0.63959(15) -0.06230(12) 0.61064(6)
O4 O 0.66050(14) 0.06521(11) 0.65994(6)
Co1D Co 1.18951(3) -0.10951(2) 0.377508(10)
Co1F Co 0.68951(3) -0.39049(2) 0.622492(10)
N1D N 0.94739(16) 0.00348(13) 0.62946(6)
O2F O 0.84702(14) 0.22903(12) 0.66160(6)
loop_
_geom_bond_atom_site_label_1
_geom_bond_atom_site_label_2
_geom_bond_site_symmetry_1
_geom_bond_site_symmetry_2
Co1 N4 1_555 1_555
C1 H1 1_555 1_555
C2 H2 1_555 1_555
C3 C2 1_555 1_555
H3 C3 1_555 1_555
C4 H4 1_555 1_555
H5 C4 1_555 1_555
C5 C4 1_555 1_555
H6 C5 1_555 1_555
H7 C5 1_555 1_555
C6 C5 1_555 1_555
H8 C6 1_555 1_555
H9 C6 1_555 1_555
C7 C6 1_555 1_555
H10 C7 1_555 1_555
H11 C7 1_555 1_555
C8 C7 1_555 1_555
H12 C8 1_555 1_555
H13 C8 1_555 1_555
C9 H14 1_555 1_555
C10 H15 1_555 1_555
C11 C10 1_555 1_555
H16 C11 1_555 1_555
C12 C13 1_555 1_555
C13 C14 1_555 1_555
C14 C15 1_555 1_555
C15 O1 1_555 1_555
C16 C14 1_555 1_555
H17 C16 1_555 1_555
C17 C16 1_555 1_555
H18 C17 1_555 1_555
C18 C17 1_555 1_555
H19 C18 1_555 1_555
C19 C13 1_555 1_555
H20 C19 1_555 1_555
N1 C1 1_555 1_555
N2 C1 1_555 1_555
N3 C8 1_555 1_555
N4 C9 1_555 1_555
O2 C15 1_555 1_555
O3 C12 1_555 1_555
O4 Co1 1_555 1_555
Co1D N1 1_555 1_555
Co1F O2 1_555 1_555
N1D Co1 1_555 1_555
O2F Co1 1_555 1_555
C2 N1 1_555 1_555
C3 N2 1_555 1_555
C4 N2 1_555 1_555
C9 N3 1_555 1_555
C10 N3 1_555 1_555
C11 N4 1_555 1_555
C12 O4 1_555 1_555
C18 C19 1_555 1_555

#END
