
#######################################################################
#
#                 Cambridge Crystallographic Data Centre
#                                CCDC 
#
#######################################################################
#
# If this CIF has been generated from an entry in the Cambridge 
# Structural Database, then it will include bibliographic, chemical, 
# crystal, experimental, refinement or atomic coordinate data resulting 
# from the CCDC's data processing and validation procedures.
#
#######################################################################

data_QUFWOE
_symmetry_cell_setting           monoclinic
_symmetry_space_group_name_H-M   'P 21/c'
_symmetry_Int_Tables_number      14
_space_group_name_Hall           '-P 2ybc'
loop_
_symmetry_equiv_pos_site_id
_symmetry_equiv_pos_as_xyz
1 x,y,z
2 -x,1/2+y,1/2-z
3 -x,-y,-z
4 x,1/2-y,1/2+z
_cell_length_a                   11.908(5)
_cell_length_b                   10.756(3)
_cell_length_c                   14.131(5)
_cell_angle_alpha                90
_cell_angle_beta                 114.112(13)
_cell_angle_gamma                90
_cell_volume                     1652.01
loop_
_atom_site_label
_atom_site_type_symbol
_atom_site_fract_x
_atom_site_fract_y
_atom_site_fract_z
Co1 Co 0.21410(3) 0.20746(3) 0.28969(3)
C1 C 0.4121(3) 0.2473(3) 0.2145(2)
H1 H 0.3738 0.1943 0.1585
C2 C 0.4580(3) 0.3482(3) 0.3568(2)
H2 H 0.4560 0.3779 0.4180
C3 C 0.5406(3) 0.3819(3) 0.3188(2)
H3 H 0.6053 0.4377 0.3485
C4 C 0.5723(3) 0.3271(3) 0.1566(3)
H4 H 0.6385 0.3873 0.1843
H5 H 0.5138 0.3584 0.0904
C5 C 0.6241(3) 0.2074(3) 0.1387(2)
H6 H 0.6417 0.2171 0.0779
H7 H 0.5612 0.1440 0.1229
C6 C 0.7384(4) 0.1611(4) 0.2259(3)
H8 H 0.7998 0.2264 0.2439
H9 H 0.7696 0.0913 0.2005
C7 C 0.7272(3) 0.1208(3) 0.3238(2)
H10 H 0.6540 0.0701 0.3062
H11 H 0.7187 0.1935 0.3610
C8 C 0.8387(3) 0.0474(3) 0.3922(3)
H12 H 0.8399 -0.0310 0.3586
H13 H 0.9123 0.0932 0.4003
C9 C 0.8002(3) -0.0803(3) 0.5252(2)
H14 H 0.7676 -0.1490 0.4830
C10 C 0.8640(3) 0.0440(3) 0.6545(2)
H15 H 0.8837 0.0769 0.7202
C11 C 0.8818(3) 0.1018(3) 0.5783(3)
H16 H 0.9153 0.1805 0.5809
C12 C 0.1926(3) 0.3977(3) 0.4169(2)
C13 C 0.1260(2) 0.5017(2) 0.4436(2)
H17 H 0.0741 0.5453 0.3808
H18 H 0.1853 0.5605 0.4890
C14 C 0.0465(2) 0.4510(2) 0.49730(18)
H19 H 0.0003 0.3790 0.4580
C15 C 0.1280(2) 0.4086(2) 0.60785(19)
N1 N 0.3767(2) 0.2631(2) 0.29116(17)
N2 N 0.5104(2) 0.3177(2) 0.22808(18)
N3 N 0.8407(2) 0.0224(2) 0.49521(19)
N4 N 0.8124(2) -0.0715(2) 0.62214(17)
O1 O 0.1403(2) 0.35508(19) 0.32470(16)
O2 O 0.2895(2) 0.3557(2) 0.48227(16)
O3 O 0.10305(19) 0.30424(18) 0.63689(15)
O4 O 0.21096(19) 0.4759(2) 0.66608(14)
Co1B Co -0.21410(3) 0.79254(3) 0.71031(3)
Co1_2 Co -0.78590(3) 1.20746(3) 0.28969(3)
Co1A Co -0.21410(3) 0.70746(3) 0.21031(3)
Co1B_2 Co 0.78590(3) -0.20746(3) 0.71031(3)
Co1C Co 0.21410(3) 0.29254(3) 0.78969(3)
C1B C -0.4121(3) 0.7527(3) 0.7855(2)
H1B H -0.3738 0.8057 0.8415
C2B C -0.4580(3) 0.6518(3) 0.6432(2)
H2B H -0.4560 0.6221 0.5820
C3B C -0.5406(3) 0.6181(3) 0.6812(2)
H3B H -0.6053 0.5623 0.6515
C4B C -0.5723(3) 0.6729(3) 0.8434(3)
H4B H -0.6385 0.6127 0.8157
H5B H -0.5138 0.6416 0.9096
C5B C -0.6241(3) 0.7926(3) 0.8613(2)
H6B H -0.6417 0.7829 0.9221
H7B H -0.5612 0.8560 0.8771
C6B C -0.7384(4) 0.8389(4) 0.7741(3)
H8B H -0.7998 0.7736 0.7561
H9B H -0.7696 0.9087 0.7995
C7B C -0.7272(3) 0.8792(3) 0.6762(2)
H10B H -0.6540 0.9299 0.6938
H11B H -0.7187 0.8065 0.6390
C8B C -0.8387(3) 0.9526(3) 0.6078(3)
H12B H -0.8399 1.0310 0.6414
H13B H -0.9123 0.9068 0.5997
C9B C -0.8002(3) 1.0803(3) 0.4748(2)
H14B H -0.7676 1.1490 0.5170
C10B C -0.8640(3) 0.9560(3) 0.3455(2)
H15B H -0.8837 0.9231 0.2798
C11B C -0.8818(3) 0.8982(3) 0.4217(3)
H16B H -0.9153 0.8195 0.4191
C12B C -0.1926(3) 0.6023(3) 0.5831(2)
C13B C -0.1260(2) 0.4983(2) 0.5564(2)
H17B H -0.0741 0.4547 0.6192
H18B H -0.1853 0.4395 0.5110
C14B C -0.0465(2) 0.5490(2) 0.50270(18)
H19B H -0.0003 0.6210 0.5420
C15B C -0.1280(2) 0.5914(2) 0.39215(19)
N1B N -0.3767(2) 0.7369(2) 0.70884(17)
N2B N -0.5104(2) 0.6823(2) 0.77192(18)
N3B N -0.8407(2) 0.9776(2) 0.50479(19)
N4B N -0.8124(2) 1.0715(2) 0.37786(17)
N4_2 N -0.1876(2) 0.9285(2) 0.62214(17)
N4B_2 N 0.1876(2) 0.0715(2) 0.37786(17)
O1B O -0.1403(2) 0.64492(19) 0.67530(16)
O2B O -0.2895(2) 0.6443(2) 0.51773(16)
O3B O -0.10305(19) 0.69576(18) 0.36311(15)
O3A O -0.10305(19) 0.80424(18) 0.86311(15)
O3C O 0.10305(19) 0.19576(18) 0.13689(15)
O4B O -0.21096(19) 0.5241(2) 0.33392(14)
loop_
_geom_bond_atom_site_label_1
_geom_bond_atom_site_label_2
_geom_bond_site_symmetry_1
_geom_bond_site_symmetry_2
Co1 N1 1_555 1_555
C1 H1 1_555 1_555
C2 H2 1_555 1_555
C3 C2 1_555 1_555
H3 C3 1_555 1_555
C4 H4 1_555 1_555
H5 C4 1_555 1_555
C5 C4 1_555 1_555
H6 C5 1_555 1_555
H7 C5 1_555 1_555
C6 C5 1_555 1_555
H8 C6 1_555 1_555
H9 C6 1_555 1_555
C7 C6 1_555 1_555
H10 C7 1_555 1_555
H11 C7 1_555 1_555
C8 C7 1_555 1_555
H12 C8 1_555 1_555
H13 C8 1_555 1_555
C9 H14 1_555 1_555
C10 H15 1_555 1_555
C11 C10 1_555 1_555
H16 C11 1_555 1_555
C12 C13 1_555 1_555
C13 H17 1_555 1_555
H18 C13 1_555 1_555
C14 C13 1_555 1_555
H19 C14 1_555 1_555
C15 C14 1_555 1_555
N1 C1 1_555 1_555
N2 C1 1_555 1_555
N3 C8 1_555 1_555
N4 C9 1_555 1_555
O1 Co1 1_555 1_555
O2 C12 1_555 1_555
O3 C15 1_555 1_555
O4 C15 1_555 1_555
Co1B N1B 1_555 1_555
Co1_2 N4B 1_555 1_555
Co1A O3B 1_555 1_555
Co1B_2 N4 1_555 1_555
Co1C O3 1_555 1_555
C1B H1B 1_555 1_555
C2B H2B 1_555 1_555
C3B C2B 1_555 1_555
H3B C3B 1_555 1_555
C4B H4B 1_555 1_555
H5B C4B 1_555 1_555
C5B C4B 1_555 1_555
H6B C5B 1_555 1_555
H7B C5B 1_555 1_555
C6B C5B 1_555 1_555
H8B C6B 1_555 1_555
H9B C6B 1_555 1_555
C7B C6B 1_555 1_555
H10B C7B 1_555 1_555
H11B C7B 1_555 1_555
C8B C7B 1_555 1_555
H12B C8B 1_555 1_555
H13B C8B 1_555 1_555
C9B H14B 1_555 1_555
C10B H15B 1_555 1_555
C11B C10B 1_555 1_555
H16B C11B 1_555 1_555
C12B C13B 1_555 1_555
C13B H17B 1_555 1_555
H18B C13B 1_555 1_555
C14B C14 1_555 1_555
H19B C14B 1_555 1_555
C15B C14B 1_555 1_555
N1B C1B 1_555 1_555
N2B C1B 1_555 1_555
N3B C8B 1_555 1_555
N4B C9B 1_555 1_555
N4_2 Co1B 1_555 1_555
N4B_2 Co1 1_555 1_555
O1B Co1B 1_555 1_555
O2B C12B 1_555 1_555
O3B C15B 1_555 1_555
O3A Co1B 1_555 1_555
O3C Co1 1_555 1_555
O4B C15B 1_555 1_555
C2 N1 1_555 1_555
C3 N2 1_555 1_555
C4 N2 1_555 1_555
C9 N3 1_555 1_555
C10 N4 1_555 1_555
C11 N3 1_555 1_555
C12 O1 1_555 1_555
C2B N1B 1_555 1_555
C3B N2B 1_555 1_555
C4B N2B 1_555 1_555
C9B N3B 1_555 1_555
C10B N4B 1_555 1_555
C11B N3B 1_555 1_555
C12B O1B 1_555 1_555
C13B C14B 1_555 1_555

#END
