
#######################################################################
#
#                 Cambridge Crystallographic Data Centre
#                                CCDC 
#
#######################################################################
#
# If this CIF has been generated from an entry in the Cambridge 
# Structural Database, then it will include bibliographic, chemical, 
# crystal, experimental, refinement or atomic coordinate data resulting 
# from the CCDC's data processing and validation procedures.
#
#######################################################################

data_QUFWUK
_symmetry_cell_setting           monoclinic
_symmetry_space_group_name_H-M   'P 21/n'
_symmetry_Int_Tables_number      14
_space_group_name_Hall           '-P 2yn'
loop_
_symmetry_equiv_pos_site_id
_symmetry_equiv_pos_as_xyz
1 x,y,z
2 1/2-x,1/2+y,1/2-z
3 -x,-y,-z
4 1/2+x,1/2-y,1/2+z
_cell_length_a                   11.159(3)
_cell_length_b                   24.415(7)
_cell_length_c                   14.723(4)
_cell_angle_alpha                90
_cell_angle_beta                 96.91(3)
_cell_angle_gamma                90
_cell_volume                     3982.1
loop_
_atom_site_label
_atom_site_type_symbol
_atom_site_fract_x
_atom_site_fract_y
_atom_site_fract_z
Co1 Co 0.22592(4) 0.07975(2) 0.36644(3)
Co2 Co 0.48715(4) 0.187698(18) 1.05258(3)
C1 C 0.1860(4) 0.08388(17) 0.1818(3)
C2 C 0.1141(3) 0.08617(15) 0.0892(2)
C3 C -0.0076(4) 0.07219(17) 0.0805(3)
H1 H -0.0425 0.0635 0.1329
C4 C -0.0780(4) 0.07065(17) -0.0025(3)
H2 H -0.1592 0.0612 -0.0065
C5 C -0.0248(3) 0.08368(14) -0.0812(2)
C6 C 0.0961(3) 0.09822(15) -0.0751(2)
H3 H 0.1304 0.1073 -0.1276
C7 C 0.1661(3) 0.09919(14) 0.0102(2)
C8 C 0.2956(3) 0.11797(16) 0.0133(2)
C9 C -0.0547(3) 0.08863(16) -0.2440(2)
C10 C -0.0384(4) 0.04362(16) -0.2969(3)
H4 H -0.0542 0.0087 -0.2759
C11 C 0.0014(4) 0.05024(16) -0.3807(3)
H5 H 0.0138 0.0195 -0.4158
C12 C 0.0235(3) 0.10223(15) -0.4144(2)
C13 C 0.0074(3) 0.14804(14) -0.3602(2)
C14 C -0.0322(3) 0.14113(16) -0.2745(2)
H6 H -0.0434 0.1714 -0.2381
C15 C 0.0421(3) 0.20475(15) -0.3877(2)
C16 C 0.0609(4) 0.10825(15) -0.5088(2)
C17 C 0.3255(4) 0.18465(19) 0.4519(3)
H7 H 0.2646 0.1871 0.4896
C18 C 0.4381(5) 0.1552(3) 0.3547(4)
H8 H 0.4692 0.1329 0.3120
C19 C 0.4853(5) 0.2028(3) 0.3857(4)
H9 H 0.5537 0.2197 0.3683
C20 C 0.4308(7) 0.2734(2) 0.4988(4)
H10 H 0.3647 0.2980 0.4786
H11 H 0.5048 0.2904 0.4844
C21 C 0.4379(7) 0.2664(3) 0.6003(5)
H12 H 0.4574 0.3011 0.6304
H13 H 0.3603 0.2543 0.6164
C22 C 0.6514(6) 0.2407(3) 0.6528(4)
H14 H 0.6730 0.2685 0.6107
H15 H 0.7004 0.2086 0.6452
C23 C 0.6792(5) 0.2613(2) 0.7480(3)
H16 H 0.7653 0.2680 0.7604
H17 H 0.6379 0.2958 0.7535
C24 C 0.5760(4) 0.23450(18) 0.8830(3)
H18 H 0.5431 0.2688 0.8917
C25 C 0.6738(4) 0.1692(2) 0.8263(3)
H19 H 0.7202 0.1494 0.7895
C26 C 0.6247(4) 0.1503(2) 0.8987(3)
H20 H 0.6319 0.1146 0.9210
C27 C 0.3100(6) -0.0272(2) 0.4571(4)
H21 H 0.2628 -0.0222 0.5044
C28 C 0.3821(5) -0.0706(2) 0.4481(4)
H22 H 0.3949 -0.1004 0.4876
C29 C 0.3913(4) -0.0146(2) 0.3353(3)
H23 H 0.4129 0.0004 0.2815
C30 C 0.5237(5) -0.0973(2) 0.3353(4)
H24 H 0.5060 -0.1004 0.2694
H25 H 0.5201 -0.1338 0.3611
C31 C 0.6479(5) -0.0748(2) 0.3585(4)
H26 H 0.6628 -0.0687 0.4240
H27 H 0.7062 -0.1015 0.3424
C32 C 0.6692(6) -0.0316(2) 0.2177(4)
H28 H 0.5886 -0.0280 0.1853
H29 H 0.6993 -0.0678 0.2057
C33 C 0.7503(5) 0.0110(2) 0.1845(5)
H30 H 0.8273 0.0101 0.2229
H31 H 0.7650 0.0018 0.1228
C34 C 0.7449(5) 0.1102(3) 0.2383(4)
H32 H 0.8070 0.1091 0.2863
C35 C 0.6790(5) 0.1555(3) 0.2079(4)
H33 H 0.6892 0.1906 0.2320
C36 C 0.6129(4) 0.08778(19) 0.1265(4)
H34 H 0.5666 0.0669 0.0826
N1 N 0.5623(3) 0.19152(13) 0.9347(2)
N2 N 0.6430(3) 0.22267(16) 0.8166(2)
N3 N 0.4129(4) 0.22211(17) 0.4485(3)
N4 N 0.3372(3) 0.14431(16) 0.3955(2)
N5 N 0.3166(3) 0.00849(16) 0.3865(3)
N6 N 0.4317(4) -0.06226(17) 0.3706(3)
N7 N 0.7019(4) 0.06716(17) 0.1846(3)
N8 N 0.5968(3) 0.14055(15) 0.1373(2)
O1 O 0.1243(3) 0.08794(13) 0.24996(18)
O2 O 0.2961(3) 0.07660(17) 0.1901(2)
O4 O 0.3715(3) 0.08846(14) -0.0153(2)
O6 O 0.3163(3) 0.16640(13) 0.0418(2)
O7 O -0.1011(2) 0.08128(12) -0.16126(17)
O8 O -0.0442(3) 0.23910(12) -0.3993(2)
O9 O 0.1480(3) 0.21523(13) -0.3937(2)
O10 O 0.0222(4) 0.14634(14) -0.5583(2)
O11 O 0.1306(3) 0.07065(13) -0.53137(19)
O12 O 0.6654(3) -0.02485(16) 0.3126(3)
O13 O 0.5283(4) 0.22690(16) 0.6303(3)
Co1_2 Co 0.22592(4) 0.07975(2) -0.63356(3)
Co2_2 Co 0.48715(4) 0.187698(18) 0.05258(3)
Co2C Co -0.01285(4) 0.312302(18) -0.44742(3)
N8_2 N 0.5968(3) 0.14055(15) 1.1373(2)
O6_2 O 0.3163(3) 0.16640(13) 1.0418(2)
O8C O 0.4558(3) 0.26090(12) 1.1007(2)
O11_2 O 0.1306(3) 0.07065(13) 0.46863(19)
O3 O 0.3697(5) -0.0142(2) 1.0702(4)
O5 O -0.2053(6) 0.2098(4) 0.4314(5)
O14? O 0.2472(18) 0.1905(8) 0.8027(11)
loop_
_geom_bond_atom_site_label_1
_geom_bond_atom_site_label_2
_geom_bond_site_symmetry_1
_geom_bond_site_symmetry_2
Co1 N4 1_555 1_555
Co2 N1 1_555 1_555
C1 C2 1_555 1_555
C2 C3 1_555 1_555
C3 H1 1_555 1_555
C4 C3 1_555 1_555
H2 C4 1_555 1_555
C5 C4 1_555 1_555
C6 C5 1_555 1_555
H3 C6 1_555 1_555
C7 C2 1_555 1_555
C8 C7 1_555 1_555
C9 C10 1_555 1_555
C10 H4 1_555 1_555
C11 C10 1_555 1_555
H5 C11 1_555 1_555
C12 C11 1_555 1_555
C13 C12 1_555 1_555
C14 C9 1_555 1_555
H6 C14 1_555 1_555
C15 C13 1_555 1_555
C16 C12 1_555 1_555
C17 H7 1_555 1_555
C18 H8 1_555 1_555
C19 C18 1_555 1_555
H9 C19 1_555 1_555
C20 H10 1_555 1_555
H11 C20 1_555 1_555
C21 C20 1_555 1_555
H12 C21 1_555 1_555
H13 C21 1_555 1_555
C22 H14 1_555 1_555
H15 C22 1_555 1_555
C23 C22 1_555 1_555
H16 C23 1_555 1_555
H17 C23 1_555 1_555
C24 H18 1_555 1_555
C25 H19 1_555 1_555
C26 C25 1_555 1_555
H20 C26 1_555 1_555
C27 H21 1_555 1_555
C28 C27 1_555 1_555
H22 C28 1_555 1_555
C29 H23 1_555 1_555
C30 H24 1_555 1_555
H25 C30 1_555 1_555
C31 C30 1_555 1_555
H26 C31 1_555 1_555
H27 C31 1_555 1_555
C32 H28 1_555 1_555
H29 C32 1_555 1_555
C33 C32 1_555 1_555
H30 C33 1_555 1_555
H31 C33 1_555 1_555
C34 H32 1_555 1_555
C35 C34 1_555 1_555
H33 C35 1_555 1_555
C36 H34 1_555 1_555
N1 C24 1_555 1_555
N2 C23 1_555 1_555
N3 C17 1_555 1_555
N4 C17 1_555 1_555
N5 Co1 1_555 1_555
N6 C28 1_555 1_555
N7 C33 1_555 1_555
N8 C35 1_555 1_555
O1 Co1 1_555 1_555
O2 C1 1_555 1_555
O4 C8 1_555 1_555
O6 C8 1_555 1_555
O7 C5 1_555 1_555
O8 C15 1_555 1_555
O9 C15 1_555 1_555
O10 C16 1_555 1_555
O11 C16 1_555 1_555
O12 C31 1_555 1_555
O13 C21 1_555 1_555
Co1_2 O11 1_555 1_555
Co2_2 N8 1_555 1_555
Co2C O8 1_555 1_555
N8_2 Co2 1_555 1_555
O6_2 Co2 1_555 1_555
O8C Co2 1_555 1_555
O11_2 Co1 1_555 1_555
C1 O1 1_555 1_555
C6 C7 1_555 1_555
C9 O7 1_555 1_555
C13 C14 1_555 1_555
C18 N4 1_555 1_555
C19 N3 1_555 1_555
C20 N3 1_555 1_555
C22 O13 1_555 1_555
C24 N2 1_555 1_555
C25 N2 1_555 1_555
C26 N1 1_555 1_555
C27 N5 1_555 1_555
C29 N5 1_555 1_555
C29 N6 1_555 1_555
C30 N6 1_555 1_555
C32 O12 1_555 1_555
C34 N7 1_555 1_555
C36 N7 1_555 1_555
C36 N8 1_555 1_555
O6 Co2_2 1_555 1_555

#END
