
#######################################################################
#
#                 Cambridge Crystallographic Data Centre
#                                CCDC 
#
#######################################################################
#
# If this CIF has been generated from an entry in the Cambridge 
# Structural Database, then it will include bibliographic, chemical, 
# crystal, experimental, refinement or atomic coordinate data resulting 
# from the CCDC's data processing and validation procedures.
#
#######################################################################

data_QUFWEU
_symmetry_cell_setting           monoclinic
_symmetry_space_group_name_H-M   'P 21/n'
_symmetry_Int_Tables_number      14
_space_group_name_Hall           '-P 2yn'
loop_
_symmetry_equiv_pos_site_id
_symmetry_equiv_pos_as_xyz
1 x,y,z
2 1/2-x,1/2+y,1/2-z
3 -x,-y,-z
4 1/2+x,1/2-y,1/2+z
_cell_length_a                   9.539(3)
_cell_length_b                   15.724(7)
_cell_length_c                   13.203(4)
_cell_angle_alpha                90
_cell_angle_beta                 90.414(11)
_cell_angle_gamma                90
_cell_volume                     1980.28
loop_
_atom_site_label
_atom_site_type_symbol
_atom_site_fract_x
_atom_site_fract_y
_atom_site_fract_z
Co1 Co 0.77048(4) 0.04882(3) 0.84411(3)
C1 C -0.0088(3) 0.0483(2) 0.7115(3)
C2 C 0.1393(3) 0.0602(2) 0.6756(2)
C3 C 0.1645(3) 0.0563(2) 0.5722(2)
H1 H 0.0900 0.0499 0.5271
C4 C 0.2995(3) 0.0618(2) 0.5364(2)
C5 C 0.4109(3) 0.0699(2) 0.6041(2)
H2 H 0.5020 0.0738 0.5799
C6 C 0.3870(3) 0.0721(2) 0.7073(2)
C7 C 0.2496(3) 0.0685(2) 0.7436(3)
H3 H 0.2326 0.0716 0.8127
C8 C 0.5089(3) 0.0714(2) 0.7804(2)
C9 C 0.6959(4) 0.1064(2) 1.0550(3)
H4 H 0.6313 0.0628 1.0640
C10 C 0.8464(8) 0.1879(4) 0.9910(4)
H5 H 0.9086 0.2123 0.9455
C11 C 0.8158(9) 0.2192(4) 1.0817(4)
H6 H 0.8536 0.2679 1.1113
C12 C 0.6517(7) 0.1783(4) 1.2201(3)
H7 H 0.5834 0.1334 1.2301
H8 H 0.6031 0.2324 1.2216
C13 C 0.7610(8) 0.1753(4) 1.3032(4)
H9 H 0.8113 0.1218 1.2990
H10 H 0.8280 0.2208 1.2927
C14 C 0.7017(7) 0.1836(4) 1.4036(4)
H11 H 0.6218 0.1458 1.4093
H12 H 0.6686 0.2414 1.4128
C15 C 0.8047(7) 0.1631(3) 1.4847(5)
H13 H 0.8645 0.1175 1.4607
H14 H 0.7539 0.1416 1.5426
C16 C 0.8965(6) 0.2349(3) 1.5197(4)
H15 H 0.9374 0.2628 1.4614
H16 H 0.9722 0.2126 1.5613
C17 C 0.8151(4) 0.3816(2) 1.5659(3)
H17 H 0.8625 0.4085 1.5136
C18 C 0.6936(6) 0.3580(3) 1.6948(4)
H18 H 0.6376 0.3662 1.7513
C19 C 0.7377(6) 0.2825(3) 1.6615(4)
H19 H 0.7188 0.2296 1.6898
N1 N 0.7732(3) 0.1150(2) 0.9747(2)
N2 N 0.7202(4) 0.1673(2) 1.1223(2)
N3 N 0.8141(4) 0.2982(2) 1.5795(2)
N4 N 0.7425(3) 0.4216(2) 1.6339(2)
O1 O 0.6290(2) 0.08837(16) 0.74483(17)
O2 O 0.4911(2) 0.05096(18) 0.86958(18)
O3 O -0.0387(2) 0.07899(19) 0.79683(19)
O4 O -0.0927(2) 0.0081(2) 0.6584(2)
O5 O 0.3292(3) 0.0595(2) 0.43578(19)
H20 H 0.265(5) 0.040(3) 0.404(4)
Co1A Co 0.72952(4) 0.54882(3) 1.65589(3)
Co1_2 Co -0.22952(4) 0.04882(3) 0.84411(3)
N4A N 0.7575(3) -0.0784(2) 0.8661(2)
O3_2 O 0.9613(2) 0.07899(19) 0.79683(19)
loop_
_geom_bond_atom_site_label_1
_geom_bond_atom_site_label_2
_geom_bond_site_symmetry_1
_geom_bond_site_symmetry_2
Co1 N1 1_555 1_555
C1 C2 1_555 1_555
C2 C3 1_555 1_555
C3 H1 1_555 1_555
C4 C3 1_555 1_555
C5 C4 1_555 1_555
H2 C5 1_555 1_555
C6 C5 1_555 1_555
C7 C2 1_555 1_555
H3 C7 1_555 1_555
C8 C6 1_555 1_555
C9 H4 1_555 1_555
C10 H5 1_555 1_555
C11 C10 1_555 1_555
H6 C11 1_555 1_555
C12 H7 1_555 1_555
H8 C12 1_555 1_555
C13 C12 1_555 1_555
H9 C13 1_555 1_555
H10 C13 1_555 1_555
C14 C13 1_555 1_555
H11 C14 1_555 1_555
H12 C14 1_555 1_555
C15 C14 1_555 1_555
H13 C15 1_555 1_555
H14 C15 1_555 1_555
C16 C15 1_555 1_555
H15 C16 1_555 1_555
H16 C16 1_555 1_555
C17 H17 1_555 1_555
C18 H18 1_555 1_555
C19 C18 1_555 1_555
H19 C19 1_555 1_555
N1 C9 1_555 1_555
N2 C9 1_555 1_555
N3 C16 1_555 1_555
N4 C17 1_555 1_555
O1 Co1 1_555 1_555
O2 C8 1_555 1_555
O3 C1 1_555 1_555
O4 C1 1_555 1_555
O5 C4 1_555 1_555
H20 O5 1_555 1_555
Co1A N4 1_555 1_555
Co1_2 O3 1_555 1_555
N4A Co1 1_555 1_555
O3_2 Co1 1_555 1_555
C6 C7 1_555 1_555
C8 O1 1_555 1_555
C10 N1 1_555 1_555
C11 N2 1_555 1_555
C12 N2 1_555 1_555
C17 N3 1_555 1_555
C18 N4 1_555 1_555
C19 N3 1_555 1_555

#END
