
#######################################################################
#
#                 Cambridge Crystallographic Data Centre
#                                CCDC 
#
#######################################################################
#
# If this CIF has been generated from an entry in the Cambridge 
# Structural Database, then it will include bibliographic, chemical, 
# crystal, experimental, refinement or atomic coordinate data resulting 
# from the CCDC's data processing and validation procedures.
#
#######################################################################

data_QUFWAQ
_symmetry_cell_setting           monoclinic
_symmetry_space_group_name_H-M   'C c'
_symmetry_Int_Tables_number      9
_space_group_name_Hall           'C -2yc'
loop_
_symmetry_equiv_pos_site_id
_symmetry_equiv_pos_as_xyz
1 x,y,z
2 x,-y,1/2+z
3 1/2+x,1/2+y,z
4 1/2+x,1/2-y,1/2+z
_cell_length_a                   15.240(5)
_cell_length_b                   13.155(5)
_cell_length_c                   20.779(8)
_cell_angle_alpha                90
_cell_angle_beta                 102.406(7)
_cell_angle_gamma                90
_cell_volume                     4068.55
loop_
_atom_site_label
_atom_site_type_symbol
_atom_site_fract_x
_atom_site_fract_y
_atom_site_fract_z
Co1 Co 0.39451(7) 0.19153(10) 0.57139(7)
Co2 Co 0.70718(8) 0.07466(9) 0.30037(7)
C1 C 0.7870(7) 0.5458(8) 0.6060(6)
C2 C 0.7609(6) 0.4457(7) 0.6305(5)
C3 C 0.8188(7) 0.3880(10) 0.6766(7)
H1 H 0.8770 0.4108 0.6933
C4 C 0.7904(8) 0.2958(9) 0.6982(8)
H2 H 0.8296 0.2569 0.7290
C5 C 0.7027(7) 0.2623(8) 0.6733(6)
H3 H 0.6818 0.2035 0.6899
C6 C 0.6470(5) 0.3171(7) 0.6238(5)
C7 C 0.6762(6) 0.4086(6) 0.6023(5)
H4 H 0.6389 0.4450 0.5689
C8 C 0.5538(6) 0.2790(6) 0.5934(6)
C9 C 0.4313(9) 0.1553(11) 0.4333(7)
H5 H 0.4852 0.1910 0.4423
C10 C 0.3976(9) 0.1097(11) 0.3754(7)
H6 H 0.4237 0.1044 0.3390
C11 C 0.3062(8) 0.0947(10) 0.4421(6)
H7 H 0.2557 0.0785 0.4585
C12 C 0.2517(8) 0.0175(10) 0.3340(7)
H8 H 0.2510 0.0453 0.2906
H9 H 0.1921 0.0258 0.3428
C13 C 0.2743(9) -0.0937(10) 0.3346(8)
H10 H 0.2239 -0.1316 0.3092
H11 H 0.2869 -0.1192 0.3794
C14 C 0.3556(9) -0.1068(13) 0.3049(9)
H12 H 0.3416 -0.0811 0.2601
H13 H 0.4043 -0.0661 0.3297
C15 C 0.3862(11) -0.2133(13) 0.3039(9)
H14 H 0.3349 -0.2569 0.2877
H15 H 0.4135 -0.2346 0.3484
C16 C 0.4533(9) -0.2253(11) 0.2608(8)
H16 H 0.4648 -0.2970 0.2555
H17 H 0.4284 -0.1973 0.2175
C17 C 0.5629(8) -0.0885(10) 0.2708(7)
H18 H 0.5284 -0.0510 0.2365
C18 C 0.6020(12) -0.2044(14) 0.3393(11)
H19 H 0.6007 -0.2631 0.3640
C19 C 0.6704(11) -0.1348(10) 0.3484(8)
H20 H 0.7251 -0.1388 0.3784
C20 C 0.8650(6) -0.0200(6) 0.2870(5)
C21 C 0.9305(6) -0.0587(7) 0.2500(5)
C22 C 0.9457(7) -0.0094(8) 0.1944(6)
H21 H 0.9124 0.0481 0.1789
C23 C 1.0102(8) -0.0449(8) 0.1615(6)
H22 H 1.0218 -0.0093 0.1256
C24 C 1.0577(6) -0.1351(8) 0.1829(6)
H23 H 1.1005 -0.1592 0.1608
C25 C 1.0407(6) -0.1882(7) 0.2368(5)
C26 C 0.9785(5) -0.1469(6) 0.2706(5)
H24 H 0.9691 -0.1798 0.3082
C27 C 1.0849(6) -0.2871(7) 0.2584(5)
C28 C -0.1743(7) 0.1417(8) 0.4294(5)
H25 H -0.1244 0.1087 0.4204
C29 C -0.3108(8) 0.1987(10) 0.4224(7)
H26 H -0.3717 0.2123 0.4072
C30 C -0.2570(9) 0.2353(10) 0.4789(7)
H27 H -0.2750 0.2769 0.5098
C31 C -0.0926(9) 0.2258(11) 0.5321(7)
H28 H -0.0446 0.1786 0.5293
H29 H -0.1058 0.2196 0.5756
C32 C -0.0623(8) 0.3351(9) 0.5217(8)
H30 H -0.0535 0.3434 0.4772
H31 H -0.1075 0.3833 0.5287
C33 C 0.0244(8) 0.3533(9) 0.5705(6)
H32 H 0.0694 0.3059 0.5622
H33 H 0.0155 0.3409 0.6147
C34 C 0.0580(10) 0.4611(10) 0.5662(8)
H34 H 0.0632 0.4747 0.5213
H35 H 0.0144 0.5083 0.5770
C35 C 0.1465(8) 0.4789(9) 0.6113(8)
H36 H 0.1576 0.5514 0.6160
H37 H 0.1455 0.4515 0.6545
C36 C 0.2555(9) 0.4646(10) 0.5359(8)
H38 H 0.2403 0.5247 0.5126
C37 C 0.3162(10) 0.3968(9) 0.5257(9)
H39 H 0.3500 0.4008 0.4935
C38 C 0.2594(7) 0.3395(8) 0.6071(6)
H40 H 0.2456 0.2994 0.6405
N1 N 0.3780(6) 0.1434(7) 0.4767(5)
N2 N 0.3153(7) 0.0726(8) 0.3823(6)
N3 N 0.5377(8) -0.1737(7) 0.2892(6)
N4 N 0.6414(6) -0.0575(7) 0.3038(5)
N5 N -0.2570(6) 0.1370(7) 0.3918(5)
N6 N -0.1733(7) 0.2003(7) 0.4816(5)
N7 N 0.2202(7) 0.4302(6) 0.5860(5)
N8 N 0.3203(5) 0.3180(6) 0.5722(5)
O1 O 0.8703(6) 0.5726(6) 0.6244(5)
O2 O 0.7326(6) 0.5984(6) 0.5685(5)
O3 O 0.5102(6) 0.3223(7) 0.5442(5)
O4 O 0.5227(5) 0.2057(5) 0.6205(4)
O5 O 0.8096(5) 0.0468(5) 0.2583(4)
O6 O 0.8663(6) -0.0519(7) 0.3447(4)
O7 O 1.0537(6) -0.3423(6) 0.2945(5)
O8 O 1.1580(5) -0.3080(5) 0.2399(4)
Co1B Co 0.89451(7) 0.69153(10) 0.57139(7)
Co2_2 Co -0.29282(8) 0.07466(9) 0.30037(7)
Co2B Co 1.20718(8) -0.42534(9) 0.30037(7)
N5_2 N 0.7430(6) 0.1370(7) 0.3918(5)
O1B O 0.3703(6) 0.0726(6) 0.6244(5)
O8B O 0.6580(5) 0.1920(5) 0.2399(4)
O9 O 0.5347(12) 0.4237(12) 0.4310(7)
H41 H 0.490(12) 0.461(17) 0.441(11)
H42 H 0.567(13) 0.399(19) 0.469(6)
O10 O 0.5818(12) -0.3751(11) 0.4590(9)
H43 H 0.627(9) -0.332(13) 0.461(16)
H44 H 0.531(8) -0.340(14) 0.451(16)
loop_
_geom_bond_atom_site_label_1
_geom_bond_atom_site_label_2
_geom_bond_site_symmetry_1
_geom_bond_site_symmetry_2
Co1 N1 1_555 1_555
Co2 N4 1_555 1_555
C1 C2 1_555 1_555
C2 C3 1_555 1_555
C3 H1 1_555 1_555
C4 C3 1_555 1_555
H2 C4 1_555 1_555
C5 C4 1_555 1_555
H3 C5 1_555 1_555
C6 C5 1_555 1_555
C7 C2 1_555 1_555
H4 C7 1_555 1_555
C8 C6 1_555 1_555
C9 H5 1_555 1_555
C10 C9 1_555 1_555
H6 C10 1_555 1_555
C11 H7 1_555 1_555
C12 H8 1_555 1_555
H9 C12 1_555 1_555
C13 C12 1_555 1_555
H10 C13 1_555 1_555
H11 C13 1_555 1_555
C14 C13 1_555 1_555
H12 C14 1_555 1_555
H13 C14 1_555 1_555
C15 C14 1_555 1_555
H14 C15 1_555 1_555
H15 C15 1_555 1_555
C16 C15 1_555 1_555
H16 C16 1_555 1_555
H17 C16 1_555 1_555
C17 H18 1_555 1_555
C18 H19 1_555 1_555
C19 C18 1_555 1_555
H20 C19 1_555 1_555
C20 C21 1_555 1_555
C21 C22 1_555 1_555
C22 H21 1_555 1_555
C23 C22 1_555 1_555
H22 C23 1_555 1_555
C24 C23 1_555 1_555
H23 C24 1_555 1_555
C25 C24 1_555 1_555
C26 C21 1_555 1_555
H24 C26 1_555 1_555
C27 C25 1_555 1_555
C28 H25 1_555 1_555
C29 H26 1_555 1_555
C30 C29 1_555 1_555
H27 C30 1_555 1_555
C31 H28 1_555 1_555
H29 C31 1_555 1_555
C32 C31 1_555 1_555
H30 C32 1_555 1_555
H31 C32 1_555 1_555
C33 C32 1_555 1_555
H32 C33 1_555 1_555
H33 C33 1_555 1_555
C34 C33 1_555 1_555
H34 C34 1_555 1_555
H35 C34 1_555 1_555
C35 C34 1_555 1_555
H36 C35 1_555 1_555
H37 C35 1_555 1_555
C36 H38 1_555 1_555
C37 C36 1_555 1_555
H39 C37 1_555 1_555
C38 H40 1_555 1_555
N1 C9 1_555 1_555
N2 C10 1_555 1_555
N3 C16 1_555 1_555
N4 C17 1_555 1_555
N5 C28 1_555 1_555
N6 C28 1_555 1_555
N7 C35 1_555 1_555
N8 Co1 1_555 1_555
O1 C1 1_555 1_555
O2 C1 1_555 1_555
O3 C8 1_555 1_555
O4 Co1 1_555 1_555
O5 Co2 1_555 1_555
O6 C20 1_555 1_555
O7 C27 1_555 1_555
O8 C27 1_555 1_555
O9 H41 1_555 1_555
H42 O9 1_555 1_555
O10 H43 1_555 1_555
H44 O10 1_555 1_555
Co1B O1 1_555 1_555
Co2_2 N5 1_555 1_555
Co2B O8 1_555 1_555
N5_2 Co2 1_555 1_555
O1B Co1 1_555 1_555
O8B Co2 1_555 1_555
C6 C7 1_555 1_555
C8 O4 1_555 1_555
C11 N1 1_555 1_555
C11 N2 1_555 1_555
C12 N2 1_555 1_555
C17 N3 1_555 1_555
C18 N3 1_555 1_555
C19 N4 1_555 1_555
C20 O5 1_555 1_555
C25 C26 1_555 1_555
C29 N5 1_555 1_555
C30 N6 1_555 1_555
C31 N6 1_555 1_555
C36 N7 1_555 1_555
C37 N8 1_555 1_555
C38 N7 1_555 1_555
C38 N8 1_555 1_555

#END
