
#######################################################################
#
#                 Cambridge Crystallographic Data Centre
#                                CCDC 
#
#######################################################################
#
# If this CIF has been generated from an entry in the Cambridge 
# Structural Database, then it will include bibliographic, chemical, 
# crystal, experimental, refinement or atomic coordinate data resulting 
# from the CCDC's data processing and validation procedures.
#
#######################################################################

data_QUFXAR
_symmetry_cell_setting           monoclinic
_symmetry_space_group_name_H-M   'P 21/n'
_symmetry_Int_Tables_number      14
_space_group_name_Hall           '-P 2yn'
loop_
_symmetry_equiv_pos_site_id
_symmetry_equiv_pos_as_xyz
1 x,y,z
2 1/2-x,1/2+y,1/2-z
3 -x,-y,-z
4 1/2+x,1/2-y,1/2+z
_cell_length_a                   11.142(3)
_cell_length_b                   24.401(5)
_cell_length_c                   14.707(4)
_cell_angle_alpha                90
_cell_angle_beta                 96.871(10)
_cell_angle_gamma                90
_cell_volume                     3969.76
loop_
_atom_site_label
_atom_site_type_symbol
_atom_site_fract_x
_atom_site_fract_y
_atom_site_fract_z
Zn1 Zn 0.77408(5) 0.07997(2) 0.63365(3)
Zn2 Zn 0.51273(5) 0.18780(2) 0.94738(3)
C1 C 0.6741(5) 0.1852(2) 0.5484(3)
H1 H 0.7353 0.1880 0.5108
C2 C 0.5620(5) 0.1556(3) 0.6459(4)
H2 H 0.5307 0.1336 0.6890
C3 C 0.5150(6) 0.2038(3) 0.6136(5)
H3 H 0.4467 0.2211 0.6306
C4 C 0.5685(8) 0.2731(3) 0.5018(5)
H4 H 0.6355 0.2975 0.5210
H5 H 0.4953 0.2903 0.5174
C5 C 0.5586(9) 0.2661(3) 0.4005(5)
H6 H 0.5375 0.3010 0.3712
H7 H 0.6364 0.2549 0.3834
C6 C 0.3491(7) 0.2410(3) 0.3477(4)
H8 H 0.3284 0.2690 0.3900
H9 H 0.2992 0.2091 0.3554
C7 C 0.3220(6) 0.2617(3) 0.2522(4)
H10 H 0.2361 0.2691 0.2397
H11 H 0.3645 0.2961 0.2468
C8 C 0.4242(5) 0.2344(2) 0.1173(3)
H12 H 0.4579 0.2686 0.1087
C9 C 0.3756(5) 0.1501(2) 0.1011(4)
H13 H 0.3691 0.1144 0.0788
C10 C 0.3255(5) 0.1690(3) 0.1735(4)
H14 H 0.2783 0.1492 0.2098
C11 C 0.6088(5) -0.0143(2) 0.6657(4)
H15 H 0.5878 0.0005 0.7198
C12 C 0.6902(6) -0.0267(3) 0.5422(4)
H16 H 0.7369 -0.0217 0.4945
C13 C 0.6168(7) -0.0707(3) 0.5522(4)
H17 H 0.6040 -0.1006 0.5132
C14 C 0.4762(6) -0.0974(2) 0.6654(5)
H18 H 0.4939 -0.0999 0.7315
H19 H 0.4803 -0.1340 0.6403
C15 C 0.3524(6) -0.0747(3) 0.6412(5)
H20 H 0.3390 -0.0684 0.5756
H21 H 0.2937 -0.1016 0.6561
C16 C 0.3312(7) -0.0319(3) 0.7821(4)
H22 H 0.4121 -0.0280 0.8141
H23 H 0.3016 -0.0683 0.7944
C17 C 0.2492(6) 0.0109(3) 0.8145(5)
H24 H 0.1727 0.0099 0.7755
H25 H 0.2333 0.0016 0.8761
C18 C 0.3866(5) 0.0872(2) 0.8736(4)
H26 H 0.4326 0.0659 0.9173
C19 C 0.3183(6) 0.1547(3) 0.7919(4)
H27 H 0.3060 0.1897 0.7675
C20 C 0.2556(6) 0.1101(3) 0.7623(4)
H28 H 0.1937 0.1086 0.7139
C21 C 0.8144(5) 0.08394(19) 0.8179(3)
C22 C 0.8858(4) 0.08633(17) 0.9109(3)
C23 C 1.0081(4) 0.0723(2) 0.9195(3)
H29 H 1.0435 0.0638 0.8671
C24 C 1.0772(4) 0.07076(19) 1.0030(3)
H30 H 1.1585 0.0612 1.0073
C25 C 1.0245(4) 0.08360(17) 1.0807(3)
C26 C 0.9035(4) 0.09816(17) 1.0755(3)
H31 H 0.8693 0.1069 1.1283
C27 C 0.8336(4) 0.09950(16) 0.9902(3)
C28 C 0.7045(4) 0.11821(19) 0.9868(3)
C29 C 1.0546(4) 0.08891(19) 1.2446(3)
C30 C 1.0389(4) 0.04340(18) 1.2964(3)
H32 H 1.0543 0.0086 1.2749
C31 C 0.9996(5) 0.05050(18) 1.3814(3)
H33 H 0.9882 0.0199 1.4171
C32 C 0.9769(4) 0.10220(17) 1.4144(3)
C33 C 0.9929(4) 0.14796(16) 1.3599(3)
C34 C 1.0315(4) 0.14114(18) 1.2745(3)
H34 H 1.0418 0.1714 1.2377
C35 C 0.9386(4) 0.10800(18) 1.5084(3)
C36 C 0.9584(4) 0.20447(17) 1.3880(3)
N1 N 0.6631(4) 0.14446(18) 0.6049(3)
N2 N 0.5867(4) 0.22229(19) 0.5515(3)
N3 N 0.3570(4) 0.22313(18) 0.1837(3)
N4 N 0.4377(4) 0.19161(15) 0.0652(3)
N5 N 0.6840(4) 0.00863(18) 0.6137(3)
N6 N 0.5672(4) -0.06203(18) 0.6290(3)
N7 N 0.2983(4) 0.06790(19) 0.8150(3)
N8 N 0.4026(4) 0.14121(16) 0.8629(3)
O1 O 0.4707(5) 0.22671(18) 0.3692(3)
O2 O 0.3334(4) -0.02491(17) 0.6874(3)
O3 O 0.8756(3) 0.08797(14) 0.75018(19)
O4 O 0.7033(4) 0.07675(19) 0.8098(2)
O5 O 0.6832(3) 0.16626(13) 0.9574(2)
O6 O 0.6286(3) 0.08806(15) 1.0150(3)
O7 O 1.1013(3) 0.08165(14) 1.16115(19)
O8 O 0.8692(3) 0.07072(14) 1.5315(2)
O9 O 0.9766(4) 0.14633(16) 1.5578(2)
O10 O 0.8527(3) 0.21544(14) 1.3947(3)
O11 O 1.0445(3) 0.23888(13) 1.3995(2)
Zn1_2 Zn 0.77408(5) 0.07997(2) 1.63365(3)
Zn2_2 Zn 0.51273(5) 0.18780(2) -0.05262(3)
Zn2C Zn 1.01273(5) 0.31220(2) 1.44738(3)
N4_2 N 0.4377(4) 0.19161(15) 1.0652(3)
O8_2 O 0.8692(3) 0.07072(14) 0.5315(2)
O11C O 0.5445(3) 0.26112(13) 0.8995(2)
O12 O 0.6309(5) -0.0146(2) 0.9311(5)
H35 H 0.5511(15) -0.015(4) 0.917(7)
H36 H 0.660(7) 0.014(3) 0.902(6)
O13 O 1.2057(8) 0.2100(5) 1.5685(6)
H37 H 1.175(15) 0.217(6) 1.510(4)
H38 H 1.227(18) 0.175(2) 1.571(10)
O14 O 1.2452(13) 0.3091(5) 1.6994(9)
loop_
_geom_bond_atom_site_label_1
_geom_bond_atom_site_label_2
_geom_bond_site_symmetry_1
_geom_bond_site_symmetry_2
Zn1 N1 1_555 1_555
Zn2 N8 1_555 1_555
C1 H1 1_555 1_555
C2 H2 1_555 1_555
C3 C2 1_555 1_555
H3 C3 1_555 1_555
C4 H4 1_555 1_555
H5 C4 1_555 1_555
C5 C4 1_555 1_555
H6 C5 1_555 1_555
H7 C5 1_555 1_555
C6 H8 1_555 1_555
H9 C6 1_555 1_555
C7 C6 1_555 1_555
H10 C7 1_555 1_555
H11 C7 1_555 1_555
C8 H12 1_555 1_555
C9 H13 1_555 1_555
C10 C9 1_555 1_555
H14 C10 1_555 1_555
C11 H15 1_555 1_555
C12 H16 1_555 1_555
C13 C12 1_555 1_555
H17 C13 1_555 1_555
C14 H18 1_555 1_555
H19 C14 1_555 1_555
C15 C14 1_555 1_555
H20 C15 1_555 1_555
H21 C15 1_555 1_555
C16 H22 1_555 1_555
H23 C16 1_555 1_555
C17 C16 1_555 1_555
H24 C17 1_555 1_555
H25 C17 1_555 1_555
C18 H26 1_555 1_555
C19 H27 1_555 1_555
C20 C19 1_555 1_555
H28 C20 1_555 1_555
C21 C22 1_555 1_555
C22 C23 1_555 1_555
C23 H29 1_555 1_555
C24 C23 1_555 1_555
H30 C24 1_555 1_555
C25 C24 1_555 1_555
C26 C25 1_555 1_555
H31 C26 1_555 1_555
C27 C22 1_555 1_555
C28 C27 1_555 1_555
C29 C30 1_555 1_555
C30 H32 1_555 1_555
C31 C30 1_555 1_555
H33 C31 1_555 1_555
C32 C31 1_555 1_555
C33 C32 1_555 1_555
C34 C29 1_555 1_555
H34 C34 1_555 1_555
C35 C32 1_555 1_555
C36 C33 1_555 1_555
N1 C1 1_555 1_555
N2 C1 1_555 1_555
N3 C7 1_555 1_555
N4 C8 1_555 1_555
N5 Zn1 1_555 1_555
N6 C11 1_555 1_555
N7 C17 1_555 1_555
N8 C18 1_555 1_555
O1 C5 1_555 1_555
O2 C15 1_555 1_555
O3 Zn1 1_555 1_555
O4 C21 1_555 1_555
O5 Zn2 1_555 1_555
O6 C28 1_555 1_555
O7 C25 1_555 1_555
O8 C35 1_555 1_555
O9 C35 1_555 1_555
O10 C36 1_555 1_555
O11 C36 1_555 1_555
O12 H35 1_555 1_555
H36 O12 1_555 1_555
O13 H37 1_555 1_555
H38 O13 1_555 1_555
Zn1_2 O8 1_555 1_555
Zn2_2 N4 1_555 1_555
Zn2C O11 1_555 1_555
N4_2 Zn2 1_555 1_555
O8_2 Zn1 1_555 1_555
O11C Zn2 1_555 1_555
C2 N1 1_555 1_555
C3 N2 1_555 1_555
C4 N2 1_555 1_555
C6 O1 1_555 1_555
C8 N3 1_555 1_555
C9 N4 1_555 1_555
C10 N3 1_555 1_555
C11 N5 1_555 1_555
C12 N5 1_555 1_555
C13 N6 1_555 1_555
C14 N6 1_555 1_555
C16 O2 1_555 1_555
C18 N7 1_555 1_555
C19 N8 1_555 1_555
C20 N7 1_555 1_555
C21 O3 1_555 1_555
C26 C27 1_555 1_555
C28 O5 1_555 1_555
C29 O7 1_555 1_555
C33 C34 1_555 1_555

#END
