
#######################################################################
#
#                 Cambridge Crystallographic Data Centre
#                                CCDC 
#
#######################################################################
#
# If this CIF has been generated from an entry in the Cambridge 
# Structural Database, then it will include bibliographic, chemical, 
# crystal, experimental, refinement or atomic coordinate data resulting 
# from the CCDC's data processing and validation procedures.
#
#######################################################################

data_QUFXOF
_symmetry_cell_setting           monoclinic
_symmetry_space_group_name_H-M   'C 2/c'
_symmetry_Int_Tables_number      15
_space_group_name_Hall           '-C 2yn'
loop_
_symmetry_equiv_pos_site_id
_symmetry_equiv_pos_as_xyz
1 x,y,z
2 -x,y,1/2-z
3 1/2+x,1/2+y,z
4 1/2-x,1/2+y,1/2-z
5 -x,-y,-z
6 x,-y,1/2+z
7 1/2-x,1/2-y,-z
8 1/2+x,1/2-y,1/2+z
_cell_length_a                   23.590(11)
_cell_length_b                   11.164(4)
_cell_length_c                   16.943(7)
_cell_angle_alpha                90
_cell_angle_beta                 132.018(14)
_cell_angle_gamma                90
_cell_volume                     3315.04
loop_
_atom_site_label
_atom_site_type_symbol
_atom_site_fract_x
_atom_site_fract_y
_atom_site_fract_z
Cd1 Cd 0.32291(3) 0.04753(4) 0.54474(4)
C1 C 0.4171(4) 0.2457(6) 0.6611(5)
C2 C 0.4604(4) 0.3647(6) 0.7075(5)
C3 C 0.4208(4) 0.4747(6) 0.6643(6)
C4 C 0.3368(5) 0.4804(8) 0.5716(7)
C5 C 0.4609(4) 0.5819(7) 0.7085(6)
H1 H 0.4347 0.6543 0.6819
C6 C 0.3455(5) -0.1652(7) 0.6916(6)
H2 H 0.2996 -0.2003 0.6339
C7 C 0.4422(5) -0.0489(7) 0.7866(7)
H3 H 0.4757 0.0137 0.8069
C8 C 0.4537(5) -0.1339(8) 0.8520(7)
H4 H 0.4959 -0.1418 0.9242
C9 C 0.3752(6) -0.3169(8) 0.8228(7)
H5 H 0.3817 -0.3866 0.7952
H6 H 0.3228 -0.3158 0.7923
C10 C 0.4281(6) -0.3263(9) 0.9417(7)
H7 H 0.4274 -0.2520 0.9708
H8 H 0.4116 -0.3904 0.9609
C11 C 0.5566(6) -0.3580(8) 1.0956(7)
H9 H 0.5515 -0.4345 1.1176
H10 H 0.5482 -0.2948 1.1262
C12 C 0.6355(6) -0.3467(8) 1.1339(7)
H11 H 0.6732 -0.3667 1.2088
H12 H 0.6408 -0.4034 1.0957
C13 C 0.6495(5) -0.1892(8) 1.0420(7)
H13 H 0.6432 -0.2394 0.9929
C14 C 0.6662(7) -0.0323(8) 1.1300(9)
H14 H 0.6747 0.0467 1.1529
C15 C 0.6593(6) -0.1254(8) 1.1741(8)
H15 H 0.6603 -0.1229 1.2299
N1 N 0.3746(4) -0.0675(6) 0.6861(6)
N2 N 0.3908(4) -0.2065(6) 0.7909(5)
N3 N 0.6590(5) -0.0707(6) 1.0468(6)
N4 N 0.6503(4) -0.2255(6) 1.1181(6)
O1 O 0.4340(3) 0.1761(5) 0.6221(4)
O2 O 0.3662(3) 0.2268(5) 0.6631(5)
O3 O 0.3042(4) 0.4105(6) 0.4966(5)
O4 O 0.3003(4) 0.5571(8) 0.5737(8)
O5 O 0.5023(4) -0.3494(5) 0.9836(4)
O6 O 0.2700(3) 0.1914(5) 0.4107(5)
H16 H 0.305(3) 0.246(6) 0.454(6)
H17 H 0.226(2) 0.217(7) 0.388(7)
Cd1A Cd 0.67709(3) 0.04753(4) 0.95526(4)
Cd1F Cd 0.17709(3) 0.45247(4) 0.45526(4)
Cd1G Cd 0.82291(3) 0.45247(4) 1.04474(4)
C1A C 0.5829(4) 0.2457(6) 0.8389(5)
C2A C 0.5396(4) 0.3647(6) 0.7925(5)
C3A C 0.5792(4) 0.4747(6) 0.8357(6)
C4A C 0.6632(5) 0.4804(8) 0.9284(7)
C5A C 0.5391(4) 0.5819(7) 0.7915(6)
H1A H 0.5653 0.6543 0.8181
C6A C 0.6545(5) -0.1652(7) 0.8084(6)
H2A H 0.7004 -0.2003 0.8661
C7A C 0.5578(5) -0.0489(7) 0.7134(7)
H3A H 0.5243 0.0137 0.6931
C8A C 0.5463(5) -0.1339(8) 0.6480(7)
H4A H 0.5041 -0.1418 0.5758
C9A C 0.6248(6) -0.3169(8) 0.6772(7)
H5A H 0.6183 -0.3866 0.7048
H6A H 0.6772 -0.3158 0.7077
C10A C 0.5719(6) -0.3263(9) 0.5583(7)
H7A H 0.5726 -0.2520 0.5292
H8A H 0.5884 -0.3904 0.5391
C11A C 0.4434(6) -0.3580(8) 0.4044(7)
H9A H 0.4485 -0.4345 0.3824
H10A H 0.4518 -0.2948 0.3738
C12A C 0.3645(6) -0.3467(8) 0.3661(7)
H11A H 0.3268 -0.3667 0.2912
H12A H 0.3592 -0.4034 0.4043
C13A C 0.3505(5) -0.1892(8) 0.4580(7)
H13A H 0.3568 -0.2394 0.5071
C14A C 0.3338(7) -0.0323(8) 0.3700(9)
H14A H 0.3253 0.0467 0.3471
C15A C 0.3407(6) -0.1254(8) 0.3259(8)
H15A H 0.3397 -0.1229 0.2701
N1A N 0.6254(4) -0.0675(6) 0.8139(6)
N2A N 0.6092(4) -0.2065(6) 0.7091(5)
N3A N 0.3410(5) -0.0707(6) 0.4532(6)
N4A N 0.3497(4) -0.2255(6) 0.3819(6)
O1A O 0.5660(3) 0.1761(5) 0.8779(4)
O2A O 0.6338(3) 0.2268(5) 0.8369(5)
O3A O 0.6958(4) 0.4105(6) 1.0034(5)
O3F O 0.1958(4) 0.0895(6) 0.5034(5)
O3G O 0.8042(4) 0.0895(6) 0.9966(5)
O4A O 0.6997(4) 0.5571(8) 0.9263(8)
O4F O 0.1997(4) -0.0571(8) 0.4263(8)
O4G O 0.8003(4) -0.0571(8) 1.0737(8)
O5A O 0.4977(4) -0.3494(5) 0.5164(4)
O6A O 0.7300(3) 0.1914(5) 1.0893(5)
H16A H 0.695(3) 0.246(6) 1.046(6)
H17A H 0.774(2) 0.217(7) 1.112(7)
loop_
_geom_bond_atom_site_label_1
_geom_bond_atom_site_label_2
_geom_bond_site_symmetry_1
_geom_bond_site_symmetry_2
Cd1 N1 1_555 1_555
C1 C2 1_555 1_555
C2 C3 1_555 1_555
C3 C4 1_555 1_555
C4 O3 1_555 1_555
C5 C3 1_555 1_555
H1 C5 1_555 1_555
C6 H2 1_555 1_555
C7 H3 1_555 1_555
C8 C7 1_555 1_555
H4 C8 1_555 1_555
C9 H5 1_555 1_555
H6 C9 1_555 1_555
C10 C9 1_555 1_555
H7 C10 1_555 1_555
H8 C10 1_555 1_555
C11 H9 1_555 1_555
H10 C11 1_555 1_555
C12 C11 1_555 1_555
H11 C12 1_555 1_555
H12 C12 1_555 1_555
C13 H13 1_555 1_555
C14 H14 1_555 1_555
C15 C14 1_555 1_555
H15 C15 1_555 1_555
N1 C6 1_555 1_555
N2 C6 1_555 1_555
N3 C13 1_555 1_555
N4 C12 1_555 1_555
O1 Cd1 1_555 1_555
O2 Cd1 1_555 1_555
O3 Cd1F 1_555 1_555
O4 C4 1_555 1_555
O5 C10 1_555 1_555
O6 Cd1 1_555 1_555
H16 O6 1_555 1_555
H17 O6 1_555 1_555
Cd1A N3 1_555 1_555
Cd1F O4 1_555 1_555
Cd1G O3A 1_555 1_555
C1A C2A 1_555 1_555
C2A C2 1_555 1_555
C3A C2A 1_555 1_555
C4A C3A 1_555 1_555
C5A C5 1_555 1_555
H1A C5A 1_555 1_555
C6A H2A 1_555 1_555
C7A H3A 1_555 1_555
C8A C7A 1_555 1_555
H4A C8A 1_555 1_555
C9A H5A 1_555 1_555
H6A C9A 1_555 1_555
C10A C9A 1_555 1_555
H7A C10A 1_555 1_555
H8A C10A 1_555 1_555
C11A H9A 1_555 1_555
H10A C11A 1_555 1_555
C12A C11A 1_555 1_555
H11A C12A 1_555 1_555
H12A C12A 1_555 1_555
C13A H13A 1_555 1_555
C14A H14A 1_555 1_555
C15A C14A 1_555 1_555
H15A C15A 1_555 1_555
N1A Cd1A 1_555 1_555
N2A C6A 1_555 1_555
N3A Cd1 1_555 1_555
N4A C12A 1_555 1_555
O1A Cd1A 1_555 1_555
O2A Cd1A 1_555 1_555
O3A C4A 1_555 1_555
O3F Cd1 1_555 1_555
O3G Cd1A 1_555 1_555
O4A Cd1G 1_555 1_555
O4F Cd1 1_555 1_555
O4G Cd1A 1_555 1_555
O5A C10A 1_555 1_555
O6A Cd1A 1_555 1_555
H16A O6A 1_555 1_555
H17A O6A 1_555 1_555
C1 O1 1_555 1_555
C1 O2 1_555 1_555
C7 N1 1_555 1_555
C8 N2 1_555 1_555
C9 N2 1_555 1_555
C11 O5 1_555 1_555
C13 N4 1_555 1_555
C14 N3 1_555 1_555
C15 N4 1_555 1_555
C1A O1A 1_555 1_555
C1A O2A 1_555 1_555
C3A C5A 1_555 1_555
C4A O4A 1_555 1_555
C6A N1A 1_555 1_555
C7A N1A 1_555 1_555
C8A N2A 1_555 1_555
C9A N2A 1_555 1_555
C11A O5A 1_555 1_555
C13A N3A 1_555 1_555
C13A N4A 1_555 1_555
C14A N3A 1_555 1_555
C15A N4A 1_555 1_555

#END
