
#######################################################################
#
#                 Cambridge Crystallographic Data Centre
#                                CCDC 
#
#######################################################################
#
# If this CIF has been generated from an entry in the Cambridge 
# Structural Database, then it will include bibliographic, chemical, 
# crystal, experimental, refinement or atomic coordinate data resulting 
# from the CCDC's data processing and validation procedures.
#
#######################################################################

data_QUFYOF
_symmetry_cell_setting           monoclinic
_symmetry_space_group_name_H-M   'C 2/c'
_symmetry_Int_Tables_number      15
_space_group_name_Hall           '-C 2yn'
loop_
_symmetry_equiv_pos_site_id
_symmetry_equiv_pos_as_xyz
1 x,y,z
2 1/2+x,1/2+y,z
3 x,-y,1/2+z
4 1/2+x,1/2-y,1/2+z
5 -x,-y,-z
6 1/2-x,1/2-y,-z
7 -x,y,1/2-z
8 1/2-x,1/2+y,1/2-z
_cell_length_a                   28.4028(17)
_cell_length_b                   13.4494(8)
_cell_length_c                   23.8493(14)
_cell_angle_alpha                90
_cell_angle_beta                 124.4110(10)
_cell_angle_gamma                90
_cell_volume                     7516.16
loop_
_atom_site_label
_atom_site_type_symbol
_atom_site_fract_x
_atom_site_fract_y
_atom_site_fract_z
C1 C -0.3607(2) 0.1042(4) -0.2071(3)
Mn1 Mn -0.29620(3) -0.05336(4) -0.22966(3)
N1 N -0.21423(13) -0.3916(2) -0.18701(15)
O1 O -0.35219(15) 0.0679(2) -0.24925(16)
C2 C -0.3240(2) 0.1034(4) -0.1372(3)
H1 H -0.3173 0.1723 -0.1227
N2 N -0.21317(13) -0.2308(2) -0.18428(15)
O2 O -0.24923(13) 0.0135(2) -0.12855(15)
C3 C -0.2720(2) 0.0582(4) -0.1036(2)
N3 N -0.41261(18) -0.3088(3) -0.50582(19)
O3 O -0.22456(12) -0.13965(19) -0.20429(13)
C4 C -0.3684(2) -0.1839(4) -0.1993(3)
O4 O -0.31886(15) -0.1559(3) -0.17887(16)
C5 C -0.4162(2) -0.1865(4) -0.2657(3)
H3 H -0.4458 -0.1483 -0.2670
O5 O -0.37241(13) -0.1197(2) -0.31775(15)
C6 C -0.4137(2) -0.1532(4) -0.3196(3)
O6 O -0.22641(12) -0.48255(18) -0.20874(13)
C7 C -0.4201(3) 0.1492(7) -0.2412(4)
C8 C -0.2369(3) 0.0575(6) -0.0257(3)
C9 C -0.3755(4) -0.2140(8) -0.1434(5)
C10 C -0.4695(3) -0.1593(6) -0.3907(3)
C11 C -0.1750(2) -0.3698(3) -0.1122(2)
C12 C -0.16549(18) -0.2565(3) -0.11376(19)
C13 C -0.23793(16) -0.3099(3) -0.22541(18)
C14 C -0.1220(3) -0.4334(4) -0.0824(3)
H5 H -0.1319 -0.5020 -0.0834
H6 H -0.0944 -0.4136 -0.0362
H7 H -0.1062 -0.4251 -0.1086
C15 C -0.2080(4) -0.3954(5) -0.0817(3)
H8 H -0.2126 -0.4662 -0.0823
H9 H -0.2449 -0.3644 -0.1079
H10 H -0.1875 -0.3719 -0.0357
C16 C -0.1106(2) -0.2315(5) -0.1087(3)
H11 H -0.1069 -0.1607 -0.1095
H12 H -0.1121 -0.2606 -0.1465
H13 H -0.0783 -0.2577 -0.0670
C17 C -0.1695(2) -0.1942(4) -0.0633(2)
H14 H -0.1627 -0.1256 -0.0677
H15 H -0.1414 -0.2165 -0.0179
H16 H -0.2069 -0.2011 -0.0725
C18 C -0.28277(16) -0.3089(3) -0.29742(18)
C19 C -0.32717(17) -0.3778(3) -0.3249(2)
H17 H -0.3278 -0.4248 -0.2968
C20 C -0.37006(19) -0.3770(4) -0.3933(2)
H18 H -0.3996 -0.4230 -0.4104
C21 C -0.37010(19) -0.3083(3) -0.4375(2)
C22 C -0.3251(2) -0.2404(3) -0.4095(2)
H19 H -0.3237 -0.1945 -0.4377
C23 C -0.28262(18) -0.2399(3) -0.3408(2)
H20 H -0.2536 -0.1930 -0.3234
C24 C -0.4629(2) -0.3735(5) -0.5338(3)
H21 H -0.4948 -0.3436 -0.5749
H22 H -0.4730 -0.3783 -0.5012
C25 C -0.4531(4) -0.4755(6) -0.5498(4)
H23 H -0.4868 -0.5148 -0.5673
H24 H -0.4218 -0.5058 -0.5091
H25 H -0.4443 -0.4714 -0.5831
C26 C -0.4108(3) -0.2419(4) -0.5531(2)
H26 H -0.4320 -0.2717 -0.5980
H27 H -0.3715 -0.2345 -0.5387
C27 C -0.4348(3) -0.1421(5) -0.5573(3)
H28 H -0.4314 -0.1010 -0.5878
H29 H -0.4142 -0.1122 -0.5129
H30 H -0.4743 -0.1485 -0.5738
F1 F -0.42972(17) 0.1920(4) -0.1999(2)
F2 F -0.4602(2) 0.0720(5) -0.2720(3)
F3 F -0.4347(2) 0.2070(4) -0.2898(3)
F4 F -0.2500(6) -0.0102(13) -0.0030(4)
F6 F -0.1826(3) 0.0486(11) 0.0016(3)
F8 F -0.2388(8) 0.1390(13) -0.0004(5)
F10 F -0.3690(4) -0.1393(6) -0.1051(3)
F11 F -0.3363(3) -0.2788(7) -0.1026(4)
F12 F -0.4241(2) -0.2539(4) -0.1636(2)
F13 F -0.4906(5) -0.2499(7) -0.4036(5)
F15 F -0.4649(4) -0.1457(16) -0.4390(5)
F17 F -0.5072(5) -0.1047(12) -0.3960(5)
O6G O -0.27359(12) 0.01745(18) -0.29126(13)
Mn1G Mn -0.20380(3) -0.55336(4) -0.27034(3)
O7 O -0.3484(8) 0.4384(12) -0.1952(9)
C28 C -0.4613(7) 0.4751(12) -0.2368(9)
C29 C -0.4112(12) 0.4990(18) -0.2370(12)
H2? H 0.6552 0.0740 0.8798
H4? H 0.5707 -0.2550 0.7245
F5? F 0.7292(9) 0.0714(18) 0.9961(10)
F7? F 0.7833(15) -0.0308(17) 0.9997(11)
F9? F 0.7935(17) 0.134(3) 0.9993(12)
F14? F 0.4880(12) -0.172(5) 0.6062(18)
F16? F 0.538(2) -0.188(5) 0.566(2)
F18? F 0.5198(8) -0.0580(19) 0.5777(14)
loop_
_geom_bond_atom_site_label_1
_geom_bond_atom_site_label_2
_geom_bond_site_symmetry_1
_geom_bond_site_symmetry_2
C1 O1 1_555 1_555
Mn1 O1 1_555 1_555
N1 O6 1_555 1_555
C2 C1 1_555 1_555
H1 C2 1_555 1_555
N2 O3 1_555 1_555
O2 Mn1 1_555 1_555
C3 C2 1_555 1_555
N3 C21 1_555 1_555
O3 Mn1 1_555 1_555
C4 O4 1_555 1_555
O4 Mn1 1_555 1_555
C5 C4 1_555 1_555
H3 C5 1_555 1_555
O5 Mn1 1_555 1_555
C6 C5 1_555 1_555
O6 Mn1G 1_555 1_555
C7 C1 1_555 1_555
C8 C3 1_555 1_555
C9 C4 1_555 1_555
C10 C6 1_555 1_555
C11 N1 1_555 1_555
C12 N2 1_555 1_555
C13 N1 1_555 1_555
C14 C11 1_555 1_555
H5 C14 1_555 1_555
H6 C14 1_555 1_555
H7 C14 1_555 1_555
C15 C11 1_555 1_555
H8 C15 1_555 1_555
H9 C15 1_555 1_555
H10 C15 1_555 1_555
C16 C12 1_555 1_555
H11 C16 1_555 1_555
H12 C16 1_555 1_555
H13 C16 1_555 1_555
C17 C12 1_555 1_555
H14 C17 1_555 1_555
H15 C17 1_555 1_555
H16 C17 1_555 1_555
C18 C13 1_555 1_555
C19 C18 1_555 1_555
H17 C19 1_555 1_555
C20 C19 1_555 1_555
H18 C20 1_555 1_555
C21 C20 1_555 1_555
C22 C21 1_555 1_555
H19 C22 1_555 1_555
C23 C18 1_555 1_555
H20 C23 1_555 1_555
C24 N3 1_555 1_555
H21 C24 1_555 1_555
H22 C24 1_555 1_555
C25 C24 1_555 1_555
H23 C25 1_555 1_555
H24 C25 1_555 1_555
H25 C25 1_555 1_555
C26 N3 1_555 1_555
H26 C26 1_555 1_555
H27 C26 1_555 1_555
C27 C26 1_555 1_555
H28 C27 1_555 1_555
H29 C27 1_555 1_555
H30 C27 1_555 1_555
F1 C7 1_555 1_555
F2 C7 1_555 1_555
F3 C7 1_555 1_555
F4 C8 1_555 1_555
F6 C8 1_555 1_555
F8 C8 1_555 1_555
F10 C9 1_555 1_555
F11 C9 1_555 1_555
F12 C9 1_555 1_555
F13 C10 1_555 1_555
F15 C10 1_555 1_555
F17 C10 1_555 1_555
O7 C29 1_555 1_555
C28 C29 1_555 1_555
O6G Mn1 1_555 1_555
N2 C13 1_555 1_555
O2 C3 1_555 1_555
O5 C6 1_555 1_555
C11 C12 1_555 1_555
C22 C23 1_555 1_555

#END
