
#######################################################################
#
#                 Cambridge Crystallographic Data Centre
#                                CCDC 
#
#######################################################################
#
# If this CIF has been generated from an entry in the Cambridge 
# Structural Database, then it will include bibliographic, chemical, 
# crystal, experimental, refinement or atomic coordinate data resulting 
# from the CCDC's data processing and validation procedures.
#
#######################################################################

data_QUGBAW
_symmetry_cell_setting           monoclinic
_symmetry_space_group_name_H-M   'C 2/m'
_symmetry_Int_Tables_number      12
_space_group_name_Hall           '-C 2y'
loop_
_symmetry_equiv_pos_site_id
_symmetry_equiv_pos_as_xyz
1 x,y,z
2 -x,y,-z
3 1/2+x,1/2+y,z
4 1/2-x,1/2+y,-z
5 -x,-y,-z
6 x,-y,z
7 1/2-x,1/2-y,-z
8 1/2+x,1/2-y,z
_cell_length_a                   12.683(3)
_cell_length_b                   8.1649(17)
_cell_length_c                   4.4392(9)
_cell_angle_alpha                90
_cell_angle_beta                 97.157(4)
_cell_angle_gamma                90
_cell_volume                     456.121
loop_
_atom_site_label
_atom_site_type_symbol
_atom_site_fract_x
_atom_site_fract_y
_atom_site_fract_z
Pb1 Pb 0.5000 1.0000 0.5000
I1 I 0.32016(6) 1.0000 -0.06407(15)
N1 N 0.5000 0.6711(11) 0.5000
C1 C 0.5747(7) 0.5853(10) 0.3809(18)
H1 H 0.6289 0.6421 0.2943
Pb1_2 Pb 0.5000 1.0000 -0.5000
Pb1_3 Pb 0.5000 0.0000 0.5000
Pb1_4 Pb 0.5000 1.0000 1.5000
I1_2 I 0.32016(6) 1.0000 0.93593(15)
I1A I 0.67984(6) 1.0000 0.06407(15)
I1A_2 I 0.67984(6) 1.0000 1.06407(15)
N1D N 0.5000 0.3289(11) 0.5000
N1D_2 N 0.5000 1.3289(11) 0.5000
C1E C 0.5747(7) 0.4147(10) 0.3809(18)
C1D C 0.4253(7) 0.4147(10) 0.6191(18)
C1A C 0.4253(7) 0.5853(10) 0.6191(18)
H1A H 0.3711 0.6421 0.7057
H1D H 0.3711 0.3579 0.7057
H1E H 0.6289 0.3579 0.2943
loop_
_geom_bond_atom_site_label_1
_geom_bond_atom_site_label_2
_geom_bond_site_symmetry_1
_geom_bond_site_symmetry_2
Pb1 I1 1_555 1_555
I1 Pb1_2 1_555 1_555
N1 Pb1 1_555 1_555
C1 N1 1_555 1_555
H1 C1 1_555 1_555
Pb1_2 I1A 1_555 1_555
Pb1_3 N1D 1_555 1_555
Pb1_4 I1_2 1_555 1_555
I1_2 Pb1 1_555 1_555
I1A Pb1 1_555 1_555
I1A_2 Pb1 1_555 1_555
N1D C1E 1_555 1_555
N1D_2 Pb1 1_555 1_555
C1E C1 1_555 1_555
C1D N1D 1_555 1_555
C1A N1 1_555 1_555
H1A C1A 1_555 1_555
H1D C1D 1_555 1_555
H1E C1E 1_555 1_555
Pb1_4 I1A_2 1_555 1_555
C1D C1A 1_555 1_555

#END
