
#######################################################################
#
#                 Cambridge Crystallographic Data Centre
#                                CCDC 
#
#######################################################################
#
# If this CIF has been generated from an entry in the Cambridge 
# Structural Database, then it will include bibliographic, chemical, 
# crystal, experimental, refinement or atomic coordinate data resulting 
# from the CCDC's data processing and validation procedures.
#
#######################################################################

data_QUGBOK
_symmetry_cell_setting           monoclinic
_symmetry_space_group_name_H-M   'C 2/c'
_symmetry_Int_Tables_number      15
_space_group_name_Hall           '-C 2yn'
loop_
_symmetry_equiv_pos_site_id
_symmetry_equiv_pos_as_xyz
1 x,y,z
2 -x,y,1/2-z
3 1/2+x,1/2+y,z
4 1/2-x,1/2+y,1/2-z
5 -x,-y,-z
6 x,-y,1/2+z
7 1/2-x,1/2-y,-z
8 1/2+x,1/2-y,1/2+z
_cell_length_a                   18.735(4)
_cell_length_b                   18.507(4)
_cell_length_c                   11.587(2)
_cell_angle_alpha                90
_cell_angle_beta                 107.19(3)
_cell_angle_gamma                90
_cell_volume                     3838.08
loop_
_atom_site_label
_atom_site_type_symbol
_atom_site_fract_x
_atom_site_fract_y
_atom_site_fract_z
Zn1 Zn 0.70329(3) 0.48362(4) 0.24343(6)
C1 C 0.6061(3) 0.4648(4) 0.3680(5)
C2 C 0.5505(3) 0.4834(3) 0.4361(5)
C3 C 0.5161(3) 0.5504(3) 0.4238(5)
H1 H 0.5283 0.5845 0.3738
C4 C 0.4662(3) 0.5667(3) 0.4866(5)
H2 H 0.4432 0.6117 0.4756
C5 C 0.8531(3) 0.4715(3) 0.3367(6)
C6 C 0.9289(3) 0.4858(3) 0.4234(5)
C7 C 0.9908(3) 0.4540(3) 0.4037(5)
C8 C 1.0615(3) 0.4680(3) 0.4799(5)
H3 H 1.1028 0.4462 0.4662
H4 H 0.9846 0.4224 0.3380
C9 C 0.7153(3) 0.3881(4) 0.0386(6)
C10 C 0.6387(3) 0.3448(4) 0.1201(6)
C11 C 0.6051(4) 0.2324(3) -0.0081(6)
C12 C 0.5505(3) 0.2362(3) -0.1334(5)
C13 C 0.4750(4) 0.2363(4) -0.1515(7)
C14 C 0.4251(4) 0.2356(4) -0.2654(7)
H5 H 0.6460 0.1933 -0.0067
H6 H 0.5829 0.2135 0.0516
H7 H 0.4587 0.2371 -0.0839
C15 C 0.7730(3) 0.5899(4) 0.1027(5)
H8 H 0.7875 0.5550 0.0566
C16 C 0.7242(4) 0.6439(4) 0.2177(6)
H9 H 0.6956 0.6531 0.2693
C17 C 0.8538(3) 0.6914(4) 0.0690(6)
H10 H 0.8394 0.7406 0.0462
H11 H 0.8567 0.6661 -0.0023
C18 C 0.9300(3) 0.6910(3) 0.1627(5)
C19 C 0.9647(3) 0.6268(3) 0.2070(6)
H12 H 0.9409 0.5831 0.1812
C20 C 0.9654(3) 0.7546(3) 0.2061(5)
H13 H 0.9428 0.7984 0.1781
H14 H 0.756(4) 0.415(4) 0.030(6)
H15 H 0.607(3) 0.338(3) 0.168(4)
H16 H 0.379(3) 0.228(3) -0.280(5)
N1 N 0.6833(2) 0.4011(3) 0.1275(4)
N2 N 0.6928(3) 0.3277(3) -0.0210(4)
N3 N 0.6437(3) 0.3010(3) 0.0331(4)
N4 N 0.7267(2) 0.5779(3) 0.1673(4)
N5 N 0.7657(3) 0.6936(3) 0.1903(5)
N6 N 0.7957(3) 0.6577(3) 0.1139(4)
O1 O 0.6266(2) 0.5172(2) 0.3133(3)
O2 O 0.6298(2) 0.4029(2) 0.3698(4)
O3 O 0.79751(19) 0.4837(2) 0.3771(3)
O4 O 0.8479(2) 0.4512(3) 0.2339(4)
Zn1A Zn 0.29671(3) 0.48362(4) -0.74343(6)
Zn1A_2 Zn 1.29671(3) 0.48362(4) 0.25657(6)
Zn1D Zn 0.29671(3) 0.51638(4) 0.75657(6)
Zn1D_2 Zn 1.29671(3) 0.51638(4) 0.75657(6)
C1D C 0.3939(3) 0.5352(4) 0.6320(5)
C2D C 0.4495(3) 0.5166(3) 0.5639(5)
C3D C 0.4839(3) 0.4496(3) 0.5762(5)
H1D H 0.4717 0.4155 0.6262
C4D C 0.5338(3) 0.4333(3) 0.5134(5)
H2D H 0.5568 0.3883 0.5244
C5D C 1.1469(3) 0.5285(3) 0.6633(6)
C6D C 1.0711(3) 0.5142(3) 0.5766(5)
C7D C 1.0092(3) 0.5460(3) 0.5963(5)
C8D C 0.9385(3) 0.5320(3) 0.5201(5)
H3D H 0.8972 0.5538 0.5338
H4D H 1.0154 0.5776 0.6620
C9A C 0.2847(3) 0.3881(4) -0.5386(6)
C10A C 0.3613(3) 0.3448(4) -0.6201(6)
C11A C 0.3949(4) 0.2324(3) -0.4919(6)
C12A C 0.4495(3) 0.2362(3) -0.3666(5)
C13A C 0.5250(4) 0.2363(4) -0.3485(7)
C14A C 0.5749(4) 0.2356(4) -0.2346(7)
H5A H 0.3540 0.1933 -0.4933
H6A H 0.4171 0.2135 -0.5516
H7A H 0.5413 0.2371 -0.4161
C15A C 1.2270(3) 0.5899(4) 0.3973(5)
H8A H 1.2125 0.5550 0.4434
C16A C 1.2758(4) 0.6439(4) 0.2823(6)
H9A H 1.3044 0.6531 0.2307
C17A C 1.1462(3) 0.6914(4) 0.4310(6)
H10A H 1.1606 0.7406 0.4538
H11A H 1.1433 0.6661 0.5023
C18A C 1.0700(3) 0.6910(3) 0.3373(5)
C19A C 1.0353(3) 0.6268(3) 0.2930(6)
H12A H 1.0591 0.5831 0.3188
C20A C 1.0346(3) 0.7546(3) 0.2939(5)
H13A H 1.0572 0.7984 0.3219
H14A H 0.244(4) 0.415(4) -0.530(6)
H15A H 0.393(3) 0.338(3) -0.668(4)
H16A H 0.621(3) 0.228(3) -0.220(5)
N1A N 0.3167(2) 0.4011(3) -0.6275(4)
N2A N 0.3072(3) 0.3277(3) -0.4790(4)
N3A N 0.3563(3) 0.3010(3) -0.5331(4)
N4A N 1.2733(2) 0.5779(3) 0.3327(4)
N4A_2 N 0.2733(2) 0.5779(3) -0.6673(4)
N5A N 1.2343(3) 0.6936(3) 0.3097(5)
N6A N 1.2043(3) 0.6577(3) 0.3861(4)
O1D O 0.3734(2) 0.4828(2) 0.6867(3)
O1A O 0.3734(2) 0.5172(2) -0.8133(3)
O2D O 0.3702(2) 0.5971(2) 0.6302(4)
O3D O 1.20249(19) 0.5163(2) 0.6229(3)
O3A O 0.20249(19) 0.4837(2) -0.8771(3)
O4D O 1.1521(2) 0.5488(3) 0.7661(4)
loop_
_geom_bond_atom_site_label_1
_geom_bond_atom_site_label_2
_geom_bond_site_symmetry_1
_geom_bond_site_symmetry_2
Zn1 N1 1_555 1_555
C1 C2 1_555 1_555
C2 C3 1_555 1_555
C3 H1 1_555 1_555
C4 C3 1_555 1_555
H2 C4 1_555 1_555
C5 C6 1_555 1_555
C6 C7 1_555 1_555
C7 C8 1_555 1_555
C8 H3 1_555 1_555
H4 C7 1_555 1_555
C9 H14 1_555 1_555
C10 H15 1_555 1_555
C11 C12 1_555 1_555
C12 C13 1_555 1_555
C13 C14 1_555 1_555
C14 H16 1_555 1_555
H5 C11 1_555 1_555
H6 C11 1_555 1_555
H7 C13 1_555 1_555
C15 H8 1_555 1_555
C16 H9 1_555 1_555
C17 H10 1_555 1_555
H11 C17 1_555 1_555
C18 C17 1_555 1_555
C19 C18 1_555 1_555
H12 C19 1_555 1_555
C20 C18 1_555 1_555
H13 C20 1_555 1_555
N1 C9 1_555 1_555
N2 C9 1_555 1_555
N3 C10 1_555 1_555
N4 Zn1 1_555 1_555
N5 C16 1_555 1_555
N6 C15 1_555 1_555
O1 Zn1 1_555 1_555
O2 C1 1_555 1_555
O3 Zn1 1_555 1_555
O4 C5 1_555 1_555
Zn1A N1A 1_555 1_555
Zn1A_2 N4A 1_555 1_555
Zn1D O1D 1_555 1_555
Zn1D_2 O3D 1_555 1_555
C1D C2D 1_555 1_555
C2D C4 1_555 1_555
C3D C2D 1_555 1_555
H1D C3D 1_555 1_555
C4D C2 1_555 1_555
H2D C4D 1_555 1_555
C5D C6D 1_555 1_555
C6D C8 1_555 1_555
C7D C6D 1_555 1_555
C8D C6 1_555 1_555
H3D C8D 1_555 1_555
H4D C7D 1_555 1_555
C9A H14A 1_555 1_555
C10A H15A 1_555 1_555
C11A C12A 1_555 1_555
C12A C14 1_555 1_555
C13A C12A 1_555 1_555
C14A C12 1_555 1_555
H5A C11A 1_555 1_555
H6A C11A 1_555 1_555
H7A C13A 1_555 1_555
C15A H8A 1_555 1_555
C16A H9A 1_555 1_555
C17A H10A 1_555 1_555
H11A C17A 1_555 1_555
C18A C17A 1_555 1_555
C19A C19 1_555 1_555
H12A C19A 1_555 1_555
C20A C20 1_555 1_555
H13A C20A 1_555 1_555
H16A C14A 1_555 1_555
N1A C9A 1_555 1_555
N2A C9A 1_555 1_555
N3A C10A 1_555 1_555
N4A C15A 1_555 1_555
N4A_2 Zn1A 1_555 1_555
N5A C16A 1_555 1_555
N6A C15A 1_555 1_555
O1D C1D 1_555 1_555
O1A Zn1A 1_555 1_555
O2D C1D 1_555 1_555
O3D C5D 1_555 1_555
O3A Zn1A 1_555 1_555
O4D C5D 1_555 1_555
C1 O1 1_555 1_555
C5 O3 1_555 1_555
C10 N1 1_555 1_555
C11 N3 1_555 1_555
C15 N4 1_555 1_555
C16 N4 1_555 1_555
C17 N6 1_555 1_555
N2 N3 1_555 1_555
N5 N6 1_555 1_555
C3D C4D 1_555 1_555
C7D C8D 1_555 1_555
C10A N1A 1_555 1_555
C11A N3A 1_555 1_555
C13A C14A 1_555 1_555
C16A N4A 1_555 1_555
C17A N6A 1_555 1_555
C18A C19A 1_555 1_555
C18A C20A 1_555 1_555
N2A N3A 1_555 1_555
N5A N6A 1_555 1_555

#END
