
#######################################################################
#
#                 Cambridge Crystallographic Data Centre
#                                CCDC 
#
#######################################################################
#
# If this CIF has been generated from an entry in the Cambridge 
# Structural Database, then it will include bibliographic, chemical, 
# crystal, experimental, refinement or atomic coordinate data resulting 
# from the CCDC's data processing and validation procedures.
#
#######################################################################

data_QUGBIE
_symmetry_cell_setting           monoclinic
_symmetry_space_group_name_H-M   'P 21/c'
_symmetry_Int_Tables_number      14
_space_group_name_Hall           '-P 2ybc'
loop_
_symmetry_equiv_pos_site_id
_symmetry_equiv_pos_as_xyz
1 x,y,z
2 -x,1/2+y,1/2-z
3 -x,-y,-z
4 x,1/2-y,1/2+z
_cell_length_a                   14.840(3)
_cell_length_b                   10.125(2)
_cell_length_c                   20.333(4)
_cell_angle_alpha                90
_cell_angle_beta                 99.35(3)
_cell_angle_gamma                90
_cell_volume                     3014.55
loop_
_atom_site_label
_atom_site_type_symbol
_atom_site_fract_x
_atom_site_fract_y
_atom_site_fract_z
C1 C 0.6042(4) 0.5591(6) 0.1485(3)
H1 H 0.6384 0.6260 0.1332
C2 C 0.5142(3) 0.4010(5) 0.1485(3)
H2 H 0.4722 0.3338 0.1358
C3 C 0.5217(4) 0.3821(6) 0.2733(3)
H3 H 0.5763 0.3712 0.3063
H4 H 0.4934 0.2960 0.2651
C4 C 0.4563(3) 0.4737(5) 0.3007(2)
C5 C 0.3922(4) 0.5465(7) 0.2594(3)
H5 H 0.3888 0.5399 0.2135
C6 C 0.3330(4) 0.6289(7) 0.2853(3)
H6 H 0.2906 0.6781 0.2565
C7 C 0.3356(3) 0.6397(5) 0.3526(3)
C8 C 0.4007(4) 0.5703(6) 0.3939(3)
H7 H 0.4046 0.5784 0.4398
C9 C 0.4605(4) 0.4886(6) 0.3684(3)
H8 H 0.5045 0.4426 0.3973
C10 C 0.2736(3) 0.7363(6) 0.3796(3)
H9 H 0.2996 0.7586 0.4251
H10 H 0.2701 0.8168 0.3534
C11 C 0.1051(3) 0.7165(4) 0.3377(2)
H11 H 0.1010 0.7779 0.3033
C12 C 0.0764(4) 0.5714(5) 0.4060(3)
H12 H 0.0444 0.5108 0.4277
C13 C -0.1783(8) 0.7827(7) 0.1816(4)
H13 H -0.1989 0.8549 0.2033
C14 C -0.1200(3) 0.6040(5) 0.1659(2)
H14 H -0.0933 0.5209 0.1718
C15 C -0.1670(4) 0.5941(6) 0.0406(3)
H15 H -0.1937 0.6597 0.0084
H16 H -0.2096 0.5211 0.0388
C16 C -0.0794(3) 0.5447(5) 0.0208(2)
C17 C -0.0614(3) 0.4106(5) 0.0189(2)
H17 H -0.1026 0.3501 0.0314
C18 C -0.0173(3) 0.6330(5) 0.0014(2)
H18 H -0.0291 0.7232 0.0022
C19 C 0.3579(3) 0.6635(4) 0.0533(2)
C20 C 0.2776(3) 0.6634(4) 0.08990(19)
C21 C 0.2421(3) 0.7824(4) 0.1084(2)
H19 H 0.2667 0.8618 0.0966
C22 C 0.1702(3) 0.7833(4) 0.1442(2)
C23 C 0.1360(3) 0.9109(4) 0.1694(2)
C24 C 0.1324(3) 0.6642(4) 0.16034(19)
H20 H 0.0834 0.6647 0.1836
C25 C 0.1669(3) 0.5451(3) 0.14214(18)
C26 C 0.1247(3) 0.4189(4) 0.16107(19)
C27 C 0.2402(3) 0.5453(4) 0.10760(18)
H21 H 0.2645 0.4655 0.0961
N1 N 0.5486(3) 0.4779(4) 0.1067(2)
N2 N 0.6058(3) 0.5355(5) 0.2127(2)
N3 N 0.5474(3) 0.4320(4) 0.2114(2)
N4 N 0.0358(3) 0.6475(3) 0.3538(2)
N5 N 0.1640(3) 0.5916(5) 0.4225(3)
N6 N 0.1811(3) 0.6839(4) 0.3783(2)
N7 N -0.1269(3) 0.6852(3) 0.2150(2)
N8 N -0.1548(3) 0.6528(4) 0.1076(2)
N9 N -0.1968(7) 0.7676(6) 0.1172(3)
O1 O 0.0542(2) 0.4221(3) 0.18558(17)
O2 O 0.1651(2) 0.3102(3) 0.15116(16)
O3 O 0.3756(2) 0.5565(3) 0.02647(17)
O4 O 0.4000(2) 0.7693(3) 0.0514(2)
O5 O 0.0932(3) 0.9084(3) 0.2162(2)
O6 O 0.1543(2) 1.0167(3) 0.14130(18)
O7 O 0.5486(3) 0.6960(4) 0.0069(2)
H22 H 0.6014 0.6970 0.0266
Zn1 Zn -0.09711(3) 0.66275(4) 0.31472(2)
Zn2 Zn 0.5000 0.5000 0.0000
H23 H 0.508(4) 0.745(7) 0.015(3)
C1B C 0.3958(4) 0.4409(6) -0.1485(3)
H1B H 0.3616 0.3740 -0.1332
C2B C 0.4858(3) 0.5990(5) -0.1485(3)
H2B H 0.5278 0.6662 -0.1358
C3B C 0.4783(4) 0.6179(6) -0.2733(3)
H3B H 0.4237 0.6288 -0.3063
H4B H 0.5066 0.7040 -0.2651
C4B C 0.5437(3) 0.5263(5) -0.3007(2)
C5B C 0.6078(4) 0.4535(7) -0.2594(3)
H5B H 0.6112 0.4601 -0.2135
C6B C 0.6670(4) 0.3711(7) -0.2853(3)
H6B H 0.7094 0.3219 -0.2565
C7B C 0.6644(3) 0.3603(5) -0.3526(3)
C8B C 0.5993(4) 0.4297(6) -0.3939(3)
H7B H 0.5954 0.4216 -0.4398
C9B C 0.5395(4) 0.5114(6) -0.3684(3)
H8B H 0.4955 0.5574 -0.3973
C10B C 0.7264(3) 0.2637(6) -0.3796(3)
H9B H 0.7004 0.2414 -0.4251
H10B H 0.7299 0.1832 -0.3534
C11B C 0.8949(3) 0.2835(4) -0.3377(2)
H11B H 0.8990 0.2221 -0.3033
C12B C 0.9236(4) 0.4286(5) -0.4060(3)
H12B H 0.9556 0.4892 -0.4277
C13B C 0.1783(8) 0.2173(7) -0.1816(4)
H13B H 0.1989 0.1451 -0.2033
C14B C 0.1200(3) 0.3960(5) -0.1659(2)
H14B H 0.0933 0.4791 -0.1718
C15B C 0.1670(4) 0.4059(6) -0.0406(3)
H15B H 0.1937 0.3403 -0.0084
H16B H 0.2096 0.4789 -0.0388
C16B C 0.0794(3) 0.4553(5) -0.0208(2)
C17B C 0.0614(3) 0.5894(5) -0.0189(2)
H17B H 0.1026 0.6499 -0.0314
C18B C 0.0173(3) 0.3670(5) -0.0014(2)
H18B H 0.0291 0.2768 -0.0022
C19B C 0.6421(3) 0.3365(4) -0.0533(2)
C20B C 0.7224(3) 0.3366(4) -0.08990(19)
C21B C 0.7579(3) 0.2176(4) -0.1084(2)
H19B H 0.7333 0.1382 -0.0966
C22B C 0.8298(3) 0.2167(4) -0.1442(2)
C23B C 0.8640(3) 0.0891(4) -0.1694(2)
C24B C 0.8676(3) 0.3358(4) -0.16034(19)
H20B H 0.9166 0.3353 -0.1836
C25B C 0.8331(3) 0.4549(3) -0.14214(18)
C26B C 0.8753(3) 0.5811(4) -0.16107(19)
C27B C 0.7598(3) 0.4547(4) -0.10760(18)
H21B H 0.7355 0.5345 -0.0961
N1B N 0.4514(3) 0.5221(4) -0.1067(2)
N2B N 0.3942(3) 0.4645(5) -0.2127(2)
N3B N 0.4526(3) 0.5680(4) -0.2114(2)
N4B N 0.9642(3) 0.3525(3) -0.3538(2)
N5B N 0.8360(3) 0.4084(5) -0.4225(3)
N6B N 0.8189(3) 0.3161(4) -0.3783(2)
N7B N 0.1269(3) 0.3148(3) -0.2150(2)
N7B_2 N 1.1269(3) 0.3148(3) -0.2150(2)
N8B N 0.1548(3) 0.3472(4) -0.1076(2)
N9B N 0.1968(7) 0.2324(6) -0.1172(3)
O1B O 0.9458(2) 0.5779(3) -0.18558(17)
O2B O 0.8349(2) 0.6898(3) -0.15116(16)
O2A O -0.1651(2) 0.8102(3) 0.34884(16)
O2C O 1.1651(2) 0.1898(3) -0.34884(16)
O3B O 0.6244(2) 0.4435(3) -0.02647(17)
O4B O 0.6000(2) 0.2307(3) -0.0514(2)
O5B O 0.9068(3) 0.0916(3) -0.2162(2)
O6B O 0.8457(2) -0.0167(3) -0.14130(18)
O6A O -0.1543(2) 0.5167(3) 0.35870(18)
O6C O 1.1543(2) 0.4833(3) -0.35870(18)
O7B O 0.4514(3) 0.3040(4) -0.0069(2)
H22B H 0.3986 0.3030 -0.0266
Zn1B Zn 1.09711(3) 0.33725(4) -0.31472(2)
Zn1A Zn 0.09711(3) 0.16275(4) 0.18528(2)
Zn1A_2 Zn 0.09711(3) 1.16275(4) 0.18528(2)
Zn1B_2 Zn 0.09711(3) 0.33725(4) -0.31472(2)
Zn1C Zn 0.90289(3) 0.83725(4) -0.18528(2)
Zn1C_2 Zn 0.90289(3) -0.16275(4) -0.18528(2)
H23B H 0.492(4) 0.255(7) -0.015(3)
O8 O 0.6803(6) 0.8646(8) 0.9741(4)
H24 H 0.660(6) 0.832(9) 0.938(2)
O9 O 0.3438(3) 0.2091(6) 0.1663(3)
H25 H 0.291(3) 0.231(12) 0.163(6)
H26 H 0.345(6) 0.153(7) 0.197(3)
loop_
_geom_bond_atom_site_label_1
_geom_bond_atom_site_label_2
_geom_bond_site_symmetry_1
_geom_bond_site_symmetry_2
C1 H1 1_555 1_555
C2 H2 1_555 1_555
C3 H3 1_555 1_555
H4 C3 1_555 1_555
C4 C3 1_555 1_555
C5 C4 1_555 1_555
H5 C5 1_555 1_555
C6 C5 1_555 1_555
H6 C6 1_555 1_555
C7 C6 1_555 1_555
C8 C7 1_555 1_555
H7 C8 1_555 1_555
C9 C4 1_555 1_555
H8 C9 1_555 1_555
C10 C7 1_555 1_555
H9 C10 1_555 1_555
H10 C10 1_555 1_555
C11 H11 1_555 1_555
C12 H12 1_555 1_555
C13 H13 1_555 1_555
C14 H14 1_555 1_555
C15 H15 1_555 1_555
H16 C15 1_555 1_555
C16 C15 1_555 1_555
C17 C16 1_555 1_555
H17 C17 1_555 1_555
C18 C16 1_555 1_555
H18 C18 1_555 1_555
C19 C20 1_555 1_555
C20 C21 1_555 1_555
C21 H19 1_555 1_555
C22 C21 1_555 1_555
C23 C22 1_555 1_555
C24 C22 1_555 1_555
H20 C24 1_555 1_555
C25 C24 1_555 1_555
C26 C25 1_555 1_555
C27 C20 1_555 1_555
H21 C27 1_555 1_555
N1 C1 1_555 1_555
N2 C1 1_555 1_555
N3 C2 1_555 1_555
N4 C11 1_555 1_555
N5 C12 1_555 1_555
N6 C10 1_555 1_555
N7 C13 1_555 1_555
N8 C14 1_555 1_555
N9 C13 1_555 1_555
O1 C26 1_555 1_555
O2 C26 1_555 1_555
O3 C19 1_555 1_555
O4 C19 1_555 1_555
O5 C23 1_555 1_555
O6 C23 1_555 1_555
O7 H22 1_555 1_555
O8 H24 1_555 1_555
O9 H25 1_555 1_555
Zn1 N4 1_555 1_555
Zn2 N1 1_555 1_555
H23 O7 1_555 1_555
H26 O9 1_555 1_555
C1B H1B 1_555 1_555
C2B H2B 1_555 1_555
C3B H3B 1_555 1_555
H4B C3B 1_555 1_555
C4B C3B 1_555 1_555
C5B C4B 1_555 1_555
H5B C5B 1_555 1_555
C6B C5B 1_555 1_555
H6B C6B 1_555 1_555
C7B C6B 1_555 1_555
C8B C7B 1_555 1_555
H7B C8B 1_555 1_555
C9B C4B 1_555 1_555
H8B C9B 1_555 1_555
C10B C7B 1_555 1_555
H9B C10B 1_555 1_555
H10B C10B 1_555 1_555
C11B H11B 1_555 1_555
C12B H12B 1_555 1_555
C13B H13B 1_555 1_555
C14B H14B 1_555 1_555
C15B H15B 1_555 1_555
H16B C15B 1_555 1_555
C16B C15B 1_555 1_555
C17B C18 1_555 1_555
H17B C17B 1_555 1_555
C18B C17 1_555 1_555
H18B C18B 1_555 1_555
C19B C20B 1_555 1_555
C20B C21B 1_555 1_555
C21B H19B 1_555 1_555
C22B C21B 1_555 1_555
C23B C22B 1_555 1_555
C24B C22B 1_555 1_555
H20B C24B 1_555 1_555
C25B C24B 1_555 1_555
C26B C25B 1_555 1_555
C27B C20B 1_555 1_555
H21B C27B 1_555 1_555
N1B Zn2 1_555 1_555
N2B C1B 1_555 1_555
N3B C2B 1_555 1_555
N4B C11B 1_555 1_555
N5B C12B 1_555 1_555
N6B C10B 1_555 1_555
N7B C13B 1_555 1_555
N7B_2 Zn1B 1_555 1_555
N8B C14B 1_555 1_555
N9B C13B 1_555 1_555
O1B C26B 1_555 1_555
O2B C26B 1_555 1_555
O2A Zn1 1_555 1_555
O2C Zn1B 1_555 1_555
O3B Zn2 1_555 1_555
O4B C19B 1_555 1_555
O5B C23B 1_555 1_555
O6B C23B 1_555 1_555
O6A Zn1 1_555 1_555
O6C Zn1B 1_555 1_555
O7B Zn2 1_555 1_555
H22B O7B 1_555 1_555
Zn1B N4B 1_555 1_555
Zn1A O2 1_555 1_555
Zn1A_2 O6 1_555 1_555
Zn1B_2 N7B 1_555 1_555
Zn1C O2B 1_555 1_555
Zn1C_2 O6B 1_555 1_555
H23B O7B 1_555 1_555
C2 N1 1_555 1_555
C3 N3 1_555 1_555
C8 C9 1_555 1_555
C11 N6 1_555 1_555
C12 N4 1_555 1_555
C14 N7 1_555 1_555
C15 N8 1_555 1_555
C25 C27 1_555 1_555
N2 N3 1_555 1_555
N5 N6 1_555 1_555
N7 Zn1 1_555 1_555
N8 N9 1_555 1_555
O3 Zn2 1_555 1_555
O7 Zn2 1_555 1_555
C1B N1B 1_555 1_555
C2B N1B 1_555 1_555
C3B N3B 1_555 1_555
C8B C9B 1_555 1_555
C11B N6B 1_555 1_555
C12B N4B 1_555 1_555
C14B N7B 1_555 1_555
C15B N8B 1_555 1_555
C16B C17B 1_555 1_555
C16B C18B 1_555 1_555
C19B O3B 1_555 1_555
C25B C27B 1_555 1_555
N2B N3B 1_555 1_555
N5B N6B 1_555 1_555
N8B N9B 1_555 1_555

#END
