
#######################################################################
#
#                 Cambridge Crystallographic Data Centre
#                                CCDC 
#
#######################################################################
#
# If this CIF has been generated from an entry in the Cambridge 
# Structural Database, then it will include bibliographic, chemical, 
# crystal, experimental, refinement or atomic coordinate data resulting 
# from the CCDC's data processing and validation procedures.
#
#######################################################################

data_QUGCEB
_symmetry_cell_setting           monoclinic
_symmetry_space_group_name_H-M   'P 2/c'
_symmetry_Int_Tables_number      13
_space_group_name_Hall           '-P 2yc'
loop_
_symmetry_equiv_pos_site_id
_symmetry_equiv_pos_as_xyz
1 x,y,z
2 -x,y,1/2-z
3 -x,-y,-z
4 x,-y,1/2+z
_cell_length_a                   10.331(2)
_cell_length_b                   9.827(2)
_cell_length_c                   13.867(3)
_cell_angle_alpha                90
_cell_angle_beta                 90.69(3)
_cell_angle_gamma                90
_cell_volume                     1407.71
loop_
_atom_site_label
_atom_site_type_symbol
_atom_site_fract_x
_atom_site_fract_y
_atom_site_fract_z
C1 C 0.4674(3) 1.4394(3) 1.0853(3)
H1 H 0.4451 1.3987 1.1434
C2 C 0.1597(2) 0.7600(2) 0.69989(14)
C3 C 0.1028(2) 0.7637(2) 1.04646(14)
Cd1 Cd 0.052560(14) 0.966907(14) 0.868667(10)
C4 C 0.1591(2) 0.5413(2) 0.96475(16)
H2 H 0.1608 0.4973 1.0241
N1 N 0.13335(16) 0.74556(17) 0.87408(11)
N2 N 0.2513(2) 1.0639(2) 0.88981(14)
C5 C 0.1819(3) 0.4709(2) 0.88016(18)
H3 H 0.1959 0.3775 0.8820
C6 C 0.1840(2) 0.5391(2) 0.79287(17)
H4 H 0.2009 0.4931 0.7358
C7 C 0.1602(2) 0.6779(2) 0.79296(14)
C8 C 0.1337(2) 0.6787(2) 0.95816(14)
O1 O 0.13117(14) 0.88631(15) 0.70781(10)
O2 O 0.05412(16) 0.88023(15) 1.03074(10)
O3 O 0.0000 1.1363(2) 0.7500
O4 O 0.12810(19) 0.71435(18) 1.12658(11)
O5 O 0.1848(2) 0.70063(18) 0.62480(11)
C9 C 0.3044(2) 1.1120(2) 0.96993(18)
H5 H 0.2610 1.1248 1.0276
N3 N 0.4279(2) 1.1392(2) 0.95639(18)
N4 N 0.4599(3) 1.1104(3) 0.8642(2)
C10 C 0.5106(3) 1.3600(3) 1.0103(2)
C11 C 0.3511(3) 1.0653(3) 0.8275(2)
C12 C 0.4570(3) 1.5788(3) 1.0751(3)
H6 H 0.4278 1.6314 1.1262
C13 C 0.5196(3) 1.2079(3) 1.0207(3)
H7 H 0.6068 1.1786 1.0060
H8 H 0.5019 1.1828 1.0869
H9 H 0.342(4) 1.042(3) 0.763(3)
C1B C 0.5326(3) 1.5606(3) 0.9147(3)
H1B H 0.5549 1.6013 0.8566
C2A C -0.1597(2) 0.7600(2) 0.80011(14)
C3A C -0.1028(2) 0.7637(2) 0.45354(14)
Cd1A Cd -0.052560(14) 0.966907(14) 0.631333(10)
Cd1B Cd -0.052560(14) 1.033093(14) 1.131333(10)
Cd1B_2 Cd 0.947440(14) 2.033093(14) 1.131333(10)
Cd1C Cd 0.052560(14) 1.033093(14) 0.368667(10)
C4A C -0.1591(2) 0.5413(2) 0.53525(16)
H2A H -0.1608 0.4973 0.4759
N1A N -0.13335(16) 0.74556(17) 0.62592(11)
N2B N 0.7487(2) 1.9361(2) 1.11019(14)
N2A N -0.2513(2) 1.0639(2) 0.61019(14)
C5A C -0.1819(3) 0.4709(2) 0.61984(18)
H3A H -0.1959 0.3775 0.6180
C6A C -0.1840(2) 0.5391(2) 0.70713(17)
H4A H -0.2009 0.4931 0.7642
C7A C -0.1602(2) 0.6779(2) 0.70704(14)
C8A C -0.1337(2) 0.6787(2) 0.54184(14)
O1A O -0.13117(14) 0.88631(15) 0.79219(10)
O2A O -0.05412(16) 0.88023(15) 0.46926(10)
O2B O -0.05412(16) 1.11977(15) 0.96926(10)
O2C O 0.05412(16) 1.11977(15) 0.53074(10)
O4A O -0.12810(19) 0.71435(18) 0.37342(11)
O5A O -0.1848(2) 0.70063(18) 0.87520(11)
C9B C 0.6956(2) 1.8880(2) 1.03007(18)
H5B H 0.7390 1.8752 0.9724
N3B N 0.5721(2) 1.8608(2) 1.04361(18)
N4B N 0.5401(3) 1.8896(3) 1.1358(2)
C10B C 0.4894(3) 1.6400(3) 0.9897(2)
C11B C 0.6489(3) 1.9347(3) 1.1725(2)
C12B C 0.5430(3) 1.4212(3) 0.9249(3)
H6B H 0.5722 1.3686 0.8738
C13B C 0.4804(3) 1.7921(3) 0.9793(3)
H7B H 0.3932 1.8214 0.9940
H8B H 0.4981 1.8172 0.9131
H9B H 0.658(4) 1.958(3) 1.237(3)
loop_
_geom_bond_atom_site_label_1
_geom_bond_atom_site_label_2
_geom_bond_site_symmetry_1
_geom_bond_site_symmetry_2
C1 H1 1_555 1_555
C2 C7 1_555 1_555
C3 C8 1_555 1_555
Cd1 N1 1_555 1_555
C4 H2 1_555 1_555
N1 C7 1_555 1_555
N2 Cd1 1_555 1_555
C5 C4 1_555 1_555
H3 C5 1_555 1_555
C6 C5 1_555 1_555
H4 C6 1_555 1_555
C7 C6 1_555 1_555
C8 C4 1_555 1_555
O1 C2 1_555 1_555
O2 C3 1_555 1_555
O3 Cd1 1_555 1_555
O4 C3 1_555 1_555
O5 C2 1_555 1_555
C9 N2 1_555 1_555
H5 C9 1_555 1_555
N3 C9 1_555 1_555
N4 N3 1_555 1_555
C10 C1 1_555 1_555
C11 N2 1_555 1_555
C12 C1 1_555 1_555
H6 C12 1_555 1_555
C13 N3 1_555 1_555
H7 C13 1_555 1_555
H8 C13 1_555 1_555
H9 C11 1_555 1_555
C1B H1B 1_555 1_555
C2A C7A 1_555 1_555
C3A C8A 1_555 1_555
Cd1A O1 1_555 1_555
Cd1B O2 1_555 1_555
Cd1B_2 N2B 1_555 1_555
Cd1C O2A 1_555 1_555
C4A H2A 1_555 1_555
N1A Cd1A 1_555 1_555
N2B C9B 1_555 1_555
N2A Cd1A 1_555 1_555
C5A C4A 1_555 1_555
H3A C5A 1_555 1_555
C6A C5A 1_555 1_555
H4A C6A 1_555 1_555
C7A N1A 1_555 1_555
C8A C4A 1_555 1_555
O1A Cd1 1_555 1_555
O2A C3A 1_555 1_555
O2B Cd1 1_555 1_555
O2C Cd1A 1_555 1_555
O4A C3A 1_555 1_555
O5A C2A 1_555 1_555
C9B H5B 1_555 1_555
N3B C9B 1_555 1_555
N4B N3B 1_555 1_555
C10B C12 1_555 1_555
C11B N2B 1_555 1_555
C12B C10 1_555 1_555
H6B C12B 1_555 1_555
C13B N3B 1_555 1_555
H7B C13B 1_555 1_555
H8B C13B 1_555 1_555
H9B C11B 1_555 1_555
Cd1 O1 1_555 1_555
Cd1 O2 1_555 1_555
N1 C8 1_555 1_555
O3 Cd1A 1_555 1_555
N4 C11 1_555 1_555
C10 C13 1_555 1_555
C1B C10B 1_555 1_555
C1B C12B 1_555 1_555
C2A O1A 1_555 1_555
Cd1A O1A 1_555 1_555
Cd1A O2A 1_555 1_555
Cd1B O2B 1_555 1_555
Cd1C O2C 1_555 1_555
N1A C8A 1_555 1_555
C6A C7A 1_555 1_555
N4B C11B 1_555 1_555
C10B C13B 1_555 1_555

#END
