
#######################################################################
#
#                 Cambridge Crystallographic Data Centre
#                                CCDC 
#
#######################################################################
#
# If this CIF has been generated from an entry in the Cambridge 
# Structural Database, then it will include bibliographic, chemical, 
# crystal, experimental, refinement or atomic coordinate data resulting 
# from the CCDC's data processing and validation procedures.
#
#######################################################################

data_QUGHEF
_symmetry_cell_setting           orthorhombic
_symmetry_space_group_name_H-M   'P n a b'
_symmetry_Int_Tables_number      60
_space_group_name_Hall           '-P 2bc 2n'
loop_
_symmetry_equiv_pos_site_id
_symmetry_equiv_pos_as_xyz
1 x,y,z
2 1/2-x,1/2+y,1/2+z
3 1/2+x,-y,z
4 x,1/2+y,1/2-z
5 -x,-y,-z
6 1/2+x,1/2-y,1/2-z
7 1/2-x,y,-z
8 -x,1/2-y,1/2+z
_cell_length_a                   8.886(1)
_cell_length_b                   10.850(1)
_cell_length_c                   15.170(2)
_cell_angle_alpha                90
_cell_angle_beta                 90
_cell_angle_gamma                90
_cell_volume                     1462.59
loop_
_atom_site_label
_atom_site_type_symbol
_atom_site_fract_x
_atom_site_fract_y
_atom_site_fract_z
Cu1 Cu 0.2500 0.15310(2) 0.0000
O1 O 0.15301(11) 0.01891(9) -0.07192(6)
O2 O 0.03011(12) 0.12016(10) 0.07384(6)
C1 C 0.03381(14) -0.03023(12) -0.04214(7)
N1 N 0.32494(14) 0.27892(11) 0.08624(7)
C2 C 0.2542(2) 0.2932(2) 0.16276(10)
C3 C 0.3030(2) 0.3749(2) 0.22775(10)
C4 C 0.4321(3) 0.4413(2) 0.21211(12)
C5 C 0.5057(3) 0.4245(2) 0.13251(14)
C6 C 0.4497(3) 0.3429(2) 0.07106(13)
O3 O 0.2191(2) 0.3842(2) 0.30058(10)
H1 H 0.1631(28) 0.2414(22) 0.1715(15)
H2 H 0.4801(31) 0.4970(26) 0.2539(25)
H3 H 0.5953(29) 0.4648(24) 0.1195(20)
H4 H 0.5086(61) 0.3304(30) 0.0178(24)
H5 H 0.2664(26) 0.4280(29) 0.3339(20)
O1F O 0.34699(11) 0.01891(9) 0.07192(6)
O2F O 0.46989(12) 0.12016(10) -0.07384(6)
N1F N 0.17506(14) 0.27892(11) -0.08624(7)
C1D C -0.03381(14) 0.03023(12) 0.04214(7)
O2D O -0.03011(12) -0.12016(10) -0.07384(6)
C2F C 0.2458(2) 0.2932(2) -0.16276(10)
C6F C 0.0503(3) 0.3429(2) -0.07106(13)
O1D O -0.15301(11) -0.01891(9) 0.07192(6)
Cu1B Cu -0.2500 -0.15310(2) 0.0000
C3F C 0.1970(2) 0.3749(2) -0.22775(10)
H1F H 0.3369(28) 0.2414(22) -0.1715(15)
C5F C -0.0057(3) 0.4245(2) -0.13251(14)
H4F H -0.0086(61) 0.3304(30) -0.0178(24)
C4F C 0.0679(3) 0.4413(2) -0.21211(12)
O3F O 0.2809(2) 0.3842(2) -0.30058(10)
H3F H -0.0953(29) 0.4648(24) -0.1195(20)
H2F H 0.0199(31) 0.4970(26) -0.2539(25)
H5F H 0.2336(26) 0.4280(29) -0.3339(20)
loop_
_geom_bond_atom_site_label_1
_geom_bond_atom_site_label_2
_geom_bond_site_symmetry_1
_geom_bond_site_symmetry_2
Cu1 O1 1_555 1_555
O1 C1 1_555 1_555
O2 Cu1 1_555 1_555
C1 C1D 1_555 1_555
N1 Cu1 1_555 1_555
C2 N1 1_555 1_555
C3 C2 1_555 1_555
C4 C3 1_555 1_555
C5 C4 1_555 1_555
C6 N1 1_555 1_555
O3 C3 1_555 1_555
H1 C2 1_555 1_555
H2 C4 1_555 1_555
H3 C5 1_555 1_555
H4 C6 1_555 1_555
H5 O3 1_555 1_555
O1F Cu1 1_555 1_555
O2F Cu1 1_555 1_555
N1F Cu1 1_555 1_555
C1D O2 1_555 1_555
O2D C1 1_555 1_555
C2F N1F 1_555 1_555
C6F N1F 1_555 1_555
O1D C1D 1_555 1_555
Cu1B O2D 1_555 1_555
C3F C2F 1_555 1_555
H1F C2F 1_555 1_555
C5F C6F 1_555 1_555
H4F C6F 1_555 1_555
C4F C3F 1_555 1_555
O3F C3F 1_555 1_555
H3F C5F 1_555 1_555
H2F C4F 1_555 1_555
H5F O3F 1_555 1_555
C5 C6 1_555 1_555
O1D Cu1B 1_555 1_555
C5F C4F 1_555 1_555

#END
