
#######################################################################
#
#                 Cambridge Crystallographic Data Centre
#                                CCDC 
#
#######################################################################
#
# If this CIF has been generated from an entry in the Cambridge 
# Structural Database, then it will include bibliographic, chemical, 
# crystal, experimental, refinement or atomic coordinate data resulting 
# from the CCDC's data processing and validation procedures.
#
#######################################################################

data_QUGHIJ
_symmetry_cell_setting           monoclinic
_symmetry_space_group_name_H-M   'C c'
_symmetry_Int_Tables_number      9
_space_group_name_Hall           'C -2yc'
loop_
_symmetry_equiv_pos_site_id
_symmetry_equiv_pos_as_xyz
1 x,y,z
2 x,-y,1/2+z
3 1/2+x,1/2+y,z
4 1/2+x,1/2-y,1/2+z
_cell_length_a                   18.816(1)
_cell_length_b                   12.218(1)
_cell_length_c                   15.704(1)
_cell_angle_alpha                90
_cell_angle_beta                 118.94(1)
_cell_angle_gamma                90
_cell_volume                     3159.43
loop_
_atom_site_label
_atom_site_type_symbol
_atom_site_fract_x
_atom_site_fract_y
_atom_site_fract_z
Cu1 Cu 0.2188(1) 0.5124(1) 0.2391(1)
Cu2 Cu 0.50000 0.6896(1) 0.50000
O1 O 0.2910(5) 0.5416(7) 0.4108(6)
O2 O 0.3026(4) 0.6258(6) 0.2551(6)
O3 O 0.4128(4) 0.6143(6) 0.5107(5)
O4 O 0.4217(5) 0.6957(6) 0.3584(5)
O5 O 0.1549(5) 0.5636(7) 0.0732(6)
O6 O 0.1422(4) 0.6312(6) 0.2319(6)
O7 O 0.0671(4) 0.6939(7) -0.0147(5)
O8 O 0.0503(5) 0.7552(6) 0.1384(5)
N1 N 0.2998(5) 0.3964(7) 0.2526(7)
N2 N 0.3111(6) 0.4558(9) 0.1190(8)
N3 N 0.1367(5) 0.3973(8) 0.2149(7)
N4 N 0.1313(5) 0.4300(7) 0.3593(7)
N5 N 0.5702(6) 0.5410(8) 0.4975(8)
N6 N 0.6501(6) 0.5375(9) 0.6668(8)
C1 C 0.3535(8) 0.5928(8) 0.4287(10)
C2 C 0.3594(7) 0.6409(9) 0.3400(9)
C3 C 0.1071(7) 0.6445(10) 0.0628(9)
C4 C 0.0993(7) 0.6784(10) 0.1513(10)
C5 C 0.3363(6) 0.3881(9) 0.1956(8)
C6 C 0.3957(7) 0.3068(11) 0.2136(8)
C7 C 0.4180(7) 0.2361(10) 0.2929(12)
C8 C 0.3822(7) 0.2474(10) 0.3506(10)
C9 C 0.3239(7) 0.3217(12) 0.3271(8)
C10 C 0.4837(9) 0.1467(10) 0.3135(11)
C11 C 0.1040(7) 0.3726(10) 0.2751(9)
C12 C 0.0462(6) 0.2876(9) 0.2493(9)
C13 C 0.0212(7) 0.2301(11) 0.1685(11)
C14 C 0.0532(7) 0.2584(10) 0.1055(9)
C15 C 0.1071(7) 0.3413(10) 0.1291(11)
C16 C -0.0420(8) 0.1371(10) 0.1416(10)
C17 C 0.6334(8) 0.4978(12) 0.5790(11)
C18 C 0.6819(8) 0.4128(10) 0.5706(11)
C19 C 0.6621(7) 0.3753(9) 0.4792(11)
C20 C 0.5931(7) 0.4210(10) 0.3986(9)
C21 C 0.5515(6) 0.5022(12) 0.4110(9)
C22 C 0.7092(7) 0.2831(9) 0.4648(10)
H1 H 0.42276 0.30020 0.16744
H2 H 0.40324 0.20009 0.41529
H3 H 0.29280 0.32520 0.36790
H4 H 0.02247 0.27383 0.29887
H5 H 0.03410 0.21070 0.04300
H6 H 0.12780 0.36000 0.07770
H7 H 0.73210 0.38140 0.63590
H8 H 0.57360 0.38240 0.32900
H9 H 0.49960 0.53350 0.34460
H10 H 0.26927 0.51163 0.10702
H11 H 0.33669 0.45045 0.07609
H12 H 0.48975 0.10480 0.37069
H13 H 0.53405 0.18371 0.32649
H14 H 0.46326 0.09854 0.25525
H15 H 0.17450 0.48708 0.37724
H16 H 0.10958 0.41273 0.40428
H17 H -0.05324 0.10647 0.07663
H18 H -0.09345 0.16921 0.13489
H19 H -0.02058 0.08049 0.19165
H20 H 0.61628 0.59652 0.67201
H21 H 0.69681 0.50610 0.72794
H22 H 0.68655 0.26701 0.39577
H23 H 0.70535 0.21682 0.50101
H24 H 0.76749 0.30565 0.49472
O7C O 0.5671(4) 0.8061(7) 0.4853(5)
Cu2C Cu 0.00000 0.8104(1) 0.00000
O8C O 0.5503(5) 0.7448(6) 0.6384(5)
N7 N 0.2706(6) 0.0350(9) 0.3677(8)
N8 N 0.3815(8) -0.0719(10) 0.4278(11)
C23 C 0.3356(9) -0.0030(12) 0.4429(11)
C24 C 0.3613(8) 0.0331(11) 0.5391(11)
C25 C 0.3145(9) 0.1058(11) 0.5509(11)
C26 C 0.2425(9) 0.1449(11) 0.4736(12)
C27 C 0.2233(8) 0.1116(11) 0.3830(11)
C28 C 0.3317(11) 0.1364(15) 0.6562(15)
H25 H 0.41280 -0.00230 0.59720
H26 H 0.20360 0.19780 0.48550
H27 H 0.16950 0.14080 0.32060
H28 H 0.36793 -0.09682 0.35964
H29 H 0.43325 -0.10362 0.48380
H30 H 0.29225 0.19264 0.65282
H31 H 0.38825 0.16492 0.69385
H32 H 0.32614 0.06893 0.68937
loop_
_geom_bond_atom_site_label_1
_geom_bond_atom_site_label_2
_geom_bond_site_symmetry_1
_geom_bond_site_symmetry_2
Cu1 O1 1_555 1_555
Cu2 O3 1_555 1_555
O1 C1 1_555 1_555
O2 Cu1 1_555 1_555
O3 C1 1_555 1_555
O4 Cu2 1_555 1_555
O5 Cu1 1_555 1_555
O6 Cu1 1_555 1_555
O7 C3 1_555 1_555
O8 C4 1_555 1_555
N1 Cu1 1_555 1_555
N2 C5 1_555 1_555
N3 Cu1 1_555 1_555
N4 C11 1_555 1_555
N5 Cu2 1_555 1_555
N6 C17 1_555 1_555
C1 C2 1_555 1_555
C2 O2 1_555 1_555
C3 O5 1_555 1_555
C4 O6 1_555 1_555
C5 N1 1_555 1_555
C6 C5 1_555 1_555
C7 C6 1_555 1_555
C8 C7 1_555 1_555
C9 N1 1_555 1_555
C10 C7 1_555 1_555
C11 N3 1_555 1_555
C12 C11 1_555 1_555
C13 C12 1_555 1_555
C14 C13 1_555 1_555
C15 N3 1_555 1_555
C16 C13 1_555 1_555
C17 N5 1_555 1_555
C18 C17 1_555 1_555
C19 C18 1_555 1_555
C20 C19 1_555 1_555
C21 N5 1_555 1_555
C22 C19 1_555 1_555
N7 C23 1_555 1_555
N8 C23 1_555 1_555
C23 C24 1_555 1_555
C24 C25 1_555 1_555
C25 C26 1_555 1_555
C26 C27 1_555 1_555
C27 N7 1_555 1_555
C28 C25 1_555 1_555
H1 C6 1_555 1_555
H2 C8 1_555 1_555
H3 C9 1_555 1_555
H4 C12 1_555 1_555
H5 C14 1_555 1_555
H6 C15 1_555 1_555
H7 C18 1_555 1_555
H8 C20 1_555 1_555
H9 C21 1_555 1_555
H10 N2 1_555 1_555
H11 N2 1_555 1_555
H12 C10 1_555 1_555
H13 C10 1_555 1_555
H14 C10 1_555 1_555
H15 N4 1_555 1_555
H16 N4 1_555 1_555
H17 C16 1_555 1_555
H18 C16 1_555 1_555
H19 C16 1_555 1_555
H20 N6 1_555 1_555
H21 N6 1_555 1_555
H22 C22 1_555 1_555
H23 C22 1_555 1_555
H24 C22 1_555 1_555
H25 C24 1_555 1_555
H26 C26 1_555 1_555
H27 C27 1_555 1_555
H28 N8 1_555 1_555
H29 N8 1_555 1_555
H30 C28 1_555 1_555
H31 C28 1_555 1_555
H32 C28 1_555 1_555
O7C Cu2 1_555 1_555
Cu2C O7 1_555 1_555
O8C Cu2 1_555 1_555
O4 C2 1_555 1_555
O8 Cu2C 1_555 1_555
C3 C4 1_555 1_555
C8 C9 1_555 1_555
C14 C15 1_555 1_555
C20 C21 1_555 1_555

#END
