
#######################################################################
#
#                 Cambridge Crystallographic Data Centre
#                                CCDC 
#
#######################################################################
#
# If this CIF has been generated from an entry in the Cambridge 
# Structural Database, then it will include bibliographic, chemical, 
# crystal, experimental, refinement or atomic coordinate data resulting 
# from the CCDC's data processing and validation procedures.
#
#######################################################################

data_QUGJOR
_symmetry_cell_setting           triclinic
_symmetry_space_group_name_H-M   'P -1'
_symmetry_Int_Tables_number      2
_space_group_name_Hall           '-P 1'
loop_
_symmetry_equiv_pos_site_id
_symmetry_equiv_pos_as_xyz
1 x,y,z
2 -x,-y,-z
_cell_length_a                   7.8295(6)
_cell_length_b                   11.3147(9)
_cell_length_c                   12.6076(11)
_cell_angle_alpha                82.024(2)
_cell_angle_beta                 75.835(2)
_cell_angle_gamma                73.651(2)
_cell_volume                     1036.21
loop_
_atom_site_label
_atom_site_type_symbol
_atom_site_fract_x
_atom_site_fract_y
_atom_site_fract_z
Mn1 Mn 0.17790(11) 0.29367(7) 0.27273(7)
Mn2 Mn -0.5000 -0.5000 0.5000
N1 N 0.1148(6) 0.4841(4) 0.1678(4)
N2 N 0.3748(6) 0.2690(4) 0.0966(4)
C1 C -0.0128(9) 0.5913(5) 0.2081(5)
H1 H -0.0776 0.5871 0.2803
C2 C -0.0493(9) 0.7085(5) 0.1428(5)
H2 H -0.1294 0.7784 0.1745
C3 C 0.0406(10) 0.7150(6) 0.0277(6)
H3 H 0.0120 0.7870 -0.0171
C4 C 0.1771(9) 0.6058(5) -0.0158(5)
H4 H 0.2422 0.6087 -0.0880
C5 C 0.2104(8) 0.4922(5) 0.0550(4)
C6 C 0.3513(7) 0.3700(5) 0.0145(4)
C7 C 0.4517(10) 0.3593(6) -0.1011(5)
H5 H 0.4340 0.4266 -0.1525
C8 C 0.5775(9) 0.2432(7) -0.1333(6)
H6 H 0.6397 0.2334 -0.2058
C9 C 0.6044(10) 0.1413(6) -0.0489(7)
H7 H 0.6869 0.0663 -0.0674
C10 C 0.5024(9) 0.1567(5) 0.0644(6)
H8 H 0.5219 0.0908 0.1168
O1 O 0.2138(5) 0.0797(3) 0.2956(3)
O2 O -0.0513(6) 0.2128(3) 0.2550(4)
C11 C 0.0454(7) 0.1029(4) 0.2916(4)
C12 C -0.0467(7) -0.0006(4) 0.3344(4)
C13 C -0.2353(7) 0.0220(4) 0.3355(5)
H9 H -0.2991 0.0952 0.3040
C14 C -0.3196(7) -0.0702(4) 0.3858(4)
H10 H -0.4418 -0.0590 0.3855
C15 C -0.2228(6) -0.1861(4) 0.4401(4)
C16 C -0.3280(6) -0.2773(4) 0.5025(4)
O3 O -0.3704(5) -0.2806(3) 0.6154(3)
O4 O -0.3780(5) -0.3386(3) 0.4408(3)
C17 C -0.0305(6) -0.2121(4) 0.4355(4)
C18 C 0.0944(6) -0.3359(4) 0.4868(4)
C19 C 0.0554(7) -0.1190(4) 0.3825(4)
H11 H 0.1797 -0.1321 0.3776
O5 O 0.0300(5) -0.3852(3) 0.5845(3)
O6 O 0.2560(5) -0.3789(3) 0.4303(3)
O7 O -0.6128(6) -0.4168(4) 0.6755(4)
H12 H -0.555(12) -0.384(7) 0.661(7)
H13 H -0.764(12) -0.350(8) 0.687(7)
O1A O -1.2138(5) -1.0797(3) 0.7044(3)
O2A O -0.9487(6) -1.2128(3) 0.7450(4)
C11A C -1.0454(7) -1.1029(4) 0.7084(4)
C12A C -0.9533(7) -0.9994(4) 0.6656(4)
C13A C -0.7647(7) -1.0220(4) 0.6645(5)
H9A H -0.7009 -1.0952 0.6960
C14A C -0.6804(7) -0.9298(4) 0.6142(4)
H10A H -0.5582 -0.9410 0.6145
C15A C -0.7772(6) -0.8139(4) 0.5599(4)
C16A C -0.6720(6) -0.7227(4) 0.4975(4)
O3A O -0.6296(5) -0.7194(3) 0.3846(3)
O4A O -0.6220(5) -0.6614(3) 0.5592(3)
C17A C -0.9695(6) -0.7879(4) 0.5645(4)
C18A C -1.0944(6) -0.6641(4) 0.5132(4)
C19A C -1.0554(7) -0.8810(4) 0.6175(4)
H11A H -1.1797 -0.8679 0.6224
O5A O -1.0300(5) -0.6148(3) 0.4155(3)
O6A O -1.2560(5) -0.6211(3) 0.5697(3)
O7A O -0.3872(6) -0.5832(4) 0.3245(4)
H12A H -0.445(12) -0.616(7) 0.339(7)
H13A H -0.236(12) -0.650(8) 0.313(7)
Mn1A Mn -1.17790(11) -1.29367(7) 0.72727(7)
N1A N -1.1148(6) -1.4841(4) 0.8322(4)
N2A N -1.3748(6) -1.2690(4) 0.9034(4)
C1A C -0.9872(9) -1.5913(5) 0.7919(5)
H1A H -0.9224 -1.5871 0.7197
C2A C -0.9507(9) -1.7085(5) 0.8572(5)
H2A H -0.8706 -1.7784 0.8255
C3A C -1.0406(10) -1.7150(6) 0.9723(6)
H3A H -1.0120 -1.7870 1.0171
C4A C -1.1771(9) -1.6058(5) 1.0158(5)
H4A H -1.2422 -1.6087 1.0880
C5A C -1.2104(8) -1.4922(5) 0.9450(4)
C6A C -1.3513(7) -1.3700(5) 0.9855(4)
C7A C -1.4517(10) -1.3593(6) 1.1011(5)
H5A H -1.4340 -1.4266 1.1525
C8A C -1.5775(9) -1.2432(7) 1.1333(6)
H6A H -1.6397 -1.2334 1.2058
C9A C -1.6044(10) -1.1413(6) 1.0489(7)
H7A H -1.6869 -1.0663 1.0674
C10A C -1.5024(9) -1.1567(5) 0.9356(6)
H8A H -1.5219 -1.0908 0.8832
O3A_2 O 0.3704(5) 0.2806(3) 0.3846(3)
O5A_2 O -0.0300(5) 0.3852(3) 0.4155(3)
O6_2 O -0.7440(5) -0.3789(3) 0.4303(3)
O6A_2 O -0.2560(5) -0.6211(3) 0.5697(3)
Mn1A_2 Mn -0.17790(11) -0.29367(7) 0.72727(7)
Mn2_2 Mn 0.5000 -0.5000 0.5000
Mn1_2 Mn -0.82210(11) -0.70633(7) 0.27273(7)
Mn2_3 Mn -1.5000 -0.5000 0.5000
O3_2 O -1.3704(5) -1.2806(3) 0.6154(3)
O5_2 O -0.9700(5) -1.3852(3) 0.5845(3)
loop_
_geom_bond_atom_site_label_1
_geom_bond_atom_site_label_2
_geom_bond_site_symmetry_1
_geom_bond_site_symmetry_2
Mn1 N1 1_555 1_555
Mn2 O4 1_555 1_555
N1 C1 1_555 1_555
N2 Mn1 1_555 1_555
C1 H1 1_555 1_555
C2 C1 1_555 1_555
H2 C2 1_555 1_555
C3 C2 1_555 1_555
H3 C3 1_555 1_555
C4 C3 1_555 1_555
H4 C4 1_555 1_555
C5 N1 1_555 1_555
C6 N2 1_555 1_555
C7 C6 1_555 1_555
H5 C7 1_555 1_555
C8 C7 1_555 1_555
H6 C8 1_555 1_555
C9 C8 1_555 1_555
H7 C9 1_555 1_555
C10 N2 1_555 1_555
H8 C10 1_555 1_555
O1 Mn1 1_555 1_555
O2 Mn1 1_555 1_555
C11 O1 1_555 1_555
C12 C11 1_555 1_555
C13 C12 1_555 1_555
H9 C13 1_555 1_555
C14 C13 1_555 1_555
H10 C14 1_555 1_555
C15 C14 1_555 1_555
C16 C15 1_555 1_555
O3 C16 1_555 1_555
O4 C16 1_555 1_555
C17 C15 1_555 1_555
C18 C17 1_555 1_555
C19 C12 1_555 1_555
H11 C19 1_555 1_555
O5 C18 1_555 1_555
O6 C18 1_555 1_555
O7 Mn2 1_555 1_555
H12 O7 1_555 1_555
H13 O7 1_555 1_555
O1A C11A 1_555 1_555
O2A C11A 1_555 1_555
C11A C12A 1_555 1_555
C12A C13A 1_555 1_555
C13A H9A 1_555 1_555
C14A C13A 1_555 1_555
H10A C14A 1_555 1_555
C15A C14A 1_555 1_555
C16A C15A 1_555 1_555
O3A C16A 1_555 1_555
O4A Mn2 1_555 1_555
C17A C15A 1_555 1_555
C18A C17A 1_555 1_555
C19A C12A 1_555 1_555
H11A C19A 1_555 1_555
O5A C18A 1_555 1_555
O6A C18A 1_555 1_555
O7A Mn2 1_555 1_555
H12A O7A 1_555 1_555
H13A O7A 1_555 1_555
Mn1A O1A 1_555 1_555
N1A Mn1A 1_555 1_555
N2A Mn1A 1_555 1_555
C1A N1A 1_555 1_555
H1A C1A 1_555 1_555
C2A C1A 1_555 1_555
H2A C2A 1_555 1_555
C3A C2A 1_555 1_555
H3A C3A 1_555 1_555
C4A C3A 1_555 1_555
H4A C4A 1_555 1_555
C5A N1A 1_555 1_555
C6A N2A 1_555 1_555
C7A C6A 1_555 1_555
H5A C7A 1_555 1_555
C8A C7A 1_555 1_555
H6A C8A 1_555 1_555
C9A C8A 1_555 1_555
H7A C9A 1_555 1_555
C10A N2A 1_555 1_555
H8A C10A 1_555 1_555
O3A_2 Mn1 1_555 1_555
O5A_2 Mn1 1_555 1_555
O6_2 Mn2 1_555 1_555
O6A_2 Mn2 1_555 1_555
Mn1A_2 O3 1_555 1_555
Mn2_2 O6 1_555 1_555
Mn1_2 O3A 1_555 1_555
Mn2_3 O6A 1_555 1_555
O3_2 Mn1A 1_555 1_555
O5_2 Mn1A 1_555 1_555
C4 C5 1_555 1_555
C5 C6 1_555 1_555
C9 C10 1_555 1_555
O2 C11 1_555 1_555
C17 C19 1_555 1_555
O5 Mn1A_2 1_555 1_555
O2A Mn1A 1_555 1_555
C16A O4A 1_555 1_555
C17A C19A 1_555 1_555
O5A Mn1_2 1_555 1_555
C4A C5A 1_555 1_555
C5A C6A 1_555 1_555
C9A C10A 1_555 1_555

#END
