
#######################################################################
#
#                 Cambridge Crystallographic Data Centre
#                                CCDC 
#
#######################################################################
#
# If this CIF has been generated from an entry in the Cambridge 
# Structural Database, then it will include bibliographic, chemical, 
# crystal, experimental, refinement or atomic coordinate data resulting 
# from the CCDC's data processing and validation procedures.
#
#######################################################################

data_QUGKAE01
_symmetry_cell_setting           orthorhombic
_symmetry_space_group_name_H-M   'C 2 2 21'
_symmetry_Int_Tables_number      20
_space_group_name_Hall           'C 2n 2'
loop_
_symmetry_equiv_pos_site_id
_symmetry_equiv_pos_as_xyz
1 x,y,z
2 -x,-y,1/2+z
3 -x,y,1/2-z
4 x,-y,-z
5 1/2+x,1/2+y,z
6 1/2-x,1/2-y,1/2+z
7 1/2-x,1/2+y,1/2-z
8 1/2+x,1/2-y,-z
_cell_length_a                   10.976(2)
_cell_length_b                   19.178(4)
_cell_length_c                   12.415(3)
_cell_angle_alpha                90
_cell_angle_beta                 90
_cell_angle_gamma                90
_cell_volume                     2613.33
loop_
_atom_site_label
_atom_site_type_symbol
_atom_site_fract_x
_atom_site_fract_y
_atom_site_fract_z
Co1 Co 0.84054(4) 0.88147(2) 0.19779(4)
O1 O 0.7647(2) 0.90080(14) 0.3420(2)
O2 O 0.8550(2) 1.00202(15) 0.3826(2)
O3 O 0.3227(2) 0.88171(15) 0.3884(3)
O4 O 0.2352(2) 0.98462(16) 0.3766(3)
O5 O 1.0000 0.93686(19) 0.2500
N1 N 0.8446(3) 0.77414(16) 0.2318(2)
N2 N 0.9340(3) 0.84150(16) 0.0632(2)
C1 C 0.7983(4) 0.7444(2) 0.3208(3)
H1 H 0.7718 0.7729 0.3767
C2 C 0.7885(4) 0.6728(2) 0.3323(4)
H2 H 0.7569 0.6535 0.3951
C3 C 0.8265(4) 0.6310(2) 0.2491(4)
H3 H 0.8198 0.5828 0.2544
C4 C 0.8750(4) 0.6612(2) 0.1571(4)
H4 H 0.9016 0.6335 0.1003
C5 C 0.8835(3) 0.73291(19) 0.1508(3)
C6 C 0.9384(3) 0.7707(2) 0.0574(3)
C7 C 0.9936(4) 0.7369(2) -0.0281(3)
H5 H 0.9955 0.6884 -0.0308
C8 C 1.0462(4) 0.7762(2) -0.1099(4)
H6 H 1.0838 0.7545 -0.1680
C9 C 1.0417(4) 0.8480(2) -0.1037(4)
H7 H 1.0768 0.8755 -0.1570
C10 C 0.9838(4) 0.8782(2) -0.0164(3)
H8 H 0.9794 0.9266 -0.0133
C11 C 0.7704(3) 0.95913(19) 0.3909(3)
C12 C 0.6576(3) 0.97880(17) 0.4539(3)
C13 C 0.5461(3) 0.95686(19) 0.4115(3)
H9 H 0.5461 0.9278 0.3515
C14 C 0.4346(3) 0.97683(18) 0.4558(3)
C15 C 0.3218(3) 0.94738(19) 0.4047(3)
C12C C 0.6576(3) 1.02120(17) 0.5461(3)
C11C C 0.7704(3) 1.04087(19) 0.6091(3)
O1C O 0.7647(2) 1.09920(14) 0.6580(2)
O2C O 0.8550(2) 0.99798(15) 0.6174(2)
C13C C 0.5461(3) 1.04314(19) 0.5885(3)
H9C H 0.5461 1.0722 0.6485
C14C C 0.4346(3) 1.02317(18) 0.5442(3)
C15C C 0.3218(3) 1.05262(19) 0.5953(3)
O3C O 0.3227(2) 1.11829(15) 0.6116(3)
O4C O 0.2352(2) 1.01538(16) 0.6234(3)
Co1C Co 0.84054(4) 1.11853(2) 0.80221(4)
N1C N 0.8446(3) 1.22586(16) 0.7682(2)
N2C N 0.9340(3) 1.15850(16) 0.9368(2)
C1C C 0.7983(4) 1.2556(2) 0.6792(3)
H1C H 0.7718 1.2271 0.6233
C2C C 0.7885(4) 1.3272(2) 0.6677(4)
H2C H 0.7569 1.3465 0.6049
C3C C 0.8265(4) 1.3690(2) 0.7509(4)
H3C H 0.8198 1.4172 0.7456
C4C C 0.8750(4) 1.3388(2) 0.8429(4)
H4C H 0.9016 1.3665 0.8997
C5C C 0.8835(3) 1.26709(19) 0.8492(3)
C6C C 0.9384(3) 1.2293(2) 0.9426(3)
C7C C 0.9936(4) 1.2631(2) 1.0281(3)
H5C H 0.9955 1.3116 1.0308
C8C C 1.0462(4) 1.2238(2) 1.1099(4)
H6C H 1.0838 1.2455 1.1680
C9C C 1.0417(4) 1.1520(2) 1.1037(4)
H7C H 1.0768 1.1245 1.1570
C10C C 0.9838(4) 1.1218(2) 1.0164(3)
H8C H 0.9794 1.0734 1.0133
O3B O 0.6773(2) 0.88171(15) 0.1116(3)
O4B O 0.7648(2) 0.98462(16) 0.1234(3)
Co1B Co 0.15946(4) 0.88147(2) 0.30221(4)
Co1B_2 Co 1.15946(4) 0.88147(2) 0.30221(4)
Co1A Co 0.15946(4) 1.11853(2) 0.69779(4)
O3A O 0.6773(2) 1.11829(15) 0.8884(3)
O4A O 0.7648(2) 1.01538(16) 0.8766(3)
O5A O 1.0000 1.06314(19) 0.7500
loop_
_geom_bond_atom_site_label_1
_geom_bond_atom_site_label_2
_geom_bond_site_symmetry_1
_geom_bond_site_symmetry_2
Co1 O1 1_555 1_555
O1 C11 1_555 1_555
O2 C11 1_555 1_555
O3 C15 1_555 1_555
O4 C15 1_555 1_555
O5 Co1 1_555 1_555
N1 Co1 1_555 1_555
N2 Co1 1_555 1_555
C1 N1 1_555 1_555
H1 C1 1_555 1_555
C2 C1 1_555 1_555
H2 C2 1_555 1_555
C3 C2 1_555 1_555
H3 C3 1_555 1_555
C4 C3 1_555 1_555
H4 C4 1_555 1_555
C5 N1 1_555 1_555
C6 N2 1_555 1_555
C7 C6 1_555 1_555
H5 C7 1_555 1_555
C8 C7 1_555 1_555
H6 C8 1_555 1_555
C9 C8 1_555 1_555
H7 C9 1_555 1_555
C10 N2 1_555 1_555
H8 C10 1_555 1_555
C11 C12 1_555 1_555
C12 C13 1_555 1_555
C13 H9 1_555 1_555
C14 C13 1_555 1_555
C15 C14 1_555 1_555
C12C C12 1_555 1_555
C11C C12C 1_555 1_555
O1C C11C 1_555 1_555
O2C C11C 1_555 1_555
C13C C12C 1_555 1_555
H9C C13C 1_555 1_555
C14C C14 1_555 1_555
C15C C14C 1_555 1_555
O3C C15C 1_555 1_555
O4C C15C 1_555 1_555
Co1C O1C 1_555 1_555
N1C Co1C 1_555 1_555
N2C Co1C 1_555 1_555
C1C N1C 1_555 1_555
H1C C1C 1_555 1_555
C2C C1C 1_555 1_555
H2C C2C 1_555 1_555
C3C C2C 1_555 1_555
H3C C3C 1_555 1_555
C4C C3C 1_555 1_555
H4C C4C 1_555 1_555
C5C N1C 1_555 1_555
C6C N2C 1_555 1_555
C7C C6C 1_555 1_555
H5C C7C 1_555 1_555
C8C C7C 1_555 1_555
H6C C8C 1_555 1_555
C9C C8C 1_555 1_555
H7C C9C 1_555 1_555
C10C N2C 1_555 1_555
H8C C10C 1_555 1_555
O3B Co1 1_555 1_555
O4B Co1 1_555 1_555
Co1B O3 1_555 1_555
Co1B_2 O5 1_555 1_555
Co1A O3C 1_555 1_555
O3A Co1C 1_555 1_555
O4A Co1C 1_555 1_555
O5A Co1C 1_555 1_555
O4 Co1B 1_555 1_555
C4 C5 1_555 1_555
C5 C6 1_555 1_555
C9 C10 1_555 1_555
C13C C14C 1_555 1_555
O4C Co1A 1_555 1_555
C4C C5C 1_555 1_555
C5C C6C 1_555 1_555
C9C C10C 1_555 1_555

#END
