
#######################################################################
#
#                 Cambridge Crystallographic Data Centre
#                                CCDC 
#
#######################################################################
#
# If this CIF has been generated from an entry in the Cambridge 
# Structural Database, then it will include bibliographic, chemical, 
# crystal, experimental, refinement or atomic coordinate data resulting 
# from the CCDC's data processing and validation procedures.
#
#######################################################################

data_QUGKAE
_symmetry_cell_setting           orthorhombic
_symmetry_space_group_name_H-M   'C 2 2 21'
_symmetry_Int_Tables_number      20
_space_group_name_Hall           'C 2n 2'
loop_
_symmetry_equiv_pos_site_id
_symmetry_equiv_pos_as_xyz
1 x,y,z
2 -x,-y,1/2+z
3 -x,y,1/2-z
4 x,-y,-z
5 1/2+x,1/2+y,z
6 1/2-x,1/2-y,1/2+z
7 1/2-x,1/2+y,1/2-z
8 1/2+x,1/2-y,-z
_cell_length_a                   10.9864(10)
_cell_length_b                   19.128(2)
_cell_length_c                   12.4073(11)
_cell_angle_alpha                90
_cell_angle_beta                 90
_cell_angle_gamma                90
_cell_volume                     2607.37
loop_
_atom_site_label
_atom_site_type_symbol
_atom_site_fract_x
_atom_site_fract_y
_atom_site_fract_z
Co1 Co 0.84011(8) 0.61862(4) 0.69753(7)
N1 N 0.8437(6) 0.7261(2) 0.7330(4)
C1 C 0.7992(6) 0.7552(4) 0.8202(7)
H1 H 0.7724(6) 0.7265(4) 0.8758(7)
C2 C 0.7905(7) 0.8267(4) 0.8331(6)
H2 H 0.7611(7) 0.8459(4) 0.8968(6)
C3 C 0.8269(8) 0.8689(3) 0.7484(7)
H3 H 0.8198(8) 0.9172(3) 0.7538(7)
C4 C 0.8851(6) 0.7671(3) 0.6479(6)
C5 C 0.8736(7) 0.8392(3) 0.6559(7)
H4 H 0.8975(7) 0.8676(3) 0.5988(7)
C6 C 0.9369(6) 0.7307(3) 0.5580(5)
C7 C 0.9940(7) 0.7634(4) 0.4719(6)
H5 H 0.9983(7) 0.8119(4) 0.4691(6)
C8 C 1.0444(8) 0.7239(4) 0.3906(6)
H6 H 1.0807(8) 0.7453(4) 0.3315(6)
C9 C 1.0400(7) 0.6518(4) 0.3980(6)
H7 H 1.0752(7) 0.6236(4) 0.3455(6)
C10 C 0.9827(6) 0.6234(4) 0.4847(5)
H8 H 0.9778(6) 0.5750(4) 0.4882(5)
N2 N 0.9340(5) 0.6592(3) 0.5637(4)
O1 O 0.7643(4) 0.5993(2) 0.8422(4)
O2 O 0.8552(4) 0.4975(2) 0.8832(3)
C11 C 0.7685(6) 0.5403(4) 0.8918(6)
C12 C 0.6582(7) 0.5204(3) 0.9544(4)
C13 C 0.5457(6) 0.5437(3) 0.9107(6)
H9 H 0.5457(6) 0.5729(3) 0.8507(6)
C14 C 0.4350(6) 0.5233(3) 0.9567(5)
C15 C 0.3232(6) 0.5530(3) 0.9056(5)
O3 O 0.3230(4) 0.6184(2) 0.8880(4)
O4 O 0.2351(4) 0.5157(2) 0.8767(4)
O5 O 1.0000 0.5630(3) 0.7500
H10 H 0.9482(67) 0.5524(40) 0.8123(44)
C12C C 0.6582(7) 0.4796(3) 1.0456(4)
C11C C 0.7685(6) 0.4597(4) 1.1082(6)
O1C O 0.7643(4) 0.4007(2) 1.1578(4)
O2C O 0.8552(4) 0.5025(2) 1.1168(3)
C13C C 0.5457(6) 0.4563(3) 1.0893(6)
H9C H 0.5457(6) 0.4271(3) 1.1493(6)
C14C C 0.4350(6) 0.4767(3) 1.0433(5)
C15C C 0.3232(6) 0.4470(3) 1.0944(5)
O3C O 0.3230(4) 0.3816(2) 1.1120(4)
O4C O 0.2351(4) 0.4843(2) 1.1233(4)
H10B H 1.0518(67) 0.5524(40) 0.6877(44)
Co1C Co 0.84011(8) 0.38138(4) 1.30247(7)
N1C N 0.8437(6) 0.2739(2) 1.2670(4)
C1C C 0.7992(6) 0.2448(4) 1.1798(7)
H1C H 0.7724(6) 0.2735(4) 1.1242(7)
C2C C 0.7905(7) 0.1733(4) 1.1669(6)
H2C H 0.7611(7) 0.1541(4) 1.1032(6)
C3C C 0.8269(8) 0.1311(3) 1.2516(7)
H3C H 0.8198(8) 0.0828(3) 1.2462(7)
C4C C 0.8851(6) 0.2329(3) 1.3521(6)
C5C C 0.8736(7) 0.1608(3) 1.3441(7)
H4C H 0.8975(7) 0.1324(3) 1.4012(7)
C6C C 0.9369(6) 0.2693(3) 1.4420(5)
C7C C 0.9940(7) 0.2366(4) 1.5281(6)
H5C H 0.9983(7) 0.1881(4) 1.5309(6)
C8C C 1.0444(8) 0.2761(4) 1.6094(6)
H6C H 1.0807(8) 0.2547(4) 1.6685(6)
C9C C 1.0400(7) 0.3482(4) 1.6020(6)
H7C H 1.0752(7) 0.3764(4) 1.6545(6)
C10C C 0.9827(6) 0.3766(4) 1.5153(5)
H8C H 0.9778(6) 0.4250(4) 1.5118(5)
N2C N 0.9340(5) 0.3408(3) 1.4363(4)
O3B O 0.6770(4) 0.6184(2) 0.6120(4)
O4B O 0.7649(4) 0.5157(2) 0.6233(4)
Co1B Co 0.15989(8) 0.61862(4) 0.80247(7)
Co1B_2 Co 1.15989(8) 0.61862(4) 0.80247(7)
Co1A Co 0.15989(8) 0.38138(4) 1.19753(7)
O3A O 0.6770(4) 0.3816(2) 1.3880(4)
O4A O 0.7649(4) 0.4843(2) 1.3767(4)
O5A O 1.0000 0.4370(3) 1.2500
H10A H 1.0518(67) 0.4476(40) 1.3123(44)
H10C H 0.9482(67) 0.4476(40) 1.1877(44)
loop_
_geom_bond_atom_site_label_1
_geom_bond_atom_site_label_2
_geom_bond_site_symmetry_1
_geom_bond_site_symmetry_2
Co1 N1 1_555 1_555
N1 C1 1_555 1_555
C1 H1 1_555 1_555
C2 C1 1_555 1_555
H2 C2 1_555 1_555
C3 C2 1_555 1_555
H3 C3 1_555 1_555
C4 N1 1_555 1_555
C5 C3 1_555 1_555
H4 C5 1_555 1_555
C6 C4 1_555 1_555
C7 C6 1_555 1_555
H5 C7 1_555 1_555
C8 C7 1_555 1_555
H6 C8 1_555 1_555
C9 C8 1_555 1_555
H7 C9 1_555 1_555
C10 C9 1_555 1_555
H8 C10 1_555 1_555
N2 Co1 1_555 1_555
O1 Co1 1_555 1_555
O2 C11 1_555 1_555
C11 O1 1_555 1_555
C12 C11 1_555 1_555
C13 C12 1_555 1_555
H9 C13 1_555 1_555
C14 C13 1_555 1_555
C15 C14 1_555 1_555
O3 C15 1_555 1_555
O4 C15 1_555 1_555
O5 Co1 1_555 1_555
H10 O5 1_555 1_555
C12C C12 1_555 1_555
C11C C12C 1_555 1_555
O1C C11C 1_555 1_555
O2C C11C 1_555 1_555
C13C C12C 1_555 1_555
H9C C13C 1_555 1_555
C14C C14 1_555 1_555
C15C C14C 1_555 1_555
O3C C15C 1_555 1_555
O4C C15C 1_555 1_555
H10B O5 1_555 1_555
Co1C O1C 1_555 1_555
N1C Co1C 1_555 1_555
C1C N1C 1_555 1_555
H1C C1C 1_555 1_555
C2C C1C 1_555 1_555
H2C C2C 1_555 1_555
C3C C2C 1_555 1_555
H3C C3C 1_555 1_555
C4C N1C 1_555 1_555
C5C C3C 1_555 1_555
H4C C5C 1_555 1_555
C6C C4C 1_555 1_555
C7C C6C 1_555 1_555
H5C C7C 1_555 1_555
C8C C7C 1_555 1_555
H6C C8C 1_555 1_555
C9C C8C 1_555 1_555
H7C C9C 1_555 1_555
C10C C9C 1_555 1_555
H8C C10C 1_555 1_555
N2C Co1C 1_555 1_555
O3B Co1 1_555 1_555
O4B Co1 1_555 1_555
Co1B O3 1_555 1_555
Co1B_2 O5 1_555 1_555
Co1A O3C 1_555 1_555
O3A Co1C 1_555 1_555
O4A Co1C 1_555 1_555
O5A Co1C 1_555 1_555
H10A O5A 1_555 1_555
H10C O5A 1_555 1_555
C4 C5 1_555 1_555
C6 N2 1_555 1_555
C10 N2 1_555 1_555
O4 Co1B 1_555 1_555
C13C C14C 1_555 1_555
O4C Co1A 1_555 1_555
C4C C5C 1_555 1_555
C6C N2C 1_555 1_555
C10C N2C 1_555 1_555

#END
