
#######################################################################
#
#                 Cambridge Crystallographic Data Centre
#                                CCDC 
#
#######################################################################
#
# If this CIF has been generated from an entry in the Cambridge 
# Structural Database, then it will include bibliographic, chemical, 
# crystal, experimental, refinement or atomic coordinate data resulting 
# from the CCDC's data processing and validation procedures.
#
#######################################################################

data_QUGLUZ
_symmetry_cell_setting           orthorhombic
_symmetry_space_group_name_H-M   'P 21 21 21'
_symmetry_Int_Tables_number      19
_space_group_name_Hall           'P 2ac 2ab'
loop_
_symmetry_equiv_pos_site_id
_symmetry_equiv_pos_as_xyz
1 x,y,z
2 1/2-x,-y,1/2+z
3 1/2+x,1/2-y,-z
4 -x,1/2+y,1/2-z
_cell_length_a                   10.9975(9)
_cell_length_b                   16.951(2)
_cell_length_c                   8.7615(9)
_cell_angle_alpha                90
_cell_angle_beta                 90
_cell_angle_gamma                90
_cell_volume                     1633.31
loop_
_atom_site_label
_atom_site_type_symbol
_atom_site_fract_x
_atom_site_fract_y
_atom_site_fract_z
Cu1 Cu 1.00253(9) 0.07723(4) 0.16134(9)
N2 N 1.1228(4) 0.1719(3) 0.1114(6)
N3 N 1.4195(5) -0.0039(3) -0.1771(7)
N4 N 0.8862(4) 0.1656(3) 0.2514(7)
N5 N 0.5695(5) -0.0052(3) 0.5023(7)
C1 C 1.0778(7) 0.2372(5) 0.208(1)
C2 C 0.9407(7) 0.2390(5) 0.197(1)
C3 C 1.2527(6) 0.1595(4) 0.1352(8)
C4 C 1.3084(6) 0.1021(4) 0.0250(7)
C5 C 1.2574(6) 0.0843(4) -0.1154(7)
C6 C 1.3148(6) 0.0316(4) -0.2104(8)
C7 C 1.4709(6) 0.0119(5) -0.0423(8)
C8 C 1.4192(6) 0.0644(5) 0.0591(8)
C9 C 0.7554(6) 0.1629(4) 0.2178(8)
C10 C 0.6901(6) 0.1030(4) 0.3123(8)
C11 C 0.6166(6) 0.1280(4) 0.4294(8)
C12 C 0.5580(6) 0.0743(4) 0.5196(7)
C13 C 0.6410(6) -0.0291(4) 0.3865(8)
C14 C 0.7013(6) 0.0231(4) 0.2927(8)
H1 H 1.1106 0.1871 0.0072
H2 H 0.8941 0.1645 0.3606
H3 H 1.1030 0.2293 0.3102
H4 H 1.1102 0.2863 0.1719
H5 H 0.9180 0.2465 0.0944
H6 H 0.9114 0.2813 0.2579
H7 H 1.2925 0.2098 0.1237
H8 H 1.2641 0.1417 0.2364
H9 H 0.7232 0.2150 0.2357
H10 H 0.7468 0.1517 0.1113
H11 H 1.1825 0.1074 -0.1450
H12 H 1.2772 0.0197 -0.3055
H13 H 1.5449 -0.0141 -0.0159
H14 H 1.4578 0.0745 0.1537
H15 H 0.6058 0.1831 0.4469
H16 H 0.5065 0.0933 0.5986
H17 H 0.6502 -0.0838 0.3687
H18 H 0.7515 0.0033 0.2129
N3A N 1.0805(5) 0.0039(3) 0.3229(7)
N5A N 0.9305(5) 0.0052(3) 0.0023(7)
Cu1A Cu 1.49747(9) -0.07723(4) -0.33866(9)
Cu1A_2 Cu 0.49747(9) -0.07723(4) 0.66134(9)
O1 O 0.4432(8) -0.1710(5) 0.0824(10)
O2 O 0.6350(7) -0.1821(5) 0.1283(9)
O3 O 0.5080(6) -0.2059(3) 0.3040(5)
N1 N 0.5274(7) -0.1864(4) 0.1714(8)
O4 O 0.286(2) 0.175(1) 0.519(2)
loop_
_geom_bond_atom_site_label_1
_geom_bond_atom_site_label_2
_geom_bond_site_symmetry_1
_geom_bond_site_symmetry_2
Cu1 N2 1_555 1_555
O1 N1 1_555 1_555
O2 N1 1_555 1_555
O3 N1 1_555 1_555
N2 C1 1_555 1_555
N3 C6 1_555 1_555
N4 Cu1 1_555 1_555
N5 C12 1_555 1_555
C1 C2 1_555 1_555
C2 N4 1_555 1_555
C3 N2 1_555 1_555
C4 C3 1_555 1_555
C5 C4 1_555 1_555
C6 C5 1_555 1_555
C7 N3 1_555 1_555
C8 C4 1_555 1_555
C9 N4 1_555 1_555
C10 C9 1_555 1_555
C11 C10 1_555 1_555
C12 C11 1_555 1_555
C13 N5 1_555 1_555
C14 C10 1_555 1_555
H1 N2 1_555 1_555
H2 N4 1_555 1_555
H3 C1 1_555 1_555
H4 C1 1_555 1_555
H5 C2 1_555 1_555
H6 C2 1_555 1_555
H7 C3 1_555 1_555
H8 C3 1_555 1_555
H9 C9 1_555 1_555
H10 C9 1_555 1_555
H11 C5 1_555 1_555
H12 C6 1_555 1_555
H13 C7 1_555 1_555
H14 C8 1_555 1_555
H15 C11 1_555 1_555
H16 C12 1_555 1_555
H17 C13 1_555 1_555
H18 C14 1_555 1_555
N3A Cu1 1_555 1_555
N5A Cu1 1_555 1_555
Cu1A N3 1_555 1_555
Cu1A_2 N5 1_555 1_555
C7 C8 1_555 1_555
C13 C14 1_555 1_555

#END
