
#######################################################################
#
#                 Cambridge Crystallographic Data Centre
#                                CCDC 
#
#######################################################################
#
# If this CIF has been generated from an entry in the Cambridge 
# Structural Database, then it will include bibliographic, chemical, 
# crystal, experimental, refinement or atomic coordinate data resulting 
# from the CCDC's data processing and validation procedures.
#
#######################################################################

data_QUGNUB
_symmetry_cell_setting           monoclinic
_symmetry_space_group_name_H-M   'P 21/c'
_symmetry_Int_Tables_number      14
_space_group_name_Hall           '-P 2ybc'
loop_
_symmetry_equiv_pos_site_id
_symmetry_equiv_pos_as_xyz
1 x,y,z
2 x,1/2-y,1/2+z
3 -x,-y,-z
4 -x,1/2+y,1/2-z
_cell_length_a                   16.1515(13)
_cell_length_b                   12.808(2)
_cell_length_c                   15.3692(17)
_cell_angle_alpha                90
_cell_angle_beta                 95.675(9)
_cell_angle_gamma                90
_cell_volume                     3163.82
loop_
_atom_site_label
_atom_site_type_symbol
_atom_site_fract_x
_atom_site_fract_y
_atom_site_fract_z
Cd1 Cd 0.44097(3) 0.03838(4) 0.08565(3)
Cd2 Cd 0.25748(3) 0.18504(4) 0.03642(3)
Cd3 Cd 0.05102(4) 0.10260(5) 0.06085(4)
N1 N 0.5118(4) 0.1166(5) -0.0195(4)
C1 C 0.5277(5) 0.2015(7) -0.0391(5)
O1 O 0.5452(5) 0.2880(5) -0.0574(5)
N2 N 0.3121(4) 0.0273(5) 0.0011(4)
C2 C 0.2863(6) -0.0307(7) -0.0528(6)
O2 O 0.2612(6) -0.0875(6) -0.1123(5)
N3 N 0.3856(4) 0.1923(5) 0.1351(4)
C3 C 0.3896(4) 0.2434(6) 0.1981(5)
O3 O 0.3933(4) 0.2967(5) 0.2613(4)
N4 N 0.1784(4) 0.1319(5) 0.1451(4)
C4 C 0.1979(6) 0.1160(8) 0.2170(6)
O4 O 0.2181(6) 0.0962(8) 0.2911(5)
N5 N 0.1269(4) 0.1687(6) -0.0480(5)
C5 C 0.1110(6) 0.1596(10) -0.1200(7)
O5 O 0.0936(6) 0.1449(9) -0.1959(6)
N6 N 0.0680(5) -0.0700(6) 0.0405(5)
C6 C 0.1121(6) -0.1337(8) 0.0734(7)
O6 O 0.1548(6) -0.1991(6) 0.1076(6)
N7 N 0.4000(4) -0.0612(5) 0.2028(4)
N8 N 0.5532(4) 0.0300(5) 0.1971(4)
H1 H 0.5859 -0.0250 0.1880
H2 H 0.5841 0.0884 0.1967
N9 N 0.2475(4) 0.3632(5) 0.0710(4)
N10 N 0.3158(4) 0.2801(5) -0.0713(4)
H3 H 0.3585 0.2439 -0.0897
H4 H 0.2775 0.2892 -0.1173
N11 N -0.0120(5) 0.2631(7) 0.0885(6)
N12 N -0.0220(6) 0.0790(9) 0.1862(6)
H5 H -0.0689 0.0424 0.1718
H6 H 0.0098 0.0432 0.2273
C7 C 0.3364(5) -0.1281(7) 0.1966(5)
H7 H 0.3029 -0.1320 0.1439
C8 C 0.3178(6) -0.1920(7) 0.2645(6)
H8 H 0.2725 -0.2370 0.2587
C9 C 0.3687(6) -0.1860(7) 0.3403(6)
H9 H 0.3577 -0.2276 0.3874
C10 C 0.4347(6) -0.1211(7) 0.3490(5)
H10 H 0.4696 -0.1186 0.4008
C11 C 0.4499(5) -0.0567(6) 0.2771(4)
C12 C 0.5192(5) 0.0194(7) 0.2808(5)
H11 H 0.4994 0.0869 0.2985
H12 H 0.5630 -0.0031 0.3246
C13 C 0.2065(6) 0.4030(7) 0.1353(6)
H13 H 0.1750 0.3579 0.1661
C14 C 0.2086(7) 0.5059(9) 0.1577(7)
H14 H 0.1789 0.5310 0.2022
C15 C 0.2564(8) 0.5714(8) 0.1120(9)
H15 H 0.2607 0.6419 0.1265
C16 C 0.2976(7) 0.5326(7) 0.0452(7)
H16 H 0.3280 0.5767 0.0123
C17 C 0.2931(5) 0.4273(6) 0.0277(5)
C18 C 0.3454(6) 0.3813(8) -0.0389(5)
H17 H 0.3457 0.4291 -0.0878
H18 H 0.4023 0.3742 -0.0126
C19 C -0.0213(9) 0.3375(10) 0.0306(10)
H19 H 0.0050 0.3310 -0.0203
C20 C -0.0699(11) 0.4281(13) 0.0418(12)
H20 H -0.0746 0.4834 0.0023
C21 C -0.1078(10) 0.4256(14) 0.1148(12)
H21 H -0.1419 0.4824 0.1234
C22 C -0.1039(9) 0.3546(13) 0.1758(10)
H22 H -0.1305 0.3608 0.2265
C23 C -0.0552(8) 0.2674(10) 0.1571(9)
C24 C -0.0422(10) 0.1802(12) 0.2196(10)
H23 H 0.0021 0.2000 0.2637
H24 H -0.0924 0.1727 0.2488
N1B N 0.4882(4) -0.1166(5) 0.0195(4)
N6B N -0.0680(5) 0.0700(6) -0.0405(5)
Cd1B Cd 0.55903(3) -0.03838(4) -0.08565(3)
Cd3B Cd -0.05102(4) -0.10260(5) -0.06085(4)
loop_
_geom_bond_atom_site_label_1
_geom_bond_atom_site_label_2
_geom_bond_site_symmetry_1
_geom_bond_site_symmetry_2
Cd1 N1 1_555 1_555
Cd2 N2 1_555 1_555
Cd3 N4 1_555 1_555
N1 C1 1_555 1_555
C1 O1 1_555 1_555
N2 Cd1 1_555 1_555
C2 N2 1_555 1_555
O2 C2 1_555 1_555
N3 Cd1 1_555 1_555
C3 N3 1_555 1_555
O3 C3 1_555 1_555
N4 Cd2 1_555 1_555
C4 N4 1_555 1_555
O4 C4 1_555 1_555
N5 Cd2 1_555 1_555
C5 N5 1_555 1_555
O5 C5 1_555 1_555
N6 Cd3 1_555 1_555
C6 N6 1_555 1_555
O6 C6 1_555 1_555
N7 Cd1 1_555 1_555
N8 Cd1 1_555 1_555
H1 N8 1_555 1_555
H2 N8 1_555 1_555
N9 Cd2 1_555 1_555
N10 Cd2 1_555 1_555
H3 N10 1_555 1_555
H4 N10 1_555 1_555
N11 Cd3 1_555 1_555
N12 Cd3 1_555 1_555
H5 N12 1_555 1_555
H6 N12 1_555 1_555
C7 N7 1_555 1_555
H7 C7 1_555 1_555
C8 C7 1_555 1_555
H8 C8 1_555 1_555
C9 C8 1_555 1_555
H9 C9 1_555 1_555
C10 C9 1_555 1_555
H10 C10 1_555 1_555
C11 N7 1_555 1_555
C12 N8 1_555 1_555
H11 C12 1_555 1_555
H12 C12 1_555 1_555
C13 N9 1_555 1_555
H13 C13 1_555 1_555
C14 C13 1_555 1_555
H14 C14 1_555 1_555
C15 C14 1_555 1_555
H15 C15 1_555 1_555
C16 C15 1_555 1_555
H16 C16 1_555 1_555
C17 N9 1_555 1_555
C18 N10 1_555 1_555
H17 C18 1_555 1_555
H18 C18 1_555 1_555
C19 N11 1_555 1_555
H19 C19 1_555 1_555
C20 C19 1_555 1_555
H20 C20 1_555 1_555
C21 C20 1_555 1_555
H21 C21 1_555 1_555
C22 C21 1_555 1_555
H22 C22 1_555 1_555
C23 N11 1_555 1_555
C24 N12 1_555 1_555
H23 C24 1_555 1_555
H24 C24 1_555 1_555
N1B Cd1 1_555 1_555
N6B Cd3 1_555 1_555
Cd1B N1 1_555 1_555
Cd3B N6 1_555 1_555
Cd2 N3 1_555 1_555
Cd3 N5 1_555 1_555
C10 C11 1_555 1_555
C11 C12 1_555 1_555
C16 C17 1_555 1_555
C17 C18 1_555 1_555
C22 C23 1_555 1_555
C23 C24 1_555 1_555
N1B Cd1B 1_555 1_555
N6B Cd3B 1_555 1_555

#END
