
#######################################################################
#
#                 Cambridge Crystallographic Data Centre
#                                CCDC 
#
#######################################################################
#
# If this CIF has been generated from an entry in the Cambridge 
# Structural Database, then it will include bibliographic, chemical, 
# crystal, experimental, refinement or atomic coordinate data resulting 
# from the CCDC's data processing and validation procedures.
#
#######################################################################

data_QUGVAR
_symmetry_cell_setting           monoclinic
_symmetry_space_group_name_H-M   'P 21/n'
_symmetry_Int_Tables_number      14
_space_group_name_Hall           '-P 2yn'
loop_
_symmetry_equiv_pos_site_id
_symmetry_equiv_pos_as_xyz
1 x,y,z
2 1/2-x,1/2+y,1/2-z
3 -x,-y,-z
4 1/2+x,1/2-y,1/2+z
_cell_length_a                   12.7659(6)
_cell_length_b                   9.5790(4)
_cell_length_c                   18.0520(8)
_cell_angle_alpha                90
_cell_angle_beta                 108.206(5)
_cell_angle_gamma                90
_cell_volume                     2096.97
loop_
_atom_site_label
_atom_site_type_symbol
_atom_site_fract_x
_atom_site_fract_y
_atom_site_fract_z
Zn1 Zn 0.20046(3) 0.54207(4) 0.42560(2)
Zn2 Zn 0.0000 0.5000 0.5000
Cl1 Cl 0.33401(9) 0.64656(14) 0.39309(7)
O1 O 0.1080(2) 0.4278(3) 0.33952(14)
O2 O -0.0298(2) 0.4192(3) 0.39016(14)
O3 O -0.2229(2) 0.0751(3) 0.01539(14)
O4 O -0.3699(2) 0.1265(3) 0.05093(15)
C1 C -0.0609(3) 0.3288(4) 0.26524(19)
C2 C -0.0168(3) 0.2754(5) 0.2102(2)
H1 H 0.0584 0.2830 0.2179
C3 C -0.0842(3) 0.2111(4) 0.1440(2)
H2 H -0.0539 0.1749 0.1075
C4 C -0.1969(3) 0.1999(4) 0.13148(18)
C5 C -0.2409(3) 0.2558(5) 0.1865(2)
H3 H -0.3165 0.2515 0.1784
C6 C -0.1728(3) 0.3175(5) 0.2528(2)
H4 H -0.2026 0.3522 0.2899
C7 C 0.0108(3) 0.3978(4) 0.33762(19)
C8 C -0.2691(3) 0.1293(4) 0.0610(2)
O5 O 0.10760(18) 0.6569(3) 0.47127(12)
O6 O 0.0575(3) 0.7652(3) 0.35700(15)
C9 C 0.0302(3) 0.8842(4) 0.4646(2)
C10 C -0.0219(3) 0.9974(4) 0.4202(2)
H5 H -0.0367 0.9961 0.3664
C11 C -0.0518(3) 1.1114(4) 0.4552(2)
H6 H -0.0870 1.1864 0.4248
C12 C 0.0656(3) 0.7629(4) 0.4265(2)
O5B O -0.10760(18) 1.3431(3) 0.52873(12)
O6B O -0.0575(3) 1.2348(3) 0.64300(15)
C9B C -0.0302(3) 1.1158(4) 0.5354(2)
C10B C 0.0219(3) 1.0026(4) 0.5798(2)
H5B H 0.0367 1.0039 0.6336
C11B C 0.0518(3) 0.8886(4) 0.5448(2)
H6B H 0.0870 0.8136 0.5752
C12B C -0.0656(3) 1.2371(4) 0.5735(2)
Zn1B Zn -0.20046(3) 0.45793(4) 0.57440(2)
Cl1B Cl -0.33401(9) 0.35344(14) 0.60691(7)
O1B O -0.1080(2) 0.5722(3) 0.66048(14)
O2B O 0.0298(2) 0.5808(3) 0.60984(14)
O3B O 0.2229(2) 0.9249(3) 0.98461(14)
O4B O 0.3699(2) 0.8735(3) 0.94907(15)
C1B C 0.0609(3) 0.6712(4) 0.73476(19)
C2B C 0.0168(3) 0.7246(5) 0.7898(2)
H1B H -0.0584 0.7170 0.7821
C3B C 0.0842(3) 0.7889(4) 0.8560(2)
H2B H 0.0539 0.8251 0.8925
C4B C 0.1969(3) 0.8001(4) 0.86852(18)
C5B C 0.2409(3) 0.7442(5) 0.8135(2)
H3B H 0.3165 0.7485 0.8216
C6B C 0.1728(3) 0.6825(5) 0.7472(2)
H4B H 0.2026 0.6478 0.7101
C7B C -0.0108(3) 0.6022(4) 0.66238(19)
C8B C 0.2691(3) 0.8707(4) 0.9390(2)
Zn1A Zn 0.29954(3) 1.04207(4) 1.07440(2)
Zn1B_2 Zn -0.20046(3) 1.45793(4) 0.57440(2)
Zn1C Zn -0.29954(3) -0.04207(4) -0.07440(2)
Zn2_2 Zn 0.0000 1.5000 0.5000
Zn2A Zn -0.5000 0.0000 0.0000
Zn2A_2 Zn 0.5000 1.0000 1.0000
O3A O -0.2771(2) 0.5751(3) 0.48461(14)
O3C O 0.2771(2) 0.4249(3) 0.51539(14)
O4A O -0.1301(2) 0.6265(3) 0.44907(15)
O4C O 0.1301(2) 0.3735(3) 0.55093(15)
O5B_2 O -0.10760(18) 0.3431(3) 0.52873(12)
N1 N 0.2016(4) 0.5963(5) 0.1686(3)
N2 N 0.0652(4) 0.7373(5) 0.1463(2)
C13 C 0.1249(5) 0.6432(7) 0.1967(3)
H7 H 0.1142 0.6158 0.2432
C14 C 0.1892(7) 0.6631(9) 0.1003(4)
H8 H 0.2320 0.6496 0.0677
C15 C 0.1074(7) 0.7489(8) 0.0882(4)
H9 H 0.0823 0.8088 0.0458
C16 C 0.2830(6) 0.4883(9) 0.2029(5)
H10 H 0.2741 0.4575 0.2512
H11 H 0.3558 0.5256 0.2125
H12 H 0.2725 0.4108 0.1676
C17 C -0.0339(7) 0.8065(9) 0.1538(5)
H13 H -0.0480 0.8911 0.1228
H14 H -0.0216 0.8323 0.2078
C18 C -0.1346(8) 0.7095(15) 0.1265(6)
H15 H -0.1466 0.6769 0.1740
H16 H -0.1961 0.7708 0.1018
C19 C -0.1512(11) 0.5929(13) 0.0785(7)
H17 H -0.2209 0.5512 0.0751
H18 H -0.0932 0.5267 0.0999
H19 H -0.1510 0.6203 0.0274
loop_
_geom_bond_atom_site_label_1
_geom_bond_atom_site_label_2
_geom_bond_site_symmetry_1
_geom_bond_site_symmetry_2
Zn1 Cl1 1_555 1_555
Zn2 O2 1_555 1_555
O1 Zn1 1_555 1_555
O2 C7 1_555 1_555
O3 C8 1_555 1_555
O4 C8 1_555 1_555
C1 C2 1_555 1_555
C2 H1 1_555 1_555
C3 C2 1_555 1_555
H2 C3 1_555 1_555
C4 C3 1_555 1_555
C5 C4 1_555 1_555
H3 C5 1_555 1_555
C6 C1 1_555 1_555
H4 C6 1_555 1_555
C7 O1 1_555 1_555
C8 C4 1_555 1_555
O5 Zn1 1_555 1_555
O6 C12 1_555 1_555
C9 C10 1_555 1_555
C10 H5 1_555 1_555
C11 C10 1_555 1_555
H6 C11 1_555 1_555
C12 O5 1_555 1_555
N1 C13 1_555 1_555
N2 C13 1_555 1_555
C13 H7 1_555 1_555
C14 N1 1_555 1_555
H8 C14 1_555 1_555
C15 N2 1_555 1_555
H9 C15 1_555 1_555
C16 N1 1_555 1_555
H10 C16 1_555 1_555
H11 C16 1_555 1_555
H12 C16 1_555 1_555
C17 N2 1_555 1_555
H13 C17 1_555 1_555
H14 C17 1_555 1_555
C18 C17 1_555 1_555
H15 C18 1_555 1_555
H16 C18 1_555 1_555
C19 C18 1_555 1_555
H17 C19 1_555 1_555
H18 C19 1_555 1_555
H19 C19 1_555 1_555
O5B C12B 1_555 1_555
O6B C12B 1_555 1_555
C9B C11 1_555 1_555
C10B C9B 1_555 1_555
H5B C10B 1_555 1_555
C11B C9 1_555 1_555
H6B C11B 1_555 1_555
C12B C9B 1_555 1_555
Zn1B Cl1B 1_555 1_555
O1B Zn1B 1_555 1_555
O2B Zn2 1_555 1_555
O3B C8B 1_555 1_555
O4B C8B 1_555 1_555
C1B C2B 1_555 1_555
C2B H1B 1_555 1_555
C3B C2B 1_555 1_555
H2B C3B 1_555 1_555
C4B C3B 1_555 1_555
C5B C4B 1_555 1_555
H3B C5B 1_555 1_555
C6B C1B 1_555 1_555
H4B C6B 1_555 1_555
C7B O1B 1_555 1_555
C8B C4B 1_555 1_555
Zn1A O3B 1_555 1_555
Zn1B_2 O5B 1_555 1_555
Zn1C O3 1_555 1_555
Zn2_2 O5B 1_555 1_555
Zn2A O4 1_555 1_555
Zn2A_2 O4B 1_555 1_555
O3A Zn1B 1_555 1_555
O3C Zn1 1_555 1_555
O4A Zn2 1_555 1_555
O4C Zn2 1_555 1_555
O5B_2 Zn2 1_555 1_555
Zn2 O5 1_555 1_555
C1 C7 1_555 1_555
C5 C6 1_555 1_555
C9 C12 1_555 1_555
C14 C15 1_555 1_555
C10B C11B 1_555 1_555
Zn1B O5B_2 1_555 1_555
O2B C7B 1_555 1_555
C1B C7B 1_555 1_555
C5B C6B 1_555 1_555

#END
