
#######################################################################
#
#                 Cambridge Crystallographic Data Centre
#                                CCDC 
#
#######################################################################
#
# If this CIF has been generated from an entry in the Cambridge 
# Structural Database, then it will include bibliographic, chemical, 
# crystal, experimental, refinement or atomic coordinate data resulting 
# from the CCDC's data processing and validation procedures.
#
#######################################################################

data_QUGVOF
_symmetry_cell_setting           monoclinic
_symmetry_space_group_name_H-M   'P 21/n'
_symmetry_Int_Tables_number      14
_space_group_name_Hall           '-P 2yn'
loop_
_symmetry_equiv_pos_site_id
_symmetry_equiv_pos_as_xyz
1 x,y,z
2 1/2-x,1/2+y,1/2-z
3 -x,-y,-z
4 1/2+x,1/2-y,1/2+z
_cell_length_a                   13.0114(5)
_cell_length_b                   9.4909(4)
_cell_length_c                   18.3354(6)
_cell_angle_alpha                90
_cell_angle_beta                 109.114(4)
_cell_angle_gamma                90
_cell_volume                     2139.41
loop_
_atom_site_label
_atom_site_type_symbol
_atom_site_fract_x
_atom_site_fract_y
_atom_site_fract_z
Zn1 Zn 0.80207(3) 0.03752(5) 0.07215(2)
Zn2 Zn 1.0000 0.0000 0.0000
Br1 Br 0.65754(4) 0.14895(7) 0.09989(3)
O1 O 1.1285(2) 0.1253(3) 0.05520(17)
O2 O 1.2704(2) 0.0863(3) 0.01526(16)
O3 O 1.4736(3) 0.4138(3) 0.39230(16)
O4 O 1.6070(2) 0.4262(3) 0.34083(16)
C1 C 1.3002(3) 0.2045(5) 0.1336(2)
C2 C 1.2594(3) 0.2544(5) 0.1894(2)
H1 H 1.1855 0.2463 0.1823
C3 C 1.3278(3) 0.3158(6) 0.2555(3)
H2 H 1.2999 0.3496 0.2928
C4 C 1.4388(3) 0.3278(4) 0.2668(2)
C5 C 1.4789(3) 0.2801(5) 0.2106(2)
H3 H 1.5525 0.2900 0.2170
C6 C 1.4096(3) 0.2170(5) 0.1442(2)
H4 H 1.4373 0.1832 0.1068
C7 C 1.2257(3) 0.1335(4) 0.0622(2)
C8 C 1.5117(3) 0.3949(4) 0.3393(2)
O5 O 0.8923(2) 0.1543(3) 0.02750(15)
O6 O 0.9385(3) 0.2667(4) 0.13989(18)
C9 C 0.9687(3) 0.3846(4) 0.0346(2)
C10 C 1.0241(4) 0.4959(5) 0.0791(3)
H5 H 1.0404 0.4935 0.1324
C11 C 1.0551(4) 0.6097(5) 0.0451(2)
H6 H 1.0923 0.6839 0.0757
C12 C 0.9334(3) 0.2632(5) 0.0719(2)
O5B O 1.1077(2) 0.8457(3) -0.02750(15)
O6B O 1.0615(3) 0.7333(4) -0.13989(18)
C9B C 1.0313(3) 0.6154(4) -0.0346(2)
C10B C 0.9759(4) 0.5041(5) -0.0791(3)
H5B H 0.9596 0.5065 -0.1324
C11B C 0.9449(4) 0.3903(5) -0.0451(2)
H6B H 0.9077 0.3161 -0.0757
C12B C 1.0666(3) 0.7368(5) -0.0719(2)
Zn1B Zn 1.19793(3) -0.03752(5) -0.07215(2)
Br1B Br 1.34246(4) -0.14895(7) -0.09989(3)
O1B O 0.8715(2) -0.1253(3) -0.05520(17)
O2B O 0.7296(2) -0.0863(3) -0.01526(16)
O3B O 0.5264(3) -0.4138(3) -0.39230(16)
O4B O 0.3930(2) -0.4262(3) -0.34083(16)
C1B C 0.6998(3) -0.2045(5) -0.1336(2)
C2B C 0.7406(3) -0.2544(5) -0.1894(2)
H1B H 0.8145 -0.2463 -0.1823
C3B C 0.6722(3) -0.3158(6) -0.2555(3)
H2B H 0.7001 -0.3496 -0.2928
C4B C 0.5612(3) -0.3278(4) -0.2668(2)
C5B C 0.5211(3) -0.2801(5) -0.2106(2)
H3B H 0.4475 -0.2900 -0.2170
C6B C 0.5904(3) -0.2170(5) -0.1442(2)
H4B H 0.5627 -0.1832 -0.1068
C7B C 0.7743(3) -0.1335(4) -0.0622(2)
C8B C 0.4883(3) -0.3949(4) -0.3393(2)
Zn1A Zn 1.69793(3) 0.53752(5) 0.42785(2)
Zn1B_2 Zn 1.19793(3) 0.96248(5) -0.07215(2)
Zn1C Zn 0.30207(3) -0.53752(5) -0.42785(2)
Zn2_2 Zn 1.0000 1.0000 0.0000
Zn2A Zn 0.5000 -0.5000 -0.5000
Zn2A_2 Zn 1.5000 0.5000 0.5000
O3A O 1.0264(3) -0.0862(3) 0.10770(16)
O3C O 0.9736(3) 0.0862(3) -0.10770(16)
O4A O 0.8930(2) -0.0738(3) 0.15917(16)
O4C O 1.1070(2) 0.0738(3) -0.15917(16)
O5B_2 O 1.1077(2) -0.1543(3) -0.02750(15)
N1 N 1.8103(7) 0.1492(9) 0.3916(5)
H7 H 1.7715 0.1277 0.4200
N2 N 1.8705(6) 0.1550(8) 0.2993(4)
H8 H 1.8780 0.1370 0.2553
C13 C 1.7985(5) 0.0993(8) 0.3258(5)
C14 C 1.8942(7) 0.2424(9) 0.4108(4)
H9 H 1.9203 0.2938 0.4563
C15 C 1.9309(4) 0.2451(6) 0.3521(3)
C16 C 1.7196(11) -0.0034(15) 0.2974(8)
H10 H 1.6810 -0.0180 0.3334
H11 H 1.7537 -0.0898 0.2906
H12 H 1.6696 0.0267 0.2488
C17 C 2.0247(9) 0.3276(11) 0.3484(7)
H13 H 2.0084 0.3674 0.2972
H14 H 2.0376 0.4049 0.3850
C18 C 2.1208(11) 0.2430(17) 0.3657(8)
H15 H 2.1333 0.2344 0.3165
H16 H 2.1782 0.3041 0.3968
C19 C 2.1473(11) 0.1142(16) 0.3986(10)
H17 H 2.2171 0.0864 0.3961
H18 H 2.0934 0.0467 0.3714
H19 H 2.1503 0.1183 0.4516
loop_
_geom_bond_atom_site_label_1
_geom_bond_atom_site_label_2
_geom_bond_site_symmetry_1
_geom_bond_site_symmetry_2
Zn1 Br1 1_555 1_555
Zn2 O1 1_555 1_555
O1 C7 1_555 1_555
O2 C7 1_555 1_555
O3 C8 1_555 1_555
O4 C8 1_555 1_555
C1 C2 1_555 1_555
C2 H1 1_555 1_555
C3 C2 1_555 1_555
H2 C3 1_555 1_555
C4 C3 1_555 1_555
C5 C4 1_555 1_555
H3 C5 1_555 1_555
C6 C1 1_555 1_555
H4 C6 1_555 1_555
C7 C1 1_555 1_555
C8 C4 1_555 1_555
O5 Zn1 1_555 1_555
O6 C12 1_555 1_555
C9 C10 1_555 1_555
C10 H5 1_555 1_555
C11 C10 1_555 1_555
H6 C11 1_555 1_555
C12 O5 1_555 1_555
N1 H7 1_555 1_555
N2 H8 1_555 1_555
C13 N1 1_555 1_555
C14 N1 1_555 1_555
H9 C14 1_555 1_555
C15 N2 1_555 1_555
C16 C13 1_555 1_555
H10 C16 1_555 1_555
H11 C16 1_555 1_555
H12 C16 1_555 1_555
C17 C15 1_555 1_555
H13 C17 1_555 1_555
H14 C17 1_555 1_555
C18 C17 1_555 1_555
H15 C18 1_555 1_555
H16 C18 1_555 1_555
C19 C18 1_555 1_555
H17 C19 1_555 1_555
H18 C19 1_555 1_555
H19 C19 1_555 1_555
O5B C12B 1_555 1_555
O6B C12B 1_555 1_555
C9B C11 1_555 1_555
C10B C9B 1_555 1_555
H5B C10B 1_555 1_555
C11B C9 1_555 1_555
H6B C11B 1_555 1_555
C12B C9B 1_555 1_555
Zn1B O2 1_555 1_555
Br1B Zn1B 1_555 1_555
O1B Zn2 1_555 1_555
O2B Zn1 1_555 1_555
O3B C8B 1_555 1_555
O4B C8B 1_555 1_555
C1B C2B 1_555 1_555
C2B H1B 1_555 1_555
C3B C2B 1_555 1_555
H2B C3B 1_555 1_555
C4B C3B 1_555 1_555
C5B C4B 1_555 1_555
H3B C5B 1_555 1_555
C6B C1B 1_555 1_555
H4B C6B 1_555 1_555
C7B O1B 1_555 1_555
C8B C4B 1_555 1_555
Zn1A O4 1_555 1_555
Zn1B_2 O5B 1_555 1_555
Zn1C O4B 1_555 1_555
Zn2_2 O5B 1_555 1_555
Zn2A O3B 1_555 1_555
Zn2A_2 O3 1_555 1_555
O3A Zn2 1_555 1_555
O3C Zn2 1_555 1_555
O4A Zn1 1_555 1_555
O4C Zn1B 1_555 1_555
O5B_2 Zn2 1_555 1_555
Zn2 O5 1_555 1_555
C5 C6 1_555 1_555
C9 C12 1_555 1_555
N2 C13 1_555 1_555
C14 C15 1_555 1_555
C10B C11B 1_555 1_555
Zn1B O5B_2 1_555 1_555
O2B C7B 1_555 1_555
C1B C7B 1_555 1_555
C5B C6B 1_555 1_555

#END
