
#######################################################################
#
#                 Cambridge Crystallographic Data Centre
#                                CCDC 
#
#######################################################################
#
# If this CIF has been generated from an entry in the Cambridge 
# Structural Database, then it will include bibliographic, chemical, 
# crystal, experimental, refinement or atomic coordinate data resulting 
# from the CCDC's data processing and validation procedures.
#
#######################################################################

data_QUGVIZ
_symmetry_cell_setting           monoclinic
_symmetry_space_group_name_H-M   'P 21/n'
_symmetry_Int_Tables_number      14
_space_group_name_Hall           '-P 2yn'
loop_
_symmetry_equiv_pos_site_id
_symmetry_equiv_pos_as_xyz
1 x,y,z
2 1/2-x,1/2+y,1/2-z
3 -x,-y,-z
4 1/2+x,1/2-y,1/2+z
_cell_length_a                   12.9467(5)
_cell_length_b                   9.4171(3)
_cell_length_c                   18.3370(7)
_cell_angle_alpha                90
_cell_angle_beta                 108.906(4)
_cell_angle_gamma                90
_cell_volume                     2115.04
loop_
_atom_site_label
_atom_site_type_symbol
_atom_site_fract_x
_atom_site_fract_y
_atom_site_fract_z
Zn1 Zn 0.79992(4) 0.96435(6) 0.07148(3)
Zn2 Zn 1.0000 1.0000 0.0000
Br1 Br 0.65501(5) 0.84604(8) 0.09624(4)
O1 O 0.8903(3) 1.0733(4) 0.15951(18)
O2 O 1.0241(3) 1.0898(4) 0.10704(18)
O3 O 1.2300(3) 1.4065(4) 0.48557(18)
O4 O 1.3722(2) 1.3754(4) 0.44316(18)
C1 C 1.0609(4) 1.1680(5) 0.2339(2)
C2 C 1.1720(4) 1.1846(6) 0.2441(3)
H1 H 1.1995 1.1535 0.2059
C3 C 1.2408(4) 1.2459(6) 0.3094(3)
H2 H 1.3143 1.2579 0.3151
C4 C 1.2004(4) 1.2900(5) 0.3671(2)
C5 C 1.0908(4) 1.2739(6) 0.3579(3)
H3 H 1.0635 1.3056 0.3961
C6 C 1.0215(4) 1.2106(6) 0.2920(3)
H4 H 0.9483 1.1969 0.2868
C7 C 0.9869(4) 1.1053(5) 0.1614(2)
C8 C 1.2746(4) 1.3629(5) 0.4375(2)
O5 O 1.1088(2) 1.1543(3) -0.02758(17)
O6 O 1.0596(3) 1.2646(4) -0.1410(2)
C9 C 1.0316(4) 1.3838(5) -0.0349(3)
C10 C 1.0608(4) 1.3930(5) 0.0449(3)
H5 H 1.1015 1.3205 0.0754
C11 C 0.9695(4) 1.4929(5) -0.0790(3)
H6 H 0.9484 1.4880 -0.1324
C12 C 1.0671(4) 1.2627(5) -0.0721(3)
O5B O 0.8912(2) 1.8457(3) 0.02758(17)
O6B O 0.9404(3) 1.7354(4) 0.1410(2)
C9B C 0.9684(4) 1.6162(5) 0.0349(3)
C10B C 0.9392(4) 1.6070(5) -0.0449(3)
H5B H 0.8985 1.6795 -0.0754
C11B C 1.0305(4) 1.5071(5) 0.0790(3)
H6B H 1.0516 1.5120 0.1324
C12B C 0.9329(4) 1.7373(5) 0.0721(3)
Zn1B Zn 1.20008(4) 1.03565(6) -0.07148(3)
Br1B Br 1.34499(5) 1.15396(8) -0.09624(4)
O1B O 1.1097(3) 0.9267(4) -0.15951(18)
O2B O 0.9759(3) 0.9102(4) -0.10704(18)
O3B O 0.7700(3) 0.5935(4) -0.48557(18)
O4B O 0.6278(2) 0.6246(4) -0.44316(18)
C1B C 0.9391(4) 0.8320(5) -0.2339(2)
C2B C 0.8280(4) 0.8154(6) -0.2441(3)
H1B H 0.8005 0.8465 -0.2059
C3B C 0.7592(4) 0.7541(6) -0.3094(3)
H2B H 0.6857 0.7421 -0.3151
C4B C 0.7996(4) 0.7100(5) -0.3671(2)
C5B C 0.9092(4) 0.7261(6) -0.3579(3)
H3B H 0.9365 0.6944 -0.3961
C6B C 0.9785(4) 0.7894(6) -0.2920(3)
H4B H 1.0517 0.8031 -0.2868
C7B C 1.0131(4) 0.8947(5) -0.1614(2)
C8B C 0.7254(4) 0.6371(5) -0.4375(2)
Zn1_2 Zn 0.79992(4) 1.96435(6) 0.07148(3)
Zn1A Zn 0.70008(4) 0.46435(6) -0.57148(3)
Zn1C Zn 1.29992(4) 1.53565(6) 0.57148(3)
Zn2_2 Zn 1.0000 2.0000 0.0000
Zn2A Zn 0.5000 0.5000 -0.5000
Zn2A_2 Zn 1.5000 1.5000 0.5000
O3A O 1.2700(3) 0.9065(4) 0.01443(18)
O3C O 0.7300(3) 1.0935(4) -0.01443(18)
O4A O 1.1278(2) 0.8754(4) 0.05684(18)
O4C O 0.8722(2) 1.1246(4) -0.05684(18)
O5B_2 O 0.8912(2) 0.8457(3) 0.02758(17)
N1 N 0.8013(6) 0.9069(8) 0.3255(5)
N2 N 0.9360(5) 0.7626(7) 0.3518(3)
C13 C 0.8769(7) 0.8505(10) 0.2985(4)
H7 H 0.8860 0.8698 0.2512
C14 C 0.8131(8) 0.8588(11) 0.3924(6)
H8 H 0.7722 0.8850 0.4236
C15 C 0.8940(9) 0.7647(10) 0.4103(4)
H9 H 0.9174 0.7102 0.4549
C16 C 0.7122(11) 0.9955(16) 0.2920(9)
H10 H 0.6738 1.0122 0.3280
H11 H 0.6640 0.9510 0.2465
H12 H 0.7374 1.0843 0.2783
C17 C 1.0312(9) 0.6791(15) 0.3499(7)
H13 H 1.0406 0.5991 0.3848
H14 H 1.0177 0.6418 0.2983
C18 C 1.1275(10) 0.7592(18) 0.3709(8)
H15 H 1.1871 0.7005 0.3688
H16 H 1.1423 0.7946 0.4224
H17 H 1.1192 0.8375 0.3360
loop_
_geom_bond_atom_site_label_1
_geom_bond_atom_site_label_2
_geom_bond_site_symmetry_1
_geom_bond_site_symmetry_2
Zn1 Br1 1_555 1_555
Zn2 O2 1_555 1_555
O1 Zn1 1_555 1_555
O2 C7 1_555 1_555
O3 C8 1_555 1_555
O4 C8 1_555 1_555
C1 C2 1_555 1_555
C2 H1 1_555 1_555
C3 C2 1_555 1_555
H2 C3 1_555 1_555
C4 C3 1_555 1_555
C5 C4 1_555 1_555
H3 C5 1_555 1_555
C6 C1 1_555 1_555
H4 C6 1_555 1_555
C7 O1 1_555 1_555
C8 C4 1_555 1_555
O5 Zn2 1_555 1_555
O6 C12 1_555 1_555
C9 C10 1_555 1_555
C10 H5 1_555 1_555
C11 C9 1_555 1_555
H6 C11 1_555 1_555
C12 O5 1_555 1_555
N1 C13 1_555 1_555
N2 C13 1_555 1_555
C13 H7 1_555 1_555
C14 N1 1_555 1_555
H8 C14 1_555 1_555
C15 N2 1_555 1_555
H9 C15 1_555 1_555
C16 N1 1_555 1_555
H10 C16 1_555 1_555
H11 C16 1_555 1_555
H12 C16 1_555 1_555
C17 N2 1_555 1_555
H13 C17 1_555 1_555
H14 C17 1_555 1_555
C18 C17 1_555 1_555
H15 C18 1_555 1_555
H16 C18 1_555 1_555
H17 C18 1_555 1_555
O5B C12B 1_555 1_555
O6B C12B 1_555 1_555
C9B C10B 1_555 1_555
C10B C11 1_555 1_555
H5B C10B 1_555 1_555
C11B C10 1_555 1_555
H6B C11B 1_555 1_555
C12B C9B 1_555 1_555
Zn1B O5 1_555 1_555
Br1B Zn1B 1_555 1_555
O1B Zn1B 1_555 1_555
O2B Zn2 1_555 1_555
O3B C8B 1_555 1_555
O4B C8B 1_555 1_555
C1B C2B 1_555 1_555
C2B H1B 1_555 1_555
C3B C2B 1_555 1_555
H2B C3B 1_555 1_555
C4B C3B 1_555 1_555
C5B C4B 1_555 1_555
H3B C5B 1_555 1_555
C6B C1B 1_555 1_555
H4B C6B 1_555 1_555
C7B O1B 1_555 1_555
C8B C4B 1_555 1_555
Zn1_2 O5B 1_555 1_555
Zn1A O3B 1_555 1_555
Zn1C O3 1_555 1_555
Zn2_2 O5B 1_555 1_555
Zn2A O4B 1_555 1_555
Zn2A_2 O4 1_555 1_555
O3A Zn1B 1_555 1_555
O3C Zn1 1_555 1_555
O4A Zn2 1_555 1_555
O4C Zn2 1_555 1_555
O5B_2 Zn1 1_555 1_555
Zn2 O5B_2 1_555 1_555
C1 C7 1_555 1_555
C5 C6 1_555 1_555
C9 C12 1_555 1_555
C14 C15 1_555 1_555
C9B C11B 1_555 1_555
O2B C7B 1_555 1_555
C1B C7B 1_555 1_555
C5B C6B 1_555 1_555

#END
