
#######################################################################
#
#                 Cambridge Crystallographic Data Centre
#                                CCDC 
#
#######################################################################
#
# If this CIF has been generated from an entry in the Cambridge 
# Structural Database, then it will include bibliographic, chemical, 
# crystal, experimental, refinement or atomic coordinate data resulting 
# from the CCDC's data processing and validation procedures.
#
#######################################################################

data_QUGVUL
_symmetry_cell_setting           monoclinic
_symmetry_space_group_name_H-M   'P 21/n'
_symmetry_Int_Tables_number      14
_space_group_name_Hall           '-P 2yn'
loop_
_symmetry_equiv_pos_site_id
_symmetry_equiv_pos_as_xyz
1 x,y,z
2 1/2-x,1/2+y,1/2-z
3 -x,-y,-z
4 1/2+x,1/2-y,1/2+z
_cell_length_a                   13.1135(14)
_cell_length_b                   9.7503(6)
_cell_length_c                   18.2437(18)
_cell_angle_alpha                90
_cell_angle_beta                 110.202(12)
_cell_angle_gamma                90
_cell_volume                     2189.15
loop_
_atom_site_label
_atom_site_type_symbol
_atom_site_fract_x
_atom_site_fract_y
_atom_site_fract_z
Zn1 Zn 0.30779(5) 0.45106(6) 0.07260(3)
Zn2 Zn 0.5000 0.5000 0.0000
Br1 Br 0.16671(6) 0.34571(9) 0.10415(5)
O1 O 0.5287(4) 0.5809(4) 0.1103(2)
O2 O 0.3974(3) 0.5633(4) 0.1607(2)
O3 O 0.8698(3) 0.8804(4) 0.4468(2)
O4 O 0.7296(3) 0.9275(4) 0.4847(2)
C1 C 0.5621(5) 0.6692(6) 0.2343(3)
C2 C 0.5216(5) 0.7215(6) 0.2896(4)
H1 H 0.4483 0.7112 0.2826
C3 C 0.5890(5) 0.7883(6) 0.3547(3)
H2 H 0.5603 0.8246 0.3906
C4 C 0.6978(4) 0.8023(5) 0.3676(3)
C5 C 0.7396(5) 0.7496(7) 0.3133(4)
H3 H 0.8133 0.7585 0.3211
C6 C 0.6710(5) 0.6833(7) 0.2472(4)
H4 H 0.6995 0.6478 0.2110
C7 C 0.4903(5) 0.5992(5) 0.1634(3)
C8 C 0.7720(5) 0.8764(5) 0.4380(3)
O5 O 0.3963(3) 0.3400(3) 0.0249(2)
O6 O 0.4431(4) 0.2335(4) 0.1383(3)
C9 C 0.4726(5) 0.1170(5) 0.0332(4)
C10 C 0.5197(6) 0.0035(6) 0.0791(4)
H5 H 0.5325 0.0051 0.1325
C11 C 0.5473(6) -0.1105(6) 0.0459(4)
H6 H 0.5800 -0.1846 0.0773
C12 C 0.4383(5) 0.2366(5) 0.0710(4)
O5B O 0.6037(3) -0.3400(3) -0.0249(2)
O6B O 0.5569(4) -0.2335(4) -0.1383(3)
C9B C 0.5274(5) -0.1170(5) -0.0332(4)
C10B C 0.4803(6) -0.0035(6) -0.0791(4)
H5B H 0.4675 -0.0051 -0.1325
C11B C 0.4527(6) 0.1105(6) -0.0459(4)
H6B H 0.4200 0.1846 -0.0773
C12B C 0.5617(5) -0.2366(5) -0.0710(4)
Zn1B Zn 0.69221(5) -0.45106(6) -0.07260(3)
Br1B Br 0.83329(6) -0.34571(9) -0.10415(5)
O1B O 0.4713(4) -0.5809(4) -0.1103(2)
O2B O 0.6026(3) -0.5633(4) -0.1607(2)
O3B O 0.1302(3) -0.8804(4) -0.4468(2)
O4B O 0.2704(3) -0.9275(4) -0.4847(2)
C1B C 0.4379(5) -0.6692(6) -0.2343(3)
C2B C 0.4784(5) -0.7215(6) -0.2896(4)
H1B H 0.5517 -0.7112 -0.2826
C3B C 0.4110(5) -0.7883(6) -0.3547(3)
H2B H 0.4397 -0.8246 -0.3906
C4B C 0.3022(4) -0.8023(5) -0.3676(3)
C5B C 0.2604(5) -0.7496(7) -0.3133(4)
H3B H 0.1867 -0.7585 -0.3211
C6B C 0.3290(5) -0.6833(7) -0.2472(4)
H4B H 0.3005 -0.6478 -0.2110
C7B C 0.5097(5) -0.5992(5) -0.1634(3)
C8B C 0.2280(5) -0.8764(5) -0.4380(3)
Zn1A Zn 0.19221(5) -1.04894(6) -0.57260(3)
Zn1C Zn 0.80779(5) 1.04894(6) 0.57260(3)
Zn2_2 Zn 0.5000 -0.5000 0.0000
Zn2A Zn 0.0000 -1.0000 -0.5000
Zn2A_2 Zn 1.0000 1.0000 0.5000
O1B_2 O 0.4713(4) 0.4191(4) -0.1103(2)
O3A O 0.6302(3) 0.3804(4) 0.0532(2)
O3C O 0.3698(3) 0.6196(4) -0.0532(2)
O4A O 0.7704(3) -0.5725(4) 0.0153(2)
O4C O 0.2296(3) 0.5725(4) -0.0153(2)
O5B_2 O 0.6037(3) 0.6600(3) -0.0249(2)
N1 N 0.2147(9) 0.8849(11) 0.1694(7)
N2 N 0.0957(10) 0.7522(12) 0.1582(7)
C13 C 0.1320(13) 0.8358(15) 0.1985(10)
H7 H 0.1143 0.8672 0.2408
C14 C 0.1863(14) 0.8251(16) 0.0996(11)
H8 H 0.2137 0.8484 0.0606
C15 C 0.1068(12) 0.7189(14) 0.0931(8)
H9 H 0.0755 0.6518 0.0559
C16 C 0.2753(16) 1.0017(18) 0.1947(12)
H10 H 0.3250 1.0125 0.1669
H11 H 0.3153 0.9945 0.2496
H12 H 0.2279 1.0798 0.1852
C17 C 0.0042(15) 0.6870(19) 0.1655(12)
H13 H -0.0059 0.6122 0.1286
H14 H 0.0358 0.6440 0.2163
C18 C -0.1025(17) 0.708(2) 0.1627(14)
H15 H -0.1056 0.6917 0.2143
H16 H -0.1489 0.6406 0.1277
C19 C -0.146(2) 0.845(2) 0.1368(15)
H17 H -0.1039 0.9041 0.1793
H18 H -0.2181 0.8424 0.1400
C20 C -0.1619(17) 0.940(2) 0.0572(13)
H19 H -0.1899 1.0283 0.0634
H20 H -0.2119 0.8949 0.0123
H21 H -0.0930 0.9505 0.0502
loop_
_geom_bond_atom_site_label_1
_geom_bond_atom_site_label_2
_geom_bond_site_symmetry_1
_geom_bond_site_symmetry_2
Zn1 Br1 1_555 1_555
Zn2 O1 1_555 1_555
O1 C7 1_555 1_555
O2 Zn1 1_555 1_555
O3 C8 1_555 1_555
O4 C8 1_555 1_555
C1 C2 1_555 1_555
C2 H1 1_555 1_555
C3 C2 1_555 1_555
H2 C3 1_555 1_555
C4 C3 1_555 1_555
C5 C4 1_555 1_555
H3 C5 1_555 1_555
C6 C1 1_555 1_555
H4 C6 1_555 1_555
C7 O2 1_555 1_555
C8 C4 1_555 1_555
O5 Zn1 1_555 1_555
O6 C12 1_555 1_555
C9 C10 1_555 1_555
C10 H5 1_555 1_555
C11 C10 1_555 1_555
H6 C11 1_555 1_555
C12 O5 1_555 1_555
N1 C13 1_555 1_555
N2 C13 1_555 1_555
C13 H7 1_555 1_555
C14 N1 1_555 1_555
H8 C14 1_555 1_555
C15 N2 1_555 1_555
H9 C15 1_555 1_555
C16 N1 1_555 1_555
H10 C16 1_555 1_555
H11 C16 1_555 1_555
H12 C16 1_555 1_555
C17 N2 1_555 1_555
H13 C17 1_555 1_555
H14 C17 1_555 1_555
C18 C17 1_555 1_555
H15 C18 1_555 1_555
H16 C18 1_555 1_555
C19 C18 1_555 1_555
H17 C19 1_555 1_555
H18 C19 1_555 1_555
C20 C19 1_555 1_555
H19 C20 1_555 1_555
H20 C20 1_555 1_555
H21 C20 1_555 1_555
O5B C12B 1_555 1_555
O6B C12B 1_555 1_555
C9B C11 1_555 1_555
C10B C9B 1_555 1_555
H5B C10B 1_555 1_555
C11B C9 1_555 1_555
H6B C11B 1_555 1_555
C12B C9B 1_555 1_555
Zn1B O5B 1_555 1_555
Br1B Zn1B 1_555 1_555
O1B C7B 1_555 1_555
O2B Zn1B 1_555 1_555
O3B C8B 1_555 1_555
O4B C8B 1_555 1_555
C1B C2B 1_555 1_555
C2B H1B 1_555 1_555
C3B C2B 1_555 1_555
H2B C3B 1_555 1_555
C4B C3B 1_555 1_555
C5B C4B 1_555 1_555
H3B C5B 1_555 1_555
C6B C1B 1_555 1_555
H4B C6B 1_555 1_555
C7B O2B 1_555 1_555
C8B C4B 1_555 1_555
Zn1A O4B 1_555 1_555
Zn1C O4 1_555 1_555
Zn2_2 O5B 1_555 1_555
Zn2A O3B 1_555 1_555
Zn2A_2 O3 1_555 1_555
O1B_2 Zn2 1_555 1_555
O3A Zn2 1_555 1_555
O3C Zn2 1_555 1_555
O4A Zn1B 1_555 1_555
O4C Zn1 1_555 1_555
O5B_2 Zn2 1_555 1_555
Zn2 O5 1_555 1_555
C1 C7 1_555 1_555
C5 C6 1_555 1_555
C9 C12 1_555 1_555
C14 C15 1_555 1_555
C10B C11B 1_555 1_555
O1B Zn2_2 1_555 1_555
C1B C7B 1_555 1_555
C5B C6B 1_555 1_555

#END
