
#######################################################################
#
#                 Cambridge Crystallographic Data Centre
#                                CCDC 
#
#######################################################################
#
# If this CIF has been generated from an entry in the Cambridge 
# Structural Database, then it will include bibliographic, chemical, 
# crystal, experimental, refinement or atomic coordinate data resulting 
# from the CCDC's data processing and validation procedures.
#
#######################################################################

data_QUGWEW
_symmetry_cell_setting           monoclinic
_symmetry_space_group_name_H-M   'P 21/n'
_symmetry_Int_Tables_number      14
_space_group_name_Hall           '-P 2yn'
loop_
_symmetry_equiv_pos_site_id
_symmetry_equiv_pos_as_xyz
1 x,y,z
2 1/2-x,1/2+y,1/2-z
3 -x,-y,-z
4 1/2+x,1/2-y,1/2+z
_cell_length_a                   13.2282(8)
_cell_length_b                   9.3686(3)
_cell_length_c                   18.6590(7)
_cell_angle_alpha                90
_cell_angle_beta                 110.270(5)
_cell_angle_gamma                90
_cell_volume                     2169.2
loop_
_atom_site_label
_atom_site_type_symbol
_atom_site_fract_x
_atom_site_fract_y
_atom_site_fract_z
Zn1 Zn 0.80504(5) 0.96751(7) 0.06861(3)
Zn2 Zn 1.0000 1.0000 0.0000
I1 I 0.64947(5) 0.83850(7) 0.09152(4)
O1 O 0.8954(3) 1.0785(4) 0.1553(2)
O2 O 1.0261(4) 1.0925(4) 0.1054(2)
O3 O 1.2352(3) 1.4019(5) 0.4832(2)
O4 O 1.3731(3) 1.3751(5) 0.4426(2)
C1 C 1.0652(5) 1.1718(6) 0.2310(3)
C2 C 1.0273(5) 1.2112(8) 0.2882(4)
H1 H 0.9553 1.1963 0.2821
C3 C 1.0960(5) 1.2731(8) 0.3550(4)
H2 H 1.0695 1.3025 0.3927
C4 C 1.2037(5) 1.2909(6) 0.3652(3)
C5 C 1.2406(5) 1.2487(7) 0.3076(3)
H3 H 1.3130 1.2602 0.3138
C6 C 1.1720(5) 1.1903(8) 0.2416(4)
H4 H 1.1982 1.1627 0.2034
C7 C 0.9900(5) 1.1089(6) 0.1580(3)
C8 C 1.2768(5) 1.3615(6) 0.4360(3)
O5 O 0.8935(3) 0.8469(4) 0.0269(2)
O6 O 0.9413(5) 0.7346(5) 0.1384(3)
C9 C 0.9686(5) 0.6147(6) 0.0334(3)
C10 C 1.0335(6) 0.5092(6) 0.0785(4)
H5 H 1.0564 0.5161 0.1315
C11 C 0.9358(5) 0.6059(6) -0.0449(4)
H6 H 0.8930 0.6774 -0.0750
C12 C 0.9348(5) 0.7380(6) 0.0720(4)
O5B O 1.1065(3) 0.1531(4) -0.0269(2)
O6B O 1.0587(5) 0.2654(5) -0.1384(3)
C9B C 1.0314(5) 0.3853(6) -0.0334(3)
C10B C 0.9665(6) 0.4908(6) -0.0785(4)
H5B H 0.9436 0.4839 -0.1315
C11B C 1.0642(5) 0.3941(6) 0.0449(4)
H6B H 1.1070 0.3226 0.0750
C12B C 1.0652(5) 0.2620(6) -0.0720(4)
Zn1B Zn 1.19496(5) 0.03249(7) -0.06861(3)
I1B I 1.35053(5) 0.16150(7) -0.09152(4)
O1B O 1.1046(3) -0.0785(4) -0.1553(2)
O2B O 0.9739(4) -0.0925(4) -0.1054(2)
O3B O 0.7648(3) -0.4019(5) -0.4832(2)
O4B O 0.6269(3) -0.3751(5) -0.4426(2)
C1B C 0.9348(5) -0.1718(6) -0.2310(3)
C2B C 0.9727(5) -0.2112(8) -0.2882(4)
H1B H 1.0447 -0.1963 -0.2821
C3B C 0.9040(5) -0.2731(8) -0.3550(4)
H2B H 0.9305 -0.3025 -0.3927
C4B C 0.7963(5) -0.2909(6) -0.3652(3)
C5B C 0.7594(5) -0.2487(7) -0.3076(3)
H3B H 0.6870 -0.2602 -0.3138
C6B C 0.8280(5) -0.1903(8) -0.2416(4)
H4B H 0.8018 -0.1627 -0.2034
C7B C 1.0100(5) -0.1089(6) -0.1580(3)
C8B C 0.7232(5) -0.3615(6) -0.4360(3)
Zn1A Zn 0.69496(5) -0.53249(7) -0.56861(3)
Zn1C Zn 1.30504(5) 1.53249(7) 0.56861(3)
Zn2_2 Zn 1.0000 0.0000 0.0000
Zn2A Zn 0.5000 -0.5000 -0.5000
Zn2A_2 Zn 1.5000 1.5000 0.5000
O2B_2 O 0.9739(4) 0.9075(4) -0.1054(2)
O3A O 1.2648(3) -0.0981(5) 0.0168(2)
O3C O 0.7352(3) 1.0981(5) -0.0168(2)
O4A O 1.1269(3) 0.8751(5) 0.0574(2)
O4C O 0.8731(3) 1.1249(5) -0.0574(2)
O5B_2 O 1.1065(3) 1.1531(4) -0.0269(2)
N1 N 0.6893(8) 1.3659(10) 0.1198(7)
N2 N 0.5693(7) 1.2616(9) 0.1512(4)
C13 C 0.6136(10) 1.2729(12) 0.0989(6)
H7 H 0.5934 1.2215 0.0535
C14 C 0.6988(13) 1.4135(15) 0.1849(8)
H8 H 0.7502 1.4783 0.2136
C15 C 0.6216(12) 1.3537(16) 0.2051(7)
H9 H 0.6068 1.3732 0.2494
C16 C 0.7586(14) 1.4145(14) 0.0783(10)
H10 H 0.8069 1.4867 0.1075
H11 H 0.7150 1.4533 0.0298
H12 H 0.7996 1.3353 0.0703
C17 C 0.4766(13) 1.1670(16) 0.1485(10)
H13 H 0.4619 1.1009 0.1061
H14 H 0.4952 1.1118 0.1953
C18 C 0.3859(15) 1.248(2) 0.1400(11)
H15 H 0.3276 1.1865 0.1393
H16 H 0.3663 1.3002 0.0928
H17 H 0.4008 1.3138 0.1818
loop_
_geom_bond_atom_site_label_1
_geom_bond_atom_site_label_2
_geom_bond_site_symmetry_1
_geom_bond_site_symmetry_2
Zn1 I1 1_555 1_555
Zn2 O2 1_555 1_555
O1 Zn1 1_555 1_555
O2 C7 1_555 1_555
O3 C8 1_555 1_555
O4 C8 1_555 1_555
C1 C2 1_555 1_555
C2 H1 1_555 1_555
C3 C2 1_555 1_555
H2 C3 1_555 1_555
C4 C3 1_555 1_555
C5 C4 1_555 1_555
H3 C5 1_555 1_555
C6 C1 1_555 1_555
H4 C6 1_555 1_555
C7 O1 1_555 1_555
C8 C4 1_555 1_555
O5 Zn1 1_555 1_555
O6 C12 1_555 1_555
C9 C10 1_555 1_555
C10 H5 1_555 1_555
C11 C9 1_555 1_555
H6 C11 1_555 1_555
C12 O5 1_555 1_555
N1 C13 1_555 1_555
N2 C13 1_555 1_555
C13 H7 1_555 1_555
C14 N1 1_555 1_555
H8 C14 1_555 1_555
C15 N2 1_555 1_555
H9 C15 1_555 1_555
C16 N1 1_555 1_555
H10 C16 1_555 1_555
H11 C16 1_555 1_555
H12 C16 1_555 1_555
C17 N2 1_555 1_555
H13 C17 1_555 1_555
H14 C17 1_555 1_555
C18 C17 1_555 1_555
H15 C18 1_555 1_555
H16 C18 1_555 1_555
H17 C18 1_555 1_555
O5B C12B 1_555 1_555
O6B C12B 1_555 1_555
C9B C10B 1_555 1_555
C10B C11 1_555 1_555
H5B C10B 1_555 1_555
C11B C10 1_555 1_555
H6B C11B 1_555 1_555
C12B C9B 1_555 1_555
Zn1B O5B 1_555 1_555
I1B Zn1B 1_555 1_555
O1B Zn1B 1_555 1_555
O2B C7B 1_555 1_555
O3B C8B 1_555 1_555
O4B C8B 1_555 1_555
C1B C2B 1_555 1_555
C2B H1B 1_555 1_555
C3B C2B 1_555 1_555
H2B C3B 1_555 1_555
C4B C3B 1_555 1_555
C5B C4B 1_555 1_555
H3B C5B 1_555 1_555
C6B C1B 1_555 1_555
H4B C6B 1_555 1_555
C7B O1B 1_555 1_555
C8B C4B 1_555 1_555
Zn1A O3B 1_555 1_555
Zn1C O3 1_555 1_555
Zn2_2 O5B 1_555 1_555
Zn2A O4B 1_555 1_555
Zn2A_2 O4 1_555 1_555
O2B_2 Zn2 1_555 1_555
O3A Zn1B 1_555 1_555
O3C Zn1 1_555 1_555
O4A Zn2 1_555 1_555
O4C Zn2 1_555 1_555
O5B_2 Zn2 1_555 1_555
Zn2 O5 1_555 1_555
C1 C7 1_555 1_555
C5 C6 1_555 1_555
C9 C12 1_555 1_555
C14 C15 1_555 1_555
C9B C11B 1_555 1_555
O2B Zn2_2 1_555 1_555
C1B C7B 1_555 1_555
C5B C6B 1_555 1_555

#END
