
#######################################################################
#
#                 Cambridge Crystallographic Data Centre
#                                CCDC 
#
#######################################################################
#
# If this CIF has been generated from an entry in the Cambridge 
# Structural Database, then it will include bibliographic, chemical, 
# crystal, experimental, refinement or atomic coordinate data resulting 
# from the CCDC's data processing and validation procedures.
#
#######################################################################

data_QUGWUM
_symmetry_cell_setting           monoclinic
_symmetry_space_group_name_H-M   'P 21/c'
_symmetry_Int_Tables_number      14
_space_group_name_Hall           '-P 2ybc'
loop_
_symmetry_equiv_pos_site_id
_symmetry_equiv_pos_as_xyz
1 x,y,z
2 -x,1/2+y,1/2-z
3 -x,-y,-z
4 x,1/2-y,1/2+z
_cell_length_a                   13.3605(10)
_cell_length_b                   9.8772(4)
_cell_length_c                   18.3026(9)
_cell_angle_alpha                90
_cell_angle_beta                 108.303(7)
_cell_angle_gamma                90
_cell_volume                     2293.1
loop_
_atom_site_label
_atom_site_type_symbol
_atom_site_fract_x
_atom_site_fract_y
_atom_site_fract_z
Zn1 Zn 0.25264(5) 0.94764(6) 0.05761(3)
Zn2 Zn 0.0000 1.0000 0.0000
I1 I 0.42857(4) 0.82941(5) 0.07085(3)
O1 O 0.2629(3) 1.0607(4) 0.14900(19)
O2 O 0.0887(3) 1.0875(4) 0.10178(19)
O3 O 0.2409(3) 1.4255(4) 0.4718(2)
O4 O 0.0681(3) 1.3915(4) 0.4347(2)
C1 C 0.1726(5) 1.1756(6) 0.2242(3)
C2 C 0.2631(5) 1.2258(6) 0.2764(3)
H1 H 0.3277 1.2161 0.2677
C3 C 0.2570(5) 1.2914(6) 0.3424(3)
H2 H 0.3180 1.3258 0.3775
C4 C 0.1636(5) 1.3058(5) 0.3562(3)
C5 C 0.0714(5) 1.2563(6) 0.3035(3)
H3 H 0.0070 1.2667 0.3123
C6 C 0.0771(5) 1.1914(6) 0.2378(3)
H4 H 0.0159 1.1580 0.2023
C7 C 0.1746(5) 1.1012(5) 0.1522(3)
C8 C 0.1567(5) 1.3817(6) 0.4265(3)
O5 O 0.1214(3) 0.8372(3) 0.02059(19)
O6 O 0.1865(4) 0.7311(4) 0.1320(2)
C9 C 0.0546(5) 0.6161(5) 0.0321(3)
C10 C -0.0043(5) 0.6125(6) -0.0444(3)
H5 H -0.0078 0.6888 -0.0749
C11 C 0.0578(5) 0.5022(6) 0.0763(3)
H6 H 0.0968 0.5033 0.1283
C12 C 0.1257(5) 0.7341(6) 0.0666(3)
O5B O -0.1214(3) 0.1628(3) -0.02059(19)
O6B O -0.1865(4) 0.2689(4) -0.1320(2)
C9B C -0.0546(5) 0.3839(5) -0.0321(3)
C10B C 0.0043(5) 0.3875(6) 0.0444(3)
H5B H 0.0078 0.3112 0.0749
C11B C -0.0578(5) 0.4978(6) -0.0763(3)
H6B H -0.0968 0.4967 -0.1283
C12B C -0.1257(5) 0.2659(6) -0.0666(3)
Zn1B Zn -0.25264(5) 0.05236(6) -0.05761(3)
I1B I -0.42857(4) 0.17059(5) -0.07085(3)
O1B O -0.2629(3) -0.0607(4) -0.14900(19)
O2B O -0.0887(3) -0.0875(4) -0.10178(19)
O3B O -0.2409(3) -0.4255(4) -0.4718(2)
O4B O -0.0681(3) -0.3915(4) -0.4347(2)
C1B C -0.1726(5) -0.1756(6) -0.2242(3)
C2B C -0.2631(5) -0.2258(6) -0.2764(3)
H1B H -0.3277 -0.2161 -0.2677
C3B C -0.2570(5) -0.2914(6) -0.3424(3)
H2B H -0.3180 -0.3258 -0.3775
C4B C -0.1636(5) -0.3058(5) -0.3562(3)
C5B C -0.0714(5) -0.2563(6) -0.3035(3)
H3B H -0.0070 -0.2667 -0.3123
C6B C -0.0771(5) -0.1914(6) -0.2378(3)
H4B H -0.0159 -0.1580 -0.2023
C7B C -0.1746(5) -0.1012(5) -0.1522(3)
C8B C -0.1567(5) -0.3817(6) -0.4265(3)
Zn1A Zn -0.25264(5) -0.55236(6) -0.55761(3)
Zn1C Zn 0.25264(5) 1.55236(6) 0.55761(3)
Zn2_2 Zn 0.0000 0.0000 0.0000
Zn2A Zn 0.0000 -0.5000 -0.5000
Zn2A_2 Zn 0.0000 1.5000 0.5000
O2B_2 O -0.0887(3) 0.9125(4) -0.10178(19)
O3A O -0.2409(3) -0.0745(4) 0.0282(2)
O3C O 0.2409(3) 1.0745(4) -0.0282(2)
O4A O -0.0681(3) 0.8915(4) 0.0653(2)
O4C O 0.0681(3) 1.1085(4) -0.0653(2)
O5B_2 O -0.1214(3) 1.1628(3) -0.02059(19)
N1 N 0.5809(5) 1.2998(6) 0.6865(3)
N2 N 0.4457(5) 1.1698(6) 0.6388(3)
C13 C 0.4889(6) 1.2857(8) 0.6320(4)
H7 H 0.4591 1.3497 0.5942
C14 C 0.5959(7) 1.1835(8) 0.7279(4)
H8 H 0.6544 1.1643 0.7701
C15 C 0.5158(7) 1.1025(9) 0.6996(4)
H9 H 0.5077 1.0161 0.7171
C16 C 0.6549(7) 1.4101(8) 0.6950(5)
H10 H 0.6233 1.4806 0.6591
H11 H 0.7173 1.3778 0.6852
H12 H 0.6734 1.4451 0.7465
C17 C 0.3479(7) 1.1153(8) 0.5862(4)
H13 H 0.2956 1.1868 0.5724
H14 H 0.3216 1.0451 0.6124
C18 C 0.3618(6) 1.0584(7) 0.5153(4)
H15 H 0.4196 0.9940 0.5292
H16 H 0.3806 1.1308 0.4862
C19 C 0.2621(6) 0.9873(7) 0.4640(4)
H17 H 0.2423 0.9170 0.4939
H18 H 0.2050 1.0526 0.4493
C20 C 0.2744(6) 0.9254(7) 0.3928(4)
H19 H 0.3317 0.8604 0.4075
H20 H 0.2938 0.9958 0.3628
C21 C 0.1754(7) 0.8542(8) 0.3422(4)
H21 H 0.1882 0.8191 0.2971
H22 H 0.1182 0.9177 0.3273
H23 H 0.1576 0.7812 0.3705
loop_
_geom_bond_atom_site_label_1
_geom_bond_atom_site_label_2
_geom_bond_site_symmetry_1
_geom_bond_site_symmetry_2
Zn1 I1 1_555 1_555
Zn2 O2 1_555 1_555
O1 Zn1 1_555 1_555
O2 C7 1_555 1_555
O3 C8 1_555 1_555
O4 C8 1_555 1_555
C1 C2 1_555 1_555
C2 H1 1_555 1_555
C3 C2 1_555 1_555
H2 C3 1_555 1_555
C4 C3 1_555 1_555
C5 C4 1_555 1_555
H3 C5 1_555 1_555
C6 C1 1_555 1_555
H4 C6 1_555 1_555
C7 O1 1_555 1_555
C8 C4 1_555 1_555
O5 Zn1 1_555 1_555
O6 C12 1_555 1_555
C9 C10 1_555 1_555
C10 H5 1_555 1_555
C11 C9 1_555 1_555
H6 C11 1_555 1_555
C12 O5 1_555 1_555
N1 C13 1_555 1_555
N2 C13 1_555 1_555
C13 H7 1_555 1_555
C14 N1 1_555 1_555
H8 C14 1_555 1_555
C15 N2 1_555 1_555
H9 C15 1_555 1_555
C16 N1 1_555 1_555
H10 C16 1_555 1_555
H11 C16 1_555 1_555
H12 C16 1_555 1_555
C17 N2 1_555 1_555
H13 C17 1_555 1_555
H14 C17 1_555 1_555
C18 C17 1_555 1_555
H15 C18 1_555 1_555
H16 C18 1_555 1_555
C19 C18 1_555 1_555
H17 C19 1_555 1_555
H18 C19 1_555 1_555
C20 C19 1_555 1_555
H19 C20 1_555 1_555
H20 C20 1_555 1_555
C21 C20 1_555 1_555
H21 C21 1_555 1_555
H22 C21 1_555 1_555
H23 C21 1_555 1_555
O5B C12B 1_555 1_555
O6B C12B 1_555 1_555
C9B C10B 1_555 1_555
C10B C11 1_555 1_555
H5B C10B 1_555 1_555
C11B C10 1_555 1_555
H6B C11B 1_555 1_555
C12B C9B 1_555 1_555
Zn1B O5B 1_555 1_555
I1B Zn1B 1_555 1_555
O1B Zn1B 1_555 1_555
O2B C7B 1_555 1_555
O3B C8B 1_555 1_555
O4B C8B 1_555 1_555
C1B C2B 1_555 1_555
C2B H1B 1_555 1_555
C3B C2B 1_555 1_555
H2B C3B 1_555 1_555
C4B C3B 1_555 1_555
C5B C4B 1_555 1_555
H3B C5B 1_555 1_555
C6B C1B 1_555 1_555
H4B C6B 1_555 1_555
C7B O1B 1_555 1_555
C8B C4B 1_555 1_555
Zn1A O3B 1_555 1_555
Zn1C O3 1_555 1_555
Zn2_2 O5B 1_555 1_555
Zn2A O4B 1_555 1_555
Zn2A_2 O4 1_555 1_555
O2B_2 Zn2 1_555 1_555
O3A Zn1B 1_555 1_555
O3C Zn1 1_555 1_555
O4A Zn2 1_555 1_555
O4C Zn2 1_555 1_555
O5B_2 Zn2 1_555 1_555
Zn2 O5 1_555 1_555
C1 C7 1_555 1_555
C5 C6 1_555 1_555
C9 C12 1_555 1_555
C14 C15 1_555 1_555
C9B C11B 1_555 1_555
O2B Zn2_2 1_555 1_555
C1B C7B 1_555 1_555
C5B C6B 1_555 1_555

#END
