
#######################################################################
#
#                 Cambridge Crystallographic Data Centre
#                                CCDC 
#
#######################################################################
#
# If this CIF has been generated from an entry in the Cambridge 
# Structural Database, then it will include bibliographic, chemical, 
# crystal, experimental, refinement or atomic coordinate data resulting 
# from the CCDC's data processing and validation procedures.
#
#######################################################################

data_QUGWUL
_symmetry_cell_setting           monoclinic
_symmetry_space_group_name_H-M   'C 2/c'
_symmetry_Int_Tables_number      15
_space_group_name_Hall           '-C 2yn'
loop_
_symmetry_equiv_pos_site_id
_symmetry_equiv_pos_as_xyz
1 x,y,z
2 -x,y,1/2-z
3 1/2+x,1/2+y,z
4 1/2-x,1/2+y,1/2-z
5 -x,-y,-z
6 x,-y,1/2+z
7 1/2-x,1/2-y,-z
8 1/2+x,1/2-y,1/2+z
_cell_length_a                   26.223(18)
_cell_length_b                   5.928(4)
_cell_length_c                   16.115(10)
_cell_angle_alpha                90
_cell_angle_beta                 97.152(15)
_cell_angle_gamma                90
_cell_volume                     2485.58
loop_
_atom_site_label
_atom_site_type_symbol
_atom_site_fract_x
_atom_site_fract_y
_atom_site_fract_z
Cu1 Cu 0.054562(18) 1.03155(8) 0.04116(3)
Cu2 Cu 0.0000 1.5000 0.0000
O1 O -0.01395(10) 1.1861(4) 0.03294(18)
O2 O 0.11903(10) 0.8863(5) 0.03153(19)
O3 O 0.05221(12) 1.8279(5) 0.16143(18)
O4 O 0.05203(5) 1.3456(2) -0.09938(9)
H1 H 0.0735 1.2381 -0.0849
H2 H 0.0702 1.4651 -0.1027
O5 O 0.14127(5) 1.1238(2) -0.06346(9)
N1 N 0.07443(5) 1.6319(2) 0.15404(9)
N2 N 0.08539(5) 1.2987(2) 0.10131(9)
N3 N 0.05634(5) 1.4849(2) 0.09578(9)
C1 C 0.12366(5) 1.3321(2) 0.16493(9)
C2 C 0.19593(5) 1.2759(2) 0.26426(9)
H3 H 0.2237 1.1849 0.2884
C3 C 0.11731(16) 1.5433(7) 0.1995(3)
C4 C 0.24246(17) 0.9548(8) -0.0393(3)
H4 H 0.2374 1.0965 -0.0666
C5 C 0.20171(15) 0.8517(7) -0.0067(3)
C6 C 0.14949(18) 1.6264(8) 0.2688(3)
H5 H 0.1441 1.7695 0.2927
C7 C 0.1888(2) 1.4892(8) 0.2995(3)
H6 H 0.2122 1.5384 0.3458
C8 C 0.15047(16) 0.9650(8) -0.0148(3)
C9 C 0.16476(16) 1.1941(8) 0.1972(3)
H7 H 0.1706 1.0511 0.1735
C10 C 0.20998(16) 0.6462(8) 0.0325(3)
H8 H 0.1825 0.5734 0.0551
Cu1D Cu -0.054562(18) 1.96845(8) -0.04116(3)
Cu1D_2 Cu -0.054562(18) 0.96845(8) -0.04116(3)
Cu1_2 Cu 0.054562(18) 2.03155(8) 0.04116(3)
Cu1F Cu 0.445438(18) 0.46845(8) -0.04116(3)
O1D O 0.01395(10) 1.8139(4) -0.03294(18)
O1D_2 O 0.01395(10) 0.8139(4) -0.03294(18)
O1_2 O -0.01395(10) 2.1861(4) 0.03294(18)
O2F O 0.38097(10) 0.6137(5) -0.03153(19)
O2D O -0.11903(10) 2.1137(5) -0.03153(19)
O3D O -0.05221(12) 1.1721(5) -0.16143(18)
O3_2 O 0.05221(12) 0.8279(5) 0.16143(18)
O3D_2 O -0.05221(12) 2.1721(5) -0.16143(18)
O4D O -0.05203(5) 1.6544(2) 0.09938(9)
H1D H -0.0735 1.7619 0.0849
H2D H -0.0702 1.5349 0.1027
O5F O 0.35873(5) 0.3762(2) 0.06346(9)
N1D N -0.07443(5) 1.3681(2) -0.15404(9)
N2D N -0.08539(5) 1.7013(2) -0.10131(9)
N3D N -0.05634(5) 1.5151(2) -0.09578(9)
C1D C -0.12366(5) 1.6679(2) -0.16493(9)
C2D C -0.19593(5) 1.7241(2) -0.26426(9)
H3D H -0.2237 1.8151 -0.2884
C3D C -0.11731(16) 1.4567(7) -0.1995(3)
C4F C 0.25754(17) 0.5452(8) 0.0393(3)
H4F H 0.2626 0.4035 0.0666
C5F C 0.29829(15) 0.6483(7) 0.0067(3)
C6D C -0.14949(18) 1.3736(8) -0.2688(3)
H5D H -0.1441 1.2305 -0.2927
C7D C -0.1888(2) 1.5108(8) -0.2995(3)
H6D H -0.2122 1.4616 -0.3458
C8F C 0.34953(16) 0.5350(8) 0.0148(3)
C9D C -0.16476(16) 1.8059(8) -0.1972(3)
H7D H -0.1706 1.9489 -0.1735
C10F C 0.29002(16) 0.8538(8) -0.0325(3)
H8F H 0.3175 0.9266 -0.0551
O6 O 0.04694(19) 0.1886(10) 0.3120(3)
H9 H 0.0169 0.1304 0.3039
H10 H 0.0677 0.0831 0.3205
loop_
_geom_bond_atom_site_label_1
_geom_bond_atom_site_label_2
_geom_bond_site_symmetry_1
_geom_bond_site_symmetry_2
Cu1 O1 1_555 1_555
Cu2 O1 1_555 1_555
O1 Cu1D_2 1_555 1_555
O2 Cu1 1_555 1_555
O3 N1 1_555 1_555
O4 Cu2 1_555 1_555
H1 O4 1_555 1_555
H2 O4 1_555 1_555
O5 C8 1_555 1_555
N1 N3 1_555 1_555
N2 Cu1 1_555 1_555
N3 Cu2 1_555 1_555
C1 N2 1_555 1_555
C2 H3 1_555 1_555
C3 N1 1_555 1_555
C4 H4 1_555 1_555
C5 C4 1_555 1_555
C6 C3 1_555 1_555
H5 C6 1_555 1_555
C7 C2 1_555 1_555
H6 C7 1_555 1_555
C8 O2 1_555 1_555
C9 C1 1_555 1_555
H7 C9 1_555 1_555
C10 C5 1_555 1_555
H8 C10 1_555 1_555
O6 H9 1_555 1_555
H10 O6 1_555 1_555
Cu1D O1D 1_555 1_555
Cu1D_2 O1D_2 1_555 1_555
Cu1_2 O3 1_555 1_555
Cu1F O2F 1_555 1_555
O1D Cu2 1_555 1_555
O1D_2 Cu1 1_555 1_555
O1_2 Cu1D 1_555 1_555
O2F C8F 1_555 1_555
O2D Cu1D 1_555 1_555
O3D Cu1D_2 1_555 1_555
O3_2 Cu1 1_555 1_555
O3D_2 Cu1D 1_555 1_555
O4D Cu2 1_555 1_555
H1D O4D 1_555 1_555
H2D O4D 1_555 1_555
O5F C8F 1_555 1_555
N1D O3D 1_555 1_555
N2D Cu1D 1_555 1_555
N3D Cu2 1_555 1_555
C1D N2D 1_555 1_555
C2D H3D 1_555 1_555
C3D N1D 1_555 1_555
C4F C10 1_555 1_555
H4F C4F 1_555 1_555
C5F C4F 1_555 1_555
C6D C3D 1_555 1_555
H5D C6D 1_555 1_555
C7D C2D 1_555 1_555
H6D C7D 1_555 1_555
C8F C5F 1_555 1_555
C9D C1D 1_555 1_555
H7D C9D 1_555 1_555
C10F C4 1_555 1_555
H8F C10F 1_555 1_555
N2 N3 1_555 1_555
C1 C3 1_555 1_555
C2 C9 1_555 1_555
C5 C8 1_555 1_555
C6 C7 1_555 1_555
Cu1_2 O1D 1_555 1_555
Cu1_2 O1_2 1_555 1_555
N1D N3D 1_555 1_555
N2D N3D 1_555 1_555
C1D C3D 1_555 1_555
C2D C9D 1_555 1_555
C5F C10F 1_555 1_555
C6D C7D 1_555 1_555

#END
