
#######################################################################
#
#                 Cambridge Crystallographic Data Centre
#                                CCDC 
#
#######################################################################
#
# If this CIF has been generated from an entry in the Cambridge 
# Structural Database, then it will include bibliographic, chemical, 
# crystal, experimental, refinement or atomic coordinate data resulting 
# from the CCDC's data processing and validation procedures.
#
#######################################################################

data_QUGWIA
_symmetry_cell_setting           monoclinic
_symmetry_space_group_name_H-M   'P 21/n'
_symmetry_Int_Tables_number      14
_space_group_name_Hall           '-P 2yn'
loop_
_symmetry_equiv_pos_site_id
_symmetry_equiv_pos_as_xyz
1 x,y,z
2 1/2-x,1/2+y,1/2-z
3 -x,-y,-z
4 1/2+x,1/2-y,1/2+z
_cell_length_a                   13.3440(9)
_cell_length_b                   9.4033(6)
_cell_length_c                   18.5203(12)
_cell_angle_alpha                90
_cell_angle_beta                 110.126(7)
_cell_angle_gamma                90
_cell_volume                     2181.98
loop_
_atom_site_label
_atom_site_type_symbol
_atom_site_fract_x
_atom_site_fract_y
_atom_site_fract_z
Zn1 Zn 0.0000 0.0000 0.0000
Zn2 Zn 0.19552(6) 0.03350(8) -0.06791(4)
I1 I 0.33893(5) 0.14803(9) -0.10953(4)
C1 C -0.0654(4) -0.1846(8) -0.2264(3)
C2 C -0.1584(5) -0.2265(11) -0.2310(5)
H1 H -0.1753 -0.2295 -0.1864
C3 C -0.0264(5) -0.2188(8) -0.2860(3)
H2 H 0.0444 -0.2017 -0.2809
C4 C 0.0127(4) -0.1188(8) -0.1526(3)
O1 O 0.1001(3) -0.0784(5) -0.1541(2)
O2 O -0.0162(5) -0.1132(7) -0.0961(3)
C5 C -0.0589(6) -0.3829(8) 0.0016(5)
C6 C 0.0266(8) -0.3967(12) 0.0543(5)
H3 H 0.0487 -0.3280 0.0926
C7 C -0.0886(11) -0.4886(11) -0.0567(6)
H4 H -0.1524 -0.4786 -0.0977
C8 C -0.1376(6) -0.2602(8) -0.0023(5)
O3 O -0.2339(6) -0.2695(10) -0.0405(5)
O4 O -0.0989(4) -0.1523(5) 0.0342(2)
C9 C -0.2359(8) -0.2682(12) -0.3004(5)
H5 H -0.3079 -0.2716 -0.3061
C10 C -0.2006(6) -0.3041(9) -0.3600(4)
C11 C -0.0956(5) -0.2777(8) -0.3513(4)
H6 H -0.0713 -0.3008 -0.3912
C12 C -0.2735(5) -0.3772(8) -0.4300(4)
O5 O -0.3674(4) -0.3985(6) -0.4356(3)
O6 O -0.2367(4) -0.4061(6) -0.4815(3)
C5B C 0.0589(6) -0.6171(8) -0.0016(5)
C6B C -0.0266(8) -0.6033(12) -0.0543(5)
H3B H -0.0487 -0.6720 -0.0926
C7B C 0.0886(11) -0.5114(11) 0.0567(6)
H4B H 0.1524 -0.5214 0.0977
C8B C 0.1376(6) -0.7398(8) 0.0023(5)
O3B O 0.2339(6) -0.7305(10) 0.0405(5)
O4B O 0.0989(4) -0.8477(5) -0.0342(2)
Zn2B Zn -0.19552(6) -0.03350(8) 0.06791(4)
I1B I -0.33893(5) -0.14803(9) 0.10953(4)
C1B C 0.0654(4) 0.1846(8) 0.2264(3)
C2B C 0.1584(5) 0.2265(11) 0.2310(5)
H1B H 0.1753 0.2295 0.1864
C3B C 0.0264(5) 0.2188(8) 0.2860(3)
H2B H -0.0444 0.2017 0.2809
C4B C -0.0127(4) 0.1188(8) 0.1526(3)
O1B O -0.1001(3) 0.0784(5) 0.1541(2)
O2B O 0.0162(5) 0.1132(7) 0.0961(3)
C9B C 0.2359(8) 0.2682(12) 0.3004(5)
H5B H 0.3079 0.2716 0.3061
C10B C 0.2006(6) 0.3041(9) 0.3600(4)
C11B C 0.0956(5) 0.2777(8) 0.3513(4)
H6B H 0.0713 0.3008 0.3912
C12B C 0.2735(5) 0.3772(8) 0.4300(4)
O5B O 0.3674(4) 0.3985(6) 0.4356(3)
O6B O 0.2367(4) 0.4061(6) 0.4815(3)
Zn1_2 Zn 0.0000 -1.0000 0.0000
Zn1A Zn -0.5000 -0.5000 -0.5000
Zn1A_2 Zn 0.5000 0.5000 0.5000
Zn2_2 Zn 0.19552(6) -0.96650(8) -0.06791(4)
Zn2A Zn 0.30448(6) 0.53350(8) 0.56791(4)
Zn2C Zn -0.30448(6) -0.53350(8) -0.56791(4)
O4B_2 O 0.0989(4) 0.1523(5) -0.0342(2)
O5A O -0.1326(4) 0.1015(6) -0.0644(3)
O5C O 0.1326(4) -0.1015(6) 0.0644(3)
O6A O -0.2633(4) 0.0939(6) -0.0185(3)
O6C O 0.2633(4) -0.0939(6) 0.0185(3)
N1 N 0.6741(7) 0.3689(10) 0.1104(5)
N2 N 0.5587(12) 0.2680(17) 0.1422(8)
C13 C 0.5994(13) 0.2791(14) 0.0820(7)
H7 H 0.5779 0.2336 0.0345
C14 C 0.6978(13) 0.4045(18) 0.1728(9)
H8 H 0.7591 0.4529 0.2020
C15 C 0.6246(13) 0.3648(18) 0.1924(9)
H9 H 0.6139 0.3963 0.2369
C16 C 0.7421(12) 0.4002(18) 0.0684(9)
H10 H 0.7971 0.4643 0.0976
H11 H 0.7014 0.4437 0.0204
H12 H 0.7738 0.3139 0.0588
C17 C 0.4613(15) 0.140(2) 0.1352(11)
H13 H 0.4036 0.1454 0.0861
H14 H 0.4910 0.0452 0.1427
C18 C 0.4264(16) 0.183(2) 0.1978(12)
H15 H 0.3671 0.1286 0.2026
H16 H 0.4830 0.1959 0.2470
C19 C 0.393(2) 0.327(3) 0.1441(16)
H17 H 0.3869 0.4055 0.1752
H18 H 0.3255 0.3112 0.1038
H19 H 0.4465 0.3466 0.1218
loop_
_geom_bond_atom_site_label_1
_geom_bond_atom_site_label_2
_geom_bond_site_symmetry_1
_geom_bond_site_symmetry_2
Zn1 O2 1_555 1_555
Zn2 I1 1_555 1_555
C1 C2 1_555 1_555
C2 H1 1_555 1_555
C3 C1 1_555 1_555
H2 C3 1_555 1_555
C4 C1 1_555 1_555
O1 Zn2 1_555 1_555
O2 C4 1_555 1_555
C5 C6 1_555 1_555
C6 H3 1_555 1_555
C7 C5 1_555 1_555
H4 C7 1_555 1_555
C8 C5 1_555 1_555
O3 C8 1_555 1_555
O4 Zn1 1_555 1_555
C9 C2 1_555 1_555
H5 C9 1_555 1_555
C10 C9 1_555 1_555
C11 C3 1_555 1_555
H6 C11 1_555 1_555
C12 C10 1_555 1_555
O5 C12 1_555 1_555
O6 C12 1_555 1_555
N1 C13 1_555 1_555
N2 C13 1_555 1_555
C13 H7 1_555 1_555
C14 N1 1_555 1_555
H8 C14 1_555 1_555
C15 N2 1_555 1_555
H9 C15 1_555 1_555
C16 N1 1_555 1_555
H10 C16 1_555 1_555
H11 C16 1_555 1_555
H12 C16 1_555 1_555
C17 N2 1_555 1_555
H13 C17 1_555 1_555
H14 C17 1_555 1_555
C18 C17 1_555 1_555
H15 C18 1_555 1_555
H16 C18 1_555 1_555
C19 C18 1_555 1_555
H17 C19 1_555 1_555
H18 C19 1_555 1_555
H19 C19 1_555 1_555
C5B C6B 1_555 1_555
C6B C7 1_555 1_555
H3B C6B 1_555 1_555
C7B C6 1_555 1_555
H4B C7B 1_555 1_555
C8B C5B 1_555 1_555
O3B C8B 1_555 1_555
O4B C8B 1_555 1_555
Zn2B O4 1_555 1_555
I1B Zn2B 1_555 1_555
C1B C2B 1_555 1_555
C2B H1B 1_555 1_555
C3B C1B 1_555 1_555
H2B C3B 1_555 1_555
C4B C1B 1_555 1_555
O1B Zn2B 1_555 1_555
O2B Zn1 1_555 1_555
C9B C2B 1_555 1_555
H5B C9B 1_555 1_555
C10B C9B 1_555 1_555
C11B C3B 1_555 1_555
H6B C11B 1_555 1_555
C12B C10B 1_555 1_555
O5B C12B 1_555 1_555
O6B C12B 1_555 1_555
Zn1_2 O4B 1_555 1_555
Zn1A O5 1_555 1_555
Zn1A_2 O5B 1_555 1_555
Zn2_2 O4B 1_555 1_555
Zn2A O6B 1_555 1_555
Zn2C O6 1_555 1_555
O4B_2 Zn1 1_555 1_555
O5A Zn1 1_555 1_555
O5C Zn1 1_555 1_555
O6A Zn2B 1_555 1_555
O6C Zn2 1_555 1_555
Zn2 O4B_2 1_555 1_555
C4 O1 1_555 1_555
C8 O4 1_555 1_555
C10 C11 1_555 1_555
C14 C15 1_555 1_555
C5B C7B 1_555 1_555
C4B O1B 1_555 1_555
C4B O2B 1_555 1_555
C10B C11B 1_555 1_555

#END
