
#######################################################################
#
#                 Cambridge Crystallographic Data Centre
#                                CCDC 
#
#######################################################################
#
# If this CIF has been generated from an entry in the Cambridge 
# Structural Database, then it will include bibliographic, chemical, 
# crystal, experimental, refinement or atomic coordinate data resulting 
# from the CCDC's data processing and validation procedures.
#
#######################################################################

data_QUGWOG
_symmetry_cell_setting           monoclinic
_symmetry_space_group_name_H-M   'P 21/c'
_symmetry_Int_Tables_number      14
_space_group_name_Hall           '-P 2ybc'
loop_
_symmetry_equiv_pos_site_id
_symmetry_equiv_pos_as_xyz
1 x,y,z
2 -x,1/2+y,1/2-z
3 -x,-y,-z
4 x,1/2-y,1/2+z
_cell_length_a                   13.2721(12)
_cell_length_b                   9.6225(7)
_cell_length_c                   18.4952(12)
_cell_angle_alpha                90
_cell_angle_beta                 107.452(8)
_cell_angle_gamma                90
_cell_volume                     2253.31
loop_
_atom_site_label
_atom_site_type_symbol
_atom_site_fract_x
_atom_site_fract_y
_atom_site_fract_z
Zn1 Zn 0.74344(4) 0.95470(6) -0.05788(3)
Zn2 Zn 1.0000 1.0000 0.0000
I1 I 0.56321(3) 0.83778(6) -0.07882(3)
C1 C 0.83245(19) 1.1759(3) -0.22316(12)
C2 C 0.92752(19) 1.1882(4) -0.23972(15)
H1 H 0.9893 1.1532 -0.2063
C3 C 0.9302(2) 1.2531(5) -0.30626(18)
H2 H 0.9939 1.2614 -0.3173
C4 C 0.8379(3) 1.3055(4) -0.35625(16)
C5 C 0.7428(3) 1.2932(4) -0.33969(15)
H3 H 0.6810 1.3283 -0.3731
C6 C 0.74010(19) 1.2283(4) -0.27315(14)
H4 H 0.6765 1.2200 -0.2621
C7 C 0.8321(4) 1.1068(6) -0.1515(3)
C8 C 0.8422(4) 1.3782(5) -0.4273(2)
O1 O 0.9185(3) 1.0858(4) -0.1033(2)
O2 O 0.7431(3) 1.0715(4) -0.14403(19)
O3 O 0.9277(3) 1.3817(4) -0.44010(19)
C9 C 0.9394(4) 0.6158(5) -0.0289(3)
C10 C 0.9936(5) 0.6121(6) 0.0463(3)
H5 H 0.9916 0.6873 0.0775
C11 C 0.9494(5) 0.5036(5) -0.0751(3)
H6 H 0.9160 0.5086 -0.1270
C12 C 0.8678(4) 0.7356(6) -0.0619(3)
O4 O 0.8042(4) 0.7254(5) -0.1252(2)
O5 O 0.8744(3) 0.8432(4) -0.01947(19)
O6 O 0.7561(3) 1.4239(4) -0.46986(19)
C9B C 1.0606(4) 0.3842(5) 0.0289(3)
C10B C 1.0064(5) 0.3879(6) -0.0463(3)
H5B H 1.0084 0.3127 -0.0775
C11B C 1.0506(5) 0.4964(5) 0.0751(3)
H6B H 1.0840 0.4914 0.1270
C12B C 1.1322(4) 0.2644(6) 0.0619(3)
O4B O 1.1958(4) 0.2746(5) 0.1252(2)
O5B O 1.1256(3) 0.1568(4) 0.01947(19)
Zn1B Zn 1.25656(4) 0.04530(6) 0.05788(3)
I1B I 1.43679(3) 0.16222(6) 0.07882(3)
C1B C 1.16755(19) -0.1759(3) 0.22316(12)
C2B C 1.07248(19) -0.1882(4) 0.23972(15)
H1B H 1.0107 -0.1532 0.2063
C3B C 1.0698(2) -0.2531(5) 0.30626(18)
H2B H 1.0061 -0.2614 0.3173
C4B C 1.1621(3) -0.3055(4) 0.35625(16)
C5B C 1.2572(3) -0.2932(4) 0.33969(15)
H3B H 1.3190 -0.3283 0.3731
C6B C 1.25990(19) -0.2283(4) 0.27315(14)
H4B H 1.3235 -0.2200 0.2621
C7B C 1.1679(4) -0.1068(6) 0.1515(3)
C8B C 1.1578(4) -0.3782(5) 0.4273(2)
O1B O 1.0815(3) -0.0858(4) 0.1033(2)
O2B O 1.2569(3) -0.0715(4) 0.14403(19)
O3B O 1.0723(3) -0.3817(4) 0.44010(19)
O6B O 1.2439(3) -0.4239(4) 0.46986(19)
Zn1A Zn 1.25656(4) -0.54530(6) 0.55788(3)
Zn1C Zn 0.74344(4) 1.54530(6) -0.55788(3)
Zn2_2 Zn 1.0000 0.0000 0.0000
Zn2A Zn 1.0000 -0.5000 0.5000
Zn2A_2 Zn 1.0000 1.5000 -0.5000
O1B_2 O 1.0815(3) 0.9142(4) 0.1033(2)
O3A O 1.0723(3) 0.8817(4) -0.05990(19)
O3C O 0.9277(3) 1.1183(4) 0.05990(19)
O5B_2 O 1.1256(3) 1.1568(4) 0.01947(19)
O6A O 1.2439(3) -0.0761(4) -0.03014(19)
O6C O 0.7561(3) 1.0761(4) 0.03014(19)
N1 N 0.6280(8) 0.3856(9) -0.0803(5)
N2 N 0.4943(9) 0.2842(9) -0.1657(5)
C13 C 0.5557(9) 0.2779(11) -0.0982(6)
H7 H 0.5523 0.2080 -0.0642
C14 C 0.5246(14) 0.3942(17) -0.1938(8)
H8 H 0.4948 0.4245 -0.2434
C15 C 0.6036(14) 0.4586(17) -0.1432(8)
H9 H 0.6358 0.5407 -0.1510
C16 C 0.7036(14) 0.4256(18) -0.0079(9)
H10 H 0.7029 0.3577 0.0299
H11 H 0.6845 0.5147 0.0073
H12 H 0.7732 0.4307 -0.0134
C17 C 0.1921(9) 0.343(2) -0.1479(9)
H13 H 0.1718 0.4388 -0.1506
H14 H 0.2114 0.3121 -0.0962
H15 H 0.1338 0.2880 -0.1777
C18 C 0.2830(11) 0.326(2) -0.1776(9)
H16 H 0.3399 0.3863 -0.1497
H17 H 0.2625 0.3540 -0.2304
C19 C 0.3201(16) 0.1860(16) -0.1716(9)
H18 H 0.3395 0.1543 -0.1195
H19 H 0.2666 0.1243 -0.2026
C20 C 0.4137(11) 0.1912(13) -0.1995(8)
H20 H 0.4442 0.0988 -0.1944
H21 H 0.3891 0.2122 -0.2533
loop_
_geom_bond_atom_site_label_1
_geom_bond_atom_site_label_2
_geom_bond_site_symmetry_1
_geom_bond_site_symmetry_2
Zn1 I1 1_555 1_555
Zn2 O1 1_555 1_555
C1 C2 1_555 1_555
C2 H1 1_555 1_555
C3 C2 1_555 1_555
H2 C3 1_555 1_555
C4 C3 1_555 1_555
C5 C4 1_555 1_555
H3 C5 1_555 1_555
C6 C1 1_555 1_555
H4 C6 1_555 1_555
C7 C1 1_555 1_555
C8 C4 1_555 1_555
O1 C7 1_555 1_555
O2 Zn1 1_555 1_555
O3 C8 1_555 1_555
C9 C10 1_555 1_555
C10 H5 1_555 1_555
C11 C9 1_555 1_555
H6 C11 1_555 1_555
C12 C9 1_555 1_555
O4 C12 1_555 1_555
O5 Zn1 1_555 1_555
O6 C8 1_555 1_555
N1 C13 1_555 1_555
N2 C13 1_555 1_555
C13 H7 1_555 1_555
C14 N2 1_555 1_555
H8 C14 1_555 1_555
C15 N1 1_555 1_555
H9 C15 1_555 1_555
C16 N1 1_555 1_555
H10 C16 1_555 1_555
H11 C16 1_555 1_555
H12 C16 1_555 1_555
C17 H13 1_555 1_555
H14 C17 1_555 1_555
H15 C17 1_555 1_555
C18 C17 1_555 1_555
H16 C18 1_555 1_555
H17 C18 1_555 1_555
C19 C18 1_555 1_555
H18 C19 1_555 1_555
H19 C19 1_555 1_555
C20 N2 1_555 1_555
H20 C20 1_555 1_555
H21 C20 1_555 1_555
C9B C10B 1_555 1_555
C10B C11 1_555 1_555
H5B C10B 1_555 1_555
C11B C10 1_555 1_555
H6B C11B 1_555 1_555
C12B C9B 1_555 1_555
O4B C12B 1_555 1_555
O5B C12B 1_555 1_555
Zn1B O5B 1_555 1_555
I1B Zn1B 1_555 1_555
C1B C2B 1_555 1_555
C2B H1B 1_555 1_555
C3B C2B 1_555 1_555
H2B C3B 1_555 1_555
C4B C3B 1_555 1_555
C5B C4B 1_555 1_555
H3B C5B 1_555 1_555
C6B C1B 1_555 1_555
H4B C6B 1_555 1_555
C7B C1B 1_555 1_555
C8B C4B 1_555 1_555
O1B C7B 1_555 1_555
O2B Zn1B 1_555 1_555
O3B C8B 1_555 1_555
O6B C8B 1_555 1_555
Zn1A O6B 1_555 1_555
Zn1C O6 1_555 1_555
Zn2_2 O5B 1_555 1_555
Zn2A O3B 1_555 1_555
Zn2A_2 O3 1_555 1_555
O1B_2 Zn2 1_555 1_555
O3A Zn2 1_555 1_555
O3C Zn2 1_555 1_555
O5B_2 Zn2 1_555 1_555
O6A Zn1B 1_555 1_555
O6C Zn1 1_555 1_555
Zn2 O5 1_555 1_555
C5 C6 1_555 1_555
C7 O2 1_555 1_555
C12 O5 1_555 1_555
C14 C15 1_555 1_555
C19 C20 1_555 1_555
C9B C11B 1_555 1_555
C5B C6B 1_555 1_555
C7B O2B 1_555 1_555
O1B Zn2_2 1_555 1_555

#END
