
#######################################################################
#
#                 Cambridge Crystallographic Data Centre
#                                CCDC 
#
#######################################################################
#
# If this CIF has been generated from an entry in the Cambridge 
# Structural Database, then it will include bibliographic, chemical, 
# crystal, experimental, refinement or atomic coordinate data resulting 
# from the CCDC's data processing and validation procedures.
#
#######################################################################

data_QUGXOG
_symmetry_cell_setting           triclinic
_symmetry_space_group_name_H-M   'P -1'
_symmetry_Int_Tables_number      2
_space_group_name_Hall           '-P 1'
loop_
_symmetry_equiv_pos_site_id
_symmetry_equiv_pos_as_xyz
1 x,y,z
2 -x,-y,-z
_cell_length_a                   6.524(3)
_cell_length_b                   11.708(5)
_cell_length_c                   13.663(6)
_cell_angle_alpha                65.702(7)
_cell_angle_beta                 77.207(7)
_cell_angle_gamma                86.063(8)
_cell_volume                     927.267
loop_
_atom_site_label
_atom_site_type_symbol
_atom_site_fract_x
_atom_site_fract_y
_atom_site_fract_z
Br1 Br 0.31666(16) 0.67804(9) 0.85668(7)
Br2 Br -0.09105(16) 0.52335(9) 0.86101(7)
C1 C 0.2296(11) 0.8394(6) 0.1909(5)
C2 C 0.5850(12) 0.9243(7) 0.1915(6)
C3 C 0.1943(12) 0.9873(7) 0.2947(6)
C4 C 0.5020(11) 0.6803(6) 0.3142(5)
C5 C 0.6380(11) 0.8964(6) 0.4219(6)
H1 H 0.7209 0.9424 0.3530
C6 C 0.6954(12) 0.8920(7) 0.5151(6)
H2 H 0.8170 0.9345 0.5078
C7 C 0.5775(12) 0.8268(6) 0.6165(6)
H3 H 0.6160 0.8254 0.6786
C8 C 0.3908(11) 0.7596(6) 0.6267(6)
C9 C 0.3429(12) 0.7686(6) 0.5277(6)
C10 C 0.1603(11) 0.7079(7) 0.5300(6)
C11 C 0.2544(12) 0.6832(8) 0.7278(6)
C12 C 0.0807(12) 0.6241(8) 0.7291(7)
C13 C 0.0346(12) 0.6367(7) 0.6278(6)
C14 C -0.1407(12) 0.5784(7) 0.6214(7)
H4 H -0.2298 0.5257 0.6855
C15 C -0.1809(12) 0.5986(7) 0.5215(6)
H5 H -0.2995 0.5627 0.5171
C16 C -0.0391(11) 0.6749(6) 0.4256(6)
H6 H -0.0643 0.6880 0.3574
C17 C 0.2722(13) 1.2193(7) -0.0089(7)
H7 H 0.3996 1.1756 0.0052
H8 H 0.2581 1.2850 0.0169
H9 H 0.2770 1.2549 -0.0865
Co1 Co 0.0000 1.0000 0.0000
Fe1 Fe 0.35266(15) 0.83289(8) 0.30579(8)
N1 N 0.1454(9) 0.8592(5) 0.1190(5)
N2 N 0.7274(9) 0.9694(5) 0.1235(5)
N3 N 0.0938(9) 1.0657(6) 0.2901(5)
N4 N 0.5849(11) 0.5918(6) 0.3206(5)
N5 N 0.4656(9) 0.8358(5) 0.4294(5)
N6 N 0.1294(9) 0.7285(6) 0.4300(5)
O1 O 0.0979(9) 1.1344(5) 0.0467(4)
H10 H -0.0080 1.1799 0.0510
Br1A Br -0.31666(16) 1.32196(9) -0.85668(7)
Br2A Br 0.09105(16) 1.47665(9) -0.86101(7)
C1A C -0.2296(11) 1.1606(6) -0.1909(5)
C2A C -0.5850(12) 1.0757(7) -0.1915(6)
C3A C -0.1943(12) 1.0127(7) -0.2947(6)
C4A C -0.5020(11) 1.3197(6) -0.3142(5)
C5A C -0.6380(11) 1.1036(6) -0.4219(6)
H1A H -0.7209 1.0576 -0.3530
C6A C -0.6954(12) 1.1080(7) -0.5151(6)
H2A H -0.8170 1.0655 -0.5078
C7A C -0.5775(12) 1.1732(6) -0.6165(6)
H3A H -0.6160 1.1746 -0.6786
C8A C -0.3908(11) 1.2404(6) -0.6267(6)
C9A C -0.3429(12) 1.2314(6) -0.5277(6)
C10A C -0.1603(11) 1.2921(7) -0.5300(6)
C11A C -0.2544(12) 1.3168(8) -0.7278(6)
C12A C -0.0807(12) 1.3759(8) -0.7291(7)
C13A C -0.0346(12) 1.3633(7) -0.6278(6)
C14A C 0.1407(12) 1.4216(7) -0.6214(7)
H4A H 0.2298 1.4743 -0.6855
C15A C 0.1809(12) 1.4014(7) -0.5215(6)
H5A H 0.2995 1.4373 -0.5171
C16A C 0.0391(11) 1.3251(6) -0.4256(6)
H6A H 0.0643 1.3120 -0.3574
C17A C -0.2722(13) 0.7807(7) 0.0089(7)
H7A H -0.3996 0.8244 -0.0052
H8A H -0.2581 0.7150 -0.0169
H9A H -0.2770 0.7451 0.0865
Co1_2 Co -1.0000 1.0000 0.0000
Co1_3 Co 1.0000 1.0000 0.0000
Fe1A Fe -0.35266(15) 1.16711(8) -0.30579(8)
N1A N -0.1454(9) 1.1408(5) -0.1190(5)
N2A N -0.7274(9) 1.0306(5) -0.1235(5)
N2_2 N -0.2726(9) 0.9694(5) 0.1235(5)
N2A_2 N 0.2726(9) 1.0306(5) -0.1235(5)
N3A N -0.0938(9) 0.9343(6) -0.2901(5)
N4A N -0.5849(11) 1.4082(6) -0.3206(5)
N5A N -0.4656(9) 1.1642(5) -0.4294(5)
N6A N -0.1294(9) 1.2715(6) -0.4300(5)
O1A O -0.0979(9) 0.8656(5) -0.0467(4)
H10A H 0.0080 0.8201 -0.0510
loop_
_geom_bond_atom_site_label_1
_geom_bond_atom_site_label_2
_geom_bond_site_symmetry_1
_geom_bond_site_symmetry_2
Br1 C11 1_555 1_555
Br2 C12 1_555 1_555
C1 Fe1 1_555 1_555
C2 Fe1 1_555 1_555
C3 Fe1 1_555 1_555
C4 Fe1 1_555 1_555
C5 H1 1_555 1_555
C6 C5 1_555 1_555
H2 C6 1_555 1_555
C7 C6 1_555 1_555
H3 C7 1_555 1_555
C8 C7 1_555 1_555
C9 C8 1_555 1_555
C10 C9 1_555 1_555
C11 C8 1_555 1_555
C12 C11 1_555 1_555
C13 C10 1_555 1_555
C14 C13 1_555 1_555
H4 C14 1_555 1_555
C15 C14 1_555 1_555
H5 C15 1_555 1_555
C16 C15 1_555 1_555
H6 C16 1_555 1_555
C17 H7 1_555 1_555
H8 C17 1_555 1_555
H9 C17 1_555 1_555
Co1 N1 1_555 1_555
Fe1 N5 1_555 1_555
N1 C1 1_555 1_555
N2 C2 1_555 1_555
N3 C3 1_555 1_555
N4 C4 1_555 1_555
N5 C5 1_555 1_555
N6 C10 1_555 1_555
O1 C17 1_555 1_555
H10 O1 1_555 1_555
Br1A C11A 1_555 1_555
Br2A C12A 1_555 1_555
C1A Fe1A 1_555 1_555
C2A Fe1A 1_555 1_555
C3A Fe1A 1_555 1_555
C4A Fe1A 1_555 1_555
C5A H1A 1_555 1_555
C6A C5A 1_555 1_555
H2A C6A 1_555 1_555
C7A C6A 1_555 1_555
H3A C7A 1_555 1_555
C8A C7A 1_555 1_555
C9A C8A 1_555 1_555
C10A C9A 1_555 1_555
C11A C8A 1_555 1_555
C12A C11A 1_555 1_555
C13A C10A 1_555 1_555
C14A C13A 1_555 1_555
H4A C14A 1_555 1_555
C15A C14A 1_555 1_555
H5A C15A 1_555 1_555
C16A C15A 1_555 1_555
H6A C16A 1_555 1_555
C17A H7A 1_555 1_555
H8A C17A 1_555 1_555
H9A C17A 1_555 1_555
Co1_2 N2A 1_555 1_555
Co1_3 N2 1_555 1_555
Fe1A N5A 1_555 1_555
N1A Co1 1_555 1_555
N2A C2A 1_555 1_555
N2_2 Co1 1_555 1_555
N2A_2 Co1 1_555 1_555
N3A C3A 1_555 1_555
N4A C4A 1_555 1_555
N5A C5A 1_555 1_555
N6A C10A 1_555 1_555
O1A Co1 1_555 1_555
H10A O1A 1_555 1_555
C9 N5 1_555 1_555
C12 C13 1_555 1_555
C16 N6 1_555 1_555
Co1 O1 1_555 1_555
Fe1 N6 1_555 1_555
C1A N1A 1_555 1_555
C9A N5A 1_555 1_555
C12A C13A 1_555 1_555
C16A N6A 1_555 1_555
C17A O1A 1_555 1_555
Fe1A N6A 1_555 1_555

#END
