
#######################################################################
#
#                 Cambridge Crystallographic Data Centre
#                                CCDC 
#
#######################################################################
#
# If this CIF has been generated from an entry in the Cambridge 
# Structural Database, then it will include bibliographic, chemical, 
# crystal, experimental, refinement or atomic coordinate data resulting 
# from the CCDC's data processing and validation procedures.
#
#######################################################################

data_QUGXOF
_symmetry_cell_setting           tetragonal
_symmetry_space_group_name_H-M   'P 4/n c c'
_symmetry_Int_Tables_number      130
_space_group_name_Hall           '-P 4a 2ac'
loop_
_symmetry_equiv_pos_site_id
_symmetry_equiv_pos_as_xyz
1 x,y,z
2 1/2-y,x,z
3 y,1/2-x,z
4 1/2+y,1/2+x,1/2-z
5 1/2+x,1/2+y,-z
6 x,1/2-y,1/2+z
7 1/2-x,y,1/2+z
8 y,x,1/2+z
9 -x,-y,-z
10 1/2+y,-x,-z
11 -y,1/2+x,-z
12 1/2-y,1/2-x,1/2+z
13 1/2-x,1/2-y,z
14 -x,1/2+y,1/2-z
15 1/2+x,-y,1/2-z
16 -y,-x,1/2-z
_cell_length_a                   15.189(2)
_cell_length_b                   15.189(2)
_cell_length_c                   15.191(3)
_cell_angle_alpha                90
_cell_angle_beta                 90
_cell_angle_gamma                90
_cell_volume                     3504.65
loop_
_atom_site_label
_atom_site_type_symbol
_atom_site_fract_x
_atom_site_fract_y
_atom_site_fract_z
Ag1 Ag 0.2500 0.2500 -0.10182(4)
S1 S 0.14660(5) 0.44317(5) -0.10862(4)
O1 O 0.13122(14) 0.34583(14) -0.09938(14)
C1 C 0.0376(2) 0.4881(2) -0.12232(18)
H1 H 0.0418 0.5504 -0.1357
H2 H 0.0088 0.4593 -0.1715
C2 C -0.0174(2) 0.4755(2) -0.03982(18)
H3 H -0.0200 0.4132 -0.0261
H4 H -0.0770 0.4952 -0.0516
C3 C 0.18313(18) 0.46399(18) -0.21892(17)
C4 C 0.1673(2) 0.4035(2) -0.28472(19)
H5 H 0.1388 0.3508 -0.2722
C5 C 0.1944(2) 0.4223(3) -0.3691(2)
H6 H 0.1844 0.3820 -0.4141
C6 C 0.2357(2) 0.4996(4) -0.3865(2)
H7 H 0.2532 0.5121 -0.4438
C7 C 0.2519(3) 0.5595(3) -0.3211(3)
H8 H 0.2799 0.6124 -0.3342
C8 C 0.2266(2) 0.5414(2) -0.2354(2)
H9 H 0.2387 0.5808 -0.1901
C2H C 0.0174(2) 0.5245(2) 0.03982(18)
C1H C -0.0376(2) 0.5119(2) 0.12232(18)
S1H S -0.14660(5) 0.55683(5) 0.10862(4)
O1H O -0.13122(14) 0.65417(14) 0.09938(14)
C3H C -0.18313(18) 0.53601(18) 0.21892(17)
C4H C -0.1673(2) 0.5965(2) 0.28472(19)
H5H H -0.1388 0.6492 0.2722
C5H C -0.1944(2) 0.5777(3) 0.3691(2)
H6H H -0.1844 0.6180 0.4141
C6H C -0.2357(2) 0.5004(4) 0.3865(2)
H7H H -0.2532 0.4879 0.4438
C7H C -0.2519(3) 0.4405(3) 0.3211(3)
H8H H -0.2799 0.3876 0.3342
C8H C -0.2266(2) 0.4586(2) 0.2354(2)
H9H H -0.2387 0.4192 0.1901
H1H H -0.0418 0.4496 0.1357
H2H H -0.0088 0.5407 0.1715
H3H H 0.0200 0.5868 0.0261
H4H H 0.0770 0.5048 0.0516
S1A S 0.05683(5) 0.14660(5) -0.10862(4)
O1A O 0.15417(14) 0.13122(14) -0.09938(14)
C1A C 0.0119(2) 0.0376(2) -0.12232(18)
H1A H -0.0504 0.0418 -0.1357
H2A H 0.0407 0.0088 -0.1715
C2A C 0.0245(2) -0.0174(2) -0.03982(18)
H3A H 0.0868 -0.0200 -0.0261
H4A H 0.0048 -0.0770 -0.0516
C3A C 0.03601(18) 0.18313(18) -0.21892(17)
C4A C 0.0965(2) 0.1673(2) -0.28472(19)
H5A H 0.1492 0.1388 -0.2722
C5A C 0.0777(3) 0.1944(2) -0.3691(2)
H6A H 0.1180 0.1844 -0.4141
C6A C 0.0004(4) 0.2357(2) -0.3865(2)
H7A H -0.0121 0.2532 -0.4438
C7A C -0.0595(3) 0.2519(3) -0.3211(3)
H8A H -0.1124 0.2799 -0.3342
C8A C -0.0414(2) 0.2266(2) -0.2354(2)
H9A H -0.0808 0.2387 -0.1901
C2I C -0.0245(2) 0.0174(2) 0.03982(18)
C1I C -0.0119(2) -0.0376(2) 0.12232(18)
S1I S -0.05683(5) -0.14660(5) 0.10862(4)
O1I O -0.15417(14) -0.13122(14) 0.09938(14)
C3I C -0.03601(18) -0.18313(18) 0.21892(17)
C4I C -0.0965(2) -0.1673(2) 0.28472(19)
H5I H -0.1492 -0.1388 0.2722
C5I C -0.0777(3) -0.1944(2) 0.3691(2)
H6I H -0.1180 -0.1844 0.4141
C6I C -0.0004(4) -0.2357(2) 0.3865(2)
H7I H 0.0121 -0.2532 0.4438
C7I C 0.0595(3) -0.2519(3) 0.3211(3)
H8I H 0.1124 -0.2799 0.3342
C8I C 0.0414(2) -0.2266(2) 0.2354(2)
H9I H 0.0808 -0.2387 0.1901
H1I H 0.0504 -0.0418 0.1357
H2I H -0.0407 -0.0088 0.1715
H3I H -0.0868 0.0200 0.0261
H4I H -0.0048 0.0770 0.0516
O1B O 0.34583(14) 0.36878(14) -0.09938(14)
O1L O 0.36878(14) 0.15417(14) -0.09938(14)
Ag1D Ag -0.2500 0.7500 0.10182(4)
Ag1D_2 Ag -0.2500 -0.2500 0.10182(4)
Cl1 Cl 0.2500 0.7500 0.0000
O2 O 0.2521(3) 0.6764(3) -0.0536(3)
O2I O 0.1764(3) 0.7479(3) 0.0536(3)
O2J O 0.3236(3) 0.7521(3) 0.0536(3)
O2L O 0.2479(3) 0.8236(3) -0.0536(3)
loop_
_geom_bond_atom_site_label_1
_geom_bond_atom_site_label_2
_geom_bond_site_symmetry_1
_geom_bond_site_symmetry_2
Ag1 O1 1_555 1_555
S1 O1 1_555 1_555
C1 S1 1_555 1_555
H1 C1 1_555 1_555
H2 C1 1_555 1_555
C2 C1 1_555 1_555
H3 C2 1_555 1_555
H4 C2 1_555 1_555
C3 S1 1_555 1_555
C4 C3 1_555 1_555
H5 C4 1_555 1_555
C5 C4 1_555 1_555
H6 C5 1_555 1_555
C6 C5 1_555 1_555
H7 C6 1_555 1_555
C7 C6 1_555 1_555
H8 C7 1_555 1_555
C8 C3 1_555 1_555
H9 C8 1_555 1_555
Cl1 O2 1_555 1_555
C2H C2 1_555 1_555
C1H C2H 1_555 1_555
S1H C1H 1_555 1_555
O1H S1H 1_555 1_555
C3H S1H 1_555 1_555
C4H C3H 1_555 1_555
H5H C4H 1_555 1_555
C5H C4H 1_555 1_555
H6H C5H 1_555 1_555
C6H C5H 1_555 1_555
H7H C6H 1_555 1_555
C7H C6H 1_555 1_555
H8H C7H 1_555 1_555
C8H C3H 1_555 1_555
H9H C8H 1_555 1_555
H1H C1H 1_555 1_555
H2H C1H 1_555 1_555
H3H C2H 1_555 1_555
H4H C2H 1_555 1_555
O2I Cl1 1_555 1_555
O2J Cl1 1_555 1_555
O2L Cl1 1_555 1_555
S1A O1A 1_555 1_555
O1A Ag1 1_555 1_555
C1A S1A 1_555 1_555
H1A C1A 1_555 1_555
H2A C1A 1_555 1_555
C2A C1A 1_555 1_555
H3A C2A 1_555 1_555
H4A C2A 1_555 1_555
C3A S1A 1_555 1_555
C4A C3A 1_555 1_555
H5A C4A 1_555 1_555
C5A C4A 1_555 1_555
H6A C5A 1_555 1_555
C6A C5A 1_555 1_555
H7A C6A 1_555 1_555
C7A C6A 1_555 1_555
H8A C7A 1_555 1_555
C8A C3A 1_555 1_555
H9A C8A 1_555 1_555
C2I C2A 1_555 1_555
C1I C2I 1_555 1_555
S1I C1I 1_555 1_555
O1I S1I 1_555 1_555
C3I S1I 1_555 1_555
C4I C3I 1_555 1_555
H5I C4I 1_555 1_555
C5I C4I 1_555 1_555
H6I C5I 1_555 1_555
C6I C5I 1_555 1_555
H7I C6I 1_555 1_555
C7I C6I 1_555 1_555
H8I C7I 1_555 1_555
C8I C3I 1_555 1_555
H9I C8I 1_555 1_555
H1I C1I 1_555 1_555
H2I C1I 1_555 1_555
H3I C2I 1_555 1_555
H4I C2I 1_555 1_555
O1B Ag1 1_555 1_555
O1L Ag1 1_555 1_555
Ag1D O1H 1_555 1_555
Ag1D_2 O1I 1_555 1_555
C7 C8 1_555 1_555
C7H C8H 1_555 1_555
C7A C8A 1_555 1_555
C7I C8I 1_555 1_555

#END
