
#######################################################################
#
#                 Cambridge Crystallographic Data Centre
#                                CCDC 
#
#######################################################################
#
# If this CIF has been generated from an entry in the Cambridge 
# Structural Database, then it will include bibliographic, chemical, 
# crystal, experimental, refinement or atomic coordinate data resulting 
# from the CCDC's data processing and validation procedures.
#
#######################################################################

data_QUGYUN01
_symmetry_cell_setting           monoclinic
_symmetry_space_group_name_H-M   'C 2/c'
_symmetry_Int_Tables_number      15
_space_group_name_Hall           '-C 2yn'
loop_
_symmetry_equiv_pos_site_id
_symmetry_equiv_pos_as_xyz
1 x,y,z
2 -x,y,1/2-z
3 1/2+x,1/2+y,z
4 1/2-x,1/2+y,1/2-z
5 -x,-y,-z
6 x,-y,1/2+z
7 1/2-x,1/2-y,-z
8 1/2+x,1/2-y,1/2+z
_cell_length_a                   24.928(5)
_cell_length_b                   9.0544(19)
_cell_length_c                   22.4116(19)
_cell_angle_alpha                90
_cell_angle_beta                 119.752(9)
_cell_angle_gamma                90
_cell_volume                     4391.68
loop_
_atom_site_label
_atom_site_type_symbol
_atom_site_fract_x
_atom_site_fract_y
_atom_site_fract_z
C1 C 0.1567(2) -0.4242(5) 0.1042(2)
C2 C 0.1458(2) -0.3230(5) 0.0514(3)
H1 H 0.1175 -0.2472 0.0417
C3 C 0.1753(2) -0.3324(6) 0.0139(3)
H2 H 0.1663 -0.2643 -0.0209
C4 C 0.2187(2) -0.4428(6) 0.0273(3)
H3 H 0.2385 -0.4502 0.0014
C5 C 0.2317(2) -0.5404(6) 0.0796(3)
H4 H 0.2608 -0.6140 0.0889
C6 C 0.2027(2) -0.5338(5) 0.1202(2)
C7 C 0.2216(2) -0.6396(5) 0.1767(2)
C8 C 0.2103(2) -0.7717(6) 0.2616(3)
H5 H 0.2460 -0.7362 0.3032
H6 H 0.2216 -0.8619 0.2473
C9 C 0.1573(2) -0.8006(5) 0.2748(3)
H7 H 0.1247 -0.8540 0.2363
H8 H 0.1714 -0.8606 0.3157
C10 C -0.0500(2) -0.3575(6) 0.0261(3)
H9 H -0.0391 -0.4610 0.0281
H10 H -0.0827 -0.3354 -0.0201
C11 C -0.0711(3) -0.3262(6) 0.0765(3)
H11 H -0.0412 -0.3645 0.1213
H12 H -0.1102 -0.3754 0.0621
C12 C 0.2803(2) -0.7269(6) 0.2000(3)
H13 H 0.3011 -0.7385 0.2490
H14 H 0.3067 -0.6754 0.1872
H15 H 0.2704 -0.8224 0.1786
C13 C 0.1781(3) -0.5887(6) 0.3491(3)
H16 H 0.1611 -0.4983 0.3548
H17 H 0.2156 -0.5680 0.3484
H18 H 0.1869 -0.6541 0.3866
C14 C 0.0756(3) -0.6858(7) 0.2856(3)
H19 H 0.0844 -0.7456 0.3248
H20 H 0.0464 -0.7360 0.2444
H21 H 0.0585 -0.5931 0.2888
C15 C -0.0802(3) -0.1301(7) 0.1444(3)
H22 H -0.1144 -0.1803 0.1437
H23 H -0.0848 -0.0255 0.1471
H24 H -0.0424 -0.1620 0.1836
C16 C -0.1371(2) -0.1157(7) 0.0219(3)
H25 H -0.1411 -0.0106 0.0238
H26 H -0.1711 -0.1634 0.0228
H27 H -0.1373 -0.1413 -0.0198
O1 O 0.12583(15) -0.4057(4) 0.13685(17)
Cu1 Cu 0.12392(3) -0.53333(6) 0.20316(3)
Cu2 Cu -0.00432(3) -0.06730(6) 0.07760(3)
N1 N 0.07917(19) -0.3824(5) 0.2267(2)
N2 N 0.07471(17) -0.2560(5) 0.2112(2)
N3 N 0.0681(2) -0.1341(5) 0.1965(2)
N4 N 0.06346(19) 0.0155(5) 0.0645(2)
N5 N 0.1170(2) -0.0005(4) 0.1051(2)
N6 N 0.1692(2) -0.0135(6) 0.1413(3)
N7 N -0.0270(2) 0.1273(5) 0.0997(2)
N8 N 0.00370(19) 0.2334(5) 0.1097(2)
N9 N 0.0328(2) 0.3394(5) 0.1192(2)
N10 N 0.18959(18) -0.6595(4) 0.2070(2)
N11 N 0.13333(18) -0.6591(5) 0.2838(2)
N12 N 0.00459(18) -0.2636(5) 0.0440(2)
H28 H 0.0089 -0.2518 0.0068
H29 H 0.0388 -0.3084 0.0768
N13 N -0.07854(19) -0.1644(5) 0.0815(2)
Cu1_2 Cu 0.12392(3) 0.46667(6) 0.20316(3)
N9_2 N 0.0328(2) -0.6606(5) 0.1192(2)
loop_
_geom_bond_atom_site_label_1
_geom_bond_atom_site_label_2
_geom_bond_site_symmetry_1
_geom_bond_site_symmetry_2
C1 C2 1_555 1_555
C2 H1 1_555 1_555
C3 C2 1_555 1_555
H2 C3 1_555 1_555
C4 C3 1_555 1_555
H3 C4 1_555 1_555
C5 C4 1_555 1_555
H4 C5 1_555 1_555
C6 C1 1_555 1_555
C7 C6 1_555 1_555
C8 H5 1_555 1_555
H6 C8 1_555 1_555
C9 C8 1_555 1_555
H7 C9 1_555 1_555
H8 C9 1_555 1_555
C10 H9 1_555 1_555
H10 C10 1_555 1_555
C11 C10 1_555 1_555
H11 C11 1_555 1_555
H12 C11 1_555 1_555
C12 C7 1_555 1_555
H13 C12 1_555 1_555
H14 C12 1_555 1_555
H15 C12 1_555 1_555
C13 H16 1_555 1_555
H17 C13 1_555 1_555
H18 C13 1_555 1_555
C14 H19 1_555 1_555
H20 C14 1_555 1_555
H21 C14 1_555 1_555
C15 H22 1_555 1_555
H23 C15 1_555 1_555
H24 C15 1_555 1_555
C16 H25 1_555 1_555
H26 C16 1_555 1_555
H27 C16 1_555 1_555
O1 C1 1_555 1_555
Cu1 O1 1_555 1_555
Cu2 N3 1_555 1_555
N1 Cu1 1_555 1_555
N2 N1 1_555 1_555
N3 N2 1_555 1_555
N4 Cu2 1_555 1_555
N5 N4 1_555 1_555
N6 N5 1_555 1_555
N7 Cu2 1_555 1_555
N8 N7 1_555 1_555
N9 N8 1_555 1_555
N10 C7 1_555 1_555
N11 C9 1_555 1_555
N12 C10 1_555 1_555
H28 N12 1_555 1_555
H29 N12 1_555 1_555
N13 C11 1_555 1_555
Cu1_2 N9 1_555 1_555
N9_2 Cu1 1_555 1_555
C5 C6 1_555 1_555
C8 N10 1_555 1_555
C13 N11 1_555 1_555
C14 N11 1_555 1_555
C15 N13 1_555 1_555
C16 N13 1_555 1_555
Cu1 N10 1_555 1_555
Cu1 N11 1_555 1_555
Cu2 N12 1_555 1_555
Cu2 N13 1_555 1_555

#END
