
#######################################################################
#
#                 Cambridge Crystallographic Data Centre
#                                CCDC 
#
#######################################################################
#
# If this CIF has been generated from an entry in the Cambridge 
# Structural Database, then it will include bibliographic, chemical, 
# crystal, experimental, refinement or atomic coordinate data resulting 
# from the CCDC's data processing and validation procedures.
#
#######################################################################

data_QUGYAT
_symmetry_cell_setting           orthorhombic
_symmetry_space_group_name_H-M   'P 21 21 21'
_symmetry_Int_Tables_number      19
_space_group_name_Hall           'P 2ac 2ab'
loop_
_symmetry_equiv_pos_site_id
_symmetry_equiv_pos_as_xyz
1 x,y,z
2 1/2-x,-y,1/2+z
3 -x,1/2+y,1/2-z
4 1/2+x,1/2-y,-z
_cell_length_a                   9.4909(19)
_cell_length_b                   11.601(2)
_cell_length_c                   18.547(4)
_cell_angle_alpha                90
_cell_angle_beta                 90
_cell_angle_gamma                90
_cell_volume                     2042.1
loop_
_atom_site_label
_atom_site_type_symbol
_atom_site_fract_x
_atom_site_fract_y
_atom_site_fract_z
Zn1 Zn 0.75646(4) 0.00128(3) 0.134778(15)
O1 O 0.7850(2) -0.0787(2) 0.22666(12)
C1 C 0.7509(4) -0.1738(3) 0.36466(16)
H1 H 0.8412 -0.1775 0.3454
C2 C 0.2548(3) -0.1704(3) 0.30217(13)
N1 N 0.6144(3) -0.0124(3) 0.05104(13)
O2 O 0.1423(2) -0.3376(2) 0.35118(12)
C3 C 0.2543(4) -0.2938(3) 0.32647(13)
C4 C 0.3723(3) 0.0093(3) 0.27871(16)
H2 H 0.4515 0.0562 0.2821
C5 C 1.0159(4) -0.1780(3) -0.0632(2)
H3 H 1.0608 -0.2133 -0.1019
C6 C 0.6388(3) -0.1460(3) 0.32023(14)
C7 C 0.6669(3) -0.1242(3) 0.24123(17)
C8 C 0.3765(3) -0.1023(3) 0.30730(14)
C9 C 0.8737(4) -0.1467(3) -0.06788(16)
C10 C 0.7313(4) -0.1963(3) 0.43705(16)
H4 H 0.8075 -0.2162 0.4660
C11 C 0.5037(3) -0.1397(3) 0.34893(15)
N2 N 0.8842(3) -0.0751(2) 0.05463(13)
C12 C 0.4861(4) -0.1608(3) 0.42257(16)
H5 H 0.3965 -0.1557 0.4427
C13 C 1.0869(4) -0.1559(3) -0.00134(19)
H6 H 1.1816 -0.1756 0.0024
O3 O 0.3640(2) -0.3531(2) 0.31989(13)
C14 C 0.4813(4) 0.0212(4) 0.0515(2)
H7 H 0.4445 0.0544 0.0931
C15 C 0.8108(3) -0.0948(3) -0.00705(16)
C16 C 0.3947(4) 0.0083(4) -0.0086(2)
H8 H 0.3016 0.0333 -0.0070
O4 O 0.5783(3) -0.1473(3) 0.19562(12)
C17 C 0.1340(3) -0.1263(3) 0.27020(16)
H9 H 0.0528 -0.1710 0.2681
C18 C 0.6666(3) -0.0612(3) -0.00994(16)
C19 C 0.1337(3) -0.0156(4) 0.24132(17)
H10 H 0.0531 0.0131 0.2192
C20 C 0.5984(4) -0.1890(3) 0.46591(16)
H11 H 0.5843 -0.2031 0.5147
C21 C 1.0192(4) -0.1042(3) 0.05626(18)
H12 H 1.0707 -0.0892 0.0979
C22 C 0.4464(4) -0.0408(4) -0.0697(2)
H13 H 0.3887 -0.0496 -0.1098
C23 C 0.5866(4) -0.0782(3) -0.07209(18)
C24 C 0.2527(4) 0.0510(3) 0.24558(17)
H14 H 0.2527 0.1248 0.2260
C25 C 0.7894(5) -0.1641(4) -0.1310(2)
H15 H 0.8292 -0.1988 -0.1714
C26 C 0.6523(5) -0.1305(4) -0.1328(2)
H16 H 0.6002 -0.1419 -0.1747
Zn1B Zn 0.24354(4) -0.49872(3) 0.365222(15)
O2B O 0.8577(2) 0.1624(2) 0.14882(12)
C3B C 0.7457(4) 0.2062(3) 0.17353(13)
O3B O 0.6360(2) 0.1469(2) 0.18011(13)
loop_
_geom_bond_atom_site_label_1
_geom_bond_atom_site_label_2
_geom_bond_site_symmetry_1
_geom_bond_site_symmetry_2
Zn1 O1 1_555 1_555
O1 C7 1_555 1_555
C1 H1 1_555 1_555
C2 C3 1_555 1_555
N1 Zn1 1_555 1_555
O2 C3 1_555 1_555
C3 O3 1_555 1_555
C4 H2 1_555 1_555
C5 H3 1_555 1_555
C6 C1 1_555 1_555
C7 C6 1_555 1_555
C8 C2 1_555 1_555
C9 C5 1_555 1_555
C10 C1 1_555 1_555
H4 C10 1_555 1_555
C11 C6 1_555 1_555
N2 Zn1 1_555 1_555
C12 C11 1_555 1_555
H5 C12 1_555 1_555
C13 C5 1_555 1_555
H6 C13 1_555 1_555
O3 Zn1B 1_555 1_555
C14 N1 1_555 1_555
H7 C14 1_555 1_555
C15 C9 1_555 1_555
C16 C14 1_555 1_555
H8 C16 1_555 1_555
O4 C7 1_555 1_555
C17 C2 1_555 1_555
H9 C17 1_555 1_555
C18 N1 1_555 1_555
C19 C17 1_555 1_555
H10 C19 1_555 1_555
C20 C10 1_555 1_555
H11 C20 1_555 1_555
C21 N2 1_555 1_555
H12 C21 1_555 1_555
C22 C16 1_555 1_555
H13 C22 1_555 1_555
C23 C18 1_555 1_555
C24 C4 1_555 1_555
H14 C24 1_555 1_555
C25 C9 1_555 1_555
H15 C25 1_555 1_555
C26 C23 1_555 1_555
H16 C26 1_555 1_555
Zn1B O2 1_555 1_555
O2B Zn1 1_555 1_555
C3B O2B 1_555 1_555
O3B Zn1 1_555 1_555
C4 C8 1_555 1_555
C8 C11 1_555 1_555
N2 C15 1_555 1_555
C12 C20 1_555 1_555
C13 C21 1_555 1_555
C15 C18 1_555 1_555
C19 C24 1_555 1_555
C22 C23 1_555 1_555
C25 C26 1_555 1_555
C3B O3B 1_555 1_555

#END
