
#######################################################################
#
#                 Cambridge Crystallographic Data Centre
#                                CCDC 
#
#######################################################################
#
# If this CIF has been generated from an entry in the Cambridge 
# Structural Database, then it will include bibliographic, chemical, 
# crystal, experimental, refinement or atomic coordinate data resulting 
# from the CCDC's data processing and validation procedures.
#
#######################################################################

data_QUGZIC
_symmetry_cell_setting           triclinic
_symmetry_space_group_name_H-M   'P -1'
_symmetry_Int_Tables_number      2
_space_group_name_Hall           '-P 1'
loop_
_symmetry_equiv_pos_site_id
_symmetry_equiv_pos_as_xyz
1 x,y,z
2 -x,-y,-z
_cell_length_a                   9.621(6)
_cell_length_b                   10.377(6)
_cell_length_c                   13.436(8)
_cell_angle_alpha                99.535(10)
_cell_angle_beta                 105.223(9)
_cell_angle_gamma                109.338(9)
_cell_volume                     1173.37
loop_
_atom_site_label
_atom_site_type_symbol
_atom_site_fract_x
_atom_site_fract_y
_atom_site_fract_z
N1 N 0.6638(4) 1.1614(4) 0.6082(3)
Zn1 Zn 0.60913(5) 0.98600(4) 0.70146(3)
N2 N 0.6397(3) 1.1377(3) 0.5161(3)
N3 N 0.6186(4) 1.1174(4) 0.4234(3)
N4 N 0.5792(4) 0.8424(3) 0.7920(3)
N5 N 0.5086(4) 0.7188(4) 0.7578(3)
N6 N 0.4387(6) 0.5977(4) 0.7275(4)
N7 N 0.8423(3) 1.1187(3) 0.8153(2)
N8 N 1.5182(3) 1.1145(3) 0.7848(2)
N9 N 0.7078(4) 0.8805(3) 0.6022(2)
N10 N 1.0822(7) 0.7359(6) 0.8545(4)
C1 C 1.3116(4) 1.3835(4) 1.0252(3)
H1 H 1.3538 1.3311 1.0694
H2 H 1.3090 1.4635 1.0725
C2 C 1.4209(4) 1.4398(4) 0.9618(3)
H3 H 1.3690 1.4800 0.9100
C3 C 1.1488(4) 1.2894(4) 0.9531(3)
C4 C 1.0895(4) 1.1439(4) 0.9335(3)
H4 H 1.1515 1.1002 0.9666
C5 C 0.9386(4) 1.0631(4) 0.8652(3)
H5 H 0.9016 0.9649 0.8530
C6 C 0.9000(4) 1.2601(4) 0.8349(3)
H6 H 0.8357 1.3016 0.8013
C7 C 1.0496(4) 1.3475(4) 0.9021(3)
H7 H 1.0841 1.4454 0.9133
C8 C 1.4482(4) 1.3201(4) 0.8997(3)
C9 C 1.5252(5) 1.2459(4) 0.9510(3)
H8 H 1.5542 1.2632 1.0252
C10 C 1.5592(5) 1.1458(4) 0.8917(3)
H9 H 1.6128 1.0980 0.9278
C11 C 1.4373(4) 1.1816(4) 0.7351(3)
H10 H 1.4025 1.1573 0.6605
C12 C 1.4024(4) 1.2858(4) 0.7895(3)
H11 H 1.3485 1.3321 0.7517
C13 C 0.9304(5) 0.6441(4) 0.4540(3)
H12 H 1.0337 0.7082 0.4598
H13 H 0.8711 0.5962 0.3786
C14 C 0.9458(5) 0.5323(4) 0.5158(3)
H14 H 0.8418 0.4559 0.4941
C15 C 0.8490(5) 0.7272(4) 0.4995(3)
C16 C 0.6932(5) 0.6654(4) 0.4927(3)
H15 H 0.6322 0.5714 0.4529
C17 C 0.6293(5) 0.7438(4) 0.5452(3)
H16 H 0.5257 0.6992 0.5408
C18 C 0.8544(5) 0.9407(4) 0.6042(3)
H17 H 0.9104 1.0368 0.6401
C19 C 0.9281(5) 0.8693(4) 0.5565(3)
H18 H 1.0319 0.9169 0.5625
C20 C 1.0002(5) 0.5971(4) 0.6373(3)
C21 C 0.9001(6) 0.5543(5) 0.6925(4)
H19 H 0.8041 0.4775 0.6593
C22 C 0.9460(8) 0.6292(7) 0.8003(5)
H20 H 0.8756 0.6018 0.8364
C23 C 1.1744(7) 0.7714(6) 0.8003(4)
H21 H 1.2714 0.8461 0.8362
C24 C 1.1416(5) 0.7084(5) 0.6946(4)
H22 H 1.2147 0.7407 0.6614
N1A N 0.3362(4) 0.8386(4) 0.3918(3)
Zn1A Zn 0.39087(5) 1.01400(4) 0.29854(3)
Zn1_2 Zn 1.60913(5) 0.98600(4) 0.70146(3)
Zn1A_2 Zn 2.39087(5) 2.01400(4) 1.29854(3)
Zn1A_3 Zn 1.39087(5) 2.01400(4) 1.29854(3)
Zn1A_4 Zn 1.39087(5) 0.01400(4) 0.29854(3)
N2A N 0.3603(3) 0.8623(3) 0.4839(3)
N3A N 0.3814(4) 0.8826(4) 0.5766(3)
N4A N 0.4208(4) 1.1576(3) 0.2080(3)
N5A N 0.4914(4) 1.2812(4) 0.2422(3)
N6A N 0.5613(6) 1.4023(4) 0.2725(4)
N7A N 2.1577(3) 1.8813(3) 1.1847(2)
N7A_2 N 0.1577(3) 0.8813(3) 0.1847(2)
N8A N 1.4818(3) 1.8855(3) 1.2152(2)
N8_2 N 0.5182(3) 1.1145(3) 0.7848(2)
N8A_2 N 0.4818(3) 0.8855(3) 0.2152(2)
N9A N 1.2922(4) 0.1195(3) 0.3978(2)
N9A_2 N 0.2922(4) 1.1195(3) 0.3978(2)
N10A N 0.9178(7) 0.2641(6) 0.1455(4)
C1A C 1.6884(4) 1.6165(4) 0.9748(3)
H1A H 1.6462 1.6689 0.9306
H2A H 1.6910 1.5365 0.9275
C2A C 1.5791(4) 1.5602(4) 1.0382(3)
H3A H 1.6310 1.5200 1.0900
C3A C 1.8512(4) 1.7106(4) 1.0469(3)
C4A C 1.9105(4) 1.8561(4) 1.0665(3)
H4A H 1.8485 1.8998 1.0334
C5A C 2.0614(4) 1.9369(4) 1.1348(3)
H5A H 2.0984 2.0351 1.1470
C6A C 2.1000(4) 1.7399(4) 1.1651(3)
H6A H 2.1643 1.6984 1.1987
C7A C 1.9504(4) 1.6525(4) 1.0979(3)
H7A H 1.9159 1.5546 1.0867
C8A C 1.5518(4) 1.6799(4) 1.1003(3)
C9A C 1.4748(5) 1.7541(4) 1.0490(3)
H8A H 1.4458 1.7368 0.9748
C10A C 1.4408(5) 1.8542(4) 1.1083(3)
H9A H 1.3872 1.9020 1.0722
C11A C 1.5627(4) 1.8184(4) 1.2649(3)
H10A H 1.5975 1.8427 1.3395
C12A C 1.5976(4) 1.7142(4) 1.2105(3)
H11A H 1.6515 1.6679 1.2483
C13A C 1.0696(5) 0.3559(4) 0.5460(3)
H12A H 0.9663 0.2918 0.5402
H13A H 1.1289 0.4038 0.6214
C14A C 1.0542(5) 0.4677(4) 0.4842(3)
H14A H 1.1582 0.5441 0.5059
C15A C 1.1510(5) 0.2728(4) 0.5005(3)
C16A C 1.3068(5) 0.3346(4) 0.5073(3)
H15A H 1.3678 0.4286 0.5471
C17A C 1.3707(5) 0.2562(4) 0.4548(3)
H16A H 1.4743 0.3008 0.4592
C18A C 1.1456(5) 0.0593(4) 0.3958(3)
H17A H 1.0896 -0.0368 0.3599
C19A C 1.0719(5) 0.1307(4) 0.4435(3)
H18A H 0.9681 0.0831 0.4375
C20A C 0.9998(5) 0.4029(4) 0.3627(3)
C21A C 1.0999(6) 0.4457(5) 0.3075(4)
H19A H 1.1959 0.5225 0.3407
C22A C 1.0540(8) 0.3708(7) 0.1997(5)
H20A H 1.1244 0.3982 0.1636
C23A C 0.8256(7) 0.2286(6) 0.1997(4)
H21A H 0.7286 0.1539 0.1638
C24A C 0.8584(5) 0.2916(5) 0.3054(4)
H22A H 0.7853 0.2593 0.3386
loop_
_geom_bond_atom_site_label_1
_geom_bond_atom_site_label_2
_geom_bond_site_symmetry_1
_geom_bond_site_symmetry_2
N1 Zn1 1_555 1_555
Zn1 N4 1_555 1_555
N2 N1 1_555 1_555
N3 N2 1_555 1_555
N4 N5 1_555 1_555
N5 N6 1_555 1_555
N7 Zn1 1_555 1_555
N8 C10 1_555 1_555
N9 Zn1 1_555 1_555
N10 C22 1_555 1_555
C1 H1 1_555 1_555
H2 C1 1_555 1_555
C2 C1 1_555 1_555
H3 C2 1_555 1_555
C3 C1 1_555 1_555
C4 C3 1_555 1_555
H4 C4 1_555 1_555
C5 N7 1_555 1_555
H5 C5 1_555 1_555
C6 N7 1_555 1_555
H6 C6 1_555 1_555
C7 C3 1_555 1_555
H7 C7 1_555 1_555
C8 C2 1_555 1_555
C9 C8 1_555 1_555
H8 C9 1_555 1_555
C10 C9 1_555 1_555
H9 C10 1_555 1_555
C11 N8 1_555 1_555
H10 C11 1_555 1_555
C12 C8 1_555 1_555
H11 C12 1_555 1_555
C13 H12 1_555 1_555
H13 C13 1_555 1_555
C14 C13 1_555 1_555
H14 C14 1_555 1_555
C15 C13 1_555 1_555
C16 C15 1_555 1_555
H15 C16 1_555 1_555
C17 N9 1_555 1_555
H16 C17 1_555 1_555
C18 N9 1_555 1_555
H17 C18 1_555 1_555
C19 C15 1_555 1_555
H18 C19 1_555 1_555
C20 C14 1_555 1_555
C21 C20 1_555 1_555
H19 C21 1_555 1_555
C22 C21 1_555 1_555
H20 C22 1_555 1_555
C23 N10 1_555 1_555
H21 C23 1_555 1_555
C24 C20 1_555 1_555
H22 C24 1_555 1_555
N1A Zn1A 1_555 1_555
Zn1A N3 1_555 1_555
Zn1_2 N8 1_555 1_555
Zn1A_2 N7A 1_555 1_555
Zn1A_3 N8A 1_555 1_555
Zn1A_4 N9A 1_555 1_555
N2A N1A 1_555 1_555
N3A Zn1 1_555 1_555
N4A Zn1A 1_555 1_555
N5A N4A 1_555 1_555
N6A N5A 1_555 1_555
N7A C5A 1_555 1_555
N7A_2 Zn1A 1_555 1_555
N8A C10A 1_555 1_555
N8_2 Zn1 1_555 1_555
N8A_2 Zn1A 1_555 1_555
N9A C17A 1_555 1_555
N9A_2 Zn1A 1_555 1_555
N10A C22A 1_555 1_555
C1A H1A 1_555 1_555
H2A C1A 1_555 1_555
C2A C2 1_555 1_555
H3A C2A 1_555 1_555
C3A C1A 1_555 1_555
C4A C3A 1_555 1_555
H4A C4A 1_555 1_555
C5A C4A 1_555 1_555
H5A C5A 1_555 1_555
C6A N7A 1_555 1_555
H6A C6A 1_555 1_555
C7A C3A 1_555 1_555
H7A C7A 1_555 1_555
C8A C2A 1_555 1_555
C9A C8A 1_555 1_555
H8A C9A 1_555 1_555
C10A C9A 1_555 1_555
H9A C10A 1_555 1_555
C11A N8A 1_555 1_555
H10A C11A 1_555 1_555
C12A C8A 1_555 1_555
H11A C12A 1_555 1_555
C13A H12A 1_555 1_555
H13A C13A 1_555 1_555
C14A C14 1_555 1_555
H14A C14A 1_555 1_555
C15A C13A 1_555 1_555
C16A C15A 1_555 1_555
H15A C16A 1_555 1_555
C17A C16A 1_555 1_555
H16A C17A 1_555 1_555
C18A N9A 1_555 1_555
H17A C18A 1_555 1_555
C19A C15A 1_555 1_555
H18A C19A 1_555 1_555
C20A C14A 1_555 1_555
C21A C20A 1_555 1_555
H19A C21A 1_555 1_555
C22A C21A 1_555 1_555
H20A C22A 1_555 1_555
C23A N10A 1_555 1_555
H21A C23A 1_555 1_555
C24A C20A 1_555 1_555
H22A C24A 1_555 1_555
C4 C5 1_555 1_555
C6 C7 1_555 1_555
C11 C12 1_555 1_555
C16 C17 1_555 1_555
C18 C19 1_555 1_555
C23 C24 1_555 1_555
N2A N3A 1_555 1_555
C1A C2A 1_555 1_555
C6A C7A 1_555 1_555
C11A C12A 1_555 1_555
C13A C14A 1_555 1_555
C18A C19A 1_555 1_555
C23A C24A 1_555 1_555

#END
