
#######################################################################
#
#                 Cambridge Crystallographic Data Centre
#                                CCDC 
#
#######################################################################
#
# If this CIF has been generated from an entry in the Cambridge 
# Structural Database, then it will include bibliographic, chemical, 
# crystal, experimental, refinement or atomic coordinate data resulting 
# from the CCDC's data processing and validation procedures.
#
#######################################################################

data_QUGZEY
_symmetry_cell_setting           monoclinic
_symmetry_space_group_name_H-M   'P 21/n'
_symmetry_Int_Tables_number      14
_space_group_name_Hall           '-P 2yn'
loop_
_symmetry_equiv_pos_site_id
_symmetry_equiv_pos_as_xyz
1 x,y,z
2 1/2-x,1/2+y,1/2-z
3 -x,-y,-z
4 1/2+x,1/2-y,1/2+z
_cell_length_a                   9.006(5)
_cell_length_b                   10.907(6)
_cell_length_c                   17.338(9)
_cell_angle_alpha                90
_cell_angle_beta                 98.955(11)
_cell_angle_gamma                90
_cell_volume                     1682.33
loop_
_atom_site_label
_atom_site_type_symbol
_atom_site_fract_x
_atom_site_fract_y
_atom_site_fract_z
C1 C 0.3844(6) 0.5687(5) 0.0729(3)
H1 H 0.2974 0.5910 0.0352
H2 H 0.4441 0.6424 0.0841
C2 C 0.4714(6) 0.4847(4) 0.0353(3)
H3 H 0.5661 0.4975 0.0707
C3 C 0.4564(5) 0.3529(4) 0.0529(2)
C4 C 0.3350(5) 0.2866(5) 0.0214(3)
H4 H 0.2584 0.3242 -0.0126
C5 C 0.3235(5) 0.1646(5) 0.0390(3)
H5 H 0.2381 0.1219 0.0167
C6 C 0.5469(5) 0.1691(5) 0.1154(3)
H6 H 0.6230 0.1288 0.1482
C7 C 0.5657(5) 0.2909(5) 0.1009(3)
H7 H 0.6525 0.3313 0.1236
C8 C 0.3291(5) 0.5327(4) 0.1460(3)
C9 C 0.4078(6) 0.5244(4) 0.2143(3)
H8 H 0.5107 0.5391 0.2199
C10 C 0.3447(5) 0.4944(5) 0.2799(3)
H9 H 0.4073 0.4904 0.3278
C11 C 0.1255(6) 0.4837(5) 0.2096(3)
H10 H 0.0219 0.4741 0.2052
C12 C 0.1858(6) 0.5092(5) 0.1439(3)
H11 H 0.1230 0.5100 0.0959
C13 C 0.6828(6) -0.1961(5) 0.1691(3)
C14 C 0.1594(5) -0.1775(5) -0.0010(3)
N1 N 0.4279(4) 0.1060(3) 0.0858(2)
N2 N 0.2061(4) 0.4722(4) 0.2777(2)
N3 N 0.5746(5) -0.1441(4) 0.1572(2)
N4 N 0.2424(4) -0.1381(4) 0.0482(2)
S1 S 0.83742(13) -0.27355(12) 0.18222(7)
S2 S 0.04971(14) -0.24107(12) -0.07063(7)
Zn1 Zn 0.38765(6) -0.06227(5) 0.12593(3)
C1B C 0.6156(6) 0.4313(5) -0.0729(3)
H1B H 0.7026 0.4090 -0.0352
H2B H 0.5559 0.3576 -0.0841
C2B C 0.5286(6) 0.5153(4) -0.0353(3)
H3B H 0.4339 0.5025 -0.0707
C3B C 0.5436(5) 0.6471(4) -0.0529(2)
C4B C 0.6650(5) 0.7134(5) -0.0214(3)
H4B H 0.7416 0.6758 0.0126
C5B C 0.6765(5) 0.8354(5) -0.0390(3)
H5B H 0.7619 0.8781 -0.0167
C6B C 0.4531(5) 0.8309(5) -0.1154(3)
H6B H 0.3770 0.8712 -0.1482
C7B C 0.4343(5) 0.7091(5) -0.1009(3)
H7B H 0.3475 0.6687 -0.1236
C8B C 0.6709(5) 0.4673(4) -0.1460(3)
C9B C 0.5922(6) 0.4756(4) -0.2143(3)
H8B H 0.4893 0.4609 -0.2199
C10B C 0.6553(5) 0.5056(5) -0.2799(3)
H9B H 0.5927 0.5096 -0.3278
C11B C 0.8745(6) 0.5163(5) -0.2096(3)
H10B H 0.9781 0.5259 -0.2052
C12B C 0.8142(6) 0.4908(5) -0.1439(3)
H11B H 0.8770 0.4900 -0.0959
C13B C 0.3172(6) 1.1961(5) -0.1691(3)
C14B C 0.8406(5) 1.1775(5) 0.0010(3)
N1B N 0.5721(4) 0.8940(3) -0.0858(2)
N2B N 0.7939(4) 0.5278(4) -0.2777(2)
N2A N 0.2939(4) -0.0278(4) 0.2223(2)
N2C N 0.7061(4) 1.0278(4) -0.2223(2)
N3B N 0.4254(5) 1.1441(4) -0.1572(2)
N4B N 0.7576(4) 1.1381(4) -0.0482(2)
S1B S 0.16258(13) 1.27355(12) -0.18222(7)
S2B S 0.95029(14) 1.24107(12) 0.07063(7)
Zn1B Zn 0.61235(6) 1.06227(5) -0.12593(3)
Zn1A Zn 0.11235(6) 0.43773(5) 0.37407(3)
Zn1C Zn 0.88765(6) 0.56227(5) -0.37407(3)
loop_
_geom_bond_atom_site_label_1
_geom_bond_atom_site_label_2
_geom_bond_site_symmetry_1
_geom_bond_site_symmetry_2
C1 H1 1_555 1_555
H2 C1 1_555 1_555
C2 C1 1_555 1_555
H3 C2 1_555 1_555
C3 C2 1_555 1_555
C4 C3 1_555 1_555
H4 C4 1_555 1_555
C5 C4 1_555 1_555
H5 C5 1_555 1_555
C6 H6 1_555 1_555
C7 C3 1_555 1_555
H7 C7 1_555 1_555
C8 C1 1_555 1_555
C9 C8 1_555 1_555
H8 C9 1_555 1_555
C10 C9 1_555 1_555
H9 C10 1_555 1_555
C11 H10 1_555 1_555
C12 C8 1_555 1_555
H11 C12 1_555 1_555
C13 N3 1_555 1_555
C14 N4 1_555 1_555
N1 C5 1_555 1_555
N2 C10 1_555 1_555
N3 Zn1 1_555 1_555
N4 Zn1 1_555 1_555
S1 C13 1_555 1_555
S2 C14 1_555 1_555
Zn1 N1 1_555 1_555
C1B H1B 1_555 1_555
H2B C1B 1_555 1_555
C2B C2 1_555 1_555
H3B C2B 1_555 1_555
C3B C2B 1_555 1_555
C4B C3B 1_555 1_555
H4B C4B 1_555 1_555
C5B C4B 1_555 1_555
H5B C5B 1_555 1_555
C6B H6B 1_555 1_555
C7B C3B 1_555 1_555
H7B C7B 1_555 1_555
C8B C1B 1_555 1_555
C9B C8B 1_555 1_555
H8B C9B 1_555 1_555
C10B C9B 1_555 1_555
H9B C10B 1_555 1_555
C11B H10B 1_555 1_555
C12B C8B 1_555 1_555
H11B C12B 1_555 1_555
C13B N3B 1_555 1_555
C14B N4B 1_555 1_555
N1B C5B 1_555 1_555
N2B C10B 1_555 1_555
N2A Zn1 1_555 1_555
N2C Zn1B 1_555 1_555
N3B Zn1B 1_555 1_555
N4B Zn1B 1_555 1_555
S1B C13B 1_555 1_555
S2B C14B 1_555 1_555
Zn1B N1B 1_555 1_555
Zn1A N2 1_555 1_555
Zn1C N2B 1_555 1_555
C6 C7 1_555 1_555
C6 N1 1_555 1_555
C11 C12 1_555 1_555
C11 N2 1_555 1_555
C1B C2B 1_555 1_555
C6B C7B 1_555 1_555
C6B N1B 1_555 1_555
C11B C12B 1_555 1_555
C11B N2B 1_555 1_555

#END
