
#######################################################################
#
#                 Cambridge Crystallographic Data Centre
#                                CCDC 
#
#######################################################################
#
# If this CIF has been generated from an entry in the Cambridge 
# Structural Database, then it will include bibliographic, chemical, 
# crystal, experimental, refinement or atomic coordinate data resulting 
# from the CCDC's data processing and validation procedures.
#
#######################################################################

data_QUGZAU
_symmetry_cell_setting           monoclinic
_symmetry_space_group_name_H-M   'P 21/n'
_symmetry_Int_Tables_number      14
_space_group_name_Hall           '-P 2yn'
loop_
_symmetry_equiv_pos_site_id
_symmetry_equiv_pos_as_xyz
1 x,y,z
2 1/2-x,1/2+y,1/2-z
3 -x,-y,-z
4 1/2+x,1/2-y,1/2+z
_cell_length_a                   11.820(4)
_cell_length_b                   9.219(4)
_cell_length_c                   23.002(14)
_cell_angle_alpha                90
_cell_angle_beta                 99.90(4)
_cell_angle_gamma                90
_cell_volume                     2469.17
loop_
_atom_site_label
_atom_site_type_symbol
_atom_site_fract_x
_atom_site_fract_y
_atom_site_fract_z
Cu1 Cu 0.01436(5) 0.02323(6) 0.68208(3)
Cu2 Cu -0.10171(4) 0.55640(5) 0.54725(3)
O1 O 0.0964(3) -0.0942(3) 0.63634(14)
N1 N 0.0600(3) 0.4840(5) 0.5634(2)
N2 N 0.1222(3) 0.4972(4) 0.61005(19)
C1 C 0.2012(4) -0.0720(4) 0.62502(19)
C2 C 0.2484(4) 0.1414(5) 0.6956(2)
N3 N 0.1457(4) 0.1535(4) 0.70641(17)
C3 C 0.2770(4) 0.0390(4) 0.6516(2)
N4 N -0.0501(3) 0.7580(4) 0.53185(18)
H1 H -0.0167 0.7988 0.5661
H2 H 0.0024 0.7541 0.5078
N5 N -0.1232(3) 0.2609(4) 0.57625(19)
N6 N -0.0947(3) -0.2533(5) 0.67121(19)
N7 N -0.0624(4) 0.1433(5) 0.7398(2)
N8 N -0.2662(3) 0.6405(4) 0.52253(19)
C4 C 0.3858(4) 0.0490(5) 0.6340(3)
H3 H 0.4359 0.1215 0.6506
C5 C 0.1221(5) 0.2657(6) 0.7493(3)
H4 H 0.1591 0.3563 0.7421
H5 H 0.1516 0.2345 0.7893
C6 C 0.4203(4) -0.0405(5) 0.5946(3)
C7 C 0.2415(4) -0.1658(5) 0.5854(2)
H6 H 0.1942 -0.2414 0.5693
O2 O 0.5239(4) -0.0353(5) 0.5740(3)
N9 N -0.1721(4) 0.3632(4) 0.5544(2)
N10 N -0.0884(4) -0.3752(5) 0.6590(2)
N11 N -0.1057(4) -0.1286(5) 0.6821(2)
C8 C 0.3463(4) -0.1521(5) 0.5693(3)
H7 H 0.3689 -0.2153 0.5419
C9 C -0.2473(5) 0.8017(7) 0.5228(4)
H8 H -0.3117 0.8463 0.4973
H9 H -0.247 0.8374 0.5625
C10 C -0.1469(5) 0.8462(6) 0.5048(3)
H10 H -0.1321 0.947 0.5157
H11 H -0.1556 0.8389 0.4622
C11 C 0.3439(5) 0.2333(6) 0.7292(3)
H12 H 0.3134 0.295 0.7564
H13 H 0.3771 0.2918 0.702
H14 H 0.4019 0.1714 0.7506
N12 N -0.0787(5) 0.1560(5) 0.5945(3)
C12 C -0.0043(6) 0.2855(6) 0.7411(3)
H15 H -0.0236 0.3436 0.7732
H16 H -0.0306 0.3367 0.7044
C13 C -0.3199(5) 0.5908(8) 0.4643(3)
H17 H -0.2701 0.6108 0.4364
H18 H -0.3916 0.6404 0.4526
H19 H -0.3335 0.4882 0.4655
C14 C -0.0334(7) 0.0724(8) 0.7985(3)
H20 H -0.0701 -0.0207 0.7972
H21 H -0.0597 0.1319 0.8277
H22 H 0.0483 0.0602 0.8084
C15 C -0.3401(5) 0.6128(10) 0.5670(3)
H23 H -0.3025 0.6472 0.6048
H24 H -0.354 0.5105 0.5693
H25 H -0.4119 0.6627 0.5559
C16 C -0.1886(6) 0.1618(8) 0.7234(4)
H26 H -0.2254 0.0688 0.723
H27 H -0.2065 0.205 0.685
H28 H -0.2157 0.2235 0.7517
C17 C 0.5954(5) 0.0798(8) 0.5911(4)
H29 H 0.6643 0.0696 0.5747
H30 H 0.6145 0.0821 0.6334
H31 H 0.5573 0.1684 0.5773
N13 N 0.1875(4) 0.5080(6) 0.6528(2)
Cu2B Cu 0.10171(4) 0.44360(5) 0.45275(3)
Cu2_2 Cu -0.10171(4) -0.44360(5) 0.54725(3)
N1B N -0.0600(3) 0.5160(5) 0.4366(2)
N10_2 N -0.0884(4) 0.6248(5) 0.6590(2)
loop_
_geom_bond_atom_site_label_1
_geom_bond_atom_site_label_2
_geom_bond_site_symmetry_1
_geom_bond_site_symmetry_2
Cu1 O1 1_555 1_555
Cu2 N1 1_555 1_555
O1 C1 1_555 1_555
N1 N2 1_555 1_555
N2 N13 1_555 1_555
C1 C3 1_555 1_555
C2 N3 1_555 1_555
N3 Cu1 1_555 1_555
C3 C2 1_555 1_555
N4 Cu2 1_555 1_555
H1 N4 1_555 1_555
H2 N4 1_555 1_555
N5 N9 1_555 1_555
N6 N10 1_555 1_555
N7 Cu1 1_555 1_555
N8 Cu2 1_555 1_555
C4 C3 1_555 1_555
H3 C4 1_555 1_555
C5 N3 1_555 1_555
H4 C5 1_555 1_555
H5 C5 1_555 1_555
C6 C4 1_555 1_555
C7 C1 1_555 1_555
H6 C7 1_555 1_555
O2 C6 1_555 1_555
N9 Cu2 1_555 1_555
N10 Cu2_2 1_555 1_555
N11 Cu1 1_555 1_555
C8 C6 1_555 1_555
H7 C8 1_555 1_555
C9 N8 1_555 1_555
H8 C9 1_555 1_555
H9 C9 1_555 1_555
C10 N4 1_555 1_555
H10 C10 1_555 1_555
H11 C10 1_555 1_555
C11 C2 1_555 1_555
H12 C11 1_555 1_555
H13 C11 1_555 1_555
H14 C11 1_555 1_555
N12 Cu1 1_555 1_555
C12 N7 1_555 1_555
H15 C12 1_555 1_555
H16 C12 1_555 1_555
C13 N8 1_555 1_555
H17 C13 1_555 1_555
H18 C13 1_555 1_555
H19 C13 1_555 1_555
C14 N7 1_555 1_555
H20 C14 1_555 1_555
H21 C14 1_555 1_555
H22 C14 1_555 1_555
C15 N8 1_555 1_555
H23 C15 1_555 1_555
H24 C15 1_555 1_555
H25 C15 1_555 1_555
C16 N7 1_555 1_555
H26 C16 1_555 1_555
H27 C16 1_555 1_555
H28 C16 1_555 1_555
C17 O2 1_555 1_555
H29 C17 1_555 1_555
H30 C17 1_555 1_555
H31 C17 1_555 1_555
Cu2B N1 1_555 1_555
N1B Cu2 1_555 1_555
N10_2 Cu2 1_555 1_555
N5 N12 1_555 1_555
N6 N11 1_555 1_555
C5 C12 1_555 1_555
C7 C8 1_555 1_555
C9 C10 1_555 1_555
Cu2B N1B 1_555 1_555

#END
