
#######################################################################
#
#                 Cambridge Crystallographic Data Centre
#                                CCDC 
#
#######################################################################
#
# If this CIF has been generated from an entry in the Cambridge 
# Structural Database, then it will include bibliographic, chemical, 
# crystal, experimental, refinement or atomic coordinate data resulting 
# from the CCDC's data processing and validation procedures.
#
#######################################################################

data_QUHPOZ
_symmetry_cell_setting           triclinic
_symmetry_space_group_name_H-M   'P -1'
_symmetry_Int_Tables_number      2
_space_group_name_Hall           '-P 1'
loop_
_symmetry_equiv_pos_site_id
_symmetry_equiv_pos_as_xyz
1 x,y,z
2 -x,-y,-z
_cell_length_a                   10.4337(18)
_cell_length_b                   11.2196(19)
_cell_length_c                   13.435(2)
_cell_angle_alpha                110.065(3)
_cell_angle_beta                 101.403(3)
_cell_angle_gamma                107.759(3)
_cell_volume                     1324.07
loop_
_atom_site_label
_atom_site_type_symbol
_atom_site_fract_x
_atom_site_fract_y
_atom_site_fract_z
C1 C 0.4272(6) 0.7478(6) 0.3607(5)
C2 C 0.3792(6) 0.6241(6) 0.2479(5)
C3 C 0.3810(8) 0.5429(7) 0.0587(6)
H1 H 0.4063 0.5589 0.0004
C4 C 0.3024(8) 0.4119(7) 0.0440(5)
H2 H 0.2757 0.3389 -0.0262
N1 N 0.2613(6) 0.3818(5) 0.1244(4)
C5 C 0.2986(6) 0.4876(6) 0.2243(5)
C6 C 0.2365(6) 0.4445(6) 0.3042(5)
C7 C 0.0554(7) 0.4261(7) 0.3784(6)
H3 H -0.0216 0.4478 0.3887
C8 C 0.0910(7) 0.3456(7) 0.4259(5)
H4 H 0.0393 0.3136 0.4671
C9 C 0.2053(8) 0.3130(7) 0.4114(6)
H5 H 0.2305 0.2569 0.4416
C10 C 0.2820(6) 0.3644(6) 0.3514(5)
C11 C 0.4063(7) 0.3285(7) 0.3349(5)
C12 C 0.7719(6) 1.0613(6) 0.5427(4)
C13 C 0.9329(6) 1.1263(6) 0.5862(5)
C14 C 0.9939(6) 1.2591(6) 0.6746(5)
H6 H 0.9357 1.2989 0.7042
C15 C 1.1410(7) 1.3319(7) 0.7183(6)
H7 H 1.1835 1.4211 0.7765
C16 C 1.2216(7) 1.2675(7) 0.6725(6)
H8 H 1.3204 1.3162 0.7006
C17 C 1.0256(6) 1.0696(6) 0.5474(5)
C18 C 0.1836(8) 0.9009(8) 0.1580(6)
H9 H 0.1521 0.9373 0.2170
C19 C 0.0822(9) 0.8132(9) 0.0517(7)
H10 H -0.0145 0.7910 0.0406
C20 C 0.1262(9) 0.7598(8) -0.0367(7)
H11 H 0.0598 0.7003 -0.1083
C21 C 0.2715(8) 0.7959(7) -0.0176(6)
C22 C 0.3667(7) 0.8862(6) 0.0930(5)
C23 C 0.3296(9) 0.7508(7) -0.1051(6)
H12 H 0.2675 0.6935 -0.1786
C24 C 0.4704(9) 0.7890(7) -0.0837(6)
H13 H 0.5041 0.7573 -0.1424
C25 C 0.5708(8) 0.8782(7) 0.0286(6)
C26 C 0.5182(7) 0.9276(6) 0.1165(5)
C27 C 0.7180(8) 0.9196(8) 0.0556(6)
H14 H 0.7566 0.8908 -0.0004
C28 C 0.8050(8) 1.0020(7) 0.1637(6)
H15 H 0.9036 1.0301 0.1827
C29 C 0.7442(7) 1.0443(7) 0.2463(6)
H16 H 0.8051 1.1007 0.3202
C30 C 0.4212(7) 0.6502(6) 0.1636(6)
H17 H 0.4767 0.7405 0.1775
N2 N 0.1253(5) 0.4756(5) 0.3175(4)
N3 N 1.1673(5) 1.1403(6) 0.5906(5)
N4 N 0.3214(6) 0.9350(5) 0.1794(4)
N5 N 0.6056(6) 1.0089(5) 0.2252(4)
O1 O 0.4560(4) 0.8637(4) 0.3597(4)
O2 O 0.4352(5) 0.7279(4) 0.4478(3)
O3 O 0.5135(5) 0.4149(4) 0.3352(4)
O4 O 0.3919(5) 0.2076(4) 0.3233(4)
O5 O 0.7156(4) 1.0994(4) 0.4750(3)
O6 O 0.7099(4) 0.9874(4) 0.5845(4)
O7 O 0.6902(4) 1.2936(4) 0.3904(4)
H18 H 0.7482 1.3389 0.4578
H19 H 0.6502 1.3438 0.3739
Er1 Er 0.49917(3) 1.08415(3) 0.37840(2)
C1A C 0.5728(6) 1.2522(6) 0.6393(5)
C2A C 0.6208(6) 1.3759(6) 0.7521(5)
C3A C 0.6190(8) 1.4571(7) 0.9413(6)
H1A H 0.5937 1.4411 0.9996
C4A C 0.6976(8) 1.5881(7) 0.9560(5)
H2A H 0.7243 1.6611 1.0262
N1A N 0.7387(6) 1.6182(5) 0.8756(4)
C5A C 0.7014(6) 1.5124(6) 0.7757(5)
C6A C 0.7635(6) 1.5555(6) 0.6958(5)
C7A C 0.9446(7) 1.5739(7) 0.6216(6)
H3A H 1.0216 1.5522 0.6113
C8A C 0.9090(7) 1.6544(7) 0.5741(5)
H4A H 0.9607 1.6864 0.5329
C9A C 0.7947(8) 1.6870(7) 0.5886(6)
H5A H 0.7695 1.7431 0.5584
C10A C 0.7180(6) 1.6356(6) 0.6486(5)
C11A C 0.5937(7) 1.6715(7) 0.6651(5)
C12A C 1.2281(6) 0.9387(6) 0.4573(4)
C13A C 1.0671(6) 0.8737(6) 0.4138(5)
C14A C 1.0061(6) 0.7409(6) 0.3254(5)
H6A H 1.0643 0.7011 0.2958
C15A C 0.8590(7) 0.6681(7) 0.2817(6)
H7A H 0.8165 0.5789 0.2235
C16A C 0.7784(7) 0.7325(7) 0.3275(6)
H8A H 0.6796 0.6838 0.2994
C17A C 0.9744(6) 0.9304(6) 0.4526(5)
C18A C 0.8164(8) 1.0991(8) 0.8420(6)
H9A H 0.8479 1.0627 0.7830
C19A C 0.9178(9) 1.1868(9) 0.9483(7)
H10A H 1.0145 1.2090 0.9594
C20A C 0.8738(9) 1.2402(8) 1.0367(7)
H11A H 0.9402 1.2997 1.1083
C21A C 0.7285(8) 1.2041(7) 1.0176(6)
C22A C 0.6333(7) 1.1138(6) 0.9070(5)
C23A C 0.6704(9) 1.2492(7) 1.1051(6)
H12A H 0.7325 1.3065 1.1786
C24A C 0.5296(9) 1.2110(7) 1.0837(6)
H13A H 0.4959 1.2427 1.1424
C25A C 0.4292(8) 1.1218(7) 0.9714(6)
C26A C 0.4818(7) 1.0724(6) 0.8835(5)
C27A C 0.2820(8) 1.0804(8) 0.9444(6)
H14A H 0.2434 1.1092 1.0004
C28A C 0.1950(8) 0.9980(7) 0.8363(6)
H15A H 0.0964 0.9699 0.8173
C29A C 0.2558(7) 0.9557(7) 0.7537(6)
H16A H 0.1949 0.8993 0.6798
C30A C 0.5788(7) 1.3498(6) 0.8364(6)
H17A H 0.5233 1.2595 0.8225
N2A N 0.8747(5) 1.5244(5) 0.6825(4)
N3A N 0.8327(5) 0.8597(6) 0.4094(5)
N4A N 0.6786(6) 1.0650(5) 0.8206(4)
N5A N 0.3944(6) 0.9911(5) 0.7748(4)
O1A O 0.5440(4) 1.1363(4) 0.6403(4)
O2A O 0.5648(5) 1.2721(4) 0.5522(3)
O3A O 0.4865(5) 1.5851(4) 0.6648(4)
O4A O 0.6081(5) 1.7924(4) 0.6767(4)
O4_2 O 0.3919(5) 1.2076(4) 0.3233(4)
O4A_2 O 0.6081(5) 0.7924(4) 0.6767(4)
O5A O 1.2844(4) 0.9006(4) 0.5250(3)
O5A_2 O 0.2844(4) 0.9006(4) 0.5250(3)
O6A O 1.2901(4) 1.0126(4) 0.4155(4)
O6A_2 O 0.2901(4) 1.0126(4) 0.4155(4)
O7A O 0.3098(4) 0.7064(4) 0.6096(4)
H18A H 0.2518 0.6611 0.5422
H19A H 0.3498 0.6562 0.6261
Er1A Er 0.50083(3) 0.91585(3) 0.62160(2)
Er1_2 Er 0.49917(3) 0.08415(3) 0.37840(2)
Er1A_2 Er 1.50083(3) 0.91585(3) 0.62160(2)
Er1_3 Er 1.49917(3) 1.08415(3) 0.37840(2)
Er1A_3 Er 0.50083(3) 1.91585(3) 0.62160(2)
loop_
_geom_bond_atom_site_label_1
_geom_bond_atom_site_label_2
_geom_bond_site_symmetry_1
_geom_bond_site_symmetry_2
C1 C2 1_555 1_555
C2 C5 1_555 1_555
C3 H1 1_555 1_555
C4 C3 1_555 1_555
H2 C4 1_555 1_555
N1 C4 1_555 1_555
C5 N1 1_555 1_555
C6 C5 1_555 1_555
C7 H3 1_555 1_555
C8 C7 1_555 1_555
H4 C8 1_555 1_555
C9 C8 1_555 1_555
H5 C9 1_555 1_555
C10 C6 1_555 1_555
C11 C10 1_555 1_555
C12 C13 1_555 1_555
C13 C14 1_555 1_555
C14 H6 1_555 1_555
C15 C14 1_555 1_555
H7 C15 1_555 1_555
C16 C15 1_555 1_555
H8 C16 1_555 1_555
C17 C13 1_555 1_555
C18 H9 1_555 1_555
C19 C18 1_555 1_555
H10 C19 1_555 1_555
C20 C19 1_555 1_555
H11 C20 1_555 1_555
C21 C20 1_555 1_555
C22 C21 1_555 1_555
C23 C21 1_555 1_555
H12 C23 1_555 1_555
C24 C23 1_555 1_555
H13 C24 1_555 1_555
C25 C24 1_555 1_555
C26 C22 1_555 1_555
C27 C25 1_555 1_555
H14 C27 1_555 1_555
C28 C27 1_555 1_555
H15 C28 1_555 1_555
C29 C28 1_555 1_555
H16 C29 1_555 1_555
C30 C2 1_555 1_555
H17 C30 1_555 1_555
N2 C6 1_555 1_555
N3 C16 1_555 1_555
N4 C18 1_555 1_555
N5 C26 1_555 1_555
O1 C1 1_555 1_555
O2 C1 1_555 1_555
O3 C11 1_555 1_555
O4 C11 1_555 1_555
O5 C12 1_555 1_555
O6 C12 1_555 1_555
O7 H18 1_555 1_555
H19 O7 1_555 1_555
Er1 N4 1_555 1_555
C1A C2A 1_555 1_555
C2A C5A 1_555 1_555
C3A H1A 1_555 1_555
C4A C3A 1_555 1_555
H2A C4A 1_555 1_555
N1A C4A 1_555 1_555
C5A N1A 1_555 1_555
C6A C5A 1_555 1_555
C7A H3A 1_555 1_555
C8A C7A 1_555 1_555
H4A C8A 1_555 1_555
C9A C8A 1_555 1_555
H5A C9A 1_555 1_555
C10A C6A 1_555 1_555
C11A C10A 1_555 1_555
C12A C13A 1_555 1_555
C13A C14A 1_555 1_555
C14A H6A 1_555 1_555
C15A C14A 1_555 1_555
H7A C15A 1_555 1_555
C16A C15A 1_555 1_555
H8A C16A 1_555 1_555
C17A C17 1_555 1_555
C18A H9A 1_555 1_555
C19A C18A 1_555 1_555
H10A C19A 1_555 1_555
C20A C19A 1_555 1_555
H11A C20A 1_555 1_555
C21A C20A 1_555 1_555
C22A C21A 1_555 1_555
C23A C21A 1_555 1_555
H12A C23A 1_555 1_555
C24A C23A 1_555 1_555
H13A C24A 1_555 1_555
C25A C24A 1_555 1_555
C26A C22A 1_555 1_555
C27A C25A 1_555 1_555
H14A C27A 1_555 1_555
C28A C27A 1_555 1_555
H15A C28A 1_555 1_555
C29A C28A 1_555 1_555
H16A C29A 1_555 1_555
C30A C2A 1_555 1_555
H17A C30A 1_555 1_555
N2A C6A 1_555 1_555
N3A C16A 1_555 1_555
N4A C18A 1_555 1_555
N5A C26A 1_555 1_555
O1A C1A 1_555 1_555
O2A Er1 1_555 1_555
O3A C11A 1_555 1_555
O4A C11A 1_555 1_555
O4_2 Er1 1_555 1_555
O4A_2 Er1A 1_555 1_555
O5A C12A 1_555 1_555
O5A_2 Er1A 1_555 1_555
O6A C12A 1_555 1_555
O6A_2 Er1 1_555 1_555
O7A H18A 1_555 1_555
H19A O7A 1_555 1_555
Er1A O2 1_555 1_555
Er1_2 O4 1_555 1_555
Er1A_2 O5A 1_555 1_555
Er1_3 O6A 1_555 1_555
Er1A_3 O4A 1_555 1_555
C3 C30 1_555 1_555
C7 N2 1_555 1_555
C9 C10 1_555 1_555
C17 N3 1_555 1_555
C22 N4 1_555 1_555
C25 C26 1_555 1_555
C29 N5 1_555 1_555
N5 Er1 1_555 1_555
O1 Er1 1_555 1_555
O5 Er1 1_555 1_555
O6 Er1A 1_555 1_555
O7 Er1 1_555 1_555
C1A O2A 1_555 1_555
C3A C30A 1_555 1_555
C7A N2A 1_555 1_555
C9A C10A 1_555 1_555
C13A C17A 1_555 1_555
C17A N3A 1_555 1_555
C22A N4A 1_555 1_555
C25A C26A 1_555 1_555
C29A N5A 1_555 1_555
N4A Er1A 1_555 1_555
N5A Er1A 1_555 1_555
O1A Er1A 1_555 1_555
O7A Er1A 1_555 1_555

#END
