
#######################################################################
#
#                 Cambridge Crystallographic Data Centre
#                                CCDC 
#
#######################################################################
#
# If this CIF has been generated from an entry in the Cambridge 
# Structural Database, then it will include bibliographic, chemical, 
# crystal, experimental, refinement or atomic coordinate data resulting 
# from the CCDC's data processing and validation procedures.
#
#######################################################################

data_QUHPUF
_symmetry_cell_setting           triclinic
_symmetry_space_group_name_H-M   'P -1'
_symmetry_Int_Tables_number      2
_space_group_name_Hall           '-P 1'
loop_
_symmetry_equiv_pos_site_id
_symmetry_equiv_pos_as_xyz
1 x,y,z
2 -x,-y,-z
_cell_length_a                   10.456(2)
_cell_length_b                   11.219(2)
_cell_length_c                   13.458(3)
_cell_angle_alpha                110.049(3)
_cell_angle_beta                 101.393(3)
_cell_angle_gamma                107.780(3)
_cell_volume                     1329.16
loop_
_atom_site_label
_atom_site_type_symbol
_atom_site_fract_x
_atom_site_fract_y
_atom_site_fract_z
C1 C -0.5729(5) -0.2533(4) 0.3617(4)
C2 C -0.6203(5) -0.3746(5) 0.2493(4)
C3 C -0.6187(6) -0.4552(6) 0.0607(4)
H1 H -0.5938 -0.4377 0.0029
C4 C -0.6973(6) -0.5881(5) 0.0440(4)
H2 H -0.7226 -0.6608 -0.0260
N1 N -0.7391(5) -0.6175(4) 0.1243(3)
C5 C -0.7019(5) -0.5118(5) 0.2247(4)
C6 C -0.7637(5) -0.5571(4) 0.3040(4)
C7 C -0.9446(6) -0.5753(6) 0.3772(4)
H3 H -1.0224 -0.5550 0.3869
C8 C -0.9077(6) -0.6545(6) 0.4255(5)
H4 H -0.9587 -0.6858 0.4675
C9 C -0.7944(6) -0.6873(6) 0.4113(5)
H5 H -0.7680 -0.7421 0.4425
C10 C -0.7197(5) -0.6367(5) 0.3494(4)
C11 C -0.5942(5) -0.6717(5) 0.3351(4)
C12 C -0.2272(4) 0.0624(5) 0.5425(4)
C13 C -0.0658(5) 0.1275(5) 0.5870(4)
C14 C -0.0051(5) 0.2598(6) 0.6730(4)
H6 H -0.0635 0.3005 0.7009
C15 C 0.1415(6) 0.3328(6) 0.7183(5)
H7 H 0.1834 0.4215 0.7771
C16 C 0.2236(6) 0.2680(6) 0.6723(5)
H8 H 0.3222 0.3165 0.7000
C17 C 0.0262(5) 0.0707(4) 0.5475(4)
C18 C -0.8169(7) -0.1015(7) 0.1575(5)
H9 H -0.8492 -0.0671 0.2162
C19 C -0.9172(8) -0.1889(8) 0.0500(6)
H10 H -1.0140 -0.2114 0.0379
C20 C -0.8717(8) -0.2409(7) -0.0372(5)
H11 H -0.9377 -0.3012 -0.1086
C21 C -0.7266(7) -0.2038(6) -0.0190(5)
C22 C -0.6330(6) -0.1151(5) 0.0915(4)
C23 C -0.6686(8) -0.2491(6) -0.1057(5)
H12 H -0.7303 -0.3074 -0.1790
C24 C -0.5292(8) -0.2100(6) -0.0843(5)
H13 H -0.4958 -0.2408 -0.1432
C25 C -0.4282(7) -0.1215(6) 0.0272(4)
C26 C -0.4812(6) -0.0733(5) 0.1153(4)
C27 C -0.2820(7) -0.0805(6) 0.0541(5)
H14 H -0.2438 -0.1092 -0.0020
C28 C -0.1939(7) 0.0019(6) 0.1626(5)
H15 H -0.0955 0.0297 0.1816
C29 C -0.2559(6) 0.0438(6) 0.2452(5)
H16 H -0.1958 0.1000 0.3192
C30 C -0.5785(6) -0.3495(5) 0.1652(4)
H17 H -0.5220 -0.2594 0.1794
N2 N -0.8758(4) -0.5249(4) 0.3167(3)
N3 N 0.1675(4) 0.1399(4) 0.5906(4)
N4 N -0.6784(5) -0.0657(4) 0.1792(3)
N5 N -0.3942(5) 0.0078(4) 0.2234(3)
O1 O -0.5429(4) -0.1374(3) 0.3613(3)
O2 O -0.5649(4) -0.2741(3) 0.4476(3)
O3 O -0.4871(4) -0.5847(4) 0.3348(3)
O4 O -0.6097(4) -0.7928(4) 0.3227(3)
O5 O -0.2835(3) 0.0999(3) 0.4754(3)
O6 O -0.2892(3) -0.0112(3) 0.5851(3)
O7 O -0.3097(4) 0.2947(4) 0.3903(3)
H18 H -0.2615 0.3390 0.4613
H19 H -0.3490 0.3466 0.3744
Ho1 Ho -0.50082(2) 0.08403(2) 0.378620(16)
C1A C -0.4271(5) 0.2533(4) 0.6383(4)
C2A C -0.3797(5) 0.3746(5) 0.7507(4)
C3A C -0.3813(6) 0.4552(6) 0.9393(4)
H1A H -0.4062 0.4377 0.9971
C4A C -0.3027(6) 0.5881(5) 0.9560(4)
H2A H -0.2774 0.6608 1.0260
N1A N -0.2609(5) 0.6175(4) 0.8757(3)
C5A C -0.2981(5) 0.5118(5) 0.7753(4)
C6A C -0.2363(5) 0.5571(4) 0.6960(4)
C7A C -0.0554(6) 0.5753(6) 0.6228(4)
H3A H 0.0224 0.5550 0.6131
C8A C -0.0923(6) 0.6545(6) 0.5745(5)
H4A H -0.0413 0.6858 0.5325
C9A C -0.2056(6) 0.6873(6) 0.5887(5)
H5A H -0.2320 0.7421 0.5575
C10A C -0.2803(5) 0.6367(5) 0.6506(4)
C11A C -0.4058(5) 0.6717(5) 0.6649(4)
C12A C 0.2272(4) -0.0624(5) 0.4575(4)
C13A C 0.0658(5) -0.1275(5) 0.4130(4)
C14A C 0.0051(5) -0.2598(6) 0.3270(4)
H6A H 0.0635 -0.3005 0.2991
C15A C -0.1415(6) -0.3328(6) 0.2817(5)
H7A H -0.1834 -0.4215 0.2229
C16A C -0.2236(6) -0.2680(6) 0.3277(5)
H8A H -0.3222 -0.3165 0.3000
C17A C -0.0262(5) -0.0707(4) 0.4525(4)
C18A C -0.1831(7) 0.1015(7) 0.8425(5)
H9A H -0.1508 0.0671 0.7838
C19A C -0.0828(8) 0.1889(8) 0.9500(6)
H10A H 0.0140 0.2114 0.9621
C20A C -0.1283(8) 0.2409(7) 1.0372(5)
H11A H -0.0623 0.3012 1.1086
C21A C -0.2734(7) 0.2038(6) 1.0190(5)
C22A C -0.3670(6) 0.1151(5) 0.9085(4)
C23A C -0.3314(8) 0.2491(6) 1.1057(5)
H12A H -0.2697 0.3074 1.1790
C24A C -0.4708(8) 0.2100(6) 1.0843(5)
H13A H -0.5042 0.2408 1.1432
C25A C -0.5718(7) 0.1215(6) 0.9728(4)
C26A C -0.5188(6) 0.0733(5) 0.8847(4)
C27A C -0.7180(7) 0.0805(6) 0.9459(5)
H14A H -0.7562 0.1092 1.0020
C28A C -0.8061(7) -0.0019(6) 0.8374(5)
H15A H -0.9045 -0.0297 0.8184
C29A C -0.7441(6) -0.0438(6) 0.7548(5)
H16A H -0.8042 -0.1000 0.6808
C30A C -0.4215(6) 0.3495(5) 0.8348(4)
H17A H -0.4780 0.2594 0.8206
N2A N -0.1242(4) 0.5249(4) 0.6833(3)
N3A N -0.1675(4) -0.1399(4) 0.4094(4)
N4A N -0.3216(5) 0.0657(4) 0.8208(3)
N5A N -0.6058(5) -0.0078(4) 0.7766(3)
O1A O -0.4571(4) 0.1374(3) 0.6387(3)
O2A O -0.4351(4) 0.2741(3) 0.5524(3)
O3A O -0.5129(4) 0.5847(4) 0.6652(3)
O4A O -0.3903(4) -0.2072(4) 0.6773(3)
O4_2 O -0.6097(4) 0.2072(4) 0.3227(3)
O4A_2 O -0.3903(4) 0.7928(4) 0.6773(3)
O5A O -0.7165(3) -0.0999(3) 0.5246(3)
O5A_2 O 0.2835(3) -0.0999(3) 0.5246(3)
O6A O -0.7108(3) 0.0112(3) 0.4149(3)
O6A_2 O 0.2892(3) 0.0112(3) 0.4149(3)
O7A O -0.6903(4) -0.2947(4) 0.6097(3)
H18A H -0.7385 -0.3390 0.5387
H19A H -0.6510 -0.3466 0.6256
Ho1_2 Ho -0.50082(2) -0.91597(2) 0.378620(16)
Ho1A Ho -0.49918(2) -0.08403(2) 0.621380(16)
Ho1A_2 Ho 0.50082(2) -0.08403(2) 0.621380(16)
Ho1_3 Ho 0.49918(2) 0.08403(2) 0.378620(16)
Ho1A_3 Ho -0.49918(2) 0.91597(2) 0.621380(16)
loop_
_geom_bond_atom_site_label_1
_geom_bond_atom_site_label_2
_geom_bond_site_symmetry_1
_geom_bond_site_symmetry_2
C1 C2 1_555 1_555
C2 C5 1_555 1_555
C3 H1 1_555 1_555
C4 C3 1_555 1_555
H2 C4 1_555 1_555
N1 C4 1_555 1_555
C5 N1 1_555 1_555
C6 C5 1_555 1_555
C7 H3 1_555 1_555
C8 C7 1_555 1_555
H4 C8 1_555 1_555
C9 C8 1_555 1_555
H5 C9 1_555 1_555
C10 C6 1_555 1_555
C11 C10 1_555 1_555
C12 C13 1_555 1_555
C13 C14 1_555 1_555
C14 H6 1_555 1_555
C15 C14 1_555 1_555
H7 C15 1_555 1_555
C16 C15 1_555 1_555
H8 C16 1_555 1_555
C17 C13 1_555 1_555
C18 H9 1_555 1_555
C19 C18 1_555 1_555
H10 C19 1_555 1_555
C20 C19 1_555 1_555
H11 C20 1_555 1_555
C21 C20 1_555 1_555
C22 C21 1_555 1_555
C23 C21 1_555 1_555
H12 C23 1_555 1_555
C24 C23 1_555 1_555
H13 C24 1_555 1_555
C25 C24 1_555 1_555
C26 C22 1_555 1_555
C27 C25 1_555 1_555
H14 C27 1_555 1_555
C28 C27 1_555 1_555
H15 C28 1_555 1_555
C29 C28 1_555 1_555
H16 C29 1_555 1_555
C30 C2 1_555 1_555
H17 C30 1_555 1_555
N2 C6 1_555 1_555
N3 C16 1_555 1_555
N4 C18 1_555 1_555
N5 C26 1_555 1_555
O1 C1 1_555 1_555
O2 C1 1_555 1_555
O3 C11 1_555 1_555
O4 C11 1_555 1_555
O5 C12 1_555 1_555
O6 C12 1_555 1_555
O7 H18 1_555 1_555
H19 O7 1_555 1_555
Ho1 N4 1_555 1_555
C1A C2A 1_555 1_555
C2A C5A 1_555 1_555
C3A H1A 1_555 1_555
C4A C3A 1_555 1_555
H2A C4A 1_555 1_555
N1A C4A 1_555 1_555
C5A N1A 1_555 1_555
C6A C5A 1_555 1_555
C7A H3A 1_555 1_555
C8A C7A 1_555 1_555
H4A C8A 1_555 1_555
C9A C8A 1_555 1_555
H5A C9A 1_555 1_555
C10A C6A 1_555 1_555
C11A C10A 1_555 1_555
C12A C13A 1_555 1_555
C13A C14A 1_555 1_555
C14A H6A 1_555 1_555
C15A C14A 1_555 1_555
H7A C15A 1_555 1_555
C16A C15A 1_555 1_555
H8A C16A 1_555 1_555
C17A C17 1_555 1_555
C18A H9A 1_555 1_555
C19A C18A 1_555 1_555
H10A C19A 1_555 1_555
C20A C19A 1_555 1_555
H11A C20A 1_555 1_555
C21A C20A 1_555 1_555
C22A C21A 1_555 1_555
C23A C21A 1_555 1_555
H12A C23A 1_555 1_555
C24A C23A 1_555 1_555
H13A C24A 1_555 1_555
C25A C24A 1_555 1_555
C26A C22A 1_555 1_555
C27A C25A 1_555 1_555
H14A C27A 1_555 1_555
C28A C27A 1_555 1_555
H15A C28A 1_555 1_555
C29A C28A 1_555 1_555
H16A C29A 1_555 1_555
C30A C2A 1_555 1_555
H17A C30A 1_555 1_555
N2A C6A 1_555 1_555
N3A C16A 1_555 1_555
N4A C18A 1_555 1_555
N5A C26A 1_555 1_555
O1A C1A 1_555 1_555
O2A Ho1 1_555 1_555
O3A C11A 1_555 1_555
O4A Ho1A 1_555 1_555
O4_2 Ho1 1_555 1_555
O4A_2 C11A 1_555 1_555
O5A Ho1A 1_555 1_555
O5A_2 C12A 1_555 1_555
O6A Ho1 1_555 1_555
O6A_2 C12A 1_555 1_555
O7A H18A 1_555 1_555
H19A O7A 1_555 1_555
Ho1_2 O4 1_555 1_555
Ho1A O2 1_555 1_555
Ho1A_2 O5A_2 1_555 1_555
Ho1_3 O6A_2 1_555 1_555
Ho1A_3 O4A_2 1_555 1_555
C3 C30 1_555 1_555
C7 N2 1_555 1_555
C9 C10 1_555 1_555
C17 N3 1_555 1_555
C22 N4 1_555 1_555
C25 C26 1_555 1_555
C29 N5 1_555 1_555
N5 Ho1 1_555 1_555
O1 Ho1 1_555 1_555
O5 Ho1 1_555 1_555
O6 Ho1A 1_555 1_555
O7 Ho1 1_555 1_555
C1A O2A 1_555 1_555
C3A C30A 1_555 1_555
C7A N2A 1_555 1_555
C9A C10A 1_555 1_555
C13A C17A 1_555 1_555
C17A N3A 1_555 1_555
C22A N4A 1_555 1_555
C25A C26A 1_555 1_555
C29A N5A 1_555 1_555
N4A Ho1A 1_555 1_555
N5A Ho1A 1_555 1_555
O1A Ho1A 1_555 1_555
O7A Ho1A 1_555 1_555

#END
