
#######################################################################
#
#                 Cambridge Crystallographic Data Centre
#                                CCDC 
#
#######################################################################
#
# If this CIF has been generated from an entry in the Cambridge 
# Structural Database, then it will include bibliographic, chemical, 
# crystal, experimental, refinement or atomic coordinate data resulting 
# from the CCDC's data processing and validation procedures.
#
#######################################################################

data_QUHPIT
_symmetry_cell_setting           monoclinic
_symmetry_space_group_name_H-M   'C 2/c'
_symmetry_Int_Tables_number      15
_space_group_name_Hall           '-C 2yn'
loop_
_symmetry_equiv_pos_site_id
_symmetry_equiv_pos_as_xyz
1 x,y,z
2 -x,y,1/2-z
3 1/2+x,1/2+y,z
4 1/2-x,1/2+y,1/2-z
5 -x,-y,-z
6 x,-y,1/2+z
7 1/2-x,1/2-y,-z
8 1/2+x,1/2-y,1/2+z
_cell_length_a                   23.4230(3)
_cell_length_b                   11.75740(10)
_cell_length_c                   23.1214(3)
_cell_angle_alpha                90
_cell_angle_beta                 112.195(2)
_cell_angle_gamma                90
_cell_volume                     5895.68
loop_
_atom_site_label
_atom_site_type_symbol
_atom_site_fract_x
_atom_site_fract_y
_atom_site_fract_z
Yb1 Yb 0.537090(5) 0.325908(9) 0.899808(5)
O1 O 0.44160(7) 0.39059(12) 0.89577(7)
N1 N 0.62225(8) 0.19662(15) 0.95536(9)
N2 N 0.51647(8) 0.20442(15) 0.97806(9)
O2 O 0.49576(7) 0.50797(13) 0.86272(7)
N3 N 0.29971(8) 0.37294(16) 0.86367(9)
C1 C 0.67254(10) 0.1876(2) 0.94199(11)
H1 H 0.6739 0.2277 0.9079
C2 C 0.34596(10) 0.55683(19) 0.87393(10)
C3 C 0.39680(10) 0.57144(19) 0.85679(10)
C4 C 0.44749(10) 0.48610(19) 0.87319(10)
C5 C 0.39886(11) 0.6684(2) 0.82311(11)
H2 H 0.4317 0.6804 0.8105
C6 C 0.33348(10) 0.45172(18) 0.90421(11)
C7 C 0.61969(10) 0.13518(19) 1.00421(11)
C8 C 0.56396(10) 0.13986(18) 1.01664(10)
C9 C 0.28081(11) 0.2821(2) 0.88668(12)
H3 H 0.2584 0.2264 0.8588
C10 C 0.72350(11) 0.1208(2) 0.97672(12)
H4 H 0.7573 0.1154 0.9651
C11 C 0.56029(11) 0.07887(19) 1.06733(11)
C12 C 0.66973(11) 0.06809(19) 1.04283(11)
C13 C 0.61222(12) 0.0126(2) 1.10577(12)
H5 H 0.6097 -0.0284 1.1391
C14 C 0.45863(12) 0.1532(2) 1.04062(12)
H6 H 0.4224 0.1608 1.0479
C15 C 0.50540(12) 0.0869(2) 1.07868(12)
H7 H 0.5012 0.0474 1.1117
C16 C 0.66455(11) 0.0086(2) 1.09450(11)
H8 H 0.6978 -0.0336 1.1208
C17 C 0.46554(11) 0.2099(2) 0.99036(11)
H9 H 0.4328 0.2535 0.9643
C18 C 0.72292(11) 0.0636(2) 1.02787(12)
H10 H 0.7572 0.0220 1.0527
N4 N 0.30080(9) 0.63404(17) 0.86130(10)
C19 C 0.30427(11) 0.7271(2) 0.82944(12)
H11 H 0.2733 0.7814 0.8208
C20 C 0.35155(11) 0.7465(2) 0.80862(12)
H12 H 0.3515 0.8110 0.7853
O3 O 0.45321(7) 0.27919(13) 0.79080(7)
O4 O 0.51080(7) 0.14474(13) 0.85031(7)
C21 C 0.46855(10) 0.17549(19) 0.80059(10)
C22 C 0.38616(10) 0.53089(19) 1.01307(10)
C23 C 0.34800(10) 0.44295(19) 0.96827(10)
C24 C 0.43464(10) 0.08707(19) 0.75300(10)
C25 C 0.46571(10) -0.00353(18) 0.73839(10)
C26 C 0.37062(10) 0.0919(2) 0.72349(11)
H13 H 0.3487 0.1527 0.7306
C27 C 0.32662(11) 0.3493(2) 0.99076(12)
H14 H 0.3350 0.3422 1.0332
C28 C 0.29276(11) 0.2667(2) 0.94934(12)
H15 H 0.2785 0.2027 0.9633
O5 O 0.58545(7) 0.34385(14) 0.83062(7)
O6 O 0.42806(7) 0.58241(13) 1.00201(7)
O7 O 0.37580(7) 0.54972(13) 1.06191(7)
N5 N 0.43613(9) -0.08939(16) 0.70073(10)
C29 C 0.34046(10) 0.0056(2) 0.68371(12)
H16 H 0.2978 0.0072 0.6632
C30 C 0.37454(11) -0.0837(2) 0.67477(12)
H17 H 0.3535 -0.1434 0.6492
H19 H 0.5712(17) 0.330(3) 0.7913(6)
H22 H 0.6145(14) 0.392(3) 0.8385(16)
Yb1A Yb 0.462910(5) 0.325908(9) 0.600192(5)
Yb1D Yb 0.462910(5) 0.674092(9) 1.100192(5)
Yb1E Yb 0.537090(5) 0.674092(9) 0.399808(5)
O1A O 0.55840(7) 0.39059(12) 0.60423(7)
N1A N 0.37775(8) 0.19662(15) 0.54464(9)
N2A N 0.48353(8) 0.20442(15) 0.52194(9)
O2A O 0.50424(7) 0.50797(13) 0.63728(7)
N3A N 0.70029(8) 0.37294(16) 0.63633(9)
C1A C 0.32746(10) 0.1876(2) 0.55801(11)
H1A H 0.3261 0.2277 0.5921
C2A C 0.65404(10) 0.55683(19) 0.62607(10)
C3A C 0.60320(10) 0.57144(19) 0.64321(10)
C4A C 0.55251(10) 0.48610(19) 0.62681(10)
C5A C 0.60114(11) 0.6684(2) 0.67689(11)
H2A H 0.5683 0.6804 0.6895
C6A C 0.66652(10) 0.45172(18) 0.59579(11)
C7A C 0.38031(10) 0.13518(19) 0.49579(11)
C8A C 0.43604(10) 0.13986(18) 0.48336(10)
C9A C 0.71919(11) 0.2821(2) 0.61332(12)
H3A H 0.7416 0.2264 0.6412
C10A C 0.27650(11) 0.1208(2) 0.52328(12)
H4A H 0.2427 0.1154 0.5349
C11A C 0.43971(11) 0.07887(19) 0.43267(11)
C12A C 0.33027(11) 0.06809(19) 0.45717(11)
C13A C 0.38778(12) 0.0126(2) 0.39423(12)
H5A H 0.3903 -0.0284 0.3609
C14A C 0.54137(12) 0.1532(2) 0.45938(12)
H6A H 0.5776 0.1608 0.4521
C15A C 0.49460(12) 0.0869(2) 0.42132(12)
H7A H 0.4988 0.0474 0.3883
C16A C 0.33545(11) 0.0086(2) 0.40550(11)
H8A H 0.3022 -0.0336 0.3792
C17A C 0.53446(11) 0.2099(2) 0.50964(11)
H9A H 0.5672 0.2535 0.5357
C18A C 0.27708(11) 0.0636(2) 0.47213(12)
H10A H 0.2428 0.0220 0.4473
N4A N 0.69920(9) 0.63404(17) 0.63870(10)
C19A C 0.69573(11) 0.7271(2) 0.67056(12)
H11A H 0.7267 0.7814 0.6792
C20A C 0.64845(11) 0.7465(2) 0.69138(12)
H12A H 0.6485 0.8110 0.7147
O3A O 0.54679(7) 0.27919(13) 0.70920(7)
O4A O 0.48920(7) 0.14474(13) 0.64969(7)
C21A C 0.53145(10) 0.17549(19) 0.69941(10)
C22A C 0.61384(10) 0.53089(19) 0.48693(10)
C23A C 0.65200(10) 0.44295(19) 0.53173(10)
C24A C 0.56536(10) 0.08707(19) 0.74700(10)
C25A C 0.53429(10) -0.00353(18) 0.76161(10)
C26A C 0.62938(10) 0.0919(2) 0.77651(11)
H13A H 0.6513 0.1527 0.7694
C27A C 0.67338(11) 0.3493(2) 0.50924(12)
H14A H 0.6650 0.3422 0.4668
C28A C 0.70724(11) 0.2667(2) 0.55066(12)
H15A H 0.7215 0.2027 0.5367
O5A O 0.41455(7) 0.34385(14) 0.66938(7)
O6A O 0.57194(7) 0.58241(13) 0.49799(7)
O6D O 0.57194(7) 0.41759(13) 0.99799(7)
O6E O 0.42806(7) 0.41759(13) 0.50201(7)
O7A O 0.62420(7) 0.54972(13) 0.43809(7)
O7D O 0.62420(7) 0.45028(13) 0.93809(7)
O7E O 0.37580(7) 0.45028(13) 0.56191(7)
N5A N 0.56387(9) -0.08939(16) 0.79927(10)
C29A C 0.65954(10) 0.0056(2) 0.81629(12)
H16A H 0.7022 0.0072 0.8368
C30A C 0.62546(11) -0.0837(2) 0.82523(12)
H17A H 0.6465 -0.1434 0.8508
H19A H 0.4288(17) 0.330(3) 0.7087(6)
H22A H 0.3855(14) 0.392(3) 0.6615(16)
O8 O 0.32795(8) 0.36743(16) 0.75502(8)
H20 H 0.3649(8) 0.342(3) 0.7707(16)
H21 H 0.3129(16) 0.367(4) 0.7836(13)
O9 O 0.66888(9) 0.52667(18) 0.83371(9)
H24 H 0.6730(17) 0.504(3) 0.8001(10)
H25 H 0.6397(14) 0.576(3) 0.8238(17)
O10 O 0.42617(10) 0.66968(18) 0.66535(15)
H18 H 0.4461(14) 0.727(2) 0.6876(18)
H23 H 0.4529(13) 0.625(3) 0.660(2)
loop_
_geom_bond_atom_site_label_1
_geom_bond_atom_site_label_2
_geom_bond_site_symmetry_1
_geom_bond_site_symmetry_2
Yb1 O1 1_555 1_555
O1 C4 1_555 1_555
N1 Yb1 1_555 1_555
N2 Yb1 1_555 1_555
O2 Yb1 1_555 1_555
N3 C6 1_555 1_555
C1 N1 1_555 1_555
H1 C1 1_555 1_555
C2 C3 1_555 1_555
C3 C4 1_555 1_555
C4 O2 1_555 1_555
C5 C3 1_555 1_555
H2 C5 1_555 1_555
C6 C2 1_555 1_555
C7 N1 1_555 1_555
C8 N2 1_555 1_555
C9 N3 1_555 1_555
H3 C9 1_555 1_555
C10 C1 1_555 1_555
H4 C10 1_555 1_555
C11 C8 1_555 1_555
C12 C7 1_555 1_555
C13 C11 1_555 1_555
H5 C13 1_555 1_555
C14 H6 1_555 1_555
C15 C11 1_555 1_555
H7 C15 1_555 1_555
C16 C12 1_555 1_555
H8 C16 1_555 1_555
C17 N2 1_555 1_555
H9 C17 1_555 1_555
C18 C10 1_555 1_555
H10 C18 1_555 1_555
N4 C2 1_555 1_555
C19 N4 1_555 1_555
H11 C19 1_555 1_555
C20 C5 1_555 1_555
H12 C20 1_555 1_555
O3 Yb1 1_555 1_555
O4 Yb1 1_555 1_555
C21 O3 1_555 1_555
C22 C23 1_555 1_555
C23 C6 1_555 1_555
C24 C21 1_555 1_555
C25 C24 1_555 1_555
C26 C24 1_555 1_555
H13 C26 1_555 1_555
C27 C23 1_555 1_555
H14 C27 1_555 1_555
C28 C9 1_555 1_555
H15 C28 1_555 1_555
O5 Yb1 1_555 1_555
O6 C22 1_555 1_555
O7 C22 1_555 1_555
N5 C25 1_555 1_555
C29 C26 1_555 1_555
H16 C29 1_555 1_555
C30 N5 1_555 1_555
H17 C30 1_555 1_555
O8 H20 1_555 1_555
O9 H24 1_555 1_555
O10 H18 1_555 1_555
H19 O5 1_555 1_555
H21 O8 1_555 1_555
H22 O5 1_555 1_555
H23 O10 1_555 1_555
H25 O9 1_555 1_555
Yb1A O1A 1_555 1_555
Yb1D O6 1_555 1_555
Yb1E O6A 1_555 1_555
O1A C4A 1_555 1_555
N1A Yb1A 1_555 1_555
N2A Yb1A 1_555 1_555
O2A Yb1A 1_555 1_555
N3A C6A 1_555 1_555
C1A N1A 1_555 1_555
H1A C1A 1_555 1_555
C2A C3A 1_555 1_555
C3A C4A 1_555 1_555
C4A O2A 1_555 1_555
C5A C3A 1_555 1_555
H2A C5A 1_555 1_555
C6A C2A 1_555 1_555
C7A N1A 1_555 1_555
C8A N2A 1_555 1_555
C9A N3A 1_555 1_555
H3A C9A 1_555 1_555
C10A C1A 1_555 1_555
H4A C10A 1_555 1_555
C11A C8A 1_555 1_555
C12A C7A 1_555 1_555
C13A C11A 1_555 1_555
H5A C13A 1_555 1_555
C14A H6A 1_555 1_555
C15A C11A 1_555 1_555
H7A C15A 1_555 1_555
C16A C12A 1_555 1_555
H8A C16A 1_555 1_555
C17A N2A 1_555 1_555
H9A C17A 1_555 1_555
C18A C10A 1_555 1_555
H10A C18A 1_555 1_555
N4A C2A 1_555 1_555
C19A N4A 1_555 1_555
H11A C19A 1_555 1_555
C20A C5A 1_555 1_555
H12A C20A 1_555 1_555
O3A Yb1A 1_555 1_555
O4A Yb1A 1_555 1_555
C21A O3A 1_555 1_555
C22A C23A 1_555 1_555
C23A C6A 1_555 1_555
C24A C21A 1_555 1_555
C25A C25 1_555 1_555
C26A C24A 1_555 1_555
H13A C26A 1_555 1_555
C27A C23A 1_555 1_555
H14A C27A 1_555 1_555
C28A C9A 1_555 1_555
H15A C28A 1_555 1_555
O5A Yb1A 1_555 1_555
O6A C22A 1_555 1_555
O6D Yb1 1_555 1_555
O6E Yb1A 1_555 1_555
O7A Yb1E 1_555 1_555
O7D Yb1 1_555 1_555
O7E Yb1A 1_555 1_555
N5A C25A 1_555 1_555
C29A C26A 1_555 1_555
H16A C29A 1_555 1_555
C30A N5A 1_555 1_555
H17A C30A 1_555 1_555
H19A O5A 1_555 1_555
H22A O5A 1_555 1_555
C7 C8 1_555 1_555
C12 C18 1_555 1_555
C13 C16 1_555 1_555
C14 C15 1_555 1_555
C14 C17 1_555 1_555
C19 C20 1_555 1_555
O4 C21 1_555 1_555
C27 C28 1_555 1_555
O7 Yb1D 1_555 1_555
C29 C30 1_555 1_555
C7A C8A 1_555 1_555
C12A C18A 1_555 1_555
C13A C16A 1_555 1_555
C14A C15A 1_555 1_555
C14A C17A 1_555 1_555
C19A C20A 1_555 1_555
O4A C21A 1_555 1_555
C22A O7A 1_555 1_555
C24A C25A 1_555 1_555
C27A C28A 1_555 1_555
C29A C30A 1_555 1_555

#END
