
#######################################################################
#
#                 Cambridge Crystallographic Data Centre
#                                CCDC 
#
#######################################################################
#
# If this CIF has been generated from an entry in the Cambridge 
# Structural Database, then it will include bibliographic, chemical, 
# crystal, experimental, refinement or atomic coordinate data resulting 
# from the CCDC's data processing and validation procedures.
#
#######################################################################

data_QUHPEP
_symmetry_cell_setting           monoclinic
_symmetry_space_group_name_H-M   'C 2/c'
_symmetry_Int_Tables_number      15
_space_group_name_Hall           '-C 2yn'
loop_
_symmetry_equiv_pos_site_id
_symmetry_equiv_pos_as_xyz
1 x,y,z
2 -x,y,1/2-z
3 1/2+x,1/2+y,z
4 1/2-x,1/2+y,1/2-z
5 -x,-y,-z
6 x,-y,1/2+z
7 1/2-x,1/2-y,-z
8 1/2+x,1/2-y,1/2+z
_cell_length_a                   23.3817(7)
_cell_length_b                   11.7435(2)
_cell_length_c                   23.0890(9)
_cell_angle_alpha                90
_cell_angle_beta                 112.280(4)
_cell_angle_gamma                90
_cell_volume                     5866.53
loop_
_atom_site_label
_atom_site_type_symbol
_atom_site_fract_x
_atom_site_fract_y
_atom_site_fract_z
Er1 Er 0.536722(6) 0.325566(10) 0.899096(6)
O1 O 0.44083(9) 0.39189(15) 0.89565(10)
N1 N 0.62250(12) 0.19575(18) 0.95571(12)
N2 N 0.51607(12) 0.20305(18) 0.97820(12)
O2 O 0.49435(10) 0.50892(15) 0.86205(10)
N3 N 0.29912(12) 0.37314(19) 0.86388(12)
C1 C 0.67273(14) 0.1862(2) 0.94298(15)
H1 H 0.6743 0.2258 0.9088
C2 C 0.34528(14) 0.5571(2) 0.87406(14)
C3 C 0.39573(14) 0.5718(2) 0.85689(14)
C4 C 0.44657(13) 0.4865(2) 0.87251(14)
C5 C 0.39721(14) 0.6697(2) 0.82161(15)
H2 H 0.4291 0.6811 0.8075
C6 C 0.33266(14) 0.4524(2) 0.90452(15)
C7 C 0.61968(14) 0.1342(2) 1.00473(14)
C8 C 0.56392(14) 0.1394(2) 1.01699(14)
C9 C 0.28082(15) 0.2817(2) 0.88746(16)
H3 H 0.2585 0.2253 0.8598
C10 C 0.72387(15) 0.1195(2) 0.97817(15)
H4 H 0.7579 0.1142 0.9667
C11 C 0.55992(15) 0.0792(2) 1.06771(15)
C12 C 0.67008(15) 0.0674(2) 1.04352(15)
C13 C 0.61216(16) 0.0127(2) 1.10682(16)
H5 H 0.6098 -0.0275 1.1406
C14 C 0.45820(16) 0.1530(2) 1.04070(16)
H6 H 0.4217 0.1601 1.0476
C15 C 0.50552(16) 0.0874(2) 1.07941(16)
H7 H 0.5017 0.0489 1.1129
C16 C 0.66432(16) 0.0080(2) 1.09512(15)
H8 H 0.6975 -0.0349 1.1213
C17 C 0.46553(15) 0.2094(2) 0.99044(15)
H9 H 0.4330 0.2537 0.9644
C18 C 0.72311(15) 0.0629(2) 1.02904(15)
H10 H 0.7575 0.0215 1.0541
N4 N 0.29980(12) 0.6336(2) 0.86213(12)
C19 C 0.30300(15) 0.7276(2) 0.82985(15)
H11 H 0.2719 0.7819 0.8213
C20 C 0.35005(15) 0.7470(3) 0.80896(16)
H12 H 0.3498 0.8126 0.7863
O3 O 0.45307(10) 0.27697(16) 0.79168(9)
O4 O 0.51190(10) 0.14201(16) 0.84987(10)
C21 C 0.46880(14) 0.1729(2) 0.80065(14)
C22 C 0.38579(14) 0.5314(2) 1.01338(14)
C23 C 0.34767(14) 0.4431(2) 0.96864(15)
C24 C 0.43442(14) 0.0855(2) 0.75260(14)
C25 C 0.46589(13) -0.0055(2) 0.73867(13)
C26 C 0.37107(15) 0.0909(2) 0.72342(15)
H13 H 0.3493 0.1518 0.7309
C27 C 0.32718(15) 0.3496(2) 0.99125(16)
H14 H 0.3361 0.3421 1.0339
C28 C 0.29318(14) 0.2672(2) 0.94980(16)
H15 H 0.2790 0.2031 0.9640
O5 O 0.58632(10) 0.34339(17) 0.82977(10)
O6 O 0.42738(10) 0.58336(16) 1.00181(10)
O7 O 0.37601(10) 0.54940(16) 1.06218(10)
N5 N 0.43589(12) -0.09099(19) 0.70076(13)
C29 C 0.34034(15) 0.0050(2) 0.68310(16)
H16 H 0.2976 0.0071 0.6622
C30 C 0.37470(15) -0.0846(3) 0.67445(16)
H17 H 0.3536 -0.1440 0.6486
H19 H 0.572(2) 0.326(3) 0.7910(7)
H22 H 0.6148(15) 0.393(3) 0.8363(18)
Er1A Er 0.463278(6) 0.325566(10) 0.600904(6)
Er1D Er 0.463278(6) 0.674434(10) 1.100904(6)
Er1E Er 0.536722(6) 0.674434(10) 0.399096(6)
O1A O 0.55917(9) 0.39189(15) 0.60435(10)
N1A N 0.37750(12) 0.19575(18) 0.54429(12)
N2A N 0.48393(12) 0.20305(18) 0.52180(12)
O2A O 0.50565(10) 0.50892(15) 0.63795(10)
N3A N 0.70088(12) 0.37314(19) 0.63612(12)
C1A C 0.32727(14) 0.1862(2) 0.55702(15)
H1A H 0.3257 0.2258 0.5912
C2A C 0.65472(14) 0.5571(2) 0.62594(14)
C3A C 0.60427(14) 0.5718(2) 0.64311(14)
C4A C 0.55343(13) 0.4865(2) 0.62749(14)
C5A C 0.60279(14) 0.6697(2) 0.67839(15)
H2A H 0.5709 0.6811 0.6925
C6A C 0.66734(14) 0.4524(2) 0.59548(15)
C7A C 0.38032(14) 0.1342(2) 0.49527(14)
C8A C 0.43608(14) 0.1394(2) 0.48301(14)
C9A C 0.71918(15) 0.2817(2) 0.61254(16)
H3A H 0.7415 0.2253 0.6402
C10A C 0.27613(15) 0.1195(2) 0.52183(15)
H4A H 0.2421 0.1142 0.5333
C11A C 0.44008(15) 0.0792(2) 0.43229(15)
C12A C 0.32992(15) 0.0674(2) 0.45648(15)
C13A C 0.38784(16) 0.0127(2) 0.39318(16)
H5A H 0.3902 -0.0275 0.3594
C14A C 0.54180(16) 0.1530(2) 0.45930(16)
H6A H 0.5783 0.1601 0.4524
C15A C 0.49448(16) 0.0874(2) 0.42059(16)
H7A H 0.4983 0.0489 0.3871
C16A C 0.33568(16) 0.0080(2) 0.40488(15)
H8A H 0.3025 -0.0349 0.3787
C17A C 0.53447(15) 0.2094(2) 0.50956(15)
H9A H 0.5670 0.2537 0.5356
C18A C 0.27689(15) 0.0629(2) 0.47096(15)
H10A H 0.2425 0.0215 0.4459
N4A N 0.70020(12) 0.6336(2) 0.63787(12)
C19A C 0.69700(15) 0.7276(2) 0.67015(15)
H11A H 0.7281 0.7819 0.6787
C20A C 0.64995(15) 0.7470(3) 0.69104(16)
H12A H 0.6502 0.8126 0.7137
O3A O 0.54693(10) 0.27697(16) 0.70832(9)
O4A O 0.48810(10) 0.14201(16) 0.65013(10)
C21A C 0.53120(14) 0.1729(2) 0.69935(14)
C22A C 0.61421(14) 0.5314(2) 0.48662(14)
C23A C 0.65233(14) 0.4431(2) 0.53136(15)
C24A C 0.56558(14) 0.0855(2) 0.74740(14)
C25A C 0.53411(13) -0.0055(2) 0.76133(13)
C26A C 0.62893(15) 0.0909(2) 0.77658(15)
H13A H 0.6507 0.1518 0.7691
C27A C 0.67282(15) 0.3496(2) 0.50875(16)
H14A H 0.6639 0.3421 0.4661
C28A C 0.70682(14) 0.2672(2) 0.55020(16)
H15A H 0.7210 0.2031 0.5360
O5A O 0.41368(10) 0.34339(17) 0.67023(10)
O6A O 0.57262(10) 0.58336(16) 0.49819(10)
O6D O 0.57262(10) 0.41664(16) 0.99819(10)
O6E O 0.42738(10) 0.41664(16) 0.50181(10)
O7A O 0.62399(10) 0.54940(16) 0.43782(10)
O7D O 0.62399(10) 0.45060(16) 0.93782(10)
O7E O 0.37601(10) 0.45060(16) 0.56218(10)
N5A N 0.56411(12) -0.09099(19) 0.79924(13)
C29A C 0.65966(15) 0.0050(2) 0.81690(16)
H16A H 0.7024 0.0071 0.8378
C30A C 0.62530(15) -0.0846(3) 0.82555(16)
H17A H 0.6464 -0.1440 0.8514
H19A H 0.428(2) 0.326(3) 0.7090(7)
H22A H 0.3852(15) 0.393(3) 0.6637(18)
O8 O 0.32816(11) 0.36662(19) 0.75610(10)
H20 H 0.3645(9) 0.338(3) 0.7692(19)
H21 H 0.3170(19) 0.373(4) 0.7874(14)
O9 O 0.66864(12) 0.5255(2) 0.83316(11)
H24 H 0.670(2) 0.508(4) 0.7980(11)
H25 H 0.6400(16) 0.575(3) 0.8272(19)
O10 O 0.42575(13) 0.6690(2) 0.66528(17)
H18 H 0.4449(16) 0.730(2) 0.683(2)
H23 H 0.4533(13) 0.623(3) 0.662(2)
loop_
_geom_bond_atom_site_label_1
_geom_bond_atom_site_label_2
_geom_bond_site_symmetry_1
_geom_bond_site_symmetry_2
Er1 O1 1_555 1_555
O1 C4 1_555 1_555
N1 Er1 1_555 1_555
N2 Er1 1_555 1_555
O2 Er1 1_555 1_555
N3 C6 1_555 1_555
C1 N1 1_555 1_555
H1 C1 1_555 1_555
C2 C3 1_555 1_555
C3 C4 1_555 1_555
C4 O2 1_555 1_555
C5 C3 1_555 1_555
H2 C5 1_555 1_555
C6 C2 1_555 1_555
C7 N1 1_555 1_555
C8 N2 1_555 1_555
C9 N3 1_555 1_555
H3 C9 1_555 1_555
C10 C1 1_555 1_555
H4 C10 1_555 1_555
C11 C8 1_555 1_555
C12 C7 1_555 1_555
C13 C11 1_555 1_555
H5 C13 1_555 1_555
C14 H6 1_555 1_555
C15 C11 1_555 1_555
H7 C15 1_555 1_555
C16 C12 1_555 1_555
H8 C16 1_555 1_555
C17 N2 1_555 1_555
H9 C17 1_555 1_555
C18 C10 1_555 1_555
H10 C18 1_555 1_555
N4 C2 1_555 1_555
C19 N4 1_555 1_555
H11 C19 1_555 1_555
C20 C5 1_555 1_555
H12 C20 1_555 1_555
O3 Er1 1_555 1_555
O4 Er1 1_555 1_555
C21 O3 1_555 1_555
C22 C23 1_555 1_555
C23 C6 1_555 1_555
C24 C21 1_555 1_555
C25 C24 1_555 1_555
C26 C24 1_555 1_555
H13 C26 1_555 1_555
C27 C23 1_555 1_555
H14 C27 1_555 1_555
C28 C9 1_555 1_555
H15 C28 1_555 1_555
O5 Er1 1_555 1_555
O6 C22 1_555 1_555
O7 C22 1_555 1_555
N5 C25 1_555 1_555
C29 C26 1_555 1_555
H16 C29 1_555 1_555
C30 N5 1_555 1_555
H17 C30 1_555 1_555
O8 H20 1_555 1_555
O9 H24 1_555 1_555
O10 H18 1_555 1_555
H19 O5 1_555 1_555
H21 O8 1_555 1_555
H22 O5 1_555 1_555
H23 O10 1_555 1_555
H25 O9 1_555 1_555
Er1A O1A 1_555 1_555
Er1D O6 1_555 1_555
Er1E O6A 1_555 1_555
O1A C4A 1_555 1_555
N1A Er1A 1_555 1_555
N2A Er1A 1_555 1_555
O2A Er1A 1_555 1_555
N3A C6A 1_555 1_555
C1A N1A 1_555 1_555
H1A C1A 1_555 1_555
C2A C3A 1_555 1_555
C3A C4A 1_555 1_555
C4A O2A 1_555 1_555
C5A C3A 1_555 1_555
H2A C5A 1_555 1_555
C6A C2A 1_555 1_555
C7A N1A 1_555 1_555
C8A N2A 1_555 1_555
C9A N3A 1_555 1_555
H3A C9A 1_555 1_555
C10A C1A 1_555 1_555
H4A C10A 1_555 1_555
C11A C8A 1_555 1_555
C12A C7A 1_555 1_555
C13A C11A 1_555 1_555
H5A C13A 1_555 1_555
C14A H6A 1_555 1_555
C15A C11A 1_555 1_555
H7A C15A 1_555 1_555
C16A C12A 1_555 1_555
H8A C16A 1_555 1_555
C17A N2A 1_555 1_555
H9A C17A 1_555 1_555
C18A C10A 1_555 1_555
H10A C18A 1_555 1_555
N4A C2A 1_555 1_555
C19A N4A 1_555 1_555
H11A C19A 1_555 1_555
C20A C5A 1_555 1_555
H12A C20A 1_555 1_555
O3A Er1A 1_555 1_555
O4A Er1A 1_555 1_555
C21A O3A 1_555 1_555
C22A C23A 1_555 1_555
C23A C6A 1_555 1_555
C24A C21A 1_555 1_555
C25A C25 1_555 1_555
C26A C24A 1_555 1_555
H13A C26A 1_555 1_555
C27A C23A 1_555 1_555
H14A C27A 1_555 1_555
C28A C9A 1_555 1_555
H15A C28A 1_555 1_555
O5A Er1A 1_555 1_555
O6A C22A 1_555 1_555
O6D Er1 1_555 1_555
O6E Er1A 1_555 1_555
O7A Er1E 1_555 1_555
O7D Er1 1_555 1_555
O7E Er1A 1_555 1_555
N5A C25A 1_555 1_555
C29A C26A 1_555 1_555
H16A C29A 1_555 1_555
C30A N5A 1_555 1_555
H17A C30A 1_555 1_555
H19A O5A 1_555 1_555
H22A O5A 1_555 1_555
C7 C8 1_555 1_555
C12 C18 1_555 1_555
C13 C16 1_555 1_555
C14 C15 1_555 1_555
C14 C17 1_555 1_555
C19 C20 1_555 1_555
O4 C21 1_555 1_555
C27 C28 1_555 1_555
O7 Er1D 1_555 1_555
C29 C30 1_555 1_555
C7A C8A 1_555 1_555
C12A C18A 1_555 1_555
C13A C16A 1_555 1_555
C14A C15A 1_555 1_555
C14A C17A 1_555 1_555
C19A C20A 1_555 1_555
O4A C21A 1_555 1_555
C22A O7A 1_555 1_555
C24A C25A 1_555 1_555
C27A C28A 1_555 1_555
C29A C30A 1_555 1_555

#END
