
#######################################################################
#
#                 Cambridge Crystallographic Data Centre
#                                CCDC 
#
#######################################################################
#
# If this CIF has been generated from an entry in the Cambridge 
# Structural Database, then it will include bibliographic, chemical, 
# crystal, experimental, refinement or atomic coordinate data resulting 
# from the CCDC's data processing and validation procedures.
#
#######################################################################

data_QUHQAM
_symmetry_cell_setting           monoclinic
_symmetry_space_group_name_H-M   'C 2/c'
_symmetry_Int_Tables_number      15
_space_group_name_Hall           '-C 2yn'
loop_
_symmetry_equiv_pos_site_id
_symmetry_equiv_pos_as_xyz
1 x,y,z
2 -x,y,1/2-z
3 1/2+x,1/2+y,z
4 1/2-x,1/2+y,1/2-z
5 -x,-y,-z
6 x,-y,1/2+z
7 1/2-x,1/2-y,-z
8 1/2+x,1/2-y,1/2+z
_cell_length_a                   23.3875(7)
_cell_length_b                   11.7428(2)
_cell_length_c                   23.0920(6)
_cell_angle_alpha                90
_cell_angle_beta                 112.216(3)
_cell_angle_gamma                90
_cell_volume                     5871.08
loop_
_atom_site_label
_atom_site_type_symbol
_atom_site_fract_x
_atom_site_fract_y
_atom_site_fract_z
Tm1 Tm 0.536941(7) 0.325841(12) 0.899529(6)
O1 O 0.44145(10) 0.39140(18) 0.89592(9)
N1 N 0.62216(12) 0.1961(2) 0.95561(11)
N2 N 0.51633(12) 0.2044(2) 0.97806(12)
O2 O 0.49519(10) 0.50877(18) 0.86245(10)
N3 N 0.29947(12) 0.3727(2) 0.86377(12)
C1 C 0.67244(15) 0.1874(3) 0.94245(15)
H1 H 0.6739 0.2278 0.9084
C2 C 0.34549(15) 0.5569(3) 0.87388(14)
C3 C 0.39644(15) 0.5719(3) 0.85707(14)
C4 C 0.44721(14) 0.4861(3) 0.87314(13)
C5 C 0.39841(15) 0.6685(3) 0.82383(14)
H2 H 0.4315 0.6812 0.8116
C6 C 0.33317(14) 0.4516(3) 0.90436(14)
C7 C 0.61989(15) 0.1345(3) 1.00445(14)
C8 C 0.56378(15) 0.1397(3) 1.01673(14)
C9 C 0.28055(15) 0.2824(3) 0.88667(16)
H3 H 0.2578 0.2268 0.8588
C10 C 0.72359(16) 0.1204(3) 0.97729(16)
H4 H 0.7575 0.1151 0.9657
C11 C 0.56021(16) 0.0788(3) 1.06775(15)
C12 C 0.66983(16) 0.0675(3) 1.04297(15)
C13 C 0.61220(17) 0.0127(3) 1.10589(15)
H5 H 0.6097 -0.0283 1.1393
C14 C 0.45868(17) 0.1525(3) 1.04069(16)
H6 H 0.4222 0.1592 1.0477
C15 C 0.50549(17) 0.0874(3) 1.07903(15)
H7 H 0.5014 0.0489 1.1124
C16 C 0.66440(17) 0.0085(3) 1.09463(15)
H8 H 0.6977 -0.0338 1.1210
C17 C 0.46560(16) 0.2098(3) 0.99024(15)
H9 H 0.4328 0.2536 0.9642
C18 C 0.72285(16) 0.0636(3) 1.02815(16)
H10 H 0.7573 0.0222 1.0531
N4 N 0.30021(12) 0.6337(2) 0.86157(12)
C19 C 0.30347(16) 0.7271(3) 0.82933(16)
H11 H 0.2723 0.7813 0.8204
C20 C 0.35061(16) 0.7463(3) 0.80897(15)
H12 H 0.3504 0.8107 0.7855
O3 O 0.45325(10) 0.27795(19) 0.79115(9)
O4 O 0.51130(10) 0.14380(18) 0.85037(9)
C21 C 0.46858(14) 0.1743(3) 0.80080(14)
C22 C 0.38584(14) 0.5304(3) 1.01306(14)
C23 C 0.34800(14) 0.4431(3) 0.96845(14)
C24 C 0.43480(15) 0.0861(3) 0.75305(13)
C25 C 0.46604(14) -0.0038(3) 0.73854(13)
C26 C 0.37102(15) 0.0917(3) 0.72337(14)
H13 H 0.3492 0.1531 0.7301
C27 C 0.32638(15) 0.3489(3) 0.99073(15)
H14 H 0.3345 0.3414 1.0332
C28 C 0.29288(16) 0.2672(3) 0.94919(15)
H15 H 0.2788 0.2028 0.9631
O5 O 0.58590(11) 0.3439(2) 0.83029(10)
O6 O 0.42769(10) 0.58275(19) 1.00192(9)
O7 O 0.37597(10) 0.54934(19) 1.06199(10)
N5 N 0.43628(13) -0.0897(2) 0.70087(12)
C29 C 0.34067(16) 0.0045(3) 0.68371(15)
H16 H 0.2979 0.0054 0.6634
C30 C 0.37487(16) -0.0838(3) 0.67477(16)
H17 H 0.3539 -0.1432 0.6488
H19 H 0.573(2) 0.323(4) 0.7918(8)
H22 H 0.6129(17) 0.396(3) 0.8365(19)
Tm1A Tm 0.463059(7) 0.325841(12) 0.600471(6)
Tm1D Tm 0.463059(7) 0.674159(12) 1.100471(6)
Tm1E Tm 0.536941(7) 0.674159(12) 0.399529(6)
O1A O 0.55855(10) 0.39140(18) 0.60408(9)
N1A N 0.37784(12) 0.1961(2) 0.54439(11)
N2A N 0.48367(12) 0.2044(2) 0.52194(12)
O2A O 0.50481(10) 0.50877(18) 0.63755(10)
N3A N 0.70053(12) 0.3727(2) 0.63623(12)
C1A C 0.32756(15) 0.1874(3) 0.55755(15)
H1A H 0.3261 0.2278 0.5916
C2A C 0.65451(15) 0.5569(3) 0.62612(14)
C3A C 0.60356(15) 0.5719(3) 0.64293(14)
C4A C 0.55279(14) 0.4861(3) 0.62686(13)
C5A C 0.60159(15) 0.6685(3) 0.67617(14)
H2A H 0.5685 0.6812 0.6884
C6A C 0.66683(14) 0.4516(3) 0.59564(14)
C7A C 0.38011(15) 0.1345(3) 0.49555(14)
C8A C 0.43622(15) 0.1397(3) 0.48327(14)
C9A C 0.71945(15) 0.2824(3) 0.61333(16)
H3A H 0.7422 0.2268 0.6412
C10A C 0.27641(16) 0.1204(3) 0.52271(16)
H4A H 0.2425 0.1151 0.5343
C11A C 0.43979(16) 0.0788(3) 0.43225(15)
C12A C 0.33017(16) 0.0675(3) 0.45703(15)
C13A C 0.38780(17) 0.0127(3) 0.39411(15)
H5A H 0.3903 -0.0283 0.3607
C14A C 0.54132(17) 0.1525(3) 0.45931(16)
H6A H 0.5778 0.1592 0.4523
C15A C 0.49451(17) 0.0874(3) 0.42097(15)
H7A H 0.4986 0.0489 0.3876
C16A C 0.33560(17) 0.0085(3) 0.40537(15)
H8A H 0.3023 -0.0338 0.3790
C17A C 0.53440(16) 0.2098(3) 0.50976(15)
H9A H 0.5672 0.2536 0.5358
C18A C 0.27715(16) 0.0636(3) 0.47185(16)
H10A H 0.2427 0.0222 0.4469
N4A N 0.69979(12) 0.6337(2) 0.63843(12)
C19A C 0.69653(16) 0.7271(3) 0.67067(16)
H11A H 0.7277 0.7813 0.6796
C20A C 0.64939(16) 0.7463(3) 0.69103(15)
H12A H 0.6496 0.8107 0.7145
O3A O 0.54675(10) 0.27795(19) 0.70885(9)
O4A O 0.48870(10) 0.14380(18) 0.64963(9)
C21A C 0.53142(14) 0.1743(3) 0.69920(14)
C22A C 0.61416(14) 0.5304(3) 0.48694(14)
C23A C 0.65200(14) 0.4431(3) 0.53155(14)
C24A C 0.56520(15) 0.0861(3) 0.74695(13)
C25A C 0.53396(14) -0.0038(3) 0.76146(13)
C26A C 0.62898(15) 0.0917(3) 0.77663(14)
H13A H 0.6508 0.1531 0.7699
C27A C 0.67362(15) 0.3489(3) 0.50927(15)
H14A H 0.6655 0.3414 0.4668
C28A C 0.70712(16) 0.2672(3) 0.55081(15)
H15A H 0.7212 0.2028 0.5369
O5A O 0.41410(11) 0.3439(2) 0.66971(10)
O6A O 0.57231(10) 0.58275(19) 0.49808(9)
O6D O 0.57231(10) 0.41725(19) 0.99808(9)
O6E O 0.42769(10) 0.41725(19) 0.50192(9)
O7A O 0.62403(10) 0.54934(19) 0.43801(10)
O7D O 0.62403(10) 0.45066(19) 0.93801(10)
O7E O 0.37597(10) 0.45066(19) 0.56199(10)
N5A N 0.56372(13) -0.0897(2) 0.79913(12)
C29A C 0.65933(16) 0.0045(3) 0.81629(15)
H16A H 0.7021 0.0054 0.8366
C30A C 0.62513(16) -0.0838(3) 0.82523(16)
H17A H 0.6461 -0.1432 0.8512
H19A H 0.427(2) 0.323(4) 0.7082(8)
H22A H 0.3871(17) 0.396(3) 0.6635(19)
O8 O 0.32798(12) 0.3675(2) 0.75521(10)
H20 H 0.3644(10) 0.339(4) 0.7712(18)
H21 H 0.3133(18) 0.371(4) 0.7842(14)
O9 O 0.66865(13) 0.5268(3) 0.83339(11)
H24 H 0.671(2) 0.510(4) 0.7986(11)
H25 H 0.6399(17) 0.575(3) 0.8280(19)
O10 O 0.42651(14) 0.6691(3) 0.66582(18)
H18 H 0.4452(17) 0.729(2) 0.685(2)
H23 H 0.4544(14) 0.625(3) 0.662(2)
loop_
_geom_bond_atom_site_label_1
_geom_bond_atom_site_label_2
_geom_bond_site_symmetry_1
_geom_bond_site_symmetry_2
Tm1 O1 1_555 1_555
O1 C4 1_555 1_555
N1 Tm1 1_555 1_555
N2 Tm1 1_555 1_555
O2 Tm1 1_555 1_555
N3 C6 1_555 1_555
C1 N1 1_555 1_555
H1 C1 1_555 1_555
C2 C3 1_555 1_555
C3 C4 1_555 1_555
C4 O2 1_555 1_555
C5 C3 1_555 1_555
H2 C5 1_555 1_555
C6 C2 1_555 1_555
C7 N1 1_555 1_555
C8 N2 1_555 1_555
C9 N3 1_555 1_555
H3 C9 1_555 1_555
C10 C1 1_555 1_555
H4 C10 1_555 1_555
C11 C8 1_555 1_555
C12 C7 1_555 1_555
C13 C11 1_555 1_555
H5 C13 1_555 1_555
C14 H6 1_555 1_555
C15 C11 1_555 1_555
H7 C15 1_555 1_555
C16 C12 1_555 1_555
H8 C16 1_555 1_555
C17 N2 1_555 1_555
H9 C17 1_555 1_555
C18 C10 1_555 1_555
H10 C18 1_555 1_555
N4 C2 1_555 1_555
C19 N4 1_555 1_555
H11 C19 1_555 1_555
C20 C5 1_555 1_555
H12 C20 1_555 1_555
O3 Tm1 1_555 1_555
O4 Tm1 1_555 1_555
C21 O3 1_555 1_555
C22 C23 1_555 1_555
C23 C6 1_555 1_555
C24 C21 1_555 1_555
C25 C24 1_555 1_555
C26 C24 1_555 1_555
H13 C26 1_555 1_555
C27 C23 1_555 1_555
H14 C27 1_555 1_555
C28 C9 1_555 1_555
H15 C28 1_555 1_555
O5 Tm1 1_555 1_555
O6 C22 1_555 1_555
O7 C22 1_555 1_555
N5 C25 1_555 1_555
C29 C26 1_555 1_555
H16 C29 1_555 1_555
C30 N5 1_555 1_555
H17 C30 1_555 1_555
O8 H20 1_555 1_555
O9 H24 1_555 1_555
O10 H18 1_555 1_555
H19 O5 1_555 1_555
H21 O8 1_555 1_555
H22 O5 1_555 1_555
H23 O10 1_555 1_555
H25 O9 1_555 1_555
Tm1A O1A 1_555 1_555
Tm1D O6 1_555 1_555
Tm1E O6A 1_555 1_555
O1A C4A 1_555 1_555
N1A Tm1A 1_555 1_555
N2A Tm1A 1_555 1_555
O2A Tm1A 1_555 1_555
N3A C6A 1_555 1_555
C1A N1A 1_555 1_555
H1A C1A 1_555 1_555
C2A C3A 1_555 1_555
C3A C4A 1_555 1_555
C4A O2A 1_555 1_555
C5A C3A 1_555 1_555
H2A C5A 1_555 1_555
C6A C2A 1_555 1_555
C7A N1A 1_555 1_555
C8A N2A 1_555 1_555
C9A N3A 1_555 1_555
H3A C9A 1_555 1_555
C10A C1A 1_555 1_555
H4A C10A 1_555 1_555
C11A C8A 1_555 1_555
C12A C7A 1_555 1_555
C13A C11A 1_555 1_555
H5A C13A 1_555 1_555
C14A H6A 1_555 1_555
C15A C11A 1_555 1_555
H7A C15A 1_555 1_555
C16A C12A 1_555 1_555
H8A C16A 1_555 1_555
C17A N2A 1_555 1_555
H9A C17A 1_555 1_555
C18A C10A 1_555 1_555
H10A C18A 1_555 1_555
N4A C2A 1_555 1_555
C19A N4A 1_555 1_555
H11A C19A 1_555 1_555
C20A C5A 1_555 1_555
H12A C20A 1_555 1_555
O3A Tm1A 1_555 1_555
O4A Tm1A 1_555 1_555
C21A O3A 1_555 1_555
C22A C23A 1_555 1_555
C23A C6A 1_555 1_555
C24A C21A 1_555 1_555
C25A C25 1_555 1_555
C26A C24A 1_555 1_555
H13A C26A 1_555 1_555
C27A C23A 1_555 1_555
H14A C27A 1_555 1_555
C28A C9A 1_555 1_555
H15A C28A 1_555 1_555
O5A Tm1A 1_555 1_555
O6A C22A 1_555 1_555
O6D Tm1 1_555 1_555
O6E Tm1A 1_555 1_555
O7A Tm1E 1_555 1_555
O7D Tm1 1_555 1_555
O7E Tm1A 1_555 1_555
N5A C25A 1_555 1_555
C29A C26A 1_555 1_555
H16A C29A 1_555 1_555
C30A N5A 1_555 1_555
H17A C30A 1_555 1_555
H19A O5A 1_555 1_555
H22A O5A 1_555 1_555
C7 C8 1_555 1_555
C12 C18 1_555 1_555
C13 C16 1_555 1_555
C14 C15 1_555 1_555
C14 C17 1_555 1_555
C19 C20 1_555 1_555
O4 C21 1_555 1_555
C27 C28 1_555 1_555
O7 Tm1D 1_555 1_555
C29 C30 1_555 1_555
C7A C8A 1_555 1_555
C12A C18A 1_555 1_555
C13A C16A 1_555 1_555
C14A C15A 1_555 1_555
C14A C17A 1_555 1_555
C19A C20A 1_555 1_555
O4A C21A 1_555 1_555
C22A O7A 1_555 1_555
C24A C25A 1_555 1_555
C27A C28A 1_555 1_555
C29A C30A 1_555 1_555

#END
