
#######################################################################
#
#                 Cambridge Crystallographic Data Centre
#                                CCDC 
#
#######################################################################
#
# If this CIF has been generated from an entry in the Cambridge 
# Structural Database, then it will include bibliographic, chemical, 
# crystal, experimental, refinement or atomic coordinate data resulting 
# from the CCDC's data processing and validation procedures.
#
#######################################################################

data_QUHQIU
_symmetry_cell_setting           triclinic
_symmetry_space_group_name_H-M   'P -1'
_symmetry_Int_Tables_number      2
_space_group_name_Hall           '-P 1'
loop_
_symmetry_equiv_pos_site_id
_symmetry_equiv_pos_as_xyz
1 x,y,z
2 -x,-y,-z
_cell_length_a                   10.4050(11)
_cell_length_b                   11.2117(12)
_cell_length_c                   13.4138(15)
_cell_angle_alpha                110.029(2)
_cell_angle_beta                 101.553(2)
_cell_angle_gamma                107.599(2)
_cell_volume                     1318.26
loop_
_atom_site_label
_atom_site_type_symbol
_atom_site_fract_x
_atom_site_fract_y
_atom_site_fract_z
C1 C 0.5739(5) 1.2518(5) 0.6411(5)
C2 C 0.6197(5) 1.3746(5) 0.7511(4)
C3 C 0.6216(7) 1.4575(6) 0.9418(5)
H1 H 0.5988 1.4414 1.0009
C4 C 0.6977(7) 1.5893(6) 0.9560(5)
H2 H 0.7230 1.6627 1.0257
N1 N 0.7378(5) 1.6179(5) 0.8747(4)
C5 C 0.6992(5) 1.5105(5) 0.7742(4)
C6 C 0.7629(6) 1.5552(5) 0.6948(4)
C7 C 0.9441(6) 1.5733(7) 0.6222(5)
H3 H 1.0218 1.5521 0.6124
C8 C 0.9079(7) 1.6543(7) 0.5739(6)
H4 H 0.9598 1.6866 0.5327
C9 C 0.7937(7) 1.6862(6) 0.5880(5)
H5 H 0.7676 1.7414 0.5568
C10 C 0.7165(6) 1.6358(6) 0.6491(5)
C11 C 0.5907(6) 1.6705(6) 0.6632(4)
C12 C 0.7694(5) 1.0594(5) 0.5420(4)
C13 C 0.9309(5) 1.1250(5) 0.5871(4)
C14 C 0.9908(6) 1.2576(6) 0.6739(5)
H6 H 0.9315 1.2966 0.7028
C15 C 1.1385(7) 1.3332(7) 0.7186(6)
H7 H 1.1795 1.4230 0.7758
C16 C 1.2217(7) 1.2689(7) 0.6740(6)
H8 H 1.3208 1.3176 0.7032
C17 C 1.0251(5) 1.0692(5) 0.5466(4)
C18 C 0.8179(7) 1.0963(8) 0.8415(6)
H9 H 0.8496 1.0603 0.7825
C19 C 0.9190(8) 1.1835(8) 0.9482(7)
H10 H 1.0159 1.2049 0.9595
C20 C 0.8758(8) 1.2374(8) 1.0361(7)
H11 H 0.9430 1.2973 1.1075
C21 C 0.7294(8) 1.2022(7) 1.0184(6)
C22 C 0.6344(7) 1.1126(6) 0.9076(5)
C23 C 0.6703(9) 1.2495(7) 1.1057(6)
H12 H 0.7323 1.3074 1.1793
C24 C 0.5304(8) 1.2131(7) 1.0840(6)
H13 H 0.4969 1.2473 1.1424
C25 C 0.4295(8) 1.1219(6) 0.9723(5)
C26 C 0.4813(7) 1.0719(6) 0.8835(5)
C27 C 0.2837(8) 1.0799(7) 0.9451(6)
H14 H 0.2451 1.1079 1.0013
C28 C 0.1957(8) 0.9980(7) 0.8368(6)
H15 H 0.0970 0.9705 0.8183
C29 C 0.2547(7) 0.9558(7) 0.7539(6)
H16 H 0.1935 0.9005 0.6797
C30 C 0.5802(7) 1.3503(6) 0.8371(5)
H17 H 0.5249 1.2604 0.8240
N2 N 0.8747(5) 1.5236(5) 0.6820(4)
N3 N 1.1674(5) 1.1411(5) 0.5916(4)
N4 N 0.6790(5) 1.0621(5) 0.8196(4)
N5 N 0.3953(5) 0.9909(5) 0.7757(4)
O1 O 0.5454(4) 1.1348(4) 0.6434(3)
O2 O 0.5642(4) 1.2685(4) 0.5526(3)
O3 O 0.4839(4) 1.5843(4) 0.6635(4)
O4 O 0.6060(4) 1.7916(4) 0.6745(4)
O5 O 0.7127(4) 1.0981(4) 0.4749(3)
O6 O 0.7078(4) 0.9852(4) 0.5842(3)
O7 O 0.3089(4) 0.7073(4) 0.6073(3)
H18 H 0.2567 0.6672 0.5373
H19 H 0.3506 0.6551 0.6191
Yb1 Yb 0.50066(2) 0.91569(2) 0.621881(19)
C1A C 0.4261(5) 0.7482(5) 0.3589(5)
C2A C 0.3803(5) 0.6254(5) 0.2489(4)
C3A C 0.3784(7) 0.5425(6) 0.0582(5)
H1A H 0.4012 0.5586 -0.0009
C4A C 0.3023(7) 0.4107(6) 0.0440(5)
H2A H 0.2770 0.3373 -0.0257
N1A N 0.2622(5) 0.3821(5) 0.1253(4)
C5A C 0.3008(5) 0.4895(5) 0.2258(4)
C6A C 0.2371(6) 0.4448(5) 0.3052(4)
C7A C 0.0559(6) 0.4267(7) 0.3778(5)
H3A H -0.0218 0.4479 0.3876
C8A C 0.0921(7) 0.3457(7) 0.4261(6)
H4A H 0.0402 0.3134 0.4673
C9A C 0.2063(7) 0.3138(6) 0.4120(5)
H5A H 0.2324 0.2586 0.4432
C10A C 0.2835(6) 0.3642(6) 0.3509(5)
C11A C 0.4093(6) 0.3295(6) 0.3368(4)
C12A C 1.2306(5) 0.9406(5) 0.4580(4)
C13A C 1.0691(5) 0.8750(5) 0.4129(4)
C14A C 1.0092(6) 0.7424(6) 0.3261(5)
H6A H 1.0685 0.7034 0.2972
C15A C 0.8615(7) 0.6668(7) 0.2814(6)
H7A H 0.8205 0.5770 0.2242
C16A C 0.7783(7) 0.7311(7) 0.3260(6)
H8A H 0.6792 0.6824 0.2968
C17A C 0.9749(5) 0.9308(5) 0.4534(4)
C18A C 0.1821(7) 0.9037(8) 0.1585(6)
H9A H 0.1504 0.9397 0.2175
C19A C 0.0810(8) 0.8165(8) 0.0518(7)
H10A H -0.0159 0.7951 0.0405
C20A C 0.1242(8) 0.7626(8) -0.0361(7)
H11A H 0.0570 0.7027 -0.1075
C21A C 0.2706(8) 0.7978(7) -0.0184(6)
C22A C 0.3656(7) 0.8874(6) 0.0924(5)
C23A C 0.3297(9) 0.7505(7) -0.1057(6)
H12A H 0.2677 0.6926 -0.1793
C24A C 0.4696(8) 0.7869(7) -0.0840(6)
H13A H 0.5031 0.7527 -0.1424
C25A C 0.5705(8) 0.8781(6) 0.0277(5)
C26A C 0.5187(7) 0.9281(6) 0.1165(5)
C27A C 0.7163(8) 0.9201(7) 0.0549(6)
H14A H 0.7549 0.8921 -0.0013
C28A C 0.8043(8) 1.0020(7) 0.1632(6)
H15A H 0.9030 1.0295 0.1817
C29A C 0.7453(7) 1.0442(7) 0.2461(6)
H16A H 0.8065 1.0995 0.3203
C30A C 0.4198(7) 0.6497(6) 0.1629(5)
H17A H 0.4751 0.7396 0.1760
N2A N 0.1253(5) 0.4764(5) 0.3180(4)
N3A N 0.8326(5) 0.8589(5) 0.4084(4)
N4A N 0.3210(5) 0.9379(5) 0.1804(4)
N5A N 0.6047(5) 1.0091(5) 0.2243(4)
O1A O 0.4546(4) 0.8652(4) 0.3566(3)
O2A O 0.4358(4) 0.7315(4) 0.4474(3)
O3A O 0.5161(4) 0.4157(4) 0.3365(4)
O4_2 O 0.6060(4) 0.7916(4) 0.6745(4)
O4A O 0.3940(4) 1.2084(4) 0.3255(4)
O4A_2 O 0.3940(4) 0.2084(4) 0.3255(4)
O5A O 1.2873(4) 0.9019(4) 0.5251(3)
O5A_2 O 0.2873(4) 0.9019(4) 0.5251(3)
O6A O 1.2922(4) 1.0148(4) 0.4158(3)
O6A_2 O 0.2922(4) 1.0148(4) 0.4158(3)
O7A O 0.6911(4) 1.2927(4) 0.3927(3)
H18A H 0.7433 1.3328 0.4627
H19A H 0.6494 1.3449 0.3809
Yb1A Yb 0.49934(2) 1.08431(2) 0.378119(19)
Yb1_2 Yb 0.50066(2) 1.91569(2) 0.621881(19)
Yb1_3 Yb 1.50066(2) 0.91569(2) 0.621881(19)
Yb1A_2 Yb 1.49934(2) 1.08431(2) 0.378119(19)
Yb1A_3 Yb 0.49934(2) 0.08431(2) 0.378119(19)
loop_
_geom_bond_atom_site_label_1
_geom_bond_atom_site_label_2
_geom_bond_site_symmetry_1
_geom_bond_site_symmetry_2
C1 C2 1_555 1_555
C2 C5 1_555 1_555
C3 H1 1_555 1_555
C4 C3 1_555 1_555
H2 C4 1_555 1_555
N1 C4 1_555 1_555
C5 N1 1_555 1_555
C6 C5 1_555 1_555
C7 H3 1_555 1_555
C8 C7 1_555 1_555
H4 C8 1_555 1_555
C9 C8 1_555 1_555
H5 C9 1_555 1_555
C10 C6 1_555 1_555
C11 C10 1_555 1_555
C12 C13 1_555 1_555
C13 C14 1_555 1_555
C14 H6 1_555 1_555
C15 C14 1_555 1_555
H7 C15 1_555 1_555
C16 C15 1_555 1_555
H8 C16 1_555 1_555
C17 C13 1_555 1_555
C18 H9 1_555 1_555
C19 C18 1_555 1_555
H10 C19 1_555 1_555
C20 C19 1_555 1_555
H11 C20 1_555 1_555
C21 C20 1_555 1_555
C22 C21 1_555 1_555
C23 C21 1_555 1_555
H12 C23 1_555 1_555
C24 C23 1_555 1_555
H13 C24 1_555 1_555
C25 C24 1_555 1_555
C26 C22 1_555 1_555
C27 C25 1_555 1_555
H14 C27 1_555 1_555
C28 C27 1_555 1_555
H15 C28 1_555 1_555
C29 C28 1_555 1_555
H16 C29 1_555 1_555
C30 C2 1_555 1_555
H17 C30 1_555 1_555
N2 C6 1_555 1_555
N3 C16 1_555 1_555
N4 C18 1_555 1_555
N5 C26 1_555 1_555
O1 C1 1_555 1_555
O2 C1 1_555 1_555
O3 C11 1_555 1_555
O4 C11 1_555 1_555
O5 C12 1_555 1_555
O6 C12 1_555 1_555
O7 H18 1_555 1_555
H19 O7 1_555 1_555
Yb1 N4 1_555 1_555
C1A C2A 1_555 1_555
C2A C5A 1_555 1_555
C3A H1A 1_555 1_555
C4A C3A 1_555 1_555
H2A C4A 1_555 1_555
N1A C4A 1_555 1_555
C5A N1A 1_555 1_555
C6A C5A 1_555 1_555
C7A H3A 1_555 1_555
C8A C7A 1_555 1_555
H4A C8A 1_555 1_555
C9A C8A 1_555 1_555
H5A C9A 1_555 1_555
C10A C6A 1_555 1_555
C11A C10A 1_555 1_555
C12A C13A 1_555 1_555
C13A C14A 1_555 1_555
C14A H6A 1_555 1_555
C15A C14A 1_555 1_555
H7A C15A 1_555 1_555
C16A C15A 1_555 1_555
H8A C16A 1_555 1_555
C17A C17 1_555 1_555
C18A H9A 1_555 1_555
C19A C18A 1_555 1_555
H10A C19A 1_555 1_555
C20A C19A 1_555 1_555
H11A C20A 1_555 1_555
C21A C20A 1_555 1_555
C22A C21A 1_555 1_555
C23A C21A 1_555 1_555
H12A C23A 1_555 1_555
C24A C23A 1_555 1_555
H13A C24A 1_555 1_555
C25A C24A 1_555 1_555
C26A C22A 1_555 1_555
C27A C25A 1_555 1_555
H14A C27A 1_555 1_555
C28A C27A 1_555 1_555
H15A C28A 1_555 1_555
C29A C28A 1_555 1_555
H16A C29A 1_555 1_555
C30A C2A 1_555 1_555
H17A C30A 1_555 1_555
N2A C6A 1_555 1_555
N3A C16A 1_555 1_555
N4A C18A 1_555 1_555
N5A C26A 1_555 1_555
O1A C1A 1_555 1_555
O2A Yb1 1_555 1_555
O3A C11A 1_555 1_555
O4_2 Yb1 1_555 1_555
O4A Yb1A 1_555 1_555
O4A_2 C11A 1_555 1_555
O5A C12A 1_555 1_555
O5A_2 Yb1 1_555 1_555
O6A C12A 1_555 1_555
O6A_2 Yb1A 1_555 1_555
O7A H18A 1_555 1_555
H19A O7A 1_555 1_555
Yb1A O2 1_555 1_555
Yb1_2 O4 1_555 1_555
Yb1_3 O5A 1_555 1_555
Yb1A_2 O6A 1_555 1_555
Yb1A_3 O4A_2 1_555 1_555
C3 C30 1_555 1_555
C7 N2 1_555 1_555
C9 C10 1_555 1_555
C17 N3 1_555 1_555
C22 N4 1_555 1_555
C25 C26 1_555 1_555
C29 N5 1_555 1_555
N5 Yb1 1_555 1_555
O1 Yb1 1_555 1_555
O5 Yb1A 1_555 1_555
O6 Yb1 1_555 1_555
O7 Yb1 1_555 1_555
C1A O2A 1_555 1_555
C3A C30A 1_555 1_555
C7A N2A 1_555 1_555
C9A C10A 1_555 1_555
C13A C17A 1_555 1_555
C17A N3A 1_555 1_555
C22A N4A 1_555 1_555
C25A C26A 1_555 1_555
C29A N5A 1_555 1_555
N4A Yb1A 1_555 1_555
N5A Yb1A 1_555 1_555
O1A Yb1A 1_555 1_555
O7A Yb1A 1_555 1_555

#END
