
#######################################################################
#
#                 Cambridge Crystallographic Data Centre
#                                CCDC 
#
#######################################################################
#
# If this CIF has been generated from an entry in the Cambridge 
# Structural Database, then it will include bibliographic, chemical, 
# crystal, experimental, refinement or atomic coordinate data resulting 
# from the CCDC's data processing and validation procedures.
#
#######################################################################

data_QUHQUG
_symmetry_cell_setting           triclinic
_symmetry_space_group_name_H-M   'P -1'
_symmetry_Int_Tables_number      2
_space_group_name_Hall           '-P 1'
loop_
_symmetry_equiv_pos_site_id
_symmetry_equiv_pos_as_xyz
1 x,y,z
2 -x,-y,-z
_cell_length_a                   7.4696(3)
_cell_length_b                   11.7963(5)
_cell_length_c                   11.9918(5)
_cell_angle_alpha                67.043(2)
_cell_angle_beta                 75.666(2)
_cell_angle_gamma                87.738(2)
_cell_volume                     940.731
loop_
_atom_site_label
_atom_site_type_symbol
_atom_site_fract_x
_atom_site_fract_y
_atom_site_fract_z
Cu1 Cu 1.05380(4) 1.00924(3) 0.09819(3)
Cu2 Cu 0.86234(4) 0.78738(3) 0.27329(3)
Cu3 Cu 1.04241(4) 1.38586(3) -0.04268(3)
Cl1 Cl 1.16957(8) 0.85513(5) 0.24670(5)
Cl2 Cl 0.67528(8) 0.79841(5) 0.45586(6)
Cl3 Cl 0.77469(8) 1.50623(5) -0.02480(5)
S1 S 0.96821(8) 1.19225(5) 0.10765(6)
S2 S 0.84839(8) 0.60466(5) 0.24213(6)
S3 S 0.75055(8) 0.91469(5) 0.10043(6)
N1 N 0.8785(3) 1.0858(2) 0.35989(19)
H1 H 0.8350 1.0161 0.3514
N2 N 0.9086(3) 1.2871(2) 0.2832(2)
H2 H 0.9641 1.3633 0.2259
N3 N 0.4911(3) 0.6051(2) 0.3628(2)
H3 H 0.5222 0.6493 0.4007
N4 N 0.5269(3) 0.5071(2) 0.2395(2)
H4 H 0.5840 0.4858 0.1804
N5 N 0.5834(3) 1.12904(19) 0.0314(2)
H5 H 0.6289 1.1404 -0.0476
N6 N 0.5412(3) 1.03373(19) 0.2334(2)
H6 H 0.5455 0.9653 0.2980
C1 C 0.9177(3) 1.1888(2) 0.2555(2)
C2 C 0.8102(4) 1.1157(2) 0.4704(2)
H7 H 0.6738 1.0988 0.4975
H8 H 0.8710 1.0606 0.5374
C3 C 0.8691(4) 1.2531(3) 0.4193(2)
H9 H 0.9906 1.2742 0.4237
H10 H 0.7708 1.2974 0.4374
C4 C 0.6118(3) 0.5717(2) 0.2815(2)
C5 C 0.3039(3) 0.5528(2) 0.3875(2)
H11 H 0.2192 0.6134 0.3847
H12 H 0.2695 0.4927 0.4632
C6 C 0.3250(4) 0.5061(3) 0.2830(3)
H13 H 0.2735 0.4309 0.2961
H14 H 0.2777 0.5647 0.2127
C7 C 0.6196(3) 1.0314(2) 0.1225(2)
C8 C 0.4793(3) 1.2152(2) 0.0793(2)
H15 H 0.5489 1.2866 0.0619
H16 H 0.3814 1.2403 0.0423
C9 C 0.4234(4) 1.1383(2) 0.2208(3)
H17 H 0.4651 1.1832 0.2646
H18 H 0.2964 1.1102 0.2499
Cu1A Cu 0.94620(4) 0.99076(3) -0.09819(3)
Cu3A Cu 0.95759(4) 1.61414(3) 0.04268(3)
Cu3A_2 Cu 0.95759(4) 0.61414(3) 0.04268(3)
Cl3A Cl 1.22531(8) 1.49377(5) 0.02480(5)
S2A S 1.15161(8) 1.39534(5) -0.24213(6)
S3A S 1.24945(8) 1.08531(5) -0.10043(6)
loop_
_geom_bond_atom_site_label_1
_geom_bond_atom_site_label_2
_geom_bond_site_symmetry_1
_geom_bond_site_symmetry_2
Cu1 Cl1 1_555 1_555
Cu2 Cl1 1_555 1_555
Cu3 Cl3 1_555 1_555
Cl2 Cu2 1_555 1_555
Cl3 Cu3A 1_555 1_555
S1 Cu1 1_555 1_555
S2 Cu2 1_555 1_555
S3 Cu1 1_555 1_555
N1 H1 1_555 1_555
N2 H2 1_555 1_555
N3 H3 1_555 1_555
N4 H4 1_555 1_555
N5 H5 1_555 1_555
N6 H6 1_555 1_555
C1 S1 1_555 1_555
C2 N1 1_555 1_555
H7 C2 1_555 1_555
H8 C2 1_555 1_555
C3 N2 1_555 1_555
H9 C3 1_555 1_555
H10 C3 1_555 1_555
C4 S2 1_555 1_555
C5 N3 1_555 1_555
H11 C5 1_555 1_555
H12 C5 1_555 1_555
C6 N4 1_555 1_555
H13 C6 1_555 1_555
H14 C6 1_555 1_555
C7 S3 1_555 1_555
C8 N5 1_555 1_555
H15 C8 1_555 1_555
H16 C8 1_555 1_555
C9 N6 1_555 1_555
H17 C9 1_555 1_555
H18 C9 1_555 1_555
Cu1A S3 1_555 1_555
Cu3A Cl3A 1_555 1_555
Cu3A_2 S2 1_555 1_555
Cl3A Cu3 1_555 1_555
S2A Cu3 1_555 1_555
S3A Cu1 1_555 1_555
Cu2 S3 1_555 1_555
Cu3 S1 1_555 1_555
N1 C1 1_555 1_555
N2 C1 1_555 1_555
N3 C4 1_555 1_555
N4 C4 1_555 1_555
N5 C7 1_555 1_555
N6 C7 1_555 1_555
C2 C3 1_555 1_555
C5 C6 1_555 1_555
C8 C9 1_555 1_555
Cu1A S3A 1_555 1_555

#END
