
#######################################################################
#
#                 Cambridge Crystallographic Data Centre
#                                CCDC 
#
#######################################################################
#
# If this CIF has been generated from an entry in the Cambridge 
# Structural Database, then it will include bibliographic, chemical, 
# crystal, experimental, refinement or atomic coordinate data resulting 
# from the CCDC's data processing and validation procedures.
#
#######################################################################

data_QUHSIV
_symmetry_cell_setting           triclinic
_symmetry_space_group_name_H-M   'P -1'
_symmetry_Int_Tables_number      2
_space_group_name_Hall           '-P 1'
loop_
_symmetry_equiv_pos_site_id
_symmetry_equiv_pos_as_xyz
1 x,y,z
2 -x,-y,-z
_cell_length_a                   6.1672(12)
_cell_length_b                   8.3595(17)
_cell_length_c                   14.223(3)
_cell_angle_alpha                77.35(3)
_cell_angle_beta                 86.80(3)
_cell_angle_gamma                87.70(3)
_cell_volume                     714.055
loop_
_atom_site_label
_atom_site_type_symbol
_atom_site_fract_x
_atom_site_fract_y
_atom_site_fract_z
Ag1 Ag 0.0835(1) 0.8129(1) 0.7477(1)
Cu1 Cu 0.0000 0.0000 1.0000
Cu2 Cu -0.5000 1.5000 0.5000
C1 C 0.3046(7) 0.2171(5) 1.0203(3)
C2 C 0.1514(6) 0.3151(5) 0.9475(3)
C3 C 0.1806(7) 0.4763(5) 0.8986(3)
C4 C -0.1327(8) 0.4732(6) 0.8200(3)
C5 C -0.1627(7) 0.3123(6) 0.8684(3)
C6 C -0.5988(7) 1.3036(6) 0.6755(3)
C7 C -0.3801(7) 1.2360(6) 0.6440(3)
C8 C -0.2737(7) 1.0962(6) 0.6930(3)
C9 C 0.0077(7) 1.1323(6) 0.5790(3)
C10 C -0.0996(7) 1.2745(6) 0.5287(3)
N1 N 0.0378(6) 0.5549(5) 0.8345(3)
N2 N -0.0190(5) 0.2341(4) 0.9313(2)
N3 N -0.0809(6) 1.0425(5) 0.6603(3)
N4 N -0.2920(6) 1.3239(4) 0.5607(2)
O1 O 0.2513(5) 0.0715(4) 1.0574(2)
O2 O 0.4677(5) 0.2831(4) 1.0379(3)
O3 O -0.6821(5) 1.4219(4) 0.6152(2)
O4 O -0.6787(6) 1.2392(5) 0.7556(2)
O5 O 0.2325(6) -0.0593(5) 0.8701(3)
H1 H 0.3012 0.5311 0.9102
H2 H -0.2340 0.5250 0.7765
H3 H -0.2839 0.2577 0.8571
H4 H -0.3373 1.0373 0.7504
H5 H 0.1423 1.1004 0.5553
H6 H -0.0348 1.3349 0.4722
H7 H 0.287(10) 0.0150(80) 0.8380(50)
H8 H 0.327(13) -0.1100(90) 0.8910(50)
C1A C -0.3046(7) -0.2171(5) 0.9797(3)
C2A C -0.1514(6) -0.3151(5) 1.0525(3)
C3A C -0.1806(7) -0.4763(5) 1.1014(3)
C4A C 0.1327(8) -0.4732(6) 1.1800(3)
C5A C 0.1627(7) -0.3123(6) 1.1316(3)
N1A N -0.0378(6) -0.5549(5) 1.1655(3)
N2A N 0.0190(5) -0.2341(4) 1.0687(2)
O1A O -0.2513(5) -0.0715(4) 0.9426(2)
O2A O -0.4677(5) -0.2831(4) 0.9621(3)
H1A H -0.3012 -0.5311 1.0898
H2A H 0.2340 -0.5250 1.2235
H3A H 0.2839 -0.2577 1.1429
O5A O -0.2325(6) 0.0593(5) 1.1299(3)
H7A H -0.287(10) -0.0150(80) 1.1620(50)
H8A H -0.327(13) 0.1100(90) 1.1090(50)
Ag1A Ag -0.0835(1) -0.8129(1) 1.2523(1)
C6A C 0.5988(7) -1.3036(6) 1.3245(3)
C7A C 0.3801(7) -1.2360(6) 1.3560(3)
C8A C 0.2737(7) -1.0962(6) 1.3070(3)
C9A C -0.0077(7) -1.1323(6) 1.4210(3)
C10A C 0.0996(7) -1.2745(6) 1.4713(3)
N3A N 0.0809(6) -1.0425(5) 1.3397(3)
N4A N 0.2920(6) -1.3239(4) 1.4393(2)
O3A O 0.6821(5) -1.4219(4) 1.3848(2)
O4A O 0.6787(6) -1.2392(5) 1.2444(2)
H4A H 0.3373 -1.0373 1.2496
H5A H -0.1423 -1.1004 1.4447
H6A H 0.0348 -1.3349 1.5278
O5_2 O 0.2325(6) 0.9407(5) 0.8701(3)
N4A_2 N -0.7080(6) 1.6761(4) 0.4393(2)
O3A_2 O -0.3179(5) 1.5781(4) 0.3848(2)
Ag1_2 Ag 0.0835(1) -0.1871(1) 0.7477(1)
Ag1A_2 Ag -0.0835(1) 0.1871(1) 1.2523(1)
O5A_2 O -0.2325(6) -0.9407(5) 1.1299(3)
Cu2_2 Cu 0.5000 -1.5000 1.5000
H7_2 H 0.287(10) 1.0150(80) 0.8380(50)
H8_2 H 0.327(13) 0.8900(90) 0.8910(50)
H7A_2 H -0.287(10) -1.0150(80) 1.1620(50)
H8A_2 H -0.327(13) -0.8900(90) 1.1090(50)
N5 N 0.4807(7) 0.2400(5) 0.3616(3)
O6 O 0.3371(7) 0.3108(6) 0.4055(3)
O7 O 0.4923(10) 0.2692(8) 0.2727(3)
O8 O 0.6206(10) 0.1461(8) 0.4033(4)
loop_
_geom_bond_atom_site_label_1
_geom_bond_atom_site_label_2
_geom_bond_site_symmetry_1
_geom_bond_site_symmetry_2
Ag1 N1 1_555 1_555
Cu1 N2 1_555 1_555
Cu2 N4 1_555 1_555
C1 C2 1_555 1_555
C2 C3 1_555 1_555
C3 N1 1_555 1_555
C4 C5 1_555 1_555
C5 N2 1_555 1_555
C6 C7 1_555 1_555
C7 C8 1_555 1_555
C8 N3 1_555 1_555
C9 C10 1_555 1_555
C10 N4 1_555 1_555
N1 C4 1_555 1_555
N2 C2 1_555 1_555
N3 Ag1 1_555 1_555
N4 C7 1_555 1_555
N5 O6 1_555 1_555
O1 Cu1 1_555 1_555
O2 C1 1_555 1_555
O3 Cu2 1_555 1_555
O4 C6 1_555 1_555
O5 Cu1 1_555 1_555
O7 N5 1_555 1_555
O8 N5 1_555 1_555
H1 C3 1_555 1_555
H2 C4 1_555 1_555
H3 C5 1_555 1_555
H4 C8 1_555 1_555
H5 C9 1_555 1_555
H6 C10 1_555 1_555
H7 O5 1_555 1_555
H8 O5 1_555 1_555
C1A C2A 1_555 1_555
C2A C3A 1_555 1_555
C3A N1A 1_555 1_555
C4A C5A 1_555 1_555
C5A N2A 1_555 1_555
N1A C4A 1_555 1_555
N2A Cu1 1_555 1_555
O1A Cu1 1_555 1_555
O2A C1A 1_555 1_555
H1A C3A 1_555 1_555
H2A C4A 1_555 1_555
H3A C5A 1_555 1_555
O5A Cu1 1_555 1_555
H7A O5A 1_555 1_555
H8A O5A 1_555 1_555
Ag1A N1A 1_555 1_555
C6A C7A 1_555 1_555
C7A C8A 1_555 1_555
C8A N3A 1_555 1_555
C9A C10A 1_555 1_555
C10A N4A 1_555 1_555
N3A Ag1A 1_555 1_555
N4A C7A 1_555 1_555
O3A C6A 1_555 1_555
O4A C6A 1_555 1_555
H4A C8A 1_555 1_555
H5A C9A 1_555 1_555
H6A C10A 1_555 1_555
O5_2 Ag1 1_555 1_555
N4A_2 Cu2 1_555 1_555
O3A_2 Cu2 1_555 1_555
Ag1_2 O5 1_555 1_555
Ag1A_2 O5A 1_555 1_555
O5A_2 Ag1A 1_555 1_555
Cu2_2 N4A 1_555 1_555
H7_2 O5_2 1_555 1_555
H8_2 O5_2 1_555 1_555
H7A_2 O5A_2 1_555 1_555
H8A_2 O5A_2 1_555 1_555
C1 O1 1_555 1_555
C6 O3 1_555 1_555
C9 N3 1_555 1_555
C1A O1A 1_555 1_555
C2A N2A 1_555 1_555
C9A N3A 1_555 1_555
O3A Cu2_2 1_555 1_555

#END
