
#######################################################################
#
#                 Cambridge Crystallographic Data Centre
#                                CCDC 
#
#######################################################################
#
# If this CIF has been generated from an entry in the Cambridge 
# Structural Database, then it will include bibliographic, chemical, 
# crystal, experimental, refinement or atomic coordinate data resulting 
# from the CCDC's data processing and validation procedures.
#
#######################################################################

data_QUHYEX
_symmetry_cell_setting           triclinic
_symmetry_space_group_name_H-M   'P -1'
_symmetry_Int_Tables_number      2
_space_group_name_Hall           '-P 1'
loop_
_symmetry_equiv_pos_site_id
_symmetry_equiv_pos_as_xyz
1 x,y,z
2 -x,-y,-z
_cell_length_a                   11.654
_cell_length_b                   7.6003
_cell_length_c                   6.6418
_cell_angle_alpha                90.00
_cell_angle_beta                 103.05
_cell_angle_gamma                109.03
_cell_volume                     540.042
loop_
_atom_site_label
_atom_site_type_symbol
_atom_site_fract_x
_atom_site_fract_y
_atom_site_fract_z
La1 La 0.1984(3) 0.3462(8) -0.1775(5)
O1 O 0.235(3) 0.187(2) -0.502(2)
O2 O 0.245(3) 0.556(2) -0.504(1)
O3 O 0.227(3) 0.180(2) -0.829(2)
O4 O 0.213(3) 0.537(2) -0.835(1)
O5 O 0.004(2) 0.234(1) -0.502(2)
O6 O -0.092(2) 0.012(1) -0.747(2)
O7 O 0.411(1) 0.287(2) -0.147(3)
O8 O 0.6062(9) 0.375(2) 0.027(4)
C1 C 0.242(3) 0.272(2) -0.664(2)
C2 C 0.215(3) 0.456(2) -0.671(1)
C3 C -0.013(2) 0.072(1) -0.575(2)
C4 C 0.502(1) 0.401(2) -0.018(5)
O10 O -0.042(2) 0.200(4) -0.07(4)
O11 O 0.125(3) 0.647(3) -0.180(5)
C3A C 0.013(2) -0.072(1) -0.425(2)
O5A O -0.004(2) -0.234(1) -0.498(2)
O6A O 0.092(2) -0.012(1) -0.253(2)
C4A C 0.498(1) 0.599(2) 0.018(5)
O7A O 0.589(1) 0.713(2) 0.147(3)
O8A O 0.3938(9) 0.625(2) -0.027(4)
O1_2 O 0.235(3) 0.187(2) 0.498(2)
O2_2 O 0.245(3) 0.556(2) 0.496(1)
O3_2 O 0.227(3) 0.180(2) 0.171(2)
O4_2 O 0.213(3) 0.537(2) 0.165(1)
C1_2 C 0.242(3) 0.272(2) 0.336(2)
C2_2 C 0.215(3) 0.456(2) 0.329(1)
La1_2 La 0.1984(3) 0.3462(8) 0.8225(5)
La1_3 La 0.1984(3) 0.3462(8) -1.1775(5)
La1A La -0.1984(3) -0.3462(8) -0.8225(5)
La1A_2 La 0.8016(3) 0.6538(8) 0.1775(5)
O3_3 O 0.227(3) 0.180(2) 1.171(2)
O4_3 O 0.213(3) 0.537(2) 1.165(1)
O5_2 O 0.004(2) 0.234(1) 0.498(2)
O6A_2 O 0.092(2) -0.012(1) 0.747(2)
O7_2 O 0.411(1) 0.287(2) 0.853(3)
O8A_2 O 0.3938(9) 0.625(2) 0.973(4)
O10_2 O -0.042(2) 0.200(4) 0.93(4)
O11_2 O 0.125(3) 0.647(3) 0.820(5)
K1 K 0.3511(9) 0.935(2) 0.686(1)
O9 O -0.644(2) -0.052(4) -0.753(4)
loop_
_geom_bond_atom_site_label_1
_geom_bond_atom_site_label_2
_geom_bond_site_symmetry_1
_geom_bond_site_symmetry_2
La1 O1 1_555 1_555
O1 C1 1_555 1_555
O2 La1 1_555 1_555
O3 C1 1_555 1_555
O4 C2 1_555 1_555
O5 La1 1_555 1_555
O6 C3 1_555 1_555
O7 La1 1_555 1_555
O8 C4 1_555 1_555
C1 C2 1_555 1_555
C2 O2 1_555 1_555
C3 O5 1_555 1_555
C4 O7 1_555 1_555
O10 La1 1_555 1_555
O11 La1 1_555 1_555
C3A C3 1_555 1_555
O5A C3A 1_555 1_555
O6A La1 1_555 1_555
C4A C4 1_555 1_555
O7A C4A 1_555 1_555
O8A La1 1_555 1_555
O1_2 C1_2 1_555 1_555
O2_2 C2_2 1_555 1_555
O3_2 La1 1_555 1_555
O4_2 La1 1_555 1_555
C1_2 O3_2 1_555 1_555
C2_2 O4_2 1_555 1_555
La1_2 O1_2 1_555 1_555
La1_3 O3 1_555 1_555
La1A O6 1_555 1_555
La1A_2 O8 1_555 1_555
O3_3 La1_2 1_555 1_555
O4_3 La1_2 1_555 1_555
O5_2 La1_2 1_555 1_555
O6A_2 La1_2 1_555 1_555
O7_2 La1_2 1_555 1_555
O8A_2 La1_2 1_555 1_555
O10_2 La1_2 1_555 1_555
O11_2 La1_2 1_555 1_555
O4 La1_3 1_555 1_555
C3A O6A 1_555 1_555
O5A La1A 1_555 1_555
C4A O8A 1_555 1_555
O7A La1A_2 1_555 1_555
O2_2 La1_2 1_555 1_555
C1_2 C2_2 1_555 1_555

#END
