
#######################################################################
#
#                 Cambridge Crystallographic Data Centre
#                                CCDC 
#
#######################################################################
#
# If this CIF has been generated from an entry in the Cambridge 
# Structural Database, then it will include bibliographic, chemical, 
# crystal, experimental, refinement or atomic coordinate data resulting 
# from the CCDC's data processing and validation procedures.
#
#######################################################################

data_QUHYEX01
_symmetry_cell_setting           monoclinic
_symmetry_space_group_name_H-M   'C 2/m'
_symmetry_Int_Tables_number      12
_space_group_name_Hall           '-C 2y'
loop_
_symmetry_equiv_pos_site_id
_symmetry_equiv_pos_as_xyz
1 x,y,z
2 -x,y,-z
3 1/2+x,1/2+y,z
4 1/2-x,1/2+y,-z
5 -x,-y,-z
6 x,-y,z
7 1/2-x,1/2-y,-z
8 1/2+x,1/2-y,z
_cell_length_a                   22.033(1)
_cell_length_b                   7.6003(5)
_cell_length_c                   6.6418(4)
_cell_angle_alpha                90
_cell_angle_beta                 103.814(6)
_cell_angle_gamma                90
_cell_volume                     1080.05
loop_
_atom_site_label
_atom_site_type_symbol
_atom_site_fract_x
_atom_site_fract_y
_atom_site_fract_z
K1 K 0.4274(5) 0.0000 0.682(2)
O6 O -0.065(1) 0.5000 -0.736(4)
O7 O 0.221(1) 0.5000 -0.088(4)
La1 La 0.3486(2) 0.5000 -0.1792(5)
O1 O 0.369(1) 0.348(2) -0.510(2)
O2 O 0.355(1) 0.324(2) -0.838(2)
O3 O 0.248(1) 0.5000 -0.527(4)
O4 O 0.197(2) 0.327(5) -0.737(3)
O5 O 0.4510(5) 0.299(2) -0.074(3)
C1 C 0.358(2) 0.4028(8) -0.683(1)
C2 C 0.239(1) 0.3362(9) -0.562(2)
C3 C 0.5000 0.3974(8) 0.0000
O8 O 0.197(2) 0.323(5) -0.853(6)
C2E C 0.239(1) 0.6638(9) -0.562(2)
C1E C 0.358(2) 0.5972(8) -0.683(1)
C2F C 0.261(1) 0.1638(9) -0.438(2)
C3D C 0.5000 0.6026(8) 0.0000
O5A O 0.5490(5) 0.299(2) 0.074(3)
O1E O 0.369(1) 0.652(2) -0.510(2)
O2E O 0.355(1) 0.676(2) -0.838(2)
O1_2 O 0.369(1) 0.348(2) 0.490(2)
O2_2 O 0.355(1) 0.324(2) 0.162(2)
C1_2 C 0.358(2) 0.4028(8) 0.317(1)
C1E_2 C 0.358(2) 0.5972(8) 0.317(1)
O1E_2 O 0.369(1) 0.652(2) 0.490(2)
O2E_2 O 0.355(1) 0.676(2) 0.162(2)
O5E O 0.4510(5) 0.701(2) -0.074(3)
O5D O 0.5490(5) 0.701(2) 0.074(3)
La1_2 La 0.3486(2) 0.5000 0.8208(5)
La1_3 La 0.3486(2) 0.5000 -1.1792(5)
La1C La 0.1514(2) 0.0000 -0.8208(5)
La1A La 0.6514(2) 0.5000 0.1792(5)
O1A O 0.631(1) 0.348(2) 0.510(2)
O2A O 0.645(1) 0.324(2) 0.838(2)
C1A C 0.642(2) 0.4028(8) 0.683(1)
C1D C 0.642(2) 0.5972(8) 0.683(1)
O1D O 0.631(1) 0.652(2) 0.510(2)
O2D O 0.645(1) 0.676(2) 0.838(2)
O1A_2 O 0.631(1) 0.348(2) -0.490(2)
O2A_2 O 0.645(1) 0.324(2) -0.162(2)
C1A_2 C 0.642(2) 0.4028(8) -0.317(1)
C1D_2 C 0.642(2) 0.5972(8) -0.317(1)
O1D_2 O 0.631(1) 0.652(2) -0.490(2)
O2D_2 O 0.645(1) 0.676(2) -0.162(2)
La1A_2 La 0.6514(2) 0.5000 -0.8208(5)
La1A_3 La 0.6514(2) 0.5000 1.1792(5)
O4C O 0.303(2) 0.827(5) -0.263(3)
O4F O 0.303(2) 0.173(5) -0.263(3)
O8C O 0.303(2) 0.823(5) -0.147(6)
O8F O 0.303(2) 0.177(5) -0.147(6)
O4E O 0.197(2) 0.673(5) -0.737(3)
C2C C 0.261(1) 0.8362(9) -0.438(2)
O3C O 0.252(1) 0.0000 -0.473(4)
O2_3 O 0.355(1) 0.324(2) 1.162(2)
O2E_3 O 0.355(1) 0.676(2) 1.162(2)
O3_2 O 0.248(1) 0.5000 0.473(4)
O4C_2 O 0.303(2) 0.827(5) 0.737(3)
O4F_2 O 0.303(2) 0.173(5) 0.737(3)
O5_2 O 0.4510(5) 0.299(2) 0.926(3)
O5E_2 O 0.4510(5) 0.701(2) 0.926(3)
O8C_2 O 0.303(2) 0.823(5) 0.853(6)
O8F_2 O 0.303(2) 0.177(5) 0.853(6)
O1_3 O 0.369(1) 0.348(2) -1.510(2)
O1E_3 O 0.369(1) 0.652(2) -1.510(2)
O3_3 O 0.248(1) 0.5000 -1.527(4)
O4C_3 O 0.303(2) 0.827(5) -1.263(3)
O4F_3 O 0.303(2) 0.173(5) -1.263(3)
O5_3 O 0.4510(5) 0.299(2) -1.074(3)
O5E_3 O 0.4510(5) 0.701(2) -1.074(3)
O8C_3 O 0.303(2) 0.823(5) -1.147(6)
O8F_3 O 0.303(2) 0.177(5) -1.147(6)
O1C O 0.131(1) -0.152(2) -0.490(2)
O1F O 0.131(1) 0.152(2) -0.490(2)
O2C O 0.145(1) -0.176(2) -1.162(2)
O2F O 0.145(1) 0.176(2) -1.162(2)
O4E_2 O 0.197(2) -0.327(5) -0.737(3)
O5C O 0.0490(5) -0.201(2) -0.926(3)
O5F O 0.0490(5) 0.201(2) -0.926(3)
O8E O 0.197(2) -0.323(5) -0.853(6)
O3A O 0.752(1) 0.5000 0.527(4)
O4B O 0.697(2) 0.827(5) 0.263(3)
O4G O 0.697(2) 0.173(5) 0.263(3)
O8B O 0.697(2) 0.823(5) 0.147(6)
O8G O 0.697(2) 0.177(5) 0.147(6)
O2A_3 O 0.645(1) 0.324(2) -1.162(2)
O2D_3 O 0.645(1) 0.676(2) -1.162(2)
O3A_2 O 0.752(1) 0.5000 -0.473(4)
O4B_2 O 0.697(2) 0.827(5) -0.737(3)
O4G_2 O 0.697(2) 0.173(5) -0.737(3)
O5A_2 O 0.5490(5) 0.299(2) -0.926(3)
O5D_2 O 0.5490(5) 0.701(2) -0.926(3)
O8B_2 O 0.697(2) 0.823(5) -0.853(6)
O8G_2 O 0.697(2) 0.177(5) -0.853(6)
O1A_3 O 0.631(1) 0.348(2) 1.510(2)
O1D_3 O 0.631(1) 0.652(2) 1.510(2)
O3A_3 O 0.752(1) 0.5000 1.527(4)
O4B_3 O 0.697(2) 0.827(5) 1.263(3)
O4G_3 O 0.697(2) 0.173(5) 1.263(3)
O5A_3 O 0.5490(5) 0.299(2) 1.074(3)
O5D_3 O 0.5490(5) 0.701(2) 1.074(3)
O8B_3 O 0.697(2) 0.823(5) 1.147(6)
O8G_3 O 0.697(2) 0.177(5) 1.147(6)
loop_
_geom_bond_atom_site_label_1
_geom_bond_atom_site_label_2
_geom_bond_site_symmetry_1
_geom_bond_site_symmetry_2
La1 O1 1_555 1_555
O1 C1 1_555 1_555
O2 C1 1_555 1_555
O3 La1 1_555 1_555
O4 C2 1_555 1_555
O5 La1 1_555 1_555
C1 C1E 1_555 1_555
C2 O3 1_555 1_555
C3 O5 1_555 1_555
O8 O4 1_555 1_555
C2E O3 1_555 1_555
C1E O1E 1_555 1_555
C2F C2 1_555 1_555
C3D C3 1_555 1_555
O5A C3 1_555 1_555
O1E La1 1_555 1_555
O2E C1E 1_555 1_555
O1_2 C1_2 1_555 1_555
O2_2 La1 1_555 1_555
C1_2 O2_2 1_555 1_555
C1E_2 C1_2 1_555 1_555
O1E_2 C1E_2 1_555 1_555
O2E_2 La1 1_555 1_555
O5E La1 1_555 1_555
O5D C3D 1_555 1_555
La1_2 O1_2 1_555 1_555
La1_3 O2 1_555 1_555
La1C O4 1_555 1_555
La1A O5A 1_555 1_555
O1A La1A 1_555 1_555
O2A C1A 1_555 1_555
C1A O1A 1_555 1_555
C1D C1A 1_555 1_555
O1D La1A 1_555 1_555
O2D C1D 1_555 1_555
O1A_2 C1A_2 1_555 1_555
O2A_2 La1A 1_555 1_555
C1A_2 O2A_2 1_555 1_555
C1D_2 C1A_2 1_555 1_555
O1D_2 C1D_2 1_555 1_555
O2D_2 La1A 1_555 1_555
La1A_2 O1A_2 1_555 1_555
La1A_3 O2A 1_555 1_555
O4C La1 1_555 1_555
O4F La1 1_555 1_555
O8C La1 1_555 1_555
O8F La1 1_555 1_555
O4E C2E 1_555 1_555
C2C C2E 1_555 1_555
O3C C2F 1_555 1_555
O2_3 La1_2 1_555 1_555
O2E_3 La1_2 1_555 1_555
O3_2 La1_2 1_555 1_555
O4C_2 La1_2 1_555 1_555
O4F_2 La1_2 1_555 1_555
O5_2 La1_2 1_555 1_555
O5E_2 La1_2 1_555 1_555
O8C_2 La1_2 1_555 1_555
O8F_2 La1_2 1_555 1_555
O1_3 La1_3 1_555 1_555
O1E_3 La1_3 1_555 1_555
O3_3 La1_3 1_555 1_555
O4C_3 La1_3 1_555 1_555
O4F_3 La1_3 1_555 1_555
O5_3 La1_3 1_555 1_555
O5E_3 La1_3 1_555 1_555
O8C_3 La1_3 1_555 1_555
O8F_3 La1_3 1_555 1_555
O1C La1C 1_555 1_555
O1F La1C 1_555 1_555
O2C La1C 1_555 1_555
O2F La1C 1_555 1_555
O4E_2 La1C 1_555 1_555
O5C La1C 1_555 1_555
O5F La1C 1_555 1_555
O8E La1C 1_555 1_555
O3A La1A 1_555 1_555
O4B La1A 1_555 1_555
O4G La1A 1_555 1_555
O8B La1A 1_555 1_555
O8G La1A 1_555 1_555
O2A_3 La1A_2 1_555 1_555
O2D_3 La1A_2 1_555 1_555
O3A_2 La1A_2 1_555 1_555
O4B_2 La1A_2 1_555 1_555
O4G_2 La1A_2 1_555 1_555
O5A_2 La1A_2 1_555 1_555
O5D_2 La1A_2 1_555 1_555
O8B_2 La1A_2 1_555 1_555
O8G_2 La1A_2 1_555 1_555
O1A_3 La1A_3 1_555 1_555
O1D_3 La1A_3 1_555 1_555
O3A_3 La1A_3 1_555 1_555
O4B_3 La1A_3 1_555 1_555
O4G_3 La1A_3 1_555 1_555
O5A_3 La1A_3 1_555 1_555
O5D_3 La1A_3 1_555 1_555
O8B_3 La1A_3 1_555 1_555
O8G_3 La1A_3 1_555 1_555
O8 La1C 1_555 1_555
C2F O4F 1_555 1_555
C3D O5E 1_555 1_555
O2E La1_3 1_555 1_555
C1E_2 O2E_2 1_555 1_555
O1E_2 La1_2 1_555 1_555
O5D La1A 1_555 1_555
La1C O3C 1_555 1_555
C1D O1D 1_555 1_555
O2D La1A_3 1_555 1_555
C1D_2 O2D_2 1_555 1_555
O1D_2 La1A_2 1_555 1_555
O4C C2C 1_555 1_555
O4C O8C 1_555 1_555
O4F O8F 1_555 1_555
O4C_2 O8C_2 1_555 1_555
O4F_2 O8F_2 1_555 1_555
O4C_3 O8C_3 1_555 1_555
O4F_3 O8F_3 1_555 1_555
O4E_2 O8E 1_555 1_555
O4B O8B 1_555 1_555
O4G O8G 1_555 1_555
O4B_2 O8B_2 1_555 1_555
O4G_2 O8G_2 1_555 1_555
O4B_3 O8B_3 1_555 1_555
O4G_3 O8G_3 1_555 1_555

#END
