
#######################################################################
#
#                 Cambridge Crystallographic Data Centre
#                                CCDC 
#
#######################################################################
#
# If this CIF has been generated from an entry in the Cambridge 
# Structural Database, then it will include bibliographic, chemical, 
# crystal, experimental, refinement or atomic coordinate data resulting 
# from the CCDC's data processing and validation procedures.
#
#######################################################################

data_QUHYIB
_symmetry_cell_setting           triclinic
_symmetry_space_group_name_H-M   'P -1'
_symmetry_Int_Tables_number      2
_space_group_name_Hall           '-P 1'
loop_
_symmetry_equiv_pos_site_id
_symmetry_equiv_pos_as_xyz
1 x,y,z
2 -x,-y,-z
_cell_length_a                   11.732
_cell_length_b                   7.774
_cell_length_c                   6.655
_cell_angle_alpha                90
_cell_angle_beta                 104.4
_cell_angle_gamma                109.4
_cell_volume                     552.247
loop_
_atom_site_label
_atom_site_type_symbol
_atom_site_fract_x
_atom_site_fract_y
_atom_site_fract_z
La1 La 0.1954(5) 0.349(2) -0.1534(7)
O1 O 0.214(4) 0.186(2) -0.486(2)
O2 O 0.294(4) 0.563(2) -0.447(2)
O3 O 0.189(4) 0.188(2) -0.821(2)
O4 O 0.251(4) 0.562(2) -0.784(2)
O5 O -0.068(3) 0.159(4) -0.442(3)
O6 O -0.068(4) 0.048(6) -0.754(2)
O7 O 0.407(1) 0.277(2) -0.106(6)
O8 O 0.609(1) 0.388(3) 0.020(6)
C1 C 0.209(6) 0.270(2) -0.647(2)
C2 C 0.268(5) 0.480(2) -0.627(2)
C3 C -0.052(4) 0.042(6) -0.553(2)
C4 C 0.505(2) 0.411(3) -0.04(1)
O10 O -0.026(4) 0.20(1) -0.060(5)
O11 O 0.152(4) 0.668(6) -0.140(6)
C3A C 0.052(4) -0.042(6) -0.447(2)
O5A O 0.068(3) -0.159(4) -0.558(3)
O6A O 0.068(4) -0.048(6) -0.246(2)
C4A C 0.495(2) 0.589(3) 0.04(1)
O7A O 0.593(1) 0.723(2) 0.106(6)
O8A O 0.391(1) 0.612(3) -0.020(6)
O1_2 O 0.214(4) 0.186(2) 0.514(2)
O2_2 O 0.294(4) 0.563(2) 0.553(2)
O3_2 O 0.189(4) 0.188(2) 0.179(2)
O4_2 O 0.251(4) 0.562(2) 0.216(2)
C1_2 C 0.209(6) 0.270(2) 0.353(2)
C2_2 C 0.268(5) 0.480(2) 0.373(2)
La1_2 La 0.1954(5) 0.349(2) 0.8466(7)
La1_3 La 0.1954(5) 0.349(2) -1.1534(7)
La1A La -0.1954(5) -0.349(2) -0.8466(7)
La1A_2 La 0.8046(5) 0.651(2) 0.1534(7)
O3_3 O 0.189(4) 0.188(2) 1.179(2)
O4_3 O 0.251(4) 0.562(2) 1.216(2)
O5_2 O -0.068(3) 0.159(4) 0.558(3)
O6A_2 O 0.068(4) -0.048(6) 0.754(2)
O7_2 O 0.407(1) 0.277(2) 0.894(6)
O8A_2 O 0.391(1) 0.612(3) 0.980(6)
O10_2 O -0.026(4) 0.20(1) 0.940(5)
O11_2 O 0.152(4) 0.668(6) 0.860(6)
N1 N 0.398(4) 0.97(1) 0.656(7)
O9 O -0.629(4) -0.08(1) -0.745(5)
loop_
_geom_bond_atom_site_label_1
_geom_bond_atom_site_label_2
_geom_bond_site_symmetry_1
_geom_bond_site_symmetry_2
La1 O1 1_555 1_555
O1 C1 1_555 1_555
O2 La1 1_555 1_555
O3 C1 1_555 1_555
O4 C2 1_555 1_555
O5 La1 1_555 1_555
O6 C3 1_555 1_555
O7 La1 1_555 1_555
O8 C4 1_555 1_555
C1 C2 1_555 1_555
C2 O2 1_555 1_555
C3 O5 1_555 1_555
C4 O7 1_555 1_555
O10 La1 1_555 1_555
O11 La1 1_555 1_555
C3A C3 1_555 1_555
O5A C3A 1_555 1_555
O6A La1 1_555 1_555
C4A C4 1_555 1_555
O7A C4A 1_555 1_555
O8A La1 1_555 1_555
O1_2 C1_2 1_555 1_555
O2_2 C2_2 1_555 1_555
O3_2 La1 1_555 1_555
O4_2 La1 1_555 1_555
C1_2 O3_2 1_555 1_555
C2_2 O4_2 1_555 1_555
La1_2 O1_2 1_555 1_555
La1_3 O3 1_555 1_555
La1A O6 1_555 1_555
La1A_2 O8 1_555 1_555
O3_3 La1_2 1_555 1_555
O4_3 La1_2 1_555 1_555
O5_2 La1_2 1_555 1_555
O6A_2 La1_2 1_555 1_555
O7_2 La1_2 1_555 1_555
O8A_2 La1_2 1_555 1_555
O10_2 La1_2 1_555 1_555
O11_2 La1_2 1_555 1_555
O4 La1_3 1_555 1_555
C3A O6A 1_555 1_555
O5A La1A 1_555 1_555
C4A O8A 1_555 1_555
O7A La1A_2 1_555 1_555
O2_2 La1_2 1_555 1_555
C1_2 C2_2 1_555 1_555

#END
