
#######################################################################
#
#                 Cambridge Crystallographic Data Centre
#                                CCDC 
#
#######################################################################
#
# If this CIF has been generated from an entry in the Cambridge 
# Structural Database, then it will include bibliographic, chemical, 
# crystal, experimental, refinement or atomic coordinate data resulting 
# from the CCDC's data processing and validation procedures.
#
#######################################################################

data_QUHZEA
_symmetry_cell_setting           monoclinic
_symmetry_space_group_name_H-M   'P 21/c'
_symmetry_Int_Tables_number      14
_space_group_name_Hall           '-P 2ybc'
loop_
_symmetry_equiv_pos_site_id
_symmetry_equiv_pos_as_xyz
1 x,y,z
2 -x,1/2+y,1/2-z
3 -x,-y,-z
4 x,1/2-y,1/2+z
_cell_length_a                   13.164(4)
_cell_length_b                   17.071(5)
_cell_length_c                   31.150(9)
_cell_angle_alpha                90
_cell_angle_beta                 92.110(6)
_cell_angle_gamma                90
_cell_volume                     6995.36
loop_
_atom_site_label
_atom_site_type_symbol
_atom_site_fract_x
_atom_site_fract_y
_atom_site_fract_z
C1 C 0.1159(7) 0.1405(6) 0.0936(2)
C2 C 0.0312(7) 0.1810(8) 0.0682(4)
C3 C 0.0016(11) 0.1260(10) 0.0311(5)
H1 H -0.0200 0.0761 0.0425
H2 H 0.0597 0.1180 0.0134
H3 H -0.0536 0.1490 0.0140
C4 C -0.0592(10) 0.1914(10) 0.0959(5)
H4 H -0.0427 0.2287 0.1186
H5 H -0.0770 0.1415 0.1084
H6 H -0.1164 0.2109 0.0784
C5 C 0.0636(9) 0.2583(8) 0.0491(4)
H7 H 0.0872 0.2932 0.0719
H8 H 0.0062 0.2819 0.0336
H9 H 0.1181 0.2493 0.0296
C6 C 0.2958(7) -0.0217(5) 0.0722(3)
C7 C 0.3266(8) -0.0725(6) 0.0342(3)
C8 C 0.2936(11) -0.0307(7) -0.0066(3)
H10 H 0.3256 0.0205 -0.0073
H11 H 0.2203 -0.0245 -0.0076
H12 H 0.3138 -0.0611 -0.0312
C9 C 0.4459(9) -0.0816(7) 0.0379(4)
H13 H 0.4647 -0.1097 0.0641
H14 H 0.4773 -0.0302 0.0386
H15 H 0.4691 -0.1106 0.0133
C10 C 0.2767(10) -0.1524(6) 0.0377(3)
H16 H 0.3034 -0.1789 0.0633
H17 H 0.2909 -0.1834 0.0125
H18 H 0.2038 -0.1459 0.0396
C11 C 0.1145(6) 0.0660(4) 0.2357(2)
C12 C 0.0234(6) 0.0910(6) 0.2617(3)
C13 C -0.0445(8) 0.0224(6) 0.2711(3)
H19 H -0.0056 -0.0172 0.2868
H20 H -0.0714 0.0004 0.2443
H21 H -0.1002 0.0400 0.2883
C14 C 0.0585(7) 0.1307(8) 0.3032(3)
H22 H 0.0982 0.1768 0.2966
H23 H 0.0999 0.0947 0.3203
H24 H -0.0003 0.1462 0.3191
C15 C -0.0360(9) 0.1503(7) 0.2343(5)
H25 H 0.0053 0.1967 0.2305
H26 H -0.0977 0.1646 0.2485
H27 H -0.0535 0.1275 0.2065
C16 C 0.3077(7) -0.0980(5) 0.2061(3)
C17 C 0.3561(9) -0.1799(5) 0.2094(4)
C18 C 0.2771(11) -0.2431(6) 0.2047(5)
H28 H 0.2386 -0.2458 0.2306
H29 H 0.3101 -0.2930 0.2001
H30 H 0.2315 -0.2313 0.1804
C19 C 0.4129(13) -0.1930(7) 0.2522(5)
H31 H 0.3646 -0.1951 0.2750
H32 H 0.4601 -0.1502 0.2576
H33 H 0.4501 -0.2420 0.2513
C20 C 0.4198(16) -0.1808(10) 0.1704(6)
H34 H 0.4555 -0.2304 0.1689
H35 H 0.4686 -0.1383 0.1722
H36 H 0.3762 -0.1744 0.1448
C21 C 0.3185(6) 0.2400(4) 0.1922(3)
C22 C 0.2640(7) 0.3186(4) 0.2019(3)
C23 C 0.3301(8) 0.3864(5) 0.1851(3)
H37 H 0.3924 0.3901 0.2026
H38 H 0.2928 0.4353 0.1867
H39 H 0.3464 0.3762 0.1555
C24 C 0.2467(8) 0.3285(5) 0.2491(3)
H40 H 0.3117 0.3303 0.2648
H41 H 0.2072 0.2847 0.2593
H42 H 0.2100 0.3769 0.2537
C25 C 0.1636(8) 0.3181(6) 0.1743(4)
H43 H 0.1199 0.2767 0.1842
H44 H 0.1786 0.3093 0.1445
H45 H 0.1296 0.3682 0.1771
C26 C 0.5257(6) 0.0812(5) 0.1685(3)
C27 C 0.6393(6) 0.0615(5) 0.1650(2)
C28 C 0.6953(8) 0.1312(10) 0.1482(5)
H46 H 0.6680 0.1446 0.1198
H47 H 0.7670 0.1186 0.1466
H48 H 0.6872 0.1753 0.1674
C29 C 0.6473(10) -0.0095(9) 0.1365(5)
H49 H 0.6122 -0.0532 0.1492
H50 H 0.7183 -0.0229 0.1335
H51 H 0.6165 0.0019 0.1084
C30 C 0.6848(7) 0.0395(8) 0.2086(3)
H52 H 0.6476 -0.0045 0.2200
H53 H 0.6805 0.0838 0.2280
H54 H 0.7555 0.0249 0.2059
C31 C 0.4853(7) 0.2487(6) 0.0755(3)
H55 H 0.5131 0.2513 0.1037
C32 C 0.5302(8) 0.2908(6) 0.0455(3)
H56 H 0.5888 0.3206 0.0520
C33 C 0.4870(8) 0.2887(6) 0.0043(3)
H57 H 0.5175 0.3164 -0.0179
C34 C 0.4009(7) 0.2468(5) -0.0042(2)
C35 C 0.3626(6) 0.2037(5) 0.0287(2)
H58 H 0.3045 0.1729 0.0230
C36 C 0.3547(6) 0.2465(5) -0.0480(2)
C37 C 0.2674(6) 0.2011(5) -0.0585(2)
H59 H 0.2405 0.1678 -0.0377
C38 C 0.2213(6) 0.2053(4) -0.0991(2)
C39 C 0.2673(6) 0.2554(4) -0.1279(2)
H60 H 0.2394 0.2598 -0.1560
C40 C 0.3532(6) 0.2991(4) -0.1163(2)
C41 C 0.4010(6) 0.3542(4) -0.1456(2)
C42 C 0.4866(8) 0.3949(5) -0.1332(3)
H61 H 0.5152 0.3885 -0.1053
C43 C 0.5309(8) 0.4452(6) -0.1615(3)
H62 H 0.5888 0.4745 -0.1531
C44 C 0.4888(7) 0.4518(5) -0.2025(2)
H63 H 0.5214 0.4839 -0.2223
C45 C 0.3649(6) 0.3658(4) -0.1877(2)
H64 H 0.3081 0.3363 -0.1970
C46 C -0.0089(9) 0.0802(8) -0.0944(3)
H65 H -0.0445 0.0547 -0.0729
C47 C 0.0775(9) 0.1217(8) -0.0819(3)
H66 H 0.0981 0.1237 -0.0527
C48 C 0.1325(6) 0.1594(4) -0.1114(2)
C49 C 0.0949(7) 0.1538(6) -0.1523(3)
H67 H 0.1293 0.1783 -0.1746
C50 C 0.0069(7) 0.1129(5) -0.1617(3)
H68 H -0.0182 0.1131 -0.1904
N1 N 0.4040(5) 0.2035(4) 0.06850(19)
N2 N 0.4035(5) 0.4145(3) -0.21537(17)
N3 N -0.0443(5) 0.0738(4) -0.13378(19)
N4 N 0.3942(5) 0.2944(4) -0.07634(18)
O1 O 0.0930(4) 0.0789(4) 0.11332(19)
O2 O 0.2830(3) 0.0694(3) 0.16293(13)
O3 O 0.2026(4) 0.1686(3) 0.09249(17)
O4 O 0.2342(5) -0.0471(4) 0.09754(17)
O5 O 0.3371(4) 0.0444(4) 0.07374(15)
O6 O 0.0892(4) 0.0345(3) 0.20019(16)
O7 O 0.2022(4) 0.0755(3) 0.24943(15)
O8 O 0.2304(4) -0.0905(3) 0.18354(18)
O9 O 0.3523(4) -0.0435(3) 0.22760(16)
O10 O 0.3426(4) 0.2298(3) 0.15394(16)
O11 O 0.3283(4) 0.1924(3) 0.22238(15)
O12 O 0.4837(4) 0.1042(3) 0.13378(17)
O13 O 0.4862(4) 0.0731(3) 0.20310(14)
Fe1 Fe 0.17406(9) 0.00163(7) 0.15046(3)
Fe2 Fe 0.33799(8) 0.13056(6) 0.11917(3)
Ni1 Ni 0.33923(8) 0.07394(6) 0.22011(3)
N2C N 0.4035(5) 0.0855(3) 0.28463(17)
N3B N 0.0443(5) -0.0738(4) 0.13378(19)
Fe1B Fe -0.17406(9) -0.00163(7) -0.15046(3)
Ni1C Ni 0.33923(8) 0.42606(6) -0.27989(3)
loop_
_geom_bond_atom_site_label_1
_geom_bond_atom_site_label_2
_geom_bond_site_symmetry_1
_geom_bond_site_symmetry_2
C1 C2 1_555 1_555
C2 C3 1_555 1_555
C3 H1 1_555 1_555
H2 C3 1_555 1_555
H3 C3 1_555 1_555
C4 C2 1_555 1_555
H4 C4 1_555 1_555
H5 C4 1_555 1_555
H6 C4 1_555 1_555
C5 C2 1_555 1_555
H7 C5 1_555 1_555
H8 C5 1_555 1_555
H9 C5 1_555 1_555
C6 C7 1_555 1_555
C7 C8 1_555 1_555
C8 H10 1_555 1_555
H11 C8 1_555 1_555
H12 C8 1_555 1_555
C9 C7 1_555 1_555
H13 C9 1_555 1_555
H14 C9 1_555 1_555
H15 C9 1_555 1_555
C10 C7 1_555 1_555
H16 C10 1_555 1_555
H17 C10 1_555 1_555
H18 C10 1_555 1_555
C11 C12 1_555 1_555
C12 C13 1_555 1_555
C13 H19 1_555 1_555
H20 C13 1_555 1_555
H21 C13 1_555 1_555
C14 C12 1_555 1_555
H22 C14 1_555 1_555
H23 C14 1_555 1_555
H24 C14 1_555 1_555
C15 C12 1_555 1_555
H25 C15 1_555 1_555
H26 C15 1_555 1_555
H27 C15 1_555 1_555
C16 C17 1_555 1_555
C17 C18 1_555 1_555
C18 H28 1_555 1_555
H29 C18 1_555 1_555
H30 C18 1_555 1_555
C19 C17 1_555 1_555
H31 C19 1_555 1_555
H32 C19 1_555 1_555
H33 C19 1_555 1_555
C20 C17 1_555 1_555
H34 C20 1_555 1_555
H35 C20 1_555 1_555
H36 C20 1_555 1_555
C21 C22 1_555 1_555
C22 C23 1_555 1_555
C23 H37 1_555 1_555
H38 C23 1_555 1_555
H39 C23 1_555 1_555
C24 C22 1_555 1_555
H40 C24 1_555 1_555
H41 C24 1_555 1_555
H42 C24 1_555 1_555
C25 C22 1_555 1_555
H43 C25 1_555 1_555
H44 C25 1_555 1_555
H45 C25 1_555 1_555
C26 C27 1_555 1_555
C27 C28 1_555 1_555
C28 H46 1_555 1_555
H47 C28 1_555 1_555
H48 C28 1_555 1_555
C29 C27 1_555 1_555
H49 C29 1_555 1_555
H50 C29 1_555 1_555
H51 C29 1_555 1_555
C30 C27 1_555 1_555
H52 C30 1_555 1_555
H53 C30 1_555 1_555
H54 C30 1_555 1_555
C31 H55 1_555 1_555
C32 C31 1_555 1_555
H56 C32 1_555 1_555
C33 C32 1_555 1_555
H57 C33 1_555 1_555
C34 C33 1_555 1_555
C35 C34 1_555 1_555
H58 C35 1_555 1_555
C36 C34 1_555 1_555
C37 C36 1_555 1_555
H59 C37 1_555 1_555
C38 C37 1_555 1_555
C39 C38 1_555 1_555
H60 C39 1_555 1_555
C40 C39 1_555 1_555
C41 C40 1_555 1_555
C42 C41 1_555 1_555
H61 C42 1_555 1_555
C43 C42 1_555 1_555
H62 C43 1_555 1_555
C44 C43 1_555 1_555
H63 C44 1_555 1_555
C45 C41 1_555 1_555
H64 C45 1_555 1_555
C46 H65 1_555 1_555
C47 C46 1_555 1_555
H66 C47 1_555 1_555
C48 C38 1_555 1_555
C49 C48 1_555 1_555
H67 C49 1_555 1_555
C50 C49 1_555 1_555
H68 C50 1_555 1_555
N1 C31 1_555 1_555
N2 C44 1_555 1_555
N3 C46 1_555 1_555
N4 C36 1_555 1_555
O1 C1 1_555 1_555
O2 Fe1 1_555 1_555
O3 C1 1_555 1_555
O4 C6 1_555 1_555
O5 C6 1_555 1_555
O6 C11 1_555 1_555
O7 C11 1_555 1_555
O8 C16 1_555 1_555
O9 C16 1_555 1_555
O10 C21 1_555 1_555
O11 C21 1_555 1_555
O12 C26 1_555 1_555
O13 C26 1_555 1_555
Fe1 O1 1_555 1_555
Fe2 N1 1_555 1_555
Ni1 O2 1_555 1_555
N2C Ni1 1_555 1_555
N3B Fe1 1_555 1_555
Fe1B N3 1_555 1_555
Ni1C N2 1_555 1_555
C35 N1 1_555 1_555
C40 N4 1_555 1_555
C45 N2 1_555 1_555
C47 C48 1_555 1_555
C50 N3 1_555 1_555
O2 Fe2 1_555 1_555
O3 Fe2 1_555 1_555
O4 Fe1 1_555 1_555
O5 Fe2 1_555 1_555
O6 Fe1 1_555 1_555
O7 Ni1 1_555 1_555
O8 Fe1 1_555 1_555
O9 Ni1 1_555 1_555
O10 Fe2 1_555 1_555
O11 Ni1 1_555 1_555
O12 Fe2 1_555 1_555
O13 Ni1 1_555 1_555

#END
