
#######################################################################
#
#                 Cambridge Crystallographic Data Centre
#                                CCDC 
#
#######################################################################
#
# If this CIF has been generated from an entry in the Cambridge 
# Structural Database, then it will include bibliographic, chemical, 
# crystal, experimental, refinement or atomic coordinate data resulting 
# from the CCDC's data processing and validation procedures.
#
#######################################################################

data_QUHZUP
_symmetry_cell_setting           orthorhombic
_symmetry_space_group_name_H-M   'P b c n'
_symmetry_Int_Tables_number      60
_space_group_name_Hall           '-P 2n 2ab'
loop_
_symmetry_equiv_pos_site_id
_symmetry_equiv_pos_as_xyz
1 x,y,z
2 1/2-x,1/2-y,1/2+z
3 -x,y,1/2-z
4 1/2+x,1/2-y,-z
5 -x,-y,-z
6 1/2+x,1/2+y,1/2-z
7 x,-y,1/2+z
8 1/2-x,1/2+y,z
_cell_length_a                   9.2669(3)
_cell_length_b                   15.6365(5)
_cell_length_c                   17.3257(5)
_cell_angle_alpha                90
_cell_angle_beta                 90
_cell_angle_gamma                90
_cell_volume                     2510.53
loop_
_atom_site_label
_atom_site_type_symbol
_atom_site_fract_x
_atom_site_fract_y
_atom_site_fract_z
Cu1 Cu 0.09480(3) 0.922219(14) 0.004588(13)
Cl1 Cl -0.05645(4) 0.98452(2) 0.10402(2)
S1 S 0.03893(4) 0.78796(2) -0.03081(2)
N1 N -0.08966(15) 0.77822(9) 0.10537(8)
N2 N -0.10288(14) 0.65554(8) 0.03187(8)
N3 N -0.22155(15) 0.67131(8) 0.16974(7)
N4 N -0.20257(14) 0.55511(8) -0.04964(7)
C1 C -0.05590(17) 0.73673(10) 0.03883(9)
C2 C -0.16828(17) 0.75054(10) 0.16990(9)
C3 C -0.29855(18) 0.64643(11) 0.23207(9)
C4 C -0.3223(2) 0.69789(11) 0.29505(10)
C5 C -0.2642(2) 0.78017(11) 0.29454(10)
C6 C -0.1867(2) 0.80776(11) 0.23112(9)
C7 C -0.08394(17) 0.60038(10) -0.03157(9)
C8 C -0.19064(18) 0.49662(10) -0.10661(9)
C9 C -0.06471(19) 0.48322(11) -0.14748(10)
C10 C 0.05652(18) 0.53087(10) -0.12835(10)
C11 C 0.04790(18) 0.58973(10) -0.06900(9)
H1 H -0.068(2) 0.8270(14) 0.1039(11)
H2 H -0.156(2) 0.6390(12) 0.0677(12)
H3 H -0.340(2) 0.5900(13) 0.2284(11)
H4 H -0.374(2) 0.6777(13) 0.3374(13)
H5 H -0.283(2) 0.8147(14) 0.3378(13)
H6 H -0.143(2) 0.8644(14) 0.2273(12)
H7 H -0.274(2) 0.4650(12) -0.1165(11)
H8 H -0.062(2) 0.4413(13) -0.1867(13)
H9 H 0.148(2) 0.5228(12) -0.1540(11)
H10 H 0.125(2) 0.6200(13) -0.0541(11)
Cu1D Cu -0.09480(3) 1.077781(14) -0.004588(13)
Cu1C Cu -0.40520(3) 0.577781(14) -0.004588(13)
Cl1D Cl 0.05645(4) 1.01548(2) -0.10402(2)
N4C N 0.29743(14) 0.94489(8) 0.04964(7)
loop_
_geom_bond_atom_site_label_1
_geom_bond_atom_site_label_2
_geom_bond_site_symmetry_1
_geom_bond_site_symmetry_2
Cu1 Cl1 1_555 1_555
Cl1 Cu1D 1_555 1_555
S1 Cu1 1_555 1_555
N1 C1 1_555 1_555
N2 C1 1_555 1_555
N3 C2 1_555 1_555
N4 C7 1_555 1_555
C1 S1 1_555 1_555
C2 N1 1_555 1_555
C3 N3 1_555 1_555
C4 C3 1_555 1_555
C5 C4 1_555 1_555
C6 C2 1_555 1_555
C7 N2 1_555 1_555
C8 N4 1_555 1_555
C9 C8 1_555 1_555
C10 C9 1_555 1_555
C11 C7 1_555 1_555
H1 N1 1_555 1_555
H2 N2 1_555 1_555
H3 C3 1_555 1_555
H4 C4 1_555 1_555
H5 C5 1_555 1_555
H6 C6 1_555 1_555
H7 C8 1_555 1_555
H8 C9 1_555 1_555
H9 C10 1_555 1_555
H10 C11 1_555 1_555
Cu1D Cl1D 1_555 1_555
Cu1C N4 1_555 1_555
Cl1D Cu1 1_555 1_555
N4C Cu1 1_555 1_555
C5 C6 1_555 1_555
C10 C11 1_555 1_555

#END
