
#######################################################################
#
#                 Cambridge Crystallographic Data Centre
#                                CCDC 
#
#######################################################################
#
# If this CIF has been generated from an entry in the Cambridge 
# Structural Database, then it will include bibliographic, chemical, 
# crystal, experimental, refinement or atomic coordinate data resulting 
# from the CCDC's data processing and validation procedures.
#
#######################################################################

data_QUHZEZ
_symmetry_cell_setting           monoclinic
_symmetry_space_group_name_H-M   'P 21/c'
_symmetry_Int_Tables_number      14
_space_group_name_Hall           '-P 2ybc'
loop_
_symmetry_equiv_pos_site_id
_symmetry_equiv_pos_as_xyz
1 x,y,z
2 -x,1/2+y,1/2-z
3 -x,-y,-z
4 x,1/2-y,1/2+z
_cell_length_a                   3.89670(10)
_cell_length_b                   21.4501(4)
_cell_length_c                   28.1167(5)
_cell_angle_alpha                90
_cell_angle_beta                 91.0940(10)
_cell_angle_gamma                90
_cell_volume                     2349.69
loop_
_atom_site_label
_atom_site_type_symbol
_atom_site_fract_x
_atom_site_fract_y
_atom_site_fract_z
Br1 Br 0.00182(5) 0.966069(9) 0.377601(7)
Cu1 Cu 0.05768(8) 0.868750(13) 0.333525(10)
S1 S 0.03349(13) 0.77385(2) 0.368308(17)
S2 S 0.51853(13) 0.86478(2) 0.282878(17)
N1 N -0.2731(4) 0.83520(7) 0.43801(6)
H1 H -0.2435 0.8668 0.4185
N2 N -0.1963(4) 0.73035(8) 0.45105(6)
H2 H -0.2831 0.7383 0.4791
N3 N -0.4529(5) 0.80698(8) 0.51515(6)
N4 N 0.4913(4) 0.98792(8) 0.28027(6)
H3 H 0.4051 0.9811 0.3085
N5 N 0.6807(5) 0.94293(8) 0.21092(6)
H4 H 0.7293 0.9814 0.2025
N6 N 0.6542(5) 1.06604(8) 0.22577(6)
C1 C -0.1579(5) 0.77928(9) 0.42193(7)
C2 C -0.4327(5) 0.85027(9) 0.48109(7)
C3 C -0.5976(6) 0.82417(10) 0.55648(7)
H5 H -0.6125 0.7940 0.5811
C4 C -0.7241(6) 0.88285(10) 0.56490(7)
H6 H -0.8211 0.8931 0.5946
C5 C -0.7061(5) 0.92700(10) 0.52853(7)
H7 H -0.7942 0.9678 0.5331
C6 C -0.5593(5) 0.91092(9) 0.48594(7)
H8 H -0.5448 0.9402 0.4607
C7 C -0.1121(5) 0.66703(9) 0.44161(7)
C8 C 0.0601(6) 0.63392(9) 0.47735(8)
H9 H 0.1350 0.6545 0.5056
C9 C 0.1218(6) 0.57056(10) 0.47135(8)
H10 H 0.2361 0.5476 0.4958
C10 C 0.0175(6) 0.54104(10) 0.43002(8)
H11 H 0.0595 0.4977 0.4261
C11 C -0.1494(6) 0.57458(10) 0.39399(8)
H12 H -0.2161 0.5542 0.3653
C12 C -0.2188(6) 0.63757(10) 0.39980(8)
H13 H -0.3374 0.6602 0.3756
C13 C 0.5660(5) 0.93571(9) 0.25548(7)
C14 C 0.5284(5) 1.05119(9) 0.26844(7)
C15 C 0.6892(6) 1.12727(10) 0.21573(8)
H14 H 0.7804 1.1385 0.1858
C16 C 0.5996(6) 1.17436(10) 0.24655(8)
H15 H 0.6268 1.2169 0.2380
C17 C 0.4677(6) 1.15767(10) 0.29060(8)
H16 H 0.4016 1.1890 0.3125
C18 C 0.4339(5) 1.09554(10) 0.30220(8)
H17 H 0.3490 1.0832 0.3322
C19 C 0.7339(5) 0.89628(9) 0.17559(7)
C20 C 0.6195(5) 0.91079(10) 0.12971(7)
H18 H 0.5042 0.9491 0.1238
C21 C 0.6735(6) 0.86942(10) 0.09262(7)
H19 H 0.5978 0.8797 0.0613
C22 C 0.8381(6) 0.81298(10) 0.10136(8)
H20 H 0.8733 0.7843 0.0761
C23 C 0.9503(5) 0.79887(10) 0.14707(7)
H21 H 1.0625 0.7602 0.1530
C24 C 0.9022(5) 0.84010(10) 0.18459(7)
H22 H 0.9827 0.8301 0.2158
Cu1_2 Cu 1.05768(8) 0.868750(13) 0.333525(10)
S2_2 S -0.48147(13) 0.86478(2) 0.282878(17)
loop_
_geom_bond_atom_site_label_1
_geom_bond_atom_site_label_2
_geom_bond_site_symmetry_1
_geom_bond_site_symmetry_2
Br1 Cu1 1_555 1_555
Cu1 S1 1_555 1_555
S1 C1 1_555 1_555
S2 Cu1 1_555 1_555
N1 H1 1_555 1_555
N2 H2 1_555 1_555
N3 C2 1_555 1_555
N4 H3 1_555 1_555
N5 H4 1_555 1_555
N6 C14 1_555 1_555
C1 N1 1_555 1_555
C2 N1 1_555 1_555
C3 N3 1_555 1_555
H5 C3 1_555 1_555
C4 C3 1_555 1_555
H6 C4 1_555 1_555
C5 C4 1_555 1_555
H7 C5 1_555 1_555
C6 C2 1_555 1_555
H8 C6 1_555 1_555
C7 N2 1_555 1_555
C8 C7 1_555 1_555
H9 C8 1_555 1_555
C9 C8 1_555 1_555
H10 C9 1_555 1_555
C10 C9 1_555 1_555
H11 C10 1_555 1_555
C11 C10 1_555 1_555
H12 C11 1_555 1_555
C12 C7 1_555 1_555
H13 C12 1_555 1_555
C13 S2 1_555 1_555
C14 N4 1_555 1_555
C15 N6 1_555 1_555
H14 C15 1_555 1_555
C16 C15 1_555 1_555
H15 C16 1_555 1_555
C17 C16 1_555 1_555
H16 C17 1_555 1_555
C18 C14 1_555 1_555
H17 C18 1_555 1_555
C19 N5 1_555 1_555
C20 C19 1_555 1_555
H18 C20 1_555 1_555
C21 C20 1_555 1_555
H19 C21 1_555 1_555
C22 C21 1_555 1_555
H20 C22 1_555 1_555
C23 C22 1_555 1_555
H21 C23 1_555 1_555
C24 C19 1_555 1_555
H22 C24 1_555 1_555
Cu1_2 S2 1_555 1_555
S2_2 Cu1 1_555 1_555
N2 C1 1_555 1_555
N4 C13 1_555 1_555
N5 C13 1_555 1_555
C5 C6 1_555 1_555
C11 C12 1_555 1_555
C17 C18 1_555 1_555
C23 C24 1_555 1_555

#END
