
#######################################################################
#
#                 Cambridge Crystallographic Data Centre
#                                CCDC 
#
#######################################################################
#
# If this CIF has been generated from an entry in the Cambridge 
# Structural Database, then it will include bibliographic, chemical, 
# crystal, experimental, refinement or atomic coordinate data resulting 
# from the CCDC's data processing and validation procedures.
#
#######################################################################

data_QUJBIH
_symmetry_cell_setting           monoclinic
_symmetry_space_group_name_H-M   'P 21/c'
_symmetry_Int_Tables_number      14
_space_group_name_Hall           '-P 2ybc'
loop_
_symmetry_equiv_pos_site_id
_symmetry_equiv_pos_as_xyz
1 x,y,z
2 -x,1/2+y,1/2-z
3 -x,-y,-z
4 x,1/2-y,1/2+z
_cell_length_a                   13.8265(4)
_cell_length_b                   5.7143(2)
_cell_length_c                   15.3147(4)
_cell_angle_alpha                90
_cell_angle_beta                 93.1450(10)
_cell_angle_gamma                90
_cell_volume                     1208.17
loop_
_atom_site_label
_atom_site_type_symbol
_atom_site_fract_x
_atom_site_fract_y
_atom_site_fract_z
Cu1 Cu 0.50829(4) 0.76308(15) 0.50382(4)
I1 I 0.351853(19) 0.98315(5) 0.55465(2)
S1 S 0.45722(9) 0.50360(18) 0.38469(9)
S2 S 0.09836(8) 0.2169(2) 0.43123(7)
N1 N 0.3064(3) 0.7532(7) 0.3232(2)
H1 H 0.2437 0.7786 0.3156
N2 N 0.2696(3) 0.4205(7) 0.4013(3)
H2 H 0.2924 0.2975 0.4302
N3 N 0.1257(3) 0.6216(7) 0.3572(2)
C1 C 0.3363(3) 0.5706(9) 0.3686(3)
C2 C 0.3731(3) 0.9162(9) 0.2847(3)
H3 H 0.4238 0.9610 0.3287
H4 H 0.3376 1.0561 0.2643
H5 H 0.4027 0.8411 0.2352
C3 C 0.1703(4) 0.4445(9) 0.3930(3)
C4 C -0.0040(3) 0.3811(9) 0.3972(3)
C5 C -0.1009(3) 0.3259(9) 0.4029(3)
H6 H -0.1200 0.1833 0.4288
C6 C -0.1690(4) 0.4844(8) 0.3697(4)
H7 H -0.2359 0.4508 0.3733
C7 C -0.1407(3) 0.6933(9) 0.3311(3)
H8 H -0.1888 0.7987 0.3082
C8 C -0.0434(3) 0.7494(8) 0.3256(3)
H9 H -0.0245 0.8924 0.2999
C9 C 0.0259(3) 0.5906(9) 0.3588(3)
Cu1B Cu 0.49171(4) 1.23692(15) 0.49618(4)
Cu1B_2 Cu 0.49171(4) 0.23692(15) 0.49618(4)
I1B I 0.648147(19) 1.01685(5) 0.44535(2)
S1B S 0.54278(9) 0.49640(18) 0.61531(9)
loop_
_geom_bond_atom_site_label_1
_geom_bond_atom_site_label_2
_geom_bond_site_symmetry_1
_geom_bond_site_symmetry_2
Cu1 I1 1_555 1_555
I1 Cu1B 1_555 1_555
S1 Cu1 1_555 1_555
S2 C3 1_555 1_555
N1 H1 1_555 1_555
N2 H2 1_555 1_555
N3 C3 1_555 1_555
C1 S1 1_555 1_555
C2 N1 1_555 1_555
H3 C2 1_555 1_555
H4 C2 1_555 1_555
H5 C2 1_555 1_555
C3 N2 1_555 1_555
C4 S2 1_555 1_555
C5 C4 1_555 1_555
H6 C5 1_555 1_555
C6 C5 1_555 1_555
H7 C6 1_555 1_555
C7 C6 1_555 1_555
H8 C7 1_555 1_555
C8 C7 1_555 1_555
H9 C8 1_555 1_555
C9 N3 1_555 1_555
Cu1B I1B 1_555 1_555
Cu1B_2 S1 1_555 1_555
I1B Cu1 1_555 1_555
S1B Cu1 1_555 1_555
N1 C1 1_555 1_555
N2 C1 1_555 1_555
C4 C9 1_555 1_555
C8 C9 1_555 1_555
Cu1B_2 S1B 1_555 1_555

#END
