
#######################################################################
#
#                 Cambridge Crystallographic Data Centre
#                                CCDC 
#
#######################################################################
#
# If this CIF has been generated from an entry in the Cambridge 
# Structural Database, then it will include bibliographic, chemical, 
# crystal, experimental, refinement or atomic coordinate data resulting 
# from the CCDC's data processing and validation procedures.
#
#######################################################################

data_QUJBAA
_symmetry_cell_setting           monoclinic
_symmetry_space_group_name_H-M   'C 2/c'
_symmetry_Int_Tables_number      15
_space_group_name_Hall           '-C 2yn'
loop_
_symmetry_equiv_pos_site_id
_symmetry_equiv_pos_as_xyz
1 x,y,z
2 -x,y,1/2-z
3 1/2+x,1/2+y,z
4 1/2-x,1/2+y,1/2-z
5 -x,-y,-z
6 x,-y,1/2+z
7 1/2-x,1/2-y,-z
8 1/2+x,1/2-y,1/2+z
_cell_length_a                   23.826(5)
_cell_length_b                   19.696(4)
_cell_length_c                   7.4015(14)
_cell_angle_alpha                90
_cell_angle_beta                 106.784(4)
_cell_angle_gamma                90
_cell_volume                     3325.39
loop_
_atom_site_label
_atom_site_type_symbol
_atom_site_fract_x
_atom_site_fract_y
_atom_site_fract_z
Co1 Co 0.2500 0.2500 0.5000
N1 N 0.18424(13) 0.19966(16) 0.6027(4)
N2 N 0.0000 0.1274(2) 0.7500
N3 N 0.04703(13) 0.02314(15) 0.7253(4)
N4 N 0.0000 -0.2258(3) 0.7500
O1 O 0.31035(11) 0.17657(12) 0.6189(4)
O2 O 0.34896(13) 0.21541(16) 0.9114(4)
O3 O 0.21889(13) 0.18888(15) 0.2556(4)
C1 C 0.34539(17) 0.1726(2) 0.7849(6)
C2 C 0.38616(19) 0.1106(2) 0.8263(7)
C3 C 0.3469(2) 0.0479(2) 0.8129(9)
H1 H 0.3264 0.0505 0.9099
H2 H 0.3711 0.0068 0.8323
H3 H 0.3182 0.0463 0.6878
C4 C 0.4174(2) 0.1050(2) 0.6731(8)
H4 H 0.3883 0.1016 0.5492
H5 H 0.4423 0.0645 0.6956
H6 H 0.4417 0.1454 0.6765
C5 C 0.4312(3) 0.1157(3) 1.0188(8)
H7 H 0.4110 0.1191 1.1166
H8 H 0.4555 0.1561 1.0228
H9 H 0.4561 0.0751 1.0411
C6 C 0.2461(2) 0.1418(2) 0.1597(7)
H10 H 0.2876 0.1354 0.2337
H11 H 0.2454 0.1606 0.0351
C7 C 0.2157(2) 0.0749(2) 0.1330(7)
H12 H 0.2355 0.0438 0.0680
H13 H 0.1749 0.0810 0.0572
H14 H 0.2167 0.0560 0.2564
C8 C 0.18266(17) 0.13148(19) 0.6001(6)
H15 H 0.2132 0.1077 0.5686
C9 C 0.13873(16) 0.09433(19) 0.6409(5)
H16 H 0.1390 0.0461 0.6360
C10 C 0.09407(15) 0.12866(18) 0.6894(5)
C11 C 0.09639(16) 0.1991(2) 0.6978(6)
H17 H 0.0673 0.2241 0.7340
C12 C 0.14185(17) 0.23214(19) 0.6526(6)
H18 H 0.1429 0.2803 0.6573
C13 C 0.04405(16) 0.09151(18) 0.7236(5)
C14 C 0.0000 -0.0081(3) 0.7500
C15 C 0.0000 -0.0833(3) 0.7500
C16 C -0.04460(17) -0.11984(19) 0.7924(5)
H19 H -0.0762 -0.0970 0.8206
C17 C -0.04195(19) -0.1902(2) 0.7926(6)
H20 H -0.0720 -0.2146 0.8253
H21 H 0.193(2) 0.218(3) 0.177(8)
N1A N -0.18424(13) 0.19966(16) 0.8973(4)
N3A N -0.04703(13) 0.02314(15) 0.7747(4)
C8A C -0.18266(17) 0.13148(19) 0.8999(6)
H15A H -0.2132 0.1077 0.9314
C9A C -0.13873(16) 0.09433(19) 0.8591(5)
H16A H -0.1390 0.0461 0.8640
C10A C -0.09407(15) 0.12866(18) 0.8106(5)
C11A C -0.09639(16) 0.1991(2) 0.8022(6)
H17A H -0.0673 0.2241 0.7660
C12A C -0.14185(17) 0.23214(19) 0.8474(6)
H18A H -0.1429 0.2803 0.8427
C13A C -0.04405(16) 0.09151(18) 0.7764(5)
C16A C 0.04460(17) -0.11984(19) 0.7076(5)
H19A H 0.0762 -0.0970 0.6794
C17A C 0.04195(19) -0.1902(2) 0.7074(6)
H20A H 0.0720 -0.2146 0.6747
O1F O 0.18965(11) 0.32343(12) 0.3811(4)
O2F O 0.15104(13) 0.28459(16) 0.0886(4)
C1F C 0.15461(17) 0.3274(2) 0.2151(6)
C2F C 0.11384(19) 0.3894(2) 0.1737(7)
C3F C 0.1531(2) 0.4521(2) 0.1871(9)
H1F H 0.1736 0.4495 0.0901
H2F H 0.1289 0.4932 0.1677
H3F H 0.1818 0.4537 0.3122
C4F C 0.0826(2) 0.3950(2) 0.3269(8)
H4F H 0.1117 0.3984 0.4508
H5F H 0.0577 0.4355 0.3044
H6F H 0.0583 0.3546 0.3235
C5F C 0.0688(3) 0.3843(3) -0.0188(8)
H7F H 0.0890 0.3809 -0.1166
H8F H 0.0445 0.3439 -0.0228
H9F H 0.0439 0.4249 -0.0411
O3F O 0.28111(13) 0.31112(15) 0.7444(4)
C6F C 0.2539(2) 0.3582(2) 0.8403(7)
H10F H 0.2124 0.3646 0.7663
H11F H 0.2546 0.3394 0.9649
C7F C 0.2843(2) 0.4251(2) 0.8670(7)
H12F H 0.2645 0.4562 0.9320
H13F H 0.3251 0.4190 0.9428
H14F H 0.2833 0.4440 0.7436
H21F H 0.307(2) 0.282(3) 0.823(8)
Co1A Co -0.2500 0.2500 1.0000
N1F N 0.31576(13) 0.30034(16) 0.3973(4)
loop_
_geom_bond_atom_site_label_1
_geom_bond_atom_site_label_2
_geom_bond_site_symmetry_1
_geom_bond_site_symmetry_2
Co1 N1 1_555 1_555
N1 C8 1_555 1_555
N2 C13 1_555 1_555
N3 C13 1_555 1_555
N4 C17 1_555 1_555
O1 Co1 1_555 1_555
O2 C1 1_555 1_555
O3 Co1 1_555 1_555
C1 O1 1_555 1_555
C2 C1 1_555 1_555
C3 C2 1_555 1_555
H1 C3 1_555 1_555
H2 C3 1_555 1_555
H3 C3 1_555 1_555
C4 C2 1_555 1_555
H4 C4 1_555 1_555
H5 C4 1_555 1_555
H6 C4 1_555 1_555
C5 C2 1_555 1_555
H7 C5 1_555 1_555
H8 C5 1_555 1_555
H9 C5 1_555 1_555
C6 O3 1_555 1_555
H10 C6 1_555 1_555
H11 C6 1_555 1_555
C7 C6 1_555 1_555
H12 C7 1_555 1_555
H13 C7 1_555 1_555
H14 C7 1_555 1_555
C8 H15 1_555 1_555
C9 C8 1_555 1_555
H16 C9 1_555 1_555
C10 C9 1_555 1_555
C11 C10 1_555 1_555
H17 C11 1_555 1_555
C12 N1 1_555 1_555
H18 C12 1_555 1_555
C13 C10 1_555 1_555
C14 N3 1_555 1_555
C15 C14 1_555 1_555
C16 C15 1_555 1_555
H19 C16 1_555 1_555
C17 C16 1_555 1_555
H20 C17 1_555 1_555
H21 O3 1_555 1_555
N1A C8A 1_555 1_555
N3A C14 1_555 1_555
C8A H15A 1_555 1_555
C9A C8A 1_555 1_555
H16A C9A 1_555 1_555
C10A C9A 1_555 1_555
C11A C10A 1_555 1_555
H17A C11A 1_555 1_555
C12A N1A 1_555 1_555
H18A C12A 1_555 1_555
C13A N2 1_555 1_555
C16A C15 1_555 1_555
H19A C16A 1_555 1_555
C17A N4 1_555 1_555
H20A C17A 1_555 1_555
O1F Co1 1_555 1_555
O2F C1F 1_555 1_555
C1F O1F 1_555 1_555
C2F C1F 1_555 1_555
C3F C2F 1_555 1_555
H1F C3F 1_555 1_555
H2F C3F 1_555 1_555
H3F C3F 1_555 1_555
C4F C2F 1_555 1_555
H4F C4F 1_555 1_555
H5F C4F 1_555 1_555
H6F C4F 1_555 1_555
C5F C2F 1_555 1_555
H7F C5F 1_555 1_555
H8F C5F 1_555 1_555
H9F C5F 1_555 1_555
O3F Co1 1_555 1_555
C6F O3F 1_555 1_555
H10F C6F 1_555 1_555
H11F C6F 1_555 1_555
C7F C6F 1_555 1_555
H12F C7F 1_555 1_555
H13F C7F 1_555 1_555
H14F C7F 1_555 1_555
H21F O3F 1_555 1_555
Co1A N1A 1_555 1_555
N1F Co1 1_555 1_555
C11 C12 1_555 1_555
N3A C13A 1_555 1_555
C10A C13A 1_555 1_555
C11A C12A 1_555 1_555
C16A C17A 1_555 1_555

#END
