
#######################################################################
#
#                 Cambridge Crystallographic Data Centre
#                                CCDC 
#
#######################################################################
#
# If this CIF has been generated from an entry in the Cambridge 
# Structural Database, then it will include bibliographic, chemical, 
# crystal, experimental, refinement or atomic coordinate data resulting 
# from the CCDC's data processing and validation procedures.
#
#######################################################################

data_QUJCON01
_symmetry_cell_setting           monoclinic
_symmetry_space_group_name_H-M   'P 21/c'
_symmetry_Int_Tables_number      14
_space_group_name_Hall           '-P 2ybc'
loop_
_symmetry_equiv_pos_site_id
_symmetry_equiv_pos_as_xyz
1 x,y,z
2 -x,1/2+y,1/2-z
3 -x,-y,-z
4 x,1/2-y,1/2+z
_cell_length_a                   8.542(2)
_cell_length_b                   15.564(3)
_cell_length_c                   7.627(1)
_cell_angle_alpha                90
_cell_angle_beta                 110.60(1)
_cell_angle_gamma                90
_cell_volume                     949.157
loop_
_atom_site_label
_atom_site_type_symbol
_atom_site_fract_x
_atom_site_fract_y
_atom_site_fract_z
Ni1 Ni 0.1798(1) 0.2605(1) -0.0041(1)
Al1 Al -0.2513(1) 0.0262(1) 0.0128(2)
P1 P 0.0815(1) 0.1147(1) 0.1124(1)
P2 P 0.4123(1) 0.3786(1) 0.3394(1)
O1 O 0.3524(3) 0.3451(2) 0.1421(3)
O2 O 0.1642(3) 0.1889(2) 0.2415(3)
O3 O 0.0327(3) 0.1477(2) -0.0866(3)
O4 O -0.0724(3) 0.0806(2) 0.1543(4)
O5 O 0.2066(3) 0.0388(2) 0.1503(4)
O6 O 0.3895(3) 0.3162(2) 0.4825(4)
O7 O 0.3263(3) 0.4654(2) 0.3437(4)
O8 O 0.6018(3) 0.3973(2) 0.3963(4)
N1 N -0.0112(4) 0.3372(2) 0.0187(5)
N2 N -0.4808(5) 0.3429(3) -0.1167(6)
C1 C -0.1857(6) 0.3078(3) -0.0579(7)
C2 C -0.3050(6) 0.3714(3) -0.0250(7)
O6C O 0.3895(3) 0.1838(2) -0.0175(4)
Ni1C Ni 0.1798(1) 0.2395(1) 0.4959(1)
O2C O 0.1642(3) 0.3111(2) -0.2585(3)
O5B O -0.2066(3) -0.0388(2) -0.1503(4)
O7A O -0.3263(3) -0.0346(2) 0.1563(4)
O8C O -0.3982(3) 0.1027(2) -0.1037(4)
Al1B Al 0.2513(1) -0.0262(1) -0.0128(2)
Al1A Al 0.2513(1) 0.5262(1) 0.4872(2)
Al1C Al 0.7487(1) 0.4738(1) 0.5128(2)
loop_
_geom_bond_atom_site_label_1
_geom_bond_atom_site_label_2
_geom_bond_site_symmetry_1
_geom_bond_site_symmetry_2
Ni1 O1 1_555 1_555
Al1 O4 1_555 1_555
P1 O2 1_555 1_555
P2 O1 1_555 1_555
O2 Ni1 1_555 1_555
O3 Ni1 1_555 1_555
O4 P1 1_555 1_555
O5 P1 1_555 1_555
O6 P2 1_555 1_555
O7 P2 1_555 1_555
O8 P2 1_555 1_555
N1 Ni1 1_555 1_555
N2 C2 1_555 1_555
C1 N1 1_555 1_555
C2 C1 1_555 1_555
O6C Ni1 1_555 1_555
Ni1C O2 1_555 1_555
O2C Ni1 1_555 1_555
O5B Al1 1_555 1_555
O7A Al1 1_555 1_555
O8C Al1 1_555 1_555
Al1B O5 1_555 1_555
Al1A O7 1_555 1_555
Al1C O8 1_555 1_555
P1 O3 1_555 1_555
O6 Ni1C 1_555 1_555

#END
