
#######################################################################
#
#                 Cambridge Crystallographic Data Centre
#                                CCDC 
#
#######################################################################
#
# If this CIF has been generated from an entry in the Cambridge 
# Structural Database, then it will include bibliographic, chemical, 
# crystal, experimental, refinement or atomic coordinate data resulting 
# from the CCDC's data processing and validation procedures.
#
#######################################################################

data_QUJCEE
_symmetry_cell_setting           triclinic
_symmetry_space_group_name_H-M   'P -1'
_symmetry_Int_Tables_number      2
_space_group_name_Hall           '-P 1'
loop_
_symmetry_equiv_pos_site_id
_symmetry_equiv_pos_as_xyz
1 x,y,z
2 -x,-y,-z
_cell_length_a                   9.88290(10)
_cell_length_b                   12.38390(10)
_cell_length_c                   12.6176(2)
_cell_angle_alpha                92.2580(10)
_cell_angle_beta                 98.3810(10)
_cell_angle_gamma                101.6420(10)
_cell_volume                     1492.55
loop_
_atom_site_label
_atom_site_type_symbol
_atom_site_fract_x
_atom_site_fract_y
_atom_site_fract_z
O1 O 0.25875(16) 0.27272(12) 0.23810(12)
O2 O 0.09030(18) 0.30434(12) 0.32060(12)
O3 O 0.17843(16) 0.15949(11) 0.35133(10)
N7 N 0.17642(19) 0.24574(13) 0.30457(12)
Cu1 Cu 0.36181(2) 0.725536(18) 0.037904(18)
S1 S 0.44644(4) 0.88098(3) 0.15444(3)
S2 S 0.14360(4) 0.62987(3) 0.05283(3)
N1 N 0.34866(14) 1.04798(11) 0.23017(11)
H1 H 0.2874 1.0694 0.2658
N2 N 0.18286(14) 0.89323(11) 0.15670(12)
H2 H 0.1696 0.8216 0.1413
N3 N 0.62807(14) 1.22444(11) 0.11630(11)
N4 N 0.22570(15) 0.43784(11) 0.09612(11)
H3 H 0.2258 0.3845 0.1402
N5 N 0.12377(15) 0.50755(12) 0.22308(12)
H4 H 0.1069 0.4394 0.2430
N6 N 0.47292(14) 0.35400(11) -0.06085(11)
C1 C 0.31654(17) 0.94570(13) 0.18067(12)
C2 C 0.47735(17) 1.12271(13) 0.22728(13)
C3 C 0.51212(17) 1.15161(13) 0.12801(13)
H5 H 0.4505 1.1180 0.0652
C4 C 0.71456(19) 1.27010(14) 0.20584(15)
H6 H 0.7983 1.3209 0.1991
C5 C 0.6866(2) 1.24613(17) 0.30751(16)
H7 H 0.7498 1.2807 0.3691
C6 C 0.5658(2) 1.17154(16) 0.31901(14)
H8 H 0.5443 1.1544 0.3882
C7 C 0.05823(17) 0.93532(14) 0.15222(13)
C8 C -0.06225(19) 0.86067(15) 0.16588(17)
H9 H -0.0577 0.7875 0.1836
C9 C -0.1895(2) 0.89391(17) 0.1534(2)
H10 H -0.2724 0.8427 0.1612
C10 C -0.1965(2) 1.00113(16) 0.12967(18)
H11 H -0.2834 1.0238 0.1225
C11 C -0.07588(19) 1.07481(15) 0.11651(15)
H12 H -0.0803 1.1485 0.1008
C12 C 0.05179(18) 1.04231(14) 0.12594(14)
H13 H 0.1337 1.0927 0.1145
C13 C 0.16765(16) 0.52096(13) 0.12754(13)
C14 C 0.28621(17) 0.42318(13) 0.00342(13)
C15 C 0.40226(17) 0.37399(13) 0.01837(13)
H14 H 0.4328 0.3536 0.0882
C16 C 0.42840(18) 0.38385(14) -0.15900(13)
H15 H 0.4788 0.3726 -0.2157
C17 C 0.31226(19) 0.43025(15) -0.18075(14)
H16 H 0.2832 0.4488 -0.2516
C18 C 0.23800(17) 0.44979(14) -0.09913(13)
H17 H 0.1569 0.4803 -0.1130
C19 C 0.10137(18) 0.59066(14) 0.29579(13)
C20 C 0.19190(19) 0.69335(15) 0.31516(14)
H18 H 0.2685 0.7115 0.2770
C21 C 0.1689(2) 0.76922(16) 0.39125(15)
H19 H 0.2287 0.8404 0.4035
C22 C 0.0592(2) 0.74212(17) 0.44956(15)
H20 H 0.0436 0.7948 0.5007
C23 C -0.0268(2) 0.63829(18) 0.43273(15)
H21 H -0.1004 0.6188 0.4737
C24 C -0.00610(19) 0.56222(15) 0.35611(14)
H22 H -0.0653 0.4908 0.3449
Cu1A Cu 0.63819(2) 1.274464(18) -0.037904(18)
Cu1A_2 Cu 0.63819(2) 0.274464(18) -0.037904(18)
N3A N 0.37193(14) 0.77556(11) -0.11630(11)
N6A N 0.52708(14) 0.64600(11) 0.06085(11)
loop_
_geom_bond_atom_site_label_1
_geom_bond_atom_site_label_2
_geom_bond_site_symmetry_1
_geom_bond_site_symmetry_2
Cu1 S1 1_555 1_555
S1 C1 1_555 1_555
S2 Cu1 1_555 1_555
N1 H1 1_555 1_555
N2 H2 1_555 1_555
N3 C3 1_555 1_555
N4 H3 1_555 1_555
N5 H4 1_555 1_555
N6 C15 1_555 1_555
C1 N1 1_555 1_555
C2 N1 1_555 1_555
C3 C2 1_555 1_555
H5 C3 1_555 1_555
C4 N3 1_555 1_555
H6 C4 1_555 1_555
C5 C4 1_555 1_555
H7 C5 1_555 1_555
C6 C2 1_555 1_555
H8 C6 1_555 1_555
C7 N2 1_555 1_555
C8 C7 1_555 1_555
H9 C8 1_555 1_555
C9 C8 1_555 1_555
H10 C9 1_555 1_555
C10 C9 1_555 1_555
H11 C10 1_555 1_555
C11 C10 1_555 1_555
H12 C11 1_555 1_555
C12 C7 1_555 1_555
H13 C12 1_555 1_555
C13 S2 1_555 1_555
C14 N4 1_555 1_555
C15 C14 1_555 1_555
H14 C15 1_555 1_555
C16 N6 1_555 1_555
H15 C16 1_555 1_555
C17 C16 1_555 1_555
H16 C17 1_555 1_555
C18 C14 1_555 1_555
H17 C18 1_555 1_555
C19 N5 1_555 1_555
C20 C19 1_555 1_555
H18 C20 1_555 1_555
C21 C20 1_555 1_555
H19 C21 1_555 1_555
C22 C21 1_555 1_555
H20 C22 1_555 1_555
C23 C22 1_555 1_555
H21 C23 1_555 1_555
C24 C19 1_555 1_555
H22 C24 1_555 1_555
O1 N7 1_555 1_555
O2 N7 1_555 1_555
O3 N7 1_555 1_555
Cu1A N3 1_555 1_555
Cu1A_2 N6 1_555 1_555
N3A Cu1 1_555 1_555
N6A Cu1 1_555 1_555
N2 C1 1_555 1_555
N4 C13 1_555 1_555
N5 C13 1_555 1_555
C5 C6 1_555 1_555
C11 C12 1_555 1_555
C17 C18 1_555 1_555
C23 C24 1_555 1_555

#END
