
#######################################################################
#
#                 Cambridge Crystallographic Data Centre
#                                CCDC 
#
#######################################################################
#
# If this CIF has been generated from an entry in the Cambridge 
# Structural Database, then it will include bibliographic, chemical, 
# crystal, experimental, refinement or atomic coordinate data resulting 
# from the CCDC's data processing and validation procedures.
#
#######################################################################

data_QUJFIM
_symmetry_cell_setting           orthorhombic
_symmetry_space_group_name_H-M   'P c c n'
_symmetry_Int_Tables_number      56
_space_group_name_Hall           '-P 2ab 2ac'
loop_
_symmetry_equiv_pos_site_id
_symmetry_equiv_pos_as_xyz
1 x,y,z
2 1/2-x,1/2-y,z
3 -x,1/2+y,1/2-z
4 1/2+x,-y,1/2-z
5 -x,-y,-z
6 1/2+x,1/2+y,-z
7 x,1/2-y,1/2+z
8 1/2-x,y,1/2+z
_cell_length_a                   10.1091(3)
_cell_length_b                   19.8081(6)
_cell_length_c                   25.7293(7)
_cell_angle_alpha                90
_cell_angle_beta                 90
_cell_angle_gamma                90
_cell_volume                     5152.09
loop_
_atom_site_label
_atom_site_type_symbol
_atom_site_fract_x
_atom_site_fract_y
_atom_site_fract_z
Ag1 Ag 0.451552(16) 0.539099(8) 0.324413(6)
Ag2 Ag 0.2500 0.7500 0.370978(10)
N1 N 0.51414(18) 0.49523(9) 0.40313(7)
O1 O 0.68184(15) 0.58563(8) 0.35205(6)
O2 O 0.26647(15) 0.46399(8) 0.36280(6)
S1 S 0.42216(5) 0.67208(3) 0.33020(2)
S2 S -0.04468(5) 0.49017(3) 0.26915(2)
C1 C 0.4714(2) 0.41452(12) 0.47005(9)
H1 H 0.4103 0.3861 0.4876
C2 C 0.6043(2) 0.41445(12) 0.48373(9)
H2 H 0.6353 0.3864 0.5111
C3 C 0.6905(2) 0.45554(12) 0.45702(9)
H3 H 0.7813 0.4573 0.4664
C4 C 0.6430(2) 0.49451(11) 0.41607(9)
C5 C 0.7392(2) 0.53357(12) 0.38256(9)
H4 H 0.8074 0.5538 0.4054
H5 H 0.7845 0.5015 0.3590
C6 C 0.6562(2) 0.64634(12) 0.38058(9)
H6 H 0.7399 0.6649 0.3946
H7 H 0.5961 0.6368 0.4101
C7 C 0.5934(2) 0.69635(12) 0.34413(10)
H8 H 0.6445 0.6981 0.3113
H9 H 0.5950 0.7419 0.3600
C8 C 0.4134(2) 0.68878(12) 0.26082(9)
H10 H 0.4204 0.7380 0.2549
H11 H 0.4893 0.6668 0.2434
C9 C 0.2865(2) 0.66325(11) 0.23708(9)
C10 C 0.2711(2) 0.66904(11) 0.18336(9)
H12 H 0.3415 0.6864 0.1629
C11 C 0.1543(2) 0.64980(11) 0.15971(9)
H13 H 0.1440 0.6551 0.1232
C12 C 0.0519(2) 0.62267(11) 0.18902(9)
H14 H -0.0285 0.6100 0.1726
C13 C 0.0667(2) 0.61410(10) 0.24225(9)
C14 C 0.1839(2) 0.63498(10) 0.26604(9)
H15 H 0.1939 0.6298 0.3025
C15 C -0.0414(2) 0.58268(11) 0.27395(9)
H16 H -0.1276 0.6008 0.2622
H17 H -0.0295 0.5956 0.3108
C16 C 0.1205(2) 0.46800(11) 0.29084(8)
H18 H 0.1424 0.4219 0.2788
H19 H 0.1853 0.4997 0.2754
C17 C 0.1299(2) 0.47087(12) 0.34957(9)
H20 H 0.0951 0.5144 0.3626
H21 H 0.0778 0.4338 0.3653
C18 C 0.2845(2) 0.46244(12) 0.41780(8)
H22 H 0.2362 0.4235 0.4327
H23 H 0.2482 0.5042 0.4334
C19 C 0.4295(2) 0.45661(11) 0.43037(8)
C20 C -0.0118(4) 0.69732(16) 0.48861(11)
F1 F 0.0475(3) 0.69222(12) 0.53392(7)
F2 F -0.0064(3) 0.76191(9) 0.47352(8)
F3 F -0.1387(2) 0.68132(12) 0.49531(8)
O3 O 0.19734(18) 0.66745(11) 0.43686(8)
O4 O -0.01315(18) 0.65669(9) 0.39404(7)
O5 O 0.04976(19) 0.57684(9) 0.46144(8)
S3 S 0.06312(6) 0.64329(3) 0.44001(2)
Ag1A Ag 0.048448(16) 0.960901(8) 0.324413(6)
N1A N -0.01414(18) 1.00477(9) 0.40313(7)
O1A O -0.18184(15) 0.91437(8) 0.35205(6)
O2A O 0.23353(15) 1.03601(8) 0.36280(6)
S1A S 0.07784(5) 0.82792(3) 0.33020(2)
S2A S 0.54468(5) 1.00983(3) 0.26915(2)
C1A C 0.0286(2) 1.08548(12) 0.47005(9)
H1A H 0.0897 1.1139 0.4876
C2A C -0.1043(2) 1.08555(12) 0.48373(9)
H2A H -0.1353 1.1136 0.5111
C3A C -0.1905(2) 1.04446(12) 0.45702(9)
H3A H -0.2813 1.0427 0.4664
C4A C -0.1430(2) 1.00549(11) 0.41607(9)
C5A C -0.2392(2) 0.96643(12) 0.38256(9)
H4A H -0.3074 0.9462 0.4054
H5A H -0.2845 0.9985 0.3590
C6A C -0.1562(2) 0.85366(12) 0.38058(9)
H6A H -0.2399 0.8351 0.3946
H7A H -0.0961 0.8632 0.4101
C7A C -0.0934(2) 0.80365(12) 0.34413(10)
H8A H -0.1445 0.8019 0.3113
H9A H -0.0950 0.7581 0.3600
C8A C 0.0866(2) 0.81122(12) 0.26082(9)
H10A H 0.0796 0.7620 0.2549
H11A H 0.0107 0.8332 0.2434
C9A C 0.2135(2) 0.83675(11) 0.23708(9)
C10A C 0.2289(2) 0.83096(11) 0.18336(9)
H12A H 0.1585 0.8136 0.1629
C11A C 0.3457(2) 0.85020(11) 0.15971(9)
H13A H 0.3560 0.8449 0.1232
C12A C 0.4481(2) 0.87733(11) 0.18902(9)
H14A H 0.5285 0.8900 0.1726
C13A C 0.4333(2) 0.88590(10) 0.24225(9)
C14A C 0.3161(2) 0.86502(10) 0.26604(9)
H15A H 0.3061 0.8702 0.3025
C15A C 0.5414(2) 0.91732(11) 0.27395(9)
H16A H 0.6276 0.8992 0.2622
H17A H 0.5295 0.9044 0.3108
C16A C 0.3795(2) 1.03200(11) 0.29084(8)
H18A H 0.3576 1.0781 0.2788
H19A H 0.3147 1.0003 0.2754
C17A C 0.3701(2) 1.02913(12) 0.34957(9)
H20A H 0.4049 0.9856 0.3626
H21A H 0.4222 1.0662 0.3653
C18A C 0.2155(2) 1.03756(12) 0.41780(8)
H22A H 0.2638 1.0765 0.4327
H23A H 0.2518 0.9958 0.4334
C19A C 0.0705(2) 1.04339(11) 0.43037(8)
C20A C 0.5118(4) 0.80268(16) 0.48861(11)
F1A F 0.4525(3) 0.80778(12) 0.53392(7)
F2A F 0.5064(3) 0.73809(9) 0.47352(8)
F3A F 0.6387(2) 0.81868(12) 0.49531(8)
O3A O 0.30266(18) 0.83255(11) 0.43686(8)
O4A O 0.51315(18) 0.84331(9) 0.39404(7)
O5A O 0.45024(19) 0.92316(9) 0.46144(8)
S3A S 0.43688(6) 0.85671(3) 0.44001(2)
Ag1B Ag 0.548448(16) 1.039099(8) 0.175587(6)
Ag1C Ag -0.048448(16) 0.460901(8) 0.175587(6)
S2B S 0.04468(5) 0.99017(3) 0.23085(2)
S2C S 0.45532(5) 0.50983(3) 0.23085(2)
C21 C 0.1867(5) 0.2557(3) 0.36623(19)
F4 F 0.0629(3) 0.2744(2) 0.35755(16)
O6 O 0.2614(17) 0.3144(9) 0.2840(7)
O7 O 0.2188(19) 0.1951(9) 0.2769(7)
F5 F 0.2409(4) 0.3017(2) 0.39754(15)
F6A F 0.1808(4) 0.1986(2) 0.39264(15)
S4A S 0.21977(10) 0.25207(10) 0.30630(4)
O8A O 0.0894(4) 0.2656(2) 0.32518(19)
F6 F 0.3192(4) 0.3014(2) 0.39264(15)
S4 S 0.28023(10) 0.24793(10) 0.30630(4)
O8 O 0.4106(4) 0.2344(2) 0.32518(19)
C21A C 0.3133(5) 0.2443(3) 0.36623(19)
F4A F 0.4371(3) 0.2256(2) 0.35755(16)
O6A O 0.2386(17) 0.1856(9) 0.2840(7)
O7A O 0.2812(19) 0.3049(9) 0.2769(7)
F5A F 0.2591(4) 0.1983(2) 0.39754(15)
loop_
_geom_bond_atom_site_label_1
_geom_bond_atom_site_label_2
_geom_bond_site_symmetry_1
_geom_bond_site_symmetry_2
Ag1 N1 1_555 1_555
Ag2 S1 1_555 1_555
N1 C4 1_555 1_555
O1 Ag1 1_555 1_555
O2 Ag1 1_555 1_555
S1 Ag1 1_555 1_555
S2 C15 1_555 1_555
C1 H1 1_555 1_555
C2 C1 1_555 1_555
H2 C2 1_555 1_555
C3 C2 1_555 1_555
H3 C3 1_555 1_555
C4 C3 1_555 1_555
C5 O1 1_555 1_555
H4 C5 1_555 1_555
H5 C5 1_555 1_555
C6 O1 1_555 1_555
H6 C6 1_555 1_555
H7 C6 1_555 1_555
C7 S1 1_555 1_555
H8 C7 1_555 1_555
H9 C7 1_555 1_555
C8 S1 1_555 1_555
H10 C8 1_555 1_555
H11 C8 1_555 1_555
C9 C8 1_555 1_555
C10 C9 1_555 1_555
H12 C10 1_555 1_555
C11 C10 1_555 1_555
H13 C11 1_555 1_555
C12 C11 1_555 1_555
H14 C12 1_555 1_555
C13 C12 1_555 1_555
C14 C9 1_555 1_555
H15 C14 1_555 1_555
C15 C13 1_555 1_555
H16 C15 1_555 1_555
H17 C15 1_555 1_555
C16 S2 1_555 1_555
H18 C16 1_555 1_555
H19 C16 1_555 1_555
C17 O2 1_555 1_555
H20 C17 1_555 1_555
H21 C17 1_555 1_555
C18 O2 1_555 1_555
H22 C18 1_555 1_555
H23 C18 1_555 1_555
C19 N1 1_555 1_555
C20 F1 1_555 1_555
F2 C20 1_555 1_555
F3 C20 1_555 1_555
O3 Ag2 1_555 1_555
O4 S3 1_555 1_555
O5 S3 1_555 1_555
S3 C20 1_555 1_555
C21 F4 1_555 1_555
O6 S4A 1_555 1_555
O7 S4A 1_555 1_555
F5 C21 1_555 1_555
F6 C21A 1_555 1_555
S4 O8 1_555 1_555
Ag1A N1A 1_555 1_555
N1A C4A 1_555 1_555
O1A Ag1A 1_555 1_555
O2A Ag1A 1_555 1_555
S1A Ag2 1_555 1_555
S2A C15A 1_555 1_555
C1A H1A 1_555 1_555
C2A C1A 1_555 1_555
H2A C2A 1_555 1_555
C3A C2A 1_555 1_555
H3A C3A 1_555 1_555
C4A C3A 1_555 1_555
C5A O1A 1_555 1_555
H4A C5A 1_555 1_555
H5A C5A 1_555 1_555
C6A O1A 1_555 1_555
H6A C6A 1_555 1_555
H7A C6A 1_555 1_555
C7A S1A 1_555 1_555
H8A C7A 1_555 1_555
H9A C7A 1_555 1_555
C8A S1A 1_555 1_555
H10A C8A 1_555 1_555
H11A C8A 1_555 1_555
C9A C8A 1_555 1_555
C10A C9A 1_555 1_555
H12A C10A 1_555 1_555
C11A C10A 1_555 1_555
H13A C11A 1_555 1_555
C12A C11A 1_555 1_555
H14A C12A 1_555 1_555
C13A C12A 1_555 1_555
C14A C9A 1_555 1_555
H15A C14A 1_555 1_555
C15A C13A 1_555 1_555
H16A C15A 1_555 1_555
H17A C15A 1_555 1_555
C16A S2A 1_555 1_555
H18A C16A 1_555 1_555
H19A C16A 1_555 1_555
C17A O2A 1_555 1_555
H20A C17A 1_555 1_555
H21A C17A 1_555 1_555
C18A O2A 1_555 1_555
H22A C18A 1_555 1_555
H23A C18A 1_555 1_555
C19A N1A 1_555 1_555
C20A F1A 1_555 1_555
F2A C20A 1_555 1_555
F3A C20A 1_555 1_555
O3A Ag2 1_555 1_555
O4A S3A 1_555 1_555
O5A S3A 1_555 1_555
S3A C20A 1_555 1_555
Ag1B S2A 1_555 1_555
Ag1C S2 1_555 1_555
S2B Ag1A 1_555 1_555
S2C Ag1 1_555 1_555
F6A C21 1_555 1_555
S4A C21 1_555 1_555
O8A S4A 1_555 1_555
C21A S4 1_555 1_555
F4A C21A 1_555 1_555
O6A S4 1_555 1_555
O7A S4 1_555 1_555
F5A C21A 1_555 1_555
C1 C19 1_555 1_555
C4 C5 1_555 1_555
C6 C7 1_555 1_555
C13 C14 1_555 1_555
C16 C17 1_555 1_555
C18 C19 1_555 1_555
O3 S3 1_555 1_555
Ag1A S1A 1_555 1_555
C1A C19A 1_555 1_555
C4A C5A 1_555 1_555
C6A C7A 1_555 1_555
C13A C14A 1_555 1_555
C16A C17A 1_555 1_555
C18A C19A 1_555 1_555
O3A S3A 1_555 1_555

#END
