
#######################################################################
#
#                 Cambridge Crystallographic Data Centre
#                                CCDC 
#
#######################################################################
#
# If this CIF has been generated from an entry in the Cambridge 
# Structural Database, then it will include bibliographic, chemical, 
# crystal, experimental, refinement or atomic coordinate data resulting 
# from the CCDC's data processing and validation procedures.
#
#######################################################################

data_QUJGAE
_symmetry_cell_setting           monoclinic
_symmetry_space_group_name_H-M   'C 2/c'
_symmetry_Int_Tables_number      15
_space_group_name_Hall           '-C 2yn'
loop_
_symmetry_equiv_pos_site_id
_symmetry_equiv_pos_as_xyz
1 x,y,z
2 -x,y,1/2-z
3 1/2+x,1/2+y,z
4 1/2-x,1/2+y,1/2-z
5 -x,-y,-z
6 x,-y,1/2+z
7 1/2-x,1/2-y,-z
8 1/2+x,1/2-y,1/2+z
_cell_length_a                   14.319(3)
_cell_length_b                   11.0272(16)
_cell_length_c                   16.0721(18)
_cell_angle_alpha                90
_cell_angle_beta                 109.962(17)
_cell_angle_gamma                90
_cell_volume                     2385.29
loop_
_atom_site_label
_atom_site_type_symbol
_atom_site_fract_x
_atom_site_fract_y
_atom_site_fract_z
Cd1 Cd 0.28808(7) 0.53433(8) -0.83803(5)
Cd2 Cd 0.5000 0.01665(11) -0.7500
N1 N 0.3534(7) 0.3618(10) -0.8587(5)
N2 N 0.4052(7) 0.1630(9) -0.8328(5)
C1 C 0.3413(9) 0.3666(12) -1.1728(6)
C2 C 0.3635(9) 0.3077(10) -1.0836(6)
C3 C 0.3478(9) 0.3737(11) -1.0157(6)
H1 H 0.3272 0.4542 -1.0241
C4 C 0.3635(9) 0.3170(11) -0.9357(6)
C5 C 0.3793(8) 0.2651(11) -0.8020(6)
H2 H 0.3788 0.2705 -0.7444
C6 C 0.3950(8) 0.1955(10) -0.9221(6)
C7 C 0.4094(8) 0.1275(10) -0.9892(6)
H3 H 0.4292 0.0468 -0.9801
C8 C 0.3936(9) 0.1825(11) -1.0696(6)
C9 C 0.4180(9) 0.1097(10) -1.1393(6)
O1 O 0.3123(7) 0.2967(8) -1.2409(4)
O2 O 0.3465(7) 0.4762(8) -1.1786(5)
O3 O 0.4928(7) 0.1389(8) -1.1576(5)
O4 O 0.3676(7) 0.0169(8) -1.1700(5)
O5 O 0.1947(9) 0.6404(12) -0.9570(6)
H4 H 0.1812 0.6379 -1.0149
H5 H 0.1530 0.6891 -0.9493
O6 O 0.4256(8) 0.6228(10) -0.8709(7)
H6 H 0.4405 0.6963 -0.8700
H7 H 0.4218 0.5910 -0.9186
Cd1E Cd 0.28808(7) 0.46567(8) -1.33803(5)
Cd1F Cd 0.21192(7) -0.03433(8) -1.16197(5)
Cd1B Cd 0.78808(7) 0.03433(8) -0.83803(5)
Cd1D Cd 0.71192(7) -0.53433(8) -1.16197(5)
Cd1A Cd 0.71192(7) -0.46567(8) -0.66197(5)
Cd2D Cd 0.5000 -0.01665(11) -1.2500
N1D N 0.6466(7) -0.3618(10) -1.1413(5)
N2A N 0.5948(7) 0.1630(9) -0.6672(5)
N2D N 0.5948(7) -0.1630(9) -1.1672(5)
C1D C 0.6587(9) -0.3666(12) -0.8272(6)
C2D C 0.6365(9) -0.3077(10) -0.9164(6)
C3D C 0.6522(9) -0.3737(11) -0.9843(6)
H1D H 0.6728 -0.4542 -0.9759
C4D C 0.6365(9) -0.3170(11) -1.0643(6)
C5D C 0.6207(8) -0.2651(11) -1.1980(6)
H2D H 0.6212 -0.2705 -1.2556
C6D C 0.6050(8) -0.1955(10) -1.0779(6)
C7D C 0.5906(8) -0.1275(10) -1.0108(6)
H3D H 0.5708 -0.0468 -1.0199
C8D C 0.6064(9) -0.1825(11) -0.9304(6)
C9D C 0.5820(9) -0.1097(10) -0.8607(6)
O1E O 0.3123(7) 0.7033(8) -0.7409(4)
O1D O 0.6877(7) -0.2967(8) -0.7591(4)
O1A O 0.6877(7) -0.7033(8) -1.2591(4)
O2E O 0.3465(7) 0.5238(8) -0.6786(5)
O2D O 0.6535(7) -0.4762(8) -0.8214(5)
O2A O 0.6535(7) -0.5238(8) -1.3214(5)
O3D O 0.5072(7) -0.1389(8) -0.8424(5)
O3E O 0.4928(7) -0.1389(8) -0.6576(5)
O4F O 0.1324(7) 0.4831(8) -0.8300(5)
O4D O 0.6324(7) -0.0169(8) -0.8300(5)
O4B O 0.8676(7) -0.4831(8) -1.1700(5)
O5D O 0.8053(9) -0.6404(12) -1.0430(6)
H4D H 0.8188 -0.6379 -0.9851
H5D H 0.8470 -0.6891 -1.0507
O6D O 0.5744(8) -0.6228(10) -1.1291(7)
H6D H 0.5595 -0.6963 -1.1300
H7D H 0.5782 -0.5910 -1.0814
O7 O 0.2764(13) -0.1220(14) -0.8740(8)
H8 H 0.2832 -0.1896 -0.8490
H9 H 0.2866 -0.0675 -0.8315
O8 O 0.091(4) -0.159(5) -0.934(3)
loop_
_geom_bond_atom_site_label_1
_geom_bond_atom_site_label_2
_geom_bond_site_symmetry_1
_geom_bond_site_symmetry_2
Cd1 N1 1_555 1_555
Cd2 N2 1_555 1_555
N1 C4 1_555 1_555
N2 C5 1_555 1_555
C1 C2 1_555 1_555
C2 C3 1_555 1_555
C3 H1 1_555 1_555
C4 C3 1_555 1_555
C5 N1 1_555 1_555
H2 C5 1_555 1_555
C6 N2 1_555 1_555
C7 C6 1_555 1_555
H3 C7 1_555 1_555
C8 C2 1_555 1_555
C9 C8 1_555 1_555
O1 C1 1_555 1_555
O2 C1 1_555 1_555
O3 C9 1_555 1_555
O4 C9 1_555 1_555
O5 Cd1 1_555 1_555
H4 O5 1_555 1_555
H5 O5 1_555 1_555
O6 Cd1 1_555 1_555
H6 O6 1_555 1_555
H7 O6 1_555 1_555
O7 H8 1_555 1_555
H9 O7 1_555 1_555
Cd1E O1 1_555 1_555
Cd1F O4 1_555 1_555
Cd1B O4D 1_555 1_555
Cd1D N1D 1_555 1_555
Cd1A O1D 1_555 1_555
Cd2D O3 1_555 1_555
N1D C4D 1_555 1_555
N2A Cd2 1_555 1_555
N2D Cd2D 1_555 1_555
C1D C2D 1_555 1_555
C2D C3D 1_555 1_555
C3D H1D 1_555 1_555
C4D C3D 1_555 1_555
C5D N1D 1_555 1_555
H2D C5D 1_555 1_555
C6D N2D 1_555 1_555
C7D C6D 1_555 1_555
H3D C7D 1_555 1_555
C8D C2D 1_555 1_555
C9D C8D 1_555 1_555
O1E Cd1 1_555 1_555
O1D C1D 1_555 1_555
O1A Cd1D 1_555 1_555
O2E Cd1 1_555 1_555
O2D Cd1A 1_555 1_555
O2A Cd1D 1_555 1_555
O3D Cd2 1_555 1_555
O3E Cd2 1_555 1_555
O4F Cd1 1_555 1_555
O4D C9D 1_555 1_555
O4B Cd1D 1_555 1_555
O5D Cd1D 1_555 1_555
H4D O5D 1_555 1_555
H5D O5D 1_555 1_555
O6D Cd1D 1_555 1_555
H6D O6D 1_555 1_555
H7D O6D 1_555 1_555
C4 C6 1_555 1_555
C7 C8 1_555 1_555
O2 Cd1E 1_555 1_555
N2D C5D 1_555 1_555
C1D O2D 1_555 1_555
C4D C6D 1_555 1_555
C7D C8D 1_555 1_555
C9D O3D 1_555 1_555

#END
