
#######################################################################
#
#                 Cambridge Crystallographic Data Centre
#                                CCDC 
#
#######################################################################
#
# If this CIF has been generated from an entry in the Cambridge 
# Structural Database, then it will include bibliographic, chemical, 
# crystal, experimental, refinement or atomic coordinate data resulting 
# from the CCDC's data processing and validation procedures.
#
#######################################################################

data_QUJHIN
_symmetry_cell_setting           monoclinic
_symmetry_space_group_name_H-M   'P 21/c'
_symmetry_Int_Tables_number      14
_space_group_name_Hall           '-P 2ybc'
loop_
_symmetry_equiv_pos_site_id
_symmetry_equiv_pos_as_xyz
1 x,y,z
2 -x,1/2+y,1/2-z
3 -x,-y,-z
4 x,1/2-y,1/2+z
_cell_length_a                   10.167(5)
_cell_length_b                   20.048(5)
_cell_length_c                   10.780(5)
_cell_angle_alpha                90
_cell_angle_beta                 116.306(5)
_cell_angle_gamma                90
_cell_volume                     1969.72
loop_
_atom_site_label
_atom_site_type_symbol
_atom_site_fract_x
_atom_site_fract_y
_atom_site_fract_z
Co1 Co 0.65673(2) 0.077423(11) 1.04506(2)
O1 O 0.55255(14) 0.02425(7) 0.87274(12)
O2 O 0.34846(14) -0.03610(7) 0.78498(12)
O3 O 0.72353(16) 0.16026(7) 0.93353(14)
N1 N 1.47205(16) 0.36071(7) 1.51463(14)
O4 O 0.79061(14) 0.15699(6) 1.15596(13)
C1 C 0.28185(18) 0.00358(9) 0.51770(16)
H1 H 0.2364 -0.0347 0.5285
C2 C 0.39601(18) 0.03231(8) 0.63296(16)
C3 C 1.35793(19) 0.34889(8) 1.39182(17)
H2 H 1.3600 0.3677 1.3138
N2 N -0.14545(16) 0.01837(7) 0.10037(14)
C4 C 0.43580(18) 0.00452(8) 0.77445(16)
C5 C 1.23678(19) 0.31052(8) 1.37290(17)
C6 C 0.79573(19) 0.18317(9) 1.05212(19)
C7 C 0.23512(18) 0.03131(9) 0.38726(16)
C8 C 0.89495(19) 0.24230(9) 1.07597(18)
C9 C -0.0141(2) -0.07783(9) 0.09007(19)
H3 H -0.0137 -0.1177 0.0463
C10 C 1.10981(19) 0.30369(9) 1.23488(17)
C11 C 1.2397(2) 0.28084(10) 1.49105(19)
H4 H 1.1622 0.2541 1.4846
C12 C 0.4655(2) 0.08855(9) 0.61685(19)
H5 H 0.5429 0.1075 0.6930
C13 C 0.3042(2) 0.08841(11) 0.3735(2)
H6 H 0.2728 0.1081 0.2869
C14 C -0.0227(2) 0.03813(10) 0.20993(16)
H7 H -0.0255 0.0785 0.2511
C15 C -0.13886(19) -0.03933(9) 0.04172(17)
H8 H -0.2219 -0.0541 -0.0349
C16 C 0.10702(19) 0.00294(9) 0.26572(16)
C17 C 1.01471(19) 0.24959(9) 1.20492(18)
H9 H 1.0317 0.2176 1.2727
C18 C 0.8704(2) 0.28915(10) 0.97362(18)
H10 H 0.7936 0.2836 0.8857
C19 C 0.9611(2) 0.34412(10) 1.00337(19)
H11 H 0.9425 0.3766 0.9360
C20 C 0.1108(2) -0.05699(10) 0.20415(18)
H12 H 0.1955 -0.0828 0.2387
C21 C 1.0794(2) 0.35159(9) 1.13216(18)
H13 H 1.1393 0.3890 1.1503
C22 C 1.3582(2) 0.29138(11) 1.61749(19)
H14 H 1.3621 0.2712 1.6967
C23 C 0.4194(2) 0.11660(11) 0.4870(2)
H15 H 0.4659 0.1545 0.4759
C24 C 1.4706(2) 0.33199(10) 1.62557(19)
H16 H 1.5488 0.3397 1.7118
Co1B Co 0.34327(2) -0.077423(11) 0.95494(2)
Co1C Co 1.65673(2) 0.422577(11) 1.54506(2)
Co1_2 Co -0.34327(2) 0.077423(11) 0.04506(2)
O2B O 0.65154(14) 0.03610(7) 1.21502(12)
N1C N 0.47205(16) 0.13929(7) 1.01463(14)
N2_2 N 0.85455(16) 0.01837(7) 1.10037(14)
loop_
_geom_bond_atom_site_label_1
_geom_bond_atom_site_label_2
_geom_bond_site_symmetry_1
_geom_bond_site_symmetry_2
Co1 O1 1_555 1_555
O1 C4 1_555 1_555
O2 C4 1_555 1_555
O3 Co1 1_555 1_555
N1 C3 1_555 1_555
O4 Co1 1_555 1_555
C1 H1 1_555 1_555
C2 C1 1_555 1_555
C3 H2 1_555 1_555
N2 C14 1_555 1_555
C4 C2 1_555 1_555
C5 C3 1_555 1_555
C6 O3 1_555 1_555
C7 C1 1_555 1_555
C8 C6 1_555 1_555
C9 H3 1_555 1_555
C10 C5 1_555 1_555
C11 C5 1_555 1_555
H4 C11 1_555 1_555
C12 C2 1_555 1_555
H5 C12 1_555 1_555
C13 C7 1_555 1_555
H6 C13 1_555 1_555
C14 H7 1_555 1_555
C15 N2 1_555 1_555
H8 C15 1_555 1_555
C16 C7 1_555 1_555
C17 C8 1_555 1_555
H9 C17 1_555 1_555
C18 C8 1_555 1_555
H10 C18 1_555 1_555
C19 C18 1_555 1_555
H11 C19 1_555 1_555
C20 C9 1_555 1_555
H12 C20 1_555 1_555
C21 C10 1_555 1_555
H13 C21 1_555 1_555
C22 C11 1_555 1_555
H14 C22 1_555 1_555
C23 C12 1_555 1_555
H15 C23 1_555 1_555
C24 N1 1_555 1_555
H16 C24 1_555 1_555
Co1B O2 1_555 1_555
Co1C N1 1_555 1_555
Co1_2 N2 1_555 1_555
O2B Co1 1_555 1_555
N1C Co1 1_555 1_555
N2_2 Co1 1_555 1_555
O4 C6 1_555 1_555
C9 C15 1_555 1_555
C10 C17 1_555 1_555
C13 C23 1_555 1_555
C14 C16 1_555 1_555
C16 C20 1_555 1_555
C19 C21 1_555 1_555
C22 C24 1_555 1_555

#END
