
#######################################################################
#
#                 Cambridge Crystallographic Data Centre
#                                CCDC 
#
#######################################################################
#
# If this CIF has been generated from an entry in the Cambridge 
# Structural Database, then it will include bibliographic, chemical, 
# crystal, experimental, refinement or atomic coordinate data resulting 
# from the CCDC's data processing and validation procedures.
#
#######################################################################

data_QUJHOT
_symmetry_cell_setting           triclinic
_symmetry_space_group_name_H-M   'P 1'
_symmetry_Int_Tables_number      1
_space_group_name_Hall           'P 1'
loop_
_symmetry_equiv_pos_site_id
_symmetry_equiv_pos_as_xyz
1 x,y,z
_cell_length_a                   7.9911(6)
_cell_length_b                   10.4006(8)
_cell_length_c                   12.3578(9)
_cell_angle_alpha                103.151(2)
_cell_angle_beta                 94.245(1)
_cell_angle_gamma                104.285(2)
_cell_volume                     959.96
loop_
_atom_site_label
_atom_site_type_symbol
_atom_site_fract_x
_atom_site_fract_y
_atom_site_fract_z
C1 C 1.0648(10) 0.1525(8) 1.4125(7)
H1 H 1.0936 0.0812 1.4365
C2 C 1.0482(11) 0.3716(8) 1.4506(6)
H2 H 1.0650 0.4563 1.5014
C3 C 0.9867(10) 0.3585(7) 1.3395(6)
H3 H 0.9584 0.4310 1.3173
C4 C 1.0054(8) 0.1299(7) 1.3020(6)
H4 H 0.9898 0.0440 1.2533
C5 C 0.9687(8) 0.2344(7) 1.2628(5)
C6 C 0.9046(10) 0.2080(7) 1.1402(6)
H5 H 0.7922 0.1401 1.1236
H6 H 0.9843 0.1676 1.0977
C7 C 0.8844(9) 0.3307(7) 1.0973(6)
H7 H 0.9936 0.4024 1.1162
H8 H 0.7958 0.3673 1.1328
C8 C 0.8321(12) 0.2857(8) 0.9693(6)
H9 H 0.9240 0.2533 0.9346
H10 H 0.7273 0.2097 0.9511
C9 C 0.7999(9) 0.3970(7) 0.9215(5)
C10 C 0.9281(9) 0.4731(8) 0.8734(6)
H11 H 1.0356 0.4540 0.8697
C11 C 0.6452(9) 0.4318(7) 0.9238(6)
H12 H 0.5559 0.3826 0.9546
C12 C 0.8936(7) 0.5788(7) 0.8308(6)
H13 H 0.9795 0.6278 0.7975
C13 C 0.6189(8) 0.5385(6) 0.8812(5)
H14 H 0.5127 0.5597 0.8841
C14 C 0.8102(8) 1.0155(7) 0.6990(5)
H15 H 0.9158 0.9929 0.6995
C15 C 0.5312(9) 0.9751(8) 0.7366(6)
H16 H 0.4385 0.9248 0.7642
C16 C 0.5094(9) 1.0824(8) 0.6969(6)
H17 H 0.4029 1.1034 0.6973
C17 C 0.7969(9) 1.1248(7) 0.6589(6)
H18 H 0.8921 1.1752 0.6335
C18 C 0.6431(10) 1.1600(7) 0.6561(6)
C19 C 0.6240(11) 1.2780(8) 0.6083(6)
H19 H 0.7350 1.3474 0.6235
H20 H 0.5400 1.3191 0.6454
C20 C 0.5646(9) 1.2323(6) 0.4830(5)
H21 H 0.4532 1.1633 0.4670
H22 H 0.6487 1.1922 0.4451
C21 C 0.5474(10) 1.3553(8) 0.4407(6)
H23 H 0.4699 1.3978 0.4839
H24 H 0.6609 1.4216 0.4559
C22 C 0.4808(8) 1.3275(7) 0.3184(5)
C23 C 0.4429(9) 1.4354(7) 0.2787(6)
H25 H 0.4567 1.5209 0.3275
C24 C 0.4578(10) 1.2052(8) 0.2401(6)
H26 H 0.4816 1.1306 0.2613
C25 C 0.3992(11) 1.1942(9) 0.1304(7)
H27 H 0.3856 1.1104 0.0791
C26 C 0.3851(9) 1.4119(8) 0.1661(6)
H28 H 0.3618 1.4843 0.1410
C27 C 1.6519(8) 0.8403(6) 0.0159(5)
C28 C 1.5166(7) 0.8230(6) 0.0950(5)
C29 C 1.3440(9) 0.7698(9) 0.0574(6)
H29 H 1.3061 0.7464 -0.0193
C30 C 1.5720(8) 0.8563(7) 0.2100(5)
H30 H 1.6902 0.8905 0.2373
C31 C 1.2238(8) 0.7499(9) 0.1300(5)
H31 H 1.1062 0.7131 0.1016
C32 C 1.4505(8) 0.8382(7) 0.2835(5)
H32 H 1.4887 0.8635 0.3602
C33 C 1.2753(8) 0.7840(6) 0.2462(5)
C34 C 1.1455(7) 0.7636(6) 0.3258(5)
C35 C 0.9696(8) 0.7430(7) 0.2921(5)
H33 H 0.9314 0.7409 0.2186
C36 C 1.1972(8) 0.7632(9) 0.4347(6)
H34 H 1.3143 0.7748 0.4588
C37 C 0.8492(8) 0.7256(7) 0.3673(5)
H35 H 0.7317 0.7118 0.3428
C38 C 1.0749(8) 0.7455(8) 0.5093(6)
H36 H 1.1119 0.7453 0.5824
C39 C 0.8999(7) 0.7282(6) 0.4760(5)
C40 C 0.7677(7) 0.7139(6) 0.5565(5)
H37 H 0.453(8) 0.630(7) 0.632(6)
H38 H 0.373(7) 0.564(6) 0.691(5)
H39 H 1.111(9) 0.911(7) 0.904(6)
H40 H 0.983(9) 0.918(7) 0.958(6)
N1 N 1.0844(9) 0.2711(7) 1.4890(5)
N2 N 0.7452(6) 0.6121(5) 0.8356(4)
N3 N 0.6799(6) 0.9391(5) 0.7377(4)
N4 N 0.3607(9) 1.2937(8) 0.0919(5)
O1 O 1.5865(6) 0.8233(5) -0.0860(4)
O2 O 1.8068(5) 0.8668(5) 0.0516(4)
O3 O 0.6126(5) 0.6974(5) 0.5208(4)
O4 O 0.8270(5) 0.7263(5) 0.6567(3)
O5 O 0.4083(6) 0.6438(5) 0.6821(4)
O6 O 1.0368(10) 0.9344(7) 0.9073(6)
Cu1 Cu 0.70073(8) 0.77237(7) 0.78371(6)
O1_2 O 0.5865(6) 0.8233(5) 0.9140(4)
Cu1_2 Cu 1.70073(8) 0.77237(7) -0.21629(6)
H41 H 0.167(8) 0.320(7) 0.654(6)
H42 H 0.249(8) 0.332(6) 0.751(6)
O7 O 0.2471(8) 0.3761(6) 0.7141(5)
H43 H 0.123(8) 0.201(7) 0.884(6)
H44 H 0.247(8) 0.232(7) 0.938(6)
O8 O 0.2069(9) 0.1958(8) 0.8629(5)
loop_
_geom_bond_atom_site_label_1
_geom_bond_atom_site_label_2
_geom_bond_site_symmetry_1
_geom_bond_site_symmetry_2
C1 H1 1_555 1_555
C2 H2 1_555 1_555
C3 C2 1_555 1_555
H3 C3 1_555 1_555
C4 C1 1_555 1_555
H4 C4 1_555 1_555
C5 C3 1_555 1_555
C6 C5 1_555 1_555
H5 C6 1_555 1_555
H6 C6 1_555 1_555
C7 C6 1_555 1_555
H7 C7 1_555 1_555
H8 C7 1_555 1_555
C8 C7 1_555 1_555
H9 C8 1_555 1_555
H10 C8 1_555 1_555
C9 C8 1_555 1_555
C10 C9 1_555 1_555
H11 C10 1_555 1_555
C11 C9 1_555 1_555
H12 C11 1_555 1_555
C12 C10 1_555 1_555
H13 C12 1_555 1_555
C13 C11 1_555 1_555
H14 C13 1_555 1_555
C14 H15 1_555 1_555
C15 H16 1_555 1_555
C16 C15 1_555 1_555
H17 C16 1_555 1_555
C17 C14 1_555 1_555
H18 C17 1_555 1_555
C18 C16 1_555 1_555
C19 C18 1_555 1_555
H19 C19 1_555 1_555
H20 C19 1_555 1_555
C20 C19 1_555 1_555
H21 C20 1_555 1_555
H22 C20 1_555 1_555
C21 C20 1_555 1_555
H23 C21 1_555 1_555
H24 C21 1_555 1_555
C22 C21 1_555 1_555
C23 C22 1_555 1_555
H25 C23 1_555 1_555
C24 C22 1_555 1_555
H26 C24 1_555 1_555
C25 C24 1_555 1_555
H27 C25 1_555 1_555
C26 C23 1_555 1_555
H28 C26 1_555 1_555
C27 C28 1_555 1_555
C28 C29 1_555 1_555
C29 H29 1_555 1_555
C30 C28 1_555 1_555
H30 C30 1_555 1_555
C31 C29 1_555 1_555
H31 C31 1_555 1_555
C32 C30 1_555 1_555
H32 C32 1_555 1_555
C33 C31 1_555 1_555
C34 C33 1_555 1_555
C35 C34 1_555 1_555
H33 C35 1_555 1_555
C36 C34 1_555 1_555
H34 C36 1_555 1_555
C37 C35 1_555 1_555
H35 C37 1_555 1_555
C38 C36 1_555 1_555
H36 C38 1_555 1_555
C39 C37 1_555 1_555
C40 C39 1_555 1_555
H37 O5 1_555 1_555
H38 O5 1_555 1_555
H39 O6 1_555 1_555
H40 O6 1_555 1_555
H41 O7 1_555 1_555
H42 O7 1_555 1_555
H43 O8 1_555 1_555
H44 O8 1_555 1_555
N1 C1 1_555 1_555
N2 C12 1_555 1_555
N3 C14 1_555 1_555
N4 C25 1_555 1_555
O1 C27 1_555 1_555
O2 C27 1_555 1_555
O3 C40 1_555 1_555
O4 C40 1_555 1_555
O5 Cu1 1_555 1_555
O6 Cu1 1_555 1_555
Cu1 N2 1_555 1_555
O1_2 Cu1 1_555 1_555
Cu1_2 O1 1_555 1_555
C2 N1 1_555 1_555
C4 C5 1_555 1_555
C13 N2 1_555 1_555
C15 N3 1_555 1_555
C17 C18 1_555 1_555
C26 N4 1_555 1_555
C32 C33 1_555 1_555
C38 C39 1_555 1_555
N3 Cu1 1_555 1_555
O4 Cu1 1_555 1_555

#END
