
#######################################################################
#
#                 Cambridge Crystallographic Data Centre
#                                CCDC 
#
#######################################################################
#
# If this CIF has been generated from an entry in the Cambridge 
# Structural Database, then it will include bibliographic, chemical, 
# crystal, experimental, refinement or atomic coordinate data resulting 
# from the CCDC's data processing and validation procedures.
#
#######################################################################

data_QUJJUB01
_symmetry_cell_setting           monoclinic
_symmetry_space_group_name_H-M   'C 2/c'
_symmetry_Int_Tables_number      15
_space_group_name_Hall           '-C 2yn'
loop_
_symmetry_equiv_pos_site_id
_symmetry_equiv_pos_as_xyz
1 x,y,z
2 -x,y,1/2-z
3 1/2+x,1/2+y,z
4 1/2-x,1/2+y,1/2-z
5 -x,-y,-z
6 x,-y,1/2+z
7 1/2-x,1/2-y,-z
8 1/2+x,1/2-y,1/2+z
_cell_length_a                   8.423(3)
_cell_length_b                   16.898(6)
_cell_length_c                   7.075(3)
_cell_angle_alpha                90
_cell_angle_beta                 107.900(7)
_cell_angle_gamma                90
_cell_volume                     958.254
loop_
_atom_site_label
_atom_site_type_symbol
_atom_site_fract_x
_atom_site_fract_y
_atom_site_fract_z
Mn1 Mn 0.5000 0.191111(13) 0.7500
O1 O 0.74028(10) 0.38696(5) 0.66169(14)
O2 O 0.26467(12) 0.31519(5) 0.33763(16)
O3 O 0.51392(11) 0.28446(5) 0.54440(14)
O4 O 0.50075(11) 0.10251(6) 0.52295(13)
C1 C 0.45483(14) 0.41968(7) 0.47232(16)
C2 C 0.61838(14) 0.44222(7) 0.58145(17)
C3 C 0.33848(14) 0.47858(7) 0.39179(17)
H1 H 0.2302 0.4646 0.3189
C4 C 0.40527(15) 0.33422(7) 0.44810(17)
H2 H 0.4167 0.1021 0.4262
H3 H 0.5806 0.1039 0.4748
H4 H 0.6986 0.3507 0.6461
Mn1B Mn 1.0000 0.691111(13) 0.7500
Mn1D Mn 0.5000 0.808889(13) 0.2500
Mn1F Mn 0.0000 0.308889(13) 0.2500
O1D O 0.25972(10) 0.61304(5) 0.33831(14)
O2D O 0.73533(12) 0.68481(5) 0.66237(16)
O2F O 0.23533(12) 0.18481(5) 0.66237(16)
O2G O 0.76467(12) 0.18481(5) 0.83763(16)
O3D O 0.48608(11) 0.71554(5) 0.45560(14)
O3A O 0.48608(11) 0.28446(5) 0.95560(14)
O4A O 0.49925(11) 0.10251(6) 0.97705(13)
C1D C 0.54517(14) 0.58032(7) 0.52768(16)
C2D C 0.38162(14) 0.55778(7) 0.41855(17)
C3D C 0.66152(14) 0.52142(7) 0.60821(17)
H1D H 0.7698 0.5354 0.6811
C4D C 0.59473(15) 0.66578(7) 0.55190(17)
H2A H 0.5833 0.1021 1.0738
H3A H 0.4194 0.1039 1.0252
H4D H 0.3014 0.6493 0.3539
loop_
_geom_bond_atom_site_label_1
_geom_bond_atom_site_label_2
_geom_bond_site_symmetry_1
_geom_bond_site_symmetry_2
Mn1 O3 1_555 1_555
O1 C2 1_555 1_555
O2 C4 1_555 1_555
O3 C4 1_555 1_555
O4 Mn1 1_555 1_555
C1 C2 1_555 1_555
C2 C3D 1_555 1_555
C3 C1 1_555 1_555
H1 C3 1_555 1_555
C4 C1 1_555 1_555
H2 O4 1_555 1_555
H3 O4 1_555 1_555
H4 O1 1_555 1_555
Mn1B O2D 1_555 1_555
Mn1D O3D 1_555 1_555
Mn1F O2 1_555 1_555
O1D C2D 1_555 1_555
O2D C4D 1_555 1_555
O2F Mn1 1_555 1_555
O2G Mn1 1_555 1_555
O3D C4D 1_555 1_555
O3A Mn1 1_555 1_555
O4A Mn1 1_555 1_555
C1D C2D 1_555 1_555
C2D C3 1_555 1_555
C3D C1D 1_555 1_555
H1D C3D 1_555 1_555
C4D C1D 1_555 1_555
H2A O4A 1_555 1_555
H3A O4A 1_555 1_555
H4D O1D 1_555 1_555

#END
