
#######################################################################
#
#                 Cambridge Crystallographic Data Centre
#                                CCDC 
#
#######################################################################
#
# If this CIF has been generated from an entry in the Cambridge 
# Structural Database, then it will include bibliographic, chemical, 
# crystal, experimental, refinement or atomic coordinate data resulting 
# from the CCDC's data processing and validation procedures.
#
#######################################################################

data_QUJJIQ
_symmetry_cell_setting           monoclinic
_symmetry_space_group_name_H-M   'P 21'
_symmetry_Int_Tables_number      4
_space_group_name_Hall           'P 2yb'
loop_
_symmetry_equiv_pos_site_id
_symmetry_equiv_pos_as_xyz
1 x,y,z
2 -x,1/2+y,-z
_cell_length_a                   9.8809(4)
_cell_length_b                   23.8659(8)
_cell_length_c                   12.4131(4)
_cell_angle_alpha                90
_cell_angle_beta                 104.868(4)
_cell_angle_gamma                90
_cell_volume                     2829.21
loop_
_atom_site_label
_atom_site_type_symbol
_atom_site_fract_x
_atom_site_fract_y
_atom_site_fract_z
Cr1 Cr -0.23034(7) 0.22184(3) 0.67540(5)
Na1 Na 0.26382(18) 0.04527(7) 1.17792(13)
C1 C 0.0701(5) 0.11079(18) 0.8361(4)
Br1 Br 0.13551(6) 0.06873(2) 0.73056(4)
C2 C -0.0258(4) 0.15236(17) 0.7998(4)
O1 O -0.0774(3) 0.16628(13) 0.6977(2)
C3 C -0.0810(4) 0.18568(17) 0.8833(4)
O2 O -0.1817(3) 0.21947(12) 0.8395(2)
C4 C -0.0240(4) 0.17829(18) 0.9953(4)
Br2 Br -0.08636(5) 0.22320(2) 1.09780(4)
C5 C 0.0728(5) 0.13475(19) 1.0371(4)
O3 O 0.1182(4) 0.12261(14) 1.1355(3)
C6 C 0.1246(4) 0.09834(17) 0.9505(3)
O4 O 0.2097(3) 0.06134(13) 0.9879(2)
C7 C -0.3911(4) 0.37216(18) 0.7349(4)
Br3 Br -0.58602(5) 0.36553(2) 0.72012(5)
C8 C -0.3202(4) 0.32739(18) 0.7078(4)
O5 O -0.3733(3) 0.27906(12) 0.6712(3)
C9 C -0.1630(4) 0.33188(18) 0.7190(4)
O6 O -0.1079(3) 0.28758(12) 0.6875(2)
C10 C -0.0939(4) 0.37956(18) 0.7609(4)
Br4 Br 0.10304(5) 0.38380(2) 0.78093(5)
C11 C -0.1629(5) 0.42690(18) 0.7910(4)
O7 O -0.1063(3) 0.47161(13) 0.8255(3)
C12 C -0.3236(5) 0.42170(18) 0.7805(4)
O8 O -0.3805(3) 0.46113(13) 0.8142(3)
C13 C -0.5007(5) 0.09915(19) 0.5204(4)
Br5 Br -0.56318(6) 0.05669(2) 0.62699(4)
C14 C -0.4120(4) 0.14304(17) 0.5544(4)
O9 O -0.3660(3) 0.15967(13) 0.6561(2)
C15 C -0.3609(4) 0.17719(18) 0.4696(4)
O10 O -0.2731(3) 0.21613(12) 0.5121(2)
C16 C -0.4078(5) 0.16468(19) 0.3582(4)
Br6 Br -0.34428(6) 0.20596(2) 0.25148(4)
C17 C -0.5038(5) 0.12045(18) 0.3187(4)
O11 O -0.5486(3) 0.10724(14) 0.2214(3)
C18 C -0.5565(5) 0.08539(18) 0.4064(4)
O12 O -0.6449(3) 0.04945(13) 0.3704(2)
Na1_2 Na -0.73618(18) 0.04527(7) 0.17792(13)
Na1A Na -0.26382(18) 0.54527(7) 0.82208(13)
O7A O 0.1063(3) -0.02839(13) 1.1745(3)
O8A O 0.3805(3) -0.03887(13) 1.1858(3)
O11_2 O 0.4514(3) 0.10724(14) 1.2214(3)
O12_2 O 0.3551(3) 0.04945(13) 1.3704(2)
P1 P 0.15986(13) 0.23272(6) 0.47941(10)
C19 C 0.1927(5) 0.2269(2) 0.6261(4)
H1 H 0.1994 0.2644 0.6591
H2 H 0.2809 0.2068 0.6556
H3 H 0.1159 0.2063 0.6447
C20 C 0.1380(6) 0.1633(2) 0.4197(4)
H4 H 0.1334 0.1660 0.3392
H5 H 0.2210 0.1404 0.4553
C21 C 0.0055(6) 0.1334(2) 0.4337(4)
H6 H 0.0020 0.1361 0.5125
H7 H -0.0783 0.1526 0.3875
C22 C 0.0017(6) 0.0713(2) 0.3997(5)
H8 H 0.0004 0.0686 0.3199
H9 H 0.0874 0.0524 0.4435
C23 C -0.1245(7) 0.0423(2) 0.4189(5)
H10 H -0.1193 0.0421 0.4988
H11 H -0.1273 0.0036 0.3919
H12 H -0.2093 0.0621 0.3787
C24 C 0.0037(5) 0.2721(2) 0.4235(4)
H13 H -0.0185 0.2698 0.3412
H14 H -0.0740 0.2539 0.4472
C25 C 0.0072(5) 0.3335(2) 0.4561(4)
H15 H 0.0384 0.3368 0.5383
H16 H 0.0762 0.3534 0.4245
C26 C -0.1346(6) 0.3613(2) 0.4151(5)
H17 H -0.2029 0.3415 0.4475
H18 H -0.1662 0.3573 0.3331
C27 C -0.1334(7) 0.4228(2) 0.4451(6)
H19 H -0.0956 0.4273 0.5257
H20 H -0.2292 0.4375 0.4231
H21 H -0.0748 0.4434 0.4059
C28 C 0.3097(6) 0.2677(3) 0.4518(5)
H22 H 0.3251 0.3032 0.4943
H23 H 0.3933 0.2439 0.4804
C29 C 0.2984(7) 0.2807(3) 0.3309(5)
H24 H 0.2090 0.3004 0.2982
H25 H 0.2986 0.2453 0.2892
C30 C 0.4236(9) 0.3182(4) 0.3203(8)
H26 H 0.5119 0.2978 0.3528
H27 H 0.4172 0.3240 0.2402
C31 C 0.4318(9) 0.3765(3) 0.3778(8)
H28 H 0.3409 0.3954 0.3534
H29 H 0.5038 0.3994 0.3574
H30 H 0.4557 0.3716 0.4589
P2 P 0.65602(14) 0.03715(6) 0.98450(12)
C32 C 0.6866(7) 0.0380(3) 1.1326(5)
H31 H 0.7816 0.0516 1.1663
H32 H 0.6762 0.0000 1.1593
H33 H 0.6186 0.0628 1.1535
C33 C 0.4983(6) -0.0026(2) 0.9250(5)
H34 H 0.4194 0.0152 0.9479
H35 H 0.4776 -0.0002 0.8428
C34 C 0.5051(6) -0.0647(2) 0.9585(5)
H36 H 0.5797 -0.0836 0.9321
H37 H 0.5283 -0.0678 1.0408
C35 C 0.3656(7) -0.0931(2) 0.9083(6)
H38 H 0.3430 -0.0896 0.8261
H39 H 0.2913 -0.0736 0.9342
C36 C 0.3656(8) -0.1549(3) 0.9392(6)
H40 H 0.4411 -0.1743 0.9161
H41 H 0.2755 -0.1717 0.9013
H42 H 0.3805 -0.1585 1.0200
C37 C 0.8069(6) 0.0036(3) 0.9567(6)
H43 H 0.8886 0.0283 0.9859
H44 H 0.8240 -0.0315 1.0007
C38 C 0.8040(8) -0.0101(3) 0.8439(6)
H45 H 0.8038 0.0249 0.8011
H46 H 0.7164 -0.0306 0.8097
C39 C 0.9324(8) -0.0470(3) 0.8354(7)
H47 H 0.9314 -0.0497 0.7556
H48 H 1.0186 -0.0264 0.8732
C40 C 0.9442(10) -0.1050(4) 0.8818(7)
H49 H 0.9637 -0.1033 0.9632
H50 H 1.0205 -0.1248 0.8608
H51 H 0.8560 -0.1251 0.8519
C41 C 0.6321(5) 0.1077(2) 0.9318(4)
H52 H 0.7141 0.1303 0.9706
H53 H 0.6299 0.1070 0.8516
C42 C 0.5006(5) 0.1363(2) 0.9451(4)
H54 H 0.4179 0.1167 0.8984
H55 H 0.4967 0.1331 1.0238
C43 C 0.4931(6) 0.1975(2) 0.9128(4)
H56 H 0.4926 0.2008 0.8332
H57 H 0.5776 0.2170 0.9573
C44 C 0.3627(6) 0.2262(2) 0.9317(5)
H58 H 0.2787 0.2068 0.8886
H59 H 0.3604 0.2653 0.9073
H60 H 0.3653 0.2249 1.0111
loop_
_geom_bond_atom_site_label_1
_geom_bond_atom_site_label_2
_geom_bond_site_symmetry_1
_geom_bond_site_symmetry_2
Cr1 O1 1_555 1_555
Na1 O3 1_555 1_555
C1 Br1 1_555 1_555
C2 C1 1_555 1_555
O1 C2 1_555 1_555
C3 C2 1_555 1_555
O2 Cr1 1_555 1_555
C4 C3 1_555 1_555
Br2 C4 1_555 1_555
C5 C4 1_555 1_555
O3 C5 1_555 1_555
C6 C1 1_555 1_555
O4 Na1 1_555 1_555
C7 Br3 1_555 1_555
C8 C7 1_555 1_555
O5 Cr1 1_555 1_555
C9 C8 1_555 1_555
O6 Cr1 1_555 1_555
C10 C9 1_555 1_555
Br4 C10 1_555 1_555
C11 C10 1_555 1_555
O7 C11 1_555 1_555
C12 C7 1_555 1_555
O8 C12 1_555 1_555
C13 Br5 1_555 1_555
C14 C13 1_555 1_555
O9 Cr1 1_555 1_555
C15 C14 1_555 1_555
O10 Cr1 1_555 1_555
C16 C15 1_555 1_555
Br6 C16 1_555 1_555
C17 C16 1_555 1_555
O11 C17 1_555 1_555
C18 C13 1_555 1_555
O12 C18 1_555 1_555
P1 C19 1_555 1_555
C19 H1 1_555 1_555
H2 C19 1_555 1_555
H3 C19 1_555 1_555
C20 P1 1_555 1_555
H4 C20 1_555 1_555
H5 C20 1_555 1_555
C21 C20 1_555 1_555
H6 C21 1_555 1_555
H7 C21 1_555 1_555
C22 C21 1_555 1_555
H8 C22 1_555 1_555
H9 C22 1_555 1_555
C23 C22 1_555 1_555
H10 C23 1_555 1_555
H11 C23 1_555 1_555
H12 C23 1_555 1_555
C24 P1 1_555 1_555
H13 C24 1_555 1_555
H14 C24 1_555 1_555
C25 C24 1_555 1_555
H15 C25 1_555 1_555
H16 C25 1_555 1_555
C26 C25 1_555 1_555
H17 C26 1_555 1_555
H18 C26 1_555 1_555
C27 C26 1_555 1_555
H19 C27 1_555 1_555
H20 C27 1_555 1_555
H21 C27 1_555 1_555
C28 P1 1_555 1_555
H22 C28 1_555 1_555
H23 C28 1_555 1_555
C29 C28 1_555 1_555
H24 C29 1_555 1_555
H25 C29 1_555 1_555
C30 C29 1_555 1_555
H26 C30 1_555 1_555
H27 C30 1_555 1_555
C31 C30 1_555 1_555
H28 C31 1_555 1_555
H29 C31 1_555 1_555
H30 C31 1_555 1_555
P2 C32 1_555 1_555
C32 H31 1_555 1_555
H32 C32 1_555 1_555
H33 C32 1_555 1_555
C33 P2 1_555 1_555
H34 C33 1_555 1_555
H35 C33 1_555 1_555
C34 C33 1_555 1_555
H36 C34 1_555 1_555
H37 C34 1_555 1_555
C35 C34 1_555 1_555
H38 C35 1_555 1_555
H39 C35 1_555 1_555
C36 C35 1_555 1_555
H40 C36 1_555 1_555
H41 C36 1_555 1_555
H42 C36 1_555 1_555
C37 P2 1_555 1_555
H43 C37 1_555 1_555
H44 C37 1_555 1_555
C38 C37 1_555 1_555
H45 C38 1_555 1_555
H46 C38 1_555 1_555
C39 C38 1_555 1_555
H47 C39 1_555 1_555
H48 C39 1_555 1_555
C40 C39 1_555 1_555
H49 C40 1_555 1_555
H50 C40 1_555 1_555
H51 C40 1_555 1_555
C41 P2 1_555 1_555
H52 C41 1_555 1_555
H53 C41 1_555 1_555
C42 C41 1_555 1_555
H54 C42 1_555 1_555
H55 C42 1_555 1_555
C43 C42 1_555 1_555
H56 C43 1_555 1_555
H57 C43 1_555 1_555
C44 C43 1_555 1_555
H58 C44 1_555 1_555
H59 C44 1_555 1_555
H60 C44 1_555 1_555
Na1_2 O11 1_555 1_555
Na1A O7 1_555 1_555
O7A Na1 1_555 1_555
O8A Na1 1_555 1_555
O11_2 Na1 1_555 1_555
O12_2 Na1 1_555 1_555
C3 O2 1_555 1_555
C5 C6 1_555 1_555
C6 O4 1_555 1_555
C8 O5 1_555 1_555
C9 O6 1_555 1_555
C11 C12 1_555 1_555
O8 Na1A 1_555 1_555
C14 O9 1_555 1_555
C15 O10 1_555 1_555
C17 C18 1_555 1_555
O12 Na1_2 1_555 1_555

#END
