
#######################################################################
#
#                 Cambridge Crystallographic Data Centre
#                                CCDC 
#
#######################################################################
#
# If this CIF has been generated from an entry in the Cambridge 
# Structural Database, then it will include bibliographic, chemical, 
# crystal, experimental, refinement or atomic coordinate data resulting 
# from the CCDC's data processing and validation procedures.
#
#######################################################################

data_QUJJUB
_symmetry_cell_setting           monoclinic
_symmetry_space_group_name_H-M   'C 2/c'
_symmetry_Int_Tables_number      15
_space_group_name_Hall           '-C 2yn'
loop_
_symmetry_equiv_pos_site_id
_symmetry_equiv_pos_as_xyz
1 x,y,z
2 -x,y,1/2-z
3 1/2+x,1/2+y,z
4 1/2-x,1/2+y,1/2-z
5 -x,-y,-z
6 x,-y,1/2+z
7 1/2-x,1/2-y,-z
8 1/2+x,1/2-y,1/2+z
_cell_length_a                   8.4643(14)
_cell_length_b                   16.967(3)
_cell_length_c                   7.1119(12)
_cell_angle_alpha                90
_cell_angle_beta                 107.919(2)
_cell_angle_gamma                90
_cell_volume                     971.823
loop_
_atom_site_label
_atom_site_type_symbol
_atom_site_fract_x
_atom_site_fract_y
_atom_site_fract_z
Mn1 Mn 0.0000 0.191104(14) 0.2500
O1 O 0.26463(12) 0.18474(6) 0.33771(17)
O2 O 0.51389(12) 0.21558(6) 0.54462(16)
O3 O 0.74005(11) 0.11313(6) 0.66145(15)
O4 O -0.00077(14) 0.10271(6) 0.47709(16)
C1 C 0.45511(14) 0.08028(7) 0.47248(17)
C2 C 0.33828(15) 0.02131(7) 0.39172(18)
C3 C 0.61826(14) 0.05781(7) 0.58128(17)
C4 C 0.40503(15) 0.16591(8) 0.44794(18)
H1 H 0.231(2) 0.0352(10) 0.319(2)
H2 H -0.081(3) 0.1079(11) 0.522(3)
H3 H 0.695(3) 0.1538(14) 0.645(3)
H4 H 0.081(3) 0.1041(12) 0.567(3)
Mn1F Mn 0.5000 0.308896(14) 0.7500
Mn1D Mn 1.0000 -0.191104(14) 0.7500
Mn1B Mn 0.5000 -0.308896(14) 0.2500
O1D O 0.73537(12) -0.18474(6) 0.66229(17)
O1A O -0.26463(12) 0.18474(6) 0.16229(17)
O2D O 0.48611(12) -0.21558(6) 0.45538(16)
O2F O -0.01389(12) 0.28442(6) 0.45538(16)
O2G O 0.01389(12) 0.28442(6) 0.04462(16)
O3D O 0.25995(11) -0.11313(6) 0.33855(15)
O4A O 0.00077(14) 0.10271(6) 0.02291(16)
C1D C 0.54489(14) -0.08028(7) 0.52752(17)
C2D C 0.66172(15) -0.02131(7) 0.60828(18)
C3D C 0.38174(14) -0.05781(7) 0.41872(17)
C4D C 0.59497(15) -0.16591(8) 0.55206(18)
H1D H 0.769(2) -0.0352(10) 0.681(2)
H2A H 0.081(3) 0.1079(11) -0.022(3)
H3D H 0.305(3) -0.1538(14) 0.355(3)
H4A H -0.081(3) 0.1041(12) -0.067(3)
loop_
_geom_bond_atom_site_label_1
_geom_bond_atom_site_label_2
_geom_bond_site_symmetry_1
_geom_bond_site_symmetry_2
Mn1 O1 1_555 1_555
O1 C4 1_555 1_555
O2 C4 1_555 1_555
O3 C3 1_555 1_555
O4 Mn1 1_555 1_555
C1 C2 1_555 1_555
C2 H1 1_555 1_555
C3 C1 1_555 1_555
C4 C1 1_555 1_555
H2 O4 1_555 1_555
H3 O3 1_555 1_555
H4 O4 1_555 1_555
Mn1F O2 1_555 1_555
Mn1D O1D 1_555 1_555
Mn1B O2D 1_555 1_555
O1D C4D 1_555 1_555
O1A Mn1 1_555 1_555
O2D C4D 1_555 1_555
O2F Mn1 1_555 1_555
O2G Mn1 1_555 1_555
O3D C3D 1_555 1_555
O4A Mn1 1_555 1_555
C1D C2D 1_555 1_555
C2D C3 1_555 1_555
C3D C2 1_555 1_555
C4D C1D 1_555 1_555
H1D C2D 1_555 1_555
H2A O4A 1_555 1_555
H3D O3D 1_555 1_555
H4A O4A 1_555 1_555
C1D C3D 1_555 1_555

#END
