
#######################################################################
#
#                 Cambridge Crystallographic Data Centre
#                                CCDC 
#
#######################################################################
#
# If this CIF has been generated from an entry in the Cambridge 
# Structural Database, then it will include bibliographic, chemical, 
# crystal, experimental, refinement or atomic coordinate data resulting 
# from the CCDC's data processing and validation procedures.
#
#######################################################################

data_QUJJOW
_symmetry_cell_setting           monoclinic
_symmetry_space_group_name_H-M   'P 21'
_symmetry_Int_Tables_number      4
_space_group_name_Hall           'P 2yb'
loop_
_symmetry_equiv_pos_site_id
_symmetry_equiv_pos_as_xyz
1 x,y,z
2 -x,1/2+y,-z
_cell_length_a                   9.7327(3)
_cell_length_b                   24.9615(7)
_cell_length_c                   13.3675(4)
_cell_angle_alpha                90
_cell_angle_beta                 108.147(4)
_cell_angle_gamma                90
_cell_volume                     3086.01
loop_
_atom_site_label
_atom_site_type_symbol
_atom_site_fract_x
_atom_site_fract_y
_atom_site_fract_z
Fe1 Fe 0.74018(7) 0.28885(2) 0.30938(5)
K1 K 0.24271(14) 0.11204(5) -0.19354(10)
C1 C 0.4251(5) 0.17933(18) 0.1377(4)
Cl1 Cl 0.34436(13) 0.15001(5) 0.22460(10)
C2 C 0.5273(5) 0.21839(16) 0.1773(4)
O1 O 0.5709(4) 0.23534(13) 0.2713(3)
C3 C 0.6001(5) 0.24391(17) 0.1032(3)
O2 O 0.6972(4) 0.27870(12) 0.1475(3)
C4 C 0.5609(5) 0.22920(18) -0.0004(4)
Cl2 Cl 0.64574(12) 0.25755(4) -0.08466(9)
C5 C 0.4567(5) 0.18849(17) -0.0429(3)
O3 O 0.4193(4) 0.17291(13) -0.1358(3)
C6 C 0.3834(5) 0.16095(17) 0.0324(4)
O4 O 0.2940(4) 0.12623(14) -0.0067(3)
C7 C 1.0487(5) 0.17739(18) 0.4805(4)
Cl3 Cl 1.13516(12) 0.14967(4) 0.39685(9)
C8 C 0.9429(5) 0.21619(17) 0.4407(4)
O5 O 0.9028(4) 0.23305(12) 0.3467(3)
C9 C 0.8703(5) 0.24236(17) 0.5148(4)
O6 O 0.7777(3) 0.27868(12) 0.4701(3)
C10 C 0.9069(5) 0.2260(2) 0.6175(4)
Cl4 Cl 0.82626(15) 0.25443(5) 0.70306(11)
C11 C 1.0142(5) 0.18605(18) 0.6596(4)
O7 O 1.0512(4) 0.17027(13) 0.7518(3)
C12 C 1.0922(5) 0.16076(16) 0.5864(4)
O8 O 1.1869(4) 0.12726(13) 0.6266(3)
C13 C 0.9016(5) 0.4383(2) 0.2624(4)
Cl5 Cl 1.08071(12) 0.43066(6) 0.26692(10)
C14 C 0.8286(5) 0.3940(2) 0.2804(3)
O9 O 0.8812(4) 0.34713(15) 0.3034(3)
C15 C 0.6692(5) 0.3995(2) 0.2763(3)
O10 O 0.6143(4) 0.35500(16) 0.2960(3)
C16 C 0.6020(5) 0.4478(2) 0.2541(4)
Cl6 Cl 0.42356(12) 0.45515(6) 0.25008(10)
C17 C 0.6744(5) 0.4948(2) 0.2355(4)
O11 O 0.6194(4) 0.53948(17) 0.2154(3)
C18 C 0.8353(5) 0.4887(2) 0.2377(4)
O12 O 0.8932(4) 0.53036(16) 0.2176(3)
K1_2 K 1.24271(14) 0.11204(5) 0.80646(10)
K1A K 0.75729(14) 0.61204(5) 0.19354(10)
O7_2 O 0.0512(4) 0.17027(13) -0.2482(3)
O8_2 O 0.1869(4) 0.12726(13) -0.3734(3)
O11A O 0.3806(4) 0.03948(17) -0.2154(3)
O12A O 0.1068(4) 0.03036(16) -0.2176(3)
P1 P 0.29737(12) 0.50949(5) 0.58338(9)
C19 C 0.3481(6) 0.54890(19) 0.7029(4)
H1 H 0.3192 0.5294 0.7576
H2 H 0.4546 0.5528 0.7281
C20 C 0.2810(6) 0.6035(2) 0.6894(4)
H3 H 0.3155 0.6242 0.6397
H4 H 0.3082 0.6219 0.7576
H5 H 0.1756 0.6002 0.6622
C21 C 0.4132(5) 0.45168(18) 0.5981(3)
C22 C 0.4965(6) 0.4330(2) 0.6953(4)
H6 H 0.4926 0.4499 0.7581
C23 C 0.5856(7) 0.3892(3) 0.7000(5)
H7 H 0.6442 0.3762 0.7664
C24 C 0.5899(6) 0.3643(2) 0.6090(5)
H8 H 0.6521 0.3345 0.6127
C25 C 0.5041(6) 0.3826(2) 0.5129(4)
H9 H 0.5054 0.3648 0.4504
C26 C 0.4161(5) 0.42648(19) 0.5063(4)
H10 H 0.3580 0.4394 0.4397
C27 C 0.1135(5) 0.48766(18) 0.5524(4)
C28 C 0.0016(5) 0.52516(19) 0.5293(4)
H11 H 0.0225 0.5622 0.5268
C29 C -0.1403(5) 0.5083(2) 0.5098(4)
H12 H -0.2168 0.5337 0.4928
C30 C -0.1701(5) 0.4543(2) 0.5153(4)
H13 H -0.2668 0.4429 0.5045
C31 C -0.0602(6) 0.4167(2) 0.5365(4)
H14 H -0.0820 0.3797 0.5389
C32 C 0.0815(6) 0.4329(2) 0.5540(4)
H15 H 0.1567 0.4070 0.5670
C33 C 0.3244(5) 0.54938(17) 0.4795(4)
C34 C 0.2159(5) 0.55885(19) 0.3872(4)
H16 H 0.1217 0.5451 0.3775
C35 C 0.2439(6) 0.5886(2) 0.3079(4)
H17 H 0.1686 0.5956 0.2443
C36 C 0.3829(6) 0.6082(2) 0.3218(4)
H18 H 0.4018 0.6288 0.2678
C37 C 0.4934(5) 0.5976(2) 0.4141(4)
H19 H 0.5888 0.6098 0.4223
C38 C 0.4645(5) 0.5694(2) 0.4939(4)
H20 H 0.5389 0.5635 0.5584
P2 P 0.80278(12) 0.89416(4) 0.07307(9)
C39 C 0.8571(6) 0.8550(2) 0.1933(4)
H21 H 0.9640 0.8526 0.2190
H22 H 0.8257 0.8737 0.2478
C40 C 0.7932(6) 0.7975(2) 0.1787(4)
H23 H 0.6874 0.7996 0.1535
H24 H 0.8244 0.7786 0.2463
H25 H 0.8273 0.7782 0.1272
C41 C 0.8278(5) 0.85401(17) -0.0309(3)
C42 C 0.9672(5) 0.8366(2) -0.0210(4)
H26 H 1.0450 0.8459 0.0397
C43 C 0.9930(6) 0.8056(2) -0.0996(4)
H27 H 1.0885 0.7944 -0.0936
C44 C 0.8789(6) 0.79110(19) -0.1865(4)
H28 H 0.8962 0.7698 -0.2404
C45 C 0.7396(6) 0.8075(2) -0.1955(4)
H29 H 0.6615 0.7970 -0.2550
C46 C 0.7136(5) 0.8388(2) -0.1187(4)
H30 H 0.6179 0.8502 -0.1255
C47 C 0.9176(5) 0.9516(2) 0.0876(3)
C48 C 1.0012(6) 0.9705(2) 0.1857(4)
H31 H 0.9984 0.9532 0.2483
C49 C 1.0895(7) 1.0156(2) 0.1910(5)
H32 H 1.1470 1.0288 0.2575
C50 C 1.0930(6) 1.0406(2) 0.1004(4)
H33 H 1.1530 1.0710 0.1045
C51 C 1.0100(5) 1.02171(18) 0.0033(4)
H34 H 1.0130 1.0393 -0.0590
C52 C 0.9238(6) 0.9779(2) -0.0036(4)
H35 H 0.8673 0.9652 -0.0708
C53 C 0.6176(5) 0.91597(19) 0.0437(3)
C54 C 0.5064(5) 0.87886(19) 0.0236(4)
H36 H 0.5267 0.8417 0.0226
C55 C 0.3649(5) 0.8963(2) 0.0050(4)
H37 H 0.2882 0.8711 -0.0088
C56 C 0.3364(6) 0.9504(2) 0.0068(4)
H38 H 0.2398 0.9621 -0.0052
C57 C 0.4471(6) 0.9880(2) 0.0258(4)
H39 H 0.4261 1.0251 0.0266
C58 C 0.5891(6) 0.97080(19) 0.0436(4)
H40 H 0.6655 0.9961 0.0556
C59 C 0.7608(6) 0.7912(2) 0.4893(4)
H41 H 0.7979 0.8000 0.5619
O13 O 0.8230(5) 0.81012(16) 0.4297(3)
N1 N 0.6476(5) 0.75996(19) 0.4598(3)
C60 C 0.5842(6) 0.7457(2) 0.3501(4)
H42 H 0.5685 0.7781 0.3068
H43 H 0.4914 0.7277 0.3403
H44 H 0.6496 0.7215 0.3289
C61 C 0.5742(7) 0.7398(2) 0.5328(4)
H45 H 0.6293 0.7502 0.6049
H46 H 0.5675 0.7007 0.5279
H47 H 0.4768 0.7552 0.5145
C62 C 0.7409(6) 0.1131(2) -0.0017(4)
H48 H 0.7011 0.1044 -0.0742
O14 O 0.6810(4) 0.09476(15) 0.0585(3)
N2 N 0.8588(5) 0.14481(16) 0.0263(3)
C63 C 0.9244(6) 0.1588(2) 0.1367(4)
H49 H 0.8891 0.1939 0.1502
H50 H 1.0298 0.1600 0.1531
H51 H 0.8986 0.1317 0.1809
C64 C 0.9257(6) 0.1660(2) -0.0473(4)
H52 H 1.0147 0.1460 -0.0412
H53 H 0.9490 0.2039 -0.0318
H54 H 0.8591 0.1624 -0.1190
loop_
_geom_bond_atom_site_label_1
_geom_bond_atom_site_label_2
_geom_bond_site_symmetry_1
_geom_bond_site_symmetry_2
Fe1 O1 1_555 1_555
K1 O3 1_555 1_555
C1 Cl1 1_555 1_555
C2 C1 1_555 1_555
O1 C2 1_555 1_555
C3 C2 1_555 1_555
O2 Fe1 1_555 1_555
C4 C3 1_555 1_555
Cl2 C4 1_555 1_555
C5 C4 1_555 1_555
O3 C5 1_555 1_555
C6 C1 1_555 1_555
O4 K1 1_555 1_555
C7 Cl3 1_555 1_555
C8 C7 1_555 1_555
O5 Fe1 1_555 1_555
C9 C8 1_555 1_555
O6 Fe1 1_555 1_555
C10 C9 1_555 1_555
Cl4 C10 1_555 1_555
C11 C10 1_555 1_555
O7 C11 1_555 1_555
C12 C7 1_555 1_555
O8 C12 1_555 1_555
C13 Cl5 1_555 1_555
C14 C13 1_555 1_555
O9 Fe1 1_555 1_555
C15 C14 1_555 1_555
O10 Fe1 1_555 1_555
C16 C15 1_555 1_555
Cl6 C16 1_555 1_555
C17 C16 1_555 1_555
O11 C17 1_555 1_555
C18 C13 1_555 1_555
O12 C18 1_555 1_555
P1 C19 1_555 1_555
C19 H1 1_555 1_555
H2 C19 1_555 1_555
C20 C19 1_555 1_555
H3 C20 1_555 1_555
H4 C20 1_555 1_555
H5 C20 1_555 1_555
C21 P1 1_555 1_555
C22 C21 1_555 1_555
H6 C22 1_555 1_555
C23 C22 1_555 1_555
H7 C23 1_555 1_555
C24 C23 1_555 1_555
H8 C24 1_555 1_555
C25 C24 1_555 1_555
H9 C25 1_555 1_555
C26 C21 1_555 1_555
H10 C26 1_555 1_555
C27 P1 1_555 1_555
C28 C27 1_555 1_555
H11 C28 1_555 1_555
C29 C28 1_555 1_555
H12 C29 1_555 1_555
C30 C29 1_555 1_555
H13 C30 1_555 1_555
C31 C30 1_555 1_555
H14 C31 1_555 1_555
C32 C27 1_555 1_555
H15 C32 1_555 1_555
C33 P1 1_555 1_555
C34 C33 1_555 1_555
H16 C34 1_555 1_555
C35 C34 1_555 1_555
H17 C35 1_555 1_555
C36 C35 1_555 1_555
H18 C36 1_555 1_555
C37 C36 1_555 1_555
H19 C37 1_555 1_555
C38 C33 1_555 1_555
H20 C38 1_555 1_555
P2 C39 1_555 1_555
C39 H21 1_555 1_555
H22 C39 1_555 1_555
C40 C39 1_555 1_555
H23 C40 1_555 1_555
H24 C40 1_555 1_555
H25 C40 1_555 1_555
C41 P2 1_555 1_555
C42 C41 1_555 1_555
H26 C42 1_555 1_555
C43 C42 1_555 1_555
H27 C43 1_555 1_555
C44 C43 1_555 1_555
H28 C44 1_555 1_555
C45 C44 1_555 1_555
H29 C45 1_555 1_555
C46 C41 1_555 1_555
H30 C46 1_555 1_555
C47 P2 1_555 1_555
C48 C47 1_555 1_555
H31 C48 1_555 1_555
C49 C48 1_555 1_555
H32 C49 1_555 1_555
C50 C49 1_555 1_555
H33 C50 1_555 1_555
C51 C50 1_555 1_555
H34 C51 1_555 1_555
C52 C47 1_555 1_555
H35 C52 1_555 1_555
C53 P2 1_555 1_555
C54 C53 1_555 1_555
H36 C54 1_555 1_555
C55 C54 1_555 1_555
H37 C55 1_555 1_555
C56 C55 1_555 1_555
H38 C56 1_555 1_555
C57 C56 1_555 1_555
H39 C57 1_555 1_555
C58 C53 1_555 1_555
H40 C58 1_555 1_555
C59 H41 1_555 1_555
O13 C59 1_555 1_555
N1 C59 1_555 1_555
C60 N1 1_555 1_555
H42 C60 1_555 1_555
H43 C60 1_555 1_555
H44 C60 1_555 1_555
C61 N1 1_555 1_555
H45 C61 1_555 1_555
H46 C61 1_555 1_555
H47 C61 1_555 1_555
C62 H48 1_555 1_555
O14 C62 1_555 1_555
N2 C62 1_555 1_555
C63 N2 1_555 1_555
H49 C63 1_555 1_555
H50 C63 1_555 1_555
H51 C63 1_555 1_555
C64 N2 1_555 1_555
H52 C64 1_555 1_555
H53 C64 1_555 1_555
H54 C64 1_555 1_555
K1_2 O7 1_555 1_555
K1A O11 1_555 1_555
O7_2 K1 1_555 1_555
O8_2 K1 1_555 1_555
O11A K1 1_555 1_555
O12A K1 1_555 1_555
C3 O2 1_555 1_555
C5 C6 1_555 1_555
C6 O4 1_555 1_555
C8 O5 1_555 1_555
C9 O6 1_555 1_555
C11 C12 1_555 1_555
O8 K1_2 1_555 1_555
C14 O9 1_555 1_555
C15 O10 1_555 1_555
C17 C18 1_555 1_555
O12 K1A 1_555 1_555
C25 C26 1_555 1_555
C31 C32 1_555 1_555
C37 C38 1_555 1_555
C45 C46 1_555 1_555
C51 C52 1_555 1_555
C57 C58 1_555 1_555

#END
