
#######################################################################
#
#                 Cambridge Crystallographic Data Centre
#                                CCDC 
#
#######################################################################
#
# If this CIF has been generated from an entry in the Cambridge 
# Structural Database, then it will include bibliographic, chemical, 
# crystal, experimental, refinement or atomic coordinate data resulting 
# from the CCDC's data processing and validation procedures.
#
#######################################################################

data_QUJKOX
_symmetry_cell_setting           monoclinic
_symmetry_space_group_name_H-M   'P 21/c'
_symmetry_Int_Tables_number      14
_space_group_name_Hall           '-P 2ybc'
loop_
_symmetry_equiv_pos_site_id
_symmetry_equiv_pos_as_xyz
1 x,y,z
2 -x,1/2+y,1/2-z
3 -x,-y,-z
4 x,1/2-y,1/2+z
_cell_length_a                   12.7905(3)
_cell_length_b                   25.9152(6)
_cell_length_c                   10.6329(2)
_cell_angle_alpha                90
_cell_angle_beta                 92.472(2)
_cell_angle_gamma                90
_cell_volume                     3521.19
loop_
_atom_site_label
_atom_site_type_symbol
_atom_site_fract_x
_atom_site_fract_y
_atom_site_fract_z
Fe1 Fe 0.81432(2) 0.102553(12) 0.18721(3)
Na1 Na 0.30866(7) 0.29398(3) 0.31686(9)
Na2 Na 0.34799(8) 0.31174(4) 0.02611(9)
C1 C 0.60538(18) 0.22032(9) 0.2523(2)
Cl1 Cl 0.64844(5) 0.25465(3) 0.38370(6)
C2 C 0.51368(18) 0.23698(9) 0.1831(2)
O1 O 0.46183(14) 0.27583(7) 0.20590(17)
C3 C 0.47437(17) 0.20395(9) 0.0688(2)
O2 O 0.39816(13) 0.22084(7) 0.00642(16)
C4 C 0.52897(17) 0.15775(9) 0.0415(2)
Cl2 Cl 0.48633(5) 0.12087(2) -0.08598(5)
C5 C 0.62203(17) 0.14560(8) 0.1050(2)
O3 O 0.68314(12) 0.10870(6) 0.07655(15)
C6 C 0.65885(17) 0.17699(9) 0.2188(2)
O4 O 0.74069(12) 0.15923(6) 0.27764(15)
C7 C 1.04474(17) 0.20670(9) 0.0945(2)
Cl3 Cl 1.01225(5) 0.23579(2) -0.04803(6)
C8 C 0.98178(16) 0.16857(8) 0.1395(2)
O5 O 0.89659(12) 0.15190(6) 0.08507(14)
C9 C 1.01033(16) 0.14233(8) 0.2637(2)
O6 O 0.94417(12) 0.10876(6) 0.29916(15)
C10 C 1.10228(17) 0.15478(8) 0.3286(2)
Cl4 Cl 1.13611(4) 0.12364(2) 0.46854(5)
C11 C 1.16762(17) 0.19508(8) 0.2883(2)
O7 O 1.24837(12) 0.20978(6) 0.34559(16)
C12 C 1.13646(17) 0.22418(8) 0.1645(2)
O8 O 1.19298(13) 0.26010(6) 0.13470(16)
C13 C 0.28110(17) 0.45935(9) 0.1805(2)
Cl5 Cl 0.35072(5) 0.46692(2) 0.04576(5)
C14 C 0.23866(16) 0.50192(8) 0.2371(2)
O9 O 0.24442(12) 0.54828(6) 0.19630(15)
C15 C 0.18098(16) 0.49612(8) 0.3582(2)
O10 O 0.14826(12) 0.53871(6) 0.40415(15)
C16 C 0.16701(17) 0.44814(9) 0.4092(2)
Cl6 Cl 0.09637(5) 0.44203(2) 0.54340(6)
C17 C 0.20992(17) 0.40292(8) 0.3552(2)
O11 O 0.20177(14) 0.35901(6) 0.39732(17)
C18 C 0.27217(16) 0.40913(8) 0.2332(2)
O12 O 0.30997(13) 0.36947(6) 0.18911(15)
O13 O 0.45569(17) 0.36045(8) -0.0965(2)
C19 C 0.4878(2) 0.39898(11) -0.1500(3)
H1 H 0.5553 0.4113 -0.1244
N1 N 0.43552(17) 0.42484(9) -0.2411(2)
C20 C 0.4793(2) 0.46984(12) -0.3004(3)
H2 H 0.4291 0.4832 -0.3645
H3 H 0.5443 0.4602 -0.3400
H4 H 0.4942 0.4965 -0.2367
C21 C 0.3331(2) 0.40747(14) -0.2875(3)
H5 H 0.3064 0.4309 -0.3537
H6 H 0.2850 0.4072 -0.2183
H7 H 0.3387 0.3725 -0.3220
Fe1A Fe 0.18568(2) 0.602553(12) 0.31279(3)
Na1_2 Na 1.30866(7) 0.29398(3) 0.31686(9)
Na1C Na 0.30866(7) 0.20602(3) -0.18314(9)
Na2_2 Na 1.34799(8) 0.31174(4) 0.02611(9)
Na2C Na 1.34799(8) 0.18826(4) 0.52611(9)
O2C O 0.39816(13) 0.27916(7) 0.50642(16)
O7_2 O 0.24837(12) 0.20978(6) 0.34559(16)
O7C O 0.24837(12) 0.29022(6) -0.15441(16)
O8_2 O 0.19298(13) 0.26010(6) 0.13470(16)
O9A O 0.75558(12) 0.04828(6) 0.30370(15)
O10A O 0.85174(12) 0.03871(6) 0.09585(15)
N3 N 0.8491(3) 0.38552(18) 0.1765(4)
C29 C 0.8565(4) 0.3385(2) 0.0938(4)
H26 H 0.8156 0.3449 0.0142
H27 H 0.9305 0.3337 0.0726
C30 C 0.8182(5) 0.2894(2) 0.1505(6)
H28 H 0.8264 0.2609 0.0910
H29 H 0.7442 0.2930 0.1691
H30 H 0.8592 0.2820 0.2285
C31 C 0.7398(7) 0.3921(4) 0.2278(8)
H31 H 0.7382 0.4244 0.2775
H32 H 0.7261 0.3630 0.2853
C32 C 0.6510(9) 0.3940(5) 0.1225(10)
H33 H 0.5832 0.3977 0.1609
H34 H 0.6517 0.3620 0.0733
H35 H 0.6625 0.4235 0.0670
C33 C 0.8797(4) 0.43204(18) 0.0985(4)
H36 H 0.9094 0.4160 0.0234
H37 H 0.8111 0.4462 0.0684
C34 C 0.9376(10) 0.4740(4) 0.1155(12)
H38 H 0.9361 0.4942 0.0376
H39 H 1.0099 0.4640 0.1382
H40 H 0.9097 0.4948 0.1833
C35 C 0.9257(6) 0.3803(3) 0.2867(6)
H41 H 0.9065 0.3507 0.3380
H42 H 0.9245 0.4118 0.3379
H43 H 0.9962 0.3752 0.2563
N2? N 0.8269(4) 0.3999(2) 0.1968(5)
C22? C 0.8497(7) 0.3614(4) 0.0953(8)
H8? H 0.8059 0.3700 0.0192
H9? H 0.9238 0.3653 0.0737
C23? C 0.8308(9) 0.3063(4) 0.1285(11)
H10? H 0.8479 0.2842 0.0576
H11? H 0.7570 0.3016 0.1472
H12? H 0.8750 0.2969 0.2026
C24? C 0.7178(7) 0.3928(4) 0.2351(10)
H13? H 0.7119 0.3581 0.2728
H14? H 0.7040 0.4183 0.3016
C25? C 0.6354(10) 0.3980(6) 0.1343(12)
H15? H 0.5667 0.3925 0.1695
H16? H 0.6466 0.3723 0.0686
H17? H 0.6383 0.4327 0.0979
C26? C 0.8210(12) 0.4475(5) 0.1386(15)
H18? H 0.8282 0.4412 0.0475
H19? H 0.7489 0.4604 0.1484
C27? C 0.8832(5) 0.4851(3) 0.1691(6)
H20? H 0.8633 0.5157 0.1198
H21? H 0.9552 0.4753 0.1518
H22? H 0.8785 0.4927 0.2590
C28? C 0.8977(6) 0.3922(3) 0.3104(7)
H23? H 0.9706 0.3968 0.2876
H24? H 0.8883 0.3572 0.3434
H25? H 0.8809 0.4175 0.3750
loop_
_geom_bond_atom_site_label_1
_geom_bond_atom_site_label_2
_geom_bond_site_symmetry_1
_geom_bond_site_symmetry_2
Fe1 O3 1_555 1_555
Na1 O1 1_555 1_555
Na2 O1 1_555 1_555
C1 Cl1 1_555 1_555
C2 C1 1_555 1_555
O1 C2 1_555 1_555
C3 C2 1_555 1_555
O2 Na2 1_555 1_555
C4 C3 1_555 1_555
Cl2 C4 1_555 1_555
C5 C4 1_555 1_555
O3 C5 1_555 1_555
C6 C1 1_555 1_555
O4 Fe1 1_555 1_555
C7 Cl3 1_555 1_555
C8 C7 1_555 1_555
O5 Fe1 1_555 1_555
C9 C8 1_555 1_555
O6 Fe1 1_555 1_555
C10 C9 1_555 1_555
Cl4 C10 1_555 1_555
C11 C10 1_555 1_555
O7 C11 1_555 1_555
C12 C7 1_555 1_555
O8 C12 1_555 1_555
C13 Cl5 1_555 1_555
C14 C13 1_555 1_555
O9 C14 1_555 1_555
C15 C14 1_555 1_555
O10 C15 1_555 1_555
C16 C15 1_555 1_555
Cl6 C16 1_555 1_555
C17 C16 1_555 1_555
O11 Na1 1_555 1_555
C18 C13 1_555 1_555
O12 Na1 1_555 1_555
O13 Na2 1_555 1_555
C19 O13 1_555 1_555
H1 C19 1_555 1_555
N1 C19 1_555 1_555
C20 N1 1_555 1_555
H2 C20 1_555 1_555
H3 C20 1_555 1_555
H4 C20 1_555 1_555
C21 N1 1_555 1_555
H5 C21 1_555 1_555
H6 C21 1_555 1_555
H7 C21 1_555 1_555
N3 C29 1_555 1_555
C29 H26 1_555 1_555
H27 C29 1_555 1_555
C30 C29 1_555 1_555
H28 C30 1_555 1_555
H29 C30 1_555 1_555
H30 C30 1_555 1_555
C31 N3 1_555 1_555
H31 C31 1_555 1_555
H32 C31 1_555 1_555
C32 C31 1_555 1_555
H33 C32 1_555 1_555
H34 C32 1_555 1_555
H35 C32 1_555 1_555
C33 N3 1_555 1_555
H36 C33 1_555 1_555
H37 C33 1_555 1_555
C34 C33 1_555 1_555
H38 C34 1_555 1_555
H39 C34 1_555 1_555
H40 C34 1_555 1_555
C35 N3 1_555 1_555
H41 C35 1_555 1_555
H42 C35 1_555 1_555
H43 C35 1_555 1_555
Fe1A O9 1_555 1_555
Na1_2 O7 1_555 1_555
Na1C O2 1_555 1_555
Na2_2 O8 1_555 1_555
Na2C O7 1_555 1_555
O2C Na1 1_555 1_555
O7_2 Na1 1_555 1_555
O7C Na2 1_555 1_555
O8_2 Na1 1_555 1_555
O9A Fe1 1_555 1_555
O10A Fe1 1_555 1_555
Na2 O12 1_555 1_555
Na2 O8_2 1_555 1_555
C3 O2 1_555 1_555
C5 C6 1_555 1_555
C6 O4 1_555 1_555
C8 O5 1_555 1_555
C9 O6 1_555 1_555
C11 C12 1_555 1_555
O8 Na1_2 1_555 1_555
O10 Fe1A 1_555 1_555
C17 O11 1_555 1_555
C17 C18 1_555 1_555
C18 O12 1_555 1_555
Na1C O7C 1_555 1_555

#END
