
#######################################################################
#
#                 Cambridge Crystallographic Data Centre
#                                CCDC 
#
#######################################################################
#
# If this CIF has been generated from an entry in the Cambridge 
# Structural Database, then it will include bibliographic, chemical, 
# crystal, experimental, refinement or atomic coordinate data resulting 
# from the CCDC's data processing and validation procedures.
#
#######################################################################

data_QUJKEN
_symmetry_cell_setting           orthorhombic
_symmetry_space_group_name_H-M   'P b c a'
_symmetry_Int_Tables_number      61
_space_group_name_Hall           '-P 2ac 2ab'
loop_
_symmetry_equiv_pos_site_id
_symmetry_equiv_pos_as_xyz
1 x,y,z
2 1/2-x,-y,1/2+z
3 1/2+x,1/2-y,-z
4 -x,1/2+y,1/2-z
5 -x,-y,-z
6 1/2+x,y,1/2-z
7 1/2-x,1/2+y,z
8 x,1/2-y,1/2+z
_cell_length_a                   8.57040(10)
_cell_length_b                   19.54410(10)
_cell_length_c                   21.4191(3)
_cell_angle_alpha                90
_cell_angle_beta                 90
_cell_angle_gamma                90
_cell_volume                     3587.72
loop_
_atom_site_label
_atom_site_type_symbol
_atom_site_fract_x
_atom_site_fract_y
_atom_site_fract_z
Tb1 Tb 0.217467(17) 0.993154(7) 0.449419(7)
O1 O -0.0259(3) 0.93199(10) 0.49095(10)
C1 C 0.0471(4) 0.67632(15) 0.54160(16)
C2 C 0.0503(4) 0.82024(14) 0.54910(14)
C3 C -0.0282(4) 0.70961(15) 0.59041(16)
H1 H -0.0807 0.6843 0.6206
B1 B 0.0551(4) 0.90218(16) 0.54876(17)
C4 C -0.0251(4) 0.78085(15) 0.59418(16)
H2 H -0.0745 0.8025 0.6274
C5 C 0.1255(5) 0.71452(16) 0.49701(17)
H3 H 0.1771 0.6926 0.4645
C6 C 0.1271(5) 0.78540(16) 0.50083(18)
H4 H 0.1803 0.8104 0.4706
O2 O -0.0606(3) 0.56816(12) 0.56564(13)
O3 O 0.1407(3) 0.57202(12) 0.50085(13)
O4 O 0.1236(3) 0.91449(13) 0.37196(12)
O5 O 0.3435(3) 1.04459(17) 0.36279(14)
C7 C 0.0418(4) 0.60022(15) 0.53566(15)
O6 O 0.2133(3) 0.93121(12) 0.54150(11)
O7 O -0.0295(3) 0.93642(11) 0.60023(11)
Tb1B Tb -0.282533(17) 0.506846(7) 0.550581(7)
Tb1D Tb -0.217467(17) 1.006846(7) 0.550581(7)
Tb1F Tb 0.282533(17) 0.493154(7) 0.449419(7)
O1D O 0.0259(3) 1.06801(10) 0.50905(10)
O2B O 0.4394(3) 0.93184(12) 0.43436(13)
O3F O 0.3593(3) 1.07202(12) 0.50085(13)
O7D O 0.0295(3) 1.06358(11) 0.39977(11)
C8 C 0.2216(5) 0.73513(18) 0.7513(2)
H5 H 0.1734 0.7127 0.7844
C9 C 0.3481(5) 0.73245(17) 0.65213(17)
H6 H 0.3873 0.7081 0.6183
C10 C 0.3073(4) 0.84030(16) 0.70424(16)
O8 O 0.3206(5) 0.94689(14) 0.75738(14)
C11 C 0.3620(5) 0.80334(16) 0.65293(17)
H7 H 0.4076 0.826 0.6194
C12 C 0.3220(4) 0.91722(17) 0.70544(17)
C13 C 0.2768(4) 0.69689(17) 0.70079(16)
C14 C 0.2370(5) 0.80557(18) 0.75329(19)
H8 H 0.2002 0.8298 0.7877
O9 O 0.3391(3) 0.94952(12) 0.65484(12)
O10 O 0.2997(3) 0.58178(14) 0.64690(14)
H9 H 0.2728 0.5417 0.6501
O11 O 0.1835(5) 0.58548(14) 0.74763(16)
H10 H 0.1694 0.5451 0.739
B2 B 0.2515(5) 0.6174(2) 0.6986(2)
loop_
_geom_bond_atom_site_label_1
_geom_bond_atom_site_label_2
_geom_bond_site_symmetry_1
_geom_bond_site_symmetry_2
Tb1 O1 1_555 1_555
O1 B1 1_555 1_555
C1 C3 1_555 1_555
C2 B1 1_555 1_555
C3 H1 1_555 1_555
B1 O6 1_555 1_555
C4 C2 1_555 1_555
H2 C4 1_555 1_555
C5 C1 1_555 1_555
H3 C5 1_555 1_555
C6 C2 1_555 1_555
H4 C6 1_555 1_555
O2 C7 1_555 1_555
O3 C7 1_555 1_555
O4 Tb1 1_555 1_555
O5 Tb1 1_555 1_555
C7 C1 1_555 1_555
O6 Tb1 1_555 1_555
O7 B1 1_555 1_555
C8 H5 1_555 1_555
C9 H6 1_555 1_555
C10 C11 1_555 1_555
O8 C12 1_555 1_555
C11 C9 1_555 1_555
H7 C11 1_555 1_555
C12 C10 1_555 1_555
C13 C8 1_555 1_555
C14 C8 1_555 1_555
H8 C14 1_555 1_555
O9 C12 1_555 1_555
O10 H9 1_555 1_555
O11 H10 1_555 1_555
B2 C13 1_555 1_555
Tb1B O2 1_555 1_555
Tb1D O1 1_555 1_555
Tb1F O3 1_555 1_555
O1D Tb1 1_555 1_555
O2B Tb1 1_555 1_555
O3F Tb1 1_555 1_555
O7D Tb1 1_555 1_555
C3 C4 1_555 1_555
C5 C6 1_555 1_555
O7 Tb1D 1_555 1_555
C9 C13 1_555 1_555
C10 C14 1_555 1_555
O10 B2 1_555 1_555
O11 B2 1_555 1_555
Tb1D O1D 1_555 1_555

#END
