
#######################################################################
#
#                 Cambridge Crystallographic Data Centre
#                                CCDC 
#
#######################################################################
#
# If this CIF has been generated from an entry in the Cambridge 
# Structural Database, then it will include bibliographic, chemical, 
# crystal, experimental, refinement or atomic coordinate data resulting 
# from the CCDC's data processing and validation procedures.
#
#######################################################################

data_QUJKAI
_symmetry_cell_setting           monoclinic
_symmetry_space_group_name_H-M   'P 21/n'
_symmetry_Int_Tables_number      14
_space_group_name_Hall           '-P 2yn'
loop_
_symmetry_equiv_pos_site_id
_symmetry_equiv_pos_as_xyz
1 x,y,z
2 1/2-x,1/2+y,1/2-z
3 -x,-y,-z
4 1/2+x,1/2-y,1/2+z
_cell_length_a                   10.476(4)
_cell_length_b                   6.852(3)
_cell_length_c                   13.751(6)
_cell_angle_alpha                90
_cell_angle_beta                 91.958(5)
_cell_angle_gamma                90
_cell_volume                     986.492
loop_
_atom_site_label
_atom_site_type_symbol
_atom_site_fract_x
_atom_site_fract_y
_atom_site_fract_z
C1 C 0.95273(17) 0.2791(3) -0.09441(13)
H1 H 0.8889 0.2993 -0.1420
C2 C 1.07832(17) 0.2623(3) -0.12119(12)
C3 C 1.17530(17) 0.2302(3) -0.04944(13)
C4 C 1.14344(17) 0.2216(3) 0.04761(13)
H2 H 1.2074 0.2030 0.0953
C5 C 1.01784(17) 0.2402(3) 0.07439(13)
C6 C 0.92046(16) 0.2663(3) 0.00228(13)
C7 C 1.30863(17) 0.1838(3) -0.07756(13)
C8 C 0.78253(17) 0.2713(3) 0.02919(14)
Ca1 Ca 1.46119(3) -0.15052(6) -0.11626(3)
O1 O 1.33224(13) 0.1726(2) -0.16656(9)
O2 O 1.39120(12) 0.1354(2) -0.01353(9)
O3 O 0.75817(12) 0.2559(2) 0.11841(10)
O4 O 0.69515(12) 0.2820(2) -0.03506(10)
O5 O 1.10712(13) 0.2709(2) -0.21734(9)
O6 O 0.99358(14) 0.2287(2) 0.17141(9)
O7 O 1.5482(2) -0.4578(3) -0.14322(16)
O8 O 1.62386(15) 0.0331(2) -0.19102(12)
H3 H 1.186(3) 0.238(4) -0.2145(19)
H4 H 0.914(3) 0.233(4) 0.1725(18)
H5 H 1.655(2) 0.104(4) -0.1525(16)
H6 H 1.595(3) 0.105(4) -0.2322(19)
H7 H 1.595(3) -0.514(4) -0.112(2)
H8 H 1.519(3) -0.523(5) -0.185(2)
Ca1B Ca 1.53881(3) 0.15052(6) 0.11626(3)
Ca1B_2 Ca 0.53881(3) 0.15052(6) 0.11626(3)
Ca1A Ca 1.03881(3) 0.34948(6) -0.38374(3)
O2B O 1.60880(12) -0.1354(2) 0.01353(9)
O3B O 1.24183(12) -0.2559(2) -0.11841(10)
O4B O 1.30485(12) -0.2820(2) 0.03506(10)
O5A O 1.39288(13) -0.2291(2) -0.28266(9)
H3A H 1.314(3) -0.262(4) -0.2855(19)
loop_
_geom_bond_atom_site_label_1
_geom_bond_atom_site_label_2
_geom_bond_site_symmetry_1
_geom_bond_site_symmetry_2
C1 H1 1_555 1_555
C2 C1 1_555 1_555
C3 C2 1_555 1_555
C4 C3 1_555 1_555
H2 C4 1_555 1_555
C5 C4 1_555 1_555
C6 C1 1_555 1_555
C7 C3 1_555 1_555
C8 C6 1_555 1_555
Ca1 O1 1_555 1_555
O1 C7 1_555 1_555
O2 C7 1_555 1_555
O3 C8 1_555 1_555
O4 C8 1_555 1_555
O5 C2 1_555 1_555
O6 C5 1_555 1_555
O7 Ca1 1_555 1_555
O8 Ca1 1_555 1_555
H3 O5 1_555 1_555
H4 O6 1_555 1_555
H5 O8 1_555 1_555
H6 O8 1_555 1_555
H7 O7 1_555 1_555
H8 O7 1_555 1_555
Ca1B O2 1_555 1_555
Ca1B_2 O3 1_555 1_555
Ca1A O5 1_555 1_555
O2B Ca1 1_555 1_555
O3B Ca1 1_555 1_555
O4B Ca1 1_555 1_555
O5A Ca1 1_555 1_555
H3A O5A 1_555 1_555
C5 C6 1_555 1_555
Ca1 O2 1_555 1_555
O4 Ca1B_2 1_555 1_555
Ca1B O2B 1_555 1_555

#END
