
#######################################################################
#
#                 Cambridge Crystallographic Data Centre
#                                CCDC 
#
#######################################################################
#
# If this CIF has been generated from an entry in the Cambridge 
# Structural Database, then it will include bibliographic, chemical, 
# crystal, experimental, refinement or atomic coordinate data resulting 
# from the CCDC's data processing and validation procedures.
#
#######################################################################

data_QUJKEM
_symmetry_cell_setting           monoclinic
_symmetry_space_group_name_H-M   'C 2/c'
_symmetry_Int_Tables_number      15
_space_group_name_Hall           '-C 2yn'
loop_
_symmetry_equiv_pos_site_id
_symmetry_equiv_pos_as_xyz
1 x,y,z
2 -x,y,1/2-z
3 1/2+x,1/2+y,z
4 1/2-x,1/2+y,1/2-z
5 -x,-y,-z
6 x,-y,1/2+z
7 1/2-x,1/2-y,-z
8 1/2+x,1/2-y,1/2+z
_cell_length_a                   9.0190(2)
_cell_length_b                   10.3412(3)
_cell_length_c                   7.9723(2)
_cell_angle_alpha                90
_cell_angle_beta                 92.601(2)
_cell_angle_gamma                90
_cell_volume                     742.789
loop_
_atom_site_label
_atom_site_type_symbol
_atom_site_fract_x
_atom_site_fract_y
_atom_site_fract_z
Ca1 Ca 1.0000 0.00003(5) 0.2500
C1 C 1.0436(2) -0.22606(19) 0.0515(3)
C2 C 1.0236(2) -0.36831(19) 0.0229(2)
C3 C 1.1253(2) -0.4578(2) 0.0934(3)
C4 C 0.8989(2) -0.41150(19) -0.0691(3)
H1 H 0.8312 -0.3520 -0.1148
O1 O 1.14111(16) -0.19002(14) 0.16153(19)
O2 O 0.96083(17) -0.14548(15) -0.0258(2)
O3 O 1.24861(16) -0.41907(15) 0.1870(2)
H2 H 1.236(4) -0.340(3) 0.181(4)
Ca1D Ca 1.0000 -0.00003(5) -0.2500
Ca1B Ca 1.5000 -0.49997(5) 0.2500
Ca1D_2 Ca 1.0000 -1.00003(5) -0.2500
Ca1_2 Ca 1.0000 -0.99997(5) 0.2500
Ca1F Ca 0.5000 -0.50003(5) -0.2500
C1D C 0.9564(2) -0.77394(19) -0.0515(3)
C2D C 0.9764(2) -0.63169(19) -0.0229(2)
C3D C 0.8747(2) -0.5422(2) -0.0934(3)
C4D C 1.1011(2) -0.58850(19) 0.0691(3)
H1D H 1.1688 -0.6480 0.1148
O1D O 0.85889(16) -0.80998(14) -0.16153(19)
O1A O 0.85889(16) -0.19002(14) 0.33847(19)
O2D O 1.03917(17) -0.85452(15) 0.0258(2)
O2A O 1.03917(17) -0.14548(15) 0.5258(2)
O2D_2 O 1.03917(17) 0.14548(15) 0.0258(2)
O2E O 0.96083(17) 0.14548(15) 0.4742(2)
O3D O 0.75139(16) -0.58093(15) -0.1870(2)
O3B O 0.74861(16) 0.08093(15) 0.1870(2)
O3C O 1.25139(16) 0.08093(15) 0.3130(2)
H2D H 0.764(4) -0.660(3) -0.181(4)
H2B H 0.736(4) 0.160(3) 0.181(4)
H2C H 1.264(4) 0.160(3) 0.319(4)
loop_
_geom_bond_atom_site_label_1
_geom_bond_atom_site_label_2
_geom_bond_site_symmetry_1
_geom_bond_site_symmetry_2
Ca1 O1 1_555 1_555
C1 C2 1_555 1_555
C2 C3 1_555 1_555
C3 O3 1_555 1_555
C4 C2 1_555 1_555
H1 C4 1_555 1_555
O1 C1 1_555 1_555
O2 Ca1 1_555 1_555
O3 H2 1_555 1_555
Ca1D O2 1_555 1_555
Ca1B O3 1_555 1_555
Ca1D_2 O1D 1_555 1_555
Ca1_2 O2D 1_555 1_555
Ca1F O3D 1_555 1_555
C1D C2D 1_555 1_555
C2D C3D 1_555 1_555
C3D C4 1_555 1_555
C4D C3 1_555 1_555
H1D C4D 1_555 1_555
O1D C1D 1_555 1_555
O1A Ca1 1_555 1_555
O2D Ca1D_2 1_555 1_555
O2A Ca1 1_555 1_555
O2D_2 Ca1 1_555 1_555
O2E Ca1 1_555 1_555
O3D C3D 1_555 1_555
O3B Ca1 1_555 1_555
O3C Ca1 1_555 1_555
H2D O3D 1_555 1_555
H2B O3B 1_555 1_555
H2C O3C 1_555 1_555
C1 O2 1_555 1_555
Ca1D O2D_2 1_555 1_555
C1D O2D 1_555 1_555
C2D C4D 1_555 1_555

#END
