
#######################################################################
#
#                 Cambridge Crystallographic Data Centre
#                                CCDC 
#
#######################################################################
#
# If this CIF has been generated from an entry in the Cambridge 
# Structural Database, then it will include bibliographic, chemical, 
# crystal, experimental, refinement or atomic coordinate data resulting 
# from the CCDC's data processing and validation procedures.
#
#######################################################################

data_QUJPOB
_symmetry_cell_setting           triclinic
_symmetry_space_group_name_H-M   'P -1'
_symmetry_Int_Tables_number      2
_space_group_name_Hall           '-P 1'
loop_
_symmetry_equiv_pos_site_id
_symmetry_equiv_pos_as_xyz
1 x,y,z
2 -x,-y,-z
_cell_length_a                   9.915(2)
_cell_length_b                   11.385(3)
_cell_length_c                   11.494(3)
_cell_angle_alpha                82.080(3)
_cell_angle_beta                 81.354(3)
_cell_angle_gamma                72.722(3)
_cell_volume                     1218.87
loop_
_atom_site_label
_atom_site_type_symbol
_atom_site_fract_x
_atom_site_fract_y
_atom_site_fract_z
Cd1 Cd 0.74253(2) 0.97227(2) 0.598627(18)
N1 N 0.7541(3) 0.2908(2) 1.0799(2)
N2 N 0.8354(3) 0.3324(3) 1.1463(2)
N3 N 0.8371(2) 0.8950(2) 0.9720(2)
N4 N 0.7544(3) 0.9344(2) 0.8021(2)
N5 N 0.5611(3) 0.6554(2) 0.6140(2)
N6 N 0.6837(3) 0.7861(2) 0.6006(2)
N7 N 0.4977(3) 1.0575(3) 0.6435(2)
N8 N 0.9813(3) 0.8587(3) 0.5812(3)
N9 N 0.6928(3) 0.9294(2) 0.9978(2)
N10 N 0.6776(3) 0.6099(3) 0.5382(2)
C1 C 0.7084(3) 0.3799(3) 1.0014(3)
C2 C 0.6200(3) 0.3817(3) 0.9108(3)
C3 C 0.5703(3) 0.2797(3) 0.9091(3)
H1 H 0.5935 0.2123 0.9656
C4 C 0.4870(4) 0.2785(3) 0.8240(3)
H2 H 0.4534 0.2105 0.8236
C5 C 0.4530(3) 0.3770(3) 0.7397(3)
H3 H 0.3984 0.3745 0.6815
C6 C 0.4996(3) 0.4806(3) 0.7406(3)
C7 C 0.5839(3) 0.4817(3) 0.8266(3)
H4 H 0.6164 0.5502 0.8276
C8 C 0.4532(3) 0.5894(3) 0.6509(3)
H5 H 0.4318 0.5608 0.5820
H6 H 0.3666 0.6462 0.6843
C9 C 0.5672(3) 0.7580(3) 0.6499(3)
H7 H 0.4986 0.8045 0.7029
C10 C 0.7461(4) 0.6934(3) 0.5324(3)
H8 H 0.8316 0.6887 0.4846
C11 C 0.8304(3) 0.4442(3) 1.1026(3)
C12 C 0.8958(3) 0.5286(3) 1.1407(3)
C13 C 0.8799(3) 0.6476(3) 1.0846(3)
H9 H 0.8281 0.6735 1.0201
C14 C 0.9405(3) 0.7277(3) 1.1237(3)
C15 C 0.9286(3) 0.8567(3) 1.0659(3)
H10 H 0.8925 0.9140 1.1260
H11 H 1.0229 0.8623 1.0338
C16 C 1.0173(3) 0.6871(3) 1.2203(3)
H12 H 1.0575 0.7404 1.2481
C17 C 1.0347(4) 0.5699(4) 1.2752(3)
H13 H 1.0880 0.5442 1.3389
C18 C 0.9746(3) 0.4897(3) 1.2375(3)
H14 H 0.9859 0.4104 1.2758
C19 C 0.6495(3) 0.9516(3) 0.8924(3)
H15 H 0.5538 0.9772 0.8811
C20 C 0.8707(3) 0.8982(3) 0.8558(3)
H16 H 0.9630 0.8778 0.8176
C21 C 0.3874(3) 1.0425(3) 0.6433(3)
C22 C 1.0812(3) 0.8356(3) 0.5142(3)
O1 O 0.7520(2) 0.48088(18) 1.00941(17)
S1 S 1.22476(9) 0.80146(8) 0.41845(8)
S2 S 0.23298(9) 1.01661(9) 0.64297(7)
Cd1A Cd 0.25747(2) 1.02773(2) 0.401373(18)
Cd1A_2 Cd 1.25747(2) 1.02773(2) 0.401373(18)
S1A S 0.77524(9) 1.19854(8) 0.58155(8)
S2A S 0.76702(9) 0.98339(9) 0.35703(7)
loop_
_geom_bond_atom_site_label_1
_geom_bond_atom_site_label_2
_geom_bond_site_symmetry_1
_geom_bond_site_symmetry_2
Cd1 N4 1_555 1_555
N1 N2 1_555 1_555
N2 C11 1_555 1_555
N3 N9 1_555 1_555
N4 C19 1_555 1_555
N5 N10 1_555 1_555
N6 Cd1 1_555 1_555
N7 Cd1 1_555 1_555
N8 Cd1 1_555 1_555
N9 C19 1_555 1_555
N10 C10 1_555 1_555
C1 N1 1_555 1_555
C2 C1 1_555 1_555
C3 C2 1_555 1_555
H1 C3 1_555 1_555
C4 C3 1_555 1_555
H2 C4 1_555 1_555
C5 C4 1_555 1_555
H3 C5 1_555 1_555
C6 C5 1_555 1_555
C7 C2 1_555 1_555
H4 C7 1_555 1_555
C8 N5 1_555 1_555
H5 C8 1_555 1_555
H6 C8 1_555 1_555
C9 N5 1_555 1_555
H7 C9 1_555 1_555
C10 N6 1_555 1_555
H8 C10 1_555 1_555
C11 C12 1_555 1_555
C12 C13 1_555 1_555
C13 H9 1_555 1_555
C14 C13 1_555 1_555
C15 N3 1_555 1_555
H10 C15 1_555 1_555
H11 C15 1_555 1_555
C16 C14 1_555 1_555
H12 C16 1_555 1_555
C17 C16 1_555 1_555
H13 C17 1_555 1_555
C18 C12 1_555 1_555
H14 C18 1_555 1_555
C19 H15 1_555 1_555
C20 N3 1_555 1_555
H16 C20 1_555 1_555
C21 N7 1_555 1_555
C22 N8 1_555 1_555
O1 C1 1_555 1_555
S1 C22 1_555 1_555
S2 C21 1_555 1_555
Cd1A S2 1_555 1_555
Cd1A_2 S1 1_555 1_555
S1A Cd1 1_555 1_555
S2A Cd1 1_555 1_555
N4 C20 1_555 1_555
N6 C9 1_555 1_555
C6 C7 1_555 1_555
C6 C8 1_555 1_555
C11 O1 1_555 1_555
C14 C15 1_555 1_555
C17 C18 1_555 1_555

#END
