
#######################################################################
#
#                 Cambridge Crystallographic Data Centre
#                                CCDC 
#
#######################################################################
#
# If this CIF has been generated from an entry in the Cambridge 
# Structural Database, then it will include bibliographic, chemical, 
# crystal, experimental, refinement or atomic coordinate data resulting 
# from the CCDC's data processing and validation procedures.
#
#######################################################################

data_QUJRUK
_symmetry_cell_setting           orthorhombic
_symmetry_space_group_name_H-M   'P b c n'
_symmetry_Int_Tables_number      60
_space_group_name_Hall           '-P 2n 2ab'
loop_
_symmetry_equiv_pos_site_id
_symmetry_equiv_pos_as_xyz
1 x,y,z
2 1/2-x,1/2-y,1/2+z
3 1/2+x,1/2-y,-z
4 -x,y,1/2-z
5 -x,-y,-z
6 1/2+x,1/2+y,1/2-z
7 1/2-x,1/2+y,z
8 x,-y,1/2+z
_cell_length_a                   12.1905(11)
_cell_length_b                   14.4177(13)
_cell_length_c                   20.4894(19)
_cell_angle_alpha                90
_cell_angle_beta                 90
_cell_angle_gamma                90
_cell_volume                     3601.2
loop_
_atom_site_label
_atom_site_type_symbol
_atom_site_fract_x
_atom_site_fract_y
_atom_site_fract_z
C1 C 0.1411(5) 0.3672(4) 0.4462(3)
C2 C 0.2430(5) 0.3752(4) 0.5559(3)
C3 C 0.1758(5) 0.4420(5) 0.5885(3)
H1 H 0.1298 0.4818 0.5655
C4 C 0.1825(5) 0.4448(4) 0.6561(3)
C5 C 0.2511(4) 0.3823(4) 0.6896(3)
H2 H 0.2529 0.3829 0.7349
C6 C 0.3149(5) 0.3210(4) 0.6562(3)
C7 C 0.3113(5) 0.3203(5) 0.5882(3)
H3 H 0.3575 0.2807 0.5652
C8 C 0.3864(5) 0.2553(4) 0.6932(3)
C9 C 0.1124(5) 0.5133(4) 0.6932(3)
Cu1 Cu 0.07196(6) 0.63494(5) 0.79985(4)
N1 N 0.1767(4) 0.3649(3) 0.3860(2)
N2 N 0.2898(5) 0.3675(4) 0.3872(3)
N3 N 0.3254(5) 0.3703(4) 0.4463(3)
N4 N 0.2315(5) 0.3706(3) 0.4861(2)
N5 N 0.0362(5) 0.3666(4) 0.4690(3)
H4 H -0.0179 0.3643 0.4421
H5 H 0.0240 0.3684 0.5104
O1 O 0.4696(3) 0.2246(3) 0.66187(19)
O2 O 0.3557(3) 0.2331(3) 0.74834(19)
O3 O 0.1460(3) 0.5386(3) 0.74760(19)
O4 O 0.0258(3) 0.5390(3) 0.66489(19)
Cu1C Cu -0.07196(6) 0.63494(5) 0.70015(4)
Cu1E Cu 0.57196(6) 0.13494(5) 0.70015(4)
Cu1F Cu 0.42804(6) 0.13494(5) 0.79985(4)
Cu1G Cu 0.07196(6) 0.36506(5) 0.29985(4)
N1G N 0.1767(4) 0.6351(3) 0.8860(2)
O1E O -0.0304(3) 0.7246(3) 0.83813(19)
O2F O 0.1443(3) 0.7331(3) 0.74834(19)
O4C O -0.0258(3) 0.5390(3) 0.83511(19)
loop_
_geom_bond_atom_site_label_1
_geom_bond_atom_site_label_2
_geom_bond_site_symmetry_1
_geom_bond_site_symmetry_2
C1 N1 1_555 1_555
C2 C3 1_555 1_555
C3 H1 1_555 1_555
C4 C3 1_555 1_555
C5 C4 1_555 1_555
H2 C5 1_555 1_555
C6 C5 1_555 1_555
C7 C2 1_555 1_555
H3 C7 1_555 1_555
C8 C6 1_555 1_555
C9 C4 1_555 1_555
Cu1 O3 1_555 1_555
N1 N2 1_555 1_555
N2 N3 1_555 1_555
N3 N4 1_555 1_555
N4 C1 1_555 1_555
N5 C1 1_555 1_555
H4 N5 1_555 1_555
H5 N5 1_555 1_555
O1 C8 1_555 1_555
O2 C8 1_555 1_555
O3 C9 1_555 1_555
O4 C9 1_555 1_555
Cu1C Cu1 1_555 1_555
Cu1E O1 1_555 1_555
Cu1F O2 1_555 1_555
Cu1G N1 1_555 1_555
N1G Cu1 1_555 1_555
O1E Cu1 1_555 1_555
O2F Cu1 1_555 1_555
O4C Cu1 1_555 1_555
C2 N4 1_555 1_555
C6 C7 1_555 1_555
O4 Cu1C 1_555 1_555
Cu1E Cu1F 1_555 1_555

#END
