
#######################################################################
#
#                 Cambridge Crystallographic Data Centre
#                                CCDC 
#
#######################################################################
#
# If this CIF has been generated from an entry in the Cambridge 
# Structural Database, then it will include bibliographic, chemical, 
# crystal, experimental, refinement or atomic coordinate data resulting 
# from the CCDC's data processing and validation procedures.
#
#######################################################################

data_QUJTAS
_symmetry_cell_setting           monoclinic
_symmetry_space_group_name_H-M   'P 21/c'
_symmetry_Int_Tables_number      14
_space_group_name_Hall           '-P 2ybc'
loop_
_symmetry_equiv_pos_site_id
_symmetry_equiv_pos_as_xyz
1 x,y,z
2 -x,1/2+y,1/2-z
3 -x,-y,-z
4 x,1/2-y,1/2+z
_cell_length_a                   10.05130(10)
_cell_length_b                   28.1929(2)
_cell_length_c                   12.21890(10)
_cell_angle_alpha                90
_cell_angle_beta                 112.2430(10)
_cell_angle_gamma                90
_cell_volume                     3204.88
loop_
_atom_site_label
_atom_site_type_symbol
_atom_site_fract_x
_atom_site_fract_y
_atom_site_fract_z
Cu1 Cu 1.42891(7) 0.48848(2) 0.56756(6)
Cl1 Cl 1.33802(13) 0.53898(4) 0.38877(11)
N1 N 1.2861(4) 0.43487(12) 0.5147(3)
N2 N 0.5788(4) 0.03091(14) 0.8025(3)
N3 N 0.1866(5) 0.18546(18) -0.4663(3)
N4 N 0.6680(4) 0.21271(12) 0.2775(3)
C1 C 1.2529(5) 0.40867(15) 0.5911(4)
H1 H 1.2995 0.4155 0.6730
C2 C 1.1537(5) 0.37172(15) 0.5580(4)
H2 H 1.1341 0.3539 0.6161
C3 C 1.0837(4) 0.36134(14) 0.4384(3)
C4 C 1.1194(5) 0.38856(15) 0.3584(4)
H3 H 1.0749 0.3824 0.2760
C5 C 1.2198(5) 0.42469(15) 0.3991(4)
H4 H 1.2427 0.4429 0.3432
C6 C 0.9751(4) 0.32294(13) 0.3978(3)
C7 C 0.8830(4) 0.31242(14) 0.4565(3)
H5 H 0.8905 0.3301 0.5248
C8 C 0.7816(4) 0.27686(14) 0.4170(3)
H6 H 0.7192 0.2707 0.4574
C9 C 0.7702(4) 0.24988(13) 0.3177(3)
C10 C 0.8614(5) 0.26024(14) 0.2583(4)
H7 H 0.8548 0.2423 0.1906
C11 C 0.9608(4) 0.29630(14) 0.2974(4)
H8 H 1.0209 0.3032 0.2553
C12 C 0.4995(5) 0.02248(16) 0.6883(4)
H9 H 0.4341 -0.0034 0.6695
C13 C 0.5076(5) 0.04961(15) 0.5956(4)
H10 H 0.4478 0.0425 0.5161
C14 C 0.6038(5) 0.08703(15) 0.6206(4)
C15 C 0.6861(5) 0.09597(17) 0.7390(4)
H11 H 0.7525 0.1216 0.7598
C16 C 0.6719(5) 0.06769(18) 0.8268(4)
H12 H 0.7297 0.0744 0.9070
C17 C 0.6210(5) 0.11715(14) 0.5269(4)
C18 C 0.5054(5) 0.12614(14) 0.4197(4)
H13 H 0.4157 0.1108 0.4034
C19 C 0.5214(5) 0.15725(14) 0.3376(3)
H14 H 0.4419 0.1635 0.2661
C20 C 0.6526(4) 0.17952(13) 0.3584(3)
C21 C 0.7695(4) 0.16903(15) 0.4626(4)
H15 H 0.8608 0.1828 0.4765
C22 C 0.7527(5) 0.13868(15) 0.5454(4)
H16 H 0.8326 0.1324 0.6165
C23 C 0.1813(5) 0.2251(2) -0.4074(4)
H17 H 0.1233 0.2506 -0.4505
C24 C 0.2564(5) 0.23089(17) -0.2864(4)
H18 H 0.2480 0.2597 -0.2491
C25 C 0.3438(4) 0.19466(15) -0.2198(3)
C26 C 0.3496(5) 0.15359(17) -0.2820(4)
H19 H 0.4077 0.1276 -0.2417
C27 C 0.2701(6) 0.1509(2) -0.4027(4)
H20 H 0.2759 0.1224 -0.4424
C28 C 0.4269(4) 0.19902(14) -0.0902(3)
C29 C 0.4419(4) 0.24291(14) -0.0335(4)
H21 H 0.3963 0.2701 -0.0779
C30 C 0.5221(4) 0.24744(14) 0.0865(4)
H22 H 0.5331 0.2778 0.1228
C31 C 0.5868(4) 0.20801(13) 0.1543(3)
C32 C 0.5712(4) 0.16390(13) 0.0995(3)
H23 H 0.6144 0.1366 0.1447
C33 C 0.4927(4) 0.15973(13) -0.0210(3)
H24 H 0.4834 0.1295 -0.0574
Cu1A Cu 0.57109(7) -0.01152(2) 0.93244(6)
Cu1B Cu 1.57109(7) 0.51152(2) 0.43244(6)
Cl1B Cl 1.66198(13) 0.46102(4) 0.61123(11)
N2A N 1.4212(4) 0.53091(14) 0.6975(3)
O1 O 0.9604(11) 0.3679(4) 0.7729(10)
C34 C 1.0962(8) 0.3401(3) 0.7941(7)
H25 H 1.1698 0.3612 0.7869
H26 H 1.0762 0.3146 0.7355
H27 H 1.1307 0.3263 0.8737
O2 O 0.9388(6) 0.4486(2) 0.7352(5)
O3? O 0.983(3) 0.4769(10) 0.628(2)
C35? C 1.002(3) 0.4977(11) 0.530(2)
H28? H 1.0089 0.5323 0.5401
H29? H 0.9207 0.4898 0.4577
H30? H 1.0913 0.4857 0.5248
O4? O 1.1805(10) 0.4446(3) 0.8412(9)
C36? C 1.117(3) 0.4837(8) 0.775(3)
H31? H 1.0215 0.4884 0.7781
H32? H 1.1067 0.4788 0.6931
H33? H 1.1763 0.5117 0.8073
O5? O 1.008(3) 0.4960(11) -0.012(2)
C37? C 1.087(5) 0.4665(17) 0.083(4)
H34? H 1.1769 0.4573 0.0760
H35? H 1.0302 0.4380 0.0822
H36? H 1.1075 0.4835 0.1577
loop_
_geom_bond_atom_site_label_1
_geom_bond_atom_site_label_2
_geom_bond_site_symmetry_1
_geom_bond_site_symmetry_2
Cu1 Cl1 1_555 1_555
Cl1 Cu1B 1_555 1_555
N1 Cu1 1_555 1_555
N2 C12 1_555 1_555
N3 C23 1_555 1_555
N4 C9 1_555 1_555
C1 N1 1_555 1_555
H1 C1 1_555 1_555
C2 C1 1_555 1_555
H2 C2 1_555 1_555
C3 C2 1_555 1_555
C4 C3 1_555 1_555
H3 C4 1_555 1_555
C5 N1 1_555 1_555
H4 C5 1_555 1_555
C6 C3 1_555 1_555
C7 C6 1_555 1_555
H5 C7 1_555 1_555
C8 C7 1_555 1_555
H6 C8 1_555 1_555
C9 C8 1_555 1_555
C10 C9 1_555 1_555
H7 C10 1_555 1_555
C11 C6 1_555 1_555
H8 C11 1_555 1_555
C12 H9 1_555 1_555
C13 C12 1_555 1_555
H10 C13 1_555 1_555
C14 C13 1_555 1_555
C15 C14 1_555 1_555
H11 C15 1_555 1_555
C16 N2 1_555 1_555
H12 C16 1_555 1_555
C17 C14 1_555 1_555
C18 C17 1_555 1_555
H13 C18 1_555 1_555
C19 C18 1_555 1_555
H14 C19 1_555 1_555
C20 N4 1_555 1_555
C21 C20 1_555 1_555
H15 C21 1_555 1_555
C22 C17 1_555 1_555
H16 C22 1_555 1_555
C23 H17 1_555 1_555
C24 C23 1_555 1_555
H18 C24 1_555 1_555
C25 C24 1_555 1_555
C26 C25 1_555 1_555
H19 C26 1_555 1_555
C27 N3 1_555 1_555
H20 C27 1_555 1_555
C28 C25 1_555 1_555
C29 C28 1_555 1_555
H21 C29 1_555 1_555
C30 C29 1_555 1_555
H22 C30 1_555 1_555
C31 N4 1_555 1_555
C32 C31 1_555 1_555
H23 C32 1_555 1_555
C33 C28 1_555 1_555
H24 C33 1_555 1_555
O1 C34 1_555 1_555
C34 H25 1_555 1_555
H26 C34 1_555 1_555
H27 C34 1_555 1_555
Cu1A N2 1_555 1_555
Cu1B Cl1B 1_555 1_555
Cl1B Cu1 1_555 1_555
N2A Cu1 1_555 1_555
C4 C5 1_555 1_555
C10 C11 1_555 1_555
C15 C16 1_555 1_555
C19 C20 1_555 1_555
C21 C22 1_555 1_555
C26 C27 1_555 1_555
C30 C31 1_555 1_555
C32 C33 1_555 1_555

#END
