
#######################################################################
#
#                 Cambridge Crystallographic Data Centre
#                                CCDC 
#
#######################################################################
#
# If this CIF has been generated from an entry in the Cambridge 
# Structural Database, then it will include bibliographic, chemical, 
# crystal, experimental, refinement or atomic coordinate data resulting 
# from the CCDC's data processing and validation procedures.
#
#######################################################################

data_QUJTEW
_symmetry_cell_setting           monoclinic
_symmetry_space_group_name_H-M   'P 21/c'
_symmetry_Int_Tables_number      14
_space_group_name_Hall           '-P 2ybc'
loop_
_symmetry_equiv_pos_site_id
_symmetry_equiv_pos_as_xyz
1 x,y,z
2 -x,1/2+y,1/2-z
3 -x,-y,-z
4 x,1/2-y,1/2+z
_cell_length_a                   10.05130(10)
_cell_length_b                   28.1929(2)
_cell_length_c                   12.21890(10)
_cell_angle_alpha                90
_cell_angle_beta                 112.2430(10)
_cell_angle_gamma                90
_cell_volume                     3204.88
loop_
_atom_site_label
_atom_site_type_symbol
_atom_site_fract_x
_atom_site_fract_y
_atom_site_fract_z
Cu1 Cu 1.42905(5) 0.48846(2) 0.56771(4)
Cl1 Cl 1.33799(9) 0.53896(3) 0.38859(7)
N1 N 1.2865(2) 0.43487(8) 0.5152(2)
N2 N 0.5795(3) 0.03093(9) 0.8026(2)
N3 N 0.1868(3) 0.18586(11) -0.4661(2)
N4 N 0.6678(3) 0.21272(8) 0.27744(18)
C1 C 1.2528(3) 0.40848(10) 0.5914(2)
H1 H 1.2995 0.4152 0.6733
C2 C 1.1536(3) 0.37181(10) 0.5580(2)
H2 H 1.1337 0.3540 0.6161
C3 C 1.0836(3) 0.36136(9) 0.4386(2)
C4 C 1.1193(3) 0.38850(10) 0.3584(2)
H3 H 1.0751 0.3823 0.2760
C5 C 1.2193(3) 0.42452(10) 0.3994(2)
H4 H 1.2418 0.4428 0.3434
C6 C 0.9756(3) 0.32292(9) 0.3980(2)
C7 C 0.8836(3) 0.31231(9) 0.4567(2)
H5 H 0.8913 0.3299 0.5252
C8 C 0.7818(3) 0.27679(9) 0.4168(2)
H6 H 0.7194 0.2706 0.4573
C9 C 0.7700(3) 0.24997(8) 0.3174(2)
C10 C 0.8610(3) 0.26013(9) 0.2584(2)
H7 H 0.8545 0.2421 0.1909
C11 C 0.9609(3) 0.29636(9) 0.2975(2)
H8 H 1.0207 0.3033 0.2552
C12 C 0.4988(4) 0.02266(11) 0.6882(3)
H9 H 0.4325 -0.0030 0.6695
C13 C 0.5072(3) 0.04963(10) 0.5959(3)
H10 H 0.4469 0.0426 0.5165
C14 C 0.6043(3) 0.08706(10) 0.6202(2)
C15 C 0.6863(3) 0.09571(11) 0.7392(3)
H11 H 0.7530 0.1212 0.7606
C16 C 0.6712(4) 0.06744(12) 0.8258(3)
H12 H 0.7287 0.0742 0.9061
C17 C 0.6204(3) 0.11721(9) 0.5267(2)
C18 C 0.5061(3) 0.12615(9) 0.4197(2)
H13 H 0.4165 0.1107 0.4031
C19 C 0.5220(3) 0.15726(9) 0.3378(2)
H14 H 0.4424 0.1634 0.2665
C20 C 0.6527(3) 0.17965(9) 0.3580(2)
C21 C 0.7700(3) 0.16892(10) 0.4626(2)
H15 H 0.8615 0.1825 0.4767
C22 C 0.7525(3) 0.13858(10) 0.5449(2)
H16 H 0.8324 0.1321 0.6157
C23 C 0.1818(3) 0.22507(13) -0.4072(3)
H17 H 0.1237 0.2506 -0.4504
C24 C 0.2563(3) 0.23103(11) -0.2864(3)
H18 H 0.2474 0.2598 -0.2493
C25 C 0.3441(3) 0.19474(10) -0.2195(2)
C26 C 0.3497(3) 0.15375(11) -0.2825(3)
H19 H 0.4084 0.1278 -0.2427
C27 C 0.2702(4) 0.15108(13) -0.4023(3)
H20 H 0.2752 0.1226 -0.4420
C28 C 0.4265(3) 0.19896(9) -0.0901(2)
C29 C 0.4420(3) 0.24293(9) -0.0332(2)
H21 H 0.3966 0.2701 -0.0777
C30 C 0.5223(3) 0.24752(9) 0.0867(2)
H22 H 0.5333 0.2778 0.1232
C31 C 0.5869(3) 0.20789(9) 0.1540(2)
C32 C 0.5711(3) 0.16387(9) 0.0989(2)
H23 H 0.6144 0.1366 0.1439
C33 C 0.4925(3) 0.15970(9) -0.0213(2)
H24 H 0.4833 0.1295 -0.0578
Cu1A Cu 0.57095(5) -0.01154(2) 0.93229(4)
Cu1B Cu 1.57095(5) 0.51154(2) 0.43229(4)
Cl1B Cl 1.66201(9) 0.46104(3) 0.61141(7)
N2A N 1.4205(3) 0.53093(9) 0.6974(2)
loop_
_geom_bond_atom_site_label_1
_geom_bond_atom_site_label_2
_geom_bond_site_symmetry_1
_geom_bond_site_symmetry_2
Cu1 Cl1 1_555 1_555
Cl1 Cu1B 1_555 1_555
N1 Cu1 1_555 1_555
N2 C12 1_555 1_555
N3 C23 1_555 1_555
N4 C9 1_555 1_555
C1 N1 1_555 1_555
H1 C1 1_555 1_555
C2 C1 1_555 1_555
H2 C2 1_555 1_555
C3 C2 1_555 1_555
C4 C3 1_555 1_555
H3 C4 1_555 1_555
C5 N1 1_555 1_555
H4 C5 1_555 1_555
C6 C3 1_555 1_555
C7 C6 1_555 1_555
H5 C7 1_555 1_555
C8 C7 1_555 1_555
H6 C8 1_555 1_555
C9 C8 1_555 1_555
C10 C9 1_555 1_555
H7 C10 1_555 1_555
C11 C6 1_555 1_555
H8 C11 1_555 1_555
C12 H9 1_555 1_555
C13 C12 1_555 1_555
H10 C13 1_555 1_555
C14 C13 1_555 1_555
C15 C14 1_555 1_555
H11 C15 1_555 1_555
C16 N2 1_555 1_555
H12 C16 1_555 1_555
C17 C14 1_555 1_555
C18 C17 1_555 1_555
H13 C18 1_555 1_555
C19 C18 1_555 1_555
H14 C19 1_555 1_555
C20 N4 1_555 1_555
C21 C20 1_555 1_555
H15 C21 1_555 1_555
C22 C17 1_555 1_555
H16 C22 1_555 1_555
C23 H17 1_555 1_555
C24 C23 1_555 1_555
H18 C24 1_555 1_555
C25 C24 1_555 1_555
C26 C25 1_555 1_555
H19 C26 1_555 1_555
C27 N3 1_555 1_555
H20 C27 1_555 1_555
C28 C25 1_555 1_555
C29 C28 1_555 1_555
H21 C29 1_555 1_555
C30 C29 1_555 1_555
H22 C30 1_555 1_555
C31 N4 1_555 1_555
C32 C31 1_555 1_555
H23 C32 1_555 1_555
C33 C28 1_555 1_555
H24 C33 1_555 1_555
Cu1A N2 1_555 1_555
Cu1B Cu1 1_555 1_555
Cl1B Cu1 1_555 1_555
N2A Cu1 1_555 1_555
C4 C5 1_555 1_555
C10 C11 1_555 1_555
C15 C16 1_555 1_555
C19 C20 1_555 1_555
C21 C22 1_555 1_555
C26 C27 1_555 1_555
C30 C31 1_555 1_555
C32 C33 1_555 1_555
Cu1B Cl1B 1_555 1_555

#END
