
#######################################################################
#
#                 Cambridge Crystallographic Data Centre
#                                CCDC 
#
#######################################################################
#
# If this CIF has been generated from an entry in the Cambridge 
# Structural Database, then it will include bibliographic, chemical, 
# crystal, experimental, refinement or atomic coordinate data resulting 
# from the CCDC's data processing and validation procedures.
#
#######################################################################

data_QUJVIC
_symmetry_cell_setting           monoclinic
_symmetry_space_group_name_H-M   'P 21/n'
_symmetry_Int_Tables_number      14
_space_group_name_Hall           '-P 2yn'
loop_
_symmetry_equiv_pos_site_id
_symmetry_equiv_pos_as_xyz
1 x,y,z
2 1/2-x,1/2+y,1/2-z
3 -x,-y,-z
4 1/2+x,1/2-y,1/2+z
_cell_length_a                   8.0279(6)
_cell_length_b                   13.2100(10)
_cell_length_c                   17.6516(13)
_cell_angle_alpha                90
_cell_angle_beta                 91.5900(10)
_cell_angle_gamma                90
_cell_volume                     1871.21
loop_
_atom_site_label
_atom_site_type_symbol
_atom_site_fract_x
_atom_site_fract_y
_atom_site_fract_z
U1 U 0.82965(3) 0.33124(2) 0.36157(2)
S1 S 1.3323(2) 0.45370(13) 0.17824(11)
O1 O 0.9235(6) 0.4033(3) 0.4352(3)
O2 O 1.0813(6) 0.3428(3) 0.2821(3)
C1 C 0.1698(9) 0.6648(5) 0.3744(4)
H1 H 0.1910 0.7245 0.3431
H2 H 0.1537 0.6861 0.4269
H3 H 0.0694 0.6301 0.3552
O3 O 0.8934(6) 0.4619(4) 0.2731(3)
O4 O 0.7306(6) 0.2594(4) 0.2900(3)
O5 O 1.6324(8) 0.5371(4) 0.0952(5)
O6 O 1.5425(6) 0.6950(3) 0.0915(3)
C2 C 0.4734(8) 0.1644(5) 0.5321(4)
H4 H 0.4831 0.1013 0.5576
C3 C 0.4532(8) 0.6133(5) 0.3295(4)
H5 H 0.4587 0.6740 0.3008
C4 C 1.3641(8) 0.5727(5) 0.1408(4)
N1 N 0.5840(6) 0.4580(4) 0.3672(3)
C5 C 0.3158(8) 0.5942(5) 0.3716(3)
C6 C 1.5258(9) 0.5989(5) 0.1060(5)
N2 N 0.5907(6) 0.2827(4) 0.4457(3)
C7 C 0.5949(8) 0.1949(5) 0.4833(4)
H6 H 0.6868 0.1510 0.4760
C8 C 0.5839(8) 0.5453(5) 0.3283(4)
H7 H 0.6775 0.5610 0.2987
C9 C 0.4561(7) 0.3433(5) 0.4548(3)
C10 C 1.0339(8) 0.4263(5) 0.2558(4)
C11 C 0.4514(7) 0.4395(4) 0.4106(3)
C12 C 0.3182(7) 0.5042(5) 0.4126(3)
H8 H 0.2257 0.4873 0.4425
C13 C 0.3304(7) 0.3161(4) 0.5032(4)
H9 H 0.2376 0.3599 0.5087
C14 C 1.1373(7) 0.4886(5) 0.2073(4)
C15 C 0.3380(7) 0.2258(5) 0.5439(4)
C16 C 1.2328(8) 0.6340(5) 0.1488(4)
H10 H 1.2282 0.7019 0.1311
C17 C 1.1032(8) 0.5862(6) 0.1864(4)
H11 H 1.0006 0.6187 0.1965
C18 C 0.2054(9) 0.1979(6) 0.5965(5)
H12 H 0.2416 0.1395 0.6269
H13 H 0.1037 0.1806 0.5674
H14 H 0.1831 0.2552 0.6300
U1A U 1.67035(3) 0.83124(2) 0.13843(2)
O6A O 0.9575(6) 0.1950(3) 0.4085(3)
loop_
_geom_bond_atom_site_label_1
_geom_bond_atom_site_label_2
_geom_bond_site_symmetry_1
_geom_bond_site_symmetry_2
U1 O1 1_555 1_555
S1 C4 1_555 1_555
O2 U1 1_555 1_555
C1 H1 1_555 1_555
H2 C1 1_555 1_555
H3 C1 1_555 1_555
O3 U1 1_555 1_555
O4 U1 1_555 1_555
O5 C6 1_555 1_555
O6 C6 1_555 1_555
C2 H4 1_555 1_555
C3 H5 1_555 1_555
C4 C6 1_555 1_555
N1 U1 1_555 1_555
C5 C1 1_555 1_555
N2 U1 1_555 1_555
C7 C2 1_555 1_555
H6 C7 1_555 1_555
C8 C3 1_555 1_555
H7 C8 1_555 1_555
C9 N2 1_555 1_555
C10 O2 1_555 1_555
C11 N1 1_555 1_555
C12 C5 1_555 1_555
H8 C12 1_555 1_555
C13 C9 1_555 1_555
H9 C13 1_555 1_555
C14 S1 1_555 1_555
C15 C2 1_555 1_555
C16 C4 1_555 1_555
H10 C16 1_555 1_555
C17 C14 1_555 1_555
H11 C17 1_555 1_555
C18 C15 1_555 1_555
H12 C18 1_555 1_555
H13 C18 1_555 1_555
H14 C18 1_555 1_555
U1A O6 1_555 1_555
O6A U1 1_555 1_555
O3 C10 1_555 1_555
C3 C5 1_555 1_555
N1 C8 1_555 1_555
N2 C7 1_555 1_555
C9 C11 1_555 1_555
C10 C14 1_555 1_555
C11 C12 1_555 1_555
C13 C15 1_555 1_555
C16 C17 1_555 1_555

#END
