
#######################################################################
#
#                 Cambridge Crystallographic Data Centre
#                                CCDC 
#
#######################################################################
#
# If this CIF has been generated from an entry in the Cambridge 
# Structural Database, then it will include bibliographic, chemical, 
# crystal, experimental, refinement or atomic coordinate data resulting 
# from the CCDC's data processing and validation procedures.
#
#######################################################################

data_QUJVUO
_symmetry_cell_setting           monoclinic
_symmetry_space_group_name_H-M   'C 2/c'
_symmetry_Int_Tables_number      15
_space_group_name_Hall           '-C 2yn'
loop_
_symmetry_equiv_pos_site_id
_symmetry_equiv_pos_as_xyz
1 x,y,z
2 -x,y,1/2-z
3 1/2+x,1/2+y,z
4 1/2-x,1/2+y,1/2-z
5 -x,-y,-z
6 x,-y,1/2+z
7 1/2-x,1/2-y,-z
8 1/2+x,1/2-y,1/2+z
_cell_length_a                   7.707(2)
_cell_length_b                   36.226(11)
_cell_length_c                   33.863(10)
_cell_angle_alpha                90
_cell_angle_beta                 94.679(5)
_cell_angle_gamma                90
_cell_volume                     9422.83
loop_
_atom_site_label
_atom_site_type_symbol
_atom_site_fract_x
_atom_site_fract_y
_atom_site_fract_z
U1 U 0.37658(6) 0.36735(2) 0.33470(2)
U2 U 1.12321(6) 0.42347(2) 0.61030(2)
S1 S 0.3324(4) 0.22175(7) 0.36719(13)
S2 S 0.2584(4) 0.47727(6) 0.22861(9)
S3 S 0.7771(4) 0.39020(7) 0.47134(11)
O1 O 0.5591(11) 0.3548(2) 0.3094(3)
O2 O 0.1910(11) 0.3789(2) 0.3599(3)
O3 O 0.2255(13) 0.3122(2) 0.3059(3)
O4 O 0.3763(12) 0.3038(2) 0.3634(3)
O5 O 0.5565(13) 0.3638(2) 0.3982(3)
O6 O 0.5403(11) 0.4171(2) 0.3689(3)
O7 O 0.3535(12) 0.42475(18) 0.2970(2)
O8 O 0.2148(11) 0.37645(18) 0.2706(2)
O9 O 0.2497(13) 0.1187(2) 0.3361(4)
O10 O 0.3549(14) 0.1440(2) 0.3927(3)
O11 O 1.3295(13) 0.4287(3) 0.5925(3)
O12 O 0.9175(14) 0.4183(3) 0.6274(3)
O13 O 1.0014(13) 0.3963(2) 0.5477(3)
O14 O 1.0049(14) 0.4571(2) 0.5506(3)
O15 O 0.2213(12) 0.54251(19) 0.1715(3)
O16 O 0.0958(13) 0.5108(2) 0.1216(3)
C1 C 0.2883(19) 0.1472(3) 0.3591(6)
C2 C 0.2567(19) 0.1842(3) 0.3412(5)
C3 C 0.176(2) 0.1948(4) 0.3056(6)
H1 H 0.1237 0.1777 0.2870
C4 C 0.178(2) 0.2330(3) 0.2990(5)
H2 H 0.1304 0.2448 0.2755
C5 C 0.2578(16) 0.2509(3) 0.3305(5)
C6 C 0.2884(17) 0.2908(3) 0.3332(5)
C7 C 0.2641(16) 0.4104(3) 0.2686(4)
C8 C 0.2132(14) 0.4310(3) 0.2312(4)
C9 C 0.1312(15) 0.4168(3) 0.1978(3)
H3 H 0.0965 0.3918 0.1944
C10 C 0.1044(15) 0.4446(3) 0.1687(4)
H4 H 0.0471 0.4402 0.1432
C11 C 0.1688(15) 0.4786(2) 0.1806(3)
C12 C 0.5979(15) 0.3978(3) 0.3978(4)
C13 C 0.7027(16) 0.4149(3) 0.4304(4)
C14 C 0.7514(16) 0.4512(3) 0.4325(4)
H5 H 0.7224 0.4687 0.4123
C15 C 0.8522(17) 0.4596(3) 0.4693(4)
H6 H 0.8988 0.4833 0.4761
C16 C 0.8717(16) 0.4294(3) 0.4929(4)
C17 C 0.9652(18) 0.4272(3) 0.5313(4)
C18 C 0.1606(16) 0.5125(3) 0.1573(4)
U2E U 0.12321(6) 0.57653(2) 0.11030(2)
U2F U 0.37679(6) 0.07653(2) 0.38970(2)
O9F O 1.2503(13) 0.3813(2) 0.6639(4)
O10F O 1.1451(14) 0.3560(2) 0.6073(3)
O15E O 1.2213(12) 0.45749(19) 0.6715(3)
O16E O 1.0958(13) 0.4892(2) 0.6216(3)
N1 N 0.442(2) 0.5072(4) 0.4477(5)
H7 H 0.4852 0.5290 0.4425
C19 C 0.468(2) 0.4927(5) 0.4858(5)
C20 C 0.400(3) 0.4583(6) 0.4941(5)
H8 H 0.4174 0.4484 0.5201
C21 C 0.307(3) 0.4384(5) 0.4644(7)
H9 H 0.2606 0.4148 0.4700
C22 C 0.281(2) 0.4529(6) 0.4263(6)
H10 H 0.2177 0.4392 0.4060
C23 C 0.349(2) 0.4873(5) 0.4180(4)
C24 C 0.350(5) 0.5053(10) 0.3793(9)
H11 H 0.2428 0.5197 0.3741
H12 H 0.3563 0.4865 0.3587
H13 H 0.4509 0.5217 0.3793
N1D N 0.558(2) 0.4928(4) 0.5523(5)
H7D H 0.5148 0.4710 0.5575
C19D C 0.532(2) 0.5073(5) 0.5142(5)
C20D C 0.600(3) 0.5417(6) 0.5059(5)
H8D H 0.5826 0.5516 0.4799
C21D C 0.693(3) 0.5616(5) 0.5356(7)
H9D H 0.7394 0.5852 0.5300
C22D C 0.719(2) 0.5471(6) 0.5737(6)
H10D H 0.7823 0.5608 0.5940
C23D C 0.651(2) 0.5127(5) 0.5820(4)
C24D C 0.650(5) 0.4947(10) 0.6207(9)
H11D H 0.7572 0.4803 0.6259
H12D H 0.6437 0.5135 0.6413
H13D H 0.5491 0.4783 0.6207
O17 O 0.0000 0.3285(2) 0.2500
O18 O 0.187(2) 0.2990(7) 0.2096(7)
O19 O 0.925(5) 0.3229(7) 0.3870(17)
O20 O 0.404(6) 0.1372(8) 0.2085(12)
O21 O 0.5000 0.2922(9) 0.2500
N2? N 0.412(4) 0.4474(8) 0.4955(7)
H14? H 0.4613 0.4393 0.5182
C25? C 0.432(4) 0.4840(7) 0.4847(8)
C26? C 0.354(3) 0.4969(6) 0.4489(8)
H15? H 0.3675 0.5219 0.4414
C27? C 0.255(3) 0.4731(8) 0.4239(6)
H16? H 0.2014 0.4818 0.3994
C28? C 0.235(3) 0.4364(8) 0.4348(7)
H17? H 0.1672 0.4201 0.4177
C29? C 0.313(4) 0.4236(6) 0.4706(7)
C30? C 0.291(6) 0.3868(10) 0.4871(12)
H18? H 0.3692 0.3839 0.5112
H19? H 0.3181 0.3681 0.4677
H20? H 0.1700 0.3837 0.4937
loop_
_geom_bond_atom_site_label_1
_geom_bond_atom_site_label_2
_geom_bond_site_symmetry_1
_geom_bond_site_symmetry_2
U1 O1 1_555 1_555
U2 O11 1_555 1_555
S1 C2 1_555 1_555
S2 C8 1_555 1_555
S3 C13 1_555 1_555
O2 U1 1_555 1_555
O3 U1 1_555 1_555
O4 U1 1_555 1_555
O5 U1 1_555 1_555
O6 U1 1_555 1_555
O7 U1 1_555 1_555
O8 U1 1_555 1_555
O9 C1 1_555 1_555
O10 C1 1_555 1_555
O12 U2 1_555 1_555
O13 U2 1_555 1_555
O14 U2 1_555 1_555
O15 C18 1_555 1_555
O16 C18 1_555 1_555
C1 C2 1_555 1_555
C2 C3 1_555 1_555
C3 H1 1_555 1_555
C4 C3 1_555 1_555
H2 C4 1_555 1_555
C5 S1 1_555 1_555
C6 O3 1_555 1_555
C7 O7 1_555 1_555
C8 C7 1_555 1_555
C9 C8 1_555 1_555
H3 C9 1_555 1_555
C10 C9 1_555 1_555
H4 C10 1_555 1_555
C11 S2 1_555 1_555
C12 O5 1_555 1_555
C13 C12 1_555 1_555
C14 C13 1_555 1_555
H5 C14 1_555 1_555
C15 C14 1_555 1_555
H6 C15 1_555 1_555
C16 S3 1_555 1_555
C17 O13 1_555 1_555
C18 C11 1_555 1_555
N1 H7 1_555 1_555
C19 N1 1_555 1_555
C20 C19 1_555 1_555
H8 C20 1_555 1_555
C21 C20 1_555 1_555
H9 C21 1_555 1_555
C22 C21 1_555 1_555
H10 C22 1_555 1_555
C23 N1 1_555 1_555
C24 C23 1_555 1_555
H11 C24 1_555 1_555
H12 C24 1_555 1_555
H13 C24 1_555 1_555
U2E O15 1_555 1_555
U2F O9 1_555 1_555
O9F U2 1_555 1_555
O10F U2 1_555 1_555
O15E U2 1_555 1_555
O16E U2 1_555 1_555
N1D H7D 1_555 1_555
C19D C19 1_555 1_555
C20D C19D 1_555 1_555
H8D C20D 1_555 1_555
C21D C20D 1_555 1_555
H9D C21D 1_555 1_555
C22D C21D 1_555 1_555
H10D C22D 1_555 1_555
C23D N1D 1_555 1_555
C24D C23D 1_555 1_555
H11D C24D 1_555 1_555
H12D C24D 1_555 1_555
H13D C24D 1_555 1_555
O4 C6 1_555 1_555
O6 C12 1_555 1_555
O8 C7 1_555 1_555
O10 U2F 1_555 1_555
O14 C17 1_555 1_555
O16 U2E 1_555 1_555
C4 C5 1_555 1_555
C5 C6 1_555 1_555
C10 C11 1_555 1_555
C15 C16 1_555 1_555
C16 C17 1_555 1_555
C22 C23 1_555 1_555
N1D C19D 1_555 1_555
C22D C23D 1_555 1_555

#END
