
#######################################################################
#
#                 Cambridge Crystallographic Data Centre
#                                CCDC 
#
#######################################################################
#
# If this CIF has been generated from an entry in the Cambridge 
# Structural Database, then it will include bibliographic, chemical, 
# crystal, experimental, refinement or atomic coordinate data resulting 
# from the CCDC's data processing and validation procedures.
#
#######################################################################

data_QUJVEW
_symmetry_cell_setting           monoclinic
_symmetry_space_group_name_H-M   'P 21/n'
_symmetry_Int_Tables_number      14
_space_group_name_Hall           '-P 2yn'
loop_
_symmetry_equiv_pos_site_id
_symmetry_equiv_pos_as_xyz
1 x,y,z
2 1/2+x,1/2-y,1/2+z
3 -x,-y,-z
4 1/2-x,1/2+y,1/2-z
_cell_length_a                   7.396(3)
_cell_length_b                   11.498(7)
_cell_length_c                   12.349(9)
_cell_angle_alpha                90.00
_cell_angle_beta                 106.61(5)
_cell_angle_gamma                90.00
_cell_volume                     1006.33
loop_
_atom_site_label
_atom_site_type_symbol
_atom_site_fract_x
_atom_site_fract_y
_atom_site_fract_z
Mn1 Mn 0.04780(3) 0.94926(2) 0.751383(19)
N1 N 0.10809(19) 0.88120(11) 0.59018(11)
N2 N 0.0443(2) 0.90882(12) 0.39194(11)
N3 N -0.0586(2) 1.06275(16) 0.85987(15)
N4 N -0.3512(3) 1.0815(2) 0.90904(19)
N5 N -0.6644(2) 1.00998(17) 0.81084(16)
N6 N -0.2576(3) 0.88394(16) 0.67171(15)
N7 N -0.4121(3) 0.87345(16) 0.46786(14)
N8 N -0.3987(3) 0.71416(16) 0.33991(15)
C1 C 0.0417(2) 0.94203(12) 0.49479(13)
C2 C 0.1876(3) 0.77798(15) 0.58103(16)
C3 C 0.1961(3) 0.73580(16) 0.47856(17)
C4 C 0.1208(3) 0.80406(15) 0.38450(16)
C5 C -0.2006(3) 1.06872(15) 0.87793(14)
C6 C -0.5133(3) 1.04033(16) 0.85179(17)
C7 C -0.3299(2) 0.87309(15) 0.57629(15)
C8 C -0.3993(3) 0.78554(16) 0.40455(15)
H1 H 0.227(4) 0.734(2) 0.645(2)
H2 H 0.255(4) 0.666(2) 0.471(2)
H3 H 0.125(3) 0.787(2) 0.312(2)
C1B C -0.0417(2) 1.05797(12) 0.50521(13)
N1B N -0.10809(19) 1.11880(11) 0.40982(11)
C2B C -0.1876(3) 1.22202(15) 0.41897(16)
C3B C -0.1961(3) 1.26420(16) 0.52144(17)
C4B C -0.1208(3) 1.19594(15) 0.61550(16)
N2B N -0.0443(2) 1.09118(12) 0.60806(11)
H3B H -0.125(3) 1.213(2) 0.688(2)
H2B H -0.255(4) 1.334(2) 0.529(2)
H1B H -0.227(4) 1.266(2) 0.355(2)
N3_2 N 0.9414(2) 1.06275(16) 0.85987(15)
N4_2 N 0.6488(3) 1.0815(2) 0.90904(19)
N5_2 N 0.3356(2) 1.00998(17) 0.81084(16)
C5_2 C 0.7994(3) 1.06872(15) 0.87793(14)
C6_2 C 0.4867(3) 1.04033(16) 0.85179(17)
N6A N 0.2424(3) 0.61606(16) 1.17171(15)
N7A N 0.0879(3) 0.62655(16) 0.96786(14)
N8A N 0.1013(3) 0.78584(16) 0.83991(15)
C7A C 0.1701(2) 0.62691(15) 1.07629(15)
C8A C 0.1007(3) 0.71446(16) 0.90455(15)
Mn1B Mn -0.04780(3) 1.05074(2) 0.248617(19)
Mn1_2 Mn -0.95220(3) 0.94926(2) 0.751383(19)
Mn1A Mn -0.45220(3) 0.55074(2) 0.251383(19)
Mn1_3 Mn 1.04780(3) 0.94926(2) 0.751383(19)
Mn1A_2 Mn 0.54780(3) 0.55074(2) 1.251383(19)
N3B N 0.0586(2) 0.93725(16) 0.14013(15)
N5B N -0.3356(2) 0.99002(17) 0.18916(16)
N6B N 0.2576(3) 1.11606(16) 0.32829(15)
N8C N -0.1013(3) 1.21416(16) 0.16009(15)
loop_
_geom_bond_atom_site_label_1
_geom_bond_atom_site_label_2
_geom_bond_site_symmetry_1
_geom_bond_site_symmetry_2
Mn1 N1 1_555 1_555
N1 C1 1_555 1_555
N2 C1 1_555 1_555
N3 Mn1 1_555 1_555
N4 C5 1_555 1_555
N5 C6 1_555 1_555
N6 Mn1 1_555 1_555
N7 C7 1_555 1_555
N8 C8 1_555 1_555
C1 C1B 1_555 1_555
C2 N1 1_555 1_555
C3 C2 1_555 1_555
C4 N2 1_555 1_555
C5 N3 1_555 1_555
C6 N4 1_555 1_555
C7 N6 1_555 1_555
C8 N7 1_555 1_555
H1 C2 1_555 1_555
H2 C3 1_555 1_555
H3 C4 1_555 1_555
C1B N1B 1_555 1_555
N1B C2B 1_555 1_555
C2B C3B 1_555 1_555
C3B C4B 1_555 1_555
C4B N2B 1_555 1_555
N2B Mn1 1_555 1_555
H3B C4B 1_555 1_555
H2B C3B 1_555 1_555
H1B C2B 1_555 1_555
N3_2 C5_2 1_555 1_555
N4_2 C5_2 1_555 1_555
N5_2 Mn1 1_555 1_555
C6_2 N4_2 1_555 1_555
N6A C7A 1_555 1_555
N7A C7A 1_555 1_555
N8A Mn1 1_555 1_555
C8A N7A 1_555 1_555
Mn1B N2 1_555 1_555
Mn1_2 N5 1_555 1_555
Mn1A N8 1_555 1_555
Mn1_3 N3_2 1_555 1_555
Mn1A_2 N6A 1_555 1_555
N3B Mn1B 1_555 1_555
N5B Mn1B 1_555 1_555
N6B Mn1B 1_555 1_555
N8C Mn1B 1_555 1_555
C3 C4 1_555 1_555
C1B N2B 1_555 1_555
N1B Mn1B 1_555 1_555
N5_2 C6_2 1_555 1_555
N8A C8A 1_555 1_555

#END
