
#######################################################################
#
#                 Cambridge Crystallographic Data Centre
#                                CCDC 
#
#######################################################################
#
# If this CIF has been generated from an entry in the Cambridge 
# Structural Database, then it will include bibliographic, chemical, 
# crystal, experimental, refinement or atomic coordinate data resulting 
# from the CCDC's data processing and validation procedures.
#
#######################################################################

data_QUJVEY
_symmetry_cell_setting           triclinic
_symmetry_space_group_name_H-M   'P -1'
_symmetry_Int_Tables_number      2
_space_group_name_Hall           '-P 1'
loop_
_symmetry_equiv_pos_site_id
_symmetry_equiv_pos_as_xyz
1 x,y,z
2 -x,-y,-z
_cell_length_a                   8.4850(12)
_cell_length_b                   20.759(3)
_cell_length_c                   21.698(3)
_cell_angle_alpha                97.970(3)
_cell_angle_beta                 100.426(2)
_cell_angle_gamma                101.314(2)
_cell_volume                     3625.14
loop_
_atom_site_label
_atom_site_type_symbol
_atom_site_fract_x
_atom_site_fract_y
_atom_site_fract_z
O1 O 0.7276(13) 0.6726(6) 0.7030(6)
O2 O 0.3207(14) 1.3526(6) -0.1991(6)
O3 O 0.2134(14) 1.4494(6) -0.0746(6)
O4 O 0.8230(14) 0.5748(6) 0.5746(6)
O5 O 0.9973(16) 1.0888(6) 0.1049(7)
O6 O -0.3010(13) 0.7815(6) 0.3042(6)
O7 O 0.9468(14) 1.2241(6) 0.2104(6)
O8 O -0.0238(15) 0.9008(7) 0.3736(7)
O9 O 0.0145(16) 0.7623(7) 0.2673(6)
O10 O -0.0450(13) 0.7586(6) 0.3988(6)
O11 O -0.2352(13) 0.8495(8) 0.2405(7)
C1 C 0.5502(18) 1.3746(9) -0.0607(9)
C2 C 0.4987(19) 0.6532(9) 0.5638(8)
S1 S -0.6458(5) 0.7223(2) 0.2282(2)
C3 C -0.575(2) 0.8186(8) 0.1701(8)
H1 H -0.5156 0.8563 0.1572
C4 C -0.797(2) 0.7348(8) 0.1681(7)
C5 C -0.7404(18) 0.7881(8) 0.1426(8)
H2 H -0.8052 0.8033 0.1096
C6 C -0.3406(19) 0.8067(10) 0.2551(8)
C7 C 0.106(2) 0.7675(9) 0.4187(8)
C8 C -0.5082(18) 0.7885(8) 0.2174(8)
C9 C -0.958(2) 0.6895(8) 0.1534(9)
C10 C 0.607(2) 1.6206(10) -0.0983(12)
H3 H 0.6758 1.6483 -0.0607
C11 C 0.593(3) 1.6418(9) -0.1584(13)
H4 H 0.6605 1.6826 -0.1623
U1 U 0.77573(6) 0.62318(3) 0.64008(3)
U2 U -0.00527(6) 0.83248(3) 0.31831(3)
U3 U 0.97032(7) 1.15665(3) 0.15762(3)
U4 U 0.26370(6) 1.40119(3) -0.13762(3)
O12 O 0.4033(12) 1.3447(7) -0.0600(6)
O13 O 0.4778(14) 0.6054(6) 0.5931(6)
S2 S 0.3815(5) 0.7324(2) 0.4824(2)
S3 S 1.3946(5) 0.7456(2) 0.7391(2)
S4 S 0.6476(5) 1.2826(2) 0.0056(2)
S5 S 0.5291(5) 0.9907(2) 0.2569(2)
O14 O 0.5649(13) 1.4243(6) -0.0887(6)
O15 O 1.0729(13) 0.6564(5) 0.6842(6)
C12 C 1.7086(16) 0.8247(8) 0.7683(7)
O16 O 0.7912(16) 1.1901(7) 0.0716(7)
O17 O 1.7303(12) 0.7991(6) 0.8179(5)
O18 O 0.9691(12) 0.7234(6) 0.6246(5)
O19 O 0.6787(16) 1.1068(8) 0.1398(7)
O20 O -0.9706(12) 0.6358(5) 0.1778(6)
O21 O 1.8240(13) 0.8640(7) 0.7550(6)
O22 O 0.2808(13) 0.8993(7) 0.3150(6)
N1 N 0.6080(18) 0.5038(7) 0.6438(7)
O23 O 1.0526(14) 1.2390(6) 0.0869(6)
N2 N 0.8597(17) 0.5656(7) 0.7387(6)
C13 C 0.8496(19) 1.3737(9) -0.0268(8)
H5 H 0.8929 1.4111 -0.0444
N3 N 0.4090(17) 1.5190(6) -0.1496(7)
C14 C 1.2525(16) 0.7562(8) 0.6764(6)
C15 C 1.4830(19) 0.8357(9) 0.6755(8)
H6 H 1.5468 0.8716 0.6616
C16 C 0.946(2) 1.3361(9) 0.0047(8)
H7 H 1.0629 1.3449 0.0111
N4 N 0.1609(17) 1.4484(7) -0.2432(7)
O24 O 0.2037(13) 0.8100(7) 0.3984(7)
C17 C 0.6879(18) 1.3511(9) -0.0296(8)
C18 C 0.0871(18) 0.6813(8) 0.4923(8)
H8 H -0.0288 0.6727 0.4882
C19 C 0.1907(18) 0.6499(8) 0.5288(7)
H9 H 0.1518 0.6164 0.5518
C20 C 0.5358(18) 1.0360(9) 0.1972(9)
O25 O -1.0793(14) 0.7018(6) 0.1196(6)
C21 C 0.3538(18) 0.6717(8) 0.5287(8)
C22 C 0.3203(19) 0.9652(9) 0.2344(9)
C23 C 0.217(2) 0.9198(10) 0.2666(9)
O26 O 0.8288(14) 1.0747(7) 0.2175(6)
O27 O 0.0665(15) 0.9035(9) 0.2433(8)
C24 C 0.7576(19) 0.5110(8) 0.7488(8)
C25 C 0.780(3) 0.4892(9) 0.8074(9)
H10 H 0.7064 0.4515 0.8143
C26 C 1.3173(19) 0.8055(8) 0.6460(8)
H11 H 1.2582 0.8177 0.6097
C27 C 0.985(2) 0.5983(10) 0.7866(8)
H12 H 1.0541 0.6376 0.7800
C28 C 0.515(2) 1.5570(9) -0.0973(9)
H13 H 0.5277 1.5400 -0.0586
C29 C 0.906(2) 1.2359(9) 0.0625(8)
C30 C 0.853(2) 1.2849(8) 0.0256(7)
C31 C 0.6269(18) 0.4747(7) 0.6949(8)
C32 C 1.0866(18) 0.7102(8) 0.6586(7)
C33 C 0.090(3) 1.4837(11) -0.3612(10)
H14 H 0.0641 1.4963 -0.4016
C34 C -0.005(3) 1.4291(11) -0.3472(9)
H15 H -0.0974 1.4024 -0.3780
C35 C 0.388(2) 1.5427(8) -0.2044(9)
C36 C 0.402(2) 0.4059(9) 0.5876(11)
H16 H 0.3281 0.3824 0.5493
C37 C 0.255(2) 1.5030(8) -0.2568(8)
C38 C 0.034(2) 1.4133(10) -0.2879(8)
H17 H -0.0341 1.3754 -0.2784
C39 C 1.5434(17) 0.8078(8) 0.7267(8)
C40 C 0.496(2) 0.4696(9) 0.5911(10)
H18 H 0.4806 0.4903 0.5547
C41 C 0.224(3) 1.5202(10) -0.3157(9)
H19 H 0.2952 1.5572 -0.3251
C42 C 0.175(2) 0.7266(9) 0.4626(8)
C43 C 0.482(2) 1.6035(9) -0.2101(11)
H20 H 0.4694 1.6183 -0.2498
C44 C 0.6885(17) 1.0737(9) 0.1846(9)
C45 C 0.532(2) 0.4122(9) 0.6945(10)
H21 H 0.5453 0.3932 0.7320
C46 C 1.022(3) 0.5786(11) 0.8457(9)
H22 H 1.1160 0.6014 0.8776
C47 C 0.421(3) 0.3779(10) 0.6425(12)
H23 H 0.3562 0.3351 0.6430
C48 C 0.384(2) 1.0301(10) 0.1611(10)
H24 H 0.3632 1.0505 0.1248
C49 C 0.913(3) 0.5241(12) 0.8547(9)
H25 H 0.9294 0.5100 0.8948
C50 C 0.260(2) 0.9908(10) 0.1831(10)
H26 H 0.1466 0.9828 0.1643
O28 O 0.6432(13) 0.6848(6) 0.5634(6)
U3A U 2.02968(7) 0.84335(3) 0.84238(3)
U4A U -1.26370(6) 0.59881(3) 0.13762(3)
O17A O 1.2697(12) 1.2009(6) 0.1821(5)
O20A O -0.0294(12) 1.3642(5) -0.1778(6)
O21A O 1.1760(13) 1.1360(7) 0.2450(6)
O25A O 0.0793(14) 1.2982(6) -0.1196(6)
C51 C 0.894(2) 0.0518(9) 0.4353(8)
C52 C 0.778(2) 0.0016(9) 0.4549(8)
N5 N 0.765(2) 0.0125(9) 0.5169(8)
H27 H 0.8264 0.0484 0.5432
N6 N 0.979(2) 0.1047(10) 0.4788(10)
H28 H 0.9620 0.1081 0.5179
C53 C 0.672(2) -0.0533(10) 0.4133(9)
H29 H 0.6746 -0.0612 0.3693
C54 C 0.563(3) -0.0966(13) 0.4384(14)
H30 H 0.4874 -0.1336 0.4106
C55 C 0.922(2) 0.0459(11) 0.3747(9)
H31 H 0.8637 0.0081 0.3433
C56 C 0.657(3) -0.0316(14) 0.5382(12)
H32 H 0.6493 -0.0229 0.5815
C57 C 1.035(3) 0.0947(16) 0.3596(12)
H33 H 1.0550 0.0916 0.3177
C58 C 1.087(3) 0.1522(12) 0.4646(17)
H34 H 1.1431 0.1900 0.4962
C59 C 0.562(3) -0.0869(13) 0.5003(15)
H35 H 0.4949 -0.1191 0.5172
C60 C 1.118(3) 0.1473(12) 0.4054(19)
H36 H 1.1983 0.1812 0.3961
O29 O 0.410(3) 0.1685(12) 0.0715(9)
O30 O 0.799(3) 0.9303(15) 0.1386(13)
O31 O 0.709(3) 0.8879(12) 0.0334(11)
loop_
_geom_bond_atom_site_label_1
_geom_bond_atom_site_label_2
_geom_bond_site_symmetry_1
_geom_bond_site_symmetry_2
O1 U1 1_555 1_555
O2 U4 1_555 1_555
O3 U4 1_555 1_555
O4 U1 1_555 1_555
O5 U3 1_555 1_555
O6 C6 1_555 1_555
O7 U3 1_555 1_555
O8 U2 1_555 1_555
O9 U2 1_555 1_555
O10 C7 1_555 1_555
O11 C6 1_555 1_555
C1 O12 1_555 1_555
C2 O13 1_555 1_555
S1 C4 1_555 1_555
C3 H1 1_555 1_555
C4 C5 1_555 1_555
C5 C3 1_555 1_555
H2 C5 1_555 1_555
C6 C8 1_555 1_555
C7 O24 1_555 1_555
C8 S1 1_555 1_555
C9 C4 1_555 1_555
C10 H3 1_555 1_555
C11 C10 1_555 1_555
H4 C11 1_555 1_555
U1 O13 1_555 1_555
U2 O6 1_555 1_555
U3 O16 1_555 1_555
U4 O12 1_555 1_555
S2 C21 1_555 1_555
S3 C14 1_555 1_555
S4 C17 1_555 1_555
S5 C20 1_555 1_555
O14 C1 1_555 1_555
O15 U1 1_555 1_555
C12 O17 1_555 1_555
O16 C29 1_555 1_555
O17 U3A 1_555 1_555
O18 U1 1_555 1_555
O19 U3 1_555 1_555
O20 C9 1_555 1_555
O21 C12 1_555 1_555
O22 U2 1_555 1_555
N1 U1 1_555 1_555
O23 U3 1_555 1_555
N2 U1 1_555 1_555
C13 H5 1_555 1_555
N3 U4 1_555 1_555
C14 C26 1_555 1_555
C15 H6 1_555 1_555
C16 C13 1_555 1_555
H7 C16 1_555 1_555
N4 U4 1_555 1_555
O24 U2 1_555 1_555
C17 C1 1_555 1_555
C18 H8 1_555 1_555
C19 C18 1_555 1_555
H9 C19 1_555 1_555
C20 C44 1_555 1_555
O25 C9 1_555 1_555
C21 C2 1_555 1_555
C22 S5 1_555 1_555
C23 O22 1_555 1_555
O26 U3 1_555 1_555
O27 U2 1_555 1_555
C24 N2 1_555 1_555
C25 C24 1_555 1_555
H10 C25 1_555 1_555
C26 C15 1_555 1_555
H11 C26 1_555 1_555
C27 N2 1_555 1_555
H12 C27 1_555 1_555
C28 C10 1_555 1_555
H13 C28 1_555 1_555
C29 O23 1_555 1_555
C30 S4 1_555 1_555
C31 N1 1_555 1_555
C32 O15 1_555 1_555
C33 H14 1_555 1_555
C34 C33 1_555 1_555
H15 C34 1_555 1_555
C35 N3 1_555 1_555
C36 H16 1_555 1_555
C37 N4 1_555 1_555
C38 N4 1_555 1_555
H17 C38 1_555 1_555
C39 S3 1_555 1_555
C40 N1 1_555 1_555
H18 C40 1_555 1_555
C41 C33 1_555 1_555
H19 C41 1_555 1_555
C42 C7 1_555 1_555
C43 C11 1_555 1_555
H20 C43 1_555 1_555
C44 O19 1_555 1_555
C45 C31 1_555 1_555
H21 C45 1_555 1_555
C46 C27 1_555 1_555
H22 C46 1_555 1_555
C47 C36 1_555 1_555
H23 C47 1_555 1_555
C48 C20 1_555 1_555
H24 C48 1_555 1_555
C49 C25 1_555 1_555
H25 C49 1_555 1_555
C50 C22 1_555 1_555
H26 C50 1_555 1_555
O28 C2 1_555 1_555
C51 C52 1_555 1_555
C52 N5 1_555 1_555
N5 H27 1_555 1_555
N6 C51 1_555 1_555
H28 N6 1_555 1_555
C53 C52 1_555 1_555
H29 C53 1_555 1_555
C54 C53 1_555 1_555
H30 C54 1_555 1_555
C55 C51 1_555 1_555
H31 C55 1_555 1_555
C56 N5 1_555 1_555
H32 C56 1_555 1_555
C57 C55 1_555 1_555
H33 C57 1_555 1_555
C58 N6 1_555 1_555
H34 C58 1_555 1_555
C59 C54 1_555 1_555
H35 C59 1_555 1_555
C60 C57 1_555 1_555
H36 C60 1_555 1_555
U3A O21 1_555 1_555
U4A O20 1_555 1_555
O17A U3 1_555 1_555
O20A U4 1_555 1_555
O21A U3 1_555 1_555
O25A U4 1_555 1_555
O10 U2 1_555 1_555
O11 U2 1_555 1_555
C3 C8 1_555 1_555
U1 O28 1_555 1_555
U4 O14 1_555 1_555
S2 C42 1_555 1_555
C12 C39 1_555 1_555
O18 C32 1_555 1_555
C13 C17 1_555 1_555
N3 C28 1_555 1_555
C14 C32 1_555 1_555
C15 C39 1_555 1_555
C16 C30 1_555 1_555
C18 C42 1_555 1_555
C19 C21 1_555 1_555
O25 U4A 1_555 1_555
C22 C23 1_555 1_555
C23 O27 1_555 1_555
O26 C44 1_555 1_555
C24 C31 1_555 1_555
C29 C30 1_555 1_555
C34 C38 1_555 1_555
C35 C37 1_555 1_555
C35 C43 1_555 1_555
C36 C40 1_555 1_555
C37 C41 1_555 1_555
C45 C47 1_555 1_555
C46 C49 1_555 1_555
C48 C50 1_555 1_555
C56 C59 1_555 1_555
C58 C60 1_555 1_555

#END
