
#######################################################################
#
#                 Cambridge Crystallographic Data Centre
#                                CCDC 
#
#######################################################################
#
# If this CIF has been generated from an entry in the Cambridge 
# Structural Database, then it will include bibliographic, chemical, 
# crystal, experimental, refinement or atomic coordinate data resulting 
# from the CCDC's data processing and validation procedures.
#
#######################################################################

data_QUJVOI
_symmetry_cell_setting           monoclinic
_symmetry_space_group_name_H-M   'P 21/n'
_symmetry_Int_Tables_number      14
_space_group_name_Hall           '-P 2yn'
loop_
_symmetry_equiv_pos_site_id
_symmetry_equiv_pos_as_xyz
1 x,y,z
2 1/2-x,1/2+y,1/2-z
3 -x,-y,-z
4 1/2+x,1/2-y,1/2+z
_cell_length_a                   7.8324(3)
_cell_length_b                   13.4801(5)
_cell_length_c                   20.6453(8)
_cell_angle_alpha                90
_cell_angle_beta                 94.1450(10)
_cell_angle_gamma                90
_cell_volume                     2174.06
loop_
_atom_site_label
_atom_site_type_symbol
_atom_site_fract_x
_atom_site_fract_y
_atom_site_fract_z
U1 U 0.70614(3) 0.97500(2) 0.15570(2)
S1 S 0.1875(2) 1.11212(13) 0.28164(9)
O1 O 0.6019(6) 1.0024(4) 0.0797(2)
O2 O 0.6158(6) 1.1355(4) 0.1950(2)
N1 N 0.9461(6) 0.8949(4) 0.0984(2)
O3 O -0.0882(7) 1.3256(4) 0.3491(3)
O4 O 0.8215(6) 0.9499(4) 0.2294(2)
O5 O 0.4525(6) 1.0078(3) 0.2116(3)
N2 N 0.9466(6) 1.0912(4) 0.1230(2)
O6 O -0.1096(9) 1.1643(5) 0.3579(4)
C1 C 0.9419(8) 0.7971(5) 0.0888(3)
H1 H 0.8480 0.7610 0.1036
C2 C 0.1204(8) 1.2270(5) 0.3043(3)
C3 C 1.0772(7) 1.0543(5) 0.0911(3)
C4 C 0.4832(8) 1.0980(5) 0.2179(3)
C5 C 1.0774(7) 0.9482(5) 0.0781(3)
C6 C 0.2304(8) 1.3009(5) 0.2885(3)
H2 H 0.2134 1.3692 0.2973
C7 C 1.2049(8) 1.1178(6) 0.0729(3)
H3 H 1.2983 1.0924 0.0511
C8 C 1.2063(8) 0.9012(5) 0.0461(3)
H4 H 1.2980 0.9388 0.0309
C9 C 0.3647(8) 1.1636(5) 0.2504(3)
C10 C 1.0635(9) 1.2553(5) 0.1192(3)
C11 C 0.9411(9) 1.1878(5) 0.1361(3)
H5 H 0.8476 1.2118 0.1585
C12 C 0.3714(8) 1.2632(5) 0.2578(3)
H6 H 0.4614 1.3034 0.2438
C13 C 1.1960(9) 1.2160(6) 0.0861(4)
H7 H 1.2825 1.2590 0.0725
C14 C 1.0530(11) 0.6337(6) 0.0512(4)
H8 H 0.9333 0.6154 0.0403
H9 H 1.0936 0.6019 0.0921
H10 H 1.1232 0.6117 0.0165
C15 C -0.0376(9) 1.2373(6) 0.3392(4)
C16 C 1.0668(9) 0.7446(5) 0.0584(3)
C17 C 1.1997(8) 0.8020(6) 0.0367(3)
H11 H 1.2876 0.7705 0.0149
C18 C 1.0470(12) 1.3630(6) 0.1354(4)
H12 H 0.9434 1.3732 0.1584
H13 H 1.0395 1.4021 0.0953
H14 H 1.1474 1.3841 0.1631
U1A U -0.20614(3) 1.47500(2) 0.34430(2)
O3A O 0.5882(7) 0.8256(4) 0.1509(3)
O7 O 0.493(4) 0.4421(18) 0.038(2)
loop_
_geom_bond_atom_site_label_1
_geom_bond_atom_site_label_2
_geom_bond_site_symmetry_1
_geom_bond_site_symmetry_2
U1 O1 1_555 1_555
S1 C2 1_555 1_555
O2 U1 1_555 1_555
N1 U1 1_555 1_555
O3 C15 1_555 1_555
O4 U1 1_555 1_555
O5 U1 1_555 1_555
N2 U1 1_555 1_555
O6 C15 1_555 1_555
C1 N1 1_555 1_555
H1 C1 1_555 1_555
C2 C6 1_555 1_555
C3 N2 1_555 1_555
C4 O2 1_555 1_555
C5 N1 1_555 1_555
C6 H2 1_555 1_555
C7 C3 1_555 1_555
H3 C7 1_555 1_555
C8 C5 1_555 1_555
H4 C8 1_555 1_555
C9 S1 1_555 1_555
C10 C11 1_555 1_555
C11 N2 1_555 1_555
H5 C11 1_555 1_555
C12 C6 1_555 1_555
H6 C12 1_555 1_555
C13 C7 1_555 1_555
H7 C13 1_555 1_555
C14 H8 1_555 1_555
H9 C14 1_555 1_555
H10 C14 1_555 1_555
C15 C2 1_555 1_555
C16 C1 1_555 1_555
C17 C8 1_555 1_555
H11 C17 1_555 1_555
C18 C10 1_555 1_555
H12 C18 1_555 1_555
H13 C18 1_555 1_555
H14 C18 1_555 1_555
U1A O3 1_555 1_555
O3A U1 1_555 1_555
O5 C4 1_555 1_555
C3 C5 1_555 1_555
C4 C9 1_555 1_555
C9 C12 1_555 1_555
C10 C13 1_555 1_555
C14 C16 1_555 1_555
C16 C17 1_555 1_555

#END
