
#######################################################################
#
#                 Cambridge Crystallographic Data Centre
#                                CCDC 
#
#######################################################################
#
# If this CIF has been generated from an entry in the Cambridge 
# Structural Database, then it will include bibliographic, chemical, 
# crystal, experimental, refinement or atomic coordinate data resulting 
# from the CCDC's data processing and validation procedures.
#
#######################################################################

data_QUJVIA
_symmetry_cell_setting           monoclinic
_symmetry_space_group_name_H-M   'P 21/c'
_symmetry_Int_Tables_number      14
_space_group_name_Hall           '-P 2ybc'
loop_
_symmetry_equiv_pos_site_id
_symmetry_equiv_pos_as_xyz
1 x,y,z
2 x,1/2-y,1/2+z
3 -x,-y,-z
4 -x,1/2+y,1/2-z
_cell_length_a                   7.540(3)
_cell_length_b                   11.440(7)
_cell_length_c                   11.757(8)
_cell_angle_alpha                90.00
_cell_angle_beta                 106.66(5)
_cell_angle_gamma                90.00
_cell_volume                     971.56
loop_
_atom_site_label
_atom_site_type_symbol
_atom_site_fract_x
_atom_site_fract_y
_atom_site_fract_z
Cu1 Cu 0.17323(10) 0.54051(7) 0.23852(6)
N1 N -0.0131(6) 0.6167(4) 0.0954(4)
N2 N -0.1623(6) 0.5850(4) -0.1081(4)
N3 N -0.0405(6) 0.4728(5) 0.3086(4)
N4 N -0.2797(7) 0.4404(6) 0.4056(4)
N5 N -0.6107(6) 0.4623(5) 0.3405(3)
N6 N 0.2191(7) 0.6889(4) 0.3239(4)
N7 N 0.3131(8) 0.8527(4) 0.4583(5)
N8 N 0.5211(8) 0.8570(5) 0.6590(5)
C1 C -0.0466(6) 0.5553(5) -0.0035(5)
C2 C -0.2474(8) 0.6896(5) -0.1136(6)
H1 H -0.3247 0.7152 -0.1859
C3 C -0.2224(8) 0.7595(5) -0.0140(5)
H2 H -0.2826 0.8308 -0.0168
C4 C -0.1024(8) 0.7168(6) 0.0898(5)
H3 H -0.068(6) 0.766(4) 0.162(4)
C5 C -0.1589(7) 0.4598(6) 0.3487(4)
C6 C -0.4523(8) 0.4543(6) 0.3647(4)
C7 C 0.2698(8) 0.7623(6) 0.3910(5)
C8 C 0.4254(8) 0.8496(6) 0.5662(6)
C1B C 0.0466(6) 0.4447(5) 0.0035(5)
N1B N 0.0131(6) 0.3833(4) -0.0954(4)
C4B C 0.1024(8) 0.2832(6) -0.0898(5)
C3B C 0.2224(8) 0.2405(5) 0.0140(5)
C2B C 0.2474(8) 0.3104(5) 0.1136(6)
N2B N 0.1623(6) 0.4150(4) 0.1081(4)
H1B H 0.3247 0.2848 0.1859
H2B H 0.2826 0.1692 0.0168
H3B H 0.068(6) 0.234(4) -0.162(4)
N3_2 N 0.9595(6) 0.4728(5) 0.3086(4)
N4_2 N 0.7203(7) 0.4404(6) 0.4056(4)
N5_2 N 0.3893(6) 0.4623(5) 0.3405(3)
C5_2 C 0.8411(7) 0.4598(6) 0.3487(4)
C6_2 C 0.5477(8) 0.4543(6) 0.3647(4)
Cu1B Cu -0.17323(10) 0.45949(7) -0.23852(6)
N6B N -0.2191(7) 0.3111(4) -0.3239(4)
N7B N -0.3131(8) 0.1473(4) -0.4583(5)
N8B N -0.5211(8) 0.1430(5) -0.6590(5)
C7B C -0.2698(8) 0.2377(6) -0.3910(5)
C8B C -0.4254(8) 0.1504(6) -0.5662(6)
Cu1_2 Cu -0.82677(10) 0.54051(7) 0.23852(6)
Cu1_3 Cu 1.17323(10) 0.54051(7) 0.23852(6)
N3B N 0.0405(6) 0.5272(5) -0.3086(4)
N5B N -0.3893(6) 0.5377(5) -0.3405(3)
loop_
_geom_bond_atom_site_label_1
_geom_bond_atom_site_label_2
_geom_bond_site_symmetry_1
_geom_bond_site_symmetry_2
Cu1 N1 1_555 1_555
N1 C1 1_555 1_555
N2 C1 1_555 1_555
N3 Cu1 1_555 1_555
N4 C5 1_555 1_555
N5 C6 1_555 1_555
N6 Cu1 1_555 1_555
N7 C7 1_555 1_555
N8 C8 1_555 1_555
C1 C1B 1_555 1_555
C2 N2 1_555 1_555
H1 C2 1_555 1_555
C3 C2 1_555 1_555
H2 C3 1_555 1_555
C4 N1 1_555 1_555
H3 C4 1_555 1_555
C5 N3 1_555 1_555
C6 N4 1_555 1_555
C7 N6 1_555 1_555
C8 N7 1_555 1_555
C1B N1B 1_555 1_555
N1B C4B 1_555 1_555
C4B C3B 1_555 1_555
C3B C2B 1_555 1_555
C2B N2B 1_555 1_555
N2B Cu1 1_555 1_555
H1B C2B 1_555 1_555
H2B C3B 1_555 1_555
H3B C4B 1_555 1_555
N3_2 C5_2 1_555 1_555
N4_2 C5_2 1_555 1_555
N5_2 Cu1 1_555 1_555
C6_2 N4_2 1_555 1_555
Cu1B N2 1_555 1_555
N6B Cu1B 1_555 1_555
N7B C7B 1_555 1_555
N8B C8B 1_555 1_555
C7B N6B 1_555 1_555
C8B N7B 1_555 1_555
Cu1_2 N5 1_555 1_555
Cu1_3 N3_2 1_555 1_555
N3B Cu1B 1_555 1_555
N5B Cu1B 1_555 1_555
C3 C4 1_555 1_555
C1B N2B 1_555 1_555
N1B Cu1B 1_555 1_555
N5_2 C6_2 1_555 1_555

#END
