
#######################################################################
#
#                 Cambridge Crystallographic Data Centre
#                                CCDC 
#
#######################################################################
#
# If this CIF has been generated from an entry in the Cambridge 
# Structural Database, then it will include bibliographic, chemical, 
# crystal, experimental, refinement or atomic coordinate data resulting 
# from the CCDC's data processing and validation procedures.
#
#######################################################################

data_QUJWAV
_symmetry_cell_setting           triclinic
_symmetry_space_group_name_H-M   'P -1'
_symmetry_Int_Tables_number      2
_space_group_name_Hall           '-P 1'
loop_
_symmetry_equiv_pos_site_id
_symmetry_equiv_pos_as_xyz
1 x,y,z
2 -x,-y,-z
_cell_length_a                   11.4282(11)
_cell_length_b                   20.119(2)
_cell_length_c                   20.412(2)
_cell_angle_alpha                81.5760(10)
_cell_angle_beta                 77.9450(10)
_cell_angle_gamma                78.0470(10)
_cell_volume                     4463.98
loop_
_atom_site_label
_atom_site_type_symbol
_atom_site_fract_x
_atom_site_fract_y
_atom_site_fract_z
U1 U -0.62889(3) 0.83012(2) 0.01908(2)
U2 U 0.11511(2) 0.55712(2) 0.20878(2)
U3 U 0.11380(2) 0.79292(2) 0.65305(2)
S1 S -0.85922(17) 1.02631(10) 0.17424(9)
S2 S -0.24583(18) 0.67385(10) 0.09301(9)
S3 S 0.12613(16) 0.67084(10) 0.43005(9)
S4 S 0.49283(16) 0.38136(10) 0.27933(9)
O1 O -0.5321(6) 0.8813(4) -0.0368(3)
O2 O -0.7250(6) 0.7787(4) 0.0735(3)
O3 O -0.7471(5) 0.9293(3) 0.0738(3)
O4 O -0.5931(6) 0.8793(3) 0.1173(3)
O5 O -0.4528(6) 0.7655(3) 0.0633(3)
O6 O -0.4851(5) 0.7239(3) -0.0236(3)
O7 O -0.6951(5) 0.8000(3) -0.0763(3)
O8 O -0.7998(5) 0.8896(3) -0.0329(3)
O9 O -1.0296(4) 1.1328(3) 0.2561(2)
O10 O -0.9174(4) 1.1276(3) 0.3310(3)
O11 O 0.2039(5) 0.6161(3) 0.1640(3)
O12 O 0.0250(5) 0.5000(3) 0.2531(3)
O13 O 0.0496(5) 0.5391(3) 0.1020(2)
O14 O -0.0531(5) 0.6202(3) 0.1612(3)
O15 O -0.0133(5) 0.6477(3) 0.2779(3)
O16 O 0.1448(5) 0.5900(3) 0.3162(3)
O17 O 0.2915(5) 0.4892(3) 0.2525(3)
O18 O 0.2629(5) 0.4613(3) 0.1578(2)
O19 O -0.0090(5) 0.7968(3) 0.5672(3)
O20 O 0.1653(4) 0.7271(2) 0.5525(2)
O21 O 0.1872(5) 0.8572(3) 0.6052(3)
O22 O 0.0417(5) 0.7295(3) 0.6993(2)
O23 O 0.6935(5) 0.2906(3) 0.3436(3)
O24 O 0.7554(5) 0.2229(3) 0.2634(3)
C1 C -0.6894(8) 0.9238(5) 0.1197(4)
C2 C -0.7274(7) 0.9695(4) 0.1722(4)
C3 C -0.6730(8) 0.9717(5) 0.2253(4)
H1 H -0.6004 0.9419 0.2339
C4 C -0.7369(7) 1.0229(4) 0.2652(4)
H2 H -0.7097 1.0336 0.3027
C5 C -0.8391(6) 1.0550(4) 0.2457(3)
C6 C -0.9344(6) 1.1076(4) 0.2794(4)
C7 C -0.4231(7) 0.7210(4) 0.0214(4)
C8 C -0.3145(7) 0.6696(4) 0.0280(3)
C9 C -0.2553(6) 0.6175(4) -0.0096(3)
H3 H -0.2821 0.6067 -0.0471
C10 C -0.1499(6) 0.5819(4) 0.0141(3)
H4 H -0.0965 0.5447 -0.0065
C11 C -0.1324(6) 0.6062(3) 0.0694(3)
C12 C -0.0400(6) 0.5864(4) 0.1123(4)
C13 C -0.7826(7) 0.8478(4) -0.0761(4)
C14 C -0.8605(7) 0.8597(5) -0.1251(4)
H5 H -0.9388 0.8465 -0.1041
H6 H -0.8221 0.8324 -0.1626
H7 H -0.8737 0.9082 -0.1422
C15 C 0.0536(8) 0.6363(5) 0.3207(4)
C16 C 0.0248(6) 0.6781(4) 0.3782(3)
C17 C -0.0763(8) 0.7234(5) 0.3961(5)
H8 H -0.1433 0.7340 0.3732
C18 C -0.0703(7) 0.7533(5) 0.4533(4)
H9 H -0.1338 0.7866 0.4735
C19 C 0.0328(6) 0.7301(3) 0.4760(3)
C20 C 0.0664(6) 0.7526(4) 0.5351(3)
C21 C 0.3238(7) 0.4513(4) 0.2053(4)
C22 C 0.4250(6) 0.3945(4) 0.2100(3)
C23 C 0.4801(6) 0.3468(4) 0.1663(4)
H10 H 0.4552 0.3460 0.1249
C24 C 0.5749(6) 0.3000(4) 0.1877(4)
H11 H 0.6214 0.2635 0.1634
C25 C 0.5932(6) 0.3133(3) 0.2488(4)
C26 C 0.6879(7) 0.2724(4) 0.2877(4)
U3A U -1.11380(2) 1.20708(2) 0.34695(2)
U3A_2 U 0.88620(2) 0.20708(2) 0.34695(2)
O9A O 0.0296(4) 0.8672(3) 0.7439(2)
O10A O -0.0826(4) 0.8724(3) 0.6690(3)
O23A O 0.3065(5) 0.7094(3) 0.6564(3)
O24A O 0.2446(5) 0.7771(3) 0.7366(3)
N1 N 0.4340(4) 0.8805(2) 0.3768(2)
C27 C 0.3590(4) 0.8344(3) 0.4081(3)
C28 C 0.4068(5) 0.7740(3) 0.4437(3)
H12 H 0.3555 0.7425 0.4651
C29 C 0.5294(6) 0.7598(2) 0.4480(3)
C30 C 0.6044(4) 0.8060(3) 0.4167(3)
H13 H 0.6882 0.7963 0.4196
C31 C 0.5567(4) 0.8664(2) 0.3811(3)
N2 N 0.5806(3) 0.9728(2) 0.3153(2)
C32 C 0.6307(4) 0.9133(2) 0.3511(3)
C33 C 0.7511(5) 0.9033(3) 0.3594(3)
H14 H 0.7854 0.8626 0.3839
C34 C 0.8213(4) 0.9528(3) 0.3318(3)
C35 C 0.7712(5) 1.0123(3) 0.2959(3)
H15 H 0.8191 1.0462 0.2771
C36 C 0.6508(5) 1.0223(2) 0.2877(3)
C37 C 0.2245(8) 0.8539(8) 0.4069(9)
H16 H 0.2075 0.8995 0.3825
H17 H 0.1787 0.8542 0.4532
H18 H 0.2001 0.8207 0.3842
C38 C 0.5799(12) 0.6961(5) 0.4876(7)
H19 H 0.6101 0.7079 0.5252
H20 H 0.6469 0.6695 0.4585
H21 H 0.5158 0.6690 0.5053
C39 C 0.9535(8) 0.9398(7) 0.3417(7)
H22 H 0.9964 0.9736 0.3122
H23 H 0.9935 0.8938 0.3307
H24 H 0.9553 0.9438 0.3888
C40 C 0.5940(10) 1.0820(5) 0.2464(7)
H25 H 0.5849 1.1234 0.2685
H26 H 0.5137 1.0754 0.2416
H27 H 0.6456 1.0869 0.2018
N3 N -0.0614(5) 0.7452(3) 0.9372(3)
C41 C -0.1614(5) 0.7983(3) 0.9407(3)
C42 C -0.2377(5) 0.8081(3) 0.8940(4)
H28 H -0.3060 0.8443 0.8964
C43 C -0.2141(6) 0.7648(4) 0.8437(3)
C44 C -0.1142(7) 0.7118(4) 0.8402(3)
H29 H -0.0981 0.6822 0.8058
C45 C -0.0378(5) 0.7020(3) 0.8869(3)
N4 N 0.1305(5) 0.6523(3) 0.9377(2)
C46 C 0.0666(5) 0.6537(3) 0.8864(3)
C47 C 0.1089(7) 0.6075(4) 0.8386(3)
H30 H 0.0652 0.6085 0.8036
C48 C 0.2152(7) 0.5599(3) 0.8421(3)
C49 C 0.2792(5) 0.5585(3) 0.8933(4)
H31 H 0.3518 0.5260 0.8957
C50 C 0.2368(5) 0.6047(3) 0.9411(3)
C51 C -0.1795(13) 0.8437(6) 0.9961(6)
H32 H -0.1445 0.8177 1.0342
H33 H -0.2667 0.8599 1.0111
H34 H -0.1390 0.8829 0.9791
C52 C -0.2940(10) 0.7771(7) 0.7920(6)
H35 H -0.2698 0.7399 0.7630
H36 H -0.2856 0.8206 0.7646
H37 H -0.3789 0.7787 0.8147
C53 C 0.2626(11) 0.5116(6) 0.7866(5)
H38 H 0.1977 0.4882 0.7826
H39 H 0.3321 0.4777 0.7984
H40 H 0.2882 0.5381 0.7436
C54 C 0.3041(11) 0.6039(7) 0.9944(6)
H41 H 0.3642 0.5615 0.9964
H42 H 0.2475 0.6066 1.0377
H43 H 0.3458 0.6432 0.9851
N5 N 0.5038(6) 0.7712(3) 0.2288(3)
C55 C 0.4361(6) 0.7203(4) 0.2556(4)
C56 C 0.4883(9) 0.6612(4) 0.2912(5)
H44 H 0.4421 0.6264 0.3095
C57 C 0.6081(10) 0.6529(4) 0.2998(5)
C58 C 0.6758(7) 0.7038(5) 0.2730(5)
H45 H 0.7576 0.6981 0.2789
C59 C 0.6236(6) 0.7629(4) 0.2375(4)
N6 N 0.6431(5) 0.8640(3) 0.1708(3)
C60 C 0.6934(6) 0.8051(3) 0.2074(4)
C61 C 0.8142(7) 0.7951(4) 0.2147(4)
H46 H 0.8486 0.7548 0.2397
C62 C 0.8848(5) 0.8440(5) 0.1853(5)
C63 C 0.8346(7) 0.9029(4) 0.1487(5)
H47 H 0.8828 0.9363 0.1286
C64 C 0.7137(7) 0.9129(3) 0.1414(4)
C65 C 0.3068(11) 0.7462(11) 0.2423(11)
H48 H 0.2504 0.7212 0.2745
H49 H 0.3036 0.7389 0.1963
H50 H 0.2833 0.7951 0.2476
C66 C 0.6719(19) 0.5944(10) 0.3440(11)
H51 H 0.6620 0.6078 0.3894
H52 H 0.7587 0.5841 0.3244
H53 H 0.6358 0.5537 0.3465
C67 C 1.0210(11) 0.8231(12) 0.1943(13)
H54 H 1.0245 0.8046 0.2411
H55 H 1.0601 0.8633 0.1829
H56 H 1.0637 0.7883 0.1644
C68 C 0.6516(14) 0.9679(7) 0.1013(8)
H57 H 0.5740 0.9875 0.1283
H58 H 0.6364 0.9506 0.0620
H59 H 0.7020 1.0031 0.0863
O25 O 0.3277(17) 0.5068(8) 0.3879(7)
O26 O -0.9376(15) 0.7377(8) 0.0546(8)
N7? N -0.0336(6) 0.5505(4) 0.5617(4)
C69? C -0.0104(8) 0.5896(6) 0.6067(5)
C70? C 0.1089(9) 0.5909(7) 0.6110(6)
C71? C 0.2050(7) 0.5530(7) 0.5704(6)
C72? C 0.1818(7) 0.5139(7) 0.5254(6)
C73? C 0.0625(7) 0.5126(6) 0.5211(5)
N8? N -0.0925(7) 0.4831(4) 0.4755(4)
C74? C 0.0303(8) 0.4752(4) 0.4780(5)
C75? C 0.1161(7) 0.4322(5) 0.4368(6)
C76? C 0.0792(9) 0.3972(5) 0.3932(5)
C77? C -0.0436(10) 0.4051(5) 0.3908(5)
C78? C -0.1295(7) 0.4480(5) 0.4319(5)
C79? C -0.1214(13) 0.6310(10) 0.6471(9)
C80? C 0.3307(10) 0.5665(10) 0.5660(13)
C81? C 0.1802(17) 0.3517(11) 0.3474(11)
C82? C -0.2611(11) 0.4503(15) 0.4396(15)
N9? N -0.4918(6) 0.8994(4) 0.5623(4)
C83? C -0.3962(8) 0.8575(4) 0.5888(6)
C84? C -0.2830(8) 0.8768(6) 0.5767(7)
C85? C -0.2654(7) 0.9380(6) 0.5382(7)
C86? C -0.3611(9) 0.9800(5) 0.5117(6)
C87? C -0.4743(8) 0.9607(4) 0.5237(5)
N10? N -0.6763(7) 0.9955(4) 0.4966(4)
C88? C -0.5591(6) 1.0069(4) 0.4928(4)
C89? C -0.5252(7) 1.0669(4) 0.4585(5)
C90? C -0.6084(9) 1.1155(4) 0.4280(6)
C91? C -0.7256(9) 1.1041(5) 0.4318(6)
C92? C -0.7596(6) 1.0441(4) 0.4661(5)
C93? C -0.4167(18) 0.7871(7) 0.6237(14)
C94? C -0.1499(13) 0.9656(11) 0.5312(14)
C95? C -0.5620(18) 1.1804(7) 0.3887(14)
C96? C -0.8823(11) 1.0286(11) 0.4745(16)
loop_
_geom_bond_atom_site_label_1
_geom_bond_atom_site_label_2
_geom_bond_site_symmetry_1
_geom_bond_site_symmetry_2
U1 O1 1_555 1_555
U2 O11 1_555 1_555
U3 O19 1_555 1_555
S1 C2 1_555 1_555
S2 C8 1_555 1_555
S3 C16 1_555 1_555
S4 C22 1_555 1_555
O2 U1 1_555 1_555
O3 U1 1_555 1_555
O4 U1 1_555 1_555
O5 U1 1_555 1_555
O6 U1 1_555 1_555
O7 U1 1_555 1_555
O8 U1 1_555 1_555
O9 C6 1_555 1_555
O10 C6 1_555 1_555
O12 U2 1_555 1_555
O13 U2 1_555 1_555
O14 U2 1_555 1_555
O15 U2 1_555 1_555
O16 U2 1_555 1_555
O17 U2 1_555 1_555
O18 U2 1_555 1_555
O19 C20 1_555 1_555
O20 U3 1_555 1_555
O21 U3 1_555 1_555
O22 U3 1_555 1_555
O23 C26 1_555 1_555
O24 C26 1_555 1_555
C1 O3 1_555 1_555
C2 C1 1_555 1_555
C3 C2 1_555 1_555
H1 C3 1_555 1_555
C4 C3 1_555 1_555
H2 C4 1_555 1_555
C5 S1 1_555 1_555
C6 C5 1_555 1_555
C7 O5 1_555 1_555
C8 C7 1_555 1_555
C9 C8 1_555 1_555
H3 C9 1_555 1_555
C10 C9 1_555 1_555
H4 C10 1_555 1_555
C11 S2 1_555 1_555
C12 O13 1_555 1_555
C13 O7 1_555 1_555
C14 C13 1_555 1_555
H5 C14 1_555 1_555
H6 C14 1_555 1_555
H7 C14 1_555 1_555
C15 O15 1_555 1_555
C16 C15 1_555 1_555
C17 C16 1_555 1_555
H8 C17 1_555 1_555
C18 C17 1_555 1_555
H9 C18 1_555 1_555
C19 S3 1_555 1_555
C20 O20 1_555 1_555
C21 O17 1_555 1_555
C22 C21 1_555 1_555
C23 C22 1_555 1_555
H10 C23 1_555 1_555
C24 C23 1_555 1_555
H11 C24 1_555 1_555
C25 S4 1_555 1_555
C26 C25 1_555 1_555
N1 C27 1_555 1_555
C27 C28 1_555 1_555
C28 H12 1_555 1_555
C29 C28 1_555 1_555
C30 C29 1_555 1_555
H13 C30 1_555 1_555
C31 N1 1_555 1_555
N2 C32 1_555 1_555
C32 C31 1_555 1_555
C33 C32 1_555 1_555
H14 C33 1_555 1_555
C34 C33 1_555 1_555
C35 C34 1_555 1_555
H15 C35 1_555 1_555
C36 N2 1_555 1_555
C37 C27 1_555 1_555
H16 C37 1_555 1_555
H17 C37 1_555 1_555
H18 C37 1_555 1_555
C38 C29 1_555 1_555
H19 C38 1_555 1_555
H20 C38 1_555 1_555
H21 C38 1_555 1_555
C39 C34 1_555 1_555
H22 C39 1_555 1_555
H23 C39 1_555 1_555
H24 C39 1_555 1_555
C40 C36 1_555 1_555
H25 C40 1_555 1_555
H26 C40 1_555 1_555
H27 C40 1_555 1_555
N3 C41 1_555 1_555
C41 C42 1_555 1_555
C42 H28 1_555 1_555
C43 C42 1_555 1_555
C44 C43 1_555 1_555
H29 C44 1_555 1_555
C45 N3 1_555 1_555
N4 C46 1_555 1_555
C46 C45 1_555 1_555
C47 C46 1_555 1_555
H30 C47 1_555 1_555
C48 C47 1_555 1_555
C49 C48 1_555 1_555
H31 C49 1_555 1_555
C50 N4 1_555 1_555
C51 C41 1_555 1_555
H32 C51 1_555 1_555
H33 C51 1_555 1_555
H34 C51 1_555 1_555
C52 C43 1_555 1_555
H35 C52 1_555 1_555
H36 C52 1_555 1_555
H37 C52 1_555 1_555
C53 C48 1_555 1_555
H38 C53 1_555 1_555
H39 C53 1_555 1_555
H40 C53 1_555 1_555
C54 C50 1_555 1_555
H41 C54 1_555 1_555
H42 C54 1_555 1_555
H43 C54 1_555 1_555
N5 C55 1_555 1_555
C55 C56 1_555 1_555
C56 H44 1_555 1_555
C57 C56 1_555 1_555
C58 C57 1_555 1_555
H45 C58 1_555 1_555
C59 N5 1_555 1_555
N6 C60 1_555 1_555
C60 C59 1_555 1_555
C61 C60 1_555 1_555
H46 C61 1_555 1_555
C62 C61 1_555 1_555
C63 C62 1_555 1_555
H47 C63 1_555 1_555
C64 N6 1_555 1_555
C65 C55 1_555 1_555
H48 C65 1_555 1_555
H49 C65 1_555 1_555
H50 C65 1_555 1_555
C66 C57 1_555 1_555
H51 C66 1_555 1_555
H52 C66 1_555 1_555
H53 C66 1_555 1_555
C67 C62 1_555 1_555
H54 C67 1_555 1_555
H55 C67 1_555 1_555
H56 C67 1_555 1_555
C68 C64 1_555 1_555
H57 C68 1_555 1_555
H58 C68 1_555 1_555
H59 C68 1_555 1_555
U3A O9 1_555 1_555
U3A_2 O23 1_555 1_555
O9A U3 1_555 1_555
O10A U3 1_555 1_555
O23A U3 1_555 1_555
O24A U3 1_555 1_555
O4 C1 1_555 1_555
O6 C7 1_555 1_555
O8 C13 1_555 1_555
O10 U3A 1_555 1_555
O14 C12 1_555 1_555
O16 C15 1_555 1_555
O18 C21 1_555 1_555
O24 U3A_2 1_555 1_555
C4 C5 1_555 1_555
C10 C11 1_555 1_555
C11 C12 1_555 1_555
C18 C19 1_555 1_555
C19 C20 1_555 1_555
C24 C25 1_555 1_555
C30 C31 1_555 1_555
C35 C36 1_555 1_555
C44 C45 1_555 1_555
C49 C50 1_555 1_555
C58 C59 1_555 1_555
C63 C64 1_555 1_555

#END
