
#######################################################################
#
#                 Cambridge Crystallographic Data Centre
#                                CCDC 
#
#######################################################################
#
# If this CIF has been generated from an entry in the Cambridge 
# Structural Database, then it will include bibliographic, chemical, 
# crystal, experimental, refinement or atomic coordinate data resulting 
# from the CCDC's data processing and validation procedures.
#
#######################################################################

data_QUJWUO
_symmetry_cell_setting           triclinic
_symmetry_space_group_name_H-M   'P -1'
_symmetry_Int_Tables_number      2
_space_group_name_Hall           '-P 1'
loop_
_symmetry_equiv_pos_site_id
_symmetry_equiv_pos_as_xyz
1 x,y,z
2 -x,-y,-z
_cell_length_a                   11.275(2)
_cell_length_b                   11.910(2)
_cell_length_c                   12.898(3)
_cell_angle_alpha                112.63(3)
_cell_angle_beta                 94.63(3)
_cell_angle_gamma                99.53(3)
_cell_volume                     1556.63
loop_
_atom_site_label
_atom_site_type_symbol
_atom_site_fract_x
_atom_site_fract_y
_atom_site_fract_z
N1 N 0.6912(11) 0.2911(11) 0.4638(12)
C1 C 0.7370(11) 0.4151(11) 0.5130(12)
H1 H 0.8204 0.4454 0.5369
C2 C 0.6615(11) 0.4952(11) 0.5275(14)
H2 H 0.6930 0.5806 0.5614
C3 C 0.5404(11) 0.4513(11) 0.4928(14)
C4 C 0.4946(11) 0.3272(11) 0.4436(12)
H3 H 0.4112 0.2969 0.4197
C5 C 0.5701(11) 0.2471(10) 0.4291(12)
H4 H 0.5386 0.1617 0.3952
N1A N 0.3088(11) 0.7089(11) 0.5362(12)
C1A C 0.2630(11) 0.5849(11) 0.4870(12)
H1A H 0.1796 0.5546 0.4631
C2A C 0.3385(11) 0.5048(11) 0.4725(14)
H2A H 0.3070 0.4194 0.4386
C3A C 0.4596(11) 0.5487(11) 0.5072(14)
C4A C 0.5054(11) 0.6728(11) 0.5564(12)
H3A H 0.5888 0.7031 0.5803
C5A C 0.4299(11) 0.7529(10) 0.5709(12)
H4A H 0.4614 0.8383 0.6048
O23 O 0.576(5) 0.970(5) 0.794(4)
Mo1 Mo -0.23501(15) 0.98850(16) 0.29681(18)
Mo2 Mo -0.03302(17) 1.29801(15) 0.67937(18)
Mo3 Mo 0.04842(18) 0.93827(17) 0.21873(18)
Mo4 Mo -0.25326(16) 0.75215(16) 0.39542(18)
Mo5 Mo -0.28509(15) 1.04534(16) 0.57873(18)
Mo6 Mo 0.02109(17) 1.23689(16) 0.40050(19)
P1 P 0.0000 1.0000 0.5000
Ag1 Ag -0.00868(13) 1.27565(17) 1.12282(16)
Ag2 Ag 0.0000 1.5000 1.0000
O1 O -0.2981(14) 1.0499(12) 0.4344(13)
O2 O -0.1231(14) 0.9250(13) 0.2051(13)
O3 O -0.3477(13) 0.9854(14) 0.2100(13)
O4 O -0.2815(15) 0.8320(13) 0.3021(13)
O5 O -0.1502(13) 1.1475(13) 0.3441(13)
O6 O -0.0440(14) 1.4372(13) 0.7654(13)
O7 O -0.0362(14) 1.3072(16) 0.5397(14)
O8 O -0.1389(15) 0.6793(16) 0.3126(14)
O9 O -0.1911(14) 1.2097(14) 0.6327(14)
O10 O 0.0128(15) 0.7775(14) 0.2186(14)
O11 O 0.0680(11) 1.1111(12) 0.2809(12)
O12 O 0.0685(12) 0.9126(13) 0.0897(12)
O13 O -0.2058(14) 1.0366(14) 0.7100(14)
O14 O -0.3753(11) 0.6345(11) 0.3485(11)
O15 O -0.3154(14) 0.8741(13) 0.5062(12)
O16 O -0.1739(14) 0.7267(15) 0.5213(13)
O17 O -0.4148(11) 1.0694(13) 0.6174(12)
O18 O 0.0295(12) 1.3509(12) 0.3547(12)
O19 O -0.0678(17) 1.0677(17) 0.5892(17)
O20 O -0.131(2) 0.957(2) 0.4555(18)
O21 O -0.034(2) 1.033(2) 0.395(2)
O22 O -0.0444(18) 0.8680(19) 0.4673(17)
N2 N -0.1926(10) 1.4991(12) 0.9919(12)
C6 C -0.2777(11) 1.3975(11) 0.9234(12)
H5 H -0.2541 1.3278 0.8733
C7 C -0.3970(11) 1.3970(11) 0.9275(12)
H6 H -0.4556 1.3270 0.8803
C8 C -0.4312(10) 1.4981(12) 1.0001(11)
C9 C -0.3462(11) 1.5997(12) 1.0687(11)
H7 H -0.3698 1.6694 1.1187
C10 C -0.2269(10) 1.6002(13) 1.0646(11)
H8 H -0.1683 1.6703 1.1118
N3 N 0.1817(9) 1.2709(10) 1.1256(10)
C11 C 0.2172(9) 1.1652(10) 1.0626(11)
H9 H 0.1591 1.0932 1.0188
C12 C 0.3372(10) 1.1644(10) 1.0634(12)
H10 H 0.3616 1.0919 1.0202
C13 C 0.4219(10) 1.2693(10) 1.1272(13)
C14 C 0.3864(10) 1.3750(9) 1.1902(12)
H11 H 0.4445 1.4469 1.2339
C15 C 0.2664(10) 1.3757(9) 1.1894(11)
H12 H 0.2420 1.4483 1.2326
N4 N -0.1995(10) 1.2681(11) 1.1201(11)
C16 C -0.2855(11) 1.1799(11) 1.0348(11)
H13 H -0.2619 1.1198 0.9737
C17 C -0.4058(11) 1.1795(11) 1.0389(11)
H14 H -0.4645 1.1193 0.9806
C18 C 0.5597(10) 1.2674(11) 1.1284(10)
C19 C 0.6457(9) 1.3556(11) 1.2137(10)
H15 H 0.6222 1.4156 1.2747
C20 C -0.2340(9) 1.3560(11) 1.2095(11)
H16 H -0.1753 1.4162 1.2678
Mo1A Mo 0.23501(15) 1.01150(16) 0.70319(18)
Mo2A Mo 0.03302(17) 0.70199(15) 0.32063(18)
Mo3A Mo -0.04842(18) 1.06173(17) 0.78127(18)
Mo4A Mo 0.25326(16) 1.24785(16) 0.60458(18)
Mo5A Mo 0.28509(15) 0.95466(16) 0.42127(18)
Mo6A Mo -0.02109(17) 0.76311(16) 0.59950(19)
Ag1A Ag 0.00868(13) 1.72435(17) 0.87718(16)
Ag1A_2 Ag 0.00868(13) 0.72435(17) -0.12282(16)
Ag1_2 Ag -0.00868(13) 1.27565(17) 0.12282(16)
Ag1_3 Ag -1.00868(13) 1.27565(17) 1.12282(16)
Ag1_4 Ag 0.99132(13) 1.27565(17) 1.12282(16)
Ag1A_3 Ag 0.00868(13) 0.72435(17) 0.87718(16)
Ag2_2 Ag -1.0000 1.5000 1.0000
Ag2_3 Ag 0.0000 0.5000 0.0000
O1A O 0.2981(14) 0.9501(12) 0.5656(13)
O2A O 0.1231(14) 1.0750(13) 0.7949(13)
O3A O 0.3477(13) 1.0146(14) 0.7900(13)
O4A O 0.2815(15) 1.1680(13) 0.6979(13)
O5A O 0.1502(13) 0.8525(13) 0.6559(13)
O6A O 0.0440(14) 1.5628(13) 1.2346(13)
O6A_2 O 0.0440(14) 0.5628(13) 0.2346(13)
O7A O 0.0362(14) 0.6928(16) 0.4603(14)
O8A O 0.1389(15) 1.3207(16) 0.6874(14)
O9A O 0.1911(14) 0.7903(14) 0.3673(14)
O10A O -0.0128(15) 1.2225(14) 0.7814(14)
O11A O -0.0680(11) 0.8889(12) 0.7191(12)
O12A O -0.0685(12) 1.0874(13) 0.9103(12)
O12_2 O 0.0685(12) 1.9126(13) 1.0897(12)
O13A O 0.2058(14) 0.9634(14) 0.2900(14)
O14A O 0.3753(11) 1.3655(11) 0.6515(11)
O15A O 0.3154(14) 1.1259(13) 0.4938(12)
O16A O 0.1739(14) 1.2733(15) 0.4787(13)
O17A O 0.4148(11) 0.9306(13) 0.3826(12)
O18_2 O 0.0295(12) 1.3509(12) 1.3547(12)
O18A O -0.0295(12) 1.6491(12) 0.6453(12)
O18A_2 O -0.0295(12) 0.6491(12) 0.6453(12)
O19A O 0.0678(17) 0.9323(17) 0.4108(17)
O20A O 0.131(2) 1.043(2) 0.5445(18)
O21A O 0.034(2) 0.967(2) 0.605(2)
O22A O 0.0444(18) 1.1320(19) 0.5327(17)
N2A N 0.1926(10) 1.5009(12) 1.0081(12)
N2A_2 N -0.8074(10) 1.5009(12) 1.0081(12)
C6A C -0.7223(11) 1.6025(11) 1.0766(12)
H5A H -0.7459 1.6722 1.1267
C7A C -0.6030(11) 1.6030(11) 1.0725(12)
H6A H -0.5444 1.6730 1.1197
C8A C -0.5688(10) 1.5019(12) 0.9999(11)
C9A C -0.6538(11) 1.4003(12) 0.9313(11)
H7A H -0.6302 1.3306 0.8813
C10A C -0.7731(10) 1.3998(13) 0.9354(11)
H8A H -0.8317 1.3297 0.8882
N3A N -0.1817(9) 1.7291(10) 0.8744(10)
N3_2 N -0.8183(9) 1.2709(10) 1.1256(10)
C11_2 C -0.7828(9) 1.1652(10) 1.0626(11)
H9_2 H -0.8409 1.0932 1.0188
C12_2 C -0.6628(10) 1.1644(10) 1.0634(12)
H10_2 H -0.6384 1.0919 1.0202
C13_2 C -0.5781(10) 1.2693(10) 1.1272(13)
C14_2 C -0.6136(10) 1.3750(9) 1.1902(12)
H11_2 H -0.5555 1.4469 1.2339
C15_2 C -0.7336(10) 1.3757(9) 1.1894(11)
H12_2 H -0.7580 1.4483 1.2326
N4A N 0.1995(10) 1.7319(11) 0.8799(11)
N4_2 N 0.8005(10) 1.2681(11) 1.1201(11)
C16_2 C 0.7145(11) 1.1799(11) 1.0348(11)
H13_2 H 0.7381 1.1198 0.9737
C17_2 C 0.5942(11) 1.1795(11) 1.0389(11)
H14_2 H 0.5355 1.1193 0.9806
C18_2 C -0.4403(10) 1.2674(11) 1.1284(10)
C19_2 C -0.3543(9) 1.3556(11) 1.2137(10)
C20_2 C 0.7660(9) 1.3560(11) 1.2095(11)
H16_2 H 0.8247 1.4162 1.2678
loop_
_geom_bond_atom_site_label_1
_geom_bond_atom_site_label_2
_geom_bond_site_symmetry_1
_geom_bond_site_symmetry_2
Mo1 O1 1_555 1_555
Mo2 O6 1_555 1_555
Mo3 O2 1_555 1_555
Mo4 O4 1_555 1_555
Mo5 O1 1_555 1_555
Mo6 O5 1_555 1_555
P1 O19 1_555 1_555
Ag1 Ag2 1_555 1_555
Ag2 O6 1_555 1_555
O2 Mo1 1_555 1_555
O3 Mo1 1_555 1_555
O4 Mo1 1_555 1_555
O5 Mo1 1_555 1_555
O7 Mo2 1_555 1_555
O8 Mo4 1_555 1_555
O9 Mo2 1_555 1_555
O10 Mo3 1_555 1_555
O11 Mo3 1_555 1_555
O12 Mo3 1_555 1_555
O13 Mo5 1_555 1_555
O14 Mo4 1_555 1_555
O15 Mo4 1_555 1_555
O16 Mo4 1_555 1_555
O17 Mo5 1_555 1_555
O18 Mo6 1_555 1_555
O19 Mo2 1_555 1_555
O20 Mo1 1_555 1_555
O21 Mo1 1_555 1_555
O22 Mo4 1_555 1_555
N1 C1 1_555 1_555
C1 H1 1_555 1_555
C2 C1 1_555 1_555
H2 C2 1_555 1_555
C3 C2 1_555 1_555
C4 C3 1_555 1_555
H3 C4 1_555 1_555
C5 N1 1_555 1_555
H4 C5 1_555 1_555
N2 Ag2 1_555 1_555
C6 N2 1_555 1_555
H5 C6 1_555 1_555
C7 C6 1_555 1_555
H6 C7 1_555 1_555
C8 C7 1_555 1_555
C9 C8 1_555 1_555
H7 C9 1_555 1_555
C10 N2 1_555 1_555
H8 C10 1_555 1_555
N3 Ag1 1_555 1_555
C11 N3 1_555 1_555
H9 C11 1_555 1_555
C12 C11 1_555 1_555
H10 C12 1_555 1_555
C13 C12 1_555 1_555
C14 C13 1_555 1_555
H11 C14 1_555 1_555
C15 N3 1_555 1_555
H12 C15 1_555 1_555
N4 Ag1 1_555 1_555
C16 N4 1_555 1_555
H13 C16 1_555 1_555
C17 C16 1_555 1_555
H14 C17 1_555 1_555
C18 C13 1_555 1_555
C19 C18 1_555 1_555
H15 C19 1_555 1_555
C20 N4 1_555 1_555
H16 C20 1_555 1_555
Mo1A O1A 1_555 1_555
Mo2A O8 1_555 1_555
Mo3A O13 1_555 1_555
Mo4A O4A 1_555 1_555
Mo5A O1A 1_555 1_555
Mo6A O16 1_555 1_555
Ag1A Ag2 1_555 1_555
Ag1A_2 O12 1_555 1_555
Ag1_2 O18 1_555 1_555
Ag1_3 Ag2_2 1_555 1_555
Ag1_4 N4_2 1_555 1_555
Ag1A_3 O18A_2 1_555 1_555
Ag2_2 N2A_2 1_555 1_555
Ag2_3 Ag1A_2 1_555 1_555
O2A Mo1A 1_555 1_555
O3A Mo1A 1_555 1_555
O4A Mo1A 1_555 1_555
O5A Mo1A 1_555 1_555
O6A Ag2 1_555 1_555
O6A_2 Mo2A 1_555 1_555
O7A Mo2A 1_555 1_555
O8A Mo2 1_555 1_555
O9A Mo2A 1_555 1_555
O10A Mo2 1_555 1_555
O11A Mo3A 1_555 1_555
O12A Ag1 1_555 1_555
O12_2 Ag1A 1_555 1_555
O13A Mo3 1_555 1_555
O14A Mo4A 1_555 1_555
O15A Mo4A 1_555 1_555
O16A Mo6 1_555 1_555
O17A Mo5A 1_555 1_555
O18_2 Ag1 1_555 1_555
O18A Ag1A 1_555 1_555
O18A_2 Mo6A 1_555 1_555
O19A Mo3 1_555 1_555
O20A P1 1_555 1_555
O21A P1 1_555 1_555
O22A Mo2 1_555 1_555
N1A C1A 1_555 1_555
C1A H1A 1_555 1_555
C2A C1A 1_555 1_555
H2A C2A 1_555 1_555
C3A C3 1_555 1_555
C4A C3A 1_555 1_555
H3A C4A 1_555 1_555
C5A N1A 1_555 1_555
H4A C5A 1_555 1_555
N2A Ag2 1_555 1_555
N2A_2 C6A 1_555 1_555
C6A H5A 1_555 1_555
C7A C6A 1_555 1_555
H6A C7A 1_555 1_555
C8A C8 1_555 1_555
C9A C8A 1_555 1_555
H7A C9A 1_555 1_555
C10A N2A_2 1_555 1_555
H8A C10A 1_555 1_555
N3A Ag1A 1_555 1_555
N3_2 Ag1_3 1_555 1_555
C11_2 N3_2 1_555 1_555
H9_2 C11_2 1_555 1_555
C12_2 C11_2 1_555 1_555
H10_2 C12_2 1_555 1_555
C13_2 C12_2 1_555 1_555
C14_2 C13_2 1_555 1_555
H11_2 C14_2 1_555 1_555
C15_2 N3_2 1_555 1_555
H12_2 C15_2 1_555 1_555
N4A Ag1A 1_555 1_555
N4_2 C16_2 1_555 1_555
C16_2 H13_2 1_555 1_555
C17_2 C18 1_555 1_555
H14_2 C17_2 1_555 1_555
C18_2 C17 1_555 1_555
C19_2 C20 1_555 1_555
C20_2 C19 1_555 1_555
H16_2 C20_2 1_555 1_555
Mo3 O21 1_555 1_555
Mo4 O20 1_555 1_555
Mo5 O9 1_555 1_555
Mo5 O15 1_555 1_555
Mo5 O19 1_555 1_555
Mo6 O7 1_555 1_555
Mo6 O11 1_555 1_555
Mo6 O21 1_555 1_555
Mo6 O22A 1_555 1_555
P1 O20 1_555 1_555
P1 O21 1_555 1_555
P1 O22 1_555 1_555
P1 O19A 1_555 1_555
P1 O22A 1_555 1_555
O10 Mo2A 1_555 1_555
O19 Mo3A 1_555 1_555
O22 Mo2A 1_555 1_555
O22 Mo6A 1_555 1_555
C4 C5 1_555 1_555
C9 C10 1_555 1_555
C14 C15 1_555 1_555
Mo1A O20A 1_555 1_555
Mo1A O21A 1_555 1_555
Mo2A O19A 1_555 1_555
Mo3A O2A 1_555 1_555
Mo3A O10A 1_555 1_555
Mo3A O12A 1_555 1_555
Mo3A O21A 1_555 1_555
Mo4A O8A 1_555 1_555
Mo4A O16A 1_555 1_555
Mo4A O20A 1_555 1_555
Mo4A O22A 1_555 1_555
Mo5A O9A 1_555 1_555
Mo5A O13A 1_555 1_555
Mo5A O15A 1_555 1_555
Mo5A O19A 1_555 1_555
Mo6A O5A 1_555 1_555
Mo6A O7A 1_555 1_555
Mo6A O11A 1_555 1_555
Mo6A O21A 1_555 1_555
Ag2_3 O6A_2 1_555 1_555
C2A C3A 1_555 1_555
C4A C5A 1_555 1_555
C7A C8A 1_555 1_555
C9A C10A 1_555 1_555
C13_2 C18_2 1_555 1_555
C14_2 C15_2 1_555 1_555
N4_2 C20_2 1_555 1_555
C16_2 C17_2 1_555 1_555
C18_2 C19_2 1_555 1_555

#END
