
#######################################################################
#
#                 Cambridge Crystallographic Data Centre
#                                CCDC 
#
#######################################################################
#
# If this CIF has been generated from an entry in the Cambridge 
# Structural Database, then it will include bibliographic, chemical, 
# crystal, experimental, refinement or atomic coordinate data resulting 
# from the CCDC's data processing and validation procedures.
#
#######################################################################

data_QUKBEE
_symmetry_cell_setting           triclinic
_symmetry_space_group_name_H-M   'P -1'
_symmetry_Int_Tables_number      2
_space_group_name_Hall           '-P 1'
loop_
_symmetry_equiv_pos_site_id
_symmetry_equiv_pos_as_xyz
1 x,y,z
2 -x,-y,-z
_cell_length_a                   10.7252(19)
_cell_length_b                   12.955(2)
_cell_length_c                   16.522(3)
_cell_angle_alpha                100.747(3)
_cell_angle_beta                 91.160(4)
_cell_angle_gamma                90.423(4)
_cell_volume                     2254.78
loop_
_atom_site_label
_atom_site_type_symbol
_atom_site_fract_x
_atom_site_fract_y
_atom_site_fract_z
Ba1 Ba -0.00128(18) 0.27741(13) 0.89232(11)
Ba2 Ba 0.53222(18) 0.72814(14) 0.61465(11)
Cl1 Cl 0.3062(8) 0.1079(8) 0.9013(6)
O1 O 0.195(2) 0.1541(19) 0.9314(17)
O2 O 0.385(3) 0.176(2) 0.8597(17)
O3 O 0.369(2) 0.062(2) 0.9645(16)
O4 O 0.267(3) 0.017(2) 0.8344(17)
Cl2 Cl 0.0356(7) 0.4148(5) 1.0966(4)
O5 O 0.013(2) 0.3645(17) 1.1651(13)
O6 O 0.075(2) 0.5205(18) 1.1249(14)
O7 O -0.073(2) 0.4105(17) 1.0456(14)
O8 O 0.131(2) 0.3588(19) 1.0493(14)
Cl3 Cl 0.8024(8) 0.8557(7) 0.5610(6)
O9 O 0.919(2) 0.809(2) 0.564(2)
O10 O 0.716(2) 0.791(2) 0.5073(16)
O11 O 0.821(2) 0.9537(18) 0.5360(15)
O12 O 0.749(3) 0.877(2) 0.6358(17)
Cl4 Cl 0.5567(8) 0.5710(6) 0.3952(4)
O13 O 0.478(2) 0.613(2) 0.4610(16)
O14 O 0.565(3) 0.638(2) 0.3361(17)
O15 O 0.504(2) 0.4726(18) 0.3551(14)
O16 O 0.677(3) 0.548(3) 0.426(2)
N1 N 0.045(2) 0.222(2) 0.7115(15)
N2 N 0.576(2) 0.7612(19) 0.7980(15)
O17 O -0.181(2) 0.2929(16) 0.7601(13)
O18 O -0.2615(19) 0.2639(16) 0.9151(13)
O19 O -0.106(2) 0.1245(17) 0.9741(14)
O20 O -0.056(2) 0.0746(16) 0.8059(13)
O21 O -0.256(2) 0.6147(17) 0.6327(14)
O22 O 0.3416(18) 0.7072(15) 0.7376(12)
O23 O 0.272(2) 0.7486(16) 0.5842(13)
O24 O 0.439(2) 0.8890(17) 0.5407(13)
O25 O 0.4854(18) 0.9265(15) 0.7087(12)
O26 O 0.203(2) 0.3877(17) 0.8639(13)
C1 C -0.020(4) 0.121(3) 0.668(3)
H1 H 0.0197 0.0945 0.6146
H2 H -0.1091 0.1335 0.6580
C2 C -0.003(3) 0.309(2) 0.6773(19)
C3 C 0.064(3) 0.367(3) 0.629(2)
H3 H 0.1454 0.3456 0.6118
C4 C 0.015(3) 0.453(2) 0.6068(19)
H4 H 0.0618 0.4925 0.5746
C5 C -0.105(3) 0.484(2) 0.631(2)
C6 C -0.175(3) 0.433(2) 0.6821(17)
H5 H -0.2552 0.4575 0.6986
C7 C -0.124(3) 0.347(2) 0.7084(17)
C8 C -0.302(3) 0.329(2) 0.7925(17)
H6 H -0.2951 0.4010 0.8246
H7 H -0.3635 0.3282 0.7467
C9 C -0.344(3) 0.257(3) 0.845(2)
H8 H -0.4292 0.2757 0.8639
H9 H -0.3457 0.1844 0.8137
C10 C -0.315(3) 0.203(3) 0.973(2)
H10 H -0.3569 0.1390 0.9426
H11 H -0.3758 0.2458 1.0084
C11 C -0.204(3) 0.175(3) 1.025(2)
H12 H -0.1706 0.2398 1.0602
H13 H -0.2335 0.1275 1.0609
C12 C -0.135(3) 0.023(2) 0.928(2)
H14 H -0.2216 0.0211 0.9057
H15 H -0.1289 -0.0302 0.9643
C13 C -0.048(3) -0.002(2) 0.8616(19)
H16 H -0.0667 -0.0729 0.8300
H17 H 0.0375 -0.0012 0.8849
C14 C -0.003(3) 0.040(2) 0.7288(19)
H18 H -0.0413 -0.0278 0.7030
H19 H 0.0875 0.0286 0.7369
C15 C 0.180(3) 0.210(3) 0.696(2)
H20 H 0.1934 0.1922 0.6365
H21 H 0.2133 0.1542 0.7226
H22 H 0.2237 0.2764 0.7186
C16 C -0.155(4) 0.581(3) 0.602(2)
H23 H -0.1127 0.6133 0.5635
C17 C 0.518(3) 0.864(2) 0.828(2)
H24 H 0.4261 0.8545 0.8225
H25 H 0.5380 0.8844 0.8879
C18 C 0.508(3) 0.673(2) 0.8220(17)
C19 C 0.566(3) 0.613(3) 0.876(2)
H26 H 0.6473 0.6291 0.8988
C20 C 0.495(3) 0.528(2) 0.8940(18)
H27 H 0.5339 0.4825 0.9255
C21 C 0.380(3) 0.510(2) 0.8696(18)
C22 C 0.320(3) 0.569(2) 0.8162(19)
H28 H 0.2382 0.5518 0.7939
C23 C 0.390(3) 0.654(2) 0.7984(18)
C24 C 0.222(3) 0.684(3) 0.712(2)
H29 H 0.1655 0.6966 0.7591
H30 H 0.2139 0.6097 0.6844
C25 C 0.186(3) 0.756(3) 0.650(2)
H31 H 0.1010 0.7361 0.6273
H32 H 0.1830 0.8297 0.6802
C26 C 0.229(4) 0.809(4) 0.524(3)
H33 H 0.1789 0.8692 0.5511
H34 H 0.1757 0.7644 0.4814
C27 C 0.342(3) 0.847(3) 0.486(2)
H35 H 0.3758 0.7875 0.4461
H36 H 0.3159 0.9013 0.4543
C28 C 0.400(3) 0.989(2) 0.594(2)
H37 H 0.3151 0.9817 0.6149
H38 H 0.3999 1.0471 0.5627
C29 C 0.492(3) 1.014(2) 0.6659(18)
H39 H 0.5776 1.0211 0.6458
H40 H 0.4702 1.0800 0.7029
C30 C 0.553(3) 0.949(3) 0.789(2)
H41 H 0.6444 0.9499 0.7813
H42 H 0.5279 1.0169 0.8218
C31 C 0.710(3) 0.762(3) 0.816(2)
H43 H 0.7245 0.7721 0.8755
H44 H 0.7496 0.8196 0.7945
H45 H 0.7453 0.6950 0.7893
C32 C 0.313(3) 0.421(3) 0.891(2)
H46 H 0.3531 0.3834 0.9284
Ba1A Ba 0.00128(18) 0.72259(13) 1.10768(11)
Ba2A Ba 0.46778(18) 0.27186(14) 0.38535(11)
Ba2_2 Ba -0.46778(18) 0.72814(14) 0.61465(11)
O6A O -0.075(2) 0.4795(18) 0.8751(14)
O15A O 0.496(2) 0.5274(18) 0.6449(14)
O21_2 O 0.744(2) 0.6147(17) 0.6327(14)
loop_
_geom_bond_atom_site_label_1
_geom_bond_atom_site_label_2
_geom_bond_site_symmetry_1
_geom_bond_site_symmetry_2
Ba1 O1 1_555 1_555
Ba2 O10 1_555 1_555
Cl1 O1 1_555 1_555
O2 Cl1 1_555 1_555
O3 Cl1 1_555 1_555
O4 Cl1 1_555 1_555
Cl2 O5 1_555 1_555
O6 Cl2 1_555 1_555
O7 Ba1 1_555 1_555
O8 Ba1 1_555 1_555
Cl3 O9 1_555 1_555
O10 Cl3 1_555 1_555
O11 Cl3 1_555 1_555
O12 Ba2 1_555 1_555
Cl4 O13 1_555 1_555
O13 Ba2 1_555 1_555
O14 Cl4 1_555 1_555
O15 Cl4 1_555 1_555
O16 Cl4 1_555 1_555
N1 Ba1 1_555 1_555
N2 Ba2 1_555 1_555
O17 Ba1 1_555 1_555
O18 Ba1 1_555 1_555
O19 Ba1 1_555 1_555
O20 Ba1 1_555 1_555
O21 C16 1_555 1_555
O22 Ba2 1_555 1_555
O23 Ba2 1_555 1_555
O24 Ba2 1_555 1_555
O25 Ba2 1_555 1_555
O26 Ba1 1_555 1_555
C1 N1 1_555 1_555
H1 C1 1_555 1_555
H2 C1 1_555 1_555
C2 N1 1_555 1_555
C3 C2 1_555 1_555
H3 C3 1_555 1_555
C4 C3 1_555 1_555
H4 C4 1_555 1_555
C5 C4 1_555 1_555
C6 C5 1_555 1_555
H5 C6 1_555 1_555
C7 O17 1_555 1_555
C8 O17 1_555 1_555
H6 C8 1_555 1_555
H7 C8 1_555 1_555
C9 O18 1_555 1_555
H8 C9 1_555 1_555
H9 C9 1_555 1_555
C10 O18 1_555 1_555
H10 C10 1_555 1_555
H11 C10 1_555 1_555
C11 O19 1_555 1_555
H12 C11 1_555 1_555
H13 C11 1_555 1_555
C12 O19 1_555 1_555
H14 C12 1_555 1_555
H15 C12 1_555 1_555
C13 O20 1_555 1_555
H16 C13 1_555 1_555
H17 C13 1_555 1_555
C14 O20 1_555 1_555
H18 C14 1_555 1_555
H19 C14 1_555 1_555
C15 N1 1_555 1_555
H20 C15 1_555 1_555
H21 C15 1_555 1_555
H22 C15 1_555 1_555
C16 C5 1_555 1_555
H23 C16 1_555 1_555
C17 N2 1_555 1_555
H24 C17 1_555 1_555
H25 C17 1_555 1_555
C18 N2 1_555 1_555
C19 C18 1_555 1_555
H26 C19 1_555 1_555
C20 C19 1_555 1_555
H27 C20 1_555 1_555
C21 C20 1_555 1_555
C22 C21 1_555 1_555
H28 C22 1_555 1_555
C23 O22 1_555 1_555
C24 O22 1_555 1_555
H29 C24 1_555 1_555
H30 C24 1_555 1_555
C25 O23 1_555 1_555
H31 C25 1_555 1_555
H32 C25 1_555 1_555
C26 O23 1_555 1_555
H33 C26 1_555 1_555
H34 C26 1_555 1_555
C27 O24 1_555 1_555
H35 C27 1_555 1_555
H36 C27 1_555 1_555
C28 O24 1_555 1_555
H37 C28 1_555 1_555
H38 C28 1_555 1_555
C29 O25 1_555 1_555
H39 C29 1_555 1_555
H40 C29 1_555 1_555
C30 O25 1_555 1_555
H41 C30 1_555 1_555
H42 C30 1_555 1_555
C31 N2 1_555 1_555
H43 C31 1_555 1_555
H44 C31 1_555 1_555
H45 C31 1_555 1_555
C32 O26 1_555 1_555
H46 C32 1_555 1_555
Ba1A O6 1_555 1_555
Ba2A O15 1_555 1_555
Ba2_2 O21 1_555 1_555
O6A Ba1 1_555 1_555
O15A Ba2 1_555 1_555
O21_2 Ba2 1_555 1_555
Cl2 O7 1_555 1_555
Cl2 O8 1_555 1_555
Cl3 O12 1_555 1_555
C1 C14 1_555 1_555
C2 C7 1_555 1_555
C6 C7 1_555 1_555
C8 C9 1_555 1_555
C10 C11 1_555 1_555
C12 C13 1_555 1_555
C17 C30 1_555 1_555
C18 C23 1_555 1_555
C21 C32 1_555 1_555
C22 C23 1_555 1_555
C24 C25 1_555 1_555
C26 C27 1_555 1_555
C28 C29 1_555 1_555

#END
