
#######################################################################
#
#                 Cambridge Crystallographic Data Centre
#                                CCDC 
#
#######################################################################
#
# If this CIF has been generated from an entry in the Cambridge 
# Structural Database, then it will include bibliographic, chemical, 
# crystal, experimental, refinement or atomic coordinate data resulting 
# from the CCDC's data processing and validation procedures.
#
#######################################################################

data_QUKKEN
_symmetry_cell_setting           monoclinic
_symmetry_space_group_name_H-M   'P 21/c'
_symmetry_Int_Tables_number      14
_space_group_name_Hall           '-P 2ybc'
loop_
_symmetry_equiv_pos_site_id
_symmetry_equiv_pos_as_xyz
1 x,y,z
2 -x,1/2+y,1/2-z
3 -x,-y,-z
4 x,1/2-y,1/2+z
_cell_length_a                   6.876(5)
_cell_length_b                   26.827(5)
_cell_length_c                   17.715(5)
_cell_angle_alpha                90
_cell_angle_beta                 94.337(5)
_cell_angle_gamma                90
_cell_volume                     3258.4
loop_
_atom_site_label
_atom_site_type_symbol
_atom_site_fract_x
_atom_site_fract_y
_atom_site_fract_z
Cd1 Cd 0.01157(6) 0.012563(17) 0.75747(2)
O1 O 0.2733(9) 0.0384(2) 0.8403(4)
O2 O 0.0279(8) 0.0893(2) 0.8269(4)
O3 O 0.6718(8) 0.23715(18) 0.9724(3)
O4 O 1.1346(7) 0.36419(19) 0.9591(3)
O5 O 1.8504(7) 0.44283(19) 0.7852(3)
O6 O 1.7661(9) 0.51184(19) 0.8411(4)
N1 N -0.1889(9) 0.0541(2) 0.6743(3)
N2 N -0.4078(8) 0.1088(2) 0.6305(3)
N3 N -0.9979(8) 0.2528(2) 0.6363(3)
N4 N -0.9596(8) 0.2963(2) 0.6122(3)
N5 N -1.5695(8) 0.4354(2) 0.6191(3)
N6 N -1.8033(8) 0.4807(2) 0.6650(3)
C1 C -0.1516(10) 0.0662(3) 0.6000(4)
H1 H -0.0516 0.0531 0.5736
C2 C -0.2861(9) 0.1005(3) 0.5727(3)
H2 H -0.2945 0.1152 0.5250
C3 C -0.3415(10) 0.0799(3) 0.6895(4)
H3 H -0.3982 0.0786 0.7355
C4 C -0.5306(10) 0.1908(2) 0.5945(4)
H4 H -0.4182 0.1965 0.5697
C5 C -0.6739(11) 0.2271(3) 0.5967(4)
H5 H -0.6574 0.2577 0.5732
C6 C -0.8394(10) 0.2184(2) 0.6332(4)
C7 C -0.8659(10) 0.1728(3) 0.6697(4)
H6 H -0.9774 0.1671 0.6950
C8 C -0.7238(11) 0.1368(3) 0.6674(4)
H7 H -0.7398 0.1063 0.6911
C9 C -0.5607(10) 0.1455(3) 0.6308(4)
C10 C -1.1199(10) 0.3299(2) 0.6138(4)
C11 C -1.0851(10) 0.3788(2) 0.5952(4)
H8 H -0.9621 0.3882 0.5820
C12 C -1.2332(9) 0.4141(2) 0.5962(3)
H9 H -1.2105 0.4470 0.5831
C13 C -1.4115(10) 0.3997(3) 0.6165(4)
C14 C -1.4539(10) 0.3508(3) 0.6351(4)
H10 H -1.5782 0.3417 0.6474
C15 C -1.3049(9) 0.3158(2) 0.6348(4)
H11 H -1.3278 0.2830 0.6485
C16 C -1.6475(10) 0.4635(3) 0.5600(4)
H12 H -1.6100 0.4637 0.5106
C17 C -1.7939(10) 0.4917(2) 0.5887(4)
H13 H -1.8732 0.5145 0.5613
C18 C -1.6607(10) 0.4471(3) 0.6804(4)
H14 H -1.6294 0.4336 0.7281
C19 C 0.1994(11) 0.0813(3) 0.8496(4)
C20 C 0.3256(10) 0.1213(3) 0.8829(4)
C21 C 0.5253(10) 0.1145(3) 0.8981(4)
H15 H 0.5802 0.0836 0.8889
C22 C 0.6430(11) 0.1526(3) 0.9265(4)
H16 H 0.7764 0.1478 0.9366
C23 C 0.5582(11) 0.1984(3) 0.9397(4)
C24 C 0.3611(10) 0.2064(2) 0.9241(4)
H17 H 0.3070 0.2375 0.9331
C25 C 0.2449(11) 0.1680(3) 0.8953(4)
H18 H 0.1122 0.1732 0.8840
C26 C 0.7929(10) 0.2626(2) 0.9254(4)
C27 C 0.9121(9) 0.2987(2) 0.9609(4)
H19 H 0.9132 0.3032 1.0130
C28 C 1.0277(9) 0.3274(3) 0.9191(4)
C29 C 1.0286(11) 0.3207(3) 0.8414(4)
H20 H 1.1041 0.3409 0.8125
C30 C 0.9146(11) 0.2834(3) 0.8083(4)
H21 H 0.9198 0.2775 0.7567
C31 C 0.7916(10) 0.2539(3) 0.8489(4)
H22 H 0.7124 0.2295 0.8253
C32 C 1.2887(11) 0.3866(3) 0.9282(4)
C33 C 1.4273(10) 0.3604(3) 0.8913(4)
H23 H 1.4194 0.3259 0.8875
C34 C 1.5773(10) 0.3857(3) 0.8603(4)
H24 H 1.6661 0.3683 0.8332
C35 C 1.5958(10) 0.4371(3) 0.8694(4)
C36 C 1.4612(10) 0.4629(3) 0.9103(4)
H25 H 1.4736 0.4971 0.9175
C37 C 1.3099(11) 0.4373(3) 0.9398(4)
H26 H 1.2218 0.4543 0.9678
C38 C 1.7480(9) 0.4653(3) 0.8307(4)
Cd1A Cd 1.98843(6) 0.512563(17) 0.74253(2)
Cd1A_2 Cd -2.01157(6) 0.512563(17) 0.74253(2)
O5A O 0.1496(7) -0.05717(19) 0.7148(3)
O6A O 0.2339(9) 0.01184(19) 0.6589(4)
N6A N -0.1967(8) -0.0193(2) 0.8350(3)
loop_
_geom_bond_atom_site_label_1
_geom_bond_atom_site_label_2
_geom_bond_site_symmetry_1
_geom_bond_site_symmetry_2
Cd1 O1 1_555 1_555
O1 C19 1_555 1_555
O2 Cd1 1_555 1_555
O3 C23 1_555 1_555
O4 C28 1_555 1_555
O5 C38 1_555 1_555
O6 C38 1_555 1_555
N1 Cd1 1_555 1_555
N2 C2 1_555 1_555
N3 N4 1_555 1_555
N4 C10 1_555 1_555
N5 C13 1_555 1_555
N6 C17 1_555 1_555
C1 N1 1_555 1_555
H1 C1 1_555 1_555
C2 C1 1_555 1_555
H2 C2 1_555 1_555
C3 N1 1_555 1_555
H3 C3 1_555 1_555
C4 H4 1_555 1_555
C5 C4 1_555 1_555
H5 C5 1_555 1_555
C6 N3 1_555 1_555
C7 C6 1_555 1_555
H6 C7 1_555 1_555
C8 C7 1_555 1_555
H7 C8 1_555 1_555
C9 N2 1_555 1_555
C10 C11 1_555 1_555
C11 H8 1_555 1_555
C12 C11 1_555 1_555
H9 C12 1_555 1_555
C13 C12 1_555 1_555
C14 C13 1_555 1_555
H10 C14 1_555 1_555
C15 C10 1_555 1_555
H11 C15 1_555 1_555
C16 N5 1_555 1_555
H12 C16 1_555 1_555
C17 C16 1_555 1_555
H13 C17 1_555 1_555
C18 N5 1_555 1_555
H14 C18 1_555 1_555
C19 O2 1_555 1_555
C20 C19 1_555 1_555
C21 C20 1_555 1_555
H15 C21 1_555 1_555
C22 C21 1_555 1_555
H16 C22 1_555 1_555
C23 C22 1_555 1_555
C24 C23 1_555 1_555
H17 C24 1_555 1_555
C25 C20 1_555 1_555
H18 C25 1_555 1_555
C26 O3 1_555 1_555
C27 C26 1_555 1_555
H19 C27 1_555 1_555
C28 C27 1_555 1_555
C29 C28 1_555 1_555
H20 C29 1_555 1_555
C30 C29 1_555 1_555
H21 C30 1_555 1_555
C31 C26 1_555 1_555
H22 C31 1_555 1_555
C32 O4 1_555 1_555
C33 C32 1_555 1_555
H23 C33 1_555 1_555
C34 C33 1_555 1_555
H24 C34 1_555 1_555
C35 C34 1_555 1_555
C36 C35 1_555 1_555
H25 C36 1_555 1_555
C37 C32 1_555 1_555
H26 C37 1_555 1_555
C38 C35 1_555 1_555
Cd1A O5 1_555 1_555
Cd1A_2 N6 1_555 1_555
O5A Cd1 1_555 1_555
O6A Cd1 1_555 1_555
N6A Cd1 1_555 1_555
O6 Cd1A 1_555 1_555
N2 C3 1_555 1_555
N6 C18 1_555 1_555
C4 C9 1_555 1_555
C5 C6 1_555 1_555
C8 C9 1_555 1_555
C14 C15 1_555 1_555
C24 C25 1_555 1_555
C30 C31 1_555 1_555
C36 C37 1_555 1_555

#END
