
#######################################################################
#
#                 Cambridge Crystallographic Data Centre
#                                CCDC 
#
#######################################################################
#
# If this CIF has been generated from an entry in the Cambridge 
# Structural Database, then it will include bibliographic, chemical, 
# crystal, experimental, refinement or atomic coordinate data resulting 
# from the CCDC's data processing and validation procedures.
#
#######################################################################

data_QUKLEP
_symmetry_cell_setting           monoclinic
_symmetry_space_group_name_H-M   'P 21/c'
_symmetry_Int_Tables_number      14
_space_group_name_Hall           '-P 2ybc'
loop_
_symmetry_equiv_pos_site_id
_symmetry_equiv_pos_as_xyz
1 x,y,z
2 -x,1/2+y,1/2-z
3 -x,-y,-z
4 x,1/2-y,1/2+z
_cell_length_a                   13.9598(12)
_cell_length_b                   8.1121(7)
_cell_length_c                   14.2251(11)
_cell_angle_alpha                90
_cell_angle_beta                 119.203(4)
_cell_angle_gamma                90
_cell_volume                     1406.15
loop_
_atom_site_label
_atom_site_type_symbol
_atom_site_fract_x
_atom_site_fract_y
_atom_site_fract_z
Yb1 Yb 0.45914(5) 0.41234(6) 0.63424(4)
O1 O 0.6049(7) 0.5108(13) 0.6218(7)
O2 O 0.6761(7) 0.6393(12) 0.5329(7)
O3 O 0.6038(7) 0.4080(10) 0.8062(7)
O4 O 0.5886(8) 0.6778(12) 0.8117(7)
O5 O 0.6485(7) 0.9914(12) 0.8015(7)
O6 O 0.6475(8) 0.9321(12) 0.6487(7)
O7 O 0.5129(8) 0.1889(12) 0.5591(7)
H1 H 0.5436 0.0980 0.5971
H2 H 0.5426 0.1981 0.5270
O8 O 0.3997(8) 0.6720(12) 0.5643(7)
C1 C 0.8020(10) 0.5692(16) 0.7160(10)
C2 C 0.8105(10) 0.4726(17) 0.8137(10)
H3 H 0.7686 0.3715 0.7870
H4 H 0.8866 0.4415 0.8592
C3 C 0.7710(11) 0.5611(16) 0.8844(10)
C4 C 0.8176(11) 0.7381(17) 0.9109(10)
H5 H 0.7819 0.7958 0.9451
H6 H 0.8951 0.7313 0.9630
C5 C 0.8047(10) 0.8418(16) 0.8156(10)
C6 C 0.8453(10) 0.7448(17) 0.7490(10)
H7 H 0.8262 0.8071 0.6840
H8 H 0.9247 0.7397 0.7900
C7 C 0.6838(11) 0.5719(16) 0.6180(10)
C8 C 0.8726(12) 0.4790(18) 0.6764(11)
H9 H 0.8632 0.5304 0.6116
H10 H 0.8502 0.3658 0.6620
H11 H 0.9484 0.4847 0.7307
C9 C 0.6490(11) 0.5521(16) 0.8328(10)
C10 C 0.8128(12) 0.4629(18) 0.9909(11)
H12 H 0.7811 0.5079 1.0320
H13 H 0.8914 0.4709 1.0320
H14 H 0.7919 0.3493 0.9748
C11 C 0.6874(11) 0.9231(14) 0.7477(10)
C12 C 0.8791(11) 0.9949(17) 0.8614(11)
H15 H 0.8617 1.0511 0.9106
H16 H 0.8673 1.0677 0.8035
H17 H 0.9546 0.9610 0.8987
Yb1A Yb 0.54086(5) 0.91234(6) 0.86576(4)
Yb1B Yb 0.54086(5) 0.58766(6) 0.36576(4)
O2B O 0.3239(7) 0.3607(12) 0.4671(7)
O4A O 0.4114(8) 0.1778(12) 0.6883(7)
O5A O 0.3515(7) 0.4914(12) 0.6985(7)
loop_
_geom_bond_atom_site_label_1
_geom_bond_atom_site_label_2
_geom_bond_site_symmetry_1
_geom_bond_site_symmetry_2
Yb1 O1 1_555 1_555
O1 C7 1_555 1_555
O2 C7 1_555 1_555
O3 Yb1 1_555 1_555
O4 C9 1_555 1_555
O5 C11 1_555 1_555
O6 C11 1_555 1_555
O7 Yb1 1_555 1_555
H1 O7 1_555 1_555
H2 O7 1_555 1_555
O8 Yb1 1_555 1_555
C1 C2 1_555 1_555
C2 H3 1_555 1_555
H4 C2 1_555 1_555
C3 C2 1_555 1_555
C4 C3 1_555 1_555
H5 C4 1_555 1_555
H6 C4 1_555 1_555
C5 C4 1_555 1_555
C6 C1 1_555 1_555
H7 C6 1_555 1_555
H8 C6 1_555 1_555
C7 C1 1_555 1_555
C8 C1 1_555 1_555
H9 C8 1_555 1_555
H10 C8 1_555 1_555
H11 C8 1_555 1_555
C9 O3 1_555 1_555
C10 C3 1_555 1_555
H12 C10 1_555 1_555
H13 C10 1_555 1_555
H14 C10 1_555 1_555
C11 C5 1_555 1_555
C12 C5 1_555 1_555
H15 C12 1_555 1_555
H16 C12 1_555 1_555
H17 C12 1_555 1_555
Yb1A O4 1_555 1_555
Yb1B O2 1_555 1_555
O2B Yb1 1_555 1_555
O4A Yb1 1_555 1_555
O5A Yb1 1_555 1_555
O5 Yb1A 1_555 1_555
C3 C9 1_555 1_555
C5 C6 1_555 1_555

#END
