
#######################################################################
#
#                 Cambridge Crystallographic Data Centre
#                                CCDC 
#
#######################################################################
#
# If this CIF has been generated from an entry in the Cambridge 
# Structural Database, then it will include bibliographic, chemical, 
# crystal, experimental, refinement or atomic coordinate data resulting 
# from the CCDC's data processing and validation procedures.
#
#######################################################################

data_QUKLIT
_symmetry_cell_setting           monoclinic
_symmetry_space_group_name_H-M   'C 2/c'
_symmetry_Int_Tables_number      15
_space_group_name_Hall           '-C 2yn'
loop_
_symmetry_equiv_pos_site_id
_symmetry_equiv_pos_as_xyz
1 x,y,z
2 -x,y,1/2-z
3 1/2+x,1/2+y,z
4 1/2-x,1/2+y,1/2-z
5 -x,-y,-z
6 x,-y,1/2+z
7 1/2-x,1/2-y,-z
8 1/2+x,1/2-y,1/2+z
_cell_length_a                   25.4143(14)
_cell_length_b                   8.8177(5)
_cell_length_c                   15.7551(8)
_cell_angle_alpha                90
_cell_angle_beta                 122.397(3)
_cell_angle_gamma                90
_cell_volume                     2981.13
loop_
_atom_site_label
_atom_site_type_symbol
_atom_site_fract_x
_atom_site_fract_y
_atom_site_fract_z
U1 U 0.23035(2) 0.25687(3) 0.35175(2)
O1 O 0.1591(3) 0.1603(6) 0.3046(4)
O2 O 0.3013(3) 0.3562(6) 0.3986(4)
O3 O 0.2705(3) 0.0222(6) 0.3344(4)
O4 O 0.2821(3) -0.2204(6) 0.3067(4)
O5 O 0.2798(3) 0.1299(6) 0.5159(4)
O6 O 0.3763(3) 0.0518(7) 0.5659(4)
O7 O 0.3312(2) 0.0223(6) 0.7162(4)
O8 O 0.3546(3) -0.2197(6) 0.7649(4)
C1 C 0.2464(4) -0.1675(9) 0.4164(5)
H1 H 0.2097 -0.1039 0.4008
C2 C 0.2987(4) -0.1365(8) 0.5265(5)
H2 H 0.3341 -0.2074 0.5456
C3 C 0.2728(4) -0.1690(9) 0.5943(5)
H3 H 0.2351 -0.1043 0.5709
C4 C 0.2675(4) -0.1184(9) 0.3463(5)
C5 C 0.3218(4) 0.0240(9) 0.5383(5)
C6 C 0.3229(4) -0.1213(9) 0.7013(5)
O3F O 0.2295(3) -0.5222(6) 0.6656(4)
O4F O 0.2179(3) -0.2796(6) 0.6933(4)
O5F O 0.2202(3) -0.6299(6) 0.4841(4)
O6F O 0.1237(3) -0.5518(7) 0.4341(4)
O7F O 0.1688(2) -0.5223(6) 0.2838(4)
O8F O 0.1454(3) -0.2803(6) 0.2351(4)
C1F C 0.2536(4) -0.3325(9) 0.5836(5)
H1F H 0.2903 -0.3961 0.5992
C2F C 0.2013(4) -0.3635(8) 0.4735(5)
H2F H 0.1659 -0.2926 0.4544
C3F C 0.2272(4) -0.3310(9) 0.4057(5)
H3F H 0.2649 -0.3957 0.4291
C4F C 0.2325(4) -0.3816(9) 0.6537(5)
C5F C 0.1782(4) -0.5240(9) 0.4617(5)
C6F C 0.1771(4) -0.3787(9) 0.2987(5)
U1F U 0.26965(2) -0.75687(3) 0.64825(2)
O1F O 0.3409(3) -0.6603(6) 0.6954(4)
O2F O 0.1987(3) -0.8562(6) 0.6014(4)
U1_2 U 0.23035(2) -0.74313(3) 0.35175(2)
U1C U 0.26965(2) -0.24313(3) 0.14825(2)
U1E U 0.23035(2) -0.25687(3) 0.85175(2)
U1F_2 U 0.26965(2) 0.24313(3) 0.64825(2)
O4C O 0.2179(3) 0.2796(6) 0.1933(4)
O4E O 0.2821(3) -0.7796(6) 0.8067(4)
O5_2 O 0.2798(3) -0.8701(6) 0.5159(4)
O5F_2 O 0.2202(3) 0.3701(6) 0.4841(4)
O7_2 O 0.3312(2) -0.9777(6) 0.7162(4)
O7F_2 O 0.1688(2) 0.4777(6) 0.2838(4)
Ni1 Ni 0.0000 0.5000 0.0000
O9 O 0.0680(3) 0.6582(9) 0.0386(5)
O10 O 0.0492(8) 0.396(2) 0.1377(12)
O11 O 0.0399(9) 0.348(2) -0.0505(19)
O9D O -0.0680(3) 0.3418(9) -0.0386(5)
O10D O -0.0492(8) 0.604(2) -0.1377(12)
O11D O -0.0399(9) 0.652(2) 0.0505(19)
O14 O 0.0000 0.297(6) 0.2500
O15 O 0.0831(13) 0.048(3) 0.075(2)
O12? O 0.0735(14) 0.358(3) 0.096(2)
O13? O 0.0077(12) 0.430(4) -0.118(2)
O16? O 0.097(2) 0.105(6) 0.030(4)
loop_
_geom_bond_atom_site_label_1
_geom_bond_atom_site_label_2
_geom_bond_site_symmetry_1
_geom_bond_site_symmetry_2
U1 O1 1_555 1_555
O2 U1 1_555 1_555
O3 U1 1_555 1_555
O4 C4 1_555 1_555
O5 U1 1_555 1_555
O6 C5 1_555 1_555
O7 C6 1_555 1_555
O8 C6 1_555 1_555
C1 H1 1_555 1_555
C2 C1 1_555 1_555
H2 C2 1_555 1_555
C3 C2 1_555 1_555
H3 C3 1_555 1_555
C4 O3 1_555 1_555
C5 O5 1_555 1_555
C6 C3 1_555 1_555
Ni1 O9 1_555 1_555
O10 Ni1 1_555 1_555
O11 Ni1 1_555 1_555
O3F C4F 1_555 1_555
O4F C4F 1_555 1_555
O5F C5F 1_555 1_555
O6F C5F 1_555 1_555
O7F C6F 1_555 1_555
O8F C6F 1_555 1_555
C1F C3 1_555 1_555
H1F C1F 1_555 1_555
C2F C1F 1_555 1_555
H2F C2F 1_555 1_555
C3F C1 1_555 1_555
H3F C3F 1_555 1_555
C4F C1F 1_555 1_555
C5F C2F 1_555 1_555
C6F C3F 1_555 1_555
U1F O3F 1_555 1_555
O1F U1F 1_555 1_555
O2F U1F 1_555 1_555
U1_2 O5F 1_555 1_555
U1C O4 1_555 1_555
U1E O4F 1_555 1_555
U1F_2 O5 1_555 1_555
O4C U1 1_555 1_555
O4E U1F 1_555 1_555
O5_2 U1F 1_555 1_555
O5F_2 U1 1_555 1_555
O7_2 U1F 1_555 1_555
O7F_2 U1 1_555 1_555
O9D Ni1 1_555 1_555
O10D Ni1 1_555 1_555
O11D Ni1 1_555 1_555
O7 U1F_2 1_555 1_555
C1 C4 1_555 1_555
C2 C5 1_555 1_555
O5F U1F 1_555 1_555
O7F U1_2 1_555 1_555
C2F C3F 1_555 1_555
U1_2 O5_2 1_555 1_555
U1F_2 O5F_2 1_555 1_555

#END
