
#######################################################################
#
#                 Cambridge Crystallographic Data Centre
#                                CCDC 
#
#######################################################################
#
# If this CIF has been generated from an entry in the Cambridge 
# Structural Database, then it will include bibliographic, chemical, 
# crystal, experimental, refinement or atomic coordinate data resulting 
# from the CCDC's data processing and validation procedures.
#
#######################################################################

data_QUKMOA
_symmetry_cell_setting           monoclinic
_symmetry_space_group_name_H-M   'P 21/c'
_symmetry_Int_Tables_number      14
_space_group_name_Hall           '-P 2ybc'
loop_
_symmetry_equiv_pos_site_id
_symmetry_equiv_pos_as_xyz
1 x,y,z
2 -x,1/2+y,1/2-z
3 -x,-y,-z
4 x,1/2-y,1/2+z
_cell_length_a                   16.7013(4)
_cell_length_b                   19.7401(7)
_cell_length_c                   18.8032(5)
_cell_angle_alpha                90
_cell_angle_beta                 95.058(2)
_cell_angle_gamma                90
_cell_volume                     6175
loop_
_atom_site_label
_atom_site_type_symbol
_atom_site_fract_x
_atom_site_fract_y
_atom_site_fract_z
C1 C -0.0006(3) 0.0354(3) 0.1513(3)
C2 C 0.0113(5) -0.0087(4) 0.0982(4)
H1 H 0.0551 -0.0026 0.0715
C3 C -0.0410(6) -0.0634(5) 0.0825(5)
H2 H -0.0317 -0.0933 0.0459
C4 C -0.1049(5) -0.0723(4) 0.1205(6)
H3 H -0.1394 -0.1087 0.1103
C5 C -0.1191(5) -0.0294(5) 0.1727(5)
H4 H -0.1637 -0.0355 0.1984
C6 C -0.0673(4) 0.0246(4) 0.1885(4)
H5 H -0.0776 0.0542 0.2251
C7 C 0.1511(3) 0.1668(3) 0.1140(3)
C8 C 0.2006(4) 0.1310(4) 0.0715(4)
H6 H 0.2009 0.0839 0.0733
C9 C 0.2493(5) 0.1639(5) 0.0266(4)
H7 H 0.2809 0.1391 -0.0023
C10 C 0.2506(6) 0.2333(6) 0.0248(5)
H8 H 0.2835 0.2555 -0.0051
C11 C 0.2041(7) 0.2697(5) 0.0666(6)
H9 H 0.2060 0.3167 0.0658
C12 C 0.1534(5) 0.2367(4) 0.1105(5)
H10 H 0.1207 0.2621 0.1379
C13 C 0.0655(3) 0.1470(3) 0.2902(3)
C14 C 0.0623(6) 0.2128(4) 0.3120(4)
H11 H 0.0675 0.2478 0.2797
C15 C 0.0511(8) 0.2276(5) 0.3839(5)
H12 H 0.0496 0.2725 0.3987
C16 C 0.0425(6) 0.1770(6) 0.4316(4)
H13 H 0.0356 0.1872 0.4790
C17 C 0.0441(6) 0.1121(5) 0.4099(4)
H14 H 0.0373 0.0773 0.4421
C18 C 0.0560(5) 0.0969(4) 0.3394(3)
H15 H 0.0575 0.0519 0.3253
C19 C 0.1515(3) -0.0967(3) 0.2886(3)
C20 C 0.1672(4) -0.0751(3) 0.3592(3)
H16 H 0.2185 -0.0600 0.3750
C21 C 0.1077(6) -0.0760(4) 0.4058(4)
H17 H 0.1194 -0.0629 0.4531
C22 C 0.0313(6) -0.0961(4) 0.3822(5)
H18 H -0.0088 -0.0964 0.4135
C23 C 0.0138(4) -0.1157(4) 0.3128(4)
H19 H -0.0384 -0.1281 0.2967
C24 C 0.0742(4) -0.1170(4) 0.2664(3)
H20 H 0.0623 -0.1318 0.2197
C25 C 0.2559(3) -0.0688(3) 0.1142(3)
C26 C 0.1963(4) -0.0816(3) 0.0594(3)
H21 H 0.1497 -0.1040 0.0695
C27 C 0.2054(5) -0.0614(4) -0.0101(4)
H22 H 0.1640 -0.0691 -0.0455
C28 C 0.2734(5) -0.0308(4) -0.0271(4)
H23 H 0.2793 -0.0180 -0.0740
C29 C 0.3336(5) -0.0189(4) 0.0255(4)
H24 H 0.3805 0.0026 0.0146
C30 C 0.3250(4) -0.0383(4) 0.0941(4)
H25 H 0.3673 -0.0308 0.1288
C31 C 0.3600(4) -0.1378(3) 0.2689(3)
C32 C 0.3729(4) -0.2067(3) 0.2809(3)
H26 H 0.3309 -0.2372 0.2713
C33 C 0.4475(5) -0.2298(4) 0.3069(4)
H27 H 0.4549 -0.2760 0.3146
C34 C 0.5104(5) -0.1874(5) 0.3217(5)
H28 H 0.5603 -0.2039 0.3393
C35 C 0.4990(5) -0.1203(5) 0.3101(5)
H29 H 0.5418 -0.0906 0.3197
C36 C 0.4240(4) -0.0950(4) 0.2841(5)
H30 H 0.4173 -0.0487 0.2769
C37 C 0.4393(4) 0.1060(4) 0.2441(4)
C38 C 0.4148(5) 0.1235(5) 0.1754(4)
H31 H 0.3657 0.1453 0.1659
C39 C 0.4612(8) 0.1097(7) 0.1188(6)
H32 H 0.4429 0.1234 0.0729
C40 C 0.5305(12) 0.0778(9) 0.1295(10)
H33 H 0.5607 0.0685 0.0914
C41 C 0.5568(9) 0.0588(8) 0.1961(12)
H34 H 0.6058 0.0363 0.2033
C42 C 0.5117(5) 0.0722(6) 0.2572(7)
H35 H 0.5306 0.0587 0.3030
C43 C 0.3363(4) 0.2418(3) 0.3193(4)
C44 C 0.3721(8) 0.2908(5) 0.3628(6)
H36 H 0.4065 0.2774 0.4019
C45 C 0.3593(9) 0.3588(6) 0.3511(8)
H37 H 0.3880 0.3905 0.3796
C46 C 0.3063(6) 0.3791(5) 0.2995(9)
H38 H 0.2940 0.4249 0.2942
C47 C 0.2707(8) 0.3343(6) 0.2554(10)
H39 H 0.2364 0.3484 0.2166
C48 C 0.2851(6) 0.2658(5) 0.2673(8)
H40 H 0.2572 0.2349 0.2371
C49 C 0.3388(4) 0.0755(3) 0.4134(3)
C50 C 0.2699(5) 0.0866(4) 0.4453(4)
H41 H 0.2355 0.1212 0.4282
C51 C 0.2493(9) 0.0477(6) 0.5027(6)
H42 H 0.2011 0.0552 0.5227
C52 C 0.3003(11) -0.0010(7) 0.5288(7)
H43 H 0.2889 -0.0252 0.5692
C53 C 0.3686(9) -0.0150(7) 0.4964(8)
H44 H 0.4016 -0.0508 0.5124
C54 C 0.3880(6) 0.0244(6) 0.4402(6)
H45 H 0.4358 0.0161 0.4197
C55 C 0.2375(3) 0.0521(3) 0.2441(3)
C56 C -0.0919(3) 0.2093(3) 0.1727(3)
H46 H -0.0879 0.2028 0.2219
C57 C -0.1612(4) 0.2386(4) 0.1402(3)
H47 H -0.2022 0.2517 0.1676
C58 C -0.1697(4) 0.2482(3) 0.0678(3)
C59 C -0.1073(4) 0.2270(4) 0.0298(3)
H48 H -0.1105 0.2318 -0.0196
C60 C -0.0411(4) 0.1991(3) 0.0654(3)
H49 H 0.0003 0.1852 0.0387
C61 C -0.2444(4) 0.2809(4) 0.0307(5)
H50 H -0.2634 0.3160 0.0611
H51 H -0.2308 0.3021 -0.0133
C62 C -0.3106(4) 0.2301(4) 0.0137(4)
H52 H -0.3263 0.2104 0.0576
H53 H -0.2913 0.1939 -0.0153
C63 C -0.3824(4) 0.2639(4) -0.0261(4)
C64 C -0.4397(5) 0.2976(5) 0.0069(4)
H54 H -0.4368 0.2994 0.0565
C65 C -0.5022(4) 0.3291(5) -0.0333(4)
H55 H -0.5407 0.3516 -0.0093
C66 C -0.4545(6) 0.2965(7) -0.1335(4)
H56 H -0.4593 0.2947 -0.1832
C67 C -0.3896(6) 0.2649(7) -0.0978(4)
H57 H -0.3508 0.2443 -0.1231
N1 N -0.0312(3) 0.1903(2) 0.1363(2)
N2 N -0.5104(3) 0.3291(4) -0.1024(3)
O1 O 0.1694(2) 0.04021(18) 0.20997(19)
O2 O 0.2869(2) 0.00364(19) 0.2586(2)
O3 O 0.2561(2) 0.11325(18) 0.2631(2)
Cl1 Cl 0.19578(11) -0.21756(8) 0.17373(9)
Sn1 Sn 0.07946(2) 0.115743(18) 0.184058(18)
Sn2 Sn 0.24762(2) -0.099626(19) 0.22147(2)
Sn3 Sn 0.36613(2) 0.13608(2) 0.32495(2)
N2C N 0.4896(3) 0.1709(4) 0.3976(3)
Sn3C Sn -0.63387(2) 0.36392(2) -0.17505(2)
O4 O 0.212(2) -0.3906(9) 0.1687(14)
loop_
_geom_bond_atom_site_label_1
_geom_bond_atom_site_label_2
_geom_bond_site_symmetry_1
_geom_bond_site_symmetry_2
C1 C2 1_555 1_555
C2 H1 1_555 1_555
C3 C2 1_555 1_555
H2 C3 1_555 1_555
C4 C3 1_555 1_555
H3 C4 1_555 1_555
C5 C4 1_555 1_555
H4 C5 1_555 1_555
C6 C1 1_555 1_555
H5 C6 1_555 1_555
C7 C8 1_555 1_555
C8 H6 1_555 1_555
C9 C8 1_555 1_555
H7 C9 1_555 1_555
C10 C9 1_555 1_555
H8 C10 1_555 1_555
C11 C10 1_555 1_555
H9 C11 1_555 1_555
C12 C7 1_555 1_555
H10 C12 1_555 1_555
C13 C14 1_555 1_555
C14 H11 1_555 1_555
C15 C14 1_555 1_555
H12 C15 1_555 1_555
C16 C15 1_555 1_555
H13 C16 1_555 1_555
C17 C16 1_555 1_555
H14 C17 1_555 1_555
C18 C13 1_555 1_555
H15 C18 1_555 1_555
C19 C20 1_555 1_555
C20 H16 1_555 1_555
C21 C20 1_555 1_555
H17 C21 1_555 1_555
C22 C21 1_555 1_555
H18 C22 1_555 1_555
C23 C22 1_555 1_555
H19 C23 1_555 1_555
C24 C19 1_555 1_555
H20 C24 1_555 1_555
C25 C26 1_555 1_555
C26 H21 1_555 1_555
C27 C26 1_555 1_555
H22 C27 1_555 1_555
C28 C27 1_555 1_555
H23 C28 1_555 1_555
C29 C28 1_555 1_555
H24 C29 1_555 1_555
C30 C25 1_555 1_555
H25 C30 1_555 1_555
C31 C32 1_555 1_555
C32 H26 1_555 1_555
C33 C32 1_555 1_555
H27 C33 1_555 1_555
C34 C33 1_555 1_555
H28 C34 1_555 1_555
C35 C34 1_555 1_555
H29 C35 1_555 1_555
C36 C31 1_555 1_555
H30 C36 1_555 1_555
C37 C38 1_555 1_555
C38 H31 1_555 1_555
C39 C38 1_555 1_555
H32 C39 1_555 1_555
C40 C39 1_555 1_555
H33 C40 1_555 1_555
C41 C40 1_555 1_555
H34 C41 1_555 1_555
C42 C37 1_555 1_555
H35 C42 1_555 1_555
C43 C44 1_555 1_555
C44 H36 1_555 1_555
C45 C44 1_555 1_555
H37 C45 1_555 1_555
C46 C45 1_555 1_555
H38 C46 1_555 1_555
C47 C46 1_555 1_555
H39 C47 1_555 1_555
C48 C43 1_555 1_555
H40 C48 1_555 1_555
C49 C50 1_555 1_555
C50 H41 1_555 1_555
C51 C50 1_555 1_555
H42 C51 1_555 1_555
C52 C51 1_555 1_555
H43 C52 1_555 1_555
C53 C52 1_555 1_555
H44 C53 1_555 1_555
C54 C49 1_555 1_555
H45 C54 1_555 1_555
C55 O1 1_555 1_555
C56 H46 1_555 1_555
C57 C56 1_555 1_555
H47 C57 1_555 1_555
C58 C57 1_555 1_555
C59 C58 1_555 1_555
H48 C59 1_555 1_555
C60 C59 1_555 1_555
H49 C60 1_555 1_555
C61 C58 1_555 1_555
H50 C61 1_555 1_555
H51 C61 1_555 1_555
C62 C61 1_555 1_555
H52 C62 1_555 1_555
H53 C62 1_555 1_555
C63 C62 1_555 1_555
C64 C63 1_555 1_555
H54 C64 1_555 1_555
C65 C64 1_555 1_555
H55 C65 1_555 1_555
C66 H56 1_555 1_555
C67 C63 1_555 1_555
H57 C67 1_555 1_555
N1 C56 1_555 1_555
N2 C65 1_555 1_555
O1 Sn1 1_555 1_555
O2 C55 1_555 1_555
O3 C55 1_555 1_555
Cl1 Sn2 1_555 1_555
Sn1 C1 1_555 1_555
Sn2 C19 1_555 1_555
Sn3 C37 1_555 1_555
N2C Sn3 1_555 1_555
Sn3C N2 1_555 1_555
C5 C6 1_555 1_555
C7 Sn1 1_555 1_555
C11 C12 1_555 1_555
C13 Sn1 1_555 1_555
C17 C18 1_555 1_555
C23 C24 1_555 1_555
C25 Sn2 1_555 1_555
C29 C30 1_555 1_555
C31 Sn2 1_555 1_555
C35 C36 1_555 1_555
C41 C42 1_555 1_555
C43 Sn3 1_555 1_555
C47 C48 1_555 1_555
C49 Sn3 1_555 1_555
C53 C54 1_555 1_555
C60 N1 1_555 1_555
C66 C67 1_555 1_555
C66 N2 1_555 1_555
N1 Sn1 1_555 1_555
O2 Sn2 1_555 1_555
O3 Sn3 1_555 1_555

#END
