
#######################################################################
#
#                 Cambridge Crystallographic Data Centre
#                                CCDC 
#
#######################################################################
#
# If this CIF has been generated from an entry in the Cambridge 
# Structural Database, then it will include bibliographic, chemical, 
# crystal, experimental, refinement or atomic coordinate data resulting 
# from the CCDC's data processing and validation procedures.
#
#######################################################################

data_QUKQOD
_symmetry_cell_setting           orthorhombic
_symmetry_space_group_name_H-M   'P c c n'
_symmetry_Int_Tables_number      56
_space_group_name_Hall           '-P 2ab 2ac'
loop_
_symmetry_equiv_pos_site_id
_symmetry_equiv_pos_as_xyz
1 x,y,z
2 1/2-x,1/2-y,z
3 -x,1/2+y,1/2-z
4 1/2+x,-y,1/2-z
5 -x,-y,-z
6 1/2+x,1/2+y,-z
7 x,1/2-y,1/2+z
8 1/2-x,y,1/2+z
_cell_length_a                   7.4994(6)
_cell_length_b                   10.6535(9)
_cell_length_c                   22.9116(19)
_cell_angle_alpha                90
_cell_angle_beta                 90
_cell_angle_gamma                90
_cell_volume                     1830.52
loop_
_atom_site_label
_atom_site_type_symbol
_atom_site_fract_x
_atom_site_fract_y
_atom_site_fract_z
Co1 Co 0.7500 0.7500 0.69944(3)
C1 C 0.8087(6) 0.6524(4) 0.57369(18)
H1 H 0.8492 0.5823 0.5939
C2 C 0.8131(6) 0.6490(4) 0.51400(18)
H2 H 0.8585 0.5789 0.4949
C3 C 0.7500 0.7500 0.4819(2)
C4 C 0.7500 0.7500 0.4165(2)
C5 C 0.6022(7) 0.7871(5) 0.38578(19)
H3 H 0.4998 0.8131 0.4052
C6 C 0.6080(6) 0.7850(5) 0.32585(19)
H4 H 0.5064 0.8097 0.3056
C7 C 0.3606(5) 0.6347(4) 0.69262(17)
C8 C 0.2991(5) 0.6947(4) 0.63593(17)
C9 C 0.3411(5) 0.6388(4) 0.58344(18)
C10 C 0.2941(6) 0.6940(4) 0.53113(18)
N1 N 0.7500 0.7500 0.60470(19)
N2 N 0.7500 0.7500 0.29508(19)
O1 O 0.5244(4) 0.6344(3) 0.70265(11)
O2 O 0.2453(4) 0.5893(3) 0.72500(14)
O3 O 0.8930(4) 0.5823(3) 0.69986(13)
H5 H 0.998(5) 0.603(3) 0.7071(17)
H6 H 0.847(8) 0.539(4) 0.726(3)
F1 F 0.4288(4) 0.5297(3) 0.58190(11)
F2 F 0.3343(4) 0.6390(3) 0.48005(11)
Co1_2 Co -0.2500 0.7500 0.69944(3)
Co1F Co 0.7500 0.7500 0.19944(3)
C1A C 0.6913(6) 0.8476(4) 0.57369(18)
H1A H 0.6508 0.9177 0.5939
C2A C 0.6869(6) 0.8510(4) 0.51400(18)
H2A H 0.6415 0.9211 0.4949
C5A C 0.8978(7) 0.7129(5) 0.38578(19)
H3A H 1.0002 0.6869 0.4052
C6A C 0.8920(6) 0.7150(5) 0.32585(19)
H4A H 0.9936 0.6903 0.3056
C7A C 0.1394(5) 0.8653(4) 0.69262(17)
C8A C 0.2009(5) 0.8053(4) 0.63593(17)
C9A C 0.1589(5) 0.8612(4) 0.58344(18)
C10A C 0.2059(6) 0.8060(4) 0.53113(18)
N2F N 0.7500 0.7500 0.79508(19)
O1A O -0.0244(4) 0.8656(3) 0.70265(11)
O1A_2 O 0.9756(4) 0.8656(3) 0.70265(11)
O2A O 0.2547(4) 0.9107(3) 0.72500(14)
O3A O 0.6070(4) 0.9177(3) 0.69986(13)
H5A H 0.502(5) 0.897(3) 0.7071(17)
H6A H 0.653(8) 0.961(4) 0.726(3)
F1A F 0.0712(4) 0.9703(3) 0.58190(11)
F2A F 0.1657(4) 0.8610(3) 0.48005(11)
loop_
_geom_bond_atom_site_label_1
_geom_bond_atom_site_label_2
_geom_bond_site_symmetry_1
_geom_bond_site_symmetry_2
Co1 N1 1_555 1_555
C1 H1 1_555 1_555
C2 C1 1_555 1_555
H2 C2 1_555 1_555
C3 C2 1_555 1_555
C4 C3 1_555 1_555
C5 C4 1_555 1_555
H3 C5 1_555 1_555
C6 C5 1_555 1_555
H4 C6 1_555 1_555
C7 C8 1_555 1_555
C8 C9 1_555 1_555
C9 C10 1_555 1_555
C10 F2 1_555 1_555
N1 C1 1_555 1_555
N2 C6 1_555 1_555
O1 Co1 1_555 1_555
O2 C7 1_555 1_555
O3 Co1 1_555 1_555
H5 O3 1_555 1_555
H6 O3 1_555 1_555
F1 C9 1_555 1_555
Co1_2 O1A 1_555 1_555
Co1F N2 1_555 1_555
C1A N1 1_555 1_555
H1A C1A 1_555 1_555
C2A C3 1_555 1_555
H2A C2A 1_555 1_555
C5A C4 1_555 1_555
H3A C5A 1_555 1_555
C6A N2 1_555 1_555
H4A C6A 1_555 1_555
C7A C8A 1_555 1_555
C8A C8 1_555 1_555
C9A C8A 1_555 1_555
C10A C10 1_555 1_555
N2F Co1 1_555 1_555
O1A C7A 1_555 1_555
O1A_2 Co1 1_555 1_555
O2A C7A 1_555 1_555
O3A Co1 1_555 1_555
H5A O3A 1_555 1_555
H6A O3A 1_555 1_555
F1A C9A 1_555 1_555
F2A C10A 1_555 1_555
C7 O1 1_555 1_555
C1A C2A 1_555 1_555
C5A C6A 1_555 1_555
C9A C10A 1_555 1_555

#END
