
#######################################################################
#
#                 Cambridge Crystallographic Data Centre
#                                CCDC 
#
#######################################################################
#
# If this CIF has been generated from an entry in the Cambridge 
# Structural Database, then it will include bibliographic, chemical, 
# crystal, experimental, refinement or atomic coordinate data resulting 
# from the CCDC's data processing and validation procedures.
#
#######################################################################

data_QUKQIX
_symmetry_cell_setting           monoclinic
_symmetry_space_group_name_H-M   'C 2/c'
_symmetry_Int_Tables_number      15
_space_group_name_Hall           '-C 2yn'
loop_
_symmetry_equiv_pos_site_id
_symmetry_equiv_pos_as_xyz
1 x,y,z
2 -x,y,1/2-z
3 1/2+x,1/2+y,z
4 1/2-x,1/2+y,1/2-z
5 -x,-y,-z
6 x,-y,1/2+z
7 1/2-x,1/2-y,-z
8 1/2+x,1/2-y,1/2+z
_cell_length_a                   11.632(5)
_cell_length_b                   11.374(5)
_cell_length_c                   14.303(7)
_cell_angle_alpha                90
_cell_angle_beta                 109.979(7)
_cell_angle_gamma                90
_cell_volume                     1778.44
loop_
_atom_site_label
_atom_site_type_symbol
_atom_site_fract_x
_atom_site_fract_y
_atom_site_fract_z
Zn1 Zn 0.5000 0.44261(11) 0.2500
C1 C 0.5986(6) 0.6935(7) 0.2519(6)
H1 H 0.6685 0.6528 0.2531
C2 C 0.6027(7) 0.8152(7) 0.2520(6)
H2 H 0.6737 0.8539 0.2535
C3 C 0.5000 0.8791(9) 0.2500
C4 C 0.5000 1.0071(9) 0.2500
C5 C 0.6050(6) 1.0711(6) 0.2954(6)
H3 H 0.6786 1.0324 0.3266
C6 C 0.6014(6) 1.1924(7) 0.2946(6)
H4 H 0.6736 1.2328 0.3269
C7 C 0.2668(6) 0.4799(7) 0.0734(6)
C8 C 0.1290(6) 0.4906(7) 0.0357(5)
C9 C 0.0543(7) 0.3935(7) 0.0139(5)
C10 C -0.0696(7) 0.4010(7) -0.0195(5)
N1 N 0.5000 0.6306(8) 0.2500
N2 N 0.5000 1.2554(8) 0.2500
O1 O 0.3138(4) 0.4469(4) 0.1618(3)
O2 O 0.3198(5) 0.5074(7) 0.0153(5)
O3 O 0.4496(5) 0.4464(5) 0.3804(4)
H5 H 0.500(3) 0.439(16) 0.442(2)
H6 H 0.376(2) 0.443(9) 0.383(3)
F1 F 0.1066(4) 0.2855(4) 0.0260(4)
F2 F -0.1375(4) 0.3021(4) -0.0411(4)
Zn1_2 Zn 0.5000 1.44261(11) 0.2500
Zn1D Zn -0.5000 0.55739(11) -0.2500
C1A C 0.4014(6) 0.6935(7) 0.2481(6)
H1A H 0.3315 0.6528 0.2469
C2A C 0.3973(7) 0.8152(7) 0.2480(6)
H2A H 0.3263 0.8539 0.2465
C5A C 0.3950(6) 1.0711(6) 0.2046(6)
H3A H 0.3214 1.0324 0.1734
C6A C 0.3986(6) 1.1924(7) 0.2054(6)
H4A H 0.3264 1.2328 0.1731
C7D C -0.2668(6) 0.5201(7) -0.0734(6)
C8D C -0.1290(6) 0.5094(7) -0.0357(5)
C9D C -0.0543(7) 0.6065(7) -0.0139(5)
C10D C 0.0696(7) 0.5990(7) 0.0195(5)
N2_2 N 0.5000 0.2554(8) 0.2500
O1D O -0.3138(4) 0.5531(4) -0.1618(3)
O1A O 0.6862(4) 0.4469(4) 0.3382(3)
O2D O -0.3198(5) 0.4926(7) -0.0153(5)
O3A O 0.5504(5) 0.4464(5) 0.1196(4)
H5A H 0.500(3) 0.439(16) 0.058(2)
H6A H 0.624(2) 0.443(9) 0.117(3)
F1D F -0.1066(4) 0.7145(4) -0.0260(4)
F2D F 0.1375(4) 0.6979(4) 0.0411(4)
loop_
_geom_bond_atom_site_label_1
_geom_bond_atom_site_label_2
_geom_bond_site_symmetry_1
_geom_bond_site_symmetry_2
Zn1 N1 1_555 1_555
C1 H1 1_555 1_555
C2 C1 1_555 1_555
H2 C2 1_555 1_555
C3 C2 1_555 1_555
C4 C3 1_555 1_555
C5 C4 1_555 1_555
H3 C5 1_555 1_555
C6 C5 1_555 1_555
H4 C6 1_555 1_555
C7 C8 1_555 1_555
C8 C9 1_555 1_555
C9 C10 1_555 1_555
C10 F2 1_555 1_555
N1 C1 1_555 1_555
N2 C6 1_555 1_555
O1 Zn1 1_555 1_555
O2 C7 1_555 1_555
O3 Zn1 1_555 1_555
H5 O3 1_555 1_555
H6 O3 1_555 1_555
F1 C9 1_555 1_555
Zn1_2 N2 1_555 1_555
Zn1D O1D 1_555 1_555
C1A N1 1_555 1_555
H1A C1A 1_555 1_555
C2A C3 1_555 1_555
H2A C2A 1_555 1_555
C5A C4 1_555 1_555
H3A C5A 1_555 1_555
C6A N2 1_555 1_555
H4A C6A 1_555 1_555
C7D C8D 1_555 1_555
C8D C10 1_555 1_555
C9D C8D 1_555 1_555
C10D C8 1_555 1_555
N2_2 Zn1 1_555 1_555
O1D C7D 1_555 1_555
O1A Zn1 1_555 1_555
O2D C7D 1_555 1_555
O3A Zn1 1_555 1_555
H5A O3A 1_555 1_555
H6A O3A 1_555 1_555
F1D C9D 1_555 1_555
F2D C10D 1_555 1_555
C7 O1 1_555 1_555
C1A C2A 1_555 1_555
C5A C6A 1_555 1_555
C9D C10D 1_555 1_555

#END
