
#######################################################################
#
#                 Cambridge Crystallographic Data Centre
#                                CCDC 
#
#######################################################################
#
# If this CIF has been generated from an entry in the Cambridge 
# Structural Database, then it will include bibliographic, chemical, 
# crystal, experimental, refinement or atomic coordinate data resulting 
# from the CCDC's data processing and validation procedures.
#
#######################################################################

data_QUKRIY
_symmetry_cell_setting           monoclinic
_symmetry_space_group_name_H-M   'C 2/c'
_symmetry_Int_Tables_number      15
_space_group_name_Hall           '-C 2yn'
loop_
_symmetry_equiv_pos_site_id
_symmetry_equiv_pos_as_xyz
1 x,y,z
2 -x,y,1/2-z
3 1/2+x,1/2+y,z
4 1/2-x,1/2+y,1/2-z
5 -x,-y,-z
6 x,-y,1/2+z
7 1/2-x,1/2-y,-z
8 1/2+x,1/2-y,1/2+z
_cell_length_a                   15.941(2)
_cell_length_b                   16.076(2)
_cell_length_c                   7.2110(10)
_cell_angle_alpha                90
_cell_angle_beta                 101.171(4)
_cell_angle_gamma                90
_cell_volume                     1812.93
loop_
_atom_site_label
_atom_site_type_symbol
_atom_site_fract_x
_atom_site_fract_y
_atom_site_fract_z
Zn1 Zn 0.2500 0.2500 0.0000
C1 C 0.1775(3) 0.0751(4) 0.0257(9)
H1 H 0.2346 0.0598 0.0389
C2 C 0.1181(3) 0.0144(4) 0.0239(9)
H2 H 0.1358 -0.0408 0.0367
C3 C 0.0325(3) 0.0326(3) 0.0034(7)
C4 C 0.0134(4) 0.1153(4) -0.0125(13)
H3 H -0.0431 0.1325 -0.0227
C5 C 0.0761(4) 0.1736(4) -0.0138(13)
H4 H 0.0599 0.2290 -0.0323
C6 C 0.1570(3) 0.3667(3) 0.2325(9)
C7 C 0.0753(3) 0.4152(3) 0.2388(7)
C8 C 0.0000 0.3766(4) 0.2500
C9 C 0.0729(3) 0.5007(3) 0.2352(7)
C10 C 0.0000 0.5444(4) 0.2500
N1 N 0.1577(2) 0.1554(3) 0.0096(6)
O1 O 0.1637(2) 0.3392(2) 0.0733(5)
O2 O 0.2095(2) 0.3602(2) 0.3821(6)
O3 O 0.3113(3) 0.2377(3) 0.2917(6)
H5 H 0.293(5) 0.271(3) 0.371(6)
H6 H 0.313(5) 0.1882(16) 0.341(6)
F1 F 0.0000 0.2921(3) 0.2500
F2 F 0.14287(18) 0.54315(17) 0.2139(4)
F3 F 0.0000 0.6277(2) 0.2500
Zn1B Zn -0.2500 -0.2500 0.0000
Zn1A Zn -0.2500 0.2500 0.5000
C1D C -0.1775(3) -0.0751(4) -0.0257(9)
H1D H -0.2346 -0.0598 -0.0389
C2D C -0.1181(3) -0.0144(4) -0.0239(9)
H2D H -0.1358 0.0408 -0.0367
C3D C -0.0325(3) -0.0326(3) -0.0034(7)
C4D C -0.0134(4) -0.1153(4) 0.0125(13)
H3D H 0.0431 -0.1325 0.0227
C5D C -0.0761(4) -0.1736(4) 0.0138(13)
H4D H -0.0599 -0.2290 0.0323
C6A C -0.1570(3) 0.3667(3) 0.2675(9)
C7A C -0.0753(3) 0.4152(3) 0.2612(7)
C9A C -0.0729(3) 0.5007(3) 0.2648(7)
N1D N -0.1577(2) -0.1554(3) -0.0096(6)
N1F N 0.3423(2) 0.3446(3) -0.0096(6)
O1A O -0.1637(2) 0.3392(2) 0.4267(5)
O1F O 0.3363(2) 0.1608(2) -0.0733(5)
O2A O -0.2095(2) 0.3602(2) 0.1179(6)
O3F O 0.1887(3) 0.2623(3) -0.2917(6)
H5F H 0.207(5) 0.229(3) -0.371(6)
H6F H 0.187(5) 0.3118(16) -0.341(6)
F2A F -0.14287(18) 0.54315(17) 0.2861(4)
loop_
_geom_bond_atom_site_label_1
_geom_bond_atom_site_label_2
_geom_bond_site_symmetry_1
_geom_bond_site_symmetry_2
Zn1 N1 1_555 1_555
C1 H1 1_555 1_555
C2 C1 1_555 1_555
H2 C2 1_555 1_555
C3 C2 1_555 1_555
C4 C3 1_555 1_555
H3 C4 1_555 1_555
C5 C4 1_555 1_555
H4 C5 1_555 1_555
C6 C7 1_555 1_555
C7 C8 1_555 1_555
C8 F1 1_555 1_555
C9 C7 1_555 1_555
C10 C9 1_555 1_555
N1 C1 1_555 1_555
O1 Zn1 1_555 1_555
O2 C6 1_555 1_555
O3 Zn1 1_555 1_555
H5 O3 1_555 1_555
H6 O3 1_555 1_555
F2 C9 1_555 1_555
F3 C10 1_555 1_555
Zn1B N1D 1_555 1_555
Zn1A O1A 1_555 1_555
C1D H1D 1_555 1_555
C2D C1D 1_555 1_555
H2D C2D 1_555 1_555
C3D C3 1_555 1_555
C4D C3D 1_555 1_555
H3D C4D 1_555 1_555
C5D C4D 1_555 1_555
H4D C5D 1_555 1_555
C6A C7A 1_555 1_555
C7A C8 1_555 1_555
C9A C10 1_555 1_555
N1D C1D 1_555 1_555
N1F Zn1 1_555 1_555
O1A C6A 1_555 1_555
O1F Zn1 1_555 1_555
O2A C6A 1_555 1_555
O3F Zn1 1_555 1_555
H5F O3F 1_555 1_555
H6F O3F 1_555 1_555
F2A C9A 1_555 1_555
C5 N1 1_555 1_555
C6 O1 1_555 1_555
C2D C3D 1_555 1_555
C5D N1D 1_555 1_555
C7A C9A 1_555 1_555

#END
