
#######################################################################
#
#                 Cambridge Crystallographic Data Centre
#                                CCDC 
#
#######################################################################
#
# If this CIF has been generated from an entry in the Cambridge 
# Structural Database, then it will include bibliographic, chemical, 
# crystal, experimental, refinement or atomic coordinate data resulting 
# from the CCDC's data processing and validation procedures.
#
#######################################################################

data_QUKREU
_symmetry_cell_setting           monoclinic
_symmetry_space_group_name_H-M   'C 2/c'
_symmetry_Int_Tables_number      15
_space_group_name_Hall           '-C 2yn'
loop_
_symmetry_equiv_pos_site_id
_symmetry_equiv_pos_as_xyz
1 x,y,z
2 -x,y,1/2-z
3 1/2+x,1/2+y,z
4 1/2-x,1/2+y,1/2-z
5 -x,-y,-z
6 x,-y,1/2+z
7 1/2-x,1/2-y,-z
8 1/2+x,1/2-y,1/2+z
_cell_length_a                   15.871(5)
_cell_length_b                   16.217(5)
_cell_length_c                   7.168(2)
_cell_angle_alpha                90
_cell_angle_beta                 100.910(5)
_cell_angle_gamma                90
_cell_volume                     1811.55
loop_
_atom_site_label
_atom_site_type_symbol
_atom_site_fract_x
_atom_site_fract_y
_atom_site_fract_z
Co1 Co 0.2500 0.2500 0.0000
C1 C 0.4240(4) 0.3271(4) 0.0122(14)
H1 H 0.4405 0.2721 0.0277
C2 C 0.4866(4) 0.3861(4) 0.0123(14)
H2 H 0.5434 0.3698 0.0226
C3 C 0.4670(3) 0.4672(3) -0.0023(7)
C4 C 0.3813(3) 0.4859(4) -0.0219(10)
H3 H 0.3633 0.5406 -0.0344
C5 C 0.3226(3) 0.4244(4) -0.0229(9)
H4 H 0.2652 0.4393 -0.0342
C6 C 0.1581(3) 0.3656(3) 0.2341(8)
C7 C 0.0759(3) 0.4142(3) 0.2400(7)
C8 C 0.0000 0.3744(4) 0.2500
C9 C 0.0734(3) 0.4986(3) 0.2364(7)
C10 C 0.0000 0.5418(4) 0.2500
N1 N 0.3415(3) 0.3455(3) -0.0090(7)
O1 O 0.16363(19) 0.3371(2) 0.0744(5)
O2 O 0.2111(2) 0.3604(3) 0.3845(5)
O3 O 0.1900(2) 0.2634(3) -0.2905(6)
H5 H 0.196(5) 0.311(2) -0.334(8)
H6 H 0.208(4) 0.225(3) -0.358(7)
F1 F 0.0000 0.2917(3) 0.2500
F2 F 0.14383(19) 0.54047(18) 0.2169(5)
F3 F 0.0000 0.6238(3) 0.2500
Co1B Co 0.7500 0.7500 0.0000
Co1A Co -0.2500 0.2500 0.5000
C1D C 0.5760(4) 0.6729(4) -0.0122(14)
H1D H 0.5595 0.7279 -0.0277
C2D C 0.5134(4) 0.6139(4) -0.0123(14)
H2D H 0.4566 0.6302 -0.0226
C3D C 0.5330(3) 0.5328(3) 0.0023(7)
C4D C 0.6187(3) 0.5141(4) 0.0219(10)
H3D H 0.6367 0.4594 0.0344
C5D C 0.6774(3) 0.5756(4) 0.0229(9)
H4D H 0.7348 0.5607 0.0342
C6A C -0.1581(3) 0.3656(3) 0.2659(8)
C7A C -0.0759(3) 0.4142(3) 0.2600(7)
C9A C -0.0734(3) 0.4986(3) 0.2636(7)
N1D N 0.6585(3) 0.6545(3) 0.0090(7)
N1F N 0.1585(3) 0.1545(3) 0.0090(7)
O1A O -0.16363(19) 0.3371(2) 0.4256(5)
O1F O 0.33637(19) 0.1629(2) -0.0744(5)
O2A O -0.2111(2) 0.3604(3) 0.1155(5)
O3F O 0.3100(2) 0.2366(3) 0.2905(6)
H5F H 0.304(5) 0.189(2) 0.334(8)
H6F H 0.292(4) 0.275(3) 0.358(7)
F2A F -0.14383(19) 0.54047(18) 0.2831(5)
loop_
_geom_bond_atom_site_label_1
_geom_bond_atom_site_label_2
_geom_bond_site_symmetry_1
_geom_bond_site_symmetry_2
Co1 N1 1_555 1_555
C1 H1 1_555 1_555
C2 C1 1_555 1_555
H2 C2 1_555 1_555
C3 C2 1_555 1_555
C4 C3 1_555 1_555
H3 C4 1_555 1_555
C5 C4 1_555 1_555
H4 C5 1_555 1_555
C6 C7 1_555 1_555
C7 C8 1_555 1_555
C8 F1 1_555 1_555
C9 C7 1_555 1_555
C10 C9 1_555 1_555
N1 C1 1_555 1_555
O1 Co1 1_555 1_555
O2 C6 1_555 1_555
O3 Co1 1_555 1_555
H5 O3 1_555 1_555
H6 O3 1_555 1_555
F2 C9 1_555 1_555
F3 C10 1_555 1_555
Co1B N1D 1_555 1_555
Co1A O1A 1_555 1_555
C1D H1D 1_555 1_555
C2D C1D 1_555 1_555
H2D C2D 1_555 1_555
C3D C3 1_555 1_555
C4D C3D 1_555 1_555
H3D C4D 1_555 1_555
C5D C4D 1_555 1_555
H4D C5D 1_555 1_555
C6A C7A 1_555 1_555
C7A C8 1_555 1_555
C9A C10 1_555 1_555
N1D C1D 1_555 1_555
N1F Co1 1_555 1_555
O1A C6A 1_555 1_555
O1F Co1 1_555 1_555
O2A C6A 1_555 1_555
O3F Co1 1_555 1_555
H5F O3F 1_555 1_555
H6F O3F 1_555 1_555
F2A C9A 1_555 1_555
C5 N1 1_555 1_555
C6 O1 1_555 1_555
C2D C3D 1_555 1_555
C5D N1D 1_555 1_555
C7A C9A 1_555 1_555

#END
