
#######################################################################
#
#                 Cambridge Crystallographic Data Centre
#                                CCDC 
#
#######################################################################
#
# If this CIF has been generated from an entry in the Cambridge 
# Structural Database, then it will include bibliographic, chemical, 
# crystal, experimental, refinement or atomic coordinate data resulting 
# from the CCDC's data processing and validation procedures.
#
#######################################################################

data_QUKRAQ
_symmetry_cell_setting           monoclinic
_symmetry_space_group_name_H-M   'C 2/c'
_symmetry_Int_Tables_number      15
_space_group_name_Hall           '-C 2yn'
loop_
_symmetry_equiv_pos_site_id
_symmetry_equiv_pos_as_xyz
1 x,y,z
2 -x,y,1/2-z
3 1/2+x,1/2+y,z
4 1/2-x,1/2+y,1/2-z
5 -x,-y,-z
6 x,-y,1/2+z
7 1/2-x,1/2-y,-z
8 1/2+x,1/2-y,1/2+z
_cell_length_a                   11.6719(15)
_cell_length_b                   19.364(2)
_cell_length_c                   6.9849(10)
_cell_angle_alpha                90
_cell_angle_beta                 90.326(3)
_cell_angle_gamma                90
_cell_volume                     1578.66
loop_
_atom_site_label
_atom_site_type_symbol
_atom_site_fract_x
_atom_site_fract_y
_atom_site_fract_z
Co1 Co 0.2500 0.2500 0.0000
C1 C 0.2939(4) 0.0957(2) -0.0646(6)
H1 H 0.217(2) 0.092(2) -0.093(6)
C2 C 0.3510(4) 0.0334(2) -0.0509(6)
H2 H 0.307(3) -0.0064(17) -0.054(7)
C3 C 0.4673(3) 0.03315(19) -0.0117(5)
C4 C 0.5207(3) 0.0958(2) 0.0069(6)
H3 H 0.598(2) 0.1018(18) 0.031(5)
C5 C 0.4569(4) 0.1563(2) -0.0073(6)
H4 H 0.495(3) 0.1988(14) 0.007(6)
C6 C 0.1362(4) 0.1555(2) 0.2874(6)
C7 C 0.0541(4) 0.0932(2) 0.3103(6)
F1 F 0.1155(2) 0.03561(12) 0.2634(5)
F2 F 0.0252(2) 0.08569(14) 0.4974(4)
N1 N 0.3436(3) 0.15673(16) -0.0394(5)
O1 O 0.1227(2) 0.19042(14) 0.1394(4)
O2 O 0.2108(3) 0.16071(16) 0.4131(4)
O3 O 0.3409(3) 0.26172(17) 0.2590(5)
H5 H 0.330(4) 0.3005(17) 0.317(7)
H6 H 0.4150(17) 0.260(4) 0.244(8)
Co1B Co 0.7500 -0.2500 0.0000
Co1A Co -0.2500 0.2500 0.5000
C1D C 0.7061(4) -0.0957(2) 0.0646(6)
H1D H 0.783(2) -0.092(2) 0.093(6)
C2D C 0.6490(4) -0.0334(2) 0.0509(6)
H2D H 0.693(3) 0.0064(17) 0.054(7)
C3D C 0.5327(3) -0.03315(19) 0.0117(5)
C4D C 0.4793(3) -0.0958(2) -0.0069(6)
H3D H 0.402(2) -0.1018(18) -0.031(5)
C5D C 0.5431(4) -0.1563(2) 0.0073(6)
H4D H 0.505(3) -0.1988(14) -0.007(6)
C6A C -0.1362(4) 0.1555(2) 0.2126(6)
C7A C -0.0541(4) 0.0932(2) 0.1897(6)
F1A F -0.1155(2) 0.03561(12) 0.2366(5)
F2A F -0.0252(2) 0.08569(14) 0.0026(4)
N1D N 0.6564(3) -0.15673(16) 0.0394(5)
N1F N 0.1564(3) 0.34327(16) 0.0394(5)
O1A O -0.1227(2) 0.19042(14) 0.3606(4)
O1F O 0.3773(2) 0.30958(14) -0.1394(4)
O2A O -0.2108(3) 0.16071(16) 0.0869(4)
O3F O 0.1591(3) 0.23828(17) -0.2590(5)
H5F H 0.170(4) 0.1995(17) -0.317(7)
H6F H 0.0850(17) 0.240(4) -0.244(8)
loop_
_geom_bond_atom_site_label_1
_geom_bond_atom_site_label_2
_geom_bond_site_symmetry_1
_geom_bond_site_symmetry_2
Co1 N1 1_555 1_555
C1 H1 1_555 1_555
C2 C1 1_555 1_555
H2 C2 1_555 1_555
C3 C2 1_555 1_555
C4 C3 1_555 1_555
H3 C4 1_555 1_555
C5 C4 1_555 1_555
H4 C5 1_555 1_555
C6 C7 1_555 1_555
C7 F1 1_555 1_555
F2 C7 1_555 1_555
N1 C1 1_555 1_555
O1 Co1 1_555 1_555
O2 C6 1_555 1_555
O3 Co1 1_555 1_555
H5 O3 1_555 1_555
H6 O3 1_555 1_555
Co1B N1D 1_555 1_555
Co1A O1A 1_555 1_555
C1D H1D 1_555 1_555
C2D C1D 1_555 1_555
H2D C2D 1_555 1_555
C3D C3 1_555 1_555
C4D C3D 1_555 1_555
H3D C4D 1_555 1_555
C5D C4D 1_555 1_555
H4D C5D 1_555 1_555
C6A C7A 1_555 1_555
C7A C7 1_555 1_555
F1A C7A 1_555 1_555
F2A C7A 1_555 1_555
N1D C1D 1_555 1_555
N1F Co1 1_555 1_555
O1A C6A 1_555 1_555
O1F Co1 1_555 1_555
O2A C6A 1_555 1_555
O3F Co1 1_555 1_555
H5F O3F 1_555 1_555
H6F O3F 1_555 1_555
C5 N1 1_555 1_555
C6 O1 1_555 1_555
C2D C3D 1_555 1_555
C5D N1D 1_555 1_555

#END
