
#######################################################################
#
#                 Cambridge Crystallographic Data Centre
#                                CCDC 
#
#######################################################################
#
# If this CIF has been generated from an entry in the Cambridge 
# Structural Database, then it will include bibliographic, chemical, 
# crystal, experimental, refinement or atomic coordinate data resulting 
# from the CCDC's data processing and validation procedures.
#
#######################################################################

data_QUKXOL
_symmetry_cell_setting           triclinic
_symmetry_space_group_name_H-M   'P -1'
_symmetry_Int_Tables_number      2
_space_group_name_Hall           '-P 1'
loop_
_symmetry_equiv_pos_site_id
_symmetry_equiv_pos_as_xyz
1 x,y,z
2 -x,-y,-z
_cell_length_a                   8.0941(16)
_cell_length_b                   9.758(2)
_cell_length_c                   10.679(2)
_cell_angle_alpha                101.60(3)
_cell_angle_beta                 98.88(3)
_cell_angle_gamma                94.60(3)
_cell_volume                     810.911
loop_
_atom_site_label
_atom_site_type_symbol
_atom_site_fract_x
_atom_site_fract_y
_atom_site_fract_z
Cd1 Cd 0.151906(19) 0.132671(15) 0.118129(15)
N1 N 0.0434(2) 0.32269(18) 0.22124(17)
N2 N -0.0311(2) 0.53888(19) 0.24198(18)
H1 H -0.0814 0.6085 0.2236
N3 N -0.3530(2) 0.34952(19) 0.08538(17)
N4 N -0.4305(2) 0.4638(2) 0.1242(2)
N5 N -0.5750(2) 0.4184(2) 0.1449(2)
N6 N -0.5932(2) 0.2756(2) 0.12140(19)
O1 O 0.0991(2) 0.02723(17) -0.09496(15)
O2 O 0.0951(2) 0.24438(18) -0.12075(18)
O3 O 0.6715(2) 0.05131(19) -0.12428(17)
O4 O 0.7416(2) -0.05050(19) -0.30572(18)
C1 C 0.0980(3) 0.1181(2) -0.1663(2)
C2 C 0.1085(3) 0.0641(3) -0.3075(2)
H2 H 0.0701 0.1320 -0.3572
H3 H 0.0347 -0.0233 -0.3408
C3 C 0.2885(3) 0.0387(3) -0.3249(2)
H4 H 0.3247 -0.0316 -0.2774
H5 H 0.2894 0.0014 -0.4161
C4 C 0.4117(3) 0.1699(3) -0.2788(3)
H6 H 0.4205 0.2016 -0.1856
H7 H 0.3699 0.2437 -0.3195
C5 C 0.5840(3) 0.1457(3) -0.3099(3)
H8 H 0.6550 0.2351 -0.2854
H9 H 0.5738 0.1128 -0.4030
C6 C 0.6700(3) 0.0412(2) -0.2432(2)
C7 C 0.1334(3) 0.4063(2) 0.3377(2)
C8 C 0.2505(3) 0.3727(3) 0.4331(2)
H10 H 0.2820 0.2822 0.4258
C9 C 0.3176(3) 0.4784(3) 0.5387(2)
H11 H 0.3964 0.4589 0.6039
C10 C 0.2711(3) 0.6141(3) 0.5507(2)
H12 H 0.3203 0.6829 0.6235
C11 C 0.1545(3) 0.6490(2) 0.4581(2)
H13 H 0.1225 0.7394 0.4668
C12 C 0.0867(3) 0.5422(2) 0.3506(2)
C13 C -0.0531(3) 0.4071(2) 0.1699(2)
C14 C -0.1850(3) 0.3634(3) 0.0505(2)
H14 H -0.1796 0.4330 -0.0025
H15 H -0.1643 0.2741 0.0001
C15 C -0.4548(3) 0.2359(2) 0.0849(2)
H16 H -0.4314 0.1432 0.0623
Cd1_2 Cd -0.848094(19) 0.132671(15) 0.118129(15)
Cd1A Cd -0.151906(19) -0.132671(15) -0.118129(15)
Cd1A_2 Cd 0.848094(19) -0.132671(15) -0.118129(15)
N6_2 N 0.4068(2) 0.2756(2) 0.12140(19)
O1A O -0.0991(2) -0.02723(17) 0.09496(15)
O3A O 0.3285(2) -0.05131(19) 0.12428(17)
O4A O 0.2584(2) 0.05050(19) 0.30572(18)
loop_
_geom_bond_atom_site_label_1
_geom_bond_atom_site_label_2
_geom_bond_site_symmetry_1
_geom_bond_site_symmetry_2
Cd1 N1 1_555 1_555
N1 C7 1_555 1_555
N2 H1 1_555 1_555
N3 N4 1_555 1_555
N4 N5 1_555 1_555
N5 N6 1_555 1_555
N6 C15 1_555 1_555
O1 Cd1 1_555 1_555
O2 C1 1_555 1_555
O3 C6 1_555 1_555
O4 C6 1_555 1_555
C1 O1 1_555 1_555
C2 C1 1_555 1_555
H2 C2 1_555 1_555
H3 C2 1_555 1_555
C3 C2 1_555 1_555
H4 C3 1_555 1_555
H5 C3 1_555 1_555
C4 C3 1_555 1_555
H6 C4 1_555 1_555
H7 C4 1_555 1_555
C5 C4 1_555 1_555
H8 C5 1_555 1_555
H9 C5 1_555 1_555
C6 C5 1_555 1_555
C7 C8 1_555 1_555
C8 H10 1_555 1_555
C9 C8 1_555 1_555
H11 C9 1_555 1_555
C10 C9 1_555 1_555
H12 C10 1_555 1_555
C11 C10 1_555 1_555
H13 C11 1_555 1_555
C12 N2 1_555 1_555
C13 N1 1_555 1_555
C14 N3 1_555 1_555
H14 C14 1_555 1_555
H15 C14 1_555 1_555
C15 N3 1_555 1_555
H16 C15 1_555 1_555
Cd1_2 N6 1_555 1_555
Cd1A O1 1_555 1_555
Cd1A_2 O3 1_555 1_555
N6_2 Cd1 1_555 1_555
O1A Cd1 1_555 1_555
O3A Cd1 1_555 1_555
O4A Cd1 1_555 1_555
N2 C13 1_555 1_555
O4 Cd1A_2 1_555 1_555
C7 C12 1_555 1_555
C11 C12 1_555 1_555
C13 C14 1_555 1_555
Cd1A O1A 1_555 1_555

#END
