
#######################################################################
#
#                 Cambridge Crystallographic Data Centre
#                                CCDC 
#
#######################################################################
#
# If this CIF has been generated from an entry in the Cambridge 
# Structural Database, then it will include bibliographic, chemical, 
# crystal, experimental, refinement or atomic coordinate data resulting 
# from the CCDC's data processing and validation procedures.
#
#######################################################################

data_QUKXUR
_symmetry_cell_setting           triclinic
_symmetry_space_group_name_H-M   'P -1'
_symmetry_Int_Tables_number      2
_space_group_name_Hall           '-P 1'
loop_
_symmetry_equiv_pos_site_id
_symmetry_equiv_pos_as_xyz
1 x,y,z
2 -x,-y,-z
_cell_length_a                   8.4455(17)
_cell_length_b                   8.6267(17)
_cell_length_c                   11.512(2)
_cell_angle_alpha                99.94(3)
_cell_angle_beta                 105.60(3)
_cell_angle_gamma                97.22(3)
_cell_volume                     782.503
loop_
_atom_site_label
_atom_site_type_symbol
_atom_site_fract_x
_atom_site_fract_y
_atom_site_fract_z
Cd1 Cd 0.45445(6) 0.82997(5) 0.84693(4)
Br1 Br 0.31018(10) 0.88855(10) 1.02313(7)
N1 N 0.2940(9) 0.5576(7) 0.7668(6)
N2 N 0.1394(10) 0.5071(8) 0.6813(7)
N3 N 0.0910(8) 0.3545(8) 0.6682(6)
N4 N 0.2182(8) 0.3059(7) 0.7474(5)
N5 N 0.2226(8) 0.0565(7) 0.5425(5)
H1 H 0.1769 0.1314 0.5143
N6 N 0.3200(8) -0.0922(7) 0.6743(5)
O1 O 0.6465(7) 0.6871(7) 0.9472(5)
O2 O 0.6773(7) 0.7477(7) 0.7761(5)
C1 C 0.7247(8) 0.6885(8) 0.8696(6)
C2 C 0.8842(9) 0.6176(9) 0.8865(7)
H2 H 0.8718 0.5364 0.8133
H3 H 0.9768 0.7012 0.8939
C3 C 0.9258(9) 0.5438(10) 0.9983(7)
H4 H 0.8290 0.4688 0.9965
H5 H 0.9531 0.6270 1.0727
C4 C 0.3393(10) 0.4299(8) 0.8068(7)
H6 H 0.4383 0.4277 0.8659
C5 C 0.2031(10) 0.1378(8) 0.7578(7)
H7 H 0.0883 0.0964 0.7517
H8 H 0.2732 0.1313 0.8381
C6 C 0.2539(10) 0.0359(8) 0.6583(7)
C7 C 0.2765(8) -0.0641(8) 0.4762(6)
C8 C 0.2847(10) -0.0937(9) 0.3560(7)
H9 H 0.2505 -0.0263 0.3028
C9 C 0.3462(11) -0.2280(10) 0.3196(7)
H10 H 0.3502 -0.2543 0.2387
C10 C 0.4022(11) -0.3251(9) 0.4000(7)
H11 H 0.4433 -0.4144 0.3713
C11 C 0.3995(11) -0.2946(8) 0.5215(7)
H12 H 0.4371 -0.3607 0.5749
C12 C 0.3367(8) -0.1576(8) 0.5590(6)
O1A O 1.3535(7) 0.3129(7) 1.0528(5)
O2A O 1.3227(7) 0.2523(7) 1.2239(5)
C1A C 1.2753(8) 0.3115(8) 1.1304(6)
C2A C 1.1158(9) 0.3824(9) 1.1135(7)
H2A H 1.1282 0.4636 1.1867
H3A H 1.0232 0.2988 1.1061
C3A C 1.0742(9) 0.4562(10) 1.0017(7)
H4A H 1.1710 0.5312 1.0035
H5A H 1.0469 0.3730 0.9273
Cd1A Cd 0.54555(6) 1.17003(5) 1.15307(4)
Br1A Br 0.68982(10) 1.11145(10) 0.97687(7)
N1A N 0.7060(9) 1.4424(7) 1.2332(6)
N2A N 0.8606(10) 1.4929(8) 1.3187(7)
N3A N 0.9090(8) 1.6455(8) 1.3318(6)
N4A N 0.7818(8) 1.6941(7) 1.2526(5)
N5A N 0.7774(8) 1.9435(7) 1.4575(5)
H1A H 0.8231 1.8686 1.4857
N6A N 0.6800(8) 2.0922(7) 1.3257(5)
C4A C 0.6607(10) 1.5701(8) 1.1932(7)
H6A H 0.5617 1.5723 1.1341
C5A C 0.7969(10) 1.8622(8) 1.2422(7)
H7A H 0.9117 1.9036 1.2483
H8A H 0.7268 1.8687 1.1619
C6A C 0.7461(10) 1.9641(8) 1.3417(7)
C7A C 0.7235(8) 2.0641(8) 1.5238(6)
C8A C 0.7153(10) 2.0937(9) 1.6440(7)
H9A H 0.7495 2.0263 1.6972
C9A C 0.6538(11) 2.2280(10) 1.6804(7)
H10A H 0.6498 2.2543 1.7613
C10A C 0.5978(11) 2.3251(9) 1.6000(7)
H11A H 0.5567 2.4144 1.6287
C11A C 0.6005(11) 2.2946(8) 1.4785(7)
H12A H 0.5629 2.3607 1.4251
C12A C 0.6633(8) 2.1576(8) 1.4410(6)
Cd1_2 Cd 0.45445(6) -0.17003(5) 0.84693(4)
Cd1A_2 Cd 0.54555(6) 2.17003(5) 1.15307(4)
Cd1A_3 Cd 1.54555(6) 0.17003(5) 1.15307(4)
N6_2 N 0.3200(8) 0.9078(7) 0.6743(5)
N6A_2 N 0.6800(8) 1.0922(7) 1.3257(5)
O1A_2 O 0.3535(7) 1.3129(7) 1.0528(5)
O2A_2 O 0.3227(7) 1.2523(7) 1.2239(5)
O3 O 0.1067(11) 0.2477(11) 0.3799(8)
H13 H 0.0670 0.3256 0.4098
H14 H 0.0995 0.2651 0.3083
loop_
_geom_bond_atom_site_label_1
_geom_bond_atom_site_label_2
_geom_bond_site_symmetry_1
_geom_bond_site_symmetry_2
Cd1 Br1 1_555 1_555
Br1 Cd1A 1_555 1_555
N1 Cd1 1_555 1_555
N2 N1 1_555 1_555
N3 N2 1_555 1_555
N4 N3 1_555 1_555
N5 H1 1_555 1_555
N6 C6 1_555 1_555
O1 Cd1 1_555 1_555
O2 Cd1 1_555 1_555
C1 O1 1_555 1_555
C2 C1 1_555 1_555
H2 C2 1_555 1_555
H3 C2 1_555 1_555
C3 C2 1_555 1_555
H4 C3 1_555 1_555
H5 C3 1_555 1_555
C4 N1 1_555 1_555
H6 C4 1_555 1_555
C5 N4 1_555 1_555
H7 C5 1_555 1_555
H8 C5 1_555 1_555
C6 N5 1_555 1_555
C7 N5 1_555 1_555
C8 C7 1_555 1_555
H9 C8 1_555 1_555
C9 C8 1_555 1_555
H10 C9 1_555 1_555
C10 C9 1_555 1_555
H11 C10 1_555 1_555
C11 C10 1_555 1_555
H12 C11 1_555 1_555
C12 N6 1_555 1_555
O3 H13 1_555 1_555
H14 O3 1_555 1_555
O1A C1A 1_555 1_555
O2A C1A 1_555 1_555
C1A C2A 1_555 1_555
C2A H2A 1_555 1_555
H3A C2A 1_555 1_555
C3A C3 1_555 1_555
H4A C3A 1_555 1_555
H5A C3A 1_555 1_555
Cd1A Br1A 1_555 1_555
Br1A Cd1 1_555 1_555
N1A Cd1A 1_555 1_555
N2A N1A 1_555 1_555
N3A N2A 1_555 1_555
N4A N3A 1_555 1_555
N5A H1A 1_555 1_555
N6A C6A 1_555 1_555
C4A N1A 1_555 1_555
H6A C4A 1_555 1_555
C5A N4A 1_555 1_555
H7A C5A 1_555 1_555
H8A C5A 1_555 1_555
C6A N5A 1_555 1_555
C7A N5A 1_555 1_555
C8A C7A 1_555 1_555
H9A C8A 1_555 1_555
C9A C8A 1_555 1_555
H10A C9A 1_555 1_555
C10A C9A 1_555 1_555
H11A C10A 1_555 1_555
C11A C10A 1_555 1_555
H12A C11A 1_555 1_555
C12A N6A 1_555 1_555
Cd1_2 N6 1_555 1_555
Cd1A_2 N6A 1_555 1_555
Cd1A_3 O1A 1_555 1_555
N6_2 Cd1 1_555 1_555
N6A_2 Cd1A 1_555 1_555
O1A_2 Cd1A 1_555 1_555
O2A_2 Cd1A 1_555 1_555
N4 C4 1_555 1_555
O2 C1 1_555 1_555
C5 C6 1_555 1_555
C7 C12 1_555 1_555
C11 C12 1_555 1_555
O2A Cd1A_3 1_555 1_555
C2A C3A 1_555 1_555
N4A C4A 1_555 1_555
C5A C6A 1_555 1_555
C7A C12A 1_555 1_555
C11A C12A 1_555 1_555

#END
