
#######################################################################
#
#                 Cambridge Crystallographic Data Centre
#                                CCDC 
#
#######################################################################
#
# If this CIF has been generated from an entry in the Cambridge 
# Structural Database, then it will include bibliographic, chemical, 
# crystal, experimental, refinement or atomic coordinate data resulting 
# from the CCDC's data processing and validation procedures.
#
#######################################################################

data_QUKYUR
_symmetry_cell_setting           monoclinic
_symmetry_space_group_name_H-M   'P 21/c'
_symmetry_Int_Tables_number      14
_space_group_name_Hall           '-P 2ybc'
loop_
_symmetry_equiv_pos_site_id
_symmetry_equiv_pos_as_xyz
1 x,y,z
2 -x,1/2+y,1/2-z
3 -x,-y,-z
4 x,1/2-y,1/2+z
_cell_length_a                   8.2368(2)
_cell_length_b                   20.3660(5)
_cell_length_c                   9.4063(2)
_cell_angle_alpha                90
_cell_angle_beta                 110.2860(10)
_cell_angle_gamma                90
_cell_volume                     1480.04
loop_
_atom_site_label
_atom_site_type_symbol
_atom_site_fract_x
_atom_site_fract_y
_atom_site_fract_z
Cu1 Cu 0.96034(5) 0.297092(19) 1.04591(4)
Nd1 Nd 1.61932(2) 0.351920(8) 1.597200(17)
P1 P 0.78227(11) 0.30062(4) 1.30036(9)
C1 C 1.2174(4) 0.31042(16) 1.3204(4)
C2 C 1.1387(4) 0.37900(16) 1.2909(4)
H1 H 1.2173 0.4086 1.2618
H2 H 1.1265 0.3963 1.3850
C3 C 0.9400(4) 0.43322(15) 1.0596(3)
H3 H 0.8893 0.4713 1.0949
H4 H 1.0526 0.4468 1.0533
C4 C 0.8191(4) 0.41136(16) 0.9043(4)
C5 C 0.8201(4) 0.37913(15) 1.2284(4)
H5 H 0.8478 0.4105 1.3116
H6 H 0.7136 0.3934 1.1496
C6 C 1.4304(4) 0.49736(16) 1.5380(3)
N1 N 0.9659(3) 0.37825(13) 1.1679(3)
O1 O 1.1560(3) 0.26667(11) 1.2188(3)
O2 O 1.3417(3) 0.30030(12) 1.4410(3)
O3 O 0.7960(3) 0.34881(11) 0.8832(3)
O4 O 0.7515(3) 0.45070(12) 0.8017(3)
O5 O 0.6372(3) 0.31045(11) 1.3619(3)
O6 O 0.9522(3) 0.28140(11) 1.4292(3)
O7 O 0.7390(3) 0.25503(11) 1.1646(3)
O8 O 1.9423(3) 0.36893(13) 1.6433(3)
H7 H 2.0012 0.3610 1.7344
H8 H 1.9949 0.3529 1.5886
O9 O 1.4540(3) 0.31182(12) 1.7594(3)
H9 H 1.4820 0.2770 1.8098
H10 H 1.3454 0.3146 1.7288
O10 O 1.4064(3) 0.44147(11) 1.5854(3)
O11 O 1.3518(3) 0.54905(11) 1.5450(3)
O14 O 1.1933(4) 0.34655(14) 0.9461(3)
H14 H 1.1110 0.3702 0.9134
H15 H 1.2111 0.3235 0.8810
Cu1C Cu 0.96034(5) 0.202908(19) 0.54591(4)
Cu1C_2 Cu 0.96034(5) 0.202908(19) 1.54591(4)
Nd1C Nd 1.61932(2) 0.148080(8) 1.097200(17)
Nd1_2 Nd 0.61932(2) 0.351920(8) 0.597200(17)
Nd1_3 Nd 0.61932(2) 0.351920(8) 1.597200(17)
Nd1C_2 Nd 0.61932(2) 0.148080(8) 1.097200(17)
Nd1B Nd 1.38068(2) 0.648080(8) 1.402800(17)
Nd1C_3 Nd 0.61932(2) 0.148080(8) 0.097200(17)
P1C P 0.78227(11) 0.19938(4) 0.80036(9)
C1C C 1.2174(4) 0.18958(16) 0.8204(4)
C2C C 1.1387(4) 0.12100(16) 0.7909(4)
H1C H 1.2173 0.0914 0.7618
H2C H 1.1265 0.1037 0.8850
C3C C 0.9400(4) 0.06678(15) 0.5596(3)
H3C H 0.8893 0.0287 0.5949
H4C H 1.0526 0.0532 0.5533
C4C C 0.8191(4) 0.08864(16) 0.4043(4)
C5C C 0.8201(4) 0.12087(15) 0.7284(4)
H5C H 0.8478 0.0895 0.8116
H6C H 0.7136 0.1066 0.6496
C6B C 1.5696(4) 0.50264(16) 1.4620(3)
N1C N 0.9659(3) 0.12175(13) 0.6679(3)
O1C O 1.1560(3) 0.23333(11) 0.7188(3)
O2C O 1.3417(3) 0.19970(12) 0.9410(3)
O3C O 0.7960(3) 0.15119(11) 0.3832(3)
O3_2 O 1.7960(3) 0.34881(11) 1.8832(3)
O3C_2 O 1.7960(3) 0.15119(11) 1.3832(3)
O4C O 0.7515(3) 0.04930(12) 0.3017(3)
O4_2 O 1.7515(3) 0.45070(12) 1.8017(3)
O4C_2 O 1.7515(3) 0.04930(12) 1.3017(3)
O5C O 0.6372(3) 0.18955(11) 0.8619(3)
O5_2 O 1.6372(3) 0.31045(11) 1.3619(3)
O5C_2 O 1.6372(3) 0.18955(11) 0.8619(3)
O6C O 0.9522(3) 0.21860(11) 0.9292(3)
O6_2 O 0.9522(3) 0.28140(11) 0.4292(3)
O7C O 0.7390(3) 0.24497(11) 0.6646(3)
O7C_2 O 1.7390(3) 0.24497(11) 1.6646(3)
O7_2 O 1.7390(3) 0.25503(11) 1.1646(3)
O8C O 1.9423(3) 0.13107(13) 1.1433(3)
H7C H 2.0012 0.1390 1.2344
H8C H 1.9949 0.1471 1.0886
O9C O 1.4540(3) 0.18818(12) 1.2594(3)
H9C H 1.4820 0.2230 1.3098
H10C H 1.3454 0.1854 1.2288
O10B O 1.5936(3) 0.55853(11) 1.4146(3)
O10C O 1.4064(3) 0.05853(11) 1.0854(3)
O11B O 1.6482(3) 0.45095(11) 1.4550(3)
O11A O 1.6482(3) 0.04905(11) 0.9550(3)
O14C O 1.1933(4) 0.15345(14) 0.4461(3)
H14C H 1.1110 0.1298 0.4134
H15C H 1.2111 0.1765 0.3810
O12 O 0.0000 0.5000 0.5000
H11 H 0.0899 0.5169 0.4922
H11B H -0.0899 0.4831 0.5078
O15 O 0.3784(5) 0.04127(18) 0.4002(4)
H16 H 0.4032 0.0492 0.3219
H17 H 0.3711 0.0773 0.4411
O13? O 0.074(2) 0.4769(8) 0.619(2)
H12? H 0.1817 0.4717 0.6456
H13? H 0.0377 0.4526 0.6747
H18? H -0.0466 0.5280 0.5397
loop_
_geom_bond_atom_site_label_1
_geom_bond_atom_site_label_2
_geom_bond_site_symmetry_1
_geom_bond_site_symmetry_2
Cu1 N1 1_555 1_555
Nd1 O2 1_555 1_555
P1 C5 1_555 1_555
C1 C2 1_555 1_555
C2 H1 1_555 1_555
H2 C2 1_555 1_555
C3 H3 1_555 1_555
H4 C3 1_555 1_555
C4 C3 1_555 1_555
C5 H5 1_555 1_555
H6 C5 1_555 1_555
C6 O10 1_555 1_555
N1 C2 1_555 1_555
O1 Cu1 1_555 1_555
O2 C1 1_555 1_555
O3 Cu1 1_555 1_555
O4 C4 1_555 1_555
O5 P1 1_555 1_555
O6 P1 1_555 1_555
O7 Cu1 1_555 1_555
O8 Nd1 1_555 1_555
H7 O8 1_555 1_555
H8 O8 1_555 1_555
O9 Nd1 1_555 1_555
H9 O9 1_555 1_555
H10 O9 1_555 1_555
O10 Nd1 1_555 1_555
O11 C6 1_555 1_555
O12 H11 1_555 1_555
O14 Cu1 1_555 1_555
H14 O14 1_555 1_555
H15 O14 1_555 1_555
O15 H16 1_555 1_555
H17 O15 1_555 1_555
Cu1C N1C 1_555 1_555
Cu1C_2 O6 1_555 1_555
Nd1C O2C 1_555 1_555
Nd1_2 O3 1_555 1_555
Nd1_3 O5 1_555 1_555
Nd1C_2 O7 1_555 1_555
Nd1B O11 1_555 1_555
Nd1C_3 O3C 1_555 1_555
P1C C5C 1_555 1_555
C1C C2C 1_555 1_555
C2C H1C 1_555 1_555
H2C C2C 1_555 1_555
C3C H3C 1_555 1_555
H4C C3C 1_555 1_555
C4C C3C 1_555 1_555
C5C H5C 1_555 1_555
H6C C5C 1_555 1_555
C6B C6 1_555 1_555
N1C C2C 1_555 1_555
O1C Cu1C 1_555 1_555
O2C C1C 1_555 1_555
O3C Cu1C 1_555 1_555
O3_2 Nd1 1_555 1_555
O3C_2 Nd1C 1_555 1_555
O4C Nd1C_3 1_555 1_555
O4_2 Nd1 1_555 1_555
O4C_2 Nd1C 1_555 1_555
O5C Nd1C_2 1_555 1_555
O5_2 Nd1 1_555 1_555
O5C_2 Nd1C 1_555 1_555
O6C Cu1 1_555 1_555
O6_2 Cu1C 1_555 1_555
O7C Cu1C 1_555 1_555
O7C_2 Nd1 1_555 1_555
O7_2 Nd1C 1_555 1_555
O8C Nd1C 1_555 1_555
H7C O8C 1_555 1_555
H8C O8C 1_555 1_555
O9C Nd1C 1_555 1_555
H9C O9C 1_555 1_555
H10C O9C 1_555 1_555
O10B Nd1B 1_555 1_555
O10C Nd1C 1_555 1_555
O11B Nd1 1_555 1_555
O11A Nd1C 1_555 1_555
H11B O12 1_555 1_555
O14C Cu1C 1_555 1_555
H14C O14C 1_555 1_555
H15C O14C 1_555 1_555
P1 O7 1_555 1_555
C1 O1 1_555 1_555
C3 N1 1_555 1_555
C4 O3 1_555 1_555
C5 N1 1_555 1_555
O4 Nd1_2 1_555 1_555
Nd1_2 O7C 1_555 1_555
P1C O5C 1_555 1_555
P1C O6C 1_555 1_555
P1C O7C 1_555 1_555
C1C O1C 1_555 1_555
C3C N1C 1_555 1_555
C4C O3C 1_555 1_555
C4C O4C 1_555 1_555
C5C N1C 1_555 1_555
C6B O10B 1_555 1_555
C6B O11B 1_555 1_555

#END
