
#######################################################################
#
#                 Cambridge Crystallographic Data Centre
#                                CCDC 
#
#######################################################################
#
# If this CIF has been generated from an entry in the Cambridge 
# Structural Database, then it will include bibliographic, chemical, 
# crystal, experimental, refinement or atomic coordinate data resulting 
# from the CCDC's data processing and validation procedures.
#
#######################################################################

data_QULCIK
_symmetry_cell_setting           monoclinic
_symmetry_space_group_name_H-M   'P 21/n'
_symmetry_Int_Tables_number      14
_space_group_name_Hall           '-P 2yn'
loop_
_symmetry_equiv_pos_site_id
_symmetry_equiv_pos_as_xyz
1 x,y,z
2 1/2-x,1/2+y,1/2-z
3 -x,-y,-z
4 1/2+x,1/2-y,1/2+z
_cell_length_a                   12.7094(13)
_cell_length_b                   18.836(2)
_cell_length_c                   15.5703(18)
_cell_angle_alpha                90
_cell_angle_beta                 92.015(2)
_cell_angle_gamma                90
_cell_volume                     3725.14
loop_
_atom_site_label
_atom_site_type_symbol
_atom_site_fract_x
_atom_site_fract_y
_atom_site_fract_z
Fe1 Fe 0.84004(17) 0.25747(12) 0.18221(15)
Mn1 Mn 1.08998(18) 0.20042(11) -0.06845(15)
O1 O 0.9598(8) 0.2197(5) 0.2412(7)
O2 O 0.7721(9) 0.1686(6) 0.1934(8)
N1 N 0.9428(10) 0.2074(7) 0.0117(9)
N2 N 0.7405(12) 0.3003(7) 0.3530(10)
N3 N 0.9007(11) 0.3502(7) 0.1734(9)
N4 N 0.7254(12) 0.2993(10) 0.1172(10)
N5 N 1.0622(10) 0.0893(6) -0.1173(8)
N6 N 0.9949(10) 0.2019(7) -0.1961(9)
N7 N 1.1643(10) 0.1201(8) 0.0262(9)
N8 N 1.1793(13) 0.2660(9) 0.0355(12)
H2 H 1.2450 0.2662 0.0141
N9 N 1.0590(18) 0.3178(7) -0.1020(11)
H3 H 0.9959 0.3231 -0.0769
C1 C 0.9002(12) 0.2254(8) 0.0720(12)
C2 C 0.7806(13) 0.2870(8) 0.2913(12)
C3 C 0.9835(15) 0.3721(9) 0.2141(13)
H4 H 1.0018 0.4196 0.2073
C4 C 1.0506(13) 0.3296(9) 0.2695(11)
C5 C 1.0367(13) 0.2560(9) 0.2792(10)
C6 C 1.1138(14) 0.2193(10) 0.3285(12)
H5 H 1.1073 0.1706 0.3362
C7 C 1.1972(16) 0.2537(12) 0.3651(13)
H6 H 1.2474 0.2278 0.3966
C8 C 1.2097(16) 0.3246(13) 0.3570(15)
H7 H 1.2666 0.3474 0.3844
C9 C 1.1393(16) 0.3621(11) 0.3091(14)
H8 H 1.1495 0.4106 0.3021
C10 C 0.6498(17) 0.2645(19) 0.0797(14)
H9 H 0.6018 0.2902 0.0456
C11 C 0.6333(18) 0.1895(18) 0.0860(16)
C12 C 0.5425(19) 0.162(2) 0.0374(19)
H10 H 0.5022 0.1900 0.0001
C13 C 0.519(3) 0.090(3) 0.050(3)
H11 H 0.4646 0.0691 0.0173
C14 C 0.573(3) 0.049(3) 0.108(3)
H12 H 0.5512 0.0028 0.1174
C15 C 0.6600(19) 0.0745(14) 0.1546(17)
H13 H 0.6975 0.0446 0.1921
C16 C 0.692(2) 0.1463(14) 0.1448(17)
C17 C 0.8450(16) 0.3966(11) 0.1114(13)
H14 H 0.8706 0.3892 0.0541
H15 H 0.8556 0.4460 0.1269
C18 C 0.7305(17) 0.3774(13) 0.1143(15)
H16 H 0.6996 0.3977 0.1648
H17 H 0.6924 0.3952 0.0636
C19 C 1.1019(13) 0.0342(8) -0.0725(12)
C20 C 1.0856(17) -0.0341(10) -0.1010(16)
H18 H 1.1123 -0.0721 -0.0690
C21 C 1.0313(18) -0.0459(11) -0.175(2)
H19 H 1.0198 -0.0921 -0.1942
C22 C 0.9927(16) 0.0103(12) -0.2224(14)
H20 H 0.9562 0.0027 -0.2744
C23 C 1.0089(13) 0.0788(9) -0.1917(12)
C24 C 0.9733(13) 0.1458(11) -0.2360(12)
C25 C 0.9186(18) 0.1400(13) -0.3242(14)
H21 H 0.8457 0.1284 -0.3178
H22 H 0.9516 0.1034 -0.3568
H23 H 0.9240 0.1845 -0.3538
C26 C 0.9665(15) 0.2725(10) -0.2297(12)
H24 H 0.9794 0.2744 -0.2907
H25 H 0.8920 0.2809 -0.2223
C27 C 1.026(2) 0.3259(14) -0.1867(19)
H26 H 1.0861 0.3375 -0.2204
H27 H 0.9811 0.3677 -0.1870
C28 C 1.1191(17) 0.3641(10) -0.050(2)
H28 H 1.0772 0.4062 -0.0397
H29 H 1.1797 0.3790 -0.0816
C29 C 1.156(2) 0.3366(13) 0.0323(15)
H30 H 1.2192 0.3627 0.0502
H31 H 1.1033 0.3462 0.0741
C30 C 1.197(2) 0.2266(14) 0.1073(17)
H32 H 1.1369 0.2318 0.1436
H33 H 1.2566 0.2480 0.1378
C31 C 1.2218(16) 0.1519(13) 0.0997(12)
H34 H 1.2034 0.1274 0.1519
H35 H 1.2968 0.1463 0.0927
C32 C 1.1609(14) 0.0544(10) 0.0091(12)
C33 C 1.2156(18) -0.0041(11) 0.0603(14)
H36 H 1.2489 0.0156 0.1112
H37 H 1.2677 -0.0261 0.0259
H38 H 1.1648 -0.0390 0.0762
Mn1C Mn 0.58998(18) 0.29958(11) 0.43155(15)
N2C N 1.2405(12) 0.1997(7) -0.1470(10)
Cl1 Cl 0.2059(5) 0.5372(3) 0.1338(4)
O3 O 0.1130(18) 0.5057(12) 0.1063(16)
O4 O 0.194(2) 0.6072(11) 0.1040(19)
O5 O 0.220(3) 0.541(2) 0.2166(14)
O6 O 0.290(2) 0.5116(17) 0.094(2)
O7 O 0.905(3) 0.162(4) 0.435(3)
H1 H 0.8767 0.1854 0.3961
C34 C 0.898(8) 0.081(3) 0.411(6)
H39 H 0.9645 0.0590 0.4227
H40 H 0.8792 0.0764 0.3506
H41 H 0.8448 0.0587 0.4439
loop_
_geom_bond_atom_site_label_1
_geom_bond_atom_site_label_2
_geom_bond_site_symmetry_1
_geom_bond_site_symmetry_2
Fe1 O1 1_555 1_555
Mn1 N1 1_555 1_555
Cl1 O3 1_555 1_555
O1 C5 1_555 1_555
O2 Fe1 1_555 1_555
O4 Cl1 1_555 1_555
O5 Cl1 1_555 1_555
O6 Cl1 1_555 1_555
O7 H1 1_555 1_555
N1 C1 1_555 1_555
N2 C2 1_555 1_555
N3 Fe1 1_555 1_555
N4 Fe1 1_555 1_555
N5 Mn1 1_555 1_555
N6 Mn1 1_555 1_555
N7 Mn1 1_555 1_555
N8 Mn1 1_555 1_555
H2 N8 1_555 1_555
N9 Mn1 1_555 1_555
H3 N9 1_555 1_555
C1 Fe1 1_555 1_555
C2 Fe1 1_555 1_555
C3 N3 1_555 1_555
H4 C3 1_555 1_555
C4 C3 1_555 1_555
C5 C4 1_555 1_555
C6 C5 1_555 1_555
H5 C6 1_555 1_555
C7 C6 1_555 1_555
H6 C7 1_555 1_555
C8 C7 1_555 1_555
H7 C8 1_555 1_555
C9 C4 1_555 1_555
H8 C9 1_555 1_555
C10 N4 1_555 1_555
H9 C10 1_555 1_555
C11 C10 1_555 1_555
C12 C11 1_555 1_555
H10 C12 1_555 1_555
C13 C12 1_555 1_555
H11 C13 1_555 1_555
C14 C13 1_555 1_555
H12 C14 1_555 1_555
C15 C14 1_555 1_555
H13 C15 1_555 1_555
C16 O2 1_555 1_555
C17 N3 1_555 1_555
H14 C17 1_555 1_555
H15 C17 1_555 1_555
C18 N4 1_555 1_555
H16 C18 1_555 1_555
H17 C18 1_555 1_555
C19 N5 1_555 1_555
C20 C19 1_555 1_555
H18 C20 1_555 1_555
C21 C20 1_555 1_555
H19 C21 1_555 1_555
C22 C21 1_555 1_555
H20 C22 1_555 1_555
C23 N5 1_555 1_555
C24 N6 1_555 1_555
C25 C24 1_555 1_555
H21 C25 1_555 1_555
H22 C25 1_555 1_555
H23 C25 1_555 1_555
C26 N6 1_555 1_555
H24 C26 1_555 1_555
H25 C26 1_555 1_555
C27 N9 1_555 1_555
H26 C27 1_555 1_555
H27 C27 1_555 1_555
C28 N9 1_555 1_555
H28 C28 1_555 1_555
H29 C28 1_555 1_555
C29 N8 1_555 1_555
H30 C29 1_555 1_555
H31 C29 1_555 1_555
C30 N8 1_555 1_555
H32 C30 1_555 1_555
H33 C30 1_555 1_555
C31 N7 1_555 1_555
H34 C31 1_555 1_555
H35 C31 1_555 1_555
C32 N7 1_555 1_555
C33 C32 1_555 1_555
H36 C33 1_555 1_555
H37 C33 1_555 1_555
H38 C33 1_555 1_555
C34 O7 1_555 1_555
H39 C34 1_555 1_555
H40 C34 1_555 1_555
H41 C34 1_555 1_555
Mn1C N2 1_555 1_555
N2C Mn1 1_555 1_555
C8 C9 1_555 1_555
C11 C16 1_555 1_555
C15 C16 1_555 1_555
C17 C18 1_555 1_555
C19 C32 1_555 1_555
C22 C23 1_555 1_555
C23 C24 1_555 1_555
C26 C27 1_555 1_555
C28 C29 1_555 1_555
C30 C31 1_555 1_555

#END
