
#######################################################################
#
#                 Cambridge Crystallographic Data Centre
#                                CCDC 
#
#######################################################################
#
# If this CIF has been generated from an entry in the Cambridge 
# Structural Database, then it will include bibliographic, chemical, 
# crystal, experimental, refinement or atomic coordinate data resulting 
# from the CCDC's data processing and validation procedures.
#
#######################################################################

data_QULCOQ
_symmetry_cell_setting           monoclinic
_symmetry_space_group_name_H-M   'P 21/n'
_symmetry_Int_Tables_number      14
_space_group_name_Hall           '-P 2yn'
loop_
_symmetry_equiv_pos_site_id
_symmetry_equiv_pos_as_xyz
1 x,y,z
2 1/2-x,1/2+y,1/2-z
3 -x,-y,-z
4 1/2+x,1/2-y,1/2+z
_cell_length_a                   12.7057(8)
_cell_length_b                   18.7334(11)
_cell_length_c                   15.4764(9)
_cell_angle_alpha                90
_cell_angle_beta                 93.1310(10)
_cell_angle_gamma                90
_cell_volume                     3678.21
loop_
_atom_site_label
_atom_site_type_symbol
_atom_site_fract_x
_atom_site_fract_y
_atom_site_fract_z
Fe1 Fe 0.33561(5) 0.25349(3) 0.18893(4)
Mn1 Mn 0.58406(5) 0.20036(3) -0.06344(4)
O1 O 0.2679(3) 0.16316(18) 0.1950(2)
O2 O 0.4538(2) 0.21426(15) 0.25064(18)
O3 O 0.5490(3) 0.31661(15) -0.0865(2)
O4 O 0.6773(3) 0.26371(17) 0.04315(19)
N1 N 0.4425(3) 0.20619(18) 0.0196(2)
N2 N 0.2283(3) 0.2911(2) 0.3589(2)
N3 N 0.2203(3) 0.2970(2) 0.1215(2)
N4 N 0.3964(3) 0.34684(18) 0.1837(2)
N5 N 0.5575(3) 0.09197(18) -0.1167(2)
N6 N 0.6618(3) 0.1210(2) 0.0285(2)
N7 N 0.4893(3) 0.20855(19) -0.1911(2)
C1 C 0.3986(3) 0.2239(2) 0.0787(3)
C2 C 0.2717(3) 0.2800(2) 0.2984(3)
C3 C 0.1423(4) 0.2630(4) 0.0837(3)
H2 H 0.0941 0.2892 0.0493
C4 C 0.1247(4) 0.1878(4) 0.0909(4)
C5 C 0.1858(4) 0.1420(3) 0.1471(3)
C6 C 0.1556(5) 0.0681(4) 0.1580(4)
H3 H 0.1941 0.0372 0.1946
C7 C 0.0631(7) 0.0457(5) 0.1091(6)
H4 H 0.0405 -0.0011 0.1158
C8 C 0.0043(7) 0.0900(6) 0.0517(6)
H5 H -0.0537 0.0715 0.0200
C9 C 0.0321(5) 0.1626(5) 0.0412(4)
H6 H -0.0073 0.1926 0.0042
C10 C 0.4792(3) 0.3691(2) 0.2280(3)
H7 H 0.4977 0.4169 0.2230
C11 C 0.5442(3) 0.3250(2) 0.2842(3)
C12 C 0.6349(4) 0.3587(3) 0.3248(3)
H8 H 0.6445 0.4076 0.3195
C13 C 0.7092(4) 0.3175(3) 0.3726(3)
H9 H 0.7679 0.3393 0.3995
C14 C 0.6961(4) 0.2449(3) 0.3800(3)
H10 H 0.7463 0.2182 0.4119
C15 C 0.6085(4) 0.2108(3) 0.3404(3)
H11 H 0.6010 0.1617 0.3465
C16 C 0.5309(3) 0.2499(2) 0.2911(3)
C17 C 0.2266(4) 0.3754(3) 0.1175(4)
H12 H 0.1936 0.3965 0.1665
H13 H 0.1907 0.3929 0.0647
C18 C 0.3430(4) 0.3950(3) 0.1194(3)
H14 H 0.3707 0.3881 0.0628
H15 H 0.3532 0.4444 0.1364
C19 C 0.5045(3) 0.0830(2) -0.1919(3)
C20 C 0.4877(4) 0.0156(3) -0.2273(4)
H16 H 0.4508 0.0096 -0.2803
C21 C 0.5280(5) -0.0421(3) -0.1809(4)
H17 H 0.5167 -0.0880 -0.2026
C22 C 0.5845(4) -0.0332(3) -0.1031(4)
H18 H 0.6120 -0.0723 -0.0725
C23 C 0.5992(3) 0.0354(2) -0.0718(3)
C24 C 0.6599(4) 0.0552(3) 0.0097(3)
C25 C 0.7164(5) -0.0047(3) 0.0616(4)
H19 H 0.7522 0.0151 0.1123
H20 H 0.7666 -0.0273 0.0265
H21 H 0.6656 -0.0392 0.0785
C26 C 0.7233(4) 0.1513(3) 0.1050(3)
H22 H 0.7176 0.1204 0.1549
H23 H 0.7972 0.1554 0.0928
C27 C 0.6788(4) 0.2231(3) 0.1228(3)
H24 H 0.6079 0.2185 0.1424
H25 H 0.7219 0.2471 0.1675
C28 C 0.6351(5) 0.3343(3) 0.0508(3)
H26 H 0.6833 0.3640 0.0857
H27 H 0.5682 0.3327 0.0781
C29 C 0.6201(5) 0.3643(3) -0.0396(3)
H28 H 0.5904 0.4120 -0.0382
H29 H 0.6870 0.3666 -0.0669
C30 C 0.5374(4) 0.3331(3) -0.1786(3)
H30 H 0.6047 0.3289 -0.2048
H31 H 0.5117 0.3815 -0.1871
C31 C 0.4588(4) 0.2800(2) -0.2195(3)
H32 H 0.3884 0.2907 -0.2020
H33 H 0.4586 0.2830 -0.2821
C32 C 0.4681(3) 0.1522(3) -0.2347(3)
C33 C 0.4111(5) 0.1476(4) -0.3232(3)
H34 H 0.3407 0.1304 -0.3172
H35 H 0.4481 0.1155 -0.3592
H36 H 0.4083 0.1941 -0.3493
Mn1C Mn 0.08406(5) 0.29964(3) 0.43656(4)
N2C N 0.7283(3) 0.2089(2) -0.1411(2)
Cl1 Cl 0.80146(12) 0.03044(7) 0.36066(10)
O5 O 0.7191(7) 0.0090(5) 0.4082(5)
O6 O 0.7924(12) -0.0048(11) 0.2945(9)
O8 O 0.8138(9) 0.0972(5) 0.3988(8)
O9 O 0.9013(5) 0.0053(4) 0.3901(5)
O10 O 0.3302(9) 0.0696(5) 0.3506(7)
H1 H 0.2885 0.1016 0.3370
C34 C 0.4039(10) 0.0944(10) 0.4301(8)
H37 H 0.3909 0.1438 0.4420
H38 H 0.4763 0.0882 0.4168
H39 H 0.3894 0.0662 0.4799
O7? O 0.7924(10) 0.0797(7) 0.2948(8)
loop_
_geom_bond_atom_site_label_1
_geom_bond_atom_site_label_2
_geom_bond_site_symmetry_1
_geom_bond_site_symmetry_2
Fe1 O1 1_555 1_555
Mn1 O3 1_555 1_555
Cl1 O5 1_555 1_555
O1 C5 1_555 1_555
O2 Fe1 1_555 1_555
O3 C29 1_555 1_555
O4 Mn1 1_555 1_555
O6 Cl1 1_555 1_555
O8 Cl1 1_555 1_555
O9 Cl1 1_555 1_555
O10 H1 1_555 1_555
N1 Mn1 1_555 1_555
N2 C2 1_555 1_555
N3 Fe1 1_555 1_555
N4 Fe1 1_555 1_555
N5 Mn1 1_555 1_555
N6 Mn1 1_555 1_555
N7 Mn1 1_555 1_555
C1 Fe1 1_555 1_555
C2 Fe1 1_555 1_555
C3 N3 1_555 1_555
H2 C3 1_555 1_555
C4 C3 1_555 1_555
C5 C4 1_555 1_555
C6 C5 1_555 1_555
H3 C6 1_555 1_555
C7 C6 1_555 1_555
H4 C7 1_555 1_555
C8 C7 1_555 1_555
H5 C8 1_555 1_555
C9 C4 1_555 1_555
H6 C9 1_555 1_555
C10 N4 1_555 1_555
H7 C10 1_555 1_555
C11 C10 1_555 1_555
C12 C11 1_555 1_555
H8 C12 1_555 1_555
C13 C12 1_555 1_555
H9 C13 1_555 1_555
C14 C13 1_555 1_555
H10 C14 1_555 1_555
C15 C14 1_555 1_555
H11 C15 1_555 1_555
C16 O2 1_555 1_555
C17 N3 1_555 1_555
H12 C17 1_555 1_555
H13 C17 1_555 1_555
C18 N4 1_555 1_555
H14 C18 1_555 1_555
H15 C18 1_555 1_555
C19 N5 1_555 1_555
C20 C19 1_555 1_555
H16 C20 1_555 1_555
C21 C20 1_555 1_555
H17 C21 1_555 1_555
C22 C21 1_555 1_555
H18 C22 1_555 1_555
C23 N5 1_555 1_555
C24 N6 1_555 1_555
C25 C24 1_555 1_555
H19 C25 1_555 1_555
H20 C25 1_555 1_555
H21 C25 1_555 1_555
C26 N6 1_555 1_555
H22 C26 1_555 1_555
H23 C26 1_555 1_555
C27 O4 1_555 1_555
H24 C27 1_555 1_555
H25 C27 1_555 1_555
C28 O4 1_555 1_555
H26 C28 1_555 1_555
H27 C28 1_555 1_555
C29 C28 1_555 1_555
H28 C29 1_555 1_555
H29 C29 1_555 1_555
C30 O3 1_555 1_555
H30 C30 1_555 1_555
H31 C30 1_555 1_555
C31 N7 1_555 1_555
H32 C31 1_555 1_555
H33 C31 1_555 1_555
C32 N7 1_555 1_555
C33 C32 1_555 1_555
H34 C33 1_555 1_555
H35 C33 1_555 1_555
H36 C33 1_555 1_555
C34 O10 1_555 1_555
H37 C34 1_555 1_555
H38 C34 1_555 1_555
H39 C34 1_555 1_555
Mn1C N2 1_555 1_555
N2C Mn1 1_555 1_555
N1 C1 1_555 1_555
C8 C9 1_555 1_555
C11 C16 1_555 1_555
C15 C16 1_555 1_555
C17 C18 1_555 1_555
C19 C32 1_555 1_555
C22 C23 1_555 1_555
C23 C24 1_555 1_555
C26 C27 1_555 1_555
C30 C31 1_555 1_555

#END
