
#######################################################################
#
#                 Cambridge Crystallographic Data Centre
#                                CCDC 
#
#######################################################################
#
# If this CIF has been generated from an entry in the Cambridge 
# Structural Database, then it will include bibliographic, chemical, 
# crystal, experimental, refinement or atomic coordinate data resulting 
# from the CCDC's data processing and validation procedures.
#
#######################################################################

data_QULGOU
_symmetry_cell_setting           monoclinic
_symmetry_space_group_name_H-M   'P 21/c'
_symmetry_Int_Tables_number      14
_space_group_name_Hall           '-P 2ybc'
loop_
_symmetry_equiv_pos_site_id
_symmetry_equiv_pos_as_xyz
1 x,y,z
2 -x,1/2+y,1/2-z
3 -x,-y,-z
4 x,1/2-y,1/2+z
_cell_length_a                   10.3117(18)
_cell_length_b                   12.848(2)
_cell_length_c                   15.824(3)
_cell_angle_alpha                90
_cell_angle_beta                 104.618(4)
_cell_angle_gamma                90
_cell_volume                     2028.58
loop_
_atom_site_label
_atom_site_type_symbol
_atom_site_fract_x
_atom_site_fract_y
_atom_site_fract_z
Cu1 Cu 0.29890(9) 0.40447(7) -0.05144(6)
Cu2 Cu 0.39550(9) 0.72925(7) -0.01737(6)
O1 O 0.4000(5) 0.4783(4) -0.1208(3)
O2 O 0.4944(5) 0.6316(4) -0.0727(3)
O3 O 0.6508(5) 0.7741(4) -0.4043(3)
O4 O 0.7567(6) 0.8076(5) -0.2660(4)
O5 O 0.5374(5) 0.3493(4) -0.4304(4)
O6 O 0.7262(6) 0.3129(5) -0.3358(4)
O7 O 0.0866(7) 0.4360(5) -0.1760(5)
H1 H 0.0122 0.4129 -0.1700
H2 H 0.1009 0.3969 -0.2160
N1 N 0.1773(6) 0.3321(5) 0.0133(4)
N2 N 0.2585(5) 0.5228(4) 0.0153(4)
N3 N 0.2910(6) 0.6257(4) 0.0264(4)
N4 N 0.1460(6) 0.5872(4) 0.1073(4)
N5 N 0.3106(6) 0.8212(5) 0.0597(4)
C1 C 0.1430(7) 0.2328(6) 0.0089(5)
H3 H 0.1804 0.1879 -0.0246
C2 C 0.0530(8) 0.1936(6) 0.0526(6)
H4 H 0.0280 0.1239 0.0467
C3 C 0.0015(8) 0.2581(6) 0.1043(6)
H5 H -0.0579 0.2327 0.1348
C4 C 0.0383(7) 0.3606(6) 0.1107(5)
H6 H 0.0041 0.4055 0.1458
C5 C 0.1256(6) 0.3970(5) 0.0653(5)
C6 C 0.1736(7) 0.5035(6) 0.0638(5)
C7 C 0.2216(7) 0.6611(5) 0.0818(5)
C8 C 0.2346(7) 0.7708(6) 0.1043(5)
C9 C 0.1749(8) 0.8196(6) 0.1610(5)
H7 H 0.1239 0.7822 0.1913
C10 C 0.1916(8) 0.9249(6) 0.1726(6)
H8 H 0.1519 0.9598 0.2111
C11 C 0.2677(8) 0.9787(6) 0.1269(5)
H9 H 0.2804 1.0502 0.1341
C12 C 0.3241(8) 0.9242(6) 0.0705(5)
H10 H 0.3737 0.9605 0.0386
C13 C 0.5404(6) 0.5556(5) -0.1974(5)
C14 C 0.5865(7) 0.6484(5) -0.2230(5)
H11 H 0.5829 0.7089 -0.1913
C15 C 0.6382(7) 0.6515(6) -0.2959(5)
C16 C 0.6481(7) 0.5605(6) -0.3401(5)
H12 H 0.6810 0.5627 -0.3897
C17 C 0.6099(7) 0.4656(5) -0.3119(5)
C18 C 0.5524(7) 0.4630(5) -0.2413(4)
H13 H 0.5224 0.4005 -0.2235
C19 C 0.4725(7) 0.5559(6) -0.1251(5)
C20 C 0.6862(7) 0.7529(6) -0.3243(6)
C21 C 0.6282(8) 0.3674(6) -0.3617(5)
Cu1B Cu 0.70110(9) 0.59553(7) 0.05144(6)
Cu1A Cu 0.70110(9) 0.90447(7) -0.44856(6)
Cu2A Cu 0.60450(9) 0.22925(7) -0.48263(6)
O2B O 0.5056(5) 0.3684(4) 0.0727(3)
O3A O 0.3492(5) 0.2741(4) -0.0957(3)
O5A O 0.4626(5) 0.8493(4) -0.0696(4)
O6A O 0.2738(6) 0.8129(5) -0.1642(4)
loop_
_geom_bond_atom_site_label_1
_geom_bond_atom_site_label_2
_geom_bond_site_symmetry_1
_geom_bond_site_symmetry_2
Cu1 O1 1_555 1_555
Cu2 O2 1_555 1_555
O1 C19 1_555 1_555
O2 C19 1_555 1_555
O3 C20 1_555 1_555
O4 C20 1_555 1_555
O5 C21 1_555 1_555
O6 C21 1_555 1_555
O7 Cu1 1_555 1_555
H1 O7 1_555 1_555
H2 O7 1_555 1_555
N1 Cu1 1_555 1_555
N2 Cu1 1_555 1_555
N3 Cu2 1_555 1_555
N4 C6 1_555 1_555
N5 Cu2 1_555 1_555
C1 N1 1_555 1_555
H3 C1 1_555 1_555
C2 C1 1_555 1_555
H4 C2 1_555 1_555
C3 C2 1_555 1_555
H5 C3 1_555 1_555
C4 C3 1_555 1_555
H6 C4 1_555 1_555
C5 N1 1_555 1_555
C6 N2 1_555 1_555
C7 N3 1_555 1_555
C8 N5 1_555 1_555
C9 C8 1_555 1_555
H7 C9 1_555 1_555
C10 C9 1_555 1_555
H8 C10 1_555 1_555
C11 C10 1_555 1_555
H9 C11 1_555 1_555
C12 N5 1_555 1_555
H10 C12 1_555 1_555
C13 C14 1_555 1_555
C14 H11 1_555 1_555
C15 C14 1_555 1_555
C16 C15 1_555 1_555
H12 C16 1_555 1_555
C17 C16 1_555 1_555
C18 C13 1_555 1_555
H13 C18 1_555 1_555
C19 C13 1_555 1_555
C20 C15 1_555 1_555
C21 C17 1_555 1_555
Cu1B O2 1_555 1_555
Cu1A O3 1_555 1_555
Cu2A O5 1_555 1_555
O2B Cu1 1_555 1_555
O3A Cu1 1_555 1_555
O5A Cu2 1_555 1_555
O6A Cu2 1_555 1_555
O6 Cu2A 1_555 1_555
N2 N3 1_555 1_555
N4 C7 1_555 1_555
C4 C5 1_555 1_555
C5 C6 1_555 1_555
C7 C8 1_555 1_555
C11 C12 1_555 1_555
C17 C18 1_555 1_555

#END
