
#######################################################################
#
#                 Cambridge Crystallographic Data Centre
#                                CCDC 
#
#######################################################################
#
# If this CIF has been generated from an entry in the Cambridge 
# Structural Database, then it will include bibliographic, chemical, 
# crystal, experimental, refinement or atomic coordinate data resulting 
# from the CCDC's data processing and validation procedures.
#
#######################################################################

data_QULHUB
_symmetry_cell_setting           monoclinic
_symmetry_space_group_name_H-M   'P 21/n'
_symmetry_Int_Tables_number      14
_space_group_name_Hall           '-P 2yn'
loop_
_symmetry_equiv_pos_site_id
_symmetry_equiv_pos_as_xyz
1 x,y,z
2 1/2-x,1/2+y,1/2-z
3 -x,-y,-z
4 1/2+x,1/2-y,1/2+z
_cell_length_a                   6.4134(6)
_cell_length_b                   7.4639(7)
_cell_length_c                   40.105(4)
_cell_angle_alpha                90
_cell_angle_beta                 94.439(4)
_cell_angle_gamma                90
_cell_volume                     1914.03
loop_
_atom_site_label
_atom_site_type_symbol
_atom_site_fract_x
_atom_site_fract_y
_atom_site_fract_z
C1 C -0.1997(2) 0.1180(2) 0.14044(4)
H1 H -0.2996 0.0701 0.1543
C2 C 0.1408(2) 0.2389(2) 0.13374(4)
H2 H 0.2752 0.2747 0.1430
C3 C -0.0025(2) 0.1676(2) 0.15475(4)
C4 C -0.2527(2) 0.1373(2) 0.10650(4)
H3 H -0.3883 0.1034 0.0975
C5 C 0.0906(2) 0.2583(2) 0.09980(4)
H4 H 0.1908 0.3071 0.0861
C6 C -0.1082(2) 0.2065(2) 0.08522(4)
C7 C 0.0545(2) 0.1362(2) 0.19086(4)
C8 C -0.3457(3) 0.1394(3) 0.03604(5)
H5 H -0.3261 0.0093 0.0371
H6 H -0.3683 0.1768 0.0126
H7 H -0.4676 0.1726 0.0480
C9 C -0.0016(3) 0.2745(3) 0.02919(5)
H8 H 0.0757 0.3799 0.0379
H9 H -0.0681 0.3015 0.0069
H10 H 0.0951 0.1737 0.0277
N1 N -0.1606(2) 0.2279(2) 0.05143(4)
O1 O 0.23368(17) 0.18633(17) 0.20360(3)
O2 O -0.07404(18) 0.05850(17) 0.20820(3)
O3 O 0.67854(18) 0.32136(18) 0.23467(3)
O4 O 0.25326(19) 0.58833(18) 0.22669(3)
Li1 Li 0.4090(4) 0.3897(4) 0.20782(7)
C10 C 0.8013(2) 0.6138(2) 0.13886(4)
C11 C 0.6743(2) 0.5780(2) 0.11003(4)
H11 H 0.5438 0.5192 0.1113
C12 C 0.7215(2) 0.5639(2) 0.17197(4)
C13 C 0.7401(2) 0.6291(2) 0.07951(4)
C14 C 1.0520(2) 0.7455(2) 0.10553(4)
C15 C 0.9289(2) 0.7140(2) 0.07631(4)
H12 H 0.9719 0.7488 0.0551
C16 C 0.9933(2) 0.6982(2) 0.13674(4)
H13 H 1.0818 0.7227 0.1563
O5 O 0.83475(17) 0.60452(16) 0.19863(3)
O6 O 0.55052(17) 0.48646(18) 0.17133(3)
O7 O -0.5074(2) -0.1169(2) 0.20700(4)
N2 N 0.6019(2) 0.5970(2) 0.04921(4)
N3 N 1.2518(2) 0.8380(2) 0.10310(4)
O8 O 1.36207(19) 0.8636(2) 0.12890(4)
O9 O 1.2982(2) 0.8854(2) 0.07523(4)
O10 O 0.4326(2) 0.5260(2) 0.05250(3)
O11 O 0.6626(2) 0.6441(2) 0.02250(3)
Li2 Li -0.2171(4) -0.1546(4) 0.21643(7)
H14 H 0.262(4) 0.606(4) 0.2479(7)
H15 H 0.126(4) 0.593(4) 0.2209(7)
H16 H 0.739(4) 0.412(4) 0.2261(7)
H17 H 0.761(5) 0.228(5) 0.2280(8)
H18 H -0.601(5) -0.205(5) 0.2120(8)
H19 H -0.577(5) -0.019(5) 0.2049(8)
O3A O -0.17854(18) -0.17864(18) 0.26533(3)
O5_2 O -0.16525(17) -0.39548(16) 0.19863(3)
Li2A Li 0.7171(4) 0.3454(4) 0.28357(7)
Li2_2 Li 0.7829(4) 0.8454(4) 0.21643(7)
loop_
_geom_bond_atom_site_label_1
_geom_bond_atom_site_label_2
_geom_bond_site_symmetry_1
_geom_bond_site_symmetry_2
C1 H1 1_555 1_555
C2 H2 1_555 1_555
C3 C1 1_555 1_555
C4 C1 1_555 1_555
H3 C4 1_555 1_555
C5 C2 1_555 1_555
H4 C5 1_555 1_555
C6 C4 1_555 1_555
C7 C3 1_555 1_555
C8 H5 1_555 1_555
H6 C8 1_555 1_555
H7 C8 1_555 1_555
C9 H8 1_555 1_555
H9 C9 1_555 1_555
H10 C9 1_555 1_555
N1 C6 1_555 1_555
O1 C7 1_555 1_555
O2 C7 1_555 1_555
O3 Li1 1_555 1_555
O4 Li1 1_555 1_555
Li1 O1 1_555 1_555
C10 C11 1_555 1_555
C11 H11 1_555 1_555
C12 C10 1_555 1_555
C13 C11 1_555 1_555
C14 C15 1_555 1_555
C15 C13 1_555 1_555
H12 C15 1_555 1_555
C16 C10 1_555 1_555
H13 C16 1_555 1_555
O5 C12 1_555 1_555
O6 Li1 1_555 1_555
O7 Li2 1_555 1_555
N2 C13 1_555 1_555
N3 C14 1_555 1_555
O8 N3 1_555 1_555
O9 N3 1_555 1_555
O10 N2 1_555 1_555
O11 N2 1_555 1_555
Li2 O2 1_555 1_555
H14 O4 1_555 1_555
H15 O4 1_555 1_555
H16 O3 1_555 1_555
H17 O3 1_555 1_555
H18 O7 1_555 1_555
H19 O7 1_555 1_555
O3A Li2 1_555 1_555
O5_2 Li2 1_555 1_555
Li2A O3 1_555 1_555
Li2_2 O5 1_555 1_555
C2 C3 1_555 1_555
C5 C6 1_555 1_555
C8 N1 1_555 1_555
C9 N1 1_555 1_555
C12 O6 1_555 1_555
C14 C16 1_555 1_555

#END
