
#######################################################################
#
#                 Cambridge Crystallographic Data Centre
#                                CCDC 
#
#######################################################################
#
# If this CIF has been generated from an entry in the Cambridge 
# Structural Database, then it will include bibliographic, chemical, 
# crystal, experimental, refinement or atomic coordinate data resulting 
# from the CCDC's data processing and validation procedures.
#
#######################################################################

data_QULHAI
_symmetry_cell_setting           triclinic
_symmetry_space_group_name_H-M   'P -1'
_symmetry_Int_Tables_number      2
_space_group_name_Hall           '-P 1'
loop_
_symmetry_equiv_pos_site_id
_symmetry_equiv_pos_as_xyz
1 x,y,z
2 -x,-y,-z
_cell_length_a                   12.1113(6)
_cell_length_b                   12.1734(7)
_cell_length_c                   13.2760(8)
_cell_angle_alpha                67.930(3)
_cell_angle_beta                 87.799(3)
_cell_angle_gamma                77.603(3)
_cell_volume                     1769.71
loop_
_atom_site_label
_atom_site_type_symbol
_atom_site_fract_x
_atom_site_fract_y
_atom_site_fract_z
C1 C 0.4836(2) 0.3790(2) 1.16458(19)
C2 C 0.5255(2) 0.3480(3) 1.0744(2)
H1 H 0.6019 0.3425 1.0602
C3 C 0.4570(2) 0.3269(3) 1.0098(2)
H2 H 0.4870 0.3066 0.9520
C4 C 0.33903(18) 0.3347(2) 1.02797(18)
C5 C 0.29861(18) 0.3702(2) 1.11577(18)
C6 C 0.36618(19) 0.3941(2) 1.18051(19)
H3 H 0.3355 0.4202 1.2350
C7 C 0.26544(18) 0.3113(2) 0.96594(17)
C8 C 0.15035(18) 0.3184(2) 0.99444(18)
C9 C 0.11421(18) 0.3526(2) 1.08129(18)
C10 C 0.00394(18) 0.3626(2) 1.11336(19)
H4 H -0.0169 0.3838 1.1729
C11 C -0.07459(18) 0.3404(2) 1.0551(2)
C12 C -0.0418(2) 0.3065(2) 0.9671(2)
H5 H -0.0951 0.2915 0.9281
C13 C 0.06790(19) 0.2953(2) 0.9381(2)
H6 H 0.0886 0.2719 0.8797
C14 C 0.30626(18) 0.2686(2) 0.87646(18)
C15 C 0.3448(2) 0.1451(2) 0.9040(2)
H7 H 0.3468 0.0930 0.9765
C16 C 0.3803(2) 0.0978(3) 0.8255(2)
H8 H 0.4048 0.0144 0.8451
C17 C 0.3794(2) 0.1747(3) 0.7183(2)
H9 H 0.4022 0.1433 0.6650
C18 C 0.3448(2) 0.2979(2) 0.6903(2)
H10 H 0.3467 0.3495 0.6182
C19 C 0.30705(17) 0.3470(2) 0.76779(18)
C20 C 0.26910(17) 0.4820(2) 0.73444(18)
C21 C 1.39654(18) 0.1600(2) 1.4039(2)
C22 C 0.82067(18) 0.1287(2) 1.3429(2)
C23 C 0.85274(19) 0.0454(2) 1.2894(2)
H11 H 0.7972 0.0160 1.2672
C24 C 0.96197(19) 0.0082(2) 1.2700(2)
H12 H 0.9795 -0.0455 1.2342
C25 C 1.05108(18) 0.0488(2) 1.30297(18)
C26 C 1.01781(18) 0.1263(2) 1.36100(19)
C27 C 0.90800(18) 0.1658(2) 1.3801(2)
H13 H 0.8907 0.2175 1.4179
C28 C 1.16467(18) 0.01878(19) 1.28144(18)
C29 C 1.24434(18) 0.0659(2) 1.31793(18)
C30 C 1.20897(18) 0.1366(2) 1.38102(19)
C31 C 1.28094(18) 0.1815(2) 1.4243(2)
H14 H 1.2535 0.2261 1.4669
C32 C 1.36201(19) 0.0458(2) 1.2981(2)
H15 H 1.3896 0.0011 1.2555
C33 C 1.43457(19) 0.0899(2) 1.3395(2)
H16 H 1.5110 0.0742 1.3255
C34 C 1.20070(17) -0.0584(2) 1.21650(18)
C35 C 1.1610(2) -0.0150(2) 1.10902(19)
H17 H 1.1101 0.0594 1.0802
C36 C 1.1962(2) -0.0810(3) 1.0441(2)
H18 H 1.1680 -0.0514 0.9725
C37 C 1.2725(2) -0.1899(3) 1.0851(2)
H19 H 1.2966 -0.2338 1.0412
C38 C 1.3134(2) -0.2342(2) 1.1911(2)
H20 H 1.3660 -0.3075 1.2183
C39 C 1.27712(17) -0.1709(2) 1.25821(18)
C40 C 1.31644(17) -0.22605(19) 1.37543(18)
O1 O 1.46653(13) 0.20524(16) 1.44029(15)
O2 O 0.55206(14) 0.39026(18) 1.22813(14)
O3 O 0.71586(13) 0.16750(17) 1.35423(15)
O4 O 0.18720(12) 0.37972(15) 1.13962(13)
O5 O -0.18444(13) 0.34978(18) 1.07937(16)
H21 H -0.1947 0.3699 1.1320
O6 O 0.21208(14) 0.52132(16) 0.79755(14)
O7 O 0.29711(14) 0.54745(15) 0.64154(13)
O8 O 1.09684(12) 0.16597(15) 1.40074(14)
O9 O 1.25482(13) -0.19962(16) 1.44385(13)
O10 O 1.41012(13) -0.29935(16) 1.40450(14)
Sm1 Sm 0.602367(8) 0.305873(9) 1.409095(8)
O11 O 0.45166(14) 0.46851(17) 1.40575(16)
H22 H 0.3772(17) 0.463(3) 1.410(3)
H23 H 0.453(3) 0.546(2) 1.400(3)
O1_2 O 0.46653(13) 0.20524(16) 1.44029(15)
O7A O 0.70289(14) 0.45255(15) 1.35846(13)
O9A O 0.74518(13) 0.19962(16) 1.55615(13)
O10A O 0.58988(13) 0.29935(16) 1.59550(14)
Sm1_2 Sm 1.602367(8) 0.305873(9) 1.409095(8)
Sm1A Sm 0.397633(8) 0.694127(9) 0.590905(8)
Sm1A_2 Sm 1.397633(8) -0.305873(9) 1.590905(8)
C41 C 0.9681(3) 0.6833(3) 1.3781(3)
H24 H 1.0014 0.7262 1.4121
H25 H 0.9042 0.6577 1.4176
H26 H 0.9438 0.7359 1.3045
C42 C 1.0146(3) 0.4958(3) 1.3374(3)
H27 H 0.9723 0.5417 1.2695
H28 H 0.9677 0.4502 1.3892
H29 H 1.0796 0.4410 1.3266
C43 C 1.1580(3) 0.5568(3) 1.4108(3)
H30 H 1.1791 0.6105 1.4371
N1 N 1.0512(2) 0.5777(2) 1.3781(2)
O12 O 1.23038(19) 0.4716(3) 1.4085(2)
loop_
_geom_bond_atom_site_label_1
_geom_bond_atom_site_label_2
_geom_bond_site_symmetry_1
_geom_bond_site_symmetry_2
C1 C2 1_555 1_555
C2 H1 1_555 1_555
C3 C2 1_555 1_555
H2 C3 1_555 1_555
C4 C3 1_555 1_555
C5 C4 1_555 1_555
C6 C1 1_555 1_555
H3 C6 1_555 1_555
C7 C4 1_555 1_555
C8 C7 1_555 1_555
C9 C8 1_555 1_555
C10 C9 1_555 1_555
H4 C10 1_555 1_555
C11 C10 1_555 1_555
C12 C11 1_555 1_555
H5 C12 1_555 1_555
C13 C8 1_555 1_555
H6 C13 1_555 1_555
C14 C7 1_555 1_555
C15 C14 1_555 1_555
H7 C15 1_555 1_555
C16 C15 1_555 1_555
H8 C16 1_555 1_555
C17 C16 1_555 1_555
H9 C17 1_555 1_555
C18 C17 1_555 1_555
H10 C18 1_555 1_555
C19 C14 1_555 1_555
C20 C19 1_555 1_555
C21 C31 1_555 1_555
C22 C23 1_555 1_555
C23 H11 1_555 1_555
C24 C23 1_555 1_555
H12 C24 1_555 1_555
C25 C24 1_555 1_555
C26 C25 1_555 1_555
C27 C22 1_555 1_555
H13 C27 1_555 1_555
C28 C25 1_555 1_555
C29 C28 1_555 1_555
C30 C29 1_555 1_555
C31 C30 1_555 1_555
H14 C31 1_555 1_555
C32 C29 1_555 1_555
H15 C32 1_555 1_555
C33 C21 1_555 1_555
H16 C33 1_555 1_555
C34 C28 1_555 1_555
C35 C34 1_555 1_555
H17 C35 1_555 1_555
C36 C35 1_555 1_555
H18 C36 1_555 1_555
C37 C36 1_555 1_555
H19 C37 1_555 1_555
C38 C37 1_555 1_555
H20 C38 1_555 1_555
C39 C34 1_555 1_555
C40 C39 1_555 1_555
O1 C21 1_555 1_555
O2 C1 1_555 1_555
O3 C22 1_555 1_555
O4 C5 1_555 1_555
O5 C11 1_555 1_555
H21 O5 1_555 1_555
O6 C20 1_555 1_555
O7 C20 1_555 1_555
O8 C26 1_555 1_555
O9 C40 1_555 1_555
O10 C40 1_555 1_555
Sm1 O2 1_555 1_555
O11 Sm1 1_555 1_555
H22 O11 1_555 1_555
H23 O11 1_555 1_555
C41 H24 1_555 1_555
H25 C41 1_555 1_555
H26 C41 1_555 1_555
C42 H27 1_555 1_555
H28 C42 1_555 1_555
H29 C42 1_555 1_555
C43 H30 1_555 1_555
N1 C41 1_555 1_555
O12 C43 1_555 1_555
O1_2 Sm1 1_555 1_555
O7A Sm1 1_555 1_555
O9A Sm1 1_555 1_555
O10A Sm1 1_555 1_555
Sm1_2 O1 1_555 1_555
Sm1A O7 1_555 1_555
Sm1A_2 O9 1_555 1_555
C5 C6 1_555 1_555
C9 O4 1_555 1_555
C12 C13 1_555 1_555
C18 C19 1_555 1_555
C26 C27 1_555 1_555
C30 O8 1_555 1_555
C32 C33 1_555 1_555
C38 C39 1_555 1_555
O3 Sm1 1_555 1_555
O10 Sm1A_2 1_555 1_555
C42 N1 1_555 1_555
C43 N1 1_555 1_555

#END
