
#######################################################################
#
#                 Cambridge Crystallographic Data Centre
#                                CCDC 
#
#######################################################################
#
# If this CIF has been generated from an entry in the Cambridge 
# Structural Database, then it will include bibliographic, chemical, 
# crystal, experimental, refinement or atomic coordinate data resulting 
# from the CCDC's data processing and validation procedures.
#
#######################################################################

data_QULKOY
_symmetry_cell_setting           triclinic
_symmetry_space_group_name_H-M   'P -1'
_symmetry_Int_Tables_number      2
_space_group_name_Hall           '-P 1'
loop_
_symmetry_equiv_pos_site_id
_symmetry_equiv_pos_as_xyz
1 x,y,z
2 -x,-y,-z
_cell_length_a                   8.7400(17)
_cell_length_b                   11.111(2)
_cell_length_c                   16.820(3)
_cell_angle_alpha                101.26(3)
_cell_angle_beta                 104.48(3)
_cell_angle_gamma                98.16(3)
_cell_volume                     1519.45
loop_
_atom_site_label
_atom_site_type_symbol
_atom_site_fract_x
_atom_site_fract_y
_atom_site_fract_z
Tb1 Tb 0.32147(4) 0.81153(3) 0.572610(19)
Ag1 Ag 0.38044(7) 1.07608(6) 0.95407(4)
Ag2 Ag 0.60900(7) 1.28198(6) 1.07210(4)
Ag3 Ag 1.38145(7) 1.40295(6) 0.94221(4)
C1 C 0.8164(9) 1.1333(6) 0.8653(4)
C2 C 0.9725(8) 1.1922(6) 0.8891(4)
H1 H 1.0170 1.2494 0.9411
C3 C 1.0696(9) 1.1648(6) 0.8318(4)
C4 C 0.9850(9) 1.0804(7) 0.7525(4)
H2 H 1.0391 1.0613 0.7121
C5 C 0.8290(8) 1.0281(6) 0.7350(4)
C6 C 0.7018(9) 1.1533(7) 0.9192(5)
C7 C 0.7275(9) 0.9403(6) 0.6494(4)
C8 C 0.1686(9) 0.6569(6) 0.2840(4)
C9 C 0.0112(9) 0.6050(6) 0.2649(4)
H3 H -0.0440 0.6256 0.3047
C10 C -0.0745(9) 0.5186(6) 0.1853(5)
C11 C 0.0240(8) 0.4917(6) 0.1289(4)
H4 H -0.0212 0.4354 0.0765
C12 C 0.1817(9) 0.5483(6) 0.1522(4)
C13 C 0.2687(9) 0.7476(6) 0.3640(4)
C14 C 0.2955(9) 0.5254(7) 0.0990(4)
C15 C -0.1265(9) 0.6825(6) 0.7189(5)
C16 C 0.0291(9) 0.7415(6) 0.7427(5)
H5 H 0.0923 0.7229 0.7067
C17 C 0.1010(9) 0.8322(6) 0.8221(5)
C18 C -0.0082(8) 0.8509(6) 0.8730(4)
H6 H 0.0290 0.9067 0.9259
C19 C -0.1626(9) 0.7894(6) 0.8454(4)
C20 C -0.2851(9) 0.8037(7) 0.8940(5)
C21 C -0.2077(9) 0.5837(7) 0.6363(5)
O1 O 0.5678(7) 1.0793(5) 0.8910(4)
O2 O 0.7559(6) 1.2394(5) 0.9843(3)
O3 O 0.7427(6) 1.0501(4) 0.7897(3)
O4 O 1.2146(6) 1.2128(5) 0.8511(3)
O5 O 0.5834(6) 0.9023(5) 0.6430(3)
O6 O 0.8001(6) 0.9170(6) 0.5964(3)
O7 O 0.3984(7) 0.8078(5) 0.3630(3)
O8 O 0.2106(6) 0.7540(5) 0.4255(3)
O9 O 0.2549(6) 0.6318(4) 0.2277(3)
O10 O -0.2209(6) 0.4739(5) 0.1656(3)
O11 O 0.4341(6) 0.5913(5) 0.1276(3)
O12 O 0.2345(6) 0.4438(5) 0.0301(3)
O13 O -0.1242(9) 0.5716(6) 0.5869(4)
O14 O -0.3419(7) 0.5216(5) 0.6268(4)
O15 O -0.2247(6) 0.7045(4) 0.7679(3)
O16 O 0.2415(6) 0.8862(5) 0.8444(3)
O17 O -0.4228(6) 0.7371(5) 0.8616(3)
O18 O -0.2300(6) 0.8826(5) 0.9638(3)
O19 O 0.4730(7) 0.6762(5) 0.5189(3)
H7 H 0.4574 0.6310 0.4695
H8 H 0.5547 0.6597 0.5513
O20 O 0.3575(6) 1.0023(5) 0.5419(3)
H9 H 0.3131 1.0234 0.4971
H10 H 0.4382 1.0602 0.5704
O21 O 0.3837(7) 0.7271(5) 0.6913(3)
H11 H 0.3311 0.6519 0.6771
H12 H 0.4561 0.7357 0.7378
O22 O 0.0572(6) 0.8387(5) 0.5425(4)
H13 H 0.0306 0.8651 0.4979
H14 H -0.0143 0.8480 0.5681
O23 O 0.2903(7) 0.9472(5) 0.6917(3)
H15 H 0.2691 0.9451 0.7377
H16 H 0.3829 0.9936 0.7029
O24 O 0.1650(7) 0.6141(5) 0.5476(3)
H17 H 0.0784 0.6110 0.5621
H18 H 0.1803 0.5397 0.5355
Ag1A Ag 0.61956(7) 0.92392(6) 1.04593(4)
Ag1_2 Ag 1.38044(7) 1.07608(6) 0.95407(4)
Ag1A_2 Ag -0.38044(7) 0.92392(6) 1.04593(4)
Ag2A Ag 1.39100(7) 1.71802(6) 0.92790(4)
Ag2_2 Ag 1.60900(7) 1.28198(6) 1.07210(4)
Ag2_3 Ag -0.39100(7) 0.28198(6) 0.07210(4)
Ag2A_2 Ag 0.39100(7) 0.71802(6) 0.92790(4)
Ag2A_3 Ag -0.60900(7) 0.71802(6) 0.92790(4)
Ag3A Ag 0.61855(7) 1.59705(6) 1.05779(4)
Ag3_2 Ag 0.38145(7) 1.40295(6) 0.94221(4)
Ag3A_2 Ag 1.61855(7) 1.59705(6) 1.05779(4)
Ag3A_3 Ag -0.38145(7) 0.59705(6) 0.05779(4)
Ag3A_4 Ag 0.61855(7) 0.59705(6) 0.05779(4)
Ag3_3 Ag 0.38145(7) 0.40295(6) -0.05779(4)
O4_2 O 0.2146(6) 1.2128(5) 0.8511(3)
O10_2 O 0.7791(6) 1.4739(5) 1.1656(3)
O10A O 1.2209(6) 1.5261(5) 0.8344(3)
O11A O 1.5659(6) 1.4087(5) 0.8724(3)
O12_2 O 1.2345(6) 1.4438(5) 1.0301(3)
O16A O 0.7585(6) 1.1138(5) 1.1556(3)
O17A O 0.4228(6) 1.2629(5) 1.1384(3)
O18A O 0.2300(6) 1.1174(5) 1.0362(3)
O25 O 0.1987(11) 0.2804(8) 0.5830(6)
H19 H 0.2389 0.3551 0.5840
H20 H 0.2584 0.2635 0.6258
O26 O 0.6259(9) 0.8090(6) 0.2805(4)
H21 H 0.6335 0.7689 0.2336
H22 H 0.5420 0.7715 0.2892
O27 O 0.5972(8) 0.5086(6) 0.3021(4)
H23 H 0.5743 0.5104 0.2503
H24 H 0.5091 0.4965 0.3150
loop_
_geom_bond_atom_site_label_1
_geom_bond_atom_site_label_2
_geom_bond_site_symmetry_1
_geom_bond_site_symmetry_2
Tb1 O5 1_555 1_555
Ag1 Ag2 1_555 1_555
Ag2 O2 1_555 1_555
Ag3 O4 1_555 1_555
C1 C2 1_555 1_555
C2 H1 1_555 1_555
C3 C2 1_555 1_555
C4 C3 1_555 1_555
H2 C4 1_555 1_555
C5 C4 1_555 1_555
C6 C1 1_555 1_555
C7 C5 1_555 1_555
C8 C9 1_555 1_555
C9 H3 1_555 1_555
C10 C9 1_555 1_555
C11 C10 1_555 1_555
H4 C11 1_555 1_555
C12 C11 1_555 1_555
C13 C8 1_555 1_555
C14 C12 1_555 1_555
C15 C16 1_555 1_555
C16 H5 1_555 1_555
C17 C16 1_555 1_555
C18 C17 1_555 1_555
H6 C18 1_555 1_555
C19 C18 1_555 1_555
C20 C19 1_555 1_555
C21 C15 1_555 1_555
O1 Ag1 1_555 1_555
O2 C6 1_555 1_555
O3 C1 1_555 1_555
O4 C3 1_555 1_555
O5 C7 1_555 1_555
O6 C7 1_555 1_555
O7 C13 1_555 1_555
O8 Tb1 1_555 1_555
O9 C8 1_555 1_555
O10 C10 1_555 1_555
O11 C14 1_555 1_555
O12 C14 1_555 1_555
O13 C21 1_555 1_555
O14 C21 1_555 1_555
O15 C15 1_555 1_555
O16 Ag1 1_555 1_555
O17 C20 1_555 1_555
O18 C20 1_555 1_555
O19 Tb1 1_555 1_555
H7 O19 1_555 1_555
H8 O19 1_555 1_555
O20 Tb1 1_555 1_555
H9 O20 1_555 1_555
H10 O20 1_555 1_555
O21 Tb1 1_555 1_555
H11 O21 1_555 1_555
H12 O21 1_555 1_555
O22 Tb1 1_555 1_555
H13 O22 1_555 1_555
H14 O22 1_555 1_555
O23 Tb1 1_555 1_555
H15 O23 1_555 1_555
H16 O23 1_555 1_555
O24 Tb1 1_555 1_555
H17 O24 1_555 1_555
H18 O24 1_555 1_555
O25 H19 1_555 1_555
H20 O25 1_555 1_555
O26 H21 1_555 1_555
H22 O26 1_555 1_555
O27 H23 1_555 1_555
H24 O27 1_555 1_555
Ag1A Ag1 1_555 1_555
Ag1_2 O4 1_555 1_555
Ag1A_2 O18 1_555 1_555
Ag2A Ag3 1_555 1_555
Ag2_2 Ag3 1_555 1_555
Ag2_3 O10 1_555 1_555
Ag2A_2 O16 1_555 1_555
Ag2A_3 O17 1_555 1_555
Ag3A Ag2 1_555 1_555
Ag3_2 Ag2 1_555 1_555
Ag3A_2 Ag3 1_555 1_555
Ag3A_3 O10 1_555 1_555
Ag3A_4 O11 1_555 1_555
Ag3_3 O12 1_555 1_555
O4_2 Ag1 1_555 1_555
O10_2 Ag2 1_555 1_555
O10A Ag3 1_555 1_555
O11A Ag3 1_555 1_555
O12_2 Ag3 1_555 1_555
O16A Ag2 1_555 1_555
O17A Ag2 1_555 1_555
O18A Ag1 1_555 1_555
C5 O3 1_555 1_555
C6 O1 1_555 1_555
C12 O9 1_555 1_555
C13 O8 1_555 1_555
C17 O16 1_555 1_555
C19 O15 1_555 1_555
Ag1A Ag2A_2 1_555 1_555
Ag1A O16A 1_555 1_555
Ag1_2 Ag2_2 1_555 1_555
Ag1A_2 Ag2A_3 1_555 1_555
Ag2A Ag3A_2 1_555 1_555
Ag2A O10A 1_555 1_555
Ag2_2 Ag3A_2 1_555 1_555
Ag2_3 Ag3A_3 1_555 1_555
Ag3A Ag3_2 1_555 1_555
Ag3A O10_2 1_555 1_555
Ag3_2 O4_2 1_555 1_555
Ag3A_4 Ag3_3 1_555 1_555

#END
