
#######################################################################
#
#                 Cambridge Crystallographic Data Centre
#                                CCDC 
#
#######################################################################
#
# If this CIF has been generated from an entry in the Cambridge 
# Structural Database, then it will include bibliographic, chemical, 
# crystal, experimental, refinement or atomic coordinate data resulting 
# from the CCDC's data processing and validation procedures.
#
#######################################################################

data_QULKUE
_symmetry_cell_setting           monoclinic
_symmetry_space_group_name_H-M   'P 21/c'
_symmetry_Int_Tables_number      14
_space_group_name_Hall           '-P 2ybc'
loop_
_symmetry_equiv_pos_site_id
_symmetry_equiv_pos_as_xyz
1 x,y,z
2 -x,1/2+y,1/2-z
3 -x,-y,-z
4 x,1/2-y,1/2+z
_cell_length_a                   15.670(9)
_cell_length_b                   3.5182(18)
_cell_length_c                   15.036(8)
_cell_angle_alpha                90
_cell_angle_beta                 104.523(7)
_cell_angle_gamma                90
_cell_volume                     802.451
loop_
_atom_site_label
_atom_site_type_symbol
_atom_site_fract_x
_atom_site_fract_y
_atom_site_fract_z
Ag1 Ag 0.956144(14) 0.01904(6) 0.399591(14)
O1 O 0.71548(13) -0.3044(6) 0.78855(13)
O2 O 0.58620(12) -0.6114(6) 0.74367(13)
H1 H 0.5798 -0.5466 0.7996
O3 O 0.57182(13) -0.9017(6) 0.41255(13)
O4 O 0.75083(12) -0.4341(5) 0.62921(13)
O5 O 0.88408(14) -0.4164(5) 0.47318(13)
O6 O 0.90452(12) -0.1653(6) 0.61364(13)
O7 O 0.88700(14) -0.4820(5) 0.28729(14)
H2 H 0.8286 -0.4078 0.2830
H3 H 0.8790 -0.4622 0.2262
C1 C 0.65952(18) -0.4738(7) 0.73204(19)
C2 C 0.67011(18) -0.5457(7) 0.63611(19)
C3 C 0.60863(18) -0.7031(7) 0.56749(18)
H4 H 0.5533 -0.7773 0.5770
C4 C 0.62726(17) -0.7596(7) 0.47831(18)
C5 C 0.71462(17) -0.6461(8) 0.47399(18)
H5 H 0.7325 -0.6825 0.4187
C6 C 0.77094(18) -0.4898(7) 0.54693(18)
C7 C 0.86149(18) -0.3472(8) 0.54552(19)
Ag1B Ag 1.043856(14) -0.01904(6) 0.600409(14)
Ag1_2 Ag 0.956144(14) -0.98096(6) 0.399591(14)
O5_2 O 0.88408(14) 0.5836(5) 0.47318(13)
O6B O 1.09548(12) 0.1653(6) 0.38636(13)
O7_2 O 0.88700(14) 0.5180(5) 0.28729(14)
H2_2 H 0.8286 0.5922 0.2830
H3_2 H 0.8790 0.5378 0.2262
loop_
_geom_bond_atom_site_label_1
_geom_bond_atom_site_label_2
_geom_bond_site_symmetry_1
_geom_bond_site_symmetry_2
Ag1 O5 1_555 1_555
O1 C1 1_555 1_555
O2 H1 1_555 1_555
O3 C4 1_555 1_555
O4 C2 1_555 1_555
O5 C7 1_555 1_555
O6 C7 1_555 1_555
O7 Ag1 1_555 1_555
H2 O7 1_555 1_555
H3 O7 1_555 1_555
C1 O2 1_555 1_555
C2 C1 1_555 1_555
C3 C2 1_555 1_555
H4 C3 1_555 1_555
C4 C3 1_555 1_555
C5 C4 1_555 1_555
H5 C5 1_555 1_555
C6 O4 1_555 1_555
C7 C6 1_555 1_555
Ag1B Ag1 1_555 1_555
Ag1_2 O5 1_555 1_555
O5_2 Ag1 1_555 1_555
O6B Ag1 1_555 1_555
O7_2 Ag1 1_555 1_555
H2_2 O7_2 1_555 1_555
H3_2 O7_2 1_555 1_555
O6 Ag1B 1_555 1_555
O7 Ag1_2 1_555 1_555
C5 C6 1_555 1_555

#END
