
#######################################################################
#
#                 Cambridge Crystallographic Data Centre
#                                CCDC 
#
#######################################################################
#
# If this CIF has been generated from an entry in the Cambridge 
# Structural Database, then it will include bibliographic, chemical, 
# crystal, experimental, refinement or atomic coordinate data resulting 
# from the CCDC's data processing and validation procedures.
#
#######################################################################

data_QULKIS
_symmetry_cell_setting           tetragonal
_symmetry_space_group_name_H-M   'I -4 2 d'
_symmetry_Int_Tables_number      122
_space_group_name_Hall           'I -4 2bw'
loop_
_symmetry_equiv_pos_site_id
_symmetry_equiv_pos_as_xyz
1 x,y,z
2 y,-x,-z
3 -x,-y,z
4 -y,x,-z
5 x,1/2-y,1/4-z
6 -x,1/2+y,1/4-z
7 -y,1/2-x,1/4+z
8 y,1/2+x,1/4+z
9 1/2+x,1/2+y,1/2+z
10 1/2+y,1/2-x,1/2-z
11 1/2-x,1/2-y,1/2+z
12 1/2-y,1/2+x,1/2-z
13 1/2+x,-y,3/4-z
14 1/2-x,y,3/4-z
15 1/2-y,-x,3/4+z
16 1/2+y,x,3/4+z
_cell_length_a                   13.335(2)
_cell_length_b                   13.335(2)
_cell_length_c                   31.626(8)
_cell_angle_alpha                90
_cell_angle_beta                 90
_cell_angle_gamma                90
_cell_volume                     5623.81
loop_
_atom_site_label
_atom_site_type_symbol
_atom_site_fract_x
_atom_site_fract_y
_atom_site_fract_z
Cl1 Cl 0.0000 0.0000 0.0000
O6 O -0.2492(13) 0.3509(11) 0.1079(5)
O7 O -0.0705(19) 0.1190(18) 0.0977(8)
Cu1 Cu 0.5000 0.5000 0.045555(19)
O1 O 0.3642(2) 0.4521(2) 0.04568(10)
O2 O 0.3613(2) 0.4499(2) -0.02560(9)
O3 O 0.4783(5) 0.5660(6) 0.1128(2)
O4 O 0.5000 0.5000 0.17237(19)
N1 N 0.5000 0.5000 0.13457(19)
N2 N -0.1333(2) 0.2840(3) -0.02643(11)
C1 C 0.3227(3) 0.4357(3) 0.01048(13)
C2 C 0.2182(3) 0.3964(3) 0.01204(12)
C3 C 0.1572(3) 0.4128(3) 0.04694(14)
H1 H 0.1826 0.4465 0.0703
C4 C 0.0575(3) 0.3790(3) 0.04724(13)
H2 H 0.0161 0.3934 0.0701
C5 C 0.0211(3) 0.3245(3) 0.01354(12)
C6 C 0.0829(3) 0.3055(4) -0.02133(13)
H3 H 0.0591 0.2676 -0.0439
C7 C 0.1797(3) 0.3434(3) -0.02210(14)
H4 H 0.2195 0.3332 -0.0459
C8 C -0.0832(3) 0.2826(5) 0.01542(13)
H5 H -0.0805 0.2142 0.0257
H6 H -0.1226 0.3216 0.0353
C9 C -0.1730(3) 0.3699(4) -0.04060(16)
H7 H -0.1688 0.4274 -0.0240
C10 C -0.2200(3) 0.3747(3) -0.07940(15)
H8 H -0.2487 0.4343 -0.0887
C11 C -0.2238(3) 0.2892(3) -0.10430(13)
C12 C -0.1802(3) 0.2009(3) -0.08894(15)
H9 H -0.1808 0.1428 -0.1052
C13 C -0.1364(3) 0.2007(3) -0.04958(14)
H10 H -0.1086 0.1418 -0.0390
Cu1L Cu -1.0000 0.5000 -0.295555(19)
Cu1A Cu 0.5000 0.5000 -0.045555(19)
Cu1N Cu -1.0000 0.5000 -0.204445(19)
Cu1L_2 Cu 2.0000 0.5000 -0.295555(19)
Cu1N_2 Cu 2.0000 0.5000 -0.204445(19)
O1M O -0.8642(2) 0.4521(2) -0.29568(10)
O1B O 0.6358(2) 0.5479(2) 0.04568(10)
O1L O 1.8642(2) 0.5479(2) -0.29568(10)
O1L_2 O -1.1358(2) 0.5479(2) -0.29568(10)
O2M O -0.8613(2) 0.4499(2) -0.22440(9)
O2B O 0.6387(2) 0.5501(2) -0.02560(9)
O2L O 1.8613(2) 0.5501(2) -0.22440(9)
O2A O 0.4499(2) 0.6387(2) 0.02560(9)
O2C O 0.5501(2) 0.3613(2) 0.02560(9)
O2N O -0.9499(2) 0.6387(2) -0.27560(9)
O2O O -1.0501(2) 0.3613(2) -0.27560(9)
O3B O 0.5217(5) 0.4340(6) 0.1128(2)
O3M O -0.9783(5) 0.5660(6) -0.3628(2)
O3L O -1.0217(5) 0.4340(6) -0.3628(2)
O4L O -1.0000 0.5000 -0.42237(19)
N1L N -1.0000 0.5000 -0.38457(19)
N2M N -0.3667(2) 0.2840(3) -0.22357(11)
N2B N 1.1333(2) 0.7160(3) -0.02643(11)
N2L N 1.3667(2) 0.7160(3) -0.22357(11)
C1M C -0.8227(3) 0.4357(3) -0.26048(13)
C1B C 0.6773(3) 0.5643(3) 0.01048(13)
C1L C 1.8227(3) 0.5643(3) -0.26048(13)
C2M C -0.7182(3) 0.3964(3) -0.26204(12)
C2B C 0.7818(3) 0.6036(3) 0.01204(12)
C2L C 1.7182(3) 0.6036(3) -0.26204(12)
C3M C -0.6572(3) 0.4128(3) -0.29694(14)
C3B C 0.8428(3) 0.5872(3) 0.04694(14)
C3L C 1.6572(3) 0.5872(3) -0.29694(14)
H1M H -0.6826 0.4465 -0.3203
H1B H 0.8174 0.5535 0.0703
H1L H 1.6826 0.5535 -0.3203
C4M C -0.5575(3) 0.3790(3) -0.29724(13)
C4B C 0.9425(3) 0.6210(3) 0.04724(13)
C4L C 1.5575(3) 0.6210(3) -0.29724(13)
H2M H -0.5161 0.3934 -0.3201
H2B H 0.9839 0.6066 0.0701
H2L H 1.5161 0.6066 -0.3201
C5M C -0.5211(3) 0.3245(3) -0.26354(12)
C5B C 0.9789(3) 0.6755(3) 0.01354(12)
C5L C 1.5211(3) 0.6755(3) -0.26354(12)
C6M C -0.5829(3) 0.3055(4) -0.22867(13)
C6B C 0.9171(3) 0.6945(4) -0.02133(13)
C6L C 1.5829(3) 0.6945(4) -0.22867(13)
H3M H -0.5591 0.2676 -0.2061
H3B H 0.9409 0.7324 -0.0439
H3L H 1.5591 0.7324 -0.2061
C7M C -0.6797(3) 0.3434(3) -0.22790(14)
C7B C 0.8203(3) 0.6566(3) -0.02210(14)
C7L C 1.6797(3) 0.6566(3) -0.22790(14)
H4M H -0.7195 0.3332 -0.2041
H4B H 0.7805 0.6668 -0.0459
H4L H 1.7195 0.6668 -0.2041
C8M C -0.4168(3) 0.2826(5) -0.26542(13)
C8B C 1.0832(3) 0.7174(5) 0.01542(13)
C8L C 1.4168(3) 0.7174(5) -0.26542(13)
H5M H -0.4195 0.2142 -0.2757
H5B H 1.0805 0.7858 0.0257
H5L H 1.4195 0.7858 -0.2757
H6M H -0.3774 0.3216 -0.2853
H6B H 1.1226 0.6784 0.0353
H6L H 1.3774 0.6784 -0.2853
C9M C -0.3270(3) 0.3699(4) -0.20940(16)
C9B C 1.1730(3) 0.6301(4) -0.04060(16)
C9L C 1.3270(3) 0.6301(4) -0.20940(16)
H7M H -0.3312 0.4274 -0.2260
H7B H 1.1688 0.5726 -0.0240
H7L H 1.3312 0.5726 -0.2260
C10M C -0.2800(3) 0.3747(3) -0.17060(15)
C10B C 1.2200(3) 0.6253(3) -0.07940(15)
C10L C 1.2800(3) 0.6253(3) -0.17060(15)
H8M H -0.2513 0.4343 -0.1613
H8B H 1.2487 0.5657 -0.0887
H8L H 1.2513 0.5657 -0.1613
C11M C -0.2762(3) 0.2892(3) -0.14570(13)
C11B C 1.2238(3) 0.7108(3) -0.10430(13)
C11L C 1.2762(3) 0.7108(3) -0.14570(13)
C12M C -0.3198(3) 0.2009(3) -0.16106(15)
C12B C 1.1802(3) 0.7991(3) -0.08894(15)
C12L C 1.3198(3) 0.7991(3) -0.16106(15)
H9M H -0.3192 0.1428 -0.1448
H9B H 1.1808 0.8572 -0.1052
H9L H 1.3192 0.8572 -0.1448
C13M C -0.3636(3) 0.2007(3) -0.20042(14)
C13B C 1.1364(3) 0.7993(3) -0.04958(14)
C13L C 1.3636(3) 0.7993(3) -0.20042(14)
H10M H -0.3914 0.1418 -0.2110
H10B H 1.1086 0.8582 -0.0390
H10L H 1.3914 0.8582 -0.2110
O5? O 0.0000 0.0000 0.0000
loop_
_geom_bond_atom_site_label_1
_geom_bond_atom_site_label_2
_geom_bond_site_symmetry_1
_geom_bond_site_symmetry_2
Cu1 O1 1_555 1_555
O1 C1 1_555 1_555
O2 C1 1_555 1_555
O3 Cu1 1_555 1_555
O4 N1 1_555 1_555
N1 O3 1_555 1_555
N2 C8 1_555 1_555
C1 C2 1_555 1_555
C2 C3 1_555 1_555
C3 H1 1_555 1_555
C4 C3 1_555 1_555
H2 C4 1_555 1_555
C5 C4 1_555 1_555
C6 C5 1_555 1_555
H3 C6 1_555 1_555
C7 C2 1_555 1_555
H4 C7 1_555 1_555
C8 C5 1_555 1_555
H5 C8 1_555 1_555
H6 C8 1_555 1_555
C9 N2 1_555 1_555
H7 C9 1_555 1_555
C10 C9 1_555 1_555
H8 C10 1_555 1_555
C11 C10 1_555 1_555
C12 C11 1_555 1_555
H9 C12 1_555 1_555
C13 N2 1_555 1_555
H10 C13 1_555 1_555
Cu1L O1M 1_555 1_555
Cu1A O2 1_555 1_555
Cu1N O2M 1_555 1_555
Cu1L_2 O1L 1_555 1_555
Cu1N_2 O2L 1_555 1_555
O1M C1M 1_555 1_555
O1B Cu1 1_555 1_555
O1L C1L 1_555 1_555
O1L_2 Cu1L 1_555 1_555
O2M C1M 1_555 1_555
O2B Cu1A 1_555 1_555
O2L C1L 1_555 1_555
O2A Cu1 1_555 1_555
O2C Cu1 1_555 1_555
O2N Cu1L 1_555 1_555
O2O Cu1L 1_555 1_555
O3B Cu1 1_555 1_555
O3M Cu1L 1_555 1_555
O3L Cu1L 1_555 1_555
O4L N1L 1_555 1_555
N1L O3M 1_555 1_555
N2M C8M 1_555 1_555
N2B C8B 1_555 1_555
N2L C8L 1_555 1_555
C1M C2M 1_555 1_555
C1B O1B 1_555 1_555
C1L C2L 1_555 1_555
C2M C3M 1_555 1_555
C2B C1B 1_555 1_555
C2L C3L 1_555 1_555
C3M H1M 1_555 1_555
C3B C2B 1_555 1_555
C3L H1L 1_555 1_555
H1B C3B 1_555 1_555
C4M C3M 1_555 1_555
C4B C3B 1_555 1_555
C4L C3L 1_555 1_555
H2M C4M 1_555 1_555
H2B C4B 1_555 1_555
H2L C4L 1_555 1_555
C5M C4M 1_555 1_555
C5B C4B 1_555 1_555
C5L C4L 1_555 1_555
C6M C5M 1_555 1_555
C6B C5B 1_555 1_555
C6L C5L 1_555 1_555
H3M C6M 1_555 1_555
H3B C6B 1_555 1_555
H3L C6L 1_555 1_555
C7M C2M 1_555 1_555
C7B C2B 1_555 1_555
C7L C2L 1_555 1_555
H4M C7M 1_555 1_555
H4B C7B 1_555 1_555
H4L C7L 1_555 1_555
C8M C5M 1_555 1_555
C8B C5B 1_555 1_555
C8L C5L 1_555 1_555
H5M C8M 1_555 1_555
H5B C8B 1_555 1_555
H5L C8L 1_555 1_555
H6M C8M 1_555 1_555
H6B C8B 1_555 1_555
H6L C8L 1_555 1_555
C9M N2M 1_555 1_555
C9B N2B 1_555 1_555
C9L N2L 1_555 1_555
H7M C9M 1_555 1_555
H7B C9B 1_555 1_555
H7L C9L 1_555 1_555
C10M C9M 1_555 1_555
C10B C9B 1_555 1_555
C10L C9L 1_555 1_555
H8M C10M 1_555 1_555
H8B C10B 1_555 1_555
H8L C10L 1_555 1_555
C11M C11 1_555 1_555
C11B C10B 1_555 1_555
C11L C10L 1_555 1_555
C12M C11M 1_555 1_555
C12B C11B 1_555 1_555
C12L C11L 1_555 1_555
H9M C12M 1_555 1_555
H9B C12B 1_555 1_555
H9L C12L 1_555 1_555
C13M N2M 1_555 1_555
C13B N2B 1_555 1_555
C13L N2L 1_555 1_555
H10M C13M 1_555 1_555
H10B C13B 1_555 1_555
H10L C13L 1_555 1_555
N1 O3B 1_555 1_555
C6 C7 1_555 1_555
C12 C13 1_555 1_555
O2B C1B 1_555 1_555
O3L N1L 1_555 1_555
C6M C7M 1_555 1_555
C6B C7B 1_555 1_555
C6L C7L 1_555 1_555
C10M C11M 1_555 1_555
C11B C11L 1_555 1_555
C12M C13M 1_555 1_555
C12B C13B 1_555 1_555
C12L C13L 1_555 1_555

#END
