
#######################################################################
#
#                 Cambridge Crystallographic Data Centre
#                                CCDC 
#
#######################################################################
#
# If this CIF has been generated from an entry in the Cambridge 
# Structural Database, then it will include bibliographic, chemical, 
# crystal, experimental, refinement or atomic coordinate data resulting 
# from the CCDC's data processing and validation procedures.
#
#######################################################################

data_QULLUE01
_symmetry_cell_setting           triclinic
_symmetry_space_group_name_H-M   'P -1'
_symmetry_Int_Tables_number      2
_space_group_name_Hall           '-P 1'
loop_
_symmetry_equiv_pos_site_id
_symmetry_equiv_pos_as_xyz
1 x,y,z
2 -x,-y,-z
_cell_length_a                   7.534(1)
_cell_length_b                   8.505(1)
_cell_length_c                   10.257(1)
_cell_angle_alpha                69.47(1)
_cell_angle_beta                 72.69(1)
_cell_angle_gamma                86.00(1)
_cell_volume                     587.176
loop_
_atom_site_label
_atom_site_type_symbol
_atom_site_fract_x
_atom_site_fract_y
_atom_site_fract_z
Ag1 Ag -0.3346(1) 0.5628(1) 0.8100(1)
O1 O 0.3501(3) 0.3680(3) 0.8901(3)
O2 O -0.2443(4) 0.2142(3) 0.9579(3)
N1 N -0.0331(4) 0.5831(3) 0.8075(3)
N2 N 0.0571(4) 0.4374(3) 0.8575(3)
N3 N 0.2520(3) 0.6398(3) 0.7944(3)
N4 N 0.4137(4) 0.7258(3) 0.7766(3)
N5 N -0.2943(5) -0.0751(4) 0.8012(4)
N6 N -0.2784(4) -0.0330(3) 0.9156(3)
N7 N -0.2758(4) 0.1974(3) 0.7438(3)
N8 N -0.2701(5) 0.3705(4) 0.6653(3)
C1 C 0.2329(4) 0.4670(4) 0.8524(3)
C2 C 0.0876(4) 0.7025(4) 0.7717(4)
C3 C -0.2650(4) 0.1340(4) 0.8833(3)
C4 C -0.2902(5) 0.0664(5) 0.6996(4)
N4_2 N -0.5863(4) 0.7258(3) 0.7766(3)
Ag1_2 Ag 0.6654(1) 0.5628(1) 0.8100(1)
Cl1 Cl 0.7458(1) 0.7985(1) 0.3982(1)
O3 O 0.8122(8) 0.8798(5) 0.2452(4)
O4 O 0.5964(8) 0.6839(6) 0.4426(5)
O5 O 0.6766(1) 0.9232(6) 0.4571(5)
O6 O 0.8817(6) 0.7127(9) 0.4551(8)
loop_
_geom_bond_atom_site_label_1
_geom_bond_atom_site_label_2
_geom_bond_site_symmetry_1
_geom_bond_site_symmetry_2
Ag1 N1 1_555 1_555
Cl1 O3 1_555 1_555
O1 C1 1_555 1_555
O2 C3 1_555 1_555
O4 Cl1 1_555 1_555
O5 Cl1 1_555 1_555
O6 Cl1 1_555 1_555
N1 N2 1_555 1_555
N2 C1 1_555 1_555
N3 N4 1_555 1_555
N4 Ag1_2 1_555 1_555
N5 N6 1_555 1_555
N6 C3 1_555 1_555
N7 N8 1_555 1_555
N8 Ag1 1_555 1_555
C1 N3 1_555 1_555
C2 N1 1_555 1_555
C3 N7 1_555 1_555
C4 N5 1_555 1_555
N4_2 Ag1 1_555 1_555
N3 C2 1_555 1_555
N7 C4 1_555 1_555

#END
