
#######################################################################
#
#                 Cambridge Crystallographic Data Centre
#                                CCDC 
#
#######################################################################
#
# If this CIF has been generated from an entry in the Cambridge 
# Structural Database, then it will include bibliographic, chemical, 
# crystal, experimental, refinement or atomic coordinate data resulting 
# from the CCDC's data processing and validation procedures.
#
#######################################################################

data_QULLIT
_symmetry_cell_setting           monoclinic
_symmetry_space_group_name_H-M   'P 21/c'
_symmetry_Int_Tables_number      14
_space_group_name_Hall           '-P 2ybc'
loop_
_symmetry_equiv_pos_site_id
_symmetry_equiv_pos_as_xyz
1 x,y,z
2 -x,1/2+y,1/2-z
3 -x,-y,-z
4 x,1/2-y,1/2+z
_cell_length_a                   7.940(2)
_cell_length_b                   26.509(8)
_cell_length_c                   16.793(5)
_cell_angle_alpha                90
_cell_angle_beta                 93.806(4)
_cell_angle_gamma                90
_cell_volume                     3526.82
loop_
_atom_site_label
_atom_site_type_symbol
_atom_site_fract_x
_atom_site_fract_y
_atom_site_fract_z
Zn1 Zn 0.29954(7) 0.56700(3) 0.30883(4)
O1 O 0.3442(5) 0.5683(2) 0.1804(3)
O2 O 0.5456(5) 0.56646(15) 0.2761(2)
O3 O 2.2752(6) 0.8475(2) -0.1645(4)
O4 O 2.0679(5) 0.90008(17) -0.1906(2)
O5 O 0.9718(5) 0.5853(2) -0.0314(2)
O6 O 1.6598(5) 0.69597(18) -0.1583(4)
N1 N 0.2168(6) 0.49109(18) 0.3059(3)
N2 N 0.3161(6) 0.5484(2) 0.4312(3)
C1 C 0.1700(9) 0.4629(3) 0.2430(4)
H1 H 0.1786 0.4763 0.1923
C2 C 0.1088(11) 0.4139(4) 0.2496(7)
H2 H 0.0812 0.3946 0.2044
C3 C 0.0904(12) 0.3953(3) 0.3234(8)
H3 H 0.0470 0.3630 0.3288
C4 C 0.1352(11) 0.4236(3) 0.3918(6)
C5 C 0.1152(14) 0.4074(4) 0.4717(8)
H4 H 0.0687 0.3759 0.4804
C6 C 0.1619(15) 0.4367(4) 0.5344(7)
H5 H 0.1474 0.4250 0.5857
C7 C 0.2315(10) 0.4841(4) 0.5241(5)
C8 C 0.2861(14) 0.5166(5) 0.5869(5)
H6 H 0.2761 0.5066 0.6394
C9 C 0.3535(14) 0.5628(4) 0.5714(6)
H7 H 0.3919 0.5837 0.6133
C10 C 0.3645(10) 0.5785(3) 0.4928(4)
H8 H 0.4064 0.6105 0.4828
C11 C 0.2514(7) 0.5021(3) 0.4462(3)
C12 C 0.1999(7) 0.4716(2) 0.3798(4)
C13 C 0.4993(7) 0.5682(2) 0.2023(4)
C14 C 0.6274(7) 0.5714(3) 0.1424(3)
C15 C 0.5786(8) 0.5720(3) 0.0615(4)
H9 H 0.4647 0.5699 0.0451
C16 C 0.6977(8) 0.5758(4) 0.0047(4)
H10 H 0.6641 0.5752 -0.0494
C17 C 0.8640(7) 0.5803(3) 0.0292(4)
C18 C 0.9160(6) 0.5774(2) 0.1098(3)
H11 H 1.0302 0.5783 0.1262
C19 C 0.7966(6) 0.57323(19) 0.1647(3)
H12 H 0.8313 0.5716 0.2186
C20 C 1.1446(6) 0.5880(3) -0.0080(4)
H13 H 1.1817 0.5566 0.0171
H14 H 1.1652 0.6151 0.0302
C21 C 1.2406(6) 0.5975(2) -0.0805(3)
C22 C 1.3090(6) 0.6441(2) -0.0938(3)
H15 H 1.2898 0.6703 -0.0587
C23 C 1.4044(6) 0.6532(2) -0.1573(4)
C24 C 1.4336(8) 0.6134(3) -0.2087(4)
H16 H 1.4979 0.6187 -0.2522
C25 C 1.3696(9) 0.5675(3) -0.1957(4)
H17 H 1.3922 0.5410 -0.2298
C26 C 1.2703(8) 0.5589(2) -0.1322(4)
H18 H 1.2240 0.5272 -0.1247
C27 C 1.4854(8) 0.7033(3) -0.1697(5)
H19 H 1.4562 0.7156 -0.2233
H20 H 1.4477 0.7278 -0.1318
C28 C 1.7622(8) 0.7374(3) -0.1619(6)
C29 C 1.7057(7) 0.7865(2) -0.1723(5)
H21 H 1.5909 0.7939 -0.1761
C30 C 1.8252(7) 0.8246(2) -0.1770(4)
H22 H 1.7888 0.8575 -0.1862
C31 C 1.9945(7) 0.8150(2) -0.1685(5)
C32 C 2.0484(9) 0.7663(3) -0.1547(8)
H23 H 2.1631 0.7595 -0.1463
C33 C 1.9314(9) 0.7269(3) -0.1533(8)
H24 H 1.9683 0.6938 -0.1467
C34 C 2.1211(8) 0.8564(3) -0.1751(4)
Zn1C Zn 2.29954(7) 0.93300(3) -0.19117(4)
O3C O 0.2752(6) 0.6525(2) 0.3355(4)
O4C O 0.0679(5) 0.59992(17) 0.3094(2)
C35 C 0.336(3) 0.7425(4) 0.0858(7)
C36 C 0.412(3) 0.7813(5) 0.0455(9)
C37 C 0.587(3) 0.7843(5) 0.0460(10)
C38 C 0.686(3) 0.7484(4) 0.0869(8)
C39 C 0.611(3) 0.7095(5) 0.1272(9)
C40 C 0.436(3) 0.7065(5) 0.1266(9)
C41 C 0.151(3) 0.7393(5) 0.0846(8)
O7 O 0.075(3) 0.7066(6) 0.1180(10)
O8 O 0.075(3) 0.7753(6) 0.0439(11)
H25 H -0.0274 0.7722 0.0458
O9 O 0.867(3) 0.7517(6) 0.0885(10)
H26 H 0.9083 0.7249 0.1043
loop_
_geom_bond_atom_site_label_1
_geom_bond_atom_site_label_2
_geom_bond_site_symmetry_1
_geom_bond_site_symmetry_2
Zn1 O1 1_555 1_555
O1 C13 1_555 1_555
O2 Zn1 1_555 1_555
O3 C34 1_555 1_555
O4 C34 1_555 1_555
O5 C17 1_555 1_555
O6 C27 1_555 1_555
N1 Zn1 1_555 1_555
N2 Zn1 1_555 1_555
C1 N1 1_555 1_555
H1 C1 1_555 1_555
C2 C1 1_555 1_555
H2 C2 1_555 1_555
C3 C2 1_555 1_555
H3 C3 1_555 1_555
C4 C3 1_555 1_555
C5 C4 1_555 1_555
H4 C5 1_555 1_555
C6 C5 1_555 1_555
H5 C6 1_555 1_555
C7 C6 1_555 1_555
C8 C7 1_555 1_555
H6 C8 1_555 1_555
C9 C8 1_555 1_555
H7 C9 1_555 1_555
C10 N2 1_555 1_555
H8 C10 1_555 1_555
C11 N2 1_555 1_555
C12 N1 1_555 1_555
C13 O2 1_555 1_555
C14 C13 1_555 1_555
C15 C14 1_555 1_555
H9 C15 1_555 1_555
C16 C15 1_555 1_555
H10 C16 1_555 1_555
C17 C16 1_555 1_555
C18 C17 1_555 1_555
H11 C18 1_555 1_555
C19 C14 1_555 1_555
H12 C19 1_555 1_555
C20 O5 1_555 1_555
H13 C20 1_555 1_555
H14 C20 1_555 1_555
C21 C20 1_555 1_555
C22 C21 1_555 1_555
H15 C22 1_555 1_555
C23 C22 1_555 1_555
C24 C23 1_555 1_555
H16 C24 1_555 1_555
C25 C24 1_555 1_555
H17 C25 1_555 1_555
C26 C21 1_555 1_555
H18 C26 1_555 1_555
C27 C23 1_555 1_555
H19 C27 1_555 1_555
H20 C27 1_555 1_555
C28 O6 1_555 1_555
C29 C28 1_555 1_555
H21 C29 1_555 1_555
C30 C29 1_555 1_555
H22 C30 1_555 1_555
C31 C30 1_555 1_555
C32 C31 1_555 1_555
H23 C32 1_555 1_555
C33 C28 1_555 1_555
H24 C33 1_555 1_555
C34 C31 1_555 1_555
C35 C36 1_555 1_555
C36 C37 1_555 1_555
C37 C38 1_555 1_555
C38 C39 1_555 1_555
C39 C40 1_555 1_555
C40 C35 1_555 1_555
C41 C35 1_555 1_555
O7 C41 1_555 1_555
O8 C41 1_555 1_555
H25 O8 1_555 1_555
O9 C38 1_555 1_555
H26 O9 1_555 1_555
Zn1C O3 1_555 1_555
O3C Zn1 1_555 1_555
O4C Zn1 1_555 1_555
O4 Zn1C 1_555 1_555
C4 C12 1_555 1_555
C7 C11 1_555 1_555
C9 C10 1_555 1_555
C11 C12 1_555 1_555
C18 C19 1_555 1_555
C25 C26 1_555 1_555
C32 C33 1_555 1_555

#END
