
#######################################################################
#
#                 Cambridge Crystallographic Data Centre
#                                CCDC 
#
#######################################################################
#
# If this CIF has been generated from an entry in the Cambridge 
# Structural Database, then it will include bibliographic, chemical, 
# crystal, experimental, refinement or atomic coordinate data resulting 
# from the CCDC's data processing and validation procedures.
#
#######################################################################

data_QULNES
_symmetry_cell_setting           monoclinic
_symmetry_space_group_name_H-M   'C c'
_symmetry_Int_Tables_number      9
_space_group_name_Hall           'C -2yc'
loop_
_symmetry_equiv_pos_site_id
_symmetry_equiv_pos_as_xyz
1 x,y,z
2 x,-y,1/2+z
3 1/2+x,1/2+y,z
4 1/2+x,1/2-y,1/2+z
_cell_length_a                   12.017(5)
_cell_length_b                   17.895(7)
_cell_length_c                   6.588(3)
_cell_angle_alpha                90
_cell_angle_beta                 105.113(5)
_cell_angle_gamma                90
_cell_volume                     1367.71
loop_
_atom_site_label
_atom_site_type_symbol
_atom_site_fract_x
_atom_site_fract_y
_atom_site_fract_z
C1 C 0.6618(4) 0.8738(3) 0.2931(8)
C2 C 0.8019(5) 0.7684(3) 0.4311(9)
H1 H 0.7994 0.7843 0.5705
H2 H 0.8772 0.7811 0.4129
C3 C 0.7847(5) 0.6829(3) 0.4118(10)
H3 H 0.7748 0.6686 0.2662
H4 H 0.8538 0.6586 0.4945
C4 C 0.7159(6) 0.6452(4) 0.7146(10)
H5 H 0.7452 0.6915 0.7812
H6 H 0.7740 0.6073 0.7538
H7 H 0.6490 0.6306 0.7588
C5 C 0.6397(7) 0.5838(4) 0.3743(12)
H8 H 0.6203 0.5912 0.2248
H9 H 0.5724 0.5684 0.4158
H10 H 0.6980 0.5459 0.4126
Cl1 Cl 0.47225(13) 0.75593(9) 0.4380(2)
Cl2 Cl 0.40101(12) 1.04681(8) 0.1613(2)
Cl3 Cl 0.93232(13) 1.06072(9) 0.8059(2)
Cu1 Cu 0.54229(8) 0.84780(5) 0.66179(11)
Cu2 Cu 0.52773(7) 1.00825(4) 0.48069(11)
Cu3 Cu 0.84652(7) 0.98060(5) 0.55886(12)
N1 N 0.7128(4) 0.8080(2) 0.2733(7)
N2 N 0.6797(4) 0.7851(2) 0.0713(7)
N3 N 0.6091(4) 0.8361(2) -0.0276(7)
N4 N 0.5959(4) 0.8927(2) 0.1042(6)
N5 N 0.6842(4) 0.6550(3) 0.4823(7)
H11 H 0.6271 0.6898 0.4477
S1 S 0.67653(12) 0.92294(8) 0.5255(2)
Cl2A Cl 0.40101(12) 0.95319(8) 0.6613(2)
Cl3A Cl 0.93232(13) 0.93928(9) 0.3059(2)
Cu1_2 Cu 0.54229(8) 0.84780(5) -0.33821(11)
Cu1A Cu 0.54229(8) 1.15220(5) 0.16179(11)
Cu2A Cu 0.52773(7) 0.99175(4) -0.01931(11)
Cu3A Cu 0.84652(7) 1.01940(5) 1.05886(12)
N3_2 N 0.6091(4) 0.8361(2) 0.9724(7)
N4A N 0.5959(4) 1.1073(2) 0.6042(6)
loop_
_geom_bond_atom_site_label_1
_geom_bond_atom_site_label_2
_geom_bond_site_symmetry_1
_geom_bond_site_symmetry_2
C1 N1 1_555 1_555
C2 H1 1_555 1_555
H2 C2 1_555 1_555
C3 C2 1_555 1_555
H3 C3 1_555 1_555
H4 C3 1_555 1_555
C4 H5 1_555 1_555
H6 C4 1_555 1_555
H7 C4 1_555 1_555
C5 H8 1_555 1_555
H9 C5 1_555 1_555
H10 C5 1_555 1_555
Cl1 Cu1 1_555 1_555
Cl2 Cu2 1_555 1_555
Cl3 Cu3 1_555 1_555
Cu1 S1 1_555 1_555
Cu2 S1 1_555 1_555
Cu3 S1 1_555 1_555
N1 C2 1_555 1_555
N2 N1 1_555 1_555
N3 N2 1_555 1_555
N4 C1 1_555 1_555
N5 C3 1_555 1_555
H11 N5 1_555 1_555
S1 C1 1_555 1_555
Cl2A Cu1 1_555 1_555
Cl3A Cu3 1_555 1_555
Cu1_2 N3 1_555 1_555
Cu1A Cl2 1_555 1_555
Cu2A Cl2 1_555 1_555
Cu3A Cl3 1_555 1_555
N3_2 Cu1 1_555 1_555
N4A Cu2 1_555 1_555
C4 N5 1_555 1_555
C5 N5 1_555 1_555
Cu2 Cl2A 1_555 1_555
N3 N4 1_555 1_555
N4 Cu2A 1_555 1_555

#END
