
#######################################################################
#
#                 Cambridge Crystallographic Data Centre
#                                CCDC 
#
#######################################################################
#
# If this CIF has been generated from an entry in the Cambridge 
# Structural Database, then it will include bibliographic, chemical, 
# crystal, experimental, refinement or atomic coordinate data resulting 
# from the CCDC's data processing and validation procedures.
#
#######################################################################

data_QULTUO
_symmetry_cell_setting           triclinic
_symmetry_space_group_name_H-M   'P -1'
_symmetry_Int_Tables_number      2
_space_group_name_Hall           '-P 1'
loop_
_symmetry_equiv_pos_site_id
_symmetry_equiv_pos_as_xyz
1 x,y,z
2 -x,-y,-z
_cell_length_a                   9.029(3)
_cell_length_b                   10.244(4)
_cell_length_c                   10.648(4)
_cell_angle_alpha                101.310(4)
_cell_angle_beta                 106.316(5)
_cell_angle_gamma                92.743(5)
_cell_volume                     921.284
loop_
_atom_site_label
_atom_site_type_symbol
_atom_site_fract_x
_atom_site_fract_y
_atom_site_fract_z
Cd1 Cd 0.12103(2) 0.459498(19) 0.678019(18)
O1 O 0.2023(3) 0.2339(2) 0.5843(2)
O2 O 0.3158(3) 0.4285(2) 0.5875(2)
O3 O 0.8948(3) 0.3557(2) 0.4208(2)
O4 O 0.8777(3) 0.3669(2) 0.6253(2)
O5 O 0.4415(3) -0.1540(2) 0.2451(3)
O6 O 0.3778(4) -0.0321(3) 0.1010(3)
N1 N 0.2544(3) 0.4293(3) 0.8924(2)
N2 N 0.0693(3) 0.6208(3) 0.8459(3)
N3 N 0.4290(3) -0.0469(3) 0.2150(3)
C1 C -0.0301(4) 0.7107(4) 0.8160(3)
H1 H -0.0711 0.7150 0.7266
C2 C -0.0741(4) 0.7970(3) 0.9118(4)
H2 H -0.1438 0.8583 0.8879
C3 C -0.0129(4) 0.7907(3) 1.0433(4)
H3 H -0.0405 0.8482 1.1101
C4 C 0.0899(4) 0.6989(3) 1.0763(3)
H4 H 0.1325 0.6936 1.1652
C5 C 0.1286(3) 0.6147(3) 0.9745(3)
C6 C 0.2369(3) 0.5114(3) 1.0007(3)
C7 C 0.3129(4) 0.4993(3) 1.1285(3)
H5 H 0.2972 0.5561 1.2022
C8 C 0.4122(4) 0.4026(4) 1.1465(4)
H6 H 0.4661 0.3941 1.2323
C9 C 0.4309(4) 0.3185(4) 1.0356(4)
H7 H 0.4964 0.2514 1.0448
C10 C 0.3511(4) 0.3358(4) 0.9120(3)
H8 H 0.3648 0.2793 0.8372
C11 C 0.4054(3) 0.2392(3) 0.4797(3)
C12 C 0.5505(3) 0.3067(3) 0.5066(3)
H9 H 0.5747 0.3895 0.5664
C13 C 0.6626(3) 0.2569(3) 0.4486(3)
C14 C 0.6233(4) 0.1391(3) 0.3494(3)
C15 C 0.4751(4) 0.0758(3) 0.3228(3)
C16 C 0.3644(3) 0.1160(3) 0.3872(3)
C17 C 0.2986(3) 0.3022(3) 0.5548(3)
C18 C 0.8226(3) 0.3326(3) 0.5000(3)
C19 C 0.7360(4) 0.0789(4) 0.2791(4)
H10 H 0.6859 -0.0016 0.2149
H11 H 0.8245 0.0584 0.3438
H12 H 0.7692 0.1418 0.2338
C20 C 0.2148(4) 0.0297(3) 0.3590(3)
H13 H 0.1336 0.0855 0.3654
H14 H 0.2261 -0.0259 0.4233
H15 H 0.1888 -0.0257 0.2704
Cd1_2 Cd 1.12103(2) 0.459498(19) 0.678019(18)
Cd1A Cd 0.87897(2) 0.540502(19) 0.321981(18)
O3A O 0.1052(3) 0.6443(2) 0.5792(2)
O4_2 O -0.1223(3) 0.3669(2) 0.6253(2)
loop_
_geom_bond_atom_site_label_1
_geom_bond_atom_site_label_2
_geom_bond_site_symmetry_1
_geom_bond_site_symmetry_2
Cd1 O1 1_555 1_555
O1 C17 1_555 1_555
O2 Cd1 1_555 1_555
O3 C18 1_555 1_555
O4 C18 1_555 1_555
O5 N3 1_555 1_555
O6 N3 1_555 1_555
N1 Cd1 1_555 1_555
N2 Cd1 1_555 1_555
N3 C15 1_555 1_555
C1 N2 1_555 1_555
H1 C1 1_555 1_555
C2 C1 1_555 1_555
H2 C2 1_555 1_555
C3 C2 1_555 1_555
H3 C3 1_555 1_555
C4 C3 1_555 1_555
H4 C4 1_555 1_555
C5 N2 1_555 1_555
C6 N1 1_555 1_555
C7 C6 1_555 1_555
H5 C7 1_555 1_555
C8 C7 1_555 1_555
H6 C8 1_555 1_555
C9 C8 1_555 1_555
H7 C9 1_555 1_555
C10 N1 1_555 1_555
H8 C10 1_555 1_555
C11 C12 1_555 1_555
C12 H9 1_555 1_555
C13 C12 1_555 1_555
C14 C13 1_555 1_555
C15 C14 1_555 1_555
C16 C11 1_555 1_555
C17 O2 1_555 1_555
C18 C13 1_555 1_555
C19 C14 1_555 1_555
H10 C19 1_555 1_555
H11 C19 1_555 1_555
H12 C19 1_555 1_555
C20 C16 1_555 1_555
H13 C20 1_555 1_555
H14 C20 1_555 1_555
H15 C20 1_555 1_555
Cd1_2 O4 1_555 1_555
Cd1A O3 1_555 1_555
O3A Cd1 1_555 1_555
O4_2 Cd1 1_555 1_555
C4 C5 1_555 1_555
C5 C6 1_555 1_555
C9 C10 1_555 1_555
C11 C17 1_555 1_555
C15 C16 1_555 1_555

#END
