
#######################################################################
#
#                 Cambridge Crystallographic Data Centre
#                                CCDC 
#
#######################################################################
#
# If this CIF has been generated from an entry in the Cambridge 
# Structural Database, then it will include bibliographic, chemical, 
# crystal, experimental, refinement or atomic coordinate data resulting 
# from the CCDC's data processing and validation procedures.
#
#######################################################################

data_QULVIE
_symmetry_cell_setting           triclinic
_symmetry_space_group_name_H-M   'P -1'
_symmetry_Int_Tables_number      2
_space_group_name_Hall           '-P 1'
loop_
_symmetry_equiv_pos_site_id
_symmetry_equiv_pos_as_xyz
1 x,y,z
2 -x,-y,-z
_cell_length_a                   8.2743(9)
_cell_length_b                   10.1309(11)
_cell_length_c                   12.7343(14)
_cell_angle_alpha                74.974(2)
_cell_angle_beta                 72.363(2)
_cell_angle_gamma                75.181(2)
_cell_volume                     964.124
loop_
_atom_site_label
_atom_site_type_symbol
_atom_site_fract_x
_atom_site_fract_y
_atom_site_fract_z
Cd1 Cd 0.70533(3) -0.12538(2) 0.48123(2)
C1 C 0.6633(5) 0.1166(3) 0.5639(3)
C2 C 0.6320(4) 0.2239(3) 0.6341(3)
C3 C 0.6552(5) 0.3579(3) 0.5799(3)
H1 H 0.6947 0.3768 0.5020
C4 C 0.6215(5) 0.4654(3) 0.6378(3)
C5 C 0.5651(5) 0.4386(4) 0.7550(3)
C6 C 0.5473(5) 0.3019(4) 0.8056(3)
C7 C 0.5789(5) 0.1913(4) 0.7512(3)
C8 C 0.6466(5) 0.6090(4) 0.5699(3)
C9 C 0.5280(7) 0.5468(5) 0.8259(4)
H2 H 0.4905 0.5053 0.9039
H3 H 0.4388 0.6221 0.8052
H4 H 0.6310 0.5817 0.8138
C10 C 0.5631(7) 0.0460(4) 0.8176(4)
H5 H 0.5241 0.0478 0.8964
H6 H 0.6737 -0.0150 0.8027
H7 H 0.4815 0.0128 0.7960
C11 C 0.9304(9) -0.1723(5) 0.2397(4)
H8 H 0.9498 -0.2638 0.2787
C12 C 0.9924(9) -0.1463(5) 0.1238(4)
H9 H 1.0511 -0.2202 0.0876
C13 C 0.9693(5) -0.0162(4) 0.0626(3)
C14 C 0.8810(8) 0.0854(5) 0.1240(4)
H10 H 0.8602 0.1778 0.0873
C15 C 0.8230(8) 0.0518(5) 0.2394(4)
H11 H 0.7643 0.1231 0.2783
N1 N 0.4856(6) 0.2699(4) 0.9306(3)
N2 N 0.8470(4) -0.0762(3) 0.2966(3)
O1 O 0.7957(3) 0.1035(3) 0.4852(2)
O2 O 0.9027(4) -0.1957(3) 0.5833(3)
H12 H 0.9354 -0.2836 0.5923
H13 H 0.9890 -0.1566 0.5495
O3 O 0.5503(3) 0.0408(2) 0.5887(2)
O4 O 0.7595(4) 0.6191(3) 0.4783(2)
O5 O 0.5545(4) 0.7127(2) 0.6075(2)
O6 O 0.3333(6) 0.2716(5) 0.9690(3)
O7 O 0.5868(6) 0.2441(5) 0.9859(3)
C11A C 1.0696(9) 0.1723(5) -0.2397(4)
H8A H 1.0502 0.2638 -0.2787
C12A C 1.0076(9) 0.1463(5) -0.1238(4)
H9A H 0.9489 0.2202 -0.0876
C13A C 1.0307(5) 0.0162(4) -0.0626(3)
C14A C 1.1190(8) -0.0854(5) -0.1240(4)
H10A H 1.1398 -0.1778 -0.0873
C15A C 1.1770(8) -0.0518(5) -0.2394(4)
H11A H 1.2357 -0.1231 -0.2783
N2A N 1.1530(4) 0.0762(3) -0.2966(3)
Cd1A Cd 0.29467(3) 0.12538(2) 0.51877(2)
C1A C 0.3367(5) -0.1166(3) 0.4361(3)
C2A C 0.3680(4) -0.2239(3) 0.3659(3)
C3A C 0.3448(5) -0.3579(3) 0.4201(3)
H1A H 0.3053 -0.3768 0.4980
C4A C 0.3785(5) -0.4654(3) 0.3622(3)
C5A C 0.4349(5) -0.4386(4) 0.2450(3)
C6A C 0.4527(5) -0.3019(4) 0.1944(3)
C7A C 0.4211(5) -0.1913(4) 0.2488(3)
C8A C 0.3534(5) -0.6090(4) 0.4301(3)
C9A C 0.4720(7) -0.5468(5) 0.1741(4)
H2A H 0.5095 -0.5053 0.0961
H3A H 0.5612 -0.6221 0.1948
H4A H 0.3690 -0.5817 0.1862
C10A C 0.4369(7) -0.0460(4) 0.1824(4)
H5A H 0.4759 -0.0478 0.1036
H6A H 0.3263 0.0150 0.1973
H7A H 0.5185 -0.0128 0.2040
N1A N 0.5144(6) -0.2699(4) 0.0694(3)
O1A O 0.2043(3) -0.1035(3) 0.5148(2)
O2A O 0.0973(4) 0.1957(3) 0.4167(3)
H12A H 0.0646 0.2836 0.4077
H13A H 0.0110 0.1566 0.4505
O3A O 0.4497(3) -0.0408(2) 0.4113(2)
O4A O 0.2405(4) -0.6191(3) 0.5217(2)
O5A O 0.4455(4) -0.7127(2) 0.3925(2)
O6A O 0.6667(6) -0.2716(5) 0.0310(3)
O7A O 0.4132(6) -0.2441(5) 0.0141(3)
Cd1_2 Cd 0.70533(3) 0.87462(2) 0.48123(2)
Cd1A_2 Cd 0.29467(3) -0.87462(2) 0.51877(2)
Cd1A_3 Cd 1.29467(3) 0.12538(2) -0.48123(2)
N2A_2 N 0.1530(4) 0.0762(3) 0.7034(3)
O4_2 O 0.7595(4) -0.3809(3) 0.4783(2)
O4A_2 O 0.2405(4) 0.3809(3) 0.5217(2)
O5_2 O 0.5545(4) -0.2873(2) 0.6075(2)
O5A_2 O 0.4455(4) 0.2873(2) 0.3925(2)
C16 C 1.1126(8) -0.4659(7) 0.7418(5)
H14 H 1.1900 -0.4007 0.7043
H15 H 1.1824 -0.5579 0.7578
C17 C 1.0042(10) -0.4268(9) 0.8458(6)
H16 H 1.0753 -0.4261 0.8928
H17 H 0.9297 -0.4927 0.8839
H18 H 0.9354 -0.3357 0.8300
O8 O 1.0102(4) -0.4663(3) 0.6698(3)
H19 H 1.0687 -0.5108 0.6211
loop_
_geom_bond_atom_site_label_1
_geom_bond_atom_site_label_2
_geom_bond_site_symmetry_1
_geom_bond_site_symmetry_2
Cd1 N2 1_555 1_555
C1 C2 1_555 1_555
C2 C3 1_555 1_555
C3 H1 1_555 1_555
C4 C3 1_555 1_555
C5 C4 1_555 1_555
C6 C5 1_555 1_555
C7 C2 1_555 1_555
C8 C4 1_555 1_555
C9 C5 1_555 1_555
H2 C9 1_555 1_555
H3 C9 1_555 1_555
H4 C9 1_555 1_555
C10 C7 1_555 1_555
H5 C10 1_555 1_555
H6 C10 1_555 1_555
H7 C10 1_555 1_555
C11 H8 1_555 1_555
C12 C11 1_555 1_555
H9 C12 1_555 1_555
C13 C12 1_555 1_555
C14 C13 1_555 1_555
H10 C14 1_555 1_555
C15 C14 1_555 1_555
H11 C15 1_555 1_555
N1 C6 1_555 1_555
N2 C11 1_555 1_555
O1 Cd1 1_555 1_555
O2 Cd1 1_555 1_555
H12 O2 1_555 1_555
H13 O2 1_555 1_555
O3 Cd1 1_555 1_555
O4 C8 1_555 1_555
O5 C8 1_555 1_555
O6 N1 1_555 1_555
O7 N1 1_555 1_555
C16 H14 1_555 1_555
H15 C16 1_555 1_555
C17 C16 1_555 1_555
H16 C17 1_555 1_555
H17 C17 1_555 1_555
H18 C17 1_555 1_555
O8 C16 1_555 1_555
H19 O8 1_555 1_555
C11A H8A 1_555 1_555
C12A C11A 1_555 1_555
H9A C12A 1_555 1_555
C13A C13 1_555 1_555
C14A C13A 1_555 1_555
H10A C14A 1_555 1_555
C15A C14A 1_555 1_555
H11A C15A 1_555 1_555
N2A C11A 1_555 1_555
Cd1A O3 1_555 1_555
C1A C2A 1_555 1_555
C2A C3A 1_555 1_555
C3A H1A 1_555 1_555
C4A C3A 1_555 1_555
C5A C4A 1_555 1_555
C6A C5A 1_555 1_555
C7A C2A 1_555 1_555
C8A C4A 1_555 1_555
C9A C5A 1_555 1_555
H2A C9A 1_555 1_555
H3A C9A 1_555 1_555
H4A C9A 1_555 1_555
C10A C7A 1_555 1_555
H5A C10A 1_555 1_555
H6A C10A 1_555 1_555
H7A C10A 1_555 1_555
N1A C6A 1_555 1_555
O1A Cd1A 1_555 1_555
O2A Cd1A 1_555 1_555
H12A O2A 1_555 1_555
H13A O2A 1_555 1_555
O3A Cd1 1_555 1_555
O4A C8A 1_555 1_555
O5A C8A 1_555 1_555
O6A N1A 1_555 1_555
O7A N1A 1_555 1_555
Cd1_2 O4 1_555 1_555
Cd1A_2 O4A 1_555 1_555
Cd1A_3 N2A 1_555 1_555
N2A_2 Cd1A 1_555 1_555
O4_2 Cd1 1_555 1_555
O4A_2 Cd1A 1_555 1_555
O5_2 Cd1 1_555 1_555
O5A_2 Cd1A 1_555 1_555
C1 O1 1_555 1_555
C1 O3 1_555 1_555
C6 C7 1_555 1_555
C15 N2 1_555 1_555
O5 Cd1_2 1_555 1_555
C12A C13A 1_555 1_555
C15A N2A 1_555 1_555
Cd1A O3A 1_555 1_555
C1A O1A 1_555 1_555
C1A O3A 1_555 1_555
C6A C7A 1_555 1_555
O5A Cd1A_2 1_555 1_555

#END
