
#######################################################################
#
#                 Cambridge Crystallographic Data Centre
#                                CCDC 
#
#######################################################################
#
# If this CIF has been generated from an entry in the Cambridge 
# Structural Database, then it will include bibliographic, chemical, 
# crystal, experimental, refinement or atomic coordinate data resulting 
# from the CCDC's data processing and validation procedures.
#
#######################################################################

data_QULVAW
_symmetry_cell_setting           monoclinic
_symmetry_space_group_name_H-M   'P 21/c'
_symmetry_Int_Tables_number      14
_space_group_name_Hall           '-P 2ybc'
loop_
_symmetry_equiv_pos_site_id
_symmetry_equiv_pos_as_xyz
1 x,y,z
2 -x,1/2+y,1/2-z
3 -x,-y,-z
4 x,1/2-y,1/2+z
_cell_length_a                   13.770(7)
_cell_length_b                   6.939(4)
_cell_length_c                   16.651(9)
_cell_angle_alpha                90
_cell_angle_beta                 106.350(7)
_cell_angle_gamma                90
_cell_volume                     1526.66
loop_
_atom_site_label
_atom_site_type_symbol
_atom_site_fract_x
_atom_site_fract_y
_atom_site_fract_z
Cd1 Cd 0.04377(2) 0.44629(6) 0.224080(17)
C1 C -0.0991(3) 0.4032(7) 0.3087(2)
C2 C -0.1697(3) 0.3932(6) 0.3624(2)
C3 C -0.2757(3) 0.4111(6) 0.3309(2)
N1 N -0.4423(3) 0.4144(7) 0.3583(2)
N2 N 0.2483(4) 0.3832(7) 0.0730(3)
H1 H 0.2580 0.3670 0.0246
C4 C -0.1266(3) 0.3639(7) 0.4475(2)
H2 H -0.0570 0.3454 0.4669
N3 N 0.1694(3) 0.4138(6) 0.1686(2)
C5 C -0.2890(3) 0.3792(7) 0.4762(3)
C6 C -0.3285(3) 0.4273(8) 0.2386(3)
H3 H -0.3428 0.5603 0.2242
H4 H -0.3906 0.3558 0.2257
H5 H -0.2855 0.3763 0.2073
C7 C 0.2726(4) 0.4275(8) 0.2061(4)
H6 H 0.3037 0.4471 0.2627
C8 C -0.3286(3) 0.4031(7) 0.3900(3)
C9 C -0.1824(3) 0.3613(7) 0.5043(2)
C10 C 0.3204(4) 0.4072(9) 0.1452(4)
H7 H 0.3899 0.4096 0.1525
C11 C 0.1586(4) 0.3887(8) 0.0891(3)
H8 H 0.0965 0.3762 0.0487
O1 O -0.4869(3) 0.2674(8) 0.3388(4)
C12 C -0.3558(3) 0.3668(9) 0.5336(3)
H9 H -0.3777 0.4937 0.5434
H10 H -0.3185 0.3104 0.5859
H11 H -0.4137 0.2882 0.5082
O2 O -0.4802(3) 0.5686(7) 0.3569(3)
O3 O -0.1084(2) 0.5340(5) 0.2541(2)
O4 O -0.1491(2) 0.4346(5) 0.64961(18)
O5 O -0.02665(19) 0.2803(5) 0.32138(17)
C13 C -0.1264(3) 0.3318(8) 0.5960(2)
O6 O -0.0588(2) 0.2040(6) 0.60964(18)
Cd1A Cd -0.04377(2) -0.05371(6) 0.275920(17)
Cd1B Cd -0.04377(2) 0.55371(6) 0.775920(17)
Cd1C Cd 0.04377(2) 0.05371(6) 0.724080(17)
O4B O 0.1491(2) 0.5654(5) 0.35039(18)
O5A O 0.02665(19) 0.7803(5) 0.17862(17)
O6C O -0.0588(2) 0.2960(6) 0.10964(18)
O7 O -0.2339(3) 0.8031(7) 0.5950(2)
H12 H -0.2072 0.8797 0.6350
H13 H -0.2065 0.6927 0.6055
loop_
_geom_bond_atom_site_label_1
_geom_bond_atom_site_label_2
_geom_bond_site_symmetry_1
_geom_bond_site_symmetry_2
Cd1 N3 1_555 1_555
C1 C2 1_555 1_555
C2 C3 1_555 1_555
C3 C6 1_555 1_555
N1 C8 1_555 1_555
N2 H1 1_555 1_555
C4 C2 1_555 1_555
H2 C4 1_555 1_555
N3 C7 1_555 1_555
C5 C8 1_555 1_555
C6 H3 1_555 1_555
H4 C6 1_555 1_555
H5 C6 1_555 1_555
C7 H6 1_555 1_555
C8 C3 1_555 1_555
C9 C4 1_555 1_555
C10 N2 1_555 1_555
H7 C10 1_555 1_555
C11 N2 1_555 1_555
H8 C11 1_555 1_555
O1 N1 1_555 1_555
C12 C5 1_555 1_555
H9 C12 1_555 1_555
H10 C12 1_555 1_555
H11 C12 1_555 1_555
O2 N1 1_555 1_555
O3 Cd1 1_555 1_555
O4 C13 1_555 1_555
O5 Cd1 1_555 1_555
C13 C9 1_555 1_555
O6 C13 1_555 1_555
O7 H12 1_555 1_555
H13 O7 1_555 1_555
Cd1A O5 1_555 1_555
Cd1B O4 1_555 1_555
Cd1C O6 1_555 1_555
O4B Cd1 1_555 1_555
O5A Cd1 1_555 1_555
O6C Cd1 1_555 1_555
C1 O3 1_555 1_555
C1 O5 1_555 1_555
N3 C11 1_555 1_555
C5 C9 1_555 1_555
C7 C10 1_555 1_555

#END
