
#######################################################################
#
#                 Cambridge Crystallographic Data Centre
#                                CCDC 
#
#######################################################################
#
# If this CIF has been generated from an entry in the Cambridge 
# Structural Database, then it will include bibliographic, chemical, 
# crystal, experimental, refinement or atomic coordinate data resulting 
# from the CCDC's data processing and validation procedures.
#
#######################################################################

data_QULXUR
_symmetry_cell_setting           orthorhombic
_symmetry_space_group_name_H-M   'P b a m'
_symmetry_Int_Tables_number      55
_space_group_name_Hall           '-P 2 2ab'
loop_
_symmetry_equiv_pos_site_id
_symmetry_equiv_pos_as_xyz
1 x,y,z
2 -x,-y,z
3 1/2-x,1/2+y,-z
4 1/2+x,1/2-y,-z
5 -x,-y,-z
6 x,y,-z
7 1/2+x,1/2-y,z
8 1/2-x,1/2+y,z
_cell_length_a                   27.022(5)
_cell_length_b                   28.597(5)
_cell_length_c                   11.116(2)
_cell_angle_alpha                90
_cell_angle_beta                 90
_cell_angle_gamma                90
_cell_volume                     8589.87
loop_
_atom_site_label
_atom_site_type_symbol
_atom_site_fract_x
_atom_site_fract_y
_atom_site_fract_z
Cu3 Cu 0.5000 0.5000 0.1631(5)
O3 O 0.5000 0.5000 0.336(3)
O4 O 0.5000 0.5000 0.0000
N5 N 0.5107(11) 0.4289(7) 0.165(2)
N6 N 0.534(2) 0.1868(13) 0.172(4)
C21 C 0.4719(10) 0.4013(8) 0.130(4)
H18 H 0.4428 0.4150 0.1025
C22 C 0.4756(8) 0.3536(8) 0.135(3)
H19 H 0.4483 0.3353 0.1155
C23 C 0.5190(9) 0.3324(7) 0.167(2)
C24 C 0.5590(10) 0.3603(10) 0.191(6)
H20 H 0.5890 0.3466 0.2125
C25 C 0.5554(11) 0.4080(10) 0.185(7)
H21 H 0.5836 0.4263 0.1947
C26 C 0.5250(12) 0.2844(14) 0.169(2)
C27 C 0.5692(16) 0.2637(18) 0.168(3)
H22 H 0.5976 0.2821 0.1669
C28 C 0.573(2) 0.219(2) 0.170(4)
H23 H 0.6053 0.2062 0.1701
C29 C 0.4882(17) 0.2068(15) 0.174(4)
H24 H 0.4602 0.1879 0.1783
C30 C 0.4832(15) 0.2527(12) 0.170(3)
H25 H 0.4515 0.2652 0.1675
Cu3D Cu 0.5000 0.5000 -0.1631(5)
O3D O 0.5000 0.5000 -0.336(3)
N5A N 0.4893(11) 0.5711(7) 0.165(2)
N5D N 0.4893(11) 0.5711(7) -0.165(2)
N5E N 0.5107(11) 0.4289(7) -0.165(2)
N6A N 0.466(2) 0.8132(13) 0.172(4)
N6D N 0.466(2) 0.8132(13) -0.172(4)
N6E N 0.534(2) 0.1868(13) -0.172(4)
C21A C 0.5281(10) 0.5987(8) 0.130(4)
C21D C 0.5281(10) 0.5987(8) -0.130(4)
C21E C 0.4719(10) 0.4013(8) -0.130(4)
H18A H 0.5572 0.5850 0.1025
H18D H 0.5572 0.5850 -0.1025
H18E H 0.4428 0.4150 -0.1025
C22A C 0.5244(8) 0.6464(8) 0.135(3)
C22D C 0.5244(8) 0.6464(8) -0.135(3)
C22E C 0.4756(8) 0.3536(8) -0.135(3)
H19A H 0.5517 0.6647 0.1155
H19D H 0.5517 0.6647 -0.1155
H19E H 0.4483 0.3353 -0.1155
C23A C 0.4810(9) 0.6676(7) 0.167(2)
C23D C 0.4810(9) 0.6676(7) -0.167(2)
C23E C 0.5190(9) 0.3324(7) -0.167(2)
C24A C 0.4410(10) 0.6397(10) 0.191(6)
C24D C 0.4410(10) 0.6397(10) -0.191(6)
C24E C 0.5590(10) 0.3603(10) -0.191(6)
H20A H 0.4110 0.6534 0.2125
H20D H 0.4110 0.6534 -0.2125
H20E H 0.5890 0.3466 -0.2125
C25A C 0.4446(11) 0.5920(10) 0.185(7)
C25D C 0.4446(11) 0.5920(10) -0.185(7)
C25E C 0.5554(11) 0.4080(10) -0.185(7)
H21A H 0.4164 0.5737 0.1947
H21D H 0.4164 0.5737 -0.1947
H21E H 0.5836 0.4263 -0.1947
C26A C 0.4750(12) 0.7156(14) 0.169(2)
C26D C 0.4750(12) 0.7156(14) -0.169(2)
C26E C 0.5250(12) 0.2844(14) -0.169(2)
C27A C 0.4308(16) 0.7363(18) 0.168(3)
C27D C 0.4308(16) 0.7363(18) -0.168(3)
C27E C 0.5692(16) 0.2637(18) -0.168(3)
H22A H 0.4024 0.7179 0.1669
H22D H 0.4024 0.7179 -0.1669
H22E H 0.5976 0.2821 -0.1669
C28A C 0.427(2) 0.781(2) 0.170(4)
C28D C 0.427(2) 0.781(2) -0.170(4)
C28E C 0.573(2) 0.219(2) -0.170(4)
H23A H 0.3947 0.7938 0.1701
H23D H 0.3947 0.7938 -0.1701
H23E H 0.6053 0.2062 -0.1701
C29A C 0.5118(17) 0.7932(15) 0.174(4)
C29D C 0.5118(17) 0.7932(15) -0.174(4)
C29E C 0.4882(17) 0.2068(15) -0.174(4)
H24A H 0.5398 0.8121 0.1783
H24D H 0.5398 0.8121 -0.1783
H24E H 0.4602 0.1879 -0.1783
C30A C 0.5168(15) 0.7473(12) 0.170(3)
C30D C 0.5168(15) 0.7473(12) -0.170(3)
C30E C 0.4832(15) 0.2527(12) -0.170(3)
H25A H 0.5485 0.7348 0.1675
H25D H 0.5485 0.7348 -0.1675
H25E H 0.4515 0.2652 -0.1675
O5 O 0.1693(16) 0.0387(15) 0.0000
O6 O 0.2336(19) -0.2011(15) 1.0000
O7 O 0.2101(11) -0.0771(10) 1.0000
W1 W 0.31727(4) 0.54043(3) 0.5000
W2E W 0.34197(3) 0.34901(3) 0.27454(7)
W2 W 0.34197(3) 0.34901(3) 0.72546(7)
W3 W 0.26648(4) 0.30272(3) 0.5000
W4E W 0.36688(3) 0.46914(3) 0.72313(8)
W4 W 0.36688(3) 0.46914(3) 0.27687(8)
W5 W 0.41791(4) 0.39636(4) 0.5000
W6E W 0.23991(4) 0.49333(3) 0.72172(9)
W6 W 0.23991(4) 0.49333(3) 0.27828(9)
W7E W 0.21452(3) 0.37329(3) 0.72181(9)
W7 W 0.21452(3) 0.37329(3) 0.27819(9)
W8 W 0.16442(5) 0.44431(5) 0.5000
Si1 Si 0.2913(3) 0.4212(2) 0.5000
O8E O 0.2433(9) 0.4288(8) 0.591(2)
O8 O 0.2433(9) 0.4288(8) 0.409(2)
O9E O 0.2822(8) 0.3754(8) 0.419(2)
O9 O 0.2822(8) 0.3754(8) 0.581(2)
O10E O 0.3388(8) 0.4110(8) 0.588(2)
O10 O 0.3388(8) 0.4110(8) 0.412(2)
O11E O 0.3005(8) 0.4672(7) 0.5778(19)
O11 O 0.3005(8) 0.4672(7) 0.4222(19)
O12 O 0.1866(9) 0.4885(6) 0.620(3)
O12E O 0.1866(9) 0.4885(6) 0.380(3)
O13 O 0.2541(7) 0.2420(6) 0.5000
O14E O 0.2265(9) 0.4330(6) 0.784(3)
O14 O 0.2265(9) 0.4330(6) 0.216(3)
O15 O 0.4159(8) 0.4437(7) 0.620(2)
O15E O 0.4159(8) 0.4437(7) 0.380(2)
O16 O 0.1671(9) 0.3975(6) 0.620(2)
O16E O 0.1671(9) 0.3975(6) 0.380(2)
O17E O 0.3599(8) 0.4085(7) 0.210(2)
O17 O 0.3599(8) 0.4085(7) 0.790(2)
O18E O 0.1786(8) 0.3495(8) 0.836(2)
O18 O 0.1786(8) 0.3495(8) 0.164(2)
O19E O 0.2164(9) 0.5279(6) 0.833(2)
O19 O 0.2164(9) 0.5279(6) 0.167(2)
O20E O 0.3045(6) 0.4851(8) 0.7882(17)
O20 O 0.3045(6) 0.4851(8) 0.2118(17)
O21E O 0.3168(5) 0.3033(7) 0.3812(17)
O21 O 0.3168(5) 0.3033(7) 0.6188(17)
O22E O 0.2779(6) 0.3595(6) 0.2153(18)
O22 O 0.2779(6) 0.3595(6) 0.7847(18)
O23E O 0.3670(6) 0.3137(5) 0.1663(15)
O23 O 0.3670(6) 0.3137(5) 0.8337(15)
O24E O 0.4063(7) 0.4920(6) 0.8313(15)
O24 O 0.4063(7) 0.4920(6) 0.1687(15)
O25 O 0.1013(8) 0.4573(8) 0.5000
O26E O 0.3630(7) 0.5203(7) 0.3812(17)
O26 O 0.3630(7) 0.5203(7) 0.6188(17)
O27 O 0.3967(9) 0.3534(5) 0.3816(18)
O27E O 0.3967(9) 0.3534(5) 0.6184(18)
O28E O 0.2217(5) 0.3224(7) 0.3805(15)
O28 O 0.2217(5) 0.3224(7) 0.6195(15)
O29E O 0.2672(5) 0.5400(7) 0.3800(15)
O29 O 0.2672(5) 0.5400(7) 0.6200(15)
O30 O 0.4788(9) 0.3860(8) 0.5000
O31 O 0.3313(8) 0.5991(7) 0.5000
W1_2 W 0.31727(4) 0.54043(3) -0.5000
W2_2 W 0.34197(3) 0.34901(3) -0.27454(7)
W3_2 W 0.26648(4) 0.30272(3) -0.5000
W4_2 W 0.36688(3) 0.46914(3) -0.72313(8)
W5_2 W 0.41791(4) 0.39636(4) -0.5000
W6_2 W 0.23991(4) 0.49333(3) -0.72172(9)
W7_2 W 0.21452(3) 0.37329(3) -0.72181(9)
W8_2 W 0.16442(5) 0.44431(5) -0.5000
Si1_2 Si 0.2913(3) 0.4212(2) -0.5000
O8_2 O 0.2433(9) 0.4288(8) -0.591(2)
O9_2 O 0.2822(8) 0.3754(8) -0.419(2)
O10_2 O 0.3388(8) 0.4110(8) -0.588(2)
O11_2 O 0.3005(8) 0.4672(7) -0.5778(19)
O12_2 O 0.1866(9) 0.4885(6) -0.380(3)
O13_2 O 0.2541(7) 0.2420(6) -0.5000
O14_2 O 0.2265(9) 0.4330(6) -0.784(3)
O15_2 O 0.4159(8) 0.4437(7) -0.380(2)
O16_2 O 0.1671(9) 0.3975(6) -0.380(2)
O17_2 O 0.3599(8) 0.4085(7) -0.210(2)
O18_2 O 0.1786(8) 0.3495(8) -0.836(2)
O19_2 O 0.2164(9) 0.5279(6) -0.833(2)
O20_2 O 0.3045(6) 0.4851(8) -0.7882(17)
O21_2 O 0.3168(5) 0.3033(7) -0.3812(17)
O22_2 O 0.2779(6) 0.3595(6) -0.2153(18)
O23_2 O 0.3670(6) 0.3137(5) -0.1663(15)
O24_2 O 0.4063(7) 0.4920(6) -0.8313(15)
O25_2 O 0.1013(8) 0.4573(8) -0.5000
O26_2 O 0.3630(7) 0.5203(7) -0.3812(17)
O27_2 O 0.3967(9) 0.3534(5) -0.6184(18)
O28_2 O 0.2217(5) 0.3224(7) -0.3805(15)
O29_2 O 0.2672(5) 0.5400(7) -0.3800(15)
O30_2 O 0.4788(9) 0.3860(8) -0.5000
O31_2 O 0.3313(8) 0.5991(7) -0.5000
W2E_2 W 0.34197(3) 0.34901(3) -0.72546(7)
W4E_2 W 0.36688(3) 0.46914(3) -0.27687(8)
W6E_2 W 0.23991(4) 0.49333(3) -0.27828(9)
W7E_2 W 0.21452(3) 0.37329(3) -0.27819(9)
O8E_2 O 0.2433(9) 0.4288(8) -0.409(2)
O9E_2 O 0.2822(8) 0.3754(8) -0.581(2)
O10E_2 O 0.3388(8) 0.4110(8) -0.412(2)
O11E_2 O 0.3005(8) 0.4672(7) -0.4222(19)
O12E_2 O 0.1866(9) 0.4885(6) -0.620(3)
O14E_2 O 0.2265(9) 0.4330(6) -0.216(3)
O15E_2 O 0.4159(8) 0.4437(7) -0.620(2)
O16E_2 O 0.1671(9) 0.3975(6) -0.620(2)
O17E_2 O 0.3599(8) 0.4085(7) -0.790(2)
O18E_2 O 0.1786(8) 0.3495(8) -0.164(2)
O19E_2 O 0.2164(9) 0.5279(6) -0.167(2)
O20E_2 O 0.3045(6) 0.4851(8) -0.2118(17)
O21E_2 O 0.3168(5) 0.3033(7) -0.6188(17)
O22E_2 O 0.2779(6) 0.3595(6) -0.7847(18)
O23E_2 O 0.3670(6) 0.3137(5) -0.8337(15)
O24E_2 O 0.4063(7) 0.4920(6) -0.1687(15)
O26E_2 O 0.3630(7) 0.5203(7) -0.6188(17)
O27E_2 O 0.3967(9) 0.3534(5) -0.3816(18)
O28E_2 O 0.2217(5) 0.3224(7) -0.6195(15)
O29E_2 O 0.2672(5) 0.5400(7) -0.6200(15)
Cu1 Cu 0.33398(11) 0.16048(11) 0.5000
Cu2 Cu 0.20602(10) 0.17667(10) 0.5000
O1 O 0.3568(9) 0.0793(8) 0.5000
O2 O 0.2670(6) 0.1411(6) 0.5000
H1 H 0.2626 0.1088 0.5000
N1 N -0.0984(9) 0.3100(8) 0.5000
N2 N 0.1383(7) 0.2094(7) 0.5000
N3 N 0.3356(5) 0.1634(5) 0.6829(14)
N4 N 0.2043(6) 0.1765(4) 0.3168(13)
C1 C -0.0930(11) 0.2674(13) 0.5000
H2 H -0.1215 0.2491 0.5000
C2 C -0.0469(9) 0.2439(10) 0.5000
H3 H -0.0455 0.2114 0.5000
C3 C -0.0038(10) 0.2705(10) 0.5000
C4 C 0.0457(11) 0.2503(9) 0.5000
C5 C 0.0534(16) 0.2020(14) 0.5000
H4 H 0.0263 0.1821 0.5000
C6 C 0.0986(12) 0.1841(11) 0.5000
H5 H 0.1019 0.1517 0.5000
C7 C 0.1321(12) 0.2545(11) 0.5000
H6 H 0.1600 0.2735 0.5000
C8 C 0.0855(12) 0.2756(12) 0.5000
H7 H 0.0830 0.3080 0.5000
C9 C -0.0123(13) 0.3190(10) 0.5000
H8 H 0.0140 0.3399 0.5000
C10 C -0.0609(12) 0.3349(11) 0.5000
H9 H -0.0657 0.3671 0.5000
C11 C 0.3386(10) 0.2008(10) 0.747(3)
H10 H 0.3405 0.2291 0.7064
C12 C 0.3391(12) 0.2029(7) 0.869(2)
H11 H 0.3404 0.2318 0.9074
C13 C 0.3379(8) 0.1648(7) 0.9340(18)
C14 C 0.3343(17) 0.1245(9) 0.869(2)
H12 H 0.3315 0.0959 0.9083
C15 C 0.3349(11) 0.1265(10) 0.745(3)
H13 H 0.3346 0.0982 0.7043
C16 C 0.2051(8) 0.2144(8) 0.254(2)
H14 H 0.2059 0.2424 0.2968
C17 C 0.2050(9) 0.2174(9) 0.133(2)
H15 H 0.2068 0.2462 0.0939
C18 C 0.2022(7) 0.1784(6) 0.0718(17)
C19 C 0.2022(16) 0.1372(9) 0.131(2)
H16 H 0.2034 0.1084 0.0927
C20 C 0.2003(11) 0.1420(11) 0.257(3)
H17 H 0.1951 0.1145 0.2993
Cu1C Cu -0.16602(11) 0.33952(11) 0.5000
Cu1_2 Cu 0.33398(11) 0.16048(11) 1.5000
Cu1_3 Cu 0.33398(11) 0.16048(11) -0.5000
Cu2_2 Cu 0.20602(10) 0.17667(10) -0.5000
Cu2_3 Cu 0.20602(10) 0.17667(10) 1.5000
Cu2C Cu 0.70602(10) 0.32333(10) 0.5000
O1C O -0.1432(9) 0.4207(8) 0.5000
O2C O -0.2330(6) 0.3589(6) 0.5000
O2_2 O 0.2670(6) 0.1411(6) -0.5000
H1C H -0.2374 0.3912 0.5000
H1_2 H 0.2626 0.1088 -0.5000
N1C N 0.4016(9) 0.1900(8) 0.5000
N2C N 0.6383(7) 0.2906(7) 0.5000
N2_2 N 0.1383(7) 0.2094(7) -0.5000
N3E N 0.3356(5) 0.1634(5) 1.3171(14)
N3E_2 N 0.3356(5) 0.1634(5) 0.3171(14)
N3_2 N 0.3356(5) 0.1634(5) -0.3171(14)
N3C N -0.1644(5) 0.3366(5) 0.3171(14)
N3F N -0.1644(5) 0.3366(5) 0.6829(14)
N4E N 0.2043(6) 0.1765(4) -0.3168(13)
N4E_2 N 0.2043(6) 0.1765(4) 0.6832(13)
N4_2 N 0.2043(6) 0.1765(4) 1.3168(13)
N4_3 N 0.2043(6) 0.1765(4) -0.6832(13)
C1C C 0.4070(11) 0.2326(13) 0.5000
H2C H 0.3785 0.2509 0.5000
C2C C 0.4531(9) 0.2561(10) 0.5000
H3C H 0.4545 0.2886 0.5000
C3C C 0.4962(10) 0.2295(10) 0.5000
C4C C 0.5457(11) 0.2497(9) 0.5000
C5C C 0.5534(16) 0.2980(14) 0.5000
H4C H 0.5263 0.3179 0.5000
C6C C 0.5986(12) 0.3159(11) 0.5000
H5C H 0.6019 0.3483 0.5000
C7C C 0.6321(12) 0.2455(11) 0.5000
H6C H 0.6600 0.2265 0.5000
C8C C 0.5855(12) 0.2244(12) 0.5000
H7C H 0.5830 0.1920 0.5000
C9C C 0.4877(13) 0.1810(10) 0.5000
H8C H 0.5140 0.1601 0.5000
C10C C 0.4391(12) 0.1651(11) 0.5000
H9C H 0.4343 0.1329 0.5000
C11E C 0.3386(10) 0.2008(10) 1.253(3)
C11E_2 C 0.3386(10) 0.2008(10) 0.253(3)
C11_2 C 0.3386(10) 0.2008(10) -0.253(3)
H10E H 0.3405 0.2291 1.2936
H10E_2 H 0.3405 0.2291 0.2936
H10_2 H 0.3405 0.2291 -0.2936
C12E C 0.3391(12) 0.2029(7) 1.131(2)
C12E_2 C 0.3391(12) 0.2029(7) 0.131(2)
C12_2 C 0.3391(12) 0.2029(7) -0.131(2)
H11E H 0.3404 0.2318 1.0926
H11E_2 H 0.3404 0.2318 0.0926
H11_2 H 0.3404 0.2318 -0.0926
C13E C 0.3379(8) 0.1648(7) 1.0660(18)
C13E_2 C 0.3379(8) 0.1648(7) 0.0660(18)
C13_2 C 0.3379(8) 0.1648(7) -0.0660(18)
C14E C 0.3343(17) 0.1245(9) 1.131(2)
C14E_2 C 0.3343(17) 0.1245(9) 0.131(2)
C14_2 C 0.3343(17) 0.1245(9) -0.131(2)
H12E H 0.3315 0.0959 1.0917
H12E_2 H 0.3315 0.0959 0.0917
H12_2 H 0.3315 0.0959 -0.0917
C15E C 0.3349(11) 0.1265(10) 1.255(3)
C15E_2 C 0.3349(11) 0.1265(10) 0.255(3)
C15_2 C 0.3349(11) 0.1265(10) -0.255(3)
H13E H 0.3346 0.0982 1.2957
H13E_2 H 0.3346 0.0982 0.2957
H13_2 H 0.3346 0.0982 -0.2957
C16E C 0.2051(8) 0.2144(8) -0.254(2)
C16E_2 C 0.2051(8) 0.2144(8) 0.746(2)
C16_2 C 0.2051(8) 0.2144(8) 1.254(2)
H14E H 0.2059 0.2424 -0.2968
H14E_2 H 0.2059 0.2424 0.7032
H14_2 H 0.2059 0.2424 1.2968
C17E C 0.2050(9) 0.2174(9) -0.133(2)
C17E_2 C 0.2050(9) 0.2174(9) 0.867(2)
C17_2 C 0.2050(9) 0.2174(9) 1.133(2)
H15E H 0.2068 0.2462 -0.0939
H15E_2 H 0.2068 0.2462 0.9061
H15_2 H 0.2068 0.2462 1.0939
C18E C 0.2022(7) 0.1784(6) -0.0718(17)
C18E_2 C 0.2022(7) 0.1784(6) 0.9282(17)
C18_2 C 0.2022(7) 0.1784(6) 1.0718(17)
C19E C 0.2022(16) 0.1372(9) -0.131(2)
C19E_2 C 0.2022(16) 0.1372(9) 0.869(2)
C19_2 C 0.2022(16) 0.1372(9) 1.131(2)
H16E H 0.2034 0.1084 -0.0927
H16E_2 H 0.2034 0.1084 0.9073
H16_2 H 0.2034 0.1084 1.0927
C20E C 0.2003(11) 0.1420(11) -0.257(3)
C20E_2 C 0.2003(11) 0.1420(11) 0.743(3)
C20_2 C 0.2003(11) 0.1420(11) 1.257(3)
H17E H 0.1951 0.1145 -0.2993
H17E_2 H 0.1951 0.1145 0.7007
H17_2 H 0.1951 0.1145 1.2993
loop_
_geom_bond_atom_site_label_1
_geom_bond_atom_site_label_2
_geom_bond_site_symmetry_1
_geom_bond_site_symmetry_2
Cu1 O1 1_555 1_555
Cu2 O2 1_555 1_555
O2 Cu1 1_555 1_555
H1 O2 1_555 1_555
N1 C1 1_555 1_555
N2 Cu2 1_555 1_555
N3 Cu1 1_555 1_555
N4 Cu2 1_555 1_555
C1 H2 1_555 1_555
C2 C1 1_555 1_555
H3 C2 1_555 1_555
C3 C2 1_555 1_555
C4 C3 1_555 1_555
C5 C4 1_555 1_555
H4 C5 1_555 1_555
C6 N2 1_555 1_555
H5 C6 1_555 1_555
C7 N2 1_555 1_555
H6 C7 1_555 1_555
C8 C4 1_555 1_555
H7 C8 1_555 1_555
C9 C3 1_555 1_555
H8 C9 1_555 1_555
C10 N1 1_555 1_555
H9 C10 1_555 1_555
C11 N3 1_555 1_555
H10 C11 1_555 1_555
C12 C11 1_555 1_555
H11 C12 1_555 1_555
C13 C12 1_555 1_555
C14 C13 1_555 1_555
H12 C14 1_555 1_555
C15 N3 1_555 1_555
H13 C15 1_555 1_555
C16 N4 1_555 1_555
H14 C16 1_555 1_555
C17 C16 1_555 1_555
H15 C17 1_555 1_555
C18 C17 1_555 1_555
C19 C18 1_555 1_555
H16 C19 1_555 1_555
C20 N4 1_555 1_555
H17 C20 1_555 1_555
Cu3 O3 1_555 1_555
O4 Cu3 1_555 1_555
N5 Cu3 1_555 1_555
N6 C28 1_555 1_555
C21 N5 1_555 1_555
H18 C21 1_555 1_555
C22 C21 1_555 1_555
H19 C22 1_555 1_555
C23 C22 1_555 1_555
C24 C23 1_555 1_555
H20 C24 1_555 1_555
C25 N5 1_555 1_555
H21 C25 1_555 1_555
C26 C23 1_555 1_555
C27 C26 1_555 1_555
H22 C27 1_555 1_555
C28 C27 1_555 1_555
H23 C28 1_555 1_555
C29 N6 1_555 1_555
H24 C29 1_555 1_555
C30 C26 1_555 1_555
H25 C30 1_555 1_555
W1_2 O11_2 1_555 1_555
W2_2 O9_2 1_555 1_555
W3_2 O9_2 1_555 1_555
W4_2 O10_2 1_555 1_555
W5_2 O10_2 1_555 1_555
W6_2 O8_2 1_555 1_555
W7_2 O8_2 1_555 1_555
W8_2 O8_2 1_555 1_555
Si1_2 O8_2 1_555 1_555
O9_2 Si1_2 1_555 1_555
O10_2 Si1_2 1_555 1_555
O11_2 W4_2 1_555 1_555
O12_2 W8_2 1_555 1_555
O13_2 W3_2 1_555 1_555
O14_2 W6_2 1_555 1_555
O15_2 W5_2 1_555 1_555
O16_2 W8_2 1_555 1_555
O17_2 W2_2 1_555 1_555
O18_2 W7_2 1_555 1_555
O19_2 W6_2 1_555 1_555
O20_2 W4_2 1_555 1_555
O21_2 W2_2 1_555 1_555
O22_2 W2_2 1_555 1_555
O23_2 W2_2 1_555 1_555
O24_2 W4_2 1_555 1_555
O25_2 W8_2 1_555 1_555
O26_2 W1_2 1_555 1_555
O27_2 W5_2 1_555 1_555
O28_2 W3_2 1_555 1_555
O29_2 W1_2 1_555 1_555
O30_2 W5_2 1_555 1_555
O31_2 W1_2 1_555 1_555
Cu1C N1 1_555 1_555
Cu1_2 N3E 1_555 1_555
Cu1_3 O2_2 1_555 1_555
Cu2_2 O2_2 1_555 1_555
Cu2_3 N4_2 1_555 1_555
Cu2C N2C 1_555 1_555
O1C Cu1C 1_555 1_555
O2C Cu1C 1_555 1_555
O2_2 H1_2 1_555 1_555
H1C O2C 1_555 1_555
N1C Cu1 1_555 1_555
N2C C6C 1_555 1_555
N2_2 Cu2_2 1_555 1_555
N3E C11E 1_555 1_555
N3E_2 Cu1 1_555 1_555
N3_2 Cu1_3 1_555 1_555
N3C Cu1C 1_555 1_555
N3F Cu1C 1_555 1_555
N4E Cu2_2 1_555 1_555
N4E_2 Cu2 1_555 1_555
N4_2 C16_2 1_555 1_555
N4_3 Cu2_2 1_555 1_555
C1C N1C 1_555 1_555
H2C C1C 1_555 1_555
C2C C1C 1_555 1_555
H3C C2C 1_555 1_555
C3C C2C 1_555 1_555
C4C C3C 1_555 1_555
C5C C4C 1_555 1_555
H4C C5C 1_555 1_555
C6C C5C 1_555 1_555
H5C C6C 1_555 1_555
C7C N2C 1_555 1_555
H6C C7C 1_555 1_555
C8C C4C 1_555 1_555
H7C C8C 1_555 1_555
C9C C3C 1_555 1_555
H8C C9C 1_555 1_555
C10C N1C 1_555 1_555
H9C C10C 1_555 1_555
C11E H10E 1_555 1_555
C11E_2 N3E_2 1_555 1_555
C11_2 N3_2 1_555 1_555
H10E_2 C11E_2 1_555 1_555
H10_2 C11_2 1_555 1_555
C12E C11E 1_555 1_555
C12E_2 C11E_2 1_555 1_555
C12_2 C11_2 1_555 1_555
H11E C12E 1_555 1_555
H11E_2 C12E_2 1_555 1_555
H11_2 C12_2 1_555 1_555
C13E C13 1_555 1_555
C13E_2 C12E_2 1_555 1_555
C13_2 C12_2 1_555 1_555
C14E C13E 1_555 1_555
C14E_2 C13E_2 1_555 1_555
C14_2 C13_2 1_555 1_555
H12E C14E 1_555 1_555
H12E_2 C14E_2 1_555 1_555
H12_2 C14_2 1_555 1_555
C15E N3E 1_555 1_555
C15E_2 N3E_2 1_555 1_555
C15_2 N3_2 1_555 1_555
H13E C15E 1_555 1_555
H13E_2 C15E_2 1_555 1_555
H13_2 C15_2 1_555 1_555
C16E N4E 1_555 1_555
C16E_2 N4E_2 1_555 1_555
C16_2 H14_2 1_555 1_555
H14E C16E 1_555 1_555
H14E_2 C16E_2 1_555 1_555
C17E C16E 1_555 1_555
C17E_2 C16E_2 1_555 1_555
C17_2 C16_2 1_555 1_555
H15E C17E 1_555 1_555
H15E_2 C17E_2 1_555 1_555
H15_2 C17_2 1_555 1_555
C18E C18 1_555 1_555
C18E_2 C17E_2 1_555 1_555
C18_2 C17_2 1_555 1_555
C19E C18E 1_555 1_555
C19E_2 C18E_2 1_555 1_555
C19_2 C18_2 1_555 1_555
H16E C19E 1_555 1_555
H16E_2 C19E_2 1_555 1_555
H16_2 C19_2 1_555 1_555
C20E N4E 1_555 1_555
C20E_2 N4E_2 1_555 1_555
C20_2 N4_2 1_555 1_555
H17E C20E 1_555 1_555
H17E_2 C20E_2 1_555 1_555
H17_2 C20_2 1_555 1_555
Cu3D O4 1_555 1_555
O3D Cu3D 1_555 1_555
N5A Cu3 1_555 1_555
N5D Cu3D 1_555 1_555
N5E Cu3D 1_555 1_555
N6A C28A 1_555 1_555
N6D C28D 1_555 1_555
N6E C28E 1_555 1_555
C21A N5A 1_555 1_555
C21D N5D 1_555 1_555
C21E N5E 1_555 1_555
H18A C21A 1_555 1_555
H18D C21D 1_555 1_555
H18E C21E 1_555 1_555
C22A C21A 1_555 1_555
C22D C21D 1_555 1_555
C22E C21E 1_555 1_555
H19A C22A 1_555 1_555
H19D C22D 1_555 1_555
H19E C22E 1_555 1_555
C23A C22A 1_555 1_555
C23D C22D 1_555 1_555
C23E C22E 1_555 1_555
C24A C23A 1_555 1_555
C24D C23D 1_555 1_555
C24E C23E 1_555 1_555
H20A C24A 1_555 1_555
H20D C24D 1_555 1_555
H20E C24E 1_555 1_555
C25A N5A 1_555 1_555
C25D N5D 1_555 1_555
C25E N5E 1_555 1_555
H21A C25A 1_555 1_555
H21D C25D 1_555 1_555
H21E C25E 1_555 1_555
C26A C23A 1_555 1_555
C26D C23D 1_555 1_555
C26E C23E 1_555 1_555
C27A C26A 1_555 1_555
C27D C26D 1_555 1_555
C27E C26E 1_555 1_555
H22A C27A 1_555 1_555
H22D C27D 1_555 1_555
H22E C27E 1_555 1_555
C28A C27A 1_555 1_555
C28D C27D 1_555 1_555
C28E C27E 1_555 1_555
H23A C28A 1_555 1_555
H23D C28D 1_555 1_555
H23E C28E 1_555 1_555
C29A N6A 1_555 1_555
C29D N6D 1_555 1_555
C29E N6E 1_555 1_555
H24A C29A 1_555 1_555
H24D C29D 1_555 1_555
H24E C29E 1_555 1_555
C30A C26A 1_555 1_555
C30D C26D 1_555 1_555
C30E C26E 1_555 1_555
H25A C30A 1_555 1_555
H25D C30D 1_555 1_555
H25E C30E 1_555 1_555
W1 O11E 1_555 1_555
W2E O9E 1_555 1_555
W2 O9 1_555 1_555
W3 O9E 1_555 1_555
W4E O10E 1_555 1_555
W4 O10 1_555 1_555
W5 O10E 1_555 1_555
W6E O8E 1_555 1_555
W6 O8 1_555 1_555
W7E O8E 1_555 1_555
W7 O8 1_555 1_555
W8 O8E 1_555 1_555
Si1 O8E 1_555 1_555
O8 W8 1_555 1_555
O9E W7 1_555 1_555
O9 W3 1_555 1_555
O10E W2 1_555 1_555
O10 W2E 1_555 1_555
O11E W4E 1_555 1_555
O11 W1 1_555 1_555
O12 W6E 1_555 1_555
O12E W6 1_555 1_555
O13 W3 1_555 1_555
O14E W6E 1_555 1_555
O14 W6 1_555 1_555
O15 W4E 1_555 1_555
O15E W4 1_555 1_555
O16 W7E 1_555 1_555
O16E W7 1_555 1_555
O17E W2E 1_555 1_555
O17 W2 1_555 1_555
O18E W7E 1_555 1_555
O18 W7 1_555 1_555
O19E W6E 1_555 1_555
O19 W6 1_555 1_555
O20E W4E 1_555 1_555
O20 W4 1_555 1_555
O21E W2E 1_555 1_555
O21 W2 1_555 1_555
O22E W2E 1_555 1_555
O22 W2 1_555 1_555
O23E W2E 1_555 1_555
O23 W2 1_555 1_555
O24E W4E 1_555 1_555
O24 W4 1_555 1_555
O25 W8 1_555 1_555
O26E W1 1_555 1_555
O26 W1 1_555 1_555
O27 W2E 1_555 1_555
O27E W2 1_555 1_555
O28E W3 1_555 1_555
O28 W3 1_555 1_555
O29E W1 1_555 1_555
O29 W1 1_555 1_555
O30 W5 1_555 1_555
O31 W1 1_555 1_555
W2E_2 O10_2 1_555 1_555
W4E_2 O15_2 1_555 1_555
W6E_2 O12_2 1_555 1_555
W7E_2 O9_2 1_555 1_555
O8E_2 W8_2 1_555 1_555
O9E_2 W3_2 1_555 1_555
O10E_2 W2_2 1_555 1_555
O11E_2 W1_2 1_555 1_555
O12E_2 W6_2 1_555 1_555
O14E_2 W6E_2 1_555 1_555
O15E_2 W4_2 1_555 1_555
O16E_2 W7_2 1_555 1_555
O17E_2 W4_2 1_555 1_555
O18E_2 W7E_2 1_555 1_555
O19E_2 W6E_2 1_555 1_555
O20E_2 W4E_2 1_555 1_555
O21E_2 W3_2 1_555 1_555
O22E_2 W7_2 1_555 1_555
O23E_2 W2E_2 1_555 1_555
O24E_2 W4E_2 1_555 1_555
O26E_2 W1_2 1_555 1_555
O27E_2 W2_2 1_555 1_555
O28E_2 W3_2 1_555 1_555
O29E_2 W1_2 1_555 1_555
C5 C6 1_555 1_555
C7 C8 1_555 1_555
C9 C10 1_555 1_555
C14 C15 1_555 1_555
C19 C20 1_555 1_555
C24 C25 1_555 1_555
C29 C30 1_555 1_555
W3_2 O21_2 1_555 1_555
W4_2 O26E_2 1_555 1_555
W5_2 O10E_2 1_555 1_555
W5_2 O15E_2 1_555 1_555
W5_2 O27E_2 1_555 1_555
W6_2 O11_2 1_555 1_555
W6_2 O20_2 1_555 1_555
W6_2 O29E_2 1_555 1_555
W7_2 O14_2 1_555 1_555
W7_2 O9E_2 1_555 1_555
W7_2 O28E_2 1_555 1_555
W8_2 O12E_2 1_555 1_555
W8_2 O16E_2 1_555 1_555
Si1_2 O11_2 1_555 1_555
Si1_2 O8E_2 1_555 1_555
Si1_2 O9E_2 1_555 1_555
Si1_2 O10E_2 1_555 1_555
Si1_2 O11E_2 1_555 1_555
O11_2 O11E_2 1_555 1_555
O16_2 W7E_2 1_555 1_555
O17_2 W4E_2 1_555 1_555
O22_2 W7E_2 1_555 1_555
O26_2 W4E_2 1_555 1_555
O27_2 W2E_2 1_555 1_555
O28_2 W7E_2 1_555 1_555
O29_2 W6E_2 1_555 1_555
C7C C8C 1_555 1_555
C9C C10C 1_555 1_555
C12E C13E 1_555 1_555
C13E_2 C13_2 1_555 1_555
C14E C15E 1_555 1_555
C14E_2 C15E_2 1_555 1_555
C14_2 C15_2 1_555 1_555
C17E C18E 1_555 1_555
C18E_2 C18_2 1_555 1_555
C19E C20E 1_555 1_555
C19E_2 C20E_2 1_555 1_555
C19_2 C20_2 1_555 1_555
C24A C25A 1_555 1_555
C24D C25D 1_555 1_555
C24E C25E 1_555 1_555
C29A C30A 1_555 1_555
C29D C30D 1_555 1_555
C29E C30E 1_555 1_555
W3 O21E 1_555 1_555
W3 O21 1_555 1_555
W4E O17 1_555 1_555
W4E O26 1_555 1_555
W4 O11 1_555 1_555
W4 O17E 1_555 1_555
W4 O26E 1_555 1_555
W5 O10 1_555 1_555
W5 O15 1_555 1_555
W5 O15E 1_555 1_555
W5 O27 1_555 1_555
W5 O27E 1_555 1_555
W6E O11E 1_555 1_555
W6E O20E 1_555 1_555
W6E O29 1_555 1_555
W6 O11 1_555 1_555
W6 O20 1_555 1_555
W6 O29E 1_555 1_555
W7E O9 1_555 1_555
W7E O14E 1_555 1_555
W7E O22 1_555 1_555
W7E O28 1_555 1_555
W7 O14 1_555 1_555
W7 O22E 1_555 1_555
W7 O28E 1_555 1_555
W8 O12 1_555 1_555
W8 O12E 1_555 1_555
W8 O16 1_555 1_555
W8 O16E 1_555 1_555
Si1 O8 1_555 1_555
Si1 O9E 1_555 1_555
Si1 O9 1_555 1_555
Si1 O10E 1_555 1_555
Si1 O10 1_555 1_555
Si1 O11E 1_555 1_555
Si1 O11 1_555 1_555
O11E O11 1_555 1_555
W2E_2 O9E_2 1_555 1_555
W2E_2 O17E_2 1_555 1_555
W2E_2 O21E_2 1_555 1_555
W2E_2 O22E_2 1_555 1_555
W4E_2 O10E_2 1_555 1_555
W4E_2 O11E_2 1_555 1_555
W6E_2 O8E_2 1_555 1_555
W6E_2 O11E_2 1_555 1_555
W6E_2 O20E_2 1_555 1_555
W7E_2 O8E_2 1_555 1_555
W7E_2 O14E_2 1_555 1_555

#END
