
#######################################################################
#
#                 Cambridge Crystallographic Data Centre
#                                CCDC 
#
#######################################################################
#
# If this CIF has been generated from an entry in the Cambridge 
# Structural Database, then it will include bibliographic, chemical, 
# crystal, experimental, refinement or atomic coordinate data resulting 
# from the CCDC's data processing and validation procedures.
#
#######################################################################

data_QUMDUY
_symmetry_cell_setting           monoclinic
_symmetry_space_group_name_H-M   'P 2/n'
_symmetry_Int_Tables_number      13
_space_group_name_Hall           '-P 2yac'
loop_
_symmetry_equiv_pos_site_id
_symmetry_equiv_pos_as_xyz
1 x,y,z
2 1/2-x,y,1/2-z
3 -x,-y,-z
4 1/2+x,-y,1/2+z
_cell_length_a                   13.023(1)
_cell_length_b                   12.739(1)
_cell_length_c                   13.684(1)
_cell_angle_alpha                90
_cell_angle_beta                 94.899(1)
_cell_angle_gamma                90
_cell_volume                     2261.88
loop_
_atom_site_label
_atom_site_type_symbol
_atom_site_fract_x
_atom_site_fract_y
_atom_site_fract_z
Cd1 Cd 0.63550(2) 1.22332(2) 0.65508(2)
C1 C 0.8493(3) 0.3567(3) 0.6871(3)
C2 C 0.8536(3) 0.4299(3) 0.6018(3)
C3 C 0.8480(4) 0.5373(3) 0.6180(3)
H1 H 0.8413 0.5634 0.6806
C4 C 0.8524(4) 0.6044(3) 0.5398(3)
C5 C 0.8658(3) 0.5680(3) 0.4459(3)
H2 H 0.8705 0.6144 0.3941
C6 C 0.8721(3) 0.4605(3) 0.4318(3)
C7 C 0.8657(3) 0.3911(3) 0.5087(3)
H3 H 0.8695 0.3192 0.4982
C8 C 0.8253(5) 0.7798(4) 0.4831(4)
H4 H 0.7743 0.7516 0.4343
H5 H 0.8885 0.7926 0.4523
C9 C 0.7866(5) 0.8804(4) 0.5258(4)
C10 C 0.6944(7) 0.8844(6) 0.5614(7)
H6 H 0.6551 0.8238 0.5641
C11 C 0.6566(6) 0.9800(6) 0.5948(6)
H7 H 0.5903 0.9810 0.6151
C12 C 0.7971(6) 1.0605(5) 0.5639(6)
H8 H 0.8367 1.1213 0.5645
C13 C 0.8385(6) 0.9698(6) 0.5249(6)
H9 H 0.9020 0.9722 0.4987
C14 C 0.8959(4) 0.4828(3) 0.2620(3)
H10 H 0.9605 0.5206 0.2729
H11 H 0.8403 0.5337 0.2557
C15 C 0.8955(3) 0.4188(3) 0.1695(3)
C16 C 0.8940(4) 0.3101(4) 0.1686(3)
H12 H 0.8950 0.2727 0.2271
C17 C 0.8910(5) 0.2581(4) 0.0807(4)
H13 H 0.8897 0.1851 0.0813
C18 C 0.8920(3) 0.4121(3) -0.0041(3)
H14 H 0.8909 0.4479 -0.0634
C19 C 0.8956(3) 0.4693(3) 0.0813(3)
H15 H 0.8981 0.5422 0.0791
C20 C 0.3375(4) 1.1086(4) 0.7273(4)
C21 C 0.3373(5) 1.0005(5) 0.7287(5)
H16 H 0.3962 0.9639 0.7152
C22 C 0.2500 0.9461(7) 0.7500
H17 H 0.2500 0.8731 0.7500
C23 C 0.2500 1.1616(5) 0.7500
H18 H 0.2500 1.2346 0.7500
C24 C 0.4300(4) 1.1695(5) 0.6988(4)
N1 N 0.8899(3) 0.3070(3) -0.0058(2)
N2 N 0.7082(3) 1.0665(3) 0.5990(3)
O1 O 0.8214(2) 0.2621(2) 0.6708(2)
O2 O 0.8738(2) 0.3904(2) 0.7718(2)
O3 O 0.8430(3) 0.7096(2) 0.5614(2)
O4 O 0.8832(3) 0.4156(2) 0.34222(19)
O5 O 0.5097(3) 1.1187(3) 0.6892(3)
O6 O 0.4223(4) 1.2638(4) 0.6847(5)
Cd1A Cd 0.86450(2) 2.22332(2) -0.15508(2)
Cd1A_2 Cd 0.86450(2) 0.22332(2) -0.15508(2)
Cd1A_3 Cd 0.86450(2) 0.22332(2) 0.84492(2)
Cd1_2 Cd 0.63550(2) 0.22332(2) 0.65508(2)
Cd1A_4 Cd -0.13550(2) 1.22332(2) 0.84492(2)
Cd1_3 Cd 0.63550(2) 1.22332(2) -0.34492(2)
Cd1A_5 Cd 0.86450(2) 1.22332(2) -0.15508(2)
C1A C 0.6507(3) 1.3567(3) -0.1871(3)
C2A C 0.6464(3) 1.4299(3) -0.1018(3)
C3A C 0.6520(4) 1.5373(3) -0.1180(3)
H1A H 0.6587 1.5634 -0.1806
C4A C 0.6476(4) 1.6044(3) -0.0398(3)
C5A C 0.6342(3) 1.5680(3) 0.0541(3)
H2A H 0.6295 1.6144 0.1059
C6A C 0.6279(3) 1.4605(3) 0.0682(3)
C7A C 0.6343(3) 1.3911(3) -0.0087(3)
H3A H 0.6305 1.3192 0.0018
C8A C 0.6747(5) 1.7798(4) 0.0169(4)
H4A H 0.7257 1.7516 0.0657
H5A H 0.6115 1.7926 0.0477
C9A C 0.7134(5) 1.8804(4) -0.0258(4)
C10A C 0.8056(7) 1.8844(6) -0.0614(7)
H6A H 0.8449 1.8238 -0.0641
C11A C 0.8434(6) 1.9800(6) -0.0948(6)
H7A H 0.9097 1.9810 -0.1151
C12A C 0.7029(6) 2.0605(5) -0.0639(6)
H8A H 0.6633 2.1213 -0.0645
C13A C 0.6615(6) 1.9698(6) -0.0249(6)
H9A H 0.5980 1.9722 0.0013
C14A C 0.6041(4) 1.4828(3) 0.2380(3)
H10A H 0.5395 1.5206 0.2271
H11A H 0.6597 1.5337 0.2443
C15A C 0.6045(3) 1.4188(3) 0.3305(3)
C16A C 0.6060(4) 1.3101(4) 0.3314(3)
H12A H 0.6050 1.2727 0.2729
C17A C 0.6090(5) 1.2581(4) 0.4193(4)
H13A H 0.6103 1.1851 0.4187
C18A C 0.6080(3) 1.4121(3) 0.5041(3)
H14A H 0.6091 1.4479 0.5634
C19A C 0.6044(3) 1.4693(3) 0.4187(3)
H15A H 0.6019 1.5422 0.4209
C20A C 0.1625(4) 1.1086(4) 0.7727(4)
C21A C 0.1627(5) 1.0005(5) 0.7713(5)
H16A H 0.1038 0.9639 0.7848
C24A C 0.0700(4) 1.1695(5) 0.8012(4)
N1A N 0.6101(3) 1.3070(3) 0.5058(2)
N1_2 N 0.8899(3) 2.3070(3) -0.0058(2)
N2A N 0.7918(3) 2.0665(3) -0.0990(3)
O1A O 0.6786(2) 1.2621(2) -0.1708(2)
O1A_2 O 0.6786(2) 1.2621(2) 0.8292(2)
O1_2 O 0.8214(2) 1.2621(2) 0.6708(2)
O1_3 O 0.8214(2) 2.2621(2) -0.3292(2)
O1A_3 O 0.6786(2) 2.2621(2) -0.1708(2)
O2A O 0.6262(2) 1.3904(2) -0.2718(2)
O2A_2 O 0.6262(2) 1.3904(2) 0.7282(2)
O2_2 O 0.8738(2) 2.3904(2) -0.2282(2)
O3A O 0.6570(3) 1.7096(2) -0.0614(2)
O4A O 0.6168(3) 1.4156(2) 0.15778(19)
O5A O -0.0097(3) 1.1187(3) 0.8108(3)
O5A_2 O 0.9903(3) 2.1187(3) -0.1892(3)
O6A O 0.0777(4) 1.2638(4) 0.8153(5)
loop_
_geom_bond_atom_site_label_1
_geom_bond_atom_site_label_2
_geom_bond_site_symmetry_1
_geom_bond_site_symmetry_2
Cd1 N2 1_555 1_555
C1 C2 1_555 1_555
C2 C3 1_555 1_555
C3 H1 1_555 1_555
C4 C3 1_555 1_555
C5 C4 1_555 1_555
H2 C5 1_555 1_555
C6 C5 1_555 1_555
C7 C2 1_555 1_555
H3 C7 1_555 1_555
C8 H4 1_555 1_555
H5 C8 1_555 1_555
C9 C8 1_555 1_555
C10 C9 1_555 1_555
H6 C10 1_555 1_555
C11 C10 1_555 1_555
H7 C11 1_555 1_555
C12 H8 1_555 1_555
C13 C9 1_555 1_555
H9 C13 1_555 1_555
C14 H10 1_555 1_555
H11 C14 1_555 1_555
C15 C14 1_555 1_555
C16 C15 1_555 1_555
H12 C16 1_555 1_555
C17 C16 1_555 1_555
H13 C17 1_555 1_555
C18 H14 1_555 1_555
C19 C15 1_555 1_555
H15 C19 1_555 1_555
C20 C21 1_555 1_555
C21 H16 1_555 1_555
C22 C21 1_555 1_555
H17 C22 1_555 1_555
C23 C20 1_555 1_555
H18 C23 1_555 1_555
C24 C20 1_555 1_555
N1 C17 1_555 1_555
N2 C11 1_555 1_555
O1 C1 1_555 1_555
O2 C1 1_555 1_555
O3 C4 1_555 1_555
O4 C6 1_555 1_555
O5 Cd1 1_555 1_555
O6 C24 1_555 1_555
Cd1A N1_2 1_555 1_555
Cd1A_2 N1 1_555 1_555
Cd1A_3 O1 1_555 1_555
Cd1_2 O1 1_555 1_555
Cd1A_4 O5A 1_555 1_555
Cd1_3 O1A 1_555 1_555
Cd1A_5 O1A 1_555 1_555
C1A C2A 1_555 1_555
C2A C3A 1_555 1_555
C3A H1A 1_555 1_555
C4A C3A 1_555 1_555
C5A C4A 1_555 1_555
H2A C5A 1_555 1_555
C6A C5A 1_555 1_555
C7A C2A 1_555 1_555
H3A C7A 1_555 1_555
C8A H4A 1_555 1_555
H5A C8A 1_555 1_555
C9A C8A 1_555 1_555
C10A C9A 1_555 1_555
H6A C10A 1_555 1_555
C11A C10A 1_555 1_555
H7A C11A 1_555 1_555
C12A H8A 1_555 1_555
C13A C9A 1_555 1_555
H9A C13A 1_555 1_555
C14A H10A 1_555 1_555
H11A C14A 1_555 1_555
C15A C14A 1_555 1_555
C16A C15A 1_555 1_555
H12A C16A 1_555 1_555
C17A C16A 1_555 1_555
H13A C17A 1_555 1_555
C18A H14A 1_555 1_555
C19A C15A 1_555 1_555
H15A C19A 1_555 1_555
C20A C23 1_555 1_555
C21A C22 1_555 1_555
H16A C21A 1_555 1_555
C24A C20A 1_555 1_555
N1A Cd1 1_555 1_555
N2A Cd1A 1_555 1_555
O1A C1A 1_555 1_555
O1A_2 Cd1 1_555 1_555
O1_2 Cd1 1_555 1_555
O1_3 Cd1A 1_555 1_555
O1A_3 Cd1A 1_555 1_555
O2A Cd1_3 1_555 1_555
O2A_2 Cd1 1_555 1_555
O2_2 Cd1A 1_555 1_555
O3A C4A 1_555 1_555
O4A C6A 1_555 1_555
O5A C24A 1_555 1_555
O5A_2 Cd1A 1_555 1_555
O6A C24A 1_555 1_555
C6 C7 1_555 1_555
C8 O3 1_555 1_555
C12 C13 1_555 1_555
C12 N2 1_555 1_555
C14 O4 1_555 1_555
C18 C19 1_555 1_555
C18 N1 1_555 1_555
C24 O5 1_555 1_555
O2 Cd1A_3 1_555 1_555
C1A O2A 1_555 1_555
C6A C7A 1_555 1_555
C8A O3A 1_555 1_555
C11A N2A 1_555 1_555
C12A C13A 1_555 1_555
C12A N2A 1_555 1_555
C14A O4A 1_555 1_555
C17A N1A 1_555 1_555
C18A C19A 1_555 1_555
C18A N1A 1_555 1_555
C20A C21A 1_555 1_555

#END
