
#######################################################################
#
#                 Cambridge Crystallographic Data Centre
#                                CCDC 
#
#######################################################################
#
# If this CIF has been generated from an entry in the Cambridge 
# Structural Database, then it will include bibliographic, chemical, 
# crystal, experimental, refinement or atomic coordinate data resulting 
# from the CCDC's data processing and validation procedures.
#
#######################################################################

data_QUMGOV
_symmetry_cell_setting           monoclinic
_symmetry_space_group_name_H-M   'P 21/c'
_symmetry_Int_Tables_number      14
_space_group_name_Hall           '-P 2ybc'
loop_
_symmetry_equiv_pos_site_id
_symmetry_equiv_pos_as_xyz
1 x,y,z
2 -x,1/2+y,1/2-z
3 -x,-y,-z
4 x,1/2-y,1/2+z
_cell_length_a                   10.586(19)
_cell_length_b                   13.259(17)
_cell_length_c                   17.180(3)
_cell_angle_alpha                90
_cell_angle_beta                 113.73(10)
_cell_angle_gamma                90
_cell_volume                     2207.5
loop_
_atom_site_label
_atom_site_type_symbol
_atom_site_fract_x
_atom_site_fract_y
_atom_site_fract_z
Cu1 Cu -0.32090(9) 0.64619(7) 0.24747(6)
Cu2 Cu -0.05902(10) 0.62282(8) 0.36623(6)
Cu3 Cu 0.25220(9) 0.50408(7) 0.24527(6)
N1 N -0.2507(5) 0.5150(4) 0.2168(3)
N2 N -0.2000(6) 0.5244(4) 0.3842(3)
N3 N -0.0625(6) 0.6816(5) 0.4704(4)
N4 N 0.1213(6) 0.5636(5) 0.2812(4)
N5 N -0.5017(7) 0.6042(5) 0.2368(4)
N6 N -0.2270(8) 0.8597(6) 0.2661(5)
C1 C -0.6194(10) 0.1165(6) 0.5768(6)
H1 H -0.5577 0.0621 0.6042
H2 H -0.7009 0.0902 0.5323
H3 H -0.6443 0.1511 0.6177
C2 C -0.5501(7) 0.1882(6) 0.5402(4)
C3 C -0.5063(7) 0.1584(6) 0.4791(5)
H4 H -0.5225 0.0927 0.4584
C4 C -0.4394(7) 0.2241(6) 0.4483(4)
H5 H -0.4090 0.2022 0.4074
C5 C -0.4151(7) 0.3239(5) 0.4767(4)
C6 C -0.4608(8) 0.3505(6) 0.5377(5)
H6 H -0.4456 0.4160 0.5588
C7 C -0.5267(8) 0.2858(6) 0.5682(5)
H7 H -0.5571 0.3075 0.6092
C8 C -0.3422(7) 0.3918(6) 0.4434(4)
C9 C -0.3356(7) 0.3786(5) 0.3660(4)
H8 H -0.3814 0.3246 0.3317
C10 C -0.2635(7) 0.4431(5) 0.3393(4)
C11 C -0.2061(7) 0.5387(5) 0.4588(4)
C12 C -0.2743(7) 0.4751(6) 0.4896(4)
H9 H -0.2756 0.4874 0.5426
C13 C -0.1341(7) 0.6293(5) 0.5053(4)
C14 C -0.1363(8) 0.6610(6) 0.5812(5)
H10 H -0.1844 0.6241 0.6064
C15 C -0.0681(8) 0.7460(6) 0.6189(4)
H11 H -0.0705 0.7682 0.6696
C16 C 0.0026(9) 0.7981(7) 0.5833(5)
H12 H 0.0506 0.8561 0.6089
C17 C 0.0026(8) 0.7641(7) 0.5088(5)
H13 H 0.0509 0.8008 0.4835
C18 C -0.2491(6) 0.4314(6) 0.2583(4)
C19 C -0.2279(7) 0.3377(6) 0.2314(4)
H14 H -0.2310 0.2796 0.2609
C20 C -0.2024(8) 0.3334(6) 0.1601(5)
H15 H -0.1891 0.2715 0.1390
C21 C -0.1965(8) 0.4197(6) 0.1203(5)
H16 H -0.1745 0.4178 0.0730
C22 C -0.2223(7) 0.5086(6) 0.1488(4)
H17 H -0.2202 0.5673 0.1198
C23 C 0.0529(7) 0.5926(5) 0.3123(4)
C24 C -0.5991(8) 0.5678(6) 0.2358(4)
C25 C -0.2490(8) 0.7778(8) 0.2636(5)
Cu3A Cu -0.25220(9) 1.00408(7) 0.25473(6)
Cu3_2 Cu -0.74780(9) 0.50408(7) 0.24527(6)
N6A N 0.2270(8) 0.3597(6) 0.2339(5)
C24_2 C 0.4009(8) 0.5678(6) 0.2358(4)
loop_
_geom_bond_atom_site_label_1
_geom_bond_atom_site_label_2
_geom_bond_site_symmetry_1
_geom_bond_site_symmetry_2
Cu1 Cu2 1_555 1_555
Cu2 N2 1_555 1_555
Cu3 N4 1_555 1_555
N1 Cu1 1_555 1_555
N2 C10 1_555 1_555
N3 Cu2 1_555 1_555
N4 C23 1_555 1_555
N5 Cu1 1_555 1_555
N6 C25 1_555 1_555
C1 H1 1_555 1_555
H2 C1 1_555 1_555
H3 C1 1_555 1_555
C2 C1 1_555 1_555
C3 C2 1_555 1_555
H4 C3 1_555 1_555
C4 C3 1_555 1_555
H5 C4 1_555 1_555
C5 C4 1_555 1_555
C6 C5 1_555 1_555
H6 C6 1_555 1_555
C7 C2 1_555 1_555
H7 C7 1_555 1_555
C8 C5 1_555 1_555
C9 C8 1_555 1_555
H8 C9 1_555 1_555
C10 C9 1_555 1_555
C11 N2 1_555 1_555
C12 C8 1_555 1_555
H9 C12 1_555 1_555
C13 N3 1_555 1_555
C14 C13 1_555 1_555
H10 C14 1_555 1_555
C15 C14 1_555 1_555
H11 C15 1_555 1_555
C16 C15 1_555 1_555
H12 C16 1_555 1_555
C17 N3 1_555 1_555
H13 C17 1_555 1_555
C18 N1 1_555 1_555
C19 C18 1_555 1_555
H14 C19 1_555 1_555
C20 C19 1_555 1_555
H15 C20 1_555 1_555
C21 C20 1_555 1_555
H16 C21 1_555 1_555
C22 N1 1_555 1_555
H17 C22 1_555 1_555
C23 Cu2 1_555 1_555
C24 N5 1_555 1_555
C25 Cu1 1_555 1_555
Cu3A N6 1_555 1_555
Cu3_2 C24 1_555 1_555
N6A Cu3 1_555 1_555
C24_2 Cu3 1_555 1_555
C6 C7 1_555 1_555
C10 C18 1_555 1_555
C11 C12 1_555 1_555
C11 C13 1_555 1_555
C16 C17 1_555 1_555
C21 C22 1_555 1_555

#END
