
#######################################################################
#
#                 Cambridge Crystallographic Data Centre
#                                CCDC 
#
#######################################################################
#
# If this CIF has been generated from an entry in the Cambridge 
# Structural Database, then it will include bibliographic, chemical, 
# crystal, experimental, refinement or atomic coordinate data resulting 
# from the CCDC's data processing and validation procedures.
#
#######################################################################

data_QUMGIP
_symmetry_cell_setting           triclinic
_symmetry_space_group_name_H-M   'P -1'
_symmetry_Int_Tables_number      2
_space_group_name_Hall           '-P 1'
loop_
_symmetry_equiv_pos_site_id
_symmetry_equiv_pos_as_xyz
1 x,y,z
2 -x,-y,-z
_cell_length_a                   7.089(2)
_cell_length_b                   12.139(4)
_cell_length_c                   16.790(5)
_cell_angle_alpha                72.450(5)
_cell_angle_beta                 80.504(5)
_cell_angle_gamma                82.270(5)
_cell_volume                     1353.18
loop_
_atom_site_label
_atom_site_type_symbol
_atom_site_fract_x
_atom_site_fract_y
_atom_site_fract_z
C1 C 0.9162(9) 0.9309(6) 0.3202(4)
H1 H 0.9689 0.8796 0.2893
C2 C 0.8784(10) 1.0442(6) 0.2773(4)
H2 H 0.9054 1.0694 0.2189
C3 C 0.7979(10) 1.1222(6) 0.3230(4)
H3 H 0.7724 1.2005 0.2956
C4 C 0.7572(9) 1.0810(5) 0.4093(4)
H4 H 0.7009 1.1309 0.4408
C5 C 0.8021(7) 0.9619(5) 0.4496(3)
C6 C 0.7615(7) 0.9111(5) 0.5424(3)
C7 C 0.7103(8) 0.9819(5) 0.5965(3)
H5 H 0.7017 1.0621 0.5741
C8 C 0.6723(8) 0.9333(5) 0.6833(4)
C9 C 0.6081(8) 1.0056(5) 0.7411(4)
C10 C 0.5063(9) 1.1137(5) 0.7134(4)
H6 H 0.4811 1.1406 0.6578
C11 C 0.4420(9) 1.1819(6) 0.7676(4)
H7 H 0.3756 1.2539 0.7473
C12 C 0.4745(9) 1.1450(6) 0.8505(4)
C13 C 0.3984(12) 1.2210(7) 0.9092(5)
H8 H 0.3089 1.1806 0.9545
H9 H 0.3353 1.2922 0.8780
H10 H 0.5036 1.2378 0.9318
C14 C 0.5799(10) 1.0391(6) 0.8778(4)
H11 H 0.6090 1.0144 0.9328
C15 C 0.6430(9) 0.9690(6) 0.8252(4)
H12 H 0.7091 0.8970 0.8460
C16 C 0.6938(8) 0.8105(5) 0.7125(4)
H13 H 0.6708 0.7734 0.7699
C17 C 0.7495(7) 0.7449(5) 0.6557(3)
C18 C 0.7691(7) 0.6162(5) 0.6881(3)
C19 C 0.8313(8) 0.5600(5) 0.7653(3)
H14 H 0.8692 0.6027 0.7966
C20 C 0.8372(9) 0.4406(6) 0.7958(4)
H15 H 0.8780 0.4024 0.8478
C21 C 0.7822(9) 0.3794(5) 0.7484(4)
H16 H 0.7838 0.2991 0.7681
C22 C 0.7246(8) 0.4381(5) 0.6713(4)
H17 H 0.6900 0.3958 0.6389
Cu1 Cu 1.0000 0.0000 0.0000
Cu2 Cu 0.0000 0.5000 0.0000
Cu3 Cu 0.63615(12) 0.32915(7) 0.08344(5)
Cu4 Cu 0.73961(12) 0.49464(8) 0.30686(5)
Cu5 Cu 0.93200(9) 0.71624(6) 0.47377(4)
Cu6 Cu 0.60688(10) 0.63795(7) 0.53410(5)
N1 N 0.8793(10) 0.1311(7) 0.0282(5)
C23 C 0.7948(10) 0.2119(6) 0.0450(5)
C24 C 0.2310(10) 0.4226(7) 0.0319(4)
N2 N 0.3752(8) 0.3798(5) 0.0512(3)
N3 N 0.6808(8) 0.3929(5) 0.1724(4)
C25 C 0.7007(8) 0.4313(5) 0.2251(4)
N4 N 0.7861(7) 0.5736(4) 0.3788(3)
C26 C 0.8143(8) 0.6210(5) 0.4254(3)
N5 N 1.2004(7) 0.6931(4) 0.4943(3)
C27 C 1.3528(8) 0.6781(5) 0.5076(3)
N6 N 0.7162(6) 0.5561(4) 0.6405(3)
N7 N 0.7804(6) 0.7939(4) 0.5713(3)
N8 N 0.8820(6) 0.8884(4) 0.4046(3)
C1A C 1.0838(9) -0.9309(6) -0.3202(4)
H1A H 1.0311 -0.8796 -0.2893
C2A C 1.1216(10) -1.0442(6) -0.2773(4)
H2A H 1.0946 -1.0694 -0.2189
C3A C 1.2021(10) -1.1222(6) -0.3230(4)
H3A H 1.2276 -1.2005 -0.2956
C4A C 1.2428(9) -1.0810(5) -0.4093(4)
H4A H 1.2991 -1.1309 -0.4408
C5A C 1.1979(7) -0.9619(5) -0.4496(3)
C6A C 1.2385(7) -0.9111(5) -0.5424(3)
C7A C 1.2897(8) -0.9819(5) -0.5965(3)
H5A H 1.2983 -1.0621 -0.5741
C8A C 1.3277(8) -0.9333(5) -0.6833(4)
C9A C 1.3919(8) -1.0056(5) -0.7411(4)
C10A C 1.4937(9) -1.1137(5) -0.7134(4)
H6A H 1.5189 -1.1406 -0.6578
C11A C 1.5580(9) -1.1819(6) -0.7676(4)
H7A H 1.6244 -1.2539 -0.7473
C12A C 1.5255(9) -1.1450(6) -0.8505(4)
C13A C 1.6016(12) -1.2210(7) -0.9092(5)
H8A H 1.6911 -1.1806 -0.9545
H9A H 1.6647 -1.2922 -0.8780
H10A H 1.4964 -1.2378 -0.9318
C14A C 1.4201(10) -1.0391(6) -0.8778(4)
H11A H 1.3910 -1.0144 -0.9328
C15A C 1.3570(9) -0.9690(6) -0.8252(4)
H12A H 1.2909 -0.8970 -0.8460
C16A C 1.3062(8) -0.8105(5) -0.7125(4)
H13A H 1.3292 -0.7734 -0.7699
C17A C 1.2505(7) -0.7449(5) -0.6557(3)
C18A C 1.2309(7) -0.6162(5) -0.6881(3)
C19A C 1.1687(8) -0.5600(5) -0.7653(3)
H14A H 1.1308 -0.6027 -0.7966
C20A C 1.1628(9) -0.4406(6) -0.7958(4)
H15A H 1.1220 -0.4024 -0.8478
C21A C 1.2178(9) -0.3794(5) -0.7484(4)
H16A H 1.2162 -0.2991 -0.7681
C22A C 1.2754(8) -0.4381(5) -0.6713(4)
H17A H 1.3100 -0.3958 -0.6389
Cu2_2 Cu 2.0000 -0.5000 0.0000
Cu3A Cu 1.36385(12) -0.32915(7) -0.08344(5)
Cu4A Cu 1.26039(12) -0.49464(8) -0.30686(5)
Cu5A Cu 1.06800(9) -0.71624(6) -0.47377(4)
Cu5_2 Cu -0.06800(9) 0.71624(6) 0.47377(4)
Cu6A Cu 1.39312(10) -0.63795(7) -0.53410(5)
Cu6_2 Cu 1.60688(10) 0.63795(7) 0.53410(5)
N1A N 1.1207(10) -0.1311(7) -0.0282(5)
C23A C 1.2052(10) -0.2119(6) -0.0450(5)
C24A C 1.7690(10) -0.4226(7) -0.0319(4)
C24A_2 C -0.2310(10) 0.5774(7) -0.0319(4)
N2A N 1.6248(8) -0.3798(5) -0.0512(3)
N3A N 1.3192(8) -0.3929(5) -0.1724(4)
C25A C 1.2993(8) -0.4313(5) -0.2251(4)
N4A N 1.2139(7) -0.5736(4) -0.3788(3)
C26A C 1.1857(8) -0.6210(5) -0.4254(3)
N5_2 N 0.2004(7) 0.6931(4) 0.4943(3)
N5A N 0.7996(7) -0.6931(4) -0.4943(3)
C27_2 C 0.3528(8) 0.6781(5) 0.5076(3)
C27A C 1.6472(8) -0.6781(5) -0.5076(3)
N6A N 1.2838(6) -0.5561(4) -0.6405(3)
N7A N 1.2196(6) -0.7939(4) -0.5713(3)
N8A N 1.1180(6) -0.8884(4) -0.4046(3)
loop_
_geom_bond_atom_site_label_1
_geom_bond_atom_site_label_2
_geom_bond_site_symmetry_1
_geom_bond_site_symmetry_2
C1 H1 1_555 1_555
C2 C1 1_555 1_555
H2 C2 1_555 1_555
C3 C2 1_555 1_555
H3 C3 1_555 1_555
C4 C3 1_555 1_555
H4 C4 1_555 1_555
C5 C4 1_555 1_555
C6 C5 1_555 1_555
C7 C6 1_555 1_555
H5 C7 1_555 1_555
C8 C7 1_555 1_555
C9 C8 1_555 1_555
C10 C9 1_555 1_555
H6 C10 1_555 1_555
C11 C10 1_555 1_555
H7 C11 1_555 1_555
C12 C11 1_555 1_555
C13 C12 1_555 1_555
H8 C13 1_555 1_555
H9 C13 1_555 1_555
H10 C13 1_555 1_555
C14 C12 1_555 1_555
H11 C14 1_555 1_555
C15 C9 1_555 1_555
H12 C15 1_555 1_555
C16 C8 1_555 1_555
H13 C16 1_555 1_555
C17 C16 1_555 1_555
C18 C17 1_555 1_555
C19 C18 1_555 1_555
H14 C19 1_555 1_555
C20 C19 1_555 1_555
H15 C20 1_555 1_555
C21 C20 1_555 1_555
H16 C21 1_555 1_555
C22 C21 1_555 1_555
H17 C22 1_555 1_555
Cu1 N1 1_555 1_555
Cu2 C24 1_555 1_555
Cu3 C23 1_555 1_555
Cu4 C25 1_555 1_555
Cu5 Cu6 1_555 1_555
Cu6 C26 1_555 1_555
N1 C23 1_555 1_555
C24 N2 1_555 1_555
N2 Cu3 1_555 1_555
N3 Cu3 1_555 1_555
C25 N3 1_555 1_555
N4 Cu4 1_555 1_555
C26 Cu5 1_555 1_555
N5 Cu5 1_555 1_555
C27 N5 1_555 1_555
N6 C18 1_555 1_555
N7 C6 1_555 1_555
N8 C1 1_555 1_555
C1A H1A 1_555 1_555
C2A C1A 1_555 1_555
H2A C2A 1_555 1_555
C3A C2A 1_555 1_555
H3A C3A 1_555 1_555
C4A C3A 1_555 1_555
H4A C4A 1_555 1_555
C5A C4A 1_555 1_555
C6A C5A 1_555 1_555
C7A C6A 1_555 1_555
H5A C7A 1_555 1_555
C8A C7A 1_555 1_555
C9A C8A 1_555 1_555
C10A C9A 1_555 1_555
H6A C10A 1_555 1_555
C11A C10A 1_555 1_555
H7A C11A 1_555 1_555
C12A C11A 1_555 1_555
C13A C12A 1_555 1_555
H8A C13A 1_555 1_555
H9A C13A 1_555 1_555
H10A C13A 1_555 1_555
C14A C12A 1_555 1_555
H11A C14A 1_555 1_555
C15A C9A 1_555 1_555
H12A C15A 1_555 1_555
C16A C8A 1_555 1_555
H13A C16A 1_555 1_555
C17A C16A 1_555 1_555
C18A C17A 1_555 1_555
C19A C18A 1_555 1_555
H14A C19A 1_555 1_555
C20A C19A 1_555 1_555
H15A C20A 1_555 1_555
C21A C20A 1_555 1_555
H16A C21A 1_555 1_555
C22A C21A 1_555 1_555
H17A C22A 1_555 1_555
Cu2_2 C24A 1_555 1_555
Cu3A C23A 1_555 1_555
Cu4A C25A 1_555 1_555
Cu5A Cu6A 1_555 1_555
Cu5_2 N5_2 1_555 1_555
Cu6A C26A 1_555 1_555
Cu6_2 C27 1_555 1_555
N1A Cu1 1_555 1_555
C23A N1A 1_555 1_555
C24A N2A 1_555 1_555
C24A_2 Cu2 1_555 1_555
N2A Cu3A 1_555 1_555
N3A Cu3A 1_555 1_555
C25A N3A 1_555 1_555
N4A Cu4A 1_555 1_555
C26A Cu5A 1_555 1_555
N5_2 C27_2 1_555 1_555
N5A Cu5A 1_555 1_555
C27_2 Cu6 1_555 1_555
C27A Cu6A 1_555 1_555
N6A C18A 1_555 1_555
N7A C6A 1_555 1_555
N8A C1A 1_555 1_555
C5 N8 1_555 1_555
C14 C15 1_555 1_555
C17 N7 1_555 1_555
C22 N6 1_555 1_555
Cu5 N7 1_555 1_555
Cu5 N8 1_555 1_555
Cu6 N6 1_555 1_555
N4 C26 1_555 1_555
C5A N8A 1_555 1_555
C14A C15A 1_555 1_555
C17A N7A 1_555 1_555
C22A N6A 1_555 1_555
Cu5A N7A 1_555 1_555
Cu5A N8A 1_555 1_555
Cu6A N6A 1_555 1_555
N4A C26A 1_555 1_555

#END
