
#######################################################################
#
#                 Cambridge Crystallographic Data Centre
#                                CCDC 
#
#######################################################################
#
# If this CIF has been generated from an entry in the Cambridge 
# Structural Database, then it will include bibliographic, chemical, 
# crystal, experimental, refinement or atomic coordinate data resulting 
# from the CCDC's data processing and validation procedures.
#
#######################################################################

data_QUMGUC
_symmetry_cell_setting           triclinic
_symmetry_space_group_name_H-M   'P -1'
_symmetry_Int_Tables_number      2
_space_group_name_Hall           '-P 1'
loop_
_symmetry_equiv_pos_site_id
_symmetry_equiv_pos_as_xyz
1 x,y,z
2 -x,-y,-z
_cell_length_a                   8.2610(3)
_cell_length_b                   10.9581(5)
_cell_length_c                   11.4372(5)
_cell_angle_alpha                61.932(3)
_cell_angle_beta                 76.768(3)
_cell_angle_gamma                67.972(3)
_cell_volume                     845.151
loop_
_atom_site_label
_atom_site_type_symbol
_atom_site_fract_x
_atom_site_fract_y
_atom_site_fract_z
Br1 Br 0.48898(10) 0.31087(10) 0.20899(8)
Cu1 Cu 0.21395(12) 0.45700(10) 0.31582(8)
Cu2 Cu 0.61924(13) 0.33689(11) 0.34503(10)
C1 C 0.1340(10) 0.1597(8) 0.4831(7)
H1 H 0.1390 0.1558 0.4029
C2 C 0.0978(11) 0.0515(8) 0.7174(8)
H2 H 0.0790 -0.0241 0.7973
C3 C 0.4346(10) 0.9005(8) 0.3572(8)
H3 H 0.4638 0.9496 0.3930
C4 C 0.1059(11) 0.0451(8) 0.5980(8)
H4 H 0.0927 -0.0344 0.5957
C5 C 0.4408(11) 0.9543(9) 0.2209(8)
H5 H 0.4747 1.0368 0.1657
C6 C 0.3961(12) 0.8830(9) 0.1709(8)
H6 H 0.3989 0.9173 0.0792
N1 N 0.2465(6) 0.4961(5) 0.4625(5)
N2 N 0.2565(7) 0.5673(6) 0.6156(5)
C7 C 0.1862(8) 0.4074(7) 0.5841(6)
C8 C 0.1875(8) 0.4547(7) 0.6773(6)
N3 N 0.3891(7) 0.7821(6) 0.4402(6)
C9 C 0.1482(8) 0.2818(6) 0.5966(6)
C10 C 0.3428(8) 0.7127(7) 0.3886(6)
C11 C 0.2853(8) 0.5892(7) 0.4870(6)
N4 N 0.1546(7) 0.2765(6) 0.4797(5)
C12 C 0.1181(9) 0.1717(7) 0.7165(7)
H7 H 0.1115 0.1783 0.7957
C13 C 0.3454(10) 0.7580(8) 0.2534(7)
H8 H 0.3151 0.7084 0.2188
C14 C 0.1137(9) 0.4087(7) 0.8162(6)
N5 N -0.0572(7) 0.4213(6) 0.8360(5)
C15 C 0.2185(9) 0.3550(8) 0.9214(7)
H9 H 0.3356 0.3508 0.9052
C16 C 0.1434(10) 0.3084(7) 1.0499(6)
H10 H 0.2091 0.2723 1.1218
C17 C -0.0310(10) 0.3167(7) 1.0690(6)
H11 H -0.0835 0.2832 1.1544
C18 C -0.1258(9) 0.3749(7) 0.9608(6)
H12 H -0.2439 0.3825 0.9750
Cu1A Cu -0.21395(12) 0.54300(10) 0.68418(8)
Cu2A Cu 0.38076(13) 0.66311(11) 0.65497(10)
N2A N 0.7435(7) 0.4327(6) 0.3844(5)
N3A N 0.6109(7) 0.2179(6) 0.5598(6)
N5A N 0.0572(7) 0.5787(6) 0.1640(5)
loop_
_geom_bond_atom_site_label_1
_geom_bond_atom_site_label_2
_geom_bond_site_symmetry_1
_geom_bond_site_symmetry_2
Br1 Cu1 1_555 1_555
Cu1 N1 1_555 1_555
Cu2 Br1 1_555 1_555
C1 H1 1_555 1_555
C2 H2 1_555 1_555
C3 H3 1_555 1_555
C4 C1 1_555 1_555
H4 C4 1_555 1_555
C5 C3 1_555 1_555
H5 C5 1_555 1_555
C6 C5 1_555 1_555
H6 C6 1_555 1_555
N1 C7 1_555 1_555
N2 C8 1_555 1_555
C7 C8 1_555 1_555
C8 C14 1_555 1_555
N3 C3 1_555 1_555
C9 C7 1_555 1_555
C10 N3 1_555 1_555
C11 N1 1_555 1_555
N4 Cu1 1_555 1_555
C12 C2 1_555 1_555
H7 C12 1_555 1_555
C13 C6 1_555 1_555
H8 C13 1_555 1_555
C14 N5 1_555 1_555
N5 C18 1_555 1_555
C15 C14 1_555 1_555
H9 C15 1_555 1_555
C16 C15 1_555 1_555
H10 C16 1_555 1_555
C17 C16 1_555 1_555
H11 C17 1_555 1_555
C18 C17 1_555 1_555
H12 C18 1_555 1_555
Cu1A N5 1_555 1_555
Cu2A N2 1_555 1_555
N2A Cu2 1_555 1_555
N3A Cu2 1_555 1_555
N5A Cu1 1_555 1_555
C1 N4 1_555 1_555
C2 C4 1_555 1_555
N2 C11 1_555 1_555
N3 Cu2A 1_555 1_555
C9 N4 1_555 1_555
C9 C12 1_555 1_555
C10 C11 1_555 1_555
C10 C13 1_555 1_555

#END
