
#######################################################################
#
#                 Cambridge Crystallographic Data Centre
#                                CCDC 
#
#######################################################################
#
# If this CIF has been generated from an entry in the Cambridge 
# Structural Database, then it will include bibliographic, chemical, 
# crystal, experimental, refinement or atomic coordinate data resulting 
# from the CCDC's data processing and validation procedures.
#
#######################################################################

data_QUMJEP
_symmetry_cell_setting           monoclinic
_symmetry_space_group_name_H-M   'C 2/c'
_symmetry_Int_Tables_number      15
_space_group_name_Hall           '-C 2yn'
loop_
_symmetry_equiv_pos_site_id
_symmetry_equiv_pos_as_xyz
1 x,y,z
2 -x,y,1/2-z
3 1/2+x,1/2+y,z
4 1/2-x,1/2+y,1/2-z
5 -x,-y,-z
6 x,-y,1/2+z
7 1/2-x,1/2-y,-z
8 1/2+x,1/2-y,1/2+z
_cell_length_a                   29.726(9)
_cell_length_b                   9.186(3)
_cell_length_c                   16.198(3)
_cell_angle_alpha                90
_cell_angle_beta                 112.79(3)
_cell_angle_gamma                90
_cell_volume                     4077.77
loop_
_atom_site_label
_atom_site_type_symbol
_atom_site_fract_x
_atom_site_fract_y
_atom_site_fract_z
Dy1 Dy 0.497200(10) 0.83763(4) 0.40382(2)
C1 C 0.9203(2) 0.3890(8) 0.5062(4)
C2 C 0.8661(2) 0.3662(7) 0.4789(4)
C3 C 0.8404(2) 0.4619(7) 0.5105(4)
H1 H 0.8565 0.5341 0.5514
C4 C 0.7901(2) 0.4477(6) 0.4799(4)
C5 C 0.7657(2) 0.3389(6) 0.4212(4)
H2 H 0.7322 0.3270 0.4038
C6 C 0.79198(19) 0.2475(6) 0.3886(3)
C7 C 0.8420(2) 0.2592(7) 0.4180(4)
H3 H 0.8594 0.1953 0.3970
C8 C 0.7192(2) 0.5859(6) 0.4588(4)
C9 C 0.6857(2) 0.5966(7) 0.4974(4)
H4 H 0.6943 0.5711 0.5571
C10 C 0.6391(2) 0.6457(7) 0.4471(4)
H5 H 0.6166 0.6551 0.4737
C11 C 0.6257(2) 0.6808(6) 0.3582(4)
C12 C 0.6604(2) 0.6697(6) 0.3200(4)
H6 H 0.6519 0.6948 0.2602
C13 C 0.7069(2) 0.6223(7) 0.3695(4)
H7 H 0.7299 0.6146 0.3437
C14 C 0.57554(19) 0.7353(6) 0.3051(4)
C15 C 0.7194(2) 0.1537(6) 0.2761(4)
C16 C 0.7000(2) 0.2746(7) 0.2247(4)
H8 H 0.7198 0.3538 0.2261
C17 C 0.6512(2) 0.2771(7) 0.1713(4)
H9 H 0.6378 0.3592 0.1368
C18 C 0.6216(2) 0.1596(7) 0.1679(4)
C19 C 0.6416(2) 0.0417(7) 0.2207(4)
H10 H 0.6218 -0.0371 0.2197
C20 C 0.6905(2) 0.0366(7) 0.2755(4)
H11 H 0.7036 -0.0444 0.3112
C21 C 0.5693(2) 0.1560(8) 0.1024(5)
O1 O 0.93938(16) 0.4906(6) 0.5587(3)
O2 O 0.94239(16) 0.3048(6) 0.4734(3)
O3 O 0.76577(14) 0.5423(5) 0.5138(3)
O4 O 0.76944(14) 0.1403(4) 0.3272(3)
O5 O 0.54547(14) 0.7369(5) 0.3425(3)
O6 O 0.56613(15) 0.7762(5) 0.2265(3)
O7 O 0.55529(17) 0.2481(8) 0.0414(3)
O8 O 0.54270(17) 0.0544(7) 0.1087(4)
H12 H 0.5065 0.5262 0.4018
H13 H 0.4565 0.5515 0.3722
O9 O 0.4844(2) 0.5748(7) 0.4108(4)
Dy1A Dy 0.502800(10) -0.16237(4) 0.09618(2)
Dy1A_2 Dy 0.502800(10) 0.83763(4) 0.09618(2)
Dy1B Dy 0.997200(10) 0.33763(4) 0.40382(2)
Dy1E Dy 0.497200(10) 0.16237(4) -0.09618(2)
Dy1F Dy 1.002800(10) 0.66237(4) 0.59618(2)
O1F O 0.56062(16) 1.0094(6) 0.4413(3)
O2B O 0.44239(16) 0.8048(6) 0.4734(3)
O6A O 0.43387(15) 0.7762(5) 0.2735(3)
O7E O 0.55529(17) 0.7519(8) 0.5414(3)
O8A O 0.45730(17) 1.0544(7) 0.3913(4)
O10 O 0.5000 1.0100(13) 0.2500
H14 H 0.5211 1.0639 0.2888
H14A H 0.4789 1.0639 0.2112
loop_
_geom_bond_atom_site_label_1
_geom_bond_atom_site_label_2
_geom_bond_site_symmetry_1
_geom_bond_site_symmetry_2
Dy1 O5 1_555 1_555
C1 C2 1_555 1_555
C2 C3 1_555 1_555
C3 H1 1_555 1_555
C4 C3 1_555 1_555
C5 C4 1_555 1_555
H2 C5 1_555 1_555
C6 C5 1_555 1_555
C7 C2 1_555 1_555
H3 C7 1_555 1_555
C8 C9 1_555 1_555
C9 H4 1_555 1_555
C10 C9 1_555 1_555
H5 C10 1_555 1_555
C11 C10 1_555 1_555
C12 C11 1_555 1_555
H6 C12 1_555 1_555
C13 C8 1_555 1_555
H7 C13 1_555 1_555
C14 C11 1_555 1_555
C15 C16 1_555 1_555
C16 H8 1_555 1_555
C17 C16 1_555 1_555
H9 C17 1_555 1_555
C18 C17 1_555 1_555
C19 C18 1_555 1_555
H10 C19 1_555 1_555
C20 C15 1_555 1_555
H11 C20 1_555 1_555
C21 C18 1_555 1_555
O1 C1 1_555 1_555
O2 C1 1_555 1_555
O3 C4 1_555 1_555
O4 C6 1_555 1_555
O5 C14 1_555 1_555
O6 C14 1_555 1_555
O7 C21 1_555 1_555
O8 C21 1_555 1_555
H12 O9 1_555 1_555
H13 O9 1_555 1_555
O9 Dy1 1_555 1_555
O10 H14 1_555 1_555
Dy1A O8 1_555 1_555
Dy1A_2 O6 1_555 1_555
Dy1B O2 1_555 1_555
Dy1E O7 1_555 1_555
Dy1F O1 1_555 1_555
O1F Dy1 1_555 1_555
O2B Dy1 1_555 1_555
O6A Dy1 1_555 1_555
O7E Dy1 1_555 1_555
O8A Dy1 1_555 1_555
H14A O10 1_555 1_555
C6 C7 1_555 1_555
C8 O3 1_555 1_555
C12 C13 1_555 1_555
C15 O4 1_555 1_555
C19 C20 1_555 1_555

#END
