
#######################################################################
#
#                 Cambridge Crystallographic Data Centre
#                                CCDC 
#
#######################################################################
#
# If this CIF has been generated from an entry in the Cambridge 
# Structural Database, then it will include bibliographic, chemical, 
# crystal, experimental, refinement or atomic coordinate data resulting 
# from the CCDC's data processing and validation procedures.
#
#######################################################################

data_QUMJAL
_symmetry_cell_setting           monoclinic
_symmetry_space_group_name_H-M   'P 21/n'
_symmetry_Int_Tables_number      14
_space_group_name_Hall           '-P 2yn'
loop_
_symmetry_equiv_pos_site_id
_symmetry_equiv_pos_as_xyz
1 x,y,z
2 1/2-x,1/2+y,1/2-z
3 -x,-y,-z
4 1/2+x,1/2-y,1/2+z
_cell_length_a                   15.438(5)
_cell_length_b                   13.842(5)
_cell_length_c                   17.699(5)
_cell_angle_alpha                90
_cell_angle_beta                 99.919(5)
_cell_angle_gamma                90
_cell_volume                     3725.61
loop_
_atom_site_label
_atom_site_type_symbol
_atom_site_fract_x
_atom_site_fract_y
_atom_site_fract_z
C1 C 0.2663(3) 0.1423(4) 0.1014(3)
C2 C 0.3464(3) 0.1082(3) 0.1367(3)
C3 C 0.2680(3) 0.1450(5) 0.0238(3)
C4 C 0.3811(4) 0.0854(5) 0.2182(3)
H1 H 0.4407 0.0632 0.2230
H2 H 0.3456 0.0359 0.2355
H3 H 0.3793 0.1424 0.2488
C5 C 0.1991(4) 0.1772(7) -0.0421(3)
H4 H 0.2213 0.1701 -0.0892
H5 H 0.1847 0.2437 -0.0351
H6 H 0.1474 0.1382 -0.0439
C6 C 0.1470(3) 0.1166(4) 0.1782(3)
C7 C 0.1691(3) 0.2710(4) 0.1351(3)
C8 C 0.0935(3) 0.2735(4) 0.1775(3)
C9 C 0.0809(3) 0.1816(3) 0.2044(3)
C10 C 0.0128(3) 0.1632(3) 0.2435(3)
H7 H 0.0044 0.1014 0.2616
C11 C -0.0435(3) 0.2386(3) 0.2555(2)
C12 C -0.0296(3) 0.3311(3) 0.2279(2)
C13 C 0.0395(3) 0.3484(3) 0.1886(3)
H8 H 0.0487 0.4098 0.1703
C14 C -0.0877(3) 0.4174(3) 0.2361(3)
C15 C -0.1207(3) 0.2161(4) 0.2953(3)
C16 C 0.0025(3) -0.2429(4) 0.1443(3)
C17 C -0.0465(3) -0.3271(4) 0.1318(3)
C18 C -0.0303(5) -0.1916(5) 0.1993(4)
C19 C -0.0415(4) -0.4054(4) 0.0756(4)
H9 H -0.0841 -0.4542 0.0810
H10 H 0.0163 -0.4332 0.0849
H11 H -0.0534 -0.3794 0.0246
C20 C -0.0061(9) -0.0966(8) 0.2324(8)
H12 H -0.0416 -0.0819 0.2704
H13 H -0.0155 -0.0486 0.1926
H14 H 0.0548 -0.0969 0.2558
C21 C 0.1607(3) -0.2018(4) 0.1395(3)
C22 C 0.0579(3) -0.1906(4) 0.0266(3)
C23 C 0.1456(3) -0.1638(4) 0.0095(3)
C24 C 0.1691(3) -0.1391(4) -0.0586(3)
H15 H 0.1271 -0.1347 -0.1030
C25 C 0.2578(3) -0.1203(4) -0.0606(3)
C26 C 0.3200(3) -0.1295(4) 0.0065(3)
C27 C 0.2946(3) -0.1542(4) 0.0760(3)
H16 H 0.3360 -0.1594 0.1207
C28 C 0.2068(3) -0.1708(4) 0.0766(3)
C29 C 0.2788(4) -0.0944(7) -0.1382(3)
C30 C 0.4165(3) -0.1122(4) 0.0049(3)
N1 N 0.1967(2) 0.1749(3) 0.1377(2)
N2 N 0.3935(3) 0.0921(3) 0.0804(2)
N3 N 0.3459(3) 0.1154(4) 0.0109(2)
N4 N 0.0714(3) -0.2128(3) 0.1052(2)
N5 N -0.1054(3) -0.3287(3) 0.1793(2)
N6 N -0.0935(3) -0.2458(4) 0.2198(3)
O1 O -0.1570(2) 0.2834(2) 0.32505(19)
O2 O -0.1437(2) 0.1288(3) 0.2934(2)
O3 O -0.0653(2) 0.4714(3) 0.2923(2)
O4 O -0.1512(3) 0.4331(3) 0.1836(2)
O5 O 0.2008(3) 0.3364(3) 0.1042(2)
O6 O 0.1577(3) 0.0311(3) 0.1887(3)
O7 O 0.2699(3) -0.0069(5) -0.1577(3)
O8 O 0.2969(3) -0.1619(5) -0.1799(2)
O9 O 0.4369(2) -0.0683(3) -0.05176(19)
O10 O 0.4696(2) -0.1431(3) 0.0619(2)
O11 O 0.1899(3) -0.2170(3) 0.2053(2)
O12 O -0.0115(2) -0.1936(4) -0.0159(2)
Cd1 Cd 0.39316(2) 0.08705(3) -0.09968(2)
Cd2 Cd -0.28067(2) 0.07417(3) 0.29894(2)
O13 O -0.2341(4) 0.0612(5) 0.4266(3)
C31 C -0.1947(7) 0.0338(7) 0.4824(5)
N7 N -0.1410(10) 0.0360(10) 0.5335(7)
C32 C -0.2474(11) -0.0621(9) 0.5169(9)
H17 H -0.3046 -0.0425 0.5272
H18 H -0.2555 -0.1146 0.4801
C33 C -0.0913(11) 0.1397(9) 0.5274(14)
C34 C -0.197(2) -0.0887(13) 0.5793(12)
H19 H -0.1716 -0.1514 0.5727
H20 H -0.2306 -0.0930 0.6209
C35 C -0.1170(14) -0.0030(16) 0.5990(10)
H21 H -0.1242 0.0389 0.6414
H22 H -0.0580 -0.0295 0.6061
C36 C -0.1734(7) -0.1694(8) 0.3470(7)
O14 O -0.1889(9) -0.0935(9) 0.2928(8)
N5A N -0.3946(3) 0.1713(3) 0.3207(2)
O1C O 0.3430(2) 0.2166(2) -0.17495(19)
O3C O 0.4347(2) 0.0286(3) -0.2077(2)
O4A O -0.3488(3) -0.0669(3) 0.3164(2)
O7B O -0.2699(3) 0.0069(5) 0.1577(3)
O8B O -0.2969(3) 0.1619(5) 0.1799(2)
O10B O 0.5304(2) 0.1431(3) -0.0619(2)
Cd1B Cd 0.60684(2) -0.08705(3) 0.09968(2)
Cd1C Cd -0.10684(2) 0.41295(3) 0.40032(2)
Cd2A Cd -0.21933(2) -0.42583(3) 0.20106(2)
Cd2A_2 Cd -0.21933(2) 0.57417(3) 0.20106(2)
Cd2B Cd 0.28067(2) -0.07417(3) -0.29894(2)
loop_
_geom_bond_atom_site_label_1
_geom_bond_atom_site_label_2
_geom_bond_site_symmetry_1
_geom_bond_site_symmetry_2
C1 C2 1_555 1_555
C2 C4 1_555 1_555
C3 C1 1_555 1_555
C4 H1 1_555 1_555
H2 C4 1_555 1_555
H3 C4 1_555 1_555
C5 C3 1_555 1_555
H4 C5 1_555 1_555
H5 C5 1_555 1_555
H6 C5 1_555 1_555
C6 C9 1_555 1_555
C7 C8 1_555 1_555
C8 C9 1_555 1_555
C9 C10 1_555 1_555
C10 H7 1_555 1_555
C11 C10 1_555 1_555
C12 C11 1_555 1_555
C13 C8 1_555 1_555
H8 C13 1_555 1_555
C14 C12 1_555 1_555
C15 C11 1_555 1_555
C16 C17 1_555 1_555
C17 C19 1_555 1_555
C18 C16 1_555 1_555
C19 H9 1_555 1_555
H10 C19 1_555 1_555
H11 C19 1_555 1_555
C20 C18 1_555 1_555
H12 C20 1_555 1_555
H13 C20 1_555 1_555
H14 C20 1_555 1_555
C21 C28 1_555 1_555
C22 C23 1_555 1_555
C23 C24 1_555 1_555
C24 H15 1_555 1_555
C25 C24 1_555 1_555
C26 C25 1_555 1_555
C27 C26 1_555 1_555
H16 C27 1_555 1_555
C28 C23 1_555 1_555
C29 C25 1_555 1_555
C30 C26 1_555 1_555
N1 C1 1_555 1_555
N2 C2 1_555 1_555
N3 C3 1_555 1_555
N4 C16 1_555 1_555
N5 C17 1_555 1_555
N6 C18 1_555 1_555
O1 C15 1_555 1_555
O2 C15 1_555 1_555
O3 C14 1_555 1_555
O4 C14 1_555 1_555
O5 C7 1_555 1_555
O6 C6 1_555 1_555
O7 C29 1_555 1_555
O8 C29 1_555 1_555
O9 C30 1_555 1_555
O10 C30 1_555 1_555
O11 C21 1_555 1_555
O12 C22 1_555 1_555
Cd1 N3 1_555 1_555
Cd2 O2 1_555 1_555
O13 Cd2 1_555 1_555
C31 O13 1_555 1_555
N7 C31 1_555 1_555
C32 C31 1_555 1_555
H17 C32 1_555 1_555
H18 C32 1_555 1_555
C33 N7 1_555 1_555
C34 C32 1_555 1_555
H19 C34 1_555 1_555
H20 C34 1_555 1_555
C35 N7 1_555 1_555
H21 C35 1_555 1_555
H22 C35 1_555 1_555
C36 O14 1_555 1_555
O14 Cd2 1_555 1_555
N5A Cd2 1_555 1_555
O1C Cd1 1_555 1_555
O3C Cd1 1_555 1_555
O4A Cd2 1_555 1_555
O7B Cd2 1_555 1_555
O8B Cd2 1_555 1_555
O10B Cd1 1_555 1_555
Cd1B O10 1_555 1_555
Cd1C O1 1_555 1_555
Cd2A N5 1_555 1_555
Cd2A_2 O4 1_555 1_555
Cd2B O7 1_555 1_555
C6 N1 1_555 1_555
C7 N1 1_555 1_555
C12 C13 1_555 1_555
C21 N4 1_555 1_555
C22 N4 1_555 1_555
C27 C28 1_555 1_555
N2 N3 1_555 1_555
N5 N6 1_555 1_555
O3 Cd1C 1_555 1_555
O7 Cd1 1_555 1_555
O8 Cd2B 1_555 1_555
O9 Cd1 1_555 1_555
C34 C35 1_555 1_555

#END
