
#######################################################################
#
#                 Cambridge Crystallographic Data Centre
#                                CCDC 
#
#######################################################################
#
# If this CIF has been generated from an entry in the Cambridge 
# Structural Database, then it will include bibliographic, chemical, 
# crystal, experimental, refinement or atomic coordinate data resulting 
# from the CCDC's data processing and validation procedures.
#
#######################################################################

data_QUMJIT
_symmetry_cell_setting           triclinic
_symmetry_space_group_name_H-M   'P -1'
_symmetry_Int_Tables_number      2
_space_group_name_Hall           '-P 1'
loop_
_symmetry_equiv_pos_site_id
_symmetry_equiv_pos_as_xyz
1 x,y,z
2 -x,-y,-z
_cell_length_a                   15.4665(9)
_cell_length_b                   17.9199(10)
_cell_length_c                   19.0498(10)
_cell_angle_alpha                104.458(5)
_cell_angle_beta                 107.334(5)
_cell_angle_gamma                111.725(5)
_cell_volume                     4278.97
loop_
_atom_site_label
_atom_site_type_symbol
_atom_site_fract_x
_atom_site_fract_y
_atom_site_fract_z
O1 O 0.2569(6) 0.8544(5) 0.2726(4)
C1 C 0.1604(8) 0.8178(7) 0.2448(6)
C2 C 0.1104(8) 0.8675(7) 0.2154(6)
O2 O 0.1036(6) 0.7412(5) 0.2348(5)
O3 O -0.0938(7) 0.5191(5) -0.1674(5)
C3 C 0.0007(9) 0.8268(7) 0.1731(8)
C4 C 0.1687(9) 0.9540(8) 0.2283(8)
C5 C -0.0444(10) 0.8738(9) 0.1446(8)
H1 H -0.0403 0.7692 0.1647
H2 H 0.2403 0.9814 0.2558
C6 C 0.1215(9) 1.0002(7) 0.2007(8)
C7 C 0.0167(9) 0.9604(7) 0.1607(7)
H3 H -0.1156 0.8470 0.1147
H4 H 0.1614 1.0582 0.2095
O4 O -0.0244(7) 1.0122(5) 0.1367(5)
O5 O 0.0109(8) 0.6028(7) -0.2085(5)
C8 C -0.1133(9) 0.9689(7) 0.0645(7)
C9 C -0.1937(9) 0.9887(7) 0.0637(7)
C10 C -0.1216(9) 0.9135(8) -0.0042(7)
C11 C -0.2826(8) 0.9488(7) -0.0065(7)
H5 H -0.1866 1.0281 0.1101
H6 H -0.0668 0.9033 -0.0038
C12 C -0.2103(9) 0.8736(7) -0.0731(7)
C13 C -0.3694(8) 0.9686(7) -0.0077(6)
C14 C -0.2913(9) 0.8915(7) -0.0754(7)
O6 O -0.2257(7) 0.8171(6) -0.1446(5)
O7 O -0.3540(6) 1.0282(5) 0.0517(5)
O8 O -0.4559(6) 0.9227(5) -0.0710(5)
H7 H -0.3511 0.8649 -0.1232
C15 C -0.1743(9) 0.7663(8) -0.1430(8)
C16 C -0.1792(10) 0.7151(8) -0.1007(8)
C17 C -0.1200(10) 0.7677(8) -0.1920(8)
H8 H -0.2094 0.7184 -0.0653
C18 C -0.1395(10) 0.6587(7) -0.1105(8)
C19 C -0.0783(10) 0.7130(8) -0.1978(7)
H9 H -0.1134 0.8048 -0.2189
H10 H -0.1457 0.6219 -0.0833
C20 C -0.0908(9) 0.6554(7) -0.1597(7)
H11 H -0.0406 0.7140 -0.2278
C21 C -0.0525(10) 0.5889(8) -0.1805(7)
O9 O 0.2569(7) 0.7580(6) 0.3730(5)
H12 H 0.2252 0.7769 0.3959
H13 H 0.2880 0.7395 0.4035
O10 O 0.5256(6) 0.1128(5) 0.5100(5)
O11 O 0.4346(6) 0.0416(5) 0.3772(5)
O12 O 0.2075(6) 0.5819(6) 0.3332(5)
C22 C 0.1877(8) 0.5247(7) 0.3617(7)
C23 C 0.2628(8) 0.4908(7) 0.3816(6)
O13 O 0.1093(6) 0.4938(5) 0.3771(5)
C24 C 0.2434(8) 0.4262(7) 0.4098(7)
C25 C 0.3468(8) 0.5210(7) 0.3630(7)
H14 H 0.1864 0.4062 0.4209
C26 C 0.3104(9) 0.3912(7) 0.4216(7)
C27 C 0.4114(9) 0.4840(7) 0.3763(8)
H15 H 0.3589 0.5640 0.3426
O14 O 0.7740(6) 0.3537(5) 0.2902(5)
C28 C 0.3941(9) 0.4196(7) 0.4071(7)
O15 O 0.2874(7) 0.3274(5) 0.4522(5)
O16 O 0.4976(7) 0.5198(5) 0.3625(6)
H16 H 0.4396 0.3970 0.4174
C29 C 0.3358(9) 0.2757(8) 0.4481(8)
C30 C 0.5365(9) 0.4641(8) 0.3365(8)
C31 C 0.3898(9) 0.2731(7) 0.5185(7)
C32 C 0.3248(9) 0.2254(8) 0.3756(7)
C33 C 0.4772(10) 0.3826(9) 0.2777(8)
C34 C 0.6438(9) 0.5027(8) 0.3705(8)
H17 H 0.3953 0.3074 0.5668
C35 C 0.4353(10) 0.2207(7) 0.5182(7)
C36 C 0.3691(10) 0.1695(7) 0.3741(7)
H18 H 0.2889 0.2281 0.3284
H19 H 0.4057 0.3577 0.2558
C37 C 0.5226(9) 0.3354(7) 0.2497(8)
C38 C 0.6876(9) 0.4540(8) 0.3441(7)
H20 H 0.6847 0.5598 0.4099
O17 O 0.6240(6) 0.2526(6) 0.1940(5)
H21 H 0.4729 0.2205 0.5663
C39 C 0.4258(8) 0.1679(6) 0.4465(6)
H22 H 0.3610 0.1336 0.3254
H23 H 0.4813 0.2801 0.2074
C40 C 0.6303(8) 0.3705(7) 0.2850(6)
H24 H 0.7592 0.4789 0.3674
C41 C 0.4646(8) 0.1042(7) 0.4451(7)
C42 C 0.6801(8) 0.3234(7) 0.2562(7)
O18 O -0.5785(6) 0.7836(4) 0.3127(4)
O19 O -0.0626(6) 0.5454(5) 0.1655(5)
O20 O -0.7344(6) 0.6710(5) 0.2328(5)
C43 C -0.1429(9) 0.5086(7) 0.1759(7)
C44 C -0.2290(8) 0.5310(7) 0.1440(6)
O21 O -0.1555(6) 0.4598(5) 0.2118(5)
C45 C -0.2212(8) 0.5865(7) 0.1054(7)
C46 C -0.3110(9) 0.5011(7) 0.1628(7)
H25 H -0.1650 0.6071 0.0935
C47 C -0.2958(9) 0.6125(7) 0.0838(7)
C48 C -0.3852(9) 0.5255(7) 0.1418(7)
H26 H -0.3158 0.4643 0.1900
C49 C -0.3808(9) 0.5806(8) 0.0987(7)
O22 O -0.2821(7) 0.6711(6) 0.0469(5)
O23 O -0.4701(6) 0.4917(5) 0.1577(5)
H27 H -0.4336 0.5942 0.0813
C50 C -0.3378(11) 0.7167(8) 0.0515(8)
C51 C -0.5064(9) 0.5498(8) 0.1823(8)
C52 C -0.4087(10) 0.7071(8) -0.0181(8)
C53 C -0.3208(10) 0.7715(8) 0.1264(7)
C54 C -0.4433(9) 0.6351(8) 0.2375(7)
C55 C -0.6131(10) 0.5127(8) 0.1570(8)
O24 O -0.5805(8) 0.8415(6) 0.0001(6)
H28 H -0.4176 0.6718 -0.0675
C56 C -0.4673(10) 0.7494(8) -0.0157(7)
C57 C -0.3799(10) 0.8149(8) 0.1288(7)
H29 H -0.2715 0.7790 0.1736
H30 H -0.3720 0.6587 0.2573
C58 C -0.4842(9) 0.6855(7) 0.2635(7)
C59 C -0.6533(9) 0.5634(7) 0.1833(8)
H31 H -0.6562 0.4537 0.1225
H32 H -0.5165 0.7415 -0.0633
C60 C -0.4519(10) 0.8050(8) 0.0597(7)
H33 H -0.3698 0.8511 0.1783
H34 H -0.4407 0.7437 0.3001
C61 C -0.5894(8) 0.6510(7) 0.2359(7)
H35 H -0.7244 0.5392 0.1658
C62 C -0.5197(10) 0.8463(8) 0.0614(8)
C63 C -0.6368(8) 0.7077(7) 0.2646(6)
O25 O -0.5084(8) 0.8875(6) 0.1294(6)
O26 O 0.0811(7) 0.6063(6) 0.1044(5)
H36 H 0.1344 0.6129 0.0967
H37 H 0.0649 0.6447 0.0957
O27 O -0.3222(6) 1.0573(5) 0.5552(5)
O28 O -0.4087(6) 0.9769(5) 0.4245(5)
O29 O 0.0395(6) 0.6221(5) 0.3284(5)
O30 O 0.0706(6) 0.7081(5) 0.7050(5)
O31 O -0.0502(6) 0.5572(5) 0.3845(5)
C64 C 0.1320(8) 0.7884(7) 0.7330(6)
C65 C 0.0913(8) 0.8454(7) 0.7050(6)
O32 O 0.2239(7) 0.8254(6) 0.7793(5)
C66 C -0.0138(9) 0.8125(7) 0.6602(7)
C67 C 0.1597(10) 0.9336(8) 0.7291(7)
C68 C -0.0528(10) 0.8666(9) 0.6377(7)
H38 H -0.0591 0.7536 0.6449
H39 H 0.2298 0.9565 0.7608
C69 C 0.1211(10) 0.9881(8) 0.7048(7)
C70 C 0.0159(9) 0.9534(8) 0.6595(7)
H40 H -0.1234 0.8444 0.6087
H41 H 0.1661 1.0467 0.7191
O33 O -0.0157(6) 1.0113(5) 0.6426(5)
C71 C -0.0979(8) 0.9803(7) 0.5701(6)
C72 C -0.1685(9) 1.0098(7) 0.5664(7)
C73 C -0.1054(9) 0.9252(7) 0.5005(7)
C74 C -0.2507(8) 0.9830(7) 0.4938(6)
H42 H -0.1613 1.0485 0.6133
H43 H -0.0541 0.9095 0.5019
C75 C -0.1916(9) 0.8936(7) 0.4277(7)
C76 C -0.3346(8) 1.0068(7) 0.4890(6)
C77 C -0.2620(8) 0.9230(7) 0.4225(6)
O34 O -0.2055(7) 0.8362(6) 0.3565(4)
H44 H -0.3165 0.9041 0.3732
C78 C -0.1571(10) 0.7840(8) 0.3629(7)
C79 C -0.1692(10) 0.7333(8) 0.4057(8)
C80 C -0.0983(9) 0.7828(7) 0.3198(7)
H45 H -0.2075 0.7351 0.4350
C81 C -0.1247(9) 0.6792(7) 0.4057(7)
C82 C -0.0543(9) 0.7270(7) 0.3192(7)
H46 H -0.0884 0.8187 0.2919
H47 H -0.1341 0.6437 0.4340
C83 C -0.0652(8) 0.6781(7) 0.3627(7)
H48 H -0.0177 0.7237 0.2887
C84 C -0.0195(8) 0.6161(7) 0.3586(7)
O35 O 0.2248(8) 0.7537(8) 0.8936(7)
H49 H 0.1803 0.7708 0.8938
H50 H 0.1968 0.7052 0.8534
O36 O 0.4157(7) 0.9369(5) 0.8080(5)
H51 H 0.4806 0.9715 0.8318
H52 H 0.3839 0.9664 0.8024
O37 O 0.4444(7) 0.9244(6) 0.2618(5)
H53 H 0.4953 0.9751 0.2782
H54 H 0.4589 0.8853 0.2416
O38 O -0.0389(7) 0.4198(6) 0.4334(5)
H55 H -0.0318 0.4668 0.4651
H56 H -0.0913 0.3759 0.4278
Er1 Er 0.41106(4) 0.90469(3) 0.37611(3)
Er2 Er -0.06403(4) 0.42508(3) 0.30579(3)
Er3 Er 0.11410(4) 0.61884(3) 0.24000(3)
Er4 Er 0.36814(4) 0.85856(3) 0.88404(3)
O3A O 0.0938(7) 0.4809(5) 0.1674(5)
O5A O -0.0109(8) 0.3972(7) 0.2085(5)
O7A O 0.3540(6) 0.9718(5) 0.9483(5)
O8_2 O 0.5441(6) 0.9227(5) 0.9290(5)
O10A O 0.4744(6) 0.8872(5) 0.4900(5)
O11_2 O 0.4346(6) 1.0416(5) 0.3772(5)
O14_2 O -0.2260(6) 0.3537(5) 0.2902(5)
O17A O 0.3760(6) 0.7474(6) 0.8060(5)
O18_2 O 0.4215(6) 0.7836(4) 0.3127(4)
O20_2 O 0.2656(6) 0.6710(5) 0.2328(5)
O24_2 O 0.4195(8) 0.8415(6) 1.0001(6)
O27A O 0.3222(6) 0.9427(5) 0.4448(5)
O28_2 O 0.5913(6) 0.9769(5) 0.4245(5)
O30A O -0.0706(6) 0.2919(5) 0.2950(5)
Er1_2 Er -0.58894(4) 0.90469(3) 0.37611(3)
Er1_3 Er 0.41106(4) -0.09531(3) 0.37611(3)
Er1A Er -0.41106(4) 1.09531(3) 0.62389(3)
Er1A_2 Er 0.58894(4) 0.09531(3) 0.62389(3)
Er2_2 Er 0.93597(4) 0.42508(3) 0.30579(3)
Er2A Er 0.06403(4) 0.57492(3) -0.30579(3)
Er2A_2 Er 0.06403(4) 0.57492(3) 0.69421(3)
Er3_2 Er -0.88590(4) 0.61884(3) 0.24000(3)
Er3A Er -0.11410(4) 0.38116(3) -0.24000(3)
Er4_2 Er -0.63186(4) 0.85856(3) -0.11596(3)
Er4A Er -0.36814(4) 1.14144(3) 0.11596(3)
Er4A_2 Er 0.63186(4) 0.14144(3) 0.11596(3)
O39 O 0.1208(8) 0.4849(7) 0.0115(5)
loop_
_geom_bond_atom_site_label_1
_geom_bond_atom_site_label_2
_geom_bond_site_symmetry_1
_geom_bond_site_symmetry_2
O1 C1 1_555 1_555
C1 C2 1_555 1_555
C2 C3 1_555 1_555
O2 C1 1_555 1_555
O3 C21 1_555 1_555
C3 C5 1_555 1_555
C4 C2 1_555 1_555
C5 C7 1_555 1_555
H1 C3 1_555 1_555
H2 C4 1_555 1_555
C6 C4 1_555 1_555
C7 C6 1_555 1_555
H3 C5 1_555 1_555
H4 C6 1_555 1_555
O4 C7 1_555 1_555
O5 C21 1_555 1_555
C8 O4 1_555 1_555
C9 C8 1_555 1_555
C10 C8 1_555 1_555
C11 C9 1_555 1_555
H5 C9 1_555 1_555
H6 C10 1_555 1_555
C12 C10 1_555 1_555
C13 C11 1_555 1_555
C14 C11 1_555 1_555
O6 C12 1_555 1_555
O7 C13 1_555 1_555
O8 C13 1_555 1_555
H7 C14 1_555 1_555
C15 O6 1_555 1_555
C16 C15 1_555 1_555
C17 C15 1_555 1_555
H8 C16 1_555 1_555
C18 C16 1_555 1_555
C19 C17 1_555 1_555
H9 C17 1_555 1_555
H10 C18 1_555 1_555
C20 C18 1_555 1_555
H11 C19 1_555 1_555
C21 C20 1_555 1_555
O9 H12 1_555 1_555
H13 O9 1_555 1_555
O10 C41 1_555 1_555
O11 C41 1_555 1_555
O12 C22 1_555 1_555
C22 C23 1_555 1_555
C23 C24 1_555 1_555
O13 C22 1_555 1_555
C24 H14 1_555 1_555
C25 C23 1_555 1_555
C26 C24 1_555 1_555
C27 C25 1_555 1_555
H15 C25 1_555 1_555
O14 C42 1_555 1_555
C28 C26 1_555 1_555
O15 C26 1_555 1_555
O16 C27 1_555 1_555
H16 C28 1_555 1_555
C29 O15 1_555 1_555
C30 O16 1_555 1_555
C31 C29 1_555 1_555
C32 C29 1_555 1_555
C33 C30 1_555 1_555
C34 C30 1_555 1_555
H17 C31 1_555 1_555
C35 C31 1_555 1_555
C36 C32 1_555 1_555
H18 C32 1_555 1_555
H19 C33 1_555 1_555
C37 C33 1_555 1_555
C38 C34 1_555 1_555
H20 C34 1_555 1_555
O17 C42 1_555 1_555
H21 C35 1_555 1_555
C39 C35 1_555 1_555
H22 C36 1_555 1_555
H23 C37 1_555 1_555
C40 C37 1_555 1_555
H24 C38 1_555 1_555
C41 C39 1_555 1_555
C42 C40 1_555 1_555
O18 C63 1_555 1_555
O19 C43 1_555 1_555
O20 C63 1_555 1_555
C43 C44 1_555 1_555
C44 C45 1_555 1_555
O21 C43 1_555 1_555
C45 H25 1_555 1_555
C46 C44 1_555 1_555
C47 C45 1_555 1_555
C48 C46 1_555 1_555
H26 C46 1_555 1_555
C49 C47 1_555 1_555
O22 C47 1_555 1_555
O23 C48 1_555 1_555
H27 C49 1_555 1_555
C50 O22 1_555 1_555
C51 O23 1_555 1_555
C52 C50 1_555 1_555
C53 C50 1_555 1_555
C54 C51 1_555 1_555
C55 C51 1_555 1_555
O24 C62 1_555 1_555
H28 C52 1_555 1_555
C56 C52 1_555 1_555
C57 C53 1_555 1_555
H29 C53 1_555 1_555
H30 C54 1_555 1_555
C58 C54 1_555 1_555
C59 C55 1_555 1_555
H31 C55 1_555 1_555
H32 C56 1_555 1_555
C60 C56 1_555 1_555
H33 C57 1_555 1_555
H34 C58 1_555 1_555
C61 C58 1_555 1_555
H35 C59 1_555 1_555
C62 C60 1_555 1_555
C63 C61 1_555 1_555
O25 C62 1_555 1_555
O26 H36 1_555 1_555
H37 O26 1_555 1_555
O27 C76 1_555 1_555
O28 C76 1_555 1_555
O29 C84 1_555 1_555
O30 C64 1_555 1_555
O31 C84 1_555 1_555
C64 C65 1_555 1_555
C65 C66 1_555 1_555
O32 C64 1_555 1_555
C66 C68 1_555 1_555
C67 C65 1_555 1_555
C68 C70 1_555 1_555
H38 C66 1_555 1_555
H39 C67 1_555 1_555
C69 C67 1_555 1_555
C70 C69 1_555 1_555
H40 C68 1_555 1_555
H41 C69 1_555 1_555
O33 C70 1_555 1_555
C71 O33 1_555 1_555
C72 C71 1_555 1_555
C73 C71 1_555 1_555
C74 C72 1_555 1_555
H42 C72 1_555 1_555
H43 C73 1_555 1_555
C75 C73 1_555 1_555
C76 C74 1_555 1_555
C77 C74 1_555 1_555
O34 C75 1_555 1_555
H44 C77 1_555 1_555
C78 O34 1_555 1_555
C79 C78 1_555 1_555
C80 C78 1_555 1_555
H45 C79 1_555 1_555
C81 C79 1_555 1_555
C82 C80 1_555 1_555
H46 C80 1_555 1_555
H47 C81 1_555 1_555
C83 C81 1_555 1_555
H48 C82 1_555 1_555
C84 C83 1_555 1_555
O35 H49 1_555 1_555
H50 O35 1_555 1_555
O36 H51 1_555 1_555
H52 O36 1_555 1_555
O37 H53 1_555 1_555
H54 O37 1_555 1_555
O38 H55 1_555 1_555
H56 O38 1_555 1_555
Er1 O1 1_555 1_555
Er2 O13 1_555 1_555
Er3 O2 1_555 1_555
Er4 O32 1_555 1_555
O3A Er3 1_555 1_555
O5A Er2 1_555 1_555
O7A Er4 1_555 1_555
O8_2 Er4 1_555 1_555
O10A Er1 1_555 1_555
O11_2 Er1 1_555 1_555
O14_2 Er2 1_555 1_555
O17A Er4 1_555 1_555
O18_2 Er1 1_555 1_555
O20_2 Er3 1_555 1_555
O24_2 Er4 1_555 1_555
O27A Er1 1_555 1_555
O28_2 Er1 1_555 1_555
O30A Er2 1_555 1_555
Er1_2 O18 1_555 1_555
Er1_3 O11 1_555 1_555
Er1A O27 1_555 1_555
Er1A_2 O10 1_555 1_555
Er2_2 O14 1_555 1_555
Er2A O5 1_555 1_555
Er2A_2 O30 1_555 1_555
Er3_2 O20 1_555 1_555
Er3A O3 1_555 1_555
Er4_2 O8 1_555 1_555
Er4A O7 1_555 1_555
Er4A_2 O17 1_555 1_555
C12 C14 1_555 1_555
C19 C20 1_555 1_555
O9 Er1 1_555 1_555
O9 Er3 1_555 1_555
O12 Er3 1_555 1_555
C27 C28 1_555 1_555
C36 C39 1_555 1_555
C38 C40 1_555 1_555
O19 Er3 1_555 1_555
O21 Er2 1_555 1_555
C48 C49 1_555 1_555
O24 Er4_2 1_555 1_555
C57 C60 1_555 1_555
C59 C61 1_555 1_555
O26 Er3 1_555 1_555
O28 Er1_2 1_555 1_555
O29 Er3 1_555 1_555
O31 Er2 1_555 1_555
C75 C77 1_555 1_555
C82 C83 1_555 1_555
O35 Er4 1_555 1_555
O36 Er4 1_555 1_555
O37 Er1 1_555 1_555
O38 Er2 1_555 1_555

#END
