
#######################################################################
#
#                 Cambridge Crystallographic Data Centre
#                                CCDC 
#
#######################################################################
#
# If this CIF has been generated from an entry in the Cambridge 
# Structural Database, then it will include bibliographic, chemical, 
# crystal, experimental, refinement or atomic coordinate data resulting 
# from the CCDC's data processing and validation procedures.
#
#######################################################################

data_QUMKUG
_symmetry_cell_setting           monoclinic
_symmetry_space_group_name_H-M   'P 21/c'
_symmetry_Int_Tables_number      14
_space_group_name_Hall           '-P 2ybc'
loop_
_symmetry_equiv_pos_site_id
_symmetry_equiv_pos_as_xyz
1 x,y,z
2 -x,1/2+y,1/2-z
3 -x,-y,-z
4 x,1/2-y,1/2+z
_cell_length_a                   20.3389(6)
_cell_length_b                   12.6146(4)
_cell_length_c                   19.3364(6)
_cell_angle_alpha                90
_cell_angle_beta                 111.837(2)
_cell_angle_gamma                90
_cell_volume                     4605.11
loop_
_atom_site_label
_atom_site_type_symbol
_atom_site_fract_x
_atom_site_fract_y
_atom_site_fract_z
C21 C 0.2106(4) 0.5632(5) 0.9137(4)
H13 H 0.2448 0.6093 0.9047
H14 H 0.1811 0.6073 0.9315
C22 C 0.1642(5) 0.5138(6) 0.8402(5)
H15 H 0.1333 0.4614 0.8490
H16 H 0.1937 0.4781 0.8180
C23 C 0.2950(5) 0.4097(6) 0.9499(4)
H17 H 0.3163 0.3585 0.9894
H18 H 0.2636 0.3710 0.9070
C24 C 0.3532(5) 0.4585(7) 0.9296(5)
H19 H 0.3858 0.4965 0.9722
H20 H 0.3329 0.5088 0.8893
C25 C 0.2977(5) 0.5537(6) 1.0401(4)
H21 H 0.3258 0.6002 1.0221
H22 H 0.2675 0.5980 1.0568
C26 C 0.2003(4) 0.4159(5) 0.9969(4)
H23 H 0.1694 0.3796 0.9525
H24 H 0.2282 0.3621 1.0312
C27 C 0.1547(5) 0.4707(6) 1.0322(5)
H25 H 0.1281 0.5276 1.0003
H26 H 0.1842 0.5009 1.0798
C28 C 0.1194(4) 0.5986(6) 0.7866(4)
H27 H 0.1505 0.6548 0.7829
H28 H 0.0974 0.5673 0.7375
C29 C 0.0621(5) 0.6466(8) 0.8095(5)
H29 H 0.0325 0.5911 0.8159
H30 H 0.0339 0.6946 0.7716
H31 H 0.0837 0.6843 0.8556
C30 C 0.3935(5) 0.3733(7) 0.9055(6)
H32 H 0.4103 0.3201 0.9444
H33 H 0.3613 0.3388 0.8609
C31 C 0.4550(6) 0.4155(10) 0.8902(8)
H34 H 0.4384 0.4524 0.8434
H35 H 0.4850 0.3579 0.8880
H36 H 0.4814 0.4634 0.9292
C32 C 0.1038(6) 0.3886(7) 1.0434(6)
H37 H 0.0699 0.3677 0.9950
H38 H 0.1306 0.3261 1.0667
C33 C 0.0645(7) 0.4265(9) 1.0893(7)
H39 H 0.0947 0.4235 1.1410
H40 H 0.0238 0.3824 1.0808
H41 H 0.0495 0.4983 1.0760
C34 C 0.3466(7) 0.4924(8) 1.1056(6)
H42 H 0.3796 0.4521 1.0905
H43 H 0.3192 0.4426 1.1223
C35 C 0.3879(6) 0.5655(11) 1.1700(5)
H44 H 0.4249 0.5247 1.2069
H45 H 0.4107 0.6201 1.1514
C36 C 0.3463(7) 0.6146(10) 1.2051(7)
H46 H 0.3197 0.6716 1.1744
H47 H 0.3766 0.6422 1.2525
H48 H 0.3144 0.5636 1.2122
N17 N 0.2507(4) 0.4854(4) 0.9752(3)
O1 O 0.3378(3) 0.2496(5) 0.1953(3)
O2 O 0.333(8) 0.296(13) 0.194(9)
O3 O 0.3235(3) 0.8757(4) 0.2776(3)
C37 C 0.2929(5) 0.9310(7) 0.2095(5)
W1 W 0.786079(10) 0.992209(14) 0.104677(11)
C1 C 0.7574(3) 1.1263(5) 0.1576(3)
C2 C 0.6714(3) 0.9916(4) 0.0634(3)
C3 C 0.7575(3) 0.9180(5) 0.1910(3)
C4 C 0.7475(3) 0.8977(4) 0.0045(3)
C5 C 0.8433(3) 0.8430(4) 0.1356(3)
C6 C 0.8708(3) 0.9973(4) 0.0615(3)
C7 C 0.8797(3) 1.0419(5) 0.1970(3)
C8 C 0.7609(3) 1.1199(4) 0.0249(3)
N1 N 0.7422(3) 1.1981(4) 0.1851(3)
N2 N 0.6109(3) 0.9920(4) 0.0410(3)
N3 N 0.7410(3) 0.8779(5) 0.2349(3)
N4 N 0.7263(3) 0.8477(4) -0.0492(3)
N5 N 0.8741(3) 0.7656(4) 0.1520(3)
N6 N 0.9156(2) 0.9979(3) 0.0397(3)
N7 N 0.9294(3) 1.0718(4) 0.2440(3)
N8 N 0.7471(3) 1.1879(4) -0.0178(3)
Ni1 Ni 0.5000 1.0000 0.0000
Ni2 Ni 1.0000 1.0000 0.0000
N9 N 0.5059(2) 1.1442(4) 0.0561(3)
N10 N 0.4985(2) 0.9190(4) 0.0939(3)
N11 N 1.0613(2) 1.0870(3) 0.0937(2)
N12 N 1.0425(2) 0.8605(3) 0.0602(2)
C9 C 0.4573(3) 1.1870(6) 0.0819(4)
C10 C 0.5619(3) 1.2062(5) 0.0827(4)
C11 C 0.4424(3) 0.8950(6) 0.1150(4)
C12 C 0.5545(3) 0.8786(5) 0.1470(4)
C13 C 1.0400(3) 1.1270(5) 0.1443(3)
C14 C 1.1325(3) 1.1081(5) 0.1191(3)
C15 C 1.0151(3) 0.8037(5) 0.0993(3)
C16 C 1.1074(3) 0.8156(5) 0.0736(4)
H1 H 0.4123 1.1598 0.0724
N13 N 0.4844(4) 1.2744(6) 0.1233(4)
C17 C 0.5516(3) 1.2851(4) 0.1232(3)
H2 H 0.6036 1.1960 0.0742
H3 H 0.3954 0.9133 0.0884
C18 C 0.4660(4) 0.8409(6) 0.1798(4)
H4 H 0.6004 0.8831 0.1476
N14 N 0.5374(3) 0.8302(5) 0.2000(3)
H5 H 0.9935 1.1239 0.1421
N15 N 1.0934(3) 1.1733(4) 0.2000(3)
C19 C 1.1527(3) 1.1610(5) 0.1839(4)
H6 H 1.1624 1.0885 0.0949
H7 H 0.9705 0.8159 0.1008
C20 C 1.0581(3) 0.7263(4) 0.1367(3)
H8 H 1.1397 0.8386 0.0531
N16 N 1.1178(4) 0.7319(5) 0.1214(4)
H9 H 0.5839 1.3379 0.1471
H10 H 0.4388 0.8157 0.2058
H11 H 1.1982 1.1846 0.2121
H12 H 1.0489 0.6772 0.1678
N2B N 0.3891(3) 1.0080(4) -0.0410(3)
N9B N 0.4941(2) 0.8558(4) -0.0561(3)
N10B N 0.5015(2) 1.0810(4) -0.0939(3)
N11B N 0.9387(2) 0.9130(3) -0.0937(2)
N12B N 0.9575(2) 1.1395(3) -0.0602(2)
N6B N 1.0844(2) 1.0021(3) -0.0397(3)
C2B C 0.3286(3) 1.0084(4) -0.0634(3)
C9B C 0.5427(3) 0.8130(6) -0.0819(4)
C10B C 0.4381(3) 0.7938(5) -0.0827(4)
C11B C 0.5576(3) 1.1050(6) -0.1150(4)
C12B C 0.4455(3) 1.1214(5) -0.1470(4)
C13B C 0.9600(3) 0.8730(5) -0.1443(3)
C14B C 0.8675(3) 0.8919(5) -0.1191(3)
C15B C 0.9849(3) 1.1963(5) -0.0993(3)
C16B C 0.8926(3) 1.1844(5) -0.0736(4)
W1B W 0.213921(10) 1.007791(14) -0.104677(11)
H1B H 0.5877 0.8402 -0.0724
N13B N 0.5156(4) 0.7256(6) -0.1233(4)
C17B C 0.4484(3) 0.7149(4) -0.1232(3)
H2B H 0.3964 0.8040 -0.0742
H3B H 0.6046 1.0867 -0.0884
C18B C 0.5340(4) 1.1591(6) -0.1798(4)
H4B H 0.3996 1.1169 -0.1476
N14B N 0.4626(3) 1.1698(5) -0.2000(3)
H5B H 1.0065 0.8761 -0.1421
N15B N 0.9066(3) 0.8267(4) -0.2000(3)
C19B C 0.8473(3) 0.8390(5) -0.1839(4)
H6B H 0.8376 0.9115 -0.0949
H7B H 1.0295 1.1841 -0.1008
C20B C 0.9419(3) 1.2737(4) -0.1367(3)
H8B H 0.8603 1.1614 -0.0531
N16B N 0.8822(4) 1.2681(5) -0.1214(4)
C1B C 0.2426(3) 0.8737(5) -0.1576(3)
C3B C 0.2425(3) 1.0820(5) -0.1910(3)
C4B C 0.2525(3) 1.1023(4) -0.0045(3)
C5B C 0.1567(3) 1.1570(4) -0.1356(3)
C6B C 0.1292(3) 1.0027(4) -0.0615(3)
C7B C 0.1203(3) 0.9581(5) -0.1970(3)
C8B C 0.2391(3) 0.8801(4) -0.0249(3)
H9B H 0.4161 0.6621 -0.1471
H10B H 0.5612 1.1843 -0.2058
H11B H 0.8018 0.8154 -0.2121
H12B H 0.9511 1.3228 -0.1678
N1B N 0.2578(3) 0.8019(4) -0.1851(3)
N3B N 0.2590(3) 1.1221(5) -0.2349(3)
N4B N 0.2737(3) 1.1523(4) 0.0492(3)
N5B N 0.1259(3) 1.2344(4) -0.1520(3)
N6B_2 N 0.0844(2) 1.0021(3) -0.0397(3)
N7B N 0.0706(3) 0.9282(4) -0.2440(3)
N8B N 0.2529(3) 0.8121(4) 0.0178(3)
Ni2_2 Ni 0.0000 1.0000 0.0000
loop_
_geom_bond_atom_site_label_1
_geom_bond_atom_site_label_2
_geom_bond_site_symmetry_1
_geom_bond_site_symmetry_2
W1 C1 1_555 1_555
C1 N1 1_555 1_555
C2 W1 1_555 1_555
C3 W1 1_555 1_555
C4 W1 1_555 1_555
C5 W1 1_555 1_555
C6 W1 1_555 1_555
C7 W1 1_555 1_555
C8 W1 1_555 1_555
N2 C2 1_555 1_555
N3 C3 1_555 1_555
N4 C4 1_555 1_555
N5 C5 1_555 1_555
N6 C6 1_555 1_555
N7 C7 1_555 1_555
N8 C8 1_555 1_555
Ni1 N2 1_555 1_555
Ni2 N6 1_555 1_555
N9 Ni1 1_555 1_555
N10 Ni1 1_555 1_555
N11 Ni2 1_555 1_555
N12 Ni2 1_555 1_555
C9 N9 1_555 1_555
C10 N9 1_555 1_555
C11 N10 1_555 1_555
C12 N10 1_555 1_555
C13 N11 1_555 1_555
C14 N11 1_555 1_555
C15 N12 1_555 1_555
C16 N12 1_555 1_555
H1 C9 1_555 1_555
N13 C9 1_555 1_555
C17 C10 1_555 1_555
H2 C10 1_555 1_555
H3 C11 1_555 1_555
C18 C11 1_555 1_555
H4 C12 1_555 1_555
N14 C12 1_555 1_555
H5 C13 1_555 1_555
N15 C13 1_555 1_555
C19 C14 1_555 1_555
H6 C14 1_555 1_555
H7 C15 1_555 1_555
C20 C15 1_555 1_555
H8 C16 1_555 1_555
N16 C16 1_555 1_555
H9 C17 1_555 1_555
H10 C18 1_555 1_555
H11 C19 1_555 1_555
H12 C20 1_555 1_555
C21 H13 1_555 1_555
H14 C21 1_555 1_555
C22 C21 1_555 1_555
H15 C22 1_555 1_555
H16 C22 1_555 1_555
C23 H17 1_555 1_555
H18 C23 1_555 1_555
C24 C23 1_555 1_555
H19 C24 1_555 1_555
H20 C24 1_555 1_555
C25 H21 1_555 1_555
H22 C25 1_555 1_555
C26 H23 1_555 1_555
H24 C26 1_555 1_555
C27 C26 1_555 1_555
H25 C27 1_555 1_555
H26 C27 1_555 1_555
C28 C22 1_555 1_555
H27 C28 1_555 1_555
H28 C28 1_555 1_555
C29 C28 1_555 1_555
H29 C29 1_555 1_555
H30 C29 1_555 1_555
H31 C29 1_555 1_555
C30 C24 1_555 1_555
H32 C30 1_555 1_555
H33 C30 1_555 1_555
C31 C30 1_555 1_555
H34 C31 1_555 1_555
H35 C31 1_555 1_555
H36 C31 1_555 1_555
C32 C27 1_555 1_555
H37 C32 1_555 1_555
H38 C32 1_555 1_555
C33 C32 1_555 1_555
H39 C33 1_555 1_555
H40 C33 1_555 1_555
H41 C33 1_555 1_555
C34 C25 1_555 1_555
H42 C34 1_555 1_555
H43 C34 1_555 1_555
C35 C34 1_555 1_555
H44 C35 1_555 1_555
H45 C35 1_555 1_555
C36 C35 1_555 1_555
H46 C36 1_555 1_555
H47 C36 1_555 1_555
H48 C36 1_555 1_555
N17 C21 1_555 1_555
O1 O2 1_555 1_555
O3 C37 1_555 1_555
N2B Ni1 1_555 1_555
N9B Ni1 1_555 1_555
N10B Ni1 1_555 1_555
N11B Ni2 1_555 1_555
N12B Ni2 1_555 1_555
N6B Ni2 1_555 1_555
C2B N2B 1_555 1_555
C9B N9B 1_555 1_555
C10B N9B 1_555 1_555
C11B N10B 1_555 1_555
C12B N10B 1_555 1_555
C13B N11B 1_555 1_555
C14B N11B 1_555 1_555
C15B N12B 1_555 1_555
C16B N12B 1_555 1_555
W1B C2B 1_555 1_555
H1B C9B 1_555 1_555
N13B C9B 1_555 1_555
C17B C10B 1_555 1_555
H2B C10B 1_555 1_555
H3B C11B 1_555 1_555
C18B C11B 1_555 1_555
H4B C12B 1_555 1_555
N14B C12B 1_555 1_555
H5B C13B 1_555 1_555
N15B C13B 1_555 1_555
C19B C14B 1_555 1_555
H6B C14B 1_555 1_555
H7B C15B 1_555 1_555
C20B C15B 1_555 1_555
H8B C16B 1_555 1_555
N16B C16B 1_555 1_555
C1B W1B 1_555 1_555
C3B W1B 1_555 1_555
C4B W1B 1_555 1_555
C5B W1B 1_555 1_555
C6B W1B 1_555 1_555
C7B W1B 1_555 1_555
C8B W1B 1_555 1_555
H9B C17B 1_555 1_555
H10B C18B 1_555 1_555
H11B C19B 1_555 1_555
H12B C20B 1_555 1_555
N1B C1B 1_555 1_555
N3B C3B 1_555 1_555
N4B C4B 1_555 1_555
N5B C5B 1_555 1_555
N6B_2 C6B 1_555 1_555
N7B C7B 1_555 1_555
N8B C8B 1_555 1_555
Ni2_2 N6B_2 1_555 1_555
N13 C17 1_555 1_555
C18 N14 1_555 1_555
N15 C19 1_555 1_555
C20 N16 1_555 1_555
C23 N17 1_555 1_555
C25 N17 1_555 1_555
C26 N17 1_555 1_555
N13B C17B 1_555 1_555
C18B N14B 1_555 1_555
N15B C19B 1_555 1_555
C20B N16B 1_555 1_555

#END
