
#######################################################################
#
#                 Cambridge Crystallographic Data Centre
#                                CCDC 
#
#######################################################################
#
# If this CIF has been generated from an entry in the Cambridge 
# Structural Database, then it will include bibliographic, chemical, 
# crystal, experimental, refinement or atomic coordinate data resulting 
# from the CCDC's data processing and validation procedures.
#
#######################################################################

data_QUMKOA
_symmetry_cell_setting           monoclinic
_symmetry_space_group_name_H-M   'P 21/c'
_symmetry_Int_Tables_number      14
_space_group_name_Hall           '-P 2ybc'
loop_
_symmetry_equiv_pos_site_id
_symmetry_equiv_pos_as_xyz
1 x,y,z
2 -x,1/2+y,1/2-z
3 -x,-y,-z
4 x,1/2-y,1/2+z
_cell_length_a                   20.307(4)
_cell_length_b                   12.739(2)
_cell_length_c                   19.312(3)
_cell_angle_alpha                90
_cell_angle_beta                 111.304(3)
_cell_angle_gamma                90
_cell_volume                     4654.45
loop_
_atom_site_label
_atom_site_type_symbol
_atom_site_fract_x
_atom_site_fract_y
_atom_site_fract_z
C21 C 0.2923(3) 0.5646(4) 0.0868(3)
H13 H 0.3215 0.6082 0.0684
H14 H 0.2591 0.6105 0.0977
C22 C 0.3387(4) 0.5145(4) 0.1579(3)
H15 H 0.3702 0.4647 0.1478
H16 H 0.3098 0.4766 0.1800
C23 C 0.3820(3) 0.5976(4) 0.2120(3)
H17 H 0.3503 0.6515 0.2170
H18 H 0.4047 0.5654 0.2604
C24 C 0.4375(4) 0.6483(6) 0.1892(4)
H19 H 0.4655 0.5951 0.1779
H20 H 0.4673 0.6914 0.2290
H21 H 0.4152 0.6910 0.1460
C25 C 0.2987(3) 0.4190(4) 0.0022(3)
H22 H 0.3276 0.3794 0.0456
H23 H 0.2698 0.3690 -0.0339
C26 C 0.3471(4) 0.4712(5) -0.0302(4)
H24 H 0.3758 0.5234 0.0042
H25 H 0.3195 0.5063 -0.0762
C27 C 0.3954(5) 0.3864(6) -0.0453(5)
H26 H 0.4285 0.3613 0.0020
H27 H 0.3663 0.3273 -0.0704
C28 C 0.4336(6) 0.4220(8) -0.0885(6)
H28 H 0.4043 0.4184 -0.1402
H29 H 0.4746 0.3786 -0.0793
H30 H 0.4481 0.4933 -0.0755
C29 C 0.1476(7) 0.6018(11) -0.2026(8)
H31 H 0.1717 0.6655 -0.1812
H32 H 0.1187 0.6137 -0.2537
H33 H 0.1817 0.5480 -0.1995
C30 C 0.1098(6) 0.5736(9) -0.1681(6)
H34 H 0.0685 0.5363 -0.2006
H35 H 0.0944 0.6336 -0.1471
C31 C 0.1571(5) 0.5005(6) -0.1060(4)
H36 H 0.1271 0.4535 -0.0911
H37 H 0.1856 0.4579 -0.1259
C32 C 0.2058(4) 0.5579(4) -0.0376(3)
H38 H 0.2369 0.6029 -0.0524
H39 H 0.1772 0.6029 -0.0192
C33 C 0.2052(3) 0.4148(4) 0.0501(3)
H40 H 0.1833 0.3649 0.0105
H41 H 0.2360 0.3755 0.0926
C34 C 0.1478(4) 0.4648(5) 0.0713(4)
H42 H 0.1153 0.5027 0.0292
H43 H 0.1685 0.5142 0.1116
C35 C 0.1082(5) 0.3788(6) 0.0957(5)
H44 H 0.0922 0.3257 0.0571
H45 H 0.1402 0.3455 0.1404
C36 C 0.0475(5) 0.4205(7) 0.1100(6)
H46 H 0.0616 0.4397 0.1614
H47 H 0.0112 0.3679 0.0985
H48 H 0.0296 0.4812 0.0794
N17 N 0.2503(3) 0.4891(3) 0.0250(2)
O1 O 0.8399(2) 0.7478(3) 0.1924(2)
O2 O 0.8235(2) 0.1323(3) 0.2743(2)
C37 C 0.7903(4) 0.0744(5) 0.2075(4)
C1 C 0.75249(19) 0.6051(3) 0.4933(2)
N1 N 0.77300(19) 0.6543(3) 0.5468(2)
C2 C 0.7380(2) 0.3822(3) 0.4722(2)
N2 N 0.7514(2) 0.3150(3) 0.5139(2)
C3 C 0.7436(2) 0.3783(3) 0.3402(2)
N3 N 0.7586(2) 0.3087(3) 0.3127(2)
C4 C 0.7443(2) 0.5860(3) 0.3099(2)
N4 N 0.7620(2) 0.6273(4) 0.2672(2)
C5 C 0.6219(2) 0.4592(3) 0.3025(2)
N5 N 0.57325(19) 0.4288(3) 0.2554(2)
C6 C 0.65667(19) 0.6564(3) 0.36308(19)
N6 N 0.62591(19) 0.7334(3) 0.34681(19)
Mo1 Mo 0.714253(15) 0.51016(2) 0.393999(16)
N7 N 0.88884(17) 0.5081(2) 0.45829(18)
C7 C 0.8285(2) 0.5086(2) 0.4359(2)
C8 C 0.62970(19) 0.5040(2) 0.43693(19)
N8 N 0.58477(16) 0.5027(2) 0.45952(16)
N9 N 0.54166(16) 0.3603(2) 0.55885(16)
C9 C 0.6062(2) 0.3162(3) 0.5722(3)
C10 C 0.5142(2) 0.3047(3) 0.5986(2)
H1 H 0.6389 0.3397 0.5523
C11 C 0.6160(3) 0.2340(4) 0.6183(3)
H2 H 0.4699 0.3172 0.6008
N10 N 0.55778(19) 0.2271(2) 0.63591(19)
H3 H 0.6553 0.1903 0.6349
N11 N 0.43866(15) 0.4152(2) 0.40636(16)
C12 C 0.4591(2) 0.3758(3) 0.3548(2)
C13 C 0.3680(2) 0.3943(3) 0.3821(2)
H4 H 0.5053 0.3794 0.3562
N12 N 0.4062(2) 0.3300(3) 0.29981(19)
H5 H 0.3381 0.4139 0.4067
C14 C 0.3478(2) 0.3409(4) 0.3174(2)
H6 H 0.3027 0.3163 0.2902
Ni1 Ni 0.5000 0.5000 0.5000
N13 N 1.00573(17) 0.6427(2) 0.55631(18)
C15 C 1.0618(2) 0.7021(3) 0.5842(3)
C16 C 0.9565(2) 0.6864(4) 0.5798(3)
H7 H 1.1041 0.6897 0.5774
C17 C 1.0516(2) 0.7821(3) 0.6235(2)
H8 H 0.9110 0.6607 0.5692
N14 N 0.9838(3) 0.7740(4) 0.6213(3)
H9 H 1.0844 0.8336 0.6478
N15 N 0.99728(17) 0.4188(3) 0.59356(18)
C18 C 0.9422(3) 0.3991(5) 0.6162(3)
C19 C 1.0523(2) 0.3755(4) 0.6451(3)
H10 H 0.8959 0.4209 0.5912
C20 C 0.9646(3) 0.3435(4) 0.6801(3)
H11 H 1.0979 0.3773 0.6445
N16 N 1.0353(2) 0.3285(3) 0.6985(2)
H12 H 0.9371 0.3201 0.7064
Ni2 Ni 1.0000 0.5000 0.5000
C1B C 0.24751(19) 0.3949(3) 0.5067(2)
N1B N 0.22700(19) 0.3457(3) 0.4532(2)
C2B C 0.2620(2) 0.6178(3) 0.5278(2)
N2B N 0.2486(2) 0.6850(3) 0.4861(2)
C3B C 0.2564(2) 0.6217(3) 0.6598(2)
N3B N 0.2414(2) 0.6913(3) 0.6873(2)
C4B C 0.2557(2) 0.4140(3) 0.6901(2)
N4B N 0.2380(2) 0.3727(4) 0.7328(2)
C5B C 0.3781(2) 0.5408(3) 0.6975(2)
N5B N 0.42675(19) 0.5712(3) 0.7446(2)
C6B C 0.34333(19) 0.3436(3) 0.63692(19)
N6B N 0.37409(19) 0.2666(3) 0.65319(19)
Mo1B Mo 0.285747(15) 0.48984(2) 0.606001(16)
N7B N 0.11116(17) 0.4919(2) 0.54171(18)
C7B C 0.1715(2) 0.4914(2) 0.5641(2)
C8B C 0.37030(19) 0.4960(2) 0.56307(19)
N8B N 0.41523(16) 0.4973(2) 0.54048(16)
N9B N 0.45834(16) 0.6397(2) 0.44115(16)
C9B C 0.3938(2) 0.6838(3) 0.4278(3)
C10B C 0.4858(2) 0.6953(3) 0.4014(2)
H1B H 0.3611 0.6603 0.4477
C11B C 0.3840(3) 0.7660(4) 0.3817(3)
H2B H 0.5301 0.6828 0.3992
N10B N 0.44222(19) 0.7729(2) 0.36409(19)
H3B H 0.3447 0.8097 0.3651
N11B N 0.56134(15) 0.5848(2) 0.59364(16)
C12B C 0.5409(2) 0.6242(3) 0.6452(2)
C13B C 0.6320(2) 0.6057(3) 0.6179(2)
H4B H 0.4947 0.6206 0.6438
N12B N 0.5938(2) 0.6700(3) 0.70019(19)
H5B H 0.6619 0.5861 0.5933
C14B C 0.6522(2) 0.6591(4) 0.6826(2)
H6B H 0.6973 0.6837 0.7098
N13B N 0.99427(17) 0.3573(2) 0.44369(18)
C15B C 0.9382(2) 0.2979(3) 0.4158(3)
C16B C 1.0435(2) 0.3136(4) 0.4202(3)
H7B H 0.8959 0.3103 0.4226
C17B C 0.9484(2) 0.2179(3) 0.3765(2)
H8B H 1.0890 0.3393 0.4308
N14B N 1.0162(3) 0.2260(4) 0.3787(3)
H9B H 0.9156 0.1664 0.3522
N15B N 1.00272(17) 0.5812(3) 0.40644(18)
C18B C 1.0578(3) 0.6009(5) 0.3838(3)
C19B C 0.9477(2) 0.6245(4) 0.3549(3)
H10B H 1.1041 0.5791 0.4088
C20B C 1.0354(3) 0.6565(4) 0.3199(3)
H11B H 0.9021 0.6227 0.3555
N16B N 0.9647(2) 0.6715(3) 0.3015(2)
H12B H 1.0629 0.6799 0.2936
N7B_2 N 1.11116(17) 0.4919(2) 0.54171(18)
Ni2_2 Ni 0.0000 0.5000 0.5000
loop_
_geom_bond_atom_site_label_1
_geom_bond_atom_site_label_2
_geom_bond_site_symmetry_1
_geom_bond_site_symmetry_2
C1 N1 1_555 1_555
C2 N2 1_555 1_555
C3 N3 1_555 1_555
C4 N4 1_555 1_555
C5 N5 1_555 1_555
C6 N6 1_555 1_555
Mo1 C1 1_555 1_555
N7 C7 1_555 1_555
C7 Mo1 1_555 1_555
C8 Mo1 1_555 1_555
N8 C8 1_555 1_555
N9 C9 1_555 1_555
C9 H1 1_555 1_555
C10 N9 1_555 1_555
C11 C9 1_555 1_555
H2 C10 1_555 1_555
N10 C10 1_555 1_555
H3 C11 1_555 1_555
N11 C12 1_555 1_555
C12 H4 1_555 1_555
C13 N11 1_555 1_555
N12 C12 1_555 1_555
H5 C13 1_555 1_555
C14 C13 1_555 1_555
H6 C14 1_555 1_555
Ni1 N8 1_555 1_555
N13 C15 1_555 1_555
C15 H7 1_555 1_555
C16 N13 1_555 1_555
C17 C15 1_555 1_555
H8 C16 1_555 1_555
N14 C16 1_555 1_555
H9 C17 1_555 1_555
N15 C18 1_555 1_555
C18 H10 1_555 1_555
C19 N15 1_555 1_555
C20 C18 1_555 1_555
H11 C19 1_555 1_555
N16 C19 1_555 1_555
H12 C20 1_555 1_555
Ni2 N7 1_555 1_555
C21 H13 1_555 1_555
H14 C21 1_555 1_555
C22 C21 1_555 1_555
H15 C22 1_555 1_555
H16 C22 1_555 1_555
C23 C22 1_555 1_555
H17 C23 1_555 1_555
H18 C23 1_555 1_555
C24 C23 1_555 1_555
H19 C24 1_555 1_555
H20 C24 1_555 1_555
H21 C24 1_555 1_555
C25 H22 1_555 1_555
H23 C25 1_555 1_555
C26 C25 1_555 1_555
H24 C26 1_555 1_555
H25 C26 1_555 1_555
C27 C26 1_555 1_555
H26 C27 1_555 1_555
H27 C27 1_555 1_555
C28 C27 1_555 1_555
H28 C28 1_555 1_555
H29 C28 1_555 1_555
H30 C28 1_555 1_555
C29 H31 1_555 1_555
H32 C29 1_555 1_555
H33 C29 1_555 1_555
C30 C29 1_555 1_555
H34 C30 1_555 1_555
H35 C30 1_555 1_555
C31 C30 1_555 1_555
H36 C31 1_555 1_555
H37 C31 1_555 1_555
C32 C31 1_555 1_555
H38 C32 1_555 1_555
H39 C32 1_555 1_555
C33 H40 1_555 1_555
H41 C33 1_555 1_555
C34 C33 1_555 1_555
H42 C34 1_555 1_555
H43 C34 1_555 1_555
C35 C34 1_555 1_555
H44 C35 1_555 1_555
H45 C35 1_555 1_555
C36 C35 1_555 1_555
H46 C36 1_555 1_555
H47 C36 1_555 1_555
H48 C36 1_555 1_555
N17 C21 1_555 1_555
O2 C37 1_555 1_555
C1B N1B 1_555 1_555
C2B N2B 1_555 1_555
C3B N3B 1_555 1_555
C4B N4B 1_555 1_555
C5B N5B 1_555 1_555
C6B N6B 1_555 1_555
Mo1B C1B 1_555 1_555
N7B C7B 1_555 1_555
C7B Mo1B 1_555 1_555
C8B Mo1B 1_555 1_555
N8B Ni1 1_555 1_555
N9B Ni1 1_555 1_555
C9B N9B 1_555 1_555
C10B N9B 1_555 1_555
H1B C9B 1_555 1_555
C11B C9B 1_555 1_555
H2B C10B 1_555 1_555
N10B C10B 1_555 1_555
H3B C11B 1_555 1_555
N11B Ni1 1_555 1_555
C12B N11B 1_555 1_555
C13B N11B 1_555 1_555
H4B C12B 1_555 1_555
N12B C12B 1_555 1_555
H5B C13B 1_555 1_555
C14B C13B 1_555 1_555
H6B C14B 1_555 1_555
N13B Ni2 1_555 1_555
C15B N13B 1_555 1_555
C16B N13B 1_555 1_555
H7B C15B 1_555 1_555
C17B C15B 1_555 1_555
H8B C16B 1_555 1_555
N14B C16B 1_555 1_555
H9B C17B 1_555 1_555
N15B Ni2 1_555 1_555
C18B N15B 1_555 1_555
C19B N15B 1_555 1_555
H10B C18B 1_555 1_555
C20B C18B 1_555 1_555
H11B C19B 1_555 1_555
N16B C19B 1_555 1_555
H12B C20B 1_555 1_555
N7B_2 Ni2 1_555 1_555
Ni2_2 N7B 1_555 1_555
C2 Mo1 1_555 1_555
C3 Mo1 1_555 1_555
C4 Mo1 1_555 1_555
C5 Mo1 1_555 1_555
C6 Mo1 1_555 1_555
N9 Ni1 1_555 1_555
C11 N10 1_555 1_555
N11 Ni1 1_555 1_555
N12 C14 1_555 1_555
N13 Ni2 1_555 1_555
C17 N14 1_555 1_555
N15 Ni2 1_555 1_555
C20 N16 1_555 1_555
C25 N17 1_555 1_555
C32 N17 1_555 1_555
C33 N17 1_555 1_555
C2B Mo1B 1_555 1_555
C3B Mo1B 1_555 1_555
C4B Mo1B 1_555 1_555
C5B Mo1B 1_555 1_555
C6B Mo1B 1_555 1_555
C8B N8B 1_555 1_555
C11B N10B 1_555 1_555
N12B C14B 1_555 1_555
C17B N14B 1_555 1_555
C20B N16B 1_555 1_555

#END
