
#######################################################################
#
#                 Cambridge Crystallographic Data Centre
#                                CCDC 
#
#######################################################################
#
# If this CIF has been generated from an entry in the Cambridge 
# Structural Database, then it will include bibliographic, chemical, 
# crystal, experimental, refinement or atomic coordinate data resulting 
# from the CCDC's data processing and validation procedures.
#
#######################################################################

data_QUMKEQ
_symmetry_cell_setting           monoclinic
_symmetry_space_group_name_H-M   'P 21/c'
_symmetry_Int_Tables_number      14
_space_group_name_Hall           '-P 2ybc'
loop_
_symmetry_equiv_pos_site_id
_symmetry_equiv_pos_as_xyz
1 x,y,z
2 -x,1/2+y,1/2-z
3 -x,-y,-z
4 x,1/2-y,1/2+z
_cell_length_a                   12.4400(9)
_cell_length_b                   18.5218(14)
_cell_length_c                   15.6790(11)
_cell_angle_alpha                90
_cell_angle_beta                 126.723(4)
_cell_angle_gamma                90
_cell_volume                     2895.64
loop_
_atom_site_label
_atom_site_type_symbol
_atom_site_fract_x
_atom_site_fract_y
_atom_site_fract_z
W1 W -0.08479(13) 0.34148(6) 0.34622(9)
W2 W -0.12095(13) 0.51323(7) 0.23218(9)
W3 W 0.01587(13) 0.32900(6) 0.60954(9)
W4 W 0.31316(11) 0.41886(6) 0.68883(8)
W5 W 0.20092(11) 0.44230(6) 0.42429(9)
W6 W 0.29727(10) 0.59504(6) 0.59106(8)
Ag1 Ag -0.4054(3) 0.53346(15) -0.0968(2)
Ag2 Ag 0.3120(3) 0.31068(14) 0.28881(17)
Si1 Si 0.0000 0.5000 0.5000
O1 O -0.075(3) 0.4240(17) 0.473(2)
O2 O 0.092(3) 0.4494(17) 0.605(2)
O3 O 0.147(3) 0.4925(18) 0.536(2)
O4 O -0.013(3) 0.5400(17) 0.592(2)
O5 O -0.010(3) 0.3000(17) 0.480(2)
O6 O 0.437(3) 0.6390(16) 0.629(2)
O7 O -0.171(3) 0.3465(16) 0.530(2)
O8 O 0.286(3) 0.5318(12) 0.4886(17)
O9 O 0.049(3) 0.3920(16) 0.715(2)
O10 O 0.368(3) 0.5186(13) 0.6878(18)
O11 O 0.300(2) 0.4015(11) 0.5635(17)
O12 O 0.030(2) 0.2478(13) 0.665(2)
O13 O -0.175(2) 0.5199(14) 0.1069(15)
O14 O -0.129(2) 0.2681(14) 0.2693(18)
O15 O 0.465(3) 0.3831(12) 0.7817(16)
O16 O 0.299(3) 0.4162(12) 0.387(2)
O17 O 0.067(3) 0.4851(17) 0.301(3)
O18 O 0.283(4) 0.460(2) 0.786(3)
O19 O 0.087(3) 0.3596(16) 0.385(3)
O20 O -0.153(3) 0.4143(17) 0.240(3)
O21 O 0.197(3) 0.3427(19) 0.661(3)
O22 O -0.244(3) 0.3631(18) 0.333(2)
O23 O 0.0935(19) 0.3445(11) -0.0501(15)
N1 N -0.516(3) 0.5872(18) -0.055(2)
C1 C 0.491(3) 0.2155(17) 0.034(2)
H1 H 0.5516 0.1898 0.0297
N2 N -0.287(2) 0.4821(14) -0.144(2)
N3 N 0.208(3) 0.3404(14) 0.1236(19)
N4 N 0.087(2) 0.3786(15) 0.0828(19)
C2 C -0.341(3) 0.4729(17) -0.246(2)
H2 H -0.4234 0.4946 -0.2947
C3 C -0.579(4) 0.620(2) -0.038(2)
C4 C -0.288(3) 0.4362(17) -0.285(2)
H3 H -0.3311 0.4327 -0.3575
C5 C 0.531(4) 0.2305(18) 0.139(3)
H4 H 0.6151 0.2189 0.2007
C6 C -0.161(3) 0.4016(18) -0.208(3)
H5 H -0.1192 0.3739 -0.2300
C7 C -0.106(3) 0.4112(15) -0.105(2)
C8 C 0.307(3) 0.2838(14) 0.045(2)
C9 C 0.023(3) 0.3787(14) -0.020(2)
C10 C -0.170(3) 0.4501(18) -0.070(2)
H6 H -0.1315 0.4538 0.0016
C11 C 0.289(3) 0.2675(16) -0.051(2)
H7 H 0.2095 0.2818 -0.1148
C12 C 0.430(3) 0.2646(18) 0.137(2)
H8 H 0.4457 0.2750 0.2016
C13 C 0.210(3) 0.3228(16) 0.047(2)
N5 N 0.376(3) 0.2341(14) -0.057(2)
C14 C -0.666(5) 0.662(3) -0.019(4)
H9 H -0.7277 0.6908 -0.0804
H10 H -0.6111 0.6919 0.0420
H11 H -0.7153 0.6285 -0.0072
O1B O 0.075(3) 0.5760(17) 0.527(2)
O2B O -0.092(3) 0.5506(17) 0.395(2)
O3B O -0.147(3) 0.5075(18) 0.464(2)
O4B O 0.013(3) 0.4600(17) 0.408(2)
W1B W 0.08479(13) 0.65852(6) 0.65378(9)
W2B W 0.12095(13) 0.48677(7) 0.76782(9)
W3B W -0.01587(13) 0.67100(6) 0.39046(9)
W4B W -0.31316(11) 0.58114(6) 0.31117(8)
W5B W -0.20092(11) 0.55770(6) 0.57571(9)
W6B W -0.29727(10) 0.40496(6) 0.40894(8)
Ag1B Ag 0.4054(3) 0.46654(15) 1.0968(2)
Ag2B Ag -0.3120(3) 0.68932(14) 0.71119(17)
O5B O 0.010(3) 0.7000(17) 0.520(2)
O6B O -0.437(3) 0.3610(16) 0.371(2)
O7B O 0.171(3) 0.6535(16) 0.470(2)
O8B O -0.286(3) 0.4682(12) 0.5114(17)
O9B O -0.049(3) 0.6080(16) 0.285(2)
O10B O -0.368(3) 0.4814(13) 0.3122(18)
O11B O -0.300(2) 0.5985(11) 0.4365(17)
O12B O -0.030(2) 0.7522(13) 0.335(2)
O13B O 0.175(2) 0.4801(14) 0.8931(15)
O14B O 0.129(2) 0.7319(14) 0.7307(18)
O15B O -0.465(3) 0.6169(12) 0.2183(16)
O16B O -0.299(3) 0.5838(12) 0.613(2)
O17B O -0.067(3) 0.5149(17) 0.699(3)
O18B O -0.283(4) 0.540(2) 0.214(3)
O19B O -0.087(3) 0.6404(16) 0.615(3)
O20B O 0.153(3) 0.5857(17) 0.760(3)
O21B O -0.197(3) 0.6573(19) 0.339(3)
O22B O 0.244(3) 0.6369(18) 0.667(2)
O23B O -0.0935(19) 0.6555(11) 1.0501(15)
N1B N 0.516(3) 0.4128(18) 1.055(2)
C1B C -0.491(3) 0.7845(17) 0.966(2)
H1B H -0.5516 0.8102 0.9703
N2B N 0.287(2) 0.5179(14) 1.144(2)
N3B N -0.208(3) 0.6596(14) 0.8764(19)
N4B N -0.087(2) 0.6214(15) 0.9172(19)
C2B C 0.341(3) 0.5271(17) 1.246(2)
H2B H 0.4234 0.5054 1.2947
C3B C 0.579(4) 0.380(2) 1.038(2)
C4B C 0.288(3) 0.5638(17) 1.285(2)
H3B H 0.3311 0.5673 1.3575
C5B C -0.531(4) 0.7695(18) 0.861(3)
H4B H -0.6151 0.7811 0.7993
C6B C 0.161(3) 0.5984(18) 1.208(3)
H5B H 0.1192 0.6261 1.2300
C7B C 0.106(3) 0.5888(15) 1.105(2)
C8B C -0.307(3) 0.7162(14) 0.955(2)
C9B C -0.023(3) 0.6213(14) 1.020(2)
C10B C 0.170(3) 0.5499(18) 1.070(2)
H6B H 0.1315 0.5462 0.9984
C11B C -0.289(3) 0.7325(16) 1.051(2)
H7B H -0.2095 0.7182 1.1148
C12B C -0.430(3) 0.7354(18) 0.863(2)
H8B H -0.4457 0.7250 0.7984
C13B C -0.210(3) 0.6772(16) 0.953(2)
N5B N -0.376(3) 0.7659(14) 1.057(2)
C14B C 0.666(5) 0.338(3) 1.019(4)
H9B H 0.7277 0.3092 1.0804
H10B H 0.6111 0.3081 0.9580
H11B H 0.7153 0.3715 1.0072
Ag2A Ag -0.3120(3) 0.81068(14) 1.21119(17)
Ag2C Ag 0.3120(3) 0.18932(14) -0.21119(17)
N5A N -0.376(3) 0.7341(14) 0.557(2)
N5C N 0.376(3) 0.2659(14) 0.443(2)
loop_
_geom_bond_atom_site_label_1
_geom_bond_atom_site_label_2
_geom_bond_site_symmetry_1
_geom_bond_site_symmetry_2
W1 O1 1_555 1_555
W2 O13 1_555 1_555
W3 O1 1_555 1_555
W4 O2 1_555 1_555
W5 O3 1_555 1_555
W6 O3 1_555 1_555
Ag1 N1 1_555 1_555
Ag2 O16 1_555 1_555
Si1 O1 1_555 1_555
O1 O3B 1_555 1_555
O2 W3 1_555 1_555
O3 W4 1_555 1_555
O4 Si1 1_555 1_555
O5 W1 1_555 1_555
O6 W6 1_555 1_555
O7 W3 1_555 1_555
O8 W5 1_555 1_555
O9 W3 1_555 1_555
O10 W4 1_555 1_555
O11 W4 1_555 1_555
O12 W3 1_555 1_555
O14 W1 1_555 1_555
O15 W4 1_555 1_555
O16 W5 1_555 1_555
O17 W2 1_555 1_555
O18 W4 1_555 1_555
O19 W1 1_555 1_555
O20 W1 1_555 1_555
O21 W3 1_555 1_555
O22 W1 1_555 1_555
O23 C9 1_555 1_555
N1 C3 1_555 1_555
C1 H1 1_555 1_555
N2 Ag1 1_555 1_555
N3 Ag2 1_555 1_555
N4 N3 1_555 1_555
C2 N2 1_555 1_555
H2 C2 1_555 1_555
C3 C14 1_555 1_555
C4 C2 1_555 1_555
H3 C4 1_555 1_555
C5 C1 1_555 1_555
H4 C5 1_555 1_555
C6 C4 1_555 1_555
H5 C6 1_555 1_555
C7 C6 1_555 1_555
C8 C11 1_555 1_555
C9 N4 1_555 1_555
C10 N2 1_555 1_555
H6 C10 1_555 1_555
C11 H7 1_555 1_555
C12 C5 1_555 1_555
H8 C12 1_555 1_555
C13 O23 1_555 1_555
N5 C1 1_555 1_555
C14 H9 1_555 1_555
H10 C14 1_555 1_555
H11 C14 1_555 1_555
O1B W6 1_555 1_555
O2B W2 1_555 1_555
O3B Si1 1_555 1_555
O4B W1 1_555 1_555
W1B O4 1_555 1_555
W2B O2 1_555 1_555
W3B O1B 1_555 1_555
W4B O2B 1_555 1_555
W5B O4 1_555 1_555
W6B O1 1_555 1_555
Ag1B N1B 1_555 1_555
Ag2B O16B 1_555 1_555
O5B W1B 1_555 1_555
O6B W6B 1_555 1_555
O7B W6 1_555 1_555
O8B W5B 1_555 1_555
O9B W2 1_555 1_555
O10B W4B 1_555 1_555
O11B W4B 1_555 1_555
O12B W3B 1_555 1_555
O13B W2B 1_555 1_555
O14B W1B 1_555 1_555
O15B W4B 1_555 1_555
O16B W5B 1_555 1_555
O17B W2B 1_555 1_555
O18B W2 1_555 1_555
O19B W1B 1_555 1_555
O20B W1B 1_555 1_555
O21B W3B 1_555 1_555
O22B W6 1_555 1_555
O23B C9B 1_555 1_555
N1B C3B 1_555 1_555
C1B H1B 1_555 1_555
N2B Ag1B 1_555 1_555
N3B Ag2B 1_555 1_555
N4B N3B 1_555 1_555
C2B N2B 1_555 1_555
H2B C2B 1_555 1_555
C3B C14B 1_555 1_555
C4B C2B 1_555 1_555
H3B C4B 1_555 1_555
C5B C1B 1_555 1_555
H4B C5B 1_555 1_555
C6B C4B 1_555 1_555
H5B C6B 1_555 1_555
C7B C6B 1_555 1_555
C8B C11B 1_555 1_555
C9B N4B 1_555 1_555
C10B N2B 1_555 1_555
H6B C10B 1_555 1_555
C11B H7B 1_555 1_555
C12B C5B 1_555 1_555
H8B C12B 1_555 1_555
C13B O23B 1_555 1_555
N5B C1B 1_555 1_555
C14B H9B 1_555 1_555
H10B C14B 1_555 1_555
H11B C14B 1_555 1_555
Ag2A N5B 1_555 1_555
Ag2C N5 1_555 1_555
N5A Ag2B 1_555 1_555
N5C Ag2 1_555 1_555
W2 O20 1_555 1_555
W2 O4B 1_555 1_555
W3 O5 1_555 1_555
W4 O21 1_555 1_555
W5 O11 1_555 1_555
W5 O17 1_555 1_555
W5 O19 1_555 1_555
W5 O4B 1_555 1_555
W6 O8 1_555 1_555
W6 O10 1_555 1_555
Si1 O2 1_555 1_555
Si1 O3 1_555 1_555
Si1 O1B 1_555 1_555
Si1 O2B 1_555 1_555
Si1 O4B 1_555 1_555
O2 O3 1_555 1_555
O3 O1B 1_555 1_555
O3 O4B 1_555 1_555
O4 O3B 1_555 1_555
O4 W2B 1_555 1_555
O7 W6B 1_555 1_555
O9 W2B 1_555 1_555
O18 W2B 1_555 1_555
O22 W6B 1_555 1_555
N3 C13 1_555 1_555
C7 C9 1_555 1_555
C7 C10 1_555 1_555
C8 C12 1_555 1_555
C8 C13 1_555 1_555
C11 N5 1_555 1_555
O1B W1B 1_555 1_555
O2B O3B 1_555 1_555
O2B W3B 1_555 1_555
O3B W4B 1_555 1_555
O3B W5B 1_555 1_555
O3B W6B 1_555 1_555
W1B O22B 1_555 1_555
W2B O20B 1_555 1_555
W3B O5B 1_555 1_555
W3B O7B 1_555 1_555
W3B O9B 1_555 1_555
W4B O18B 1_555 1_555
W4B O21B 1_555 1_555
W5B O11B 1_555 1_555
W5B O17B 1_555 1_555
W5B O19B 1_555 1_555
W6B O8B 1_555 1_555
W6B O10B 1_555 1_555
N3B C13B 1_555 1_555
C7B C9B 1_555 1_555
C7B C10B 1_555 1_555
C8B C12B 1_555 1_555
C8B C13B 1_555 1_555
C11B N5B 1_555 1_555

#END
