
#######################################################################
#
#                 Cambridge Crystallographic Data Centre
#                                CCDC 
#
#######################################################################
#
# If this CIF has been generated from an entry in the Cambridge 
# Structural Database, then it will include bibliographic, chemical, 
# crystal, experimental, refinement or atomic coordinate data resulting 
# from the CCDC's data processing and validation procedures.
#
#######################################################################

data_QUMPUK
_symmetry_cell_setting           monoclinic
_symmetry_space_group_name_H-M   'C 2/c'
_symmetry_Int_Tables_number      15
_space_group_name_Hall           '-C 2yn'
loop_
_symmetry_equiv_pos_site_id
_symmetry_equiv_pos_as_xyz
1 x,y,z
2 -x,y,1/2-z
3 1/2+x,1/2+y,z
4 1/2-x,1/2+y,1/2-z
5 -x,-y,-z
6 x,-y,1/2+z
7 1/2-x,1/2-y,-z
8 1/2+x,1/2-y,1/2+z
_cell_length_a                   12.7516(6)
_cell_length_b                   12.0784(6)
_cell_length_c                   12.5437(6)
_cell_angle_alpha                90
_cell_angle_beta                 99.233(2)
_cell_angle_gamma                90
_cell_volume                     1906.94
loop_
_atom_site_label
_atom_site_type_symbol
_atom_site_fract_x
_atom_site_fract_y
_atom_site_fract_z
Y1 Y 0.272594(13) 0.463317(14) 0.222601(13)
O1 O 0.23931(11) 0.40979(11) 0.40082(11)
O2 O 0.20947(12) 0.14669(11) 0.34553(11)
O3 O 0.36985(12) 0.43259(14) 0.08765(12)
O4 O 0.59919(12) 0.55187(12) 0.16064(11)
O5 O 0.37832(12) 0.31529(12) 0.27680(13)
O6 O 0.37474(13) 0.04994(12) 0.24246(14)
O7 O 0.14945(14) 0.46597(13) 0.04880(14)
O8 O 0.15826(14) 0.30837(14) 0.18966(14)
C1 C 0.24549(15) 0.32168(15) 0.45426(15)
C2 C 0.23252(15) 0.20306(15) 0.43025(15)
C3 C 0.44155(16) 0.46981(15) 0.04048(17)
C4 C 0.54463(16) 0.52235(15) 0.07267(16)
C5 C 0.44407(15) 0.24488(15) 0.25817(16)
C6 C 0.44342(15) 0.12448(15) 0.25060(16)
C7 C 0.0859(2) 0.3692(2) 0.0174(2)
C8 C 0.0598(2) 0.3194(2) 0.1180(2)
H1 H 0.130(3) 0.312(3) -0.018(3)
H2 H 0.018(2) 0.3899(19) -0.028(2)
H3 H 0.025(2) 0.250(2) 0.103(2)
H4 H 0.010(2) 0.374(2) 0.151(2)
H5 H 0.162(2) 0.255(2) 0.218(2)
H6 H 0.177(3) 0.482(3) 0.005(3)
Y1F Y 0.227406(13) 0.036683(14) 0.777399(13)
Y1C Y 0.227406(13) -0.036683(14) 0.277399(13)
Y1A Y 0.727406(13) 0.463317(14) 0.277399(13)
Y1E Y 0.272594(13) 0.536683(14) 0.722601(13)
Y1D Y 0.727406(13) 0.536683(14) -0.222601(13)
Y1E_2 Y 0.272594(13) 0.536683(14) -0.277399(13)
Y1B Y 0.772594(13) -0.036683(14) 0.222601(13)
O1F O 0.26069(11) 0.09021(11) 0.59918(11)
O2F O 0.29053(12) 0.35331(11) 0.65447(11)
O2C O 0.29053(12) 0.64669(11) 0.15447(11)
O2E O 0.20947(12) -0.14669(11) 0.84553(11)
O3D O 0.63015(12) 0.56741(14) -0.08765(12)
O3F O 0.13015(12) 0.06741(14) 0.91235(12)
O4D O 0.40081(12) 0.44813(12) -0.16064(11)
O4A O 0.40081(12) 0.55187(12) 0.33936(11)
O4G O 0.09919(12) -0.05187(12) 0.66064(11)
O5A O 0.62168(12) 0.31529(12) 0.22320(13)
O5F O 0.12168(12) 0.18471(12) 0.72320(13)
O6A O 0.62526(13) 0.04994(12) 0.25754(14)
O6C O 0.12526(13) 0.54994(12) 0.25754(14)
O6E O 0.37474(13) -0.04994(12) 0.74246(14)
O7F O 0.35055(14) 0.03403(13) 0.95120(14)
O8F O 0.34174(14) 0.19163(14) 0.81034(14)
C1F C 0.25451(15) 0.17832(15) 0.54574(15)
C2F C 0.26748(15) 0.29694(15) 0.56975(15)
C3D C 0.55845(16) 0.53019(15) -0.04048(17)
C4D C 0.45537(16) 0.47765(15) -0.07267(16)
C5A C 0.55593(15) 0.24488(15) 0.24183(16)
C6A C 0.55658(15) 0.12448(15) 0.24940(16)
C7F C 0.4141(2) 0.1308(2) 0.9826(2)
C8F C 0.4402(2) 0.1806(2) 0.8820(2)
H1F H 0.370(3) 0.188(3) 1.018(3)
H2F H 0.482(2) 0.1101(19) 1.028(2)
H3F H 0.475(2) 0.250(2) 0.897(2)
H4F H 0.490(2) 0.126(2) 0.849(2)
H5F H 0.338(2) 0.245(2) 0.782(2)
H6F H 0.323(3) 0.018(3) 0.995(3)
loop_
_geom_bond_atom_site_label_1
_geom_bond_atom_site_label_2
_geom_bond_site_symmetry_1
_geom_bond_site_symmetry_2
Y1 O1 1_555 1_555
O1 C1 1_555 1_555
O2 C2 1_555 1_555
O3 Y1 1_555 1_555
O4 C4 1_555 1_555
O5 Y1 1_555 1_555
O6 C6 1_555 1_555
O7 Y1 1_555 1_555
O8 Y1 1_555 1_555
C1 C2 1_555 1_555
C2 C1F 1_555 1_555
C3 O3 1_555 1_555
C4 C3 1_555 1_555
C5 O5 1_555 1_555
C6 C5 1_555 1_555
C7 O7 1_555 1_555
C8 O8 1_555 1_555
H1 C7 1_555 1_555
H2 C7 1_555 1_555
H3 C8 1_555 1_555
H4 C8 1_555 1_555
H5 O8 1_555 1_555
H6 O7 1_555 1_555
Y1F O1F 1_555 1_555
Y1C O2 1_555 1_555
Y1A O4 1_555 1_555
Y1E O2F 1_555 1_555
Y1D O3D 1_555 1_555
Y1E_2 O4D 1_555 1_555
Y1B O6A 1_555 1_555
O1F C1F 1_555 1_555
O2F C2F 1_555 1_555
O2C Y1 1_555 1_555
O2E Y1F 1_555 1_555
O3D C3D 1_555 1_555
O3F Y1F 1_555 1_555
O4D C4D 1_555 1_555
O4A Y1 1_555 1_555
O4G Y1F 1_555 1_555
O5A Y1A 1_555 1_555
O5F Y1F 1_555 1_555
O6A C6A 1_555 1_555
O6C Y1 1_555 1_555
O6E Y1F 1_555 1_555
O7F Y1F 1_555 1_555
O8F Y1F 1_555 1_555
C1F C2F 1_555 1_555
C2F C1 1_555 1_555
C3D C4 1_555 1_555
C4D C3 1_555 1_555
C5A C5 1_555 1_555
C6A C6 1_555 1_555
C7F O7F 1_555 1_555
C8F O8F 1_555 1_555
H1F C7F 1_555 1_555
H2F C7F 1_555 1_555
H3F C8F 1_555 1_555
H4F C8F 1_555 1_555
H5F O8F 1_555 1_555
H6F O7F 1_555 1_555
O6 Y1C 1_555 1_555
C7 C8 1_555 1_555
O5A C5A 1_555 1_555
C3D C4D 1_555 1_555
C5A C6A 1_555 1_555
C7F C8F 1_555 1_555

#END
