
#######################################################################
#
#                 Cambridge Crystallographic Data Centre
#                                CCDC 
#
#######################################################################
#
# If this CIF has been generated from an entry in the Cambridge 
# Structural Database, then it will include bibliographic, chemical, 
# crystal, experimental, refinement or atomic coordinate data resulting 
# from the CCDC's data processing and validation procedures.
#
#######################################################################

data_QUMQEV
_symmetry_cell_setting           monoclinic
_symmetry_space_group_name_H-M   'C 2/c'
_symmetry_Int_Tables_number      15
_space_group_name_Hall           '-C 2yn'
loop_
_symmetry_equiv_pos_site_id
_symmetry_equiv_pos_as_xyz
1 x,y,z
2 -x,y,1/2-z
3 1/2+x,1/2+y,z
4 1/2-x,1/2+y,1/2-z
5 -x,-y,-z
6 x,-y,1/2+z
7 1/2-x,1/2-y,-z
8 1/2+x,1/2-y,1/2+z
_cell_length_a                   13.0958(5)
_cell_length_b                   12.3373(5)
_cell_length_c                   12.8153(5)
_cell_angle_alpha                90
_cell_angle_beta                 98.876(2)
_cell_angle_gamma                90
_cell_volume                     2045.73
loop_
_atom_site_label
_atom_site_type_symbol
_atom_site_fract_x
_atom_site_fract_y
_atom_site_fract_z
Ce1 Ce 0.274692(7) 0.463838(8) 0.222944(7)
O1 O 0.23711(11) 0.40712(12) 0.40403(11)
O2 O 0.20373(12) 0.15087(12) 0.34915(11)
O3 O 0.37508(12) 0.42798(15) 0.08497(13)
O4 O 0.59296(12) 0.55445(14) 0.15706(12)
O5 O 0.38231(13) 0.31173(14) 0.27857(15)
O6 O 0.37769(13) 0.05317(14) 0.24424(16)
O7 O 0.14843(14) 0.46224(14) 0.04490(14)
O8 O 0.15391(16) 0.30502(16) 0.18561(15)
C1 C 0.24447(14) 0.32047(16) 0.45577(14)
C2 C 0.22982(14) 0.20513(16) 0.43165(15)
C3 C 0.44389(16) 0.46792(17) 0.03911(17)
C4 C 0.54169(16) 0.52372(17) 0.07111(16)
C5 C 0.44589(14) 0.24255(16) 0.25890(16)
C6 C 0.44484(13) 0.12546(16) 0.25123(15)
C7 C 0.0872(2) 0.3673(3) 0.0164(2)
C8 C 0.0600(2) 0.3190(3) 0.1145(2)
H1 H 0.130(3) 0.310(3) -0.019(3)
H2 H 0.022(2) 0.386(3) -0.031(3)
H3 H 0.024(2) 0.248(3) 0.100(3)
H4 H 0.013(3) 0.379(3) 0.146(3)
H5 H 0.178(3) 0.481(3) -0.006(3)
H6 H 0.157(3) 0.252(3) 0.215(3)
Ce1F Ce 0.225308(7) 0.036162(8) 0.777056(7)
Ce1C Ce 0.225308(7) -0.036162(8) 0.277056(7)
Ce1A Ce 0.725308(7) 0.463838(8) 0.277056(7)
Ce1E Ce 0.274692(7) 0.536162(8) 0.722944(7)
Ce1D Ce 0.725308(7) 0.536162(8) -0.222944(7)
Ce1E_2 Ce 0.274692(7) 0.536162(8) -0.277056(7)
Ce1B Ce 0.774692(7) -0.036162(8) 0.222944(7)
O1F O 0.26289(11) 0.09288(12) 0.59597(11)
O2F O 0.29627(12) 0.34913(12) 0.65085(11)
O2C O 0.29627(12) 0.65087(12) 0.15085(11)
O2E O 0.20373(12) -0.15087(12) 0.84915(11)
O3D O 0.62492(12) 0.57202(15) -0.08497(13)
O3F O 0.12492(12) 0.07202(15) 0.91503(13)
O4D O 0.40704(12) 0.44555(14) -0.15706(12)
O4A O 0.40704(12) 0.55445(14) 0.34294(12)
O4G O 0.09296(12) -0.05445(14) 0.65706(12)
O5A O 0.61769(13) 0.31173(14) 0.22143(15)
O5F O 0.11769(13) 0.18827(14) 0.72143(15)
O6A O 0.62231(13) 0.05317(14) 0.25576(16)
O6C O 0.12231(13) 0.55317(14) 0.25576(16)
O6E O 0.37769(13) -0.05317(14) 0.74424(16)
O7F O 0.35157(14) 0.03776(14) 0.95510(14)
O8F O 0.34609(16) 0.19498(16) 0.81439(15)
C1F C 0.25553(14) 0.17953(16) 0.54423(14)
C2F C 0.27018(14) 0.29487(16) 0.56835(15)
C3D C 0.55611(16) 0.53208(17) -0.03911(17)
C4D C 0.45831(16) 0.47628(17) -0.07111(16)
C5A C 0.55411(14) 0.24255(16) 0.24110(16)
C6A C 0.55516(13) 0.12546(16) 0.24877(15)
C7F C 0.4128(2) 0.1327(3) 0.9836(2)
C8F C 0.4400(2) 0.1810(3) 0.8855(2)
H1F H 0.370(3) 0.190(3) 1.019(3)
H2F H 0.478(2) 0.114(3) 1.031(3)
H3F H 0.476(2) 0.252(3) 0.900(3)
H4F H 0.487(3) 0.121(3) 0.854(3)
H5F H 0.322(3) 0.019(3) 1.006(3)
H6F H 0.343(3) 0.248(3) 0.785(3)
loop_
_geom_bond_atom_site_label_1
_geom_bond_atom_site_label_2
_geom_bond_site_symmetry_1
_geom_bond_site_symmetry_2
Ce1 O1 1_555 1_555
O1 C1 1_555 1_555
O2 C2 1_555 1_555
O3 Ce1 1_555 1_555
O4 C4 1_555 1_555
O5 Ce1 1_555 1_555
O6 C6 1_555 1_555
O7 Ce1 1_555 1_555
O8 Ce1 1_555 1_555
C1 C2 1_555 1_555
C2 C1F 1_555 1_555
C3 O3 1_555 1_555
C4 C3 1_555 1_555
C5 O5 1_555 1_555
C6 C5 1_555 1_555
C7 O7 1_555 1_555
C8 O8 1_555 1_555
H1 C7 1_555 1_555
H2 C7 1_555 1_555
H3 C8 1_555 1_555
H4 C8 1_555 1_555
H5 O7 1_555 1_555
H6 O8 1_555 1_555
Ce1F O1F 1_555 1_555
Ce1C O2 1_555 1_555
Ce1A O4 1_555 1_555
Ce1E O2F 1_555 1_555
Ce1D O3D 1_555 1_555
Ce1E_2 O4D 1_555 1_555
Ce1B O6A 1_555 1_555
O1F C1F 1_555 1_555
O2F C2F 1_555 1_555
O2C Ce1 1_555 1_555
O2E Ce1F 1_555 1_555
O3D C3D 1_555 1_555
O3F Ce1F 1_555 1_555
O4D C4D 1_555 1_555
O4A Ce1 1_555 1_555
O4G Ce1F 1_555 1_555
O5A Ce1A 1_555 1_555
O5F Ce1F 1_555 1_555
O6A C6A 1_555 1_555
O6C Ce1 1_555 1_555
O6E Ce1F 1_555 1_555
O7F Ce1F 1_555 1_555
O8F Ce1F 1_555 1_555
C1F C2F 1_555 1_555
C2F C1 1_555 1_555
C3D C4 1_555 1_555
C4D C3 1_555 1_555
C5A C5 1_555 1_555
C6A C6 1_555 1_555
C7F O7F 1_555 1_555
C8F O8F 1_555 1_555
H1F C7F 1_555 1_555
H2F C7F 1_555 1_555
H3F C8F 1_555 1_555
H4F C8F 1_555 1_555
H5F O7F 1_555 1_555
H6F O8F 1_555 1_555
O6 Ce1C 1_555 1_555
C7 C8 1_555 1_555
O5A C5A 1_555 1_555
C3D C4D 1_555 1_555
C5A C6A 1_555 1_555
C7F C8F 1_555 1_555

#END
