
#######################################################################
#
#                 Cambridge Crystallographic Data Centre
#                                CCDC 
#
#######################################################################
#
# If this CIF has been generated from an entry in the Cambridge 
# Structural Database, then it will include bibliographic, chemical, 
# crystal, experimental, refinement or atomic coordinate data resulting 
# from the CCDC's data processing and validation procedures.
#
#######################################################################

data_QUMQIA
_symmetry_cell_setting           monoclinic
_symmetry_space_group_name_H-M   'C 2/c'
_symmetry_Int_Tables_number      15
_space_group_name_Hall           '-C 2yn'
loop_
_symmetry_equiv_pos_site_id
_symmetry_equiv_pos_as_xyz
1 x,y,z
2 -x,y,1/2-z
3 1/2+x,1/2+y,z
4 1/2-x,1/2+y,1/2-z
5 -x,-y,-z
6 x,-y,1/2+z
7 1/2-x,1/2-y,-z
8 1/2+x,1/2-y,1/2+z
_cell_length_a                   26.589(1)
_cell_length_b                   17.564(1)
_cell_length_c                   29.171(1)
_cell_angle_alpha                90
_cell_angle_beta                 106.352(2)
_cell_angle_gamma                90
_cell_volume                     13072.1
loop_
_atom_site_label
_atom_site_type_symbol
_atom_site_fract_x
_atom_site_fract_y
_atom_site_fract_z
Cu1 Cu 0.19602(3) 0.07718(4) 0.61334(2)
Cu2 Cu 0.16928(3) 0.17473(4) 0.66705(2)
P1 P 0.19327(6) 0.20923(8) 0.60050(5)
P2 P 0.11621(6) 0.02349(8) 0.59507(4)
N1 N 0.2374(2) 0.0726(3) 0.56415(16)
N2 N 0.1286(2) 0.2738(3) 0.65594(19)
N3 N 0.1365(2) 0.1019(3) 0.70390(15)
N4 N 0.1292(2) -0.0021(3) 0.50173(15)
N5 N 0.24577(19) 0.0323(3) 0.67076(17)
N6 N 0.2643(2) -0.2995(3) 0.77883(16)
C1 C 0.1927(3) 0.1896(4) 0.53894(19)
C2 C 0.1566(3) 0.2316(4) 0.5073(2)
C3 C 0.1421(3) 0.2273(5) 0.4540(2)
H1 H 0.1668 0.2574 0.4427
H2 H 0.1451 0.1749 0.4446
C4 C 0.0888(4) 0.2544(9) 0.4307(3)
H3 H 0.0823 0.2536 0.3963
H4 H 0.0634 0.2213 0.4389
C5 C 0.0833(5) 0.3286(6) 0.4459(3)
H5 H 0.0506 0.3493 0.4261
H6 H 0.1115 0.3594 0.4407
C6 C 0.0839(3) 0.3369(4) 0.5034(3)
H7 H 0.0904 0.3892 0.5141
H8 H 0.0507 0.3206 0.5078
C7 C 0.1292(3) 0.2841(4) 0.5310(2)
C8 C 0.1434(2) 0.2803(3) 0.5801(2)
C9 C 0.1225(3) 0.3154(4) 0.6150(3)
C10 C 0.0995(3) 0.3885(5) 0.6111(4)
H9 H 0.0980 0.4177 0.5842
C11 C 0.0806(3) 0.4158(5) 0.6436(4)
H10 H 0.0651 0.4637 0.6394
C12 C 0.0832(3) 0.3733(5) 0.6863(4)
H11 H 0.0684 0.3910 0.7096
C13 C 0.1095(3) 0.3033(4) 0.6903(3)
H12 H 0.1141 0.2757 0.7184
C14 C 0.2277(3) 0.1290(4) 0.5303(2)
C15 C 0.2483(3) 0.1258(5) 0.4916(2)
H13 H 0.2406 0.1638 0.4685
C16 C 0.2798(4) 0.0669(7) 0.4878(3)
H14 H 0.2942 0.0647 0.4622
C17 C 0.2905(3) 0.0101(5) 0.5219(3)
H15 H 0.3121 -0.0306 0.5198
C18 C 0.2681(3) 0.0154(5) 0.5592(2)
H16 H 0.2749 -0.0231 0.5820
C19 C 0.2553(2) 0.2593(3) 0.62541(17)
C20 C 0.2552(2) 0.3393(3) 0.62931(17)
H17 H 0.2241 0.3665 0.6186
C21 C 0.3022(3) 0.3771(4) 0.64939(19)
H18 H 0.3031 0.4299 0.6514
C22 C 0.3474(3) 0.3352(5) 0.6663(2)
H19 H 0.3788 0.3601 0.6804
C23 C 0.3469(3) 0.2574(4) 0.6626(2)
H20 H 0.3779 0.2300 0.6736
C24 C 0.2998(2) 0.2194(4) 0.6422(2)
H21 H 0.2993 0.1666 0.6403
C25 C 0.0765(2) 0.0657(3) 0.62891(17)
C26 C 0.0367(2) 0.1063(3) 0.60051(19)
C27 C 0.0006(2) 0.1579(4) 0.6179(2)
H22 H -0.0266 0.1276 0.6254
H23 H 0.0203 0.1834 0.6469
C28 C -0.0242(4) 0.2159(6) 0.5811(3)
H24 H -0.0528 0.2391 0.5906
H25 H 0.0015 0.2554 0.5820
C29 C -0.0434(3) 0.1921(5) 0.5344(3)
H26 H -0.0541 0.2369 0.5147
H27 H -0.0747 0.1622 0.5320
C30 C -0.0072(2) 0.1450(3) 0.51268(19)
H28 H -0.0284 0.1105 0.4891
H29 H 0.0105 0.1792 0.4962
C31 C 0.0333(2) 0.0996(3) 0.54833(17)
C32 C 0.0707(2) 0.0546(3) 0.53917(17)
C33 C 0.0847(2) 0.0356(3) 0.49504(17)
C34 C 0.0536(2) 0.0576(4) 0.44885(18)
H30 H 0.0222 0.0839 0.4442
C35 C 0.0732(3) 0.0373(4) 0.4107(2)
H31 H 0.0539 0.0498 0.3798
C36 C 0.1188(3) 0.0004(4) 0.4172(2)
H32 H 0.1319 -0.0116 0.3917
C37 C 0.1455(3) -0.0191(3) 0.4640(2)
H33 H 0.1768 -0.0458 0.4691
C38 C 0.0913(3) 0.0648(3) 0.68177(18)
C39 C 0.0621(3) 0.0301(5) 0.7074(2)
H34 H 0.0305 0.0069 0.6917
C40 C 0.0803(5) 0.0295(6) 0.7579(3)
H35 H 0.0608 0.0060 0.7758
C41 C 0.1247(4) 0.0627(5) 0.7787(2)
H36 H 0.1375 0.0614 0.8119
C42 C 0.1538(3) 0.1006(4) 0.7519(2)
H37 H 0.1850 0.1249 0.7674
C43 C 0.1097(2) -0.0806(3) 0.60074(17)
C44 C 0.0723(2) -0.1103(3) 0.62096(17)
H38 H 0.0511 -0.0782 0.6328
C45 C 0.0674(2) -0.1891(4) 0.62295(19)
H39 H 0.0420 -0.2101 0.6354
C46 C 0.1002(3) -0.2367(4) 0.60655(19)
H40 H 0.0967 -0.2893 0.6077
C47 C 0.1381(3) -0.2048(4) 0.5885(2)
H41 H 0.1608 -0.2364 0.5781
C48 C 0.1430(2) -0.1278(3) 0.58560(18)
H42 H 0.1688 -0.1073 0.5734
C49 C 0.2669(2) 0.0037(3) 0.7049(2)
C50 C 0.2930(3) -0.0384(4) 0.7490(2)
H43 H 0.2923 -0.0083 0.7767
H44 H 0.3293 -0.0478 0.7503
C51 C 0.2654(2) -0.1129(3) 0.74984(18)
H45 H 0.2910 -0.1518 0.7493
H46 H 0.2598 -0.1157 0.7813
C52 C 0.2206(2) -0.1371(3) 0.71966(19)
H47 H 0.2256 -0.1333 0.6881
H48 H 0.1945 -0.0992 0.7209
C53 C 0.1948(3) -0.2131(4) 0.7209(2)
H49 H 0.1642 -0.2069 0.7325
H50 H 0.1836 -0.2347 0.6891
C54 C 0.2331(2) -0.2639(3) 0.75310(19)
Cu2C Cu 0.33072(3) -0.32527(4) 0.83295(2)
N6C N 0.2357(2) 0.2005(3) 0.72117(16)
loop_
_geom_bond_atom_site_label_1
_geom_bond_atom_site_label_2
_geom_bond_site_symmetry_1
_geom_bond_site_symmetry_2
Cu1 Cu2 1_555 1_555
Cu2 P1 1_555 1_555
P1 Cu1 1_555 1_555
P2 Cu1 1_555 1_555
N1 Cu1 1_555 1_555
N2 Cu2 1_555 1_555
N3 Cu2 1_555 1_555
N4 C33 1_555 1_555
N5 Cu1 1_555 1_555
N6 C54 1_555 1_555
C1 P1 1_555 1_555
C2 C1 1_555 1_555
C3 C2 1_555 1_555
H1 C3 1_555 1_555
H2 C3 1_555 1_555
C4 C3 1_555 1_555
H3 C4 1_555 1_555
H4 C4 1_555 1_555
C5 C4 1_555 1_555
H5 C5 1_555 1_555
H6 C5 1_555 1_555
C6 C5 1_555 1_555
H7 C6 1_555 1_555
H8 C6 1_555 1_555
C7 C2 1_555 1_555
C8 P1 1_555 1_555
C9 N2 1_555 1_555
C10 C9 1_555 1_555
H9 C10 1_555 1_555
C11 C10 1_555 1_555
H10 C11 1_555 1_555
C12 C11 1_555 1_555
H11 C12 1_555 1_555
C13 N2 1_555 1_555
H12 C13 1_555 1_555
C14 N1 1_555 1_555
C15 C14 1_555 1_555
H13 C15 1_555 1_555
C16 C15 1_555 1_555
H14 C16 1_555 1_555
C17 C16 1_555 1_555
H15 C17 1_555 1_555
C18 N1 1_555 1_555
H16 C18 1_555 1_555
C19 P1 1_555 1_555
C20 C19 1_555 1_555
H17 C20 1_555 1_555
C21 C20 1_555 1_555
H18 C21 1_555 1_555
C22 C21 1_555 1_555
H19 C22 1_555 1_555
C23 C22 1_555 1_555
H20 C23 1_555 1_555
C24 C19 1_555 1_555
H21 C24 1_555 1_555
C25 P2 1_555 1_555
C26 C25 1_555 1_555
C27 C26 1_555 1_555
H22 C27 1_555 1_555
H23 C27 1_555 1_555
C28 C27 1_555 1_555
H24 C28 1_555 1_555
H25 C28 1_555 1_555
C29 C28 1_555 1_555
H26 C29 1_555 1_555
H27 C29 1_555 1_555
C30 C29 1_555 1_555
H28 C30 1_555 1_555
H29 C30 1_555 1_555
C31 C26 1_555 1_555
C32 P2 1_555 1_555
C33 C32 1_555 1_555
C34 C33 1_555 1_555
H30 C34 1_555 1_555
C35 C34 1_555 1_555
H31 C35 1_555 1_555
C36 C35 1_555 1_555
H32 C36 1_555 1_555
C37 N4 1_555 1_555
H33 C37 1_555 1_555
C38 N3 1_555 1_555
C39 C38 1_555 1_555
H34 C39 1_555 1_555
C40 C39 1_555 1_555
H35 C40 1_555 1_555
C41 C40 1_555 1_555
H36 C41 1_555 1_555
C42 N3 1_555 1_555
H37 C42 1_555 1_555
C43 P2 1_555 1_555
C44 C43 1_555 1_555
H38 C44 1_555 1_555
C45 C44 1_555 1_555
H39 C45 1_555 1_555
C46 C45 1_555 1_555
H40 C46 1_555 1_555
C47 C46 1_555 1_555
H41 C47 1_555 1_555
C48 C43 1_555 1_555
H42 C48 1_555 1_555
C49 N5 1_555 1_555
C50 C49 1_555 1_555
H43 C50 1_555 1_555
H44 C50 1_555 1_555
C51 C50 1_555 1_555
H45 C51 1_555 1_555
H46 C51 1_555 1_555
C52 C51 1_555 1_555
H47 C52 1_555 1_555
H48 C52 1_555 1_555
C53 C52 1_555 1_555
H49 C53 1_555 1_555
H50 C53 1_555 1_555
C54 C53 1_555 1_555
Cu2C N6 1_555 1_555
N6C Cu2 1_555 1_555
C1 C14 1_555 1_555
C6 C7 1_555 1_555
C7 C8 1_555 1_555
C8 C9 1_555 1_555
C12 C13 1_555 1_555
C17 C18 1_555 1_555
C23 C24 1_555 1_555
C25 C38 1_555 1_555
C30 C31 1_555 1_555
C31 C32 1_555 1_555
C36 C37 1_555 1_555
C41 C42 1_555 1_555
C47 C48 1_555 1_555

#END
