
#######################################################################
#
#                 Cambridge Crystallographic Data Centre
#                                CCDC 
#
#######################################################################
#
# If this CIF has been generated from an entry in the Cambridge 
# Structural Database, then it will include bibliographic, chemical, 
# crystal, experimental, refinement or atomic coordinate data resulting 
# from the CCDC's data processing and validation procedures.
#
#######################################################################

data_QUMROG
_symmetry_cell_setting           monoclinic
_symmetry_space_group_name_H-M   'C 2/c'
_symmetry_Int_Tables_number      15
_space_group_name_Hall           '-C 2yn'
loop_
_symmetry_equiv_pos_site_id
_symmetry_equiv_pos_as_xyz
1 x,y,z
2 -x,y,1/2-z
3 1/2+x,1/2+y,z
4 1/2-x,1/2+y,1/2-z
5 -x,-y,-z
6 x,-y,1/2+z
7 1/2-x,1/2-y,-z
8 1/2+x,1/2-y,1/2+z
_cell_length_a                   12.7668(5)
_cell_length_b                   12.1015(5)
_cell_length_c                   12.5648(5)
_cell_angle_alpha                90
_cell_angle_beta                 99.094(2)
_cell_angle_gamma                90
_cell_volume                     1916.83
loop_
_atom_site_label
_atom_site_type_symbol
_atom_site_fract_x
_atom_site_fract_y
_atom_site_fract_z
Dy1 Dy 0.272914(6) 0.463223(7) 0.222460(7)
O1 O 0.23904(12) 0.40961(12) 0.40111(11)
O2 O 0.20857(12) 0.14711(12) 0.34619(11)
O3 O 0.37056(12) 0.43096(14) 0.08704(13)
O4 O 0.59815(12) 0.55228(13) 0.16053(12)
O5 O 0.37852(13) 0.31480(13) 0.27727(14)
O6 O 0.37498(13) 0.05002(13) 0.24224(15)
O7 O 0.14914(14) 0.46581(14) 0.04818(14)
O8 O 0.15803(15) 0.30772(15) 0.18938(15)
C1 C 0.24523(15) 0.32161(16) 0.45403(15)
C2 C 0.23217(15) 0.20337(16) 0.43037(15)
C3 C 0.44166(16) 0.46931(16) 0.04022(17)
C4 C 0.54459(16) 0.52271(16) 0.07290(16)
C5 C 0.44386(15) 0.24457(16) 0.25816(16)
C6 C 0.44306(14) 0.12443(16) 0.25028(15)
C7 C 0.0864(2) 0.3694(2) 0.0168(2)
C8 C 0.0598(2) 0.3191(2) 0.1175(2)
H1 H 0.129(3) 0.314(3) -0.015(3)
H2 H 0.019(2) 0.389(2) -0.030(2)
H3 H 0.020(2) 0.247(2) 0.101(2)
H4 H 0.015(3) 0.376(3) 0.149(3)
H5 H 0.163(2) 0.252(2) 0.221(2)
H6 H 0.177(3) 0.485(3) 0.003(3)
Dy1F Dy 0.227086(6) 0.036777(7) 0.777540(7)
Dy1C Dy 0.227086(6) -0.036777(7) 0.277540(7)
Dy1A Dy 0.727086(6) 0.463223(7) 0.277540(7)
Dy1E Dy 0.272914(6) 0.536777(7) 0.722460(7)
Dy1D Dy 0.727086(6) 0.536777(7) -0.222460(7)
Dy1E_2 Dy 0.272914(6) 0.536777(7) -0.277540(7)
Dy1B Dy 0.772914(6) -0.036777(7) 0.222460(7)
O1F O 0.26096(12) 0.09039(12) 0.59889(11)
O2F O 0.29143(12) 0.35289(12) 0.65381(11)
O2C O 0.29143(12) 0.64711(12) 0.15381(11)
O2E O 0.20857(12) -0.14711(12) 0.84619(11)
O3D O 0.62944(12) 0.56904(14) -0.08704(13)
O3F O 0.12944(12) 0.06904(14) 0.91296(13)
O4D O 0.40185(12) 0.44772(13) -0.16053(12)
O4A O 0.40185(12) 0.55228(13) 0.33947(12)
O4G O 0.09815(12) -0.05228(13) 0.66053(12)
O5A O 0.62148(13) 0.31480(13) 0.22273(14)
O5F O 0.12148(13) 0.18520(13) 0.72273(14)
O6A O 0.62502(13) 0.05002(13) 0.25776(15)
O6C O 0.12502(13) 0.55002(13) 0.25776(15)
O6E O 0.37498(13) -0.05002(13) 0.74224(15)
O7F O 0.35086(14) 0.03419(14) 0.95182(14)
O8F O 0.34197(15) 0.19228(15) 0.81062(15)
C1F C 0.25477(15) 0.17839(16) 0.54597(15)
C2F C 0.26783(15) 0.29663(16) 0.56963(15)
C3D C 0.55834(16) 0.53069(16) -0.04022(17)
C4D C 0.45541(16) 0.47729(16) -0.07290(16)
C5A C 0.55614(15) 0.24457(16) 0.24184(16)
C6A C 0.55694(14) 0.12443(16) 0.24972(15)
C7F C 0.4136(2) 0.1306(2) 0.9832(2)
C8F C 0.4402(2) 0.1809(2) 0.8825(2)
H1F H 0.371(3) 0.186(3) 1.015(3)
H2F H 0.481(2) 0.111(2) 1.030(2)
H3F H 0.480(2) 0.253(2) 0.899(2)
H4F H 0.485(3) 0.124(3) 0.851(3)
H5F H 0.337(2) 0.248(2) 0.779(2)
H6F H 0.323(3) 0.015(3) 0.997(3)
loop_
_geom_bond_atom_site_label_1
_geom_bond_atom_site_label_2
_geom_bond_site_symmetry_1
_geom_bond_site_symmetry_2
Dy1 O1 1_555 1_555
O1 C1 1_555 1_555
O2 C2 1_555 1_555
O3 Dy1 1_555 1_555
O4 C4 1_555 1_555
O5 Dy1 1_555 1_555
O6 C6 1_555 1_555
O7 Dy1 1_555 1_555
O8 Dy1 1_555 1_555
C1 C2 1_555 1_555
C2 C1F 1_555 1_555
C3 O3 1_555 1_555
C4 C3 1_555 1_555
C5 O5 1_555 1_555
C6 C5 1_555 1_555
C7 O7 1_555 1_555
C8 O8 1_555 1_555
H1 C7 1_555 1_555
H2 C7 1_555 1_555
H3 C8 1_555 1_555
H4 C8 1_555 1_555
H5 O8 1_555 1_555
H6 O7 1_555 1_555
Dy1F O1F 1_555 1_555
Dy1C O2 1_555 1_555
Dy1A O4 1_555 1_555
Dy1E O2F 1_555 1_555
Dy1D O3D 1_555 1_555
Dy1E_2 O4D 1_555 1_555
Dy1B O6A 1_555 1_555
O1F C1F 1_555 1_555
O2F C2F 1_555 1_555
O2C Dy1 1_555 1_555
O2E Dy1F 1_555 1_555
O3D C3D 1_555 1_555
O3F Dy1F 1_555 1_555
O4D C4D 1_555 1_555
O4A Dy1 1_555 1_555
O4G Dy1F 1_555 1_555
O5A Dy1A 1_555 1_555
O5F Dy1F 1_555 1_555
O6A C6A 1_555 1_555
O6C Dy1 1_555 1_555
O6E Dy1F 1_555 1_555
O7F Dy1F 1_555 1_555
O8F Dy1F 1_555 1_555
C1F C2F 1_555 1_555
C2F C1 1_555 1_555
C3D C4 1_555 1_555
C4D C3 1_555 1_555
C5A C5 1_555 1_555
C6A C6 1_555 1_555
C7F O7F 1_555 1_555
C8F O8F 1_555 1_555
H1F C7F 1_555 1_555
H2F C7F 1_555 1_555
H3F C8F 1_555 1_555
H4F C8F 1_555 1_555
H5F O8F 1_555 1_555
H6F O7F 1_555 1_555
O6 Dy1C 1_555 1_555
C7 C8 1_555 1_555
O5A C5A 1_555 1_555
C3D C4D 1_555 1_555
C5A C6A 1_555 1_555
C7F C8F 1_555 1_555

#END
