
#######################################################################
#
#                 Cambridge Crystallographic Data Centre
#                                CCDC 
#
#######################################################################
#
# If this CIF has been generated from an entry in the Cambridge 
# Structural Database, then it will include bibliographic, chemical, 
# crystal, experimental, refinement or atomic coordinate data resulting 
# from the CCDC's data processing and validation procedures.
#
#######################################################################

data_QUMREW
_symmetry_cell_setting           monoclinic
_symmetry_space_group_name_H-M   'C 2/c'
_symmetry_Int_Tables_number      15
_space_group_name_Hall           '-C 2yn'
loop_
_symmetry_equiv_pos_site_id
_symmetry_equiv_pos_as_xyz
1 x,y,z
2 -x,y,1/2-z
3 1/2+x,1/2+y,z
4 1/2-x,1/2+y,1/2-z
5 -x,-y,-z
6 x,-y,1/2+z
7 1/2-x,1/2-y,-z
8 1/2+x,1/2-y,1/2+z
_cell_length_a                   12.8545(6)
_cell_length_b                   12.1603(6)
_cell_length_c                   12.6281(6)
_cell_angle_alpha                90
_cell_angle_beta                 99.143(3)
_cell_angle_gamma                90
_cell_volume                     1948.88
loop_
_atom_site_label
_atom_site_type_symbol
_atom_site_fract_x
_atom_site_fract_y
_atom_site_fract_z
Gd1 Gd 0.273488(14) 0.463300(15) 0.222484(14)
O1 O 0.2389(2) 0.4088(2) 0.4016(2)
O2 O 0.2073(2) 0.1476(2) 0.3463(2)
O3 O 0.3716(2) 0.4306(2) 0.0865(2)
O4 O 0.5969(2) 0.5527(2) 0.1594(2)
O5 O 0.3797(2) 0.3137(2) 0.2776(2)
O6 O 0.3755(2) 0.0505(2) 0.2427(2)
O7 O 0.1496(2) 0.4648(3) 0.0476(2)
O8 O 0.1575(3) 0.3068(3) 0.1876(3)
C1 C 0.2456(3) 0.3211(3) 0.4546(3)
C2 C 0.2320(3) 0.2035(3) 0.4310(3)
C3 C 0.4423(3) 0.4693(3) 0.0400(3)
C4 C 0.5435(3) 0.5224(3) 0.0723(3)
C5 C 0.4445(3) 0.2439(3) 0.2582(3)
C6 C 0.4436(3) 0.1244(3) 0.2509(3)
C7 C 0.0866(4) 0.3697(5) 0.0163(4)
C8 C 0.0598(4) 0.3190(5) 0.1161(4)
H1 H 0.134(4) 0.304(4) -0.012(4)
H2 H 0.018(4) 0.392(4) -0.029(4)
H3 H 0.014(5) 0.376(5) 0.148(5)
H4 H 0.022(4) 0.244(4) 0.102(4)
H5 H 0.177(4) 0.484(4) -0.001(4)
H6 H 0.160(4) 0.259(4) 0.216(4)
Gd1F Gd 0.226512(14) 0.036700(15) 0.777516(14)
Gd1C Gd 0.226512(14) -0.036700(15) 0.277516(14)
Gd1A Gd 0.726512(14) 0.463300(15) 0.277516(14)
Gd1E Gd 0.273488(14) 0.536700(15) 0.722484(14)
Gd1D Gd 0.726512(14) 0.536700(15) -0.222484(14)
Gd1E_2 Gd 0.273488(14) 0.536700(15) -0.277516(14)
Gd1B Gd 0.773488(14) -0.036700(15) 0.222484(14)
O1F O 0.2611(2) 0.0912(2) 0.5984(2)
O2F O 0.2927(2) 0.3524(2) 0.6537(2)
O2C O 0.2927(2) 0.6476(2) 0.1537(2)
O2E O 0.2073(2) -0.1476(2) 0.8463(2)
O3D O 0.6284(2) 0.5694(2) -0.0865(2)
O3F O 0.1284(2) 0.0694(2) 0.9135(2)
O4D O 0.4031(2) 0.4473(2) -0.1594(2)
O4A O 0.4031(2) 0.5527(2) 0.3406(2)
O4G O 0.0969(2) -0.0527(2) 0.6594(2)
O5A O 0.6203(2) 0.3137(2) 0.2224(2)
O5F O 0.1203(2) 0.1863(2) 0.7224(2)
O6A O 0.6245(2) 0.0505(2) 0.2573(2)
O6C O 0.1245(2) 0.5505(2) 0.2573(2)
O6E O 0.3755(2) -0.0505(2) 0.7427(2)
O7F O 0.3504(2) 0.0352(3) 0.9524(2)
O8F O 0.3425(3) 0.1932(3) 0.8124(3)
C1F C 0.2544(3) 0.1789(3) 0.5454(3)
C2F C 0.2680(3) 0.2965(3) 0.5690(3)
C3D C 0.5577(3) 0.5307(3) -0.0400(3)
C4D C 0.4565(3) 0.4776(3) -0.0723(3)
C5A C 0.5555(3) 0.2439(3) 0.2418(3)
C6A C 0.5564(3) 0.1244(3) 0.2491(3)
C7F C 0.4134(4) 0.1303(5) 0.9837(4)
C8F C 0.4402(4) 0.1810(5) 0.8839(4)
H1F H 0.366(4) 0.196(4) 1.012(4)
H2F H 0.482(4) 0.108(4) 1.029(4)
H3F H 0.486(5) 0.124(5) 0.852(5)
H4F H 0.478(4) 0.256(4) 0.898(4)
H5F H 0.323(4) 0.016(4) 1.001(4)
H6F H 0.340(4) 0.241(4) 0.784(4)
loop_
_geom_bond_atom_site_label_1
_geom_bond_atom_site_label_2
_geom_bond_site_symmetry_1
_geom_bond_site_symmetry_2
Gd1 O1 1_555 1_555
O1 C1 1_555 1_555
O2 C2 1_555 1_555
O3 Gd1 1_555 1_555
O4 C4 1_555 1_555
O5 Gd1 1_555 1_555
O6 C6 1_555 1_555
O7 Gd1 1_555 1_555
O8 Gd1 1_555 1_555
C1 C2 1_555 1_555
C2 C1F 1_555 1_555
C3 O3 1_555 1_555
C4 C3 1_555 1_555
C5 O5 1_555 1_555
C6 C5 1_555 1_555
C7 O7 1_555 1_555
C8 O8 1_555 1_555
H1 C7 1_555 1_555
H2 C7 1_555 1_555
H3 C8 1_555 1_555
H4 C8 1_555 1_555
H5 O7 1_555 1_555
H6 O8 1_555 1_555
Gd1F O1F 1_555 1_555
Gd1C O2 1_555 1_555
Gd1A O4 1_555 1_555
Gd1E O2F 1_555 1_555
Gd1D O3D 1_555 1_555
Gd1E_2 O4D 1_555 1_555
Gd1B O6A 1_555 1_555
O1F C1F 1_555 1_555
O2F C2F 1_555 1_555
O2C Gd1 1_555 1_555
O2E Gd1F 1_555 1_555
O3D C3D 1_555 1_555
O3F Gd1F 1_555 1_555
O4D C4D 1_555 1_555
O4A Gd1 1_555 1_555
O4G Gd1F 1_555 1_555
O5A Gd1A 1_555 1_555
O5F Gd1F 1_555 1_555
O6A C6A 1_555 1_555
O6C Gd1 1_555 1_555
O6E Gd1F 1_555 1_555
O7F Gd1F 1_555 1_555
O8F Gd1F 1_555 1_555
C1F C2F 1_555 1_555
C2F C1 1_555 1_555
C3D C4 1_555 1_555
C4D C3 1_555 1_555
C5A C5 1_555 1_555
C6A C6 1_555 1_555
C7F O7F 1_555 1_555
C8F O8F 1_555 1_555
H1F C7F 1_555 1_555
H2F C7F 1_555 1_555
H3F C8F 1_555 1_555
H4F C8F 1_555 1_555
H5F O7F 1_555 1_555
H6F O8F 1_555 1_555
O6 Gd1C 1_555 1_555
C7 C8 1_555 1_555
O5A C5A 1_555 1_555
C3D C4D 1_555 1_555
C5A C6A 1_555 1_555
C7F C8F 1_555 1_555

#END
