
#######################################################################
#
#                 Cambridge Crystallographic Data Centre
#                                CCDC 
#
#######################################################################
#
# If this CIF has been generated from an entry in the Cambridge 
# Structural Database, then it will include bibliographic, chemical, 
# crystal, experimental, refinement or atomic coordinate data resulting 
# from the CCDC's data processing and validation procedures.
#
#######################################################################

data_QUMSIB
_symmetry_cell_setting           monoclinic
_symmetry_space_group_name_H-M   'C 2/c'
_symmetry_Int_Tables_number      15
_space_group_name_Hall           '-C 2yn'
loop_
_symmetry_equiv_pos_site_id
_symmetry_equiv_pos_as_xyz
1 x,y,z
2 -x,y,1/2-z
3 1/2+x,1/2+y,z
4 1/2-x,1/2+y,1/2-z
5 -x,-y,-z
6 x,-y,1/2+z
7 1/2-x,1/2-y,-z
8 1/2+x,1/2-y,1/2+z
_cell_length_a                   12.6881(5)
_cell_length_b                   12.0386(5)
_cell_length_c                   12.4922(5)
_cell_angle_alpha                90
_cell_angle_beta                 99.185(2)
_cell_angle_gamma                90
_cell_volume                     1883.68
loop_
_atom_site_label
_atom_site_type_symbol
_atom_site_fract_x
_atom_site_fract_y
_atom_site_fract_z
Tm1 Tm 0.272358(8) 0.463130(8) 0.222429(8)
O1 O 0.23977(15) 0.41062(14) 0.40050(14)
O2 O 0.20983(15) 0.14643(15) 0.34518(14)
O3 O 0.36902(16) 0.43283(17) 0.08785(16)
O4 O 0.59977(16) 0.55125(15) 0.16144(15)
O5 O 0.37770(16) 0.31584(16) 0.27678(17)
O6 O 0.37421(17) 0.04917(16) 0.24234(17)
O7 O 0.14948(19) 0.46654(17) 0.04919(18)
O8 O 0.1587(2) 0.3089(2) 0.19059(19)
C1 C 0.2456(2) 0.3219(2) 0.4536(2)
C2 C 0.2330(2) 0.2029(2) 0.4297(2)
C3 C 0.4414(2) 0.4698(2) 0.0408(2)
C4 C 0.5447(2) 0.5223(2) 0.0732(2)
C5 C 0.4437(2) 0.2450(2) 0.2580(2)
C6 C 0.44289(19) 0.1242(2) 0.2504(2)
C7 C 0.0861(3) 0.3696(3) 0.0177(3)
C8 C 0.0598(3) 0.3190(3) 0.1180(3)
H1 H 0.130(4) 0.312(4) -0.018(4)
H2 H 0.017(3) 0.387(2) -0.029(3)
H3 H 0.023(2) 0.246(3) 0.096(2)
H4 H 0.013(3) 0.375(3) 0.145(3)
H5 H 0.179(4) 0.479(3) 0.003(3)
H6 H 0.169(3) 0.258(3) 0.215(3)
Tm1F Tm 0.227642(8) 0.036870(8) 0.777571(8)
Tm1C Tm 0.227642(8) -0.036870(8) 0.277571(8)
Tm1A Tm 0.727642(8) 0.463130(8) 0.277571(8)
Tm1E Tm 0.272358(8) 0.536870(8) 0.722429(8)
Tm1D Tm 0.727642(8) 0.536870(8) -0.222429(8)
Tm1E_2 Tm 0.272358(8) 0.536870(8) -0.277571(8)
Tm1B Tm 0.772358(8) -0.036870(8) 0.222429(8)
O1F O 0.26023(15) 0.08938(14) 0.59950(14)
O2F O 0.29017(15) 0.35357(15) 0.65482(14)
O2C O 0.29017(15) 0.64643(15) 0.15482(14)
O2E O 0.20983(15) -0.14643(15) 0.84518(14)
O3D O 0.63098(16) 0.56717(17) -0.08785(16)
O3F O 0.13098(16) 0.06717(17) 0.91215(16)
O4D O 0.40023(16) 0.44875(15) -0.16144(15)
O4A O 0.40023(16) 0.55125(15) 0.33856(15)
O4G O 0.09977(16) -0.05125(15) 0.66144(15)
O5A O 0.62230(16) 0.31584(16) 0.22322(17)
O5F O 0.12230(16) 0.18416(16) 0.72322(17)
O6A O 0.62579(17) 0.04917(16) 0.25766(17)
O6C O 0.12579(17) 0.54917(16) 0.25766(17)
O6E O 0.37421(17) -0.04917(16) 0.74234(17)
O7F O 0.35052(19) 0.03346(17) 0.95081(18)
O8F O 0.3413(2) 0.1911(2) 0.80941(19)
C1F C 0.2544(2) 0.1781(2) 0.5464(2)
C2F C 0.2670(2) 0.2971(2) 0.5703(2)
C3D C 0.5586(2) 0.5302(2) -0.0408(2)
C4D C 0.4553(2) 0.4777(2) -0.0732(2)
C5A C 0.5563(2) 0.2450(2) 0.2420(2)
C6A C 0.55711(19) 0.1242(2) 0.2496(2)
C7F C 0.4139(3) 0.1304(3) 0.9823(3)
C8F C 0.4402(3) 0.1810(3) 0.8820(3)
H1F H 0.370(4) 0.188(4) 1.018(4)
H2F H 0.483(3) 0.113(2) 1.029(3)
H3F H 0.477(2) 0.254(3) 0.904(2)
H4F H 0.487(3) 0.125(3) 0.855(3)
H5F H 0.321(4) 0.021(3) 0.997(3)
H6F H 0.331(3) 0.242(3) 0.785(3)
loop_
_geom_bond_atom_site_label_1
_geom_bond_atom_site_label_2
_geom_bond_site_symmetry_1
_geom_bond_site_symmetry_2
Tm1 O1 1_555 1_555
O1 C1 1_555 1_555
O2 C2 1_555 1_555
O3 Tm1 1_555 1_555
O4 C4 1_555 1_555
O5 Tm1 1_555 1_555
O6 C6 1_555 1_555
O7 Tm1 1_555 1_555
O8 Tm1 1_555 1_555
C1 C2 1_555 1_555
C2 C1F 1_555 1_555
C3 O3 1_555 1_555
C4 C3 1_555 1_555
C5 O5 1_555 1_555
C6 C5 1_555 1_555
C7 O7 1_555 1_555
C8 O8 1_555 1_555
H1 C7 1_555 1_555
H2 C7 1_555 1_555
H3 C8 1_555 1_555
H4 C8 1_555 1_555
H5 O7 1_555 1_555
H6 O8 1_555 1_555
Tm1F O1F 1_555 1_555
Tm1C O2 1_555 1_555
Tm1A O4 1_555 1_555
Tm1E O2F 1_555 1_555
Tm1D O3D 1_555 1_555
Tm1E_2 O4D 1_555 1_555
Tm1B O6A 1_555 1_555
O1F C1F 1_555 1_555
O2F C2F 1_555 1_555
O2C Tm1 1_555 1_555
O2E Tm1F 1_555 1_555
O3D C3D 1_555 1_555
O3F Tm1F 1_555 1_555
O4D C4D 1_555 1_555
O4A Tm1 1_555 1_555
O4G Tm1F 1_555 1_555
O5A Tm1A 1_555 1_555
O5F Tm1F 1_555 1_555
O6A C6A 1_555 1_555
O6C Tm1 1_555 1_555
O6E Tm1F 1_555 1_555
O7F Tm1F 1_555 1_555
O8F Tm1F 1_555 1_555
C1F C2F 1_555 1_555
C2F C1 1_555 1_555
C3D C4 1_555 1_555
C4D C3 1_555 1_555
C5A C5 1_555 1_555
C6A C6 1_555 1_555
C7F O7F 1_555 1_555
C8F O8F 1_555 1_555
H1F C7F 1_555 1_555
H2F C7F 1_555 1_555
H3F C8F 1_555 1_555
H4F C8F 1_555 1_555
H5F O7F 1_555 1_555
H6F O8F 1_555 1_555
O6 Tm1C 1_555 1_555
C7 C8 1_555 1_555
O5A C5A 1_555 1_555
C3D C4D 1_555 1_555
C5A C6A 1_555 1_555
C7F C8F 1_555 1_555

#END
