
#######################################################################
#
#                 Cambridge Crystallographic Data Centre
#                                CCDC 
#
#######################################################################
#
# If this CIF has been generated from an entry in the Cambridge 
# Structural Database, then it will include bibliographic, chemical, 
# crystal, experimental, refinement or atomic coordinate data resulting 
# from the CCDC's data processing and validation procedures.
#
#######################################################################

data_QUMSOH
_symmetry_cell_setting           monoclinic
_symmetry_space_group_name_H-M   'C 2/c'
_symmetry_Int_Tables_number      15
_space_group_name_Hall           '-C 2yn'
loop_
_symmetry_equiv_pos_site_id
_symmetry_equiv_pos_as_xyz
1 x,y,z
2 -x,y,1/2-z
3 1/2+x,1/2+y,z
4 1/2-x,1/2+y,1/2-z
5 -x,-y,-z
6 x,-y,1/2+z
7 1/2-x,1/2-y,-z
8 1/2+x,1/2-y,1/2+z
_cell_length_a                   12.6497(15)
_cell_length_b                   12.0106(14)
_cell_length_c                   12.4708(15)
_cell_angle_alpha                90
_cell_angle_beta                 99.221(3)
_cell_angle_gamma                90
_cell_volume                     1870.21
loop_
_atom_site_label
_atom_site_type_symbol
_atom_site_fract_x
_atom_site_fract_y
_atom_site_fract_z
Yb1 Yb 0.272198(11) 0.463055(11) 0.222348(10)
O1 O 0.2397(2) 0.41060(19) 0.40022(19)
O2 O 0.2098(2) 0.1461(2) 0.34481(19)
O3 O 0.3685(2) 0.4327(2) 0.0881(2)
O4 O 0.6005(2) 0.5514(2) 0.1619(2)
O5 O 0.3773(2) 0.3162(2) 0.2768(2)
O6 O 0.3736(2) 0.0491(2) 0.2422(2)
O7 O 0.1489(3) 0.4667(2) 0.0492(2)
O8 O 0.1588(3) 0.3090(3) 0.1906(3)
C1 C 0.2456(3) 0.3221(3) 0.4537(3)
C2 C 0.2327(3) 0.2028(3) 0.4297(3)
C3 C 0.4408(3) 0.4705(3) 0.0408(3)
C4 C 0.5458(3) 0.5223(3) 0.0734(3)
C5 C 0.4436(3) 0.2456(3) 0.2579(3)
C6 C 0.4431(3) 0.1239(3) 0.2506(3)
C7 C 0.0856(4) 0.3696(4) 0.0169(4)
C8 C 0.0603(4) 0.3191(4) 0.1191(4)
H1 H 0.122(4) 0.315(4) -0.018(4)
H2 H 0.021(4) 0.387(4) -0.032(4)
H3 H 0.005(4) 0.371(4) 0.150(4)
H4 H 0.017(4) 0.249(4) 0.105(4)
H5 H 0.186(5) 0.485(5) 0.002(5)
H6 H 0.162(4) 0.256(4) 0.216(4)
Yb1F Yb 0.227802(11) 0.036945(11) 0.777652(10)
Yb1C Yb 0.227802(11) -0.036945(11) 0.277652(10)
Yb1A Yb 0.727802(11) 0.463055(11) 0.277652(10)
Yb1E Yb 0.272198(11) 0.536945(11) 0.722348(10)
Yb1D Yb 0.727802(11) 0.536945(11) -0.222348(10)
Yb1E_2 Yb 0.272198(11) 0.536945(11) -0.277652(10)
Yb1B Yb 0.772198(11) -0.036945(11) 0.222348(10)
O1F O 0.2603(2) 0.08940(19) 0.59978(19)
O2F O 0.2902(2) 0.3539(2) 0.65519(19)
O2C O 0.2902(2) 0.6461(2) 0.15519(19)
O2E O 0.2098(2) -0.1461(2) 0.84481(19)
O3D O 0.6315(2) 0.5673(2) -0.0881(2)
O3F O 0.1315(2) 0.0673(2) 0.9119(2)
O4D O 0.3995(2) 0.4486(2) -0.1619(2)
O4A O 0.3995(2) 0.5514(2) 0.3381(2)
O4G O 0.1005(2) -0.0514(2) 0.6619(2)
O5A O 0.6227(2) 0.3162(2) 0.2232(2)
O5F O 0.1227(2) 0.1838(2) 0.7232(2)
O6A O 0.6264(2) 0.0491(2) 0.2578(2)
O6C O 0.1264(2) 0.5491(2) 0.2578(2)
O6E O 0.3736(2) -0.0491(2) 0.7422(2)
O7F O 0.3511(3) 0.0333(2) 0.9508(2)
O8F O 0.3412(3) 0.1910(3) 0.8094(3)
C1F C 0.2544(3) 0.1779(3) 0.5463(3)
C2F C 0.2673(3) 0.2972(3) 0.5703(3)
C3D C 0.5592(3) 0.5295(3) -0.0408(3)
C4D C 0.4542(3) 0.4777(3) -0.0734(3)
C5A C 0.5564(3) 0.2456(3) 0.2421(3)
C6A C 0.5569(3) 0.1239(3) 0.2494(3)
C7F C 0.4144(4) 0.1304(4) 0.9831(4)
C8F C 0.4397(4) 0.1809(4) 0.8809(4)
H1F H 0.378(4) 0.185(4) 1.018(4)
H2F H 0.479(4) 0.113(4) 1.032(4)
H3F H 0.495(4) 0.129(4) 0.850(4)
H4F H 0.483(4) 0.251(4) 0.895(4)
H5F H 0.314(5) 0.015(5) 0.998(5)
H6F H 0.338(4) 0.244(4) 0.784(4)
loop_
_geom_bond_atom_site_label_1
_geom_bond_atom_site_label_2
_geom_bond_site_symmetry_1
_geom_bond_site_symmetry_2
Yb1 O1 1_555 1_555
O1 C1 1_555 1_555
O2 C2 1_555 1_555
O3 Yb1 1_555 1_555
O4 C4 1_555 1_555
O5 Yb1 1_555 1_555
O6 C6 1_555 1_555
O7 Yb1 1_555 1_555
O8 Yb1 1_555 1_555
C1 C2 1_555 1_555
C2 C1F 1_555 1_555
C3 O3 1_555 1_555
C4 C3 1_555 1_555
C5 O5 1_555 1_555
C6 C5 1_555 1_555
C7 O7 1_555 1_555
C8 O8 1_555 1_555
H1 C7 1_555 1_555
H2 C7 1_555 1_555
H3 C8 1_555 1_555
H4 C8 1_555 1_555
H5 O7 1_555 1_555
H6 O8 1_555 1_555
Yb1F O1F 1_555 1_555
Yb1C O2 1_555 1_555
Yb1A O4 1_555 1_555
Yb1E O2F 1_555 1_555
Yb1D O3D 1_555 1_555
Yb1E_2 O4D 1_555 1_555
Yb1B O6A 1_555 1_555
O1F C1F 1_555 1_555
O2F C2F 1_555 1_555
O2C Yb1 1_555 1_555
O2E Yb1F 1_555 1_555
O3D C3D 1_555 1_555
O3F Yb1F 1_555 1_555
O4D C4D 1_555 1_555
O4A Yb1 1_555 1_555
O4G Yb1F 1_555 1_555
O5A Yb1A 1_555 1_555
O5F Yb1F 1_555 1_555
O6A C6A 1_555 1_555
O6C Yb1 1_555 1_555
O6E Yb1F 1_555 1_555
O7F Yb1F 1_555 1_555
O8F Yb1F 1_555 1_555
C1F C2F 1_555 1_555
C2F C1 1_555 1_555
C3D C4 1_555 1_555
C4D C3 1_555 1_555
C5A C5 1_555 1_555
C6A C6 1_555 1_555
C7F O7F 1_555 1_555
C8F O8F 1_555 1_555
H1F C7F 1_555 1_555
H2F C7F 1_555 1_555
H3F C8F 1_555 1_555
H4F C8F 1_555 1_555
H5F O7F 1_555 1_555
H6F O8F 1_555 1_555
O6 Yb1C 1_555 1_555
C7 C8 1_555 1_555
O5A C5A 1_555 1_555
C3D C4D 1_555 1_555
C5A C6A 1_555 1_555
C7F C8F 1_555 1_555

#END
