
#######################################################################
#
#                 Cambridge Crystallographic Data Centre
#                                CCDC 
#
#######################################################################
#
# If this CIF has been generated from an entry in the Cambridge 
# Structural Database, then it will include bibliographic, chemical, 
# crystal, experimental, refinement or atomic coordinate data resulting 
# from the CCDC's data processing and validation procedures.
#
#######################################################################

data_QUMSUN
_symmetry_cell_setting           monoclinic
_symmetry_space_group_name_H-M   'C 2/c'
_symmetry_Int_Tables_number      15
_space_group_name_Hall           '-C 2yn'
loop_
_symmetry_equiv_pos_site_id
_symmetry_equiv_pos_as_xyz
1 x,y,z
2 -x,y,1/2-z
3 1/2+x,1/2+y,z
4 1/2-x,1/2+y,1/2-z
5 -x,-y,-z
6 x,-y,1/2+z
7 1/2-x,1/2-y,-z
8 1/2+x,1/2-y,1/2+z
_cell_length_a                   12.6351(5)
_cell_length_b                   12.0129(5)
_cell_length_c                   12.4584(5)
_cell_angle_alpha                90
_cell_angle_beta                 99.177(2)
_cell_angle_gamma                90
_cell_volume                     1866.78
loop_
_atom_site_label
_atom_site_type_symbol
_atom_site_fract_x
_atom_site_fract_y
_atom_site_fract_z
Lu1 Lu 0.272123(7) 0.463111(7) 0.222391(8)
O1 O 0.23999(15) 0.41073(14) 0.40041(14)
O2 O 0.21038(15) 0.14582(14) 0.34453(14)
O3 O 0.36844(16) 0.43336(18) 0.08861(17)
O4 O 0.60071(16) 0.55093(15) 0.16190(16)
O5 O 0.37687(16) 0.31630(17) 0.27661(18)
O6 O 0.37393(17) 0.04883(16) 0.24163(19)
O7 O 0.14976(18) 0.46722(16) 0.04955(19)
O8 O 0.15986(19) 0.30935(18) 0.19105(19)
C1 C 0.24587(19) 0.3222(2) 0.4538(2)
C2 C 0.23298(19) 0.20257(19) 0.4294(2)
C3 C 0.4407(2) 0.47004(19) 0.0405(2)
C4 C 0.5455(2) 0.5220(2) 0.0734(2)
C5 C 0.44357(18) 0.2454(2) 0.2579(2)
C6 C 0.44263(18) 0.1239(2) 0.2505(2)
C7 C 0.0861(3) 0.3697(3) 0.0174(3)
C8 C 0.0597(3) 0.3192(3) 0.1190(3)
H1 H 0.126(3) 0.311(3) -0.019(3)
H2 H 0.014(3) 0.386(3) -0.029(3)
H3 H 0.009(3) 0.374(3) 0.151(3)
H4 H 0.021(3) 0.242(3) 0.098(3)
H5 H 0.184(4) 0.480(3) 0.005(4)
H6 H 0.169(3) 0.254(3) 0.223(3)
Lu1F Lu 0.227877(7) 0.036889(7) 0.777609(8)
Lu1C Lu 0.227877(7) -0.036889(7) 0.277609(8)
Lu1A Lu 0.727877(7) 0.463111(7) 0.277609(8)
Lu1E Lu 0.272123(7) 0.536889(7) 0.722391(8)
Lu1D Lu 0.727877(7) 0.536889(7) -0.222391(8)
Lu1E_2 Lu 0.272123(7) 0.536889(7) -0.277609(8)
Lu1B Lu 0.772123(7) -0.036889(7) 0.222391(8)
O1F O 0.26001(15) 0.08927(14) 0.59959(14)
O2F O 0.28962(15) 0.35418(14) 0.65547(14)
O2C O 0.28962(15) 0.64582(14) 0.15547(14)
O2E O 0.21038(15) -0.14582(14) 0.84453(14)
O3D O 0.63156(16) 0.56664(18) -0.08861(17)
O3F O 0.13156(16) 0.06664(18) 0.91139(17)
O4D O 0.39929(16) 0.44907(15) -0.16190(16)
O4A O 0.39929(16) 0.55093(15) 0.33810(16)
O4G O 0.10071(16) -0.05093(15) 0.66190(16)
O5A O 0.62313(16) 0.31630(17) 0.22339(18)
O5F O 0.12313(16) 0.18370(17) 0.72339(18)
O6A O 0.62607(17) 0.04883(16) 0.25837(19)
O6C O 0.12607(17) 0.54883(16) 0.25837(19)
O6E O 0.37393(17) -0.04883(16) 0.74163(19)
O7F O 0.35024(18) 0.03278(16) 0.95045(19)
O8F O 0.34014(19) 0.19065(18) 0.80895(19)
C1F C 0.25413(19) 0.1778(2) 0.5462(2)
C2F C 0.26702(19) 0.29743(19) 0.5706(2)
C3D C 0.5593(2) 0.52996(19) -0.0405(2)
C4D C 0.4545(2) 0.4780(2) -0.0734(2)
C5A C 0.55643(18) 0.2454(2) 0.2421(2)
C6A C 0.55737(18) 0.1239(2) 0.2495(2)
C7F C 0.4139(3) 0.1303(3) 0.9826(3)
C8F C 0.4403(3) 0.1808(3) 0.8810(3)
H1F H 0.374(3) 0.189(3) 1.019(3)
H2F H 0.486(3) 0.114(3) 1.029(3)
H3F H 0.491(3) 0.126(3) 0.849(3)
H4F H 0.479(3) 0.258(3) 0.902(3)
H5F H 0.316(4) 0.020(3) 0.995(4)
H6F H 0.331(3) 0.246(3) 0.777(3)
loop_
_geom_bond_atom_site_label_1
_geom_bond_atom_site_label_2
_geom_bond_site_symmetry_1
_geom_bond_site_symmetry_2
Lu1 O1 1_555 1_555
O1 C1 1_555 1_555
O2 C2 1_555 1_555
O3 Lu1 1_555 1_555
O4 C4 1_555 1_555
O5 Lu1 1_555 1_555
O6 C6 1_555 1_555
O7 Lu1 1_555 1_555
O8 Lu1 1_555 1_555
C1 C2 1_555 1_555
C2 C1F 1_555 1_555
C3 O3 1_555 1_555
C4 C3 1_555 1_555
C5 O5 1_555 1_555
C6 C5 1_555 1_555
C7 O7 1_555 1_555
C8 O8 1_555 1_555
H1 C7 1_555 1_555
H2 C7 1_555 1_555
H3 C8 1_555 1_555
H4 C8 1_555 1_555
H5 O7 1_555 1_555
H6 O8 1_555 1_555
Lu1F O1F 1_555 1_555
Lu1C O2 1_555 1_555
Lu1A O4 1_555 1_555
Lu1E O2F 1_555 1_555
Lu1D O3D 1_555 1_555
Lu1E_2 O4D 1_555 1_555
Lu1B O6A 1_555 1_555
O1F C1F 1_555 1_555
O2F C2F 1_555 1_555
O2C Lu1 1_555 1_555
O2E Lu1F 1_555 1_555
O3D C3D 1_555 1_555
O3F Lu1F 1_555 1_555
O4D C4D 1_555 1_555
O4A Lu1 1_555 1_555
O4G Lu1F 1_555 1_555
O5A Lu1A 1_555 1_555
O5F Lu1F 1_555 1_555
O6A C6A 1_555 1_555
O6C Lu1 1_555 1_555
O6E Lu1F 1_555 1_555
O7F Lu1F 1_555 1_555
O8F Lu1F 1_555 1_555
C1F C2F 1_555 1_555
C2F C1 1_555 1_555
C3D C4 1_555 1_555
C4D C3 1_555 1_555
C5A C5 1_555 1_555
C6A C6 1_555 1_555
C7F O7F 1_555 1_555
C8F O8F 1_555 1_555
H1F C7F 1_555 1_555
H2F C7F 1_555 1_555
H3F C8F 1_555 1_555
H4F C8F 1_555 1_555
H5F O7F 1_555 1_555
H6F O8F 1_555 1_555
O6 Lu1C 1_555 1_555
C7 C8 1_555 1_555
O5A C5A 1_555 1_555
C3D C4D 1_555 1_555
C5A C6A 1_555 1_555
C7F C8F 1_555 1_555

#END
