
#######################################################################
#
#                 Cambridge Crystallographic Data Centre
#                                CCDC 
#
#######################################################################
#
# If this CIF has been generated from an entry in the Cambridge 
# Structural Database, then it will include bibliographic, chemical, 
# crystal, experimental, refinement or atomic coordinate data resulting 
# from the CCDC's data processing and validation procedures.
#
#######################################################################

data_QUMTUO
_symmetry_cell_setting           triclinic
_symmetry_space_group_name_H-M   'P -1'
_symmetry_Int_Tables_number      2
_space_group_name_Hall           '-P 1'
loop_
_symmetry_equiv_pos_site_id
_symmetry_equiv_pos_as_xyz
1 x,y,z
2 -x,-y,-z
_cell_length_a                   4.052(3)
_cell_length_b                   9.002(7)
_cell_length_c                   9.734(8)
_cell_angle_alpha                98.723(13)
_cell_angle_beta                 100.464(13)
_cell_angle_gamma                99.231(14)
_cell_volume                     338.601
loop_
_atom_site_label
_atom_site_type_symbol
_atom_site_fract_x
_atom_site_fract_y
_atom_site_fract_z
Br1 Br 0.5730(4) 0.77946(17) 0.48797(15)
Br2 Br 0.7505(4) 0.97808(17) 0.16632(15)
C1 C -0.055(4) 0.4721(16) 0.1281(15)
C2 C -0.075(4) 0.3551(17) 0.0133(15)
H1 H -0.1237 0.2519 0.0260
C3 C -0.113(5) 0.4380(18) 0.2705(17)
H2 H 0.0895 0.4871 0.3447
H3 H -0.1528 0.3270 0.2666
H4 H -0.3124 0.4778 0.2923
Hg1 Hg 0.15503(14) 0.85752(6) 0.31022(5)
N1 N 0.027(3) 0.6176(14) 0.1145(14)
Br1_2 Br -0.4270(4) 0.77946(17) 0.48797(15)
Br1_3 Br -1.4270(4) 0.77946(17) 0.48797(15)
Br2_2 Br -0.2495(4) 0.97808(17) 0.16632(15)
Br2_3 Br -1.2495(4) 0.97808(17) 0.16632(15)
C1A C 0.055(4) 0.5279(16) -0.1281(15)
C2A C 0.075(4) 0.6449(17) -0.0133(15)
H1A H 0.1237 0.7481 -0.0260
C3A C 0.113(5) 0.5620(18) -0.2705(17)
H2A H -0.0895 0.5129 -0.3447
H3A H 0.1528 0.6730 -0.2666
H4A H 0.3124 0.5222 -0.2923
Hg1_2 Hg -0.84497(14) 0.85752(6) 0.31022(5)
Hg1_3 Hg 1.15503(14) 0.85752(6) 0.31022(5)
Hg1A Hg -0.15503(14) 0.14248(6) -0.31022(5)
N1A N -0.027(3) 0.3824(14) -0.1145(14)
N1_2 N -0.973(3) 0.6176(14) 0.1145(14)
loop_
_geom_bond_atom_site_label_1
_geom_bond_atom_site_label_2
_geom_bond_site_symmetry_1
_geom_bond_site_symmetry_2
Br1 Hg1 1_555 1_555
Br2 Hg1 1_555 1_555
C1 C2 1_555 1_555
C2 H1 1_555 1_555
C3 C1 1_555 1_555
H2 C3 1_555 1_555
H3 C3 1_555 1_555
H4 C3 1_555 1_555
Hg1 N1 1_555 1_555
N1 C1 1_555 1_555
Br1_2 Hg1 1_555 1_555
Br1_3 Hg1_2 1_555 1_555
Br2_2 Hg1 1_555 1_555
Br2_3 Hg1_2 1_555 1_555
C1A C2A 1_555 1_555
C2A N1 1_555 1_555
H1A C2A 1_555 1_555
C3A C1A 1_555 1_555
H2A C3A 1_555 1_555
H3A C3A 1_555 1_555
H4A C3A 1_555 1_555
Hg1_2 Br1_2 1_555 1_555
Hg1_3 Br1 1_555 1_555
Hg1A N1A 1_555 1_555
N1A C2 1_555 1_555
N1_2 Hg1_2 1_555 1_555
Br2 Hg1_3 1_555 1_555
Br2_2 Hg1_2 1_555 1_555
C1A N1A 1_555 1_555

#END
