
#######################################################################
#
#                 Cambridge Crystallographic Data Centre
#                                CCDC 
#
#######################################################################
#
# If this CIF has been generated from an entry in the Cambridge 
# Structural Database, then it will include bibliographic, chemical, 
# crystal, experimental, refinement or atomic coordinate data resulting 
# from the CCDC's data processing and validation procedures.
#
#######################################################################

data_QUMTIB
_symmetry_cell_setting           monoclinic
_symmetry_space_group_name_H-M   'C 2/c'
_symmetry_Int_Tables_number      15
_space_group_name_Hall           '-C 2yn'
loop_
_symmetry_equiv_pos_site_id
_symmetry_equiv_pos_as_xyz
1 x,y,z
2 1/2+x,1/2+y,z
3 x,-y,1/2+z
4 1/2+x,1/2-y,1/2+z
5 -x,-y,-z
6 1/2-x,1/2-y,-z
7 -x,y,1/2-z
8 1/2-x,1/2+y,1/2-z
_cell_length_a                   19.660(4)
_cell_length_b                   18.430(4)
_cell_length_c                   13.640(3)
_cell_angle_alpha                90
_cell_angle_beta                 103.20(3)
_cell_angle_gamma                90
_cell_volume                     4811.65
loop_
_atom_site_label
_atom_site_type_symbol
_atom_site_fract_x
_atom_site_fract_y
_atom_site_fract_z
Co1 Co 0.408061(16) 0.221250(17) 0.88895(2)
V1 V 0.32767(2) 0.18821(2) 0.64219(3)
V2 V 0.33529(2) 0.27847(2) 0.43483(3)
V3 V 0.504488(19) 0.27214(2) 1.13120(3)
C1 C 0.51763(16) 0.34713(16) 0.8749(2)
H1 H 0.5493 0.3100 0.8729
C2 C 0.5412(2) 0.41912(18) 0.8744(3)
H2 H 0.5875 0.4289 0.8739
C3 C 0.4959(2) 0.47352(19) 0.8747(3)
H3 H 0.5109 0.5214 0.8747
C4 C 0.4266(2) 0.45873(18) 0.8751(2)
C5 C 0.3733(3) 0.5115(2) 0.8721(3)
H4 H 0.3848 0.5605 0.8718
C6 C 0.3076(3) 0.4932(2) 0.8699(3)
H5 H 0.2746 0.5298 0.8674
C7 C 0.2854(2) 0.4186(3) 0.8711(3)
C8 C 0.2190(3) 0.3939(4) 0.8665(3)
H6 H 0.1831 0.4275 0.8617
C9 C 0.2035(2) 0.3219(4) 0.8688(3)
H7 H 0.1578 0.3066 0.8646
C10 C 0.25969(16) 0.2696(3) 0.8780(2)
C11 C 0.33732(19) 0.36462(19) 0.8778(2)
C12 C 0.40727(18) 0.38435(16) 0.8776(2)
C13 C 0.25620(15) 0.1905(3) 0.8808(2)
C14 C 0.1974(2) 0.1456(4) 0.8767(3)
H8 H 0.1537 0.1666 0.8713
C15 C 0.2037(3) 0.0734(4) 0.8805(3)
H9 H 0.1644 0.0453 0.8802
C16 C 0.2687(3) 0.0385(3) 0.8849(3)
C17 C 0.2831(5) -0.0375(4) 0.8865(4)
H10 H 0.2476 -0.0701 0.8895
C18 C 0.3467(5) -0.0631(3) 0.8836(4)
H11 H 0.3534 -0.1131 0.8835
C19 C 0.4050(3) -0.01593(19) 0.8806(2)
C20 C 0.4724(4) -0.0384(2) 0.8762(3)
H12 H 0.4825 -0.0876 0.8745
C21 C 0.5227(3) 0.0114(2) 0.8744(3)
H13 H 0.5672 -0.0033 0.8704
C22 C 0.50699(18) 0.08574(18) 0.8785(2)
H14 H 0.5421 0.1195 0.8781
C23 C 0.39362(19) 0.05905(16) 0.88406(19)
C24 C 0.32565(19) 0.0857(2) 0.8862(2)
N1 N 0.45287(12) 0.32931(12) 0.87792(15)
N2 N 0.32357(12) 0.29312(16) 0.88287(17)
N3 N 0.31834(12) 0.15787(16) 0.88673(17)
N4 N 0.44435(13) 0.10940(12) 0.88301(16)
O1 O 0.38994(9) 0.22343(10) 0.73147(13)
O2 O 0.32723(12) 0.10187(12) 0.65867(17)
O3 O 0.34572(10) 0.20595(11) 0.51908(13)
O4 O 0.33151(14) 0.35090(13) 0.4974(2)
O5 O 0.24469(10) 0.22977(14) 0.65263(15)
O6 O 0.59518(11) 0.28105(17) 1.12402(19)
O7 O 0.46073(10) 0.22021(10) 1.03818(14)
O8 O 0.5000 0.23262(15) 1.2500
O9 O 0.46898(12) 0.35118(11) 1.12055(17)
V2E V 0.16471(2) 0.22153(2) 0.56517(3)
V3F V 0.495512(19) 0.27214(2) 1.36880(3)
O5E O 0.25531(10) 0.27023(14) 0.34737(15)
O6F O 0.40482(11) 0.28105(17) 0.37598(19)
O3E O 0.15428(10) 0.29405(11) 0.48092(13)
O4E O 0.16849(14) 0.14910(13) 0.5026(2)
O7F O 0.53927(10) 0.22021(10) 1.46182(14)
O9F O 0.53102(12) 0.35118(11) 1.37945(17)
Co1F Co 0.591939(16) 0.221250(17) 1.61105(2)
V1E V 0.17233(2) 0.31179(2) 0.35781(3)
C1F C 0.48237(16) 0.34713(16) 1.6251(2)
H1F H 0.4507 0.3100 1.6271
C2F C 0.4588(2) 0.41912(18) 1.6256(3)
H2F H 0.4125 0.4289 1.6261
C3F C 0.5041(2) 0.47352(19) 1.6253(3)
H3F H 0.4891 0.5214 1.6253
C4F C 0.5734(2) 0.45873(18) 1.6249(2)
C5F C 0.6267(3) 0.5115(2) 1.6279(3)
H4F H 0.6152 0.5605 1.6282
C6F C 0.6924(3) 0.4932(2) 1.6301(3)
H5F H 0.7254 0.5298 1.6326
C7F C 0.7146(2) 0.4186(3) 1.6289(3)
C8F C 0.7810(3) 0.3939(4) 1.6335(3)
H6F H 0.8169 0.4275 1.6383
C9F C 0.7965(2) 0.3219(4) 1.6312(3)
H7F H 0.8422 0.3066 1.6354
C10F C 0.74031(16) 0.2696(3) 1.6220(2)
C11F C 0.66268(19) 0.36462(19) 1.6222(2)
C12F C 0.59273(18) 0.38435(16) 1.6224(2)
C13F C 0.74380(15) 0.1905(3) 1.6192(2)
C14F C 0.8026(2) 0.1456(4) 1.6233(3)
H8F H 0.8463 0.1666 1.6287
C15F C 0.7963(3) 0.0734(4) 1.6195(3)
H9F H 0.8356 0.0453 1.6198
C16F C 0.7313(3) 0.0385(3) 1.6151(3)
C17F C 0.7169(5) -0.0375(4) 1.6135(4)
H10F H 0.7524 -0.0701 1.6105
C18F C 0.6533(5) -0.0631(3) 1.6164(4)
H11F H 0.6466 -0.1131 1.6165
C19F C 0.5950(3) -0.01593(19) 1.6194(2)
C20F C 0.5276(4) -0.0384(2) 1.6238(3)
H12F H 0.5175 -0.0876 1.6255
C21F C 0.4773(3) 0.0114(2) 1.6256(3)
H13F H 0.4328 -0.0033 1.6296
C22F C 0.49301(18) 0.08574(18) 1.6215(2)
H14F H 0.4579 0.1195 1.6219
C23F C 0.60638(19) 0.05905(16) 1.61594(19)
C24F C 0.67435(19) 0.0857(2) 1.6138(2)
N1F N 0.54713(12) 0.32931(12) 1.62208(15)
N2F N 0.67643(12) 0.29312(16) 1.61713(17)
N3F N 0.68166(12) 0.15787(16) 1.61327(17)
N4F N 0.55565(13) 0.10940(12) 1.61699(16)
O1F O 0.61006(9) 0.22343(10) 1.76853(13)
O2E O 0.17277(12) 0.39813(12) 0.34133(17)
V2F V 0.66471(2) 0.27847(2) 1.06517(3)
O6C O 0.09518(11) 0.21895(17) 0.62402(19)
O6F_2 O 0.40482(11) 0.28105(17) 1.37598(19)
V3F_2 V 0.495512(19) 0.27214(2) 0.36880(3)
O1E O 0.11006(9) 0.27657(10) 0.26853(13)
V1F V 0.67233(2) 0.18821(2) 1.85781(3)
loop_
_geom_bond_atom_site_label_1
_geom_bond_atom_site_label_2
_geom_bond_site_symmetry_1
_geom_bond_site_symmetry_2
Co1 N1 1_555 1_555
V1 O1 1_555 1_555
V2 O3 1_555 1_555
V3 O6 1_555 1_555
C1 H1 1_555 1_555
C2 C1 1_555 1_555
H2 C2 1_555 1_555
C3 C2 1_555 1_555
H3 C3 1_555 1_555
C4 C3 1_555 1_555
C5 C4 1_555 1_555
H4 C5 1_555 1_555
C6 C5 1_555 1_555
H5 C6 1_555 1_555
C7 C6 1_555 1_555
C8 C7 1_555 1_555
H6 C8 1_555 1_555
C9 C8 1_555 1_555
H7 C9 1_555 1_555
C10 C9 1_555 1_555
C11 C7 1_555 1_555
C12 C4 1_555 1_555
C13 C10 1_555 1_555
C14 C13 1_555 1_555
H8 C14 1_555 1_555
C15 C14 1_555 1_555
H9 C15 1_555 1_555
C16 C15 1_555 1_555
C17 C16 1_555 1_555
H10 C17 1_555 1_555
C18 C17 1_555 1_555
H11 C18 1_555 1_555
C19 C18 1_555 1_555
C20 C19 1_555 1_555
H12 C20 1_555 1_555
C21 C20 1_555 1_555
H13 C21 1_555 1_555
C22 C21 1_555 1_555
H14 C22 1_555 1_555
C23 C19 1_555 1_555
C24 C16 1_555 1_555
N1 C1 1_555 1_555
N2 Co1 1_555 1_555
N3 Co1 1_555 1_555
N4 Co1 1_555 1_555
O1 Co1 1_555 1_555
O2 V1 1_555 1_555
O3 V1 1_555 1_555
O4 V2 1_555 1_555
O5 V1 1_555 1_555
O6 V2F 1_555 1_555
O7 Co1 1_555 1_555
O8 V3 1_555 1_555
O9 V3 1_555 1_555
V2E O5 1_555 1_555
V3F O8 1_555 1_555
O5E V2 1_555 1_555
O6F V2 1_555 1_555
O3E V2E 1_555 1_555
O4E V2E 1_555 1_555
O7F V3F 1_555 1_555
O9F V3F 1_555 1_555
Co1F O7F 1_555 1_555
V1E O5E 1_555 1_555
C1F H1F 1_555 1_555
C2F C1F 1_555 1_555
H2F C2F 1_555 1_555
C3F C2F 1_555 1_555
H3F C3F 1_555 1_555
C4F C3F 1_555 1_555
C5F C4F 1_555 1_555
H4F C5F 1_555 1_555
C6F C5F 1_555 1_555
H5F C6F 1_555 1_555
C7F C6F 1_555 1_555
C8F C7F 1_555 1_555
H6F C8F 1_555 1_555
C9F C8F 1_555 1_555
H7F C9F 1_555 1_555
C10F C9F 1_555 1_555
C11F C7F 1_555 1_555
C12F C4F 1_555 1_555
C13F C10F 1_555 1_555
C14F C13F 1_555 1_555
H8F C14F 1_555 1_555
C15F C14F 1_555 1_555
H9F C15F 1_555 1_555
C16F C15F 1_555 1_555
C17F C16F 1_555 1_555
H10F C17F 1_555 1_555
C18F C17F 1_555 1_555
H11F C18F 1_555 1_555
C19F C18F 1_555 1_555
C20F C19F 1_555 1_555
H12F C20F 1_555 1_555
C21F C20F 1_555 1_555
H13F C21F 1_555 1_555
C22F C21F 1_555 1_555
H14F C22F 1_555 1_555
C23F C19F 1_555 1_555
C24F C16F 1_555 1_555
N1F Co1F 1_555 1_555
N2F Co1F 1_555 1_555
N3F Co1F 1_555 1_555
N4F Co1F 1_555 1_555
O1F Co1F 1_555 1_555
O2E V1E 1_555 1_555
O6C V2E 1_555 1_555
O6F_2 V3F 1_555 1_555
V3F_2 O6F 1_555 1_555
O1E V1E 1_555 1_555
V1F O1F 1_555 1_555
V3 O7 1_555 1_555
C10 N2 1_555 1_555
C11 N2 1_555 1_555
C11 C12 1_555 1_555
C12 N1 1_555 1_555
C13 N3 1_555 1_555
C22 N4 1_555 1_555
C23 N4 1_555 1_555
C23 C24 1_555 1_555
C24 N3 1_555 1_555
O3E V1E 1_555 1_555
C1F N1F 1_555 1_555
C10F N2F 1_555 1_555
C11F N2F 1_555 1_555
C11F C12F 1_555 1_555
C12F N1F 1_555 1_555
C13F N3F 1_555 1_555
C22F N4F 1_555 1_555
C23F N4F 1_555 1_555
C23F C24F 1_555 1_555
C24F N3F 1_555 1_555

#END
