
#######################################################################
#
#                 Cambridge Crystallographic Data Centre
#                                CCDC 
#
#######################################################################
#
# If this CIF has been generated from an entry in the Cambridge 
# Structural Database, then it will include bibliographic, chemical, 
# crystal, experimental, refinement or atomic coordinate data resulting 
# from the CCDC's data processing and validation procedures.
#
#######################################################################

data_QUMTOI
_symmetry_cell_setting           monoclinic
_symmetry_space_group_name_H-M   'C 2/m'
_symmetry_Int_Tables_number      12
_space_group_name_Hall           '-C 2y'
loop_
_symmetry_equiv_pos_site_id
_symmetry_equiv_pos_as_xyz
1 x,y,z
2 -x,y,-z
3 1/2+x,1/2+y,z
4 1/2-x,1/2+y,-z
5 -x,-y,-z
6 x,-y,z
7 1/2-x,1/2-y,-z
8 1/2+x,1/2-y,z
_cell_length_a                   12.321(6)
_cell_length_b                   7.735(4)
_cell_length_c                   3.9036(19)
_cell_angle_alpha                90
_cell_angle_beta                 95.497(11)
_cell_angle_gamma                90
_cell_volume                     370.314
loop_
_atom_site_label
_atom_site_type_symbol
_atom_site_fract_x
_atom_site_fract_y
_atom_site_fract_z
Hg1 Hg 0.5000 1.0000 0.5000
Br1 Br 0.33987(8) 1.0000 -0.0106(3)
N1 N 0.5000 0.6799(12) 0.5000
C1 C 0.5877(6) 0.5906(10) 0.426(2)
H1 H 0.6510 0.6509 0.3725
Hg1_2 Hg 0.5000 1.0000 -0.5000
Hg1_3 Hg 0.5000 0.0000 0.5000
Hg1_4 Hg 0.5000 1.0000 1.5000
Br1_2 Br 0.33987(8) 1.0000 0.9894(3)
Br1A Br 0.66013(8) 1.0000 0.0106(3)
Br1A_2 Br 0.66013(8) 1.0000 1.0106(3)
N1D N 0.5000 0.3201(12) 0.5000
N1D_2 N 0.5000 1.3201(12) 0.5000
C1E C 0.5877(6) 0.4094(10) 0.426(2)
C1D C 0.4123(6) 0.4094(10) 0.574(2)
C1A C 0.4123(6) 0.5906(10) 0.574(2)
H1A H 0.3490 0.6509 0.6275
H1D H 0.3490 0.3491 0.6275
H1E H 0.6510 0.3491 0.3725
loop_
_geom_bond_atom_site_label_1
_geom_bond_atom_site_label_2
_geom_bond_site_symmetry_1
_geom_bond_site_symmetry_2
Hg1 Br1 1_555 1_555
Br1 Hg1_2 1_555 1_555
N1 Hg1 1_555 1_555
C1 N1 1_555 1_555
H1 C1 1_555 1_555
Hg1_2 Br1A 1_555 1_555
Hg1_3 N1D 1_555 1_555
Hg1_4 Br1_2 1_555 1_555
Br1_2 Hg1 1_555 1_555
Br1A Hg1 1_555 1_555
Br1A_2 Hg1 1_555 1_555
N1D C1E 1_555 1_555
N1D_2 Hg1 1_555 1_555
C1E C1 1_555 1_555
C1D N1D 1_555 1_555
C1A N1 1_555 1_555
H1A C1A 1_555 1_555
H1D C1D 1_555 1_555
H1E C1E 1_555 1_555
Hg1_4 Br1A_2 1_555 1_555
C1D C1A 1_555 1_555

#END
