
#######################################################################
#
#                 Cambridge Crystallographic Data Centre
#                                CCDC 
#
#######################################################################
#
# If this CIF has been generated from an entry in the Cambridge 
# Structural Database, then it will include bibliographic, chemical, 
# crystal, experimental, refinement or atomic coordinate data resulting 
# from the CCDC's data processing and validation procedures.
#
#######################################################################

data_QUMVIE
_symmetry_cell_setting           triclinic
_symmetry_space_group_name_H-M   'P -1'
_symmetry_Int_Tables_number      2
_space_group_name_Hall           '-P 1'
loop_
_symmetry_equiv_pos_site_id
_symmetry_equiv_pos_as_xyz
1 x,y,z
2 -x,-y,-z
_cell_length_a                   3.8950(13)
_cell_length_b                   8.146(3)
_cell_length_c                   9.945(3)
_cell_angle_alpha                80.398(5)
_cell_angle_beta                 86.387(5)
_cell_angle_gamma                80.858(6)
_cell_volume                     306.953
loop_
_atom_site_label
_atom_site_type_symbol
_atom_site_fract_x
_atom_site_fract_y
_atom_site_fract_z
C1 C -0.048(4) 0.847(2) -0.007(2)
H1 H -0.0887 0.7373 -0.0141
C2 C -0.075(4) 0.964(2) -0.1215(17)
C3 C -0.146(5) 0.922(2) -0.2609(19)
H2 H -0.2520 0.8184 -0.2475
H3 H 0.0731 0.9048 -0.3143
H4 H -0.3053 1.0146 -0.3098
Cl1 Cl 0.5888(11) 0.4885(5) 0.1811(4)
Cl2 Cl 0.7124(11) 0.7171(5) 0.4682(4)
Hg1 Hg 0.13674(15) 0.62524(7) 0.30848(6)
N1 N 0.033(4) 0.8759(18) 0.1151(14)
C1A C 0.048(4) 1.153(2) 0.007(2)
H1A H 0.0887 1.2627 0.0141
C2A C 0.075(4) 1.036(2) 0.1215(17)
C3A C 0.146(5) 1.078(2) 0.2609(19)
H2A H 0.2520 1.1816 0.2475
H3A H -0.0731 1.0952 0.3143
H4A H 0.3053 0.9854 0.3098
Cl1_2 Cl -0.4112(11) 0.4885(5) 0.1811(4)
Cl1_3 Cl -1.4112(11) 0.4885(5) 0.1811(4)
Cl2_2 Cl -0.2876(11) 0.7171(5) 0.4682(4)
Cl2_3 Cl -1.2876(11) 0.7171(5) 0.4682(4)
Hg1_2 Hg -0.86326(15) 0.62524(7) 0.30848(6)
Hg1_3 Hg 1.13674(15) 0.62524(7) 0.30848(6)
Hg1A Hg -0.13674(15) 1.37476(7) -0.30848(6)
N1A N -0.033(4) 1.1241(18) -0.1151(14)
N1_2 N -0.967(4) 0.8759(18) 0.1151(14)
loop_
_geom_bond_atom_site_label_1
_geom_bond_atom_site_label_2
_geom_bond_site_symmetry_1
_geom_bond_site_symmetry_2
C1 H1 1_555 1_555
C2 C1 1_555 1_555
C3 C2 1_555 1_555
H2 C3 1_555 1_555
H3 C3 1_555 1_555
H4 C3 1_555 1_555
Cl1 Hg1 1_555 1_555
Cl2 Hg1 1_555 1_555
Hg1 N1 1_555 1_555
N1 C1 1_555 1_555
C1A H1A 1_555 1_555
C2A N1 1_555 1_555
C3A C2A 1_555 1_555
H2A C3A 1_555 1_555
H3A C3A 1_555 1_555
H4A C3A 1_555 1_555
Cl1_2 Hg1 1_555 1_555
Cl1_3 Hg1_2 1_555 1_555
Cl2_2 Hg1 1_555 1_555
Cl2_3 Hg1_2 1_555 1_555
Hg1_2 Cl1_2 1_555 1_555
Hg1_3 Cl1 1_555 1_555
Hg1A N1A 1_555 1_555
N1A C2 1_555 1_555
N1_2 Hg1_2 1_555 1_555
Cl2 Hg1_3 1_555 1_555
C1A C2A 1_555 1_555
C1A N1A 1_555 1_555
Cl2_2 Hg1_2 1_555 1_555

#END
