
#######################################################################
#
#                 Cambridge Crystallographic Data Centre
#                                CCDC 
#
#######################################################################
#
# If this CIF has been generated from an entry in the Cambridge 
# Structural Database, then it will include bibliographic, chemical, 
# crystal, experimental, refinement or atomic coordinate data resulting 
# from the CCDC's data processing and validation procedures.
#
#######################################################################

data_QUMVOK
_symmetry_cell_setting           orthorhombic
_symmetry_space_group_name_H-M   'F d d 2'
_symmetry_Int_Tables_number      43
_space_group_name_Hall           'F 2 -2d'
loop_
_symmetry_equiv_pos_site_id
_symmetry_equiv_pos_as_xyz
1 x,y,z
2 -x,-y,z
3 1/4+x,1/4-y,1/4+z
4 1/4-x,1/4+y,1/4+z
5 x,1/2+y,1/2+z
6 -x,1/2-y,1/2+z
7 1/4+x,3/4-y,3/4+z
8 1/4-x,3/4+y,3/4+z
9 1/2+x,y,1/2+z
10 1/2-x,-y,1/2+z
11 3/4+x,1/4-y,3/4+z
12 3/4-x,1/4+y,3/4+z
13 1/2+x,1/2+y,z
14 1/2-x,1/2-y,z
15 3/4+x,3/4-y,1/4+z
16 3/4-x,3/4+y,1/4+z
_cell_length_a                   12.8459(12)
_cell_length_b                   21.180(2)
_cell_length_c                   8.3837(8)
_cell_angle_alpha                90
_cell_angle_beta                 90
_cell_angle_gamma                90
_cell_volume                     2281
loop_
_atom_site_label
_atom_site_type_symbol
_atom_site_fract_x
_atom_site_fract_y
_atom_site_fract_z
C1 C 0.9457(3) 0.17372(19) 1.2416(5)
C2 C 1.0427(4) -0.0471(2) 0.9663(5)
H1 H 1.0752 -0.0810 1.0216
C3 C 1.0414(3) -0.0484(2) 0.8000(5)
C4 C 1.0840(4) -0.1032(2) 0.7106(5)
H2 H 1.1438 -0.0895 0.6466
H3 H 1.1063 -0.1359 0.7860
H4 H 1.0301 -0.1204 0.6401
Hg1 Hg 1.0000 0.0000 1.37387(9)
N1 N 0.9588(3) 0.12929(18) 1.3161(4)
N2 N 1.0000 0.0000 1.0518(13)
N3 N 1.0000 0.0000 0.7194(13)
S1 S 0.93563(8) 0.23892(4) 1.1269(3)
C1A C 1.0543(3) -0.17372(19) 1.2416(5)
C2A C 0.9573(4) 0.0471(2) 0.9663(5)
H1A H 0.9248 0.0810 1.0216
C3A C 0.9586(3) 0.0484(2) 0.8000(5)
C4A C 0.9160(4) 0.1032(2) 0.7106(5)
H2A H 0.8562 0.0895 0.6466
H3A H 0.8937 0.1359 0.7860
H4A H 0.9699 0.1204 0.6401
Hg1_2 Hg 1.0000 0.0000 0.37387(9)
Hg1J Hg 0.7500 0.2500 1.12387(9)
Hg1F Hg 1.2500 -0.2500 1.12387(9)
N1A N 1.0412(3) -0.12929(18) 1.3161(4)
N3_2 N 1.0000 0.0000 1.7194(13)
S1A S 1.06437(8) -0.23892(4) 1.1269(3)
S1B S 1.18563(8) 0.01108(4) 1.3769(3)
S1O S 0.81437(8) -0.01108(4) 1.3769(3)
loop_
_geom_bond_atom_site_label_1
_geom_bond_atom_site_label_2
_geom_bond_site_symmetry_1
_geom_bond_site_symmetry_2
C1 N1 1_555 1_555
C2 H1 1_555 1_555
C3 C2 1_555 1_555
C4 C3 1_555 1_555
H2 C4 1_555 1_555
H3 C4 1_555 1_555
H4 C4 1_555 1_555
Hg1 N1 1_555 1_555
N2 C2 1_555 1_555
N3 C3 1_555 1_555
S1 C1 1_555 1_555
C1A N1A 1_555 1_555
C2A N2 1_555 1_555
H1A C2A 1_555 1_555
C3A N3 1_555 1_555
C4A C3A 1_555 1_555
H2A C4A 1_555 1_555
H3A C4A 1_555 1_555
H4A C4A 1_555 1_555
Hg1_2 N3 1_555 1_555
Hg1J S1 1_555 1_555
Hg1F S1A 1_555 1_555
N1A Hg1 1_555 1_555
N3_2 Hg1 1_555 1_555
S1A C1A 1_555 1_555
S1B Hg1 1_555 1_555
S1O Hg1 1_555 1_555
Hg1 N2 1_555 1_555
C2A C3A 1_555 1_555

#END
