
#######################################################################
#
#                 Cambridge Crystallographic Data Centre
#                                CCDC 
#
#######################################################################
#
# If this CIF has been generated from an entry in the Cambridge 
# Structural Database, then it will include bibliographic, chemical, 
# crystal, experimental, refinement or atomic coordinate data resulting 
# from the CCDC's data processing and validation procedures.
#
#######################################################################

data_QUMVEA
_symmetry_cell_setting           triclinic
_symmetry_space_group_name_H-M   'P -1'
_symmetry_Int_Tables_number      2
_space_group_name_Hall           '-P 1'
loop_
_symmetry_equiv_pos_site_id
_symmetry_equiv_pos_as_xyz
1 x,y,z
2 -x,-y,-z
_cell_length_a                   4.0289(8)
_cell_length_b                   10.454(2)
_cell_length_c                   12.306(2)
_cell_angle_alpha                105.738(4)
_cell_angle_beta                 94.848(4)
_cell_angle_gamma                100.308(4)
_cell_volume                     485.955
loop_
_atom_site_label
_atom_site_type_symbol
_atom_site_fract_x
_atom_site_fract_y
_atom_site_fract_z
Br1 Br 1.2372(4) 0.67443(15) -0.03032(13)
Br2 Br 1.2237(4) 1.04411(15) 0.16433(13)
C1 C 0.592(4) 0.6258(14) 0.2367(12)
H1 H 0.4404 0.5766 0.1688
C2 C 0.619(4) 0.5687(15) 0.3269(12)
C3 C 0.414(5) 0.4275(17) 0.3147(13)
H2 H 0.5627 0.3618 0.2992
H3 H 0.2275 0.4027 0.2515
H4 H 0.3206 0.4267 0.3856
C4 C 0.982(4) 0.8164(16) 0.3422(13)
H5 H 1.1167 0.9035 0.3496
C5 C 1.001(5) 0.7605(16) 0.4342(14)
C6 C 1.220(4) 0.8344(16) 0.5433(14)
H6 H 1.0849 0.8380 0.6061
H7 H 1.3174 0.9271 0.5426
H8 H 1.4048 0.7873 0.5536
Hg1 Hg 0.74434(14) 0.84629(6) 0.08008(5)
N1 N 0.777(3) 0.7486(13) 0.2447(11)
N2 N 0.818(4) 0.6348(14) 0.4240(10)
Br1_2 Br 0.2372(4) 0.67443(15) -0.03032(13)
Br2_2 Br 0.2237(4) 1.04411(15) 0.16433(13)
Hg1_2 Hg 1.74434(14) 0.84629(6) 0.08008(5)
loop_
_geom_bond_atom_site_label_1
_geom_bond_atom_site_label_2
_geom_bond_site_symmetry_1
_geom_bond_site_symmetry_2
Br1 Hg1 1_555 1_555
Br2 Hg1 1_555 1_555
C1 H1 1_555 1_555
C2 C1 1_555 1_555
C3 C2 1_555 1_555
H2 C3 1_555 1_555
H3 C3 1_555 1_555
H4 C3 1_555 1_555
C4 H5 1_555 1_555
C5 C4 1_555 1_555
C6 C5 1_555 1_555
H6 C6 1_555 1_555
H7 C6 1_555 1_555
H8 C6 1_555 1_555
Hg1 N1 1_555 1_555
N1 C1 1_555 1_555
N2 C2 1_555 1_555
Br1_2 Hg1 1_555 1_555
Br2_2 Hg1 1_555 1_555
Hg1_2 Br1 1_555 1_555
Br2 Hg1_2 1_555 1_555
C4 N1 1_555 1_555
C5 N2 1_555 1_555

#END
