
#######################################################################
#
#                 Cambridge Crystallographic Data Centre
#                                CCDC 
#
#######################################################################
#
# If this CIF has been generated from an entry in the Cambridge 
# Structural Database, then it will include bibliographic, chemical, 
# crystal, experimental, refinement or atomic coordinate data resulting 
# from the CCDC's data processing and validation procedures.
#
#######################################################################

data_QUMVAW
_symmetry_cell_setting           monoclinic
_symmetry_space_group_name_H-M   'C 2/c'
_symmetry_Int_Tables_number      15
_space_group_name_Hall           '-C 2yn'
loop_
_symmetry_equiv_pos_site_id
_symmetry_equiv_pos_as_xyz
1 x,y,z
2 -x,y,1/2-z
3 1/2+x,1/2+y,z
4 1/2-x,1/2+y,1/2-z
5 -x,-y,-z
6 x,-y,1/2+z
7 1/2-x,1/2-y,-z
8 1/2+x,1/2-y,1/2+z
_cell_length_a                   15.295(3)
_cell_length_b                   11.035(2)
_cell_length_c                   11.151(2)
_cell_angle_alpha                90
_cell_angle_beta                 115.250(3)
_cell_angle_gamma                90
_cell_volume                     1702.25
loop_
_atom_site_label
_atom_site_type_symbol
_atom_site_fract_x
_atom_site_fract_y
_atom_site_fract_z
Hg1 Hg 0.23761(3) 0.41239(3) 0.09874(3)
S1 S 0.1164(2) 0.3387(2) -0.1082(3)
N1 N 0.2370(7) 0.6343(7) 0.0373(8)
C1 C 0.0617(9) 0.6669(9) -0.0485(11)
H1 H 0.0452 0.5958 -0.1067
H2 H 0.0151 0.7319 -0.0916
H3 H 0.0596 0.6453 0.0355
C2 C 0.3252(9) 0.6753(9) 0.0605(11)
H4 H 0.3795 0.6240 0.1043
C3 C 0.1603(9) 0.7088(9) -0.0224(10)
S2 S 0.3893(2) 0.4146(2) 0.2919(3)
C4 C 0.1332(8) 0.4462(10) -0.2038(10)
C5 C 0.3714(8) 0.5377(10) 0.3686(10)
N2 N 0.1415(7) 0.5177(8) -0.2748(9)
N3 N 0.3643(9) 0.6216(11) 0.4253(12)
Hg1E Hg 0.23761(3) 0.58761(3) -0.40126(3)
Hg1F Hg 0.26239(3) 1.08761(3) -0.09874(3)
Hg1C Hg 0.26239(3) 0.91239(3) 0.40126(3)
S1F S 0.3836(2) 1.1613(2) 0.1082(3)
N1F N 0.2630(7) 0.8657(7) -0.0373(8)
C1F C 0.4383(9) 0.8331(9) 0.0485(11)
H1F H 0.4548 0.9042 0.1067
H2F H 0.4849 0.7681 0.0916
H3F H 0.4404 0.8547 -0.0355
C2F C 0.1748(9) 0.8247(9) -0.0605(11)
H4F H 0.1205 0.8760 -0.1043
C3F C 0.3397(9) 0.7912(9) 0.0224(10)
S2F S 0.1107(2) 1.0854(2) -0.2919(3)
C4F C 0.3668(8) 1.0538(10) 0.2038(10)
C5F C 0.1286(8) 0.9623(10) -0.3686(10)
N2E N 0.1415(7) 0.4823(8) 0.2252(9)
N2C N 0.3585(7) 1.0177(8) -0.2252(9)
N2F N 0.3585(7) 0.9823(8) 0.2748(9)
N3F N 0.1357(9) 0.8784(11) -0.4253(12)
loop_
_geom_bond_atom_site_label_1
_geom_bond_atom_site_label_2
_geom_bond_site_symmetry_1
_geom_bond_site_symmetry_2
Hg1 S1 1_555 1_555
S1 C4 1_555 1_555
N1 Hg1 1_555 1_555
C1 H1 1_555 1_555
H2 C1 1_555 1_555
H3 C1 1_555 1_555
C2 N1 1_555 1_555
H4 C2 1_555 1_555
C3 N1 1_555 1_555
S2 Hg1 1_555 1_555
C4 N2 1_555 1_555
C5 S2 1_555 1_555
N2 Hg1E 1_555 1_555
N3 C5 1_555 1_555
Hg1F S1F 1_555 1_555
Hg1C N2F 1_555 1_555
S1F C4F 1_555 1_555
N1F Hg1F 1_555 1_555
C1F H1F 1_555 1_555
H2F C1F 1_555 1_555
H3F C1F 1_555 1_555
C2F C3 1_555 1_555
H4F C2F 1_555 1_555
C3F C2 1_555 1_555
S2F Hg1F 1_555 1_555
C4F N2F 1_555 1_555
C5F S2F 1_555 1_555
N2E Hg1 1_555 1_555
N2C Hg1F 1_555 1_555
N3F C5F 1_555 1_555
C1 C3 1_555 1_555
N1F C2F 1_555 1_555
N1F C3F 1_555 1_555
C1F C3F 1_555 1_555

#END
