
#######################################################################
#
#                 Cambridge Crystallographic Data Centre
#                                CCDC 
#
#######################################################################
#
# If this CIF has been generated from an entry in the Cambridge 
# Structural Database, then it will include bibliographic, chemical, 
# crystal, experimental, refinement or atomic coordinate data resulting 
# from the CCDC's data processing and validation procedures.
#
#######################################################################

data_QUMWAY
_symmetry_cell_setting           monoclinic
_symmetry_space_group_name_H-M   'C 2/c'
_symmetry_Int_Tables_number      15
_space_group_name_Hall           '-C 2yn'
loop_
_symmetry_equiv_pos_site_id
_symmetry_equiv_pos_as_xyz
1 x,y,z
2 -x,y,1/2-z
3 1/2+x,1/2+y,z
4 1/2-x,1/2+y,1/2-z
5 -x,-y,-z
6 x,-y,1/2+z
7 1/2-x,1/2-y,-z
8 1/2+x,1/2-y,1/2+z
_cell_length_a                   25.6175(4)
_cell_length_b                   8.19310(10)
_cell_length_c                   13.6443(3)
_cell_angle_alpha                90
_cell_angle_beta                 98.5220(10)
_cell_angle_gamma                90
_cell_volume                     2832.14
loop_
_atom_site_label
_atom_site_type_symbol
_atom_site_fract_x
_atom_site_fract_y
_atom_site_fract_z
Cu1 Cu 0.2500 0.2500 0.5000
Cu2 Cu 0.0000 0.00327(5) 0.2500
N1 N -0.04199(8) -0.1634(3) 0.31388(16)
N2 N -0.06272(9) -0.3075(3) 0.43937(19)
N3 N -0.10293(9) -0.3084(3) 0.3642(2)
C1 C -0.02633(10) -0.2167(3) 0.4059(2)
N4 N 0.05566(10) 0.1680(3) 0.2315(2)
N5 N -0.09074(9) -0.2227(3) 0.28852(18)
N6 N 0.04905(8) -0.0861(3) 0.41788(16)
N7 N 0.02256(8) -0.1822(3) 0.46312(16)
C2 C 0.09885(10) -0.0479(3) 0.47057(19)
N8 N 0.11725(9) -0.0863(3) 0.56338(16)
N9 N 0.13308(9) 0.0369(3) 0.42649(17)
N10 N 0.16574(9) -0.0217(3) 0.57795(18)
N11 N 0.17532(9) 0.0510(3) 0.49641(17)
N12 N 0.28915(9) 0.0921(3) 0.42265(17)
N13 N 0.28916(10) 0.1713(3) 0.63470(18)
C3 C 0.31014(13) 0.0025(4) 0.6472(3)
C4 C 0.31031(15) -0.0636(4) 0.4666(3)
C5 C 0.34264(14) -0.0413(5) 0.5672(3)
C6 C 0.04662(16) 0.3414(4) 0.2321(4)
C7 C 0.0000 0.4059(7) 0.2500
H1 H 0.315(2) 0.146(9) 0.402(5)
H2 H 0.268(2) 0.082(10) 0.366(3)
H3 H 0.282(2) -0.138(7) 0.470(6)
H4 H 0.330(3) -0.114(9) 0.421(4)
H5 H 0.370(2) 0.037(7) 0.568(6)
H6 H 0.358(3) -0.144(5) 0.586(5)
H7 H 0.2808(19) -0.067(8) 0.646(6)
H8 H 0.329(3) -0.013(9) 0.711(3)
H9 H 0.271(3) 0.196(10) 0.682(4)
H10 H 0.316(2) 0.236(8) 0.652(6)
H11 H 0.056(3) 0.169(10) 0.1684(18)
H12 H 0.0815(19) 0.105(4) 0.261(4)
H13 H 0.073(2) 0.410(8) 0.214(6)
H14 H 0.0695(11) 0.347(3) 0.294(2)
H15 H 0.0037(15) 0.478(3) 0.299(3)
N4A N -0.05566(10) 0.1680(3) 0.2685(2)
C6A C -0.04662(16) 0.3414(4) 0.2679(4)
H11A H -0.056(3) 0.169(10) 0.3316(18)
H12A H -0.0815(19) 0.105(4) 0.239(4)
H13A H -0.073(2) 0.410(8) 0.286(6)
H14A H -0.0695(11) 0.347(3) 0.206(2)
H15A H -0.0037(15) 0.478(3) 0.201(3)
N1A N 0.04199(8) -0.1634(3) 0.18612(16)
N2A N 0.06272(9) -0.3075(3) 0.06063(19)
N3A N 0.10293(9) -0.3084(3) 0.1358(2)
C1A C 0.02633(10) -0.2167(3) 0.0941(2)
N5A N 0.09074(9) -0.2227(3) 0.21148(18)
N6A N -0.04905(8) -0.0861(3) 0.08212(16)
N7A N -0.02256(8) -0.1822(3) 0.03688(16)
C2A C -0.09885(10) -0.0479(3) 0.02943(19)
N8A N -0.11725(9) -0.0863(3) -0.06338(16)
N9A N -0.13308(9) 0.0369(3) 0.07351(17)
N10A N -0.16574(9) -0.0217(3) -0.07795(18)
N11A N -0.17532(9) 0.0510(3) 0.00359(17)
N12F N 0.21085(9) 0.4079(3) 0.57735(17)
N13F N 0.21084(10) 0.3287(3) 0.36530(18)
C3F C 0.18986(13) 0.4975(4) 0.3528(3)
C4F C 0.18969(15) 0.5636(4) 0.5334(3)
C5F C 0.15736(14) 0.5413(5) 0.4328(3)
H1F H 0.185(2) 0.354(9) 0.598(5)
H2F H 0.232(2) 0.418(10) 0.634(3)
H3F H 0.218(2) 0.638(7) 0.530(6)
H4F H 0.170(3) 0.614(9) 0.579(4)
H5F H 0.130(2) 0.463(7) 0.432(6)
H6F H 0.142(3) 0.644(5) 0.414(5)
H7F H 0.2192(19) 0.567(8) 0.354(6)
H8F H 0.171(3) 0.513(9) 0.289(3)
H9F H 0.229(3) 0.304(10) 0.318(4)
H10F H 0.184(2) 0.264(8) 0.348(6)
Cu1A Cu -0.2500 0.2500 0.0000
N11F N 0.32468(9) 0.4490(3) 0.50359(17)
O1 O 0.20791(8) 0.0649(4) 0.77097(17)
H16 H 0.195(3) 0.031(10) 0.717(3)
H17 H 0.186(2) 0.082(10) 0.804(4)
loop_
_geom_bond_atom_site_label_1
_geom_bond_atom_site_label_2
_geom_bond_site_symmetry_1
_geom_bond_site_symmetry_2
Cu1 N11 1_555 1_555
Cu2 N1 1_555 1_555
N1 C1 1_555 1_555
N2 N3 1_555 1_555
N3 N5 1_555 1_555
C1 N2 1_555 1_555
N4 Cu2 1_555 1_555
N5 N1 1_555 1_555
N6 Cu2 1_555 1_555
N7 C1 1_555 1_555
C2 N6 1_555 1_555
N8 C2 1_555 1_555
N9 C2 1_555 1_555
N10 N8 1_555 1_555
N11 N9 1_555 1_555
N12 Cu1 1_555 1_555
N13 Cu1 1_555 1_555
C3 N13 1_555 1_555
C4 N12 1_555 1_555
C5 C3 1_555 1_555
C6 N4 1_555 1_555
C7 C6 1_555 1_555
H1 N12 1_555 1_555
H2 N12 1_555 1_555
H3 C4 1_555 1_555
H4 C4 1_555 1_555
H5 C5 1_555 1_555
H6 C5 1_555 1_555
H7 C3 1_555 1_555
H8 C3 1_555 1_555
H9 N13 1_555 1_555
H10 N13 1_555 1_555
H11 N4 1_555 1_555
H12 N4 1_555 1_555
H13 C6 1_555 1_555
H14 C6 1_555 1_555
H15 C7 1_555 1_555
O1 H16 1_555 1_555
H17 O1 1_555 1_555
N4A Cu2 1_555 1_555
C6A C7 1_555 1_555
H11A N4A 1_555 1_555
H12A N4A 1_555 1_555
H13A C6A 1_555 1_555
H14A C6A 1_555 1_555
H15A C7 1_555 1_555
N1A Cu2 1_555 1_555
N2A N3A 1_555 1_555
N3A N5A 1_555 1_555
C1A N1A 1_555 1_555
N5A N1A 1_555 1_555
N6A Cu2 1_555 1_555
N7A C1A 1_555 1_555
C2A N6A 1_555 1_555
N8A C2A 1_555 1_555
N9A C2A 1_555 1_555
N10A N8A 1_555 1_555
N11A N9A 1_555 1_555
N12F Cu1 1_555 1_555
N13F Cu1 1_555 1_555
C3F N13F 1_555 1_555
C4F N12F 1_555 1_555
C5F C3F 1_555 1_555
H1F N12F 1_555 1_555
H2F N12F 1_555 1_555
H3F C4F 1_555 1_555
H4F C4F 1_555 1_555
H5F C5F 1_555 1_555
H6F C5F 1_555 1_555
H7F C3F 1_555 1_555
H8F C3F 1_555 1_555
H9F N13F 1_555 1_555
H10F N13F 1_555 1_555
Cu1A N11A 1_555 1_555
N11F Cu1 1_555 1_555
N6 N7 1_555 1_555
N10 N11 1_555 1_555
C4 C5 1_555 1_555
N4A C6A 1_555 1_555
N2A C1A 1_555 1_555
N6A N7A 1_555 1_555
N10A N11A 1_555 1_555
C4F C5F 1_555 1_555

#END
