
#######################################################################
#
#                 Cambridge Crystallographic Data Centre
#                                CCDC 
#
#######################################################################
#
# If this CIF has been generated from an entry in the Cambridge 
# Structural Database, then it will include bibliographic, chemical, 
# crystal, experimental, refinement or atomic coordinate data resulting 
# from the CCDC's data processing and validation procedures.
#
#######################################################################

data_QUMXUS
_symmetry_cell_setting           monoclinic
_symmetry_space_group_name_H-M   'P 21/c'
_symmetry_Int_Tables_number      14
_space_group_name_Hall           '-P 2ybc'
loop_
_symmetry_equiv_pos_site_id
_symmetry_equiv_pos_as_xyz
1 x,y,z
2 -x,1/2+y,1/2-z
3 -x,-y,-z
4 x,1/2-y,1/2+z
_cell_length_a                   6.4810(6)
_cell_length_b                   26.9381(16)
_cell_length_c                   8.3967(6)
_cell_angle_alpha                90
_cell_angle_beta                 120.004(5)
_cell_angle_gamma                90
_cell_volume                     1269.49
loop_
_atom_site_label
_atom_site_type_symbol
_atom_site_fract_x
_atom_site_fract_y
_atom_site_fract_z
C1 C 0.1632(5) -0.13903(12) 0.8390(4)
H1 H 0.2784 -0.1191 0.8233
C2 C -0.0832(5) -0.11516(11) 0.7298(4)
H2 H -0.2034 -0.1397 0.7149
C3 C -0.0680(5) -0.07474(12) 0.8670(4)
H3 H -0.2275 -0.0640 0.8382
C4 C 0.0513(5) -0.10526(11) 1.0444(4)
H4 H 0.1343 -0.0832 1.1507
C5 C 0.1698(6) -0.19198(12) 0.7813(4)
C6 C -0.1489(6) -0.09487(12) 0.5408(4)
C7 C 0.0812(6) -0.03064(12) 0.8692(4)
C8 C -0.1339(6) -0.13659(12) 1.0634(4)
O1 O 0.6470(6) -0.22770(18) 1.2746(5)
H5 H 0.7532 -0.2426 1.3647
H6 H 0.6990 -0.1999 1.2688
O2 O 0.2213(4) -0.13649(9) 1.0290(3)
O3 O 0.3637(6) -0.16528(12) 1.4335(4)
H7 H 0.2793 -0.1634 1.4818
H8 H 0.4109 -0.1369 1.4298
O4 O 0.2069(5) -0.22740(10) 0.8883(4)
O5 O 0.1409(6) -0.19839(10) 0.6245(4)
O6 O -0.3736(5) 0.01773(10) 0.3722(4)
H9 H -0.3184 0.0039 0.4739
H10 H -0.2939 0.0433 0.3857
O7 O 0.0073(5) -0.08242(11) 0.5047(4)
O8 O -0.3685(5) -0.08998(10) 0.4269(3)
O9 O 0.3003(5) -0.02923(11) 0.9767(4)
O10 O -0.0234(5) 0.00310(9) 0.7532(4)
O11 O -0.2975(4) -0.11346(10) 1.0683(4)
O12 O -0.1163(5) -0.18318(10) 1.0683(4)
Cd1 Cd 0.25853(4) -0.215758(9) 1.18152(3)
Cd2 Cd -0.31702(4) -0.045270(9) 0.20955(3)
O4C O 0.2069(5) -0.27260(10) 1.3883(4)
O5C O 0.1409(6) -0.30161(10) 1.1245(4)
O9_2 O -0.6997(5) -0.02923(11) -0.0233(4)
O9B O -0.3003(5) 0.02923(11) 0.0233(4)
O10B O 0.0234(5) -0.00310(9) 0.2468(4)
O11_2 O -0.2975(4) -0.11346(10) 0.0683(4)
Cd1C Cd 0.25853(4) -0.284242(9) 0.68152(3)
Cd2_2 Cd 0.68298(4) -0.045270(9) 1.20955(3)
Cd2B Cd 0.31702(4) 0.045270(9) 0.79045(3)
Cd2_3 Cd -0.31702(4) -0.045270(9) 1.20955(3)
loop_
_geom_bond_atom_site_label_1
_geom_bond_atom_site_label_2
_geom_bond_site_symmetry_1
_geom_bond_site_symmetry_2
C1 H1 1_555 1_555
C2 C1 1_555 1_555
H2 C2 1_555 1_555
C3 C2 1_555 1_555
H3 C3 1_555 1_555
C4 C3 1_555 1_555
H4 C4 1_555 1_555
C5 C1 1_555 1_555
C6 C2 1_555 1_555
C7 C3 1_555 1_555
C8 C4 1_555 1_555
O1 H5 1_555 1_555
H6 O1 1_555 1_555
O2 C1 1_555 1_555
O3 H7 1_555 1_555
H8 O3 1_555 1_555
O4 C5 1_555 1_555
O5 C5 1_555 1_555
O6 H9 1_555 1_555
H10 O6 1_555 1_555
O7 C6 1_555 1_555
O8 C6 1_555 1_555
O9 C7 1_555 1_555
O10 C7 1_555 1_555
O11 C8 1_555 1_555
O12 C8 1_555 1_555
Cd1 O1 1_555 1_555
Cd2 O6 1_555 1_555
O4C Cd1 1_555 1_555
O5C Cd1 1_555 1_555
O9_2 Cd2 1_555 1_555
O9B Cd2 1_555 1_555
O10B Cd2 1_555 1_555
O11_2 Cd2 1_555 1_555
Cd1C O4 1_555 1_555
Cd2_2 O9 1_555 1_555
Cd2B O9 1_555 1_555
Cd2_3 O11 1_555 1_555
C4 O2 1_555 1_555
O2 Cd1 1_555 1_555
O3 Cd1 1_555 1_555
O4 Cd1 1_555 1_555
O5 Cd1C 1_555 1_555
O7 Cd2 1_555 1_555
O8 Cd2 1_555 1_555
O10 Cd2B 1_555 1_555
O12 Cd1 1_555 1_555

#END
