
#######################################################################
#
#                 Cambridge Crystallographic Data Centre
#                                CCDC 
#
#######################################################################
#
# If this CIF has been generated from an entry in the Cambridge 
# Structural Database, then it will include bibliographic, chemical, 
# crystal, experimental, refinement or atomic coordinate data resulting 
# from the CCDC's data processing and validation procedures.
#
#######################################################################

data_QUMXOM
_symmetry_cell_setting           monoclinic
_symmetry_space_group_name_H-M   'P 21/c'
_symmetry_Int_Tables_number      14
_space_group_name_Hall           '-P 2ybc'
loop_
_symmetry_equiv_pos_site_id
_symmetry_equiv_pos_as_xyz
1 x,y,z
2 -x,1/2+y,1/2-z
3 -x,-y,-z
4 x,1/2-y,1/2+z
_cell_length_a                   7.2243(8)
_cell_length_b                   12.1310(12)
_cell_length_c                   22.654(3)
_cell_angle_alpha                90
_cell_angle_beta                 96.066(6)
_cell_angle_gamma                90
_cell_volume                     1974.23
loop_
_atom_site_label
_atom_site_type_symbol
_atom_site_fract_x
_atom_site_fract_y
_atom_site_fract_z
Cu1 Cu -0.68309(7) -0.33722(4) 0.27928(2)
Cu2 Cu -1.23772(7) -0.35202(4) 0.35969(2)
C1 C -0.9158(6) -0.1286(3) 0.27755(18)
H1 H -0.9958 -0.1162 0.2404
C2 C -0.9015(5) -0.0211(3) 0.31359(18)
H2 H -0.9268 -0.0397 0.3541
C3 C -0.6942(6) 0.0122(3) 0.31667(19)
H3 H -0.6493 0.0439 0.3554
C4 C -0.5991(6) -0.0987(3) 0.30609(18)
H4 H -0.4866 -0.0833 0.2868
C5 C -0.9946(5) -0.2227(3) 0.31108(18)
C6 C -1.0373(6) 0.0696(4) 0.2918(2)
C7 C -0.6500(5) 0.0862(3) 0.26577(18)
C8 C -0.5432(6) -0.1714(3) 0.36065(19)
C9 C -1.1222(8) -0.2100(5) 0.4665(3)
H5 H -1.1038 -0.1523 0.4407
C10 C -1.0923(10) -0.1923(6) 0.5282(3)
H6 H -1.0546 -0.1233 0.5427
C11 C -1.1184(9) -0.2756(6) 0.5666(3)
H7 H -1.0988 -0.2635 0.6073
C12 C -1.1740(7) -0.3782(5) 0.5451(2)
C13 C -1.2054(8) -0.4729(6) 0.5811(2)
H8 H -1.1838 -0.4672 0.6221
C14 C -1.2649(7) -0.5691(6) 0.5568(3)
H9 H -1.2866 -0.6279 0.5815
C15 C -1.2959(7) -0.5835(5) 0.4939(2)
C16 C -1.3548(8) -0.6817(5) 0.4657(3)
H10 H -1.3789 -0.7433 0.4881
C17 C -1.3768(9) -0.6867(5) 0.4049(3)
H11 H -1.4158 -0.7517 0.3857
C18 C -1.3401(7) -0.5933(4) 0.3723(2)
H12 H -1.3531 -0.5978 0.3311
C19 C -1.2638(6) -0.4933(4) 0.4576(2)
C20 C -1.2017(6) -0.3900(4) 0.4833(2)
O1 O -0.8977(4) -0.3082(2) 0.32393(13)
O2 O -1.1540(4) -0.2116(2) 0.32691(15)
O3 O -1.1795(4) 0.0394(3) 0.25724(17)
O4 O -1.0026(5) 0.1651(3) 0.30805(16)
O5 O -0.7495(4) 0.0737(3) 0.21707(13)
O6 O -0.5073(4) 0.1466(3) 0.27463(14)
O7 O -0.5117(6) -0.1302(3) 0.40984(17)
O8 O -0.5248(4) -0.2742(2) 0.34873(13)
O9 O -0.7292(4) -0.1545(2) 0.26378(13)
N1 N -1.1760(5) -0.3069(3) 0.44458(17)
N2 N -1.2875(5) -0.4983(3) 0.39761(17)
Cu1A Cu -1.31691(7) 0.16278(4) 0.22072(2)
Cu1A_2 Cu -0.31691(7) 0.16278(4) 0.22072(2)
Cu2A Cu -0.76228(7) 0.14798(4) 0.14031(2)
Cu2_2 Cu -0.23772(7) -0.35202(4) 0.35969(2)
O3A O -0.8205(4) -0.4606(3) 0.24276(17)
O5A O -1.2505(4) -0.4263(3) 0.28293(13)
O6A O -0.4927(4) -0.3534(3) 0.22537(14)
O8_2 O -1.5248(4) -0.2742(2) 0.34873(13)
O10 O -0.342(3) 0.0428(11) 0.4849(9)
O11? O -0.247(3) 0.0480(16) 0.4066(11)
loop_
_geom_bond_atom_site_label_1
_geom_bond_atom_site_label_2
_geom_bond_site_symmetry_1
_geom_bond_site_symmetry_2
Cu1 O1 1_555 1_555
Cu2 O2 1_555 1_555
C1 H1 1_555 1_555
C2 C1 1_555 1_555
H2 C2 1_555 1_555
C3 C2 1_555 1_555
H3 C3 1_555 1_555
C4 C3 1_555 1_555
H4 C4 1_555 1_555
C5 C1 1_555 1_555
C6 C2 1_555 1_555
C7 C3 1_555 1_555
C8 C4 1_555 1_555
C9 H5 1_555 1_555
C10 C9 1_555 1_555
H6 C10 1_555 1_555
C11 C10 1_555 1_555
H7 C11 1_555 1_555
C12 C11 1_555 1_555
C13 C12 1_555 1_555
H8 C13 1_555 1_555
C14 C13 1_555 1_555
H9 C14 1_555 1_555
C15 C14 1_555 1_555
C16 C15 1_555 1_555
H10 C16 1_555 1_555
C17 C16 1_555 1_555
H11 C17 1_555 1_555
C18 C17 1_555 1_555
H12 C18 1_555 1_555
C19 C15 1_555 1_555
C20 C12 1_555 1_555
O1 C5 1_555 1_555
O2 C5 1_555 1_555
O3 C6 1_555 1_555
O4 C6 1_555 1_555
O5 C7 1_555 1_555
O6 C7 1_555 1_555
O7 C8 1_555 1_555
O8 Cu1 1_555 1_555
O9 Cu1 1_555 1_555
N1 Cu2 1_555 1_555
N2 Cu2 1_555 1_555
Cu1A O3 1_555 1_555
Cu1A_2 O6 1_555 1_555
Cu2A O5 1_555 1_555
Cu2_2 O8 1_555 1_555
O3A Cu1 1_555 1_555
O5A Cu2 1_555 1_555
O6A Cu1 1_555 1_555
O8_2 Cu2 1_555 1_555
C1 O9 1_555 1_555
C4 O9 1_555 1_555
C8 O8 1_555 1_555
C9 N1 1_555 1_555
C18 N2 1_555 1_555
C19 C20 1_555 1_555
C19 N2 1_555 1_555
C20 N1 1_555 1_555

#END
