
#######################################################################
#
#                 Cambridge Crystallographic Data Centre
#                                CCDC 
#
#######################################################################
#
# If this CIF has been generated from an entry in the Cambridge 
# Structural Database, then it will include bibliographic, chemical, 
# crystal, experimental, refinement or atomic coordinate data resulting 
# from the CCDC's data processing and validation procedures.
#
#######################################################################

data_QUNNET
_symmetry_cell_setting           orthorhombic
_symmetry_space_group_name_H-M   'P 21 21 21'
_symmetry_Int_Tables_number      19
_space_group_name_Hall           'P 2ac 2ab'
loop_
_symmetry_equiv_pos_site_id
_symmetry_equiv_pos_as_xyz
1 x,y,z
2 1/2-x,-y,1/2+z
3 1/2+x,1/2-y,-z
4 -x,1/2+y,1/2-z
_cell_length_a                   8.3466(2)
_cell_length_b                   15.8125(3)
_cell_length_c                   18.7686(4)
_cell_angle_alpha                90
_cell_angle_beta                 90
_cell_angle_gamma                90
_cell_volume                     2477.09
loop_
_atom_site_label
_atom_site_type_symbol
_atom_site_fract_x
_atom_site_fract_y
_atom_site_fract_z
Cs1 Cs 0.59193(3) 0.317984(15) 0.894217(13)
C1 C 0.4225(7) 0.0926(3) 0.8418(4)
H1 H 0.3088 0.0856 0.8506
H2 H 0.4686 0.0371 0.8334
C2 C 0.4476(7) 0.1473(4) 0.7786(3)
H3 H 0.5612 0.1584 0.7730
H4 H 0.4106 0.1180 0.7363
O1 O 0.3653(4) 0.2241(3) 0.78523(18)
C3 C 0.3783(7) 0.2770(4) 0.7236(3)
H5 H 0.3347 0.2480 0.6825
H6 H 0.4901 0.2895 0.7143
C4 C 0.2881(7) 0.3576(4) 0.7360(3)
H7 H 0.2828 0.3897 0.6921
H8 H 0.1795 0.3448 0.7509
O2 O 0.3641(4) 0.4053(2) 0.78832(19)
C5 C 0.2787(6) 0.4794(3) 0.8074(3)
H9 H 0.1735 0.4640 0.8252
H10 H 0.2643 0.5147 0.7657
C6 C 0.3659(7) 0.5269(3) 0.8626(3)
H11 H 0.4770 0.5338 0.8485
H12 H 0.3190 0.5827 0.8681
O3 O 0.3574(4) 0.48251(19) 0.92770(19)
C7 C 0.4422(7) 0.5256(3) 0.9831(3)
H13 H 0.3987 0.5820 0.9893
H14 H 0.5545 0.5307 0.9705
C8 C 0.4262(7) 0.4777(3) 1.0496(3)
H15 H 0.4782 0.5078 1.0882
H16 H 0.3138 0.4709 1.0615
O4 O 0.4979(4) 0.3980(2) 1.04035(18)
C9 C 0.4776(6) 0.3461(4) 1.1012(3)
H17 H 0.3643 0.3379 1.1104
H18 H 0.5248 0.3734 1.1424
C10 C 0.5558(6) 0.2629(4) 1.0892(2)
H19 H 0.6661 0.2715 1.0747
H20 H 0.5561 0.2308 1.1333
O5 O 0.4737(3) 0.2170(2) 1.03616(18)
C11 C 0.5420(6) 0.1351(3) 1.0252(3)
H21 H 0.5325 0.1021 1.0686
H22 H 0.6550 0.1408 1.0141
C12 C 0.4605(6) 0.0903(3) 0.9664(4)
H23 H 0.4960 0.0319 0.9646
H24 H 0.3456 0.0908 0.9740
O6 O 0.4975(4) 0.13102(18) 0.9023(2)
C13 C 0.9487(3) 0.22451(12) 0.66225(11)
C14 C 0.9964(3) 0.15044(13) 0.69602(8)
H25 H 0.9714 0.1417 0.7438
C15 C 1.0814(3) 0.08940(10) 0.65846(10)
C16 C 1.1187(3) 0.10242(12) 0.58712(10)
H26 H 1.1756 0.0616 0.5620
C17 C 1.0710(3) 0.17649(13) 0.55335(8)
C18 C 0.9860(3) 0.23754(11) 0.59091(10)
H27 H 0.9541 0.2871 0.5683
C19 C 0.8572(4) 0.2894(2) 0.7057(2)
O7 O 0.8206(4) 0.27207(18) 0.76683(15)
O8 O 0.8259(3) 0.36046(15) 0.67485(14)
C20 C 1.1419(4) 0.0100(2) 0.6922(2)
O9 O 1.1060(4) 0.00027(15) 0.75920(13)
H28 H 1.139(5) -0.043(2) 0.777(2)
O10 O 1.2175(4) -0.04050(19) 0.65831(17)
C21 C 1.1097(5) 0.1904(2) 0.47649(18)
O11 O 1.1831(4) 0.12436(17) 0.44773(15)
H29 H 1.219(5) 0.134(2) 0.405(2)
O12 O 1.0813(5) 0.25489(18) 0.44487(15)
Cs1B Cs 0.09193(3) 0.182016(15) 1.105783(13)
Cs1C Cs 1.40807(3) -0.182016(15) 0.605783(13)
O5B O 0.9737(3) 0.2830(2) 0.96384(18)
O10C O 0.7825(4) 0.45950(19) 0.84169(17)
loop_
_geom_bond_atom_site_label_1
_geom_bond_atom_site_label_2
_geom_bond_site_symmetry_1
_geom_bond_site_symmetry_2
Cs1 O1 1_555 1_555
C1 H1 1_555 1_555
H2 C1 1_555 1_555
C2 C1 1_555 1_555
H3 C2 1_555 1_555
H4 C2 1_555 1_555
O1 C2 1_555 1_555
C3 O1 1_555 1_555
H5 C3 1_555 1_555
H6 C3 1_555 1_555
C4 C3 1_555 1_555
H7 C4 1_555 1_555
H8 C4 1_555 1_555
O2 Cs1 1_555 1_555
C5 O2 1_555 1_555
H9 C5 1_555 1_555
H10 C5 1_555 1_555
C6 C5 1_555 1_555
H11 C6 1_555 1_555
H12 C6 1_555 1_555
O3 Cs1 1_555 1_555
C7 O3 1_555 1_555
H13 C7 1_555 1_555
H14 C7 1_555 1_555
C8 C7 1_555 1_555
H15 C8 1_555 1_555
H16 C8 1_555 1_555
O4 Cs1 1_555 1_555
C9 O4 1_555 1_555
H17 C9 1_555 1_555
H18 C9 1_555 1_555
C10 C9 1_555 1_555
H19 C10 1_555 1_555
H20 C10 1_555 1_555
O5 Cs1 1_555 1_555
C11 O5 1_555 1_555
H21 C11 1_555 1_555
H22 C11 1_555 1_555
C12 C11 1_555 1_555
H23 C12 1_555 1_555
H24 C12 1_555 1_555
O6 Cs1 1_555 1_555
C13 C14 1_555 1_555
C14 H25 1_555 1_555
C15 C14 1_555 1_555
C16 C15 1_555 1_555
H26 C16 1_555 1_555
C17 C16 1_555 1_555
C18 C13 1_555 1_555
H27 C18 1_555 1_555
C19 C13 1_555 1_555
O7 Cs1 1_555 1_555
O8 C19 1_555 1_555
C20 C15 1_555 1_555
O9 C20 1_555 1_555
H28 O9 1_555 1_555
O10 C20 1_555 1_555
C21 C17 1_555 1_555
O11 C21 1_555 1_555
H29 O11 1_555 1_555
O12 C21 1_555 1_555
Cs1B O5 1_555 1_555
Cs1C O10 1_555 1_555
O5B Cs1 1_555 1_555
O10C Cs1 1_555 1_555
C1 O6 1_555 1_555
C4 O2 1_555 1_555
C6 O3 1_555 1_555
C8 O4 1_555 1_555
C10 O5 1_555 1_555
C12 O6 1_555 1_555
C17 C18 1_555 1_555
C19 O7 1_555 1_555

#END
