
#######################################################################
#
#                 Cambridge Crystallographic Data Centre
#                                CCDC 
#
#######################################################################
#
# If this CIF has been generated from an entry in the Cambridge 
# Structural Database, then it will include bibliographic, chemical, 
# crystal, experimental, refinement or atomic coordinate data resulting 
# from the CCDC's data processing and validation procedures.
#
#######################################################################

data_QUNNOD
_symmetry_cell_setting           orthorhombic
_symmetry_space_group_name_H-M   'P b c a'
_symmetry_Int_Tables_number      61
_space_group_name_Hall           '-P 2ac 2ab'
loop_
_symmetry_equiv_pos_site_id
_symmetry_equiv_pos_as_xyz
1 x,y,z
2 1/2-x,-y,1/2+z
3 1/2+x,1/2-y,-z
4 -x,1/2+y,1/2-z
5 -x,-y,-z
6 1/2+x,y,1/2-z
7 1/2-x,1/2+y,z
8 x,1/2-y,1/2+z
_cell_length_a                   14.8028(4)
_cell_length_b                   12.4245(4)
_cell_length_c                   18.3359(5)
_cell_angle_alpha                90
_cell_angle_beta                 90
_cell_angle_gamma                90
_cell_volume                     3372.29
loop_
_atom_site_label
_atom_site_type_symbol
_atom_site_fract_x
_atom_site_fract_y
_atom_site_fract_z
Cs1 Cs 0.135944(18) 0.00953(2) 0.024658(16)
C1 C -0.0049(3) 0.1836(4) 0.1522(2)
H1 H -0.0275 0.2482 0.1755
H2 H 0.0591 0.1775 0.1629
O1 O -0.01796(19) 0.1905(2) 0.07583(17)
C2 C 0.0259(3) 0.2820(3) 0.0450(3)
H3 H 0.0907 0.2760 0.0520
H4 H 0.0054 0.3470 0.0693
C3 C 0.0056(3) 0.2887(4) -0.0344(3)
H5 H -0.0593 0.2933 -0.0416
H6 H 0.0330 0.3528 -0.0550
O2 O 0.03980(19) 0.1960(2) -0.06977(17)
C4 C 0.0197(3) 0.1965(4) -0.1459(3)
H7 H 0.0459 0.2600 -0.1683
H8 H -0.0452 0.1993 -0.1528
C5 C 0.0562(3) 0.0991(4) -0.1809(2)
H9 H 0.0464 0.1029 -0.2331
H10 H 0.1207 0.0946 -0.1722
O3 O 0.01319(18) 0.0068(2) -0.15248(15)
C6 C -0.0529(3) 0.0889(4) 0.1808(2)
H11 H -0.1161 0.0923 0.1669
H12 H -0.0495 0.0883 0.2336
C7 C 0.2379(2) -0.2550(3) -0.1993(2)
H13 H 0.2605 -0.1853 -0.2021
C8 C 0.2203(2) -0.2991(3) -0.1317(2)
C9 C 0.1843(3) -0.4017(3) -0.1277(2)
H14 H 0.1718 -0.4324 -0.0826
C10 C 0.1668(3) -0.4589(3) -0.1909(2)
H15 H 0.1411 -0.5271 -0.1883
C11 C 0.1877(3) -0.4147(3) -0.2573(2)
H16 H 0.1784 -0.4547 -0.2995
C12 C 0.2227(2) -0.3111(3) -0.2625(2)
C13 C 0.2390(3) -0.2348(3) -0.0638(2)
O4 O 0.2566(2) -0.1399(2) -0.06658(14)
O5 O 0.23409(19) -0.2902(2) -0.00361(14)
C14 C 0.2424(3) -0.2602(3) -0.3352(2)
O6 O 0.2668(2) -0.1656(2) -0.33769(14)
O7 O 0.23210(19) -0.3195(2) -0.39126(14)
Cs1D Cs -0.135944(18) -0.00953(2) -0.024658(16)
Cs1F Cs 0.364056(18) -0.49047(2) 0.024658(16)
Cs1G Cs 0.135944(18) -0.50953(2) -0.475342(16)
Cs1F_2 Cs 0.364056(18) 0.50953(2) 0.024658(16)
Cs1A Cs 0.364056(18) -0.00953(2) -0.475342(16)
C1D C 0.0049(3) -0.1836(4) -0.1522(2)
H1D H 0.0275 -0.2482 -0.1755
H2D H -0.0591 -0.1775 -0.1629
O1D O 0.01796(19) -0.1905(2) -0.07583(17)
C2D C -0.0259(3) -0.2820(3) -0.0450(3)
H3D H -0.0907 -0.2760 -0.0520
H4D H -0.0054 -0.3470 -0.0693
C3D C -0.0056(3) -0.2887(4) 0.0344(3)
H5D H 0.0593 -0.2933 0.0416
H6D H -0.0330 -0.3528 0.0550
O2D O -0.03980(19) -0.1960(2) 0.06977(17)
C4D C -0.0197(3) -0.1965(4) 0.1459(3)
H7D H -0.0459 -0.2600 0.1683
H8D H 0.0452 -0.1993 0.1528
C5D C -0.0562(3) -0.0991(4) 0.1809(2)
H9D H -0.0464 -0.1029 0.2331
H10D H -0.1207 -0.0946 0.1722
O3D O -0.01319(18) -0.0068(2) 0.15248(15)
C6D C 0.0529(3) -0.0889(4) -0.1808(2)
H11D H 0.1161 -0.0923 -0.1669
H12D H 0.0495 -0.0883 -0.2336
C7F C 0.2621(2) 0.2450(3) -0.1993(2)
H13F H 0.2395 0.3147 -0.2021
C8F C 0.2797(2) 0.2009(3) -0.1317(2)
C9F C 0.3157(3) 0.0983(3) -0.1277(2)
H14F H 0.3282 0.0676 -0.0826
C10F C 0.3332(3) 0.0411(3) -0.1909(2)
H15F H 0.3589 -0.0271 -0.1883
C11F C 0.3123(3) 0.0853(3) -0.2573(2)
H16F H 0.3216 0.0453 -0.2995
C12F C 0.2773(2) 0.1889(3) -0.2625(2)
C13F C 0.2610(3) 0.2652(3) -0.0638(2)
O4F O 0.2434(2) 0.3601(2) -0.06658(14)
O4D O -0.2566(2) 0.1399(2) 0.06658(14)
O5F O 0.26591(19) 0.2098(2) -0.00361(14)
O5B O -0.26591(19) -0.2098(2) 0.00361(14)
C14F C 0.2576(3) 0.2398(3) -0.3352(2)
O6F O 0.2332(2) 0.3344(2) -0.33769(14)
O7F O 0.26790(19) 0.1805(2) -0.39126(14)
O7G O 0.23210(19) -0.1805(2) 0.10874(14)
O7C O -0.23210(19) 0.1805(2) -0.10874(14)
O8 O 0.3647(4) 0.0069(4) 0.1127(6)
loop_
_geom_bond_atom_site_label_1
_geom_bond_atom_site_label_2
_geom_bond_site_symmetry_1
_geom_bond_site_symmetry_2
Cs1 O1 1_555 1_555
C1 H1 1_555 1_555
H2 C1 1_555 1_555
O1 C1 1_555 1_555
C2 O1 1_555 1_555
H3 C2 1_555 1_555
H4 C2 1_555 1_555
C3 C2 1_555 1_555
H5 C3 1_555 1_555
H6 C3 1_555 1_555
O2 Cs1 1_555 1_555
C4 O2 1_555 1_555
H7 C4 1_555 1_555
H8 C4 1_555 1_555
C5 C4 1_555 1_555
H9 C5 1_555 1_555
H10 C5 1_555 1_555
O3 C5 1_555 1_555
C6 C1 1_555 1_555
H11 C6 1_555 1_555
H12 C6 1_555 1_555
C7 H13 1_555 1_555
C8 C7 1_555 1_555
C9 C8 1_555 1_555
H14 C9 1_555 1_555
C10 C9 1_555 1_555
H15 C10 1_555 1_555
C11 C10 1_555 1_555
H16 C11 1_555 1_555
C12 C7 1_555 1_555
C13 C8 1_555 1_555
O4 Cs1 1_555 1_555
O5 C13 1_555 1_555
C14 C12 1_555 1_555
O6 C14 1_555 1_555
O7 C14 1_555 1_555
Cs1D O3 1_555 1_555
Cs1F O5 1_555 1_555
Cs1G O7 1_555 1_555
Cs1F_2 O4F 1_555 1_555
Cs1A O7F 1_555 1_555
C1D H1D 1_555 1_555
H2D C1D 1_555 1_555
O1D Cs1D 1_555 1_555
C2D O1D 1_555 1_555
H3D C2D 1_555 1_555
H4D C2D 1_555 1_555
C3D C2D 1_555 1_555
H5D C3D 1_555 1_555
H6D C3D 1_555 1_555
O2D Cs1D 1_555 1_555
C4D O2D 1_555 1_555
H7D C4D 1_555 1_555
H8D C4D 1_555 1_555
C5D C4D 1_555 1_555
H9D C5D 1_555 1_555
H10D C5D 1_555 1_555
O3D Cs1 1_555 1_555
C6D O3 1_555 1_555
H11D C6D 1_555 1_555
H12D C6D 1_555 1_555
C7F H13F 1_555 1_555
C8F C7F 1_555 1_555
C9F C8F 1_555 1_555
H14F C9F 1_555 1_555
C10F C9F 1_555 1_555
H15F C10F 1_555 1_555
C11F C10F 1_555 1_555
H16F C11F 1_555 1_555
C12F C7F 1_555 1_555
C13F C8F 1_555 1_555
O4F C13F 1_555 1_555
O4D Cs1D 1_555 1_555
O5F Cs1 1_555 1_555
O5B Cs1D 1_555 1_555
C14F C12F 1_555 1_555
O6F C14F 1_555 1_555
O7F C14F 1_555 1_555
O7G Cs1 1_555 1_555
O7C Cs1D 1_555 1_555
C3 O2 1_555 1_555
C6 O3D 1_555 1_555
C11 C12 1_555 1_555
C13 O4 1_555 1_555
C1D O1D 1_555 1_555
C1D C6D 1_555 1_555
C3D O2D 1_555 1_555
C5D O3D 1_555 1_555
C11F C12F 1_555 1_555
C13F O5F 1_555 1_555

#END
