
#######################################################################
#
#                 Cambridge Crystallographic Data Centre
#                                CCDC 
#
#######################################################################
#
# If this CIF has been generated from an entry in the Cambridge 
# Structural Database, then it will include bibliographic, chemical, 
# crystal, experimental, refinement or atomic coordinate data resulting 
# from the CCDC's data processing and validation procedures.
#
#######################################################################

data_QUNNIX
_symmetry_cell_setting           orthorhombic
_symmetry_space_group_name_H-M   'P 21 21 21'
_symmetry_Int_Tables_number      19
_space_group_name_Hall           'P 2ac 2ab'
loop_
_symmetry_equiv_pos_site_id
_symmetry_equiv_pos_as_xyz
1 x,y,z
2 1/2-x,-y,1/2+z
3 -x,1/2+y,1/2-z
4 1/2+x,1/2-y,-z
_cell_length_a                   8.2125(3)
_cell_length_b                   15.2641(4)
_cell_length_c                   18.9603(6)
_cell_angle_alpha                90
_cell_angle_beta                 90
_cell_angle_gamma                90
_cell_volume                     2376.8
loop_
_atom_site_label
_atom_site_type_symbol
_atom_site_fract_x
_atom_site_fract_y
_atom_site_fract_z
Cs1 Cs 0.39649(3) 0.660273(12) 0.098290(11)
C1 C 0.5630(6) 0.8948(2) 0.1633(3)
H1 H 0.5173 0.9520 0.1736
H2 H 0.6790 0.9017 0.1556
C2 C 0.5344(6) 0.8348(3) 0.2240(2)
H3 H 0.5703 0.8624 0.2674
H4 H 0.4191 0.8221 0.2282
O1 O 0.6213(4) 0.75668(18) 0.21312(14)
C3 C 0.6154(7) 0.6998(3) 0.2723(2)
H5 H 0.5034 0.6837 0.2821
H6 H 0.6589 0.7294 0.3135
C4 C 0.7124(6) 0.6203(3) 0.2573(2)
H7 H 0.8202 0.6367 0.2412
H8 H 0.7239 0.5856 0.2999
O2 O 0.6318(4) 0.57027(17) 0.20431(14)
C5 C 0.7248(5) 0.4967(3) 0.1816(2)
H9 H 0.7429 0.4573 0.2210
H10 H 0.8299 0.5161 0.1643
C6 C 0.6354(6) 0.4502(2) 0.1246(2)
H11 H 0.6827 0.3927 0.1173
H12 H 0.5223 0.4427 0.1380
O3 O 0.6451(3) 0.49993(13) 0.06133(13)
C7 C 0.5606(6) 0.4580(2) 0.0062(2)
H13 H 0.4464 0.4520 0.0185
H14 H 0.6051 0.3999 -0.0015
C8 C 0.5779(6) 0.5121(2) -0.05949(19)
H15 H 0.6922 0.5212 -0.0700
H16 H 0.5285 0.4819 -0.0991
O4 O 0.5000(3) 0.59396(16) -0.04899(13)
C9 C 0.5217(5) 0.6521(3) -0.1067(2)
H17 H 0.4770 0.6264 -0.1492
H18 H 0.6369 0.6627 -0.1142
C10 C 0.4378(5) 0.7359(3) -0.0911(2)
H19 H 0.4370 0.7725 -0.1329
H20 H 0.3258 0.7244 -0.0777
O5 O 0.5188(3) 0.78027(16) -0.03541(14)
C11 C 0.4474(6) 0.8636(2) -0.0231(3)
H21 H 0.3319 0.8567 -0.0139
H22 H 0.4600 0.9001 -0.0646
C12 C 0.5285(6) 0.9070(2) 0.0393(3)
H23 H 0.6456 0.9075 0.0327
H24 H 0.4914 0.9671 0.0435
O6 O 0.4884(3) 0.85959(14) 0.10138(19)
C13 C 0.0933(5) 0.72757(18) 0.33562(17)
C14 C 0.0122(4) 0.80272(19) 0.31479(18)
H25 H -0.0004 0.8141 0.2669
C15 C -0.0510(4) 0.86160(19) 0.36357(19)
C16 C -0.0260(5) 0.8456(3) 0.4347(2)
H26 H -0.0669 0.8845 0.4680
C17 C 0.0594(7) 0.7721(2) 0.4567(2)
H27 H 0.0775 0.7624 0.5045
C18 C 0.1178(6) 0.71325(19) 0.4070(2)
H28 H 0.1740 0.6636 0.4217
C19 C 0.1471(4) 0.6627(2) 0.28024(18)
O7 O 0.1565(3) 0.68622(14) 0.21895(13)
O8 O 0.1787(3) 0.58488(14) 0.30234(13)
C20 C -0.1388(5) 0.9435(2) 0.3401(2)
O9 O -0.1357(4) 0.95612(13) 0.27304(14)
H29 H -0.1849 1.0014 0.2635
O10 O -0.2029(4) 0.99069(16) 0.38392(15)
Cs1B Cs -0.39649(3) 1.160273(12) 0.401710(11)
Cs1C Cs 0.89649(3) 0.839727(12) -0.098290(11)
O5C O 0.0188(3) 0.71973(16) 0.03541(14)
O10B O 0.2029(4) 0.49069(16) 0.11608(15)
loop_
_geom_bond_atom_site_label_1
_geom_bond_atom_site_label_2
_geom_bond_site_symmetry_1
_geom_bond_site_symmetry_2
Cs1 O1 1_555 1_555
C1 H1 1_555 1_555
H2 C1 1_555 1_555
C2 C1 1_555 1_555
H3 C2 1_555 1_555
H4 C2 1_555 1_555
O1 C2 1_555 1_555
C3 O1 1_555 1_555
H5 C3 1_555 1_555
H6 C3 1_555 1_555
C4 C3 1_555 1_555
H7 C4 1_555 1_555
H8 C4 1_555 1_555
O2 Cs1 1_555 1_555
C5 O2 1_555 1_555
H9 C5 1_555 1_555
H10 C5 1_555 1_555
C6 C5 1_555 1_555
H11 C6 1_555 1_555
H12 C6 1_555 1_555
O3 Cs1 1_555 1_555
C7 O3 1_555 1_555
H13 C7 1_555 1_555
H14 C7 1_555 1_555
C8 C7 1_555 1_555
H15 C8 1_555 1_555
H16 C8 1_555 1_555
O4 Cs1 1_555 1_555
C9 O4 1_555 1_555
H17 C9 1_555 1_555
H18 C9 1_555 1_555
C10 C9 1_555 1_555
H19 C10 1_555 1_555
H20 C10 1_555 1_555
O5 Cs1 1_555 1_555
C11 O5 1_555 1_555
H21 C11 1_555 1_555
H22 C11 1_555 1_555
C12 C11 1_555 1_555
H23 C12 1_555 1_555
H24 C12 1_555 1_555
O6 Cs1 1_555 1_555
C13 C14 1_555 1_555
C14 H25 1_555 1_555
C15 C14 1_555 1_555
C16 C15 1_555 1_555
H26 C16 1_555 1_555
C17 C16 1_555 1_555
H27 C17 1_555 1_555
C18 C13 1_555 1_555
H28 C18 1_555 1_555
C19 C13 1_555 1_555
O7 Cs1 1_555 1_555
O8 C19 1_555 1_555
C20 C15 1_555 1_555
O9 C20 1_555 1_555
H29 O9 1_555 1_555
O10 C20 1_555 1_555
Cs1B O10 1_555 1_555
Cs1C O5 1_555 1_555
O5C Cs1 1_555 1_555
O10B Cs1 1_555 1_555
C1 O6 1_555 1_555
C4 O2 1_555 1_555
C6 O3 1_555 1_555
C8 O4 1_555 1_555
C10 O5 1_555 1_555
C12 O6 1_555 1_555
C17 C18 1_555 1_555
C19 O7 1_555 1_555

#END
