
#######################################################################
#
#                 Cambridge Crystallographic Data Centre
#                                CCDC 
#
#######################################################################
#
# If this CIF has been generated from an entry in the Cambridge 
# Structural Database, then it will include bibliographic, chemical, 
# crystal, experimental, refinement or atomic coordinate data resulting 
# from the CCDC's data processing and validation procedures.
#
#######################################################################

data_QUNPUL
_symmetry_cell_setting           monoclinic
_symmetry_space_group_name_H-M   'C 2/c'
_symmetry_Int_Tables_number      15
_space_group_name_Hall           '-C 2yn'
loop_
_symmetry_equiv_pos_site_id
_symmetry_equiv_pos_as_xyz
1 x,y,z
2 -x,y,1/2-z
3 1/2+x,1/2+y,z
4 1/2-x,1/2+y,1/2-z
5 -x,-y,-z
6 x,-y,1/2+z
7 1/2-x,1/2-y,-z
8 1/2+x,1/2-y,1/2+z
_cell_length_a                   39.0134(19)
_cell_length_b                   9.6043(5)
_cell_length_c                   30.5304(15)
_cell_angle_alpha                90
_cell_angle_beta                 120.8860(10)
_cell_angle_gamma                90
_cell_volume                     9817.38
loop_
_atom_site_label
_atom_site_type_symbol
_atom_site_fract_x
_atom_site_fract_y
_atom_site_fract_z
C1 C -0.40058(18) 0.5314(6) 0.1303(2)
C2 C -0.40961(17) 1.0303(6) 0.1215(2)
C3 C -0.33331(17) 0.6205(6) 0.2587(2)
H1 H -0.3462 0.5361 0.2453
C4 C -0.30211(16) 0.6236(6) 0.3086(2)
H2 H -0.2938 0.5423 0.3279
C5 C -0.28338(17) 0.7487(5) 0.3297(2)
C6 C -0.29683(17) 0.8651(6) 0.2998(2)
H3 H -0.2854 0.9515 0.3129
C7 C -0.32778(17) 0.8525(6) 0.2496(2)
H4 H -0.3363 0.9323 0.2295
C8 C -0.24856(17) 0.7551(5) 0.3841(2)
C9 C -0.22465(18) 0.2380(6) 0.3584(2)
C10 C -0.24995(18) 0.2029(6) 0.3025(2)
C11 C -0.23810(18) 0.1054(6) 0.2807(2)
H5 H -0.2140 0.0590 0.3002
C12 C -0.26242(18) 0.0758(6) 0.2289(2)
H6 H -0.2535 0.0113 0.2142
C13 C -0.3096(2) 0.2275(6) 0.2217(2)
H7 H -0.3344 0.2690 0.2018
C14 C -0.28689(18) 0.2643(6) 0.2724(2)
H8 H -0.2963 0.3296 0.2862
C15 C -0.61328(18) 1.2730(6) -0.0293(3)
C16 C -0.56826(19) 1.2589(6) -0.0045(3)
C17 C -0.54423(18) 1.3728(7) 0.0083(3)
H9 H -0.5554 1.4608 -0.0024
C18 C -0.50310(19) 1.3572(7) 0.0372(3)
H10 H -0.4873 1.4365 0.0450
C19 C -0.50853(19) 1.1254(7) 0.0370(3)
H11 H -0.4967 1.0378 0.0444
C20 C -0.54995(19) 1.1327(7) 0.0081(3)
H12 H -0.5651 1.0515 -0.0025
C21 C -0.13766(18) 0.2486(6) 0.5564(2)
C22 C -0.10073(19) 0.2723(6) 0.6082(2)
C23 C -0.08048(18) 0.1618(6) 0.6397(2)
H13 H -0.0895 0.0713 0.6295
C24 C -0.04671(19) 0.1865(7) 0.6864(2)
H14 H -0.0331 0.1112 0.7072
C25 C -0.08677(18) 0.4061(6) 0.6257(2)
H15 H -0.1005 0.4831 0.6060
C26 C -0.05241(19) 0.4234(7) 0.6724(2)
H16 H -0.0425 0.5128 0.6833
C27 C -0.0093(2) 0.6857(7) 0.6137(3)
H17 H 0.0091 0.6134 0.6274
C28 C -0.04846(19) 0.6549(7) 0.5779(3)
H18 H -0.0561 0.5636 0.5672
C29 C -0.07617(19) 0.7611(6) 0.5580(3)
C30 C -0.11948(18) 0.7289(6) 0.5211(2)
C31 C -0.06348(19) 0.8896(6) 0.5770(2)
H19 H -0.0815 0.9632 0.5662
C32 C -0.02412(19) 0.9119(7) 0.6122(3)
H20 H -0.0164 1.0018 0.6248
C33 C 0.1561(3) 0.7829(8) 0.8895(3)
C34 C -0.42824(17) -0.0354(6) 0.2256(2)
C35 C -0.35705(17) 0.3188(6) 0.3234(2)
H21 H -0.3725 0.3950 0.3051
C36 C -0.32176(16) 0.3426(6) 0.3679(2)
H22 H -0.3143 0.4330 0.3801
C37 C -0.29726(17) 0.2313(6) 0.3948(2)
C38 C -0.31155(16) 0.0997(6) 0.3771(2)
H23 H -0.2967 0.0221 0.3951
C39 C -0.34794(16) 0.0828(6) 0.3326(2)
H24 H -0.3572 -0.0070 0.3215
C40 C -0.25577(17) 0.2556(6) 0.4380(2)
C41 C -0.43722(17) 0.3414(6) 0.2121(2)
C42 C 0.01712(18) 0.8122(7) 0.7615(2)
Cu1 Cu -0.39138(2) 0.72126(7) 0.14980(3)
Cu2 Cu -0.42288(2) 1.22213(7) 0.10858(3)
Cu3 Cu 0.07276(3) 0.79413(10) 0.79580(4)
Cu4 Cu -0.42260(2) 0.15811(7) 0.23222(3)
Cu5 Cu 0.05672(2) 0.84196(7) 0.69916(3)
Gd1 Gd -0.186149(8) 0.47275(3) 0.454001(9)
Gd2 Gd -0.184174(8) 1.00864(3) 0.461451(10)
N1 N -0.40619(15) 0.4142(6) 0.1209(2)
N2 N -0.40319(16) 0.9142(6) 0.12951(19)
N3 N -0.34601(15) 0.7327(5) 0.22857(18)
N4 N -0.29740(17) 0.1349(6) 0.19990(19)
N5 N -0.48496(15) 1.2355(5) 0.0544(2)
N6 N -0.03280(15) 0.3147(6) 0.70279(19)
N7 N -0.43012(17) -0.1540(6) 0.2218(2)
N8 N -0.37039(14) 0.1904(5) 0.30482(18)
N9 N -0.43904(16) 0.4589(7) 0.2084(2)
N10 N 0.1252(2) 0.7888(8) 0.8537(3)
N11 N 0.00322(15) 0.8162(5) 0.6293(2)
N12 N -0.01712(18) 0.8122(7) 0.7385(2)
O1 O -0.23157(12) 0.6440(4) 0.40408(15)
O2 O -0.23909(11) 0.8710(4) 0.40508(14)
O3 O -0.22408(12) 0.3607(4) 0.37150(14)
O4 O -0.20675(14) 0.1399(4) 0.38749(15)
O5 O -0.62571(12) 1.3949(4) -0.03310(16)
O6 O -0.63363(11) 1.1654(4) -0.04298(16)
O7 O -0.12780(11) 0.6056(4) 0.50674(15)
O8 O -0.14425(12) 0.8262(4) 0.50775(16)
O9 O -0.14557(12) 0.1256(4) 0.54225(15)
O10 O -0.15614(12) 0.3536(4) 0.53214(14)
O11 O -0.23386(12) 0.1522(4) 0.45770(16)
O12 O -0.24451(11) 0.3790(4) 0.44995(15)
O13 O -0.20877(12) 0.9166(4) 0.51712(15)
H25 H -0.1940 0.8792 0.5419
H26 H -0.2303 0.9659 0.5123
O14 O -0.16538(14) 0.8800(4) 0.40496(17)
H27 H -0.1602 0.7857 0.4085
H28 H -0.1393 0.9142 0.4208
O15 O -0.20229(12) 0.6052(4) 0.51122(15)
H29 H -0.2110 0.7083 0.5018
H30 H -0.1908 0.6458 0.5406
O16 O -0.16173(12) 0.5809(4) 0.40113(14)
H31 H -0.1734 0.6027 0.3686
H32 H -0.1452 0.5235 0.4025
Cu2_2 Cu -0.42288(2) 0.22213(7) 0.10858(3)
Cu3A Cu -0.07276(3) 0.79413(10) 0.70420(4)
Cu5G Cu -0.44328(2) -0.34196(7) 0.19916(3)
Cu5G_2 Cu -0.44328(2) 0.65804(7) 0.19916(3)
Gd1G Gd -0.686149(8) 1.02725(3) -0.045999(9)
Gd2_2 Gd -0.184174(8) 0.00864(3) 0.461451(10)
Gd2G Gd -0.684174(8) 1.49136(3) -0.038549(10)
N1_2 N -0.40619(15) 1.4142(6) 0.1209(2)
N7G N 0.06988(17) 0.6540(6) 0.7218(2)
N9G N 0.06096(16) 1.0411(7) 0.7084(2)
O4_2 O -0.20675(14) 1.1399(4) 0.38749(15)
O5G O -0.12571(12) 1.1051(4) 0.46690(16)
O6G O -0.13363(11) 0.3346(4) 0.45702(16)
O9_2 O -0.14557(12) 1.1256(4) 0.54225(15)
O11_2 O -0.23386(12) 1.1522(4) 0.45770(16)
loop_
_geom_bond_atom_site_label_1
_geom_bond_atom_site_label_2
_geom_bond_site_symmetry_1
_geom_bond_site_symmetry_2
C1 Cu1 1_555 1_555
C2 Cu2 1_555 1_555
C3 H1 1_555 1_555
C4 C3 1_555 1_555
H2 C4 1_555 1_555
C5 C4 1_555 1_555
C6 C5 1_555 1_555
H3 C6 1_555 1_555
C7 C6 1_555 1_555
H4 C7 1_555 1_555
C8 C5 1_555 1_555
C9 C10 1_555 1_555
C10 C11 1_555 1_555
C11 H5 1_555 1_555
C12 C11 1_555 1_555
H6 C12 1_555 1_555
C13 H7 1_555 1_555
C14 C10 1_555 1_555
H8 C14 1_555 1_555
C15 C16 1_555 1_555
C16 C17 1_555 1_555
C17 H9 1_555 1_555
C18 C17 1_555 1_555
H10 C18 1_555 1_555
C19 H11 1_555 1_555
C20 C16 1_555 1_555
H12 C20 1_555 1_555
C21 C22 1_555 1_555
C22 C23 1_555 1_555
C23 H13 1_555 1_555
C24 C23 1_555 1_555
H14 C24 1_555 1_555
C25 C22 1_555 1_555
H15 C25 1_555 1_555
C26 C25 1_555 1_555
H16 C26 1_555 1_555
C27 H17 1_555 1_555
C28 C27 1_555 1_555
H18 C28 1_555 1_555
C29 C28 1_555 1_555
C30 C29 1_555 1_555
C31 C29 1_555 1_555
H19 C31 1_555 1_555
C32 C31 1_555 1_555
H20 C32 1_555 1_555
C33 N10 1_555 1_555
C34 Cu4 1_555 1_555
C35 H21 1_555 1_555
C36 C35 1_555 1_555
H22 C36 1_555 1_555
C37 C36 1_555 1_555
C38 C37 1_555 1_555
H23 C38 1_555 1_555
C39 C38 1_555 1_555
H24 C39 1_555 1_555
C40 C37 1_555 1_555
C41 Cu4 1_555 1_555
C42 Cu3 1_555 1_555
Cu1 N2 1_555 1_555
Cu2 N5 1_555 1_555
Cu3 Cu5 1_555 1_555
Cu4 N8 1_555 1_555
Cu5 N11 1_555 1_555
Gd1 O1 1_555 1_555
Gd2 O2 1_555 1_555
N1 C1 1_555 1_555
N2 C2 1_555 1_555
N3 C3 1_555 1_555
N4 C12 1_555 1_555
N5 C18 1_555 1_555
N6 C24 1_555 1_555
N7 C34 1_555 1_555
N8 C35 1_555 1_555
N9 C41 1_555 1_555
N10 Cu3 1_555 1_555
N11 C27 1_555 1_555
N12 C42 1_555 1_555
O1 C8 1_555 1_555
O2 C8 1_555 1_555
O3 C9 1_555 1_555
O4 C9 1_555 1_555
O5 C15 1_555 1_555
O6 C15 1_555 1_555
O7 C30 1_555 1_555
O8 C30 1_555 1_555
O9 C21 1_555 1_555
O10 C21 1_555 1_555
O11 C40 1_555 1_555
O12 C40 1_555 1_555
O13 Gd2 1_555 1_555
H25 O13 1_555 1_555
H26 O13 1_555 1_555
O14 Gd2 1_555 1_555
H27 O14 1_555 1_555
H28 O14 1_555 1_555
O15 Gd1 1_555 1_555
H29 O15 1_555 1_555
H30 O15 1_555 1_555
O16 Gd1 1_555 1_555
H31 O16 1_555 1_555
H32 O16 1_555 1_555
Cu2_2 N1 1_555 1_555
Cu3A N12 1_555 1_555
Cu5G N7 1_555 1_555
Cu5G_2 N9 1_555 1_555
Gd1G O6 1_555 1_555
Gd2_2 O4 1_555 1_555
Gd2G O5 1_555 1_555
N1_2 Cu2 1_555 1_555
N7G Cu5 1_555 1_555
N9G Cu5 1_555 1_555
O4_2 Gd2 1_555 1_555
O5G Gd2 1_555 1_555
O6G Gd1 1_555 1_555
O9_2 Gd2 1_555 1_555
O11_2 Gd2 1_555 1_555
C7 N3 1_555 1_555
C13 C14 1_555 1_555
C13 N4 1_555 1_555
C19 C20 1_555 1_555
C19 N5 1_555 1_555
C26 N6 1_555 1_555
C32 N11 1_555 1_555
C39 N8 1_555 1_555
Cu1 N3 1_555 1_555
Gd1 O3 1_555 1_555
Gd1 O7 1_555 1_555
Gd1 O10 1_555 1_555
Gd1 O12 1_555 1_555
Gd2 O8 1_555 1_555
O9 Gd2_2 1_555 1_555
O11 Gd2_2 1_555 1_555

#END
