
#######################################################################
#
#                 Cambridge Crystallographic Data Centre
#                                CCDC 
#
#######################################################################
#
# If this CIF has been generated from an entry in the Cambridge 
# Structural Database, then it will include bibliographic, chemical, 
# crystal, experimental, refinement or atomic coordinate data resulting 
# from the CCDC's data processing and validation procedures.
#
#######################################################################

data_QUNQEW
_symmetry_cell_setting           monoclinic
_symmetry_space_group_name_H-M   'P 21/c'
_symmetry_Int_Tables_number      14
_space_group_name_Hall           '-P 2ybc'
loop_
_symmetry_equiv_pos_site_id
_symmetry_equiv_pos_as_xyz
1 x,y,z
2 -x,1/2+y,1/2-z
3 -x,-y,-z
4 x,1/2-y,1/2+z
_cell_length_a                   17.6646(17)
_cell_length_b                   9.5625(9)
_cell_length_c                   30.623(3)
_cell_angle_alpha                90
_cell_angle_beta                 107.761(4)
_cell_angle_gamma                90
_cell_volume                     4926.22
loop_
_atom_site_label
_atom_site_type_symbol
_atom_site_fract_x
_atom_site_fract_y
_atom_site_fract_z
C1 C 1.6933(4) -0.6171(8) -0.0741(3)
H1 H 1.7101 -0.7065 -0.0787
C2 C 1.6217(4) -0.6022(8) -0.0641(2)
H2 H 1.5910 -0.6802 -0.0630
C3 C 1.5971(4) -0.4706(8) -0.0560(3)
C4 C 1.6456(4) -0.3574(8) -0.0573(2)
H3 H 1.6319 -0.2675 -0.0509
C5 C 1.7147(4) -0.3817(8) -0.0681(2)
H4 H 1.7467 -0.3054 -0.0692
C6 C 1.5151(4) -0.4477(8) -0.0521(3)
C7 C 1.8734(4) -0.3523(8) -0.0994(3)
C8 C 1.2295(5) -0.4074(9) -0.1665(3)
C9 C 1.4590(4) -0.4370(8) -0.1607(3)
C10 C 0.7971(4) -0.7406(7) -0.2205(3)
C11 C 1.6776(4) -0.0527(8) -0.1560(3)
H5 H 1.7100 -0.1304 -0.1544
C12 C 1.6417(4) 0.1680(8) -0.1804(3)
H6 H 1.6494 0.2480 -0.1958
C13 C 1.0929(4) -0.2991(9) -0.1965(3)
H7 H 1.1161 -0.2121 -0.1972
C14 C 1.0117(4) -0.3100(9) -0.2074(3)
H8 H 0.9818 -0.2286 -0.2153
C15 C 1.1397(5) -0.4147(9) -0.1847(3)
C16 C 1.4907(4) -0.2558(8) -0.2114(3)
H9 H 1.4473 -0.2033 -0.2098
C17 C 1.5104(4) -0.3771(8) -0.1872(3)
C18 C 1.5792(4) -0.4443(8) -0.1879(3)
H10 H 1.5961 -0.5242 -0.1703
C19 C 1.6223(4) -0.3932(8) -0.2146(3)
H11 H 1.6688 -0.4393 -0.2144
C20 C 1.5365(4) -0.2118(8) -0.2387(3)
H12 H 1.5216 -0.1311 -0.2562
C21 C 1.2723(5) -0.4433(9) -0.0566(3)
C22 C 1.1996(5) -0.4606(9) -0.0408(3)
C23 C 1.1619(5) -0.5880(9) -0.0443(3)
H13 H 1.1819 -0.6659 -0.0552
C24 C 1.0180(5) -0.5417(9) -0.1995(3)
H14 H 0.9929 -0.6281 -0.2017
C25 C 1.1009(5) -0.5385(9) -0.1878(3)
H15 H 1.1296 -0.6216 -0.1821
C26 C 1.1687(5) -0.3521(9) -0.0231(3)
H16 H 1.1937 -0.2654 -0.0192
C27 C 1.1009(5) -0.3702(9) -0.0110(3)
H17 H 1.0802 -0.2942 0.0006
C28 C 2.0548(5) -1.1055(10) -0.1052(4)
H18 H 2.0424 -1.1872 -0.0924
C29 C 2.1342(5) -1.0795(10) -0.1004(4)
H19 H 2.1731 -1.1414 -0.0840
C30 C 2.0176(5) -0.9203(11) -0.1468(4)
H20 H 1.9773 -0.8642 -0.1651
C31 C 2.0946(5) -0.8858(11) -0.1438(4)
H21 H 2.1048 -0.8068 -0.1588
C32 C 2.1546(5) -0.9654(10) -0.1193(4)
C33 C 1.6185(4) -0.0595(8) -0.1350(3)
H22 H 1.6127 -0.1394 -0.1190
C34 C 1.5803(4) 0.1687(8) -0.1612(3)
H23 H 1.5477 0.2466 -0.1640
C35 C 2.2400(5) -0.9291(10) -0.1124(4)
C36 C 1.5686(4) 0.0519(7) -0.1379(3)
C37 C 1.5013(4) 0.0483(8) -0.1168(3)
C38 C 1.8562(5) -0.7275(8) -0.1010(3)
C39 C 0.8137(4) -0.1191(9) -0.2151(2)
C40 C 1.0939(5) -0.5982(10) -0.0311(3)
H24 H 1.0683 -0.6842 -0.0337
C41 C 1.6913(6) -0.9967(11) -0.0211(3)
Cu1 Cu 1.84304(6) -0.53681(10) -0.09702(4)
Cu2 Cu 1.88920(6) -1.03753(10) -0.11189(4)
Cu3 Cu 0.84938(5) -0.43497(10) -0.21805(4)
Cu4 Cu 1.78377(5) 0.06630(9) -0.20816(3)
Cu5 Cu 1.85608(7) -1.01232(16) -0.03062(5)
N1 N 1.7386(4) -0.5082(7) -0.0772(2)
N2 N 1.6901(3) 0.0610(6) -0.1784(2)
N3 N 0.9736(4) -0.4278(7) -0.2075(3)
N4 N 1.9971(4) -1.0245(7) -0.1263(3)
N5 N 1.6008(4) -0.2807(8) -0.2407(2)
N6 N 1.0638(4) -0.4909(9) -0.0151(2)
N7 N 0.8124(4) -0.6266(10) -0.2218(3)
N8 N 1.8625(4) -0.8428(10) -0.1046(3)
N9 N 0.8249(3) -0.2374(7) -0.2201(2)
N10 N 1.8788(4) -0.2345(9) -0.1017(2)
N11 N 2.0337(4) -0.9947(11) 0.0072(3)
C42 C 1.9663(4) -1.0053(11) -0.0072(3)
N12 N 1.7526(6) -1.0079(12) -0.0263(3)
Nd1 Nd 1.37908(2) -0.20076(4) -0.094748(13)
Nd2 Nd 1.36798(2) -0.66610(4) -0.116374(13)
O1 O 1.4968(3) -0.3260(5) -0.04287(16)
O2 O 1.4698(3) -0.5504(5) -0.05928(16)
O3 O 1.2952(3) -0.5504(7) -0.0716(2)
O4 O 1.2588(3) -0.2907(5) -0.15183(18)
O5 O 1.4527(3) -0.5660(5) -0.15987(17)
O6 O 1.4253(3) -0.3530(5) -0.14092(16)
O7 O 1.2666(3) -0.5184(6) -0.16664(19)
O8 O 1.3026(3) -0.3255(6) -0.0532(2)
O9 O 2.2526(3) -0.8128(6) -0.12638(19)
O10 O 2.2920(3) -1.0153(5) -0.09281(18)
O11 O 1.4604(3) 0.1541(5) -0.11994(18)
O12 O 1.4912(3) -0.0638(5) -0.09757(18)
O13 O 1.4209(3) -0.0959(6) -0.01525(18)
H25 H 1.3843 -0.0924 -0.0046
H26 H 1.4602 -0.1125 0.0062
O14 O 1.3430(3) -0.0768(5) -0.17500(17)
H27 H 1.3001 -0.1137 -0.1869
H28 H 1.3346 0.0068 -0.1782
O15 O 1.4029(3) -0.7914(6) -0.04008(17)
H29 H 1.4240 -0.7533 -0.0156
H30 H 1.3858 -0.8652 -0.0332
O16 O 1.3233(3) -0.7781(5) -0.19510(16)
H31 H 1.2817 -0.7365 -0.2076
H32 H 1.3480 -0.7724 -0.2139
C10_2 C 1.7971(4) 0.2594(7) -0.2205(3)
C39_2 C 1.8137(4) -0.1191(9) -0.2151(2)
Cu2_2 Cu 1.88920(6) -0.03753(10) -0.11189(4)
Cu4_2 Cu 0.78377(5) -0.93370(9) -0.20816(3)
Cu4_3 Cu 0.78377(5) 0.06630(9) -0.20816(3)
Cu5B Cu 2.14392(7) -0.98768(16) 0.03062(5)
N10_2 N 1.8788(4) -1.2345(9) -0.1017(2)
Nd1_2 Nd 2.37908(2) -1.20076(4) -0.094748(13)
Nd2_2 Nd 2.36798(2) -0.66610(4) -0.116374(13)
Nd2_3 Nd 1.36798(2) 0.33390(4) -0.116374(13)
O9_2 O 1.2526(3) -0.8128(6) -0.12638(19)
O10_2 O 1.2920(3) -0.0153(5) -0.09281(18)
O11_2 O 1.4604(3) -0.8459(5) -0.11994(18)
loop_
_geom_bond_atom_site_label_1
_geom_bond_atom_site_label_2
_geom_bond_site_symmetry_1
_geom_bond_site_symmetry_2
C1 H1 1_555 1_555
C2 C1 1_555 1_555
H2 C2 1_555 1_555
C3 C2 1_555 1_555
C4 C3 1_555 1_555
H3 C4 1_555 1_555
C5 C4 1_555 1_555
H4 C5 1_555 1_555
C6 C3 1_555 1_555
C7 Cu1 1_555 1_555
C8 C15 1_555 1_555
C9 C17 1_555 1_555
C10 N7 1_555 1_555
C11 H5 1_555 1_555
C12 H6 1_555 1_555
C13 H7 1_555 1_555
C14 C13 1_555 1_555
H8 C14 1_555 1_555
C15 C13 1_555 1_555
C16 H9 1_555 1_555
C17 C16 1_555 1_555
C18 C17 1_555 1_555
H10 C18 1_555 1_555
C19 C18 1_555 1_555
H11 C19 1_555 1_555
C20 C16 1_555 1_555
H12 C20 1_555 1_555
C21 C22 1_555 1_555
C22 C23 1_555 1_555
C23 H13 1_555 1_555
C24 H14 1_555 1_555
C25 C15 1_555 1_555
H15 C25 1_555 1_555
C26 C22 1_555 1_555
H16 C26 1_555 1_555
C27 C26 1_555 1_555
H17 C27 1_555 1_555
C28 H18 1_555 1_555
C29 C28 1_555 1_555
H19 C29 1_555 1_555
C30 H20 1_555 1_555
C31 C30 1_555 1_555
H21 C31 1_555 1_555
C32 C29 1_555 1_555
C33 C11 1_555 1_555
H22 C33 1_555 1_555
C34 C12 1_555 1_555
H23 C34 1_555 1_555
C35 C32 1_555 1_555
C36 C33 1_555 1_555
C37 C36 1_555 1_555
C38 Cu1 1_555 1_555
C39 N9 1_555 1_555
C40 C23 1_555 1_555
H24 C40 1_555 1_555
C41 N12 1_555 1_555
Cu1 N1 1_555 1_555
Cu2 Cu5 1_555 1_555
Cu3 N3 1_555 1_555
Cu4 N2 1_555 1_555
Cu5 C42 1_555 1_555
N1 C1 1_555 1_555
N2 C11 1_555 1_555
N3 C14 1_555 1_555
N4 C28 1_555 1_555
N5 C19 1_555 1_555
N6 C27 1_555 1_555
N7 Cu3 1_555 1_555
N8 C38 1_555 1_555
N9 Cu3 1_555 1_555
N10 C7 1_555 1_555
N11 C42 1_555 1_555
N12 Cu5 1_555 1_555
Nd1 O1 1_555 1_555
Nd2 O2 1_555 1_555
O1 C6 1_555 1_555
O2 C6 1_555 1_555
O3 C21 1_555 1_555
O4 C8 1_555 1_555
O5 C9 1_555 1_555
O6 C9 1_555 1_555
O7 C8 1_555 1_555
O8 C21 1_555 1_555
O9 C35 1_555 1_555
O10 C35 1_555 1_555
O11 C37 1_555 1_555
O12 C37 1_555 1_555
O13 Nd1 1_555 1_555
H25 O13 1_555 1_555
H26 O13 1_555 1_555
O14 Nd1 1_555 1_555
H27 O14 1_555 1_555
H28 O14 1_555 1_555
O15 Nd2 1_555 1_555
H29 O15 1_555 1_555
H30 O15 1_555 1_555
O16 Nd2 1_555 1_555
H31 O16 1_555 1_555
H32 O16 1_555 1_555
C10_2 Cu4 1_555 1_555
C39_2 Cu4 1_555 1_555
Cu2_2 N10 1_555 1_555
Cu4_2 C10 1_555 1_555
Cu4_3 C39 1_555 1_555
Cu5B N11 1_555 1_555
N10_2 Cu2 1_555 1_555
Nd1_2 O10 1_555 1_555
Nd2_2 O9 1_555 1_555
Nd2_3 O11 1_555 1_555
O9_2 Nd2 1_555 1_555
O10_2 Nd1 1_555 1_555
O11_2 Nd2 1_555 1_555
C5 N1 1_555 1_555
C12 N2 1_555 1_555
C20 N5 1_555 1_555
C24 C25 1_555 1_555
C24 N3 1_555 1_555
C30 N4 1_555 1_555
C31 C32 1_555 1_555
C34 C36 1_555 1_555
C40 N6 1_555 1_555
Cu2 N4 1_555 1_555
Cu2 N8 1_555 1_555
Nd1 O4 1_555 1_555
Nd1 O6 1_555 1_555
Nd1 O8 1_555 1_555
Nd1 O12 1_555 1_555
Nd2 O3 1_555 1_555
Nd2 O5 1_555 1_555
Nd2 O7 1_555 1_555

#END
