
#######################################################################
#
#                 Cambridge Crystallographic Data Centre
#                                CCDC 
#
#######################################################################
#
# If this CIF has been generated from an entry in the Cambridge 
# Structural Database, then it will include bibliographic, chemical, 
# crystal, experimental, refinement or atomic coordinate data resulting 
# from the CCDC's data processing and validation procedures.
#
#######################################################################

data_QUNQAS
_symmetry_cell_setting           monoclinic
_symmetry_space_group_name_H-M   'C 2/c'
_symmetry_Int_Tables_number      15
_space_group_name_Hall           '-C 2yn'
loop_
_symmetry_equiv_pos_site_id
_symmetry_equiv_pos_as_xyz
1 x,y,z
2 -x,y,1/2-z
3 1/2+x,1/2+y,z
4 1/2-x,1/2+y,1/2-z
5 -x,-y,-z
6 x,-y,1/2+z
7 1/2-x,1/2-y,-z
8 1/2+x,1/2-y,1/2+z
_cell_length_a                   39.020(2)
_cell_length_b                   9.6088(5)
_cell_length_c                   30.5665(15)
_cell_angle_alpha                90
_cell_angle_beta                 120.8200(10)
_cell_angle_gamma                90
_cell_volume                     9842.03
loop_
_atom_site_label
_atom_site_type_symbol
_atom_site_fract_x
_atom_site_fract_y
_atom_site_fract_z
C1 C -0.40093(19) 0.5296(6) 0.1300(2)
C2 C -0.40958(18) 1.0290(6) 0.1218(2)
C3 C -0.33329(18) 0.6194(6) 0.2581(2)
H1 H -0.3460 0.5349 0.2446
C4 C -0.30236(18) 0.6220(6) 0.3078(2)
H2 H -0.2939 0.5402 0.3267
C5 C -0.28381(19) 0.7476(6) 0.3295(2)
C6 C -0.29754(18) 0.8630(6) 0.2989(2)
H3 H -0.2860 0.9495 0.3115
C7 C -0.32859(19) 0.8504(6) 0.2491(2)
H4 H -0.3376 0.9305 0.2293
C8 C -0.24935(18) 0.7538(6) 0.3834(2)
C9 C -0.2253(2) 0.2371(7) 0.3581(2)
C10 C -0.2505(2) 0.2005(7) 0.3023(2)
C11 C -0.2384(2) 0.1022(7) 0.2810(2)
H5 H -0.2144 0.0553 0.3007
C12 C -0.2624(2) 0.0731(7) 0.2295(2)
H6 H -0.2534 0.0083 0.2151
C13 C -0.3096(2) 0.2239(7) 0.2214(3)
H7 H -0.3346 0.2644 0.2014
C14 C -0.2870(2) 0.2616(7) 0.2721(2)
H8 H -0.2965 0.3277 0.2856
C15 C -0.6126(2) 1.2754(7) -0.0293(3)
C16 C -0.5679(2) 1.2608(7) -0.0039(3)
C17 C -0.5438(2) 1.3738(7) 0.0088(3)
H9 H -0.5548 1.4621 -0.0018
C18 C -0.5026(2) 1.3565(7) 0.0380(3)
H10 H -0.4866 1.4354 0.0462
C19 C -0.5081(2) 1.1248(7) 0.0368(3)
H11 H -0.4963 1.0373 0.0436
C20 C -0.5494(2) 1.1334(7) 0.0085(3)
H12 H -0.5646 1.0525 -0.0022
C21 C -0.1371(2) 0.2461(7) 0.5569(2)
C22 C -0.1006(2) 0.2722(7) 0.6086(2)
C23 C -0.0801(2) 0.1631(7) 0.6404(2)
H13 H -0.0891 0.0726 0.6304
C24 C -0.0467(2) 0.1864(7) 0.6866(2)
H14 H -0.0333 0.1109 0.7075
C25 C -0.0866(2) 0.4035(7) 0.6254(2)
H15 H -0.0999 0.4801 0.6052
C26 C -0.0524(2) 0.4219(7) 0.6728(2)
H16 H -0.0431 0.5118 0.6839
C27 C -0.0091(2) 0.6854(7) 0.6136(3)
H17 H 0.0093 0.6130 0.6272
C28 C -0.0482(2) 0.6555(7) 0.5778(3)
H18 H -0.0557 0.5642 0.5671
C29 C -0.0760(2) 0.7601(7) 0.5580(3)
C30 C -0.1190(2) 0.7259(7) 0.5217(3)
C31 C -0.0635(2) 0.8889(7) 0.5773(3)
H19 H -0.0815 0.9625 0.5662
C32 C -0.0240(2) 0.9111(7) 0.6135(3)
H20 H -0.0165 0.9999 0.6273
C33 C 0.1559(3) 0.7837(9) 0.8885(3)
C34 C -0.42827(18) -0.0352(7) 0.2256(2)
C35 C -0.35744(19) 0.3178(7) 0.3228(2)
H21 H -0.3732 0.3935 0.3046
C36 C -0.32221(18) 0.3427(7) 0.3671(2)
H22 H -0.3147 0.4332 0.3789
C37 C -0.29775(19) 0.2313(6) 0.3941(2)
C38 C -0.31195(18) 0.0984(6) 0.3763(2)
H23 H -0.2972 0.0207 0.3941
C39 C -0.34824(18) 0.0832(7) 0.3318(2)
H24 H -0.3577 -0.0064 0.3206
C40 C -0.25636(19) 0.2559(6) 0.4380(2)
C41 C -0.43713(19) 0.3418(6) 0.2121(2)
C42 C 0.01678(19) 0.8124(7) 0.7614(3)
Cu1 Cu -0.39160(2) 0.71936(8) 0.14948(3)
Cu2 Cu -0.42285(2) 1.22028(8) 0.10884(3)
Cu3 Cu 0.07261(3) 0.79439(11) 0.79564(4)
Cu4 Cu -0.42272(3) 0.15775(8) 0.23193(3)
Cu5 Cu 0.05665(2) 0.84211(8) 0.69913(3)
Sm1 Sm -0.186437(9) 0.47079(3) 0.454025(11)
Sm2 Sm -0.184206(9) 1.00724(3) 0.461404(11)
N1 N -0.40617(16) 0.4123(6) 0.1209(2)
N2 N -0.40331(17) 0.9130(6) 0.1293(2)
N3 N -0.34616(15) 0.7314(5) 0.22808(19)
N4 N -0.29704(18) 0.1316(6) 0.2001(2)
N5 N -0.48491(17) 1.2357(5) 0.0545(2)
N6 N -0.03248(16) 0.3157(6) 0.70290(19)
N7 N -0.42982(18) -0.1542(7) 0.2219(2)
N8 N -0.37028(15) 0.1903(5) 0.3044(2)
N9 N -0.43897(17) 0.4592(7) 0.2083(2)
N10 N 0.1250(3) 0.7879(8) 0.8535(3)
N11 N 0.00331(16) 0.8156(6) 0.6295(2)
N12 N -0.01678(19) 0.8124(7) 0.7386(3)
O1 O -0.23223(13) 0.6436(4) 0.40361(15)
O2 O -0.23994(12) 0.8706(4) 0.40436(15)
O3 O -0.22520(13) 0.3598(4) 0.37062(15)
O4 O -0.20643(15) 0.1397(5) 0.38728(17)
O5 O -0.62515(13) 1.3972(5) -0.03267(17)
O6 O -0.63328(13) 1.1678(4) -0.04255(17)
O7 O -0.12727(12) 0.6031(4) 0.50743(15)
O8 O -0.14415(13) 0.8210(4) 0.50818(17)
O9 O -0.14520(13) 0.1235(5) 0.54330(16)
O10 O -0.15606(13) 0.3508(5) 0.53254(16)
O11 O -0.23447(14) 0.1534(5) 0.45722(17)
O12 O -0.24544(12) 0.3791(4) 0.45002(16)
O13 O -0.20912(13) 0.9166(5) 0.51764(16)
H25 H -0.1944 0.8793 0.5424
H26 H -0.2307 0.9660 0.5128
O14 O -0.16534(15) 0.8754(5) 0.40498(19)
H27 H -0.1602 0.7812 0.4086
H28 H -0.1393 0.9097 0.4209
O15 O -0.20217(13) 0.6041(4) 0.51233(16)
H29 H -0.2109 0.7073 0.5029
H30 H -0.1907 0.6448 0.5417
O16 O -0.16185(13) 0.5796(4) 0.40080(15)
H31 H -0.1735 0.6014 0.3682
H32 H -0.1453 0.5222 0.4021
Cu2_2 Cu -0.42285(2) 0.22028(8) 0.10884(3)
Cu3A Cu -0.07261(3) 0.79439(11) 0.70436(4)
Cu5G Cu -0.44335(2) -0.34211(8) 0.19913(3)
Cu5G_2 Cu -0.44335(2) 0.65789(8) 0.19913(3)
Sm1G Sm -0.686437(9) 1.02921(3) -0.045975(11)
Sm2_2 Sm -0.184206(9) 0.00724(3) 0.461404(11)
Sm2G Sm -0.684206(9) 1.49276(3) -0.038596(11)
N1_2 N -0.40617(16) 1.4123(6) 0.1209(2)
N7G N 0.07018(18) 0.6542(7) 0.7219(2)
N9G N 0.06103(17) 1.0408(7) 0.7083(2)
O4_2 O -0.20643(15) 1.1397(5) 0.38728(17)
O5G O -0.12515(13) 1.1028(5) 0.46733(17)
O6G O -0.13328(13) 0.3322(4) 0.45745(17)
O9_2 O -0.14520(13) 1.1235(5) 0.54330(16)
O11_2 O -0.23447(14) 1.1534(5) 0.45722(17)
loop_
_geom_bond_atom_site_label_1
_geom_bond_atom_site_label_2
_geom_bond_site_symmetry_1
_geom_bond_site_symmetry_2
C1 Cu1 1_555 1_555
C2 Cu2 1_555 1_555
C3 H1 1_555 1_555
C4 C3 1_555 1_555
H2 C4 1_555 1_555
C5 C4 1_555 1_555
C6 C5 1_555 1_555
H3 C6 1_555 1_555
C7 C6 1_555 1_555
H4 C7 1_555 1_555
C8 C5 1_555 1_555
C9 C10 1_555 1_555
C10 C11 1_555 1_555
C11 H5 1_555 1_555
C12 C11 1_555 1_555
H6 C12 1_555 1_555
C13 H7 1_555 1_555
C14 C10 1_555 1_555
H8 C14 1_555 1_555
C15 C16 1_555 1_555
C16 C17 1_555 1_555
C17 H9 1_555 1_555
C18 C17 1_555 1_555
H10 C18 1_555 1_555
C19 H11 1_555 1_555
C20 C16 1_555 1_555
H12 C20 1_555 1_555
C21 C22 1_555 1_555
C22 C23 1_555 1_555
C23 H13 1_555 1_555
C24 C23 1_555 1_555
H14 C24 1_555 1_555
C25 C22 1_555 1_555
H15 C25 1_555 1_555
C26 C25 1_555 1_555
H16 C26 1_555 1_555
C27 H17 1_555 1_555
C28 C27 1_555 1_555
H18 C28 1_555 1_555
C29 C28 1_555 1_555
C30 C29 1_555 1_555
C31 C29 1_555 1_555
H19 C31 1_555 1_555
C32 C31 1_555 1_555
H20 C32 1_555 1_555
C33 N10 1_555 1_555
C34 Cu4 1_555 1_555
C35 H21 1_555 1_555
C36 C35 1_555 1_555
H22 C36 1_555 1_555
C37 C36 1_555 1_555
C38 C37 1_555 1_555
H23 C38 1_555 1_555
C39 C38 1_555 1_555
H24 C39 1_555 1_555
C40 C37 1_555 1_555
C41 Cu4 1_555 1_555
C42 Cu3 1_555 1_555
Cu1 N2 1_555 1_555
Cu2 N5 1_555 1_555
Cu3 Cu5 1_555 1_555
Cu4 N8 1_555 1_555
Cu5 N11 1_555 1_555
Sm1 O1 1_555 1_555
Sm2 O2 1_555 1_555
N1 C1 1_555 1_555
N2 C2 1_555 1_555
N3 C3 1_555 1_555
N4 C12 1_555 1_555
N5 C18 1_555 1_555
N6 C24 1_555 1_555
N7 C34 1_555 1_555
N8 C35 1_555 1_555
N9 C41 1_555 1_555
N10 Cu3 1_555 1_555
N11 C27 1_555 1_555
N12 C42 1_555 1_555
O1 C8 1_555 1_555
O2 C8 1_555 1_555
O3 C9 1_555 1_555
O4 C9 1_555 1_555
O5 C15 1_555 1_555
O6 C15 1_555 1_555
O7 C30 1_555 1_555
O8 C30 1_555 1_555
O9 C21 1_555 1_555
O10 C21 1_555 1_555
O11 C40 1_555 1_555
O12 C40 1_555 1_555
O13 Sm2 1_555 1_555
H25 O13 1_555 1_555
H26 O13 1_555 1_555
O14 Sm2 1_555 1_555
H27 O14 1_555 1_555
H28 O14 1_555 1_555
O15 Sm1 1_555 1_555
H29 O15 1_555 1_555
H30 O15 1_555 1_555
O16 Sm1 1_555 1_555
H31 O16 1_555 1_555
H32 O16 1_555 1_555
Cu2_2 N1 1_555 1_555
Cu3A N12 1_555 1_555
Cu5G N7 1_555 1_555
Cu5G_2 N9 1_555 1_555
Sm1G O6 1_555 1_555
Sm2_2 O4 1_555 1_555
Sm2G O5 1_555 1_555
N1_2 Cu2 1_555 1_555
N7G Cu5 1_555 1_555
N9G Cu5 1_555 1_555
O4_2 Sm2 1_555 1_555
O5G Sm2 1_555 1_555
O6G Sm1 1_555 1_555
O9_2 Sm2 1_555 1_555
O11_2 Sm2 1_555 1_555
C7 N3 1_555 1_555
C13 C14 1_555 1_555
C13 N4 1_555 1_555
C19 C20 1_555 1_555
C19 N5 1_555 1_555
C26 N6 1_555 1_555
C32 N11 1_555 1_555
C39 N8 1_555 1_555
Cu1 N3 1_555 1_555
Sm1 O3 1_555 1_555
Sm1 O7 1_555 1_555
Sm1 O10 1_555 1_555
Sm1 O12 1_555 1_555
Sm2 O8 1_555 1_555
O9 Sm2_2 1_555 1_555
O11 Sm2_2 1_555 1_555

#END
