
#######################################################################
#
#                 Cambridge Crystallographic Data Centre
#                                CCDC 
#
#######################################################################
#
# If this CIF has been generated from an entry in the Cambridge 
# Structural Database, then it will include bibliographic, chemical, 
# crystal, experimental, refinement or atomic coordinate data resulting 
# from the CCDC's data processing and validation procedures.
#
#######################################################################

data_QUNVUS
_symmetry_cell_setting           monoclinic
_symmetry_space_group_name_H-M   'C 2/m'
_symmetry_Int_Tables_number      12
_space_group_name_Hall           '-C 2y'
loop_
_symmetry_equiv_pos_site_id
_symmetry_equiv_pos_as_xyz
1 x,y,z
2 1/2+x,1/2+y,z
3 -x,y,-z
4 1/2-x,1/2+y,-z
5 -x,-y,-z
6 1/2-x,1/2-y,-z
7 x,-y,z
8 1/2+x,1/2-y,z
_cell_length_a                   17.128(8)
_cell_length_b                   35.003(16)
_cell_length_c                   11.620(5)
_cell_angle_alpha                90
_cell_angle_beta                 119.498(6)
_cell_angle_gamma                90
_cell_volume                     6063.5
loop_
_atom_site_label
_atom_site_type_symbol
_atom_site_fract_x
_atom_site_fract_y
_atom_site_fract_z
C1 C 1.1167(4) 0.2429(2) -0.2796(7)
C2 C 1.0271(5) 0.2379(2) -0.2808(7)
C3 C 1.0124(4) 0.2666(2) -0.2122(7)
C4 C 1.0882(5) 0.2960(2) -0.1493(7)
C5 C 1.1738(4) 0.2729(2) -0.0636(7)
C6 C 1.2356(4) 0.2804(2) 0.0696(7)
C7 C 1.1887(4) 0.2436(2) -0.1322(6)
C8 C 0.9633(5) 0.2087(2) -0.3476(8)
C9 C 0.8822(5) 0.2102(3) -0.3392(8)
C10 C 0.8694(5) 0.2378(3) -0.2687(8)
C11 C 0.9326(5) 0.2661(3) -0.2040(8)
C12 C 1.1167(4) 0.2825(2) -0.3310(7)
C13 C 1.1018(4) 0.3118(2) -0.2602(7)
C14 C 1.1020(5) 0.3497(2) -0.2917(8)
C15 C 1.1162(5) 0.3596(3) -0.3964(9)
C16 C 1.1297(5) 0.3312(3) -0.4678(8)
C17 C 1.1300(4) 0.2927(3) -0.4364(7)
C18 C 1.2228(4) 0.3118(2) 0.1385(7)
C19 C 1.2113(5) 0.3381(2) 0.1950(8)
C20 C 1.1828(6) 0.3686(2) 0.2524(8)
C21 C 1.2369(6) 0.3846(2) 0.3782(8)
C22 C 1.1997(6) 0.4117(2) 0.4269(9)
C23 C 1.1097(6) 0.4225(2) 0.3554(9)
C24 C 1.0554(7) 0.4074(3) 0.2289(10)
C25 C 1.0917(6) 0.3806(3) 0.1772(10)
C26 C 1.0686(8) 0.4495(2) 0.4117(11)
Zn1 Zn 0.91393(10) 0.5000 0.37062(14)
O1 O 0.9866(5) 0.45975(18) 0.3348(7)
O2 O 0.7961(9) 0.500000(10) 0.2017(13)
H1 H 1.2362 0.4227 0.5113
H2 H 1.2984 0.3774 0.4293
H3 H 1.1285 0.2226 -0.3284
H4 H 1.0763 0.3161 -0.0999
H5 H 0.9749 0.1891 -0.3940
H6 H 0.8372 0.1919 -0.3837
H7 H 0.8169 0.2375 -0.2632
H8 H 0.9235 0.2853 -0.1537
H9 H 1.0920 0.3692 -0.2424
H10 H 1.1170 0.3855 -0.4182
H11 H 1.1374 0.3379 -0.5399
H12 H 1.1412 0.2736 -0.4838
H13 H 1.0549 0.3704 0.0909
H14 H 0.9941 0.4154 0.1767
H15 H 0.7636 0.4776 0.1979
O3 O 1.1175(5) 0.46001(16) 0.5274(7)
C1E C 1.3833(4) 0.2571(2) 0.2796(7)
C2E C 1.4729(5) 0.2621(2) 0.2808(7)
C3E C 1.4876(4) 0.2334(2) 0.2122(7)
C4E C 1.4118(5) 0.2040(2) 0.1493(7)
C5E C 1.3262(4) 0.2271(2) 0.0636(7)
C6E C 1.2644(4) 0.2196(2) -0.0696(7)
C7E C 1.3113(4) 0.2564(2) 0.1322(6)
C8E C 1.5367(5) 0.2913(2) 0.3476(8)
C9E C 1.6178(5) 0.2898(3) 0.3392(8)
C10E C 1.6306(5) 0.2622(3) 0.2687(8)
C11E C 1.5674(5) 0.2339(3) 0.2040(8)
C12E C 1.3833(4) 0.2175(2) 0.3310(7)
C13E C 1.3982(4) 0.1882(2) 0.2602(7)
C14E C 1.3980(5) 0.1503(2) 0.2917(8)
C15E C 1.3838(5) 0.1404(3) 0.3964(9)
C16E C 1.3703(5) 0.1688(3) 0.4678(8)
C17E C 1.3700(4) 0.2073(3) 0.4364(7)
C18E C 1.2772(4) 0.1882(2) -0.1385(7)
C19E C 1.2887(5) 0.1619(2) -0.1950(8)
C20E C 1.3172(6) 0.1314(2) -0.2524(8)
C21E C 1.2631(6) 0.1154(2) -0.3782(8)
C22E C 1.3003(6) 0.0883(2) -0.4269(9)
C23E C 1.3903(6) 0.0775(2) -0.3554(9)
C24E C 1.4446(7) 0.0926(3) -0.2289(10)
C25E C 1.4083(6) 0.1194(3) -0.1772(10)
C26E C 1.4314(8) 0.0505(2) -0.4117(11)
O1E O 1.5134(5) 0.04025(18) -0.3348(7)
H1E H 1.2638 0.0773 -0.5113
H2E H 1.2016 0.1226 -0.4293
H3E H 1.3715 0.2774 0.3284
H4E H 1.4237 0.1839 0.0999
H5E H 1.5251 0.3109 0.3940
H6E H 1.6628 0.3081 0.3837
H7E H 1.6831 0.2625 0.2632
H8E H 1.5765 0.2147 0.1537
H9E H 1.4080 0.1308 0.2424
H10E H 1.3830 0.1145 0.4182
H11E H 1.3626 0.1621 0.5399
H12E H 1.3588 0.2264 0.4838
H13E H 1.4451 0.1296 -0.0909
H14E H 1.5059 0.0846 -0.1767
O3E O 1.3825(5) 0.03999(16) -0.5274(7)
H15F H 0.7636 0.5224 0.1979
Zn1D Zn 1.08607(10) 0.5000 0.62938(14)
Zn1A Zn 1.41393(10) 0.0000 -0.62938(14)
Zn1E Zn 1.58607(10) 0.0000 -0.37062(14)
O1F O 0.9866(5) 0.54025(18) 0.3348(7)
O3D O 0.8825(5) 0.53999(16) 0.4726(7)
O3B O 0.8825(5) 0.46001(16) 0.4726(7)
loop_
_geom_bond_atom_site_label_1
_geom_bond_atom_site_label_2
_geom_bond_site_symmetry_1
_geom_bond_site_symmetry_2
C1 C2 1_555 1_555
C2 C3 1_555 1_555
C3 C4 1_555 1_555
C4 C5 1_555 1_555
C5 C6 1_555 1_555
C6 C18 1_555 1_555
C7 C1 1_555 1_555
C8 C2 1_555 1_555
C9 C8 1_555 1_555
C10 C9 1_555 1_555
C11 C3 1_555 1_555
C12 C1 1_555 1_555
C13 C4 1_555 1_555
C14 C13 1_555 1_555
C15 C14 1_555 1_555
C16 C15 1_555 1_555
C17 C12 1_555 1_555
C18 C19 1_555 1_555
C19 C20 1_555 1_555
C20 C21 1_555 1_555
C21 C22 1_555 1_555
C22 C23 1_555 1_555
C23 C24 1_555 1_555
C24 C25 1_555 1_555
C25 C20 1_555 1_555
C26 C23 1_555 1_555
Zn1 O1 1_555 1_555
O1 C26 1_555 1_555
O2 Zn1 1_555 1_555
H1 C22 1_555 1_555
H2 C21 1_555 1_555
H3 C1 1_555 1_555
H4 C4 1_555 1_555
H5 C8 1_555 1_555
H6 C9 1_555 1_555
H7 C10 1_555 1_555
H8 C11 1_555 1_555
H9 C14 1_555 1_555
H10 C15 1_555 1_555
H11 C16 1_555 1_555
H12 C17 1_555 1_555
H13 C25 1_555 1_555
H14 C24 1_555 1_555
H15 O2 1_555 1_555
O3 C26 1_555 1_555
C1E C2E 1_555 1_555
C2E C3E 1_555 1_555
C3E C4E 1_555 1_555
C4E C5E 1_555 1_555
C5E C6E 1_555 1_555
C6E C7 1_555 1_555
C7E C6 1_555 1_555
C8E C2E 1_555 1_555
C9E C8E 1_555 1_555
C10E C9E 1_555 1_555
C11E C3E 1_555 1_555
C12E C1E 1_555 1_555
C13E C4E 1_555 1_555
C14E C13E 1_555 1_555
C15E C14E 1_555 1_555
C16E C15E 1_555 1_555
C17E C12E 1_555 1_555
C18E C6E 1_555 1_555
C19E C18E 1_555 1_555
C20E C19E 1_555 1_555
C21E C20E 1_555 1_555
C22E C21E 1_555 1_555
C23E C22E 1_555 1_555
C24E C23E 1_555 1_555
C25E C20E 1_555 1_555
C26E C23E 1_555 1_555
O1E C26E 1_555 1_555
H1E C22E 1_555 1_555
H2E C21E 1_555 1_555
H3E C1E 1_555 1_555
H4E C4E 1_555 1_555
H5E C8E 1_555 1_555
H6E C9E 1_555 1_555
H7E C10E 1_555 1_555
H8E C11E 1_555 1_555
H9E C14E 1_555 1_555
H10E C15E 1_555 1_555
H11E C16E 1_555 1_555
H12E C17E 1_555 1_555
H13E C25E 1_555 1_555
H14E C24E 1_555 1_555
O3E C26E 1_555 1_555
H15F O2 1_555 1_555
Zn1D O3 1_555 1_555
Zn1A O3E 1_555 1_555
Zn1E O1E 1_555 1_555
O1F Zn1 1_555 1_555
O3D Zn1 1_555 1_555
O3B Zn1 1_555 1_555
C5 C7 1_555 1_555
C10 C11 1_555 1_555
C12 C13 1_555 1_555
C16 C17 1_555 1_555
C1E C7E 1_555 1_555
C5E C7E 1_555 1_555
C10E C11E 1_555 1_555
C12E C13E 1_555 1_555
C16E C17E 1_555 1_555
C24E C25E 1_555 1_555

#END
