
#######################################################################
#
#                 Cambridge Crystallographic Data Centre
#                                CCDC 
#
#######################################################################
#
# If this CIF has been generated from an entry in the Cambridge 
# Structural Database, then it will include bibliographic, chemical, 
# crystal, experimental, refinement or atomic coordinate data resulting 
# from the CCDC's data processing and validation procedures.
#
#######################################################################

data_QUNVOM
_symmetry_cell_setting           monoclinic
_symmetry_space_group_name_H-M   'P 21/n'
_symmetry_Int_Tables_number      14
_space_group_name_Hall           '-P 2yn'
loop_
_symmetry_equiv_pos_site_id
_symmetry_equiv_pos_as_xyz
1 x,y,z
2 1/2-x,1/2+y,1/2-z
3 -x,-y,-z
4 1/2+x,1/2-y,1/2+z
_cell_length_a                   11.5165(9)
_cell_length_b                   33.108(3)
_cell_length_c                   15.3490(14)
_cell_angle_alpha                90
_cell_angle_beta                 103.074(6)
_cell_angle_gamma                90
_cell_volume                     5700.69
loop_
_atom_site_label
_atom_site_type_symbol
_atom_site_fract_x
_atom_site_fract_y
_atom_site_fract_z
C1 C 0.0776(5) 0.62012(17) -0.1254(5)
C2 C 0.1718(5) 0.59277(18) -0.1158(5)
C3 C 0.2133(5) 0.57465(16) -0.0346(4)
C4 C 0.1647(5) 0.58352(19) 0.0386(4)
C5 C 0.0738(5) 0.61209(19) 0.0270(5)
C6 C 0.3197(5) 0.54678(18) -0.0188(4)
C7 C -0.4539(5) 0.82140(18) -0.1461(4)
C8 C -0.5222(5) 0.84828(18) -0.1693(4)
C9 C -0.6062(5) 0.87738(18) -0.2160(4)
C10 C -0.6252(5) 0.87894(18) -0.3079(4)
C11 C -0.7097(5) 0.90431(18) -0.3599(5)
C12 C -0.7747(5) 0.92941(17) -0.3182(4)
C13 C -0.7569(5) 0.92861(18) -0.2262(5)
C14 C -0.6724(5) 0.90235(19) -0.1738(5)
C15 C -0.8690(5) 0.95592(18) -0.3733(5)
C16 C -0.4354(5) 0.76921(18) 0.0234(4)
C17 C -0.4962(5) 0.72892(18) 0.0214(4)
C18 C -0.4153(5) 0.69675(17) 0.0374(4)
C19 C -0.2881(5) 0.71029(17) 0.0555(4)
C20 C -0.2791(5) 0.73399(16) -0.0279(4)
C21 C -0.2046(5) 0.72391(16) -0.0852(4)
C22 C -0.2117(4) 0.74773(17) -0.1619(4)
C23 C -0.1372(5) 0.74255(18) -0.2315(4)
C24 C -0.2273(5) 0.73555(17) -0.3190(4)
C25 C -0.3120(5) 0.76602(18) -0.3395(4)
C26 C -0.2928(5) 0.79953(18) -0.2698(4)
C27 C -0.2943(5) 0.77896(16) -0.1810(4)
C28 C -0.3680(5) 0.78872(16) -0.1235(4)
C29 C -0.3582(5) 0.76543(17) -0.0463(4)
C30 C -0.6169(6) 0.7212(2) 0.0050(4)
C31 C -0.6555(6) 0.6812(2) 0.0043(4)
C32 C -0.5766(7) 0.6495(2) 0.0187(5)
C33 C -0.4552(6) 0.6572(2) 0.0361(4)
C34 C -0.2308(5) 0.70241(19) -0.3735(4)
C35 C -0.3225(6) 0.6998(2) -0.4511(4)
C36 C -0.4062(6) 0.7294(2) -0.4705(4)
C37 C -0.4019(6) 0.7627(2) -0.4139(4)
C38 C -0.3495(5) 0.77259(17) 0.1136(4)
C39 C -0.2696(5) 0.74088(17) 0.1306(4)
C40 C -0.1833(5) 0.73914(19) 0.2099(4)
C41 C -0.1807(6) 0.7699(2) 0.2726(5)
C42 C -0.2607(6) 0.8012(2) 0.2561(5)
C43 C -0.3463(5) 0.80298(19) 0.1775(4)
C44 C -0.1653(5) 0.81521(18) -0.2592(4)
C45 C -0.0816(6) 0.78437(19) -0.2391(4)
C46 C 0.0381(6) 0.7935(2) -0.2247(4)
C47 C 0.0726(6) 0.8337(2) -0.2318(5)
C48 C -0.0128(7) 0.8632(2) -0.2516(5)
C49 C -0.1310(6) 0.8547(2) -0.2658(4)
C50 C -0.1276(5) 0.68916(18) -0.0710(4)
C51 C -0.0600(5) 0.66160(19) -0.0644(4)
C52 C 0.0295(5) 0.63078(17) -0.0543(4)
Zn1 Zn 0.46553(6) 0.48261(2) 0.07945(5)
O1 O 0.3389(3) 0.52462(12) 0.0486(3)
O2 O 0.3828(3) 0.54811(11) -0.0779(3)
O3 O -0.9282(3) 0.97845(12) -0.3328(3)
O4 O -0.8825(3) 0.95347(12) -0.4584(3)
O5 O 0.3994(3) 0.44435(12) 0.1556(3)
C53 C 0.4356(5) 0.40859(19) 0.1672(4)
N1 N 0.3926(5) 0.38131(16) 0.2113(4)
C54 C 0.2923(7) 0.3913(3) 0.2519(6)
C55 C 0.4384(7) 0.3410(2) 0.2258(6)
H1 H 0.0457 0.6316 -0.1820
H2 H 0.2066 0.5866 -0.1640
H3 H 0.1937 0.5710 0.0940
H4 H 0.0406 0.6184 0.0753
H5 H -0.5797 0.8615 -0.3355
H6 H -0.7214 0.9047 -0.4227
H7 H -0.8027 0.9460 -0.1985
H8 H -0.6605 0.9014 -0.1105
H9 H -0.4914 0.7921 0.0112
H10 H -0.2325 0.6872 0.0679
H11 H -0.0778 0.7208 -0.2166
H12 H -0.3546 0.8200 -0.2859
H13 H -0.6713 0.7430 -0.0073
H14 H -0.7375 0.6759 -0.0059
H15 H -0.6047 0.6228 0.0167
H16 H -0.4013 0.6358 0.0474
H17 H -0.1735 0.6817 -0.3591
H18 H -0.3260 0.6773 -0.4879
H19 H -0.4674 0.7274 -0.5218
H20 H -0.4611 0.7830 -0.4267
H21 H -0.1296 0.7172 0.2205
H22 H -0.1229 0.7694 0.3275
H23 H -0.2562 0.8218 0.2994
H24 H -0.4023 0.8242 0.1657
H25 H 0.0953 0.7725 -0.2102
H26 H 0.1523 0.8402 -0.2224
H27 H 0.0106 0.8901 -0.2557
H28 H -0.1896 0.8751 -0.2797
H29 H 0.4984 0.4004 0.1419
H30 H 0.2299 0.3718 0.2327
H31 H 0.3201 0.3901 0.3160
H32 H 0.2641 0.4182 0.2337
H33 H 0.3745 0.3215 0.2092
H34 H 0.4755 0.3377 0.2887
H35 H 0.4973 0.3364 0.1911
Zn1B Zn 0.53447(6) 0.51739(2) -0.07945(5)
Zn1C Zn -1.03447(6) 1.01739(2) -0.42055(5)
Zn1A Zn -0.96553(6) 0.98261(2) -0.57945(5)
O2B O 0.6172(3) 0.45189(11) 0.0779(3)
O3C O 0.5718(3) 0.52155(12) 0.1672(3)
O4A O 0.3825(3) 0.45347(12) -0.0416(3)
loop_
_geom_bond_atom_site_label_1
_geom_bond_atom_site_label_2
_geom_bond_site_symmetry_1
_geom_bond_site_symmetry_2
C1 C2 1_555 1_555
C2 C3 1_555 1_555
C3 C4 1_555 1_555
C4 C5 1_555 1_555
C5 C52 1_555 1_555
C6 C3 1_555 1_555
C7 C8 1_555 1_555
C8 C9 1_555 1_555
C9 C10 1_555 1_555
C10 C11 1_555 1_555
C11 C12 1_555 1_555
C12 C13 1_555 1_555
C13 C14 1_555 1_555
C14 C9 1_555 1_555
C15 C12 1_555 1_555
C16 C17 1_555 1_555
C17 C18 1_555 1_555
C18 C19 1_555 1_555
C19 C20 1_555 1_555
C20 C21 1_555 1_555
C21 C22 1_555 1_555
C22 C23 1_555 1_555
C23 C24 1_555 1_555
C24 C25 1_555 1_555
C25 C26 1_555 1_555
C26 C27 1_555 1_555
C27 C22 1_555 1_555
C28 C7 1_555 1_555
C29 C16 1_555 1_555
C30 C17 1_555 1_555
C31 C30 1_555 1_555
C32 C31 1_555 1_555
C33 C18 1_555 1_555
C34 C24 1_555 1_555
C35 C34 1_555 1_555
C36 C35 1_555 1_555
C37 C25 1_555 1_555
C38 C16 1_555 1_555
C39 C19 1_555 1_555
C40 C39 1_555 1_555
C41 C40 1_555 1_555
C42 C41 1_555 1_555
C43 C38 1_555 1_555
C44 C26 1_555 1_555
C45 C23 1_555 1_555
C46 C45 1_555 1_555
C47 C46 1_555 1_555
C48 C47 1_555 1_555
C49 C44 1_555 1_555
C50 C21 1_555 1_555
C51 C50 1_555 1_555
C52 C1 1_555 1_555
Zn1 O1 1_555 1_555
O1 C6 1_555 1_555
O2 C6 1_555 1_555
O3 C15 1_555 1_555
O4 C15 1_555 1_555
O5 Zn1 1_555 1_555
C53 O5 1_555 1_555
N1 C53 1_555 1_555
C54 N1 1_555 1_555
C55 N1 1_555 1_555
H1 C1 1_555 1_555
H2 C2 1_555 1_555
H3 C4 1_555 1_555
H4 C5 1_555 1_555
H5 C10 1_555 1_555
H6 C11 1_555 1_555
H7 C13 1_555 1_555
H8 C14 1_555 1_555
H9 C16 1_555 1_555
H10 C19 1_555 1_555
H11 C23 1_555 1_555
H12 C26 1_555 1_555
H13 C30 1_555 1_555
H14 C31 1_555 1_555
H15 C32 1_555 1_555
H16 C33 1_555 1_555
H17 C34 1_555 1_555
H18 C35 1_555 1_555
H19 C36 1_555 1_555
H20 C37 1_555 1_555
H21 C40 1_555 1_555
H22 C41 1_555 1_555
H23 C42 1_555 1_555
H24 C43 1_555 1_555
H25 C46 1_555 1_555
H26 C47 1_555 1_555
H27 C48 1_555 1_555
H28 C49 1_555 1_555
H29 C53 1_555 1_555
H30 C54 1_555 1_555
H31 C54 1_555 1_555
H32 C54 1_555 1_555
H33 C55 1_555 1_555
H34 C55 1_555 1_555
H35 C55 1_555 1_555
Zn1B O2 1_555 1_555
Zn1C O3 1_555 1_555
Zn1A O4 1_555 1_555
O2B Zn1 1_555 1_555
O3C Zn1 1_555 1_555
O4A Zn1 1_555 1_555
C20 C29 1_555 1_555
C27 C28 1_555 1_555
C28 C29 1_555 1_555
C32 C33 1_555 1_555
C36 C37 1_555 1_555
C38 C39 1_555 1_555
C42 C43 1_555 1_555
C44 C45 1_555 1_555
C48 C49 1_555 1_555
C51 C52 1_555 1_555

#END
