
#######################################################################
#
#                 Cambridge Crystallographic Data Centre
#                                CCDC 
#
#######################################################################
#
# If this CIF has been generated from an entry in the Cambridge 
# Structural Database, then it will include bibliographic, chemical, 
# crystal, experimental, refinement or atomic coordinate data resulting 
# from the CCDC's data processing and validation procedures.
#
#######################################################################

data_QUNWUT
_symmetry_cell_setting           monoclinic
_symmetry_space_group_name_H-M   'P 21/c'
_symmetry_Int_Tables_number      14
_space_group_name_Hall           '-P 2ybc'
loop_
_symmetry_equiv_pos_site_id
_symmetry_equiv_pos_as_xyz
1 x,y,z
2 -x,1/2+y,1/2-z
3 -x,-y,-z
4 x,1/2-y,1/2+z
_cell_length_a                   14.5426(6)
_cell_length_b                   25.0252(7)
_cell_length_c                   16.5912(7)
_cell_angle_alpha                90
_cell_angle_beta                 109.841(5)
_cell_angle_gamma                90
_cell_volume                     5679.63
loop_
_atom_site_label
_atom_site_type_symbol
_atom_site_fract_x
_atom_site_fract_y
_atom_site_fract_z
Zn1 Zn 1.14109(6) -0.28745(3) 1.10130(6)
Zn2 Zn 0.70917(7) 0.22970(4) 1.19071(6)
N1 N 0.6171(4) 0.2168(2) 1.0724(4)
N2 N 1.0550(5) -0.3105(2) 0.9812(4)
O1 O 1.0606(6) -0.2123(2) 1.1358(4)
O2 O 1.1887(5) -0.2127(2) 1.0959(5)
O3 O 1.1480(4) 0.0375(2) 1.1360(4)
O4 O 0.7502(4) 0.3032(2) 1.1823(4)
O5 O 0.6134(6) 0.3043(3) 1.2095(4)
O6 O 0.6456(4) 0.5497(2) 1.1193(4)
O7 O 0.9129(4) 0.1693(2) 1.3262(4)
O8 O 0.8267(4) 0.1891(2) 1.1915(4)
O9 O 0.2626(4) 0.6742(2) 1.1080(4)
O10 O 0.3561(4) 0.6873(2) 1.2442(4)
C1 C 1.0729(6) -0.2908(3) 0.9123(6)
H1 H 1.1261 -0.2683 0.9200
C2 C 1.0120(6) -0.3039(4) 0.8297(5)
H2 H 1.0271 -0.2910 0.7832
C3 C 0.9312(6) -0.3352(3) 0.8151(5)
C4 C 0.9161(7) -0.3554(3) 0.8887(5)
H3 H 0.8637 -0.3781 0.8830
C5 C 0.9773(6) -0.3419(3) 0.9679(5)
H4 H 0.9643 -0.3552 1.0153
C6 C 0.8658(6) -0.3471(3) 0.7268(5)
H5 H 0.8803 -0.3303 0.6826
C7 C 0.7901(7) -0.3787(4) 0.7046(6)
H6 H 0.7721 -0.3939 0.7482
C8 C 0.7306(7) -0.3922(4) 0.6151(6)
C9 C 0.7687(7) -0.3878(4) 0.5518(6)
H7 H 0.8322 -0.3749 0.5653
C10 C 0.7174(8) -0.4017(5) 0.4672(7)
H8 H 0.7476 -0.3994 0.4261
C11 C 0.6228(8) -0.4185(5) 0.4444(6)
H9 H 0.5897 -0.4292 0.3884
C12 C 0.5754(6) -0.4197(3) 0.5046(6)
C13 C 0.6279(6) -0.4077(3) 0.5916(6)
C14 C 0.5763(7) -0.4118(4) 0.6501(7)
H10 H 0.6095 -0.4054 0.7079
C15 C 0.4814(8) -0.4246(5) 0.6248(7)
H11 H 0.4490 -0.4265 0.6644
C16 C 0.4315(8) -0.4350(5) 0.5385(8)
H12 H 0.3654 -0.4435 0.5212
C17 C 0.4749(7) -0.4333(4) 0.4802(7)
H13 H 0.4396 -0.4410 0.4232
C18 C 0.5194(7) 0.2186(4) 1.0578(8)
H14 H 0.5002 0.2186 1.1058
C19 C 0.4498(9) 0.2203(4) 0.9836(8)
H15 H 0.3847 0.2200 0.9803
C20 C 0.4731(8) 0.2224(4) 0.9105(8)
C21 C 0.5721(8) 0.2192(3) 0.9195(6)
H16 H 0.5914 0.2189 0.8715
C22 C 0.6399(7) 0.2163(3) 0.9998(5)
H17 H 0.7055 0.2139 1.0050
C23 C 0.3858(9) 0.2320(4) 0.8293(9)
H18 H 0.3244 0.2370 0.8338
C24 C 0.3945(10) 0.2332(4) 0.7562(8)
H19 H 0.4544 0.2266 0.7496
C25 C 0.3020(8) 0.2459(4) 0.6774(6)
C26 C 0.2347(8) 0.2818(4) 0.6802(7)
H20 H 0.2413 0.2987 0.7318
C27 C 0.1536(8) 0.2948(4) 0.6064(8)
H21 H 0.1069 0.3190 0.6104
C28 C 0.1443(7) 0.2720(4) 0.5306(7)
H22 H 0.0918 0.2810 0.4821
C29 C 0.2151(7) 0.2340(3) 0.5244(6)
C30 C 0.2921(7) 0.2216(3) 0.5974(6)
C31 C 0.3599(8) 0.1801(4) 0.5922(7)
H23 H 0.4127 0.1707 0.6402
C32 C 0.3447(10) 0.1554(5) 0.5161(9)
H24 H 0.3858 0.1275 0.5135
C33 C 0.2698(10) 0.1703(5) 0.4418(8)
H25 H 0.2641 0.1547 0.3894
C34 C 0.2060(8) 0.2077(4) 0.4472(7)
H26 H 0.1539 0.2165 0.3982
C35 C 0.6775(7) 0.3284(3) 1.1902(5)
C36 C 0.6704(6) 0.3874(3) 1.1718(5)
C37 C 0.7365(6) 0.4133(3) 1.1462(6)
H27 H 0.7887 0.3944 1.1399
C38 C 0.7286(5) 0.4677(3) 1.1289(5)
H28 H 0.7748 0.4853 1.1112
C39 C 0.6505(5) 0.4954(3) 1.1385(4)
C40 C 0.5826(6) 0.4692(3) 1.1649(5)
H29 H 0.5306 0.4879 1.1719
C41 C 0.5918(7) 0.4150(3) 1.1812(5)
H30 H 0.5455 0.3970 1.1983
C42 C 0.5702(5) 0.5790(3) 1.1323(5)
C43 C 0.5870(5) 0.6039(3) 1.2096(5)
H31 H 0.6470 0.6007 1.2534
H32 H 1.0641 0.1198 1.3323
H33 H 0.8803 0.1326 1.0909
C44 C 1.0475(6) 0.1121(3) 1.2741(5)
C45 C 0.9614(5) 0.1319(3) 1.2166(5)
C46 C 0.9371(5) 0.1190(3) 1.1301(5)
C47 C 0.4833(6) 0.5849(3) 1.0666(5)
H34 H 0.4736 0.5690 1.0137
C48 C 0.8953(5) 0.1657(3) 1.2480(5)
C49 C 1.1272(6) -0.1883(3) 1.1181(5)
C50 C 1.1318(5) -0.1284(3) 1.1232(4)
C51 C 1.0641(6) -0.1005(3) 1.1468(5)
H35 H 1.0156 -0.1190 1.1601
C52 C 1.0664(5) -0.0447(3) 1.1514(5)
H36 H 1.0196 -0.0262 1.1669
C53 C 1.1379(5) -0.0178(3) 1.1328(5)
C54 C 1.2079(6) -0.0452(3) 1.1098(6)
H37 H 1.2568 -0.0267 1.0972
C55 C 1.2044(6) -0.1005(3) 1.1058(6)
H38 H 1.2518 -0.1191 1.0911
C56 C 1.0829(5) 0.0670(3) 1.1622(5)
C57 C 0.9970(6) 0.0860(3) 1.1023(6)
H39 H 0.9800 0.0768 1.0448
H40 H 0.3511 0.6184 1.0358
H41 H 0.5212 0.6518 1.2722
C58 C 0.4107(6) 0.6146(4) 1.0801(5)
C59 C 0.4241(5) 0.6390(3) 1.1574(5)
C60 C 0.5112(6) 0.6344(3) 1.2205(5)
C61 C 1.1087(6) 0.0812(3) 1.2468(6)
H42 H 1.1681 0.0699 1.2857
C62 C 0.3398(6) 0.6699(3) 1.1698(5)
Zn1_2 Zn 0.14109(6) 0.71255(3) 1.10130(6)
Zn1A Zn 0.85891(6) 0.21255(3) 1.39870(6)
Zn2A Zn 0.29083(7) 0.72970(4) 1.30929(6)
O7A O 1.0871(4) -0.3307(2) 1.1738(4)
O9_2 O 1.2626(4) -0.3258(2) 1.1080(4)
O10A O 0.6439(4) 0.1873(2) 1.2558(4)
loop_
_geom_bond_atom_site_label_1
_geom_bond_atom_site_label_2
_geom_bond_site_symmetry_1
_geom_bond_site_symmetry_2
Zn1 N2 1_555 1_555
Zn2 N1 1_555 1_555
N1 C18 1_555 1_555
N2 C1 1_555 1_555
O1 Zn1 1_555 1_555
O2 Zn1 1_555 1_555
O3 C53 1_555 1_555
O4 Zn2 1_555 1_555
O5 Zn2 1_555 1_555
O6 C39 1_555 1_555
O7 C48 1_555 1_555
O8 Zn2 1_555 1_555
O9 C62 1_555 1_555
O10 C62 1_555 1_555
C1 H1 1_555 1_555
C2 C1 1_555 1_555
H2 C2 1_555 1_555
C3 C2 1_555 1_555
C4 C3 1_555 1_555
H3 C4 1_555 1_555
C5 N2 1_555 1_555
H4 C5 1_555 1_555
C6 C3 1_555 1_555
H5 C6 1_555 1_555
C7 C6 1_555 1_555
H6 C7 1_555 1_555
C8 C7 1_555 1_555
C9 C8 1_555 1_555
H7 C9 1_555 1_555
C10 C9 1_555 1_555
H8 C10 1_555 1_555
C11 C10 1_555 1_555
H9 C11 1_555 1_555
C12 C11 1_555 1_555
C13 C8 1_555 1_555
C14 C13 1_555 1_555
H10 C14 1_555 1_555
C15 C14 1_555 1_555
H11 C15 1_555 1_555
C16 C15 1_555 1_555
H12 C16 1_555 1_555
C17 C12 1_555 1_555
H13 C17 1_555 1_555
C18 H14 1_555 1_555
C19 C18 1_555 1_555
H15 C19 1_555 1_555
C20 C19 1_555 1_555
C21 C20 1_555 1_555
H16 C21 1_555 1_555
C22 N1 1_555 1_555
H17 C22 1_555 1_555
C23 C20 1_555 1_555
H18 C23 1_555 1_555
C24 C23 1_555 1_555
H19 C24 1_555 1_555
C25 C24 1_555 1_555
C26 C25 1_555 1_555
H20 C26 1_555 1_555
C27 C26 1_555 1_555
H21 C27 1_555 1_555
C28 C27 1_555 1_555
H22 C28 1_555 1_555
C29 C28 1_555 1_555
C30 C25 1_555 1_555
C31 C30 1_555 1_555
H23 C31 1_555 1_555
C32 C31 1_555 1_555
H24 C32 1_555 1_555
C33 C32 1_555 1_555
H25 C33 1_555 1_555
C34 C29 1_555 1_555
H26 C34 1_555 1_555
C35 O4 1_555 1_555
C36 C35 1_555 1_555
C37 C36 1_555 1_555
H27 C37 1_555 1_555
C38 C37 1_555 1_555
H28 C38 1_555 1_555
C39 C38 1_555 1_555
C40 C39 1_555 1_555
H29 C40 1_555 1_555
C41 C36 1_555 1_555
H30 C41 1_555 1_555
C42 O6 1_555 1_555
C43 C42 1_555 1_555
H31 C43 1_555 1_555
H32 C44 1_555 1_555
H33 C46 1_555 1_555
C44 C45 1_555 1_555
C45 C46 1_555 1_555
C46 C57 1_555 1_555
C47 C42 1_555 1_555
H34 C47 1_555 1_555
C48 O8 1_555 1_555
C49 O1 1_555 1_555
C50 C49 1_555 1_555
C51 C50 1_555 1_555
H35 C51 1_555 1_555
C52 C51 1_555 1_555
H36 C52 1_555 1_555
C53 C52 1_555 1_555
C54 C53 1_555 1_555
H37 C54 1_555 1_555
C55 C50 1_555 1_555
H38 C55 1_555 1_555
C56 O3 1_555 1_555
C57 C56 1_555 1_555
H39 C57 1_555 1_555
H40 C58 1_555 1_555
H41 C60 1_555 1_555
C58 C47 1_555 1_555
C59 C58 1_555 1_555
C60 C43 1_555 1_555
C61 C44 1_555 1_555
H42 C61 1_555 1_555
C62 C59 1_555 1_555
Zn1_2 O9 1_555 1_555
Zn1A O7 1_555 1_555
Zn2A O10 1_555 1_555
O7A Zn1 1_555 1_555
O9_2 Zn1 1_555 1_555
O10A Zn2 1_555 1_555
O2 C49 1_555 1_555
O5 C35 1_555 1_555
C4 C5 1_555 1_555
C12 C13 1_555 1_555
C16 C17 1_555 1_555
C21 C22 1_555 1_555
C29 C30 1_555 1_555
C33 C34 1_555 1_555
C40 C41 1_555 1_555
C45 C48 1_555 1_555
C54 C55 1_555 1_555
C56 C61 1_555 1_555
C59 C60 1_555 1_555

#END
