
#######################################################################
#
#                 Cambridge Crystallographic Data Centre
#                                CCDC 
#
#######################################################################
#
# If this CIF has been generated from an entry in the Cambridge 
# Structural Database, then it will include bibliographic, chemical, 
# crystal, experimental, refinement or atomic coordinate data resulting 
# from the CCDC's data processing and validation procedures.
#
#######################################################################

data_QUNWON
_symmetry_cell_setting           monoclinic
_symmetry_space_group_name_H-M   'C c'
_symmetry_Int_Tables_number      9
_space_group_name_Hall           'C -2yc'
loop_
_symmetry_equiv_pos_site_id
_symmetry_equiv_pos_as_xyz
1 x,y,z
2 x,-y,1/2+z
3 1/2+x,1/2+y,z
4 1/2+x,1/2-y,1/2+z
_cell_length_a                   14.934(3)
_cell_length_b                   24.781(4)
_cell_length_c                   16.383(3)
_cell_angle_alpha                90
_cell_angle_beta                 109.435(4)
_cell_angle_gamma                90
_cell_volume                     5717.54
loop_
_atom_site_label
_atom_site_type_symbol
_atom_site_fract_x
_atom_site_fract_y
_atom_site_fract_z
Zn1 Zn 0.31722(6) 0.97555(4) 0.35909(6)
Zn2 Zn -0.04421(7) 0.50092(4) 0.56302(7)
N1 N 0.2290(5) 0.9551(3) 0.2398(4)
N2 N 0.0354(6) 0.4754(3) 0.6870(6)
O1 O 0.2605(5) 0.9323(3) 0.4290(4)
O2 O 0.3357(5) 0.9659(3) 0.5589(4)
O3 O -0.0668(4) 1.4358(2) 0.3619(4)
O4 O 0.0159(5) 1.4546(3) 0.4978(4)
O5 O 0.2062(5) 1.0526(3) 0.3650(5)
O6 O 0.3595(4) 1.0511(3) 0.3885(5)
O7 O 0.3061(4) 1.3044(3) 0.3996(5)
O8 O -0.0849(4) 0.5760(2) 0.5903(4)
O9 O 0.0492(5) 0.5732(3) 0.5666(4)
O10 O 0.0211(5) 0.8245(3) 0.6380(5)
C1 C 0.1362(7) 0.9564(5) 0.2278(6)
H1 H 0.1153 0.9722 0.2697
C2 C 0.0727(7) 0.9355(4) 0.1569(7)
H2 H 0.0088 0.9366 0.1517
C3 C 0.0987(6) 0.9120(4) 0.0898(6)
C4 C 0.1941(7) 0.9138(4) 0.1018(5)
H3 H 0.2166 0.8998 0.0597
C5 C 0.2562(6) 0.9360(4) 0.1748(6)
H4 H 0.3200 0.9380 0.1799
C6 C 0.0302(7) 0.8868(5) 0.0176(6)
H5 H -0.0274 0.9045 -0.0076
C7 C 0.0428(8) 0.8389(5) -0.0171(7)
H6 H 0.1035 0.8242 0.0038
C8 C -0.0278(9) 0.8078(5) -0.0833(8)
C9 C -0.1006(9) 0.8313(5) -0.1470(8)
H7 H -0.1029 0.8687 -0.1505
C10 C -0.1726(10) 0.8013(6) -0.2080(8)
C11 C -0.1644(10) 0.7422(5) -0.2007(9)
C12 C -0.0871(10) 0.7185(5) -0.1351(11)
H8 H -0.0847 0.6813 -0.1274
C13 C -0.0210(10) 0.7481(6) -0.0867(9)
H9 H 0.0343 0.7315 -0.0516
C14 C -0.2351(11) 0.7139(6) -0.2609(10)
H10 H -0.2334 0.6764 -0.2566
C15 C -0.3085(15) 0.7365(8) -0.3271(14)
H11 H -0.3528 0.7152 -0.3677
C16 C -0.3134(13) 0.7937(8) -0.3305(10)
H12 H -0.3621 0.8111 -0.3730
C17 C -0.2450(12) 0.8224(7) -0.2701(10)
H13 H -0.2498 0.8598 -0.2727
C18 C -0.0033(6) 0.4621(4) 0.7470(6)
H14 H -0.0687 0.4570 0.7288
C19 C 0.0444(7) 0.4556(4) 0.8302(6)
H15 H 0.0122 0.4453 0.8674
C20 C 0.1430(7) 0.4641(4) 0.8636(7)
C21 C 0.1854(7) 0.4785(4) 0.8009(6)
H16 H 0.2505 0.4846 0.8177
C22 C 0.1303(7) 0.4834(5) 0.7151(7)
H17 H 0.1595 0.4926 0.6750
C23 C 0.1931(7) 0.4648(4) 0.9558(6)
H18 H 0.1680 0.4445 0.9908
C24 C 0.2727(7) 0.4924(4) 0.9942(7)
H19 H 0.2984 0.5108 0.9578
C25 C 0.3230(7) 0.4970(4) 1.0848(7)
C26 C 0.3889(7) 0.5403(5) 1.1172(7)
H20 H 0.3985 0.5652 1.0784
C27 C 0.4388(8) 0.5462(5) 1.2046(8)
H21 H 0.4787 0.5756 1.2241
C28 C 0.4290(7) 0.5077(4) 1.2637(7)
C29 C 0.3658(7) 0.4635(4) 1.2326(7)
C30 C 0.3141(7) 0.4589(4) 1.1463(6)
H22 H 0.2722 0.4302 1.1277
C31 C 0.3565(8) 0.4243(4) 1.2955(7)
H23 H 0.3149 0.3954 1.2770
C32 C 0.4075(7) 0.4293(5) 1.3803(7)
H24 H 0.4006 0.4041 1.4199
C33 C 0.4714(7) 0.4728(4) 1.4090(8)
H25 H 0.5064 0.4755 1.4675
C34 C 0.4829(8) 0.5099(5) 1.3544(8)
H26 H 0.5263 0.5377 1.3755
C35 C -0.0112(6) 0.5978(3) 0.5849(5)
C36 C -0.0007(6) 0.6579(4) 0.6023(5)
C37 C -0.0715(6) 0.6889(4) 0.6191(5)
H27 H -0.1256 0.6717 0.6224
C38 C -0.0632(7) 0.7423(4) 0.6304(6)
H28 H -0.1114 0.7617 0.6412
C39 C 0.0180(7) 0.7694(4) 0.6261(6)
C40 C 0.0898(6) 0.7396(4) 0.6130(6)
H29 H 0.1454 0.7566 0.6133
C41 C 0.0801(6) 0.6849(4) 0.5996(6)
H30 H 0.1282 0.6656 0.5886
C42 C 0.1339(8) 0.8762(4) 0.4873(6)
H31 H 0.1305 0.8721 0.4299
C43 C 0.0715(7) 0.8486(4) 0.5177(7)
H32 H 0.0239 0.8273 0.4807
C44 C 0.0809(6) 0.8532(4) 0.6037(6)
C45 C 0.1464(7) 0.8875(4) 0.6607(6)
H33 H 0.1494 0.8910 0.7180
C46 C 0.2069(7) 0.9162(4) 0.6281(7)
H34 H 0.2511 0.9397 0.6642
C47 C 0.0840(7) 1.3796(4) 0.3392(6)
H35 H 0.0334 1.3886 0.2900
C48 C 0.1557(7) 1.3479(4) 0.3313(6)
H36 H 0.1541 1.3355 0.2772
C49 C 0.2303(6) 1.3345(3) 0.4048(6)
C50 C 0.2337(6) 1.3540(4) 0.4845(6)
H37 H 0.2848 1.3457 0.5338
C51 C 0.1614(7) 1.3855(4) 0.4902(6)
H38 H 0.1634 1.3987 0.5440
C52 C 0.2944(6) 1.2483(3) 0.3930(6)
C53 C 0.2115(7) 1.2216(4) 0.3854(7)
H39 H 0.1569 1.2407 0.3828
C54 C 0.2106(7) 1.1664(4) 0.3819(6)
H40 H 0.1547 1.1481 0.3770
C55 C 0.2900(6) 1.1370(4) 0.3854(5)
C56 C 0.3710(6) 1.1633(4) 0.3897(6)
H41 H 0.4242 1.1437 0.3900
C57 C 0.3756(6) 1.2201(4) 0.3937(7)
H42 H 0.4310 1.2383 0.3967
C58 C 0.2838(6) 1.0765(4) 0.3787(5)
C59 C 0.2704(6) 0.9384(3) 0.5072(5)
C60 C 0.2027(6) 0.9103(4) 0.5422(6)
C61 C 0.0046(6) 1.4328(3) 0.4260(6)
C62 C 0.0853(6) 1.3985(3) 0.4182(5)
Zn1B Zn -0.18278(6) 1.47555(4) 0.35909(6)
Zn2_2 Zn -0.04421(7) 1.50092(4) 0.56302(7)
Zn2B Zn 0.45579(7) 1.00092(4) 0.56302(7)
O2B O -0.1643(5) 0.4659(3) 0.5589(4)
O3B O 0.4332(4) 0.9358(2) 0.3619(4)
O4_2 O 0.0159(5) 0.4546(3) 0.4978(4)
loop_
_geom_bond_atom_site_label_1
_geom_bond_atom_site_label_2
_geom_bond_site_symmetry_1
_geom_bond_site_symmetry_2
Zn1 N1 1_555 1_555
Zn2 N2 1_555 1_555
N1 C1 1_555 1_555
N2 C18 1_555 1_555
O1 Zn1 1_555 1_555
O2 C59 1_555 1_555
O3 C61 1_555 1_555
O4 C61 1_555 1_555
O5 Zn1 1_555 1_555
O6 Zn1 1_555 1_555
O7 C49 1_555 1_555
O8 Zn2 1_555 1_555
O9 Zn2 1_555 1_555
O10 C39 1_555 1_555
C1 H1 1_555 1_555
C2 C1 1_555 1_555
H2 C2 1_555 1_555
C3 C2 1_555 1_555
C4 C3 1_555 1_555
H3 C4 1_555 1_555
C5 N1 1_555 1_555
H4 C5 1_555 1_555
C6 C3 1_555 1_555
H5 C6 1_555 1_555
C7 C6 1_555 1_555
H6 C7 1_555 1_555
C8 C7 1_555 1_555
C9 C8 1_555 1_555
H7 C9 1_555 1_555
C10 C9 1_555 1_555
C11 C10 1_555 1_555
C12 C11 1_555 1_555
H8 C12 1_555 1_555
C13 C8 1_555 1_555
H9 C13 1_555 1_555
C14 C11 1_555 1_555
H10 C14 1_555 1_555
C15 C14 1_555 1_555
H11 C15 1_555 1_555
C16 C15 1_555 1_555
H12 C16 1_555 1_555
C17 C10 1_555 1_555
H13 C17 1_555 1_555
C18 H14 1_555 1_555
C19 C18 1_555 1_555
H15 C19 1_555 1_555
C20 C19 1_555 1_555
C21 C20 1_555 1_555
H16 C21 1_555 1_555
C22 N2 1_555 1_555
H17 C22 1_555 1_555
C23 C20 1_555 1_555
H18 C23 1_555 1_555
C24 C23 1_555 1_555
H19 C24 1_555 1_555
C25 C24 1_555 1_555
C26 C25 1_555 1_555
H20 C26 1_555 1_555
C27 C26 1_555 1_555
H21 C27 1_555 1_555
C28 C27 1_555 1_555
C29 C28 1_555 1_555
C30 C25 1_555 1_555
H22 C30 1_555 1_555
C31 C29 1_555 1_555
H23 C31 1_555 1_555
C32 C31 1_555 1_555
H24 C32 1_555 1_555
C33 C32 1_555 1_555
H25 C33 1_555 1_555
C34 C28 1_555 1_555
H26 C34 1_555 1_555
C35 O8 1_555 1_555
C36 C35 1_555 1_555
C37 C36 1_555 1_555
H27 C37 1_555 1_555
C38 C37 1_555 1_555
H28 C38 1_555 1_555
C39 C38 1_555 1_555
C40 C39 1_555 1_555
H29 C40 1_555 1_555
C41 C36 1_555 1_555
H30 C41 1_555 1_555
C42 H31 1_555 1_555
C43 C42 1_555 1_555
H32 C43 1_555 1_555
C44 O10 1_555 1_555
C45 C44 1_555 1_555
H33 C45 1_555 1_555
C46 C45 1_555 1_555
H34 C46 1_555 1_555
C47 H35 1_555 1_555
C48 C47 1_555 1_555
H36 C48 1_555 1_555
C49 C48 1_555 1_555
C50 C49 1_555 1_555
H37 C50 1_555 1_555
C51 C50 1_555 1_555
H38 C51 1_555 1_555
C52 O7 1_555 1_555
C53 C52 1_555 1_555
H39 C53 1_555 1_555
C54 C53 1_555 1_555
H40 C54 1_555 1_555
C55 C54 1_555 1_555
C56 C55 1_555 1_555
H41 C56 1_555 1_555
C57 C52 1_555 1_555
H42 C57 1_555 1_555
C58 O5 1_555 1_555
C59 O1 1_555 1_555
C60 C42 1_555 1_555
C61 C62 1_555 1_555
C62 C47 1_555 1_555
Zn1B O3 1_555 1_555
Zn2_2 O4 1_555 1_555
Zn2B O2 1_555 1_555
O2B Zn2 1_555 1_555
O3B Zn1 1_555 1_555
O4_2 Zn2 1_555 1_555
O6 C58 1_555 1_555
O9 C35 1_555 1_555
C4 C5 1_555 1_555
C12 C13 1_555 1_555
C16 C17 1_555 1_555
C21 C22 1_555 1_555
C29 C30 1_555 1_555
C33 C34 1_555 1_555
C40 C41 1_555 1_555
C43 C44 1_555 1_555
C46 C60 1_555 1_555
C51 C62 1_555 1_555
C55 C58 1_555 1_555
C56 C57 1_555 1_555
C59 C60 1_555 1_555

#END
