
#######################################################################
#
#                 Cambridge Crystallographic Data Centre
#                                CCDC 
#
#######################################################################
#
# If this CIF has been generated from an entry in the Cambridge 
# Structural Database, then it will include bibliographic, chemical, 
# crystal, experimental, refinement or atomic coordinate data resulting 
# from the CCDC's data processing and validation procedures.
#
#######################################################################

data_QUNWUS
_symmetry_cell_setting           monoclinic
_symmetry_space_group_name_H-M   'P 21/n'
_symmetry_Int_Tables_number      14
_space_group_name_Hall           '-P 2yn'
loop_
_symmetry_equiv_pos_site_id
_symmetry_equiv_pos_as_xyz
1 x,y,z
2 1/2-x,1/2+y,1/2-z
3 -x,-y,-z
4 1/2+x,1/2-y,1/2+z
_cell_length_a                   10.4101(10)
_cell_length_b                   9.9258(10)
_cell_length_c                   24.483(3)
_cell_angle_alpha                90
_cell_angle_beta                 100.159(2)
_cell_angle_gamma                90
_cell_volume                     2490.13
loop_
_atom_site_label
_atom_site_type_symbol
_atom_site_fract_x
_atom_site_fract_y
_atom_site_fract_z
Ag1 Ag 0.62163(2) 0.41524(2) 1.008420(9)
O1 O 0.5646(2) 0.6545(2) 0.72855(8)
O2 O 0.8034(2) 0.4587(2) 0.94793(10)
O3 O 0.6597(2) 0.6158(2) 0.95169(10)
O4 O 0.7260(2) 0.7324(3) 0.68974(8)
H1 H 0.6687 0.7354 0.6621
C1 C 0.7210(2) 0.6289(3) 0.83343(10)
H2 H 0.6322 0.6547 0.8356
H3 H 0.7214 0.5337 0.8245
C2 C 0.7687(2) 0.7107(3) 0.78753(10)
C3 C 0.8095(2) 0.6540(3) 0.88971(10)
C4 C 0.7549(3) 0.5704(3) 0.93355(11)
C5 C 0.9093(3) 0.6712(3) 0.78435(12)
H4 H 0.9397 0.7232 0.7556
H5 H 0.9129 0.5765 0.7749
C6 C 0.7663(3) 0.8620(3) 0.80230(12)
H6 H 0.7970 0.9149 0.7738
H7 H 0.6776 0.8895 0.8038
C7 C 0.6746(3) 0.6941(3) 0.73312(11)
C8 C 0.9494(3) 0.6145(3) 0.88561(12)
H8 H 0.9527 0.5195 0.8768
H9 H 1.0059 0.6297 0.9210
C9 C 0.8529(3) 0.8876(3) 0.85803(13)
H10 H 0.8504 0.9837 0.8671
C10 C 0.8045(3) 0.8055(3) 0.90305(11)
H11 H 0.7156 0.8313 0.9051
H12 H 0.8587 0.8237 0.9387
C11 C 0.9975(3) 0.6979(3) 0.84057(13)
H13 H 1.0873 0.6719 0.8385
C12 C 0.9934(3) 0.8472(3) 0.85470(14)
H14 H 1.0246 0.9001 0.8264
H15 H 1.0497 0.8646 0.8900
N1 N 0.1729(2) -0.0060(2) 0.59190(9)
C13 C 0.2745(3) -0.0872(3) 0.60606(14)
H16 H 0.3246 -0.1080 0.5793
C14 C 0.2382(3) -0.1135(3) 0.69853(12)
C15 C 0.3097(3) -0.1420(3) 0.65768(12)
H17 H 0.3820 -0.1985 0.6653
C16 C 0.2780(3) -0.1631(3) 0.75709(12)
H18 H 0.2037 -0.2047 0.7693
H19 H 0.3456 -0.2308 0.7583
C17 C 0.1022(3) 0.0202(3) 0.63107(13)
H20 H 0.0297 0.0759 0.6221
C18 C 0.1304(3) -0.0304(3) 0.68366(12)
H21 H 0.0777 -0.0093 0.7094
N2 N 0.5359(2) 0.2401(2) 0.95938(10)
C19 C 0.4349(3) 0.0232(3) 0.89198(12)
C20 C 0.3830(3) 0.0619(3) 0.93770(13)
H22 H 0.3123 0.0152 0.9469
C21 C 0.5382(4) 0.0983(3) 0.88092(16)
H23 H 0.5760 0.0778 0.8502
C22 C 0.4352(3) 0.1687(3) 0.96973(13)
H24 H 0.3980 0.1923 1.0003
C23 C 0.5858(3) 0.2034(4) 0.91494(14)
H25 H 0.6565 0.2517 0.9066
C24 C 0.3807(3) -0.0925(3) 0.85534(13)
H26 H 0.4488 -0.1591 0.8550
H27 H 0.3109 -0.1348 0.8706
C25 C 0.3286(3) -0.0478(3) 0.79612(13)
H28 H 0.2584 0.0162 0.7966
H29 H 0.3977 -0.0017 0.7817
Ag1C Ag 0.12163(2) 0.08476(2) 0.508420(9)
N1C N 0.6729(2) 0.5060(2) 1.09190(9)
O5 O 0.9245(2) 0.2652(2) 0.90691(9)
H30 H 0.8897 0.3302 0.9189
C26 C 0.9778(6) 0.1832(5) 0.95020(19)
H31 H 1.0347 0.2352 0.9774
H32 H 1.0267 0.1125 0.9367
H33 H 0.9093 0.1447 0.9668
loop_
_geom_bond_atom_site_label_1
_geom_bond_atom_site_label_2
_geom_bond_site_symmetry_1
_geom_bond_site_symmetry_2
Ag1 O2 1_555 1_555
O1 C7 1_555 1_555
O2 C4 1_555 1_555
O3 Ag1 1_555 1_555
O4 H1 1_555 1_555
C1 H2 1_555 1_555
H3 C1 1_555 1_555
C2 C1 1_555 1_555
C3 C1 1_555 1_555
C4 O3 1_555 1_555
C5 C2 1_555 1_555
H4 C5 1_555 1_555
H5 C5 1_555 1_555
C6 C2 1_555 1_555
H6 C6 1_555 1_555
H7 C6 1_555 1_555
C7 O4 1_555 1_555
C8 C3 1_555 1_555
H8 C8 1_555 1_555
H9 C8 1_555 1_555
C9 C6 1_555 1_555
H10 C9 1_555 1_555
C10 C3 1_555 1_555
H11 C10 1_555 1_555
H12 C10 1_555 1_555
C11 C5 1_555 1_555
H13 C11 1_555 1_555
C12 C9 1_555 1_555
H14 C12 1_555 1_555
H15 C12 1_555 1_555
N1 C13 1_555 1_555
C13 H16 1_555 1_555
C14 C15 1_555 1_555
C15 C13 1_555 1_555
H17 C15 1_555 1_555
C16 C14 1_555 1_555
H18 C16 1_555 1_555
H19 C16 1_555 1_555
C17 N1 1_555 1_555
H20 C17 1_555 1_555
C18 C14 1_555 1_555
H21 C18 1_555 1_555
N2 Ag1 1_555 1_555
C19 C20 1_555 1_555
C20 H22 1_555 1_555
C21 C19 1_555 1_555
H23 C21 1_555 1_555
C22 N2 1_555 1_555
H24 C22 1_555 1_555
C23 N2 1_555 1_555
H25 C23 1_555 1_555
C24 C19 1_555 1_555
H26 C24 1_555 1_555
H27 C24 1_555 1_555
C25 C16 1_555 1_555
H28 C25 1_555 1_555
H29 C25 1_555 1_555
O5 H30 1_555 1_555
C26 O5 1_555 1_555
H31 C26 1_555 1_555
H32 C26 1_555 1_555
H33 C26 1_555 1_555
Ag1C N1 1_555 1_555
N1C Ag1 1_555 1_555
C2 C7 1_555 1_555
C3 C4 1_555 1_555
C8 C11 1_555 1_555
C9 C10 1_555 1_555
C11 C12 1_555 1_555
C17 C18 1_555 1_555
C20 C22 1_555 1_555
C21 C23 1_555 1_555
C24 C25 1_555 1_555

#END
