
#######################################################################
#
#                 Cambridge Crystallographic Data Centre
#                                CCDC 
#
#######################################################################
#
# If this CIF has been generated from an entry in the Cambridge 
# Structural Database, then it will include bibliographic, chemical, 
# crystal, experimental, refinement or atomic coordinate data resulting 
# from the CCDC's data processing and validation procedures.
#
#######################################################################

data_QUNWOM
_symmetry_cell_setting           monoclinic
_symmetry_space_group_name_H-M   'P 21/c'
_symmetry_Int_Tables_number      14
_space_group_name_Hall           '-P 2ybc'
loop_
_symmetry_equiv_pos_site_id
_symmetry_equiv_pos_as_xyz
1 x,y,z
2 -x,1/2+y,1/2-z
3 -x,-y,-z
4 x,1/2-y,1/2+z
_cell_length_a                   12.288(2)
_cell_length_b                   13.706(2)
_cell_length_c                   13.376(2)
_cell_angle_alpha                90
_cell_angle_beta                 108.697(3)
_cell_angle_gamma                90
_cell_volume                     2133.89
loop_
_atom_site_label
_atom_site_type_symbol
_atom_site_fract_x
_atom_site_fract_y
_atom_site_fract_z
N1 N 0.9317(3) 0.8803(2) 1.0950(3)
C1 C 1.0216(4) 0.8214(3) 1.1312(4)
H1 H 1.0947 0.8488 1.1535
C2 C 0.8277(4) 0.8383(3) 1.0658(4)
H2 H 0.7629 0.8779 1.0428
Ag1 Ag 0.94326(3) 1.03828(2) 1.07911(3)
O1 O 0.7404(3) 1.0564(2) 0.9252(3)
O2 O 0.8152(3) 0.9765(3) 0.8223(3)
O3 O 0.3732(3) 0.8928(3) 0.9513(3)
H3 H 0.3345 0.9122 0.9872
O4 O 0.2421(3) 0.9721(4) 0.8250(3)
N2 N 0.9584(3) 0.1962(3) 1.1036(3)
C3 C 0.9791(4) 0.4000(3) 1.1270(4)
C4 C 0.5296(3) 0.9623(3) 0.8519(4)
H4 H 0.5196 1.0306 0.8659
H5 H 0.5602 0.9291 0.9192
C5 C 0.8868(4) 0.5693(3) 1.1026(4)
H6 H 0.8428 0.5502 1.0312
H7 H 0.8406 0.5547 1.1475
C6 C 0.9068(4) 0.6770(3) 1.1044(3)
C7 C 0.8728(4) 0.3543(3) 1.0895(4)
H8 H 0.8059 0.3914 1.0717
C8 C 1.0735(4) 0.3387(3) 1.1524(4)
H9 H 1.1469 0.3651 1.1777
C9 C 0.6143(4) 0.9530(3) 0.7899(4)
C10 C 1.0606(4) 0.2401(3) 1.1410(4)
H10 H 1.1262 0.2014 1.1602
C11 C 0.8128(4) 0.7392(3) 1.0685(4)
H11 H 0.7390 0.7133 1.0459
C12 C 0.4126(4) 0.9177(3) 0.7894(4)
C13 C 0.9954(4) 0.5078(3) 1.1386(4)
H12 H 1.0453 0.5280 1.0991
H13 H 1.0350 0.5221 1.2124
C14 C 0.7325(4) 0.9984(3) 0.8499(4)
C15 C 0.3640(4) 0.9706(4) 0.6853(4)
H14 H 0.3534 1.0391 0.6979
H15 H 0.2899 0.9432 0.6459
C16 C 0.6274(4) 0.8447(3) 0.7682(4)
H16 H 0.6796 0.8375 0.7276
H17 H 0.6601 0.8105 0.8346
C17 C 0.4480(4) 0.9598(4) 0.6216(4)
H18 H 0.4168 0.9944 0.5543
C18 C 1.0120(4) 0.7218(3) 1.1373(4)
H19 H 1.0779 0.6842 1.1641
C19 C 0.4293(4) 0.8091(3) 0.7704(4)
H20 H 0.4598 0.7755 0.8374
H21 H 0.3561 0.7797 0.7316
C20 C 0.3325(4) 0.9304(4) 0.8548(4)
C21 C 0.8659(4) 0.2544(3) 1.0785(4)
H22 H 0.7936 0.2260 1.0523
C22 C 0.5120(4) 0.7998(4) 0.7079(4)
H23 H 0.5229 0.7306 0.6955
C23 C 0.5644(4) 1.0053(4) 0.6845(4)
H24 H 0.6173 1.0000 0.6442
H25 H 0.5541 1.0739 0.6966
C24 C 0.4640(4) 0.8530(5) 0.5998(4)
H26 H 0.5173 0.8466 0.5602
H27 H 0.3911 0.8245 0.5588
Ag1B Ag 1.05674(3) 0.96172(2) 0.92089(3)
Ag1_2 Ag 0.94326(3) 0.03828(2) 1.07911(3)
O2B O 1.1848(3) 1.0235(3) 1.1777(3)
N2_2 N 0.9584(3) 1.1962(3) 1.1036(3)
loop_
_geom_bond_atom_site_label_1
_geom_bond_atom_site_label_2
_geom_bond_site_symmetry_1
_geom_bond_site_symmetry_2
N1 C1 1_555 1_555
C1 H1 1_555 1_555
C2 N1 1_555 1_555
H2 C2 1_555 1_555
Ag1 N1 1_555 1_555
O1 Ag1 1_555 1_555
O2 C14 1_555 1_555
O3 H3 1_555 1_555
O4 C20 1_555 1_555
N2 C10 1_555 1_555
C3 C7 1_555 1_555
C4 H4 1_555 1_555
H5 C4 1_555 1_555
C5 H6 1_555 1_555
H7 C5 1_555 1_555
C6 C5 1_555 1_555
C7 H8 1_555 1_555
C8 C3 1_555 1_555
H9 C8 1_555 1_555
C9 C4 1_555 1_555
C10 C8 1_555 1_555
H10 C10 1_555 1_555
C11 C2 1_555 1_555
H11 C11 1_555 1_555
C12 C4 1_555 1_555
C13 C3 1_555 1_555
H12 C13 1_555 1_555
H13 C13 1_555 1_555
C14 O1 1_555 1_555
C15 C12 1_555 1_555
H14 C15 1_555 1_555
H15 C15 1_555 1_555
C16 C9 1_555 1_555
H16 C16 1_555 1_555
H17 C16 1_555 1_555
C17 C15 1_555 1_555
H18 C17 1_555 1_555
C18 C1 1_555 1_555
H19 C18 1_555 1_555
C19 C12 1_555 1_555
H20 C19 1_555 1_555
H21 C19 1_555 1_555
C20 O3 1_555 1_555
C21 N2 1_555 1_555
H22 C21 1_555 1_555
C22 C16 1_555 1_555
H23 C22 1_555 1_555
C23 C9 1_555 1_555
H24 C23 1_555 1_555
H25 C23 1_555 1_555
C24 C17 1_555 1_555
H26 C24 1_555 1_555
H27 C24 1_555 1_555
Ag1B O2 1_555 1_555
Ag1_2 N2 1_555 1_555
O2B Ag1 1_555 1_555
N2_2 Ag1 1_555 1_555
C5 C13 1_555 1_555
C6 C11 1_555 1_555
C6 C18 1_555 1_555
C7 C21 1_555 1_555
C9 C14 1_555 1_555
C12 C20 1_555 1_555
C17 C23 1_555 1_555
C19 C22 1_555 1_555
C22 C24 1_555 1_555

#END
