
#######################################################################
#
#                 Cambridge Crystallographic Data Centre
#                                CCDC 
#
#######################################################################
#
# If this CIF has been generated from an entry in the Cambridge 
# Structural Database, then it will include bibliographic, chemical, 
# crystal, experimental, refinement or atomic coordinate data resulting 
# from the CCDC's data processing and validation procedures.
#
#######################################################################

data_QUNWED
_symmetry_cell_setting           monoclinic
_symmetry_space_group_name_H-M   'P 21/c'
_symmetry_Int_Tables_number      14
_space_group_name_Hall           '-P 2ybc'
loop_
_symmetry_equiv_pos_site_id
_symmetry_equiv_pos_as_xyz
1 x,y,z
2 -x,1/2+y,1/2-z
3 -x,-y,-z
4 x,1/2-y,1/2+z
_cell_length_a                   14.3619(4)
_cell_length_b                   24.7111(6)
_cell_length_c                   15.9255(4)
_cell_angle_alpha                90
_cell_angle_beta                 109.140(3)
_cell_angle_gamma                90
_cell_volume                     5339.5
loop_
_atom_site_label
_atom_site_type_symbol
_atom_site_fract_x
_atom_site_fract_y
_atom_site_fract_z
Zn1 Zn 0.34252(3) 0.274139(15) 0.38466(2)
Zn2 Zn 0.18768(3) 0.262183(16) 0.16365(3)
N1 N 0.42940(19) 0.30385(11) 0.50263(17)
N2 N 0.0980(2) 0.27996(11) 0.03889(18)
O1 O -0.23985(18) 0.68765(9) 0.33724(15)
O2 O -0.0917(2) 0.68398(10) 0.32666(17)
O3 O 0.30600(17) 0.19850(9) 0.38542(15)
O4 O 0.44879(18) 0.19254(10) 0.36216(15)
O5 O 0.33378(17) -0.05645(9) 0.36531(16)
O6 O 0.60172(17) -0.18776(10) 0.19417(15)
O7 O 0.69380(17) -0.19597(9) 0.33603(15)
O8 O 0.21804(17) 0.31078(9) 0.37728(16)
O9 O 0.12389(17) 0.30086(10) 0.23602(16)
O10 O -0.16270(16) 0.43475(9) 0.38431(15)
C1 C 0.5042(3) 0.33780(16) 0.5095(2)
H1 H 0.5131 0.3499 0.4574
C2 C 0.5676(3) 0.35560(16) 0.5876(2)
H2 H 0.6184 0.3789 0.5878
C3 C 0.5572(3) 0.33928(14) 0.6677(2)
C4 C 0.4776(3) 0.30574(17) 0.6601(2)
H3 H 0.4647 0.2947 0.7110
C5 C 0.4181(3) 0.28866(16) 0.5789(2)
H4 H 0.3667 0.2651 0.5767
C6 C 0.6243(3) 0.35393(16) 0.7551(2)
H5 H 0.6073 0.3432 0.8041
C7 C 0.7077(3) 0.38141(17) 0.7707(3)
H6 H 0.7228 0.3927 0.7209
C8 C 0.7793(3) 0.39610(17) 0.8576(3)
C9 C 0.8691(4) 0.4172(2) 0.8614(3)
H7 H 0.8829 0.4232 0.8091
C10 C 0.9398(4) 0.4295(2) 0.9430(4)
H8 H 1.0005 0.4438 0.9454
C11 C 0.9184(5) 0.4204(2) 1.0194(4)
H9 H 0.9653 0.4283 1.0740
C12 C 0.8305(5) 0.4003(2) 1.0168(3)
H10 H 0.8170 0.3952 1.0695
C13 C 0.7606(4) 0.3871(2) 0.9372(3)
H11 H 0.7008 0.3722 0.9363
C14 C 0.1337(3) 0.29465(14) -0.0256(2)
H12 H 0.2008 0.3018 -0.0100
C15 C 0.0778(3) 0.29964(15) -0.1121(2)
H13 H 0.1064 0.3104 -0.1540
C16 C -0.0210(3) 0.28874(16) -0.1378(2)
C17 C -0.0603(3) 0.27547(16) -0.0711(3)
H14 H -0.1277 0.2696 -0.0850
C18 C 0.0008(3) 0.27119(15) 0.0146(3)
H15 H -0.0263 0.2617 0.0582
C19 C -0.0792(3) 0.29104(18) -0.2339(3)
H16 H -0.0515 0.3091 -0.2712
C20 C -0.1635(3) 0.27029(17) -0.2688(3)
H17 H -0.1934 0.2550 -0.2307
C21 C -0.2198(3) 0.26833(18) -0.3673(3)
C22 C -0.1983(3) 0.3019(2) -0.4286(3)
H18 H -0.1461 0.3262 -0.4095
C23 C -0.2548(4) 0.2993(2) -0.5195(3)
H19 H -0.2411 0.3221 -0.5604
C24 C -0.3313(4) 0.2622(2) -0.5466(3)
H20 H -0.3691 0.2597 -0.6063
C25 C -0.3510(4) 0.2294(2) -0.4862(4)
H21 H -0.4021 0.2044 -0.5053
C26 C -0.2972(4) 0.23231(19) -0.3976(3)
H22 H -0.3129 0.2098 -0.3574
C27 C 0.6192(2) -0.18029(12) 0.2758(2)
C28 C 0.5418(2) -0.14950(12) 0.3008(2)
C29 C 0.4560(3) -0.13350(14) 0.2367(2)
C30 C 0.5561(3) -0.13498(16) 0.3878(2)
C31 C 0.4866(3) -0.10525(16) 0.4094(2)
H23 H 0.4958 -0.0967 0.4685
C32 C 0.4041(3) -0.08833(13) 0.3443(2)
C33 C 0.3860(2) -0.10319(14) 0.2574(2)
H24 H 0.3279 -0.0930 0.2135
C34 C 0.3478(2) -0.00115(14) 0.3663(2)
C35 C 0.4262(3) 0.02307(15) 0.3487(2)
H25 H 0.4738 0.0020 0.3363
C36 C 0.4331(2) 0.07878(15) 0.3495(2)
H26 H 0.4856 0.0950 0.3373
H27 H 0.6123 -0.1456 0.4328
C37 C 0.3637(2) 0.11099(13) 0.3682(2)
C38 C 0.2848(2) 0.08563(14) 0.3846(2)
H28 H 0.2365 0.1066 0.3961
C39 C 0.2769(2) 0.03014(14) 0.3841(2)
H29 H 0.2241 0.0138 0.3958
C40 C 0.3750(3) 0.17114(14) 0.3712(2)
C41 C -0.1649(3) 0.66091(15) 0.3344(2)
C42 C 0.1397(3) 0.31630(13) 0.3146(2)
C43 C 0.0566(2) 0.34527(12) 0.3327(2)
C44 C -0.0292(2) 0.35735(13) 0.2657(2)
H30 H -0.0374 0.3457 0.2082
C45 C -0.1031(2) 0.38636(14) 0.2819(2)
H31 H -0.1613 0.3941 0.2363
C46 C -0.0889(2) 0.40369(13) 0.3673(2)
C47 C -0.0075(3) 0.39008(15) 0.4357(2)
H32 H -0.0016 0.4001 0.4935
C48 C 0.0669(3) 0.36115(14) 0.4186(2)
H33 H 0.1238 0.3524 0.4650
C49 C -0.1599(2) 0.48954(14) 0.3694(2)
C50 C -0.0867(2) 0.51493(14) 0.3453(2)
H34 H -0.0355 0.4948 0.3373
C51 C -0.0902(3) 0.57063(14) 0.3332(2)
H35 H -0.0405 0.5878 0.3176
H36 H 0.4438 -0.1438 0.1775
C52 C -0.1661(2) 0.60099(13) 0.3439(2)
C53 C -0.2396(2) 0.57457(14) 0.3672(2)
H37 H -0.2913 0.5945 0.3746
C54 C -0.2370(2) 0.51946(14) 0.3795(2)
H38 H -0.2870 0.5023 0.3946
Zn1A Zn 0.65748(3) -0.225861(15) 0.11534(2)
Zn2A Zn -0.18768(3) 0.762183(16) 0.33635(3)
Zn2A_2 Zn 0.81232(3) -0.237817(16) 0.33635(3)
O1A O 0.23985(18) 0.18765(9) 0.16276(15)
O2A O 0.0917(2) 0.18398(10) 0.17334(17)
O6A O 0.39828(17) 0.31224(10) 0.30583(15)
O7A O 0.30620(17) 0.30403(9) 0.16397(15)
loop_
_geom_bond_atom_site_label_1
_geom_bond_atom_site_label_2
_geom_bond_site_symmetry_1
_geom_bond_site_symmetry_2
Zn1 N1 1_555 1_555
Zn2 N2 1_555 1_555
N1 C1 1_555 1_555
N2 C14 1_555 1_555
O1 C41 1_555 1_555
O2 C41 1_555 1_555
O3 Zn1 1_555 1_555
O4 C40 1_555 1_555
O5 C32 1_555 1_555
O6 C27 1_555 1_555
O7 C27 1_555 1_555
O8 Zn1 1_555 1_555
O9 Zn2 1_555 1_555
O10 C46 1_555 1_555
C1 H1 1_555 1_555
C2 C1 1_555 1_555
H2 C2 1_555 1_555
C3 C2 1_555 1_555
C4 C3 1_555 1_555
H3 C4 1_555 1_555
C5 N1 1_555 1_555
H4 C5 1_555 1_555
C6 C3 1_555 1_555
H5 C6 1_555 1_555
C7 C6 1_555 1_555
H6 C7 1_555 1_555
C8 C7 1_555 1_555
C9 C8 1_555 1_555
H7 C9 1_555 1_555
C10 C9 1_555 1_555
H8 C10 1_555 1_555
C11 C10 1_555 1_555
H9 C11 1_555 1_555
C12 C11 1_555 1_555
H10 C12 1_555 1_555
C13 C8 1_555 1_555
H11 C13 1_555 1_555
C14 H12 1_555 1_555
C15 C14 1_555 1_555
H13 C15 1_555 1_555
C16 C15 1_555 1_555
C17 C16 1_555 1_555
H14 C17 1_555 1_555
C18 N2 1_555 1_555
H15 C18 1_555 1_555
C19 C16 1_555 1_555
H16 C19 1_555 1_555
C20 C19 1_555 1_555
H17 C20 1_555 1_555
C21 C20 1_555 1_555
C22 C21 1_555 1_555
H18 C22 1_555 1_555
C23 C22 1_555 1_555
H19 C23 1_555 1_555
C24 C23 1_555 1_555
H20 C24 1_555 1_555
C25 C24 1_555 1_555
H21 C25 1_555 1_555
C26 C21 1_555 1_555
H22 C26 1_555 1_555
C27 C28 1_555 1_555
C28 C29 1_555 1_555
C29 C33 1_555 1_555
C30 C28 1_555 1_555
C31 C30 1_555 1_555
H23 C31 1_555 1_555
C32 C31 1_555 1_555
C33 C32 1_555 1_555
H24 C33 1_555 1_555
C34 O5 1_555 1_555
C35 C34 1_555 1_555
H25 C35 1_555 1_555
C36 C35 1_555 1_555
H26 C36 1_555 1_555
H27 C30 1_555 1_555
C37 C36 1_555 1_555
C38 C37 1_555 1_555
H28 C38 1_555 1_555
C39 C34 1_555 1_555
H29 C39 1_555 1_555
C40 O3 1_555 1_555
C41 C52 1_555 1_555
C42 O8 1_555 1_555
C43 C42 1_555 1_555
C44 C43 1_555 1_555
H30 C44 1_555 1_555
C45 C44 1_555 1_555
H31 C45 1_555 1_555
C46 C45 1_555 1_555
C47 C46 1_555 1_555
H32 C47 1_555 1_555
C48 C43 1_555 1_555
H33 C48 1_555 1_555
C49 O10 1_555 1_555
C50 C49 1_555 1_555
H34 C50 1_555 1_555
C51 C50 1_555 1_555
H35 C51 1_555 1_555
H36 C29 1_555 1_555
C52 C51 1_555 1_555
C53 C52 1_555 1_555
H37 C53 1_555 1_555
C54 C49 1_555 1_555
H38 C54 1_555 1_555
Zn1A O6 1_555 1_555
Zn2A O1 1_555 1_555
Zn2A_2 O7 1_555 1_555
O1A Zn2 1_555 1_555
O2A Zn2 1_555 1_555
O6A Zn1 1_555 1_555
O7A Zn2 1_555 1_555
O2 Zn2A 1_555 1_555
O9 C42 1_555 1_555
C4 C5 1_555 1_555
C12 C13 1_555 1_555
C17 C18 1_555 1_555
C25 C26 1_555 1_555
C37 C40 1_555 1_555
C38 C39 1_555 1_555
C47 C48 1_555 1_555
C53 C54 1_555 1_555

#END
