
#######################################################################
#
#                 Cambridge Crystallographic Data Centre
#                                CCDC 
#
#######################################################################
#
# If this CIF has been generated from an entry in the Cambridge 
# Structural Database, then it will include bibliographic, chemical, 
# crystal, experimental, refinement or atomic coordinate data resulting 
# from the CCDC's data processing and validation procedures.
#
#######################################################################

data_QUNXED
_symmetry_cell_setting           monoclinic
_symmetry_space_group_name_H-M   'P 21/m'
_symmetry_Int_Tables_number      11
_space_group_name_Hall           '-P 2yb'
loop_
_symmetry_equiv_pos_site_id
_symmetry_equiv_pos_as_xyz
1 x,y,z
2 -x,1/2+y,-z
3 -x,-y,-z
4 x,1/2-y,z
_cell_length_a                   11.498(2)
_cell_length_b                   6.9069(14)
_cell_length_c                   13.575(3)
_cell_angle_alpha                90
_cell_angle_beta                 113.800(3)
_cell_angle_gamma                90
_cell_volume                     986.387
loop_
_atom_site_label
_atom_site_type_symbol
_atom_site_fract_x
_atom_site_fract_y
_atom_site_fract_z
Ag1 Ag 1.02285(5) 0.7500 0.94523(5)
N1 N 0.8398(5) 0.7500 0.9617(5)
N2 N 0.2205(5) 0.7500 0.9568(4)
O1 O 0.9336(4) 0.5939(9) 0.7545(3)
O2 O 0.4271(5) 0.7500 0.4669(5)
O3 O 0.4085(6) 0.7500 0.3001(5)
H1 H 0.3328 0.7500 0.2883
C1 C 0.7362(7) 0.7500 0.8711(7)
H2 H 0.7459 0.7500 0.8063
C2 C 0.6150(7) 0.7500 0.8673(7)
H3 H 0.5458 0.7500 0.8010
C3 C 0.5954(6) 0.7500 0.9600(5)
C4 C 0.7026(7) 0.7500 1.0532(6)
H4 H 0.6955 0.7500 1.1191
C5 C 0.8216(6) 0.7500 1.0507(6)
H5 H 0.8925 0.7500 1.1159
C6 C 0.3230(6) 0.7500 1.0475(6)
H6 H 0.3122 0.7500 1.1118
C7 C 0.4450(6) 0.7500 1.0529(5)
H7 H 0.5138 0.7500 1.1194
C8 C 0.4651(6) 0.7500 0.9592(5)
C9 C 0.3585(6) 0.7500 0.8648(6)
H8 H 0.3668 0.7500 0.7994
C10 C 0.2396(7) 0.7500 0.8659(6)
H9 H 0.1691 0.7500 0.8004
C11 C 0.9036(7) 0.7500 0.7046(7)
C12 C 0.8317(7) 0.7500 0.5831(6)
C13 C 0.6901(6) 0.7500 0.5551(5)
H10 H 0.6676 0.8637 0.5856
C14 C 0.6164(6) 0.7500 0.4327(5)
C15 C 0.4759(7) 0.7500 0.4035(6)
C16 C 0.6510(6) 0.9288(11) 0.3849(4)
H11 H 0.6036 0.9299 0.3074
H12 H 0.6293 1.0446 0.4142
C17 C 0.7914(7) 0.926(2) 0.4117(5)
H13 H 0.8136 1.0414 0.3813
C18 C 0.8636(7) 0.9304(18) 0.5357(5)
H14 H 0.9544 0.9362 0.5549
H15 H 0.8392 1.0446 0.5644
C19 C 0.8248(11) 0.7500 0.3639(9)
H16 H 0.9149 0.7500 0.3797
H17 H 0.7780 0.7500 0.2864
Ag1_2 Ag 0.02285(5) 0.7500 0.94523(5)
N2_2 N 1.2205(5) 0.7500 0.9568(4)
O1C O 0.9336(4) 0.9061(9) 0.7545(3)
H10C H 0.6676 0.6363 0.5856
C16C C 0.6510(6) 0.5712(11) 0.3849(4)
H11C H 0.6036 0.5701 0.3074
H12C H 0.6293 0.4554 0.4142
C17C C 0.7914(7) 0.574(2) 0.4117(5)
H13C H 0.8136 0.4586 0.3813
C18C C 0.8636(7) 0.5696(18) 0.5357(5)
H14C H 0.9544 0.5638 0.5549
H15C H 0.8392 0.4554 0.5644
O4 O 0.8352(5) 0.2500 0.7782(5)
H18 H 0.8764 0.1650 0.7647
H18C H 0.8764 0.3350 0.7647
loop_
_geom_bond_atom_site_label_1
_geom_bond_atom_site_label_2
_geom_bond_site_symmetry_1
_geom_bond_site_symmetry_2
Ag1 N1 1_555 1_555
N1 C1 1_555 1_555
N2 C6 1_555 1_555
O1 Ag1 1_555 1_555
O2 C15 1_555 1_555
O3 H1 1_555 1_555
C1 H2 1_555 1_555
C2 C1 1_555 1_555
H3 C2 1_555 1_555
C3 C2 1_555 1_555
C4 C3 1_555 1_555
H4 C4 1_555 1_555
C5 N1 1_555 1_555
H5 C5 1_555 1_555
C6 H6 1_555 1_555
C7 C6 1_555 1_555
H7 C7 1_555 1_555
C8 C3 1_555 1_555
C9 C8 1_555 1_555
H8 C9 1_555 1_555
C10 N2 1_555 1_555
H9 C10 1_555 1_555
C11 O1 1_555 1_555
C12 C11 1_555 1_555
C13 C12 1_555 1_555
H10 C13 1_555 1_555
C14 C13 1_555 1_555
C15 O3 1_555 1_555
C16 C14 1_555 1_555
H11 C16 1_555 1_555
H12 C16 1_555 1_555
C17 C16 1_555 1_555
H13 C17 1_555 1_555
C18 C12 1_555 1_555
H14 C18 1_555 1_555
H15 C18 1_555 1_555
C19 C17 1_555 1_555
H16 C19 1_555 1_555
H17 C19 1_555 1_555
O4 H18 1_555 1_555
Ag1_2 N2 1_555 1_555
N2_2 Ag1 1_555 1_555
O1C Ag1 1_555 1_555
H10C C13 1_555 1_555
C16C C14 1_555 1_555
H11C C16C 1_555 1_555
H12C C16C 1_555 1_555
C17C C19 1_555 1_555
H13C C17C 1_555 1_555
C18C C12 1_555 1_555
H14C C18C 1_555 1_555
H15C C18C 1_555 1_555
H18C O4 1_555 1_555
C4 C5 1_555 1_555
C7 C8 1_555 1_555
C9 C10 1_555 1_555
C11 O1C 1_555 1_555
C14 C15 1_555 1_555
C17 C18 1_555 1_555
C16C C17C 1_555 1_555
C17C C18C 1_555 1_555

#END
