
#######################################################################
#
#                 Cambridge Crystallographic Data Centre
#                                CCDC 
#
#######################################################################
#
# If this CIF has been generated from an entry in the Cambridge 
# Structural Database, then it will include bibliographic, chemical, 
# crystal, experimental, refinement or atomic coordinate data resulting 
# from the CCDC's data processing and validation procedures.
#
#######################################################################

data_QUNZOP
_symmetry_cell_setting           triclinic
_symmetry_space_group_name_H-M   'P -1'
_symmetry_Int_Tables_number      2
_space_group_name_Hall           '-P 1'
loop_
_symmetry_equiv_pos_site_id
_symmetry_equiv_pos_as_xyz
1 x,y,z
2 -x,-y,-z
_cell_length_a                   6.7301(1)
_cell_length_b                   7.0910(1)
_cell_length_c                   8.6218(2)
_cell_angle_alpha                109.184(1)
_cell_angle_beta                 90.647(1)
_cell_angle_gamma                107.858(1)
_cell_volume                     367.002
loop_
_atom_site_label
_atom_site_type_symbol
_atom_site_fract_x
_atom_site_fract_y
_atom_site_fract_z
Co1 Co 0.5000 0.5000 0.5000
O1 O 0.18205(18) 0.41596(18) 0.51128(17)
N1 N 0.5038(2) 0.80471(18) 0.50002(16)
N2 N 0.4320(2) 0.37233(19) 0.23977(16)
O2 O 0.1924(2) -0.09267(17) -0.03427(15)
N3 N 0.2032(2) 0.0174(2) -0.12194(16)
N4 N 0.2971(2) 0.2300(2) -0.05824(16)
C1 C 0.6329(2) 0.9869(2) 0.60885(19)
H1 H 0.7296 0.9829 0.6878
O3 O 0.1293(2) -0.05600(19) -0.26952(15)
C2 C 0.3718(2) 0.8199(2) 0.39145(19)
H2 H 0.2786 0.6942 0.3121
C3 C 0.3653(2) 0.2940(2) 0.10178(19)
H3 H 0.140(4) 0.428(4) 0.601(3)
H4 H 0.097(4) 0.329(4) 0.441(3)
Co1_2 Co 0.5000 1.5000 0.5000
O1A O 0.81795(18) 0.58404(18) 0.48872(17)
N1A N 0.4962(2) 1.19529(18) 0.49998(16)
N1A_2 N 0.4962(2) 0.19529(18) 0.49998(16)
N2A N 0.5680(2) 0.62767(19) 0.76023(16)
O2A O 0.8076(2) 1.09267(17) 1.03427(15)
N3A N 0.7968(2) 0.9826(2) 1.12194(16)
N4A N 0.7029(2) 0.7700(2) 1.05824(16)
C1A C 0.3671(2) 1.0131(2) 0.39115(19)
H1A H 0.2704 1.0171 0.3122
O3A O 0.8707(2) 1.05600(19) 1.26952(15)
C2A C 0.6282(2) 1.1801(2) 0.60855(19)
H2A H 0.7214 1.3058 0.6879
C3A C 0.6347(2) 0.7060(2) 0.89822(19)
H3A H 0.860(4) 0.572(4) 0.399(3)
H4A H 0.903(4) 0.671(4) 0.559(3)
O4 O 0.07090(19) 0.4553(2) 0.81246(15)
H5 H 0.143(4) 0.404(4) 0.856(3)
H6 H 0.107(4) 0.574(4) 0.865(3)
loop_
_geom_bond_atom_site_label_1
_geom_bond_atom_site_label_2
_geom_bond_site_symmetry_1
_geom_bond_site_symmetry_2
Co1 O1 1_555 1_555
O1 H3 1_555 1_555
N1 Co1 1_555 1_555
N2 Co1 1_555 1_555
O2 N3 1_555 1_555
N3 N4 1_555 1_555
N4 C3 1_555 1_555
C1 N1 1_555 1_555
H1 C1 1_555 1_555
O3 N3 1_555 1_555
C2 N1 1_555 1_555
H2 C2 1_555 1_555
C3 N2 1_555 1_555
O4 H5 1_555 1_555
H4 O1 1_555 1_555
H6 O4 1_555 1_555
Co1_2 N1A 1_555 1_555
O1A Co1 1_555 1_555
N1A C1A 1_555 1_555
N1A_2 Co1 1_555 1_555
N2A Co1 1_555 1_555
O2A N3A 1_555 1_555
N3A N4A 1_555 1_555
N4A C3A 1_555 1_555
C1A C2 1_555 1_555
H1A C1A 1_555 1_555
O3A N3A 1_555 1_555
C2A C1 1_555 1_555
H2A C2A 1_555 1_555
C3A N2A 1_555 1_555
H3A O1A 1_555 1_555
H4A O1A 1_555 1_555
N1A C2A 1_555 1_555

#END
