
#######################################################################
#
#                 Cambridge Crystallographic Data Centre
#                                CCDC 
#
#######################################################################
#
# If this CIF has been generated from an entry in the Cambridge 
# Structural Database, then it will include bibliographic, chemical, 
# crystal, experimental, refinement or atomic coordinate data resulting 
# from the CCDC's data processing and validation procedures.
#
#######################################################################

data_QUNZIJ
_symmetry_cell_setting           triclinic
_symmetry_space_group_name_H-M   'P -1'
_symmetry_Int_Tables_number      2
_space_group_name_Hall           '-P 1'
loop_
_symmetry_equiv_pos_site_id
_symmetry_equiv_pos_as_xyz
1 x,y,z
2 -x,-y,-z
_cell_length_a                   6.3272(2)
_cell_length_b                   6.8535(2)
_cell_length_c                   6.9057(2)
_cell_angle_alpha                112.863(2)
_cell_angle_beta                 102.779(2)
_cell_angle_gamma                103.167(2)
_cell_volume                     252.162
loop_
_atom_site_label
_atom_site_type_symbol
_atom_site_fract_x
_atom_site_fract_y
_atom_site_fract_z
Cu1 Cu 0.5000 0.5000 0.5000
O1 O 0.9010(3) 0.6651(3) 0.7333(3)
N1 N 0.4981(4) 0.7984(3) 0.5021(3)
N2 N 1.3719(4) 0.5658(4) 0.7437(4)
O2 O 0.8909(3) 0.8100(3) 1.0735(3)
C1 C 0.3298(5) 0.8802(4) 0.5377(4)
H1 H 0.2066 0.7988 0.5650
N3 N 0.9875(4) 0.7334(4) 0.9412(4)
N4 N 1.1968(4) 0.7228(4) 1.0266(4)
C2 C 0.6677(5) 0.9183(4) 0.4647(4)
H2 H 0.7896 0.8642 0.4392
C3 C 1.2808(4) 0.6372(4) 0.8679(4)
Cu1_2 Cu 1.5000 0.5000 0.5000
Cu1_3 Cu 0.5000 1.5000 0.5000
Cu1_4 Cu -0.5000 0.5000 0.5000
O1A O 0.0990(3) 0.3349(3) 0.2667(3)
N1A N 0.5019(4) 1.2016(3) 0.4979(3)
N1A_2 N 0.5019(4) 0.2016(3) 0.4979(3)
N2A N -0.3719(4) 0.4342(4) 0.2563(4)
N2_2 N 0.3719(4) 0.5658(4) 0.7437(4)
N2A_2 N 0.6281(4) 0.4342(4) 0.2563(4)
O2A O 0.1091(3) 0.1900(3) -0.0735(3)
C1A C 0.6702(5) 1.1198(4) 0.4623(4)
H1A H 0.7934 1.2012 0.4350
N3A N 0.0125(4) 0.2666(4) 0.0588(4)
N4A N -0.1968(4) 0.2772(4) -0.0266(4)
C2A C 0.3323(5) 1.0817(4) 0.5353(4)
H2A H 0.2104 1.1358 0.5608
C3A C -0.2808(4) 0.3628(4) 0.1321(4)
loop_
_geom_bond_atom_site_label_1
_geom_bond_atom_site_label_2
_geom_bond_site_symmetry_1
_geom_bond_site_symmetry_2
Cu1 O1 1_555 1_555
O1 N3 1_555 1_555
N1 Cu1 1_555 1_555
N2 C3 1_555 1_555
O2 N3 1_555 1_555
C1 N1 1_555 1_555
H1 C1 1_555 1_555
N3 N4 1_555 1_555
N4 C3 1_555 1_555
C2 N1 1_555 1_555
H2 C2 1_555 1_555
Cu1_2 N2 1_555 1_555
Cu1_3 N1A 1_555 1_555
Cu1_4 N2A 1_555 1_555
O1A Cu1 1_555 1_555
N1A C1A 1_555 1_555
N1A_2 Cu1 1_555 1_555
N2A C3A 1_555 1_555
N2_2 Cu1 1_555 1_555
N2A_2 Cu1 1_555 1_555
O2A N3A 1_555 1_555
C1A C2 1_555 1_555
H1A C1A 1_555 1_555
N3A O1A 1_555 1_555
N4A N3A 1_555 1_555
C2A C1 1_555 1_555
H2A C2A 1_555 1_555
C3A N4A 1_555 1_555
N1A C2A 1_555 1_555

#END
