
#######################################################################
#
#                 Cambridge Crystallographic Data Centre
#                                CCDC 
#
#######################################################################
#
# If this CIF has been generated from an entry in the Cambridge 
# Structural Database, then it will include bibliographic, chemical, 
# crystal, experimental, refinement or atomic coordinate data resulting 
# from the CCDC's data processing and validation procedures.
#
#######################################################################

data_QUNZUV
_symmetry_cell_setting           triclinic
_symmetry_space_group_name_H-M   'P -1'
_symmetry_Int_Tables_number      2
_space_group_name_Hall           '-P 1'
loop_
_symmetry_equiv_pos_site_id
_symmetry_equiv_pos_as_xyz
1 x,y,z
2 -x,-y,-z
_cell_length_a                   6.7652(1)
_cell_length_b                   7.1822(1)
_cell_length_c                   8.6218(2)
_cell_angle_alpha                109.404(1)
_cell_angle_beta                 90.408(1)
_cell_angle_gamma                108.002(1)
_cell_volume                     372.961
loop_
_atom_site_label
_atom_site_type_symbol
_atom_site_fract_x
_atom_site_fract_y
_atom_site_fract_z
Fe1 Fe 0.5000 0.5000 0.5000
O1 O 0.17946(16) 0.41483(17) 0.51096(15)
N1 N 0.50397(18) 0.80725(17) 0.50045(14)
O3 O 0.19300(19) -0.09039(16) -0.03919(14)
N2 N 0.43115(19) 0.37130(17) 0.23587(15)
N3 N 0.19846(19) 0.01923(19) -0.12542(15)
N4 N 0.2883(2) 0.22991(19) -0.06024(15)
O4 O 0.12285(19) -0.05288(18) -0.27225(14)
C1 C 0.6301(2) 0.9874(2) 0.60980(17)
H1 H 0.7250 0.9839 0.6897
C2 C 0.3739(2) 0.8214(2) 0.39024(17)
H2 H 0.2821 0.6969 0.3101
C3 C 0.3611(2) 0.2933(2) 0.09853(18)
H3 H 0.134(3) 0.424(3) 0.603(3)
H4 H 0.095(4) 0.331(4) 0.442(3)
Fe1_2 Fe 0.5000 1.5000 0.5000
O1A O 0.82054(16) 0.58517(17) 0.48904(15)
N1A N 0.49603(18) 1.19275(17) 0.49955(14)
N1A_2 N 0.49603(18) 0.19275(17) 0.49955(14)
O3A O 0.80700(19) 1.09039(16) 1.03919(14)
N2A N 0.56885(19) 0.62870(17) 0.76413(15)
N3A N 0.80154(19) 0.98077(19) 1.12542(15)
N4A N 0.7117(2) 0.77009(19) 1.06024(15)
O4A O 0.87715(19) 1.05288(18) 1.27225(14)
C1A C 0.3699(2) 1.0126(2) 0.39020(17)
H1A H 0.2750 1.0161 0.3103
C2A C 0.6261(2) 1.1786(2) 0.60976(17)
H2A H 0.7179 1.3031 0.6899
C3A C 0.6389(2) 0.7067(2) 0.90147(18)
H3A H 0.866(3) 0.576(3) 0.397(3)
H4A H 0.905(4) 0.669(4) 0.558(3)
O2 O 0.06931(17) 0.45923(19) 0.81240(14)
H5 H 0.132(4) 0.407(4) 0.851(3)
H6 H 0.115(4) 0.587(4) 0.864(3)
loop_
_geom_bond_atom_site_label_1
_geom_bond_atom_site_label_2
_geom_bond_site_symmetry_1
_geom_bond_site_symmetry_2
Fe1 O1 1_555 1_555
O1 H3 1_555 1_555
O2 H5 1_555 1_555
N1 Fe1 1_555 1_555
O3 N3 1_555 1_555
N2 Fe1 1_555 1_555
N3 N4 1_555 1_555
N4 C3 1_555 1_555
O4 N3 1_555 1_555
C1 N1 1_555 1_555
H1 C1 1_555 1_555
C2 N1 1_555 1_555
H2 C2 1_555 1_555
C3 N2 1_555 1_555
H4 O1 1_555 1_555
H6 O2 1_555 1_555
Fe1_2 N1A 1_555 1_555
O1A Fe1 1_555 1_555
N1A C1A 1_555 1_555
N1A_2 Fe1 1_555 1_555
O3A N3A 1_555 1_555
N2A Fe1 1_555 1_555
N3A N4A 1_555 1_555
N4A C3A 1_555 1_555
O4A N3A 1_555 1_555
C1A C2 1_555 1_555
H1A C1A 1_555 1_555
C2A C1 1_555 1_555
H2A C2A 1_555 1_555
C3A N2A 1_555 1_555
H3A O1A 1_555 1_555
H4A O1A 1_555 1_555
N1A C2A 1_555 1_555

#END
