
#######################################################################
#
#                 Cambridge Crystallographic Data Centre
#                                CCDC 
#
#######################################################################
#
# If this CIF has been generated from an entry in the Cambridge 
# Structural Database, then it will include bibliographic, chemical, 
# crystal, experimental, refinement or atomic coordinate data resulting 
# from the CCDC's data processing and validation procedures.
#
#######################################################################

data_QUPBIN
_symmetry_cell_setting           monoclinic
_symmetry_space_group_name_H-M   'P 2/c'
_symmetry_Int_Tables_number      13
_space_group_name_Hall           '-P 2yc'
loop_
_symmetry_equiv_pos_site_id
_symmetry_equiv_pos_as_xyz
1 x,y,z
2 -x,y,1/2-z
3 -x,-y,-z
4 x,-y,1/2+z
_cell_length_a                   7.3102(1)
_cell_length_b                   11.5900(2)
_cell_length_c                   15.2784(3)
_cell_angle_alpha                90
_cell_angle_beta                 101.865(1)
_cell_angle_gamma                90
_cell_volume                     1266.81
loop_
_atom_site_label
_atom_site_type_symbol
_atom_site_fract_x
_atom_site_fract_y
_atom_site_fract_z
Mn1 Mn 0.5000 0.34288(3) 0.2500
N1 N 0.5000 0.53633(18) 0.2500
C1 C 0.5915(2) 0.59692(16) 0.32069(12)
H1 H 0.6571 0.5557 0.3712
N2 N 0.5000 1.14855(17) 0.2500
C2 C 0.5000 0.7785(2) 0.2500
C3 C 0.5000 0.9068(2) 0.2500
C4 C 0.5385(3) 0.96904(16) 0.32917(12)
H2 H 0.5650 0.9300 0.3850
C5 C 0.5948(2) 0.71575(15) 0.32355(12)
H3 H 0.6610 0.7547 0.3751
C6 C 0.5382(3) 1.08817(16) 0.32633(12)
H4 H 0.5666 1.1293 0.3812
O1 O 0.4553(2) 0.35111(11) 0.38644(9)
H5 H 0.353(4) 0.3288(19) 0.4002(16)
H6 H 0.550(3) 0.321(2) 0.4300(17)
N3 N 0.8058(2) 0.33806(13) 0.30806(11)
N4 N 1.1000(2) 0.27189(14) 0.40653(11)
C7 C 0.9389(3) 0.30091(17) 0.35320(13)
N5 N 1.1141(2) 0.15491(14) 0.41973(11)
O2 O 1.2621(2) 0.12197(14) 0.46767(10)
O3 O 0.9856(2) 0.09028(13) 0.38576(11)
Mn1_2 Mn 0.5000 1.34288(3) 0.2500
C1A C 0.4085(2) 0.59692(16) 0.17931(12)
H1A H 0.3429 0.5557 0.1288
N2_2 N 0.5000 0.14855(17) 0.2500
C4A C 0.4615(3) 0.96904(16) 0.17083(12)
H2A H 0.4350 0.9300 0.1150
C5A C 0.4052(2) 0.71575(15) 0.17645(12)
H3A H 0.3390 0.7547 0.1249
C6A C 0.4618(3) 1.08817(16) 0.17367(12)
H4A H 0.4334 1.1293 0.1188
O1A O 0.5447(2) 0.35111(11) 0.11356(9)
H5A H 0.647(4) 0.3288(19) 0.0998(16)
H6A H 0.450(3) 0.321(2) 0.0700(17)
N3A N 0.1942(2) 0.33806(13) 0.19194(11)
N4A N -0.1000(2) 0.27189(14) 0.09347(11)
C7A C 0.0611(3) 0.30091(17) 0.14680(13)
N5A N -0.1141(2) 0.15491(14) 0.08027(11)
O2A O -0.2621(2) 0.12197(14) 0.03233(10)
O3A O 0.0144(2) 0.09028(13) 0.11424(11)
C8 C 0.1309(2) 0.60987(17) 0.33786(12)
H7 H 0.1117 0.5385 0.3068
C9 C 0.2348(3) 0.61456(17) 0.42412(13)
H8 H 0.2861 0.5446 0.4510
N6 N 0.2677(2) 0.71159(14) 0.47225(10)
C10 C 0.0846(3) 0.81215(17) 0.34767(13)
H9 H 0.0323 0.8831 0.3233
C11 C 0.0544(2) 0.71146(16) 0.29692(12)
C12 C 0.1910(3) 0.80843(18) 0.43360(13)
H10 H 0.2106 0.8782 0.4669
C8A C -0.1309(2) 0.60987(17) 0.16214(12)
H7A H -0.1117 0.5385 0.1932
C9A C -0.2348(3) 0.61456(17) 0.07588(13)
H8A H -0.2861 0.5446 0.0490
N6A N -0.2677(2) 0.71159(14) 0.02775(10)
C10A C -0.0846(3) 0.81215(17) 0.15233(13)
H9A H -0.0323 0.8831 0.1767
C11A C -0.0544(2) 0.71146(16) 0.20308(12)
C12A C -0.1910(3) 0.80843(18) 0.06640(13)
H10A H -0.2106 0.8782 0.0331
loop_
_geom_bond_atom_site_label_1
_geom_bond_atom_site_label_2
_geom_bond_site_symmetry_1
_geom_bond_site_symmetry_2
Mn1 N1 1_555 1_555
N1 C1 1_555 1_555
C1 H1 1_555 1_555
N2 C6 1_555 1_555
C2 C3 1_555 1_555
C3 C4 1_555 1_555
C4 H2 1_555 1_555
C5 C1 1_555 1_555
H3 C5 1_555 1_555
C6 C4 1_555 1_555
H4 C6 1_555 1_555
O1 Mn1 1_555 1_555
H5 O1 1_555 1_555
H6 O1 1_555 1_555
N3 Mn1 1_555 1_555
N4 C7 1_555 1_555
C7 N3 1_555 1_555
N5 N4 1_555 1_555
O2 N5 1_555 1_555
O3 N5 1_555 1_555
C8 H7 1_555 1_555
C9 C8 1_555 1_555
H8 C9 1_555 1_555
N6 C9 1_555 1_555
C10 H9 1_555 1_555
C11 C8 1_555 1_555
C12 N6 1_555 1_555
H10 C12 1_555 1_555
Mn1_2 N2 1_555 1_555
C1A N1 1_555 1_555
H1A C1A 1_555 1_555
N2_2 Mn1 1_555 1_555
C4A C3 1_555 1_555
H2A C4A 1_555 1_555
C5A C2 1_555 1_555
H3A C5A 1_555 1_555
C6A N2 1_555 1_555
H4A C6A 1_555 1_555
O1A Mn1 1_555 1_555
H5A O1A 1_555 1_555
H6A O1A 1_555 1_555
N3A Mn1 1_555 1_555
N4A C7A 1_555 1_555
C7A N3A 1_555 1_555
N5A N4A 1_555 1_555
O2A N5A 1_555 1_555
O3A N5A 1_555 1_555
C8A H7A 1_555 1_555
C9A C8A 1_555 1_555
H8A C9A 1_555 1_555
N6A C9A 1_555 1_555
C10A H9A 1_555 1_555
C11A C11 1_555 1_555
C12A N6A 1_555 1_555
H10A C12A 1_555 1_555
C2 C5 1_555 1_555
C10 C11 1_555 1_555
C10 C12 1_555 1_555
C1A C5A 1_555 1_555
C4A C6A 1_555 1_555
C8A C11A 1_555 1_555
C10A C11A 1_555 1_555
C10A C12A 1_555 1_555

#END
