
#######################################################################
#
#                 Cambridge Crystallographic Data Centre
#                                CCDC 
#
#######################################################################
#
# If this CIF has been generated from an entry in the Cambridge 
# Structural Database, then it will include bibliographic, chemical, 
# crystal, experimental, refinement or atomic coordinate data resulting 
# from the CCDC's data processing and validation procedures.
#
#######################################################################

data_QUPBAF
_symmetry_cell_setting           monoclinic
_symmetry_space_group_name_H-M   'P 2/c'
_symmetry_Int_Tables_number      13
_space_group_name_Hall           '-P 2yc'
loop_
_symmetry_equiv_pos_site_id
_symmetry_equiv_pos_as_xyz
1 x,y,z
2 -x,y,1/2-z
3 -x,-y,-z
4 x,-y,1/2+z
_cell_length_a                   7.2816(2)
_cell_length_b                   11.3892(2)
_cell_length_c                   15.2587(5)
_cell_angle_alpha                90
_cell_angle_beta                 102.407(1)
_cell_angle_gamma                90
_cell_volume                     1235.88
loop_
_atom_site_label
_atom_site_type_symbol
_atom_site_fract_x
_atom_site_fract_y
_atom_site_fract_z
Co1 Co 0.5000 0.34170(5) 0.2500
O1 O 0.9892(3) 0.08870(19) 0.38836(16)
N1 N 0.7951(3) 0.3347(2) 0.30641(15)
O2 O 1.2700(3) 0.12619(19) 0.46649(15)
N2 N 1.0994(3) 0.2752(2) 0.40291(16)
C1 C 0.9329(4) 0.3011(2) 0.35085(19)
N3 N 1.1173(4) 0.1571(2) 0.41882(16)
O3 O 0.4559(3) 0.35011(17) 0.37988(13)
N4 N 0.5000 0.5294(3) 0.2500
N5 N 0.5000 1.1526(3) 0.2500
C2 C 0.5942(4) 0.5906(2) 0.32073(19)
H1 H 0.6621 0.5486 0.3711
C3 C 0.5970(4) 0.7112(2) 0.32376(19)
H2 H 0.6645 0.7507 0.3756
C4 C 0.5000 0.7755(3) 0.2500
C5 C 0.5000 0.9058(3) 0.2500
C6 C 0.5461(4) 0.9703(2) 0.32923(19)
H3 H 0.5775 0.9309 0.3854
C7 C 0.5460(4) 1.0907(2) 0.32615(19)
H4 H 0.5805 1.1324 0.3811
H9 H 0.537(5) 0.318(3) 0.424(2)
H10 H 0.350(6) 0.327(3) 0.391(2)
Co1_2 Co 0.5000 1.34170(5) 0.2500
O1A O 0.0108(3) 0.08870(19) 0.11164(16)
N1A N 0.2049(3) 0.3347(2) 0.19359(15)
O2A O -0.2700(3) 0.12619(19) 0.03351(15)
N2A N -0.0994(3) 0.2752(2) 0.09709(16)
C1A C 0.0671(4) 0.3011(2) 0.14915(19)
N3A N -0.1173(4) 0.1571(2) 0.08118(16)
O3A O 0.5441(3) 0.35011(17) 0.12012(13)
N5_2 N 0.5000 0.1526(3) 0.2500
C2A C 0.4058(4) 0.5906(2) 0.17927(19)
H1A H 0.3379 0.5486 0.1289
C3A C 0.4030(4) 0.7112(2) 0.17624(19)
H2A H 0.3355 0.7507 0.1244
C6A C 0.4539(4) 0.9703(2) 0.17077(19)
H3A H 0.4225 0.9309 0.1146
C7A C 0.4540(4) 1.0907(2) 0.17385(19)
H4A H 0.4195 1.1324 0.1189
H9A H 0.463(5) 0.318(3) 0.076(2)
H10A H 0.650(6) 0.327(3) 0.109(2)
N6 N 0.2709(3) 0.7086(2) 0.47389(16)
C8 C 0.1937(4) 0.8065(3) 0.4345(2)
H5 H 0.2133 0.8777 0.4677
C9 C 0.0861(4) 0.8100(2) 0.3478(2)
H6 H 0.0336 0.8822 0.3230
C10 C 0.0553(4) 0.7076(2) 0.29722(19)
C11 C 0.1323(4) 0.6047(3) 0.33875(19)
H7 H 0.1128 0.5319 0.3078
C12 C 0.2378(4) 0.6097(3) 0.4258(2)
H8 H 0.2898 0.5387 0.4530
N6A N -0.2709(3) 0.7086(2) 0.02611(16)
C8A C -0.1937(4) 0.8065(3) 0.0655(2)
H5A H -0.2133 0.8777 0.0323
C9A C -0.0861(4) 0.8100(2) 0.1522(2)
H6A H -0.0336 0.8822 0.1770
C10A C -0.0553(4) 0.7076(2) 0.20278(19)
C11A C -0.1323(4) 0.6047(3) 0.16125(19)
H7A H -0.1128 0.5319 0.1922
C12A C -0.2378(4) 0.6097(3) 0.0742(2)
H8A H -0.2898 0.5387 0.0470
loop_
_geom_bond_atom_site_label_1
_geom_bond_atom_site_label_2
_geom_bond_site_symmetry_1
_geom_bond_site_symmetry_2
Co1 N1 1_555 1_555
O1 N3 1_555 1_555
N1 C1 1_555 1_555
O2 N3 1_555 1_555
N2 C1 1_555 1_555
N3 N2 1_555 1_555
O3 Co1 1_555 1_555
N4 Co1 1_555 1_555
N5 C7 1_555 1_555
C2 N4 1_555 1_555
H1 C2 1_555 1_555
C3 C2 1_555 1_555
H2 C3 1_555 1_555
C4 C3 1_555 1_555
C5 C4 1_555 1_555
C6 C5 1_555 1_555
H3 C6 1_555 1_555
C7 C6 1_555 1_555
H4 C7 1_555 1_555
N6 C8 1_555 1_555
C8 H5 1_555 1_555
C9 C8 1_555 1_555
H6 C9 1_555 1_555
C10 C9 1_555 1_555
C11 C10 1_555 1_555
H7 C11 1_555 1_555
C12 N6 1_555 1_555
H8 C12 1_555 1_555
H9 O3 1_555 1_555
H10 O3 1_555 1_555
Co1_2 N5 1_555 1_555
O1A N3A 1_555 1_555
N1A Co1 1_555 1_555
O2A N3A 1_555 1_555
N2A C1A 1_555 1_555
C1A N1A 1_555 1_555
N3A N2A 1_555 1_555
O3A Co1 1_555 1_555
N5_2 Co1 1_555 1_555
C2A N4 1_555 1_555
H1A C2A 1_555 1_555
C3A C4 1_555 1_555
H2A C3A 1_555 1_555
C6A C5 1_555 1_555
H3A C6A 1_555 1_555
C7A N5 1_555 1_555
H4A C7A 1_555 1_555
N6A C8A 1_555 1_555
C8A H5A 1_555 1_555
C9A C8A 1_555 1_555
H6A C9A 1_555 1_555
C10A C10 1_555 1_555
C11A C10A 1_555 1_555
H7A C11A 1_555 1_555
C12A N6A 1_555 1_555
H8A C12A 1_555 1_555
H9A O3A 1_555 1_555
H10A O3A 1_555 1_555
C11 C12 1_555 1_555
C2A C3A 1_555 1_555
C6A C7A 1_555 1_555
C9A C10A 1_555 1_555
C11A C12A 1_555 1_555

#END
