
#######################################################################
#
#                 Cambridge Crystallographic Data Centre
#                                CCDC 
#
#######################################################################
#
# If this CIF has been generated from an entry in the Cambridge 
# Structural Database, then it will include bibliographic, chemical, 
# crystal, experimental, refinement or atomic coordinate data resulting 
# from the CCDC's data processing and validation procedures.
#
#######################################################################

data_QUPBEJ
_symmetry_cell_setting           monoclinic
_symmetry_space_group_name_H-M   'P 2/c'
_symmetry_Int_Tables_number      13
_space_group_name_Hall           '-P 2yc'
loop_
_symmetry_equiv_pos_site_id
_symmetry_equiv_pos_as_xyz
1 x,y,z
2 -x,y,1/2-z
3 -x,-y,-z
4 x,-y,1/2+z
_cell_length_a                   7.2742(1)
_cell_length_b                   11.4850(2)
_cell_length_c                   15.2616(3)
_cell_angle_alpha                90
_cell_angle_beta                 102.364(1)
_cell_angle_gamma                90
_cell_volume                     1245.45
loop_
_atom_site_label
_atom_site_type_symbol
_atom_site_fract_x
_atom_site_fract_y
_atom_site_fract_z
Fe1 Fe 0.5000 0.34115(3) 0.2500
N1 N 0.5000 0.53080(18) 0.2500
C1 C 0.5936(2) 0.59217(15) 0.32059(12)
H1 H 0.6615 0.5506 0.3711
N2 N 0.5000 1.14965(18) 0.2500
C2 C 0.5000 0.7758(2) 0.2500
C3 C 0.5000 0.9049(2) 0.2500
C4 C 0.5435(3) 0.96831(16) 0.32954(12)
H2 H 0.5732 0.9292 0.3857
C5 C 0.5965(2) 0.71227(15) 0.32371(12)
H3 H 0.6637 0.7515 0.3756
C6 C 0.5433(3) 1.08817(16) 0.32612(12)
H4 H 0.5757 1.1297 0.3811
O1 O 0.4567(2) 0.34898(11) 0.38116(8)
H5 H 0.358(4) 0.328(2) 0.3881(16)
H6 H 0.546(4) 0.322(2) 0.4281(19)
N3 N 0.7985(2) 0.33329(13) 0.30644(10)
N4 N 1.1011(2) 0.27256(14) 0.40378(11)
C7 C 0.9360(2) 0.29901(15) 0.35122(12)
N5 N 1.1186(2) 0.15490(15) 0.41925(11)
O2 O 1.2705(2) 0.12380(13) 0.46653(10)
O3 O 0.9898(2) 0.08791(12) 0.38776(11)
Fe1_2 Fe 0.5000 1.34115(3) 0.2500
C1A C 0.4064(2) 0.59217(15) 0.17941(12)
H1A H 0.3385 0.5506 0.1289
N2_2 N 0.5000 0.14965(18) 0.2500
C4A C 0.4565(3) 0.96831(16) 0.17046(12)
H2A H 0.4268 0.9292 0.1143
C5A C 0.4035(2) 0.71227(15) 0.17629(12)
H3A H 0.3363 0.7515 0.1244
C6A C 0.4567(3) 1.08817(16) 0.17388(12)
H4A H 0.4243 1.1297 0.1189
O1A O 0.5433(2) 0.34898(11) 0.11884(8)
H5A H 0.642(4) 0.328(2) 0.1119(16)
H6A H 0.454(4) 0.322(2) 0.0719(19)
N3A N 0.2015(2) 0.33329(13) 0.19356(10)
N4A N -0.1011(2) 0.27256(14) 0.09622(11)
C7A C 0.0640(2) 0.29901(15) 0.14878(12)
N5A N -0.1186(2) 0.15490(15) 0.08075(11)
O2A O -0.2705(2) 0.12380(13) 0.03347(10)
O3A O 0.0102(2) 0.08791(12) 0.11224(11)
C8 C 0.1324(2) 0.60528(16) 0.33850(12)
H7 H 0.1133 0.5332 0.3073
C9 C 0.2375(3) 0.60991(17) 0.42535(12)
H8 H 0.2892 0.5394 0.4524
N6 N 0.2707(2) 0.70806(14) 0.47363(10)
C10 C 0.0854(3) 0.80936(16) 0.34769(12)
H9 H 0.0327 0.8809 0.3230
C11 C 0.0548(2) 0.70763(16) 0.29708(12)
C12 C 0.1933(3) 0.80584(17) 0.43440(13)
H10 H 0.2132 0.8764 0.4676
C8A C -0.1324(2) 0.60528(16) 0.16150(12)
H7A H -0.1133 0.5332 0.1927
C9A C -0.2375(3) 0.60991(17) 0.07465(12)
H8A H -0.2892 0.5394 0.0476
N6A N -0.2707(2) 0.70806(14) 0.02637(10)
C10A C -0.0854(3) 0.80936(16) 0.15231(12)
H9A H -0.0327 0.8809 0.1770
C11A C -0.0548(2) 0.70763(16) 0.20292(12)
C12A C -0.1933(3) 0.80584(17) 0.06560(13)
H10A H -0.2132 0.8764 0.0324
loop_
_geom_bond_atom_site_label_1
_geom_bond_atom_site_label_2
_geom_bond_site_symmetry_1
_geom_bond_site_symmetry_2
Fe1 N1 1_555 1_555
N1 C1 1_555 1_555
C1 H1 1_555 1_555
N2 C6 1_555 1_555
C2 C3 1_555 1_555
C3 C4 1_555 1_555
C4 H2 1_555 1_555
C5 C1 1_555 1_555
H3 C5 1_555 1_555
C6 C4 1_555 1_555
H4 C6 1_555 1_555
O1 Fe1 1_555 1_555
H5 O1 1_555 1_555
H6 O1 1_555 1_555
N3 Fe1 1_555 1_555
N4 C7 1_555 1_555
C7 N3 1_555 1_555
N5 N4 1_555 1_555
O2 N5 1_555 1_555
O3 N5 1_555 1_555
C8 H7 1_555 1_555
C9 C8 1_555 1_555
H8 C9 1_555 1_555
N6 C9 1_555 1_555
C10 H9 1_555 1_555
C11 C8 1_555 1_555
C12 N6 1_555 1_555
H10 C12 1_555 1_555
Fe1_2 N2 1_555 1_555
C1A N1 1_555 1_555
H1A C1A 1_555 1_555
N2_2 Fe1 1_555 1_555
C4A C3 1_555 1_555
H2A C4A 1_555 1_555
C5A C2 1_555 1_555
H3A C5A 1_555 1_555
C6A N2 1_555 1_555
H4A C6A 1_555 1_555
O1A Fe1 1_555 1_555
H5A O1A 1_555 1_555
H6A O1A 1_555 1_555
N3A Fe1 1_555 1_555
N4A C7A 1_555 1_555
C7A N3A 1_555 1_555
N5A N4A 1_555 1_555
O2A N5A 1_555 1_555
O3A N5A 1_555 1_555
C8A H7A 1_555 1_555
C9A C8A 1_555 1_555
H8A C9A 1_555 1_555
N6A C9A 1_555 1_555
C10A H9A 1_555 1_555
C11A C11 1_555 1_555
C12A N6A 1_555 1_555
H10A C12A 1_555 1_555
C2 C5 1_555 1_555
C10 C11 1_555 1_555
C10 C12 1_555 1_555
C1A C5A 1_555 1_555
C4A C6A 1_555 1_555
C8A C11A 1_555 1_555
C10A C11A 1_555 1_555
C10A C12A 1_555 1_555

#END
