
#######################################################################
#
#                 Cambridge Crystallographic Data Centre
#                                CCDC 
#
#######################################################################
#
# If this CIF has been generated from an entry in the Cambridge 
# Structural Database, then it will include bibliographic, chemical, 
# crystal, experimental, refinement or atomic coordinate data resulting 
# from the CCDC's data processing and validation procedures.
#
#######################################################################

data_QUPCOV
_symmetry_cell_setting           monoclinic
_symmetry_space_group_name_H-M   'P 21/n'
_symmetry_Int_Tables_number      14
_space_group_name_Hall           '-P 2yn'
loop_
_symmetry_equiv_pos_site_id
_symmetry_equiv_pos_as_xyz
1 x,y,z
2 1/2-x,1/2+y,1/2-z
3 -x,-y,-z
4 1/2+x,1/2-y,1/2+z
_cell_length_a                   13.7105(17)
_cell_length_b                   12.8683(13)
_cell_length_c                   17.2597(19)
_cell_angle_alpha                90
_cell_angle_beta                 108.976(4)
_cell_angle_gamma                90
_cell_volume                     2879.65
loop_
_atom_site_label
_atom_site_type_symbol
_atom_site_fract_x
_atom_site_fract_y
_atom_site_fract_z
C1 C 0.4250(3) 0.1094(3) 0.6438(3)
H1 H 0.4801 0.0580 0.6647
H2 H 0.4147 0.1229 0.5858
H3 H 0.3610 0.0826 0.6498
C2 C 0.5541(3) 0.2557(3) 0.6817(2)
H4 H 0.6106 0.2057 0.7023
H5 H 0.5723 0.3209 0.7123
H6 H 0.5424 0.2689 0.6234
C3 C 0.4754(3) 0.1890(3) 0.7839(2)
H7 H 0.4135 0.1582 0.7912
H8 H 0.4920 0.2541 0.8149
H9 H 0.5333 0.1405 0.8039
C4 C 0.4554(3) 0.2111(3) 0.6927(2)
C5 C 0.3644(2) 0.2869(2) 0.66082(18)
C6 C 0.3434(3) 0.3333(3) 0.58342(19)
H10 H 0.3883 0.3179 0.5531
C7 C 0.2608(2) 0.4008(2) 0.54789(17)
C8 C 0.2488(2) 0.4529(2) 0.46742(17)
C9 C 0.1554(2) 0.5017(2) 0.42722(17)
H11 H 0.1016 0.4992 0.4507
C10 C 0.1388(2) 0.5542(2) 0.35305(17)
C11 C 0.2193(3) 0.5579(3) 0.3198(2)
H12 H 0.2098 0.5933 0.2695
C12 C 0.3128(3) 0.5100(3) 0.3598(2)
H13 H 0.3669 0.5128 0.3368
C13 C 0.3280(3) 0.4579(3) 0.4333(2)
H14 H 0.3925 0.4257 0.4604
C14 C 0.0344(2) 0.6012(2) 0.31277(17)
C15 C 0.0150(2) 0.6618(3) 0.24209(19)
H15 H 0.0701 0.6723 0.2209
C16 C -0.0801(2) 0.7080(2) 0.20042(18)
C17 C -0.0948(3) 0.7769(3) 0.12404(19)
C18 C -0.0716(4) 0.8885(3) 0.1555(3)
H16 H -0.0024 0.8916 0.1961
H17 H -0.1225 0.9104 0.1810
H18 H -0.0750 0.9347 0.1096
C19 C -0.0209(4) 0.7461(4) 0.0776(2)
H19 H -0.0355 0.7882 0.0279
H20 H -0.0304 0.6724 0.0627
H21 H 0.0504 0.7579 0.1127
C20 C -0.2065(3) 0.7682(4) 0.0670(3)
H22 H -0.2530 0.7954 0.0949
H23 H -0.2230 0.6952 0.0526
H24 H -0.2148 0.8086 0.0171
C21 C 0.1388(3) 0.1368(2) 0.6389(2)
H25 H 0.1909 0.1323 0.6909
C22 C 0.0995(3) 0.0452(2) 0.59881(19)
H26 H 0.1248 -0.0198 0.6233
C23 C 0.0227(2) 0.0483(2) 0.52251(17)
C24 C -0.0097(3) 0.1471(2) 0.49075(19)
H27 H -0.0617 0.1541 0.4389
C25 C 0.0341(3) 0.2351(3) 0.5351(2)
H28 H 0.0109 0.3013 0.5121
N1 N 0.1073(2) 0.23114(19) 0.60854(15)
O1 O 0.31010(16) 0.30079(17) 0.70714(12)
O2 O 0.19043(16) 0.42402(16) 0.57898(12)
O3 O -0.03221(16) 0.58065(16) 0.34798(12)
O4 O -0.16003(17) 0.70077(17) 0.22238(13)
O5 O 0.22744(19) 0.48683(18) 0.73724(14)
V1 V 0.18145(4) 0.38342(4) 0.68770(3)
C21B C -0.1388(3) -0.1368(2) 0.3611(2)
H25B H -0.1909 -0.1323 0.3091
C22B C -0.0995(3) -0.0452(2) 0.40119(19)
H26B H -0.1248 0.0198 0.3767
C23B C -0.0227(2) -0.0483(2) 0.47749(17)
C24B C 0.0097(3) -0.1471(2) 0.50925(19)
H27B H 0.0617 -0.1541 0.5611
C25B C -0.0341(3) -0.2351(3) 0.4649(2)
H28B H -0.0109 -0.3013 0.4879
N1B N -0.1073(2) -0.23114(19) 0.39146(15)
C1B C -0.4250(3) -0.1094(3) 0.3562(3)
H1B H -0.4801 -0.0580 0.3353
H2B H -0.4147 -0.1229 0.4142
H3B H -0.3610 -0.0826 0.3502
C2B C -0.5541(3) -0.2557(3) 0.3183(2)
H4B H -0.6106 -0.2057 0.2977
H5B H -0.5723 -0.3209 0.2877
H6B H -0.5424 -0.2689 0.3766
C3B C -0.4754(3) -0.1890(3) 0.2161(2)
H7B H -0.4135 -0.1582 0.2088
H8B H -0.4920 -0.2541 0.1851
H9B H -0.5333 -0.1405 0.1961
C4B C -0.4554(3) -0.2111(3) 0.3073(2)
C5B C -0.3644(2) -0.2869(2) 0.33918(18)
C6B C -0.3434(3) -0.3333(3) 0.41658(19)
H10B H -0.3883 -0.3179 0.4469
C7B C -0.2608(2) -0.4008(2) 0.45211(17)
C8B C -0.2488(2) -0.4529(2) 0.53258(17)
C9B C -0.1554(2) -0.5017(2) 0.57278(17)
H11B H -0.1016 -0.4992 0.5493
C10B C -0.1388(2) -0.5542(2) 0.64695(17)
C11B C -0.2193(3) -0.5579(3) 0.6802(2)
H12B H -0.2098 -0.5933 0.7305
C12B C -0.3128(3) -0.5100(3) 0.6402(2)
H13B H -0.3669 -0.5128 0.6632
C13B C -0.3280(3) -0.4579(3) 0.5667(2)
H14B H -0.3925 -0.4257 0.5396
C14B C -0.0344(2) -0.6012(2) 0.68723(17)
C15B C -0.0150(2) -0.6618(3) 0.75791(19)
H15B H -0.0701 -0.6723 0.7791
C16B C 0.0801(2) -0.7080(2) 0.79958(18)
C17B C 0.0948(3) -0.7769(3) 0.87596(19)
C18B C 0.0716(4) -0.8885(3) 0.8445(3)
H16B H 0.0024 -0.8916 0.8039
H17B H 0.1225 -0.9104 0.8190
H18B H 0.0750 -0.9347 0.8904
C19B C 0.0209(4) -0.7461(4) 0.9224(2)
H19B H 0.0355 -0.7882 0.9721
H20B H 0.0304 -0.6724 0.9373
H21B H -0.0504 -0.7579 0.8873
C20B C 0.2065(3) -0.7682(4) 0.9330(3)
H22B H 0.2530 -0.7954 0.9051
H23B H 0.2230 -0.6952 0.9474
H24B H 0.2148 -0.8086 0.9829
O1B O -0.31010(16) -0.30079(17) 0.29286(12)
O2B O -0.19043(16) -0.42402(16) 0.42102(12)
O3B O 0.03221(16) -0.58065(16) 0.65202(12)
O4B O 0.16003(17) -0.70077(17) 0.77762(13)
O5B O -0.22744(19) -0.48683(18) 0.26276(14)
V1B V -0.18145(4) -0.38342(4) 0.31230(3)
O3_2 O -0.03221(16) -0.41935(16) 0.34798(12)
O3B_2 O 0.03221(16) 0.41935(16) 0.65202(12)
O4_2 O -0.16003(17) -0.29923(17) 0.22238(13)
O4B_2 O 0.16003(17) 0.29923(17) 0.77762(13)
V1_2 V 0.18145(4) -0.61658(4) 0.68770(3)
V1B_2 V -0.18145(4) 0.61658(4) 0.31230(3)
C26 C 0.7570(8) -0.0382(10) 0.5734(5)
H29 H 0.7601 -0.0272 0.5169
Cl1 Cl 0.6330(8) 0.0137(13) 0.5801(9)
Cl2 Cl 0.8629(3) 0.0230(4) 0.64557(18)
Cl3 Cl 0.7685(2) -0.1707(3) 0.59740(19)
Cl4? Cl 0.6529(13) 0.011(2) 0.5750(15)
Cl5? Cl 0.8354(4) 0.1241(5) 0.6394(3)
Cl6? Cl 0.8286(4) -0.0954(4) 0.6223(3)
C27? C 0.7740(12) 0.0190(15) 0.5863(9)
H30? H 0.7787 0.0260 0.5299
loop_
_geom_bond_atom_site_label_1
_geom_bond_atom_site_label_2
_geom_bond_site_symmetry_1
_geom_bond_site_symmetry_2
C1 H1 1_555 1_555
H2 C1 1_555 1_555
H3 C1 1_555 1_555
C2 H4 1_555 1_555
H5 C2 1_555 1_555
H6 C2 1_555 1_555
C3 H7 1_555 1_555
H8 C3 1_555 1_555
H9 C3 1_555 1_555
C4 C1 1_555 1_555
C5 C4 1_555 1_555
C6 C5 1_555 1_555
H10 C6 1_555 1_555
C7 C6 1_555 1_555
C8 C7 1_555 1_555
C9 C8 1_555 1_555
H11 C9 1_555 1_555
C10 C9 1_555 1_555
C11 C10 1_555 1_555
H12 C11 1_555 1_555
C12 C11 1_555 1_555
H13 C12 1_555 1_555
C13 C8 1_555 1_555
H14 C13 1_555 1_555
C14 C10 1_555 1_555
C15 C14 1_555 1_555
H15 C15 1_555 1_555
C16 C15 1_555 1_555
C17 C16 1_555 1_555
C18 C17 1_555 1_555
H16 C18 1_555 1_555
H17 C18 1_555 1_555
H18 C18 1_555 1_555
C19 C17 1_555 1_555
H19 C19 1_555 1_555
H20 C19 1_555 1_555
H21 C19 1_555 1_555
C20 C17 1_555 1_555
H22 C20 1_555 1_555
H23 C20 1_555 1_555
H24 C20 1_555 1_555
C21 H25 1_555 1_555
C22 C21 1_555 1_555
H26 C22 1_555 1_555
C23 C22 1_555 1_555
C24 C23 1_555 1_555
H27 C24 1_555 1_555
C25 C24 1_555 1_555
H28 C25 1_555 1_555
N1 C21 1_555 1_555
O1 C5 1_555 1_555
O2 C7 1_555 1_555
O3 C14 1_555 1_555
O4 C16 1_555 1_555
O5 V1 1_555 1_555
V1 N1 1_555 1_555
C26 H29 1_555 1_555
Cl1 C26 1_555 1_555
Cl2 C26 1_555 1_555
Cl3 C26 1_555 1_555
C21B H25B 1_555 1_555
C22B C21B 1_555 1_555
H26B C22B 1_555 1_555
C23B C23 1_555 1_555
C24B C23B 1_555 1_555
H27B C24B 1_555 1_555
C25B C24B 1_555 1_555
H28B C25B 1_555 1_555
N1B C21B 1_555 1_555
C1B H1B 1_555 1_555
H2B C1B 1_555 1_555
H3B C1B 1_555 1_555
C2B H4B 1_555 1_555
H5B C2B 1_555 1_555
H6B C2B 1_555 1_555
C3B H7B 1_555 1_555
H8B C3B 1_555 1_555
H9B C3B 1_555 1_555
C4B C1B 1_555 1_555
C5B C4B 1_555 1_555
C6B C5B 1_555 1_555
H10B C6B 1_555 1_555
C7B C6B 1_555 1_555
C8B C7B 1_555 1_555
C9B C8B 1_555 1_555
H11B C9B 1_555 1_555
C10B C9B 1_555 1_555
C11B C10B 1_555 1_555
H12B C11B 1_555 1_555
C12B C11B 1_555 1_555
H13B C12B 1_555 1_555
C13B C8B 1_555 1_555
H14B C13B 1_555 1_555
C14B C10B 1_555 1_555
C15B C14B 1_555 1_555
H15B C15B 1_555 1_555
C16B C15B 1_555 1_555
C17B C16B 1_555 1_555
C18B C17B 1_555 1_555
H16B C18B 1_555 1_555
H17B C18B 1_555 1_555
H18B C18B 1_555 1_555
C19B C17B 1_555 1_555
H19B C19B 1_555 1_555
H20B C19B 1_555 1_555
H21B C19B 1_555 1_555
C20B C17B 1_555 1_555
H22B C20B 1_555 1_555
H23B C20B 1_555 1_555
H24B C20B 1_555 1_555
O1B C5B 1_555 1_555
O2B C7B 1_555 1_555
O3B C14B 1_555 1_555
O4B C16B 1_555 1_555
O5B V1B 1_555 1_555
V1B N1B 1_555 1_555
O3_2 V1B 1_555 1_555
O3B_2 V1 1_555 1_555
O4_2 V1B 1_555 1_555
O4B_2 V1 1_555 1_555
V1_2 O3B 1_555 1_555
V1B_2 O3 1_555 1_555
C2 C4 1_555 1_555
C3 C4 1_555 1_555
C12 C13 1_555 1_555
C25 N1 1_555 1_555
O1 V1 1_555 1_555
O2 V1 1_555 1_555
O4 V1B_2 1_555 1_555
C22B C23B 1_555 1_555
C25B N1B 1_555 1_555
C2B C4B 1_555 1_555
C3B C4B 1_555 1_555
C12B C13B 1_555 1_555
O1B V1B 1_555 1_555
O2B V1B 1_555 1_555
O4B V1_2 1_555 1_555

#END
