
#######################################################################
#
#                 Cambridge Crystallographic Data Centre
#                                CCDC 
#
#######################################################################
#
# If this CIF has been generated from an entry in the Cambridge 
# Structural Database, then it will include bibliographic, chemical, 
# crystal, experimental, refinement or atomic coordinate data resulting 
# from the CCDC's data processing and validation procedures.
#
#######################################################################

data_QUPCOU
_symmetry_cell_setting           triclinic
_symmetry_space_group_name_H-M   'P -1'
_symmetry_Int_Tables_number      2
_space_group_name_Hall           '-P 1'
loop_
_symmetry_equiv_pos_site_id
_symmetry_equiv_pos_as_xyz
1 x,y,z
2 -x,-y,-z
_cell_length_a                   10.52920(10)
_cell_length_b                   13.1690(5)
_cell_length_c                   15.8886(2)
_cell_angle_alpha                80.575(9)
_cell_angle_beta                 79.368(7)
_cell_angle_gamma                74.815(9)
_cell_volume                     2074.14
loop_
_atom_site_label
_atom_site_type_symbol
_atom_site_fract_x
_atom_site_fract_y
_atom_site_fract_z
Ru1 Ru 0.03012(5) 0.48107(4) 0.06750(3)
Ru2 Ru 0.44205(5) 0.06903(4) 0.45776(3)
S1 S 0.09616(18) 0.27738(13) 0.64456(10)
F1 F -0.2143(4) -0.1008(3) 0.7696(3)
F2 F 0.5957(4) -0.3785(3) 0.1195(2)
F3 F 0.6517(4) 0.7437(3) -0.1845(2)
F4 F -0.4007(7) 1.0980(4) 0.0993(5)
O1 O 0.1937(4) 0.5382(3) 0.0215(2)
O2 O 0.1347(4) 0.5748(3) -0.1110(2)
O3 O -0.0720(4) 0.6275(3) 0.0943(2)
O4 O -0.1329(4) 0.6647(3) -0.0380(2)
O5 O 0.2678(4) 0.0398(3) 0.5282(3)
O6 O 0.3795(4) -0.0952(3) 0.6123(2)
O7 O 0.4422(4) -0.0340(3) 0.3722(2)
O8 O 0.5574(4) -0.1694(3) 0.4548(2)
N1 N 0.0822(5) 0.4316(4) 0.2013(3)
N2 N 0.3068(5) 0.2059(4) 0.3835(3)
N3 N 0.1127(5) 0.2901(4) 0.5416(3)
N4 N 0.0280(5) 0.3981(4) 0.6633(3)
C1 C 0.2140(6) 0.5734(5) -0.0585(4)
C2 C 0.3320(6) 0.6169(5) -0.0914(4)
C3 C 0.4182(6) 0.6199(5) -0.0374(4)
C4 C 0.5288(7) 0.6612(5) -0.0688(4)
C5 C 0.5461(7) 0.7007(5) -0.1550(4)
C6 C 0.4612(6) 0.6995(5) -0.2114(4)
C7 C 0.3554(7) 0.6565(5) -0.1794(4)
C8 C -0.1332(6) 0.6914(5) 0.0343(4)
C9 C -0.2054(7) 0.7990(5) 0.0533(4)
C10 C -0.2050(8) 0.8316(6) 0.1323(5)
C11 C -0.2737(9) 0.9346(7) 0.1494(7)
C12 C -0.3350(10) 0.9996(7) 0.0844(8)
C13 C -0.3356(8) 0.9693(6) 0.0056(6)
C14 C -0.2692(7) 0.8655(6) -0.0088(5)
C15 C 0.2712(6) -0.0346(4) 0.5900(4)
C16 C 0.1447(6) -0.0533(5) 0.6389(4)
C17 C 0.0228(6) 0.0037(5) 0.6084(4)
C18 C -0.0965(7) -0.0138(5) 0.6524(4)
C19 C -0.0977(7) -0.0848(6) 0.7246(5)
C20 C 0.0191(8) -0.1424(7) 0.7584(5)
C21 C 0.1398(7) -0.1227(6) 0.7132(5)
C22 C 0.5047(6) -0.1295(5) 0.3874(4)
C23 C 0.5219(6) -0.1984(5) 0.3181(4)
C24 C 0.4626(6) -0.1586(5) 0.2445(4)
C25 C 0.4874(7) -0.2208(5) 0.1771(4)
C26 C 0.5685(7) -0.3193(5) 0.1859(4)
C27 C 0.6254(7) -0.3636(5) 0.2580(4)
C28 C 0.6004(7) -0.3007(5) 0.3262(4)
C29 C 0.0976(6) 0.4075(4) 0.2717(4)
C30 C 0.1200(6) 0.3740(4) 0.3583(3)
C31 C 0.2210(6) 0.2789(5) 0.3712(3)
C32 C 0.0578(6) 0.4338(4) 0.4264(3)
C33 C 0.0620(6) 0.3928(4) 0.5146(3)
C34 C 0.0108(6) 0.4553(5) 0.5856(4)
H1 H 0.4022 0.5934 0.0219
H2 H 0.5902 0.6623 -0.0322
H3 H 0.4762 0.7276 -0.2704
H4 H 0.2963 0.6531 -0.2168
H5 H -0.1584 0.7844 0.1744
H6 H -0.2776 0.9581 0.2034
H7 H -0.3795 1.0172 -0.0374
H8 H -0.2686 0.8415 -0.0621
H9 H 0.0242 0.0534 0.5578
H10 H -0.1776 0.0238 0.6324
H11 H 0.0162 -0.1918 0.8091
H12 H 0.2203 -0.1584 0.7347
H13 H 0.4056 -0.0894 0.2399
H14 H 0.4481 -0.1945 0.1262
H15 H 0.6796 -0.4338 0.2623
H16 H 0.6377 -0.3288 0.3777
Ru1A Ru -0.03012(5) 0.51893(4) -0.06750(3)
Ru1A_2 Ru -0.03012(5) 0.51893(4) 0.93250(3)
Ru2A Ru -0.44205(5) 0.93097(4) 0.54224(3)
Ru2A_2 Ru 0.55795(5) -0.06903(4) 0.54224(3)
Ru2_2 Ru -0.55795(5) 1.06903(4) 0.45776(3)
S1A S -0.09616(18) 0.72262(13) 0.35544(10)
F1A F 1.2143(4) 0.1008(3) 0.2304(3)
F2A F 0.4043(4) 0.3785(3) 0.8805(2)
F3A F -0.6517(4) 0.2563(3) 0.1845(2)
F4A F 0.4007(7) -0.0980(4) -0.0993(5)
O1A O -0.1937(4) 0.4618(3) -0.0215(2)
O2A O -0.1347(4) 0.4252(3) 0.1110(2)
O3A O 0.0720(4) 0.3725(3) -0.0943(2)
O4A O 0.1329(4) 0.3353(3) 0.0380(2)
O5A O 0.7322(4) -0.0398(3) 0.4718(3)
O5A_2 O -0.2678(4) 0.9602(3) 0.4718(3)
O6A O 0.6205(4) 0.0952(3) 0.3877(2)
O6_2 O -0.6205(4) 0.9048(3) 0.6123(2)
O7A O 0.5578(4) 0.0340(3) 0.6278(2)
O7A_2 O -0.4422(4) 1.0340(3) 0.6278(2)
O8A O 0.4426(4) 0.1694(3) 0.5452(2)
O8_2 O -0.4426(4) 0.8306(3) 0.4548(2)
N1A N -0.0822(5) 0.5684(4) 0.7987(3)
N1A_2 N -0.0822(5) 0.5684(4) -0.2013(3)
N2A N -0.3068(5) 0.7941(4) 0.6165(3)
N3A N -0.1127(5) 0.7099(4) 0.4584(3)
N4A N -0.0280(5) 0.6019(4) 0.3367(3)
C1A C -0.2140(6) 0.4266(5) 0.0585(4)
C2A C -0.3320(6) 0.3831(5) 0.0914(4)
C3A C -0.4182(6) 0.3801(5) 0.0374(4)
C4A C -0.5288(7) 0.3388(5) 0.0688(4)
C5A C -0.5461(7) 0.2993(5) 0.1550(4)
C6A C -0.4612(6) 0.3005(5) 0.2114(4)
C7A C -0.3554(7) 0.3435(5) 0.1794(4)
C8A C 0.1332(6) 0.3086(5) -0.0343(4)
C9A C 0.2054(7) 0.2010(5) -0.0533(4)
C10A C 0.2050(8) 0.1684(6) -0.1323(5)
C11A C 0.2737(9) 0.0654(7) -0.1494(7)
C12A C 0.3350(10) 0.0004(7) -0.0844(8)
C13A C 0.3356(8) 0.0307(6) -0.0056(6)
C14A C 0.2692(7) 0.1345(6) 0.0088(5)
C15A C 0.7288(6) 0.0346(4) 0.4100(4)
C16A C 0.8553(6) 0.0533(5) 0.3611(4)
C17A C 0.9772(6) -0.0037(5) 0.3916(4)
C18A C 1.0965(7) 0.0138(5) 0.3476(4)
C19A C 1.0977(7) 0.0848(6) 0.2754(5)
C20A C 0.9809(8) 0.1424(7) 0.2416(5)
C21A C 0.8602(7) 0.1227(6) 0.2868(5)
C22A C 0.4953(6) 0.1295(5) 0.6126(4)
C23A C 0.4781(6) 0.1984(5) 0.6819(4)
C24A C 0.5374(6) 0.1586(5) 0.7555(4)
C25A C 0.5126(7) 0.2208(5) 0.8229(4)
C26A C 0.4315(7) 0.3193(5) 0.8141(4)
C27A C 0.3746(7) 0.3636(5) 0.7420(4)
C28A C 0.3996(7) 0.3007(5) 0.6738(4)
C29A C -0.0976(6) 0.5925(4) 0.7283(4)
C30A C -0.1200(6) 0.6260(4) 0.6417(3)
C31A C -0.2210(6) 0.7211(5) 0.6288(3)
C32A C -0.0578(6) 0.5662(4) 0.5736(3)
C33A C -0.0620(6) 0.6072(4) 0.4854(3)
C34A C -0.0108(6) 0.5447(5) 0.4144(4)
H1A H -0.4022 0.4066 -0.0219
H2A H -0.5902 0.3377 0.0322
H3A H -0.4762 0.2724 0.2704
H4A H -0.2963 0.3469 0.2168
H5A H 0.1584 0.2156 -0.1744
H6A H 0.2776 0.0419 -0.2034
H7A H 0.3795 -0.0172 0.0374
H8A H 0.2686 0.1585 0.0621
H9A H 0.9758 -0.0534 0.4422
H10A H 1.1776 -0.0238 0.3676
H11A H 0.9838 0.1918 0.1909
H12A H 0.7797 0.1584 0.2653
H13A H 0.5944 0.0894 0.7601
H14A H 0.5519 0.1945 0.8738
H15A H 0.3204 0.4338 0.7377
H16A H 0.3623 0.3288 0.6223
Cl1 Cl 0.6971(3) 0.4245(2) 0.7765(2)
C35 C 0.7171(9) 0.3755(7) 0.4995(6)
C36 C 0.7659(8) 0.2913(6) 0.5606(5)
C37 C 0.7586(8) 0.3069(6) 0.6454(6)
C38 C 0.7037(8) 0.4022(7) 0.6716(6)
C39 C 0.6496(9) 0.4864(8) 0.6189(8)
C40 C 0.6556(10) 0.4741(8) 0.5308(8)
C41 C 0.7285(8) 0.3717(7) 0.4038(4)
H17 H 0.8043 0.2227 0.5435
H18 H 0.7931 0.2490 0.6857
H19 H 0.6083 0.5526 0.6398
H20 H 0.6178 0.5328 0.4924
H21 H 0.8140 0.3851 0.3746
H22 H 0.6558 0.4260 0.3807
H23 H 0.7228 0.3016 0.3939
Cl2 Cl 0.0986(3) 0.8500(3) -0.0211(2)
Cl3 Cl 0.1091(3) 0.8862(2) 0.1530(2)
C42 C 0.1497(9) 0.7951(9) 0.0873(10)
H24 H 0.1062 0.7366 0.1127
H25 H 0.2472 0.7655 0.0803
loop_
_geom_bond_atom_site_label_1
_geom_bond_atom_site_label_2
_geom_bond_site_symmetry_1
_geom_bond_site_symmetry_2
Ru1 O1 1_555 1_555
Ru2 O5 1_555 1_555
Cl1 C38 1_555 1_555
Cl2 C42 1_555 1_555
Cl3 C42 1_555 1_555
S1 N3 1_555 1_555
F1 C19 1_555 1_555
F2 C26 1_555 1_555
F3 C5 1_555 1_555
F4 C12 1_555 1_555
O1 C1 1_555 1_555
O2 C1 1_555 1_555
O3 Ru1 1_555 1_555
O4 C8 1_555 1_555
O5 C15 1_555 1_555
O6 C15 1_555 1_555
O7 Ru2 1_555 1_555
O8 C22 1_555 1_555
N1 Ru1 1_555 1_555
N2 Ru2 1_555 1_555
N3 C33 1_555 1_555
N4 S1 1_555 1_555
C1 C2 1_555 1_555
C2 C3 1_555 1_555
C3 C4 1_555 1_555
C4 C5 1_555 1_555
C5 C6 1_555 1_555
C6 C7 1_555 1_555
C7 C2 1_555 1_555
C8 O3 1_555 1_555
C9 C8 1_555 1_555
C10 C9 1_555 1_555
C11 C10 1_555 1_555
C12 C11 1_555 1_555
C13 C12 1_555 1_555
C14 C9 1_555 1_555
C15 C16 1_555 1_555
C16 C17 1_555 1_555
C17 C18 1_555 1_555
C18 C19 1_555 1_555
C19 C20 1_555 1_555
C20 C21 1_555 1_555
C21 C16 1_555 1_555
C22 O7 1_555 1_555
C23 C22 1_555 1_555
C24 C23 1_555 1_555
C25 C24 1_555 1_555
C26 C25 1_555 1_555
C27 C26 1_555 1_555
C28 C23 1_555 1_555
C29 N1 1_555 1_555
C30 C29 1_555 1_555
C31 N2 1_555 1_555
C32 C30 1_555 1_555
C33 C32 1_555 1_555
C34 N4 1_555 1_555
C35 C36 1_555 1_555
C36 C37 1_555 1_555
C37 C38 1_555 1_555
C38 C39 1_555 1_555
C39 C40 1_555 1_555
C40 C35 1_555 1_555
C41 C35 1_555 1_555
C42 H24 1_555 1_555
H1 C3 1_555 1_555
H2 C4 1_555 1_555
H3 C6 1_555 1_555
H4 C7 1_555 1_555
H5 C10 1_555 1_555
H6 C11 1_555 1_555
H7 C13 1_555 1_555
H8 C14 1_555 1_555
H9 C17 1_555 1_555
H10 C18 1_555 1_555
H11 C20 1_555 1_555
H12 C21 1_555 1_555
H13 C24 1_555 1_555
H14 C25 1_555 1_555
H15 C27 1_555 1_555
H16 C28 1_555 1_555
H17 C36 1_555 1_555
H18 C37 1_555 1_555
H19 C39 1_555 1_555
H20 C40 1_555 1_555
H21 C41 1_555 1_555
H22 C41 1_555 1_555
H23 C41 1_555 1_555
H25 C42 1_555 1_555
Ru1A Ru1 1_555 1_555
Ru1A_2 N1A 1_555 1_555
Ru2A Ru2_2 1_555 1_555
Ru2A_2 Ru2 1_555 1_555
S1A N3A 1_555 1_555
F1A C19A 1_555 1_555
F2A C26A 1_555 1_555
F3A C5A 1_555 1_555
F4A C12A 1_555 1_555
O1A Ru1A 1_555 1_555
O2A Ru1 1_555 1_555
O3A Ru1A 1_555 1_555
O4A Ru1 1_555 1_555
O5A Ru2A_2 1_555 1_555
O5A_2 Ru2A 1_555 1_555
O6A Ru2 1_555 1_555
O6_2 Ru2A 1_555 1_555
O7A Ru2A_2 1_555 1_555
O7A_2 Ru2A 1_555 1_555
O8A Ru2 1_555 1_555
O8_2 Ru2A 1_555 1_555
N1A C29A 1_555 1_555
N1A_2 Ru1A 1_555 1_555
N2A Ru2A 1_555 1_555
N3A C33A 1_555 1_555
N4A S1A 1_555 1_555
C1A O1A 1_555 1_555
C2A C1A 1_555 1_555
C3A C2A 1_555 1_555
C4A C3A 1_555 1_555
C5A C4A 1_555 1_555
C6A C5A 1_555 1_555
C7A C2A 1_555 1_555
C8A O3A 1_555 1_555
C9A C8A 1_555 1_555
C10A C9A 1_555 1_555
C11A C10A 1_555 1_555
C12A C11A 1_555 1_555
C13A C12A 1_555 1_555
C14A C9A 1_555 1_555
C15A O5A 1_555 1_555
C16A C15A 1_555 1_555
C17A C16A 1_555 1_555
C18A C17A 1_555 1_555
C19A C18A 1_555 1_555
C20A C19A 1_555 1_555
C21A C16A 1_555 1_555
C22A O7A 1_555 1_555
C23A C22A 1_555 1_555
C24A C23A 1_555 1_555
C25A C24A 1_555 1_555
C26A C25A 1_555 1_555
C27A C26A 1_555 1_555
C28A C23A 1_555 1_555
C29A C30A 1_555 1_555
C30A C31A 1_555 1_555
C31A N2A 1_555 1_555
C32A C34 1_555 1_555
C33A C32A 1_555 1_555
C34A C32 1_555 1_555
H1A C3A 1_555 1_555
H2A C4A 1_555 1_555
H3A C6A 1_555 1_555
H4A C7A 1_555 1_555
H5A C10A 1_555 1_555
H6A C11A 1_555 1_555
H7A C13A 1_555 1_555
H8A C14A 1_555 1_555
H9A C17A 1_555 1_555
H10A C18A 1_555 1_555
H11A C20A 1_555 1_555
H12A C21A 1_555 1_555
H13A C24A 1_555 1_555
H14A C25A 1_555 1_555
H15A C27A 1_555 1_555
H16A C28A 1_555 1_555
O2 Ru1A 1_555 1_555
O4 Ru1A 1_555 1_555
O6 Ru2A_2 1_555 1_555
O8 Ru2A_2 1_555 1_555
C13 C14 1_555 1_555
C27 C28 1_555 1_555
C30 C31 1_555 1_555
C33 C34 1_555 1_555
O2A C1A 1_555 1_555
O4A C8A 1_555 1_555
O6A C15A 1_555 1_555
O8A C22A 1_555 1_555
N4A C34A 1_555 1_555
C6A C7A 1_555 1_555
C13A C14A 1_555 1_555
C20A C21A 1_555 1_555
C27A C28A 1_555 1_555
C30A C32A 1_555 1_555
C33A C34A 1_555 1_555

#END
