
#######################################################################
#
#                 Cambridge Crystallographic Data Centre
#                                CCDC 
#
#######################################################################
#
# If this CIF has been generated from an entry in the Cambridge 
# Structural Database, then it will include bibliographic, chemical, 
# crystal, experimental, refinement or atomic coordinate data resulting 
# from the CCDC's data processing and validation procedures.
#
#######################################################################

data_QUPDEL
_symmetry_cell_setting           orthorhombic
_symmetry_space_group_name_H-M   'F d d d'
_symmetry_Int_Tables_number      70
_space_group_name_Hall           '-F 2uv 2vw'
loop_
_symmetry_equiv_pos_site_id
_symmetry_equiv_pos_as_xyz
1 x,y,z
2 1/4-x,1/4-y,z
3 x,1/4-y,1/4-z
4 1/4-x,y,1/4-z
5 x,1/2+y,1/2+z
6 1/4-x,3/4-y,1/2+z
7 x,3/4-y,3/4-z
8 1/4-x,1/2+y,3/4-z
9 1/2+x,y,1/2+z
10 3/4-x,1/4-y,1/2+z
11 1/2+x,1/4-y,3/4-z
12 3/4-x,y,3/4-z
13 1/2+x,1/2+y,z
14 3/4-x,3/4-y,z
15 1/2+x,3/4-y,1/4-z
16 3/4-x,1/2+y,1/4-z
17 -x,-y,-z
18 3/4+x,3/4+y,-z
19 -x,3/4+y,3/4+z
20 3/4+x,-y,3/4+z
21 -x,1/2-y,1/2-z
22 3/4+x,1/4+y,1/2-z
23 -x,1/4+y,1/4+z
24 3/4+x,1/2-y,1/4+z
25 1/2-x,-y,1/2-z
26 1/4+x,3/4+y,1/2-z
27 1/2-x,3/4+y,1/4+z
28 1/4+x,-y,1/4+z
29 1/2-x,1/2-y,-z
30 1/4+x,1/4+y,-z
31 1/2-x,1/4+y,3/4+z
32 1/4+x,1/2-y,3/4+z
_cell_length_a                   9.6673(3)
_cell_length_b                   15.4344(3)
_cell_length_c                   27.2399(3)
_cell_angle_alpha                90
_cell_angle_beta                 90
_cell_angle_gamma                90
_cell_volume                     4064.44
loop_
_atom_site_label
_atom_site_type_symbol
_atom_site_fract_x
_atom_site_fract_y
_atom_site_fract_z
Gd1 Gd 1.1250 0.1250 0.509381(8)
C1 C 0.8151(4) 0.0902(2) 0.52909(13)
C2 C 0.6622(4) 0.0906(3) 0.53217(16)
C3 C 1.1250 0.0751(3) 0.6250
O1 O 0.8700(3) 0.01984(15) 0.51640(8)
O2 O 0.8871(3) 0.15571(14) 0.53787(9)
O3 O 1.1147(3) 0.03891(14) 0.58415(8)
O4 O 1.2753(3) 0.1238(3) 0.43637(11)
H1 H 1.302(6) 0.168(4) 0.428(2)
H2 H 1.261(6) 0.098(4) 0.416(2)
H3 H 0.610(6) 0.042(4) 0.527(2)
Gd1_2 Gd 0.1250 0.1250 0.509381(8)
Gd1P Gd 0.8750 -0.1250 0.490619(8)
Gd1BA Gd 0.3750 0.3750 0.490619(8)
Gd1B Gd 1.1250 0.1250 0.740619(8)
Gd1L Gd 1.6250 -0.3750 0.509381(8)
Gd1P_2 Gd 1.8750 -0.1250 0.490619(8)
C1A C 0.4349(4) 0.1598(2) 0.52909(13)
C1P C 1.1849(4) -0.0902(2) 0.47091(13)
C1Q C 1.5651(4) -0.1598(2) 0.47091(13)
C2A C 0.5878(4) 0.1594(3) 0.53217(16)
C2P C 1.3378(4) -0.0906(3) 0.46783(16)
C2Q C 1.4122(4) -0.1594(3) 0.46783(16)
C3A C 1.1250 0.1749(3) 0.6250
O1A O 0.3800(3) 0.23016(15) 0.51640(8)
O1P O 1.1300(3) -0.01984(15) 0.48360(8)
O1Q O 1.6200(3) -0.23016(15) 0.48360(8)
O1CA O 1.1200(3) 0.26984(15) 0.48360(8)
O1CA_2 O 0.1200(3) 0.26984(15) 0.48360(8)
O1P_2 O 0.1300(3) -0.01984(15) 0.48360(8)
O2A O 0.3629(3) 0.09429(14) 0.53787(9)
O2P O 1.1129(3) -0.15571(14) 0.46213(9)
O2Q O 1.6371(3) -0.09429(14) 0.46213(9)
O2A_2 O 1.3629(3) 0.09429(14) 0.53787(9)
O2_2 O -0.1129(3) 0.15571(14) 0.53787(9)
O3A O 1.1353(3) 0.21109(14) 0.58415(8)
O3B O 1.1147(3) 0.21109(14) 0.66585(8)
O3C O 1.1353(3) 0.03891(14) 0.66585(8)
O3A_2 O 0.1353(3) 0.21109(14) 0.58415(8)
O3_2 O 0.1147(3) 0.03891(14) 0.58415(8)
O4A O 0.9747(3) 0.1262(3) 0.43637(11)
O4A_2 O -0.0253(3) 0.1262(3) 0.43637(11)
O4_2 O 0.2753(3) 0.1238(3) 0.43637(11)
H1A H 0.948(6) 0.082(4) 0.428(2)
H1A_2 H -0.052(6) 0.082(4) 0.428(2)
H1_2 H 0.302(6) 0.168(4) 0.428(2)
H2A H 0.989(6) 0.152(4) 0.416(2)
H2A_2 H -0.011(6) 0.152(4) 0.416(2)
H2_2 H 0.261(6) 0.098(4) 0.416(2)
H3A H 0.640(6) 0.208(4) 0.527(2)
H3P H 1.390(6) -0.042(4) 0.473(2)
H3Q H 1.360(6) -0.208(4) 0.473(2)
O5 O 1.1970(5) 0.0478(3) 0.34744(18)
loop_
_geom_bond_atom_site_label_1
_geom_bond_atom_site_label_2
_geom_bond_site_symmetry_1
_geom_bond_site_symmetry_2
Gd1 O2 1_555 1_555
C1 C2 1_555 1_555
C2 H3 1_555 1_555
C3 O3 1_555 1_555
O1 C1 1_555 1_555
O2 C1 1_555 1_555
O3 Gd1 1_555 1_555
O4 Gd1 1_555 1_555
H1 O4 1_555 1_555
H2 O4 1_555 1_555
Gd1_2 O1CA_2 1_555 1_555
Gd1P O1 1_555 1_555
Gd1BA O1A 1_555 1_555
Gd1B O3B 1_555 1_555
Gd1L O1Q 1_555 1_555
Gd1P_2 O2Q 1_555 1_555
C1A C2A 1_555 1_555
C1P C2P 1_555 1_555
C1Q C2Q 1_555 1_555
C2A C2 1_555 1_555
C2P C2Q 1_555 1_555
C2Q H3Q 1_555 1_555
C3A C3 1_555 1_555
O1A C1A 1_555 1_555
O1P Gd1 1_555 1_555
O1Q C1Q 1_555 1_555
O1CA Gd1 1_555 1_555
O1P_2 Gd1_2 1_555 1_555
O2A Gd1_2 1_555 1_555
O2P Gd1P 1_555 1_555
O2Q C1Q 1_555 1_555
O2A_2 Gd1 1_555 1_555
O2_2 Gd1_2 1_555 1_555
O3A Gd1 1_555 1_555
O3B C3A 1_555 1_555
O3C C3 1_555 1_555
O3A_2 Gd1_2 1_555 1_555
O3_2 Gd1_2 1_555 1_555
O4A Gd1 1_555 1_555
O4A_2 Gd1_2 1_555 1_555
O4_2 Gd1_2 1_555 1_555
H1A O4A 1_555 1_555
H1A_2 O4A_2 1_555 1_555
H1_2 O4_2 1_555 1_555
H2A O4A 1_555 1_555
H2A_2 O4A_2 1_555 1_555
H2_2 O4_2 1_555 1_555
H3A C2A 1_555 1_555
H3P C2P 1_555 1_555
Gd1B O3C 1_555 1_555
C1A O2A 1_555 1_555
C1P O1P 1_555 1_555
C1P O2P 1_555 1_555
C3A O3A 1_555 1_555

#END
