
#######################################################################
#
#                 Cambridge Crystallographic Data Centre
#                                CCDC 
#
#######################################################################
#
# If this CIF has been generated from an entry in the Cambridge 
# Structural Database, then it will include bibliographic, chemical, 
# crystal, experimental, refinement or atomic coordinate data resulting 
# from the CCDC's data processing and validation procedures.
#
#######################################################################

data_QUPDIQ
_symmetry_cell_setting           monoclinic
_symmetry_space_group_name_H-M   'P 21/c'
_symmetry_Int_Tables_number      14
_space_group_name_Hall           '-P 2ybc'
loop_
_symmetry_equiv_pos_site_id
_symmetry_equiv_pos_as_xyz
1 x,y,z
2 -x,1/2+y,1/2-z
3 -x,-y,-z
4 x,1/2-y,1/2+z
_cell_length_a                   13.8731(6)
_cell_length_b                   11.2492(7)
_cell_length_c                   27.8028(13)
_cell_angle_alpha                90
_cell_angle_beta                 101.984(5)
_cell_angle_gamma                90
_cell_volume                     4244.38
loop_
_atom_site_label
_atom_site_type_symbol
_atom_site_fract_x
_atom_site_fract_y
_atom_site_fract_z
C1 C 0.0723(8) 0.3839(9) 0.2166(4)
H1 H 0.0784 0.4198 0.1852
H2 H 0.0874 0.4436 0.2427
H3 H 0.0048 0.3549 0.2141
C2 C 0.2489(7) 0.3279(10) 0.2381(4)
H4 H 0.2953 0.2659 0.2529
H5 H 0.2539 0.3959 0.2605
H6 H 0.2648 0.3536 0.2069
C3 C 0.1274(8) 0.2110(10) 0.2736(3)
H7 H 0.0584 0.1857 0.2680
H8 H 0.1423 0.2627 0.3025
H9 H 0.1703 0.1410 0.2790
C4 C 0.1450(5) 0.2791(7) 0.2286(3)
C5 C 0.1287(5) 0.1937(6) 0.1850(2)
C6 C 0.0351(5) 0.1453(7) 0.1674(2)
H10 H -0.0153 0.1663 0.1844
C7 C 0.0092(4) 0.0690(6) 0.1273(2)
C8 C -0.0934(4) 0.0231(6) 0.1119(2)
C9 C -0.1241(4) -0.0166(6) 0.0638(2)
H11 H -0.0795 -0.0143 0.0421
C10 C -0.2187(4) -0.0594(6) 0.0470(2)
C11 C -0.2842(5) -0.0596(7) 0.0788(2)
H12 H -0.3496 -0.0879 0.0677
C12 C -0.2543(5) -0.0187(7) 0.1265(3)
H13 H -0.2993 -0.0198 0.1480
C13 C -0.1603(5) 0.0234(7) 0.1430(2)
H14 H -0.1409 0.0528 0.1756
C14 C -0.2476(4) -0.0985(6) -0.0055(2)
C15 C -0.3219(4) -0.1824(6) -0.0190(2)
H15 H -0.3488 -0.2177 0.0064
C16 C -0.3597(4) -0.2185(6) -0.0674(2)
C17 C -0.4485(5) -0.3003(6) -0.0804(3)
C18 C -0.4374(7) -0.3795(9) -0.1238(3)
H16 H -0.3855 -0.4385 -0.1128
H17 H -0.4197 -0.3304 -0.1498
H18 H -0.4998 -0.4203 -0.1367
C19 C -0.4634(6) -0.3758(8) -0.0379(3)
H19 H -0.4058 -0.4271 -0.0273
H20 H -0.5223 -0.4250 -0.0482
H21 H -0.4717 -0.3244 -0.0106
C20 C -0.5388(6) -0.2166(8) -0.0966(4)
H22 H -0.5986 -0.2644 -0.1066
H23 H -0.5289 -0.1675 -0.1243
H24 H -0.5456 -0.1652 -0.0690
C21 C 0.0455(5) 0.2401(6) 0.0288(2)
H25 H 0.0244 0.1614 0.0196
C22 C -0.0028(5) 0.3326(6) 0.0023(3)
H26 H -0.0560 0.3169 -0.0245
C23 C 0.0252(4) 0.4490(6) 0.0141(2)
C24 C 0.1031(5) 0.4634(6) 0.0543(3)
H27 H 0.1256 0.5409 0.0646
C25 C 0.1471(5) 0.3661(6) 0.0790(2)
H28 H 0.1996 0.3790 0.1064
N1 N 0.1208(4) 0.2544(5) 0.06701(19)
O1 O 0.2022(3) 0.1726(4) 0.16555(15)
O2 O 0.0687(3) 0.0337(4) 0.10061(15)
O3 O -0.1993(3) -0.0489(4) -0.03438(15)
O4 O -0.3253(3) -0.1814(4) -0.10394(16)
O5 O 0.2612(3) -0.0384(4) 0.12815(16)
V1 V 0.20844(7) 0.08117(9) 0.10525(4)
C21B C -0.0455(5) 0.7599(6) -0.0288(2)
H25B H -0.0244 0.8386 -0.0196
C22B C 0.0028(5) 0.6674(6) -0.0023(3)
H26B H 0.0560 0.6831 0.0245
C23B C -0.0252(4) 0.5510(6) -0.0141(2)
C24B C -0.1031(5) 0.5366(6) -0.0543(3)
H27B H -0.1256 0.4591 -0.0646
C25B C -0.1471(5) 0.6339(6) -0.0790(2)
H28B H -0.1996 0.6210 -0.1064
N1B N -0.1208(4) 0.7456(5) -0.06701(19)
C1B C -0.0723(8) -0.3839(9) -0.2166(4)
H1B H -0.0784 -0.4198 -0.1852
H2B H -0.0874 -0.4436 -0.2427
H3B H -0.0048 -0.3549 -0.2141
C2B C -0.2489(7) -0.3279(10) -0.2381(4)
H4B H -0.2953 -0.2659 -0.2529
H5B H -0.2539 -0.3959 -0.2605
H6B H -0.2648 -0.3536 -0.2069
C3B C -0.1274(8) -0.2110(10) -0.2736(3)
H7B H -0.0584 -0.1857 -0.2680
H8B H -0.1423 -0.2627 -0.3025
H9B H -0.1703 -0.1410 -0.2790
C4B C -0.1450(5) -0.2791(7) -0.2286(3)
C5B C -0.1287(5) -0.1937(6) -0.1850(2)
C6B C -0.0351(5) -0.1453(7) -0.1674(2)
H10B H 0.0153 -0.1663 -0.1844
C7B C -0.0092(4) -0.0690(6) -0.1273(2)
C8B C 0.0934(4) -0.0231(6) -0.1119(2)
C9B C 0.1241(4) 0.0166(6) -0.0638(2)
H11B H 0.0795 0.0143 -0.0421
C10B C 0.2187(4) 0.0594(6) -0.0470(2)
C11B C 0.2842(5) 0.0596(7) -0.0788(2)
H12B H 0.3496 0.0879 -0.0677
C12B C 0.2543(5) 0.0187(7) -0.1265(3)
H13B H 0.2993 0.0198 -0.1480
C13B C 0.1603(5) -0.0234(7) -0.1430(2)
H14B H 0.1409 -0.0528 -0.1756
C14B C 0.2476(4) 0.0985(6) 0.0055(2)
C15B C 0.3219(4) 0.1824(6) 0.0190(2)
H15B H 0.3488 0.2177 -0.0064
C16B C 0.3597(4) 0.2185(6) 0.0674(2)
C17B C 0.4485(5) 0.3003(6) 0.0804(3)
C18B C 0.4374(7) 0.3795(9) 0.1238(3)
H16B H 0.3855 0.4385 0.1128
H17B H 0.4197 0.3304 0.1498
H18B H 0.4998 0.4203 0.1367
C19B C 0.4634(6) 0.3758(8) 0.0379(3)
H19B H 0.4058 0.4271 0.0273
H20B H 0.5223 0.4250 0.0482
H21B H 0.4717 0.3244 0.0106
C20B C 0.5388(6) 0.2166(8) 0.0966(4)
H22B H 0.5986 0.2644 0.1066
H23B H 0.5289 0.1675 0.1243
H24B H 0.5456 0.1652 0.0690
O1B O -0.2022(3) -0.1726(4) -0.16555(15)
O2B O -0.0687(3) -0.0337(4) -0.10061(15)
O3B O 0.1993(3) 0.0489(4) 0.03438(15)
O4B O 0.3253(3) 0.1814(4) 0.10394(16)
O5B O -0.2612(3) 0.0384(4) -0.12815(16)
V1B V -0.20844(7) -0.08117(9) -0.10525(4)
N1B_2 N -0.1208(4) -0.2544(5) -0.06701(19)
V1B_2 V -0.20844(7) 0.91883(9) -0.10525(4)
C26 C 0.1762(8) 0.7524(10) 0.1796(4)
H29 H 0.1983 0.8346 0.1735
Cl1 Cl 0.1825(4) 0.7324(5) 0.24316(14)
Cl2 Cl 0.0567(3) 0.7276(4) 0.14395(13)
Cl3 Cl 0.2562(2) 0.6481(3) 0.16176(13)
C27 C 0.4364(6) 1.0429(8) 0.2158(3)
H30 H 0.3891 1.0837 0.1888
Cl5 Cl 0.3680(2) 0.9686(3) 0.25217(10)
Cl6 Cl 0.5034(2) 0.9398(3) 0.18870(13)
Cl7 Cl 0.5120(3) 1.1502(4) 0.24823(16)
C28 C 0.3853(7) 0.7949(8) 0.0709(4)
H31 H 0.3543 0.8308 0.0969
Cl8 Cl 0.4839(3) 0.7028(3) 0.10024(13)
Cl9 Cl 0.288(2) 0.734(2) 0.0234(17)
Cl10 Cl 0.43422(17) 0.9083(2) 0.04189(11)
C29 C 0.822(3) 0.506(3) 0.1189(14)
H32 H 0.8750 0.5278 0.1478
Cl12 Cl 0.7232(8) 0.4791(9) 0.1445(4)
Cl13 Cl 0.8650(7) 0.3760(9) 0.0973(4)
Cl14 Cl 0.8292(7) 0.6159(9) 0.0773(4)
Cl4? Cl 0.1326(17) 0.836(2) 0.2234(9)
Cl11? Cl 0.310(2) 0.698(2) 0.0341(17)
C30? C 0.767(3) 0.475(3) 0.0901(14)
H33? H 0.7100 0.4430 0.0652
Cl15? Cl 0.7018(8) 0.5276(9) 0.1300(4)
Cl16? Cl 0.8309(7) 0.3423(9) 0.1037(4)
Cl17? Cl 0.7973(7) 0.5682(9) 0.0595(4)
loop_
_geom_bond_atom_site_label_1
_geom_bond_atom_site_label_2
_geom_bond_site_symmetry_1
_geom_bond_site_symmetry_2
C1 H1 1_555 1_555
H2 C1 1_555 1_555
H3 C1 1_555 1_555
C2 H4 1_555 1_555
H5 C2 1_555 1_555
H6 C2 1_555 1_555
C3 H7 1_555 1_555
H8 C3 1_555 1_555
H9 C3 1_555 1_555
C4 C1 1_555 1_555
C5 C4 1_555 1_555
C6 C5 1_555 1_555
H10 C6 1_555 1_555
C7 C6 1_555 1_555
C8 C7 1_555 1_555
C9 C8 1_555 1_555
H11 C9 1_555 1_555
C10 C9 1_555 1_555
C11 C10 1_555 1_555
H12 C11 1_555 1_555
C12 C11 1_555 1_555
H13 C12 1_555 1_555
C13 C8 1_555 1_555
H14 C13 1_555 1_555
C14 C10 1_555 1_555
C15 C14 1_555 1_555
H15 C15 1_555 1_555
C16 C15 1_555 1_555
C17 C16 1_555 1_555
C18 C17 1_555 1_555
H16 C18 1_555 1_555
H17 C18 1_555 1_555
H18 C18 1_555 1_555
C19 C17 1_555 1_555
H19 C19 1_555 1_555
H20 C19 1_555 1_555
H21 C19 1_555 1_555
C20 C17 1_555 1_555
H22 C20 1_555 1_555
H23 C20 1_555 1_555
H24 C20 1_555 1_555
C21 H25 1_555 1_555
C22 C21 1_555 1_555
H26 C22 1_555 1_555
C23 C22 1_555 1_555
C24 C23 1_555 1_555
H27 C24 1_555 1_555
C25 C24 1_555 1_555
H28 C25 1_555 1_555
N1 C21 1_555 1_555
O1 C5 1_555 1_555
O2 C7 1_555 1_555
O3 C14 1_555 1_555
O4 C16 1_555 1_555
O5 V1 1_555 1_555
V1 N1 1_555 1_555
C26 H29 1_555 1_555
Cl1 C26 1_555 1_555
Cl2 C26 1_555 1_555
Cl3 C26 1_555 1_555
C27 H30 1_555 1_555
Cl5 C27 1_555 1_555
Cl6 C27 1_555 1_555
Cl7 C27 1_555 1_555
C28 H31 1_555 1_555
Cl8 C28 1_555 1_555
Cl9 C28 1_555 1_555
Cl10 C28 1_555 1_555
C29 H32 1_555 1_555
Cl12 C29 1_555 1_555
Cl13 C29 1_555 1_555
Cl14 C29 1_555 1_555
C21B H25B 1_555 1_555
C22B C21B 1_555 1_555
H26B C22B 1_555 1_555
C23B C23 1_555 1_555
C24B C23B 1_555 1_555
H27B C24B 1_555 1_555
C25B C24B 1_555 1_555
H28B C25B 1_555 1_555
N1B C21B 1_555 1_555
C1B H1B 1_555 1_555
H2B C1B 1_555 1_555
H3B C1B 1_555 1_555
C2B H4B 1_555 1_555
H5B C2B 1_555 1_555
H6B C2B 1_555 1_555
C3B H7B 1_555 1_555
H8B C3B 1_555 1_555
H9B C3B 1_555 1_555
C4B C1B 1_555 1_555
C5B C4B 1_555 1_555
C6B C5B 1_555 1_555
H10B C6B 1_555 1_555
C7B C6B 1_555 1_555
C8B C7B 1_555 1_555
C9B C8B 1_555 1_555
H11B C9B 1_555 1_555
C10B C9B 1_555 1_555
C11B C10B 1_555 1_555
H12B C11B 1_555 1_555
C12B C11B 1_555 1_555
H13B C12B 1_555 1_555
C13B C8B 1_555 1_555
H14B C13B 1_555 1_555
C14B C10B 1_555 1_555
C15B C14B 1_555 1_555
H15B C15B 1_555 1_555
C16B C15B 1_555 1_555
C17B C16B 1_555 1_555
C18B C17B 1_555 1_555
H16B C18B 1_555 1_555
H17B C18B 1_555 1_555
H18B C18B 1_555 1_555
C19B C17B 1_555 1_555
H19B C19B 1_555 1_555
H20B C19B 1_555 1_555
H21B C19B 1_555 1_555
C20B C17B 1_555 1_555
H22B C20B 1_555 1_555
H23B C20B 1_555 1_555
H24B C20B 1_555 1_555
O1B C5B 1_555 1_555
O2B C7B 1_555 1_555
O3B V1 1_555 1_555
O4B V1 1_555 1_555
O5B V1B 1_555 1_555
V1B O3 1_555 1_555
N1B_2 V1B 1_555 1_555
V1B_2 N1B 1_555 1_555
C2 C4 1_555 1_555
C3 C4 1_555 1_555
C12 C13 1_555 1_555
C25 N1 1_555 1_555
O1 V1 1_555 1_555
O2 V1 1_555 1_555
O4 V1B 1_555 1_555
C22B C23B 1_555 1_555
C25B N1B 1_555 1_555
C2B C4B 1_555 1_555
C3B C4B 1_555 1_555
C12B C13B 1_555 1_555
C14B O3B 1_555 1_555
C16B O4B 1_555 1_555
O1B V1B 1_555 1_555
O2B V1B 1_555 1_555

#END
