
#######################################################################
#
#                 Cambridge Crystallographic Data Centre
#                                CCDC 
#
#######################################################################
#
# If this CIF has been generated from an entry in the Cambridge 
# Structural Database, then it will include bibliographic, chemical, 
# crystal, experimental, refinement or atomic coordinate data resulting 
# from the CCDC's data processing and validation procedures.
#
#######################################################################

data_QUPDAH
_symmetry_cell_setting           triclinic
_symmetry_space_group_name_H-M   'P -1'
_symmetry_Int_Tables_number      2
_space_group_name_Hall           '-P 1'
loop_
_symmetry_equiv_pos_site_id
_symmetry_equiv_pos_as_xyz
1 x,y,z
2 -x,-y,-z
_cell_length_a                   8.4598(3)
_cell_length_b                   8.5490(6)
_cell_length_c                   8.8472(6)
_cell_angle_alpha                118.662(5)
_cell_angle_beta                 113.552(5)
_cell_angle_gamma                90.379(4)
_cell_volume                     498.799
loop_
_atom_site_label
_atom_site_type_symbol
_atom_site_fract_x
_atom_site_fract_y
_atom_site_fract_z
Gd1 Gd 0.11164(6) 0.25979(6) 0.14687(6)
C1 C -0.1671(17) 0.1392(17) 0.2063(17)
C2 C -0.293(4) 0.074(3) 0.249(4)
H1 H -0.3076 -0.0556 0.1968
H2 H -0.4057 0.0981 0.1916
H3 H -0.2494 0.1373 0.3869
C3 C 0.3729(16) 0.4162(16) 0.0951(16)
C4 C 0.5120(19) 0.501(2) 0.078(2)
H4 H 0.6236 0.5608 0.1852
C5 C -0.2863(14) 0.0545(15) -0.2663(14)
C6 C -0.4315(15) 0.0718(15) -0.4237(16)
H5 H -0.4257 0.1849 -0.4146
O1 O -0.0885(10) 0.0300(11) 0.1201(11)
O2 O -0.1246(12) 0.3052(12) 0.2593(13)
O3 O 0.4121(12) 0.4174(14) 0.2494(13)
O4 O 0.2176(11) 0.3425(12) -0.0387(12)
O5 O -0.1648(10) 0.1989(12) -0.1356(11)
O6 O -0.2999(11) -0.0981(10) -0.2773(12)
O7 O 0.2384(12) 0.4353(13) 0.4920(11)
O8 O 0.0700(12) 0.5649(12) 0.2269(13)
Gd1A Gd -0.11164(6) -0.25979(6) -0.14687(6)
Gd1A_2 Gd 0.88836(6) 0.74021(6) -0.14687(6)
Gd1_2 Gd -0.88836(6) 0.25979(6) -0.85313(6)
Gd1A_3 Gd -1.11164(6) -0.25979(6) -1.14687(6)
C1A C 0.1671(17) -0.1392(17) -0.2063(17)
C2A C 0.293(4) -0.074(3) -0.249(4)
H1A H 0.3076 0.0556 -0.1968
H2A H 0.4057 -0.0981 -0.1916
H3A H 0.2494 -0.1373 -0.3869
C3A C 0.6271(16) 0.5838(16) -0.0951(16)
C4A C 0.4880(19) 0.499(2) -0.078(2)
H4A H 0.3764 0.4392 -0.1852
C5A C -0.7137(14) -0.0545(15) -0.7337(14)
C6A C -0.5685(15) -0.0718(15) -0.5763(16)
H5A H -0.5743 -0.1849 -0.5854
O1A O 0.0885(10) -0.0300(11) -0.1201(11)
O2A O 0.1246(12) -0.3052(12) -0.2593(13)
O3A O 0.5879(12) 0.5826(14) -0.2494(13)
O3A_2 O -0.4121(12) -0.4174(14) -0.2494(13)
O4A O 0.7824(11) 0.6575(12) 0.0387(12)
O4A_2 O -0.2176(11) -0.3425(12) 0.0387(12)
O5A O -0.8352(10) -0.1989(12) -0.8644(11)
O5A_2 O 0.1648(10) -0.1989(12) 0.1356(11)
O6A O -0.7001(11) 0.0981(10) -0.7227(12)
O6A_2 O 0.2999(11) 0.0981(10) 0.2773(12)
O7A O -0.2384(12) -0.4353(13) -0.4920(11)
O8A O -0.0700(12) -0.5649(12) -0.2269(13)
loop_
_geom_bond_atom_site_label_1
_geom_bond_atom_site_label_2
_geom_bond_site_symmetry_1
_geom_bond_site_symmetry_2
Gd1 O1 1_555 1_555
C1 C2 1_555 1_555
C2 H1 1_555 1_555
H2 C2 1_555 1_555
H3 C2 1_555 1_555
C3 C4 1_555 1_555
C4 H4 1_555 1_555
C5 C6 1_555 1_555
C6 H5 1_555 1_555
O1 C1 1_555 1_555
O2 Gd1 1_555 1_555
O3 Gd1 1_555 1_555
O4 Gd1 1_555 1_555
O5 Gd1 1_555 1_555
O6 C5 1_555 1_555
O7 Gd1 1_555 1_555
O8 Gd1 1_555 1_555
Gd1A O1 1_555 1_555
Gd1A_2 O3A 1_555 1_555
Gd1_2 O6A 1_555 1_555
Gd1A_3 O5A 1_555 1_555
C1A C2A 1_555 1_555
C2A H1A 1_555 1_555
H2A C2A 1_555 1_555
H3A C2A 1_555 1_555
C3A C4A 1_555 1_555
C4A C4 1_555 1_555
H4A C4A 1_555 1_555
C5A C6A 1_555 1_555
C6A C6 1_555 1_555
H5A C6A 1_555 1_555
O1A Gd1 1_555 1_555
O2A Gd1A 1_555 1_555
O3A C3A 1_555 1_555
O3A_2 Gd1A 1_555 1_555
O4A Gd1A_2 1_555 1_555
O4A_2 Gd1A 1_555 1_555
O5A C5A 1_555 1_555
O5A_2 Gd1A 1_555 1_555
O6A C5A 1_555 1_555
O6A_2 Gd1 1_555 1_555
O7A Gd1A 1_555 1_555
O8A Gd1A 1_555 1_555
C1 O2 1_555 1_555
C3 O3 1_555 1_555
C3 O4 1_555 1_555
C5 O5 1_555 1_555
O6 Gd1A 1_555 1_555
Gd1A O1A 1_555 1_555
C1A O1A 1_555 1_555
C1A O2A 1_555 1_555
C3A O4A 1_555 1_555

#END
