
#######################################################################
#
#                 Cambridge Crystallographic Data Centre
#                                CCDC 
#
#######################################################################
#
# If this CIF has been generated from an entry in the Cambridge 
# Structural Database, then it will include bibliographic, chemical, 
# crystal, experimental, refinement or atomic coordinate data resulting 
# from the CCDC's data processing and validation procedures.
#
#######################################################################

data_QUPDEL01
_symmetry_cell_setting           orthorhombic
_symmetry_space_group_name_H-M   'F d d d'
_symmetry_Int_Tables_number      70
_space_group_name_Hall           '-F 2uv 2vw'
loop_
_symmetry_equiv_pos_site_id
_symmetry_equiv_pos_as_xyz
1 x,y,z
2 3/4-x,3/4-y,z
3 3/4-x,y,3/4-z
4 x,3/4-y,3/4-z
5 x,1/2+y,1/2+z
6 3/4-x,1/4-y,1/2+z
7 3/4-x,1/2+y,1/4-z
8 x,1/4-y,1/4-z
9 1/2+x,y,1/2+z
10 1/4-x,3/4-y,1/2+z
11 1/4-x,y,1/4-z
12 1/2+x,3/4-y,1/4-z
13 1/2+x,1/2+y,z
14 1/4-x,1/4-y,z
15 1/4-x,1/2+y,3/4-z
16 1/2+x,1/4-y,3/4-z
17 -x,-y,-z
18 1/4+x,1/4+y,-z
19 1/4+x,-y,1/4+z
20 -x,1/4+y,1/4+z
21 -x,1/2-y,1/2-z
22 1/4+x,3/4+y,1/2-z
23 1/4+x,1/2-y,3/4+z
24 -x,3/4+y,3/4+z
25 1/2-x,-y,1/2-z
26 3/4+x,1/4+y,1/2-z
27 3/4+x,-y,3/4+z
28 1/2-x,1/4+y,3/4+z
29 1/2-x,1/2-y,-z
30 3/4+x,3/4+y,-z
31 3/4+x,1/2-y,1/4+z
32 1/2-x,3/4+y,1/4+z
_cell_length_a                   9.6867(19)
_cell_length_b                   15.449(3)
_cell_length_c                   27.303(6)
_cell_angle_alpha                90
_cell_angle_beta                 90
_cell_angle_gamma                90
_cell_volume                     4085.89
loop_
_atom_site_label
_atom_site_type_symbol
_atom_site_fract_x
_atom_site_fract_y
_atom_site_fract_z
O1 O 0.3798(3) 0.72987(17) 0.51646(9)
Gd1 Gd 0.1250 0.6250 0.509444(9)
O2 O 0.2757(3) 0.6234(2) 0.43634(9)
H1 H 0.2964 0.6763 0.4270
H2 H 0.2344 0.5974 0.4117
O3 O 0.3625(3) 0.59402(17) 0.53806(11)
C1 C 0.4347(4) 0.6598(2) 0.52924(14)
C2 C 0.5878(5) 0.6597(3) 0.53208(17)
H3 H 0.6327 0.7128 0.5340
O4 O 0.1144(3) 0.53856(16) 0.58426(9)
C3 C 0.1250 0.5745(3) 0.6250
O1M O 0.8702(3) 0.52013(17) 0.51646(9)
O3M O 0.8875(3) 0.65598(17) 0.53806(11)
C1M C 0.8153(4) 0.5902(2) 0.52924(14)
C2M C 0.6622(5) 0.5903(3) 0.53208(17)
H3M H 0.6173 0.5372 0.5340
O4G O 0.1144(3) 0.71144(16) 0.66574(9)
C3G C 0.1250 0.6755(3) 0.6250
O4J O 0.1356(3) 0.53856(16) 0.66574(9)
O4M O 0.1356(3) 0.71144(16) 0.58426(9)
O1G O 0.3798(3) 0.52013(17) 0.73354(9)
Gd1G Gd 0.1250 0.6250 0.740556(9)
O2G O 0.2757(3) 0.6266(2) 0.81366(9)
H1G H 0.2964 0.5737 0.8230
H2G H 0.2344 0.6526 0.8383
O3G O 0.3625(3) 0.65598(17) 0.71194(11)
C1G C 0.4347(4) 0.5902(2) 0.72076(14)
C2G C 0.5878(5) 0.5903(3) 0.71792(17)
H3G H 0.6327 0.5372 0.7160
O1J O 0.8702(3) 0.72987(17) 0.73354(9)
O3J O 0.8875(3) 0.59402(17) 0.71194(11)
C1J C 0.8153(4) 0.6598(2) 0.72076(14)
C2J C 0.6622(5) 0.6597(3) 0.71792(17)
H3J H 0.6173 0.7128 0.7160
O2J O -0.0257(3) 0.6234(2) 0.81366(9)
H1J H -0.0464 0.6763 0.8230
H2J H 0.0156 0.5974 0.8383
O2M O -0.0257(3) 0.6266(2) 0.43634(9)
H1M H -0.0464 0.5737 0.4270
H2M H 0.0156 0.6526 0.4117
O1BA O 0.1202(3) 0.77013(17) 0.48354(9)
O1CA O 0.1298(3) 0.47987(17) 0.48354(9)
O1DA O 0.1298(3) 0.77013(17) 0.76646(9)
O1EA O 0.1202(3) 0.47987(17) 0.76646(9)
Gd1_2 Gd 1.1250 0.6250 0.509444(9)
Gd1G_2 Gd 1.1250 0.6250 0.740556(9)
Gd1P Gd 0.8750 0.3750 0.490556(9)
Gd1Q Gd 0.3750 0.8750 0.490556(9)
Gd1R Gd 0.3750 0.3750 0.759444(9)
Gd1S Gd 0.8750 0.8750 0.759444(9)
O3J_2 O -0.1125(3) 0.59402(17) 0.71194(11)
O3M_2 O -0.1125(3) 0.65598(17) 0.53806(11)
O5 O 0.4447(6) 0.4522(4) 0.5984(2)
H4 H 0.5264 0.4401 0.5893
H5 H 0.4188 0.4988 0.5846
loop_
_geom_bond_atom_site_label_1
_geom_bond_atom_site_label_2
_geom_bond_site_symmetry_1
_geom_bond_site_symmetry_2
O1 C1 1_555 1_555
Gd1 O2 1_555 1_555
O2 H1 1_555 1_555
H2 O2 1_555 1_555
O3 Gd1 1_555 1_555
C1 O3 1_555 1_555
C2 C1 1_555 1_555
H3 C2 1_555 1_555
O4 Gd1 1_555 1_555
C3 O4 1_555 1_555
O5 H4 1_555 1_555
H5 O5 1_555 1_555
O1M C1M 1_555 1_555
O3M C1M 1_555 1_555
C1M C2M 1_555 1_555
C2M C2 1_555 1_555
H3M C2M 1_555 1_555
O4G C3G 1_555 1_555
C3G C3 1_555 1_555
O4J C3 1_555 1_555
O4M Gd1 1_555 1_555
O1G C1G 1_555 1_555
Gd1G O4G 1_555 1_555
O2G Gd1G 1_555 1_555
H1G O2G 1_555 1_555
H2G O2G 1_555 1_555
O3G Gd1G 1_555 1_555
C1G O3G 1_555 1_555
C2G C1G 1_555 1_555
H3G C2G 1_555 1_555
O1J C1J 1_555 1_555
O3J C1J 1_555 1_555
C1J C2J 1_555 1_555
C2J C2G 1_555 1_555
H3J C2J 1_555 1_555
O2J Gd1G 1_555 1_555
H1J O2J 1_555 1_555
H2J O2J 1_555 1_555
O2M Gd1 1_555 1_555
H1M O2M 1_555 1_555
H2M O2M 1_555 1_555
O1BA Gd1 1_555 1_555
O1CA Gd1 1_555 1_555
O1DA Gd1G 1_555 1_555
O1EA Gd1G 1_555 1_555
Gd1_2 O3M 1_555 1_555
Gd1G_2 O3J 1_555 1_555
Gd1P O1M 1_555 1_555
Gd1Q O1 1_555 1_555
Gd1R O1G 1_555 1_555
Gd1S O1J 1_555 1_555
O3J_2 Gd1G 1_555 1_555
O3M_2 Gd1 1_555 1_555
C3G O4M 1_555 1_555
O4J Gd1G 1_555 1_555

#END
