
#######################################################################
#
#                 Cambridge Crystallographic Data Centre
#                                CCDC 
#
#######################################################################
#
# If this CIF has been generated from an entry in the Cambridge 
# Structural Database, then it will include bibliographic, chemical, 
# crystal, experimental, refinement or atomic coordinate data resulting 
# from the CCDC's data processing and validation procedures.
#
#######################################################################

data_QUPGOY
_symmetry_cell_setting           orthorhombic
_symmetry_space_group_name_H-M   'P b c n'
_symmetry_Int_Tables_number      60
_space_group_name_Hall           '-P 2n 2ab'
loop_
_symmetry_equiv_pos_site_id
_symmetry_equiv_pos_as_xyz
1 x,y,z
2 1/2-x,1/2-y,1/2+z
3 -x,y,1/2-z
4 1/2+x,1/2-y,-z
5 -x,-y,-z
6 1/2+x,1/2+y,1/2-z
7 x,-y,1/2+z
8 1/2-x,1/2+y,z
_cell_length_a                   18.543(3)
_cell_length_b                   11.3866(16)
_cell_length_c                   26.959(4)
_cell_angle_alpha                90
_cell_angle_beta                 90
_cell_angle_gamma                90
_cell_volume                     5692.17
loop_
_atom_site_label
_atom_site_type_symbol
_atom_site_fract_x
_atom_site_fract_y
_atom_site_fract_z
Zn1 Zn 0.87549(3) -0.12612(4) 0.513787(17)
Zn2 Zn 0.72604(2) 0.03571(4) 0.501686(18)
O1 O 0.90219(16) 0.0518(3) 0.50554(13)
O2 O 0.80388(16) 0.1656(3) 0.50274(12)
O3 O 0.96507(18) 0.2506(3) 0.57763(12)
O4 O 1.05975(16) 0.1633(3) 0.54329(11)
O5 O 1.14418(15) 0.3153(3) 0.48449(12)
O6 O 1.11077(16) 0.4974(3) 0.49331(12)
O7 O 0.9511(3) 0.4759(4) 0.33135(16)
O8 O 0.8651(2) 0.3497(4) 0.33142(16)
O9 O 0.77631(15) -0.1130(3) 0.49525(12)
H1 H 0.7554 -0.1772 0.4929
N1 N 0.7272(2) 0.0649(3) 0.42190(14)
N2 N 0.7275(2) -0.0176(3) 0.08271(14)
N3 N 0.9098(2) -0.1266(3) 0.58689(14)
N4 N 0.9152(2) 0.3995(4) 0.35166(16)
C1 C 0.6897(3) 0.1463(5) 0.39753(19)
H6 H 0.6570 0.1919 0.4152
C2 C 0.6970(3) 0.1659(5) 0.34736(19)
H7 H 0.6689 0.2227 0.3319
C3 C 0.7454(3) 0.1023(5) 0.32025(18)
C4 C 0.7861(3) 0.0200(5) 0.3457(2)
H8 H 0.8206 -0.0243 0.3290
C5 C 0.7755(3) 0.0040(5) 0.39536(19)
H9 H 0.8033 -0.0521 0.4116
C6 C 0.7503(4) 0.1106(6) 0.26469(19)
H10 H 0.8005 0.1074 0.2546
H11 H 0.7305 0.1850 0.2537
C7 C 0.7096(5) 0.0117(7) 0.2409(2)
H12 H 0.7260 -0.0618 0.2552
H13 H 0.6589 0.0202 0.2489
C8 C 0.6830(3) 0.0603(5) 0.10380(19)
H14 H 0.6550 0.1078 0.0834
C9 C 0.6769(3) 0.0731(6) 0.1543(2)
H15 H 0.6450 0.1279 0.1674
C10 C 0.7178(4) 0.0051(6) 0.1853(2)
C11 C 0.7667(3) -0.0707(5) 0.1638(2)
H16 H 0.7977 -0.1149 0.1835
C12 C 0.7693(3) -0.0803(5) 0.11275(19)
H17 H 0.8017 -0.1330 0.0988
C13 C 0.9643(3) -0.0600(5) 0.6028(2)
H18 H 0.9878 -0.0112 0.5803
C14 C 0.9870(4) -0.0614(7) 0.6516(3)
H19 H 1.0249 -0.0134 0.6616
C15 C 0.9529(5) -0.1353(7) 0.6859(3)
C16 C 0.8986(4) -0.2040(6) 0.6689(2)
H20 H 0.8753 -0.2560 0.6901
C17 C 0.8784(3) -0.1962(5) 0.62043(18)
H21 H 0.8401 -0.2427 0.6100
C18 C 0.9665(5) -0.1339(10) 0.7441(4)
H22 H 0.9295 -0.1331 0.7673
C19 C 0.8700(2) 0.1456(4) 0.49595(15)
C20 C 0.9141(2) 0.2402(4) 0.47172(16)
C21 C 0.9805(2) 0.2748(3) 0.49161(15)
C22 C 1.0220(2) 0.3578(4) 0.46681(16)
C23 C 0.9986(2) 0.4048(4) 0.42214(17)
H23 H 1.0252 0.4628 0.4061
C24 C 0.9350(2) 0.3634(4) 0.40207(17)
C25 C 0.8913(2) 0.2834(4) 0.42637(17)
H24 H 0.8478 0.2594 0.4126
C26 C 1.0029(2) 0.2254(4) 0.54155(16)
C27 C 1.0961(2) 0.3934(4) 0.48356(15)
Zn1D Zn 1.12451(3) 0.12612(4) 0.486213(17)
Zn1B Zn 1.12451(3) -0.12612(4) 0.986213(17)
Zn2D Zn 1.27396(2) -0.03571(4) 0.498314(18)
Zn2C Zn 1.22604(2) 0.46429(4) 0.498314(18)
Zn2F Zn 0.72604(2) -0.03571(4) 0.001686(18)
Zn2G Zn 0.77396(2) -0.46429(4) 0.501686(18)
Zn2F_2 Zn 0.72604(2) -0.03571(4) 1.001686(18)
O1D O 1.09781(16) -0.0518(3) 0.49446(13)
O2D O 1.19612(16) -0.1656(3) 0.49726(12)
O3D O 1.03493(18) -0.2506(3) 0.42237(12)
O4D O 0.94025(16) -0.1633(3) 0.45671(11)
O5D O 0.85582(15) -0.3153(3) 0.51551(12)
O5C O 0.64418(15) 0.1847(3) 0.51551(12)
O5G O 1.35582(15) -0.1847(3) 0.48449(12)
O6D O 0.88923(16) -0.4974(3) 0.50669(12)
O6C O 0.61077(16) 0.0026(3) 0.50669(12)
O6G O 1.38923(16) -0.0026(3) 0.49331(12)
O7D O 1.0489(3) -0.4759(4) 0.66865(16)
O8D O 1.1349(2) -0.3497(4) 0.66858(16)
O9D O 1.22369(15) 0.1130(3) 0.50475(12)
H1D H 1.2446 0.1772 0.5071
N1F N 0.7272(2) -0.0649(3) 0.92190(14)
N1D N 1.2728(2) -0.0649(3) 0.57810(14)
N2F N 0.7275(2) 0.0176(3) 0.58271(14)
N2B N 1.2725(2) -0.0176(3) 0.41729(14)
N3B N 1.0902(2) -0.1266(3) 0.91311(14)
N3D N 1.0902(2) 0.1266(3) 0.41311(14)
N4D N 1.0848(2) -0.3995(4) 0.64834(16)
C1F C 0.6897(3) -0.1463(5) 0.89753(19)
H6F H 0.6570 -0.1919 0.9152
C2F C 0.6970(3) -0.1659(5) 0.84736(19)
H7F H 0.6689 -0.2227 0.8319
C3F C 0.7454(3) -0.1023(5) 0.82025(18)
C4F C 0.7861(3) -0.0200(5) 0.8457(2)
H8F H 0.8206 0.0243 0.8290
C5F C 0.7755(3) -0.0040(5) 0.89536(19)
H9F H 0.8033 0.0521 0.9116
C6F C 0.7503(4) -0.1106(6) 0.76469(19)
H10F H 0.8005 -0.1074 0.7546
H11F H 0.7305 -0.1850 0.7537
C7F C 0.7096(5) -0.0117(7) 0.7409(2)
H12F H 0.7260 0.0618 0.7552
H13F H 0.6589 -0.0202 0.7489
C8F C 0.6830(3) -0.0603(5) 0.60380(19)
H14F H 0.6550 -0.1078 0.5834
C9F C 0.6769(3) -0.0731(6) 0.6543(2)
H15F H 0.6450 -0.1279 0.6674
C10F C 0.7178(4) -0.0051(6) 0.6853(2)
C11F C 0.7667(3) 0.0707(5) 0.6638(2)
H16F H 0.7977 0.1149 0.6835
C12F C 0.7693(3) 0.0803(5) 0.61275(19)
H17F H 0.8017 0.1330 0.5988
C13B C 1.0357(3) -0.0600(5) 0.8972(2)
H18B H 1.0122 -0.0112 0.9197
C14B C 1.0130(4) -0.0614(7) 0.8484(3)
H19B H 0.9751 -0.0134 0.8384
C15B C 1.0471(5) -0.1353(7) 0.8141(3)
C16B C 1.1014(4) -0.2040(6) 0.8311(2)
H20B H 1.1247 -0.2560 0.8099
C17B C 1.1216(3) -0.1962(5) 0.87957(18)
H21B H 1.1599 -0.2427 0.8900
C18B C 1.0335(5) -0.1339(10) 0.7559(4)
H22B H 1.0705 -0.1331 0.7327
C19D C 1.1300(2) -0.1456(4) 0.50405(15)
C20D C 1.0859(2) -0.2402(4) 0.52828(16)
C21D C 1.0195(2) -0.2748(3) 0.50839(15)
C22D C 0.9780(2) -0.3578(4) 0.53319(16)
C23D C 1.0014(2) -0.4048(4) 0.57786(17)
H23D H 0.9748 -0.4628 0.5939
C24D C 1.0650(2) -0.3634(4) 0.59793(17)
C25D C 1.1087(2) -0.2834(4) 0.57363(17)
H24D H 1.1522 -0.2594 0.5874
C26D C 0.9971(2) -0.2254(4) 0.45845(16)
C27D C 0.9039(2) -0.3934(4) 0.51644(15)
O10 O 0.9024(3) 0.1697(6) 0.7514(2)
H2 H 0.9143 0.2190 0.7303
H3 H 0.9217 0.1827 0.7786
O11 O 1.0037(3) 0.2625(5) 0.67372(17)
H4 H 1.0013 0.2272 0.6467
H5 H 0.9628 0.2692 0.6862
loop_
_geom_bond_atom_site_label_1
_geom_bond_atom_site_label_2
_geom_bond_site_symmetry_1
_geom_bond_site_symmetry_2
Zn1 O1 1_555 1_555
Zn2 O2 1_555 1_555
O1 C19 1_555 1_555
O2 C19 1_555 1_555
O3 C26 1_555 1_555
O4 C26 1_555 1_555
O5 C27 1_555 1_555
O6 C27 1_555 1_555
O7 N4 1_555 1_555
O8 N4 1_555 1_555
O9 Zn1 1_555 1_555
H1 O9 1_555 1_555
O10 H2 1_555 1_555
H3 O10 1_555 1_555
O11 H4 1_555 1_555
H5 O11 1_555 1_555
N1 Zn2 1_555 1_555
N2 C8 1_555 1_555
N3 Zn1 1_555 1_555
N4 C24 1_555 1_555
C1 N1 1_555 1_555
H6 C1 1_555 1_555
C2 C1 1_555 1_555
H7 C2 1_555 1_555
C3 C2 1_555 1_555
C4 C3 1_555 1_555
H8 C4 1_555 1_555
C5 N1 1_555 1_555
H9 C5 1_555 1_555
C6 C3 1_555 1_555
H10 C6 1_555 1_555
H11 C6 1_555 1_555
C7 C6 1_555 1_555
H12 C7 1_555 1_555
H13 C7 1_555 1_555
C8 H14 1_555 1_555
C9 C8 1_555 1_555
H15 C9 1_555 1_555
C10 C7 1_555 1_555
C11 C10 1_555 1_555
H16 C11 1_555 1_555
C12 N2 1_555 1_555
H17 C12 1_555 1_555
C13 N3 1_555 1_555
H18 C13 1_555 1_555
C14 C13 1_555 1_555
H19 C14 1_555 1_555
C15 C14 1_555 1_555
C16 C15 1_555 1_555
H20 C16 1_555 1_555
C17 N3 1_555 1_555
H21 C17 1_555 1_555
C18 C15 1_555 1_555
H22 C18 1_555 1_555
C19 C20 1_555 1_555
C20 C21 1_555 1_555
C21 C22 1_555 1_555
C22 C23 1_555 1_555
C23 H23 1_555 1_555
C24 C23 1_555 1_555
C25 C20 1_555 1_555
H24 C25 1_555 1_555
C26 C21 1_555 1_555
C27 C22 1_555 1_555
Zn1D O4 1_555 1_555
Zn1B N3B 1_555 1_555
Zn2D O2D 1_555 1_555
Zn2C O5 1_555 1_555
Zn2F N2 1_555 1_555
Zn2G O5D 1_555 1_555
Zn2F_2 N1F 1_555 1_555
O1D Zn1D 1_555 1_555
O2D C19D 1_555 1_555
O3D C26D 1_555 1_555
O4D Zn1 1_555 1_555
O5D Zn1 1_555 1_555
O5C Zn2 1_555 1_555
O5G Zn2D 1_555 1_555
O6D Zn2G 1_555 1_555
O6C Zn2 1_555 1_555
O6G Zn2D 1_555 1_555
O7D N4D 1_555 1_555
O8D N4D 1_555 1_555
O9D Zn1D 1_555 1_555
H1D O9D 1_555 1_555
N1F C1F 1_555 1_555
N1D Zn2D 1_555 1_555
N2F Zn2 1_555 1_555
N2B Zn2D 1_555 1_555
N3B C13B 1_555 1_555
N3D Zn1D 1_555 1_555
N4D C24D 1_555 1_555
C1F H6F 1_555 1_555
C2F C1F 1_555 1_555
H7F C2F 1_555 1_555
C3F C2F 1_555 1_555
C4F C3F 1_555 1_555
H8F C4F 1_555 1_555
C5F N1F 1_555 1_555
H9F C5F 1_555 1_555
C6F C3F 1_555 1_555
H10F C6F 1_555 1_555
H11F C6F 1_555 1_555
C7F C6F 1_555 1_555
H12F C7F 1_555 1_555
H13F C7F 1_555 1_555
C8F N2F 1_555 1_555
H14F C8F 1_555 1_555
C9F C8F 1_555 1_555
H15F C9F 1_555 1_555
C10F C7F 1_555 1_555
C11F C10F 1_555 1_555
H16F C11F 1_555 1_555
C12F N2F 1_555 1_555
H17F C12F 1_555 1_555
C13B H18B 1_555 1_555
C14B C13B 1_555 1_555
H19B C14B 1_555 1_555
C15B C14B 1_555 1_555
C16B C15B 1_555 1_555
H20B C16B 1_555 1_555
C17B N3B 1_555 1_555
H21B C17B 1_555 1_555
C18B C18 1_555 1_555
H22B C18B 1_555 1_555
C19D O1D 1_555 1_555
C20D C19D 1_555 1_555
C21D C20D 1_555 1_555
C22D C21D 1_555 1_555
C23D C22D 1_555 1_555
H23D C23D 1_555 1_555
C24D C23D 1_555 1_555
C25D C20D 1_555 1_555
H24D C25D 1_555 1_555
C26D O4D 1_555 1_555
C27D O5D 1_555 1_555
Zn2 O9 1_555 1_555
O5 Zn1D 1_555 1_555
O6 Zn2C 1_555 1_555
C4 C5 1_555 1_555
C9 C10 1_555 1_555
C11 C12 1_555 1_555
C16 C17 1_555 1_555
C24 C25 1_555 1_555
Zn2D O9D 1_555 1_555
O6D C27D 1_555 1_555
C4F C5F 1_555 1_555
C9F C10F 1_555 1_555
C11F C12F 1_555 1_555
C15B C18B 1_555 1_555
C16B C17B 1_555 1_555
C21D C26D 1_555 1_555
C22D C27D 1_555 1_555
C24D C25D 1_555 1_555

#END
