
#######################################################################
#
#                 Cambridge Crystallographic Data Centre
#                                CCDC 
#
#######################################################################
#
# If this CIF has been generated from an entry in the Cambridge 
# Structural Database, then it will include bibliographic, chemical, 
# crystal, experimental, refinement or atomic coordinate data resulting 
# from the CCDC's data processing and validation procedures.
#
#######################################################################

data_QUPGUE
_symmetry_cell_setting           monoclinic
_symmetry_space_group_name_H-M   'C 2/c'
_symmetry_Int_Tables_number      15
_space_group_name_Hall           '-C 2yn'
loop_
_symmetry_equiv_pos_site_id
_symmetry_equiv_pos_as_xyz
1 x,y,z
2 -x,y,1/2-z
3 1/2+x,1/2+y,z
4 1/2-x,1/2+y,1/2-z
5 -x,-y,-z
6 x,-y,1/2+z
7 1/2-x,1/2-y,-z
8 1/2+x,1/2-y,1/2+z
_cell_length_a                   19.016(3)
_cell_length_b                   23.278(3)
_cell_length_c                   12.1307(18)
_cell_angle_alpha                90
_cell_angle_beta                 120.778(1)
_cell_angle_gamma                90
_cell_volume                     4613.42
loop_
_atom_site_label
_atom_site_type_symbol
_atom_site_fract_x
_atom_site_fract_y
_atom_site_fract_z
Zn1 Zn 0.700039(13) 1.051131(9) 0.67952(2)
Zn2 Zn 0.5000 0.977020(12) 0.7500
O1 O 0.60810(8) 0.99426(5) 0.65908(13)
O2 O 0.55772(8) 0.91874(5) 0.70588(13)
O3 O 0.68448(8) 1.01424(5) 0.50657(12)
O4 O 0.56902(8) 0.96526(6) 0.37899(12)
O5 O 0.70469(8) 0.92293(6) 0.34547(12)
O6 O 0.81322(10) 0.86521(8) 0.44483(15)
O7 O 0.80337(11) 0.72913(7) 0.74617(17)
O8 O 0.72866(12) 0.74627(7) 0.82876(18)
O9 O 0.79662(9) 1.11583(6) 0.71131(14)
H1 H 0.8248 1.1230 0.7881
H2 H 0.7778 1.1471 0.6716
N1 N 0.75576(11) 0.75926(7) 0.75943(17)
N2 N 0.80214(10) 0.99618(7) 0.79403(16)
N3 N 0.88905(10) 0.61368(7) 0.92493(16)
C1 C 0.65333(11) 0.90108(8) 0.64040(17)
C2 C 0.67548(10) 0.91464(8) 0.54973(16)
C3 C 0.72688(11) 0.87740(8) 0.53197(17)
C4 C 0.75463(12) 0.82701(8) 0.60305(18)
H3 H 0.7897 0.8025 0.5934
C5 C 0.72913(12) 0.81396(8) 0.68859(18)
C6 C 0.67894(11) 0.84970(8) 0.70792(18)
H4 H 0.6624 0.8397 0.7654
C7 C 0.60270(11) 0.94140(8) 0.66924(17)
C8 C 0.64110(11) 0.96967(8) 0.47116(17)
C9 C 0.75141(12) 0.88918(8) 0.43314(18)
C10 C 0.80886(14) 0.97111(9) 0.8984(2)
H5 H 0.7689 0.9786 0.9191
C11 C 0.87217(15) 0.93476(10) 0.9764(2)
H6 H 0.8742 0.9183 1.0479
C12 C 0.93275(13) 0.92255(9) 0.9490(2)
C13 C 0.92566(15) 0.94872(11) 0.8416(3)
H7 H 0.9651 0.9422 0.8194
C14 C 0.86020(14) 0.98461(10) 0.7668(2)
H8 H 0.8566 1.0014 0.6945
C15 C 0.99896(14) 0.87940(9) 1.0270(3)
H9 H 1.0194 0.8853 1.1176
H10 H 1.0441 0.8844 1.0122
C16 C 0.96421(15) 0.81877(10) 0.9884(3)
H11 H 0.9175 0.8151 0.9998
H12 H 0.9447 0.8134 0.8979
C17 C 1.02535(14) 0.77118(10) 1.0643(3)
H13 H 1.0706 0.7725 1.0489
H14 H 1.0470 0.7767 1.1553
C18 C 0.94045(13) 0.63058(9) 0.8865(2)
H15 H 0.9444 0.6086 0.8259
C19 C 0.98790(13) 0.67960(10) 0.9335(2)
H16 H 1.0232 0.6897 0.9050
C20 C 0.98293(13) 0.71355(9) 1.0229(2)
C21 C 0.93252(15) 0.69441(10) 1.0663(2)
H17 H 0.9291 0.7149 1.1291
C22 C 0.88734(13) 0.64488(9) 1.01628(19)
H18 H 0.8542 0.6326 1.0474
Zn1A Zn 0.299961(13) 1.051131(9) 0.82048(2)
Zn1E Zn 0.700039(13) 0.948869(9) 0.17952(2)
Zn1C Zn 0.799961(13) 0.551131(9) 0.82048(2)
Zn1D Zn 0.299961(13) 0.948869(9) 1.32048(2)
Zn1C_2 Zn 0.799961(13) 1.551131(9) 0.82048(2)
Zn2D Zn 0.5000 1.022980(12) 0.2500
Zn2D_2 Zn 0.5000 1.022980(12) 1.2500
O1A O 0.39190(8) 0.99426(5) 0.84092(13)
O2A O 0.44228(8) 0.91874(5) 0.79412(13)
O3A O 0.31552(8) 1.01424(5) 0.99343(12)
O4A O 0.43098(8) 0.96526(6) 1.12101(12)
O4D O 0.43098(8) 1.03474(6) 0.62101(12)
O4E O 0.56902(8) 1.03474(6) 0.87899(12)
O5A O 0.29531(8) 0.92293(6) 1.15453(12)
O5E O 0.70469(8) 1.07707(6) 0.84547(12)
O5D O 0.29531(8) 1.07707(6) 0.65453(12)
O6A O 0.18678(10) 0.86521(8) 1.05517(15)
O7A O 0.19663(11) 0.72913(7) 0.75383(17)
O8A O 0.27134(12) 0.74627(7) 0.67124(18)
O9A O 0.20338(9) 1.11583(6) 0.78869(14)
H1A H 0.1752 1.1230 0.7119
H2A H 0.2222 1.1471 0.8284
N1A N 0.24424(11) 0.75926(7) 0.74057(17)
N2C N 0.69786(10) 1.49618(7) 0.70597(16)
N2A N 0.19786(10) 0.99618(7) 0.70597(16)
N3C N 0.61095(10) 1.11368(7) 0.57507(16)
N3B N 0.38905(10) 1.11368(7) 0.92493(16)
C1A C 0.34667(11) 0.90108(8) 0.85960(17)
C2A C 0.32452(10) 0.91464(8) 0.95027(16)
C3A C 0.27312(11) 0.87740(8) 0.96803(17)
C4A C 0.24537(12) 0.82701(8) 0.89695(18)
H3A H 0.2103 0.8025 0.9066
C5A C 0.27087(12) 0.81396(8) 0.81141(18)
C6A C 0.32106(11) 0.84970(8) 0.79208(18)
H4A H 0.3376 0.8397 0.7346
C7A C 0.39730(11) 0.94140(8) 0.83076(17)
C8A C 0.35890(11) 0.96967(8) 1.02884(17)
C9A C 0.24859(12) 0.88918(8) 1.06686(18)
C10C C 0.69114(14) 1.47111(9) 0.6016(2)
H5C H 0.7311 1.4786 0.5809
C11C C 0.62783(15) 1.43476(10) 0.5236(2)
H6C H 0.6258 1.4183 0.4521
C12C C 0.56725(13) 1.42255(9) 0.5510(2)
C13C C 0.57434(15) 1.44872(11) 0.6584(3)
H7C H 0.5349 1.4422 0.6806
C14C C 0.63980(14) 1.48461(10) 0.7332(2)
H8C H 0.6434 1.5014 0.8055
C15C C 0.50104(14) 1.37940(9) 0.4730(3)
H9C H 0.4806 1.3853 0.3824
H10C H 0.4559 1.3844 0.4878
C16C C 0.53579(15) 1.31877(10) 0.5116(3)
H11C H 0.5825 1.3151 0.5002
H12C H 0.5553 1.3134 0.6021
C17C C 0.47465(14) 1.27118(10) 0.4357(3)
H13C H 0.4294 1.2725 0.4511
H14C H 0.4530 1.2767 0.3447
C18C C 0.55955(13) 1.13058(9) 0.6135(2)
H15C H 0.5556 1.1086 0.6741
C19C C 0.51210(13) 1.17960(10) 0.5665(2)
H16C H 0.4768 1.1897 0.5950
C20C C 0.51707(13) 1.21355(9) 0.4771(2)
C21C C 0.56748(15) 1.19441(10) 0.4337(2)
H17C H 0.5709 1.2149 0.3709
C22C C 0.61266(13) 1.14488(9) 0.48372(19)
H18C H 0.6458 1.1326 0.4526
loop_
_geom_bond_atom_site_label_1
_geom_bond_atom_site_label_2
_geom_bond_site_symmetry_1
_geom_bond_site_symmetry_2
Zn1 O1 1_555 1_555
Zn2 O2 1_555 1_555
O1 C7 1_555 1_555
O2 C7 1_555 1_555
O3 Zn1 1_555 1_555
O4 C8 1_555 1_555
O5 C9 1_555 1_555
O6 C9 1_555 1_555
O7 N1 1_555 1_555
O8 N1 1_555 1_555
O9 Zn1 1_555 1_555
H1 O9 1_555 1_555
H2 O9 1_555 1_555
N1 C5 1_555 1_555
N2 Zn1 1_555 1_555
N3 C18 1_555 1_555
C1 C2 1_555 1_555
C2 C3 1_555 1_555
C3 C4 1_555 1_555
C4 H3 1_555 1_555
C5 C4 1_555 1_555
C6 C1 1_555 1_555
H4 C6 1_555 1_555
C7 C1 1_555 1_555
C8 O3 1_555 1_555
C9 C3 1_555 1_555
C10 N2 1_555 1_555
H5 C10 1_555 1_555
C11 C10 1_555 1_555
H6 C11 1_555 1_555
C12 C11 1_555 1_555
C13 C12 1_555 1_555
H7 C13 1_555 1_555
C14 N2 1_555 1_555
H8 C14 1_555 1_555
C15 C12 1_555 1_555
H9 C15 1_555 1_555
H10 C15 1_555 1_555
C16 C15 1_555 1_555
H11 C16 1_555 1_555
H12 C16 1_555 1_555
C17 C16 1_555 1_555
H13 C17 1_555 1_555
H14 C17 1_555 1_555
C18 H15 1_555 1_555
C19 C18 1_555 1_555
H16 C19 1_555 1_555
C20 C17 1_555 1_555
C21 C20 1_555 1_555
H17 C21 1_555 1_555
C22 N3 1_555 1_555
H18 C22 1_555 1_555
Zn1A O1A 1_555 1_555
Zn1E O5 1_555 1_555
Zn1C N3 1_555 1_555
Zn1D O5A 1_555 1_555
Zn1C_2 N2C 1_555 1_555
Zn2D O4 1_555 1_555
Zn2D_2 O4A 1_555 1_555
O1A C7A 1_555 1_555
O2A Zn2 1_555 1_555
O3A Zn1A 1_555 1_555
O4A C8A 1_555 1_555
O4D Zn2 1_555 1_555
O4E Zn2 1_555 1_555
O5A C9A 1_555 1_555
O5E Zn1 1_555 1_555
O5D Zn1A 1_555 1_555
O6A C9A 1_555 1_555
O7A N1A 1_555 1_555
O8A N1A 1_555 1_555
O9A Zn1A 1_555 1_555
H1A O9A 1_555 1_555
H2A O9A 1_555 1_555
N1A C5A 1_555 1_555
N2C C10C 1_555 1_555
N2A Zn1A 1_555 1_555
N3C Zn1 1_555 1_555
N3B Zn1A 1_555 1_555
C1A C2A 1_555 1_555
C2A C3A 1_555 1_555
C3A C4A 1_555 1_555
C4A H3A 1_555 1_555
C5A C4A 1_555 1_555
C6A C1A 1_555 1_555
H4A C6A 1_555 1_555
C7A O2A 1_555 1_555
C8A O3A 1_555 1_555
C9A C3A 1_555 1_555
C10C H5C 1_555 1_555
C11C C10C 1_555 1_555
H6C C11C 1_555 1_555
C12C C11C 1_555 1_555
C13C C12C 1_555 1_555
H7C C13C 1_555 1_555
C14C N2C 1_555 1_555
H8C C14C 1_555 1_555
C15C C12C 1_555 1_555
H9C C15C 1_555 1_555
H10C C15C 1_555 1_555
C16C C15C 1_555 1_555
H11C C16C 1_555 1_555
H12C C16C 1_555 1_555
C17C C16C 1_555 1_555
H13C C17C 1_555 1_555
H14C C17C 1_555 1_555
C18C N3C 1_555 1_555
H15C C18C 1_555 1_555
C19C C18C 1_555 1_555
H16C C19C 1_555 1_555
C20C C17C 1_555 1_555
C21C C20C 1_555 1_555
H17C C21C 1_555 1_555
C22C N3C 1_555 1_555
H18C C22C 1_555 1_555
C2 C8 1_555 1_555
C5 C6 1_555 1_555
C13 C14 1_555 1_555
C19 C20 1_555 1_555
C21 C22 1_555 1_555
C1A C7A 1_555 1_555
C2A C8A 1_555 1_555
C5A C6A 1_555 1_555
C13C C14C 1_555 1_555
C19C C20C 1_555 1_555
C21C C22C 1_555 1_555

#END
