
#######################################################################
#
#                 Cambridge Crystallographic Data Centre
#                                CCDC 
#
#######################################################################
#
# If this CIF has been generated from an entry in the Cambridge 
# Structural Database, then it will include bibliographic, chemical, 
# crystal, experimental, refinement or atomic coordinate data resulting 
# from the CCDC's data processing and validation procedures.
#
#######################################################################

data_QUPHOZ
_symmetry_cell_setting           monoclinic
_symmetry_space_group_name_H-M   'P 21/c'
_symmetry_Int_Tables_number      14
_space_group_name_Hall           '-P 2ybc'
loop_
_symmetry_equiv_pos_site_id
_symmetry_equiv_pos_as_xyz
1 x,y,z
2 -x,1/2+y,1/2-z
3 -x,-y,-z
4 x,1/2-y,1/2+z
_cell_length_a                   9.0163(9)
_cell_length_b                   21.223(2)
_cell_length_c                   20.527(2)
_cell_angle_alpha                90
_cell_angle_beta                 90.549(2)
_cell_angle_gamma                90
_cell_volume                     3927.72
loop_
_atom_site_label
_atom_site_type_symbol
_atom_site_fract_x
_atom_site_fract_y
_atom_site_fract_z
O1 O 0.7935(4) 0.0658(2) 0.5852(2)
H1 H 0.8313 0.0408 0.6131
H2 H 0.7176 0.0835 0.6014
C1 C 0.8924(4) 0.35439(17) 0.75931(17)
C2 C 0.8781(4) 0.40350(18) 0.70518(18)
H3 H 0.8580 0.3829 0.6638
H4 H 0.9698 0.4271 0.7015
C3 C 0.7497(4) 0.31597(19) 0.76389(18)
H5 H 0.6686 0.3422 0.7786
H6 H 0.7623 0.2813 0.7942
C4 C 0.9257(4) 0.38817(17) 0.82238(17)
H7 H 0.8501 0.4196 0.8308
H8 H 1.0210 0.4092 0.8200
C5 C 1.0176(4) 0.30910(18) 0.74336(19)
H9 H 0.9938 0.2866 0.7035
H10 H 1.0282 0.2784 0.7781
C6 C 0.7197(4) 0.53575(19) 0.5725(2)
H11 H 0.7578 0.5374 0.5306
C7 C 0.7776(4) 0.49169(18) 0.61469(19)
H12 H 0.8533 0.4648 0.6017
C8 C 0.7212(4) 0.48822(19) 0.67642(19)
C9 C 0.6148(4) 0.5320(2) 0.69436(19)
H13 H 0.5770 0.5323 0.7364
C10 C 0.5672(4) 0.57420(19) 0.6492(2)
H14 H 0.4977 0.6040 0.6620
C11 C 0.6042(5) 0.2543(2) 0.68887(19)
C12 C 0.5838(5) 0.2349(2) 0.6255(2)
H15 H 0.6479 0.2482 0.5931
C13 C 0.4676(5) 0.1958(2) 0.6110(2)
H16 H 0.4540 0.1833 0.5680
C14 C 0.3938(4) 0.19493(19) 0.7164(2)
H17 H 0.3276 0.1815 0.7480
C15 C 0.5056(4) 0.23406(19) 0.73554(19)
H18 H 0.5154 0.2468 0.7787
C16 C 0.9872(4) 0.35790(18) 0.93124(18)
C17 C 0.9848(5) 0.31251(18) 0.9803(2)
H19 H 0.9389 0.2738 0.9733
C18 C 1.0500(5) 0.3255(2) 1.03796(19)
H20 H 1.0453 0.2951 1.0705
C19 C 1.1170(4) 0.42301(19) 1.00463(19)
H21 H 1.1619 0.4616 1.0135
C20 C 1.0524(4) 0.41520(18) 0.94558(18)
H22 H 1.0519 0.4477 0.9152
C21 C 1.2133(4) 0.35046(17) 0.67643(19)
C22 C 1.3523(4) 0.37841(19) 0.6743(2)
H23 H 1.3989 0.3918 0.7125
C23 C 1.4197(4) 0.38606(19) 0.6162(2)
H24 H 1.5135 0.4043 0.6160
C24 C 1.2234(5) 0.34428(19) 0.5617(2)
H25 H 1.1777 0.3327 0.5227
C25 C 1.1479(4) 0.33499(19) 0.6172(2)
H26 H 1.0526 0.3183 0.6158
C26 C 0.4322(5) 1.0076(2) 0.63000(19)
C27 C 0.4753(4) 0.94146(18) 0.61342(18)
C28 C 0.3895(4) 0.9063(2) 0.57204(19)
H27 H 0.3075 0.9247 0.5519
C29 C 0.4220(4) 0.8442(2) 0.55956(19)
H28 H 0.3620 0.8212 0.5312
C30 C 0.5432(4) 0.81581(19) 0.58891(19)
C31 C 0.6324(4) 0.85143(19) 0.6294(2)
H29 H 0.7159 0.8333 0.6485
C32 C 0.5995(4) 0.9136(2) 0.6417(2)
H30 H 0.6607 0.9370 0.6692
C33 C 0.5777(5) 0.7481(2) 0.5773(2)
C34 C -0.0175(5) 0.5786(2) 0.7674(2)
C35 C 0.0419(4) 0.5893(2) 0.7002(2)
C36 C 0.1514(5) 0.5516(2) 0.6746(2)
H31 H 0.1902 0.5187 0.6994
C37 C 0.2036(5) 0.5621(2) 0.6129(2)
H32 H 0.2786 0.5367 0.5965
C38 C 0.1457(4) 0.6102(2) 0.5749(2)
C39 C 0.0313(5) 0.6452(2) 0.6002(2)
H33 H -0.0129 0.6763 0.5746
C40 C -0.0189(4) 0.6354(2) 0.6618(2)
H34 H -0.0952 0.6603 0.6778
C41 C 0.2054(5) 0.6242(2) 0.5081(2)
N1 N 0.6133(4) 0.57591(15) 0.58758(15)
N2 N 1.3598(3) 0.36902(15) 0.55891(15)
N3 N 0.3725(3) 0.17457(15) 0.65559(16)
N4 N 1.1207(3) 0.37896(15) 1.05133(15)
O2 O 0.9280(3) 0.34184(12) 0.87351(12)
O3 O 1.1550(3) 0.34243(13) 0.73561(12)
O4 O 0.7591(3) 0.44493(12) 0.72106(12)
O5 O 0.7201(3) 0.29275(14) 0.69976(13)
O6 O 0.5230(3) 1.04278(14) 0.65680(17)
O7 O 0.3001(3) 1.02174(12) 0.61823(14)
O8 O 0.4799(4) 0.71839(14) 0.54599(16)
O9 O 0.6905(4) 0.72464(16) 0.5965(2)
O10 O -0.1108(3) 0.61752(15) 0.78658(14)
O11 O 0.0293(3) 0.53304(15) 0.79975(16)
O12 O 0.3326(3) 0.60025(14) 0.49517(14)
O13 O 0.1319(4) 0.65546(18) 0.46983(15)
Zn1 Zn 0.52082(5) 0.63352(2) 0.52270(2)
Zn2 Zn 0.22448(5) 0.10444(2) 0.63673(2)
N2B N 0.6402(3) 0.63098(15) 0.44109(15)
N4C N 0.1207(3) 0.12104(15) 0.55133(15)
O7_2 O 0.3001(3) 0.02174(12) 0.61823(14)
O10A O 0.1108(3) 0.11752(15) 0.71342(14)
Zn1B Zn 1.47918(5) 0.36648(2) 0.47730(2)
Zn2C Zn 1.22448(5) 0.39556(2) 1.13673(2)
Zn2_2 Zn 0.22448(5) 1.10444(2) 0.63673(2)
Zn2A Zn -0.22448(5) 0.60444(2) 0.86327(2)
loop_
_geom_bond_atom_site_label_1
_geom_bond_atom_site_label_2
_geom_bond_site_symmetry_1
_geom_bond_site_symmetry_2
O1 H1 1_555 1_555
H2 O1 1_555 1_555
C1 C2 1_555 1_555
C2 H3 1_555 1_555
H4 C2 1_555 1_555
C3 C1 1_555 1_555
H5 C3 1_555 1_555
H6 C3 1_555 1_555
C4 C1 1_555 1_555
H7 C4 1_555 1_555
H8 C4 1_555 1_555
C5 C1 1_555 1_555
H9 C5 1_555 1_555
H10 C5 1_555 1_555
C6 H11 1_555 1_555
C7 C6 1_555 1_555
H12 C7 1_555 1_555
C8 C7 1_555 1_555
C9 C8 1_555 1_555
H13 C9 1_555 1_555
C10 C9 1_555 1_555
H14 C10 1_555 1_555
C11 C12 1_555 1_555
C12 H15 1_555 1_555
C13 C12 1_555 1_555
H16 C13 1_555 1_555
C14 H17 1_555 1_555
C15 C11 1_555 1_555
H18 C15 1_555 1_555
C16 C17 1_555 1_555
C17 H19 1_555 1_555
C18 C17 1_555 1_555
H20 C18 1_555 1_555
C19 H21 1_555 1_555
C20 C16 1_555 1_555
H22 C20 1_555 1_555
C21 C22 1_555 1_555
C22 H23 1_555 1_555
C23 C22 1_555 1_555
H24 C23 1_555 1_555
C24 H25 1_555 1_555
C25 C21 1_555 1_555
H26 C25 1_555 1_555
C26 C27 1_555 1_555
C27 C28 1_555 1_555
C28 H27 1_555 1_555
C29 C28 1_555 1_555
H28 C29 1_555 1_555
C30 C29 1_555 1_555
C31 C30 1_555 1_555
H29 C31 1_555 1_555
C32 C27 1_555 1_555
H30 C32 1_555 1_555
C33 C30 1_555 1_555
C34 C35 1_555 1_555
C35 C36 1_555 1_555
C36 H31 1_555 1_555
C37 C36 1_555 1_555
H32 C37 1_555 1_555
C38 C37 1_555 1_555
C39 C38 1_555 1_555
H33 C39 1_555 1_555
C40 C35 1_555 1_555
H34 C40 1_555 1_555
C41 C38 1_555 1_555
N1 C6 1_555 1_555
N2 C23 1_555 1_555
N3 C13 1_555 1_555
N4 C18 1_555 1_555
O2 C4 1_555 1_555
O3 C5 1_555 1_555
O4 C2 1_555 1_555
O5 C3 1_555 1_555
O6 C26 1_555 1_555
O7 C26 1_555 1_555
O8 C33 1_555 1_555
O9 C33 1_555 1_555
O10 C34 1_555 1_555
O11 C34 1_555 1_555
O12 C41 1_555 1_555
O13 C41 1_555 1_555
Zn1 N1 1_555 1_555
Zn2 N3 1_555 1_555
N2B Zn1 1_555 1_555
N4C Zn2 1_555 1_555
O7_2 Zn2 1_555 1_555
O10A Zn2 1_555 1_555
Zn1B N2 1_555 1_555
Zn2C N4 1_555 1_555
Zn2_2 O7 1_555 1_555
Zn2A O10 1_555 1_555
C8 O4 1_555 1_555
C10 N1 1_555 1_555
C11 O5 1_555 1_555
C14 C15 1_555 1_555
C14 N3 1_555 1_555
C16 O2 1_555 1_555
C19 C20 1_555 1_555
C19 N4 1_555 1_555
C21 O3 1_555 1_555
C24 C25 1_555 1_555
C24 N2 1_555 1_555
C31 C32 1_555 1_555
C39 C40 1_555 1_555
O8 Zn1 1_555 1_555
O12 Zn1 1_555 1_555

#END
