
#######################################################################
#
#                 Cambridge Crystallographic Data Centre
#                                CCDC 
#
#######################################################################
#
# If this CIF has been generated from an entry in the Cambridge 
# Structural Database, then it will include bibliographic, chemical, 
# crystal, experimental, refinement or atomic coordinate data resulting 
# from the CCDC's data processing and validation procedures.
#
#######################################################################

data_QUPHEP
_symmetry_cell_setting           orthorhombic
_symmetry_space_group_name_H-M   'P 21 21 2'
_symmetry_Int_Tables_number      18
_space_group_name_Hall           'P 2 2ab'
loop_
_symmetry_equiv_pos_site_id
_symmetry_equiv_pos_as_xyz
1 x,y,z
2 -x,-y,z
3 1/2+x,1/2-y,-z
4 1/2-x,1/2+y,-z
_cell_length_a                   15.2269(15)
_cell_length_b                   17.7296(17)
_cell_length_c                   9.0861(9)
_cell_angle_alpha                90
_cell_angle_beta                 90
_cell_angle_gamma                90
_cell_volume                     2452.95
loop_
_atom_site_label
_atom_site_type_symbol
_atom_site_fract_x
_atom_site_fract_y
_atom_site_fract_z
C1 C 0.0230(4) 0.8151(4) -0.2568(8)
C2 C -0.0575(4) 0.8541(3) -0.3163(9)
C3 C -0.1055(4) 0.8225(4) -0.4313(8)
H1 H -0.0901 0.7754 -0.4683
C4 C -0.1765(5) 0.8611(3) -0.4908(7)
C5 C -0.1943(4) 0.9328(4) -0.4408(8)
H2 H -0.2389 0.9604 -0.4856
C6 C -0.1483(4) 0.9648(3) -0.3270(9)
C7 C -0.0785(5) 0.9244(4) -0.2612(9)
H3 H -0.0474 0.9447 -0.1826
C8 C -0.2267(4) 0.8268(4) -0.6131(7)
C9 C 0.1122(4) 0.7060(4) 0.1441(8)
H4 H 0.1024 0.7577 0.1443
C10 C 0.0889(5) 0.6658(4) 0.2682(8)
H5 H 0.0631 0.6895 0.3488
C11 C 0.1652(5) 0.6021(4) 0.0274(8)
H6 H 0.1919 0.5799 -0.0537
C12 C 0.1448(5) 0.5575(4) 0.1468(8)
H7 H 0.1577 0.5062 0.1453
C13 C 0.1053(4) 0.5890(4) 0.2681(7)
C14 C 0.0244(4) 0.5687(4) 0.4878(7)
H8 H -0.0275 0.5898 0.4417
H9 H 0.0516 0.6073 0.5481
C15 C 0.0000 0.5000 0.5819(9)
C16 C 0.0796(4) 0.4799(3) 0.6779(8)
H10 H 0.1292 0.4662 0.6164
H11 H 0.0963 0.5228 0.7381
C17 C 0.1163(4) 0.3900(4) 0.8589(7)
C18 C 0.2028(4) 0.4124(4) 0.8669(8)
H12 H 0.2238 0.4510 0.8074
C19 C 0.2577(4) 0.3761(3) 0.9652(7)
H13 H 0.3164 0.3907 0.9678
C20 C 0.1468(4) 0.2989(4) 1.0455(8)
H14 H 0.1278 0.2587 1.1030
C21 C 0.0885(4) 0.3329(4) 0.9533(8)
H15 H 0.0299 0.3180 0.9534
Cd1 Cd 0.17410(3) 0.74543(3) -0.18317(5)
N1 N 0.1483(4) 0.6754(3) 0.0233(6)
N2 N 0.2318(3) 0.3216(3) 1.0565(6)
O1 O 0.0522(3) 0.8311(3) -0.1328(6)
O2 O 0.0565(3) 0.7649(2) -0.3288(6)
O3 O -0.2197(3) 0.7588(3) -0.6368(5)
O4 O -0.2799(3) 0.8670(2) -0.6868(6)
O5 O -0.1698(3) 1.0346(3) -0.2721(5)
H16 H -0.1263 1.0538 -0.2343
O6 O 0.0847(3) 0.5422(3) 0.3785(5)
O7 O 0.0551(3) 0.4184(3) 0.7682(5)
C1B C 0.5230(4) 0.6849(4) -0.7432(8)
C2B C 0.4425(4) 0.6459(3) -0.6837(9)
C3B C 0.3945(4) 0.6775(4) -0.5687(8)
H1B H 0.4099 0.7246 -0.5317
C4B C 0.3235(5) 0.6389(3) -0.5092(7)
C5B C 0.3057(4) 0.5672(4) -0.5592(8)
H2B H 0.2611 0.5396 -0.5144
C6B C 0.3517(4) 0.5352(3) -0.6730(9)
C7B C 0.4215(5) 0.5756(4) -0.7388(9)
H3B H 0.4526 0.5553 -0.8174
C8B C 0.2733(4) 0.6732(4) -0.3869(7)
C9A C -0.1122(4) 0.2940(4) 0.1441(8)
H4A H -0.1024 0.2423 0.1443
C10A C -0.0889(5) 0.3342(4) 0.2682(8)
H5A H -0.0631 0.3105 0.3488
C11A C -0.1652(5) 0.3979(4) 0.0274(8)
H6A H -0.1919 0.4201 -0.0537
C12A C -0.1448(5) 0.4425(4) 0.1468(8)
H7A H -0.1577 0.4938 0.1453
C13A C -0.1053(4) 0.4110(4) 0.2681(7)
C14A C -0.0244(4) 0.4313(4) 0.4878(7)
H8A H 0.0275 0.4102 0.4417
H9A H -0.0516 0.3927 0.5481
C16A C -0.0796(4) 0.5201(3) 0.6779(8)
H10A H -0.1292 0.5338 0.6164
H11A H -0.0963 0.4772 0.7381
C17A C -0.1163(4) 0.6100(4) 0.8589(7)
C18A C -0.2028(4) 0.5876(4) 0.8669(8)
H12A H -0.2238 0.5490 0.8074
C19A C -0.2577(4) 0.6239(3) 0.9652(7)
H13A H -0.3164 0.6093 0.9678
C20A C -0.1468(4) 0.7011(4) 1.0455(8)
H14A H -0.1278 0.7413 1.1030
C21A C -0.0885(4) 0.6671(4) 0.9533(8)
H15A H -0.0299 0.6820 0.9534
Cd1A Cd -0.17410(3) 0.25457(3) -0.18317(5)
Cd1C Cd 0.32590(3) 0.24543(3) 1.18317(5)
Cd1B Cd -0.32590(3) 0.75457(3) -0.81683(5)
Cd1B_2 Cd -0.32590(3) 0.75457(3) 1.18317(5)
Cd1B_3 Cd 0.67410(3) 0.75457(3) -0.81683(5)
N1A N -0.1483(4) 0.3246(3) 0.0233(6)
N2A N -0.2318(3) 0.6784(3) 1.0565(6)
N2C N 0.2682(3) 0.8216(3) -0.0565(6)
N2B N -0.2682(3) 0.1784(3) -0.0565(6)
O1B O 0.5522(3) 0.6689(3) -0.8672(6)
O1A O -0.0522(3) 0.1689(3) -0.1328(6)
O2B O 0.5565(3) 0.7351(2) -0.6712(6)
O2A O -0.0565(3) 0.2351(2) -0.3288(6)
O3B O 0.2803(3) 0.7412(3) -0.3632(5)
O3C O -0.2803(3) 0.2588(3) -0.3632(5)
O4B O 0.2201(3) 0.6330(2) -0.3132(6)
O4C O -0.2201(3) 0.3670(2) -0.3132(6)
O5B O 0.3302(3) 0.4654(3) -0.7279(5)
H16B H 0.3737 0.4462 -0.7657
O6A O -0.0847(3) 0.4578(3) 0.3785(5)
O7A O -0.0551(3) 0.5816(3) 0.7682(5)
O8 O 0.7506(9) 0.6166(8) 0.4928(16)
H17 H 0.7535 0.6418 0.5722
H18 H 0.7956 0.6257 0.4404
O9 O 0.9047(7) 0.1400(7) 0.3686(15)
H19 H 0.8634 0.1115 0.3982
H20 H 0.9146 0.1316 0.2780
O10 O 0.1143(11) 0.0868(10) 0.0986(16)
H21 H 0.1688 0.0905 0.1177
H22 H 0.1020 0.0412 0.0785
loop_
_geom_bond_atom_site_label_1
_geom_bond_atom_site_label_2
_geom_bond_site_symmetry_1
_geom_bond_site_symmetry_2
C1 C2 1_555 1_555
C2 C3 1_555 1_555
C3 H1 1_555 1_555
C4 C3 1_555 1_555
C5 C4 1_555 1_555
H2 C5 1_555 1_555
C6 C5 1_555 1_555
C7 C2 1_555 1_555
H3 C7 1_555 1_555
C8 C4 1_555 1_555
C9 H4 1_555 1_555
C10 C9 1_555 1_555
H5 C10 1_555 1_555
C11 H6 1_555 1_555
C12 C11 1_555 1_555
H7 C12 1_555 1_555
C13 C10 1_555 1_555
C14 H8 1_555 1_555
H9 C14 1_555 1_555
C15 C14 1_555 1_555
C16 C15 1_555 1_555
H10 C16 1_555 1_555
H11 C16 1_555 1_555
C17 C18 1_555 1_555
C18 H12 1_555 1_555
C19 C18 1_555 1_555
H13 C19 1_555 1_555
C20 H14 1_555 1_555
C21 C17 1_555 1_555
H15 C21 1_555 1_555
Cd1 N1 1_555 1_555
N1 C9 1_555 1_555
N2 C19 1_555 1_555
O1 C1 1_555 1_555
O2 C1 1_555 1_555
O3 C8 1_555 1_555
O4 C8 1_555 1_555
O5 C6 1_555 1_555
H16 O5 1_555 1_555
O6 C13 1_555 1_555
O7 C16 1_555 1_555
O8 H17 1_555 1_555
H18 O8 1_555 1_555
O9 H19 1_555 1_555
H20 O9 1_555 1_555
O10 H21 1_555 1_555
H22 O10 1_555 1_555
C1B C2B 1_555 1_555
C2B C3B 1_555 1_555
C3B H1B 1_555 1_555
C4B C3B 1_555 1_555
C5B C4B 1_555 1_555
H2B C5B 1_555 1_555
C6B C5B 1_555 1_555
C7B C2B 1_555 1_555
H3B C7B 1_555 1_555
C8B C4B 1_555 1_555
C9A H4A 1_555 1_555
C10A C9A 1_555 1_555
H5A C10A 1_555 1_555
C11A H6A 1_555 1_555
C12A C11A 1_555 1_555
H7A C12A 1_555 1_555
C13A C10A 1_555 1_555
C14A C15 1_555 1_555
H8A C14A 1_555 1_555
H9A C14A 1_555 1_555
C16A C15 1_555 1_555
H10A C16A 1_555 1_555
H11A C16A 1_555 1_555
C17A C18A 1_555 1_555
C18A H12A 1_555 1_555
C19A C18A 1_555 1_555
H13A C19A 1_555 1_555
C20A H14A 1_555 1_555
C21A C17A 1_555 1_555
H15A C21A 1_555 1_555
Cd1A N1A 1_555 1_555
Cd1C N2 1_555 1_555
Cd1B O3 1_555 1_555
Cd1B_2 N2A 1_555 1_555
Cd1B_3 O1B 1_555 1_555
N1A C9A 1_555 1_555
N2A C19A 1_555 1_555
N2C Cd1 1_555 1_555
N2B Cd1A 1_555 1_555
O1B C1B 1_555 1_555
O1A Cd1A 1_555 1_555
O2B C1B 1_555 1_555
O2A Cd1A 1_555 1_555
O3B Cd1 1_555 1_555
O3C Cd1A 1_555 1_555
O4B Cd1 1_555 1_555
O4C Cd1A 1_555 1_555
O5B C6B 1_555 1_555
H16B O5B 1_555 1_555
O6A C13A 1_555 1_555
O7A C16A 1_555 1_555
C6 C7 1_555 1_555
C11 N1 1_555 1_555
C12 C13 1_555 1_555
C14 O6 1_555 1_555
C17 O7 1_555 1_555
C20 C21 1_555 1_555
C20 N2 1_555 1_555
Cd1 O1 1_555 1_555
Cd1 O2 1_555 1_555
O4 Cd1B 1_555 1_555
C6B C7B 1_555 1_555
C8B O3B 1_555 1_555
C8B O4B 1_555 1_555
C11A N1A 1_555 1_555
C12A C13A 1_555 1_555
C14A O6A 1_555 1_555
C17A O7A 1_555 1_555
C20A C21A 1_555 1_555
C20A N2A 1_555 1_555
Cd1B_3 O2B 1_555 1_555

#END
