
#######################################################################
#
#                 Cambridge Crystallographic Data Centre
#                                CCDC 
#
#######################################################################
#
# If this CIF has been generated from an entry in the Cambridge 
# Structural Database, then it will include bibliographic, chemical, 
# crystal, experimental, refinement or atomic coordinate data resulting 
# from the CCDC's data processing and validation procedures.
#
#######################################################################

data_QUPJAO
_symmetry_cell_setting           orthorhombic
_symmetry_space_group_name_H-M   'P b c n'
_symmetry_Int_Tables_number      60
_space_group_name_Hall           '-P 2n 2ab'
loop_
_symmetry_equiv_pos_site_id
_symmetry_equiv_pos_as_xyz
1 x,y,z
2 1/2-x,1/2-y,1/2+z
3 1/2+x,1/2-y,-z
4 -x,y,1/2-z
5 -x,-y,-z
6 1/2+x,1/2+y,1/2-z
7 1/2-x,1/2+y,z
8 x,-y,1/2+z
_cell_length_a                   17.822(4)
_cell_length_b                   20.068(4)
_cell_length_c                   14.445(3)
_cell_angle_alpha                90
_cell_angle_beta                 90
_cell_angle_gamma                90
_cell_volume                     5166.28
loop_
_atom_site_label
_atom_site_type_symbol
_atom_site_fract_x
_atom_site_fract_y
_atom_site_fract_z
Zn1 Zn 0.5000 0.59533(3) 0.2500
O1 O 0.4474(3) -0.08063(14) 0.3916(3)
O2 O 0.4332(2) 0.27061(14) 0.3819(2)
O3 O 0.4299(2) 0.59492(14) 0.1402(2)
O4 O 0.5907(2) 0.59402(15) 0.1651(2)
N1 N 0.5000 -0.2905(2) 0.2500
N2 N 0.5000 -0.0803(2) 0.2500
N3 N 0.5000 0.2709(2) 0.2500
N4 N 0.5000 0.4815(2) 0.2500
C1 C 0.4498(3) -0.2566(2) 0.2024(3)
H1 H 0.4143 -0.2800 0.1681
C2 C 0.4476(3) -0.1867(2) 0.2011(3)
H2 H 0.4110 -0.1643 0.1674
C3 C 0.5000 -0.1524(3) 0.2500
C4 C 0.4717(3) -0.0483(2) 0.3281(3)
C5 C 0.4706(3) 0.02536(19) 0.3274(3)
C6 C 0.5000 0.0596(2) 0.2500
C7 C 0.4419(3) 0.0602(2) 0.3994(3)
H3 H 0.4230 0.0375 0.4504
C8 C 0.4402(3) 0.1302(2) 0.3981(3)
H4 H 0.4195 0.1531 0.4479
C9 C 0.5000 0.1305(3) 0.2500
C10 C 0.4685(3) 0.1649(2) 0.3252(3)
C11 C 0.4647(3) 0.23892(19) 0.3229(3)
C12 C 0.5000 0.3432(3) 0.2500
C13 C 0.4364(3) 0.3778(2) 0.2252(3)
H5 H 0.3927 0.3557 0.2082
C14 C 0.4399(3) 0.44684(19) 0.2267(3)
H6 H 0.3970 0.4703 0.2100
C15 C 0.6633(4) 0.5871(3) 0.0286(4)
H7 H 0.6957 0.6209 0.0533
H8 H 0.6564 0.5943 -0.0365
H9 H 0.6855 0.5441 0.0384
C16 C 0.5881(4) 0.5901(2) 0.0770(4)
C17 C 0.5238(4) 0.5882(3) 0.0256(4)
H10 H 0.5302 0.5848 -0.0381
C18 C 0.4501(3) 0.5906(2) 0.0567(3)
C19 C 0.3880(4) 0.5883(3) -0.0133(4)
H11 H 0.3439 0.5695 0.0146
H12 H 0.4031 0.5612 -0.0649
H13 H 0.3772 0.6326 -0.0345
O1C O 0.5526(3) -0.08063(14) 0.1084(3)
O2C O 0.5668(2) 0.27061(14) 0.1181(2)
C1C C 0.5502(3) -0.2566(2) 0.2976(3)
H1C H 0.5857 -0.2800 0.3319
C2C C 0.5524(3) -0.1867(2) 0.2989(3)
H2C H 0.5890 -0.1643 0.3326
C4C C 0.5283(3) -0.0483(2) 0.1719(3)
C5C C 0.5294(3) 0.02536(19) 0.1726(3)
C7C C 0.5581(3) 0.0602(2) 0.1006(3)
H3C H 0.5770 0.0375 0.0496
C8C C 0.5598(3) 0.1302(2) 0.1019(3)
H4C H 0.5805 0.1531 0.0521
C10C C 0.5315(3) 0.1649(2) 0.1748(3)
C11C C 0.5353(3) 0.23892(19) 0.1771(3)
C13C C 0.5636(3) 0.3778(2) 0.2748(3)
H5C H 0.6073 0.3557 0.2918
C14C C 0.5601(3) 0.44684(19) 0.2733(3)
H6C H 0.6030 0.4703 0.2900
O3C O 0.5701(2) 0.59492(14) 0.3598(2)
O4C O 0.4093(2) 0.59402(15) 0.3349(2)
C15C C 0.3367(4) 0.5871(3) 0.4714(4)
H7C H 0.3043 0.6209 0.4467
H8C H 0.3436 0.5943 0.5365
H9C H 0.3145 0.5441 0.4616
C16C C 0.4119(4) 0.5901(2) 0.4230(4)
C17C C 0.4762(4) 0.5882(3) 0.4744(4)
H10C H 0.4698 0.5848 0.5381
C18C C 0.5499(3) 0.5906(2) 0.4433(3)
C19C C 0.6120(4) 0.5883(3) 0.5133(4)
H11C H 0.6561 0.5695 0.4854
H12C H 0.5969 0.5612 0.5649
H13C H 0.6228 0.6326 0.5345
Zn1_2 Zn 0.5000 -0.40467(3) 0.2500
N1_2 N 0.5000 0.7095(2) 0.2500
O5 O 0.3535(3) 0.2484(2) 0.1245(4)
N5 N 0.2973(7) 0.2417(3) -0.0048(5)
C20 C 0.2715(5) 0.2369(4) -0.0976(6)
H14 H 0.2182 0.2437 -0.0992
H15 H 0.2831 0.1935 -0.1216
H16 H 0.2958 0.2702 -0.1347
C21 C 0.3355(10) 0.2444(4) 0.0468(11)
C22 C 0.4114(4) 0.2335(3) -0.0313(6)
H17 H 0.3923 0.2213 -0.0911
H18 H 0.4439 0.1989 -0.0089
H19 H 0.4390 0.2744 -0.0363
C23 C 0.2165(5) 0.2586(4) 0.0682(8)
H20 H 0.1764 0.2288 0.0521
H21 H 0.2005 0.3038 0.0592
H22 H 0.2300 0.2521 0.1319
O6 O 0.1516(4) 0.4428(2) 0.1150(4)
N6 N 0.1984(5) 0.5340(5) 0.1663(7)
C24 C 0.1619(5) 0.5673(3) 0.0766(5)
H23 H 0.1253 0.5376 0.0507
H24 H 0.2004 0.5760 0.0317
H25 H 0.1381 0.6085 0.0936
C25 C 0.2384(5) 0.5800(5) 0.2292(6)
H26 H 0.2302 0.5665 0.2922
H27 H 0.2197 0.6244 0.2206
H28 H 0.2911 0.5789 0.2158
C26 C 0.1881(7) 0.4801(6) 0.1691(10)
C27 C 0.2243(5) 0.4436(6) 0.2605(7)
H29 H 0.2558 0.4074 0.2411
H30 H 0.1847 0.4268 0.2990
H31 H 0.2537 0.4752 0.2948
loop_
_geom_bond_atom_site_label_1
_geom_bond_atom_site_label_2
_geom_bond_site_symmetry_1
_geom_bond_site_symmetry_2
Zn1 O3 1_555 1_555
O1 C4 1_555 1_555
O2 C11 1_555 1_555
O3 C18 1_555 1_555
O4 Zn1 1_555 1_555
N1 C1 1_555 1_555
N2 C3 1_555 1_555
N3 C11 1_555 1_555
N4 Zn1 1_555 1_555
C1 H1 1_555 1_555
C2 C1 1_555 1_555
H2 C2 1_555 1_555
C3 C2 1_555 1_555
C4 N2 1_555 1_555
C5 C4 1_555 1_555
C6 C5 1_555 1_555
C7 C5 1_555 1_555
H3 C7 1_555 1_555
C8 C7 1_555 1_555
H4 C8 1_555 1_555
C9 C6 1_555 1_555
C10 C8 1_555 1_555
C11 C10 1_555 1_555
C12 N3 1_555 1_555
C13 C12 1_555 1_555
H5 C13 1_555 1_555
C14 N4 1_555 1_555
H6 C14 1_555 1_555
C15 H7 1_555 1_555
H8 C15 1_555 1_555
H9 C15 1_555 1_555
C16 O4 1_555 1_555
C17 C16 1_555 1_555
H10 C17 1_555 1_555
C18 C17 1_555 1_555
C19 C18 1_555 1_555
H11 C19 1_555 1_555
H12 C19 1_555 1_555
H13 C19 1_555 1_555
O5 C21 1_555 1_555
N5 C20 1_555 1_555
C20 H14 1_555 1_555
H15 C20 1_555 1_555
H16 C20 1_555 1_555
C21 N5 1_555 1_555
C22 C21 1_555 1_555
H17 C22 1_555 1_555
H18 C22 1_555 1_555
H19 C22 1_555 1_555
C23 N5 1_555 1_555
H20 C23 1_555 1_555
H21 C23 1_555 1_555
H22 C23 1_555 1_555
O6 C26 1_555 1_555
N6 C24 1_555 1_555
C24 H23 1_555 1_555
H24 C24 1_555 1_555
H25 C24 1_555 1_555
C25 N6 1_555 1_555
H26 C25 1_555 1_555
H27 C25 1_555 1_555
H28 C25 1_555 1_555
C26 N6 1_555 1_555
C27 C26 1_555 1_555
H29 C27 1_555 1_555
H30 C27 1_555 1_555
H31 C27 1_555 1_555
O1C C4C 1_555 1_555
O2C C11C 1_555 1_555
C1C N1 1_555 1_555
H1C C1C 1_555 1_555
C2C C3 1_555 1_555
H2C C2C 1_555 1_555
C4C N2 1_555 1_555
C5C C6 1_555 1_555
C7C C5C 1_555 1_555
H3C C7C 1_555 1_555
C8C C7C 1_555 1_555
H4C C8C 1_555 1_555
C10C C9 1_555 1_555
C11C N3 1_555 1_555
C13C C12 1_555 1_555
H5C C13C 1_555 1_555
C14C N4 1_555 1_555
H6C C14C 1_555 1_555
O3C Zn1 1_555 1_555
O4C Zn1 1_555 1_555
C15C H7C 1_555 1_555
H8C C15C 1_555 1_555
H9C C15C 1_555 1_555
C16C O4C 1_555 1_555
C17C C16C 1_555 1_555
H10C C17C 1_555 1_555
C18C O3C 1_555 1_555
C19C C18C 1_555 1_555
H11C C19C 1_555 1_555
H12C C19C 1_555 1_555
H13C C19C 1_555 1_555
Zn1_2 N1 1_555 1_555
N1_2 Zn1 1_555 1_555
C9 C10 1_555 1_555
C13 C14 1_555 1_555
C15 C16 1_555 1_555
C1C C2C 1_555 1_555
C4C C5C 1_555 1_555
C8C C10C 1_555 1_555
C10C C11C 1_555 1_555
C13C C14C 1_555 1_555
C15C C16C 1_555 1_555
C17C C18C 1_555 1_555

#END
