
#######################################################################
#
#                 Cambridge Crystallographic Data Centre
#                                CCDC 
#
#######################################################################
#
# If this CIF has been generated from an entry in the Cambridge 
# Structural Database, then it will include bibliographic, chemical, 
# crystal, experimental, refinement or atomic coordinate data resulting 
# from the CCDC's data processing and validation procedures.
#
#######################################################################

data_QUPPEX
_symmetry_cell_setting           triclinic
_symmetry_space_group_name_H-M   'P -1'
_symmetry_Int_Tables_number      2
_space_group_name_Hall           '-P 1'
loop_
_symmetry_equiv_pos_site_id
_symmetry_equiv_pos_as_xyz
1 x,y,z
2 -x,-y,-z
_cell_length_a                   8.1170(9)
_cell_length_b                   10.0984(11)
_cell_length_c                   17.2334(18)
_cell_angle_alpha                85.000(1)
_cell_angle_beta                 85.161(1)
_cell_angle_gamma                70.801(1)
_cell_volume                     1326.63
loop_
_atom_site_label
_atom_site_type_symbol
_atom_site_fract_x
_atom_site_fract_y
_atom_site_fract_z
Cd1 Cd 0.5000 -1.0000 -0.5000
Cd2 Cd -0.27663(3) -0.12492(3) -0.010340(15)
S1 S -0.37916(15) -0.42905(11) -0.29150(6)
N1 N -0.1686(4) -0.0995(3) -0.13673(18)
N2 N 0.0745(6) -0.2984(4) -0.3812(2)
N3 N 0.1504(5) -0.4366(4) -0.4027(2)
N4 N 0.3915(5) -0.8820(4) -0.38726(19)
O1 O 0.1249(3) -0.4356(3) -0.27436(14)
O2 O -0.5560(3) -0.0626(2) -0.06816(14)
O3 O -0.7748(3) -0.1036(3) 0.00299(15)
O4 O -0.7627(4) -0.6214(3) 0.01383(16)
O5 O -0.6084(4) -0.7458(2) -0.08135(16)
O6 O -0.3137(11) -0.3064(8) -0.3061(4)
O7 O -0.4858(11) -0.4329(14) -0.3471(4)
O8 O -0.2267(14) -0.5536(9) -0.2823(5)
O12 O 0.3588(6) -1.1598(5) -0.4605(2)
H1 H 0.2855 -1.1757 -0.4877
H2 H 0.3944 -1.2173 -0.4217
O13 O 0.7238(5) -1.1551(4) -0.4365(2)
H3 H 0.6976 -1.1724 -0.3888
H4 H 0.8216 -1.1419 -0.4472
O14 O -0.0503(4) -0.1792(3) 0.06781(18)
H5 H -0.0193 -0.2670 0.0799
H6 H 0.0283 -0.1463 0.0473
C1 C -0.0219(5) -0.1865(4) -0.2572(2)
C2 C -0.0752(5) -0.2063(4) -0.1802(2)
H7 H -0.0454 -0.2973 -0.1574
C3 C -0.2107(6) 0.0297(4) -0.1703(2)
H8 H -0.2784 0.1041 -0.1411
C4 C -0.1593(8) 0.0586(5) -0.2455(3)
H9 H -0.1890 0.1510 -0.2664
C5 C -0.0631(7) -0.0500(5) -0.2902(3)
H10 H -0.0265 -0.0324 -0.3415
C6 C 0.0632(5) -0.3041(4) -0.3062(2)
C7 C 0.1781(5) -0.5131(4) -0.3384(2)
C8 C 0.2523(5) -0.6652(4) -0.3276(2)
C9 C 0.3218(6) -0.7418(4) -0.3920(2)
H11 H 0.3202 -0.6940 -0.4407
C10 C 0.3938(7) -0.9483(5) -0.3168(3)
H12 H 0.4423 -1.0457 -0.3127
C11 C 0.3279(7) -0.8796(5) -0.2500(3)
H13 H 0.3322 -0.9298 -0.2019
C12 C 0.2557(6) -0.7364(4) -0.2550(2)
H14 H 0.2097 -0.6878 -0.2105
C13 C -0.6537(5) -0.1375(3) -0.0488(2)
C14 C -0.6209(5) -0.2701(4) -0.0895(2)
C15 C -0.6734(5) -0.3797(4) -0.0539(2)
H15 H -0.7374 -0.3683 -0.0062
C16 C -0.6309(5) -0.5067(4) -0.0893(2)
C17 C -0.6718(5) -0.6318(4) -0.0495(2)
C18 C -0.5413(5) -0.5201(4) -0.1621(2)
H16 H -0.5130 -0.6041 -0.1863
C19 C -0.4938(5) -0.4089(4) -0.1990(2)
C20 C -0.5301(5) -0.2851(4) -0.1619(2)
H17 H -0.4936 -0.2122 -0.1855
Cd2A Cd 1.27663(3) -1.87508(3) -0.989660(15)
Cd2A_2 Cd -0.72337(3) 0.12492(3) 0.010340(15)
Cd2_2 Cd -0.27663(3) -1.12492(3) -0.010340(15)
Cd2A_3 Cd -0.72337(3) -0.87508(3) 0.010340(15)
S1A S -0.62084(15) -0.57095(11) 0.29150(6)
N1A N 1.1686(4) -1.9005(3) -0.86327(18)
N2A N 0.9255(6) -1.7016(4) -0.6188(2)
N3A N 0.8496(5) -1.5634(4) -0.5973(2)
N4A N 0.6085(5) -1.1180(4) -0.61274(19)
O1A O 0.8751(3) -1.5644(3) -0.72564(14)
O2A O -0.4440(3) 0.0626(2) 0.06816(14)
O2A_2 O -0.4440(3) -0.9374(2) 0.06816(14)
O2_2 O 1.4440(3) -2.0626(2) -1.06816(14)
O2A_3 O 1.5560(3) -1.9374(2) -0.93184(14)
O3A O -0.2252(3) 0.1036(3) -0.00299(15)
O3A_2 O -0.2252(3) -0.8964(3) -0.00299(15)
O3_2 O 1.2252(3) -2.1036(3) -0.99701(15)
O4A O -0.2373(4) -0.3786(3) -0.01383(16)
O4_2 O 1.2373(4) -1.6214(3) -0.98617(16)
O5A O -0.3916(4) -0.2542(2) 0.08135(16)
O5_2 O 1.3916(4) -1.7458(2) -1.08135(16)
O6A O -0.6863(11) -0.6936(8) 0.3061(4)
O7A O -0.5142(11) -0.5671(14) 0.3471(4)
O8A O -0.7733(14) -0.4464(9) 0.2823(5)
O12A O 0.6412(6) -0.8402(5) -0.5395(2)
H1A H 0.7145 -0.8243 -0.5123
H2A H 0.6056 -0.7827 -0.5783
O13A O 0.2762(5) -0.8449(4) -0.5635(2)
H3A H 0.3024 -0.8276 -0.6112
H4A H 0.1784 -0.8581 -0.5528
O14A O 1.0503(4) -1.8208(3) -1.06781(18)
H5A H 1.0193 -1.7330 -1.0799
H6A H 0.9717 -1.8537 -1.0473
C1A C 1.0219(5) -1.8135(4) -0.7428(2)
C2A C 1.0752(5) -1.7937(4) -0.8198(2)
H7A H 1.0454 -1.7027 -0.8426
C3A C 1.2107(6) -2.0297(4) -0.8297(2)
H8A H 1.2784 -2.1041 -0.8589
C4A C 1.1593(8) -2.0586(5) -0.7545(3)
H9A H 1.1890 -2.1510 -0.7336
C5A C 1.0631(7) -1.9500(5) -0.7098(3)
H10A H 1.0265 -1.9676 -0.6585
C6A C 0.9368(5) -1.6959(4) -0.6938(2)
C7A C 0.8219(5) -1.4869(4) -0.6616(2)
C8A C 0.7477(5) -1.3348(4) -0.6724(2)
C9A C 0.6782(6) -1.2582(4) -0.6080(2)
H11A H 0.6798 -1.3060 -0.5593
C10A C 0.6062(7) -1.0517(5) -0.6832(3)
H12A H 0.5577 -0.9543 -0.6873
C11A C 0.6721(7) -1.1204(5) -0.7500(3)
H13A H 0.6678 -1.0702 -0.7981
C12A C 0.7443(6) -1.2636(4) -0.7450(2)
H14A H 0.7903 -1.3122 -0.7895
C13A C -0.3463(5) -0.8625(3) 0.0488(2)
C14A C -0.3791(5) -0.7299(4) 0.0895(2)
C15A C -0.3266(5) -0.6203(4) 0.0539(2)
H15A H -0.2626 -0.6317 0.0062
C16A C -0.3691(5) -0.4933(4) 0.0893(2)
C17A C -0.3282(5) -0.3682(4) 0.0495(2)
C18A C -0.4587(5) -0.4799(4) 0.1621(2)
H16A H -0.4870 -0.3959 0.1863
C19A C -0.5062(5) -0.5911(4) 0.1990(2)
C20A C -0.4699(5) -0.7149(4) 0.1619(2)
H17A H -0.5064 -0.7878 0.1855
O15 O -0.9322(4) -0.4435(3) -0.87234(17)
H18 H -0.8887 -0.4977 -0.9091
H19 H -0.8765 -0.4600 -0.8311
O16 O -0.7708(17) -0.2906(15) -0.5623(8)
O9? O -0.5382(16) 0.3057(9) 0.3357(4)
O10? O -0.5885(13) 0.5524(9) 0.3206(5)
O11? O -0.7924(10) 0.4581(15) 0.2771(5)
O17? O -0.890(3) -0.2912(17) -0.5712(8)
O18? O -0.675(3) -0.348(2) -0.5408(12)
O19? O -0.998(2) -0.0442(15) -0.5196(8)
loop_
_geom_bond_atom_site_label_1
_geom_bond_atom_site_label_2
_geom_bond_site_symmetry_1
_geom_bond_site_symmetry_2
Cd1 N4 1_555 1_555
Cd2 N1 1_555 1_555
S1 O6 1_555 1_555
N1 C2 1_555 1_555
N2 N3 1_555 1_555
N3 C7 1_555 1_555
N4 C9 1_555 1_555
O1 C6 1_555 1_555
O2 Cd2 1_555 1_555
O3 C13 1_555 1_555
O4 C17 1_555 1_555
O5 C17 1_555 1_555
O7 S1 1_555 1_555
O8 S1 1_555 1_555
O12 Cd1 1_555 1_555
H1 O12 1_555 1_555
H2 O12 1_555 1_555
O13 Cd1 1_555 1_555
H3 O13 1_555 1_555
H4 O13 1_555 1_555
O14 Cd2 1_555 1_555
H5 O14 1_555 1_555
H6 O14 1_555 1_555
C1 C2 1_555 1_555
C2 H7 1_555 1_555
C3 N1 1_555 1_555
H8 C3 1_555 1_555
C4 C3 1_555 1_555
H9 C4 1_555 1_555
C5 C1 1_555 1_555
H10 C5 1_555 1_555
C6 N2 1_555 1_555
C7 O1 1_555 1_555
C8 C7 1_555 1_555
C9 C8 1_555 1_555
H11 C9 1_555 1_555
C10 N4 1_555 1_555
H12 C10 1_555 1_555
C11 C10 1_555 1_555
H13 C11 1_555 1_555
C12 C8 1_555 1_555
H14 C12 1_555 1_555
C13 O2 1_555 1_555
C14 C13 1_555 1_555
C15 C14 1_555 1_555
H15 C15 1_555 1_555
C16 C15 1_555 1_555
C17 C16 1_555 1_555
C18 C16 1_555 1_555
H16 C18 1_555 1_555
C19 S1 1_555 1_555
C20 C14 1_555 1_555
H17 C20 1_555 1_555
O15 H18 1_555 1_555
H19 O15 1_555 1_555
Cd2A N1A 1_555 1_555
Cd2A_2 O2 1_555 1_555
Cd2_2 O2A_2 1_555 1_555
Cd2A_3 O4 1_555 1_555
S1A O6A 1_555 1_555
N1A C2A 1_555 1_555
N2A N3A 1_555 1_555
N3A C7A 1_555 1_555
N4A Cd1 1_555 1_555
O1A C6A 1_555 1_555
O2A Cd2 1_555 1_555
O2A_2 Cd2A_3 1_555 1_555
O2_2 Cd2A 1_555 1_555
O2A_3 Cd2A 1_555 1_555
O3A Cd2 1_555 1_555
O3A_2 Cd2_2 1_555 1_555
O3_2 Cd2A 1_555 1_555
O4A Cd2 1_555 1_555
O4_2 Cd2A 1_555 1_555
O5A Cd2 1_555 1_555
O5_2 Cd2A 1_555 1_555
O7A S1A 1_555 1_555
O8A S1A 1_555 1_555
O12A Cd1 1_555 1_555
H1A O12A 1_555 1_555
H2A O12A 1_555 1_555
O13A Cd1 1_555 1_555
H3A O13A 1_555 1_555
H4A O13A 1_555 1_555
O14A Cd2A 1_555 1_555
H5A O14A 1_555 1_555
H6A O14A 1_555 1_555
C1A C2A 1_555 1_555
C2A H7A 1_555 1_555
C3A N1A 1_555 1_555
H8A C3A 1_555 1_555
C4A C3A 1_555 1_555
H9A C4A 1_555 1_555
C5A C1A 1_555 1_555
H10A C5A 1_555 1_555
C6A N2A 1_555 1_555
C7A O1A 1_555 1_555
C8A C7A 1_555 1_555
C9A N4A 1_555 1_555
H11A C9A 1_555 1_555
C10A N4A 1_555 1_555
H12A C10A 1_555 1_555
C11A C10A 1_555 1_555
H13A C11A 1_555 1_555
C12A C8A 1_555 1_555
H14A C12A 1_555 1_555
C13A O2A_2 1_555 1_555
C14A C13A 1_555 1_555
C15A C14A 1_555 1_555
H15A C15A 1_555 1_555
C16A C15A 1_555 1_555
C17A O4A 1_555 1_555
C18A C16A 1_555 1_555
H16A C18A 1_555 1_555
C19A S1A 1_555 1_555
C20A C14A 1_555 1_555
H17A C20A 1_555 1_555
O3 Cd2A_2 1_555 1_555
O5 Cd2A_3 1_555 1_555
C1 C6 1_555 1_555
C4 C5 1_555 1_555
C11 C12 1_555 1_555
C18 C19 1_555 1_555
C19 C20 1_555 1_555
Cd2A_2 O2A 1_555 1_555
O3A_2 C13A 1_555 1_555
O5A C17A 1_555 1_555
C1A C6A 1_555 1_555
C4A C5A 1_555 1_555
C8A C9A 1_555 1_555
C11A C12A 1_555 1_555
C16A C17A 1_555 1_555
C18A C19A 1_555 1_555
C19A C20A 1_555 1_555

#END
