
#######################################################################
#
#                 Cambridge Crystallographic Data Centre
#                                CCDC 
#
#######################################################################
#
# If this CIF has been generated from an entry in the Cambridge 
# Structural Database, then it will include bibliographic, chemical, 
# crystal, experimental, refinement or atomic coordinate data resulting 
# from the CCDC's data processing and validation procedures.
#
#######################################################################

data_QUPQEY
_symmetry_cell_setting           monoclinic
_symmetry_space_group_name_H-M   'P 21/c'
_symmetry_Int_Tables_number      14
_space_group_name_Hall           '-P 2ybc'
loop_
_symmetry_equiv_pos_site_id
_symmetry_equiv_pos_as_xyz
1 x,y,z
2 -x,1/2+y,1/2-z
3 -x,-y,-z
4 x,1/2-y,1/2+z
_cell_length_a                   7.021(2)
_cell_length_b                   20.296(7)
_cell_length_c                   20.820(7)
_cell_angle_alpha                90
_cell_angle_beta                 97.699(6)
_cell_angle_gamma                90
_cell_volume                     2940.07
loop_
_atom_site_label
_atom_site_type_symbol
_atom_site_fract_x
_atom_site_fract_y
_atom_site_fract_z
Co1 Co 0.13172(6) 0.31198(2) 1.056764(18)
S1 S -0.02674(12) 0.50884(4) 0.76768(4)
O1 O 0.0396(3) 0.33575(10) 0.95915(9)
O2 O -0.0853(4) 0.24152(12) 0.91917(10)
O3 O -0.2556(4) 0.21677(11) 0.68158(10)
O4 O -0.2889(3) 0.30483(11) 0.61925(10)
O5 O 0.1055(4) 0.51172(13) 0.72067(13)
O6 O -0.2055(4) 0.53993(13) 0.74460(14)
O7 O 0.0552(4) 0.53272(12) 0.83040(11)
O8 O 0.5516(3) 0.61273(10) 1.16987(9)
O9 O -0.1059(3) 0.35727(11) 1.09074(10)
H1 H -0.0789 0.3926 1.1119
H2 H -0.1676 0.3287 1.1096
O10 O 0.3946(3) 0.27218(12) 1.03444(11)
H3 H 0.4450 0.2964 1.0080
H4 H 0.4706 0.2478 1.0593
O11 O -0.0162(3) 0.22078(11) 1.04105(10)
H5 H -0.1040 0.2127 1.0643
H6 H -0.0518 0.2217 1.0004
N1 N 0.2735(4) 0.40691(13) 1.06573(11)
N2 N 0.4961(4) 0.64993(13) 1.07027(12)
N3 N 0.5694(4) 0.70173(13) 1.11078(12)
N4 N 0.7813(4) 0.77238(12) 1.34680(11)
C1 C 0.4776(5) 0.48125(16) 1.13162(15)
H23 H 0.5654 0.4880 1.1686
C2 C 0.4040(5) 0.41968(16) 1.11705(15)
H24 H 0.4472 0.3850 1.1443
C3 C 0.2226(5) 0.45739(15) 1.02559(14)
H25 H 0.1354 0.4492 0.9887
C4 C 0.2910(4) 0.52038(16) 1.03549(14)
H26 H 0.2521 0.5537 1.0060
C5 C 0.4197(4) 0.53307(15) 1.09074(13)
C6 C 0.4875(4) 0.59945(16) 1.10687(14)
C7 C 0.5976(4) 0.67749(15) 1.16851(14)
C8 C 0.6655(4) 0.70994(15) 1.22943(14)
C9 C 0.7231(4) 0.77495(15) 1.23141(14)
H27 H 0.7235 0.7988 1.1933
C10 C 0.7799(4) 0.80406(15) 1.29052(14)
H28 H 0.8193 0.8478 1.2913
C11 C 0.7267(5) 0.70928(15) 1.34384(14)
H29 H 0.7277 0.6865 1.3826
C12 C 0.6694(4) 0.67605(15) 1.28747(14)
H30 H 0.6340 0.6319 1.2880
C13 C -0.0788(4) 0.33082(15) 0.84731(13)
C14 C -0.1483(4) 0.29251(15) 0.79390(14)
H31 H -0.1733 0.2480 0.7995
C15 C -0.1810(4) 0.31991(15) 0.73209(13)
C16 C -0.1432(4) 0.38611(15) 0.72438(14)
H32 H -0.1641 0.4051 0.6834
C17 C -0.0741(4) 0.42418(15) 0.77776(14)
C18 C -0.0415(4) 0.39682(15) 0.83879(14)
H33 H 0.0055 0.4228 0.8742
C19 C -0.0392(4) 0.30037(16) 0.91396(14)
C20 C -0.2475(4) 0.27713(16) 0.67359(14)
Co1A Co 0.86828(6) -0.18802(2) 1.443236(18)
Co1A_2 Co 0.86828(6) 0.81198(2) 1.443236(18)
S1A S 1.02674(12) 0.00884(4) 1.73232(4)
O1A O 0.9604(3) -0.16425(10) 1.54085(9)
O2A O 1.0853(4) -0.25848(12) 1.58083(10)
O3A O 1.2556(4) -0.28323(11) 1.81842(10)
O4A O 1.2889(3) -0.19517(11) 1.88075(10)
O5A O 0.8945(4) 0.01172(13) 1.77933(13)
O6A O 1.2055(4) 0.03993(13) 1.75540(14)
O7A O 0.9448(4) 0.03272(12) 1.66960(11)
O8A O 0.4484(3) 0.11273(10) 1.33013(9)
O9A O 1.1059(3) -0.14273(11) 1.40926(10)
H1A H 1.0789 -0.1074 1.3881
H2A H 1.1676 -0.1713 1.3904
O10A O 0.6054(3) -0.22782(12) 1.46556(11)
H3A H 0.5550 -0.2036 1.4920
H4A H 0.5294 -0.2522 1.4407
O11A O 1.0162(3) -0.27922(11) 1.45895(10)
H5A H 1.1040 -0.2873 1.4357
H6A H 1.0518 -0.2783 1.4996
N1A N 0.7265(4) -0.09309(13) 1.43427(11)
N2A N 0.5039(4) 0.14993(13) 1.42973(12)
N3A N 0.4306(4) 0.20173(13) 1.38922(12)
N4A N 0.2187(4) 0.27238(12) 1.15320(11)
N4_2 N 0.7813(4) -0.22762(12) 1.34680(11)
C1A C 0.5224(5) -0.01875(16) 1.36838(15)
H23A H 0.4346 -0.0120 1.3314
C2A C 0.5960(5) -0.08032(16) 1.38295(15)
H24A H 0.5528 -0.1150 1.3557
C3A C 0.7774(5) -0.04261(15) 1.47441(14)
H25A H 0.8646 -0.0508 1.5113
C4A C 0.7090(4) 0.02038(16) 1.46451(14)
H26A H 0.7479 0.0537 1.4940
C5A C 0.5803(4) 0.03307(15) 1.40926(13)
C6A C 0.5125(4) 0.09945(16) 1.39313(14)
C7A C 0.4024(4) 0.17749(15) 1.33149(14)
C8A C 0.3345(4) 0.20994(15) 1.27057(14)
C9A C 0.2769(4) 0.27495(15) 1.26859(14)
H27A H 0.2765 0.2988 1.3067
C10A C 0.2201(4) 0.30406(15) 1.20948(14)
H28A H 0.1807 0.3478 1.2087
C11A C 0.2733(5) 0.20928(15) 1.15616(14)
H29A H 0.2723 0.1865 1.1174
C12A C 0.3306(4) 0.17605(15) 1.21253(14)
H30A H 0.3660 0.1319 1.2120
C13A C 1.0788(4) -0.16918(15) 1.65269(13)
C14A C 1.1483(4) -0.20749(15) 1.70610(14)
H31A H 1.1733 -0.2520 1.7005
C15A C 1.1810(4) -0.18009(15) 1.76791(13)
C16A C 1.1432(4) -0.11389(15) 1.77562(14)
H32A H 1.1641 -0.0949 1.8166
C17A C 1.0741(4) -0.07582(15) 1.72224(14)
C18A C 1.0415(4) -0.10318(15) 1.66121(14)
H33A H 0.9945 -0.0772 1.6258
C19A C 1.0392(4) -0.19963(16) 1.58604(14)
C20A C 1.2475(4) -0.22287(16) 1.82641(14)
Co2 Co 1.0000 0.5000 0.5000
O12 O 0.7388(4) 0.45355(13) 0.48057(12)
H7 H 0.7107 0.4261 0.4495
H8 H 0.6817 0.4467 0.5137
O13 O 1.1250(3) 0.41768(12) 0.54993(12)
H9 H 1.2463 0.4214 0.5521
H10 H 1.0764 0.3814 0.5352
O14 O 0.9189(4) 0.53495(14) 0.58636(12)
H11 H 0.8722 0.5736 0.5798
H12 H 0.9583 0.5251 0.6256
O12B O 1.2612(4) 0.54645(13) 0.51943(12)
H7B H 1.2893 0.5739 0.5505
H8B H 1.3183 0.5533 0.4863
O13B O 0.8750(3) 0.58232(12) 0.45007(12)
H9B H 0.7537 0.5786 0.4479
H10B H 0.9236 0.6186 0.4648
O14B O 1.0811(4) 0.46505(14) 0.41364(12)
H11B H 1.1278 0.4264 0.4202
H12B H 1.0417 0.4749 0.3744
O15 O 0.4687(4) 0.48484(17) 0.68015(16)
H13 H 0.4826 0.5238 0.6653
H14 H 0.3747 0.4800 0.7018
O16 O 0.5194(3) 0.41669(12) 0.57371(12)
H15 H 0.5789 0.3809 0.5848
H16 H 0.5088 0.4440 0.6042
O17 O 0.6515(4) 0.12327(15) 0.76432(14)
H17 H 0.7240 0.0899 0.7740
H18 H 0.6992 0.1541 0.7430
O18 O 0.6328(4) 0.14469(13) 0.89180(13)
H19 H 0.6538 0.1316 0.8543
H20 H 0.7077 0.1754 0.9087
O19 O 0.2693(5) 0.15058(16) 0.92543(17)
H21 H 0.3800 0.1414 0.9158
H22 H 0.2425 0.1910 0.9296
loop_
_geom_bond_atom_site_label_1
_geom_bond_atom_site_label_2
_geom_bond_site_symmetry_1
_geom_bond_site_symmetry_2
Co1 O1 1_555 1_555
Co2 O12 1_555 1_555
S1 O5 1_555 1_555
O1 C19 1_555 1_555
O2 C19 1_555 1_555
O3 C20 1_555 1_555
O4 C20 1_555 1_555
O6 S1 1_555 1_555
O7 S1 1_555 1_555
O8 C6 1_555 1_555
O9 Co1 1_555 1_555
H1 O9 1_555 1_555
H2 O9 1_555 1_555
O10 Co1 1_555 1_555
H3 O10 1_555 1_555
H4 O10 1_555 1_555
O11 Co1 1_555 1_555
H5 O11 1_555 1_555
H6 O11 1_555 1_555
O12 H7 1_555 1_555
H8 O12 1_555 1_555
O13 Co2 1_555 1_555
H9 O13 1_555 1_555
H10 O13 1_555 1_555
O14 Co2 1_555 1_555
H11 O14 1_555 1_555
H12 O14 1_555 1_555
O15 H13 1_555 1_555
H14 O15 1_555 1_555
O16 H15 1_555 1_555
H16 O16 1_555 1_555
O17 H17 1_555 1_555
H18 O17 1_555 1_555
O18 H19 1_555 1_555
H20 O18 1_555 1_555
O19 H21 1_555 1_555
H22 O19 1_555 1_555
N1 Co1 1_555 1_555
N2 N3 1_555 1_555
N3 C7 1_555 1_555
N4 C10 1_555 1_555
C1 H23 1_555 1_555
C2 N1 1_555 1_555
H24 C2 1_555 1_555
C3 N1 1_555 1_555
H25 C3 1_555 1_555
C4 C3 1_555 1_555
H26 C4 1_555 1_555
C5 C1 1_555 1_555
C6 N2 1_555 1_555
C7 O8 1_555 1_555
C8 C7 1_555 1_555
C9 C8 1_555 1_555
H27 C9 1_555 1_555
C10 C9 1_555 1_555
H28 C10 1_555 1_555
C11 N4 1_555 1_555
H29 C11 1_555 1_555
C12 C8 1_555 1_555
H30 C12 1_555 1_555
C13 C14 1_555 1_555
C14 H31 1_555 1_555
C15 C14 1_555 1_555
C16 C15 1_555 1_555
H32 C16 1_555 1_555
C17 S1 1_555 1_555
C18 C13 1_555 1_555
H33 C18 1_555 1_555
C19 C13 1_555 1_555
C20 C15 1_555 1_555
Co1A O1A 1_555 1_555
Co1A_2 N4 1_555 1_555
S1A O5A 1_555 1_555
O1A C19A 1_555 1_555
O2A C19A 1_555 1_555
O3A C20A 1_555 1_555
O4A C20A 1_555 1_555
O6A S1A 1_555 1_555
O7A S1A 1_555 1_555
O8A C6A 1_555 1_555
O9A Co1A 1_555 1_555
H1A O9A 1_555 1_555
H2A O9A 1_555 1_555
O10A Co1A 1_555 1_555
H3A O10A 1_555 1_555
H4A O10A 1_555 1_555
O11A Co1A 1_555 1_555
H5A O11A 1_555 1_555
H6A O11A 1_555 1_555
O12B Co2 1_555 1_555
H7B O12B 1_555 1_555
H8B O12B 1_555 1_555
O13B Co2 1_555 1_555
H9B O13B 1_555 1_555
H10B O13B 1_555 1_555
O14B Co2 1_555 1_555
H11B O14B 1_555 1_555
H12B O14B 1_555 1_555
N1A Co1A 1_555 1_555
N2A N3A 1_555 1_555
N3A C7A 1_555 1_555
N4A Co1 1_555 1_555
N4_2 Co1A 1_555 1_555
C1A H23A 1_555 1_555
C2A N1A 1_555 1_555
H24A C2A 1_555 1_555
C3A N1A 1_555 1_555
H25A C3A 1_555 1_555
C4A C3A 1_555 1_555
H26A C4A 1_555 1_555
C5A C1A 1_555 1_555
C6A N2A 1_555 1_555
C7A O8A 1_555 1_555
C8A C7A 1_555 1_555
C9A C8A 1_555 1_555
H27A C9A 1_555 1_555
C10A N4A 1_555 1_555
H28A C10A 1_555 1_555
C11A N4A 1_555 1_555
H29A C11A 1_555 1_555
C12A C8A 1_555 1_555
H30A C12A 1_555 1_555
C13A C14A 1_555 1_555
C14A H31A 1_555 1_555
C15A C14A 1_555 1_555
C16A C15A 1_555 1_555
H32A C16A 1_555 1_555
C17A S1A 1_555 1_555
C18A C13A 1_555 1_555
H33A C18A 1_555 1_555
C19A C13A 1_555 1_555
C20A C15A 1_555 1_555
C1 C2 1_555 1_555
C4 C5 1_555 1_555
C5 C6 1_555 1_555
C11 C12 1_555 1_555
C16 C17 1_555 1_555
C17 C18 1_555 1_555
C1A C2A 1_555 1_555
C4A C5A 1_555 1_555
C5A C6A 1_555 1_555
C9A C10A 1_555 1_555
C11A C12A 1_555 1_555
C16A C17A 1_555 1_555
C17A C18A 1_555 1_555

#END
