
#######################################################################
#
#                 Cambridge Crystallographic Data Centre
#                                CCDC 
#
#######################################################################
#
# If this CIF has been generated from an entry in the Cambridge 
# Structural Database, then it will include bibliographic, chemical, 
# crystal, experimental, refinement or atomic coordinate data resulting 
# from the CCDC's data processing and validation procedures.
#
#######################################################################

data_QUPVED
_symmetry_cell_setting           monoclinic
_symmetry_space_group_name_H-M   'P 21/c'
_symmetry_Int_Tables_number      14
_space_group_name_Hall           '-P 2ybc'
loop_
_symmetry_equiv_pos_site_id
_symmetry_equiv_pos_as_xyz
1 x,y,z
2 -x,1/2+y,1/2-z
3 -x,-y,-z
4 x,1/2-y,1/2+z
_cell_length_a                   9.2973(19)
_cell_length_b                   15.745(3)
_cell_length_c                   13.608(4)
_cell_angle_alpha                90
_cell_angle_beta                 132.835(18)
_cell_angle_gamma                90
_cell_volume                     1460.78
loop_
_atom_site_label
_atom_site_type_symbol
_atom_site_fract_x
_atom_site_fract_y
_atom_site_fract_z
Cd1 Cd 0.99659(4) 0.72662(2) 0.09655(3)
Cd2 Cd 1.27101(5) 0.55937(2) 0.38189(3)
C1 C 0.7396(6) 0.4810(3) -0.0016(4)
C2 C 0.6360(7) 0.4212(3) 0.0050(5)
H1 H 0.6884 0.4003 0.0876
C3 C 0.4552(8) 0.3929(4) -0.1112(5)
H2 H 0.3858 0.3532 -0.1067
C4 C 0.3774(7) 0.4235(3) -0.2343(5)
H3 H 0.2538 0.4058 -0.3120
C5 C 0.4834(7) 0.4810(3) -0.2424(4)
C6 C 0.6642(6) 0.5090(3) -0.1260(4)
H4 H 0.7361 0.5468 -0.1307
C7 C 0.9295(6) 0.5152(3) 0.1235(4)
C8 C 0.4039(7) 0.5111(3) -0.3755(5)
C9 C 0.9256(7) 0.7872(3) 0.3067(5)
H5 H 0.8394 0.8321 0.2565
C10 C 1.4926(7) 0.7702(3) 0.3123(5)
H6 H 1.4799 0.8150 0.2624
N1 N 0.9880(6) 0.7348(3) 0.2657(4)
N2 N 1.1070(6) 0.6798(3) 0.3671(4)
N3 N 1.1190(7) 0.6981(3) 0.4653(4)
N4 N 1.0034(6) 0.7665(3) 0.4294(4)
N5 N 1.3465(5) 0.7193(3) 0.2710(4)
N6 N 1.4301(6) 0.6637(3) 0.3718(4)
N7 N 1.6157(5) 0.6808(3) 0.4693(4)
N8 N 1.6584(6) 0.7490(3) 0.4335(4)
O1 O 1.0130(5) 0.4767(2) 0.2326(3)
O2 O 1.0039(5) 0.5811(2) 0.1202(3)
O3 O 0.5228(5) 0.5367(2) -0.3865(3)
O4 O 0.2227(5) 0.5106(2) -0.4731(3)
O5 O 1.0725(5) 0.8728(2) 0.1370(4)
H7 H 1.0352 0.8935 0.1743
H8 H 1.0604 0.8926 0.0735
Cd1C Cd 0.99659(4) 0.77338(2) 0.59655(3)
Cd1C_2 Cd 1.99659(4) 0.77338(2) 0.59655(3)
Cd2_2 Cd 0.27101(5) 0.55937(2) -0.61811(3)
Cd2B Cd 0.72899(5) 0.44063(2) -0.38189(3)
N4C N 1.0034(6) 0.7335(3) -0.0706(4)
N8C N 0.6584(6) 0.7510(3) -0.0665(4)
O3_2 O 1.5228(5) 0.5367(2) 0.6135(3)
O3B O 1.4772(5) 0.4633(2) 0.3865(3)
O4_2 O 1.2227(5) 0.5106(2) 0.5269(3)
loop_
_geom_bond_atom_site_label_1
_geom_bond_atom_site_label_2
_geom_bond_site_symmetry_1
_geom_bond_site_symmetry_2
Cd1 N1 1_555 1_555
Cd2 N2 1_555 1_555
C1 C2 1_555 1_555
C2 H1 1_555 1_555
C3 C2 1_555 1_555
H2 C3 1_555 1_555
C4 C3 1_555 1_555
H3 C4 1_555 1_555
C5 C4 1_555 1_555
C6 C1 1_555 1_555
H4 C6 1_555 1_555
C7 C1 1_555 1_555
C8 C5 1_555 1_555
C9 H5 1_555 1_555
C10 H6 1_555 1_555
N1 C9 1_555 1_555
N2 N1 1_555 1_555
N3 N2 1_555 1_555
N4 C9 1_555 1_555
N5 Cd1 1_555 1_555
N6 Cd2 1_555 1_555
N7 N6 1_555 1_555
N8 C10 1_555 1_555
O1 Cd2 1_555 1_555
O2 Cd1 1_555 1_555
O3 C8 1_555 1_555
O4 C8 1_555 1_555
O5 Cd1 1_555 1_555
H7 O5 1_555 1_555
H8 O5 1_555 1_555
Cd1C N4 1_555 1_555
Cd1C_2 N8 1_555 1_555
Cd2_2 O3 1_555 1_555
Cd2B O3 1_555 1_555
N4C Cd1 1_555 1_555
N8C Cd1 1_555 1_555
O3_2 Cd2 1_555 1_555
O3B Cd2 1_555 1_555
O4_2 Cd2 1_555 1_555
Cd2 O2 1_555 1_555
C5 C6 1_555 1_555
C7 O1 1_555 1_555
C7 O2 1_555 1_555
C10 N5 1_555 1_555
N3 N4 1_555 1_555
N5 N6 1_555 1_555
N7 N8 1_555 1_555
O4 Cd2_2 1_555 1_555

#END
