
#######################################################################
#
#                 Cambridge Crystallographic Data Centre
#                                CCDC 
#
#######################################################################
#
# If this CIF has been generated from an entry in the Cambridge 
# Structural Database, then it will include bibliographic, chemical, 
# crystal, experimental, refinement or atomic coordinate data resulting 
# from the CCDC's data processing and validation procedures.
#
#######################################################################

data_QUPZOR
_symmetry_cell_setting           orthorhombic
_symmetry_space_group_name_H-M   'P b c n'
_symmetry_Int_Tables_number      60
_space_group_name_Hall           '-P 2n 2ab'
loop_
_symmetry_equiv_pos_site_id
_symmetry_equiv_pos_as_xyz
1 x,y,z
2 1/2-x,1/2-y,1/2+z
3 1/2+x,1/2-y,-z
4 -x,y,1/2-z
5 -x,-y,-z
6 1/2+x,1/2+y,1/2-z
7 1/2-x,1/2+y,z
8 x,-y,1/2+z
_cell_length_a                   11.4025(3)
_cell_length_b                   11.0978(3)
_cell_length_c                   20.1842(5)
_cell_angle_alpha                90
_cell_angle_beta                 90
_cell_angle_gamma                90
_cell_volume                     2554.16
loop_
_atom_site_label
_atom_site_type_symbol
_atom_site_fract_x
_atom_site_fract_y
_atom_site_fract_z
Cu1 Cu 0.5000 0.13433(2) 0.7500
O1 O 0.68731(10) 0.12399(10) 0.65332(5)
N1 N 0.57578(11) 0.13632(10) 0.65926(6)
C1 C 0.50895(13) 0.14957(13) 0.60642(8)
H1 H 0.340(2) 0.209(2) 0.5309(11)
O2 O 0.34232(10) 0.14357(9) 0.67533(5)
N2 N 0.60110(14) 0.13971(15) 0.48994(7)
C2 C 0.55963(14) 0.14602(15) 0.54146(8)
H3 H 0.240(2) 0.1906(19) 0.5728(10)
N3 N 0.31322(13) 0.18951(14) 0.56744(7)
C3 C 0.38089(14) 0.16111(13) 0.61844(7)
N4 N 0.5000 0.31665(16) 0.7500
C4 C 0.40045(14) 0.37862(13) 0.76058(7)
H5 H 0.3300 0.3352 0.7683
N5 N 0.5000 0.95222(16) 0.7500
C5 C 0.39657(14) 0.50348(14) 0.76065(7)
H6 H 0.3247 0.5447 0.7678
C6 C 0.5000 0.56744(19) 0.7500
C7 C 0.5000 0.70119(19) 0.7500
C8 C 0.40884(13) 0.76550(13) 0.72073(7)
H7 H 0.3448 0.7244 0.7008
C9 C 0.41279(13) 0.89025(13) 0.72110(7)
H8 H 0.3514 0.9337 0.7001
Cu1_2 Cu 0.5000 1.13433(2) 0.7500
O1C O 0.31269(10) 0.12399(10) 0.84668(5)
N1C N 0.42422(11) 0.13632(10) 0.84074(6)
C1C C 0.49105(13) 0.14957(13) 0.89358(8)
H1C H 0.660(2) 0.209(2) 0.9691(11)
O2C O 0.65768(10) 0.14357(9) 0.82467(5)
N2C N 0.39890(14) 0.13971(15) 1.01006(7)
C2C C 0.44037(14) 0.14602(15) 0.95854(8)
H3C H 0.760(2) 0.1906(19) 0.9272(10)
N3C N 0.68678(13) 0.18951(14) 0.93256(7)
C3C C 0.61911(14) 0.16111(13) 0.88156(7)
C4C C 0.59955(14) 0.37862(13) 0.73942(7)
H5C H 0.6700 0.3352 0.7317
N5_2 N 0.5000 -0.04778(16) 0.7500
C5C C 0.60343(14) 0.50348(14) 0.73935(7)
H6C H 0.6753 0.5447 0.7322
C8C C 0.59116(13) 0.76550(13) 0.77927(7)
H7C H 0.6552 0.7244 0.7992
C9C C 0.58721(13) 0.89025(13) 0.77890(7)
H8C H 0.6486 0.9337 0.7999
H2 H 0.805(2) 0.189(2) 0.5852(11)
O3 O 0.85553(11) 0.22721(11) 0.57079(6)
C10 C 0.84472(18) 0.34365(16) 0.60050(9)
H9 H 0.8381 0.3349 0.6487
H10 H 0.7745 0.3839 0.5833
H11 H 0.9142 0.3920 0.5899
H4 H 1.010(2) 0.138(2) 0.5789(13)
O4 O 1.07598(14) 0.11014(13) 0.58602(9)
C11 C 1.0757(2) -0.01614(18) 0.58034(10)
H12 H 1.1464 -0.0489 0.6013
H13 H 1.0747 -0.0387 0.5334
H14 H 1.0060 -0.0488 0.6023
loop_
_geom_bond_atom_site_label_1
_geom_bond_atom_site_label_2
_geom_bond_site_symmetry_1
_geom_bond_site_symmetry_2
Cu1 N1 1_555 1_555
O1 N1 1_555 1_555
N1 C1 1_555 1_555
C1 C2 1_555 1_555
H1 N3 1_555 1_555
H2 O3 1_555 1_555
O2 Cu1 1_555 1_555
N2 C2 1_555 1_555
H3 N3 1_555 1_555
H4 O4 1_555 1_555
O3 C10 1_555 1_555
N3 C3 1_555 1_555
C3 C1 1_555 1_555
O4 C11 1_555 1_555
N4 Cu1 1_555 1_555
C4 N4 1_555 1_555
H5 C4 1_555 1_555
N5 C9 1_555 1_555
C5 C4 1_555 1_555
H6 C5 1_555 1_555
C6 C5 1_555 1_555
C7 C6 1_555 1_555
C8 C7 1_555 1_555
H7 C8 1_555 1_555
C9 C8 1_555 1_555
H8 C9 1_555 1_555
C10 H9 1_555 1_555
H10 C10 1_555 1_555
H11 C10 1_555 1_555
C11 H12 1_555 1_555
H13 C11 1_555 1_555
H14 C11 1_555 1_555
Cu1_2 N5 1_555 1_555
O1C N1C 1_555 1_555
N1C Cu1 1_555 1_555
C1C N1C 1_555 1_555
H1C N3C 1_555 1_555
O2C Cu1 1_555 1_555
N2C C2C 1_555 1_555
C2C C1C 1_555 1_555
H3C N3C 1_555 1_555
N3C C3C 1_555 1_555
C3C C1C 1_555 1_555
C4C N4 1_555 1_555
H5C C4C 1_555 1_555
N5_2 Cu1 1_555 1_555
C5C C6 1_555 1_555
H6C C5C 1_555 1_555
C8C C7 1_555 1_555
H7C C8C 1_555 1_555
C9C N5 1_555 1_555
H8C C9C 1_555 1_555
O2 C3 1_555 1_555
O2C C3C 1_555 1_555
C4C C5C 1_555 1_555
C8C C9C 1_555 1_555

#END
