
#######################################################################
#
#                 Cambridge Crystallographic Data Centre
#                                CCDC 
#
#######################################################################
#
# If this CIF has been generated from an entry in the Cambridge 
# Structural Database, then it will include bibliographic, chemical, 
# crystal, experimental, refinement or atomic coordinate data resulting 
# from the CCDC's data processing and validation procedures.
#
#######################################################################

data_QUPZIL
_symmetry_cell_setting           tetragonal
_symmetry_space_group_name_H-M   'P 43 21 2'
_symmetry_Int_Tables_number      96
_space_group_name_Hall           'P 4nw 2abw'
loop_
_symmetry_equiv_pos_site_id
_symmetry_equiv_pos_as_xyz
1 x,y,z
2 1/2-y,1/2+x,3/4+z
3 -x,-y,1/2+z
4 1/2+y,1/2-x,1/4+z
5 1/2+x,1/2-y,1/4-z
6 1/2-x,1/2+y,3/4-z
7 y,x,-z
8 -y,-x,1/2-z
_cell_length_a                   7.8075(3)
_cell_length_b                   7.8075(3)
_cell_length_c                   29.146(3)
_cell_angle_alpha                90
_cell_angle_beta                 90
_cell_angle_gamma                90
_cell_volume                     1776.65
loop_
_atom_site_label
_atom_site_type_symbol
_atom_site_fract_x
_atom_site_fract_y
_atom_site_fract_z
Cu1 Cu 0.17765(4) 0.17765(4) 0.0000
O1 O 0.3369(3) 0.0080(3) -0.05762(6)
N1 N 0.3457(3) -0.1490(3) -0.16979(8)
C1 C 0.4106(4) -0.0952(4) -0.13075(10)
H1 H 0.017(6) 0.001(6) -0.0885(15)
O2 O 0.4523(3) -0.2051(3) -0.20054(6)
N2 N 0.7306(6) -0.0844(5) -0.11224(10)
C2 C 0.5885(5) -0.0899(5) -0.12011(10)
H2 H 0.106(5) -0.085(5) -0.1362(13)
N3 N 0.1217(4) -0.0401(4) -0.10853(10)
C3 C 0.2866(4) -0.0366(4) -0.09575(10)
N4 N 0.3581(3) 0.3581(3) 0.0000
C4 C 0.3377(4) 0.5046(4) 0.02314(9)
H3 H 0.2349 0.5207 0.0400
N5 N 0.9954(3) 0.9954(3) 0.0000
C5 C 0.4577(4) 0.6327(4) 0.02374(10)
H4 H 0.4366 0.7356 0.0402
C6 C 0.6106(3) 0.6106(3) 0.0000
C7 C 0.7453(3) 0.7453(3) 0.0000
C8 C 0.7022(4) 0.9163(3) 0.00456(9)
H5 H 0.5859 0.9497 0.0080
C9 C 0.8301(4) 1.0370(3) 0.00400(10)
H6 H 0.7999 1.1545 0.0065
Cu1A Cu 0.32235(4) -0.32235(4) -0.2500
Cu1_2 Cu 1.17765(4) 1.17765(4) 0.0000
Cu1C Cu -0.32235(4) 0.32235(4) 0.2500
O1F O 0.0080(3) 0.3369(3) 0.05762(6)
N1F N -0.1490(3) 0.3457(3) 0.16979(8)
C1F C -0.0952(4) 0.4106(4) 0.13075(10)
H1F H 0.001(6) 0.017(6) 0.0885(15)
O2F O -0.2051(3) 0.4523(3) 0.20054(6)
O2C O 0.2949(3) 0.0477(3) 0.04946(6)
O2E O 0.0477(3) 0.2949(3) -0.04946(6)
N2F N -0.0844(5) 0.7306(6) 0.11224(10)
C2F C -0.0899(5) 0.5885(5) 0.12011(10)
H2F H -0.085(5) 0.106(5) 0.1362(13)
N3F N -0.0401(4) 0.1217(4) 0.10853(10)
C3F C -0.0366(4) 0.2866(4) 0.09575(10)
C4F C 0.5046(4) 0.3377(4) -0.02314(9)
H3F H 0.5207 0.2349 -0.0400
N5_2 N -0.0046(3) -0.0046(3) 0.0000
C5F C 0.6327(4) 0.4577(4) -0.02374(10)
H4F H 0.7356 0.4366 -0.0402
C8F C 0.9163(3) 0.7022(4) -0.00456(9)
H5F H 0.9497 0.5859 -0.0080
C9F C 1.0370(3) 0.8301(4) -0.00400(10)
H6F H 1.1545 0.7999 -0.0065
loop_
_geom_bond_atom_site_label_1
_geom_bond_atom_site_label_2
_geom_bond_site_symmetry_1
_geom_bond_site_symmetry_2
Cu1 O1 1_555 1_555
O1 C3 1_555 1_555
N1 C1 1_555 1_555
C1 C2 1_555 1_555
H1 N3 1_555 1_555
O2 N1 1_555 1_555
N2 C2 1_555 1_555
H2 N3 1_555 1_555
N3 C3 1_555 1_555
C3 C1 1_555 1_555
N4 Cu1 1_555 1_555
C4 N4 1_555 1_555
H3 C4 1_555 1_555
N5 C9 1_555 1_555
C5 C4 1_555 1_555
H4 C5 1_555 1_555
C6 C5 1_555 1_555
C7 C6 1_555 1_555
C8 C7 1_555 1_555
H5 C8 1_555 1_555
C9 C8 1_555 1_555
H6 C9 1_555 1_555
Cu1A O2 1_555 1_555
Cu1_2 N5 1_555 1_555
Cu1C O2F 1_555 1_555
O1F Cu1 1_555 1_555
N1F C1F 1_555 1_555
C1F C2F 1_555 1_555
H1F N3F 1_555 1_555
O2F N1F 1_555 1_555
O2C Cu1 1_555 1_555
O2E Cu1 1_555 1_555
N2F C2F 1_555 1_555
H2F N3F 1_555 1_555
N3F C3F 1_555 1_555
C3F O1F 1_555 1_555
C4F N4 1_555 1_555
H3F C4F 1_555 1_555
N5_2 Cu1 1_555 1_555
C5F C6 1_555 1_555
H4F C5F 1_555 1_555
C8F C7 1_555 1_555
H5F C8F 1_555 1_555
C9F N5 1_555 1_555
H6F C9F 1_555 1_555
C1F C3F 1_555 1_555
C4F C5F 1_555 1_555
C8F C9F 1_555 1_555

#END
