
#######################################################################
#
#                 Cambridge Crystallographic Data Centre
#                                CCDC 
#
#######################################################################
#
# If this CIF has been generated from an entry in the Cambridge 
# Structural Database, then it will include bibliographic, chemical, 
# crystal, experimental, refinement or atomic coordinate data resulting 
# from the CCDC's data processing and validation procedures.
#
#######################################################################

data_QUPZAC
_symmetry_cell_setting           monoclinic
_symmetry_space_group_name_H-M   'P 21/c'
_symmetry_Int_Tables_number      14
_space_group_name_Hall           '-P 2ybc'
loop_
_symmetry_equiv_pos_site_id
_symmetry_equiv_pos_as_xyz
1 x,y,z
2 -x,1/2+y,1/2-z
3 -x,-y,-z
4 x,1/2-y,1/2+z
_cell_length_a                   9.296(3)
_cell_length_b                   25.562(5)
_cell_length_c                   7.8110(15)
_cell_angle_alpha                90
_cell_angle_beta                 97.27(2)
_cell_angle_gamma                90
_cell_volume                     1841.16
loop_
_atom_site_label
_atom_site_type_symbol
_atom_site_fract_x
_atom_site_fract_y
_atom_site_fract_z
Sm1 Sm 0.51334(3) 0.650379(10) 0.58754(3)
Cu1 Cu 1.0000 0.5000 1.5000
O1 O 0.4941(4) 0.70606(15) 0.3332(5)
O2 O 0.5951(4) 0.76562(16) 0.1765(6)
O3 O 1.2632(4) 0.65598(17) 0.4941(5)
O4 O 1.1417(4) 0.58853(17) 0.5884(6)
O5 O 1.1907(4) 0.48361(17) 1.4368(5)
O6 O 1.3403(4) 0.50842(17) 1.2485(6)
O7 O 0.7072(4) 0.62278(16) 0.8019(5)
O8 O 0.6162(5) 0.6169(2) 1.0516(6)
O9 O 0.4004(5) 0.6639(2) 0.8528(6)
O10 O 0.4365(5) 0.56436(17) 0.6747(6)
O11 O 0.5214(5) 0.59064(16) 0.3479(5)
N1 N 0.7515(5) 0.66621(18) 0.4531(6)
N2 N 0.9701(5) 0.53327(19) 1.2715(6)
C1 C 0.6003(6) 0.7277(2) 0.2776(7)
C2 C 0.7487(6) 0.7046(2) 0.3357(7)
C3 C 0.8710(6) 0.7222(3) 0.2689(9)
C4 C 1.0038(6) 0.6990(3) 0.3273(8)
C5 C 1.0085(6) 0.6587(2) 0.4469(7)
C6 C 0.8796(6) 0.6433(2) 0.5061(7)
C7 C 1.1484(6) 0.6316(3) 0.5154(7)
C8 C 1.2206(7) 0.5076(2) 1.3022(8)
C9 C 1.0959(6) 0.5364(2) 1.2013(7)
C10 C 1.1061(6) 0.5643(3) 1.0503(8)
C11 C 0.9808(6) 0.5882(3) 0.9691(8)
C12 C 0.8516(6) 0.5846(2) 1.0407(7)
C13 C 0.8499(6) 0.5568(2) 1.1939(7)
C14 C 0.7137(6) 0.6101(2) 0.9583(8)
O5B O 0.8093(4) 0.51639(17) 1.5632(5)
O6B O 0.6597(4) 0.49158(17) 1.7515(6)
O7B O 1.2928(4) 0.37722(16) 2.1981(5)
O8B O 1.3838(5) 0.3831(2) 1.9484(6)
N2B N 1.0299(5) 0.46673(19) 1.7285(6)
C8B C 0.7794(7) 0.4924(2) 1.6978(8)
C9B C 0.9041(6) 0.4636(2) 1.7987(7)
C10B C 0.8939(6) 0.4357(3) 1.9497(8)
C11B C 1.0192(6) 0.4118(3) 2.0309(8)
C12B C 1.1484(6) 0.4154(2) 1.9593(7)
C13B C 1.1501(6) 0.4432(2) 1.8061(7)
C14B C 1.2863(6) 0.3899(2) 2.0417(8)
Sm1B Sm 1.48666(3) 0.349621(10) 2.41246(3)
O1C O 0.4941(4) 0.79394(15) 0.8332(5)
O2C O 0.5951(4) 0.73438(16) 0.6765(6)
O3C O 1.2632(4) 0.84402(17) 0.9941(5)
O4C O 1.1417(4) 0.91147(17) 1.0884(6)
N1C N 0.7515(5) 0.83379(18) 0.9531(6)
C1C C 0.6003(6) 0.7723(2) 0.7776(7)
C2C C 0.7487(6) 0.7954(2) 0.8357(7)
C3C C 0.8710(6) 0.7778(3) 0.7689(9)
C4C C 1.0038(6) 0.8010(3) 0.8273(8)
C5C C 1.0085(6) 0.8413(2) 0.9469(7)
C6C C 0.8796(6) 0.8567(2) 1.0061(7)
C7C C 1.1484(6) 0.8684(3) 1.0154(7)
O9B O 1.5996(5) 0.3361(2) 2.1472(6)
O10B O 1.5635(5) 0.43564(17) 2.3253(6)
O11B O 1.4786(5) 0.40936(16) 2.6521(5)
O3_2 O 0.2632(4) 0.65598(17) 0.4941(5)
Sm1C Sm 0.51334(3) 0.849621(10) 0.08754(3)
Sm1_2 Sm 1.51334(3) 0.650379(10) 0.58754(3)
O1B O 1.5059(4) 0.29394(15) 2.6668(5)
O2A O 1.4049(4) 0.26562(16) 2.3235(6)
O3B O 1.7368(4) 0.34402(17) 2.5059(5)
N1B N 1.2485(5) 0.33379(18) 2.5469(6)
Sm1C_2 Sm 0.51334(3) 0.849621(10) 1.08754(3)
Sm1C_3 Sm 1.51334(3) 0.849621(10) 1.08754(3)
O12 O 0.2584(5) 0.7283(2) 0.0666(7)
loop_
_geom_bond_atom_site_label_1
_geom_bond_atom_site_label_2
_geom_bond_site_symmetry_1
_geom_bond_site_symmetry_2
Sm1 O1 1_555 1_555
Cu1 O5 1_555 1_555
O1 C1 1_555 1_555
O2 C1 1_555 1_555
O3 C7 1_555 1_555
O4 C7 1_555 1_555
O5 C8 1_555 1_555
O6 C8 1_555 1_555
O7 Sm1 1_555 1_555
O8 C14 1_555 1_555
O9 Sm1 1_555 1_555
O10 Sm1 1_555 1_555
O11 Sm1 1_555 1_555
N1 Sm1 1_555 1_555
N2 Cu1 1_555 1_555
C1 C2 1_555 1_555
C2 N1 1_555 1_555
C3 C2 1_555 1_555
C4 C3 1_555 1_555
C5 C4 1_555 1_555
C6 N1 1_555 1_555
C7 C5 1_555 1_555
C8 C9 1_555 1_555
C9 N2 1_555 1_555
C10 C9 1_555 1_555
C11 C10 1_555 1_555
C12 C11 1_555 1_555
C13 N2 1_555 1_555
C14 O7 1_555 1_555
O5B Cu1 1_555 1_555
O6B C8B 1_555 1_555
O7B C14B 1_555 1_555
O8B C14B 1_555 1_555
N2B Cu1 1_555 1_555
C8B O5B 1_555 1_555
C9B N2B 1_555 1_555
C10B C9B 1_555 1_555
C11B C10B 1_555 1_555
C12B C11B 1_555 1_555
C13B N2B 1_555 1_555
C14B C12B 1_555 1_555
Sm1B O7B 1_555 1_555
O1C C1C 1_555 1_555
O2C Sm1 1_555 1_555
O3C C7C 1_555 1_555
O4C C7C 1_555 1_555
N1C C2C 1_555 1_555
C1C O2C 1_555 1_555
C2C C1C 1_555 1_555
C3C C2C 1_555 1_555
C4C C3C 1_555 1_555
C5C C4C 1_555 1_555
C6C N1C 1_555 1_555
C7C C5C 1_555 1_555
O9B Sm1B 1_555 1_555
O10B Sm1B 1_555 1_555
O11B Sm1B 1_555 1_555
O3_2 Sm1 1_555 1_555
Sm1C O2 1_555 1_555
Sm1_2 O3 1_555 1_555
O1B Sm1B 1_555 1_555
O2A Sm1B 1_555 1_555
O3B Sm1B 1_555 1_555
N1B Sm1B 1_555 1_555
Sm1C_2 O1C 1_555 1_555
Sm1C_3 O3C 1_555 1_555
C5 C6 1_555 1_555
C12 C13 1_555 1_555
C12 C14 1_555 1_555
C8B C9B 1_555 1_555
C12B C13B 1_555 1_555
N1C Sm1C_2 1_555 1_555
C5C C6C 1_555 1_555

#END
