
#######################################################################
#
#                 Cambridge Crystallographic Data Centre
#                                CCDC 
#
#######################################################################
#
# If this CIF has been generated from an entry in the Cambridge 
# Structural Database, then it will include bibliographic, chemical, 
# crystal, experimental, refinement or atomic coordinate data resulting 
# from the CCDC's data processing and validation procedures.
#
#######################################################################

data_QUQBUA
_symmetry_cell_setting           monoclinic
_symmetry_space_group_name_H-M   'P 21/c'
_symmetry_Int_Tables_number      14
_space_group_name_Hall           '-P 2ybc'
loop_
_symmetry_equiv_pos_site_id
_symmetry_equiv_pos_as_xyz
1 x,y,z
2 -x,1/2+y,1/2-z
3 -x,-y,-z
4 x,1/2-y,1/2+z
_cell_length_a                   6.7737(4)
_cell_length_b                   15.9327(10)
_cell_length_c                   19.3375(12)
_cell_angle_alpha                90
_cell_angle_beta                 92.408(1)
_cell_angle_gamma                90
_cell_volume                     2085.12
loop_
_atom_site_label
_atom_site_type_symbol
_atom_site_fract_x
_atom_site_fract_y
_atom_site_fract_z
Ag1 Ag 0.0000 -0.5000 0.0000
Ag2 Ag 0.5000 -1.0000 0.5000
C1 C 0.5249(8) -0.0267(3) 0.6578(3)
H1 H 0.5387 0.0306 0.6659
C2 C 0.4926(7) -0.1460(3) 0.6059(2)
C3 C 0.4985(6) -0.1621(3) 0.6771(2)
C4 C 0.4802(6) -0.2430(3) 0.7024(2)
H2 H 0.4795 -0.2531 0.7498
C5 C 0.4743(7) -0.2113(3) 0.5588(2)
H3 H 0.4697 -0.2006 0.5115
C6 C 0.4630(6) -0.2921(3) 0.5831(2)
C7 C 0.4630(6) -0.3078(3) 0.6555(2)
C8 C 0.4486(6) -0.3599(3) 0.5291(2)
C9 C 0.4498(7) -0.3949(3) 0.6863(2)
C10 C 0.1152(6) -0.3904(3) 0.2983(2)
C11 C -0.0288(7) -0.2171(3) 0.2987(2)
C12 C -0.0071(6) -0.2626(3) 0.2321(2)
C13 C 0.0314(6) -0.3501(3) 0.2330(2)
C14 C 0.0233(7) -0.3962(3) 0.1728(2)
H4 H 0.0389 -0.4542 0.1735
C15 C -0.0400(7) -0.2203(3) 0.1705(2)
H5 H -0.0638 -0.1628 0.1694
C16 C -0.0360(7) -0.2674(3) 0.1102(2)
C17 C -0.0090(7) -0.3532(3) 0.1108(2)
C18 C -0.0412(8) -0.3127(3) 0.0045(2)
H6 H -0.0502 -0.3128 -0.0436
C19 C -0.0266(6) -0.4539(3) 0.5009(2)
N1 N 0.5066(6) -0.0602(2) 0.5951(2)
N2 N 0.5213(6) -0.0842(2) 0.70857(19)
N3 N -0.0558(7) -0.2438(3) 0.0423(2)
H7 H -0.0743 -0.1936 0.0270
N4 N -0.0124(6) -0.3815(3) 0.0420(2)
O1 O -0.1228(5) -0.2476(2) 0.34545(18)
O2 O 0.0486(6) -0.1419(2) 0.3059(2)
H8 H 0.1125 -0.1309 0.2720
O3 O 0.0551(5) -0.4597(2) 0.31906(17)
O4 O 0.2617(5) -0.3530(2) 0.32826(16)
O5 O 0.5951(5) -0.44371(19) 0.67759(16)
O6 O 0.3071(5) -0.4133(2) 0.72124(18)
O7 O 0.4183(5) -0.43641(19) 0.54461(16)
O8 O 0.4612(5) -0.3389(2) 0.46670(16)
O9 O -0.1572(5) -0.4323(2) 0.54176(16)
O10 O 0.6665(5) -0.4186(2) 0.35851(17)
H9 H 0.7021 -0.3703 0.3653
H10 H 0.7644 -0.4424 0.3449
Tb1 Tb 0.34803(3) -0.461590(14) 0.407790(11)
O12 O 0.0606(5) -0.40476(19) 0.46239(16)
Ag2_2 Ag 0.5000 0.0000 0.5000
C1B C 0.4751(8) -0.9733(3) 0.3422(3)
H1B H 0.4613 -1.0306 0.3341
C2B C 0.5074(7) -0.8540(3) 0.3941(2)
C3B C 0.5015(6) -0.8379(3) 0.3229(2)
C4B C 0.5198(6) -0.7570(3) 0.2976(2)
H2B H 0.5205 -0.7469 0.2502
C5B C 0.5257(7) -0.7887(3) 0.4412(2)
H3B H 0.5303 -0.7994 0.4885
C6B C 0.5370(6) -0.7079(3) 0.4169(2)
C7B C 0.5370(6) -0.6922(3) 0.3445(2)
C8B C 0.5514(6) -0.6401(3) 0.4709(2)
C9B C 0.5502(7) -0.6051(3) 0.3137(2)
C10B C -0.1152(6) -0.6096(3) -0.2983(2)
C11B C 0.0288(7) -0.7829(3) -0.2987(2)
C12B C 0.0071(6) -0.7374(3) -0.2321(2)
C13B C -0.0314(6) -0.6499(3) -0.2330(2)
C14B C -0.0233(7) -0.6038(3) -0.1728(2)
H4B H -0.0389 -0.5458 -0.1735
C15B C 0.0400(7) -0.7797(3) -0.1705(2)
H5B H 0.0638 -0.8372 -0.1694
C16B C 0.0360(7) -0.7326(3) -0.1102(2)
C17B C 0.0090(7) -0.6468(3) -0.1108(2)
C18B C 0.0412(8) -0.6873(3) -0.0045(2)
H6B H 0.0502 -0.6872 0.0436
C19B C 0.0266(6) -0.5461(3) 0.4991(2)
N1B N 0.4934(6) -0.9398(2) 0.4049(2)
N1_2 N 0.5066(6) -1.0602(2) 0.5951(2)
N2B N 0.4787(6) -0.9158(2) 0.29143(19)
N3B N 0.0558(7) -0.7562(3) -0.0423(2)
H7B H 0.0743 -0.8064 -0.0270
N4B N 0.0124(6) -0.6185(3) -0.0420(2)
O1B O 0.1228(5) -0.7524(2) -0.34545(18)
O2B O -0.0486(6) -0.8581(2) -0.3059(2)
H8B H -0.1125 -0.8691 -0.2720
O3B O -0.0551(5) -0.5403(2) -0.31906(17)
O4B O -0.2617(5) -0.6470(2) -0.32826(16)
O5B O 0.4049(5) -0.55629(19) 0.32241(16)
O5_2 O -0.4049(5) -0.44371(19) -0.32241(16)
O6B O 0.6929(5) -0.5867(2) 0.27876(18)
O7B O 0.5817(5) -0.56359(19) 0.45539(16)
O7B_2 O -0.4183(5) -0.56359(19) -0.54461(16)
O7_2 O -0.5817(5) -0.43641(19) -0.45539(16)
O8B O 0.5388(5) -0.6611(2) 0.53330(16)
O8B_2 O -0.4612(5) -0.6611(2) -0.46670(16)
O9B O 0.1572(5) -0.5677(2) 0.45824(16)
O9_2 O -0.1572(5) -0.4323(2) -0.45824(16)
O10B O -0.6665(5) -0.5814(2) -0.35851(17)
H9B H -0.7021 -0.6297 -0.3653
H10B H -0.7644 -0.5576 -0.3449
Tb1B Tb -0.34803(3) -0.538410(14) -0.407790(11)
Tb1B_2 Tb 0.65197(3) -0.538410(14) 0.592210(11)
Tb1B_3 Tb -0.34803(3) -0.538410(14) 0.592210(11)
O12B O -0.0606(5) -0.59524(19) 0.53761(16)
O12B_2 O -0.0606(5) -0.59524(19) -0.46239(16)
O11 O 0.4915(8) -0.1716(3) 0.3813(2)
H11 H 0.3699 -0.1820 0.3894
H12 H 0.5640 -0.1912 0.4149
loop_
_geom_bond_atom_site_label_1
_geom_bond_atom_site_label_2
_geom_bond_site_symmetry_1
_geom_bond_site_symmetry_2
Ag1 N4 1_555 1_555
Ag2 N1B 1_555 1_555
C1 H1 1_555 1_555
C2 C3 1_555 1_555
C3 C4 1_555 1_555
C4 H2 1_555 1_555
C5 C2 1_555 1_555
H3 C5 1_555 1_555
C6 C5 1_555 1_555
C7 C4 1_555 1_555
C8 C6 1_555 1_555
C9 C7 1_555 1_555
C10 C13 1_555 1_555
C11 C12 1_555 1_555
C12 C13 1_555 1_555
C13 C14 1_555 1_555
C14 H4 1_555 1_555
C15 C12 1_555 1_555
H5 C15 1_555 1_555
C16 C15 1_555 1_555
C17 C14 1_555 1_555
C18 H6 1_555 1_555
C19 O9 1_555 1_555
N1 C1 1_555 1_555
N2 C1 1_555 1_555
N3 C16 1_555 1_555
H7 N3 1_555 1_555
N4 C17 1_555 1_555
O1 C11 1_555 1_555
O2 C11 1_555 1_555
H8 O2 1_555 1_555
O3 C10 1_555 1_555
O4 C10 1_555 1_555
O5 C9 1_555 1_555
O6 C9 1_555 1_555
O7 C8 1_555 1_555
O8 C8 1_555 1_555
O9 Tb1B_3 1_555 1_555
O10 H9 1_555 1_555
H10 O10 1_555 1_555
O11 H11 1_555 1_555
H12 O11 1_555 1_555
Tb1 O3 1_555 1_555
O12 C19 1_555 1_555
Ag2_2 N1 1_555 1_555
C1B H1B 1_555 1_555
C2B C3B 1_555 1_555
C3B C4B 1_555 1_555
C4B H2B 1_555 1_555
C5B C2B 1_555 1_555
H3B C5B 1_555 1_555
C6B C5B 1_555 1_555
C7B C4B 1_555 1_555
C8B C6B 1_555 1_555
C9B C7B 1_555 1_555
C10B C13B 1_555 1_555
C11B C12B 1_555 1_555
C12B C13B 1_555 1_555
C13B C14B 1_555 1_555
C14B H4B 1_555 1_555
C15B C12B 1_555 1_555
H5B C15B 1_555 1_555
C16B C15B 1_555 1_555
C17B C14B 1_555 1_555
C18B H6B 1_555 1_555
C19B C19 1_555 1_555
N1B C1B 1_555 1_555
N1_2 Ag2 1_555 1_555
N2B C1B 1_555 1_555
N3B C16B 1_555 1_555
H7B N3B 1_555 1_555
N4B Ag1 1_555 1_555
O1B C11B 1_555 1_555
O2B C11B 1_555 1_555
H8B O2B 1_555 1_555
O3B C10B 1_555 1_555
O4B C10B 1_555 1_555
O5B Tb1 1_555 1_555
O5_2 Tb1B 1_555 1_555
O6B C9B 1_555 1_555
O7B Tb1 1_555 1_555
O7B_2 Tb1B 1_555 1_555
O7_2 Tb1B 1_555 1_555
O8B C8B 1_555 1_555
O8B_2 Tb1B 1_555 1_555
O9B Tb1 1_555 1_555
O9_2 Tb1B 1_555 1_555
O10B H9B 1_555 1_555
H10B O10B 1_555 1_555
Tb1B O3B 1_555 1_555
Tb1B_2 O5 1_555 1_555
Tb1B_3 O12B 1_555 1_555
O12B C19B 1_555 1_555
O12B_2 Tb1B 1_555 1_555
C2 N1 1_555 1_555
C3 N2 1_555 1_555
C6 C7 1_555 1_555
C16 C17 1_555 1_555
C18 N3 1_555 1_555
C18 N4 1_555 1_555
O4 Tb1 1_555 1_555
O7 Tb1 1_555 1_555
O7 Tb1B_2 1_555 1_555
O8 Tb1 1_555 1_555
O10 Tb1 1_555 1_555
Tb1 O12 1_555 1_555
C2B N1B 1_555 1_555
C3B N2B 1_555 1_555
C6B C7B 1_555 1_555
C8B O7B 1_555 1_555
C9B O5B 1_555 1_555
C16B C17B 1_555 1_555
C17B N4B 1_555 1_555
C18B N3B 1_555 1_555
C18B N4B 1_555 1_555
C19B O9B 1_555 1_555
O4B Tb1B 1_555 1_555
O7B Tb1B_2 1_555 1_555
O8B Tb1B_2 1_555 1_555
O10B Tb1B 1_555 1_555

#END
