
#######################################################################
#
#                 Cambridge Crystallographic Data Centre
#                                CCDC 
#
#######################################################################
#
# If this CIF has been generated from an entry in the Cambridge 
# Structural Database, then it will include bibliographic, chemical, 
# crystal, experimental, refinement or atomic coordinate data resulting 
# from the CCDC's data processing and validation procedures.
#
#######################################################################

data_QUQCAH
_symmetry_cell_setting           monoclinic
_symmetry_space_group_name_H-M   'P 21/c'
_symmetry_Int_Tables_number      14
_space_group_name_Hall           '-P 2ybc'
loop_
_symmetry_equiv_pos_site_id
_symmetry_equiv_pos_as_xyz
1 x,y,z
2 -x,1/2+y,1/2-z
3 -x,-y,-z
4 x,1/2-y,1/2+z
_cell_length_a                   6.7425(15)
_cell_length_b                   15.880(4)
_cell_length_c                   19.277(4)
_cell_angle_alpha                90
_cell_angle_beta                 91.797(3)
_cell_angle_gamma                90
_cell_volume                     2062.99
loop_
_atom_site_label
_atom_site_type_symbol
_atom_site_fract_x
_atom_site_fract_y
_atom_site_fract_z
Ag1 Ag 1.0000 0.0000 0.5000
Ag2 Ag 0.5000 -0.5000 0.0000
C1 C 0.9741(16) -0.0462(7) 0.0021(6)
C2 C 0.9660(15) 0.1490(7) 0.2651(5)
C3 C 1.0036(15) 0.2370(7) 0.2659(6)
C4 C 1.0350(16) 0.2811(7) 0.3272(6)
H1 H 1.0559 0.3390 0.3280
C5 C 1.0331(16) 0.2329(7) 0.3877(6)
C6 C 1.0052(16) 0.1462(6) 0.3880(5)
C7 C 0.9744(15) 0.1010(7) 0.3249(6)
H2 H 0.9607 0.0427 0.3240
C8 C 0.8842(15) 0.1079(7) 0.1994(6)
C9 C 1.0260(17) 0.2818(8) 0.1989(6)
C10 C 1.036(2) 0.1872(8) 0.4943(6)
H3 H 1.0438 0.1874 0.5425
C11 C 0.4639(15) -0.1907(7) 0.1556(6)
C12 C 0.4632(15) -0.2059(6) 0.0839(5)
C13 C 0.4778(16) -0.2881(7) 0.0579(5)
H4 H 0.4770 -0.2986 0.0105
C14 C 0.4935(15) -0.3529(7) 0.1060(6)
C15 C 0.4826(15) -0.2561(7) 0.2026(5)
H5 H 0.4831 -0.2459 0.2501
C16 C 0.5007(15) -0.3372(6) 0.1773(5)
C17 C 0.5248(18) -0.4723(7) 0.1569(6)
H6 H 0.5376 -0.5298 0.1648
C18 C 0.4522(17) -0.1038(7) 0.1869(5)
C19 C 0.4501(15) -0.1381(7) 0.0298(6)
Er1 Er 0.65198(7) 0.03826(3) 0.09169(2)
N1 N 0.5211(14) -0.4156(6) 0.2075(5)
H7 H 0.5298 -0.4260 0.2513
N2 N 0.5086(14) -0.4390(6) 0.0949(5)
N3 N 1.0496(16) 0.2556(7) 0.4561(5)
H8 H 1.0659 0.3060 0.4715
N4 N 1.0107(14) 0.1181(6) 0.4566(5)
O1 O 0.3099(12) -0.0859(5) 0.2232(4)
O2 O 0.5964(11) -0.0539(5) 0.1773(4)
O3 O 0.4189(11) -0.0621(5) 0.0456(4)
O4 O 0.4603(12) -0.1585(5) -0.0334(4)
O5 O 1.0661(11) -0.0956(5) -0.0362(4)
O6 O 0.8404(11) -0.0669(5) 0.0421(4)
O7 O 0.7368(11) 0.1446(5) 0.1705(4)
O8 O 0.9466(11) 0.0395(5) 0.1787(4)
O9 O 1.1225(13) 0.2514(5) 0.1525(4)
O10 O 0.9490(14) 0.3573(6) 0.1929(5)
O11 O 0.3371(11) 0.0810(5) 0.1405(4)
H9 H 0.2427 0.0498 0.1472
H10 H 0.2849 0.1254 0.1281
Ag2_2 Ag 0.5000 0.5000 0.0000
C1B C 1.0259(16) 0.0462(7) -0.0021(6)
C2B C 1.0340(15) -0.1490(7) 0.7349(5)
C3B C 0.9964(15) -0.2370(7) 0.7341(6)
C4B C 0.9650(16) -0.2811(7) 0.6728(6)
H1B H 0.9441 -0.3390 0.6720
C5B C 0.9669(16) -0.2329(7) 0.6123(6)
C6B C 0.9948(16) -0.1462(6) 0.6120(5)
C7B C 1.0256(15) -0.1010(7) 0.6751(6)
H2B H 1.0393 -0.0427 0.6760
C8B C 1.1158(15) -0.1079(7) 0.8006(6)
C9B C 0.9740(17) -0.2818(8) 0.8011(6)
C10B C 0.964(2) -0.1872(8) 0.5057(6)
H3B H 0.9562 -0.1874 0.4575
C11B C 0.5361(15) 0.1907(7) -0.1556(6)
C12B C 0.5368(15) 0.2059(6) -0.0839(5)
C13B C 0.5222(16) 0.2881(7) -0.0579(5)
H4B H 0.5230 0.2986 -0.0105
C14B C 0.5065(15) 0.3529(7) -0.1060(6)
C15B C 0.5174(15) 0.2561(7) -0.2026(5)
H5B H 0.5169 0.2459 -0.2501
C16B C 0.4993(15) 0.3372(6) -0.1773(5)
C17B C 0.4752(18) 0.4723(7) -0.1569(6)
H6B H 0.4624 0.5298 -0.1648
C18B C 0.5478(17) 0.1038(7) -0.1869(5)
C19B C 0.5499(15) 0.1381(7) -0.0298(6)
Er1B Er 1.34802(7) -0.03826(3) 0.90831(2)
Er1B_2 Er 0.34802(7) -0.03826(3) -0.09169(2)
Er1B_3 Er 1.34802(7) -0.03826(3) -0.09169(2)
N1B N 0.4789(14) 0.4156(6) -0.2075(5)
H7B H 0.4702 0.4260 -0.2513
N2B N 0.4914(14) 0.4390(6) -0.0949(5)
N2B_2 N 0.4914(14) -0.5610(6) -0.0949(5)
N3B N 0.9504(16) -0.2556(7) 0.5439(5)
H8B H 0.9341 -0.3060 0.5285
N4B N 0.9893(14) -0.1181(6) 0.5434(5)
O1B O 0.6901(12) 0.0859(5) -0.2232(4)
O2B O 0.4036(11) 0.0539(5) -0.1773(4)
O2B_2 O 1.4036(11) 0.0539(5) 0.8227(4)
O3B O 0.5811(11) 0.0621(5) -0.0456(4)
O3_2 O 1.4189(11) -0.0621(5) 1.0456(4)
O3B_2 O 1.5811(11) 0.0621(5) 0.9544(4)
O4B O 0.5397(12) 0.1585(5) 0.0334(4)
O4_2 O 1.4603(12) -0.1585(5) 0.9666(4)
O5B O 0.9339(11) 0.0956(5) 0.0362(4)
O5_2 O 1.0661(11) -0.0956(5) 0.9638(4)
O6B O 1.1596(11) 0.0669(5) -0.0421(4)
O6B_2 O 1.1596(11) 0.0669(5) 0.9579(4)
O7B O 1.2632(11) -0.1446(5) 0.8295(4)
O8B O 1.0534(11) -0.0395(5) 0.8213(4)
O9B O 0.8775(13) -0.2514(5) 0.8475(4)
O10B O 1.0510(14) -0.3573(6) 0.8071(5)
O11B O 1.6629(11) -0.0810(5) 0.8595(4)
H9B H 1.7573 -0.0498 0.8528
H10B H 1.7151 -0.1254 0.8719
O12 O 0.512(2) 0.3283(8) 0.1160(6)
H11 H 0.4179 0.2982 0.1321
H12 H 0.6204 0.3144 0.1378
loop_
_geom_bond_atom_site_label_1
_geom_bond_atom_site_label_2
_geom_bond_site_symmetry_1
_geom_bond_site_symmetry_2
Ag1 N4 1_555 1_555
Ag2 N2 1_555 1_555
C1 O5 1_555 1_555
C2 C3 1_555 1_555
C3 C4 1_555 1_555
C4 H1 1_555 1_555
C5 C4 1_555 1_555
C6 C5 1_555 1_555
C7 C2 1_555 1_555
H2 C7 1_555 1_555
C8 C2 1_555 1_555
C9 C3 1_555 1_555
C10 H3 1_555 1_555
C11 C12 1_555 1_555
C12 C13 1_555 1_555
C13 H4 1_555 1_555
C14 C13 1_555 1_555
C15 C11 1_555 1_555
H5 C15 1_555 1_555
C16 C14 1_555 1_555
C17 H6 1_555 1_555
C18 C11 1_555 1_555
C19 C12 1_555 1_555
Er1 O2 1_555 1_555
N1 C16 1_555 1_555
H7 N1 1_555 1_555
N2 C14 1_555 1_555
N3 C5 1_555 1_555
H8 N3 1_555 1_555
N4 C6 1_555 1_555
O1 C18 1_555 1_555
O2 C18 1_555 1_555
O3 C19 1_555 1_555
O4 C19 1_555 1_555
O5 Er1B_3 1_555 1_555
O6 C1 1_555 1_555
O7 C8 1_555 1_555
O8 C8 1_555 1_555
O9 C9 1_555 1_555
O10 C9 1_555 1_555
O11 Er1 1_555 1_555
H9 O11 1_555 1_555
H10 O11 1_555 1_555
O12 H11 1_555 1_555
H12 O12 1_555 1_555
Ag2_2 N2B 1_555 1_555
C1B C1 1_555 1_555
C2B C3B 1_555 1_555
C3B C4B 1_555 1_555
C4B H1B 1_555 1_555
C5B C4B 1_555 1_555
C6B C5B 1_555 1_555
C7B C2B 1_555 1_555
H2B C7B 1_555 1_555
C8B C2B 1_555 1_555
C9B C3B 1_555 1_555
C10B H3B 1_555 1_555
C11B C12B 1_555 1_555
C12B C13B 1_555 1_555
C13B H4B 1_555 1_555
C14B C13B 1_555 1_555
C15B C11B 1_555 1_555
H5B C15B 1_555 1_555
C16B C14B 1_555 1_555
C17B H6B 1_555 1_555
C18B C11B 1_555 1_555
C19B C12B 1_555 1_555
Er1B O2B_2 1_555 1_555
Er1B_2 O3 1_555 1_555
Er1B_3 O6B 1_555 1_555
N1B C16B 1_555 1_555
H7B N1B 1_555 1_555
N2B C14B 1_555 1_555
N2B_2 Ag2 1_555 1_555
N3B C5B 1_555 1_555
H8B N3B 1_555 1_555
N4B Ag1 1_555 1_555
O1B C18B 1_555 1_555
O2B C18B 1_555 1_555
O3B Er1 1_555 1_555
O3_2 Er1B 1_555 1_555
O3B_2 Er1B 1_555 1_555
O4B Er1 1_555 1_555
O4_2 Er1B 1_555 1_555
O5B Er1 1_555 1_555
O5_2 Er1B 1_555 1_555
O6B C1B 1_555 1_555
O6B_2 Er1B 1_555 1_555
O7B C8B 1_555 1_555
O8B C8B 1_555 1_555
O9B C9B 1_555 1_555
O10B C9B 1_555 1_555
O11B Er1B 1_555 1_555
H9B O11B 1_555 1_555
H10B O11B 1_555 1_555
C6 C7 1_555 1_555
C10 N3 1_555 1_555
C10 N4 1_555 1_555
C15 C16 1_555 1_555
C17 N1 1_555 1_555
C17 N2 1_555 1_555
Er1 O3 1_555 1_555
Er1 O6 1_555 1_555
Er1 O7 1_555 1_555
Er1 O8 1_555 1_555
O4 Er1B_2 1_555 1_555
C1B O5B 1_555 1_555
C6B C7B 1_555 1_555
C6B N4B 1_555 1_555
C10B N3B 1_555 1_555
C10B N4B 1_555 1_555
C15B C16B 1_555 1_555
C17B N1B 1_555 1_555
C17B N2B 1_555 1_555
C19B O3B 1_555 1_555
C19B O4B 1_555 1_555
Er1B O7B 1_555 1_555
Er1B O8B 1_555 1_555
Er1B_2 O2B 1_555 1_555
Er1B_2 O3B 1_555 1_555

#END
