
#######################################################################
#
#                 Cambridge Crystallographic Data Centre
#                                CCDC 
#
#######################################################################
#
# If this CIF has been generated from an entry in the Cambridge 
# Structural Database, then it will include bibliographic, chemical, 
# crystal, experimental, refinement or atomic coordinate data resulting 
# from the CCDC's data processing and validation procedures.
#
#######################################################################

data_QUQCIP
_symmetry_cell_setting           monoclinic
_symmetry_space_group_name_H-M   'P 21/c'
_symmetry_Int_Tables_number      14
_space_group_name_Hall           '-P 2ybc'
loop_
_symmetry_equiv_pos_site_id
_symmetry_equiv_pos_as_xyz
1 x,y,z
2 -x,1/2+y,1/2-z
3 -x,-y,-z
4 x,1/2-y,1/2+z
_cell_length_a                   6.7830(8)
_cell_length_b                   15.9415(18)
_cell_length_c                   19.364(2)
_cell_angle_alpha                90
_cell_angle_beta                 92.669(2)
_cell_angle_gamma                90
_cell_volume                     2091.58
loop_
_atom_site_label
_atom_site_type_symbol
_atom_site_fract_x
_atom_site_fract_y
_atom_site_fract_z
Ag1 Ag 0.5000 -0.5000 0.5000
Ag2 Ag 0.0000 -1.0000 0.0000
C1 C 0.5406(10) -0.3127(4) 0.4966(3)
H1 H 0.5490 -0.3128 0.5447
C2 C 0.5086(9) -0.3530(4) 0.3900(3)
C3 C 0.5359(9) -0.2664(4) 0.3905(3)
C4 C 0.5385(8) -0.2199(4) 0.3297(3)
H2 H 0.5610 -0.1623 0.3302
C5 C 0.4759(8) -0.3963(4) 0.3277(3)
H3 H 0.4597 -0.4542 0.3268
C6 C 0.5066(8) -0.2629(4) 0.2691(3)
C7 C 0.4684(8) -0.3497(4) 0.2678(3)
C8 C 0.5293(9) -0.2178(4) 0.2031(3)
C9 C 0.3844(9) -0.3897(4) 0.2026(3)
C10 C 0.5265(9) -0.4543(4) -0.0014(3)
C11 C 0.0504(8) -0.3593(4) -0.0291(3)
C12 C 0.0489(9) -0.3943(4) -0.1861(3)
C13 C 0.0367(8) -0.3072(3) -0.1556(3)
C14 C 0.0346(8) -0.2913(4) -0.0831(3)
C15 C 0.0200(8) -0.2425(4) -0.2017(3)
H4 H 0.0216 -0.2523 -0.2490
C16 C 0.0260(8) -0.2106(4) -0.0588(3)
H5 H 0.0334 -0.1996 -0.0116
C17 C 0.0061(8) -0.1460(4) -0.1062(3)
C18 C 0.0004(8) -0.1617(4) -0.1764(3)
C19 C -0.0248(10) -0.0267(4) -0.1579(3)
H6 H -0.0374 0.0305 -0.1663
Gd1 Gd 0.15234(4) -0.461300(18) 0.092420(13)
N1 N 0.5127(8) -0.3816(3) 0.4583(2)
N2 N 0.5547(8) -0.2448(4) 0.4590(2)
H7 H 0.5728 -0.1948 0.4748
N3 N -0.0084(8) -0.0600(3) -0.0951(2)
N4 N -0.0211(7) -0.0842(3) -0.2072(2)
H8 H -0.0306 -0.0748 -0.2510
O1 O 0.4519(8) -0.1418(3) 0.1957(2)
H9 H 0.3753 -0.1333 0.2265
O2 O 0.6219(7) -0.2473(3) 0.1560(2)
O3 O 0.2383(6) -0.3522(3) 0.1726(2)
O4 O 0.4443(6) -0.4588(3) 0.1813(2)
O5 O -0.0965(6) -0.4433(2) -0.17813(19)
O6 O 0.1916(7) -0.4127(3) -0.2203(2)
O7 O 0.0818(6) -0.4356(2) -0.04460(19)
O8 O 0.0371(6) -0.3382(3) 0.03334(19)
O9 O 0.6557(6) -0.4324(3) -0.0419(2)
O10 O 0.4399(6) -0.4050(2) 0.03792(18)
O11 O -0.1673(6) -0.4183(3) 0.1419(2)
H10 H -0.2654 -0.4531 0.1570
H11 H -0.2300 -0.3725 0.1325
Ag2_2 Ag 0.0000 0.0000 0.0000
C1B C 0.4594(10) -0.6873(4) 0.5034(3)
H1B H 0.4510 -0.6872 0.4553
C2B C 0.4914(9) -0.6470(4) 0.6100(3)
C3B C 0.4641(9) -0.7336(4) 0.6095(3)
C4B C 0.4615(8) -0.7801(4) 0.6703(3)
H2B H 0.4390 -0.8377 0.6698
C5B C 0.5241(8) -0.6037(4) 0.6723(3)
H3B H 0.5403 -0.5458 0.6732
C6B C 0.4934(8) -0.7371(4) 0.7309(3)
C7B C 0.5316(8) -0.6503(4) 0.7322(3)
C8B C 0.4707(9) -0.7822(4) 0.7969(3)
C9B C 0.6156(9) -0.6103(4) 0.7974(3)
C10B C 0.4735(9) -0.5457(4) 0.0014(3)
C11B C -0.0504(8) -0.6407(4) 0.0291(3)
C12B C -0.0489(9) -0.6057(4) 0.1861(3)
C13B C -0.0367(8) -0.6928(3) 0.1556(3)
C14B C -0.0346(8) -0.7087(4) 0.0831(3)
C15B C -0.0200(8) -0.7575(4) 0.2017(3)
H4B H -0.0216 -0.7477 0.2490
C16B C -0.0260(8) -0.7894(4) 0.0588(3)
H5B H -0.0334 -0.8004 0.0116
C17B C -0.0061(8) -0.8540(4) 0.1062(3)
C18B C -0.0004(8) -0.8383(4) 0.1764(3)
C19B C 0.0248(10) -0.9733(4) 0.1579(3)
H6B H 0.0374 -1.0305 0.1663
Gd1B Gd 0.84766(4) -0.538700(18) 0.907580(13)
Gd1B_2 Gd -0.15234(4) -0.538700(18) -0.092420(13)
Gd1B_3 Gd 0.84766(4) -0.538700(18) -0.092420(13)
N1B N 0.4873(8) -0.6184(3) 0.5417(2)
N2B N 0.4453(8) -0.7552(4) 0.5410(2)
H7B H 0.4272 -0.8052 0.5252
N3B N 0.0084(8) -0.9400(3) 0.0951(2)
N3_2 N -0.0084(8) -1.0600(3) -0.0951(2)
N4B N 0.0211(7) -0.9158(3) 0.2072(2)
H8B H 0.0306 -0.9252 0.2510
O1B O 0.5481(8) -0.8582(3) 0.8043(2)
H9B H 0.6247 -0.8667 0.7735
O2B O 0.3781(7) -0.7527(3) 0.8440(2)
O3B O 0.7617(6) -0.6478(3) 0.8274(2)
O4B O 0.5557(6) -0.5412(3) 0.8187(2)
O5B O 0.0965(6) -0.5567(2) 0.17813(19)
O5_2 O 0.9035(6) -0.4433(2) 0.82187(19)
O6B O -0.1916(7) -0.5873(3) 0.2203(2)
O7B O -0.0818(6) -0.5644(2) 0.04460(19)
O7B_2 O 0.9182(6) -0.5644(2) 1.04460(19)
O7_2 O 1.0818(6) -0.4356(2) 0.95540(19)
O8B O -0.0371(6) -0.6618(3) -0.03334(19)
O8B_2 O 0.9629(6) -0.6618(3) 0.96666(19)
O9B O 0.3443(6) -0.5676(3) 0.0419(2)
O9_2 O 0.6557(6) -0.4324(3) 0.9581(2)
O10B O 0.5601(6) -0.5950(2) -0.03792(18)
O10B_2 O 0.5601(6) -0.5950(2) 0.96208(18)
O11B O 1.1673(6) -0.5817(3) 0.8581(2)
H10B H 1.2654 -0.5469 0.8430
H11B H 1.2300 -0.6275 0.8675
O12 O 1.0113(11) -0.1699(4) 0.1173(3)
H12 H 1.0979 -0.2165 0.1138
H13 H 0.8802 -0.1913 0.1217
loop_
_geom_bond_atom_site_label_1
_geom_bond_atom_site_label_2
_geom_bond_site_symmetry_1
_geom_bond_site_symmetry_2
Ag1 N1 1_555 1_555
Ag2 N3B 1_555 1_555
C1 H1 1_555 1_555
C2 C3 1_555 1_555
C3 C4 1_555 1_555
C4 H2 1_555 1_555
C5 C2 1_555 1_555
H3 C5 1_555 1_555
C6 C4 1_555 1_555
C7 C5 1_555 1_555
C8 C6 1_555 1_555
C9 C7 1_555 1_555
C10 O9 1_555 1_555
C11 C14 1_555 1_555
C12 C13 1_555 1_555
C13 C14 1_555 1_555
C14 C16 1_555 1_555
C15 C13 1_555 1_555
H4 C15 1_555 1_555
C16 H5 1_555 1_555
C17 C16 1_555 1_555
C18 C15 1_555 1_555
C19 H6 1_555 1_555
Gd1 O3 1_555 1_555
N1 C1 1_555 1_555
N2 C1 1_555 1_555
H7 N2 1_555 1_555
N3 C17 1_555 1_555
N4 C18 1_555 1_555
H8 N4 1_555 1_555
O1 C8 1_555 1_555
H9 O1 1_555 1_555
O2 C8 1_555 1_555
O3 C9 1_555 1_555
O4 C9 1_555 1_555
O5 C12 1_555 1_555
O6 C12 1_555 1_555
O7 C11 1_555 1_555
O8 C11 1_555 1_555
O9 Gd1B_3 1_555 1_555
O10 C10 1_555 1_555
O11 Gd1 1_555 1_555
H10 O11 1_555 1_555
H11 O11 1_555 1_555
O12 H12 1_555 1_555
H13 O12 1_555 1_555
Ag2_2 N3 1_555 1_555
C1B H1B 1_555 1_555
C2B C3B 1_555 1_555
C3B C4B 1_555 1_555
C4B H2B 1_555 1_555
C5B C2B 1_555 1_555
H3B C5B 1_555 1_555
C6B C4B 1_555 1_555
C7B C5B 1_555 1_555
C8B C6B 1_555 1_555
C9B C7B 1_555 1_555
C10B C10 1_555 1_555
C11B C14B 1_555 1_555
C12B C13B 1_555 1_555
C13B C14B 1_555 1_555
C14B C16B 1_555 1_555
C15B C13B 1_555 1_555
H4B C15B 1_555 1_555
C16B H5B 1_555 1_555
C17B C16B 1_555 1_555
C18B C15B 1_555 1_555
C19B H6B 1_555 1_555
Gd1B O3B 1_555 1_555
Gd1B_2 O5 1_555 1_555
Gd1B_3 O10B 1_555 1_555
N1B Ag1 1_555 1_555
N2B C1B 1_555 1_555
H7B N2B 1_555 1_555
N3B C17B 1_555 1_555
N3_2 Ag2 1_555 1_555
N4B C18B 1_555 1_555
H8B N4B 1_555 1_555
O1B C8B 1_555 1_555
H9B O1B 1_555 1_555
O2B C8B 1_555 1_555
O3B C9B 1_555 1_555
O4B C9B 1_555 1_555
O5B Gd1 1_555 1_555
O5_2 Gd1B 1_555 1_555
O6B C12B 1_555 1_555
O7B Gd1 1_555 1_555
O7B_2 Gd1B 1_555 1_555
O7_2 Gd1B 1_555 1_555
O8B C11B 1_555 1_555
O8B_2 Gd1B 1_555 1_555
O9B Gd1 1_555 1_555
O9_2 Gd1B 1_555 1_555
O10B C10B 1_555 1_555
O10B_2 Gd1B 1_555 1_555
O11B Gd1B 1_555 1_555
H10B O11B 1_555 1_555
H11B O11B 1_555 1_555
C2 N1 1_555 1_555
C3 N2 1_555 1_555
C6 C7 1_555 1_555
C17 C18 1_555 1_555
C19 N3 1_555 1_555
C19 N4 1_555 1_555
Gd1 O4 1_555 1_555
Gd1 O7 1_555 1_555
Gd1 O8 1_555 1_555
Gd1 O10 1_555 1_555
O7 Gd1B_2 1_555 1_555
C1B N1B 1_555 1_555
C2B N1B 1_555 1_555
C3B N2B 1_555 1_555
C6B C7B 1_555 1_555
C10B O9B 1_555 1_555
C11B O7B 1_555 1_555
C12B O5B 1_555 1_555
C17B C18B 1_555 1_555
C19B N3B 1_555 1_555
C19B N4B 1_555 1_555
Gd1B O4B 1_555 1_555
Gd1B_2 O7B 1_555 1_555
Gd1B_2 O8B 1_555 1_555

#END
