
#######################################################################
#
#                 Cambridge Crystallographic Data Centre
#                                CCDC 
#
#######################################################################
#
# If this CIF has been generated from an entry in the Cambridge 
# Structural Database, then it will include bibliographic, chemical, 
# crystal, experimental, refinement or atomic coordinate data resulting 
# from the CCDC's data processing and validation procedures.
#
#######################################################################

data_QUQCEL
_symmetry_cell_setting           monoclinic
_symmetry_space_group_name_H-M   'P 21/c'
_symmetry_Int_Tables_number      14
_space_group_name_Hall           '-P 2ybc'
loop_
_symmetry_equiv_pos_site_id
_symmetry_equiv_pos_as_xyz
1 x,y,z
2 -x,1/2+y,1/2-z
3 -x,-y,-z
4 x,1/2-y,1/2+z
_cell_length_a                   6.7947(12)
_cell_length_b                   15.969(3)
_cell_length_c                   19.395(4)
_cell_angle_alpha                90
_cell_angle_beta                 92.970(3)
_cell_angle_gamma                90
_cell_volume                     2101.62
loop_
_atom_site_label
_atom_site_type_symbol
_atom_site_fract_x
_atom_site_fract_y
_atom_site_fract_z
Ag1 Ag 0.5000 -0.5000 0.5000
Ag2 Ag 0.0000 -1.0000 0.0000
C1 C 0.543(2) -0.3131(8) 0.4970(6)
H1 H 0.5509 -0.3137 0.5450
C2 C 0.5126(17) -0.3531(6) 0.3918(6)
C3 C 0.5399(16) -0.2667(7) 0.3913(6)
C4 C 0.5425(16) -0.2193(6) 0.3320(6)
H2 H 0.5673 -0.1620 0.3332
C5 C 0.4759(16) -0.3958(7) 0.3288(6)
H3 H 0.4582 -0.4536 0.3277
C6 C 0.5060(16) -0.2621(7) 0.2699(6)
C7 C 0.4673(15) -0.3500(6) 0.2701(5)
C8 C 0.5298(19) -0.2170(7) 0.2039(7)
C9 C 0.3899(15) -0.3898(7) 0.2030(6)
C10 C 0.5265(17) -0.4530(6) 0.0000(6)
C11 C 0.0527(17) -0.3574(6) -0.0290(6)
C12 C 0.0519(18) -0.3939(6) -0.1862(6)
C13 C 0.0412(15) -0.3059(6) -0.1551(5)
C14 C 0.0391(16) -0.2913(6) -0.0827(6)
C15 C 0.0247(16) -0.2414(6) -0.2017(5)
H4 H 0.0293 -0.2514 -0.2488
C16 C 0.0266(17) -0.2091(6) -0.0584(6)
H5 H 0.0304 -0.1981 -0.0112
C17 C 0.0085(15) -0.1449(6) -0.1056(6)
C18 C 0.0010(16) -0.1608(6) -0.1767(6)
C19 C -0.0260(19) -0.0256(7) -0.1579(7)
H6 H -0.0433 0.0314 -0.1663
Sm1 Sm 0.15209(8) -0.46134(3) 0.09292(3)
N1 N 0.5173(15) -0.3810(6) 0.4597(5)
N2 N 0.5582(16) -0.2444(6) 0.4607(5)
H7 H 0.5760 -0.1947 0.4768
N3 N -0.0066(17) -0.0585(5) -0.0949(5)
N4 N -0.0182(15) -0.0828(6) -0.2078(5)
H8 H -0.0241 -0.0731 -0.2515
O1 O 0.4525(15) -0.1419(6) 0.1968(5)
H9 H 0.3781 -0.1333 0.2280
O2 O 0.6234(15) -0.2473(5) 0.1577(5)
O3 O 0.2396(13) -0.3504(5) 0.1740(4)
O4 O 0.4406(12) -0.4587(5) 0.1841(4)
O5 O -0.0929(11) -0.4413(4) -0.1783(4)
O6 O 0.1954(13) -0.4121(5) -0.2194(5)
O7 O 0.0820(12) -0.4341(4) -0.0441(4)
O8 O 0.0332(13) -0.3370(5) 0.0331(4)
O9 O 0.6545(13) -0.4325(4) -0.0412(5)
O10 O 0.4419(13) -0.4052(4) 0.0389(4)
O11 O -0.1700(11) -0.4181(5) 0.1425(4)
H10 H -0.2681 -0.4530 0.1576
H11 H -0.2327 -0.3724 0.1331
Ag2_2 Ag 0.0000 0.0000 0.0000
C1B C 0.457(2) -0.6869(8) 0.5030(6)
H1B H 0.4491 -0.6863 0.4550
C2B C 0.4874(17) -0.6469(6) 0.6082(6)
C3B C 0.4601(16) -0.7333(7) 0.6087(6)
C4B C 0.4575(16) -0.7807(6) 0.6680(6)
H2B H 0.4327 -0.8380 0.6668
C5B C 0.5241(16) -0.6042(7) 0.6712(6)
H3B H 0.5418 -0.5464 0.6723
C6B C 0.4940(16) -0.7379(7) 0.7301(6)
C7B C 0.5327(15) -0.6500(6) 0.7299(5)
C8B C 0.4702(19) -0.7830(7) 0.7961(7)
C9B C 0.6101(15) -0.6102(7) 0.7970(6)
C10B C 0.4735(17) -0.5470(6) 0.0000(6)
C11B C -0.0527(17) -0.6426(6) 0.0290(6)
C12B C -0.0519(18) -0.6061(6) 0.1862(6)
C13B C -0.0412(15) -0.6941(6) 0.1551(5)
C14B C -0.0391(16) -0.7087(6) 0.0827(6)
C15B C -0.0247(16) -0.7586(6) 0.2017(5)
H4B H -0.0293 -0.7486 0.2488
C16B C -0.0266(17) -0.7909(6) 0.0584(6)
H5B H -0.0304 -0.8019 0.0112
C17B C -0.0085(15) -0.8551(6) 0.1056(6)
C18B C -0.0010(16) -0.8392(6) 0.1767(6)
C19B C 0.0260(19) -0.9744(7) 0.1579(7)
H6B H 0.0433 -1.0314 0.1663
Sm1B Sm 0.84791(8) -0.53866(3) 0.90708(3)
Sm1B_2 Sm -0.15209(8) -0.53866(3) -0.09292(3)
Sm1B_3 Sm 0.84791(8) -0.53866(3) -0.09292(3)
N1B N 0.4827(15) -0.6190(6) 0.5403(5)
N2B N 0.4418(16) -0.7556(6) 0.5393(5)
H7B H 0.4240 -0.8053 0.5232
N3B N 0.0066(17) -0.9415(5) 0.0949(5)
N3_2 N -0.0066(17) -1.0585(5) -0.0949(5)
N4B N 0.0182(15) -0.9172(6) 0.2078(5)
H8B H 0.0241 -0.9269 0.2515
O1B O 0.5475(15) -0.8581(6) 0.8032(5)
H9B H 0.6219 -0.8667 0.7720
O2B O 0.3766(15) -0.7527(5) 0.8423(5)
O3B O 0.7604(13) -0.6496(5) 0.8260(4)
O4B O 0.5594(12) -0.5413(5) 0.8159(4)
O5B O 0.0929(11) -0.5587(4) 0.1783(4)
O5_2 O 0.9071(11) -0.4413(4) 0.8217(4)
O6B O -0.1954(13) -0.5879(5) 0.2194(5)
O7B O -0.0820(12) -0.5659(4) 0.0441(4)
O7B_2 O 0.9180(12) -0.5659(4) 1.0441(4)
O7_2 O 1.0820(12) -0.4341(4) 0.9559(4)
O8B O -0.0332(13) -0.6630(5) -0.0331(4)
O8B_2 O 0.9668(13) -0.6630(5) 0.9669(4)
O9B O 0.3455(13) -0.5675(4) 0.0412(5)
O9_2 O 0.6545(13) -0.4325(4) 0.9588(5)
O10B O 0.5581(13) -0.5948(4) -0.0389(4)
O10B_2 O 0.5581(13) -0.5948(4) 0.9611(4)
O11B O 1.1700(11) -0.5819(5) 0.8575(4)
H10B H 1.2681 -0.5470 0.8424
H11B H 1.2327 -0.6276 0.8669
O12 O 1.014(2) -0.1699(7) 0.1183(6)
H12 H 1.1003 -0.2165 0.1148
H13 H 0.8826 -0.1913 0.1227
loop_
_geom_bond_atom_site_label_1
_geom_bond_atom_site_label_2
_geom_bond_site_symmetry_1
_geom_bond_site_symmetry_2
Ag1 N1 1_555 1_555
Ag2 N3B 1_555 1_555
C1 H1 1_555 1_555
C2 C3 1_555 1_555
C3 C4 1_555 1_555
C4 H2 1_555 1_555
C5 C2 1_555 1_555
H3 C5 1_555 1_555
C6 C4 1_555 1_555
C7 C5 1_555 1_555
C8 C6 1_555 1_555
C9 C7 1_555 1_555
C10 O9 1_555 1_555
C11 C14 1_555 1_555
C12 C13 1_555 1_555
C13 C14 1_555 1_555
C14 C16 1_555 1_555
C15 C13 1_555 1_555
H4 C15 1_555 1_555
C16 H5 1_555 1_555
C17 C16 1_555 1_555
C18 C15 1_555 1_555
C19 H6 1_555 1_555
Sm1 O3 1_555 1_555
N1 C1 1_555 1_555
N2 C1 1_555 1_555
H7 N2 1_555 1_555
N3 C17 1_555 1_555
N4 C18 1_555 1_555
H8 N4 1_555 1_555
O1 C8 1_555 1_555
H9 O1 1_555 1_555
O2 C8 1_555 1_555
O3 C9 1_555 1_555
O4 C9 1_555 1_555
O5 C12 1_555 1_555
O6 C12 1_555 1_555
O7 C11 1_555 1_555
O8 C11 1_555 1_555
O9 Sm1B_3 1_555 1_555
O10 C10 1_555 1_555
O11 Sm1 1_555 1_555
H10 O11 1_555 1_555
H11 O11 1_555 1_555
O12 H12 1_555 1_555
H13 O12 1_555 1_555
Ag2_2 N3 1_555 1_555
C1B H1B 1_555 1_555
C2B C3B 1_555 1_555
C3B C4B 1_555 1_555
C4B H2B 1_555 1_555
C5B C2B 1_555 1_555
H3B C5B 1_555 1_555
C6B C4B 1_555 1_555
C7B C5B 1_555 1_555
C8B C6B 1_555 1_555
C9B C7B 1_555 1_555
C10B C10 1_555 1_555
C11B C14B 1_555 1_555
C12B C13B 1_555 1_555
C13B C14B 1_555 1_555
C14B C16B 1_555 1_555
C15B C13B 1_555 1_555
H4B C15B 1_555 1_555
C16B H5B 1_555 1_555
C17B C16B 1_555 1_555
C18B C15B 1_555 1_555
C19B H6B 1_555 1_555
Sm1B O3B 1_555 1_555
Sm1B_2 O5 1_555 1_555
Sm1B_3 O10B 1_555 1_555
N1B Ag1 1_555 1_555
N2B C1B 1_555 1_555
H7B N2B 1_555 1_555
N3B C17B 1_555 1_555
N3_2 Ag2 1_555 1_555
N4B C18B 1_555 1_555
H8B N4B 1_555 1_555
O1B C8B 1_555 1_555
H9B O1B 1_555 1_555
O2B C8B 1_555 1_555
O3B C9B 1_555 1_555
O4B C9B 1_555 1_555
O5B Sm1 1_555 1_555
O5_2 Sm1B 1_555 1_555
O6B C12B 1_555 1_555
O7B Sm1 1_555 1_555
O7B_2 Sm1B 1_555 1_555
O7_2 Sm1B 1_555 1_555
O8B C11B 1_555 1_555
O8B_2 Sm1B 1_555 1_555
O9B Sm1 1_555 1_555
O9_2 Sm1B 1_555 1_555
O10B C10B 1_555 1_555
O10B_2 Sm1B 1_555 1_555
O11B Sm1B 1_555 1_555
H10B O11B 1_555 1_555
H11B O11B 1_555 1_555
C2 N1 1_555 1_555
C3 N2 1_555 1_555
C6 C7 1_555 1_555
C17 C18 1_555 1_555
C19 N3 1_555 1_555
C19 N4 1_555 1_555
Sm1 O4 1_555 1_555
Sm1 O7 1_555 1_555
Sm1 O8 1_555 1_555
Sm1 O10 1_555 1_555
O7 Sm1B_2 1_555 1_555
C1B N1B 1_555 1_555
C2B N1B 1_555 1_555
C3B N2B 1_555 1_555
C6B C7B 1_555 1_555
C10B O9B 1_555 1_555
C11B O7B 1_555 1_555
C12B O5B 1_555 1_555
C17B C18B 1_555 1_555
C19B N3B 1_555 1_555
C19B N4B 1_555 1_555
Sm1B O4B 1_555 1_555
Sm1B_2 O7B 1_555 1_555
Sm1B_2 O8B 1_555 1_555

#END
