
#######################################################################
#
#                 Cambridge Crystallographic Data Centre
#                                CCDC 
#
#######################################################################
#
# If this CIF has been generated from an entry in the Cambridge 
# Structural Database, then it will include bibliographic, chemical, 
# crystal, experimental, refinement or atomic coordinate data resulting 
# from the CCDC's data processing and validation procedures.
#
#######################################################################

data_QUQFIR
_symmetry_cell_setting           triclinic
_symmetry_space_group_name_H-M   'P -1'
_symmetry_Int_Tables_number      2
_space_group_name_Hall           '-P 1'
loop_
_symmetry_equiv_pos_site_id
_symmetry_equiv_pos_as_xyz
1 x,y,z
2 -x,-y,-z
_cell_length_a                   8.033(2)
_cell_length_b                   8.944(2)
_cell_length_c                   17.350(3)
_cell_angle_alpha                76.72(3)
_cell_angle_beta                 79.69(3)
_cell_angle_gamma                72.54(3)
_cell_volume                     1149.16
loop_
_atom_site_label
_atom_site_type_symbol
_atom_site_fract_x
_atom_site_fract_y
_atom_site_fract_z
Na1 Na 0.18604(13) 0.67660(11) 0.03162(6)
Na2 Na 0.37957(14) -0.06946(12) 0.09145(6)
Cl1 Cl 0.2980(2) 0.55072(12) -0.41237(6)
Cl2 Cl 0.38698(14) 1.11044(10) -0.39199(5)
Cl3 Cl 0.2111(2) 0.42310(13) 0.43416(6)
Cl4 Cl 0.11787(15) -0.12158(11) 0.39494(6)
O1 O 0.1926(3) 0.8385(2) -0.10221(10)
O2 O 0.2532(3) 0.5800(2) -0.10000(11)
O3 O 0.2597(3) 0.1956(2) 0.11070(11)
O4 O 0.2621(4) 0.4350(3) 0.11831(13)
O5 O 0.6633(3) -0.0354(3) 0.05026(13)
O6 O 0.4776(3) 0.6864(2) 0.03525(14)
O7 O 0.0914(3) 0.8815(3) 0.1159(2)
O8 O -0.1000(3) 0.6714(3) 0.02729(14)
O10 O 0.4524(4) -0.2184(3) 0.22146(15)
N1 N 0.2400(4) 0.4936(3) -0.2375(2)
N2 N 0.2688(4) 0.4992(3) 0.2605(2)
C1 C 0.2722(3) 0.7524(3) -0.22650(14)
C2 C 0.2685(4) 0.6419(3) -0.2718(2)
C3 C 0.3025(4) 0.6837(4) -0.3544(2)
C4 C 0.3387(5) 0.8248(4) -0.3918(2)
C5 C 0.3419(4) 0.9295(3) -0.3458(2)
C6 C 0.3085(4) 0.8956(3) -0.2640(2)
C7 C 0.2364(3) 0.7209(3) -0.13694(14)
C8 C 0.2200(3) 0.2551(3) 0.23924(14)
C9 C 0.2343(4) 0.3530(3) 0.2891(2)
C10 C 0.2025(5) 0.3010(4) 0.3713(2)
C11 C 0.1658(5) 0.1581(4) 0.4042(2)
C12 C 0.1561(4) 0.0642(3) 0.3540(2)
C13 C 0.1799(4) 0.1113(3) 0.2730(2)
C14 C 0.2493(4) 0.2990(3) 0.14948(15)
H1 H 0.1932(56) 0.4597(51) -0.2658(25)
H2 H 0.1902(54) 0.4821(45) -0.1817(25)
H3 H 0.3648(50) 0.8487(43) -0.4529(23)
H4 H 0.3182(37) 0.9736(32) -0.2342(16)
H5 H 0.3105(48) 0.5069(42) 0.2092(22)
H6 H 0.3357(60) 0.5222(53) 0.2936(27)
H7 H 0.1479(49) 0.1237(43) 0.4610(22)
H8 H 0.1652(36) 0.0454(32) 0.2391(16)
H9 H 0.7054(45) 0.0191(43) 0.0703(20)
H10 H 0.7243(58) -0.1171(53) 0.0600(25)
H11 H 0.5416(45) 0.6071(41) 0.0565(19)
H12 H 0.5344(47) 0.6938(40) -0.0073(21)
H13 H 0.0557(49) 0.8475(43) 0.1542(21)
H14 H 0.0182(58) 0.9730(51) 0.1064(24)
H15 H -0.1114(54) 0.5912(48) 0.0479(23)
H16 H -0.1352(40) 0.6995(35) -0.0146(19)
H19 H 0.5347 -0.2951 0.2321
H20 H 0.4495 -0.1796 0.2671
O5A O 0.3367(3) 0.0354(3) -0.05026(13)
O6_2 O 0.4776(3) -0.3136(2) 0.03525(14)
O7_2 O 0.0914(3) -0.1185(3) 0.1159(2)
Na2A Na 0.62043(14) 0.06946(12) -0.09145(6)
Na2_2 Na 0.37957(14) 0.93054(12) 0.09145(6)
H9A H 0.2946(45) -0.0191(43) -0.0703(20)
H10A H 0.2757(58) 0.1171(53) -0.0600(25)
H11_2 H 0.5416(45) -0.3929(41) 0.0565(19)
H12_2 H 0.5344(47) -0.3062(40) -0.0073(21)
H13_2 H 0.0557(49) -0.1525(43) 0.1542(21)
H14_2 H 0.0182(58) -0.0270(51) 0.1064(24)
O9 O -0.0458(4) 0.7297(4) 0.2602(2)
H17 H -0.0923 0.7567 0.3047
H18 H 0.0413 0.6366 0.2721
loop_
_geom_bond_atom_site_label_1
_geom_bond_atom_site_label_2
_geom_bond_site_symmetry_1
_geom_bond_site_symmetry_2
Na1 O1 1_555 1_555
Na2 O3 1_555 1_555
Cl1 C3 1_555 1_555
Cl2 C5 1_555 1_555
Cl3 C10 1_555 1_555
Cl4 C12 1_555 1_555
O1 C7 1_555 1_555
O2 Na1 1_555 1_555
O3 C14 1_555 1_555
O4 Na1 1_555 1_555
O5 Na2 1_555 1_555
O6 Na1 1_555 1_555
O7 Na1 1_555 1_555
O8 Na1 1_555 1_555
O9 H17 1_555 1_555
O10 Na2 1_555 1_555
N1 C2 1_555 1_555
N2 C9 1_555 1_555
C1 C2 1_555 1_555
C2 C3 1_555 1_555
C3 C4 1_555 1_555
C4 C5 1_555 1_555
C5 C6 1_555 1_555
C6 C1 1_555 1_555
C7 O2 1_555 1_555
C8 C9 1_555 1_555
C9 C10 1_555 1_555
C10 C11 1_555 1_555
C11 C12 1_555 1_555
C12 C13 1_555 1_555
C13 C8 1_555 1_555
C14 O4 1_555 1_555
H1 N1 1_555 1_555
H2 N1 1_555 1_555
H3 C4 1_555 1_555
H4 C6 1_555 1_555
H5 N2 1_555 1_555
H6 N2 1_555 1_555
H7 C11 1_555 1_555
H8 C13 1_555 1_555
H9 O5 1_555 1_555
H10 O5 1_555 1_555
H11 O6 1_555 1_555
H12 O6 1_555 1_555
H13 O7 1_555 1_555
H14 O7 1_555 1_555
H15 O8 1_555 1_555
H16 O8 1_555 1_555
H18 O9 1_555 1_555
H19 O10 1_555 1_555
H20 O10 1_555 1_555
O5A Na2 1_555 1_555
O6_2 Na2 1_555 1_555
O7_2 Na2 1_555 1_555
Na2A O5 1_555 1_555
Na2_2 O6 1_555 1_555
H9A O5A 1_555 1_555
H10A O5A 1_555 1_555
H11_2 O6_2 1_555 1_555
H12_2 O6_2 1_555 1_555
H13_2 O7_2 1_555 1_555
H14_2 O7_2 1_555 1_555
O7 Na2_2 1_555 1_555
C1 C7 1_555 1_555
C8 C14 1_555 1_555
O5A Na2A 1_555 1_555

#END
