
#######################################################################
#
#                 Cambridge Crystallographic Data Centre
#                                CCDC 
#
#######################################################################
#
# If this CIF has been generated from an entry in the Cambridge 
# Structural Database, then it will include bibliographic, chemical, 
# crystal, experimental, refinement or atomic coordinate data resulting 
# from the CCDC's data processing and validation procedures.
#
#######################################################################

data_QUQFOY
_symmetry_cell_setting           monoclinic
_symmetry_space_group_name_H-M   'C 2/c'
_symmetry_Int_Tables_number      15
_space_group_name_Hall           '-C 2yn'
loop_
_symmetry_equiv_pos_site_id
_symmetry_equiv_pos_as_xyz
1 x,y,z
2 -x,y,1/2-z
3 1/2+x,1/2+y,z
4 1/2-x,1/2+y,1/2-z
5 -x,-y,-z
6 x,-y,1/2+z
7 1/2-x,1/2-y,-z
8 1/2+x,1/2-y,1/2+z
_cell_length_a                   32.476(11)
_cell_length_b                   23.135(8)
_cell_length_c                   18.163(6)
_cell_angle_alpha                90
_cell_angle_beta                 112.301(6)
_cell_angle_gamma                90
_cell_volume                     12625.7
loop_
_atom_site_label
_atom_site_type_symbol
_atom_site_fract_x
_atom_site_fract_y
_atom_site_fract_z
Cd1 Cd 0.15867(3) 1.10382(4) 0.10032(6)
Cd2 Cd 0.19330(4) 0.96416(4) 0.06511(6)
Cd3 Cd 0.06077(4) 0.40756(5) 0.33478(7)
O1 O 0.1415(3) 1.0030(3) 0.1066(5)
O2 O 0.1533(3) 1.0581(4) 0.2108(5)
O3 O 0.1604(4) 0.9788(5) 0.4603(6)
O4 O 0.1564(3) 0.8848(4) 0.4784(6)
O5 O 0.2689(3) 0.6315(5) 0.3399(6)
O6 O 0.2658(3) 0.5421(5) 0.3714(6)
O7 O 0.1203(3) 0.4503(5) 0.3174(6)
O8 O 0.0602(4) 0.5019(4) 0.2745(6)
O9 O -0.0828(3) 0.8713(4) -0.0510(6)
O10 O -0.1320(3) 0.8110(4) -0.1380(5)
O11 O -0.0599(3) 0.6688(4) -0.2599(6)
O12 O -0.0078(3) 0.6114(4) -0.1698(5)
O13 O 0.1120(4) 0.3483(5) 0.4363(6)
C1 C 0.1445(4) 1.0106(6) 0.1805(8)
C2 C 0.1383(4) 0.9598(6) 0.2221(8)
C3 C 0.1483(5) 0.9656(6) 0.3013(9)
H1 H 0.1583 1.0011 0.3255
C4 C 0.1440(4) 0.9190(6) 0.3475(8)
C5 C 0.1300(5) 0.8653(6) 0.3121(8)
H2 H 0.1274 0.8342 0.3426
C6 C 0.1199(5) 0.8584(6) 0.2311(8)
C7 C 0.1251(4) 0.9049(5) 0.1895(7)
H3 H 0.1196 0.8997 0.1358
C8 C 0.1548(5) 0.9246(8) 0.4386(10)
C9 C 0.1060(5) 0.8029(6) 0.1916(8)
C10 C 0.1245(4) 0.7497(7) 0.2272(8)
H4 H 0.1481 0.7507 0.2763
C11 C 0.1101(4) 0.6974(6) 0.1944(8)
C12 C 0.0753(4) 0.6974(6) 0.1190(9)
H5 H 0.0653 0.6619 0.0950
C13 C 0.0552(4) 0.7459(6) 0.0787(8)
C14 C 0.0722(5) 0.7992(6) 0.1185(9)
H6 H 0.0595 0.8334 0.0931
C15 C 0.1308(5) 0.6444(6) 0.2352(8)
C16 C 0.1769(5) 0.6411(6) 0.2670(7)
H7 H 0.1934 0.6729 0.2628
C17 C 0.1989(5) 0.5915(7) 0.3050(9)
C18 C 0.1742(5) 0.5446(7) 0.3111(8)
H8 H 0.1886 0.5112 0.3366
C19 C 0.1273(5) 0.5466(5) 0.2792(8)
C20 C 0.1047(5) 0.5964(5) 0.2386(7)
H9 H 0.0738 0.5974 0.2149
C21 C 0.2486(5) 0.5875(7) 0.3431(8)
C22 C 0.0996(7) 0.4959(8) 0.2903(9)
C23 C 0.0152(5) 0.7464(6) 0.0037(8)
C24 C 0.0120(5) 0.7063(6) -0.0566(10)
H10 H 0.0357 0.6815 -0.0496
C25 C -0.0254(5) 0.7031(6) -0.1259(8)
C26 C -0.0596(5) 0.7415(6) -0.1388(8)
H11 H -0.0850 0.7404 -0.1852
C27 C -0.0548(5) 0.7832(5) -0.0786(9)
C28 C -0.0178(5) 0.7847(5) -0.0110(9)
H12 H -0.0153 0.8132 0.0266
C29 C -0.0928(6) 0.8248(6) -0.0897(10)
C30 C -0.0300(5) 0.6585(6) -0.1884(10)
O14 O 0.2434(5) 0.9396(8) 0.0073(10)
O15 O 0.1466(4) 0.8891(4) 0.0073(7)
O16 O 0.2304(3) 0.9121(4) 0.1768(6)
O17 O 0.0652(4) 0.4598(6) 0.4457(6)
N1 N 0.0479(5) 0.5351(7) 0.5025(8)
C31 C 0.0473(6) 0.5066(8) 0.4394(13)
C32 C 0.0249(6) 0.5897(7) 0.4905(11)
H13 H 0.0092 0.5961 0.4346
H14 H 0.0042 0.5891 0.5166
H15 H 0.0461 0.6202 0.5124
C33 C 0.0730(5) 0.5183(7) 0.5843(8)
H16 H 0.0872 0.4818 0.5852
H17 H 0.0951 0.5471 0.6097
H18 H 0.0531 0.5149 0.6120
Cd1E Cd 0.15867(3) 0.89618(4) 0.60032(6)
Cd1C Cd 0.34133(3) 0.60382(4) 0.39968(6)
Cd1D Cd -0.15867(3) 0.89618(4) -0.10032(6)
Cd2E Cd 0.19330(4) 1.03584(4) 0.56511(6)
Cd2C Cd 0.30670(4) 0.46416(4) 0.43489(6)
Cd3D Cd -0.06077(4) 0.59244(5) -0.33478(7)
Cd3E Cd 0.06077(4) 0.59244(5) -0.16522(7)
O3E O 0.1604(4) 1.0212(5) -0.0397(6)
O4E O 0.1564(3) 1.1152(4) -0.0216(6)
O5C O 0.2311(3) 1.1315(5) 0.1601(6)
O6C O 0.2342(3) 1.0421(5) 0.1286(6)
O9D O 0.0828(3) 1.1287(4) 0.0510(6)
O10D O 0.1320(3) 1.1890(4) 0.1380(5)
O11D O 0.0599(3) 0.3312(4) 0.2599(6)
O12E O -0.0078(3) 0.3886(4) 0.3302(5)
loop_
_geom_bond_atom_site_label_1
_geom_bond_atom_site_label_2
_geom_bond_site_symmetry_1
_geom_bond_site_symmetry_2
Cd1 O1 1_555 1_555
Cd2 O1 1_555 1_555
Cd3 O7 1_555 1_555
O1 C1 1_555 1_555
O2 Cd1 1_555 1_555
O3 C8 1_555 1_555
O4 C8 1_555 1_555
O5 C21 1_555 1_555
O6 C21 1_555 1_555
O7 C22 1_555 1_555
O8 Cd3 1_555 1_555
O9 C29 1_555 1_555
O10 C29 1_555 1_555
O11 C30 1_555 1_555
O12 C30 1_555 1_555
O13 Cd3 1_555 1_555
C1 O2 1_555 1_555
C2 C1 1_555 1_555
C3 C2 1_555 1_555
H1 C3 1_555 1_555
C4 C3 1_555 1_555
C5 C4 1_555 1_555
H2 C5 1_555 1_555
C6 C5 1_555 1_555
C7 C2 1_555 1_555
H3 C7 1_555 1_555
C8 C4 1_555 1_555
C9 C6 1_555 1_555
C10 C9 1_555 1_555
H4 C10 1_555 1_555
C11 C10 1_555 1_555
C12 C11 1_555 1_555
H5 C12 1_555 1_555
C13 C12 1_555 1_555
C14 C9 1_555 1_555
H6 C14 1_555 1_555
C15 C11 1_555 1_555
C16 C15 1_555 1_555
H7 C16 1_555 1_555
C17 C16 1_555 1_555
C18 C17 1_555 1_555
H8 C18 1_555 1_555
C19 C18 1_555 1_555
C20 C15 1_555 1_555
H9 C20 1_555 1_555
C21 C17 1_555 1_555
C22 O8 1_555 1_555
C23 C13 1_555 1_555
C24 C23 1_555 1_555
H10 C24 1_555 1_555
C25 C24 1_555 1_555
C26 C25 1_555 1_555
H11 C26 1_555 1_555
C27 C26 1_555 1_555
C28 C23 1_555 1_555
H12 C28 1_555 1_555
C29 C27 1_555 1_555
C30 C25 1_555 1_555
O14 Cd2 1_555 1_555
O15 Cd2 1_555 1_555
O16 Cd2 1_555 1_555
O17 Cd3 1_555 1_555
N1 C31 1_555 1_555
C31 O17 1_555 1_555
C32 N1 1_555 1_555
H13 C32 1_555 1_555
H14 C32 1_555 1_555
H15 C32 1_555 1_555
C33 N1 1_555 1_555
H16 C33 1_555 1_555
H17 C33 1_555 1_555
H18 C33 1_555 1_555
Cd1E O4 1_555 1_555
Cd1C O5 1_555 1_555
Cd1D O9 1_555 1_555
Cd2E O3 1_555 1_555
Cd2C O6 1_555 1_555
Cd3D O11 1_555 1_555
Cd3E O12 1_555 1_555
O3E Cd2 1_555 1_555
O4E Cd1 1_555 1_555
O5C Cd1 1_555 1_555
O6C Cd2 1_555 1_555
O9D Cd1 1_555 1_555
O10D Cd1 1_555 1_555
O11D Cd3 1_555 1_555
O12E Cd3 1_555 1_555
O10 Cd1D 1_555 1_555
C6 C7 1_555 1_555
C13 C14 1_555 1_555
C19 C20 1_555 1_555
C19 C22 1_555 1_555
C27 C28 1_555 1_555

#END
