
#######################################################################
#
#                 Cambridge Crystallographic Data Centre
#                                CCDC 
#
#######################################################################
#
# If this CIF has been generated from an entry in the Cambridge 
# Structural Database, then it will include bibliographic, chemical, 
# crystal, experimental, refinement or atomic coordinate data resulting 
# from the CCDC's data processing and validation procedures.
#
#######################################################################

data_QUQGUF
_symmetry_cell_setting           orthorhombic
_symmetry_space_group_name_H-M   'P b c n'
_symmetry_Int_Tables_number      60
_space_group_name_Hall           '-P 2n 2ab'
loop_
_symmetry_equiv_pos_site_id
_symmetry_equiv_pos_as_xyz
1 x,y,z
2 1/2-x,1/2-y,1/2+z
3 -x,y,1/2-z
4 1/2+x,1/2-y,-z
5 -x,-y,-z
6 1/2+x,1/2+y,1/2-z
7 x,-y,1/2+z
8 1/2-x,1/2+y,z
_cell_length_a                   15.9934(12)
_cell_length_b                   9.1122(7)
_cell_length_c                   9.9053(8)
_cell_angle_alpha                90
_cell_angle_beta                 90
_cell_angle_gamma                90
_cell_volume                     1443.55
loop_
_atom_site_label
_atom_site_type_symbol
_atom_site_fract_x
_atom_site_fract_y
_atom_site_fract_z
Cd1 Cd 0.0000 1.04637(2) 0.7500
O1 O -0.03045(9) 0.87670(15) 0.58645(14)
O2 O 0.03214(11) 0.78336(17) 0.40460(14)
O3 O 0.32174(10) 0.6381(2) 0.50917(17)
O4 O 0.35640(10) 0.54191(18) 0.7088(2)
C1 C 0.07702(12) 0.7004(2) 0.61765(19)
C2 C 0.16116(12) 0.6864(2) 0.5844(2)
C3 C 0.21516(12) 0.6088(2) 0.6670(2)
C4 C 0.18458(15) 0.5419(2) 0.7832(3)
C5 C 0.10062(14) 0.5519(2) 0.8149(2)
C6 C 0.04564(12) 0.6313(2) 0.73305(19)
C7 C 0.02271(12) 0.7927(2) 0.5289(2)
C8 C 0.30499(13) 0.5943(2) 0.6313(2)
H1 H 0.1800(14) 0.728(2) 0.508(2)
H2 H 0.2187(16) 0.480(3) 0.836(3)
H3 H 0.0798(16) 0.504(3) 0.893(3)
H4 H 0.381(2) 0.630(4) 0.486(4)
Cd1D Cd 0.0000 0.95363(2) 0.2500
Cd1D_2 Cd 0.0000 0.95363(2) 1.2500
Cd1E Cd -0.5000 0.54637(2) 0.7500
Cd1E_2 Cd 0.5000 0.54637(2) 0.7500
O1B O 0.03045(9) 0.87670(15) 0.91355(14)
O2B O -0.03214(11) 0.78336(17) 1.09540(14)
O2D O -0.03214(11) 1.21664(17) 0.59540(14)
O2F O 0.03214(11) 1.21664(17) 0.90460(14)
O3B O -0.32174(10) 0.6381(2) 0.99083(17)
O4B O -0.35640(10) 0.54191(18) 0.7912(2)
O4E O -0.14360(10) 1.04191(18) 0.7912(2)
O4G O 0.14360(10) 1.04191(18) 0.7088(2)
C1B C -0.07702(12) 0.7004(2) 0.88235(19)
C2B C -0.16116(12) 0.6864(2) 0.9156(2)
C3B C -0.21516(12) 0.6088(2) 0.8330(2)
C4B C -0.18458(15) 0.5419(2) 0.7168(3)
C5B C -0.10062(14) 0.5519(2) 0.6851(2)
C6B C -0.04564(12) 0.6313(2) 0.76695(19)
C7B C -0.02271(12) 0.7927(2) 0.9711(2)
C8B C -0.30499(13) 0.5943(2) 0.8687(2)
H1B H -0.1800(14) 0.728(2) 0.992(2)
H2B H -0.2187(16) 0.480(3) 0.664(3)
H3B H -0.0798(16) 0.504(3) 0.607(3)
H4B H -0.381(2) 0.630(4) 1.014(4)
loop_
_geom_bond_atom_site_label_1
_geom_bond_atom_site_label_2
_geom_bond_site_symmetry_1
_geom_bond_site_symmetry_2
Cd1 O1 1_555 1_555
O1 C7 1_555 1_555
O2 C7 1_555 1_555
O3 C8 1_555 1_555
O4 C8 1_555 1_555
C1 C2 1_555 1_555
C2 C3 1_555 1_555
C3 C4 1_555 1_555
C4 C5 1_555 1_555
C5 C6 1_555 1_555
C6 C1 1_555 1_555
C7 C1 1_555 1_555
C8 C3 1_555 1_555
H1 C2 1_555 1_555
H2 C4 1_555 1_555
H3 C5 1_555 1_555
H4 O3 1_555 1_555
Cd1D O2 1_555 1_555
Cd1D_2 O2B 1_555 1_555
Cd1E O4B 1_555 1_555
Cd1E_2 O4 1_555 1_555
O1B Cd1 1_555 1_555
O2B C7B 1_555 1_555
O2D Cd1 1_555 1_555
O2F Cd1 1_555 1_555
O3B C8B 1_555 1_555
O4B C8B 1_555 1_555
O4E Cd1 1_555 1_555
O4G Cd1 1_555 1_555
C1B C2B 1_555 1_555
C2B C3B 1_555 1_555
C3B C4B 1_555 1_555
C4B C5B 1_555 1_555
C5B C6B 1_555 1_555
C6B C6 1_555 1_555
C7B O1B 1_555 1_555
C8B C3B 1_555 1_555
H1B C2B 1_555 1_555
H2B C4B 1_555 1_555
H3B C5B 1_555 1_555
H4B O3B 1_555 1_555
C1B C6B 1_555 1_555
C1B C7B 1_555 1_555

#END
