
#######################################################################
#
#                 Cambridge Crystallographic Data Centre
#                                CCDC 
#
#######################################################################
#
# If this CIF has been generated from an entry in the Cambridge 
# Structural Database, then it will include bibliographic, chemical, 
# crystal, experimental, refinement or atomic coordinate data resulting 
# from the CCDC's data processing and validation procedures.
#
#######################################################################

data_QUQGAL
_symmetry_cell_setting           orthorhombic
_symmetry_space_group_name_H-M   'P b c n'
_symmetry_Int_Tables_number      60
_space_group_name_Hall           '-P 2n 2ab'
loop_
_symmetry_equiv_pos_site_id
_symmetry_equiv_pos_as_xyz
1 x,y,z
2 1/2-x,1/2-y,1/2+z
3 -x,y,1/2-z
4 1/2+x,1/2-y,-z
5 -x,-y,-z
6 1/2+x,1/2+y,1/2-z
7 x,-y,1/2+z
8 1/2-x,1/2+y,z
_cell_length_a                   15.800(3)
_cell_length_b                   8.5958(17)
_cell_length_c                   18.460(4)
_cell_angle_alpha                90
_cell_angle_beta                 90
_cell_angle_gamma                90
_cell_volume                     2507.12
loop_
_atom_site_label
_atom_site_type_symbol
_atom_site_fract_x
_atom_site_fract_y
_atom_site_fract_z
O1 O 0.03875(6) 0.38030(14) 0.35206(6)
O2 O 0.11469(8) 0.29233(17) 0.25858(6)
O3 O 0.35445(8) 0.19333(18) 0.58953(6)
O4 O 0.43745(7) 0.11322(15) 0.49963(6)
N1 N 0.16039(8) 0.29836(17) 0.44578(7)
C1 C 0.10289(9) 0.31803(19) 0.32366(8)
C2 C 0.36901(9) 0.16813(19) 0.52502(8)
C3 C 0.30089(9) 0.20445(19) 0.47011(8)
C4 C 0.17376(9) 0.27191(18) 0.37497(8)
C5 C 0.24865(10) 0.2103(2) 0.34863(8)
H1 H 0.2556 0.1914 0.2994
C6 C 0.22335(10) 0.2656(2) 0.49195(8)
H2 H 0.2148 0.2845 0.5410
C7 C 0.31290(10) 0.1775(2) 0.39706(9)
H3 H 0.3640 0.1374 0.3805
Li1 Li -0.08205(16) 0.3944(3) 0.32773(14)
Li2 Li 0.04440(16) 0.4116(4) 0.45460(14)
C8 C -0.06700(17) 0.7175(3) 0.34025(19)
H4 H -0.0124 0.6888 0.3535
C9 C -0.16673(19) 0.9291(4) 0.32535(18)
H5 H -0.1658 1.0403 0.3304
H6 H -0.2086 0.8863 0.3573
H7 H -0.1805 0.9023 0.2762
C10 C -0.0226(3) 0.9787(5) 0.3667(6)
H8 H -0.0467 1.0813 0.3669
H9 H 0.0246 0.9761 0.3340
H10 H -0.0039 0.9526 0.4146
O5 O -0.11362(11) 0.6164(2) 0.32222(12)
N2 N -0.08582(16) 0.8676(2) 0.34325(16)
O2B O -0.11469(8) 0.29233(17) 0.24142(6)
O3C O -0.14555(8) 0.30667(18) 0.41047(6)
O4C O -0.06255(7) 0.38678(15) 0.50037(6)
O4G O 0.06255(7) 0.61322(15) 0.49963(6)
Li1B Li 0.08205(16) 0.3944(3) 0.17227(14)
Li1C Li 0.41795(16) 0.1056(3) 0.67227(14)
Li2C Li 0.54440(16) 0.0884(4) 0.54540(14)
Li2G Li 0.45560(16) -0.0884(4) 0.45460(14)
loop_
_geom_bond_atom_site_label_1
_geom_bond_atom_site_label_2
_geom_bond_site_symmetry_1
_geom_bond_site_symmetry_2
O1 C1 1_555 1_555
O2 C1 1_555 1_555
O3 C2 1_555 1_555
O4 C2 1_555 1_555
N1 C4 1_555 1_555
C1 C4 1_555 1_555
C2 C3 1_555 1_555
C3 C6 1_555 1_555
C4 C5 1_555 1_555
C5 H1 1_555 1_555
C6 N1 1_555 1_555
H2 C6 1_555 1_555
C7 C3 1_555 1_555
H3 C7 1_555 1_555
Li1 O1 1_555 1_555
Li2 O1 1_555 1_555
C8 H4 1_555 1_555
C9 H5 1_555 1_555
H6 C9 1_555 1_555
H7 C9 1_555 1_555
C10 H8 1_555 1_555
H9 C10 1_555 1_555
H10 C10 1_555 1_555
O5 Li1 1_555 1_555
N2 C8 1_555 1_555
O2B Li1 1_555 1_555
O3C Li1 1_555 1_555
O4C Li2 1_555 1_555
O4G Li2 1_555 1_555
Li1B O2 1_555 1_555
Li1C O3 1_555 1_555
Li2C O4 1_555 1_555
Li2G O4 1_555 1_555
N1 Li2 1_555 1_555
C5 C7 1_555 1_555
C8 O5 1_555 1_555
C9 N2 1_555 1_555
C10 N2 1_555 1_555

#END
