
#######################################################################
#
#                 Cambridge Crystallographic Data Centre
#                                CCDC 
#
#######################################################################
#
# If this CIF has been generated from an entry in the Cambridge 
# Structural Database, then it will include bibliographic, chemical, 
# crystal, experimental, refinement or atomic coordinate data resulting 
# from the CCDC's data processing and validation procedures.
#
#######################################################################

data_QUQGOZ
_symmetry_cell_setting           monoclinic
_symmetry_space_group_name_H-M   'C 2/c'
_symmetry_Int_Tables_number      15
_space_group_name_Hall           '-C 2yn'
loop_
_symmetry_equiv_pos_site_id
_symmetry_equiv_pos_as_xyz
1 x,y,z
2 -x,y,1/2-z
3 1/2+x,1/2+y,z
4 1/2-x,1/2+y,1/2-z
5 -x,-y,-z
6 x,-y,1/2+z
7 1/2-x,1/2-y,-z
8 1/2+x,1/2-y,1/2+z
_cell_length_a                   29.780(4)
_cell_length_b                   7.2495(9)
_cell_length_c                   24.163(3)
_cell_angle_alpha                90
_cell_angle_beta                 123.628(3)
_cell_angle_gamma                90
_cell_volume                     4343.57
loop_
_atom_site_label
_atom_site_type_symbol
_atom_site_fract_x
_atom_site_fract_y
_atom_site_fract_z
Zn1 Zn 0.126280(19) 0.85667(7) 0.35174(2)
Zn2 Zn 0.0000 0.99074(9) 0.2500
C1 C 0.07000(17) 1.0033(6) 0.4090(2)
C2 C 0.07154(17) 1.0582(6) 0.4690(2)
C3 C 0.0337(2) 1.1744(7) 0.4643(2)
H1 H 0.0057 1.2163 0.4229
C4 C 0.11217(19) 0.9894(6) 0.5315(2)
H2 H 0.1380 0.9090 0.5352
C5 C 0.11367(19) 1.0418(7) 0.5880(2)
H3 H 0.1396 0.9913 0.6290
C6 C 0.03662(19) 1.2316(7) 0.5224(2)
H4 H 0.0110 1.3130 0.5189
C7 C 0.07733(18) 1.1669(6) 0.5840(2)
C8 C 0.0822(2) 1.2338(7) 0.6470(2)
H5 H 0.1013 1.1388 0.6812
C9 C 0.11403(18) 1.4133(7) 0.6736(2)
H6 H 0.0913 1.5131 0.6438
C10 C 0.16612(18) 1.4123(6) 0.6758(2)
C11 C 0.21124(19) 1.3301(6) 0.7280(2)
H7 H 0.2100 1.2790 0.7624
C12 C 0.16846(18) 1.4904(6) 0.6259(2)
H8 H 0.1380 1.5465 0.5904
C13 C 0.21671(18) 1.4866(6) 0.6279(2)
H9 H 0.2182 1.5400 0.5940
C14 C 0.2585(2) 1.3219(6) 0.7303(2)
H10 H 0.2884 1.2615 0.7654
C15 C 0.26186(17) 1.4026(6) 0.6810(2)
C16 C 0.31429(19) 1.4094(7) 0.6870(2)
C17 C 0.2176(3) 0.5924(9) 0.4134(4)
H11 H 0.2301 0.6697 0.3941
C18 C 0.1532(2) 0.5054(7) 0.4286(3)
H12 H 0.1189 0.5224 0.4200
C19 C 0.1828(2) 0.3592(8) 0.4667(3)
H13 H 0.1690 0.2805 0.4842
C20 C 0.2501(3) 0.4480(9) 0.4516(3)
H14 H 0.2838 0.4333 0.4584
C21 C 0.23358(18) 0.3277(6) 0.4794(2)
N1 N 0.17100(15) 0.6274(5) 0.40272(19)
O1 O 0.11450(12) 0.9563(5) 0.41878(15)
O2 O 0.02579(12) 1.0080(4) 0.35405(15)
O3 O 0.31534(12) 1.5173(5) 0.64583(16)
O4 O 0.35307(15) 1.3154(6) 0.7287(2)
O5 O 0.12205(18) 1.4449(6) 0.7359(2)
H15 H 0.128(3) 1.570(3) 0.735(3)
O6 O 0.03294(15) 1.2628(6) 0.63804(19)
H16 H 0.0250(19) 1.135(5) 0.643(4)
O7 O 0.05826(13) 0.8074(5) 0.27407(15)
H17 H 0.052(2) 0.711(4) 0.250(2)
O8 O 0.05397(14) 1.2110(5) 0.2700(2)
H18 H 0.0832(17) 1.191(9) 0.269(3)
H19 H 0.0646(15) 1.244(5) 0.3128(16)
Zn1A Zn -0.126280(19) 0.85667(7) 0.14826(2)
Zn1F Zn 0.373720(19) 1.64333(7) 0.64826(2)
Zn1F_2 Zn 0.373720(19) -0.35667(7) 0.64826(2)
Zn1G Zn -0.373720(19) 1.64333(7) -0.14826(2)
C1A C -0.07000(17) 1.0033(6) 0.0910(2)
C2A C -0.07154(17) 1.0582(6) 0.0310(2)
C3A C -0.0337(2) 1.1744(7) 0.0357(2)
H1A H -0.0057 1.2163 0.0771
C4A C -0.11217(19) 0.9894(6) -0.0315(2)
H2A H -0.1380 0.9090 -0.0352
C5A C -0.11367(19) 1.0418(7) -0.0880(2)
H3A H -0.1396 0.9913 -0.1290
C6A C -0.03662(19) 1.2316(7) -0.0224(2)
H4A H -0.0110 1.3130 -0.0189
C7A C -0.07733(18) 1.1669(6) -0.0840(2)
C8A C -0.0822(2) 1.2338(7) -0.1470(2)
H5A H -0.1013 1.1388 -0.1812
C9A C -0.11403(18) 1.4133(7) -0.1736(2)
H6A H -0.0913 1.5131 -0.1438
C10A C -0.16612(18) 1.4123(6) -0.1758(2)
C11A C -0.21124(19) 1.3301(6) -0.2280(2)
H7A H -0.2100 1.2790 -0.2624
C12A C -0.16846(18) 1.4904(6) -0.1259(2)
H8A H -0.1380 1.5465 -0.0904
C13A C -0.21671(18) 1.4866(6) -0.1279(2)
H9A H -0.2182 1.5400 -0.0940
C14A C -0.2585(2) 1.3219(6) -0.2303(2)
H10A H -0.2884 1.2615 -0.2654
C15A C -0.26186(17) 1.4026(6) -0.1810(2)
C16A C -0.31429(19) 1.4094(7) -0.1870(2)
C17F C 0.2824(3) -0.0924(9) 0.5866(4)
H11F H 0.2699 -0.1697 0.6059
C18F C 0.3468(2) -0.0054(7) 0.5714(3)
H12F H 0.3811 -0.0224 0.5800
C19F C 0.3172(2) 0.1408(8) 0.5333(3)
H13F H 0.3310 0.2195 0.5158
C20F C 0.2499(3) 0.0520(9) 0.5484(3)
H14F H 0.2162 0.0667 0.5416
C21F C 0.26642(18) 0.1723(6) 0.5206(2)
N1F N 0.32900(15) -0.1274(5) 0.59728(19)
N1A N -0.17100(15) 0.6274(5) 0.09728(19)
O1A O -0.11450(12) 0.9563(5) 0.08122(15)
O2A O -0.02579(12) 1.0080(4) 0.14595(15)
O3A O -0.31534(12) 1.5173(5) -0.14583(16)
O3F O 0.18466(12) 0.9827(5) 0.35417(16)
O3G O -0.18466(12) 0.9827(5) 0.14583(16)
O4A O -0.35307(15) 1.3154(6) -0.2287(2)
O5A O -0.12205(18) 1.4449(6) -0.2359(2)
H15A H -0.128(3) 1.570(3) -0.235(3)
O6A O -0.03294(15) 1.2628(6) -0.13804(19)
H16A H -0.0250(19) 1.135(5) -0.143(4)
O7A O -0.05826(13) 0.8074(5) 0.22593(15)
H17A H -0.052(2) 0.711(4) 0.250(2)
O8A O -0.05397(14) 1.2110(5) 0.2300(2)
H18A H -0.0832(17) 1.191(9) 0.231(3)
H19A H -0.0646(15) 1.244(5) 0.1872(16)
O9 O -0.0247(3) 1.5005(8) 0.6735(4)
H20 H -0.014(2) 1.466(7) 0.650(2)
H21 H -0.0017(15) 1.557(5) 0.708(2)
loop_
_geom_bond_atom_site_label_1
_geom_bond_atom_site_label_2
_geom_bond_site_symmetry_1
_geom_bond_site_symmetry_2
Zn1 N1 1_555 1_555
Zn2 O2 1_555 1_555
C1 C2 1_555 1_555
C2 C3 1_555 1_555
C3 H1 1_555 1_555
C4 C2 1_555 1_555
H2 C4 1_555 1_555
C5 C4 1_555 1_555
H3 C5 1_555 1_555
C6 C3 1_555 1_555
H4 C6 1_555 1_555
C7 C5 1_555 1_555
C8 C7 1_555 1_555
H5 C8 1_555 1_555
C9 C8 1_555 1_555
H6 C9 1_555 1_555
C10 C9 1_555 1_555
C11 C10 1_555 1_555
H7 C11 1_555 1_555
C12 C10 1_555 1_555
H8 C12 1_555 1_555
C13 C12 1_555 1_555
H9 C13 1_555 1_555
C14 C11 1_555 1_555
H10 C14 1_555 1_555
C15 C13 1_555 1_555
C16 C15 1_555 1_555
C17 H11 1_555 1_555
C18 H12 1_555 1_555
C19 C18 1_555 1_555
H13 C19 1_555 1_555
C20 C17 1_555 1_555
H14 C20 1_555 1_555
C21 C19 1_555 1_555
N1 C17 1_555 1_555
O1 Zn1 1_555 1_555
O2 C1 1_555 1_555
O3 C16 1_555 1_555
O4 C16 1_555 1_555
O5 C9 1_555 1_555
H15 O5 1_555 1_555
O6 C8 1_555 1_555
H16 O6 1_555 1_555
O7 Zn1 1_555 1_555
H17 O7 1_555 1_555
O8 Zn2 1_555 1_555
H18 O8 1_555 1_555
H19 O8 1_555 1_555
O9 H20 1_555 1_555
H21 O9 1_555 1_555
Zn1A N1A 1_555 1_555
Zn1F O3 1_555 1_555
Zn1F_2 N1F 1_555 1_555
Zn1G O3A 1_555 1_555
C1A C2A 1_555 1_555
C2A C3A 1_555 1_555
C3A H1A 1_555 1_555
C4A C2A 1_555 1_555
H2A C4A 1_555 1_555
C5A C4A 1_555 1_555
H3A C5A 1_555 1_555
C6A C3A 1_555 1_555
H4A C6A 1_555 1_555
C7A C5A 1_555 1_555
C8A C7A 1_555 1_555
H5A C8A 1_555 1_555
C9A C8A 1_555 1_555
H6A C9A 1_555 1_555
C10A C9A 1_555 1_555
C11A C10A 1_555 1_555
H7A C11A 1_555 1_555
C12A C10A 1_555 1_555
H8A C12A 1_555 1_555
C13A C12A 1_555 1_555
H9A C13A 1_555 1_555
C14A C11A 1_555 1_555
H10A C14A 1_555 1_555
C15A C13A 1_555 1_555
C16A C15A 1_555 1_555
C17F H11F 1_555 1_555
C18F H12F 1_555 1_555
C19F C18F 1_555 1_555
H13F C19F 1_555 1_555
C20F C17F 1_555 1_555
H14F C20F 1_555 1_555
C21F C21 1_555 1_555
N1F C17F 1_555 1_555
O1A Zn1A 1_555 1_555
O2A Zn2 1_555 1_555
O3A C16A 1_555 1_555
O3F Zn1 1_555 1_555
O3G Zn1A 1_555 1_555
O4A C16A 1_555 1_555
O5A C9A 1_555 1_555
H15A O5A 1_555 1_555
O6A C8A 1_555 1_555
H16A O6A 1_555 1_555
O7A Zn2 1_555 1_555
H17A O7A 1_555 1_555
O8A Zn2 1_555 1_555
H18A O8A 1_555 1_555
H19A O8A 1_555 1_555
Zn2 O7 1_555 1_555
C1 O1 1_555 1_555
C6 C7 1_555 1_555
C14 C15 1_555 1_555
C18 N1 1_555 1_555
C20 C21 1_555 1_555
Zn1A O7A 1_555 1_555
C1A O1A 1_555 1_555
C1A O2A 1_555 1_555
C6A C7A 1_555 1_555
C14A C15A 1_555 1_555
C18F N1F 1_555 1_555
C19F C21F 1_555 1_555
C20F C21F 1_555 1_555

#END
