
#######################################################################
#
#                 Cambridge Crystallographic Data Centre
#                                CCDC 
#
#######################################################################
#
# If this CIF has been generated from an entry in the Cambridge 
# Structural Database, then it will include bibliographic, chemical, 
# crystal, experimental, refinement or atomic coordinate data resulting 
# from the CCDC's data processing and validation procedures.
#
#######################################################################

data_QUQGEP
_symmetry_cell_setting           rhombohedral
_symmetry_space_group_name_H-M   'R -3'
_symmetry_Int_Tables_number      148
_space_group_name_Hall           '-R 3'
loop_
_symmetry_equiv_pos_site_id
_symmetry_equiv_pos_as_xyz
1 x,y,z
2 -y,x-y,z
3 -x+y,-x,z
4 2/3+x,1/3+y,1/3+z
5 2/3-y,1/3+x-y,1/3+z
6 2/3-x+y,1/3-x,1/3+z
7 1/3+x,2/3+y,2/3+z
8 1/3-y,2/3+x-y,2/3+z
9 1/3-x+y,2/3-x,2/3+z
10 -x,-y,-z
11 y,-x+y,-z
12 x-y,x,-z
13 1/3-x,2/3-y,2/3-z
14 1/3+y,2/3-x+y,2/3-z
15 1/3+x-y,2/3+x,2/3-z
16 2/3-x,1/3-y,1/3-z
17 2/3+y,1/3-x+y,1/3-z
18 2/3+x-y,1/3+x,1/3-z
_cell_length_a                   27.414(4)
_cell_length_b                   27.414(4)
_cell_length_c                   11.908(2)
_cell_angle_alpha                90
_cell_angle_beta                 90
_cell_angle_gamma                120
_cell_volume                     7750.22
loop_
_atom_site_label
_atom_site_type_symbol
_atom_site_fract_x
_atom_site_fract_y
_atom_site_fract_z
Ni1 Ni 0.61726(2) 0.832503(19) 0.26455(4)
Ni2 Ni 0.85594(2) 1.10425(2) -0.14512(4)
N1 N 0.67367(15) 0.91300(16) 0.4318(3)
N2 N 0.80006(14) 1.07166(13) -0.0085(3)
N3 N 0.57665(13) 0.79720(13) 0.1167(3)
N4 N 0.51497(16) 0.73493(15) 0.3406(3)
C1 C 0.75321(17) 1.08580(17) 0.1469(3)
H1 H 0.7478 1.1106 0.1911
C2 C 0.77201(16) 1.01615(17) 0.0142(3)
H2 H 0.7785 0.9923 -0.0312
C3 C 0.73376(16) 0.99246(16) 0.1021(3)
C4 C 0.79022(17) 1.10532(17) 0.0581(3)
H3 H 0.8094 1.1437 0.0434
N5 N 0.69035(17) 0.96014(16) 0.4376(3)
N6 N 0.56272(14) 0.76046(14) 0.3677(3)
C5 C 0.72404(16) 1.02839(17) 0.1696(3)
H4 H 0.6985 1.0141 0.2287
C6 C 0.56789(17) 0.82741(17) 0.0393(3)
H5 H 0.5781 0.8645 0.0556
C7 C 0.56053(16) 0.74333(16) 0.0923(3)
H6 H 0.5647 0.7215 0.1472
N7 N 0.46828(19) 0.7098(2) 0.3136(5)
C8 C 0.53815(16) 0.71888(16) -0.0099(3)
C9 C 0.53002(17) 0.75073(17) -0.0904(3)
H7 H 0.5154 0.7356 -0.1605
C10 C 0.54400(18) 0.80522(17) -0.0647(3)
H8 H 0.5375 0.8269 -0.1162
O1 O 0.66796(11) 0.91092(11) 0.1988(2)
C11 C 0.70540(16) 0.93009(16) 0.1248(3)
O2 O 0.72212(11) 0.90227(12) 0.0680(2)
C12 C 0.52398(16) 0.65903(16) -0.0304(3)
O3 O 0.52674(11) 0.63245(11) 0.0522(2)
O4 O 0.51124(13) 0.64167(12) -0.1298(2)
N8 N 0.65529(13) 0.86118(13) 0.4247(3)
O6 O 0.91379(16) 1.08534(18) -0.0684(3)
H11 H 0.9476 1.0921 -0.0660
H12 H 0.9158 1.0577 -0.0412
Ni1Q Ni 0.451424(28) 0.95059(2) 0.06878(4)
Ni1P Ni 0.499170(19) 0.548576(28) 0.06878(4)
Ni1L Ni 0.71607(2) 0.834164(19) 0.40212(4)
Ni1L_2 Ni 0.71607(2) 0.834164(19) -0.59788(4)
Ni1A Ni 0.167497(19) 0.784757(28) 0.26455(4)
Ni1D Ni 0.834164(19) 1.118090(28) -0.40212(4)
Ni1J Ni 0.832503(19) 1.215243(28) -0.26455(4)
Ni1H Ni 0.548576(28) 1.04941(2) -0.06878(4)
Ni1B Ni 0.215243(28) 0.38274(2) 0.26455(4)
Ni1G Ni 0.500830(19) 0.451424(28) -0.06878(4)
Ni1D_2 Ni 0.834164(19) 1.118090(28) 0.59788(4)
Ni1H_2 Ni 0.548576(28) 1.04941(2) 0.93122(4)
Ni2H Ni 0.58164(3) 0.81073(2) 0.52155(4)
Ni2K Ni 0.75169(3) 0.85594(2) 0.14512(4)
Ni2L Ni 0.47739(2) 0.56242(2) -0.18821(4)
Ni2J Ni 1.10425(2) 1.24831(3) 0.14512(4)
Ni2Q Ni 0.41836(3) 1.18927(2) 0.47845(4)
Ni2M Ni 0.43758(2) 0.91498(3) -0.18821(4)
Ni2D Ni 0.56242(2) 1.08502(3) 0.18821(4)
Ni2G Ni 0.22908(2) 0.41836(3) 0.52155(4)
Ni2P Ni 0.77092(2) 0.58164(3) 0.47845(4)
Ni2C Ni 0.52261(2) 0.43758(2) 0.18821(4)
Ni2_2 Ni 0.85594(2) 1.10425(2) 0.85488(4)
Ni2L_2 Ni 0.47739(2) 0.56242(2) 0.81179(4)
Ni2M_2 Ni 0.43758(2) 0.91498(3) 0.81179(4)
Ni2K_2 Ni 0.75169(3) 0.85594(2) -0.85488(4)
N1L N 0.65966(15) 0.75367(16) 0.2349(3)
N1D N 0.75367(16) 1.09400(22) -0.2349(3)
N1Q N 0.42734(22) 1.00700(15) -0.0985(3)
N1H N 0.57266(22) 0.99300(15) 0.0985(3)
N1P N 0.57967(16) 0.57266(22) -0.0985(3)
N2J N 1.07166(13) 1.27160(19) 0.0085(3)
N2Q N 0.39507(19) 1.13339(14) 0.3418(3)
N2P N 0.73833(13) 0.60493(19) 0.3418(3)
N2L N 0.53327(14) 0.59501(13) 0.6752(3)
N2H N 0.60493(19) 0.86661(14) 0.6582(3)
N2K N 0.72840(19) 0.80006(14) 0.0085(3)
N2L_2 N 0.53327(14) 0.59501(13) -0.3248(3)
N3Q N 0.44612(18) 0.90998(13) 0.2166(3)
N3L N 0.75668(13) 0.86947(13) -0.4500(3)
N3A N 0.20280(13) 0.77945(18) 0.1167(3)
N3P N 0.46387(13) 0.55388(18) 0.2166(3)
N3L_2 N 0.75668(13) 0.86947(13) 0.5500(3)
N4D N 0.93174(15) 1.11337(22) -0.3261(3)
N4Q N 0.44671(22) 0.84830(16) -0.0073(3)
N4P N 0.40160(15) 0.55329(22) -0.0073(3)
N4L N 0.81836(16) 0.93174(15) 0.3261(3)
N4L_2 N 0.81836(16) 0.93174(15) -0.6739(3)
C1J C 1.08580(17) 1.33259(24) -0.1469(3)
C1Q C 0.33408(24) 1.08654(17) 0.1864(3)
C1P C 0.75247(17) 0.66592(24) 0.1864(3)
C1L C 0.58012(17) 0.58087(17) 0.5198(3)
C1H C 0.66592(24) 0.91346(17) 0.8136(3)
H1J H 1.1106 1.3628 -0.1911
H1Q H 0.3039 1.0811 0.1422
H1P H 0.7773 0.6961 0.1422
H1L H 0.5855 0.5561 0.4756
H1H H 0.6961 0.9189 0.8578
C2J C 1.01615(17) 1.24414(23) -0.0142(3)
C2Q C 0.42253(23) 1.10534(16) 0.3191(3)
C2P C 0.68282(17) 0.57747(23) 0.3191(3)
C2L C 0.56132(16) 0.65052(17) 0.6525(3)
C2H C 0.57747(23) 0.89466(16) 0.6809(3)
H2J H 0.9923 1.2138 0.0312
H2Q H 0.4529 1.1118 0.3645
H2P H 0.6590 0.5471 0.3645
H2L H 0.5548 0.6744 0.6979
H2H H 0.5471 0.8882 0.6355
C3J C 0.99246(16) 1.25870(23) -0.1021(3)
C3Q C 0.40797(23) 1.06709(16) 0.2312(3)
C3P C 0.65913(16) 0.59203(23) 0.2312(3)
C3L C 0.59957(16) 0.67421(16) 0.5646(3)
C3H C 0.59203(23) 0.93291(16) 0.7688(3)
C4J C 1.10532(17) 1.31510(24) -0.0581(3)
C4Q C 0.35157(24) 1.12355(17) 0.2752(3)
C4P C 0.77199(17) 0.64843(24) 0.2752(3)
C4L C 0.54311(17) 0.56135(17) 0.6086(3)
C4H C 0.64843(24) 0.87645(17) 0.7248(3)
H3J H 1.1437 1.3343 -0.0434
H3Q H 0.3324 1.1427 0.2899
H3P H 0.8104 0.6676 0.2899
H3L H 0.5239 0.5230 0.6233
H3H H 0.6676 0.8573 0.7101
N5L N 0.64298(17) 0.70653(16) 0.2291(3)
N5D N 0.70653(16) 1.06354(23) -0.2291(3)
N5Q N 0.39688(23) 1.02368(17) -0.1043(3)
N5H N 0.60312(23) 0.97632(17) 0.1043(3)
N5P N 0.62681(16) 0.60312(23) -0.1043(3)
N6D N 0.90621(14) 1.13559(20) -0.2990(3)
N6Q N 0.46893(20) 0.89605(14) -0.0344(3)
N6P N 0.42713(14) 0.53107(20) -0.0344(3)
N6L N 0.77061(14) 0.90621(14) 0.2990(3)
N6L_2 N 0.77061(14) 0.90621(14) -0.7010(3)
N6A N 0.23954(14) 0.80226(20) 0.3677(3)
N6N N 1.13559(20) 1.22939(14) 0.2990(3)
N6I N 0.43728(14) 1.23954(14) 0.6323(3)
C5J C 1.02839(17) 1.30435(23) -0.1696(3)
C5Q C 0.36232(23) 1.05737(16) 0.1637(3)
C5P C 0.69506(17) 0.63768(23) 0.1637(3)
C5L C 0.60929(16) 0.63828(17) 0.4971(3)
C5H C 0.63768(23) 0.94263(16) 0.8363(3)
H4J H 1.0141 1.3156 -0.2287
H4Q H 0.3511 1.0318 0.1046
H4P H 0.6808 0.6489 0.1046
H4L H 0.6348 0.6526 0.4380
H4H H 0.6489 0.9682 0.8954
C6Q C 0.40715(24) 0.90122(17) 0.2940(3)
C6L C 0.76544(17) 0.83926(17) -0.3726(3)
C6A C 0.17259(17) 0.74048(24) 0.0393(3)
C6P C 0.49408(17) 0.59285(24) 0.2940(3)
C6L_2 C 0.76544(17) 0.83926(17) 0.6274(3)
H5Q H 0.3803 0.9114 0.2777
H5L H 0.7552 0.8022 -0.3889
H5A H 0.1355 0.7136 0.0556
H5P H 0.5312 0.6197 0.2777
H5L_2 H 0.7552 0.8022 0.6111
C7Q C 0.48387(23) 0.89386(16) 0.2410(3)
C7L C 0.77280(16) 0.92334(16) -0.4256(3)
C7A C 0.25667(16) 0.81720(23) 0.0923(3)
C7P C 0.41000(16) 0.51613(23) 0.2410(3)
C7L_2 C 0.77280(16) 0.92334(16) 0.5744(3)
H6Q H 0.5099 0.8980 0.1861
H6L H 0.7686 0.9452 -0.4805
H6A H 0.2785 0.8432 0.1472
H6P H 0.3882 0.4901 0.1861
H6L_2 H 0.7686 0.9452 0.5195
N7D N 0.9569(2) 1.09181(28) -0.3531(5)
N7Q N 0.42515(28) 0.80161(19) 0.0197(5)
N7P N 0.3765(2) 0.57485(28) 0.0197(5)
N7L N 0.86505(19) 0.9569(2) 0.3531(5)
N7L_2 N 0.86505(19) 0.9569(2) -0.6469(5)
C8Q C 0.48594(23) 0.87148(16) 0.3432(3)
C8L C 0.79518(16) 0.94779(16) -0.3234(3)
C8A C 0.28112(16) 0.81927(23) -0.0099(3)
C8P C 0.38555(16) 0.51406(23) 0.3432(3)
C8L_2 C 0.79518(16) 0.94779(16) 0.6766(3)
C9Q C 0.44596(24) 0.86335(17) 0.4237(3)
C9L C 0.80331(17) 0.91594(17) -0.2429(3)
C9A C 0.24927(17) 0.77929(24) -0.0904(3)
C9P C 0.41740(17) 0.55404(24) 0.4237(3)
C9L_2 C 0.80331(17) 0.91594(17) 0.7571(3)
H7Q H 0.4465 0.8487 0.4938
H7L H 0.8179 0.9311 -0.1728
H7A H 0.2644 0.7798 -0.1605
H7P H 0.4023 0.5535 0.4938
H7L_2 H 0.8179 0.9311 0.8272
C10Q C 0.40545(25) 0.87733(18) 0.3980(3)
C10L C 0.78933(18) 0.86145(17) -0.2686(3)
C10A C 0.19478(17) 0.73878(25) -0.0647(3)
C10P C 0.47189(17) 0.59455(25) 0.3980(3)
C10L_2 C 0.78933(18) 0.86145(17) 0.7314(3)
H8Q H 0.3773 0.8708 0.4495
H8L H 0.7958 0.8398 -0.2171
H8A H 0.1731 0.7106 -0.1162
H8P H 0.4936 0.6227 0.4495
H8L_2 H 0.7958 0.8398 0.7829
O1J O 0.91092(11) 1.24296(16) -0.1988(2)
O1Q O 0.42371(16) 1.00129(11) 0.1345(2)
O1P O 0.57759(11) 0.57629(16) 0.1345(2)
O1L O 0.66537(11) 0.75575(11) 0.4679(2)
O1H O 0.57629(16) 0.99871(11) 0.8655(2)
O1L_2 O 0.66537(11) 0.75575(11) -0.5321(2)
O1A O 0.08908(11) 0.75704(16) 0.1988(2)
C11J C 0.93009(16) 1.22469(23) -0.1248(3)
C11Q C 0.44198(23) 1.03873(16) 0.2085(3)
C11P C 0.59676(16) 0.55802(23) 0.2085(3)
C11L C 0.62793(16) 0.73658(16) 0.5419(3)
C11H C 0.55802(23) 0.96127(16) 0.7915(3)
O2J O 0.90227(12) 1.18015(16) -0.0680(2)
O2Q O 0.48652(16) 1.05545(11) 0.2653(2)
O2P O 0.56894(12) 0.51348(16) 0.2653(2)
O2L O 0.61121(11) 0.76440(12) 0.5987(2)
O2H O 0.51348(16) 0.94455(11) 0.7347(2)
O2G O 0.43106(12) 0.48652(16) -0.2653(2)
O2B O 1.18015(16) 1.27788(11) 0.0680(2)
O2C O 0.38879(11) 1.23560(12) 0.4013(2)
C12Q C 0.53162(23) 0.85731(16) 0.3637(3)
C12L C 0.80935(16) 1.00764(16) -0.3029(3)
C12A C 0.34097(16) 0.86495(23) -0.0304(3)
C12P C 0.32570(16) 0.46838(23) 0.3637(3)
C12L_2 C 0.80935(16) 1.00764(16) 0.6971(3)
O3Q O 0.56096(16) 0.86007(11) 0.2811(2)
O3L O 0.80659(11) 1.03422(11) -0.3855(2)
O3A O 0.36755(11) 0.89429(16) 0.0522(2)
O3P O 0.29912(11) 0.43904(16) 0.2811(2)
O3L_2 O 0.80659(11) 1.03422(11) 0.6145(2)
O3E O 0.77238(16) 0.80659(11) 0.3855(2)
O3E_2 O 0.77238(16) 0.80659(11) -0.6145(2)
O3O O 0.13993(11) 0.70088(11) 0.2811(2)
O4Q O 0.53624(18) 0.84457(13) 0.4631(2)
O4L O 0.82209(13) 1.02500(12) -0.2035(2)
O4A O 0.35833(12) 0.86957(18) -0.1298(2)
O4P O 0.30834(12) 0.46376(18) 0.4631(2)
O4L_2 O 0.82209(13) 1.02500(12) 0.7965(2)
O4E O 0.79710(18) 0.82209(13) 0.2035(2)
O4D O 1.02500(12) 1.20290(18) 0.2035(2)
O4H O 0.46376(18) 1.15543(13) 0.5369(2)
N8L N 0.67804(13) 0.80549(13) 0.2420(3)
N8D N 0.80549(13) 1.12744(18) -0.2420(3)
N8Q N 0.46078(18) 0.98862(13) -0.0914(3)
N8H N 0.53922(18) 1.01138(13) 0.0914(3)
N8P N 0.52785(13) 0.53922(18) -0.0914(3)
N8G N 0.47215(13) 0.46078(18) 0.0914(3)
N8L_2 N 0.67804(13) 0.80549(13) -0.7580(3)
N8_2 N 0.65529(13) 0.86118(13) -0.5753(3)
N8A N 0.13882(13) 0.79411(18) 0.4247(3)
N8M N 0.19451(13) 0.87256(18) 0.2420(3)
N8N N 1.12744(18) 1.32196(13) 0.2420(3)
N8I N 0.34471(13) 1.13882(13) 0.5753(3)
O6H O 0.50488(24) 0.75288(16) 0.5983(3)
O6K O 0.82845(24) 0.91379(16) 0.0684(3)
O6L O 0.41954(16) 0.58133(18) -0.2649(3)
O6J O 1.08534(18) 1.17155(24) 0.0684(3)
O6Q O 0.49512(24) 1.24712(16) 0.4017(3)
H11H H 0.4778 0.7191 0.6007
H11K H 0.8555 0.9476 0.0660
H11L H 0.3857 0.5746 -0.2673
H11J H 1.0921 1.1445 0.0660
H11Q H 0.5222 1.2809 0.3993
H12H H 0.4752 0.7509 0.6255
H12K H 0.8581 0.9158 0.0412
H12L H 0.4175 0.6090 -0.2921
H12J H 1.0577 1.1419 0.0412
H12Q H 0.5248 1.2491 0.3745
Ni3 Ni 0.3333 0.6667 0.1667
O5 O 0.3801(3) 0.7389(3) 0.2537(7)
H9 H 0.3490 0.7377 0.2912
H10 H 0.3793 0.7391 0.3250
O5A O 0.2611(3) 0.6412(4) 0.2537(7)
O5B O 0.3588(4) 0.6199(3) 0.2537(7)
O5O O 0.2866(3) 0.5944(3) 0.0796(7)
O5P O 0.4056(3) 0.6921(4) 0.0796(7)
O5Q O 0.3079(4) 0.7134(3) 0.0796(7)
H9A H 0.2623 0.6113 0.2912
H9B H 0.3887 0.6510 0.2912
H9O H 0.3177 0.5956 0.0421
H9P H 0.4044 0.7220 0.0421
H9Q H 0.2780 0.6823 0.0421
H10A H 0.2609 0.6402 0.3250
H10B H 0.3598 0.6207 0.3250
H10O H 0.2874 0.5942 0.0083
H10P H 0.4058 0.6931 0.0083
H10Q H 0.3069 0.7126 0.0083
O7 O 0.3959(7) 0.7244(9) 0.4949(18)
H13 H 0.3917 0.6915 0.4930
loop_
_geom_bond_atom_site_label_1
_geom_bond_atom_site_label_2
_geom_bond_site_symmetry_1
_geom_bond_site_symmetry_2
Ni1 N3 1_555 1_555
Ni2 N2 1_555 1_555
N1 N5 1_555 1_555
N2 C2 1_555 1_555
N3 C6 1_555 1_555
N4 N6 1_555 1_555
C1 H1 1_555 1_555
C2 H2 1_555 1_555
C3 C2 1_555 1_555
C4 N2 1_555 1_555
H3 C4 1_555 1_555
N6 Ni1 1_555 1_555
C5 C1 1_555 1_555
H4 C5 1_555 1_555
C6 H5 1_555 1_555
C7 N3 1_555 1_555
H6 C7 1_555 1_555
N7 N4 1_555 1_555
C8 C7 1_555 1_555
C9 C8 1_555 1_555
H7 C9 1_555 1_555
C10 C6 1_555 1_555
H8 C10 1_555 1_555
O1 Ni1 1_555 1_555
C11 C3 1_555 1_555
O2 C11 1_555 1_555
C12 C8 1_555 1_555
O3 C12 1_555 1_555
O4 C12 1_555 1_555
Ni3 O5 1_555 1_555
O5 H9 1_555 1_555
H10 O5 1_555 1_555
N8 Ni1 1_555 1_555
O6 Ni2 1_555 1_555
H11 O6 1_555 1_555
H12 O6 1_555 1_555
O7 H13 1_555 1_555
Ni1Q N3Q 1_555 1_555
Ni1P O3 1_555 1_555
Ni1L N8 1_555 1_555
Ni1L_2 N3L 1_555 1_555
Ni1A N3A 1_555 1_555
Ni1D N6D 1_555 1_555
Ni1J O1J 1_555 1_555
Ni1H N8Q 1_555 1_555
Ni1B O3P 1_555 1_555
Ni1G N8P 1_555 1_555
Ni1D_2 O3L_2 1_555 1_555
Ni1H_2 O1H 1_555 1_555
Ni2H N6 1_555 1_555
Ni2K O2 1_555 1_555
Ni2L O4 1_555 1_555
Ni2J N2J 1_555 1_555
Ni2Q N2Q 1_555 1_555
Ni2M N6Q 1_555 1_555
Ni2D O2Q 1_555 1_555
Ni2G O4P 1_555 1_555
Ni2P N2P 1_555 1_555
Ni2C O2P 1_555 1_555
Ni2_2 O4L_2 1_555 1_555
Ni2L_2 N2L 1_555 1_555
Ni2M_2 O2H 1_555 1_555
Ni2K_2 N6L_2 1_555 1_555
N1L N5L 1_555 1_555
N1D N5D 1_555 1_555
N1Q N5Q 1_555 1_555
N1H N5H 1_555 1_555
N1P N5P 1_555 1_555
N2J C2J 1_555 1_555
N2Q C2Q 1_555 1_555
N2P C2P 1_555 1_555
N2L C2L 1_555 1_555
N2H Ni2H 1_555 1_555
N2K Ni2K 1_555 1_555
N2L_2 Ni2L 1_555 1_555
N3Q C6Q 1_555 1_555
N3L C6L 1_555 1_555
N3A C6A 1_555 1_555
N3P Ni1P 1_555 1_555
N3L_2 Ni1L 1_555 1_555
N4D N6D 1_555 1_555
N4Q N6Q 1_555 1_555
N4P N6P 1_555 1_555
N4L N6L 1_555 1_555
N4L_2 N6L_2 1_555 1_555
C1J H1J 1_555 1_555
C1Q H1Q 1_555 1_555
C1P H1P 1_555 1_555
C1L H1L 1_555 1_555
C1H H1H 1_555 1_555
C2J H2J 1_555 1_555
C2Q H2Q 1_555 1_555
C2P H2P 1_555 1_555
C2L H2L 1_555 1_555
C2H N2H 1_555 1_555
H2H C2H 1_555 1_555
C3J C2J 1_555 1_555
C3Q C2Q 1_555 1_555
C3P C2P 1_555 1_555
C3L C2L 1_555 1_555
C3H C2H 1_555 1_555
C4J N2J 1_555 1_555
C4Q N2Q 1_555 1_555
C4P N2P 1_555 1_555
C4L N2L 1_555 1_555
C4H N2H 1_555 1_555
H3J C4J 1_555 1_555
H3Q C4Q 1_555 1_555
H3P C4P 1_555 1_555
H3L C4L 1_555 1_555
H3H C4H 1_555 1_555
N6D Ni2 1_555 1_555
N6Q Ni1Q 1_555 1_555
N6P Ni1P 1_555 1_555
N6L Ni1L 1_555 1_555
N6L_2 Ni1L_2 1_555 1_555
N6A Ni1A 1_555 1_555
N6N Ni2J 1_555 1_555
N6I Ni2Q 1_555 1_555
C5J C1J 1_555 1_555
C5Q C1Q 1_555 1_555
C5P C1P 1_555 1_555
C5L C1L 1_555 1_555
C5H C1H 1_555 1_555
H4J C5J 1_555 1_555
H4Q C5Q 1_555 1_555
H4P C5P 1_555 1_555
H4L C5L 1_555 1_555
H4H C5H 1_555 1_555
C6Q H5Q 1_555 1_555
C6L H5L 1_555 1_555
C6A H5A 1_555 1_555
C6P N3P 1_555 1_555
C6L_2 N3L_2 1_555 1_555
H5P C6P 1_555 1_555
H5L_2 C6L_2 1_555 1_555
C7Q N3Q 1_555 1_555
C7L N3L 1_555 1_555
C7A N3A 1_555 1_555
C7P N3P 1_555 1_555
C7L_2 N3L_2 1_555 1_555
H6Q C7Q 1_555 1_555
H6L C7L 1_555 1_555
H6A C7A 1_555 1_555
H6P C7P 1_555 1_555
H6L_2 C7L_2 1_555 1_555
N7D N4D 1_555 1_555
N7Q N4Q 1_555 1_555
N7P N4P 1_555 1_555
N7L N4L 1_555 1_555
N7L_2 N4L_2 1_555 1_555
C8Q C7Q 1_555 1_555
C8L C7L 1_555 1_555
C8A C7A 1_555 1_555
C8P C7P 1_555 1_555
C8L_2 C7L_2 1_555 1_555
C9Q C8Q 1_555 1_555
C9L C8L 1_555 1_555
C9A C8A 1_555 1_555
C9P C8P 1_555 1_555
C9L_2 C8L_2 1_555 1_555
H7Q C9Q 1_555 1_555
H7L C9L 1_555 1_555
H7A C9A 1_555 1_555
H7P C9P 1_555 1_555
H7L_2 C9L_2 1_555 1_555
C10Q C6Q 1_555 1_555
C10L C6L 1_555 1_555
C10A C6A 1_555 1_555
C10P C6P 1_555 1_555
C10L_2 C6L_2 1_555 1_555
H8Q C10Q 1_555 1_555
H8L C10L 1_555 1_555
H8A C10A 1_555 1_555
H8P C10P 1_555 1_555
H8L_2 C10L_2 1_555 1_555
O1J C11J 1_555 1_555
O1Q Ni1Q 1_555 1_555
O1P Ni1P 1_555 1_555
O1L Ni1L 1_555 1_555
O1H C11H 1_555 1_555
O1L_2 Ni1L_2 1_555 1_555
O1A Ni1A 1_555 1_555
C11J C3J 1_555 1_555
C11Q C3Q 1_555 1_555
C11P C3P 1_555 1_555
C11L C3L 1_555 1_555
C11H C3H 1_555 1_555
O2J Ni2 1_555 1_555
O2Q C11Q 1_555 1_555
O2P C11P 1_555 1_555
O2L Ni2H 1_555 1_555
O2H C11H 1_555 1_555
O2G Ni2L 1_555 1_555
O2B Ni2J 1_555 1_555
O2C Ni2Q 1_555 1_555
C12Q C8Q 1_555 1_555
C12L C8L 1_555 1_555
C12A C8A 1_555 1_555
C12P C8P 1_555 1_555
C12L_2 C8L_2 1_555 1_555
O3Q Ni1 1_555 1_555
O3L Ni1D 1_555 1_555
O3A Ni1Q 1_555 1_555
O3P C12P 1_555 1_555
O3L_2 C12L_2 1_555 1_555
O3E Ni1L 1_555 1_555
O3E_2 Ni1L_2 1_555 1_555
O3O Ni1A 1_555 1_555
O4Q Ni2H 1_555 1_555
O4L Ni2 1_555 1_555
O4A Ni2M 1_555 1_555
O4P C12P 1_555 1_555
O4L_2 C12L_2 1_555 1_555
O4E Ni2K 1_555 1_555
O4D Ni2J 1_555 1_555
O4H Ni2Q 1_555 1_555
O5A Ni3 1_555 1_555
O5B Ni3 1_555 1_555
O5O Ni3 1_555 1_555
O5P Ni3 1_555 1_555
O5Q Ni3 1_555 1_555
H9A O5A 1_555 1_555
H9B O5B 1_555 1_555
H9O O5O 1_555 1_555
H9P O5P 1_555 1_555
H9Q O5Q 1_555 1_555
H10A O5A 1_555 1_555
H10B O5B 1_555 1_555
H10O O5O 1_555 1_555
H10P O5P 1_555 1_555
H10Q O5Q 1_555 1_555
N8L Ni1 1_555 1_555
N8D Ni2 1_555 1_555
N8Q Ni1Q 1_555 1_555
N8H Ni1Q 1_555 1_555
N8P Ni1P 1_555 1_555
N8G Ni1P 1_555 1_555
N8L_2 Ni1L_2 1_555 1_555
N8_2 Ni1L_2 1_555 1_555
N8A Ni1A 1_555 1_555
N8M Ni1A 1_555 1_555
N8N Ni2J 1_555 1_555
N8I Ni2Q 1_555 1_555
O6H Ni2H 1_555 1_555
O6K Ni2K 1_555 1_555
O6L Ni2L 1_555 1_555
O6J Ni2J 1_555 1_555
O6Q Ni2Q 1_555 1_555
H11H O6H 1_555 1_555
H11K O6K 1_555 1_555
H11L O6L 1_555 1_555
H11J O6J 1_555 1_555
H11Q O6Q 1_555 1_555
H12H O6H 1_555 1_555
H12K O6K 1_555 1_555
H12L O6L 1_555 1_555
H12J O6J 1_555 1_555
H12Q O6Q 1_555 1_555
N1 N8 1_555 1_555
C1 C4 1_555 1_555
C3 C5 1_555 1_555
C9 C10 1_555 1_555
O1 C11 1_555 1_555
N8 Ni2H 1_555 1_555
Ni1L N8L 1_555 1_555
Ni1D N8D 1_555 1_555
Ni1J N8D 1_555 1_555
Ni1H N8H 1_555 1_555
Ni1G N8G 1_555 1_555
Ni2K N6L 1_555 1_555
Ni2K N8L 1_555 1_555
Ni2L N6P 1_555 1_555
Ni2L N8P 1_555 1_555
Ni2M N8Q 1_555 1_555
Ni2D N8H 1_555 1_555
Ni2C N8G 1_555 1_555
Ni2K_2 N8L_2 1_555 1_555
N1L N8L 1_555 1_555
N1D N8D 1_555 1_555
N1Q N8Q 1_555 1_555
N1H N8H 1_555 1_555
N1P N8P 1_555 1_555
C1J C4J 1_555 1_555
C1Q C4Q 1_555 1_555
C1P C4P 1_555 1_555
C1L C4L 1_555 1_555
C1H C4H 1_555 1_555
C3J C5J 1_555 1_555
C3Q C5Q 1_555 1_555
C3P C5P 1_555 1_555
C3L C5L 1_555 1_555
C3H C5H 1_555 1_555
C9Q C10Q 1_555 1_555
C9L C10L 1_555 1_555
C9A C10A 1_555 1_555
C9P C10P 1_555 1_555
C9L_2 C10L_2 1_555 1_555
O1Q C11Q 1_555 1_555
O1P C11P 1_555 1_555
O1L C11L 1_555 1_555
C11J O2J 1_555 1_555
C11L O2L 1_555 1_555
C12Q O3Q 1_555 1_555
C12Q O4Q 1_555 1_555
C12L O3L 1_555 1_555
C12L O4L 1_555 1_555
C12A O3A 1_555 1_555
C12A O4A 1_555 1_555

#END
