
#######################################################################
#
#                 Cambridge Crystallographic Data Centre
#                                CCDC 
#
#######################################################################
#
# If this CIF has been generated from an entry in the Cambridge 
# Structural Database, then it will include bibliographic, chemical, 
# crystal, experimental, refinement or atomic coordinate data resulting 
# from the CCDC's data processing and validation procedures.
#
#######################################################################

data_QUQJES
_symmetry_cell_setting           monoclinic
_symmetry_space_group_name_H-M   'C 2/m'
_symmetry_Int_Tables_number      12
_space_group_name_Hall           '-C 2y'
loop_
_symmetry_equiv_pos_site_id
_symmetry_equiv_pos_as_xyz
1 x,y,z
2 -x,y,-z
3 1/2+x,1/2+y,z
4 1/2-x,1/2+y,-z
5 -x,-y,-z
6 x,-y,z
7 1/2-x,1/2-y,-z
8 1/2+x,1/2-y,z
_cell_length_a                   10.9748(3)
_cell_length_b                   7.47768(19)
_cell_length_c                   5.88895(16)
_cell_angle_alpha                90
_cell_angle_beta                 94.9325(8)
_cell_angle_gamma                90
_cell_volume                     481.493
loop_
_atom_site_label
_atom_site_type_symbol
_atom_site_fract_x
_atom_site_fract_y
_atom_site_fract_z
Mn1 Mn 0.00000 0.50000 0.00000
Se1 Se 0.22142(9) 0.50000 0.2780(2)
C1 C 0.1567(7) 0.50000 0.5421(13)
N1 N 0.1103(6) 0.50000 0.7122(11)
N2 N 0.00000 0.1825(4) 0.00000
C2 C 0.0475(3) 0.0958(5) 0.1865(6)
Mn1_2 Mn 0.00000 -0.50000 0.00000
Mn1_3 Mn 0.00000 0.50000 -1.00000
Mn1_4 Mn 0.00000 0.50000 1.00000
Se1A Se -0.22142(9) 0.50000 -0.2780(2)
C1A C -0.1567(7) 0.50000 -0.5421(13)
N1A N -0.1103(6) 0.50000 -0.7122(11)
N1_2 N 0.1103(6) 0.50000 -0.2878(11)
N1A_2 N -0.1103(6) 0.50000 0.2878(11)
N2D N 0.00000 -0.1825(4) 0.00000
N2D_2 N 0.00000 0.8175(4) 0.00000
C2A C -0.0475(3) 0.0958(5) -0.1865(6)
C2D C -0.0475(3) -0.0958(5) -0.1865(6)
C2E C 0.0475(3) -0.0958(5) 0.1865(6)
loop_
_geom_bond_atom_site_label_1
_geom_bond_atom_site_label_2
_geom_bond_site_symmetry_1
_geom_bond_site_symmetry_2
Mn1 Se1 1_555 1_555
Se1 C1 1_555 1_555
C1 N1 1_555 1_555
N1 Mn1_4 1_555 1_555
N2 Mn1 1_555 1_555
C2 N2 1_555 1_555
Mn1_2 N2D 1_555 1_555
Mn1_3 N1A 1_555 1_555
Se1A Mn1 1_555 1_555
C1A Se1A 1_555 1_555
N1A C1A 1_555 1_555
N1_2 Mn1 1_555 1_555
N1A_2 Mn1 1_555 1_555
N2D C2D 1_555 1_555
N2D_2 Mn1 1_555 1_555
C2A N2 1_555 1_555
C2D C2A 1_555 1_555
C2E C2 1_555 1_555
N2D C2E 1_555 1_555

#END
