
#######################################################################
#
#                 Cambridge Crystallographic Data Centre
#                                CCDC 
#
#######################################################################
#
# If this CIF has been generated from an entry in the Cambridge 
# Structural Database, then it will include bibliographic, chemical, 
# crystal, experimental, refinement or atomic coordinate data resulting 
# from the CCDC's data processing and validation procedures.
#
#######################################################################

data_QUQJAO
_symmetry_cell_setting           monoclinic
_symmetry_space_group_name_H-M   'C 2/m'
_symmetry_Int_Tables_number      12
_space_group_name_Hall           '-C 2y'
loop_
_symmetry_equiv_pos_site_id
_symmetry_equiv_pos_as_xyz
1 x,y,z
2 -x,y,-z
3 1/2+x,1/2+y,z
4 1/2-x,1/2+y,-z
5 -x,-y,-z
6 x,-y,z
7 1/2-x,1/2-y,-z
8 1/2+x,1/2-y,z
_cell_length_a                   10.4442(10)
_cell_length_b                   10.5411(9)
_cell_length_c                   7.2533(7)
_cell_angle_alpha                90
_cell_angle_beta                 117.571(7)
_cell_angle_gamma                90
_cell_volume                     707.856
loop_
_atom_site_label
_atom_site_type_symbol
_atom_site_fract_x
_atom_site_fract_y
_atom_site_fract_z
Mn1 Mn 0.0000 0.0000 0.5000
Se1 Se 0.36521(7) 0.0000 1.23749(10)
C1 C 0.2057(5) 0.0000 0.9968(8)
N1 N 0.1060(4) 0.0000 0.8346(7)
N2 N 0.1577(3) 0.1563(3) 0.5068(5)
C2 C 0.2877(4) 0.1767(4) 0.6651(6)
H1 H 0.3184 0.1271 0.7841
C3 C 0.1211(4) 0.2300(4) 0.3422(6)
H2 H 0.0311 0.2189 0.2275
Mn1B Mn 0.5000 0.5000 0.5000
Mn1B_2 Mn -0.5000 0.5000 0.5000
Se1A Se -0.36521(7) 0.0000 -0.23749(10)
C1A C -0.2057(5) 0.0000 0.0032(8)
N1A N -0.1060(4) 0.0000 0.1654(7)
N2F N 0.3423(3) 0.3437(3) 0.4932(5)
N2A N -0.1577(3) 0.1563(3) 0.4932(5)
N2G N -0.3423(3) 0.3437(3) 0.5068(5)
N2D N -0.1577(3) -0.1563(3) 0.4932(5)
N2E N 0.1577(3) -0.1563(3) 0.5068(5)
C2F C 0.2123(4) 0.3233(4) 0.3349(6)
C2A C -0.2877(4) 0.1767(4) 0.3349(6)
C2G C -0.2123(4) 0.3233(4) 0.6651(6)
H1F H 0.1816 0.3729 0.2159
H1A H -0.3184 0.1271 0.2159
H1G H -0.1816 0.3729 0.7841
C3F C 0.3789(4) 0.2700(4) 0.6578(6)
C3A C -0.1211(4) 0.2300(4) 0.6578(6)
C3G C -0.3789(4) 0.2700(4) 0.3422(6)
H2F H 0.4689 0.2811 0.7725
H2A H -0.0311 0.2189 0.7725
H2G H -0.4689 0.2811 0.2275
loop_
_geom_bond_atom_site_label_1
_geom_bond_atom_site_label_2
_geom_bond_site_symmetry_1
_geom_bond_site_symmetry_2
Mn1 N1 1_555 1_555
Se1 C1 1_555 1_555
C1 N1 1_555 1_555
N2 Mn1 1_555 1_555
C2 N2 1_555 1_555
H1 C2 1_555 1_555
C3 N2 1_555 1_555
H2 C3 1_555 1_555
Mn1B N2F 1_555 1_555
Mn1B_2 N2G 1_555 1_555
Se1A C1A 1_555 1_555
C1A N1A 1_555 1_555
N1A Mn1 1_555 1_555
N2F C2F 1_555 1_555
N2A Mn1 1_555 1_555
N2G C2G 1_555 1_555
N2D Mn1 1_555 1_555
N2E Mn1 1_555 1_555
C2F C3 1_555 1_555
C2A N2A 1_555 1_555
C2G H1G 1_555 1_555
H1F C2F 1_555 1_555
H1A C2A 1_555 1_555
C3F C2 1_555 1_555
C3A N2A 1_555 1_555
C3G N2G 1_555 1_555
H2F C3F 1_555 1_555
H2A C3A 1_555 1_555
H2G C3G 1_555 1_555
N2F C3F 1_555 1_555
C2A C3G 1_555 1_555
C2G C3A 1_555 1_555

#END
