
#######################################################################
#
#                 Cambridge Crystallographic Data Centre
#                                CCDC 
#
#######################################################################
#
# If this CIF has been generated from an entry in the Cambridge 
# Structural Database, then it will include bibliographic, chemical, 
# crystal, experimental, refinement or atomic coordinate data resulting 
# from the CCDC's data processing and validation procedures.
#
#######################################################################

data_QUQPUO
_symmetry_cell_setting           monoclinic
_symmetry_space_group_name_H-M   'P 21/n'
_symmetry_Int_Tables_number      14
_space_group_name_Hall           '-P 2yn'
loop_
_symmetry_equiv_pos_site_id
_symmetry_equiv_pos_as_xyz
1 x,y,z
2 1/2-x,1/2+y,1/2-z
3 -x,-y,-z
4 1/2+x,1/2-y,1/2+z
_cell_length_a                   7.8366(1)
_cell_length_b                   17.4153(2)
_cell_length_c                   14.7632(2)
_cell_angle_alpha                90
_cell_angle_beta                 95.439(1)
_cell_angle_gamma                90
_cell_volume                     2005.76
loop_
_atom_site_label
_atom_site_type_symbol
_atom_site_fract_x
_atom_site_fract_y
_atom_site_fract_z
H1 H 0.276(3) 0.6950(15) 0.6846(17)
O3 O 0.2024(2) 0.62280(9) 0.77147(11)
N6 N 0.3445(2) 0.59179(10) 0.64972(12)
C19 C 0.2711(3) 0.64084(12) 0.70237(17)
C20 C 0.4206(3) 0.61665(14) 0.56795(15)
H14 H 0.3997 0.6705 0.5584
H15 H 0.3702 0.5883 0.5164
H16 H 0.5419 0.6075 0.5754
C21 C 0.3451(3) 0.51047(13) 0.67118(18)
H17 H 0.3742 0.5036 0.7353
H18 H 0.4281 0.4847 0.6382
H19 H 0.2335 0.4893 0.6543
H2 H -0.088(4) 0.298(2) 0.185(2)
Zn1 Zn 0.21416(3) 0.246967(12) 0.237333(15)
O1 O -0.0342(2) 0.26185(8) 0.16166(10)
N1 N 0.3352(2) 0.26556(9) 0.11932(11)
N2 N 0.2180(2) 0.36725(9) 0.26248(11)
O2 O 0.4531(2) 0.23090(8) 0.31609(10)
C1 C 0.0889(3) 0.49841(9) 0.42068(13)
N3 N 0.4728(2) 0.16854(9) 0.36835(11)
N4 N 0.2980(2) 0.62603(9) 0.28864(10)
N5 N 0.5748(3) 0.26920(9) -0.14728(11)
C2 C 0.1813(3) 0.49734(9) 0.33814(12)
C3 C 0.5208(3) 0.29590(10) -0.08387(12)
C4 C 0.4807(3) 0.41910(11) -0.00519(12)
C5 C 0.3935(3) 0.29444(10) 0.05887(12)
C6 C 0.5376(3) 0.46144(11) -0.07708(12)
H3 H 0.5636 0.4359 -0.1293
C7 C 0.2473(3) 0.56596(10) 0.30747(12)
C8 C 0.0490(3) 0.43058(10) 0.46499(12)
H4 H 0.0809 0.3836 0.4418
C9 C 0.4977(3) 0.03582(11) 0.47307(13)
C10 C 0.2047(3) 0.42785(10) 0.29334(12)
C11 C 0.4629(3) 0.33499(11) -0.01046(12)
C12 C 0.5563(3) 0.03812(12) 0.38644(14)
H5 H 0.6044 -0.0054 0.3628
C13 C 0.0367(3) 0.56812(10) 0.45765(12)
H6 H 0.0605 0.6141 0.4294
C14 C 0.4438(3) 0.45986(11) 0.07240(12)
H7 H 0.4063 0.4334 0.1215
C15 C 0.5428(3) 0.10470(12) 0.33635(14)
H8 H 0.5830 0.1057 0.2791
C16 C -0.1570(3) 0.20166(13) 0.14968(17)
H9 H -0.1250 0.1669 0.1037
H10 H -0.2679 0.2230 0.1312
H11 H -0.1611 0.1745 0.2060
C17 C 0.4247(3) 0.16931(12) 0.45328(14)
H12 H 0.3842 0.2146 0.4768
C18 C 0.4346(3) 0.10413(12) 0.50577(14)
H13 H 0.3986 0.1056 0.5640
H2B H 1.088(4) 0.702(2) -0.185(2)
Zn1B Zn 0.78584(3) 0.753033(12) -0.237333(15)
Zn1A Zn 0.28584(3) 0.746967(12) 0.262667(15)
Zn1C Zn 0.71416(3) 0.253033(12) -0.262667(15)
Zn1C_2 Zn -0.28584(3) 0.253033(12) 0.737333(15)
Zn1B_2 Zn -0.21416(3) 0.753033(12) 0.762667(15)
Zn1B_3 Zn 0.78584(3) -0.246967(12) 0.762667(15)
O1B O 1.0342(2) 0.73815(8) -0.16166(10)
N1B N 0.6648(2) 0.73444(9) -0.11932(11)
N2B N -0.2180(2) 0.63275(9) 0.73752(11)
N2B_2 N 0.7820(2) 0.63275(9) -0.26248(11)
O2B O 0.5469(2) -0.23090(8) 0.68391(10)
O2B_2 O 0.5469(2) 0.76910(8) -0.31609(10)
C1B C -0.0889(3) 0.50159(9) 0.57932(13)
N3B N 0.5272(2) -0.16854(9) 0.63165(11)
N4B N -0.2980(2) 0.37397(9) 0.71136(10)
N4A N 0.2020(2) 0.12603(9) 0.21136(10)
N4C N 0.7980(2) 0.87397(9) -0.21136(10)
N5B N 0.4252(3) 0.73080(9) 0.14728(11)
N5C N 0.0748(3) 0.23080(9) 0.35272(11)
N5A N 0.9252(3) 0.76920(9) -0.35272(11)
C2B C -0.1813(3) 0.50266(9) 0.66186(12)
C3B C 0.4792(3) 0.70410(10) 0.08387(12)
C4B C 0.5193(3) 0.58090(11) 0.00519(12)
C5B C 0.6065(3) 0.70556(10) -0.05887(12)
C6B C 0.4624(3) 0.53856(11) 0.07708(12)
H3B H 0.4364 0.5641 0.1293
C7B C -0.2473(3) 0.43404(10) 0.69253(12)
C8B C -0.0490(3) 0.56942(10) 0.53501(12)
H4B H -0.0809 0.6164 0.5582
C9B C 0.5023(3) -0.03582(11) 0.52693(13)
C10B C -0.2047(3) 0.57215(10) 0.70666(12)
C11B C 0.5371(3) 0.66501(11) 0.01046(12)
C12B C 0.4437(3) -0.03812(12) 0.61356(14)
H5B H 0.3956 0.0054 0.6372
C13B C -0.0367(3) 0.43188(10) 0.54235(12)
H6B H -0.0605 0.3859 0.5706
C14B C 0.5562(3) 0.54014(11) -0.07240(12)
H7B H 0.5937 0.5666 -0.1215
C15B C 0.4572(3) -0.10470(12) 0.66365(14)
H8B H 0.4170 -0.1057 0.7209
C16B C 1.1570(3) 0.79834(13) -0.14968(17)
H9B H 1.1250 0.8331 -0.1037
H10B H 1.2679 0.7770 -0.1312
H11B H 1.1611 0.8255 -0.2060
C17B C 0.5753(3) -0.16931(12) 0.54672(14)
H12B H 0.6158 -0.2146 0.5232
C18B C 0.5654(3) -0.10413(12) 0.49423(14)
H13B H 0.6014 -0.1056 0.4360
loop_
_geom_bond_atom_site_label_1
_geom_bond_atom_site_label_2
_geom_bond_site_symmetry_1
_geom_bond_site_symmetry_2
H1 C19 1_555 1_555
H2 O1 1_555 1_555
Zn1 O1 1_555 1_555
O1 C16 1_555 1_555
N1 Zn1 1_555 1_555
N2 Zn1 1_555 1_555
O2 Zn1 1_555 1_555
C1 C2 1_555 1_555
N3 O2 1_555 1_555
N4 C7 1_555 1_555
N5 C3 1_555 1_555
C2 C7 1_555 1_555
C3 C11 1_555 1_555
C4 C6 1_555 1_555
C5 N1 1_555 1_555
C6 H3 1_555 1_555
C8 C1 1_555 1_555
H4 C8 1_555 1_555
C9 C12 1_555 1_555
C10 N2 1_555 1_555
C11 C4 1_555 1_555
C12 H5 1_555 1_555
C13 C1 1_555 1_555
H6 C13 1_555 1_555
C14 C4 1_555 1_555
H7 C14 1_555 1_555
C15 N3 1_555 1_555
H8 C15 1_555 1_555
C16 H9 1_555 1_555
H10 C16 1_555 1_555
H11 C16 1_555 1_555
C17 N3 1_555 1_555
H12 C17 1_555 1_555
C18 C9 1_555 1_555
H13 C18 1_555 1_555
O3 C19 1_555 1_555
N6 C19 1_555 1_555
C20 N6 1_555 1_555
H14 C20 1_555 1_555
H15 C20 1_555 1_555
H16 C20 1_555 1_555
C21 N6 1_555 1_555
H17 C21 1_555 1_555
H18 C21 1_555 1_555
H19 C21 1_555 1_555
H2B O1B 1_555 1_555
Zn1B O1B 1_555 1_555
Zn1A N4 1_555 1_555
Zn1C N5 1_555 1_555
Zn1C_2 N4B 1_555 1_555
Zn1B_2 N2B 1_555 1_555
Zn1B_3 O2B 1_555 1_555
O1B C16B 1_555 1_555
N1B Zn1B 1_555 1_555
N2B C10B 1_555 1_555
N2B_2 Zn1B 1_555 1_555
O2B N3B 1_555 1_555
O2B_2 Zn1B 1_555 1_555
C1B C2B 1_555 1_555
N3B C15B 1_555 1_555
N4B C7B 1_555 1_555
N4A Zn1 1_555 1_555
N4C Zn1B 1_555 1_555
N5B Zn1A 1_555 1_555
N5C Zn1 1_555 1_555
N5A Zn1B 1_555 1_555
C2B C7B 1_555 1_555
C3B N5B 1_555 1_555
C4B C6B 1_555 1_555
C5B N1B 1_555 1_555
C6B C14 1_555 1_555
H3B C6B 1_555 1_555
C8B C13 1_555 1_555
H4B C8B 1_555 1_555
C9B C9 1_555 1_555
C10B C2B 1_555 1_555
C11B C3B 1_555 1_555
C12B C9B 1_555 1_555
H5B C12B 1_555 1_555
C13B C8 1_555 1_555
H6B C13B 1_555 1_555
C14B C6 1_555 1_555
H7B C14B 1_555 1_555
C15B C12B 1_555 1_555
H8B C15B 1_555 1_555
C16B H9B 1_555 1_555
H10B C16B 1_555 1_555
H11B C16B 1_555 1_555
C17B N3B 1_555 1_555
H12B C17B 1_555 1_555
C18B C9B 1_555 1_555
H13B C18B 1_555 1_555
C2 C10 1_555 1_555
C5 C11 1_555 1_555
C12 C15 1_555 1_555
C17 C18 1_555 1_555
C1B C8B 1_555 1_555
C1B C13B 1_555 1_555
C4B C11B 1_555 1_555
C4B C14B 1_555 1_555
C5B C11B 1_555 1_555
C17B C18B 1_555 1_555

#END
