
#######################################################################
#
#                 Cambridge Crystallographic Data Centre
#                                CCDC 
#
#######################################################################
#
# If this CIF has been generated from an entry in the Cambridge 
# Structural Database, then it will include bibliographic, chemical, 
# crystal, experimental, refinement or atomic coordinate data resulting 
# from the CCDC's data processing and validation procedures.
#
#######################################################################

data_QUQPOI
_symmetry_cell_setting           monoclinic
_symmetry_space_group_name_H-M   'P 2/m'
_symmetry_Int_Tables_number      10
_space_group_name_Hall           '-P 2y'
loop_
_symmetry_equiv_pos_site_id
_symmetry_equiv_pos_as_xyz
1 x,y,z
2 -x,y,-z
3 -x,-y,-z
4 x,-y,z
_cell_length_a                   10.9623(9)
_cell_length_b                   7.3937(6)
_cell_length_c                   12.6331(14)
_cell_angle_alpha                90
_cell_angle_beta                 109.510(11)
_cell_angle_gamma                90
_cell_volume                     965.146
loop_
_atom_site_label
_atom_site_type_symbol
_atom_site_fract_x
_atom_site_fract_y
_atom_site_fract_z
C1 C 0.15469(19) -0.3405(3) -0.0543(2)
C2 C 0.2228(3) -0.5000 -0.0474(4)
C3 C 0.3644(3) -0.5000 -0.0247(4)
C4 C 0.4336(2) -0.3392(4) -0.0119(3)
H1 H 0.3898 -0.2297 -0.0195
C5 C 0.1242(4) 0.0000 0.2555(4)
H2 H 0.0374 0.0000 0.2500
C6 C 0.2155(5) 0.0000 0.3609(4)
H3 H 0.1899 0.0000 0.4241
C7 C 0.3454(5) 0.0000 0.3731(4)
C8 C 0.4380(5) 0.0000 0.4892(5)
C9 C 0.3758(4) 0.0000 0.2741(5)
H4 H 0.4620 0.0000 0.2780
C10 C 0.2775(3) 0.0000 0.1688(4)
H5 H 0.2994 0.0000 0.1038
N1 N 0.09917(17) -0.2058(3) -0.0602(2)
N2 N 0.1520(3) 0.0000 0.1607(3)
Zn1 Zn 0.0000 0.0000 0.0000
C1C C 0.15469(19) -0.6595(3) -0.0543(2)
C1A C 0.84531(19) -0.3405(3) 0.0543(2)
C1B C 0.84531(19) -0.6595(3) 0.0543(2)
C2A C 0.7772(3) -0.5000 0.0474(4)
C3A C 0.6356(3) -0.5000 0.0247(4)
C4A C 0.5664(2) -0.3392(4) 0.0119(3)
C4B C 0.5664(2) -0.6608(4) 0.0119(3)
C4C C 0.4336(2) -0.6608(4) -0.0119(3)
H1C H 0.3898 -0.7703 -0.0195
H1B H 0.6102 -0.7703 0.0195
H1A H 0.6102 -0.2297 0.0195
C5A C 0.8758(4) 0.0000 0.7445(4)
H2A H 0.9626 0.0000 0.7500
C6A C 0.7845(5) 0.0000 0.6391(4)
H3A H 0.8101 0.0000 0.5759
C7A C 0.6546(5) 0.0000 0.6269(4)
C8A C 0.5620(5) 0.0000 0.5108(5)
C9A C 0.6242(4) 0.0000 0.7259(5)
H4A H 0.5380 0.0000 0.7220
C10A C 0.7225(3) 0.0000 0.8312(4)
H5A H 0.7006 0.0000 0.8962
N1C N 0.09917(17) -0.7942(3) -0.0602(2)
N1A N 0.90083(17) -0.2058(3) 0.0602(2)
N1B N 0.90083(17) -0.7942(3) 0.0602(2)
N1A_2 N -0.09917(17) -0.2058(3) 0.0602(2)
N1B_2 N -0.09917(17) 0.2058(3) 0.0602(2)
N1C_2 N 0.09917(17) 0.2058(3) -0.0602(2)
N2A N 0.8480(3) 0.0000 0.8393(3)
N2A_2 N -0.1520(3) 0.0000 -0.1607(3)
Zn1_2 Zn 0.0000 -1.0000 0.0000
Zn1_3 Zn 1.0000 0.0000 0.0000
Zn1_4 Zn 1.0000 -1.0000 0.0000
Zn1_5 Zn 1.0000 0.0000 1.0000
loop_
_geom_bond_atom_site_label_1
_geom_bond_atom_site_label_2
_geom_bond_site_symmetry_1
_geom_bond_site_symmetry_2
C1 C2 1_555 1_555
C2 C3 1_555 1_555
C3 C4 1_555 1_555
C4 H1 1_555 1_555
C5 H2 1_555 1_555
C6 C5 1_555 1_555
H3 C6 1_555 1_555
C7 C6 1_555 1_555
C8 C7 1_555 1_555
C9 C7 1_555 1_555
H4 C9 1_555 1_555
C10 C9 1_555 1_555
H5 C10 1_555 1_555
N1 C1 1_555 1_555
N2 C5 1_555 1_555
Zn1 N1 1_555 1_555
C1C C2 1_555 1_555
C1A C2A 1_555 1_555
C1B C2A 1_555 1_555
C2A C3A 1_555 1_555
C3A C4A 1_555 1_555
C4A C4 1_555 1_555
C4B C3A 1_555 1_555
C4C C3 1_555 1_555
H1C C4C 1_555 1_555
H1B C4B 1_555 1_555
H1A C4A 1_555 1_555
C5A H2A 1_555 1_555
C6A C5A 1_555 1_555
H3A C6A 1_555 1_555
C7A C6A 1_555 1_555
C8A C8 1_555 1_555
C9A C7A 1_555 1_555
H4A C9A 1_555 1_555
C10A C9A 1_555 1_555
H5A C10A 1_555 1_555
N1C C1C 1_555 1_555
N1A C1A 1_555 1_555
N1B C1B 1_555 1_555
N1A_2 Zn1 1_555 1_555
N1B_2 Zn1 1_555 1_555
N1C_2 Zn1 1_555 1_555
N2A C5A 1_555 1_555
N2A_2 Zn1 1_555 1_555
Zn1_2 N1C 1_555 1_555
Zn1_3 N1A 1_555 1_555
Zn1_4 N1B 1_555 1_555
Zn1_5 N2A 1_555 1_555
C10 N2 1_555 1_555
N2 Zn1 1_555 1_555
C4B C4C 1_555 1_555
C7A C8A 1_555 1_555
C10A N2A 1_555 1_555

#END
