
#######################################################################
#
#                 Cambridge Crystallographic Data Centre
#                                CCDC 
#
#######################################################################
#
# If this CIF has been generated from an entry in the Cambridge 
# Structural Database, then it will include bibliographic, chemical, 
# crystal, experimental, refinement or atomic coordinate data resulting 
# from the CCDC's data processing and validation procedures.
#
#######################################################################

data_QUQQAV
_symmetry_cell_setting           monoclinic
_symmetry_space_group_name_H-M   'C 2/m'
_symmetry_Int_Tables_number      12
_space_group_name_Hall           '-C 2y'
loop_
_symmetry_equiv_pos_site_id
_symmetry_equiv_pos_as_xyz
1 x,y,z
2 -x,y,-z
3 1/2+x,1/2+y,z
4 1/2-x,1/2+y,-z
5 -x,-y,-z
6 x,-y,z
7 1/2-x,1/2-y,-z
8 1/2+x,1/2-y,z
_cell_length_a                   15.5974(12)
_cell_length_b                   7.3732(6)
_cell_length_c                   11.2273(16)
_cell_angle_alpha                90
_cell_angle_beta                 109.061(10)
_cell_angle_gamma                90
_cell_volume                     1220.38
loop_
_atom_site_label
_atom_site_type_symbol
_atom_site_fract_x
_atom_site_fract_y
_atom_site_fract_z
C1 C 0.3136(4) 0.0000 0.9933(8)
H1 H 0.3728 0.0000 0.9917
Zn1 Zn 0.0000 0.0000 1.0000
N1 N 0.0392(2) 0.2065(3) 1.1445(2)
C3 C 0.0364(2) 0.3398(4) 1.1972(3)
C4 C 0.0326(3) 0.5000 1.2601(4)
C5 C 0.0168(3) 0.5000 1.3837(4)
C6 C 0.1535(4) 0.0000 0.8852(5)
H2 H 0.1054 0.0000 0.8098
N2 N 0.1352(3) 0.0000 0.9908(4)
C7 C 0.0071(3) 0.3387(4) 1.4434(3)
H3 H 0.0104 0.2286 1.4047
C8 C 0.2056(4) 0.0000 1.0986(6)
H4 H 0.1930 0.0000 1.1741
C9 C 0.2976(5) 0.0000 1.1047(6)
H5 H 0.3446 0.0000 1.1812
C10 C 0.2404(5) 0.0000 0.8802(6)
H6 H 0.2506 0.0000 0.8031
C1A C -0.3136(4) 0.0000 1.0067(8)
H1A H -0.3728 0.0000 1.0083
Zn1_2 Zn 0.0000 1.0000 1.0000
Zn1_3 Zn 0.0000 0.0000 2.0000
Zn1_4 Zn 0.0000 1.0000 2.0000
N1E N 0.0392(2) 0.7935(3) 1.1445(2)
N1A N -0.0392(2) 0.2065(3) 1.8555(2)
N1D N -0.0392(2) 0.7935(3) 1.8555(2)
N1A_2 N -0.0392(2) 0.2065(3) 0.8555(2)
N1D_2 N -0.0392(2) -0.2065(3) 0.8555(2)
N1E_2 N 0.0392(2) -0.2065(3) 1.1445(2)
C3E C 0.0364(2) 0.6602(4) 1.1972(3)
C3A C -0.0364(2) 0.3398(4) 1.8028(3)
C3D C -0.0364(2) 0.6602(4) 1.8028(3)
C4A C -0.0326(3) 0.5000 1.7399(4)
C5A C -0.0168(3) 0.5000 1.6163(4)
C6A C -0.1535(4) 0.0000 1.1148(5)
H2A H -0.1054 0.0000 1.1902
N2A N -0.1352(3) 0.0000 1.0092(4)
C7A C -0.0071(3) 0.3387(4) 1.5566(3)
C7D C -0.0071(3) 0.6613(4) 1.5566(3)
C7E C 0.0071(3) 0.6613(4) 1.4434(3)
H3E H 0.0104 0.7714 1.4047
H3D H -0.0104 0.7714 1.5953
H3A H -0.0104 0.2286 1.5953
C8A C -0.2056(4) 0.0000 0.9014(6)
H4A H -0.1930 0.0000 0.8259
C9A C -0.2976(5) 0.0000 0.8953(6)
H5A H -0.3446 0.0000 0.8188
C10A C -0.2404(5) 0.0000 1.1198(6)
H6A H -0.2506 0.0000 1.1969
O1 O 0.198(2) 0.0000 0.570(3)
C2 C 0.230(2) 0.0000 0.479(4)
loop_
_geom_bond_atom_site_label_1
_geom_bond_atom_site_label_2
_geom_bond_site_symmetry_1
_geom_bond_site_symmetry_2
C1 H1 1_555 1_555
O1 C2 1_555 1_555
Zn1 N1 1_555 1_555
N1 C3 1_555 1_555
C3 C4 1_555 1_555
C4 C5 1_555 1_555
C5 C7 1_555 1_555
C6 H2 1_555 1_555
N2 Zn1 1_555 1_555
C7 H3 1_555 1_555
C8 N2 1_555 1_555
H4 C8 1_555 1_555
C9 C1 1_555 1_555
H5 C9 1_555 1_555
C10 C1 1_555 1_555
H6 C10 1_555 1_555
C1A H1A 1_555 1_555
Zn1_2 N1E 1_555 1_555
Zn1_3 N1A 1_555 1_555
Zn1_4 N1D 1_555 1_555
N1E C3E 1_555 1_555
N1A C3A 1_555 1_555
N1D C3D 1_555 1_555
N1A_2 Zn1 1_555 1_555
N1D_2 Zn1 1_555 1_555
N1E_2 Zn1 1_555 1_555
C3E C4 1_555 1_555
C3A C4A 1_555 1_555
C3D C4A 1_555 1_555
C4A C5A 1_555 1_555
C5A C7A 1_555 1_555
C6A H2A 1_555 1_555
N2A Zn1 1_555 1_555
C7A C7 1_555 1_555
C7D C5A 1_555 1_555
C7E C5 1_555 1_555
H3E C7E 1_555 1_555
H3D C7D 1_555 1_555
H3A C7A 1_555 1_555
C8A N2A 1_555 1_555
H4A C8A 1_555 1_555
C9A C1A 1_555 1_555
H5A C9A 1_555 1_555
C10A C1A 1_555 1_555
H6A C10A 1_555 1_555
C6 N2 1_555 1_555
C6 C10 1_555 1_555
C8 C9 1_555 1_555
C6A N2A 1_555 1_555
C6A C10A 1_555 1_555
C7D C7E 1_555 1_555
C8A C9A 1_555 1_555

#END
