
#######################################################################
#
#                 Cambridge Crystallographic Data Centre
#                                CCDC 
#
#######################################################################
#
# If this CIF has been generated from an entry in the Cambridge 
# Structural Database, then it will include bibliographic, chemical, 
# crystal, experimental, refinement or atomic coordinate data resulting 
# from the CCDC's data processing and validation procedures.
#
#######################################################################

data_QUQQID
_symmetry_cell_setting           monoclinic
_symmetry_space_group_name_H-M   'P 21/n'
_symmetry_Int_Tables_number      14
_space_group_name_Hall           '-P 2yn'
loop_
_symmetry_equiv_pos_site_id
_symmetry_equiv_pos_as_xyz
1 x,y,z
2 1/2-x,1/2+y,1/2-z
3 -x,-y,-z
4 1/2+x,1/2-y,1/2+z
_cell_length_a                   10.9343(3)
_cell_length_b                   7.3954(2)
_cell_length_c                   22.5187(6)
_cell_angle_alpha                90
_cell_angle_beta                 93.059(3)
_cell_angle_gamma                90
_cell_volume                     1818.35
loop_
_atom_site_label
_atom_site_type_symbol
_atom_site_fract_x
_atom_site_fract_y
_atom_site_fract_z
Zn1 Zn 0.0000 0.0000 0.0000
N1 N 0.0956(3) 0.0114(3) 0.08482(17)
N2 N 0.1113(3) -0.2239(4) -0.02479(15)
N3 N 0.1273(3) -0.8148(4) -0.03746(15)
C1 C 0.2384(4) -0.5133(4) -0.0261(2)
C2 C 0.0902(4) 0.0497(6) 0.19083(18)
H1 H 0.0436 0.0765 0.2231
C3 C 0.2775(4) -0.0261(5) 0.1495(2)
H2 H 0.3606 -0.0532 0.1529
C4 C 0.2144(4) 0.0115(4) 0.2000(2)
C5 C 0.2163(4) -0.0231(5) 0.0937(2)
H3 H 0.2613 -0.0463 0.0606
C6 C 0.4418(3) -0.6637(5) -0.00804(18)
H4 H 0.4034 -0.7754 -0.0130
C7 C 0.2112(4) -0.0316(6) 0.3096(2)
H5 H 0.1289 -0.0624 0.3043
C8 C 0.4335(3) -0.3423(5) -0.00433(19)
H6 H 0.3895 -0.2347 -0.0068
C9 C 0.0356(3) 0.0479(5) 0.13396(18)
H7 H -0.0476 0.0736 0.1295
C10 C 0.1677(3) -0.3578(5) -0.02639(17)
C11 C 0.3998(4) 0.0561(6) 0.26838(19)
H8 H 0.4446 0.0837 0.2356
C12 C 0.2757(4) 0.0111(4) 0.2609(2)
C13 C 0.3715(4) -0.5059(4) -0.0133(2)
C14 C 0.1771(3) -0.6764(5) -0.03271(16)
C15 C 0.3872(5) 0.0146(5) 0.3724(2)
H9 H 0.4253 0.0147 0.4103
C16 C 0.2667(5) -0.0298(6) 0.3668(2)
H10 H 0.2228 -0.0579 0.3999
C17 C 0.4559(4) 0.0590(6) 0.3257(2)
H11 H 0.5379 0.0905 0.3318
Zn1_2 Zn 0.0000 -1.0000 0.0000
Zn1_3 Zn 1.0000 -1.0000 0.0000
Zn1_4 Zn 1.0000 0.0000 0.0000
N1B N -0.0956(3) -0.0114(3) -0.08482(17)
N2B N 0.8887(3) -0.7761(4) 0.02479(15)
N2B_2 N -0.1113(3) 0.2239(4) 0.02479(15)
N3B N 0.8727(3) -0.1852(4) 0.03746(15)
N3_2 N 0.1273(3) 0.1852(4) -0.03746(15)
N3B_2 N -0.1273(3) -0.1852(4) 0.03746(15)
C1B C 0.7616(4) -0.4867(4) 0.0261(2)
C2B C -0.0902(4) -0.0497(6) -0.19083(18)
H1B H -0.0436 -0.0765 -0.2231
C3B C -0.2775(4) 0.0261(5) -0.1495(2)
H2B H -0.3606 0.0532 -0.1529
C4B C -0.2144(4) -0.0115(4) -0.2000(2)
C5B C -0.2163(4) 0.0231(5) -0.0937(2)
H3B H -0.2613 0.0463 -0.0606
C6B C 0.5582(3) -0.3363(5) 0.00804(18)
H4B H 0.5966 -0.2246 0.0130
C7B C -0.2112(4) 0.0316(6) -0.3096(2)
H5B H -0.1289 0.0624 -0.3043
C8B C 0.5665(3) -0.6577(5) 0.00433(19)
H6B H 0.6105 -0.7653 0.0068
C9B C -0.0356(3) -0.0479(5) -0.13396(18)
H7B H 0.0476 -0.0736 -0.1295
C10B C 0.8323(3) -0.6422(5) 0.02639(17)
C11B C -0.3998(4) -0.0561(6) -0.26838(19)
H8B H -0.4446 -0.0837 -0.2356
C12B C -0.2757(4) -0.0111(4) -0.2609(2)
C13B C 0.6285(4) -0.4941(4) 0.0133(2)
C14B C 0.8229(3) -0.3236(5) 0.03271(16)
C15B C -0.3872(5) -0.0146(5) -0.3724(2)
H9B H -0.4253 -0.0147 -0.4103
C16B C -0.2667(5) 0.0298(6) -0.3668(2)
H10B H -0.2228 0.0579 -0.3999
C17B C -0.4559(4) -0.0590(6) -0.3257(2)
H11B H -0.5379 -0.0905 -0.3318
O1 O 0.8349(8) 0.0651(14) 0.2769(3)
H12 H 0.8330 -0.0374 0.2907
C18 C 0.8672(10) 0.1897(19) 0.3230(5)
H13 H 0.9082 0.1269 0.3556
H14 H 0.7945 0.2463 0.3363
H15 H 0.9207 0.2803 0.3083
O2 O 0.8401(8) 0.7160(14) 0.2927(3)
H16 H 0.8090 0.8148 0.2852
C19 C 0.8415(14) 0.683(2) 0.3571(5)
H17 H 0.9170 0.7273 0.3755
H18 H 0.8344 0.5561 0.3644
H19 H 0.7741 0.7456 0.3735
loop_
_geom_bond_atom_site_label_1
_geom_bond_atom_site_label_2
_geom_bond_site_symmetry_1
_geom_bond_site_symmetry_2
Zn1 N1 1_555 1_555
N1 C5 1_555 1_555
N2 Zn1 1_555 1_555
N3 C14 1_555 1_555
C1 C10 1_555 1_555
C2 H1 1_555 1_555
C3 H2 1_555 1_555
C4 C2 1_555 1_555
C5 C3 1_555 1_555
H3 C5 1_555 1_555
C6 H4 1_555 1_555
C7 H5 1_555 1_555
C8 H6 1_555 1_555
C9 N1 1_555 1_555
H7 C9 1_555 1_555
C10 N2 1_555 1_555
C11 H8 1_555 1_555
C12 C4 1_555 1_555
C13 C1 1_555 1_555
C14 C1 1_555 1_555
C15 H9 1_555 1_555
C16 C7 1_555 1_555
H10 C16 1_555 1_555
C17 C11 1_555 1_555
H11 C17 1_555 1_555
O1 H12 1_555 1_555
C18 O1 1_555 1_555
H13 C18 1_555 1_555
H14 C18 1_555 1_555
H15 C18 1_555 1_555
O2 H16 1_555 1_555
C19 O2 1_555 1_555
H17 C19 1_555 1_555
H18 C19 1_555 1_555
H19 C19 1_555 1_555
Zn1_2 N3 1_555 1_555
Zn1_3 N2B 1_555 1_555
Zn1_4 N3B 1_555 1_555
N1B Zn1 1_555 1_555
N2B C10B 1_555 1_555
N2B_2 Zn1 1_555 1_555
N3B C14B 1_555 1_555
N3_2 Zn1 1_555 1_555
N3B_2 Zn1 1_555 1_555
C1B C10B 1_555 1_555
C2B H1B 1_555 1_555
C3B H2B 1_555 1_555
C4B C2B 1_555 1_555
C5B N1B 1_555 1_555
H3B C5B 1_555 1_555
C6B C8 1_555 1_555
H4B C6B 1_555 1_555
C7B H5B 1_555 1_555
C8B C6 1_555 1_555
H6B C8B 1_555 1_555
C9B N1B 1_555 1_555
H7B C9B 1_555 1_555
C11B H8B 1_555 1_555
C12B C4B 1_555 1_555
C13B C1B 1_555 1_555
C14B C1B 1_555 1_555
C15B H9B 1_555 1_555
C16B C7B 1_555 1_555
H10B C16B 1_555 1_555
C17B C11B 1_555 1_555
H11B C17B 1_555 1_555
C2 C9 1_555 1_555
C3 C4 1_555 1_555
C6 C13 1_555 1_555
C7 C12 1_555 1_555
C8 C13 1_555 1_555
C11 C12 1_555 1_555
C15 C16 1_555 1_555
C15 C17 1_555 1_555
C2B C9B 1_555 1_555
C3B C4B 1_555 1_555
C3B C5B 1_555 1_555
C6B C13B 1_555 1_555
C7B C12B 1_555 1_555
C8B C13B 1_555 1_555
C11B C12B 1_555 1_555
C15B C16B 1_555 1_555
C15B C17B 1_555 1_555

#END
