
#######################################################################
#
#                 Cambridge Crystallographic Data Centre
#                                CCDC 
#
#######################################################################
#
# If this CIF has been generated from an entry in the Cambridge 
# Structural Database, then it will include bibliographic, chemical, 
# crystal, experimental, refinement or atomic coordinate data resulting 
# from the CCDC's data processing and validation procedures.
#
#######################################################################

data_QUQRAW
_symmetry_cell_setting           monoclinic
_symmetry_space_group_name_H-M   'C 2/m'
_symmetry_Int_Tables_number      12
_space_group_name_Hall           '-C 2y'
loop_
_symmetry_equiv_pos_site_id
_symmetry_equiv_pos_as_xyz
1 x,y,z
2 -x,y,-z
3 1/2+x,1/2+y,z
4 1/2-x,1/2+y,-z
5 -x,-y,-z
6 x,-y,z
7 1/2-x,1/2-y,-z
8 1/2+x,1/2-y,z
_cell_length_a                   18.622(5)
_cell_length_b                   7.6404(8)
_cell_length_c                   10.749(3)
_cell_angle_alpha                90
_cell_angle_beta                 122.27(3)
_cell_angle_gamma                90
_cell_volume                     1293.14
loop_
_atom_site_label
_atom_site_type_symbol
_atom_site_fract_x
_atom_site_fract_y
_atom_site_fract_z
Cd1 Cd 0.0000 1.0000 0.0000
N1 N -0.1163(8) 1.0000 -0.2379(11)
C2 C -0.3435(8) 1.0000 -0.6945(14)
H1 H -0.3249 1.0000 -0.7643
H2 H -0.3777 0.8953 -0.7099
N2 N -0.0640(6) 0.7861(11) 0.0623(8)
C3 C -0.0521(9) 0.5000 0.1930(14)
C4 C -0.0117(7) 0.3463(11) 0.4279(10)
H3 H -0.0174 0.2374 0.3808
C5 C -0.0601(7) 0.6541(13) 0.1181(10)
C6 C -0.0275(9) 0.5000 0.3476(13)
C7 C -0.1954(10) 1.0000 -0.2661(15)
H4 H -0.2033 1.0000 -0.1858
C8 C -0.2643(11) 1.0000 -0.5343(18)
C9 C -0.2667(10) 1.0000 -0.4086(17)
H5 H -0.3209 1.0000 -0.4199
C10 C -0.1073(10) 1.0000 -0.3519(15)
H6 H -0.0515 1.0000 -0.3337
C11 C -0.1753(10) 1.0000 -0.4967(16)
H7 H -0.1645 1.0000 -0.5738
Cd1_2 Cd 0.0000 0.0000 0.0000
Cd1_3 Cd 0.0000 1.0000 1.0000
Cd1_4 Cd 0.0000 0.0000 1.0000
N1A N 0.1163(8) 1.0000 0.2379(11)
C2A C 0.3435(8) 1.0000 0.6945(14)
H1A H 0.3249 1.0000 0.7643
H2E H -0.3777 1.1047 -0.7099
H2A H 0.3777 0.8953 0.7099
H2D H 0.3777 1.1047 0.7099
N2E N -0.0640(6) 0.2139(11) 0.0623(8)
N2A N 0.0640(6) 0.7861(11) 0.9377(8)
N2D N 0.0640(6) 0.2139(11) 0.9377(8)
N2A_2 N 0.0640(6) 0.7861(11) -0.0623(8)
N2D_2 N 0.0640(6) 1.2139(11) -0.0623(8)
N2E_2 N -0.0640(6) 1.2139(11) 0.0623(8)
C3A C 0.0521(9) 0.5000 0.8070(14)
C4A C 0.0117(7) 0.3463(11) 0.5721(10)
C4D C 0.0117(7) 0.6537(11) 0.5721(10)
C4E C -0.0117(7) 0.6537(11) 0.4279(10)
H3A H 0.0174 0.2374 0.6192
H3E H -0.0174 0.7626 0.3808
H3D H 0.0174 0.7626 0.6192
C5E C -0.0601(7) 0.3459(13) 0.1181(10)
C5A C 0.0601(7) 0.6541(13) 0.8819(10)
C5D C 0.0601(7) 0.3459(13) 0.8819(10)
C6A C 0.0275(9) 0.5000 0.6524(13)
C7A C 0.1954(10) 1.0000 0.2661(15)
H4A H 0.2033 1.0000 0.1858
C8A C 0.2643(11) 1.0000 0.5343(18)
C9A C 0.2667(10) 1.0000 0.4086(17)
H5A H 0.3209 1.0000 0.4199
C10A C 0.1073(10) 1.0000 0.3519(15)
H6A H 0.0515 1.0000 0.3337
C11A C 0.1753(10) 1.0000 0.4967(16)
H7A H 0.1645 1.0000 0.5738
O1 O 0.1541(10) 0.0000 0.7952(16)
C1 C 0.2211(15) 0.132(4) 0.883(3)
C1E C 0.2211(15) -0.132(4) 0.883(3)
loop_
_geom_bond_atom_site_label_1
_geom_bond_atom_site_label_2
_geom_bond_site_symmetry_1
_geom_bond_site_symmetry_2
O1 C1 1_555 1_555
Cd1 N1 1_555 1_555
N1 C7 1_555 1_555
C2 H1 1_555 1_555
H2 C2 1_555 1_555
N2 Cd1 1_555 1_555
C3 C5 1_555 1_555
C4 H3 1_555 1_555
C5 N2 1_555 1_555
C6 C3 1_555 1_555
C7 H4 1_555 1_555
C8 C2 1_555 1_555
C9 C7 1_555 1_555
H5 C9 1_555 1_555
C10 N1 1_555 1_555
H6 C10 1_555 1_555
C11 C8 1_555 1_555
H7 C11 1_555 1_555
C1E O1 1_555 1_555
Cd1_2 N2E 1_555 1_555
Cd1_3 N2A 1_555 1_555
Cd1_4 N2D 1_555 1_555
N1A Cd1 1_555 1_555
C2A H1A 1_555 1_555
H2E C2 1_555 1_555
H2A C2A 1_555 1_555
H2D C2A 1_555 1_555
N2E C5E 1_555 1_555
N2A C5A 1_555 1_555
N2D C5D 1_555 1_555
N2A_2 Cd1 1_555 1_555
N2D_2 Cd1 1_555 1_555
N2E_2 Cd1 1_555 1_555
C3A C5A 1_555 1_555
C4A C4 1_555 1_555
C4D C4E 1_555 1_555
C4E C6 1_555 1_555
H3A C4A 1_555 1_555
H3E C4E 1_555 1_555
H3D C4D 1_555 1_555
C5E C3 1_555 1_555
C5D C3A 1_555 1_555
C6A C3A 1_555 1_555
C7A N1A 1_555 1_555
H4A C7A 1_555 1_555
C8A C2A 1_555 1_555
C9A C7A 1_555 1_555
H5A C9A 1_555 1_555
C10A N1A 1_555 1_555
H6A C10A 1_555 1_555
C11A C8A 1_555 1_555
H7A C11A 1_555 1_555
C4 C6 1_555 1_555
C8 C9 1_555 1_555
C10 C11 1_555 1_555
C4A C6A 1_555 1_555
C4D C6A 1_555 1_555
C8A C9A 1_555 1_555
C10A C11A 1_555 1_555

#END
