
#######################################################################
#
#                 Cambridge Crystallographic Data Centre
#                                CCDC 
#
#######################################################################
#
# If this CIF has been generated from an entry in the Cambridge 
# Structural Database, then it will include bibliographic, chemical, 
# crystal, experimental, refinement or atomic coordinate data resulting 
# from the CCDC's data processing and validation procedures.
#
#######################################################################

data_QUQRIE
_symmetry_cell_setting           orthorhombic
_symmetry_space_group_name_H-M   'P 21 21 2'
_symmetry_Int_Tables_number      18
_space_group_name_Hall           'P 2 2ab'
loop_
_symmetry_equiv_pos_site_id
_symmetry_equiv_pos_as_xyz
1 x,y,z
2 -x,-y,z
3 1/2+x,1/2-y,-z
4 1/2-x,1/2+y,-z
_cell_length_a                   15.898(3)
_cell_length_b                   11.920(3)
_cell_length_c                   15.222(3)
_cell_angle_alpha                90
_cell_angle_beta                 90
_cell_angle_gamma                90
_cell_volume                     2884.63
loop_
_atom_site_label
_atom_site_type_symbol
_atom_site_fract_x
_atom_site_fract_y
_atom_site_fract_z
O1 O 0.8962(2) 0.9885(3) 0.9540(3)
O2 O 1.0000 1.0000 0.7472(4)
K1 K 0.92999(6) 0.81476(9) 0.84016(7)
C1 C 0.8552(3) 0.6114(4) 0.6699(3)
C2 C 0.8852(3) 0.4568(4) 0.5789(3)
H1 H 0.8706 0.4506 0.5165
C3 C 0.8089(3) 0.4286(4) 0.6387(3)
H2 H 0.7581 0.4141 0.6040
C4 C 0.7318(3) 0.5481(4) 0.7550(3)
H3 H 0.7183 0.6275 0.7555
H4 H 0.6823 0.5081 0.7347
C5 C 0.7803(2) 0.5851(4) 0.9060(3)
C6 C 0.7697(3) 0.4075(4) 0.9728(3)
H5 H 0.7250 0.3895 1.0148
C7 C 0.8196(3) 0.5771(4) 1.0625(3)
H6 H 0.8014 0.6547 1.0612
H7 H 0.7894 0.5399 1.1095
C8 C 0.9614(3) 0.6549(4) 1.0500(3)
C9 C 0.9538(3) 0.4790(4) 1.1195(3)
H8 H 0.9343 0.4614 1.1790
C10 C 1.1137(3) 0.6958(4) 1.0535(3)
H9 H 1.1500 0.6905 1.1046
H10 H 1.0925 0.7720 1.0507
C11 C 0.8510(3) 0.2765(3) 0.8968(3)
C12 C 0.7388(3) 0.3992(4) 0.8752(3)
H11 H 0.6799 0.3755 0.8716
C13 C 0.7863(3) 0.2714(4) 0.7502(3)
H12 H 0.8033 0.1933 0.7514
H13 H 0.7277 0.2739 0.7328
C14 C 0.9161(3) 0.2971(4) 0.6609(3)
C15 C 0.9706(3) 0.6393(4) 0.5636(3)
H14 H 0.9546 0.7176 0.5675
H15 H 0.9745 0.6201 0.5018
N2 N 0.9057(2) 0.5725(3) 0.6030(2)
N3 N 0.7992(2) 0.5294(3) 0.6936(2)
N4 N 0.7503(2) 0.5131(3) 0.8432(2)
N5 N 0.7969(2) 0.5242(3) 0.9793(2)
N6 N 0.9087(2) 0.5742(3) 1.0823(2)
N7 N 1.0437(2) 0.6198(3) 1.0645(2)
N8 N 0.8369(2) 0.3268(3) 0.9749(2)
N9 N 0.7940(2) 0.3176(3) 0.8385(2)
N10 N 0.8362(2) 0.3298(3) 0.6842(2)
N11 N 0.9466(2) 0.3747(3) 0.6038(2)
O8 O 0.8584(2) 0.7044(3) 0.7016(2)
O9 O 0.78989(18) 0.6856(3) 0.8971(2)
O10 O 0.94064(19) 0.7430(3) 1.0164(2)
O11 O 0.90372(19) 0.2038(3) 0.8823(2)
O12 O 0.9532(2) 0.2135(3) 0.6875(2)
O1A O 1.1038(2) 0.0115(3) 0.9540(3)
O2_2 O 1.0000 0.0000 0.7472(4)
K1A K 1.07001(6) 0.18524(9) 0.84016(7)
K1A_2 K 1.07001(6) 1.18524(9) 0.84016(7)
C1A C 1.1448(3) 0.3886(4) 0.6699(3)
C2A C 1.1148(3) 0.5432(4) 0.5789(3)
H1A H 1.1294 0.5494 0.5165
C3A C 1.1911(3) 0.5714(4) 0.6387(3)
H2A H 1.2419 0.5859 0.6040
C4A C 1.2682(3) 0.4519(4) 0.7550(3)
H3A H 1.2817 0.3725 0.7555
H4A H 1.3177 0.4919 0.7347
C5A C 1.2197(2) 0.4149(4) 0.9060(3)
C6A C 1.2303(3) 0.5925(4) 0.9728(3)
H5A H 1.2750 0.6105 1.0148
C7A C 1.1804(3) 0.4229(4) 1.0625(3)
H6A H 1.1986 0.3453 1.0612
H7A H 1.2106 0.4601 1.1095
C8A C 1.0386(3) 0.3451(4) 1.0500(3)
C9A C 1.0462(3) 0.5210(4) 1.1195(3)
H8A H 1.0657 0.5386 1.1790
C10A C 0.8863(3) 0.3042(4) 1.0535(3)
H9A H 0.8500 0.3095 1.1046
H10A H 0.9075 0.2280 1.0507
C11A C 1.1490(3) 0.7235(3) 0.8968(3)
C12A C 1.2612(3) 0.6008(4) 0.8752(3)
H11A H 1.3201 0.6245 0.8716
C13A C 1.2137(3) 0.7286(4) 0.7502(3)
H12A H 1.1967 0.8067 0.7514
H13A H 1.2723 0.7261 0.7328
C14A C 1.0839(3) 0.7029(4) 0.6609(3)
C15A C 1.0294(3) 0.3607(4) 0.5636(3)
H14A H 1.0454 0.2824 0.5675
H15A H 1.0255 0.3799 0.5018
N2A N 1.0943(2) 0.4275(3) 0.6030(2)
N3A N 1.2008(2) 0.4706(3) 0.6936(2)
N4A N 1.2497(2) 0.4869(3) 0.8432(2)
N5A N 1.2031(2) 0.4758(3) 0.9793(2)
N6A N 1.0913(2) 0.4258(3) 1.0823(2)
N7A N 0.9563(2) 0.3802(3) 1.0645(2)
N8A N 1.1631(2) 0.6732(3) 0.9749(2)
N9A N 1.2060(2) 0.6824(3) 0.8385(2)
N10A N 1.1638(2) 0.6702(3) 0.6842(2)
N11A N 1.0534(2) 0.6253(3) 0.6038(2)
O8A O 1.1416(2) 0.2956(3) 0.7016(2)
O9A O 1.21011(18) 0.3144(3) 0.8971(2)
O10A O 1.05936(19) 0.2570(3) 1.0164(2)
O11A O 1.09628(19) 0.7962(3) 0.8823(2)
O12A O 1.0468(2) 0.7865(3) 0.6875(2)
O3 O 1.0000 1.0000 0.1099(5)
O4 O 1.0000 0.5000 0.8388(8)
N1 N 0.9968(4) 0.7790(6) 0.2567(4)
O5 O 0.9307(3) 0.8332(6) 0.2633(5)
O6 O 1.0572(3) 0.8113(6) 0.2144(3)
O7 O 1.0014(5) 0.6891(7) 0.2972(5)
C16 C 0.6912(4) 1.1300(5) 0.5994(4)
C17 C 0.6701(5) 1.0525(6) 0.6592(5)
H16 H 0.6218 1.0607 0.6931
C18 C 0.7254(6) 0.9539(6) 0.6701(5)
H17 H 0.7119 0.8991 0.7113
C19 C 0.7943(6) 0.9431(6) 0.6215(5)
H18 H 0.8288 0.8808 0.6292
C20 C 0.8159(4) 1.0252(4) 0.5581(3)
C21 C 0.8870(4) 1.0133(6) 0.5054(4)
H19 H 0.9227 0.9522 0.5131
C22 C 0.9044(4) 1.0928(5) 0.4418(4)
H20 H 0.9507 1.0839 0.4050
C23 C 0.8520(4) 1.1868(6) 0.4330(3)
H21 H 0.8652 1.2413 0.3915
C24 C 0.7843(4) 1.1997(5) 0.4824(3)
H22 H 0.7500 1.2621 0.4746
C25 C 0.7636(3) 1.1183(5) 0.5473(3)
O13 O 0.6460(3) 1.2267(4) 0.5886(3)
H23 H 0.6029 1.2131 0.5611
loop_
_geom_bond_atom_site_label_1
_geom_bond_atom_site_label_2
_geom_bond_site_symmetry_1
_geom_bond_site_symmetry_2
O1 K1 1_555 1_555
O2 K1 1_555 1_555
K1 O8 1_555 1_555
N1 O5 1_555 1_555
O6 N1 1_555 1_555
O7 N1 1_555 1_555
C1 N2 1_555 1_555
C2 H1 1_555 1_555
C3 C2 1_555 1_555
H2 C3 1_555 1_555
C4 H3 1_555 1_555
H4 C4 1_555 1_555
C5 N4 1_555 1_555
C6 H5 1_555 1_555
C7 H6 1_555 1_555
H7 C7 1_555 1_555
C8 N6 1_555 1_555
C9 H8 1_555 1_555
C10 H9 1_555 1_555
H10 C10 1_555 1_555
C11 N8 1_555 1_555
C12 C6 1_555 1_555
H11 C12 1_555 1_555
C13 H12 1_555 1_555
H13 C13 1_555 1_555
C14 N10 1_555 1_555
C15 H14 1_555 1_555
H15 C15 1_555 1_555
N2 C2 1_555 1_555
N3 C1 1_555 1_555
N4 C4 1_555 1_555
N5 C5 1_555 1_555
N6 C7 1_555 1_555
N7 C8 1_555 1_555
N8 C6 1_555 1_555
N9 C11 1_555 1_555
N10 C3 1_555 1_555
N11 C2 1_555 1_555
O8 C1 1_555 1_555
O9 K1 1_555 1_555
O10 K1 1_555 1_555
O11 C11 1_555 1_555
O12 C14 1_555 1_555
C16 C17 1_555 1_555
C17 H16 1_555 1_555
C18 C17 1_555 1_555
H17 C18 1_555 1_555
C19 C18 1_555 1_555
H18 C19 1_555 1_555
C20 C19 1_555 1_555
C21 C20 1_555 1_555
H19 C21 1_555 1_555
C22 C21 1_555 1_555
H20 C22 1_555 1_555
C23 C22 1_555 1_555
H21 C23 1_555 1_555
C24 C23 1_555 1_555
H22 C24 1_555 1_555
C25 C16 1_555 1_555
O13 C16 1_555 1_555
H23 O13 1_555 1_555
O1A K1A 1_555 1_555
O2_2 K1A 1_555 1_555
K1A O11 1_555 1_555
K1A_2 O2 1_555 1_555
C1A N2A 1_555 1_555
C2A H1A 1_555 1_555
C3A C2A 1_555 1_555
H2A C3A 1_555 1_555
C4A H3A 1_555 1_555
H4A C4A 1_555 1_555
C5A N4A 1_555 1_555
C6A H5A 1_555 1_555
C7A H6A 1_555 1_555
H7A C7A 1_555 1_555
C8A N6A 1_555 1_555
C9A C9 1_555 1_555
H8A C9A 1_555 1_555
C10A N8 1_555 1_555
H9A C10A 1_555 1_555
H10A C10A 1_555 1_555
C11A N8A 1_555 1_555
C12A C6A 1_555 1_555
H11A C12A 1_555 1_555
C13A H12A 1_555 1_555
H13A C13A 1_555 1_555
C14A N10A 1_555 1_555
C15A N11 1_555 1_555
H14A C15A 1_555 1_555
H15A C15A 1_555 1_555
N2A C2A 1_555 1_555
N3A C1A 1_555 1_555
N4A C4A 1_555 1_555
N5A C5A 1_555 1_555
N6A C7A 1_555 1_555
N7A C9 1_555 1_555
N8A C10 1_555 1_555
N9A C11A 1_555 1_555
N10A C3A 1_555 1_555
N11A C15 1_555 1_555
O8A K1A 1_555 1_555
O9A K1A 1_555 1_555
O10A K1A 1_555 1_555
O11A K1 1_555 1_555
O12A K1 1_555 1_555
C3 N3 1_555 1_555
C4 N3 1_555 1_555
C5 O9 1_555 1_555
C6 N5 1_555 1_555
C7 N5 1_555 1_555
C8 O10 1_555 1_555
C9 N6 1_555 1_555
C10 N7 1_555 1_555
C12 N4 1_555 1_555
C12 N9 1_555 1_555
C13 N9 1_555 1_555
C13 N10 1_555 1_555
C14 N11 1_555 1_555
C15 N2 1_555 1_555
N7 C9A 1_555 1_555
O12 K1A 1_555 1_555
C20 C25 1_555 1_555
C24 C25 1_555 1_555
C1A O8A 1_555 1_555
C2A N11A 1_555 1_555
C3A N3A 1_555 1_555
C4A N3A 1_555 1_555
C5A O9A 1_555 1_555
C6A N5A 1_555 1_555
C6A N8A 1_555 1_555
C7A N5A 1_555 1_555
C8A N7A 1_555 1_555
C8A O10A 1_555 1_555
C9A N6A 1_555 1_555
C10A N7A 1_555 1_555
C11A O11A 1_555 1_555
C12A N4A 1_555 1_555
C12A N9A 1_555 1_555
C13A N9A 1_555 1_555
C13A N10A 1_555 1_555
C14A N11A 1_555 1_555
C14A O12A 1_555 1_555
C15A N2A 1_555 1_555

#END
