
#######################################################################
#
#                 Cambridge Crystallographic Data Centre
#                                CCDC 
#
#######################################################################
#
# If this CIF has been generated from an entry in the Cambridge 
# Structural Database, then it will include bibliographic, chemical, 
# crystal, experimental, refinement or atomic coordinate data resulting 
# from the CCDC's data processing and validation procedures.
#
#######################################################################

data_QUQRUQ
_symmetry_cell_setting           orthorhombic
_symmetry_space_group_name_H-M   'P 21 2 21'
_symmetry_Int_Tables_number      18
_space_group_name_Hall           'P 2ac 2ac'
loop_
_symmetry_equiv_pos_site_id
_symmetry_equiv_pos_as_xyz
1 x,y,z
2 1/2-x,-y,1/2+z
3 1/2+x,-y,1/2-z
4 -x,y,-z
_cell_length_a                   12.0852(6)
_cell_length_b                   13.9747(7)
_cell_length_c                   15.8477(8)
_cell_angle_alpha                90
_cell_angle_beta                 90
_cell_angle_gamma                90
_cell_volume                     2676.47
loop_
_atom_site_label
_atom_site_type_symbol
_atom_site_fract_x
_atom_site_fract_y
_atom_site_fract_z
K1 K 0.19431(8) 0.35055(7) 0.92556(6)
O1 O 0.0188(2) 0.4718(2) 0.8995(2)
O2 O 0.0000 0.2576(3) 1.0000
C1 C 0.3498(3) 0.5809(3) 0.9583(3)
C2 C 0.4774(3) 0.6581(3) 1.0461(2)
H1 H 0.4611 0.7231 1.0658
C3 C 0.4337(3) 0.5925(3) 0.8179(3)
H2 H 0.4717 0.6434 0.7882
H3 H 0.3580 0.5909 0.7975
C4 C 0.4283(3) 0.4206(3) 0.7791(2)
C5 C 0.6018(3) 0.4962(3) 0.7735(2)
H4 H 0.6210 0.5428 0.7296
C6 C 0.6135(3) 0.3914(3) 0.7413(2)
H5 H 0.6392 0.3889 0.6827
C7 C 0.4693(3) 0.2574(3) 0.7267(3)
H6 H 0.5134 0.2368 0.6788
H7 H 0.3924 0.2582 0.7091
C8 C 0.3974(3) 0.1645(3) 0.8483(3)
C9 C 0.5820(3) 0.1328(3) 0.8105(3)
H8 H 0.6023 0.0945 0.7611
C10 C 0.5496(3) 0.0683(3) 0.8869(3)
H9 H 0.5542 0.0003 0.8725
C11 C 0.3655(3) 0.0522(3) 0.9656(3)
H10 H 0.3854 -0.0150 0.9695
H11 H 0.2897 0.0556 0.9459
C12 C 0.7042(3) 0.1604(3) 0.9239(2)
C13 C 0.7381(3) 0.2552(3) 0.7945(3)
H12 H 0.8138 0.2557 0.8149
H13 H 0.7395 0.2354 0.7359
C14 C 0.7312(3) 0.4168(3) 0.8573(3)
C15 C 0.3003(3) 0.5863(3) 1.1080(2)
H14 H 0.3028 0.6411 1.1455
H15 H 0.2262 0.5825 1.0847
N1 N 0.3784(2) 0.6008(2) 1.0401(2)
N2 N 0.4321(3) 0.6152(2) 0.9065(2)
N3 N 0.4863(2) 0.5025(2) 0.7970(2)
N4 N 0.5020(3) 0.3531(2) 0.7501(2)
N5 N 0.4825(2) 0.1884(3) 0.7952(2)
N6 N 0.4358(3) 0.0972(2) 0.9044(2)
N7 N 0.6287(3) 0.0938(2) 0.9511(2)
N8 N 0.6755(2) 0.1859(3) 0.8427(2)
N9 N 0.6943(3) 0.3513(2) 0.7993(2)
N10 N 0.3226(2) 0.5007(2) 1.1558(2)
O5 O 0.2657(2) 0.54059(19) 0.93510(17)
O6 O 0.3289(2) 0.4090(2) 0.78635(19)
O7 O 0.3039(2) 0.19659(18) 0.84676(17)
O8 O 0.7830(2) 0.19006(19) 0.96400(17)
O9 O 0.8033(2) 0.40158(19) 0.91080(18)
K1C K 0.80569(8) 0.35055(7) 1.07444(6)
K1C_2 K -0.19431(8) 0.35055(7) 1.07444(6)
O1C O 0.9812(2) 0.4718(2) 1.1005(2)
O2_2 O 1.0000 0.2576(3) 1.0000
C1C C 0.6502(3) 0.5809(3) 1.0417(3)
C2C C 0.5226(3) 0.6581(3) 0.9539(2)
H1C H 0.5389 0.7231 0.9342
C3C C 0.5663(3) 0.5925(3) 1.1821(3)
H2C H 0.5283 0.6434 1.2118
H3C H 0.6420 0.5909 1.2025
C4C C 0.5717(3) 0.4206(3) 1.2209(2)
C5C C 0.3982(3) 0.4962(3) 1.2265(2)
H4C H 0.3790 0.5428 1.2704
C6C C 0.3865(3) 0.3914(3) 1.2587(2)
H5C H 0.3608 0.3889 1.3173
C7C C 0.5307(3) 0.2574(3) 1.2733(3)
H6C H 0.4866 0.2368 1.3212
H7C H 0.6076 0.2582 1.2909
C8C C 0.6026(3) 0.1645(3) 1.1517(3)
C9C C 0.4180(3) 0.1328(3) 1.1895(3)
H8C H 0.3977 0.0945 1.2389
C10C C 0.4504(3) 0.0683(3) 1.1131(3)
H9C H 0.4458 0.0003 1.1275
C11C C 0.6345(3) 0.0522(3) 1.0344(3)
H10C H 0.6146 -0.0150 1.0305
H11C H 0.7103 0.0556 1.0541
C12C C 0.2958(3) 0.1604(3) 1.0761(2)
C13C C 0.2619(3) 0.2552(3) 1.2055(3)
H12C H 0.1862 0.2557 1.1851
H13C H 0.2605 0.2354 1.2641
C14C C 0.2688(3) 0.4168(3) 1.1427(3)
C15C C 0.6997(3) 0.5863(3) 0.8920(2)
H14C H 0.6972 0.6411 0.8545
H15C H 0.7738 0.5825 0.9153
N1C N 0.6216(2) 0.6008(2) 0.9599(2)
N2C N 0.5679(3) 0.6152(2) 1.0935(2)
N3C N 0.5137(2) 0.5025(2) 1.2030(2)
N4C N 0.4980(3) 0.3531(2) 1.2499(2)
N5C N 0.5175(2) 0.1884(3) 1.2048(2)
N6C N 0.5642(3) 0.0972(2) 1.0956(2)
N7C N 0.3713(3) 0.0938(2) 1.0489(2)
N8C N 0.3245(2) 0.1859(3) 1.1573(2)
N9C N 0.3057(3) 0.3513(2) 1.2007(2)
N10C N 0.6774(2) 0.5007(2) 0.8442(2)
O5C O 0.7343(2) 0.54059(19) 1.06490(17)
O6C O 0.6711(2) 0.4090(2) 1.21365(19)
O7C O 0.6961(2) 0.19659(18) 1.15324(17)
O8C O 0.2170(2) 0.19006(19) 1.03600(17)
O9C O 0.1967(2) 0.40158(19) 1.08920(18)
I1 I 0.20974(2) 0.817060(19) 0.96797(2)
O3 O 0.0000 0.6438(3) 1.0000
O4 O 0.5000 0.3502(7) 1.0000
C16 C 0.1255(4) 1.0010(3) 0.1850(3)
C17 C 0.0328(4) 1.0132(3) 0.1340(3)
H16 H 0.0242 0.9757 0.0860
C18 C -0.0470(4) 1.0811(3) 0.1542(3)
H17 H -0.1084 1.0888 0.1195
C19 C -0.0355(4) 1.1379(3) 0.2265(3)
C20 C 0.0564(4) 1.1240(3) 0.2781(3)
H18 H 0.0646 1.1604 0.3268
C21 C 0.1361(4) 1.0561(3) 0.2572(3)
H19 H 0.1971 1.0477 0.2922
O10 O 0.2090(3) 0.9374(2) 0.1674(2)
H20 H 0.1943 0.9083 0.1239
O11 O -0.1088(3) 1.2085(2) 0.2481(2)
H21 H -0.1711 1.1856 0.2521
loop_
_geom_bond_atom_site_label_1
_geom_bond_atom_site_label_2
_geom_bond_site_symmetry_1
_geom_bond_site_symmetry_2
K1 O1 1_555 1_555
O2 K1 1_555 1_555
C1 N1 1_555 1_555
C2 H1 1_555 1_555
C3 H2 1_555 1_555
H3 C3 1_555 1_555
C4 N3 1_555 1_555
C5 H4 1_555 1_555
C6 C5 1_555 1_555
H5 C6 1_555 1_555
C7 H6 1_555 1_555
H7 C7 1_555 1_555
C8 N5 1_555 1_555
C9 H8 1_555 1_555
C10 C9 1_555 1_555
H9 C10 1_555 1_555
C11 H10 1_555 1_555
H11 C11 1_555 1_555
C12 N7 1_555 1_555
C13 H12 1_555 1_555
H13 C13 1_555 1_555
C14 N9 1_555 1_555
C15 H14 1_555 1_555
H15 C15 1_555 1_555
N1 C2 1_555 1_555
N2 C1 1_555 1_555
N3 C3 1_555 1_555
N4 C4 1_555 1_555
N5 C7 1_555 1_555
N6 C8 1_555 1_555
N7 C10 1_555 1_555
N8 C9 1_555 1_555
N9 C6 1_555 1_555
N10 C15 1_555 1_555
O5 K1 1_555 1_555
O6 K1 1_555 1_555
O7 K1 1_555 1_555
O8 C12 1_555 1_555
O9 C14 1_555 1_555
C16 C17 1_555 1_555
C17 H16 1_555 1_555
C18 C17 1_555 1_555
H17 C18 1_555 1_555
C19 C18 1_555 1_555
C20 C19 1_555 1_555
H18 C20 1_555 1_555
C21 C16 1_555 1_555
H19 C21 1_555 1_555
O10 C16 1_555 1_555
H20 O10 1_555 1_555
O11 C19 1_555 1_555
H21 O11 1_555 1_555
K1C O8 1_555 1_555
K1C_2 O2 1_555 1_555
O1C K1C 1_555 1_555
O2_2 K1C 1_555 1_555
C1C N1C 1_555 1_555
C2C C2 1_555 1_555
H1C C2C 1_555 1_555
C3C H2C 1_555 1_555
H3C C3C 1_555 1_555
C4C N3C 1_555 1_555
C5C N10 1_555 1_555
H4C C5C 1_555 1_555
C6C C5C 1_555 1_555
H5C C6C 1_555 1_555
C7C H6C 1_555 1_555
H7C C7C 1_555 1_555
C8C N5C 1_555 1_555
C9C H8C 1_555 1_555
C10C C9C 1_555 1_555
H9C C10C 1_555 1_555
C11C N7 1_555 1_555
H10C C11C 1_555 1_555
H11C C11C 1_555 1_555
C12C N7C 1_555 1_555
C13C H12C 1_555 1_555
H13C C13C 1_555 1_555
C14C N10 1_555 1_555
C15C H14C 1_555 1_555
H15C C15C 1_555 1_555
N1C C2C 1_555 1_555
N2C C2 1_555 1_555
N3C C3C 1_555 1_555
N4C C4C 1_555 1_555
N5C C7C 1_555 1_555
N6C C8C 1_555 1_555
N7C C11 1_555 1_555
N8C C9C 1_555 1_555
N9C C6C 1_555 1_555
N10C C5 1_555 1_555
O5C K1C 1_555 1_555
O6C K1C 1_555 1_555
O7C K1C 1_555 1_555
O8C K1 1_555 1_555
O9C K1 1_555 1_555
C1 O5 1_555 1_555
C3 N2 1_555 1_555
C4 O6 1_555 1_555
C5 N3 1_555 1_555
C6 N4 1_555 1_555
C7 N4 1_555 1_555
C8 O7 1_555 1_555
C9 N5 1_555 1_555
C10 N6 1_555 1_555
C11 N6 1_555 1_555
C12 N8 1_555 1_555
C13 N8 1_555 1_555
C13 N9 1_555 1_555
C14 N10C 1_555 1_555
C15 N1 1_555 1_555
N2 C2C 1_555 1_555
O9 K1C 1_555 1_555
C20 C21 1_555 1_555
C1C N2C 1_555 1_555
C1C O5C 1_555 1_555
C3C N2C 1_555 1_555
C4C O6C 1_555 1_555
C5C N3C 1_555 1_555
C6C N4C 1_555 1_555
C7C N4C 1_555 1_555
C8C O7C 1_555 1_555
C9C N5C 1_555 1_555
C10C N6C 1_555 1_555
C10C N7C 1_555 1_555
C11C N6C 1_555 1_555
C12C N8C 1_555 1_555
C12C O8C 1_555 1_555
C13C N8C 1_555 1_555
C13C N9C 1_555 1_555
C14C N9C 1_555 1_555
C14C O9C 1_555 1_555
C15C N1C 1_555 1_555
C15C N10C 1_555 1_555

#END
