
#######################################################################
#
#                 Cambridge Crystallographic Data Centre
#                                CCDC 
#
#######################################################################
#
# If this CIF has been generated from an entry in the Cambridge 
# Structural Database, then it will include bibliographic, chemical, 
# crystal, experimental, refinement or atomic coordinate data resulting 
# from the CCDC's data processing and validation procedures.
#
#######################################################################

data_QUQROK
_symmetry_cell_setting           orthorhombic
_symmetry_space_group_name_H-M   'P 21 21 21'
_symmetry_Int_Tables_number      19
_space_group_name_Hall           'P 2ac 2ab'
loop_
_symmetry_equiv_pos_site_id
_symmetry_equiv_pos_as_xyz
1 x,y,z
2 1/2-x,-y,1/2+z
3 1/2+x,1/2-y,-z
4 -x,1/2+y,1/2-z
_cell_length_a                   11.884(2)
_cell_length_b                   15.928(3)
_cell_length_c                   29.774(5)
_cell_angle_alpha                90
_cell_angle_beta                 90
_cell_angle_gamma                90
_cell_volume                     5635.87
loop_
_atom_site_label
_atom_site_type_symbol
_atom_site_fract_x
_atom_site_fract_y
_atom_site_fract_z
K1 K 0.56863(8) 0.07722(6) 0.32226(3)
K2 K -0.06062(8) -0.07617(6) 0.32678(3)
O1 O 0.7374(2) 0.09841(19) 0.25920(11)
O2 O -0.2342(2) -0.10906(19) 0.26751(11)
O3 O 0.7512(2) 0.0026(2) 0.36848(14)
C1 C 0.0936(3) -0.0450(3) 0.22125(12)
C2 C 0.1774(4) -0.1858(3) 0.21649(14)
H1 H 0.1006 -0.2062 0.2183
H2 H 0.2145 -0.2162 0.1924
C3 C 0.1760(3) -0.2224(2) 0.29700(14)
C4 C 0.2197(3) -0.2724(3) 0.37344(14)
H3 H 0.2635 -0.3201 0.3836
H4 H 0.1411 -0.2887 0.3739
C5 C 0.1519(3) -0.1490(2) 0.41592(12)
C6 C 0.1182(4) -0.0322(3) 0.46954(13)
H5 H 0.0407 -0.0512 0.4684
H6 H 0.1394 -0.0276 0.5009
C7 C 0.0459(3) 0.0753(3) 0.41812(13)
C8 C 0.0099(3) 0.2029(2) 0.37274(13)
H7 H 0.0088 0.2614 0.3819
H8 H -0.0670 0.1826 0.3729
C9 C 0.0138(3) 0.1406(2) 0.29687(13)
C10 C 0.0437(3) 0.1042(3) 0.21670(13)
H9 H -0.0315 0.0805 0.2176
H10 H 0.0490 0.1392 0.1901
C11 C 0.3210(3) 0.2162(2) 0.29138(13)
C12 C 0.2853(4) 0.2680(2) 0.36853(13)
H11 H 0.3639 0.2844 0.3676
H12 H 0.2424 0.3159 0.3791
C13 C 0.3586(4) 0.1464(3) 0.41166(13)
C14 C 0.3935(4) 0.0340(3) 0.46724(14)
H13 H 0.4708 0.0532 0.4651
H14 H 0.3737 0.0320 0.4988
C15 C 0.4628(3) -0.0790(3) 0.41802(13)
C16 C 0.4937(3) -0.2068(3) 0.37326(14)
H15 H 0.5708 -0.1869 0.3721
H16 H 0.4954 -0.2652 0.3825
C17 C 0.4814(3) -0.1439(3) 0.29764(14)
C18 C 0.4491(3) -0.1109(3) 0.21796(13)
H17 H 0.4447 -0.1479 0.1921
H18 H 0.5245 -0.0875 0.2189
C19 C 0.3997(3) 0.0390(3) 0.21791(12)
C20 C 0.3117(3) 0.1782(3) 0.21124(13)
H19 H 0.3875 0.2008 0.2115
H20 H 0.2703 0.2071 0.1878
C21 C 0.1728(3) 0.1876(3) 0.42795(13)
H21 H 0.1547 0.2383 0.4452
C22 C 0.2071(4) 0.1133(3) 0.45933(13)
H22 H 0.2045 0.1297 0.4910
C23 C 0.3055(3) -0.1127(3) 0.46132(14)
H23 H 0.3107 -0.1267 0.4933
C24 C 0.3357(3) -0.1892(3) 0.43138(14)
H24 H 0.3543 -0.2386 0.4495
C25 C 0.3645(3) -0.2605(2) 0.30998(14)
H25 H 0.3916 -0.3186 0.3112
C26 C 0.3508(3) -0.2291(2) 0.26067(14)
H26 H 0.3691 -0.2730 0.2388
C27 C 0.2681(3) -0.0501(3) 0.18509(12)
H27 H 0.2862 -0.0707 0.1549
C28 C 0.2212(3) 0.0405(3) 0.18368(12)
H28 H 0.1994 0.0570 0.1532
C29 C 0.1432(3) 0.2235(2) 0.25777(14)
H29 H 0.1254 0.2681 0.2362
C30 C 0.1339(3) 0.2551(2) 0.30735(13)
H30 H 0.1074 0.3133 0.3089
N1 N 0.4294(3) -0.1591(2) 0.25846(11)
N2 N 0.3679(3) -0.0430(2) 0.21264(11)
N3 N 0.3173(3) 0.0896(2) 0.20008(11)
N4 N 0.2594(3) 0.1963(2) 0.25377(11)
N5 N 0.2486(3) 0.2468(2) 0.32336(11)
N6 N 0.2723(3) 0.1997(2) 0.40021(11)
N7 N 0.3215(3) 0.0944(2) 0.44508(11)
N8 N 0.3863(3) -0.0497(2) 0.44893(11)
N9 N 0.4332(3) -0.1591(2) 0.40644(12)
N10 N 0.4461(3) -0.2018(2) 0.32904(12)
N11 N 0.1749(3) -0.0968(2) 0.20496(11)
N12 N 0.2343(3) -0.2047(2) 0.25839(11)
N13 N 0.2514(3) -0.2529(2) 0.32791(12)
N14 N 0.2360(3) -0.2028(2) 0.40496(11)
N15 N 0.1895(3) -0.0951(2) 0.44811(11)
N16 N 0.1250(3) 0.0495(2) 0.44928(11)
N17 N 0.0753(3) 0.1551(2) 0.40500(11)
N18 N 0.0542(3) 0.1973(2) 0.32717(11)
N19 N 0.0604(3) 0.1562(2) 0.25641(10)
N20 N 0.1252(3) 0.0364(2) 0.21330(11)
O8 O -0.0350(2) 0.03505(18) 0.40592(9)
O9 O -0.0578(2) 0.08623(17) 0.30492(9)
O10 O 0.0059(2) -0.06757(17) 0.23924(9)
O11 O 0.0748(2) -0.21454(17) 0.30299(9)
O12 O 0.0557(2) -0.14922(17) 0.40028(9)
O13 O 0.4875(2) 0.06395(18) 0.23424(9)
O14 O 0.5525(2) -0.08883(18) 0.30499(10)
O15 O 0.5431(2) -0.0389(2) 0.40358(10)
O16 O 0.4527(2) 0.14637(19) 0.39513(9)
O17 O 0.4227(2) 0.20898(17) 0.29539(9)
K2_2 K 0.93938(8) -0.07617(6) 0.32678(3)
O3_2 O -0.2488(2) 0.0026(2) 0.36848(14)
O4 O -0.2494(3) -0.0152(2) 0.18306(12)
O5 O 0.6383(3) 0.2494(2) 0.36723(12)
O6 O 0.2121(4) 0.1170(3) 0.57506(13)
O7 O 0.2318(9) -0.0059(4) 0.3270(3)
C31 C -0.1899(4) -0.2466(3) 0.41443(15)
C32 C -0.1885(4) -0.1760(3) 0.44090(15)
H31 H -0.1325 -0.1359 0.4368
C33 C -0.2705(4) -0.1636(3) 0.47409(15)
C34 C -0.3578(4) -0.2227(3) 0.47977(14)
C35 C -0.2738(4) -0.3092(3) 0.42069(15)
H32 H -0.2729 -0.3583 0.4038
C36 C -0.3573(4) -0.2954(3) 0.45268(14)
H33 H -0.4141 -0.3350 0.4563
C37 C -0.2687(4) -0.0921(3) 0.50165(17)
H34 H -0.2112 -0.0530 0.4983
C38 C -0.3491(5) -0.0794(3) 0.53295(18)
H35 H -0.3459 -0.0317 0.5509
C39 C -0.4377(4) -0.1370(3) 0.53881(15)
H36 H -0.4933 -0.1272 0.5602
C40 C -0.4407(4) -0.2076(3) 0.51259(14)
H37 H -0.4986 -0.2462 0.5165
O18 O -0.1155(3) -0.2621(2) 0.37924(11)
H38 H -0.0542 -0.2233 0.3809
C41 C 0.4711(6) 0.2727(4) 0.4857(2)
H39 H 0.5369 0.2432 0.4796
C42 C 0.4008(7) 0.2482(5) 0.5223(2)
H40 H 0.4180 0.2019 0.5400
C43 C 0.3067(8) 0.2961(5) 0.5302(2)
H41 H 0.2609 0.2827 0.5544
C44 C 0.2778(6) 0.3635(5) 0.5032(2)
H42 H 0.2128 0.3941 0.5091
C45 C 0.3464(6) 0.3848(4) 0.4675(2)
H43 H 0.3281 0.4296 0.4489
C46 C 0.4414(5) 0.3389(4) 0.46006(16)
H44 H 0.4879 0.3540 0.4362
N21 N -0.4938(4) 0.0440(3) 0.60853(15)
O19 O -0.5890(4) 0.0285(4) 0.59079(17)
O20 O -0.4588(4) -0.0127(3) 0.63368(13)
O21 O -0.4354(5) 0.1018(3) 0.5991(2)
N22 N 0.5148(4) 0.0268(3) 0.10990(14)
O22 O 0.4231(4) 0.0221(3) 0.08892(16)
O23 O 0.5473(4) -0.0356(2) 0.13173(12)
O24 O 0.5734(4) 0.0896(3) 0.10794(17)
loop_
_geom_bond_atom_site_label_1
_geom_bond_atom_site_label_2
_geom_bond_site_symmetry_1
_geom_bond_site_symmetry_2
K1 O1 1_555 1_555
K2 O2 1_555 1_555
O3 K1 1_555 1_555
C1 N11 1_555 1_555
C2 H1 1_555 1_555
H2 C2 1_555 1_555
C3 N12 1_555 1_555
C4 H3 1_555 1_555
H4 C4 1_555 1_555
C5 N14 1_555 1_555
C6 H5 1_555 1_555
H6 C6 1_555 1_555
C7 N16 1_555 1_555
C8 H7 1_555 1_555
H8 C8 1_555 1_555
C9 N18 1_555 1_555
C10 H9 1_555 1_555
H10 C10 1_555 1_555
C11 N4 1_555 1_555
C12 H11 1_555 1_555
H12 C12 1_555 1_555
C13 N6 1_555 1_555
C14 H13 1_555 1_555
H14 C14 1_555 1_555
C15 N8 1_555 1_555
C16 H15 1_555 1_555
H16 C16 1_555 1_555
C17 N1 1_555 1_555
C18 H17 1_555 1_555
H18 C18 1_555 1_555
C19 N2 1_555 1_555
C20 H19 1_555 1_555
H20 C20 1_555 1_555
C21 H21 1_555 1_555
C22 C21 1_555 1_555
H22 C22 1_555 1_555
C23 H23 1_555 1_555
C24 C23 1_555 1_555
H24 C24 1_555 1_555
C25 H25 1_555 1_555
C26 C25 1_555 1_555
H26 C26 1_555 1_555
C27 H27 1_555 1_555
C28 C27 1_555 1_555
H28 C28 1_555 1_555
C29 H29 1_555 1_555
C30 C29 1_555 1_555
H30 C30 1_555 1_555
N1 C18 1_555 1_555
N2 C18 1_555 1_555
N3 C19 1_555 1_555
N4 C20 1_555 1_555
N5 C11 1_555 1_555
N6 C12 1_555 1_555
N7 C13 1_555 1_555
N8 C14 1_555 1_555
N9 C15 1_555 1_555
N10 C16 1_555 1_555
N11 C2 1_555 1_555
N12 C2 1_555 1_555
N13 C3 1_555 1_555
N14 C4 1_555 1_555
N15 C5 1_555 1_555
N16 C6 1_555 1_555
N17 C7 1_555 1_555
N18 C8 1_555 1_555
N19 C9 1_555 1_555
N20 C1 1_555 1_555
O8 K2 1_555 1_555
O9 K2 1_555 1_555
O10 K2 1_555 1_555
O11 K2 1_555 1_555
O12 K2 1_555 1_555
O13 K1 1_555 1_555
O14 K1 1_555 1_555
O15 K1 1_555 1_555
O16 K1 1_555 1_555
O17 K1 1_555 1_555
C31 C32 1_555 1_555
C32 H31 1_555 1_555
C33 C32 1_555 1_555
C34 C33 1_555 1_555
C35 C31 1_555 1_555
H32 C35 1_555 1_555
C36 C34 1_555 1_555
H33 C36 1_555 1_555
C37 C33 1_555 1_555
H34 C37 1_555 1_555
C38 C37 1_555 1_555
H35 C38 1_555 1_555
C39 C38 1_555 1_555
H36 C39 1_555 1_555
C40 C34 1_555 1_555
H37 C40 1_555 1_555
O18 C31 1_555 1_555
H38 O18 1_555 1_555
C41 H39 1_555 1_555
C42 C41 1_555 1_555
H40 C42 1_555 1_555
C43 C42 1_555 1_555
H41 C43 1_555 1_555
C44 C43 1_555 1_555
H42 C44 1_555 1_555
C45 C44 1_555 1_555
H43 C45 1_555 1_555
C46 C41 1_555 1_555
H44 C46 1_555 1_555
N21 O19 1_555 1_555
N22 O22 1_555 1_555
O20 N21 1_555 1_555
O21 N21 1_555 1_555
O23 N22 1_555 1_555
O24 N22 1_555 1_555
K2_2 O3 1_555 1_555
O3_2 K2 1_555 1_555
C1 O10 1_555 1_555
C3 O11 1_555 1_555
C4 N13 1_555 1_555
C5 O12 1_555 1_555
C6 N15 1_555 1_555
C7 O8 1_555 1_555
C8 N17 1_555 1_555
C9 O9 1_555 1_555
C10 N19 1_555 1_555
C10 N20 1_555 1_555
C11 O17 1_555 1_555
C12 N5 1_555 1_555
C13 O16 1_555 1_555
C14 N7 1_555 1_555
C15 O15 1_555 1_555
C16 N9 1_555 1_555
C17 N10 1_555 1_555
C17 O14 1_555 1_555
C19 O13 1_555 1_555
C20 N3 1_555 1_555
C21 N6 1_555 1_555
C21 N17 1_555 1_555
C22 N7 1_555 1_555
C22 N16 1_555 1_555
C23 N8 1_555 1_555
C23 N15 1_555 1_555
C24 N9 1_555 1_555
C24 N14 1_555 1_555
C25 N10 1_555 1_555
C25 N13 1_555 1_555
C26 N1 1_555 1_555
C26 N12 1_555 1_555
C27 N2 1_555 1_555
C27 N11 1_555 1_555
C28 N3 1_555 1_555
C28 N20 1_555 1_555
C29 N4 1_555 1_555
C29 N19 1_555 1_555
C30 N5 1_555 1_555
C30 N18 1_555 1_555
C35 C36 1_555 1_555
C39 C40 1_555 1_555
C45 C46 1_555 1_555

#END
