
#######################################################################
#
#                 Cambridge Crystallographic Data Centre
#                                CCDC 
#
#######################################################################
#
# If this CIF has been generated from an entry in the Cambridge 
# Structural Database, then it will include bibliographic, chemical, 
# crystal, experimental, refinement or atomic coordinate data resulting 
# from the CCDC's data processing and validation procedures.
#
#######################################################################

data_QUQREA
_symmetry_cell_setting           orthorhombic
_symmetry_space_group_name_H-M   'P 21 21 2'
_symmetry_Int_Tables_number      18
_space_group_name_Hall           'P 2 2ab'
loop_
_symmetry_equiv_pos_site_id
_symmetry_equiv_pos_as_xyz
1 x,y,z
2 -x,-y,z
3 1/2+x,1/2-y,-z
4 1/2-x,1/2+y,-z
_cell_length_a                   11.991(3)
_cell_length_b                   15.163(4)
_cell_length_c                   15.718(4)
_cell_angle_alpha                90
_cell_angle_beta                 90
_cell_angle_gamma                90
_cell_volume                     2857.84
loop_
_atom_site_label
_atom_site_type_symbol
_atom_site_fract_x
_atom_site_fract_y
_atom_site_fract_z
O1 O 1.0000 0.5000 0.2585(6)
O3 O 0.9880(6) 0.3991(5) 0.0571(5)
C1 C 0.6545(6) 0.4575(4) -0.0401(4)
C2 C 0.4799(5) 0.4519(4) -0.1070(4)
H1 H 0.4616 0.4317 -0.1646
C3 C 0.6983(6) 0.6158(4) -0.0450(4)
H2 H 0.6933 0.6529 -0.0952
H3 H 0.7733 0.5920 -0.0426
C4 C 0.5732(6) 0.3112(4) -0.0524(4)
H4 H 0.6501 0.2916 -0.0502
H5 H 0.5369 0.2796 -0.0984
C5 C 0.7280(6) 0.6538(4) 0.1075(4)
C6 C 0.5971(6) 0.7407(4) 0.0334(4)
H6 H 0.6142 0.7877 -0.0073
C7 C 0.6079(6) 0.7733(5) 0.1287(4)
H7 H 0.6336 0.8346 0.1321
C8 C 0.5778(6) 0.2701(4) 0.1004(4)
C9 C 0.7317(5) 0.7207(5) 0.2499(4)
H8 H 0.8091 0.7021 0.2492
H9 H 0.7300 0.7822 0.2667
C10 C 0.4594(6) 0.7840(4) 0.2463(5)
H10 H 0.5014 0.8346 0.2662
H11 H 0.3811 0.7999 0.2461
C11 C 0.7039(5) 0.5860(4) 0.3339(4)
C12 C 0.5755(6) 0.6998(5) 0.3569(4)
H12 H 0.5913 0.7526 0.3908
C13 C 0.5443(5) 0.6197(4) 0.4147(4)
H13 H 0.5496 0.6345 0.4753
C14 C 0.3912(6) 0.6529(5) 0.3276(4)
C15 C 0.6367(6) 0.4683(4) 0.4290(4)
H14 H 0.7142 0.4500 0.4263
H15 H 0.6164 0.4729 0.4886
N1 N 0.5717(4) 0.4029(4) -0.0717(3)
N2 N 0.6195(4) 0.5437(3) -0.0532(3)
N3 N 0.6788(5) 0.6697(4) 0.0303(3)
N4 N 0.6871(4) 0.7131(4) 0.1645(4)
N5 N 0.5187(5) 0.2876(4) 0.0277(3)
N6 N 0.4938(5) 0.7631(3) 0.1602(3)
N7 N 0.6732(4) 0.6700(4) 0.3122(4)
N8 N 0.6265(5) 0.5544(4) 0.3902(3)
N9 N 0.4762(5) 0.7114(4) 0.3046(3)
N10 N 0.4308(4) 0.5982(4) 0.3901(4)
O5 O 0.7409(4) 0.4350(3) -0.0070(3)
O6 O 0.7984(4) 0.5971(3) 0.1210(3)
O7 O 0.7859(4) 0.5465(3) 0.3092(3)
O8 O 0.2990(4) 0.6523(3) 0.2977(3)
O9 O 0.6782(4) 0.2820(3) 0.1096(3)
K1 K 0.80685(15) 0.42572(12) 0.16455(12)
O1_2 O 0.0000 0.5000 0.2585(6)
O3A O 0.0120(6) 0.6009(5) 0.0571(5)
C1A C 0.3455(6) 0.5425(4) -0.0401(4)
C2A C 0.5201(5) 0.5481(4) -0.1070(4)
H1A H 0.5384 0.5683 -0.1646
C3A C 0.3017(6) 0.3842(4) -0.0450(4)
H2A H 0.3067 0.3471 -0.0952
H3A H 0.2267 0.4080 -0.0426
C4A C 0.4268(6) 0.6888(4) -0.0524(4)
H4A H 0.3499 0.7084 -0.0502
H5A H 0.4631 0.7204 -0.0984
C5A C 0.2720(6) 0.3462(4) 0.1075(4)
C6A C 0.4029(6) 0.2593(4) 0.0334(4)
H6A H 0.3858 0.2123 -0.0073
C7A C 0.3921(6) 0.2267(5) 0.1287(4)
H7A H 0.3664 0.1654 0.1321
C8A C 0.4222(6) 0.7299(4) 0.1004(4)
C9A C 0.2683(5) 0.2793(5) 0.2499(4)
H8A H 0.1909 0.2979 0.2492
H9A H 0.2700 0.2178 0.2667
C10A C 0.5406(6) 0.2160(4) 0.2463(5)
H10A H 0.4986 0.1654 0.2662
H11A H 0.6189 0.2001 0.2461
C11A C 0.2961(5) 0.4140(4) 0.3339(4)
C12A C 0.4245(6) 0.3002(5) 0.3569(4)
H12A H 0.4087 0.2474 0.3908
C13A C 0.4557(5) 0.3803(4) 0.4147(4)
H13A H 0.4504 0.3655 0.4753
C14A C 0.6088(6) 0.3471(5) 0.3276(4)
C15A C 0.3633(6) 0.5317(4) 0.4290(4)
H14A H 0.2858 0.5500 0.4263
H15A H 0.3836 0.5271 0.4886
N1A N 0.4283(4) 0.5971(4) -0.0717(3)
N2A N 0.3805(4) 0.4563(3) -0.0532(3)
N3A N 0.3212(5) 0.3303(4) 0.0303(3)
N4A N 0.3129(4) 0.2869(4) 0.1645(4)
N5A N 0.4813(5) 0.7124(4) 0.0277(3)
N6A N 0.5062(5) 0.2369(3) 0.1602(3)
N7A N 0.3268(4) 0.3300(4) 0.3122(4)
N8A N 0.3735(5) 0.4456(4) 0.3902(3)
N9A N 0.5238(5) 0.2886(4) 0.3046(3)
N10A N 0.5692(4) 0.4018(4) 0.3901(4)
O5A O 0.2591(4) 0.5650(3) -0.0070(3)
O6A O 0.2016(4) 0.4029(3) 0.1210(3)
O7A O 0.2141(4) 0.4535(3) 0.3092(3)
O8A O 0.7010(4) 0.3477(3) 0.2977(3)
O9A O 0.3218(4) 0.7180(3) 0.1096(3)
K1A K 0.19315(15) 0.57428(12) 0.16455(12)
K1A_2 K 1.19315(15) 0.57428(12) 0.16455(12)
O2 O 0.5000 1.0000 0.1088(6)
O4 O 0.5000 0.5000 0.1633(9)
Br1 Br 0.72042(7) 1.00145(5) 0.24275(4)
C16 C 0.8634(6) 0.8328(5) 0.3924(4)
C17 C 0.9458(6) 0.8586(6) 0.3375(5)
H16 H 0.9382 0.9109 0.3072
C18 C 1.0424(6) 0.8065(7) 0.3264(5)
H17 H 1.0978 0.8247 0.2889
C19 C 1.0551(6) 0.7288(6) 0.3706(5)
H18 H 1.1173 0.6936 0.3607
C20 C 0.9746(5) 0.7019(5) 0.4309(4)
C21 C 0.9887(7) 0.6246(5) 0.4818(4)
H19 H 1.0516 0.5894 0.4750
C22 C 0.9087(6) 0.6026(5) 0.5410(5)
H20 H 0.9186 0.5527 0.5746
C23 C 0.8129(6) 0.6540(5) 0.5514(4)
H21 H 0.7592 0.6372 0.5910
C24 C 0.7974(6) 0.7282(5) 0.5043(4)
H22 H 0.7337 0.7621 0.5127
C25 C 0.8774(5) 0.7550(4) 0.4424(4)
O10 O 0.7670(4) 0.8780(3) 0.4030(3)
H23 H 0.7615 0.9157 0.3658
loop_
_geom_bond_atom_site_label_1
_geom_bond_atom_site_label_2
_geom_bond_site_symmetry_1
_geom_bond_site_symmetry_2
O1 K1 1_555 1_555
O3 K1 1_555 1_555
C1 N1 1_555 1_555
C2 H1 1_555 1_555
C3 H2 1_555 1_555
H3 C3 1_555 1_555
C4 H4 1_555 1_555
H5 C4 1_555 1_555
C5 N3 1_555 1_555
C6 H6 1_555 1_555
C7 C6 1_555 1_555
H7 C7 1_555 1_555
C8 N5 1_555 1_555
C9 H8 1_555 1_555
H9 C9 1_555 1_555
C10 H10 1_555 1_555
H11 C10 1_555 1_555
C11 N7 1_555 1_555
C12 H12 1_555 1_555
C13 C12 1_555 1_555
H13 C13 1_555 1_555
C14 N9 1_555 1_555
C15 H14 1_555 1_555
H15 C15 1_555 1_555
C16 C17 1_555 1_555
C17 H16 1_555 1_555
C18 C17 1_555 1_555
H17 C18 1_555 1_555
C19 C18 1_555 1_555
H18 C19 1_555 1_555
C20 C19 1_555 1_555
C21 C20 1_555 1_555
H19 C21 1_555 1_555
C22 C21 1_555 1_555
H20 C22 1_555 1_555
C23 C22 1_555 1_555
H21 C23 1_555 1_555
C24 C23 1_555 1_555
H22 C24 1_555 1_555
C25 C16 1_555 1_555
N1 C2 1_555 1_555
N2 C1 1_555 1_555
N3 C3 1_555 1_555
N4 C5 1_555 1_555
N5 C4 1_555 1_555
N6 C7 1_555 1_555
N7 C9 1_555 1_555
N8 C11 1_555 1_555
N9 C10 1_555 1_555
N10 C13 1_555 1_555
O5 C1 1_555 1_555
O6 C5 1_555 1_555
O7 C11 1_555 1_555
O8 C14 1_555 1_555
O9 C8 1_555 1_555
O10 C16 1_555 1_555
H23 O10 1_555 1_555
K1 O5 1_555 1_555
O1_2 K1A 1_555 1_555
O3A K1A 1_555 1_555
C1A N1A 1_555 1_555
C2A C2 1_555 1_555
H1A C2A 1_555 1_555
C3A H2A 1_555 1_555
H3A C3A 1_555 1_555
C4A H4A 1_555 1_555
H5A C4A 1_555 1_555
C5A N3A 1_555 1_555
C6A N5 1_555 1_555
H6A C6A 1_555 1_555
C7A C6A 1_555 1_555
H7A C7A 1_555 1_555
C8A N6 1_555 1_555
C9A H8A 1_555 1_555
H9A C9A 1_555 1_555
C10A H10A 1_555 1_555
H11A C10A 1_555 1_555
C11A N7A 1_555 1_555
C12A H12A 1_555 1_555
C13A C12A 1_555 1_555
H13A C13A 1_555 1_555
C14A N9A 1_555 1_555
C15A N10 1_555 1_555
H14A C15A 1_555 1_555
H15A C15A 1_555 1_555
N1A C2A 1_555 1_555
N2A C2 1_555 1_555
N3A C3A 1_555 1_555
N4A C5A 1_555 1_555
N5A C6 1_555 1_555
N6A C8 1_555 1_555
N7A C9A 1_555 1_555
N8A C11A 1_555 1_555
N9A C10A 1_555 1_555
N10A C15 1_555 1_555
O5A C1A 1_555 1_555
O6A C5A 1_555 1_555
O7A C11A 1_555 1_555
O8A K1 1_555 1_555
O9A C8A 1_555 1_555
K1A O8 1_555 1_555
K1A_2 O1 1_555 1_555
C3 N2 1_555 1_555
C4 N1 1_555 1_555
C6 N3 1_555 1_555
C7 N4 1_555 1_555
C9 N4 1_555 1_555
C10 N6 1_555 1_555
C12 N7 1_555 1_555
C12 N9 1_555 1_555
C13 N8 1_555 1_555
C14 N10 1_555 1_555
C15 N8 1_555 1_555
C20 C25 1_555 1_555
C24 C25 1_555 1_555
N2 C2A 1_555 1_555
O6 K1 1_555 1_555
O7 K1 1_555 1_555
O9 K1 1_555 1_555
C1A N2A 1_555 1_555
C3A N2A 1_555 1_555
C4A N1A 1_555 1_555
C4A N5A 1_555 1_555
C6A N3A 1_555 1_555
C7A N4A 1_555 1_555
C7A N6A 1_555 1_555
C8A N5A 1_555 1_555
C9A N4A 1_555 1_555
C10A N6A 1_555 1_555
C12A N7A 1_555 1_555
C12A N9A 1_555 1_555
C13A N8A 1_555 1_555
C13A N10A 1_555 1_555
C14A N10A 1_555 1_555
C14A O8A 1_555 1_555
C15A N8A 1_555 1_555
O5A K1A 1_555 1_555
O6A K1A 1_555 1_555
O7A K1A 1_555 1_555
O9A K1A 1_555 1_555

#END
