
#######################################################################
#
#                 Cambridge Crystallographic Data Centre
#                                CCDC 
#
#######################################################################
#
# If this CIF has been generated from an entry in the Cambridge 
# Structural Database, then it will include bibliographic, chemical, 
# crystal, experimental, refinement or atomic coordinate data resulting 
# from the CCDC's data processing and validation procedures.
#
#######################################################################

data_QUQSOL
_symmetry_cell_setting           orthorhombic
_symmetry_space_group_name_H-M   'P 21 21 21'
_symmetry_Int_Tables_number      19
_space_group_name_Hall           'P 2ac 2ab'
loop_
_symmetry_equiv_pos_site_id
_symmetry_equiv_pos_as_xyz
1 x,y,z
2 1/2-x,-y,1/2+z
3 1/2+x,1/2-y,-z
4 -x,1/2+y,1/2-z
_cell_length_a                   11.850(2)
_cell_length_b                   29.480(6)
_cell_length_c                   16.069(3)
_cell_angle_alpha                90
_cell_angle_beta                 90
_cell_angle_gamma                90
_cell_volume                     5613.51
loop_
_atom_site_label
_atom_site_type_symbol
_atom_site_fract_x
_atom_site_fract_y
_atom_site_fract_z
O1 O -0.8919(3) 0.13819(9) -0.5070(2)
O2 O -1.0057(2) 0.24002(10) -0.35690(18)
O3 O -0.0207(3) 0.13052(12) -0.2543(2)
O4 O -0.0344(3) 0.23769(11) -0.14615(18)
O7 O -0.1443(3) 0.13040(10) 0.0010(2)
C1 C -0.6755(3) 0.28097(11) -0.2849(2)
C2 C -0.5878(3) 0.29005(12) -0.4221(2)
H1 H -0.5501 0.3154 -0.4487
H2 H -0.6648 0.2892 -0.4426
C3 C -0.5914(3) 0.20936(12) -0.4661(2)
C4 C -0.5490(3) 0.13339(12) -0.5200(2)
H3 H -0.5054 0.1242 -0.5682
H4 H -0.6277 0.1344 -0.5364
C5 C -0.6224(3) 0.08560(11) -0.4047(2)
C6 C -0.6573(3) 0.02867(12) -0.2948(2)
H5 H -0.7344 0.0306 -0.3149
H6 H -0.6365 -0.0031 -0.2933
C7 C -0.7289(3) 0.07844(13) -0.1839(2)
C8 C -0.7681(3) 0.12161(13) -0.0555(2)
H7 H -0.8444 0.1223 -0.0773
H8 H -0.7717 0.1106 0.0013
C9 C -0.7600(3) 0.19981(13) -0.1100(2)
C10 C -0.7289(3) 0.28152(12) -0.1366(2)
H9 H -0.8040 0.2811 -0.1606
H10 H -0.7246 0.3072 -0.0990
C11 C -0.2840(3) 0.20596(12) -0.3854(2)
C12 C -0.2727(3) 0.13026(13) -0.4516(2)
H11 H -0.2680 0.1218 -0.5099
H12 H -0.1967 0.1303 -0.4292
C13 C -0.3117(3) 0.08214(12) -0.3289(2)
C14 C -0.3824(3) 0.02821(11) -0.2249(2)
H13 H -0.3053 0.0298 -0.2047
H14 H -0.4021 -0.0036 -0.2307
C15 C -0.4178(3) 0.08062(12) -0.1069(2)
C16 C -0.4940(4) 0.12180(13) 0.0149(2)
H15 H -0.5380 0.1105 0.0614
H16 H -0.4155 0.1221 0.0320
C17 C -0.4543(4) 0.20039(13) -0.0311(2)
C18 C -0.4583(4) 0.28251(13) -0.0609(2)
H17 H -0.4974 0.3060 -0.0301
H18 H -0.3819 0.2807 -0.0394
C19 C -0.3673(3) 0.28073(12) -0.1988(2)
C20 C -0.3156(3) 0.28625(12) -0.3471(2)
H19 H -0.3183 0.3130 -0.3822
H20 H -0.2402 0.2842 -0.3239
C21 C -0.5463(3) 0.31548(11) -0.1952(3)
H21 H -0.5648 0.3458 -0.1743
C22 C -0.6325(3) 0.23568(13) -0.0216(2)
H22 H -0.6508 0.2565 0.0240
C23 C -0.6444(3) 0.18519(13) 0.0055(2)
H23 H -0.6728 0.1823 0.0625
C24 C -0.6062(3) 0.06489(13) -0.0727(2)
H24 H -0.6285 0.0464 -0.0247
C25 C -0.5708(3) 0.03428(12) -0.1476(2)
H25 H -0.5748 0.0020 -0.1336
C26 C -0.4691(3) 0.03930(12) -0.3714(2)
H26 H -0.4640 0.0075 -0.3890
C27 C -0.4346(3) 0.07190(12) -0.4424(2)
H27 H -0.4137 0.0553 -0.4930
C28 C -0.4009(3) 0.19626(12) -0.5018(2)
H28 H -0.3737 0.1960 -0.5594
C29 C -0.4137(3) 0.24539(13) -0.4682(2)
H29 H -0.3932 0.2680 -0.5103
C30 C -0.4996(3) 0.31779(12) -0.2844(3)
H30 H -0.4843 0.3491 -0.3012
N1 N -0.6471(3) 0.28763(10) -0.2026(2)
N2 N -0.5903(3) 0.29794(10) -0.3336(2)
N3 N -0.5314(3) 0.24839(9) -0.44615(18)
N4 N -0.5143(3) 0.17814(10) -0.49551(19)
N5 N -0.5355(3) 0.09923(10) -0.45502(19)
N6 N -0.5839(3) 0.05201(10) -0.35334(19)
N7 N -0.6529(3) 0.04671(11) -0.2108(2)
N8 N -0.7012(3) 0.09011(10) -0.1050(2)
N9 N -0.7231(3) 0.16757(11) -0.05500(19)
N10 N -0.7117(3) 0.23978(10) -0.08941(19)
N11 N -0.3194(3) 0.17628(10) -0.44553(19)
N12 N -0.3391(3) 0.09651(10) -0.40781(19)
N13 N -0.3879(3) 0.04949(10) -0.3056(2)
N14 N -0.4566(3) 0.04878(10) -0.1634(2)
N15 N -0.5064(3) 0.09083(11) -0.0546(2)
N16 N -0.5290(3) 0.16781(11) -0.0029(2)
N17 N -0.5147(3) 0.23943(11) -0.0462(2)
N18 N -0.4537(3) 0.29542(11) -0.1479(2)
N19 N -0.3968(3) 0.29161(10) -0.2790(2)
N20 N -0.3370(3) 0.24645(10) -0.39782(19)
O10 O -0.3532(2) 0.19550(9) -0.03931(17)
O11 O -0.3233(2) 0.09579(9) -0.10331(16)
O12 O -0.2319(2) 0.09503(9) -0.28724(17)
O13 O -0.2153(2) 0.19784(8) -0.33044(16)
O14 O -0.2801(2) 0.26353(9) -0.17640(18)
O15 O -0.8085(2) 0.09296(9) -0.22459(17)
O16 O -0.7192(2) 0.10068(9) -0.40613(16)
O17 O -0.6917(2) 0.20371(9) -0.46008(16)
O18 O -0.7631(2) 0.26388(9) -0.30999(17)
O19 O -0.8276(2) 0.19321(8) -0.16622(17)
K1 K -0.20155(8) 0.17290(3) -0.16819(5)
K2 K -0.83954(7) 0.17467(3) -0.33311(5)
O3_2 O -1.0207(3) 0.13052(12) -0.2543(2)
K2_2 K 0.16046(7) 0.17467(3) -0.33311(5)
O5 O 0.4797(3) 0.17802(12) -0.7530(3)
O6 O 0.9338(3) 0.07314(9) -0.86570(19)
O8 O 0.4837(11) 0.1729(4) -0.2487(7)
C31 C 0.9181(4) 0.04261(13) -0.5207(3)
C32 C 0.9941(4) 0.03196(15) -0.4577(3)
H31 H 1.0638 0.0464 -0.4547
C33 C 0.9641(5) -0.00060(16) -0.3994(3)
H32 H 1.0144 -0.0080 -0.3571
C34 C 0.8607(5) -0.02227(16) -0.4029(3)
H33 H 0.8419 -0.0440 -0.3633
C35 C 0.7861(5) -0.01160(14) -0.4652(3)
H34 H 0.7163 -0.0260 -0.4676
C36 C 0.8150(4) 0.02090(13) -0.5250(3)
H35 H 0.7647 0.0279 -0.5676
O21 O 0.9498(3) 0.07469(10) -0.5777(2)
H42 H 0.8990 0.0783 -0.6117
C37 C 0.3684(5) -0.00430(16) -0.5457(3)
H36 H 0.3163 -0.0086 -0.5031
C38 C 0.4644(5) -0.03133(17) -0.5504(3)
H37 H 0.4759 -0.0534 -0.5100
C39 C 0.5430(5) -0.02647(17) -0.6127(4)
H38 H 0.6058 -0.0453 -0.6159
C40 C 0.5247(5) 0.00812(19) -0.6714(4)
H39 H 0.5776 0.0129 -0.7133
C41 C 0.4288(5) 0.03545(17) -0.6679(3)
H40 H 0.4172 0.0579 -0.7076
C42 C 0.3513(5) 0.02892(15) -0.6049(3)
O20 O 0.2568(3) 0.05445(12) -0.5979(2)
H41 H 0.2547 0.0730 -0.6359
N21 N 0.7284(3) 0.10892(11) -0.7145(2)
O9 O 0.6779(3) 0.11599(13) -0.6486(2)
O25 O 0.6870(3) 0.12259(11) -0.7820(2)
O26 O 0.8201(3) 0.08797(10) -0.71462(19)
N22 N 0.2227(4) 0.09976(15) -0.8054(3)
O22 O 0.1663(5) 0.09440(19) -0.7454(3)
O23 O 0.3121(5) 0.11369(17) -0.8155(5)
O24 O 0.1720(6) 0.0840(2) -0.8690(4)
loop_
_geom_bond_atom_site_label_1
_geom_bond_atom_site_label_2
_geom_bond_site_symmetry_1
_geom_bond_site_symmetry_2
O1 K2 1_555 1_555
O2 K2 1_555 1_555
O3 K1 1_555 1_555
O4 K1 1_555 1_555
O7 K1 1_555 1_555
C1 N1 1_555 1_555
C2 H1 1_555 1_555
H2 C2 1_555 1_555
C3 N3 1_555 1_555
C4 H3 1_555 1_555
H4 C4 1_555 1_555
C5 N5 1_555 1_555
C6 H5 1_555 1_555
H6 C6 1_555 1_555
C7 N7 1_555 1_555
C8 H7 1_555 1_555
H8 C8 1_555 1_555
C9 N9 1_555 1_555
C10 H9 1_555 1_555
H10 C10 1_555 1_555
C11 N11 1_555 1_555
C12 H11 1_555 1_555
H12 C12 1_555 1_555
C13 N12 1_555 1_555
C14 H13 1_555 1_555
H14 C14 1_555 1_555
C15 N14 1_555 1_555
C16 H15 1_555 1_555
H16 C16 1_555 1_555
C17 N16 1_555 1_555
C18 H17 1_555 1_555
H18 C18 1_555 1_555
C19 N18 1_555 1_555
C20 H19 1_555 1_555
H20 C20 1_555 1_555
C21 H21 1_555 1_555
C22 H22 1_555 1_555
C23 C22 1_555 1_555
H23 C23 1_555 1_555
C24 H24 1_555 1_555
C25 C24 1_555 1_555
H25 C25 1_555 1_555
C26 H26 1_555 1_555
C27 C26 1_555 1_555
H27 C27 1_555 1_555
C28 H28 1_555 1_555
C29 C28 1_555 1_555
H29 C29 1_555 1_555
C30 C21 1_555 1_555
H30 C30 1_555 1_555
C31 C32 1_555 1_555
C32 H31 1_555 1_555
C33 C32 1_555 1_555
H32 C33 1_555 1_555
C34 C33 1_555 1_555
H33 C34 1_555 1_555
C35 C34 1_555 1_555
H34 C35 1_555 1_555
C36 C31 1_555 1_555
H35 C36 1_555 1_555
C37 H36 1_555 1_555
C38 C37 1_555 1_555
H37 C38 1_555 1_555
C39 C38 1_555 1_555
H38 C39 1_555 1_555
C40 C39 1_555 1_555
H39 C40 1_555 1_555
C41 C40 1_555 1_555
H40 C41 1_555 1_555
C42 C37 1_555 1_555
N1 C10 1_555 1_555
N2 C1 1_555 1_555
N3 C2 1_555 1_555
N4 C3 1_555 1_555
N5 C4 1_555 1_555
N6 C5 1_555 1_555
N7 C6 1_555 1_555
N8 C7 1_555 1_555
N9 C8 1_555 1_555
N10 C9 1_555 1_555
N11 C12 1_555 1_555
N12 C12 1_555 1_555
N13 C13 1_555 1_555
N14 C14 1_555 1_555
N15 C15 1_555 1_555
N16 C16 1_555 1_555
N17 C17 1_555 1_555
N18 C18 1_555 1_555
N19 C19 1_555 1_555
N20 C11 1_555 1_555
N21 O9 1_555 1_555
N22 O22 1_555 1_555
O10 C17 1_555 1_555
O11 C15 1_555 1_555
O12 C13 1_555 1_555
O13 C11 1_555 1_555
O14 C19 1_555 1_555
O15 C7 1_555 1_555
O16 C5 1_555 1_555
O17 C3 1_555 1_555
O18 C1 1_555 1_555
O19 C9 1_555 1_555
O20 C42 1_555 1_555
H41 O20 1_555 1_555
O21 C31 1_555 1_555
H42 O21 1_555 1_555
O23 N22 1_555 1_555
O24 N22 1_555 1_555
O25 N21 1_555 1_555
O26 N21 1_555 1_555
K1 O10 1_555 1_555
K2 O15 1_555 1_555
O3_2 K2 1_555 1_555
K2_2 O3 1_555 1_555
C2 N2 1_555 1_555
C4 N4 1_555 1_555
C6 N6 1_555 1_555
C8 N8 1_555 1_555
C10 N10 1_555 1_555
C14 N13 1_555 1_555
C16 N15 1_555 1_555
C18 N17 1_555 1_555
C20 N19 1_555 1_555
C20 N20 1_555 1_555
C21 N1 1_555 1_555
C21 N18 1_555 1_555
C22 N10 1_555 1_555
C22 N17 1_555 1_555
C23 N9 1_555 1_555
C23 N16 1_555 1_555
C24 N8 1_555 1_555
C24 N15 1_555 1_555
C25 N7 1_555 1_555
C25 N14 1_555 1_555
C26 N6 1_555 1_555
C26 N13 1_555 1_555
C27 N5 1_555 1_555
C27 N12 1_555 1_555
C28 N4 1_555 1_555
C28 N11 1_555 1_555
C29 N3 1_555 1_555
C29 N20 1_555 1_555
C30 N2 1_555 1_555
C30 N19 1_555 1_555
C35 C36 1_555 1_555
C41 C42 1_555 1_555
O11 K1 1_555 1_555
O12 K1 1_555 1_555
O13 K1 1_555 1_555
O14 K1 1_555 1_555
O16 K2 1_555 1_555
O17 K2 1_555 1_555
O18 K2 1_555 1_555
O19 K2 1_555 1_555

#END
