
#######################################################################
#
#                 Cambridge Crystallographic Data Centre
#                                CCDC 
#
#######################################################################
#
# If this CIF has been generated from an entry in the Cambridge 
# Structural Database, then it will include bibliographic, chemical, 
# crystal, experimental, refinement or atomic coordinate data resulting 
# from the CCDC's data processing and validation procedures.
#
#######################################################################

data_QUQSEB
_symmetry_cell_setting           monoclinic
_symmetry_space_group_name_H-M   'P 21'
_symmetry_Int_Tables_number      4
_space_group_name_Hall           'P 2yb'
loop_
_symmetry_equiv_pos_site_id
_symmetry_equiv_pos_as_xyz
1 x,y,z
2 -x,1/2+y,-z
_cell_length_a                   11.997(3)
_cell_length_b                   16.249(4)
_cell_length_c                   14.099(3)
_cell_angle_alpha                90
_cell_angle_beta                 91.711(3)
_cell_angle_gamma                90
_cell_volume                     2747.22
loop_
_atom_site_label
_atom_site_type_symbol
_atom_site_fract_x
_atom_site_fract_y
_atom_site_fract_z
O1 O 1.2311(2) 0.11822(19) -0.0218(2)
O2 O 0.2660(2) 0.3205(2) -0.0156(2)
O4 O 0.2381(3) 0.2338(3) -0.2474(3)
O5 O 1.1127(3) -0.0222(2) -0.2328(2)
K1 K 0.43958(8) 0.29346(6) -0.13828(7)
K2 K 1.05910(8) 0.14783(5) -0.14970(6)
O6 O 0.9223(2) 0.01531(17) -0.0900(2)
O8 O 0.3014(14) 0.4082(11) -0.2117(7)
O9 O 0.9952(2) 0.16322(16) 0.03797(18)
O10 O 1.0511(2) 0.31196(16) -0.10389(18)
O11 O 0.9345(2) 0.07229(18) -0.30298(19)
O12 O 1.0174(2) 0.25792(18) -0.31337(19)
C1 C 0.7720(3) -0.0445(2) -0.2350(3)
H1 H 0.7268 -0.0916 -0.2536
H2 H 0.8495 -0.0614 -0.2350
C2 C 0.6359(3) -0.0316(2) -0.0986(3)
H3 H 0.6116 -0.0892 -0.1009
C3 C 0.6556(3) -0.0006(2) 0.0047(3)
H4 H 0.6380 -0.0434 0.0510
C4 C 0.8244(3) 0.0061(2) -0.0752(3)
C5 C 0.8328(3) 0.0475(2) 0.0941(3)
H5 H 0.9100 0.0304 0.0904
H6 H 0.8016 0.0199 0.1482
C6 C 0.9125(3) 0.1852(2) 0.0783(2)
N1 N 0.7443(3) -0.0204(2) -0.1400(2)
N2 N 0.7733(2) 0.0205(2) 0.0093(2)
N3 N 0.8299(2) 0.13514(19) 0.1104(2)
N4 N 0.8866(2) 0.26410(19) 0.1027(2)
C7 C 0.6256(3) 0.3673(3) -0.3325(3)
C8 C 0.8095(3) 0.4054(3) -0.3678(3)
H7 H 0.8258 0.4537 -0.4066
C9 C 0.7730(3) 0.3300(3) -0.4308(3)
H8 H 0.7756 0.3431 -0.4985
C10 C 0.9355(3) 0.2964(2) -0.3410(3)
C11 C 0.5878(3) 0.2503(3) -0.4416(3)
H9 H 0.5108 0.2678 -0.4372
H10 H 0.6031 0.2437 -0.5083
C12 C 0.8606(3) 0.1861(3) -0.4459(2)
H11 H 0.8358 0.1895 -0.5119
H12 H 0.9376 0.1679 -0.4442
C13 C 0.5308(3) 0.1455(3) -0.3267(3)
C14 C 0.6782(3) 0.1084(3) -0.4220(3)
H13 H 0.6678 0.0935 -0.4890
C15 C 0.6497(3) 0.0354(3) -0.3561(3)
H14 H 0.6252 -0.0130 -0.3925
C16 C 0.8369(3) 0.0726(2) -0.3320(2)
C17 C 0.5009(3) 0.0212(3) -0.2307(3)
H15 H 0.4966 -0.0357 -0.2511
H16 H 0.4254 0.0423 -0.2289
C18 C 0.5193(3) 0.0817(2) -0.0704(3)
C19 C 0.5616(3) 0.1143(3) 0.0968(3)
H17 H 0.5705 0.0774 0.1505
H18 H 0.4854 0.1344 0.0955
C20 C 0.6061(3) 0.2617(2) 0.0865(2)
C21 C 0.7442(3) 0.1791(2) 0.1597(2)
H19 H 0.7371 0.1591 0.2249
C22 C 0.7857(3) 0.2699(2) 0.1574(2)
H20 H 0.8017 0.2910 0.2214
C23 C 0.6884(3) 0.4007(2) 0.0906(3)
H21 H 0.6111 0.4183 0.0897
H22 H 0.7273 0.4302 0.1415
C24 C 0.9594(3) 0.3320(2) 0.0824(3)
H23 H 1.0349 0.3114 0.0776
H24 H 0.9588 0.3705 0.1349
C25 C 0.6721(3) 0.4390(2) -0.0784(3)
C26 C 0.8521(3) 0.4452(2) -0.0075(3)
H25 H 0.8755 0.4885 0.0371
C27 C 0.8564(3) 0.4747(2) -0.1124(3)
H26 H 0.8815 0.5320 -0.1163
C28 C 0.9784(3) 0.3633(2) -0.0888(3)
C29 C 0.7027(3) 0.4858(2) -0.2421(3)
H27 H 0.6248 0.5015 -0.2401
H28 H 0.7439 0.5329 -0.2646
C30 C 0.9748(3) 0.4232(2) -0.2498(3)
H29 H 0.9739 0.4804 -0.2697
H30 H 1.0514 0.4042 -0.2509
N5 N 0.7135(3) 0.4192(2) -0.3090(2)
N6 N 0.6600(3) 0.3150(2) -0.4023(2)
N7 N 0.9085(2) 0.3757(2) -0.3167(2)
N8 N 0.8549(3) 0.2677(2) -0.4037(2)
N9 N 0.6007(3) 0.1718(2) -0.3952(2)
N10 N 0.5614(3) 0.0677(2) -0.3000(2)
N11 N 0.7937(2) 0.1259(2) -0.3985(2)
N12 N 0.7547(3) 0.0205(2) -0.3048(2)
N13 N 0.5503(2) 0.0241(2) -0.1357(2)
N14 N 0.5802(3) 0.0694(2) 0.0112(2)
N15 N 0.6370(2) 0.1833(2) 0.1098(2)
N16 N 0.6927(2) 0.3132(2) 0.1116(2)
N17 N 0.7360(2) 0.4235(2) 0.0025(2)
N18 N 0.7425(2) 0.4660(2) -0.1464(2)
N19 N 0.9288(2) 0.37570(19) -0.0048(2)
N20 N 0.9368(2) 0.4184(2) -0.1529(2)
O13 O 0.5341(2) 0.36905(19) -0.29834(19)
O14 O 0.4520(2) 0.18560(18) -0.2954(2)
O15 O 0.4464(2) 0.13365(19) -0.0840(2)
O16 O 0.5166(2) 0.28307(19) 0.0515(2)
O17 O 0.5712(2) 0.43134(17) -0.08674(19)
O4_2 O 1.2381(3) 0.2338(3) -0.2474(3)
K2_2 K 0.05910(8) 0.14783(5) -0.14970(6)
O3 O -0.7287(3) 0.2128(4) -0.8462(3)
O7 O -0.2605(13) 0.2229(8) -0.1470(6)
C31 C -0.6112(3) 0.0146(3) -0.4879(3)
H31 H -0.5566 -0.0261 -0.4859
C32 C -0.6019(3) 0.0789(3) -0.5490(3)
C33 C -0.6827(4) 0.1408(3) -0.5543(3)
H32 H -0.6758 0.1848 -0.5958
C34 C -0.7734(4) 0.1350(3) -0.4960(4)
H33 H -0.8282 0.1755 -0.4992
C41 C -0.7841(4) 0.0699(3) -0.4330(3)
H38 H -0.8454 0.0668 -0.3943
C42 C -0.7015(3) 0.0090(3) -0.4283(3)
O20 O -0.7130(3) -0.0541(2) -0.3655(2)
H41 H -0.7710 -0.0481 -0.3370
O21 O -0.5097(3) 0.0804(2) -0.6051(2)
H42 H -0.5121 0.1214 -0.6389
C35 C -0.9178(4) 0.4786(3) -0.4616(3)
H34 H -0.9812 0.5113 -0.4578
C36 C -0.9188(4) 0.4102(3) -0.5206(3)
C37 C -0.8258(5) 0.3615(3) -0.5277(4)
H35 H -0.8261 0.3158 -0.5674
C38 C -0.7323(5) 0.3824(4) -0.4742(5)
H36 H -0.6689 0.3499 -0.4781
C39 C -0.7294(5) 0.4485(4) -0.4163(5)
H37 H -0.6647 0.4611 -0.3814
C40 C -0.8237(4) 0.4979(3) -0.4089(4)
O18 O -0.8175(3) 0.5645(3) -0.3515(3)
H39 H -0.8769 0.5895 -0.3546
O19 O -1.0186(3) 0.3937(2) -0.5706(3)
H40 H -1.0112 0.3523 -0.6031
N21 N -0.9708(4) 0.2034(3) -0.6959(3)
O25 O -1.0472(4) 0.2310(4) -0.6482(3)
O26 O -0.9596(5) 0.1310(3) -0.7117(4)
O27 O -0.9057(4) 0.2547(3) -0.7258(3)
N22 N -0.4859(4) 0.2855(3) 0.3135(3)
O22 O -0.3880(5) 0.2792(6) 0.3303(3)
O23 O -0.5314(10) 0.3449(5) 0.3284(7)
O24 O -0.5261(5) 0.2194(4) 0.2784(3)
loop_
_geom_bond_atom_site_label_1
_geom_bond_atom_site_label_2
_geom_bond_site_symmetry_1
_geom_bond_site_symmetry_2
O1 K2 1_555 1_555
O2 K1 1_555 1_555
O4 K1 1_555 1_555
O5 K2 1_555 1_555
K1 O8 1_555 1_555
K2 O6 1_555 1_555
O6 C4 1_555 1_555
O9 K2 1_555 1_555
O10 K2 1_555 1_555
O11 K2 1_555 1_555
O12 K2 1_555 1_555
C1 H1 1_555 1_555
H2 C1 1_555 1_555
C2 H3 1_555 1_555
C3 C2 1_555 1_555
H4 C3 1_555 1_555
C4 N1 1_555 1_555
C5 H5 1_555 1_555
H6 C5 1_555 1_555
C6 O9 1_555 1_555
N1 C1 1_555 1_555
N2 C3 1_555 1_555
N3 C5 1_555 1_555
N4 C6 1_555 1_555
C7 N5 1_555 1_555
C8 H7 1_555 1_555
C9 C8 1_555 1_555
H8 C9 1_555 1_555
C10 O12 1_555 1_555
C11 H9 1_555 1_555
H10 C11 1_555 1_555
C12 H11 1_555 1_555
H12 C12 1_555 1_555
C13 N9 1_555 1_555
C14 H13 1_555 1_555
C15 C14 1_555 1_555
H14 C15 1_555 1_555
C16 O11 1_555 1_555
C17 H15 1_555 1_555
H16 C17 1_555 1_555
C18 N13 1_555 1_555
C19 H17 1_555 1_555
H18 C19 1_555 1_555
C20 N15 1_555 1_555
C21 N3 1_555 1_555
H19 C21 1_555 1_555
C22 N4 1_555 1_555
H20 C22 1_555 1_555
C23 H21 1_555 1_555
H22 C23 1_555 1_555
C24 N4 1_555 1_555
H23 C24 1_555 1_555
H24 C24 1_555 1_555
C25 N17 1_555 1_555
C26 H25 1_555 1_555
C27 C26 1_555 1_555
H26 C27 1_555 1_555
C28 O10 1_555 1_555
C29 H27 1_555 1_555
H28 C29 1_555 1_555
C30 H29 1_555 1_555
H30 C30 1_555 1_555
N5 C8 1_555 1_555
N6 C7 1_555 1_555
N7 C8 1_555 1_555
N8 C9 1_555 1_555
N9 C11 1_555 1_555
N10 C13 1_555 1_555
N11 C12 1_555 1_555
N12 C1 1_555 1_555
N13 C2 1_555 1_555
N14 C3 1_555 1_555
N15 C19 1_555 1_555
N16 C20 1_555 1_555
N17 C23 1_555 1_555
N18 C25 1_555 1_555
N19 C24 1_555 1_555
N20 C27 1_555 1_555
O13 K1 1_555 1_555
O14 K1 1_555 1_555
O15 K1 1_555 1_555
O16 K1 1_555 1_555
O17 K1 1_555 1_555
C31 H31 1_555 1_555
C32 C31 1_555 1_555
C33 C32 1_555 1_555
H32 C33 1_555 1_555
C34 C33 1_555 1_555
H33 C34 1_555 1_555
C35 H34 1_555 1_555
C36 C35 1_555 1_555
C37 C36 1_555 1_555
H35 C37 1_555 1_555
C38 C37 1_555 1_555
H36 C38 1_555 1_555
C39 C38 1_555 1_555
H37 C39 1_555 1_555
C40 C35 1_555 1_555
C41 C34 1_555 1_555
H38 C41 1_555 1_555
C42 C31 1_555 1_555
O18 C40 1_555 1_555
H39 O18 1_555 1_555
O19 C36 1_555 1_555
H40 O19 1_555 1_555
O20 C42 1_555 1_555
H41 O20 1_555 1_555
O21 C32 1_555 1_555
H42 O21 1_555 1_555
N21 O25 1_555 1_555
N22 O22 1_555 1_555
O23 N22 1_555 1_555
O24 N22 1_555 1_555
O26 N21 1_555 1_555
O27 N21 1_555 1_555
O4_2 K2 1_555 1_555
K2_2 O4 1_555 1_555
C2 N1 1_555 1_555
C4 N2 1_555 1_555
C5 N2 1_555 1_555
C6 N3 1_555 1_555
C7 O13 1_555 1_555
C9 N6 1_555 1_555
C10 N7 1_555 1_555
C10 N8 1_555 1_555
C11 N6 1_555 1_555
C12 N8 1_555 1_555
C13 O14 1_555 1_555
C14 N9 1_555 1_555
C14 N11 1_555 1_555
C15 N10 1_555 1_555
C15 N12 1_555 1_555
C16 N11 1_555 1_555
C16 N12 1_555 1_555
C17 N10 1_555 1_555
C17 N13 1_555 1_555
C18 N14 1_555 1_555
C18 O15 1_555 1_555
C19 N14 1_555 1_555
C20 O16 1_555 1_555
C21 C22 1_555 1_555
C21 N15 1_555 1_555
C22 N16 1_555 1_555
C23 N16 1_555 1_555
C25 O17 1_555 1_555
C26 N17 1_555 1_555
C26 N19 1_555 1_555
C27 N18 1_555 1_555
C28 N19 1_555 1_555
C28 N20 1_555 1_555
C29 N5 1_555 1_555
C29 N18 1_555 1_555
C30 N7 1_555 1_555
C30 N20 1_555 1_555
C39 C40 1_555 1_555
C41 C42 1_555 1_555

#END
